# Generated by pormake.
# Topology apo, (3,6)-cn, num edge types: 1
# Building blocks:
#     Node 0, Type 0, BuildingBlock: OLANEW_clean_sbu_2, # of connection points: 3
#     Node 1, Type 0, BuildingBlock: OLANEW_clean_sbu_2, # of connection points: 3
#     Node 2, Type 0, BuildingBlock: OLANEW_clean_sbu_2, # of connection points: 3
#     Node 3, Type 0, BuildingBlock: OLANEW_clean_sbu_2, # of connection points: 3
#     Node 4, Type 0, BuildingBlock: OLANEW_clean_sbu_2, # of connection points: 3
#     Node 5, Type 0, BuildingBlock: OLANEW_clean_sbu_2, # of connection points: 3
#     Node 6, Type 0, BuildingBlock: OLANEW_clean_sbu_2, # of connection points: 3
#     Node 7, Type 0, BuildingBlock: OLANEW_clean_sbu_2, # of connection points: 3
#     Node 8, Type 1, BuildingBlock: KUMBOL_clean_sbu_1, # of connection points: 6
#     Node 9, Type 1, BuildingBlock: KUMBOL_clean_sbu_1, # of connection points: 6
#     Node 10, Type 1, BuildingBlock: KUMBOL_clean_sbu_1, # of connection points: 6
#     Node 11, Type 1, BuildingBlock: KUMBOL_clean_sbu_1, # of connection points: 6
#     Edge 12, Type (0, 1), BuildingBlock: KIFKEQ_clean_linker_1, # of connection points: 2
#     Edge 13, Type (0, 1), BuildingBlock: KIFKEQ_clean_linker_1, # of connection points: 2
#     Edge 14, Type (0, 1), BuildingBlock: KIFKEQ_clean_linker_1, # of connection points: 2
#     Edge 15, Type (0, 1), BuildingBlock: KIFKEQ_clean_linker_1, # of connection points: 2
#     Edge 16, Type (0, 1), BuildingBlock: KIFKEQ_clean_linker_1, # of connection points: 2
#     Edge 17, Type (0, 1), BuildingBlock: KIFKEQ_clean_linker_1, # of connection points: 2
#     Edge 18, Type (0, 1), BuildingBlock: KIFKEQ_clean_linker_1, # of connection points: 2
#     Edge 19, Type (0, 1), BuildingBlock: KIFKEQ_clean_linker_1, # of connection points: 2
#     Edge 20, Type (0, 1), BuildingBlock: KIFKEQ_clean_linker_1, # of connection points: 2
#     Edge 21, Type (0, 1), BuildingBlock: KIFKEQ_clean_linker_1, # of connection points: 2
#     Edge 22, Type (0, 1), BuildingBlock: KIFKEQ_clean_linker_1, # of connection points: 2
#     Edge 23, Type (0, 1), BuildingBlock: KIFKEQ_clean_linker_1, # of connection points: 2
#     Edge 24, Type (0, 1), BuildingBlock: KIFKEQ_clean_linker_1, # of connection points: 2
#     Edge 25, Type (0, 1), BuildingBlock: KIFKEQ_clean_linker_1, # of connection points: 2
#     Edge 26, Type (0, 1), BuildingBlock: KIFKEQ_clean_linker_1, # of connection points: 2
#     Edge 27, Type (0, 1), BuildingBlock: KIFKEQ_clean_linker_1, # of connection points: 2
#     Edge 28, Type (0, 1), BuildingBlock: KIFKEQ_clean_linker_1, # of connection points: 2
#     Edge 29, Type (0, 1), BuildingBlock: KIFKEQ_clean_linker_1, # of connection points: 2
#     Edge 30, Type (0, 1), BuildingBlock: KIFKEQ_clean_linker_1, # of connection points: 2
#     Edge 31, Type (0, 1), BuildingBlock: KIFKEQ_clean_linker_1, # of connection points: 2
#     Edge 32, Type (0, 1), BuildingBlock: KIFKEQ_clean_linker_1, # of connection points: 2
#     Edge 33, Type (0, 1), BuildingBlock: KIFKEQ_clean_linker_1, # of connection points: 2
#     Edge 34, Type (0, 1), BuildingBlock: KIFKEQ_clean_linker_1, # of connection points: 2
#     Edge 35, Type (0, 1), BuildingBlock: KIFKEQ_clean_linker_1, # of connection points: 2
# Relax obj value: 0.030
# Max RMSD: 0.224
# Mean RMSD: 0.133
data_MOF--net-apo--node1-OLANEW_clean_sbu_2--node2-KUMBOL_clean_sbu_1--edge1-KIFKEQ_clean_linker_1
_symmetry_space_group_name_H-M    P1
_symmetry_Int_Tables_number       1
_symmetry_cell_setting            triclinic
loop_
_symmetry_equiv_pos_as_xyz
'x, y, z'
_cell_length_a     29.232157
_cell_length_b     45.438796
_cell_length_c     56.704016
_cell_angle_alpha  88.73255
_cell_angle_beta   89.98458
_cell_angle_gamma 90.130418
loop_
_atom_site_label
_atom_site_type_symbol
_atom_site_fract_x
_atom_site_fract_y
_atom_site_fract_z
_atom_type_partial_charge
O0 O 0.34531 0.4073 0.35639 0.0
Cd1 Cd 0.31629 0.36618 0.38078 0.0
O2 O 0.38325 0.42624 0.38602 0.0
Cd3 Cd 0.36588 0.39471 0.41426 0.0
O4 O 0.37305 0.38832 0.45244 0.0
C5 C 0.38928 0.41073 0.46259 0.0
O6 O 0.39904 0.43427 0.44965 0.0
C7 C 0.37125 0.42721 0.36446 0.0
C8 C 0.26105 0.32751 0.3556 0.0
O9 O 0.24423 0.35041 0.36513 0.0
O10 O 0.3041 0.32295 0.35785 0.0
O11 O 0.24828 0.13069 0.94996 0.0
Cd12 Cd 0.28475 0.12419 0.91146 0.0
O13 O 0.20569 0.09162 0.94373 0.0
Cd14 Cd 0.22354 0.08321 0.90712 0.0
O15 O 0.20393 0.05605 0.87743 0.0
C16 C 0.17131 0.03844 0.88245 0.0
O17 O 0.15399 0.03868 0.90384 0.0
C18 C 0.21863 0.11203 0.95721 0.0
C19 C 0.32122 0.17427 0.88891 0.0
O20 O 0.28062 0.16535 0.88429 0.0
O21 O 0.34405 0.16006 0.90473 0.0
O22 O 0.79371 0.08632 0.63678 0.0
Cd23 Cd 0.76309 0.1293 0.61532 0.0
O24 O 0.84094 0.07475 0.60813 0.0
Cd25 Cd 0.81869 0.10736 0.5815 0.0
O26 O 0.81278 0.12617 0.54564 0.0
C27 C 0.80228 0.10873 0.52924 0.0
O28 O 0.7938 0.08101 0.53475 0.0
C29 C 0.82519 0.06999 0.6288 0.0
C30 C 0.71811 0.16845 0.64489 0.0
O31 O 0.69609 0.14813 0.63438 0.0
O32 O 0.76141 0.17016 0.64154 0.0
O33 O 0.69959 0.34671 0.06437 0.0
Cd34 Cd 0.70763 0.36035 0.1058 0.0
O35 O 0.72638 0.38862 0.04984 0.0
Cd36 Cd 0.73369 0.40901 0.08423 0.0
O37 O 0.72364 0.44291 0.11053 0.0
C38 C 0.70658 0.43758 0.13081 0.0
O39 O 0.69634 0.4103 0.13694 0.0
C40 C 0.71027 0.36299 0.04665 0.0
C41 C 0.76297 0.32236 0.1327 0.0
O42 O 0.721 0.31607 0.12858 0.0
O43 O 0.77904 0.34647 0.1239 0.0
O44 O 0.72466 0.57393 0.63358 0.0
Cd45 Cd 0.76669 0.60879 0.60806 0.0
O46 O 0.71962 0.54093 0.60582 0.0
Cd47 Cd 0.74599 0.56847 0.57672 0.0
O48 O 0.75269 0.58262 0.53971 0.0
C49 C 0.71667 0.59083 0.52888 0.0
O50 O 0.678 0.5919 0.54065 0.0
C51 C 0.71275 0.54843 0.62701 0.0
C52 C 0.80758 0.65398 0.63336 0.0
O53 O 0.76901 0.65789 0.62303 0.0
O54 O 0.82673 0.62876 0.63181 0.0
O55 O 0.8159 0.92686 0.13742 0.0
Cd56 Cd 0.77709 0.89131 0.11232 0.0
O57 O 0.81837 0.95997 0.10847 0.0
Cd58 Cd 0.79737 0.93146 0.07979 0.0
O59 O 0.8014 0.91866 0.04282 0.0
C60 C 0.83449 0.90271 0.0362 0.0
O61 O 0.86354 0.89267 0.0521 0.0
C62 C 0.82536 0.9528 0.12999 0.0
C63 C 0.73149 0.84643 0.13754 0.0
O64 O 0.77163 0.84236 0.12912 0.0
O65 O 0.71307 0.87176 0.13427 0.0
O66 O 0.21829 0.91576 0.35504 0.0
Cd67 Cd 0.25005 0.87478 0.37847 0.0
O68 O 0.17531 0.93042 0.38442 0.0
Cd69 Cd 0.1926 0.8956 0.41006 0.0
O70 O 0.18634 0.87241 0.44412 0.0
C71 C 0.14601 0.86842 0.45198 0.0
O72 O 0.11127 0.87713 0.43891 0.0
C73 C 0.1896 0.93382 0.36334 0.0
C74 C 0.29601 0.83371 0.35124 0.0
O75 O 0.25385 0.83002 0.35682 0.0
O76 O 0.31631 0.85691 0.35838 0.0
O77 O 0.33159 0.59767 0.86592 0.0
Cd78 Cd 0.29778 0.63799 0.88797 0.0
O79 O 0.30624 0.5643 0.89146 0.0
Cd80 Cd 0.28736 0.59672 0.91758 0.0
O81 O 0.29825 0.62141 0.94975 0.0
C82 C 0.33963 0.62724 0.95478 0.0
O83 O 0.37192 0.61928 0.94012 0.0
C84 C 0.32643 0.57078 0.87216 0.0
C85 C 0.24283 0.67516 0.86016 0.0
O86 O 0.28483 0.68152 0.86415 0.0
O87 O 0.2269 0.65113 0.86915 0.0
C88 C 0.88716 0.09756 0.26676 0.0
C89 C 0.90848 0.05098 0.28513 0.0
C90 C 0.91795 0.08084 0.27983 0.0
C91 C 0.86879 0.03793 0.27602 0.0
C92 C 0.84631 0.08498 0.25843 0.0
C93 C 0.83773 0.05491 0.26272 0.0
N94 N 0.89697 0.1264 0.26248 0.0
C95 C 0.86596 0.14452 0.25156 0.0
C96 C 0.81512 0.10313 0.24631 0.0
C97 C 0.82474 0.13311 0.24314 0.0
Gd98 Gd 0.06307 0.15021 0.22442 0.0
Gd99 Gd 0.96741 0.14367 0.27643 0.0
N100 N 0.95574 0.09425 0.28855 0.0
C101 C 0.93835 0.03544 0.30011 0.0
C102 C 0.98237 0.07997 0.30489 0.0
C103 C 0.97495 0.05018 0.31042 0.0
H104 H 0.00893 0.09161 0.31404 0.0
H105 H 0.99703 0.03878 0.3229 0.0
H106 H 0.04529 0.21754 0.20256 0.0
H107 H 0.87351 0.16766 0.24903 0.0
H108 H 0.08277 0.26659 0.20281 0.0
H109 H 0.93234 0.01245 0.3046 0.0
H110 H 0.8612 0.01493 0.27968 0.0
H111 H 0.14439 0.10158 0.24325 0.0
H112 H 0.78329 0.09431 0.23965 0.0
H113 H 0.80054 0.1474 0.23412 0.0
H114 H 0.22032 0.25016 0.24762 0.0
H115 H 0.80679 0.04472 0.25623 0.0
H116 H 0.25581 0.15087 0.27114 0.0
H117 H 0.21839 0.10307 0.26376 0.0
N118 N 0.13671 0.14823 0.24152 0.0
C119 C 0.15843 0.17454 0.2437 0.0
C120 C 0.15893 0.12268 0.24741 0.0
C121 C 0.22261 0.1504 0.26265 0.0
C122 C 0.20154 0.12339 0.25859 0.0
C123 C 0.20169 0.17639 0.2546 0.0
H124 H 0.25618 0.20581 0.26505 0.0
N125 N 0.09691 0.19697 0.22341 0.0
C126 C 0.1384 0.19955 0.23389 0.0
C127 C 0.14017 0.25142 0.22359 0.0
C128 C 0.1608 0.22701 0.2347 0.0
C129 C 0.07753 0.22029 0.2116 0.0
C130 C 0.09863 0.24796 0.21173 0.0
O131 O 0.9534 0.12647 0.23987 0.0
O132 O 0.02205 0.10811 0.22772 0.0
O133 O 0.04747 0.15439 0.18709 0.0
O134 O 0.11275 0.13701 0.19815 0.0
O135 O 0.03855 0.12544 0.28361 0.0
O136 O 0.06395 0.10893 0.24768 0.0
O137 O 0.04952 0.18678 0.25003 0.0
O138 O 0.03688 0.16229 0.28482 0.0
O139 O 0.9431 0.14105 0.3126 0.0
O140 O 0.93517 0.1815 0.29232 0.0
O141 O 0.9934 0.1692 0.21582 0.0
O142 O 0.96084 0.18329 0.25143 0.0
C143 C 0.97728 0.10651 0.22899 0.0
C144 C 0.06207 0.10686 0.27088 0.0
C145 C 0.08123 0.11907 0.1631 0.0
C146 C 0.09245 0.10209 0.12301 0.0
C147 C 0.05391 0.0708 0.15224 0.0
C148 C 0.05943 0.09242 0.1691 0.0
C149 C 0.07016 0.07558 0.12931 0.0
C150 C 0.09797 0.12378 0.14012 0.0
C151 C 0.08556 0.14239 0.18046 0.0
C152 C 0.20291 0.22917 0.24645 0.0
C153 C 0.22324 0.20392 0.25645 0.0
H154 H 0.15627 0.27291 0.22383 0.0
C155 C 0.05583 0.18401 0.27282 0.0
C156 C 0.96459 0.1851 0.22818 0.0
C157 C 0.87965 0.17034 0.32203 0.0
C158 C 0.82948 0.16643 0.35653 0.0
C159 C 0.7987 0.18117 0.31818 0.0
C160 C 0.84212 0.17896 0.30809 0.0
C161 C 0.7923 0.17493 0.34221 0.0
C162 C 0.8731 0.16418 0.3462 0.0
C163 C 0.92592 0.16738 0.312 0.0
H164 H 0.03695 0.0503 0.15696 0.0
H165 H 0.0466 0.08841 0.18676 0.0
H166 H 0.06578 0.05839 0.11656 0.0
H167 H 0.11448 0.1445 0.13547 0.0
H168 H 0.76989 0.18784 0.30735 0.0
H169 H 0.84627 0.18403 0.28948 0.0
H170 H 0.75837 0.17714 0.34962 0.0
H171 H 0.90204 0.1572 0.35687 0.0
C172 C 0.65 0.41099 0.76938 0.0
C173 C 0.63457 0.45812 0.78671 0.0
C174 C 0.62287 0.42839 0.78332 0.0
C175 C 0.67234 0.47039 0.77467 0.0
C176 C 0.68933 0.42268 0.75825 0.0
C177 C 0.69972 0.45268 0.76048 0.0
N178 N 0.6385 0.38224 0.76726 0.0
C179 C 0.66684 0.36325 0.75602 0.0
C180 C 0.7174 0.40369 0.74559 0.0
C181 C 0.70646 0.37375 0.74478 0.0
Gd182 Gd 0.46429 0.36516 0.73858 0.0
Gd183 Gd 0.57008 0.36654 0.7852 0.0
N184 N 0.58701 0.41565 0.79489 0.0
C185 C 0.60907 0.47425 0.80281 0.0
C186 C 0.56508 0.43047 0.81226 0.0
C187 C 0.57481 0.46016 0.81602 0.0
H188 H 0.54032 0.41941 0.82345 0.0
H189 H 0.55632 0.47201 0.82935 0.0
H190 H 0.4621 0.29718 0.71846 0.0
H191 H 0.65804 0.34019 0.75524 0.0
H192 H 0.41393 0.25228 0.72228 0.0
H193 H 0.61689 0.49716 0.80593 0.0
H194 H 0.6815 0.4933 0.77681 0.0
H195 H 0.39536 0.42106 0.75447 0.0
H196 H 0.74797 0.4118 0.73679 0.0
H197 H 0.72835 0.35881 0.73541 0.0
H198 H 0.28985 0.28154 0.77226 0.0
H199 H 0.72943 0.46223 0.75179 0.0
H200 H 0.2787 0.38401 0.78974 0.0
H201 H 0.32423 0.42757 0.77712 0.0
N202 N 0.3937 0.37432 0.75715 0.0
C203 C 0.36734 0.35034 0.76217 0.0
C204 C 0.37727 0.40188 0.76108 0.0
C205 C 0.31073 0.38103 0.78049 0.0
C206 C 0.33635 0.40566 0.77343 0.0
C207 C 0.32533 0.35296 0.77417 0.0
H208 H 0.26625 0.32928 0.78793 0.0
N209 N 0.42003 0.32217 0.74099 0.0
C210 C 0.38049 0.32349 0.75342 0.0
C211 C 0.36492 0.27248 0.74527 0.0
C212 C 0.35222 0.29851 0.75631 0.0
C213 C 0.43148 0.29743 0.72913 0.0
C214 C 0.40432 0.2721 0.73128 0.0
O215 O 0.57857 0.38089 0.74686 0.0
O216 O 0.51137 0.4044 0.73936 0.0
O217 O 0.47831 0.36222 0.70109 0.0
O218 O 0.41421 0.38018 0.71273 0.0
O219 O 0.50262 0.38738 0.79585 0.0
O220 O 0.47395 0.40575 0.76069 0.0
O221 O 0.47515 0.32725 0.76478 0.0
O222 O 0.50066 0.35093 0.79733 0.0
O223 O 0.60346 0.36706 0.8196 0.0
O224 O 0.60331 0.32745 0.79938 0.0
O225 O 0.52659 0.33893 0.72822 0.0
O226 O 0.56754 0.32624 0.76231 0.0
C227 C 0.55566 0.40231 0.73657 0.0
C228 C 0.47826 0.40686 0.78376 0.0
C229 C 0.44702 0.40075 0.67826 0.0
C230 C 0.44797 0.42032 0.63784 0.0
C231 C 0.46838 0.45166 0.67051 0.0
C232 C 0.46075 0.42832 0.68642 0.0
C233 C 0.4621 0.44775 0.64637 0.0
C234 C 0.44053 0.39683 0.65401 0.0
C235 C 0.44098 0.37578 0.69485 0.0
C236 C 0.31172 0.30059 0.7695 0.0
C237 C 0.29835 0.32777 0.77847 0.0
H238 H 0.34405 0.25282 0.747 0.0
C239 C 0.47806 0.32933 0.78778 0.0
C240 C 0.55647 0.32246 0.73996 0.0
C241 C 0.59695 0.32186 0.84084 0.0
C242 C 0.60108 0.31235 0.88347 0.0
C243 C 0.55036 0.28329 0.85904 0.0
C244 C 0.56433 0.29924 0.83903 0.0
C245 C 0.56863 0.28965 0.88108 0.0
C246 C 0.61514 0.32834 0.8631 0.0
C247 C 0.61182 0.33898 0.81971 0.0
H248 H 0.47909 0.47286 0.6769 0.0
H249 H 0.46561 0.43176 0.70508 0.0
H250 H 0.46765 0.46633 0.6344 0.0
H251 H 0.43043 0.3754 0.64775 0.0
H252 H 0.52532 0.26585 0.85746 0.0
H253 H 0.54957 0.29382 0.82215 0.0
H254 H 0.55761 0.27653 0.89622 0.0
H255 H 0.63965 0.34614 0.86454 0.0
C256 C 0.86442 0.8106 0.75838 0.0
C257 C 0.88031 0.76366 0.77764 0.0
C258 C 0.89268 0.79308 0.7723 0.0
C259 C 0.8402 0.7519 0.7679 0.0
C260 C 0.82309 0.79938 0.74944 0.0
C261 C 0.81158 0.76975 0.75388 0.0
N262 N 0.87697 0.83894 0.75399 0.0
C263 C 0.84845 0.85798 0.74228 0.0
C264 C 0.79437 0.81842 0.73655 0.0
C265 C 0.80688 0.84795 0.7332 0.0
Gd266 Gd 0.04991 0.859 0.72171 0.0
Gd267 Gd 0.94688 0.85429 0.76962 0.0
N268 N 0.9308 0.80532 0.78173 0.0
C269 C 0.90779 0.74726 0.79325 0.0
C270 C 0.95547 0.79013 0.79843 0.0
C271 C 0.94507 0.76073 0.804 0.0
H272 H 0.98283 0.80063 0.80787 0.0
H273 H 0.96541 0.74863 0.81686 0.0
H274 H 0.03861 0.92682 0.69934 0.0
H275 H 0.85827 0.88077 0.73969 0.0
H276 H 0.07882 0.97487 0.70086 0.0
H277 H 0.8995 0.72458 0.79779 0.0
H278 H 0.8304 0.72926 0.77162 0.0
H279 H 0.12683 0.80837 0.7415 0.0
H280 H 0.76227 0.81067 0.72941 0.0
H281 H 0.78462 0.86293 0.72357 0.0
H282 H 0.21034 0.95482 0.74947 0.0
H283 H 0.78025 0.76059 0.74691 0.0
H284 H 0.23808 0.85445 0.7729 0.0
H285 H 0.19893 0.80767 0.76393 0.0
N286 N 0.1216 0.85511 0.74058 0.0
C287 C 0.14438 0.88088 0.74366 0.0
C288 C 0.14204 0.82897 0.74647 0.0
C289 C 0.20562 0.85491 0.76367 0.0
C290 C 0.18359 0.82847 0.7587 0.0
C291 C 0.18677 0.88152 0.75551 0.0
H292 H 0.24207 0.90943 0.76736 0.0
N293 N 0.08625 0.90499 0.72188 0.0
C294 C 0.12669 0.90648 0.73357 0.0
C295 C 0.13272 0.95826 0.72342 0.0
C296 C 0.15061 0.93333 0.73507 0.0
C297 C 0.06975 0.92876 0.70946 0.0
C298 C 0.09244 0.95586 0.71028 0.0
O299 O 0.93674 0.83759 0.73254 0.0
O300 O 0.00646 0.81794 0.72373 0.0
O301 O 0.03805 0.86215 0.6839 0.0
O302 O 0.1025 0.84578 0.69713 0.0
O303 O 0.01569 0.83449 0.77973 0.0
O304 O 0.04605 0.81762 0.74496 0.0
O305 O 0.0375 0.89587 0.74738 0.0
O306 O 0.01633 0.87021 0.78051 0.0
O307 O 0.91727 0.85404 0.80494 0.0
O308 O 0.91286 0.89299 0.7826 0.0
O309 O 0.98304 0.88019 0.71083 0.0
O310 O 0.94758 0.89467 0.74538 0.0
C311 C 0.96165 0.81741 0.72246 0.0
C312 C 0.04132 0.81593 0.76806 0.0
C313 C 0.07517 0.82613 0.66183 0.0
C314 C 0.08371 0.80909 0.62154 0.0
C315 C 0.06097 0.77492 0.65311 0.0
C316 C 0.06309 0.79755 0.66933 0.0
C317 C 0.0712 0.78058 0.62935 0.0
C318 C 0.08542 0.83182 0.63801 0.0
C319 C 0.07701 0.85021 0.67863 0.0
C320 C 0.19173 0.93432 0.74783 0.0
C321 C 0.20972 0.90847 0.75807 0.0
H322 H 0.1501 0.97931 0.72412 0.0
C323 C 0.03751 0.89248 0.77038 0.0
C324 C 0.95552 0.89764 0.72252 0.0
C325 C 0.92483 0.9 0.82331 0.0
C326 C 0.92731 0.91067 0.86538 0.0
C327 C 0.97381 0.93912 0.83748 0.0
C328 C 0.95675 0.92268 0.81896 0.0
C329 C 0.95934 0.93318 0.86053 0.0
C330 C 0.91007 0.89418 0.84656 0.0
C331 C 0.90762 0.88197 0.80381 0.0
H332 H 0.05157 0.75289 0.65899 0.0
H333 H 0.05552 0.7928 0.6877 0.0
H334 H 0.06994 0.76256 0.61718 0.0
H335 H 0.09417 0.85406 0.6323 0.0
H336 H 0.99828 0.95657 0.83394 0.0
H337 H 0.96863 0.92776 0.80125 0.0
H338 H 0.97276 0.94654 0.87454 0.0
H339 H 0.88579 0.87654 0.85001 0.0
C340 C 0.64848 0.68917 0.26399 0.0
C341 C 0.62621 0.73414 0.28299 0.0
C342 C 0.61672 0.7049 0.27668 0.0
C343 C 0.66705 0.74765 0.27534 0.0
C344 C 0.69052 0.70209 0.25726 0.0
C345 C 0.69921 0.73162 0.26256 0.0
N346 N 0.63873 0.66085 0.25875 0.0
C347 C 0.67053 0.64351 0.24824 0.0
C348 C 0.7228 0.68476 0.24575 0.0
C349 C 0.71296 0.65523 0.24148 0.0
Gd350 Gd 0.47343 0.63904 0.21828 0.0
Gd351 Gd 0.56728 0.64267 0.27092 0.0
N352 N 0.57799 0.69099 0.28418 0.0
C353 C 0.59518 0.74855 0.29754 0.0
C354 C 0.54994 0.70404 0.30011 0.0
C355 C 0.55731 0.73322 0.3065 0.0
H356 H 0.52217 0.6919 0.30826 0.0
H357 H 0.53422 0.74368 0.31865 0.0
H358 H 0.48912 0.57335 0.19518 0.0
H359 H 0.66273 0.62076 0.24475 0.0
H360 H 0.45099 0.52449 0.19528 0.0
H361 H 0.60116 0.77103 0.30276 0.0
H362 H 0.6747 0.77019 0.27982 0.0
H363 H 0.39203 0.68689 0.23662 0.0
H364 H 0.75557 0.69385 0.24036 0.0
H365 H 0.73789 0.64156 0.23286 0.0
H366 H 0.31548 0.53837 0.24176 0.0
H367 H 0.73106 0.74208 0.25728 0.0
H368 H 0.28093 0.63646 0.26533 0.0
H369 H 0.31823 0.68458 0.2574 0.0
N370 N 0.40009 0.64031 0.23572 0.0
C371 C 0.37835 0.6139 0.2381 0.0
C372 C 0.37769 0.66563 0.2412 0.0
C373 C 0.31416 0.63727 0.25686 0.0
C374 C 0.33515 0.66446 0.25248 0.0
C375 C 0.33505 0.61161 0.24899 0.0
H376 H 0.28021 0.58183 0.25938 0.0
N377 N 0.43905 0.5925 0.21717 0.0
C378 C 0.39796 0.58937 0.22811 0.0
C379 C 0.395 0.53832 0.21717 0.0
C380 C 0.37522 0.562 0.22884 0.0
C381 C 0.45739 0.57004 0.20468 0.0
C382 C 0.43591 0.54249 0.20472 0.0
O383 O 0.58371 0.66152 0.23445 0.0
O384 O 0.51558 0.68052 0.22125 0.0
O385 O 0.48947 0.63831 0.18088 0.0
O386 O 0.42268 0.65219 0.19222 0.0
O387 O 0.49577 0.66036 0.27714 0.0
O388 O 0.47273 0.67948 0.24111 0.0
O389 O 0.48576 0.60033 0.24343 0.0
O390 O 0.49691 0.62434 0.27753 0.0
O391 O 0.59162 0.64223 0.30715 0.0
O392 O 0.59496 0.60263 0.28686 0.0
O393 O 0.54265 0.61956 0.21014 0.0
O394 O 0.57603 0.60479 0.24587 0.0
C395 C 0.5604 0.68169 0.22268 0.0
C396 C 0.47387 0.68029 0.2643 0.0
C397 C 0.45087 0.67311 0.15687 0.0
C398 C 0.43487 0.69077 0.11675 0.0
C399 C 0.46673 0.7239 0.14571 0.0
C400 C 0.46656 0.70118 0.16271 0.0
C401 C 0.45098 0.71881 0.12286 0.0
C402 C 0.4352 0.66798 0.13398 0.0
C403 C 0.45005 0.64894 0.17443 0.0
C404 C 0.33324 0.55931 0.24074 0.0
C405 C 0.31323 0.58405 0.25083 0.0
H406 H 0.37856 0.51692 0.21728 0.0
C407 C 0.48238 0.60126 0.26641 0.0
C408 C 0.57066 0.60275 0.22278 0.0
C409 C 0.65134 0.60921 0.3165 0.0
C410 C 0.70059 0.60492 0.35126 0.0
C411 C 0.73135 0.59626 0.31214 0.0
C412 C 0.68848 0.60174 0.30214 0.0
C413 C 0.73747 0.59781 0.33652 0.0
C414 C 0.65759 0.61074 0.34099 0.0
C415 C 0.60561 0.61514 0.30656 0.0
H416 H 0.47886 0.74556 0.15029 0.0
H417 H 0.47842 0.70547 0.18037 0.0
H418 H 0.45085 0.73689 0.1101 0.0
H419 H 0.42371 0.64607 0.12956 0.0
H420 H 0.75991 0.59065 0.30096 0.0
H421 H 0.68439 0.59991 0.28329 0.0
H422 H 0.77112 0.59357 0.3438 0.0
H423 H 0.62858 0.61585 0.35208 0.0
H424 H 0.12938 0.97628 0.37629 0.0
H425 H 0.21211 0.94886 0.31754 0.0
H426 H 0.1023 0.01824 0.35304 0.0
H427 H 0.18529 0.99142 0.2943 0.0
H428 H 0.08115 0.05248 0.254 0.0
H429 H 0.11462 0.01062 0.27563 0.0
H430 H 0.13158 0.06471 0.33675 0.0
H431 H 0.0978 0.10633 0.31519 0.0
C432 C 0.14197 0.97922 0.35842 0.0
C433 C 0.17303 0.95917 0.34882 0.0
C434 C 0.12665 0.00346 0.34515 0.0
C435 C 0.14195 0.00833 0.32189 0.0
C436 C 0.17269 0.98817 0.31213 0.0
C437 C 0.18817 0.96386 0.32548 0.0
C438 C 0.09262 0.05544 0.27196 0.0
C439 C 0.08637 0.08247 0.28307 0.0
C440 C 0.11183 0.03152 0.28433 0.0
C441 C 0.12524 0.03425 0.308 0.0
C442 C 0.12071 0.06172 0.3187 0.0
C443 C 0.10156 0.08558 0.30635 0.0
H444 H 0.38807 0.57604 0.83597 0.0
H445 H 0.30931 0.51175 0.87601 0.0
H446 H 0.42476 0.53661 0.8146 0.0
H447 H 0.34458 0.47238 0.85404 0.0
H448 H 0.45248 0.40766 0.83002 0.0
H449 H 0.41537 0.44754 0.85072 0.0
H450 H 0.41379 0.49994 0.78613 0.0
H451 H 0.45317 0.46064 0.76587 0.0
C452 C 0.37807 0.55351 0.83996 0.0
C453 C 0.34591 0.54705 0.85776 0.0
C454 C 0.399 0.53086 0.82763 0.0
C455 C 0.3879 0.50121 0.83265 0.0
C456 C 0.35476 0.49487 0.85004 0.0
C457 C 0.33422 0.51749 0.86252 0.0
C458 C 0.44449 0.42781 0.82033 0.0
C459 C 0.45562 0.43101 0.79634 0.0
C460 C 0.42273 0.45058 0.83211 0.0
C461 C 0.41124 0.47699 0.82009 0.0
C462 C 0.42253 0.48011 0.79605 0.0
C463 C 0.44469 0.45746 0.78436 0.0
H464 H 0.68246 0.55844 0.67197 0.0
H465 H 0.69324 0.49048 0.62011 0.0
H466 H 0.6455 0.52333 0.69924 0.0
H467 H 0.65628 0.45567 0.64727 0.0
H468 H 0.6332 0.39407 0.71099 0.0
H469 H 0.67298 0.42996 0.68563 0.0
H470 H 0.57112 0.49522 0.70181 0.0
H471 H 0.53197 0.45942 0.72764 0.0
C472 C 0.67704 0.53606 0.66639 0.0
C473 C 0.69081 0.5273 0.64384 0.0
C474 C 0.65569 0.51601 0.68197 0.0
C475 C 0.6481 0.48675 0.6754 0.0
C476 C 0.66216 0.47797 0.65294 0.0
C477 C 0.6831 0.49801 0.63733 0.0
C478 C 0.61966 0.41618 0.70931 0.0
C479 C 0.57967 0.42403 0.7213 0.0
C480 C 0.64216 0.43664 0.69465 0.0
C481 C 0.62513 0.4654 0.69171 0.0
C482 C 0.5853 0.47332 0.70391 0.0
C483 C 0.56268 0.45278 0.71849 0.0
H484 H 0.86248 0.94353 0.17405 0.0
H485 H 0.83342 0.01197 0.12209 0.0
H486 H 0.8978 0.98014 0.19946 0.0
H487 H 0.86847 0.04825 0.1474 0.0
H488 H 0.89315 0.10951 0.20858 0.0
H489 H 0.8539 0.07143 0.18651 0.0
H490 H 0.9687 0.0131 0.19763 0.0
H491 H 0.00761 0.05114 0.22015 0.0
C492 C 0.86336 0.96635 0.16811 0.0
C493 C 0.84518 0.97481 0.14603 0.0
C494 C 0.88378 0.98724 0.18259 0.0
C495 C 0.88581 0.01704 0.17541 0.0
C496 C 0.86698 0.02551 0.15352 0.0
C497 C 0.84713 0.00465 0.13897 0.0
C498 C 0.90967 0.08841 0.20659 0.0
C499 C 0.95329 0.0832 0.21611 0.0
C500 C 0.88741 0.06671 0.1938 0.0
C501 C 0.90828 0.03931 0.19031 0.0
C502 C 0.95161 0.03391 0.20022 0.0
C503 C 0.97402 0.05573 0.2129 0.0
H504 H 0.90133 0.03732 0.62029 0.0
H505 H 0.79089 0.04648 0.67022 0.0
H506 H 0.93143 0.99617 0.64344 0.0
H507 H 0.82019 0.00441 0.69307 0.0
H508 H 0.91289 0.94609 0.74026 0.0
H509 H 0.88108 0.98798 0.71823 0.0
H510 H 0.91556 0.9463 0.6528 0.0
H511 H 0.94864 0.9051 0.67475 0.0
C512 C 0.88325 0.03042 0.63615 0.0
C513 C 0.84358 0.04517 0.64334 0.0
C514 C 0.90037 0.00662 0.64938 0.0
C515 C 0.87806 0.99667 0.67005 0.0
C516 C 0.83856 0.01161 0.67739 0.0
C517 C 0.82161 0.03566 0.66422 0.0
C518 C 0.91348 0.94584 0.72117 0.0
C519 C 0.9336 0.92231 0.70929 0.0
C520 C 0.89505 0.96983 0.70851 0.0
C521 C 0.89601 0.97073 0.68369 0.0
C522 C 0.91512 0.94677 0.67188 0.0
C523 C 0.93386 0.92297 0.6845 0.0
H524 H 0.7187 0.4965 0.12213 0.0
H525 H 0.66591 0.43453 0.17435 0.0
H526 H 0.69134 0.53716 0.14555 0.0
H527 H 0.63806 0.47534 0.19764 0.0
H528 H 0.62268 0.55798 0.24193 0.0
H529 H 0.66126 0.51862 0.22104 0.0
H530 H 0.61469 0.5559 0.15459 0.0
H531 H 0.5767 0.59521 0.17523 0.0
C532 C 0.7016 0.49152 0.1387 0.0
C533 C 0.69411 0.46222 0.14625 0.0
C534 C 0.68574 0.51485 0.15206 0.0
C535 C 0.66214 0.50947 0.17333 0.0
C536 C 0.65638 0.48022 0.1814 0.0
C537 C 0.67214 0.45683 0.16799 0.0
C538 C 0.621 0.55792 0.22285 0.0
C539 C 0.59642 0.57975 0.21029 0.0
C540 C 0.64291 0.53528 0.21091 0.0
C541 C 0.64106 0.53416 0.18617 0.0
C542 C 0.61731 0.55633 0.17364 0.0
C543 C 0.59523 0.5788 0.18553 0.0
H544 H 0.35156 0.43842 0.31765 0.0
H545 H 0.42702 0.47253 0.37669 0.0
H546 H 0.37649 0.48063 0.29331 0.0
H547 H 0.45226 0.51409 0.3524 0.0
H548 H 0.44901 0.60051 0.31124 0.0
H549 H 0.42028 0.55831 0.33409 0.0
H550 H 0.44634 0.50197 0.2752 0.0
H551 H 0.47527 0.54426 0.2524 0.0
C552 C 0.37358 0.45479 0.32541 0.0
C553 C 0.38712 0.4521 0.34916 0.0
C554 C 0.38798 0.4789 0.31144 0.0
C555 C 0.41607 0.50084 0.32098 0.0
C556 C 0.42994 0.4979 0.34463 0.0
C557 C 0.41567 0.47389 0.35852 0.0
C558 C 0.44862 0.57911 0.30318 0.0
C559 C 0.46418 0.5757 0.27999 0.0
C560 C 0.43223 0.55492 0.31627 0.0
C561 C 0.43118 0.52674 0.30649 0.0
C562 C 0.44616 0.52343 0.28315 0.0
C563 C 0.46269 0.54765 0.27008 0.0
H564 H 0.10497 0.99707 0.88936 0.0
H565 H 0.19639 0.03283 0.83602 0.0
H566 H 0.07518 0.96228 0.86129 0.0
H567 H 0.16655 0.99749 0.80781 0.0
H568 H 0.05798 0.95019 0.76011 0.0
H569 H 0.09326 0.98589 0.78626 0.0
H570 H 0.10373 0.91857 0.84097 0.0
H571 H 0.06913 0.88304 0.81485 0.0
C572 C 0.11882 0.9975 0.87164 0.0
C573 C 0.15323 0.01767 0.86497 0.0
C574 C 0.10188 0.9774 0.85558 0.0
C575 C 0.11882 0.97699 0.83241 0.0
C576 C 0.15275 0.99741 0.82554 0.0
C577 C 0.16994 0.01752 0.84171 0.0
C578 C 0.06874 0.94296 0.77754 0.0
C579 C 0.06107 0.91385 0.7854 0.0
C580 C 0.08878 0.96338 0.79253 0.0
C581 C 0.10097 0.95506 0.81571 0.0
C582 C 0.09412 0.92575 0.82332 0.0
C583 C 0.07438 0.90539 0.80834 0.0
H584 H 0.16118 0.07233 0.97831 0.0
H585 H 0.2328 0.15378 0.99104 0.0
H586 H 0.13072 0.07237 0.01798 0.0
H587 H 0.20086 0.15425 0.03096 0.0
H588 H 0.17589 0.12378 0.10904 0.0
H589 H 0.20573 0.12858 0.06885 0.0
H590 H 0.07683 0.09704 0.04179 0.0
H591 H 0.04767 0.09164 0.08188 0.0
C592 C 0.17011 0.09048 0.9895 0.0
C593 C 0.19944 0.11311 0.9814 0.0
C594 C 0.15229 0.09059 0.01229 0.0
C595 C 0.16292 0.11345 0.02767 0.0
C596 C 0.19223 0.13618 0.01964 0.0
C597 C 0.21035 0.13601 0.99672 0.0
C598 C 0.15389 0.11817 0.09444 0.0
C599 C 0.10965 0.107 0.09859 0.0
C600 C 0.1709 0.121 0.07141 0.0
C601 C 0.14389 0.11291 0.05206 0.0
C602 C 0.09901 0.10281 0.05627 0.0
C603 C 0.08221 0.09975 0.07925 0.0
H604 H 0.37599 0.36556 0.49495 0.0
H605 H 0.42189 0.45586 0.48855 0.0
H606 H 0.39167 0.36595 0.53733 0.0
H607 H 0.43656 0.45642 0.53067 0.0
H608 H 0.50244 0.43995 0.60161 0.0
H609 H 0.48905 0.4359 0.55941 0.0
H610 H 0.36393 0.38792 0.57367 0.0
H611 H 0.37758 0.39181 0.61599 0.0
C612 C 0.38925 0.38549 0.50258 0.0
C613 C 0.3978 0.41064 0.48835 0.0
C614 C 0.39805 0.38576 0.52686 0.0
C615 C 0.41565 0.41117 0.53738 0.0
C616 C 0.42385 0.4363 0.52311 0.0
C617 C 0.4151 0.43603 0.49893 0.0
C618 C 0.47201 0.4286 0.59574 0.0
C619 C 0.44089 0.41642 0.61214 0.0
C620 C 0.46431 0.42628 0.57155 0.0
C621 C 0.42518 0.41181 0.56314 0.0
C622 C 0.39462 0.39896 0.57954 0.0
C623 C 0.40242 0.40121 0.60379 0.0
H624 H 0.66357 0.31373 0.03346 0.0
H625 H 0.73391 0.39029 0.00481 0.0
H626 H 0.64004 0.30057 0.99379 0.0
H627 H 0.7101 0.3771 0.96516 0.0
H628 H 0.68909 0.32799 0.89519 0.0
H629 H 0.7192 0.3388 0.93427 0.0
H630 H 0.58573 0.32272 0.96456 0.0
H631 H 0.55532 0.31264 0.92563 0.0
C632 C 0.67448 0.32759 0.01871 0.0
C633 C 0.70041 0.35319 0.02237 0.0
C634 C 0.66071 0.32014 0.99599 0.0
C635 C 0.67284 0.33795 0.97637 0.0
C636 C 0.70039 0.36285 0.9799 0.0
C637 C 0.71387 0.37046 0.00265 0.0
C638 C 0.66602 0.32707 0.91013 0.0
C639 C 0.61975 0.31929 0.90719 0.0
C640 C 0.68336 0.33314 0.93254 0.0
C641 C 0.65494 0.33134 0.95252 0.0
C642 C 0.60873 0.3237 0.94958 0.0
C643 C 0.59132 0.31789 0.92722 0.0
H644 H 0.78062 0.07673 0.4906 0.0
H645 H 0.82443 0.1634 0.51103 0.0
H646 H 0.7852 0.09194 0.44926 0.0
H647 H 0.82825 0.1788 0.46952 0.0
H648 H 0.88457 0.18197 0.39332 0.0
H649 H 0.8755 0.16913 0.43505 0.0
H650 H 0.74951 0.12362 0.41954 0.0
H651 H 0.75943 0.13558 0.3777 0.0
C652 C 0.79082 0.09914 0.4863 0.0
C653 C 0.80233 0.11881 0.50417 0.0
C654 C 0.79318 0.10791 0.46255 0.0
C655 C 0.80716 0.13658 0.45603 0.0
C656 C 0.81791 0.15644 0.47392 0.0
C657 C 0.81545 0.14767 0.49772 0.0
C658 C 0.85506 0.16908 0.3988 0.0
C659 C 0.82287 0.15967 0.38213 0.0
C660 C 0.84956 0.16203 0.42277 0.0
C661 C 0.81178 0.14532 0.43067 0.0
C662 C 0.77925 0.13626 0.41404 0.0
C663 C 0.7847 0.14337 0.39007 0.0
H664 H 0.78683 0.92555 0.99844 0.0
H665 H 0.90285 0.87067 0.01629 0.0
H666 H 0.80748 0.92366 0.95685 0.0
H667 H 0.92291 0.8683 0.97467 0.0
H668 H 0.97977 0.90842 0.90523 0.0
H669 H 0.9544 0.90289 0.94595 0.0
H670 H 0.81485 0.89311 0.92224 0.0
H671 H 0.8402 0.89971 0.88136 0.0
C672 C 0.81629 0.91267 0.99348 0.0
C673 C 0.84347 0.89853 0.01075 0.0
C674 C 0.82801 0.91146 0.96959 0.0
C675 C 0.86713 0.89606 0.96243 0.0
C676 C 0.89305 0.88081 0.97962 0.0
C677 C 0.88138 0.88204 0.00349 0.0
C678 C 0.94366 0.90512 0.90868 0.0
C679 C 0.91197 0.90477 0.89005 0.0
C680 C 0.92915 0.90158 0.93204 0.0
C681 C 0.88255 0.89756 0.9374 0.0
C682 C 0.85093 0.89645 0.91873 0.0
C683 C 0.8655 0.89994 0.89531 0.0
H684 H 0.78895 0.58608 0.49837 0.0
H685 H 0.64544 0.60843 0.50085 0.0
H686 H 0.7879 0.59209 0.45547 0.0
H687 H 0.64426 0.61392 0.45806 0.0
H688 H 0.66556 0.64466 0.38211 0.0
H689 H 0.67213 0.64406 0.42502 0.0
H690 H 0.75546 0.56582 0.42225 0.0
H691 H 0.74882 0.56638 0.37942 0.0
C692 C 0.75726 0.59245 0.4898 0.0
C693 C 0.71723 0.59664 0.50305 0.0
C694 C 0.7566 0.59571 0.4652 0.0
C695 C 0.71595 0.60334 0.45331 0.0
C696 C 0.67628 0.60834 0.46665 0.0
C697 C 0.67691 0.60502 0.49121 0.0
C698 C 0.68519 0.62729 0.39067 0.0
C699 C 0.7065 0.6055 0.37732 0.0
C700 C 0.68899 0.62696 0.41526 0.0
C701 C 0.71424 0.60485 0.42709 0.0
C702 C 0.73633 0.58342 0.4137 0.0
C703 C 0.73249 0.58373 0.38912 0.0
H704 H 0.28193 0.64548 0.98968 0.0
H705 H 0.42507 0.63908 0.97146 0.0
H706 H 0.30287 0.66436 0.02819 0.0
H707 H 0.44593 0.65717 0.01003 0.0
H708 H 0.47108 0.71065 0.07472 0.0
H709 H 0.44562 0.69929 0.03499 0.0
H710 H 0.33659 0.64547 0.06425 0.0
H711 H 0.36071 0.65794 0.10387 0.0
C712 C 0.31783 0.64821 0.99384 0.0
C713 C 0.35182 0.64063 0.97753 0.0
C714 C 0.32985 0.65888 0.01596 0.0
C715 C 0.3761 0.66216 0.02227 0.0
C716 C 0.40998 0.6553 0.00568 0.0
C717 C 0.39798 0.64472 0.98358 0.0
C718 C 0.44119 0.69682 0.07266 0.0
C719 C 0.41814 0.68505 0.0925 0.0
C720 C 0.42689 0.69003 0.04988 0.0
C721 C 0.38922 0.6713 0.04639 0.0
C722 C 0.36546 0.66018 0.06624 0.0
C723 C 0.3797 0.667 0.08899 0.0
H724 H 0.06405 0.85808 0.47371 0.0
H725 H 0.20992 0.85153 0.48497 0.0
H726 H 0.05054 0.84175 0.51426 0.0
H727 H 0.19629 0.83459 0.52554 0.0
H728 H 0.1528 0.84347 0.60339 0.0
H729 H 0.16865 0.85546 0.56208 0.0
H730 H 0.05651 0.7997 0.5412 0.0
H731 H 0.03955 0.7886 0.58257 0.0
C732 C 0.09327 0.85284 0.48475 0.0
C733 C 0.13809 0.85627 0.47611 0.0
C734 C 0.08549 0.84329 0.50799 0.0
C735 C 0.12232 0.83693 0.52318 0.0
C736 C 0.16717 0.83969 0.51438 0.0
C737 C 0.17497 0.84923 0.49109 0.0
C738 C 0.13136 0.8339 0.58998 0.0
C739 C 0.09471 0.81524 0.5963 0.0
C740 C 0.14082 0.84047 0.56629 0.0
C741 C 0.11384 0.82855 0.54831 0.0
C742 C 0.07766 0.80949 0.55461 0.0
C743 C 0.06823 0.80289 0.57832 0.0
H744 H 0.2841 0.27377 0.33828 0.0
H745 H 0.17102 0.33433 0.34375 0.0
H746 H 0.23463 0.23918 0.31782 0.0
H747 H 0.1217 0.29971 0.32339 0.0
H748 H 0.06288 0.24288 0.26405 0.0
H749 H 0.11375 0.27786 0.28326 0.0
H750 H 0.16609 0.20758 0.32807 0.0
H751 H 0.11528 0.17264 0.3087 0.0
C752 C 0.24875 0.27974 0.33508 0.0
C753 C 0.23147 0.30679 0.34269 0.0
C754 C 0.2204 0.25986 0.32349 0.0
C755 C 0.17429 0.26672 0.31907 0.0
C756 C 0.15719 0.29392 0.32638 0.0
C757 C 0.18541 0.31368 0.33815 0.0
C758 C 0.08526 0.23502 0.27804 0.0
C759 C 0.08527 0.20519 0.28498 0.0
C760 C 0.11417 0.255 0.28909 0.0
C761 C 0.14388 0.24545 0.30717 0.0
C762 C 0.14385 0.21552 0.31406 0.0
C763 C 0.11451 0.19562 0.30318 0.0
H764 H 0.291 0.19962 0.84771 0.0
H765 H 0.39891 0.20499 0.89952 0.0
H766 H 0.32869 0.23796 0.8238 0.0
H767 H 0.43622 0.24365 0.87564 0.0
H768 H 0.45844 0.33353 0.83476 0.0
H769 H 0.4195 0.29719 0.8602 0.0
H770 H 0.40646 0.23919 0.80132 0.0
H771 H 0.44739 0.27474 0.77627 0.0
C772 C 0.32245 0.20921 0.85413 0.0
C773 C 0.34205 0.19921 0.87548 0.0
C774 C 0.34411 0.23101 0.84037 0.0
C775 C 0.38541 0.24361 0.84785 0.0
C776 C 0.40428 0.23436 0.86955 0.0
C777 C 0.383 0.21219 0.88314 0.0
C778 C 0.44737 0.31298 0.82726 0.0
C779 C 0.45496 0.30728 0.80329 0.0
C780 C 0.42511 0.29224 0.84183 0.0
C781 C 0.40946 0.2656 0.83263 0.0
C782 C 0.41739 0.25981 0.80875 0.0
C783 C 0.44047 0.28026 0.79435 0.0
H784 H 0.62588 0.1751 0.65077 0.0
H785 H 0.75606 0.20977 0.67337 0.0
H786 H 0.58637 0.2111 0.67473 0.0
H787 H 0.71642 0.2458 0.69729 0.0
H788 H 0.62694 0.28678 0.75503 0.0
H789 H 0.66565 0.24854 0.733 0.0
H790 H 0.57666 0.26569 0.67356 0.0
H791 H 0.53807 0.3039 0.69534 0.0
C792 C 0.64608 0.19031 0.66092 0.0
C793 C 0.69414 0.18962 0.66009 0.0
C794 C 0.62343 0.21101 0.67455 0.0
C795 C 0.64829 0.23133 0.68785 0.0
C796 C 0.69633 0.23027 0.6874 0.0
C797 C 0.71901 0.20974 0.67359 0.0
C798 C 0.61551 0.2824 0.73729 0.0
C799 C 0.57936 0.29855 0.727 0.0
C800 C 0.63786 0.26055 0.72464 0.0
C801 C 0.62417 0.2541 0.70156 0.0
C802 C 0.58767 0.26993 0.6914 0.0
C803 C 0.56569 0.29196 0.70391 0.0
H804 H 0.74918 0.26392 0.14242 0.0
H805 H 0.84189 0.33575 0.15601 0.0
H806 H 0.79733 0.23078 0.16622 0.0
H807 H 0.8894 0.30262 0.18028 0.0
H808 H 0.92618 0.23633 0.24315 0.0
H809 H 0.87675 0.27011 0.22042 0.0
H810 H 0.88371 0.21272 0.16093 0.0
H811 H 0.93373 0.17937 0.18329 0.0
C812 C 0.77967 0.27266 0.15059 0.0
C813 C 0.79187 0.3024 0.14728 0.0
C814 C 0.8072 0.25369 0.16414 0.0
C815 C 0.8469 0.26423 0.17508 0.0
C816 C 0.85876 0.29405 0.17213 0.0
C817 C 0.83175 0.3129 0.15815 0.0
C818 C 0.91708 0.23097 0.22523 0.0
C819 C 0.93396 0.20533 0.21494 0.0
C820 C 0.88904 0.25032 0.21224 0.0
C821 C 0.87653 0.24393 0.18897 0.0
C822 C 0.89275 0.21805 0.17886 0.0
C823 C 0.92154 0.19909 0.19163 0.0
H824 H 0.79224 0.71306 0.6288 0.0
H825 H 0.87259 0.64893 0.6677 0.0
H826 H 0.83007 0.75257 0.6496 0.0
H827 H 0.90854 0.68816 0.68965 0.0
H828 H 0.99783 0.7647 0.70981 0.0
H829 H 0.96135 0.72602 0.68761 0.0
H830 H 0.83639 0.77687 0.68476 0.0
H831 H 0.87483 0.8167 0.7047 0.0
C832 C 0.81763 0.70742 0.64205 0.0
C833 C 0.82956 0.67792 0.64657 0.0
C834 C 0.83918 0.73008 0.65415 0.0
C835 C 0.87256 0.72377 0.67145 0.0
C836 C 0.88387 0.6941 0.67614 0.0
C837 C 0.86298 0.6715 0.66369 0.0
C838 C 0.96279 0.76779 0.7041 0.0
C839 C 0.93907 0.79371 0.70922 0.0
C840 C 0.94149 0.74533 0.69168 0.0
C841 C 0.89555 0.74796 0.68444 0.0
C842 C 0.87191 0.774 0.68966 0.0
C843 C 0.89364 0.79671 0.70157 0.0
H844 H 0.66017 0.85133 0.16833 0.0
H845 H 0.7469 0.78738 0.13541 0.0
H846 H 0.61962 0.81189 0.18934 0.0
H847 H 0.70478 0.74776 0.15516 0.0
H848 H 0.64991 0.68287 0.20912 0.0
H849 H 0.69192 0.72309 0.19038 0.0
H850 H 0.56714 0.77398 0.18597 0.0
H851 H 0.52654 0.73471 0.2071 0.0
C852 C 0.67027 0.82877 0.16543 0.0
C853 C 0.70681 0.82245 0.1503 0.0
C854 C 0.64676 0.80606 0.17734 0.0
C855 C 0.65862 0.7764 0.17403 0.0
C856 C 0.69509 0.77022 0.15867 0.0
C857 C 0.71916 0.79296 0.14716 0.0
C858 C 0.63178 0.70294 0.20471 0.0
C859 C 0.58516 0.70576 0.21005 0.0
C860 C 0.65566 0.7259 0.19344 0.0
C861 C 0.63316 0.75205 0.18648 0.0
C862 C 0.58608 0.75456 0.19141 0.0
C863 C 0.5625 0.7318 0.20322 0.0
H864 H 0.26878 0.77773 0.34141 0.0
H865 H 0.37935 0.83964 0.32976 0.0
H866 H 0.31092 0.74068 0.31965 0.0
H867 H 0.42123 0.80258 0.30786 0.0
H868 H 0.45674 0.73648 0.24915 0.0
H869 H 0.41251 0.77408 0.26944 0.0
H870 H 0.38529 0.71213 0.3266 0.0
H871 H 0.42967 0.67469 0.3064 0.0
C872 C 0.30193 0.78349 0.3341 0.0
C873 C 0.32078 0.8116 0.33735 0.0
C874 C 0.32611 0.76223 0.32175 0.0
C875 C 0.36932 0.76878 0.31211 0.0
C876 C 0.38782 0.79703 0.31496 0.0
C877 C 0.36394 0.81817 0.3276 0.0
C878 C 0.44114 0.73097 0.26602 0.0
C879 C 0.44667 0.70282 0.2763 0.0
C880 C 0.4161 0.75246 0.27766 0.0
C881 C 0.3955 0.74598 0.29957 0.0
C882 C 0.40053 0.71765 0.30965 0.0
C883 C 0.42613 0.69633 0.29819 0.0
H884 H 0.16016 0.66289 0.84003 0.0
H885 H 0.25889 0.73282 0.84826 0.0
H886 H 0.11083 0.69649 0.81732 0.0
H887 H 0.20921 0.7664 0.82585 0.0
H888 H 0.07923 0.82289 0.81133 0.0
H889 H 0.12839 0.78837 0.83316 0.0
H890 H 0.11552 0.72607 0.77714 0.0
H891 H 0.06671 0.76087 0.7551 0.0
C892 C 0.17133 0.6854 0.83699 0.0
C893 C 0.21339 0.69522 0.84595 0.0
C894 C 0.14319 0.70455 0.82391 0.0
C895 C 0.15621 0.73402 0.81992 0.0
C896 C 0.19825 0.74384 0.82885 0.0
C897 C 0.22674 0.72457 0.84156 0.0
C898 C 0.08671 0.80175 0.80376 0.0
C899 C 0.06927 0.79447 0.78157 0.0
C900 C 0.11506 0.78213 0.81615 0.0
C901 C 0.1258 0.75463 0.80678 0.0
C902 C 0.10758 0.74709 0.78478 0.0
C903 C 0.07986 0.76697 0.77218 0.0
loop_
_geom_bond_atom_site_label_1
_geom_bond_atom_site_label_2
_geom_bond_distance
_geom_bond_site_symmetry_2
_ccdc_geom_bond_type
O0 Cd1 2.300 . S
O0 C7 1.275 . S
Cd1 O0 2.300 . S
Cd1 O9 2.381 . S
Cd1 O10 2.378 . S
O2 Cd3 2.385 . S
O2 C7 1.255 . S
Cd3 O2 2.385 . S
Cd3 O4 2.317 . S
O4 Cd3 2.317 . S
O4 C5 1.232 . S
C5 O4 1.232 . S
C5 O6 1.218 . S
O6 C5 1.218 . S
C7 O0 1.275 . S
C7 O2 1.255 . S
C8 O9 1.258 . S
C8 O10 1.256 . S
O9 Cd1 2.381 . S
O9 C8 1.258 . S
O10 Cd1 2.378 . S
O10 C8 1.256 . S
O11 Cd12 2.300 . S
O11 C18 1.275 . S
Cd12 O11 2.300 . S
Cd12 O20 2.381 . S
Cd12 O21 2.378 . S
O13 Cd14 2.385 . S
O13 C18 1.255 . S
Cd14 O13 2.385 . S
Cd14 O15 2.317 . S
O15 Cd14 2.317 . S
O15 C16 1.232 . S
C16 O15 1.232 . S
C16 O17 1.218 . S
O17 C16 1.218 . S
C18 O11 1.275 . S
C18 O13 1.255 . S
C19 O20 1.258 . S
C19 O21 1.256 . S
O20 Cd12 2.381 . S
O20 C19 1.258 . S
O21 Cd12 2.378 . S
O21 C19 1.256 . S
O22 Cd23 2.300 . S
O22 C29 1.275 . S
Cd23 O22 2.300 . S
Cd23 O31 2.381 . S
Cd23 O32 2.378 . S
O24 Cd25 2.385 . S
O24 C29 1.255 . S
Cd25 O24 2.385 . S
Cd25 O26 2.317 . S
O26 Cd25 2.317 . S
O26 C27 1.232 . S
C27 O26 1.232 . S
C27 O28 1.218 . S
O28 C27 1.218 . S
C29 O22 1.275 . S
C29 O24 1.255 . S
C30 O31 1.258 . S
C30 O32 1.256 . S
O31 Cd23 2.381 . S
O31 C30 1.258 . S
O32 Cd23 2.378 . S
O32 C30 1.256 . S
O33 Cd34 2.300 . S
O33 C40 1.275 . S
Cd34 O33 2.300 . S
Cd34 O42 2.381 . S
Cd34 O43 2.378 . S
O35 Cd36 2.385 . S
O35 C40 1.255 . S
Cd36 O35 2.385 . S
Cd36 O37 2.317 . S
O37 Cd36 2.317 . S
O37 C38 1.232 . S
C38 O37 1.232 . S
C38 O39 1.218 . S
O39 C38 1.218 . S
C40 O33 1.275 . S
C40 O35 1.255 . S
C41 O42 1.258 . S
C41 O43 1.256 . S
O42 Cd34 2.381 . S
O42 C41 1.258 . S
O43 Cd34 2.378 . S
O43 C41 1.256 . S
O44 Cd45 2.300 . S
O44 C51 1.275 . S
Cd45 O44 2.300 . S
Cd45 O53 2.381 . S
Cd45 O54 2.378 . S
O46 Cd47 2.385 . S
O46 C51 1.255 . S
Cd47 O46 2.385 . S
Cd47 O48 2.317 . S
O48 Cd47 2.317 . S
O48 C49 1.232 . S
C49 O48 1.232 . S
C49 O50 1.218 . S
O50 C49 1.218 . S
C51 O44 1.275 . S
C51 O46 1.255 . S
C52 O53 1.258 . S
C52 O54 1.256 . S
O53 Cd45 2.381 . S
O53 C52 1.258 . S
O54 Cd45 2.378 . S
O54 C52 1.256 . S
O55 Cd56 2.300 . S
O55 C62 1.275 . S
Cd56 O55 2.300 . S
Cd56 O64 2.381 . S
Cd56 O65 2.378 . S
O57 Cd58 2.385 . S
O57 C62 1.255 . S
Cd58 O57 2.385 . S
Cd58 O59 2.317 . S
O59 Cd58 2.317 . S
O59 C60 1.232 . S
C60 O59 1.232 . S
C60 O61 1.218 . S
O61 C60 1.218 . S
C62 O55 1.275 . S
C62 O57 1.255 . S
C63 O64 1.258 . S
C63 O65 1.256 . S
O64 Cd56 2.381 . S
O64 C63 1.258 . S
O65 Cd56 2.378 . S
O65 C63 1.256 . S
O66 Cd67 2.300 . S
O66 C73 1.275 . S
Cd67 O66 2.300 . S
Cd67 O75 2.381 . S
Cd67 O76 2.378 . S
O68 Cd69 2.385 . S
O68 C73 1.255 . S
Cd69 O68 2.385 . S
Cd69 O70 2.317 . S
O70 Cd69 2.317 . S
O70 C71 1.232 . S
C71 O70 1.232 . S
C71 O72 1.218 . S
O72 C71 1.218 . S
C73 O66 1.275 . S
C73 O68 1.255 . S
C74 O75 1.258 . S
C74 O76 1.256 . S
O75 Cd67 2.381 . S
O75 C74 1.258 . S
O76 Cd67 2.378 . S
O76 C74 1.256 . S
O77 Cd78 2.300 . S
O77 C84 1.275 . S
Cd78 O77 2.300 . S
Cd78 O86 2.381 . S
Cd78 O87 2.378 . S
O79 Cd80 2.385 . S
O79 C84 1.255 . S
Cd80 O79 2.385 . S
Cd80 O81 2.317 . S
O81 Cd80 2.317 . S
O81 C82 1.232 . S
C82 O81 1.232 . S
C82 O83 1.218 . S
O83 C82 1.218 . S
C84 O77 1.275 . S
C84 O79 1.255 . S
C85 O86 1.258 . S
C85 O87 1.256 . S
O86 Cd78 2.381 . S
O86 C85 1.258 . S
O87 Cd78 2.378 . S
O87 C85 1.256 . S
C88 C90 1.422 . S
C88 C92 1.415 . S
C88 N94 1.369 . S
C89 C90 1.421 . S
C89 C91 1.417 . S
C89 C101 1.422 . S
C90 C88 1.422 . S
C90 C89 1.421 . S
C90 N100 1.359 . S
C91 C89 1.417 . S
C91 C93 1.329 . S
C91 H110 0.930 . S
C92 C88 1.415 . S
C92 C93 1.437 . S
C92 C96 1.413 . S
C93 C91 1.329 . S
C93 C92 1.437 . S
C93 H115 0.929 . S
N94 C88 1.369 . S
N94 C95 1.338 . S
N94 Gd99 2.622 . S
C95 N94 1.338 . S
C95 C97 1.378 . S
C95 H107 0.929 . S
C96 C92 1.413 . S
C96 C97 1.348 . S
C96 H112 0.931 . S
C97 C95 1.378 . S
C97 C96 1.348 . S
C97 H113 0.930 . S
Gd98 N118 2.622 . S
Gd98 N125 2.570 . S
Gd98 O132 2.353 . S
Gd98 O133 2.468 . S
Gd98 O134 2.427 . S
Gd98 O136 2.388 . S
Gd98 O137 2.386 . S
Gd98 O141 2.307 . S
Gd98 C151 2.805 . S
Gd99 N94 2.622 . S
Gd99 N100 2.570 . S
Gd99 O131 2.386 . S
Gd99 O135 2.307 1_655 S
Gd99 O138 2.353 1_655 S
Gd99 O139 2.468 . S
Gd99 O140 2.427 . S
Gd99 O142 2.388 . S
Gd99 C163 2.805 . S
N100 C90 1.359 . S
N100 Gd99 2.570 . S
N100 C102 1.343 . S
C101 C89 1.422 . S
C101 C103 1.321 . S
C101 H109 0.931 1_545 S
C102 N100 1.343 . S
C102 C103 1.390 . S
C102 H104 0.931 . S
C103 C101 1.321 . S
C103 C102 1.390 . S
C103 H105 0.930 1_545 S
H104 C102 0.931 . S
H105 C103 0.930 1_565 S
H106 C129 0.931 . S
H107 C95 0.929 . S
H108 C130 0.930 . S
H109 C101 0.931 1_565 S
H110 C91 0.930 . S
H111 C120 0.929 . S
H112 C96 0.931 . S
H113 C97 0.930 . S
H114 C152 0.930 . S
H115 C93 0.929 . S
H116 C121 0.931 . S
H117 C122 0.930 . S
N118 Gd98 2.622 . S
N118 C119 1.369 . S
N118 C120 1.338 . S
C119 N118 1.369 . S
C119 C123 1.415 . S
C119 C126 1.422 . S
C120 H111 0.929 . S
C120 N118 1.338 . S
C120 C122 1.378 . S
C121 H116 0.931 . S
C121 C122 1.348 . S
C121 C123 1.413 . S
C122 H117 0.930 . S
C122 C120 1.378 . S
C122 C121 1.348 . S
C123 C119 1.415 . S
C123 C121 1.413 . S
C123 C153 1.437 . S
H124 C153 0.929 . S
N125 Gd98 2.570 . S
N125 C126 1.359 . S
N125 C129 1.343 . S
C126 C119 1.422 . S
C126 N125 1.359 . S
C126 C128 1.421 . S
C127 C128 1.422 . S
C127 C130 1.321 . S
C127 H154 0.931 . S
C128 C126 1.421 . S
C128 C127 1.422 . S
C128 C152 1.417 . S
C129 H106 0.931 . S
C129 N125 1.343 . S
C129 C130 1.390 . S
C130 H108 0.930 . S
C130 C127 1.321 . S
C130 C129 1.390 . S
O131 Gd99 2.386 . S
O131 C143 1.265 . S
O132 Gd98 2.353 . S
O132 C143 1.242 1_455 S
O133 Gd98 2.468 . S
O133 C151 1.263 . S
O134 Gd98 2.427 . S
O134 C151 1.252 . S
O135 Gd99 2.307 1_455 S
O135 C144 1.261 . S
O136 Gd98 2.388 . S
O136 C144 1.252 . S
O137 Gd98 2.386 . S
O137 C155 1.265 . S
O138 Gd99 2.353 1_455 S
O138 C155 1.242 . S
O139 Gd99 2.468 . S
O139 C163 1.263 . S
O140 Gd99 2.427 . S
O140 C163 1.252 . S
O141 Gd98 2.307 . S
O141 C156 1.261 1_455 S
O142 Gd99 2.388 . S
O142 C156 1.252 . S
C143 O131 1.265 . S
C143 O132 1.242 1_655 S
C144 O135 1.261 . S
C144 O136 1.252 . S
C145 C148 1.394 . S
C145 C150 1.370 . S
C145 C151 1.500 . S
C146 C149 1.383 . S
C146 C150 1.395 . S
C147 C148 1.396 . S
C147 C149 1.365 . S
C147 H164 0.929 . S
C148 C145 1.394 . S
C148 C147 1.396 . S
C148 H165 0.930 . S
C149 C146 1.383 . S
C149 C147 1.365 . S
C149 H166 0.931 . S
C150 C145 1.370 . S
C150 C146 1.395 . S
C150 H167 0.930 . S
C151 Gd98 2.805 . S
C151 O133 1.263 . S
C151 O134 1.252 . S
C151 C145 1.500 . S
C152 H114 0.930 . S
C152 C128 1.417 . S
C152 C153 1.329 . S
C153 C123 1.437 . S
C153 H124 0.929 . S
C153 C152 1.329 . S
H154 C127 0.931 . S
C155 O137 1.265 . S
C155 O138 1.242 . S
C156 O141 1.261 1_655 S
C156 O142 1.252 . S
C157 C160 1.394 . S
C157 C162 1.370 . S
C157 C163 1.500 . S
C158 C161 1.383 . S
C158 C162 1.395 . S
C159 C160 1.396 . S
C159 C161 1.365 . S
C159 H168 0.929 . S
C160 C157 1.394 . S
C160 C159 1.396 . S
C160 H169 0.930 . S
C161 C158 1.383 . S
C161 C159 1.365 . S
C161 H170 0.931 . S
C162 C157 1.370 . S
C162 C158 1.395 . S
C162 H171 0.930 . S
C163 Gd99 2.805 . S
C163 O139 1.263 . S
C163 O140 1.252 . S
C163 C157 1.500 . S
H164 C147 0.929 . S
H165 C148 0.930 . S
H166 C149 0.931 . S
H167 C150 0.930 . S
H168 C159 0.929 . S
H169 C160 0.930 . S
H170 C161 0.931 . S
H171 C162 0.930 . S
C172 C174 1.422 . S
C172 C176 1.415 . S
C172 N178 1.369 . S
C173 C174 1.421 . S
C173 C175 1.417 . S
C173 C185 1.422 . S
C174 C172 1.422 . S
C174 C173 1.421 . S
C174 N184 1.359 . S
C175 C173 1.417 . S
C175 C177 1.329 . S
C175 H194 0.930 . S
C176 C172 1.415 . S
C176 C177 1.437 . S
C176 C180 1.413 . S
C177 C175 1.329 . S
C177 C176 1.437 . S
C177 H199 0.929 . S
N178 C172 1.369 . S
N178 C179 1.338 . S
N178 Gd183 2.622 . S
C179 N178 1.338 . S
C179 C181 1.378 . S
C179 H191 0.929 . S
C180 C176 1.413 . S
C180 C181 1.348 . S
C180 H196 0.931 . S
C181 C179 1.378 . S
C181 C180 1.348 . S
C181 H197 0.930 . S
Gd182 N202 2.622 . S
Gd182 N209 2.570 . S
Gd182 O216 2.353 . S
Gd182 O217 2.468 . S
Gd182 O218 2.427 . S
Gd182 O220 2.388 . S
Gd182 O221 2.386 . S
Gd182 O225 2.307 . S
Gd182 C235 2.805 . S
Gd183 N178 2.622 . S
Gd183 N184 2.570 . S
Gd183 O215 2.386 . S
Gd183 O219 2.307 . S
Gd183 O222 2.353 . S
Gd183 O223 2.468 . S
Gd183 O224 2.427 . S
Gd183 O226 2.388 . S
Gd183 C247 2.805 . S
N184 C174 1.359 . S
N184 Gd183 2.570 . S
N184 C186 1.343 . S
C185 C173 1.422 . S
C185 C187 1.321 . S
C185 H193 0.931 . S
C186 N184 1.343 . S
C186 C187 1.390 . S
C186 H188 0.931 . S
C187 C185 1.321 . S
C187 C186 1.390 . S
C187 H189 0.930 . S
H188 C186 0.931 . S
H189 C187 0.930 . S
H190 C213 0.931 . S
H191 C179 0.929 . S
H192 C214 0.930 . S
H193 C185 0.931 . S
H194 C175 0.930 . S
H195 C204 0.929 . S
H196 C180 0.931 . S
H197 C181 0.930 . S
H198 C236 0.930 . S
H199 C177 0.929 . S
H200 C205 0.931 . S
H201 C206 0.930 . S
N202 Gd182 2.622 . S
N202 C203 1.369 . S
N202 C204 1.338 . S
C203 N202 1.369 . S
C203 C207 1.415 . S
C203 C210 1.422 . S
C204 H195 0.929 . S
C204 N202 1.338 . S
C204 C206 1.378 . S
C205 H200 0.931 . S
C205 C206 1.348 . S
C205 C207 1.413 . S
C206 H201 0.930 . S
C206 C204 1.378 . S
C206 C205 1.348 . S
C207 C203 1.415 . S
C207 C205 1.413 . S
C207 C237 1.437 . S
H208 C237 0.929 . S
N209 Gd182 2.570 . S
N209 C210 1.359 . S
N209 C213 1.343 . S
C210 C203 1.422 . S
C210 N209 1.359 . S
C210 C212 1.421 . S
C211 C212 1.422 . S
C211 C214 1.321 . S
C211 H238 0.931 . S
C212 C210 1.421 . S
C212 C211 1.422 . S
C212 C236 1.417 . S
C213 H190 0.931 . S
C213 N209 1.343 . S
C213 C214 1.390 . S
C214 H192 0.930 . S
C214 C211 1.321 . S
C214 C213 1.390 . S
O215 Gd183 2.386 . S
O215 C227 1.265 . S
O216 Gd182 2.353 . S
O216 C227 1.242 . S
O217 Gd182 2.468 . S
O217 C235 1.263 . S
O218 Gd182 2.427 . S
O218 C235 1.252 . S
O219 Gd183 2.307 . S
O219 C228 1.261 . S
O220 Gd182 2.388 . S
O220 C228 1.252 . S
O221 Gd182 2.386 . S
O221 C239 1.265 . S
O222 Gd183 2.353 . S
O222 C239 1.242 . S
O223 Gd183 2.468 . S
O223 C247 1.263 . S
O224 Gd183 2.427 . S
O224 C247 1.252 . S
O225 Gd182 2.307 . S
O225 C240 1.261 . S
O226 Gd183 2.388 . S
O226 C240 1.252 . S
C227 O215 1.265 . S
C227 O216 1.242 . S
C228 O219 1.261 . S
C228 O220 1.252 . S
C229 C232 1.394 . S
C229 C234 1.370 . S
C229 C235 1.500 . S
C230 C233 1.383 . S
C230 C234 1.395 . S
C231 C232 1.396 . S
C231 C233 1.365 . S
C231 H248 0.929 . S
C232 C229 1.394 . S
C232 C231 1.396 . S
C232 H249 0.930 . S
C233 C230 1.383 . S
C233 C231 1.365 . S
C233 H250 0.931 . S
C234 C229 1.370 . S
C234 C230 1.395 . S
C234 H251 0.930 . S
C235 Gd182 2.805 . S
C235 O217 1.263 . S
C235 O218 1.252 . S
C235 C229 1.500 . S
C236 H198 0.930 . S
C236 C212 1.417 . S
C236 C237 1.329 . S
C237 C207 1.437 . S
C237 H208 0.929 . S
C237 C236 1.329 . S
H238 C211 0.931 . S
C239 O221 1.265 . S
C239 O222 1.242 . S
C240 O225 1.261 . S
C240 O226 1.252 . S
C241 C244 1.394 . S
C241 C246 1.370 . S
C241 C247 1.500 . S
C242 C245 1.383 . S
C242 C246 1.395 . S
C243 C244 1.396 . S
C243 C245 1.365 . S
C243 H252 0.929 . S
C244 C241 1.394 . S
C244 C243 1.396 . S
C244 H253 0.930 . S
C245 C242 1.383 . S
C245 C243 1.365 . S
C245 H254 0.931 . S
C246 C241 1.370 . S
C246 C242 1.395 . S
C246 H255 0.930 . S
C247 Gd183 2.805 . S
C247 O223 1.263 . S
C247 O224 1.252 . S
C247 C241 1.500 . S
H248 C231 0.929 . S
H249 C232 0.930 . S
H250 C233 0.931 . S
H251 C234 0.930 . S
H252 C243 0.929 . S
H253 C244 0.930 . S
H254 C245 0.931 . S
H255 C246 0.930 . S
C256 C258 1.422 . S
C256 C260 1.415 . S
C256 N262 1.369 . S
C257 C258 1.421 . S
C257 C259 1.417 . S
C257 C269 1.422 . S
C258 C256 1.422 . S
C258 C257 1.421 . S
C258 N268 1.359 . S
C259 C257 1.417 . S
C259 C261 1.329 . S
C259 H278 0.930 . S
C260 C256 1.415 . S
C260 C261 1.437 . S
C260 C264 1.413 . S
C261 C259 1.329 . S
C261 C260 1.437 . S
C261 H283 0.929 . S
N262 C256 1.369 . S
N262 C263 1.338 . S
N262 Gd267 2.622 . S
C263 N262 1.338 . S
C263 C265 1.378 . S
C263 H275 0.929 . S
C264 C260 1.413 . S
C264 C265 1.348 . S
C264 H280 0.931 . S
C265 C263 1.378 . S
C265 C264 1.348 . S
C265 H281 0.930 . S
Gd266 N286 2.622 . S
Gd266 N293 2.570 . S
Gd266 O300 2.363 . S
Gd266 O301 2.468 . S
Gd266 O302 2.427 . S
Gd266 O304 2.388 . S
Gd266 O305 2.386 . S
Gd266 O309 2.307 . S
Gd266 C319 2.805 . S
Gd267 N262 2.622 . S
Gd267 N268 2.570 . S
Gd267 O299 2.386 . S
Gd267 O303 2.307 1_655 S
Gd267 O306 2.353 1_655 S
Gd267 O307 2.468 . S
Gd267 O308 2.427 . S
Gd267 O310 2.388 . S
Gd267 C331 2.805 . S
N268 C258 1.359 . S
N268 Gd267 2.570 . S
N268 C270 1.343 . S
C269 C257 1.422 . S
C269 C271 1.321 . S
C269 H277 0.931 . S
C270 N268 1.343 . S
C270 C271 1.390 . S
C270 H272 0.931 . S
C271 C269 1.321 . S
C271 C270 1.390 . S
C271 H273 0.930 . S
H272 C270 0.931 . S
H273 C271 0.930 . S
H274 C297 0.931 . S
H275 C263 0.929 . S
H276 C298 0.930 1_545 S
H277 C269 0.931 . S
H278 C259 0.930 . S
H279 C288 0.929 . S
H280 C264 0.931 . S
H281 C265 0.930 . S
H282 C320 0.930 . S
H283 C261 0.929 . S
H284 C289 0.931 . S
H285 C290 0.930 . S
N286 Gd266 2.622 . S
N286 C287 1.369 . S
N286 C288 1.338 . S
C287 N286 1.369 . S
C287 C291 1.415 . S
C287 C294 1.422 . S
C288 H279 0.929 . S
C288 N286 1.338 . S
C288 C290 1.378 . S
C289 H284 0.931 . S
C289 C290 1.348 . S
C289 C291 1.413 . S
C290 H285 0.930 . S
C290 C288 1.378 . S
C290 C289 1.348 . S
C291 C287 1.415 . S
C291 C289 1.413 . S
C291 C321 1.437 . S
H292 C321 0.929 . S
N293 Gd266 2.570 . S
N293 C294 1.359 . S
N293 C297 1.343 . S
C294 C287 1.422 . S
C294 N293 1.359 . S
C294 C296 1.421 . S
C295 C296 1.422 . S
C295 C298 1.321 . S
C295 H322 0.931 1_565 S
C296 C294 1.421 . S
C296 C295 1.422 . S
C296 C320 1.417 . S
C297 H274 0.931 . S
C297 N293 1.343 . S
C297 C298 1.390 . S
C298 H276 0.930 1_565 S
C298 C295 1.321 . S
C298 C297 1.390 . S
O299 Gd267 2.386 . S
O299 C311 1.265 . S
O300 Gd266 2.363 . S
O300 C311 1.229 1_455 S
O301 Gd266 2.468 . S
O301 C319 1.263 . S
O302 Gd266 2.427 . S
O302 C319 1.252 . S
O303 Gd267 2.307 1_455 S
O303 C312 1.261 . S
O304 Gd266 2.388 . S
O304 C312 1.252 . S
O305 Gd266 2.386 . S
O305 C323 1.265 . S
O306 Gd267 2.353 1_455 S
O306 C323 1.242 . S
O307 Gd267 2.468 . S
O307 C331 1.263 . S
O308 Gd267 2.427 . S
O308 C331 1.252 . S
O309 Gd266 2.307 . S
O309 C324 1.261 1_455 S
O310 Gd267 2.388 . S
O310 C324 1.252 . S
C311 O299 1.265 . S
C311 O300 1.229 1_655 S
C312 O303 1.261 . S
C312 O304 1.252 . S
C313 C316 1.394 . S
C313 C318 1.370 . S
C313 C319 1.500 . S
C314 C317 1.383 . S
C314 C318 1.395 . S
C315 C316 1.396 . S
C315 C317 1.365 . S
C315 H332 0.929 . S
C316 C313 1.394 . S
C316 C315 1.396 . S
C316 H333 0.930 . S
C317 C314 1.383 . S
C317 C315 1.365 . S
C317 H334 0.931 . S
C318 C313 1.370 . S
C318 C314 1.395 . S
C318 H335 0.930 . S
C319 Gd266 2.805 . S
C319 O301 1.263 . S
C319 O302 1.252 . S
C319 C313 1.500 . S
C320 H282 0.930 . S
C320 C296 1.417 . S
C320 C321 1.329 . S
C321 C291 1.437 . S
C321 H292 0.929 . S
C321 C320 1.329 . S
H322 C295 0.931 1_545 S
C323 O305 1.265 . S
C323 O306 1.242 . S
C324 O309 1.261 1_655 S
C324 O310 1.252 . S
C325 C328 1.394 . S
C325 C330 1.370 . S
C325 C331 1.500 . S
C326 C329 1.383 . S
C326 C330 1.395 . S
C327 C328 1.396 . S
C327 C329 1.365 . S
C327 H336 0.929 . S
C328 C325 1.394 . S
C328 C327 1.396 . S
C328 H337 0.930 . S
C329 C326 1.383 . S
C329 C327 1.365 . S
C329 H338 0.931 . S
C330 C325 1.370 . S
C330 C326 1.395 . S
C330 H339 0.930 . S
C331 Gd267 2.805 . S
C331 O307 1.263 . S
C331 O308 1.252 . S
C331 C325 1.500 . S
H332 C315 0.929 . S
H333 C316 0.930 . S
H334 C317 0.931 . S
H335 C318 0.930 . S
H336 C327 0.929 . S
H337 C328 0.930 . S
H338 C329 0.931 . S
H339 C330 0.930 . S
C340 C342 1.422 . S
C340 C344 1.415 . S
C340 N346 1.369 . S
C341 C342 1.421 . S
C341 C343 1.417 . S
C341 C353 1.422 . S
C342 C340 1.422 . S
C342 C341 1.421 . S
C342 N352 1.359 . S
C343 C341 1.417 . S
C343 C345 1.329 . S
C343 H362 0.930 . S
C344 C340 1.415 . S
C344 C345 1.437 . S
C344 C348 1.413 . S
C345 C343 1.329 . S
C345 C344 1.437 . S
C345 H367 0.929 . S
N346 C340 1.369 . S
N346 C347 1.338 . S
N346 Gd351 2.622 . S
C347 N346 1.338 . S
C347 C349 1.378 . S
C347 H359 0.929 . S
C348 C344 1.413 . S
C348 C349 1.348 . S
C348 H364 0.931 . S
C349 C347 1.378 . S
C349 C348 1.348 . S
C349 H365 0.930 . S
Gd350 N370 2.622 . S
Gd350 N377 2.570 . S
Gd350 O384 2.353 . S
Gd350 O385 2.468 . S
Gd350 O386 2.427 . S
Gd350 O388 2.388 . S
Gd350 O389 2.386 . S
Gd350 O393 2.307 . S
Gd350 C403 2.805 . S
Gd351 N346 2.622 . S
Gd351 N352 2.570 . S
Gd351 O383 2.386 . S
Gd351 O387 2.307 . S
Gd351 O390 2.353 . S
Gd351 O391 2.468 . S
Gd351 O392 2.427 . S
Gd351 O394 2.388 . S
Gd351 C415 2.805 . S
N352 C342 1.359 . S
N352 Gd351 2.570 . S
N352 C354 1.343 . S
C353 C341 1.422 . S
C353 C355 1.321 . S
C353 H361 0.931 . S
C354 N352 1.343 . S
C354 C355 1.390 . S
C354 H356 0.931 . S
C355 C353 1.321 . S
C355 C354 1.390 . S
C355 H357 0.930 . S
H356 C354 0.931 . S
H357 C355 0.930 . S
H358 C381 0.931 . S
H359 C347 0.929 . S
H360 C382 0.930 . S
H361 C353 0.931 . S
H362 C343 0.930 . S
H363 C372 0.929 . S
H364 C348 0.931 . S
H365 C349 0.930 . S
H366 C404 0.930 . S
H367 C345 0.929 . S
H368 C373 0.931 . S
H369 C374 0.930 . S
N370 Gd350 2.622 . S
N370 C371 1.369 . S
N370 C372 1.338 . S
C371 N370 1.369 . S
C371 C375 1.415 . S
C371 C378 1.422 . S
C372 H363 0.929 . S
C372 N370 1.338 . S
C372 C374 1.378 . S
C373 H368 0.931 . S
C373 C374 1.348 . S
C373 C375 1.413 . S
C374 H369 0.930 . S
C374 C372 1.378 . S
C374 C373 1.348 . S
C375 C371 1.415 . S
C375 C373 1.413 . S
C375 C405 1.437 . S
H376 C405 0.929 . S
N377 Gd350 2.570 . S
N377 C378 1.359 . S
N377 C381 1.343 . S
C378 C371 1.422 . S
C378 N377 1.359 . S
C378 C380 1.421 . S
C379 C380 1.422 . S
C379 C382 1.321 . S
C379 H406 0.931 . S
C380 C378 1.421 . S
C380 C379 1.422 . S
C380 C404 1.417 . S
C381 H358 0.931 . S
C381 N377 1.343 . S
C381 C382 1.390 . S
C382 H360 0.930 . S
C382 C379 1.321 . S
C382 C381 1.390 . S
O383 Gd351 2.386 . S
O383 C395 1.265 . S
O384 Gd350 2.353 . S
O384 C395 1.242 . S
O385 Gd350 2.468 . S
O385 C403 1.263 . S
O386 Gd350 2.427 . S
O386 C403 1.252 . S
O387 Gd351 2.307 . S
O387 C396 1.261 . S
O388 Gd350 2.388 . S
O388 C396 1.252 . S
O389 Gd350 2.386 . S
O389 C407 1.265 . S
O390 Gd351 2.353 . S
O390 C407 1.242 . S
O391 Gd351 2.468 . S
O391 C415 1.263 . S
O392 Gd351 2.427 . S
O392 C415 1.252 . S
O393 Gd350 2.307 . S
O393 C408 1.261 . S
O394 Gd351 2.388 . S
O394 C408 1.252 . S
C395 O383 1.265 . S
C395 O384 1.242 . S
C396 O387 1.261 . S
C396 O388 1.252 . S
C397 C400 1.394 . S
C397 C402 1.370 . S
C397 C403 1.500 . S
C398 C401 1.383 . S
C398 C402 1.395 . S
C399 C400 1.396 . S
C399 C401 1.365 . S
C399 H416 0.929 . S
C400 C397 1.394 . S
C400 C399 1.396 . S
C400 H417 0.930 . S
C401 C398 1.383 . S
C401 C399 1.365 . S
C401 H418 0.931 . S
C402 C397 1.370 . S
C402 C398 1.395 . S
C402 H419 0.930 . S
C403 Gd350 2.805 . S
C403 O385 1.263 . S
C403 O386 1.252 . S
C403 C397 1.500 . S
C404 H366 0.930 . S
C404 C380 1.417 . S
C404 C405 1.329 . S
C405 C375 1.437 . S
C405 H376 0.929 . S
C405 C404 1.329 . S
H406 C379 0.931 . S
C407 O389 1.265 . S
C407 O390 1.242 . S
C408 O393 1.261 . S
C408 O394 1.252 . S
C409 C412 1.394 . S
C409 C414 1.370 . S
C409 C415 1.500 . S
C410 C413 1.383 . S
C410 C414 1.395 . S
C411 C412 1.396 . S
C411 C413 1.365 . S
C411 H420 0.929 . S
C412 C409 1.394 . S
C412 C411 1.396 . S
C412 H421 0.930 . S
C413 C410 1.383 . S
C413 C411 1.365 . S
C413 H422 0.931 . S
C414 C409 1.370 . S
C414 C410 1.395 . S
C414 H423 0.930 . S
C415 Gd351 2.805 . S
C415 O391 1.263 . S
C415 O392 1.252 . S
C415 C409 1.500 . S
H416 C399 0.929 . S
H417 C400 0.930 . S
H418 C401 0.931 . S
H419 C402 0.930 . S
H420 C411 0.929 . S
H421 C412 0.930 . S
H422 C413 0.931 . S
H423 C414 0.930 . S
H424 C432 0.950 . S
H425 C437 0.950 . S
H426 C434 0.950 . S
H427 C436 0.950 . S
H428 C438 0.950 . S
H429 C440 0.950 . S
H430 C442 0.950 . S
H431 C443 0.950 . S
C432 H424 0.950 . S
C432 C433 1.386 . S
C432 C434 1.391 . S
C433 C432 1.386 . S
C433 C437 1.393 . S
C434 H426 0.950 . S
C434 C432 1.391 . S
C434 C435 1.400 . S
C435 C434 1.400 . S
C435 C436 1.398 . S
C435 C441 1.491 . S
C436 H427 0.950 . S
C436 C435 1.398 . S
C436 C437 1.391 . S
C437 H425 0.950 . S
C437 C433 1.393 . S
C437 C436 1.391 . S
C438 H428 0.950 . S
C438 C439 1.386 . S
C438 C440 1.391 1_545 S
C439 C438 1.386 . S
C439 C443 1.393 . S
C440 H429 0.950 . S
C440 C438 1.391 1_565 S
C440 C441 1.400 . S
C441 C435 1.491 . S
C441 C440 1.400 . S
C441 C442 1.398 1_565 S
C442 H430 0.950 . S
C442 C441 1.398 1_545 S
C442 C443 1.391 . S
C443 H431 0.950 . S
C443 C439 1.393 . S
C443 C442 1.391 . S
H444 C452 0.950 . S
H445 C457 0.950 . S
H446 C454 0.950 . S
H447 C456 0.950 . S
H448 C458 0.950 . S
H449 C460 0.950 . S
H450 C462 0.950 . S
H451 C463 0.950 . S
C452 H444 0.950 . S
C452 C453 1.386 . S
C452 C454 1.391 . S
C453 C452 1.386 . S
C453 C457 1.393 . S
C454 H446 0.950 . S
C454 C452 1.391 . S
C454 C455 1.400 . S
C455 C454 1.400 . S
C455 C456 1.398 . S
C455 C461 1.491 . S
C456 H447 0.950 . S
C456 C455 1.398 . S
C456 C457 1.391 . S
C457 H445 0.950 . S
C457 C453 1.393 . S
C457 C456 1.391 . S
C458 H448 0.950 . S
C458 C459 1.386 . S
C458 C460 1.391 . S
C459 C458 1.386 . S
C459 C463 1.393 . S
C460 H449 0.950 . S
C460 C458 1.391 . S
C460 C461 1.400 . S
C461 C455 1.491 . S
C461 C460 1.400 . S
C461 C462 1.398 . S
C462 H450 0.950 . S
C462 C461 1.398 . S
C462 C463 1.391 . S
C463 H451 0.950 . S
C463 C459 1.393 . S
C463 C462 1.391 . S
H464 C472 0.950 . S
H465 C477 0.950 . S
H466 C474 0.950 . S
H467 C476 0.950 . S
H468 C478 0.950 . S
H469 C480 0.950 . S
H470 C482 0.950 . S
H471 C483 0.950 . S
C472 H464 0.950 . S
C472 C473 1.386 . S
C472 C474 1.391 . S
C473 C472 1.386 . S
C473 C477 1.393 . S
C474 H466 0.950 . S
C474 C472 1.391 . S
C474 C475 1.400 . S
C475 C474 1.400 . S
C475 C476 1.398 . S
C475 C481 1.491 . S
C476 H467 0.950 . S
C476 C475 1.398 . S
C476 C477 1.391 . S
C477 H465 0.950 . S
C477 C473 1.393 . S
C477 C476 1.391 . S
C478 H468 0.950 . S
C478 C479 1.386 . S
C478 C480 1.391 . S
C479 C478 1.386 . S
C479 C483 1.393 . S
C480 H469 0.950 . S
C480 C478 1.391 . S
C480 C481 1.400 . S
C481 C475 1.491 . S
C481 C480 1.400 . S
C481 C482 1.398 . S
C482 H470 0.950 . S
C482 C481 1.398 . S
C482 C483 1.391 . S
C483 H471 0.950 . S
C483 C479 1.393 . S
C483 C482 1.391 . S
H484 C492 0.950 . S
H485 C497 0.950 . S
H486 C494 0.950 . S
H487 C496 0.950 1_545 S
H488 C498 0.950 . S
H489 C500 0.950 . S
H490 C502 0.950 . S
H491 C503 0.952 . S
C492 H484 0.950 . S
C492 C493 1.386 . S
C492 C494 1.391 . S
C493 C492 1.386 . S
C493 C497 1.393 . S
C494 H486 0.950 . S
C494 C492 1.391 . S
C494 C495 1.400 . S
C495 C494 1.400 . S
C495 C496 1.398 . S
C495 C501 1.491 . S
C496 H487 0.950 1_565 S
C496 C495 1.398 . S
C496 C497 1.391 . S
C497 H485 0.950 . S
C497 C493 1.393 . S
C497 C496 1.391 . S
C498 H488 0.950 . S
C498 C499 1.386 . S
C498 C500 1.391 . S
C499 C498 1.386 . S
C499 C503 1.393 . S
C500 H489 0.950 . S
C500 C498 1.391 . S
C500 C501 1.400 1_545 S
C501 C495 1.491 . S
C501 C500 1.400 1_565 S
C501 C502 1.398 . S
C502 H490 0.950 . S
C502 C501 1.398 . S
C502 C503 1.391 1_565 S
C503 H491 0.952 . S
C503 C499 1.393 . S
C503 C502 1.391 1_545 S
H504 C512 0.950 . S
H505 C517 0.950 . S
H506 C514 0.950 . S
H507 C516 0.950 . S
H508 C518 0.950 . S
H509 C520 0.950 . S
H510 C522 0.950 . S
H511 C523 0.950 . S
C512 H504 0.950 . S
C512 C513 1.386 . S
C512 C514 1.391 . S
C513 C512 1.386 . S
C513 C517 1.393 . S
C514 H506 0.950 . S
C514 C512 1.391 . S
C514 C515 1.400 . S
C515 C514 1.400 . S
C515 C516 1.398 . S
C515 C521 1.491 . S
C516 H507 0.950 . S
C516 C515 1.398 . S
C516 C517 1.391 . S
C517 H505 0.950 . S
C517 C513 1.393 . S
C517 C516 1.391 . S
C518 H508 0.950 . S
C518 C519 1.386 . S
C518 C520 1.391 1_565 S
C519 C518 1.386 . S
C519 C523 1.393 . S
C520 H509 0.950 . S
C520 C518 1.391 1_545 S
C520 C521 1.400 . S
C521 C515 1.491 . S
C521 C520 1.400 . S
C521 C522 1.398 1_545 S
C522 H510 0.950 . S
C522 C521 1.398 1_565 S
C522 C523 1.391 . S
C523 H511 0.950 . S
C523 C519 1.393 . S
C523 C522 1.391 . S
H524 C532 0.950 . S
H525 C537 0.950 . S
H526 C534 0.950 . S
H527 C536 0.950 . S
H528 C538 0.950 . S
H529 C540 0.950 . S
H530 C542 0.950 . S
H531 C543 0.950 . S
C532 H524 0.950 . S
C532 C533 1.386 . S
C532 C534 1.391 . S
C533 C532 1.386 . S
C533 C537 1.393 . S
C534 H526 0.950 . S
C534 C532 1.391 . S
C534 C535 1.400 . S
C535 C534 1.400 . S
C535 C536 1.398 . S
C535 C541 1.491 . S
C536 H527 0.950 . S
C536 C535 1.398 . S
C536 C537 1.391 . S
C537 H525 0.950 . S
C537 C533 1.393 . S
C537 C536 1.391 . S
C538 H528 0.950 . S
C538 C539 1.386 . S
C538 C540 1.391 . S
C539 C538 1.386 . S
C539 C543 1.393 . S
C540 H529 0.950 . S
C540 C538 1.391 . S
C540 C541 1.400 . S
C541 C535 1.491 . S
C541 C540 1.400 . S
C541 C542 1.398 . S
C542 H530 0.950 . S
C542 C541 1.398 . S
C542 C543 1.391 . S
C543 H531 0.950 . S
C543 C539 1.393 . S
C543 C542 1.391 . S
H544 C552 0.950 . S
H545 C557 0.950 . S
H546 C554 0.950 . S
H547 C556 0.950 . S
H548 C558 0.950 . S
H549 C560 0.950 . S
H550 C562 0.950 . S
H551 C563 0.950 . S
C552 H544 0.950 . S
C552 C553 1.386 . S
C552 C554 1.391 . S
C553 C552 1.386 . S
C553 C557 1.393 . S
C554 H546 0.950 . S
C554 C552 1.391 . S
C554 C555 1.400 . S
C555 C554 1.400 . S
C555 C556 1.398 . S
C555 C561 1.491 . S
C556 H547 0.950 . S
C556 C555 1.398 . S
C556 C557 1.391 . S
C557 H545 0.950 . S
C557 C553 1.393 . S
C557 C556 1.391 . S
C558 H548 0.950 . S
C558 C559 1.386 . S
C558 C560 1.391 . S
C559 C558 1.386 . S
C559 C563 1.393 . S
C560 H549 0.950 . S
C560 C558 1.391 . S
C560 C561 1.400 . S
C561 C555 1.491 . S
C561 C560 1.400 . S
C561 C562 1.398 . S
C562 H550 0.950 . S
C562 C561 1.398 . S
C562 C563 1.391 . S
C563 H551 0.950 . S
C563 C559 1.393 . S
C563 C562 1.391 . S
H564 C572 0.950 . S
H565 C577 0.950 . S
H566 C574 0.950 1_565 S
H567 C576 0.950 . S
H568 C578 0.950 . S
H569 C580 0.950 . S
H570 C582 0.950 . S
H571 C583 0.950 . S
C572 H564 0.950 . S
C572 C573 1.386 . S
C572 C574 1.391 . S
C573 C572 1.386 . S
C573 C577 1.393 . S
C574 H566 0.950 1_545 S
C574 C572 1.391 . S
C574 C575 1.400 . S
C575 C574 1.400 . S
C575 C576 1.398 . S
C575 C581 1.491 1_545 S
C576 H567 0.950 . S
C576 C575 1.398 . S
C576 C577 1.391 . S
C577 H565 0.950 . S
C577 C573 1.393 . S
C577 C576 1.391 . S
C578 H568 0.950 . S
C578 C579 1.386 . S
C578 C580 1.391 1_565 S
C579 C578 1.386 . S
C579 C583 1.393 . S
C580 H569 0.950 . S
C580 C578 1.391 1_545 S
C580 C581 1.400 1_545 S
C581 C575 1.491 1_565 S
C581 C580 1.400 1_565 S
C581 C582 1.398 . S
C582 H570 0.950 . S
C582 C581 1.398 . S
C582 C583 1.391 . S
C583 H571 0.950 . S
C583 C579 1.393 . S
C583 C582 1.391 . S
H584 C592 0.950 . S
H585 C597 0.950 . S
H586 C594 0.950 . S
H587 C596 0.950 . S
H588 C598 0.950 . S
H589 C600 0.950 . S
H590 C602 0.950 . S
H591 C603 0.950 . S
C592 H584 0.950 . S
C592 C593 1.386 . S
C592 C594 1.391 . S
C593 C592 1.386 . S
C593 C597 1.393 . S
C594 H586 0.950 . S
C594 C592 1.391 . S
C594 C595 1.400 1_556 S
C595 C594 1.400 1_554 S
C595 C596 1.398 . S
C595 C601 1.491 . S
C596 H587 0.950 . S
C596 C595 1.398 . S
C596 C597 1.391 1_554 S
C597 H585 0.950 . S
C597 C593 1.393 . S
C597 C596 1.391 1_556 S
C598 H588 0.950 . S
C598 C599 1.386 . S
C598 C600 1.391 . S
C599 C598 1.386 . S
C599 C603 1.393 . S
C600 H589 0.950 . S
C600 C598 1.391 . S
C600 C601 1.400 . S
C601 C595 1.491 . S
C601 C600 1.400 . S
C601 C602 1.398 . S
C602 H590 0.950 . S
C602 C601 1.398 . S
C602 C603 1.391 . S
C603 H591 0.950 . S
C603 C599 1.393 . S
C603 C602 1.391 . S
H604 C612 0.950 . S
H605 C617 0.950 . S
H606 C614 0.950 . S
H607 C616 0.950 . S
H608 C618 0.950 . S
H609 C620 0.950 . S
H610 C622 0.950 . S
H611 C623 0.950 . S
C612 H604 0.950 . S
C612 C613 1.386 . S
C612 C614 1.391 . S
C613 C612 1.386 . S
C613 C617 1.393 . S
C614 H606 0.950 . S
C614 C612 1.391 . S
C614 C615 1.400 . S
C615 C614 1.400 . S
C615 C616 1.398 . S
C615 C621 1.491 . S
C616 H607 0.950 . S
C616 C615 1.398 . S
C616 C617 1.391 . S
C617 H605 0.950 . S
C617 C613 1.393 . S
C617 C616 1.391 . S
C618 H608 0.950 . S
C618 C619 1.386 . S
C618 C620 1.391 . S
C619 C618 1.386 . S
C619 C623 1.393 . S
C620 H609 0.950 . S
C620 C618 1.391 . S
C620 C621 1.400 . S
C621 C615 1.491 . S
C621 C620 1.400 . S
C621 C622 1.398 . S
C622 H610 0.950 . S
C622 C621 1.398 . S
C622 C623 1.391 . S
C623 H611 0.950 . S
C623 C619 1.393 . S
C623 C622 1.391 . S
H624 C632 0.950 . S
H625 C637 0.950 . S
H626 C634 0.949 1_556 S
H627 C636 0.950 . S
H628 C638 0.950 . S
H629 C640 0.950 . S
H630 C642 0.950 . S
H631 C643 0.950 . S
C632 H624 0.950 . S
C632 C633 1.386 . S
C632 C634 1.393 . S
C633 C632 1.386 . S
C633 C637 1.393 . S
C634 H626 0.949 1_554 S
C634 C632 1.393 . S
C634 C635 1.400 1_554 S
C635 C634 1.400 1_556 S
C635 C636 1.398 . S
C635 C641 1.491 . S
C636 H627 0.950 . S
C636 C635 1.398 . S
C636 C637 1.391 1_556 S
C637 H625 0.950 . S
C637 C633 1.393 . S
C637 C636 1.391 1_554 S
C638 H628 0.950 . S
C638 C639 1.386 . S
C638 C640 1.391 . S
C639 C638 1.386 . S
C639 C643 1.393 . S
C640 H629 0.950 . S
C640 C638 1.391 . S
C640 C641 1.400 . S
C641 C635 1.491 . S
C641 C640 1.400 . S
C641 C642 1.398 . S
C642 H630 0.950 . S
C642 C641 1.398 . S
C642 C643 1.391 . S
C643 H631 0.950 . S
C643 C639 1.393 . S
C643 C642 1.391 . S
H644 C652 0.950 . S
H645 C657 0.950 . S
H646 C654 0.950 . S
H647 C656 0.950 . S
H648 C658 0.950 . S
H649 C660 0.950 . S
H650 C662 0.950 . S
H651 C663 0.950 . S
C652 H644 0.950 . S
C652 C653 1.386 . S
C652 C654 1.391 . S
C653 C652 1.386 . S
C653 C657 1.393 . S
C654 H646 0.950 . S
C654 C652 1.391 . S
C654 C655 1.400 . S
C655 C654 1.400 . S
C655 C656 1.398 . S
C655 C661 1.491 . S
C656 H647 0.950 . S
C656 C655 1.398 . S
C656 C657 1.391 . S
C657 H645 0.950 . S
C657 C653 1.393 . S
C657 C656 1.391 . S
C658 H648 0.950 . S
C658 C659 1.386 . S
C658 C660 1.391 . S
C659 C658 1.386 . S
C659 C663 1.393 . S
C660 H649 0.950 . S
C660 C658 1.391 . S
C660 C661 1.400 . S
C661 C655 1.491 . S
C661 C660 1.400 . S
C661 C662 1.398 . S
C662 H650 0.950 . S
C662 C661 1.398 . S
C662 C663 1.391 . S
C663 H651 0.950 . S
C663 C659 1.393 . S
C663 C662 1.391 . S
H664 C672 0.953 . S
H665 C677 0.950 . S
H666 C674 0.950 . S
H667 C676 0.950 . S
H668 C678 0.950 . S
H669 C680 0.950 . S
H670 C682 0.950 . S
H671 C683 0.950 . S
C672 H664 0.953 . S
C672 C673 1.407 . S
C672 C674 1.367 1_554 S
C673 C672 1.407 . S
C673 C677 1.393 . S
C674 H666 0.950 . S
C674 C672 1.367 1_556 S
C674 C675 1.400 . S
C675 C674 1.400 . S
C675 C676 1.398 . S
C675 C681 1.491 . S
C676 H667 0.950 . S
C676 C675 1.398 . S
C676 C677 1.391 1_556 S
C677 H665 0.950 . S
C677 C673 1.393 . S
C677 C676 1.391 1_554 S
C678 H668 0.950 . S
C678 C679 1.386 . S
C678 C680 1.391 . S
C679 C678 1.386 . S
C679 C683 1.393 . S
C680 H669 0.950 . S
C680 C678 1.391 . S
C680 C681 1.400 . S
C681 C675 1.491 . S
C681 C680 1.400 . S
C681 C682 1.398 . S
C682 H670 0.950 . S
C682 C681 1.398 . S
C682 C683 1.391 . S
C683 H671 0.950 . S
C683 C679 1.393 . S
C683 C682 1.391 . S
H684 C692 0.950 . S
H685 C697 0.950 . S
H686 C694 0.950 . S
H687 C696 0.950 . S
H688 C698 0.950 . S
H689 C700 0.950 . S
H690 C702 0.950 . S
H691 C703 0.950 . S
C692 H684 0.950 . S
C692 C693 1.386 . S
C692 C694 1.391 . S
C693 C692 1.386 . S
C693 C697 1.393 . S
C694 H686 0.950 . S
C694 C692 1.391 . S
C694 C695 1.400 . S
C695 C694 1.400 . S
C695 C696 1.398 . S
C695 C701 1.491 . S
C696 H687 0.950 . S
C696 C695 1.398 . S
C696 C697 1.391 . S
C697 H685 0.950 . S
C697 C693 1.393 . S
C697 C696 1.391 . S
C698 H688 0.950 . S
C698 C699 1.386 . S
C698 C700 1.391 . S
C699 C698 1.386 . S
C699 C703 1.393 . S
C700 H689 0.950 . S
C700 C698 1.391 . S
C700 C701 1.400 . S
C701 C695 1.491 . S
C701 C700 1.400 . S
C701 C702 1.398 . S
C702 H690 0.950 . S
C702 C701 1.398 . S
C702 C703 1.391 . S
C703 H691 0.950 . S
C703 C699 1.393 . S
C703 C702 1.391 . S
H704 C712 0.950 . S
H705 C717 0.950 . S
H706 C714 0.950 . S
H707 C716 0.950 . S
H708 C718 0.950 . S
H709 C720 0.950 . S
H710 C722 0.950 . S
H711 C723 0.950 . S
C712 H704 0.950 . S
C712 C713 1.386 . S
C712 C714 1.391 1_556 S
C713 C712 1.386 . S
C713 C717 1.393 . S
C714 H706 0.950 . S
C714 C712 1.391 1_554 S
C714 C715 1.400 . S
C715 C714 1.400 . S
C715 C716 1.398 . S
C715 C721 1.491 . S
C716 H707 0.950 . S
C716 C715 1.398 . S
C716 C717 1.391 1_554 S
C717 H705 0.950 . S
C717 C713 1.393 . S
C717 C716 1.391 1_556 S
C718 H708 0.950 . S
C718 C719 1.386 . S
C718 C720 1.391 . S
C719 C718 1.386 . S
C719 C723 1.393 . S
C720 H709 0.950 . S
C720 C718 1.391 . S
C720 C721 1.400 . S
C721 C715 1.491 . S
C721 C720 1.400 . S
C721 C722 1.398 . S
C722 H710 0.950 . S
C722 C721 1.398 . S
C722 C723 1.391 . S
C723 H711 0.950 . S
C723 C719 1.393 . S
C723 C722 1.391 . S
H724 C732 0.950 . S
H725 C737 0.950 . S
H726 C734 0.950 . S
H727 C736 0.950 . S
H728 C738 0.950 . S
H729 C740 0.950 . S
H730 C742 0.950 . S
H731 C743 0.950 . S
C732 H724 0.950 . S
C732 C733 1.386 . S
C732 C734 1.391 . S
C733 C732 1.386 . S
C733 C737 1.393 . S
C734 H726 0.950 . S
C734 C732 1.391 . S
C734 C735 1.400 . S
C735 C734 1.400 . S
C735 C736 1.398 . S
C735 C741 1.491 . S
C736 H727 0.950 . S
C736 C735 1.398 . S
C736 C737 1.391 . S
C737 H725 0.950 . S
C737 C733 1.393 . S
C737 C736 1.391 . S
C738 H728 0.950 . S
C738 C739 1.386 . S
C738 C740 1.391 . S
C739 C738 1.386 . S
C739 C743 1.393 . S
C740 H729 0.950 . S
C740 C738 1.391 . S
C740 C741 1.400 . S
C741 C735 1.491 . S
C741 C740 1.400 . S
C741 C742 1.398 . S
C742 H730 0.950 . S
C742 C741 1.398 . S
C742 C743 1.391 . S
C743 H731 0.950 . S
C743 C739 1.393 . S
C743 C742 1.391 . S
H744 C752 0.950 . S
H745 C757 0.950 . S
H746 C754 0.950 . S
H747 C756 0.950 . S
H748 C758 0.950 . S
H749 C760 0.950 . S
H750 C762 0.950 . S
H751 C763 0.950 . S
C752 H744 0.950 . S
C752 C753 1.386 . S
C752 C754 1.391 . S
C753 C752 1.386 . S
C753 C757 1.393 . S
C754 H746 0.950 . S
C754 C752 1.391 . S
C754 C755 1.400 . S
C755 C754 1.400 . S
C755 C756 1.398 . S
C755 C761 1.491 . S
C756 H747 0.950 . S
C756 C755 1.398 . S
C756 C757 1.391 . S
C757 H745 0.950 . S
C757 C753 1.393 . S
C757 C756 1.391 . S
C758 H748 0.950 . S
C758 C759 1.386 . S
C758 C760 1.391 . S
C759 C758 1.386 . S
C759 C763 1.393 . S
C760 H749 0.950 . S
C760 C758 1.391 . S
C760 C761 1.400 . S
C761 C755 1.491 . S
C761 C760 1.400 . S
C761 C762 1.398 . S
C762 H750 0.950 . S
C762 C761 1.398 . S
C762 C763 1.391 . S
C763 H751 0.950 . S
C763 C759 1.393 . S
C763 C762 1.391 . S
H764 C772 0.950 . S
H765 C777 0.950 . S
H766 C774 0.950 . S
H767 C776 0.950 . S
H768 C778 0.950 . S
H769 C780 0.950 . S
H770 C782 0.950 . S
H771 C783 0.950 . S
C772 H764 0.950 . S
C772 C773 1.386 . S
C772 C774 1.391 . S
C773 C772 1.386 . S
C773 C777 1.393 . S
C774 H766 0.950 . S
C774 C772 1.391 . S
C774 C775 1.400 . S
C775 C774 1.400 . S
C775 C776 1.398 . S
C775 C781 1.491 . S
C776 H767 0.950 . S
C776 C775 1.398 . S
C776 C777 1.391 . S
C777 H765 0.950 . S
C777 C773 1.393 . S
C777 C776 1.391 . S
C778 H768 0.950 . S
C778 C779 1.386 . S
C778 C780 1.391 . S
C779 C778 1.386 . S
C779 C783 1.393 . S
C780 H769 0.950 . S
C780 C778 1.391 . S
C780 C781 1.400 . S
C781 C775 1.491 . S
C781 C780 1.400 . S
C781 C782 1.398 . S
C782 H770 0.950 . S
C782 C781 1.398 . S
C782 C783 1.391 . S
C783 H771 0.950 . S
C783 C779 1.393 . S
C783 C782 1.391 . S
H784 C792 0.950 . S
H785 C797 0.950 . S
H786 C794 0.950 . S
H787 C796 0.950 . S
H788 C798 0.950 . S
H789 C800 0.950 . S
H790 C802 0.950 . S
H791 C803 0.950 . S
C792 H784 0.950 . S
C792 C793 1.386 . S
C792 C794 1.391 . S
C793 C792 1.386 . S
C793 C797 1.393 . S
C794 H786 0.950 . S
C794 C792 1.391 . S
C794 C795 1.400 . S
C795 C794 1.400 . S
C795 C796 1.398 . S
C795 C801 1.491 . S
C796 H787 0.950 . S
C796 C795 1.398 . S
C796 C797 1.391 . S
C797 H785 0.950 . S
C797 C793 1.393 . S
C797 C796 1.391 . S
C798 H788 0.950 . S
C798 C799 1.386 . S
C798 C800 1.391 . S
C799 C798 1.386 . S
C799 C803 1.393 . S
C800 H789 0.950 . S
C800 C798 1.391 . S
C800 C801 1.400 . S
C801 C795 1.491 . S
C801 C800 1.400 . S
C801 C802 1.398 . S
C802 H790 0.950 . S
C802 C801 1.398 . S
C802 C803 1.391 . S
C803 H791 0.950 . S
C803 C799 1.393 . S
C803 C802 1.391 . S
H804 C812 0.950 . S
H805 C817 0.950 . S
H806 C814 0.950 . S
H807 C816 0.950 . S
H808 C818 0.950 1_455 S
H809 C820 0.950 . S
H810 C822 0.950 . S
H811 C823 0.950 . S
C812 H804 0.950 . S
C812 C813 1.386 . S
C812 C814 1.391 . S
C813 C812 1.386 . S
C813 C817 1.393 . S
C814 H806 0.950 . S
C814 C812 1.391 . S
C814 C815 1.400 . S
C815 C814 1.400 . S
C815 C816 1.398 . S
C815 C821 1.491 . S
C816 H807 0.950 . S
C816 C815 1.398 . S
C816 C817 1.391 . S
C817 H805 0.950 . S
C817 C813 1.393 . S
C817 C816 1.391 . S
C818 H808 0.950 1_655 S
C818 C819 1.386 . S
C818 C820 1.391 . S
C819 C818 1.386 . S
C819 C823 1.393 . S
C820 H809 0.950 . S
C820 C818 1.391 . S
C820 C821 1.400 . S
C821 C815 1.491 . S
C821 C820 1.400 . S
C821 C822 1.398 . S
C822 H810 0.950 . S
C822 C821 1.398 . S
C822 C823 1.391 . S
C823 H811 0.950 . S
C823 C819 1.393 . S
C823 C822 1.391 . S
H824 C832 0.950 . S
H825 C837 0.950 . S
H826 C834 0.950 . S
H827 C836 0.950 . S
H828 C838 0.950 . S
H829 C840 0.950 . S
H830 C842 0.950 . S
H831 C843 0.950 . S
C832 H824 0.950 . S
C832 C833 1.386 . S
C832 C834 1.391 . S
C833 C832 1.386 . S
C833 C837 1.393 . S
C834 H826 0.950 . S
C834 C832 1.391 . S
C834 C835 1.400 . S
C835 C834 1.400 . S
C835 C836 1.398 . S
C835 C841 1.491 . S
C836 H827 0.950 . S
C836 C835 1.398 . S
C836 C837 1.391 . S
C837 H825 0.950 . S
C837 C833 1.393 . S
C837 C836 1.391 . S
C838 H828 0.950 . S
C838 C839 1.386 . S
C838 C840 1.391 . S
C839 C838 1.386 . S
C839 C843 1.393 . S
C840 H829 0.950 . S
C840 C838 1.391 . S
C840 C841 1.400 . S
C841 C835 1.491 . S
C841 C840 1.400 . S
C841 C842 1.398 . S
C842 H830 0.950 . S
C842 C841 1.398 . S
C842 C843 1.391 . S
C843 H831 0.950 . S
C843 C839 1.393 . S
C843 C842 1.391 . S
H844 C852 0.950 . S
H845 C857 0.950 . S
H846 C854 0.950 . S
H847 C856 0.950 . S
H848 C858 0.950 . S
H849 C860 0.950 . S
H850 C862 0.950 . S
H851 C863 0.950 . S
C852 H844 0.950 . S
C852 C853 1.386 . S
C852 C854 1.391 . S
C853 C852 1.386 . S
C853 C857 1.393 . S
C854 H846 0.950 . S
C854 C852 1.391 . S
C854 C855 1.400 . S
C855 C854 1.400 . S
C855 C856 1.398 . S
C855 C861 1.491 . S
C856 H847 0.950 . S
C856 C855 1.398 . S
C856 C857 1.391 . S
C857 H845 0.950 . S
C857 C853 1.393 . S
C857 C856 1.391 . S
C858 H848 0.950 . S
C858 C859 1.386 . S
C858 C860 1.391 . S
C859 C858 1.386 . S
C859 C863 1.393 . S
C860 H849 0.950 . S
C860 C858 1.391 . S
C860 C861 1.400 . S
C861 C855 1.491 . S
C861 C860 1.400 . S
C861 C862 1.398 . S
C862 H850 0.950 . S
C862 C861 1.398 . S
C862 C863 1.391 . S
C863 H851 0.950 . S
C863 C859 1.393 . S
C863 C862 1.391 . S
H864 C872 0.950 . S
H865 C877 0.950 . S
H866 C874 0.950 . S
H867 C876 0.950 . S
H868 C878 0.950 . S
H869 C880 0.950 . S
H870 C882 0.950 . S
H871 C883 0.950 . S
C872 H864 0.950 . S
C872 C873 1.386 . S
C872 C874 1.391 . S
C873 C872 1.386 . S
C873 C877 1.393 . S
C874 H866 0.950 . S
C874 C872 1.391 . S
C874 C875 1.400 . S
C875 C874 1.400 . S
C875 C876 1.398 . S
C875 C881 1.491 . S
C876 H867 0.950 . S
C876 C875 1.398 . S
C876 C877 1.391 . S
C877 H865 0.950 . S
C877 C873 1.393 . S
C877 C876 1.391 . S
C878 H868 0.950 . S
C878 C879 1.386 . S
C878 C880 1.391 . S
C879 C878 1.386 . S
C879 C883 1.393 . S
C880 H869 0.950 . S
C880 C878 1.391 . S
C880 C881 1.400 . S
C881 C875 1.491 . S
C881 C880 1.400 . S
C881 C882 1.398 . S
C882 H870 0.950 . S
C882 C881 1.398 . S
C882 C883 1.391 . S
C883 H871 0.950 . S
C883 C879 1.393 . S
C883 C882 1.391 . S
H884 C892 0.950 . S
H885 C897 0.950 . S
H886 C894 0.950 . S
H887 C896 0.950 . S
H888 C898 0.950 . S
H889 C900 0.950 . S
H890 C902 0.950 . S
H891 C903 0.950 . S
C892 H884 0.950 . S
C892 C893 1.386 . S
C892 C894 1.391 . S
C893 C892 1.386 . S
C893 C897 1.393 . S
C894 H886 0.950 . S
C894 C892 1.391 . S
C894 C895 1.400 . S
C895 C894 1.400 . S
C895 C896 1.398 . S
C895 C901 1.491 . S
C896 H887 0.950 . S
C896 C895 1.398 . S
C896 C897 1.391 . S
C897 H885 0.950 . S
C897 C893 1.393 . S
C897 C896 1.391 . S
C898 H888 0.950 . S
C898 C899 1.386 . S
C898 C900 1.391 . S
C899 C898 1.386 . S
C899 C903 1.393 . S
C900 H889 0.950 . S
C900 C898 1.391 . S
C900 C901 1.400 . S
C901 C895 1.491 . S
C901 C900 1.400 . S
C901 C902 1.398 . S
C902 H890 0.950 . S
C902 C901 1.398 . S
C902 C903 1.391 . S
C903 H891 0.950 . S
C903 C899 1.393 . S
C903 C902 1.391 . S
C433 C73 1.600 . S
C439 C144 1.652 . S
C459 C228 1.758 . S
C453 C84 1.737 . S
C479 C227 1.648 . S
C473 C51 1.612 . S
C493 C62 1.741 . S
C499 C143 1.766 . S
C519 C324 1.648 . S
C513 C29 1.585 . S
C539 C408 1.586 . S
C533 C38 1.462 . S
C553 C7 1.584 . S
C559 C407 1.655 . S
C573 C16 1.500 . S
C579 C323 1.586 . S
C599 C146 1.515 . S
C593 C18 1.653 . S
C619 C230 1.492 . S
C613 C5 1.400 . S
C639 C242 1.437 . S
C633 C40 1.671 . S
C659 C158 1.487 . S
C653 C27 1.465 . S
C679 C326 1.346 . S
C673 C60 1.334 . S
C693 C49 1.372 . S
C699 C410 1.350 . S
C719 C398 1.305 . S
C713 C82 1.352 . S
C733 C71 1.389 . S
C739 C314 1.343 . S
C759 C155 1.660 . S
C753 C8 1.645 . S
C779 C239 1.565 . S
C773 C19 1.562 . S
C793 C30 1.640 . S
C799 C240 1.646 . S
C819 C156 1.529 . S
C813 C41 1.548 . S
C839 C311 1.424 . S
C833 C52 1.421 . S
C853 C63 1.553 . S
C859 C395 1.551 . S
C873 C74 1.411 . S
C879 C396 1.399 . S
C893 C85 1.542 . S
C899 C312 1.503 . S
