# Generated by pormake.
# Topology zzz, (3,6)-cn, num edge types: 1
# Building blocks:
#     Node 0, Type 0, BuildingBlock: OLANEW_clean_sbu_2, # of connection points: 3
#     Node 1, Type 0, BuildingBlock: OLANEW_clean_sbu_2, # of connection points: 3
#     Node 2, Type 0, BuildingBlock: OLANEW_clean_sbu_2, # of connection points: 3
#     Node 3, Type 0, BuildingBlock: OLANEW_clean_sbu_2, # of connection points: 3
#     Node 4, Type 0, BuildingBlock: OLANEW_clean_sbu_2, # of connection points: 3
#     Node 5, Type 0, BuildingBlock: OLANEW_clean_sbu_2, # of connection points: 3
#     Node 6, Type 0, BuildingBlock: OLANEW_clean_sbu_2, # of connection points: 3
#     Node 7, Type 0, BuildingBlock: OLANEW_clean_sbu_2, # of connection points: 3
#     Node 8, Type 1, BuildingBlock: BETDAH_clean_sbu_0, # of connection points: 6
#     Node 9, Type 1, BuildingBlock: BETDAH_clean_sbu_0, # of connection points: 6
#     Node 10, Type 1, BuildingBlock: BETDAH_clean_sbu_0, # of connection points: 6
#     Node 11, Type 1, BuildingBlock: BETDAH_clean_sbu_0, # of connection points: 6
#     Edge 12, Type (0, 1), BuildingBlock: ZUJKAS_clean_linker_0, # of connection points: 2
#     Edge 13, Type (0, 1), BuildingBlock: ZUJKAS_clean_linker_0, # of connection points: 2
#     Edge 14, Type (0, 1), BuildingBlock: ZUJKAS_clean_linker_0, # of connection points: 2
#     Edge 15, Type (0, 1), BuildingBlock: ZUJKAS_clean_linker_0, # of connection points: 2
#     Edge 16, Type (0, 1), BuildingBlock: ZUJKAS_clean_linker_0, # of connection points: 2
#     Edge 17, Type (0, 1), BuildingBlock: ZUJKAS_clean_linker_0, # of connection points: 2
#     Edge 18, Type (0, 1), BuildingBlock: ZUJKAS_clean_linker_0, # of connection points: 2
#     Edge 19, Type (0, 1), BuildingBlock: ZUJKAS_clean_linker_0, # of connection points: 2
#     Edge 20, Type (0, 1), BuildingBlock: ZUJKAS_clean_linker_0, # of connection points: 2
#     Edge 21, Type (0, 1), BuildingBlock: ZUJKAS_clean_linker_0, # of connection points: 2
#     Edge 22, Type (0, 1), BuildingBlock: ZUJKAS_clean_linker_0, # of connection points: 2
#     Edge 23, Type (0, 1), BuildingBlock: ZUJKAS_clean_linker_0, # of connection points: 2
#     Edge 24, Type (0, 1), BuildingBlock: ZUJKAS_clean_linker_0, # of connection points: 2
#     Edge 25, Type (0, 1), BuildingBlock: ZUJKAS_clean_linker_0, # of connection points: 2
#     Edge 26, Type (0, 1), BuildingBlock: ZUJKAS_clean_linker_0, # of connection points: 2
#     Edge 27, Type (0, 1), BuildingBlock: ZUJKAS_clean_linker_0, # of connection points: 2
#     Edge 28, Type (0, 1), BuildingBlock: ZUJKAS_clean_linker_0, # of connection points: 2
#     Edge 29, Type (0, 1), BuildingBlock: ZUJKAS_clean_linker_0, # of connection points: 2
#     Edge 30, Type (0, 1), BuildingBlock: ZUJKAS_clean_linker_0, # of connection points: 2
#     Edge 31, Type (0, 1), BuildingBlock: ZUJKAS_clean_linker_0, # of connection points: 2
#     Edge 32, Type (0, 1), BuildingBlock: ZUJKAS_clean_linker_0, # of connection points: 2
#     Edge 33, Type (0, 1), BuildingBlock: ZUJKAS_clean_linker_0, # of connection points: 2
#     Edge 34, Type (0, 1), BuildingBlock: ZUJKAS_clean_linker_0, # of connection points: 2
#     Edge 35, Type (0, 1), BuildingBlock: ZUJKAS_clean_linker_0, # of connection points: 2
# Relax obj value: 0.220
# Max RMSD: 0.179
# Mean RMSD: 0.170
data_MOF--net-zzz--node1-OLANEW_clean_sbu_2--node2-BETDAH_clean_sbu_0--edge1-ZUJKAS_clean_linker_0
_symmetry_space_group_name_H-M    P1
_symmetry_Int_Tables_number       1
_symmetry_cell_setting            triclinic
loop_
_symmetry_equiv_pos_as_xyz
'x, y, z'
_cell_length_a     71.931023
_cell_length_b     71.924789
_cell_length_c     19.044879
_cell_angle_alpha  89.977376
_cell_angle_beta   89.990545
_cell_angle_gamma 90.00633
loop_
_atom_site_label
_atom_site_type_symbol
_atom_site_fract_x
_atom_site_fract_y
_atom_site_fract_z
_atom_type_partial_charge
O0 O 0.72916 0.57644 0.16175 0.0
Cd1 Cd 0.70032 0.58345 0.22426 0.0
O2 O 0.73341 0.55804 0.25172 0.0
Cd3 Cd 0.7512 0.54069 0.31704 0.0
O4 O 0.77742 0.53154 0.36162 0.0
C5 C 0.79122 0.54217 0.35054 0.0
O6 O 0.78867 0.5575 0.31428 0.0
C7 C 0.73915 0.56457 0.19352 0.0
C8 C 0.66903 0.57069 0.15343 0.0
O9 O 0.67355 0.58792 0.15135 0.0
O10 O 0.67927 0.55953 0.18878 0.0
O11 O 0.93738 0.73224 0.18522 0.0
Cd12 Cd 0.92906 0.70173 0.23167 0.0
O13 O 0.96163 0.73154 0.25489 0.0
Cd14 Cd 0.98451 0.746 0.30656 0.0
O15 O 0.99717 0.77215 0.33824 0.0
C16 C 0.9857 0.78529 0.34875 0.0
O17 O 0.96785 0.78192 0.34157 0.0
C18 C 0.95199 0.73995 0.20871 0.0
C19 C 0.94505 0.67321 0.15341 0.0
O20 O 0.92876 0.67933 0.13898 0.0
O21 O 0.95379 0.68058 0.20504 0.0
O22 O 0.77155 0.94502 0.11037 0.0
Cd23 Cd 0.80226 0.93641 0.15391 0.0
O24 O 0.76551 0.9566 0.2144 0.0
Cd25 Cd 0.74543 0.96734 0.29 0.0
O26 O 0.71908 0.97338 0.34127 0.0
C27 C 0.70479 0.96473 0.31946 0.0
O28 O 0.70666 0.95264 0.26821 0.0
C29 C 0.76038 0.95313 0.15188 0.0
C30 C 0.83074 0.95342 0.07847 0.0
O31 O 0.82385 0.93783 0.05879 0.0
O32 O 0.82409 0.96104 0.1339 0.0
O33 O 0.58334 0.77339 0.12039 0.0
Cd34 Cd 0.59383 0.80387 0.16094 0.0
O35 O 0.56881 0.77094 0.22103 0.0
Cd36 Cd 0.55399 0.75462 0.29966 0.0
O37 O 0.54399 0.73072 0.35851 0.0
C38 C 0.55221 0.7154 0.34676 0.0
O39 O 0.56597 0.71507 0.30141 0.0
C40 C 0.57305 0.76407 0.16161 0.0
C41 C 0.5744 0.83275 0.09665 0.0
O42 O 0.58976 0.82675 0.07107 0.0
O43 O 0.56823 0.82506 0.15274 0.0
O44 O 0.26576 0.56854 0.12186 0.0
Cd45 Cd 0.29648 0.57096 0.06905 0.0
O46 O 0.26853 0.53867 0.10167 0.0
Cd47 Cd 0.25585 0.51118 0.09298 0.0
O48 O 0.22988 0.49708 0.06865 0.0
C49 C 0.21873 0.50726 0.03404 0.0
O50 O 0.22406 0.52413 0.0166 0.0
C51 C 0.25918 0.5522 0.12631 0.0
C52 C 0.32184 0.55567 0.16275 0.0
O53 O 0.3185 0.57318 0.16225 0.0
O54 O 0.31352 0.54544 0.11751 0.0
O55 O 0.94925 0.26175 0.13938 0.0
Cd56 Cd 0.94464 0.29278 0.09128 0.0
O57 O 0.97864 0.2662 0.11388 0.0
Cd58 Cd 0.00622 0.25447 0.09618 0.0
O59 O 0.01769 0.2277 0.06552 0.0
C60 C 0.00557 0.21735 0.03673 0.0
O61 O 0.9888 0.22405 0.02644 0.0
C62 C 0.9659 0.2559 0.13924 0.0
C63 C 0.95934 0.31858 0.18457 0.0
O64 O 0.94204 0.3143 0.18601 0.0
O65 O 0.96964 0.31091 0.13794 0.0
O66 O 0.2319 0.94937 0.03647 0.0
Cd67 Cd 0.20004 0.94668 0.99408 0.0
O68 O 0.22872 0.97972 0.03152 0.0
Cd69 Cd 0.24056 0.00733 0.04865 0.0
O70 O 0.26558 0.0242 0.0414 0.0
C71 C 0.27065 0.0283 0.97946 0.0
O72 O 0.25951 0.02414 0.92707 0.0
C73 C 0.2387 0.96552 0.04436 0.0
C74 C 0.17538 0.95604 0.1008 0.0
O75 O 0.18067 0.93919 0.09178 0.0
O76 O 0.18159 0.96846 0.05861 0.0
O77 O 0.56821 0.24092 0.15606 0.0
Cd78 Cd 0.57546 0.20967 0.11547 0.0
O79 O 0.54289 0.24056 0.09165 0.0
Cd80 Cd 0.51718 0.25403 0.05848 0.0
O81 O 0.49968 0.27749 0.02974 0.0
C82 C 0.50181 0.28411 0.96846 0.0
O83 O 0.51338 0.27581 0.92528 0.0
C84 C 0.55361 0.24897 0.13415 0.0
C85 C 0.56023 0.18362 0.20684 0.0
O86 O 0.5766 0.19015 0.21676 0.0
O87 O 0.55112 0.18929 0.1531 0.0
Ho88 Ho 0.02627 0.98936 0.76576 0.0
Ho89 Ho 0.02412 0.00946 0.62114 0.0
C90 C 0.0232 0.96446 0.63041 0.0
C91 C 0.0203 0.97598 0.88977 0.0
C92 C 0.01387 0.95815 0.91993 0.0
C93 C 0.99589 0.95129 0.90699 0.0
C94 C 0.99029 0.93421 0.93495 0.0
C95 C 0.00252 0.92361 0.97644 0.0
C96 C 0.02039 0.93067 0.99024 0.0
C97 C 0.02597 0.94776 0.96244 0.0
C98 C 0.05844 0.99134 0.69366 0.0
C99 C 0.02885 0.03476 0.75647 0.0
C100 C 0.027 0.02257 0.49514 0.0
C101 C 0.02218 0.04011 0.45927 0.0
C102 C 0.03532 0.04867 0.41548 0.0
C103 C 0.03119 0.06548 0.38198 0.0
C104 C 0.01375 0.07396 0.39126 0.0
C105 C 0.00055 0.06528 0.43481 0.0
C106 C 0.00475 0.04857 0.4688 0.0
C107 C 0.99209 0.00636 0.6937 0.0
O108 O 0.01797 0.9657 0.69685 0.0
O109 O 0.029 0.97918 0.5946 0.0
O110 O 0.03661 0.97576 0.85931 0.0
O111 O 0.0081 0.98591 0.85518 0.0
O112 O 0.05408 0.97765 0.7349 0.0
O113 O 0.04616 0.00379 0.69735 0.0
O114 O 0.03072 0.03409 0.68748 0.0
O115 O 0.02574 0.01978 0.79534 0.0
O116 O 0.01315 0.01214 0.51607 0.0
O117 O 0.04036 0.02357 0.54154 0.0
O118 O 0.99619 0.02077 0.65574 0.0
O119 O 0.00456 0.99427 0.68798 0.0
H120 H 0.98615 0.95902 0.87506 0.0
H121 H 0.97632 0.92935 0.92423 0.0
H122 H 0.03024 0.92279 0.02128 0.0
H123 H 0.03986 0.95279 0.97354 0.0
H124 H 0.04885 0.04238 0.40746 0.0
H125 H 0.04159 0.07178 0.34841 0.0
H126 H 0.9871 0.07162 0.44378 0.0
H127 H 0.99441 0.04237 0.50288 0.0
Ho128 Ho 0.49995 0.01057 0.75554 0.0
Ho129 Ho 0.48154 0.00388 0.61001 0.0
C130 C 0.52499 0.99695 0.62402 0.0
C131 C 0.51796 0.00832 0.87296 0.0
C132 C 0.53665 0.00294 0.89672 0.0
C133 C 0.54708 0.98942 0.861 0.0
C134 C 0.56498 0.98484 0.88399 0.0
C135 C 0.57273 0.99371 0.94302 0.0
C136 C 0.56209 0.00709 0.9789 0.0
C137 C 0.54423 0.01165 0.95587 0.0
C138 C 0.4973 0.04039 0.66986 0.0
C139 C 0.45637 0.01771 0.74401 0.0
C140 C 0.46542 0.00722 0.48918 0.0
C141 C 0.44743 0.00495 0.45367 0.0
C142 C 0.43055 0.0052 0.49055 0.0
C143 C 0.41371 0.003 0.45447 0.0
C144 C 0.41353 0.0005 0.38104 0.0
C145 C 0.43056 0.00022 0.34477 0.0
C146 C 0.44731 0.00245 0.38077 0.0
C147 C 0.48443 0.97368 0.69295 0.0
O148 O 0.52257 0.99632 0.69293 0.0
O149 O 0.51171 0.0029 0.58155 0.0
O150 O 0.51693 0.02354 0.83567 0.0
O151 O 0.50744 0.99502 0.84831 0.0
O152 O 0.49594 0.04142 0.73771 0.0
O153 O 0.50116 0.02404 0.6522 0.0
O154 O 0.45777 0.01548 0.67491 0.0
O155 O 0.47044 0.0147 0.7872 0.0
O156 O 0.4736 0.99197 0.51023 0.0
O157 O 0.4669 0.02086 0.53438 0.0
O158 O 0.48505 0.97298 0.62496 0.0
O159 O 0.48068 0.98997 0.71234 0.0
H160 H 0.54145 0.98251 0.8152 0.0
H161 H 0.57286 0.97462 0.85473 0.0
H162 H 0.56752 0.01397 0.02513 0.0
H163 H 0.53634 0.02206 0.98423 0.0
H164 H 0.4304 0.00711 0.54697 0.0
H165 H 0.40084 0.00343 0.48394 0.0
H166 H 0.43099 0.99799 0.28857 0.0
H167 H 0.46024 0.00213 0.35155 0.0
Ho168 Ho 0.48283 0.51402 0.77131 0.0
Ho169 Ho 0.49363 0.49777 0.62605 0.0
C170 C 0.49813 0.54074 0.64754 0.0
C171 C 0.48164 0.53249 0.88767 0.0
C172 C 0.49091 0.54937 0.91355 0.0
C173 C 0.5077 0.5555 0.88389 0.0
C174 C 0.51581 0.57214 0.90636 0.0
C175 C 0.50727 0.58293 0.95892 0.0
C176 C 0.49058 0.57654 0.98907 0.0
C177 C 0.48248 0.55992 0.96647 0.0
C178 C 0.45492 0.50903 0.67892 0.0
C179 C 0.47993 0.47014 0.75376 0.0
C180 C 0.49317 0.48133 0.50547 0.0
C181 C 0.49706 0.46271 0.47751 0.0
C182 C 0.48897 0.45726 0.41392 0.0
C183 C 0.49298 0.43986 0.38508 0.0
C184 C 0.50526 0.42761 0.41928 0.0
C185 C 0.51311 0.43306 0.48384 0.0
C186 C 0.50899 0.45043 0.51283 0.0
C187 C 0.52216 0.50281 0.71537 0.0
O188 O 0.49832 0.53714 0.71572 0.0
O189 O 0.49295 0.52804 0.60145 0.0
O190 O 0.46985 0.53501 0.83631 0.0
O191 O 0.49228 0.51799 0.87793 0.0
O192 O 0.45297 0.50668 0.74612 0.0
O193 O 0.47095 0.51489 0.66547 0.0
O194 O 0.48398 0.47244 0.68629 0.0
O195 O 0.4798 0.48405 0.79923 0.0
O196 O 0.5075 0.49059 0.52943 0.0
O197 O 0.4785 0.4828 0.54575 0.0
O198 O 0.52383 0.50386 0.64763 0.0
O199 O 0.50604 0.49743 0.73112 0.0
H200 H 0.51445 0.54753 0.84291 0.0
H201 H 0.52875 0.57657 0.88259 0.0
H202 H 0.4835 0.58462 0.02889 0.0
H203 H 0.46945 0.55545 0.98958 0.0
H204 H 0.47961 0.46654 0.38629 0.0
H205 H 0.48641 0.436 0.33606 0.0
H206 H 0.52276 0.42408 0.51131 0.0
H207 H 0.5153 0.45438 0.56229 0.0
Ho208 Ho 0.99217 0.48213 0.78364 0.0
Ho209 Ho 0.01313 0.49365 0.63867 0.0
C210 C 0.96909 0.49898 0.65106 0.0
C211 C 0.97133 0.48 0.89373 0.0
C212 C 0.95414 0.4889 0.91839 0.0
C213 C 0.94682 0.50454 0.88416 0.0
C214 C 0.92995 0.51227 0.90623 0.0
C215 C 0.92004 0.5044 0.96267 0.0
C216 C 0.92757 0.48877 0.99698 0.0
C217 C 0.94446 0.48113 0.97504 0.0
C218 C 0.00106 0.45491 0.69226 0.0
C219 C 0.03664 0.48122 0.77795 0.0
C220 C 0.0296 0.49127 0.51884 0.0
C221 C 0.04747 0.49716 0.48913 0.0
C222 C 0.05168 0.49288 0.41922 0.0
C223 C 0.06868 0.49831 0.39017 0.0
C224 C 0.08175 0.50815 0.43067 0.0
C225 C 0.07741 0.51245 0.5009 0.0
C226 C 0.0604 0.50696 0.52994 0.0
C227 C 0.01063 0.52238 0.73106 0.0
O228 O 0.97028 0.49701 0.72021 0.0
O229 O 0.98322 0.49581 0.60811 0.0
O230 O 0.96947 0.46911 0.83908 0.0
O231 O 0.98614 0.49061 0.89018 0.0
O232 O 0.00083 0.45256 0.7599 0.0
O233 O 0.99549 0.47097 0.67732 0.0
O234 O 0.03604 0.48289 0.70844 0.0
O235 O 0.02177 0.48246 0.81897 0.0
O236 O 0.018 0.50469 0.53494 0.0
O237 O 0.03048 0.47822 0.56695 0.0
O238 O 0.01871 0.52391 0.67024 0.0
O239 O 0.00528 0.50594 0.73667 0.0
H240 H 0.95401 0.51068 0.83996 0.0
H241 H 0.9247 0.52441 0.87907 0.0
H242 H 0.9202 0.48214 0.03978 0.0
H243 H 0.94983 0.46894 0.00164 0.0
H244 H 0.04181 0.48534 0.38704 0.0
H245 H 0.07149 0.49499 0.33573 0.0
H246 H 0.08726 0.5198 0.53371 0.0
H247 H 0.05736 0.5103 0.58422 0.0
H248 H 0.15975 0.93276 0.19743 0.0
H249 H 0.13956 0.94105 0.29564 0.0
H250 H 0.14218 0.99875 0.23478 0.0
H251 H 0.16259 0.99061 0.13649 0.0
H252 H 0.14845 0.99241 0.3791 0.0
H253 H 0.08472 0.95662 0.28663 0.0
H254 H 0.1049 0.94194 0.28773 0.0
H255 H 0.10411 0.96159 0.22938 0.0
C256 C 0.15596 0.9472 0.20457 0.0
C257 C 0.16271 0.96102 0.15899 0.0
C258 C 0.14434 0.9519 0.26053 0.0
C259 C 0.13918 0.97047 0.27174 0.0
C260 C 0.14594 0.98433 0.22663 0.0
H261 H 0.07209 0.01901 0.61027 0.0
H262 H 0.09202 0.01541 0.5064 0.0
C263 C 0.15756 0.97964 0.17051 0.0
C264 C 0.12721 0.97539 0.33207 0.0
H265 H 0.08505 0.96621 0.4065 0.0
C266 C 0.13451 0.98688 0.38489 0.0
C267 C 0.10902 0.96818 0.33911 0.0
C268 C 0.10013 0.95654 0.2824 0.0
C269 C 0.12434 0.99072 0.44615 0.0
C270 C 0.10638 0.98304 0.45403 0.0
C271 C 0.0989 0.97197 0.40035 0.0
C272 C 0.09529 0.98566 0.51862 0.0
C273 C 0.13313 0.00237 0.50302 0.0
C274 C 0.09055 0.97015 0.55952 0.0
C275 C 0.07911 0.97217 0.61813 0.0
C276 C 0.07206 0.98971 0.63636 0.0
C277 C 0.07719 0.00532 0.59657 0.0
C278 C 0.08868 0.0033 0.53779 0.0
H279 H 0.14833 0.00409 0.49493 0.0
H280 H 0.12667 0.01638 0.50303 0.0
H281 H 0.13075 0.99604 0.55544 0.0
H282 H 0.09551 0.95642 0.54543 0.0
H283 H 0.0753 0.95989 0.64779 0.0
H284 H 0.57515 0.17087 0.32959 0.0
H285 H 0.56203 0.14778 0.40965 0.0
H286 H 0.51405 0.14216 0.2756 0.0
H287 H 0.52691 0.16552 0.19568 0.0
H288 H 0.50514 0.14398 0.41885 0.0
H289 H 0.56058 0.09211 0.36674 0.0
H290 H 0.56916 0.11431 0.39507 0.0
H291 H 0.55722 0.11239 0.31245 0.0
C292 C 0.5618 0.16474 0.31707 0.0
C293 C 0.55214 0.1699 0.25593 0.0
C294 C 0.55436 0.15151 0.36281 0.0
C295 C 0.53722 0.14307 0.3479 0.0
C296 C 0.52733 0.14848 0.28782 0.0
H297 H 0.50093 0.03935 0.52839 0.0
H298 H 0.50829 0.0651 0.44977 0.0
C299 C 0.53473 0.16178 0.24213 0.0
C300 C 0.52982 0.12832 0.39432 0.0
H301 H 0.53976 0.08532 0.45965 0.0
C302 C 0.51264 0.1311 0.42772 0.0
C303 C 0.53955 0.11147 0.4049 0.0
C304 C 0.55756 0.10726 0.36743 0.0
C305 C 0.50504 0.11753 0.4724 0.0
C306 C 0.51507 0.10093 0.48459 0.0
C307 C 0.53214 0.09812 0.45053 0.0
C308 C 0.50813 0.08602 0.53142 0.0
C309 C 0.48624 0.12093 0.50506 0.0
C310 C 0.50522 0.0893 0.60331 0.0
C311 C 0.50078 0.07457 0.64839 0.0
C312 C 0.49948 0.05637 0.62221 0.0
C313 C 0.50182 0.05325 0.54998 0.0
C314 C 0.50607 0.06794 0.50502 0.0
H315 H 0.47832 0.13178 0.47619 0.0
H316 H 0.47787 0.10797 0.50632 0.0
H317 H 0.48815 0.12579 0.55988 0.0
H318 H 0.5071 0.10308 0.62502 0.0
H319 H 0.49915 0.07731 0.70398 0.0
H320 H 0.3273 0.51883 0.19206 0.0
H321 H 0.34699 0.50551 0.28416 0.0
H322 H 0.3648 0.56059 0.34337 0.0
H323 H 0.34484 0.574 0.25301 0.0
H324 H 0.38386 0.50676 0.30452 0.0
H325 H 0.34873 0.53975 0.53013 0.0
H326 H 0.33873 0.53954 0.44323 0.0
H327 H 0.35573 0.55684 0.4669 0.0
C328 C 0.33541 0.52809 0.22479 0.0
C329 C 0.33443 0.54748 0.21566 0.0
C330 C 0.34661 0.52046 0.27744 0.0
C331 C 0.35699 0.53208 0.32173 0.0
C332 C 0.35645 0.55139 0.31126 0.0
H333 H 0.45711 0.51856 0.54165 0.0
H334 H 0.43194 0.52017 0.45658 0.0
C335 C 0.34516 0.55903 0.25916 0.0
C336 C 0.36894 0.52413 0.37752 0.0
H337 H 0.38017 0.52923 0.55038 0.0
C338 C 0.38287 0.51142 0.35856 0.0
C339 C 0.36733 0.52976 0.44844 0.0
C340 C 0.35167 0.54206 0.47351 0.0
C341 C 0.39602 0.50522 0.40768 0.0
C342 C 0.39548 0.51232 0.47696 0.0
C343 C 0.38078 0.52399 0.49702 0.0
C344 C 0.41093 0.50941 0.52725 0.0
C345 C 0.41049 0.49134 0.38444 0.0
C346 C 0.40747 0.50317 0.59598 0.0
C347 C 0.42188 0.50254 0.64536 0.0
C348 C 0.43988 0.5082 0.6266 0.0
C349 C 0.44337 0.51402 0.55747 0.0
C350 C 0.42902 0.51476 0.50849 0.0
H351 H 0.40502 0.48223 0.34213 0.0
H352 H 0.42267 0.49891 0.36288 0.0
H353 H 0.41523 0.48248 0.42872 0.0
H354 H 0.39357 0.49914 0.61174 0.0
H355 H 0.41886 0.498 0.6984 0.0
H356 H 0.99603 0.32516 0.21297 0.0
H357 H 0.00889 0.34576 0.30317 0.0
H358 H 0.95339 0.36247 0.36142 0.0
H359 H 0.94046 0.34155 0.27325 0.0
H360 H 0.00708 0.38243 0.32112 0.0
H361 H 0.97433 0.34822 0.54913 0.0
H362 H 0.97465 0.33773 0.46309 0.0
H363 H 0.95712 0.35462 0.48556 0.0
C364 C 0.98658 0.33321 0.24516 0.0
C365 C 0.96723 0.33163 0.2365 0.0
C366 C 0.99395 0.34494 0.29668 0.0
C367 C 0.98209 0.35529 0.3402 0.0
C368 C 0.96279 0.35415 0.33004 0.0
H369 H 0.99421 0.45702 0.5526 0.0
H370 H 0.99382 0.43161 0.46827 0.0
C371 C 0.95542 0.3423 0.2792 0.0
C372 C 0.98975 0.36775 0.39499 0.0
H373 H 0.98412 0.38001 0.56653 0.0
C374 C 0.00232 0.38173 0.37509 0.0
C375 C 0.98401 0.36651 0.4659 0.0
C376 C 0.97196 0.35081 0.49231 0.0
C377 C 0.00829 0.39525 0.42319 0.0
C378 C 0.00104 0.39508 0.49231 0.0
C379 C 0.98948 0.38036 0.51331 0.0
C380 C 0.00371 0.41081 0.54164 0.0
C381 C 0.02213 0.40966 0.39904 0.0
C382 C 0.00916 0.40761 0.61151 0.0
C383 C 0.00898 0.42212 0.66042 0.0
C384 C 0.0034 0.44002 0.64004 0.0
C385 C 0.99868 0.44336 0.56963 0.0
C386 C 0.99864 0.42886 0.52111 0.0
H387 H 0.03152 0.40387 0.35819 0.0
H388 H 0.01457 0.42153 0.37519 0.0
H389 H 0.03072 0.41491 0.44324 0.0
H390 H 0.01302 0.39378 0.62866 0.0
H391 H 0.01269 0.41923 0.71445 0.0
H392 H 0.85067 0.98447 0.11378 0.0
H393 H 0.877 0.99806 0.05018 0.0
H394 H 0.87205 0.95567 0.89125 0.0
H395 H 0.84577 0.94203 0.95412 0.0
H396 H 0.9107 0.97938 0.01703 0.0
H397 H 0.87469 0.00471 0.778 0.0
H398 H 0.8625 0.99923 0.85838 0.0
H399 H 0.86949 0.98096 0.79964 0.0
C400 C 0.85508 0.97815 0.06495 0.0
C401 C 0.84614 0.96217 0.03895 0.0
C402 C 0.87011 0.98593 0.02876 0.0
C403 C 0.87627 0.97801 0.96562 0.0
C404 C 0.86727 0.96219 0.93923 0.0
H405 H 0.9802 0.97466 0.75587 0.0
H406 H 0.95213 0.9701 0.82586 0.0
C407 C 0.85233 0.95434 0.9755 0.0
C408 C 0.89284 0.98549 0.92925 0.0
H409 H 0.90784 0.00201 0.77106 0.0
C410 C 0.91006 0.98458 0.9636 0.0
C411 C 0.8919 0.99247 0.85993 0.0
C412 C 0.87363 0.9946 0.82194 0.0
C413 C 0.92654 0.9896 0.92912 0.0
C414 C 0.92573 0.9955 0.85833 0.0
C415 C 0.90841 0.99733 0.82517 0.0
C416 C 0.94278 0.99859 0.8165 0.0
C417 C 0.94472 0.98828 0.96838 0.0
C418 C 0.94655 0.01602 0.78643 0.0
C419 C 0.96263 0.01866 0.74616 0.0
C420 C 0.97502 0.00385 0.73527 0.0
C421 C 0.97101 0.98638 0.76443 0.0
C422 C 0.95503 0.98377 0.80459 0.0
H423 H 0.94256 0.98893 0.0261 0.0
H424 H 0.95146 0.97478 0.9561 0.0
H425 H 0.95436 -0.00039 0.95268 0.0
H426 H 0.93713 0.02758 0.79453 0.0
H427 H 0.9654 0.03224 0.7239 0.0
H428 H 0.58567 0.85414 0.98599 0.0
H429 H 0.56831 0.87893 0.92743 0.0
H430 H 0.52244 0.87063 0.06975 0.0
H431 H 0.5397 0.84579 0.12892 0.0
H432 H 0.51312 0.87146 0.92158 0.0
H433 H 0.55599 0.9319 0.00422 0.0
H434 H 0.56885 0.91263 0.96884 0.0
H435 H 0.55642 0.90988 0.04998 0.0
C436 C 0.57193 0.85764 0.00515 0.0
C437 C 0.56407 0.84801 0.06216 0.0
C438 C 0.56209 0.87188 0.97188 0.0
C439 C 0.54422 0.87672 0.99491 0.0
C440 C 0.53628 0.86714 0.05162 0.0
H441 H 0.47984 0.97109 0.83485 0.0
H442 H 0.49299 0.94735 0.91326 0.0
C443 C 0.54617 0.85297 0.0853 0.0
C444 C 0.53351 0.89121 0.95746 0.0
H445 H 0.53404 0.93718 0.91275 0.0
C446 C 0.51756 0.88587 0.92018 0.0
C447 C 0.53931 0.90999 0.95627 0.0
C448 C 0.55599 0.91655 0.99741 0.0
C449 C 0.50762 0.89873 0.87947 0.0
C450 C 0.51384 0.91733 0.87615 0.0
C451 C 0.52939 0.92285 0.91539 0.0
C452 C 0.50499 0.93106 0.82924 0.0
C453 C 0.49068 0.89237 0.83952 0.0
C454 C 0.50735 0.92962 0.75637 0.0
C455 C 0.50015 0.94325 0.71187 0.0
C456 C 0.49051 0.95855 0.73966 0.0
C457 C 0.48758 0.95962 0.81243 0.0
C458 C 0.49497 0.94607 0.85708 0.0
H459 H 0.48559 0.87865 0.85829 0.0
H460 H 0.47928 0.9027 0.8444 0.0
H461 H 0.49422 0.8911 0.783 0.0
H462 H 0.51518 0.91818 0.73412 0.0
H463 H 0.50258 0.94209 0.6559 0.0
H464 H 0.63653 0.58908 0.12997 0.0
H465 H 0.60902 0.57752 0.06811 0.0
H466 H 0.63765 0.526 0.02494 0.0
H467 H 0.66452 0.537 0.09135 0.0
H468 H 0.60308 0.56963 0.94281 0.0
H469 H 0.59053 0.50465 0.08821 0.0
H470 H 0.60709 0.52169 0.11816 0.0
H471 H 0.61371 0.50439 0.05415 0.0
C472 C 0.63678 0.57519 0.10793 0.0
C473 C 0.65251 0.56384 0.11579 0.0
C474 C 0.62109 0.56859 0.07258 0.0
C475 C 0.621 0.55067 0.04306 0.0
C476 C 0.63697 0.53953 0.04958 0.0
H477 H 0.5551 0.51948 0.68569 0.0
H478 H 0.57807 0.53132 0.76874 0.0
C479 C 0.65243 0.54591 0.08685 0.0
C480 C 0.60471 0.54407 0.00188 0.0
H481 H 0.57743 0.5061 0.97135 0.0
C482 C 0.59731 0.55583 0.94997 0.0
C483 C 0.5967 0.52627 0.01202 0.0
C484 C 0.6023 0.51367 0.07178 0.0
C485 C 0.58274 0.55002 0.90626 0.0
C486 C 0.57604 0.53157 0.91188 0.0
C487 C 0.58284 0.52009 0.96573 0.0
C488 C 0.56233 0.52377 0.86155 0.0
C489 C 0.57457 0.56388 0.8553 0.0
C490 C 0.54639 0.51449 0.88583 0.0
C491 C 0.5336 0.50706 0.83823 0.0
C492 C 0.53632 0.50918 0.76573 0.0
C493 C 0.55251 0.51794 0.74142 0.0
C494 C 0.56552 0.52495 0.78889 0.0
H495 H 0.57586 0.5783 0.87564 0.0
H496 H 0.58234 0.56321 0.80502 0.0
H497 H 0.55966 0.56103 0.84476 0.0
H498 H 0.54376 0.51309 0.94159 0.0
H499 H 0.52161 0.49969 0.85813 0.0
H500 H 0.98026 0.65909 0.16424 0.0
H501 H 0.99422 0.63424 0.09405 0.0
H502 H 0.94287 0.62798 0.9796 0.0
H503 H 0.92893 0.65302 0.04837 0.0
H504 H 0.98397 0.59785 0.08051 0.0
H505 H 0.98059 0.63319 0.82245 0.0
H506 H 0.97703 0.64535 0.90423 0.0
H507 H 0.95841 0.63217 0.86538 0.0
C508 C 0.97197 0.65248 0.12391 0.0
C509 C 0.95353 0.65811 0.11155 0.0
C510 C 0.97996 0.63829 0.0839 0.0
C511 C 0.96969 0.6295 0.0308 0.0
C512 C 0.9512 0.63489 0.01912 0.0
H513 H 0.98535 0.52286 0.83664 0.0
H514 H 0.97726 0.5489 0.91309 0.0
C515 C 0.94322 0.64913 0.05881 0.0
C516 C 0.97809 0.61435 0.98874 0.0
H517 H 0.98639 0.60047 0.82036 0.0
C518 C 0.98468 0.59847 0.02364 0.0
C519 C 0.97931 0.61534 0.9147 0.0
C520 C 0.97364 0.63251 0.87451 0.0
C521 C 0.99183 0.58325 0.98627 0.0
C522 C 0.99202 0.58381 0.912 0.0
C523 C 0.98606 0.59997 0.87729 0.0
C524 C 0.99777 0.56763 0.86899 0.0
C525 C 0.99918 0.56678 0.02677 0.0
C526 C 0.01169 0.56956 0.81776 0.0
C527 C 0.01616 0.55468 0.77365 0.0
C528 C 0.00682 0.53764 0.78037 0.0
C529 C 0.99305 0.53567 0.8319 0.0
C530 C 0.98846 0.55057 0.87557 0.0
H531 H 0.00357 0.57083 0.08057 0.0
H532 H 0.98802 0.55622 0.03189 0.0
H533 H 0.01119 0.56029 0.99952 0.0
H534 H 0.01895 0.58266 0.81137 0.0
H535 H 0.02677 0.55656 0.73389 0.0
H536 H 0.94526 0.22429 0.12434 0.0
H537 H 0.95345 0.19276 0.1634 0.0
H538 H 0.00468 0.21366 0.2506 0.0
H539 H 0.99632 0.24513 0.21371 0.0
H540 H 0.98547 0.17131 0.12817 0.0
H541 H 0.98113 0.18518 0.41438 0.0
H542 H 0.97132 0.20067 0.34964 0.0
H543 H 0.99586 0.20105 0.36744 0.0
C544 C 0.95818 0.22212 0.15241 0.0
C545 C 0.97032 0.23705 0.16508 0.0
C546 C 0.96289 0.20414 0.17422 0.0
C547 C 0.97963 0.20091 0.21016 0.0
C548 C 0.99163 0.21587 0.22354 0.0
H549 H 0.03577 0.10486 0.38439 0.0
H550 H 0.02795 0.13526 0.3343 0.0
C551 C 0.98694 0.2338 0.20172 0.0
C552 C 0.98463 0.18193 0.23379 0.0
H553 H 0.99443 0.15636 0.38023 0.0
C554 C 0.98735 0.16799 0.18322 0.0
C555 C 0.98705 0.17767 0.30573 0.0
C556 C 0.98353 0.19187 0.36256 0.0
C557 C 0.99279 0.14995 0.20275 0.0
C558 C 0.99534 0.14578 0.27462 0.0
C559 C 0.99255 0.15968 0.32512 0.0
C560 C 0.00059 0.12698 0.29911 0.0
C561 C 0.99616 0.13555 0.1466 0.0
C562 C 0.98777 0.11232 0.29577 0.0
C563 C 0.99215 0.09499 0.3247 0.0
C564 C 0.00946 0.09203 0.35719 0.0
C565 C 0.02241 0.10666 0.35907 0.0
C566 C 0.01795 0.12403 0.33071 0.0
H567 H 0.99654 0.14177 0.09322 0.0
H568 H 0.00948 0.12819 0.15629 0.0
H569 H 0.98485 0.12507 0.1481 0.0
H570 H 0.97421 0.11442 0.27231 0.0
H571 H 0.98195 0.08393 0.32203 0.0
H572 H 0.26595 0.98686 0.9872 0.0
H573 H 0.29731 0.99231 0.03379 0.0
H574 H 0.28571 0.95487 0.20551 0.0
H575 H 0.25459 0.94915 0.15789 0.0
H576 H 0.3067 0.00757 0.15593 0.0
H577 H 0.33583 0.93656 0.14581 0.0
H578 H 0.31463 0.94281 0.10102 0.0
H579 H 0.31429 0.93703 0.19309 0.0
C580 C 0.27021 0.9798 0.03477 0.0
C581 C 0.25791 0.96781 0.06966 0.0
C582 C 0.2881 0.98283 0.06114 0.0
C583 C 0.29397 0.97385 0.12277 0.0
C584 C 0.2817 0.9616 0.15696 0.0
H585 H 0.38318 0.98 0.42081 0.0
H586 H 0.35453 0.97468 0.35462 0.0
C587 C 0.2639 0.95842 0.13009 0.0
C588 C 0.31239 0.97818 0.15391 0.0
H589 H 0.3515 0.95815 0.22177 0.0
C590 C 0.31661 0.9968 0.1695 0.0
C591 C 0.32539 0.96413 0.17116 0.0
C592 C 0.32239 0.94405 0.15118 0.0
C593 C 0.33304 0.00165 0.20485 0.0
C594 C 0.34562 0.98749 0.22485 0.0
C595 C 0.34169 0.96895 0.20729 0.0
C596 C 0.36274 0.99147 0.26556 0.0
C597 C 0.33646 0.02181 0.22255 0.0
C598 C 0.37684 0.0027 0.23747 0.0
C599 C 0.39316 0.00593 0.27551 0.0
C600 C 0.39577 0.99784 0.34217 0.0
C601 C 0.38154 0.98666 0.37019 0.0
C602 C 0.36522 0.98348 0.33216 0.0
H603 H 0.32358 0.03026 0.21825 0.0
H604 H 0.34211 0.02327 0.27652 0.0
H605 H 0.34681 0.02761 0.18528 0.0
H606 H 0.37535 0.00877 0.18571 0.0
H607 H 0.40374 0.01475 0.25259 0.0
H608 H 0.55511 0.2615 0.26826 0.0
H609 H 0.54642 0.29234 0.31172 0.0
H610 H 0.53421 0.30983 0.09977 0.0
H611 H 0.54222 0.27875 0.05682 0.0
H612 H 0.5605 0.32523 0.28862 0.0
H613 H 0.48766 0.32611 0.19255 0.0
H614 H 0.50178 0.30541 0.1896 0.0
H615 H 0.50442 0.32323 0.12383 0.0
C616 C 0.55045 0.27194 0.23121 0.0
C617 C 0.54892 0.26773 0.15956 0.0
C618 C 0.54549 0.28954 0.25594 0.0
C619 C 0.5392 0.30332 0.20931 0.0
C620 C 0.53834 0.29928 0.13718 0.0
H621 H 0.51126 0.41978 0.28014 0.0
H622 H 0.51949 0.38985 0.22772 0.0
C623 C 0.54298 0.28156 0.11262 0.0
C624 C 0.5341 0.32201 0.23646 0.0
H625 H 0.49915 0.35419 0.24173 0.0
C626 C 0.54704 0.33149 0.27857 0.0
C627 C 0.51657 0.33028 0.223 0.0
C628 C 0.50174 0.32065 0.18036 0.0
C629 C 0.54293 0.34892 0.30771 0.0
C630 C 0.5254 0.35705 0.29469 0.0
C631 C 0.51257 0.34782 0.25163 0.0
C632 C 0.52004 0.37502 0.32644 0.0
C633 C 0.55741 0.35861 0.35182 0.0
C634 C 0.51734 0.37645 0.39916 0.0
C635 C 0.51241 0.39346 0.42929 0.0
C636 C 0.51011 0.40937 0.38718 0.0
C637 C 0.51266 0.40778 0.3141 0.0
C638 C 0.51748 0.39073 0.28401 0.0
H639 H 0.57143 0.35239 0.34488 0.0
H640 H 0.55812 0.37362 0.3384 0.0
H641 H 0.55353 0.35744 0.40805 0.0
H642 H 0.51898 0.36436 0.43257 0.0
H643 H 0.51023 0.39408 0.48549 0.0
H644 H 0.24838 0.52302 0.20771 0.0
H645 H 0.21753 0.51706 0.25688 0.0
H646 H 0.19785 0.56896 0.17139 0.0
H647 H 0.22866 0.57473 0.11982 0.0
H648 H 0.19697 0.54209 0.35255 0.0
H649 H 0.17045 0.51769 0.11119 0.0
H650 H 0.18583 0.53719 0.10327 0.0
H651 H 0.16099 0.5405 0.10147 0.0
C652 C 0.23737 0.53295 0.19794 0.0
C653 C 0.24071 0.54902 0.15798 0.0
C654 C 0.21985 0.52964 0.22682 0.0
C655 C 0.2054 0.54243 0.21674 0.0
C656 C 0.20881 0.55883 0.17886 0.0
H657 H 0.09992 0.5414 0.44561 0.0
H658 H 0.12976 0.55057 0.39432 0.0
C659 C 0.22637 0.56211 0.14969 0.0
C660 C 0.18685 0.53864 0.24704 0.0
H661 H 0.14252 0.52602 0.20473 0.0
C662 C 0.18499 0.53872 0.32037 0.0
C663 C 0.17136 0.53402 0.20476 0.0
C664 C 0.17247 0.53246 0.12591 0.0
C665 C 0.16805 0.53419 0.35274 0.0
C666 C 0.1525 0.52974 0.31046 0.0
C667 C 0.15438 0.52969 0.23711 0.0
C668 C 0.13435 0.52437 0.3413 0.0
C669 C 0.16711 0.53362 0.43188 0.0
C670 C 0.12684 0.50676 0.32719 0.0
C671 C 0.10979 0.5015 0.35623 0.0
C672 C 0.09988 0.51379 0.39978 0.0
C673 C 0.10737 0.5315 0.41329 0.0
C674 C 0.12441 0.53677 0.38404 0.0
H675 H 0.18117 0.53288 0.45589 0.0
H676 H 0.16025 0.54645 0.45123 0.0
H677 H 0.15887 0.5215 0.45015 0.0
H678 H 0.13428 0.49699 0.29426 0.0
H679 H 0.10451 0.4877 0.34535 0.0
H680 H 0.98683 0.75343 0.18408 0.0
H681 H 0.99555 0.78515 0.15168 0.0
H682 H 0.93759 0.80029 0.14044 0.0
H683 H 0.92885 0.76873 0.17647 0.0
H684 H 0.98824 0.80427 0.03505 0.0
H685 H 0.95879 0.84092 0.26427 0.0
H686 H 0.95908 0.81589 0.25808 0.0
H687 H 0.941 0.82903 0.21581 0.0
C688 C 0.97597 0.76365 0.17648 0.0
C689 C 0.95719 0.75882 0.18516 0.0
C690 C 0.98096 0.78171 0.1571 0.0
C691 C 0.96724 0.79523 0.14519 0.0
C692 C 0.94843 0.79024 0.15124 0.0
H693 H 0.9825 0.89672 0.90844 0.0
H694 H 0.97396 0.86593 0.95162 0.0
C695 C 0.94344 0.77218 0.1711 0.0
C696 C 0.97269 0.81432 0.1239 0.0
H697 H 0.96781 0.86021 0.16638 0.0
C698 C 0.98384 0.81649 0.06397 0.0
C699 C 0.96719 0.83027 0.16228 0.0
C700 C 0.95602 0.82891 0.2291 0.0
C701 C 0.9893 0.83415 0.04043 0.0
C702 C 0.98309 0.85011 0.07692 0.0
C703 C 0.97235 0.84796 0.13791 0.0
C704 C 0.98755 0.86916 0.05226 0.0
C705 C 0.00189 0.8355 0.97721 0.0
C706 C 0.9974 0.88148 0.09557 0.0
C707 C 0.00207 0.89924 0.07142 0.0
C708 C 0.99688 0.90505 0.00358 0.0
C709 C 0.98661 0.89279 0.96109 0.0
C710 C 0.98191 0.87507 0.98535 0.0
H711 H 0.00962 0.82234 0.96825 0.0
H712 H 0.99336 0.83829 0.92981 0.0
H713 H 0.01208 0.84699 0.98319 0.0
H714 H 0.00171 0.87725 0.14771 0.0
H715 H 0.00971 0.90844 0.10595 0.0
H716 H 0.73745 0.93202 0.07096 0.0
H717 H 0.70532 0.93908 0.03609 0.0
H718 H 0.70851 0.99157 0.14456 0.0
H719 H 0.74063 0.98465 0.17926 0.0
H720 H 0.67416 0.95226 0.14909 0.0
H721 H 0.69077 0.99909 0.92436 0.0
H722 H 0.70633 0.98069 0.95123 0.0
H723 H 0.70402 0.0011 0.00439 0.0
C724 C 0.73129 0.94508 0.08707 0.0
C725 C 0.74134 0.95766 0.12876 0.0
C726 C 0.71298 0.94905 0.06741 0.0
C727 C 0.70464 0.96578 0.08811 0.0
C728 C 0.71477 0.97856 0.1284 0.0
H729 H 0.59945 0.01796 0.98829 0.0
H730 H 0.631 0.01081 0.0274 0.0
C731 C 0.733 0.97453 0.14857 0.0
C732 C 0.68525 0.96988 0.068 0.0
H733 H 0.65915 0.99474 0.95171 0.0
C734 C 0.67079 0.96151 0.10592 0.0
C735 C 0.68108 0.98207 0.01215 0.0
C736 C 0.69629 0.99128 0.97018 0.0
C737 C 0.65211 0.96514 0.08955 0.0
C738 C 0.64788 0.97708 0.03262 0.0
C739 C 0.66242 0.98552 0.99507 0.0
C740 C 0.62848 0.98115 0.01123 0.0
C741 C 0.63709 0.95652 0.13433 0.0
C742 C 0.61661 0.96684 0.98867 0.0
C743 C 0.59849 0.97086 0.96675 0.0
C744 C 0.59194 0.9893 0.96661 0.0
C745 C 0.60394 0.00358 0.98885 0.0
C746 C 0.62202 -0.00046 0.01078 0.0
H747 H 0.64254 0.95204 0.18626 0.0
H748 H 0.62546 0.96642 0.14291 0.0
H749 H 0.63149 0.94407 0.10726 0.0
H750 H 0.62143 0.95258 0.9873 0.0
H751 H 0.58958 0.95952 0.95042 0.0
H752 H 0.5393 0.74818 0.18788 0.0
H753 H 0.52903 0.71677 0.15696 0.0
H754 H 0.58158 0.70659 0.05495 0.0
H755 H 0.5921 0.73789 0.08735 0.0
H756 H 0.52609 0.70137 0.02078 0.0
H757 H 0.5748 0.66167 0.18983 0.0
H758 H 0.57083 0.6863 0.20034 0.0
H759 H 0.58589 0.67803 0.13197 0.0
C760 C 0.54881 0.7391 0.16023 0.0
C761 C 0.56668 0.74527 0.14163 0.0
C762 C 0.54285 0.72125 0.14193 0.0
C763 C 0.55466 0.70926 0.10472 0.0
C764 C 0.57239 0.71551 0.08486 0.0
H765 H 0.5227 0.60982 0.87533 0.0
H766 H 0.5347 0.64021 0.91099 0.0
C767 C 0.57833 0.7334 0.10293 0.0
C768 C 0.54818 0.69043 0.08482 0.0
H769 H 0.55705 0.64416 0.10757 0.0
C770 C 0.53283 0.68885 0.03978 0.0
C771 C 0.55687 0.67414 0.11045 0.0
C772 C 0.57291 0.67502 0.16136 0.0
C773 C 0.5261 0.67141 0.01872 0.0
C774 C 0.53513 0.65512 0.04266 0.0
C775 C 0.55028 0.65668 0.0887 0.0
C776 C 0.52879 0.63633 0.02142 0.0
C777 C 0.50918 0.67054 0.97195 0.0
C778 C 0.52206 0.62385 0.072 0.0
C779 C 0.51535 0.6064 0.05191 0.0
C780 C 0.51536 0.60106 0.98082 0.0
C781 C 0.52261 0.61343 0.93054 0.0
C782 C 0.52929 0.63089 0.9507 0.0
H783 H 0.50131 0.68383 0.97232 0.0
H784 H 0.51365 0.66776 0.91718 0.0
H785 H 0.49973 0.65914 0.98847 0.0
H786 H 0.5217 0.62774 0.12694 0.0
H787 H 0.51014 0.59709 0.09206 0.0
H788 H 0.75519 0.53028 0.19827 0.0
H789 H 0.78627 0.52147 0.15849 0.0
H790 H 0.79493 0.57696 0.07895 0.0
H791 H 0.76403 0.58607 0.12163 0.0
H792 H 0.80111 0.52137 0.02728 0.0
H793 H 0.84076 0.56866 0.20149 0.0
H794 H 0.81612 0.56481 0.21126 0.0
H795 H 0.82459 0.58059 0.14544 0.0
C796 C 0.76388 0.54072 0.17376 0.0
C797 C 0.75746 0.55902 0.16516 0.0
C798 C 0.78154 0.5356 0.15021 0.0
C799 C 0.79308 0.54865 0.11706 0.0
C800 C 0.78643 0.56679 0.10594 0.0
H801 H 0.89211 0.51792 0.87875 0.0
H802 H 0.86166 0.52954 0.91484 0.0
C803 C 0.76874 0.57193 0.12974 0.0
C804 C 0.81194 0.54309 0.0934 0.0
H805 H 0.85815 0.55254 0.11425 0.0
C806 C 0.81359 0.52819 0.04622 0.0
C807 C 0.82822 0.55181 0.11904 0.0
C808 C 0.82741 0.56723 0.17264 0.0
C809 C 0.83105 0.52183 0.02365 0.0
C810 C 0.84731 0.53091 0.04769 0.0
C811 C 0.84567 0.54573 0.09526 0.0
C812 C 0.86617 0.52485 0.0258 0.0
C813 C 0.83191 0.50513 0.97579 0.0
C814 C 0.87912 0.51905 0.07636 0.0
C815 C 0.89669 0.51272 0.05603 0.0
C816 C 0.90169 0.51206 0.98461 0.0
C817 C 0.88882 0.51834 0.93422 0.0
C818 C 0.87129 0.52476 0.95467 0.0
H819 H 0.81886 0.49687 0.97779 0.0
H820 H 0.83391 0.50989 0.92088 0.0
H821 H 0.84372 0.49591 0.98991 0.0
H822 H 0.87553 0.51916 0.13162 0.0
H823 H 0.90636 0.50835 0.09636 0.0
H824 H 0.03958 0.20005 0.03553 0.0
H825 H 0.04657 0.16864 0.99278 0.0
H826 H 0.98841 0.15982 0.94907 0.0
H827 H 0.98136 0.19112 0.99005 0.0
H828 H 0.03387 0.13341 0.03286 0.0
H829 H 0.01312 0.15007 0.75982 0.0
H830 H 0.01671 0.16776 0.82557 0.0
H831 H 0.99518 0.15502 0.82257 0.0
C832 C 0.0283 0.1914 0.01678 0.0
C833 C 0.00997 0.19817 0.01488 0.0
C834 C 0.03231 0.17347 0.99262 0.0
C835 C 0.01805 0.16212 0.96635 0.0
C836 C -0.00033 0.16857 0.96735 0.0
H837 H 0.01456 0.04443 0.88402 0.0
H838 H 0.01414 0.07528 0.93749 0.0
C839 C 0.99568 0.18646 0.9909 0.0
C840 C 0.02229 0.14368 0.93609 0.0
H841 H 0.01693 0.11798 0.7872 0.0
C842 C 0.03038 0.13003 0.97895 0.0
C843 C 0.01801 0.13946 0.86542 0.0
C844 C 0.01045 0.1539 0.81544 0.0
C845 C 0.03375 0.11201 0.95349 0.0
C846 C 0.02845 0.1075 0.88392 0.0
C847 C 0.02088 0.12137 0.84065 0.0
C848 C 0.0301 0.08844 0.85481 0.0
C849 C 0.04309 0.09813 0.00124 0.0
C850 C 0.03885 0.08561 0.78976 0.0
C851 C 0.0387 0.06809 0.75823 0.0
C852 C 0.02994 0.05302 0.79155 0.0
C853 C 0.0216 0.05574 0.85747 0.0
C854 C 0.02149 0.07335 0.88842 0.0
H855 H 0.05178 0.10519 0.04143 0.0
H856 H 0.0323 0.09 0.02937 0.0
H857 H 0.052 0.08835 0.97122 0.0
H858 H 0.04552 0.09706 0.76268 0.0
H859 H 0.04532 0.06639 0.70755 0.0
H860 H 0.28677 0.0341 0.85196 0.0
H861 H 0.31979 0.03755 0.82698 0.0
H862 H 0.33167 0.03877 0.04898 0.0
H863 H 0.29854 0.03486 0.07462 0.0
H864 H 0.3468 0.06288 0.85936 0.0
H865 H 0.36189 0.99452 0.98467 0.0
H866 H 0.33847 0.00242 0.96905 0.0
H867 H 0.35172 0.01178 0.0408 0.0
C868 C 0.29633 0.03537 0.89562 0.0
C869 C 0.29006 0.0339 0.96527 0.0
C870 C 0.31523 0.03736 0.88121 0.0
C871 C 0.32822 0.03798 0.93606 0.0
C872 C 0.32191 0.03786 0.00584 0.0
H873 H 0.44823 0.02384 0.88237 0.0
H874 H 0.41805 0.03116 0.93392 0.0
C875 C 0.30297 0.03576 0.02037 0.0
C876 C 0.3483 0.03748 0.91901 0.0
H877 H 0.38658 0.00952 0.92751 0.0
C878 C 0.35557 0.05132 0.87486 0.0
C879 C 0.35973 0.0224 0.93959 0.0
C880 C 0.35259 0.00684 0.98569 0.0
C881 C 0.3738 0.05023 0.84896 0.0
C882 C 0.3849 0.03472 0.86683 0.0
C883 C 0.37795 0.02133 0.9136 0.0
C884 C 0.40339 0.03155 0.83482 0.0
C885 C 0.38094 0.06559 0.80223 0.0
C886 C 0.40514 0.02926 0.76189 0.0
C887 C 0.42239 0.02506 0.73205 0.0
C888 C 0.43819 0.02291 0.77477 0.0
C889 C 0.43638 0.02536 0.8478 0.0
C890 C 0.41914 0.02958 0.8775 0.0
H891 H 0.3732 0.07876 0.81093 0.0
H892 H 0.39597 0.06817 0.81131 0.0
H893 H 0.37903 0.06151 0.74651 0.0
H894 H 0.39306 0.03031 0.72814 0.0
H895 H 0.42325 0.02319 0.67572 0.0
H896 H 0.50487 0.30251 0.84375 0.0
H897 H 0.49425 0.33394 0.81667 0.0
H898 H 0.46901 0.33803 0.02143 0.0
H899 H 0.4795 0.30645 0.04909 0.0
H900 H 0.45699 0.35121 0.82244 0.0
H901 H 0.50824 0.38107 0.01103 0.0
H902 H 0.50998 0.35744 0.97979 0.0
H903 H 0.49253 0.36353 0.04297 0.0
C904 C 0.49685 0.30996 0.88278 0.0
C905 C 0.49328 0.30209 0.94899 0.0
C906 C 0.49076 0.3279 0.86712 0.0
C907 C 0.48108 0.33833 0.91741 0.0
C908 C 0.47666 0.33023 0.98229 0.0
H909 H 0.46858 0.45928 0.88507 0.0
H910 H 0.46507 0.42749 0.929 0.0
C911 C 0.48266 0.3122 0.99791 0.0
C912 C 0.47685 0.35806 0.90289 0.0
H913 H 0.49185 0.40196 0.93985 0.0
C914 C 0.46439 0.36236 0.84867 0.0
C915 C 0.48645 0.37252 0.93772 0.0
C916 C 0.50014 0.36854 0.99593 0.0
C917 C 0.46168 0.3808 0.82675 0.0
C918 C 0.47213 0.39517 0.85868 0.0
C919 C 0.48391 0.39092 0.91525 0.0
C920 C 0.47237 0.41439 0.83051 0.0
C921 C 0.4478 0.38463 0.7692 0.0
C922 C 0.47764 0.41759 0.76059 0.0
C923 C 0.47957 0.43569 0.73523 0.0
C924 C 0.47655 0.45102 0.77963 0.0
C925 C 0.47105 0.4478 0.84948 0.0
C926 C 0.469 0.42965 0.87469 0.0
H927 H 0.4366 0.37398 0.76867 0.0
H928 H 0.44136 0.39857 0.77516 0.0
H929 H 0.45496 0.38405 0.71763 0.0
H930 H 0.48086 0.40607 0.72606 0.0
H931 H 0.48396 0.43761 0.6813 0.0
H932 H 0.19331 0.52507 0.95251 0.0
H933 H 0.16177 0.51512 0.92431 0.0
H934 H 0.16983 0.46477 0.04328 0.0
H935 H 0.20161 0.47466 0.0724 0.0
H936 H 0.15342 0.46166 0.8973 0.0
H937 H 0.11745 0.51249 0.0704 0.0
H938 H 0.13752 0.521 0.024 0.0
H939 H 0.14022 0.50326 0.08966 0.0
C940 C 0.18845 0.51185 0.97274 0.0
C941 C 0.19993 0.50069 0.01501 0.0
C942 C 0.1704 0.50624 0.95677 0.0
C943 C 0.16347 0.48937 0.98263 0.0
C944 C 0.17496 0.47792 0.02345 0.0
H945 H 0.04413 0.47347 0.91607 0.0
H946 H 0.07464 0.47125 0.97202 0.0
C947 C 0.19308 0.48357 0.03982 0.0
C948 C 0.14428 0.48379 0.96507 0.0
H949 H 0.09945 0.49851 0.98071 0.0
C950 C 0.14154 0.46945 0.91635 0.0
C951 C 0.12884 0.49376 0.99116 0.0
C952 C 0.13102 0.50842 0.04713 0.0
C953 C 0.12377 0.46562 0.88949 0.0
C954 C 0.10854 0.4767 0.91108 0.0
C955 C 0.11116 0.49019 0.96344 0.0
C956 C 0.09016 0.47574 0.87616 0.0
C957 C 0.12157 0.44998 0.83744 0.0
C958 C 0.08876 0.47895 0.80367 0.0
C959 C 0.07138 0.48016 0.77147 0.0
C960 C 0.05501 0.47846 0.81135 0.0
C961 C 0.05645 0.47491 0.8838 0.0
C962 C 0.07387 0.47359 0.91589 0.0
H963 H 0.13228 0.43907 0.84575 0.0
H964 H 0.10759 0.44349 0.8412 0.0
H965 H 0.1234 0.45552 0.78348 0.0
H966 H 0.10111 0.48121 0.77225 0.0
H967 H 0.07083 0.48303 0.71567 0.0
H968 H 0.96455 0.81456 0.39153 0.0
H969 H 0.975 0.84559 0.42452 0.0
H970 H 0.03182 0.82973 0.38424 0.0
H971 H 0.02146 0.79847 0.3509 0.0
H972 H 0.02693 0.84693 0.51268 0.0
H973 H 0.99391 0.8882 0.30162 0.0
H974 H 0.97771 0.87292 0.34415 0.0
H975 H 0.99693 0.86332 0.29582 0.0
C976 C 0.97927 0.81769 0.38893 0.0
C977 C 0.99217 0.80409 0.36827 0.0
C978 C 0.98519 0.83548 0.40738 0.0
C979 C 0.00414 0.84005 0.40548 0.0
C980 C 0.01711 0.8265 0.38531 0.0
H981 H 0.03556 0.95551 0.49854 0.0
H982 H 0.03359 0.9253 0.43983 0.0
C983 C 0.01118 0.80866 0.36657 0.0
C984 C 0.01032 0.8586 0.42952 0.0
H985 H 0.00233 0.90497 0.40678 0.0
C986 C 0.02181 0.85964 0.48889 0.0
C987 C 0.00391 0.87515 0.39759 0.0
C988 C 0.9926 0.87489 0.33082 0.0
C989 C 0.02616 0.87679 0.51975 0.0
C990 C 0.01849 0.89325 0.4912 0.0
C991 C 0.00795 0.8923 0.42928 0.0
C992 C 0.02031 0.9114 0.52723 0.0
C993 C 0.0387 0.87709 0.58323 0.0
C994 C 0.01333 0.91362 0.59551 0.0
C995 C 0.01444 0.9308 0.62922 0.0
C996 C 0.02239 0.94619 0.59496 0.0
C997 C 0.02932 0.94395 0.52637 0.0
C998 C 0.02823 0.92671 0.49273 0.0
H999 H 0.04797 0.86473 0.58446 0.0
H1000 H 0.04742 0.88983 0.58425 0.0
H1001 H 0.03007 0.87682 0.63151 0.0
H1002 H 0.00675 0.9021 0.62246 0.0
H1003 H 0.00885 0.93205 0.68183 0.0
H1004 H 0.69624 0.98822 0.42769 0.0
H1005 H 0.66582 0.9931 0.48215 0.0
H1006 H 0.64129 0.95387 0.3382 0.0
H1007 H 0.67165 0.94872 0.28391 0.0
H1008 H 0.63256 0.00548 0.41855 0.0
H1009 H 0.62503 0.93491 0.53365 0.0
H1010 H 0.64702 0.94388 0.50284 0.0
H1011 H 0.63017 0.93524 0.44132 0.0
C1012 C 0.68439 0.98059 0.4077 0.0
C1013 C 0.68639 0.96799 0.35176 0.0
C1014 C 0.66704 0.98341 0.43885 0.0
C1015 C 0.65141 0.97362 0.41489 0.0
C1016 C 0.65328 0.96127 0.35835 0.0
H1017 H 0.53544 0.99807 0.48619 0.0
H1018 H 0.56626 0.9923 0.43732 0.0
C1019 C 0.67062 0.95843 0.32716 0.0
C1020 C 0.63309 0.97661 0.44826 0.0
H1021 H 0.59849 0.95454 0.53841 0.0
C1022 C 0.62512 0.99438 0.44497 0.0
C1023 C 0.62358 0.96213 0.48342 0.0
C1024 C 0.63192 0.94299 0.49125 0.0
C1025 C 0.60765 0.99798 0.47472 0.0
C1026 C 0.59785 0.98335 0.50777 0.0
C1027 C 0.606 0.96567 0.51244 0.0
C1028 C 0.57906 0.98613 0.53742 0.0
C1029 C 0.5999 0.01746 0.47116 0.0
C1030 C 0.57594 0.98399 0.60968 0.0
C1031 C 0.55829 0.9872 0.63792 0.0
C1032 C 0.54345 0.9925 0.59418 0.0
C1033 C 0.54656 0.99413 0.52151 0.0
C1034 C 0.5642 0.99094 0.49343 0.0
H1035 H 0.61093 0.02788 0.4602 0.0
H1036 H 0.58951 0.01824 0.42821 0.0
H1037 H 0.59285 0.02124 0.52103 0.0
H1038 H 0.58725 0.98016 0.64437 0.0
H1039 H 0.55638 0.98576 0.69404 0.0
H1040 H 0.5669 0.68063 0.33211 0.0
H1041 H 0.55699 0.65205 0.39044 0.0
H1042 H 0.51479 0.68253 0.50277 0.0
H1043 H 0.52442 0.71121 0.44382 0.0
H1044 H 0.55547 0.644 0.53538 0.0
H1045 H 0.48591 0.63977 0.40898 0.0
H1046 H 0.50411 0.65478 0.37666 0.0
H1047 H 0.49091 0.66132 0.45282 0.0
C1048 C 0.55547 0.68128 0.36903 0.0
C1049 C 0.54637 0.69818 0.38299 0.0
C1050 C 0.54987 0.66494 0.40247 0.0
C1051 C 0.53505 0.66517 0.45028 0.0
C1052 C 0.52608 0.68203 0.46516 0.0
H1053 H 0.50783 0.57123 0.7259 0.0
H1054 H 0.51655 0.60208 0.68267 0.0
C1055 C 0.53165 0.6984 0.43164 0.0
C1056 C 0.52904 0.64769 0.48428 0.0
H1057 H 0.4929 0.61707 0.49453 0.0
C1058 C 0.54177 0.63811 0.5268 0.0
C1059 C 0.51121 0.64004 0.47231 0.0
C1060 C 0.49726 0.64938 0.42478 0.0
C1061 C 0.53721 0.62094 0.55731 0.0
C1062 C 0.51934 0.61335 0.54567 0.0
C1063 C 0.50655 0.62303 0.5037 0.0
C1064 C 0.51399 0.59482 0.57279 0.0
C1065 C 0.55174 0.6108 0.59974 0.0
C1066 C 0.5093 0.58067 0.5254 0.0
C1067 C 0.50417 0.56312 0.5498 0.0
C1068 C 0.5036 0.55938 0.62223 0.0
C1069 C 0.50822 0.57362 0.66977 0.0
C1070 C 0.5133 0.59124 0.6452 0.0
H1071 H 0.5659 0.61648 0.59057 0.0
H1072 H 0.54851 0.61228 0.65644 0.0
H1073 H 0.5518 0.59574 0.58689 0.0
H1074 H 0.50972 0.58318 0.46931 0.0
H1075 H 0.5007 0.55249 0.51172 0.0
H1076 H 0.82292 0.56291 0.34141 0.0
H1077 H 0.85353 0.55558 0.38961 0.0
H1078 H 0.83212 0.50417 0.47357 0.0
H1079 H 0.80149 0.51121 0.42454 0.0
H1080 H 0.86254 0.54947 0.53124 0.0
H1081 H 0.87907 0.4881 0.36579 0.0
H1082 H 0.86084 0.50435 0.34392 0.0
H1083 H 0.85701 0.48686 0.40977 0.0
C1084 C 0.82474 0.54996 0.36954 0.0
C1085 C 0.80979 0.53759 0.37886 0.0
C1086 C 0.84222 0.54583 0.39722 0.0
C1087 C 0.8451 0.52925 0.43441 0.0
C1088 C 0.83023 0.51688 0.44395 0.0
H1089 H 0.93575 0.50344 0.71863 0.0
H1090 H 0.90576 0.51131 0.66635 0.0
C1091 C 0.81273 0.52099 0.41623 0.0
C1092 C 0.86352 0.52521 0.46515 0.0
H1093 H 0.89928 0.49407 0.46176 0.0
C1094 C 0.87063 0.5374 0.51598 0.0
C1095 C 0.87407 0.50957 0.44437 0.0
C1096 C 0.86748 0.49654 0.38751 0.0
C1097 C 0.88796 0.53422 0.54751 0.0
C1098 C 0.89825 0.51825 0.52837 0.0
C1099 C 0.89126 0.50621 0.47673 0.0
C1100 C 0.91645 0.51387 0.56053 0.0
C1101 C 0.89522 0.54812 0.60011 0.0
C1102 C 0.93231 0.51237 0.51815 0.0
C1103 C 0.94945 0.50772 0.54768 0.0
C1104 C 0.95102 0.50443 0.62026 0.0
C1105 C 0.93508 0.50601 0.66265 0.0
C1106 C 0.91792 0.51059 0.63294 0.0
H1107 H 0.88816 0.56179 0.59498 0.0
H1108 H 0.89263 0.54284 0.65398 0.0
H1109 H 0.91043 0.55023 0.59382 0.0
H1110 H 0.93143 0.5148 0.46209 0.0
H1111 H 0.96142 0.50664 0.51345 0.0
loop_
_geom_bond_atom_site_label_1
_geom_bond_atom_site_label_2
_geom_bond_distance
_geom_bond_site_symmetry_2
_ccdc_geom_bond_type
O0 Cd1 2.300 . S
O0 C7 1.275 . S
Cd1 O0 2.300 . S
Cd1 O9 2.381 . S
Cd1 O10 2.378 . S
O2 Cd3 2.385 . S
O2 C7 1.255 . S
Cd3 O2 2.385 . S
Cd3 O4 2.317 . S
O4 Cd3 2.317 . S
O4 C5 1.232 . S
C5 O4 1.232 . S
C5 O6 1.218 . S
O6 C5 1.218 . S
C7 O0 1.275 . S
C7 O2 1.255 . S
C8 O9 1.258 . S
C8 O10 1.256 . S
O9 Cd1 2.381 . S
O9 C8 1.258 . S
O10 Cd1 2.378 . S
O10 C8 1.256 . S
O11 Cd12 2.300 1_655 S
O11 C18 1.275 1_655 S
Cd12 O11 2.300 1_455 S
Cd12 O20 2.381 1_455 S
Cd12 O21 2.378 . S
O13 Cd14 2.385 . S
O13 C18 1.255 . S
Cd14 O13 2.385 . S
Cd14 O15 2.317 . S
O15 Cd14 2.317 . S
O15 C16 1.232 . S
C16 O15 1.232 . S
C16 O17 1.218 . S
O17 C16 1.218 . S
C18 O11 1.275 1_455 S
C18 O13 1.255 . S
C19 O20 1.258 1_455 S
C19 O21 1.256 . S
O20 Cd12 2.381 1_655 S
O20 C19 1.258 1_655 S
O21 Cd12 2.378 . S
O21 C19 1.256 . S
O22 Cd23 2.300 1_565 S
O22 C29 1.275 1_565 S
Cd23 O22 2.300 1_545 S
Cd23 O31 2.381 1_545 S
Cd23 O32 2.378 . S
O24 Cd25 2.385 . S
O24 C29 1.255 . S
Cd25 O24 2.385 . S
Cd25 O26 2.317 . S
O26 Cd25 2.317 . S
O26 C27 1.232 . S
C27 O26 1.232 . S
C27 O28 1.218 . S
O28 C27 1.218 . S
C29 O22 1.275 1_545 S
C29 O24 1.255 . S
C30 O31 1.258 1_545 S
C30 O32 1.256 . S
O31 Cd23 2.381 1_565 S
O31 C30 1.258 1_565 S
O32 Cd23 2.378 . S
O32 C30 1.256 . S
O33 Cd34 2.300 . S
O33 C40 1.275 . S
Cd34 O33 2.300 . S
Cd34 O42 2.381 . S
Cd34 O43 2.378 . S
O35 Cd36 2.385 . S
O35 C40 1.255 . S
Cd36 O35 2.385 . S
Cd36 O37 2.317 . S
O37 Cd36 2.317 . S
O37 C38 1.232 . S
C38 O37 1.232 . S
C38 O39 1.218 . S
O39 C38 1.218 . S
C40 O33 1.275 . S
C40 O35 1.255 . S
C41 O42 1.258 . S
C41 O43 1.256 . S
O42 Cd34 2.381 . S
O42 C41 1.258 . S
O43 Cd34 2.378 . S
O43 C41 1.256 . S
O44 Cd45 2.300 . S
O44 C51 1.275 . S
Cd45 O44 2.300 . S
Cd45 O53 2.381 . S
Cd45 O54 2.378 . S
O46 Cd47 2.385 1_554 S
O46 C51 1.255 . S
Cd47 O46 2.385 1_556 S
Cd47 O48 2.317 . S
O48 Cd47 2.317 . S
O48 C49 1.232 . S
C49 O48 1.232 . S
C49 O50 1.218 . S
O50 C49 1.218 . S
C51 O44 1.275 . S
C51 O46 1.255 . S
C52 O53 1.258 . S
C52 O54 1.256 . S
O53 Cd45 2.381 . S
O53 C52 1.258 . S
O54 Cd45 2.378 . S
O54 C52 1.256 . S
O55 Cd56 2.300 . S
O55 C62 1.275 . S
Cd56 O55 2.300 . S
Cd56 O64 2.381 . S
Cd56 O65 2.378 . S
O57 Cd58 2.385 1_554 S
O57 C62 1.255 . S
Cd58 O57 2.385 1_556 S
Cd58 O59 2.317 . S
O59 Cd58 2.317 . S
O59 C60 1.232 . S
C60 O59 1.232 . S
C60 O61 1.218 . S
O61 C60 1.218 . S
C62 O55 1.275 . S
C62 O57 1.255 . S
C63 O64 1.258 . S
C63 O65 1.256 . S
O64 Cd56 2.381 . S
O64 C63 1.258 . S
O65 Cd56 2.378 . S
O65 C63 1.256 . S
O66 Cd67 2.300 . S
O66 C73 1.275 . S
Cd67 O66 2.300 . S
Cd67 O75 2.381 . S
Cd67 O76 2.378 . S
O68 Cd69 2.385 1_554 S
O68 C73 1.255 . S
Cd69 O68 2.385 1_556 S
Cd69 O70 2.317 . S
O70 Cd69 2.317 . S
O70 C71 1.232 . S
C71 O70 1.232 . S
C71 O72 1.218 . S
O72 C71 1.218 . S
C73 O66 1.275 . S
C73 O68 1.255 . S
C74 O75 1.258 . S
C74 O76 1.256 . S
O75 Cd67 2.381 . S
O75 C74 1.258 . S
O76 Cd67 2.378 . S
O76 C74 1.256 . S
O77 Cd78 2.300 . S
O77 C84 1.275 . S
Cd78 O77 2.300 . S
Cd78 O86 2.381 . S
Cd78 O87 2.378 . S
O79 Cd80 2.385 1_554 S
O79 C84 1.255 . S
Cd80 O79 2.385 1_556 S
Cd80 O81 2.317 . S
O81 Cd80 2.317 . S
O81 C82 1.232 . S
C82 O81 1.232 . S
C82 O83 1.218 . S
O83 C82 1.218 . S
C84 O77 1.275 . S
C84 O79 1.255 . S
C85 O86 1.258 . S
C85 O87 1.256 . S
O86 Cd78 2.381 . S
O86 C85 1.258 . S
O87 Cd78 2.378 . S
O87 C85 1.256 . S
Ho88 C91 2.811 . S
Ho88 O108 2.322 . S
Ho88 O110 2.378 . S
Ho88 O111 2.524 . S
Ho88 O112 2.381 . S
Ho88 O113 2.669 1_565 S
Ho88 O115 2.346 1_565 S
Ho88 O119 2.315 1_455 S
Ho89 C100 2.811 . S
Ho89 O109 2.346 1_545 S
Ho89 O113 2.305 1_655 S
Ho89 O114 2.322 . S
Ho89 O116 2.378 . S
Ho89 O117 2.524 1_655 S
Ho89 O118 2.381 . S
Ho89 O119 2.649 1_545 S
C90 O108 1.259 1_655 S
C90 O109 1.268 . S
C91 Ho88 2.811 . S
C91 C92 1.488 . S
C91 O110 1.215 . S
C91 O111 1.289 . S
C92 C91 1.488 . S
C92 C93 1.348 . S
C92 C97 1.413 . S
C93 C92 1.348 . S
C93 C94 1.442 . S
C93 H120 0.930 1_455 S
C94 C93 1.442 . S
C94 C95 1.381 . S
C94 H121 0.931 1_455 S
C95 C94 1.381 . S
C95 C96 1.321 . S
C96 C95 1.321 . S
C96 C97 1.403 . S
C96 H122 0.934 . S
C97 C92 1.413 . S
C97 C96 1.403 . S
C97 H123 0.930 . S
C98 O112 1.275 1_545 S
C98 O113 1.256 . S
C99 O114 1.259 1_455 S
C99 O115 1.268 . S
C100 Ho89 2.811 . S
C100 C101 1.488 . S
C100 O116 1.215 . S
C100 O117 1.289 1_655 S
C101 C100 1.488 . S
C101 C102 1.348 1_655 S
C101 C106 1.413 . S
C102 C101 1.348 1_455 S
C102 C103 1.445 . S
C102 H124 0.930 . S
C103 C102 1.445 . S
C103 C104 1.349 1_455 S
C103 H125 0.959 . S
C104 C103 1.349 1_655 S
C104 C105 1.321 . S
C105 C104 1.321 . S
C105 C106 1.403 . S
C105 H126 0.934 . S
C106 C101 1.413 . S
C106 C105 1.403 . S
C106 H127 0.930 . S
C107 O118 1.275 . S
C107 O119 1.242 1_545 S
O108 Ho88 2.322 . S
O108 C90 1.259 1_455 S
O109 Ho89 2.346 1_565 S
O109 C90 1.268 . S
O110 Ho88 2.378 . S
O110 C91 1.215 . S
O111 Ho88 2.524 . S
O111 C91 1.289 . S
O112 Ho88 2.381 . S
O112 C98 1.275 1_565 S
O113 Ho88 2.669 1_545 S
O113 Ho89 2.305 1_455 S
O113 C98 1.256 . S
O114 Ho89 2.322 . S
O114 C99 1.259 1_655 S
O115 Ho88 2.346 1_545 S
O115 C99 1.268 . S
O116 Ho89 2.378 . S
O116 C100 1.215 . S
O117 Ho89 2.524 1_455 S
O117 C100 1.289 1_455 S
O118 Ho89 2.381 . S
O118 C107 1.275 . S
O119 Ho88 2.315 1_655 S
O119 Ho89 2.649 1_565 S
O119 C107 1.242 1_565 S
H120 C93 0.930 1_655 S
H121 C94 0.931 1_655 S
H122 C96 0.934 . S
H123 C97 0.930 . S
H124 C102 0.930 . S
H125 C103 0.959 . S
H126 C105 0.934 . S
H127 C106 0.930 . S
Ho128 C131 2.811 . S
Ho128 O148 2.322 . S
Ho128 O150 2.378 . S
Ho128 O151 2.524 . S
Ho128 O152 2.381 . S
Ho128 O153 2.669 . S
Ho128 O155 2.346 . S
Ho128 O159 2.305 1_545 S
Ho129 C140 2.811 . S
Ho129 O149 2.346 . S
Ho129 O153 2.305 1_565 S
Ho129 O154 2.322 . S
Ho129 O156 2.378 . S
Ho129 O157 2.524 1_565 S
Ho129 O158 2.381 . S
Ho129 O159 2.669 . S
C130 O148 1.259 1_565 S
C130 O149 1.268 . S
C131 Ho128 2.811 . S
C131 C132 1.488 . S
C131 O150 1.215 . S
C131 O151 1.289 . S
C132 C131 1.488 . S
C132 C133 1.348 . S
C132 C137 1.413 . S
C133 C132 1.348 . S
C133 C134 1.442 . S
C133 H160 0.930 1_545 S
C134 C133 1.442 . S
C134 C135 1.381 . S
C134 H161 0.931 1_545 S
C135 C134 1.381 . S
C135 C136 1.321 . S
C136 C135 1.321 . S
C136 C137 1.403 . S
C136 H162 0.934 . S
C137 C132 1.413 . S
C137 C136 1.403 . S
C137 H163 0.930 . S
C138 O152 1.275 . S
C138 O153 1.256 . S
C139 O154 1.259 1_545 S
C139 O155 1.268 . S
C140 Ho129 2.811 . S
C140 C141 1.488 . S
C140 O156 1.215 . S
C140 O157 1.289 1_565 S
C141 C140 1.488 . S
C141 C142 1.348 1_565 S
C141 C146 1.413 . S
C142 C141 1.348 1_545 S
C142 C143 1.447 . S
C142 H164 0.930 . S
C143 C142 1.447 . S
C143 C144 1.338 1_545 S
C143 H165 0.968 . S
C144 C143 1.338 1_565 S
C144 C145 1.321 . S
C145 C144 1.321 . S
C145 C146 1.403 . S
C145 H166 0.934 . S
C146 C141 1.413 . S
C146 C145 1.403 . S
C146 H167 0.930 . S
C147 O158 1.275 . S
C147 O159 1.256 . S
O148 Ho128 2.322 . S
O148 C130 1.259 1_545 S
O149 Ho129 2.346 . S
O149 C130 1.268 . S
O150 Ho128 2.378 . S
O150 C131 1.215 . S
O151 Ho128 2.524 . S
O151 C131 1.289 . S
O152 Ho128 2.381 . S
O152 C138 1.275 . S
O153 Ho128 2.669 . S
O153 Ho129 2.305 1_545 S
O153 C138 1.256 . S
O154 Ho129 2.322 . S
O154 C139 1.259 1_565 S
O155 Ho128 2.346 . S
O155 C139 1.268 . S
O156 Ho129 2.378 . S
O156 C140 1.215 . S
O157 Ho129 2.524 1_545 S
O157 C140 1.289 1_545 S
O158 Ho129 2.381 . S
O158 C147 1.275 . S
O159 Ho128 2.305 1_565 S
O159 Ho129 2.669 . S
O159 C147 1.256 . S
H160 C133 0.930 1_565 S
H161 C134 0.931 1_565 S
H162 C136 0.934 . S
H163 C137 0.930 . S
H164 C142 0.930 . S
H165 C143 0.968 . S
H166 C145 0.934 . S
H167 C146 0.930 . S
Ho168 C171 2.811 . S
Ho168 O188 2.322 . S
Ho168 O190 2.378 . S
Ho168 O191 2.524 . S
Ho168 O192 2.381 . S
Ho168 O193 2.669 . S
Ho168 O195 2.346 . S
Ho168 O199 2.305 . S
Ho169 C180 2.811 . S
Ho169 O189 2.346 . S
Ho169 O193 2.305 . S
Ho169 O194 2.322 . S
Ho169 O196 2.378 . S
Ho169 O197 2.524 . S
Ho169 O198 2.381 . S
Ho169 O199 2.669 . S
C170 O188 1.259 . S
C170 O189 1.268 . S
C171 Ho168 2.811 . S
C171 C172 1.488 . S
C171 O190 1.215 . S
C171 O191 1.289 . S
C172 C171 1.488 . S
C172 C173 1.348 . S
C172 C177 1.413 . S
C173 C172 1.348 . S
C173 C174 1.442 . S
C173 H200 0.930 . S
C174 C173 1.442 . S
C174 C175 1.381 . S
C174 H201 0.931 . S
C175 C174 1.381 . S
C175 C176 1.321 . S
C176 C175 1.321 . S
C176 C177 1.403 . S
C176 H202 0.934 . S
C177 C172 1.413 . S
C177 C176 1.403 . S
C177 H203 0.930 . S
C178 O192 1.275 . S
C178 O193 1.256 . S
C179 O194 1.259 . S
C179 O195 1.268 . S
C180 Ho169 2.811 . S
C180 C181 1.488 . S
C180 O196 1.215 . S
C180 O197 1.289 . S
C181 C180 1.488 . S
C181 C182 1.348 . S
C181 C186 1.413 . S
C182 C181 1.348 . S
C182 C183 1.442 . S
C182 H204 0.930 . S
C183 C182 1.442 . S
C183 C184 1.381 . S
C183 H205 0.931 . S
C184 C183 1.381 . S
C184 C185 1.321 . S
C185 C184 1.321 . S
C185 C186 1.403 . S
C185 H206 0.934 . S
C186 C181 1.413 . S
C186 C185 1.403 . S
C186 H207 0.930 . S
C187 O198 1.275 . S
C187 O199 1.256 . S
O188 Ho168 2.322 . S
O188 C170 1.259 . S
O189 Ho169 2.346 . S
O189 C170 1.268 . S
O190 Ho168 2.378 . S
O190 C171 1.215 . S
O191 Ho168 2.524 . S
O191 C171 1.289 . S
O192 Ho168 2.381 . S
O192 C178 1.275 . S
O193 Ho168 2.669 . S
O193 Ho169 2.305 . S
O193 C178 1.256 . S
O194 Ho169 2.322 . S
O194 C179 1.259 . S
O195 Ho168 2.346 . S
O195 C179 1.268 . S
O196 Ho169 2.378 . S
O196 C180 1.215 . S
O197 Ho169 2.524 . S
O197 C180 1.289 . S
O198 Ho169 2.381 . S
O198 C187 1.275 . S
O199 Ho168 2.305 . S
O199 Ho169 2.669 . S
O199 C187 1.256 . S
H200 C173 0.930 . S
H201 C174 0.931 . S
H202 C176 0.934 . S
H203 C177 0.930 . S
H204 C182 0.930 . S
H205 C183 0.931 . S
H206 C185 0.934 . S
H207 C186 0.930 . S
Ho208 C211 2.811 . S
Ho208 O228 2.322 . S
Ho208 O230 2.378 . S
Ho208 O231 2.524 . S
Ho208 O232 2.381 . S
Ho208 O233 2.669 1_655 S
Ho208 O235 2.346 1_655 S
Ho208 O239 2.317 . S
Ho209 C220 2.811 . S
Ho209 O229 2.346 1_455 S
Ho209 O233 2.305 . S
Ho209 O234 2.322 . S
Ho209 O236 2.378 . S
Ho209 O237 2.524 . S
Ho209 O238 2.381 . S
Ho209 O239 2.645 1_455 S
C210 O228 1.259 . S
C210 O229 1.268 . S
C211 Ho208 2.811 . S
C211 C212 1.488 . S
C211 O230 1.215 . S
C211 O231 1.289 . S
C212 C211 1.488 . S
C212 C213 1.348 . S
C212 C217 1.413 . S
C213 C212 1.348 . S
C213 C214 1.442 . S
C213 H240 0.930 . S
C214 C213 1.442 . S
C214 C215 1.381 . S
C214 H241 0.931 . S
C215 C214 1.381 . S
C215 C216 1.321 . S
C216 C215 1.321 . S
C216 C217 1.403 . S
C216 H242 0.934 . S
C217 C212 1.413 . S
C217 C216 1.403 . S
C217 H243 0.930 . S
C218 O232 1.275 1_455 S
C218 O233 1.256 . S
C219 O234 1.259 . S
C219 O235 1.268 . S
C220 Ho209 2.811 . S
C220 C221 1.488 . S
C220 O236 1.215 . S
C220 O237 1.289 . S
C221 C220 1.488 . S
C221 C222 1.348 . S
C221 C226 1.413 . S
C222 C221 1.348 . S
C222 C223 1.442 . S
C222 H244 0.930 . S
C223 C222 1.442 . S
C223 C224 1.381 . S
C223 H245 0.931 . S
C224 C223 1.381 . S
C224 C225 1.321 . S
C225 C224 1.321 . S
C225 C226 1.403 . S
C225 H246 0.934 . S
C226 C221 1.413 . S
C226 C225 1.403 . S
C226 H247 0.930 . S
C227 O238 1.275 . S
C227 O239 1.240 1_455 S
O228 Ho208 2.322 . S
O228 C210 1.259 . S
O229 Ho209 2.346 1_655 S
O229 C210 1.268 . S
O230 Ho208 2.378 . S
O230 C211 1.215 . S
O231 Ho208 2.524 . S
O231 C211 1.289 . S
O232 Ho208 2.381 . S
O232 C218 1.275 1_655 S
O233 Ho208 2.669 1_455 S
O233 Ho209 2.305 . S
O233 C218 1.256 . S
O234 Ho209 2.322 . S
O234 C219 1.259 . S
O235 Ho208 2.346 1_455 S
O235 C219 1.268 . S
O236 Ho209 2.378 . S
O236 C220 1.215 . S
O237 Ho209 2.524 . S
O237 C220 1.289 . S
O238 Ho209 2.381 . S
O238 C227 1.275 . S
O239 Ho208 2.317 . S
O239 Ho209 2.645 1_655 S
O239 C227 1.240 1_655 S
H240 C213 0.930 . S
H241 C214 0.931 . S
H242 C216 0.934 . S
H243 C217 0.930 . S
H244 C222 0.930 . S
H245 C223 0.931 . S
H246 C225 0.934 . S
H247 C226 0.930 . S
H248 C256 0.929 . S
H249 C258 0.930 . S
H250 C260 0.930 . S
H251 C263 0.929 . S
H252 C266 0.930 . S
H253 C268 0.960 . S
H254 C268 0.960 . S
H255 C268 0.976 . S
C256 H248 0.929 . S
C256 C257 1.377 1_565 S
C256 C258 1.384 . S
C257 C256 1.377 1_545 S
C257 C263 1.390 . S
C258 H249 0.930 . S
C258 C256 1.384 . S
C258 C259 1.372 1_565 S
C259 C258 1.372 1_545 S
C259 C260 1.400 . S
C259 C264 1.490 . S
C260 H250 0.930 . S
C260 C259 1.400 . S
C260 C263 1.386 . S
H261 C277 0.930 . S
H262 C278 0.931 . S
C263 H251 0.929 . S
C263 C257 1.390 . S
C263 C260 1.386 . S
C264 C259 1.490 . S
C264 C266 1.395 . S
C264 C267 1.398 1_545 S
H265 C271 0.919 1_565 S
C266 H252 0.930 . S
C266 C264 1.395 . S
C266 C269 1.403 . S
C267 C264 1.398 1_565 S
C267 C268 1.530 . S
C267 C271 1.399 1_565 S
C268 H253 0.960 . S
C268 H254 0.960 . S
C268 H255 0.976 . S
C268 C267 1.530 . S
C269 C266 1.403 . S
C269 C270 1.392 . S
C269 C273 1.495 . S
C270 C269 1.392 . S
C270 C271 1.399 . S
C270 C272 1.478 . S
C271 H265 0.919 1_545 S
C271 C267 1.399 1_545 S
C271 C270 1.399 . S
C272 C270 1.478 . S
C272 C274 1.381 1_545 S
C272 C278 1.383 . S
C273 C269 1.495 . S
C273 H279 0.959 . S
C273 H280 0.961 . S
C273 H281 0.960 . S
C274 C272 1.381 1_565 S
C274 C275 1.394 . S
C274 H282 0.930 . S
C275 C274 1.394 . S
C275 C276 1.383 1_565 S
C275 H283 0.929 . S
C276 C275 1.383 1_545 S
C276 C277 1.377 . S
C277 H261 0.930 . S
C277 C276 1.377 . S
C277 C278 1.379 . S
C278 H262 0.931 . S
C278 C272 1.383 . S
C278 C277 1.379 . S
H279 C273 0.959 . S
H280 C273 0.961 . S
H281 C273 0.960 . S
H282 C274 0.930 . S
H283 C275 0.929 . S
H284 C292 0.929 . S
H285 C294 0.930 . S
H286 C296 0.930 . S
H287 C299 0.929 . S
H288 C302 0.930 . S
H289 C304 0.960 . S
H290 C304 0.960 . S
H291 C304 0.960 . S
C292 H284 0.929 . S
C292 C293 1.377 . S
C292 C294 1.384 . S
C293 C292 1.377 . S
C293 C299 1.390 . S
C294 H285 0.930 . S
C294 C292 1.384 . S
C294 C295 1.372 . S
C295 C294 1.372 . S
C295 C296 1.400 . S
C295 C300 1.490 . S
C296 H286 0.930 . S
C296 C295 1.400 . S
C296 C299 1.386 . S
H297 C313 0.930 . S
H298 C314 0.931 . S
C299 H287 0.929 . S
C299 C293 1.390 . S
C299 C296 1.386 . S
C300 C295 1.490 . S
C300 C302 1.395 . S
C300 C303 1.403 . S
H301 C307 0.930 . S
C302 H288 0.930 . S
C302 C300 1.395 . S
C302 C305 1.403 . S
C303 C300 1.403 . S
C303 C304 1.524 . S
C303 C307 1.400 . S
C304 H289 0.960 . S
C304 H290 0.960 . S
C304 H291 0.960 . S
C304 C303 1.524 . S
C305 C302 1.403 . S
C305 C306 1.392 . S
C305 C309 1.495 . S
C306 C305 1.392 . S
C306 C307 1.385 . S
C306 C308 1.478 . S
C307 H301 0.930 . S
C307 C303 1.400 . S
C307 C306 1.385 . S
C308 C306 1.478 . S
C308 C310 1.381 . S
C308 C314 1.383 . S
C309 C305 1.495 . S
C309 H315 0.959 . S
C309 H316 0.961 . S
C309 H317 0.960 . S
C310 C308 1.381 . S
C310 C311 1.394 . S
C310 H318 0.930 . S
C311 C310 1.394 . S
C311 C312 1.383 . S
C311 H319 0.929 . S
C312 C311 1.383 . S
C312 C313 1.377 . S
C313 H297 0.930 . S
C313 C312 1.377 . S
C313 C314 1.379 . S
C314 H298 0.931 . S
C314 C308 1.383 . S
C314 C313 1.379 . S
H315 C309 0.959 . S
H316 C309 0.961 . S
H317 C309 0.960 . S
H318 C310 0.930 . S
H319 C311 0.929 . S
H320 C328 0.929 . S
H321 C330 0.930 . S
H322 C332 0.930 . S
H323 C335 0.929 . S
H324 C338 0.930 . S
H325 C340 0.960 . S
H326 C340 0.960 . S
H327 C340 0.960 . S
C328 H320 0.929 . S
C328 C329 1.377 . S
C328 C330 1.384 . S
C329 C328 1.377 . S
C329 C335 1.390 . S
C330 H321 0.930 . S
C330 C328 1.384 . S
C330 C331 1.372 . S
C331 C330 1.372 . S
C331 C332 1.400 . S
C331 C336 1.490 . S
C332 H322 0.930 . S
C332 C331 1.400 . S
C332 C335 1.386 . S
H333 C349 0.930 . S
H334 C350 0.931 . S
C335 H323 0.929 . S
C335 C329 1.390 . S
C335 C332 1.386 . S
C336 C331 1.490 . S
C336 C338 1.395 . S
C336 C339 1.403 . S
H337 C343 0.930 . S
C338 H324 0.930 . S
C338 C336 1.395 . S
C338 C341 1.403 . S
C339 C336 1.403 . S
C339 C340 1.524 . S
C339 C343 1.400 . S
C340 H325 0.960 . S
C340 H326 0.960 . S
C340 H327 0.960 . S
C340 C339 1.524 . S
C341 C338 1.403 . S
C341 C342 1.392 . S
C341 C345 1.495 . S
C342 C341 1.392 . S
C342 C343 1.385 . S
C342 C344 1.478 . S
C343 H337 0.930 . S
C343 C339 1.400 . S
C343 C342 1.385 . S
C344 C342 1.478 . S
C344 C346 1.381 . S
C344 C350 1.383 . S
C345 C341 1.495 . S
C345 H351 0.959 . S
C345 H352 0.961 . S
C345 H353 0.960 . S
C346 C344 1.381 . S
C346 C347 1.394 . S
C346 H354 0.930 . S
C347 C346 1.394 . S
C347 C348 1.383 . S
C347 H355 0.929 . S
C348 C347 1.383 . S
C348 C349 1.377 . S
C349 H333 0.930 . S
C349 C348 1.377 . S
C349 C350 1.379 . S
C350 H334 0.931 . S
C350 C344 1.383 . S
C350 C349 1.379 . S
H351 C345 0.959 . S
H352 C345 0.961 . S
H353 C345 0.960 . S
H354 C346 0.930 . S
H355 C347 0.929 . S
H356 C364 0.929 . S
H357 C366 0.930 . S
H358 C368 0.930 . S
H359 C371 0.929 . S
H360 C374 0.930 . S
H361 C376 0.960 . S
H362 C376 0.960 . S
H363 C376 0.960 . S
C364 H356 0.929 . S
C364 C365 1.377 . S
C364 C366 1.384 . S
C365 C364 1.377 . S
C365 C371 1.390 1_455 S
C366 H357 0.930 . S
C366 C364 1.384 . S
C366 C367 1.372 . S
C367 C366 1.372 . S
C367 C368 1.400 1_455 S
C367 C372 1.490 . S
C368 H358 0.930 . S
C368 C367 1.400 1_655 S
C368 C371 1.386 . S
H369 C385 0.930 . S
H370 C386 0.931 . S
C371 H359 0.929 . S
C371 C365 1.390 1_655 S
C371 C368 1.386 . S
C372 C367 1.490 . S
C372 C374 1.395 . S
C372 C375 1.403 1_455 S
H373 C379 0.930 . S
C374 H360 0.930 . S
C374 C372 1.395 . S
C374 C377 1.403 . S
C375 C372 1.403 1_655 S
C375 C376 1.524 . S
C375 C379 1.400 . S
C376 H361 0.960 . S
C376 H362 0.960 . S
C376 H363 0.960 . S
C376 C375 1.524 . S
C377 C374 1.403 . S
C377 C378 1.392 . S
C377 C381 1.495 . S
C378 C377 1.392 . S
C378 C379 1.385 1_455 S
C378 C380 1.478 . S
C379 H373 0.930 . S
C379 C375 1.400 . S
C379 C378 1.385 1_655 S
C380 C378 1.478 . S
C380 C382 1.381 . S
C380 C386 1.383 1_455 S
C381 C377 1.495 . S
C381 H387 0.959 . S
C381 H388 0.961 . S
C381 H389 0.960 . S
C382 C380 1.381 . S
C382 C383 1.394 . S
C382 H390 0.930 . S
C383 C382 1.394 . S
C383 C384 1.383 . S
C383 H391 0.929 . S
C384 C383 1.383 . S
C384 C385 1.377 1_455 S
C385 H369 0.930 . S
C385 C384 1.377 1_655 S
C385 C386 1.379 . S
C386 H370 0.931 . S
C386 C380 1.383 1_655 S
C386 C385 1.379 . S
H387 C381 0.959 . S
H388 C381 0.961 . S
H389 C381 0.960 . S
H390 C382 0.930 . S
H391 C383 0.929 . S
H392 C400 0.929 . S
H393 C402 0.930 . S
H394 C404 0.930 . S
H395 C407 0.929 . S
H396 C410 0.930 . S
H397 C412 0.960 . S
H398 C412 0.960 . S
H399 C412 0.960 . S
C400 H392 0.929 . S
C400 C401 1.345 1_545 S
C400 C402 1.384 . S
C401 C400 1.345 1_565 S
C401 C407 1.421 . S
C402 H393 0.930 . S
C402 C400 1.384 . S
C402 C403 1.418 . S
C403 C402 1.418 . S
C403 C404 1.352 1_545 S
C403 C408 1.493 . S
C404 H394 0.930 . S
C404 C403 1.352 1_565 S
C404 C407 1.386 . S
H405 C421 0.930 . S
H406 C422 0.931 . S
C407 H395 0.929 . S
C407 C401 1.421 . S
C407 C404 1.386 . S
C408 C403 1.493 . S
C408 C410 1.395 . S
C408 C411 1.403 1_544 S
H409 C415 0.930 . S
C410 H396 0.930 . S
C410 C408 1.395 . S
C410 C413 1.403 . S
C411 C408 1.403 1_566 S
C411 C412 1.524 . S
C411 C415 1.400 . S
C412 H397 0.960 . S
C412 H398 0.960 . S
C412 H399 0.960 . S
C412 C411 1.524 . S
C413 C410 1.403 . S
C413 C414 1.392 1_554 S
C413 C417 1.495 . S
C414 C413 1.392 1_556 S
C414 C415 1.385 1_545 S
C414 C416 1.478 . S
C415 H409 0.930 . S
C415 C411 1.400 . S
C415 C414 1.385 1_565 S
C416 C414 1.478 . S
C416 C418 1.381 . S
C416 C422 1.383 1_545 S
C417 C413 1.495 . S
C417 H423 0.959 . S
C417 H424 0.961 . S
C417 H425 0.960 1_554 S
C418 C416 1.381 . S
C418 C419 1.394 . S
C418 H426 0.930 . S
C419 C418 1.394 . S
C419 C420 1.383 . S
C419 H427 0.929 . S
C420 C419 1.383 . S
C420 C421 1.377 1_545 S
C421 H405 0.930 . S
C421 C420 1.377 1_565 S
C421 C422 1.379 . S
C422 H406 0.931 . S
C422 C416 1.383 1_565 S
C422 C421 1.379 . S
H423 C417 0.959 . S
H424 C417 0.961 . S
H425 C417 0.960 1_556 S
H426 C418 0.930 . S
H427 C419 0.929 . S
H428 C436 0.929 . S
H429 C438 0.930 . S
H430 C440 0.930 . S
H431 C443 0.929 . S
H432 C446 0.930 . S
H433 C448 0.960 . S
H434 C448 0.960 . S
H435 C448 0.960 . S
C436 H428 0.929 . S
C436 C437 1.377 . S
C436 C438 1.384 . S
C437 C436 1.377 . S
C437 C443 1.390 . S
C438 H429 0.930 . S
C438 C436 1.384 . S
C438 C439 1.372 . S
C439 C438 1.372 . S
C439 C440 1.400 . S
C439 C444 1.490 . S
C440 H430 0.930 . S
C440 C439 1.400 . S
C440 C443 1.386 . S
H441 C457 0.930 . S
H442 C458 0.931 . S
C443 H431 0.929 . S
C443 C437 1.390 . S
C443 C440 1.386 . S
C444 C439 1.490 . S
C444 C446 1.395 1_554 S
C444 C447 1.403 . S
H445 C451 0.930 1_554 S
C446 H432 0.930 . S
C446 C444 1.395 1_556 S
C446 C449 1.403 . S
C447 C444 1.403 . S
C447 C448 1.524 . S
C447 C451 1.400 1_554 S
C448 H433 0.960 . S
C448 H434 0.960 . S
C448 H435 0.960 . S
C448 C447 1.524 . S
C449 C446 1.403 . S
C449 C450 1.392 . S
C449 C453 1.495 . S
C450 C449 1.392 . S
C450 C451 1.385 . S
C450 C452 1.478 . S
C451 H445 0.930 1_556 S
C451 C447 1.400 1_556 S
C451 C450 1.385 . S
C452 C450 1.478 . S
C452 C454 1.381 . S
C452 C458 1.383 . S
C453 C449 1.495 . S
C453 H459 0.959 . S
C453 H460 0.961 . S
C453 H461 0.960 . S
C454 C452 1.381 . S
C454 C455 1.394 . S
C454 H462 0.930 . S
C455 C454 1.394 . S
C455 C456 1.383 . S
C455 H463 0.929 . S
C456 C455 1.383 . S
C456 C457 1.377 . S
C457 H441 0.930 . S
C457 C456 1.377 . S
C457 C458 1.379 . S
C458 H442 0.931 . S
C458 C452 1.383 . S
C458 C457 1.379 . S
H459 C453 0.959 . S
H460 C453 0.961 . S
H461 C453 0.960 . S
H462 C454 0.930 . S
H463 C455 0.929 . S
H464 C472 0.929 . S
H465 C474 0.930 . S
H466 C476 0.930 . S
H467 C479 0.929 . S
H468 C482 0.930 . S
H469 C484 0.960 1_556 S
H470 C484 0.960 . S
H471 C484 0.960 . S
C472 H464 0.929 . S
C472 C473 1.377 . S
C472 C474 1.384 . S
C473 C472 1.377 . S
C473 C479 1.390 . S
C474 H465 0.930 . S
C474 C472 1.384 . S
C474 C475 1.372 . S
C475 C474 1.372 . S
C475 C476 1.400 . S
C475 C480 1.490 . S
C476 H466 0.930 . S
C476 C475 1.400 . S
C476 C479 1.386 . S
H477 C493 0.930 . S
H478 C494 0.931 . S
C479 H467 0.929 . S
C479 C473 1.390 . S
C479 C476 1.386 . S
C480 C475 1.490 . S
C480 C482 1.395 . S
C480 C483 1.403 . S
H481 C487 0.930 . S
C482 H468 0.930 . S
C482 C480 1.395 . S
C482 C485 1.403 1_554 S
C483 C480 1.403 . S
C483 C484 1.524 . S
C483 C487 1.400 1_554 S
C484 H469 0.960 1_554 S
C484 H470 0.960 . S
C484 H471 0.960 . S
C484 C483 1.524 . S
C485 C482 1.403 1_556 S
C485 C486 1.392 . S
C485 C489 1.495 . S
C486 C485 1.392 . S
C486 C487 1.385 . S
C486 C488 1.478 . S
C487 H481 0.930 . S
C487 C483 1.400 1_556 S
C487 C486 1.385 . S
C488 C486 1.478 . S
C488 C490 1.381 . S
C488 C494 1.383 . S
C489 C485 1.495 . S
C489 H495 0.959 . S
C489 H496 0.961 . S
C489 H497 0.960 . S
C490 C488 1.381 . S
C490 C491 1.394 . S
C490 H498 0.930 . S
C491 C490 1.394 . S
C491 C492 1.383 . S
C491 H499 0.929 . S
C492 C491 1.383 . S
C492 C493 1.377 . S
C493 H477 0.930 . S
C493 C492 1.377 . S
C493 C494 1.379 . S
C494 H478 0.931 . S
C494 C488 1.383 . S
C494 C493 1.379 . S
H495 C489 0.959 . S
H496 C489 0.961 . S
H497 C489 0.960 . S
H498 C490 0.930 . S
H499 C491 0.929 . S
H500 C508 0.929 . S
H501 C510 0.930 . S
H502 C512 0.930 . S
H503 C515 0.929 . S
H504 C518 0.930 . S
H505 C520 0.960 . S
H506 C520 0.960 . S
H507 C520 0.960 1_554 S
C508 H500 0.929 . S
C508 C509 1.341 1_455 S
C508 C510 1.384 . S
C509 C508 1.341 1_655 S
C509 C515 1.425 . S
C510 H501 0.930 . S
C510 C508 1.384 . S
C510 C511 1.406 . S
C511 C510 1.406 . S
C511 C512 1.365 1_455 S
C511 C516 1.492 . S
C512 H502 0.930 . S
C512 C511 1.365 1_655 S
C512 C515 1.386 . S
H513 C529 0.930 . S
H514 C530 0.931 . S
C515 H503 0.929 . S
C515 C509 1.425 . S
C515 C512 1.386 . S
C516 C511 1.492 . S
C516 C518 1.395 . S
C516 C519 1.403 1_454 S
H517 C523 0.930 . S
C518 H504 0.930 . S
C518 C516 1.395 . S
C518 C521 1.397 1_554 S
C519 C516 1.403 1_656 S
C519 C520 1.524 . S
C519 C523 1.400 . S
C520 H505 0.960 . S
C520 H506 0.960 . S
C520 H507 0.960 1_556 S
C520 C519 1.524 . S
C521 C518 1.397 1_556 S
C521 C522 1.400 . S
C521 C525 1.494 1_556 S
C522 C521 1.400 . S
C522 C523 1.385 1_455 S
C522 C524 1.478 . S
C523 H517 0.930 . S
C523 C519 1.400 . S
C523 C522 1.385 1_655 S
C524 C522 1.478 . S
C524 C526 1.381 . S
C524 C530 1.383 1_455 S
C525 C521 1.494 1_554 S
C525 H531 0.959 . S
C525 H532 0.961 . S
C525 H533 0.960 1_554 S
C526 C524 1.381 . S
C526 C527 1.394 . S
C526 H534 0.930 . S
C527 C526 1.394 . S
C527 C528 1.383 . S
C527 H535 0.929 . S
C528 C527 1.383 . S
C528 C529 1.377 1_455 S
C529 H513 0.930 . S
C529 C528 1.377 1_655 S
C529 C530 1.379 . S
C530 H514 0.931 . S
C530 C524 1.383 1_655 S
C530 C529 1.379 . S
H531 C525 0.959 . S
H532 C525 0.961 . S
H533 C525 0.960 1_556 S
H534 C526 0.930 . S
H535 C527 0.929 . S
H536 C544 0.929 . S
H537 C546 0.930 . S
H538 C548 0.930 . S
H539 C551 0.929 . S
H540 C554 0.930 . S
H541 C556 0.960 . S
H542 C556 0.960 . S
H543 C556 0.960 1_455 S
C544 H536 0.929 . S
C544 C545 1.377 1_655 S
C544 C546 1.384 . S
C545 C544 1.377 1_455 S
C545 C551 1.390 . S
C546 H537 0.930 . S
C546 C544 1.384 . S
C546 C547 1.372 1_655 S
C547 C546 1.372 1_455 S
C547 C548 1.400 . S
C547 C552 1.490 1_455 S
C548 H538 0.930 . S
C548 C547 1.400 . S
C548 C551 1.386 . S
H549 C565 0.930 1_455 S
H550 C566 0.978 . S
C551 H539 0.929 . S
C551 C545 1.390 . S
C551 C548 1.386 . S
C552 C547 1.490 1_655 S
C552 C554 1.395 . S
C552 C555 1.403 . S
H553 C559 0.930 . S
C554 H540 0.930 . S
C554 C552 1.395 . S
C554 C557 1.403 . S
C555 C552 1.403 . S
C555 C556 1.524 . S
C555 C559 1.400 . S
C556 H541 0.960 . S
C556 H542 0.960 . S
C556 H543 0.960 1_655 S
C556 C555 1.524 . S
C557 C554 1.403 . S
C557 C558 1.392 . S
C557 C561 1.495 . S
C558 C557 1.392 . S
C558 C559 1.385 . S
C558 C560 1.478 . S
C559 H553 0.930 . S
C559 C555 1.400 . S
C559 C558 1.385 . S
C560 C558 1.478 . S
C560 C562 1.381 . S
C560 C566 1.346 1_655 S
C561 C557 1.495 . S
C561 H567 0.959 . S
C561 H568 0.961 1_655 S
C561 H569 0.960 . S
C562 C560 1.381 . S
C562 C563 1.394 . S
C562 H570 0.930 . S
C563 C562 1.394 . S
C563 C564 1.383 . S
C563 H571 0.929 . S
C564 C563 1.383 . S
C564 C565 1.377 . S
C565 H549 0.930 1_655 S
C565 C564 1.377 . S
C565 C566 1.371 1_655 S
C566 H550 0.978 . S
C566 C560 1.346 1_455 S
C566 C565 1.371 1_455 S
H567 C561 0.959 . S
H568 C561 0.961 1_455 S
H569 C561 0.960 . S
H570 C562 0.930 . S
H571 C563 0.929 . S
H572 C580 0.929 . S
H573 C582 0.921 1_565 S
H574 C584 0.930 . S
H575 C587 0.929 . S
H576 C590 0.930 . S
H577 C592 0.960 . S
H578 C592 0.960 . S
H579 C592 0.960 . S
C580 H572 0.929 . S
C580 C581 1.377 . S
C580 C582 1.391 . S
C581 C580 1.377 . S
C581 C587 1.390 . S
C582 H573 0.921 1_545 S
C582 C580 1.391 . S
C582 C583 1.375 . S
C583 C582 1.375 . S
C583 C584 1.400 . S
C583 C588 1.490 1_545 S
C584 H574 0.930 . S
C584 C583 1.400 . S
C584 C587 1.386 . S
H585 C601 0.930 . S
H586 C602 0.931 . S
C587 H575 0.929 . S
C587 C581 1.390 . S
C587 C584 1.386 . S
C588 C583 1.490 1_565 S
C588 C590 1.395 1_565 S
C588 C591 1.403 . S
H589 C595 0.930 . S
C590 H576 0.930 . S
C590 C588 1.395 1_545 S
C590 C593 1.403 . S
C591 C588 1.403 . S
C591 C592 1.524 . S
C591 C595 1.400 . S
C592 H577 0.960 . S
C592 H578 0.960 . S
C592 H579 0.960 . S
C592 C591 1.524 . S
C593 C590 1.403 . S
C593 C594 1.392 1_545 S
C593 C597 1.495 . S
C594 C593 1.392 1_565 S
C594 C595 1.385 . S
C594 C596 1.478 . S
C595 H589 0.930 . S
C595 C591 1.400 . S
C595 C594 1.385 . S
C596 C594 1.478 . S
C596 C598 1.381 . S
C596 C602 1.383 . S
C597 C593 1.495 . S
C597 H603 0.959 . S
C597 H604 0.961 . S
C597 H605 0.960 . S
C598 C596 1.381 . S
C598 C599 1.394 . S
C598 H606 0.930 . S
C599 C598 1.394 . S
C599 C600 1.383 . S
C599 H607 0.929 . S
C600 C599 1.383 . S
C600 C601 1.377 . S
C601 H585 0.930 . S
C601 C600 1.377 . S
C601 C602 1.379 . S
C602 H586 0.931 . S
C602 C596 1.383 . S
C602 C601 1.379 . S
H603 C597 0.959 . S
H604 C597 0.961 . S
H605 C597 0.960 . S
H606 C598 0.930 . S
H607 C599 0.929 . S
H608 C616 0.929 . S
H609 C618 0.930 . S
H610 C620 0.930 . S
H611 C623 0.929 . S
H612 C626 0.930 . S
H613 C628 0.960 . S
H614 C628 0.960 . S
H615 C628 0.960 . S
C616 H608 0.929 . S
C616 C617 1.377 . S
C616 C618 1.384 . S
C617 C616 1.377 . S
C617 C623 1.390 . S
C618 H609 0.930 . S
C618 C616 1.384 . S
C618 C619 1.372 . S
C619 C618 1.372 . S
C619 C620 1.400 . S
C619 C624 1.490 . S
C620 H610 0.930 . S
C620 C619 1.400 . S
C620 C623 1.386 . S
H621 C637 0.930 . S
H622 C638 0.931 . S
C623 H611 0.929 . S
C623 C617 1.390 . S
C623 C620 1.386 . S
C624 C619 1.490 . S
C624 C626 1.395 . S
C624 C627 1.403 . S
H625 C631 0.930 . S
C626 H612 0.930 . S
C626 C624 1.395 . S
C626 C629 1.403 . S
C627 C624 1.403 . S
C627 C628 1.524 . S
C627 C631 1.400 . S
C628 H613 0.960 . S
C628 H614 0.960 . S
C628 H615 0.960 . S
C628 C627 1.524 . S
C629 C626 1.403 . S
C629 C630 1.392 . S
C629 C633 1.495 . S
C630 C629 1.392 . S
C630 C631 1.385 . S
C630 C632 1.478 . S
C631 H625 0.930 . S
C631 C627 1.400 . S
C631 C630 1.385 . S
C632 C630 1.478 . S
C632 C634 1.381 . S
C632 C638 1.383 . S
C633 C629 1.495 . S
C633 H639 0.959 . S
C633 H640 0.961 . S
C633 H641 0.960 . S
C634 C632 1.381 . S
C634 C635 1.394 . S
C634 H642 0.930 . S
C635 C634 1.394 . S
C635 C636 1.383 . S
C635 H643 0.929 . S
C636 C635 1.383 . S
C636 C637 1.377 . S
C637 H621 0.930 . S
C637 C636 1.377 . S
C637 C638 1.379 . S
C638 H622 0.931 . S
C638 C632 1.383 . S
C638 C637 1.379 . S
H639 C633 0.959 . S
H640 C633 0.961 . S
H641 C633 0.960 . S
H642 C634 0.930 . S
H643 C635 0.929 . S
H644 C652 0.929 . S
H645 C654 0.930 . S
H646 C656 0.930 . S
H647 C659 0.929 . S
H648 C662 0.930 . S
H649 C664 0.960 . S
H650 C664 0.960 . S
H651 C664 0.960 . S
C652 H644 0.929 . S
C652 C653 1.377 . S
C652 C654 1.384 . S
C653 C652 1.377 . S
C653 C659 1.390 . S
C654 H645 0.930 . S
C654 C652 1.384 . S
C654 C655 1.372 . S
C655 C654 1.372 . S
C655 C656 1.400 . S
C655 C660 1.490 . S
C656 H646 0.930 . S
C656 C655 1.400 . S
C656 C659 1.386 . S
H657 C673 0.930 . S
H658 C674 0.931 . S
C659 H647 0.929 . S
C659 C653 1.390 . S
C659 C656 1.386 . S
C660 C655 1.490 . S
C660 C662 1.395 . S
C660 C663 1.403 . S
H661 C667 0.930 . S
C662 H648 0.930 . S
C662 C660 1.395 . S
C662 C665 1.403 . S
C663 C660 1.403 . S
C663 C664 1.524 . S
C663 C667 1.400 . S
C664 H649 0.960 . S
C664 H650 0.960 . S
C664 H651 0.960 . S
C664 C663 1.524 . S
C665 C662 1.403 . S
C665 C666 1.392 . S
C665 C669 1.495 . S
C666 C665 1.392 . S
C666 C667 1.385 . S
C666 C668 1.478 . S
C667 H661 0.930 . S
C667 C663 1.400 . S
C667 C666 1.385 . S
C668 C666 1.478 . S
C668 C670 1.381 . S
C668 C674 1.383 . S
C669 C665 1.495 . S
C669 H675 0.959 . S
C669 H676 0.961 . S
C669 H677 0.960 . S
C670 C668 1.381 . S
C670 C671 1.394 . S
C670 H678 0.930 . S
C671 C670 1.394 . S
C671 C672 1.383 . S
C671 H679 0.929 . S
C672 C671 1.383 . S
C672 C673 1.377 . S
C673 H657 0.930 . S
C673 C672 1.377 . S
C673 C674 1.379 . S
C674 H658 0.931 . S
C674 C668 1.383 . S
C674 C673 1.379 . S
H675 C669 0.959 . S
H676 C669 0.961 . S
H677 C669 0.960 . S
H678 C670 0.930 . S
H679 C671 0.929 . S
H680 C688 0.929 . S
H681 C690 0.930 . S
H682 C692 0.930 . S
H683 C695 0.929 . S
H684 C698 0.930 . S
H685 C700 0.960 . S
H686 C700 0.960 . S
H687 C700 0.960 . S
C688 H680 0.929 . S
C688 C689 1.377 1_455 S
C688 C690 1.384 . S
C689 C688 1.377 1_655 S
C689 C695 1.390 . S
C690 H681 0.930 . S
C690 C688 1.384 . S
C690 C691 1.372 . S
C691 C690 1.372 . S
C691 C692 1.400 1_455 S
C691 C696 1.490 . S
C692 H682 0.930 . S
C692 C691 1.400 1_655 S
C692 C695 1.386 . S
H693 C709 0.930 . S
H694 C710 0.894 1_655 S
C695 H683 0.929 . S
C695 C689 1.390 . S
C695 C692 1.386 . S
C696 C691 1.490 . S
C696 C698 1.395 . S
C696 C699 1.388 1_455 S
H697 C703 0.930 1_655 S
C698 H684 0.930 . S
C698 C696 1.395 . S
C698 C701 1.403 . S
C699 C696 1.388 1_655 S
C699 C700 1.544 . S
C699 C703 1.394 1_655 S
C700 H685 0.960 . S
C700 H686 0.960 . S
C700 H687 0.960 . S
C700 C699 1.544 . S
C701 C698 1.403 . S
C701 C702 1.392 . S
C701 C705 1.495 1_554 S
C702 C701 1.392 . S
C702 C703 1.385 . S
C702 C704 1.478 1_554 S
C703 H697 0.930 1_455 S
C703 C699 1.394 1_455 S
C703 C702 1.385 . S
C704 C702 1.478 1_556 S
C704 C706 1.381 . S
C704 C710 1.383 . S
C705 C701 1.495 1_556 S
C705 H711 0.959 . S
C705 H712 0.961 . S
C705 H713 0.960 . S
C706 C704 1.381 . S
C706 C707 1.394 . S
C706 H714 0.930 1_556 S
C707 C706 1.394 . S
C707 C708 1.383 . S
C707 H715 0.929 . S
C708 C707 1.383 . S
C708 C709 1.377 . S
C709 H693 0.930 . S
C709 C708 1.377 . S
C709 C710 1.379 . S
C710 H694 0.894 1_455 S
C710 C704 1.383 . S
C710 C709 1.379 . S
H711 C705 0.959 . S
H712 C705 0.961 . S
H713 C705 0.960 . S
H714 C706 0.930 1_554 S
H715 C707 0.929 . S
H716 C724 0.929 . S
H717 C726 0.930 . S
H718 C728 0.930 . S
H719 C731 0.929 . S
H720 C734 0.930 . S
H721 C736 0.960 . S
H722 C736 0.960 1_565 S
H723 C736 0.960 1_554 S
C724 H716 0.929 . S
C724 C725 1.377 . S
C724 C726 1.384 . S
C725 C724 1.377 . S
C725 C731 1.390 1_565 S
C726 H717 0.930 . S
C726 C724 1.384 . S
C726 C727 1.372 1_565 S
C727 C726 1.372 1_545 S
C727 C728 1.400 . S
C727 C732 1.490 . S
C728 H718 0.930 . S
C728 C727 1.400 . S
C728 C731 1.386 . S
H729 C745 0.930 . S
H730 C746 0.931 . S
C731 H719 0.929 . S
C731 C725 1.390 1_545 S
C731 C728 1.386 . S
C732 C727 1.490 . S
C732 C734 1.395 . S
C732 C735 1.403 . S
H733 C739 0.930 1_556 S
C734 H720 0.930 . S
C734 C732 1.395 . S
C734 C737 1.403 . S
C735 C732 1.403 . S
C735 C736 1.524 1_554 S
C735 C739 1.400 . S
C736 H721 0.960 . S
C736 H722 0.960 1_545 S
C736 H723 0.960 1_556 S
C736 C735 1.524 1_556 S
C737 C734 1.403 . S
C737 C738 1.392 . S
C737 C741 1.495 . S
C738 C737 1.392 . S
C738 C739 1.385 . S
C738 C740 1.478 . S
C739 H733 0.930 1_554 S
C739 C735 1.400 . S
C739 C738 1.385 . S
C740 C738 1.478 . S
C740 C742 1.381 1_554 S
C740 C746 1.383 1_554 S
C741 C737 1.495 . S
C741 H747 0.959 . S
C741 H748 0.961 . S
C741 H749 0.960 . S
C742 C740 1.381 1_556 S
C742 C743 1.394 . S
C742 H750 0.930 1_546 S
C743 C742 1.394 . S
C743 C744 1.383 . S
C743 H751 0.929 . S
C744 C743 1.383 . S
C744 C745 1.377 . S
C745 H729 0.930 . S
C745 C744 1.377 . S
C745 C746 1.379 . S
C746 H730 0.931 . S
C746 C740 1.383 1_556 S
C746 C745 1.379 . S
H747 C741 0.959 . S
H748 C741 0.961 . S
H749 C741 0.960 . S
H750 C742 0.930 1_564 S
H751 C743 0.929 . S
H752 C760 0.929 . S
H753 C762 0.930 . S
H754 C764 0.930 . S
H755 C767 0.929 . S
H756 C770 0.930 . S
H757 C772 0.960 . S
H758 C772 0.960 . S
H759 C772 0.960 . S
C760 H752 0.929 . S
C760 C761 1.377 . S
C760 C762 1.384 . S
C761 C760 1.377 . S
C761 C767 1.390 . S
C762 H753 0.930 . S
C762 C760 1.384 . S
C762 C763 1.372 . S
C763 C762 1.372 . S
C763 C764 1.400 . S
C763 C768 1.490 . S
C764 H754 0.930 . S
C764 C763 1.400 . S
C764 C767 1.386 . S
H765 C781 0.930 . S
H766 C782 0.931 . S
C767 H755 0.929 . S
C767 C761 1.390 . S
C767 C764 1.386 . S
C768 C763 1.490 . S
C768 C770 1.395 . S
C768 C771 1.403 . S
H769 C775 0.930 . S
C770 H756 0.930 . S
C770 C768 1.395 . S
C770 C773 1.403 . S
C771 C768 1.403 . S
C771 C772 1.524 . S
C771 C775 1.400 . S
C772 H757 0.960 . S
C772 H758 0.960 . S
C772 H759 0.960 . S
C772 C771 1.524 . S
C773 C770 1.403 . S
C773 C774 1.392 . S
C773 C777 1.495 1_554 S
C774 C773 1.392 . S
C774 C775 1.385 . S
C774 C776 1.478 1_554 S
C775 H769 0.930 . S
C775 C771 1.400 . S
C775 C774 1.385 . S
C776 C774 1.478 1_556 S
C776 C778 1.381 1_556 S
C776 C782 1.383 . S
C777 C773 1.495 1_556 S
C777 H783 0.959 . S
C777 H784 0.961 . S
C777 H785 0.960 1_556 S
C778 C776 1.381 1_554 S
C778 C779 1.394 1_554 S
C778 H786 0.930 . S
C779 C778 1.394 1_556 S
C779 C780 1.383 . S
C779 H787 0.929 . S
C780 C779 1.383 . S
C780 C781 1.377 . S
C781 H765 0.930 . S
C781 C780 1.377 . S
C781 C782 1.379 . S
C782 H766 0.931 . S
C782 C776 1.383 . S
C782 C781 1.379 . S
H783 C777 0.959 . S
H784 C777 0.961 . S
H785 C777 0.960 1_554 S
H786 C778 0.930 . S
H787 C779 0.929 . S
H788 C796 0.929 . S
H789 C798 0.930 . S
H790 C800 0.930 . S
H791 C803 0.929 . S
H792 C806 0.930 . S
H793 C808 0.960 . S
H794 C808 0.960 . S
H795 C808 0.960 . S
C796 H788 0.929 . S
C796 C797 1.377 . S
C796 C798 1.384 . S
C797 C796 1.377 . S
C797 C803 1.390 . S
C798 H789 0.930 . S
C798 C796 1.384 . S
C798 C799 1.372 . S
C799 C798 1.372 . S
C799 C800 1.400 . S
C799 C804 1.490 . S
C800 H790 0.930 . S
C800 C799 1.400 . S
C800 C803 1.386 . S
H801 C817 0.930 . S
H802 C818 0.931 . S
C803 H791 0.929 . S
C803 C797 1.390 . S
C803 C800 1.386 . S
C804 C799 1.490 . S
C804 C806 1.395 . S
C804 C807 1.403 . S
H805 C811 0.930 . S
C806 H792 0.930 . S
C806 C804 1.395 . S
C806 C809 1.403 . S
C807 C804 1.403 . S
C807 C808 1.524 . S
C807 C811 1.400 . S
C808 H793 0.960 . S
C808 H794 0.960 . S
C808 H795 0.960 . S
C808 C807 1.524 . S
C809 C806 1.403 . S
C809 C810 1.392 . S
C809 C813 1.495 1_554 S
C810 C809 1.392 . S
C810 C811 1.385 . S
C810 C812 1.478 1_554 S
C811 H805 0.930 . S
C811 C807 1.400 . S
C811 C810 1.385 . S
C812 C810 1.478 1_556 S
C812 C814 1.381 . S
C812 C818 1.383 . S
C813 C809 1.495 1_556 S
C813 H819 0.959 . S
C813 H820 0.961 . S
C813 H821 0.960 . S
C814 C812 1.381 . S
C814 C815 1.394 . S
C814 H822 0.931 1_556 S
C815 C814 1.394 . S
C815 C816 1.383 . S
C815 H823 0.929 . S
C816 C815 1.383 . S
C816 C817 1.377 . S
C817 H801 0.930 . S
C817 C816 1.377 . S
C817 C818 1.379 . S
C818 H802 0.931 . S
C818 C812 1.383 . S
C818 C817 1.379 . S
H819 C813 0.959 . S
H820 C813 0.961 . S
H821 C813 0.960 . S
H822 C814 0.931 1_554 S
H823 C815 0.929 . S
H824 C832 0.929 . S
H825 C834 0.930 . S
H826 C836 0.930 . S
H827 C839 0.929 . S
H828 C842 0.930 . S
H829 C844 0.960 . S
H830 C844 0.960 . S
H831 C844 0.960 . S
C832 H824 0.929 . S
C832 C833 1.377 . S
C832 C834 1.384 . S
C833 C832 1.377 . S
C833 C839 1.390 1_455 S
C834 H825 0.930 . S
C834 C832 1.384 . S
C834 C835 1.372 . S
C835 C834 1.372 . S
C835 C836 1.400 1_455 S
C835 C840 1.490 . S
C836 H826 0.930 . S
C836 C835 1.400 1_655 S
C836 C839 1.386 . S
H837 C853 0.894 1_655 S
H838 C854 0.931 1_655 S
C839 H827 0.929 . S
C839 C833 1.390 1_655 S
C839 C836 1.386 . S
C840 C835 1.490 . S
C840 C842 1.395 . S
C840 C843 1.403 1_455 S
H841 C847 0.931 . S
C842 H828 0.930 . S
C842 C840 1.395 . S
C842 C845 1.403 . S
C843 C840 1.403 1_655 S
C843 C844 1.524 . S
C843 C847 1.400 . S
C844 H829 0.960 . S
C844 H830 0.960 . S
C844 H831 0.960 . S
C844 C843 1.524 . S
C845 C842 1.403 . S
C845 C846 1.392 . S
C845 C849 1.495 . S
C846 C845 1.392 . S
C846 C847 1.385 1_455 S
C846 C848 1.478 . S
C847 H841 0.931 . S
C847 C843 1.400 . S
C847 C846 1.385 1_655 S
C848 C846 1.478 . S
C848 C850 1.381 . S
C848 C854 1.383 . S
C849 C845 1.495 . S
C849 H855 0.959 . S
C849 H856 0.961 . S
C849 H857 0.960 . S
C850 C848 1.381 . S
C850 C851 1.394 . S
C850 H858 0.930 . S
C851 C850 1.394 . S
C851 C852 1.383 . S
C851 H859 0.929 . S
C852 C851 1.383 . S
C852 C853 1.411 . S
C853 H837 0.894 1_455 S
C853 C852 1.411 . S
C853 C854 1.382 . S
C854 H838 0.931 1_455 S
C854 C848 1.383 . S
C854 C853 1.382 . S
H855 C849 0.959 . S
H856 C849 0.961 . S
H857 C849 0.960 . S
H858 C850 0.930 . S
H859 C851 0.929 . S
H860 C868 0.929 . S
H861 C870 0.930 . S
H862 C872 0.930 . S
H863 C875 0.929 . S
H864 C878 0.930 . S
H865 C880 0.960 . S
H866 C880 0.960 . S
H867 C880 0.960 1_545 S
C868 H860 0.929 . S
C868 C869 1.377 1_565 S
C868 C870 1.384 . S
C869 C868 1.377 1_545 S
C869 C875 1.390 . S
C870 H861 0.930 . S
C870 C868 1.384 . S
C870 C871 1.372 1_565 S
C871 C870 1.372 1_545 S
C871 C872 1.400 . S
C871 C876 1.490 . S
C872 H862 0.930 . S
C872 C871 1.400 . S
C872 C875 1.386 . S
H873 C889 0.930 . S
H874 C890 0.931 . S
C875 H863 0.929 . S
C875 C869 1.390 . S
C875 C872 1.386 . S
C876 C871 1.490 . S
C876 C878 1.395 . S
C876 C879 1.403 . S
H877 C883 0.930 . S
C878 H864 0.930 . S
C878 C876 1.395 . S
C878 C881 1.403 . S
C879 C876 1.403 . S
C879 C880 1.524 1_545 S
C879 C883 1.400 . S
C880 H865 0.960 . S
C880 H866 0.960 . S
C880 H867 0.960 1_565 S
C880 C879 1.524 1_565 S
C881 C878 1.403 . S
C881 C882 1.392 . S
C881 C885 1.495 . S
C882 C881 1.392 . S
C882 C883 1.385 . S
C882 C884 1.478 . S
C883 H877 0.930 . S
C883 C879 1.400 . S
C883 C882 1.385 . S
C884 C882 1.478 . S
C884 C886 1.381 . S
C884 C890 1.383 . S
C885 C881 1.495 . S
C885 H891 0.959 . S
C885 H892 0.961 . S
C885 H893 0.960 . S
C886 C884 1.381 . S
C886 C887 1.394 . S
C886 H894 0.930 1_545 S
C887 C886 1.394 . S
C887 C888 1.383 . S
C887 H895 0.929 1_545 S
C888 C887 1.383 . S
C888 C889 1.377 . S
C889 H873 0.930 . S
C889 C888 1.377 . S
C889 C890 1.379 . S
C890 H874 0.931 . S
C890 C884 1.383 . S
C890 C889 1.379 . S
H891 C885 0.959 . S
H892 C885 0.961 . S
H893 C885 0.960 . S
H894 C886 0.930 1_565 S
H895 C887 0.929 1_565 S
H896 C904 0.929 . S
H897 C906 0.930 . S
H898 C908 0.930 . S
H899 C911 0.929 . S
H900 C914 0.930 . S
H901 C916 0.960 . S
H902 C916 0.960 . S
H903 C916 0.960 . S
C904 H896 0.929 . S
C904 C905 1.377 . S
C904 C906 1.384 . S
C905 C904 1.377 . S
C905 C911 1.390 . S
C906 H897 0.930 . S
C906 C904 1.384 . S
C906 C907 1.372 . S
C907 C906 1.372 . S
C907 C908 1.400 . S
C907 C912 1.490 . S
C908 H898 0.930 . S
C908 C907 1.400 . S
C908 C911 1.386 . S
H909 C925 0.930 . S
H910 C926 0.931 . S
C911 H899 0.929 . S
C911 C905 1.390 . S
C911 C908 1.386 . S
C912 C907 1.490 . S
C912 C914 1.395 . S
C912 C915 1.403 . S
H913 C919 0.930 . S
C914 H900 0.930 . S
C914 C912 1.395 . S
C914 C917 1.403 . S
C915 C912 1.403 . S
C915 C916 1.524 . S
C915 C919 1.400 . S
C916 H901 0.960 . S
C916 H902 0.960 . S
C916 H903 0.960 . S
C916 C915 1.524 . S
C917 C914 1.403 . S
C917 C918 1.392 . S
C917 C921 1.495 . S
C918 C917 1.392 . S
C918 C919 1.385 . S
C918 C920 1.478 . S
C919 H913 0.930 . S
C919 C915 1.400 . S
C919 C918 1.385 . S
C920 C918 1.478 . S
C920 C922 1.381 . S
C920 C926 1.383 . S
C921 C917 1.495 . S
C921 H927 0.959 . S
C921 H928 0.961 . S
C921 H929 0.960 . S
C922 C920 1.381 . S
C922 C923 1.394 . S
C922 H930 0.930 . S
C923 C922 1.394 . S
C923 C924 1.383 . S
C923 H931 0.929 . S
C924 C923 1.383 . S
C924 C925 1.377 . S
C925 H909 0.930 . S
C925 C924 1.377 . S
C925 C926 1.379 . S
C926 H910 0.931 . S
C926 C920 1.383 . S
C926 C925 1.379 . S
H927 C921 0.959 . S
H928 C921 0.961 . S
H929 C921 0.960 . S
H930 C922 0.930 . S
H931 C923 0.929 . S
H932 C940 0.929 . S
H933 C942 0.930 . S
H934 C944 0.930 . S
H935 C947 0.929 . S
H936 C950 0.930 . S
H937 C952 0.960 . S
H938 C952 0.960 . S
H939 C952 0.960 . S
C940 H932 0.929 . S
C940 C941 1.377 . S
C940 C942 1.384 . S
C941 C940 1.377 . S
C941 C947 1.390 . S
C942 H933 0.930 . S
C942 C940 1.384 . S
C942 C943 1.372 . S
C943 C942 1.372 . S
C943 C944 1.400 . S
C943 C948 1.490 . S
C944 H934 0.930 . S
C944 C943 1.400 . S
C944 C947 1.386 . S
H945 C961 0.930 . S
H946 C962 0.931 . S
C947 H935 0.929 . S
C947 C941 1.390 . S
C947 C944 1.386 . S
C948 C943 1.490 . S
C948 C950 1.395 . S
C948 C951 1.403 . S
H949 C955 0.930 . S
C950 H936 0.930 . S
C950 C948 1.395 . S
C950 C953 1.403 . S
C951 C948 1.403 . S
C951 C952 1.524 . S
C951 C955 1.400 . S
C952 H937 0.960 . S
C952 H938 0.960 . S
C952 H939 0.960 . S
C952 C951 1.524 . S
C953 C950 1.403 . S
C953 C954 1.392 . S
C953 C957 1.495 . S
C954 C953 1.392 . S
C954 C955 1.385 . S
C954 C956 1.478 . S
C955 H949 0.930 . S
C955 C951 1.400 . S
C955 C954 1.385 . S
C956 C954 1.478 . S
C956 C958 1.381 . S
C956 C962 1.383 . S
C957 C953 1.495 . S
C957 H963 0.959 . S
C957 H964 0.961 . S
C957 H965 0.960 . S
C958 C956 1.381 . S
C958 C959 1.394 . S
C958 H966 0.930 . S
C959 C958 1.394 . S
C959 C960 1.383 . S
C959 H967 0.929 . S
C960 C959 1.383 . S
C960 C961 1.377 . S
C961 H945 0.930 . S
C961 C960 1.377 . S
C961 C962 1.379 . S
C962 H946 0.931 . S
C962 C956 1.383 . S
C962 C961 1.379 . S
H963 C957 0.959 . S
H964 C957 0.961 . S
H965 C957 0.960 . S
H966 C958 0.930 . S
H967 C959 0.929 . S
H968 C976 0.929 . S
H969 C978 0.930 . S
H970 C980 0.930 . S
H971 C983 0.929 . S
H972 C986 0.930 . S
H973 C988 0.960 . S
H974 C988 0.960 1_655 S
H975 C988 0.960 . S
C976 H968 0.929 . S
C976 C977 1.377 . S
C976 C978 1.384 . S
C977 C976 1.377 . S
C977 C983 1.390 1_655 S
C978 H969 0.930 . S
C978 C976 1.384 . S
C978 C979 1.372 . S
C979 C978 1.372 . S
C979 C980 1.400 1_655 S
C979 C984 1.490 . S
C980 H970 0.930 . S
C980 C979 1.400 1_455 S
C980 C983 1.386 . S
H981 C997 0.930 . S
H982 C998 0.931 . S
C983 H971 0.929 . S
C983 C977 1.390 1_455 S
C983 C980 1.386 . S
C984 C979 1.490 . S
C984 C986 1.395 . S
C984 C987 1.411 . S
H985 C991 0.930 1_455 S
C986 H972 0.930 . S
C986 C984 1.395 . S
C986 C989 1.403 . S
C987 C984 1.411 . S
C987 C988 1.517 1_655 S
C987 C991 1.402 . S
C988 H973 0.960 . S
C988 H974 0.960 1_455 S
C988 H975 0.960 . S
C988 C987 1.517 1_455 S
C989 C986 1.403 . S
C989 C990 1.392 . S
C989 C993 1.495 . S
C990 C989 1.392 . S
C990 C991 1.385 . S
C990 C992 1.478 . S
C991 H985 0.930 1_655 S
C991 C987 1.402 . S
C991 C990 1.385 . S
C992 C990 1.478 . S
C992 C994 1.381 . S
C992 C998 1.383 1_655 S
C993 C989 1.495 . S
C993 H999 0.959 . S
C993 H1000 0.961 . S
C993 H1001 0.960 . S
C994 C992 1.381 . S
C994 C995 1.394 . S
C994 H1002 0.930 . S
C995 C994 1.394 . S
C995 C996 1.383 . S
C995 H1003 0.929 . S
C996 C995 1.383 . S
C996 C997 1.377 1_655 S
C997 H981 0.930 . S
C997 C996 1.377 1_455 S
C997 C998 1.379 . S
C998 H982 0.931 . S
C998 C992 1.383 1_455 S
C998 C997 1.379 . S
H999 C993 0.959 . S
H1000 C993 0.961 . S
H1001 C993 0.960 . S
H1002 C994 0.930 . S
H1003 C995 0.929 . S
H1004 C1012 0.929 . S
H1005 C1014 0.930 . S
H1006 C1016 0.930 . S
H1007 C1019 0.929 . S
H1008 C1022 0.930 . S
H1009 C1024 0.960 . S
H1010 C1024 0.960 . S
H1011 C1024 0.960 . S
C1012 H1004 0.929 . S
C1012 C1013 1.377 1_545 S
C1012 C1014 1.384 . S
C1013 C1012 1.377 1_565 S
C1013 C1019 1.390 . S
C1014 H1005 0.930 . S
C1014 C1012 1.384 . S
C1014 C1015 1.372 1_545 S
C1015 C1014 1.372 1_565 S
C1015 C1016 1.400 . S
C1015 C1020 1.490 . S
C1016 H1006 0.930 . S
C1016 C1015 1.400 . S
C1016 C1019 1.386 . S
H1017 C1033 0.930 . S
H1018 C1034 0.931 . S
C1019 H1007 0.929 . S
C1019 C1013 1.390 . S
C1019 C1016 1.386 . S
C1020 C1015 1.490 . S
C1020 C1022 1.395 1_565 S
C1020 C1023 1.403 . S
H1021 C1027 0.930 . S
C1022 H1008 0.930 . S
C1022 C1020 1.395 1_545 S
C1022 C1025 1.403 . S
C1023 C1020 1.403 . S
C1023 C1024 1.524 . S
C1023 C1027 1.400 . S
C1024 H1009 0.960 . S
C1024 H1010 0.960 . S
C1024 H1011 0.960 . S
C1024 C1023 1.524 . S
C1025 C1022 1.403 . S
C1025 C1026 1.361 1_545 S
C1025 C1029 1.495 . S
C1026 C1025 1.361 1_565 S
C1026 C1027 1.418 . S
C1026 C1028 1.481 . S
C1027 H1021 0.930 . S
C1027 C1023 1.400 . S
C1027 C1026 1.418 . S
C1028 C1026 1.481 . S
C1028 C1030 1.381 1_565 S
C1028 C1034 1.383 . S
C1029 C1025 1.495 . S
C1029 H1035 0.959 . S
C1029 H1036 0.961 . S
C1029 H1037 0.960 . S
C1030 C1028 1.381 1_545 S
C1030 C1031 1.394 . S
C1030 H1038 0.930 . S
C1031 C1030 1.394 . S
C1031 C1032 1.383 1_545 S
C1031 H1039 0.929 . S
C1032 C1031 1.383 1_565 S
C1032 C1033 1.377 . S
C1033 H1017 0.930 . S
C1033 C1032 1.377 . S
C1033 C1034 1.379 . S
C1034 H1018 0.931 . S
C1034 C1028 1.383 . S
C1034 C1033 1.379 . S
H1035 C1029 0.959 . S
H1036 C1029 0.961 . S
H1037 C1029 0.960 . S
H1038 C1030 0.930 . S
H1039 C1031 0.929 . S
H1040 C1048 0.929 . S
H1041 C1050 0.930 . S
H1042 C1052 0.930 . S
H1043 C1055 0.929 . S
H1044 C1058 0.930 . S
H1045 C1060 0.960 . S
H1046 C1060 0.960 . S
H1047 C1060 0.960 . S
C1048 H1040 0.929 . S
C1048 C1049 1.377 . S
C1048 C1050 1.384 . S
C1049 C1048 1.377 . S
C1049 C1055 1.390 . S
C1050 H1041 0.930 . S
C1050 C1048 1.384 . S
C1050 C1051 1.372 . S
C1051 C1050 1.372 . S
C1051 C1052 1.400 . S
C1051 C1056 1.490 . S
C1052 H1042 0.930 . S
C1052 C1051 1.400 . S
C1052 C1055 1.386 . S
H1053 C1069 0.930 . S
H1054 C1070 0.931 . S
C1055 H1043 0.929 . S
C1055 C1049 1.390 . S
C1055 C1052 1.386 . S
C1056 C1051 1.490 . S
C1056 C1058 1.395 . S
C1056 C1059 1.403 . S
H1057 C1063 0.930 . S
C1058 H1044 0.930 . S
C1058 C1056 1.395 . S
C1058 C1061 1.403 . S
C1059 C1056 1.403 . S
C1059 C1060 1.524 . S
C1059 C1063 1.400 . S
C1060 H1045 0.960 . S
C1060 H1046 0.960 . S
C1060 H1047 0.960 . S
C1060 C1059 1.524 . S
C1061 C1058 1.403 . S
C1061 C1062 1.392 . S
C1061 C1065 1.495 . S
C1062 C1061 1.392 . S
C1062 C1063 1.385 . S
C1062 C1064 1.478 . S
C1063 H1057 0.930 . S
C1063 C1059 1.400 . S
C1063 C1062 1.385 . S
C1064 C1062 1.478 . S
C1064 C1066 1.381 . S
C1064 C1070 1.383 . S
C1065 C1061 1.495 . S
C1065 H1071 0.959 . S
C1065 H1072 0.961 . S
C1065 H1073 0.960 . S
C1066 C1064 1.381 . S
C1066 C1067 1.394 . S
C1066 H1074 0.930 . S
C1067 C1066 1.394 . S
C1067 C1068 1.383 . S
C1067 H1075 0.929 . S
C1068 C1067 1.383 . S
C1068 C1069 1.377 . S
C1069 H1053 0.930 . S
C1069 C1068 1.377 . S
C1069 C1070 1.379 . S
C1070 H1054 0.931 . S
C1070 C1064 1.383 . S
C1070 C1069 1.379 . S
H1071 C1065 0.959 . S
H1072 C1065 0.961 . S
H1073 C1065 0.960 . S
H1074 C1066 0.930 . S
H1075 C1067 0.929 . S
H1076 C1084 0.929 . S
H1077 C1086 0.930 . S
H1078 C1088 0.930 . S
H1079 C1091 0.929 . S
H1080 C1094 0.930 . S
H1081 C1096 0.960 . S
H1082 C1096 0.960 . S
H1083 C1096 0.960 . S
C1084 H1076 0.929 . S
C1084 C1085 1.377 . S
C1084 C1086 1.384 . S
C1085 C1084 1.377 . S
C1085 C1091 1.390 . S
C1086 H1077 0.930 . S
C1086 C1084 1.384 . S
C1086 C1087 1.372 . S
C1087 C1086 1.372 . S
C1087 C1088 1.400 . S
C1087 C1092 1.490 . S
C1088 H1078 0.930 . S
C1088 C1087 1.400 . S
C1088 C1091 1.386 . S
H1089 C1105 0.930 . S
H1090 C1106 0.931 . S
C1091 H1079 0.929 . S
C1091 C1085 1.390 . S
C1091 C1088 1.386 . S
C1092 C1087 1.490 . S
C1092 C1094 1.395 . S
C1092 C1095 1.403 . S
H1093 C1099 0.930 . S
C1094 H1080 0.930 . S
C1094 C1092 1.395 . S
C1094 C1097 1.403 . S
C1095 C1092 1.403 . S
C1095 C1096 1.524 . S
C1095 C1099 1.400 . S
C1096 H1081 0.960 . S
C1096 H1082 0.960 . S
C1096 H1083 0.960 . S
C1096 C1095 1.524 . S
C1097 C1094 1.403 . S
C1097 C1098 1.392 . S
C1097 C1101 1.495 . S
C1098 C1097 1.392 . S
C1098 C1099 1.385 . S
C1098 C1100 1.478 . S
C1099 H1093 0.930 . S
C1099 C1095 1.400 . S
C1099 C1098 1.385 . S
C1100 C1098 1.478 . S
C1100 C1102 1.381 . S
C1100 C1106 1.383 . S
C1101 C1097 1.495 . S
C1101 H1107 0.959 . S
C1101 H1108 0.961 . S
C1101 H1109 0.960 . S
C1102 C1100 1.381 . S
C1102 C1103 1.394 . S
C1102 H1110 0.930 . S
C1103 C1102 1.394 . S
C1103 C1104 1.383 . S
C1103 H1111 0.929 . S
C1104 C1103 1.383 . S
C1104 C1105 1.377 . S
C1105 H1089 0.930 . S
C1105 C1104 1.377 . S
C1105 C1106 1.379 . S
C1106 H1090 0.931 . S
C1106 C1100 1.383 . S
C1106 C1105 1.379 . S
H1107 C1101 0.959 . S
H1108 C1101 0.961 . S
H1109 C1101 0.960 . S
H1110 C1102 0.930 . S
H1111 C1103 0.929 . S
C257 C74 1.665 . S
C276 C98 1.716 . S
C312 C138 1.720 . S
C293 C85 1.663 . S
C348 C178 1.724 . S
C329 C52 1.658 . S
C384 C218 1.725 . S
C365 C63 1.658 . S
C420 C107 1.715 . S
C401 C30 1.652 1_565 S
C437 C41 1.664 . S
C456 C147 1.713 . S
C473 C8 1.662 . S
C492 C187 1.725 . S
C509 C19 1.652 1_655 S
C528 C227 1.713 . S
C564 C104 0.424 . S
C545 C62 0.419 . S
C600 C144 0.387 . S
C581 C73 0.423 . S
C636 C184 0.486 . S
C617 C84 0.407 . S
C653 C51 0.412 . S
C672 C224 0.455 . S
C689 C18 0.485 1_655 S
C708 C95 0.476 . S
C744 C135 0.429 . S
C725 C29 0.496 1_565 S
C780 C175 0.481 . S
C761 C40 0.488 . S
C797 C7 0.486 . S
C816 C215 0.478 . S
C833 C60 1.581 . S
C852 C99 2.030 . S
C869 C71 1.584 . S
C888 C139 2.027 . S
C924 C179 2.015 . S
C905 C82 1.576 . S
C960 C219 2.019 . S
C941 C49 1.579 . S
C977 C16 1.604 1_655 S
C996 C90 2.023 . S
C1032 C130 2.011 . S
C1013 C27 1.602 1_565 S
C1068 C170 2.028 . S
C1049 C38 1.599 . S
C1085 C5 1.603 . S
C1104 C210 2.024 . S
