# Generated by pormake.
# Topology gar, (4,6)-cn, num edge types: 1
# Building blocks:
#     Node 0, Type 0, BuildingBlock: CEKHIL_clean_sbu_0, # of connection points: 4
#     Node 1, Type 0, BuildingBlock: CEKHIL_clean_sbu_0, # of connection points: 4
#     Node 2, Type 0, BuildingBlock: CEKHIL_clean_sbu_0, # of connection points: 4
#     Node 3, Type 0, BuildingBlock: CEKHIL_clean_sbu_0, # of connection points: 4
#     Node 4, Type 0, BuildingBlock: CEKHIL_clean_sbu_0, # of connection points: 4
#     Node 5, Type 0, BuildingBlock: CEKHIL_clean_sbu_0, # of connection points: 4
#     Node 6, Type 0, BuildingBlock: CEKHIL_clean_sbu_0, # of connection points: 4
#     Node 7, Type 0, BuildingBlock: CEKHIL_clean_sbu_0, # of connection points: 4
#     Node 8, Type 0, BuildingBlock: CEKHIL_clean_sbu_0, # of connection points: 4
#     Node 9, Type 0, BuildingBlock: CEKHIL_clean_sbu_0, # of connection points: 4
#     Node 10, Type 0, BuildingBlock: CEKHIL_clean_sbu_0, # of connection points: 4
#     Node 11, Type 0, BuildingBlock: CEKHIL_clean_sbu_0, # of connection points: 4
#     Node 12, Type 0, BuildingBlock: CEKHIL_clean_sbu_0, # of connection points: 4
#     Node 13, Type 0, BuildingBlock: CEKHIL_clean_sbu_0, # of connection points: 4
#     Node 14, Type 0, BuildingBlock: CEKHIL_clean_sbu_0, # of connection points: 4
#     Node 15, Type 0, BuildingBlock: CEKHIL_clean_sbu_0, # of connection points: 4
#     Node 16, Type 0, BuildingBlock: CEKHIL_clean_sbu_0, # of connection points: 4
#     Node 17, Type 0, BuildingBlock: CEKHIL_clean_sbu_0, # of connection points: 4
#     Node 18, Type 0, BuildingBlock: CEKHIL_clean_sbu_0, # of connection points: 4
#     Node 19, Type 0, BuildingBlock: CEKHIL_clean_sbu_0, # of connection points: 4
#     Node 20, Type 0, BuildingBlock: CEKHIL_clean_sbu_0, # of connection points: 4
#     Node 21, Type 0, BuildingBlock: CEKHIL_clean_sbu_0, # of connection points: 4
#     Node 22, Type 0, BuildingBlock: CEKHIL_clean_sbu_0, # of connection points: 4
#     Node 23, Type 0, BuildingBlock: CEKHIL_clean_sbu_0, # of connection points: 4
#     Node 24, Type 1, BuildingBlock: BETDIP_clean_sbu_0, # of connection points: 6
#     Node 25, Type 1, BuildingBlock: BETDIP_clean_sbu_0, # of connection points: 6
#     Node 26, Type 1, BuildingBlock: BETDIP_clean_sbu_0, # of connection points: 6
#     Node 27, Type 1, BuildingBlock: BETDIP_clean_sbu_0, # of connection points: 6
#     Node 28, Type 1, BuildingBlock: BETDIP_clean_sbu_0, # of connection points: 6
#     Node 29, Type 1, BuildingBlock: BETDIP_clean_sbu_0, # of connection points: 6
#     Node 30, Type 1, BuildingBlock: BETDIP_clean_sbu_0, # of connection points: 6
#     Node 31, Type 1, BuildingBlock: BETDIP_clean_sbu_0, # of connection points: 6
#     Node 32, Type 1, BuildingBlock: BETDIP_clean_sbu_0, # of connection points: 6
#     Node 33, Type 1, BuildingBlock: BETDIP_clean_sbu_0, # of connection points: 6
#     Node 34, Type 1, BuildingBlock: BETDIP_clean_sbu_0, # of connection points: 6
#     Node 35, Type 1, BuildingBlock: BETDIP_clean_sbu_0, # of connection points: 6
#     Node 36, Type 1, BuildingBlock: BETDIP_clean_sbu_0, # of connection points: 6
#     Node 37, Type 1, BuildingBlock: BETDIP_clean_sbu_0, # of connection points: 6
#     Node 38, Type 1, BuildingBlock: BETDIP_clean_sbu_0, # of connection points: 6
#     Node 39, Type 1, BuildingBlock: BETDIP_clean_sbu_0, # of connection points: 6
#     Edge 40, Type (0, 1), BuildingBlock: KIFKEQ_clean_linker_1, # of connection points: 2
#     Edge 41, Type (0, 1), BuildingBlock: KIFKEQ_clean_linker_1, # of connection points: 2
#     Edge 42, Type (0, 1), BuildingBlock: KIFKEQ_clean_linker_1, # of connection points: 2
#     Edge 43, Type (0, 1), BuildingBlock: KIFKEQ_clean_linker_1, # of connection points: 2
#     Edge 44, Type (0, 1), BuildingBlock: KIFKEQ_clean_linker_1, # of connection points: 2
#     Edge 45, Type (0, 1), BuildingBlock: KIFKEQ_clean_linker_1, # of connection points: 2
#     Edge 46, Type (0, 1), BuildingBlock: KIFKEQ_clean_linker_1, # of connection points: 2
#     Edge 47, Type (0, 1), BuildingBlock: KIFKEQ_clean_linker_1, # of connection points: 2
#     Edge 48, Type (0, 1), BuildingBlock: KIFKEQ_clean_linker_1, # of connection points: 2
#     Edge 49, Type (0, 1), BuildingBlock: KIFKEQ_clean_linker_1, # of connection points: 2
#     Edge 50, Type (0, 1), BuildingBlock: KIFKEQ_clean_linker_1, # of connection points: 2
#     Edge 51, Type (0, 1), BuildingBlock: KIFKEQ_clean_linker_1, # of connection points: 2
#     Edge 52, Type (0, 1), BuildingBlock: KIFKEQ_clean_linker_1, # of connection points: 2
#     Edge 53, Type (0, 1), BuildingBlock: KIFKEQ_clean_linker_1, # of connection points: 2
#     Edge 54, Type (0, 1), BuildingBlock: KIFKEQ_clean_linker_1, # of connection points: 2
#     Edge 55, Type (0, 1), BuildingBlock: KIFKEQ_clean_linker_1, # of connection points: 2
#     Edge 56, Type (0, 1), BuildingBlock: KIFKEQ_clean_linker_1, # of connection points: 2
#     Edge 57, Type (0, 1), BuildingBlock: KIFKEQ_clean_linker_1, # of connection points: 2
#     Edge 58, Type (0, 1), BuildingBlock: KIFKEQ_clean_linker_1, # of connection points: 2
#     Edge 59, Type (0, 1), BuildingBlock: KIFKEQ_clean_linker_1, # of connection points: 2
#     Edge 60, Type (0, 1), BuildingBlock: KIFKEQ_clean_linker_1, # of connection points: 2
#     Edge 61, Type (0, 1), BuildingBlock: KIFKEQ_clean_linker_1, # of connection points: 2
#     Edge 62, Type (0, 1), BuildingBlock: KIFKEQ_clean_linker_1, # of connection points: 2
#     Edge 63, Type (0, 1), BuildingBlock: KIFKEQ_clean_linker_1, # of connection points: 2
#     Edge 64, Type (0, 1), BuildingBlock: KIFKEQ_clean_linker_1, # of connection points: 2
#     Edge 65, Type (0, 1), BuildingBlock: KIFKEQ_clean_linker_1, # of connection points: 2
#     Edge 66, Type (0, 1), BuildingBlock: KIFKEQ_clean_linker_1, # of connection points: 2
#     Edge 67, Type (0, 1), BuildingBlock: KIFKEQ_clean_linker_1, # of connection points: 2
#     Edge 68, Type (0, 1), BuildingBlock: KIFKEQ_clean_linker_1, # of connection points: 2
#     Edge 69, Type (0, 1), BuildingBlock: KIFKEQ_clean_linker_1, # of connection points: 2
#     Edge 70, Type (0, 1), BuildingBlock: KIFKEQ_clean_linker_1, # of connection points: 2
#     Edge 71, Type (0, 1), BuildingBlock: KIFKEQ_clean_linker_1, # of connection points: 2
#     Edge 72, Type (0, 1), BuildingBlock: KIFKEQ_clean_linker_1, # of connection points: 2
#     Edge 73, Type (0, 1), BuildingBlock: KIFKEQ_clean_linker_1, # of connection points: 2
#     Edge 74, Type (0, 1), BuildingBlock: KIFKEQ_clean_linker_1, # of connection points: 2
#     Edge 75, Type (0, 1), BuildingBlock: KIFKEQ_clean_linker_1, # of connection points: 2
#     Edge 76, Type (0, 1), BuildingBlock: KIFKEQ_clean_linker_1, # of connection points: 2
#     Edge 77, Type (0, 1), BuildingBlock: KIFKEQ_clean_linker_1, # of connection points: 2
#     Edge 78, Type (0, 1), BuildingBlock: KIFKEQ_clean_linker_1, # of connection points: 2
#     Edge 79, Type (0, 1), BuildingBlock: KIFKEQ_clean_linker_1, # of connection points: 2
#     Edge 80, Type (0, 1), BuildingBlock: KIFKEQ_clean_linker_1, # of connection points: 2
#     Edge 81, Type (0, 1), BuildingBlock: KIFKEQ_clean_linker_1, # of connection points: 2
#     Edge 82, Type (0, 1), BuildingBlock: KIFKEQ_clean_linker_1, # of connection points: 2
#     Edge 83, Type (0, 1), BuildingBlock: KIFKEQ_clean_linker_1, # of connection points: 2
#     Edge 84, Type (0, 1), BuildingBlock: KIFKEQ_clean_linker_1, # of connection points: 2
#     Edge 85, Type (0, 1), BuildingBlock: KIFKEQ_clean_linker_1, # of connection points: 2
#     Edge 86, Type (0, 1), BuildingBlock: KIFKEQ_clean_linker_1, # of connection points: 2
#     Edge 87, Type (0, 1), BuildingBlock: KIFKEQ_clean_linker_1, # of connection points: 2
#     Edge 88, Type (0, 1), BuildingBlock: KIFKEQ_clean_linker_1, # of connection points: 2
#     Edge 89, Type (0, 1), BuildingBlock: KIFKEQ_clean_linker_1, # of connection points: 2
#     Edge 90, Type (0, 1), BuildingBlock: KIFKEQ_clean_linker_1, # of connection points: 2
#     Edge 91, Type (0, 1), BuildingBlock: KIFKEQ_clean_linker_1, # of connection points: 2
#     Edge 92, Type (0, 1), BuildingBlock: KIFKEQ_clean_linker_1, # of connection points: 2
#     Edge 93, Type (0, 1), BuildingBlock: KIFKEQ_clean_linker_1, # of connection points: 2
#     Edge 94, Type (0, 1), BuildingBlock: KIFKEQ_clean_linker_1, # of connection points: 2
#     Edge 95, Type (0, 1), BuildingBlock: KIFKEQ_clean_linker_1, # of connection points: 2
#     Edge 96, Type (0, 1), BuildingBlock: KIFKEQ_clean_linker_1, # of connection points: 2
#     Edge 97, Type (0, 1), BuildingBlock: KIFKEQ_clean_linker_1, # of connection points: 2
#     Edge 98, Type (0, 1), BuildingBlock: KIFKEQ_clean_linker_1, # of connection points: 2
#     Edge 99, Type (0, 1), BuildingBlock: KIFKEQ_clean_linker_1, # of connection points: 2
#     Edge 100, Type (0, 1), BuildingBlock: KIFKEQ_clean_linker_1, # of connection points: 2
#     Edge 101, Type (0, 1), BuildingBlock: KIFKEQ_clean_linker_1, # of connection points: 2
#     Edge 102, Type (0, 1), BuildingBlock: KIFKEQ_clean_linker_1, # of connection points: 2
#     Edge 103, Type (0, 1), BuildingBlock: KIFKEQ_clean_linker_1, # of connection points: 2
#     Edge 104, Type (0, 1), BuildingBlock: KIFKEQ_clean_linker_1, # of connection points: 2
#     Edge 105, Type (0, 1), BuildingBlock: KIFKEQ_clean_linker_1, # of connection points: 2
#     Edge 106, Type (0, 1), BuildingBlock: KIFKEQ_clean_linker_1, # of connection points: 2
#     Edge 107, Type (0, 1), BuildingBlock: KIFKEQ_clean_linker_1, # of connection points: 2
#     Edge 108, Type (0, 1), BuildingBlock: KIFKEQ_clean_linker_1, # of connection points: 2
#     Edge 109, Type (0, 1), BuildingBlock: KIFKEQ_clean_linker_1, # of connection points: 2
#     Edge 110, Type (0, 1), BuildingBlock: KIFKEQ_clean_linker_1, # of connection points: 2
#     Edge 111, Type (0, 1), BuildingBlock: KIFKEQ_clean_linker_1, # of connection points: 2
#     Edge 112, Type (0, 1), BuildingBlock: KIFKEQ_clean_linker_1, # of connection points: 2
#     Edge 113, Type (0, 1), BuildingBlock: KIFKEQ_clean_linker_1, # of connection points: 2
#     Edge 114, Type (0, 1), BuildingBlock: KIFKEQ_clean_linker_1, # of connection points: 2
#     Edge 115, Type (0, 1), BuildingBlock: KIFKEQ_clean_linker_1, # of connection points: 2
#     Edge 116, Type (0, 1), BuildingBlock: KIFKEQ_clean_linker_1, # of connection points: 2
#     Edge 117, Type (0, 1), BuildingBlock: KIFKEQ_clean_linker_1, # of connection points: 2
#     Edge 118, Type (0, 1), BuildingBlock: KIFKEQ_clean_linker_1, # of connection points: 2
#     Edge 119, Type (0, 1), BuildingBlock: KIFKEQ_clean_linker_1, # of connection points: 2
#     Edge 120, Type (0, 1), BuildingBlock: KIFKEQ_clean_linker_1, # of connection points: 2
#     Edge 121, Type (0, 1), BuildingBlock: KIFKEQ_clean_linker_1, # of connection points: 2
#     Edge 122, Type (0, 1), BuildingBlock: KIFKEQ_clean_linker_1, # of connection points: 2
#     Edge 123, Type (0, 1), BuildingBlock: KIFKEQ_clean_linker_1, # of connection points: 2
#     Edge 124, Type (0, 1), BuildingBlock: KIFKEQ_clean_linker_1, # of connection points: 2
#     Edge 125, Type (0, 1), BuildingBlock: KIFKEQ_clean_linker_1, # of connection points: 2
#     Edge 126, Type (0, 1), BuildingBlock: KIFKEQ_clean_linker_1, # of connection points: 2
#     Edge 127, Type (0, 1), BuildingBlock: KIFKEQ_clean_linker_1, # of connection points: 2
#     Edge 128, Type (0, 1), BuildingBlock: KIFKEQ_clean_linker_1, # of connection points: 2
#     Edge 129, Type (0, 1), BuildingBlock: KIFKEQ_clean_linker_1, # of connection points: 2
#     Edge 130, Type (0, 1), BuildingBlock: KIFKEQ_clean_linker_1, # of connection points: 2
#     Edge 131, Type (0, 1), BuildingBlock: KIFKEQ_clean_linker_1, # of connection points: 2
#     Edge 132, Type (0, 1), BuildingBlock: KIFKEQ_clean_linker_1, # of connection points: 2
#     Edge 133, Type (0, 1), BuildingBlock: KIFKEQ_clean_linker_1, # of connection points: 2
#     Edge 134, Type (0, 1), BuildingBlock: KIFKEQ_clean_linker_1, # of connection points: 2
#     Edge 135, Type (0, 1), BuildingBlock: KIFKEQ_clean_linker_1, # of connection points: 2
# Relax obj value: 0.178
# Max RMSD: 0.300
# Mean RMSD: 0.148
data_MOF--net-gar--node1-CEKHIL_clean_sbu_0--node2-BETDIP_clean_sbu_0--edge1-KIFKEQ_clean_linker_1
_symmetry_space_group_name_H-M    P1
_symmetry_Int_Tables_number       1
_symmetry_cell_setting            triclinic
loop_
_symmetry_equiv_pos_as_xyz
'x, y, z'
_cell_length_a     64.549729
_cell_length_b     56.934358
_cell_length_c     53.926465
_cell_angle_alpha  96.582442
_cell_angle_beta   98.344718
_cell_angle_gamma 100.48747
loop_
_atom_site_label
_atom_site_type_symbol
_atom_site_fract_x
_atom_site_fract_y
_atom_site_fract_z
_atom_type_partial_charge
Co0 Co 0.05325 0.33235 0.39868 0.0
O1 O 0.08229 0.33985 0.39326 0.0
O2 O 0.05429 0.32525 0.36296 0.0
C3 C 0.05422 0.36586 0.42553 0.0
O4 O 1.02112 0.32327 0.39724 0.0
Co5 Co 0.04319 0.32583 0.45268 0.0
O6 O 1.01402 0.32862 0.43697 0.0
C7 C 0.05953 0.28855 0.42306 0.0
C8 C 0.07494 0.33209 0.36945 0.0
C9 C 1.00808 0.32479 0.413 0.0
O10 O 0.05628 0.29854 0.40309 0.0
O11 O 0.05738 0.29786 0.44508 0.0
O12 O 0.0511 0.3664 0.40122 0.0
O13 O 0.05872 0.34626 0.4325 0.0
Co14 Co 0.06952 0.77763 0.71733 0.0
O15 O 0.04004 0.77888 0.71764 0.0
O16 O 0.05884 0.75989 0.7433 0.0
C17 C 0.0809 0.81747 0.71717 0.0
O18 O 0.10064 0.77353 0.7219 0.0
Co19 Co 0.08825 0.79356 0.66966 0.0
O20 O 0.1148 0.78798 0.68936 0.0
C21 C 0.06083 0.74557 0.66607 0.0
C22 C 0.04093 0.7668 0.73654 0.0
C23 C 0.11634 0.77854 0.70974 0.0
O24 O 0.06128 0.74798 0.69029 0.0
O25 O 0.06791 0.76294 0.65448 0.0
O26 O 0.0785 0.8096 0.7384 0.0
O27 O 0.07406 0.80177 0.69719 0.0
Co28 Co 0.54818 0.83234 0.91286 0.0
O29 O 0.5772 0.82838 0.91457 0.0
O30 O 0.55526 0.82927 0.87915 0.0
C31 C 0.55468 0.86254 0.9453 0.0
O32 O 0.51753 0.83694 0.90399 0.0
Co33 Co 0.52352 0.82489 0.95785 0.0
O34 O 0.50435 0.84323 0.93996 0.0
C35 C 0.52708 0.78281 0.92202 0.0
C36 C 0.57406 0.82723 0.89011 0.0
C37 C 0.50317 0.84318 0.91618 0.0
O38 O 0.53797 0.79643 0.90911 0.0
O39 O 0.52052 0.79055 0.94211 0.0
O40 O 0.5578 0.86709 0.92288 0.0
O41 O 0.5496 0.84007 0.94772 0.0
Co42 Co 0.5679 0.27712 0.21393 0.0
O43 O 0.53746 0.27351 0.21121 0.0
O44 O 0.5577 0.25783 0.2389 0.0
C45 C 0.5747 0.31721 0.21366 0.0
O46 O 0.60008 0.27834 0.22241 0.0
Co47 Co 0.5895 0.29614 0.16961 0.0
O48 O 0.61579 0.29945 0.1948 0.0
C49 C 0.56527 0.24615 0.16328 0.0
C50 C 0.53888 0.26177 0.23038 0.0
C51 C 0.61677 0.28922 0.21464 0.0
O52 O 0.56418 0.24785 0.18715 0.0
O53 O 0.57249 0.26411 0.15258 0.0
O54 O 0.57197 0.30888 0.2346 0.0
O55 O 0.57101 0.30134 0.19368 0.0
Co56 Co 0.09001 0.8142 0.17369 0.0
O57 O 0.05905 0.81067 0.167 0.0
O58 O 0.07727 0.80413 0.20242 0.0
C59 C 0.0962 0.85076 0.1589 0.0
O60 O 0.12176 0.81638 0.18909 0.0
Co61 Co 0.1187 0.81834 0.13319 0.0
O62 O 0.14343 0.82603 0.16129 0.0
C63 C 0.09351 0.77025 0.13759 0.0
C64 C 0.05881 0.80499 0.18961 0.0
C65 C 0.14066 0.82174 0.18335 0.0
O66 O 0.08755 0.77928 0.15786 0.0
O67 O 0.10458 0.78327 0.12439 0.0
O68 O 0.093 0.84943 0.18199 0.0
O69 O 0.0952 0.8302 0.1454 0.0
Co70 Co 0.53256 0.77983 0.4506 0.0
O71 O 0.56352 0.78366 0.4559 0.0
O72 O 0.54235 0.76745 0.41996 0.0
C73 C 0.53241 0.81814 0.46824 0.0
O74 O 0.5 0.77469 0.4367 0.0
Co75 Co 0.50748 0.78355 0.49454 0.0
O76 O 0.48347 0.78641 0.46846 0.0
C77 C 0.52479 0.7396 0.48401 0.0
C78 C 0.56178 0.77442 0.43238 0.0
C79 C 0.48331 0.78011 0.44499 0.0
O80 O 0.53007 0.74696 0.4635 0.0
O81 O 0.51665 0.75233 0.49964 0.0
O82 O 0.53524 0.81345 0.44498 0.0
O83 O 0.5314 0.79999 0.48078 0.0
Co84 Co 0.58934 0.31572 0.67378 0.0
O85 O 0.55837 0.31213 0.66745 0.0
O86 O 0.57693 0.30527 0.70251 0.0
C87 C 0.59549 0.35258 0.65967 0.0
O88 O 0.62113 0.31795 0.68887 0.0
Co89 Co 0.61766 0.32006 0.63302 0.0
O90 O 0.64255 0.32783 0.66089 0.0
C91 C 0.59273 0.27187 0.63736 0.0
C92 C 0.55838 0.30625 0.69002 0.0
C93 C 0.63996 0.32346 0.68297 0.0
O94 O 0.58689 0.28092 0.65769 0.0
O95 O 0.60371 0.28488 0.62408 0.0
O96 O 0.59217 0.35075 0.68263 0.0
O97 O 0.59443 0.33223 0.64567 0.0
Co98 Co 0.03053 0.27891 0.95104 0.0
O99 O 0.06146 0.28299 0.95662 0.0
O100 O 0.04066 0.26685 0.92042 0.0
C101 C 0.03026 0.31707 0.96897 0.0
O102 O 0.99797 0.27355 0.93716 0.0
Co103 Co 1.00563 0.2825 0.99522 0.0
O104 O 0.98126 0.28448 0.96908 0.0
C105 C 1.02505 0.23993 0.98572 0.0
C106 C 0.06001 0.27388 0.93313 0.0
C107 C 0.98116 0.27849 0.94556 0.0
O108 O 0.02822 0.24601 0.96393 0.0
O109 O 1.01783 0.25332 1.00174 0.0
O110 O 0.03288 0.31267 0.94559 0.0
O111 O 0.02942 0.2988 0.98125 0.0
Co112 Co 0.42911 0.06876 0.30712 0.0
O113 O 0.432 0.10541 0.31049 0.0
O114 O 0.40217 0.08115 0.29584 0.0
C115 C 0.44832 0.06718 0.3484 0.0
O116 O 0.41565 0.03088 0.30294 0.0
Co117 Co 0.46384 0.03834 0.31013 0.0
O118 O 0.4415 1.0114 0.31604 0.0
C119 C 0.45592 0.05902 0.26248 0.0
C120 C 0.41165 0.10363 0.30245 0.0
C121 C 0.42171 1.01138 0.30955 0.0
O122 O 0.43929 0.06638 0.27044 0.0
O123 O 0.46827 0.049 0.27669 0.0
O124 O 0.42874 0.07054 0.34493 0.0
O125 O 0.45591 0.06637 0.32752 0.0
Co126 Co 0.28002 0.16909 0.53321 0.0
O127 O 0.31102 0.17449 0.53601 0.0
O128 O 0.29083 0.14059 0.54154 0.0
C129 C 0.27522 0.18575 0.49653 0.0
O130 O 0.24772 0.15535 0.53134 0.0
Co131 Co 0.2542 0.20962 0.53317 0.0
O132 O 0.2281 0.18379 0.52683 0.0
C133 C 0.28084 0.20349 0.58053 0.0
C134 C 0.30987 0.15249 0.54078 0.0
C135 C 0.22947 0.16199 0.52859 0.0
O136 O 0.28292 0.18254 0.57042 0.0
O137 O 0.27201 0.21788 0.56797 0.0
O138 O 0.27728 0.16339 0.49595 0.0
O139 O 0.2766 0.19727 0.51892 0.0
Co140 Co 0.16563 0.07206 0.83857 0.0
O141 O 0.15762 0.03716 0.83189 0.0
O142 O 0.18811 0.05907 0.82599 0.0
C143 C 0.15505 0.07526 0.87684 0.0
O144 O 0.18134 0.1071 0.84423 0.0
Co145 Co 0.1358 0.10691 0.84534 0.0
O146 O 0.16118 0.13369 0.85389 0.0
C147 C 0.13639 0.08351 0.7939 0.0
C148 C 0.17622 0.0379 0.82505 0.0
C149 C 0.17912 0.12881 0.85061 0.0
O150 O 0.15208 0.07417 0.80287 0.0
O151 O 0.12694 0.0963 0.80784 0.0
O152 O 0.1737 0.0706 0.87444 0.0
O153 O 0.14301 0.07726 0.85606 0.0
Co154 Co 0.25729 0.89791 1.01027 0.0
O155 O 0.23529 0.89888 0.03075 0.0
O156 O 0.26408 0.92767 0.03327 0.0
C157 C 0.23612 0.88502 0.97242 0.0
O158 O 0.28291 0.90407 0.99261 0.0
Co159 Co 0.26281 0.85047 0.97938 0.0
O160 O 0.2862 0.87142 0.96704 0.0
C161 C 0.27697 0.86005 0.0346 0.0
C162 C 0.2464 0.91995 0.04133 0.0
C163 C 0.29242 0.89358 0.97656 0.0
O164 O 0.27368 0.88172 0.03549 0.0
O165 O 0.27148 0.84421 1.01476 0.0
O166 O 0.23999 0.90776 0.98188 0.0
O167 O 0.24302 0.87091 0.98725 0.0
Co168 Co 0.33218 0.41773 0.08274 0.0
O169 O 0.30132 0.41123 0.08018 0.0
O170 O 0.3222 0.44664 0.09494 0.0
C171 C 0.33178 0.39915 0.04304 0.0
O172 O 0.36455 0.43244 0.0865 0.0
Co173 Co 0.35809 0.3774 0.07841 0.0
O174 O 0.38177 0.4033 0.07441 0.0
C175 C 0.34079 0.38776 0.12545 0.0
C176 C 0.30287 0.4338 0.08884 0.0
C177 C 0.38149 0.42548 0.08066 0.0
O178 O 0.33509 0.40675 0.11777 0.0
O179 O 0.349 0.37324 0.11182 0.0
O180 O 0.32918 0.4213 0.04675 0.0
O181 O 0.33338 0.38861 0.06298 0.0
Co182 Co 0.86502 0.19929 0.10152 0.0
O183 O 0.89324 0.19746 0.09567 0.0
O184 O 0.87377 0.17269 0.1163 0.0
C185 C 0.85091 0.20322 0.06222 0.0
O186 O 0.83501 0.19504 0.10978 0.0
Co187 Co 0.8476 0.24611 0.09469 0.0
O188 O 0.81977 0.22447 0.09523 0.0
C189 C 0.87785 0.24466 0.14055 0.0
C190 C 0.89117 0.1784 0.10691 0.0
C191 C 0.81861 0.2045 0.10405 0.0
O192 O 0.87657 0.22191 0.13407 0.0
O193 O 0.86943 0.25797 0.1261 0.0
O194 O 0.85286 0.18204 0.06773 0.0
O195 O 0.86038 0.22124 0.07932 0.0
Co196 Co 0.18461 0.51659 0.32959 0.0
O197 O 0.18139 0.47978 0.32713 0.0
O198 O 0.21058 0.50258 0.32333 0.0
C199 C 0.16775 0.52227 0.36712 0.0
O200 O 0.1986 0.55428 0.33189 0.0
Co201 Co 0.1512 0.54882 0.3295 0.0
O202 O 0.17477 0.57777 0.33703 0.0
C203 C 0.15596 0.5242 0.27934 0.0
C204 C 0.2012 0.48057 0.32417 0.0
C205 C 0.19381 0.57576 0.33507 0.0
O206 O 0.17203 0.51539 0.29023 0.0
O207 O 0.14536 0.53626 0.29243 0.0
O208 O 0.18734 0.51903 0.3683 0.0
O209 O 0.159 0.52139 0.34391 0.0
Co210 Co 0.82912 0.91302 0.577 0.0
O211 O 0.79829 0.9071 0.57553 0.0
O212 O 0.82004 0.9415 0.59213 0.0
C213 C 0.82696 0.8966 0.53607 0.0
O214 O 0.86154 0.92727 0.58044 0.0
Co215 Co 0.85472 0.87305 0.56623 0.0
O216 O 0.8765 0.89997 0.55984 0.0
C217 C 0.83865 0.87922 0.61518 0.0
C218 C 0.80047 0.92937 0.58576 0.0
C219 C 0.87714 0.92143 0.57009 0.0
O220 O 0.83291 0.89916 0.61045 0.0
O221 O 0.84623 0.8661 0.59927 0.0
O222 O 0.8251 0.91888 0.54148 0.0
O223 O 0.82937 0.88505 0.5551 0.0
Co224 Co 0.95248 1.01721 0.28277 0.0
O225 O 0.95908 0.05215 0.28547 0.0
O226 O 0.92805 0.0286 0.26777 0.0
C227 C 0.96679 1.01555 0.32324 0.0
O228 O 0.93799 0.9816 0.27755 0.0
Co229 Co 0.98527 0.98467 0.28943 0.0
O230 O 0.96071 0.95873 0.29139 0.0
C231 C 0.9798 1.00736 0.2429 0.0
C232 C 0.93944 0.05027 0.27437 0.0
C233 C 0.94185 0.96136 0.28341 0.0
O234 O 0.9632 1.01438 0.24931 0.0
O235 O 0.99147 0.99653 0.25705 0.0
O236 O 0.94769 1.01989 0.31776 0.0
O237 O 0.97711 1.01366 0.30449 0.0
Co238 Co 0.34861 0.69282 0.59169 0.0
O239 O 0.37279 0.69238 0.57486 0.0
O240 O 0.35705 0.66231 0.59283 0.0
C241 C 0.32825 0.70747 0.56247 0.0
O242 O 0.32294 0.6863 0.60926 0.0
Co243 Co 0.33612 0.74167 0.60903 0.0
O244 O 0.30984 0.72021 0.61491 0.0
C245 C 0.3738 0.72853 0.63638 0.0
C246 C 0.37152 0.67039 0.57975 0.0
C247 C 0.30851 0.69764 0.61535 0.0
O248 O 0.36764 0.70667 0.62513 0.0
O249 O 0.36546 0.7459 0.62924 0.0
O250 O 0.32931 0.68479 0.55922 0.0
O251 O 0.34169 0.72084 0.58102 0.0
Co252 Co 0.45087 0.51566 0.78252 0.0
O253 O 0.4566 0.55066 0.78725 0.0
O254 O 0.42588 0.52688 0.76885 0.0
C255 C 0.46571 0.51275 0.82243 0.0
O256 O 0.4371 0.47977 0.77555 0.0
Co257 Co 0.4843 0.48396 0.78706 0.0
O258 O 0.4603 0.45759 0.78967 0.0
C259 C 0.47799 0.50831 0.74172 0.0
C260 C 0.43678 0.54862 0.77672 0.0
C261 C 0.44131 0.45973 0.7816 0.0
O262 O 0.46153 0.51512 0.74891 0.0
O263 O 0.48972 0.49683 0.75495 0.0
O264 O 0.44623 0.51609 0.81751 0.0
O265 O 0.47592 0.5122 0.80349 0.0
Co266 Co 0.6868 1.01705 0.8317 0.0
O267 O 0.68398 0.9804 0.83004 0.0
O268 O 0.71287 1.00335 0.82544 0.0
C269 C 0.67035 1.02344 0.86939 0.0
O270 O 0.7004 0.05462 0.83302 0.0
Co271 Co 0.65302 0.04847 0.83002 0.0
O272 O 0.67623 0.0778 0.83721 0.0
C273 C 0.65758 1.02246 0.7808 0.0
C274 C 0.70372 0.98136 0.82671 0.0
C275 C 0.69536 0.07596 0.83558 0.0
O276 O 0.67396 1.01465 0.79238 0.0
O277 O 0.64669 0.0348 0.79309 0.0
O278 O 0.68999 1.02043 0.87041 0.0
O279 O 0.66121 1.02188 0.84615 0.0
Co280 Co 0.77942 0.66805 0.02685 0.0
O281 O 0.81045 0.67406 0.03062 0.0
O282 O 0.79055 0.64081 0.03825 0.0
C283 C 0.77514 0.68146 0.98833 0.0
O284 O 0.74719 0.6538 0.02455 0.0
Co285 Co 0.75243 0.70716 0.02114 0.0
O286 O 0.72691 0.68078 1.01553 0.0
C287 C 0.77683 0.70442 0.07153 0.0
C288 C 0.80952 0.65268 0.03712 0.0
C289 C 0.72871 0.65966 0.01983 0.0
O290 O 0.78131 0.68409 0.06307 0.0
O291 O 0.76718 0.71693 0.05719 0.0
O292 O 0.77758 0.65949 0.99001 0.0
O293 O 0.7758 0.69458 1.00967 0.0
Co294 Co 0.92822 0.56847 0.80479 0.0
O295 O 0.93166 0.6051 0.8079 0.0
O296 O 0.90146 0.58122 0.79387 0.0
C297 C 0.94765 0.56688 0.84592 0.0
O298 O 0.91443 0.53078 0.80101 0.0
Co299 Co 0.96252 0.53754 0.80741 0.0
O300 O 0.94012 0.51109 0.81411 0.0
C301 C 0.95415 0.55797 0.75958 0.0
C302 C 0.9113 0.6036 0.80019 0.0
C303 C 0.92037 0.51131 0.80783 0.0
O304 O 0.93775 0.56559 0.76779 0.0
O305 O 0.96656 0.54795 0.77374 0.0
O306 O 0.92818 0.57059 0.84266 0.0
O307 O 0.95507 0.56581 0.82493 0.0
Co308 Co 0.76592 0.39124 0.51306 0.0
O309 O 0.74618 0.39108 0.53665 0.0
O310 O 0.7712 0.42237 0.53337 0.0
C311 C 0.74219 0.37307 0.47839 0.0
O312 O 0.78851 0.39912 0.49119 0.0
Co313 Co 0.77457 0.34462 0.48403 0.0
O314 O 0.79333 0.36656 0.4667 0.0
C315 C 0.79417 0.36035 0.53781 0.0
C316 C 0.75546 0.41354 0.54428 0.0
C317 C 0.79744 0.38923 0.47412 0.0
O318 O 0.78702 0.38004 0.53799 0.0
O319 O 0.78946 0.34338 0.51895 0.0
O320 O 0.74427 0.39606 0.48584 0.0
O321 O 0.7528 0.36168 0.49335 0.0
Co322 Co 0.66391 0.57271 0.33852 0.0
O323 O 0.65603 0.53784 0.33209 0.0
O324 O 0.68648 0.55964 0.32604 0.0
C325 C 0.65341 0.57553 0.37691 0.0
O326 O 0.67937 0.60787 0.34396 0.0
Co327 Co 0.6337 0.60705 0.34579 0.0
O328 O 0.65889 0.6341 0.35367 0.0
C329 C 0.6338 0.58333 0.29421 0.0
C330 C 0.67475 0.53846 0.32566 0.0
C331 C 0.67689 0.62951 0.35017 0.0
O332 O 0.65017 0.57487 0.30285 0.0
O333 O 0.62402 0.59526 0.30859 0.0
O334 O 0.67216 0.57129 0.3744 0.0
O335 O 0.6413 0.57754 0.3562 0.0
Tb336 Tb 0.05037 0.02804 0.04602 0.0
Tb337 Tb 0.0888 0.05903 0.0794 0.0
C338 C 1.01201 1.01061 0.02744 0.0
C339 C 0.99346 1.02237 0.02697 0.0
C340 C 0.97794 1.015 0.04178 0.0
C341 C 0.96463 0.03042 0.04889 0.0
C342 C 0.96672 0.05336 0.04124 0.0
C343 C 0.98052 0.05953 0.0241 0.0
C344 C 0.99369 0.04406 0.01686 0.0
C345 C 0.08492 0.03349 0.02488 0.0
C346 C 0.05875 0.08617 0.04862 0.0
C347 C 0.12669 0.07652 0.1004 0.0
C348 C 0.14362 0.06537 0.11245 0.0
C349 C 0.16407 0.07075 0.1061 0.0
C350 C 0.17865 0.05591 0.11146 0.0
C351 C 0.17287 0.03538 0.1231 0.0
C352 C 0.15317 0.03145 0.1317 0.0
C353 C 0.13864 0.04637 0.12643 0.0
C354 C 0.05361 0.05351 0.09948 0.0
C355 C 0.0803 1.00078 0.07753 0.0
O356 O 1.02077 1.00835 0.05025 0.0
O357 O 0.02635 1.0183 1.01376 0.0
O358 O 0.07931 0.04931 0.03939 0.0
O359 O 0.07017 1.01396 0.02091 0.0
O360 O 0.04468 0.06528 0.04396 0.0
O361 O 0.07842 0.08767 0.06063 0.0
O362 O 0.12096 0.06939 0.07601 0.0
O363 O 0.11022 0.07719 0.11188 0.0
O364 O 0.05993 0.0379 0.08566 0.0
O365 O 0.06812 0.07324 0.10378 0.0
O366 O 0.09342 1.02214 0.08502 0.0
O367 O 0.06183 0.99865 0.06238 0.0
H368 H 0.97744 0.99831 0.04974 0.0
H369 H 0.95405 0.02523 0.06205 0.0
H370 H 0.98205 0.07696 0.01753 0.0
H371 H 1.0052 0.05 1.00501 0.0
H372 H 0.16818 0.0853 0.09525 0.0
H373 H 0.19365 0.05928 0.10444 0.0
H374 H 0.14846 1.01589 0.14095 0.0
H375 H 0.12299 0.042 0.13172 0.0
Tb376 Tb 0.31083 0.7833 0.29208 0.0
Tb377 Tb 0.30199 0.80356 0.34156 0.0
C378 C 0.30805 0.7747 0.24515 0.0
C379 C 0.32037 0.78569 0.22703 0.0
C380 C 0.322 0.81029 0.22505 0.0
C381 C 0.33064 0.81985 0.20536 0.0
C382 C 0.33819 0.80515 0.18731 0.0
C383 C 0.33874 0.78116 0.19111 0.0
C384 C 0.32963 0.77143 0.21063 0.0
C385 C 0.34538 0.78412 0.32612 0.0
C386 C 0.33098 0.83971 0.31439 0.0
C387 C 0.29574 0.81405 0.38597 0.0
C388 C 0.28248 0.80237 0.40268 0.0
C389 C 0.27938 0.77739 0.40281 0.0
C390 C 0.26853 0.76694 0.42059 0.0
C391 C 0.26073 0.78135 0.43861 0.0
C392 C 0.26218 0.80603 0.43686 0.0
C393 C 0.27307 0.81647 0.41903 0.0
C394 C 0.27519 0.80878 0.3015 0.0
C395 C 0.28501 0.74562 0.32206 0.0
O396 O 0.29683 0.78838 0.25634 0.0
O397 O 0.31783 0.76256 0.26068 0.0
O398 O 0.32843 0.79105 0.33006 0.0
O399 O 0.34295 0.77615 0.30226 0.0
O400 O 0.3242 0.82303 0.29383 0.0
O401 O 0.32655 0.83438 0.33664 0.0
O402 O 0.31163 0.80414 0.38047 0.0
O403 O 0.28518 0.82045 0.36625 0.0
O404 O 0.28247 0.79008 0.30527 0.0
O405 O 0.28337 0.82552 0.32046 0.0
O406 O 0.28695 0.7644 0.34022 0.0
O407 O 0.29296 0.74898 0.301 0.0
H408 H 0.31548 0.82197 0.2378 0.0
H409 H 0.32964 0.83831 0.20335 0.0
H410 H 0.34507 0.76946 0.1782 0.0
H411 H 0.329 0.75253 0.21223 0.0
H412 H 0.28629 0.76613 0.39011 0.0
H413 H 0.26797 0.74794 0.42156 0.0
H414 H 0.2562 0.81751 0.45039 0.0
H415 H 0.27497 0.83574 0.41876 0.0
Tb416 Tb 0.57862 0.04449 0.55413 0.0
Tb417 Tb 0.53345 0.03825 0.57209 0.0
C418 C 0.61776 0.04537 0.55265 0.0
C419 C 0.63559 0.03254 0.55871 0.0
C420 C 0.63656 1.01795 0.57802 0.0
C421 C 0.65416 1.00674 0.58332 0.0
C422 C 0.67119 1.00988 0.56943 0.0
C423 C 0.66982 0.02428 0.5499 0.0
C424 C 0.65234 0.03543 0.54469 0.0
C425 C 0.54758 0.05141 0.51648 0.0
C426 C 0.54854 0.99216 0.54815 0.0
C427 C 0.49448 0.0383 0.57396 0.0
C428 C 0.4774 0.0527 0.56935 0.0
C429 C 0.46635 0.053 0.54489 0.0
C430 C 0.44886 0.06461 0.54143 0.0
C431 C 0.44172 0.07592 0.56233 0.0
C432 C 0.45302 0.07588 0.5867 0.0
C433 C 0.47053 0.06445 0.59013 0.0
C434 C 0.56455 0.03092 0.6094 0.0
C435 C 0.56365 0.09067 0.57806 0.0
O436 O 0.61081 0.05654 0.57146 0.0
O437 O 0.60219 0.03466 0.53425 0.0
O438 O 0.54617 0.04644 0.53877 0.0
O439 O 0.56785 0.05342 0.51574 0.0
O440 O 0.56807 1.00536 0.55017 0.0
O441 O 0.53211 1.0014 0.55406 0.0
O442 O 0.50111 0.02771 0.55453 0.0
O443 O 0.51016 0.04706 0.5929 0.0
O444 O 0.56586 0.03632 0.58728 0.0
O445 O 0.54428 0.02862 0.6102 0.0
O446 O 0.54415 0.07757 0.57668 0.0
O447 O 0.57987 0.08124 0.57186 0.0
H448 H 0.62381 1.0153 0.58906 0.0
H449 H 0.65457 0.99594 0.59859 0.0
H450 H 0.68221 0.0268 0.53834 0.0
H451 H 0.65195 0.04645 0.52959 0.0
H452 H 0.47083 0.04379 0.52842 0.0
H453 H 0.44049 0.06401 0.52238 0.0
H454 H 0.44828 0.08462 0.60327 0.0
H455 H 0.47843 0.06435 0.60926 0.0
Tb456 Tb 0.28861 0.29567 0.8117 0.0
Tb457 Tb 0.33525 0.28656 0.82021 0.0
C458 C 0.24934 0.29442 0.81303 0.0
C459 C 0.23237 0.29138 0.82933 0.0
C460 C 0.2206 0.2683 0.83075 0.0
C461 C 0.20275 0.26553 0.84309 0.0
C462 C 0.19584 0.28577 0.85416 0.0
C463 C 0.20789 0.30885 0.85312 0.0
C464 C 0.22581 0.3116 0.84087 0.0
C465 C 0.31851 0.3285 0.79943 0.0
C466 C 0.31853 0.31014 0.86653 0.0
C467 C 0.37411 0.2862 0.81808 0.0
C468 C 0.39007 0.28744 0.8005 0.0
C469 C 0.40026 0.30969 0.79464 0.0
C470 C 0.41731 0.31098 0.781 0.0
C471 C 0.4248 0.2901 0.77291 0.0
C472 C 0.41417 0.26779 0.7782 0.0
C473 C 0.39715 0.26651 0.79185 0.0
C474 C 0.30569 0.25466 0.83389 0.0
C475 C 0.30592 0.27301 0.76525 0.0
O476 O 0.25724 0.27552 0.80616 0.0
O477 O 0.26395 0.31441 0.8175 0.0
O478 O 0.32019 0.31654 0.81746 0.0
O479 O 0.29865 0.32375 0.78821 0.0
O480 O 0.29885 0.30353 0.85317 0.0
O481 O 0.33578 0.30761 0.85663 0.0
O482 O 0.36686 0.30572 0.82428 0.0
O483 O 0.3592 0.26661 0.81516 0.0
O484 O 0.30362 0.26589 0.81531 0.0
O485 O 0.32575 0.25877 0.84403 0.0
O486 O 0.32545 0.27964 0.77882 0.0
O487 O 0.28855 0.27529 0.77499 0.0
H488 H 0.22483 0.25226 0.82171 0.0
H489 H 0.19425 0.24743 0.84372 0.0
H490 H 0.20305 0.32495 0.86098 0.0
H491 H 0.23411 0.32967 0.83972 0.0
H492 H 0.39551 0.32629 0.80124 0.0
H493 H 0.42513 0.32855 0.77763 0.0
H494 H 0.41912 0.25123 0.77199 0.0
H495 H 0.38989 0.24911 0.79622 0.0
Tb496 Tb 0.04956 0.06731 0.55858 0.0
Tb497 Tb 0.05873 1.01568 0.55457 0.0
C498 C 0.04696 0.10898 0.55017 0.0
C499 C 0.04883 0.12072 0.52738 0.0
C500 C 0.06714 0.13811 0.52697 0.0
C501 C 0.0697 0.1485 0.50516 0.0
C502 C 0.05399 0.1417 0.48323 0.0
C503 C 0.03566 0.12424 0.48363 0.0
C504 C 0.03304 0.11396 0.50554 0.0
C505 C 1.01979 0.03382 0.57021 0.0
C506 C 0.04065 0.03309 0.50467 0.0
C507 C 0.05443 0.97282 0.56227 0.0
C508 C 0.06512 0.96191 0.58242 0.0
C509 C 0.05404 0.94103 0.58962 0.0
C510 C 0.06187 0.9331 0.61194 0.0
C511 C 0.08089 0.94598 0.62744 0.0
C512 C 0.0925 0.96634 0.61965 0.0
C513 C 0.08456 0.97439 0.59732 0.0
C514 C 0.09339 0.04708 0.54902 0.0
C515 C 0.07264 0.05192 0.60717 0.0
O516 O 0.06457 0.10355 0.56126 0.0
O517 O 0.0302 0.09166 0.5487 0.0
O518 O 0.0309 0.03141 0.55295 0.0
O519 O 1.02474 0.05615 0.58097 0.0
O520 O 0.04451 0.0552 0.51757 0.0
O521 O 0.04343 1.01398 0.51564 0.0
O522 O 0.04276 0.98759 0.57054 0.0
O523 O 0.06605 0.98153 0.54606 0.0
O524 O 0.07548 0.05089 0.55319 0.0
O525 O 0.09205 1.02391 0.54757 0.0
O526 O 0.06923 0.02961 0.59499 0.0
O527 O 0.06758 0.07024 0.59628 0.0
H528 H 0.0795 0.14371 0.54357 0.0
H529 H 0.08373 0.16241 0.50579 0.0
H530 H 1.02328 0.11862 0.46706 0.0
H531 H 1.01867 0.10065 0.50526 0.0
H532 H 0.03887 0.93144 0.57853 0.0
H533 H 0.05286 0.91703 0.6173 0.0
H534 H 0.10722 0.9765 0.63126 0.0
H535 H 0.0931 0.99087 0.59224 0.0
Tb536 Tb 0.30916 0.77213 0.81188 0.0
Tb537 Tb 0.31107 0.8241 0.80157 0.0
C538 C 0.30856 0.72764 0.80527 0.0
C539 C 0.32355 0.71131 0.80261 0.0
C540 C 0.31551 0.68768 0.79037 0.0
C541 C 0.3292 0.67164 0.78726 0.0
C542 C 0.35128 0.67886 0.79643 0.0
C543 C 0.35938 0.70277 0.80839 0.0
C544 C 0.3456 0.71889 0.81148 0.0
C545 C 0.29325 0.79969 0.84356 0.0
C546 C 0.35018 0.8108 0.83702 0.0
C547 C 0.30992 0.86805 0.80709 0.0
C548 C 0.29237 0.88144 0.8066 0.0
C549 C 0.292 0.89815 0.82768 0.0
C550 C 0.27545 0.91089 0.82778 0.0
C551 C 0.25902 0.90728 0.80671 0.0
C552 C 0.25923 0.89027 0.78574 0.0
C553 C 0.27569 0.87736 0.78572 0.0
C554 C 0.32735 0.79681 0.76982 0.0
C555 C 0.26975 0.78584 0.77655 0.0
O556 O 0.30552 0.74026 0.78669 0.0
O557 O 0.31019 0.7403 0.82764 0.0
O558 O 0.29242 0.79989 0.82032 0.0
O559 O 0.30123 0.78137 0.8497 0.0
O560 O 0.34227 0.78757 0.82883 0.0
O561 O 0.33972 0.82774 0.83043 0.0
O562 O 0.31247 0.85588 0.82613 0.0
O563 O 0.31178 0.85598 0.78557 0.0
O564 O 0.32797 0.79633 0.79302 0.0
O565 O 0.31935 0.81519 0.76406 0.0
O566 O 0.27839 0.80905 0.78324 0.0
O567 O 0.27934 0.76869 0.78459 0.0
H568 H 0.29857 0.68162 0.78314 0.0
H569 H 0.32246 0.65356 0.77747 0.0
H570 H 0.37628 0.70889 0.81576 0.0
H571 H 0.35211 0.73717 0.82083 0.0
H572 H 0.3046 0.90144 0.84405 0.0
H573 H 0.27585 0.92406 0.84411 0.0
H574 H 0.24665 0.88694 0.76935 0.0
H575 H 0.27534 0.86426 0.76935 0.0
Tb576 Tb 0.53971 0.0439 0.04388 0.0
Tb577 Tb 0.57835 0.04636 0.08263 0.0
C578 C 0.50465 0.03185 1.0137 0.0
C579 C 0.4832 1.01617 1.01032 0.0
C580 C 0.47973 0.99179 0.99948 0.0
C581 C 0.45907 0.97775 0.99342 0.0
C582 C 0.4414 0.98785 0.99775 0.0
C583 C 0.44488 1.01207 1.00902 0.0
C584 C 0.46556 0.0261 1.01519 0.0
C585 C 0.56273 0.08804 0.05932 0.0
C586 C 0.5344 0.04593 0.10393 0.0
C587 C 0.61408 0.05852 0.11119 0.0
C588 C 0.63503 0.07256 0.10927 0.0
C589 C 0.63684 0.08972 0.09257 0.0
C590 C 0.65672 0.10402 0.09198 0.0
C591 C 0.67514 0.10127 0.10794 0.0
C592 C 0.67325 0.0836 0.12418 0.0
C593 C 0.65333 0.06942 0.12486 0.0
C594 C 0.55415 1.00294 0.06872 0.0
C595 C 0.5838 0.04413 0.02259 0.0
O596 O 0.52079 1.02109 1.01254 0.0
O597 O 0.50931 0.05085 0.03117 0.0
O598 O 0.55912 0.07122 0.0722 0.0
O599 O 0.55211 0.08043 0.03665 0.0
O600 O 0.52497 0.03985 0.07948 0.0
O601 O 0.55571 0.05083 0.1095 0.0
O602 O 0.59883 0.07077 0.11161 0.0
O603 O 0.60782 0.03779 0.0964 0.0
O604 O 0.5584 1.019 0.05509 0.0
O605 O 0.5656 1.01029 0.09101 0.0
O606 O 0.59313 0.04974 0.04703 0.0
O607 O 0.56253 0.03982 0.01701 0.0
H608 H 0.49288 0.98367 0.99491 0.0
H609 H 0.45689 0.95923 0.98451 0.0
H610 H 0.43158 1.02026 1.01287 0.0
H611 H 0.46767 0.04489 0.02318 0.0
H612 H 0.62283 0.09236 0.08035 0.0
H613 H 0.65755 0.11761 0.07946 0.0
H614 H 0.68716 0.08071 0.13636 0.0
H615 H 0.65217 0.05615 0.13776 0.0
Tb616 Tb 0.28377 0.27329 0.30145 0.0
Tb617 Tb 0.32643 0.3079 0.32559 0.0
C618 C 0.24727 0.2488 0.3003 0.0
C619 C 0.22592 0.25415 0.2937 0.0
C620 C 0.20889 0.24212 0.30378 0.0
C621 C 0.18981 0.25058 0.30261 0.0
C622 C 0.18748 0.27131 0.29138 0.0
C623 C 0.20419 0.28241 0.2799 0.0
C624 C 0.22328 0.27395 0.28114 0.0
C625 C 0.29964 0.29806 0.26705 0.0
C626 C 0.2842 0.33177 0.31812 0.0
C627 C 0.36511 0.32805 0.3321 0.0
C628 C 0.38343 0.31864 0.32418 0.0
C629 C 0.38131 0.30494 0.30022 0.0
C630 C 0.39814 0.29477 0.2933 0.0
C631 C 0.41749 0.29775 0.31025 0.0
C632 C 0.41956 0.31144 0.3343 0.0
C633 C 0.4027 0.32178 0.34116 0.0
C634 C 0.30389 0.28691 0.35713 0.0
C635 C 0.32655 0.25007 0.30604 0.0
O636 O 0.2587 0.26252 0.32071 0.0
O637 O 0.25825 0.24624 0.28176 0.0
O638 O 0.30726 0.29819 0.2899 0.0
O639 O 0.2819 0.28211 0.26231 0.0
O640 O 0.27317 0.30884 0.31145 0.0
O641 O 0.3057 0.33588 0.3235 0.0
O642 O 0.35072 0.33162 0.31389 0.0
O643 O 0.3564 0.31746 0.34944 0.0
O644 O 0.30619 0.27796 0.33546 0.0
O645 O 0.31541 0.30874 0.36237 0.0
O646 O 0.33731 0.27288 0.31415 0.0
O647 O 0.30506 0.2458 0.3004 0.0
H648 H 0.21079 0.22706 0.3139 0.0
H649 H 0.17746 0.24177 0.31199 0.0
H650 H 0.20285 0.29823 0.27086 0.0
H651 H 0.23638 0.28366 0.27348 0.0
H652 H 0.36654 0.30183 0.28681 0.0
H653 H 0.39598 0.28476 0.27448 0.0
H654 H 0.43408 0.31391 0.348 0.0
H655 H 0.4046 0.33195 0.35988 0.0
Tb656 Tb 0.55291 0.56827 0.05535 0.0
Tb657 Tb 0.55923 0.51902 0.05549 0.0
C658 C 0.55518 0.61233 0.0543 0.0
C659 C 0.54724 0.62422 0.03308 0.0
C660 C 0.56184 0.63955 0.02228 0.0
C661 C 0.55499 0.64856 1.00022 0.0
C662 C 0.53338 0.64254 0.98872 0.0
C663 C 0.51872 0.62742 0.99965 0.0
C664 C 0.5256 0.61818 0.02155 0.0
C665 C 0.51824 0.53727 0.05989 0.0
C666 C 0.53879 0.53428 1.00402 0.0
C667 C 0.55719 0.47512 0.05744 0.0
C668 C 0.56095 0.46416 0.08062 0.0
C669 C 0.55353 0.47286 0.10247 0.0
C670 C 0.55958 0.4652 0.12554 0.0
C671 C 0.57335 0.44886 0.12728 0.0
C672 C 0.58065 0.43996 0.1054 0.0
C673 C 0.57449 0.44758 0.08222 0.0
C674 C 0.59363 0.55037 0.05018 0.0
C675 C 0.5728 0.55267 0.10675 0.0
O676 O 0.5709 0.60148 0.05058 0.0
O677 O 0.54072 0.59926 0.06445 0.0
O678 O 0.53714 0.53786 0.07066 0.0
O679 O 0.5183 0.555 0.04687 0.0
O680 O 0.54487 0.55698 1.01477 0.0
O681 O 0.54138 0.51632 0.01695 0.0
O682 O 0.54022 0.48477 0.05453 0.0
O683 O 0.57407 0.48918 0.05264 0.0
O684 O 0.57462 0.54928 0.03978 0.0
O685 O 0.59393 0.53282 0.06337 0.0
O686 O 0.56552 0.53013 0.09607 0.0
O687 O 0.57149 0.57066 0.09348 0.0
H688 H 0.57863 0.6442 0.03067 0.0
H689 H 0.56652 0.66062 0.9924 0.0
H690 H 0.50197 0.62264 0.99115 0.0
H691 H 0.51399 0.60604 0.02915 0.0
H692 H 0.54353 0.48614 0.10197 0.0
H693 H 0.55379 0.47237 0.14211 0.0
H694 H 0.59099 0.42697 0.10618 0.0
H695 H 0.58067 0.44098 0.06572 0.0
Tb696 Tb 0.80802 0.27195 0.3077 0.0
Tb697 Tb 0.81368 0.32617 0.32541 0.0
C698 C 0.8126 0.23035 0.2914 0.0
C699 C 0.82986 0.21648 0.29018 0.0
C700 C 0.84088 0.21591 0.26949 0.0
C701 C 0.85532 0.20046 0.26718 0.0
C702 C 0.85881 0.18514 0.28537 0.0
C703 C 0.84844 0.18647 0.3065 0.0
C704 C 0.83409 0.20186 0.30883 0.0
C705 C 0.79008 0.28414 0.34666 0.0
C706 C 0.85111 0.30222 0.34285 0.0
C707 C 0.80844 0.36748 0.34164 0.0
C708 C 0.79057 0.38022 0.33799 0.0
C709 C 0.78684 0.3957 0.35828 0.0
C710 C 0.77057 0.40881 0.35474 0.0
C711 C 0.75774 0.40664 0.33081 0.0
C712 C 0.76106 0.39043 0.31076 0.0
C713 C 0.77731 0.37735 0.31432 0.0
C714 C 0.83188 0.31437 0.28673 0.0
C715 C 0.76999 0.29575 0.29067 0.0
O716 O 0.81201 0.24757 0.2773 0.0
O717 O 0.80812 0.2364 0.3139 0.0
O718 O 0.80785 0.29417 0.34208 0.0
O719 O 0.78206 0.26546 0.32966 0.0
O720 O 0.84194 0.28382 0.32487 0.0
O721 O 0.84123 0.31973 0.34964 0.0
O722 O 0.80562 0.34918 0.35421 0.0
O723 O 0.81727 0.36282 0.32175 0.0
O724 O 0.81402 0.304 0.29093 0.0
O725 O 0.83965 0.33308 0.30377 0.0
O726 O 0.78017 0.31523 0.30673 0.0
O727 O 0.77903 0.27715 0.28519 0.0
H728 H 0.83786 0.2268 0.25467 0.0
H729 H 0.863 0.19972 0.25061 0.0
H730 H 0.85103 0.17514 0.32101 0.0
H731 H 0.82582 0.20172 0.32493 0.0
H732 H 0.79679 0.398 0.37674 0.0
H733 H 0.76855 0.42126 0.37053 0.0
H734 H 0.75123 0.38802 0.29223 0.0
H735 H 0.7797 0.36524 0.29844 0.0
Tb736 Tb 0.03456 0.54786 0.53819 0.0
Tb737 Tb 0.07034 0.54027 0.57521 0.0
C738 C 0.99984 0.54407 0.50832 0.0
C739 C 0.9782 0.52893 0.50332 0.0
C740 C 0.97504 0.5038 0.50292 0.0
C741 C 0.95459 0.48944 0.4956 0.0
C742 C 0.93691 0.49999 0.48892 0.0
C743 C 0.94 0.52519 0.49009 0.0
C744 C 0.96052 0.53953 0.49709 0.0
C745 C 0.06091 0.58859 0.55987 0.0
C746 C 0.02733 0.54291 0.59692 0.0
C747 C 0.10528 0.54483 0.6045 0.0
C748 C 0.12676 0.55888 0.60512 0.0
C749 C 0.12946 0.58006 0.59398 0.0
C750 C 0.14973 0.59439 0.59611 0.0
C751 C 0.16775 0.58762 0.60907 0.0
C752 C 0.165 0.56597 0.61958 0.0
C753 C 0.14461 0.55174 0.61769 0.0
C754 C 0.04307 0.50021 0.55266 0.0
C755 C 0.07834 0.54467 0.51716 0.0
O756 O 1.01518 0.53313 0.50347 0.0
O757 O 1.00533 0.5592 0.52938 0.0
O758 O 0.0552 0.57014 0.56992 0.0
O759 O 0.05153 0.58413 0.53641 0.0
O760 O 1.01836 0.54095 0.57242 0.0
O761 O 0.04825 0.54396 0.60254 0.0
O762 O 0.0909 0.55771 0.60824 0.0
O763 O 0.09827 0.52712 0.58577 0.0
O764 O 0.04963 0.51884 0.54363 0.0
O765 O 0.05339 0.50291 0.57567 0.0
O766 O 0.08702 0.54725 0.54172 0.0
O767 O 0.05728 0.54312 0.51117 0.0
H768 H 0.9884 0.49517 0.50784 0.0
H769 H 0.95257 0.47009 0.49527 0.0
H770 H 0.92661 0.53374 0.48502 0.0
H771 H 0.96264 0.55887 0.49719 0.0
H772 H 0.11581 0.58582 0.58413 0.0
H773 H 0.15115 0.61111 0.58814 0.0
H774 H 0.17858 0.56002 0.6293 0.0
H775 H 0.14275 0.53535 0.62626 0.0
Tb776 Tb 0.78622 0.79652 0.30457 0.0
Tb777 Tb 0.83198 0.78553 0.31304 0.0
C778 C 0.74743 0.79803 0.30618 0.0
C779 C 0.73064 0.79573 0.3226 0.0
C780 C 0.72682 0.77643 0.3366 0.0
C781 C 0.70912 0.77322 0.34929 0.0
C782 C 0.69472 0.78915 0.34821 0.0
C783 C 0.69905 0.80882 0.33478 0.0
C784 C 0.71669 0.812 0.32217 0.0
C785 C 0.81719 0.82904 0.2938 0.0
C786 C 0.81527 0.80857 0.35958 0.0
C787 C 0.87084 0.78438 0.31154 0.0
C788 C 0.88722 0.78534 0.29447 0.0
C789 C 0.8971 0.80738 0.28785 0.0
C790 C 0.91459 0.80863 0.27492 0.0
C791 C 0.92284 0.78792 0.26828 0.0
C792 C 0.91252 0.76578 0.2743 0.0
C793 C 0.89506 0.76455 0.28727 0.0
C794 C 0.80134 0.75354 0.3249 0.0
C795 C 0.80285 0.77391 0.25763 0.0
O796 O 0.75415 0.77852 0.29859 0.0
O797 O 0.76295 0.81715 0.31137 0.0
O798 O 0.81818 0.81647 0.31136 0.0
O799 O 0.79748 0.82513 0.28227 0.0
O800 O 0.79571 0.80205 0.34603 0.0
O801 O 0.83257 0.80617 0.34976 0.0
O802 O 0.86376 0.80409 0.31734 0.0
O803 O 0.85569 0.76499 0.3085 0.0
O804 O 0.8 0.76549 0.30676 0.0
O805 O 0.82109 0.75791 0.33639 0.0
O806 O 0.82232 0.77878 0.27151 0.0
O807 O 0.78571 0.77741 0.26726 0.0
H808 H 0.73719 0.76348 0.33727 0.0
H809 H 0.70636 0.75778 0.35925 0.0
H810 H 0.6887 0.82179 0.33384 0.0
H811 H 0.71914 0.82698 0.31148 0.0
H812 H 0.89178 0.8239 0.29334 0.0
H813 H 0.92212 0.82609 0.27098 0.0
H814 H 0.91805 0.74932 0.26922 0.0
H815 H 0.88805 0.74733 0.29228 0.0
Tb816 Tb 0.81026 0.28392 0.79089 0.0
Tb817 Tb 0.80045 0.30331 0.84032 0.0
C818 C 0.809 0.27571 0.7441 0.0
C819 C 0.82354 0.28488 0.7274 0.0
C820 C 0.8203 0.27406 0.70217 0.0
C821 C 0.83119 0.28546 0.68489 0.0
C822 C 0.84517 0.30797 0.69266 0.0
C823 C 0.84975 0.31771 0.7184 0.0
C824 C 0.83913 0.30607 0.73574 0.0
C825 C 0.84384 0.28317 0.8258 0.0
C826 C 0.82943 0.3406 0.81437 0.0
C827 C 0.79218 0.30942 0.88417 0.0
C828 C 0.78533 0.29134 0.90017 0.0
C829 C 0.79473 0.27105 0.90095 0.0
C830 C 0.78765 0.25329 0.91513 0.0
C831 C 0.77088 0.25526 0.92877 0.0
C832 C 0.76085 0.27513 0.92706 0.0
C833 C 0.76806 0.29306 0.91285 0.0
C834 C 0.77469 0.3098 0.8 0.0
C835 C 0.78495 0.2455 0.82012 0.0
O836 O 0.79986 0.29194 0.75496 0.0
O837 O 0.81599 0.26182 0.75975 0.0
O838 O 0.82691 0.29035 0.8293 0.0
O839 O 0.84202 0.27606 0.80184 0.0
O840 O 0.82396 0.32367 0.79393 0.0
O841 O 0.82374 0.33559 0.83622 0.0
O842 O 0.81173 0.31122 0.8794 0.0
O843 O 0.77827 0.3091 0.86392 0.0
O844 O 0.78172 0.29086 0.80339 0.0
O845 O 0.78243 0.32602 0.8196 0.0
O846 O 0.78853 0.26358 0.83928 0.0
O847 O 0.79103 0.2497 0.79823 0.0
H848 H 0.8084 0.25765 0.6955 0.0
H849 H 0.82718 0.27774 0.66506 0.0
H850 H 0.86042 0.33506 0.72477 0.0
H851 H 0.8421 0.31445 0.7553 0.0
H852 H 0.80776 0.26898 0.89082 0.0
H853 H 0.79617 0.23863 0.91635 0.0
H854 H 0.74785 0.27714 0.93724 0.0
H855 H 0.76025 0.30832 0.91186 0.0
Tb856 Tb 0.7876 0.77624 0.79947 0.0
Tb857 Tb 0.82914 0.80865 0.82076 0.0
C858 C 0.74938 0.75419 0.79197 0.0
C859 C 0.73026 0.76134 0.79974 0.0
C860 C 0.73214 0.7777 0.82187 0.0
C861 C 0.71432 0.78598 0.82829 0.0
C862 C 0.69424 0.77832 0.81255 0.0
C863 C 0.69238 0.76178 0.79045 0.0
C864 C 0.71028 0.75338 0.7841 0.0
C865 C 0.80962 0.79391 0.76556 0.0
C866 C 0.78711 0.83346 0.81792 0.0
C867 C 0.86527 0.83547 0.82605 0.0
C868 C 0.88648 0.82882 0.82856 0.0
C869 C 0.90346 0.84329 0.82042 0.0
C870 C 0.92185 0.83442 0.81673 0.0
C871 C 0.92343 0.81075 0.82074 0.0
C872 C 0.90688 0.79682 0.83026 0.0
C873 C 0.88863 0.80579 0.8342 0.0
C874 C 0.81358 0.78015 0.85204 0.0
C875 C 0.82908 0.75177 0.80366 0.0
O876 O 0.76391 0.75099 0.81025 0.0
O877 O 0.75773 0.76673 0.77573 0.0
O878 O 0.80758 0.80449 0.78648 0.0
O879 O 0.79863 0.77201 0.76264 0.0
O880 O 0.77613 0.81113 0.80825 0.0
O881 O 0.80846 0.83674 0.82494 0.0
O882 O 0.85329 0.8268 0.80397 0.0
O883 O 0.85462 0.83278 0.84492 0.0
O884 O 0.80313 0.79083 0.83696 0.0
O885 O 0.83368 0.78672 0.85119 0.0
O886 O 0.83976 0.77463 0.80608 0.0
O887 O 0.80791 0.74803 0.80302 0.0
H888 H 0.74747 0.78433 0.83407 0.0
H889 H 0.71629 0.79835 0.84568 0.0
H890 H 0.67722 0.75569 0.7778 0.0
H891 H 0.70861 0.74102 0.76676 0.0
H892 H 0.902 0.86092 0.81552 0.0
H893 H 0.93423 0.84554 0.8092 0.0
H894 H 0.90771 0.77864 0.83378 0.0
H895 H 0.87569 0.79418 0.84031 0.0
Tb896 Tb 0.5483 0.52907 0.54544 0.0
Tb897 Tb 0.58761 0.55793 0.57866 0.0
C898 C 0.51013 0.51462 0.52462 0.0
C899 C 0.49297 0.52818 0.52545 0.0
C900 C 0.49442 0.54581 0.54642 0.0
C901 C 0.48009 0.56122 0.54637 0.0
C902 C 0.46397 0.55934 0.5254 0.0
C903 C 0.46196 0.54119 0.50469 0.0
C904 C 0.47657 0.52577 0.50463 0.0
C905 C 0.58307 0.53163 0.52442 0.0
C906 C 0.55877 0.58703 0.54932 0.0
C907 C 0.62579 0.57182 0.5998 0.0
C908 C 0.64259 0.55749 0.60119 0.0
C909 C 0.64225 0.53954 0.5809 0.0
C910 C 0.65614 0.52361 0.58302 0.0
C911 C 0.67066 0.52516 0.60549 0.0
C912 C 0.67155 0.5436 0.62557 0.0
C913 C 0.65745 0.5596 0.62348 0.0
C914 C 0.55249 0.55519 0.59912 0.0
C915 C 0.57657 0.5001 0.5758 0.0
O916 O 0.51793 0.50894 0.5464 0.0
O917 O 0.52516 0.52365 0.51254 0.0
O918 O 0.57819 0.5481 0.53872 0.0
O919 O 0.56747 0.51298 0.52061 0.0
O920 O 0.54394 0.56689 0.54589 0.0
O921 O 0.57856 0.58753 0.5603 0.0
O922 O 0.6186 0.57603 0.57711 0.0
O923 O 0.6103 0.56479 0.61212 0.0
O924 O 0.55782 0.53894 0.5851 0.0
O925 O 0.56808 0.57392 0.60357 0.0
O926 O 0.59166 0.52 0.57912 0.0
O927 O 0.55696 0.49983 0.5645 0.0
H928 H 0.50703 0.54813 0.56265 0.0
H929 H 0.4817 0.57477 0.56276 0.0
H930 H 0.44953 0.53942 0.48838 0.0
H931 H 0.47541 0.51243 0.4882 0.0
H932 H 0.63083 0.53734 0.56355 0.0
H933 H 0.65541 0.50993 0.56703 0.0
H934 H 0.68267 0.54519 0.64306 0.0
H935 H 0.65776 0.57317 0.63942 0.0
Tb936 Tb 0.07725 0.54265 0.05163 0.0
Tb937 Tb 0.03219 0.53803 0.06983 0.0
C938 C 0.11627 0.54253 0.05067 0.0
C939 C 0.13351 0.52889 0.05734 0.0
C940 C 0.14324 0.52918 0.08254 0.0
C941 C 0.16085 0.51808 0.08793 0.0
C942 C 0.16927 0.50649 0.06827 0.0
C943 C 0.15931 0.50608 0.04314 0.0
C944 C 0.14178 0.51712 0.0378 0.0
C945 C 0.04649 0.55007 1.01394 0.0
C946 C 0.04638 0.49108 0.04666 0.0
C947 C 0.99331 0.53814 0.07197 0.0
C948 C 0.97638 0.55263 0.06727 0.0
C949 C 0.96495 0.55231 0.04287 0.0
C950 C 0.94759 0.56408 0.0394 0.0
C951 C 0.94099 0.57619 0.06025 0.0
C952 C 0.95269 0.57679 0.08455 0.0
C953 C 0.97005 0.56518 0.08799 0.0
C954 C 0.06346 0.53089 0.10718 0.0
C955 C 0.06296 0.58961 0.07524 0.0
O956 O 0.10945 0.55462 0.069 0.0
O957 O 0.1007 0.53216 0.03208 0.0
O958 O 0.04502 0.54554 0.03635 0.0
O959 O 0.06665 0.55122 1.01304 0.0
O960 O 0.06619 0.5036 0.04888 0.0
O961 O 0.03015 0.5011 0.05178 0.0
O962 O 0.9998 0.52733 0.05256 0.0
O963 O 1.00909 0.54704 0.09076 0.0
O964 O 0.06425 0.53473 0.08452 0.0
O965 O 0.04353 0.53048 0.10884 0.0
O966 O 0.04319 0.57708 0.07322 0.0
O967 O 0.07906 0.57958 0.06962 0.0
H968 H 0.13749 0.53828 0.09812 0.0
H969 H 0.16786 0.51861 0.10753 0.0
H970 H 0.16545 0.49782 0.0274 0.0
H971 H 0.13497 0.51694 0.01817 0.0
H972 H 0.96903 0.54249 0.02649 0.0
H973 H 0.93888 0.56299 0.02042 0.0
H974 H 0.94836 0.58617 0.10105 0.0
H975 H 0.97827 0.56558 0.10708 0.0
H976 H 0.03273 0.22924 0.03374 0.0
H977 H 0.02881 0.19805 0.95593 0.0
H978 H 0.04023 0.19221 0.04789 0.0
H979 H 0.03619 0.16039 0.97037 0.0
H980 H 0.02663 0.08935 1.00998 0.0
H981 H 1.01871 0.12574 0.99344 0.0
H982 H 0.07023 0.16952 0.0489 0.0
H983 H 0.07818 0.13334 0.06524 0.0
C984 C 0.03341 0.21445 0.01953 0.0
C985 C 0.0301 0.21683 0.99357 0.0
C986 C 0.03784 0.19315 0.02775 0.0
C987 C 0.03886 0.17322 1.01036 0.0
C988 C 0.0354 0.17534 0.98432 0.0
C989 C 0.03131 0.19699 0.97603 0.0
C990 C 0.03613 0.10673 0.0188 0.0
C991 C 0.05294 0.10828 0.03915 0.0
C992 C 0.03175 0.12761 1.00909 0.0
C993 C 0.04383 0.15065 0.01977 0.0
C994 C 0.06049 0.15215 0.04025 0.0
C995 C 0.06507 0.13133 0.04964 0.0
H996 H 0.18184 0.84548 0.1851 0.0
H997 H 0.14373 0.79577 0.22346 0.0
H998 H 0.21417 0.84176 0.21282 0.0
H999 H 0.17633 0.79174 0.25104 0.0
H1000 H 0.24382 0.77152 0.27405 0.0
H1001 H 0.21089 0.77486 0.24644 0.0
H1002 H 0.23059 0.85246 0.25948 0.0
H1003 H 0.26306 0.84912 0.28728 0.0
C1004 C 0.18031 0.83386 0.19957 0.0
C1005 C 0.16005 0.82106 0.20207 0.0
C1006 C 0.1989 0.83172 0.21549 0.0
C1007 C 0.19794 0.81633 0.23411 0.0
C1008 C 0.1777 0.80358 0.23675 0.0
C1009 C 0.15898 0.80611 0.22112 0.0
C1010 C 0.24115 0.78925 0.27082 0.0
C1011 C 0.2561 0.81006 0.28282 0.0
C1012 C 0.2222 0.79119 0.2552 0.0
C1013 C 0.218 0.81396 0.25078 0.0
C1014 C 0.23328 0.83465 0.26233 0.0
C1015 C 0.25192 0.83273 0.27828 0.0
H1016 H 0.54227 0.85982 0.44833 0.0
H1017 H 0.52293 0.83313 0.51495 0.0
H1018 H 0.54504 0.90115 0.46834 0.0
H1019 H 0.52551 0.87481 0.53497 0.0
H1020 H 0.5139 0.95543 0.54808 0.0
H1021 H 0.50859 0.9129 0.5293 0.0
H1022 H 0.57024 0.92741 0.5059 0.0
H1023 H 0.57568 0.96941 0.52464 0.0
C1024 C 0.53842 0.86274 0.46719 0.0
C1025 C 0.5325 0.84312 0.48008 0.0
C1026 C 0.54011 0.88648 0.4787 0.0
C1027 C 0.53565 0.89131 0.50333 0.0
C1028 C 0.52898 0.87169 0.51596 0.0
C1029 C 0.52759 0.84784 0.50453 0.0
C1030 C 0.52635 0.9495 0.53905 0.0
C1031 C 0.54521 0.96598 0.53792 0.0
C1032 C 0.52334 0.92512 0.52837 0.0
C1033 C 0.53893 0.91681 0.51592 0.0
C1034 C 0.5578 0.93325 0.51506 0.0
C1035 C 0.56095 0.95738 0.526 0.0
H1036 H 0.55399 0.29585 0.7377 0.0
H1037 H 0.5176 0.30796 0.66833 0.0
H1038 H 0.5219 0.29174 0.75714 0.0
H1039 H 0.48535 0.30331 0.68752 0.0
H1040 H 0.43675 0.31972 0.7381 0.0
H1041 H 0.46858 0.32304 0.71825 0.0
H1042 H 0.48813 0.26667 0.75757 0.0
H1043 H 0.45687 0.26412 0.77825 0.0
C1044 C 0.53909 0.29739 0.72647 0.0
C1045 C 0.53846 0.30224 0.7014 0.0
C1046 C 0.52058 0.29492 0.73761 0.0
C1047 C 0.50084 0.29722 0.72403 0.0
C1048 C 0.50022 0.30178 0.69881 0.0
C1049 C 0.51874 0.30426 0.68768 0.0
C1050 C 0.44789 0.30814 0.74271 0.0
C1051 C 0.44403 0.29163 0.7599 0.0
C1052 C 0.46611 0.30984 0.73103 0.0
C1053 C 0.48112 0.29512 0.73617 0.0
C1054 C 0.47719 0.27854 0.75326 0.0
C1055 C 0.45899 0.27684 0.76492 0.0
H1056 H 0.07782 0.85889 0.74622 0.0
H1057 H 0.10614 0.8321 0.68383 0.0
H1058 H 0.08618 0.89978 0.73511 0.0
H1059 H 0.11443 0.87223 0.67277 0.0
H1060 H 0.12078 0.93869 0.645 0.0
H1061 H 0.12989 0.91521 0.67878 0.0
H1062 H 0.06645 0.91086 0.69719 0.0
H1063 H 0.05771 0.93469 0.66409 0.0
C1064 C 0.08651 0.86192 0.73076 0.0
C1065 C 0.09082 0.8424 0.71539 0.0
C1066 C 0.0913 0.88524 0.7244 0.0
C1067 C 0.10066 0.88919 0.70282 0.0
C1068 C 0.10731 0.86998 0.68955 0.0
C1069 C 0.10226 0.8468 0.69566 0.0
C1070 C 0.10915 0.93348 0.65698 0.0
C1071 C 0.08834 0.93771 0.65152 0.0
C1072 C 0.11434 0.92007 0.6763 0.0
C1073 C 0.09874 0.91071 0.69026 0.0
C1074 C 0.07887 0.91775 0.68686 0.0
C1075 C 0.07371 0.93108 0.6676 0.0
H1076 H 0.48719 0.8279 0.86603 0.0
H1077 H 0.47259 0.86433 0.93426 0.0
H1078 H 0.45009 0.82323 0.84567 0.0
H1079 H 0.4355 0.85952 0.91384 0.0
H1080 H 0.37133 0.85569 0.86061 0.0
H1081 H 0.4096 0.86856 0.87729 0.0
H1082 H 0.41822 0.79576 0.85719 0.0
H1083 H 0.38022 0.78286 0.84062 0.0
C1084 C 0.47625 0.83553 0.87644 0.0
C1085 C 0.4827 0.84607 0.9019 0.0
C1086 C 0.45499 0.83267 0.86485 0.0
C1087 C 0.43992 0.84055 0.87842 0.0
C1088 C 0.4468 0.85319 0.90301 0.0
C1089 C 0.46802 0.85587 0.91469 0.0
C1090 C 0.38139 0.84243 0.85992 0.0
C1091 C 0.37275 0.81825 0.84938 0.0
C1092 C 0.40326 0.84982 0.86937 0.0
C1093 C 0.41684 0.83323 0.86809 0.0
C1094 C 0.40814 0.80903 0.8579 0.0
C1095 C 0.38632 0.80158 0.84875 0.0
H1096 H 0.55731 0.23685 0.11185 0.0
H1097 H 0.56288 0.20144 0.17857 0.0
H1098 H 0.55736 0.19946 0.08552 0.0
H1099 H 0.56203 0.16345 0.15185 0.0
H1100 H 0.5885 0.10983 0.10317 0.0
H1101 H 0.58661 0.14756 0.12818 0.0
H1102 H 0.53899 0.15967 0.06848 0.0
H1103 H 0.54148 0.12224 0.04328 0.0
C1104 C 0.55809 0.22091 0.12088 0.0
C1105 C 0.56043 0.22222 0.1474 0.0
C1106 C 0.55801 0.19939 0.10569 0.0
C1107 C 0.56011 0.17855 0.11658 0.0
C1108 C 0.56096 0.17939 0.14294 0.0
C1109 C 0.56111 0.20104 0.15823 0.0
C1110 C 0.57798 0.12081 0.09525 0.0
C1111 C 0.5652 0.11314 0.07134 0.0
C1112 C 0.57662 0.14224 0.10971 0.0
C1113 C 0.56228 0.15637 0.1006 0.0
C1114 C 0.55025 0.14927 0.07607 0.0
C1115 C 0.55178 0.1279 0.06152 0.0
H1116 H 0.11779 0.34928 0.37723 0.0
H1117 H 0.06581 0.30609 0.32173 0.0
H1118 H 0.14336 0.33713 0.35218 0.0
H1119 H 0.09159 0.29417 0.29615 0.0
H1120 H 0.14545 0.24925 0.28834 0.0
H1121 H 0.11687 0.26753 0.30185 0.0
H1122 H 0.15857 0.33786 0.31418 0.0
H1123 H 0.18744 0.31949 0.30197 0.0
C1124 C 0.11179 0.33763 0.35931 0.0
C1125 C 0.0898 0.32844 0.35159 0.0
C1126 C 0.12649 0.33077 0.34481 0.0
C1127 C 0.11956 0.31452 0.32219 0.0
C1128 C 0.09745 0.30648 0.31364 0.0
C1129 C 0.08269 0.31345 0.32818 0.0
C1130 C 0.14845 0.26864 0.29369 0.0
C1131 C 0.16887 0.2828 0.29444 0.0
C1132 C 0.13197 0.27919 0.30113 0.0
C1133 C 0.1355 0.30415 0.30941 0.0
C1134 C 0.15542 0.31852 0.30831 0.0
C1135 C 0.17192 0.30798 0.30099 0.0
H1136 H 0.96951 0.04208 0.21452 0.0
H1137 H 1.0056 0.98523 0.2165 0.0
H1138 H 0.98377 0.05335 0.17684 0.0
H1139 H 1.01971 0.99644 0.17915 0.0
H1140 H 0.03033 1.00904 0.10152 0.0
H1141 H 1.00873 0.99731 0.13328 0.0
H1142 H 1.0204 0.07171 0.16811 0.0
H1143 H 0.04192 0.08353 0.13601 0.0
C1144 C 0.9802 0.03176 0.20673 0.0
C1145 C 0.98646 1.01279 0.21858 0.0
C1146 C 0.98847 0.03833 0.18526 0.0
C1147 C 1.00286 0.02578 0.17499 0.0
C1148 C 1.00848 1.0063 0.18637 0.0
C1149 C 1.00048 0.99997 0.20793 0.0
C1150 C 0.02793 1.02299 0.11561 0.0
C1151 C 0.03796 0.0472 0.1164 0.0
C1152 C 1.01566 1.01623 0.13392 0.0
C1153 C 1.01306 0.03353 0.1534 0.0
C1154 C 1.02202 0.05797 0.15329 0.0
C1155 C 0.03442 0.06473 0.13499 0.0
H1156 H 0.31185 0.7466 0.57761 0.0
H1157 H 0.30441 0.68806 0.51654 0.0
H1158 H 0.28341 0.76189 0.5545 0.0
H1159 H 0.27749 0.70471 0.49202 0.0
H1160 H 0.23763 0.73717 0.44424 0.0
H1161 H 0.24533 0.7167 0.48083 0.0
H1162 H 0.28373 0.78392 0.52214 0.0
H1163 H 0.27539 0.80402 0.48655 0.0
C1164 C 0.30413 0.73697 0.55921 0.0
C1165 C 0.31058 0.71635 0.54867 0.0
C1166 C 0.28779 0.7458 0.54585 0.0
C1167 C 0.27831 0.73496 0.52108 0.0
C1168 C 0.28407 0.71352 0.51113 0.0
C1169 C 0.29985 0.70415 0.52496 0.0
C1170 C 0.24687 0.74766 0.46166 0.0
C1171 C 0.25659 0.77194 0.46224 0.0
C1172 C 0.25149 0.73592 0.48253 0.0
C1173 C 0.26611 0.74829 0.50401 0.0
C1174 C 0.27263 0.7735 0.50598 0.0
C1175 C 0.26778 0.78523 0.48533 0.0
H1176 H 0.62526 0.98704 0.75214 0.0
H1177 H 0.66931 0.05111 0.74478 0.0
H1178 H 0.60508 0.98764 0.71028 0.0
H1179 H 0.64899 0.05218 0.70285 0.0
H1180 H 0.61025 0.04427 0.61993 0.0
H1181 H 0.63463 0.03995 0.6582 0.0
H1182 H 0.58049 1.00622 0.68883 0.0
H1183 H 0.55675 1.01023 0.65107 0.0
C1184 C 0.63126 1.0008 0.74121 0.0
C1185 C 0.64983 1.01832 0.75203 0.0
C1186 C 0.61922 1.00157 0.71706 0.0
C1187 C 0.62477 1.0202 0.70233 0.0
C1188 C 0.64385 0.03726 0.71277 0.0
C1189 C 0.65587 0.03649 0.73704 0.0
C1190 C 0.60357 0.03557 0.63461 0.0
C1191 C 0.58115 0.02739 0.63164 0.0
C1192 C 0.61766 0.03325 0.65701 0.0
C1193 C 0.61007 1.02245 0.67744 0.0
C1194 C 0.58765 1.01417 0.67402 0.0
C1195 C 0.57374 1.01665 0.65198 0.0
H1196 H 0.32392 0.3505 0.02868 0.0
H1197 H 0.33829 0.41817 0.99971 0.0
H1198 H 0.32103 0.32855 0.98617 0.0
H1199 H 0.33596 0.39606 0.95721 0.0
H1200 H 0.35329 0.34245 0.89335 0.0
H1201 H 0.35718 0.36422 0.93619 0.0
H1202 H 0.29417 0.32683 0.94251 0.0
H1203 H 0.28997 0.30544 0.89939 0.0
C1204 C 0.32667 0.36069 1.01328 0.0
C1205 C 0.33131 0.38607 0.01751 0.0
C1206 C 0.32491 0.3481 0.98896 0.0
C1207 C 0.32823 0.36062 0.96845 0.0
C1208 C 0.3334 0.386 0.97275 0.0
C1209 C 0.33468 0.39862 0.997 0.0
C1210 C 0.34031 0.33875 0.90392 0.0
C1211 C 0.32133 0.32218 0.89302 0.0
C1212 C 0.34251 0.35134 0.92835 0.0
C1213 C 0.32598 0.34721 0.94259 0.0
C1214 C 0.30718 0.33027 0.93193 0.0
C1215 C 0.30478 0.31809 0.90727 0.0
H1216 H 0.95296 0.03018 0.3668 0.0
H1217 H 1.00382 1.00064 0.33933 0.0
H1218 H 0.97141 0.03339 0.41031 0.0
H1219 H 1.02216 1.0036 0.38301 0.0
H1220 H 0.03466 0.99246 0.46929 0.0
H1221 H 1.01661 0.98648 0.42511 0.0
H1222 H 1.00688 0.05976 0.43436 0.0
H1223 H 1.025 0.06586 0.47806 0.0
C1224 C 0.96794 1.0241 0.37006 0.0
C1225 C 0.97698 1.01527 0.34963 0.0
C1226 C 0.97856 0.02607 0.39496 0.0
C1227 C 0.9983 1.01891 0.40002 0.0
C1228 C 1.00695 1.00919 0.37967 0.0
C1229 C 0.99648 1.00757 0.35469 0.0
C1230 C 0.02882 1.00735 0.46183 0.0
C1231 C 0.03126 0.02965 0.47733 0.0
C1232 C 1.01852 1.00391 0.43654 0.0
C1233 C 1.01013 1.02258 0.4264 0.0
C1234 C 1.0129 0.04494 0.44175 0.0
C1235 C 1.02345 0.04847 0.4668 0.0
H1236 H 0.40331 0.76828 0.65999 0.0
H1237 H 0.3687 0.69961 0.67256 0.0
H1238 H 0.40063 0.78589 0.7024 0.0
H1239 H 0.3654 0.71732 0.71452 0.0
H1240 H 0.34864 0.76131 0.78184 0.0
H1241 H 0.37274 0.74343 0.75762 0.0
H1242 H 0.36227 0.79028 0.70137 0.0
H1243 H 0.33826 0.80771 0.72524 0.0
C1244 C 0.39642 0.75654 0.67241 0.0
C1245 C 0.38523 0.73299 0.66266 0.0
C1246 C 0.39466 0.76669 0.69662 0.0
C1247 C 0.3817 0.75328 0.711 0.0
C1248 C 0.37505 0.72825 0.70356 0.0
C1249 C 0.37707 0.71802 0.67944 0.0
C1250 C 0.35162 0.76773 0.76431 0.0
C1251 C 0.34149 0.78569 0.7552 0.0
C1252 C 0.36555 0.75772 0.75066 0.0
C1253 C 0.36983 0.76587 0.72796 0.0
C1254 C 0.35988 0.78413 0.71921 0.0
C1255 C 0.3458 0.79384 0.73262 0.0
H1256 H 0.68427 0.02509 0.92216 0.0
H1257 H 0.6288 0.03077 0.87036 0.0
H1258 H 0.66481 0.03002 0.9577 0.0
H1259 H 0.60946 0.03621 0.9055 0.0
H1260 H 0.57004 0.03105 0.97026 0.0
H1261 H 0.59009 0.02631 0.93572 0.0
H1262 H 0.64911 0.0475 0.989 0.0
H1263 H 0.62871 0.0517 0.02373 0.0
C1264 C 0.66794 0.02753 0.91811 0.0
C1265 C 0.65856 0.0274 0.89255 0.0
C1266 C 0.6565 0.03051 0.93892 0.0
C1267 C 0.63483 0.03356 0.93567 0.0
C1268 C 0.62567 0.03359 0.90998 0.0
C1269 C 0.63707 0.03059 0.88928 0.0
C1270 C 0.58732 0.03486 0.97491 0.0
C1271 C 0.59722 0.04197 1.00066 0.0
C1272 C 0.59917 0.03222 0.95458 0.0
C1273 C 0.62194 0.0365 0.95832 0.0
C1274 C 0.63186 0.04361 0.98422 0.0
C1275 C 0.61994 0.04624 1.00462 0.0
H1276 H 0.30856 0.39568 0.15199 0.0
H1277 H 0.36432 0.36353 0.15543 0.0
H1278 H 0.29944 0.37742 0.18913 0.0
H1279 H 0.35526 0.34531 0.19206 0.0
H1280 H 0.34012 0.32409 0.26679 0.0
H1281 H 0.35121 0.35069 0.23642 0.0
H1282 H 0.28622 0.3358 0.1963 0.0
H1283 H 0.27526 0.30976 0.22693 0.0
C1284 C 0.31914 0.38523 0.161 0.0
C1285 C 0.33711 0.38101 0.15062 0.0
C1286 C 0.31381 0.37453 0.18213 0.0
C1287 C 0.32651 0.35965 0.19356 0.0
C1288 C 0.34516 0.35673 0.18402 0.0
C1289 C 0.3503 0.36713 0.16284 0.0
C1290 C 0.32818 0.32697 0.25187 0.0
C1291 C 0.30682 0.315 0.24948 0.0
C1292 C 0.33453 0.34202 0.23424 0.0
C1293 C 0.3196 0.34557 0.21386 0.0
C1294 C 0.29813 0.33391 0.21189 0.0
C1295 C 0.29188 0.31874 0.22934 0.0
H1296 H 0.2158 0.90578 0.06962 0.0
H1297 H 0.25974 0.96821 0.05667 0.0
H1298 H 0.20063 0.93158 0.09827 0.0
H1299 H 0.24393 0.99415 0.08397 0.0
H1300 H 0.21624 0.03941 0.13545 0.0
H1301 H 0.23673 1.00919 0.12316 0.0
H1302 H 0.17763 0.95821 0.09276 0.0
H1303 H 0.15752 0.98787 0.10606 0.0
C1304 C 0.22226 0.92502 0.07301 0.0
C1305 C 0.23873 0.93505 0.06069 0.0
C1306 C 0.21353 0.93985 0.08935 0.0
C1307 C 0.2208 0.96507 0.09328 0.0
C1308 C 0.23805 0.97485 0.08184 0.0
C1309 C 0.24702 0.95998 0.06591 0.0
C1310 C 0.20776 1.02147 0.12682 0.0
C1311 C 0.18534 1.01603 0.12155 0.0
C1312 C 0.21944 1.0042 0.11956 0.0
C1313 C 0.20889 0.98135 0.10642 0.0
C1314 C 0.18643 0.97543 0.10302 0.0
C1315 C 0.17481 0.99252 0.11064 0.0
H1316 H 0.72413 0.61253 0.02991 0.0
H1317 H 0.68759 0.66712 1.01399 0.0
H1318 H 0.6916 0.58564 0.03564 0.0
H1319 H 0.65548 0.64081 0.02057 0.0
H1320 H 0.59638 0.58181 1.01512 0.0
H1321 H 0.62861 0.60651 1.00562 0.0
H1322 H 0.66715 0.57936 0.06385 0.0
H1323 H 0.63498 0.55419 0.07259 0.0
C1324 C 0.7092 0.61882 0.02751 0.0
C1325 C 0.7087 0.64213 0.02144 0.0
C1326 C 0.69048 0.60343 0.03105 0.0
C1327 C 0.67067 0.61091 0.02876 0.0
C1328 C 0.67018 0.63405 0.02218 0.0
C1329 C 0.6888 0.64932 0.01852 0.0
C1330 C 0.61176 0.58116 0.02586 0.0
C1331 C 0.61308 0.56602 0.04462 0.0
C1332 C 0.63033 0.59542 0.02051 0.0
C1333 C 0.65077 0.5951 0.03389 0.0
C1334 C 0.65192 0.57991 0.05272 0.0
C1335 C 0.63339 0.56557 0.05794 0.0
H1336 H 0.71141 0.53455 0.30765 0.0
H1337 H 0.65789 0.49262 0.33321 0.0
H1338 H 0.7286 0.49991 0.30574 0.0
H1339 H 0.6751 0.4577 0.33105 0.0
H1340 H 0.72993 0.41892 0.36161 0.0
H1341 H 0.70704 0.44836 0.35636 0.0
H1342 H 0.72665 0.459 0.28453 0.0
H1343 H 0.75002 0.43022 0.29013 0.0
C1344 C 0.70312 0.51777 0.3124 0.0
C1345 C 0.68337 0.51636 0.32074 0.0
C1346 C 0.71294 0.49786 0.31119 0.0
C1347 C 0.70327 0.47609 0.31839 0.0
C1348 C 0.68305 0.47433 0.32566 0.0
C1349 C 0.67313 0.49426 0.32671 0.0
C1350 C 0.72927 0.42748 0.34465 0.0
C1351 C 0.74194 0.42238 0.3264 0.0
C1352 C 0.71596 0.44412 0.3415 0.0
C1353 C 0.71511 0.4561 0.32008 0.0
C1354 C 0.72712 0.45026 0.30136 0.0
C1355 C 0.74036 0.43358 0.30447 0.0
H1356 H 0.80151 0.43663 0.46862 0.0
H1357 H 0.83387 0.3768 0.4619 0.0
H1358 H 0.83431 0.46436 0.46576 0.0
H1359 H 0.867 0.40452 0.46044 0.0
H1360 H 0.92476 0.45915 0.4541 0.0
H1361 H 0.88941 0.43284 0.44264 0.0
H1362 H 0.8654 0.4798 0.49552 0.0
H1363 H 0.90042 0.50634 0.50603 0.0
C1364 C 0.81559 0.42939 0.46604 0.0
C1365 C 0.81527 0.40466 0.4658 0.0
C1366 C 0.83445 0.44529 0.46469 0.0
C1367 C 0.85352 0.43683 0.46365 0.0
C1368 C 0.85268 0.41176 0.46117 0.0
C1369 C 0.83366 0.3958 0.46202 0.0
C1370 C 0.9118 0.46383 0.46306 0.0
C1371 C 0.91528 0.48468 0.48102 0.0
C1372 C 0.89156 0.44878 0.45653 0.0
C1373 C 0.87445 0.45411 0.4681 0.0
C1374 C 0.87797 0.47531 0.48572 0.0
C1375 C 0.8981 0.49049 0.49195 0.0
H1376 H 0.4267 0.15401 0.3185 0.0
H1377 H 0.36824 0.10413 0.28587 0.0
H1378 H 0.40753 0.18737 0.31916 0.0
H1379 H 0.34896 0.13722 0.28596 0.0
H1380 H 0.31152 0.19935 0.29504 0.0
H1381 H 0.33086 0.16628 0.29412 0.0
H1382 H 0.39063 0.21787 0.31244 0.0
H1383 H 0.37103 0.25073 0.31385 0.0
C1384 C 0.40971 0.14989 0.31121 0.0
C1385 C 0.39958 0.12545 0.30205 0.0
C1386 C 0.39834 0.16953 0.31152 0.0
C1387 C 0.37586 0.16637 0.30267 0.0
C1388 C 0.36588 0.14177 0.29338 0.0
C1389 C 0.37725 0.12219 0.29315 0.0
C1390 C 0.32881 0.2039 0.29884 0.0
C1391 C 0.33911 0.22867 0.30447 0.0
C1392 C 0.34031 0.18441 0.29826 0.0
C1393 C 0.36315 0.18801 0.30318 0.0
C1394 C 0.37338 0.21295 0.30867 0.0
C1395 C 0.36185 0.23242 0.30936 0.0
H1396 H 0.31281 0.10787 0.55413 0.0
H1397 H 0.35087 0.1718 0.53536 0.0
H1398 H 0.34427 0.08943 0.55893 0.0
H1399 H 0.38235 0.15346 0.54032 0.0
H1400 H 0.42933 0.10321 0.52581 0.0
H1401 H 0.39769 0.12134 0.52058 0.0
H1402 H 0.37846 0.09256 0.58624 0.0
H1403 H 0.40974 0.07403 0.59112 0.0
C1404 C 0.3279 0.11806 0.55112 0.0
C1405 C 0.32922 0.14138 0.54438 0.0
C1406 C 0.34602 0.1075 0.55399 0.0
C1407 C 0.366 0.11986 0.55001 0.0
C1408 C 0.36727 0.1432 0.54325 0.0
C1409 C 0.34919 0.15383 0.54058 0.0
C1410 C 0.41829 0.10059 0.53904 0.0
C1411 C 0.42228 0.08714 0.55895 0.0
C1412 C 0.4002 0.11122 0.53619 0.0
C1413 C 0.38539 0.10853 0.553 0.0
C1414 C 0.3893 0.09491 0.57276 0.0
C1415 C 0.40746 0.08447 0.57573 0.0
H1416 H 0.67637 0.67654 0.34394 0.0
H1417 H 0.71927 0.6278 0.35869 0.0
H1418 H 0.70677 0.708 0.34043 0.0
H1419 H 0.74958 0.65936 0.35554 0.0
H1420 H 0.80016 0.73138 0.36727 0.0
H1421 H 0.77001 0.70285 0.37701 0.0
H1422 H 0.73193 0.70896 0.30624 0.0
H1423 H 0.76219 0.73637 0.29604 0.0
C1424 C 0.69229 0.67268 0.34692 0.0
C1425 C 0.69539 0.64962 0.35143 0.0
C1426 C 0.70966 0.69064 0.34478 0.0
C1427 C 0.73049 0.68604 0.34761 0.0
C1428 C 0.73371 0.66343 0.35342 0.0
C1429 C 0.71634 0.64534 0.35509 0.0
C1430 C 0.78532 0.72659 0.35386 0.0
C1431 C 0.78334 0.73647 0.33114 0.0
C1432 C 0.7681 0.71036 0.35945 0.0
C1433 C 0.74855 0.70402 0.34254 0.0
C1434 C 0.74664 0.71395 0.31987 0.0
C1435 C 0.76393 0.72975 0.3141 0.0
H1436 H 0.9248 0.47845 0.84051 0.0
H1437 H 0.88045 0.48915 0.77708 0.0
H1438 H 0.90297 0.43904 0.84147 0.0
H1439 H 0.85841 0.44892 0.77777 0.0
H1440 H 0.83735 0.36273 0.77185 0.0
H1441 H 0.85697 0.40365 0.76994 0.0
H1442 H 0.8698 0.41776 0.85148 0.0
H1443 H 0.85005 0.37725 0.85335 0.0
C1444 C 0.91023 0.47257 0.82674 0.0
C1445 C 0.90466 0.48771 0.80883 0.0
C1446 C 0.89751 0.44963 0.82736 0.0
C1447 C 0.87856 0.44007 0.80974 0.0
C1448 C 0.87282 0.45515 0.79171 0.0
C1449 C 0.88544 0.47856 0.79144 0.0
C1450 C 0.8443 0.37449 0.78945 0.0
C1451 C 0.84187 0.36604 0.8128 0.0
C1452 C 0.85556 0.39829 0.78835 0.0
C1453 C 0.86534 0.41468 0.81053 0.0
C1454 C 0.86291 0.4061 0.8338 0.0
C1455 C 0.85136 0.38256 0.8349 0.0
H1456 H 0.09604 0.85614 0.10908 0.0
H1457 H 0.09817 0.89703 0.18222 0.0
H1458 H 0.09413 0.89225 0.08915 0.0
H1459 H 0.09632 0.93332 0.16221 0.0
H1460 H 0.10976 0.99868 0.11922 0.0
H1461 H 0.11575 0.96329 0.13883 0.0
H1462 H 0.06766 0.91781 0.08045 0.0
H1463 H 0.06182 0.95314 0.06084 0.0
C1464 C 0.09632 0.8729 0.121 0.0
C1465 C 0.09721 0.87355 0.14733 0.0
C1466 C 0.09508 0.89363 0.10949 0.0
C1467 C 0.09491 0.9158 0.12396 0.0
C1468 C 0.09655 0.91667 0.15043 0.0
C1469 C 0.09756 0.89581 0.16193 0.0
C1470 C 0.10071 0.98113 0.11032 0.0
C1471 C 0.0854 0.97894 0.08829 0.0
C1472 C 0.10398 0.96079 0.12176 0.0
C1473 C 0.09217 0.93755 0.11134 0.0
C1474 C 0.07723 0.9353 0.08895 0.0
C1475 C 0.07381 0.95566 0.07771 0.0
H1476 H 0.94118 0.27844 0.95722 0.0
H1477 H 0.97463 0.27765 0.89351 0.0
H1478 H 0.90829 0.27957 0.92949 0.0
H1479 H 0.94177 0.27968 0.86569 0.0
H1480 H 0.87603 0.26073 0.81713 0.0
H1481 H 0.90825 0.2589 0.84545 0.0
H1482 H 0.88857 0.30239 0.90535 0.0
H1483 H 0.8555 0.30333 0.87672 0.0
C1484 C 0.94159 0.27855 0.93722 0.0
C1485 C 0.96077 0.27781 0.92772 0.0
C1486 C 0.9226 0.27945 0.92125 0.0
C1487 C 0.92202 0.27984 0.8951 0.0
C1488 C 0.94122 0.27901 0.88556 0.0
C1489 C 0.96023 0.27789 0.90157 0.0
C1490 C 0.87846 0.26989 0.83639 0.0
C1491 C 0.86307 0.2822 0.84458 0.0
C1492 C 0.89721 0.26903 0.85269 0.0
C1493 C 0.90151 0.28069 0.87788 0.0
C1494 C 0.88594 0.29291 0.88623 0.0
C1495 C 0.86693 0.29358 0.86981 0.0
H1496 H 0.60386 0.24688 0.59661 0.0
H1497 H 0.56934 0.236 0.65865 0.0
H1498 H 0.59637 0.2037 0.5829 0.0
H1499 H 0.56201 0.1923 0.64487 0.0
H1500 H 0.5356 0.11699 0.59566 0.0
H1501 H 0.54196 0.1603 0.61042 0.0
H1502 H 0.60678 0.16777 0.59618 0.0
H1503 H 0.60042 0.12467 0.58117 0.0
C1504 C 0.59465 0.23533 0.60743 0.0
C1505 C 0.58729 0.24517 0.62889 0.0
C1506 C 0.59048 0.2104 0.59959 0.0
C1507 C 0.57875 0.19436 0.61285 0.0
C1508 C 0.57101 0.2041 0.63408 0.0
C1509 C 0.57529 0.22918 0.64206 0.0
C1510 C 0.55122 0.12784 0.59561 0.0
C1511 C 0.56745 0.11718 0.58702 0.0
C1512 C 0.5549 0.15271 0.60428 0.0
C1513 C 0.57487 0.16766 0.60446 0.0
C1514 C 0.5911 0.15696 0.596 0.0
C1515 C 0.58746 0.13212 0.58746 0.0
H1516 H 0.56355 0.7603 0.38224 0.0
H1517 H 0.60397 0.78739 0.4546 0.0
H1518 H 0.59523 0.76208 0.36198 0.0
H1519 H 0.63557 0.78956 0.4344 0.0
H1520 H 0.69001 0.77301 0.39394 0.0
H1521 H 0.65807 0.76718 0.41375 0.0
H1522 H 0.62281 0.79102 0.35036 0.0
H1523 H 0.65442 0.79604 0.33024 0.0
C1524 C 0.57918 0.76649 0.39389 0.0
C1525 C 0.5811 0.77369 0.42011 0.0
C1526 C 0.59742 0.76772 0.38222 0.0
C1527 C 0.61816 0.7761 0.39642 0.0
C1528 C 0.62002 0.78275 0.42276 0.0
C1529 C 0.6018 0.7816 0.43439 0.0
C1530 C 0.6754 0.77677 0.38407 0.0
C1531 C 0.67503 0.78517 0.36045 0.0
C1532 C 0.65706 0.77365 0.39559 0.0
C1533 C 0.63767 0.77865 0.38381 0.0
C1534 C 0.63725 0.7867 0.36003 0.0
C1535 C 0.65558 0.78992 0.34858 0.0
H1536 H 0.0401 0.25044 0.38701 0.0
H1537 H 0.08852 0.27187 0.45398 0.0
H1538 H 0.04096 0.2079 0.38979 0.0
H1539 H 0.08985 0.22976 0.45639 0.0
H1540 H 0.08982 0.15617 0.46267 0.0
H1541 H 0.09482 0.18815 0.43624 0.0
H1542 H 0.02736 0.18862 0.42742 0.0
H1543 H 1.0224 0.15739 0.45426 0.0
C1544 C 0.05155 0.24605 0.40163 0.0
C1545 C 0.06406 0.26418 0.42052 0.0
C1546 C 0.05205 0.2218 0.40319 0.0
C1547 C 0.06544 0.21561 0.42328 0.0
C1548 C 0.07956 0.23401 0.44051 0.0
C1549 C 0.07869 0.25809 0.43931 0.0
C1550 C 0.07597 0.16268 0.45452 0.0
C1551 C 0.05586 0.15488 0.46125 0.0
C1552 C 0.07882 0.18075 0.43919 0.0
C1553 C 0.06154 0.19105 0.43019 0.0
C1554 C 0.04094 0.1809 0.43401 0.0
C1555 C 0.03812 0.16301 0.44953 0.0
H1556 H 0.65176 0.32424 0.21726 0.0
H1557 H 0.63069 0.25633 0.24337 0.0
H1558 H 0.68829 0.325 0.23666 0.0
H1559 H 0.66775 0.25713 0.263 0.0
H1560 H 0.74126 0.25709 0.26216 0.0
H1561 H 0.70333 0.25492 0.24633 0.0
H1562 H 0.70926 0.32876 0.2804 0.0
H1563 H 0.74686 0.33102 0.29619 0.0
C1564 C 0.65494 0.30951 0.22733 0.0
C1565 C 0.63838 0.29017 0.22875 0.0
C1566 C 0.67587 0.31003 0.23854 0.0
C1567 C 0.68085 0.29111 0.25128 0.0
C1568 C 0.6643 0.27186 0.25311 0.0
C1569 C 0.64314 0.2715 0.24211 0.0
C1570 C 0.73449 0.27288 0.26617 0.0
C1571 C 0.74722 0.29435 0.28013 0.0
C1572 C 0.71274 0.27153 0.25736 0.0
C1573 C 0.7034 0.29167 0.26215 0.0
C1574 C 0.71609 0.31302 0.27624 0.0
C1575 C 0.73769 0.31431 0.2852 0.0
H1576 H 0.55224 0.90935 0.94161 0.0
H1577 H 0.55357 0.85803 0.9947 0.0
H1578 H 0.5478 0.93982 0.97509 0.0
H1579 H 0.54922 0.8886 0.02821 0.0
H1580 H 0.52117 0.98268 0.03144 0.0
H1581 H 0.51907 0.94579 1.00235 0.0
H1582 H 0.57216 0.92932 0.05112 0.0
H1583 H 0.57438 0.96651 0.07989 0.0
C1584 C 0.55168 0.90465 0.96044 0.0
C1585 C 0.55329 0.88143 0.96562 0.0
C1586 C 0.54888 0.92194 0.97949 0.0
C1587 C 0.54787 0.91635 1.00408 0.0
C1588 C 0.54985 0.89326 1.00937 0.0
C1589 C 0.55238 0.87586 0.99023 0.0
C1590 C 0.53199 0.97084 0.03611 0.0
C1591 C 0.54818 0.97754 0.05738 0.0
C1592 C 0.53085 0.94984 0.01955 0.0
C1593 C 0.54583 0.93517 0.02424 0.0
C1594 C 0.56048 0.94044 0.04708 0.0
C1595 C 0.56166 0.96159 0.06361 0.0
H1596 H 0.04364 0.7713 0.78804 0.0
H1597 H 0.99857 0.75938 0.71827 0.0
H1598 H 1.01521 0.77861 0.81193 0.0
H1599 H 0.9702 0.76607 0.74198 0.0
H1600 H 0.9664 0.83051 0.82958 0.0
H1601 H 0.99474 0.81432 0.81205 0.0
H1602 H 0.94874 0.75055 0.77551 0.0
H1603 H 0.92046 0.76661 0.79308 0.0
C1604 C 0.02751 0.76932 0.77792 0.0
C1605 C 1.02325 0.76463 0.75133 0.0
C1606 C 1.01131 0.77378 0.79154 0.0
C1607 C 0.9905 0.77304 0.77881 0.0
C1608 C 0.986 0.7666 0.75236 0.0
C1609 C 1.00224 0.76272 0.73877 0.0
C1610 C 0.96242 0.81289 0.8181 0.0
C1611 C 0.94118 0.7999 0.81268 0.0
C1612 C 0.97866 0.80352 0.80825 0.0
C1613 C 0.97396 0.78115 0.79241 0.0
C1614 C 0.95284 0.76783 0.78763 0.0
C1615 C 0.93668 0.77701 0.79781 0.0
H1616 H 0.1132 0.06729 0.88248 0.0
H1617 H 0.17712 0.07699 0.92467 0.0
H1618 H 0.09842 0.05755 0.92015 0.0
H1619 H 0.16213 0.06786 0.96268 0.0
H1620 H 0.11376 0.07546 0.0256 0.0
H1621 H 0.13261 0.08751 0.99119 0.0
H1622 H 0.10476 1.01829 0.9463 0.0
H1623 H 0.08656 1.00587 0.98078 0.0
C1624 C 0.12411 0.06782 0.89991 0.0
C1625 C 0.14634 0.07283 0.90058 0.0
C1626 C 0.11562 0.06211 0.9214 0.0
C1627 C 0.12917 0.06182 0.94416 0.0
C1628 C 0.1514 0.06798 0.9453 0.0
C1629 C 0.15992 0.07319 0.92359 0.0
C1630 C 0.11209 0.06262 1.00863 0.0
C1631 C 0.09868 0.03971 1.00591 0.0
C1632 C 0.1228 0.06956 0.98897 0.0
C1633 C 0.11991 0.05387 0.96611 0.0
C1634 C 0.10709 0.03074 0.96372 0.0
C1635 C 0.09677 1.02363 0.9835 0.0
H1636 H 0.80531 0.31843 0.54873 0.0
H1637 H 0.81629 0.39451 0.57744 0.0
H1638 H 0.82719 0.31171 0.58637 0.0
H1639 H 0.83923 0.38794 0.61513 0.0
H1640 H 0.83759 0.35271 0.68973 0.0
H1641 H 0.83263 0.37048 0.65123 0.0
H1642 H 0.86003 0.31568 0.61291 0.0
H1643 H 0.86377 0.29705 0.65148 0.0
C1644 C 0.81275 0.33386 0.56292 0.0
C1645 C 0.80872 0.35693 0.5603 0.0
C1646 C 0.82567 0.33007 0.58446 0.0
C1647 C 0.83514 0.3493 0.60389 0.0
C1648 C 0.83199 0.37266 0.60069 0.0
C1649 C 0.81878 0.37642 0.57916 0.0
C1650 C 0.84341 0.34507 0.67339 0.0
C1651 C 0.85058 0.32322 0.67328 0.0
C1652 C 0.84059 0.3553 0.65119 0.0
C1653 C 0.84518 0.34398 0.62864 0.0
C1654 C 0.85554 0.32429 0.62973 0.0
C1655 C 0.85792 0.31374 0.65182 0.0
H1656 H 0.43783 0.06963 0.39766 0.0
H1657 H 0.48903 0.05766 0.358 0.0
H1658 H 0.4598 0.06597 0.43787 0.0
H1659 H 0.51062 0.05342 0.39746 0.0
H1660 H 0.55572 0.06703 0.47238 0.0
H1661 H 0.53218 0.07078 0.43449 0.0
H1662 H 0.47744 0.04538 0.46861 0.0
H1663 H 0.50171 0.04209 0.50745 0.0
C1664 C 0.45372 0.06611 0.3973 0.0
C1665 C 0.46135 0.06417 0.37391 0.0
C1666 C 0.46649 0.06387 0.42067 0.0
C1667 C 0.48765 0.05964 0.42198 0.0
C1668 C 0.49494 0.0573 0.39835 0.0
C1669 C 0.48225 0.05955 0.37518 0.0
C1670 C 0.53867 0.0622 0.47215 0.0
C1671 C 0.53108 0.05421 0.49372 0.0
C1672 C 0.52485 0.06415 0.44981 0.0
C1673 C 0.50229 0.05806 0.44725 0.0
C1674 C 0.4945 0.05043 0.46909 0.0
C1675 C 0.50854 0.04849 0.49172 0.0
H1676 H 0.76692 0.74481 0.09516 0.0
H1677 H 0.79899 0.68634 0.11063 0.0
H1678 H 0.77418 0.76075 0.13972 0.0
H1679 H 0.80622 0.70263 0.15598 0.0
H1680 H 0.83242 0.75765 0.23165 0.0
H1681 H 0.82709 0.7398 0.18706 0.0
H1682 H 0.76135 0.748 0.17794 0.0
H1683 H 0.76658 0.76586 0.22211 0.0
C1684 C 0.77556 0.73526 0.10802 0.0
C1685 C 0.78223 0.71408 0.0991 0.0
C1686 C 0.77962 0.74443 0.13372 0.0
C1687 C 0.79056 0.73285 0.15147 0.0
C1688 C 0.79777 0.71199 0.14272 0.0
C1689 C 0.79355 0.70261 0.11677 0.0
C1690 C 0.81684 0.75571 0.2201 0.0
C1691 C 0.79997 0.7634 0.2305 0.0
C1692 C 0.81376 0.74527 0.19462 0.0
C1693 C 0.79383 0.74255 0.17893 0.0
C1694 C 0.77699 0.75009 0.18941 0.0
C1695 C 0.77999 0.76031 0.21482 0.0
H1696 H 0.13225 0.04197 0.76121 0.0
H1697 H 0.12296 0.11527 0.76437 0.0
H1698 H 0.11671 0.03392 0.71639 0.0
H1699 H 0.10917 0.10819 0.71922 0.0
H1700 H 0.06539 0.08454 0.64426 0.0
H1701 H 0.08079 0.09159 0.68893 0.0
H1702 H 0.11896 0.03772 0.67547 0.0
H1703 H 0.10203 0.02949 0.63116 0.0
C1704 C 0.12724 0.05649 0.7521 0.0
C1705 C 0.12865 0.07917 0.76625 0.0
C1706 C 0.11843 0.05199 0.72627 0.0
C1707 C 0.11139 0.0703 0.71376 0.0
C1708 C 0.11364 0.09327 0.728 0.0
C1709 C 0.1218 0.09751 0.75394 0.0
C1710 C 0.07706 0.07422 0.65095 0.0
C1711 C 0.08251 0.05649 0.63425 0.0
C1712 C 0.08613 0.07839 0.67663 0.0
C1713 C 0.10145 0.06546 0.68624 0.0
C1714 C 0.107 0.04782 0.66924 0.0
C1715 C 0.09741 0.04317 0.64368 0.0
H1716 H 0.7213 0.32764 0.45947 0.0
H1717 H 0.75147 0.3945 0.43784 0.0
H1718 H 0.72722 0.30549 0.42048 0.0
H1719 H 0.75786 0.37224 0.39914 0.0
H1720 H 0.7466 0.27841 0.34135 0.0
H1721 H 0.72645 0.30185 0.36666 0.0
H1722 H 0.78572 0.34097 0.41265 0.0
H1723 H 0.80565 0.31703 0.3883 0.0
C1724 C 0.72801 0.3377 0.44563 0.0
C1725 C 0.73613 0.36265 0.45162 0.0
C1726 C 0.73144 0.32504 0.42339 0.0
C1727 C 0.74327 0.33723 0.40724 0.0
C1728 C 0.74869 0.36257 0.41146 0.0
C1729 C 0.74489 0.3753 0.43349 0.0
C1730 C 0.7552 0.29185 0.35708 0.0
C1731 C 0.77764 0.29623 0.36287 0.0
C1732 C 0.74374 0.30539 0.37121 0.0
C1733 C 0.75468 0.32362 0.3909 0.0
C1734 C 0.77704 0.32747 0.39699 0.0
C1735 C 0.78839 0.31367 0.38329 0.0
H1736 H 0.49277 0.08657 0.253 0.0
H1737 H 0.43774 0.03504 0.21291 0.0
H1738 H 0.51009 0.08387 0.21584 0.0
H1739 H 0.4552 0.0318 0.1753 0.0
H1740 H 0.48949 0.03715 0.10343 0.0
H1741 H 0.46954 0.04185 0.13867 0.0
H1742 H 0.52909 0.06437 0.19079 0.0
H1743 H 0.54868 0.05999 0.15583 0.0
C1744 C 0.48388 0.07513 0.23594 0.0
C1745 C 0.46308 0.06196 0.23647 0.0
C1746 C 0.49422 0.07306 0.21431 0.0
C1747 C 0.48473 0.05725 0.19153 0.0
C1748 C 0.46358 0.04446 0.19174 0.0
C1749 C 0.45319 0.04657 0.21358 0.0
C1750 C 0.49845 0.04311 0.12238 0.0
C1751 C 0.52117 0.04808 0.12595 0.0
C1752 C 0.48681 0.0458 0.14303 0.0
C1753 C 0.49711 0.05386 0.16863 0.0
C1754 C 0.51984 0.05865 0.17199 0.0
C1755 C 0.53139 0.05586 0.15147 0.0
H1756 H 0.76447 0.72419 0.97891 0.0
H1757 H 0.78811 0.66437 0.94458 0.0
H1758 H 0.77103 0.74583 0.94335 0.0
H1759 H 0.79478 0.68612 0.90893 0.0
H1760 H 0.83388 0.74906 0.8756 0.0
H1761 H 0.82137 0.72277 0.90533 0.0
H1762 H 0.76131 0.7467 0.89665 0.0
H1763 H 0.77397 0.77309 0.86661 0.0
C1764 C 0.7707 0.71545 0.96352 0.0
C1765 C 0.77583 0.69255 0.96467 0.0
C1766 C 0.7744 0.72785 0.94305 0.0
C1767 C 0.7836 0.71785 0.92332 0.0
C1768 C 0.78788 0.69448 0.92393 0.0
C1769 C 0.7839 0.68192 0.94427 0.0
C1770 C 0.81792 0.74859 0.87987 0.0
C1771 C 0.80494 0.76324 0.86884 0.0
C1772 C 0.81068 0.73334 0.89678 0.0
C1773 C 0.7903 0.73253 0.90343 0.0
C1774 C 0.77713 0.74695 0.89206 0.0
C1775 C 0.78431 0.76198 0.87478 0.0
H1776 H 0.92744 0.18536 0.08644 0.0
H1777 H 0.88832 0.13386 0.12211 0.0
H1778 H 0.94699 0.1549 0.07348 0.0
H1779 H 0.90852 0.10337 0.10985 0.0
H1780 H 0.92524 0.04932 0.04853 0.0
H1781 H 0.90946 0.0802 0.06982 0.0
H1782 H 0.97087 0.12934 0.08475 0.0
H1783 H 0.98631 0.09877 0.06282 0.0
C1784 C 0.92343 0.1677 0.09218 0.0
C1785 C 0.90615 0.16189 0.10497 0.0
C1786 C 0.93471 0.15021 0.08481 0.0
C1787 C 0.92908 0.12657 0.09028 0.0
C1788 C 0.91289 0.12128 0.10485 0.0
C1789 C 0.9015 0.13881 0.11213 0.0
C1790 C 0.93526 0.06676 0.05638 0.0
C1791 C 0.95682 0.07189 0.05365 0.0
C1792 C 0.92634 0.08435 0.0688 0.0
C1793 C 0.93893 0.10725 0.079 0.0
C1794 C 0.96065 0.11206 0.07675 0.0
C1795 C 0.96947 0.09461 0.0641 0.0
H1796 H 0.42176 0.41667 0.08139 0.0
H1797 H 0.38723 0.47485 0.07983 0.0
H1798 H 0.4543 0.44418 0.07789 0.0
H1799 H 0.42023 0.50273 0.07652 0.0
H1800 H 0.47704 0.53606 0.03834 0.0
H1801 H 0.44427 0.51068 0.0456 0.0
H1802 H 0.48161 0.47816 0.09995 0.0
H1803 H 0.51434 0.50374 0.09264 0.0
C1804 C 0.42109 0.43543 0.08053 0.0
C1805 C 0.40167 0.44341 0.08083 0.0
C1806 C 0.43993 0.45132 0.07868 0.0
C1807 C 0.44006 0.47578 0.07687 0.0
C1808 C 0.42075 0.48397 0.07762 0.0
C1809 C 0.40183 0.46802 0.07973 0.0
C1810 C 0.47825 0.52352 0.0519 0.0
C1811 C 0.49839 0.52172 0.0647 0.0
C1812 C 0.4594 0.50906 0.0562 0.0
C1813 C 0.46013 0.49224 0.07336 0.0
C1814 C 0.48034 0.49063 0.08634 0.0
C1815 C 0.49917 0.50525 0.08214 0.0
H1816 H 0.3961 0.54874 0.75491 0.0
H1817 H 0.45345 0.59588 0.79739 0.0
H1818 H 0.37681 0.58152 0.75888 0.0
H1819 H 0.43392 0.62885 0.80153 0.0
H1820 H 0.39165 0.68621 0.78395 0.0
H1821 H 0.41384 0.65611 0.7774 0.0
H1822 H 0.36506 0.60164 0.79614 0.0
H1823 H 0.34319 0.63149 0.80302 0.0
C1824 C 0.40468 0.56619 0.76485 0.0
C1825 C 0.42626 0.56963 0.77605 0.0
C1826 C 0.39357 0.58495 0.76725 0.0
C1827 C 0.40375 0.60764 0.78089 0.0
C1828 C 0.42566 0.61155 0.7909 0.0
C1829 C 0.43682 0.59268 0.78855 0.0
C1830 C 0.38581 0.66786 0.78694 0.0
C1831 C 0.3655 0.6612 0.79368 0.0
C1832 C 0.39848 0.65064 0.78312 0.0
C1833 C 0.39103 0.62644 0.78584 0.0
C1834 C 0.37102 0.62 0.79325 0.0
C1835 C 0.35847 0.63714 0.79719 0.0
H1836 H 0.30264 0.65325 0.63088 0.0
H1837 H 0.26923 0.70937 0.61042 0.0
H1838 H 0.26849 0.62681 0.63203 0.0
H1839 H 0.23521 0.68278 0.61134 0.0
H1840 H 0.1842 0.61373 0.57438 0.0
H1841 H 0.2183 0.64197 0.58021 0.0
H1842 H 0.23446 0.62509 0.6557 0.0
H1843 H 0.19982 0.59752 0.6505 0.0
C1844 C 0.28806 0.66007 0.62709 0.0
C1845 C 0.28856 0.6833 0.62041 0.0
C1846 C 0.26859 0.64499 0.62783 0.0
C1847 C 0.24937 0.6528 0.62151 0.0
C1848 C 0.24991 0.67639 0.61608 0.0
C1849 C 0.26936 0.69161 0.61574 0.0
C1850 C 0.19483 0.61623 0.59238 0.0
C1851 C 0.18915 0.6035 0.61205 0.0
C1852 C 0.21434 0.63235 0.59566 0.0
C1853 C 0.22875 0.63579 0.61849 0.0
C1854 C 0.2235 0.62266 0.63794 0.0
C1855 C 0.20378 0.60678 0.63484 0.0
H1856 H 0.68878 0.93124 0.82789 0.0
H1857 H 0.74654 0.98001 0.82241 0.0
H1858 H 0.70772 0.89753 0.82639 0.0
H1859 H 0.76553 0.94654 0.82067 0.0
H1860 H 0.80271 0.88409 0.83161 0.0
H1861 H 0.78363 0.91758 0.83373 0.0
H1862 H 0.72367 0.86699 0.81072 0.0
H1863 H 0.74286 0.83368 0.80883 0.0
C1864 C 0.70554 0.93506 0.82626 0.0
C1865 C 0.71557 0.95931 0.82527 0.0
C1866 C 0.71672 0.91524 0.82527 0.0
C1867 C 0.7389 0.91806 0.82338 0.0
C1868 C 0.74882 0.94242 0.82242 0.0
C1869 C 0.73762 0.96216 0.82328 0.0
C1870 C 0.78543 0.87983 0.82702 0.0
C1871 C 0.77491 0.85519 0.82005 0.0
C1872 C 0.77415 0.89953 0.82808 0.0
C1873 C 0.75137 0.89626 0.82238 0.0
C1874 C 0.74091 0.8715 0.81561 0.0
C1875 C 0.7522 0.85184 0.8144 0.0
H1876 H 0.75808 0.90849 0.57069 0.0
H1877 H 0.79972 0.97636 0.60403 0.0
H1878 H 0.7273 0.92783 0.56886 0.0
H1879 H 0.76882 0.99571 0.60288 0.0
H1880 H 0.71341 0.02855 0.56795 0.0
H1881 H 0.74396 1.00914 0.5739 0.0
H1882 H 0.70351 0.94584 0.59077 0.0
H1883 H 0.67263 0.96491 0.58358 0.0
C1884 C 0.76066 0.9275 0.57805 0.0
C1885 C 0.7815 0.94082 0.58747 0.0
C1886 C 0.7429 0.93864 0.5771 0.0
C1887 C 0.74535 0.96351 0.58557 0.0
C1888 C 0.76617 0.97666 0.59572 0.0
C1889 C 0.78396 0.9655 0.59662 0.0
C1890 C 0.71089 1.0104 0.57273 0.0
C1891 C 0.69028 0.99832 0.57496 0.0
C1892 C 0.72861 0.99933 0.57654 0.0
C1893 C 0.72645 0.97576 0.58283 0.0
C1894 C 0.70592 0.96385 0.58562 0.0
C1895 C 0.68815 0.97495 0.58178 0.0
H1896 H 0.44314 0.41483 0.79458 0.0
H1897 H 0.39852 0.45716 0.76525 0.0
H1898 H 0.41339 0.3821 0.79602 0.0
H1899 H 0.36878 0.42449 0.76706 0.0
H1900 H 0.32036 0.35176 0.75757 0.0
H1901 H 0.35021 0.38217 0.75003 0.0
H1902 H 0.3858 0.37729 0.8229 0.0
H1903 H 0.35614 0.34757 0.83043 0.0
C1904 C 0.42703 0.41713 0.78822 0.0
C1905 C 0.42331 0.43881 0.78001 0.0
C1906 C 0.40994 0.39838 0.78918 0.0
C1907 C 0.38867 0.40077 0.78192 0.0
C1908 C 0.38495 0.42198 0.77265 0.0
C1909 C 0.40205 0.44079 0.77175 0.0
C1910 C 0.33461 0.35725 0.77187 0.0
C1911 C 0.33609 0.34698 0.79437 0.0
C1912 C 0.35168 0.37463 0.7676 0.0
C1913 C 0.37054 0.38193 0.78572 0.0
C1914 C 0.37179 0.37168 0.80825 0.0
C1915 C 0.35477 0.35458 0.81256 0.0
H1916 H 0.191 0.62187 0.35401 0.0
H1917 H 0.23287 0.58535 0.31588 0.0
H1918 H 0.21269 0.66068 0.35123 0.0
H1919 H 0.25515 0.6248 0.31328 0.0
H1920 H 0.27979 0.70149 0.29071 0.0
H1921 H 0.26012 0.66139 0.29469 0.0
H1922 H 0.24299 0.691 0.36429 0.0
H1923 H 0.26238 0.73097 0.36003 0.0
C1924 C 0.20507 0.62191 0.34522 0.0
C1925 C 0.20982 0.59967 0.33536 0.0
C1926 C 0.21781 0.64465 0.34371 0.0
C1927 C 0.23619 0.64684 0.33202 0.0
C1928 C 0.24121 0.62458 0.3223 0.0
C1929 C 0.22844 0.6016 0.32406 0.0
C1930 C 0.27189 0.6996 0.30696 0.0
C1931 C 0.273 0.72022 0.32497 0.0
C1932 C 0.26053 0.6762 0.30937 0.0
C1933 C 0.24944 0.67204 0.32983 0.0
C1934 C 0.25074 0.69273 0.34791 0.0
C1935 C 0.26219 0.71606 0.34557 0.0
H1936 H 0.55405 0.71308 0.46921 0.0
H1937 H 0.50422 0.71189 0.51474 0.0
H1938 H 0.56193 0.67596 0.48417 0.0
H1939 H 0.51196 0.67503 0.52943 0.0
H1940 H 0.51891 0.59622 0.5331 0.0
H1941 H 0.51015 0.63163 0.51548 0.0
H1942 H 0.57734 0.66319 0.52474 0.0
H1943 H 0.58612 0.6279 0.54251 0.0
C1944 C 0.54458 0.70479 0.48211 0.0
C1945 C 0.5285 0.71564 0.49073 0.0
C1946 C 0.54922 0.68359 0.49088 0.0
C1947 C 0.53765 0.67241 0.50815 0.0
C1948 C 0.52114 0.68289 0.51605 0.0
C1949 C 0.51676 0.7042 0.50765 0.0
C1950 C 0.53185 0.61073 0.53152 0.0
C1951 C 0.55325 0.60913 0.53948 0.0
C1952 C 0.52681 0.63111 0.52139 0.0
C1953 C 0.54302 0.65037 0.51851 0.0
C1954 C 0.56442 0.64868 0.52634 0.0
C1955 C 0.56945 0.62847 0.53681 0.0
H1956 H 0.681 0.34758 0.68467 0.0
H1957 H 0.64331 0.29717 0.72273 0.0
H1958 H 0.71349 0.34387 0.71216 0.0
H1959 H 0.67604 0.29313 0.75002 0.0
H1960 H 0.74355 0.27286 0.7718 0.0
H1961 H 0.71061 0.27648 0.74446 0.0
H1962 H 0.72999 0.35408 0.75912 0.0
H1963 H 0.7625 0.35046 0.78672 0.0
C1964 C 0.6796 0.33581 0.69903 0.0
C1965 C 0.65943 0.3228 0.70152 0.0
C1966 C 0.69828 0.33368 0.7148 0.0
C1967 C 0.69745 0.31808 0.73322 0.0
C1968 C 0.67729 0.30514 0.73588 0.0
C1969 C 0.6585 0.30767 0.72041 0.0
C1970 C 0.74082 0.29066 0.76898 0.0
C1971 C 0.75568 0.31138 0.78139 0.0
C1972 C 0.72187 0.29275 0.75352 0.0
C1973 C 0.71757 0.31559 0.74965 0.0
C1974 C 0.73277 0.33623 0.76156 0.0
C1975 C 0.75142 0.33415 0.77739 0.0
H1976 H 1.02116 0.35543 0.94626 0.0
H1977 H 0.03955 0.33469 0.01952 0.0
H1978 H 1.0233 0.39687 0.96645 0.0
H1979 H 0.04232 0.37629 0.03955 0.0
H1980 H 0.07423 0.46047 0.05248 0.0
H1981 H 0.06851 0.41777 0.03481 0.0
H1982 H 1.00411 0.41958 1.00111 0.0
H1983 H 1.00957 0.46221 0.01942 0.0
C1984 C 1.02555 0.35969 0.96667 0.0
C1985 C 0.03019 0.34178 0.98129 0.0
C1986 C 0.02671 0.38338 0.97821 0.0
C1987 C 0.03302 0.38981 1.00456 0.0
C1988 C 0.03747 0.37186 0.01921 0.0
C1989 C 0.0358 0.34804 1.00774 0.0
C1990 C 0.05876 0.45171 0.04155 0.0
C1991 C 0.04233 0.46474 0.03742 0.0
C1992 C 0.05548 0.42725 0.0315 0.0
C1993 C 0.03588 0.41537 0.01655 0.0
C1994 C 1.01939 0.42831 1.01251 0.0
C1995 C 1.02249 0.45265 0.02311 0.0
H1996 H 1.0181 0.80547 0.16667 0.0
H1997 H 0.05375 0.79562 0.23751 0.0
H1998 H 0.98539 0.80053 0.18489 0.0
H1999 H 1.02115 0.79126 0.25602 0.0
H2000 H 0.95567 0.76319 0.27599 0.0
H2001 H 0.98758 0.76597 0.25647 0.0
H2002 H 0.96743 0.82012 0.21404 0.0
H2003 H 0.93499 0.8165 0.23267 0.0
C2004 C 1.01898 0.80223 0.18616 0.0
C2005 C 0.03865 0.80092 0.20056 0.0
C2006 C 1.00018 0.79959 0.19673 0.0
C2007 C 1.00042 0.79558 0.22208 0.0
C2008 C 1.02011 0.794 0.23637 0.0
C2009 C 0.03892 0.79662 0.22577 0.0
C2010 C 0.9578 0.77545 0.26221 0.0
C2011 C 0.94248 0.78954 0.25597 0.0
C2012 C 0.97638 0.77731 0.25122 0.0
C2013 C 0.98034 0.79333 0.2336 0.0
C2014 C 0.96498 0.80734 0.22726 0.0
C2015 C 0.94639 0.80548 0.23825 0.0
H2016 H 0.56631 0.35626 0.24204 0.0
H2017 H 0.59989 0.33584 0.18199 0.0
H2018 H 0.57233 0.3979 0.23244 0.0
H2019 H 0.60623 0.37661 0.17286 0.0
H2020 H 0.61282 0.44424 0.14973 0.0
H2021 H 0.62033 0.42028 0.18352 0.0
H2022 H 0.55398 0.40914 0.19255 0.0
H2023 H 0.54663 0.43327 0.15925 0.0
C2024 C 0.57562 0.36086 0.22748 0.0
C2025 C 0.58229 0.34286 0.2124 0.0
C2026 C 0.5791 0.3846 0.22204 0.0
C2027 C 0.58968 0.3905 0.20185 0.0
C2028 C 0.59827 0.37285 0.18874 0.0
C2029 C 0.59439 0.34926 0.19377 0.0
C2030 C 0.60004 0.43722 0.15952 0.0
C2031 C 0.57903 0.43986 0.15143 0.0
C2032 C 0.60436 0.42376 0.17898 0.0
C2033 C 0.58764 0.41243 0.19025 0.0
C2034 C 0.56722 0.4177 0.18432 0.0
C2035 C 0.56295 0.43133 0.16502 0.0
H2036 H 0.97984 0.35075 0.42875 0.0
H2037 H 0.98487 0.29091 0.37478 0.0
H2038 H 0.94197 0.34546 0.41171 0.0
H2039 H 0.9467 0.284 0.35901 0.0
H2040 H 0.88238 0.29043 0.31851 0.0
H2041 H 0.92026 0.29661 0.33512 0.0
H2042 H 0.90834 0.32364 0.40906 0.0
H2043 H 0.87065 0.31934 0.39147 0.0
C2044 C 0.97265 0.33622 0.41343 0.0
C2045 C 0.98514 0.32128 0.40296 0.0
C2046 C 0.95087 0.33297 0.40376 0.0
C2047 C 0.94096 0.3142 0.3839 0.0
C2048 C 0.95364 0.29904 0.3738 0.0
C2049 C 0.97553 0.30282 0.38295 0.0
C2050 C 0.88795 0.29762 0.33834 0.0
C2051 C 0.8737 0.30437 0.35378 0.0
C2052 C 0.9097 0.30104 0.348 0.0
C2053 C 0.91765 0.31058 0.37361 0.0
C2054 C 0.90311 0.3168 0.38914 0.0
C2055 C 0.88143 0.3141 0.3792 0.0
H2056 H 0.05721 0.7009 0.68226 0.0
H2057 H 0.05307 0.73529 0.6148 0.0
H2058 H 0.05674 0.66257 0.65633 0.0
H2059 H 0.05448 0.69827 0.5896 0.0
H2060 H 0.04317 0.62536 0.54459 0.0
H2061 H 0.03891 0.66086 0.5707 0.0
H2062 H 0.07853 0.64242 0.63454 0.0
H2063 H 0.08114 0.60534 0.60843 0.0
C2064 C 0.05583 0.70023 0.66192 0.0
C2065 C 0.05535 0.72126 0.6507 0.0
C2066 C 0.05603 0.67836 0.64706 0.0
C2067 C 0.05599 0.67719 0.62076 0.0
C2068 C 0.05426 0.69803 0.60959 0.0
C2069 C 0.05359 0.71954 0.62423 0.0
C2070 C 0.05132 0.62904 0.56407 0.0
C2071 C 0.06272 0.61268 0.57439 0.0
C2072 C 0.04886 0.64955 0.5792 0.0
C2073 C 0.05837 0.65481 0.60494 0.0
C2074 C 0.07054 0.63883 0.61501 0.0
C2075 C 0.07246 0.61783 0.59995 0.0
H2076 H 0.61652 0.83514 0.90811 0.0
H2077 H 0.57 0.80936 0.83987 0.0
H2078 H 0.64471 0.82525 0.8858 0.0
H2079 H 0.59842 0.79911 0.81749 0.0
H2080 H 0.65296 0.75331 0.80786 0.0
H2081 H 0.623 0.76761 0.82317 0.0
H2082 H 0.66306 0.8381 0.84891 0.0
H2083 H 0.69285 0.82418 0.83295 0.0
C2084 C 0.61236 0.82754 0.88825 0.0
C2085 C 0.59109 0.82297 0.87571 0.0
C2086 C 0.62852 0.82201 0.87546 0.0
C2087 C 0.62371 0.81147 0.84994 0.0
C2088 C 0.60249 0.80719 0.8372 0.0
C2089 C 0.5863 0.81314 0.84994 0.0
C2090 C 0.65526 0.77201 0.81622 0.0
C2091 C 0.67541 0.78749 0.81952 0.0
C2092 C 0.6381 0.78017 0.82498 0.0
C2093 C 0.64082 0.80387 0.83738 0.0
C2094 C 0.66065 0.81964 0.8397 0.0
C2095 C 0.67772 0.81159 0.83072 0.0
H2096 H 0.47027 0.54623 0.71673 0.0
H2097 H 0.50082 0.48475 0.71233 0.0
H2098 H 0.4848 0.55853 0.67945 0.0
H2099 H 0.51509 0.49688 0.6754 0.0
H2100 H 0.5254 0.51253 0.59869 0.0
H2101 H 0.50357 0.5013 0.63037 0.0
H2102 H 0.52236 0.57405 0.67033 0.0
H2103 H 0.54423 0.58539 0.63832 0.0
C2104 C 0.47975 0.53514 0.70758 0.0
C2105 C 0.48443 0.51453 0.71754 0.0
C2106 C 0.48819 0.54228 0.68638 0.0
C2107 C 0.50107 0.52867 0.67445 0.0
C2108 C 0.50503 0.50763 0.68392 0.0
C2109 C 0.49694 0.50074 0.70523 0.0
C2110 C 0.52457 0.52628 0.61393 0.0
C2111 C 0.53672 0.5498 0.61615 0.0
C2112 C 0.51213 0.5198 0.63217 0.0
C2113 C 0.51144 0.53669 0.65305 0.0
C2114 C 0.5225 0.56064 0.65442 0.0
C2115 C 0.53508 0.56712 0.63617 0.0
H2116 H 0.81886 0.16812 0.03351 0.0
H2117 H 0.84418 0.245 0.04664 0.0
H2118 H 0.78842 0.17434 1.00382 0.0
H2119 H 0.81421 0.25113 0.01733 0.0
H2120 H 0.76308 0.26747 0.97657 0.0
H2121 H 0.77499 0.24829 1.01229 0.0
H2122 H 0.78411 0.18829 0.96128 0.0
H2123 H 0.77057 0.20659 0.92531 0.0
C2124 C 0.818 0.18627 0.0299 0.0
C2125 C 0.83389 0.20612 0.04223 0.0
C2126 C 0.80047 0.18982 1.01322 0.0
C2127 C 0.7986 0.21324 1.00887 0.0
C2128 C 0.81473 0.23292 0.02101 0.0
C2129 C 0.83215 0.22939 0.03745 0.0
C2130 C 0.76627 0.24949 0.97279 0.0
C2131 C 0.76717 0.23918 0.94812 0.0
C2132 C 0.77331 0.23859 0.99337 0.0
C2133 C 0.78167 0.21761 0.98942 0.0
C2134 C 0.77831 0.20484 0.96486 0.0
C2135 C 0.77075 0.21547 0.94424 0.0
H2136 H 0.14487 0.48546 0.23764 0.0
H2137 H 0.14884 0.56199 0.25536 0.0
H2138 H 0.12519 0.4864 0.19473 0.0
H2139 H 0.1289 0.56269 0.21368 0.0
H2140 H 0.0637 0.5458 0.15699 0.0
H2141 H 0.08828 0.54291 0.19487 0.0
H2142 H 0.12681 0.50923 0.14863 0.0
H2143 H 0.10215 0.51293 0.11 0.0
C2144 C 0.14232 0.50262 0.23237 0.0
C2145 C 0.14909 0.52372 0.25058 0.0
C2146 C 0.13071 0.50316 0.2076 0.0
C2147 C 0.12501 0.52468 0.20022 0.0
C2148 C 0.13259 0.54568 0.21814 0.0
C2149 C 0.14433 0.54523 0.24233 0.0
C2150 C 0.0775 0.53798 0.15457 0.0
C2151 C 0.08072 0.53001 0.12985 0.0
C2152 C 0.09172 0.53621 0.17661 0.0
C2153 C 0.10981 0.52565 0.17549 0.0
C2154 C 0.11312 0.51733 0.15075 0.0
C2155 C 0.09902 0.51973 0.12838 0.0
H2156 H 0.8331 0.91703 0.49309 0.0
H2157 H 0.81839 0.84846 0.52027 0.0
H2158 H 0.83104 0.89563 0.45016 0.0
H2159 H 0.81585 0.82738 0.47764 0.0
H2160 H 0.78622 0.80401 0.3917 0.0
H2161 H 0.78951 0.82608 0.43427 0.0
H2162 H 0.85274 0.86369 0.42907 0.0
H2163 H 0.84972 0.84123 0.38666 0.0
C2164 C 0.82939 0.89748 0.48989 0.0
C2165 C 0.82592 0.88443 0.51001 0.0
C2166 C 0.82829 0.88526 0.46543 0.0
C2167 C 0.82321 0.85987 0.46067 0.0
C2168 C 0.81966 0.84694 0.48078 0.0
C2169 C 0.82121 0.85905 0.50519 0.0
C2170 C 0.80089 0.81684 0.39971 0.0
C2171 C 0.81777 0.82074 0.38593 0.0
C2172 C 0.80275 0.82947 0.42402 0.0
C2173 C 0.82133 0.84667 0.43482 0.0
C2174 C 0.8382 0.85066 0.42106 0.0
C2175 C 0.83653 0.83763 0.39694 0.0
H2176 H 0.44726 0.50503 0.8642 0.0
H2177 H 0.50851 0.52014 0.8397 0.0
H2178 H 0.46547 0.50803 0.90803 0.0
H2179 H 0.52657 0.52369 0.88347 0.0
H2180 H 0.5435 0.56373 0.96793 0.0
H2181 H 0.52605 0.55597 0.92361 0.0
H2182 H 0.49341 0.48577 0.93465 0.0
H2183 H 0.5113 0.49323 0.97903 0.0
C2184 C 0.46457 0.50879 0.86815 0.0
C2185 C 0.47646 0.51242 0.84854 0.0
C2186 C 0.47496 0.51042 0.89316 0.0
C2187 C 0.49739 0.5162 0.89906 0.0
C2188 C 0.50925 0.51934 0.87941 0.0
C2189 C 0.4989 0.51721 0.85437 0.0
C2190 C 0.53273 0.54655 0.96089 0.0
C2191 C 0.52883 0.52904 0.97694 0.0
C2192 C 0.52282 0.54211 0.93551 0.0
C2193 C 0.50842 0.52028 0.92577 0.0
C2194 C 0.50442 0.50276 0.94177 0.0
C2195 C 0.51474 0.50698 0.96706 0.0
H2196 H 0.89237 0.29204 0.16091 0.0
H2197 H 0.8771 0.22035 0.18113 0.0
H2198 H 0.88735 0.30921 0.20265 0.0
H2199 H 0.87174 0.23765 0.22259 0.0
H2200 H 0.81671 0.27878 0.24695 0.0
H2201 H 0.83713 0.26069 0.21803 0.0
H2202 H 0.89472 0.31055 0.2555 0.0
H2203 H 0.87441 0.32786 0.28556 0.0
C2204 C 0.88899 0.28004 0.17466 0.0
C2205 C 0.88452 0.25485 0.16753 0.0
C2206 C 0.88615 0.28988 0.19855 0.0
C2207 C 0.87871 0.27462 0.21537 0.0
C2208 C 0.87733 0.24966 0.20969 0.0
C2209 C 0.8805 0.23982 0.18597 0.0
C2210 C 0.83382 0.28536 0.24949 0.0
C2211 C 0.84409 0.30425 0.26873 0.0
C2212 C 0.84548 0.27507 0.233 0.0
C2213 C 0.86753 0.28393 0.23507 0.0
C2214 C 0.8778 0.30321 0.25395 0.0
C2215 C 0.86616 0.31318 0.27086 0.0
H2216 H 0.12709 0.53233 0.36726 0.0
H2217 H 0.1801 0.52175 0.4199 0.0
H2218 H 0.10714 0.53827 0.40162 0.0
H2219 H 0.15992 0.52703 0.4547 0.0
H2220 H 0.12302 0.54807 0.51987 0.0
H2221 H 0.14414 0.54352 0.48597 0.0
H2222 H 0.08642 0.53018 0.4306 0.0
H2223 H 0.06573 0.5354 0.4644 0.0
C2224 C 0.13468 0.53115 0.38622 0.0
C2225 C 0.15569 0.52647 0.38995 0.0
C2226 C 0.12289 0.53443 0.40648 0.0
C2227 C 0.13111 0.53314 0.43217 0.0
C2228 C 0.15231 0.52857 0.4359 0.0
C2229 C 0.16418 0.52537 0.41552 0.0
C2230 C 0.11471 0.54433 0.50047 0.0
C2231 C 0.09217 0.54242 0.49569 0.0
C2232 C 0.12705 0.54147 0.48052 0.0
C2233 C 0.11774 0.53639 0.45431 0.0
C2234 C 0.09512 0.53444 0.44976 0.0
C2235 C 0.08286 0.53739 0.46965 0.0
H2236 H 0.85576 0.84297 0.63328 0.0
H2237 H 0.81576 0.89321 0.65238 0.0
H2238 H 0.84914 0.82343 0.66965 0.0
H2239 H 0.80921 0.87329 0.6895 0.0
H2240 H 0.82062 0.84267 0.76656 0.0
H2241 H 0.82783 0.86488 0.73149 0.0
H2242 H 0.81822 0.79743 0.68167 0.0
H2243 H 0.81094 0.77521 0.71678 0.0
C2244 C 0.84555 0.85001 0.64527 0.0
C2245 C 0.8361 0.86966 0.63952 0.0
C2246 C 0.84169 0.83859 0.66617 0.0
C2247 C 0.82836 0.84644 0.68229 0.0
C2248 C 0.81956 0.86675 0.6774 0.0
C2249 C 0.82333 0.87821 0.65616 0.0
C2250 C 0.82016 0.83256 0.74813 0.0
C2251 C 0.81531 0.80712 0.74446 0.0
C2252 C 0.82409 0.84534 0.72799 0.0
C2253 C 0.82357 0.833 0.70373 0.0
C2254 C 0.81893 0.80753 0.70016 0.0
C2255 C 0.81476 0.79475 0.72025 0.0
H2256 H 0.72588 0.39957 0.57398 0.0
H2257 H 0.76641 0.46241 0.55627 0.0
H2258 H 0.70806 0.42567 0.5989 0.0
H2259 H 0.7481 0.48841 0.58006 0.0
H2260 H 0.7138 0.53379 0.62271 0.0
H2261 H 0.73762 0.50542 0.61733 0.0
H2262 H 0.6828 0.44863 0.58556 0.0
H2263 H 0.65927 0.47655 0.59216 0.0
C2264 C 0.73116 0.41896 0.5757 0.0
C2265 C 0.74723 0.42897 0.5628 0.0
C2266 C 0.72092 0.43392 0.5899 0.0
C2267 C 0.72634 0.45917 0.59114 0.0
C2268 C 0.74356 0.46911 0.57979 0.0
C2269 C 0.75397 0.45416 0.56589 0.0
C2270 C 0.70691 0.51504 0.61537 0.0
C2271 C 0.68478 0.50744 0.60729 0.0
C2272 C 0.72053 0.49883 0.61205 0.0
C2273 C 0.7122 0.47483 0.60053 0.0
C2274 C 0.68988 0.46687 0.5946 0.0
C2275 C 0.67635 0.48297 0.59805 0.0
H2276 H 0.18795 0.168 0.51796 0.0
H2277 H 0.2249 0.11604 0.54172 0.0
H2278 H 0.15524 0.14091 0.52213 0.0
H2279 H 0.1922 0.08917 0.54668 0.0
H2280 H 0.12862 0.03609 0.53252 0.0
H2281 H 0.16065 0.06296 0.52623 0.0
H2282 H 0.1344 0.12451 0.55094 0.0
H2283 H 0.10193 0.09723 0.5565 0.0
C2284 C 0.18916 0.15075 0.52405 0.0
C2285 C 0.20928 0.14432 0.52939 0.0
C2286 C 0.17028 0.13522 0.5267 0.0
C2287 C 0.17077 0.11268 0.53492 0.0
C2288 C 0.19089 0.10612 0.53995 0.0
C2289 C 0.2098 0.12163 0.53715 0.0
C2290 C 0.1296 0.05538 0.53654 0.0
C2291 C 0.11254 0.06445 0.54494 0.0
C2292 C 0.14817 0.0709 0.53312 0.0
C2293 C 0.1505 0.09615 0.53818 0.0
C2294 C 0.13329 0.10525 0.54646 0.0
C2295 C 0.11458 0.08961 0.54976 0.0
H2296 H 0.20976 0.03448 0.8008 0.0
H2297 H 0.16115 0.99179 0.83344 0.0
H2298 H 0.2261 0.99964 0.79333 0.0
H2299 H 0.17765 0.95665 0.82591 0.0
H2300 H 0.23666 0.91858 0.84426 0.0
H2301 H 0.21292 0.94746 0.84519 0.0
H2302 H 0.22016 0.95847 0.76874 0.0
H2303 H 0.24418 0.92998 0.76798 0.0
C2304 C 0.20239 1.01752 0.80605 0.0
C2305 C 0.18427 1.01588 0.81784 0.0
C2306 C 0.21167 0.99751 0.8016 0.0
C2307 C 0.20316 0.97543 0.80906 0.0
C2308 C 0.18459 0.97351 0.82011 0.0
C2309 C 0.17511 0.99354 0.82429 0.0
C2310 C 0.233 0.92702 0.82759 0.0
C2311 C 0.24245 0.92224 0.80615 0.0
C2312 C 0.21924 0.94333 0.82802 0.0
C2313 C 0.21481 0.95531 0.80708 0.0
C2314 C 0.22345 0.94964 0.78522 0.0
C2315 C 0.23707 0.93321 0.78473 0.0
H2316 H 0.32466 0.87613 0.95737 0.0
H2317 H 0.30636 0.94233 0.98515 0.0
H2318 H 0.36079 0.8986 0.95763 0.0
H2319 H 0.34232 0.96452 0.98587 0.0
H2320 H 0.40647 1.00185 0.9736 0.0
H2321 H 0.36993 0.97864 0.96205 0.0
H2322 H 0.39006 0.91786 0.99245 0.0
H2323 H 0.42662 0.94104 1.00384 0.0
C2324 C 0.32819 0.89551 0.96299 0.0
C2325 C 0.31272 0.9074 0.97155 0.0
C2326 C 0.34893 0.90833 0.96337 0.0
C2327 C 0.3545 0.93328 0.9721 0.0
C2328 C 0.33857 0.94536 0.97891 0.0
C2329 C 0.31795 0.93258 0.97863 0.0
C2330 C 0.40306 0.98354 0.97784 0.0
C2331 C 0.41936 0.97336 0.9899 0.0
C2332 C 0.38217 0.97021 0.97112 0.0
C2333 C 0.37708 0.94642 0.97636 0.0
C2334 C 0.39351 0.936 0.98776 0.0
C2335 C 0.41443 0.94932 0.99443 0.0
H2336 H 0.92745 0.65399 0.81417 0.0
H2337 H 0.86778 0.60461 0.78583 0.0
H2338 H 0.90884 0.6879 0.81491 0.0
H2339 H 0.84908 0.63827 0.78608 0.0
H2340 H 0.81367 0.70156 0.80081 0.0
H2341 H 0.83252 0.66799 0.8 0.0
H2342 H 0.89192 0.71789 0.80272 0.0
H2343 H 0.8729 0.75136 0.8039 0.0
C2344 C 0.91032 0.6501 0.80786 0.0
C2345 C 0.89963 0.62566 0.79985 0.0
C2346 C 0.89932 0.67002 0.8082 0.0
C2347 C 0.87673 0.66708 0.80063 0.0
C2348 C 0.86616 0.64251 0.79254 0.0
C2349 C 0.87716 0.62265 0.79218 0.0
C2350 C 0.83076 0.70562 0.80115 0.0
C2351 C 0.84121 0.73009 0.80237 0.0
C2352 C 0.84191 0.68587 0.80057 0.0
C2353 C 0.86446 0.68895 0.80121 0.0
C2354 C 0.87486 0.71356 0.80244 0.0
C2355 C 0.86369 0.7333 0.80299 0.0
H2356 H 0.81271 0.60905 0.05281 0.0
H2357 H 0.85042 0.67179 0.03133 0.0
H2358 H 0.84419 0.59072 0.05821 0.0
H2359 H 0.88194 0.65358 0.03694 0.0
H2360 H 0.92822 0.60241 0.02295 0.0
H2361 H 0.89671 0.62074 0.01773 0.0
H2362 H 0.87865 0.59449 0.08511 0.0
H2363 H 0.90977 0.5757 0.08995 0.0
C2364 C 0.82775 0.61902 0.0494 0.0
C2365 C 0.82896 0.64194 0.04166 0.0
C2366 C 0.84587 0.60853 0.05259 0.0
C2367 C 0.86573 0.62058 0.04796 0.0
C2368 C 0.86693 0.64358 0.04036 0.0
C2369 C 0.84884 0.65413 0.03734 0.0
C2370 C 0.91746 0.60039 0.03656 0.0
C2371 C 0.9217 0.58757 0.05692 0.0
C2372 C 0.89946 0.61114 0.03372 0.0
C2373 C 0.88503 0.60921 0.05101 0.0
C2374 C 0.88922 0.59624 0.07126 0.0
C2375 C 0.90727 0.58566 0.0742 0.0
H2376 H 0.22104 0.12641 0.86271 0.0
H2377 H 0.17992 0.17572 0.84307 0.0
H2378 H 0.25231 0.15748 0.86261 0.0
H2379 H 0.21112 0.20652 0.84147 0.0
H2380 H 0.2712 0.2636 0.85404 0.0
H2381 H 0.24139 0.23418 0.86228 0.0
H2382 H 0.27104 0.17636 0.83454 0.0
H2383 H 0.30139 0.20608 0.82805 0.0
C2384 C 0.2187 0.14395 0.85834 0.0
C2385 C 0.19801 0.14858 0.85279 0.0
C2386 C 0.23666 0.16176 0.85805 0.0
C2387 C 0.23441 0.18456 0.85165 0.0
C2388 C 0.21364 0.18938 0.84682 0.0
C2389 C 0.19567 0.17166 0.84761 0.0
C2390 C 0.27136 0.24458 0.85003 0.0
C2391 C 0.28847 0.23698 0.84044 0.0
C2392 C 0.25419 0.22766 0.85452 0.0
C2393 C 0.25352 0.20273 0.84887 0.0
C2394 C 0.271 0.1953 0.83959 0.0
C2395 C 0.28838 0.21227 0.83568 0.0
H2396 H 0.38111 0.98987 0.27967 0.0
H2397 H 0.42707 0.97711 0.34032 0.0
H2398 H 0.35919 0.94942 0.27978 0.0
H2399 H 0.40545 0.9375 0.34064 0.0
H2400 H 0.35368 0.87523 0.35329 0.0
H2401 H 0.37332 0.91579 0.35171 0.0
H2402 H 0.35661 0.90412 0.27034 0.0
H2403 H 0.33698 0.86307 0.27195 0.0
C2404 C 0.38652 0.97877 0.29328 0.0
C2405 C 0.40616 0.98746 0.31007 0.0
C2406 C 0.37395 0.95522 0.2932 0.0
C2407 C 0.38017 0.93949 0.3103 0.0
C2408 C 0.39957 0.94857 0.32728 0.0
C2409 C 0.4122 0.97165 0.32701 0.0
C2410 C 0.35412 0.88106 0.33492 0.0
C2411 C 0.34352 0.86514 0.31278 0.0
C2412 C 0.36561 0.90466 0.33398 0.0
C2413 C 0.36696 0.91398 0.31087 0.0
C2414 C 0.35609 0.8982 0.28866 0.0
C2415 C 0.34483 0.87432 0.28957 0.0
H2416 H 0.58124 0.39265 0.67755 0.0
H2417 H 0.61037 0.36449 0.61653 0.0
H2418 H 0.57804 0.42835 0.65703 0.0
H2419 H 0.6078 0.40076 0.59644 0.0
H2420 H 0.61536 0.48641 0.58839 0.0
H2421 H 0.62203 0.4514 0.60898 0.0
H2422 H 0.5547 0.43053 0.61082 0.0
H2423 H 0.5479 0.46472 0.58965 0.0
C2424 C 0.58737 0.39427 0.66002 0.0
C2425 C 0.59606 0.37562 0.64871 0.0
C2426 C 0.58544 0.4147 0.64821 0.0
C2427 C 0.59264 0.41739 0.62508 0.0
C2428 C 0.60219 0.39928 0.61429 0.0
C2429 C 0.60362 0.3785 0.62579 0.0
C2430 C 0.60197 0.4742 0.59295 0.0
C2431 C 0.58106 0.47836 0.58713 0.0
C2432 C 0.6058 0.45416 0.60474 0.0
C2433 C 0.58889 0.43825 0.61166 0.0
C2434 C 0.56807 0.44248 0.60587 0.0
C2435 C 0.56418 0.46204 0.59355 0.0
H2436 H 0.47669 0.77894 0.39286 0.0
H2437 H 0.44345 0.78038 0.45675 0.0
H2438 H 0.44379 0.78096 0.36508 0.0
H2439 H 0.41056 0.78151 0.42909 0.0
H2440 H 0.35768 0.80502 0.37669 0.0
H2441 H 0.39098 0.80436 0.40497 0.0
H2442 H 0.41011 0.7603 0.34507 0.0
H2443 H 0.37762 0.76185 0.31704 0.0
C2444 C 0.46234 0.77933 0.40097 0.0
C2445 C 0.46294 0.77946 0.42716 0.0
C2446 C 0.44331 0.78045 0.38499 0.0
C2447 C 0.42417 0.78148 0.39462 0.0
C2448 C 0.42482 0.78126 0.42079 0.0
C2449 C 0.44382 0.78037 0.43673 0.0
C2450 C 0.36904 0.79522 0.36969 0.0
C2451 C 0.36492 0.78354 0.34456 0.0
C2452 C 0.38818 0.7947 0.38592 0.0
C2453 C 0.40363 0.78235 0.37749 0.0
C2454 C 0.39914 0.7705 0.35237 0.0
C2455 C 0.38025 0.7712 0.33624 0.0
H2456 H 0.0693 0.73419 0.15788 0.0
H2457 H 0.1056 0.74555 0.09743 0.0
H2458 H 0.06182 0.69055 0.14348 0.0
H2459 H 0.09798 0.70251 0.08315 0.0
H2460 H 0.10047 0.62293 0.07999 0.0
H2461 H 0.10741 0.66592 0.09604 0.0
H2462 H 0.04202 0.65951 0.10795 0.0
H2463 H 0.03509 0.61643 0.09218 0.0
C2464 C 0.07562 0.7275 0.14154 0.0
C2465 C 0.08812 0.74359 0.12896 0.0
C2466 C 0.07127 0.70246 0.13321 0.0
C2467 C 0.07943 0.69291 0.11222 0.0
C2468 C 0.09174 0.70906 0.09962 0.0
C2469 C 0.09598 0.73391 0.10779 0.0
C2470 C 0.08752 0.63062 0.08597 0.0
C2471 C 0.06717 0.61607 0.08458 0.0
C2472 C 0.09149 0.65537 0.09513 0.0
C2473 C 0.07526 0.66631 0.10327 0.0
C2474 C 0.05497 0.65172 0.10211 0.0
C2475 C 0.05096 0.62698 0.09283 0.0
H2476 H 0.06299 0.26187 0.88285 0.0
H2477 H 0.10169 0.2848 0.95688 0.0
H2478 H 0.09541 0.26417 0.86391 0.0
H2479 H 0.13396 0.28647 0.93824 0.0
H2480 H 0.18779 0.31321 0.89602 0.0
H2481 H 0.15519 0.30953 0.91415 0.0
H2482 H 0.12591 0.24741 0.85823 0.0
H2483 H 0.15819 0.25185 0.83926 0.0
C2484 C 0.07839 0.2671 0.89514 0.0
C2485 C 0.07961 0.27321 0.92143 0.0
C2486 C 0.09708 0.26836 0.88428 0.0
C2487 C 0.11756 0.27572 0.8994 0.0
C2488 C 0.11865 0.28124 0.92577 0.0
C2489 C 0.10003 0.28007 0.93656 0.0
C2490 C 0.17439 0.29887 0.88735 0.0
C2491 C 0.17589 0.28289 0.86601 0.0
C2492 C 0.15564 0.29654 0.89803 0.0
C2493 C 0.13767 0.27807 0.88786 0.0
C2494 C 0.13918 0.26202 0.86657 0.0
C2495 C 0.15794 0.26439 0.85585 0.0
H2496 H 0.55677 0.75611 0.91472 0.0
H2497 H 0.48928 0.75097 0.91442 0.0
H2498 H 0.55308 0.71369 0.91894 0.0
H2499 H 0.48494 0.70782 0.91647 0.0
H2500 H 0.50038 0.66577 0.98349 0.0
H2501 H 0.49381 0.69313 0.9537 0.0
H2502 H 0.54271 0.67208 0.91389 0.0
H2503 H 0.5499 0.6453 0.94499 0.0
C2504 C 0.54094 0.74546 0.91419 0.0
C2505 C 0.52342 0.75664 0.91502 0.0
C2506 C 0.5387 0.72101 0.91644 0.0
C2507 C 0.51878 0.70741 0.91909 0.0
C2508 C 0.50067 0.71797 0.9156 0.0
C2509 C 0.50306 0.74259 0.91423 0.0
C2510 C 0.50925 0.66643 0.96791 0.0
C2511 C 0.52599 0.65398 0.96684 0.0
C2512 C 0.50539 0.68204 0.95053 0.0
C2513 C 0.51808 0.68535 0.93154 0.0
C2514 C 0.53309 0.67056 0.9287 0.0
C2515 C 0.5372 0.65521 0.94643 0.0
H2516 H 0.13334 0.77233 0.75809 0.0
H2517 H 0.1473 0.77261 0.68206 0.0
H2518 H 0.17053 0.76937 0.77315 0.0
H2519 H 0.18389 0.76981 0.69708 0.0
H2520 H 0.24996 0.81029 0.74349 0.0
H2521 H 0.21183 0.80382 0.72712 0.0
H2522 H 0.20021 0.74182 0.7661 0.0
H2523 H 0.23873 0.74808 0.78229 0.0
C2524 C 0.14415 0.77134 0.74459 0.0
C2525 C 0.13752 0.7733 0.71903 0.0
C2526 C 0.16534 0.76956 0.75316 0.0
C2527 C 0.18003 0.76972 0.73625 0.0
C2528 C 0.17295 0.77004 0.71052 0.0
C2529 C 0.15197 0.77175 0.70201 0.0
C2530 C 0.23934 0.79501 0.74817 0.0
C2531 C 0.24727 0.77956 0.76391 0.0
C2532 C 0.21755 0.79133 0.73886 0.0
C2533 C 0.20316 0.77235 0.74543 0.0
C2534 C 0.21104 0.7566 0.76088 0.0
C2535 C 0.23302 0.76003 0.76984 0.0
H2536 H 1.02375 0.39312 0.4186 0.0
H2537 H 0.07294 0.37857 0.47446 0.0
H2538 H 1.01404 0.42099 0.45074 0.0
H2539 H 0.06448 0.40751 0.50622 0.0
H2540 H 0.04405 0.45439 0.5641 0.0
H2541 H 0.04191 0.41854 0.53333 0.0
H2542 H 0.02668 0.45906 0.47234 0.0
H2543 H 0.02771 0.49367 0.50275 0.0
C2544 C 0.03275 0.39634 0.43767 0.0
C2545 C 0.04934 0.38418 0.44404 0.0
C2546 C 0.02718 0.4122 0.45617 0.0
C2547 C 0.03848 0.41669 0.48124 0.0
C2548 C 0.05503 0.40424 0.48741 0.0
C2549 C 0.06019 0.38797 0.46909 0.0
C2550 C 0.03946 0.45519 0.54413 0.0
C2551 C 0.03625 0.4769 0.53581 0.0
C2552 C 0.03854 0.4348 0.52643 0.0
C2553 C 0.03467 0.43596 0.50018 0.0
C2554 C 0.02955 0.45714 0.49221 0.0
C2555 C 0.0302 0.47722 0.5098 0.0
H2556 H 0.5399 0.26292 0.28136 0.0
H2557 H 0.49673 0.25235 0.21018 0.0
H2558 H 0.5102 0.26712 0.3041 0.0
H2559 H 0.46711 0.25611 0.23276 0.0
H2560 H 0.4154 0.25414 0.28107 0.0
H2561 H 0.44439 0.23926 0.26405 0.0
H2562 H 0.48952 0.3017 0.30531 0.0
H2563 H 0.46058 0.31713 0.32164 0.0
C2564 C 0.52394 0.26055 0.27062 0.0
C2565 C 0.52059 0.25732 0.24402 0.0
C2566 C 0.507 0.26321 0.28362 0.0
C2567 C 0.48637 0.26217 0.27021 0.0
C2568 C 0.48277 0.25688 0.24365 0.0
C2569 C 0.49973 0.25471 0.2307 0.0
C2570 C 0.43148 0.26478 0.28652 0.0
C2571 C 0.43551 0.28712 0.30244 0.0
C2572 C 0.4481 0.2561 0.27691 0.0
C2573 C 0.46922 0.26931 0.2833 0.0
C2574 C 0.47346 0.29094 0.3003 0.0
C2575 C 0.45681 0.29979 0.30966 0.0
H2576 H 0.67535 0.57611 0.42456 0.0
H2577 H 0.61148 0.56647 0.38226 0.0
H2578 H 0.66031 0.56547 0.46206 0.0
H2579 H 0.59664 0.5553 0.41942 0.0
H2580 H 0.58177 0.50483 0.4787 0.0
H2581 H 0.60001 0.51706 0.44415 0.0
H2582 H 0.63365 0.5829 0.49191 0.0
H2583 H 0.61491 0.57105 0.52638 0.0
C2584 C 0.65814 0.57198 0.42335 0.0
C2585 C 0.6446 0.57212 0.40045 0.0
C2586 C 0.64958 0.56587 0.44477 0.0
C2587 C 0.62735 0.55928 0.44347 0.0
C2588 C 0.61384 0.56004 0.4208 0.0
C2589 C 0.62236 0.56663 0.39961 0.0
C2590 C 0.5933 0.52174 0.48201 0.0
C2591 C 0.59686 0.53702 0.50526 0.0
C2592 C 0.60362 0.52879 0.46218 0.0
C2593 C 0.61805 0.55102 0.46533 0.0
C2594 C 0.62259 0.56568 0.48902 0.0
C2595 C 0.61192 0.55885 0.50873 0.0
H2596 H 0.26901 0.81817 0.05369 0.0
H2597 H 0.31331 0.88646 0.06401 0.0
H2598 H 0.29098 0.80526 0.08781 0.0
H2599 H 0.3365 0.87305 0.09712 0.0
H2600 H 0.35217 0.85148 0.17737 0.0
H2601 H 0.34036 0.86572 0.13826 0.0
H2602 H 0.32172 0.79201 0.10048 0.0
H2603 H 0.33058 0.7777 0.14018 0.0
C2604 C 0.2836 0.83033 0.06332 0.0
C2605 C 0.28938 0.85335 0.05666 0.0
C2606 C 0.29651 0.82281 0.08255 0.0
C2607 C 0.3159 0.83787 0.09503 0.0
C2608 C 0.32166 0.861 0.08817 0.0
C2609 C 0.30837 0.86877 0.06933 0.0
C2610 C 0.34555 0.83825 0.16073 0.0
C2611 C 0.34093 0.81342 0.16254 0.0
C2612 C 0.33906 0.84648 0.13804 0.0
C2613 C 0.3288 0.82994 0.11648 0.0
C2614 C 0.3283 0.80523 0.11715 0.0
C2615 C 0.33393 0.797 0.14002 0.0
H2616 H 0.93755 0.57037 0.89533 0.0
H2617 H 0.98791 0.55606 0.85529 0.0
H2618 H 0.95944 0.56652 0.93548 0.0
H2619 H 1.00941 0.55155 0.8947 0.0
H2620 H 0.05483 0.56422 0.9693 0.0
H2621 H 0.03144 0.56825 0.93142 0.0
H2622 H 0.97655 0.54616 0.96656 0.0
H2623 H 1.00068 0.54268 1.00542 0.0
C2624 C 0.95324 0.56629 0.89488 0.0
C2625 C 0.96066 0.56376 0.87139 0.0
C2626 C 0.96597 0.56393 0.91822 0.0
C2627 C 0.98688 0.55895 0.91942 0.0
C2628 C 0.99395 0.55603 0.8957 0.0
C2629 C 0.98132 0.55843 0.87254 0.0
C2630 C 0.03777 0.56018 0.96929 0.0
C2631 C 0.0301 0.55303 0.99114 0.0
C2632 C 1.02403 0.56228 0.94696 0.0
C2633 C 1.00147 0.5572 0.94467 0.0
C2634 C 0.99361 0.55041 0.96679 0.0
C2635 C 1.00758 0.54834 0.98944 0.0
H2636 H 0.27738 0.17707 0.61982 0.0
H2637 H 0.3 0.24871 0.60321 0.0
H2638 H 0.28454 0.19285 0.66534 0.0
H2639 H 0.3076 0.26425 0.64839 0.0
H2640 H 0.33579 0.27757 0.734 0.0
H2641 H 0.33194 0.259 0.6899 0.0
H2642 H 0.26711 0.2242 0.69192 0.0
H2643 H 0.27075 0.2431 0.73588 0.0
C2644 C 0.28434 0.19602 0.62593 0.0
C2645 C 0.28814 0.21167 0.60802 0.0
C2646 C 0.28826 0.20508 0.65189 0.0
C2647 C 0.29656 0.2298 0.66036 0.0
C2648 C 0.30131 0.24513 0.64246 0.0
C2649 C 0.29693 0.23622 0.6166 0.0
C2650 C 0.32071 0.26596 0.72506 0.0
C2651 C 0.30352 0.26197 0.73841 0.0
C2652 C 0.31853 0.25533 0.69982 0.0
C2653 C 0.29928 0.24003 0.68755 0.0
C2654 C 0.28221 0.2357 0.701 0.0
C2655 C 0.28423 0.24673 0.72607 0.0
H2656 H 0.64531 0.5534 0.2571 0.0
H2657 H 0.60404 0.60418 0.26825 0.0
H2658 H 0.63142 0.54654 0.21165 0.0
H2659 H 0.59015 0.59715 0.22305 0.0
H2660 H 0.58567 0.59651 0.1373 0.0
H2661 H 0.60141 0.60429 0.18222 0.0
H2662 H 0.59741 0.52782 0.18284 0.0
H2663 H 0.58188 0.52002 0.13803 0.0
C2664 C 0.63334 0.56314 0.24991 0.0
C2665 C 0.62579 0.57931 0.26644 0.0
C2666 C 0.62529 0.5591 0.22387 0.0
C2667 C 0.60967 0.5713 0.21371 0.0
C2668 C 0.60234 0.58766 0.23018 0.0
C2669 C 0.61023 0.59155 0.25618 0.0
C2670 C 0.58817 0.58136 0.147 0.0
C2671 C 0.58241 0.55764 0.13403 0.0
C2672 C 0.59712 0.58581 0.17278 0.0
C2673 C 0.60068 0.56668 0.18614 0.0
C2674 C 0.59511 0.543 0.17308 0.0
C2675 C 0.58604 0.53853 0.14739 0.0
H2676 H 0.21441 0.84193 0.94766 0.0
H2677 H 0.25295 0.90904 0.9367 0.0
H2678 H 0.22497 0.82122 0.91088 0.0
H2679 H 0.26352 0.88825 0.89976 0.0
H2680 H 0.27275 0.83515 0.82979 0.0
H2681 H 0.2525 0.85807 0.85499 0.0
H2682 H 0.26597 0.81789 0.91658 0.0
H2683 H 0.28681 0.79553 0.89175 0.0
C2684 C 0.22412 0.8525 0.93647 0.0
C2685 C 0.23311 0.87693 0.94511 0.0
C2686 C 0.23037 0.8406 0.91566 0.0
C2687 C 0.2455 0.85309 0.90313 0.0
C2688 C 0.25189 0.87828 0.9093 0.0
C2689 C 0.24565 0.89022 0.93026 0.0
C2690 C 0.27159 0.83143 0.84883 0.0
C2691 C 0.28149 0.81374 0.859 0.0
C2692 C 0.25987 0.8444 0.86308 0.0
C2693 C 0.25742 0.83938 0.88743 0.0
C2694 C 0.26731 0.8217 0.89757 0.0
C2695 C 0.27935 0.80907 0.88352 0.0
H2696 H 0.9931 0.57971 0.75019 0.0
H2697 H 0.93268 0.5396 0.70896 0.0
H2698 H 1.00886 0.57648 0.71199 0.0
H2699 H 0.94862 0.53588 0.67005 0.0
H2700 H 0.98302 0.54244 0.59735 0.0
H2701 H 0.96425 0.5476 0.63375 0.0
H2702 H 1.02355 0.55349 0.68461 0.0
H2703 H 0.04194 0.54869 0.64875 0.0
C2704 C 0.98281 0.57063 0.73276 0.0
C2705 C 0.9611 0.56072 0.73341 0.0
C2706 C 0.99216 0.56826 0.71044 0.0
C2707 C 0.98062 0.5554 0.6869 0.0
C2708 C 0.95857 0.54607 0.68717 0.0
C2709 C 0.94913 0.54848 0.70978 0.0
C2710 C 0.99214 0.54477 0.61627 0.0
C2711 C 1.01445 0.54502 0.61926 0.0
C2712 C 0.9812 0.54775 0.63755 0.0
C2713 C 0.99191 0.55143 0.66319 0.0
C2714 C 1.01415 0.5514 0.66589 0.0
C2715 C 1.02495 0.54832 0.6448 0.0
H2716 H 0.285 0.17122 0.44987 0.0
H2717 H 0.26632 0.23036 0.49257 0.0
H2718 H 0.29014 0.19536 0.41576 0.0
H2719 H 0.27061 0.25419 0.45827 0.0
H2720 H 0.3061 0.3012 0.40789 0.0
H2721 H 0.29725 0.27612 0.44013 0.0
H2722 H 0.27571 0.21378 0.38223 0.0
H2723 H 0.28544 0.23882 0.35025 0.0
C2724 C 0.28153 0.18919 0.45174 0.0
C2725 C 0.27533 0.19883 0.47405 0.0
C2726 C 0.28444 0.20312 0.43211 0.0
C2727 C 0.28106 0.22704 0.43413 0.0
C2728 C 0.27394 0.23618 0.45607 0.0
C2729 C 0.27124 0.22236 0.47573 0.0
C2730 C 0.29929 0.28218 0.40204 0.0
C2731 C 0.29645 0.2721 0.37645 0.0
C2732 C 0.29408 0.26771 0.42055 0.0
C2733 C 0.2857 0.24269 0.41404 0.0
C2734 C 0.28241 0.23278 0.38825 0.0
C2735 C 0.28777 0.24724 0.36978 0.0
H2736 H 0.37125 0.62344 0.58544 0.0
H2737 H 0.40144 0.68174 0.54984 0.0
H2738 H 0.39225 0.59694 0.56672 0.0
H2739 H 0.42219 0.65503 0.53072 0.0
H2740 H 0.47479 0.60811 0.53624 0.0
H2741 H 0.45134 0.63557 0.54617 0.0
H2742 H 0.3967 0.57644 0.52557 0.0
H2743 H 0.42041 0.54879 0.51623 0.0
C2744 C 0.38235 0.63058 0.57359 0.0
C2745 C 0.38484 0.65469 0.56925 0.0
C2746 C 0.39416 0.61531 0.56259 0.0
C2747 C 0.40869 0.62387 0.54705 0.0
C2748 C 0.41116 0.64799 0.54269 0.0
C2749 C 0.39933 0.66327 0.55369 0.0
C2750 C 0.45771 0.60112 0.53342 0.0
C2751 C 0.44934 0.57637 0.52588 0.0
C2752 C 0.44428 0.61684 0.53894 0.0
C2753 C 0.42224 0.60804 0.53701 0.0
C2754 C 0.4137 0.58357 0.52764 0.0
C2755 C 0.42717 0.56783 0.52204 0.0
H2756 H 0.89824 0.9587 0.60773 0.0
H2757 H 0.90132 0.92492 0.53303 0.0
H2758 H 0.93296 0.98505 0.60912 0.0
H2759 H 0.935 0.95205 0.53335 0.0
H2760 H 1.0043 0.98755 0.54563 0.0
H2761 H 0.97057 0.96099 0.54703 0.0
H2762 H 0.95414 1.01699 0.59731 0.0
H2763 H 0.98874 0.04256 0.59744 0.0
C2764 C 0.90615 0.95727 0.59139 0.0
C2765 C 0.89704 0.93961 0.57034 0.0
C2766 C 0.92614 0.97246 0.59207 0.0
C2767 C 0.93737 0.97079 0.57146 0.0
C2768 C 0.9276 0.95364 0.55006 0.0
C2769 C 0.90799 0.93815 0.54968 0.0
C2770 C 0.99366 0.99398 0.55738 0.0
C2771 C 0.99942 1.01712 0.57163 0.0
C2772 C 0.97396 0.97886 0.55788 0.0
C2773 C 0.95904 0.98664 0.57206 0.0
C2774 C 0.96501 1.00987 0.58642 0.0
C2775 C 0.98492 0.02475 0.58637 0.0
H2776 H 0.89951 0.05053 0.25021 0.0
H2777 H 0.957 0.09808 0.29183 0.0
H2778 H 0.88117 0.08424 0.25022 0.0
H2779 H 0.93841 0.132 0.29197 0.0
H2780 H 0.89824 0.18985 0.27044 0.0
H2781 H 0.91921 0.15827 0.26454 0.0
H2782 H 0.86941 0.1069 0.28594 0.0
H2783 H 0.84856 0.138 0.29143 0.0
C2784 C 0.90834 0.06825 0.2591 0.0
C2785 C 0.92964 0.07157 0.27131 0.0
C2786 C 0.89778 0.08756 0.25918 0.0
C2787 C 0.90825 0.11067 0.27144 0.0
C2788 C 0.92996 0.11438 0.28233 0.0
C2789 C 0.94057 0.09496 0.28231 0.0
C2790 C 0.89181 0.17175 0.27373 0.0
C2791 C 0.87183 0.16643 0.28156 0.0
C2792 C 0.90384 0.15376 0.2705 0.0
C2793 C 0.89589 0.1301 0.27463 0.0
C2794 C 0.87586 0.12487 0.28229 0.0
C2795 C 0.86401 0.14278 0.28572 0.0
H2796 H 0.7795 0.21067 0.082 0.0
H2797 H 0.80976 0.16747 0.13141 0.0
H2798 H 0.74458 0.18639 0.08366 0.0
H2799 H 0.7748 0.14318 0.1329 0.0
H2800 H 0.70615 0.12162 0.14878 0.0
H2801 H 0.74071 0.14753 0.1489 0.0
H2802 H 0.72603 0.1432 0.0676 0.0
H2803 H 0.69165 0.11684 0.0673 0.0
C2804 C 0.7787 0.19619 0.09344 0.0
C2805 C 0.79739 0.191 0.10661 0.0
C2806 C 0.75872 0.18218 0.09419 0.0
C2807 C 0.75704 0.16288 0.10832 0.0
C2808 C 0.77565 0.15807 0.122 0.0
C2809 C 0.79565 0.17192 0.12105 0.0
C2810 C 0.71038 0.12593 0.13088 0.0
C2811 C 0.69615 0.11708 0.10801 0.0
C2812 C 0.73012 0.14085 0.131 0.0
C2813 C 0.73598 0.14739 0.10828 0.0
C2814 C 0.72176 0.13871 0.08543 0.0
C2815 C 0.70208 0.12363 0.08528 0.0
H2816 H 0.18594 0.43044 0.32544 0.0
H2817 H 0.244 0.47868 0.32004 0.0
H2818 H 0.20463 0.39652 0.32427 0.0
H2819 H 0.26273 0.44502 0.31859 0.0
H2820 H 0.29969 0.38251 0.32914 0.0
H2821 H 0.28073 0.41603 0.33054 0.0
H2822 H 0.22059 0.36538 0.31061 0.0
H2823 H 0.23972 0.33195 0.30953 0.0
C2824 C 0.20271 0.43411 0.32388 0.0
C2825 C 0.21288 0.45831 0.32282 0.0
C2826 C 0.21377 0.41415 0.32311 0.0
C2827 C 0.23597 0.41671 0.32135 0.0
C2828 C 0.24602 0.44102 0.32026 0.0
C2829 C 0.23495 0.4609 0.32094 0.0
C2830 C 0.2824 0.37821 0.32505 0.0
C2831 C 0.27185 0.35349 0.31926 0.0
C2832 C 0.27116 0.39797 0.3257 0.0
C2833 C 0.24836 0.39476 0.32068 0.0
C2834 C 0.23785 0.36991 0.31497 0.0
C2835 C 0.24911 0.35015 0.31422 0.0
H2836 H 0.2611 0.4101 0.08014 0.0
H2837 H 0.30039 0.4817 0.09865 0.0
H2838 H 0.22905 0.42718 0.07747 0.0
H2839 H 0.26823 0.49898 0.09528 0.0
H2840 H 0.20534 0.52273 0.10493 0.0
H2841 H 0.2371 0.50517 0.11243 0.0
H2842 H 0.20927 0.44795 0.05042 0.0
H2843 H 0.17727 0.46479 0.04375 0.0
C2844 C 0.26293 0.42954 0.08375 0.0
C2845 C 0.28341 0.44448 0.08956 0.0
C2846 C 0.24446 0.4394 0.08199 0.0
C2847 C 0.24583 0.46458 0.08582 0.0
C2848 C 0.26638 0.47953 0.09239 0.0
C2849 C 0.28489 0.46961 0.09426 0.0
C2850 C 0.20582 0.50619 0.09314 0.0
C2851 C 0.18857 0.49531 0.07366 0.0
C2852 C 0.22424 0.49625 0.09724 0.0
C2853 C 0.22598 0.47506 0.08205 0.0
C2854 C 0.20859 0.46406 0.0628 0.0
C2855 C 0.19023 0.47397 0.05872 0.0
H2856 H 0.89921 0.95978 0.26716 0.0
H2857 H 0.94295 0.91596 0.29533 0.0
H2858 H 0.86909 0.92706 0.26745 0.0
H2859 H 0.91282 0.88319 0.29522 0.0
H2860 H 0.82021 0.85446 0.25366 0.0
H2861 H 0.85054 0.88542 0.24835 0.0
H2862 H 0.88454 0.87693 0.32084 0.0
H2863 H 0.85443 0.84659 0.32614 0.0
C2864 C 0.90246 0.9431 0.27314 0.0
C2865 C 0.92359 0.94067 0.28145 0.0
C2866 C 0.88515 0.92427 0.27315 0.0
C2867 C 0.88851 0.90257 0.28155 0.0
C2868 C 0.90964 0.89983 0.28902 0.0
C2869 C 0.92695 0.91861 0.28897 0.0
C2870 C 0.83423 0.85927 0.26835 0.0
C2871 C 0.83513 0.84781 0.29008 0.0
C2872 C 0.85156 0.87698 0.26536 0.0
C2873 C 0.8701 0.88345 0.28404 0.0
C2874 C 0.87079 0.87201 0.30579 0.0
C2875 C 0.8535 0.85455 0.30882 0.0
H2876 H 0.7333 0.08539 0.8144 0.0
H2877 H 0.69328 0.12199 0.85566 0.0
H2878 H 0.75527 0.12481 0.81101 0.0
H2879 H 0.71484 0.16082 0.85234 0.0
H2880 H 0.76564 0.23028 0.86018 0.0
H2881 H 0.74657 0.19028 0.86492 0.0
H2882 H 0.75808 0.16172 0.79177 0.0
H2883 H 0.77733 0.2019 0.78716 0.0
C2884 C 0.72926 0.10166 0.82314 0.0
C2885 C 0.71124 0.09981 0.83553 0.0
C2886 C 0.74183 0.12459 0.82094 0.0
C2887 C 0.73725 0.14682 0.83136 0.0
C2888 C 0.71953 0.14473 0.8442 0.0
C2889 C 0.7069 0.12203 0.84606 0.0
C2890 C 0.76426 0.21559 0.84501 0.0
C2891 C 0.77332 0.22004 0.8232 0.0
C2892 C 0.75302 0.19229 0.84766 0.0
C2893 C 0.75028 0.17193 0.82874 0.0
C2894 C 0.75968 0.17633 0.80708 0.0
C2895 C 0.77077 0.19974 0.80433 0.0
loop_
_geom_bond_atom_site_label_1
_geom_bond_atom_site_label_2
_geom_bond_distance
_geom_bond_site_symmetry_2
_ccdc_geom_bond_type
Co0 O1 2.216 . S
Co0 O2 2.091 . S
Co0 O4 2.004 1_455 S
Co0 O10 2.021 . S
Co0 O12 2.137 . S
Co0 O13 2.244 . S
O1 Co0 2.216 . S
O1 C8 1.247 . S
O2 Co0 2.091 . S
O2 C8 1.261 . S
C3 O12 1.247 . S
C3 O13 1.272 . S
O4 Co0 2.004 1_655 S
O4 C9 1.259 . S
Co5 O6 2.061 . S
Co5 O11 2.052 . S
Co5 O13 2.135 1_655 S
O6 Co5 2.061 . S
O6 C9 1.235 . S
C7 O10 1.238 1_655 S
C7 O11 1.241 . S
C8 O1 1.247 . S
C8 O2 1.261 . S
C9 O4 1.259 . S
C9 O6 1.235 . S
O10 Co0 2.021 . S
O10 C7 1.238 1_455 S
O11 Co5 2.052 . S
O11 C7 1.241 . S
O12 Co0 2.137 . S
O12 C3 1.247 . S
O13 Co0 2.244 . S
O13 C3 1.272 . S
O13 Co5 2.135 1_455 S
Co14 O15 2.216 . S
Co14 O16 2.091 . S
Co14 O18 2.004 . S
Co14 O24 2.021 . S
Co14 O26 2.137 . S
Co14 O27 2.244 . S
O15 Co14 2.216 . S
O15 C22 1.247 . S
O16 Co14 2.091 . S
O16 C22 1.261 . S
C17 O26 1.247 . S
C17 O27 1.272 . S
O18 Co14 2.004 . S
O18 C23 1.259 . S
Co19 O20 2.061 . S
Co19 O25 2.052 . S
Co19 O27 2.135 . S
O20 Co19 2.061 . S
O20 C23 1.235 . S
C21 O24 1.238 . S
C21 O25 1.241 . S
C22 O15 1.247 . S
C22 O16 1.261 . S
C23 O18 1.259 . S
C23 O20 1.235 . S
O24 Co14 2.021 . S
O24 C21 1.238 . S
O25 Co19 2.052 . S
O25 C21 1.241 . S
O26 Co14 2.137 . S
O26 C17 1.247 . S
O27 Co14 2.244 . S
O27 C17 1.272 . S
O27 Co19 2.135 . S
Co28 O29 2.216 . S
Co28 O30 2.091 . S
Co28 O32 2.004 . S
Co28 O38 2.021 . S
Co28 O40 2.137 . S
Co28 O41 2.244 . S
O29 Co28 2.216 . S
O29 C36 1.247 . S
O30 Co28 2.091 . S
O30 C36 1.261 . S
C31 O40 1.247 . S
C31 O41 1.272 . S
O32 Co28 2.004 . S
O32 C37 1.259 . S
Co33 O34 2.061 . S
Co33 O39 2.052 . S
Co33 O41 2.135 . S
O34 Co33 2.061 . S
O34 C37 1.235 . S
C35 O38 1.238 . S
C35 O39 1.241 . S
C36 O29 1.247 . S
C36 O30 1.261 . S
C37 O32 1.259 . S
C37 O34 1.235 . S
O38 Co28 2.021 . S
O38 C35 1.238 . S
O39 Co33 2.052 . S
O39 C35 1.241 . S
O40 Co28 2.137 . S
O40 C31 1.247 . S
O41 Co28 2.244 . S
O41 C31 1.272 . S
O41 Co33 2.135 . S
Co42 O43 2.216 . S
Co42 O44 2.091 . S
Co42 O46 2.004 . S
Co42 O52 2.021 . S
Co42 O54 2.137 . S
Co42 O55 2.244 . S
O43 Co42 2.216 . S
O43 C50 1.247 . S
O44 Co42 2.091 . S
O44 C50 1.261 . S
C45 O54 1.247 . S
C45 O55 1.272 . S
O46 Co42 2.004 . S
O46 C51 1.259 . S
Co47 O48 2.061 . S
Co47 O53 2.052 . S
Co47 O55 2.135 . S
O48 Co47 2.061 . S
O48 C51 1.235 . S
C49 O52 1.238 . S
C49 O53 1.241 . S
C50 O43 1.247 . S
C50 O44 1.261 . S
C51 O46 1.259 . S
C51 O48 1.235 . S
O52 Co42 2.021 . S
O52 C49 1.238 . S
O53 Co47 2.052 . S
O53 C49 1.241 . S
O54 Co42 2.137 . S
O54 C45 1.247 . S
O55 Co42 2.244 . S
O55 C45 1.272 . S
O55 Co47 2.135 . S
Co56 O57 2.216 . S
Co56 O58 2.091 . S
Co56 O60 2.004 . S
Co56 O66 2.021 . S
Co56 O68 2.137 . S
Co56 O69 2.244 . S
O57 Co56 2.216 . S
O57 C64 1.247 . S
O58 Co56 2.091 . S
O58 C64 1.261 . S
C59 O68 1.247 . S
C59 O69 1.272 . S
O60 Co56 2.004 . S
O60 C65 1.259 . S
Co61 O62 2.061 . S
Co61 O67 2.052 . S
Co61 O69 2.135 . S
O62 Co61 2.061 . S
O62 C65 1.235 . S
C63 O66 1.238 . S
C63 O67 1.241 . S
C64 O57 1.247 . S
C64 O58 1.261 . S
C65 O60 1.259 . S
C65 O62 1.235 . S
O66 Co56 2.021 . S
O66 C63 1.238 . S
O67 Co61 2.052 . S
O67 C63 1.241 . S
O68 Co56 2.137 . S
O68 C59 1.247 . S
O69 Co56 2.244 . S
O69 C59 1.272 . S
O69 Co61 2.135 . S
Co70 O71 2.216 . S
Co70 O72 2.091 . S
Co70 O74 2.004 . S
Co70 O80 2.021 . S
Co70 O82 2.137 . S
Co70 O83 2.244 . S
O71 Co70 2.216 . S
O71 C78 1.247 . S
O72 Co70 2.091 . S
O72 C78 1.261 . S
C73 O82 1.247 . S
C73 O83 1.272 . S
O74 Co70 2.004 . S
O74 C79 1.259 . S
Co75 O76 2.061 . S
Co75 O81 2.052 . S
Co75 O83 2.135 . S
O76 Co75 2.061 . S
O76 C79 1.235 . S
C77 O80 1.238 . S
C77 O81 1.241 . S
C78 O71 1.247 . S
C78 O72 1.261 . S
C79 O74 1.259 . S
C79 O76 1.235 . S
O80 Co70 2.021 . S
O80 C77 1.238 . S
O81 Co75 2.052 . S
O81 C77 1.241 . S
O82 Co70 2.137 . S
O82 C73 1.247 . S
O83 Co70 2.244 . S
O83 C73 1.272 . S
O83 Co75 2.135 . S
Co84 O85 2.216 . S
Co84 O86 2.091 . S
Co84 O88 2.004 . S
Co84 O94 2.021 . S
Co84 O96 2.137 . S
Co84 O97 2.244 . S
O85 Co84 2.216 . S
O85 C92 1.247 . S
O86 Co84 2.091 . S
O86 C92 1.261 . S
C87 O96 1.247 . S
C87 O97 1.272 . S
O88 Co84 2.004 . S
O88 C93 1.259 . S
Co89 O90 2.061 . S
Co89 O95 2.052 . S
Co89 O97 2.135 . S
O90 Co89 2.061 . S
O90 C93 1.235 . S
C91 O94 1.238 . S
C91 O95 1.241 . S
C92 O85 1.247 . S
C92 O86 1.261 . S
C93 O88 1.259 . S
C93 O90 1.235 . S
O94 Co84 2.021 . S
O94 C91 1.238 . S
O95 Co89 2.052 . S
O95 C91 1.241 . S
O96 Co84 2.137 . S
O96 C87 1.247 . S
O97 Co84 2.244 . S
O97 C87 1.272 . S
O97 Co89 2.135 . S
Co98 O99 2.216 . S
Co98 O100 2.091 . S
Co98 O102 2.004 1_455 S
Co98 O108 2.021 . S
Co98 O110 2.137 . S
Co98 O111 2.244 . S
O99 Co98 2.216 . S
O99 C106 1.247 . S
O100 Co98 2.091 . S
O100 C106 1.261 . S
C101 O110 1.247 . S
C101 O111 1.272 . S
O102 Co98 2.004 1_655 S
O102 C107 1.259 . S
Co103 O104 2.061 . S
Co103 O109 2.017 1_655 S
Co103 O111 2.135 1_655 S
O104 Co103 2.061 . S
O104 C107 1.235 . S
C105 O108 1.238 . S
C105 O109 1.272 . S
C106 O99 1.247 . S
C106 O100 1.261 . S
C107 O102 1.259 . S
C107 O104 1.235 . S
O108 Co98 2.021 . S
O108 C105 1.238 . S
O109 Co103 2.017 1_455 S
O109 C105 1.272 . S
O110 Co98 2.137 . S
O110 C101 1.247 . S
O111 Co98 2.244 . S
O111 C101 1.272 . S
O111 Co103 2.135 1_455 S
Co112 O113 2.216 . S
Co112 O114 2.091 . S
Co112 O116 2.004 1_545 S
Co112 O122 2.021 . S
Co112 O124 2.137 . S
Co112 O125 2.244 . S
O113 Co112 2.216 . S
O113 C120 1.247 . S
O114 Co112 2.091 . S
O114 C120 1.261 . S
C115 O124 1.247 . S
C115 O125 1.272 . S
O116 Co112 2.004 1_565 S
O116 C121 1.259 . S
Co117 O118 2.061 . S
Co117 O123 2.052 1_565 S
Co117 O125 2.135 1_565 S
O118 Co117 2.061 . S
O118 C121 1.235 . S
C119 O122 1.238 . S
C119 O123 1.241 . S
C120 O113 1.247 . S
C120 O114 1.261 . S
C121 O116 1.259 . S
C121 O118 1.235 . S
O122 Co112 2.021 . S
O122 C119 1.238 . S
O123 Co117 2.052 1_545 S
O123 C119 1.241 . S
O124 Co112 2.137 . S
O124 C115 1.247 . S
O125 Co112 2.244 . S
O125 C115 1.272 . S
O125 Co117 2.135 1_545 S
Co126 O127 2.216 . S
Co126 O128 2.091 . S
Co126 O130 2.004 . S
Co126 O136 2.021 . S
Co126 O138 2.137 . S
Co126 O139 2.244 . S
O127 Co126 2.216 . S
O127 C134 1.247 . S
O128 Co126 2.091 . S
O128 C134 1.261 . S
C129 O138 1.247 . S
C129 O139 1.272 . S
O130 Co126 2.004 . S
O130 C135 1.259 . S
Co131 O132 2.061 . S
Co131 O137 2.052 . S
Co131 O139 2.135 . S
O132 Co131 2.061 . S
O132 C135 1.235 . S
C133 O136 1.238 . S
C133 O137 1.241 . S
C134 O127 1.247 . S
C134 O128 1.261 . S
C135 O130 1.259 . S
C135 O132 1.235 . S
O136 Co126 2.021 . S
O136 C133 1.238 . S
O137 Co131 2.052 . S
O137 C133 1.241 . S
O138 Co126 2.137 . S
O138 C129 1.247 . S
O139 Co126 2.244 . S
O139 C129 1.272 . S
O139 Co131 2.135 . S
Co140 O141 2.216 1_545 S
Co140 O142 2.091 . S
Co140 O144 2.004 . S
Co140 O150 2.021 . S
Co140 O152 2.137 . S
Co140 O153 2.244 . S
O141 Co140 2.216 1_565 S
O141 C148 1.247 . S
O142 Co140 2.091 . S
O142 C148 1.261 1_545 S
C143 O152 1.247 . S
C143 O153 1.272 . S
O144 Co140 2.004 . S
O144 C149 1.259 . S
Co145 O146 2.061 . S
Co145 O151 2.052 . S
Co145 O153 2.135 . S
O146 Co145 2.061 . S
O146 C149 1.235 . S
C147 O150 1.238 . S
C147 O151 1.241 . S
C148 O141 1.247 . S
C148 O142 1.261 1_565 S
C149 O144 1.259 . S
C149 O146 1.235 . S
O150 Co140 2.021 . S
O150 C147 1.238 . S
O151 Co145 2.052 . S
O151 C147 1.241 . S
O152 Co140 2.137 . S
O152 C143 1.247 . S
O153 Co140 2.244 . S
O153 C143 1.272 . S
O153 Co145 2.135 . S
Co154 O155 2.216 . S
Co154 O156 2.091 1_556 S
Co154 O158 2.009 1_556 S
Co154 O164 2.021 1_556 S
Co154 O166 2.137 . S
Co154 O167 2.244 . S
O155 Co154 2.216 . S
O155 C162 1.247 . S
O156 Co154 2.091 1_554 S
O156 C162 1.261 1_554 S
C157 O166 1.247 . S
C157 O167 1.272 . S
O158 Co154 2.009 1_554 S
O158 C163 1.263 . S
Co159 O160 2.061 1_556 S
Co159 O165 2.052 1_556 S
Co159 O167 2.135 . S
O160 Co159 2.061 1_554 S
O160 C163 1.235 . S
C161 O164 1.238 . S
C161 O165 1.241 . S
C162 O155 1.247 . S
C162 O156 1.261 1_556 S
C163 O158 1.263 . S
C163 O160 1.235 . S
O164 Co154 2.021 1_554 S
O164 C161 1.238 . S
O165 Co159 2.052 1_554 S
O165 C161 1.241 . S
O166 Co154 2.137 . S
O166 C157 1.247 . S
O167 Co154 2.244 . S
O167 C157 1.272 . S
O167 Co159 2.135 . S
Co168 O169 2.216 . S
Co168 O170 2.091 . S
Co168 O172 2.004 . S
Co168 O178 2.021 . S
Co168 O180 2.137 . S
Co168 O181 2.244 . S
O169 Co168 2.216 . S
O169 C176 1.247 . S
O170 Co168 2.091 . S
O170 C176 1.261 . S
C171 O180 1.247 . S
C171 O181 1.272 . S
O172 Co168 2.004 . S
O172 C177 1.259 . S
Co173 O174 2.061 . S
Co173 O179 2.052 . S
Co173 O181 2.135 . S
O174 Co173 2.061 . S
O174 C177 1.235 . S
C175 O178 1.238 . S
C175 O179 1.241 . S
C176 O169 1.247 . S
C176 O170 1.261 . S
C177 O172 1.259 . S
C177 O174 1.235 . S
O178 Co168 2.021 . S
O178 C175 1.238 . S
O179 Co173 2.052 . S
O179 C175 1.241 . S
O180 Co168 2.137 . S
O180 C171 1.247 . S
O181 Co168 2.244 . S
O181 C171 1.272 . S
O181 Co173 2.135 . S
Co182 O183 2.216 . S
Co182 O184 2.091 . S
Co182 O186 2.004 . S
Co182 O192 2.021 . S
Co182 O194 2.137 . S
Co182 O195 2.244 . S
O183 Co182 2.216 . S
O183 C190 1.247 . S
O184 Co182 2.091 . S
O184 C190 1.261 . S
C185 O194 1.247 . S
C185 O195 1.272 . S
O186 Co182 2.004 . S
O186 C191 1.259 . S
Co187 O188 2.061 . S
Co187 O193 2.052 . S
Co187 O195 2.135 . S
O188 Co187 2.061 . S
O188 C191 1.235 . S
C189 O192 1.238 . S
C189 O193 1.241 . S
C190 O183 1.247 . S
C190 O184 1.261 . S
C191 O186 1.259 . S
C191 O188 1.235 . S
O192 Co182 2.021 . S
O192 C189 1.238 . S
O193 Co187 2.052 . S
O193 C189 1.241 . S
O194 Co182 2.137 . S
O194 C185 1.247 . S
O195 Co182 2.244 . S
O195 C185 1.272 . S
O195 Co187 2.135 . S
Co196 O197 2.216 . S
Co196 O198 2.091 . S
Co196 O200 2.004 . S
Co196 O206 2.021 . S
Co196 O208 2.137 . S
Co196 O209 2.244 . S
O197 Co196 2.216 . S
O197 C204 1.247 . S
O198 Co196 2.091 . S
O198 C204 1.261 . S
C199 O208 1.247 . S
C199 O209 1.272 . S
O200 Co196 2.004 . S
O200 C205 1.259 . S
Co201 O202 2.061 . S
Co201 O207 2.052 . S
Co201 O209 2.135 . S
O202 Co201 2.061 . S
O202 C205 1.235 . S
C203 O206 1.238 . S
C203 O207 1.241 . S
C204 O197 1.247 . S
C204 O198 1.261 . S
C205 O200 1.259 . S
C205 O202 1.235 . S
O206 Co196 2.021 . S
O206 C203 1.238 . S
O207 Co201 2.052 . S
O207 C203 1.241 . S
O208 Co196 2.137 . S
O208 C199 1.247 . S
O209 Co196 2.244 . S
O209 C199 1.272 . S
O209 Co201 2.135 . S
Co210 O211 2.216 . S
Co210 O212 2.091 . S
Co210 O214 2.004 . S
Co210 O220 2.021 . S
Co210 O222 2.137 . S
Co210 O223 2.244 . S
O211 Co210 2.216 . S
O211 C218 1.247 . S
O212 Co210 2.091 . S
O212 C218 1.261 . S
C213 O222 1.247 . S
C213 O223 1.272 . S
O214 Co210 2.004 . S
O214 C219 1.259 . S
Co215 O216 2.061 . S
Co215 O221 2.052 . S
Co215 O223 2.135 . S
O216 Co215 2.061 . S
O216 C219 1.235 . S
C217 O220 1.238 . S
C217 O221 1.241 . S
C218 O211 1.247 . S
C218 O212 1.261 . S
C219 O214 1.259 . S
C219 O216 1.235 . S
O220 Co210 2.021 . S
O220 C217 1.238 . S
O221 Co215 2.052 . S
O221 C217 1.241 . S
O222 Co210 2.137 . S
O222 C213 1.247 . S
O223 Co210 2.244 . S
O223 C213 1.272 . S
O223 Co215 2.135 . S
Co224 O225 2.216 . S
Co224 O226 2.091 . S
Co224 O228 2.004 1_545 S
Co224 O234 2.021 . S
Co224 O236 2.137 . S
Co224 O237 2.244 1_545 S
O225 Co224 2.216 . S
O225 C232 1.247 . S
O226 Co224 2.091 . S
O226 C232 1.261 . S
C227 O236 1.247 . S
C227 O237 1.272 1_545 S
O228 Co224 2.004 1_565 S
O228 C233 1.259 . S
Co229 O230 2.061 . S
Co229 O235 2.052 . S
Co229 O237 2.135 . S
O230 Co229 2.061 . S
O230 C233 1.235 . S
C231 O234 1.235 1_565 S
C231 O235 1.241 . S
C232 O225 1.247 . S
C232 O226 1.261 . S
C233 O228 1.259 . S
C233 O230 1.235 . S
O234 Co224 2.021 . S
O234 C231 1.235 1_545 S
O235 Co229 2.052 . S
O235 C231 1.241 . S
O236 Co224 2.137 . S
O236 C227 1.247 . S
O237 Co224 2.244 1_565 S
O237 C227 1.272 1_565 S
O237 Co229 2.135 . S
Co238 O239 2.216 . S
Co238 O240 2.091 . S
Co238 O242 2.004 . S
Co238 O248 2.021 . S
Co238 O250 2.137 . S
Co238 O251 2.244 . S
O239 Co238 2.216 . S
O239 C246 1.247 . S
O240 Co238 2.091 . S
O240 C246 1.261 . S
C241 O250 1.247 . S
C241 O251 1.272 . S
O242 Co238 2.004 . S
O242 C247 1.259 . S
Co243 O244 2.061 . S
Co243 O249 2.052 . S
Co243 O251 2.135 . S
O244 Co243 2.061 . S
O244 C247 1.235 . S
C245 O248 1.238 . S
C245 O249 1.241 . S
C246 O239 1.247 . S
C246 O240 1.261 . S
C247 O242 1.259 . S
C247 O244 1.235 . S
O248 Co238 2.021 . S
O248 C245 1.238 . S
O249 Co243 2.052 . S
O249 C245 1.241 . S
O250 Co238 2.137 . S
O250 C241 1.247 . S
O251 Co238 2.244 . S
O251 C241 1.272 . S
O251 Co243 2.135 . S
Co252 O253 2.216 . S
Co252 O254 2.091 . S
Co252 O256 2.004 . S
Co252 O262 2.021 . S
Co252 O264 2.137 . S
Co252 O265 2.244 . S
O253 Co252 2.216 . S
O253 C260 1.247 . S
O254 Co252 2.091 . S
O254 C260 1.261 . S
C255 O264 1.247 . S
C255 O265 1.272 . S
O256 Co252 2.004 . S
O256 C261 1.259 . S
Co257 O258 2.061 . S
Co257 O263 2.052 . S
Co257 O265 2.135 . S
O258 Co257 2.061 . S
O258 C261 1.235 . S
C259 O262 1.238 . S
C259 O263 1.241 . S
C260 O253 1.247 . S
C260 O254 1.261 . S
C261 O256 1.259 . S
C261 O258 1.235 . S
O262 Co252 2.021 . S
O262 C259 1.238 . S
O263 Co257 2.052 . S
O263 C259 1.241 . S
O264 Co252 2.137 . S
O264 C255 1.247 . S
O265 Co252 2.244 . S
O265 C255 1.272 . S
O265 Co257 2.135 . S
Co266 O267 2.216 1_545 S
Co266 O268 2.091 1_545 S
Co266 O270 2.004 . S
Co266 O276 2.021 . S
Co266 O278 2.137 . S
Co266 O279 2.244 . S
O267 Co266 2.216 1_565 S
O267 C274 1.247 . S
O268 Co266 2.091 1_565 S
O268 C274 1.261 . S
C269 O278 1.247 . S
C269 O279 1.272 . S
O270 Co266 2.004 . S
O270 C275 1.259 . S
Co271 O272 2.061 . S
Co271 O277 2.052 . S
Co271 O279 2.135 . S
O272 Co271 2.061 . S
O272 C275 1.235 . S
C273 O276 1.238 . S
C273 O277 1.241 . S
C274 O267 1.247 . S
C274 O268 1.261 . S
C275 O270 1.259 . S
C275 O272 1.235 . S
O276 Co266 2.021 . S
O276 C273 1.238 . S
O277 Co271 2.052 . S
O277 C273 1.241 . S
O278 Co266 2.137 . S
O278 C269 1.247 . S
O279 Co266 2.244 . S
O279 C269 1.272 . S
O279 Co271 2.135 . S
Co280 O281 2.216 . S
Co280 O282 2.091 . S
Co280 O284 2.004 . S
Co280 O290 2.021 . S
Co280 O292 2.095 1_554 S
Co280 O293 2.244 . S
O281 Co280 2.216 . S
O281 C288 1.247 . S
O282 Co280 2.091 . S
O282 C288 1.261 . S
C283 O292 1.247 1_554 S
C283 O293 1.272 . S
O284 Co280 2.004 . S
O284 C289 1.259 . S
Co285 O286 2.061 . S
Co285 O291 2.052 . S
Co285 O293 2.135 . S
O286 Co285 2.061 . S
O286 C289 1.235 . S
C287 O290 1.238 . S
C287 O291 1.241 . S
C288 O281 1.247 . S
C288 O282 1.261 . S
C289 O284 1.259 . S
C289 O286 1.235 . S
O290 Co280 2.021 . S
O290 C287 1.238 . S
O291 Co285 2.052 . S
O291 C287 1.241 . S
O292 Co280 2.095 1_556 S
O292 C283 1.247 1_556 S
O293 Co280 2.244 . S
O293 C283 1.272 . S
O293 Co285 2.135 . S
Co294 O295 2.216 . S
Co294 O296 2.091 . S
Co294 O298 2.004 . S
Co294 O304 2.021 . S
Co294 O306 2.137 . S
Co294 O307 2.244 . S
O295 Co294 2.216 . S
O295 C302 1.247 . S
O296 Co294 2.091 . S
O296 C302 1.261 . S
C297 O306 1.247 . S
C297 O307 1.272 . S
O298 Co294 2.004 . S
O298 C303 1.259 . S
Co299 O300 2.061 . S
Co299 O305 2.052 . S
Co299 O307 2.135 . S
O300 Co299 2.061 . S
O300 C303 1.235 . S
C301 O304 1.238 . S
C301 O305 1.241 . S
C302 O295 1.247 . S
C302 O296 1.261 . S
C303 O298 1.259 . S
C303 O300 1.235 . S
O304 Co294 2.021 . S
O304 C301 1.238 . S
O305 Co299 2.052 . S
O305 C301 1.241 . S
O306 Co294 2.137 . S
O306 C297 1.247 . S
O307 Co294 2.244 . S
O307 C297 1.272 . S
O307 Co299 2.135 . S
Co308 O309 2.216 . S
Co308 O310 2.091 . S
Co308 O312 2.004 . S
Co308 O318 2.021 . S
Co308 O320 2.137 . S
Co308 O321 2.244 . S
O309 Co308 2.216 . S
O309 C316 1.247 . S
O310 Co308 2.091 . S
O310 C316 1.261 . S
C311 O320 1.247 . S
C311 O321 1.272 . S
O312 Co308 2.004 . S
O312 C317 1.259 . S
Co313 O314 2.061 . S
Co313 O319 2.052 . S
Co313 O321 2.135 . S
O314 Co313 2.061 . S
O314 C317 1.235 . S
C315 O318 1.238 . S
C315 O319 1.241 . S
C316 O309 1.247 . S
C316 O310 1.261 . S
C317 O312 1.259 . S
C317 O314 1.235 . S
O318 Co308 2.021 . S
O318 C315 1.238 . S
O319 Co313 2.052 . S
O319 C315 1.241 . S
O320 Co308 2.137 . S
O320 C311 1.247 . S
O321 Co308 2.244 . S
O321 C311 1.272 . S
O321 Co313 2.135 . S
Co322 O323 2.216 . S
Co322 O324 2.091 . S
Co322 O326 2.004 . S
Co322 O332 2.021 . S
Co322 O334 2.137 . S
Co322 O335 2.244 . S
O323 Co322 2.216 . S
O323 C330 1.247 . S
O324 Co322 2.091 . S
O324 C330 1.261 . S
C325 O334 1.247 . S
C325 O335 1.272 . S
O326 Co322 2.004 . S
O326 C331 1.259 . S
Co327 O328 2.061 . S
Co327 O333 2.052 . S
Co327 O335 2.135 . S
O328 Co327 2.061 . S
O328 C331 1.235 . S
C329 O332 1.238 . S
C329 O333 1.241 . S
C330 O323 1.247 . S
C330 O324 1.261 . S
C331 O326 1.259 . S
C331 O328 1.235 . S
O332 Co322 2.021 . S
O332 C329 1.238 . S
O333 Co327 2.052 . S
O333 C329 1.241 . S
O334 Co322 2.137 . S
O334 C325 1.247 . S
O335 Co322 2.244 . S
O335 C325 1.272 . S
O335 Co327 2.135 . S
Tb336 C338 2.809 1_455 S
Tb336 O356 2.484 1_455 S
Tb336 O357 2.440 1_455 S
Tb336 O358 2.658 . S
Tb336 O359 2.409 1_554 S
Tb336 O360 2.378 . S
Tb336 O364 2.325 . S
Tb336 O367 2.341 1_545 S
Tb337 C347 2.809 . S
Tb337 O358 2.325 . S
Tb337 O361 2.341 . S
Tb337 O362 2.484 . S
Tb337 O363 2.440 . S
Tb337 O364 2.658 . S
Tb337 O365 2.409 . S
Tb337 O366 2.378 1_545 S
C338 Tb336 2.809 1_655 S
C338 C339 1.514 . S
C338 O356 1.248 . S
C338 O357 1.266 . S
C339 C338 1.514 . S
C339 C340 1.359 . S
C339 C344 1.327 1_554 S
C340 C339 1.359 . S
C340 C341 1.380 . S
C340 H368 0.929 . S
C341 C340 1.380 . S
C341 C342 1.347 . S
C341 H369 0.931 . S
C342 C341 1.347 . S
C342 C343 1.369 1_554 S
C343 C342 1.369 1_556 S
C343 C344 1.411 . S
C343 H370 0.930 . S
C344 C339 1.327 1_556 S
C344 C343 1.411 . S
C344 H371 0.950 . S
C345 O358 1.281 . S
C345 O359 1.254 1_554 S
C346 O360 1.236 . S
C346 O361 1.266 . S
C347 Tb337 2.809 . S
C347 C348 1.514 1_545 S
C347 O362 1.248 . S
C347 O363 1.266 . S
C348 C347 1.514 1_565 S
C348 C349 1.359 . S
C348 C353 1.348 . S
C349 C348 1.359 . S
C349 C350 1.380 . S
C349 H372 0.929 . S
C350 C349 1.380 . S
C350 C351 1.347 . S
C350 H373 0.931 . S
C351 C350 1.347 . S
C351 C352 1.369 . S
C352 C351 1.369 . S
C352 C353 1.408 . S
C352 H374 0.930 . S
C353 C348 1.348 . S
C353 C352 1.408 . S
C353 H375 0.930 . S
C354 O364 1.281 . S
C354 O365 1.254 . S
C355 O366 1.236 . S
C355 O367 1.266 . S
O356 Tb336 2.484 1_655 S
O356 C338 1.248 . S
O357 Tb336 2.440 1_655 S
O357 C338 1.266 . S
O358 Tb336 2.658 . S
O358 Tb337 2.325 . S
O358 C345 1.281 . S
O359 Tb336 2.409 1_556 S
O359 C345 1.254 1_556 S
O360 Tb336 2.378 . S
O360 C346 1.236 . S
O361 Tb337 2.341 . S
O361 C346 1.266 . S
O362 Tb337 2.484 . S
O362 C347 1.248 . S
O363 Tb337 2.440 . S
O363 C347 1.266 . S
O364 Tb336 2.325 . S
O364 Tb337 2.658 . S
O364 C354 1.281 . S
O365 Tb337 2.409 . S
O365 C354 1.254 . S
O366 Tb337 2.378 1_565 S
O366 C355 1.236 . S
O367 Tb336 2.341 1_565 S
O367 C355 1.266 . S
H368 C340 0.929 . S
H369 C341 0.931 . S
H370 C343 0.930 . S
H371 C344 0.950 . S
H372 C349 0.929 . S
H373 C350 0.931 . S
H374 C352 0.930 . S
H375 C353 0.930 . S
Tb376 C378 2.809 . S
Tb376 O396 2.484 . S
Tb376 O397 2.440 . S
Tb376 O398 2.658 . S
Tb376 O399 2.409 . S
Tb376 O400 2.378 . S
Tb376 O404 2.325 . S
Tb376 O407 2.341 . S
Tb377 C387 2.809 . S
Tb377 O398 2.325 . S
Tb377 O401 2.341 . S
Tb377 O402 2.484 . S
Tb377 O403 2.440 . S
Tb377 O404 2.658 . S
Tb377 O405 2.409 . S
Tb377 O406 2.378 . S
C378 Tb376 2.809 . S
C378 C379 1.514 . S
C378 O396 1.248 . S
C378 O397 1.266 . S
C379 C378 1.514 . S
C379 C380 1.359 . S
C379 C384 1.348 . S
C380 C379 1.359 . S
C380 C381 1.380 . S
C380 H408 0.929 . S
C381 C380 1.380 . S
C381 C382 1.347 . S
C381 H409 0.931 . S
C382 C381 1.347 . S
C382 C383 1.369 . S
C383 C382 1.369 . S
C383 C384 1.408 . S
C383 H410 0.930 . S
C384 C379 1.348 . S
C384 C383 1.408 . S
C384 H411 0.930 . S
C385 O398 1.281 . S
C385 O399 1.254 . S
C386 O400 1.236 . S
C386 O401 1.266 . S
C387 Tb377 2.809 . S
C387 C388 1.514 . S
C387 O402 1.248 . S
C387 O403 1.266 . S
C388 C387 1.514 . S
C388 C389 1.359 . S
C388 C393 1.348 . S
C389 C388 1.359 . S
C389 C390 1.380 . S
C389 H412 0.929 . S
C390 C389 1.380 . S
C390 C391 1.347 . S
C390 H413 0.931 . S
C391 C390 1.347 . S
C391 C392 1.369 . S
C392 C391 1.369 . S
C392 C393 1.408 . S
C392 H414 0.930 . S
C393 C388 1.348 . S
C393 C392 1.408 . S
C393 H415 0.930 . S
C394 O404 1.281 . S
C394 O405 1.254 . S
C395 O406 1.236 . S
C395 O407 1.266 . S
O396 Tb376 2.484 . S
O396 C378 1.248 . S
O397 Tb376 2.440 . S
O397 C378 1.266 . S
O398 Tb376 2.658 . S
O398 Tb377 2.325 . S
O398 C385 1.281 . S
O399 Tb376 2.409 . S
O399 C385 1.254 . S
O400 Tb376 2.378 . S
O400 C386 1.236 . S
O401 Tb377 2.341 . S
O401 C386 1.266 . S
O402 Tb377 2.484 . S
O402 C387 1.248 . S
O403 Tb377 2.440 . S
O403 C387 1.266 . S
O404 Tb376 2.325 . S
O404 Tb377 2.658 . S
O404 C394 1.281 . S
O405 Tb377 2.409 . S
O405 C394 1.254 . S
O406 Tb377 2.378 . S
O406 C395 1.236 . S
O407 Tb376 2.341 . S
O407 C395 1.266 . S
H408 C380 0.929 . S
H409 C381 0.931 . S
H410 C383 0.930 . S
H411 C384 0.930 . S
H412 C389 0.929 . S
H413 C390 0.931 . S
H414 C392 0.930 . S
H415 C393 0.930 . S
Tb416 C418 2.809 1_545 S
Tb416 O436 2.453 1_545 S
Tb416 O437 2.440 . S
Tb416 O438 2.658 . S
Tb416 O439 2.409 . S
Tb416 O440 2.378 1_545 S
Tb416 O444 2.325 . S
Tb416 O447 2.341 . S
Tb417 C427 2.809 . S
Tb417 O438 2.325 . S
Tb417 O441 2.341 1_545 S
Tb417 O442 2.484 . S
Tb417 O443 2.440 . S
Tb417 O444 2.658 . S
Tb417 O445 2.409 . S
Tb417 O446 2.378 . S
C418 Tb416 2.809 1_565 S
C418 C419 1.514 . S
C418 O436 1.249 . S
C418 O437 1.266 1_565 S
C419 C418 1.514 . S
C419 C420 1.359 . S
C419 C424 1.348 . S
C420 C419 1.359 . S
C420 C421 1.380 . S
C420 H448 0.929 . S
C421 C420 1.380 . S
C421 C422 1.347 . S
C421 H449 0.931 . S
C422 C421 1.347 . S
C422 C423 1.369 . S
C423 C422 1.369 . S
C423 C424 1.408 . S
C423 H450 0.930 . S
C424 C419 1.348 . S
C424 C423 1.408 . S
C424 H451 0.930 . S
C425 O438 1.281 . S
C425 O439 1.254 . S
C426 O440 1.236 . S
C426 O441 1.266 . S
C427 Tb417 2.809 . S
C427 C428 1.514 . S
C427 O442 1.248 . S
C427 O443 1.266 . S
C428 C427 1.514 . S
C428 C429 1.359 . S
C428 C433 1.348 . S
C429 C428 1.359 . S
C429 C430 1.380 . S
C429 H452 0.929 . S
C430 C429 1.380 . S
C430 C431 1.347 . S
C430 H453 0.931 . S
C431 C430 1.347 . S
C431 C432 1.369 . S
C432 C431 1.369 . S
C432 C433 1.408 . S
C432 H454 0.930 . S
C433 C428 1.348 . S
C433 C432 1.408 . S
C433 H455 0.930 . S
C434 O444 1.281 . S
C434 O445 1.254 . S
C435 O446 1.236 . S
C435 O447 1.266 . S
O436 Tb416 2.453 1_565 S
O436 C418 1.249 . S
O437 Tb416 2.440 . S
O437 C418 1.266 1_545 S
O438 Tb416 2.658 . S
O438 Tb417 2.325 . S
O438 C425 1.281 . S
O439 Tb416 2.409 . S
O439 C425 1.254 . S
O440 Tb416 2.378 1_565 S
O440 C426 1.236 . S
O441 Tb417 2.341 1_565 S
O441 C426 1.266 . S
O442 Tb417 2.484 . S
O442 C427 1.248 . S
O443 Tb417 2.440 . S
O443 C427 1.266 . S
O444 Tb416 2.325 . S
O444 Tb417 2.658 . S
O444 C434 1.281 . S
O445 Tb417 2.409 . S
O445 C434 1.254 . S
O446 Tb417 2.378 . S
O446 C435 1.236 . S
O447 Tb416 2.341 . S
O447 C435 1.266 . S
H448 C420 0.929 . S
H449 C421 0.931 . S
H450 C423 0.930 . S
H451 C424 0.930 . S
H452 C429 0.929 . S
H453 C430 0.931 . S
H454 C432 0.930 . S
H455 C433 0.930 . S
Tb456 C458 2.809 . S
Tb456 O476 2.484 . S
Tb456 O477 2.440 . S
Tb456 O478 2.658 . S
Tb456 O479 2.409 . S
Tb456 O480 2.378 . S
Tb456 O484 2.325 . S
Tb456 O487 2.341 . S
Tb457 C467 2.809 . S
Tb457 O478 2.325 . S
Tb457 O481 2.341 . S
Tb457 O482 2.484 . S
Tb457 O483 2.440 . S
Tb457 O484 2.658 . S
Tb457 O485 2.409 . S
Tb457 O486 2.378 . S
C458 Tb456 2.809 . S
C458 C459 1.514 . S
C458 O476 1.248 . S
C458 O477 1.266 . S
C459 C458 1.514 . S
C459 C460 1.359 . S
C459 C464 1.348 . S
C460 C459 1.359 . S
C460 C461 1.380 . S
C460 H488 0.929 . S
C461 C460 1.380 . S
C461 C462 1.347 . S
C461 H489 0.931 . S
C462 C461 1.347 . S
C462 C463 1.369 . S
C463 C462 1.369 . S
C463 C464 1.408 . S
C463 H490 0.930 . S
C464 C459 1.348 . S
C464 C463 1.408 . S
C464 H491 0.930 . S
C465 O478 1.281 . S
C465 O479 1.254 . S
C466 O480 1.236 . S
C466 O481 1.266 . S
C467 Tb457 2.809 . S
C467 C468 1.514 . S
C467 O482 1.248 . S
C467 O483 1.266 . S
C468 C467 1.514 . S
C468 C469 1.359 . S
C468 C473 1.348 . S
C469 C468 1.359 . S
C469 C470 1.380 . S
C469 H492 0.929 . S
C470 C469 1.380 . S
C470 C471 1.347 . S
C470 H493 0.931 . S
C471 C470 1.347 . S
C471 C472 1.369 . S
C472 C471 1.369 . S
C472 C473 1.408 . S
C472 H494 0.930 . S
C473 C468 1.348 . S
C473 C472 1.408 . S
C473 H495 0.930 . S
C474 O484 1.281 . S
C474 O485 1.254 . S
C475 O486 1.236 . S
C475 O487 1.266 . S
O476 Tb456 2.484 . S
O476 C458 1.248 . S
O477 Tb456 2.440 . S
O477 C458 1.266 . S
O478 Tb456 2.658 . S
O478 Tb457 2.325 . S
O478 C465 1.281 . S
O479 Tb456 2.409 . S
O479 C465 1.254 . S
O480 Tb456 2.378 . S
O480 C466 1.236 . S
O481 Tb457 2.341 . S
O481 C466 1.266 . S
O482 Tb457 2.484 . S
O482 C467 1.248 . S
O483 Tb457 2.440 . S
O483 C467 1.266 . S
O484 Tb456 2.325 . S
O484 Tb457 2.658 . S
O484 C474 1.281 . S
O485 Tb457 2.409 . S
O485 C474 1.254 . S
O486 Tb457 2.378 . S
O486 C475 1.236 . S
O487 Tb456 2.341 . S
O487 C475 1.266 . S
H488 C460 0.929 . S
H489 C461 0.931 . S
H490 C463 0.930 . S
H491 C464 0.930 . S
H492 C469 0.929 . S
H493 C470 0.931 . S
H494 C472 0.930 . S
H495 C473 0.930 . S
Tb496 C498 2.809 . S
Tb496 O516 2.484 . S
Tb496 O517 2.440 . S
Tb496 O518 2.658 . S
Tb496 O519 2.409 1_455 S
Tb496 O520 2.378 . S
Tb496 O524 2.325 . S
Tb496 O527 2.341 . S
Tb497 C507 2.809 . S
Tb497 O518 2.325 1_565 S
Tb497 O521 2.359 . S
Tb497 O522 2.484 . S
Tb497 O523 2.440 . S
Tb497 O524 2.658 1_565 S
Tb497 O525 2.409 1_565 S
Tb497 O526 2.378 1_565 S
C498 Tb496 2.809 . S
C498 C499 1.514 . S
C498 O516 1.248 . S
C498 O517 1.266 . S
C499 C498 1.514 . S
C499 C500 1.359 . S
C499 C504 1.348 1_455 S
C500 C499 1.359 . S
C500 C501 1.380 . S
C500 H528 0.929 . S
C501 C500 1.380 . S
C501 C502 1.347 . S
C501 H529 0.931 . S
C502 C501 1.347 . S
C502 C503 1.369 1_455 S
C503 C502 1.369 1_655 S
C503 C504 1.408 . S
C503 H530 0.930 . S
C504 C499 1.348 1_655 S
C504 C503 1.408 . S
C504 H531 0.930 . S
C505 O518 1.281 1_655 S
C505 O519 1.254 . S
C506 O520 1.236 . S
C506 O521 1.233 1_545 S
C507 Tb497 2.809 . S
C507 C508 1.514 . S
C507 O522 1.248 . S
C507 O523 1.266 . S
C508 C507 1.514 . S
C508 C509 1.359 . S
C508 C513 1.348 . S
C509 C508 1.359 . S
C509 C510 1.380 . S
C509 H532 0.929 . S
C510 C509 1.380 . S
C510 C511 1.347 . S
C510 H533 0.931 . S
C511 C510 1.347 . S
C511 C512 1.369 . S
C512 C511 1.369 . S
C512 C513 1.408 . S
C512 H534 0.930 . S
C513 C508 1.348 . S
C513 C512 1.408 . S
C513 H535 0.930 . S
C514 O524 1.281 . S
C514 O525 1.254 . S
C515 O526 1.236 . S
C515 O527 1.266 . S
O516 Tb496 2.484 . S
O516 C498 1.248 . S
O517 Tb496 2.440 . S
O517 C498 1.266 . S
O518 Tb496 2.658 . S
O518 Tb497 2.325 1_545 S
O518 C505 1.281 1_455 S
O519 Tb496 2.409 1_655 S
O519 C505 1.254 . S
O520 Tb496 2.378 . S
O520 C506 1.236 . S
O521 Tb497 2.359 . S
O521 C506 1.233 1_565 S
O522 Tb497 2.484 . S
O522 C507 1.248 . S
O523 Tb497 2.440 . S
O523 C507 1.266 . S
O524 Tb496 2.325 . S
O524 Tb497 2.658 1_545 S
O524 C514 1.281 . S
O525 Tb497 2.409 1_545 S
O525 C514 1.254 . S
O526 Tb497 2.378 1_545 S
O526 C515 1.236 . S
O527 Tb496 2.341 . S
O527 C515 1.266 . S
H528 C500 0.929 . S
H529 C501 0.931 . S
H530 C503 0.930 . S
H531 C504 0.930 . S
H532 C509 0.929 . S
H533 C510 0.931 . S
H534 C512 0.930 . S
H535 C513 0.930 . S
Tb536 C538 2.809 . S
Tb536 O556 2.484 . S
Tb536 O557 2.440 . S
Tb536 O558 2.658 . S
Tb536 O559 2.409 . S
Tb536 O560 2.378 . S
Tb536 O564 2.325 . S
Tb536 O567 2.341 . S
Tb537 C547 2.809 . S
Tb537 O558 2.325 . S
Tb537 O561 2.341 . S
Tb537 O562 2.484 . S
Tb537 O563 2.440 . S
Tb537 O564 2.658 . S
Tb537 O565 2.409 . S
Tb537 O566 2.378 . S
C538 Tb536 2.809 . S
C538 C539 1.514 . S
C538 O556 1.248 . S
C538 O557 1.266 . S
C539 C538 1.514 . S
C539 C540 1.359 . S
C539 C544 1.348 . S
C540 C539 1.359 . S
C540 C541 1.380 . S
C540 H568 0.929 . S
C541 C540 1.380 . S
C541 C542 1.347 . S
C541 H569 0.931 . S
C542 C541 1.347 . S
C542 C543 1.369 . S
C543 C542 1.369 . S
C543 C544 1.408 . S
C543 H570 0.930 . S
C544 C539 1.348 . S
C544 C543 1.408 . S
C544 H571 0.930 . S
C545 O558 1.281 . S
C545 O559 1.254 . S
C546 O560 1.236 . S
C546 O561 1.266 . S
C547 Tb537 2.809 . S
C547 C548 1.514 . S
C547 O562 1.248 . S
C547 O563 1.266 . S
C548 C547 1.514 . S
C548 C549 1.359 . S
C548 C553 1.348 . S
C549 C548 1.359 . S
C549 C550 1.380 . S
C549 H572 0.929 . S
C550 C549 1.380 . S
C550 C551 1.347 . S
C550 H573 0.931 . S
C551 C550 1.347 . S
C551 C552 1.369 . S
C552 C551 1.369 . S
C552 C553 1.408 . S
C552 H574 0.930 . S
C553 C548 1.348 . S
C553 C552 1.408 . S
C553 H575 0.930 . S
C554 O564 1.281 . S
C554 O565 1.254 . S
C555 O566 1.236 . S
C555 O567 1.266 . S
O556 Tb536 2.484 . S
O556 C538 1.248 . S
O557 Tb536 2.440 . S
O557 C538 1.266 . S
O558 Tb536 2.658 . S
O558 Tb537 2.325 . S
O558 C545 1.281 . S
O559 Tb536 2.409 . S
O559 C545 1.254 . S
O560 Tb536 2.378 . S
O560 C546 1.236 . S
O561 Tb537 2.341 . S
O561 C546 1.266 . S
O562 Tb537 2.484 . S
O562 C547 1.248 . S
O563 Tb537 2.440 . S
O563 C547 1.266 . S
O564 Tb536 2.325 . S
O564 Tb537 2.658 . S
O564 C554 1.281 . S
O565 Tb537 2.409 . S
O565 C554 1.254 . S
O566 Tb537 2.378 . S
O566 C555 1.236 . S
O567 Tb536 2.341 . S
O567 C555 1.266 . S
H568 C540 0.929 . S
H569 C541 0.931 . S
H570 C543 0.930 . S
H571 C544 0.930 . S
H572 C549 0.929 . S
H573 C550 0.931 . S
H574 C552 0.930 . S
H575 C553 0.930 . S
Tb576 C578 2.809 . S
Tb576 O596 2.484 1_545 S
Tb576 O597 2.440 . S
Tb576 O598 2.658 . S
Tb576 O599 2.409 . S
Tb576 O600 2.378 . S
Tb576 O604 2.325 1_545 S
Tb576 O607 2.365 . S
Tb577 C587 2.809 . S
Tb577 O598 2.325 . S
Tb577 O601 2.341 . S
Tb577 O602 2.484 . S
Tb577 O603 2.440 . S
Tb577 O604 2.658 1_545 S
Tb577 O605 2.409 1_545 S
Tb577 O606 2.378 . S
C578 Tb576 2.809 . S
C578 C579 1.514 1_545 S
C578 O596 1.248 1_545 S
C578 O597 1.266 . S
C579 C578 1.514 1_565 S
C579 C580 1.359 . S
C579 C584 1.348 1_565 S
C580 C579 1.359 . S
C580 C581 1.380 . S
C580 H608 0.929 . S
C581 C580 1.380 . S
C581 C582 1.347 . S
C581 H609 0.931 . S
C582 C581 1.347 . S
C582 C583 1.364 1_565 S
C583 C582 1.364 1_545 S
C583 C584 1.409 . S
C583 H610 0.935 . S
C584 C579 1.348 1_545 S
C584 C583 1.409 . S
C584 H611 0.930 . S
C585 O598 1.281 . S
C585 O599 1.254 . S
C586 O600 1.236 . S
C586 O601 1.266 . S
C587 Tb577 2.809 . S
C587 C588 1.514 . S
C587 O602 1.248 . S
C587 O603 1.266 . S
C588 C587 1.514 . S
C588 C589 1.359 . S
C588 C593 1.348 . S
C589 C588 1.359 . S
C589 C590 1.380 . S
C589 H612 0.929 . S
C590 C589 1.380 . S
C590 C591 1.347 . S
C590 H613 0.931 . S
C591 C590 1.347 . S
C591 C592 1.369 . S
C592 C591 1.369 . S
C592 C593 1.408 . S
C592 H614 0.930 . S
C593 C588 1.348 . S
C593 C592 1.408 . S
C593 H615 0.930 . S
C594 O604 1.281 . S
C594 O605 1.254 . S
C595 O606 1.236 . S
C595 O607 1.268 . S
O596 Tb576 2.484 1_565 S
O596 C578 1.248 1_565 S
O597 Tb576 2.440 . S
O597 C578 1.266 . S
O598 Tb576 2.658 . S
O598 Tb577 2.325 . S
O598 C585 1.281 . S
O599 Tb576 2.409 . S
O599 C585 1.254 . S
O600 Tb576 2.378 . S
O600 C586 1.236 . S
O601 Tb577 2.341 . S
O601 C586 1.266 . S
O602 Tb577 2.484 . S
O602 C587 1.248 . S
O603 Tb577 2.440 . S
O603 C587 1.266 . S
O604 Tb576 2.325 1_565 S
O604 Tb577 2.658 1_565 S
O604 C594 1.281 . S
O605 Tb577 2.409 1_565 S
O605 C594 1.254 . S
O606 Tb577 2.378 . S
O606 C595 1.236 . S
O607 Tb576 2.365 . S
O607 C595 1.268 . S
H608 C580 0.929 . S
H609 C581 0.931 . S
H610 C583 0.935 . S
H611 C584 0.930 . S
H612 C589 0.929 . S
H613 C590 0.931 . S
H614 C592 0.930 . S
H615 C593 0.930 . S
Tb616 C618 2.809 . S
Tb616 O636 2.484 . S
Tb616 O637 2.440 . S
Tb616 O638 2.658 . S
Tb616 O639 2.409 . S
Tb616 O640 2.378 . S
Tb616 O644 2.325 . S
Tb616 O647 2.341 . S
Tb617 C627 2.809 . S
Tb617 O638 2.325 . S
Tb617 O641 2.341 . S
Tb617 O642 2.484 . S
Tb617 O643 2.440 . S
Tb617 O644 2.658 . S
Tb617 O645 2.409 . S
Tb617 O646 2.378 . S
C618 Tb616 2.809 . S
C618 C619 1.514 . S
C618 O636 1.248 . S
C618 O637 1.266 . S
C619 C618 1.514 . S
C619 C620 1.359 . S
C619 C624 1.348 . S
C620 C619 1.359 . S
C620 C621 1.380 . S
C620 H648 0.929 . S
C621 C620 1.380 . S
C621 C622 1.347 . S
C621 H649 0.931 . S
C622 C621 1.347 . S
C622 C623 1.369 . S
C623 C622 1.369 . S
C623 C624 1.408 . S
C623 H650 0.930 . S
C624 C619 1.348 . S
C624 C623 1.408 . S
C624 H651 0.930 . S
C625 O638 1.281 . S
C625 O639 1.254 . S
C626 O640 1.236 . S
C626 O641 1.266 . S
C627 Tb617 2.809 . S
C627 C628 1.514 . S
C627 O642 1.248 . S
C627 O643 1.266 . S
C628 C627 1.514 . S
C628 C629 1.359 . S
C628 C633 1.348 . S
C629 C628 1.359 . S
C629 C630 1.380 . S
C629 H652 0.929 . S
C630 C629 1.380 . S
C630 C631 1.347 . S
C630 H653 0.931 . S
C631 C630 1.347 . S
C631 C632 1.369 . S
C632 C631 1.369 . S
C632 C633 1.408 . S
C632 H654 0.930 . S
C633 C628 1.348 . S
C633 C632 1.408 . S
C633 H655 0.930 . S
C634 O644 1.281 . S
C634 O645 1.254 . S
C635 O646 1.236 . S
C635 O647 1.266 . S
O636 Tb616 2.484 . S
O636 C618 1.248 . S
O637 Tb616 2.440 . S
O637 C618 1.266 . S
O638 Tb616 2.658 . S
O638 Tb617 2.325 . S
O638 C625 1.281 . S
O639 Tb616 2.409 . S
O639 C625 1.254 . S
O640 Tb616 2.378 . S
O640 C626 1.236 . S
O641 Tb617 2.341 . S
O641 C626 1.266 . S
O642 Tb617 2.484 . S
O642 C627 1.248 . S
O643 Tb617 2.440 . S
O643 C627 1.266 . S
O644 Tb616 2.325 . S
O644 Tb617 2.658 . S
O644 C634 1.281 . S
O645 Tb617 2.409 . S
O645 C634 1.254 . S
O646 Tb617 2.378 . S
O646 C635 1.236 . S
O647 Tb616 2.341 . S
O647 C635 1.266 . S
H648 C620 0.929 . S
H649 C621 0.931 . S
H650 C623 0.930 . S
H651 C624 0.930 . S
H652 C629 0.929 . S
H653 C630 0.931 . S
H654 C632 0.930 . S
H655 C633 0.930 . S
Tb656 C658 2.809 . S
Tb656 O676 2.484 . S
Tb656 O677 2.440 . S
Tb656 O678 2.658 . S
Tb656 O679 2.409 . S
Tb656 O680 2.378 . S
Tb656 O684 2.325 . S
Tb656 O687 2.341 . S
Tb657 C667 2.809 . S
Tb657 O678 2.325 . S
Tb657 O681 2.341 . S
Tb657 O682 2.484 . S
Tb657 O683 2.440 . S
Tb657 O684 2.658 . S
Tb657 O685 2.409 . S
Tb657 O686 2.378 . S
C658 Tb656 2.809 . S
C658 C659 1.514 . S
C658 O676 1.248 . S
C658 O677 1.266 . S
C659 C658 1.514 . S
C659 C660 1.359 1_554 S
C659 C664 1.348 . S
C660 C659 1.359 1_556 S
C660 C661 1.380 . S
C660 H688 0.929 . S
C661 C660 1.380 . S
C661 C662 1.347 . S
C661 H689 0.931 . S
C662 C661 1.347 . S
C662 C663 1.369 . S
C663 C662 1.369 . S
C663 C664 1.408 1_556 S
C663 H690 0.930 . S
C664 C659 1.348 . S
C664 C663 1.408 1_554 S
C664 H691 0.930 . S
C665 O678 1.281 . S
C665 O679 1.254 . S
C666 O680 1.236 1_556 S
C666 O681 1.266 1_556 S
C667 Tb657 2.809 . S
C667 C668 1.514 . S
C667 O682 1.248 . S
C667 O683 1.266 . S
C668 C667 1.514 . S
C668 C669 1.359 . S
C668 C673 1.348 . S
C669 C668 1.359 . S
C669 C670 1.380 . S
C669 H692 0.929 . S
C670 C669 1.380 . S
C670 C671 1.347 . S
C670 H693 0.931 . S
C671 C670 1.347 . S
C671 C672 1.369 . S
C672 C671 1.369 . S
C672 C673 1.408 . S
C672 H694 0.930 . S
C673 C668 1.348 . S
C673 C672 1.408 . S
C673 H695 0.930 . S
C674 O684 1.281 . S
C674 O685 1.254 . S
C675 O686 1.236 . S
C675 O687 1.266 . S
O676 Tb656 2.484 . S
O676 C658 1.248 . S
O677 Tb656 2.440 . S
O677 C658 1.266 . S
O678 Tb656 2.658 . S
O678 Tb657 2.325 . S
O678 C665 1.281 . S
O679 Tb656 2.409 . S
O679 C665 1.254 . S
O680 Tb656 2.378 . S
O680 C666 1.236 1_554 S
O681 Tb657 2.341 . S
O681 C666 1.266 1_554 S
O682 Tb657 2.484 . S
O682 C667 1.248 . S
O683 Tb657 2.440 . S
O683 C667 1.266 . S
O684 Tb656 2.325 . S
O684 Tb657 2.658 . S
O684 C674 1.281 . S
O685 Tb657 2.409 . S
O685 C674 1.254 . S
O686 Tb657 2.378 . S
O686 C675 1.236 . S
O687 Tb656 2.341 . S
O687 C675 1.266 . S
H688 C660 0.929 . S
H689 C661 0.931 . S
H690 C663 0.930 . S
H691 C664 0.930 . S
H692 C669 0.929 . S
H693 C670 0.931 . S
H694 C672 0.930 . S
H695 C673 0.930 . S
Tb696 C698 2.809 . S
Tb696 O716 2.484 . S
Tb696 O717 2.440 . S
Tb696 O718 2.658 . S
Tb696 O719 2.409 . S
Tb696 O720 2.378 . S
Tb696 O724 2.325 . S
Tb696 O727 2.341 . S
Tb697 C707 2.809 . S
Tb697 O718 2.325 . S
Tb697 O721 2.341 . S
Tb697 O722 2.484 . S
Tb697 O723 2.440 . S
Tb697 O724 2.658 . S
Tb697 O725 2.409 . S
Tb697 O726 2.378 . S
C698 Tb696 2.809 . S
C698 C699 1.514 . S
C698 O716 1.248 . S
C698 O717 1.266 . S
C699 C698 1.514 . S
C699 C700 1.359 . S
C699 C704 1.348 . S
C700 C699 1.359 . S
C700 C701 1.380 . S
C700 H728 0.929 . S
C701 C700 1.380 . S
C701 C702 1.347 . S
C701 H729 0.931 . S
C702 C701 1.347 . S
C702 C703 1.369 . S
C703 C702 1.369 . S
C703 C704 1.408 . S
C703 H730 0.930 . S
C704 C699 1.348 . S
C704 C703 1.408 . S
C704 H731 0.930 . S
C705 O718 1.281 . S
C705 O719 1.254 . S
C706 O720 1.236 . S
C706 O721 1.266 . S
C707 Tb697 2.809 . S
C707 C708 1.514 . S
C707 O722 1.248 . S
C707 O723 1.266 . S
C708 C707 1.514 . S
C708 C709 1.359 . S
C708 C713 1.348 . S
C709 C708 1.359 . S
C709 C710 1.380 . S
C709 H732 0.929 . S
C710 C709 1.380 . S
C710 C711 1.347 . S
C710 H733 0.931 . S
C711 C710 1.347 . S
C711 C712 1.369 . S
C712 C711 1.369 . S
C712 C713 1.408 . S
C712 H734 0.930 . S
C713 C708 1.348 . S
C713 C712 1.408 . S
C713 H735 0.930 . S
C714 O724 1.281 . S
C714 O725 1.254 . S
C715 O726 1.236 . S
C715 O727 1.266 . S
O716 Tb696 2.484 . S
O716 C698 1.248 . S
O717 Tb696 2.440 . S
O717 C698 1.266 . S
O718 Tb696 2.658 . S
O718 Tb697 2.325 . S
O718 C705 1.281 . S
O719 Tb696 2.409 . S
O719 C705 1.254 . S
O720 Tb696 2.378 . S
O720 C706 1.236 . S
O721 Tb697 2.341 . S
O721 C706 1.266 . S
O722 Tb697 2.484 . S
O722 C707 1.248 . S
O723 Tb697 2.440 . S
O723 C707 1.266 . S
O724 Tb696 2.325 . S
O724 Tb697 2.658 . S
O724 C714 1.281 . S
O725 Tb697 2.409 . S
O725 C714 1.254 . S
O726 Tb697 2.378 . S
O726 C715 1.236 . S
O727 Tb696 2.341 . S
O727 C715 1.266 . S
H728 C700 0.929 . S
H729 C701 0.931 . S
H730 C703 0.930 . S
H731 C704 0.930 . S
H732 C709 0.929 . S
H733 C710 0.931 . S
H734 C712 0.930 . S
H735 C713 0.930 . S
Tb736 C738 2.809 1_455 S
Tb736 O756 2.484 1_455 S
Tb736 O757 2.440 1_455 S
Tb736 O758 2.658 . S
Tb736 O759 2.409 . S
Tb736 O760 2.378 . S
Tb736 O764 2.325 . S
Tb736 O767 2.341 . S
Tb737 C747 2.809 . S
Tb737 O758 2.325 . S
Tb737 O761 2.341 . S
Tb737 O762 2.484 . S
Tb737 O763 2.440 . S
Tb737 O764 2.658 . S
Tb737 O765 2.409 . S
Tb737 O766 2.378 . S
C738 Tb736 2.809 1_655 S
C738 C739 1.514 . S
C738 O756 1.248 . S
C738 O757 1.266 . S
C739 C738 1.514 . S
C739 C740 1.359 . S
C739 C744 1.348 . S
C740 C739 1.359 . S
C740 C741 1.380 . S
C740 H768 0.929 . S
C741 C740 1.380 . S
C741 C742 1.347 . S
C741 H769 0.931 . S
C742 C741 1.347 . S
C742 C743 1.369 . S
C743 C742 1.369 . S
C743 C744 1.408 . S
C743 H770 0.930 . S
C744 C739 1.348 . S
C744 C743 1.408 . S
C744 H771 0.930 . S
C745 O758 1.281 . S
C745 O759 1.254 . S
C746 O760 1.236 . S
C746 O761 1.266 . S
C747 Tb737 2.809 . S
C747 C748 1.514 . S
C747 O762 1.248 . S
C747 O763 1.266 . S
C748 C747 1.514 . S
C748 C749 1.359 . S
C748 C753 1.348 . S
C749 C748 1.359 . S
C749 C750 1.380 . S
C749 H772 0.929 . S
C750 C749 1.380 . S
C750 C751 1.347 . S
C750 H773 0.931 . S
C751 C750 1.347 . S
C751 C752 1.369 . S
C752 C751 1.369 . S
C752 C753 1.408 . S
C752 H774 0.930 . S
C753 C748 1.348 . S
C753 C752 1.408 . S
C753 H775 0.930 . S
C754 O764 1.281 . S
C754 O765 1.254 . S
C755 O766 1.236 . S
C755 O767 1.266 . S
O756 Tb736 2.484 1_655 S
O756 C738 1.248 . S
O757 Tb736 2.440 1_655 S
O757 C738 1.266 . S
O758 Tb736 2.658 . S
O758 Tb737 2.325 . S
O758 C745 1.281 . S
O759 Tb736 2.409 . S
O759 C745 1.254 . S
O760 Tb736 2.378 . S
O760 C746 1.236 . S
O761 Tb737 2.341 . S
O761 C746 1.266 . S
O762 Tb737 2.484 . S
O762 C747 1.248 . S
O763 Tb737 2.440 . S
O763 C747 1.266 . S
O764 Tb736 2.325 . S
O764 Tb737 2.658 . S
O764 C754 1.281 . S
O765 Tb737 2.409 . S
O765 C754 1.254 . S
O766 Tb737 2.378 . S
O766 C755 1.236 . S
O767 Tb736 2.341 . S
O767 C755 1.266 . S
H768 C740 0.929 . S
H769 C741 0.931 . S
H770 C743 0.930 . S
H771 C744 0.930 . S
H772 C749 0.929 . S
H773 C750 0.931 . S
H774 C752 0.930 . S
H775 C753 0.930 . S
Tb776 C778 2.809 . S
Tb776 O796 2.484 . S
Tb776 O797 2.440 . S
Tb776 O798 2.658 . S
Tb776 O799 2.409 . S
Tb776 O800 2.378 . S
Tb776 O804 2.325 . S
Tb776 O807 2.341 . S
Tb777 C787 2.809 . S
Tb777 O798 2.325 . S
Tb777 O801 2.341 . S
Tb777 O802 2.484 . S
Tb777 O803 2.440 . S
Tb777 O804 2.658 . S
Tb777 O805 2.409 . S
Tb777 O806 2.378 . S
C778 Tb776 2.809 . S
C778 C779 1.514 . S
C778 O796 1.248 . S
C778 O797 1.266 . S
C779 C778 1.514 . S
C779 C780 1.359 . S
C779 C784 1.348 . S
C780 C779 1.359 . S
C780 C781 1.380 . S
C780 H808 0.929 . S
C781 C780 1.380 . S
C781 C782 1.347 . S
C781 H809 0.931 . S
C782 C781 1.347 . S
C782 C783 1.369 . S
C783 C782 1.369 . S
C783 C784 1.408 . S
C783 H810 0.930 . S
C784 C779 1.348 . S
C784 C783 1.408 . S
C784 H811 0.930 . S
C785 O798 1.281 . S
C785 O799 1.254 . S
C786 O800 1.236 . S
C786 O801 1.266 . S
C787 Tb777 2.809 . S
C787 C788 1.514 . S
C787 O802 1.248 . S
C787 O803 1.266 . S
C788 C787 1.514 . S
C788 C789 1.359 . S
C788 C793 1.348 . S
C789 C788 1.359 . S
C789 C790 1.380 . S
C789 H812 0.929 . S
C790 C789 1.380 . S
C790 C791 1.347 . S
C790 H813 0.931 . S
C791 C790 1.347 . S
C791 C792 1.369 . S
C792 C791 1.369 . S
C792 C793 1.408 . S
C792 H814 0.930 . S
C793 C788 1.348 . S
C793 C792 1.408 . S
C793 H815 0.930 . S
C794 O804 1.281 . S
C794 O805 1.254 . S
C795 O806 1.236 . S
C795 O807 1.266 . S
O796 Tb776 2.484 . S
O796 C778 1.248 . S
O797 Tb776 2.440 . S
O797 C778 1.266 . S
O798 Tb776 2.658 . S
O798 Tb777 2.325 . S
O798 C785 1.281 . S
O799 Tb776 2.409 . S
O799 C785 1.254 . S
O800 Tb776 2.378 . S
O800 C786 1.236 . S
O801 Tb777 2.341 . S
O801 C786 1.266 . S
O802 Tb777 2.484 . S
O802 C787 1.248 . S
O803 Tb777 2.440 . S
O803 C787 1.266 . S
O804 Tb776 2.325 . S
O804 Tb777 2.658 . S
O804 C794 1.281 . S
O805 Tb777 2.409 . S
O805 C794 1.254 . S
O806 Tb777 2.378 . S
O806 C795 1.236 . S
O807 Tb776 2.341 . S
O807 C795 1.266 . S
H808 C780 0.929 . S
H809 C781 0.931 . S
H810 C783 0.930 . S
H811 C784 0.930 . S
H812 C789 0.929 . S
H813 C790 0.931 . S
H814 C792 0.930 . S
H815 C793 0.930 . S
Tb816 C818 2.809 . S
Tb816 O836 2.484 . S
Tb816 O837 2.440 . S
Tb816 O838 2.658 . S
Tb816 O839 2.409 . S
Tb816 O840 2.378 . S
Tb816 O844 2.325 . S
Tb816 O847 2.341 . S
Tb817 C827 2.809 . S
Tb817 O838 2.325 . S
Tb817 O841 2.341 . S
Tb817 O842 2.484 . S
Tb817 O843 2.440 . S
Tb817 O844 2.658 . S
Tb817 O845 2.409 . S
Tb817 O846 2.378 . S
C818 Tb816 2.809 . S
C818 C819 1.514 . S
C818 O836 1.248 . S
C818 O837 1.266 . S
C819 C818 1.514 . S
C819 C820 1.359 . S
C819 C824 1.348 . S
C820 C819 1.359 . S
C820 C821 1.380 . S
C820 H848 0.929 . S
C821 C820 1.380 . S
C821 C822 1.347 . S
C821 H849 0.931 . S
C822 C821 1.347 . S
C822 C823 1.369 . S
C823 C822 1.369 . S
C823 C824 1.408 . S
C823 H850 0.930 . S
C824 C819 1.348 . S
C824 C823 1.408 . S
C824 H851 0.930 . S
C825 O838 1.281 . S
C825 O839 1.254 . S
C826 O840 1.236 . S
C826 O841 1.266 . S
C827 Tb817 2.809 . S
C827 C828 1.514 . S
C827 O842 1.248 . S
C827 O843 1.266 . S
C828 C827 1.514 . S
C828 C829 1.359 . S
C828 C833 1.348 . S
C829 C828 1.359 . S
C829 C830 1.380 . S
C829 H852 0.929 . S
C830 C829 1.380 . S
C830 C831 1.347 . S
C830 H853 0.931 . S
C831 C830 1.347 . S
C831 C832 1.369 . S
C832 C831 1.369 . S
C832 C833 1.408 . S
C832 H854 0.930 . S
C833 C828 1.348 . S
C833 C832 1.408 . S
C833 H855 0.930 . S
C834 O844 1.281 . S
C834 O845 1.254 . S
C835 O846 1.236 . S
C835 O847 1.266 . S
O836 Tb816 2.484 . S
O836 C818 1.248 . S
O837 Tb816 2.440 . S
O837 C818 1.266 . S
O838 Tb816 2.658 . S
O838 Tb817 2.325 . S
O838 C825 1.281 . S
O839 Tb816 2.409 . S
O839 C825 1.254 . S
O840 Tb816 2.378 . S
O840 C826 1.236 . S
O841 Tb817 2.341 . S
O841 C826 1.266 . S
O842 Tb817 2.484 . S
O842 C827 1.248 . S
O843 Tb817 2.440 . S
O843 C827 1.266 . S
O844 Tb816 2.325 . S
O844 Tb817 2.658 . S
O844 C834 1.281 . S
O845 Tb817 2.409 . S
O845 C834 1.254 . S
O846 Tb817 2.378 . S
O846 C835 1.236 . S
O847 Tb816 2.341 . S
O847 C835 1.266 . S
H848 C820 0.929 . S
H849 C821 0.931 . S
H850 C823 0.930 . S
H851 C824 0.930 . S
H852 C829 0.929 . S
H853 C830 0.931 . S
H854 C832 0.930 . S
H855 C833 0.930 . S
Tb856 C858 2.809 . S
Tb856 O876 2.484 . S
Tb856 O877 2.440 . S
Tb856 O878 2.658 . S
Tb856 O879 2.409 . S
Tb856 O880 2.378 . S
Tb856 O884 2.325 . S
Tb856 O887 2.341 . S
Tb857 C867 2.809 . S
Tb857 O878 2.325 . S
Tb857 O881 2.341 . S
Tb857 O882 2.484 . S
Tb857 O883 2.440 . S
Tb857 O884 2.658 . S
Tb857 O885 2.409 . S
Tb857 O886 2.378 . S
C858 Tb856 2.809 . S
C858 C859 1.514 . S
C858 O876 1.248 . S
C858 O877 1.266 . S
C859 C858 1.514 . S
C859 C860 1.359 . S
C859 C864 1.348 . S
C860 C859 1.359 . S
C860 C861 1.380 . S
C860 H888 0.929 . S
C861 C860 1.380 . S
C861 C862 1.347 . S
C861 H889 0.931 . S
C862 C861 1.347 . S
C862 C863 1.369 . S
C863 C862 1.369 . S
C863 C864 1.408 . S
C863 H890 0.930 . S
C864 C859 1.348 . S
C864 C863 1.408 . S
C864 H891 0.930 . S
C865 O878 1.281 . S
C865 O879 1.254 . S
C866 O880 1.236 . S
C866 O881 1.266 . S
C867 Tb857 2.809 . S
C867 C868 1.514 . S
C867 O882 1.248 . S
C867 O883 1.266 . S
C868 C867 1.514 . S
C868 C869 1.359 . S
C868 C873 1.348 . S
C869 C868 1.359 . S
C869 C870 1.380 . S
C869 H892 0.929 . S
C870 C869 1.380 . S
C870 C871 1.347 . S
C870 H893 0.931 . S
C871 C870 1.347 . S
C871 C872 1.369 . S
C872 C871 1.369 . S
C872 C873 1.408 . S
C872 H894 0.930 . S
C873 C868 1.348 . S
C873 C872 1.408 . S
C873 H895 0.930 . S
C874 O884 1.281 . S
C874 O885 1.254 . S
C875 O886 1.236 . S
C875 O887 1.266 . S
O876 Tb856 2.484 . S
O876 C858 1.248 . S
O877 Tb856 2.440 . S
O877 C858 1.266 . S
O878 Tb856 2.658 . S
O878 Tb857 2.325 . S
O878 C865 1.281 . S
O879 Tb856 2.409 . S
O879 C865 1.254 . S
O880 Tb856 2.378 . S
O880 C866 1.236 . S
O881 Tb857 2.341 . S
O881 C866 1.266 . S
O882 Tb857 2.484 . S
O882 C867 1.248 . S
O883 Tb857 2.440 . S
O883 C867 1.266 . S
O884 Tb856 2.325 . S
O884 Tb857 2.658 . S
O884 C874 1.281 . S
O885 Tb857 2.409 . S
O885 C874 1.254 . S
O886 Tb857 2.378 . S
O886 C875 1.236 . S
O887 Tb856 2.341 . S
O887 C875 1.266 . S
H888 C860 0.929 . S
H889 C861 0.931 . S
H890 C863 0.930 . S
H891 C864 0.930 . S
H892 C869 0.929 . S
H893 C870 0.931 . S
H894 C872 0.930 . S
H895 C873 0.930 . S
Tb896 C898 2.809 . S
Tb896 O916 2.484 . S
Tb896 O917 2.440 . S
Tb896 O918 2.658 . S
Tb896 O919 2.409 . S
Tb896 O920 2.378 . S
Tb896 O924 2.325 . S
Tb896 O927 2.341 . S
Tb897 C907 2.809 . S
Tb897 O918 2.325 . S
Tb897 O921 2.341 . S
Tb897 O922 2.484 . S
Tb897 O923 2.440 . S
Tb897 O924 2.658 . S
Tb897 O925 2.409 . S
Tb897 O926 2.378 . S
C898 Tb896 2.809 . S
C898 C899 1.514 . S
C898 O916 1.248 . S
C898 O917 1.266 . S
C899 C898 1.514 . S
C899 C900 1.359 . S
C899 C904 1.348 . S
C900 C899 1.359 . S
C900 C901 1.380 . S
C900 H928 0.929 . S
C901 C900 1.380 . S
C901 C902 1.347 . S
C901 H929 0.931 . S
C902 C901 1.347 . S
C902 C903 1.369 . S
C903 C902 1.369 . S
C903 C904 1.408 . S
C903 H930 0.930 . S
C904 C899 1.348 . S
C904 C903 1.408 . S
C904 H931 0.930 . S
C905 O918 1.281 . S
C905 O919 1.254 . S
C906 O920 1.236 . S
C906 O921 1.266 . S
C907 Tb897 2.809 . S
C907 C908 1.514 . S
C907 O922 1.248 . S
C907 O923 1.266 . S
C908 C907 1.514 . S
C908 C909 1.359 . S
C908 C913 1.348 . S
C909 C908 1.359 . S
C909 C910 1.380 . S
C909 H932 0.929 . S
C910 C909 1.380 . S
C910 C911 1.347 . S
C910 H933 0.931 . S
C911 C910 1.347 . S
C911 C912 1.369 . S
C912 C911 1.369 . S
C912 C913 1.408 . S
C912 H934 0.930 . S
C913 C908 1.348 . S
C913 C912 1.408 . S
C913 H935 0.930 . S
C914 O924 1.281 . S
C914 O925 1.254 . S
C915 O926 1.236 . S
C915 O927 1.266 . S
O916 Tb896 2.484 . S
O916 C898 1.248 . S
O917 Tb896 2.440 . S
O917 C898 1.266 . S
O918 Tb896 2.658 . S
O918 Tb897 2.325 . S
O918 C905 1.281 . S
O919 Tb896 2.409 . S
O919 C905 1.254 . S
O920 Tb896 2.378 . S
O920 C906 1.236 . S
O921 Tb897 2.341 . S
O921 C906 1.266 . S
O922 Tb897 2.484 . S
O922 C907 1.248 . S
O923 Tb897 2.440 . S
O923 C907 1.266 . S
O924 Tb896 2.325 . S
O924 Tb897 2.658 . S
O924 C914 1.281 . S
O925 Tb897 2.409 . S
O925 C914 1.254 . S
O926 Tb897 2.378 . S
O926 C915 1.236 . S
O927 Tb896 2.341 . S
O927 C915 1.266 . S
H928 C900 0.929 . S
H929 C901 0.931 . S
H930 C903 0.930 . S
H931 C904 0.930 . S
H932 C909 0.929 . S
H933 C910 0.931 . S
H934 C912 0.930 . S
H935 C913 0.930 . S
Tb936 C938 2.809 . S
Tb936 O956 2.484 . S
Tb936 O957 2.440 . S
Tb936 O958 2.658 . S
Tb936 O959 2.409 1_554 S
Tb936 O960 2.378 . S
Tb936 O964 2.325 . S
Tb936 O967 2.341 . S
Tb937 C947 2.809 1_455 S
Tb937 O958 2.325 . S
Tb937 O961 2.341 . S
Tb937 O962 2.484 1_455 S
Tb937 O963 2.440 1_455 S
Tb937 O964 2.658 . S
Tb937 O965 2.409 . S
Tb937 O966 2.378 . S
C938 Tb936 2.809 . S
C938 C939 1.514 . S
C938 O956 1.248 . S
C938 O957 1.266 . S
C939 C938 1.514 . S
C939 C940 1.359 . S
C939 C944 1.348 . S
C940 C939 1.359 . S
C940 C941 1.380 . S
C940 H968 0.929 . S
C941 C940 1.380 . S
C941 C942 1.347 . S
C941 H969 0.931 . S
C942 C941 1.347 . S
C942 C943 1.369 1_554 S
C943 C942 1.369 1_556 S
C943 C944 1.408 1_556 S
C943 H970 0.930 . S
C944 C939 1.348 . S
C944 C943 1.408 1_554 S
C944 H971 0.930 1_554 S
C945 O958 1.307 . S
C945 O959 1.244 1_554 S
C946 O960 1.236 . S
C946 O961 1.266 . S
C947 Tb937 2.809 1_655 S
C947 C948 1.514 . S
C947 O962 1.248 . S
C947 O963 1.266 . S
C948 C947 1.514 . S
C948 C949 1.359 . S
C948 C953 1.348 . S
C949 C948 1.359 . S
C949 C950 1.380 . S
C949 H972 0.929 . S
C950 C949 1.380 . S
C950 C951 1.347 . S
C950 H973 0.931 . S
C951 C950 1.347 . S
C951 C952 1.369 . S
C952 C951 1.369 . S
C952 C953 1.408 . S
C952 H974 0.930 . S
C953 C948 1.348 . S
C953 C952 1.408 . S
C953 H975 0.930 . S
C954 O964 1.281 . S
C954 O965 1.254 . S
C955 O966 1.236 . S
C955 O967 1.266 . S
O956 Tb936 2.484 . S
O956 C938 1.248 . S
O957 Tb936 2.440 . S
O957 C938 1.266 . S
O958 Tb936 2.658 . S
O958 Tb937 2.325 . S
O958 C945 1.307 . S
O959 Tb936 2.409 1_556 S
O959 C945 1.244 1_556 S
O960 Tb936 2.378 . S
O960 C946 1.236 . S
O961 Tb937 2.341 . S
O961 C946 1.266 . S
O962 Tb937 2.484 1_655 S
O962 C947 1.248 . S
O963 Tb937 2.440 1_655 S
O963 C947 1.266 . S
O964 Tb936 2.325 . S
O964 Tb937 2.658 . S
O964 C954 1.281 . S
O965 Tb937 2.409 . S
O965 C954 1.254 . S
O966 Tb937 2.378 . S
O966 C955 1.236 . S
O967 Tb936 2.341 . S
O967 C955 1.266 . S
H968 C940 0.929 . S
H969 C941 0.931 . S
H970 C943 0.930 . S
H971 C944 0.930 1_556 S
H972 C949 0.929 . S
H973 C950 0.931 . S
H974 C952 0.930 . S
H975 C953 0.930 . S
H976 C984 0.950 . S
H977 C989 0.950 . S
H978 C986 0.950 . S
H979 C988 0.950 . S
H980 C990 0.950 1_556 S
H981 C992 0.950 . S
H982 C994 0.950 . S
H983 C995 0.950 . S
C984 H976 0.950 . S
C984 C985 1.386 1_554 S
C984 C986 1.391 . S
C985 C984 1.386 1_556 S
C985 C989 1.393 . S
C986 H978 0.950 . S
C986 C984 1.391 . S
C986 C987 1.400 . S
C987 C986 1.400 . S
C987 C988 1.398 1_554 S
C987 C993 1.491 . S
C988 H979 0.950 . S
C988 C987 1.398 1_556 S
C988 C989 1.391 . S
C989 H977 0.950 . S
C989 C985 1.393 . S
C989 C988 1.391 . S
C990 H980 0.950 1_554 S
C990 C991 1.386 . S
C990 C992 1.391 1_554 S
C991 C990 1.386 . S
C991 C995 1.393 . S
C992 H981 0.950 . S
C992 C990 1.391 1_556 S
C992 C993 1.400 1_556 S
C993 C987 1.491 . S
C993 C992 1.400 1_554 S
C993 C994 1.398 . S
C994 H982 0.950 . S
C994 C993 1.398 . S
C994 C995 1.391 . S
C995 H983 0.950 . S
C995 C991 1.393 . S
C995 C994 1.391 . S
H996 C1004 0.950 . S
H997 C1009 0.950 . S
H998 C1006 0.950 . S
H999 C1008 0.950 . S
H1000 C1010 0.950 . S
H1001 C1012 0.950 . S
H1002 C1014 0.950 . S
H1003 C1015 0.950 . S
C1004 H996 0.950 . S
C1004 C1005 1.386 . S
C1004 C1006 1.391 . S
C1005 C1004 1.386 . S
C1005 C1009 1.393 . S
C1006 H998 0.950 . S
C1006 C1004 1.391 . S
C1006 C1007 1.400 . S
C1007 C1006 1.400 . S
C1007 C1008 1.398 . S
C1007 C1013 1.491 . S
C1008 H999 0.950 . S
C1008 C1007 1.398 . S
C1008 C1009 1.391 . S
C1009 H997 0.950 . S
C1009 C1005 1.393 . S
C1009 C1008 1.391 . S
C1010 H1000 0.950 . S
C1010 C1011 1.386 . S
C1010 C1012 1.391 . S
C1011 C1010 1.386 . S
C1011 C1015 1.393 . S
C1012 H1001 0.950 . S
C1012 C1010 1.391 . S
C1012 C1013 1.400 . S
C1013 C1007 1.491 . S
C1013 C1012 1.400 . S
C1013 C1014 1.398 . S
C1014 H1002 0.950 . S
C1014 C1013 1.398 . S
C1014 C1015 1.391 . S
C1015 H1003 0.950 . S
C1015 C1011 1.393 . S
C1015 C1014 1.391 . S
H1016 C1024 0.950 . S
H1017 C1029 0.950 . S
H1018 C1026 0.950 . S
H1019 C1028 0.950 . S
H1020 C1030 0.950 . S
H1021 C1032 0.950 . S
H1022 C1034 0.950 . S
H1023 C1035 0.950 . S
C1024 H1016 0.950 . S
C1024 C1025 1.386 . S
C1024 C1026 1.391 . S
C1025 C1024 1.386 . S
C1025 C1029 1.393 . S
C1026 H1018 0.950 . S
C1026 C1024 1.391 . S
C1026 C1027 1.400 . S
C1027 C1026 1.400 . S
C1027 C1028 1.398 . S
C1027 C1033 1.491 . S
C1028 H1019 0.950 . S
C1028 C1027 1.398 . S
C1028 C1029 1.391 . S
C1029 H1017 0.950 . S
C1029 C1025 1.393 . S
C1029 C1028 1.391 . S
C1030 H1020 0.950 . S
C1030 C1031 1.386 . S
C1030 C1032 1.391 . S
C1031 C1030 1.386 . S
C1031 C1035 1.393 . S
C1032 H1021 0.950 . S
C1032 C1030 1.391 . S
C1032 C1033 1.400 . S
C1033 C1027 1.491 . S
C1033 C1032 1.400 . S
C1033 C1034 1.398 . S
C1034 H1022 0.950 . S
C1034 C1033 1.398 . S
C1034 C1035 1.391 . S
C1035 H1023 0.950 . S
C1035 C1031 1.393 . S
C1035 C1034 1.391 . S
H1036 C1044 0.950 . S
H1037 C1049 0.950 . S
H1038 C1046 0.950 . S
H1039 C1048 0.950 . S
H1040 C1050 0.950 . S
H1041 C1052 0.950 . S
H1042 C1054 0.950 . S
H1043 C1055 0.950 . S
C1044 H1036 0.950 . S
C1044 C1045 1.386 . S
C1044 C1046 1.391 . S
C1045 C1044 1.386 . S
C1045 C1049 1.393 . S
C1046 H1038 0.950 . S
C1046 C1044 1.391 . S
C1046 C1047 1.400 . S
C1047 C1046 1.400 . S
C1047 C1048 1.398 . S
C1047 C1053 1.491 . S
C1048 H1039 0.950 . S
C1048 C1047 1.398 . S
C1048 C1049 1.391 . S
C1049 H1037 0.950 . S
C1049 C1045 1.393 . S
C1049 C1048 1.391 . S
C1050 H1040 0.950 . S
C1050 C1051 1.386 . S
C1050 C1052 1.391 . S
C1051 C1050 1.386 . S
C1051 C1055 1.393 . S
C1052 H1041 0.950 . S
C1052 C1050 1.391 . S
C1052 C1053 1.400 . S
C1053 C1047 1.491 . S
C1053 C1052 1.400 . S
C1053 C1054 1.398 . S
C1054 H1042 0.950 . S
C1054 C1053 1.398 . S
C1054 C1055 1.391 . S
C1055 H1043 0.950 . S
C1055 C1051 1.393 . S
C1055 C1054 1.391 . S
H1056 C1064 0.950 . S
H1057 C1069 0.950 . S
H1058 C1066 0.950 . S
H1059 C1068 0.950 . S
H1060 C1070 0.950 . S
H1061 C1072 0.950 . S
H1062 C1074 0.950 . S
H1063 C1075 0.950 . S
C1064 H1056 0.950 . S
C1064 C1065 1.386 . S
C1064 C1066 1.391 . S
C1065 C1064 1.386 . S
C1065 C1069 1.393 . S
C1066 H1058 0.950 . S
C1066 C1064 1.391 . S
C1066 C1067 1.400 . S
C1067 C1066 1.400 . S
C1067 C1068 1.398 . S
C1067 C1073 1.491 . S
C1068 H1059 0.950 . S
C1068 C1067 1.398 . S
C1068 C1069 1.391 . S
C1069 H1057 0.950 . S
C1069 C1065 1.393 . S
C1069 C1068 1.391 . S
C1070 H1060 0.950 . S
C1070 C1071 1.386 . S
C1070 C1072 1.391 . S
C1071 C1070 1.386 . S
C1071 C1075 1.393 . S
C1072 H1061 0.950 . S
C1072 C1070 1.391 . S
C1072 C1073 1.400 . S
C1073 C1067 1.491 . S
C1073 C1072 1.400 . S
C1073 C1074 1.398 . S
C1074 H1062 0.950 . S
C1074 C1073 1.398 . S
C1074 C1075 1.391 . S
C1075 H1063 0.950 . S
C1075 C1071 1.393 . S
C1075 C1074 1.391 . S
H1076 C1084 0.950 . S
H1077 C1089 0.950 . S
H1078 C1086 0.950 . S
H1079 C1088 0.950 . S
H1080 C1090 0.950 . S
H1081 C1092 0.950 . S
H1082 C1094 0.950 . S
H1083 C1095 0.950 . S
C1084 H1076 0.950 . S
C1084 C1085 1.386 . S
C1084 C1086 1.391 . S
C1085 C1084 1.386 . S
C1085 C1089 1.393 . S
C1086 H1078 0.950 . S
C1086 C1084 1.391 . S
C1086 C1087 1.400 . S
C1087 C1086 1.400 . S
C1087 C1088 1.398 . S
C1087 C1093 1.491 . S
C1088 H1079 0.950 . S
C1088 C1087 1.398 . S
C1088 C1089 1.391 . S
C1089 H1077 0.950 . S
C1089 C1085 1.393 . S
C1089 C1088 1.391 . S
C1090 H1080 0.950 . S
C1090 C1091 1.386 . S
C1090 C1092 1.391 . S
C1091 C1090 1.386 . S
C1091 C1095 1.393 . S
C1092 H1081 0.950 . S
C1092 C1090 1.391 . S
C1092 C1093 1.400 . S
C1093 C1087 1.491 . S
C1093 C1092 1.400 . S
C1093 C1094 1.398 . S
C1094 H1082 0.950 . S
C1094 C1093 1.398 . S
C1094 C1095 1.391 . S
C1095 H1083 0.950 . S
C1095 C1091 1.393 . S
C1095 C1094 1.391 . S
H1096 C1104 0.950 . S
H1097 C1109 0.950 . S
H1098 C1106 0.950 . S
H1099 C1108 0.950 . S
H1100 C1110 0.950 . S
H1101 C1112 0.950 . S
H1102 C1114 0.950 . S
H1103 C1115 0.950 . S
C1104 H1096 0.950 . S
C1104 C1105 1.386 . S
C1104 C1106 1.391 . S
C1105 C1104 1.386 . S
C1105 C1109 1.393 . S
C1106 H1098 0.950 . S
C1106 C1104 1.391 . S
C1106 C1107 1.400 . S
C1107 C1106 1.400 . S
C1107 C1108 1.398 . S
C1107 C1113 1.491 . S
C1108 H1099 0.950 . S
C1108 C1107 1.398 . S
C1108 C1109 1.391 . S
C1109 H1097 0.950 . S
C1109 C1105 1.393 . S
C1109 C1108 1.391 . S
C1110 H1100 0.950 . S
C1110 C1111 1.386 . S
C1110 C1112 1.391 . S
C1111 C1110 1.386 . S
C1111 C1115 1.393 . S
C1112 H1101 0.950 . S
C1112 C1110 1.391 . S
C1112 C1113 1.400 . S
C1113 C1107 1.491 . S
C1113 C1112 1.400 . S
C1113 C1114 1.398 . S
C1114 H1102 0.950 . S
C1114 C1113 1.398 . S
C1114 C1115 1.391 . S
C1115 H1103 0.950 . S
C1115 C1111 1.393 . S
C1115 C1114 1.391 . S
H1116 C1124 0.950 . S
H1117 C1129 0.950 . S
H1118 C1126 0.950 . S
H1119 C1128 0.950 . S
H1120 C1130 0.950 . S
H1121 C1132 0.950 . S
H1122 C1134 0.950 . S
H1123 C1135 0.950 . S
C1124 H1116 0.950 . S
C1124 C1125 1.386 . S
C1124 C1126 1.391 . S
C1125 C1124 1.386 . S
C1125 C1129 1.393 . S
C1126 H1118 0.950 . S
C1126 C1124 1.391 . S
C1126 C1127 1.400 . S
C1127 C1126 1.400 . S
C1127 C1128 1.398 . S
C1127 C1133 1.491 . S
C1128 H1119 0.950 . S
C1128 C1127 1.398 . S
C1128 C1129 1.391 . S
C1129 H1117 0.950 . S
C1129 C1125 1.393 . S
C1129 C1128 1.391 . S
C1130 H1120 0.950 . S
C1130 C1131 1.386 . S
C1130 C1132 1.391 . S
C1131 C1130 1.386 . S
C1131 C1135 1.393 . S
C1132 H1121 0.950 . S
C1132 C1130 1.391 . S
C1132 C1133 1.400 . S
C1133 C1127 1.491 . S
C1133 C1132 1.400 . S
C1133 C1134 1.398 . S
C1134 H1122 0.950 . S
C1134 C1133 1.398 . S
C1134 C1135 1.391 . S
C1135 H1123 0.950 . S
C1135 C1131 1.393 . S
C1135 C1134 1.391 . S
H1136 C1144 0.950 . S
H1137 C1149 0.950 . S
H1138 C1146 0.950 . S
H1139 C1148 0.950 . S
H1140 C1150 0.950 1_565 S
H1141 C1152 0.950 . S
H1142 C1154 0.950 . S
H1143 C1155 0.950 . S
C1144 H1136 0.950 . S
C1144 C1145 1.386 . S
C1144 C1146 1.391 . S
C1145 C1144 1.386 . S
C1145 C1149 1.393 1_545 S
C1146 H1138 0.950 . S
C1146 C1144 1.391 . S
C1146 C1147 1.400 . S
C1147 C1146 1.400 . S
C1147 C1148 1.398 1_545 S
C1147 C1153 1.491 . S
C1148 H1139 0.950 . S
C1148 C1147 1.398 1_565 S
C1148 C1149 1.391 . S
C1149 H1137 0.950 . S
C1149 C1145 1.393 1_565 S
C1149 C1148 1.391 . S
C1150 H1140 0.950 1_545 S
C1150 C1151 1.386 . S
C1150 C1152 1.391 1_545 S
C1151 C1150 1.386 . S
C1151 C1155 1.393 . S
C1152 H1141 0.950 . S
C1152 C1150 1.391 1_565 S
C1152 C1153 1.400 1_465 S
C1153 C1147 1.491 . S
C1153 C1152 1.400 1_645 S
C1153 C1154 1.398 . S
C1154 H1142 0.950 . S
C1154 C1153 1.398 . S
C1154 C1155 1.391 1_655 S
C1155 H1143 0.950 . S
C1155 C1151 1.393 . S
C1155 C1154 1.391 1_455 S
H1156 C1164 0.950 . S
H1157 C1169 0.950 . S
H1158 C1166 0.950 . S
H1159 C1168 0.950 . S
H1160 C1170 0.950 . S
H1161 C1172 0.950 . S
H1162 C1174 0.950 . S
H1163 C1175 0.950 . S
C1164 H1156 0.950 . S
C1164 C1165 1.386 . S
C1164 C1166 1.391 . S
C1165 C1164 1.386 . S
C1165 C1169 1.393 . S
C1166 H1158 0.950 . S
C1166 C1164 1.391 . S
C1166 C1167 1.400 . S
C1167 C1166 1.400 . S
C1167 C1168 1.398 . S
C1167 C1173 1.491 . S
C1168 H1159 0.950 . S
C1168 C1167 1.398 . S
C1168 C1169 1.391 . S
C1169 H1157 0.950 . S
C1169 C1165 1.393 . S
C1169 C1168 1.391 . S
C1170 H1160 0.950 . S
C1170 C1171 1.386 . S
C1170 C1172 1.391 . S
C1171 C1170 1.386 . S
C1171 C1175 1.393 . S
C1172 H1161 0.950 . S
C1172 C1170 1.391 . S
C1172 C1173 1.400 . S
C1173 C1167 1.491 . S
C1173 C1172 1.400 . S
C1173 C1174 1.398 . S
C1174 H1162 0.950 . S
C1174 C1173 1.398 . S
C1174 C1175 1.391 . S
C1175 H1163 0.950 . S
C1175 C1171 1.393 . S
C1175 C1174 1.391 . S
H1176 C1184 0.950 . S
H1177 C1189 0.950 . S
H1178 C1186 0.950 . S
H1179 C1188 0.950 . S
H1180 C1190 0.950 . S
H1181 C1192 0.950 . S
H1182 C1194 0.950 . S
H1183 C1195 0.967 . S
C1184 H1176 0.950 . S
C1184 C1185 1.386 1_565 S
C1184 C1186 1.391 . S
C1185 C1184 1.386 1_545 S
C1185 C1189 1.393 . S
C1186 H1178 0.950 . S
C1186 C1184 1.391 . S
C1186 C1187 1.400 1_565 S
C1187 C1186 1.400 1_545 S
C1187 C1188 1.398 . S
C1187 C1193 1.491 . S
C1188 H1179 0.950 . S
C1188 C1187 1.398 . S
C1188 C1189 1.391 . S
C1189 H1177 0.950 . S
C1189 C1185 1.393 . S
C1189 C1188 1.391 . S
C1190 H1180 0.950 . S
C1190 C1191 1.386 . S
C1190 C1192 1.391 . S
C1191 C1190 1.386 . S
C1191 C1195 1.364 1_545 S
C1192 H1181 0.950 . S
C1192 C1190 1.391 . S
C1192 C1193 1.400 . S
C1193 C1187 1.491 . S
C1193 C1192 1.400 . S
C1193 C1194 1.398 1_545 S
C1194 H1182 0.950 . S
C1194 C1193 1.398 1_565 S
C1194 C1195 1.404 . S
C1195 H1183 0.967 . S
C1195 C1191 1.364 1_565 S
C1195 C1194 1.404 . S
H1196 C1204 0.950 . S
H1197 C1209 0.950 . S
H1198 C1206 0.950 . S
H1199 C1208 0.950 . S
H1200 C1210 0.950 . S
H1201 C1212 0.950 . S
H1202 C1214 0.950 . S
H1203 C1215 0.950 . S
C1204 H1196 0.950 . S
C1204 C1205 1.386 . S
C1204 C1206 1.391 . S
C1205 C1204 1.386 . S
C1205 C1209 1.393 . S
C1206 H1198 0.950 . S
C1206 C1204 1.391 . S
C1206 C1207 1.400 . S
C1207 C1206 1.400 . S
C1207 C1208 1.398 . S
C1207 C1213 1.491 . S
C1208 H1199 0.950 . S
C1208 C1207 1.398 . S
C1208 C1209 1.391 . S
C1209 H1197 0.950 . S
C1209 C1205 1.393 . S
C1209 C1208 1.391 . S
C1210 H1200 0.950 . S
C1210 C1211 1.386 . S
C1210 C1212 1.391 . S
C1211 C1210 1.386 . S
C1211 C1215 1.393 . S
C1212 H1201 0.950 . S
C1212 C1210 1.391 . S
C1212 C1213 1.400 . S
C1213 C1207 1.491 . S
C1213 C1212 1.400 . S
C1213 C1214 1.398 . S
C1214 H1202 0.950 . S
C1214 C1213 1.398 . S
C1214 C1215 1.391 . S
C1215 H1203 0.950 . S
C1215 C1211 1.393 . S
C1215 C1214 1.391 . S
H1216 C1224 0.950 . S
H1217 C1229 0.950 . S
H1218 C1226 0.950 . S
H1219 C1228 0.950 . S
H1220 C1230 0.950 . S
H1221 C1232 0.950 . S
H1222 C1234 0.950 . S
H1223 C1235 0.950 . S
C1224 H1216 0.950 . S
C1224 C1225 1.386 . S
C1224 C1226 1.391 . S
C1225 C1224 1.386 . S
C1225 C1229 1.393 1_545 S
C1226 H1218 0.950 . S
C1226 C1224 1.391 . S
C1226 C1227 1.400 . S
C1227 C1226 1.400 . S
C1227 C1228 1.398 1_545 S
C1227 C1233 1.491 . S
C1228 H1219 0.950 . S
C1228 C1227 1.398 1_565 S
C1228 C1229 1.391 . S
C1229 H1217 0.950 . S
C1229 C1225 1.393 1_565 S
C1229 C1228 1.391 . S
C1230 H1220 0.950 . S
C1230 C1231 1.386 1_565 S
C1230 C1232 1.391 1_455 S
C1231 C1230 1.386 1_545 S
C1231 C1235 1.393 . S
C1232 H1221 0.950 . S
C1232 C1230 1.391 1_655 S
C1232 C1233 1.400 1_565 S
C1233 C1227 1.491 . S
C1233 C1232 1.400 1_545 S
C1233 C1234 1.398 1_655 S
C1234 H1222 0.950 . S
C1234 C1233 1.398 1_455 S
C1234 C1235 1.391 . S
C1235 H1223 0.950 . S
C1235 C1231 1.393 . S
C1235 C1234 1.391 . S
H1236 C1244 0.950 . S
H1237 C1249 0.950 . S
H1238 C1246 0.950 . S
H1239 C1248 0.950 . S
H1240 C1250 0.950 . S
H1241 C1252 0.950 . S
H1242 C1254 0.950 . S
H1243 C1255 0.950 . S
C1244 H1236 0.950 . S
C1244 C1245 1.386 . S
C1244 C1246 1.391 . S
C1245 C1244 1.386 . S
C1245 C1249 1.393 . S
C1246 H1238 0.950 . S
C1246 C1244 1.391 . S
C1246 C1247 1.400 . S
C1247 C1246 1.400 . S
C1247 C1248 1.398 . S
C1247 C1253 1.491 . S
C1248 H1239 0.950 . S
C1248 C1247 1.398 . S
C1248 C1249 1.391 . S
C1249 H1237 0.950 . S
C1249 C1245 1.393 . S
C1249 C1248 1.391 . S
C1250 H1240 0.950 . S
C1250 C1251 1.386 . S
C1250 C1252 1.391 . S
C1251 C1250 1.386 . S
C1251 C1255 1.393 . S
C1252 H1241 0.950 . S
C1252 C1250 1.391 . S
C1252 C1253 1.400 . S
C1253 C1247 1.491 . S
C1253 C1252 1.400 . S
C1253 C1254 1.398 . S
C1254 H1242 0.950 . S
C1254 C1253 1.398 . S
C1254 C1255 1.391 . S
C1255 H1243 0.950 . S
C1255 C1251 1.393 . S
C1255 C1254 1.391 . S
H1256 C1264 0.950 . S
H1257 C1269 0.950 . S
H1258 C1266 0.950 . S
H1259 C1268 0.950 . S
H1260 C1270 0.950 . S
H1261 C1272 0.950 . S
H1262 C1274 0.950 . S
H1263 C1275 0.938 1_554 S
C1264 H1256 0.950 . S
C1264 C1265 1.386 . S
C1264 C1266 1.391 . S
C1265 C1264 1.386 . S
C1265 C1269 1.393 . S
C1266 H1258 0.950 . S
C1266 C1264 1.391 . S
C1266 C1267 1.400 . S
C1267 C1266 1.400 . S
C1267 C1268 1.398 . S
C1267 C1273 1.491 . S
C1268 H1259 0.950 . S
C1268 C1267 1.398 . S
C1268 C1269 1.391 . S
C1269 H1257 0.950 . S
C1269 C1265 1.393 . S
C1269 C1268 1.391 . S
C1270 H1260 0.950 . S
C1270 C1271 1.386 . S
C1270 C1272 1.391 . S
C1271 C1270 1.386 . S
C1271 C1275 1.393 . S
C1272 H1261 0.950 . S
C1272 C1270 1.391 . S
C1272 C1273 1.400 . S
C1273 C1267 1.491 . S
C1273 C1272 1.400 . S
C1273 C1274 1.398 . S
C1274 H1262 0.950 . S
C1274 C1273 1.398 . S
C1274 C1275 1.391 . S
C1275 H1263 0.938 1_556 S
C1275 C1271 1.393 . S
C1275 C1274 1.391 . S
H1276 C1284 0.950 . S
H1277 C1289 0.950 . S
H1278 C1286 0.950 . S
H1279 C1288 0.950 . S
H1280 C1290 0.950 . S
H1281 C1292 0.950 . S
H1282 C1294 0.950 . S
H1283 C1295 0.950 . S
C1284 H1276 0.950 . S
C1284 C1285 1.386 . S
C1284 C1286 1.391 . S
C1285 C1284 1.386 . S
C1285 C1289 1.393 . S
C1286 H1278 0.950 . S
C1286 C1284 1.391 . S
C1286 C1287 1.400 . S
C1287 C1286 1.400 . S
C1287 C1288 1.398 . S
C1287 C1293 1.491 . S
C1288 H1279 0.950 . S
C1288 C1287 1.398 . S
C1288 C1289 1.391 . S
C1289 H1277 0.950 . S
C1289 C1285 1.393 . S
C1289 C1288 1.391 . S
C1290 H1280 0.950 . S
C1290 C1291 1.386 . S
C1290 C1292 1.391 . S
C1291 C1290 1.386 . S
C1291 C1295 1.393 . S
C1292 H1281 0.950 . S
C1292 C1290 1.391 . S
C1292 C1293 1.400 . S
C1293 C1287 1.491 . S
C1293 C1292 1.400 . S
C1293 C1294 1.398 . S
C1294 H1282 0.950 . S
C1294 C1293 1.398 . S
C1294 C1295 1.391 . S
C1295 H1283 0.950 . S
C1295 C1291 1.393 . S
C1295 C1294 1.391 . S
H1296 C1304 0.950 . S
H1297 C1309 0.950 1_556 S
H1298 C1306 0.950 . S
H1299 C1308 0.950 . S
H1300 C1310 0.950 . S
H1301 C1312 0.950 . S
H1302 C1314 0.950 . S
H1303 C1315 0.950 . S
C1304 H1296 0.950 . S
C1304 C1305 1.386 . S
C1304 C1306 1.391 . S
C1305 C1304 1.386 . S
C1305 C1309 1.393 . S
C1306 H1298 0.950 . S
C1306 C1304 1.391 . S
C1306 C1307 1.400 . S
C1307 C1306 1.400 . S
C1307 C1308 1.398 . S
C1307 C1313 1.491 . S
C1308 H1299 0.950 . S
C1308 C1307 1.398 . S
C1308 C1309 1.391 . S
C1309 H1297 0.950 1_554 S
C1309 C1305 1.393 . S
C1309 C1308 1.391 . S
C1310 H1300 0.950 . S
C1310 C1311 1.386 . S
C1310 C1312 1.391 . S
C1311 C1310 1.386 . S
C1311 C1315 1.393 . S
C1312 H1301 0.950 . S
C1312 C1310 1.391 . S
C1312 C1313 1.400 . S
C1313 C1307 1.491 . S
C1313 C1312 1.400 . S
C1313 C1314 1.398 . S
C1314 H1302 0.950 . S
C1314 C1313 1.398 . S
C1314 C1315 1.391 . S
C1315 H1303 0.950 . S
C1315 C1311 1.393 . S
C1315 C1314 1.391 . S
H1316 C1324 0.950 . S
H1317 C1329 0.950 1_556 S
H1318 C1326 0.950 . S
H1319 C1328 0.949 1_556 S
H1320 C1330 0.950 . S
H1321 C1332 0.964 . S
H1322 C1334 0.950 . S
H1323 C1335 0.950 . S
C1324 H1316 0.950 . S
C1324 C1325 1.386 . S
C1324 C1326 1.391 . S
C1325 C1324 1.386 . S
C1325 C1329 1.393 . S
C1326 H1318 0.950 . S
C1326 C1324 1.391 . S
C1326 C1327 1.400 . S
C1327 C1326 1.400 . S
C1327 C1328 1.398 . S
C1327 C1333 1.491 . S
C1328 H1319 0.949 1_554 S
C1328 C1327 1.398 . S
C1328 C1329 1.391 . S
C1329 H1317 0.950 1_554 S
C1329 C1325 1.393 . S
C1329 C1328 1.391 . S
C1330 H1320 0.950 . S
C1330 C1331 1.386 . S
C1330 C1332 1.391 . S
C1331 C1330 1.386 . S
C1331 C1335 1.393 . S
C1332 H1321 0.964 . S
C1332 C1330 1.391 . S
C1332 C1333 1.400 . S
C1333 C1327 1.491 . S
C1333 C1332 1.400 . S
C1333 C1334 1.398 . S
C1334 H1322 0.950 . S
C1334 C1333 1.398 . S
C1334 C1335 1.391 . S
C1335 H1323 0.950 . S
C1335 C1331 1.393 . S
C1335 C1334 1.391 . S
H1336 C1344 0.950 . S
H1337 C1349 0.950 . S
H1338 C1346 0.950 . S
H1339 C1348 0.950 . S
H1340 C1350 0.950 . S
H1341 C1352 0.950 . S
H1342 C1354 0.950 . S
H1343 C1355 0.950 . S
C1344 H1336 0.950 . S
C1344 C1345 1.386 . S
C1344 C1346 1.391 . S
C1345 C1344 1.386 . S
C1345 C1349 1.393 . S
C1346 H1338 0.950 . S
C1346 C1344 1.391 . S
C1346 C1347 1.400 . S
C1347 C1346 1.400 . S
C1347 C1348 1.398 . S
C1347 C1353 1.491 . S
C1348 H1339 0.950 . S
C1348 C1347 1.398 . S
C1348 C1349 1.391 . S
C1349 H1337 0.950 . S
C1349 C1345 1.393 . S
C1349 C1348 1.391 . S
C1350 H1340 0.950 . S
C1350 C1351 1.386 . S
C1350 C1352 1.391 . S
C1351 C1350 1.386 . S
C1351 C1355 1.393 . S
C1352 H1341 0.950 . S
C1352 C1350 1.391 . S
C1352 C1353 1.400 . S
C1353 C1347 1.491 . S
C1353 C1352 1.400 . S
C1353 C1354 1.398 . S
C1354 H1342 0.950 . S
C1354 C1353 1.398 . S
C1354 C1355 1.391 . S
C1355 H1343 0.950 . S
C1355 C1351 1.393 . S
C1355 C1354 1.391 . S
H1356 C1364 0.950 . S
H1357 C1369 0.950 . S
H1358 C1366 0.950 . S
H1359 C1368 0.950 . S
H1360 C1370 0.950 . S
H1361 C1372 0.950 . S
H1362 C1374 0.950 . S
H1363 C1375 0.950 . S
C1364 H1356 0.950 . S
C1364 C1365 1.386 . S
C1364 C1366 1.391 . S
C1365 C1364 1.386 . S
C1365 C1369 1.393 . S
C1366 H1358 0.950 . S
C1366 C1364 1.391 . S
C1366 C1367 1.400 . S
C1367 C1366 1.400 . S
C1367 C1368 1.398 . S
C1367 C1373 1.491 . S
C1368 H1359 0.950 . S
C1368 C1367 1.398 . S
C1368 C1369 1.391 . S
C1369 H1357 0.950 . S
C1369 C1365 1.393 . S
C1369 C1368 1.391 . S
C1370 H1360 0.950 . S
C1370 C1371 1.386 . S
C1370 C1372 1.391 . S
C1371 C1370 1.386 . S
C1371 C1375 1.393 . S
C1372 H1361 0.950 . S
C1372 C1370 1.391 . S
C1372 C1373 1.400 . S
C1373 C1367 1.491 . S
C1373 C1372 1.400 . S
C1373 C1374 1.398 . S
C1374 H1362 0.950 . S
C1374 C1373 1.398 . S
C1374 C1375 1.391 . S
C1375 H1363 0.950 . S
C1375 C1371 1.393 . S
C1375 C1374 1.391 . S
H1376 C1384 0.950 . S
H1377 C1389 0.950 . S
H1378 C1386 0.950 . S
H1379 C1388 0.950 . S
H1380 C1390 0.950 . S
H1381 C1392 0.950 . S
H1382 C1394 0.950 . S
H1383 C1395 0.950 . S
C1384 H1376 0.950 . S
C1384 C1385 1.386 . S
C1384 C1386 1.391 . S
C1385 C1384 1.386 . S
C1385 C1389 1.393 . S
C1386 H1378 0.950 . S
C1386 C1384 1.391 . S
C1386 C1387 1.400 . S
C1387 C1386 1.400 . S
C1387 C1388 1.398 . S
C1387 C1393 1.491 . S
C1388 H1379 0.950 . S
C1388 C1387 1.398 . S
C1388 C1389 1.391 . S
C1389 H1377 0.950 . S
C1389 C1385 1.393 . S
C1389 C1388 1.391 . S
C1390 H1380 0.950 . S
C1390 C1391 1.386 . S
C1390 C1392 1.391 . S
C1391 C1390 1.386 . S
C1391 C1395 1.393 . S
C1392 H1381 0.950 . S
C1392 C1390 1.391 . S
C1392 C1393 1.400 . S
C1393 C1387 1.491 . S
C1393 C1392 1.400 . S
C1393 C1394 1.398 . S
C1394 H1382 0.950 . S
C1394 C1393 1.398 . S
C1394 C1395 1.391 . S
C1395 H1383 0.950 . S
C1395 C1391 1.393 . S
C1395 C1394 1.391 . S
H1396 C1404 0.950 . S
H1397 C1409 0.950 . S
H1398 C1406 0.950 . S
H1399 C1408 0.950 . S
H1400 C1410 0.950 . S
H1401 C1412 0.950 . S
H1402 C1414 0.950 . S
H1403 C1415 0.950 . S
C1404 H1396 0.950 . S
C1404 C1405 1.386 . S
C1404 C1406 1.391 . S
C1405 C1404 1.386 . S
C1405 C1409 1.393 . S
C1406 H1398 0.950 . S
C1406 C1404 1.391 . S
C1406 C1407 1.400 . S
C1407 C1406 1.400 . S
C1407 C1408 1.398 . S
C1407 C1413 1.491 . S
C1408 H1399 0.950 . S
C1408 C1407 1.398 . S
C1408 C1409 1.391 . S
C1409 H1397 0.950 . S
C1409 C1405 1.393 . S
C1409 C1408 1.391 . S
C1410 H1400 0.950 . S
C1410 C1411 1.386 . S
C1410 C1412 1.391 . S
C1411 C1410 1.386 . S
C1411 C1415 1.393 . S
C1412 H1401 0.950 . S
C1412 C1410 1.391 . S
C1412 C1413 1.400 . S
C1413 C1407 1.491 . S
C1413 C1412 1.400 . S
C1413 C1414 1.398 . S
C1414 H1402 0.950 . S
C1414 C1413 1.398 . S
C1414 C1415 1.391 . S
C1415 H1403 0.950 . S
C1415 C1411 1.393 . S
C1415 C1414 1.391 . S
H1416 C1424 0.950 . S
H1417 C1429 0.950 . S
H1418 C1426 0.950 . S
H1419 C1428 0.950 . S
H1420 C1430 0.950 . S
H1421 C1432 0.950 . S
H1422 C1434 0.950 . S
H1423 C1435 0.950 . S
C1424 H1416 0.950 . S
C1424 C1425 1.386 . S
C1424 C1426 1.391 . S
C1425 C1424 1.386 . S
C1425 C1429 1.393 . S
C1426 H1418 0.950 . S
C1426 C1424 1.391 . S
C1426 C1427 1.400 . S
C1427 C1426 1.400 . S
C1427 C1428 1.398 . S
C1427 C1433 1.491 . S
C1428 H1419 0.950 . S
C1428 C1427 1.398 . S
C1428 C1429 1.391 . S
C1429 H1417 0.950 . S
C1429 C1425 1.393 . S
C1429 C1428 1.391 . S
C1430 H1420 0.950 . S
C1430 C1431 1.386 . S
C1430 C1432 1.391 . S
C1431 C1430 1.386 . S
C1431 C1435 1.393 . S
C1432 H1421 0.950 . S
C1432 C1430 1.391 . S
C1432 C1433 1.400 . S
C1433 C1427 1.491 . S
C1433 C1432 1.400 . S
C1433 C1434 1.398 . S
C1434 H1422 0.950 . S
C1434 C1433 1.398 . S
C1434 C1435 1.391 . S
C1435 H1423 0.950 . S
C1435 C1431 1.393 . S
C1435 C1434 1.391 . S
H1436 C1444 0.950 . S
H1437 C1449 0.950 . S
H1438 C1446 0.950 . S
H1439 C1448 0.950 . S
H1440 C1450 0.950 . S
H1441 C1452 0.950 . S
H1442 C1454 0.950 . S
H1443 C1455 0.950 . S
C1444 H1436 0.950 . S
C1444 C1445 1.386 . S
C1444 C1446 1.391 . S
C1445 C1444 1.386 . S
C1445 C1449 1.393 . S
C1446 H1438 0.950 . S
C1446 C1444 1.391 . S
C1446 C1447 1.400 . S
C1447 C1446 1.400 . S
C1447 C1448 1.398 . S
C1447 C1453 1.491 . S
C1448 H1439 0.950 . S
C1448 C1447 1.398 . S
C1448 C1449 1.391 . S
C1449 H1437 0.950 . S
C1449 C1445 1.393 . S
C1449 C1448 1.391 . S
C1450 H1440 0.950 . S
C1450 C1451 1.386 . S
C1450 C1452 1.391 . S
C1451 C1450 1.386 . S
C1451 C1455 1.393 . S
C1452 H1441 0.950 . S
C1452 C1450 1.391 . S
C1452 C1453 1.400 . S
C1453 C1447 1.491 . S
C1453 C1452 1.400 . S
C1453 C1454 1.398 . S
C1454 H1442 0.950 . S
C1454 C1453 1.398 . S
C1454 C1455 1.391 . S
C1455 H1443 0.950 . S
C1455 C1451 1.393 . S
C1455 C1454 1.391 . S
H1456 C1464 0.950 . S
H1457 C1469 0.950 . S
H1458 C1466 0.950 . S
H1459 C1468 0.950 . S
H1460 C1470 0.950 . S
H1461 C1472 0.950 . S
H1462 C1474 0.950 . S
H1463 C1475 0.950 . S
C1464 H1456 0.950 . S
C1464 C1465 1.386 . S
C1464 C1466 1.391 . S
C1465 C1464 1.386 . S
C1465 C1469 1.393 . S
C1466 H1458 0.950 . S
C1466 C1464 1.391 . S
C1466 C1467 1.400 . S
C1467 C1466 1.400 . S
C1467 C1468 1.398 . S
C1467 C1473 1.491 . S
C1468 H1459 0.950 . S
C1468 C1467 1.398 . S
C1468 C1469 1.391 . S
C1469 H1457 0.950 . S
C1469 C1465 1.393 . S
C1469 C1468 1.391 . S
C1470 H1460 0.950 . S
C1470 C1471 1.386 . S
C1470 C1472 1.391 . S
C1471 C1470 1.386 . S
C1471 C1475 1.393 . S
C1472 H1461 0.950 . S
C1472 C1470 1.391 . S
C1472 C1473 1.400 . S
C1473 C1467 1.491 . S
C1473 C1472 1.400 . S
C1473 C1474 1.398 . S
C1474 H1462 0.950 . S
C1474 C1473 1.398 . S
C1474 C1475 1.391 . S
C1475 H1463 0.950 . S
C1475 C1471 1.393 . S
C1475 C1474 1.391 . S
H1476 C1484 0.950 . S
H1477 C1489 0.950 . S
H1478 C1486 0.950 . S
H1479 C1488 0.950 . S
H1480 C1490 0.950 . S
H1481 C1492 0.950 . S
H1482 C1494 0.950 . S
H1483 C1495 0.950 . S
C1484 H1476 0.950 . S
C1484 C1485 1.386 . S
C1484 C1486 1.391 . S
C1485 C1484 1.386 . S
C1485 C1489 1.393 . S
C1486 H1478 0.950 . S
C1486 C1484 1.391 . S
C1486 C1487 1.400 . S
C1487 C1486 1.400 . S
C1487 C1488 1.398 . S
C1487 C1493 1.491 . S
C1488 H1479 0.950 . S
C1488 C1487 1.398 . S
C1488 C1489 1.391 . S
C1489 H1477 0.950 . S
C1489 C1485 1.393 . S
C1489 C1488 1.391 . S
C1490 H1480 0.950 . S
C1490 C1491 1.386 . S
C1490 C1492 1.391 . S
C1491 C1490 1.386 . S
C1491 C1495 1.393 . S
C1492 H1481 0.950 . S
C1492 C1490 1.391 . S
C1492 C1493 1.400 . S
C1493 C1487 1.491 . S
C1493 C1492 1.400 . S
C1493 C1494 1.398 . S
C1494 H1482 0.950 . S
C1494 C1493 1.398 . S
C1494 C1495 1.391 . S
C1495 H1483 0.950 . S
C1495 C1491 1.393 . S
C1495 C1494 1.391 . S
H1496 C1504 0.950 . S
H1497 C1509 0.950 . S
H1498 C1506 0.950 . S
H1499 C1508 0.950 . S
H1500 C1510 0.950 . S
H1501 C1512 0.950 . S
H1502 C1514 0.950 . S
H1503 C1515 0.950 . S
C1504 H1496 0.950 . S
C1504 C1505 1.386 . S
C1504 C1506 1.391 . S
C1505 C1504 1.386 . S
C1505 C1509 1.393 . S
C1506 H1498 0.950 . S
C1506 C1504 1.391 . S
C1506 C1507 1.400 . S
C1507 C1506 1.400 . S
C1507 C1508 1.398 . S
C1507 C1513 1.491 . S
C1508 H1499 0.950 . S
C1508 C1507 1.398 . S
C1508 C1509 1.391 . S
C1509 H1497 0.950 . S
C1509 C1505 1.393 . S
C1509 C1508 1.391 . S
C1510 H1500 0.950 . S
C1510 C1511 1.386 . S
C1510 C1512 1.391 . S
C1511 C1510 1.386 . S
C1511 C1515 1.393 . S
C1512 H1501 0.950 . S
C1512 C1510 1.391 . S
C1512 C1513 1.400 . S
C1513 C1507 1.491 . S
C1513 C1512 1.400 . S
C1513 C1514 1.398 . S
C1514 H1502 0.950 . S
C1514 C1513 1.398 . S
C1514 C1515 1.391 . S
C1515 H1503 0.950 . S
C1515 C1511 1.393 . S
C1515 C1514 1.391 . S
H1516 C1524 0.950 . S
H1517 C1529 0.950 . S
H1518 C1526 0.950 . S
H1519 C1528 0.950 . S
H1520 C1530 0.950 . S
H1521 C1532 0.950 . S
H1522 C1534 0.950 . S
H1523 C1535 0.950 . S
C1524 H1516 0.950 . S
C1524 C1525 1.386 . S
C1524 C1526 1.391 . S
C1525 C1524 1.386 . S
C1525 C1529 1.393 . S
C1526 H1518 0.950 . S
C1526 C1524 1.391 . S
C1526 C1527 1.400 . S
C1527 C1526 1.400 . S
C1527 C1528 1.398 . S
C1527 C1533 1.491 . S
C1528 H1519 0.950 . S
C1528 C1527 1.398 . S
C1528 C1529 1.391 . S
C1529 H1517 0.950 . S
C1529 C1525 1.393 . S
C1529 C1528 1.391 . S
C1530 H1520 0.950 . S
C1530 C1531 1.386 . S
C1530 C1532 1.391 . S
C1531 C1530 1.386 . S
C1531 C1535 1.393 . S
C1532 H1521 0.950 . S
C1532 C1530 1.391 . S
C1532 C1533 1.400 . S
C1533 C1527 1.491 . S
C1533 C1532 1.400 . S
C1533 C1534 1.398 . S
C1534 H1522 0.950 . S
C1534 C1533 1.398 . S
C1534 C1535 1.391 . S
C1535 H1523 0.950 . S
C1535 C1531 1.393 . S
C1535 C1534 1.391 . S
H1536 C1544 0.950 . S
H1537 C1549 0.950 . S
H1538 C1546 0.950 . S
H1539 C1548 0.950 . S
H1540 C1550 0.950 . S
H1541 C1552 0.950 . S
H1542 C1554 0.950 . S
H1543 C1555 0.950 . S
C1544 H1536 0.950 . S
C1544 C1545 1.393 . S
C1544 C1546 1.391 . S
C1545 C1544 1.393 . S
C1545 C1549 1.384 1_655 S
C1546 H1538 0.950 . S
C1546 C1544 1.391 . S
C1546 C1547 1.396 1_655 S
C1547 C1546 1.396 1_455 S
C1547 C1548 1.401 . S
C1547 C1553 1.492 . S
C1548 H1539 0.950 . S
C1548 C1547 1.401 . S
C1548 C1549 1.391 . S
C1549 H1537 0.950 . S
C1549 C1545 1.384 1_455 S
C1549 C1548 1.391 . S
C1550 H1540 0.950 . S
C1550 C1551 1.386 . S
C1550 C1552 1.391 . S
C1551 C1550 1.386 . S
C1551 C1555 1.393 1_455 S
C1552 H1541 0.950 . S
C1552 C1550 1.391 . S
C1552 C1553 1.400 . S
C1553 C1547 1.492 . S
C1553 C1552 1.400 . S
C1553 C1554 1.398 1_455 S
C1554 H1542 0.950 . S
C1554 C1553 1.398 1_655 S
C1554 C1555 1.391 . S
C1555 H1543 0.950 . S
C1555 C1551 1.393 1_655 S
C1555 C1554 1.391 . S
H1556 C1564 0.950 . S
H1557 C1569 0.950 . S
H1558 C1566 0.950 . S
H1559 C1568 0.950 . S
H1560 C1570 0.950 . S
H1561 C1572 0.950 . S
H1562 C1574 0.950 . S
H1563 C1575 0.950 . S
C1564 H1556 0.950 . S
C1564 C1565 1.386 . S
C1564 C1566 1.391 . S
C1565 C1564 1.386 . S
C1565 C1569 1.393 . S
C1566 H1558 0.950 . S
C1566 C1564 1.391 . S
C1566 C1567 1.400 . S
C1567 C1566 1.400 . S
C1567 C1568 1.398 . S
C1567 C1573 1.491 . S
C1568 H1559 0.950 . S
C1568 C1567 1.398 . S
C1568 C1569 1.391 . S
C1569 H1557 0.950 . S
C1569 C1565 1.393 . S
C1569 C1568 1.391 . S
C1570 H1560 0.950 . S
C1570 C1571 1.386 . S
C1570 C1572 1.391 . S
C1571 C1570 1.386 . S
C1571 C1575 1.393 . S
C1572 H1561 0.950 . S
C1572 C1570 1.391 . S
C1572 C1573 1.400 . S
C1573 C1567 1.491 . S
C1573 C1572 1.400 . S
C1573 C1574 1.398 . S
C1574 H1562 0.950 . S
C1574 C1573 1.398 . S
C1574 C1575 1.391 . S
C1575 H1563 0.950 . S
C1575 C1571 1.393 . S
C1575 C1574 1.391 . S
H1576 C1584 0.950 . S
H1577 C1589 0.950 . S
H1578 C1586 0.950 . S
H1579 C1588 0.950 . S
H1580 C1590 0.950 . S
H1581 C1592 0.950 . S
H1582 C1594 0.950 . S
H1583 C1595 0.950 . S
C1584 H1576 0.950 . S
C1584 C1585 1.386 . S
C1584 C1586 1.391 . S
C1585 C1584 1.386 . S
C1585 C1589 1.393 . S
C1586 H1578 0.950 . S
C1586 C1584 1.391 . S
C1586 C1587 1.400 . S
C1587 C1586 1.400 . S
C1587 C1588 1.398 . S
C1587 C1593 1.491 . S
C1588 H1579 0.950 . S
C1588 C1587 1.398 . S
C1588 C1589 1.391 . S
C1589 H1577 0.950 . S
C1589 C1585 1.393 . S
C1589 C1588 1.391 . S
C1590 H1580 0.950 . S
C1590 C1591 1.386 . S
C1590 C1592 1.391 1_554 S
C1591 C1590 1.386 . S
C1591 C1595 1.393 . S
C1592 H1581 0.950 . S
C1592 C1590 1.391 1_556 S
C1592 C1593 1.400 . S
C1593 C1587 1.491 . S
C1593 C1592 1.400 . S
C1593 C1594 1.398 . S
C1594 H1582 0.950 . S
C1594 C1593 1.398 . S
C1594 C1595 1.391 1_556 S
C1595 H1583 0.950 . S
C1595 C1591 1.393 . S
C1595 C1594 1.391 1_554 S
H1596 C1604 0.947 1_455 S
H1597 C1609 0.950 . S
H1598 C1606 0.950 . S
H1599 C1608 0.950 . S
H1600 C1610 0.950 . S
H1601 C1612 0.950 . S
H1602 C1614 0.950 . S
H1603 C1615 0.950 . S
C1604 H1596 0.947 1_655 S
C1604 C1605 1.386 1_655 S
C1604 C1606 1.391 . S
C1605 C1604 1.386 1_455 S
C1605 C1609 1.393 . S
C1606 H1598 0.950 . S
C1606 C1604 1.391 . S
C1606 C1607 1.400 . S
C1607 C1606 1.400 . S
C1607 C1608 1.398 . S
C1607 C1613 1.491 . S
C1608 H1599 0.950 . S
C1608 C1607 1.398 . S
C1608 C1609 1.391 1_655 S
C1609 H1597 0.950 . S
C1609 C1605 1.393 . S
C1609 C1608 1.391 1_455 S
C1610 H1600 0.950 . S
C1610 C1611 1.386 . S
C1610 C1612 1.391 . S
C1611 C1610 1.386 . S
C1611 C1615 1.393 . S
C1612 H1601 0.950 . S
C1612 C1610 1.391 . S
C1612 C1613 1.400 . S
C1613 C1607 1.491 . S
C1613 C1612 1.400 . S
C1613 C1614 1.398 . S
C1614 H1602 0.950 . S
C1614 C1613 1.398 . S
C1614 C1615 1.391 . S
C1615 H1603 0.950 . S
C1615 C1611 1.393 . S
C1615 C1614 1.391 . S
H1616 C1624 0.950 . S
H1617 C1629 0.950 . S
H1618 C1626 0.950 1_565 S
H1619 C1628 0.950 . S
H1620 C1630 0.950 . S
H1621 C1632 0.950 . S
H1622 C1634 0.950 1_565 S
H1623 C1635 0.950 1_565 S
C1624 H1616 0.950 . S
C1624 C1625 1.386 . S
C1624 C1626 1.391 . S
C1625 C1624 1.386 . S
C1625 C1629 1.393 . S
C1626 H1618 0.950 1_545 S
C1626 C1624 1.391 . S
C1626 C1627 1.400 . S
C1627 C1626 1.400 . S
C1627 C1628 1.398 . S
C1627 C1633 1.491 . S
C1628 H1619 0.950 . S
C1628 C1627 1.398 . S
C1628 C1629 1.391 . S
C1629 H1617 0.950 . S
C1629 C1625 1.393 . S
C1629 C1628 1.391 . S
C1630 H1620 0.950 . S
C1630 C1631 1.386 . S
C1630 C1632 1.391 . S
C1631 C1630 1.386 . S
C1631 C1635 1.393 . S
C1632 H1621 0.950 . S
C1632 C1630 1.391 . S
C1632 C1633 1.400 . S
C1633 C1627 1.491 . S
C1633 C1632 1.400 . S
C1633 C1634 1.398 . S
C1634 H1622 0.950 1_545 S
C1634 C1633 1.398 . S
C1634 C1635 1.391 . S
C1635 H1623 0.950 1_545 S
C1635 C1631 1.393 . S
C1635 C1634 1.391 . S
H1636 C1644 0.950 . S
H1637 C1649 0.950 . S
H1638 C1646 0.950 . S
H1639 C1648 0.950 . S
H1640 C1650 0.950 . S
H1641 C1652 0.950 . S
H1642 C1654 0.950 . S
H1643 C1655 0.950 . S
C1644 H1636 0.950 . S
C1644 C1645 1.386 . S
C1644 C1646 1.391 . S
C1645 C1644 1.386 . S
C1645 C1649 1.393 . S
C1646 H1638 0.950 . S
C1646 C1644 1.391 . S
C1646 C1647 1.400 . S
C1647 C1646 1.400 . S
C1647 C1648 1.398 . S
C1647 C1653 1.491 . S
C1648 H1639 0.950 . S
C1648 C1647 1.398 . S
C1648 C1649 1.391 . S
C1649 H1637 0.950 . S
C1649 C1645 1.393 . S
C1649 C1648 1.391 . S
C1650 H1640 0.950 . S
C1650 C1651 1.386 . S
C1650 C1652 1.391 . S
C1651 C1650 1.386 . S
C1651 C1655 1.393 . S
C1652 H1641 0.950 . S
C1652 C1650 1.391 . S
C1652 C1653 1.400 . S
C1653 C1647 1.491 . S
C1653 C1652 1.400 . S
C1653 C1654 1.398 . S
C1654 H1642 0.950 . S
C1654 C1653 1.398 . S
C1654 C1655 1.391 . S
C1655 H1643 0.950 . S
C1655 C1651 1.393 . S
C1655 C1654 1.391 . S
H1656 C1664 0.950 . S
H1657 C1669 0.950 . S
H1658 C1666 0.950 . S
H1659 C1668 0.950 . S
H1660 C1670 0.950 . S
H1661 C1672 0.950 . S
H1662 C1674 0.950 . S
H1663 C1675 0.950 . S
C1664 H1656 0.950 . S
C1664 C1665 1.386 . S
C1664 C1666 1.391 . S
C1665 C1664 1.386 . S
C1665 C1669 1.393 . S
C1666 H1658 0.950 . S
C1666 C1664 1.391 . S
C1666 C1667 1.400 . S
C1667 C1666 1.400 . S
C1667 C1668 1.398 . S
C1667 C1673 1.491 . S
C1668 H1659 0.950 . S
C1668 C1667 1.398 . S
C1668 C1669 1.391 . S
C1669 H1657 0.950 . S
C1669 C1665 1.393 . S
C1669 C1668 1.391 . S
C1670 H1660 0.950 . S
C1670 C1671 1.386 . S
C1670 C1672 1.391 . S
C1671 C1670 1.386 . S
C1671 C1675 1.393 . S
C1672 H1661 0.950 . S
C1672 C1670 1.391 . S
C1672 C1673 1.400 . S
C1673 C1667 1.491 . S
C1673 C1672 1.400 . S
C1673 C1674 1.398 . S
C1674 H1662 0.950 . S
C1674 C1673 1.398 . S
C1674 C1675 1.391 . S
C1675 H1663 0.950 . S
C1675 C1671 1.393 . S
C1675 C1674 1.391 . S
H1676 C1684 0.950 . S
H1677 C1689 0.950 . S
H1678 C1686 0.950 . S
H1679 C1688 0.950 . S
H1680 C1690 0.950 . S
H1681 C1692 0.950 . S
H1682 C1694 0.950 . S
H1683 C1695 0.950 . S
C1684 H1676 0.950 . S
C1684 C1685 1.386 . S
C1684 C1686 1.391 . S
C1685 C1684 1.386 . S
C1685 C1689 1.393 . S
C1686 H1678 0.950 . S
C1686 C1684 1.391 . S
C1686 C1687 1.400 . S
C1687 C1686 1.400 . S
C1687 C1688 1.398 . S
C1687 C1693 1.491 . S
C1688 H1679 0.950 . S
C1688 C1687 1.398 . S
C1688 C1689 1.391 . S
C1689 H1677 0.950 . S
C1689 C1685 1.393 . S
C1689 C1688 1.391 . S
C1690 H1680 0.950 . S
C1690 C1691 1.386 . S
C1690 C1692 1.391 . S
C1691 C1690 1.386 . S
C1691 C1695 1.393 . S
C1692 H1681 0.950 . S
C1692 C1690 1.391 . S
C1692 C1693 1.400 . S
C1693 C1687 1.491 . S
C1693 C1692 1.400 . S
C1693 C1694 1.398 . S
C1694 H1682 0.950 . S
C1694 C1693 1.398 . S
C1694 C1695 1.391 . S
C1695 H1683 0.950 . S
C1695 C1691 1.393 . S
C1695 C1694 1.391 . S
H1696 C1704 0.950 1_565 S
H1697 C1709 0.950 . S
H1698 C1706 0.950 1_565 S
H1699 C1708 0.950 . S
H1700 C1710 0.950 . S
H1701 C1712 0.950 . S
H1702 C1714 0.950 1_565 S
H1703 C1715 0.913 1_565 S
C1704 H1696 0.950 1_545 S
C1704 C1705 1.386 . S
C1704 C1706 1.391 . S
C1705 C1704 1.386 . S
C1705 C1709 1.393 . S
C1706 H1698 0.950 1_545 S
C1706 C1704 1.391 . S
C1706 C1707 1.400 . S
C1707 C1706 1.400 . S
C1707 C1708 1.398 . S
C1707 C1713 1.491 . S
C1708 H1699 0.950 . S
C1708 C1707 1.398 . S
C1708 C1709 1.391 . S
C1709 H1697 0.950 . S
C1709 C1705 1.393 . S
C1709 C1708 1.391 . S
C1710 H1700 0.950 . S
C1710 C1711 1.386 . S
C1710 C1712 1.391 . S
C1711 C1710 1.386 . S
C1711 C1715 1.437 . S
C1712 H1701 0.950 . S
C1712 C1710 1.391 . S
C1712 C1713 1.400 . S
C1713 C1707 1.491 . S
C1713 C1712 1.400 . S
C1713 C1714 1.398 . S
C1714 H1702 0.950 1_545 S
C1714 C1713 1.398 . S
C1714 C1715 1.385 . S
C1715 H1703 0.913 1_545 S
C1715 C1711 1.437 . S
C1715 C1714 1.385 . S
H1716 C1724 0.950 . S
H1717 C1729 0.950 . S
H1718 C1726 0.950 . S
H1719 C1728 0.950 . S
H1720 C1730 0.950 . S
H1721 C1732 0.950 . S
H1722 C1734 0.950 . S
H1723 C1735 0.950 . S
C1724 H1716 0.950 . S
C1724 C1725 1.386 . S
C1724 C1726 1.391 . S
C1725 C1724 1.386 . S
C1725 C1729 1.393 . S
C1726 H1718 0.950 . S
C1726 C1724 1.391 . S
C1726 C1727 1.400 . S
C1727 C1726 1.400 . S
C1727 C1728 1.398 . S
C1727 C1733 1.491 . S
C1728 H1719 0.950 . S
C1728 C1727 1.398 . S
C1728 C1729 1.391 . S
C1729 H1717 0.950 . S
C1729 C1725 1.393 . S
C1729 C1728 1.391 . S
C1730 H1720 0.950 . S
C1730 C1731 1.386 . S
C1730 C1732 1.391 . S
C1731 C1730 1.386 . S
C1731 C1735 1.393 . S
C1732 H1721 0.950 . S
C1732 C1730 1.391 . S
C1732 C1733 1.400 . S
C1733 C1727 1.491 . S
C1733 C1732 1.400 . S
C1733 C1734 1.398 . S
C1734 H1722 0.950 . S
C1734 C1733 1.398 . S
C1734 C1735 1.391 . S
C1735 H1723 0.950 . S
C1735 C1731 1.393 . S
C1735 C1734 1.391 . S
H1736 C1744 0.950 . S
H1737 C1749 0.950 . S
H1738 C1746 0.950 . S
H1739 C1748 0.950 . S
H1740 C1750 0.950 . S
H1741 C1752 0.950 . S
H1742 C1754 0.950 . S
H1743 C1755 0.950 . S
C1744 H1736 0.950 . S
C1744 C1745 1.386 . S
C1744 C1746 1.391 . S
C1745 C1744 1.386 . S
C1745 C1749 1.393 1_545 S
C1746 H1738 0.950 . S
C1746 C1744 1.391 . S
C1746 C1747 1.400 . S
C1747 C1746 1.400 . S
C1747 C1748 1.398 1_545 S
C1747 C1753 1.491 . S
C1748 H1739 0.950 . S
C1748 C1747 1.398 1_565 S
C1748 C1749 1.391 . S
C1749 H1737 0.950 . S
C1749 C1745 1.393 1_565 S
C1749 C1748 1.391 . S
C1750 H1740 0.950 . S
C1750 C1751 1.386 1_565 S
C1750 C1752 1.391 . S
C1751 C1750 1.386 1_545 S
C1751 C1755 1.393 . S
C1752 H1741 0.950 . S
C1752 C1750 1.391 . S
C1752 C1753 1.400 1_565 S
C1753 C1747 1.491 . S
C1753 C1752 1.400 1_545 S
C1753 C1754 1.398 . S
C1754 H1742 0.950 . S
C1754 C1753 1.398 . S
C1754 C1755 1.391 . S
C1755 H1743 0.950 . S
C1755 C1751 1.393 . S
C1755 C1754 1.391 . S
H1756 C1764 0.950 . S
H1757 C1769 0.950 . S
H1758 C1766 0.950 . S
H1759 C1768 0.950 . S
H1760 C1770 0.950 . S
H1761 C1772 0.950 . S
H1762 C1774 0.950 . S
H1763 C1775 0.950 . S
C1764 H1756 0.950 . S
C1764 C1765 1.386 . S
C1764 C1766 1.391 . S
C1765 C1764 1.386 . S
C1765 C1769 1.393 . S
C1766 H1758 0.950 . S
C1766 C1764 1.391 . S
C1766 C1767 1.400 . S
C1767 C1766 1.400 . S
C1767 C1768 1.398 . S
C1767 C1773 1.491 . S
C1768 H1759 0.950 . S
C1768 C1767 1.398 . S
C1768 C1769 1.391 . S
C1769 H1757 0.950 . S
C1769 C1765 1.393 . S
C1769 C1768 1.391 . S
C1770 H1760 0.950 . S
C1770 C1771 1.386 . S
C1770 C1772 1.391 . S
C1771 C1770 1.386 . S
C1771 C1775 1.393 . S
C1772 H1761 0.950 . S
C1772 C1770 1.391 . S
C1772 C1773 1.400 . S
C1773 C1767 1.491 . S
C1773 C1772 1.400 . S
C1773 C1774 1.398 . S
C1774 H1762 0.950 . S
C1774 C1773 1.398 . S
C1774 C1775 1.391 . S
C1775 H1763 0.950 . S
C1775 C1771 1.393 . S
C1775 C1774 1.391 . S
H1776 C1784 0.950 . S
H1777 C1789 0.950 . S
H1778 C1786 0.950 . S
H1779 C1788 0.950 . S
H1780 C1790 0.950 . S
H1781 C1792 0.950 . S
H1782 C1794 0.950 . S
H1783 C1795 0.950 1_556 S
C1784 H1776 0.950 . S
C1784 C1785 1.386 . S
C1784 C1786 1.391 . S
C1785 C1784 1.386 . S
C1785 C1789 1.393 . S
C1786 H1778 0.950 . S
C1786 C1784 1.391 . S
C1786 C1787 1.400 . S
C1787 C1786 1.400 . S
C1787 C1788 1.398 . S
C1787 C1793 1.491 . S
C1788 H1779 0.950 . S
C1788 C1787 1.398 . S
C1788 C1789 1.391 . S
C1789 H1777 0.950 . S
C1789 C1785 1.393 . S
C1789 C1788 1.391 . S
C1790 H1780 0.950 . S
C1790 C1791 1.386 . S
C1790 C1792 1.391 . S
C1791 C1790 1.386 . S
C1791 C1795 1.393 . S
C1792 H1781 0.950 . S
C1792 C1790 1.391 . S
C1792 C1793 1.400 . S
C1793 C1787 1.491 . S
C1793 C1792 1.400 . S
C1793 C1794 1.398 . S
C1794 H1782 0.950 . S
C1794 C1793 1.398 . S
C1794 C1795 1.391 . S
C1795 H1783 0.950 1_554 S
C1795 C1791 1.393 . S
C1795 C1794 1.391 . S
H1796 C1804 0.950 . S
H1797 C1809 0.950 . S
H1798 C1806 0.950 . S
H1799 C1808 0.950 . S
H1800 C1810 0.950 . S
H1801 C1812 0.950 . S
H1802 C1814 0.950 . S
H1803 C1815 0.950 . S
C1804 H1796 0.950 . S
C1804 C1805 1.386 . S
C1804 C1806 1.391 . S
C1805 C1804 1.386 . S
C1805 C1809 1.393 . S
C1806 H1798 0.950 . S
C1806 C1804 1.391 . S
C1806 C1807 1.400 . S
C1807 C1806 1.400 . S
C1807 C1808 1.398 . S
C1807 C1813 1.491 . S
C1808 H1799 0.950 . S
C1808 C1807 1.398 . S
C1808 C1809 1.391 . S
C1809 H1797 0.950 . S
C1809 C1805 1.393 . S
C1809 C1808 1.391 . S
C1810 H1800 0.950 . S
C1810 C1811 1.386 . S
C1810 C1812 1.391 . S
C1811 C1810 1.386 . S
C1811 C1815 1.393 . S
C1812 H1801 0.950 . S
C1812 C1810 1.391 . S
C1812 C1813 1.400 . S
C1813 C1807 1.491 . S
C1813 C1812 1.400 . S
C1813 C1814 1.398 . S
C1814 H1802 0.950 . S
C1814 C1813 1.398 . S
C1814 C1815 1.391 . S
C1815 H1803 0.950 . S
C1815 C1811 1.393 . S
C1815 C1814 1.391 . S
H1816 C1824 0.950 . S
H1817 C1829 0.950 . S
H1818 C1826 0.950 . S
H1819 C1828 0.950 . S
H1820 C1830 0.950 . S
H1821 C1832 0.950 . S
H1822 C1834 0.950 . S
H1823 C1835 0.950 . S
C1824 H1816 0.950 . S
C1824 C1825 1.386 . S
C1824 C1826 1.391 . S
C1825 C1824 1.386 . S
C1825 C1829 1.393 . S
C1826 H1818 0.950 . S
C1826 C1824 1.391 . S
C1826 C1827 1.400 . S
C1827 C1826 1.400 . S
C1827 C1828 1.398 . S
C1827 C1833 1.491 . S
C1828 H1819 0.950 . S
C1828 C1827 1.398 . S
C1828 C1829 1.391 . S
C1829 H1817 0.950 . S
C1829 C1825 1.393 . S
C1829 C1828 1.391 . S
C1830 H1820 0.950 . S
C1830 C1831 1.386 . S
C1830 C1832 1.391 . S
C1831 C1830 1.386 . S
C1831 C1835 1.393 . S
C1832 H1821 0.950 . S
C1832 C1830 1.391 . S
C1832 C1833 1.400 . S
C1833 C1827 1.491 . S
C1833 C1832 1.400 . S
C1833 C1834 1.398 . S
C1834 H1822 0.950 . S
C1834 C1833 1.398 . S
C1834 C1835 1.391 . S
C1835 H1823 0.950 . S
C1835 C1831 1.393 . S
C1835 C1834 1.391 . S
H1836 C1844 0.950 . S
H1837 C1849 0.950 . S
H1838 C1846 0.950 . S
H1839 C1848 0.950 . S
H1840 C1850 0.950 . S
H1841 C1852 0.950 . S
H1842 C1854 0.950 . S
H1843 C1855 0.950 . S
C1844 H1836 0.950 . S
C1844 C1845 1.386 . S
C1844 C1846 1.391 . S
C1845 C1844 1.386 . S
C1845 C1849 1.393 . S
C1846 H1838 0.950 . S
C1846 C1844 1.391 . S
C1846 C1847 1.400 . S
C1847 C1846 1.400 . S
C1847 C1848 1.398 . S
C1847 C1853 1.491 . S
C1848 H1839 0.950 . S
C1848 C1847 1.398 . S
C1848 C1849 1.391 . S
C1849 H1837 0.950 . S
C1849 C1845 1.393 . S
C1849 C1848 1.391 . S
C1850 H1840 0.950 . S
C1850 C1851 1.386 . S
C1850 C1852 1.391 . S
C1851 C1850 1.386 . S
C1851 C1855 1.393 . S
C1852 H1841 0.950 . S
C1852 C1850 1.391 . S
C1852 C1853 1.400 . S
C1853 C1847 1.491 . S
C1853 C1852 1.400 . S
C1853 C1854 1.398 . S
C1854 H1842 0.950 . S
C1854 C1853 1.398 . S
C1854 C1855 1.391 . S
C1855 H1843 0.950 . S
C1855 C1851 1.393 . S
C1855 C1854 1.391 . S
H1856 C1864 0.950 . S
H1857 C1869 0.950 . S
H1858 C1866 0.950 . S
H1859 C1868 0.950 . S
H1860 C1870 0.950 . S
H1861 C1872 0.950 . S
H1862 C1874 0.950 . S
H1863 C1875 0.950 . S
C1864 H1856 0.950 . S
C1864 C1865 1.386 . S
C1864 C1866 1.391 . S
C1865 C1864 1.386 . S
C1865 C1869 1.393 . S
C1866 H1858 0.950 . S
C1866 C1864 1.391 . S
C1866 C1867 1.400 . S
C1867 C1866 1.400 . S
C1867 C1868 1.398 . S
C1867 C1873 1.491 . S
C1868 H1859 0.950 . S
C1868 C1867 1.398 . S
C1868 C1869 1.391 . S
C1869 H1857 0.950 . S
C1869 C1865 1.393 . S
C1869 C1868 1.391 . S
C1870 H1860 0.950 . S
C1870 C1871 1.386 . S
C1870 C1872 1.391 . S
C1871 C1870 1.386 . S
C1871 C1875 1.393 . S
C1872 H1861 0.950 . S
C1872 C1870 1.391 . S
C1872 C1873 1.400 . S
C1873 C1867 1.491 . S
C1873 C1872 1.400 . S
C1873 C1874 1.398 . S
C1874 H1862 0.950 . S
C1874 C1873 1.398 . S
C1874 C1875 1.391 . S
C1875 H1863 0.950 . S
C1875 C1871 1.393 . S
C1875 C1874 1.391 . S
H1876 C1884 0.950 . S
H1877 C1889 0.950 . S
H1878 C1886 0.950 . S
H1879 C1888 0.950 . S
H1880 C1890 0.950 . S
H1881 C1892 0.950 . S
H1882 C1894 0.950 . S
H1883 C1895 0.950 . S
C1884 H1876 0.950 . S
C1884 C1885 1.386 . S
C1884 C1886 1.391 . S
C1885 C1884 1.386 . S
C1885 C1889 1.393 . S
C1886 H1878 0.950 . S
C1886 C1884 1.391 . S
C1886 C1887 1.400 . S
C1887 C1886 1.400 . S
C1887 C1888 1.398 . S
C1887 C1893 1.491 . S
C1888 H1879 0.950 . S
C1888 C1887 1.398 . S
C1888 C1889 1.391 . S
C1889 H1877 0.950 . S
C1889 C1885 1.393 . S
C1889 C1888 1.391 . S
C1890 H1880 0.950 . S
C1890 C1891 1.386 . S
C1890 C1892 1.391 . S
C1891 C1890 1.386 . S
C1891 C1895 1.393 . S
C1892 H1881 0.950 . S
C1892 C1890 1.391 . S
C1892 C1893 1.400 . S
C1893 C1887 1.491 . S
C1893 C1892 1.400 . S
C1893 C1894 1.398 . S
C1894 H1882 0.950 . S
C1894 C1893 1.398 . S
C1894 C1895 1.391 . S
C1895 H1883 0.950 . S
C1895 C1891 1.393 . S
C1895 C1894 1.391 . S
H1896 C1904 0.950 . S
H1897 C1909 0.950 . S
H1898 C1906 0.950 . S
H1899 C1908 0.950 . S
H1900 C1910 0.950 . S
H1901 C1912 0.950 . S
H1902 C1914 0.950 . S
H1903 C1915 0.950 . S
C1904 H1896 0.950 . S
C1904 C1905 1.386 . S
C1904 C1906 1.391 . S
C1905 C1904 1.386 . S
C1905 C1909 1.393 . S
C1906 H1898 0.950 . S
C1906 C1904 1.391 . S
C1906 C1907 1.400 . S
C1907 C1906 1.400 . S
C1907 C1908 1.398 . S
C1907 C1913 1.491 . S
C1908 H1899 0.950 . S
C1908 C1907 1.398 . S
C1908 C1909 1.391 . S
C1909 H1897 0.950 . S
C1909 C1905 1.393 . S
C1909 C1908 1.391 . S
C1910 H1900 0.950 . S
C1910 C1911 1.386 . S
C1910 C1912 1.391 . S
C1911 C1910 1.386 . S
C1911 C1915 1.393 . S
C1912 H1901 0.950 . S
C1912 C1910 1.391 . S
C1912 C1913 1.400 . S
C1913 C1907 1.491 . S
C1913 C1912 1.400 . S
C1913 C1914 1.398 . S
C1914 H1902 0.950 . S
C1914 C1913 1.398 . S
C1914 C1915 1.391 . S
C1915 H1903 0.950 . S
C1915 C1911 1.393 . S
C1915 C1914 1.391 . S
H1916 C1924 0.950 . S
H1917 C1929 0.950 . S
H1918 C1926 0.950 . S
H1919 C1928 0.950 . S
H1920 C1930 0.950 . S
H1921 C1932 0.950 . S
H1922 C1934 0.950 . S
H1923 C1935 0.950 . S
C1924 H1916 0.950 . S
C1924 C1925 1.386 . S
C1924 C1926 1.391 . S
C1925 C1924 1.386 . S
C1925 C1929 1.393 . S
C1926 H1918 0.950 . S
C1926 C1924 1.391 . S
C1926 C1927 1.400 . S
C1927 C1926 1.400 . S
C1927 C1928 1.398 . S
C1927 C1933 1.491 . S
C1928 H1919 0.950 . S
C1928 C1927 1.398 . S
C1928 C1929 1.391 . S
C1929 H1917 0.950 . S
C1929 C1925 1.393 . S
C1929 C1928 1.391 . S
C1930 H1920 0.950 . S
C1930 C1931 1.386 . S
C1930 C1932 1.391 . S
C1931 C1930 1.386 . S
C1931 C1935 1.393 . S
C1932 H1921 0.950 . S
C1932 C1930 1.391 . S
C1932 C1933 1.400 . S
C1933 C1927 1.491 . S
C1933 C1932 1.400 . S
C1933 C1934 1.398 . S
C1934 H1922 0.950 . S
C1934 C1933 1.398 . S
C1934 C1935 1.391 . S
C1935 H1923 0.950 . S
C1935 C1931 1.393 . S
C1935 C1934 1.391 . S
H1936 C1944 0.950 . S
H1937 C1949 0.950 . S
H1938 C1946 0.950 . S
H1939 C1948 0.950 . S
H1940 C1950 0.950 . S
H1941 C1952 0.950 . S
H1942 C1954 0.950 . S
H1943 C1955 0.950 . S
C1944 H1936 0.950 . S
C1944 C1945 1.386 . S
C1944 C1946 1.391 . S
C1945 C1944 1.386 . S
C1945 C1949 1.393 . S
C1946 H1938 0.950 . S
C1946 C1944 1.391 . S
C1946 C1947 1.400 . S
C1947 C1946 1.400 . S
C1947 C1948 1.398 . S
C1947 C1953 1.491 . S
C1948 H1939 0.950 . S
C1948 C1947 1.398 . S
C1948 C1949 1.391 . S
C1949 H1937 0.950 . S
C1949 C1945 1.393 . S
C1949 C1948 1.391 . S
C1950 H1940 0.950 . S
C1950 C1951 1.386 . S
C1950 C1952 1.391 . S
C1951 C1950 1.386 . S
C1951 C1955 1.393 . S
C1952 H1941 0.950 . S
C1952 C1950 1.391 . S
C1952 C1953 1.400 . S
C1953 C1947 1.491 . S
C1953 C1952 1.400 . S
C1953 C1954 1.398 . S
C1954 H1942 0.950 . S
C1954 C1953 1.398 . S
C1954 C1955 1.391 . S
C1955 H1943 0.950 . S
C1955 C1951 1.393 . S
C1955 C1954 1.391 . S
H1956 C1964 0.950 . S
H1957 C1969 0.950 . S
H1958 C1966 0.950 . S
H1959 C1968 0.950 . S
H1960 C1970 0.950 . S
H1961 C1972 0.950 . S
H1962 C1974 0.950 . S
H1963 C1975 0.950 . S
C1964 H1956 0.950 . S
C1964 C1965 1.386 . S
C1964 C1966 1.391 . S
C1965 C1964 1.386 . S
C1965 C1969 1.393 . S
C1966 H1958 0.950 . S
C1966 C1964 1.391 . S
C1966 C1967 1.400 . S
C1967 C1966 1.400 . S
C1967 C1968 1.398 . S
C1967 C1973 1.491 . S
C1968 H1959 0.950 . S
C1968 C1967 1.398 . S
C1968 C1969 1.391 . S
C1969 H1957 0.950 . S
C1969 C1965 1.393 . S
C1969 C1968 1.391 . S
C1970 H1960 0.950 . S
C1970 C1971 1.386 . S
C1970 C1972 1.391 . S
C1971 C1970 1.386 . S
C1971 C1975 1.393 . S
C1972 H1961 0.950 . S
C1972 C1970 1.391 . S
C1972 C1973 1.400 . S
C1973 C1967 1.491 . S
C1973 C1972 1.400 . S
C1973 C1974 1.398 . S
C1974 H1962 0.950 . S
C1974 C1973 1.398 . S
C1974 C1975 1.391 . S
C1975 H1963 0.950 . S
C1975 C1971 1.393 . S
C1975 C1974 1.391 . S
H1976 C1984 0.950 . S
H1977 C1989 0.950 . S
H1978 C1986 0.950 . S
H1979 C1988 0.950 . S
H1980 C1990 0.950 . S
H1981 C1992 0.950 . S
H1982 C1994 0.950 . S
H1983 C1995 0.949 1_556 S
C1984 H1976 0.950 . S
C1984 C1985 1.386 . S
C1984 C1986 1.391 . S
C1985 C1984 1.386 . S
C1985 C1989 1.393 1_556 S
C1986 H1978 0.950 . S
C1986 C1984 1.391 . S
C1986 C1987 1.400 . S
C1987 C1986 1.400 . S
C1987 C1988 1.398 1_556 S
C1987 C1993 1.491 1_556 S
C1988 H1979 0.950 . S
C1988 C1987 1.398 1_554 S
C1988 C1989 1.391 . S
C1989 H1977 0.950 . S
C1989 C1985 1.393 1_554 S
C1989 C1988 1.391 . S
C1990 H1980 0.950 . S
C1990 C1991 1.386 . S
C1990 C1992 1.391 . S
C1991 C1990 1.386 . S
C1991 C1995 1.394 . S
C1992 H1981 0.950 . S
C1992 C1990 1.391 . S
C1992 C1993 1.400 . S
C1993 C1987 1.491 1_554 S
C1993 C1992 1.400 . S
C1993 C1994 1.398 1_554 S
C1994 H1982 0.950 . S
C1994 C1993 1.398 1_556 S
C1994 C1995 1.390 1_556 S
C1995 H1983 0.949 1_554 S
C1995 C1991 1.394 . S
C1995 C1994 1.390 1_554 S
H1996 C2004 0.950 . S
H1997 C2009 0.950 1_455 S
H1998 C2006 0.950 . S
H1999 C2008 0.950 . S
H2000 C2010 0.950 . S
H2001 C2012 0.950 . S
H2002 C2014 0.950 . S
H2003 C2015 0.950 . S
C2004 H1996 0.950 . S
C2004 C2005 1.386 . S
C2004 C2006 1.391 . S
C2005 C2004 1.386 . S
C2005 C2009 1.393 . S
C2006 H1998 0.950 . S
C2006 C2004 1.391 . S
C2006 C2007 1.400 . S
C2007 C2006 1.400 . S
C2007 C2008 1.398 . S
C2007 C2013 1.491 . S
C2008 H1999 0.950 . S
C2008 C2007 1.398 . S
C2008 C2009 1.391 . S
C2009 H1997 0.950 1_655 S
C2009 C2005 1.393 . S
C2009 C2008 1.391 . S
C2010 H2000 0.950 . S
C2010 C2011 1.386 . S
C2010 C2012 1.391 . S
C2011 C2010 1.386 . S
C2011 C2015 1.393 . S
C2012 H2001 0.950 . S
C2012 C2010 1.391 . S
C2012 C2013 1.400 . S
C2013 C2007 1.491 . S
C2013 C2012 1.400 . S
C2013 C2014 1.398 . S
C2014 H2002 0.950 . S
C2014 C2013 1.398 . S
C2014 C2015 1.391 . S
C2015 H2003 0.950 . S
C2015 C2011 1.393 . S
C2015 C2014 1.391 . S
H2016 C2024 0.950 . S
H2017 C2029 0.950 . S
H2018 C2026 0.950 . S
H2019 C2028 0.950 . S
H2020 C2030 0.950 . S
H2021 C2032 0.950 . S
H2022 C2034 0.950 . S
H2023 C2035 0.950 . S
C2024 H2016 0.950 . S
C2024 C2025 1.386 . S
C2024 C2026 1.391 . S
C2025 C2024 1.386 . S
C2025 C2029 1.393 . S
C2026 H2018 0.950 . S
C2026 C2024 1.391 . S
C2026 C2027 1.400 . S
C2027 C2026 1.400 . S
C2027 C2028 1.398 . S
C2027 C2033 1.491 . S
C2028 H2019 0.950 . S
C2028 C2027 1.398 . S
C2028 C2029 1.391 . S
C2029 H2017 0.950 . S
C2029 C2025 1.393 . S
C2029 C2028 1.391 . S
C2030 H2020 0.950 . S
C2030 C2031 1.386 . S
C2030 C2032 1.391 . S
C2031 C2030 1.386 . S
C2031 C2035 1.393 . S
C2032 H2021 0.950 . S
C2032 C2030 1.391 . S
C2032 C2033 1.400 . S
C2033 C2027 1.491 . S
C2033 C2032 1.400 . S
C2033 C2034 1.398 . S
C2034 H2022 0.950 . S
C2034 C2033 1.398 . S
C2034 C2035 1.391 . S
C2035 H2023 0.950 . S
C2035 C2031 1.393 . S
C2035 C2034 1.391 . S
H2036 C2044 0.950 . S
H2037 C2049 0.950 . S
H2038 C2046 0.950 . S
H2039 C2048 0.950 . S
H2040 C2050 0.950 . S
H2041 C2052 0.950 . S
H2042 C2054 0.950 . S
H2043 C2055 0.950 . S
C2044 H2036 0.950 . S
C2044 C2045 1.386 . S
C2044 C2046 1.391 . S
C2045 C2044 1.386 . S
C2045 C2049 1.393 . S
C2046 H2038 0.950 . S
C2046 C2044 1.391 . S
C2046 C2047 1.400 . S
C2047 C2046 1.400 . S
C2047 C2048 1.398 . S
C2047 C2053 1.491 . S
C2048 H2039 0.950 . S
C2048 C2047 1.398 . S
C2048 C2049 1.391 . S
C2049 H2037 0.950 . S
C2049 C2045 1.393 . S
C2049 C2048 1.391 . S
C2050 H2040 0.950 . S
C2050 C2051 1.386 . S
C2050 C2052 1.391 . S
C2051 C2050 1.386 . S
C2051 C2055 1.393 . S
C2052 H2041 0.950 . S
C2052 C2050 1.391 . S
C2052 C2053 1.400 . S
C2053 C2047 1.491 . S
C2053 C2052 1.400 . S
C2053 C2054 1.398 . S
C2054 H2042 0.950 . S
C2054 C2053 1.398 . S
C2054 C2055 1.391 . S
C2055 H2043 0.950 . S
C2055 C2051 1.393 . S
C2055 C2054 1.391 . S
H2056 C2064 0.950 . S
H2057 C2069 0.950 . S
H2058 C2066 0.950 . S
H2059 C2068 0.950 . S
H2060 C2070 0.950 . S
H2061 C2072 0.950 . S
H2062 C2074 0.950 . S
H2063 C2075 0.950 . S
C2064 H2056 0.950 . S
C2064 C2065 1.386 . S
C2064 C2066 1.391 . S
C2065 C2064 1.386 . S
C2065 C2069 1.393 . S
C2066 H2058 0.950 . S
C2066 C2064 1.391 . S
C2066 C2067 1.400 . S
C2067 C2066 1.400 . S
C2067 C2068 1.398 . S
C2067 C2073 1.491 . S
C2068 H2059 0.950 . S
C2068 C2067 1.398 . S
C2068 C2069 1.391 . S
C2069 H2057 0.950 . S
C2069 C2065 1.393 . S
C2069 C2068 1.391 . S
C2070 H2060 0.950 . S
C2070 C2071 1.386 . S
C2070 C2072 1.391 . S
C2071 C2070 1.386 . S
C2071 C2075 1.393 . S
C2072 H2061 0.950 . S
C2072 C2070 1.391 . S
C2072 C2073 1.400 . S
C2073 C2067 1.491 . S
C2073 C2072 1.400 . S
C2073 C2074 1.398 . S
C2074 H2062 0.950 . S
C2074 C2073 1.398 . S
C2074 C2075 1.391 . S
C2075 H2063 0.950 . S
C2075 C2071 1.393 . S
C2075 C2074 1.391 . S
H2076 C2084 0.950 . S
H2077 C2089 0.950 . S
H2078 C2086 0.950 . S
H2079 C2088 0.950 . S
H2080 C2090 0.950 . S
H2081 C2092 0.950 . S
H2082 C2094 0.950 . S
H2083 C2095 0.950 . S
C2084 H2076 0.950 . S
C2084 C2085 1.386 . S
C2084 C2086 1.391 . S
C2085 C2084 1.386 . S
C2085 C2089 1.393 . S
C2086 H2078 0.950 . S
C2086 C2084 1.391 . S
C2086 C2087 1.400 . S
C2087 C2086 1.400 . S
C2087 C2088 1.398 . S
C2087 C2093 1.491 . S
C2088 H2079 0.950 . S
C2088 C2087 1.398 . S
C2088 C2089 1.391 . S
C2089 H2077 0.950 . S
C2089 C2085 1.393 . S
C2089 C2088 1.391 . S
C2090 H2080 0.950 . S
C2090 C2091 1.386 . S
C2090 C2092 1.391 . S
C2091 C2090 1.386 . S
C2091 C2095 1.393 . S
C2092 H2081 0.950 . S
C2092 C2090 1.391 . S
C2092 C2093 1.400 . S
C2093 C2087 1.491 . S
C2093 C2092 1.400 . S
C2093 C2094 1.398 . S
C2094 H2082 0.950 . S
C2094 C2093 1.398 . S
C2094 C2095 1.391 . S
C2095 H2083 0.950 . S
C2095 C2091 1.393 . S
C2095 C2094 1.391 . S
H2096 C2104 0.950 . S
H2097 C2109 0.950 . S
H2098 C2106 0.950 . S
H2099 C2108 0.950 . S
H2100 C2110 0.950 . S
H2101 C2112 0.950 . S
H2102 C2114 0.950 . S
H2103 C2115 0.950 . S
C2104 H2096 0.950 . S
C2104 C2105 1.386 . S
C2104 C2106 1.391 . S
C2105 C2104 1.386 . S
C2105 C2109 1.393 . S
C2106 H2098 0.950 . S
C2106 C2104 1.391 . S
C2106 C2107 1.400 . S
C2107 C2106 1.400 . S
C2107 C2108 1.398 . S
C2107 C2113 1.491 . S
C2108 H2099 0.950 . S
C2108 C2107 1.398 . S
C2108 C2109 1.391 . S
C2109 H2097 0.950 . S
C2109 C2105 1.393 . S
C2109 C2108 1.391 . S
C2110 H2100 0.950 . S
C2110 C2111 1.386 . S
C2110 C2112 1.391 . S
C2111 C2110 1.386 . S
C2111 C2115 1.393 . S
C2112 H2101 0.950 . S
C2112 C2110 1.391 . S
C2112 C2113 1.400 . S
C2113 C2107 1.491 . S
C2113 C2112 1.400 . S
C2113 C2114 1.398 . S
C2114 H2102 0.950 . S
C2114 C2113 1.398 . S
C2114 C2115 1.391 . S
C2115 H2103 0.950 . S
C2115 C2111 1.393 . S
C2115 C2114 1.391 . S
H2116 C2124 0.950 . S
H2117 C2129 0.950 . S
H2118 C2126 0.948 1_556 S
H2119 C2128 0.950 . S
H2120 C2130 0.950 . S
H2121 C2132 0.950 . S
H2122 C2134 0.950 . S
H2123 C2135 0.950 . S
C2124 H2116 0.950 . S
C2124 C2125 1.386 . S
C2124 C2126 1.391 . S
C2125 C2124 1.386 . S
C2125 C2129 1.393 . S
C2126 H2118 0.948 1_554 S
C2126 C2124 1.391 . S
C2126 C2127 1.400 . S
C2127 C2126 1.400 . S
C2127 C2128 1.398 . S
C2127 C2133 1.491 1_554 S
C2128 H2119 0.950 . S
C2128 C2127 1.398 . S
C2128 C2129 1.391 . S
C2129 H2117 0.950 . S
C2129 C2125 1.393 . S
C2129 C2128 1.391 . S
C2130 H2120 0.950 . S
C2130 C2131 1.386 . S
C2130 C2132 1.391 . S
C2131 C2130 1.386 . S
C2131 C2135 1.393 . S
C2132 H2121 0.950 . S
C2132 C2130 1.391 . S
C2132 C2133 1.400 . S
C2133 C2127 1.491 1_556 S
C2133 C2132 1.400 . S
C2133 C2134 1.398 . S
C2134 H2122 0.950 . S
C2134 C2133 1.398 . S
C2134 C2135 1.391 . S
C2135 H2123 0.950 . S
C2135 C2131 1.393 . S
C2135 C2134 1.391 . S
H2136 C2144 0.950 . S
H2137 C2149 0.950 . S
H2138 C2146 0.950 . S
H2139 C2148 0.950 . S
H2140 C2150 0.950 . S
H2141 C2152 0.950 . S
H2142 C2154 0.950 . S
H2143 C2155 0.950 . S
C2144 H2136 0.950 . S
C2144 C2145 1.386 . S
C2144 C2146 1.391 . S
C2145 C2144 1.386 . S
C2145 C2149 1.393 . S
C2146 H2138 0.950 . S
C2146 C2144 1.391 . S
C2146 C2147 1.400 . S
C2147 C2146 1.400 . S
C2147 C2148 1.398 . S
C2147 C2153 1.491 . S
C2148 H2139 0.950 . S
C2148 C2147 1.398 . S
C2148 C2149 1.391 . S
C2149 H2137 0.950 . S
C2149 C2145 1.393 . S
C2149 C2148 1.391 . S
C2150 H2140 0.950 . S
C2150 C2151 1.386 . S
C2150 C2152 1.391 . S
C2151 C2150 1.386 . S
C2151 C2155 1.393 . S
C2152 H2141 0.950 . S
C2152 C2150 1.391 . S
C2152 C2153 1.400 . S
C2153 C2147 1.491 . S
C2153 C2152 1.400 . S
C2153 C2154 1.398 . S
C2154 H2142 0.950 . S
C2154 C2153 1.398 . S
C2154 C2155 1.391 . S
C2155 H2143 0.950 . S
C2155 C2151 1.393 . S
C2155 C2154 1.391 . S
H2156 C2164 0.950 . S
H2157 C2169 0.950 . S
H2158 C2166 0.950 . S
H2159 C2168 0.950 . S
H2160 C2170 0.950 . S
H2161 C2172 0.950 . S
H2162 C2174 0.950 . S
H2163 C2175 0.950 . S
C2164 H2156 0.950 . S
C2164 C2165 1.386 . S
C2164 C2166 1.391 . S
C2165 C2164 1.386 . S
C2165 C2169 1.393 . S
C2166 H2158 0.950 . S
C2166 C2164 1.391 . S
C2166 C2167 1.400 . S
C2167 C2166 1.400 . S
C2167 C2168 1.398 . S
C2167 C2173 1.491 . S
C2168 H2159 0.950 . S
C2168 C2167 1.398 . S
C2168 C2169 1.391 . S
C2169 H2157 0.950 . S
C2169 C2165 1.393 . S
C2169 C2168 1.391 . S
C2170 H2160 0.950 . S
C2170 C2171 1.386 . S
C2170 C2172 1.391 . S
C2171 C2170 1.386 . S
C2171 C2175 1.393 . S
C2172 H2161 0.950 . S
C2172 C2170 1.391 . S
C2172 C2173 1.400 . S
C2173 C2167 1.491 . S
C2173 C2172 1.400 . S
C2173 C2174 1.398 . S
C2174 H2162 0.950 . S
C2174 C2173 1.398 . S
C2174 C2175 1.391 . S
C2175 H2163 0.950 . S
C2175 C2171 1.393 . S
C2175 C2174 1.391 . S
H2176 C2184 0.950 . S
H2177 C2189 0.950 . S
H2178 C2186 0.950 . S
H2179 C2188 0.950 . S
H2180 C2190 0.950 . S
H2181 C2192 0.950 . S
H2182 C2194 0.950 . S
H2183 C2195 0.950 . S
C2184 H2176 0.950 . S
C2184 C2185 1.386 . S
C2184 C2186 1.391 . S
C2185 C2184 1.386 . S
C2185 C2189 1.393 . S
C2186 H2178 0.950 . S
C2186 C2184 1.391 . S
C2186 C2187 1.400 . S
C2187 C2186 1.400 . S
C2187 C2188 1.398 . S
C2187 C2193 1.491 . S
C2188 H2179 0.950 . S
C2188 C2187 1.398 . S
C2188 C2189 1.391 . S
C2189 H2177 0.950 . S
C2189 C2185 1.393 . S
C2189 C2188 1.391 . S
C2190 H2180 0.950 . S
C2190 C2191 1.386 . S
C2190 C2192 1.391 . S
C2191 C2190 1.386 . S
C2191 C2195 1.393 . S
C2192 H2181 0.950 . S
C2192 C2190 1.391 . S
C2192 C2193 1.400 . S
C2193 C2187 1.491 . S
C2193 C2192 1.400 . S
C2193 C2194 1.398 . S
C2194 H2182 0.950 . S
C2194 C2193 1.398 . S
C2194 C2195 1.391 . S
C2195 H2183 0.950 . S
C2195 C2191 1.393 . S
C2195 C2194 1.391 . S
H2196 C2204 0.950 . S
H2197 C2209 0.950 . S
H2198 C2206 0.950 . S
H2199 C2208 0.950 . S
H2200 C2210 0.950 . S
H2201 C2212 0.950 . S
H2202 C2214 0.950 . S
H2203 C2215 0.950 . S
C2204 H2196 0.950 . S
C2204 C2205 1.386 . S
C2204 C2206 1.391 . S
C2205 C2204 1.386 . S
C2205 C2209 1.393 . S
C2206 H2198 0.950 . S
C2206 C2204 1.391 . S
C2206 C2207 1.400 . S
C2207 C2206 1.400 . S
C2207 C2208 1.398 . S
C2207 C2213 1.491 . S
C2208 H2199 0.950 . S
C2208 C2207 1.398 . S
C2208 C2209 1.391 . S
C2209 H2197 0.950 . S
C2209 C2205 1.393 . S
C2209 C2208 1.391 . S
C2210 H2200 0.950 . S
C2210 C2211 1.386 . S
C2210 C2212 1.391 . S
C2211 C2210 1.386 . S
C2211 C2215 1.393 . S
C2212 H2201 0.950 . S
C2212 C2210 1.391 . S
C2212 C2213 1.400 . S
C2213 C2207 1.491 . S
C2213 C2212 1.400 . S
C2213 C2214 1.398 . S
C2214 H2202 0.950 . S
C2214 C2213 1.398 . S
C2214 C2215 1.391 . S
C2215 H2203 0.950 . S
C2215 C2211 1.393 . S
C2215 C2214 1.391 . S
H2216 C2224 0.950 . S
H2217 C2229 0.950 . S
H2218 C2226 0.950 . S
H2219 C2228 0.950 . S
H2220 C2230 0.950 . S
H2221 C2232 0.950 . S
H2222 C2234 0.950 . S
H2223 C2235 0.950 . S
C2224 H2216 0.950 . S
C2224 C2225 1.386 . S
C2224 C2226 1.391 . S
C2225 C2224 1.386 . S
C2225 C2229 1.393 . S
C2226 H2218 0.950 . S
C2226 C2224 1.391 . S
C2226 C2227 1.400 . S
C2227 C2226 1.400 . S
C2227 C2228 1.398 . S
C2227 C2233 1.491 . S
C2228 H2219 0.950 . S
C2228 C2227 1.398 . S
C2228 C2229 1.391 . S
C2229 H2217 0.950 . S
C2229 C2225 1.393 . S
C2229 C2228 1.391 . S
C2230 H2220 0.950 . S
C2230 C2231 1.386 . S
C2230 C2232 1.391 . S
C2231 C2230 1.386 . S
C2231 C2235 1.393 . S
C2232 H2221 0.950 . S
C2232 C2230 1.391 . S
C2232 C2233 1.400 . S
C2233 C2227 1.491 . S
C2233 C2232 1.400 . S
C2233 C2234 1.398 . S
C2234 H2222 0.950 . S
C2234 C2233 1.398 . S
C2234 C2235 1.391 . S
C2235 H2223 0.950 . S
C2235 C2231 1.393 . S
C2235 C2234 1.391 . S
H2236 C2244 0.950 . S
H2237 C2249 0.950 . S
H2238 C2246 0.950 . S
H2239 C2248 0.950 . S
H2240 C2250 0.950 . S
H2241 C2252 0.950 . S
H2242 C2254 0.950 . S
H2243 C2255 0.950 . S
C2244 H2236 0.950 . S
C2244 C2245 1.386 . S
C2244 C2246 1.391 . S
C2245 C2244 1.386 . S
C2245 C2249 1.393 . S
C2246 H2238 0.950 . S
C2246 C2244 1.391 . S
C2246 C2247 1.400 . S
C2247 C2246 1.400 . S
C2247 C2248 1.398 . S
C2247 C2253 1.491 . S
C2248 H2239 0.950 . S
C2248 C2247 1.398 . S
C2248 C2249 1.391 . S
C2249 H2237 0.950 . S
C2249 C2245 1.393 . S
C2249 C2248 1.391 . S
C2250 H2240 0.950 . S
C2250 C2251 1.386 . S
C2250 C2252 1.391 . S
C2251 C2250 1.386 . S
C2251 C2255 1.393 . S
C2252 H2241 0.950 . S
C2252 C2250 1.391 . S
C2252 C2253 1.400 . S
C2253 C2247 1.491 . S
C2253 C2252 1.400 . S
C2253 C2254 1.398 . S
C2254 H2242 0.950 . S
C2254 C2253 1.398 . S
C2254 C2255 1.391 . S
C2255 H2243 0.950 . S
C2255 C2251 1.393 . S
C2255 C2254 1.391 . S
H2256 C2264 0.950 . S
H2257 C2269 0.950 . S
H2258 C2266 0.950 . S
H2259 C2268 0.950 . S
H2260 C2270 0.950 . S
H2261 C2272 0.950 . S
H2262 C2274 0.950 . S
H2263 C2275 0.950 . S
C2264 H2256 0.950 . S
C2264 C2265 1.386 . S
C2264 C2266 1.391 . S
C2265 C2264 1.386 . S
C2265 C2269 1.393 . S
C2266 H2258 0.950 . S
C2266 C2264 1.391 . S
C2266 C2267 1.400 . S
C2267 C2266 1.400 . S
C2267 C2268 1.398 . S
C2267 C2273 1.491 . S
C2268 H2259 0.950 . S
C2268 C2267 1.398 . S
C2268 C2269 1.391 . S
C2269 H2257 0.950 . S
C2269 C2265 1.393 . S
C2269 C2268 1.391 . S
C2270 H2260 0.950 . S
C2270 C2271 1.386 . S
C2270 C2272 1.391 . S
C2271 C2270 1.386 . S
C2271 C2275 1.393 . S
C2272 H2261 0.950 . S
C2272 C2270 1.391 . S
C2272 C2273 1.400 . S
C2273 C2267 1.491 . S
C2273 C2272 1.400 . S
C2273 C2274 1.398 . S
C2274 H2262 0.950 . S
C2274 C2273 1.398 . S
C2274 C2275 1.391 . S
C2275 H2263 0.950 . S
C2275 C2271 1.393 . S
C2275 C2274 1.391 . S
H2276 C2284 0.950 . S
H2277 C2289 0.950 . S
H2278 C2286 0.950 . S
H2279 C2288 0.950 . S
H2280 C2290 0.950 . S
H2281 C2292 0.950 . S
H2282 C2294 0.950 . S
H2283 C2295 0.950 . S
C2284 H2276 0.950 . S
C2284 C2285 1.386 . S
C2284 C2286 1.391 . S
C2285 C2284 1.386 . S
C2285 C2289 1.393 . S
C2286 H2278 0.950 . S
C2286 C2284 1.391 . S
C2286 C2287 1.400 . S
C2287 C2286 1.400 . S
C2287 C2288 1.398 . S
C2287 C2293 1.491 . S
C2288 H2279 0.950 . S
C2288 C2287 1.398 . S
C2288 C2289 1.391 . S
C2289 H2277 0.950 . S
C2289 C2285 1.393 . S
C2289 C2288 1.391 . S
C2290 H2280 0.950 . S
C2290 C2291 1.386 . S
C2290 C2292 1.391 . S
C2291 C2290 1.386 . S
C2291 C2295 1.393 . S
C2292 H2281 0.950 . S
C2292 C2290 1.391 . S
C2292 C2293 1.400 . S
C2293 C2287 1.491 . S
C2293 C2292 1.400 . S
C2293 C2294 1.398 . S
C2294 H2282 0.950 . S
C2294 C2293 1.398 . S
C2294 C2295 1.391 . S
C2295 H2283 0.950 . S
C2295 C2291 1.393 . S
C2295 C2294 1.391 . S
H2296 C2304 0.950 . S
H2297 C2309 0.950 . S
H2298 C2306 0.950 . S
H2299 C2308 0.950 . S
H2300 C2310 0.950 . S
H2301 C2312 0.950 . S
H2302 C2314 0.950 . S
H2303 C2315 0.950 . S
C2304 H2296 0.950 . S
C2304 C2305 1.386 . S
C2304 C2306 1.391 . S
C2305 C2304 1.386 . S
C2305 C2309 1.393 . S
C2306 H2298 0.950 . S
C2306 C2304 1.391 . S
C2306 C2307 1.400 . S
C2307 C2306 1.400 . S
C2307 C2308 1.398 . S
C2307 C2313 1.491 . S
C2308 H2299 0.950 . S
C2308 C2307 1.398 . S
C2308 C2309 1.391 . S
C2309 H2297 0.950 . S
C2309 C2305 1.393 . S
C2309 C2308 1.391 . S
C2310 H2300 0.950 . S
C2310 C2311 1.386 . S
C2310 C2312 1.391 . S
C2311 C2310 1.386 . S
C2311 C2315 1.393 . S
C2312 H2301 0.950 . S
C2312 C2310 1.391 . S
C2312 C2313 1.400 . S
C2313 C2307 1.491 . S
C2313 C2312 1.400 . S
C2313 C2314 1.398 . S
C2314 H2302 0.950 . S
C2314 C2313 1.398 . S
C2314 C2315 1.391 . S
C2315 H2303 0.950 . S
C2315 C2311 1.393 . S
C2315 C2314 1.391 . S
H2316 C2324 0.950 . S
H2317 C2329 0.950 . S
H2318 C2326 0.950 . S
H2319 C2328 0.950 . S
H2320 C2330 0.950 1_556 S
H2321 C2332 0.950 1_556 S
H2322 C2334 0.950 . S
H2323 C2335 0.950 . S
C2324 H2316 0.950 . S
C2324 C2325 1.386 . S
C2324 C2326 1.391 . S
C2325 C2324 1.386 . S
C2325 C2329 1.393 1_554 S
C2326 H2318 0.950 . S
C2326 C2324 1.391 . S
C2326 C2327 1.400 . S
C2327 C2326 1.400 . S
C2327 C2328 1.398 1_554 S
C2327 C2333 1.491 . S
C2328 H2319 0.950 . S
C2328 C2327 1.398 1_556 S
C2328 C2329 1.391 . S
C2329 H2317 0.950 . S
C2329 C2325 1.393 1_556 S
C2329 C2328 1.391 . S
C2330 H2320 0.950 1_554 S
C2330 C2331 1.386 . S
C2330 C2332 1.391 . S
C2331 C2330 1.386 . S
C2331 C2335 1.393 . S
C2332 H2321 0.950 1_554 S
C2332 C2330 1.391 . S
C2332 C2333 1.400 . S
C2333 C2327 1.491 . S
C2333 C2332 1.400 . S
C2333 C2334 1.398 . S
C2334 H2322 0.950 . S
C2334 C2333 1.398 . S
C2334 C2335 1.391 . S
C2335 H2323 0.950 . S
C2335 C2331 1.393 . S
C2335 C2334 1.391 . S
H2336 C2344 0.950 . S
H2337 C2349 0.950 . S
H2338 C2346 0.950 . S
H2339 C2348 0.950 . S
H2340 C2350 0.950 . S
H2341 C2352 0.950 . S
H2342 C2354 0.950 . S
H2343 C2355 0.950 . S
C2344 H2336 0.950 . S
C2344 C2345 1.386 . S
C2344 C2346 1.391 . S
C2345 C2344 1.386 . S
C2345 C2349 1.393 . S
C2346 H2338 0.950 . S
C2346 C2344 1.391 . S
C2346 C2347 1.400 . S
C2347 C2346 1.400 . S
C2347 C2348 1.398 . S
C2347 C2353 1.491 . S
C2348 H2339 0.950 . S
C2348 C2347 1.398 . S
C2348 C2349 1.391 . S
C2349 H2337 0.950 . S
C2349 C2345 1.393 . S
C2349 C2348 1.391 . S
C2350 H2340 0.950 . S
C2350 C2351 1.386 . S
C2350 C2352 1.391 . S
C2351 C2350 1.386 . S
C2351 C2355 1.393 . S
C2352 H2341 0.950 . S
C2352 C2350 1.391 . S
C2352 C2353 1.400 . S
C2353 C2347 1.491 . S
C2353 C2352 1.400 . S
C2353 C2354 1.398 . S
C2354 H2342 0.950 . S
C2354 C2353 1.398 . S
C2354 C2355 1.391 . S
C2355 H2343 0.950 . S
C2355 C2351 1.393 . S
C2355 C2354 1.391 . S
H2356 C2364 0.950 . S
H2357 C2369 0.950 . S
H2358 C2366 0.950 . S
H2359 C2368 0.950 . S
H2360 C2370 0.950 . S
H2361 C2372 0.950 . S
H2362 C2374 0.950 . S
H2363 C2375 0.950 . S
C2364 H2356 0.950 . S
C2364 C2365 1.386 . S
C2364 C2366 1.391 . S
C2365 C2364 1.386 . S
C2365 C2369 1.393 . S
C2366 H2358 0.950 . S
C2366 C2364 1.391 . S
C2366 C2367 1.400 . S
C2367 C2366 1.400 . S
C2367 C2368 1.398 . S
C2367 C2373 1.491 . S
C2368 H2359 0.950 . S
C2368 C2367 1.398 . S
C2368 C2369 1.391 . S
C2369 H2357 0.950 . S
C2369 C2365 1.393 . S
C2369 C2368 1.391 . S
C2370 H2360 0.950 . S
C2370 C2371 1.386 . S
C2370 C2372 1.391 . S
C2371 C2370 1.386 . S
C2371 C2375 1.393 . S
C2372 H2361 0.950 . S
C2372 C2370 1.391 . S
C2372 C2373 1.400 . S
C2373 C2367 1.491 . S
C2373 C2372 1.400 . S
C2373 C2374 1.398 . S
C2374 H2362 0.950 . S
C2374 C2373 1.398 . S
C2374 C2375 1.391 . S
C2375 H2363 0.950 . S
C2375 C2371 1.393 . S
C2375 C2374 1.391 . S
H2376 C2384 0.950 . S
H2377 C2389 0.950 . S
H2378 C2386 0.950 . S
H2379 C2388 0.950 . S
H2380 C2390 0.950 . S
H2381 C2392 0.950 . S
H2382 C2394 0.950 . S
H2383 C2395 0.950 . S
C2384 H2376 0.950 . S
C2384 C2385 1.386 . S
C2384 C2386 1.391 . S
C2385 C2384 1.386 . S
C2385 C2389 1.393 . S
C2386 H2378 0.950 . S
C2386 C2384 1.391 . S
C2386 C2387 1.400 . S
C2387 C2386 1.400 . S
C2387 C2388 1.398 . S
C2387 C2393 1.491 . S
C2388 H2379 0.950 . S
C2388 C2387 1.398 . S
C2388 C2389 1.391 . S
C2389 H2377 0.950 . S
C2389 C2385 1.393 . S
C2389 C2388 1.391 . S
C2390 H2380 0.950 . S
C2390 C2391 1.386 . S
C2390 C2392 1.391 . S
C2391 C2390 1.386 . S
C2391 C2395 1.393 . S
C2392 H2381 0.950 . S
C2392 C2390 1.391 . S
C2392 C2393 1.400 . S
C2393 C2387 1.491 . S
C2393 C2392 1.400 . S
C2393 C2394 1.398 . S
C2394 H2382 0.950 . S
C2394 C2393 1.398 . S
C2394 C2395 1.391 . S
C2395 H2383 0.950 . S
C2395 C2391 1.393 . S
C2395 C2394 1.391 . S
H2396 C2404 0.950 . S
H2397 C2409 0.950 . S
H2398 C2406 0.950 . S
H2399 C2408 0.950 . S
H2400 C2410 0.950 . S
H2401 C2412 0.950 . S
H2402 C2414 0.950 . S
H2403 C2415 0.950 . S
C2404 H2396 0.950 . S
C2404 C2405 1.386 . S
C2404 C2406 1.391 . S
C2405 C2404 1.386 . S
C2405 C2409 1.393 . S
C2406 H2398 0.950 . S
C2406 C2404 1.391 . S
C2406 C2407 1.400 . S
C2407 C2406 1.400 . S
C2407 C2408 1.398 . S
C2407 C2413 1.491 . S
C2408 H2399 0.950 . S
C2408 C2407 1.398 . S
C2408 C2409 1.391 . S
C2409 H2397 0.950 . S
C2409 C2405 1.393 . S
C2409 C2408 1.391 . S
C2410 H2400 0.950 . S
C2410 C2411 1.386 . S
C2410 C2412 1.391 . S
C2411 C2410 1.386 . S
C2411 C2415 1.393 . S
C2412 H2401 0.950 . S
C2412 C2410 1.391 . S
C2412 C2413 1.400 . S
C2413 C2407 1.491 . S
C2413 C2412 1.400 . S
C2413 C2414 1.398 . S
C2414 H2402 0.950 . S
C2414 C2413 1.398 . S
C2414 C2415 1.391 . S
C2415 H2403 0.950 . S
C2415 C2411 1.393 . S
C2415 C2414 1.391 . S
H2416 C2424 0.950 . S
H2417 C2429 0.950 . S
H2418 C2426 0.950 . S
H2419 C2428 0.950 . S
H2420 C2430 0.950 . S
H2421 C2432 0.950 . S
H2422 C2434 0.950 . S
H2423 C2435 0.950 . S
C2424 H2416 0.950 . S
C2424 C2425 1.386 . S
C2424 C2426 1.391 . S
C2425 C2424 1.386 . S
C2425 C2429 1.393 . S
C2426 H2418 0.950 . S
C2426 C2424 1.391 . S
C2426 C2427 1.400 . S
C2427 C2426 1.400 . S
C2427 C2428 1.398 . S
C2427 C2433 1.491 . S
C2428 H2419 0.950 . S
C2428 C2427 1.398 . S
C2428 C2429 1.391 . S
C2429 H2417 0.950 . S
C2429 C2425 1.393 . S
C2429 C2428 1.391 . S
C2430 H2420 0.950 . S
C2430 C2431 1.386 . S
C2430 C2432 1.391 . S
C2431 C2430 1.386 . S
C2431 C2435 1.393 . S
C2432 H2421 0.950 . S
C2432 C2430 1.391 . S
C2432 C2433 1.400 . S
C2433 C2427 1.491 . S
C2433 C2432 1.400 . S
C2433 C2434 1.398 . S
C2434 H2422 0.950 . S
C2434 C2433 1.398 . S
C2434 C2435 1.391 . S
C2435 H2423 0.950 . S
C2435 C2431 1.393 . S
C2435 C2434 1.391 . S
H2436 C2444 0.950 . S
H2437 C2449 0.950 . S
H2438 C2446 0.950 . S
H2439 C2448 0.950 . S
H2440 C2450 0.950 . S
H2441 C2452 0.950 . S
H2442 C2454 0.950 . S
H2443 C2455 0.950 . S
C2444 H2436 0.950 . S
C2444 C2445 1.386 . S
C2444 C2446 1.391 . S
C2445 C2444 1.386 . S
C2445 C2449 1.393 . S
C2446 H2438 0.950 . S
C2446 C2444 1.391 . S
C2446 C2447 1.400 . S
C2447 C2446 1.400 . S
C2447 C2448 1.398 . S
C2447 C2453 1.491 . S
C2448 H2439 0.950 . S
C2448 C2447 1.398 . S
C2448 C2449 1.391 . S
C2449 H2437 0.950 . S
C2449 C2445 1.393 . S
C2449 C2448 1.391 . S
C2450 H2440 0.950 . S
C2450 C2451 1.386 . S
C2450 C2452 1.391 . S
C2451 C2450 1.386 . S
C2451 C2455 1.393 . S
C2452 H2441 0.950 . S
C2452 C2450 1.391 . S
C2452 C2453 1.400 . S
C2453 C2447 1.491 . S
C2453 C2452 1.400 . S
C2453 C2454 1.398 . S
C2454 H2442 0.950 . S
C2454 C2453 1.398 . S
C2454 C2455 1.391 . S
C2455 H2443 0.950 . S
C2455 C2451 1.393 . S
C2455 C2454 1.391 . S
H2456 C2464 0.950 . S
H2457 C2469 0.950 . S
H2458 C2466 0.950 . S
H2459 C2468 0.950 . S
H2460 C2470 0.950 . S
H2461 C2472 0.950 . S
H2462 C2474 0.950 . S
H2463 C2475 0.950 . S
C2464 H2456 0.950 . S
C2464 C2465 1.386 . S
C2464 C2466 1.391 . S
C2465 C2464 1.386 . S
C2465 C2469 1.393 . S
C2466 H2458 0.950 . S
C2466 C2464 1.391 . S
C2466 C2467 1.400 . S
C2467 C2466 1.400 . S
C2467 C2468 1.398 . S
C2467 C2473 1.491 . S
C2468 H2459 0.950 . S
C2468 C2467 1.398 . S
C2468 C2469 1.391 . S
C2469 H2457 0.950 . S
C2469 C2465 1.393 . S
C2469 C2468 1.391 . S
C2470 H2460 0.950 . S
C2470 C2471 1.386 . S
C2470 C2472 1.391 . S
C2471 C2470 1.386 . S
C2471 C2475 1.393 . S
C2472 H2461 0.950 . S
C2472 C2470 1.391 . S
C2472 C2473 1.400 . S
C2473 C2467 1.491 . S
C2473 C2472 1.400 . S
C2473 C2474 1.398 . S
C2474 H2462 0.950 . S
C2474 C2473 1.398 . S
C2474 C2475 1.391 . S
C2475 H2463 0.950 . S
C2475 C2471 1.393 . S
C2475 C2474 1.391 . S
H2476 C2484 0.950 . S
H2477 C2489 0.950 . S
H2478 C2486 0.950 . S
H2479 C2488 0.950 . S
H2480 C2490 0.950 . S
H2481 C2492 0.950 . S
H2482 C2494 0.950 . S
H2483 C2495 0.950 . S
C2484 H2476 0.950 . S
C2484 C2485 1.386 . S
C2484 C2486 1.391 . S
C2485 C2484 1.386 . S
C2485 C2489 1.393 . S
C2486 H2478 0.950 . S
C2486 C2484 1.391 . S
C2486 C2487 1.400 . S
C2487 C2486 1.400 . S
C2487 C2488 1.398 . S
C2487 C2493 1.491 . S
C2488 H2479 0.950 . S
C2488 C2487 1.398 . S
C2488 C2489 1.391 . S
C2489 H2477 0.950 . S
C2489 C2485 1.393 . S
C2489 C2488 1.391 . S
C2490 H2480 0.950 . S
C2490 C2491 1.386 . S
C2490 C2492 1.391 . S
C2491 C2490 1.386 . S
C2491 C2495 1.393 . S
C2492 H2481 0.950 . S
C2492 C2490 1.391 . S
C2492 C2493 1.400 . S
C2493 C2487 1.491 . S
C2493 C2492 1.400 . S
C2493 C2494 1.398 . S
C2494 H2482 0.950 . S
C2494 C2493 1.398 . S
C2494 C2495 1.391 . S
C2495 H2483 0.950 . S
C2495 C2491 1.393 . S
C2495 C2494 1.391 . S
H2496 C2504 0.950 . S
H2497 C2509 0.950 . S
H2498 C2506 0.950 . S
H2499 C2508 0.950 . S
H2500 C2510 0.950 . S
H2501 C2512 0.950 . S
H2502 C2514 0.950 . S
H2503 C2515 0.950 . S
C2504 H2496 0.950 . S
C2504 C2505 1.386 . S
C2504 C2506 1.391 . S
C2505 C2504 1.386 . S
C2505 C2509 1.393 . S
C2506 H2498 0.950 . S
C2506 C2504 1.391 . S
C2506 C2507 1.400 . S
C2507 C2506 1.400 . S
C2507 C2508 1.398 . S
C2507 C2513 1.491 . S
C2508 H2499 0.950 . S
C2508 C2507 1.398 . S
C2508 C2509 1.391 . S
C2509 H2497 0.950 . S
C2509 C2505 1.393 . S
C2509 C2508 1.391 . S
C2510 H2500 0.950 . S
C2510 C2511 1.386 . S
C2510 C2512 1.391 . S
C2511 C2510 1.386 . S
C2511 C2515 1.393 . S
C2512 H2501 0.950 . S
C2512 C2510 1.391 . S
C2512 C2513 1.400 . S
C2513 C2507 1.491 . S
C2513 C2512 1.400 . S
C2513 C2514 1.398 . S
C2514 H2502 0.950 . S
C2514 C2513 1.398 . S
C2514 C2515 1.391 . S
C2515 H2503 0.950 . S
C2515 C2511 1.393 . S
C2515 C2514 1.391 . S
H2516 C2524 0.950 . S
H2517 C2529 0.950 . S
H2518 C2526 0.950 . S
H2519 C2528 0.950 . S
H2520 C2530 0.950 . S
H2521 C2532 0.950 . S
H2522 C2534 0.950 . S
H2523 C2535 0.950 . S
C2524 H2516 0.950 . S
C2524 C2525 1.386 . S
C2524 C2526 1.391 . S
C2525 C2524 1.386 . S
C2525 C2529 1.393 . S
C2526 H2518 0.950 . S
C2526 C2524 1.391 . S
C2526 C2527 1.400 . S
C2527 C2526 1.400 . S
C2527 C2528 1.398 . S
C2527 C2533 1.491 . S
C2528 H2519 0.950 . S
C2528 C2527 1.398 . S
C2528 C2529 1.391 . S
C2529 H2517 0.950 . S
C2529 C2525 1.393 . S
C2529 C2528 1.391 . S
C2530 H2520 0.950 . S
C2530 C2531 1.386 . S
C2530 C2532 1.391 . S
C2531 C2530 1.386 . S
C2531 C2535 1.393 . S
C2532 H2521 0.950 . S
C2532 C2530 1.391 . S
C2532 C2533 1.400 . S
C2533 C2527 1.491 . S
C2533 C2532 1.400 . S
C2533 C2534 1.398 . S
C2534 H2522 0.950 . S
C2534 C2533 1.398 . S
C2534 C2535 1.391 . S
C2535 H2523 0.950 . S
C2535 C2531 1.393 . S
C2535 C2534 1.391 . S
H2536 C2544 0.950 . S
H2537 C2549 0.950 . S
H2538 C2546 0.950 . S
H2539 C2548 0.950 . S
H2540 C2550 0.950 . S
H2541 C2552 0.950 . S
H2542 C2554 0.950 1_655 S
H2543 C2555 0.950 1_655 S
C2544 H2536 0.950 . S
C2544 C2545 1.386 1_655 S
C2544 C2546 1.391 . S
C2545 C2544 1.386 1_455 S
C2545 C2549 1.393 . S
C2546 H2538 0.950 . S
C2546 C2544 1.391 . S
C2546 C2547 1.400 1_655 S
C2547 C2546 1.400 1_455 S
C2547 C2548 1.398 . S
C2547 C2553 1.491 . S
C2548 H2539 0.950 . S
C2548 C2547 1.398 . S
C2548 C2549 1.391 . S
C2549 H2537 0.950 . S
C2549 C2545 1.393 . S
C2549 C2548 1.391 . S
C2550 H2540 0.950 . S
C2550 C2551 1.386 . S
C2550 C2552 1.391 . S
C2551 C2550 1.386 . S
C2551 C2555 1.393 . S
C2552 H2541 0.950 . S
C2552 C2550 1.391 . S
C2552 C2553 1.400 . S
C2553 C2547 1.491 . S
C2553 C2552 1.400 . S
C2553 C2554 1.398 . S
C2554 H2542 0.950 1_455 S
C2554 C2553 1.398 . S
C2554 C2555 1.391 . S
C2555 H2543 0.950 1_455 S
C2555 C2551 1.393 . S
C2555 C2554 1.391 . S
H2556 C2564 0.950 . S
H2557 C2569 0.950 . S
H2558 C2566 0.950 . S
H2559 C2568 0.950 . S
H2560 C2570 0.950 . S
H2561 C2572 0.950 . S
H2562 C2574 0.950 . S
H2563 C2575 0.950 . S
C2564 H2556 0.950 . S
C2564 C2565 1.386 . S
C2564 C2566 1.391 . S
C2565 C2564 1.386 . S
C2565 C2569 1.393 . S
C2566 H2558 0.950 . S
C2566 C2564 1.391 . S
C2566 C2567 1.400 . S
C2567 C2566 1.400 . S
C2567 C2568 1.398 . S
C2567 C2573 1.491 . S
C2568 H2559 0.950 . S
C2568 C2567 1.398 . S
C2568 C2569 1.391 . S
C2569 H2557 0.950 . S
C2569 C2565 1.393 . S
C2569 C2568 1.391 . S
C2570 H2560 0.950 . S
C2570 C2571 1.386 . S
C2570 C2572 1.391 . S
C2571 C2570 1.386 . S
C2571 C2575 1.393 . S
C2572 H2561 0.950 . S
C2572 C2570 1.391 . S
C2572 C2573 1.400 . S
C2573 C2567 1.491 . S
C2573 C2572 1.400 . S
C2573 C2574 1.398 . S
C2574 H2562 0.950 . S
C2574 C2573 1.398 . S
C2574 C2575 1.391 . S
C2575 H2563 0.950 . S
C2575 C2571 1.393 . S
C2575 C2574 1.391 . S
H2576 C2584 0.950 . S
H2577 C2589 0.950 . S
H2578 C2586 0.950 . S
H2579 C2588 0.950 . S
H2580 C2590 0.950 . S
H2581 C2592 0.950 . S
H2582 C2594 0.950 . S
H2583 C2595 0.950 . S
C2584 H2576 0.950 . S
C2584 C2585 1.386 . S
C2584 C2586 1.391 . S
C2585 C2584 1.386 . S
C2585 C2589 1.393 . S
C2586 H2578 0.950 . S
C2586 C2584 1.391 . S
C2586 C2587 1.400 . S
C2587 C2586 1.400 . S
C2587 C2588 1.398 . S
C2587 C2593 1.491 . S
C2588 H2579 0.950 . S
C2588 C2587 1.398 . S
C2588 C2589 1.391 . S
C2589 H2577 0.950 . S
C2589 C2585 1.393 . S
C2589 C2588 1.391 . S
C2590 H2580 0.950 . S
C2590 C2591 1.386 . S
C2590 C2592 1.391 . S
C2591 C2590 1.386 . S
C2591 C2595 1.393 . S
C2592 H2581 0.950 . S
C2592 C2590 1.391 . S
C2592 C2593 1.400 . S
C2593 C2587 1.491 . S
C2593 C2592 1.400 . S
C2593 C2594 1.398 . S
C2594 H2582 0.950 . S
C2594 C2593 1.398 . S
C2594 C2595 1.391 . S
C2595 H2583 0.950 . S
C2595 C2591 1.393 . S
C2595 C2594 1.391 . S
H2596 C2604 0.950 . S
H2597 C2609 0.950 . S
H2598 C2606 0.950 . S
H2599 C2608 0.950 . S
H2600 C2610 0.950 . S
H2601 C2612 0.950 . S
H2602 C2614 0.950 . S
H2603 C2615 0.950 . S
C2604 H2596 0.950 . S
C2604 C2605 1.386 . S
C2604 C2606 1.391 . S
C2605 C2604 1.386 . S
C2605 C2609 1.393 . S
C2606 H2598 0.950 . S
C2606 C2604 1.391 . S
C2606 C2607 1.400 . S
C2607 C2606 1.400 . S
C2607 C2608 1.398 . S
C2607 C2613 1.491 . S
C2608 H2599 0.950 . S
C2608 C2607 1.398 . S
C2608 C2609 1.391 . S
C2609 H2597 0.950 . S
C2609 C2605 1.393 . S
C2609 C2608 1.391 . S
C2610 H2600 0.950 . S
C2610 C2611 1.386 . S
C2610 C2612 1.391 . S
C2611 C2610 1.386 . S
C2611 C2615 1.393 . S
C2612 H2601 0.950 . S
C2612 C2610 1.391 . S
C2612 C2613 1.400 . S
C2613 C2607 1.491 . S
C2613 C2612 1.400 . S
C2613 C2614 1.398 . S
C2614 H2602 0.950 . S
C2614 C2613 1.398 . S
C2614 C2615 1.391 . S
C2615 H2603 0.950 . S
C2615 C2611 1.393 . S
C2615 C2614 1.391 . S
H2616 C2624 0.950 . S
H2617 C2629 0.950 . S
H2618 C2626 0.950 . S
H2619 C2628 0.950 . S
H2620 C2630 0.950 . S
H2621 C2632 0.950 1_455 S
H2622 C2634 0.950 . S
H2623 C2635 0.950 . S
C2624 H2616 0.950 . S
C2624 C2625 1.386 . S
C2624 C2626 1.391 . S
C2625 C2624 1.386 . S
C2625 C2629 1.393 . S
C2626 H2618 0.950 . S
C2626 C2624 1.391 . S
C2626 C2627 1.400 . S
C2627 C2626 1.400 . S
C2627 C2628 1.398 . S
C2627 C2633 1.491 . S
C2628 H2619 0.950 . S
C2628 C2627 1.398 . S
C2628 C2629 1.391 . S
C2629 H2617 0.950 . S
C2629 C2625 1.393 . S
C2629 C2628 1.391 . S
C2630 H2620 0.950 . S
C2630 C2631 1.369 1_455 S
C2630 C2632 1.391 1_455 S
C2631 C2630 1.369 1_655 S
C2631 C2635 1.422 . S
C2632 H2621 0.950 1_655 S
C2632 C2630 1.391 1_655 S
C2632 C2633 1.400 . S
C2633 C2627 1.491 . S
C2633 C2632 1.400 . S
C2633 C2634 1.398 . S
C2634 H2622 0.950 . S
C2634 C2633 1.398 . S
C2634 C2635 1.391 . S
C2635 H2623 0.950 . S
C2635 C2631 1.422 . S
C2635 C2634 1.391 . S
H2636 C2644 0.950 . S
H2637 C2649 0.950 . S
H2638 C2646 0.950 . S
H2639 C2648 0.950 . S
H2640 C2650 0.950 . S
H2641 C2652 0.950 . S
H2642 C2654 0.950 . S
H2643 C2655 0.950 . S
C2644 H2636 0.950 . S
C2644 C2645 1.386 . S
C2644 C2646 1.391 . S
C2645 C2644 1.386 . S
C2645 C2649 1.393 . S
C2646 H2638 0.950 . S
C2646 C2644 1.391 . S
C2646 C2647 1.400 . S
C2647 C2646 1.400 . S
C2647 C2648 1.398 . S
C2647 C2653 1.491 . S
C2648 H2639 0.950 . S
C2648 C2647 1.398 . S
C2648 C2649 1.391 . S
C2649 H2637 0.950 . S
C2649 C2645 1.393 . S
C2649 C2648 1.391 . S
C2650 H2640 0.950 . S
C2650 C2651 1.386 . S
C2650 C2652 1.391 . S
C2651 C2650 1.386 . S
C2651 C2655 1.393 . S
C2652 H2641 0.950 . S
C2652 C2650 1.391 . S
C2652 C2653 1.400 . S
C2653 C2647 1.491 . S
C2653 C2652 1.400 . S
C2653 C2654 1.398 . S
C2654 H2642 0.950 . S
C2654 C2653 1.398 . S
C2654 C2655 1.391 . S
C2655 H2643 0.950 . S
C2655 C2651 1.393 . S
C2655 C2654 1.391 . S
H2656 C2664 0.950 . S
H2657 C2669 0.950 . S
H2658 C2666 0.950 . S
H2659 C2668 0.950 . S
H2660 C2670 0.950 . S
H2661 C2672 0.950 . S
H2662 C2674 0.950 . S
H2663 C2675 0.950 . S
C2664 H2656 0.950 . S
C2664 C2665 1.386 . S
C2664 C2666 1.391 . S
C2665 C2664 1.386 . S
C2665 C2669 1.393 . S
C2666 H2658 0.950 . S
C2666 C2664 1.391 . S
C2666 C2667 1.400 . S
C2667 C2666 1.400 . S
C2667 C2668 1.398 . S
C2667 C2673 1.491 . S
C2668 H2659 0.950 . S
C2668 C2667 1.398 . S
C2668 C2669 1.391 . S
C2669 H2657 0.950 . S
C2669 C2665 1.393 . S
C2669 C2668 1.391 . S
C2670 H2660 0.950 . S
C2670 C2671 1.386 . S
C2670 C2672 1.391 . S
C2671 C2670 1.386 . S
C2671 C2675 1.393 . S
C2672 H2661 0.950 . S
C2672 C2670 1.391 . S
C2672 C2673 1.400 . S
C2673 C2667 1.491 . S
C2673 C2672 1.400 . S
C2673 C2674 1.398 . S
C2674 H2662 0.950 . S
C2674 C2673 1.398 . S
C2674 C2675 1.391 . S
C2675 H2663 0.950 . S
C2675 C2671 1.393 . S
C2675 C2674 1.391 . S
H2676 C2684 0.950 . S
H2677 C2689 0.950 . S
H2678 C2686 0.950 . S
H2679 C2688 0.950 . S
H2680 C2690 0.950 . S
H2681 C2692 0.950 . S
H2682 C2694 0.950 . S
H2683 C2695 0.950 . S
C2684 H2676 0.950 . S
C2684 C2685 1.386 . S
C2684 C2686 1.391 . S
C2685 C2684 1.386 . S
C2685 C2689 1.393 . S
C2686 H2678 0.950 . S
C2686 C2684 1.391 . S
C2686 C2687 1.400 . S
C2687 C2686 1.400 . S
C2687 C2688 1.398 . S
C2687 C2693 1.491 . S
C2688 H2679 0.950 . S
C2688 C2687 1.398 . S
C2688 C2689 1.391 . S
C2689 H2677 0.950 . S
C2689 C2685 1.393 . S
C2689 C2688 1.391 . S
C2690 H2680 0.950 . S
C2690 C2691 1.386 . S
C2690 C2692 1.391 . S
C2691 C2690 1.386 . S
C2691 C2695 1.393 . S
C2692 H2681 0.950 . S
C2692 C2690 1.391 . S
C2692 C2693 1.400 . S
C2693 C2687 1.491 . S
C2693 C2692 1.400 . S
C2693 C2694 1.398 . S
C2694 H2682 0.950 . S
C2694 C2693 1.398 . S
C2694 C2695 1.391 . S
C2695 H2683 0.950 . S
C2695 C2691 1.393 . S
C2695 C2694 1.391 . S
H2696 C2704 0.950 . S
H2697 C2709 0.950 . S
H2698 C2706 0.950 . S
H2699 C2708 0.950 . S
H2700 C2710 0.950 . S
H2701 C2712 0.950 . S
H2702 C2714 0.950 . S
H2703 C2715 0.950 1_455 S
C2704 H2696 0.950 . S
C2704 C2705 1.386 . S
C2704 C2706 1.391 . S
C2705 C2704 1.386 . S
C2705 C2709 1.393 . S
C2706 H2698 0.950 . S
C2706 C2704 1.391 . S
C2706 C2707 1.400 . S
C2707 C2706 1.400 . S
C2707 C2708 1.398 . S
C2707 C2713 1.491 . S
C2708 H2699 0.950 . S
C2708 C2707 1.398 . S
C2708 C2709 1.391 . S
C2709 H2697 0.950 . S
C2709 C2705 1.393 . S
C2709 C2708 1.391 . S
C2710 H2700 0.950 . S
C2710 C2711 1.386 . S
C2710 C2712 1.391 . S
C2711 C2710 1.386 . S
C2711 C2715 1.393 . S
C2712 H2701 0.950 . S
C2712 C2710 1.391 . S
C2712 C2713 1.400 . S
C2713 C2707 1.491 . S
C2713 C2712 1.400 . S
C2713 C2714 1.398 . S
C2714 H2702 0.950 . S
C2714 C2713 1.398 . S
C2714 C2715 1.391 . S
C2715 H2703 0.950 1_655 S
C2715 C2711 1.393 . S
C2715 C2714 1.391 . S
H2716 C2724 0.950 . S
H2717 C2729 0.950 . S
H2718 C2726 0.950 . S
H2719 C2728 0.950 . S
H2720 C2730 0.950 . S
H2721 C2732 0.950 . S
H2722 C2734 0.950 . S
H2723 C2735 0.950 . S
C2724 H2716 0.950 . S
C2724 C2725 1.386 . S
C2724 C2726 1.391 . S
C2725 C2724 1.386 . S
C2725 C2729 1.393 . S
C2726 H2718 0.950 . S
C2726 C2724 1.391 . S
C2726 C2727 1.400 . S
C2727 C2726 1.400 . S
C2727 C2728 1.398 . S
C2727 C2733 1.491 . S
C2728 H2719 0.950 . S
C2728 C2727 1.398 . S
C2728 C2729 1.391 . S
C2729 H2717 0.950 . S
C2729 C2725 1.393 . S
C2729 C2728 1.391 . S
C2730 H2720 0.950 . S
C2730 C2731 1.386 . S
C2730 C2732 1.391 . S
C2731 C2730 1.386 . S
C2731 C2735 1.393 . S
C2732 H2721 0.950 . S
C2732 C2730 1.391 . S
C2732 C2733 1.400 . S
C2733 C2727 1.491 . S
C2733 C2732 1.400 . S
C2733 C2734 1.398 . S
C2734 H2722 0.950 . S
C2734 C2733 1.398 . S
C2734 C2735 1.391 . S
C2735 H2723 0.950 . S
C2735 C2731 1.393 . S
C2735 C2734 1.391 . S
H2736 C2744 0.950 . S
H2737 C2749 0.950 . S
H2738 C2746 0.950 . S
H2739 C2748 0.950 . S
H2740 C2750 0.950 . S
H2741 C2752 0.950 . S
H2742 C2754 0.950 . S
H2743 C2755 0.950 . S
C2744 H2736 0.950 . S
C2744 C2745 1.386 . S
C2744 C2746 1.391 . S
C2745 C2744 1.386 . S
C2745 C2749 1.393 . S
C2746 H2738 0.950 . S
C2746 C2744 1.391 . S
C2746 C2747 1.400 . S
C2747 C2746 1.400 . S
C2747 C2748 1.398 . S
C2747 C2753 1.491 . S
C2748 H2739 0.950 . S
C2748 C2747 1.398 . S
C2748 C2749 1.391 . S
C2749 H2737 0.950 . S
C2749 C2745 1.393 . S
C2749 C2748 1.391 . S
C2750 H2740 0.950 . S
C2750 C2751 1.386 . S
C2750 C2752 1.391 . S
C2751 C2750 1.386 . S
C2751 C2755 1.393 . S
C2752 H2741 0.950 . S
C2752 C2750 1.391 . S
C2752 C2753 1.400 . S
C2753 C2747 1.491 . S
C2753 C2752 1.400 . S
C2753 C2754 1.398 . S
C2754 H2742 0.950 . S
C2754 C2753 1.398 . S
C2754 C2755 1.391 . S
C2755 H2743 0.950 . S
C2755 C2751 1.393 . S
C2755 C2754 1.391 . S
H2756 C2764 0.950 . S
H2757 C2769 0.950 . S
H2758 C2766 0.950 . S
H2759 C2768 0.950 . S
H2760 C2770 0.950 . S
H2761 C2772 0.950 . S
H2762 C2774 0.950 . S
H2763 C2775 0.950 . S
C2764 H2756 0.950 . S
C2764 C2765 1.386 . S
C2764 C2766 1.391 . S
C2765 C2764 1.386 . S
C2765 C2769 1.393 . S
C2766 H2758 0.950 . S
C2766 C2764 1.391 . S
C2766 C2767 1.400 . S
C2767 C2766 1.400 . S
C2767 C2768 1.398 . S
C2767 C2773 1.491 . S
C2768 H2759 0.950 . S
C2768 C2767 1.398 . S
C2768 C2769 1.391 . S
C2769 H2757 0.950 . S
C2769 C2765 1.393 . S
C2769 C2768 1.391 . S
C2770 H2760 0.950 . S
C2770 C2771 1.386 . S
C2770 C2772 1.391 . S
C2771 C2770 1.386 . S
C2771 C2775 1.393 . S
C2772 H2761 0.950 . S
C2772 C2770 1.391 . S
C2772 C2773 1.400 . S
C2773 C2767 1.491 . S
C2773 C2772 1.400 . S
C2773 C2774 1.398 . S
C2774 H2762 0.950 . S
C2774 C2773 1.398 . S
C2774 C2775 1.391 . S
C2775 H2763 0.950 . S
C2775 C2771 1.393 . S
C2775 C2774 1.391 . S
H2776 C2784 0.950 . S
H2777 C2789 0.950 . S
H2778 C2786 0.950 . S
H2779 C2788 0.950 . S
H2780 C2790 0.950 . S
H2781 C2792 0.950 . S
H2782 C2794 0.950 . S
H2783 C2795 0.950 . S
C2784 H2776 0.950 . S
C2784 C2785 1.386 . S
C2784 C2786 1.391 . S
C2785 C2784 1.386 . S
C2785 C2789 1.393 . S
C2786 H2778 0.950 . S
C2786 C2784 1.391 . S
C2786 C2787 1.400 . S
C2787 C2786 1.400 . S
C2787 C2788 1.398 . S
C2787 C2793 1.491 . S
C2788 H2779 0.950 . S
C2788 C2787 1.398 . S
C2788 C2789 1.391 . S
C2789 H2777 0.950 . S
C2789 C2785 1.393 . S
C2789 C2788 1.391 . S
C2790 H2780 0.950 . S
C2790 C2791 1.386 . S
C2790 C2792 1.391 . S
C2791 C2790 1.386 . S
C2791 C2795 1.393 . S
C2792 H2781 0.950 . S
C2792 C2790 1.391 . S
C2792 C2793 1.400 . S
C2793 C2787 1.491 . S
C2793 C2792 1.400 . S
C2793 C2794 1.398 . S
C2794 H2782 0.950 . S
C2794 C2793 1.398 . S
C2794 C2795 1.391 . S
C2795 H2783 0.950 . S
C2795 C2791 1.393 . S
C2795 C2794 1.391 . S
H2796 C2804 0.950 . S
H2797 C2809 0.950 . S
H2798 C2806 0.950 . S
H2799 C2808 0.950 . S
H2800 C2810 0.950 . S
H2801 C2812 0.950 . S
H2802 C2814 0.950 . S
H2803 C2815 0.950 . S
C2804 H2796 0.950 . S
C2804 C2805 1.386 . S
C2804 C2806 1.391 . S
C2805 C2804 1.386 . S
C2805 C2809 1.393 . S
C2806 H2798 0.950 . S
C2806 C2804 1.391 . S
C2806 C2807 1.400 . S
C2807 C2806 1.400 . S
C2807 C2808 1.398 . S
C2807 C2813 1.491 . S
C2808 H2799 0.950 . S
C2808 C2807 1.398 . S
C2808 C2809 1.391 . S
C2809 H2797 0.950 . S
C2809 C2805 1.393 . S
C2809 C2808 1.391 . S
C2810 H2800 0.950 . S
C2810 C2811 1.386 . S
C2810 C2812 1.391 . S
C2811 C2810 1.386 . S
C2811 C2815 1.393 . S
C2812 H2801 0.950 . S
C2812 C2810 1.391 . S
C2812 C2813 1.400 . S
C2813 C2807 1.491 . S
C2813 C2812 1.400 . S
C2813 C2814 1.398 . S
C2814 H2802 0.950 . S
C2814 C2813 1.398 . S
C2814 C2815 1.391 . S
C2815 H2803 0.950 . S
C2815 C2811 1.393 . S
C2815 C2814 1.391 . S
H2816 C2824 0.950 . S
H2817 C2829 0.950 . S
H2818 C2826 0.950 . S
H2819 C2828 0.950 . S
H2820 C2830 0.950 . S
H2821 C2832 0.950 . S
H2822 C2834 0.950 . S
H2823 C2835 0.950 . S
C2824 H2816 0.950 . S
C2824 C2825 1.386 . S
C2824 C2826 1.391 . S
C2825 C2824 1.386 . S
C2825 C2829 1.393 . S
C2826 H2818 0.950 . S
C2826 C2824 1.391 . S
C2826 C2827 1.400 . S
C2827 C2826 1.400 . S
C2827 C2828 1.398 . S
C2827 C2833 1.491 . S
C2828 H2819 0.950 . S
C2828 C2827 1.398 . S
C2828 C2829 1.391 . S
C2829 H2817 0.950 . S
C2829 C2825 1.393 . S
C2829 C2828 1.391 . S
C2830 H2820 0.950 . S
C2830 C2831 1.386 . S
C2830 C2832 1.391 . S
C2831 C2830 1.386 . S
C2831 C2835 1.393 . S
C2832 H2821 0.950 . S
C2832 C2830 1.391 . S
C2832 C2833 1.400 . S
C2833 C2827 1.491 . S
C2833 C2832 1.400 . S
C2833 C2834 1.398 . S
C2834 H2822 0.950 . S
C2834 C2833 1.398 . S
C2834 C2835 1.391 . S
C2835 H2823 0.950 . S
C2835 C2831 1.393 . S
C2835 C2834 1.391 . S
H2836 C2844 0.950 . S
H2837 C2849 0.950 . S
H2838 C2846 0.950 . S
H2839 C2848 0.950 . S
H2840 C2850 0.950 . S
H2841 C2852 0.950 . S
H2842 C2854 0.950 1_556 S
H2843 C2855 0.928 1_556 S
C2844 H2836 0.950 . S
C2844 C2845 1.386 . S
C2844 C2846 1.391 . S
C2845 C2844 1.386 . S
C2845 C2849 1.393 . S
C2846 H2838 0.950 . S
C2846 C2844 1.391 . S
C2846 C2847 1.400 . S
C2847 C2846 1.400 . S
C2847 C2848 1.398 . S
C2847 C2853 1.491 . S
C2848 H2839 0.950 . S
C2848 C2847 1.398 . S
C2848 C2849 1.391 . S
C2849 H2837 0.950 . S
C2849 C2845 1.393 . S
C2849 C2848 1.391 . S
C2850 H2840 0.950 . S
C2850 C2851 1.386 . S
C2850 C2852 1.391 . S
C2851 C2850 1.386 . S
C2851 C2855 1.411 . S
C2852 H2841 0.950 . S
C2852 C2850 1.391 . S
C2852 C2853 1.400 . S
C2853 C2847 1.491 . S
C2853 C2852 1.400 . S
C2853 C2854 1.398 . S
C2854 H2842 0.950 1_554 S
C2854 C2853 1.398 . S
C2854 C2855 1.396 . S
C2855 H2843 0.928 1_554 S
C2855 C2851 1.411 . S
C2855 C2854 1.396 . S
H2856 C2864 0.950 . S
H2857 C2869 0.950 . S
H2858 C2866 0.950 . S
H2859 C2868 0.950 . S
H2860 C2870 0.950 . S
H2861 C2872 0.950 . S
H2862 C2874 0.950 . S
H2863 C2875 0.950 . S
C2864 H2856 0.950 . S
C2864 C2865 1.386 . S
C2864 C2866 1.391 . S
C2865 C2864 1.386 . S
C2865 C2869 1.393 . S
C2866 H2858 0.950 . S
C2866 C2864 1.391 . S
C2866 C2867 1.400 . S
C2867 C2866 1.400 . S
C2867 C2868 1.398 . S
C2867 C2873 1.491 . S
C2868 H2859 0.950 . S
C2868 C2867 1.398 . S
C2868 C2869 1.391 . S
C2869 H2857 0.950 . S
C2869 C2865 1.393 . S
C2869 C2868 1.391 . S
C2870 H2860 0.950 . S
C2870 C2871 1.386 . S
C2870 C2872 1.391 . S
C2871 C2870 1.386 . S
C2871 C2875 1.393 . S
C2872 H2861 0.950 . S
C2872 C2870 1.391 . S
C2872 C2873 1.400 . S
C2873 C2867 1.491 . S
C2873 C2872 1.400 . S
C2873 C2874 1.398 . S
C2874 H2862 0.950 . S
C2874 C2873 1.398 . S
C2874 C2875 1.391 . S
C2875 H2863 0.950 . S
C2875 C2871 1.393 . S
C2875 C2874 1.391 . S
H2876 C2884 0.950 . S
H2877 C2889 0.950 . S
H2878 C2886 0.950 . S
H2879 C2888 0.950 . S
H2880 C2890 0.950 . S
H2881 C2892 0.950 . S
H2882 C2894 0.950 . S
H2883 C2895 0.950 . S
C2884 H2876 0.950 . S
C2884 C2885 1.386 . S
C2884 C2886 1.391 . S
C2885 C2884 1.386 . S
C2885 C2889 1.393 . S
C2886 H2878 0.950 . S
C2886 C2884 1.391 . S
C2886 C2887 1.400 . S
C2887 C2886 1.400 . S
C2887 C2888 1.398 . S
C2887 C2893 1.491 . S
C2888 H2879 0.950 . S
C2888 C2887 1.398 . S
C2888 C2889 1.391 . S
C2889 H2877 0.950 . S
C2889 C2885 1.393 . S
C2889 C2888 1.391 . S
C2890 H2880 0.950 . S
C2890 C2891 1.386 . S
C2890 C2892 1.391 . S
C2891 C2890 1.386 . S
C2891 C2895 1.393 . S
C2892 H2881 0.950 . S
C2892 C2890 1.391 . S
C2892 C2893 1.400 . S
C2893 C2887 1.491 . S
C2893 C2892 1.400 . S
C2893 C2894 1.398 . S
C2894 H2882 0.950 . S
C2894 C2893 1.398 . S
C2894 C2895 1.391 . S
C2895 H2883 0.950 . S
C2895 C2891 1.393 . S
C2895 C2894 1.391 . S
C985 C105 2.342 . S
C991 C346 2.273 . S
C1005 C65 2.089 . S
C1011 C394 2.082 . S
C1025 C73 1.320 . S
C1031 C426 1.321 . S
C1051 C471 1.611 . S
C1045 C92 1.649 . S
C1065 C17 0.962 . S
C1071 C511 0.947 . S
C1091 C546 0.992 . S
C1085 C37 1.005 . S
C1111 C585 1.261 . S
C1105 C49 1.206 . S
C1125 C8 1.244 . S
C1131 C622 1.237 . S
C1151 C354 2.070 . S
C1145 C231 2.035 1_545 S
C1165 C241 0.411 . S
C1171 C391 0.509 . S
C1191 C434 2.405 . S
C1185 C273 2.330 . S
C1211 C466 1.103 . S
C1205 C171 1.107 1_556 S
C1225 C227 1.250 . S
C1231 C506 1.244 . S
C1251 C554 0.340 . S
C1245 C245 0.467 . S
C1271 C595 2.004 1_556 S
C1265 C269 2.102 . S
C1291 C625 2.007 . S
C1285 C175 1.995 . S
C1311 C351 1.357 . S
C1305 C162 1.387 1_554 S
C1325 C289 2.186 . S
C1331 C674 2.163 . S
C1351 C711 1.242 . S
C1345 C330 1.250 . S
C1371 C742 0.628 . S
C1365 C317 0.598 . S
C1385 C120 2.747 . S
C1391 C635 2.704 . S
C1405 C134 1.461 . S
C1411 C431 1.446 . S
C1425 C331 1.755 . S
C1431 C794 1.756 . S
C1451 C826 1.794 . S
C1445 C303 1.812 . S
C1471 C355 2.286 . S
C1465 C59 2.339 . S
C1491 C825 2.130 . S
C1485 C107 2.132 . S
C1505 C91 1.354 . S
C1511 C435 1.372 . S
C1525 C78 1.649 . S
C1531 C782 1.612 . S
C1551 C502 0.985 . S
C1545 C7 0.988 . S
C1565 C51 1.067 . S
C1571 C715 1.063 . S
C1591 C594 1.259 . S
C1585 C31 1.276 . S
C1611 C871 1.247 . S
C1605 C22 1.251 . S
C1631 C345 2.087 1_556 S
C1625 C143 2.091 . S
C1651 C822 0.413 . S
C1645 C315 0.468 . S
C1665 C115 2.457 . S
C1671 C425 2.435 . S
C1685 C287 1.128 . S
C1691 C795 1.155 . S
C1705 C147 1.279 . S
C1711 C515 1.283 . S
C1731 C705 0.449 . S
C1725 C311 0.428 . S
C1745 C119 2.043 . S
C1751 C586 2.054 . S
C1765 C283 2.026 1_556 S
C1771 C874 2.012 . S
C1785 C190 1.359 . S
C1791 C342 1.357 . S
C1805 C177 2.230 . S
C1811 C665 2.218 . S
C1825 C260 1.225 . S
C1831 C542 1.238 . S
C1845 C247 0.581 . S
C1851 C751 0.632 . S
C1871 C866 2.741 . S
C1865 C274 2.781 . S
C1885 C218 1.478 . S
C1891 C422 1.470 . S
C1911 C465 1.783 . S
C1905 C261 1.775 . S
C1931 C395 1.836 . S
C1925 C205 1.859 . S
C1945 C77 2.339 . S
C1951 C906 2.266 . S
C1971 C834 2.083 . S
C1965 C93 2.090 . S
C1985 C101 1.325 . S
C1991 C946 1.313 . S
C2005 C64 1.642 1_655 S
C2011 C791 1.589 . S
C2025 C45 0.957 . S
C2031 C671 0.952 . S
C2051 C706 0.998 . S
C2045 C9 0.997 . S
C2071 C745 1.266 . S
C2065 C21 1.236 . S
C2091 C862 1.234 . S
C2085 C36 1.243 . S
C2111 C914 2.070 . S
C2105 C259 2.036 . S
C2125 C185 0.348 . S
C2131 C831 0.433 . S
C2151 C954 2.408 . S
C2145 C203 2.333 . S
C2171 C786 1.100 . S
C2165 C213 1.108 . S
C2191 C666 1.230 . S
C2185 C255 1.257 . S
C2205 C189 0.475 . S
C2211 C714 0.322 . S
C2231 C755 2.023 . S
C2225 C199 2.103 . S
C2245 C217 1.999 . S
C2251 C865 2.000 . S
C2271 C911 1.357 . S
C2265 C316 1.390 . S
C2285 C135 2.192 . S
C2291 C514 2.172 . S
C2311 C551 1.246 . S
C2305 C148 1.249 . S
C2331 C582 0.649 . S
C2325 C163 0.598 . S
C2351 C875 2.704 . S
C2345 C302 2.746 . S
C2365 C288 1.464 . S
C2371 C951 1.446 . S
C2391 C474 1.747 . S
C2385 C149 1.750 . S
C2411 C386 1.805 . S
C2405 C121 1.814 . S
C2425 C87 2.340 . S
C2431 C915 2.286 . S
C2451 C385 2.137 . S
C2445 C79 2.140 . S
C2465 C63 1.355 . S
C2471 C955 1.357 . S
C2485 C106 1.649 . S
C2491 C462 1.615 . S
C2505 C35 0.979 . S
C2511 C662 0.998 . S
C2531 C555 1.071 . S
C2525 C23 1.057 . S
C2545 C3 1.268 . S
C2551 C754 1.258 . S
C2565 C50 1.255 . S
C2571 C631 1.264 . S
C2591 C905 2.095 . S
C2585 C325 2.094 . S
C2605 C161 0.498 . S
C2611 C382 0.454 . S
C2631 C945 2.399 1_656 S
C2625 C297 2.457 . S
C2645 C133 1.152 . S
C2651 C475 1.144 . S
C2665 C329 1.297 . S
C2671 C675 1.284 . S
C2691 C545 0.422 . S
C2685 C157 0.425 . S
C2705 C301 2.043 . S
C2711 C746 2.053 1_655 S
C2731 C634 2.007 . S
C2725 C129 2.028 . S
C2751 C902 1.325 . S
C2745 C246 1.324 . S
C2771 C505 2.210 1_565 S
C2765 C219 2.229 . S
C2785 C232 1.223 . S
C2791 C702 1.231 . S
C2811 C591 0.590 . S
C2805 C191 0.566 . S
C2825 C204 2.777 . S
C2831 C626 2.742 . S
C2845 C176 1.483 . S
C2851 C942 1.468 . S
C2871 C785 1.790 . S
C2865 C233 1.783 . S
C2891 C835 1.850 . S
C2885 C275 1.853 . S
