# Generated by pormake.
# Topology anh, (6,3)-cn, num edge types: 1
# Building blocks:
#     Node 0, Type 0, BuildingBlock: MIFKUJ_clean_sbu_0, # of connection points: 6
#     Node 1, Type 0, BuildingBlock: MIFKUJ_clean_sbu_0, # of connection points: 6
#     Node 2, Type 0, BuildingBlock: MIFKUJ_clean_sbu_0, # of connection points: 6
#     Node 3, Type 1, BuildingBlock: OLANEW_clean_sbu_2, # of connection points: 3
#     Node 4, Type 1, BuildingBlock: OLANEW_clean_sbu_2, # of connection points: 3
#     Node 5, Type 1, BuildingBlock: OLANEW_clean_sbu_2, # of connection points: 3
#     Node 6, Type 1, BuildingBlock: OLANEW_clean_sbu_2, # of connection points: 3
#     Node 7, Type 1, BuildingBlock: OLANEW_clean_sbu_2, # of connection points: 3
#     Node 8, Type 1, BuildingBlock: OLANEW_clean_sbu_2, # of connection points: 3
#     Edge 9, Type (0, 1), BuildingBlock: XIVTED_clean_linker_0, # of connection points: 2
#     Edge 10, Type (0, 1), BuildingBlock: XIVTED_clean_linker_0, # of connection points: 2
#     Edge 11, Type (0, 1), BuildingBlock: XIVTED_clean_linker_0, # of connection points: 2
#     Edge 12, Type (0, 1), BuildingBlock: XIVTED_clean_linker_0, # of connection points: 2
#     Edge 13, Type (0, 1), BuildingBlock: XIVTED_clean_linker_0, # of connection points: 2
#     Edge 14, Type (0, 1), BuildingBlock: XIVTED_clean_linker_0, # of connection points: 2
#     Edge 15, Type (0, 1), BuildingBlock: XIVTED_clean_linker_0, # of connection points: 2
#     Edge 16, Type (0, 1), BuildingBlock: XIVTED_clean_linker_0, # of connection points: 2
#     Edge 17, Type (0, 1), BuildingBlock: XIVTED_clean_linker_0, # of connection points: 2
#     Edge 18, Type (0, 1), BuildingBlock: XIVTED_clean_linker_0, # of connection points: 2
#     Edge 19, Type (0, 1), BuildingBlock: XIVTED_clean_linker_0, # of connection points: 2
#     Edge 20, Type (0, 1), BuildingBlock: XIVTED_clean_linker_0, # of connection points: 2
#     Edge 21, Type (0, 1), BuildingBlock: XIVTED_clean_linker_0, # of connection points: 2
#     Edge 22, Type (0, 1), BuildingBlock: XIVTED_clean_linker_0, # of connection points: 2
#     Edge 23, Type (0, 1), BuildingBlock: XIVTED_clean_linker_0, # of connection points: 2
#     Edge 24, Type (0, 1), BuildingBlock: XIVTED_clean_linker_0, # of connection points: 2
#     Edge 25, Type (0, 1), BuildingBlock: XIVTED_clean_linker_0, # of connection points: 2
#     Edge 26, Type (0, 1), BuildingBlock: XIVTED_clean_linker_0, # of connection points: 2
# Relax obj value: 0.070
# Max RMSD: 0.127
# Mean RMSD: 0.108
data_MOF--net-anh--node1-MIFKUJ_clean_sbu_0--node2-OLANEW_clean_sbu_2--edge1-XIVTED_clean_linker_0
_symmetry_space_group_name_H-M    P1
_symmetry_Int_Tables_number       1
_symmetry_cell_setting            triclinic
loop_
_symmetry_equiv_pos_as_xyz
'x, y, z'
_cell_length_a     34.108196
_cell_length_b     34.135534
_cell_length_c     48.61435
_cell_angle_alpha  93.427585
_cell_angle_beta   90.771105
_cell_angle_gamma 120.05464
loop_
_atom_site_label
_atom_site_type_symbol
_atom_site_fract_x
_atom_site_fract_y
_atom_site_fract_z
_atom_type_partial_charge
Zn0 Zn 0.02997 0.55934 0.16429 0.0
Zn1 Zn 0.95334 0.46245 0.16433 0.0
C2 C 0.10402 0.54992 0.18303 0.0
O3 O 0.10728 0.58137 0.20142 0.0
C4 C 0.88079 0.47258 0.146 0.0
O5 O 0.8778 0.44018 0.12854 0.0
O6 O 0.07399 0.62613 0.1629 0.0
O7 O 0.99368 0.53889 0.12811 0.0
O8 O 0.98328 0.47 0.12816 0.0
C9 C 0.10056 0.63712 0.14307 0.0
O10 O 0.09529 0.60536 0.12424 0.0
O11 O 0.07116 0.53252 0.16504 0.0
C12 C 0.87846 0.3883 0.18463 0.0
O13 O 0.8849 0.42186 0.20235 0.0
O14 O 0.90685 0.39619 0.16605 0.0
O15 O 0.99189 0.48232 0.19969 0.0
O16 O 0.99873 0.5498 0.20033 0.0
O17 O 0.91414 0.49175 0.16366 0.0
C18 C 0.98864 0.50323 0.11497 0.0
C19 C 0.9969 0.51766 0.21319 0.0
Zn20 Zn 0.54035 0.06203 0.50066 0.0
Zn21 Zn 0.55278 0.97811 0.49768 0.0
C22 C 0.6295 0.12618 0.52054 0.0
O23 O 0.60572 0.1306 0.54027 0.0
C24 C 0.46904 0.9028 0.47859 0.0
O25 O 0.49654 0.90131 0.46042 0.0
O26 O 0.52829 0.114 0.50272 0.0
O27 O 0.51466 0.02681 0.46425 0.0
O28 O 0.56885 0.00993 0.46229 0.0
C29 C 0.50234 0.12035 0.48693 0.0
O30 O 0.47644 0.08872 0.46766 0.0
O31 O 0.60889 0.09531 0.50109 0.0
C32 C 0.59284 0.92433 0.51508 0.0
O33 O 0.60004 0.94674 0.53927 0.0
O34 O 0.57607 0.93424 0.49501 0.0
O35 O 0.57307 0.01296 0.53524 0.0
O36 O 0.51871 0.02968 0.53507 0.0
O37 O 0.48475 0.93587 0.49695 0.0
C38 C 0.54029 0.0174 0.45013 0.0
C39 C 0.54586 0.02155 0.5483 0.0
Zn40 Zn 0.56578 0.53869 0.83256 0.0
Zn41 Zn 0.47044 0.52125 0.83152 0.0
C42 C 0.5504 0.45545 0.85219 0.0
O43 O 0.582 0.4845 0.87039 0.0
C44 C 0.48503 0.6041 0.81329 0.0
O45 O 0.45214 0.57435 0.79601 0.0
O46 O 0.63208 0.55862 0.83171 0.0
O47 O 0.54912 0.55244 0.79606 0.0
O48 O 0.47922 0.49532 0.79541 0.0
C49 C 0.64315 0.54015 0.81218 0.0
O50 O 0.61183 0.5123 0.79345 0.0
O51 O 0.53564 0.4705 0.8338 0.0
C52 C 0.39591 0.52549 0.85123 0.0
O53 O 0.42876 0.55431 0.86887 0.0
O54 O 0.40448 0.50313 0.83284 0.0
O55 O 0.48722 0.50508 0.86726 0.0
O56 O 0.5553 0.5651 0.86809 0.0
O57 O 0.50206 0.5898 0.83078 0.0
C58 C 0.51377 0.5217 0.78257 0.0
C59 C 0.52189 0.53658 0.88087 0.0
O60 O 0.48913 0.02117 0.23237 0.0
Cd61 Cd 0.4897 0.02975 0.18287 0.0
O62 O 0.52384 0.98166 0.22889 0.0
Cd63 Cd 0.4991 0.96238 0.18588 0.0
O64 O 0.43403 0.9182 0.16358 0.0
C65 C 0.40011 0.91759 0.17455 0.0
O66 O 0.40724 0.9451 0.19652 0.0
C67 C 0.50954 0.00334 0.24378 0.0
C68 C 0.57247 0.10688 0.17498 0.0
O69 O 0.53716 0.10957 0.18032 0.0
O70 O 0.56823 0.06735 0.17214 0.0
O71 O 0.54893 0.52117 0.56457 0.0
Cd72 Cd 0.55546 0.51822 0.51463 0.0
O73 O 0.47501 0.49196 0.56156 0.0
Cd74 Cd 0.48115 0.51393 0.51987 0.0
O75 O 0.50894 0.58033 0.50336 0.0
C76 C 0.54158 0.61235 0.51816 0.0
O77 O 0.55675 0.60233 0.54007 0.0
C78 C 0.5112 0.5045 0.57609 0.0
C79 C 0.54523 0.43351 0.49966 0.0
O80 O 0.58431 0.46801 0.50649 0.0
O81 O 0.511 0.43944 0.4988 0.0
O82 O 0.01683 0.53499 0.89716 0.0
Cd83 Cd 0.02868 0.53918 0.84776 0.0
O84 O 0.9781 0.46043 0.89411 0.0
Cd85 Cd 0.96236 0.46159 0.85068 0.0
O86 O 0.91947 0.48093 0.82835 0.0
C87 C 0.91794 0.51457 0.83983 0.0
O88 O 0.94382 0.53585 0.86219 0.0
C89 C 0.99837 0.49791 0.90881 0.0
C90 C 0.10727 0.53492 0.84041 0.0
O91 O 0.1089 0.57292 0.84583 0.0
O92 O 0.0682 0.49887 0.8373 0.0
O93 O 0.05719 0.53899 0.43149 0.0
Cd94 Cd 0.07574 0.54901 0.481 0.0
O95 O 0.98538 0.52057 0.43258 0.0
Cd96 Cd 0.97643 0.49828 0.47438 0.0
O97 O 0.93098 0.43714 0.4949 0.0
C98 C 0.91953 0.39962 0.48133 0.0
O99 O 0.93764 0.40042 0.45753 0.0
C100 C 0.02071 0.5315 0.41918 0.0
C101 C 0.16141 0.62703 0.4887 0.0
O102 O 0.15691 0.58772 0.48338 0.0
O103 O 0.12534 0.62943 0.49154 0.0
O104 O 0.57317 0.02394 0.7693 0.0
Cd105 Cd 0.57095 0.01512 0.81881 0.0
O106 O 0.53134 0.05647 0.76726 0.0
Cd107 Cd 0.52996 0.07483 0.81086 0.0
O108 O 0.52612 0.13124 0.83193 0.0
C109 C 0.49955 0.14173 0.82006 0.0
O110 O 0.47509 0.11655 0.79805 0.0
C111 C 0.55237 0.03884 0.75529 0.0
C112 C 0.55436 0.92724 0.82494 0.0
O113 O 0.52178 0.93525 0.82149 0.0
O114 O 0.59498 0.96105 0.82651 0.0
O115 O 0.52681 0.52672 0.10027 0.0
Cd116 Cd 0.53468 0.52451 0.15002 0.0
O117 O 0.5064 0.57861 0.09911 0.0
Cd118 Cd 0.48232 0.57224 0.14094 0.0
O119 O 0.42131 0.56193 0.16141 0.0
C120 C 0.3838 0.53444 0.14846 0.0
O121 O 0.38442 0.5128 0.12533 0.0
C122 C 0.51895 0.55309 0.08685 0.0
C123 C 0.61088 0.5152 0.15817 0.0
O124 O 0.57116 0.48048 0.15355 0.0
O125 O 0.61452 0.5545 0.16017 0.0
H126 H 0.11204 0.49137 0.14539 0.0
H127 H 0.37001 0.57862 0.19315 0.0
H128 H 0.18142 0.58556 0.21624 0.0
H129 H 0.29896 0.48109 0.12394 0.0
H130 H 0.29932 0.57649 0.20448 0.0
H131 H 0.17798 0.48185 0.13976 0.0
C132 C 0.14091 0.50968 0.15995 0.0
C133 C 0.14129 0.53961 0.18118 0.0
C134 C 0.29912 0.55526 0.18695 0.0
C135 C 0.21715 0.52917 0.17472 0.0
C136 C 0.33949 0.55643 0.18049 0.0
C137 C 0.34058 0.5303 0.15741 0.0
C138 C 0.25953 0.5279 0.17016 0.0
C139 C 0.29989 0.50208 0.14182 0.0
C140 C 0.17863 0.5043 0.15669 0.0
C141 C 0.17967 0.56234 0.19945 0.0
N142 N 0.26119 0.50191 0.14833 0.0
N143 N 0.21616 0.55696 0.19566 0.0
H144 H 0.68146 0.1993 0.55706 0.0
H145 H 0.88465 0.31471 0.45532 0.0
H146 H 0.68726 0.13417 0.47956 0.0
H147 H 0.87028 0.38518 0.52774 0.0
H148 H 0.81883 0.24457 0.46765 0.0
H149 H 0.75677 0.2632 0.55043 0.0
C150 C 0.69879 0.1981 0.5388 0.0
C151 C 0.6777 0.16146 0.51867 0.0
C152 C 0.83028 0.27527 0.48098 0.0
C153 C 0.76402 0.23488 0.51088 0.0
C154 C 0.86796 0.3154 0.47398 0.0
C155 C 0.8828 0.35611 0.49037 0.0
C156 C 0.80714 0.27569 0.50456 0.0
C157 C 0.85988 0.35473 0.51439 0.0
C158 C 0.7418 0.23474 0.535 0.0
C159 C 0.70202 0.16179 0.49553 0.0
N160 N 0.823 0.31527 0.52063 0.0
N161 N 0.7437 0.19813 0.49215 0.0
H162 H 0.4413 0.64068 0.78707 0.0
H163 H 0.6135 0.89832 0.83916 0.0
H164 H 0.55676 0.67757 0.84227 0.0
H165 H 0.47471 0.84872 0.81134 0.0
H166 H 0.59819 0.81978 0.83665 0.0
H167 H 0.45867 0.71927 0.79103 0.0
C168 C 0.47058 0.66538 0.79988 0.0
C169 C 0.49762 0.65246 0.81438 0.0
C170 C 0.57112 0.82622 0.83128 0.0
C171 C 0.51764 0.74281 0.81903 0.0
C172 C 0.57979 0.87095 0.83268 0.0
C173 C 0.54531 0.8801 0.82544 0.0
C174 C 0.52792 0.79057 0.82213 0.0
C175 C 0.50228 0.84333 0.81719 0.0
C176 C 0.48028 0.71025 0.80227 0.0
C177 C 0.53499 0.68607 0.83077 0.0
N178 N 0.49494 0.8003 0.81555 0.0
N179 N 0.54402 0.72983 0.8326 0.0
H180 H 0.79774 0.42349 0.11929 0.0
H181 H 0.69902 0.57985 0.1737 0.0
H182 H 0.87622 0.54126 0.17606 0.0
H183 H 0.61541 0.43895 0.14434 0.0
H184 H 0.76621 0.57119 0.1713 0.0
H185 H 0.73277 0.43433 0.12376 0.0
C186 C 0.8015 0.45193 0.13255 0.0
C187 C 0.84259 0.48153 0.14733 0.0
C188 C 0.73307 0.54219 0.1656 0.0
C189 C 0.76787 0.49402 0.1526 0.0
C190 C 0.69473 0.54706 0.16695 0.0
C191 C 0.6515 0.51006 0.15919 0.0
C192 C 0.72812 0.50026 0.15596 0.0
C193 C 0.64798 0.46839 0.15059 0.0
C194 C 0.76418 0.45788 0.13524 0.0
C195 C 0.84517 0.51762 0.16431 0.0
N196 N 0.68576 0.46476 0.14898 0.0
N197 N 0.80828 0.52298 0.16643 0.0
H198 H 0.43317 0.82032 0.44979 0.0
H199 H 0.18488 0.71455 0.50613 0.0
H200 H 0.39899 0.89558 0.50971 0.0
H201 H 0.24108 0.63414 0.47298 0.0
H202 H 0.25949 0.78314 0.50407 0.0
H203 H 0.3586 0.75391 0.45352 0.0
C204 C 0.40986 0.82306 0.4636 0.0
C205 C 0.42245 0.86366 0.4795 0.0
C206 C 0.25541 0.75039 0.49744 0.0
C207 C 0.33671 0.78733 0.48389 0.0
C208 C 0.21292 0.71127 0.49859 0.0
C209 C 0.20672 0.66852 0.4897 0.0
C210 C 0.29165 0.74671 0.48687 0.0
C211 C 0.24424 0.66629 0.48012 0.0
C212 C 0.36733 0.78494 0.46585 0.0
C213 C 0.39071 0.86493 0.49711 0.0
N214 N 0.2849 0.70482 0.47874 0.0
N215 N 0.34916 0.82729 0.49879 0.0
H216 H 0.58014 0.41367 0.88624 0.0
H217 H 0.44879 0.17441 0.79753 0.0
H218 H 0.48875 0.38603 0.81604 0.0
H219 H 0.55129 0.20643 0.86175 0.0
H220 H 0.45539 0.24826 0.80825 0.0
H221 H 0.56236 0.33475 0.88166 0.0
C222 C 0.55598 0.39093 0.87001 0.0
C223 C 0.53621 0.40666 0.85133 0.0
C224 C 0.47621 0.23904 0.82016 0.0
C225 C 0.51582 0.31614 0.84594 0.0
C226 C 0.47242 0.19678 0.81408 0.0
C227 C 0.49986 0.1843 0.82859 0.0
C228 C 0.50771 0.26924 0.84089 0.0
C229 C 0.52965 0.21469 0.84992 0.0
C230 C 0.54593 0.34584 0.86739 0.0
C231 C 0.50502 0.3755 0.8308 0.0
N232 N 0.53302 0.25588 0.85529 0.0
N233 N 0.49603 0.33184 0.82855 0.0
H234 H 0.62986 0.8937 0.55262 0.0
H235 H 0.51637 0.64657 0.47598 0.0
H236 H 0.56365 0.86025 0.47136 0.0
H237 H 0.6045 0.68776 0.54944 0.0
H238 H 0.53763 0.72586 0.47206 0.0
H239 H 0.62564 0.81999 0.55019 0.0
C240 C 0.61499 0.87113 0.53411 0.0
C241 C 0.59669 0.88301 0.5123 0.0
C242 C 0.55274 0.71759 0.48884 0.0
C243 C 0.5912 0.79831 0.50949 0.0
C244 C 0.54059 0.67231 0.49109 0.0
C245 C 0.55823 0.66042 0.51326 0.0
C246 C 0.5824 0.75109 0.50905 0.0
C247 C 0.58968 0.69525 0.53214 0.0
C248 C 0.61257 0.82901 0.53273 0.0
C249 C 0.578 0.85246 0.48876 0.0
N250 N 0.60031 0.73888 0.5298 0.0
N251 N 0.57519 0.81128 0.48814 0.0
H252 H 0.71606 0.59375 0.84808 0.0
H253 H 0.85428 0.47401 0.79669 0.0
H254 H 0.67406 0.49744 0.77685 0.0
H255 H 0.90258 0.58052 0.86252 0.0
H256 H 0.79157 0.48705 0.78625 0.0
H257 H 0.78794 0.5944 0.85104 0.0
C258 C 0.72213 0.57311 0.83289 0.0
C259 C 0.68879 0.54514 0.81237 0.0
C260 C 0.81619 0.50791 0.80278 0.0
C261 C 0.77085 0.5454 0.81576 0.0
C262 C 0.85204 0.5005 0.80873 0.0
C263 C 0.88341 0.52581 0.83074 0.0
C264 C 0.81155 0.54066 0.81908 0.0
C265 C 0.87895 0.55986 0.84554 0.0
C266 C 0.7632 0.57348 0.83458 0.0
C267 C 0.69864 0.51929 0.79314 0.0
N268 N 0.84341 0.56592 0.83965 0.0
N269 N 0.73856 0.51966 0.79549 0.0
H270 H 0.16833 0.66857 0.10667 0.0
H271 H 0.32105 0.90367 0.19632 0.0
H272 H 0.12432 0.71066 0.17978 0.0
H273 H 0.37225 0.85113 0.13204 0.0
H274 H 0.24487 0.83978 0.18503 0.0
H275 H 0.23883 0.7416 0.11039 0.0
C276 C 0.17321 0.69336 0.12333 0.0
C277 C 0.14054 0.68325 0.14314 0.0
C278 C 0.27269 0.84244 0.17322 0.0
C279 C 0.22134 0.76692 0.14753 0.0
C280 C 0.31624 0.87899 0.1796 0.0
C281 C 0.35325 0.88246 0.16534 0.0
C282 C 0.26598 0.80907 0.1524 0.0
C283 C 0.34481 0.84961 0.14374 0.0
C284 C 0.21356 0.73503 0.12546 0.0
C285 C 0.14869 0.71683 0.16418 0.0
N286 N 0.3021 0.81405 0.13809 0.0
N287 N 0.18845 0.75703 0.16594 0.0
H288 H 0.4473 0.14582 0.46092 0.0
H289 H 0.60843 0.40838 0.50851 0.0
H290 H 0.56599 0.19784 0.516 0.0
H291 H 0.46898 0.35428 0.48026 0.0
H292 H 0.59697 0.33176 0.50458 0.0
H293 H 0.45747 0.22247 0.4621 0.0
C294 C 0.4753 0.17322 0.47332 0.0
C295 C 0.50576 0.16537 0.48843 0.0
C296 C 0.5689 0.33665 0.49916 0.0
C297 C 0.51793 0.25282 0.48946 0.0
C298 C 0.57548 0.38043 0.50122 0.0
C299 C 0.53954 0.38773 0.49483 0.0
C300 C 0.52617 0.2998 0.49039 0.0
C301 C 0.49756 0.35013 0.48552 0.0
C302 C 0.48106 0.21685 0.47397 0.0
C303 C 0.54151 0.20214 0.50412 0.0
N304 N 0.49198 0.30767 0.48358 0.0
N305 N 0.54674 0.24422 0.50407 0.0
H306 H 0.37459 0.58283 0.87982 0.0
H307 H 0.11711 0.46233 0.82317 0.0
H308 H 0.31742 0.46597 0.82076 0.0
H309 H 0.19318 0.60193 0.85645 0.0
H310 H 0.18687 0.45823 0.82569 0.0
H311 H 0.30425 0.58464 0.87606 0.0
C312 C 0.34709 0.55725 0.86622 0.0
C313 C 0.35194 0.5242 0.85055 0.0
C314 C 0.18819 0.48977 0.83225 0.0
C315 C 0.27121 0.52627 0.8461 0.0
C316 C 0.14848 0.49216 0.83083 0.0
C317 C 0.14935 0.53255 0.83962 0.0
C318 C 0.22876 0.52779 0.84296 0.0
C319 C 0.19091 0.57015 0.84938 0.0
C320 C 0.30703 0.55854 0.86394 0.0
C321 C 0.31512 0.49208 0.83318 0.0
N322 N 0.22883 0.56672 0.85099 0.0
N323 N 0.27617 0.49384 0.83144 0.0
H324 H 0.85488 0.30844 0.15401 0.0
H325 H 0.5947 0.19417 0.1898 0.0
H326 H 0.80303 0.3692 0.21259 0.0
H327 H 0.65247 0.11411 0.15853 0.0
H328 H 0.66992 0.26171 0.19204 0.0
H329 H 0.78009 0.23898 0.15028 0.0
C330 C 0.82795 0.30707 0.16622 0.0
C331 C 0.83524 0.34464 0.18368 0.0
C332 C 0.66614 0.22938 0.18462 0.0
C333 C 0.7498 0.26599 0.17908 0.0
C334 C 0.62314 0.19083 0.18315 0.0
C335 C 0.6173 0.14838 0.17404 0.0
C336 C 0.70363 0.22568 0.17667 0.0
C337 C 0.6555 0.14617 0.16577 0.0
C338 C 0.78537 0.26752 0.16405 0.0
C339 C 0.79911 0.34108 0.19896 0.0
N340 N 0.69714 0.18434 0.16725 0.0
N341 N 0.75794 0.30265 0.19613 0.0
H342 H 0.96918 0.42964 0.07933 0.0
H343 H 0.03207 0.57203 0.94592 0.0
H344 H 0.0116 0.57212 0.08139 0.0
H345 H 0.96627 0.42573 0.94115 0.0
H346 H 0.03044 0.57296 0.99603 0.0
H347 H 0.97286 0.42777 0.02903 0.0
C348 C 0.97925 0.4605 0.06922 0.0
C349 C 0.99001 0.50108 0.08458 0.0
C350 C 0.01637 0.54063 0.98405 0.0
C351 C 0.99451 0.4992 0.02716 0.0
C352 C 0.01742 0.54006 0.9554 0.0
C353 C 0.99915 0.49871 0.93927 0.0
C354 C 0.9971 0.49958 0.99677 0.0
C355 C 0.98062 0.45838 0.95277 0.0
C356 C 0.98128 0.45938 0.04053 0.0
C357 C 0.00281 0.54003 0.0704 0.0
N358 N 0.98005 0.45982 0.98077 0.0
N359 N 0.0048 0.53812 0.04253 0.0
H360 H 0.58341 0.99024 0.41298 0.0
H361 H 0.47761 0.04179 0.28153 0.0
H362 H 0.49008 0.04083 0.41789 0.0
H363 H 0.55502 0.97328 0.27538 0.0
H364 H 0.48607 0.04602 0.33166 0.0
H365 H 0.57736 0.98777 0.36263 0.0
C366 C 0.56171 0.0009 0.40349 0.0
C367 C 0.5372 0.01576 0.41969 0.0
C368 C 0.50124 0.03006 0.31937 0.0
C369 C 0.53021 0.01308 0.36214 0.0
C370 C 0.49651 0.02772 0.2907 0.0
C371 C 0.51556 0.00705 0.27419 0.0
C372 C 0.52534 0.01178 0.3317 0.0
C373 C 0.53967 0.98942 0.2873 0.0
C374 C 0.55822 0.9994 0.37476 0.0
C375 C 0.50953 0.02904 0.40626 0.0
N376 N 0.54388 0.99219 0.3153 0.0
N377 N 0.50686 0.02745 0.37829 0.0
H378 H 0.58563 0.56221 0.74974 0.0
H379 H 0.43679 0.46764 0.60787 0.0
H380 H 0.44089 0.4703 0.74612 0.0
H381 H 0.58316 0.53672 0.61339 0.0
H382 H 0.43671 0.46918 0.65829 0.0
H383 H 0.58457 0.55487 0.69954 0.0
C384 C 0.55357 0.54048 0.73838 0.0
C385 C 0.51325 0.51693 0.75215 0.0
C386 C 0.46879 0.48372 0.64841 0.0
C387 C 0.5118 0.50837 0.69455 0.0
C388 C 0.46888 0.48288 0.61964 0.0
C389 C 0.51006 0.50225 0.60637 0.0
C390 C 0.51017 0.50441 0.66398 0.0
C391 C 0.55058 0.52145 0.62269 0.0
C392 C 0.55302 0.53616 0.70969 0.0
C393 C 0.47277 0.48904 0.73633 0.0
N394 N 0.5496 0.5223 0.6506 0.0
N395 N 0.47302 0.4857 0.70832 0.0
H396 H 0.49576 0.04383 0.58234 0.0
H397 H 0.59734 0.00813 0.72187 0.0
H398 H 0.59774 0.00422 0.5838 0.0
H399 H 0.50695 0.06223 0.71906 0.0
H400 H 0.59605 0.0034 0.67139 0.0
H401 H 0.49747 0.0476 0.63256 0.0
C402 C 0.51851 0.03585 0.59321 0.0
C403 C 0.54663 0.02364 0.57879 0.0
C404 C 0.57656 0.01633 0.68187 0.0
C405 C 0.54875 0.02791 0.63647 0.0
C406 C 0.57722 0.019 0.71068 0.0
C407 C 0.55223 0.03564 0.72478 0.0
C408 C 0.55057 0.03021 0.66705 0.0
C409 C 0.52681 0.04925 0.70916 0.0
C410 C 0.51951 0.03808 0.62194 0.0
C411 C 0.57544 0.01374 0.59405 0.0
N412 N 0.52661 0.04617 0.68119 0.0
N413 N 0.57572 0.01605 0.62208 0.0
H414 H 0.47784 0.46718 0.91396 0.0
H415 H 0.53332 0.62037 0.05336 0.0
H416 H 0.56939 0.61185 0.91673 0.0
H417 H 0.51285 0.48478 0.05162 0.0
H418 H 0.53671 0.61737 0.0029 0.0
H419 H 0.47977 0.47208 0.96448 0.0
C420 C 0.49827 0.49997 0.92524 0.0
C421 C 0.5235 0.5392 0.91126 0.0
C422 C 0.53175 0.58848 0.01368 0.0
C423 C 0.52534 0.54503 0.9688 0.0
C424 C 0.52962 0.59005 0.04237 0.0
C425 C 0.52281 0.55276 0.05664 0.0
C426 C 0.52589 0.54894 -0.00078 0.0
C427 C 0.51837 0.51435 0.04143 0.0
C428 C 0.49953 0.50267 0.95398 0.0
C429 C 0.54964 0.58081 0.92681 0.0
N430 N 0.51946 0.51322 0.01349 0.0
N431 N 0.54952 0.58277 0.95483 0.0
H432 H 0.02941 0.4767 0.24542 0.0
H433 H 0.96146 0.54433 0.38762 0.0
H434 H 0.9762 0.56789 0.24984 0.0
H435 H 0.07544 0.52259 0.38199 0.0
H436 H 0.95725 0.54375 0.33712 0.0
H437 H 0.03722 0.48309 0.29587 0.0
C438 C 0.01928 0.49797 0.25705 0.0
C439 C 0.00211 0.5218 0.24354 0.0
C440 C 0.9833 0.53943 0.34706 0.0
C441 C 0.01045 0.52878 0.30105 0.0
C442 C 0.98563 0.53957 0.37577 0.0
C443 C 0.01885 0.53348 0.38896 0.0
C444 C 0.01367 0.53204 0.3315 0.0
C445 C 0.04943 0.52759 0.37266 0.0
C446 C 0.02398 0.50179 0.28575 0.0
C447 C 0.98976 0.54914 0.25953 0.0
N448 N 0.04577 0.52647 0.34474 0.0
N449 N 0.99371 0.55155 0.28755 0.0
loop_
_geom_bond_atom_site_label_1
_geom_bond_atom_site_label_2
_geom_bond_distance
_geom_bond_site_symmetry_2
_ccdc_geom_bond_type
Zn0 O6 1.969 . S
Zn0 O7 1.965 . S
Zn0 O11 2.024 . S
Zn0 O16 1.969 . S
Zn1 O8 1.969 . S
Zn1 O14 1.969 . S
Zn1 O15 1.965 . S
Zn1 O17 2.024 . S
C2 O3 1.229 . S
C2 O11 1.058 . S
O3 C2 1.229 . S
C4 O5 1.229 . S
C4 O17 1.058 . S
O5 C4 1.229 . S
O6 Zn0 1.969 . S
O6 C9 1.267 . S
O7 Zn0 1.965 . S
O7 C18 1.260 1_455 S
O8 Zn1 1.969 . S
O8 C18 1.258 . S
C9 O6 1.267 . S
C9 O10 1.228 . S
O10 C9 1.228 . S
O11 Zn0 2.024 . S
O11 C2 1.058 . S
C12 O13 1.228 . S
C12 O14 1.267 . S
O13 C12 1.228 . S
O14 Zn1 1.969 . S
O14 C12 1.267 . S
O15 Zn1 1.965 . S
O15 C19 1.260 1_655 S
O16 Zn0 1.969 . S
O16 C19 1.258 . S
O17 Zn1 2.024 . S
O17 C4 1.058 . S
C18 O7 1.260 1_655 S
C18 O8 1.258 . S
C19 O15 1.260 1_455 S
C19 O16 1.258 . S
Zn20 O26 1.969 . S
Zn20 O27 1.965 . S
Zn20 O31 2.024 . S
Zn20 O36 1.969 . S
Zn21 O28 1.969 . S
Zn21 O34 1.969 . S
Zn21 O35 1.965 . S
Zn21 O37 2.024 . S
C22 O23 1.229 . S
C22 O31 1.058 . S
O23 C22 1.229 . S
C24 O25 1.229 . S
C24 O37 1.058 . S
O25 C24 1.229 . S
O26 Zn20 1.969 . S
O26 C29 1.267 . S
O27 Zn20 1.965 . S
O27 C38 1.260 . S
O28 Zn21 1.969 . S
O28 C38 1.258 1_565 S
C29 O26 1.267 . S
C29 O30 1.228 . S
O30 C29 1.228 . S
O31 Zn20 2.024 . S
O31 C22 1.058 . S
C32 O33 1.228 . S
C32 O34 1.267 . S
O33 C32 1.228 . S
O34 Zn21 1.969 . S
O34 C32 1.267 . S
O35 Zn21 1.965 . S
O35 C39 1.260 1_565 S
O36 Zn20 1.969 . S
O36 C39 1.258 . S
O37 Zn21 2.024 . S
O37 C24 1.058 . S
C38 O27 1.260 . S
C38 O28 1.258 1_545 S
C39 O35 1.260 1_545 S
C39 O36 1.258 . S
Zn40 O46 1.969 . S
Zn40 O47 1.965 . S
Zn40 O51 2.024 . S
Zn40 O56 1.969 . S
Zn41 O48 1.969 . S
Zn41 O54 1.969 . S
Zn41 O55 1.965 . S
Zn41 O57 2.024 . S
C42 O43 1.229 . S
C42 O51 1.058 . S
O43 C42 1.229 . S
C44 O45 1.229 . S
C44 O57 1.058 . S
O45 C44 1.229 . S
O46 Zn40 1.969 . S
O46 C49 1.267 . S
O47 Zn40 1.965 . S
O47 C58 1.260 . S
O48 Zn41 1.969 . S
O48 C58 1.258 . S
C49 O46 1.267 . S
C49 O50 1.228 . S
O50 C49 1.228 . S
O51 Zn40 2.024 . S
O51 C42 1.058 . S
C52 O53 1.228 . S
C52 O54 1.267 . S
O53 C52 1.228 . S
O54 Zn41 1.969 . S
O54 C52 1.267 . S
O55 Zn41 1.965 . S
O55 C59 1.260 . S
O56 Zn40 1.969 . S
O56 C59 1.258 . S
O57 Zn41 2.024 . S
O57 C44 1.058 . S
C58 O47 1.260 . S
C58 O48 1.258 . S
C59 O55 1.260 . S
C59 O56 1.258 . S
O60 Cd61 2.300 . S
O60 C67 1.275 . S
Cd61 O60 2.300 . S
Cd61 O69 2.381 . S
Cd61 O70 2.378 . S
O62 Cd63 2.385 . S
O62 C67 1.255 1_565 S
Cd63 O62 2.385 . S
Cd63 O64 2.317 . S
O64 Cd63 2.317 . S
O64 C65 1.232 . S
C65 O64 1.232 . S
C65 O66 1.218 . S
O66 C65 1.218 . S
C67 O60 1.275 . S
C67 O62 1.255 1_545 S
C68 O69 1.258 . S
C68 O70 1.256 . S
O69 Cd61 2.381 . S
O69 C68 1.258 . S
O70 Cd61 2.378 . S
O70 C68 1.256 . S
O71 Cd72 2.300 . S
O71 C78 1.275 . S
Cd72 O71 2.300 . S
Cd72 O80 2.381 . S
Cd72 O81 2.378 . S
O73 Cd74 2.385 . S
O73 C78 1.255 . S
Cd74 O73 2.385 . S
Cd74 O75 2.317 . S
O75 Cd74 2.317 . S
O75 C76 1.232 . S
C76 O75 1.232 . S
C76 O77 1.218 . S
O77 C76 1.218 . S
C78 O71 1.275 . S
C78 O73 1.255 . S
C79 O80 1.258 . S
C79 O81 1.256 . S
O80 Cd72 2.381 . S
O80 C79 1.258 . S
O81 Cd72 2.378 . S
O81 C79 1.256 . S
O82 Cd83 2.300 . S
O82 C89 1.275 . S
Cd83 O82 2.300 . S
Cd83 O91 2.381 . S
Cd83 O92 2.378 . S
O84 Cd85 2.385 . S
O84 C89 1.255 1_655 S
Cd85 O84 2.385 . S
Cd85 O86 2.317 . S
O86 Cd85 2.317 . S
O86 C87 1.232 . S
C87 O86 1.232 . S
C87 O88 1.218 . S
O88 C87 1.218 . S
C89 O82 1.275 . S
C89 O84 1.255 1_455 S
C90 O91 1.258 . S
C90 O92 1.256 . S
O91 Cd83 2.381 . S
O91 C90 1.258 . S
O92 Cd83 2.378 . S
O92 C90 1.256 . S
O93 Cd94 2.300 . S
O93 C100 1.275 . S
Cd94 O93 2.300 . S
Cd94 O102 2.381 . S
Cd94 O103 2.378 . S
O95 Cd96 2.385 . S
O95 C100 1.255 1_655 S
Cd96 O95 2.385 . S
Cd96 O97 2.317 . S
O97 Cd96 2.317 . S
O97 C98 1.232 . S
C98 O97 1.232 . S
C98 O99 1.218 . S
O99 C98 1.218 . S
C100 O93 1.275 . S
C100 O95 1.255 1_455 S
C101 O102 1.258 . S
C101 O103 1.256 . S
O102 Cd94 2.381 . S
O102 C101 1.258 . S
O103 Cd94 2.378 . S
O103 C101 1.256 . S
O104 Cd105 2.300 . S
O104 C111 1.275 1_565 S
Cd105 O104 2.300 . S
Cd105 O113 2.381 . S
Cd105 O114 2.378 . S
O106 Cd107 2.385 . S
O106 C111 1.255 . S
Cd107 O106 2.385 . S
Cd107 O108 2.317 . S
O108 Cd107 2.317 . S
O108 C109 1.232 . S
C109 O108 1.232 . S
C109 O110 1.218 . S
O110 C109 1.218 . S
C111 O104 1.275 1_545 S
C111 O106 1.255 . S
C112 O113 1.258 . S
C112 O114 1.256 . S
O113 Cd105 2.381 . S
O113 C112 1.258 . S
O114 Cd105 2.378 . S
O114 C112 1.256 . S
O115 Cd116 2.300 . S
O115 C122 1.275 . S
Cd116 O115 2.300 . S
Cd116 O124 2.381 . S
Cd116 O125 2.378 . S
O117 Cd118 2.385 . S
O117 C122 1.255 . S
Cd118 O117 2.385 . S
Cd118 O119 2.317 . S
O119 Cd118 2.317 . S
O119 C120 1.232 . S
C120 O119 1.232 . S
C120 O121 1.218 . S
O121 C120 1.218 . S
C122 O115 1.275 . S
C122 O117 1.255 . S
C123 O124 1.258 . S
C123 O125 1.256 . S
O124 Cd116 2.381 . S
O124 C123 1.258 . S
O125 Cd116 2.378 . S
O125 C123 1.256 . S
H126 C132 0.930 . S
H127 C136 0.930 . S
H128 C141 0.929 . S
H129 C139 0.929 . S
H130 C134 0.929 . S
H131 C140 0.929 . S
C132 H126 0.930 . S
C132 C133 1.367 . S
C132 C140 1.378 . S
C133 C132 1.367 . S
C133 C141 1.433 . S
C134 H130 0.929 . S
C134 C136 1.378 . S
C134 C138 1.350 . S
C135 C138 1.463 . S
C135 C140 1.350 . S
C135 N143 1.427 . S
C136 H127 0.930 . S
C136 C134 1.378 . S
C136 C137 1.367 . S
C137 C136 1.367 . S
C137 C139 1.433 . S
C138 C134 1.350 . S
C138 C135 1.463 . S
C138 N142 1.427 . S
C139 H129 0.929 . S
C139 C137 1.433 . S
C139 N142 1.384 . S
C140 H131 0.929 . S
C140 C132 1.378 . S
C140 C135 1.350 . S
C141 H128 0.929 . S
C141 C133 1.433 . S
C141 N143 1.384 . S
N142 C138 1.427 . S
N142 C139 1.384 . S
N143 C135 1.427 . S
N143 C141 1.384 . S
H144 C150 0.930 . S
H145 C154 0.930 . S
H146 C159 0.929 . S
H147 C157 0.929 . S
H148 C152 0.929 . S
H149 C158 0.929 . S
C150 H144 0.930 . S
C150 C151 1.367 . S
C150 C158 1.378 . S
C151 C150 1.367 . S
C151 C159 1.433 . S
C152 H148 0.929 . S
C152 C154 1.378 . S
C152 C156 1.350 . S
C153 C156 1.463 . S
C153 C158 1.350 . S
C153 N161 1.427 . S
C154 H145 0.930 . S
C154 C152 1.378 . S
C154 C155 1.367 . S
C155 C154 1.367 . S
C155 C157 1.433 . S
C156 C152 1.350 . S
C156 C153 1.463 . S
C156 N160 1.427 . S
C157 H147 0.929 . S
C157 C155 1.433 . S
C157 N160 1.384 . S
C158 H149 0.929 . S
C158 C150 1.378 . S
C158 C153 1.350 . S
C159 H146 0.929 . S
C159 C151 1.433 . S
C159 N161 1.384 . S
N160 C156 1.427 . S
N160 C157 1.384 . S
N161 C153 1.427 . S
N161 C159 1.384 . S
H162 C168 0.930 . S
H163 C172 0.930 . S
H164 C177 0.929 . S
H165 C175 0.929 . S
H166 C170 0.929 . S
H167 C176 0.929 . S
C168 H162 0.930 . S
C168 C169 1.367 . S
C168 C176 1.378 . S
C169 C168 1.367 . S
C169 C177 1.433 . S
C170 H166 0.929 . S
C170 C172 1.378 . S
C170 C174 1.350 . S
C171 C174 1.463 . S
C171 C176 1.350 . S
C171 N179 1.427 . S
C172 H163 0.930 . S
C172 C170 1.378 . S
C172 C173 1.367 . S
C173 C172 1.367 . S
C173 C175 1.433 . S
C174 C170 1.350 . S
C174 C171 1.463 . S
C174 N178 1.427 . S
C175 H165 0.929 . S
C175 C173 1.433 . S
C175 N178 1.384 . S
C176 H167 0.929 . S
C176 C168 1.378 . S
C176 C171 1.350 . S
C177 H164 0.929 . S
C177 C169 1.433 . S
C177 N179 1.384 . S
N178 C174 1.427 . S
N178 C175 1.384 . S
N179 C171 1.427 . S
N179 C177 1.384 . S
H180 C186 0.930 . S
H181 C190 0.930 . S
H182 C195 0.929 . S
H183 C193 0.929 . S
H184 C188 0.929 . S
H185 C194 0.929 . S
C186 H180 0.930 . S
C186 C187 1.367 . S
C186 C194 1.378 . S
C187 C186 1.367 . S
C187 C195 1.433 . S
C188 H184 0.929 . S
C188 C190 1.378 . S
C188 C192 1.350 . S
C189 C192 1.463 . S
C189 C194 1.350 . S
C189 N197 1.427 . S
C190 H181 0.930 . S
C190 C188 1.378 . S
C190 C191 1.367 . S
C191 C190 1.367 . S
C191 C193 1.433 . S
C192 C188 1.350 . S
C192 C189 1.463 . S
C192 N196 1.427 . S
C193 H183 0.929 . S
C193 C191 1.433 . S
C193 N196 1.384 . S
C194 H185 0.929 . S
C194 C186 1.378 . S
C194 C189 1.350 . S
C195 H182 0.929 . S
C195 C187 1.433 . S
C195 N197 1.384 . S
N196 C192 1.427 . S
N196 C193 1.384 . S
N197 C189 1.427 . S
N197 C195 1.384 . S
H198 C204 0.930 . S
H199 C208 0.930 . S
H200 C213 0.929 . S
H201 C211 0.929 . S
H202 C206 0.929 . S
H203 C212 0.929 . S
C204 H198 0.930 . S
C204 C205 1.367 . S
C204 C212 1.378 . S
C205 C204 1.367 . S
C205 C213 1.433 . S
C206 H202 0.929 . S
C206 C208 1.378 . S
C206 C210 1.350 . S
C207 C210 1.463 . S
C207 C212 1.350 . S
C207 N215 1.427 . S
C208 H199 0.930 . S
C208 C206 1.378 . S
C208 C209 1.367 . S
C209 C208 1.367 . S
C209 C211 1.433 . S
C210 C206 1.350 . S
C210 C207 1.463 . S
C210 N214 1.427 . S
C211 H201 0.929 . S
C211 C209 1.433 . S
C211 N214 1.384 . S
C212 H203 0.929 . S
C212 C204 1.378 . S
C212 C207 1.350 . S
C213 H200 0.929 . S
C213 C205 1.433 . S
C213 N215 1.384 . S
N214 C210 1.427 . S
N214 C211 1.384 . S
N215 C207 1.427 . S
N215 C213 1.384 . S
H216 C222 0.930 . S
H217 C226 0.930 . S
H218 C231 0.929 . S
H219 C229 0.929 . S
H220 C224 0.929 . S
H221 C230 0.929 . S
C222 H216 0.930 . S
C222 C223 1.367 . S
C222 C230 1.378 . S
C223 C222 1.367 . S
C223 C231 1.433 . S
C224 H220 0.929 . S
C224 C226 1.378 . S
C224 C228 1.350 . S
C225 C228 1.463 . S
C225 C230 1.350 . S
C225 N233 1.427 . S
C226 H217 0.930 . S
C226 C224 1.378 . S
C226 C227 1.367 . S
C227 C226 1.367 . S
C227 C229 1.433 . S
C228 C224 1.350 . S
C228 C225 1.463 . S
C228 N232 1.427 . S
C229 H219 0.929 . S
C229 C227 1.433 . S
C229 N232 1.384 . S
C230 H221 0.929 . S
C230 C222 1.378 . S
C230 C225 1.350 . S
C231 H218 0.929 . S
C231 C223 1.433 . S
C231 N233 1.384 . S
N232 C228 1.427 . S
N232 C229 1.384 . S
N233 C225 1.427 . S
N233 C231 1.384 . S
H234 C240 0.930 . S
H235 C244 0.930 . S
H236 C249 0.929 . S
H237 C247 0.929 . S
H238 C242 0.929 . S
H239 C248 0.929 . S
C240 H234 0.930 . S
C240 C241 1.367 . S
C240 C248 1.378 . S
C241 C240 1.367 . S
C241 C249 1.433 . S
C242 H238 0.929 . S
C242 C244 1.378 . S
C242 C246 1.350 . S
C243 C246 1.463 . S
C243 C248 1.350 . S
C243 N251 1.427 . S
C244 H235 0.930 . S
C244 C242 1.378 . S
C244 C245 1.367 . S
C245 C244 1.367 . S
C245 C247 1.433 . S
C246 C242 1.350 . S
C246 C243 1.463 . S
C246 N250 1.427 . S
C247 H237 0.929 . S
C247 C245 1.433 . S
C247 N250 1.384 . S
C248 H239 0.929 . S
C248 C240 1.378 . S
C248 C243 1.350 . S
C249 H236 0.929 . S
C249 C241 1.433 . S
C249 N251 1.384 . S
N250 C246 1.427 . S
N250 C247 1.384 . S
N251 C243 1.427 . S
N251 C249 1.384 . S
H252 C258 0.930 . S
H253 C262 0.930 . S
H254 C267 0.929 . S
H255 C265 0.929 . S
H256 C260 0.929 . S
H257 C266 0.929 . S
C258 H252 0.930 . S
C258 C259 1.367 . S
C258 C266 1.378 . S
C259 C258 1.367 . S
C259 C267 1.433 . S
C260 H256 0.929 . S
C260 C262 1.378 . S
C260 C264 1.350 . S
C261 C264 1.463 . S
C261 C266 1.350 . S
C261 N269 1.427 . S
C262 H253 0.930 . S
C262 C260 1.378 . S
C262 C263 1.367 . S
C263 C262 1.367 . S
C263 C265 1.433 . S
C264 C260 1.350 . S
C264 C261 1.463 . S
C264 N268 1.427 . S
C265 H255 0.929 . S
C265 C263 1.433 . S
C265 N268 1.384 . S
C266 H257 0.929 . S
C266 C258 1.378 . S
C266 C261 1.350 . S
C267 H254 0.929 . S
C267 C259 1.433 . S
C267 N269 1.384 . S
N268 C264 1.427 . S
N268 C265 1.384 . S
N269 C261 1.427 . S
N269 C267 1.384 . S
H270 C276 0.930 . S
H271 C280 0.930 . S
H272 C285 0.929 . S
H273 C283 0.929 . S
H274 C278 0.929 . S
H275 C284 0.929 . S
C276 H270 0.930 . S
C276 C277 1.367 . S
C276 C284 1.378 . S
C277 C276 1.367 . S
C277 C285 1.433 . S
C278 H274 0.929 . S
C278 C280 1.378 . S
C278 C282 1.350 . S
C279 C282 1.463 . S
C279 C284 1.350 . S
C279 N287 1.427 . S
C280 H271 0.930 . S
C280 C278 1.378 . S
C280 C281 1.367 . S
C281 C280 1.367 . S
C281 C283 1.433 . S
C282 C278 1.350 . S
C282 C279 1.463 . S
C282 N286 1.427 . S
C283 H273 0.929 . S
C283 C281 1.433 . S
C283 N286 1.384 . S
C284 H275 0.929 . S
C284 C276 1.378 . S
C284 C279 1.350 . S
C285 H272 0.929 . S
C285 C277 1.433 . S
C285 N287 1.384 . S
N286 C282 1.427 . S
N286 C283 1.384 . S
N287 C279 1.427 . S
N287 C285 1.384 . S
H288 C294 0.930 . S
H289 C298 0.930 . S
H290 C303 0.929 . S
H291 C301 0.929 . S
H292 C296 0.929 . S
H293 C302 0.929 . S
C294 H288 0.930 . S
C294 C295 1.367 . S
C294 C302 1.378 . S
C295 C294 1.367 . S
C295 C303 1.433 . S
C296 H292 0.929 . S
C296 C298 1.378 . S
C296 C300 1.350 . S
C297 C300 1.463 . S
C297 C302 1.350 . S
C297 N305 1.427 . S
C298 H289 0.930 . S
C298 C296 1.378 . S
C298 C299 1.367 . S
C299 C298 1.367 . S
C299 C301 1.433 . S
C300 C296 1.350 . S
C300 C297 1.463 . S
C300 N304 1.427 . S
C301 H291 0.929 . S
C301 C299 1.433 . S
C301 N304 1.384 . S
C302 H293 0.929 . S
C302 C294 1.378 . S
C302 C297 1.350 . S
C303 H290 0.929 . S
C303 C295 1.433 . S
C303 N305 1.384 . S
N304 C300 1.427 . S
N304 C301 1.384 . S
N305 C297 1.427 . S
N305 C303 1.384 . S
H306 C312 0.930 . S
H307 C316 0.930 . S
H308 C321 0.929 . S
H309 C319 0.929 . S
H310 C314 0.929 . S
H311 C320 0.929 . S
C312 H306 0.930 . S
C312 C313 1.367 . S
C312 C320 1.378 . S
C313 C312 1.367 . S
C313 C321 1.433 . S
C314 H310 0.929 . S
C314 C316 1.378 . S
C314 C318 1.350 . S
C315 C318 1.463 . S
C315 C320 1.350 . S
C315 N323 1.427 . S
C316 H307 0.930 . S
C316 C314 1.378 . S
C316 C317 1.367 . S
C317 C316 1.367 . S
C317 C319 1.433 . S
C318 C314 1.350 . S
C318 C315 1.463 . S
C318 N322 1.427 . S
C319 H309 0.929 . S
C319 C317 1.433 . S
C319 N322 1.384 . S
C320 H311 0.929 . S
C320 C312 1.378 . S
C320 C315 1.350 . S
C321 H308 0.929 . S
C321 C313 1.433 . S
C321 N323 1.384 . S
N322 C318 1.427 . S
N322 C319 1.384 . S
N323 C315 1.427 . S
N323 C321 1.384 . S
H324 C330 0.930 . S
H325 C334 0.930 . S
H326 C339 0.929 . S
H327 C337 0.929 . S
H328 C332 0.929 . S
H329 C338 0.929 . S
C330 H324 0.930 . S
C330 C331 1.367 . S
C330 C338 1.378 . S
C331 C330 1.367 . S
C331 C339 1.433 . S
C332 H328 0.929 . S
C332 C334 1.378 . S
C332 C336 1.350 . S
C333 C336 1.463 . S
C333 C338 1.350 . S
C333 N341 1.427 . S
C334 H325 0.930 . S
C334 C332 1.378 . S
C334 C335 1.367 . S
C335 C334 1.367 . S
C335 C337 1.433 . S
C336 C332 1.350 . S
C336 C333 1.463 . S
C336 N340 1.427 . S
C337 H327 0.929 . S
C337 C335 1.433 . S
C337 N340 1.384 . S
C338 H329 0.929 . S
C338 C330 1.378 . S
C338 C333 1.350 . S
C339 H326 0.929 . S
C339 C331 1.433 . S
C339 N341 1.384 . S
N340 C336 1.427 . S
N340 C337 1.384 . S
N341 C333 1.427 . S
N341 C339 1.384 . S
H342 C348 0.930 . S
H343 C352 0.930 . S
H344 C357 0.929 . S
H345 C355 0.929 . S
H346 C350 0.929 1_554 S
H347 C356 0.929 . S
C348 H342 0.930 . S
C348 C349 1.367 1_655 S
C348 C356 1.378 . S
C349 C348 1.367 1_455 S
C349 C357 1.433 . S
C350 H346 0.929 1_556 S
C350 C352 1.378 . S
C350 C354 1.350 1_556 S
C351 C354 1.463 . S
C351 C356 1.350 1_455 S
C351 N359 1.427 . S
C352 H343 0.930 . S
C352 C350 1.378 . S
C352 C353 1.367 . S
C353 C352 1.367 . S
C353 C355 1.433 1_455 S
C354 C350 1.350 1_554 S
C354 C351 1.463 . S
C354 N358 1.427 1_454 S
C355 H345 0.929 . S
C355 C353 1.433 1_655 S
C355 N358 1.384 . S
C356 H347 0.929 . S
C356 C348 1.378 . S
C356 C351 1.350 1_655 S
C357 H344 0.929 . S
C357 C349 1.433 . S
C357 N359 1.384 . S
N358 C354 1.427 1_656 S
N358 C355 1.384 . S
N359 C351 1.427 . S
N359 C357 1.384 . S
H360 C366 0.930 . S
H361 C370 0.930 . S
H362 C375 0.929 . S
H363 C373 0.929 1_565 S
H364 C368 0.929 . S
H365 C374 0.934 . S
C366 H360 0.930 . S
C366 C367 1.367 1_565 S
C366 C374 1.379 . S
C367 C366 1.367 1_545 S
C367 C375 1.433 . S
C368 H364 0.929 . S
C368 C370 1.378 . S
C368 C372 1.350 . S
C369 C372 1.463 . S
C369 C374 1.343 1_545 S
C369 N377 1.427 . S
C370 H361 0.930 . S
C370 C368 1.378 . S
C370 C371 1.367 . S
C371 C370 1.367 . S
C371 C373 1.433 . S
C372 C368 1.350 . S
C372 C369 1.463 . S
C372 N376 1.444 . S
C373 H363 0.929 1_545 S
C373 C371 1.433 . S
C373 N376 1.387 . S
C374 H365 0.934 . S
C374 C366 1.379 . S
C374 C369 1.343 1_565 S
C375 H362 0.929 . S
C375 C367 1.433 . S
C375 N377 1.384 . S
N376 C372 1.444 . S
N376 C373 1.387 . S
N377 C369 1.427 . S
N377 C375 1.384 . S
H378 C384 0.930 . S
H379 C388 0.930 . S
H380 C393 0.929 . S
H381 C391 0.929 . S
H382 C386 0.929 . S
H383 C392 0.929 . S
C384 H378 0.930 . S
C384 C385 1.367 . S
C384 C392 1.378 . S
C385 C384 1.367 . S
C385 C393 1.433 . S
C386 H382 0.929 . S
C386 C388 1.378 . S
C386 C390 1.350 . S
C387 C390 1.463 . S
C387 C392 1.350 . S
C387 N395 1.427 . S
C388 H379 0.930 . S
C388 C386 1.378 . S
C388 C389 1.367 . S
C389 C388 1.367 . S
C389 C391 1.433 . S
C390 C386 1.350 . S
C390 C387 1.463 . S
C390 N394 1.427 . S
C391 H381 0.929 . S
C391 C389 1.433 . S
C391 N394 1.384 . S
C392 H383 0.929 . S
C392 C384 1.378 . S
C392 C387 1.350 . S
C393 H380 0.929 . S
C393 C385 1.433 . S
C393 N395 1.384 . S
N394 C390 1.427 . S
N394 C391 1.384 . S
N395 C387 1.427 . S
N395 C393 1.384 . S
H396 C402 0.930 . S
H397 C406 0.930 . S
H398 C411 0.929 . S
H399 C409 0.929 . S
H400 C404 0.929 . S
H401 C410 0.929 . S
C402 H396 0.930 . S
C402 C403 1.367 . S
C402 C410 1.378 . S
C403 C402 1.367 . S
C403 C411 1.433 1_545 S
C404 H400 0.929 . S
C404 C406 1.378 . S
C404 C408 1.350 1_565 S
C405 C408 1.463 . S
C405 C410 1.350 . S
C405 N413 1.427 1_545 S
C406 H397 0.930 . S
C406 C404 1.378 . S
C406 C407 1.367 1_565 S
C407 C406 1.367 1_545 S
C407 C409 1.433 . S
C408 C404 1.350 1_545 S
C408 C405 1.463 . S
C408 N412 1.427 . S
C409 H399 0.929 . S
C409 C407 1.433 . S
C409 N412 1.384 . S
C410 H401 0.929 . S
C410 C402 1.378 . S
C410 C405 1.350 . S
C411 H398 0.929 . S
C411 C403 1.433 1_565 S
C411 N413 1.384 . S
N412 C408 1.427 . S
N412 C409 1.384 . S
N413 C405 1.427 1_565 S
N413 C411 1.384 . S
H414 C420 0.930 . S
H415 C424 0.930 . S
H416 C429 0.929 . S
H417 C427 0.929 . S
H418 C422 0.929 1_556 S
H419 C428 0.929 . S
C420 H414 0.930 . S
C420 C421 1.367 . S
C420 C428 1.378 . S
C421 C420 1.367 . S
C421 C429 1.433 . S
C422 H418 0.929 1_554 S
C422 C424 1.378 . S
C422 C426 1.350 1_554 S
C423 C426 1.463 . S
C423 C428 1.350 . S
C423 N431 1.427 . S
C424 H415 0.930 . S
C424 C422 1.378 . S
C424 C425 1.367 . S
C425 C424 1.367 . S
C425 C427 1.433 . S
C426 C422 1.350 1_556 S
C426 C423 1.463 . S
C426 N430 1.427 1_556 S
C427 H417 0.929 . S
C427 C425 1.433 . S
C427 N430 1.384 . S
C428 H419 0.929 . S
C428 C420 1.378 . S
C428 C423 1.350 . S
C429 H416 0.929 . S
C429 C421 1.433 . S
C429 N431 1.384 . S
N430 C426 1.427 1_554 S
N430 C427 1.384 . S
N431 C423 1.427 . S
N431 C429 1.384 . S
H432 C438 0.930 . S
H433 C442 0.930 . S
H434 C447 0.929 . S
H435 C445 0.919 . S
H436 C440 0.929 . S
H437 C446 0.942 . S
C438 H432 0.930 . S
C438 C439 1.367 . S
C438 C446 1.378 . S
C439 C438 1.367 . S
C439 C447 1.433 . S
C440 H436 0.929 . S
C440 C442 1.378 . S
C440 C444 1.350 . S
C441 C444 1.463 . S
C441 C446 1.350 . S
C441 N449 1.427 . S
C442 H433 0.930 . S
C442 C440 1.378 . S
C442 C443 1.367 . S
C443 C442 1.367 . S
C443 C445 1.443 . S
C444 C440 1.350 . S
C444 C441 1.463 . S
C444 N448 1.427 . S
C445 H435 0.919 . S
C445 C443 1.443 . S
C445 N448 1.384 . S
C446 H437 0.942 . S
C446 C438 1.378 . S
C446 C441 1.350 . S
C447 H434 0.929 . S
C447 C439 1.433 . S
C447 N449 1.384 . S
N448 C444 1.427 . S
N448 C445 1.384 . S
N449 C441 1.427 . S
N449 C447 1.384 . S
C133 C2 1.523 . S
C137 C120 1.381 . S
C151 C22 1.522 . S
C155 C98 1.396 . S
C169 C44 1.277 . S
C173 C112 1.337 . S
C187 C4 1.403 . S
C191 C123 1.462 . S
C209 C101 1.461 . S
C205 C24 1.414 . S
C227 C109 1.475 . S
C223 C42 1.619 . S
C241 C32 1.455 . S
C245 C76 1.255 . S
C259 C49 1.387 . S
C263 C87 1.202 . S
C277 C9 1.383 . S
C281 C65 1.191 . S
C299 C79 1.111 . S
C295 C29 1.108 . S
C317 C90 1.181 . S
C313 C52 1.159 . S
C331 C12 1.159 . S
C335 C68 1.160 . S
C353 C89 1.412 . S
C349 C18 1.459 1_455 S
C367 C38 1.463 . S
C371 C67 1.423 . S
C385 C58 1.475 . S
C389 C78 1.415 . S
C407 C111 1.456 . S
C403 C39 1.508 . S
C425 C122 1.466 . S
C421 C59 1.516 . S
C439 C19 1.518 1_655 S
C443 C100 1.460 1_655 S
