# Generated by pormake.
# Topology pth, (4,4)-cn, num edge types: 1
# Building blocks:
#     Node 0, Type 0, BuildingBlock: NAHDIM_clean_sbu_0, # of connection points: 4
#     Node 1, Type 0, BuildingBlock: NAHDIM_clean_sbu_0, # of connection points: 4
#     Node 2, Type 0, BuildingBlock: NAHDIM_clean_sbu_0, # of connection points: 4
#     Node 3, Type 1, BuildingBlock: MUDLON_clean_sbu_0, # of connection points: 4
#     Node 4, Type 1, BuildingBlock: MUDLON_clean_sbu_0, # of connection points: 4
#     Node 5, Type 1, BuildingBlock: MUDLON_clean_sbu_0, # of connection points: 4
#     Edge 6, Type (0, 1), BuildingBlock: UVAHIK_clean_linker_0, # of connection points: 2
#     Edge 7, Type (0, 1), BuildingBlock: UVAHIK_clean_linker_0, # of connection points: 2
#     Edge 8, Type (0, 1), BuildingBlock: UVAHIK_clean_linker_0, # of connection points: 2
#     Edge 9, Type (0, 1), BuildingBlock: UVAHIK_clean_linker_0, # of connection points: 2
#     Edge 10, Type (0, 1), BuildingBlock: UVAHIK_clean_linker_0, # of connection points: 2
#     Edge 11, Type (0, 1), BuildingBlock: UVAHIK_clean_linker_0, # of connection points: 2
#     Edge 12, Type (0, 1), BuildingBlock: UVAHIK_clean_linker_0, # of connection points: 2
#     Edge 13, Type (0, 1), BuildingBlock: UVAHIK_clean_linker_0, # of connection points: 2
#     Edge 14, Type (0, 1), BuildingBlock: UVAHIK_clean_linker_0, # of connection points: 2
#     Edge 15, Type (0, 1), BuildingBlock: UVAHIK_clean_linker_0, # of connection points: 2
#     Edge 16, Type (0, 1), BuildingBlock: UVAHIK_clean_linker_0, # of connection points: 2
#     Edge 17, Type (0, 1), BuildingBlock: UVAHIK_clean_linker_0, # of connection points: 2
# Relax obj value: 0.076
# Max RMSD: 0.190
# Mean RMSD: 0.122
data_MOF--net-pth--node1-NAHDIM_clean_sbu_0--node2-MUDLON_clean_sbu_0--edge1-UVAHIK_clean_linker_0
_symmetry_space_group_name_H-M    P1
_symmetry_Int_Tables_number       1
_symmetry_cell_setting            triclinic
loop_
_symmetry_equiv_pos_as_xyz
'x, y, z'
_cell_length_a     29.150313
_cell_length_b     29.255334
_cell_length_c     76.432802
_cell_angle_alpha  91.988392
_cell_angle_beta   90.018868
_cell_angle_gamma 120.45479
loop_
_atom_site_label
_atom_site_type_symbol
_atom_site_fract_x
_atom_site_fract_y
_atom_site_fract_z
_atom_type_partial_charge
C0 C 0.09502 0.03473 0.12435 0.0
O1 O 0.10485 0.08177 0.13007 0.0
O2 O 0.04061 0.11017 0.10963 0.0
Zn3 Zn 0.05281 0.05995 0.09416 0.0
O4 O 0.98425 0.0098 0.08087 0.0
C5 C 0.15535 0.14083 0.08084 0.0
O6 O 0.16562 0.15823 0.09727 0.0
O7 O 0.07344 0.01727 0.10926 0.0
C8 C 0.97524 0.01982 0.0656 0.0
O9 O 0.01116 0.06355 0.05842 0.0
C10 C 0.03412 0.14645 0.10355 0.0
O11 O 0.03613 0.15242 0.08656 0.0
O12 O 0.11058 0.10017 0.07675 0.0
C13 C 0.08283 0.19534 0.41425 0.0
O14 O 0.0824 0.20438 0.43119 0.0
O15 O 0.03547 0.02403 0.40819 0.0
Zn16 Zn 0.05594 0.08859 0.424 0.0
O17 O 0.99648 0.07472 0.44046 0.0
C18 C 0.16432 0.11436 0.43324 0.0
O19 O 0.17017 0.11224 0.41624 0.0
O20 O 0.0727 0.14972 0.40858 0.0
C21 C 0.94725 0.0511 0.43632 0.0
O22 O 0.93219 0.03466 0.41999 0.0
C23 C 0.02767 0.98007 0.4136 0.0
O24 O 0.0326 0.97531 0.43042 0.0
O25 O 0.11996 0.10582 0.43908 0.0
C26 C 0.09728 0.01565 0.74067 0.0
O27 O 0.11139 0.01526 0.75696 0.0
O28 O 0.96962 0.0576 0.74473 0.0
Zn29 Zn 0.02051 0.04004 0.75658 0.0
O30 O 0.072 0.10297 0.77205 0.0
C31 C 0.93319 0.95837 0.77594 0.0
O32 O 0.9078 0.98141 0.77013 0.0
O33 O 0.06003 0.02507 0.73763 0.0
C34 C 0.05566 0.11262 0.78636 0.0
O35 O 0.00578 0.08154 0.79058 0.0
C36 C 0.9872 0.09157 0.73288 0.0
O37 O 0.0378 0.11444 0.72897 0.0
O38 O 0.98124 0.97598 0.7716 0.0
Mg39 Mg 0.05728 0.57594 0.25939 0.0
C40 C 0.11767 0.57184 0.29189 0.0
O41 O 0.11472 0.61321 0.29752 0.0
C42 C 0.11556 0.68825 0.24701 0.0
O43 O 0.1037 0.69749 0.26283 0.0
C44 C 0.00537 0.51257 0.22575 0.0
O45 O 0.02056 0.56026 0.22036 0.0
O46 O 0.01144 0.50696 0.24186 0.0
O47 O 0.10095 0.55255 0.27648 0.0
O48 O 0.01128 0.60092 0.27527 0.0
C49 C 0.99404 0.58395 0.29037 0.0
O50 O 0.99764 0.54403 0.29609 0.0
O51 O 0.10523 0.6416 0.24263 0.0
Mg52 Mg 0.54012 0.07251 0.59041 0.0
C53 C 0.53547 0.12907 0.55867 0.0
O54 O 0.57029 0.11618 0.55318 0.0
C55 C 0.59693 0.10911 0.62551 0.0
O56 O 0.54788 0.07826 0.63056 0.0
C57 C 0.42472 0.01661 0.60118 0.0
O58 O 0.4198 0.03514 0.58632 0.0
O59 O 0.46959 0.02224 0.60535 0.0
O60 O 0.51951 0.1197 0.57433 0.0
O61 O 0.56548 0.03045 0.57237 0.0
C62 C 0.61033 0.03406 0.57503 0.0
O63 O 0.63681 0.0574 0.58966 0.0
O64 O 0.60535 0.11794 0.6093 0.0
Mg65 Mg 0.54175 0.55022 0.92622 0.0
C66 C 0.42581 0.49758 0.91255 0.0
O67 O 0.41398 0.48953 0.92916 0.0
C68 C 0.55351 0.61915 0.95817 0.0
O69 O 0.52368 0.57221 0.96467 0.0
C70 C 0.4889 0.43959 0.94129 0.0
O71 O 0.46874 0.42446 0.92534 0.0
O72 O 0.52318 0.48816 0.94459 0.0
O73 O 0.47439 0.52394 0.9083 0.0
O74 O 0.60871 0.57 0.90923 0.0
C75 C 0.6531 0.6123 0.91235 0.0
O76 O 0.66 0.63909 0.92723 0.0
O77 O 0.56316 0.62201 0.94189 0.0
C78 C 0.01804 0.22228 0.10892 0.0
C79 C 0.024 0.18127 0.11551 0.0
C80 C 0.00879 0.25529 0.12022 0.0
C81 C 0.96274 0.26424 0.16472 0.0
H82 H 0.04254 0.41573 0.15801 0.0
C83 C 0.98695 0.42059 0.21804 0.0
C84 C 0.99151 0.46831 0.21279 0.0
C85 C 0.98286 0.38246 0.20558 0.0
C86 C 0.01912 0.37347 0.15991 0.0
H87 H 0.02451 0.1426 0.13917 0.0
H88 H 0.00881 0.20041 0.15885 0.0
H89 H 0.05196 0.35584 0.13742 0.0
H90 H 0.99159 0.51163 0.19031 0.0
H91 H 0.98338 0.44471 0.16862 0.0
H92 H 0.93038 0.28201 0.18736 0.0
C93 C 0.01068 0.20669 0.14493 0.0
C94 C 0.02466 0.3391 0.14811 0.0
C95 C 0.02008 0.17378 0.13364 0.0
C96 C 0.98862 0.47555 0.19482 0.0
C97 C 0.98434 0.43734 0.18237 0.0
C98 C 0.95707 0.29863 0.17652 0.0
C99 C 0.00513 0.24798 0.13836 0.0
C100 C 0.99699 0.28412 0.15046 0.0
C101 C 0.98301 0.39103 0.18757 0.0
C102 C 0.98562 0.35377 0.17436 0.0
H103 H 0.02062 0.22904 0.09502 0.0
H104 H 0.00415 0.28637 0.11471 0.0
H105 H 0.94022 0.222 0.16675 0.0
H106 H 0.98907 0.41369 0.23177 0.0
H107 H 0.98226 0.34749 0.21009 0.0
C108 C 0.85317 0.01873 0.44554 0.0
C109 C 0.90747 0.0415 0.44996 0.0
C110 C 0.81594 0.00983 0.45853 0.0
C111 C 0.79606 0.9944 0.5062 0.0
H112 H 0.693 0.03894 0.49918 0.0
C113 C 0.68848 0.0301 0.56341 0.0
C114 C 0.63647 0.02034 0.56083 0.0
C115 C 0.71635 0.02412 0.54951 0.0
C116 C 0.72075 0.02526 0.50127 0.0
H117 H 0.9651 0.0725 0.47153 0.0
H118 H 0.90036 0.05705 0.49406 0.0
H119 H 0.75155 0.04523 0.47544 0.0
H120 H 0.57203 0.99414 0.54175 0.0
H121 H 0.62038 0.9826 0.51753 0.0
H122 H 0.76575 0.9748 0.53203 0.0
C123 C 0.88644 0.04566 0.48059 0.0
C124 C 0.75445 0.02905 0.48765 0.0
C125 C 0.92361 0.05487 0.46764 0.0
C126 C 0.6121 1.00213 0.54418 0.0
C127 C 0.64 0.99596 0.53025 0.0
C128 C 0.7622 0.9903 0.51977 0.0
C129 C 0.83219 0.02309 0.47621 0.0
C130 C 0.7932 0.01466 0.49008 0.0
C131 C 0.69289 0.00792 0.53267 0.0
C132 C 0.72482 0.0067 0.51761 0.0
H133 H 0.83938 0.00789 0.43205 0.0
H134 H 0.77437 0.9921 0.45475 0.0
H135 H 0.82485 0.98206 0.50837 0.0
H136 H 0.70858 0.04428 0.57604 0.0
H137 H 0.75717 0.0344 0.55187 0.0
C138 C 0.8546 0.89665 0.79344 0.0
C139 C 0.90706 0.91454 0.78823 0.0
C140 C 0.83056 0.85718 0.80566 0.0
C141 C 0.86267 0.79639 0.84156 0.0
H142 H 0.71165 0.69345 0.83789 0.0
C143 C 0.73639 0.68787 0.90071 0.0
C144 C 0.69167 0.63679 0.8981 0.0
C145 C 0.76754 0.7153 0.8866 0.0
C146 C 0.75405 0.72123 0.83903 0.0
H147 H 0.97506 0.90407 0.79155 0.0
H148 H 0.93282 0.83472 0.8128 0.0
H149 H 0.75518 0.75242 0.81403 0.0
H150 H 0.64707 0.57291 0.87879 0.0
H151 H 0.70202 0.62042 0.85422 0.0
H152 H 0.86144 0.76515 0.8666 0.0
C153 C 0.91053 0.85176 0.80757 0.0
C154 C 0.77888 0.75563 0.82542 0.0
C155 C 0.93462 0.89131 0.79531 0.0
C156 C 0.68097 0.61237 0.88125 0.0
C157 C 0.71224 0.63979 0.86713 0.0
C158 C 0.83782 0.76188 0.85518 0.0
C159 C 0.8583 0.83446 0.81298 0.0
C160 C 0.83324 0.7944 0.82667 0.0
C161 C 0.75488 0.69225 0.86953 0.0
C162 C 0.78295 0.72456 0.85424 0.0
H163 H 0.83222 0.91371 0.7883 0.0
H164 H 0.79062 0.84549 0.80972 0.0
H165 H 0.90453 0.82592 0.84302 0.0
H166 H 0.74591 0.70789 0.91351 0.0
H167 H 0.79976 0.75573 0.88896 0.0
C168 C 0.10073 0.95323 0.12925 0.0
C169 C 0.10695 1.00171 0.13567 0.0
C170 C 0.11013 0.92131 0.14019 0.0
C171 C 0.17243 0.92286 0.18308 0.0
H172 H 0.07359 0.77114 0.17951 0.0
C173 C 0.14076 0.77976 0.23826 0.0
C174 C 0.13062 0.72853 0.23355 0.0
C175 C 0.14652 0.81511 0.22542 0.0
C176 C 0.10211 0.81333 0.18051 0.0
H177 H 0.12857 0.05491 0.15859 0.0
H178 H 0.14367 0.9989 0.17772 0.0
H179 H 0.06615 0.82847 0.1588 0.0
H180 H 0.12151 0.67538 0.21156 0.0
H181 H 0.13161 0.73714 0.18917 0.0
H182 H 0.20712 0.90752 0.20521 0.0
C183 C 0.1326 0.98585 0.16415 0.0
C184 C 0.09789 0.84629 0.1686 0.0
C185 C 0.12354 0.01788 0.15319 0.0
C186 C 0.12916 0.71447 0.21568 0.0
C187 C 0.13454 0.74971 0.20283 0.0
C188 C 0.1764 0.88987 0.19507 0.0
C189 C 0.12566 0.93693 0.15785 0.0
C190 C 0.13259 0.90159 0.16984 0.0
C191 C 0.14197 0.79993 0.20755 0.0
C192 C 0.14093 0.83477 0.19402 0.0
H193 H 0.08835 0.93974 0.11578 0.0
H194 H 0.1052 0.88434 0.13478 0.0
H195 H 0.2005 0.96511 0.18425 0.0
H196 H 0.1422 0.79192 0.2519 0.0
H197 H 0.15191 0.85339 0.2295 0.0
C198 C 0.25701 0.13282 0.43939 0.0
C199 C 0.20838 0.12542 0.44557 0.0
C200 C 0.29786 0.14169 0.45112 0.0
C201 C 0.34468 0.18205 0.49732 0.0
H202 H 0.41767 0.10389 0.48863 0.0
C203 C 0.46296 0.14756 0.55083 0.0
C204 C 0.50797 0.14469 0.54594 0.0
C205 C 0.43201 0.15386 0.53822 0.0
C206 C 0.39845 0.12683 0.49113 0.0
H207 H 0.16493 0.12235 0.46899 0.0
H208 H 0.23579 0.13726 0.48937 0.0
H209 H 0.35291 0.09789 0.4672 0.0
H210 H 0.55763 0.14967 0.52411 0.0
H211 H 0.50417 0.16153 0.5022 0.0
H212 H 0.38963 0.2102 0.52143 0.0
C213 C 0.24269 0.13686 0.47546 0.0
C214 C 0.3612 0.1233 0.47883 0.0
C215 C 0.20187 0.1279 0.46375 0.0
C216 C 0.52299 0.1513 0.52832 0.0
C217 C 0.49211 0.1577 0.51572 0.0
C218 C 0.38201 0.18561 0.50964 0.0
C219 C 0.29107 0.1435 0.46931 0.0
C220 C 0.33334 0.15032 0.48187 0.0
C221 C 0.44542 0.15759 0.52044 0.0
C222 C 0.4089 0.15753 0.50679 0.0
H223 H 0.26345 0.13136 0.42548 0.0
H224 H 0.33485 0.14724 0.44594 0.0
H225 H 0.32454 0.20405 0.49994 0.0
H226 H 0.45017 0.14254 0.56428 0.0
H227 H 0.39614 0.15322 0.54233 0.0
C228 C 0.07601 0.16332 0.81515 0.0
C229 C 0.09237 0.15743 0.79834 0.0
C230 C 0.11088 0.20465 0.8267 0.0
C231 C 0.25463 0.29863 0.83497 0.0
H232 H 0.20347 0.36744 0.86721 0.0
C233 C 0.39846 0.47269 0.88098 0.0
C234 C 0.38432 0.46845 0.8987 0.0
C235 C 0.36144 0.4396 0.86806 0.0
C236 C 0.21825 0.34842 0.85833 0.0
H237 H 0.15789 0.19116 0.78034 0.0
H238 H 0.21839 0.26395 0.80033 0.0
H239 H 0.142 0.30044 0.84571 0.0
H240 H 0.31921 0.42802 0.91657 0.0
H241 H 0.25447 0.37032 0.89395 0.0
H242 H 0.3308 0.34655 0.84758 0.0
C243 C 0.17894 0.23594 0.80475 0.0
C244 C 0.18304 0.3099 0.84603 0.0
C245 C 0.14416 0.19434 0.79324 0.0
C246 C 0.33144 0.43232 0.90306 0.0
C247 C 0.29429 0.39932 0.89009 0.0
C248 C 0.28983 0.33734 0.84716 0.0
C249 C 0.16291 0.2414 0.8217 0.0
C250 C 0.2007 0.28418 0.83428 0.0
C251 C 0.30932 0.40164 0.87251 0.0
C252 C 0.27201 0.36244 0.85905 0.0
H253 H 0.03644 0.13547 0.81954 0.0
H254 H 0.09733 0.207 0.83971 0.0
H255 H 0.26953 0.27905 0.82639 0.0
H256 H 0.43872 0.50031 0.87711 0.0
H257 H 0.37397 0.44297 0.85459 0.0
C258 C 0.96944 0.13647 0.70866 0.0
C259 C 0.95101 0.10377 0.72311 0.0
C260 C 0.93492 0.1462 0.6989 0.0
C261 C 0.80621 0.14208 0.70021 0.0
H262 H 0.80739 0.12449 0.64973 0.0
C263 C 0.63173 0.10717 0.65522 0.0
C264 C 0.64187 0.12467 0.638 0.0
C265 C 0.6731 0.11403 0.66628 0.0
C266 C 0.80714 0.13073 0.66377 0.0
H267 H 0.88206 0.05673 0.73892 0.0
H268 H 0.8218 0.07381 0.72188 0.0
H269 H 0.87245 0.11806 0.66779 0.0
H270 H 0.70408 0.16634 0.61928 0.0
H271 H 0.77657 0.17961 0.63875 0.0
H272 H 0.74067 0.15444 0.69622 0.0
C273 C 0.86307 0.09208 0.71815 0.0
C274 C 0.84439 0.1268 0.67413 0.0
C275 C 0.89752 0.08202 0.72784 0.0
C276 C 0.69483 0.15207 0.63244 0.0
C277 C 0.73634 0.15924 0.64356 0.0
C278 C 0.76916 0.14643 0.68983 0.0
C279 C 0.88125 0.1238 0.70345 0.0
C280 C 0.84386 0.13163 0.69248 0.0
C281 C 0.7258 0.13894 0.66045 0.0
C282 C 0.76857 0.13995 0.67147 0.0
H283 H 0.01044 0.15401 0.70468 0.0
H284 H 0.95025 0.17125 0.68776 0.0
H285 H 0.80532 0.14676 0.7143 0.0
H286 H 0.59144 0.08593 0.65997 0.0
H287 H 0.66321 0.09737 0.67911 0.0
C288 C 0.88485 0.93749 0.06382 0.0
C289 C 0.92557 0.98211 0.05579 0.0
C290 C 0.83872 0.90121 0.05436 0.0
C291 C 0.76145 0.88363 0.01327 0.0
H292 H 0.70678 0.7342 0.02014 0.0
C293 C 0.62327 0.71497 0.96355 0.0
C294 C 0.58432 0.66631 0.97011 0.0
C295 C 0.65873 0.75652 0.97495 0.0
C296 C 0.72091 0.77576 0.01825 0.0
H297 H 0.94942 0.02391 0.03156 0.0
H298 H 0.86977 0.96016 0.01498 0.0
H299 H 0.78102 0.80034 0.03824 0.0
H300 H 0.54976 0.6246 0.99387 0.0
H301 H 0.61137 0.69716 0.0137 0.0
H302 H 0.70209 0.8586 0.99285 0.0
C303 C 0.87284 0.9536 0.02868 0.0
C304 C 0.76356 0.81378 0.02865 0.0
C305 C 0.91879 0.99002 0.03817 0.0
C306 C 0.57952 0.66136 0.98835 0.0
C307 C 0.61505 0.70282 0.99973 0.0
C308 C 0.71889 0.84551 1.00278 0.0
C309 C 0.83234 0.9085 0.03661 0.0
C310 C 0.78478 0.86824 0.02619 0.0
C311 C 0.65606 0.75027 0.99315 0.0
C312 C 0.69845 0.79113 0.00506 0.0
H313 H 0.88861 0.93043 0.07742 0.0
H314 H 0.80803 0.86741 0.06098 0.0
H315 H 0.77615 0.9252 0.0112 0.0
H316 H 0.62808 0.72018 0.94957 0.0
H317 H 0.69001 0.79247 0.96945 0.0
C318 C 0.00928 0.88764 0.40657 0.0
C319 C 0.01486 0.93542 0.40093 0.0
C320 C 0.99931 0.84643 0.39447 0.0
C321 C 0.01547 0.82301 0.34773 0.0
H322 H 0.92086 0.67492 0.35744 0.0
C323 C 0.97773 0.65921 0.29642 0.0
C324 C 0.98053 0.61587 0.3025 0.0
C325 C 0.97387 0.6947 0.30819 0.0
C326 C 0.94765 0.71608 0.35458 0.0
H327 H 0.01284 0.97669 0.37815 0.0
H328 H 0.99505 0.90483 0.35714 0.0
H329 H 0.93038 0.74402 0.37857 0.0
H330 H 0.97847 0.57425 0.3257 0.0
H331 H 0.97233 0.63647 0.34624 0.0
H332 H 0.03358 0.79545 0.32395 0.0
C333 C 0.9992 0.89946 0.37088 0.0
C334 C 0.95315 0.75568 0.36669 0.0
C335 C 0.00917 0.9406 0.38296 0.0
C336 C 0.97632 0.60716 0.32056 0.0
C337 C 0.97267 0.64283 0.33235 0.0
C338 C 0.01002 0.78354 0.33566 0.0
C339 C 0.99473 0.85207 0.37645 0.0
C340 C 0.98731 0.80964 0.36344 0.0
C341 C 0.97295 0.68789 0.32634 0.0
C342 C 0.97621 0.72955 0.33893 0.0
H343 H 0.01342 0.8823 0.42031 0.0
H344 H 0.99663 0.81069 0.3992 0.0
H345 H 0.04291 0.86408 0.34493 0.0
H346 H 0.98043 0.66689 0.28259 0.0
H347 H 0.97295 0.72829 0.30307 0.0
C348 C 0.10933 0.0061 0.70852 0.0
C349 C 0.1252 0.00656 0.72593 0.0
C350 C 0.13662 0.9993 0.69458 0.0
C351 C 0.23133 0.95382 0.6831 0.0
H352 H 0.26148 0.0448 0.64388 0.0
C353 C 0.39146 0.99083 0.63163 0.0
C354 C 0.38217 0.99933 0.61431 0.0
C355 C 0.35497 0.98353 0.64469 0.0
C356 C 0.25267 0.01837 0.65456 0.0
H357 H 0.18177 0.99929 0.74231 0.0
H358 H 0.22986 0.98816 0.71798 0.0
H359 H 0.20841 0.04868 0.66776 0.0
H360 H 0.32539 0.00301 0.59692 0.0
H361 H 0.2615 0.98942 0.61961 0.0
H362 H 0.27661 0.92427 0.66995 0.0
C363 C 0.19584 0.99239 0.7151 0.0
C364 C 0.22222 0.02066 0.6683 0.0
C365 C 0.16847 0.99914 0.72907 0.0
C366 C 0.33406 0.99706 0.61015 0.0
C367 C 0.29758 0.98967 0.62319 0.0
C368 C 0.26189 0.95154 0.66933 0.0
C369 C 0.18056 0.99288 0.69768 0.0
C370 C 0.21139 0.98867 0.6828 0.0
C371 C 0.30833 0.98444 0.64072 0.0
C372 C 0.27318 0.98403 0.65493 0.0
H373 H 0.07595 0.01136 0.70561 0.0
H374 H 0.12322 0.99905 0.68134 0.0
H375 H 0.22314 0.92811 0.69396 0.0
H376 H 0.4281 0.99232 0.6353 0.0
H377 H 0.36469 0.97988 0.65805 0.0
C378 C 0.24415 0.21438 0.07144 0.0
C379 C 0.19494 0.16873 0.06714 0.0
C380 C 0.28087 0.24136 0.05842 0.0
C381 C 0.31592 0.22636 0.01271 0.0
H382 H 0.38622 0.3799 0.01404 0.0
C383 C 0.41956 0.35266 0.95296 0.0
C384 C 0.46477 0.40323 0.95593 0.0
C385 C 0.39179 0.32163 0.96702 0.0
C386 C 0.36772 0.3371 0.0136 0.0
H387 H 0.14605 0.11536 0.04573 0.0
H388 H 0.2098 0.16265 0.02306 0.0
H389 H 0.32776 0.33089 0.03764 0.0
H390 H 0.51804 0.45945 0.97602 0.0
H391 H 0.47016 0.405 1.00049 0.0
H392 H 0.35537 0.23264 0.9885 0.0
C393 C 0.22034 0.17727 0.03653 0.0
C394 C 0.33408 0.30895 0.02715 0.0
C395 C 0.18361 0.15034 0.04953 0.0
C396 C 0.48318 0.42083 0.97325 0.0
C397 C 0.45547 0.38978 0.9873 0.0
C398 C 0.34966 0.25454 0.99915 0.0
C399 C 0.2693 0.22331 0.04078 0.0
C400 C 0.30732 0.25321 0.0268 0.0
C401 C 0.40863 0.3404 0.98439 0.0
C402 C 0.37561 0.31027 0.99934 0.0
H403 H 0.25427 0.22952 0.08487 0.0
H404 H 0.31847 0.27633 0.06219 0.0
H405 H 0.29658 0.18347 0.01217 0.0
H406 H 0.40419 0.33787 0.9398 0.0
H407 H 0.3557 0.284 0.96427 0.0
C408 C 0.09717 0.22837 0.38375 0.0
C409 C 0.09419 0.23745 0.40179 0.0
C410 C 0.10652 0.26738 0.3719 0.0
C411 C 0.15552 0.41131 0.36861 0.0
H412 H 0.07266 0.365 0.32523 0.0
C413 C 0.1343 0.55341 0.32238 0.0
C414 C 0.13006 0.54142 0.30427 0.0
C415 C 0.13712 0.51943 0.33424 0.0
C416 C 0.09681 0.37865 0.33714 0.0
H417 H 0.0995 0.29515 0.42151 0.0
H418 H 0.115 0.36295 0.40079 0.0
H419 H 0.06272 0.29964 0.34597 0.0
H420 H 0.12918 0.48621 0.28438 0.0
H421 H 0.13495 0.42763 0.305 0.0
H422 H 0.18891 0.49058 0.35979 0.0
C423 C 0.11081 0.32586 0.39583 0.0
C424 C 0.09106 0.34108 0.34907 0.0
C425 C 0.10157 0.28683 0.40771 0.0
C426 C 0.13189 0.49642 0.29825 0.0
C427 C 0.1348 0.46258 0.31008 0.0
C428 C 0.16123 0.449 0.35665 0.0
C429 C 0.11296 0.31645 0.37775 0.0
C430 C 0.12022 0.35685 0.36497 0.0
C431 C 0.13585 0.47278 0.32824 0.0
C432 C 0.13187 0.4331 0.34077 0.0
H433 H 0.0921 0.19097 0.37873 0.0
H434 H 0.10882 0.25906 0.35811 0.0
H435 H 0.1791 0.42481 0.38063 0.0
H436 H 0.13291 0.58769 0.32748 0.0
H437 H 0.13765 0.5284 0.34813 0.0
loop_
_geom_bond_atom_site_label_1
_geom_bond_atom_site_label_2
_geom_bond_distance
_geom_bond_site_symmetry_2
_ccdc_geom_bond_type
C0 O1 1.160 1_565 S
C0 O7 1.186 1_565 S
O1 C0 1.160 1_545 S
O2 Zn3 1.899 . S
O2 C10 1.284 . S
Zn3 O2 1.899 . S
Zn3 O4 2.032 1_455 S
Zn3 O7 2.086 . S
Zn3 O12 1.977 . S
O4 Zn3 2.032 1_655 S
O4 C8 1.278 . S
C5 O6 1.203 . S
C5 O12 1.267 . S
O6 C5 1.203 . S
O7 C0 1.186 1_545 S
O7 Zn3 2.086 . S
C8 O4 1.278 . S
C8 O9 1.211 . S
O9 C8 1.211 . S
C10 O2 1.284 . S
C10 O11 1.273 1_455 S
O11 C10 1.273 1_655 S
O12 Zn3 1.977 . S
O12 C5 1.267 . S
C13 O14 1.160 . S
C13 O20 1.185 . S
O14 C13 1.160 . S
O15 Zn16 1.899 . S
O15 C23 1.284 . S
Zn16 O15 1.899 . S
Zn16 O17 2.032 . S
Zn16 O20 2.086 . S
Zn16 O25 1.977 . S
O17 Zn16 2.032 . S
O17 C21 1.278 1_455 S
C18 O19 1.203 . S
C18 O25 1.267 . S
O19 C18 1.203 . S
O20 C13 1.185 . S
O20 Zn16 2.086 . S
C21 O17 1.278 1_655 S
C21 O22 1.211 1_655 S
O22 C21 1.211 1_455 S
C23 O15 1.284 . S
C23 O24 1.273 1_545 S
O24 C23 1.273 1_565 S
O25 Zn16 1.977 . S
O25 C18 1.267 . S
C26 O27 1.160 . S
C26 O33 1.185 1_545 S
O27 C26 1.160 . S
O28 Zn29 1.899 1_655 S
O28 C36 1.284 . S
Zn29 O28 1.899 1_455 S
Zn29 O30 2.032 . S
Zn29 O33 2.086 1_545 S
Zn29 O38 1.979 1_545 S
O30 Zn29 2.032 . S
O30 C34 1.278 . S
C31 O32 1.203 . S
C31 O38 1.248 1_655 S
O32 C31 1.203 . S
O33 C26 1.185 1_565 S
O33 Zn29 2.086 1_565 S
C34 O30 1.278 . S
C34 O35 1.211 . S
O35 C34 1.211 . S
C36 O28 1.284 . S
C36 O37 1.273 . S
O37 C36 1.273 . S
O38 Zn29 1.979 1_565 S
O38 C31 1.248 1_455 S
Mg39 O46 2.141 . S
Mg39 O47 2.048 . S
Mg39 O48 2.048 . S
Mg39 O51 2.141 . S
C40 O41 1.313 1_455 S
C40 O47 1.195 . S
O41 C40 1.313 1_655 S
C42 O43 1.245 1_455 S
C42 O51 1.289 . S
O43 C42 1.245 1_655 S
C44 O45 1.245 1_455 S
C44 O46 1.289 . S
O45 C44 1.245 1_655 S
O46 Mg39 2.141 . S
O46 C44 1.289 . S
O47 Mg39 2.048 . S
O47 C40 1.195 . S
O48 Mg39 2.048 . S
O48 C49 1.195 . S
C49 O48 1.195 . S
C49 O50 1.313 1_455 S
O50 C49 1.313 1_655 S
O51 Mg39 2.141 . S
O51 C42 1.289 . S
Mg52 O59 2.141 . S
Mg52 O60 2.048 . S
Mg52 O61 2.048 . S
Mg52 O64 2.141 . S
C53 O54 1.313 . S
C53 O60 1.195 . S
O54 C53 1.313 . S
C55 O56 1.245 1_545 S
C55 O64 1.289 . S
O56 C55 1.245 1_565 S
C57 O58 1.245 1_545 S
C57 O59 1.289 . S
O58 C57 1.245 1_565 S
O59 Mg52 2.141 . S
O59 C57 1.289 . S
O60 Mg52 2.048 . S
O60 C53 1.195 . S
O61 Mg52 2.048 . S
O61 C62 1.195 . S
C62 O61 1.195 . S
C62 O63 1.313 . S
O63 C62 1.313 . S
O64 Mg52 2.141 . S
O64 C55 1.289 . S
Mg65 O72 2.141 . S
Mg65 O73 2.048 . S
Mg65 O74 2.048 . S
Mg65 O77 2.141 . S
C66 O67 1.313 . S
C66 O73 1.195 . S
O67 C66 1.313 . S
C68 O69 1.245 . S
C68 O77 1.289 . S
O69 C68 1.245 . S
C70 O71 1.245 . S
C70 O72 1.289 . S
O71 C70 1.245 . S
O72 Mg65 2.141 . S
O72 C70 1.289 . S
O73 Mg65 2.048 . S
O73 C66 1.195 . S
O74 Mg65 2.048 . S
O74 C75 1.195 . S
C75 O74 1.195 . S
C75 O76 1.313 . S
O76 C75 1.313 . S
O77 Mg65 2.141 . S
O77 C68 1.289 . S
C78 C79 1.349 1_655 S
C78 C80 1.327 . S
C78 H103 0.950 . S
C79 C78 1.349 1_455 S
C79 C95 1.349 . S
C80 C78 1.327 . S
C80 C99 1.429 1_655 S
C80 H104 0.950 . S
C81 C98 1.574 . S
C81 C100 1.368 . S
C81 H105 0.949 . S
H82 C86 0.949 . S
C83 C84 1.349 . S
C83 C85 1.327 . S
C83 H106 0.950 . S
C84 C83 1.349 . S
C84 C96 1.349 1_455 S
C85 C83 1.327 . S
C85 C101 1.429 . S
C85 H107 0.950 . S
C86 H82 0.949 . S
C86 C94 1.574 . S
C86 C102 1.368 1_655 S
H87 C95 0.950 . S
H88 C93 0.950 . S
H89 C94 0.949 . S
H90 C96 0.950 . S
H91 C97 0.950 . S
H92 C98 0.949 . S
C93 H88 0.950 . S
C93 C95 1.327 . S
C93 C99 1.429 . S
C94 C86 1.574 . S
C94 H89 0.949 . S
C94 C100 1.368 1_655 S
C95 C79 1.349 . S
C95 H87 0.950 . S
C95 C93 1.327 . S
C96 C84 1.349 1_655 S
C96 H90 0.950 . S
C96 C97 1.327 . S
C97 H91 0.950 . S
C97 C96 1.327 . S
C97 C101 1.429 1_655 S
C98 C81 1.574 . S
C98 H92 0.949 . S
C98 C102 1.368 . S
C99 C80 1.429 1_455 S
C99 C93 1.429 . S
C99 C100 1.523 . S
C100 C81 1.368 . S
C100 C94 1.368 1_455 S
C100 C99 1.523 . S
C101 C85 1.429 . S
C101 C97 1.429 1_455 S
C101 C102 1.523 . S
C102 C86 1.368 1_455 S
C102 C98 1.368 . S
C102 C101 1.523 . S
H103 C78 0.950 . S
H104 C80 0.950 . S
H105 C81 0.949 . S
H106 C83 0.950 . S
H107 C85 0.950 . S
C108 C109 1.349 . S
C108 C110 1.327 . S
C108 H133 0.950 . S
C109 C108 1.349 . S
C109 C125 1.349 . S
C110 C108 1.327 . S
C110 C129 1.429 . S
C110 H134 0.950 . S
C111 C128 1.574 . S
C111 C130 1.368 . S
C111 H135 0.949 . S
H112 C116 0.949 . S
C113 C114 1.349 . S
C113 C115 1.327 . S
C113 H136 0.950 . S
C114 C113 1.349 . S
C114 C126 1.349 . S
C115 C113 1.327 . S
C115 C131 1.429 . S
C115 H137 0.950 . S
C116 H112 0.949 . S
C116 C124 1.574 . S
C116 C132 1.368 . S
H117 C125 0.950 . S
H118 C123 0.950 . S
H119 C124 0.949 . S
H120 C126 0.950 . S
H121 C127 0.950 . S
H122 C128 0.949 . S
C123 H118 0.950 . S
C123 C125 1.327 . S
C123 C129 1.429 . S
C124 C116 1.574 . S
C124 H119 0.949 . S
C124 C130 1.368 . S
C125 C109 1.349 . S
C125 H117 0.950 . S
C125 C123 1.327 . S
C126 C114 1.349 . S
C126 H120 0.950 . S
C126 C127 1.327 . S
C127 H121 0.950 . S
C127 C126 1.327 . S
C127 C131 1.429 . S
C128 C111 1.574 . S
C128 H122 0.949 . S
C128 C132 1.368 . S
C129 C110 1.429 . S
C129 C123 1.429 . S
C129 C130 1.523 . S
C130 C111 1.368 . S
C130 C124 1.368 . S
C130 C129 1.523 . S
C131 C115 1.429 . S
C131 C127 1.429 . S
C131 C132 1.523 . S
C132 C116 1.368 . S
C132 C128 1.368 . S
C132 C131 1.523 . S
H133 C108 0.950 . S
H134 C110 0.950 . S
H135 C111 0.949 . S
H136 C113 0.950 . S
H137 C115 0.950 . S
C138 C139 1.349 . S
C138 C140 1.327 . S
C138 H163 0.950 . S
C139 C138 1.349 . S
C139 C155 1.349 . S
C140 C138 1.327 . S
C140 C159 1.429 . S
C140 H164 0.950 . S
C141 C158 1.574 . S
C141 C160 1.368 . S
C141 H165 0.949 . S
H142 C146 0.949 . S
C143 C144 1.349 . S
C143 C145 1.327 . S
C143 H166 0.950 . S
C144 C143 1.349 . S
C144 C156 1.349 . S
C145 C143 1.327 . S
C145 C161 1.429 . S
C145 H167 0.950 . S
C146 H142 0.949 . S
C146 C154 1.574 . S
C146 C162 1.368 . S
H147 C155 0.950 . S
H148 C153 0.950 . S
H149 C154 0.949 . S
H150 C156 0.950 . S
H151 C157 0.950 . S
H152 C158 0.949 . S
C153 H148 0.950 . S
C153 C155 1.327 . S
C153 C159 1.429 . S
C154 C146 1.574 . S
C154 H149 0.949 . S
C154 C160 1.368 . S
C155 C139 1.349 . S
C155 H147 0.950 . S
C155 C153 1.327 . S
C156 C144 1.349 . S
C156 H150 0.950 . S
C156 C157 1.327 . S
C157 H151 0.950 . S
C157 C156 1.327 . S
C157 C161 1.429 . S
C158 C141 1.574 . S
C158 H152 0.949 . S
C158 C162 1.368 . S
C159 C140 1.429 . S
C159 C153 1.429 . S
C159 C160 1.523 . S
C160 C141 1.368 . S
C160 C154 1.368 . S
C160 C159 1.523 . S
C161 C145 1.429 . S
C161 C157 1.429 . S
C161 C162 1.523 . S
C162 C146 1.368 . S
C162 C158 1.368 . S
C162 C161 1.523 . S
H163 C138 0.950 . S
H164 C140 0.950 . S
H165 C141 0.949 . S
H166 C143 0.950 . S
H167 C145 0.950 . S
C168 C169 1.349 . S
C168 C170 1.327 . S
C168 H193 0.950 . S
C169 C168 1.349 . S
C169 C185 1.349 . S
C170 C168 1.327 . S
C170 C189 1.429 . S
C170 H194 0.950 . S
C171 C188 1.566 . S
C171 C190 1.350 1_655 S
C171 H195 0.973 . S
H172 C176 0.949 . S
C173 C174 1.349 1_655 S
C173 C175 1.327 . S
C173 H196 0.950 . S
C174 C173 1.349 1_455 S
C174 C186 1.349 . S
C175 C173 1.327 . S
C175 C191 1.429 1_655 S
C175 H197 0.950 . S
C176 H172 0.949 . S
C176 C184 1.574 . S
C176 C192 1.368 . S
H177 C185 0.950 1_655 S
H178 C183 0.950 1_655 S
H179 C184 0.949 . S
H180 C186 0.950 . S
H181 C187 0.950 . S
H182 C188 0.949 . S
C183 H178 0.950 1_455 S
C183 C185 1.327 . S
C183 C189 1.429 . S
C184 C176 1.574 . S
C184 H179 0.949 . S
C184 C190 1.368 . S
C185 C169 1.349 . S
C185 H177 0.950 1_455 S
C185 C183 1.327 . S
C186 C174 1.349 . S
C186 H180 0.950 . S
C186 C187 1.327 . S
C187 H181 0.950 . S
C187 C186 1.327 . S
C187 C191 1.429 . S
C188 C171 1.566 . S
C188 H182 0.949 . S
C188 C192 1.368 1_655 S
C189 C170 1.429 . S
C189 C183 1.429 . S
C189 C190 1.523 . S
C190 C171 1.350 1_455 S
C190 C184 1.368 . S
C190 C189 1.523 . S
C191 C175 1.429 1_455 S
C191 C187 1.429 . S
C191 C192 1.523 . S
C192 C176 1.368 . S
C192 C188 1.368 1_455 S
C192 C191 1.523 . S
H193 C168 0.950 . S
H194 C170 0.950 . S
H195 C171 0.973 . S
H196 C173 0.950 . S
H197 C175 0.950 . S
C198 C199 1.349 . S
C198 C200 1.327 . S
C198 H223 0.950 . S
C199 C198 1.349 . S
C199 C215 1.349 . S
C200 C198 1.327 . S
C200 C219 1.429 . S
C200 H224 0.950 . S
C201 C218 1.574 . S
C201 C220 1.368 . S
C201 H225 0.949 . S
H202 C206 0.949 . S
C203 C204 1.349 . S
C203 C205 1.327 . S
C203 H226 0.950 . S
C204 C203 1.349 . S
C204 C216 1.349 . S
C205 C203 1.327 . S
C205 C221 1.429 . S
C205 H227 0.950 . S
C206 H202 0.949 . S
C206 C214 1.574 . S
C206 C222 1.368 . S
H207 C215 0.950 . S
H208 C213 0.950 . S
H209 C214 0.949 . S
H210 C216 0.950 . S
H211 C217 0.950 . S
H212 C218 0.949 . S
C213 H208 0.950 . S
C213 C215 1.327 . S
C213 C219 1.429 . S
C214 C206 1.574 . S
C214 H209 0.949 . S
C214 C220 1.368 . S
C215 C199 1.349 . S
C215 H207 0.950 . S
C215 C213 1.327 . S
C216 C204 1.349 . S
C216 H210 0.950 . S
C216 C217 1.327 . S
C217 H211 0.950 . S
C217 C216 1.327 . S
C217 C221 1.429 . S
C218 C201 1.574 . S
C218 H212 0.949 . S
C218 C222 1.368 . S
C219 C200 1.429 . S
C219 C213 1.429 . S
C219 C220 1.523 . S
C220 C201 1.368 . S
C220 C214 1.368 . S
C220 C219 1.523 . S
C221 C205 1.429 . S
C221 C217 1.429 . S
C221 C222 1.523 . S
C222 C206 1.368 . S
C222 C218 1.368 . S
C222 C221 1.523 . S
H223 C198 0.950 . S
H224 C200 0.950 . S
H225 C201 0.949 . S
H226 C203 0.950 . S
H227 C205 0.950 . S
C228 C229 1.349 . S
C228 C230 1.327 . S
C228 H253 0.950 . S
C229 C228 1.349 . S
C229 C245 1.349 . S
C230 C228 1.327 . S
C230 C249 1.429 . S
C230 H254 0.950 . S
C231 C248 1.574 . S
C231 C250 1.368 . S
C231 H255 0.949 . S
H232 C236 0.949 . S
C233 C234 1.349 . S
C233 C235 1.327 . S
C233 H256 0.950 . S
C234 C233 1.349 . S
C234 C246 1.349 . S
C235 C233 1.327 . S
C235 C251 1.429 . S
C235 H257 0.950 . S
C236 H232 0.949 . S
C236 C244 1.574 . S
C236 C252 1.368 . S
H237 C245 0.950 . S
H238 C243 0.950 . S
H239 C244 0.949 . S
H240 C246 0.950 . S
H241 C247 0.950 . S
H242 C248 0.949 . S
C243 H238 0.950 . S
C243 C245 1.327 . S
C243 C249 1.429 . S
C244 C236 1.574 . S
C244 H239 0.949 . S
C244 C250 1.368 . S
C245 C229 1.349 . S
C245 H237 0.950 . S
C245 C243 1.327 . S
C246 C234 1.349 . S
C246 H240 0.950 . S
C246 C247 1.327 . S
C247 H241 0.950 . S
C247 C246 1.327 . S
C247 C251 1.429 . S
C248 C231 1.574 . S
C248 H242 0.949 . S
C248 C252 1.368 . S
C249 C230 1.429 . S
C249 C243 1.429 . S
C249 C250 1.523 . S
C250 C231 1.368 . S
C250 C244 1.368 . S
C250 C249 1.523 . S
C251 C235 1.429 . S
C251 C247 1.429 . S
C251 C252 1.523 . S
C252 C236 1.368 . S
C252 C248 1.368 . S
C252 C251 1.523 . S
H253 C228 0.950 . S
H254 C230 0.950 . S
H255 C231 0.949 . S
H256 C233 0.950 . S
H257 C235 0.950 . S
C258 C259 1.349 . S
C258 C260 1.327 . S
C258 H283 0.950 . S
C259 C258 1.349 . S
C259 C275 1.349 . S
C260 C258 1.327 . S
C260 C279 1.429 . S
C260 H284 0.950 . S
C261 C278 1.574 . S
C261 C280 1.368 . S
C261 H285 0.949 1_545 S
H262 C266 0.949 . S
C263 C264 1.349 . S
C263 C265 1.327 . S
C263 H286 0.950 1_545 S
C264 C263 1.349 . S
C264 C276 1.349 . S
C265 C263 1.327 . S
C265 C281 1.429 . S
C265 H287 0.950 1_545 S
C266 H262 0.949 . S
C266 C274 1.574 . S
C266 C282 1.368 . S
H267 C275 0.950 1_565 S
H268 C273 0.950 1_565 S
H269 C274 0.949 . S
H270 C276 0.950 . S
H271 C277 0.950 . S
H272 C278 0.949 1_565 S
C273 H268 0.950 1_545 S
C273 C275 1.327 . S
C273 C279 1.429 . S
C274 C266 1.574 . S
C274 H269 0.949 . S
C274 C280 1.368 . S
C275 C259 1.349 . S
C275 H267 0.950 1_545 S
C275 C273 1.327 . S
C276 C264 1.349 . S
C276 H270 0.950 . S
C276 C277 1.327 . S
C277 H271 0.950 . S
C277 C276 1.327 . S
C277 C281 1.429 . S
C278 C261 1.574 . S
C278 H272 0.949 1_545 S
C278 C282 1.368 . S
C279 C260 1.429 . S
C279 C273 1.429 . S
C279 C280 1.523 . S
C280 C261 1.368 . S
C280 C274 1.368 . S
C280 C279 1.523 . S
C281 C265 1.429 . S
C281 C277 1.429 . S
C281 C282 1.523 . S
C282 C266 1.368 . S
C282 C278 1.368 . S
C282 C281 1.523 . S
H283 C258 0.950 . S
H284 C260 0.950 . S
H285 C261 0.949 1_565 S
H286 C263 0.950 1_565 S
H287 C265 0.950 1_565 S
C288 C289 1.349 . S
C288 C290 1.327 . S
C288 H313 0.950 . S
C289 C288 1.349 . S
C289 C305 1.349 . S
C290 C288 1.327 . S
C290 C309 1.429 . S
C290 H314 0.950 . S
C291 C308 1.574 . S
C291 C310 1.368 . S
C291 H315 0.949 . S
H292 C296 0.949 . S
C293 C294 1.349 . S
C293 C295 1.327 . S
C293 H316 0.950 . S
C294 C293 1.349 . S
C294 C306 1.349 . S
C295 C293 1.327 . S
C295 C311 1.429 . S
C295 H317 0.950 . S
C296 H292 0.949 . S
C296 C304 1.574 1_556 S
C296 C312 1.368 . S
H297 C305 0.950 . S
H298 C303 0.950 . S
H299 C304 0.949 . S
H300 C306 0.950 . S
H301 C307 0.950 . S
H302 C308 0.949 . S
C303 H298 0.950 . S
C303 C305 1.327 . S
C303 C309 1.429 . S
C304 C296 1.574 1_554 S
C304 H299 0.949 . S
C304 C310 1.368 . S
C305 C289 1.349 . S
C305 H297 0.950 . S
C305 C303 1.327 . S
C306 C294 1.349 . S
C306 H300 0.950 . S
C306 C307 1.327 . S
C307 H301 0.950 . S
C307 C306 1.327 . S
C307 C311 1.429 . S
C308 C291 1.574 . S
C308 H302 0.949 . S
C308 C312 1.368 1_554 S
C309 C290 1.429 . S
C309 C303 1.429 . S
C309 C310 1.523 . S
C310 C291 1.368 . S
C310 C304 1.368 . S
C310 C309 1.523 . S
C311 C295 1.429 . S
C311 C307 1.429 . S
C311 C312 1.523 . S
C312 C296 1.368 . S
C312 C308 1.368 1_556 S
C312 C311 1.523 . S
H313 C288 0.950 . S
H314 C290 0.950 . S
H315 C291 0.949 . S
H316 C293 0.950 . S
H317 C295 0.950 . S
C318 C319 1.349 1_655 S
C318 C320 1.327 . S
C318 H343 0.950 . S
C319 C318 1.349 1_455 S
C319 C335 1.349 . S
C320 C318 1.327 . S
C320 C339 1.429 1_655 S
C320 H344 0.950 . S
C321 C338 1.574 . S
C321 C340 1.368 . S
C321 H345 0.949 . S
H322 C326 0.949 . S
C323 C324 1.349 . S
C323 C325 1.327 . S
C323 H346 0.950 . S
C324 C323 1.349 . S
C324 C336 1.349 1_455 S
C325 C323 1.327 . S
C325 C341 1.429 . S
C325 H347 0.950 . S
C326 H322 0.949 . S
C326 C334 1.574 . S
C326 C342 1.368 1_655 S
H327 C335 0.950 1_545 S
H328 C333 0.950 . S
H329 C334 0.949 . S
H330 C336 0.950 . S
H331 C337 0.950 . S
H332 C338 0.949 . S
C333 H328 0.950 . S
C333 C335 1.327 . S
C333 C339 1.429 . S
C334 C326 1.574 . S
C334 H329 0.949 . S
C334 C340 1.368 1_655 S
C335 C319 1.349 . S
C335 H327 0.950 1_565 S
C335 C333 1.327 . S
C336 C324 1.349 1_655 S
C336 H330 0.950 . S
C336 C337 1.327 . S
C337 H331 0.950 . S
C337 C336 1.327 . S
C337 C341 1.429 1_655 S
C338 C321 1.574 . S
C338 H332 0.949 . S
C338 C342 1.368 . S
C339 C320 1.429 1_455 S
C339 C333 1.429 . S
C339 C340 1.523 . S
C340 C321 1.368 . S
C340 C334 1.368 1_455 S
C340 C339 1.523 . S
C341 C325 1.429 . S
C341 C337 1.429 1_455 S
C341 C342 1.523 . S
C342 C326 1.368 1_455 S
C342 C338 1.368 . S
C342 C341 1.523 . S
H343 C318 0.950 . S
H344 C320 0.950 . S
H345 C321 0.949 . S
H346 C323 0.950 . S
H347 C325 0.950 . S
C348 C349 1.349 1_565 S
C348 C350 1.327 . S
C348 H373 0.950 . S
C349 C348 1.349 1_545 S
C349 C365 1.349 . S
C350 C348 1.327 . S
C350 C369 1.429 1_565 S
C350 H374 0.950 . S
C351 C368 1.574 . S
C351 C370 1.368 . S
C351 H375 0.949 . S
H352 C356 0.949 . S
C353 C354 1.349 . S
C353 C355 1.327 . S
C353 H376 0.950 . S
C354 C353 1.349 . S
C354 C366 1.349 . S
C355 C353 1.327 . S
C355 C371 1.429 . S
C355 H377 0.950 . S
C356 H352 0.949 . S
C356 C364 1.574 . S
C356 C372 1.368 1_565 S
H357 C365 0.950 . S
H358 C363 0.950 . S
H359 C364 0.949 . S
H360 C366 0.950 1_565 S
H361 C367 0.950 1_565 S
H362 C368 0.949 . S
C363 H358 0.950 . S
C363 C365 1.327 . S
C363 C369 1.429 . S
C364 C356 1.574 . S
C364 H359 0.949 . S
C364 C370 1.368 1_565 S
C365 C349 1.349 . S
C365 H357 0.950 . S
C365 C363 1.327 . S
C366 C354 1.349 . S
C366 H360 0.950 1_545 S
C366 C367 1.327 . S
C367 H361 0.950 1_545 S
C367 C366 1.327 . S
C367 C371 1.429 . S
C368 C351 1.574 . S
C368 H362 0.949 . S
C368 C372 1.368 . S
C369 C350 1.429 1_545 S
C369 C363 1.429 . S
C369 C370 1.523 . S
C370 C351 1.368 . S
C370 C364 1.368 1_545 S
C370 C369 1.523 . S
C371 C355 1.429 . S
C371 C367 1.429 . S
C371 C372 1.523 . S
C372 C356 1.368 1_545 S
C372 C368 1.368 . S
C372 C371 1.523 . S
H373 C348 0.950 . S
H374 C350 0.950 . S
H375 C351 0.949 . S
H376 C353 0.950 . S
H377 C355 0.950 . S
C378 C379 1.349 . S
C378 C380 1.327 . S
C378 H403 0.950 . S
C379 C378 1.349 . S
C379 C395 1.349 . S
C380 C378 1.327 . S
C380 C399 1.429 . S
C380 H404 0.950 . S
C381 C398 1.574 1_554 S
C381 C400 1.368 . S
C381 H405 0.949 . S
H382 C386 0.949 . S
C383 C384 1.349 . S
C383 C385 1.327 . S
C383 H406 0.950 . S
C384 C383 1.349 . S
C384 C396 1.349 . S
C385 C383 1.327 . S
C385 C401 1.429 . S
C385 H407 0.950 . S
C386 H382 0.949 . S
C386 C394 1.574 . S
C386 C402 1.368 1_554 S
H387 C395 0.950 . S
H388 C393 0.950 . S
H389 C394 0.949 . S
H390 C396 0.950 . S
H391 C397 0.950 . S
H392 C398 0.949 . S
C393 H388 0.950 . S
C393 C395 1.327 . S
C393 C399 1.429 . S
C394 C386 1.574 . S
C394 H389 0.949 . S
C394 C400 1.368 . S
C395 C379 1.349 . S
C395 H387 0.950 . S
C395 C393 1.327 . S
C396 C384 1.349 . S
C396 H390 0.950 . S
C396 C397 1.327 . S
C397 H391 0.950 . S
C397 C396 1.327 . S
C397 C401 1.429 . S
C398 C381 1.574 1_556 S
C398 H392 0.949 . S
C398 C402 1.368 . S
C399 C380 1.429 . S
C399 C393 1.429 . S
C399 C400 1.523 . S
C400 C381 1.368 . S
C400 C394 1.368 . S
C400 C399 1.523 . S
C401 C385 1.429 . S
C401 C397 1.429 . S
C401 C402 1.523 . S
C402 C386 1.368 1_556 S
C402 C398 1.368 . S
C402 C401 1.523 . S
H403 C378 0.950 . S
H404 C380 0.950 . S
H405 C381 0.949 . S
H406 C383 0.950 . S
H407 C385 0.950 . S
C408 C409 1.349 . S
C408 C410 1.327 . S
C408 H433 0.950 . S
C409 C408 1.349 . S
C409 C425 1.349 . S
C410 C408 1.327 . S
C410 C429 1.429 . S
C410 H434 0.950 . S
C411 C428 1.574 . S
C411 C430 1.368 . S
C411 H435 0.949 . S
H412 C416 0.949 . S
C413 C414 1.349 . S
C413 C415 1.327 . S
C413 H436 0.950 . S
C414 C413 1.349 . S
C414 C426 1.349 . S
C415 C413 1.327 . S
C415 C431 1.429 . S
C415 H437 0.950 . S
C416 H412 0.949 . S
C416 C424 1.574 . S
C416 C432 1.368 . S
H417 C425 0.950 . S
H418 C423 0.950 . S
H419 C424 0.949 . S
H420 C426 0.950 . S
H421 C427 0.950 . S
H422 C428 0.949 . S
C423 H418 0.950 . S
C423 C425 1.327 . S
C423 C429 1.429 . S
C424 C416 1.574 . S
C424 H419 0.949 . S
C424 C430 1.368 . S
C425 C409 1.349 . S
C425 H417 0.950 . S
C425 C423 1.327 . S
C426 C414 1.349 . S
C426 H420 0.950 . S
C426 C427 1.327 . S
C427 H421 0.950 . S
C427 C426 1.327 . S
C427 C431 1.429 . S
C428 C411 1.574 . S
C428 H422 0.949 . S
C428 C432 1.368 . S
C429 C410 1.429 . S
C429 C423 1.429 . S
C429 C430 1.523 . S
C430 C411 1.368 . S
C430 C424 1.368 . S
C430 C429 1.523 . S
C431 C415 1.429 . S
C431 C427 1.429 . S
C431 C432 1.523 . S
C432 C416 1.368 . S
C432 C428 1.368 . S
C432 C431 1.523 . S
H433 C408 0.950 . S
H434 C410 0.950 . S
H435 C411 0.949 . S
H436 C413 0.950 . S
H437 C415 0.950 . S
C84 C44 1.311 . S
C79 C10 1.319 . S
C109 C21 1.420 . S
C114 C62 1.455 . S
C139 C31 1.359 . S
C144 C75 1.407 . S
C169 C0 1.269 . S
C174 C42 1.320 . S
C204 C53 1.408 . S
C199 C18 1.345 . S
C229 C34 1.373 . S
C234 C66 1.405 . S
C264 C55 1.314 . S
C259 C36 1.319 . S
C289 C8 1.287 1_565 S
C294 C68 1.314 . S
C324 C49 1.401 . S
C319 C23 1.406 1_565 S
C354 C57 1.243 . S
C349 C26 1.204 . S
C384 C70 1.323 . S
C379 C5 1.286 . S
C409 C13 1.344 . S
C414 C40 1.402 . S
