# Generated by pormake.
# Topology nia, (6,6)-cn, num edge types: 1
# Building blocks:
#     Node 0, Type 0, BuildingBlock: PAMTOO_clean_sbu_0, # of connection points: 6
#     Node 1, Type 0, BuildingBlock: PAMTOO_clean_sbu_0, # of connection points: 6
#     Node 2, Type 1, BuildingBlock: MIDCAF_clean_sbu_0, # of connection points: 6
#     Node 3, Type 1, BuildingBlock: MIDCAF_clean_sbu_0, # of connection points: 6
#     Edge 4, Type (0, 1), BuildingBlock: KIFKEQ_clean_linker_1, # of connection points: 2
#     Edge 5, Type (0, 1), BuildingBlock: KIFKEQ_clean_linker_1, # of connection points: 2
#     Edge 6, Type (0, 1), BuildingBlock: KIFKEQ_clean_linker_1, # of connection points: 2
#     Edge 7, Type (0, 1), BuildingBlock: KIFKEQ_clean_linker_1, # of connection points: 2
#     Edge 8, Type (0, 1), BuildingBlock: KIFKEQ_clean_linker_1, # of connection points: 2
#     Edge 9, Type (0, 1), BuildingBlock: KIFKEQ_clean_linker_1, # of connection points: 2
#     Edge 10, Type (0, 1), BuildingBlock: KIFKEQ_clean_linker_1, # of connection points: 2
#     Edge 11, Type (0, 1), BuildingBlock: KIFKEQ_clean_linker_1, # of connection points: 2
#     Edge 12, Type (0, 1), BuildingBlock: KIFKEQ_clean_linker_1, # of connection points: 2
#     Edge 13, Type (0, 1), BuildingBlock: KIFKEQ_clean_linker_1, # of connection points: 2
#     Edge 14, Type (0, 1), BuildingBlock: KIFKEQ_clean_linker_1, # of connection points: 2
#     Edge 15, Type (0, 1), BuildingBlock: KIFKEQ_clean_linker_1, # of connection points: 2
# Relax obj value: 0.175
# Max RMSD: 0.276
# Mean RMSD: 0.196
data_MOF--net-nia--node1-PAMTOO_clean_sbu_0--node2-MIDCAF_clean_sbu_0--edge1-KIFKEQ_clean_linker_1
_symmetry_space_group_name_H-M    P1
_symmetry_Int_Tables_number       1
_symmetry_cell_setting            triclinic
loop_
_symmetry_equiv_pos_as_xyz
'x, y, z'
_cell_length_a     30.030484
_cell_length_b     30.029193
_cell_length_c     29.22182
_cell_angle_alpha  90.280807
_cell_angle_beta   90.238852
_cell_angle_gamma 134.8433
loop_
_atom_site_label
_atom_site_type_symbol
_atom_site_fract_x
_atom_site_fract_y
_atom_site_fract_z
_atom_type_partial_charge
Dy0 Dy -0.01999 0.94793 0.15126 0.0
Dy1 Dy 0.94273 -0.00562 1.07085 0.0
C2 C 0.06902 0.02596 1.06687 0.0
O3 O 0.03293 0.04781 0.1651 0.0
O4 O -0.03411 0.0514 0.1332 0.0
O5 O 0.0495 -0.02946 0.19787 0.0
O6 O -0.04647 0.87895 0.20021 0.0
O7 O 0.85617 0.9249 0.11236 0.0
O8 O 0.90176 0.93385 0.17963 0.0
O9 O 0.93105 0.91903 1.03836 0.0
O10 O 0.9157 0.8667 1.10304 0.0
O11 O 0.88061 -0.02532 1.01761 0.0
O12 O -0.0291 0.07009 1.02948 0.0
C13 C 0.01105 0.07308 0.16231 0.0
O14 O 0.04423 -0.02218 1.09305 0.0
O15 O 0.04377 0.04787 1.06341 0.0
C16 C 0.03385 0.88641 0.22412 0.0
C17 C 0.0833 0.83601 0.2417 0.0
C18 C 0.08497 0.85517 0.19729 0.0
C19 C 0.06037 0.88017 0.18856 0.0
C20 C 0.03151 0.86689 0.26824 0.0
C21 C 0.05595 0.84185 0.277 0.0
C22 C 0.01048 0.91523 0.21656 0.0
C23 C 0.85373 0.91638 0.15672 0.0
C24 C 0.91175 0.86894 1.05845 0.0
C25 C 0.89031 0.05781 0.99789 0.0
C26 C 0.83798 0.10496 0.97834 0.0
C27 C 0.81203 0.05959 1.01251 0.0
C28 C 0.83815 0.03632 1.02235 0.0
C29 C 0.91628 0.10305 0.96394 0.0
C30 C 0.89049 0.12654 0.95428 0.0
C31 C 0.91828 0.03357 1.00631 0.0
H32 H 0.10628 0.85192 0.16946 0.0
H33 H 0.06271 0.8953 0.15429 0.0
H34 H 0.01112 0.87142 0.29605 0.0
H35 H 0.05298 0.82664 0.31138 0.0
H36 H 0.77199 0.04265 1.03197 0.0
H37 H 0.81762 0.00162 1.0489 0.0
H38 H -0.04354 0.12002 0.94464 0.0
H39 H 0.91108 0.16092 0.92747 0.0
Dy40 Dy -0.01485 0.95319 0.57138 0.0
Dy41 Dy 0.93925 -0.00926 0.65213 0.0
C42 C 0.90709 0.86412 0.6557 0.0
O43 O 0.88535 0.9007 0.55778 0.0
O44 O 0.88219 -0.03205 0.58995 0.0
O45 O -0.03808 0.88354 0.52457 0.0
O46 O 0.05381 -0.02074 0.52227 0.0
O47 O 0.00878 0.07732 0.61065 0.0
O48 O -0.00036 0.03176 0.54326 0.0
O49 O 0.01448 0.00204 0.68431 0.0
O50 O 0.06656 0.01726 0.61949 0.0
O51 O -0.04062 0.05293 0.70556 0.0
O52 O 0.86382 -0.0372 0.69379 0.0
C53 C 0.86034 0.92283 0.56072 0.0
O54 O -0.04481 0.88886 0.62949 0.0
O55 O 0.88538 0.88955 0.65933 0.0
C56 C 0.04555 0.89847 0.49815 0.0
C57 C 0.09537 0.84845 0.4805 0.0
C58 C 0.07688 0.84748 0.52501 0.0
C59 C 0.05218 0.87237 0.53378 0.0
C60 C 0.0643 0.90002 0.45391 0.0
C61 C 0.08905 0.8753 0.4451 0.0
C62 C 0.0172 0.9223 0.50583 0.0
C63 C 0.01728 0.07982 0.56628 0.0
C64 C 0.06445 0.02121 0.66409 0.0
C65 C 0.87658 0.04356 0.72573 0.0
C66 C 0.82976 0.09613 0.74571 0.0
C67 C 0.8748 0.12187 0.7113 0.0
C68 C 0.8979 0.09563 0.70124 0.0
C69 C 0.8317 0.01784 0.75996 0.0
C70 C 0.80838 0.04375 0.76983 0.0
C71 C 0.90057 0.01539 0.71702 0.0
H72 H 0.08049 0.82655 0.55292 0.0
H73 H 0.03762 0.87062 0.56815 0.0
H74 H 0.05944 0.92008 0.42604 0.0
H75 H 0.10373 0.87771 0.41063 0.0
H76 H 0.89158 0.1618 0.6918 0.0
H77 H 0.93233 0.11596 0.67449 0.0
H78 H 0.81488 -0.02225 0.77928 0.0
H79 H 0.77425 0.02333 0.79682 0.0
Zn80 Zn 0.31141 0.61216 0.27244 0.0
Zn81 Zn 0.32127 0.62245 0.45046 0.0
Zn82 Zn 0.31824 0.61525 0.36143 0.0
C83 C 0.4412 0.68333 0.42289 0.0
C84 C 0.23477 0.49503 0.42764 0.0
O85 O 0.27797 0.65096 0.3373 0.0
O86 O 0.25774 0.62745 0.26339 0.0
C87 C 0.43872 0.69915 0.29542 0.0
O88 O 0.41687 0.67432 0.38328 0.0
O89 O 0.40794 0.66105 0.45834 0.0
O90 O 0.25108 0.53101 0.46094 0.0
O91 O 0.25768 0.51795 0.38759 0.0
O92 O 0.40282 0.68275 0.26204 0.0
O93 O 0.41566 0.67613 0.33543 0.0
O94 O 0.2596 0.51664 0.33973 0.0
O95 O 0.27345 0.5257 0.26473 0.0
C96 C 0.25104 0.4924 0.30016 0.0
O97 O 0.28201 0.65511 0.38525 0.0
O98 O 0.3053 0.6756 0.45917 0.0
C99 C 0.25536 0.6495 0.29905 0.0
C100 C 0.2832 0.67771 0.42342 0.0
Zn101 Zn 0.6179 0.33805 0.94977 0.0
Zn102 Zn 0.59566 0.31514 0.77286 0.0
Zn103 Zn 0.60531 0.32802 0.86131 0.0
C104 C 0.66207 0.43959 0.79015 0.0
C105 C 0.47378 0.23362 0.80629 0.0
O106 O 0.64664 0.29324 0.88565 0.0
O107 O 0.63746 0.28852 0.96103 0.0
C108 C 0.69924 0.45977 0.91607 0.0
O109 O 0.65995 0.42231 0.83108 0.0
O110 O 0.63312 0.39989 0.75779 0.0
O111 O 0.50318 0.2442 0.77045 0.0
O112 O 0.50393 0.26325 0.84384 0.0
O113 O 0.68862 0.43057 0.95203 0.0
O114 O 0.66978 0.42943 0.87853 0.0
O115 O 0.51085 0.27319 0.8913 0.0
O116 O 0.533 0.30035 0.96456 0.0
C117 C 0.49339 0.27116 0.93214 0.0
O118 O 0.64051 0.28692 0.83744 0.0
O119 O 0.64553 0.29588 0.76203 0.0
C120 C 0.65316 0.27919 0.92512 0.0
C121 C 0.65483 0.28039 0.79809 0.0
H122 H 0.15262 0.85853 0.31635 0.0
H123 H 0.07436 0.75472 0.18856 0.0
H124 H 0.19346 0.81349 0.33289 0.0
H125 H 0.11698 0.71138 0.20419 0.0
H126 H 0.14416 0.59365 0.26023 0.0
H127 H 0.10184 0.63835 0.24898 0.0
H128 H 0.26639 0.81023 0.31601 0.0
H129 H 0.30636 0.7633 0.32934 0.0
C130 C 0.14389 0.82584 0.29185 0.0
C131 C 0.10975 0.80984 0.25127 0.0
C132 C 0.16773 0.80027 0.3012 0.0
C133 C 0.15749 0.75754 0.27045 0.0
C134 C 0.12437 0.74263 0.22943 0.0
C135 C 0.10067 0.76828 0.22004 0.0
C136 C 0.17063 0.64069 0.27297 0.0
C137 C 0.22809 0.67507 0.29582 0.0
C138 C 0.14689 0.66672 0.26613 0.0
C139 C 0.18104 0.7285 0.28084 0.0
C140 C 0.23831 0.76241 0.30453 0.0
C141 C 0.26144 0.73575 0.31211 0.0
H142 H 0.08522 0.04876 0.7564 0.0
H143 H 0.16866 0.05072 0.6352 0.0
H144 H 0.17722 0.09056 0.80161 0.0
H145 H 0.25969 0.09261 0.67986 0.0
H146 H 0.39964 0.24993 0.83582 0.0
H147 H 0.29279 0.19057 0.80801 0.0
H148 H 0.28773 0.05918 0.73959 0.0
H149 H 0.39438 0.11932 0.76614 0.0
C150 C 0.12296 0.05789 0.73942 0.0
C151 C 0.11951 0.04633 0.69213 0.0
C152 C 0.17561 0.08194 0.76532 0.0
C153 C 0.22534 0.09411 0.74447 0.0
C154 C 0.22161 0.08244 0.69726 0.0
C155 C 0.16952 0.05893 0.67147 0.0
C156 C 0.37459 0.20712 0.81615 0.0
C157 C 0.40508 0.18935 0.80258 0.0
C158 C 0.31358 0.17323 0.80015 0.0
C159 C 0.2826 0.12121 0.77055 0.0
C160 C 0.31104 0.10003 0.76126 0.0
C161 C 0.37183 0.13408 0.77676 0.0
H162 H -0.02131 0.13869 0.1702 0.0
H163 H 0.10906 0.13207 0.22198 0.0
H164 H 0.03314 0.2345 0.21545 0.0
H165 H 0.16276 0.22708 0.26665 0.0
H166 H 0.29088 0.44562 0.25934 0.0
H167 H 0.22716 0.33733 0.23479 0.0
H168 H 0.06546 0.28118 0.30035 0.0
H169 H 0.13048 0.39052 0.32595 0.0
C170 C 0.01836 0.15715 0.19149 0.0
C171 C 0.0401 0.12827 0.19183 0.0
C172 C 0.04905 0.21153 0.21772 0.0
C173 C 0.10214 0.23805 0.2444 0.0
C174 C 0.12213 0.2077 0.24619 0.0
C175 C 0.09137 0.15336 0.22038 0.0
C176 C 0.24218 0.40973 0.26963 0.0
C177 C 0.21538 0.42579 0.2946 0.0
C178 C 0.20573 0.34788 0.25562 0.0
C179 C 0.14137 0.30109 0.26549 0.0
C180 C 0.11495 0.31661 0.29219 0.0
C181 C 0.15203 0.37869 0.3071 0.0
H182 H 0.89568 0.22013 0.75608 0.0
H183 H 0.70766 0.0339 0.75985 0.0
H184 H 0.85458 0.26523 0.77274 0.0
H185 H 0.66629 0.07884 0.77571 0.0
H186 H 0.6172 0.178 0.84076 0.0
H187 H 0.66119 0.13413 0.83185 0.0
H188 H 0.79433 0.27901 0.73444 0.0
H189 H 0.75162 0.32354 0.74477 0.0
C190 C 0.84551 0.1889 0.76015 0.0
C191 C 0.80487 0.12354 0.7564 0.0
C192 C 0.82192 0.21467 0.7697 0.0
C193 C 0.75706 0.17568 0.77535 0.0
C194 C 0.71655 0.11022 0.77223 0.0
C195 C 0.74021 0.08446 0.76296 0.0
C196 C 0.65644 0.20069 0.818 0.0
C197 C 0.68204 0.25473 0.79415 0.0
C198 C 0.68118 0.1753 0.81246 0.0
C199 C 0.73159 0.20327 0.7826 0.0
C200 C 0.75653 0.25708 0.75848 0.0
C201 C 0.73182 0.28234 0.76406 0.0
H202 H 0.83218 0.89797 0.24931 0.0
H203 H 0.74395 0.8706 0.12048 0.0
H204 H 0.73709 0.85329 0.28967 0.0
H205 H 0.64925 0.82498 0.16042 0.0
H206 H 0.50732 0.79793 0.23846 0.0
H207 H 0.61198 0.85627 0.20999 0.0
H208 H 0.62689 0.75407 0.30087 0.0
H209 H 0.52195 0.69662 0.33035 0.0
C210 C 0.79255 0.88229 0.22956 0.0
C211 C 0.7959 0.88818 0.1816 0.0
C212 C 0.738 0.8565 0.25273 0.0
C213 C 0.68574 0.83622 0.22842 0.0
C214 C 0.68907 0.84151 0.18045 0.0
C215 C 0.74338 0.86728 0.1574 0.0
C216 C 0.53355 0.78892 0.25308 0.0
C217 C 0.50651 0.74256 0.28636 0.0
C218 C 0.5933 0.82191 0.23648 0.0
C219 C 0.62719 0.80865 0.25217 0.0
C220 C 0.60202 0.76538 0.28795 0.0
C221 C 0.54206 0.73261 0.30498 0.0
H222 H 0.94436 0.80341 0.66831 0.0
H223 H 0.79632 0.7921 0.70099 0.0
H224 H 0.88729 0.70437 0.70857 0.0
H225 H 0.74004 0.69396 0.74059 0.0
H226 H 0.6253 0.48048 0.73492 0.0
H227 H 0.68795 0.58681 0.70764 0.0
H228 H 0.8443 0.65372 0.79153 0.0
H229 H 0.78063 0.54624 0.8194 0.0
C230 C 0.89999 0.78011 0.68418 0.0
C231 C 0.87468 0.80542 0.681 0.0
C232 C 0.86771 0.72384 0.70756 0.0
C233 C 0.8093 0.69164 0.72762 0.0
C234 C 0.78483 0.71768 0.72526 0.0
C235 C 0.8172 0.77396 0.70246 0.0
C236 C 0.67268 0.51809 0.74817 0.0
C237 C 0.69807 0.50547 0.7795 0.0
C238 C 0.7085 0.5789 0.7326 0.0
C239 C 0.77098 0.62839 0.74738 0.0
C240 C 0.79628 0.61621 0.77948 0.0
C241 C 0.75979 0.55512 0.79577 0.0
H242 H 0.17746 0.85837 0.53329 0.0
H243 H 0.07206 0.77814 0.40624 0.0
H244 H 0.22101 0.81598 0.51765 0.0
H245 H 0.11735 0.73754 0.38965 0.0
H246 H 0.16894 0.62577 0.39347 0.0
H247 H 0.12155 0.66531 0.4067 0.0
H248 H 0.29379 0.83117 0.47248 0.0
H249 H 0.33893 0.78928 0.46139 0.0
C250 C 0.16358 0.83166 0.50197 0.0
C251 C 0.12153 0.82198 0.47095 0.0
C252 C 0.18936 0.80809 0.49257 0.0
C253 C 0.17412 0.77454 0.45171 0.0
C254 C 0.13085 0.76364 0.42119 0.0
C255 C 0.10513 0.78733 0.43057 0.0
C256 C 0.19645 0.67087 0.41041 0.0
C257 C 0.25735 0.7047 0.42644 0.0
C258 C 0.16954 0.69376 0.41793 0.0
C259 C 0.20341 0.75126 0.44127 0.0
C260 C 0.26543 0.78592 0.45564 0.0
C261 C 0.29171 0.76242 0.44888 0.0
H262 H 0.14039 0.13608 1.02081 0.0
H263 H 0.13007 -0.01102 1.05461 0.0
H264 H 0.23837 0.19223 0.98103 0.0
H265 H 0.22898 0.04593 1.01417 0.0
H266 H 0.38705 0.1522 0.90325 0.0
H267 H 0.27951 0.08832 0.93111 0.0
H268 H 0.34567 0.24513 1.01401 0.0
H269 H 0.45205 0.30798 0.98675 0.0
C270 C 0.1587 0.11537 1.01955 0.0
C271 C 0.12757 0.05821 1.0414 0.0
C272 C 0.21489 0.14766 0.99664 0.0
C273 C 0.2412 0.12345 0.99455 0.0
C274 C 0.20931 0.06532 1.01497 0.0
C275 C 0.1531 0.0331 1.03845 0.0
C276 C 0.37798 0.17308 0.92666 0.0
C277 C 0.42744 0.23499 0.94267 0.0
C278 C 0.31686 0.13648 0.94294 0.0
C279 C 0.30445 0.16184 0.97476 0.0
C280 C 0.35375 0.22452 0.98926 0.0
C281 C 0.41459 0.26045 0.9737 0.0
H282 H 0.0633 0.18967 0.60268 0.0
H283 H 0.03594 0.10156 0.47372 0.0
H284 H 0.10919 0.28452 0.56285 0.0
H285 H 0.08089 0.19681 0.4335 0.0
H286 H 0.23759 0.41191 0.39289 0.0
H287 H 0.18026 0.30702 0.42242 0.0
H288 H 0.07796 0.32189 0.5133 0.0
H289 H 0.13614 0.42645 0.48475 0.0
C290 C 0.06669 0.1903 0.56576 0.0
C291 C 0.04569 0.13776 0.54149 0.0
C292 C 0.09261 0.2447 0.54278 0.0
C293 C 0.09798 0.24811 0.49481 0.0
C294 C 0.07763 0.19584 0.47044 0.0
C295 C 0.05168 0.1412 0.49353 0.0
C296 C 0.20161 0.3918 0.41827 0.0
C297 C 0.19155 0.4273 0.43684 0.0
C298 C 0.16891 0.33187 0.43534 0.0
C299 C 0.12562 0.3067 0.47112 0.0
C300 C 0.11232 0.34057 0.48681 0.0
C301 C 0.14522 0.40026 0.47016 0.0
H302 H 0.90018 0.22714 0.96465 0.0
H303 H 0.71402 0.039 0.96777 0.0
H304 H 0.85522 0.26848 0.94876 0.0
H305 H 0.6689 0.08007 0.95109 0.0
H306 H 0.61004 0.18258 0.97864 0.0
H307 H 0.65481 0.14017 0.98938 0.0
H308 H 0.80014 0.27353 0.89228 0.0
H309 H 0.75599 0.31718 0.88294 0.0
C310 C 0.84964 0.19456 0.96141 0.0
C311 C 0.81057 0.12987 0.96777 0.0
C312 C 0.82386 0.2182 0.95212 0.0
C313 C 0.75842 0.17764 0.9488 0.0
C314 C 0.71945 0.11276 0.95429 0.0
C315 C 0.74523 0.08919 0.96385 0.0
C316 C 0.6514 0.2025 0.95951 0.0
C317 C 0.67904 0.25222 0.92936 0.0
C318 C 0.6768 0.17797 0.96533 0.0
C319 C 0.73079 0.20304 0.9414 0.0
C320 C 0.75883 0.25343 0.91152 0.0
C321 C 0.73328 0.27798 0.90573 0.0
H322 H 0.80184 0.82574 0.5002 0.0
H323 H 0.79442 0.95494 0.55373 0.0
H324 H 0.7069 0.77237 0.45559 0.0
H325 H 0.69867 0.90081 0.50853 0.0
H326 H 0.54285 0.80432 0.39786 0.0
H327 H 0.65218 0.86942 0.42353 0.0
H328 H 0.59652 0.7072 0.48757 0.0
H329 H 0.48824 0.6434 0.46298 0.0
C330 C 0.78038 0.84325 0.50221 0.0
C331 C 0.80522 0.89407 0.53123 0.0
C332 C 0.72608 0.81268 0.47643 0.0
C333 C 0.69552 0.83241 0.47872 0.0
C334 C 0.7218 0.8851 0.50587 0.0
C335 C 0.77616 0.91561 0.53206 0.0
C336 C 0.5548 0.78269 0.41639 0.0
C337 C 0.50784 0.71916 0.42846 0.0
C338 C 0.61686 0.81981 0.43135 0.0
C339 C 0.63251 0.79325 0.45763 0.0
C340 C 0.58587 0.72875 0.46706 0.0
C341 C 0.52403 0.69225 0.45302 0.0
H342 H 0.88244 0.76475 1.08703 0.0
H343 H 0.88382 0.84823 0.96619 0.0
H344 H 0.84051 0.67382 1.04218 0.0
H345 H 0.84195 0.7563 0.92079 0.0
H346 H 0.81389 0.53946 0.95559 0.0
H347 H 0.87406 0.64616 0.98207 0.0
H348 H 0.74186 0.64051 0.91455 0.0
H349 H 0.68248 0.5336 0.88678 0.0
C350 C 0.87408 0.76393 1.05079 0.0
C351 C 0.88655 0.81392 1.03029 0.0
C352 C 0.85056 0.71189 1.0249 0.0
C353 C 0.83872 0.7082 0.97773 0.0
C354 C 0.85072 0.7579 0.95704 0.0
C355 C 0.8748 0.81051 0.98305 0.0
C356 C 0.79897 0.5619 0.94512 0.0
C357 C 0.74347 0.52848 0.91959 0.0
C358 C 0.83303 0.62272 0.96059 0.0
C359 C 0.81163 0.65099 0.95156 0.0
C360 C 0.75938 0.61984 0.9222 0.0
C361 C 0.72546 0.5588 0.90623 0.0
loop_
_geom_bond_atom_site_label_1
_geom_bond_atom_site_label_2
_geom_bond_distance
_geom_bond_site_symmetry_2
_ccdc_geom_bond_type
Dy0 O3 2.307 1_565 S
Dy0 O5 2.395 . S
Dy0 O6 2.379 . S
Dy0 O8 2.339 1_455 S
Dy0 O10 2.308 1_455 S
Dy0 O14 2.275 1_564 S
Dy0 C22 2.738 . S
Dy1 O4 2.298 1_656 S
Dy1 O7 2.275 1_546 S
Dy1 O9 2.307 1_545 S
Dy1 O11 2.395 . S
Dy1 O12 2.379 . S
Dy1 O15 2.339 1_655 S
Dy1 C31 2.738 . S
C2 O14 1.254 . S
C2 O15 1.257 . S
O3 Dy0 2.307 1_545 S
O3 C13 1.266 . S
O4 Dy1 2.298 1_454 S
O4 C13 1.236 . S
O5 Dy0 2.395 . S
O5 C22 1.255 . S
O6 Dy0 2.379 . S
O6 C22 1.249 . S
O7 Dy1 2.275 1_564 S
O7 C23 1.254 . S
O8 Dy0 2.339 1_655 S
O8 C23 1.257 . S
O9 Dy1 2.307 1_565 S
O9 C24 1.266 . S
O10 Dy0 2.308 1_655 S
O10 C24 1.220 1_554 S
O11 Dy1 2.395 . S
O11 C31 1.255 . S
O12 Dy1 2.379 . S
O12 C31 1.249 . S
C13 O3 1.266 . S
C13 O4 1.236 . S
O14 Dy0 2.275 1_546 S
O14 C2 1.254 . S
O15 Dy1 2.339 1_455 S
O15 C2 1.257 . S
C16 C19 1.344 . S
C16 C20 1.328 . S
C16 C22 1.516 . S
C17 C18 1.304 . S
C17 C21 1.323 . S
C18 C17 1.304 . S
C18 C19 1.371 . S
C18 H32 0.930 . S
C19 C16 1.344 . S
C19 C18 1.371 . S
C19 H33 0.931 . S
C20 C16 1.328 . S
C20 C21 1.433 . S
C20 H34 0.931 . S
C21 C17 1.323 . S
C21 C20 1.433 . S
C21 H35 0.933 . S
C22 Dy0 2.738 . S
C22 O5 1.255 . S
C22 O6 1.249 . S
C22 C16 1.516 . S
C23 O7 1.254 . S
C23 O8 1.257 . S
C24 O9 1.266 . S
C24 O10 1.220 1_556 S
C25 C28 1.344 . S
C25 C29 1.328 . S
C25 C31 1.516 . S
C26 C27 1.304 . S
C26 C30 1.323 . S
C27 C26 1.304 . S
C27 C28 1.371 . S
C27 H36 0.930 . S
C28 C25 1.344 . S
C28 C27 1.371 . S
C28 H37 0.931 . S
C29 C25 1.328 . S
C29 C30 1.433 . S
C29 H38 0.931 . S
C30 C26 1.323 . S
C30 C29 1.433 . S
C30 H39 0.933 . S
C31 Dy1 2.738 . S
C31 O11 1.255 . S
C31 O12 1.249 . S
C31 C25 1.516 . S
H32 C18 0.930 . S
H33 C19 0.931 . S
H34 C20 0.931 . S
H35 C21 0.933 . S
H36 C27 0.930 . S
H37 C28 0.931 . S
H38 C29 0.931 . S
H39 C30 0.933 . S
Dy40 O43 2.307 1_455 S
Dy40 O45 2.395 . S
Dy40 O46 2.379 1_565 S
Dy40 O48 2.339 1_565 S
Dy40 O50 2.298 1_565 S
Dy40 O54 2.275 1_455 S
Dy40 C62 2.738 . S
Dy41 O44 2.298 1_445 S
Dy41 O47 2.275 . S
Dy41 O49 2.307 . S
Dy41 O51 2.395 1_455 S
Dy41 O52 2.379 1_455 S
Dy41 O55 2.339 1_445 S
Dy41 C71 2.738 1_455 S
C42 O54 1.254 . S
C42 O55 1.257 . S
O43 Dy40 2.307 1_655 S
O43 C53 1.266 . S
O44 Dy41 2.298 1_665 S
O44 C53 1.236 . S
O45 Dy40 2.395 . S
O45 C62 1.255 . S
O46 Dy40 2.379 1_545 S
O46 C62 1.249 1_545 S
O47 Dy41 2.275 . S
O47 C63 1.254 . S
O48 Dy40 2.339 1_545 S
O48 C63 1.257 . S
O49 Dy41 2.307 . S
O49 C64 1.266 . S
O50 Dy40 2.298 1_545 S
O50 C64 1.236 . S
O51 Dy41 2.395 1_655 S
O51 C71 1.255 . S
O52 Dy41 2.379 1_655 S
O52 C71 1.249 . S
C53 O43 1.266 . S
C53 O44 1.236 . S
O54 Dy40 2.275 1_655 S
O54 C42 1.254 . S
O55 Dy41 2.339 1_665 S
O55 C42 1.257 . S
C56 C59 1.344 . S
C56 C60 1.328 . S
C56 C62 1.516 . S
C57 C58 1.304 . S
C57 C61 1.323 . S
C58 C57 1.304 . S
C58 C59 1.371 . S
C58 H72 0.930 . S
C59 C56 1.344 . S
C59 C58 1.371 . S
C59 H73 0.931 . S
C60 C56 1.328 . S
C60 C61 1.433 . S
C60 H74 0.931 . S
C61 C57 1.323 . S
C61 C60 1.433 . S
C61 H75 0.933 . S
C62 Dy40 2.738 . S
C62 O45 1.255 . S
C62 O46 1.249 1_565 S
C62 C56 1.516 . S
C63 O47 1.254 . S
C63 O48 1.257 . S
C64 O49 1.266 . S
C64 O50 1.236 . S
C65 C68 1.344 . S
C65 C69 1.328 . S
C65 C71 1.516 . S
C66 C67 1.304 . S
C66 C70 1.323 . S
C67 C66 1.304 . S
C67 C68 1.371 . S
C67 H76 0.930 . S
C68 C65 1.344 . S
C68 C67 1.371 . S
C68 H77 0.931 . S
C69 C65 1.328 . S
C69 C70 1.433 . S
C69 H78 0.931 . S
C70 C66 1.323 . S
C70 C69 1.433 . S
C70 H79 0.933 . S
C71 Dy41 2.738 1_655 S
C71 O51 1.255 . S
C71 O52 1.249 . S
C71 C65 1.516 . S
H72 C58 0.930 . S
H73 C59 0.931 . S
H74 C60 0.931 . S
H75 C61 0.933 . S
H76 C67 0.930 . S
H77 C68 0.931 . S
H78 C69 0.931 . S
H79 C70 0.933 . S
Zn80 O86 1.920 . S
Zn80 O92 1.898 . S
Zn80 O95 1.905 . S
Zn81 O89 1.905 . S
Zn81 O90 1.898 . S
Zn81 O98 1.920 . S
Zn82 O85 2.080 . S
Zn82 O88 2.114 . S
Zn82 O91 2.120 . S
Zn82 O93 2.120 . S
Zn82 O94 2.114 . S
Zn82 O97 2.080 . S
C83 O88 1.166 . S
C83 O89 1.182 . S
C84 O90 1.167 . S
C84 O91 1.299 . S
O85 Zn82 2.080 . S
O85 C99 1.305 . S
O86 Zn80 1.920 . S
O86 C99 1.234 . S
C87 O92 1.167 . S
C87 O93 1.299 . S
O88 Zn82 2.114 . S
O88 C83 1.166 . S
O89 Zn81 1.905 . S
O89 C83 1.182 . S
O90 Zn81 1.898 . S
O90 C84 1.167 . S
O91 Zn82 2.120 . S
O91 C84 1.299 . S
O92 Zn80 1.898 . S
O92 C87 1.167 . S
O93 Zn82 2.120 . S
O93 C87 1.299 . S
O94 Zn82 2.114 . S
O94 C96 1.166 . S
O95 Zn80 1.905 . S
O95 C96 1.182 . S
C96 O94 1.166 . S
C96 O95 1.182 . S
O97 Zn82 2.080 . S
O97 C100 1.305 . S
O98 Zn81 1.920 . S
O98 C100 1.234 . S
C99 O85 1.305 . S
C99 O86 1.234 . S
C100 O97 1.305 . S
C100 O98 1.234 . S
Zn101 O107 1.920 . S
Zn101 O113 1.898 . S
Zn101 O116 1.905 . S
Zn102 O110 1.905 . S
Zn102 O111 1.898 . S
Zn102 O119 1.920 . S
Zn103 O106 2.080 . S
Zn103 O109 2.114 . S
Zn103 O112 2.120 . S
Zn103 O114 2.120 . S
Zn103 O115 2.114 . S
Zn103 O118 2.080 . S
C104 O109 1.166 . S
C104 O110 1.182 . S
C105 O111 1.167 . S
C105 O112 1.299 . S
O106 Zn103 2.080 . S
O106 C120 1.305 . S
O107 Zn101 1.920 . S
O107 C120 1.234 . S
C108 O113 1.167 . S
C108 O114 1.299 . S
O109 Zn103 2.114 . S
O109 C104 1.166 . S
O110 Zn102 1.905 . S
O110 C104 1.182 . S
O111 Zn102 1.898 . S
O111 C105 1.167 . S
O112 Zn103 2.120 . S
O112 C105 1.299 . S
O113 Zn101 1.898 . S
O113 C108 1.167 . S
O114 Zn103 2.120 . S
O114 C108 1.299 . S
O115 Zn103 2.114 . S
O115 C117 1.166 . S
O116 Zn101 1.905 . S
O116 C117 1.182 . S
C117 O115 1.166 . S
C117 O116 1.182 . S
O118 Zn103 2.080 . S
O118 C121 1.305 . S
O119 Zn102 1.920 . S
O119 C121 1.234 . S
C120 O106 1.305 . S
C120 O107 1.234 . S
C121 O118 1.305 . S
C121 O119 1.234 . S
H122 C130 0.950 . S
H123 C135 0.950 . S
H124 C132 0.950 . S
H125 C134 0.950 . S
H126 C136 0.950 . S
H127 C138 0.950 . S
H128 C140 0.950 . S
H129 C141 0.950 . S
C130 H122 0.950 . S
C130 C131 1.386 . S
C130 C132 1.391 . S
C131 C130 1.386 . S
C131 C135 1.393 . S
C132 H124 0.950 . S
C132 C130 1.391 . S
C132 C133 1.400 . S
C133 C132 1.400 . S
C133 C134 1.398 . S
C133 C139 1.491 . S
C134 H125 0.950 . S
C134 C133 1.398 . S
C134 C135 1.391 . S
C135 H123 0.950 . S
C135 C131 1.393 . S
C135 C134 1.391 . S
C136 H126 0.950 . S
C136 C137 1.386 . S
C136 C138 1.391 . S
C137 C136 1.386 . S
C137 C141 1.393 . S
C138 H127 0.950 . S
C138 C136 1.391 . S
C138 C139 1.400 . S
C139 C133 1.491 . S
C139 C138 1.400 . S
C139 C140 1.398 . S
C140 H128 0.950 . S
C140 C139 1.398 . S
C140 C141 1.391 . S
C141 H129 0.950 . S
C141 C137 1.393 . S
C141 C140 1.391 . S
H142 C150 0.950 . S
H143 C155 0.950 . S
H144 C152 0.950 . S
H145 C154 0.950 . S
H146 C156 0.950 . S
H147 C158 0.950 . S
H148 C160 0.950 . S
H149 C161 0.950 . S
C150 H142 0.950 . S
C150 C151 1.386 . S
C150 C152 1.391 . S
C151 C150 1.386 . S
C151 C155 1.393 . S
C152 H144 0.950 . S
C152 C150 1.391 . S
C152 C153 1.400 . S
C153 C152 1.400 . S
C153 C154 1.398 . S
C153 C159 1.491 . S
C154 H145 0.950 . S
C154 C153 1.398 . S
C154 C155 1.391 . S
C155 H143 0.950 . S
C155 C151 1.393 . S
C155 C154 1.391 . S
C156 H146 0.950 . S
C156 C157 1.386 . S
C156 C158 1.391 . S
C157 C156 1.386 . S
C157 C161 1.393 . S
C158 H147 0.950 . S
C158 C156 1.391 . S
C158 C159 1.400 . S
C159 C153 1.491 . S
C159 C158 1.400 . S
C159 C160 1.398 . S
C160 H148 0.950 . S
C160 C159 1.398 . S
C160 C161 1.391 . S
C161 H149 0.950 . S
C161 C157 1.393 . S
C161 C160 1.391 . S
H162 C170 0.950 . S
H163 C175 0.950 . S
H164 C172 0.950 . S
H165 C174 0.950 . S
H166 C176 0.950 . S
H167 C178 0.950 . S
H168 C180 0.950 . S
H169 C181 0.950 . S
C170 H162 0.950 . S
C170 C171 1.386 . S
C170 C172 1.391 . S
C171 C170 1.386 . S
C171 C175 1.393 . S
C172 H164 0.950 . S
C172 C170 1.391 . S
C172 C173 1.400 . S
C173 C172 1.400 . S
C173 C174 1.398 . S
C173 C179 1.491 . S
C174 H165 0.950 . S
C174 C173 1.398 . S
C174 C175 1.391 . S
C175 H163 0.950 . S
C175 C171 1.393 . S
C175 C174 1.391 . S
C176 H166 0.950 . S
C176 C177 1.386 . S
C176 C178 1.391 . S
C177 C176 1.386 . S
C177 C181 1.393 . S
C178 H167 0.950 . S
C178 C176 1.391 . S
C178 C179 1.400 . S
C179 C173 1.491 . S
C179 C178 1.400 . S
C179 C180 1.398 . S
C180 H168 0.950 . S
C180 C179 1.398 . S
C180 C181 1.391 . S
C181 H169 0.950 . S
C181 C177 1.393 . S
C181 C180 1.391 . S
H182 C190 0.950 . S
H183 C195 0.950 . S
H184 C192 0.950 . S
H185 C194 0.950 . S
H186 C196 0.950 . S
H187 C198 0.950 . S
H188 C200 0.950 . S
H189 C201 0.950 . S
C190 H182 0.950 . S
C190 C191 1.386 . S
C190 C192 1.391 . S
C191 C190 1.386 . S
C191 C195 1.393 . S
C192 H184 0.950 . S
C192 C190 1.391 . S
C192 C193 1.400 . S
C193 C192 1.400 . S
C193 C194 1.398 . S
C193 C199 1.491 . S
C194 H185 0.950 . S
C194 C193 1.398 . S
C194 C195 1.391 . S
C195 H183 0.950 . S
C195 C191 1.393 . S
C195 C194 1.391 . S
C196 H186 0.950 . S
C196 C197 1.386 . S
C196 C198 1.391 . S
C197 C196 1.386 . S
C197 C201 1.393 . S
C198 H187 0.950 . S
C198 C196 1.391 . S
C198 C199 1.400 . S
C199 C193 1.491 . S
C199 C198 1.400 . S
C199 C200 1.398 . S
C200 H188 0.950 . S
C200 C199 1.398 . S
C200 C201 1.391 . S
C201 H189 0.950 . S
C201 C197 1.393 . S
C201 C200 1.391 . S
H202 C210 0.950 . S
H203 C215 0.950 . S
H204 C212 0.950 . S
H205 C214 0.950 . S
H206 C216 0.950 . S
H207 C218 0.950 . S
H208 C220 0.950 . S
H209 C221 0.950 . S
C210 H202 0.950 . S
C210 C211 1.386 . S
C210 C212 1.391 . S
C211 C210 1.386 . S
C211 C215 1.393 . S
C212 H204 0.950 . S
C212 C210 1.391 . S
C212 C213 1.400 . S
C213 C212 1.400 . S
C213 C214 1.398 . S
C213 C219 1.491 . S
C214 H205 0.950 . S
C214 C213 1.398 . S
C214 C215 1.391 . S
C215 H203 0.950 . S
C215 C211 1.393 . S
C215 C214 1.391 . S
C216 H206 0.950 . S
C216 C217 1.386 . S
C216 C218 1.391 . S
C217 C216 1.386 . S
C217 C221 1.393 . S
C218 H207 0.950 . S
C218 C216 1.391 . S
C218 C219 1.400 . S
C219 C213 1.491 . S
C219 C218 1.400 . S
C219 C220 1.398 . S
C220 H208 0.950 . S
C220 C219 1.398 . S
C220 C221 1.391 . S
C221 H209 0.950 . S
C221 C217 1.393 . S
C221 C220 1.391 . S
H222 C230 0.950 1_455 S
H223 C235 0.950 . S
H224 C232 0.950 . S
H225 C234 0.950 . S
H226 C236 0.950 . S
H227 C238 0.950 . S
H228 C240 0.950 . S
H229 C241 0.950 . S
C230 H222 0.950 1_655 S
C230 C231 1.386 . S
C230 C232 1.391 . S
C231 C230 1.386 . S
C231 C235 1.393 . S
C232 H224 0.950 . S
C232 C230 1.391 . S
C232 C233 1.400 . S
C233 C232 1.400 . S
C233 C234 1.398 . S
C233 C239 1.491 . S
C234 H225 0.950 . S
C234 C233 1.398 . S
C234 C235 1.391 . S
C235 H223 0.950 . S
C235 C231 1.393 . S
C235 C234 1.391 . S
C236 H226 0.950 . S
C236 C237 1.386 . S
C236 C238 1.391 . S
C237 C236 1.386 . S
C237 C241 1.393 . S
C238 H227 0.950 . S
C238 C236 1.391 . S
C238 C239 1.400 . S
C239 C233 1.491 . S
C239 C238 1.400 . S
C239 C240 1.398 . S
C240 H228 0.950 . S
C240 C239 1.398 . S
C240 C241 1.391 . S
C241 H229 0.950 . S
C241 C237 1.393 . S
C241 C240 1.391 . S
H242 C250 0.950 . S
H243 C255 0.950 . S
H244 C252 0.950 . S
H245 C254 0.950 . S
H246 C256 0.950 . S
H247 C258 0.950 . S
H248 C260 0.950 . S
H249 C261 0.950 . S
C250 H242 0.950 . S
C250 C251 1.386 . S
C250 C252 1.391 . S
C251 C250 1.386 . S
C251 C255 1.393 . S
C252 H244 0.950 . S
C252 C250 1.391 . S
C252 C253 1.400 . S
C253 C252 1.400 . S
C253 C254 1.398 . S
C253 C259 1.491 . S
C254 H245 0.950 . S
C254 C253 1.398 . S
C254 C255 1.391 . S
C255 H243 0.950 . S
C255 C251 1.393 . S
C255 C254 1.391 . S
C256 H246 0.950 . S
C256 C257 1.386 . S
C256 C258 1.391 . S
C257 C256 1.386 . S
C257 C261 1.393 . S
C258 H247 0.950 . S
C258 C256 1.391 . S
C258 C259 1.400 . S
C259 C253 1.491 . S
C259 C258 1.400 . S
C259 C260 1.398 . S
C260 H248 0.950 . S
C260 C259 1.398 . S
C260 C261 1.391 . S
C261 H249 0.950 . S
C261 C257 1.393 . S
C261 C260 1.391 . S
H262 C270 0.950 . S
H263 C275 0.950 . S
H264 C272 0.950 . S
H265 C274 0.950 . S
H266 C276 0.950 . S
H267 C278 0.950 . S
H268 C280 0.950 . S
H269 C281 0.950 . S
C270 H262 0.950 . S
C270 C271 1.386 . S
C270 C272 1.391 . S
C271 C270 1.386 . S
C271 C275 1.393 . S
C272 H264 0.950 . S
C272 C270 1.391 . S
C272 C273 1.400 . S
C273 C272 1.400 . S
C273 C274 1.398 . S
C273 C279 1.491 . S
C274 H265 0.950 . S
C274 C273 1.398 . S
C274 C275 1.391 . S
C275 H263 0.950 . S
C275 C271 1.393 . S
C275 C274 1.391 . S
C276 H266 0.950 . S
C276 C277 1.386 . S
C276 C278 1.391 . S
C277 C276 1.386 . S
C277 C281 1.393 . S
C278 H267 0.950 . S
C278 C276 1.391 . S
C278 C279 1.400 . S
C279 C273 1.491 . S
C279 C278 1.400 . S
C279 C280 1.398 . S
C280 H268 0.950 . S
C280 C279 1.398 . S
C280 C281 1.391 . S
C281 H269 0.950 . S
C281 C277 1.393 . S
C281 C280 1.391 . S
H282 C290 0.950 . S
H283 C295 0.950 . S
H284 C292 0.950 . S
H285 C294 0.950 . S
H286 C296 0.950 . S
H287 C298 0.950 . S
H288 C300 0.950 . S
H289 C301 0.950 . S
C290 H282 0.950 . S
C290 C291 1.386 . S
C290 C292 1.391 . S
C291 C290 1.386 . S
C291 C295 1.393 . S
C292 H284 0.950 . S
C292 C290 1.391 . S
C292 C293 1.400 . S
C293 C292 1.400 . S
C293 C294 1.398 . S
C293 C299 1.491 . S
C294 H285 0.950 . S
C294 C293 1.398 . S
C294 C295 1.391 . S
C295 H283 0.950 . S
C295 C291 1.393 . S
C295 C294 1.391 . S
C296 H286 0.950 . S
C296 C297 1.386 . S
C296 C298 1.391 . S
C297 C296 1.386 . S
C297 C301 1.393 . S
C298 H287 0.950 . S
C298 C296 1.391 . S
C298 C299 1.400 . S
C299 C293 1.491 . S
C299 C298 1.400 . S
C299 C300 1.398 . S
C300 H288 0.950 . S
C300 C299 1.398 . S
C300 C301 1.391 . S
C301 H289 0.950 . S
C301 C297 1.393 . S
C301 C300 1.391 . S
H302 C310 0.950 . S
H303 C315 0.950 . S
H304 C312 0.950 . S
H305 C314 0.950 . S
H306 C316 0.950 . S
H307 C318 0.950 . S
H308 C320 0.950 . S
H309 C321 0.950 . S
C310 H302 0.950 . S
C310 C311 1.386 . S
C310 C312 1.391 . S
C311 C310 1.386 . S
C311 C315 1.393 . S
C312 H304 0.950 . S
C312 C310 1.391 . S
C312 C313 1.400 . S
C313 C312 1.400 . S
C313 C314 1.398 . S
C313 C319 1.491 . S
C314 H305 0.950 . S
C314 C313 1.398 . S
C314 C315 1.391 . S
C315 H303 0.950 . S
C315 C311 1.393 . S
C315 C314 1.391 . S
C316 H306 0.950 . S
C316 C317 1.386 . S
C316 C318 1.391 . S
C317 C316 1.386 . S
C317 C321 1.393 . S
C318 H307 0.950 . S
C318 C316 1.391 . S
C318 C319 1.400 . S
C319 C313 1.491 . S
C319 C318 1.400 . S
C319 C320 1.398 . S
C320 H308 0.950 . S
C320 C319 1.398 . S
C320 C321 1.391 . S
C321 H309 0.950 . S
C321 C317 1.393 . S
C321 C320 1.391 . S
H322 C330 0.950 . S
H323 C335 0.950 . S
H324 C332 0.950 . S
H325 C334 0.950 . S
H326 C336 0.950 . S
H327 C338 0.950 . S
H328 C340 0.950 . S
H329 C341 0.950 . S
C330 H322 0.950 . S
C330 C331 1.386 . S
C330 C332 1.391 . S
C331 C330 1.386 . S
C331 C335 1.393 . S
C332 H324 0.950 . S
C332 C330 1.391 . S
C332 C333 1.400 . S
C333 C332 1.400 . S
C333 C334 1.398 . S
C333 C339 1.491 . S
C334 H325 0.950 . S
C334 C333 1.398 . S
C334 C335 1.391 . S
C335 H323 0.950 . S
C335 C331 1.393 . S
C335 C334 1.391 . S
C336 H326 0.950 . S
C336 C337 1.386 . S
C336 C338 1.391 . S
C337 C336 1.386 . S
C337 C341 1.393 . S
C338 H327 0.950 . S
C338 C336 1.391 . S
C338 C339 1.400 . S
C339 C333 1.491 . S
C339 C338 1.400 . S
C339 C340 1.398 . S
C340 H328 0.950 . S
C340 C339 1.398 . S
C340 C341 1.391 . S
C341 H329 0.950 . S
C341 C337 1.393 . S
C341 C340 1.391 . S
H342 C350 0.950 . S
H343 C355 0.950 1_455 S
H344 C352 0.950 . S
H345 C354 0.950 . S
H346 C356 0.950 . S
H347 C358 0.950 . S
H348 C360 0.950 . S
H349 C361 0.950 . S
C350 H342 0.950 . S
C350 C351 1.386 . S
C350 C352 1.391 . S
C351 C350 1.386 . S
C351 C355 1.393 . S
C352 H344 0.950 . S
C352 C350 1.391 . S
C352 C353 1.400 . S
C353 C352 1.400 . S
C353 C354 1.398 . S
C353 C359 1.491 . S
C354 H345 0.950 . S
C354 C353 1.398 . S
C354 C355 1.391 . S
C355 H343 0.950 1_655 S
C355 C351 1.393 . S
C355 C354 1.391 . S
C356 H346 0.950 . S
C356 C357 1.386 . S
C356 C358 1.391 . S
C357 C356 1.386 . S
C357 C361 1.393 . S
C358 H347 0.950 . S
C358 C356 1.391 . S
C358 C359 1.400 . S
C359 C353 1.491 . S
C359 C358 1.400 . S
C359 C360 1.398 . S
C360 H348 0.950 . S
C360 C359 1.398 . S
C360 C361 1.391 . S
C361 H349 0.950 . S
C361 C357 1.393 . S
C361 C360 1.391 . S
C131 C17 1.333 . S
C137 C99 1.221 . S
C151 C64 1.359 . S
C157 C105 1.214 . S
C171 C13 1.438 . S
C177 C96 1.287 . S
C191 C66 1.393 . S
C197 C121 1.304 . S
C211 C23 1.790 . S
C217 C87 1.602 . S
C237 C104 1.697 . S
C231 C42 1.832 . S
C251 C57 1.328 . S
C257 C100 1.255 . S
C277 C117 1.728 . S
C271 C2 1.847 . S
C297 C84 1.623 . S
C291 C63 1.785 . S
C317 C120 1.266 . S
C311 C26 1.387 . S
C337 C83 1.324 . S
C331 C53 1.437 . S
C357 C108 1.179 . S
C351 C24 1.355 . S
