# Generated by pormake.
# Topology gar, (4,6)-cn, num edge types: 1
# Building blocks:
#     Node 0, Type 0, BuildingBlock: CEKHIL_clean_sbu_0, # of connection points: 4
#     Node 1, Type 0, BuildingBlock: CEKHIL_clean_sbu_0, # of connection points: 4
#     Node 2, Type 0, BuildingBlock: CEKHIL_clean_sbu_0, # of connection points: 4
#     Node 3, Type 0, BuildingBlock: CEKHIL_clean_sbu_0, # of connection points: 4
#     Node 4, Type 0, BuildingBlock: CEKHIL_clean_sbu_0, # of connection points: 4
#     Node 5, Type 0, BuildingBlock: CEKHIL_clean_sbu_0, # of connection points: 4
#     Node 6, Type 0, BuildingBlock: CEKHIL_clean_sbu_0, # of connection points: 4
#     Node 7, Type 0, BuildingBlock: CEKHIL_clean_sbu_0, # of connection points: 4
#     Node 8, Type 0, BuildingBlock: CEKHIL_clean_sbu_0, # of connection points: 4
#     Node 9, Type 0, BuildingBlock: CEKHIL_clean_sbu_0, # of connection points: 4
#     Node 10, Type 0, BuildingBlock: CEKHIL_clean_sbu_0, # of connection points: 4
#     Node 11, Type 0, BuildingBlock: CEKHIL_clean_sbu_0, # of connection points: 4
#     Node 12, Type 0, BuildingBlock: CEKHIL_clean_sbu_0, # of connection points: 4
#     Node 13, Type 0, BuildingBlock: CEKHIL_clean_sbu_0, # of connection points: 4
#     Node 14, Type 0, BuildingBlock: CEKHIL_clean_sbu_0, # of connection points: 4
#     Node 15, Type 0, BuildingBlock: CEKHIL_clean_sbu_0, # of connection points: 4
#     Node 16, Type 0, BuildingBlock: CEKHIL_clean_sbu_0, # of connection points: 4
#     Node 17, Type 0, BuildingBlock: CEKHIL_clean_sbu_0, # of connection points: 4
#     Node 18, Type 0, BuildingBlock: CEKHIL_clean_sbu_0, # of connection points: 4
#     Node 19, Type 0, BuildingBlock: CEKHIL_clean_sbu_0, # of connection points: 4
#     Node 20, Type 0, BuildingBlock: CEKHIL_clean_sbu_0, # of connection points: 4
#     Node 21, Type 0, BuildingBlock: CEKHIL_clean_sbu_0, # of connection points: 4
#     Node 22, Type 0, BuildingBlock: CEKHIL_clean_sbu_0, # of connection points: 4
#     Node 23, Type 0, BuildingBlock: CEKHIL_clean_sbu_0, # of connection points: 4
#     Node 24, Type 1, BuildingBlock: BETDIP_clean_sbu_0, # of connection points: 6
#     Node 25, Type 1, BuildingBlock: BETDIP_clean_sbu_0, # of connection points: 6
#     Node 26, Type 1, BuildingBlock: BETDIP_clean_sbu_0, # of connection points: 6
#     Node 27, Type 1, BuildingBlock: BETDIP_clean_sbu_0, # of connection points: 6
#     Node 28, Type 1, BuildingBlock: BETDIP_clean_sbu_0, # of connection points: 6
#     Node 29, Type 1, BuildingBlock: BETDIP_clean_sbu_0, # of connection points: 6
#     Node 30, Type 1, BuildingBlock: BETDIP_clean_sbu_0, # of connection points: 6
#     Node 31, Type 1, BuildingBlock: BETDIP_clean_sbu_0, # of connection points: 6
#     Node 32, Type 1, BuildingBlock: BETDIP_clean_sbu_0, # of connection points: 6
#     Node 33, Type 1, BuildingBlock: BETDIP_clean_sbu_0, # of connection points: 6
#     Node 34, Type 1, BuildingBlock: BETDIP_clean_sbu_0, # of connection points: 6
#     Node 35, Type 1, BuildingBlock: BETDIP_clean_sbu_0, # of connection points: 6
#     Node 36, Type 1, BuildingBlock: BETDIP_clean_sbu_0, # of connection points: 6
#     Node 37, Type 1, BuildingBlock: BETDIP_clean_sbu_0, # of connection points: 6
#     Node 38, Type 1, BuildingBlock: BETDIP_clean_sbu_0, # of connection points: 6
#     Node 39, Type 1, BuildingBlock: BETDIP_clean_sbu_0, # of connection points: 6
#     Edge 40, Type (0, 1), BuildingBlock: TEMPAE_clean_linker_10, # of connection points: 2
#     Edge 41, Type (0, 1), BuildingBlock: TEMPAE_clean_linker_10, # of connection points: 2
#     Edge 42, Type (0, 1), BuildingBlock: TEMPAE_clean_linker_10, # of connection points: 2
#     Edge 43, Type (0, 1), BuildingBlock: TEMPAE_clean_linker_10, # of connection points: 2
#     Edge 44, Type (0, 1), BuildingBlock: TEMPAE_clean_linker_10, # of connection points: 2
#     Edge 45, Type (0, 1), BuildingBlock: TEMPAE_clean_linker_10, # of connection points: 2
#     Edge 46, Type (0, 1), BuildingBlock: TEMPAE_clean_linker_10, # of connection points: 2
#     Edge 47, Type (0, 1), BuildingBlock: TEMPAE_clean_linker_10, # of connection points: 2
#     Edge 48, Type (0, 1), BuildingBlock: TEMPAE_clean_linker_10, # of connection points: 2
#     Edge 49, Type (0, 1), BuildingBlock: TEMPAE_clean_linker_10, # of connection points: 2
#     Edge 50, Type (0, 1), BuildingBlock: TEMPAE_clean_linker_10, # of connection points: 2
#     Edge 51, Type (0, 1), BuildingBlock: TEMPAE_clean_linker_10, # of connection points: 2
#     Edge 52, Type (0, 1), BuildingBlock: TEMPAE_clean_linker_10, # of connection points: 2
#     Edge 53, Type (0, 1), BuildingBlock: TEMPAE_clean_linker_10, # of connection points: 2
#     Edge 54, Type (0, 1), BuildingBlock: TEMPAE_clean_linker_10, # of connection points: 2
#     Edge 55, Type (0, 1), BuildingBlock: TEMPAE_clean_linker_10, # of connection points: 2
#     Edge 56, Type (0, 1), BuildingBlock: TEMPAE_clean_linker_10, # of connection points: 2
#     Edge 57, Type (0, 1), BuildingBlock: TEMPAE_clean_linker_10, # of connection points: 2
#     Edge 58, Type (0, 1), BuildingBlock: TEMPAE_clean_linker_10, # of connection points: 2
#     Edge 59, Type (0, 1), BuildingBlock: TEMPAE_clean_linker_10, # of connection points: 2
#     Edge 60, Type (0, 1), BuildingBlock: TEMPAE_clean_linker_10, # of connection points: 2
#     Edge 61, Type (0, 1), BuildingBlock: TEMPAE_clean_linker_10, # of connection points: 2
#     Edge 62, Type (0, 1), BuildingBlock: TEMPAE_clean_linker_10, # of connection points: 2
#     Edge 63, Type (0, 1), BuildingBlock: TEMPAE_clean_linker_10, # of connection points: 2
#     Edge 64, Type (0, 1), BuildingBlock: TEMPAE_clean_linker_10, # of connection points: 2
#     Edge 65, Type (0, 1), BuildingBlock: TEMPAE_clean_linker_10, # of connection points: 2
#     Edge 66, Type (0, 1), BuildingBlock: TEMPAE_clean_linker_10, # of connection points: 2
#     Edge 67, Type (0, 1), BuildingBlock: TEMPAE_clean_linker_10, # of connection points: 2
#     Edge 68, Type (0, 1), BuildingBlock: TEMPAE_clean_linker_10, # of connection points: 2
#     Edge 69, Type (0, 1), BuildingBlock: TEMPAE_clean_linker_10, # of connection points: 2
#     Edge 70, Type (0, 1), BuildingBlock: TEMPAE_clean_linker_10, # of connection points: 2
#     Edge 71, Type (0, 1), BuildingBlock: TEMPAE_clean_linker_10, # of connection points: 2
#     Edge 72, Type (0, 1), BuildingBlock: TEMPAE_clean_linker_10, # of connection points: 2
#     Edge 73, Type (0, 1), BuildingBlock: TEMPAE_clean_linker_10, # of connection points: 2
#     Edge 74, Type (0, 1), BuildingBlock: TEMPAE_clean_linker_10, # of connection points: 2
#     Edge 75, Type (0, 1), BuildingBlock: TEMPAE_clean_linker_10, # of connection points: 2
#     Edge 76, Type (0, 1), BuildingBlock: TEMPAE_clean_linker_10, # of connection points: 2
#     Edge 77, Type (0, 1), BuildingBlock: TEMPAE_clean_linker_10, # of connection points: 2
#     Edge 78, Type (0, 1), BuildingBlock: TEMPAE_clean_linker_10, # of connection points: 2
#     Edge 79, Type (0, 1), BuildingBlock: TEMPAE_clean_linker_10, # of connection points: 2
#     Edge 80, Type (0, 1), BuildingBlock: TEMPAE_clean_linker_10, # of connection points: 2
#     Edge 81, Type (0, 1), BuildingBlock: TEMPAE_clean_linker_10, # of connection points: 2
#     Edge 82, Type (0, 1), BuildingBlock: TEMPAE_clean_linker_10, # of connection points: 2
#     Edge 83, Type (0, 1), BuildingBlock: TEMPAE_clean_linker_10, # of connection points: 2
#     Edge 84, Type (0, 1), BuildingBlock: TEMPAE_clean_linker_10, # of connection points: 2
#     Edge 85, Type (0, 1), BuildingBlock: TEMPAE_clean_linker_10, # of connection points: 2
#     Edge 86, Type (0, 1), BuildingBlock: TEMPAE_clean_linker_10, # of connection points: 2
#     Edge 87, Type (0, 1), BuildingBlock: TEMPAE_clean_linker_10, # of connection points: 2
#     Edge 88, Type (0, 1), BuildingBlock: TEMPAE_clean_linker_10, # of connection points: 2
#     Edge 89, Type (0, 1), BuildingBlock: TEMPAE_clean_linker_10, # of connection points: 2
#     Edge 90, Type (0, 1), BuildingBlock: TEMPAE_clean_linker_10, # of connection points: 2
#     Edge 91, Type (0, 1), BuildingBlock: TEMPAE_clean_linker_10, # of connection points: 2
#     Edge 92, Type (0, 1), BuildingBlock: TEMPAE_clean_linker_10, # of connection points: 2
#     Edge 93, Type (0, 1), BuildingBlock: TEMPAE_clean_linker_10, # of connection points: 2
#     Edge 94, Type (0, 1), BuildingBlock: TEMPAE_clean_linker_10, # of connection points: 2
#     Edge 95, Type (0, 1), BuildingBlock: TEMPAE_clean_linker_10, # of connection points: 2
#     Edge 96, Type (0, 1), BuildingBlock: TEMPAE_clean_linker_10, # of connection points: 2
#     Edge 97, Type (0, 1), BuildingBlock: TEMPAE_clean_linker_10, # of connection points: 2
#     Edge 98, Type (0, 1), BuildingBlock: TEMPAE_clean_linker_10, # of connection points: 2
#     Edge 99, Type (0, 1), BuildingBlock: TEMPAE_clean_linker_10, # of connection points: 2
#     Edge 100, Type (0, 1), BuildingBlock: TEMPAE_clean_linker_10, # of connection points: 2
#     Edge 101, Type (0, 1), BuildingBlock: TEMPAE_clean_linker_10, # of connection points: 2
#     Edge 102, Type (0, 1), BuildingBlock: TEMPAE_clean_linker_10, # of connection points: 2
#     Edge 103, Type (0, 1), BuildingBlock: TEMPAE_clean_linker_10, # of connection points: 2
#     Edge 104, Type (0, 1), BuildingBlock: TEMPAE_clean_linker_10, # of connection points: 2
#     Edge 105, Type (0, 1), BuildingBlock: TEMPAE_clean_linker_10, # of connection points: 2
#     Edge 106, Type (0, 1), BuildingBlock: TEMPAE_clean_linker_10, # of connection points: 2
#     Edge 107, Type (0, 1), BuildingBlock: TEMPAE_clean_linker_10, # of connection points: 2
#     Edge 108, Type (0, 1), BuildingBlock: TEMPAE_clean_linker_10, # of connection points: 2
#     Edge 109, Type (0, 1), BuildingBlock: TEMPAE_clean_linker_10, # of connection points: 2
#     Edge 110, Type (0, 1), BuildingBlock: TEMPAE_clean_linker_10, # of connection points: 2
#     Edge 111, Type (0, 1), BuildingBlock: TEMPAE_clean_linker_10, # of connection points: 2
#     Edge 112, Type (0, 1), BuildingBlock: TEMPAE_clean_linker_10, # of connection points: 2
#     Edge 113, Type (0, 1), BuildingBlock: TEMPAE_clean_linker_10, # of connection points: 2
#     Edge 114, Type (0, 1), BuildingBlock: TEMPAE_clean_linker_10, # of connection points: 2
#     Edge 115, Type (0, 1), BuildingBlock: TEMPAE_clean_linker_10, # of connection points: 2
#     Edge 116, Type (0, 1), BuildingBlock: TEMPAE_clean_linker_10, # of connection points: 2
#     Edge 117, Type (0, 1), BuildingBlock: TEMPAE_clean_linker_10, # of connection points: 2
#     Edge 118, Type (0, 1), BuildingBlock: TEMPAE_clean_linker_10, # of connection points: 2
#     Edge 119, Type (0, 1), BuildingBlock: TEMPAE_clean_linker_10, # of connection points: 2
#     Edge 120, Type (0, 1), BuildingBlock: TEMPAE_clean_linker_10, # of connection points: 2
#     Edge 121, Type (0, 1), BuildingBlock: TEMPAE_clean_linker_10, # of connection points: 2
#     Edge 122, Type (0, 1), BuildingBlock: TEMPAE_clean_linker_10, # of connection points: 2
#     Edge 123, Type (0, 1), BuildingBlock: TEMPAE_clean_linker_10, # of connection points: 2
#     Edge 124, Type (0, 1), BuildingBlock: TEMPAE_clean_linker_10, # of connection points: 2
#     Edge 125, Type (0, 1), BuildingBlock: TEMPAE_clean_linker_10, # of connection points: 2
#     Edge 126, Type (0, 1), BuildingBlock: TEMPAE_clean_linker_10, # of connection points: 2
#     Edge 127, Type (0, 1), BuildingBlock: TEMPAE_clean_linker_10, # of connection points: 2
#     Edge 128, Type (0, 1), BuildingBlock: TEMPAE_clean_linker_10, # of connection points: 2
#     Edge 129, Type (0, 1), BuildingBlock: TEMPAE_clean_linker_10, # of connection points: 2
#     Edge 130, Type (0, 1), BuildingBlock: TEMPAE_clean_linker_10, # of connection points: 2
#     Edge 131, Type (0, 1), BuildingBlock: TEMPAE_clean_linker_10, # of connection points: 2
#     Edge 132, Type (0, 1), BuildingBlock: TEMPAE_clean_linker_10, # of connection points: 2
#     Edge 133, Type (0, 1), BuildingBlock: TEMPAE_clean_linker_10, # of connection points: 2
#     Edge 134, Type (0, 1), BuildingBlock: TEMPAE_clean_linker_10, # of connection points: 2
#     Edge 135, Type (0, 1), BuildingBlock: TEMPAE_clean_linker_10, # of connection points: 2
# Relax obj value: 0.180
# Max RMSD: 0.301
# Mean RMSD: 0.148
data_MOF--net-gar--node1-CEKHIL_clean_sbu_0--node2-BETDIP_clean_sbu_0--edge1-TEMPAE_clean_linker_10
_symmetry_space_group_name_H-M    P1
_symmetry_Int_Tables_number       1
_symmetry_cell_setting            triclinic
loop_
_symmetry_equiv_pos_as_xyz
'x, y, z'
_cell_length_a     64.641437
_cell_length_b     57.293803
_cell_length_c     54.284941
_cell_angle_alpha  96.973914
_cell_angle_beta   98.609862
_cell_angle_gamma 100.60845
loop_
_atom_site_label
_atom_site_type_symbol
_atom_site_fract_x
_atom_site_fract_y
_atom_site_fract_z
_atom_type_partial_charge
Co0 Co 0.05097 0.32882 0.41783 0.0
O1 O 0.07967 0.32511 0.41651 0.0
O2 O 0.05448 0.32178 0.38304 0.0
C3 C 0.06027 0.36205 0.44705 0.0
O4 O 1.01976 0.33184 0.41195 0.0
Co5 Co 0.03279 0.32681 0.4678 0.0
O6 O 1.00758 0.33565 0.44862 0.0
C7 C 0.0389 0.28257 0.43805 0.0
C8 C 0.07407 0.32083 0.39217 0.0
C9 C 1.00499 0.33496 0.42478 0.0
O10 O 0.04218 0.29359 0.41931 0.0
O11 O 0.03702 0.29314 0.45954 0.0
O12 O 0.06016 0.3639 0.42338 0.0
O13 O 0.05612 0.34054 0.45219 0.0
Co14 Co 0.05466 0.75814 0.69767 0.0
O15 O 0.02638 0.76329 0.69837 0.0
O16 O 0.04286 0.74255 0.72389 0.0
C17 C 0.06901 0.79684 0.69665 0.0
O18 O 0.08445 0.75044 0.70247 0.0
Co19 Co 0.07489 0.76913 0.65046 0.0
O20 O 0.10082 0.7634 0.67129 0.0
C21 C 0.04157 0.72577 0.647 0.0
C22 C 0.02623 0.75178 0.71745 0.0
C23 C 0.10094 0.75431 0.69162 0.0
O24 O 0.04322 0.72856 0.67122 0.0
O25 O 0.0508 0.74156 0.63524 0.0
O26 O 0.06653 0.78978 0.71804 0.0
O27 O 0.06109 0.78099 0.67695 0.0
Co28 Co 0.54009 0.82125 0.89351 0.0
O29 O 0.56987 0.82107 0.89426 0.0
O30 O 0.54518 0.81275 0.85965 0.0
C31 C 0.54478 0.85613 0.91965 0.0
O32 O 0.50798 0.82033 0.88544 0.0
Co33 Co 0.52087 0.8196 0.94304 0.0
O34 O 0.49487 0.82426 0.92155 0.0
C35 C 0.53446 0.77743 0.91897 0.0
C36 C 0.56509 0.81486 0.86996 0.0
C37 C 0.49265 0.82273 0.89765 0.0
O38 O 0.5349 0.78643 0.89842 0.0
O39 O 0.53155 0.78901 0.93943 0.0
O40 O 0.54595 0.85644 0.89598 0.0
O41 O 0.5429 0.83539 0.92684 0.0
Co42 Co 0.56707 0.27425 0.22002 0.0
O43 O 0.53686 0.27057 0.21854 0.0
O44 O 0.55805 0.25741 0.24709 0.0
C45 C 0.57239 0.31363 0.21645 0.0
O46 O 0.5994 0.27576 0.22671 0.0
Co47 Co 0.58614 0.29063 0.17335 0.0
O48 O 0.61343 0.29419 0.19673 0.0
C49 C 0.56687 0.23941 0.17306 0.0
C50 C 0.53898 0.26071 0.23872 0.0
C51 C 0.61549 0.28473 0.21682 0.0
O52 O 0.56302 0.24339 0.19567 0.0
O53 O 0.57451 0.25582 0.16094 0.0
O54 O 0.57145 0.30702 0.23834 0.0
O55 O 0.56839 0.29645 0.19771 0.0
Co56 Co 0.08139 0.80702 0.16731 0.0
O57 O 0.05035 0.80354 0.16162 0.0
O58 O 0.06933 0.79762 0.19651 0.0
C59 C 0.08736 0.84338 0.15226 0.0
O60 O 0.11349 0.8094 0.18177 0.0
Co61 Co 0.1081 0.80956 0.12544 0.0
O62 O 0.13378 0.81567 0.15221 0.0
C63 C 0.08294 0.76235 0.13086 0.0
C64 C 0.05062 0.79833 0.18426 0.0
C65 C 0.13199 0.81301 0.17479 0.0
O66 O 0.0785 0.77186 0.15181 0.0
O67 O 0.09296 0.7749 0.11668 0.0
O68 O 0.08468 0.84221 0.17536 0.0
O69 O 0.08574 0.82271 0.13875 0.0
Co70 Co 0.52554 0.77396 0.44599 0.0
O71 O 0.55651 0.77788 0.45126 0.0
O72 O 0.53534 0.76154 0.41543 0.0
C73 C 0.52576 0.81244 0.4637 0.0
O74 O 0.49283 0.76871 0.43227 0.0
Co75 Co 0.50133 0.7781 0.49008 0.0
O76 O 0.47657 0.7795 0.46436 0.0
C77 C 0.51852 0.73431 0.47964 0.0
C78 C 0.55481 0.76863 0.42786 0.0
C79 C 0.47609 0.77336 0.4409 0.0
O80 O 0.52303 0.74118 0.45879 0.0
O81 O 0.51114 0.74752 0.49549 0.0
O82 O 0.52816 0.80748 0.44045 0.0
O83 O 0.5249 0.79446 0.4761 0.0
Co84 Co 0.58298 0.31053 0.67056 0.0
O85 O 0.55191 0.30668 0.66407 0.0
O86 O 0.57041 0.30052 0.69918 0.0
C87 C 0.58879 0.34726 0.65614 0.0
O88 O 0.61495 0.31316 0.68598 0.0
Co89 Co 0.61079 0.31399 0.63019 0.0
O90 O 0.63611 0.32038 0.6575 0.0
C91 C 0.58558 0.26633 0.63404 0.0
C92 C 0.55183 0.30116 0.68655 0.0
C93 C 0.63375 0.31729 0.67982 0.0
O94 O 0.58056 0.27553 0.65475 0.0
O95 O 0.59605 0.2792 0.62048 0.0
O96 O 0.58579 0.34556 0.67904 0.0
O97 O 0.58775 0.32682 0.64237 0.0
Co98 Co 0.02431 0.27014 0.94514 0.0
O99 O 0.05537 0.27439 0.9512 0.0
O100 O 0.03478 0.25814 0.91497 0.0
C101 C 0.02392 0.30846 0.96299 0.0
O102 O 0.99178 0.26449 0.93029 0.0
Co103 Co 0.99857 0.27347 0.98778 0.0
O104 O 0.97388 0.27356 0.96135 0.0
C105 C 1.01703 0.2304 0.97855 0.0
C106 C 0.05409 0.26529 0.92781 0.0
C107 C 0.97439 0.268 0.93805 0.0
O108 O 0.02178 0.23726 0.95778 0.0
O109 O 1.00911 0.24346 0.99396 0.0
O110 O 0.02683 0.30377 0.93991 0.0
O111 O 0.02279 0.29031 0.97517 0.0
Co112 Co 0.42453 0.06389 0.29935 0.0
O113 O 0.42773 0.10054 0.30195 0.0
O114 O 0.39754 0.07657 0.28901 0.0
C115 C 0.44423 0.06267 0.34057 0.0
O116 O 0.41047 0.02616 0.29592 0.0
Co117 Co 0.45861 0.03311 0.30178 0.0
O118 O 0.43618 1.00592 0.30632 0.0
C119 C 0.44992 0.05203 0.25366 0.0
C120 C 0.40725 0.09895 0.29486 0.0
C121 C 0.41637 1.00624 0.301 0.0
O122 O 0.43407 0.06056 0.26229 0.0
O123 O 0.46193 0.04153 0.26752 0.0
O124 O 0.4249 0.06666 0.33715 0.0
O125 O 0.45154 0.06131 0.31966 0.0
Co126 Co 0.27571 0.16347 0.52286 0.0
O127 O 0.30681 0.1699 0.52649 0.0
O128 O 0.28724 0.13589 0.53197 0.0
C129 C 0.27123 0.17919 0.48573 0.0
O130 O 0.24348 0.14842 0.52026 0.0
Co131 Co 0.2482 0.20165 0.52064 0.0
O132 O 0.2227 0.17508 0.51344 0.0
C133 C 0.27378 0.19757 0.56953 0.0
C134 C 0.30615 0.14818 0.53144 0.0
C135 C 0.2248 0.15386 0.51625 0.0
O136 O 0.27783 0.17752 0.55977 0.0
O137 O 0.26393 0.21061 0.55639 0.0
O138 O 0.27361 0.15714 0.48587 0.0
O139 O 0.27181 0.19097 0.50773 0.0
Co140 Co 0.15968 0.05838 0.83357 0.0
O141 O 0.15204 0.02352 0.82766 0.0
O142 O 0.18219 0.0454 0.82134 0.0
C143 C 0.14949 0.0623 0.872 0.0
O144 O 0.1751 0.09336 0.83814 0.0
Co145 Co 0.12979 0.09276 0.83999 0.0
O146 O 0.15512 0.11983 0.84774 0.0
C147 C 0.12842 0.06645 0.78934 0.0
C148 C 0.17066 0.02426 0.82104 0.0
C149 C 0.17297 0.11508 0.84398 0.0
O150 O 0.14563 0.05957 0.79789 0.0
O151 O 0.11853 0.07815 0.80365 0.0
O152 O 0.16813 0.05784 0.86949 0.0
O153 O 0.13727 0.06375 0.85124 0.0
Co154 Co 0.25208 0.89721 1.00153 0.0
O155 O 0.22767 0.89141 0.01833 0.0
O156 O 0.25296 0.92466 0.0257 0.0
C157 C 0.23502 0.8832 0.96186 0.0
O158 O 0.27856 0.91117 0.98841 0.0
Co159 Co 0.26909 0.85789 0.97098 0.0
O160 O 0.28845 0.88483 0.96093 0.0
C161 C 0.2791 0.86565 0.02659 0.0
C162 C 0.23555 0.91277 0.03111 0.0
C163 C 0.29045 0.90603 0.97251 0.0
O164 O 0.26953 0.88343 0.02771 0.0
O165 O 0.27974 0.85255 1.00598 0.0
O166 O 0.23468 0.90487 0.97205 0.0
O167 O 0.24385 0.87034 0.97648 0.0
Co168 Co 0.32674 0.41034 0.07391 0.0
O169 O 0.29567 0.40328 0.07054 0.0
O170 O 0.31612 0.43865 0.08606 0.0
C171 C 0.32693 0.39195 0.03425 0.0
O172 O 0.35908 0.42609 0.07856 0.0
Co173 Co 0.35406 0.37176 0.07001 0.0
O174 O 0.37836 0.39824 0.06969 0.0
C175 C 0.33569 0.38051 0.11618 0.0
C176 C 0.29687 0.42568 0.07935 0.0
C177 C 0.37693 0.42006 0.07509 0.0
O178 O 0.32949 0.39917 0.10866 0.0
O179 O 0.34453 0.36672 0.10272 0.0
O180 O 0.32388 0.4138 0.03808 0.0
O181 O 0.3288 0.38161 0.05408 0.0
Co182 Co 0.86461 0.16762 0.08693 0.0
O183 O 0.89499 0.17078 0.09458 0.0
O184 O 0.87133 0.14642 0.11036 0.0
C185 C 0.86185 0.16496 0.04501 0.0
O186 O 0.83245 0.15836 0.08268 0.0
Co187 Co 0.84358 0.20522 0.06149 0.0
O188 O 0.81667 0.18055 0.05731 0.0
C189 C 0.86211 0.2155 0.11564 0.0
C190 C 0.89115 0.15395 0.10831 0.0
C191 C 0.81578 0.16301 0.06976 0.0
O192 O 0.86535 0.19398 0.11518 0.0
O193 O 0.8555 0.22409 0.09592 0.0
O194 O 0.86314 0.14606 0.05568 0.0
O195 O 0.86439 0.18495 0.06001 0.0
Co196 Co 0.18123 0.51195 0.32537 0.0
O197 O 0.17805 0.47518 0.32238 0.0
O198 O 0.20743 0.49799 0.31988 0.0
C199 C 0.16438 0.51776 0.36283 0.0
O200 O 0.19507 0.5498 0.32793 0.0
Co201 Co 0.14711 0.54279 0.32383 0.0
O202 O 0.17009 0.57211 0.32935 0.0
C203 C 0.15254 0.51841 0.27439 0.0
C204 C 0.19796 0.47598 0.32003 0.0
C205 C 0.18952 0.57085 0.32904 0.0
O206 O 0.16875 0.51033 0.28594 0.0
O207 O 0.14155 0.53034 0.28681 0.0
O208 O 0.18389 0.51444 0.36387 0.0
O209 O 0.15548 0.51654 0.33965 0.0
Co210 Co 0.82662 0.9109 0.57467 0.0
O211 O 0.79562 0.90485 0.57208 0.0
O212 O 0.81683 0.93985 0.58707 0.0
C213 C 0.82557 0.89214 0.53486 0.0
O214 O 0.85927 0.92537 0.57835 0.0
Co215 Co 0.85256 0.87112 0.56965 0.0
O216 O 0.87437 0.89657 0.56116 0.0
C217 C 0.83593 0.88112 0.61703 0.0
C218 C 0.79735 0.92737 0.58073 0.0
C219 C 0.87497 0.91857 0.56904 0.0
O220 O 0.82961 0.89971 0.60946 0.0
O221 O 0.84456 0.86717 0.60342 0.0
O222 O 0.82324 0.91426 0.53879 0.0
O223 O 0.82749 0.88184 0.55471 0.0
Co224 Co 0.94579 1.00777 0.27809 0.0
O225 O 0.95325 0.04245 0.28036 0.0
O226 O 0.92153 0.01982 0.26369 0.0
C227 C 0.96076 1.00653 0.3184 0.0
O228 O 0.93044 0.97258 0.27374 0.0
Co229 Co 0.97769 0.97471 0.2838 0.0
O230 O 0.95293 0.94853 0.28421 0.0
C231 C 0.97292 0.99807 0.23834 0.0
C232 C 0.93353 0.04117 0.26989 0.0
C233 C 0.93406 0.95196 0.27802 0.0
O234 O 0.95574 1.00389 0.24425 0.0
O235 O 0.98491 0.98804 0.25283 0.0
O236 O 0.94181 1.01125 0.31319 0.0
O237 O 0.97059 1.00403 0.29945 0.0
Co238 Co 0.36589 0.68439 0.58344 0.0
O239 O 0.39139 0.68333 0.56965 0.0
O240 O 0.36836 0.65152 0.57577 0.0
C241 C 0.35374 0.7105 0.56033 0.0
O242 O 0.33759 0.67912 0.59603 0.0
Co243 Co 0.36004 0.73454 0.61287 0.0
O244 O 0.33155 0.71444 0.61403 0.0
C245 C 0.38756 0.70688 0.63288 0.0
C246 C 0.3855 0.66013 0.56726 0.0
C247 C 0.32584 0.69177 0.6066 0.0
O248 O 0.38129 0.68658 0.61869 0.0
O249 O 0.38851 0.72558 0.62235 0.0
O250 O 0.35111 0.68804 0.55069 0.0
O251 O 0.36571 0.71695 0.5823 0.0
Co252 Co 0.44255 0.50924 0.7841 0.0
O253 O 0.4491 0.54402 0.78742 0.0
O254 O 0.41776 0.52066 0.77031 0.0
C255 C 0.45813 0.50787 0.82412 0.0
O256 O 0.42794 0.47382 0.77894 0.0
Co257 Co 0.47508 0.47686 0.78898 0.0
O258 O 0.45075 0.45 0.78882 0.0
C259 C 0.46941 0.50069 0.74383 0.0
C260 C 0.4292 0.54222 0.77731 0.0
C261 C 0.43181 0.45317 0.78265 0.0
O262 O 0.45233 0.50647 0.75012 0.0
O263 O 0.48157 0.49055 0.75796 0.0
O264 O 0.43885 0.51178 0.8193 0.0
O265 O 0.46774 0.50587 0.80493 0.0
Co266 Co 0.6804 1.01105 0.82374 0.0
O267 O 0.6773 0.9745 0.82231 0.0
O268 O 0.70618 0.99669 0.81724 0.0
C269 C 0.66411 0.01757 0.86147 0.0
O270 O 0.69437 0.04857 0.82525 0.0
Co271 Co 0.64686 0.04212 0.82244 0.0
O272 O 0.66992 0.07138 0.82765 0.0
C273 C 0.65164 0.01753 0.77289 0.0
C274 C 0.69687 0.97494 0.81877 0.0
C275 C 0.68917 0.06976 0.82668 0.0
O276 O 0.66746 1.00879 0.78436 0.0
O277 O 0.6411 0.02999 0.78539 0.0
O278 O 0.68381 1.01491 0.86239 0.0
O279 O 0.65484 1.01571 0.83836 0.0
Co280 Co 0.77655 0.6628 0.02491 0.0
O281 O 0.80767 0.66911 0.02875 0.0
O282 O 0.78793 0.63539 0.03475 0.0
C283 C 0.77191 0.67751 0.98737 0.0
O284 O 0.74432 0.64803 0.0223 0.0
Co285 Co 0.7493 0.70139 0.02179 0.0
O286 O 0.72379 0.67486 0.0149 0.0
C287 C 0.77462 0.69768 0.07094 0.0
C288 C 0.80688 0.64751 0.03413 0.0
C289 C 0.72574 0.65367 0.01808 0.0
O290 O 0.77852 0.67744 0.06153 0.0
O291 O 0.76498 0.7107 0.05753 0.0
O292 O 0.77468 0.65568 0.98807 0.0
O293 O 0.77261 0.68989 1.00908 0.0
Co294 Co 0.92382 0.56229 0.80087 0.0
O295 O 0.92656 0.59889 0.80365 0.0
O296 O 0.8967 0.57456 0.78988 0.0
C297 C 0.94295 0.56144 0.84251 0.0
O298 O 0.90995 0.52458 0.79715 0.0
Co299 Co 0.95795 0.53198 0.80512 0.0
O300 O 0.93543 0.50461 0.80919 0.0
C301 C 0.9506 0.55074 0.75656 0.0
C302 C 0.90611 0.59702 0.79608 0.0
C303 C 0.91568 0.50481 0.80294 0.0
O304 O 0.93434 0.55926 0.76421 0.0
O305 O 0.96227 0.54065 0.77132 0.0
O306 O 0.92329 0.56436 0.83849 0.0
O307 O 0.95075 0.56053 0.82197 0.0
Co308 Co 0.74503 0.40743 0.49795 0.0
O309 O 0.71997 0.42115 0.49803 0.0
O310 O 0.75356 0.44097 0.51065 0.0
C311 C 0.73645 0.38555 0.45936 0.0
O312 O 0.77481 0.4009 0.49998 0.0
Co313 Co 0.74467 0.35285 0.49385 0.0
O314 O 0.77519 0.36187 0.49001 0.0
C315 C 0.73952 0.37999 0.54158 0.0
C316 C 0.73334 0.44134 0.50723 0.0
C317 C 0.78474 0.38385 0.49551 0.0
O318 O 0.74412 0.39994 0.53307 0.0
O319 O 0.73685 0.35941 0.52801 0.0
O320 O 0.74378 0.40861 0.46206 0.0
O321 O 0.73193 0.37735 0.47945 0.0
Co322 Co 0.6587 0.56216 0.3401 0.0
O323 O 0.65145 0.52728 0.33548 0.0
O324 O 0.68153 0.54909 0.32891 0.0
C325 C 0.64794 0.56672 0.37827 0.0
O326 O 0.67407 0.59708 0.34355 0.0
Co327 Co 0.62918 0.59675 0.34492 0.0
O328 O 0.65436 0.62402 0.35213 0.0
C329 C 0.62799 0.5693 0.29482 0.0
C330 C 0.67027 0.52801 0.32942 0.0
C331 C 0.67213 0.61896 0.34859 0.0
O332 O 0.64491 0.56216 0.30395 0.0
O333 O 0.61823 0.58169 0.30864 0.0
O334 O 0.66682 0.56275 0.3763 0.0
O335 O 0.63592 0.5678 0.35721 0.0
Tb336 Tb 0.04087 0.01934 0.0381 0.0
Tb337 Tb 0.07733 0.04928 0.07311 0.0
C338 C 1.00328 1.00098 0.01644 0.0
C339 C 0.98359 1.00529 0.02525 0.0
C340 C 0.97837 0.99718 0.04747 0.0
C341 C 0.96524 1.00827 0.0611 0.0
C342 C 0.95667 0.02709 0.05231 0.0
C343 C 0.95955 0.03293 0.02848 0.0
C344 C 0.9729 0.02208 0.01502 0.0
C345 C 0.07656 0.02496 0.01872 0.0
C346 C 0.04854 0.07667 0.04192 0.0
C347 C 0.11377 0.06756 0.09846 0.0
C348 C 0.13114 0.05627 0.1087 0.0
C349 C 0.15185 0.06482 0.10454 0.0
C350 C 0.167 0.05038 0.1067 0.0
C351 C 0.1615 0.02711 0.11278 0.0
C352 C 0.14169 0.01997 0.12019 0.0
C353 C 0.12653 0.0344 0.11802 0.0
C354 C 0.04092 0.04438 0.09117 0.0
C355 C 0.06878 0.99233 0.07173 0.0
O356 O 1.01506 0.98978 0.03053 0.0
O357 O 1.01489 0.01957 1.00985 0.0
O358 O 0.07045 0.04039 0.03287 0.0
O359 O 0.06161 1.00576 0.01388 0.0
O360 O 0.03417 0.05616 0.03841 0.0
O361 O 0.06827 0.07773 0.05343 0.0
O362 O 0.1095 0.06457 0.07382 0.0
O363 O 0.09644 0.06393 0.10832 0.0
O364 O 0.04746 0.02854 0.07804 0.0
O365 O 0.05549 0.06394 0.0951 0.0
O366 O 0.08334 1.01261 0.07576 0.0
O367 O 0.04938 0.9916 0.05951 0.0
H368 H 0.98586 0.98376 0.05552 0.0
H369 H 0.96287 1.00321 0.07923 0.0
H370 H 0.95303 0.04739 0.02128 0.0
H371 H 0.97644 0.02847 0.99782 0.0
H372 H 0.15574 0.08173 0.09753 0.0
H373 H 0.1824 0.05659 0.10152 0.0
H374 H 0.1371 1.00229 0.12527 0.0
H375 H 0.11068 0.02748 0.12158 0.0
Tb376 Tb 0.30672 0.77879 0.29054 0.0
Tb377 Tb 0.29442 0.79963 0.33364 0.0
C378 C 0.31417 0.76679 0.24703 0.0
C379 C 0.31902 0.77898 0.22583 0.0
C380 C 0.31786 0.80319 0.22601 0.0
C381 C 0.32045 0.81399 0.20472 0.0
C382 C 0.32389 0.80058 0.18285 0.0
C383 C 0.32589 0.77659 0.18306 0.0
C384 C 0.32354 0.76588 0.20451 0.0
C385 C 0.33237 0.77412 0.33205 0.0
C386 C 0.32325 0.83651 0.30816 0.0
C387 C 0.28508 0.81467 0.37531 0.0
C388 C 0.27958 0.80708 0.39858 0.0
C389 C 0.27649 0.78289 0.40182 0.0
C390 C 0.2751 0.77672 0.42569 0.0
C391 C 0.27704 0.79473 0.44647 0.0
C392 C 0.27835 0.81868 0.44263 0.0
C393 C 0.27958 0.82481 0.41876 0.0
C394 C 0.2697 0.8047 0.29147 0.0
C395 C 0.27935 0.74168 0.31758 0.0
O396 O 0.29504 0.76648 0.25219 0.0
O397 O 0.32882 0.77207 0.26729 0.0
O398 O 0.32509 0.79266 0.32792 0.0
O399 O 0.32476 0.75755 0.31277 0.0
O400 O 0.31883 0.81821 0.28922 0.0
O401 O 0.31673 0.83255 0.32951 0.0
O402 O 0.30454 0.8141 0.37178 0.0
O403 O 0.271 0.80656 0.3548 0.0
O404 O 0.27627 0.78595 0.29615 0.0
O405 O 0.27756 0.82132 0.31053 0.0
O406 O 0.28363 0.76024 0.33634 0.0
O407 O 0.28549 0.74549 0.29593 0.0
H408 H 0.31405 0.81346 0.24214 0.0
H409 H 0.31849 0.83238 0.20486 0.0
H410 H 0.32853 0.76594 0.16637 0.0
H411 H 0.32447 0.74715 0.20413 0.0
H412 H 0.27644 0.76904 0.38633 0.0
H413 H 0.27444 0.75815 0.42828 0.0
H414 H 0.27997 0.83282 0.45842 0.0
H415 H 0.28187 0.84357 0.41639 0.0
Tb416 Tb 0.57398 0.04003 0.54626 0.0
Tb417 Tb 0.52874 0.03402 0.5637 0.0
C418 C 0.61307 0.04052 0.54474 0.0
C419 C 0.63126 0.02844 0.55146 0.0
C420 C 0.62938 1.00783 0.56334 0.0
C421 C 0.64697 0.99661 0.56833 0.0
C422 C 0.66675 1.00556 0.56122 0.0
C423 C 0.66844 0.02634 0.54958 0.0
C424 C 0.65102 0.03757 0.54483 0.0
C425 C 0.54273 0.04708 0.50883 0.0
C426 C 0.54364 0.9878 0.54046 0.0
C427 C 0.48967 0.03365 0.5649 0.0
C428 C 0.47258 0.04779 0.56056 0.0
C429 C 0.46771 0.05717 0.53809 0.0
C430 C 0.4506 0.06926 0.5345 0.0
C431 C 0.43791 0.07225 0.55327 0.0
C432 C 0.44303 0.06286 0.57571 0.0
C433 C 0.46005 0.05088 0.57925 0.0
C434 C 0.55984 0.0271 0.60125 0.0
C435 C 0.55909 0.08612 0.57055 0.0
O436 O 0.60641 0.0527 0.56296 0.0
O437 O 0.59723 0.0288 0.52707 0.0
O438 O 0.54161 0.04171 0.53079 0.0
O439 O 0.56304 0.04965 0.50821 0.0
O440 O 0.56324 1.00092 0.54258 0.0
O441 O 0.52726 0.99725 0.54587 0.0
O442 O 0.49656 0.0238 0.54542 0.0
O443 O 0.50515 0.04221 0.58413 0.0
O444 O 0.56114 0.03185 0.57907 0.0
O445 O 0.53965 0.02554 0.60205 0.0
O446 O 0.53941 0.07311 0.56791 0.0
O447 O 0.57548 0.07657 0.56524 0.0
H448 H 0.61429 1.00027 0.5685 0.0
H449 H 0.64492 0.9806 0.57719 0.0
H450 H 0.68337 0.0341 0.54418 0.0
H451 H 0.65295 0.05342 0.53567 0.0
H452 H 0.47701 0.05507 0.52324 0.0
H453 H 0.4474 0.07638 0.51706 0.0
H454 H 0.43354 0.06424 0.59045 0.0
H455 H 0.46323 0.04363 0.59664 0.0
Tb456 Tb 0.27974 0.28482 0.8028 0.0
Tb457 Tb 0.32631 0.27641 0.81154 0.0
C458 C 0.24041 0.28285 0.80421 0.0
C459 C 0.22381 0.28284 0.82066 0.0
C460 C 0.22279 0.26901 0.84037 0.0
C461 C 0.20537 0.26719 0.85338 0.0
C462 C 0.18838 0.27896 0.84693 0.0
C463 C 0.18978 0.29311 0.82748 0.0
C464 C 0.2072 0.29502 0.81464 0.0
C465 C 0.30971 0.31829 0.79244 0.0
C466 C 0.30957 0.29942 0.85803 0.0
C467 C 0.36546 0.27776 0.80972 0.0
C468 C 0.38157 0.27814 0.79253 0.0
C469 C 0.38601 0.29684 0.77826 0.0
C470 C 0.40327 0.29851 0.76503 0.0
C471 C 0.41663 0.28161 0.76573 0.0
C472 C 0.41172 0.26257 0.77946 0.0
C473 C 0.39451 0.26092 0.79268 0.0
C474 C 0.29637 0.24325 0.82244 0.0
C475 C 0.29707 0.26317 0.75609 0.0
O476 O 0.24924 0.26407 0.80197 0.0
O477 O 0.25409 0.3029 0.8045 0.0
O478 O 0.31118 0.30611 0.81006 0.0
O479 O 0.29004 0.31326 0.78044 0.0
O480 O 0.28997 0.29358 0.84422 0.0
O481 O 0.32674 0.29621 0.84846 0.0
O482 O 0.35715 0.29682 0.8135 0.0
O483 O 0.35144 0.25779 0.80873 0.0
O484 O 0.29486 0.25508 0.8045 0.0
O485 O 0.31603 0.2485 0.83444 0.0
O486 O 0.31651 0.26896 0.77016 0.0
O487 O 0.27969 0.26572 0.76554 0.0
H488 H 0.23524 0.25922 0.84542 0.0
H489 H 0.2052 0.25648 0.86848 0.0
H490 H 0.17704 0.30218 0.82151 0.0
H491 H 0.20733 0.3055 0.79932 0.0
H492 H 0.37648 0.31053 0.77773 0.0
H493 H 0.40622 0.31318 0.75436 0.0
H494 H 0.42165 0.24933 0.78081 0.0
H495 H 0.39176 0.24651 0.80375 0.0
Tb496 Tb 0.05135 0.05932 0.55264 0.0
Tb497 Tb 0.05816 1.00721 0.54724 0.0
C498 C 0.05813 0.10226 0.54638 0.0
C499 C 0.04997 0.11362 0.52533 0.0
C500 C 0.06331 0.13327 0.51907 0.0
C501 C 0.05758 0.14191 0.49671 0.0
C502 C 0.0384 0.13097 0.48016 0.0
C503 C 0.02479 0.11153 0.48669 0.0
C504 C 0.03065 0.10273 0.50907 0.0
C505 C 1.0154 0.02921 0.55653 0.0
C506 C 0.03537 0.02395 0.49984 0.0
C507 C 0.06077 0.96561 0.55457 0.0
C508 C 0.06423 0.9555 0.57807 0.0
C509 C 0.05276 0.96033 0.59749 0.0
C510 C 0.05734 0.95199 0.62038 0.0
C511 C 0.07363 0.93898 0.62434 0.0
C512 C 0.08526 0.93448 0.605 0.0
C513 C 0.08056 0.94264 0.58205 0.0
C514 C 0.08833 0.0398 0.5354 0.0
C515 C 0.06867 0.04071 0.60187 0.0
O516 O 0.07029 0.08742 0.54017 0.0
O517 O 0.04442 0.09359 0.56022 0.0
O518 O 0.03327 0.02477 0.55328 0.0
O519 O 1.01741 0.0523 0.55761 0.0
O520 O 0.04172 0.04628 0.51203 0.0
O521 O 0.03813 1.00504 0.5108 0.0
O522 O 0.04245 0.97214 0.54875 0.0
O523 O 0.07706 0.98149 0.55128 0.0
O524 O 0.07819 0.04227 0.55342 0.0
O525 O 0.08184 0.018 0.52346 0.0
O526 O 0.06517 0.01895 0.58837 0.0
O527 O 0.0656 0.0599 0.59159 0.0
H528 H 0.07845 0.14155 0.53118 0.0
H529 H 0.06809 0.15738 0.49247 0.0
H530 H 1.00985 0.10298 0.47435 0.0
H531 H 1.0204 0.0871 0.51336 0.0
H532 H 0.04039 0.9707 0.59513 0.0
H533 H 0.0481 0.95564 0.63497 0.0
H534 H 0.09756 0.92399 0.60731 0.0
H535 H 0.08974 0.93898 0.5674 0.0
Tb536 Tb 0.29443 0.7552 0.80169 0.0
Tb537 Tb 0.29647 0.80436 0.78424 0.0
C538 C 0.29329 0.71116 0.80194 0.0
C539 C 0.30912 0.69572 0.80139 0.0
C540 C 0.33106 0.70571 0.80476 0.0
C541 C 0.34583 0.69085 0.80259 0.0
C542 C 0.33888 0.66576 0.79717 0.0
C543 C 0.31693 0.65582 0.79434 0.0
C544 C 0.30217 0.6707 0.79632 0.0
C545 C 0.28444 0.78896 0.83246 0.0
C546 C 0.33821 0.79243 0.81613 0.0
C547 C 0.29725 0.84835 0.78572 0.0
C548 C 0.28122 0.86329 0.78832 0.0
C549 C 0.25978 0.85515 0.77643 0.0
C550 C 0.24468 0.8693 0.78003 0.0
C551 C 0.2507 0.89166 0.79583 0.0
C552 C 0.27216 0.89958 0.80783 0.0
C553 C 0.28724 0.88553 0.80409 0.0
C554 C 0.30618 0.77096 0.75288 0.0
C555 C 0.25272 0.76712 0.76967 0.0
O556 O 0.28893 0.72049 0.78138 0.0
O557 O 0.29566 0.72676 0.82246 0.0
O558 O 0.28047 0.78532 0.80899 0.0
O559 O 0.29248 0.77141 0.84016 0.0
O560 O 0.32857 0.76951 0.81275 0.0
O561 O 0.32828 0.80906 0.80785 0.0
O562 O 0.30294 0.83864 0.80565 0.0
O563 O 0.29438 0.83338 0.76459 0.0
O564 O 0.31027 0.77412 0.77645 0.0
O565 O 0.29858 0.78903 0.7458 0.0
O566 O 0.26241 0.79004 0.77341 0.0
O567 O 0.26265 0.75032 0.7776 0.0
H568 H 0.33677 0.72498 0.80878 0.0
H569 H 0.36268 0.69894 0.80514 0.0
H570 H 0.31114 0.63654 0.79003 0.0
H571 H 0.28529 0.66268 0.79357 0.0
H572 H 0.25466 0.83782 0.76453 0.0
H573 H 0.22823 0.86256 0.77078 0.0
H574 H 0.27738 0.91685 0.81986 0.0
H575 H 0.30365 0.89201 0.81361 0.0
Tb576 Tb 0.53391 0.0429 0.03492 0.0
Tb577 Tb 0.5718 0.04018 0.07326 0.0
C578 C 0.49907 0.03098 1.00476 0.0
C579 C 0.47607 0.02996 1.00167 0.0
C580 C 0.46415 0.02403 0.97724 0.0
C581 C 0.44193 0.01774 0.97351 0.0
C582 C 0.43126 0.01733 0.99425 0.0
C583 C 0.44326 0.0252 0.01872 0.0
C584 C 0.46558 0.03137 0.02243 0.0
C585 C 0.55522 0.08458 0.06005 0.0
C586 C 0.52754 0.04079 0.09465 0.0
C587 C 0.60783 0.05297 0.1012 0.0
C588 C 0.63028 0.05601 0.09813 0.0
C589 C 0.63575 0.05274 0.07409 0.0
C590 C 0.65677 0.06049 0.07082 0.0
C591 C 0.67282 0.0713 0.09164 0.0
C592 C 0.66752 0.0727 0.11595 0.0
C593 C 0.64637 0.06532 0.11911 0.0
C594 C 0.55011 0.99859 0.04863 0.0
C595 C 0.57807 0.04149 0.01351 0.0
O596 O 0.50652 0.01689 0.01963 0.0
O597 O 0.51175 0.05211 1.00723 0.0
O598 O 0.55161 0.06481 0.06791 0.0
O599 O 0.54512 0.08171 0.03697 0.0
O600 O 0.5186 0.04002 0.0703 0.0
O601 O 0.54862 0.04161 0.1002 0.0
O602 O 0.59746 0.06782 0.09058 0.0
O603 O 0.59654 0.03095 0.09752 0.0
O604 O 0.55395 0.01819 0.0404 0.0
O605 O 0.56019 1.00156 0.07181 0.0
O606 O 0.58678 0.04224 0.0378 0.0
O607 O 0.55708 0.04089 1.00789 0.0
H608 H 0.4721 0.02276 0.96104 0.0
H609 H 0.43328 1.01153 0.95446 0.0
H610 H 0.43546 0.02546 0.03505 0.0
H611 H 0.47463 0.03597 0.04145 0.0
H612 H 0.62369 0.04527 0.05767 0.0
H613 H 0.66014 0.05917 0.0518 0.0
H614 H 0.67956 0.08029 0.13249 0.0
H615 H 0.64245 0.06786 0.13785 0.0
Tb616 Tb 0.28113 0.26972 0.29167 0.0
Tb617 Tb 0.32366 0.30414 0.31598 0.0
C618 C 0.243 0.24711 0.28414 0.0
C619 C 0.22361 0.25371 0.29151 0.0
C620 C 0.22527 0.27198 0.31185 0.0
C621 C 0.20703 0.2794 0.31787 0.0
C622 C 0.18674 0.26845 0.30389 0.0
C623 C 0.18503 0.24979 0.28385 0.0
C624 C 0.20339 0.2426 0.27757 0.0
C625 C 0.30302 0.29098 0.26025 0.0
C626 C 0.28113 0.32763 0.31152 0.0
C627 C 0.36041 0.32685 0.31479 0.0
C628 C 0.38186 0.32109 0.31847 0.0
C629 C 0.39726 0.33262 0.30597 0.0
C630 C 0.41618 0.32438 0.30467 0.0
C631 C 0.42025 0.30441 0.316 0.0
C632 C 0.40505 0.29347 0.32943 0.0
C633 C 0.38598 0.30166 0.33054 0.0
C634 C 0.30762 0.28018 0.35042 0.0
C635 C 0.32338 0.24599 0.29916 0.0
O636 O 0.25762 0.24476 0.30263 0.0
O637 O 0.25121 0.25935 0.26785 0.0
O638 O 0.30107 0.29972 0.28205 0.0
O639 O 0.29174 0.26913 0.25504 0.0
O640 O 0.27024 0.30474 0.30375 0.0
O641 O 0.30268 0.33185 0.3167 0.0
O642 O 0.34746 0.31384 0.29498 0.0
O643 O 0.35105 0.32952 0.33462 0.0
O644 O 0.30022 0.27919 0.3274 0.0
O645 O 0.32509 0.29663 0.35527 0.0
O646 O 0.33428 0.26865 0.30744 0.0
O647 O 0.30201 0.24201 0.29226 0.0
H648 H 0.24067 0.28058 0.3231 0.0
H649 H 0.20876 0.29352 0.3337 0.0
H650 H 0.16955 0.24106 0.27283 0.0
H651 H 0.20183 0.22852 0.26176 0.0
H652 H 0.39418 0.34727 0.29604 0.0
H653 H 0.42708 0.33301 0.29361 0.0
H654 H 0.40761 0.27822 0.3386 0.0
H655 H 0.37411 0.29223 0.33996 0.0
Tb656 Tb 0.55071 0.56066 0.05827 0.0
Tb657 Tb 0.5577 0.51176 0.05211 0.0
C658 C 0.55062 0.60293 0.05097 0.0
C659 C 0.54668 0.61301 0.02745 0.0
C660 C 0.56241 0.63123 0.02237 0.0
C661 C 0.55966 0.6401 0.99957 0.0
C662 C 0.54106 0.63099 0.98142 0.0
C663 C 0.52536 0.6126 0.98642 0.0
C664 C 0.52821 0.60356 1.00918 0.0
C665 C 0.51934 0.52909 0.06952 0.0
C666 C 0.53688 0.52736 1.00383 0.0
C667 C 0.55968 0.47005 0.05966 0.0
C668 C 0.56133 0.46068 0.08375 0.0
C669 C 0.54739 0.46496 0.10059 0.0
C670 C 0.55049 0.45831 0.12452 0.0
C671 C 0.5677 0.44753 0.13216 0.0
C672 C 0.5816 0.44325 0.11529 0.0
C673 C 0.57841 0.44974 0.09128 0.0
C674 C 0.58836 0.54351 0.03998 0.0
C675 C 0.5696 0.54408 0.10685 0.0
O676 O 0.56799 0.59423 0.05415 0.0
O677 O 0.53432 0.58898 0.057 0.0
O678 O 0.52948 0.52611 0.05159 0.0
O679 O 0.52621 0.55092 0.08131 0.0
O680 O 0.54233 0.54929 0.017 0.0
O681 O 0.53968 0.50845 0.01452 0.0
O682 O 0.54169 0.47642 0.05182 0.0
O683 O 0.57638 0.48587 0.05738 0.0
O684 O 0.57888 0.54627 0.05855 0.0
O685 O 0.58116 0.52186 0.02794 0.0
O686 O 0.56334 0.52232 0.09346 0.0
O687 O 0.56832 0.56331 0.09608 0.0
H688 H 0.57686 0.63859 0.03608 0.0
H689 H 0.57181 0.65468 0.9965 0.0
H690 H 0.51087 0.60531 0.97278 0.0
H691 H 0.51598 0.58913 0.01238 0.0
H692 H 0.5343 0.47384 0.09551 0.0
H693 H 0.53954 0.46179 0.13715 0.0
H694 H 0.59468 0.43438 0.12045 0.0
H695 H 0.58945 0.44652 0.0787 0.0
Tb696 Tb 0.813 0.26917 0.3001 0.0
Tb697 Tb 0.81241 0.32321 0.30579 0.0
C698 C 0.81436 0.22739 0.28102 0.0
C699 C 0.83055 0.2126 0.27828 0.0
C700 C 0.82815 0.19623 0.25612 0.0
C701 C 0.84231 0.18065 0.25379 0.0
C702 C 0.85905 0.181 0.27372 0.0
C703 C 0.86185 0.19801 0.29559 0.0
C704 C 0.8478 0.21375 0.29781 0.0
C705 C 0.80006 0.28727 0.34035 0.0
C706 C 0.85374 0.30514 0.33103 0.0
C707 C 0.81071 0.36533 0.32312 0.0
C708 C 0.79313 0.37812 0.32477 0.0
C709 C 0.79725 0.40142 0.33818 0.0
C710 C 0.78064 0.41383 0.33949 0.0
C711 C 0.75959 0.40308 0.32749 0.0
C712 C 0.75551 0.37952 0.31439 0.0
C713 C 0.77215 0.3672 0.31301 0.0
C714 C 0.82485 0.305 0.26543 0.0
C715 C 0.77012 0.28725 0.27863 0.0
O716 O 0.81501 0.24544 0.26823 0.0
O717 O 0.81064 0.23293 0.3039 0.0
O718 O 0.79703 0.29263 0.31872 0.0
O719 O 0.80902 0.26872 0.33984 0.0
O720 O 0.84593 0.28303 0.31882 0.0
O721 O 0.84295 0.32269 0.32951 0.0
O722 O 0.81113 0.34809 0.3369 0.0
O723 O 0.81418 0.35903 0.3003 0.0
O724 O 0.82887 0.29989 0.28715 0.0
O725 O 0.81459 0.32246 0.26573 0.0
O726 O 0.77904 0.30913 0.29055 0.0
O727 O 0.78088 0.26946 0.27822 0.0
H728 H 0.81499 0.19511 0.2408 0.0
H729 H 0.83963 0.16769 0.23677 0.0
H730 H 0.87477 0.19893 0.31113 0.0
H731 H 0.85015 0.22643 0.315 0.0
H732 H 0.81334 0.4101 0.34741 0.0
H733 H 0.7844 0.43207 0.34944 0.0
H734 H 0.73947 0.37063 0.30516 0.0
H735 H 0.76867 0.34924 0.30258 0.0
Tb736 Tb 0.03443 0.52569 0.53863 0.0
Tb737 Tb 0.07398 0.55394 0.57499 0.0
C738 C 1.0054 0.49093 0.51664 0.0
C739 C 0.9831 0.47869 0.51554 0.0
C740 C 0.97903 0.45455 0.51919 0.0
C741 C 0.95809 0.44156 0.51609 0.0
C742 C 0.9408 0.45242 0.50905 0.0
C743 C 0.94485 0.47671 0.50569 0.0
C744 C 0.96584 0.48977 0.50893 0.0
C745 C 0.03849 0.57269 0.54431 0.0
C746 C 0.0301 0.54146 0.59832 0.0
C747 C 0.10483 0.5868 0.59683 0.0
C748 C 0.12796 0.59475 0.59692 0.0
C749 C 0.13511 0.61323 0.5835 0.0
C750 C 0.15695 0.62208 0.58495 0.0
C751 C 0.17215 0.61278 0.60001 0.0
C752 C 0.16502 0.59415 0.61328 0.0
C753 C 0.14316 0.58526 0.6118 0.0
C754 C 0.06928 0.50694 0.56918 0.0
C755 C 0.07806 0.53853 0.51511 0.0
O756 O 1.01903 0.48996 0.53677 0.0
O757 O 1.00899 0.5118 0.50865 0.0
O758 O 0.04367 0.56009 0.56058 0.0
O759 O 0.02785 0.55826 0.52422 0.0
O760 O 0.02137 0.52819 0.57559 0.0
O761 O 0.05022 0.5542 0.60156 0.0
O762 O 0.09163 0.58879 0.57669 0.0
O763 O 0.09883 0.56683 0.60574 0.0
O764 O 0.06466 0.51985 0.55309 0.0
O765 O 0.08021 0.52099 0.58927 0.0
O766 O 0.08668 0.55204 0.53772 0.0
O767 O 0.05809 0.52554 0.51203 0.0
H768 H 0.9921 0.44556 0.52396 0.0
H769 H 0.95544 0.42283 0.5186 0.0
H770 H 0.93178 0.48561 0.50059 0.0
H771 H 0.96853 0.50834 0.5059 0.0
H772 H 0.1238 0.62121 0.57223 0.0
H773 H 0.16193 0.63669 0.5748 0.0
H774 H 0.17635 0.58647 0.62486 0.0
H775 H 0.13822 0.57119 0.62261 0.0
Tb776 Tb 0.78073 0.78691 0.30342 0.0
Tb777 Tb 0.82685 0.77728 0.31245 0.0
C778 C 0.74162 0.7865 0.30493 0.0
C779 C 0.72479 0.78354 0.32126 0.0
C780 C 0.71007 0.76153 0.31832 0.0
C781 C 0.69241 0.75925 0.3308 0.0
C782 C 0.68877 0.77891 0.34663 0.0
C783 C 0.70378 0.80082 0.35001 0.0
C784 C 0.72146 0.80312 0.33747 0.0
C785 C 0.81122 0.81953 0.29251 0.0
C786 C 0.81016 0.80044 0.35868 0.0
C787 C 0.86586 0.77751 0.31068 0.0
C788 C 0.88192 0.77771 0.29342 0.0
C789 C 0.88625 0.79616 0.2788 0.0
C790 C 0.90337 0.79758 0.26536 0.0
C791 C 0.91673 0.78068 0.26618 0.0
C792 C 0.91195 0.7619 0.28029 0.0
C793 C 0.89487 0.7605 0.29371 0.0
C794 C 0.79637 0.74496 0.32395 0.0
C795 C 0.79778 0.76441 0.25697 0.0
O796 O 0.74905 0.76752 0.29765 0.0
O797 O 0.75658 0.80613 0.3096 0.0
O798 O 0.81248 0.80755 0.31032 0.0
O799 O 0.79149 0.81495 0.2808 0.0
O800 O 0.7906 0.79412 0.34487 0.0
O801 O 0.82742 0.79762 0.34913 0.0
O802 O 0.85809 0.79689 0.31496 0.0
O803 O 0.85139 0.75783 0.30924 0.0
O804 O 0.79506 0.75663 0.30584 0.0
O805 O 0.81611 0.74981 0.33569 0.0
O806 O 0.81717 0.76973 0.27112 0.0
O807 O 0.78048 0.76764 0.26624 0.0
H808 H 0.7118 0.74615 0.30567 0.0
H809 H 0.68117 0.74217 0.32729 0.0
H810 H 0.70181 0.81634 0.36224 0.0
H811 H 0.73224 0.82045 0.34005 0.0
H812 H 0.8767 0.80984 0.27814 0.0
H813 H 0.9062 0.81203 0.25438 0.0
H814 H 0.92188 0.74867 0.28174 0.0
H815 H 0.8922 0.74626 0.30503 0.0
Tb816 Tb 0.8046 0.27881 0.78785 0.0
Tb817 Tb 0.79698 0.2962 0.8363 0.0
C818 C 0.80499 0.27507 0.74155 0.0
C819 C 0.80007 0.2921 0.72422 0.0
C820 C 0.77869 0.29156 0.71372 0.0
C821 C 0.77358 0.30924 0.69985 0.0
C822 C 0.7897 0.3277 0.69591 0.0
C823 C 0.81112 0.32802 0.70577 0.0
C824 C 0.81627 0.31039 0.7199 0.0
C825 C 0.83361 0.27114 0.82456 0.0
C826 C 0.82133 0.33607 0.81019 0.0
C827 C 0.79407 0.29858 0.8818 0.0
C828 C 0.79496 0.27873 0.89648 0.0
C829 C 0.80983 0.26409 0.89305 0.0
C830 C 0.80919 0.24342 0.90411 0.0
C831 C 0.79358 0.2367 0.91876 0.0
C832 C 0.77868 0.25133 0.92229 0.0
C833 C 0.77932 0.27218 0.91112 0.0
C834 C 0.76867 0.30442 0.79916 0.0
C835 C 0.78107 0.23876 0.81463 0.0
O836 O 0.78888 0.26483 0.75107 0.0
O837 O 0.82237 0.28221 0.75857 0.0
O838 O 0.82553 0.2896 0.82382 0.0
O839 O 0.82621 0.2568 0.80345 0.0
O840 O 0.81522 0.31895 0.79001 0.0
O841 O 0.8171 0.33068 0.83225 0.0
O842 O 0.81178 0.30715 0.87408 0.0
O843 O 0.77737 0.29494 0.8639 0.0
O844 O 0.77621 0.28564 0.80026 0.0
O845 O 0.77627 0.31891 0.82013 0.0
O846 O 0.78682 0.25609 0.83454 0.0
O847 O 0.78524 0.24403 0.79254 0.0
H848 H 0.76579 0.27768 0.71651 0.0
H849 H 0.75703 0.3082 0.69173 0.0
H850 H 0.82382 0.34197 0.70267 0.0
H851 H 0.83287 0.31132 0.72777 0.0
H852 H 0.82182 0.26834 0.8814 0.0
H853 H 0.82124 0.2329 0.90152 0.0
H854 H 0.7665 0.24658 0.93354 0.0
H855 H 0.76741 0.28293 0.9135 0.0
Tb856 Tb 0.78062 0.76875 0.79125 0.0
Tb857 Tb 0.81945 0.80072 0.81845 0.0
C858 C 0.74262 0.74545 0.78206 0.0
C859 C 0.72143 0.75151 0.78172 0.0
C860 C 0.70676 0.73783 0.79357 0.0
C861 C 0.6877 0.74486 0.79689 0.0
C862 C 0.68272 0.76568 0.78817 0.0
C863 C 0.69718 0.77893 0.77543 0.0
C864 C 0.71643 0.77199 0.77237 0.0
C865 C 0.80309 0.79149 0.7613 0.0
C866 C 0.77851 0.82569 0.81199 0.0
C867 C 0.85794 0.82191 0.82565 0.0
C868 C 0.87674 0.81221 0.82024 0.0
C869 C 0.87492 0.79555 0.79837 0.0
C870 C 0.89237 0.78602 0.79305 0.0
C871 C 0.9122 0.79291 0.80938 0.0
C872 C 0.91407 0.80954 0.83137 0.0
C873 C 0.89643 0.81903 0.8368 0.0
C874 C 0.79707 0.77816 0.84848 0.0
C875 C 0.82152 0.74375 0.79837 0.0
O876 O 0.75469 0.74988 0.80433 0.0
O877 O 0.7533 0.75187 0.76445 0.0
O878 O 0.80012 0.79993 0.78282 0.0
O879 O 0.79259 0.76933 0.75564 0.0
O880 O 0.76835 0.8033 0.80103 0.0
O881 O 0.79959 0.82928 0.8206 0.0
O882 O 0.84401 0.82267 0.80579 0.0
O883 O 0.84869 0.81368 0.84361 0.0
O884 O 0.79991 0.76957 0.8269 0.0
O885 O 0.8078 0.80029 0.85418 0.0
O886 O 0.83165 0.76627 0.80852 0.0
O887 O 0.80039 0.74001 0.79032 0.0
H888 H 0.71046 0.72217 0.80123 0.0
H889 H 0.67735 0.73447 0.80733 0.0
H890 H 0.69383 0.79491 0.76822 0.0
H891 H 0.72763 0.78298 0.76336 0.0
H892 H 0.86001 0.78997 0.7851 0.0
H893 H 0.89042 0.7737 0.77567 0.0
H894 H 0.92912 0.81516 0.84437 0.0
H895 H 0.89818 0.83175 0.85384 0.0
Tb896 Tb 0.53789 0.52174 0.54211 0.0
Tb897 Tb 0.57213 0.5526 0.57816 0.0
C898 C 0.50247 0.50117 0.5154 0.0
C899 C 0.48611 0.51053 0.50008 0.0
C900 C 0.46493 0.50493 0.50403 0.0
C901 C 0.45093 0.51996 0.49766 0.0
C902 C 0.45808 0.5406 0.48731 0.0
C903 C 0.47808 0.54395 0.47974 0.0
C904 C 0.49216 0.5291 0.4863 0.0
C905 C 0.57504 0.52844 0.52548 0.0
C906 C 0.54601 0.57839 0.54106 0.0
C907 C 0.60788 0.57367 0.60396 0.0
C908 C 0.6289 0.57748 0.59645 0.0
C909 C 0.63004 0.57516 0.57073 0.0
C910 C 0.6486 0.57096 0.56253 0.0
C911 C 0.66633 0.569 0.58003 0.0
C912 C 0.66595 0.57424 0.60598 0.0
C913 C 0.64722 0.57822 0.61414 0.0
C914 C 0.53523 0.54575 0.59523 0.0
C915 C 0.56598 0.4957 0.57604 0.0
O916 O 0.50506 0.50882 0.53957 0.0
O917 O 0.52073 0.50204 0.50762 0.0
O918 O 0.56767 0.54383 0.53817 0.0
O919 O 0.56129 0.50826 0.52183 0.0
O920 O 0.53156 0.55793 0.53664 0.0
O921 O 0.56514 0.57914 0.55413 0.0
O922 O 0.59413 0.58489 0.59309 0.0
O923 O 0.59946 0.55113 0.60365 0.0
O924 O 0.54258 0.53053 0.58234 0.0
O925 O 0.54956 0.56537 0.6001 0.0
O926 O 0.58003 0.51645 0.57974 0.0
O927 O 0.54651 0.49422 0.56363 0.0
H928 H 0.45999 0.49063 0.5146 0.0
H929 H 0.43557 0.51717 0.50377 0.0
H930 H 0.48374 0.55963 0.47145 0.0
H931 H 0.50841 0.53375 0.48292 0.0
H932 H 0.61595 0.57438 0.55688 0.0
H933 H 0.64817 0.56683 0.54242 0.0
H934 H 0.67952 0.57327 0.6199 0.0
H935 H 0.64655 0.57994 0.63409 0.0
Tb936 Tb 0.07246 0.53531 0.04657 0.0
Tb937 Tb 0.0276 0.53021 0.06488 0.0
C938 C 0.11162 0.5367 0.04487 0.0
C939 C 0.12991 0.52485 0.05162 0.0
C940 C 0.1281 0.50415 0.06334 0.0
C941 C 0.14571 0.49297 0.06813 0.0
C942 C 0.16544 0.50208 0.06101 0.0
C943 C 0.16709 0.52301 0.04962 0.0
C944 C 0.14963 0.53418 0.04504 0.0
C945 C 0.04058 0.54137 1.00927 0.0
C946 C 0.04216 0.48349 0.04181 0.0
C947 C 0.98871 0.53076 0.06592 0.0
C948 C 0.97216 0.54532 0.05976 0.0
C949 C 0.95305 0.53464 0.04302 0.0
C950 C 0.93612 0.54684 0.03933 0.0
C951 C 0.93772 0.57008 0.05244 0.0
C952 C 0.95713 0.58104 0.06866 0.0
C953 C 0.9741 0.56887 0.07225 0.0
C954 C 0.05899 0.52369 0.10234 0.0
C955 C 0.05779 0.58208 0.06986 0.0
O956 O 0.10483 0.5487 0.0631 0.0
O957 O 0.09586 0.52472 0.02726 0.0
O958 O 0.04035 0.53832 0.03211 0.0
O959 O 0.06036 0.54134 1.00725 0.0
O960 O 0.06188 0.49636 0.04418 0.0
O961 O 0.02586 0.49327 0.04694 0.0
O962 O 0.99523 0.51908 0.04721 0.0
O963 O 1.00437 0.53995 0.08484 0.0
O964 O 0.06004 0.52786 0.07991 0.0
O965 O 0.03886 0.52241 0.10343 0.0
O966 O 0.03826 0.56911 0.06828 0.0
O967 O 0.07399 0.57245 0.06403 0.0
H968 H 0.11303 0.49647 0.06848 0.0
H969 H 0.14372 0.47685 0.07682 0.0
H970 H 0.182 0.53089 0.04425 0.0
H971 H 0.15149 0.55011 0.036 0.0
H972 H 0.95092 0.51646 0.0333 0.0
H973 H 0.92144 0.53764 0.02686 0.0
H974 H 0.95918 0.59903 0.07879 0.0
H975 H 0.98856 0.57776 0.0853 0.0
C976 C 1.01567 0.2 1.00869 0.0
C977 C 0.02077 0.20662 0.98577 0.0
C978 C 1.01945 0.17844 0.01679 0.0
C979 C 0.02857 0.16253 1.00174 0.0
C980 C 0.03347 0.16876 0.97837 0.0
C981 C 0.02959 0.19065 0.97071 0.0
C982 C 1.01401 0.17293 0.04186 0.0
C983 C 0.04306 0.15239 0.96155 0.0
C984 C 0.05822 0.1203 0.03629 0.0
C985 C 0.043 0.09856 0.03186 0.0
C986 C 0.05386 0.14089 0.0263 0.0
C987 C 0.03375 0.14006 0.0112 0.0
C988 C 1.01831 0.11815 1.00652 0.0
C989 C 0.02306 0.0978 0.01689 0.0
C990 C 0.07081 0.16372 0.0322 0.0
C991 C 0.99667 0.11622 0.99058 0.0
H992 H 1.00884 0.21189 0.02071 0.0
H993 H 0.03362 0.1953 0.95301 0.0
H994 H 1.00291 0.15523 0.0393 0.0
H995 H 0.02873 0.17179 0.05472 0.0
H996 H 1.0065 0.18676 0.05111 0.0
H997 H 0.04505 0.15905 0.94349 0.0
H998 H 0.05893 0.15074 0.97141 0.0
H999 H 0.03278 0.1341 0.95735 0.0
H1000 H 0.07372 0.12132 0.04769 0.0
H1001 H 1.01116 0.08119 0.01308 0.0
H1002 H 0.06479 0.17815 0.04272 0.0
H1003 H 0.07452 0.1699 0.01447 0.0
H1004 H 0.08584 0.16137 0.04362 0.0
H1005 H 0.98798 0.12889 0.99965 0.0
H1006 H 0.98672 0.09778 0.98776 0.0
H1007 H 0.9986 0.12138 0.97187 0.0
C1008 C 0.17217 0.81805 0.18549 0.0
C1009 C 0.15203 0.81253 0.19282 0.0
C1010 C 0.19115 0.81624 0.2011 0.0
C1011 C 0.19035 0.80868 0.22491 0.0
C1012 C 0.17015 0.80326 0.2326 0.0
C1013 C 0.15132 0.80526 0.21657 0.0
C1014 C 0.21217 0.82242 0.192 0.0
C1015 C 0.16841 0.7952 0.25779 0.0
C1016 C 0.23832 0.78517 0.2565 0.0
C1017 C 0.24983 0.80543 0.27356 0.0
C1018 C 0.21896 0.78588 0.2407 0.0
C1019 C 0.21073 0.80729 0.24196 0.0
C1020 C 0.22242 0.82777 0.25909 0.0
C1021 C 0.24172 0.82661 0.27448 0.0
C1022 C 0.20725 0.76365 0.22265 0.0
C1023 C 0.2145 0.85101 0.26125 0.0
H1024 H 0.17317 0.82369 0.16729 0.0
H1025 H 0.136 0.80077 0.22253 0.0
H1026 H 0.22308 0.83742 0.20529 0.0
H1027 H 0.22007 0.80678 0.19151 0.0
H1028 H 0.21016 0.82771 0.17291 0.0
H1029 H 0.15163 0.79146 0.26104 0.0
H1030 H 0.17496 0.77871 0.25899 0.0
H1031 H 0.17808 0.80925 0.27317 0.0
H1032 H 0.24437 0.76871 0.25562 0.0
H1033 H 0.2504 0.8424 0.28754 0.0
H1034 H 0.20569 0.76758 0.20301 0.0
H1035 H 0.19084 0.75812 0.22655 0.0
H1036 H 0.21554 0.74838 0.22398 0.0
H1037 H 0.21327 0.8577 0.24286 0.0
H1038 H 0.22519 0.8652 0.27577 0.0
H1039 H 0.19826 0.84792 0.26614 0.0
C1040 C 0.52703 0.84318 0.50173 0.0
C1041 C 0.52621 0.83751 0.47565 0.0
C1042 C 0.52899 0.86712 0.51332 0.0
C1043 C 0.53005 0.88596 0.49853 0.0
C1044 C 0.52867 0.8802 0.47209 0.0
C1045 C 0.52683 0.85617 0.46104 0.0
C1046 C 0.53046 0.87233 0.54152 0.0
C1047 C 0.52955 0.89954 0.45548 0.0
C1048 C 0.51928 0.9472 0.52408 0.0
C1049 C 0.54004 0.96139 0.53114 0.0
C1050 C 0.51578 0.92263 0.51384 0.0
C1051 C 0.53343 0.91176 0.51066 0.0
C1052 C 0.55441 0.92586 0.51829 0.0
C1053 C 0.55744 0.95037 0.5283 0.0
C1054 C 0.49314 0.90843 0.50589 0.0
C1055 C 0.57374 0.91513 0.51548 0.0
H1056 H 0.52659 0.82895 0.51322 0.0
H1057 H 0.52615 0.85205 0.44088 0.0
H1058 H 0.54621 0.88393 0.55016 0.0
H1059 H 0.51802 0.88232 0.54612 0.0
H1060 H 0.52849 0.85569 0.55026 0.0
H1061 H 0.52728 0.89207 0.43517 0.0
H1062 H 0.51704 0.91002 0.45826 0.0
H1063 H 0.54524 0.91224 0.46078 0.0
H1064 H 0.50566 0.95539 0.52604 0.0
H1065 H 0.57358 0.96096 0.53374 0.0
H1066 H 0.49095 0.89222 0.51529 0.0
H1067 H 0.48992 0.90215 0.48527 0.0
H1068 H 0.48117 0.91915 0.51048 0.0
H1069 H 0.57328 0.89914 0.52522 0.0
H1070 H 0.58899 0.92813 0.5233 0.0
H1071 H 0.57358 0.909 0.49525 0.0
C1072 C 0.53225 0.29316 0.72269 0.0
C1073 C 0.53172 0.29706 0.69756 0.0
C1074 C 0.51356 0.29041 0.73357 0.0
C1075 C 0.49366 0.29147 0.71907 0.0
C1076 C 0.493 0.29512 0.69359 0.0
C1077 C 0.51194 0.2979 0.68322 0.0
C1078 C 0.51518 0.28661 0.76077 0.0
C1079 C 0.47227 0.2963 0.67728 0.0
C1080 C 0.44196 0.26394 0.74093 0.0
C1081 C 0.43599 0.2842 0.753 0.0
C1082 C 0.46047 0.26605 0.72975 0.0
C1083 C 0.47362 0.28898 0.73057 0.0
C1084 C 0.46762 0.30951 0.74253 0.0
C1085 C 0.44898 0.3069 0.75349 0.0
C1086 C 0.46599 0.24364 0.71706 0.0
C1087 C 0.48107 0.33432 0.74405 0.0
H1088 H 0.54738 0.29253 0.73404 0.0
H1089 H 0.51124 0.30092 0.66382 0.0
H1090 H 0.50995 0.30136 0.77183 0.0
H1091 H 0.50435 0.26957 0.76215 0.0
H1092 H 0.5317 0.28597 0.76949 0.0
H1093 H 0.47426 0.29873 0.65772 0.0
H1094 H 0.46024 0.27959 0.67656 0.0
H1095 H 0.46575 0.31145 0.68559 0.0
H1096 H 0.43202 0.24632 0.74003 0.0
H1097 H 0.44485 0.32271 0.76299 0.0
H1098 H 0.48194 0.24163 0.7263 0.0
H1099 H 0.46693 0.24513 0.69705 0.0
H1100 H 0.45408 0.22717 0.71773 0.0
H1101 H 0.49739 0.33521 0.75448 0.0
H1102 H 0.47414 0.34853 0.75362 0.0
H1103 H 0.4827 0.33823 0.72483 0.0
C1104 C 0.08011 0.8405 0.71457 0.0
C1105 C 0.07773 0.8219 0.69437 0.0
C1106 C 0.08395 0.86461 0.71072 0.0
C1107 C 0.08511 0.8699 0.68611 0.0
C1108 C 0.08491 0.85122 0.66634 0.0
C1109 C 0.0813 0.82746 0.67079 0.0
C1110 C 0.08504 0.88404 0.73254 0.0
C1111 C 0.08646 0.85601 0.63981 0.0
C1112 C 0.05908 0.91367 0.65425 0.0
C1113 C 0.07681 0.92738 0.64709 0.0
C1114 C 0.06172 0.89672 0.6703 0.0
C1115 C 0.08261 0.89362 0.67935 0.0
C1116 C 0.10055 0.91002 0.67539 0.0
C1117 C 0.09746 0.92665 0.65896 0.0
C1118 C 0.0421 0.87995 0.67461 0.0
C1119 C 0.12302 0.90823 0.68606 0.0
H1120 H 0.0777 0.83624 0.73299 0.0
H1121 H 0.07997 0.81311 0.65529 0.0
H1122 H 0.09477 0.90144 0.73015 0.0
H1123 H 0.06864 0.88666 0.73392 0.0
H1124 H 0.09186 0.87885 0.7506 0.0
H1125 H 0.08738 0.83965 0.6271 0.0
H1126 H 0.07222 0.86271 0.63183 0.0
H1127 H 0.1008 0.87005 0.6399 0.0
H1128 H 0.04308 0.91437 0.64531 0.0
H1129 H 0.1112 0.93784 0.65402 0.0
H1130 H 0.04363 0.8773 0.69463 0.0
H1131 H 0.04038 0.86214 0.663 0.0
H1132 H 0.02729 0.88681 0.66939 0.0
H1133 H 0.12385 0.90241 0.7049 0.0
H1134 H 0.13436 0.92568 0.68768 0.0
H1135 H 0.12829 0.89469 0.67335 0.0
C1136 C 0.46589 0.81602 0.85738 0.0
C1137 C 0.47101 0.82246 0.88368 0.0
C1138 C 0.44477 0.8132 0.84465 0.0
C1139 C 0.42846 0.81686 0.85857 0.0
C1140 C 0.43374 0.82453 0.8849 0.0
C1141 C 0.45491 0.8273 0.89709 0.0
C1142 C 0.43972 0.80524 0.81649 0.0
C1143 C 0.41684 0.82862 0.90046 0.0
C1144 C 0.37317 0.82223 0.82741 0.0
C1145 C 0.36136 0.79894 0.82675 0.0
C1146 C 0.39522 0.82821 0.83699 0.0
C1147 C 0.40561 0.81053 0.84626 0.0
C1148 C 0.39381 0.78695 0.84538 0.0
C1149 C 0.37187 0.78146 0.83564 0.0
C1150 C 0.40734 0.8535 0.83752 0.0
C1151 C 0.40427 0.76759 0.85522 0.0
H1152 H 0.47821 0.81237 0.84683 0.0
H1153 H 0.45868 0.83263 0.91736 0.0
H1154 H 0.4303 0.78653 0.81227 0.0
H1155 H 0.42982 0.8167 0.80725 0.0
H1156 H 0.45442 0.80591 0.80806 0.0
H1157 H 0.42382 0.83633 0.92039 0.0
H1158 H 0.40725 0.84092 0.89233 0.0
H1159 H 0.40572 0.81131 0.90016 0.0
H1160 H 0.36522 0.83582 0.82041 0.0
H1161 H 0.36295 0.76339 0.83518 0.0
H1162 H 0.42142 0.85317 0.82812 0.0
H1163 H 0.41344 0.8622 0.85733 0.0
H1164 H 0.39724 0.8647 0.82809 0.0
H1165 H 0.4181 0.76557 0.84588 0.0
H1166 H 0.39303 0.7499 0.85211 0.0
H1167 H 0.41046 0.77279 0.87574 0.0
C1168 C 0.54624 0.19768 0.15602 0.0
C1169 C 0.56541 0.21472 0.16096 0.0
C1170 C 0.54457 0.17556 0.14065 0.0
C1171 C 0.56258 0.17061 0.1305 0.0
C1172 C 0.58226 0.18734 0.13679 0.0
C1173 C 0.58337 0.20925 0.15181 0.0
C1174 C 0.52336 0.158 0.13432 0.0
C1175 C 0.60192 0.18256 0.12678 0.0
C1176 C 0.56467 0.10718 0.10353 0.0
C1177 C 0.55914 0.1073 0.07755 0.0
C1178 C 0.5655 0.12753 0.12104 0.0
C1179 C 0.56082 0.14855 0.11231 0.0
C1180 C 0.55567 0.14897 0.08607 0.0
C1181 C 0.55492 0.12829 0.06895 0.0
C1182 C 0.57124 0.12647 0.14884 0.0
C1183 C 0.55076 0.17121 0.07612 0.0
H1184 H 0.53239 0.20212 0.16306 0.0
H1185 H 0.59824 0.22253 0.1559 0.0
H1186 H 0.51695 0.15626 0.11389 0.0
H1187 H 0.52542 0.13992 0.13822 0.0
H1188 H 0.5114 0.16375 0.14514 0.0
H1189 H 0.61633 0.19674 0.13496 0.0
H1190 H 0.6052 0.16498 0.13096 0.0
H1191 H 0.59918 0.18165 0.10598 0.0
H1192 H 0.56784 0.09092 0.11028 0.0
H1193 H 0.5505 0.12835 0.04889 0.0
H1194 H 0.55821 0.13068 0.15867 0.0
H1195 H 0.58586 0.14019 0.15728 0.0
H1196 H 0.57408 0.10855 0.15249 0.0
H1197 H 0.53729 0.17674 0.08417 0.0
H1198 H 0.54651 0.16839 0.05523 0.0
H1199 H 0.56481 0.18628 0.08208 0.0
C1200 C 0.10915 0.31054 0.38742 0.0
C1201 C 0.08925 0.31411 0.37607 0.0
C1202 C 0.12365 0.30324 0.37291 0.0
C1203 C 0.11824 0.29958 0.3463 0.0
C1204 C 0.09831 0.30346 0.33462 0.0
C1205 C 0.08395 0.31058 0.34968 0.0
C1206 C 0.14469 0.29917 0.38614 0.0
C1207 C 0.09216 0.3 0.30629 0.0
C1208 C 0.16715 0.30072 0.31553 0.0
C1209 C 0.16751 0.2762 0.31095 0.0
C1210 C 0.15033 0.30858 0.32536 0.0
C1211 C 0.13362 0.29148 0.33105 0.0
C1212 C 0.1333 0.26662 0.32511 0.0
C1213 C 0.15024 0.25927 0.31499 0.0
C1214 C 0.15117 0.33523 0.3311 0.0
C1215 C 0.11586 0.24784 0.33104 0.0
H1216 H 0.11337 0.31315 0.4078 0.0
H1217 H 0.0686 0.31334 0.34081 0.0
H1218 H 0.14616 0.28035 0.38049 0.0
H1219 H 0.15817 0.31107 0.38049 0.0
H1220 H 0.14638 0.30268 0.407 0.0
H1221 H 0.0763 0.30432 0.30013 0.0
H1222 H 0.10435 0.31159 0.29827 0.0
H1223 H 0.09172 0.28113 0.29827 0.0
H1224 H 0.18037 0.31379 0.31202 0.0
H1225 H 0.15054 0.2403 0.31153 0.0
H1226 H 0.15585 0.3412 0.35173 0.0
H1227 H 0.13523 0.33936 0.32516 0.0
H1228 H 0.16294 0.3458 0.3216 0.0
H1229 H 0.11751 0.2486 0.35178 0.0
H1230 H 0.11655 0.22939 0.3226 0.0
H1231 H 0.09989 0.2514 0.32408 0.0
C1232 C 1.00038 1.00168 0.21004 0.0
C1233 C 0.97981 1.00376 0.21426 0.0
C1234 C 1.00787 1.00812 0.1883 0.0
C1235 C 0.99447 1.01671 0.1699 0.0
C1236 C 0.97339 0.01807 0.17354 0.0
C1237 C 0.96644 1.01189 0.19578 0.0
C1238 C 0.03036 1.00611 0.18527 0.0
C1239 C 0.9581 0.02661 0.15458 0.0
C1240 C 0.02569 0.05544 0.12989 0.0
C1241 C 0.02613 0.0385 0.10911 0.0
C1242 C 1.01452 0.0489 0.14921 0.0
C1243 C 1.00317 0.02494 0.14757 0.0
C1244 C 1.00232 1.00825 0.12573 0.0
C1245 C 1.01402 1.01513 0.10697 0.0
C1246 C 1.01596 0.0673 0.17212 0.0
C1247 C 0.98979 0.98282 0.12272 0.0
H1248 H 1.01096 0.99545 0.22407 0.0
H1249 H 0.9505 1.01353 0.19865 0.0
H1250 H 0.03008 0.99442 0.16732 0.0
H1251 H 0.0399 0.0241 0.18439 0.0
H1252 H 0.03861 0.99862 0.201 0.0
H1253 H 0.94162 1.01596 0.15292 0.0
H1254 H 0.95775 0.04554 0.16143 0.0
H1255 H 0.96256 0.02546 0.1356 0.0
H1256 H 0.03496 0.07356 0.13171 0.0
H1257 H 1.01434 1.00192 0.09104 0.0
H1258 H 0.02689 0.0633 0.18814 0.0
H1259 H 1.00007 0.06649 0.17779 0.0
H1260 H 0.02214 0.08585 0.16878 0.0
H1261 H 0.99727 0.97322 0.13706 0.0
H1262 H 0.98908 0.97269 0.10371 0.0
H1263 H 0.97323 0.98289 0.12591 0.0
C1264 C 0.33304 0.74312 0.56287 0.0
C1265 C 0.34126 0.72628 0.54836 0.0
C1266 C 0.3194 0.75656 0.55134 0.0
C1267 C 0.31506 0.75402 0.52473 0.0
C1268 C 0.3239 0.73748 0.51004 0.0
C1269 C 0.33649 0.72341 0.52209 0.0
C1270 C 0.30986 0.77336 0.5678 0.0
C1271 C 0.32026 0.73477 0.48157 0.0
C1272 C 0.27148 0.76905 0.47985 0.0
C1273 C 0.28297 0.78917 0.47202 0.0
C1274 C 0.28078 0.75916 0.50004 0.0
C1275 C 0.30221 0.76916 0.51166 0.0
C1276 C 0.31275 0.79117 0.50588 0.0
C1277 C 0.30285 0.80109 0.4862 0.0
C1278 C 0.26858 0.73661 0.50711 0.0
C1279 C 0.33553 0.80251 0.51806 0.0
H1280 H 0.33667 0.74533 0.58322 0.0
H1281 H 0.34294 0.71039 0.51096 0.0
H1282 H 0.32106 0.79105 0.57291 0.0
H1283 H 0.29431 0.77613 0.55815 0.0
H1284 H 0.30747 0.7664 0.58562 0.0
H1285 H 0.32938 0.72216 0.47318 0.0
H1286 H 0.30303 0.72797 0.47381 0.0
H1287 H 0.32507 0.75248 0.47548 0.0
H1288 H 0.25594 0.7601 0.46907 0.0
H1289 H 0.31173 0.8167 0.48014 0.0
H1290 H 0.27191 0.7369 0.52783 0.0
H1291 H 0.27375 0.72075 0.49805 0.0
H1292 H 0.25108 0.73437 0.50079 0.0
H1293 H 0.33751 0.80357 0.53882 0.0
H1294 H 0.34054 0.82087 0.5135 0.0
H1295 H 0.3464 0.79121 0.51135 0.0
C1296 C 0.63426 0.99508 0.72762 0.0
C1297 C 0.64511 1.01626 0.74409 0.0
C1298 C 0.62265 0.9956 0.70291 0.0
C1299 C 0.6211 0.01782 0.69385 0.0
C1300 C 0.63269 0.03908 0.71011 0.0
C1301 C 0.64424 0.03802 0.73442 0.0
C1302 C 0.61111 0.97218 0.68688 0.0
C1303 C 0.63184 0.06339 0.70251 0.0
C1304 C 0.59808 0.02336 0.6233 0.0
C1305 C 0.57652 0.02459 0.62396 0.0
C1306 C 0.6125 0.02057 0.64527 0.0
C1307 C 0.60573 0.01926 0.66915 0.0
C1308 C 0.58402 0.0206 0.66969 0.0
C1309 C 0.57002 0.02299 0.64758 0.0
C1310 C 0.6351 0.0189 0.64283 0.0
C1311 C 0.57544 0.01984 0.69402 0.0
H1312 H 0.6338 0.97805 0.73452 0.0
H1313 H 0.6518 0.05473 0.74671 0.0
H1314 H 0.59366 0.97017 0.68648 0.0
H1315 H 0.61386 0.97201 0.66717 0.0
H1316 H 0.6163 0.95652 0.69422 0.0
H1317 H 0.64308 0.07817 0.71582 0.0
H1318 H 0.63571 0.06399 0.68334 0.0
H1319 H 0.61539 0.06666 0.7019 0.0
H1320 H 0.60372 0.02442 0.60559 0.0
H1321 H 0.55363 0.02387 0.64898 0.0
H1322 H 0.6385 1.00187 0.64861 0.0
H1323 H 0.64649 0.03384 0.65568 0.0
H1324 H 0.63807 0.0196 0.62328 0.0
H1325 H 0.57729 1.00297 0.70138 0.0
H1326 H 0.5583 0.02096 0.69168 0.0
H1327 H 0.58476 0.035 0.70845 0.0
C1328 C 0.32676 0.35418 1.00544 0.0
C1329 C 0.32603 0.37869 1.00862 0.0
C1330 C 0.32439 0.34082 0.9813 0.0
C1331 C 0.32136 0.35221 0.95967 0.0
C1332 C 0.32106 0.37708 0.96278 0.0
C1333 C 0.32333 0.38999 0.98717 0.0
C1334 C 0.32478 0.31437 0.97892 0.0
C1335 C 0.31808 0.39 0.94028 0.0
C1336 C 0.33314 0.32258 0.89785 0.0
C1337 C 0.31256 0.31177 0.88454 0.0
C1338 C 0.33622 0.33571 0.92223 0.0
C1339 C 0.31833 0.33805 0.93383 0.0
C1340 C 0.29754 0.32685 0.92069 0.0
C1341 C 0.2949 0.31396 0.89623 0.0
C1342 C 0.35865 0.34741 0.93544 0.0
C1343 C 0.27802 0.32866 0.93241 0.0
H1344 H 0.3288 0.34524 0.02186 0.0
H1345 H 0.32274 0.4089 0.98942 0.0
H1346 H 0.30935 0.30369 0.96799 0.0
H1347 H 0.33752 0.31045 0.96843 0.0
H1348 H 0.32758 0.30825 0.99756 0.0
H1349 H 0.31882 0.40949 0.94585 0.0
H1350 H 0.33059 0.38787 0.92873 0.0
H1351 H 0.30238 0.38194 0.92813 0.0
H1352 H 0.34694 0.3212 0.88905 0.0
H1353 H 0.27892 0.3057 0.88622 0.0
H1354 H 0.36219 0.34083 0.95369 0.0
H1355 H 0.3601 0.36714 0.93969 0.0
H1356 H 0.3709 0.34378 0.92397 0.0
H1357 H 0.27944 0.32161 0.95061 0.0
H1358 H 0.26301 0.31855 0.91999 0.0
H1359 H 0.27685 0.34777 0.93652 0.0
C1360 C 0.96006 1.00917 0.36477 0.0
C1361 C 0.97131 1.00662 0.34473 0.0
C1362 C 0.97024 1.01098 0.38994 0.0
C1363 C 0.99226 1.01038 0.3953 0.0
C1364 C 1.00359 1.00734 0.37511 0.0
C1365 C 0.99298 1.00541 0.35011 0.0
C1366 C 0.9575 1.01399 0.41084 0.0
C1367 C 0.02709 1.00674 0.37996 0.0
C1368 C 0.02338 0.0401 0.46028 0.0
C1369 C 0.02468 0.02028 0.47294 0.0
C1370 C 1.01303 0.03711 0.43507 0.0
C1371 C 1.00359 1.01372 0.42204 0.0
C1372 C 1.00489 0.99363 0.43463 0.0
C1373 C 1.01544 0.99713 0.45986 0.0
C1374 C 1.01212 0.05907 0.42242 0.0
C1375 C 0.99497 0.96841 0.4215 0.0
H1376 H 0.94331 1.01007 0.36081 0.0
H1377 H 1.00182 1.00348 0.33478 0.0
H1378 H 0.95883 0.9999 0.42297 0.0
H1379 H 0.96408 0.03162 0.42295 0.0
H1380 H 0.94031 1.01299 0.40352 0.0
H1381 H 0.03345 1.00347 0.36222 0.0
H1382 H 0.0363 0.02409 0.39097 0.0
H1383 H 0.02989 0.99246 0.39138 0.0
H1384 H 0.03048 0.05808 0.47006 0.0
H1385 H 1.01626 0.98169 0.4694 0.0
H1386 H 0.99524 0.06062 0.41707 0.0
H1387 H 1.01888 0.05732 0.40483 0.0
H1388 H 0.02103 0.07591 0.43477 0.0
H1389 H 0.97754 0.96675 0.4153 0.0
H1390 H 0.99744 0.95468 0.43382 0.0
H1391 H 1.00191 0.96445 0.40435 0.0
C1392 C 0.36245 0.69224 0.6612 0.0
C1393 C 0.38008 0.70895 0.65732 0.0
C1394 C 0.35018 0.69838 0.67928 0.0
C1395 C 0.35595 0.72149 0.69391 0.0
C1396 C 0.37529 0.73704 0.69237 0.0
C1397 C 0.38712 0.73059 0.67399 0.0
C1398 C 0.33008 0.68101 0.68116 0.0
C1399 C 0.38248 0.76141 0.70859 0.0
C1400 C 0.31415 0.75574 0.71117 0.0
C1401 C 0.31633 0.75535 0.7371 0.0
C1402 C 0.32616 0.74353 0.69663 0.0
C1403 C 0.34074 0.73083 0.70843 0.0
C1404 C 0.34213 0.72938 0.73441 0.0
C1405 C 0.3297 0.74148 0.74838 0.0
C1406 C 0.32384 0.745 0.66881 0.0
C1407 C 0.35688 0.7155 0.74776 0.0
H1408 H 0.35699 0.6753 0.64862 0.0
H1409 H 0.40091 0.74335 0.67128 0.0
H1410 H 0.32905 0.67984 0.70121 0.0
H1411 H 0.31589 0.68759 0.67283 0.0
H1412 H 0.32935 0.66274 0.67105 0.0
H1413 H 0.39886 0.77031 0.70682 0.0
H1414 H 0.37129 0.77315 0.70296 0.0
H1415 H 0.38218 0.75968 0.72868 0.0
H1416 H 0.3036 0.76622 0.7024 0.0
H1417 H 0.33116 0.74089 0.76841 0.0
H1418 H 0.31941 0.72662 0.65793 0.0
H1419 H 0.33933 0.75381 0.66435 0.0
H1420 H 0.31148 0.75515 0.66244 0.0
H1421 H 0.3713 0.71485 0.73913 0.0
H1422 H 0.34806 0.69677 0.74679 0.0
H1423 H 0.36215 0.7234 0.76795 0.0
C1424 C 0.63002 1.0125 0.88239 0.0
C1425 C 0.65232 0.02121 0.88455 0.0
C1426 C 0.61857 1.0151 0.90309 0.0
C1427 C 0.62882 0.02819 0.92743 0.0
C1428 C 0.65139 0.03749 0.92955 0.0
C1429 C 0.66264 0.03342 0.90881 0.0
C1430 C 0.59521 1.00319 0.89834 0.0
C1431 C 0.66416 0.05221 0.95376 0.0
C1432 C 0.58816 0.0493 0.96974 0.0
C1433 C 0.59157 0.0388 0.99194 0.0
C1434 C 0.60034 0.04684 0.94968 0.0
C1435 C 0.61612 0.03211 0.95003 0.0
C1436 C 0.61916 0.02091 0.97225 0.0
C1437 C 0.6076 0.02488 0.99266 0.0
C1438 C 0.59599 0.06058 0.92815 0.0
C1439 C 0.63443 1.00404 0.97487 0.0
H1440 H 0.62131 1.00286 0.8643 0.0
H1441 H 0.67969 0.04057 0.91155 0.0
H1442 H 0.5893 0.99946 0.91591 0.0
H1443 H 0.58574 1.01503 0.8891 0.0
H1444 H 0.59225 0.98598 0.88524 0.0
H1445 H 0.67699 0.06633 0.94986 0.0
H1446 H 0.6541 0.06096 0.96527 0.0
H1447 H 0.67205 0.04032 0.96499 0.0
H1448 H 0.57609 0.06016 0.96816 0.0
H1449 H 0.61071 1.01616 1.00907 0.0
H1450 H 0.5813 0.05061 0.91509 0.0
H1451 H 0.60937 0.06335 0.91748 0.0
H1452 H 0.59293 0.07843 0.93521 0.0
H1453 H 0.63793 0.99657 0.95648 0.0
H1454 H 0.62785 0.98885 0.98426 0.0
H1455 H 0.64962 1.01383 0.98708 0.0
C1456 C 0.31276 0.37312 0.14952 0.0
C1457 C 0.33228 0.3734 0.14109 0.0
C1458 C 0.30807 0.36147 0.1702 0.0
C1459 C 0.32337 0.35014 0.183 0.0
C1460 C 0.34358 0.35178 0.17547 0.0
C1461 C 0.34767 0.36312 0.1546 0.0
C1462 C 0.28629 0.36012 0.17742 0.0
C1463 C 0.3606 0.34052 0.1887 0.0
C1464 C 0.31738 0.33077 0.24727 0.0
C1465 C 0.30908 0.30595 0.24071 0.0
C1466 C 0.32193 0.34539 0.22881 0.0
C1467 C 0.31791 0.33511 0.20299 0.0
C1468 C 0.30949 0.31004 0.19631 0.0
C1469 C 0.3053 0.29582 0.21518 0.0
C1470 C 0.33112 0.37187 0.23697 0.0
C1471 C 0.30485 0.29821 0.16911 0.0
H1472 H 0.30067 0.3807 0.13903 0.0
H1473 H 0.36282 0.36327 0.14828 0.0
H1474 H 0.27722 0.34126 0.1729 0.0
H1475 H 0.28782 0.36571 0.19801 0.0
H1476 H 0.27692 0.37159 0.16731 0.0
H1477 H 0.37613 0.34537 0.18224 0.0
H1478 H 0.36309 0.34621 0.20939 0.0
H1479 H 0.35536 0.32067 0.18508 0.0
H1480 H 0.3202 0.33884 0.26691 0.0
H1481 H 0.29876 0.27673 0.20985 0.0
H1482 H 0.32061 0.38257 0.22743 0.0
H1483 H 0.34696 0.37657 0.23126 0.0
H1484 H 0.33304 0.37722 0.25768 0.0
H1485 H 0.29383 0.30716 0.15775 0.0
H1486 H 0.29758 0.27876 0.16686 0.0
H1487 H 0.31986 0.30022 0.16126 0.0
C1488 C 0.23713 0.94276 0.06865 0.0
C1489 C 0.22506 0.92386 0.05036 0.0
C1490 C 0.22717 0.95683 0.08408 0.0
C1491 C 0.2046 0.9521 0.08075 0.0
C1492 C 0.19247 0.93153 0.06411 0.0
C1493 C 0.20292 0.91749 0.04911 0.0
C1494 C 0.24071 0.97826 0.10201 0.0
C1495 C 0.16835 0.92582 0.06016 0.0
C1496 C 0.17734 0.99133 0.12157 0.0
C1497 C 0.17418 1.00892 0.10633 0.0
C1498 C 0.18728 0.97257 0.11367 0.0
C1499 C 0.19393 0.97139 0.08994 0.0
C1500 C 0.19085 0.98919 0.07462 0.0
C1501 C 0.18105 1.00767 0.08301 0.0
C1502 C 0.19031 0.95386 0.13043 0.0
C1503 C 0.19759 0.98857 0.04908 0.0
H1504 H 0.25436 0.94734 0.07005 0.0
H1505 H 0.1936 0.9027 0.03513 0.0
H1506 H 0.23986 0.99482 0.09354 0.0
H1507 H 0.23471 0.98033 0.12008 0.0
H1508 H 0.25775 0.97678 0.10599 0.0
H1509 H 0.16165 0.90703 0.05082 0.0
H1510 H 0.1626 0.92864 0.07832 0.0
H1511 H 0.16203 0.93808 0.04803 0.0
H1512 H 0.17184 0.99212 0.13951 0.0
H1513 H 0.17805 0.02073 0.07076 0.0
H1514 H 0.20713 0.95154 0.13302 0.0
H1515 H 0.18008 0.93628 0.12138 0.0
H1516 H 0.1861 0.9586 0.14925 0.0
H1517 H 0.21508 0.98952 0.05117 0.0
H1518 H 0.19372 1.00364 0.0394 0.0
H1519 H 0.18951 0.97141 0.0368 0.0
C1520 C 0.68551 0.64055 0.01052 0.0
C1521 C 0.70577 0.63576 0.01899 0.0
C1522 C 0.66647 0.62537 0.01337 0.0
C1523 C 0.66741 0.60479 0.02524 0.0
C1524 C 0.68775 0.59954 0.03342 0.0
C1525 C 0.7066 0.61495 0.0301 0.0
C1526 C 0.64528 0.63162 1.00397 0.0
C1527 C 0.68963 0.57792 0.04626 0.0
C1528 C 0.61892 0.57944 0.05433 0.0
C1529 C 0.60828 0.55962 0.03618 0.0
C1530 C 0.63823 0.59403 0.05119 0.0
C1531 C 0.64711 0.58897 0.02921 0.0
C1532 C 0.63624 0.56911 0.01073 0.0
C1533 C 0.61712 0.55468 0.0145 0.0
C1534 C 0.64921 0.61484 0.07151 0.0
C1535 C 0.64477 0.56314 0.98684 0.0
H1536 H 0.68448 0.65645 1.00182 0.0
H1537 H 0.72203 0.61105 0.03694 0.0
H1538 H 0.63489 0.61629 0.99061 0.0
H1539 H 0.63686 0.63507 0.02 0.0
H1540 H 0.64715 0.64774 0.99437 0.0
H1541 H 0.70648 0.57596 0.05111 0.0
H1542 H 0.6828 0.57944 0.06382 0.0
H1543 H 0.68029 0.56133 0.0339 0.0
H1544 H 0.61229 0.58337 0.07119 0.0
H1545 H 0.60902 0.53945 1.00032 0.0
H1546 H 0.65032 0.63193 0.06366 0.0
H1547 H 0.66578 0.61298 0.07844 0.0
H1548 H 0.64065 0.61606 0.08775 0.0
H1549 H 0.64594 0.57865 0.97635 0.0
H1550 H 0.63449 0.54714 0.97428 0.0
H1551 H 0.66112 0.55967 0.99151 0.0
C1552 C 0.66937 0.48412 0.33064 0.0
C1553 C 0.67959 0.50638 0.32557 0.0
C1554 C 0.67964 0.46446 0.33007 0.0
C1555 C 0.70057 0.46727 0.32442 0.0
C1556 C 0.71052 0.48941 0.31825 0.0
C1557 C 0.6999 0.50862 0.31883 0.0
C1558 C 0.66844 0.44102 0.33645 0.0
C1559 C 0.7328 0.49318 0.31202 0.0
C1560 C 0.74103 0.43194 0.34953 0.0
C1561 C 0.74228 0.41693 0.32763 0.0
C1562 C 0.72651 0.44739 0.34913 0.0
C1563 C 0.71284 0.44777 0.32627 0.0
C1564 C 0.71304 0.43154 0.3045 0.0
C1565 C 0.72781 0.41636 0.30541 0.0
C1566 C 0.72672 0.4643 0.37281 0.0
C1567 C 0.6986 0.43123 0.27983 0.0
H1568 H 0.65368 0.48226 0.33586 0.0
H1569 H 0.70786 0.52571 0.31473 0.0
H1570 H 0.66917 0.42581 0.32209 0.0
H1571 H 0.67667 0.43789 0.35483 0.0
H1572 H 0.65142 0.44091 0.33769 0.0
H1573 H 0.73788 0.51115 0.30655 0.0
H1574 H 0.74438 0.49139 0.32861 0.0
H1575 H 0.73365 0.47924 0.29634 0.0
H1576 H 0.75183 0.43206 0.3669 0.0
H1577 H 0.7287 0.40489 0.28836 0.0
H1578 H 0.71022 0.46363 0.37653 0.0
H1579 H 0.73327 0.483 0.3703 0.0
H1580 H 0.7366 0.46002 0.38958 0.0
H1581 H 0.68201 0.43138 0.28282 0.0
H1582 H 0.69836 0.41527 0.26587 0.0
H1583 H 0.70426 0.44762 0.27173 0.0
C1584 C 0.81976 0.37493 0.48643 0.0
C1585 C 0.80818 0.39061 0.49729 0.0
C1586 C 0.84186 0.38222 0.48708 0.0
C1587 C 0.85252 0.40558 0.49915 0.0
C1588 C 0.84098 0.42117 0.51073 0.0
C1589 C 0.81901 0.41355 0.50956 0.0
C1590 C 0.85363 0.36522 0.47429 0.0
C1591 C 0.85179 0.44612 0.52412 0.0
C1592 C 0.91213 0.42396 0.52285 0.0
C1593 C 0.91858 0.43845 0.5052 0.0
C1594 C 0.89081 0.41187 0.52029 0.0
C1595 C 0.87567 0.41431 0.49956 0.0
C1596 C 0.88232 0.42791 0.48101 0.0
C1597 C 0.90371 0.43993 0.48413 0.0
C1598 C 0.88428 0.39757 0.54047 0.0
C1599 C 0.86666 0.43072 0.45852 0.0
H1600 H 0.8115 0.35718 0.47703 0.0
H1601 H 0.81028 0.42571 0.51832 0.0
H1602 H 0.85798 0.3718 0.45697 0.0
H1603 H 0.86871 0.36454 0.48672 0.0
H1604 H 0.8438 0.34672 0.46891 0.0
H1605 H 0.84061 0.45569 0.53285 0.0
H1606 H 0.86516 0.44509 0.5391 0.0
H1607 H 0.8587 0.45696 0.5106 0.0
H1608 H 0.92358 0.42282 0.53919 0.0
H1609 H 0.90877 0.45074 0.47019 0.0
H1610 H 0.87463 0.37956 0.53185 0.0
H1611 H 0.87411 0.40689 0.55131 0.0
H1612 H 0.8983 0.39526 0.55383 0.0
H1613 H 0.85699 0.41293 0.4492 0.0
H1614 H 0.87478 0.43957 0.44443 0.0
H1615 H 0.85544 0.44172 0.46486 0.0
C1616 C 0.40353 0.14332 0.28802 0.0
C1617 C 0.39527 0.12082 0.29509 0.0
C1618 C 0.39214 0.16296 0.28765 0.0
C1619 C 0.37192 0.16185 0.29607 0.0
C1620 C 0.36383 0.13927 0.3038 0.0
C1621 C 0.37497 0.1195 0.30255 0.0
C1622 C 0.40179 0.18495 0.27746 0.0
C1623 C 0.34316 0.13546 0.31385 0.0
C1624 C 0.35563 0.22552 0.31399 0.0
C1625 C 0.33577 0.22446 0.29809 0.0
C1626 C 0.36695 0.20588 0.31397 0.0
C1627 C 0.35951 0.18372 0.29663 0.0
C1628 C 0.33967 0.18289 0.28003 0.0
C1629 C 0.32818 0.2024 0.2814 0.0
C1630 C 0.38685 0.2094 0.3336 0.0
C1631 C 0.33011 0.16132 0.26014 0.0
H1632 H 0.41889 0.14547 0.2819 0.0
H1633 H 0.36778 0.10284 0.30826 0.0
H1634 H 0.38933 0.19123 0.26509 0.0
H1635 H 0.40896 0.19961 0.29333 0.0
H1636 H 0.41451 0.18157 0.26664 0.0
H1637 H 0.34394 0.12407 0.32899 0.0
H1638 H 0.33912 0.1526 0.32147 0.0
H1639 H 0.33004 0.12576 0.29843 0.0
H1640 H 0.3623 0.24178 0.32735 0.0
H1641 H 0.31316 0.2004 0.26863 0.0
H1642 H 0.39961 0.22297 0.32876 0.0
H1643 H 0.39279 0.19263 0.33547 0.0
H1644 H 0.3837 0.21677 0.35225 0.0
H1645 H 0.3224 0.16691 0.24274 0.0
H1646 H 0.31744 0.14943 0.26716 0.0
H1647 H 0.34213 0.15088 0.25514 0.0
C1648 C 0.34559 0.15053 0.53164 0.0
C1649 C 0.3258 0.13769 0.53518 0.0
C1650 C 0.36408 0.14055 0.53417 0.0
C1651 C 0.36297 0.11712 0.54058 0.0
C1652 C 0.34306 0.10415 0.54437 0.0
C1653 C 0.32479 0.11451 0.54156 0.0
C1654 C 0.38482 0.15507 0.52982 0.0
C1655 C 0.34104 0.07924 0.55141 0.0
C1656 C 0.40578 0.08157 0.52602 0.0
C1657 C 0.41923 0.08465 0.54959 0.0
C1658 C 0.38766 0.09218 0.52276 0.0
C1659 C 0.38261 0.10626 0.54353 0.0
C1660 C 0.39626 0.10972 0.56726 0.0
C1661 C 0.41431 0.09903 0.56996 0.0
C1662 C 0.37372 0.08804 0.49707 0.0
C1663 C 0.39167 0.12458 0.58997 0.0
H1664 H 0.34662 0.16839 0.52661 0.0
H1665 H 0.30965 0.10437 0.54434 0.0
H1666 H 0.3972 0.15775 0.547 0.0
H1667 H 0.39072 0.14516 0.51437 0.0
H1668 H 0.3831 0.17295 0.52486 0.0
H1669 H 0.32453 0.07152 0.55385 0.0
H1670 H 0.34563 0.06709 0.5366 0.0
H1671 H 0.35215 0.07973 0.56923 0.0
H1672 H 0.4091 0.07036 0.51014 0.0
H1673 H 0.42466 0.10205 0.58818 0.0
H1674 H 0.37223 0.1055 0.49088 0.0
H1675 H 0.35739 0.0784 0.49804 0.0
H1676 H 0.38013 0.07737 0.48262 0.0
H1677 H 0.39117 0.14305 0.58607 0.0
H1678 H 0.40385 0.12573 0.60708 0.0
H1679 H 0.37575 0.11667 0.59396 0.0
C1680 C 0.69058 0.66283 0.35544 0.0
C1681 C 0.69093 0.6385 0.34842 0.0
C1682 C 0.7079 0.68119 0.35365 0.0
C1683 C 0.72593 0.67516 0.34438 0.0
C1684 C 0.72654 0.65064 0.3378 0.0
C1685 C 0.70918 0.63272 0.34002 0.0
C1686 C 0.70677 0.70707 0.36126 0.0
C1687 C 0.74527 0.64331 0.32759 0.0
C1688 C 0.7598 0.71902 0.31154 0.0
C1689 C 0.77831 0.72768 0.32977 0.0
C1690 C 0.74245 0.70254 0.31635 0.0
C1691 C 0.74361 0.69429 0.34 0.0
C1692 C 0.7622 0.7032 0.35864 0.0
C1693 C 0.77938 0.71971 0.35326 0.0
C1694 C 0.72306 0.69352 0.29585 0.0
C1695 C 0.76405 0.69506 0.38414 0.0
H1696 H 0.67669 0.66757 0.36209 0.0
H1697 H 0.70975 0.61406 0.33448 0.0
H1698 H 0.72023 0.71571 0.37676 0.0
H1699 H 0.70849 0.71706 0.34519 0.0
H1700 H 0.69151 0.70887 0.36762 0.0
H1701 H 0.74373 0.62349 0.32431 0.0
H1702 H 0.74658 0.65012 0.30948 0.0
H1703 H 0.76038 0.6514 0.34086 0.0
H1704 H 0.75902 0.72479 0.29319 0.0
H1705 H 0.79364 0.72642 0.36744 0.0
H1706 H 0.70841 0.69645 0.30303 0.0
H1707 H 0.72117 0.67389 0.29001 0.0
H1708 H 0.72422 0.70257 0.27899 0.0
H1709 H 0.75012 0.6979 0.39295 0.0
H1710 H 0.77893 0.70475 0.3971 0.0
H1711 H 0.76392 0.67552 0.38194 0.0
C1712 C 0.90779 0.46001 0.80741 0.0
C1713 C 0.89979 0.48074 0.8024 0.0
C1714 C 0.89441 0.43737 0.80794 0.0
C1715 C 0.87176 0.43425 0.80341 0.0
C1716 C 0.86337 0.45495 0.79817 0.0
C1717 C 0.87725 0.47761 0.7977 0.0
C1718 C 0.90475 0.41659 0.81358 0.0
C1719 C 0.83954 0.45319 0.79318 0.0
C1720 C 0.8386 0.36788 0.78505 0.0
C1721 C 0.83324 0.36159 0.80805 0.0
C1722 C 0.85035 0.39121 0.78312 0.0
C1723 C 0.85732 0.40955 0.80463 0.0
C1724 C 0.85165 0.4034 0.8278 0.0
C1725 C 0.83993 0.37994 0.8292 0.0
C1726 C 0.85566 0.39605 0.75787 0.0
C1727 C 0.85833 0.42163 0.85149 0.0
H1728 H 0.92494 0.46137 0.81112 0.0
H1729 H 0.87036 0.49293 0.79384 0.0
H1730 H 0.90012 0.41024 0.83088 0.0
H1731 H 0.89902 0.40133 0.79792 0.0
H1732 H 0.92248 0.42146 0.81632 0.0
H1733 H 0.8352 0.47034 0.78898 0.0
H1734 H 0.83201 0.43883 0.77703 0.0
H1735 H 0.83273 0.44811 0.80983 0.0
H1736 H 0.83379 0.35437 0.76834 0.0
H1737 H 0.83617 0.37593 0.84722 0.0
H1738 H 0.8481 0.38084 0.74256 0.0
H1739 H 0.87325 0.39933 0.75884 0.0
H1740 H 0.85033 0.4125 0.75297 0.0
H1741 H 0.87603 0.42619 0.8565 0.0
H1742 H 0.85177 0.41498 0.86771 0.0
H1743 H 0.8529 0.43847 0.84829 0.0
C1744 C 0.08859 0.86602 0.11503 0.0
C1745 C 0.08822 0.86618 0.14089 0.0
C1746 C 0.08726 0.88671 0.10352 0.0
C1747 C 0.08548 0.90835 0.11806 0.0
C1748 C 0.08591 0.90886 0.14436 0.0
C1749 C 0.08723 0.8879 0.15539 0.0
C1750 C 0.08721 0.88522 0.07557 0.0
C1751 C 0.08439 0.93147 0.16079 0.0
C1752 C 0.0945 0.96822 0.0914 0.0
C1753 C 0.07348 0.97058 0.08275 0.0
C1754 C 0.09876 0.94806 0.10252 0.0
C1755 C 0.08158 0.92978 0.10553 0.0
C1756 C 0.06036 0.93203 0.09658 0.0
C1757 C 0.05661 0.95217 0.08531 0.0
C1758 C 0.12171 0.94668 0.11142 0.0
C1759 C 0.04146 0.91317 0.09912 0.0
H1760 H 0.08942 0.84949 0.10354 0.0
H1761 H 0.08698 0.88841 0.17536 0.0
H1762 H 0.07163 0.88793 0.06592 0.0
H1763 H 0.09981 0.89972 0.07195 0.0
H1764 H 0.08991 0.86763 0.06708 0.0
H1765 H 0.08609 0.92949 0.18106 0.0
H1766 H 0.09699 0.94665 0.1585 0.0
H1767 H 0.06871 0.93625 0.15485 0.0
H1768 H 0.10769 0.98208 0.08931 0.0
H1769 H 0.04028 0.95366 0.07887 0.0
H1770 H 0.12421 0.92804 0.10743 0.0
H1771 H 0.12583 0.95244 0.13212 0.0
H1772 H 0.13292 0.95857 0.1024 0.0
H1773 H 0.04267 0.89537 0.08949 0.0
H1774 H 0.02596 0.9173 0.09099 0.0
H1775 H 0.04148 0.91168 0.11931 0.0
C1776 C 0.95377 0.27186 0.89542 0.0
C1777 C 0.95391 0.26596 0.91982 0.0
C1778 C 0.93441 0.27259 0.87958 0.0
C1779 C 0.91453 0.2668 0.88799 0.0
C1780 C 0.91459 0.26002 0.91226 0.0
C1781 C 0.93413 0.25994 0.92783 0.0
C1782 C 0.93527 0.28019 0.85406 0.0
C1783 C 0.89397 0.25311 0.92201 0.0
C1784 C 0.86548 0.28993 0.85893 0.0
C1785 C 0.85389 0.26998 0.84149 0.0
C1786 C 0.88524 0.28926 0.87385 0.0
C1787 C 0.89368 0.26802 0.87167 0.0
C1788 C 0.88181 0.24771 0.85437 0.0
C1789 C 0.86224 0.24898 0.8395 0.0
C1790 C 0.89719 0.31141 0.89188 0.0
C1791 C 0.88975 0.22452 0.8516 0.0
H1792 H 0.96886 0.2768 0.88906 0.0
H1793 H 0.9339 0.25523 0.94655 0.0
H1794 H 0.92519 0.26603 0.83909 0.0
H1795 H 0.92869 0.2967 0.85304 0.0
H1796 H 0.95182 0.28381 0.85003 0.0
H1797 H 0.89656 0.2471 0.94072 0.0
H1798 H 0.886 0.26866 0.92366 0.0
H1799 H 0.88283 0.23843 0.90853 0.0
H1800 H 0.85925 0.30626 0.86065 0.0
H1801 H 0.85344 0.23341 0.82619 0.0
H1802 H 0.91348 0.31695 0.8876 0.0
H1803 H 0.89907 0.30738 0.91147 0.0
H1804 H 0.8889 0.3267 0.89092 0.0
H1805 H 0.90568 0.22766 0.84587 0.0
H1806 H 0.8787 0.2103 0.83744 0.0
H1807 H 0.89172 0.21786 0.86999 0.0
C1808 C 0.57586 0.2232 0.64211 0.0
C1809 C 0.57988 0.23967 0.62535 0.0
C1810 C 0.57232 0.19811 0.63405 0.0
C1811 C 0.57243 0.18911 0.6085 0.0
C1812 C 0.5759 0.20566 0.59142 0.0
C1813 C 0.5797 0.23054 0.60003 0.0
C1814 C 0.5689 0.18123 0.65301 0.0
C1815 C 0.57578 0.19711 0.56395 0.0
C1816 C 0.58335 0.12635 0.58924 0.0
C1817 C 0.56267 0.11252 0.58012 0.0
C1818 C 0.5867 0.15103 0.59902 0.0
C1819 C 0.56902 0.16248 0.59947 0.0
C1820 C 0.54814 0.14863 0.59019 0.0
C1821 C 0.54523 0.12395 0.58084 0.0
C1822 C 0.60924 0.1649 0.60889 0.0
C1823 C 0.52881 0.15998 0.5898 0.0
H1824 H 0.57609 0.22992 0.66171 0.0
H1825 H 0.58261 0.24294 0.58676 0.0
H1826 H 0.5534 0.16832 0.64675 0.0
H1827 H 0.58162 0.17058 0.65434 0.0
H1828 H 0.56903 0.19091 0.67207 0.0
H1829 H 0.578 0.21217 0.55287 0.0
H1830 H 0.58875 0.18707 0.56221 0.0
H1831 H 0.56044 0.18457 0.5555 0.0
H1832 H 0.59697 0.11783 0.58903 0.0
H1833 H 0.52915 0.11362 0.57385 0.0
H1834 H 0.61055 0.17363 0.62862 0.0
H1835 H 0.61327 0.17939 0.59753 0.0
H1836 H 0.62119 0.15327 0.60832 0.0
H1837 H 0.52817 0.16841 0.6091 0.0
H1838 H 0.51361 0.14675 0.58239 0.0
H1839 H 0.53003 0.17443 0.57789 0.0
C1840 C 0.59483 0.77648 0.43032 0.0
C1841 C 0.57424 0.76795 0.41589 0.0
C1842 C 0.61338 0.77762 0.41932 0.0
C1843 C 0.61155 0.77006 0.39308 0.0
C1844 C 0.59083 0.76102 0.37845 0.0
C1845 C 0.5725 0.76007 0.38998 0.0
C1846 C 0.63498 0.78734 0.4358 0.0
C1847 C 0.588 0.75269 0.35048 0.0
C1848 C 0.65797 0.79558 0.36088 0.0
C1849 C 0.66911 0.77671 0.35885 0.0
C1850 C 0.63928 0.79359 0.37173 0.0
C1851 C 0.63128 0.77219 0.38096 0.0
C1852 C 0.64243 0.75309 0.37903 0.0
C1853 C 0.66107 0.75556 0.36805 0.0
C1854 C 0.62804 0.81445 0.37326 0.0
C1855 C 0.63474 0.73 0.3887 0.0
H1856 H 0.5965 0.78267 0.45033 0.0
H1857 H 0.55677 0.75351 0.37856 0.0
H1858 H 0.64536 0.77402 0.43409 0.0
H1859 H 0.64298 0.80382 0.42943 0.0
H1860 H 0.63382 0.79177 0.45597 0.0
H1861 H 0.57097 0.74544 0.34182 0.0
H1862 H 0.59431 0.7679 0.34101 0.0
H1863 H 0.59729 0.73857 0.34682 0.0
H1864 H 0.66365 0.81189 0.35355 0.0
H1865 H 0.66952 0.74091 0.36697 0.0
H1866 H 0.62738 0.82078 0.39321 0.0
H1867 H 0.61131 0.8086 0.36305 0.0
H1868 H 0.63611 0.82979 0.36512 0.0
H1869 H 0.63463 0.73378 0.40921 0.0
H1870 H 0.64492 0.71667 0.38547 0.0
H1871 H 0.61807 0.72189 0.37928 0.0
C1872 C 0.02881 0.2417 0.41181 0.0
C1873 C 0.03723 0.2564 0.43508 0.0
C1874 C 0.02586 0.21655 0.40977 0.0
C1875 C 0.03169 0.20619 0.43149 0.0
C1876 C 0.04092 0.22118 0.45478 0.0
C1877 C 0.04342 0.24602 0.45625 0.0
C1878 C 1.01573 0.20134 0.3847 0.0
C1879 C 0.04792 0.21109 0.47845 0.0
C1880 C 1.01276 0.14964 0.45445 0.0
C1881 C 0.03214 0.14183 0.45763 0.0
C1882 C 1.01046 0.16858 0.44087 0.0
C1883 C 0.0281 0.17984 0.43097 0.0
C1884 C 0.04567 0.16856 0.42957 0.0
C1885 C 0.04753 0.14953 0.4431 0.0
C1886 C 0.99082 0.1792 0.44114 0.0
C1887 C 0.06427 0.17922 0.41789 0.0
H1888 H 0.02389 0.24976 0.39542 0.0
H1889 H 0.05022 0.25742 0.47416 0.0
H1890 H 0.02141 0.18423 0.38214 0.0
H1891 H 0.99815 0.19688 0.38371 0.0
H1892 H 1.01897 0.2112 0.36883 0.0
H1893 H 0.05541 0.22538 0.4947 0.0
H1894 H 0.03395 0.19971 0.48378 0.0
H1895 H 0.05965 0.19968 0.47513 0.0
H1896 H 1.00055 0.14323 0.46512 0.0
H1897 H 0.06219 0.14273 0.44478 0.0
H1898 H 0.9867 0.18651 0.42344 0.0
H1899 H 0.994 0.1942 0.45711 0.0
H1900 H 0.9769 0.16564 0.44359 0.0
H1901 H 0.05877 0.18707 0.401 0.0
H1902 H 0.07358 0.16553 0.41249 0.0
H1903 H 0.07509 0.19382 0.43181 0.0
C1904 C 0.6413 0.26778 0.24575 0.0
C1905 C 0.63749 0.28265 0.22755 0.0
C1906 C 0.66217 0.26472 0.25432 0.0
C1907 C 0.67953 0.27681 0.24447 0.0
C1908 C 0.67572 0.29166 0.22601 0.0
C1909 C 0.65487 0.29445 0.21791 0.0
C1910 C 0.6657 0.24883 0.27412 0.0
C1911 C 0.69378 0.3052 0.21526 0.0
C1912 C 0.73503 0.29751 0.28257 0.0
C1913 C 0.74659 0.28233 0.27072 0.0
C1914 C 0.71301 0.29488 0.27518 0.0
C1915 C 0.70201 0.27655 0.2553 0.0
C1916 C 0.71328 0.26032 0.24397 0.0
C1917 C 0.73554 0.26333 0.25194 0.0
C1918 C 0.70172 0.31257 0.2879 0.0
C1919 C 0.70201 0.24058 0.22267 0.0
H1920 H 0.628 0.25837 0.25311 0.0
H1921 H 0.65224 0.30603 0.20387 0.0
H1922 H 0.67492 0.23541 0.26779 0.0
H1923 H 0.67529 0.25985 0.29175 0.0
H1924 H 0.65041 0.23922 0.27844 0.0
H1925 H 0.68794 0.31461 0.19972 0.0
H1926 H 0.70452 0.31876 0.23033 0.0
H1927 H 0.70348 0.29272 0.208 0.0
H1928 H 0.74324 0.31181 0.29769 0.0
H1929 H 0.74434 0.25141 0.24293 0.0
H1930 H 0.68808 0.30283 0.29531 0.0
H1931 H 0.69515 0.3232 0.274 0.0
H1932 H 0.71251 0.32527 0.30369 0.0
H1933 H 0.68708 0.23067 0.22745 0.0
H1934 H 0.71227 0.22764 0.21816 0.0
H1935 H 0.69746 0.24856 0.20555 0.0
C1936 C 0.52947 0.87539 0.95392 0.0
C1937 C 0.5439 0.87745 0.9371 0.0
C1938 C 0.52911 0.89478 0.97202 0.0
C1939 C 0.54429 0.91639 0.97412 0.0
C1940 C 0.55902 0.91863 0.95719 0.0
C1941 C 0.55835 0.89916 0.93844 0.0
C1942 C 0.51251 0.89209 0.98891 0.0
C1943 C 0.57583 0.94127 0.95939 0.0
C1944 C 0.53455 0.97437 1.00687 0.0
C1945 C 0.54604 0.97585 0.03122 0.0
C1946 C 0.53325 0.9547 0.98834 0.0
C1947 C 0.5446 0.93663 0.994 0.0
C1948 C 0.55611 0.93784 0.01864 0.0
C1949 C 0.55638 0.95731 0.03717 0.0
C1950 C 0.52013 0.9536 0.96257 0.0
C1951 C 0.56888 0.91916 0.02511 0.0
H1952 H 0.51833 0.85862 0.95294 0.0
H1953 H 0.56968 0.90054 0.92558 0.0
H1954 H 0.52043 0.89351 1.00878 0.0
H1955 H 0.50352 0.90679 0.98799 0.0
H1956 H 0.50094 0.87461 0.98364 0.0
H1957 H 0.58644 0.93986 0.94518 0.0
H1958 H 0.56815 0.95681 0.95696 0.0
H1959 H 0.58581 0.94515 0.9785 0.0
H1960 H 0.52712 0.98897 1.00196 0.0
H1961 H 0.56569 0.95869 0.05583 0.0
H1962 H 0.50909 0.93585 0.95673 0.0
H1963 H 0.53082 0.95572 0.94845 0.0
H1964 H 0.51059 0.96786 0.96209 0.0
H1965 H 0.5583 0.90109 0.02163 0.0
H1966 H 0.57713 0.92285 0.04508 0.0
H1967 H 0.58106 0.91861 0.01275 0.0
C1968 C 0.99141 0.76186 0.72341 0.0
C1969 C 1.00911 0.75251 0.73268 0.0
C1970 C 0.97663 0.76684 0.73862 0.0
C1971 C 0.97944 0.76222 0.76379 0.0
C1972 C 0.99661 0.75158 0.77293 0.0
C1973 C 1.01137 0.74692 0.75727 0.0
C1974 C 0.95809 0.77735 0.7278 0.0
C1975 C 0.9995 0.74553 0.79933 0.0
C1976 C 0.95074 0.79945 0.8043 0.0
C1977 C 0.93094 0.78375 0.80222 0.0
C1978 C 0.96736 0.79205 0.79348 0.0
C1979 C 0.96403 0.76848 0.78005 0.0
C1980 C 0.94455 0.75215 0.7792 0.0
C1981 C 0.92841 0.75985 0.79068 0.0
C1982 C 0.98788 0.81004 0.79474 0.0
C1983 C 0.94017 0.72679 0.76531 0.0
H1984 H 0.98939 0.766 0.70435 0.0
H1985 H 0.02501 0.73969 0.76454 0.0
H1986 H 0.94277 0.76527 0.7287 0.0
H1987 H 0.9585 0.79495 0.73914 0.0
H1988 H 0.95826 0.77997 0.70788 0.0
H1989 H 1.01354 0.7371 0.80358 0.0
H1990 H 1.00157 0.76205 0.8132 0.0
H1991 H 0.98495 0.73301 0.80186 0.0
H1992 H 0.95285 0.81796 0.81307 0.0
H1993 H 0.91339 0.74736 0.78965 0.0
H1994 H 0.98868 0.81532 0.77585 0.0
H1995 H 1.0019 0.80194 0.80012 0.0
H1996 H 0.98907 0.8265 0.80844 0.0
H1997 H 0.9489 0.72497 0.74932 0.0
H1998 H 0.92285 0.72036 0.75776 0.0
H1999 H 0.94527 0.71488 0.77866 0.0
C2000 C 0.11979 0.06204 0.89705 0.0
C2001 C 0.14111 0.06069 0.89601 0.0
C2002 C 0.11083 0.05762 0.91856 0.0
C2003 C 0.12347 0.05176 0.93969 0.0
C2004 C 0.14525 0.05136 0.93916 0.0
C2005 C 0.15379 0.05579 0.91735 0.0
C2006 C 0.08756 0.05834 0.91827 0.0
C2007 C 0.15936 0.04539 0.96129 0.0
C2008 C 0.1013 0.05532 1.00121 0.0
C2009 C 0.09094 0.0314 1.00051 0.0
C2010 C 0.11253 0.06214 0.98201 0.0
C2011 C 0.11346 0.04462 0.96159 0.0
C2012 C 0.10378 0.02027 0.96142 0.0
C2013 C 0.09269 1.01398 0.98086 0.0
C2014 C 0.12271 0.08824 0.98309 0.0
C2015 C 0.10442 1.00096 0.94016 0.0
H2016 H 0.10984 0.06584 0.88071 0.0
H2017 H 0.17029 0.05473 0.9168 0.0
H2018 H 0.07848 0.04014 0.91922 0.0
H2019 H 0.08582 0.07048 0.93504 0.0
H2020 H 0.08024 0.06453 0.90105 0.0
H2021 H 0.17634 0.04777 0.95881 0.0
H2022 H 0.15848 0.05689 0.97892 0.0
H2023 H 0.15365 0.02646 0.9637 0.0
H2024 H 0.10003 0.0689 0.01634 0.0
H2025 H 0.08479 0.99545 0.98021 0.0
H2026 H 0.11429 0.09559 0.96741 0.0
H2027 H 0.13963 0.09006 0.98062 0.0
H2028 H 0.12213 0.09928 1.00117 0.0
H2029 H 0.09566 1.00449 0.92226 0.0
H2030 H 0.09715 0.98273 0.94346 0.0
H2031 H 0.12117 1.00119 0.93765 0.0
C2032 C 0.75325 0.40004 0.58607 0.0
C2033 C 0.7407 0.38038 0.56901 0.0
C2034 C 0.76007 0.39768 0.61128 0.0
C2035 C 0.75423 0.37516 0.61928 0.0
C2036 C 0.73926 0.35638 0.60299 0.0
C2037 C 0.7326 0.35928 0.57804 0.0
C2038 C 0.77529 0.41847 0.62837 0.0
C2039 C 0.73227 0.33216 0.61088 0.0
C2040 C 0.79352 0.34757 0.65828 0.0
C2041 C 0.78398 0.34511 0.67954 0.0
C2042 C 0.78503 0.3594 0.63933 0.0
C2043 C 0.76674 0.36921 0.64199 0.0
C2044 C 0.75853 0.36908 0.66471 0.0
C2045 C 0.76713 0.35671 0.68319 0.0
C2046 C 0.79438 0.35928 0.61543 0.0
C2047 C 0.73979 0.38046 0.66869 0.0
H2048 H 0.75931 0.41658 0.57934 0.0
H2049 H 0.72242 0.34425 0.56507 0.0
H2050 H 0.77351 0.41841 0.64837 0.0
H2051 H 0.79196 0.41709 0.62686 0.0
H2052 H 0.77276 0.43591 0.62282 0.0
H2053 H 0.71879 0.32053 0.59707 0.0
H2054 H 0.7459 0.32282 0.61256 0.0
H2055 H 0.72729 0.33428 0.62956 0.0
H2056 H 0.80657 0.3386 0.65553 0.0
H2057 H 0.7601 0.35518 0.69999 0.0
H2058 H 0.79732 0.37757 0.61022 0.0
H2059 H 0.78284 0.34734 0.5997 0.0
H2060 H 0.80966 0.35285 0.61729 0.0
H2061 H 0.74172 0.39831 0.66236 0.0
H2062 H 0.73786 0.38262 0.68879 0.0
H2063 H 0.72489 0.36907 0.65727 0.0
C2064 C 0.47366 0.04666 0.36756 0.0
C2065 C 0.45702 0.05966 0.36622 0.0
C2066 C 0.48583 0.04379 0.39099 0.0
C2067 C 0.48253 0.05508 0.41467 0.0
C2068 C 0.4658 0.06837 0.41341 0.0
C2069 C 0.45321 0.07006 0.38971 0.0
C2070 C 0.50232 0.02834 0.39011 0.0
C2071 C 0.46132 0.08133 0.43726 0.0
C2072 C 0.50478 0.03647 0.48015 0.0
C2073 C 0.52581 0.05041 0.48677 0.0
C2074 C 0.49071 0.03762 0.45725 0.0
C2075 C 0.49704 0.05381 0.44021 0.0
C2076 C 0.51791 0.06866 0.44763 0.0
C2077 C 0.53187 0.06635 0.46992 0.0
C2078 C 0.46908 0.02096 0.45144 0.0
C2079 C 0.52581 0.08726 0.43193 0.0
H2080 H 0.47706 0.03823 0.35006 0.0
H2081 H 0.44065 0.08024 0.3896 0.0
H2082 H 0.51823 0.03991 0.39087 0.0
H2083 H 0.50329 0.01829 0.40634 0.0
H2084 H 0.49869 1.01527 0.37239 0.0
H2085 H 0.45015 0.09356 0.43336 0.0
H2086 H 0.45412 0.06801 0.44839 0.0
H2087 H 0.47644 0.09195 0.44905 0.0
H2088 H 0.49953 0.02377 0.49232 0.0
H2089 H 0.54788 0.07733 0.47421 0.0
H2090 H 0.46258 0.01692 0.43094 0.0
H2091 H 0.45778 0.02949 0.4611 0.0
H2092 H 0.46984 1.00378 0.45871 0.0
H2093 H 0.53073 0.07836 0.41512 0.0
H2094 H 0.53979 0.10085 0.44261 0.0
H2095 H 0.51296 0.09667 0.42526 0.0
C2096 C 0.7822 0.73102 0.10747 0.0
C2097 C 0.78075 0.70658 0.09856 0.0
C2098 C 0.7861 0.73988 0.13337 0.0
C2099 C 0.78846 0.72395 0.15109 0.0
C2100 C 0.78761 0.69936 0.14233 0.0
C2101 C 0.78389 0.69098 0.11617 0.0
C2102 C 0.78715 0.76627 0.14174 0.0
C2103 C 0.78998 0.68177 0.1606 0.0
C2104 C 0.81353 0.75266 0.21873 0.0
C2105 C 0.79543 0.7538 0.22995 0.0
C2106 C 0.81155 0.74251 0.19331 0.0
C2107 C 0.79097 0.73309 0.17866 0.0
C2108 C 0.77266 0.73386 0.18996 0.0
C2109 C 0.7751 0.74426 0.21536 0.0
C2110 C 0.83149 0.7423 0.18201 0.0
C2111 C 0.75043 0.72399 0.1751 0.0
H2112 H 0.78006 0.74336 0.09411 0.0
H2113 H 0.78274 0.67208 0.10954 0.0
H2114 H 0.77384 0.76848 0.15196 0.0
H2115 H 0.8023 0.77428 0.155 0.0
H2116 H 0.78611 0.77651 0.12564 0.0
H2117 H 0.79006 0.66356 0.15092 0.0
H2118 H 0.80502 0.68825 0.17448 0.0
H2119 H 0.77659 0.68039 0.17132 0.0
H2120 H 0.82934 0.75993 0.22975 0.0
H2121 H 0.76099 0.74482 0.2238 0.0
H2122 H 0.83158 0.75351 0.16671 0.0
H2123 H 0.83168 0.72377 0.17344 0.0
H2124 H 0.84632 0.74926 0.19618 0.0
H2125 H 0.7473 0.73442 0.15951 0.0
H2126 H 0.73789 0.7247 0.18696 0.0
H2127 H 0.74902 0.70507 0.16646 0.0
C2128 C 0.09821 0.06144 0.75291 0.0
C2129 C 0.11969 0.06107 0.76177 0.0
C2130 C 0.08974 0.05712 0.72697 0.0
C2131 C 0.10312 0.05275 0.70926 0.0
C2132 C 0.12479 0.05215 0.71805 0.0
C2133 C 0.13275 0.05608 0.74416 0.0
C2134 C 0.06646 0.05745 0.71852 0.0
C2135 C 0.13969 0.04786 0.69983 0.0
C2136 C 0.07713 0.0237 0.64197 0.0
C2137 C 0.07723 0.04375 0.62941 0.0
C2138 C 0.08555 0.0263 0.66786 0.0
C2139 C 0.09454 0.04952 0.68159 0.0
C2140 C 0.09488 0.06981 0.66897 0.0
C2141 C 0.08611 0.06671 0.64316 0.0
C2142 C 0.0846 1.0042 0.68058 0.0
C2143 C 0.10458 0.09486 0.68275 0.0
H2144 H 0.0879 0.06503 0.76631 0.0
H2145 H 0.14937 0.05583 0.75077 0.0
H2146 H 0.0651 0.07223 0.70733 0.0
H2147 H 0.05831 0.04038 0.70611 0.0
H2148 H 0.05793 0.05993 0.73464 0.0
H2149 H 0.15597 0.04751 0.70963 0.0
H2150 H 0.13318 0.03056 0.6871 0.0
H2151 H 0.14096 0.06225 0.68783 0.0
H2152 H 0.0703 1.0059 0.63162 0.0
H2153 H 0.0865 0.08233 0.63368 0.0
H2154 H 0.07452 1.00521 0.69536 0.0
H2155 H 0.1008 1.00328 0.69005 0.0
H2156 H 0.07793 0.98736 0.66711 0.0
H2157 H 0.09575 0.0993 0.69812 0.0
H2158 H 0.10428 0.10868 0.67009 0.0
H2159 H 0.1214 0.09583 0.69161 0.0
C2160 C 0.75279 0.37796 0.4211 0.0
C2161 C 0.74065 0.36908 0.43852 0.0
C2162 C 0.7609 0.36238 0.4049 0.0
C2163 C 0.75686 0.33749 0.40639 0.0
C2164 C 0.74352 0.32829 0.42282 0.0
C2165 C 0.73536 0.3442 0.43851 0.0
C2166 C 0.77447 0.37265 0.38688 0.0
C2167 C 0.73863 0.3018 0.42459 0.0
C2168 C 0.76694 0.29756 0.3509 0.0
C2169 C 0.78793 0.29525 0.35923 0.0
C2170 C 0.75621 0.31038 0.36645 0.0
C2171 C 0.76686 0.32117 0.39095 0.0
C2172 C 0.7876 0.31754 0.40006 0.0
C2173 C 0.79798 0.30451 0.38397 0.0
C2174 C 0.73414 0.31374 0.35591 0.0
C2175 C 0.7993 0.32866 0.42622 0.0
H2176 H 0.7568 0.39715 0.42092 0.0
H2177 H 0.7257 0.3372 0.45169 0.0
H2178 H 0.79098 0.3697 0.39181 0.0
H2179 H 0.76797 0.36327 0.3674 0.0
H2180 H 0.77521 0.39221 0.38719 0.0
H2181 H 0.72722 0.29742 0.43758 0.0
H2182 H 0.73181 0.2912 0.40568 0.0
H2183 H 0.75364 0.29598 0.43143 0.0
H2184 H 0.75921 0.29017 0.3317 0.0
H2185 H 0.81434 0.3029 0.39015 0.0
H2186 H 0.73543 0.33179 0.3501 0.0
H2187 H 0.72357 0.31269 0.37022 0.0
H2188 H 0.72646 0.30009 0.33915 0.0
H2189 H 0.80346 0.34848 0.42731 0.0
H2190 H 0.81426 0.32207 0.43134 0.0
H2191 H 0.78891 0.3247 0.44035 0.0
C2192 C 0.46433 0.0728 0.21692 0.0
C2193 C 0.45543 0.05194 0.22647 0.0
C2194 C 0.47483 0.07186 0.19509 0.0
C2195 C 0.4772 0.04955 0.18168 0.0
C2196 C 0.46778 0.02855 0.19095 0.0
C2197 C 0.45751 0.03001 0.21269 0.0
C2198 C 0.48424 0.09512 0.18694 0.0
C2199 C 0.46928 1.00411 0.17838 0.0
C2200 C 0.49212 0.04309 0.11276 0.0
C2201 C 0.5143 0.04287 0.11666 0.0
C2202 C 0.4802 0.04551 0.13315 0.0
C2203 C 0.49009 0.04796 0.15907 0.0
C2204 C 0.51248 0.04788 0.16306 0.0
C2205 C 0.52399 0.04543 0.14239 0.0
C2206 C 0.45668 0.04538 0.12679 0.0
C2207 C 0.52452 0.05036 0.18956 0.0
H2208 H 0.46409 0.09012 0.22727 0.0
H2209 H 0.45167 1.01353 0.21964 0.0
H2210 H 0.50194 0.0978 0.19037 0.0
H2211 H 0.47893 0.09443 0.16641 0.0
H2212 H 0.47968 0.11082 0.19725 0.0
H2213 H 0.46012 0.98931 0.18629 0.0
H2214 H 0.4632 1.0019 0.15783 0.0
H2215 H 0.48627 1.00245 0.18078 0.0
H2216 H 0.48387 0.04135 0.09353 0.0
H2217 H 0.54093 0.04557 0.14658 0.0
H2218 H 0.45324 0.0621 0.1364 0.0
H2219 H 0.44735 0.03009 0.1338 0.0
H2220 H 0.45108 0.04389 0.10618 0.0
H2221 H 0.52286 0.06721 0.2008 0.0
H2222 H 0.5418 0.05054 0.19011 0.0
H2223 H 0.51759 0.03524 0.19878 0.0
C2224 C 0.78781 0.68589 0.94905 0.0
C2225 C 0.7727 0.68938 0.96445 0.0
C2226 C 0.7911 0.6998 0.92967 0.0
C2227 C 0.77838 0.71703 0.92479 0.0
C2228 C 0.76234 0.71969 0.93953 0.0
C2229 C 0.76007 0.70632 0.95952 0.0
C2230 C 0.80893 0.69689 0.91525 0.0
C2231 C 0.74775 0.73697 0.93445 0.0
C2232 C 0.79987 0.77094 0.89362 0.0
C2233 C 0.79134 0.76293 0.86799 0.0
C2234 C 0.79603 0.75613 0.91212 0.0
C2235 C 0.78252 0.733 0.90514 0.0
C2236 C 0.77333 0.72512 0.87936 0.0
C2237 C 0.77831 0.73986 0.86111 0.0
C2238 C 0.80693 0.76505 0.9391 0.0
C2239 C 0.75819 0.7011 0.871 0.0
H2240 H 0.7979 0.67317 0.95307 0.0
H2241 H 0.74842 0.70916 0.97141 0.0
H2242 H 0.80258 0.69233 0.89475 0.0
H2243 H 0.82075 0.71413 0.91823 0.0
H2244 H 0.81733 0.68269 0.92118 0.0
H2245 H 0.73456 0.73494 0.94552 0.0
H2246 H 0.75703 0.75571 0.93936 0.0
H2247 H 0.74073 0.73413 0.9141 0.0
H2248 H 0.81022 0.78856 0.89919 0.0
H2249 H 0.77192 0.73325 0.84141 0.0
H2250 H 0.81643 0.75209 0.94592 0.0
H2251 H 0.79481 0.76633 0.95139 0.0
H2252 H 0.81771 0.78295 0.94132 0.0
H2253 H 0.7669 0.68641 0.87383 0.0
H2254 H 0.75067 0.69866 0.85082 0.0
H2255 H 0.74538 0.69927 0.88259 0.0
C2256 C 0.9021 0.1196 0.12704 0.0
C2257 C 0.90745 0.13996 0.1155 0.0
C2258 C 0.9132 0.10085 0.12452 0.0
C2259 C 0.92955 0.10259 0.1098 0.0
C2260 C 0.93717 0.12469 0.10177 0.0
C2261 C 0.92615 0.14334 0.10511 0.0
C2262 C 0.90545 0.07802 0.13461 0.0
C2263 C 0.95469 0.12748 0.08613 0.0
C2264 C 0.95942 0.05365 0.093 0.0
C2265 C 0.94758 0.04301 0.06918 0.0
C2266 C 0.95318 0.07237 0.1073 0.0
C2267 C 0.93472 0.08043 0.09745 0.0
C2268 C 0.92208 0.06876 0.07403 0.0
C2269 C 0.9287 0.05016 0.06018 0.0
C2270 C 0.96697 0.08447 0.13211 0.0
C2271 C 0.90226 0.07691 0.06279 0.0
H2272 H 0.88799 0.11721 0.13579 0.0
H2273 H 0.9307 0.15935 0.09673 0.0
H2274 H 0.89395 0.06526 0.11951 0.0
H2275 H 0.91889 0.06924 0.14068 0.0
H2276 H 0.89717 0.08155 0.15077 0.0
H2277 H 0.96176 0.1467 0.08619 0.0
H2278 H 0.96762 0.11832 0.09295 0.0
H2279 H 0.94787 0.11915 0.06634 0.0
H2280 H 0.97424 0.04831 0.09978 0.0
H2281 H 0.9196 0.04184 0.04178 0.0
H2282 H 0.95705 0.08578 0.14703 0.0
H2283 H 0.97467 0.10305 0.13053 0.0
H2284 H 0.9797 0.07471 0.13803 0.0
H2285 H 0.89094 0.07674 0.07626 0.0
H2286 H 0.89389 0.06535 0.04484 0.0
H2287 H 0.90667 0.09564 0.05904 0.0
C2288 C 0.39746 0.45833 0.06413 0.0
C2289 C 0.39694 0.43865 0.07727 0.0
C2290 C 0.41706 0.47366 0.063 0.0
C2291 C 0.43664 0.46969 0.07589 0.0
C2292 C 0.436 0.45042 0.09006 0.0
C2293 C 0.41632 0.435 0.09021 0.0
C2294 C 0.4169 0.49357 0.04722 0.0
C2295 C 0.45621 0.44573 0.10469 0.0
C2296 C 0.48975 0.49241 0.05432 0.0
C2297 C 0.49849 0.51357 0.07146 0.0
C2298 C 0.46965 0.4782 0.05536 0.0
C2299 C 0.45785 0.48513 0.07409 0.0
C2300 C 0.4667 0.50643 0.09153 0.0
C2301 C 0.4868 0.52033 0.09 0.0
C2302 C 0.461 0.45574 0.0363 0.0
C2303 C 0.45496 0.51452 0.11197 0.0
H2304 H 0.38264 0.46103 0.0537 0.0
H2305 H 0.41609 0.41979 0.10035 0.0
H2306 H 0.42501 0.51107 0.0588 0.0
H2307 H 0.42594 0.49048 0.0317 0.0
H2308 H 0.40043 0.4948 0.0389 0.0
H2309 H 0.45292 0.43106 0.11608 0.0
H2310 H 0.46679 0.44076 0.0915 0.0
H2311 H 0.46511 0.46227 0.11748 0.0
H2312 H 0.49857 0.48703 0.03987 0.0
H2313 H 0.49336 0.53664 0.10335 0.0
H2314 H 0.44507 0.45658 0.02591 0.0
H2315 H 0.45881 0.43978 0.04608 0.0
H2316 H 0.47174 0.45315 0.02248 0.0
H2317 H 0.43903 0.51719 0.10345 0.0
H2318 H 0.46386 0.53152 0.124 0.0
H2319 H 0.45224 0.5004 0.12411 0.0
C2320 C 0.42797 0.58467 0.79343 0.0
C2321 C 0.41914 0.5634 0.77656 0.0
C2322 C 0.41658 0.60324 0.7961 0.0
C2323 C 0.39607 0.6006 0.78123 0.0
C2324 C 0.38778 0.57984 0.76296 0.0
C2325 C 0.39932 0.56139 0.76103 0.0
C2326 C 0.4259 0.62497 0.81597 0.0
C2327 C 0.36621 0.57652 0.74632 0.0
C2328 C 0.35395 0.63003 0.80678 0.0
C2329 C 0.35438 0.64992 0.79406 0.0
C2330 C 0.3679 0.6143 0.80331 0.0
C2331 C 0.38238 0.6183 0.78633 0.0
C2332 C 0.38304 0.63853 0.77362 0.0
C2333 C 0.36915 0.65424 0.77783 0.0
C2334 C 0.36692 0.59318 0.81757 0.0
C2335 C 0.39795 0.64319 0.75505 0.0
H2336 H 0.44323 0.58625 0.80559 0.0
H2337 H 0.39249 0.54504 0.74784 0.0
H2338 H 0.42498 0.64174 0.80797 0.0
H2339 H 0.41643 0.62469 0.83141 0.0
H2340 H 0.44283 0.6255 0.82412 0.0
H2341 H 0.36318 0.56078 0.73117 0.0
H2342 H 0.35345 0.57387 0.7579 0.0
H2343 H 0.36496 0.59282 0.73751 0.0
H2344 H 0.34269 0.62681 0.81953 0.0
H2345 H 0.36942 0.66954 0.76785 0.0
H2346 H 0.38303 0.59318 0.82807 0.0
H2347 H 0.36174 0.57615 0.80412 0.0
H2348 H 0.35566 0.59341 0.83114 0.0
H2349 H 0.41468 0.64398 0.76411 0.0
H2350 H 0.39711 0.66022 0.74748 0.0
H2351 H 0.39383 0.62816 0.73905 0.0
C2352 C 0.29857 0.65446 0.60628 0.0
C2353 C 0.30415 0.67962 0.60917 0.0
C2354 C 0.27756 0.64269 0.6065 0.0
C2355 C 0.26175 0.65641 0.60952 0.0
C2356 C 0.26745 0.68181 0.61337 0.0
C2357 C 0.28859 0.69311 0.61321 0.0
C2358 C 0.27214 0.61557 0.6027 0.0
C2359 C 0.25103 0.69706 0.61663 0.0
C2360 C 0.20395 0.62843 0.58104 0.0
C2361 C 0.19533 0.62297 0.60237 0.0
C2362 C 0.22561 0.63903 0.5831 0.0
C2363 C 0.239 0.64424 0.60708 0.0
C2364 C 0.23052 0.63841 0.62863 0.0
C2365 C 0.20876 0.62785 0.62602 0.0
C2366 C 0.23411 0.64494 0.55966 0.0
C2367 C 0.24433 0.64372 0.65449 0.0
H2368 H 0.31055 0.64391 0.60344 0.0
H2369 H 0.29271 0.71255 0.61539 0.0
H2370 H 0.26379 0.60921 0.61783 0.0
H2371 H 0.26108 0.60874 0.58451 0.0
H2372 H 0.28656 0.60762 0.60258 0.0
H2373 H 0.25834 0.71655 0.62114 0.0
H2374 H 0.23905 0.69397 0.59903 0.0
H2375 H 0.24234 0.69188 0.63191 0.0
H2376 H 0.19372 0.62439 0.56268 0.0
H2377 H 0.20213 0.62393 0.64262 0.0
H2378 H 0.24762 0.63593 0.55721 0.0
H2379 H 0.24035 0.66458 0.56159 0.0
H2380 H 0.22168 0.63933 0.54239 0.0
H2381 H 0.25851 0.6354 0.65432 0.0
H2382 H 0.23552 0.63701 0.66915 0.0
H2383 H 0.2503 0.6634 0.65985 0.0
C2384 C 0.70105 0.93114 0.82722 0.0
C2385 C 0.70824 0.95251 0.81739 0.0
C2386 C 0.71197 0.9111 0.82711 0.0
C2387 C 0.73076 0.91068 0.81585 0.0
C2388 C 0.73772 0.93207 0.80532 0.0
C2389 C 0.72701 0.95224 0.80672 0.0
C2390 C 0.70298 0.89043 0.8397 0.0
C2391 C 0.75672 0.93415 0.79207 0.0
C2392 C 0.77491 0.87014 0.82834 0.0
C2393 C 0.76611 0.84727 0.81345 0.0
C2394 C 0.76381 0.88999 0.82974 0.0
C2395 C 0.74293 0.88856 0.81518 0.0
C2396 C 0.73408 0.8655 0.79986 0.0
C2397 C 0.74527 0.84571 0.79955 0.0
C2398 C 0.77497 0.91261 0.84745 0.0
C2399 C 0.71247 0.86121 0.7832 0.0
H2400 H 0.68689 0.93016 0.83582 0.0
H2401 H 0.7334 0.96796 0.79884 0.0
H2402 H 0.68906 0.87884 0.82663 0.0
H2403 H 0.71482 0.87936 0.84508 0.0
H2404 H 0.69709 0.8971 0.85688 0.0
H2405 H 0.75449 0.94446 0.77615 0.0
H2406 H 0.77114 0.94421 0.80552 0.0
H2407 H 0.75966 0.91636 0.78466 0.0
H2408 H 0.79075 0.87264 0.83949 0.0
H2409 H 0.73757 0.8288 0.78773 0.0
H2410 H 0.76368 0.9237 0.85336 0.0
H2411 H 0.78652 0.92344 0.83795 0.0
H2412 H 0.78425 0.90824 0.8646 0.0
H2413 H 0.70008 0.85341 0.79366 0.0
H2414 H 0.71157 0.84808 0.76604 0.0
H2415 H 0.70864 0.87803 0.77732 0.0
C2416 C 0.77998 0.96315 0.58911 0.0
C2417 C 0.77801 0.93845 0.58106 0.0
C2418 C 0.76192 0.97397 0.5874 0.0
C2419 C 0.74121 0.95991 0.57724 0.0
C2420 C 0.7391 0.93487 0.56965 0.0
C2421 C 0.75739 0.92452 0.57168 0.0
C2422 C 0.76507 1.00065 0.59591 0.0
C2423 C 0.71752 0.91905 0.55863 0.0
C2424 C 0.69097 0.98425 0.58789 0.0
C2425 C 0.68551 0.99331 0.56538 0.0
C2426 C 0.70901 0.97353 0.5921 0.0
C2427 C 0.72197 0.97149 0.57331 0.0
C2428 C 0.71636 0.98033 0.55046 0.0
C2429 C 0.69838 0.99109 0.54683 0.0
C2430 C 0.71431 0.96456 0.61681 0.0
C2431 C 0.72937 0.97837 0.52968 0.0
H2432 H 0.79574 0.97418 0.59635 0.0
H2433 H 0.75554 0.90546 0.56532 0.0
H2434 H 0.76062 1.00965 0.57951 0.0
H2435 H 0.75445 1.00421 0.60958 0.0
H2436 H 0.78187 1.00886 0.60483 0.0
H2437 H 0.71833 0.89978 0.55472 0.0
H2438 H 0.7061 0.92101 0.57171 0.0
H2439 H 0.71099 0.92474 0.54075 0.0
H2440 H 0.68137 0.98599 0.6025 0.0
H2441 H 0.69426 0.99759 0.52918 0.0
H2442 H 0.7306 0.97391 0.62654 0.0
H2443 H 0.71437 0.94509 0.61334 0.0
H2444 H 0.70277 0.96745 0.62955 0.0
H2445 H 0.74616 0.98791 0.53676 0.0
H2446 H 0.72296 0.98603 0.51301 0.0
H2447 H 0.72961 0.95924 0.52358 0.0
C2448 C 0.3934 0.43718 0.78451 0.0
C2449 C 0.41343 0.43274 0.78074 0.0
C2450 C 0.37619 0.41825 0.78472 0.0
C2451 C 0.37883 0.39418 0.78043 0.0
C2452 C 0.39877 0.38953 0.77562 0.0
C2453 C 0.4159 0.40885 0.77618 0.0
C2454 C 0.35544 0.4241 0.7906 0.0
C2455 C 0.40216 0.36415 0.77044 0.0
C2456 C 0.34376 0.34778 0.80909 0.0
C2457 C 0.32722 0.33746 0.78878 0.0
C2458 C 0.3606 0.36614 0.80657 0.0
C2459 C 0.36126 0.37408 0.78293 0.0
C2460 C 0.34479 0.36335 0.76215 0.0
C2461 C 0.32777 0.34536 0.76542 0.0
C2462 C 0.37749 0.37735 0.82938 0.0
C2463 C 0.34522 0.37081 0.73649 0.0
H2464 H 0.39136 0.45556 0.78825 0.0
H2465 H 0.43127 0.40524 0.77307 0.0
H2466 H 0.34193 0.41467 0.7755 0.0
H2467 H 0.35225 0.41767 0.80842 0.0
H2468 H 0.35569 0.44368 0.79263 0.0
H2469 H 0.41755 0.36345 0.7639 0.0
H2470 H 0.40214 0.35586 0.78787 0.0
H2471 H 0.38892 0.35306 0.75596 0.0
H2472 H 0.34333 0.34179 0.82724 0.0
H2473 H 0.31508 0.33722 0.74964 0.0
H2474 H 0.37811 0.39695 0.83329 0.0
H2475 H 0.39345 0.37499 0.82569 0.0
H2476 H 0.37446 0.36939 0.8465 0.0
H2477 H 0.34424 0.39001 0.73739 0.0
H2478 H 0.33183 0.35993 0.722 0.0
H2479 H 0.36056 0.36893 0.73042 0.0
C2480 C 0.19622 0.61577 0.32485 0.0
C2481 C 0.2049 0.59513 0.32851 0.0
C2482 C 0.20887 0.6387 0.3237 0.0
C2483 C 0.23151 0.64243 0.32652 0.0
C2484 C 0.24062 0.62185 0.33039 0.0
C2485 C 0.22743 0.59876 0.33114 0.0
C2486 C 0.19771 0.65912 0.3191 0.0
C2487 C 0.2645 0.62425 0.33383 0.0
C2488 C 0.26092 0.69755 0.29949 0.0
C2489 C 0.26771 0.71615 0.32046 0.0
C2490 C 0.2498 0.67391 0.30129 0.0
C2491 C 0.24513 0.66757 0.32478 0.0
C2492 C 0.25224 0.68614 0.34614 0.0
C2493 C 0.26312 0.7098 0.34375 0.0
C2494 C 0.24261 0.65569 0.27763 0.0
C2495 C 0.24819 0.68106 0.37178 0.0
H2496 H 0.17905 0.61406 0.32251 0.0
H2497 H 0.23487 0.5836 0.33396 0.0
H2498 H 0.20352 0.67422 0.33491 0.0
H2499 H 0.20152 0.66595 0.30169 0.0
H2500 H 0.18006 0.65367 0.3171 0.0
H2501 H 0.26949 0.60731 0.33766 0.0
H2502 H 0.27029 0.62943 0.31663 0.0
H2503 H 0.2724 0.63877 0.34968 0.0
H2504 H 0.26404 0.70156 0.28124 0.0
H2505 H 0.26808 0.72341 0.36035 0.0
H2506 H 0.22491 0.65029 0.27385 0.0
H2507 H 0.24898 0.63927 0.28014 0.0
H2508 H 0.24789 0.66273 0.2609 0.0
H2509 H 0.23073 0.6771 0.37179 0.0
H2510 H 0.25585 0.69641 0.38689 0.0
H2511 H 0.25433 0.66492 0.37625 0.0
C2512 C 0.53126 0.69475 0.47148 0.0
C2513 C 0.5219 0.71026 0.48637 0.0
C2514 C 0.53491 0.67265 0.47873 0.0
C2515 C 0.52918 0.6657 0.5015 0.0
C2516 C 0.51944 0.6811 0.51632 0.0
C2517 C 0.51595 0.70293 0.50866 0.0
C2518 C 0.54502 0.65672 0.46207 0.0
C2519 C 0.51291 0.67468 0.54063 0.0
C2520 C 0.52224 0.60019 0.51429 0.0
C2521 C 0.54157 0.60039 0.53024 0.0
C2522 C 0.51819 0.621 0.50431 0.0
C2523 C 0.53379 0.64278 0.51035 0.0
C2524 C 0.5534 0.64298 0.52619 0.0
C2525 C 0.55703 0.62197 0.53581 0.0
C2526 C 0.497 0.61985 0.4877 0.0
C2527 C 0.57048 0.66565 0.53346 0.0
H2528 H 0.53593 0.69995 0.45424 0.0
H2529 H 0.5086 0.71441 0.52047 0.0
H2530 H 0.56046 0.65447 0.47254 0.0
H2531 H 0.53453 0.63859 0.45672 0.0
H2532 H 0.54796 0.66412 0.44463 0.0
H2533 H 0.50536 0.68841 0.54999 0.0
H2534 H 0.50145 0.65715 0.53691 0.0
H2535 H 0.52711 0.67272 0.55386 0.0
H2536 H 0.51023 0.58375 0.50962 0.0
H2537 H 0.57208 0.62259 0.54799 0.0
H2538 H 0.49927 0.62893 0.47108 0.0
H2539 H 0.4869 0.62933 0.49846 0.0
H2540 H 0.48822 0.60112 0.48094 0.0
H2541 H 0.57481 0.67259 0.5163 0.0
H2542 H 0.58518 0.66276 0.54513 0.0
H2543 H 0.56428 0.67975 0.54425 0.0
C2544 C 0.67395 0.3243 0.6927 0.0
C2545 C 0.65344 0.31683 0.69846 0.0
C2546 C 0.69269 0.32232 0.70871 0.0
C2547 C 0.69125 0.31263 0.73136 0.0
C2548 C 0.67066 0.30528 0.7375 0.0
C2549 C 0.6521 0.30753 0.72112 0.0
C2550 C 0.7141 0.33076 0.70132 0.0
C2551 C 0.66819 0.29468 0.76126 0.0
C2552 C 0.73891 0.28783 0.76164 0.0
C2553 C 0.74927 0.30654 0.78121 0.0
C2554 C 0.7201 0.2895 0.74541 0.0
C2555 C 0.71129 0.31043 0.74864 0.0
C2556 C 0.72194 0.32949 0.76816 0.0
C2557 C 0.74066 0.32731 0.78411 0.0
C2558 C 0.70964 0.26883 0.72473 0.0
C2559 C 0.71354 0.35229 0.77224 0.0
H2560 H 0.67543 0.33162 0.6754 0.0
H2561 H 0.63649 0.30148 0.72584 0.0
H2562 H 0.72284 0.34721 0.71435 0.0
H2563 H 0.72398 0.31695 0.70296 0.0
H2564 H 0.7125 0.33486 0.68173 0.0
H2565 H 0.6512 0.28981 0.76348 0.0
H2566 H 0.67513 0.27834 0.76108 0.0
H2567 H 0.67714 0.30768 0.77795 0.0
H2568 H 0.74541 0.27173 0.75911 0.0
H2569 H 0.74854 0.34196 0.79905 0.0
H2570 H 0.70932 0.275 0.7061 0.0
H2571 H 0.69281 0.26224 0.72672 0.0
H2572 H 0.71811 0.25363 0.72493 0.0
H2573 H 0.71306 0.36086 0.75496 0.0
H2574 H 0.7235 0.36542 0.78829 0.0
H2575 H 0.69693 0.34807 0.7759 0.0
C2576 C 0.02474 0.33883 1.00123 0.0
C2577 C 0.02428 0.33347 0.97518 0.0
C2578 C 0.02667 0.36268 0.01311 0.0
C2579 C 0.02804 0.38178 0.99865 0.0
C2580 C 0.027 0.37634 0.97223 0.0
C2581 C 0.02521 0.35239 0.96089 0.0
C2582 C 0.02778 0.36752 0.04127 0.0
C2583 C 0.02824 0.39594 0.95594 0.0
C2584 C 1.01755 0.44306 0.02485 0.0
C2585 C 0.03836 0.45705 0.03235 0.0
C2586 C 1.01393 0.41855 0.01426 0.0
C2587 C 0.03151 0.40752 0.01115 0.0
C2588 C 0.05253 0.4214 0.01924 0.0
C2589 C 0.05568 0.44584 0.0296 0.0
C2590 C 0.99125 0.40459 1.00586 0.0
C2591 C 0.0718 0.41052 0.01654 0.0
H2592 H 0.02407 0.32442 0.0125 0.0
H2593 H 0.02481 0.34852 0.94076 0.0
H2594 H 0.04355 0.3789 0.05027 0.0
H2595 H 1.01539 0.3776 0.0458 0.0
H2596 H 0.02552 0.35071 0.04972 0.0
H2597 H 0.02612 0.38872 0.93558 0.0
H2598 H 1.01578 0.40651 0.95872 0.0
H2599 H 0.04398 0.40851 0.96157 0.0
H2600 H 1.00399 0.45138 0.02672 0.0
H2601 H 0.07186 0.45626 0.03535 0.0
H2602 H 0.98879 0.38819 0.01491 0.0
H2603 H 0.98821 0.39865 0.98518 0.0
H2604 H 0.97933 0.41538 0.01047 0.0
H2605 H 0.07106 0.39434 0.02599 0.0
H2606 H 0.08708 0.42334 0.02471 0.0
H2607 H 0.07184 0.40466 0.9963 0.0
C2608 C 1.0108 0.79522 0.18171 0.0
C2609 C 0.03075 0.79455 0.19578 0.0
C2610 C 0.99206 0.79268 0.19249 0.0
C2611 C 0.99309 0.78948 0.21813 0.0
C2612 C 1.01316 0.78861 0.23238 0.0
C2613 C 0.03164 0.7911 0.22108 0.0
C2614 C 0.97114 0.79362 0.17643 0.0
C2615 C 1.01518 0.7853 0.25973 0.0
C2616 C 0.94887 0.80559 0.25308 0.0
C2617 C 0.93594 0.78297 0.25315 0.0
C2618 C 0.96735 0.80795 0.2418 0.0
C2619 C 0.97325 0.78724 0.23006 0.0
C2620 C 0.96016 0.76439 0.22981 0.0
C2621 C 0.94182 0.76254 0.24132 0.0
C2622 C 0.98073 0.83268 0.24273 0.0
C2623 C 0.96555 0.7418 0.21737 0.0
H2624 H 1.0098 0.79789 0.16218 0.0
H2625 H 0.04689 0.79061 0.23223 0.0
H2626 H 0.95918 0.77695 0.17615 0.0
H2627 H 0.9647 0.80888 0.18464 0.0
H2628 H 0.97284 0.79571 0.15671 0.0
H2629 H 0.03179 0.78479 0.26823 0.0
H2630 H 1.01006 0.8002 0.27069 0.0
H2631 H 1.00446 0.76834 0.26158 0.0
H2632 H 0.94483 0.82154 0.26239 0.0
H2633 H 0.93193 0.74498 0.24084 0.0
H2634 H 0.98208 0.83625 0.22334 0.0
H2635 H 0.99716 0.8337 0.25292 0.0
H2636 H 0.97392 0.84704 0.25223 0.0
H2637 H 0.9662 0.74292 0.19723 0.0
H2638 H 0.95373 0.72541 0.21852 0.0
H2639 H 0.9816 0.73993 0.22644 0.0
C2640 C 0.5805 0.34403 0.18883 0.0
C2641 C 0.57709 0.3389 0.21261 0.0
C2642 C 0.58165 0.3672 0.18297 0.0
C2643 C 0.57939 0.38581 0.20147 0.0
C2644 C 0.57778 0.38123 0.22623 0.0
C2645 C 0.57653 0.35764 0.23153 0.0
C2646 C 0.58374 0.37124 0.15634 0.0
C2647 C 0.57607 0.40067 0.24675 0.0
C2648 C 0.59031 0.44034 0.17096 0.0
C2649 C 0.57001 0.43833 0.15649 0.0
C2650 C 0.59335 0.42573 0.18955 0.0
C2651 C 0.57574 0.40861 0.19313 0.0
C2652 C 0.55482 0.40944 0.18154 0.0
C2653 C 0.55219 0.42432 0.16321 0.0
C2654 C 0.61572 0.42641 0.20283 0.0
C2655 C 0.53549 0.39205 0.18558 0.0
H2656 H 0.58134 0.32969 0.17429 0.0
H2657 H 0.57415 0.35375 0.25007 0.0
H2658 H 0.56907 0.37631 0.14706 0.0
H2659 H 0.59742 0.38616 0.15655 0.0
H2660 H 0.58621 0.355 0.14465 0.0
H2661 H 0.58339 0.39733 0.26551 0.0
H2662 H 0.58386 0.41877 0.24368 0.0
H2663 H 0.55894 0.40058 0.24712 0.0
H2664 H 0.60403 0.45195 0.16645 0.0
H2665 H 0.5364 0.42302 0.15237 0.0
H2666 H 0.6226 0.41274 0.19233 0.0
H2667 H 0.61569 0.42218 0.22225 0.0
H2668 H 0.62624 0.44428 0.20372 0.0
H2669 H 0.53504 0.37399 0.17516 0.0
H2670 H 0.52036 0.39766 0.17873 0.0
H2671 H 0.53636 0.39044 0.20583 0.0
C2672 C 0.9661 0.33439 0.4242 0.0
C2673 C 0.98333 0.33508 0.41112 0.0
C2674 C 0.94504 0.33099 0.41131 0.0
C2675 C 0.94108 0.32844 0.38468 0.0
C2676 C 0.95842 0.33034 0.3714 0.0
C2677 C 0.97935 0.33356 0.38477 0.0
C2678 C 0.92695 0.32902 0.42613 0.0
C2679 C 0.95481 0.32808 0.34301 0.0
C2680 C 0.8869 0.29277 0.35027 0.0
C2681 C 0.87597 0.31108 0.34506 0.0
C2682 C 0.90812 0.2982 0.36313 0.0
C2683 C 0.91872 0.32253 0.37072 0.0
C2684 C 0.90782 0.3411 0.36541 0.0
C2685 C 0.88654 0.33515 0.35278 0.0
C2686 C 0.91915 0.27789 0.36873 0.0
C2687 C 0.91869 0.36723 0.37297 0.0
H2688 H 0.96892 0.33559 0.44455 0.0
H2689 H 0.99251 0.33418 0.37446 0.0
H2690 H 0.91657 0.34174 0.42109 0.0
H2691 H 0.91686 0.31065 0.42131 0.0
H2692 H 0.93279 0.33276 0.44682 0.0
H2693 H 0.97004 0.33197 0.33569 0.0
H2694 H 0.94622 0.30957 0.33459 0.0
H2695 H 0.94462 0.34053 0.33654 0.0
H2696 H 0.87885 0.27413 0.34442 0.0
H2697 H 0.87828 0.34944 0.34868 0.0
H2698 H 0.9243 0.27926 0.38938 0.0
H2699 H 0.93373 0.27919 0.36007 0.0
H2700 H 0.90866 0.25996 0.36155 0.0
H2701 H 0.92374 0.37138 0.39374 0.0
H2702 H 0.90812 0.37951 0.36695 0.0
H2703 H 0.93333 0.37097 0.36454 0.0
C2704 C 0.03324 0.68093 0.64155 0.0
C2705 C 0.03153 0.70214 0.63173 0.0
C2706 C 0.03002 0.65898 0.62541 0.0
C2707 C 0.02484 0.65839 0.59899 0.0
C2708 C 0.02066 0.6792 0.58934 0.0
C2709 C 0.02412 0.70087 0.60584 0.0
C2710 C 0.03422 0.637 0.63645 0.0
C2711 C 1.01458 0.67917 0.56138 0.0
C2712 C 0.05059 0.61588 0.56061 0.0
C2713 C 0.03373 0.59611 0.55249 0.0
C2714 C 0.04763 0.63662 0.57502 0.0
C2715 C 0.02729 0.63741 0.5815 0.0
C2716 C 1.00989 0.61787 0.57216 0.0
C2717 C 1.01336 0.59732 0.55776 0.0
C2718 C 0.06659 0.65715 0.58443 0.0
C2719 C 0.98801 0.61797 0.57865 0.0
H2720 H 0.03893 0.68181 0.66154 0.0
H2721 H 0.02244 0.7172 0.59821 0.0
H2722 H 0.02164 0.621 0.62773 0.0
H2723 H 0.04972 0.63325 0.6324 0.0
H2724 H 0.03494 0.63943 0.65721 0.0
H2725 H 1.00841 0.69542 0.55731 0.0
H2726 H 0.02885 0.67872 0.55237 0.0
H2727 H 1.00226 0.66297 0.55255 0.0
H2728 H 0.06633 0.61472 0.55662 0.0
H2729 H 1.00048 0.58164 0.55198 0.0
H2730 H 0.07043 0.65958 0.60532 0.0
H2731 H 0.06271 0.67414 0.57909 0.0
H2732 H 0.08104 0.65407 0.57679 0.0
H2733 H 0.9882 0.61512 0.59853 0.0
H2734 H 0.97555 0.60353 0.56643 0.0
H2735 H 0.9835 0.63554 0.57686 0.0
C2736 C 0.57801 0.808 0.82883 0.0
C2737 C 0.58152 0.80944 0.85515 0.0
C2738 C 0.59354 0.80234 0.81483 0.0
C2739 C 0.61275 0.79748 0.82744 0.0
C2740 C 0.61637 0.79908 0.85402 0.0
C2741 C 0.60082 0.80525 0.86754 0.0
C2742 C 0.58947 0.80159 0.78661 0.0
C2743 C 0.63654 0.79383 0.8682 0.0
C2744 C 0.64465 0.75766 0.79527 0.0
C2745 C 0.66331 0.77423 0.79415 0.0
C2746 C 0.6276 0.76511 0.80499 0.0
C2747 C 0.62889 0.78985 0.81307 0.0
C2748 C 0.64683 0.80686 0.80999 0.0
C2749 C 0.66395 0.79884 0.80093 0.0
C2750 C 0.60885 0.74633 0.80813 0.0
C2751 C 0.64871 0.83348 0.81772 0.0
H2752 H 0.56318 0.81143 0.8192 0.0
H2753 H 0.60361 0.80626 0.88787 0.0
H2754 H 0.60274 0.81385 0.78096 0.0
H2755 H 0.58903 0.78321 0.77705 0.0
H2756 H 0.57417 0.80685 0.77978 0.0
H2757 H 0.63678 0.79558 0.88885 0.0
H2758 H 0.63812 0.77531 0.86127 0.0
H2759 H 0.65072 0.80634 0.86476 0.0
H2760 H 0.64365 0.73866 0.78938 0.0
H2761 H 0.67825 0.8119 0.80038 0.0
H2762 H 0.59358 0.75084 0.79995 0.0
H2763 H 0.60877 0.74598 0.82851 0.0
H2764 H 0.60946 0.72806 0.79909 0.0
H2765 H 0.63292 0.83863 0.81447 0.0
H2766 H 0.65954 0.8441 0.8072 0.0
H2767 H 0.65548 0.83839 0.83812 0.0
C2768 C 0.46203 0.51335 0.70077 0.0
C2769 C 0.47597 0.50639 0.71963 0.0
C2770 C 0.46866 0.51914 0.67823 0.0
C2771 C 0.48983 0.51837 0.67462 0.0
C2772 C 0.50387 0.51123 0.69353 0.0
C2773 C 0.49675 0.50521 0.71559 0.0
C2774 C 0.4531 0.52626 0.65835 0.0
C2775 C 0.52666 0.51045 0.69077 0.0
C2776 C 0.50937 0.51563 0.61165 0.0
C2777 C 0.52039 0.53937 0.61293 0.0
C2778 C 0.49804 0.5088 0.63076 0.0
C2779 C 0.49794 0.52605 0.65181 0.0
C2780 C 0.50802 0.55032 0.65239 0.0
C2781 C 0.51895 0.55669 0.63288 0.0
C2782 C 0.4872 0.48284 0.6291 0.0
C2783 C 0.50858 0.5693 0.67449 0.0
H2784 H 0.44593 0.51424 0.70358 0.0
H2785 H 0.50778 0.50001 0.72997 0.0
H2786 H 0.45891 0.54516 0.65592 0.0
H2787 H 0.45198 0.51491 0.63993 0.0
H2788 H 0.43686 0.52454 0.66324 0.0
H2789 H 0.53551 0.5043 0.70709 0.0
H2790 H 0.52689 0.49818 0.6734 0.0
H2791 H 0.53531 0.52859 0.68889 0.0
H2792 H 0.5103 0.50217 0.59621 0.0
H2793 H 0.5273 0.57511 0.63395 0.0
H2794 H 0.47096 0.48151 0.63388 0.0
H2795 H 0.49652 0.47428 0.64294 0.0
H2796 H 0.48586 0.47255 0.61002 0.0
H2797 H 0.4923 0.56884 0.67884 0.0
H2798 H 0.51522 0.58767 0.67099 0.0
H2799 H 0.51862 0.56562 0.69145 0.0
C2800 C 0.83141 0.14831 0.01011 0.0
C2801 C 0.85157 0.16325 0.0188 0.0
C2802 C 0.81782 0.15287 0.98933 0.0
C2803 C 0.82495 0.17249 0.97705 0.0
C2804 C 0.84641 0.18542 0.98384 0.0
C2805 C 0.85937 0.18085 1.00495 0.0
C2806 C 0.79524 0.13837 0.98256 0.0
C2807 C 0.85494 0.20605 0.97076 0.0
C2808 C 0.7999 0.19508 0.92033 0.0
C2809 C 0.79462 0.21583 0.93217 0.0
C2810 C 0.80733 0.1785 0.93455 0.0
C2811 C 0.80955 0.183 0.96107 0.0
C2812 C 0.80126 0.20194 0.97262 0.0
C2813 C 0.79393 0.21824 0.95799 0.0
C2814 C 0.81497 0.15781 0.92142 0.0
C2815 C 0.80255 0.20677 1.00085 0.0
H2816 H 0.82538 0.13477 0.02105 0.0
H2817 H 0.87504 0.19229 0.01182 0.0
H2818 H 0.78507 0.14658 0.99437 0.0
H2819 H 0.78837 0.13786 0.96246 0.0
H2820 H 0.79461 0.11967 0.98643 0.0
H2821 H 0.87256 0.21218 0.97626 0.0
H2822 H 0.851 0.20078 0.95 0.0
H2823 H 0.84737 0.22145 0.97576 0.0
H2824 H 0.79975 0.19273 0.90017 0.0
H2825 H 0.78963 0.23408 0.96721 0.0
H2826 H 0.81223 0.14184 0.93112 0.0
H2827 H 0.83241 0.16315 0.92168 0.0
H2828 H 0.80683 0.15279 0.90143 0.0
H2829 H 0.79679 0.18992 1.0081 0.0
H2830 H 0.79297 0.22012 1.00644 0.0
H2831 H 0.81946 0.21381 0.01008 0.0
C2832 C 0.14439 0.53821 0.23551 0.0
C2833 C 0.14585 0.51674 0.24554 0.0
C2834 C 0.13262 0.53868 0.21113 0.0
C2835 C 0.12132 0.51709 0.19521 0.0
C2836 C 0.12342 0.49517 0.20466 0.0
C2837 C 0.13528 0.49524 0.2294 0.0
C2838 C 0.13124 0.56271 0.20308 0.0
C2839 C 0.11218 0.47144 0.18905 0.0
C2840 C 0.06964 0.5205 0.14887 0.0
C2841 C 0.07591 0.52175 0.12508 0.0
C2842 C 0.0839 0.51876 0.17105 0.0
C2843 C 0.10568 0.51782 0.17045 0.0
C2844 C 0.11223 0.51878 0.1464 0.0
C2845 C 0.09754 0.52087 0.12435 0.0
C2846 C 0.07551 0.51825 0.19551 0.0
C2847 C 0.1349 0.51755 0.1439 0.0
H2848 H 0.15168 0.55514 0.24756 0.0
H2849 H 0.13523 0.4784 0.23659 0.0
H2850 H 0.13494 0.56309 0.18381 0.0
H2851 H 0.11468 0.56563 0.2025 0.0
H2852 H 0.14234 0.5778 0.21611 0.0
H2853 H 0.11768 0.45608 0.19672 0.0
H2854 H 0.09471 0.46911 0.18869 0.0
H2855 H 0.11485 0.47101 0.16929 0.0
H2856 H 0.05322 0.52113 0.15034 0.0
H2857 H 0.10303 0.52168 0.10652 0.0
H2858 H 0.08464 0.53377 0.20962 0.0
H2859 H 0.0778 0.50169 0.20327 0.0
H2860 H 0.05827 0.51891 0.1932 0.0
H2861 H 0.14608 0.53314 0.15603 0.0
H2862 H 0.13759 0.51749 0.12415 0.0
H2863 H 0.13888 0.50107 0.15054 0.0
C2864 C 0.82258 0.89037 0.48788 0.0
C2865 C 0.82476 0.87891 0.50926 0.0
C2866 C 0.82064 0.87757 0.4635 0.0
C2867 C 0.82074 0.85265 0.46035 0.0
C2868 C 0.82321 0.84108 0.48192 0.0
C2869 C 0.82525 0.85434 0.50605 0.0
C2870 C 0.81823 0.89066 0.44106 0.0
C2871 C 0.82336 0.81458 0.47949 0.0
C2872 C 0.79502 0.81487 0.3965 0.0
C2873 C 0.81288 0.8126 0.38522 0.0
C2874 C 0.79735 0.82765 0.42094 0.0
C2875 C 0.81805 0.83861 0.43451 0.0
C2876 C 0.83615 0.83617 0.42336 0.0
C2877 C 0.83336 0.82317 0.39895 0.0
C2878 C 0.77762 0.82961 0.43217 0.0
C2879 C 0.85848 0.84761 0.43707 0.0
H2880 H 0.8222 0.90933 0.49016 0.0
H2881 H 0.82689 0.84529 0.52243 0.0
H2882 H 0.83099 0.8885 0.4299 0.0
H2883 H 0.80269 0.88276 0.42852 0.0
H2884 H 0.81903 0.91015 0.44668 0.0
H2885 H 0.82572 0.80833 0.49809 0.0
H2886 H 0.80802 0.80408 0.46817 0.0
H2887 H 0.83629 0.81059 0.46936 0.0
H2888 H 0.77911 0.80681 0.38615 0.0
H2889 H 0.8473 0.82171 0.39047 0.0
H2890 H 0.77661 0.84877 0.43635 0.0
H2891 H 0.7786 0.82238 0.45027 0.0
H2892 H 0.7627 0.81974 0.41939 0.0
H2893 H 0.86008 0.86735 0.44139 0.0
H2894 H 0.87091 0.84388 0.42593 0.0
H2895 H 0.8616 0.8409 0.45532 0.0
C2896 C 0.49103 0.50721 0.85483 0.0
C2897 C 0.46942 0.50879 0.85028 0.0
C2898 C 0.50243 0.50987 0.87954 0.0
C2899 C 0.49198 0.51412 0.90029 0.0
C2900 C 0.47005 0.51529 0.89582 0.0
C2901 C 0.45905 0.51263 0.8709 0.0
C2902 C 0.5258 0.50863 0.88345 0.0
C2903 C 0.45828 0.51968 0.91739 0.0
C2904 C 0.51617 0.50087 0.96428 0.0
C2905 C 0.52627 0.52392 0.97698 0.0
C2906 C 0.50503 0.49744 0.93936 0.0
C2907 C 0.50404 0.5175 0.92666 0.0
C2908 C 0.51452 0.54078 0.93922 0.0
C2909 C 0.5254 0.5437 0.96421 0.0
C2910 C 0.49407 0.47234 0.92673 0.0
C2911 C 0.51397 0.56269 0.92643 0.0
H2912 H 0.49921 0.50431 0.83904 0.0
H2913 H 0.44237 0.51392 0.86758 0.0
H2914 H 0.53556 0.52592 0.89401 0.0
H2915 H 0.52862 0.49441 0.89495 0.0
H2916 H 0.53152 0.50483 0.86536 0.0
H2917 H 0.4411 0.51938 0.91078 0.0
H2918 H 0.4595 0.50584 0.92987 0.0
H2919 H 0.46574 0.5374 0.92894 0.0
H2920 H 0.51662 0.48545 0.97396 0.0
H2921 H 0.53322 0.56156 0.97376 0.0
H2922 H 0.50021 0.46776 0.90913 0.0
H2923 H 0.47665 0.47139 0.92137 0.0
H2924 H 0.49649 0.45861 0.93907 0.0
H2925 H 0.51817 0.55963 0.90738 0.0
H2926 H 0.52512 0.57895 0.93744 0.0
H2927 H 0.49754 0.56624 0.92401 0.0
C2928 C 0.86795 0.25491 0.14338 0.0
C2929 C 0.8627 0.22978 0.14021 0.0
C2930 C 0.86458 0.26873 0.16499 0.0
C2931 C 0.85502 0.25702 0.18321 0.0
C2932 C 0.85061 0.23163 0.18063 0.0
C2933 C 0.85486 0.2183 0.15929 0.0
C2934 C 0.87034 0.29579 0.16774 0.0
C2935 C 0.84001 0.21851 0.19944 0.0
C2936 C 0.85326 0.2886 0.24795 0.0
C2937 C 0.83311 0.2946 0.24398 0.0
C2938 C 0.86111 0.27742 0.22799 0.0
C2939 C 0.848 0.27115 0.20391 0.0
C2940 C 0.82761 0.27727 0.19986 0.0
C2941 C 0.82058 0.28945 0.21995 0.0
C2942 C 0.88323 0.27199 0.23279 0.0
C2943 C 0.81288 0.27009 0.17462 0.0
H2944 H 0.87411 0.26375 0.12863 0.0
H2945 H 0.85056 0.19884 0.15668 0.0
H2946 H 0.87905 0.30351 0.18707 0.0
H2947 H 0.8804 0.30194 0.15393 0.0
H2948 H 0.85556 0.30306 0.16477 0.0
H2949 H 0.83854 0.19874 0.19525 0.0
H2950 H 0.84916 0.22491 0.21878 0.0
H2951 H 0.82377 0.22232 0.19929 0.0
H2952 H 0.86291 0.29278 0.26668 0.0
H2953 H 0.8049 0.29397 0.21718 0.0
H2954 H 0.8924 0.27805 0.21818 0.0
H2955 H 0.88206 0.25233 0.23164 0.0
H2956 H 0.89233 0.28081 0.25166 0.0
H2957 H 0.82072 0.27788 0.15979 0.0
H2958 H 0.79749 0.27607 0.17471 0.0
H2959 H 0.80944 0.25025 0.16935 0.0
C2960 C 0.15881 0.51437 0.40951 0.0
C2961 C 0.15265 0.52177 0.38595 0.0
C2962 C 0.14729 0.51687 0.43027 0.0
C2963 C 0.12905 0.52795 0.4288 0.0
C2964 C 0.12311 0.53595 0.40524 0.0
C2965 C 0.13443 0.53244 0.38451 0.0
C2966 C 0.15459 0.50714 0.4539 0.0
C2967 C 0.10462 0.54856 0.40182 0.0
C2968 C 0.08528 0.51678 0.47286 0.0
C2969 C 0.09135 0.53618 0.49317 0.0
C2970 C 0.0973 0.51372 0.45274 0.0
C2971 C 0.11613 0.53078 0.45131 0.0
C2972 C 0.12219 0.55064 0.47157 0.0
C2973 C 0.11025 0.55282 0.49198 0.0
C2974 C 0.0899 0.49164 0.43302 0.0
C2975 C 0.14143 0.57002 0.47168 0.0
H2976 H 0.17251 0.50592 0.41164 0.0
H2977 H 0.12902 0.53847 0.36696 0.0
H2978 H 0.16076 0.52218 0.46971 0.0
H2979 H 0.1409 0.49522 0.45919 0.0
H2980 H 0.16739 0.49691 0.4517 0.0
H2981 H 0.10311 0.55605 0.38385 0.0
H2982 H 0.08951 0.53579 0.40195 0.0
H2983 H 0.10658 0.5634 0.41771 0.0
H2984 H 0.07101 0.50346 0.47279 0.0
H2985 H 0.11567 0.56803 0.50695 0.0
H2986 H 0.10289 0.48142 0.43256 0.0
H2987 H 0.08623 0.4969 0.41411 0.0
H2988 H 0.07545 0.47963 0.43659 0.0
H2989 H 0.15615 0.56266 0.47498 0.0
H2990 H 0.14287 0.58566 0.48654 0.0
H2991 H 0.14056 0.57632 0.45307 0.0
C2992 C 0.81305 0.87375 0.65045 0.0
C2993 C 0.8326 0.8741 0.64205 0.0
C2994 C 0.80836 0.86215 0.67117 0.0
C2995 C 0.82369 0.85096 0.68413 0.0
C2996 C 0.84393 0.85266 0.67662 0.0
C2997 C 0.848 0.86389 0.65565 0.0
C2998 C 0.78651 0.86065 0.67823 0.0
C2999 C 0.86102 0.8416 0.69002 0.0
C3000 C 0.81714 0.83156 0.74841 0.0
C3001 C 0.80909 0.80669 0.74186 0.0
C3002 C 0.82188 0.84619 0.72996 0.0
C3003 C 0.81819 0.8359 0.70415 0.0
C3004 C 0.80997 0.8108 0.69748 0.0
C3005 C 0.8057 0.79656 0.71633 0.0
C3006 C 0.83093 0.87269 0.73813 0.0
C3007 C 0.80559 0.79892 0.67031 0.0
H3008 H 0.80093 0.88123 0.63988 0.0
H3009 H 0.86316 0.86404 0.64933 0.0
H3010 H 0.77756 0.84173 0.67376 0.0
H3011 H 0.78793 0.8663 0.6988 0.0
H3012 H 0.77709 0.87198 0.66799 0.0
H3013 H 0.87659 0.84664 0.68371 0.0
H3014 H 0.86334 0.84727 0.7107 0.0
H3015 H 0.85594 0.82173 0.68637 0.0
H3016 H 0.81968 0.83965 0.76801 0.0
H3017 H 0.79938 0.77743 0.71097 0.0
H3018 H 0.82031 0.8833 0.72864 0.0
H3019 H 0.84674 0.87753 0.73236 0.0
H3020 H 0.83288 0.87801 0.75885 0.0
H3021 H 0.79462 0.80779 0.65878 0.0
H3022 H 0.79837 0.77945 0.66805 0.0
H3023 H 0.8207 0.80099 0.66267 0.0
C3024 C 0.74094 0.48395 0.52795 0.0
C3025 C 0.72607 0.46359 0.51491 0.0
C3026 C 0.73422 0.50445 0.5378 0.0
C3027 C 0.71214 0.50455 0.53438 0.0
C3028 C 0.69714 0.48458 0.51997 0.0
C3029 C 0.7043 0.46423 0.51047 0.0
C3030 C 0.75064 0.5254 0.55309 0.0
C3031 C 0.67344 0.48423 0.51567 0.0
C3032 C 0.68823 0.53778 0.58338 0.0
C3033 C 0.6826 0.55651 0.57117 0.0
C3034 C 0.69908 0.52158 0.57222 0.0
C3035 C 0.70439 0.52414 0.54821 0.0
C3036 C 0.70034 0.54406 0.53667 0.0
C3037 C 0.68946 0.56009 0.54832 0.0
C3038 C 0.70331 0.50062 0.58523 0.0
C3039 C 0.70617 0.54752 0.51127 0.0
H3040 H 0.75783 0.4836 0.53131 0.0
H3041 H 0.6928 0.44862 0.50017 0.0
H3042 H 0.7476 0.54263 0.54754 0.0
H3043 H 0.74947 0.52603 0.57334 0.0
H3044 H 0.7672 0.52397 0.5509 0.0
H3045 H 0.66413 0.46828 0.50221 0.0
H3046 H 0.66757 0.48401 0.53385 0.0
H3047 H 0.67024 0.50069 0.50831 0.0
H3048 H 0.68274 0.53457 0.60082 0.0
H3049 H 0.68536 0.5747 0.53893 0.0
H3050 H 0.72009 0.49862 0.58556 0.0
H3051 H 0.69278 0.48377 0.57464 0.0
H3052 H 0.70027 0.50265 0.60492 0.0
H3053 H 0.72277 0.54521 0.51072 0.0
H3054 H 0.70471 0.56555 0.50656 0.0
H3055 H 0.69543 0.53366 0.49651 0.0
C3056 C 0.20592 0.11473 0.52779 0.0
C3057 C 0.20493 0.13561 0.51686 0.0
C3058 C 0.18714 0.09891 0.53071 0.0
C3059 C 0.16669 0.10376 0.52227 0.0
C3060 C 0.1656 0.12446 0.51062 0.0
C3061 C 0.18457 0.14007 0.5082 0.0
C3062 C 0.18922 0.07723 0.54339 0.0
C3063 C 0.14431 0.13034 0.50095 0.0
C3064 C 0.11715 0.05242 0.51034 0.0
C3065 C 0.10794 0.05672 0.53187 0.0
C3066 C 0.1361 0.06751 0.50696 0.0
C3067 C 0.14645 0.08739 0.5257 0.0
C3068 C 0.13717 0.09182 0.5475 0.0
C3069 C 0.11806 0.07656 0.55025 0.0
C3070 C 0.14504 0.06215 0.48325 0.0
C3071 C 0.14755 0.11263 0.56807 0.0
H3072 H 0.22142 0.11107 0.53478 0.0
H3073 H 0.18341 0.15603 0.49966 0.0
H3074 H 0.18202 0.07832 0.56071 0.0
H3075 H 0.1803 0.06061 0.53075 0.0
H3076 H 0.20614 0.07567 0.5486 0.0
H3077 H 0.14607 0.14662 0.49159 0.0
H3078 H 0.13428 0.115 0.48728 0.0
H3079 H 0.13559 0.13332 0.51678 0.0
H3080 H 0.10949 0.03717 0.496 0.0
H3081 H 0.1112 0.07998 0.56704 0.0
H3082 H 0.16147 0.05895 0.48814 0.0
H3083 H 0.14616 0.07785 0.47304 0.0
H3084 H 0.13508 0.04618 0.47036 0.0
H3085 H 0.16415 0.11111 0.57537 0.0
H3086 H 0.13864 0.11346 0.58404 0.0
H3087 H 0.14852 0.12978 0.56036 0.0
C3088 C 0.16803 0.97961 0.81752 0.0
C3089 C 0.1792 1.00238 0.81499 0.0
C3090 C 0.17712 0.95921 0.81383 0.0
C3091 C 0.19784 0.96174 0.80756 0.0
C3092 C 0.20888 0.98459 0.80432 0.0
C3093 C 0.19943 1.00456 0.80803 0.0
C3094 C 0.16482 0.9351 0.81727 0.0
C3095 C 0.23099 0.9881 0.79761 0.0
C3096 C 0.23513 0.9197 0.82331 0.0
C3097 C 0.23493 0.90711 0.79941 0.0
C3098 C 0.22216 0.93658 0.82649 0.0
C3099 C 0.20859 0.94091 0.80527 0.0
C3100 C 0.20732 0.92718 0.78138 0.0
C3101 C 0.22055 0.91047 0.77872 0.0
C3102 C 0.22392 0.95071 0.85234 0.0
C3103 C 0.19292 0.93111 0.75833 0.0
H3104 H 0.1524 0.9778 0.8229 0.0
H3105 H 0.20816 0.02206 0.80595 0.0
H3106 H 0.16385 0.92157 0.80046 0.0
H3107 H 0.17333 0.92878 0.83367 0.0
H3108 H 0.14835 0.93583 0.82043 0.0
H3109 H 0.23713 1.0069 0.79501 0.0
H3110 H 0.2423 0.98333 0.81274 0.0
H3111 H 0.23086 0.97601 0.77998 0.0
H3112 H 0.24584 0.91676 0.83949 0.0
H3113 H 0.22033 0.90086 0.76018 0.0
H3114 H 0.20781 0.95072 0.85706 0.0
H3115 H 0.23174 0.96968 0.85248 0.0
H3116 H 0.2334 0.94342 0.86726 0.0
H3117 H 0.17666 0.93156 0.76237 0.0
H3118 H 0.19161 0.9169 0.74198 0.0
H3119 H 0.19937 0.94874 0.75298 0.0
C3120 C 0.32468 0.91988 0.9572 0.0
C3121 C 0.30818 0.92526 0.96953 0.0
C3122 C 0.34336 0.93723 0.95846 0.0
C3123 C 0.34549 0.9604 0.97232 0.0
C3124 C 0.32815 0.96652 0.98288 0.0
C3125 C 0.30969 0.94888 0.98133 0.0
C3126 C 0.36145 0.93018 0.94661 0.0
C3127 C 0.32972 0.9911 0.9976 0.0
C3128 C 0.40152 0.98911 1.00617 0.0
C3129 C 0.40835 1.00548 0.99037 0.0
C3130 C 0.38089 0.97485 1.00078 0.0
C3131 C 0.36673 0.97686 0.97894 0.0
C3132 C 0.37315 0.99399 0.96342 0.0
C3133 C 0.39391 1.00818 0.96937 0.0
C3134 C 0.37454 0.95694 0.01797 0.0
C3135 C 0.3584 0.99669 0.94008 0.0
H3136 H 0.32353 0.90178 0.94774 0.0
H3137 H 0.29684 0.95339 0.99049 0.0
H3138 H 0.36819 0.94427 0.93603 0.0
H3139 H 0.37447 0.92839 0.96164 0.0
H3140 H 0.35624 0.91283 0.93361 0.0
H3141 H 0.31386 0.99417 1.00112 0.0
H3142 H 0.34035 0.99287 0.01607 0.0
H3143 H 0.33683 1.00541 0.9875 0.0
H3144 H 0.41265 0.98655 0.02215 0.0
H3145 H 0.39902 0.02097 0.95723 0.0
H3146 H 0.37139 0.93841 1.00749 0.0
H3147 H 0.35956 0.95967 0.02447 0.0
H3148 H 0.3871 0.9584 0.03478 0.0
H3149 H 0.35556 0.98017 0.92602 0.0
H3150 H 0.3651 1.01228 0.93131 0.0
H3151 H 0.34263 0.99889 0.94463 0.0
C3152 C 0.8728 0.61672 0.80129 0.0
C3153 C 0.8939 0.6187 0.79601 0.0
C3154 C 0.86151 0.63641 0.8023 0.0
C3155 C 0.87033 0.65965 0.79644 0.0
C3156 C 0.89148 0.66142 0.79037 0.0
C3157 C 0.90286 0.64181 0.79099 0.0
C3158 C 0.83995 0.63175 0.81024 0.0
C3159 C 0.90259 0.68402 0.78254 0.0
C3160 C 0.82686 0.70041 0.78043 0.0
C3161 C 0.83409 0.72234 0.79743 0.0
C3162 C 0.83837 0.68089 0.77939 0.0
C3163 C 0.8578 0.68149 0.79669 0.0
C3164 C 0.8649 0.70357 0.81423 0.0
C3165 C 0.85361 0.72325 0.81392 0.0
C3166 C 0.82931 0.65966 0.75895 0.0
C3167 C 0.88457 0.70699 0.83415 0.0
H3168 H 0.86504 0.59959 0.80551 0.0
H3169 H 0.9189 0.64457 0.78669 0.0
H3170 H 0.83503 0.64851 0.81731 0.0
H3171 H 0.82782 0.62181 0.7939 0.0
H3172 H 0.84 0.62018 0.82525 0.0
H3173 H 0.91143 0.67946 0.76718 0.0
H3174 H 0.89143 0.69542 0.77591 0.0
H3175 H 0.91453 0.69452 0.79877 0.0
H3176 H 0.81213 0.69853 0.76718 0.0
H3177 H 0.86004 0.73945 0.82745 0.0
H3178 H 0.81582 0.64796 0.76481 0.0
H3179 H 0.84133 0.6489 0.75478 0.0
H3180 H 0.82276 0.66573 0.74127 0.0
H3181 H 0.88895 0.68976 0.83789 0.0
H3182 H 0.88217 0.71676 0.85212 0.0
H3183 H 0.89815 0.71828 0.828 0.0
C3184 C 0.84651 0.64998 0.03583 0.0
C3185 C 0.82642 0.63687 0.03808 0.0
C3186 C 0.86487 0.6398 0.03834 0.0
C3187 C 0.8633 0.61583 0.04325 0.0
C3188 C 0.84311 0.6026 0.04582 0.0
C3189 C 0.82499 0.61322 0.04319 0.0
C3190 C 0.88597 0.65465 0.03545 0.0
C3191 C 0.84057 0.57706 0.05113 0.0
C3192 C 0.90576 0.58076 0.02644 0.0
C3193 C 0.91899 0.58241 0.0499 0.0
C3194 C 0.8878 0.59165 0.02399 0.0
C3195 C 0.88269 0.60453 0.0455 0.0
C3196 C 0.89604 0.60639 0.06921 0.0
C3197 C 0.91395 0.59541 0.0711 0.0
C3198 C 0.87422 0.5893 0.99829 0.0
C3199 C 0.89126 0.61976 0.09271 0.0
H3200 H 0.84787 0.66823 0.03183 0.0
H3201 H 0.80962 0.60285 0.04494 0.0
H3202 H 0.89803 0.65601 0.05269 0.0
H3203 H 0.89204 0.64574 0.01951 0.0
H3204 H 0.88467 0.67308 0.03197 0.0
H3205 H 0.82394 0.5693 0.05307 0.0
H3206 H 0.84508 0.56563 0.03564 0.0
H3207 H 0.85148 0.57636 0.06874 0.0
H3208 H 0.90954 0.57108 1.00984 0.0
H3209 H 0.92376 0.59658 0.08941 0.0
H3210 H 0.87356 0.60738 0.99327 0.0
H3211 H 0.8576 0.58013 0.99859 0.0
H3212 H 0.88042 0.57901 0.98335 0.0
H3213 H 0.89076 0.63859 0.09018 0.0
H3214 H 0.90332 0.61995 0.10965 0.0
H3215 H 0.87528 0.61131 0.09613 0.0
C3216 C 0.19045 0.15918 0.85039 0.0
C3217 C 0.19168 0.13495 0.84463 0.0
C3218 C 0.20765 0.17784 0.84908 0.0
C3219 C 0.22647 0.1722 0.8416 0.0
C3220 C 0.22801 0.14782 0.83644 0.0
C3221 C 0.21072 0.12959 0.83813 0.0
C3222 C 0.20538 0.20359 0.85489 0.0
C3223 C 0.24766 0.14091 0.8282 0.0
C3224 C 0.26077 0.21564 0.8089 0.0
C3225 C 0.27853 0.22548 0.82787 0.0
C3226 C 0.24354 0.19878 0.81333 0.0
C3227 C 0.24402 0.19151 0.8374 0.0
C3228 C 0.26184 0.20165 0.85678 0.0
C3229 C 0.27898 0.2184 0.85173 0.0
C3230 C 0.22503 0.18835 0.79203 0.0
C3231 C 0.26284 0.19465 0.88278 0.0
H3232 H 0.1759 0.16362 0.85549 0.0
H3233 H 0.212 0.11101 0.83365 0.0
H3234 H 0.21985 0.21448 0.86766 0.0
H3235 H 0.20376 0.21148 0.8372 0.0
H3236 H 0.19117 0.2051 0.86375 0.0
H3237 H 0.24678 0.1212 0.82603 0.0
H3238 H 0.24961 0.14699 0.80988 0.0
H3239 H 0.26217 0.14995 0.84207 0.0
H3240 H 0.26048 0.22088 0.79033 0.0
H3241 H 0.29266 0.22609 0.86647 0.0
H3242 H 0.20984 0.1913 0.79777 0.0
H3243 H 0.22369 0.16866 0.78754 0.0
H3244 H 0.22683 0.1964 0.77466 0.0
H3245 H 0.24835 0.19749 0.8904 0.0
H3246 H 0.2772 0.2051 0.89614 0.0
H3247 H 0.26312 0.17525 0.88175 0.0
C3248 C 0.40897 0.96175 0.30678 0.0
C3249 C 0.40068 0.98204 0.30067 0.0
C3250 C 0.39588 0.93888 0.3071 0.0
C3251 C 0.37322 0.93499 0.30114 0.0
C3252 C 0.36453 0.95523 0.29483 0.0
C3253 C 0.37813 0.97818 0.29468 0.0
C3254 C 0.40655 0.9187 0.31409 0.0
C3255 C 0.34066 0.95263 0.28823 0.0
C3256 C 0.34196 0.86769 0.2831 0.0
C3257 C 0.33544 0.86186 0.30574 0.0
C3258 C 0.35346 0.89115 0.28112 0.0
C3259 C 0.35908 0.91005 0.30221 0.0
C3260 C 0.35236 0.90427 0.325 0.0
C3261 C 0.34082 0.88076 0.32643 0.0
C3262 C 0.35987 0.89562 0.25625 0.0
C3263 C 0.35771 0.923 0.3483 0.0
H3264 H 0.42614 0.96364 0.31155 0.0
H3265 H 0.37101 0.99309 0.28988 0.0
H3266 H 0.40116 0.91241 0.33107 0.0
H3267 H 0.40183 0.90321 0.29859 0.0
H3268 H 0.42427 0.92416 0.31801 0.0
H3269 H 0.3361 0.96945 0.2832 0.0
H3270 H 0.33408 0.93794 0.27213 0.0
H3271 H 0.33313 0.94759 0.30442 0.0
H3272 H 0.33816 0.85379 0.26675 0.0
H3273 H 0.33614 0.87713 0.34416 0.0
H3274 H 0.37756 0.89956 0.25837 0.0
H3275 H 0.35426 0.91159 0.25032 0.0
H3276 H 0.35329 0.87999 0.24113 0.0
H3277 H 0.37532 0.92833 0.35423 0.0
H3278 H 0.35067 0.91645 0.36427 0.0
H3279 H 0.35183 0.93936 0.34415 0.0
C3280 C 0.59125 0.37121 0.6199 0.0
C3281 C 0.58879 0.37018 0.64509 0.0
C3282 C 0.5893 0.39192 0.60861 0.0
C3283 C 0.58456 0.41229 0.6226 0.0
C3284 C 0.58261 0.41155 0.64823 0.0
C3285 C 0.58482 0.3907 0.65911 0.0
C3286 C 0.59175 0.39173 0.58138 0.0
C3287 C 0.57743 0.43255 0.66401 0.0
C3288 C 0.59216 0.47383 0.59903 0.0
C3289 C 0.57135 0.47419 0.58717 0.0
C3290 C 0.5968 0.45384 0.61027 0.0
C3291 C 0.58024 0.43363 0.61006 0.0
C3292 C 0.55924 0.43394 0.59805 0.0
C3293 C 0.55512 0.45396 0.58676 0.0
C3294 C 0.61945 0.4544 0.62253 0.0
C3295 C 0.54093 0.41314 0.5974 0.0
H3296 H 0.59432 0.3556 0.60878 0.0
H3297 H 0.58281 0.39025 0.67852 0.0
H3298 H 0.57625 0.39243 0.56984 0.0
H3299 H 0.60349 0.40786 0.57943 0.0
H3300 H 0.59707 0.37543 0.57361 0.0
H3301 H 0.57755 0.42983 0.68394 0.0
H3302 H 0.5891 0.44926 0.6636 0.0
H3303 H 0.56137 0.43529 0.65601 0.0
H3304 H 0.60489 0.48923 0.59959 0.0
H3305 H 0.53892 0.45385 0.57791 0.0
H3306 H 0.62495 0.43849 0.61415 0.0
H3307 H 0.62013 0.45347 0.64292 0.0
H3308 H 0.63069 0.47091 0.6204 0.0
H3309 H 0.54437 0.39635 0.58798 0.0
H3310 H 0.52554 0.41599 0.58731 0.0
H3311 H 0.53906 0.41046 0.61691 0.0
C3312 C 0.43604 0.76896 0.43349 0.0
C3313 C 0.45517 0.77185 0.42364 0.0
C3314 C 0.41624 0.76937 0.41873 0.0
C3315 C 0.41519 0.77308 0.39328 0.0
C3316 C 0.43436 0.77577 0.38304 0.0
C3317 C 0.45403 0.77495 0.39822 0.0
C3318 C 0.39638 0.76594 0.43054 0.0
C3319 C 0.43415 0.77992 0.35611 0.0
C3320 C 0.36061 0.75269 0.3495 0.0
C3321 C 0.35305 0.77415 0.34889 0.0
C3322 C 0.38071 0.75217 0.36354 0.0
C3323 C 0.39393 0.77366 0.37748 0.0
C3324 C 0.38633 0.79541 0.3771 0.0
C3325 C 0.36603 0.79539 0.36293 0.0
C3326 C 0.38779 0.72848 0.36346 0.0
C3327 C 0.39972 0.81878 0.39159 0.0
H3328 H 0.43652 0.76641 0.45301 0.0
H3329 H 0.46861 0.77744 0.39038 0.0
H3330 H 0.38911 0.782 0.42999 0.0
H3331 H 0.38434 0.75036 0.41963 0.0
H3332 H 0.39975 0.76288 0.45043 0.0
H3333 H 0.45027 0.78173 0.35086 0.0
H3334 H 0.4231 0.7648 0.34313 0.0
H3335 H 0.42811 0.79649 0.35324 0.0
H3336 H 0.35079 0.73615 0.33875 0.0
H3337 H 0.36049 0.81211 0.36251 0.0
H3338 H 0.39059 0.72431 0.38297 0.0
H3339 H 0.40315 0.72964 0.35645 0.0
H3340 H 0.37582 0.71339 0.35151 0.0
H3341 H 0.40277 0.81753 0.412 0.0
H3342 H 0.39191 0.83424 0.38893 0.0
H3343 H 0.41548 0.82235 0.38548 0.0
C3344 C 0.07596 0.72628 0.09713 0.0
C3345 C 0.07724 0.73567 0.12263 0.0
C3346 C 0.07247 0.70139 0.08885 0.0
C3347 C 0.07044 0.68513 0.10644 0.0
C3348 C 0.07138 0.69439 0.13218 0.0
C3349 C 0.0746 0.71948 0.13993 0.0
C3350 C 0.07118 0.69252 0.06119 0.0
C3351 C 0.06947 0.67779 0.15164 0.0
C3352 C 0.0437 0.61957 0.08063 0.0
C3353 C 0.06129 0.60855 0.07887 0.0
C3354 C 0.04644 0.64424 0.08977 0.0
C3355 C 0.06731 0.65852 0.09771 0.0
C3356 C 0.08515 0.64753 0.09614 0.0
C3357 C 0.08194 0.6228 0.08664 0.0
C3358 C 0.02693 0.65509 0.09065 0.0
C3359 C 0.10768 0.66193 0.10452 0.0
H3360 H 0.07781 0.73849 0.08348 0.0
H3361 H 0.07572 0.72644 0.15967 0.0
H3362 H 0.08425 0.68283 0.05863 0.0
H3363 H 0.05585 0.67959 0.05375 0.0
H3364 H 0.07239 0.70738 0.04977 0.0
H3365 H 0.07027 0.68765 0.1708 0.0
H3366 H 0.05415 0.66446 0.1464 0.0
H3367 H 0.08253 0.66761 0.15224 0.0
H3368 H 0.02763 0.60892 0.07468 0.0
H3369 H 0.09567 0.61457 0.08562 0.0
H3370 H 0.0271 0.66928 0.07842 0.0
H3371 H 0.02711 0.66377 0.11011 0.0
H3372 H 1.01179 0.64151 0.08433 0.0
H3373 H 0.1107 0.67632 0.09277 0.0
H3374 H 0.11983 0.65064 0.10312 0.0
H3375 H 0.1098 0.67081 0.12433 0.0
C3376 C 0.09421 0.27174 0.93122 0.0
C3377 C 0.07374 0.2648 0.91621 0.0
C3378 C 0.11296 0.27308 0.92057 0.0
C3379 C 0.11145 0.26754 0.89408 0.0
C3380 C 0.09083 0.2601 0.87885 0.0
C3381 C 0.07231 0.25875 0.89004 0.0
C3382 C 0.13446 0.28089 0.93769 0.0
C3383 C 0.08829 0.2541 0.85057 0.0
C3384 C 0.15861 0.29534 0.86427 0.0
C3385 C 0.16904 0.27614 0.8598 0.0
C3386 C 0.14 0.29276 0.87526 0.0
C3387 C 0.13138 0.27043 0.8823 0.0
C3388 C 0.14194 0.25103 0.87817 0.0
C3389 C 0.16049 0.25408 0.867 0.0
C3390 C 0.12948 0.31402 0.87928 0.0
C3391 C 0.13354 0.22692 0.8854 0.0
H3392 H 0.09563 0.27646 0.95144 0.0
H3393 H 0.05667 0.25346 0.87817 0.0
H3394 H 0.14442 0.26735 0.93451 0.0
H3395 H 0.14305 0.29806 0.93325 0.0
H3396 H 0.13302 0.28344 0.95794 0.0
H3397 H 0.07129 0.24775 0.84139 0.0
H3398 H 0.09514 0.27023 0.84274 0.0
H3399 H 0.09727 0.23998 0.84559 0.0
H3400 H 0.16507 0.31263 0.85932 0.0
H3401 H 0.16804 0.23892 0.86342 0.0
H3402 H 0.12905 0.31872 0.8996 0.0
H3403 H 0.11268 0.30935 0.86914 0.0
H3404 H 0.13793 0.3301 0.87259 0.0
H3405 H 0.13258 0.229 0.90576 0.0
H3406 H 0.14374 0.21376 0.8815 0.0
H3407 H 0.1171 0.21948 0.87483 0.0
C3408 C 0.53033 0.7347 0.89838 0.0
C3409 C 0.53716 0.75252 0.91965 0.0
C3410 C 0.53043 0.71046 0.90043 0.0
C3411 C 0.53752 0.70422 0.92426 0.0
C3412 C 0.54573 0.72248 0.94533 0.0
C3413 C 0.54544 0.74632 0.94271 0.0
C3414 C 0.5219 0.69164 0.87742 0.0
C3415 C 0.55386 0.71683 0.97111 0.0
C3416 C 0.51804 0.65095 0.95356 0.0
C3417 C 0.53719 0.64294 0.95899 0.0
C3418 C 0.51663 0.66887 0.93837 0.0
C3419 C 0.53482 0.67888 0.92861 0.0
C3420 C 0.55278 0.66794 0.93052 0.0
C3421 C 0.55386 0.65014 0.94596 0.0
C3422 C 0.49688 0.67954 0.93607 0.0
C3423 C 0.57203 0.67728 0.91922 0.0
H3424 H 0.52401 0.73949 0.88046 0.0
H3425 H 0.55121 0.76016 0.95906 0.0
H3426 H 0.52975 0.676 0.87802 0.0
H3427 H 0.5045 0.6851 0.87649 0.0
H3428 H 0.52411 0.69924 0.85988 0.0
H3429 H 0.56029 0.73328 0.98524 0.0
H3430 H 0.5407 0.70558 0.97802 0.0
H3431 H 0.56671 0.70652 0.97003 0.0
H3432 H 0.50498 0.64519 0.96331 0.0
H3433 H 0.56843 0.64333 0.9495 0.0
H3434 H 0.49274 0.68397 0.91686 0.0
H3435 H 0.50001 0.69646 0.94964 0.0
H3436 H 0.48294 0.66713 0.94027 0.0
H3437 H 0.56714 0.683 0.90078 0.0
H3438 H 0.58188 0.66349 0.9166 0.0
H3439 H 0.58213 0.69317 0.93206 0.0
C3440 C 0.13792 0.74852 0.68934 0.0
C3441 C 0.12143 0.74905 0.70342 0.0
C3442 C 0.15849 0.74728 0.70075 0.0
C3443 C 0.16274 0.74649 0.72692 0.0
C3444 C 0.14584 0.74512 0.7409 0.0
C3445 C 0.12531 0.74642 0.72895 0.0
C3446 C 0.17604 0.74872 0.68512 0.0
C3447 C 0.14974 0.74402 0.7688 0.0
C3448 C 0.21832 0.73728 0.75242 0.0
C3449 C 0.22949 0.76115 0.75964 0.0
C3450 C 0.19628 0.73202 0.74257 0.0
C3451 C 0.18532 0.75108 0.74 0.0
C3452 C 0.19643 0.77513 0.74802 0.0
C3453 C 0.21832 0.77984 0.75767 0.0
C3454 C 0.18487 0.70616 0.73429 0.0
C3455 C 0.18538 0.79605 0.74572 0.0
H3456 H 0.135 0.75005 0.66947 0.0
H3457 H 0.11263 0.74662 0.73993 0.0
H3458 H 0.18699 0.76658 0.69051 0.0
H3459 H 0.18564 0.73493 0.68872 0.0
H3460 H 0.16964 0.74624 0.66459 0.0
H3461 H 0.13456 0.73875 0.7759 0.0
H3462 H 0.16009 0.73108 0.77315 0.0
H3463 H 0.15817 0.76195 0.77917 0.0
H3464 H 0.22683 0.72276 0.75407 0.0
H3465 H 0.22667 0.79836 0.7636 0.0
H3466 H 0.18016 0.70265 0.71347 0.0
H3467 H 0.16999 0.70252 0.74231 0.0
H3468 H 0.19504 0.69342 0.74007 0.0
H3469 H 0.17962 0.79663 0.72554 0.0
H3470 H 0.19609 0.81358 0.75414 0.0
H3471 H 0.17121 0.79377 0.75515 0.0
C3472 C 0.07172 0.38003 0.49205 0.0
C3473 C 0.06429 0.38283 0.46717 0.0
C3474 C 0.07484 0.39905 0.51192 0.0
C3475 C 0.06986 0.42117 0.5068 0.0
C3476 C 0.06251 0.42416 0.48165 0.0
C3477 C 0.06008 0.40498 0.46201 0.0
C3478 C 0.08325 0.39543 0.53837 0.0
C3479 C 0.05682 0.44747 0.47558 0.0
C3480 C 0.05452 0.4637 0.55651 0.0
C3481 C 0.07221 0.48273 0.56097 0.0
C3482 C 0.05394 0.44284 0.5398 0.0
C3483 C 0.07169 0.44102 0.52777 0.0
C3484 C 0.09043 0.45931 0.53422 0.0
C3485 C 0.09038 0.48015 0.55064 0.0
C3486 C 0.03358 0.42385 0.53327 0.0
C3487 C 0.10984 0.45785 0.52219 0.0
H3488 H 0.07518 0.36291 0.49601 0.0
H3489 H 0.05426 0.40707 0.44278 0.0
H3490 H 0.09765 0.40953 0.54666 0.0
H3491 H 0.07106 0.39719 0.55047 0.0
H3492 H 0.08745 0.37753 0.53894 0.0
H3493 H 0.05081 0.44668 0.45516 0.0
H3494 H 0.04439 0.452 0.4863 0.0
H3495 H 0.07109 0.46225 0.48144 0.0
H3496 H 0.04051 0.4659 0.56457 0.0
H3497 H 0.10389 0.4952 0.5538 0.0
H3498 H 0.0371 0.40563 0.53337 0.0
H3499 H 0.02544 0.42459 0.51395 0.0
H3500 H 0.02239 0.42647 0.54654 0.0
H3501 H 0.11342 0.43959 0.52146 0.0
H3502 H 0.12418 0.47114 0.53253 0.0
H3503 H 0.10668 0.46154 0.50253 0.0
C3504 C 0.50062 0.25871 0.24079 0.0
C3505 C 0.52107 0.25767 0.25303 0.0
C3506 C 0.48451 0.26273 0.25443 0.0
C3507 C 0.4888 0.26552 0.28108 0.0
C3508 C 0.50867 0.26196 0.29343 0.0
C3509 C 0.5247 0.25823 0.27925 0.0
C3510 C 0.46343 0.26582 0.24034 0.0
C3511 C 0.51338 0.26347 0.3217 0.0
C3512 C 0.45855 0.30948 0.30971 0.0
C3513 C 0.43946 0.29424 0.31195 0.0
C3514 C 0.47535 0.30025 0.30124 0.0
C3515 C 0.47342 0.27506 0.29557 0.0
C3516 C 0.45517 0.25954 0.30024 0.0
C3517 C 0.43828 0.26927 0.30799 0.0
C3518 C 0.49448 0.31758 0.29656 0.0
C3519 C 0.45261 0.2326 0.29555 0.0
H3520 H 0.49756 0.25791 0.22048 0.0
H3521 H 0.54042 0.25732 0.28886 0.0
H3522 H 0.45001 0.25368 0.24581 0.0
H3523 H 0.46143 0.28454 0.24541 0.0
H3524 H 0.46226 0.26199 0.21957 0.0
H3525 H 0.52786 0.25639 0.32799 0.0
H3526 H 0.51601 0.28248 0.33067 0.0
H3527 H 0.49958 0.25325 0.32848 0.0
H3528 H 0.46007 0.32878 0.31358 0.0
H3529 H 0.42374 0.25713 0.30961 0.0
H3530 H 0.49455 0.31598 0.27598 0.0
H3531 H 0.50953 0.31315 0.30558 0.0
H3532 H 0.49438 0.33654 0.30381 0.0
H3533 H 0.46817 0.22692 0.29617 0.0
H3534 H 0.44269 0.22547 0.27669 0.0
H3535 H 0.44423 0.22436 0.30978 0.0
C3536 C 0.65211 0.56202 0.42422 0.0
C3537 C 0.63903 0.56434 0.4019 0.0
C3538 C 0.64345 0.55723 0.4459 0.0
C3539 C 0.62111 0.55435 0.44523 0.0
C3540 C 0.60792 0.55727 0.42294 0.0
C3541 C 0.61702 0.56235 0.40168 0.0
C3542 C 0.65819 0.55471 0.46932 0.0
C3543 C 0.58403 0.55432 0.42129 0.0
C3544 C 0.59341 0.51714 0.48944 0.0
C3545 C 0.58911 0.53496 0.50691 0.0
C3546 C 0.60434 0.52319 0.46974 0.0
C3547 C 0.61134 0.54769 0.4675 0.0
C3548 C 0.60782 0.56575 0.48574 0.0
C3549 C 0.59659 0.55918 0.50499 0.0
C3550 C 0.60768 0.50332 0.45075 0.0
C3551 C 0.61525 0.59206 0.48444 0.0
H3552 H 0.66912 0.56353 0.42465 0.0
H3553 H 0.60673 0.56402 0.38457 0.0
H3554 H 0.65545 0.56622 0.486 0.0
H3555 H 0.65479 0.53587 0.47296 0.0
H3556 H 0.67528 0.55967 0.46756 0.0
H3557 H 0.57602 0.55762 0.40283 0.0
H3558 H 0.57707 0.53584 0.42409 0.0
H3559 H 0.5804 0.56692 0.43646 0.0
H3560 H 0.58763 0.4984 0.4907 0.0
H3561 H 0.59305 0.57314 0.51807 0.0
H3562 H 0.62486 0.50557 0.44937 0.0
H3563 H 0.59885 0.50425 0.43184 0.0
H3564 H 0.60212 0.48522 0.45568 0.0
H3565 H 0.63238 0.59589 0.48266 0.0
H3566 H 0.61311 0.60382 0.50132 0.0
H3567 H 0.60608 0.59682 0.46747 0.0
C3568 C 0.3071 0.84828 0.05023 0.0
C3569 C 0.28968 0.85968 0.05024 0.0
C3570 C 0.31626 0.84069 0.07211 0.0
C3571 C 0.30739 0.84408 0.09421 0.0
C3572 C 0.29041 0.85655 0.09463 0.0
C3573 C 0.2819 0.86445 0.07263 0.0
C3574 C 0.33475 0.82807 0.07123 0.0
C3575 C 0.28037 0.86022 0.11783 0.0
C3576 C 0.30774 0.79779 0.13799 0.0
C3577 C 0.32234 0.81062 0.15908 0.0
C3578 C 0.30327 0.8083 0.11641 0.0
C3579 C 0.31394 0.83207 0.11585 0.0
C3580 C 0.32961 0.84465 0.13655 0.0
C3581 C 0.33347 0.83383 0.15814 0.0
C3582 C 0.28627 0.7944 0.09478 0.0
C3583 C 0.34164 0.86981 0.13629 0.0
H3584 H 0.31341 0.84499 0.033 0.0
H3585 H 0.26846 0.87333 0.07265 0.0
H3586 H 0.34746 0.8352 0.08797 0.0
H3587 H 0.32918 0.80863 0.07161 0.0
H3588 H 0.34177 0.83006 0.05394 0.0
H3589 H 0.26841 0.87181 0.11562 0.0
H3590 H 0.27229 0.84255 0.12171 0.0
H3591 H 0.29281 0.86846 0.13452 0.0
H3592 H 0.29891 0.77998 0.13889 0.0
H3593 H 0.34482 0.84366 0.17451 0.0
H3594 H 0.29273 0.79352 0.07696 0.0
H3595 H 0.27269 0.80377 0.09227 0.0
H3596 H 0.28007 0.77578 0.09789 0.0
H3597 H 0.34784 0.87092 0.11838 0.0
H3598 H 0.35524 0.87576 0.15231 0.0
H3599 H 0.33066 0.88251 0.13746 0.0
C3600 C 0.97819 0.56619 0.87408 0.0
C3601 C 0.9557 0.55866 0.86824 0.0
C3602 C 0.99057 0.56401 0.89761 0.0
C3603 C 0.9809 0.55259 0.91632 0.0
C3604 C 0.95811 0.54457 0.9103 0.0
C3605 C 0.94599 0.5482 0.88708 0.0
C3606 C 1.01426 0.57433 0.90204 0.0
C3607 C 0.94615 0.53175 0.9282 0.0
C3608 C 0.02225 0.52906 0.96303 0.0
C3609 C 0.02283 0.54218 0.98701 0.0
C3610 C 1.00818 0.5313 0.94081 0.0
C3611 C 0.99461 0.54839 0.94122 0.0
C3612 C 0.99511 0.56177 0.96556 0.0
C3613 C 1.00864 0.55818 0.98782 0.0
C3614 C 1.0083 0.51512 0.91677 0.0
C3615 C 0.98177 0.58056 0.96857 0.0
H3616 H 0.98631 0.57446 0.86027 0.0
H3617 H 0.92878 0.54206 0.88338 0.0
H3618 H 0.02144 0.57855 0.92235 0.0
H3619 H 0.02237 0.56126 0.89261 0.0
H3620 H 1.01752 0.59102 0.89352 0.0
H3621 H 0.93122 0.51938 0.91795 0.0
H3622 H 0.95601 0.52128 0.93912 0.0
H3623 H 0.94154 0.54522 0.94164 0.0
H3624 H 0.03302 0.51673 0.96151 0.0
H3625 H 1.00884 0.56895 1.00575 0.0
H3626 H 0.0213 0.52348 0.90746 0.0
H3627 H 0.99292 0.51189 0.90343 0.0
H3628 H 1.01159 0.49748 0.92084 0.0
H3629 H 0.97711 0.58737 0.95071 0.0
H3630 H 0.99053 0.59602 0.98302 0.0
H3631 H 0.96706 0.57267 0.97535 0.0
C3632 C 0.2835 0.19061 0.61468 0.0
C3633 C 0.28 0.20627 0.59723 0.0
C3634 C 0.28727 0.19881 0.6409 0.0
C3635 C 0.28779 0.22329 0.6499 0.0
C3636 C 0.28506 0.23928 0.63233 0.0
C3637 C 0.28114 0.23061 0.60638 0.0
C3638 C 0.29005 0.18115 0.65899 0.0
C3639 C 0.28574 0.26555 0.64092 0.0
C3640 C 0.27444 0.24278 0.71447 0.0
C3641 C 0.29474 0.25267 0.729 0.0
C3642 C 0.27203 0.23252 0.68901 0.0
C3643 C 0.29033 0.23222 0.67756 0.0
C3644 C 0.31087 0.24199 0.69216 0.0
C3645 C 0.31284 0.252 0.71764 0.0
C3646 C 0.24982 0.2223 0.67424 0.0
C3647 C 0.3308 0.2423 0.68073 0.0
H3648 H 0.28259 0.17181 0.60788 0.0
H3649 H 0.27873 0.24301 0.59316 0.0
H3650 H 0.30509 0.18781 0.67282 0.0
H3651 H 0.27671 0.17937 0.66979 0.0
H3652 H 0.29038 0.16309 0.64915 0.0
H3653 H 0.28442 0.27589 0.62492 0.0
H3654 H 0.27242 0.26737 0.65126 0.0
H3655 H 0.30088 0.27374 0.65412 0.0
H3656 H 0.26034 0.24297 0.72299 0.0
H3657 H 0.32862 0.25952 0.72859 0.0
H3658 H 0.24869 0.20348 0.66546 0.0
H3659 H 0.2464 0.23278 0.65876 0.0
H3660 H 0.23731 0.22262 0.6862 0.0
H3661 H 0.33124 0.22389 0.67199 0.0
H3662 H 0.34564 0.2494 0.69486 0.0
H3663 H 0.33064 0.25362 0.66554 0.0
C3664 C 0.59837 0.56515 0.25784 0.0
C3665 C 0.61946 0.56352 0.26716 0.0
C3666 C 0.59018 0.56076 0.23182 0.0
C3667 C 0.60345 0.55498 0.21444 0.0
C3668 C 0.62464 0.5529 0.22368 0.0
C3669 C 0.63234 0.557 0.24989 0.0
C3670 C 0.5673 0.56242 0.22291 0.0
C3671 C 0.63933 0.54681 0.20584 0.0
C3672 C 0.57691 0.52672 0.14698 0.0
C3673 C 0.57831 0.5468 0.13435 0.0
C3674 C 0.58501 0.52902 0.17293 0.0
C3675 C 0.59525 0.55193 0.18664 0.0
C3676 C 0.59701 0.57222 0.17391 0.0
C3677 C 0.58841 0.56945 0.14805 0.0
C3678 C 0.58264 0.50683 0.18555 0.0
C3679 C 0.60796 0.59694 0.18765 0.0
H3680 H 0.58815 0.56985 0.27094 0.0
H3681 H 0.64863 0.55567 0.25682 0.0
H3682 H 0.56687 0.57698 0.21123 0.0
H3683 H 0.55853 0.54539 0.21085 0.0
H3684 H 0.55876 0.56605 0.23881 0.0
H3685 H 0.65536 0.54589 0.21594 0.0
H3686 H 0.63218 0.52926 0.19382 0.0
H3687 H 0.64132 0.56052 0.19312 0.0
H3688 H 0.56928 0.50913 0.13663 0.0
H3689 H 0.58979 0.58508 0.13852 0.0
H3690 H 0.57783 0.51045 0.20419 0.0
H3691 H 0.59823 0.50119 0.18871 0.0
H3692 H 0.57065 0.49162 0.17387 0.0
H3693 H 0.59923 0.60239 0.20277 0.0
H3694 H 0.60882 0.61071 0.17488 0.0
H3695 H 0.62444 0.59667 0.19681 0.0
C3696 C 0.24764 0.88945 0.92203 0.0
C3697 C 0.2333 0.87624 0.93466 0.0
C3698 C 0.25461 0.87805 0.90133 0.0
C3699 C 0.24644 0.8532 0.89294 0.0
C3700 C 0.22944 0.84098 0.90322 0.0
C3701 C 0.22327 0.85261 0.92426 0.0
C3702 C 0.27258 0.89187 0.89077 0.0
C3703 C 0.21967 0.81473 0.89416 0.0
C3704 C 0.26116 0.81885 0.83618 0.0
C3705 C 0.27611 0.80684 0.84784 0.0
C3706 C 0.2517 0.83458 0.85049 0.0
C3707 C 0.25785 0.83891 0.87699 0.0
C3708 C 0.27374 0.82771 0.88871 0.0
C3709 C 0.28252 0.81157 0.87397 0.0
C3710 C 0.23473 0.84595 0.83734 0.0
C3711 C 0.28128 0.83253 0.91689 0.0
H3712 H 0.25548 0.90774 0.93023 0.0
H3713 H 0.21218 0.84245 0.93414 0.0
H3714 H 0.27097 0.8861 0.8702 0.0
H3715 H 0.27322 0.91152 0.89435 0.0
H3716 H 0.288 0.88845 0.90007 0.0
H3717 H 0.20439 0.80915 0.90094 0.0
H3718 H 0.21667 0.81084 0.87326 0.0
H3719 H 0.23097 0.80366 0.90131 0.0
H3720 H 0.2563 0.81537 0.81588 0.0
H3721 H 0.2943 0.80256 0.88287 0.0
H3722 H 0.2201 0.84272 0.84588 0.0
H3723 H 0.23033 0.83889 0.81687 0.0
H3724 H 0.24056 0.86568 0.83973 0.0
H3725 H 0.29349 0.8221 0.92305 0.0
H3726 H 0.26761 0.82801 0.92681 0.0
H3727 H 0.28835 0.85192 0.92277 0.0
C3728 C 0.96623 0.53044 0.72065 0.0
C3729 C 0.95733 0.55009 0.72977 0.0
C3730 C 0.97682 0.52964 0.69922 0.0
C3731 C 0.97915 0.54892 0.6849 0.0
C3732 C 0.96964 0.56866 0.69325 0.0
C3733 C 0.95918 0.56912 0.71521 0.0
C3734 C 0.98629 0.50805 0.69243 0.0
C3735 C 0.97099 0.58984 0.67922 0.0
C3736 C 0.02626 0.5553 0.64503 0.0
C3737 C 1.01678 0.5436 0.62024 0.0
C3738 C 1.01447 0.55748 0.66549 0.0
C3739 C 0.99191 0.54826 0.6621 0.0
C3740 C 0.98214 0.53685 0.63699 0.0
C3741 C 0.9944 0.53455 0.61692 0.0
C3742 C 0.02646 0.56954 0.69119 0.0
C3743 C 0.95841 0.52688 0.63118 0.0
H3744 H 0.96546 0.51537 0.73101 0.0
H3745 H 0.9532 0.58488 0.72144 0.0
H3746 H 0.97972 0.49974 0.6726 0.0
H3747 H 1.00386 0.51377 0.69394 0.0
H3748 H 0.98307 0.49421 0.7048 0.0
H3749 H 0.96104 0.60247 0.6856 0.0
H3750 H 0.98784 0.59971 0.68218 0.0
H3751 H 0.96578 0.58364 0.65867 0.0
H3752 H 0.0433 0.56267 0.6487 0.0
H3753 H 0.98622 0.52565 0.59834 0.0
H3754 H 0.02476 0.55674 0.70491 0.0
H3755 H 1.01951 0.58498 0.69782 0.0
H3756 H 0.04374 0.57611 0.69125 0.0
H3757 H 0.95441 0.51179 0.64181 0.0
H3758 H 0.95258 0.52027 0.61076 0.0
H3759 H 0.9497 0.5409 0.63736 0.0
C3760 C 0.26937 0.21559 0.46439 0.0
C3761 C 0.27231 0.19178 0.46314 0.0
C3762 C 0.27306 0.22907 0.44479 0.0
C3763 C 0.28003 0.21871 0.42324 0.0
C3764 C 0.28218 0.19435 0.42139 0.0
C3765 C 0.27825 0.1812 0.44125 0.0
C3766 C 0.27035 0.25482 0.44771 0.0
C3767 C 0.28957 0.18248 0.39888 0.0
C3768 C 0.27887 0.25129 0.36513 0.0
C3769 C 0.3 0.26422 0.36852 0.0
C3770 C 0.27212 0.23622 0.3825 0.0
C3771 C 0.28684 0.234 0.4039 0.0
C3772 C 0.3082 0.24711 0.40732 0.0
C3773 C 0.31442 0.26204 0.38977 0.0
C3774 C 0.24916 0.22291 0.37811 0.0
C3775 C 0.32456 0.24546 0.42968 0.0
H3776 H 0.26473 0.224 0.48111 0.0
H3777 H 0.28066 0.1629 0.44003 0.0
H3778 H 0.28619 0.26703 0.4499 0.0
H3779 H 0.26027 0.25811 0.43059 0.0
H3780 H 0.26297 0.25957 0.46434 0.0
H3781 H 0.2887 0.16296 0.39912 0.0
H3782 H 0.27973 0.18487 0.38115 0.0
H3783 H 0.30635 0.19114 0.39865 0.0
H3784 H 0.26746 0.25337 0.34928 0.0
H3785 H 0.3308 0.27194 0.39262 0.0
H3786 H 0.2414 0.22882 0.39399 0.0
H3787 H 0.24846 0.20335 0.3775 0.0
H3788 H 0.23984 0.22591 0.36026 0.0
H3789 H 0.31937 0.25183 0.44743 0.0
H3790 H 0.34062 0.25629 0.42936 0.0
H3791 H 0.3259 0.22647 0.43002 0.0
C3792 C 0.39564 0.62061 0.5582 0.0
C3793 C 0.3968 0.64424 0.55358 0.0
C3794 C 0.40579 0.60508 0.5447 0.0
C3795 C 0.41674 0.61326 0.52563 0.0
C3796 C 0.41761 0.63701 0.52056 0.0
C3797 C 0.40785 0.65238 0.53489 0.0
C3798 C 0.40513 0.58006 0.55117 0.0
C3799 C 0.42877 0.64612 0.5 0.0
C3800 C 0.45966 0.57963 0.5125 0.0
C3801 C 0.44852 0.56156 0.49281 0.0
C3802 C 0.44988 0.59752 0.52238 0.0
C3803 C 0.42837 0.59727 0.51224 0.0
C3804 C 0.41743 0.57992 0.49125 0.0
C3805 C 0.42758 0.56189 0.48198 0.0
C3806 C 0.46205 0.6154 0.545 0.0
C3807 C 0.39468 0.57964 0.47953 0.0
H3808 H 0.38707 0.61438 0.57266 0.0
H3809 H 0.40843 0.67061 0.53107 0.0
H3810 H 0.39762 0.56648 0.53436 0.0
H3811 H 0.42165 0.57743 0.55697 0.0
H3812 H 0.39606 0.57661 0.56666 0.0
H3813 H 0.42692 0.66463 0.4975 0.0
H3814 H 0.44608 0.64609 0.50446 0.0
H3815 H 0.42228 0.634 0.48186 0.0
H3816 H 0.47565 0.57882 0.52132 0.0
H3817 H 0.41898 0.54765 0.46696 0.0
H3818 H 0.45509 0.6115 0.56192 0.0
H3819 H 0.46067 0.63396 0.54231 0.0
H3820 H 0.47928 0.6147 0.54877 0.0
H3821 H 0.38377 0.57337 0.4924 0.0
H3822 H 0.38969 0.56754 0.46114 0.0
H3823 H 0.39274 0.59802 0.47666 0.0
C3824 C 0.90555 0.93201 0.547 0.0
C3825 C 0.89487 0.93617 0.56737 0.0
C3826 C 0.92509 0.94691 0.54526 0.0
C3827 C 0.93485 0.96632 0.56474 0.0
C3828 C 0.92418 0.97066 0.58544 0.0
C3829 C 0.90423 0.9558 0.58633 0.0
C3830 C 0.93522 0.94189 0.52239 0.0
C3831 C 0.93408 0.99075 0.60693 0.0
C3832 C 0.99515 0.99097 0.56824 0.0
C3833 C 0.99516 1.01221 0.55782 0.0
C3834 C 0.97579 0.97623 0.57125 0.0
C3835 C 0.95582 0.98237 0.56289 0.0
C3836 C 0.95587 1.00355 0.55179 0.0
C3837 C 0.97542 0.01832 0.54986 0.0
C3838 C 0.97674 0.95425 0.58377 0.0
C3839 C 0.9352 1.01055 0.54166 0.0
H3840 H 0.89848 0.917 0.53214 0.0
H3841 H 0.89632 0.95904 0.60229 0.0
H3842 H 0.93774 0.95809 0.513 0.0
H3843 H 0.95114 0.93767 0.52818 0.0
H3844 H 0.9253 0.92664 0.50846 0.0
H3845 H 0.92427 0.99137 0.62204 0.0
H3846 H 0.95024 0.98849 0.61517 0.0
H3847 H 0.93609 1.00827 0.5999 0.0
H3848 H 1.0103 0.98631 0.57479 0.0
H3849 H 0.97525 0.03469 0.54176 0.0
H3850 H 0.96836 0.93786 0.57043 0.0
H3851 H 0.96838 0.95506 0.60018 0.0
H3852 H 0.99344 0.9525 0.59031 0.0
H3853 H 0.92514 0.99577 0.52731 0.0
H3854 H 0.93788 0.02716 0.53293 0.0
H3855 H 0.92602 1.01346 0.55705 0.0
C3856 C 0.93721 0.08602 0.27512 0.0
C3857 C 0.92452 0.06293 0.26698 0.0
C3858 C 0.92818 0.10657 0.27483 0.0
C3859 C 0.90593 0.10394 0.26636 0.0
C3860 C 0.89323 0.08072 0.25722 0.0
C3861 C 0.90268 0.06055 0.25757 0.0
C3862 C 0.94231 0.13103 0.28444 0.0
C3863 C 0.86945 0.07706 0.24809 0.0
C3864 C 0.87653 0.15026 0.29273 0.0
C3865 C 0.87258 0.16263 0.27233 0.0
C3866 C 0.8878 0.13154 0.2912 0.0
C3867 C 0.89553 0.12511 0.26879 0.0
C3868 C 0.89218 0.13802 0.24837 0.0
C3869 C 0.88063 0.15652 0.25032 0.0
C3870 C 0.89078 0.11809 0.31331 0.0
C3871 C 0.90039 0.13193 0.22428 0.0
H3872 H 0.95411 0.08804 0.28234 0.0
H3873 H 0.89275 0.04279 0.25117 0.0
H3874 H 0.93979 0.1435 0.27068 0.0
H3875 H 0.938 0.1387 0.30228 0.0
H3876 H 0.95953 0.13027 0.28803 0.0
H3877 H 0.86206 0.05802 0.24021 0.0
H3878 H 0.86156 0.0827 0.26396 0.0
H3879 H 0.86616 0.08839 0.23337 0.0
H3880 H 0.87012 0.15464 0.30965 0.0
H3881 H 0.87779 0.16617 0.23457 0.0
H3882 H 0.90797 0.11816 0.31929 0.0
H3883 H 0.88234 0.09905 0.30763 0.0
H3884 H 0.88457 0.12593 0.32974 0.0
H3885 H 0.91772 0.13189 0.2285 0.0
H3886 H 0.89785 0.14478 0.2109 0.0
H3887 H 0.89211 0.1136 0.21487 0.0
C3888 C 0.79365 0.12913 0.0851 0.0
C3889 C 0.7948 0.14761 0.07024 0.0
C3890 C 0.77397 0.11526 0.08723 0.0
C3891 C 0.75492 0.11988 0.07412 0.0
C3892 C 0.75592 0.13783 0.0583 0.0
C3893 C 0.77588 0.15154 0.05655 0.0
C3894 C 0.77355 0.09629 0.10431 0.0
C3895 C 0.73588 0.14307 0.04386 0.0
C3896 C 0.7039 0.07301 0.06851 0.0
C3897 C 0.69439 0.08295 0.08777 0.0
C3898 C 0.72348 0.08497 0.06356 0.0
C3899 C 0.73396 0.10714 0.07853 0.0
C3900 C 0.72469 0.11705 0.09827 0.0
C3901 C 0.70495 0.10497 0.10248 0.0
C3902 C 0.73289 0.07396 0.04225 0.0
C3903 C 0.73554 0.14054 0.11487 0.0
H3904 H 0.80817 0.12576 0.09563 0.0
H3905 H 0.77661 0.16555 0.04483 0.0
H3906 H 0.76578 0.10144 0.12046 0.0
H3907 H 0.76397 0.0788 0.09405 0.0
H3908 H 0.78984 0.09382 0.11182 0.0
H3909 H 0.73946 0.15616 0.03079 0.0
H3910 H 0.72566 0.12625 0.03282 0.0
H3911 H 0.72648 0.15048 0.05726 0.0
H3912 H 0.69603 0.05588 0.05722 0.0
H3913 H 0.69757 0.11315 0.117 0.0
H3914 H 0.74873 0.07032 0.0497 0.0
H3915 H 0.73547 0.08675 0.02867 0.0
H3916 H 0.72246 0.0569 0.03197 0.0
H3917 H 0.75172 0.13928 0.12416 0.0
H3918 H 0.72635 0.1456 0.12969 0.0
H3919 H 0.73762 0.15516 0.10324 0.0
C3920 C 0.2309 0.45544 0.33138 0.0
C3921 C 0.20963 0.45376 0.31878 0.0
C3922 C 0.24188 0.43546 0.33115 0.0
C3923 C 0.23257 0.41213 0.31653 0.0
C3924 C 0.21115 0.41058 0.30318 0.0
C3925 C 0.20011 0.43054 0.30507 0.0
C3926 C 0.26367 0.43995 0.34743 0.0
C3927 C 0.19933 0.38788 0.28603 0.0
C3928 C 0.27585 0.37129 0.30455 0.0
C3929 C 0.26876 0.34922 0.31316 0.0
C3930 C 0.26431 0.39078 0.30468 0.0
C3931 C 0.24501 0.39014 0.31519 0.0
C3932 C 0.2381 0.36796 0.32453 0.0
C3933 C 0.24932 0.34818 0.32268 0.0
C3934 C 0.27314 0.41196 0.29268 0.0
C3935 C 0.2187 0.36457 0.33704 0.0
H3936 H 0.2391 0.4726 0.34238 0.0
H3937 H 0.18393 0.42797 0.29485 0.0
H3938 H 0.26861 0.42314 0.35174 0.0
H3939 H 0.27559 0.44987 0.33768 0.0
H3940 H 0.26398 0.45151 0.36551 0.0
H3941 H 0.1905 0.39228 0.2686 0.0
H3942 H 0.21005 0.37587 0.28055 0.0
H3943 H 0.18725 0.37806 0.29566 0.0
H3944 H 0.29042 0.37318 0.29667 0.0
H3945 H 0.24294 0.33183 0.32954 0.0
H3946 H 0.28699 0.42348 0.30595 0.0
H3947 H 0.26115 0.42291 0.2875 0.0
H3948 H 0.27915 0.40577 0.27541 0.0
H3949 H 0.21499 0.38188 0.34467 0.0
H3950 H 0.22095 0.35392 0.35266 0.0
H3951 H 0.20476 0.35422 0.32307 0.0
C3952 C 0.27887 0.46077 0.08804 0.0
C3953 C 0.27726 0.4362 0.07966 0.0
C3954 C 0.26061 0.4712 0.08643 0.0
C3955 C 0.24008 0.45686 0.07608 0.0
C3956 C 0.23832 0.43193 0.06816 0.0
C3957 C 0.25682 0.42196 0.07007 0.0
C3958 C 0.26339 0.49779 0.09524 0.0
C3959 C 0.2169 0.41585 0.05695 0.0
C3960 C 0.18968 0.4805 0.08718 0.0
C3961 C 0.18418 0.48983 0.06486 0.0
C3962 C 0.20773 0.4698 0.09114 0.0
C3963 C 0.22067 0.4681 0.07229 0.0
C3964 C 0.215 0.47718 0.04961 0.0
C3965 C 0.19699 0.48788 0.04622 0.0
C3966 C 0.21311 0.46052 0.11565 0.0
C3967 C 0.22803 0.47563 0.0288 0.0
H3968 H 0.29451 0.47202 0.09546 0.0
H3969 H 0.25527 0.40299 0.06346 0.0
H3970 H 0.25877 0.50689 0.07898 0.0
H3971 H 0.2527 0.50094 0.10894 0.0
H3972 H 0.28012 0.50623 0.10423 0.0
H3973 H 0.21798 0.39668 0.05289 0.0
H3974 H 0.20538 0.41744 0.07 0.0
H3975 H 0.2103 0.4216 0.03914 0.0
H3976 H 0.18012 0.48202 0.10185 0.0
H3977 H 0.19282 0.49458 0.0287 0.0
H3978 H 0.22928 0.47006 0.12557 0.0
H3979 H 0.21348 0.44114 0.11189 0.0
H3980 H 0.20143 0.46292 0.12835 0.0
H3981 H 0.24476 0.48536 0.03593 0.0
H3982 H 0.2215 0.48333 0.01223 0.0
H3983 H 0.22849 0.45659 0.02254 0.0
C3984 C 0.89577 0.93674 0.28122 0.0
C3985 C 0.91553 0.93185 0.27688 0.0
C3986 C 0.87853 0.91813 0.2823 0.0
C3987 C 0.88083 0.89391 0.27829 0.0
C3988 C 0.90048 0.8888 0.27292 0.0
C3989 C 0.91767 0.90782 0.27264 0.0
C3990 C 0.85811 0.92449 0.28874 0.0
C3991 C 0.9035 0.86325 0.26797 0.0
C3992 C 0.84588 0.84841 0.30826 0.0
C3993 C 0.82896 0.8382 0.28833 0.0
C3994 C 0.8628 0.86645 0.3052 0.0
C3995 C 0.86316 0.87414 0.2814 0.0
C3996 C 0.84634 0.86344 0.26099 0.0
C3997 C 0.82925 0.84583 0.2648 0.0
C3998 C 0.88009 0.87761 0.32763 0.0
C3999 C 0.84643 0.87057 0.23514 0.0
H4000 H 0.894 0.95524 0.28473 0.0
H4001 H 0.93282 0.90385 0.26912 0.0
H4002 H 0.84431 0.91516 0.27399 0.0
H4003 H 0.8552 0.91831 0.30675 0.0
H4004 H 0.85865 0.94413 0.29066 0.0
H4005 H 0.9187 0.86215 0.26111 0.0
H4006 H 0.90365 0.85524 0.28558 0.0
H4007 H 0.88999 0.85218 0.25383 0.0
H4008 H 0.84565 0.84264 0.32653 0.0
H4009 H 0.81629 0.83777 0.24931 0.0
H4010 H 0.88099 0.89729 0.3314 0.0
H4011 H 0.89586 0.8749 0.32357 0.0
H4012 H 0.87726 0.8699 0.34495 0.0
H4013 H 0.84562 0.88981 0.2359 0.0
H4014 H 0.8328 0.8597 0.22097 0.0
H4015 H 0.86158 0.86838 0.22875 0.0
C4016 C 0.69674 0.11482 0.82334 0.0
C4017 C 0.70486 0.09367 0.82588 0.0
C4018 C 0.7098 0.13743 0.82197 0.0
C4019 C 0.73228 0.1402 0.82334 0.0
C4020 C 0.74082 0.11909 0.82613 0.0
C4021 C 0.72722 0.09637 0.82718 0.0
C4022 C 0.69929 0.1586 0.81889 0.0
C4023 C 0.76452 0.12054 0.82813 0.0
C4024 C 0.7614 0.19512 0.79589 0.0
C4025 C 0.76958 0.21313 0.81714 0.0
C4026 C 0.74999 0.17162 0.79771 0.0
C4027 C 0.74632 0.16498 0.82145 0.0
C4028 C 0.75484 0.18296 0.84304 0.0
C4029 C 0.76614 0.20638 0.84067 0.0
C4030 C 0.74137 0.15391 0.77386 0.0
C4031 C 0.75196 0.17752 0.86894 0.0
H4032 H 0.67971 0.1138 0.82212 0.0
H4033 H 0.73421 0.08076 0.82915 0.0
H4034 H 0.7062 0.17333 0.83485 0.0
H4035 H 0.70247 0.16563 0.80135 0.0
H4036 H 0.68172 0.15389 0.81803 0.0
H4037 H 0.76901 0.10299 0.83027 0.0
H4038 H 0.76989 0.12666 0.81108 0.0
H4039 H 0.77322 0.13403 0.84457 0.0
H4040 H 0.76363 0.1995 0.77747 0.0
H4041 H 0.77222 0.21956 0.85748 0.0
H4042 H 0.72365 0.14942 0.77105 0.0
H4043 H 0.74709 0.13696 0.77546 0.0
H4044 H 0.74622 0.161 0.75696 0.0
H4045 H 0.73486 0.17035 0.86925 0.0
H4046 H 0.75774 0.19365 0.88364 0.0
H4047 H 0.76092 0.16347 0.87383 0.0
loop_
_geom_bond_atom_site_label_1
_geom_bond_atom_site_label_2
_geom_bond_distance
_geom_bond_site_symmetry_2
_ccdc_geom_bond_type
Co0 O1 2.216 . S
Co0 O2 2.091 . S
Co0 O4 2.004 1_455 S
Co0 O10 2.021 . S
Co0 O12 2.137 . S
Co0 O13 2.244 . S
O1 Co0 2.216 . S
O1 C8 1.247 . S
O2 Co0 2.091 . S
O2 C8 1.261 . S
C3 O12 1.247 . S
C3 O13 1.272 . S
O4 Co0 2.004 1_655 S
O4 C9 1.259 . S
Co5 O6 2.061 . S
Co5 O11 2.052 . S
Co5 O13 2.135 1_655 S
O6 Co5 2.061 . S
O6 C9 1.235 . S
C7 O10 1.238 1_655 S
C7 O11 1.241 . S
C8 O1 1.247 . S
C8 O2 1.261 . S
C9 O4 1.259 . S
C9 O6 1.235 . S
O10 Co0 2.021 . S
O10 C7 1.238 1_455 S
O11 Co5 2.052 . S
O11 C7 1.241 . S
O12 Co0 2.137 . S
O12 C3 1.247 . S
O13 Co0 2.244 . S
O13 C3 1.272 . S
O13 Co5 2.135 1_455 S
Co14 O15 2.216 . S
Co14 O16 2.091 . S
Co14 O18 2.004 . S
Co14 O24 2.021 . S
Co14 O26 2.137 . S
Co14 O27 2.244 . S
O15 Co14 2.216 . S
O15 C22 1.247 . S
O16 Co14 2.091 . S
O16 C22 1.261 . S
C17 O26 1.247 . S
C17 O27 1.272 . S
O18 Co14 2.004 . S
O18 C23 1.259 . S
Co19 O20 2.061 . S
Co19 O25 2.052 . S
Co19 O27 2.135 . S
O20 Co19 2.061 . S
O20 C23 1.235 . S
C21 O24 1.238 . S
C21 O25 1.241 . S
C22 O15 1.247 . S
C22 O16 1.261 . S
C23 O18 1.259 . S
C23 O20 1.235 . S
O24 Co14 2.021 . S
O24 C21 1.238 . S
O25 Co19 2.052 . S
O25 C21 1.241 . S
O26 Co14 2.137 . S
O26 C17 1.247 . S
O27 Co14 2.244 . S
O27 C17 1.272 . S
O27 Co19 2.135 . S
Co28 O29 2.216 . S
Co28 O30 2.091 . S
Co28 O32 2.004 . S
Co28 O38 2.021 . S
Co28 O40 2.137 . S
Co28 O41 2.244 . S
O29 Co28 2.216 . S
O29 C36 1.247 . S
O30 Co28 2.091 . S
O30 C36 1.261 . S
C31 O40 1.247 . S
C31 O41 1.272 . S
O32 Co28 2.004 . S
O32 C37 1.259 . S
Co33 O34 2.061 . S
Co33 O39 2.052 . S
Co33 O41 2.135 . S
O34 Co33 2.061 . S
O34 C37 1.235 . S
C35 O38 1.238 . S
C35 O39 1.241 . S
C36 O29 1.247 . S
C36 O30 1.261 . S
C37 O32 1.259 . S
C37 O34 1.235 . S
O38 Co28 2.021 . S
O38 C35 1.238 . S
O39 Co33 2.052 . S
O39 C35 1.241 . S
O40 Co28 2.137 . S
O40 C31 1.247 . S
O41 Co28 2.244 . S
O41 C31 1.272 . S
O41 Co33 2.135 . S
Co42 O43 2.216 . S
Co42 O44 2.091 . S
Co42 O46 2.004 . S
Co42 O52 2.021 . S
Co42 O54 2.137 . S
Co42 O55 2.244 . S
O43 Co42 2.216 . S
O43 C50 1.247 . S
O44 Co42 2.091 . S
O44 C50 1.261 . S
C45 O54 1.247 . S
C45 O55 1.272 . S
O46 Co42 2.004 . S
O46 C51 1.259 . S
Co47 O48 2.061 . S
Co47 O53 2.052 . S
Co47 O55 2.135 . S
O48 Co47 2.061 . S
O48 C51 1.235 . S
C49 O52 1.238 . S
C49 O53 1.241 . S
C50 O43 1.247 . S
C50 O44 1.261 . S
C51 O46 1.259 . S
C51 O48 1.235 . S
O52 Co42 2.021 . S
O52 C49 1.238 . S
O53 Co47 2.052 . S
O53 C49 1.241 . S
O54 Co42 2.137 . S
O54 C45 1.247 . S
O55 Co42 2.244 . S
O55 C45 1.272 . S
O55 Co47 2.135 . S
Co56 O57 2.216 . S
Co56 O58 2.091 . S
Co56 O60 2.004 . S
Co56 O66 2.021 . S
Co56 O68 2.137 . S
Co56 O69 2.244 . S
O57 Co56 2.216 . S
O57 C64 1.247 . S
O58 Co56 2.091 . S
O58 C64 1.261 . S
C59 O68 1.247 . S
C59 O69 1.272 . S
O60 Co56 2.004 . S
O60 C65 1.259 . S
Co61 O62 2.061 . S
Co61 O67 2.052 . S
Co61 O69 2.135 . S
O62 Co61 2.061 . S
O62 C65 1.235 . S
C63 O66 1.238 . S
C63 O67 1.241 . S
C64 O57 1.247 . S
C64 O58 1.261 . S
C65 O60 1.259 . S
C65 O62 1.235 . S
O66 Co56 2.021 . S
O66 C63 1.238 . S
O67 Co61 2.052 . S
O67 C63 1.241 . S
O68 Co56 2.137 . S
O68 C59 1.247 . S
O69 Co56 2.244 . S
O69 C59 1.272 . S
O69 Co61 2.135 . S
Co70 O71 2.216 . S
Co70 O72 2.091 . S
Co70 O74 2.004 . S
Co70 O80 2.021 . S
Co70 O82 2.137 . S
Co70 O83 2.244 . S
O71 Co70 2.216 . S
O71 C78 1.247 . S
O72 Co70 2.091 . S
O72 C78 1.261 . S
C73 O82 1.247 . S
C73 O83 1.272 . S
O74 Co70 2.004 . S
O74 C79 1.259 . S
Co75 O76 2.061 . S
Co75 O81 2.052 . S
Co75 O83 2.135 . S
O76 Co75 2.061 . S
O76 C79 1.235 . S
C77 O80 1.238 . S
C77 O81 1.241 . S
C78 O71 1.247 . S
C78 O72 1.261 . S
C79 O74 1.259 . S
C79 O76 1.235 . S
O80 Co70 2.021 . S
O80 C77 1.238 . S
O81 Co75 2.052 . S
O81 C77 1.241 . S
O82 Co70 2.137 . S
O82 C73 1.247 . S
O83 Co70 2.244 . S
O83 C73 1.272 . S
O83 Co75 2.135 . S
Co84 O85 2.216 . S
Co84 O86 2.091 . S
Co84 O88 2.004 . S
Co84 O94 2.021 . S
Co84 O96 2.137 . S
Co84 O97 2.244 . S
O85 Co84 2.216 . S
O85 C92 1.247 . S
O86 Co84 2.091 . S
O86 C92 1.261 . S
C87 O96 1.247 . S
C87 O97 1.272 . S
O88 Co84 2.004 . S
O88 C93 1.259 . S
Co89 O90 2.061 . S
Co89 O95 2.052 . S
Co89 O97 2.135 . S
O90 Co89 2.061 . S
O90 C93 1.235 . S
C91 O94 1.238 . S
C91 O95 1.241 . S
C92 O85 1.247 . S
C92 O86 1.261 . S
C93 O88 1.259 . S
C93 O90 1.235 . S
O94 Co84 2.021 . S
O94 C91 1.238 . S
O95 Co89 2.052 . S
O95 C91 1.241 . S
O96 Co84 2.137 . S
O96 C87 1.247 . S
O97 Co84 2.244 . S
O97 C87 1.272 . S
O97 Co89 2.135 . S
Co98 O99 2.216 . S
Co98 O100 2.091 . S
Co98 O102 2.004 1_455 S
Co98 O108 2.021 . S
Co98 O110 2.137 . S
Co98 O111 2.244 . S
O99 Co98 2.216 . S
O99 C106 1.247 . S
O100 Co98 2.091 . S
O100 C106 1.261 . S
C101 O110 1.247 . S
C101 O111 1.272 . S
O102 Co98 2.004 1_655 S
O102 C107 1.259 . S
Co103 O104 2.061 . S
Co103 O109 2.017 1_655 S
Co103 O111 2.135 1_655 S
O104 Co103 2.061 . S
O104 C107 1.235 . S
C105 O108 1.238 . S
C105 O109 1.272 . S
C106 O99 1.247 . S
C106 O100 1.261 . S
C107 O102 1.259 . S
C107 O104 1.235 . S
O108 Co98 2.021 . S
O108 C105 1.238 . S
O109 Co103 2.017 1_455 S
O109 C105 1.272 . S
O110 Co98 2.137 . S
O110 C101 1.247 . S
O111 Co98 2.244 . S
O111 C101 1.272 . S
O111 Co103 2.135 1_455 S
Co112 O113 2.216 . S
Co112 O114 2.091 . S
Co112 O116 2.004 1_545 S
Co112 O122 2.021 . S
Co112 O124 2.137 . S
Co112 O125 2.244 . S
O113 Co112 2.216 . S
O113 C120 1.247 . S
O114 Co112 2.091 . S
O114 C120 1.261 . S
C115 O124 1.247 . S
C115 O125 1.272 . S
O116 Co112 2.004 1_565 S
O116 C121 1.259 . S
Co117 O118 2.061 . S
Co117 O123 2.052 1_565 S
Co117 O125 2.135 1_565 S
O118 Co117 2.061 . S
O118 C121 1.235 . S
C119 O122 1.238 . S
C119 O123 1.241 . S
C120 O113 1.247 . S
C120 O114 1.261 . S
C121 O116 1.259 . S
C121 O118 1.235 . S
O122 Co112 2.021 . S
O122 C119 1.238 . S
O123 Co117 2.052 1_545 S
O123 C119 1.241 . S
O124 Co112 2.137 . S
O124 C115 1.247 . S
O125 Co112 2.244 . S
O125 C115 1.272 . S
O125 Co117 2.135 1_545 S
Co126 O127 2.216 . S
Co126 O128 2.091 . S
Co126 O130 2.004 . S
Co126 O136 2.021 . S
Co126 O138 2.137 . S
Co126 O139 2.244 . S
O127 Co126 2.216 . S
O127 C134 1.247 . S
O128 Co126 2.091 . S
O128 C134 1.261 . S
C129 O138 1.247 . S
C129 O139 1.272 . S
O130 Co126 2.004 . S
O130 C135 1.259 . S
Co131 O132 2.061 . S
Co131 O137 2.052 . S
Co131 O139 2.135 . S
O132 Co131 2.061 . S
O132 C135 1.235 . S
C133 O136 1.238 . S
C133 O137 1.241 . S
C134 O127 1.247 . S
C134 O128 1.261 . S
C135 O130 1.259 . S
C135 O132 1.235 . S
O136 Co126 2.021 . S
O136 C133 1.238 . S
O137 Co131 2.052 . S
O137 C133 1.241 . S
O138 Co126 2.137 . S
O138 C129 1.247 . S
O139 Co126 2.244 . S
O139 C129 1.272 . S
O139 Co131 2.135 . S
Co140 O141 2.216 1_545 S
Co140 O142 2.091 . S
Co140 O144 2.004 . S
Co140 O150 2.021 . S
Co140 O152 2.137 . S
Co140 O153 2.244 . S
O141 Co140 2.216 1_565 S
O141 C148 1.247 . S
O142 Co140 2.091 . S
O142 C148 1.261 1_545 S
C143 O152 1.247 . S
C143 O153 1.272 . S
O144 Co140 2.004 . S
O144 C149 1.259 . S
Co145 O146 2.061 . S
Co145 O151 2.052 . S
Co145 O153 2.135 . S
O146 Co145 2.061 . S
O146 C149 1.235 . S
C147 O150 1.238 . S
C147 O151 1.241 . S
C148 O141 1.247 . S
C148 O142 1.261 1_565 S
C149 O144 1.259 . S
C149 O146 1.235 . S
O150 Co140 2.021 . S
O150 C147 1.238 . S
O151 Co145 2.052 . S
O151 C147 1.241 . S
O152 Co140 2.137 . S
O152 C143 1.247 . S
O153 Co140 2.244 . S
O153 C143 1.272 . S
O153 Co145 2.135 . S
Co154 O155 2.216 . S
Co154 O156 2.091 1_556 S
Co154 O158 2.009 1_556 S
Co154 O164 2.021 1_556 S
Co154 O166 2.137 . S
Co154 O167 2.244 . S
O155 Co154 2.216 . S
O155 C162 1.247 . S
O156 Co154 2.091 1_554 S
O156 C162 1.261 1_554 S
C157 O166 1.247 . S
C157 O167 1.272 . S
O158 Co154 2.009 1_554 S
O158 C163 1.263 . S
Co159 O160 2.061 1_556 S
Co159 O165 2.052 1_556 S
Co159 O167 2.135 . S
O160 Co159 2.061 1_554 S
O160 C163 1.235 . S
C161 O164 1.238 . S
C161 O165 1.241 . S
C162 O155 1.247 . S
C162 O156 1.261 1_556 S
C163 O158 1.263 . S
C163 O160 1.235 . S
O164 Co154 2.021 1_554 S
O164 C161 1.238 . S
O165 Co159 2.052 1_554 S
O165 C161 1.241 . S
O166 Co154 2.137 . S
O166 C157 1.247 . S
O167 Co154 2.244 . S
O167 C157 1.272 . S
O167 Co159 2.135 . S
Co168 O169 2.216 . S
Co168 O170 2.091 . S
Co168 O172 2.004 . S
Co168 O178 2.021 . S
Co168 O180 2.137 . S
Co168 O181 2.244 . S
O169 Co168 2.216 . S
O169 C176 1.247 . S
O170 Co168 2.091 . S
O170 C176 1.261 . S
C171 O180 1.247 . S
C171 O181 1.272 . S
O172 Co168 2.004 . S
O172 C177 1.259 . S
Co173 O174 2.061 . S
Co173 O179 2.052 . S
Co173 O181 2.135 . S
O174 Co173 2.061 . S
O174 C177 1.235 . S
C175 O178 1.238 . S
C175 O179 1.241 . S
C176 O169 1.247 . S
C176 O170 1.261 . S
C177 O172 1.259 . S
C177 O174 1.235 . S
O178 Co168 2.021 . S
O178 C175 1.238 . S
O179 Co173 2.052 . S
O179 C175 1.241 . S
O180 Co168 2.137 . S
O180 C171 1.247 . S
O181 Co168 2.244 . S
O181 C171 1.272 . S
O181 Co173 2.135 . S
Co182 O183 2.216 . S
Co182 O184 2.091 . S
Co182 O186 2.004 . S
Co182 O192 2.021 . S
Co182 O194 2.137 . S
Co182 O195 2.244 . S
O183 Co182 2.216 . S
O183 C190 1.247 . S
O184 Co182 2.091 . S
O184 C190 1.261 . S
C185 O194 1.247 . S
C185 O195 1.272 . S
O186 Co182 2.004 . S
O186 C191 1.259 . S
Co187 O188 2.061 . S
Co187 O193 2.052 . S
Co187 O195 2.135 . S
O188 Co187 2.061 . S
O188 C191 1.235 . S
C189 O192 1.238 . S
C189 O193 1.241 . S
C190 O183 1.247 . S
C190 O184 1.261 . S
C191 O186 1.259 . S
C191 O188 1.235 . S
O192 Co182 2.021 . S
O192 C189 1.238 . S
O193 Co187 2.052 . S
O193 C189 1.241 . S
O194 Co182 2.137 . S
O194 C185 1.247 . S
O195 Co182 2.244 . S
O195 C185 1.272 . S
O195 Co187 2.135 . S
Co196 O197 2.216 . S
Co196 O198 2.091 . S
Co196 O200 2.004 . S
Co196 O206 2.021 . S
Co196 O208 2.137 . S
Co196 O209 2.244 . S
O197 Co196 2.216 . S
O197 C204 1.247 . S
O198 Co196 2.091 . S
O198 C204 1.261 . S
C199 O208 1.247 . S
C199 O209 1.272 . S
O200 Co196 2.004 . S
O200 C205 1.259 . S
Co201 O202 2.061 . S
Co201 O207 2.052 . S
Co201 O209 2.135 . S
O202 Co201 2.061 . S
O202 C205 1.235 . S
C203 O206 1.238 . S
C203 O207 1.241 . S
C204 O197 1.247 . S
C204 O198 1.261 . S
C205 O200 1.259 . S
C205 O202 1.235 . S
O206 Co196 2.021 . S
O206 C203 1.238 . S
O207 Co201 2.052 . S
O207 C203 1.241 . S
O208 Co196 2.137 . S
O208 C199 1.247 . S
O209 Co196 2.244 . S
O209 C199 1.272 . S
O209 Co201 2.135 . S
Co210 O211 2.216 . S
Co210 O212 2.091 . S
Co210 O214 2.004 . S
Co210 O220 2.021 . S
Co210 O222 2.137 . S
Co210 O223 2.244 . S
O211 Co210 2.216 . S
O211 C218 1.247 . S
O212 Co210 2.091 . S
O212 C218 1.261 . S
C213 O222 1.247 . S
C213 O223 1.272 . S
O214 Co210 2.004 . S
O214 C219 1.259 . S
Co215 O216 2.061 . S
Co215 O221 2.052 . S
Co215 O223 2.135 . S
O216 Co215 2.061 . S
O216 C219 1.235 . S
C217 O220 1.238 . S
C217 O221 1.241 . S
C218 O211 1.247 . S
C218 O212 1.261 . S
C219 O214 1.259 . S
C219 O216 1.235 . S
O220 Co210 2.021 . S
O220 C217 1.238 . S
O221 Co215 2.052 . S
O221 C217 1.241 . S
O222 Co210 2.137 . S
O222 C213 1.247 . S
O223 Co210 2.244 . S
O223 C213 1.272 . S
O223 Co215 2.135 . S
Co224 O225 2.216 . S
Co224 O226 2.091 . S
Co224 O228 2.004 1_545 S
Co224 O234 2.021 . S
Co224 O236 2.137 . S
Co224 O237 2.244 1_545 S
O225 Co224 2.216 . S
O225 C232 1.247 . S
O226 Co224 2.091 . S
O226 C232 1.261 . S
C227 O236 1.247 . S
C227 O237 1.272 1_545 S
O228 Co224 2.004 1_565 S
O228 C233 1.259 . S
Co229 O230 2.061 . S
Co229 O235 2.052 . S
Co229 O237 2.135 . S
O230 Co229 2.061 . S
O230 C233 1.235 . S
C231 O234 1.235 1_565 S
C231 O235 1.241 . S
C232 O225 1.247 . S
C232 O226 1.261 . S
C233 O228 1.259 . S
C233 O230 1.235 . S
O234 Co224 2.021 . S
O234 C231 1.235 1_545 S
O235 Co229 2.052 . S
O235 C231 1.241 . S
O236 Co224 2.137 . S
O236 C227 1.247 . S
O237 Co224 2.244 1_565 S
O237 C227 1.272 1_565 S
O237 Co229 2.135 . S
Co238 O239 2.216 . S
Co238 O240 2.091 . S
Co238 O242 2.004 . S
Co238 O248 2.021 . S
Co238 O250 2.137 . S
Co238 O251 2.244 . S
O239 Co238 2.216 . S
O239 C246 1.247 . S
O240 Co238 2.091 . S
O240 C246 1.261 . S
C241 O250 1.247 . S
C241 O251 1.272 . S
O242 Co238 2.004 . S
O242 C247 1.259 . S
Co243 O244 2.061 . S
Co243 O249 2.052 . S
Co243 O251 2.135 . S
O244 Co243 2.061 . S
O244 C247 1.235 . S
C245 O248 1.238 . S
C245 O249 1.241 . S
C246 O239 1.247 . S
C246 O240 1.261 . S
C247 O242 1.259 . S
C247 O244 1.235 . S
O248 Co238 2.021 . S
O248 C245 1.238 . S
O249 Co243 2.052 . S
O249 C245 1.241 . S
O250 Co238 2.137 . S
O250 C241 1.247 . S
O251 Co238 2.244 . S
O251 C241 1.272 . S
O251 Co243 2.135 . S
Co252 O253 2.216 . S
Co252 O254 2.091 . S
Co252 O256 2.004 . S
Co252 O262 2.021 . S
Co252 O264 2.137 . S
Co252 O265 2.244 . S
O253 Co252 2.216 . S
O253 C260 1.247 . S
O254 Co252 2.091 . S
O254 C260 1.261 . S
C255 O264 1.247 . S
C255 O265 1.272 . S
O256 Co252 2.004 . S
O256 C261 1.259 . S
Co257 O258 2.061 . S
Co257 O263 2.052 . S
Co257 O265 2.135 . S
O258 Co257 2.061 . S
O258 C261 1.235 . S
C259 O262 1.238 . S
C259 O263 1.241 . S
C260 O253 1.247 . S
C260 O254 1.261 . S
C261 O256 1.259 . S
C261 O258 1.235 . S
O262 Co252 2.021 . S
O262 C259 1.238 . S
O263 Co257 2.052 . S
O263 C259 1.241 . S
O264 Co252 2.137 . S
O264 C255 1.247 . S
O265 Co252 2.244 . S
O265 C255 1.272 . S
O265 Co257 2.135 . S
Co266 O267 2.216 1_545 S
Co266 O268 2.091 1_545 S
Co266 O270 2.004 . S
Co266 O276 2.021 . S
Co266 O278 2.137 . S
Co266 O279 2.244 . S
O267 Co266 2.216 1_565 S
O267 C274 1.247 . S
O268 Co266 2.091 1_565 S
O268 C274 1.261 . S
C269 O278 1.247 . S
C269 O279 1.272 . S
O270 Co266 2.004 . S
O270 C275 1.259 . S
Co271 O272 2.061 . S
Co271 O277 2.052 . S
Co271 O279 2.135 . S
O272 Co271 2.061 . S
O272 C275 1.235 . S
C273 O276 1.238 . S
C273 O277 1.241 . S
C274 O267 1.247 . S
C274 O268 1.261 . S
C275 O270 1.259 . S
C275 O272 1.235 . S
O276 Co266 2.021 . S
O276 C273 1.238 . S
O277 Co271 2.052 . S
O277 C273 1.241 . S
O278 Co266 2.137 . S
O278 C269 1.247 . S
O279 Co266 2.244 . S
O279 C269 1.272 . S
O279 Co271 2.135 . S
Co280 O281 2.216 . S
Co280 O282 2.091 . S
Co280 O284 2.004 . S
Co280 O290 2.021 . S
Co280 O292 2.110 1_554 S
Co280 O293 2.244 . S
O281 Co280 2.216 . S
O281 C288 1.247 . S
O282 Co280 2.091 . S
O282 C288 1.261 . S
C283 O292 1.247 1_554 S
C283 O293 1.272 . S
O284 Co280 2.004 . S
O284 C289 1.259 . S
Co285 O286 2.061 . S
Co285 O291 2.052 . S
Co285 O293 2.135 . S
O286 Co285 2.061 . S
O286 C289 1.235 . S
C287 O290 1.238 . S
C287 O291 1.241 . S
C288 O281 1.247 . S
C288 O282 1.261 . S
C289 O284 1.259 . S
C289 O286 1.235 . S
O290 Co280 2.021 . S
O290 C287 1.238 . S
O291 Co285 2.052 . S
O291 C287 1.241 . S
O292 Co280 2.110 1_556 S
O292 C283 1.247 1_556 S
O293 Co280 2.244 . S
O293 C283 1.272 . S
O293 Co285 2.135 . S
Co294 O295 2.216 . S
Co294 O296 2.091 . S
Co294 O298 2.004 . S
Co294 O304 2.021 . S
Co294 O306 2.137 . S
Co294 O307 2.244 . S
O295 Co294 2.216 . S
O295 C302 1.247 . S
O296 Co294 2.091 . S
O296 C302 1.261 . S
C297 O306 1.247 . S
C297 O307 1.272 . S
O298 Co294 2.004 . S
O298 C303 1.259 . S
Co299 O300 2.061 . S
Co299 O305 2.052 . S
Co299 O307 2.135 . S
O300 Co299 2.061 . S
O300 C303 1.235 . S
C301 O304 1.238 . S
C301 O305 1.241 . S
C302 O295 1.247 . S
C302 O296 1.261 . S
C303 O298 1.259 . S
C303 O300 1.235 . S
O304 Co294 2.021 . S
O304 C301 1.238 . S
O305 Co299 2.052 . S
O305 C301 1.241 . S
O306 Co294 2.137 . S
O306 C297 1.247 . S
O307 Co294 2.244 . S
O307 C297 1.272 . S
O307 Co299 2.135 . S
Co308 O309 2.216 . S
Co308 O310 2.091 . S
Co308 O312 2.004 . S
Co308 O318 2.021 . S
Co308 O320 2.137 . S
Co308 O321 2.244 . S
O309 Co308 2.216 . S
O309 C316 1.247 . S
O310 Co308 2.091 . S
O310 C316 1.261 . S
C311 O320 1.247 . S
C311 O321 1.272 . S
O312 Co308 2.004 . S
O312 C317 1.259 . S
Co313 O314 2.061 . S
Co313 O319 2.052 . S
Co313 O321 2.135 . S
O314 Co313 2.061 . S
O314 C317 1.235 . S
C315 O318 1.238 . S
C315 O319 1.241 . S
C316 O309 1.247 . S
C316 O310 1.261 . S
C317 O312 1.259 . S
C317 O314 1.235 . S
O318 Co308 2.021 . S
O318 C315 1.238 . S
O319 Co313 2.052 . S
O319 C315 1.241 . S
O320 Co308 2.137 . S
O320 C311 1.247 . S
O321 Co308 2.244 . S
O321 C311 1.272 . S
O321 Co313 2.135 . S
Co322 O323 2.216 . S
Co322 O324 2.091 . S
Co322 O326 2.004 . S
Co322 O332 2.021 . S
Co322 O334 2.137 . S
Co322 O335 2.244 . S
O323 Co322 2.216 . S
O323 C330 1.247 . S
O324 Co322 2.091 . S
O324 C330 1.261 . S
C325 O334 1.247 . S
C325 O335 1.272 . S
O326 Co322 2.004 . S
O326 C331 1.259 . S
Co327 O328 2.061 . S
Co327 O333 2.052 . S
Co327 O335 2.135 . S
O328 Co327 2.061 . S
O328 C331 1.235 . S
C329 O332 1.238 . S
C329 O333 1.241 . S
C330 O323 1.247 . S
C330 O324 1.261 . S
C331 O326 1.259 . S
C331 O328 1.235 . S
O332 Co322 2.021 . S
O332 C329 1.238 . S
O333 Co327 2.052 . S
O333 C329 1.241 . S
O334 Co322 2.137 . S
O334 C325 1.247 . S
O335 Co322 2.244 . S
O335 C325 1.272 . S
O335 Co327 2.135 . S
Tb336 C338 2.809 1_455 S
Tb336 O356 2.484 1_455 S
Tb336 O357 2.440 1_455 S
Tb336 O358 2.658 . S
Tb336 O359 2.409 1_554 S
Tb336 O360 2.378 . S
Tb336 O364 2.325 . S
Tb336 O367 2.341 1_545 S
Tb337 C347 2.809 . S
Tb337 O358 2.325 . S
Tb337 O361 2.341 . S
Tb337 O362 2.484 . S
Tb337 O363 2.440 . S
Tb337 O364 2.658 . S
Tb337 O365 2.409 . S
Tb337 O366 2.378 1_545 S
C338 Tb336 2.809 1_655 S
C338 C339 1.514 . S
C338 O356 1.248 . S
C338 O357 1.266 . S
C339 C338 1.514 . S
C339 C340 1.359 . S
C339 C344 1.343 1_554 S
C340 C339 1.359 . S
C340 C341 1.380 . S
C340 H368 0.929 . S
C341 C340 1.380 . S
C341 C342 1.347 . S
C341 H369 0.931 . S
C342 C341 1.347 . S
C342 C343 1.369 1_554 S
C343 C342 1.369 1_556 S
C343 C344 1.409 . S
C343 H370 0.930 . S
C344 C339 1.343 1_556 S
C344 C343 1.409 . S
C344 H371 0.935 . S
C345 O358 1.281 . S
C345 O359 1.254 1_554 S
C346 O360 1.236 . S
C346 O361 1.266 . S
C347 Tb337 2.809 . S
C347 C348 1.514 1_545 S
C347 O362 1.248 . S
C347 O363 1.266 . S
C348 C347 1.514 1_565 S
C348 C349 1.359 . S
C348 C353 1.348 . S
C349 C348 1.359 . S
C349 C350 1.380 . S
C349 H372 0.929 . S
C350 C349 1.380 . S
C350 C351 1.347 . S
C350 H373 0.931 . S
C351 C350 1.347 . S
C351 C352 1.369 . S
C352 C351 1.369 . S
C352 C353 1.408 . S
C352 H374 0.930 . S
C353 C348 1.348 . S
C353 C352 1.408 . S
C353 H375 0.930 . S
C354 O364 1.281 . S
C354 O365 1.254 . S
C355 O366 1.236 . S
C355 O367 1.266 . S
O356 Tb336 2.484 1_655 S
O356 C338 1.248 . S
O357 Tb336 2.440 1_655 S
O357 C338 1.266 . S
O358 Tb336 2.658 . S
O358 Tb337 2.325 . S
O358 C345 1.281 . S
O359 Tb336 2.409 1_556 S
O359 C345 1.254 1_556 S
O360 Tb336 2.378 . S
O360 C346 1.236 . S
O361 Tb337 2.341 . S
O361 C346 1.266 . S
O362 Tb337 2.484 . S
O362 C347 1.248 . S
O363 Tb337 2.440 . S
O363 C347 1.266 . S
O364 Tb336 2.325 . S
O364 Tb337 2.658 . S
O364 C354 1.281 . S
O365 Tb337 2.409 . S
O365 C354 1.254 . S
O366 Tb337 2.378 1_565 S
O366 C355 1.236 . S
O367 Tb336 2.341 1_565 S
O367 C355 1.266 . S
H368 C340 0.929 . S
H369 C341 0.931 . S
H370 C343 0.930 . S
H371 C344 0.935 . S
H372 C349 0.929 . S
H373 C350 0.931 . S
H374 C352 0.930 . S
H375 C353 0.930 . S
Tb376 C378 2.809 . S
Tb376 O396 2.484 . S
Tb376 O397 2.440 . S
Tb376 O398 2.658 . S
Tb376 O399 2.409 . S
Tb376 O400 2.378 . S
Tb376 O404 2.325 . S
Tb376 O407 2.341 . S
Tb377 C387 2.809 . S
Tb377 O398 2.325 . S
Tb377 O401 2.341 . S
Tb377 O402 2.484 . S
Tb377 O403 2.440 . S
Tb377 O404 2.658 . S
Tb377 O405 2.409 . S
Tb377 O406 2.378 . S
C378 Tb376 2.809 . S
C378 C379 1.514 . S
C378 O396 1.248 . S
C378 O397 1.266 . S
C379 C378 1.514 . S
C379 C380 1.359 . S
C379 C384 1.348 . S
C380 C379 1.359 . S
C380 C381 1.380 . S
C380 H408 0.929 . S
C381 C380 1.380 . S
C381 C382 1.347 . S
C381 H409 0.931 . S
C382 C381 1.347 . S
C382 C383 1.369 . S
C383 C382 1.369 . S
C383 C384 1.408 . S
C383 H410 0.930 . S
C384 C379 1.348 . S
C384 C383 1.408 . S
C384 H411 0.930 . S
C385 O398 1.281 . S
C385 O399 1.254 . S
C386 O400 1.236 . S
C386 O401 1.266 . S
C387 Tb377 2.809 . S
C387 C388 1.514 . S
C387 O402 1.248 . S
C387 O403 1.266 . S
C388 C387 1.514 . S
C388 C389 1.359 . S
C388 C393 1.348 . S
C389 C388 1.359 . S
C389 C390 1.380 . S
C389 H412 0.929 . S
C390 C389 1.380 . S
C390 C391 1.347 . S
C390 H413 0.931 . S
C391 C390 1.347 . S
C391 C392 1.369 . S
C392 C391 1.369 . S
C392 C393 1.408 . S
C392 H414 0.930 . S
C393 C388 1.348 . S
C393 C392 1.408 . S
C393 H415 0.930 . S
C394 O404 1.281 . S
C394 O405 1.254 . S
C395 O406 1.236 . S
C395 O407 1.266 . S
O396 Tb376 2.484 . S
O396 C378 1.248 . S
O397 Tb376 2.440 . S
O397 C378 1.266 . S
O398 Tb376 2.658 . S
O398 Tb377 2.325 . S
O398 C385 1.281 . S
O399 Tb376 2.409 . S
O399 C385 1.254 . S
O400 Tb376 2.378 . S
O400 C386 1.236 . S
O401 Tb377 2.341 . S
O401 C386 1.266 . S
O402 Tb377 2.484 . S
O402 C387 1.248 . S
O403 Tb377 2.440 . S
O403 C387 1.266 . S
O404 Tb376 2.325 . S
O404 Tb377 2.658 . S
O404 C394 1.281 . S
O405 Tb377 2.409 . S
O405 C394 1.254 . S
O406 Tb377 2.378 . S
O406 C395 1.236 . S
O407 Tb376 2.341 . S
O407 C395 1.266 . S
H408 C380 0.929 . S
H409 C381 0.931 . S
H410 C383 0.930 . S
H411 C384 0.930 . S
H412 C389 0.929 . S
H413 C390 0.931 . S
H414 C392 0.930 . S
H415 C393 0.930 . S
Tb416 C418 2.809 1_545 S
Tb416 O436 2.465 1_545 S
Tb416 O437 2.440 . S
Tb416 O438 2.658 . S
Tb416 O439 2.409 . S
Tb416 O440 2.378 1_545 S
Tb416 O444 2.325 . S
Tb416 O447 2.341 . S
Tb417 C427 2.809 . S
Tb417 O438 2.325 . S
Tb417 O441 2.341 1_545 S
Tb417 O442 2.484 . S
Tb417 O443 2.440 . S
Tb417 O444 2.658 . S
Tb417 O445 2.409 . S
Tb417 O446 2.378 . S
C418 Tb416 2.809 1_565 S
C418 C419 1.514 . S
C418 O436 1.248 . S
C418 O437 1.266 1_565 S
C419 C418 1.514 . S
C419 C420 1.359 . S
C419 C424 1.348 . S
C420 C419 1.359 . S
C420 C421 1.380 . S
C420 H448 0.929 . S
C421 C420 1.380 . S
C421 C422 1.347 . S
C421 H449 0.931 . S
C422 C421 1.347 . S
C422 C423 1.369 . S
C423 C422 1.369 . S
C423 C424 1.408 . S
C423 H450 0.930 . S
C424 C419 1.348 . S
C424 C423 1.408 . S
C424 H451 0.930 . S
C425 O438 1.281 . S
C425 O439 1.254 . S
C426 O440 1.236 . S
C426 O441 1.266 . S
C427 Tb417 2.809 . S
C427 C428 1.514 . S
C427 O442 1.248 . S
C427 O443 1.266 . S
C428 C427 1.514 . S
C428 C429 1.359 . S
C428 C433 1.348 . S
C429 C428 1.359 . S
C429 C430 1.380 . S
C429 H452 0.929 . S
C430 C429 1.380 . S
C430 C431 1.347 . S
C430 H453 0.931 . S
C431 C430 1.347 . S
C431 C432 1.369 . S
C432 C431 1.369 . S
C432 C433 1.408 . S
C432 H454 0.930 . S
C433 C428 1.348 . S
C433 C432 1.408 . S
C433 H455 0.930 . S
C434 O444 1.281 . S
C434 O445 1.254 . S
C435 O446 1.236 . S
C435 O447 1.266 . S
O436 Tb416 2.465 1_565 S
O436 C418 1.248 . S
O437 Tb416 2.440 . S
O437 C418 1.266 1_545 S
O438 Tb416 2.658 . S
O438 Tb417 2.325 . S
O438 C425 1.281 . S
O439 Tb416 2.409 . S
O439 C425 1.254 . S
O440 Tb416 2.378 1_565 S
O440 C426 1.236 . S
O441 Tb417 2.341 1_565 S
O441 C426 1.266 . S
O442 Tb417 2.484 . S
O442 C427 1.248 . S
O443 Tb417 2.440 . S
O443 C427 1.266 . S
O444 Tb416 2.325 . S
O444 Tb417 2.658 . S
O444 C434 1.281 . S
O445 Tb417 2.409 . S
O445 C434 1.254 . S
O446 Tb417 2.378 . S
O446 C435 1.236 . S
O447 Tb416 2.341 . S
O447 C435 1.266 . S
H448 C420 0.929 . S
H449 C421 0.931 . S
H450 C423 0.930 . S
H451 C424 0.930 . S
H452 C429 0.929 . S
H453 C430 0.931 . S
H454 C432 0.930 . S
H455 C433 0.930 . S
Tb456 C458 2.809 . S
Tb456 O476 2.484 . S
Tb456 O477 2.440 . S
Tb456 O478 2.658 . S
Tb456 O479 2.409 . S
Tb456 O480 2.378 . S
Tb456 O484 2.325 . S
Tb456 O487 2.341 . S
Tb457 C467 2.809 . S
Tb457 O478 2.325 . S
Tb457 O481 2.341 . S
Tb457 O482 2.484 . S
Tb457 O483 2.440 . S
Tb457 O484 2.658 . S
Tb457 O485 2.409 . S
Tb457 O486 2.378 . S
C458 Tb456 2.809 . S
C458 C459 1.514 . S
C458 O476 1.248 . S
C458 O477 1.266 . S
C459 C458 1.514 . S
C459 C460 1.359 . S
C459 C464 1.348 . S
C460 C459 1.359 . S
C460 C461 1.380 . S
C460 H488 0.929 . S
C461 C460 1.380 . S
C461 C462 1.347 . S
C461 H489 0.931 . S
C462 C461 1.347 . S
C462 C463 1.369 . S
C463 C462 1.369 . S
C463 C464 1.408 . S
C463 H490 0.930 . S
C464 C459 1.348 . S
C464 C463 1.408 . S
C464 H491 0.930 . S
C465 O478 1.281 . S
C465 O479 1.254 . S
C466 O480 1.236 . S
C466 O481 1.266 . S
C467 Tb457 2.809 . S
C467 C468 1.514 . S
C467 O482 1.248 . S
C467 O483 1.266 . S
C468 C467 1.514 . S
C468 C469 1.359 . S
C468 C473 1.348 . S
C469 C468 1.359 . S
C469 C470 1.380 . S
C469 H492 0.929 . S
C470 C469 1.380 . S
C470 C471 1.347 . S
C470 H493 0.931 . S
C471 C470 1.347 . S
C471 C472 1.369 . S
C472 C471 1.369 . S
C472 C473 1.408 . S
C472 H494 0.930 . S
C473 C468 1.348 . S
C473 C472 1.408 . S
C473 H495 0.930 . S
C474 O484 1.281 . S
C474 O485 1.254 . S
C475 O486 1.236 . S
C475 O487 1.266 . S
O476 Tb456 2.484 . S
O476 C458 1.248 . S
O477 Tb456 2.440 . S
O477 C458 1.266 . S
O478 Tb456 2.658 . S
O478 Tb457 2.325 . S
O478 C465 1.281 . S
O479 Tb456 2.409 . S
O479 C465 1.254 . S
O480 Tb456 2.378 . S
O480 C466 1.236 . S
O481 Tb457 2.341 . S
O481 C466 1.266 . S
O482 Tb457 2.484 . S
O482 C467 1.248 . S
O483 Tb457 2.440 . S
O483 C467 1.266 . S
O484 Tb456 2.325 . S
O484 Tb457 2.658 . S
O484 C474 1.281 . S
O485 Tb457 2.409 . S
O485 C474 1.254 . S
O486 Tb457 2.378 . S
O486 C475 1.236 . S
O487 Tb456 2.341 . S
O487 C475 1.266 . S
H488 C460 0.929 . S
H489 C461 0.931 . S
H490 C463 0.930 . S
H491 C464 0.930 . S
H492 C469 0.929 . S
H493 C470 0.931 . S
H494 C472 0.930 . S
H495 C473 0.930 . S
Tb496 C498 2.809 . S
Tb496 O516 2.484 . S
Tb496 O517 2.440 . S
Tb496 O518 2.658 . S
Tb496 O519 2.409 1_455 S
Tb496 O520 2.378 . S
Tb496 O524 2.325 . S
Tb496 O527 2.341 . S
Tb497 C507 2.809 . S
Tb497 O518 2.325 1_565 S
Tb497 O521 2.353 . S
Tb497 O522 2.484 . S
Tb497 O523 2.440 . S
Tb497 O524 2.658 1_565 S
Tb497 O525 2.409 1_565 S
Tb497 O526 2.378 1_565 S
C498 Tb496 2.809 . S
C498 C499 1.514 . S
C498 O516 1.248 . S
C498 O517 1.266 . S
C499 C498 1.514 . S
C499 C500 1.359 . S
C499 C504 1.348 1_455 S
C500 C499 1.359 . S
C500 C501 1.380 . S
C500 H528 0.929 . S
C501 C500 1.380 . S
C501 C502 1.347 . S
C501 H529 0.931 . S
C502 C501 1.347 . S
C502 C503 1.369 1_455 S
C503 C502 1.369 1_655 S
C503 C504 1.408 . S
C503 H530 0.930 . S
C504 C499 1.348 1_655 S
C504 C503 1.408 . S
C504 H531 0.930 . S
C505 O518 1.281 1_655 S
C505 O519 1.254 . S
C506 O520 1.236 . S
C506 O521 1.244 1_545 S
C507 Tb497 2.809 . S
C507 C508 1.514 . S
C507 O522 1.248 . S
C507 O523 1.266 . S
C508 C507 1.514 . S
C508 C509 1.359 . S
C508 C513 1.348 . S
C509 C508 1.359 . S
C509 C510 1.380 . S
C509 H532 0.929 . S
C510 C509 1.380 . S
C510 C511 1.347 . S
C510 H533 0.931 . S
C511 C510 1.347 . S
C511 C512 1.369 . S
C512 C511 1.369 . S
C512 C513 1.408 . S
C512 H534 0.930 . S
C513 C508 1.348 . S
C513 C512 1.408 . S
C513 H535 0.930 . S
C514 O524 1.281 . S
C514 O525 1.254 . S
C515 O526 1.236 . S
C515 O527 1.266 . S
O516 Tb496 2.484 . S
O516 C498 1.248 . S
O517 Tb496 2.440 . S
O517 C498 1.266 . S
O518 Tb496 2.658 . S
O518 Tb497 2.325 1_545 S
O518 C505 1.281 1_455 S
O519 Tb496 2.409 1_655 S
O519 C505 1.254 . S
O520 Tb496 2.378 . S
O520 C506 1.236 . S
O521 Tb497 2.353 . S
O521 C506 1.244 1_565 S
O522 Tb497 2.484 . S
O522 C507 1.248 . S
O523 Tb497 2.440 . S
O523 C507 1.266 . S
O524 Tb496 2.325 . S
O524 Tb497 2.658 1_545 S
O524 C514 1.281 . S
O525 Tb497 2.409 1_545 S
O525 C514 1.254 . S
O526 Tb497 2.378 1_545 S
O526 C515 1.236 . S
O527 Tb496 2.341 . S
O527 C515 1.266 . S
H528 C500 0.929 . S
H529 C501 0.931 . S
H530 C503 0.930 . S
H531 C504 0.930 . S
H532 C509 0.929 . S
H533 C510 0.931 . S
H534 C512 0.930 . S
H535 C513 0.930 . S
Tb536 C538 2.809 . S
Tb536 O556 2.484 . S
Tb536 O557 2.440 . S
Tb536 O558 2.658 . S
Tb536 O559 2.409 . S
Tb536 O560 2.378 . S
Tb536 O564 2.325 . S
Tb536 O567 2.341 . S
Tb537 C547 2.809 . S
Tb537 O558 2.325 . S
Tb537 O561 2.341 . S
Tb537 O562 2.484 . S
Tb537 O563 2.440 . S
Tb537 O564 2.658 . S
Tb537 O565 2.409 . S
Tb537 O566 2.378 . S
C538 Tb536 2.809 . S
C538 C539 1.514 . S
C538 O556 1.248 . S
C538 O557 1.266 . S
C539 C538 1.514 . S
C539 C540 1.359 . S
C539 C544 1.348 . S
C540 C539 1.359 . S
C540 C541 1.380 . S
C540 H568 0.929 . S
C541 C540 1.380 . S
C541 C542 1.347 . S
C541 H569 0.931 . S
C542 C541 1.347 . S
C542 C543 1.369 . S
C543 C542 1.369 . S
C543 C544 1.408 . S
C543 H570 0.930 . S
C544 C539 1.348 . S
C544 C543 1.408 . S
C544 H571 0.930 . S
C545 O558 1.281 . S
C545 O559 1.254 . S
C546 O560 1.236 . S
C546 O561 1.266 . S
C547 Tb537 2.809 . S
C547 C548 1.514 . S
C547 O562 1.248 . S
C547 O563 1.266 . S
C548 C547 1.514 . S
C548 C549 1.359 . S
C548 C553 1.348 . S
C549 C548 1.359 . S
C549 C550 1.380 . S
C549 H572 0.929 . S
C550 C549 1.380 . S
C550 C551 1.347 . S
C550 H573 0.931 . S
C551 C550 1.347 . S
C551 C552 1.369 . S
C552 C551 1.369 . S
C552 C553 1.408 . S
C552 H574 0.930 . S
C553 C548 1.348 . S
C553 C552 1.408 . S
C553 H575 0.930 . S
C554 O564 1.281 . S
C554 O565 1.254 . S
C555 O566 1.236 . S
C555 O567 1.266 . S
O556 Tb536 2.484 . S
O556 C538 1.248 . S
O557 Tb536 2.440 . S
O557 C538 1.266 . S
O558 Tb536 2.658 . S
O558 Tb537 2.325 . S
O558 C545 1.281 . S
O559 Tb536 2.409 . S
O559 C545 1.254 . S
O560 Tb536 2.378 . S
O560 C546 1.236 . S
O561 Tb537 2.341 . S
O561 C546 1.266 . S
O562 Tb537 2.484 . S
O562 C547 1.248 . S
O563 Tb537 2.440 . S
O563 C547 1.266 . S
O564 Tb536 2.325 . S
O564 Tb537 2.658 . S
O564 C554 1.281 . S
O565 Tb537 2.409 . S
O565 C554 1.254 . S
O566 Tb537 2.378 . S
O566 C555 1.236 . S
O567 Tb536 2.341 . S
O567 C555 1.266 . S
H568 C540 0.929 . S
H569 C541 0.931 . S
H570 C543 0.930 . S
H571 C544 0.930 . S
H572 C549 0.929 . S
H573 C550 0.931 . S
H574 C552 0.930 . S
H575 C553 0.930 . S
Tb576 C578 2.809 . S
Tb576 O596 2.484 1_545 S
Tb576 O597 2.440 . S
Tb576 O598 2.658 . S
Tb576 O599 2.409 . S
Tb576 O600 2.378 . S
Tb576 O604 2.325 1_545 S
Tb576 O607 2.341 . S
Tb577 C587 2.809 . S
Tb577 O598 2.325 . S
Tb577 O601 2.341 . S
Tb577 O602 2.484 . S
Tb577 O603 2.440 . S
Tb577 O604 2.658 1_545 S
Tb577 O605 2.409 1_545 S
Tb577 O606 2.378 . S
C578 Tb576 2.809 . S
C578 C579 1.514 1_545 S
C578 O596 1.248 1_545 S
C578 O597 1.266 . S
C579 C578 1.514 1_565 S
C579 C580 1.359 . S
C579 C584 1.348 1_565 S
C580 C579 1.359 . S
C580 C581 1.380 . S
C580 H608 0.929 . S
C581 C580 1.380 . S
C581 C582 1.347 . S
C581 H609 0.931 . S
C582 C581 1.347 . S
C582 C583 1.353 1_565 S
C583 C582 1.353 1_545 S
C583 C584 1.411 . S
C583 H610 0.943 . S
C584 C579 1.348 1_545 S
C584 C583 1.411 . S
C584 H611 0.930 . S
C585 O598 1.281 . S
C585 O599 1.254 . S
C586 O600 1.236 . S
C586 O601 1.266 . S
C587 Tb577 2.809 . S
C587 C588 1.514 . S
C587 O602 1.248 . S
C587 O603 1.266 . S
C588 C587 1.514 . S
C588 C589 1.359 . S
C588 C593 1.348 . S
C589 C588 1.359 . S
C589 C590 1.380 . S
C589 H612 0.929 . S
C590 C589 1.380 . S
C590 C591 1.347 . S
C590 H613 0.931 . S
C591 C590 1.347 . S
C591 C592 1.369 . S
C592 C591 1.369 . S
C592 C593 1.408 . S
C592 H614 0.930 . S
C593 C588 1.348 . S
C593 C592 1.408 . S
C593 H615 0.930 . S
C594 O604 1.281 . S
C594 O605 1.254 . S
C595 O606 1.236 . S
C595 O607 1.266 . S
O596 Tb576 2.484 1_565 S
O596 C578 1.248 1_565 S
O597 Tb576 2.440 . S
O597 C578 1.266 . S
O598 Tb576 2.658 . S
O598 Tb577 2.325 . S
O598 C585 1.281 . S
O599 Tb576 2.409 . S
O599 C585 1.254 . S
O600 Tb576 2.378 . S
O600 C586 1.236 . S
O601 Tb577 2.341 . S
O601 C586 1.266 . S
O602 Tb577 2.484 . S
O602 C587 1.248 . S
O603 Tb577 2.440 . S
O603 C587 1.266 . S
O604 Tb576 2.325 1_565 S
O604 Tb577 2.658 1_565 S
O604 C594 1.281 . S
O605 Tb577 2.409 1_565 S
O605 C594 1.254 . S
O606 Tb577 2.378 . S
O606 C595 1.236 . S
O607 Tb576 2.341 . S
O607 C595 1.266 . S
H608 C580 0.929 . S
H609 C581 0.931 . S
H610 C583 0.943 . S
H611 C584 0.930 . S
H612 C589 0.929 . S
H613 C590 0.931 . S
H614 C592 0.930 . S
H615 C593 0.930 . S
Tb616 C618 2.809 . S
Tb616 O636 2.484 . S
Tb616 O637 2.440 . S
Tb616 O638 2.658 . S
Tb616 O639 2.409 . S
Tb616 O640 2.378 . S
Tb616 O644 2.325 . S
Tb616 O647 2.341 . S
Tb617 C627 2.809 . S
Tb617 O638 2.325 . S
Tb617 O641 2.341 . S
Tb617 O642 2.484 . S
Tb617 O643 2.440 . S
Tb617 O644 2.658 . S
Tb617 O645 2.409 . S
Tb617 O646 2.378 . S
C618 Tb616 2.809 . S
C618 C619 1.514 . S
C618 O636 1.248 . S
C618 O637 1.266 . S
C619 C618 1.514 . S
C619 C620 1.359 . S
C619 C624 1.348 . S
C620 C619 1.359 . S
C620 C621 1.380 . S
C620 H648 0.929 . S
C621 C620 1.380 . S
C621 C622 1.347 . S
C621 H649 0.931 . S
C622 C621 1.347 . S
C622 C623 1.369 . S
C623 C622 1.369 . S
C623 C624 1.408 . S
C623 H650 0.930 . S
C624 C619 1.348 . S
C624 C623 1.408 . S
C624 H651 0.930 . S
C625 O638 1.281 . S
C625 O639 1.254 . S
C626 O640 1.236 . S
C626 O641 1.266 . S
C627 Tb617 2.809 . S
C627 C628 1.514 . S
C627 O642 1.248 . S
C627 O643 1.266 . S
C628 C627 1.514 . S
C628 C629 1.359 . S
C628 C633 1.348 . S
C629 C628 1.359 . S
C629 C630 1.380 . S
C629 H652 0.929 . S
C630 C629 1.380 . S
C630 C631 1.347 . S
C630 H653 0.931 . S
C631 C630 1.347 . S
C631 C632 1.369 . S
C632 C631 1.369 . S
C632 C633 1.408 . S
C632 H654 0.930 . S
C633 C628 1.348 . S
C633 C632 1.408 . S
C633 H655 0.930 . S
C634 O644 1.281 . S
C634 O645 1.254 . S
C635 O646 1.236 . S
C635 O647 1.266 . S
O636 Tb616 2.484 . S
O636 C618 1.248 . S
O637 Tb616 2.440 . S
O637 C618 1.266 . S
O638 Tb616 2.658 . S
O638 Tb617 2.325 . S
O638 C625 1.281 . S
O639 Tb616 2.409 . S
O639 C625 1.254 . S
O640 Tb616 2.378 . S
O640 C626 1.236 . S
O641 Tb617 2.341 . S
O641 C626 1.266 . S
O642 Tb617 2.484 . S
O642 C627 1.248 . S
O643 Tb617 2.440 . S
O643 C627 1.266 . S
O644 Tb616 2.325 . S
O644 Tb617 2.658 . S
O644 C634 1.281 . S
O645 Tb617 2.409 . S
O645 C634 1.254 . S
O646 Tb617 2.378 . S
O646 C635 1.236 . S
O647 Tb616 2.341 . S
O647 C635 1.266 . S
H648 C620 0.929 . S
H649 C621 0.931 . S
H650 C623 0.930 . S
H651 C624 0.930 . S
H652 C629 0.929 . S
H653 C630 0.931 . S
H654 C632 0.930 . S
H655 C633 0.930 . S
Tb656 C658 2.809 . S
Tb656 O676 2.484 . S
Tb656 O677 2.440 . S
Tb656 O678 2.658 . S
Tb656 O679 2.409 . S
Tb656 O680 2.378 . S
Tb656 O684 2.325 . S
Tb656 O687 2.341 . S
Tb657 C667 2.809 . S
Tb657 O678 2.325 . S
Tb657 O681 2.355 . S
Tb657 O682 2.484 . S
Tb657 O683 2.440 . S
Tb657 O684 2.658 . S
Tb657 O685 2.409 . S
Tb657 O686 2.378 . S
C658 Tb656 2.809 . S
C658 C659 1.514 . S
C658 O676 1.248 . S
C658 O677 1.266 . S
C659 C658 1.514 . S
C659 C660 1.359 1_554 S
C659 C664 1.348 . S
C660 C659 1.359 1_556 S
C660 C661 1.380 . S
C660 H688 0.929 . S
C661 C660 1.380 . S
C661 C662 1.347 . S
C661 H689 0.931 . S
C662 C661 1.347 . S
C662 C663 1.369 . S
C663 C662 1.369 . S
C663 C664 1.408 1_556 S
C663 H690 0.930 . S
C664 C659 1.348 . S
C664 C663 1.408 1_554 S
C664 H691 0.930 . S
C665 O678 1.281 . S
C665 O679 1.254 . S
C666 O680 1.236 1_556 S
C666 O681 1.261 1_556 S
C667 Tb657 2.809 . S
C667 C668 1.514 . S
C667 O682 1.248 . S
C667 O683 1.266 . S
C668 C667 1.514 . S
C668 C669 1.359 . S
C668 C673 1.348 . S
C669 C668 1.359 . S
C669 C670 1.380 . S
C669 H692 0.929 . S
C670 C669 1.380 . S
C670 C671 1.347 . S
C670 H693 0.931 . S
C671 C670 1.347 . S
C671 C672 1.369 . S
C672 C671 1.369 . S
C672 C673 1.408 . S
C672 H694 0.930 . S
C673 C668 1.348 . S
C673 C672 1.408 . S
C673 H695 0.930 . S
C674 O684 1.281 . S
C674 O685 1.254 . S
C675 O686 1.236 . S
C675 O687 1.266 . S
O676 Tb656 2.484 . S
O676 C658 1.248 . S
O677 Tb656 2.440 . S
O677 C658 1.266 . S
O678 Tb656 2.658 . S
O678 Tb657 2.325 . S
O678 C665 1.281 . S
O679 Tb656 2.409 . S
O679 C665 1.254 . S
O680 Tb656 2.378 . S
O680 C666 1.236 1_554 S
O681 Tb657 2.355 . S
O681 C666 1.261 1_554 S
O682 Tb657 2.484 . S
O682 C667 1.248 . S
O683 Tb657 2.440 . S
O683 C667 1.266 . S
O684 Tb656 2.325 . S
O684 Tb657 2.658 . S
O684 C674 1.281 . S
O685 Tb657 2.409 . S
O685 C674 1.254 . S
O686 Tb657 2.378 . S
O686 C675 1.236 . S
O687 Tb656 2.341 . S
O687 C675 1.266 . S
H688 C660 0.929 . S
H689 C661 0.931 . S
H690 C663 0.930 . S
H691 C664 0.930 . S
H692 C669 0.929 . S
H693 C670 0.931 . S
H694 C672 0.930 . S
H695 C673 0.930 . S
Tb696 C698 2.809 . S
Tb696 O716 2.484 . S
Tb696 O717 2.440 . S
Tb696 O718 2.658 . S
Tb696 O719 2.409 . S
Tb696 O720 2.378 . S
Tb696 O724 2.325 . S
Tb696 O727 2.341 . S
Tb697 C707 2.809 . S
Tb697 O718 2.325 . S
Tb697 O721 2.341 . S
Tb697 O722 2.484 . S
Tb697 O723 2.440 . S
Tb697 O724 2.658 . S
Tb697 O725 2.409 . S
Tb697 O726 2.378 . S
C698 Tb696 2.809 . S
C698 C699 1.514 . S
C698 O716 1.248 . S
C698 O717 1.266 . S
C699 C698 1.514 . S
C699 C700 1.359 . S
C699 C704 1.348 . S
C700 C699 1.359 . S
C700 C701 1.380 . S
C700 H728 0.929 . S
C701 C700 1.380 . S
C701 C702 1.347 . S
C701 H729 0.931 . S
C702 C701 1.347 . S
C702 C703 1.369 . S
C703 C702 1.369 . S
C703 C704 1.408 . S
C703 H730 0.930 . S
C704 C699 1.348 . S
C704 C703 1.408 . S
C704 H731 0.930 . S
C705 O718 1.281 . S
C705 O719 1.254 . S
C706 O720 1.236 . S
C706 O721 1.266 . S
C707 Tb697 2.809 . S
C707 C708 1.514 . S
C707 O722 1.248 . S
C707 O723 1.266 . S
C708 C707 1.514 . S
C708 C709 1.359 . S
C708 C713 1.348 . S
C709 C708 1.359 . S
C709 C710 1.380 . S
C709 H732 0.929 . S
C710 C709 1.380 . S
C710 C711 1.347 . S
C710 H733 0.931 . S
C711 C710 1.347 . S
C711 C712 1.369 . S
C712 C711 1.369 . S
C712 C713 1.408 . S
C712 H734 0.930 . S
C713 C708 1.348 . S
C713 C712 1.408 . S
C713 H735 0.930 . S
C714 O724 1.281 . S
C714 O725 1.254 . S
C715 O726 1.236 . S
C715 O727 1.266 . S
O716 Tb696 2.484 . S
O716 C698 1.248 . S
O717 Tb696 2.440 . S
O717 C698 1.266 . S
O718 Tb696 2.658 . S
O718 Tb697 2.325 . S
O718 C705 1.281 . S
O719 Tb696 2.409 . S
O719 C705 1.254 . S
O720 Tb696 2.378 . S
O720 C706 1.236 . S
O721 Tb697 2.341 . S
O721 C706 1.266 . S
O722 Tb697 2.484 . S
O722 C707 1.248 . S
O723 Tb697 2.440 . S
O723 C707 1.266 . S
O724 Tb696 2.325 . S
O724 Tb697 2.658 . S
O724 C714 1.281 . S
O725 Tb697 2.409 . S
O725 C714 1.254 . S
O726 Tb697 2.378 . S
O726 C715 1.236 . S
O727 Tb696 2.341 . S
O727 C715 1.266 . S
H728 C700 0.929 . S
H729 C701 0.931 . S
H730 C703 0.930 . S
H731 C704 0.930 . S
H732 C709 0.929 . S
H733 C710 0.931 . S
H734 C712 0.930 . S
H735 C713 0.930 . S
Tb736 C738 2.809 1_455 S
Tb736 O756 2.484 1_455 S
Tb736 O757 2.440 1_455 S
Tb736 O758 2.658 . S
Tb736 O759 2.409 . S
Tb736 O760 2.378 . S
Tb736 O764 2.325 . S
Tb736 O767 2.341 . S
Tb737 C747 2.809 . S
Tb737 O758 2.325 . S
Tb737 O761 2.341 . S
Tb737 O762 2.484 . S
Tb737 O763 2.440 . S
Tb737 O764 2.658 . S
Tb737 O765 2.409 . S
Tb737 O766 2.378 . S
C738 Tb736 2.809 1_655 S
C738 C739 1.514 . S
C738 O756 1.248 . S
C738 O757 1.266 . S
C739 C738 1.514 . S
C739 C740 1.359 . S
C739 C744 1.348 . S
C740 C739 1.359 . S
C740 C741 1.380 . S
C740 H768 0.929 . S
C741 C740 1.380 . S
C741 C742 1.347 . S
C741 H769 0.931 . S
C742 C741 1.347 . S
C742 C743 1.369 . S
C743 C742 1.369 . S
C743 C744 1.408 . S
C743 H770 0.930 . S
C744 C739 1.348 . S
C744 C743 1.408 . S
C744 H771 0.930 . S
C745 O758 1.281 . S
C745 O759 1.254 . S
C746 O760 1.236 . S
C746 O761 1.266 . S
C747 Tb737 2.809 . S
C747 C748 1.514 . S
C747 O762 1.248 . S
C747 O763 1.266 . S
C748 C747 1.514 . S
C748 C749 1.359 . S
C748 C753 1.348 . S
C749 C748 1.359 . S
C749 C750 1.380 . S
C749 H772 0.929 . S
C750 C749 1.380 . S
C750 C751 1.347 . S
C750 H773 0.931 . S
C751 C750 1.347 . S
C751 C752 1.369 . S
C752 C751 1.369 . S
C752 C753 1.408 . S
C752 H774 0.930 . S
C753 C748 1.348 . S
C753 C752 1.408 . S
C753 H775 0.930 . S
C754 O764 1.281 . S
C754 O765 1.254 . S
C755 O766 1.236 . S
C755 O767 1.266 . S
O756 Tb736 2.484 1_655 S
O756 C738 1.248 . S
O757 Tb736 2.440 1_655 S
O757 C738 1.266 . S
O758 Tb736 2.658 . S
O758 Tb737 2.325 . S
O758 C745 1.281 . S
O759 Tb736 2.409 . S
O759 C745 1.254 . S
O760 Tb736 2.378 . S
O760 C746 1.236 . S
O761 Tb737 2.341 . S
O761 C746 1.266 . S
O762 Tb737 2.484 . S
O762 C747 1.248 . S
O763 Tb737 2.440 . S
O763 C747 1.266 . S
O764 Tb736 2.325 . S
O764 Tb737 2.658 . S
O764 C754 1.281 . S
O765 Tb737 2.409 . S
O765 C754 1.254 . S
O766 Tb737 2.378 . S
O766 C755 1.236 . S
O767 Tb736 2.341 . S
O767 C755 1.266 . S
H768 C740 0.929 . S
H769 C741 0.931 . S
H770 C743 0.930 . S
H771 C744 0.930 . S
H772 C749 0.929 . S
H773 C750 0.931 . S
H774 C752 0.930 . S
H775 C753 0.930 . S
Tb776 C778 2.809 . S
Tb776 O796 2.484 . S
Tb776 O797 2.440 . S
Tb776 O798 2.658 . S
Tb776 O799 2.409 . S
Tb776 O800 2.378 . S
Tb776 O804 2.325 . S
Tb776 O807 2.341 . S
Tb777 C787 2.809 . S
Tb777 O798 2.325 . S
Tb777 O801 2.341 . S
Tb777 O802 2.484 . S
Tb777 O803 2.440 . S
Tb777 O804 2.658 . S
Tb777 O805 2.409 . S
Tb777 O806 2.378 . S
C778 Tb776 2.809 . S
C778 C779 1.514 . S
C778 O796 1.248 . S
C778 O797 1.266 . S
C779 C778 1.514 . S
C779 C780 1.359 . S
C779 C784 1.348 . S
C780 C779 1.359 . S
C780 C781 1.380 . S
C780 H808 0.929 . S
C781 C780 1.380 . S
C781 C782 1.347 . S
C781 H809 0.931 . S
C782 C781 1.347 . S
C782 C783 1.369 . S
C783 C782 1.369 . S
C783 C784 1.408 . S
C783 H810 0.930 . S
C784 C779 1.348 . S
C784 C783 1.408 . S
C784 H811 0.930 . S
C785 O798 1.281 . S
C785 O799 1.254 . S
C786 O800 1.236 . S
C786 O801 1.266 . S
C787 Tb777 2.809 . S
C787 C788 1.514 . S
C787 O802 1.248 . S
C787 O803 1.266 . S
C788 C787 1.514 . S
C788 C789 1.359 . S
C788 C793 1.348 . S
C789 C788 1.359 . S
C789 C790 1.380 . S
C789 H812 0.929 . S
C790 C789 1.380 . S
C790 C791 1.347 . S
C790 H813 0.931 . S
C791 C790 1.347 . S
C791 C792 1.369 . S
C792 C791 1.369 . S
C792 C793 1.408 . S
C792 H814 0.930 . S
C793 C788 1.348 . S
C793 C792 1.408 . S
C793 H815 0.930 . S
C794 O804 1.281 . S
C794 O805 1.254 . S
C795 O806 1.236 . S
C795 O807 1.266 . S
O796 Tb776 2.484 . S
O796 C778 1.248 . S
O797 Tb776 2.440 . S
O797 C778 1.266 . S
O798 Tb776 2.658 . S
O798 Tb777 2.325 . S
O798 C785 1.281 . S
O799 Tb776 2.409 . S
O799 C785 1.254 . S
O800 Tb776 2.378 . S
O800 C786 1.236 . S
O801 Tb777 2.341 . S
O801 C786 1.266 . S
O802 Tb777 2.484 . S
O802 C787 1.248 . S
O803 Tb777 2.440 . S
O803 C787 1.266 . S
O804 Tb776 2.325 . S
O804 Tb777 2.658 . S
O804 C794 1.281 . S
O805 Tb777 2.409 . S
O805 C794 1.254 . S
O806 Tb777 2.378 . S
O806 C795 1.236 . S
O807 Tb776 2.341 . S
O807 C795 1.266 . S
H808 C780 0.929 . S
H809 C781 0.931 . S
H810 C783 0.930 . S
H811 C784 0.930 . S
H812 C789 0.929 . S
H813 C790 0.931 . S
H814 C792 0.930 . S
H815 C793 0.930 . S
Tb816 C818 2.809 . S
Tb816 O836 2.484 . S
Tb816 O837 2.440 . S
Tb816 O838 2.658 . S
Tb816 O839 2.409 . S
Tb816 O840 2.378 . S
Tb816 O844 2.325 . S
Tb816 O847 2.341 . S
Tb817 C827 2.809 . S
Tb817 O838 2.325 . S
Tb817 O841 2.341 . S
Tb817 O842 2.484 . S
Tb817 O843 2.440 . S
Tb817 O844 2.658 . S
Tb817 O845 2.409 . S
Tb817 O846 2.378 . S
C818 Tb816 2.809 . S
C818 C819 1.514 . S
C818 O836 1.248 . S
C818 O837 1.266 . S
C819 C818 1.514 . S
C819 C820 1.359 . S
C819 C824 1.348 . S
C820 C819 1.359 . S
C820 C821 1.380 . S
C820 H848 0.929 . S
C821 C820 1.380 . S
C821 C822 1.347 . S
C821 H849 0.931 . S
C822 C821 1.347 . S
C822 C823 1.369 . S
C823 C822 1.369 . S
C823 C824 1.408 . S
C823 H850 0.930 . S
C824 C819 1.348 . S
C824 C823 1.408 . S
C824 H851 0.930 . S
C825 O838 1.281 . S
C825 O839 1.254 . S
C826 O840 1.236 . S
C826 O841 1.266 . S
C827 Tb817 2.809 . S
C827 C828 1.514 . S
C827 O842 1.248 . S
C827 O843 1.266 . S
C828 C827 1.514 . S
C828 C829 1.359 . S
C828 C833 1.348 . S
C829 C828 1.359 . S
C829 C830 1.380 . S
C829 H852 0.929 . S
C830 C829 1.380 . S
C830 C831 1.347 . S
C830 H853 0.931 . S
C831 C830 1.347 . S
C831 C832 1.369 . S
C832 C831 1.369 . S
C832 C833 1.408 . S
C832 H854 0.930 . S
C833 C828 1.348 . S
C833 C832 1.408 . S
C833 H855 0.930 . S
C834 O844 1.281 . S
C834 O845 1.254 . S
C835 O846 1.236 . S
C835 O847 1.266 . S
O836 Tb816 2.484 . S
O836 C818 1.248 . S
O837 Tb816 2.440 . S
O837 C818 1.266 . S
O838 Tb816 2.658 . S
O838 Tb817 2.325 . S
O838 C825 1.281 . S
O839 Tb816 2.409 . S
O839 C825 1.254 . S
O840 Tb816 2.378 . S
O840 C826 1.236 . S
O841 Tb817 2.341 . S
O841 C826 1.266 . S
O842 Tb817 2.484 . S
O842 C827 1.248 . S
O843 Tb817 2.440 . S
O843 C827 1.266 . S
O844 Tb816 2.325 . S
O844 Tb817 2.658 . S
O844 C834 1.281 . S
O845 Tb817 2.409 . S
O845 C834 1.254 . S
O846 Tb817 2.378 . S
O846 C835 1.236 . S
O847 Tb816 2.341 . S
O847 C835 1.266 . S
H848 C820 0.929 . S
H849 C821 0.931 . S
H850 C823 0.930 . S
H851 C824 0.930 . S
H852 C829 0.929 . S
H853 C830 0.931 . S
H854 C832 0.930 . S
H855 C833 0.930 . S
Tb856 C858 2.809 . S
Tb856 O876 2.484 . S
Tb856 O877 2.440 . S
Tb856 O878 2.658 . S
Tb856 O879 2.409 . S
Tb856 O880 2.378 . S
Tb856 O884 2.325 . S
Tb856 O887 2.341 . S
Tb857 C867 2.809 . S
Tb857 O878 2.325 . S
Tb857 O881 2.341 . S
Tb857 O882 2.484 . S
Tb857 O883 2.440 . S
Tb857 O884 2.658 . S
Tb857 O885 2.409 . S
Tb857 O886 2.378 . S
C858 Tb856 2.809 . S
C858 C859 1.514 . S
C858 O876 1.248 . S
C858 O877 1.266 . S
C859 C858 1.514 . S
C859 C860 1.359 . S
C859 C864 1.348 . S
C860 C859 1.359 . S
C860 C861 1.380 . S
C860 H888 0.929 . S
C861 C860 1.380 . S
C861 C862 1.347 . S
C861 H889 0.931 . S
C862 C861 1.347 . S
C862 C863 1.369 . S
C863 C862 1.369 . S
C863 C864 1.408 . S
C863 H890 0.930 . S
C864 C859 1.348 . S
C864 C863 1.408 . S
C864 H891 0.930 . S
C865 O878 1.281 . S
C865 O879 1.254 . S
C866 O880 1.236 . S
C866 O881 1.266 . S
C867 Tb857 2.809 . S
C867 C868 1.514 . S
C867 O882 1.248 . S
C867 O883 1.266 . S
C868 C867 1.514 . S
C868 C869 1.359 . S
C868 C873 1.348 . S
C869 C868 1.359 . S
C869 C870 1.380 . S
C869 H892 0.929 . S
C870 C869 1.380 . S
C870 C871 1.347 . S
C870 H893 0.931 . S
C871 C870 1.347 . S
C871 C872 1.369 . S
C872 C871 1.369 . S
C872 C873 1.408 . S
C872 H894 0.930 . S
C873 C868 1.348 . S
C873 C872 1.408 . S
C873 H895 0.930 . S
C874 O884 1.281 . S
C874 O885 1.254 . S
C875 O886 1.236 . S
C875 O887 1.266 . S
O876 Tb856 2.484 . S
O876 C858 1.248 . S
O877 Tb856 2.440 . S
O877 C858 1.266 . S
O878 Tb856 2.658 . S
O878 Tb857 2.325 . S
O878 C865 1.281 . S
O879 Tb856 2.409 . S
O879 C865 1.254 . S
O880 Tb856 2.378 . S
O880 C866 1.236 . S
O881 Tb857 2.341 . S
O881 C866 1.266 . S
O882 Tb857 2.484 . S
O882 C867 1.248 . S
O883 Tb857 2.440 . S
O883 C867 1.266 . S
O884 Tb856 2.325 . S
O884 Tb857 2.658 . S
O884 C874 1.281 . S
O885 Tb857 2.409 . S
O885 C874 1.254 . S
O886 Tb857 2.378 . S
O886 C875 1.236 . S
O887 Tb856 2.341 . S
O887 C875 1.266 . S
H888 C860 0.929 . S
H889 C861 0.931 . S
H890 C863 0.930 . S
H891 C864 0.930 . S
H892 C869 0.929 . S
H893 C870 0.931 . S
H894 C872 0.930 . S
H895 C873 0.930 . S
Tb896 C898 2.809 . S
Tb896 O916 2.484 . S
Tb896 O917 2.440 . S
Tb896 O918 2.658 . S
Tb896 O919 2.409 . S
Tb896 O920 2.378 . S
Tb896 O924 2.325 . S
Tb896 O927 2.341 . S
Tb897 C907 2.809 . S
Tb897 O918 2.325 . S
Tb897 O921 2.341 . S
Tb897 O922 2.484 . S
Tb897 O923 2.440 . S
Tb897 O924 2.658 . S
Tb897 O925 2.409 . S
Tb897 O926 2.378 . S
C898 Tb896 2.809 . S
C898 C899 1.514 . S
C898 O916 1.248 . S
C898 O917 1.266 . S
C899 C898 1.514 . S
C899 C900 1.359 . S
C899 C904 1.348 . S
C900 C899 1.359 . S
C900 C901 1.380 . S
C900 H928 0.929 . S
C901 C900 1.380 . S
C901 C902 1.347 . S
C901 H929 0.931 . S
C902 C901 1.347 . S
C902 C903 1.369 . S
C903 C902 1.369 . S
C903 C904 1.408 . S
C903 H930 0.930 . S
C904 C899 1.348 . S
C904 C903 1.408 . S
C904 H931 0.930 . S
C905 O918 1.281 . S
C905 O919 1.254 . S
C906 O920 1.236 . S
C906 O921 1.266 . S
C907 Tb897 2.809 . S
C907 C908 1.514 . S
C907 O922 1.248 . S
C907 O923 1.266 . S
C908 C907 1.514 . S
C908 C909 1.359 . S
C908 C913 1.348 . S
C909 C908 1.359 . S
C909 C910 1.380 . S
C909 H932 0.929 . S
C910 C909 1.380 . S
C910 C911 1.347 . S
C910 H933 0.931 . S
C911 C910 1.347 . S
C911 C912 1.369 . S
C912 C911 1.369 . S
C912 C913 1.408 . S
C912 H934 0.930 . S
C913 C908 1.348 . S
C913 C912 1.408 . S
C913 H935 0.930 . S
C914 O924 1.281 . S
C914 O925 1.254 . S
C915 O926 1.236 . S
C915 O927 1.266 . S
O916 Tb896 2.484 . S
O916 C898 1.248 . S
O917 Tb896 2.440 . S
O917 C898 1.266 . S
O918 Tb896 2.658 . S
O918 Tb897 2.325 . S
O918 C905 1.281 . S
O919 Tb896 2.409 . S
O919 C905 1.254 . S
O920 Tb896 2.378 . S
O920 C906 1.236 . S
O921 Tb897 2.341 . S
O921 C906 1.266 . S
O922 Tb897 2.484 . S
O922 C907 1.248 . S
O923 Tb897 2.440 . S
O923 C907 1.266 . S
O924 Tb896 2.325 . S
O924 Tb897 2.658 . S
O924 C914 1.281 . S
O925 Tb897 2.409 . S
O925 C914 1.254 . S
O926 Tb897 2.378 . S
O926 C915 1.236 . S
O927 Tb896 2.341 . S
O927 C915 1.266 . S
H928 C900 0.929 . S
H929 C901 0.931 . S
H930 C903 0.930 . S
H931 C904 0.930 . S
H932 C909 0.929 . S
H933 C910 0.931 . S
H934 C912 0.930 . S
H935 C913 0.930 . S
Tb936 C938 2.809 . S
Tb936 O956 2.484 . S
Tb936 O957 2.440 . S
Tb936 O958 2.658 . S
Tb936 O959 2.409 1_554 S
Tb936 O960 2.378 . S
Tb936 O964 2.325 . S
Tb936 O967 2.341 . S
Tb937 C947 2.809 1_455 S
Tb937 O958 2.325 . S
Tb937 O961 2.341 . S
Tb937 O962 2.484 1_455 S
Tb937 O963 2.440 1_455 S
Tb937 O964 2.658 . S
Tb937 O965 2.409 . S
Tb937 O966 2.378 . S
C938 Tb936 2.809 . S
C938 C939 1.514 . S
C938 O956 1.248 . S
C938 O957 1.266 . S
C939 C938 1.514 . S
C939 C940 1.359 . S
C939 C944 1.348 . S
C940 C939 1.359 . S
C940 C941 1.380 . S
C940 H968 0.929 . S
C941 C940 1.380 . S
C941 C942 1.347 . S
C941 H969 0.931 . S
C942 C941 1.347 . S
C942 C943 1.369 1_554 S
C943 C942 1.369 1_556 S
C943 C944 1.408 1_556 S
C943 H970 0.930 . S
C944 C939 1.348 . S
C944 C943 1.408 1_554 S
C944 H971 0.930 1_554 S
C945 O958 1.323 . S
C945 O959 1.239 1_554 S
C946 O960 1.236 . S
C946 O961 1.266 . S
C947 Tb937 2.809 1_655 S
C947 C948 1.514 . S
C947 O962 1.248 . S
C947 O963 1.266 . S
C948 C947 1.514 . S
C948 C949 1.359 . S
C948 C953 1.348 . S
C949 C948 1.359 . S
C949 C950 1.380 . S
C949 H972 0.929 . S
C950 C949 1.380 . S
C950 C951 1.347 . S
C950 H973 0.931 . S
C951 C950 1.347 . S
C951 C952 1.369 . S
C952 C951 1.369 . S
C952 C953 1.408 . S
C952 H974 0.930 . S
C953 C948 1.348 . S
C953 C952 1.408 . S
C953 H975 0.930 . S
C954 O964 1.281 . S
C954 O965 1.254 . S
C955 O966 1.236 . S
C955 O967 1.266 . S
O956 Tb936 2.484 . S
O956 C938 1.248 . S
O957 Tb936 2.440 . S
O957 C938 1.266 . S
O958 Tb936 2.658 . S
O958 Tb937 2.325 . S
O958 C945 1.323 . S
O959 Tb936 2.409 1_556 S
O959 C945 1.239 1_556 S
O960 Tb936 2.378 . S
O960 C946 1.236 . S
O961 Tb937 2.341 . S
O961 C946 1.266 . S
O962 Tb937 2.484 1_655 S
O962 C947 1.248 . S
O963 Tb937 2.440 1_655 S
O963 C947 1.266 . S
O964 Tb936 2.325 . S
O964 Tb937 2.658 . S
O964 C954 1.281 . S
O965 Tb937 2.409 . S
O965 C954 1.254 . S
O966 Tb937 2.378 . S
O966 C955 1.236 . S
O967 Tb936 2.341 . S
O967 C955 1.266 . S
H968 C940 0.929 . S
H969 C941 0.931 . S
H970 C943 0.930 . S
H971 C944 0.930 1_556 S
H972 C949 0.929 . S
H973 C950 0.931 . S
H974 C952 0.930 . S
H975 C953 0.930 . S
C976 C977 1.391 1_655 S
C976 C978 1.394 1_655 S
C976 H992 0.931 . S
C977 C976 1.391 1_455 S
C977 C981 1.376 . S
C978 C976 1.394 1_455 S
C978 C979 1.369 . S
C978 C982 1.531 1_455 S
C979 C978 1.369 . S
C979 C980 1.413 1_556 S
C979 C987 1.503 1_556 S
C980 C979 1.413 1_554 S
C980 C981 1.378 1_554 S
C980 C983 1.522 . S
C981 C977 1.376 . S
C981 C980 1.378 1_556 S
C981 H993 0.929 . S
C982 C978 1.531 1_655 S
C982 H994 0.960 . S
C982 H995 0.962 . S
C982 H996 0.960 . S
C983 C980 1.522 . S
C983 H997 0.961 . S
C983 H998 0.961 . S
C983 H999 0.961 . S
C984 C985 1.370 . S
C984 C986 1.363 . S
C984 H1000 0.931 . S
C985 C984 1.370 . S
C985 C989 1.408 . S
C986 C984 1.363 . S
C986 C987 1.370 . S
C986 C990 1.524 . S
C987 C979 1.503 1_554 S
C987 C986 1.370 . S
C987 C988 1.403 1_554 S
C988 C987 1.403 1_556 S
C988 C989 1.404 1_556 S
C988 C991 1.539 . S
C989 C985 1.408 . S
C989 C988 1.404 1_554 S
C989 H1001 0.930 . S
C990 C986 1.524 . S
C990 H1002 0.952 . S
C990 H1003 0.961 . S
C990 H1004 0.961 . S
C991 C988 1.539 . S
C991 H1005 0.958 . S
C991 H1006 0.961 . S
C991 H1007 0.960 . S
H992 C976 0.931 . S
H993 C981 0.929 . S
H994 C982 0.960 . S
H995 C982 0.962 . S
H996 C982 0.960 . S
H997 C983 0.961 . S
H998 C983 0.961 . S
H999 C983 0.961 . S
H1000 C984 0.931 . S
H1001 C989 0.930 . S
H1002 C990 0.952 . S
H1003 C990 0.961 . S
H1004 C990 0.961 . S
H1005 C991 0.958 . S
H1006 C991 0.961 . S
H1007 C991 0.960 . S
C1008 C1009 1.391 . S
C1008 C1010 1.394 . S
C1008 H1024 0.931 . S
C1009 C1008 1.391 . S
C1009 C1013 1.376 . S
C1010 C1008 1.394 . S
C1010 C1011 1.369 . S
C1010 C1014 1.531 . S
C1011 C1010 1.369 . S
C1011 C1012 1.410 . S
C1011 C1019 1.503 . S
C1012 C1011 1.410 . S
C1012 C1013 1.392 . S
C1012 C1015 1.511 . S
C1013 C1009 1.376 . S
C1013 C1012 1.392 . S
C1013 H1025 0.929 . S
C1014 C1010 1.531 . S
C1014 H1026 0.960 . S
C1014 H1027 0.962 . S
C1014 H1028 0.960 . S
C1015 C1012 1.511 . S
C1015 H1029 0.961 . S
C1015 H1030 0.961 . S
C1015 H1031 0.961 . S
C1016 C1017 1.370 . S
C1016 C1018 1.363 . S
C1016 H1032 0.931 . S
C1017 C1016 1.370 . S
C1017 C1021 1.408 . S
C1018 C1016 1.363 . S
C1018 C1019 1.370 . S
C1018 C1022 1.524 . S
C1019 C1011 1.503 . S
C1019 C1018 1.370 . S
C1019 C1020 1.403 . S
C1020 C1019 1.403 . S
C1020 C1021 1.404 . S
C1020 C1023 1.539 . S
C1021 C1017 1.408 . S
C1021 C1020 1.404 . S
C1021 H1033 0.930 . S
C1022 C1018 1.524 . S
C1022 H1034 0.956 . S
C1022 H1035 0.961 . S
C1022 H1036 0.961 . S
C1023 C1020 1.539 . S
C1023 H1037 0.958 . S
C1023 H1038 0.961 . S
C1023 H1039 0.960 . S
H1024 C1008 0.931 . S
H1025 C1013 0.929 . S
H1026 C1014 0.960 . S
H1027 C1014 0.962 . S
H1028 C1014 0.960 . S
H1029 C1015 0.961 . S
H1030 C1015 0.961 . S
H1031 C1015 0.961 . S
H1032 C1016 0.931 . S
H1033 C1021 0.930 . S
H1034 C1022 0.956 . S
H1035 C1022 0.961 . S
H1036 C1022 0.961 . S
H1037 C1023 0.958 . S
H1038 C1023 0.961 . S
H1039 C1023 0.960 . S
C1040 C1041 1.391 . S
C1040 C1042 1.394 . S
C1040 H1056 0.931 . S
C1041 C1040 1.391 . S
C1041 C1045 1.376 . S
C1042 C1040 1.394 . S
C1042 C1043 1.369 . S
C1042 C1046 1.531 . S
C1043 C1042 1.369 . S
C1043 C1044 1.410 . S
C1043 C1051 1.503 . S
C1044 C1043 1.410 . S
C1044 C1045 1.392 . S
C1044 C1047 1.511 . S
C1045 C1041 1.376 . S
C1045 C1044 1.392 . S
C1045 H1057 0.929 . S
C1046 C1042 1.531 . S
C1046 H1058 0.960 . S
C1046 H1059 0.962 . S
C1046 H1060 0.960 . S
C1047 C1044 1.511 . S
C1047 H1061 0.961 . S
C1047 H1062 0.961 . S
C1047 H1063 0.961 . S
C1048 C1049 1.370 . S
C1048 C1050 1.363 . S
C1048 H1064 0.931 . S
C1049 C1048 1.370 . S
C1049 C1053 1.408 . S
C1050 C1048 1.363 . S
C1050 C1051 1.370 . S
C1050 C1054 1.524 . S
C1051 C1043 1.503 . S
C1051 C1050 1.370 . S
C1051 C1052 1.403 . S
C1052 C1051 1.403 . S
C1052 C1053 1.404 . S
C1052 C1055 1.539 . S
C1053 C1049 1.408 . S
C1053 C1052 1.404 . S
C1053 H1065 0.930 . S
C1054 C1050 1.524 . S
C1054 H1066 0.956 . S
C1054 H1067 0.961 . S
C1054 H1068 0.961 . S
C1055 C1052 1.539 . S
C1055 H1069 0.958 . S
C1055 H1070 0.961 . S
C1055 H1071 0.960 . S
H1056 C1040 0.931 . S
H1057 C1045 0.929 . S
H1058 C1046 0.960 . S
H1059 C1046 0.962 . S
H1060 C1046 0.960 . S
H1061 C1047 0.961 . S
H1062 C1047 0.961 . S
H1063 C1047 0.961 . S
H1064 C1048 0.931 . S
H1065 C1053 0.930 . S
H1066 C1054 0.956 . S
H1067 C1054 0.961 . S
H1068 C1054 0.961 . S
H1069 C1055 0.958 . S
H1070 C1055 0.961 . S
H1071 C1055 0.960 . S
C1072 C1073 1.391 . S
C1072 C1074 1.394 . S
C1072 H1088 0.931 . S
C1073 C1072 1.391 . S
C1073 C1077 1.376 . S
C1074 C1072 1.394 . S
C1074 C1075 1.369 . S
C1074 C1078 1.531 . S
C1075 C1074 1.369 . S
C1075 C1076 1.410 . S
C1075 C1083 1.503 . S
C1076 C1075 1.410 . S
C1076 C1077 1.392 . S
C1076 C1079 1.511 . S
C1077 C1073 1.376 . S
C1077 C1076 1.392 . S
C1077 H1089 0.929 . S
C1078 C1074 1.531 . S
C1078 H1090 0.960 . S
C1078 H1091 0.962 . S
C1078 H1092 0.960 . S
C1079 C1076 1.511 . S
C1079 H1093 0.961 . S
C1079 H1094 0.961 . S
C1079 H1095 0.961 . S
C1080 C1081 1.370 . S
C1080 C1082 1.363 . S
C1080 H1096 0.931 . S
C1081 C1080 1.370 . S
C1081 C1085 1.408 . S
C1082 C1080 1.363 . S
C1082 C1083 1.370 . S
C1082 C1086 1.524 . S
C1083 C1075 1.503 . S
C1083 C1082 1.370 . S
C1083 C1084 1.403 . S
C1084 C1083 1.403 . S
C1084 C1085 1.404 . S
C1084 C1087 1.539 . S
C1085 C1081 1.408 . S
C1085 C1084 1.404 . S
C1085 H1097 0.930 . S
C1086 C1082 1.524 . S
C1086 H1098 0.956 . S
C1086 H1099 0.961 . S
C1086 H1100 0.961 . S
C1087 C1084 1.539 . S
C1087 H1101 0.958 . S
C1087 H1102 0.961 . S
C1087 H1103 0.960 . S
H1088 C1072 0.931 . S
H1089 C1077 0.929 . S
H1090 C1078 0.960 . S
H1091 C1078 0.962 . S
H1092 C1078 0.960 . S
H1093 C1079 0.961 . S
H1094 C1079 0.961 . S
H1095 C1079 0.961 . S
H1096 C1080 0.931 . S
H1097 C1085 0.930 . S
H1098 C1086 0.956 . S
H1099 C1086 0.961 . S
H1100 C1086 0.961 . S
H1101 C1087 0.958 . S
H1102 C1087 0.961 . S
H1103 C1087 0.960 . S
C1104 C1105 1.391 . S
C1104 C1106 1.394 . S
C1104 H1120 0.931 . S
C1105 C1104 1.391 . S
C1105 C1109 1.376 . S
C1106 C1104 1.394 . S
C1106 C1107 1.369 . S
C1106 C1110 1.531 . S
C1107 C1106 1.369 . S
C1107 C1108 1.410 . S
C1107 C1115 1.503 . S
C1108 C1107 1.410 . S
C1108 C1109 1.392 . S
C1108 C1111 1.511 . S
C1109 C1105 1.376 . S
C1109 C1108 1.392 . S
C1109 H1121 0.929 . S
C1110 C1106 1.531 . S
C1110 H1122 0.960 . S
C1110 H1123 0.962 . S
C1110 H1124 0.960 . S
C1111 C1108 1.511 . S
C1111 H1125 0.961 . S
C1111 H1126 0.961 . S
C1111 H1127 0.961 . S
C1112 C1113 1.370 . S
C1112 C1114 1.363 . S
C1112 H1128 0.931 . S
C1113 C1112 1.370 . S
C1113 C1117 1.408 . S
C1114 C1112 1.363 . S
C1114 C1115 1.370 . S
C1114 C1118 1.524 . S
C1115 C1107 1.503 . S
C1115 C1114 1.370 . S
C1115 C1116 1.403 . S
C1116 C1115 1.403 . S
C1116 C1117 1.404 . S
C1116 C1119 1.539 . S
C1117 C1113 1.408 . S
C1117 C1116 1.404 . S
C1117 H1129 0.930 . S
C1118 C1114 1.524 . S
C1118 H1130 0.956 . S
C1118 H1131 0.961 . S
C1118 H1132 0.961 . S
C1119 C1116 1.539 . S
C1119 H1133 0.958 . S
C1119 H1134 0.961 . S
C1119 H1135 0.960 . S
H1120 C1104 0.931 . S
H1121 C1109 0.929 . S
H1122 C1110 0.960 . S
H1123 C1110 0.962 . S
H1124 C1110 0.960 . S
H1125 C1111 0.961 . S
H1126 C1111 0.961 . S
H1127 C1111 0.961 . S
H1128 C1112 0.931 . S
H1129 C1117 0.930 . S
H1130 C1118 0.956 . S
H1131 C1118 0.961 . S
H1132 C1118 0.961 . S
H1133 C1119 0.958 . S
H1134 C1119 0.961 . S
H1135 C1119 0.960 . S
C1136 C1137 1.391 . S
C1136 C1138 1.394 . S
C1136 H1152 0.931 . S
C1137 C1136 1.391 . S
C1137 C1141 1.376 . S
C1138 C1136 1.394 . S
C1138 C1139 1.369 . S
C1138 C1142 1.531 . S
C1139 C1138 1.369 . S
C1139 C1140 1.410 . S
C1139 C1147 1.503 . S
C1140 C1139 1.410 . S
C1140 C1141 1.392 . S
C1140 C1143 1.511 . S
C1141 C1137 1.376 . S
C1141 C1140 1.392 . S
C1141 H1153 0.929 . S
C1142 C1138 1.531 . S
C1142 H1154 0.960 . S
C1142 H1155 0.962 . S
C1142 H1156 0.960 . S
C1143 C1140 1.511 . S
C1143 H1157 0.961 . S
C1143 H1158 0.961 . S
C1143 H1159 0.961 . S
C1144 C1145 1.370 . S
C1144 C1146 1.363 . S
C1144 H1160 0.931 . S
C1145 C1144 1.370 . S
C1145 C1149 1.408 . S
C1146 C1144 1.363 . S
C1146 C1147 1.370 . S
C1146 C1150 1.524 . S
C1147 C1139 1.503 . S
C1147 C1146 1.370 . S
C1147 C1148 1.403 . S
C1148 C1147 1.403 . S
C1148 C1149 1.404 . S
C1148 C1151 1.539 . S
C1149 C1145 1.408 . S
C1149 C1148 1.404 . S
C1149 H1161 0.930 . S
C1150 C1146 1.524 . S
C1150 H1162 0.956 . S
C1150 H1163 0.961 . S
C1150 H1164 0.961 . S
C1151 C1148 1.539 . S
C1151 H1165 0.958 . S
C1151 H1166 0.961 . S
C1151 H1167 0.960 . S
H1152 C1136 0.931 . S
H1153 C1141 0.929 . S
H1154 C1142 0.960 . S
H1155 C1142 0.962 . S
H1156 C1142 0.960 . S
H1157 C1143 0.961 . S
H1158 C1143 0.961 . S
H1159 C1143 0.961 . S
H1160 C1144 0.931 . S
H1161 C1149 0.930 . S
H1162 C1150 0.956 . S
H1163 C1150 0.961 . S
H1164 C1150 0.961 . S
H1165 C1151 0.958 . S
H1166 C1151 0.961 . S
H1167 C1151 0.960 . S
C1168 C1169 1.391 . S
C1168 C1170 1.394 . S
C1168 H1184 0.931 . S
C1169 C1168 1.391 . S
C1169 C1173 1.376 . S
C1170 C1168 1.394 . S
C1170 C1171 1.369 . S
C1170 C1174 1.531 . S
C1171 C1170 1.369 . S
C1171 C1172 1.410 . S
C1171 C1179 1.503 . S
C1172 C1171 1.410 . S
C1172 C1173 1.392 . S
C1172 C1175 1.511 . S
C1173 C1169 1.376 . S
C1173 C1172 1.392 . S
C1173 H1185 0.929 . S
C1174 C1170 1.531 . S
C1174 H1186 0.960 . S
C1174 H1187 0.962 . S
C1174 H1188 0.960 . S
C1175 C1172 1.511 . S
C1175 H1189 0.961 . S
C1175 H1190 0.961 . S
C1175 H1191 0.961 . S
C1176 C1177 1.370 . S
C1176 C1178 1.363 . S
C1176 H1192 0.931 . S
C1177 C1176 1.370 . S
C1177 C1181 1.408 . S
C1178 C1176 1.363 . S
C1178 C1179 1.370 . S
C1178 C1182 1.524 . S
C1179 C1171 1.503 . S
C1179 C1178 1.370 . S
C1179 C1180 1.403 . S
C1180 C1179 1.403 . S
C1180 C1181 1.404 . S
C1180 C1183 1.539 . S
C1181 C1177 1.408 . S
C1181 C1180 1.404 . S
C1181 H1193 0.930 . S
C1182 C1178 1.524 . S
C1182 H1194 0.956 . S
C1182 H1195 0.961 . S
C1182 H1196 0.961 . S
C1183 C1180 1.539 . S
C1183 H1197 0.958 . S
C1183 H1198 0.961 . S
C1183 H1199 0.960 . S
H1184 C1168 0.931 . S
H1185 C1173 0.929 . S
H1186 C1174 0.960 . S
H1187 C1174 0.962 . S
H1188 C1174 0.960 . S
H1189 C1175 0.961 . S
H1190 C1175 0.961 . S
H1191 C1175 0.961 . S
H1192 C1176 0.931 . S
H1193 C1181 0.930 . S
H1194 C1182 0.956 . S
H1195 C1182 0.961 . S
H1196 C1182 0.961 . S
H1197 C1183 0.958 . S
H1198 C1183 0.961 . S
H1199 C1183 0.960 . S
C1200 C1201 1.391 . S
C1200 C1202 1.394 . S
C1200 H1216 0.931 . S
C1201 C1200 1.391 . S
C1201 C1205 1.376 . S
C1202 C1200 1.394 . S
C1202 C1203 1.369 . S
C1202 C1206 1.531 . S
C1203 C1202 1.369 . S
C1203 C1204 1.410 . S
C1203 C1211 1.503 . S
C1204 C1203 1.410 . S
C1204 C1205 1.392 . S
C1204 C1207 1.511 . S
C1205 C1201 1.376 . S
C1205 C1204 1.392 . S
C1205 H1217 0.929 . S
C1206 C1202 1.531 . S
C1206 H1218 0.960 . S
C1206 H1219 0.962 . S
C1206 H1220 0.960 . S
C1207 C1204 1.511 . S
C1207 H1221 0.961 . S
C1207 H1222 0.961 . S
C1207 H1223 0.961 . S
C1208 C1209 1.370 . S
C1208 C1210 1.363 . S
C1208 H1224 0.931 . S
C1209 C1208 1.370 . S
C1209 C1213 1.408 . S
C1210 C1208 1.363 . S
C1210 C1211 1.370 . S
C1210 C1214 1.524 . S
C1211 C1203 1.503 . S
C1211 C1210 1.370 . S
C1211 C1212 1.403 . S
C1212 C1211 1.403 . S
C1212 C1213 1.404 . S
C1212 C1215 1.539 . S
C1213 C1209 1.408 . S
C1213 C1212 1.404 . S
C1213 H1225 0.930 . S
C1214 C1210 1.524 . S
C1214 H1226 0.956 . S
C1214 H1227 0.961 . S
C1214 H1228 0.961 . S
C1215 C1212 1.539 . S
C1215 H1229 0.958 . S
C1215 H1230 0.961 . S
C1215 H1231 0.960 . S
H1216 C1200 0.931 . S
H1217 C1205 0.929 . S
H1218 C1206 0.960 . S
H1219 C1206 0.962 . S
H1220 C1206 0.960 . S
H1221 C1207 0.961 . S
H1222 C1207 0.961 . S
H1223 C1207 0.961 . S
H1224 C1208 0.931 . S
H1225 C1213 0.930 . S
H1226 C1214 0.956 . S
H1227 C1214 0.961 . S
H1228 C1214 0.961 . S
H1229 C1215 0.958 . S
H1230 C1215 0.961 . S
H1231 C1215 0.960 . S
C1232 C1233 1.391 1_565 S
C1232 C1234 1.392 1_565 S
C1232 H1248 0.931 . S
C1233 C1232 1.391 1_545 S
C1233 C1237 1.376 . S
C1234 C1232 1.392 1_545 S
C1234 C1235 1.374 . S
C1234 C1238 1.527 1_645 S
C1235 C1234 1.374 . S
C1235 C1236 1.410 . S
C1235 C1243 1.503 . S
C1236 C1235 1.410 . S
C1236 C1237 1.392 . S
C1236 C1239 1.511 . S
C1237 C1233 1.376 . S
C1237 C1236 1.392 . S
C1237 H1249 0.929 . S
C1238 C1234 1.527 1_465 S
C1238 H1250 0.960 . S
C1238 H1251 0.962 1_565 S
C1238 H1252 0.960 . S
C1239 C1236 1.511 . S
C1239 H1253 0.961 . S
C1239 H1254 0.961 . S
C1239 H1255 0.952 1_545 S
C1240 C1241 1.370 . S
C1240 C1242 1.363 . S
C1240 H1256 0.931 . S
C1241 C1240 1.370 . S
C1241 C1245 1.397 1_545 S
C1242 C1240 1.363 . S
C1242 C1243 1.370 1_455 S
C1242 C1246 1.524 . S
C1243 C1235 1.503 . S
C1243 C1242 1.370 1_655 S
C1243 C1244 1.403 1_545 S
C1244 C1243 1.403 1_565 S
C1244 C1245 1.407 1_655 S
C1244 C1247 1.539 . S
C1245 C1241 1.397 1_565 S
C1245 C1244 1.407 1_455 S
C1245 H1257 0.938 . S
C1246 C1242 1.524 . S
C1246 H1258 0.956 . S
C1246 H1259 0.961 1_455 S
C1246 H1260 0.961 . S
C1247 C1244 1.539 . S
C1247 H1261 0.958 . S
C1247 H1262 0.961 . S
C1247 H1263 0.960 . S
H1248 C1232 0.931 . S
H1249 C1237 0.929 . S
H1250 C1238 0.960 . S
H1251 C1238 0.962 1_545 S
H1252 C1238 0.960 . S
H1253 C1239 0.961 . S
H1254 C1239 0.961 . S
H1255 C1239 0.952 1_565 S
H1256 C1240 0.931 . S
H1257 C1245 0.938 . S
H1258 C1246 0.956 . S
H1259 C1246 0.961 1_655 S
H1260 C1246 0.961 . S
H1261 C1247 0.958 . S
H1262 C1247 0.961 . S
H1263 C1247 0.960 . S
C1264 C1265 1.391 . S
C1264 C1266 1.394 . S
C1264 H1280 0.931 . S
C1265 C1264 1.391 . S
C1265 C1269 1.376 . S
C1266 C1264 1.394 . S
C1266 C1267 1.369 . S
C1266 C1270 1.531 . S
C1267 C1266 1.369 . S
C1267 C1268 1.410 . S
C1267 C1275 1.503 . S
C1268 C1267 1.410 . S
C1268 C1269 1.392 . S
C1268 C1271 1.511 . S
C1269 C1265 1.376 . S
C1269 C1268 1.392 . S
C1269 H1281 0.929 . S
C1270 C1266 1.531 . S
C1270 H1282 0.960 . S
C1270 H1283 0.962 . S
C1270 H1284 0.960 . S
C1271 C1268 1.511 . S
C1271 H1285 0.961 . S
C1271 H1286 0.961 . S
C1271 H1287 0.961 . S
C1272 C1273 1.370 . S
C1272 C1274 1.363 . S
C1272 H1288 0.931 . S
C1273 C1272 1.370 . S
C1273 C1277 1.408 . S
C1274 C1272 1.363 . S
C1274 C1275 1.370 . S
C1274 C1278 1.524 . S
C1275 C1267 1.503 . S
C1275 C1274 1.370 . S
C1275 C1276 1.403 . S
C1276 C1275 1.403 . S
C1276 C1277 1.404 . S
C1276 C1279 1.539 . S
C1277 C1273 1.408 . S
C1277 C1276 1.404 . S
C1277 H1289 0.930 . S
C1278 C1274 1.524 . S
C1278 H1290 0.956 . S
C1278 H1291 0.961 . S
C1278 H1292 0.961 . S
C1279 C1276 1.539 . S
C1279 H1293 0.958 . S
C1279 H1294 0.961 . S
C1279 H1295 0.960 . S
H1280 C1264 0.931 . S
H1281 C1269 0.929 . S
H1282 C1270 0.960 . S
H1283 C1270 0.962 . S
H1284 C1270 0.960 . S
H1285 C1271 0.961 . S
H1286 C1271 0.961 . S
H1287 C1271 0.961 . S
H1288 C1272 0.931 . S
H1289 C1277 0.930 . S
H1290 C1278 0.956 . S
H1291 C1278 0.961 . S
H1292 C1278 0.961 . S
H1293 C1279 0.958 . S
H1294 C1279 0.961 . S
H1295 C1279 0.960 . S
C1296 C1297 1.391 . S
C1296 C1298 1.394 . S
C1296 H1312 0.931 . S
C1297 C1296 1.391 . S
C1297 C1301 1.376 . S
C1298 C1296 1.394 . S
C1298 C1299 1.369 . S
C1298 C1302 1.531 . S
C1299 C1298 1.369 . S
C1299 C1300 1.410 . S
C1299 C1307 1.503 . S
C1300 C1299 1.410 . S
C1300 C1301 1.392 . S
C1300 C1303 1.511 . S
C1301 C1297 1.376 . S
C1301 C1300 1.392 . S
C1301 H1313 0.929 . S
C1302 C1298 1.531 . S
C1302 H1314 0.960 . S
C1302 H1315 0.962 1_545 S
C1302 H1316 0.960 . S
C1303 C1300 1.511 . S
C1303 H1317 0.961 . S
C1303 H1318 0.961 . S
C1303 H1319 0.961 . S
C1304 C1305 1.370 1_565 S
C1304 C1306 1.363 . S
C1304 H1320 0.931 . S
C1305 C1304 1.370 1_545 S
C1305 C1309 1.408 . S
C1306 C1304 1.363 . S
C1306 C1307 1.370 1_565 S
C1306 C1310 1.524 . S
C1307 C1299 1.503 . S
C1307 C1306 1.370 1_545 S
C1307 C1308 1.403 . S
C1308 C1307 1.403 . S
C1308 C1309 1.404 . S
C1308 C1311 1.539 . S
C1309 C1305 1.408 . S
C1309 C1308 1.404 . S
C1309 H1321 0.930 . S
C1310 C1306 1.524 . S
C1310 H1322 0.956 . S
C1310 H1323 0.961 . S
C1310 H1324 0.961 . S
C1311 C1308 1.539 . S
C1311 H1325 0.958 . S
C1311 H1326 0.961 . S
C1311 H1327 0.960 . S
H1312 C1296 0.931 . S
H1313 C1301 0.929 . S
H1314 C1302 0.960 . S
H1315 C1302 0.962 1_565 S
H1316 C1302 0.960 . S
H1317 C1303 0.961 . S
H1318 C1303 0.961 . S
H1319 C1303 0.961 . S
H1320 C1304 0.931 . S
H1321 C1309 0.930 . S
H1322 C1310 0.956 . S
H1323 C1310 0.961 . S
H1324 C1310 0.961 . S
H1325 C1311 0.958 . S
H1326 C1311 0.961 . S
H1327 C1311 0.960 . S
C1328 C1329 1.391 . S
C1328 C1330 1.394 . S
C1328 H1344 0.931 . S
C1329 C1328 1.391 . S
C1329 C1333 1.376 . S
C1330 C1328 1.394 . S
C1330 C1331 1.369 . S
C1330 C1334 1.531 . S
C1331 C1330 1.369 . S
C1331 C1332 1.410 . S
C1331 C1339 1.503 . S
C1332 C1331 1.410 . S
C1332 C1333 1.392 . S
C1332 C1335 1.511 . S
C1333 C1329 1.376 . S
C1333 C1332 1.392 . S
C1333 H1345 0.929 . S
C1334 C1330 1.531 . S
C1334 H1346 0.960 . S
C1334 H1347 0.962 . S
C1334 H1348 0.960 . S
C1335 C1332 1.511 . S
C1335 H1349 0.961 . S
C1335 H1350 0.961 . S
C1335 H1351 0.961 . S
C1336 C1337 1.370 . S
C1336 C1338 1.363 . S
C1336 H1352 0.931 . S
C1337 C1336 1.370 . S
C1337 C1341 1.408 . S
C1338 C1336 1.363 . S
C1338 C1339 1.370 . S
C1338 C1342 1.524 . S
C1339 C1331 1.503 . S
C1339 C1338 1.370 . S
C1339 C1340 1.403 . S
C1340 C1339 1.403 . S
C1340 C1341 1.404 . S
C1340 C1343 1.539 . S
C1341 C1337 1.408 . S
C1341 C1340 1.404 . S
C1341 H1353 0.930 . S
C1342 C1338 1.524 . S
C1342 H1354 0.956 . S
C1342 H1355 0.961 . S
C1342 H1356 0.961 . S
C1343 C1340 1.539 . S
C1343 H1357 0.958 . S
C1343 H1358 0.961 . S
C1343 H1359 0.960 . S
H1344 C1328 0.931 . S
H1345 C1333 0.929 . S
H1346 C1334 0.960 . S
H1347 C1334 0.962 . S
H1348 C1334 0.960 . S
H1349 C1335 0.961 . S
H1350 C1335 0.961 . S
H1351 C1335 0.961 . S
H1352 C1336 0.931 . S
H1353 C1341 0.930 . S
H1354 C1342 0.956 . S
H1355 C1342 0.961 . S
H1356 C1342 0.961 . S
H1357 C1343 0.958 . S
H1358 C1343 0.961 . S
H1359 C1343 0.960 . S
C1360 C1361 1.385 1_565 S
C1360 C1362 1.399 1_565 S
C1360 H1376 0.932 . S
C1361 C1360 1.385 1_545 S
C1361 C1365 1.376 . S
C1362 C1360 1.399 1_545 S
C1362 C1363 1.369 . S
C1362 C1366 1.532 1_545 S
C1363 C1362 1.369 . S
C1363 C1364 1.410 . S
C1363 C1371 1.503 . S
C1364 C1363 1.410 . S
C1364 C1365 1.392 . S
C1364 C1367 1.511 1_655 S
C1365 C1361 1.376 . S
C1365 C1364 1.392 . S
C1365 H1377 0.929 . S
C1366 C1362 1.532 1_565 S
C1366 H1378 0.960 . S
C1366 H1379 0.962 1_565 S
C1366 H1380 0.960 . S
C1367 C1364 1.511 1_455 S
C1367 H1381 0.961 . S
C1367 H1382 0.961 . S
C1367 H1383 0.961 . S
C1368 C1369 1.370 . S
C1368 C1370 1.363 1_455 S
C1368 H1384 0.931 . S
C1369 C1368 1.370 . S
C1369 C1373 1.408 1_545 S
C1370 C1368 1.363 1_655 S
C1370 C1371 1.370 . S
C1370 C1374 1.524 . S
C1371 C1363 1.503 . S
C1371 C1370 1.370 . S
C1371 C1372 1.420 1_545 S
C1372 C1371 1.420 1_565 S
C1372 C1373 1.391 1_655 S
C1372 C1375 1.533 . S
C1373 C1369 1.408 1_565 S
C1373 C1372 1.391 1_455 S
C1373 H1385 0.930 . S
C1374 C1370 1.524 . S
C1374 H1386 0.956 . S
C1374 H1387 0.961 . S
C1374 H1388 0.961 . S
C1375 C1372 1.533 . S
C1375 H1389 0.958 . S
C1375 H1390 0.961 1_655 S
C1375 H1391 0.960 . S
H1376 C1360 0.932 . S
H1377 C1365 0.929 . S
H1378 C1366 0.960 . S
H1379 C1366 0.962 1_545 S
H1380 C1366 0.960 . S
H1381 C1367 0.961 . S
H1382 C1367 0.961 . S
H1383 C1367 0.961 . S
H1384 C1368 0.931 . S
H1385 C1373 0.930 . S
H1386 C1374 0.956 . S
H1387 C1374 0.961 . S
H1388 C1374 0.961 . S
H1389 C1375 0.958 . S
H1390 C1375 0.961 1_455 S
H1391 C1375 0.960 . S
C1392 C1393 1.391 . S
C1392 C1394 1.394 . S
C1392 H1408 0.931 . S
C1393 C1392 1.391 . S
C1393 C1397 1.376 . S
C1394 C1392 1.394 . S
C1394 C1395 1.369 . S
C1394 C1398 1.531 . S
C1395 C1394 1.369 . S
C1395 C1396 1.410 . S
C1395 C1403 1.503 . S
C1396 C1395 1.410 . S
C1396 C1397 1.392 . S
C1396 C1399 1.511 . S
C1397 C1393 1.376 . S
C1397 C1396 1.392 . S
C1397 H1409 0.929 . S
C1398 C1394 1.531 . S
C1398 H1410 0.960 . S
C1398 H1411 0.962 . S
C1398 H1412 0.960 . S
C1399 C1396 1.511 . S
C1399 H1413 0.961 . S
C1399 H1414 0.961 . S
C1399 H1415 0.961 . S
C1400 C1401 1.370 . S
C1400 C1402 1.363 . S
C1400 H1416 0.931 . S
C1401 C1400 1.370 . S
C1401 C1405 1.408 . S
C1402 C1400 1.363 . S
C1402 C1403 1.370 . S
C1402 C1406 1.524 . S
C1403 C1395 1.503 . S
C1403 C1402 1.370 . S
C1403 C1404 1.403 . S
C1404 C1403 1.403 . S
C1404 C1405 1.404 . S
C1404 C1407 1.539 . S
C1405 C1401 1.408 . S
C1405 C1404 1.404 . S
C1405 H1417 0.930 . S
C1406 C1402 1.524 . S
C1406 H1418 0.956 . S
C1406 H1419 0.961 . S
C1406 H1420 0.961 . S
C1407 C1404 1.539 . S
C1407 H1421 0.958 . S
C1407 H1422 0.961 . S
C1407 H1423 0.960 . S
H1408 C1392 0.931 . S
H1409 C1397 0.929 . S
H1410 C1398 0.960 . S
H1411 C1398 0.962 . S
H1412 C1398 0.960 . S
H1413 C1399 0.961 . S
H1414 C1399 0.961 . S
H1415 C1399 0.961 . S
H1416 C1400 0.931 . S
H1417 C1405 0.930 . S
H1418 C1406 0.956 . S
H1419 C1406 0.961 . S
H1420 C1406 0.961 . S
H1421 C1407 0.958 . S
H1422 C1407 0.961 . S
H1423 C1407 0.960 . S
C1424 C1425 1.391 . S
C1424 C1426 1.394 . S
C1424 H1440 0.931 1_545 S
C1425 C1424 1.391 . S
C1425 C1429 1.376 . S
C1426 C1424 1.394 . S
C1426 C1427 1.369 . S
C1426 C1430 1.531 1_545 S
C1427 C1426 1.369 . S
C1427 C1428 1.410 . S
C1427 C1435 1.503 . S
C1428 C1427 1.410 . S
C1428 C1429 1.392 . S
C1428 C1431 1.511 . S
C1429 C1425 1.376 . S
C1429 C1428 1.392 . S
C1429 H1441 0.929 . S
C1430 C1426 1.531 1_565 S
C1430 H1442 0.960 . S
C1430 H1443 0.962 . S
C1430 H1444 0.960 . S
C1431 C1428 1.511 . S
C1431 H1445 0.961 . S
C1431 H1446 0.961 . S
C1431 H1447 0.961 . S
C1432 C1433 1.370 . S
C1432 C1434 1.363 . S
C1432 H1448 0.931 . S
C1433 C1432 1.370 . S
C1433 C1437 1.408 . S
C1434 C1432 1.363 . S
C1434 C1435 1.370 . S
C1434 C1438 1.524 . S
C1435 C1427 1.503 . S
C1435 C1434 1.370 . S
C1435 C1436 1.403 . S
C1436 C1435 1.403 . S
C1436 C1437 1.404 . S
C1436 C1439 1.539 1_545 S
C1437 C1433 1.408 . S
C1437 C1436 1.404 . S
C1437 H1449 0.930 . S
C1438 C1434 1.524 . S
C1438 H1450 0.956 . S
C1438 H1451 0.961 . S
C1438 H1452 0.961 . S
C1439 C1436 1.539 1_565 S
C1439 H1453 0.958 . S
C1439 H1454 0.961 . S
C1439 H1455 0.960 1_565 S
H1440 C1424 0.931 1_565 S
H1441 C1429 0.929 . S
H1442 C1430 0.960 . S
H1443 C1430 0.962 . S
H1444 C1430 0.960 . S
H1445 C1431 0.961 . S
H1446 C1431 0.961 . S
H1447 C1431 0.961 . S
H1448 C1432 0.931 . S
H1449 C1437 0.930 . S
H1450 C1438 0.956 . S
H1451 C1438 0.961 . S
H1452 C1438 0.961 . S
H1453 C1439 0.958 . S
H1454 C1439 0.961 . S
H1455 C1439 0.960 1_545 S
C1456 C1457 1.391 . S
C1456 C1458 1.394 . S
C1456 H1472 0.931 . S
C1457 C1456 1.391 . S
C1457 C1461 1.376 . S
C1458 C1456 1.394 . S
C1458 C1459 1.369 . S
C1458 C1462 1.531 . S
C1459 C1458 1.369 . S
C1459 C1460 1.410 . S
C1459 C1467 1.503 . S
C1460 C1459 1.410 . S
C1460 C1461 1.392 . S
C1460 C1463 1.511 . S
C1461 C1457 1.376 . S
C1461 C1460 1.392 . S
C1461 H1473 0.929 . S
C1462 C1458 1.531 . S
C1462 H1474 0.960 . S
C1462 H1475 0.962 . S
C1462 H1476 0.960 . S
C1463 C1460 1.511 . S
C1463 H1477 0.961 . S
C1463 H1478 0.961 . S
C1463 H1479 0.961 . S
C1464 C1465 1.370 . S
C1464 C1466 1.363 . S
C1464 H1480 0.931 . S
C1465 C1464 1.370 . S
C1465 C1469 1.408 . S
C1466 C1464 1.363 . S
C1466 C1467 1.370 . S
C1466 C1470 1.524 . S
C1467 C1459 1.503 . S
C1467 C1466 1.370 . S
C1467 C1468 1.403 . S
C1468 C1467 1.403 . S
C1468 C1469 1.404 . S
C1468 C1471 1.539 . S
C1469 C1465 1.408 . S
C1469 C1468 1.404 . S
C1469 H1481 0.930 . S
C1470 C1466 1.524 . S
C1470 H1482 0.956 . S
C1470 H1483 0.961 . S
C1470 H1484 0.961 . S
C1471 C1468 1.539 . S
C1471 H1485 0.958 . S
C1471 H1486 0.961 . S
C1471 H1487 0.960 . S
H1472 C1456 0.931 . S
H1473 C1461 0.929 . S
H1474 C1462 0.960 . S
H1475 C1462 0.962 . S
H1476 C1462 0.960 . S
H1477 C1463 0.961 . S
H1478 C1463 0.961 . S
H1479 C1463 0.961 . S
H1480 C1464 0.931 . S
H1481 C1469 0.930 . S
H1482 C1470 0.956 . S
H1483 C1470 0.961 . S
H1484 C1470 0.961 . S
H1485 C1471 0.958 . S
H1486 C1471 0.961 . S
H1487 C1471 0.960 . S
C1488 C1489 1.391 . S
C1488 C1490 1.394 . S
C1488 H1504 0.931 1_554 S
C1489 C1488 1.391 . S
C1489 C1493 1.376 . S
C1490 C1488 1.394 . S
C1490 C1491 1.369 . S
C1490 C1494 1.531 . S
C1491 C1490 1.369 . S
C1491 C1492 1.410 . S
C1491 C1499 1.503 . S
C1492 C1491 1.410 . S
C1492 C1493 1.392 . S
C1492 C1495 1.511 . S
C1493 C1489 1.376 . S
C1493 C1492 1.392 . S
C1493 H1505 0.929 . S
C1494 C1490 1.531 . S
C1494 H1506 0.960 . S
C1494 H1507 0.962 . S
C1494 H1508 0.960 . S
C1495 C1492 1.511 . S
C1495 H1509 0.961 . S
C1495 H1510 0.961 . S
C1495 H1511 0.961 . S
C1496 C1497 1.370 . S
C1496 C1498 1.363 . S
C1496 H1512 0.931 . S
C1497 C1496 1.370 . S
C1497 C1501 1.408 . S
C1498 C1496 1.363 . S
C1498 C1499 1.370 . S
C1498 C1502 1.524 . S
C1499 C1491 1.503 . S
C1499 C1498 1.370 . S
C1499 C1500 1.403 . S
C1500 C1499 1.403 . S
C1500 C1501 1.404 . S
C1500 C1503 1.539 . S
C1501 C1497 1.408 . S
C1501 C1500 1.404 . S
C1501 H1513 0.930 . S
C1502 C1498 1.524 . S
C1502 H1514 0.956 . S
C1502 H1515 0.961 . S
C1502 H1516 0.961 . S
C1503 C1500 1.539 . S
C1503 H1517 0.958 1_554 S
C1503 H1518 0.961 . S
C1503 H1519 0.966 . S
H1504 C1488 0.931 1_556 S
H1505 C1493 0.929 . S
H1506 C1494 0.960 . S
H1507 C1494 0.962 . S
H1508 C1494 0.960 . S
H1509 C1495 0.961 . S
H1510 C1495 0.961 . S
H1511 C1495 0.961 . S
H1512 C1496 0.931 . S
H1513 C1501 0.930 . S
H1514 C1502 0.956 . S
H1515 C1502 0.961 . S
H1516 C1502 0.961 . S
H1517 C1503 0.958 1_556 S
H1518 C1503 0.961 . S
H1519 C1503 0.966 . S
C1520 C1521 1.391 . S
C1520 C1522 1.394 . S
C1520 H1536 0.931 . S
C1521 C1520 1.391 . S
C1521 C1525 1.376 . S
C1522 C1520 1.394 . S
C1522 C1523 1.369 . S
C1522 C1526 1.531 1_554 S
C1523 C1522 1.369 . S
C1523 C1524 1.410 . S
C1523 C1531 1.503 . S
C1524 C1523 1.410 . S
C1524 C1525 1.392 . S
C1524 C1527 1.511 . S
C1525 C1521 1.376 . S
C1525 C1524 1.392 . S
C1525 H1537 0.929 . S
C1526 C1522 1.531 1_556 S
C1526 H1538 0.960 . S
C1526 H1539 0.962 1_556 S
C1526 H1540 0.960 . S
C1527 C1524 1.511 . S
C1527 H1541 0.961 . S
C1527 H1542 0.961 . S
C1527 H1543 0.961 . S
C1528 C1529 1.370 . S
C1528 C1530 1.363 . S
C1528 H1544 0.931 . S
C1529 C1528 1.370 . S
C1529 C1533 1.408 . S
C1530 C1528 1.363 . S
C1530 C1531 1.370 . S
C1530 C1534 1.524 . S
C1531 C1523 1.503 . S
C1531 C1530 1.370 . S
C1531 C1532 1.403 . S
C1532 C1531 1.403 . S
C1532 C1533 1.404 . S
C1532 C1535 1.539 . S
C1533 C1529 1.408 . S
C1533 C1532 1.404 . S
C1533 H1545 0.930 . S
C1534 C1530 1.524 . S
C1534 H1546 0.956 . S
C1534 H1547 0.961 . S
C1534 H1548 0.961 . S
C1535 C1532 1.539 . S
C1535 H1549 0.958 1_554 S
C1535 H1550 0.961 . S
C1535 H1551 0.960 . S
H1536 C1520 0.931 . S
H1537 C1525 0.929 . S
H1538 C1526 0.960 . S
H1539 C1526 0.962 1_554 S
H1540 C1526 0.960 . S
H1541 C1527 0.961 . S
H1542 C1527 0.961 . S
H1543 C1527 0.961 . S
H1544 C1528 0.931 . S
H1545 C1533 0.930 . S
H1546 C1534 0.956 . S
H1547 C1534 0.961 . S
H1548 C1534 0.961 . S
H1549 C1535 0.958 1_556 S
H1550 C1535 0.961 . S
H1551 C1535 0.960 . S
C1552 C1553 1.391 . S
C1552 C1554 1.394 . S
C1552 H1568 0.931 . S
C1553 C1552 1.391 . S
C1553 C1557 1.376 . S
C1554 C1552 1.394 . S
C1554 C1555 1.369 . S
C1554 C1558 1.531 . S
C1555 C1554 1.369 . S
C1555 C1556 1.410 . S
C1555 C1563 1.503 . S
C1556 C1555 1.410 . S
C1556 C1557 1.392 . S
C1556 C1559 1.511 . S
C1557 C1553 1.376 . S
C1557 C1556 1.392 . S
C1557 H1569 0.929 . S
C1558 C1554 1.531 . S
C1558 H1570 0.960 . S
C1558 H1571 0.962 . S
C1558 H1572 0.960 . S
C1559 C1556 1.511 . S
C1559 H1573 0.961 . S
C1559 H1574 0.961 . S
C1559 H1575 0.961 . S
C1560 C1561 1.370 . S
C1560 C1562 1.363 . S
C1560 H1576 0.931 . S
C1561 C1560 1.370 . S
C1561 C1565 1.408 . S
C1562 C1560 1.363 . S
C1562 C1563 1.370 . S
C1562 C1566 1.524 . S
C1563 C1555 1.503 . S
C1563 C1562 1.370 . S
C1563 C1564 1.403 . S
C1564 C1563 1.403 . S
C1564 C1565 1.404 . S
C1564 C1567 1.539 . S
C1565 C1561 1.408 . S
C1565 C1564 1.404 . S
C1565 H1577 0.930 . S
C1566 C1562 1.524 . S
C1566 H1578 0.956 . S
C1566 H1579 0.961 . S
C1566 H1580 0.961 . S
C1567 C1564 1.539 . S
C1567 H1581 0.958 . S
C1567 H1582 0.961 . S
C1567 H1583 0.960 . S
H1568 C1552 0.931 . S
H1569 C1557 0.929 . S
H1570 C1558 0.960 . S
H1571 C1558 0.962 . S
H1572 C1558 0.960 . S
H1573 C1559 0.961 . S
H1574 C1559 0.961 . S
H1575 C1559 0.961 . S
H1576 C1560 0.931 . S
H1577 C1565 0.930 . S
H1578 C1566 0.956 . S
H1579 C1566 0.961 . S
H1580 C1566 0.961 . S
H1581 C1567 0.958 . S
H1582 C1567 0.961 . S
H1583 C1567 0.960 . S
C1584 C1585 1.391 . S
C1584 C1586 1.394 . S
C1584 H1600 0.931 . S
C1585 C1584 1.391 . S
C1585 C1589 1.376 . S
C1586 C1584 1.394 . S
C1586 C1587 1.369 . S
C1586 C1590 1.531 . S
C1587 C1586 1.369 . S
C1587 C1588 1.410 . S
C1587 C1595 1.503 . S
C1588 C1587 1.410 . S
C1588 C1589 1.392 . S
C1588 C1591 1.511 . S
C1589 C1585 1.376 . S
C1589 C1588 1.392 . S
C1589 H1601 0.929 . S
C1590 C1586 1.531 . S
C1590 H1602 0.960 . S
C1590 H1603 0.962 . S
C1590 H1604 0.960 . S
C1591 C1588 1.511 . S
C1591 H1605 0.961 . S
C1591 H1606 0.961 . S
C1591 H1607 0.961 . S
C1592 C1593 1.370 . S
C1592 C1594 1.363 . S
C1592 H1608 0.931 . S
C1593 C1592 1.370 . S
C1593 C1597 1.408 . S
C1594 C1592 1.363 . S
C1594 C1595 1.370 . S
C1594 C1598 1.524 . S
C1595 C1587 1.503 . S
C1595 C1594 1.370 . S
C1595 C1596 1.403 . S
C1596 C1595 1.403 . S
C1596 C1597 1.404 . S
C1596 C1599 1.539 . S
C1597 C1593 1.408 . S
C1597 C1596 1.404 . S
C1597 H1609 0.930 . S
C1598 C1594 1.524 . S
C1598 H1610 0.956 . S
C1598 H1611 0.961 . S
C1598 H1612 0.961 . S
C1599 C1596 1.539 . S
C1599 H1613 0.958 . S
C1599 H1614 0.961 . S
C1599 H1615 0.960 . S
H1600 C1584 0.931 . S
H1601 C1589 0.929 . S
H1602 C1590 0.960 . S
H1603 C1590 0.962 . S
H1604 C1590 0.960 . S
H1605 C1591 0.961 . S
H1606 C1591 0.961 . S
H1607 C1591 0.961 . S
H1608 C1592 0.931 . S
H1609 C1597 0.930 . S
H1610 C1598 0.956 . S
H1611 C1598 0.961 . S
H1612 C1598 0.961 . S
H1613 C1599 0.958 . S
H1614 C1599 0.961 . S
H1615 C1599 0.960 . S
C1616 C1617 1.391 . S
C1616 C1618 1.394 . S
C1616 H1632 0.931 . S
C1617 C1616 1.391 . S
C1617 C1621 1.376 . S
C1618 C1616 1.394 . S
C1618 C1619 1.369 . S
C1618 C1622 1.531 . S
C1619 C1618 1.369 . S
C1619 C1620 1.410 . S
C1619 C1627 1.503 . S
C1620 C1619 1.410 . S
C1620 C1621 1.392 . S
C1620 C1623 1.511 . S
C1621 C1617 1.376 . S
C1621 C1620 1.392 . S
C1621 H1633 0.929 . S
C1622 C1618 1.531 . S
C1622 H1634 0.960 . S
C1622 H1635 0.962 . S
C1622 H1636 0.960 . S
C1623 C1620 1.511 . S
C1623 H1637 0.961 . S
C1623 H1638 0.961 . S
C1623 H1639 0.961 . S
C1624 C1625 1.370 . S
C1624 C1626 1.363 . S
C1624 H1640 0.931 . S
C1625 C1624 1.370 . S
C1625 C1629 1.408 . S
C1626 C1624 1.363 . S
C1626 C1627 1.370 . S
C1626 C1630 1.524 . S
C1627 C1619 1.503 . S
C1627 C1626 1.370 . S
C1627 C1628 1.403 . S
C1628 C1627 1.403 . S
C1628 C1629 1.404 . S
C1628 C1631 1.539 . S
C1629 C1625 1.408 . S
C1629 C1628 1.404 . S
C1629 H1641 0.930 . S
C1630 C1626 1.524 . S
C1630 H1642 0.956 . S
C1630 H1643 0.961 . S
C1630 H1644 0.961 . S
C1631 C1628 1.539 . S
C1631 H1645 0.958 . S
C1631 H1646 0.961 . S
C1631 H1647 0.960 . S
H1632 C1616 0.931 . S
H1633 C1621 0.929 . S
H1634 C1622 0.960 . S
H1635 C1622 0.962 . S
H1636 C1622 0.960 . S
H1637 C1623 0.961 . S
H1638 C1623 0.961 . S
H1639 C1623 0.961 . S
H1640 C1624 0.931 . S
H1641 C1629 0.930 . S
H1642 C1630 0.956 . S
H1643 C1630 0.961 . S
H1644 C1630 0.961 . S
H1645 C1631 0.958 . S
H1646 C1631 0.961 . S
H1647 C1631 0.960 . S
C1648 C1649 1.391 . S
C1648 C1650 1.394 . S
C1648 H1664 0.931 . S
C1649 C1648 1.391 . S
C1649 C1653 1.376 . S
C1650 C1648 1.394 . S
C1650 C1651 1.369 . S
C1650 C1654 1.531 . S
C1651 C1650 1.369 . S
C1651 C1652 1.410 . S
C1651 C1659 1.503 . S
C1652 C1651 1.410 . S
C1652 C1653 1.392 . S
C1652 C1655 1.511 . S
C1653 C1649 1.376 . S
C1653 C1652 1.392 . S
C1653 H1665 0.929 . S
C1654 C1650 1.531 . S
C1654 H1666 0.960 . S
C1654 H1667 0.962 . S
C1654 H1668 0.960 . S
C1655 C1652 1.511 . S
C1655 H1669 0.961 . S
C1655 H1670 0.961 . S
C1655 H1671 0.961 . S
C1656 C1657 1.370 . S
C1656 C1658 1.363 . S
C1656 H1672 0.931 . S
C1657 C1656 1.370 . S
C1657 C1661 1.408 . S
C1658 C1656 1.363 . S
C1658 C1659 1.370 . S
C1658 C1662 1.524 . S
C1659 C1651 1.503 . S
C1659 C1658 1.370 . S
C1659 C1660 1.403 . S
C1660 C1659 1.403 . S
C1660 C1661 1.404 . S
C1660 C1663 1.539 . S
C1661 C1657 1.408 . S
C1661 C1660 1.404 . S
C1661 H1673 0.930 . S
C1662 C1658 1.524 . S
C1662 H1674 0.956 . S
C1662 H1675 0.961 . S
C1662 H1676 0.961 . S
C1663 C1660 1.539 . S
C1663 H1677 0.958 . S
C1663 H1678 0.961 . S
C1663 H1679 0.960 . S
H1664 C1648 0.931 . S
H1665 C1653 0.929 . S
H1666 C1654 0.960 . S
H1667 C1654 0.962 . S
H1668 C1654 0.960 . S
H1669 C1655 0.961 . S
H1670 C1655 0.961 . S
H1671 C1655 0.961 . S
H1672 C1656 0.931 . S
H1673 C1661 0.930 . S
H1674 C1662 0.956 . S
H1675 C1662 0.961 . S
H1676 C1662 0.961 . S
H1677 C1663 0.958 . S
H1678 C1663 0.961 . S
H1679 C1663 0.960 . S
C1680 C1681 1.391 . S
C1680 C1682 1.394 . S
C1680 H1696 0.931 . S
C1681 C1680 1.391 . S
C1681 C1685 1.376 . S
C1682 C1680 1.394 . S
C1682 C1683 1.369 . S
C1682 C1686 1.531 . S
C1683 C1682 1.369 . S
C1683 C1684 1.410 . S
C1683 C1691 1.503 . S
C1684 C1683 1.410 . S
C1684 C1685 1.392 . S
C1684 C1687 1.511 . S
C1685 C1681 1.376 . S
C1685 C1684 1.392 . S
C1685 H1697 0.929 . S
C1686 C1682 1.531 . S
C1686 H1698 0.960 . S
C1686 H1699 0.962 . S
C1686 H1700 0.960 . S
C1687 C1684 1.511 . S
C1687 H1701 0.961 . S
C1687 H1702 0.961 . S
C1687 H1703 0.961 . S
C1688 C1689 1.370 . S
C1688 C1690 1.363 . S
C1688 H1704 0.931 . S
C1689 C1688 1.370 . S
C1689 C1693 1.408 . S
C1690 C1688 1.363 . S
C1690 C1691 1.370 . S
C1690 C1694 1.524 . S
C1691 C1683 1.503 . S
C1691 C1690 1.370 . S
C1691 C1692 1.403 . S
C1692 C1691 1.403 . S
C1692 C1693 1.404 . S
C1692 C1695 1.539 . S
C1693 C1689 1.408 . S
C1693 C1692 1.404 . S
C1693 H1705 0.930 . S
C1694 C1690 1.524 . S
C1694 H1706 0.956 . S
C1694 H1707 0.961 . S
C1694 H1708 0.961 . S
C1695 C1692 1.539 . S
C1695 H1709 0.958 . S
C1695 H1710 0.961 . S
C1695 H1711 0.960 . S
H1696 C1680 0.931 . S
H1697 C1685 0.929 . S
H1698 C1686 0.960 . S
H1699 C1686 0.962 . S
H1700 C1686 0.960 . S
H1701 C1687 0.961 . S
H1702 C1687 0.961 . S
H1703 C1687 0.961 . S
H1704 C1688 0.931 . S
H1705 C1693 0.930 . S
H1706 C1694 0.956 . S
H1707 C1694 0.961 . S
H1708 C1694 0.961 . S
H1709 C1695 0.958 . S
H1710 C1695 0.961 . S
H1711 C1695 0.960 . S
C1712 C1713 1.391 . S
C1712 C1714 1.394 . S
C1712 H1728 0.931 . S
C1713 C1712 1.391 . S
C1713 C1717 1.376 . S
C1714 C1712 1.394 . S
C1714 C1715 1.369 . S
C1714 C1718 1.531 . S
C1715 C1714 1.369 . S
C1715 C1716 1.410 . S
C1715 C1723 1.503 . S
C1716 C1715 1.410 . S
C1716 C1717 1.392 . S
C1716 C1719 1.511 . S
C1717 C1713 1.376 . S
C1717 C1716 1.392 . S
C1717 H1729 0.929 . S
C1718 C1714 1.531 . S
C1718 H1730 0.960 . S
C1718 H1731 0.962 . S
C1718 H1732 0.960 . S
C1719 C1716 1.511 . S
C1719 H1733 0.961 . S
C1719 H1734 0.961 . S
C1719 H1735 0.961 . S
C1720 C1721 1.370 . S
C1720 C1722 1.363 . S
C1720 H1736 0.931 . S
C1721 C1720 1.370 . S
C1721 C1725 1.408 . S
C1722 C1720 1.363 . S
C1722 C1723 1.370 . S
C1722 C1726 1.524 . S
C1723 C1715 1.503 . S
C1723 C1722 1.370 . S
C1723 C1724 1.403 . S
C1724 C1723 1.403 . S
C1724 C1725 1.404 . S
C1724 C1727 1.539 . S
C1725 C1721 1.408 . S
C1725 C1724 1.404 . S
C1725 H1737 0.930 . S
C1726 C1722 1.524 . S
C1726 H1738 0.956 . S
C1726 H1739 0.961 . S
C1726 H1740 0.961 . S
C1727 C1724 1.539 . S
C1727 H1741 0.958 . S
C1727 H1742 0.961 . S
C1727 H1743 0.960 . S
H1728 C1712 0.931 . S
H1729 C1717 0.929 . S
H1730 C1718 0.960 . S
H1731 C1718 0.962 . S
H1732 C1718 0.960 . S
H1733 C1719 0.961 . S
H1734 C1719 0.961 . S
H1735 C1719 0.961 . S
H1736 C1720 0.931 . S
H1737 C1725 0.930 . S
H1738 C1726 0.956 . S
H1739 C1726 0.961 . S
H1740 C1726 0.961 . S
H1741 C1727 0.958 . S
H1742 C1727 0.961 . S
H1743 C1727 0.960 . S
C1744 C1745 1.391 . S
C1744 C1746 1.394 . S
C1744 H1760 0.931 . S
C1745 C1744 1.391 . S
C1745 C1749 1.376 . S
C1746 C1744 1.394 . S
C1746 C1747 1.369 . S
C1746 C1750 1.531 . S
C1747 C1746 1.369 . S
C1747 C1748 1.410 . S
C1747 C1755 1.503 . S
C1748 C1747 1.410 . S
C1748 C1749 1.392 . S
C1748 C1751 1.511 . S
C1749 C1745 1.376 . S
C1749 C1748 1.392 . S
C1749 H1761 0.929 . S
C1750 C1746 1.531 . S
C1750 H1762 0.960 . S
C1750 H1763 0.962 . S
C1750 H1764 0.960 1_455 S
C1751 C1748 1.511 . S
C1751 H1765 0.961 . S
C1751 H1766 0.961 . S
C1751 H1767 0.961 . S
C1752 C1753 1.370 . S
C1752 C1754 1.363 . S
C1752 H1768 0.931 . S
C1753 C1752 1.370 . S
C1753 C1757 1.408 . S
C1754 C1752 1.363 . S
C1754 C1755 1.370 . S
C1754 C1758 1.524 . S
C1755 C1747 1.503 . S
C1755 C1754 1.370 . S
C1755 C1756 1.403 . S
C1756 C1755 1.403 . S
C1756 C1757 1.404 . S
C1756 C1759 1.539 . S
C1757 C1753 1.408 . S
C1757 C1756 1.404 . S
C1757 H1769 0.930 . S
C1758 C1754 1.524 . S
C1758 H1770 0.956 . S
C1758 H1771 0.961 . S
C1758 H1772 0.961 . S
C1759 C1756 1.539 . S
C1759 H1773 0.958 . S
C1759 H1774 0.961 . S
C1759 H1775 0.960 . S
H1760 C1744 0.931 . S
H1761 C1749 0.929 . S
H1762 C1750 0.960 . S
H1763 C1750 0.962 . S
H1764 C1750 0.960 1_655 S
H1765 C1751 0.961 . S
H1766 C1751 0.961 . S
H1767 C1751 0.961 . S
H1768 C1752 0.931 . S
H1769 C1757 0.930 . S
H1770 C1758 0.956 . S
H1771 C1758 0.961 . S
H1772 C1758 0.961 . S
H1773 C1759 0.958 . S
H1774 C1759 0.961 . S
H1775 C1759 0.960 . S
C1776 C1777 1.391 . S
C1776 C1778 1.394 . S
C1776 H1792 0.931 . S
C1777 C1776 1.391 . S
C1777 C1781 1.376 . S
C1778 C1776 1.394 . S
C1778 C1779 1.369 . S
C1778 C1782 1.531 . S
C1779 C1778 1.369 . S
C1779 C1780 1.410 . S
C1779 C1787 1.503 . S
C1780 C1779 1.410 . S
C1780 C1781 1.392 . S
C1780 C1783 1.511 . S
C1781 C1777 1.376 . S
C1781 C1780 1.392 . S
C1781 H1793 0.929 . S
C1782 C1778 1.531 . S
C1782 H1794 0.960 . S
C1782 H1795 0.962 . S
C1782 H1796 0.960 . S
C1783 C1780 1.511 . S
C1783 H1797 0.961 . S
C1783 H1798 0.961 . S
C1783 H1799 0.961 . S
C1784 C1785 1.370 . S
C1784 C1786 1.363 . S
C1784 H1800 0.931 . S
C1785 C1784 1.370 . S
C1785 C1789 1.408 . S
C1786 C1784 1.363 . S
C1786 C1787 1.370 . S
C1786 C1790 1.524 . S
C1787 C1779 1.503 . S
C1787 C1786 1.370 . S
C1787 C1788 1.403 . S
C1788 C1787 1.403 . S
C1788 C1789 1.404 . S
C1788 C1791 1.539 . S
C1789 C1785 1.408 . S
C1789 C1788 1.404 . S
C1789 H1801 0.930 . S
C1790 C1786 1.524 . S
C1790 H1802 0.956 . S
C1790 H1803 0.961 . S
C1790 H1804 0.961 . S
C1791 C1788 1.539 . S
C1791 H1805 0.958 . S
C1791 H1806 0.961 . S
C1791 H1807 0.960 . S
H1792 C1776 0.931 . S
H1793 C1781 0.929 . S
H1794 C1782 0.960 . S
H1795 C1782 0.962 . S
H1796 C1782 0.960 . S
H1797 C1783 0.961 . S
H1798 C1783 0.961 . S
H1799 C1783 0.961 . S
H1800 C1784 0.931 . S
H1801 C1789 0.930 . S
H1802 C1790 0.956 . S
H1803 C1790 0.961 . S
H1804 C1790 0.961 . S
H1805 C1791 0.958 . S
H1806 C1791 0.961 . S
H1807 C1791 0.960 . S
C1808 C1809 1.391 . S
C1808 C1810 1.394 . S
C1808 H1824 0.931 . S
C1809 C1808 1.391 . S
C1809 C1813 1.376 . S
C1810 C1808 1.394 . S
C1810 C1811 1.369 . S
C1810 C1814 1.531 . S
C1811 C1810 1.369 . S
C1811 C1812 1.410 . S
C1811 C1819 1.503 . S
C1812 C1811 1.410 . S
C1812 C1813 1.392 . S
C1812 C1815 1.511 . S
C1813 C1809 1.376 . S
C1813 C1812 1.392 . S
C1813 H1825 0.929 . S
C1814 C1810 1.531 . S
C1814 H1826 0.960 . S
C1814 H1827 0.962 . S
C1814 H1828 0.960 . S
C1815 C1812 1.511 . S
C1815 H1829 0.961 . S
C1815 H1830 0.961 . S
C1815 H1831 0.961 . S
C1816 C1817 1.370 . S
C1816 C1818 1.363 . S
C1816 H1832 0.931 . S
C1817 C1816 1.370 . S
C1817 C1821 1.408 . S
C1818 C1816 1.363 . S
C1818 C1819 1.370 . S
C1818 C1822 1.524 . S
C1819 C1811 1.503 . S
C1819 C1818 1.370 . S
C1819 C1820 1.403 . S
C1820 C1819 1.403 . S
C1820 C1821 1.404 . S
C1820 C1823 1.539 . S
C1821 C1817 1.408 . S
C1821 C1820 1.404 . S
C1821 H1833 0.930 . S
C1822 C1818 1.524 . S
C1822 H1834 0.956 . S
C1822 H1835 0.961 . S
C1822 H1836 0.961 . S
C1823 C1820 1.539 . S
C1823 H1837 0.958 . S
C1823 H1838 0.961 . S
C1823 H1839 0.960 . S
H1824 C1808 0.931 . S
H1825 C1813 0.929 . S
H1826 C1814 0.960 . S
H1827 C1814 0.962 . S
H1828 C1814 0.960 . S
H1829 C1815 0.961 . S
H1830 C1815 0.961 . S
H1831 C1815 0.961 . S
H1832 C1816 0.931 . S
H1833 C1821 0.930 . S
H1834 C1822 0.956 . S
H1835 C1822 0.961 . S
H1836 C1822 0.961 . S
H1837 C1823 0.958 . S
H1838 C1823 0.961 . S
H1839 C1823 0.960 . S
C1840 C1841 1.391 . S
C1840 C1842 1.394 . S
C1840 H1856 0.931 . S
C1841 C1840 1.391 . S
C1841 C1845 1.376 . S
C1842 C1840 1.394 . S
C1842 C1843 1.369 . S
C1842 C1846 1.531 . S
C1843 C1842 1.369 . S
C1843 C1844 1.410 . S
C1843 C1851 1.503 . S
C1844 C1843 1.410 . S
C1844 C1845 1.392 . S
C1844 C1847 1.511 . S
C1845 C1841 1.376 . S
C1845 C1844 1.392 . S
C1845 H1857 0.929 . S
C1846 C1842 1.531 . S
C1846 H1858 0.960 . S
C1846 H1859 0.962 . S
C1846 H1860 0.960 . S
C1847 C1844 1.511 . S
C1847 H1861 0.961 . S
C1847 H1862 0.961 . S
C1847 H1863 0.961 . S
C1848 C1849 1.370 . S
C1848 C1850 1.363 . S
C1848 H1864 0.931 . S
C1849 C1848 1.370 . S
C1849 C1853 1.408 . S
C1850 C1848 1.363 . S
C1850 C1851 1.370 . S
C1850 C1854 1.524 . S
C1851 C1843 1.503 . S
C1851 C1850 1.370 . S
C1851 C1852 1.403 . S
C1852 C1851 1.403 . S
C1852 C1853 1.404 . S
C1852 C1855 1.539 . S
C1853 C1849 1.408 . S
C1853 C1852 1.404 . S
C1853 H1865 0.930 . S
C1854 C1850 1.524 . S
C1854 H1866 0.956 . S
C1854 H1867 0.961 . S
C1854 H1868 0.961 . S
C1855 C1852 1.539 . S
C1855 H1869 0.958 . S
C1855 H1870 0.961 . S
C1855 H1871 0.960 . S
H1856 C1840 0.931 . S
H1857 C1845 0.929 . S
H1858 C1846 0.960 . S
H1859 C1846 0.962 . S
H1860 C1846 0.960 . S
H1861 C1847 0.961 . S
H1862 C1847 0.961 . S
H1863 C1847 0.961 . S
H1864 C1848 0.931 . S
H1865 C1853 0.930 . S
H1866 C1854 0.956 . S
H1867 C1854 0.961 . S
H1868 C1854 0.961 . S
H1869 C1855 0.958 . S
H1870 C1855 0.961 . S
H1871 C1855 0.960 . S
C1872 C1873 1.391 1_655 S
C1872 C1874 1.394 . S
C1872 H1888 0.931 . S
C1873 C1872 1.391 1_455 S
C1873 C1877 1.376 . S
C1874 C1872 1.394 . S
C1874 C1875 1.369 1_655 S
C1874 C1878 1.531 . S
C1875 C1874 1.369 1_455 S
C1875 C1876 1.410 . S
C1875 C1883 1.503 . S
C1876 C1875 1.410 . S
C1876 C1877 1.392 . S
C1876 C1879 1.511 . S
C1877 C1873 1.376 . S
C1877 C1876 1.392 . S
C1877 H1889 0.929 . S
C1878 C1874 1.531 . S
C1878 H1890 0.960 . S
C1878 H1891 0.962 . S
C1878 H1892 0.960 . S
C1879 C1876 1.511 . S
C1879 H1893 0.961 . S
C1879 H1894 0.961 . S
C1879 H1895 0.961 . S
C1880 C1881 1.370 1_655 S
C1880 C1882 1.363 . S
C1880 H1896 0.931 . S
C1881 C1880 1.370 1_455 S
C1881 C1885 1.408 . S
C1882 C1880 1.363 . S
C1882 C1883 1.370 1_655 S
C1882 C1886 1.524 . S
C1883 C1875 1.503 . S
C1883 C1882 1.370 1_455 S
C1883 C1884 1.403 . S
C1884 C1883 1.403 . S
C1884 C1885 1.404 . S
C1884 C1887 1.539 . S
C1885 C1881 1.408 . S
C1885 C1884 1.404 . S
C1885 H1897 0.930 . S
C1886 C1882 1.524 . S
C1886 H1898 0.956 . S
C1886 H1899 0.961 . S
C1886 H1900 0.961 . S
C1887 C1884 1.539 . S
C1887 H1901 0.958 . S
C1887 H1902 0.961 . S
C1887 H1903 0.960 . S
H1888 C1872 0.931 . S
H1889 C1877 0.929 . S
H1890 C1878 0.960 . S
H1891 C1878 0.962 . S
H1892 C1878 0.960 . S
H1893 C1879 0.961 . S
H1894 C1879 0.961 . S
H1895 C1879 0.961 . S
H1896 C1880 0.931 . S
H1897 C1885 0.930 . S
H1898 C1886 0.956 . S
H1899 C1886 0.961 . S
H1900 C1886 0.961 . S
H1901 C1887 0.958 . S
H1902 C1887 0.961 . S
H1903 C1887 0.960 . S
C1904 C1905 1.391 . S
C1904 C1906 1.394 . S
C1904 H1920 0.931 . S
C1905 C1904 1.391 . S
C1905 C1909 1.376 . S
C1906 C1904 1.394 . S
C1906 C1907 1.369 . S
C1906 C1910 1.531 . S
C1907 C1906 1.369 . S
C1907 C1908 1.410 . S
C1907 C1915 1.503 . S
C1908 C1907 1.410 . S
C1908 C1909 1.392 . S
C1908 C1911 1.511 . S
C1909 C1905 1.376 . S
C1909 C1908 1.392 . S
C1909 H1921 0.929 . S
C1910 C1906 1.531 . S
C1910 H1922 0.960 . S
C1910 H1923 0.962 . S
C1910 H1924 0.960 . S
C1911 C1908 1.511 . S
C1911 H1925 0.961 . S
C1911 H1926 0.961 . S
C1911 H1927 0.961 . S
C1912 C1913 1.370 . S
C1912 C1914 1.363 . S
C1912 H1928 0.931 . S
C1913 C1912 1.370 . S
C1913 C1917 1.408 . S
C1914 C1912 1.363 . S
C1914 C1915 1.370 . S
C1914 C1918 1.524 . S
C1915 C1907 1.503 . S
C1915 C1914 1.370 . S
C1915 C1916 1.403 . S
C1916 C1915 1.403 . S
C1916 C1917 1.404 . S
C1916 C1919 1.539 . S
C1917 C1913 1.408 . S
C1917 C1916 1.404 . S
C1917 H1929 0.930 . S
C1918 C1914 1.524 . S
C1918 H1930 0.956 . S
C1918 H1931 0.961 . S
C1918 H1932 0.961 . S
C1919 C1916 1.539 . S
C1919 H1933 0.958 . S
C1919 H1934 0.961 . S
C1919 H1935 0.960 . S
H1920 C1904 0.931 . S
H1921 C1909 0.929 . S
H1922 C1910 0.960 . S
H1923 C1910 0.962 . S
H1924 C1910 0.960 . S
H1925 C1911 0.961 . S
H1926 C1911 0.961 . S
H1927 C1911 0.961 . S
H1928 C1912 0.931 . S
H1929 C1917 0.930 . S
H1930 C1918 0.956 . S
H1931 C1918 0.961 . S
H1932 C1918 0.961 . S
H1933 C1919 0.958 . S
H1934 C1919 0.961 . S
H1935 C1919 0.960 . S
C1936 C1937 1.391 . S
C1936 C1938 1.394 . S
C1936 H1952 0.931 . S
C1937 C1936 1.391 . S
C1937 C1941 1.376 . S
C1938 C1936 1.394 . S
C1938 C1939 1.369 . S
C1938 C1942 1.531 . S
C1939 C1938 1.369 . S
C1939 C1940 1.410 . S
C1939 C1947 1.503 . S
C1940 C1939 1.410 . S
C1940 C1941 1.392 . S
C1940 C1943 1.511 . S
C1941 C1937 1.376 . S
C1941 C1940 1.392 . S
C1941 H1953 0.929 . S
C1942 C1938 1.531 . S
C1942 H1954 0.960 . S
C1942 H1955 0.962 . S
C1942 H1956 0.960 . S
C1943 C1940 1.511 . S
C1943 H1957 0.961 . S
C1943 H1958 0.961 . S
C1943 H1959 0.961 . S
C1944 C1945 1.370 1_556 S
C1944 C1946 1.363 . S
C1944 H1960 0.931 . S
C1945 C1944 1.370 1_554 S
C1945 C1949 1.408 . S
C1946 C1944 1.363 . S
C1946 C1947 1.370 . S
C1946 C1950 1.524 . S
C1947 C1939 1.503 . S
C1947 C1946 1.370 . S
C1947 C1948 1.403 1_556 S
C1948 C1947 1.403 1_554 S
C1948 C1949 1.404 . S
C1948 C1951 1.539 . S
C1949 C1945 1.408 . S
C1949 C1948 1.404 . S
C1949 H1961 0.930 . S
C1950 C1946 1.524 . S
C1950 H1962 0.956 . S
C1950 H1963 0.961 . S
C1950 H1964 0.961 . S
C1951 C1948 1.539 . S
C1951 H1965 0.958 . S
C1951 H1966 0.961 . S
C1951 H1967 0.970 . S
H1952 C1936 0.931 . S
H1953 C1941 0.929 . S
H1954 C1942 0.960 . S
H1955 C1942 0.962 . S
H1956 C1942 0.960 . S
H1957 C1943 0.961 . S
H1958 C1943 0.961 . S
H1959 C1943 0.961 . S
H1960 C1944 0.931 . S
H1961 C1949 0.930 . S
H1962 C1950 0.956 . S
H1963 C1950 0.961 . S
H1964 C1950 0.961 . S
H1965 C1951 0.958 . S
H1966 C1951 0.961 . S
H1967 C1951 0.970 . S
C1968 C1969 1.391 1_655 S
C1968 C1970 1.394 . S
C1968 H1984 0.932 1_655 S
C1969 C1968 1.391 1_455 S
C1969 C1973 1.376 . S
C1970 C1968 1.394 . S
C1970 C1971 1.369 . S
C1970 C1974 1.531 . S
C1971 C1970 1.369 . S
C1971 C1972 1.410 . S
C1971 C1979 1.503 . S
C1972 C1971 1.410 . S
C1972 C1973 1.392 1_655 S
C1972 C1975 1.511 . S
C1973 C1969 1.376 . S
C1973 C1972 1.392 1_455 S
C1973 H1985 0.929 . S
C1974 C1970 1.531 . S
C1974 H1986 0.960 . S
C1974 H1987 0.962 . S
C1974 H1988 0.960 . S
C1975 C1972 1.511 . S
C1975 H1989 0.961 . S
C1975 H1990 0.961 . S
C1975 H1991 0.961 . S
C1976 C1977 1.370 . S
C1976 C1978 1.363 . S
C1976 H1992 0.931 . S
C1977 C1976 1.370 . S
C1977 C1981 1.408 . S
C1978 C1976 1.363 . S
C1978 C1979 1.370 . S
C1978 C1982 1.524 . S
C1979 C1971 1.503 . S
C1979 C1978 1.370 . S
C1979 C1980 1.403 . S
C1980 C1979 1.403 . S
C1980 C1981 1.404 . S
C1980 C1983 1.539 . S
C1981 C1977 1.408 . S
C1981 C1980 1.404 . S
C1981 H1993 0.930 . S
C1982 C1978 1.524 . S
C1982 H1994 0.956 . S
C1982 H1995 0.961 . S
C1982 H1996 0.961 . S
C1983 C1980 1.539 . S
C1983 H1997 0.958 . S
C1983 H1998 0.961 . S
C1983 H1999 0.960 . S
H1984 C1968 0.932 1_455 S
H1985 C1973 0.929 . S
H1986 C1974 0.960 . S
H1987 C1974 0.962 . S
H1988 C1974 0.960 . S
H1989 C1975 0.961 . S
H1990 C1975 0.961 . S
H1991 C1975 0.961 . S
H1992 C1976 0.931 . S
H1993 C1981 0.930 . S
H1994 C1982 0.956 . S
H1995 C1982 0.961 . S
H1996 C1982 0.961 . S
H1997 C1983 0.958 . S
H1998 C1983 0.961 . S
H1999 C1983 0.960 . S
C2000 C2001 1.391 . S
C2000 C2002 1.394 . S
C2000 H2016 0.931 . S
C2001 C2000 1.391 . S
C2001 C2005 1.376 . S
C2002 C2000 1.394 . S
C2002 C2003 1.369 . S
C2002 C2006 1.531 . S
C2003 C2002 1.369 . S
C2003 C2004 1.410 . S
C2003 C2011 1.503 . S
C2004 C2003 1.410 . S
C2004 C2005 1.392 . S
C2004 C2007 1.511 . S
C2005 C2001 1.376 . S
C2005 C2004 1.392 . S
C2005 H2017 0.929 . S
C2006 C2002 1.531 . S
C2006 H2018 0.960 . S
C2006 H2019 0.962 . S
C2006 H2020 0.960 . S
C2007 C2004 1.511 . S
C2007 H2021 0.961 . S
C2007 H2022 0.961 . S
C2007 H2023 0.961 1_545 S
C2008 C2009 1.370 . S
C2008 C2010 1.363 . S
C2008 H2024 0.931 . S
C2009 C2008 1.370 . S
C2009 C2013 1.408 1_545 S
C2010 C2008 1.363 . S
C2010 C2011 1.370 . S
C2010 C2014 1.524 . S
C2011 C2003 1.503 . S
C2011 C2010 1.370 . S
C2011 C2012 1.403 . S
C2012 C2011 1.403 . S
C2012 C2013 1.404 1_545 S
C2012 C2015 1.539 1_545 S
C2013 C2009 1.408 1_565 S
C2013 C2012 1.404 1_565 S
C2013 H2025 0.930 . S
C2014 C2010 1.524 . S
C2014 H2026 0.956 . S
C2014 H2027 0.961 . S
C2014 H2028 0.961 . S
C2015 C2012 1.539 1_565 S
C2015 H2029 0.958 . S
C2015 H2030 0.961 . S
C2015 H2031 0.960 . S
H2016 C2000 0.931 . S
H2017 C2005 0.929 . S
H2018 C2006 0.960 . S
H2019 C2006 0.962 . S
H2020 C2006 0.960 . S
H2021 C2007 0.961 . S
H2022 C2007 0.961 . S
H2023 C2007 0.961 1_565 S
H2024 C2008 0.931 . S
H2025 C2013 0.930 . S
H2026 C2014 0.956 . S
H2027 C2014 0.961 . S
H2028 C2014 0.961 . S
H2029 C2015 0.958 . S
H2030 C2015 0.961 . S
H2031 C2015 0.960 . S
C2032 C2033 1.391 . S
C2032 C2034 1.394 . S
C2032 H2048 0.931 . S
C2033 C2032 1.391 . S
C2033 C2037 1.376 . S
C2034 C2032 1.394 . S
C2034 C2035 1.369 . S
C2034 C2038 1.531 . S
C2035 C2034 1.369 . S
C2035 C2036 1.410 . S
C2035 C2043 1.503 . S
C2036 C2035 1.410 . S
C2036 C2037 1.392 . S
C2036 C2039 1.511 . S
C2037 C2033 1.376 . S
C2037 C2036 1.392 . S
C2037 H2049 0.929 . S
C2038 C2034 1.531 . S
C2038 H2050 0.960 . S
C2038 H2051 0.962 . S
C2038 H2052 0.960 . S
C2039 C2036 1.511 . S
C2039 H2053 0.961 . S
C2039 H2054 0.961 . S
C2039 H2055 0.961 . S
C2040 C2041 1.370 . S
C2040 C2042 1.363 . S
C2040 H2056 0.931 . S
C2041 C2040 1.370 . S
C2041 C2045 1.408 . S
C2042 C2040 1.363 . S
C2042 C2043 1.370 . S
C2042 C2046 1.524 . S
C2043 C2035 1.503 . S
C2043 C2042 1.370 . S
C2043 C2044 1.403 . S
C2044 C2043 1.403 . S
C2044 C2045 1.404 . S
C2044 C2047 1.539 . S
C2045 C2041 1.408 . S
C2045 C2044 1.404 . S
C2045 H2057 0.930 . S
C2046 C2042 1.524 . S
C2046 H2058 0.956 . S
C2046 H2059 0.961 . S
C2046 H2060 0.961 . S
C2047 C2044 1.539 . S
C2047 H2061 0.958 . S
C2047 H2062 0.961 . S
C2047 H2063 0.960 . S
H2048 C2032 0.931 . S
H2049 C2037 0.929 . S
H2050 C2038 0.960 . S
H2051 C2038 0.962 . S
H2052 C2038 0.960 . S
H2053 C2039 0.961 . S
H2054 C2039 0.961 . S
H2055 C2039 0.961 . S
H2056 C2040 0.931 . S
H2057 C2045 0.930 . S
H2058 C2046 0.956 . S
H2059 C2046 0.961 . S
H2060 C2046 0.961 . S
H2061 C2047 0.958 . S
H2062 C2047 0.961 . S
H2063 C2047 0.960 . S
C2064 C2065 1.391 . S
C2064 C2066 1.394 . S
C2064 H2080 0.931 . S
C2065 C2064 1.391 . S
C2065 C2069 1.376 . S
C2066 C2064 1.394 . S
C2066 C2067 1.369 . S
C2066 C2070 1.531 . S
C2067 C2066 1.369 . S
C2067 C2068 1.410 . S
C2067 C2075 1.503 . S
C2068 C2067 1.410 . S
C2068 C2069 1.392 . S
C2068 C2071 1.511 . S
C2069 C2065 1.376 . S
C2069 C2068 1.392 . S
C2069 H2081 0.929 . S
C2070 C2066 1.531 . S
C2070 H2082 0.960 . S
C2070 H2083 0.962 . S
C2070 H2084 0.960 . S
C2071 C2068 1.511 . S
C2071 H2085 0.961 . S
C2071 H2086 0.961 . S
C2071 H2087 0.961 . S
C2072 C2073 1.370 . S
C2072 C2074 1.363 . S
C2072 H2088 0.931 1_545 S
C2073 C2072 1.370 . S
C2073 C2077 1.408 . S
C2074 C2072 1.363 . S
C2074 C2075 1.370 . S
C2074 C2078 1.524 1_545 S
C2075 C2067 1.503 . S
C2075 C2074 1.370 . S
C2075 C2076 1.403 . S
C2076 C2075 1.403 . S
C2076 C2077 1.404 . S
C2076 C2079 1.539 . S
C2077 C2073 1.408 . S
C2077 C2076 1.404 . S
C2077 H2089 0.930 . S
C2078 C2074 1.524 1_565 S
C2078 H2090 0.956 . S
C2078 H2091 0.961 . S
C2078 H2092 0.961 . S
C2079 C2076 1.539 . S
C2079 H2093 0.958 . S
C2079 H2094 0.961 . S
C2079 H2095 0.960 . S
H2080 C2064 0.931 . S
H2081 C2069 0.929 . S
H2082 C2070 0.960 . S
H2083 C2070 0.962 . S
H2084 C2070 0.960 . S
H2085 C2071 0.961 . S
H2086 C2071 0.961 . S
H2087 C2071 0.961 . S
H2088 C2072 0.931 1_565 S
H2089 C2077 0.930 . S
H2090 C2078 0.956 . S
H2091 C2078 0.961 . S
H2092 C2078 0.961 . S
H2093 C2079 0.958 . S
H2094 C2079 0.961 . S
H2095 C2079 0.960 . S
C2096 C2097 1.391 . S
C2096 C2098 1.394 . S
C2096 H2112 0.931 . S
C2097 C2096 1.391 . S
C2097 C2101 1.376 . S
C2098 C2096 1.394 . S
C2098 C2099 1.369 . S
C2098 C2102 1.531 . S
C2099 C2098 1.369 . S
C2099 C2100 1.410 . S
C2099 C2107 1.503 . S
C2100 C2099 1.410 . S
C2100 C2101 1.392 . S
C2100 C2103 1.511 . S
C2101 C2097 1.376 . S
C2101 C2100 1.392 . S
C2101 H2113 0.929 . S
C2102 C2098 1.531 . S
C2102 H2114 0.960 . S
C2102 H2115 0.962 . S
C2102 H2116 0.960 . S
C2103 C2100 1.511 . S
C2103 H2117 0.961 . S
C2103 H2118 0.961 . S
C2103 H2119 0.961 . S
C2104 C2105 1.370 . S
C2104 C2106 1.363 . S
C2104 H2120 0.931 . S
C2105 C2104 1.370 . S
C2105 C2109 1.408 . S
C2106 C2104 1.363 . S
C2106 C2107 1.370 . S
C2106 C2110 1.524 . S
C2107 C2099 1.503 . S
C2107 C2106 1.370 . S
C2107 C2108 1.403 . S
C2108 C2107 1.403 . S
C2108 C2109 1.404 . S
C2108 C2111 1.539 . S
C2109 C2105 1.408 . S
C2109 C2108 1.404 . S
C2109 H2121 0.930 . S
C2110 C2106 1.524 . S
C2110 H2122 0.956 . S
C2110 H2123 0.961 . S
C2110 H2124 0.961 . S
C2111 C2108 1.539 . S
C2111 H2125 0.958 . S
C2111 H2126 0.961 . S
C2111 H2127 0.960 . S
H2112 C2096 0.931 . S
H2113 C2101 0.929 . S
H2114 C2102 0.960 . S
H2115 C2102 0.962 . S
H2116 C2102 0.960 . S
H2117 C2103 0.961 . S
H2118 C2103 0.961 . S
H2119 C2103 0.961 . S
H2120 C2104 0.931 . S
H2121 C2109 0.930 . S
H2122 C2110 0.956 . S
H2123 C2110 0.961 . S
H2124 C2110 0.961 . S
H2125 C2111 0.958 . S
H2126 C2111 0.961 . S
H2127 C2111 0.960 . S
C2128 C2129 1.391 . S
C2128 C2130 1.394 . S
C2128 H2144 0.931 . S
C2129 C2128 1.391 . S
C2129 C2133 1.376 . S
C2130 C2128 1.394 . S
C2130 C2131 1.369 . S
C2130 C2134 1.531 . S
C2131 C2130 1.369 . S
C2131 C2132 1.410 . S
C2131 C2139 1.503 . S
C2132 C2131 1.410 . S
C2132 C2133 1.392 . S
C2132 C2135 1.511 . S
C2133 C2129 1.376 . S
C2133 C2132 1.392 . S
C2133 H2145 0.929 . S
C2134 C2130 1.531 . S
C2134 H2146 0.960 . S
C2134 H2147 0.962 . S
C2134 H2148 0.960 . S
C2135 C2132 1.511 . S
C2135 H2149 0.961 1_545 S
C2135 H2150 0.961 . S
C2135 H2151 0.961 . S
C2136 C2137 1.370 . S
C2136 C2138 1.363 . S
C2136 H2152 0.931 1_545 S
C2137 C2136 1.370 . S
C2137 C2141 1.408 . S
C2138 C2136 1.363 . S
C2138 C2139 1.370 . S
C2138 C2142 1.524 1_545 S
C2139 C2131 1.503 . S
C2139 C2138 1.370 . S
C2139 C2140 1.403 . S
C2140 C2139 1.403 . S
C2140 C2141 1.404 . S
C2140 C2143 1.539 . S
C2141 C2137 1.408 . S
C2141 C2140 1.404 . S
C2141 H2153 0.930 . S
C2142 C2138 1.524 1_565 S
C2142 H2154 0.956 1_565 S
C2142 H2155 0.961 . S
C2142 H2156 0.961 . S
C2143 C2140 1.539 . S
C2143 H2157 0.958 . S
C2143 H2158 0.961 . S
C2143 H2159 0.960 . S
H2144 C2128 0.931 . S
H2145 C2133 0.929 . S
H2146 C2134 0.960 . S
H2147 C2134 0.962 . S
H2148 C2134 0.960 . S
H2149 C2135 0.961 1_565 S
H2150 C2135 0.961 . S
H2151 C2135 0.961 . S
H2152 C2136 0.931 1_565 S
H2153 C2141 0.930 . S
H2154 C2142 0.956 1_545 S
H2155 C2142 0.961 . S
H2156 C2142 0.961 . S
H2157 C2143 0.958 . S
H2158 C2143 0.961 . S
H2159 C2143 0.960 . S
C2160 C2161 1.391 . S
C2160 C2162 1.394 . S
C2160 H2176 0.931 . S
C2161 C2160 1.391 . S
C2161 C2165 1.376 . S
C2162 C2160 1.394 . S
C2162 C2163 1.369 . S
C2162 C2166 1.531 . S
C2163 C2162 1.369 . S
C2163 C2164 1.410 . S
C2163 C2171 1.503 . S
C2164 C2163 1.410 . S
C2164 C2165 1.392 . S
C2164 C2167 1.511 . S
C2165 C2161 1.376 . S
C2165 C2164 1.392 . S
C2165 H2177 0.929 . S
C2166 C2162 1.531 . S
C2166 H2178 0.960 . S
C2166 H2179 0.962 . S
C2166 H2180 0.960 . S
C2167 C2164 1.511 . S
C2167 H2181 0.961 . S
C2167 H2182 0.961 . S
C2167 H2183 0.961 . S
C2168 C2169 1.370 . S
C2168 C2170 1.363 . S
C2168 H2184 0.931 . S
C2169 C2168 1.370 . S
C2169 C2173 1.408 . S
C2170 C2168 1.363 . S
C2170 C2171 1.370 . S
C2170 C2174 1.524 . S
C2171 C2163 1.503 . S
C2171 C2170 1.370 . S
C2171 C2172 1.403 . S
C2172 C2171 1.403 . S
C2172 C2173 1.404 . S
C2172 C2175 1.539 . S
C2173 C2169 1.408 . S
C2173 C2172 1.404 . S
C2173 H2185 0.930 . S
C2174 C2170 1.524 . S
C2174 H2186 0.956 . S
C2174 H2187 0.961 . S
C2174 H2188 0.961 . S
C2175 C2172 1.539 . S
C2175 H2189 0.958 . S
C2175 H2190 0.961 . S
C2175 H2191 0.960 . S
H2176 C2160 0.931 . S
H2177 C2165 0.929 . S
H2178 C2166 0.960 . S
H2179 C2166 0.962 . S
H2180 C2166 0.960 . S
H2181 C2167 0.961 . S
H2182 C2167 0.961 . S
H2183 C2167 0.961 . S
H2184 C2168 0.931 . S
H2185 C2173 0.930 . S
H2186 C2174 0.956 . S
H2187 C2174 0.961 . S
H2188 C2174 0.961 . S
H2189 C2175 0.958 . S
H2190 C2175 0.961 . S
H2191 C2175 0.960 . S
C2192 C2193 1.391 . S
C2192 C2194 1.394 . S
C2192 H2208 0.931 . S
C2193 C2192 1.391 . S
C2193 C2197 1.376 . S
C2194 C2192 1.394 . S
C2194 C2195 1.369 . S
C2194 C2198 1.531 . S
C2195 C2194 1.369 . S
C2195 C2196 1.410 . S
C2195 C2203 1.503 . S
C2196 C2195 1.410 . S
C2196 C2197 1.392 . S
C2196 C2199 1.511 1_545 S
C2197 C2193 1.376 . S
C2197 C2196 1.392 . S
C2197 H2209 0.929 . S
C2198 C2194 1.531 . S
C2198 H2210 0.960 . S
C2198 H2211 0.962 . S
C2198 H2212 0.960 . S
C2199 C2196 1.511 1_565 S
C2199 H2213 0.961 . S
C2199 H2214 0.961 . S
C2199 H2215 0.961 . S
C2200 C2201 1.370 . S
C2200 C2202 1.363 . S
C2200 H2216 0.931 . S
C2201 C2200 1.370 . S
C2201 C2205 1.408 1_545 S
C2202 C2200 1.363 . S
C2202 C2203 1.370 . S
C2202 C2206 1.524 . S
C2203 C2195 1.503 . S
C2203 C2202 1.370 . S
C2203 C2204 1.403 1_545 S
C2204 C2203 1.403 1_565 S
C2204 C2205 1.404 . S
C2204 C2207 1.539 . S
C2205 C2201 1.408 1_565 S
C2205 C2204 1.404 . S
C2205 H2217 0.930 . S
C2206 C2202 1.524 . S
C2206 H2218 0.956 . S
C2206 H2219 0.961 . S
C2206 H2220 0.961 . S
C2207 C2204 1.539 . S
C2207 H2221 0.958 . S
C2207 H2222 0.961 . S
C2207 H2223 0.960 . S
H2208 C2192 0.931 . S
H2209 C2197 0.929 . S
H2210 C2198 0.960 . S
H2211 C2198 0.962 . S
H2212 C2198 0.960 . S
H2213 C2199 0.961 . S
H2214 C2199 0.961 . S
H2215 C2199 0.961 . S
H2216 C2200 0.931 . S
H2217 C2205 0.930 . S
H2218 C2206 0.956 . S
H2219 C2206 0.961 . S
H2220 C2206 0.961 . S
H2221 C2207 0.958 . S
H2222 C2207 0.961 . S
H2223 C2207 0.960 . S
C2224 C2225 1.391 . S
C2224 C2226 1.394 . S
C2224 H2240 0.931 . S
C2225 C2224 1.391 . S
C2225 C2229 1.376 . S
C2226 C2224 1.394 . S
C2226 C2227 1.369 . S
C2226 C2230 1.531 . S
C2227 C2226 1.369 . S
C2227 C2228 1.410 . S
C2227 C2235 1.503 . S
C2228 C2227 1.410 . S
C2228 C2229 1.392 . S
C2228 C2231 1.511 . S
C2229 C2225 1.376 . S
C2229 C2228 1.392 . S
C2229 H2241 0.929 . S
C2230 C2226 1.531 . S
C2230 H2242 0.960 . S
C2230 H2243 0.962 . S
C2230 H2244 0.960 . S
C2231 C2228 1.511 . S
C2231 H2245 0.961 . S
C2231 H2246 0.961 . S
C2231 H2247 0.961 . S
C2232 C2233 1.370 . S
C2232 C2234 1.363 . S
C2232 H2248 0.931 . S
C2233 C2232 1.370 . S
C2233 C2237 1.408 . S
C2234 C2232 1.363 . S
C2234 C2235 1.370 . S
C2234 C2238 1.524 . S
C2235 C2227 1.503 . S
C2235 C2234 1.370 . S
C2235 C2236 1.403 . S
C2236 C2235 1.403 . S
C2236 C2237 1.404 . S
C2236 C2239 1.539 . S
C2237 C2233 1.408 . S
C2237 C2236 1.404 . S
C2237 H2249 0.930 . S
C2238 C2234 1.524 . S
C2238 H2250 0.956 . S
C2238 H2251 0.961 . S
C2238 H2252 0.961 . S
C2239 C2236 1.539 . S
C2239 H2253 0.958 . S
C2239 H2254 0.961 . S
C2239 H2255 0.960 . S
H2240 C2224 0.931 . S
H2241 C2229 0.929 . S
H2242 C2230 0.960 . S
H2243 C2230 0.962 . S
H2244 C2230 0.960 . S
H2245 C2231 0.961 . S
H2246 C2231 0.961 . S
H2247 C2231 0.961 . S
H2248 C2232 0.931 . S
H2249 C2237 0.930 . S
H2250 C2238 0.956 . S
H2251 C2238 0.961 . S
H2252 C2238 0.961 . S
H2253 C2239 0.958 . S
H2254 C2239 0.961 . S
H2255 C2239 0.960 . S
C2256 C2257 1.391 . S
C2256 C2258 1.394 . S
C2256 H2272 0.931 . S
C2257 C2256 1.391 . S
C2257 C2261 1.376 . S
C2258 C2256 1.394 . S
C2258 C2259 1.369 . S
C2258 C2262 1.531 . S
C2259 C2258 1.369 . S
C2259 C2260 1.410 . S
C2259 C2267 1.503 . S
C2260 C2259 1.410 . S
C2260 C2261 1.392 . S
C2260 C2263 1.511 . S
C2261 C2257 1.376 . S
C2261 C2260 1.392 . S
C2261 H2273 0.929 . S
C2262 C2258 1.531 . S
C2262 H2274 0.960 . S
C2262 H2275 0.962 . S
C2262 H2276 0.960 . S
C2263 C2260 1.511 . S
C2263 H2277 0.961 . S
C2263 H2278 0.961 . S
C2263 H2279 0.961 . S
C2264 C2265 1.370 . S
C2264 C2266 1.363 . S
C2264 H2280 0.931 . S
C2265 C2264 1.370 . S
C2265 C2269 1.408 . S
C2266 C2264 1.363 . S
C2266 C2267 1.370 . S
C2266 C2270 1.524 . S
C2267 C2259 1.503 . S
C2267 C2266 1.370 . S
C2267 C2268 1.403 . S
C2268 C2267 1.403 . S
C2268 C2269 1.404 . S
C2268 C2271 1.563 . S
C2269 C2265 1.408 . S
C2269 C2268 1.404 . S
C2269 H2281 0.930 1_554 S
C2270 C2266 1.524 . S
C2270 H2282 0.956 . S
C2270 H2283 0.961 . S
C2270 H2284 0.961 . S
C2271 C2268 1.563 . S
C2271 H2285 0.965 1_554 S
C2271 H2286 0.917 1_554 S
C2271 H2287 0.976 . S
H2272 C2256 0.931 . S
H2273 C2261 0.929 . S
H2274 C2262 0.960 . S
H2275 C2262 0.962 . S
H2276 C2262 0.960 . S
H2277 C2263 0.961 . S
H2278 C2263 0.961 . S
H2279 C2263 0.961 . S
H2280 C2264 0.931 . S
H2281 C2269 0.930 1_556 S
H2282 C2270 0.956 . S
H2283 C2270 0.961 . S
H2284 C2270 0.961 . S
H2285 C2271 0.965 1_556 S
H2286 C2271 0.917 1_556 S
H2287 C2271 0.976 . S
C2288 C2289 1.391 . S
C2288 C2290 1.394 . S
C2288 H2304 0.931 . S
C2289 C2288 1.391 . S
C2289 C2293 1.376 . S
C2290 C2288 1.394 . S
C2290 C2291 1.369 . S
C2290 C2294 1.531 . S
C2291 C2290 1.369 . S
C2291 C2292 1.410 . S
C2291 C2299 1.503 . S
C2292 C2291 1.410 . S
C2292 C2293 1.392 . S
C2292 C2295 1.511 . S
C2293 C2289 1.376 . S
C2293 C2292 1.392 . S
C2293 H2305 0.929 . S
C2294 C2290 1.531 . S
C2294 H2306 0.960 . S
C2294 H2307 0.962 1_554 S
C2294 H2308 0.960 . S
C2295 C2292 1.511 . S
C2295 H2309 0.961 . S
C2295 H2310 0.961 . S
C2295 H2311 0.961 . S
C2296 C2297 1.370 . S
C2296 C2298 1.363 . S
C2296 H2312 0.931 . S
C2297 C2296 1.370 . S
C2297 C2301 1.408 . S
C2298 C2296 1.363 . S
C2298 C2299 1.370 . S
C2298 C2302 1.524 . S
C2299 C2291 1.503 . S
C2299 C2298 1.370 . S
C2299 C2300 1.403 . S
C2300 C2299 1.403 . S
C2300 C2301 1.404 . S
C2300 C2303 1.539 . S
C2301 C2297 1.408 . S
C2301 C2300 1.404 . S
C2301 H2313 0.930 . S
C2302 C2298 1.524 . S
C2302 H2314 0.956 . S
C2302 H2315 0.961 . S
C2302 H2316 0.961 . S
C2303 C2300 1.539 . S
C2303 H2317 0.958 . S
C2303 H2318 0.961 . S
C2303 H2319 0.960 . S
H2304 C2288 0.931 . S
H2305 C2293 0.929 . S
H2306 C2294 0.960 . S
H2307 C2294 0.962 1_556 S
H2308 C2294 0.960 . S
H2309 C2295 0.961 . S
H2310 C2295 0.961 . S
H2311 C2295 0.961 . S
H2312 C2296 0.931 . S
H2313 C2301 0.930 . S
H2314 C2302 0.956 . S
H2315 C2302 0.961 . S
H2316 C2302 0.961 . S
H2317 C2303 0.958 . S
H2318 C2303 0.961 . S
H2319 C2303 0.960 . S
C2320 C2321 1.391 . S
C2320 C2322 1.394 . S
C2320 H2336 0.931 . S
C2321 C2320 1.391 . S
C2321 C2325 1.376 . S
C2322 C2320 1.394 . S
C2322 C2323 1.369 . S
C2322 C2326 1.531 . S
C2323 C2322 1.369 . S
C2323 C2324 1.410 . S
C2323 C2331 1.503 . S
C2324 C2323 1.410 . S
C2324 C2325 1.392 . S
C2324 C2327 1.511 . S
C2325 C2321 1.376 . S
C2325 C2324 1.392 . S
C2325 H2337 0.929 . S
C2326 C2322 1.531 . S
C2326 H2338 0.960 . S
C2326 H2339 0.962 . S
C2326 H2340 0.960 . S
C2327 C2324 1.511 . S
C2327 H2341 0.961 . S
C2327 H2342 0.961 . S
C2327 H2343 0.961 . S
C2328 C2329 1.370 . S
C2328 C2330 1.363 . S
C2328 H2344 0.931 . S
C2329 C2328 1.370 . S
C2329 C2333 1.408 . S
C2330 C2328 1.363 . S
C2330 C2331 1.370 . S
C2330 C2334 1.524 . S
C2331 C2323 1.503 . S
C2331 C2330 1.370 . S
C2331 C2332 1.403 . S
C2332 C2331 1.403 . S
C2332 C2333 1.404 . S
C2332 C2335 1.539 . S
C2333 C2329 1.408 . S
C2333 C2332 1.404 . S
C2333 H2345 0.930 . S
C2334 C2330 1.524 . S
C2334 H2346 0.956 . S
C2334 H2347 0.961 . S
C2334 H2348 0.961 . S
C2335 C2332 1.539 . S
C2335 H2349 0.958 . S
C2335 H2350 0.961 . S
C2335 H2351 0.960 . S
H2336 C2320 0.931 . S
H2337 C2325 0.929 . S
H2338 C2326 0.960 . S
H2339 C2326 0.962 . S
H2340 C2326 0.960 . S
H2341 C2327 0.961 . S
H2342 C2327 0.961 . S
H2343 C2327 0.961 . S
H2344 C2328 0.931 . S
H2345 C2333 0.930 . S
H2346 C2334 0.956 . S
H2347 C2334 0.961 . S
H2348 C2334 0.961 . S
H2349 C2335 0.958 . S
H2350 C2335 0.961 . S
H2351 C2335 0.960 . S
C2352 C2353 1.391 . S
C2352 C2354 1.394 . S
C2352 H2368 0.931 . S
C2353 C2352 1.391 . S
C2353 C2357 1.376 . S
C2354 C2352 1.394 . S
C2354 C2355 1.369 . S
C2354 C2358 1.531 . S
C2355 C2354 1.369 . S
C2355 C2356 1.410 . S
C2355 C2363 1.503 . S
C2356 C2355 1.410 . S
C2356 C2357 1.392 . S
C2356 C2359 1.511 . S
C2357 C2353 1.376 . S
C2357 C2356 1.392 . S
C2357 H2369 0.929 . S
C2358 C2354 1.531 . S
C2358 H2370 0.960 . S
C2358 H2371 0.962 . S
C2358 H2372 0.960 . S
C2359 C2356 1.511 . S
C2359 H2373 0.961 . S
C2359 H2374 0.961 . S
C2359 H2375 0.961 . S
C2360 C2361 1.370 . S
C2360 C2362 1.363 . S
C2360 H2376 0.931 . S
C2361 C2360 1.370 . S
C2361 C2365 1.408 . S
C2362 C2360 1.363 . S
C2362 C2363 1.370 . S
C2362 C2366 1.524 . S
C2363 C2355 1.503 . S
C2363 C2362 1.370 . S
C2363 C2364 1.403 . S
C2364 C2363 1.403 . S
C2364 C2365 1.404 . S
C2364 C2367 1.539 . S
C2365 C2361 1.408 . S
C2365 C2364 1.404 . S
C2365 H2377 0.930 . S
C2366 C2362 1.524 . S
C2366 H2378 0.956 . S
C2366 H2379 0.961 . S
C2366 H2380 0.961 . S
C2367 C2364 1.539 . S
C2367 H2381 0.958 . S
C2367 H2382 0.961 . S
C2367 H2383 0.960 . S
H2368 C2352 0.931 . S
H2369 C2357 0.929 . S
H2370 C2358 0.960 . S
H2371 C2358 0.962 . S
H2372 C2358 0.960 . S
H2373 C2359 0.961 . S
H2374 C2359 0.961 . S
H2375 C2359 0.961 . S
H2376 C2360 0.931 . S
H2377 C2365 0.930 . S
H2378 C2366 0.956 . S
H2379 C2366 0.961 . S
H2380 C2366 0.961 . S
H2381 C2367 0.958 . S
H2382 C2367 0.961 . S
H2383 C2367 0.960 . S
C2384 C2385 1.391 . S
C2384 C2386 1.394 . S
C2384 H2400 0.931 . S
C2385 C2384 1.391 . S
C2385 C2389 1.376 . S
C2386 C2384 1.394 . S
C2386 C2387 1.369 . S
C2386 C2390 1.531 . S
C2387 C2386 1.369 . S
C2387 C2388 1.410 . S
C2387 C2395 1.503 . S
C2388 C2387 1.410 . S
C2388 C2389 1.392 . S
C2388 C2391 1.511 . S
C2389 C2385 1.376 . S
C2389 C2388 1.392 . S
C2389 H2401 0.929 . S
C2390 C2386 1.531 . S
C2390 H2402 0.960 . S
C2390 H2403 0.962 . S
C2390 H2404 0.960 . S
C2391 C2388 1.511 . S
C2391 H2405 0.961 . S
C2391 H2406 0.961 . S
C2391 H2407 0.961 . S
C2392 C2393 1.370 . S
C2392 C2394 1.363 . S
C2392 H2408 0.931 . S
C2393 C2392 1.370 . S
C2393 C2397 1.408 . S
C2394 C2392 1.363 . S
C2394 C2395 1.370 . S
C2394 C2398 1.524 . S
C2395 C2387 1.503 . S
C2395 C2394 1.370 . S
C2395 C2396 1.403 . S
C2396 C2395 1.403 . S
C2396 C2397 1.404 . S
C2396 C2399 1.539 . S
C2397 C2393 1.408 . S
C2397 C2396 1.404 . S
C2397 H2409 0.930 . S
C2398 C2394 1.524 . S
C2398 H2410 0.956 . S
C2398 H2411 0.961 . S
C2398 H2412 0.961 . S
C2399 C2396 1.539 . S
C2399 H2413 0.958 . S
C2399 H2414 0.961 . S
C2399 H2415 0.960 . S
H2400 C2384 0.931 . S
H2401 C2389 0.929 . S
H2402 C2390 0.960 . S
H2403 C2390 0.962 . S
H2404 C2390 0.960 . S
H2405 C2391 0.961 . S
H2406 C2391 0.961 . S
H2407 C2391 0.961 . S
H2408 C2392 0.931 . S
H2409 C2397 0.930 . S
H2410 C2398 0.956 . S
H2411 C2398 0.961 . S
H2412 C2398 0.961 . S
H2413 C2399 0.958 . S
H2414 C2399 0.961 . S
H2415 C2399 0.960 . S
C2416 C2417 1.391 . S
C2416 C2418 1.394 . S
C2416 H2432 0.931 . S
C2417 C2416 1.391 . S
C2417 C2421 1.376 . S
C2418 C2416 1.394 . S
C2418 C2419 1.369 . S
C2418 C2422 1.531 . S
C2419 C2418 1.369 . S
C2419 C2420 1.410 . S
C2419 C2427 1.503 . S
C2420 C2419 1.410 . S
C2420 C2421 1.392 . S
C2420 C2423 1.511 . S
C2421 C2417 1.376 . S
C2421 C2420 1.392 . S
C2421 H2433 0.929 . S
C2422 C2418 1.531 . S
C2422 H2434 0.960 . S
C2422 H2435 0.962 . S
C2422 H2436 0.960 . S
C2423 C2420 1.511 . S
C2423 H2437 0.961 . S
C2423 H2438 0.961 . S
C2423 H2439 0.961 . S
C2424 C2425 1.370 . S
C2424 C2426 1.363 . S
C2424 H2440 0.931 . S
C2425 C2424 1.370 . S
C2425 C2429 1.408 . S
C2426 C2424 1.363 . S
C2426 C2427 1.370 . S
C2426 C2430 1.524 . S
C2427 C2419 1.503 . S
C2427 C2426 1.370 . S
C2427 C2428 1.403 . S
C2428 C2427 1.403 . S
C2428 C2429 1.404 . S
C2428 C2431 1.539 . S
C2429 C2425 1.408 . S
C2429 C2428 1.404 . S
C2429 H2441 0.930 . S
C2430 C2426 1.524 . S
C2430 H2442 0.956 . S
C2430 H2443 0.961 . S
C2430 H2444 0.961 . S
C2431 C2428 1.539 . S
C2431 H2445 0.958 . S
C2431 H2446 0.961 . S
C2431 H2447 0.960 . S
H2432 C2416 0.931 . S
H2433 C2421 0.929 . S
H2434 C2422 0.960 . S
H2435 C2422 0.962 . S
H2436 C2422 0.960 . S
H2437 C2423 0.961 . S
H2438 C2423 0.961 . S
H2439 C2423 0.961 . S
H2440 C2424 0.931 . S
H2441 C2429 0.930 . S
H2442 C2430 0.956 . S
H2443 C2430 0.961 . S
H2444 C2430 0.961 . S
H2445 C2431 0.958 . S
H2446 C2431 0.961 . S
H2447 C2431 0.960 . S
C2448 C2449 1.391 . S
C2448 C2450 1.394 . S
C2448 H2464 0.931 . S
C2449 C2448 1.391 . S
C2449 C2453 1.376 . S
C2450 C2448 1.394 . S
C2450 C2451 1.369 . S
C2450 C2454 1.531 . S
C2451 C2450 1.369 . S
C2451 C2452 1.410 . S
C2451 C2459 1.503 . S
C2452 C2451 1.410 . S
C2452 C2453 1.392 . S
C2452 C2455 1.511 . S
C2453 C2449 1.376 . S
C2453 C2452 1.392 . S
C2453 H2465 0.929 . S
C2454 C2450 1.531 . S
C2454 H2466 0.960 . S
C2454 H2467 0.962 . S
C2454 H2468 0.960 . S
C2455 C2452 1.511 . S
C2455 H2469 0.961 . S
C2455 H2470 0.961 . S
C2455 H2471 0.961 . S
C2456 C2457 1.370 . S
C2456 C2458 1.363 . S
C2456 H2472 0.931 . S
C2457 C2456 1.370 . S
C2457 C2461 1.408 . S
C2458 C2456 1.363 . S
C2458 C2459 1.370 . S
C2458 C2462 1.524 . S
C2459 C2451 1.503 . S
C2459 C2458 1.370 . S
C2459 C2460 1.403 . S
C2460 C2459 1.403 . S
C2460 C2461 1.404 . S
C2460 C2463 1.539 . S
C2461 C2457 1.408 . S
C2461 C2460 1.404 . S
C2461 H2473 0.930 . S
C2462 C2458 1.524 . S
C2462 H2474 0.956 . S
C2462 H2475 0.961 . S
C2462 H2476 0.961 . S
C2463 C2460 1.539 . S
C2463 H2477 0.958 . S
C2463 H2478 0.961 . S
C2463 H2479 0.960 . S
H2464 C2448 0.931 . S
H2465 C2453 0.929 . S
H2466 C2454 0.960 . S
H2467 C2454 0.962 . S
H2468 C2454 0.960 . S
H2469 C2455 0.961 . S
H2470 C2455 0.961 . S
H2471 C2455 0.961 . S
H2472 C2456 0.931 . S
H2473 C2461 0.930 . S
H2474 C2462 0.956 . S
H2475 C2462 0.961 . S
H2476 C2462 0.961 . S
H2477 C2463 0.958 . S
H2478 C2463 0.961 . S
H2479 C2463 0.960 . S
C2480 C2481 1.391 . S
C2480 C2482 1.394 . S
C2480 H2496 0.931 . S
C2481 C2480 1.391 . S
C2481 C2485 1.376 . S
C2482 C2480 1.394 . S
C2482 C2483 1.369 . S
C2482 C2486 1.531 . S
C2483 C2482 1.369 . S
C2483 C2484 1.410 . S
C2483 C2491 1.503 . S
C2484 C2483 1.410 . S
C2484 C2485 1.392 . S
C2484 C2487 1.511 . S
C2485 C2481 1.376 . S
C2485 C2484 1.392 . S
C2485 H2497 0.929 . S
C2486 C2482 1.531 . S
C2486 H2498 0.960 . S
C2486 H2499 0.962 . S
C2486 H2500 0.960 . S
C2487 C2484 1.511 . S
C2487 H2501 0.961 . S
C2487 H2502 0.961 . S
C2487 H2503 0.961 . S
C2488 C2489 1.370 . S
C2488 C2490 1.363 . S
C2488 H2504 0.931 . S
C2489 C2488 1.370 . S
C2489 C2493 1.408 . S
C2490 C2488 1.363 . S
C2490 C2491 1.370 . S
C2490 C2494 1.524 . S
C2491 C2483 1.503 . S
C2491 C2490 1.370 . S
C2491 C2492 1.403 . S
C2492 C2491 1.403 . S
C2492 C2493 1.404 . S
C2492 C2495 1.539 . S
C2493 C2489 1.408 . S
C2493 C2492 1.404 . S
C2493 H2505 0.930 . S
C2494 C2490 1.524 . S
C2494 H2506 0.956 . S
C2494 H2507 0.961 . S
C2494 H2508 0.961 . S
C2495 C2492 1.539 . S
C2495 H2509 0.958 . S
C2495 H2510 0.961 . S
C2495 H2511 0.960 . S
H2496 C2480 0.931 . S
H2497 C2485 0.929 . S
H2498 C2486 0.960 . S
H2499 C2486 0.962 . S
H2500 C2486 0.960 . S
H2501 C2487 0.961 . S
H2502 C2487 0.961 . S
H2503 C2487 0.961 . S
H2504 C2488 0.931 . S
H2505 C2493 0.930 . S
H2506 C2494 0.956 . S
H2507 C2494 0.961 . S
H2508 C2494 0.961 . S
H2509 C2495 0.958 . S
H2510 C2495 0.961 . S
H2511 C2495 0.960 . S
C2512 C2513 1.391 . S
C2512 C2514 1.394 . S
C2512 H2528 0.931 . S
C2513 C2512 1.391 . S
C2513 C2517 1.376 . S
C2514 C2512 1.394 . S
C2514 C2515 1.369 . S
C2514 C2518 1.531 . S
C2515 C2514 1.369 . S
C2515 C2516 1.410 . S
C2515 C2523 1.503 . S
C2516 C2515 1.410 . S
C2516 C2517 1.392 . S
C2516 C2519 1.511 . S
C2517 C2513 1.376 . S
C2517 C2516 1.392 . S
C2517 H2529 0.929 . S
C2518 C2514 1.531 . S
C2518 H2530 0.960 . S
C2518 H2531 0.962 . S
C2518 H2532 0.960 . S
C2519 C2516 1.511 . S
C2519 H2533 0.961 . S
C2519 H2534 0.961 . S
C2519 H2535 0.961 . S
C2520 C2521 1.370 . S
C2520 C2522 1.363 . S
C2520 H2536 0.931 . S
C2521 C2520 1.370 . S
C2521 C2525 1.408 . S
C2522 C2520 1.363 . S
C2522 C2523 1.370 . S
C2522 C2526 1.524 . S
C2523 C2515 1.503 . S
C2523 C2522 1.370 . S
C2523 C2524 1.403 . S
C2524 C2523 1.403 . S
C2524 C2525 1.404 . S
C2524 C2527 1.539 . S
C2525 C2521 1.408 . S
C2525 C2524 1.404 . S
C2525 H2537 0.930 . S
C2526 C2522 1.524 . S
C2526 H2538 0.956 . S
C2526 H2539 0.961 . S
C2526 H2540 0.961 . S
C2527 C2524 1.539 . S
C2527 H2541 0.958 . S
C2527 H2542 0.961 . S
C2527 H2543 0.960 . S
H2528 C2512 0.931 . S
H2529 C2517 0.929 . S
H2530 C2518 0.960 . S
H2531 C2518 0.962 . S
H2532 C2518 0.960 . S
H2533 C2519 0.961 . S
H2534 C2519 0.961 . S
H2535 C2519 0.961 . S
H2536 C2520 0.931 . S
H2537 C2525 0.930 . S
H2538 C2526 0.956 . S
H2539 C2526 0.961 . S
H2540 C2526 0.961 . S
H2541 C2527 0.958 . S
H2542 C2527 0.961 . S
H2543 C2527 0.960 . S
C2544 C2545 1.391 . S
C2544 C2546 1.394 . S
C2544 H2560 0.931 . S
C2545 C2544 1.391 . S
C2545 C2549 1.376 . S
C2546 C2544 1.394 . S
C2546 C2547 1.369 . S
C2546 C2550 1.531 . S
C2547 C2546 1.369 . S
C2547 C2548 1.410 . S
C2547 C2555 1.503 . S
C2548 C2547 1.410 . S
C2548 C2549 1.392 . S
C2548 C2551 1.511 . S
C2549 C2545 1.376 . S
C2549 C2548 1.392 . S
C2549 H2561 0.929 . S
C2550 C2546 1.531 . S
C2550 H2562 0.960 . S
C2550 H2563 0.962 . S
C2550 H2564 0.960 . S
C2551 C2548 1.511 . S
C2551 H2565 0.961 . S
C2551 H2566 0.961 . S
C2551 H2567 0.961 . S
C2552 C2553 1.370 . S
C2552 C2554 1.363 . S
C2552 H2568 0.931 . S
C2553 C2552 1.370 . S
C2553 C2557 1.408 . S
C2554 C2552 1.363 . S
C2554 C2555 1.370 . S
C2554 C2558 1.524 . S
C2555 C2547 1.503 . S
C2555 C2554 1.370 . S
C2555 C2556 1.403 . S
C2556 C2555 1.403 . S
C2556 C2557 1.404 . S
C2556 C2559 1.539 . S
C2557 C2553 1.408 . S
C2557 C2556 1.404 . S
C2557 H2569 0.930 . S
C2558 C2554 1.524 . S
C2558 H2570 0.956 . S
C2558 H2571 0.961 . S
C2558 H2572 0.961 . S
C2559 C2556 1.539 . S
C2559 H2573 0.958 . S
C2559 H2574 0.961 . S
C2559 H2575 0.960 . S
H2560 C2544 0.931 . S
H2561 C2549 0.929 . S
H2562 C2550 0.960 . S
H2563 C2550 0.962 . S
H2564 C2550 0.960 . S
H2565 C2551 0.961 . S
H2566 C2551 0.961 . S
H2567 C2551 0.961 . S
H2568 C2552 0.931 . S
H2569 C2557 0.930 . S
H2570 C2558 0.956 . S
H2571 C2558 0.961 . S
H2572 C2558 0.961 . S
H2573 C2559 0.958 . S
H2574 C2559 0.961 . S
H2575 C2559 0.960 . S
C2576 C2577 1.391 . S
C2576 C2578 1.394 1_556 S
C2576 H2592 0.928 1_456 S
C2577 C2576 1.391 . S
C2577 C2581 1.376 . S
C2578 C2576 1.394 1_554 S
C2578 C2579 1.369 . S
C2578 C2582 1.519 1_455 S
C2579 C2578 1.369 . S
C2579 C2580 1.410 1_554 S
C2579 C2587 1.503 . S
C2580 C2579 1.410 1_556 S
C2580 C2581 1.392 . S
C2580 C2583 1.511 . S
C2581 C2577 1.376 . S
C2581 C2580 1.392 . S
C2581 H2593 0.929 . S
C2582 C2578 1.519 1_655 S
C2582 H2594 0.956 1_655 S
C2582 H2595 0.976 . S
C2582 H2596 0.963 . S
C2583 C2580 1.511 . S
C2583 H2597 0.961 . S
C2583 H2598 0.961 . S
C2583 H2599 0.961 . S
C2584 C2585 1.370 . S
C2584 C2586 1.363 1_554 S
C2584 H2600 0.931 1_554 S
C2585 C2584 1.370 . S
C2585 C2589 1.408 . S
C2586 C2584 1.363 1_556 S
C2586 C2587 1.370 1_556 S
C2586 C2590 1.509 1_455 S
C2587 C2579 1.503 . S
C2587 C2586 1.370 1_554 S
C2587 C2588 1.403 . S
C2588 C2587 1.403 . S
C2588 C2589 1.404 . S
C2588 C2591 1.539 . S
C2589 C2585 1.408 . S
C2589 C2588 1.404 . S
C2589 H2601 0.930 . S
C2590 C2586 1.509 1_655 S
C2590 H2602 0.978 . S
C2590 H2603 0.936 1_655 S
C2590 H2604 0.979 . S
C2591 C2588 1.539 . S
C2591 H2605 0.958 . S
C2591 H2606 0.961 . S
C2591 H2607 0.960 . S
H2592 C2576 0.928 1_654 S
H2593 C2581 0.929 . S
H2594 C2582 0.956 1_455 S
H2595 C2582 0.976 . S
H2596 C2582 0.963 . S
H2597 C2583 0.961 . S
H2598 C2583 0.961 . S
H2599 C2583 0.961 . S
H2600 C2584 0.931 1_556 S
H2601 C2589 0.930 . S
H2602 C2590 0.978 . S
H2603 C2590 0.936 1_455 S
H2604 C2590 0.979 . S
H2605 C2591 0.958 . S
H2606 C2591 0.961 . S
H2607 C2591 0.960 . S
C2608 C2609 1.391 . S
C2608 C2610 1.394 . S
C2608 H2624 0.931 . S
C2609 C2608 1.391 . S
C2609 C2613 1.376 . S
C2610 C2608 1.394 . S
C2610 C2611 1.369 . S
C2610 C2614 1.531 . S
C2611 C2610 1.369 . S
C2611 C2612 1.410 . S
C2611 C2619 1.503 . S
C2612 C2611 1.410 . S
C2612 C2613 1.392 . S
C2612 C2615 1.511 . S
C2613 C2609 1.376 . S
C2613 C2612 1.392 . S
C2613 H2625 0.929 1_655 S
C2614 C2610 1.531 . S
C2614 H2626 0.960 . S
C2614 H2627 0.962 . S
C2614 H2628 0.960 . S
C2615 C2612 1.511 . S
C2615 H2629 0.961 . S
C2615 H2630 0.961 . S
C2615 H2631 0.961 . S
C2616 C2617 1.370 . S
C2616 C2618 1.363 . S
C2616 H2632 0.931 . S
C2617 C2616 1.370 . S
C2617 C2621 1.408 . S
C2618 C2616 1.363 . S
C2618 C2619 1.370 . S
C2618 C2622 1.524 . S
C2619 C2611 1.503 . S
C2619 C2618 1.370 . S
C2619 C2620 1.403 . S
C2620 C2619 1.403 . S
C2620 C2621 1.404 . S
C2620 C2623 1.539 . S
C2621 C2617 1.408 . S
C2621 C2620 1.404 . S
C2621 H2633 0.930 . S
C2622 C2618 1.524 . S
C2622 H2634 0.956 . S
C2622 H2635 0.961 . S
C2622 H2636 0.961 . S
C2623 C2620 1.539 . S
C2623 H2637 0.958 . S
C2623 H2638 0.961 . S
C2623 H2639 0.960 . S
H2624 C2608 0.931 . S
H2625 C2613 0.929 1_455 S
H2626 C2614 0.960 . S
H2627 C2614 0.962 . S
H2628 C2614 0.960 . S
H2629 C2615 0.961 . S
H2630 C2615 0.961 . S
H2631 C2615 0.961 . S
H2632 C2616 0.931 . S
H2633 C2621 0.930 . S
H2634 C2622 0.956 . S
H2635 C2622 0.961 . S
H2636 C2622 0.961 . S
H2637 C2623 0.958 . S
H2638 C2623 0.961 . S
H2639 C2623 0.960 . S
C2640 C2641 1.391 . S
C2640 C2642 1.394 . S
C2640 H2656 0.931 . S
C2641 C2640 1.391 . S
C2641 C2645 1.376 . S
C2642 C2640 1.394 . S
C2642 C2643 1.369 . S
C2642 C2646 1.531 . S
C2643 C2642 1.369 . S
C2643 C2644 1.410 . S
C2643 C2651 1.503 . S
C2644 C2643 1.410 . S
C2644 C2645 1.392 . S
C2644 C2647 1.511 . S
C2645 C2641 1.376 . S
C2645 C2644 1.392 . S
C2645 H2657 0.929 . S
C2646 C2642 1.531 . S
C2646 H2658 0.960 . S
C2646 H2659 0.962 . S
C2646 H2660 0.960 . S
C2647 C2644 1.511 . S
C2647 H2661 0.961 . S
C2647 H2662 0.961 . S
C2647 H2663 0.961 . S
C2648 C2649 1.370 . S
C2648 C2650 1.363 . S
C2648 H2664 0.931 . S
C2649 C2648 1.370 . S
C2649 C2653 1.408 . S
C2650 C2648 1.363 . S
C2650 C2651 1.370 . S
C2650 C2654 1.524 . S
C2651 C2643 1.503 . S
C2651 C2650 1.370 . S
C2651 C2652 1.403 . S
C2652 C2651 1.403 . S
C2652 C2653 1.404 . S
C2652 C2655 1.539 . S
C2653 C2649 1.408 . S
C2653 C2652 1.404 . S
C2653 H2665 0.930 . S
C2654 C2650 1.524 . S
C2654 H2666 0.956 . S
C2654 H2667 0.961 . S
C2654 H2668 0.961 . S
C2655 C2652 1.539 . S
C2655 H2669 0.958 . S
C2655 H2670 0.961 . S
C2655 H2671 0.960 . S
H2656 C2640 0.931 . S
H2657 C2645 0.929 . S
H2658 C2646 0.960 . S
H2659 C2646 0.962 . S
H2660 C2646 0.960 . S
H2661 C2647 0.961 . S
H2662 C2647 0.961 . S
H2663 C2647 0.961 . S
H2664 C2648 0.931 . S
H2665 C2653 0.930 . S
H2666 C2654 0.956 . S
H2667 C2654 0.961 . S
H2668 C2654 0.961 . S
H2669 C2655 0.958 . S
H2670 C2655 0.961 . S
H2671 C2655 0.960 . S
C2672 C2673 1.391 . S
C2672 C2674 1.394 . S
C2672 H2688 0.931 . S
C2673 C2672 1.391 . S
C2673 C2677 1.376 . S
C2674 C2672 1.394 . S
C2674 C2675 1.369 . S
C2674 C2678 1.531 . S
C2675 C2674 1.369 . S
C2675 C2676 1.410 . S
C2675 C2683 1.503 . S
C2676 C2675 1.410 . S
C2676 C2677 1.392 . S
C2676 C2679 1.511 . S
C2677 C2673 1.376 . S
C2677 C2676 1.392 . S
C2677 H2689 0.929 . S
C2678 C2674 1.531 . S
C2678 H2690 0.960 . S
C2678 H2691 0.962 . S
C2678 H2692 0.960 . S
C2679 C2676 1.511 . S
C2679 H2693 0.961 . S
C2679 H2694 0.961 . S
C2679 H2695 0.961 . S
C2680 C2681 1.370 . S
C2680 C2682 1.363 . S
C2680 H2696 0.931 . S
C2681 C2680 1.370 . S
C2681 C2685 1.408 . S
C2682 C2680 1.363 . S
C2682 C2683 1.370 . S
C2682 C2686 1.524 . S
C2683 C2675 1.503 . S
C2683 C2682 1.370 . S
C2683 C2684 1.403 . S
C2684 C2683 1.403 . S
C2684 C2685 1.404 . S
C2684 C2687 1.539 . S
C2685 C2681 1.408 . S
C2685 C2684 1.404 . S
C2685 H2697 0.930 . S
C2686 C2682 1.524 . S
C2686 H2698 0.956 . S
C2686 H2699 0.961 . S
C2686 H2700 0.961 . S
C2687 C2684 1.539 . S
C2687 H2701 0.958 . S
C2687 H2702 0.961 . S
C2687 H2703 0.960 . S
H2688 C2672 0.931 . S
H2689 C2677 0.929 . S
H2690 C2678 0.960 . S
H2691 C2678 0.962 . S
H2692 C2678 0.960 . S
H2693 C2679 0.961 . S
H2694 C2679 0.961 . S
H2695 C2679 0.961 . S
H2696 C2680 0.931 . S
H2697 C2685 0.930 . S
H2698 C2686 0.956 . S
H2699 C2686 0.961 . S
H2700 C2686 0.961 . S
H2701 C2687 0.958 . S
H2702 C2687 0.961 . S
H2703 C2687 0.960 . S
C2704 C2705 1.391 . S
C2704 C2706 1.394 . S
C2704 H2720 0.931 . S
C2705 C2704 1.391 . S
C2705 C2709 1.376 . S
C2706 C2704 1.394 . S
C2706 C2707 1.369 . S
C2706 C2710 1.531 . S
C2707 C2706 1.369 . S
C2707 C2708 1.410 . S
C2707 C2715 1.503 . S
C2708 C2707 1.410 . S
C2708 C2709 1.392 . S
C2708 C2711 1.511 . S
C2709 C2705 1.376 . S
C2709 C2708 1.392 . S
C2709 H2721 0.929 . S
C2710 C2706 1.531 . S
C2710 H2722 0.960 . S
C2710 H2723 0.962 . S
C2710 H2724 0.960 . S
C2711 C2708 1.511 . S
C2711 H2725 0.961 . S
C2711 H2726 0.961 . S
C2711 H2727 0.919 1_455 S
C2712 C2713 1.370 . S
C2712 C2714 1.363 . S
C2712 H2728 0.931 . S
C2713 C2712 1.370 . S
C2713 C2717 1.408 . S
C2714 C2712 1.363 . S
C2714 C2715 1.370 . S
C2714 C2718 1.524 . S
C2715 C2707 1.503 . S
C2715 C2714 1.370 . S
C2715 C2716 1.403 . S
C2716 C2715 1.403 . S
C2716 C2717 1.404 . S
C2716 C2719 1.539 . S
C2717 C2713 1.408 . S
C2717 C2716 1.404 . S
C2717 H2729 0.930 . S
C2718 C2714 1.524 . S
C2718 H2730 0.956 . S
C2718 H2731 0.961 . S
C2718 H2732 0.961 . S
C2719 C2716 1.539 . S
C2719 H2733 0.958 . S
C2719 H2734 0.961 . S
C2719 H2735 0.960 . S
H2720 C2704 0.931 . S
H2721 C2709 0.929 . S
H2722 C2710 0.960 . S
H2723 C2710 0.962 . S
H2724 C2710 0.960 . S
H2725 C2711 0.961 . S
H2726 C2711 0.961 . S
H2727 C2711 0.919 1_655 S
H2728 C2712 0.931 . S
H2729 C2717 0.930 . S
H2730 C2718 0.956 . S
H2731 C2718 0.961 . S
H2732 C2718 0.961 . S
H2733 C2719 0.958 . S
H2734 C2719 0.961 . S
H2735 C2719 0.960 . S
C2736 C2737 1.391 . S
C2736 C2738 1.394 . S
C2736 H2752 0.931 . S
C2737 C2736 1.391 . S
C2737 C2741 1.376 . S
C2738 C2736 1.394 . S
C2738 C2739 1.369 . S
C2738 C2742 1.531 . S
C2739 C2738 1.369 . S
C2739 C2740 1.410 . S
C2739 C2747 1.503 . S
C2740 C2739 1.410 . S
C2740 C2741 1.392 . S
C2740 C2743 1.511 . S
C2741 C2737 1.376 . S
C2741 C2740 1.392 . S
C2741 H2753 0.929 . S
C2742 C2738 1.531 . S
C2742 H2754 0.960 . S
C2742 H2755 0.962 . S
C2742 H2756 0.960 . S
C2743 C2740 1.511 . S
C2743 H2757 0.961 . S
C2743 H2758 0.961 . S
C2743 H2759 0.961 . S
C2744 C2745 1.370 . S
C2744 C2746 1.363 . S
C2744 H2760 0.931 . S
C2745 C2744 1.370 . S
C2745 C2749 1.408 . S
C2746 C2744 1.363 . S
C2746 C2747 1.370 . S
C2746 C2750 1.524 . S
C2747 C2739 1.503 . S
C2747 C2746 1.370 . S
C2747 C2748 1.403 . S
C2748 C2747 1.403 . S
C2748 C2749 1.404 . S
C2748 C2751 1.539 . S
C2749 C2745 1.408 . S
C2749 C2748 1.404 . S
C2749 H2761 0.930 . S
C2750 C2746 1.524 . S
C2750 H2762 0.956 . S
C2750 H2763 0.961 . S
C2750 H2764 0.961 . S
C2751 C2748 1.539 . S
C2751 H2765 0.958 . S
C2751 H2766 0.961 . S
C2751 H2767 0.960 . S
H2752 C2736 0.931 . S
H2753 C2741 0.929 . S
H2754 C2742 0.960 . S
H2755 C2742 0.962 . S
H2756 C2742 0.960 . S
H2757 C2743 0.961 . S
H2758 C2743 0.961 . S
H2759 C2743 0.961 . S
H2760 C2744 0.931 . S
H2761 C2749 0.930 . S
H2762 C2750 0.956 . S
H2763 C2750 0.961 . S
H2764 C2750 0.961 . S
H2765 C2751 0.958 . S
H2766 C2751 0.961 . S
H2767 C2751 0.960 . S
C2768 C2769 1.391 . S
C2768 C2770 1.394 . S
C2768 H2784 0.931 . S
C2769 C2768 1.391 . S
C2769 C2773 1.376 . S
C2770 C2768 1.394 . S
C2770 C2771 1.369 . S
C2770 C2774 1.531 . S
C2771 C2770 1.369 . S
C2771 C2772 1.410 . S
C2771 C2779 1.503 . S
C2772 C2771 1.410 . S
C2772 C2773 1.392 . S
C2772 C2775 1.511 . S
C2773 C2769 1.376 . S
C2773 C2772 1.392 . S
C2773 H2785 0.929 . S
C2774 C2770 1.531 . S
C2774 H2786 0.960 . S
C2774 H2787 0.962 . S
C2774 H2788 0.960 . S
C2775 C2772 1.511 . S
C2775 H2789 0.961 . S
C2775 H2790 0.961 . S
C2775 H2791 0.961 . S
C2776 C2777 1.370 . S
C2776 C2778 1.363 . S
C2776 H2792 0.931 . S
C2777 C2776 1.370 . S
C2777 C2781 1.408 . S
C2778 C2776 1.363 . S
C2778 C2779 1.370 . S
C2778 C2782 1.524 . S
C2779 C2771 1.503 . S
C2779 C2778 1.370 . S
C2779 C2780 1.403 . S
C2780 C2779 1.403 . S
C2780 C2781 1.404 . S
C2780 C2783 1.539 . S
C2781 C2777 1.408 . S
C2781 C2780 1.404 . S
C2781 H2793 0.930 . S
C2782 C2778 1.524 . S
C2782 H2794 0.956 . S
C2782 H2795 0.961 . S
C2782 H2796 0.961 . S
C2783 C2780 1.539 . S
C2783 H2797 0.958 . S
C2783 H2798 0.961 . S
C2783 H2799 0.960 . S
H2784 C2768 0.931 . S
H2785 C2773 0.929 . S
H2786 C2774 0.960 . S
H2787 C2774 0.962 . S
H2788 C2774 0.960 . S
H2789 C2775 0.961 . S
H2790 C2775 0.961 . S
H2791 C2775 0.961 . S
H2792 C2776 0.931 . S
H2793 C2781 0.930 . S
H2794 C2782 0.956 . S
H2795 C2782 0.961 . S
H2796 C2782 0.961 . S
H2797 C2783 0.958 . S
H2798 C2783 0.961 . S
H2799 C2783 0.960 . S
C2800 C2801 1.391 . S
C2800 C2802 1.394 . S
C2800 H2816 0.931 . S
C2801 C2800 1.391 . S
C2801 C2805 1.376 . S
C2802 C2800 1.394 . S
C2802 C2803 1.369 . S
C2802 C2806 1.531 . S
C2803 C2802 1.369 . S
C2803 C2804 1.410 . S
C2803 C2811 1.503 1_554 S
C2804 C2803 1.410 . S
C2804 C2805 1.392 . S
C2804 C2807 1.511 . S
C2805 C2801 1.376 . S
C2805 C2804 1.392 . S
C2805 H2817 0.929 . S
C2806 C2802 1.531 . S
C2806 H2818 0.960 1_554 S
C2806 H2819 0.962 1_554 S
C2806 H2820 0.960 . S
C2807 C2804 1.511 . S
C2807 H2821 0.961 . S
C2807 H2822 0.961 1_554 S
C2807 H2823 0.961 . S
C2808 C2809 1.370 . S
C2808 C2810 1.363 . S
C2808 H2824 0.931 . S
C2809 C2808 1.370 . S
C2809 C2813 1.408 . S
C2810 C2808 1.363 . S
C2810 C2811 1.370 . S
C2810 C2814 1.524 . S
C2811 C2803 1.503 1_556 S
C2811 C2810 1.370 . S
C2811 C2812 1.403 . S
C2812 C2811 1.403 . S
C2812 C2813 1.404 . S
C2812 C2815 1.539 1_556 S
C2813 C2809 1.408 . S
C2813 C2812 1.404 . S
C2813 H2825 0.930 . S
C2814 C2810 1.524 . S
C2814 H2826 0.956 . S
C2814 H2827 0.961 . S
C2814 H2828 0.961 . S
C2815 C2812 1.539 1_554 S
C2815 H2829 0.958 . S
C2815 H2830 0.961 . S
C2815 H2831 0.960 . S
H2816 C2800 0.931 . S
H2817 C2805 0.929 . S
H2818 C2806 0.960 1_556 S
H2819 C2806 0.962 1_556 S
H2820 C2806 0.960 . S
H2821 C2807 0.961 . S
H2822 C2807 0.961 1_556 S
H2823 C2807 0.961 . S
H2824 C2808 0.931 . S
H2825 C2813 0.930 . S
H2826 C2814 0.956 . S
H2827 C2814 0.961 . S
H2828 C2814 0.961 . S
H2829 C2815 0.958 . S
H2830 C2815 0.961 . S
H2831 C2815 0.960 . S
C2832 C2833 1.391 . S
C2832 C2834 1.394 . S
C2832 H2848 0.931 . S
C2833 C2832 1.391 . S
C2833 C2837 1.376 . S
C2834 C2832 1.394 . S
C2834 C2835 1.369 . S
C2834 C2838 1.531 . S
C2835 C2834 1.369 . S
C2835 C2836 1.410 . S
C2835 C2843 1.503 . S
C2836 C2835 1.410 . S
C2836 C2837 1.392 . S
C2836 C2839 1.511 . S
C2837 C2833 1.376 . S
C2837 C2836 1.392 . S
C2837 H2849 0.929 . S
C2838 C2834 1.531 . S
C2838 H2850 0.960 . S
C2838 H2851 0.962 . S
C2838 H2852 0.960 . S
C2839 C2836 1.511 . S
C2839 H2853 0.961 . S
C2839 H2854 0.961 . S
C2839 H2855 0.961 . S
C2840 C2841 1.370 . S
C2840 C2842 1.363 . S
C2840 H2856 0.931 . S
C2841 C2840 1.370 . S
C2841 C2845 1.408 . S
C2842 C2840 1.363 . S
C2842 C2843 1.370 . S
C2842 C2846 1.524 . S
C2843 C2835 1.503 . S
C2843 C2842 1.370 . S
C2843 C2844 1.403 . S
C2844 C2843 1.403 . S
C2844 C2845 1.404 . S
C2844 C2847 1.539 . S
C2845 C2841 1.408 . S
C2845 C2844 1.404 . S
C2845 H2857 0.930 . S
C2846 C2842 1.524 . S
C2846 H2858 0.956 . S
C2846 H2859 0.961 . S
C2846 H2860 0.961 . S
C2847 C2844 1.539 . S
C2847 H2861 0.958 . S
C2847 H2862 0.961 . S
C2847 H2863 0.960 . S
H2848 C2832 0.931 . S
H2849 C2837 0.929 . S
H2850 C2838 0.960 . S
H2851 C2838 0.962 . S
H2852 C2838 0.960 . S
H2853 C2839 0.961 . S
H2854 C2839 0.961 . S
H2855 C2839 0.961 . S
H2856 C2840 0.931 . S
H2857 C2845 0.930 . S
H2858 C2846 0.956 . S
H2859 C2846 0.961 . S
H2860 C2846 0.961 . S
H2861 C2847 0.958 . S
H2862 C2847 0.961 . S
H2863 C2847 0.960 . S
C2864 C2865 1.391 . S
C2864 C2866 1.394 . S
C2864 H2880 0.931 . S
C2865 C2864 1.391 . S
C2865 C2869 1.376 . S
C2866 C2864 1.394 . S
C2866 C2867 1.369 . S
C2866 C2870 1.531 . S
C2867 C2866 1.369 . S
C2867 C2868 1.410 . S
C2867 C2875 1.503 . S
C2868 C2867 1.410 . S
C2868 C2869 1.392 . S
C2868 C2871 1.511 . S
C2869 C2865 1.376 . S
C2869 C2868 1.392 . S
C2869 H2881 0.929 . S
C2870 C2866 1.531 . S
C2870 H2882 0.960 . S
C2870 H2883 0.962 . S
C2870 H2884 0.960 . S
C2871 C2868 1.511 . S
C2871 H2885 0.961 . S
C2871 H2886 0.961 . S
C2871 H2887 0.961 . S
C2872 C2873 1.370 . S
C2872 C2874 1.363 . S
C2872 H2888 0.931 . S
C2873 C2872 1.370 . S
C2873 C2877 1.408 . S
C2874 C2872 1.363 . S
C2874 C2875 1.370 . S
C2874 C2878 1.524 . S
C2875 C2867 1.503 . S
C2875 C2874 1.370 . S
C2875 C2876 1.403 . S
C2876 C2875 1.403 . S
C2876 C2877 1.404 . S
C2876 C2879 1.539 . S
C2877 C2873 1.408 . S
C2877 C2876 1.404 . S
C2877 H2889 0.930 . S
C2878 C2874 1.524 . S
C2878 H2890 0.956 . S
C2878 H2891 0.961 . S
C2878 H2892 0.961 . S
C2879 C2876 1.539 . S
C2879 H2893 0.958 . S
C2879 H2894 0.961 . S
C2879 H2895 0.960 . S
H2880 C2864 0.931 . S
H2881 C2869 0.929 . S
H2882 C2870 0.960 . S
H2883 C2870 0.962 . S
H2884 C2870 0.960 . S
H2885 C2871 0.961 . S
H2886 C2871 0.961 . S
H2887 C2871 0.961 . S
H2888 C2872 0.931 . S
H2889 C2877 0.930 . S
H2890 C2878 0.956 . S
H2891 C2878 0.961 . S
H2892 C2878 0.961 . S
H2893 C2879 0.958 . S
H2894 C2879 0.961 . S
H2895 C2879 0.960 . S
C2896 C2897 1.391 . S
C2896 C2898 1.394 . S
C2896 H2912 0.931 . S
C2897 C2896 1.391 . S
C2897 C2901 1.376 . S
C2898 C2896 1.394 . S
C2898 C2899 1.369 . S
C2898 C2902 1.531 . S
C2899 C2898 1.369 . S
C2899 C2900 1.410 . S
C2899 C2907 1.503 . S
C2900 C2899 1.410 . S
C2900 C2901 1.392 . S
C2900 C2903 1.511 . S
C2901 C2897 1.376 . S
C2901 C2900 1.392 . S
C2901 H2913 0.929 . S
C2902 C2898 1.531 . S
C2902 H2914 0.960 . S
C2902 H2915 0.962 . S
C2902 H2916 0.960 . S
C2903 C2900 1.511 . S
C2903 H2917 0.961 . S
C2903 H2918 0.961 . S
C2903 H2919 0.961 . S
C2904 C2905 1.370 . S
C2904 C2906 1.363 . S
C2904 H2920 0.931 . S
C2905 C2904 1.370 . S
C2905 C2909 1.408 . S
C2906 C2904 1.363 . S
C2906 C2907 1.370 . S
C2906 C2910 1.524 . S
C2907 C2899 1.503 . S
C2907 C2906 1.370 . S
C2907 C2908 1.403 . S
C2908 C2907 1.403 . S
C2908 C2909 1.404 . S
C2908 C2911 1.539 . S
C2909 C2905 1.408 . S
C2909 C2908 1.404 . S
C2909 H2921 0.930 . S
C2910 C2906 1.524 . S
C2910 H2922 0.956 . S
C2910 H2923 0.961 . S
C2910 H2924 0.961 . S
C2911 C2908 1.539 . S
C2911 H2925 0.958 . S
C2911 H2926 0.961 . S
C2911 H2927 0.960 . S
H2912 C2896 0.931 . S
H2913 C2901 0.929 . S
H2914 C2902 0.960 . S
H2915 C2902 0.962 . S
H2916 C2902 0.960 . S
H2917 C2903 0.961 . S
H2918 C2903 0.961 . S
H2919 C2903 0.961 . S
H2920 C2904 0.931 . S
H2921 C2909 0.930 . S
H2922 C2910 0.956 . S
H2923 C2910 0.961 . S
H2924 C2910 0.961 . S
H2925 C2911 0.958 . S
H2926 C2911 0.961 . S
H2927 C2911 0.960 . S
C2928 C2929 1.391 . S
C2928 C2930 1.394 . S
C2928 H2944 0.931 . S
C2929 C2928 1.391 . S
C2929 C2933 1.376 . S
C2930 C2928 1.394 . S
C2930 C2931 1.369 . S
C2930 C2934 1.531 . S
C2931 C2930 1.369 . S
C2931 C2932 1.410 . S
C2931 C2939 1.503 . S
C2932 C2931 1.410 . S
C2932 C2933 1.392 . S
C2932 C2935 1.511 . S
C2933 C2929 1.376 . S
C2933 C2932 1.392 . S
C2933 H2945 0.929 . S
C2934 C2930 1.531 . S
C2934 H2946 0.960 . S
C2934 H2947 0.962 . S
C2934 H2948 0.960 . S
C2935 C2932 1.511 . S
C2935 H2949 0.961 . S
C2935 H2950 0.961 . S
C2935 H2951 0.961 . S
C2936 C2937 1.370 . S
C2936 C2938 1.363 . S
C2936 H2952 0.931 . S
C2937 C2936 1.370 . S
C2937 C2941 1.408 . S
C2938 C2936 1.363 . S
C2938 C2939 1.370 . S
C2938 C2942 1.524 . S
C2939 C2931 1.503 . S
C2939 C2938 1.370 . S
C2939 C2940 1.403 . S
C2940 C2939 1.403 . S
C2940 C2941 1.404 . S
C2940 C2943 1.539 . S
C2941 C2937 1.408 . S
C2941 C2940 1.404 . S
C2941 H2953 0.930 . S
C2942 C2938 1.524 . S
C2942 H2954 0.956 . S
C2942 H2955 0.961 . S
C2942 H2956 0.961 . S
C2943 C2940 1.539 . S
C2943 H2957 0.958 . S
C2943 H2958 0.961 . S
C2943 H2959 0.960 . S
H2944 C2928 0.931 . S
H2945 C2933 0.929 . S
H2946 C2934 0.960 . S
H2947 C2934 0.962 . S
H2948 C2934 0.960 . S
H2949 C2935 0.961 . S
H2950 C2935 0.961 . S
H2951 C2935 0.961 . S
H2952 C2936 0.931 . S
H2953 C2941 0.930 . S
H2954 C2942 0.956 . S
H2955 C2942 0.961 . S
H2956 C2942 0.961 . S
H2957 C2943 0.958 . S
H2958 C2943 0.961 . S
H2959 C2943 0.960 . S
C2960 C2961 1.391 . S
C2960 C2962 1.394 . S
C2960 H2976 0.931 . S
C2961 C2960 1.391 . S
C2961 C2965 1.376 . S
C2962 C2960 1.394 . S
C2962 C2963 1.369 . S
C2962 C2966 1.531 . S
C2963 C2962 1.369 . S
C2963 C2964 1.410 . S
C2963 C2971 1.503 . S
C2964 C2963 1.410 . S
C2964 C2965 1.392 . S
C2964 C2967 1.511 . S
C2965 C2961 1.376 . S
C2965 C2964 1.392 . S
C2965 H2977 0.929 . S
C2966 C2962 1.531 . S
C2966 H2978 0.960 . S
C2966 H2979 0.962 . S
C2966 H2980 0.960 . S
C2967 C2964 1.511 . S
C2967 H2981 0.961 . S
C2967 H2982 0.961 . S
C2967 H2983 0.961 . S
C2968 C2969 1.370 . S
C2968 C2970 1.363 . S
C2968 H2984 0.931 . S
C2969 C2968 1.370 . S
C2969 C2973 1.408 . S
C2970 C2968 1.363 . S
C2970 C2971 1.370 . S
C2970 C2974 1.524 . S
C2971 C2963 1.503 . S
C2971 C2970 1.370 . S
C2971 C2972 1.403 . S
C2972 C2971 1.403 . S
C2972 C2973 1.404 . S
C2972 C2975 1.539 . S
C2973 C2969 1.408 . S
C2973 C2972 1.404 . S
C2973 H2985 0.930 . S
C2974 C2970 1.524 . S
C2974 H2986 0.956 . S
C2974 H2987 0.961 . S
C2974 H2988 0.961 . S
C2975 C2972 1.539 . S
C2975 H2989 0.958 . S
C2975 H2990 0.961 . S
C2975 H2991 0.960 . S
H2976 C2960 0.931 . S
H2977 C2965 0.929 . S
H2978 C2966 0.960 . S
H2979 C2966 0.962 . S
H2980 C2966 0.960 . S
H2981 C2967 0.961 . S
H2982 C2967 0.961 . S
H2983 C2967 0.961 . S
H2984 C2968 0.931 . S
H2985 C2973 0.930 . S
H2986 C2974 0.956 . S
H2987 C2974 0.961 . S
H2988 C2974 0.961 . S
H2989 C2975 0.958 . S
H2990 C2975 0.961 . S
H2991 C2975 0.960 . S
C2992 C2993 1.391 . S
C2992 C2994 1.394 . S
C2992 H3008 0.931 . S
C2993 C2992 1.391 . S
C2993 C2997 1.376 . S
C2994 C2992 1.394 . S
C2994 C2995 1.369 . S
C2994 C2998 1.531 . S
C2995 C2994 1.369 . S
C2995 C2996 1.410 . S
C2995 C3003 1.503 . S
C2996 C2995 1.410 . S
C2996 C2997 1.392 . S
C2996 C2999 1.511 . S
C2997 C2993 1.376 . S
C2997 C2996 1.392 . S
C2997 H3009 0.929 . S
C2998 C2994 1.531 . S
C2998 H3010 0.960 . S
C2998 H3011 0.962 . S
C2998 H3012 0.960 . S
C2999 C2996 1.511 . S
C2999 H3013 0.961 . S
C2999 H3014 0.961 . S
C2999 H3015 0.961 . S
C3000 C3001 1.370 . S
C3000 C3002 1.363 . S
C3000 H3016 0.931 . S
C3001 C3000 1.370 . S
C3001 C3005 1.408 . S
C3002 C3000 1.363 . S
C3002 C3003 1.370 . S
C3002 C3006 1.524 . S
C3003 C2995 1.503 . S
C3003 C3002 1.370 . S
C3003 C3004 1.403 . S
C3004 C3003 1.403 . S
C3004 C3005 1.404 . S
C3004 C3007 1.539 . S
C3005 C3001 1.408 . S
C3005 C3004 1.404 . S
C3005 H3017 0.930 . S
C3006 C3002 1.524 . S
C3006 H3018 0.956 . S
C3006 H3019 0.961 . S
C3006 H3020 0.961 . S
C3007 C3004 1.539 . S
C3007 H3021 0.958 . S
C3007 H3022 0.961 . S
C3007 H3023 0.960 . S
H3008 C2992 0.931 . S
H3009 C2997 0.929 . S
H3010 C2998 0.960 . S
H3011 C2998 0.962 . S
H3012 C2998 0.960 . S
H3013 C2999 0.961 . S
H3014 C2999 0.961 . S
H3015 C2999 0.961 . S
H3016 C3000 0.931 . S
H3017 C3005 0.930 . S
H3018 C3006 0.956 . S
H3019 C3006 0.961 . S
H3020 C3006 0.961 . S
H3021 C3007 0.958 . S
H3022 C3007 0.961 . S
H3023 C3007 0.960 . S
C3024 C3025 1.391 . S
C3024 C3026 1.394 . S
C3024 H3040 0.931 . S
C3025 C3024 1.391 . S
C3025 C3029 1.376 . S
C3026 C3024 1.394 . S
C3026 C3027 1.369 . S
C3026 C3030 1.531 . S
C3027 C3026 1.369 . S
C3027 C3028 1.410 . S
C3027 C3035 1.503 . S
C3028 C3027 1.410 . S
C3028 C3029 1.392 . S
C3028 C3031 1.511 . S
C3029 C3025 1.376 . S
C3029 C3028 1.392 . S
C3029 H3041 0.929 . S
C3030 C3026 1.531 . S
C3030 H3042 0.960 . S
C3030 H3043 0.962 . S
C3030 H3044 0.960 . S
C3031 C3028 1.511 . S
C3031 H3045 0.961 . S
C3031 H3046 0.961 . S
C3031 H3047 0.961 . S
C3032 C3033 1.370 . S
C3032 C3034 1.363 . S
C3032 H3048 0.931 . S
C3033 C3032 1.370 . S
C3033 C3037 1.408 . S
C3034 C3032 1.363 . S
C3034 C3035 1.370 . S
C3034 C3038 1.524 . S
C3035 C3027 1.503 . S
C3035 C3034 1.370 . S
C3035 C3036 1.403 . S
C3036 C3035 1.403 . S
C3036 C3037 1.404 . S
C3036 C3039 1.539 . S
C3037 C3033 1.408 . S
C3037 C3036 1.404 . S
C3037 H3049 0.930 . S
C3038 C3034 1.524 . S
C3038 H3050 0.956 . S
C3038 H3051 0.961 . S
C3038 H3052 0.961 . S
C3039 C3036 1.539 . S
C3039 H3053 0.958 . S
C3039 H3054 0.961 . S
C3039 H3055 0.960 . S
H3040 C3024 0.931 . S
H3041 C3029 0.929 . S
H3042 C3030 0.960 . S
H3043 C3030 0.962 . S
H3044 C3030 0.960 . S
H3045 C3031 0.961 . S
H3046 C3031 0.961 . S
H3047 C3031 0.961 . S
H3048 C3032 0.931 . S
H3049 C3037 0.930 . S
H3050 C3038 0.956 . S
H3051 C3038 0.961 . S
H3052 C3038 0.961 . S
H3053 C3039 0.958 . S
H3054 C3039 0.961 . S
H3055 C3039 0.960 . S
C3056 C3057 1.391 . S
C3056 C3058 1.394 . S
C3056 H3072 0.931 . S
C3057 C3056 1.391 . S
C3057 C3061 1.376 . S
C3058 C3056 1.394 . S
C3058 C3059 1.369 . S
C3058 C3062 1.531 . S
C3059 C3058 1.369 . S
C3059 C3060 1.410 . S
C3059 C3067 1.503 . S
C3060 C3059 1.410 . S
C3060 C3061 1.392 . S
C3060 C3063 1.511 . S
C3061 C3057 1.376 . S
C3061 C3060 1.392 . S
C3061 H3073 0.929 . S
C3062 C3058 1.531 . S
C3062 H3074 0.960 . S
C3062 H3075 0.962 . S
C3062 H3076 0.960 . S
C3063 C3060 1.511 . S
C3063 H3077 0.961 . S
C3063 H3078 0.961 . S
C3063 H3079 0.961 . S
C3064 C3065 1.370 . S
C3064 C3066 1.363 . S
C3064 H3080 0.931 . S
C3065 C3064 1.370 . S
C3065 C3069 1.408 . S
C3066 C3064 1.363 . S
C3066 C3067 1.370 . S
C3066 C3070 1.524 . S
C3067 C3059 1.503 . S
C3067 C3066 1.370 . S
C3067 C3068 1.403 . S
C3068 C3067 1.403 . S
C3068 C3069 1.404 . S
C3068 C3071 1.539 . S
C3069 C3065 1.408 . S
C3069 C3068 1.404 . S
C3069 H3081 0.930 . S
C3070 C3066 1.524 . S
C3070 H3082 0.956 . S
C3070 H3083 0.961 . S
C3070 H3084 0.961 . S
C3071 C3068 1.539 . S
C3071 H3085 0.958 . S
C3071 H3086 0.961 . S
C3071 H3087 0.960 . S
H3072 C3056 0.931 . S
H3073 C3061 0.929 . S
H3074 C3062 0.960 . S
H3075 C3062 0.962 . S
H3076 C3062 0.960 . S
H3077 C3063 0.961 . S
H3078 C3063 0.961 . S
H3079 C3063 0.961 . S
H3080 C3064 0.931 . S
H3081 C3069 0.930 . S
H3082 C3070 0.956 . S
H3083 C3070 0.961 . S
H3084 C3070 0.961 . S
H3085 C3071 0.958 . S
H3086 C3071 0.961 . S
H3087 C3071 0.960 . S
C3088 C3089 1.391 . S
C3088 C3090 1.394 . S
C3088 H3104 0.931 . S
C3089 C3088 1.391 . S
C3089 C3093 1.376 . S
C3090 C3088 1.394 . S
C3090 C3091 1.369 . S
C3090 C3094 1.531 . S
C3091 C3090 1.369 . S
C3091 C3092 1.410 . S
C3091 C3099 1.503 . S
C3092 C3091 1.410 . S
C3092 C3093 1.392 . S
C3092 C3095 1.511 . S
C3093 C3089 1.376 . S
C3093 C3092 1.392 . S
C3093 H3105 0.929 . S
C3094 C3090 1.531 . S
C3094 H3106 0.960 . S
C3094 H3107 0.962 . S
C3094 H3108 0.960 . S
C3095 C3092 1.511 . S
C3095 H3109 0.961 . S
C3095 H3110 0.961 . S
C3095 H3111 0.961 . S
C3096 C3097 1.370 . S
C3096 C3098 1.363 . S
C3096 H3112 0.931 . S
C3097 C3096 1.370 . S
C3097 C3101 1.408 . S
C3098 C3096 1.363 . S
C3098 C3099 1.370 . S
C3098 C3102 1.524 . S
C3099 C3091 1.503 . S
C3099 C3098 1.370 . S
C3099 C3100 1.403 . S
C3100 C3099 1.403 . S
C3100 C3101 1.404 . S
C3100 C3103 1.539 . S
C3101 C3097 1.408 . S
C3101 C3100 1.404 . S
C3101 H3113 0.930 . S
C3102 C3098 1.524 . S
C3102 H3114 0.956 . S
C3102 H3115 0.961 . S
C3102 H3116 0.961 . S
C3103 C3100 1.539 . S
C3103 H3117 0.958 . S
C3103 H3118 0.961 . S
C3103 H3119 0.960 . S
H3104 C3088 0.931 . S
H3105 C3093 0.929 . S
H3106 C3094 0.960 . S
H3107 C3094 0.962 . S
H3108 C3094 0.960 . S
H3109 C3095 0.961 . S
H3110 C3095 0.961 . S
H3111 C3095 0.961 . S
H3112 C3096 0.931 . S
H3113 C3101 0.930 . S
H3114 C3102 0.956 . S
H3115 C3102 0.961 . S
H3116 C3102 0.961 . S
H3117 C3103 0.958 . S
H3118 C3103 0.961 . S
H3119 C3103 0.960 . S
C3120 C3121 1.391 1_556 S
C3120 C3122 1.394 . S
C3120 H3136 0.931 . S
C3121 C3120 1.391 1_554 S
C3121 C3125 1.376 . S
C3122 C3120 1.394 . S
C3122 C3123 1.369 1_556 S
C3122 C3126 1.531 . S
C3123 C3122 1.369 1_554 S
C3123 C3124 1.410 . S
C3123 C3131 1.503 . S
C3124 C3123 1.410 . S
C3124 C3125 1.392 . S
C3124 C3127 1.511 . S
C3125 C3121 1.376 . S
C3125 C3124 1.392 . S
C3125 H3137 0.929 . S
C3126 C3122 1.531 . S
C3126 H3138 0.960 . S
C3126 H3139 0.962 . S
C3126 H3140 0.960 . S
C3127 C3124 1.511 . S
C3127 H3141 0.961 . S
C3127 H3142 0.961 . S
C3127 H3143 0.961 . S
C3128 C3129 1.370 . S
C3128 C3130 1.363 . S
C3128 H3144 0.931 . S
C3129 C3128 1.370 . S
C3129 C3133 1.408 . S
C3130 C3128 1.363 . S
C3130 C3131 1.370 . S
C3130 C3134 1.524 . S
C3131 C3123 1.503 . S
C3131 C3130 1.370 . S
C3131 C3132 1.403 . S
C3132 C3131 1.403 . S
C3132 C3133 1.404 . S
C3132 C3135 1.539 . S
C3133 C3129 1.408 . S
C3133 C3132 1.404 . S
C3133 H3145 0.930 . S
C3134 C3130 1.524 . S
C3134 H3146 0.956 . S
C3134 H3147 0.961 . S
C3134 H3148 0.961 . S
C3135 C3132 1.539 . S
C3135 H3149 0.958 1_554 S
C3135 H3150 0.961 . S
C3135 H3151 0.960 . S
H3136 C3120 0.931 . S
H3137 C3125 0.929 . S
H3138 C3126 0.960 . S
H3139 C3126 0.962 . S
H3140 C3126 0.960 . S
H3141 C3127 0.961 . S
H3142 C3127 0.961 . S
H3143 C3127 0.961 . S
H3144 C3128 0.931 . S
H3145 C3133 0.930 . S
H3146 C3134 0.956 . S
H3147 C3134 0.961 . S
H3148 C3134 0.961 . S
H3149 C3135 0.958 1_556 S
H3150 C3135 0.961 . S
H3151 C3135 0.960 . S
C3152 C3153 1.391 . S
C3152 C3154 1.394 . S
C3152 H3168 0.931 . S
C3153 C3152 1.391 . S
C3153 C3157 1.376 . S
C3154 C3152 1.394 . S
C3154 C3155 1.369 . S
C3154 C3158 1.531 . S
C3155 C3154 1.369 . S
C3155 C3156 1.410 . S
C3155 C3163 1.503 . S
C3156 C3155 1.410 . S
C3156 C3157 1.392 . S
C3156 C3159 1.511 . S
C3157 C3153 1.376 . S
C3157 C3156 1.392 . S
C3157 H3169 0.929 . S
C3158 C3154 1.531 . S
C3158 H3170 0.960 . S
C3158 H3171 0.962 . S
C3158 H3172 0.960 . S
C3159 C3156 1.511 . S
C3159 H3173 0.961 . S
C3159 H3174 0.961 . S
C3159 H3175 0.961 . S
C3160 C3161 1.370 . S
C3160 C3162 1.363 . S
C3160 H3176 0.931 . S
C3161 C3160 1.370 . S
C3161 C3165 1.408 . S
C3162 C3160 1.363 . S
C3162 C3163 1.370 . S
C3162 C3166 1.524 . S
C3163 C3155 1.503 . S
C3163 C3162 1.370 . S
C3163 C3164 1.403 . S
C3164 C3163 1.403 . S
C3164 C3165 1.404 . S
C3164 C3167 1.539 . S
C3165 C3161 1.408 . S
C3165 C3164 1.404 . S
C3165 H3177 0.930 . S
C3166 C3162 1.524 . S
C3166 H3178 0.956 . S
C3166 H3179 0.961 . S
C3166 H3180 0.961 . S
C3167 C3164 1.539 . S
C3167 H3181 0.958 . S
C3167 H3182 0.961 . S
C3167 H3183 0.960 . S
H3168 C3152 0.931 . S
H3169 C3157 0.929 . S
H3170 C3158 0.960 . S
H3171 C3158 0.962 . S
H3172 C3158 0.960 . S
H3173 C3159 0.961 . S
H3174 C3159 0.961 . S
H3175 C3159 0.961 . S
H3176 C3160 0.931 . S
H3177 C3165 0.930 . S
H3178 C3166 0.956 . S
H3179 C3166 0.961 . S
H3180 C3166 0.961 . S
H3181 C3167 0.958 . S
H3182 C3167 0.961 . S
H3183 C3167 0.960 . S
C3184 C3185 1.391 . S
C3184 C3186 1.394 . S
C3184 H3200 0.931 . S
C3185 C3184 1.391 . S
C3185 C3189 1.376 . S
C3186 C3184 1.394 . S
C3186 C3187 1.369 . S
C3186 C3190 1.531 . S
C3187 C3186 1.369 . S
C3187 C3188 1.410 . S
C3187 C3195 1.503 . S
C3188 C3187 1.410 . S
C3188 C3189 1.392 . S
C3188 C3191 1.511 . S
C3189 C3185 1.376 . S
C3189 C3188 1.392 . S
C3189 H3201 0.929 . S
C3190 C3186 1.531 . S
C3190 H3202 0.960 . S
C3190 H3203 0.962 . S
C3190 H3204 0.960 . S
C3191 C3188 1.511 . S
C3191 H3205 0.961 . S
C3191 H3206 0.961 . S
C3191 H3207 0.961 . S
C3192 C3193 1.370 . S
C3192 C3194 1.363 . S
C3192 H3208 0.931 . S
C3193 C3192 1.370 . S
C3193 C3197 1.408 . S
C3194 C3192 1.363 . S
C3194 C3195 1.370 . S
C3194 C3198 1.524 . S
C3195 C3187 1.503 . S
C3195 C3194 1.370 . S
C3195 C3196 1.403 . S
C3196 C3195 1.403 . S
C3196 C3197 1.404 . S
C3196 C3199 1.539 . S
C3197 C3193 1.408 . S
C3197 C3196 1.404 . S
C3197 H3209 0.930 . S
C3198 C3194 1.524 . S
C3198 H3210 0.956 . S
C3198 H3211 0.961 . S
C3198 H3212 0.961 . S
C3199 C3196 1.539 . S
C3199 H3213 0.958 . S
C3199 H3214 0.961 . S
C3199 H3215 0.960 . S
H3200 C3184 0.931 . S
H3201 C3189 0.929 . S
H3202 C3190 0.960 . S
H3203 C3190 0.962 . S
H3204 C3190 0.960 . S
H3205 C3191 0.961 . S
H3206 C3191 0.961 . S
H3207 C3191 0.961 . S
H3208 C3192 0.931 . S
H3209 C3197 0.930 . S
H3210 C3198 0.956 . S
H3211 C3198 0.961 . S
H3212 C3198 0.961 . S
H3213 C3199 0.958 . S
H3214 C3199 0.961 . S
H3215 C3199 0.960 . S
C3216 C3217 1.391 . S
C3216 C3218 1.394 . S
C3216 H3232 0.931 . S
C3217 C3216 1.391 . S
C3217 C3221 1.376 . S
C3218 C3216 1.394 . S
C3218 C3219 1.369 . S
C3218 C3222 1.531 . S
C3219 C3218 1.369 . S
C3219 C3220 1.410 . S
C3219 C3227 1.503 . S
C3220 C3219 1.410 . S
C3220 C3221 1.392 . S
C3220 C3223 1.511 . S
C3221 C3217 1.376 . S
C3221 C3220 1.392 . S
C3221 H3233 0.929 . S
C3222 C3218 1.531 . S
C3222 H3234 0.960 . S
C3222 H3235 0.962 . S
C3222 H3236 0.960 . S
C3223 C3220 1.511 . S
C3223 H3237 0.961 . S
C3223 H3238 0.961 . S
C3223 H3239 0.961 . S
C3224 C3225 1.370 . S
C3224 C3226 1.363 . S
C3224 H3240 0.931 . S
C3225 C3224 1.370 . S
C3225 C3229 1.408 . S
C3226 C3224 1.363 . S
C3226 C3227 1.370 . S
C3226 C3230 1.524 . S
C3227 C3219 1.503 . S
C3227 C3226 1.370 . S
C3227 C3228 1.403 . S
C3228 C3227 1.403 . S
C3228 C3229 1.404 . S
C3228 C3231 1.539 . S
C3229 C3225 1.408 . S
C3229 C3228 1.404 . S
C3229 H3241 0.930 . S
C3230 C3226 1.524 . S
C3230 H3242 0.956 . S
C3230 H3243 0.961 . S
C3230 H3244 0.961 . S
C3231 C3228 1.539 . S
C3231 H3245 0.958 . S
C3231 H3246 0.961 . S
C3231 H3247 0.960 . S
H3232 C3216 0.931 . S
H3233 C3221 0.929 . S
H3234 C3222 0.960 . S
H3235 C3222 0.962 . S
H3236 C3222 0.960 . S
H3237 C3223 0.961 . S
H3238 C3223 0.961 . S
H3239 C3223 0.961 . S
H3240 C3224 0.931 . S
H3241 C3229 0.930 . S
H3242 C3230 0.956 . S
H3243 C3230 0.961 . S
H3244 C3230 0.961 . S
H3245 C3231 0.958 . S
H3246 C3231 0.961 . S
H3247 C3231 0.960 . S
C3248 C3249 1.391 . S
C3248 C3250 1.394 . S
C3248 H3264 0.931 . S
C3249 C3248 1.391 . S
C3249 C3253 1.376 . S
C3250 C3248 1.394 . S
C3250 C3251 1.369 . S
C3250 C3254 1.531 . S
C3251 C3250 1.369 . S
C3251 C3252 1.410 . S
C3251 C3259 1.503 . S
C3252 C3251 1.410 . S
C3252 C3253 1.392 . S
C3252 C3255 1.511 . S
C3253 C3249 1.376 . S
C3253 C3252 1.392 . S
C3253 H3265 0.929 . S
C3254 C3250 1.531 . S
C3254 H3266 0.960 . S
C3254 H3267 0.962 . S
C3254 H3268 0.960 . S
C3255 C3252 1.511 . S
C3255 H3269 0.961 . S
C3255 H3270 0.961 . S
C3255 H3271 0.961 . S
C3256 C3257 1.370 . S
C3256 C3258 1.363 . S
C3256 H3272 0.931 . S
C3257 C3256 1.370 . S
C3257 C3261 1.408 . S
C3258 C3256 1.363 . S
C3258 C3259 1.370 . S
C3258 C3262 1.524 . S
C3259 C3251 1.503 . S
C3259 C3258 1.370 . S
C3259 C3260 1.403 . S
C3260 C3259 1.403 . S
C3260 C3261 1.404 . S
C3260 C3263 1.539 . S
C3261 C3257 1.408 . S
C3261 C3260 1.404 . S
C3261 H3273 0.930 . S
C3262 C3258 1.524 . S
C3262 H3274 0.956 . S
C3262 H3275 0.961 . S
C3262 H3276 0.961 . S
C3263 C3260 1.539 . S
C3263 H3277 0.958 . S
C3263 H3278 0.961 . S
C3263 H3279 0.960 . S
H3264 C3248 0.931 . S
H3265 C3253 0.929 . S
H3266 C3254 0.960 . S
H3267 C3254 0.962 . S
H3268 C3254 0.960 . S
H3269 C3255 0.961 . S
H3270 C3255 0.961 . S
H3271 C3255 0.961 . S
H3272 C3256 0.931 . S
H3273 C3261 0.930 . S
H3274 C3262 0.956 . S
H3275 C3262 0.961 . S
H3276 C3262 0.961 . S
H3277 C3263 0.958 . S
H3278 C3263 0.961 . S
H3279 C3263 0.960 . S
C3280 C3281 1.391 . S
C3280 C3282 1.394 . S
C3280 H3296 0.931 . S
C3281 C3280 1.391 . S
C3281 C3285 1.376 . S
C3282 C3280 1.394 . S
C3282 C3283 1.369 . S
C3282 C3286 1.531 . S
C3283 C3282 1.369 . S
C3283 C3284 1.410 . S
C3283 C3291 1.503 . S
C3284 C3283 1.410 . S
C3284 C3285 1.392 . S
C3284 C3287 1.511 . S
C3285 C3281 1.376 . S
C3285 C3284 1.392 . S
C3285 H3297 0.929 . S
C3286 C3282 1.531 . S
C3286 H3298 0.960 . S
C3286 H3299 0.962 . S
C3286 H3300 0.960 . S
C3287 C3284 1.511 . S
C3287 H3301 0.961 . S
C3287 H3302 0.961 . S
C3287 H3303 0.961 . S
C3288 C3289 1.370 . S
C3288 C3290 1.363 . S
C3288 H3304 0.931 . S
C3289 C3288 1.370 . S
C3289 C3293 1.408 . S
C3290 C3288 1.363 . S
C3290 C3291 1.370 . S
C3290 C3294 1.524 . S
C3291 C3283 1.503 . S
C3291 C3290 1.370 . S
C3291 C3292 1.403 . S
C3292 C3291 1.403 . S
C3292 C3293 1.404 . S
C3292 C3295 1.539 . S
C3293 C3289 1.408 . S
C3293 C3292 1.404 . S
C3293 H3305 0.930 . S
C3294 C3290 1.524 . S
C3294 H3306 0.956 . S
C3294 H3307 0.961 . S
C3294 H3308 0.961 . S
C3295 C3292 1.539 . S
C3295 H3309 0.958 . S
C3295 H3310 0.961 . S
C3295 H3311 0.960 . S
H3296 C3280 0.931 . S
H3297 C3285 0.929 . S
H3298 C3286 0.960 . S
H3299 C3286 0.962 . S
H3300 C3286 0.960 . S
H3301 C3287 0.961 . S
H3302 C3287 0.961 . S
H3303 C3287 0.961 . S
H3304 C3288 0.931 . S
H3305 C3293 0.930 . S
H3306 C3294 0.956 . S
H3307 C3294 0.961 . S
H3308 C3294 0.961 . S
H3309 C3295 0.958 . S
H3310 C3295 0.961 . S
H3311 C3295 0.960 . S
C3312 C3313 1.391 . S
C3312 C3314 1.394 . S
C3312 H3328 0.931 . S
C3313 C3312 1.391 . S
C3313 C3317 1.376 . S
C3314 C3312 1.394 . S
C3314 C3315 1.369 . S
C3314 C3318 1.531 . S
C3315 C3314 1.369 . S
C3315 C3316 1.410 . S
C3315 C3323 1.503 . S
C3316 C3315 1.410 . S
C3316 C3317 1.392 . S
C3316 C3319 1.511 . S
C3317 C3313 1.376 . S
C3317 C3316 1.392 . S
C3317 H3329 0.929 . S
C3318 C3314 1.531 . S
C3318 H3330 0.960 . S
C3318 H3331 0.962 . S
C3318 H3332 0.960 . S
C3319 C3316 1.511 . S
C3319 H3333 0.961 . S
C3319 H3334 0.961 . S
C3319 H3335 0.961 . S
C3320 C3321 1.370 . S
C3320 C3322 1.363 . S
C3320 H3336 0.931 . S
C3321 C3320 1.370 . S
C3321 C3325 1.408 . S
C3322 C3320 1.363 . S
C3322 C3323 1.370 . S
C3322 C3326 1.524 . S
C3323 C3315 1.503 . S
C3323 C3322 1.370 . S
C3323 C3324 1.403 . S
C3324 C3323 1.403 . S
C3324 C3325 1.404 . S
C3324 C3327 1.539 . S
C3325 C3321 1.408 . S
C3325 C3324 1.404 . S
C3325 H3337 0.930 . S
C3326 C3322 1.524 . S
C3326 H3338 0.956 . S
C3326 H3339 0.961 . S
C3326 H3340 0.961 . S
C3327 C3324 1.539 . S
C3327 H3341 0.958 . S
C3327 H3342 0.961 . S
C3327 H3343 0.960 . S
H3328 C3312 0.931 . S
H3329 C3317 0.929 . S
H3330 C3318 0.960 . S
H3331 C3318 0.962 . S
H3332 C3318 0.960 . S
H3333 C3319 0.961 . S
H3334 C3319 0.961 . S
H3335 C3319 0.961 . S
H3336 C3320 0.931 . S
H3337 C3325 0.930 . S
H3338 C3326 0.956 . S
H3339 C3326 0.961 . S
H3340 C3326 0.961 . S
H3341 C3327 0.958 . S
H3342 C3327 0.961 . S
H3343 C3327 0.960 . S
C3344 C3345 1.391 . S
C3344 C3346 1.394 . S
C3344 H3360 0.931 . S
C3345 C3344 1.391 . S
C3345 C3349 1.376 . S
C3346 C3344 1.394 . S
C3346 C3347 1.369 . S
C3346 C3350 1.531 . S
C3347 C3346 1.369 . S
C3347 C3348 1.410 . S
C3347 C3355 1.503 . S
C3348 C3347 1.410 . S
C3348 C3349 1.392 . S
C3348 C3351 1.511 . S
C3349 C3345 1.376 . S
C3349 C3348 1.392 . S
C3349 H3361 0.929 . S
C3350 C3346 1.531 . S
C3350 H3362 0.960 . S
C3350 H3363 0.962 1_455 S
C3350 H3364 0.960 1_455 S
C3351 C3348 1.511 . S
C3351 H3365 0.961 . S
C3351 H3366 0.961 . S
C3351 H3367 0.961 . S
C3352 C3353 1.370 . S
C3352 C3354 1.363 . S
C3352 H3368 0.931 . S
C3353 C3352 1.370 . S
C3353 C3357 1.408 . S
C3354 C3352 1.363 . S
C3354 C3355 1.370 . S
C3354 C3358 1.524 . S
C3355 C3347 1.503 . S
C3355 C3354 1.370 . S
C3355 C3356 1.403 . S
C3356 C3355 1.403 . S
C3356 C3357 1.404 . S
C3356 C3359 1.539 . S
C3357 C3353 1.408 . S
C3357 C3356 1.404 . S
C3357 H3369 0.930 . S
C3358 C3354 1.524 . S
C3358 H3370 0.956 . S
C3358 H3371 0.961 . S
C3358 H3372 0.961 . S
C3359 C3356 1.539 . S
C3359 H3373 0.958 . S
C3359 H3374 0.961 . S
C3359 H3375 0.960 . S
H3360 C3344 0.931 . S
H3361 C3349 0.929 . S
H3362 C3350 0.960 . S
H3363 C3350 0.962 1_655 S
H3364 C3350 0.960 1_655 S
H3365 C3351 0.961 . S
H3366 C3351 0.961 . S
H3367 C3351 0.961 . S
H3368 C3352 0.931 . S
H3369 C3357 0.930 . S
H3370 C3358 0.956 . S
H3371 C3358 0.961 . S
H3372 C3358 0.961 . S
H3373 C3359 0.958 . S
H3374 C3359 0.961 . S
H3375 C3359 0.960 . S
C3376 C3377 1.391 . S
C3376 C3378 1.394 . S
C3376 H3392 0.931 . S
C3377 C3376 1.391 . S
C3377 C3381 1.376 . S
C3378 C3376 1.394 . S
C3378 C3379 1.369 . S
C3378 C3382 1.531 . S
C3379 C3378 1.369 . S
C3379 C3380 1.410 . S
C3379 C3387 1.503 . S
C3380 C3379 1.410 . S
C3380 C3381 1.392 . S
C3380 C3383 1.511 . S
C3381 C3377 1.376 . S
C3381 C3380 1.392 . S
C3381 H3393 0.929 . S
C3382 C3378 1.531 . S
C3382 H3394 0.960 . S
C3382 H3395 0.962 . S
C3382 H3396 0.960 . S
C3383 C3380 1.511 . S
C3383 H3397 0.961 . S
C3383 H3398 0.961 . S
C3383 H3399 0.961 . S
C3384 C3385 1.370 . S
C3384 C3386 1.363 . S
C3384 H3400 0.931 . S
C3385 C3384 1.370 . S
C3385 C3389 1.408 . S
C3386 C3384 1.363 . S
C3386 C3387 1.370 . S
C3386 C3390 1.524 . S
C3387 C3379 1.503 . S
C3387 C3386 1.370 . S
C3387 C3388 1.403 . S
C3388 C3387 1.403 . S
C3388 C3389 1.404 . S
C3388 C3391 1.539 . S
C3389 C3385 1.408 . S
C3389 C3388 1.404 . S
C3389 H3401 0.930 . S
C3390 C3386 1.524 . S
C3390 H3402 0.956 . S
C3390 H3403 0.961 . S
C3390 H3404 0.961 . S
C3391 C3388 1.539 . S
C3391 H3405 0.958 . S
C3391 H3406 0.961 . S
C3391 H3407 0.960 . S
H3392 C3376 0.931 . S
H3393 C3381 0.929 . S
H3394 C3382 0.960 . S
H3395 C3382 0.962 . S
H3396 C3382 0.960 . S
H3397 C3383 0.961 . S
H3398 C3383 0.961 . S
H3399 C3383 0.961 . S
H3400 C3384 0.931 . S
H3401 C3389 0.930 . S
H3402 C3390 0.956 . S
H3403 C3390 0.961 . S
H3404 C3390 0.961 . S
H3405 C3391 0.958 . S
H3406 C3391 0.961 . S
H3407 C3391 0.960 . S
C3408 C3409 1.391 . S
C3408 C3410 1.394 . S
C3408 H3424 0.931 . S
C3409 C3408 1.391 . S
C3409 C3413 1.376 . S
C3410 C3408 1.394 . S
C3410 C3411 1.369 . S
C3410 C3414 1.531 . S
C3411 C3410 1.369 . S
C3411 C3412 1.410 . S
C3411 C3419 1.503 . S
C3412 C3411 1.410 . S
C3412 C3413 1.392 . S
C3412 C3415 1.511 . S
C3413 C3409 1.376 . S
C3413 C3412 1.392 . S
C3413 H3425 0.929 . S
C3414 C3410 1.531 . S
C3414 H3426 0.960 . S
C3414 H3427 0.962 . S
C3414 H3428 0.960 . S
C3415 C3412 1.511 . S
C3415 H3429 0.961 . S
C3415 H3430 0.961 . S
C3415 H3431 0.961 . S
C3416 C3417 1.370 . S
C3416 C3418 1.363 . S
C3416 H3432 0.931 . S
C3417 C3416 1.370 . S
C3417 C3421 1.408 . S
C3418 C3416 1.363 . S
C3418 C3419 1.370 . S
C3418 C3422 1.524 . S
C3419 C3411 1.503 . S
C3419 C3418 1.370 . S
C3419 C3420 1.403 . S
C3420 C3419 1.403 . S
C3420 C3421 1.404 . S
C3420 C3423 1.539 . S
C3421 C3417 1.408 . S
C3421 C3420 1.404 . S
C3421 H3433 0.930 . S
C3422 C3418 1.524 . S
C3422 H3434 0.956 . S
C3422 H3435 0.961 . S
C3422 H3436 0.961 . S
C3423 C3420 1.539 . S
C3423 H3437 0.958 . S
C3423 H3438 0.961 . S
C3423 H3439 0.960 . S
H3424 C3408 0.931 . S
H3425 C3413 0.929 . S
H3426 C3414 0.960 . S
H3427 C3414 0.962 . S
H3428 C3414 0.960 . S
H3429 C3415 0.961 . S
H3430 C3415 0.961 . S
H3431 C3415 0.961 . S
H3432 C3416 0.931 . S
H3433 C3421 0.930 . S
H3434 C3422 0.956 . S
H3435 C3422 0.961 . S
H3436 C3422 0.961 . S
H3437 C3423 0.958 . S
H3438 C3423 0.961 . S
H3439 C3423 0.960 . S
C3440 C3441 1.391 . S
C3440 C3442 1.394 . S
C3440 H3456 0.931 . S
C3441 C3440 1.391 . S
C3441 C3445 1.376 . S
C3442 C3440 1.394 . S
C3442 C3443 1.369 . S
C3442 C3446 1.531 . S
C3443 C3442 1.369 . S
C3443 C3444 1.410 . S
C3443 C3451 1.503 . S
C3444 C3443 1.410 . S
C3444 C3445 1.392 . S
C3444 C3447 1.511 . S
C3445 C3441 1.376 . S
C3445 C3444 1.392 . S
C3445 H3457 0.929 . S
C3446 C3442 1.531 . S
C3446 H3458 0.960 . S
C3446 H3459 0.962 . S
C3446 H3460 0.960 . S
C3447 C3444 1.511 . S
C3447 H3461 0.961 . S
C3447 H3462 0.961 . S
C3447 H3463 0.961 . S
C3448 C3449 1.370 . S
C3448 C3450 1.363 . S
C3448 H3464 0.931 . S
C3449 C3448 1.370 . S
C3449 C3453 1.408 . S
C3450 C3448 1.363 . S
C3450 C3451 1.370 . S
C3450 C3454 1.524 . S
C3451 C3443 1.503 . S
C3451 C3450 1.370 . S
C3451 C3452 1.403 . S
C3452 C3451 1.403 . S
C3452 C3453 1.404 . S
C3452 C3455 1.539 . S
C3453 C3449 1.408 . S
C3453 C3452 1.404 . S
C3453 H3465 0.930 . S
C3454 C3450 1.524 . S
C3454 H3466 0.956 . S
C3454 H3467 0.961 . S
C3454 H3468 0.961 . S
C3455 C3452 1.539 . S
C3455 H3469 0.958 . S
C3455 H3470 0.961 . S
C3455 H3471 0.960 . S
H3456 C3440 0.931 . S
H3457 C3445 0.929 . S
H3458 C3446 0.960 . S
H3459 C3446 0.962 . S
H3460 C3446 0.960 . S
H3461 C3447 0.961 . S
H3462 C3447 0.961 . S
H3463 C3447 0.961 . S
H3464 C3448 0.931 . S
H3465 C3453 0.930 . S
H3466 C3454 0.956 . S
H3467 C3454 0.961 . S
H3468 C3454 0.961 . S
H3469 C3455 0.958 . S
H3470 C3455 0.961 . S
H3471 C3455 0.960 . S
C3472 C3473 1.391 . S
C3472 C3474 1.394 . S
C3472 H3488 0.931 . S
C3473 C3472 1.391 . S
C3473 C3477 1.376 . S
C3474 C3472 1.394 . S
C3474 C3475 1.369 . S
C3474 C3478 1.531 . S
C3475 C3474 1.369 . S
C3475 C3476 1.410 . S
C3475 C3483 1.503 . S
C3476 C3475 1.410 . S
C3476 C3477 1.392 . S
C3476 C3479 1.511 . S
C3477 C3473 1.376 . S
C3477 C3476 1.392 . S
C3477 H3489 0.929 . S
C3478 C3474 1.531 . S
C3478 H3490 0.960 . S
C3478 H3491 0.962 . S
C3478 H3492 0.960 . S
C3479 C3476 1.511 . S
C3479 H3493 0.961 . S
C3479 H3494 0.961 . S
C3479 H3495 0.961 . S
C3480 C3481 1.370 . S
C3480 C3482 1.363 . S
C3480 H3496 0.931 1_455 S
C3481 C3480 1.370 . S
C3481 C3485 1.408 . S
C3482 C3480 1.363 . S
C3482 C3483 1.370 . S
C3482 C3486 1.524 1_455 S
C3483 C3475 1.503 . S
C3483 C3482 1.370 . S
C3483 C3484 1.403 . S
C3484 C3483 1.403 . S
C3484 C3485 1.404 . S
C3484 C3487 1.539 . S
C3485 C3481 1.408 . S
C3485 C3484 1.404 . S
C3485 H3497 0.930 . S
C3486 C3482 1.524 1_655 S
C3486 H3498 0.956 . S
C3486 H3499 0.961 . S
C3486 H3500 0.961 . S
C3487 C3484 1.539 . S
C3487 H3501 0.958 . S
C3487 H3502 0.961 . S
C3487 H3503 0.960 . S
H3488 C3472 0.931 . S
H3489 C3477 0.929 . S
H3490 C3478 0.960 . S
H3491 C3478 0.962 . S
H3492 C3478 0.960 . S
H3493 C3479 0.961 . S
H3494 C3479 0.961 . S
H3495 C3479 0.961 . S
H3496 C3480 0.931 1_655 S
H3497 C3485 0.930 . S
H3498 C3486 0.956 . S
H3499 C3486 0.961 . S
H3500 C3486 0.961 . S
H3501 C3487 0.958 . S
H3502 C3487 0.961 . S
H3503 C3487 0.960 . S
C3504 C3505 1.391 . S
C3504 C3506 1.394 . S
C3504 H3520 0.931 . S
C3505 C3504 1.391 . S
C3505 C3509 1.376 . S
C3506 C3504 1.394 . S
C3506 C3507 1.369 . S
C3506 C3510 1.531 . S
C3507 C3506 1.369 . S
C3507 C3508 1.410 . S
C3507 C3515 1.503 . S
C3508 C3507 1.410 . S
C3508 C3509 1.392 . S
C3508 C3511 1.511 . S
C3509 C3505 1.376 . S
C3509 C3508 1.392 . S
C3509 H3521 0.929 . S
C3510 C3506 1.531 . S
C3510 H3522 0.960 . S
C3510 H3523 0.962 . S
C3510 H3524 0.960 . S
C3511 C3508 1.511 . S
C3511 H3525 0.961 . S
C3511 H3526 0.961 . S
C3511 H3527 0.961 . S
C3512 C3513 1.370 . S
C3512 C3514 1.363 . S
C3512 H3528 0.931 . S
C3513 C3512 1.370 . S
C3513 C3517 1.408 . S
C3514 C3512 1.363 . S
C3514 C3515 1.370 . S
C3514 C3518 1.524 . S
C3515 C3507 1.503 . S
C3515 C3514 1.370 . S
C3515 C3516 1.403 . S
C3516 C3515 1.403 . S
C3516 C3517 1.404 . S
C3516 C3519 1.539 . S
C3517 C3513 1.408 . S
C3517 C3516 1.404 . S
C3517 H3529 0.930 . S
C3518 C3514 1.524 . S
C3518 H3530 0.956 . S
C3518 H3531 0.961 . S
C3518 H3532 0.961 . S
C3519 C3516 1.539 . S
C3519 H3533 0.958 . S
C3519 H3534 0.961 . S
C3519 H3535 0.960 . S
H3520 C3504 0.931 . S
H3521 C3509 0.929 . S
H3522 C3510 0.960 . S
H3523 C3510 0.962 . S
H3524 C3510 0.960 . S
H3525 C3511 0.961 . S
H3526 C3511 0.961 . S
H3527 C3511 0.961 . S
H3528 C3512 0.931 . S
H3529 C3517 0.930 . S
H3530 C3518 0.956 . S
H3531 C3518 0.961 . S
H3532 C3518 0.961 . S
H3533 C3519 0.958 . S
H3534 C3519 0.961 . S
H3535 C3519 0.960 . S
C3536 C3537 1.391 . S
C3536 C3538 1.394 . S
C3536 H3552 0.931 . S
C3537 C3536 1.391 . S
C3537 C3541 1.376 . S
C3538 C3536 1.394 . S
C3538 C3539 1.369 . S
C3538 C3542 1.531 . S
C3539 C3538 1.369 . S
C3539 C3540 1.410 . S
C3539 C3547 1.503 . S
C3540 C3539 1.410 . S
C3540 C3541 1.392 . S
C3540 C3543 1.511 . S
C3541 C3537 1.376 . S
C3541 C3540 1.392 . S
C3541 H3553 0.929 . S
C3542 C3538 1.531 . S
C3542 H3554 0.960 . S
C3542 H3555 0.962 . S
C3542 H3556 0.960 . S
C3543 C3540 1.511 . S
C3543 H3557 0.961 . S
C3543 H3558 0.961 . S
C3543 H3559 0.961 . S
C3544 C3545 1.370 . S
C3544 C3546 1.363 . S
C3544 H3560 0.931 . S
C3545 C3544 1.370 . S
C3545 C3549 1.408 . S
C3546 C3544 1.363 . S
C3546 C3547 1.370 . S
C3546 C3550 1.524 . S
C3547 C3539 1.503 . S
C3547 C3546 1.370 . S
C3547 C3548 1.403 . S
C3548 C3547 1.403 . S
C3548 C3549 1.404 . S
C3548 C3551 1.539 . S
C3549 C3545 1.408 . S
C3549 C3548 1.404 . S
C3549 H3561 0.930 . S
C3550 C3546 1.524 . S
C3550 H3562 0.956 . S
C3550 H3563 0.961 . S
C3550 H3564 0.961 . S
C3551 C3548 1.539 . S
C3551 H3565 0.958 . S
C3551 H3566 0.961 . S
C3551 H3567 0.960 . S
H3552 C3536 0.931 . S
H3553 C3541 0.929 . S
H3554 C3542 0.960 . S
H3555 C3542 0.962 . S
H3556 C3542 0.960 . S
H3557 C3543 0.961 . S
H3558 C3543 0.961 . S
H3559 C3543 0.961 . S
H3560 C3544 0.931 . S
H3561 C3549 0.930 . S
H3562 C3550 0.956 . S
H3563 C3550 0.961 . S
H3564 C3550 0.961 . S
H3565 C3551 0.958 . S
H3566 C3551 0.961 . S
H3567 C3551 0.960 . S
C3568 C3569 1.391 . S
C3568 C3570 1.394 . S
C3568 H3584 0.931 . S
C3569 C3568 1.391 . S
C3569 C3573 1.376 . S
C3570 C3568 1.394 . S
C3570 C3571 1.369 . S
C3570 C3574 1.531 . S
C3571 C3570 1.369 . S
C3571 C3572 1.410 . S
C3571 C3579 1.503 . S
C3572 C3571 1.410 . S
C3572 C3573 1.392 . S
C3572 C3575 1.511 . S
C3573 C3569 1.376 . S
C3573 C3572 1.392 . S
C3573 H3585 0.929 . S
C3574 C3570 1.531 . S
C3574 H3586 0.960 . S
C3574 H3587 0.962 . S
C3574 H3588 0.960 . S
C3575 C3572 1.511 . S
C3575 H3589 0.961 . S
C3575 H3590 0.961 . S
C3575 H3591 0.961 . S
C3576 C3577 1.370 . S
C3576 C3578 1.363 . S
C3576 H3592 0.931 . S
C3577 C3576 1.370 . S
C3577 C3581 1.408 . S
C3578 C3576 1.363 . S
C3578 C3579 1.370 . S
C3578 C3582 1.524 . S
C3579 C3571 1.503 . S
C3579 C3578 1.370 . S
C3579 C3580 1.403 . S
C3580 C3579 1.403 . S
C3580 C3581 1.404 . S
C3580 C3583 1.539 . S
C3581 C3577 1.408 . S
C3581 C3580 1.404 . S
C3581 H3593 0.930 . S
C3582 C3578 1.524 . S
C3582 H3594 0.956 . S
C3582 H3595 0.961 . S
C3582 H3596 0.961 . S
C3583 C3580 1.539 . S
C3583 H3597 0.958 . S
C3583 H3598 0.961 . S
C3583 H3599 0.960 . S
H3584 C3568 0.931 . S
H3585 C3573 0.929 . S
H3586 C3574 0.960 . S
H3587 C3574 0.962 . S
H3588 C3574 0.960 . S
H3589 C3575 0.961 . S
H3590 C3575 0.961 . S
H3591 C3575 0.961 . S
H3592 C3576 0.931 . S
H3593 C3581 0.930 . S
H3594 C3582 0.956 . S
H3595 C3582 0.961 . S
H3596 C3582 0.961 . S
H3597 C3583 0.958 . S
H3598 C3583 0.961 . S
H3599 C3583 0.960 . S
C3600 C3601 1.391 . S
C3600 C3602 1.394 . S
C3600 H3616 0.931 . S
C3601 C3600 1.391 . S
C3601 C3605 1.376 . S
C3602 C3600 1.394 . S
C3602 C3603 1.369 . S
C3602 C3606 1.531 . S
C3603 C3602 1.369 . S
C3603 C3604 1.410 . S
C3603 C3611 1.503 . S
C3604 C3603 1.410 . S
C3604 C3605 1.392 . S
C3604 C3607 1.511 . S
C3605 C3601 1.376 . S
C3605 C3604 1.392 . S
C3605 H3617 0.929 . S
C3606 C3602 1.531 . S
C3606 H3618 0.960 . S
C3606 H3619 0.991 . S
C3606 H3620 0.960 . S
C3607 C3604 1.511 . S
C3607 H3621 0.961 . S
C3607 H3622 0.961 . S
C3607 H3623 0.961 . S
C3608 C3609 1.370 1_455 S
C3608 C3610 1.363 1_455 S
C3608 H3624 0.931 . S
C3609 C3608 1.370 1_655 S
C3609 C3613 1.408 . S
C3610 C3608 1.363 1_655 S
C3610 C3611 1.370 . S
C3610 C3614 1.524 . S
C3611 C3603 1.503 . S
C3611 C3610 1.370 . S
C3611 C3612 1.403 . S
C3612 C3611 1.403 . S
C3612 C3613 1.404 . S
C3612 C3615 1.539 . S
C3613 C3609 1.408 . S
C3613 C3612 1.404 . S
C3613 H3625 0.930 . S
C3614 C3610 1.524 . S
C3614 H3626 0.956 . S
C3614 H3627 0.961 . S
C3614 H3628 0.961 1_655 S
C3615 C3612 1.539 . S
C3615 H3629 0.958 . S
C3615 H3630 0.961 . S
C3615 H3631 0.960 . S
H3616 C3600 0.931 . S
H3617 C3605 0.929 . S
H3618 C3606 0.960 . S
H3619 C3606 0.991 . S
H3620 C3606 0.960 . S
H3621 C3607 0.961 . S
H3622 C3607 0.961 . S
H3623 C3607 0.961 . S
H3624 C3608 0.931 . S
H3625 C3613 0.930 . S
H3626 C3614 0.956 . S
H3627 C3614 0.961 . S
H3628 C3614 0.961 1_455 S
H3629 C3615 0.958 . S
H3630 C3615 0.961 . S
H3631 C3615 0.960 . S
C3632 C3633 1.391 . S
C3632 C3634 1.394 . S
C3632 H3648 0.931 . S
C3633 C3632 1.391 . S
C3633 C3637 1.376 . S
C3634 C3632 1.394 . S
C3634 C3635 1.369 . S
C3634 C3638 1.531 . S
C3635 C3634 1.369 . S
C3635 C3636 1.410 . S
C3635 C3643 1.503 . S
C3636 C3635 1.410 . S
C3636 C3637 1.392 . S
C3636 C3639 1.511 . S
C3637 C3633 1.376 . S
C3637 C3636 1.392 . S
C3637 H3649 0.929 . S
C3638 C3634 1.531 . S
C3638 H3650 0.960 . S
C3638 H3651 0.962 . S
C3638 H3652 0.960 . S
C3639 C3636 1.511 . S
C3639 H3653 0.961 . S
C3639 H3654 0.961 . S
C3639 H3655 0.961 . S
C3640 C3641 1.370 . S
C3640 C3642 1.363 . S
C3640 H3656 0.931 . S
C3641 C3640 1.370 . S
C3641 C3645 1.408 . S
C3642 C3640 1.363 . S
C3642 C3643 1.370 . S
C3642 C3646 1.524 . S
C3643 C3635 1.503 . S
C3643 C3642 1.370 . S
C3643 C3644 1.403 . S
C3644 C3643 1.403 . S
C3644 C3645 1.404 . S
C3644 C3647 1.539 . S
C3645 C3641 1.408 . S
C3645 C3644 1.404 . S
C3645 H3657 0.930 . S
C3646 C3642 1.524 . S
C3646 H3658 0.956 . S
C3646 H3659 0.961 . S
C3646 H3660 0.961 . S
C3647 C3644 1.539 . S
C3647 H3661 0.958 . S
C3647 H3662 0.961 . S
C3647 H3663 0.960 . S
H3648 C3632 0.931 . S
H3649 C3637 0.929 . S
H3650 C3638 0.960 . S
H3651 C3638 0.962 . S
H3652 C3638 0.960 . S
H3653 C3639 0.961 . S
H3654 C3639 0.961 . S
H3655 C3639 0.961 . S
H3656 C3640 0.931 . S
H3657 C3645 0.930 . S
H3658 C3646 0.956 . S
H3659 C3646 0.961 . S
H3660 C3646 0.961 . S
H3661 C3647 0.958 . S
H3662 C3647 0.961 . S
H3663 C3647 0.960 . S
C3664 C3665 1.391 . S
C3664 C3666 1.394 . S
C3664 H3680 0.931 . S
C3665 C3664 1.391 . S
C3665 C3669 1.376 . S
C3666 C3664 1.394 . S
C3666 C3667 1.369 . S
C3666 C3670 1.531 . S
C3667 C3666 1.369 . S
C3667 C3668 1.410 . S
C3667 C3675 1.503 . S
C3668 C3667 1.410 . S
C3668 C3669 1.392 . S
C3668 C3671 1.511 . S
C3669 C3665 1.376 . S
C3669 C3668 1.392 . S
C3669 H3681 0.929 . S
C3670 C3666 1.531 . S
C3670 H3682 0.960 . S
C3670 H3683 0.962 . S
C3670 H3684 0.960 . S
C3671 C3668 1.511 . S
C3671 H3685 0.961 . S
C3671 H3686 0.961 . S
C3671 H3687 0.961 . S
C3672 C3673 1.370 . S
C3672 C3674 1.363 . S
C3672 H3688 0.931 . S
C3673 C3672 1.370 . S
C3673 C3677 1.408 . S
C3674 C3672 1.363 . S
C3674 C3675 1.370 . S
C3674 C3678 1.524 . S
C3675 C3667 1.503 . S
C3675 C3674 1.370 . S
C3675 C3676 1.403 . S
C3676 C3675 1.403 . S
C3676 C3677 1.404 . S
C3676 C3679 1.539 . S
C3677 C3673 1.408 . S
C3677 C3676 1.404 . S
C3677 H3689 0.930 . S
C3678 C3674 1.524 . S
C3678 H3690 0.956 . S
C3678 H3691 0.961 . S
C3678 H3692 0.961 . S
C3679 C3676 1.539 . S
C3679 H3693 0.958 . S
C3679 H3694 0.961 . S
C3679 H3695 0.960 . S
H3680 C3664 0.931 . S
H3681 C3669 0.929 . S
H3682 C3670 0.960 . S
H3683 C3670 0.962 . S
H3684 C3670 0.960 . S
H3685 C3671 0.961 . S
H3686 C3671 0.961 . S
H3687 C3671 0.961 . S
H3688 C3672 0.931 . S
H3689 C3677 0.930 . S
H3690 C3678 0.956 . S
H3691 C3678 0.961 . S
H3692 C3678 0.961 . S
H3693 C3679 0.958 . S
H3694 C3679 0.961 . S
H3695 C3679 0.960 . S
C3696 C3697 1.391 . S
C3696 C3698 1.394 . S
C3696 H3712 0.931 . S
C3697 C3696 1.391 . S
C3697 C3701 1.376 . S
C3698 C3696 1.394 . S
C3698 C3699 1.369 . S
C3698 C3702 1.531 . S
C3699 C3698 1.369 . S
C3699 C3700 1.410 . S
C3699 C3707 1.503 . S
C3700 C3699 1.410 . S
C3700 C3701 1.392 . S
C3700 C3703 1.511 . S
C3701 C3697 1.376 . S
C3701 C3700 1.392 . S
C3701 H3713 0.929 . S
C3702 C3698 1.531 . S
C3702 H3714 0.960 . S
C3702 H3715 0.962 . S
C3702 H3716 0.960 . S
C3703 C3700 1.511 . S
C3703 H3717 0.961 . S
C3703 H3718 0.961 . S
C3703 H3719 0.961 . S
C3704 C3705 1.370 . S
C3704 C3706 1.363 . S
C3704 H3720 0.931 . S
C3705 C3704 1.370 . S
C3705 C3709 1.408 . S
C3706 C3704 1.363 . S
C3706 C3707 1.370 . S
C3706 C3710 1.524 . S
C3707 C3699 1.503 . S
C3707 C3706 1.370 . S
C3707 C3708 1.403 . S
C3708 C3707 1.403 . S
C3708 C3709 1.404 . S
C3708 C3711 1.539 . S
C3709 C3705 1.408 . S
C3709 C3708 1.404 . S
C3709 H3721 0.930 . S
C3710 C3706 1.524 . S
C3710 H3722 0.956 . S
C3710 H3723 0.961 . S
C3710 H3724 0.961 . S
C3711 C3708 1.539 . S
C3711 H3725 0.958 . S
C3711 H3726 0.961 . S
C3711 H3727 0.960 . S
H3712 C3696 0.931 . S
H3713 C3701 0.929 . S
H3714 C3702 0.960 . S
H3715 C3702 0.962 . S
H3716 C3702 0.960 . S
H3717 C3703 0.961 . S
H3718 C3703 0.961 . S
H3719 C3703 0.961 . S
H3720 C3704 0.931 . S
H3721 C3709 0.930 . S
H3722 C3710 0.956 . S
H3723 C3710 0.961 . S
H3724 C3710 0.961 . S
H3725 C3711 0.958 . S
H3726 C3711 0.961 . S
H3727 C3711 0.960 . S
C3728 C3729 1.391 . S
C3728 C3730 1.394 . S
C3728 H3744 0.931 . S
C3729 C3728 1.391 . S
C3729 C3733 1.376 . S
C3730 C3728 1.394 . S
C3730 C3731 1.369 . S
C3730 C3734 1.531 . S
C3731 C3730 1.369 . S
C3731 C3732 1.410 . S
C3731 C3739 1.503 . S
C3732 C3731 1.410 . S
C3732 C3733 1.392 . S
C3732 C3735 1.511 . S
C3733 C3729 1.376 . S
C3733 C3732 1.392 . S
C3733 H3745 0.929 . S
C3734 C3730 1.531 . S
C3734 H3746 0.960 . S
C3734 H3747 0.962 . S
C3734 H3748 0.960 . S
C3735 C3732 1.511 . S
C3735 H3749 0.961 . S
C3735 H3750 0.961 . S
C3735 H3751 0.961 . S
C3736 C3737 1.370 . S
C3736 C3738 1.363 . S
C3736 H3752 0.931 1_655 S
C3737 C3736 1.370 . S
C3737 C3741 1.408 . S
C3738 C3736 1.363 . S
C3738 C3739 1.370 . S
C3738 C3742 1.524 . S
C3739 C3731 1.503 . S
C3739 C3738 1.370 . S
C3739 C3740 1.403 . S
C3740 C3739 1.403 . S
C3740 C3741 1.404 . S
C3740 C3743 1.539 . S
C3741 C3737 1.408 . S
C3741 C3740 1.404 . S
C3741 H3753 0.930 . S
C3742 C3738 1.524 . S
C3742 H3754 0.956 . S
C3742 H3755 0.961 . S
C3742 H3756 0.961 . S
C3743 C3740 1.539 . S
C3743 H3757 0.958 . S
C3743 H3758 0.961 . S
C3743 H3759 0.960 . S
H3744 C3728 0.931 . S
H3745 C3733 0.929 . S
H3746 C3734 0.960 . S
H3747 C3734 0.962 . S
H3748 C3734 0.960 . S
H3749 C3735 0.961 . S
H3750 C3735 0.961 . S
H3751 C3735 0.961 . S
H3752 C3736 0.931 1_455 S
H3753 C3741 0.930 . S
H3754 C3742 0.956 . S
H3755 C3742 0.961 . S
H3756 C3742 0.961 . S
H3757 C3743 0.958 . S
H3758 C3743 0.961 . S
H3759 C3743 0.960 . S
C3760 C3761 1.391 . S
C3760 C3762 1.394 . S
C3760 H3776 0.931 . S
C3761 C3760 1.391 . S
C3761 C3765 1.376 . S
C3762 C3760 1.394 . S
C3762 C3763 1.369 . S
C3762 C3766 1.531 . S
C3763 C3762 1.369 . S
C3763 C3764 1.410 . S
C3763 C3771 1.503 . S
C3764 C3763 1.410 . S
C3764 C3765 1.392 . S
C3764 C3767 1.511 . S
C3765 C3761 1.376 . S
C3765 C3764 1.392 . S
C3765 H3777 0.929 . S
C3766 C3762 1.531 . S
C3766 H3778 0.960 . S
C3766 H3779 0.962 . S
C3766 H3780 0.960 . S
C3767 C3764 1.511 . S
C3767 H3781 0.961 . S
C3767 H3782 0.961 . S
C3767 H3783 0.961 . S
C3768 C3769 1.370 . S
C3768 C3770 1.363 . S
C3768 H3784 0.931 . S
C3769 C3768 1.370 . S
C3769 C3773 1.408 . S
C3770 C3768 1.363 . S
C3770 C3771 1.370 . S
C3770 C3774 1.524 . S
C3771 C3763 1.503 . S
C3771 C3770 1.370 . S
C3771 C3772 1.403 . S
C3772 C3771 1.403 . S
C3772 C3773 1.404 . S
C3772 C3775 1.539 . S
C3773 C3769 1.408 . S
C3773 C3772 1.404 . S
C3773 H3785 0.930 . S
C3774 C3770 1.524 . S
C3774 H3786 0.956 . S
C3774 H3787 0.961 . S
C3774 H3788 0.961 . S
C3775 C3772 1.539 . S
C3775 H3789 0.958 . S
C3775 H3790 0.961 . S
C3775 H3791 0.960 . S
H3776 C3760 0.931 . S
H3777 C3765 0.929 . S
H3778 C3766 0.960 . S
H3779 C3766 0.962 . S
H3780 C3766 0.960 . S
H3781 C3767 0.961 . S
H3782 C3767 0.961 . S
H3783 C3767 0.961 . S
H3784 C3768 0.931 . S
H3785 C3773 0.930 . S
H3786 C3774 0.956 . S
H3787 C3774 0.961 . S
H3788 C3774 0.961 . S
H3789 C3775 0.958 . S
H3790 C3775 0.961 . S
H3791 C3775 0.960 . S
C3792 C3793 1.391 . S
C3792 C3794 1.394 . S
C3792 H3808 0.931 . S
C3793 C3792 1.391 . S
C3793 C3797 1.376 . S
C3794 C3792 1.394 . S
C3794 C3795 1.369 . S
C3794 C3798 1.531 . S
C3795 C3794 1.369 . S
C3795 C3796 1.410 . S
C3795 C3803 1.503 . S
C3796 C3795 1.410 . S
C3796 C3797 1.392 . S
C3796 C3799 1.511 . S
C3797 C3793 1.376 . S
C3797 C3796 1.392 . S
C3797 H3809 0.929 . S
C3798 C3794 1.531 . S
C3798 H3810 0.960 . S
C3798 H3811 0.962 . S
C3798 H3812 0.960 . S
C3799 C3796 1.511 . S
C3799 H3813 0.961 . S
C3799 H3814 0.961 . S
C3799 H3815 0.961 . S
C3800 C3801 1.370 . S
C3800 C3802 1.363 . S
C3800 H3816 0.931 . S
C3801 C3800 1.370 . S
C3801 C3805 1.408 . S
C3802 C3800 1.363 . S
C3802 C3803 1.370 . S
C3802 C3806 1.524 . S
C3803 C3795 1.503 . S
C3803 C3802 1.370 . S
C3803 C3804 1.403 . S
C3804 C3803 1.403 . S
C3804 C3805 1.404 . S
C3804 C3807 1.539 . S
C3805 C3801 1.408 . S
C3805 C3804 1.404 . S
C3805 H3817 0.930 . S
C3806 C3802 1.524 . S
C3806 H3818 0.956 . S
C3806 H3819 0.961 . S
C3806 H3820 0.961 . S
C3807 C3804 1.539 . S
C3807 H3821 0.958 . S
C3807 H3822 0.961 . S
C3807 H3823 0.960 . S
H3808 C3792 0.931 . S
H3809 C3797 0.929 . S
H3810 C3798 0.960 . S
H3811 C3798 0.962 . S
H3812 C3798 0.960 . S
H3813 C3799 0.961 . S
H3814 C3799 0.961 . S
H3815 C3799 0.961 . S
H3816 C3800 0.931 . S
H3817 C3805 0.930 . S
H3818 C3806 0.956 . S
H3819 C3806 0.961 . S
H3820 C3806 0.961 . S
H3821 C3807 0.958 . S
H3822 C3807 0.961 . S
H3823 C3807 0.960 . S
C3824 C3825 1.391 . S
C3824 C3826 1.394 . S
C3824 H3840 0.931 . S
C3825 C3824 1.391 . S
C3825 C3829 1.376 . S
C3826 C3824 1.394 . S
C3826 C3827 1.369 . S
C3826 C3830 1.531 . S
C3827 C3826 1.369 . S
C3827 C3828 1.410 . S
C3827 C3835 1.503 . S
C3828 C3827 1.410 . S
C3828 C3829 1.392 . S
C3828 C3831 1.511 . S
C3829 C3825 1.376 . S
C3829 C3828 1.392 . S
C3829 H3841 0.929 . S
C3830 C3826 1.531 . S
C3830 H3842 0.960 . S
C3830 H3843 0.962 . S
C3830 H3844 0.960 . S
C3831 C3828 1.511 . S
C3831 H3845 0.961 . S
C3831 H3846 0.961 . S
C3831 H3847 0.961 . S
C3832 C3833 1.370 . S
C3832 C3834 1.363 . S
C3832 H3848 0.931 . S
C3833 C3832 1.370 . S
C3833 C3837 1.408 . S
C3834 C3832 1.363 . S
C3834 C3835 1.370 . S
C3834 C3838 1.524 . S
C3835 C3827 1.503 . S
C3835 C3834 1.370 . S
C3835 C3836 1.403 . S
C3836 C3835 1.403 . S
C3836 C3837 1.404 . S
C3836 C3839 1.539 . S
C3837 C3833 1.408 . S
C3837 C3836 1.404 . S
C3837 H3849 0.930 . S
C3838 C3834 1.524 . S
C3838 H3850 0.956 . S
C3838 H3851 0.961 . S
C3838 H3852 0.961 . S
C3839 C3836 1.539 . S
C3839 H3853 0.958 . S
C3839 H3854 0.961 . S
C3839 H3855 0.960 . S
H3840 C3824 0.931 . S
H3841 C3829 0.929 . S
H3842 C3830 0.960 . S
H3843 C3830 0.962 . S
H3844 C3830 0.960 . S
H3845 C3831 0.961 . S
H3846 C3831 0.961 . S
H3847 C3831 0.961 . S
H3848 C3832 0.931 . S
H3849 C3837 0.930 . S
H3850 C3838 0.956 . S
H3851 C3838 0.961 . S
H3852 C3838 0.961 . S
H3853 C3839 0.958 . S
H3854 C3839 0.961 . S
H3855 C3839 0.960 . S
C3856 C3857 1.391 . S
C3856 C3858 1.394 . S
C3856 H3872 0.931 . S
C3857 C3856 1.391 . S
C3857 C3861 1.376 . S
C3858 C3856 1.394 . S
C3858 C3859 1.369 . S
C3858 C3862 1.531 . S
C3859 C3858 1.369 . S
C3859 C3860 1.410 . S
C3859 C3867 1.503 . S
C3860 C3859 1.410 . S
C3860 C3861 1.392 . S
C3860 C3863 1.511 . S
C3861 C3857 1.376 . S
C3861 C3860 1.392 . S
C3861 H3873 0.929 . S
C3862 C3858 1.531 . S
C3862 H3874 0.960 . S
C3862 H3875 0.962 . S
C3862 H3876 0.960 . S
C3863 C3860 1.511 . S
C3863 H3877 0.961 . S
C3863 H3878 0.961 . S
C3863 H3879 0.961 . S
C3864 C3865 1.370 . S
C3864 C3866 1.363 . S
C3864 H3880 0.931 . S
C3865 C3864 1.370 . S
C3865 C3869 1.408 . S
C3866 C3864 1.363 . S
C3866 C3867 1.370 . S
C3866 C3870 1.524 . S
C3867 C3859 1.503 . S
C3867 C3866 1.370 . S
C3867 C3868 1.403 . S
C3868 C3867 1.403 . S
C3868 C3869 1.404 . S
C3868 C3871 1.539 . S
C3869 C3865 1.408 . S
C3869 C3868 1.404 . S
C3869 H3881 0.930 . S
C3870 C3866 1.524 . S
C3870 H3882 0.956 . S
C3870 H3883 0.961 . S
C3870 H3884 0.961 . S
C3871 C3868 1.539 . S
C3871 H3885 0.958 . S
C3871 H3886 0.961 . S
C3871 H3887 0.960 . S
H3872 C3856 0.931 . S
H3873 C3861 0.929 . S
H3874 C3862 0.960 . S
H3875 C3862 0.962 . S
H3876 C3862 0.960 . S
H3877 C3863 0.961 . S
H3878 C3863 0.961 . S
H3879 C3863 0.961 . S
H3880 C3864 0.931 . S
H3881 C3869 0.930 . S
H3882 C3870 0.956 . S
H3883 C3870 0.961 . S
H3884 C3870 0.961 . S
H3885 C3871 0.958 . S
H3886 C3871 0.961 . S
H3887 C3871 0.960 . S
C3888 C3889 1.391 . S
C3888 C3890 1.394 . S
C3888 H3904 0.931 . S
C3889 C3888 1.391 . S
C3889 C3893 1.376 . S
C3890 C3888 1.394 . S
C3890 C3891 1.369 . S
C3890 C3894 1.531 . S
C3891 C3890 1.369 . S
C3891 C3892 1.410 . S
C3891 C3899 1.503 . S
C3892 C3891 1.410 . S
C3892 C3893 1.392 . S
C3892 C3895 1.511 . S
C3893 C3889 1.376 . S
C3893 C3892 1.392 . S
C3893 H3905 0.929 . S
C3894 C3890 1.531 . S
C3894 H3906 0.960 . S
C3894 H3907 0.962 . S
C3894 H3908 0.960 . S
C3895 C3892 1.511 . S
C3895 H3909 0.961 . S
C3895 H3910 0.961 . S
C3895 H3911 0.961 . S
C3896 C3897 1.370 . S
C3896 C3898 1.363 . S
C3896 H3912 0.931 . S
C3897 C3896 1.370 . S
C3897 C3901 1.408 . S
C3898 C3896 1.363 . S
C3898 C3899 1.370 . S
C3898 C3902 1.524 . S
C3899 C3891 1.503 . S
C3899 C3898 1.370 . S
C3899 C3900 1.403 . S
C3900 C3899 1.403 . S
C3900 C3901 1.404 . S
C3900 C3903 1.539 . S
C3901 C3897 1.408 . S
C3901 C3900 1.404 . S
C3901 H3913 0.930 . S
C3902 C3898 1.524 . S
C3902 H3914 0.956 . S
C3902 H3915 0.961 . S
C3902 H3916 0.961 . S
C3903 C3900 1.539 . S
C3903 H3917 0.958 . S
C3903 H3918 0.961 . S
C3903 H3919 0.960 . S
H3904 C3888 0.931 . S
H3905 C3893 0.929 . S
H3906 C3894 0.960 . S
H3907 C3894 0.962 . S
H3908 C3894 0.960 . S
H3909 C3895 0.961 . S
H3910 C3895 0.961 . S
H3911 C3895 0.961 . S
H3912 C3896 0.931 . S
H3913 C3901 0.930 . S
H3914 C3902 0.956 . S
H3915 C3902 0.961 . S
H3916 C3902 0.961 . S
H3917 C3903 0.958 . S
H3918 C3903 0.961 . S
H3919 C3903 0.960 . S
C3920 C3921 1.391 . S
C3920 C3922 1.394 . S
C3920 H3936 0.931 . S
C3921 C3920 1.391 . S
C3921 C3925 1.376 . S
C3922 C3920 1.394 . S
C3922 C3923 1.369 . S
C3922 C3926 1.531 . S
C3923 C3922 1.369 . S
C3923 C3924 1.410 . S
C3923 C3931 1.503 . S
C3924 C3923 1.410 . S
C3924 C3925 1.392 . S
C3924 C3927 1.511 . S
C3925 C3921 1.376 . S
C3925 C3924 1.392 . S
C3925 H3937 0.929 . S
C3926 C3922 1.531 . S
C3926 H3938 0.960 . S
C3926 H3939 0.962 . S
C3926 H3940 0.960 . S
C3927 C3924 1.511 . S
C3927 H3941 0.961 . S
C3927 H3942 0.961 . S
C3927 H3943 0.961 . S
C3928 C3929 1.370 . S
C3928 C3930 1.363 . S
C3928 H3944 0.931 . S
C3929 C3928 1.370 . S
C3929 C3933 1.408 . S
C3930 C3928 1.363 . S
C3930 C3931 1.370 . S
C3930 C3934 1.524 . S
C3931 C3923 1.503 . S
C3931 C3930 1.370 . S
C3931 C3932 1.403 . S
C3932 C3931 1.403 . S
C3932 C3933 1.404 . S
C3932 C3935 1.539 . S
C3933 C3929 1.408 . S
C3933 C3932 1.404 . S
C3933 H3945 0.930 . S
C3934 C3930 1.524 . S
C3934 H3946 0.956 . S
C3934 H3947 0.961 . S
C3934 H3948 0.961 . S
C3935 C3932 1.539 . S
C3935 H3949 0.958 . S
C3935 H3950 0.961 . S
C3935 H3951 0.960 . S
H3936 C3920 0.931 . S
H3937 C3925 0.929 . S
H3938 C3926 0.960 . S
H3939 C3926 0.962 . S
H3940 C3926 0.960 . S
H3941 C3927 0.961 . S
H3942 C3927 0.961 . S
H3943 C3927 0.961 . S
H3944 C3928 0.931 . S
H3945 C3933 0.930 . S
H3946 C3934 0.956 . S
H3947 C3934 0.961 . S
H3948 C3934 0.961 . S
H3949 C3935 0.958 . S
H3950 C3935 0.961 . S
H3951 C3935 0.960 . S
C3952 C3953 1.391 . S
C3952 C3954 1.394 . S
C3952 H3968 0.931 . S
C3953 C3952 1.391 . S
C3953 C3957 1.376 . S
C3954 C3952 1.394 . S
C3954 C3955 1.369 . S
C3954 C3958 1.531 . S
C3955 C3954 1.369 . S
C3955 C3956 1.410 . S
C3955 C3963 1.503 . S
C3956 C3955 1.410 . S
C3956 C3957 1.392 . S
C3956 C3959 1.511 . S
C3957 C3953 1.376 . S
C3957 C3956 1.392 . S
C3957 H3969 0.929 . S
C3958 C3954 1.531 . S
C3958 H3970 0.960 . S
C3958 H3971 0.962 . S
C3958 H3972 0.960 . S
C3959 C3956 1.511 . S
C3959 H3973 0.961 . S
C3959 H3974 0.961 . S
C3959 H3975 0.961 . S
C3960 C3961 1.370 . S
C3960 C3962 1.363 . S
C3960 H3976 0.931 . S
C3961 C3960 1.370 . S
C3961 C3965 1.408 1_554 S
C3962 C3960 1.363 . S
C3962 C3963 1.370 . S
C3962 C3966 1.524 . S
C3963 C3955 1.503 . S
C3963 C3962 1.370 . S
C3963 C3964 1.399 1_554 S
C3964 C3963 1.399 1_556 S
C3964 C3965 1.404 . S
C3964 C3967 1.542 . S
C3965 C3961 1.408 1_556 S
C3965 C3964 1.404 . S
C3965 H3977 0.930 . S
C3966 C3962 1.524 . S
C3966 H3978 0.956 . S
C3966 H3979 0.961 . S
C3966 H3980 0.961 . S
C3967 C3964 1.542 . S
C3967 H3981 0.958 . S
C3967 H3982 0.961 . S
C3967 H3983 0.960 . S
H3968 C3952 0.931 . S
H3969 C3957 0.929 . S
H3970 C3958 0.960 . S
H3971 C3958 0.962 . S
H3972 C3958 0.960 . S
H3973 C3959 0.961 . S
H3974 C3959 0.961 . S
H3975 C3959 0.961 . S
H3976 C3960 0.931 . S
H3977 C3965 0.930 . S
H3978 C3966 0.956 . S
H3979 C3966 0.961 . S
H3980 C3966 0.961 . S
H3981 C3967 0.958 . S
H3982 C3967 0.961 . S
H3983 C3967 0.960 . S
C3984 C3985 1.391 . S
C3984 C3986 1.394 . S
C3984 H4000 0.931 . S
C3985 C3984 1.391 . S
C3985 C3989 1.376 . S
C3986 C3984 1.394 . S
C3986 C3987 1.369 . S
C3986 C3990 1.531 . S
C3987 C3986 1.369 . S
C3987 C3988 1.410 . S
C3987 C3995 1.503 . S
C3988 C3987 1.410 . S
C3988 C3989 1.392 . S
C3988 C3991 1.511 . S
C3989 C3985 1.376 . S
C3989 C3988 1.392 . S
C3989 H4001 0.929 . S
C3990 C3986 1.531 . S
C3990 H4002 0.960 . S
C3990 H4003 0.962 . S
C3990 H4004 0.960 . S
C3991 C3988 1.511 . S
C3991 H4005 0.961 . S
C3991 H4006 0.961 . S
C3991 H4007 0.961 . S
C3992 C3993 1.370 . S
C3992 C3994 1.363 . S
C3992 H4008 0.931 . S
C3993 C3992 1.370 . S
C3993 C3997 1.408 . S
C3994 C3992 1.363 . S
C3994 C3995 1.370 . S
C3994 C3998 1.524 . S
C3995 C3987 1.503 . S
C3995 C3994 1.370 . S
C3995 C3996 1.403 . S
C3996 C3995 1.403 . S
C3996 C3997 1.404 . S
C3996 C3999 1.539 . S
C3997 C3993 1.408 . S
C3997 C3996 1.404 . S
C3997 H4009 0.930 . S
C3998 C3994 1.524 . S
C3998 H4010 0.956 . S
C3998 H4011 0.961 . S
C3998 H4012 0.961 . S
C3999 C3996 1.539 . S
C3999 H4013 0.958 . S
C3999 H4014 0.961 . S
C3999 H4015 0.960 . S
H4000 C3984 0.931 . S
H4001 C3989 0.929 . S
H4002 C3990 0.960 . S
H4003 C3990 0.962 . S
H4004 C3990 0.960 . S
H4005 C3991 0.961 . S
H4006 C3991 0.961 . S
H4007 C3991 0.961 . S
H4008 C3992 0.931 . S
H4009 C3997 0.930 . S
H4010 C3998 0.956 . S
H4011 C3998 0.961 . S
H4012 C3998 0.961 . S
H4013 C3999 0.958 . S
H4014 C3999 0.961 . S
H4015 C3999 0.960 . S
C4016 C4017 1.391 . S
C4016 C4018 1.394 . S
C4016 H4032 0.931 . S
C4017 C4016 1.391 . S
C4017 C4021 1.376 . S
C4018 C4016 1.394 . S
C4018 C4019 1.369 . S
C4018 C4022 1.531 . S
C4019 C4018 1.369 . S
C4019 C4020 1.410 . S
C4019 C4027 1.503 . S
C4020 C4019 1.410 . S
C4020 C4021 1.392 . S
C4020 C4023 1.511 . S
C4021 C4017 1.376 . S
C4021 C4020 1.392 . S
C4021 H4033 0.929 . S
C4022 C4018 1.531 . S
C4022 H4034 0.960 . S
C4022 H4035 0.962 . S
C4022 H4036 0.960 . S
C4023 C4020 1.511 . S
C4023 H4037 0.961 . S
C4023 H4038 0.961 . S
C4023 H4039 0.961 . S
C4024 C4025 1.370 . S
C4024 C4026 1.363 . S
C4024 H4040 0.931 . S
C4025 C4024 1.370 . S
C4025 C4029 1.408 . S
C4026 C4024 1.363 . S
C4026 C4027 1.370 . S
C4026 C4030 1.524 . S
C4027 C4019 1.503 . S
C4027 C4026 1.370 . S
C4027 C4028 1.403 . S
C4028 C4027 1.403 . S
C4028 C4029 1.404 . S
C4028 C4031 1.539 . S
C4029 C4025 1.408 . S
C4029 C4028 1.404 . S
C4029 H4041 0.930 . S
C4030 C4026 1.524 . S
C4030 H4042 0.956 . S
C4030 H4043 0.961 . S
C4030 H4044 0.961 . S
C4031 C4028 1.539 . S
C4031 H4045 0.958 . S
C4031 H4046 0.961 . S
C4031 H4047 0.960 . S
H4032 C4016 0.931 . S
H4033 C4021 0.929 . S
H4034 C4022 0.960 . S
H4035 C4022 0.962 . S
H4036 C4022 0.960 . S
H4037 C4023 0.961 . S
H4038 C4023 0.961 . S
H4039 C4023 0.961 . S
H4040 C4024 0.931 . S
H4041 C4029 0.930 . S
H4042 C4030 0.956 . S
H4043 C4030 0.961 . S
H4044 C4030 0.961 . S
H4045 C4031 0.958 . S
H4046 C4031 0.961 . S
H4047 C4031 0.960 . S
C977 C105 2.351 . S
C985 C346 2.267 . S
C1009 C65 2.091 . S
C1017 C394 2.076 . S
C1041 C73 1.334 . S
C1049 C426 1.325 . S
C1081 C471 1.590 . S
C1073 C92 1.651 . S
C1105 C17 0.961 . S
C1113 C511 0.965 . S
C1145 C546 1.002 . S
C1137 C37 0.991 . S
C1177 C585 1.264 . S
C1169 C49 1.188 . S
C1201 C8 1.233 . S
C1209 C622 1.244 . S
C1241 C354 2.070 . S
C1233 C231 2.039 1_545 S
C1265 C241 0.480 . S
C1273 C391 0.434 . S
C1305 C434 2.405 . S
C1297 C273 2.312 . S
C1337 C466 1.090 . S
C1329 C171 1.104 1_556 S
C1361 C227 1.258 . S
C1369 C506 1.237 . S
C1401 C554 0.386 . S
C1393 C245 0.550 . S
C1433 C595 2.010 1_556 S
C1425 C269 2.109 . S
C1465 C625 2.010 . S
C1457 C175 1.982 . S
C1497 C351 1.368 . S
C1489 C162 1.443 1_554 S
C1521 C289 2.191 . S
C1529 C674 2.163 . S
C1561 C711 1.247 . S
C1553 C330 1.217 . S
C1593 C742 0.669 . S
C1585 C317 0.577 . S
C1617 C120 2.736 . S
C1625 C635 2.712 . S
C1649 C134 1.449 . S
C1657 C431 1.447 . S
C1681 C331 1.757 . S
C1689 C794 1.748 . S
C1721 C826 1.804 . S
C1713 C303 1.793 . S
C1753 C355 2.270 . S
C1745 C59 2.329 . S
C1785 C825 2.133 . S
C1777 C107 2.138 . S
C1809 C91 1.381 . S
C1817 C435 1.376 . S
C1841 C78 1.655 . S
C1849 C782 1.625 . S
C1881 C502 0.990 . S
C1873 C7 1.016 1_455 S
C1905 C51 1.048 . S
C1913 C715 1.065 . S
C1945 C594 1.256 . S
C1937 C31 1.259 . S
C1977 C871 1.251 . S
C1969 C22 1.274 . S
C2009 C345 2.094 1_556 S
C2001 C143 2.081 . S
C2041 C822 0.472 . S
C2033 C315 0.538 . S
C2065 C115 2.457 . S
C2073 C425 2.433 . S
C2097 C287 1.107 . S
C2105 C795 1.151 . S
C2129 C147 1.280 . S
C2137 C515 1.284 . S
C2169 C705 0.452 . S
C2161 C311 0.343 . S
C2193 C119 2.031 . S
C2201 C586 2.074 . S
C2225 C283 2.025 1_556 S
C2233 C874 2.018 . S
C2257 C190 1.308 . S
C2265 C342 1.370 . S
C2289 C177 2.233 . S
C2297 C665 2.209 . S
C2321 C260 1.256 . S
C2329 C542 1.231 . S
C2353 C247 0.596 . S
C2361 C751 0.605 . S
C2393 C866 2.731 . S
C2385 C274 2.770 . S
C2417 C218 1.456 . S
C2425 C422 1.472 . S
C2457 C465 1.784 . S
C2449 C261 1.789 . S
C2489 C395 1.844 . S
C2481 C205 1.861 . S
C2513 C77 2.336 . S
C2521 C906 2.283 . S
C2553 C834 2.076 . S
C2545 C93 2.091 . S
C2577 C101 1.337 . S
C2585 C946 1.326 . S
C2609 C64 1.640 1_655 S
C2617 C791 1.612 . S
C2641 C45 0.952 . S
C2649 C671 0.947 . S
C2681 C706 0.998 . S
C2673 C9 0.970 . S
C2713 C745 1.255 . S
C2705 C21 1.258 . S
C2745 C862 1.239 . S
C2737 C36 1.254 . S
C2777 C914 2.067 . S
C2769 C259 2.026 . S
C2801 C185 0.359 . S
C2809 C831 0.499 . S
C2841 C954 2.401 . S
C2833 C203 2.351 . S
C2873 C786 1.086 . S
C2865 C213 1.099 . S
C2905 C666 1.233 . S
C2897 C255 1.248 . S
C2929 C189 0.577 . S
C2937 C714 0.378 . S
C2969 C755 2.028 . S
C2961 C199 2.098 . S
C2993 C217 1.982 . S
C3001 C865 2.010 . S
C3033 C911 1.370 . S
C3025 C316 1.427 . S
C3057 C135 2.176 . S
C3065 C514 2.173 . S
C3097 C551 1.235 . S
C3089 C148 1.263 . S
C3129 C582 0.668 . S
C3121 C163 0.577 . S
C3161 C875 2.703 . S
C3153 C302 2.736 . S
C3185 C288 1.447 . S
C3193 C951 1.444 . S
C3225 C474 1.747 . S
C3217 C149 1.754 . S
C3257 C386 1.807 . S
C3249 C121 1.798 . S
C3281 C87 2.337 . S
C3289 C915 2.284 . S
C3321 C385 2.139 . S
C3313 C79 2.125 . S
C3345 C63 1.350 . S
C3353 C955 1.374 . S
C3377 C106 1.653 . S
C3385 C462 1.620 . S
C3409 C35 1.013 . S
C3417 C662 0.986 . S
C3449 C555 1.071 . S
C3441 C23 1.036 . S
C3473 C3 1.269 . S
C3481 C754 1.253 . S
C3505 C50 1.273 . S
C3513 C631 1.250 . S
C3545 C905 2.093 . S
C3537 C325 2.096 . S
C3569 C161 0.520 . S
C3577 C382 0.476 . S
C3609 C945 2.406 1_656 S
C3601 C297 2.454 . S
C3633 C133 1.166 . S
C3641 C475 1.146 . S
C3665 C329 1.275 . S
C3673 C675 1.285 . S
C3705 C545 0.385 . S
C3697 C157 0.440 . S
C3729 C301 2.049 . S
C3737 C746 2.072 1_655 S
C3769 C634 2.009 . S
C3761 C129 2.013 . S
C3801 C902 1.367 . S
C3793 C246 1.311 . S
C3833 C505 2.215 1_565 S
C3825 C219 2.217 . S
C3857 C232 1.263 . S
C3865 C702 1.233 . S
C3897 C591 0.601 . S
C3889 C191 0.598 . S
C3921 C204 2.775 . S
C3929 C626 2.741 . S
C3953 C176 1.461 . S
C3961 C942 1.471 . S
C3993 C785 1.782 . S
C3985 C233 1.789 . S
C4025 C835 1.841 . S
C4017 C275 1.855 . S
