# Generated by pormake.
# Topology iac, (4,6)-cn, num edge types: 1
# Building blocks:
#     Node 0, Type 0, BuildingBlock: NAHDIM_clean_sbu_0, # of connection points: 4
#     Node 1, Type 0, BuildingBlock: NAHDIM_clean_sbu_0, # of connection points: 4
#     Node 2, Type 0, BuildingBlock: NAHDIM_clean_sbu_0, # of connection points: 4
#     Node 3, Type 0, BuildingBlock: NAHDIM_clean_sbu_0, # of connection points: 4
#     Node 4, Type 0, BuildingBlock: NAHDIM_clean_sbu_0, # of connection points: 4
#     Node 5, Type 0, BuildingBlock: NAHDIM_clean_sbu_0, # of connection points: 4
#     Node 6, Type 0, BuildingBlock: NAHDIM_clean_sbu_0, # of connection points: 4
#     Node 7, Type 0, BuildingBlock: NAHDIM_clean_sbu_0, # of connection points: 4
#     Node 8, Type 0, BuildingBlock: NAHDIM_clean_sbu_0, # of connection points: 4
#     Node 9, Type 0, BuildingBlock: NAHDIM_clean_sbu_0, # of connection points: 4
#     Node 10, Type 0, BuildingBlock: NAHDIM_clean_sbu_0, # of connection points: 4
#     Node 11, Type 0, BuildingBlock: NAHDIM_clean_sbu_0, # of connection points: 4
#     Node 12, Type 0, BuildingBlock: NAHDIM_clean_sbu_0, # of connection points: 4
#     Node 13, Type 0, BuildingBlock: NAHDIM_clean_sbu_0, # of connection points: 4
#     Node 14, Type 0, BuildingBlock: NAHDIM_clean_sbu_0, # of connection points: 4
#     Node 15, Type 0, BuildingBlock: NAHDIM_clean_sbu_0, # of connection points: 4
#     Node 16, Type 0, BuildingBlock: NAHDIM_clean_sbu_0, # of connection points: 4
#     Node 17, Type 0, BuildingBlock: NAHDIM_clean_sbu_0, # of connection points: 4
#     Node 18, Type 0, BuildingBlock: NAHDIM_clean_sbu_0, # of connection points: 4
#     Node 19, Type 0, BuildingBlock: NAHDIM_clean_sbu_0, # of connection points: 4
#     Node 20, Type 0, BuildingBlock: NAHDIM_clean_sbu_0, # of connection points: 4
#     Node 21, Type 0, BuildingBlock: NAHDIM_clean_sbu_0, # of connection points: 4
#     Node 22, Type 0, BuildingBlock: NAHDIM_clean_sbu_0, # of connection points: 4
#     Node 23, Type 0, BuildingBlock: NAHDIM_clean_sbu_0, # of connection points: 4
#     Node 24, Type 1, BuildingBlock: JUFBIX_clean_sbu_0, # of connection points: 6
#     Node 25, Type 1, BuildingBlock: JUFBIX_clean_sbu_0, # of connection points: 6
#     Node 26, Type 1, BuildingBlock: JUFBIX_clean_sbu_0, # of connection points: 6
#     Node 27, Type 1, BuildingBlock: JUFBIX_clean_sbu_0, # of connection points: 6
#     Node 28, Type 1, BuildingBlock: JUFBIX_clean_sbu_0, # of connection points: 6
#     Node 29, Type 1, BuildingBlock: JUFBIX_clean_sbu_0, # of connection points: 6
#     Node 30, Type 1, BuildingBlock: JUFBIX_clean_sbu_0, # of connection points: 6
#     Node 31, Type 1, BuildingBlock: JUFBIX_clean_sbu_0, # of connection points: 6
#     Node 32, Type 1, BuildingBlock: JUFBIX_clean_sbu_0, # of connection points: 6
#     Node 33, Type 1, BuildingBlock: JUFBIX_clean_sbu_0, # of connection points: 6
#     Node 34, Type 1, BuildingBlock: JUFBIX_clean_sbu_0, # of connection points: 6
#     Node 35, Type 1, BuildingBlock: JUFBIX_clean_sbu_0, # of connection points: 6
#     Node 36, Type 1, BuildingBlock: JUFBIX_clean_sbu_0, # of connection points: 6
#     Node 37, Type 1, BuildingBlock: JUFBIX_clean_sbu_0, # of connection points: 6
#     Node 38, Type 1, BuildingBlock: JUFBIX_clean_sbu_0, # of connection points: 6
#     Node 39, Type 1, BuildingBlock: JUFBIX_clean_sbu_0, # of connection points: 6
#     Edge 40, Type (0, 1), BuildingBlock: UVAHIK_clean_linker_0, # of connection points: 2
#     Edge 41, Type (0, 1), BuildingBlock: UVAHIK_clean_linker_0, # of connection points: 2
#     Edge 42, Type (0, 1), BuildingBlock: UVAHIK_clean_linker_0, # of connection points: 2
#     Edge 43, Type (0, 1), BuildingBlock: UVAHIK_clean_linker_0, # of connection points: 2
#     Edge 44, Type (0, 1), BuildingBlock: UVAHIK_clean_linker_0, # of connection points: 2
#     Edge 45, Type (0, 1), BuildingBlock: UVAHIK_clean_linker_0, # of connection points: 2
#     Edge 46, Type (0, 1), BuildingBlock: UVAHIK_clean_linker_0, # of connection points: 2
#     Edge 47, Type (0, 1), BuildingBlock: UVAHIK_clean_linker_0, # of connection points: 2
#     Edge 48, Type (0, 1), BuildingBlock: UVAHIK_clean_linker_0, # of connection points: 2
#     Edge 49, Type (0, 1), BuildingBlock: UVAHIK_clean_linker_0, # of connection points: 2
#     Edge 50, Type (0, 1), BuildingBlock: UVAHIK_clean_linker_0, # of connection points: 2
#     Edge 51, Type (0, 1), BuildingBlock: UVAHIK_clean_linker_0, # of connection points: 2
#     Edge 52, Type (0, 1), BuildingBlock: UVAHIK_clean_linker_0, # of connection points: 2
#     Edge 53, Type (0, 1), BuildingBlock: UVAHIK_clean_linker_0, # of connection points: 2
#     Edge 54, Type (0, 1), BuildingBlock: UVAHIK_clean_linker_0, # of connection points: 2
#     Edge 55, Type (0, 1), BuildingBlock: UVAHIK_clean_linker_0, # of connection points: 2
#     Edge 56, Type (0, 1), BuildingBlock: UVAHIK_clean_linker_0, # of connection points: 2
#     Edge 57, Type (0, 1), BuildingBlock: UVAHIK_clean_linker_0, # of connection points: 2
#     Edge 58, Type (0, 1), BuildingBlock: UVAHIK_clean_linker_0, # of connection points: 2
#     Edge 59, Type (0, 1), BuildingBlock: UVAHIK_clean_linker_0, # of connection points: 2
#     Edge 60, Type (0, 1), BuildingBlock: UVAHIK_clean_linker_0, # of connection points: 2
#     Edge 61, Type (0, 1), BuildingBlock: UVAHIK_clean_linker_0, # of connection points: 2
#     Edge 62, Type (0, 1), BuildingBlock: UVAHIK_clean_linker_0, # of connection points: 2
#     Edge 63, Type (0, 1), BuildingBlock: UVAHIK_clean_linker_0, # of connection points: 2
#     Edge 64, Type (0, 1), BuildingBlock: UVAHIK_clean_linker_0, # of connection points: 2
#     Edge 65, Type (0, 1), BuildingBlock: UVAHIK_clean_linker_0, # of connection points: 2
#     Edge 66, Type (0, 1), BuildingBlock: UVAHIK_clean_linker_0, # of connection points: 2
#     Edge 67, Type (0, 1), BuildingBlock: UVAHIK_clean_linker_0, # of connection points: 2
#     Edge 68, Type (0, 1), BuildingBlock: UVAHIK_clean_linker_0, # of connection points: 2
#     Edge 69, Type (0, 1), BuildingBlock: UVAHIK_clean_linker_0, # of connection points: 2
#     Edge 70, Type (0, 1), BuildingBlock: UVAHIK_clean_linker_0, # of connection points: 2
#     Edge 71, Type (0, 1), BuildingBlock: UVAHIK_clean_linker_0, # of connection points: 2
#     Edge 72, Type (0, 1), BuildingBlock: UVAHIK_clean_linker_0, # of connection points: 2
#     Edge 73, Type (0, 1), BuildingBlock: UVAHIK_clean_linker_0, # of connection points: 2
#     Edge 74, Type (0, 1), BuildingBlock: UVAHIK_clean_linker_0, # of connection points: 2
#     Edge 75, Type (0, 1), BuildingBlock: UVAHIK_clean_linker_0, # of connection points: 2
#     Edge 76, Type (0, 1), BuildingBlock: UVAHIK_clean_linker_0, # of connection points: 2
#     Edge 77, Type (0, 1), BuildingBlock: UVAHIK_clean_linker_0, # of connection points: 2
#     Edge 78, Type (0, 1), BuildingBlock: UVAHIK_clean_linker_0, # of connection points: 2
#     Edge 79, Type (0, 1), BuildingBlock: UVAHIK_clean_linker_0, # of connection points: 2
#     Edge 80, Type (0, 1), BuildingBlock: UVAHIK_clean_linker_0, # of connection points: 2
#     Edge 81, Type (0, 1), BuildingBlock: UVAHIK_clean_linker_0, # of connection points: 2
#     Edge 82, Type (0, 1), BuildingBlock: UVAHIK_clean_linker_0, # of connection points: 2
#     Edge 83, Type (0, 1), BuildingBlock: UVAHIK_clean_linker_0, # of connection points: 2
#     Edge 84, Type (0, 1), BuildingBlock: UVAHIK_clean_linker_0, # of connection points: 2
#     Edge 85, Type (0, 1), BuildingBlock: UVAHIK_clean_linker_0, # of connection points: 2
#     Edge 86, Type (0, 1), BuildingBlock: UVAHIK_clean_linker_0, # of connection points: 2
#     Edge 87, Type (0, 1), BuildingBlock: UVAHIK_clean_linker_0, # of connection points: 2
#     Edge 88, Type (0, 1), BuildingBlock: UVAHIK_clean_linker_0, # of connection points: 2
#     Edge 89, Type (0, 1), BuildingBlock: UVAHIK_clean_linker_0, # of connection points: 2
#     Edge 90, Type (0, 1), BuildingBlock: UVAHIK_clean_linker_0, # of connection points: 2
#     Edge 91, Type (0, 1), BuildingBlock: UVAHIK_clean_linker_0, # of connection points: 2
#     Edge 92, Type (0, 1), BuildingBlock: UVAHIK_clean_linker_0, # of connection points: 2
#     Edge 93, Type (0, 1), BuildingBlock: UVAHIK_clean_linker_0, # of connection points: 2
#     Edge 94, Type (0, 1), BuildingBlock: UVAHIK_clean_linker_0, # of connection points: 2
#     Edge 95, Type (0, 1), BuildingBlock: UVAHIK_clean_linker_0, # of connection points: 2
#     Edge 96, Type (0, 1), BuildingBlock: UVAHIK_clean_linker_0, # of connection points: 2
#     Edge 97, Type (0, 1), BuildingBlock: UVAHIK_clean_linker_0, # of connection points: 2
#     Edge 98, Type (0, 1), BuildingBlock: UVAHIK_clean_linker_0, # of connection points: 2
#     Edge 99, Type (0, 1), BuildingBlock: UVAHIK_clean_linker_0, # of connection points: 2
#     Edge 100, Type (0, 1), BuildingBlock: UVAHIK_clean_linker_0, # of connection points: 2
#     Edge 101, Type (0, 1), BuildingBlock: UVAHIK_clean_linker_0, # of connection points: 2
#     Edge 102, Type (0, 1), BuildingBlock: UVAHIK_clean_linker_0, # of connection points: 2
#     Edge 103, Type (0, 1), BuildingBlock: UVAHIK_clean_linker_0, # of connection points: 2
#     Edge 104, Type (0, 1), BuildingBlock: UVAHIK_clean_linker_0, # of connection points: 2
#     Edge 105, Type (0, 1), BuildingBlock: UVAHIK_clean_linker_0, # of connection points: 2
#     Edge 106, Type (0, 1), BuildingBlock: UVAHIK_clean_linker_0, # of connection points: 2
#     Edge 107, Type (0, 1), BuildingBlock: UVAHIK_clean_linker_0, # of connection points: 2
#     Edge 108, Type (0, 1), BuildingBlock: UVAHIK_clean_linker_0, # of connection points: 2
#     Edge 109, Type (0, 1), BuildingBlock: UVAHIK_clean_linker_0, # of connection points: 2
#     Edge 110, Type (0, 1), BuildingBlock: UVAHIK_clean_linker_0, # of connection points: 2
#     Edge 111, Type (0, 1), BuildingBlock: UVAHIK_clean_linker_0, # of connection points: 2
#     Edge 112, Type (0, 1), BuildingBlock: UVAHIK_clean_linker_0, # of connection points: 2
#     Edge 113, Type (0, 1), BuildingBlock: UVAHIK_clean_linker_0, # of connection points: 2
#     Edge 114, Type (0, 1), BuildingBlock: UVAHIK_clean_linker_0, # of connection points: 2
#     Edge 115, Type (0, 1), BuildingBlock: UVAHIK_clean_linker_0, # of connection points: 2
#     Edge 116, Type (0, 1), BuildingBlock: UVAHIK_clean_linker_0, # of connection points: 2
#     Edge 117, Type (0, 1), BuildingBlock: UVAHIK_clean_linker_0, # of connection points: 2
#     Edge 118, Type (0, 1), BuildingBlock: UVAHIK_clean_linker_0, # of connection points: 2
#     Edge 119, Type (0, 1), BuildingBlock: UVAHIK_clean_linker_0, # of connection points: 2
#     Edge 120, Type (0, 1), BuildingBlock: UVAHIK_clean_linker_0, # of connection points: 2
#     Edge 121, Type (0, 1), BuildingBlock: UVAHIK_clean_linker_0, # of connection points: 2
#     Edge 122, Type (0, 1), BuildingBlock: UVAHIK_clean_linker_0, # of connection points: 2
#     Edge 123, Type (0, 1), BuildingBlock: UVAHIK_clean_linker_0, # of connection points: 2
#     Edge 124, Type (0, 1), BuildingBlock: UVAHIK_clean_linker_0, # of connection points: 2
#     Edge 125, Type (0, 1), BuildingBlock: UVAHIK_clean_linker_0, # of connection points: 2
#     Edge 126, Type (0, 1), BuildingBlock: UVAHIK_clean_linker_0, # of connection points: 2
#     Edge 127, Type (0, 1), BuildingBlock: UVAHIK_clean_linker_0, # of connection points: 2
#     Edge 128, Type (0, 1), BuildingBlock: UVAHIK_clean_linker_0, # of connection points: 2
#     Edge 129, Type (0, 1), BuildingBlock: UVAHIK_clean_linker_0, # of connection points: 2
#     Edge 130, Type (0, 1), BuildingBlock: UVAHIK_clean_linker_0, # of connection points: 2
#     Edge 131, Type (0, 1), BuildingBlock: UVAHIK_clean_linker_0, # of connection points: 2
#     Edge 132, Type (0, 1), BuildingBlock: UVAHIK_clean_linker_0, # of connection points: 2
#     Edge 133, Type (0, 1), BuildingBlock: UVAHIK_clean_linker_0, # of connection points: 2
#     Edge 134, Type (0, 1), BuildingBlock: UVAHIK_clean_linker_0, # of connection points: 2
#     Edge 135, Type (0, 1), BuildingBlock: UVAHIK_clean_linker_0, # of connection points: 2
# Relax obj value: 0.234
# Max RMSD: 0.235
# Mean RMSD: 0.153
data_MOF--net-iac--node1-NAHDIM_clean_sbu_0--node2-JUFBIX_clean_sbu_0--edge1-UVAHIK_clean_linker_0
_symmetry_space_group_name_H-M    P1
_symmetry_Int_Tables_number       1
_symmetry_cell_setting            triclinic
loop_
_symmetry_equiv_pos_as_xyz
'x, y, z'
_cell_length_a     71.003815
_cell_length_b     70.67421
_cell_length_c     68.498898
_cell_angle_alpha  89.358166
_cell_angle_beta   88.711862
_cell_angle_gamma 89.594183
loop_
_atom_site_label
_atom_site_type_symbol
_atom_site_fract_x
_atom_site_fract_y
_atom_site_fract_z
_atom_type_partial_charge
C0 C 0.98678 0.28104 0.16806 0.0
O1 O 0.99509 0.29758 0.167 0.0
O2 O 0.02035 0.24525 0.12629 0.0
Zn3 Zn 0.01756 0.26978 0.14155 0.0
O4 O 0.01397 0.29334 0.12458 0.0
C5 C 0.04729 0.26211 0.16992 0.0
O6 O 0.03764 0.24666 0.17374 0.0
O7 O 0.9942 0.26713 0.15902 0.0
C8 C 0.02203 0.297 0.1082 0.0
O9 O 0.0333 0.28427 0.10027 0.0
C10 C 0.00959 0.24068 0.11251 0.0
O11 O 0.99668 0.2528 0.10677 0.0
O12 O 0.04121 0.2738 0.15724 0.0
C13 C 0.0582 0.7533 0.42066 0.0
O14 O 0.0574 0.73843 0.4323 0.0
O15 O 0.01989 0.73652 0.4501 0.0
Zn16 Zn 0.01798 0.75651 0.42931 0.0
O17 O 0.0063 0.77954 0.44133 0.0
C18 C 0.98644 0.73906 0.41091 0.0
O19 O 0.98221 0.73319 0.42873 0.0
O20 O 0.04335 0.7629 0.41756 0.0
C21 C 0.9939 0.77803 0.45492 0.0
O22 O 0.9888 0.76116 0.46119 0.0
C23 C 0.02832 0.74002 0.46582 0.0
O24 O 0.03637 0.75653 0.46792 0.0
O25 O 0.00135 0.74854 0.40784 0.0
C26 C 0.48825 0.78399 0.66896 0.0
O27 O 0.49513 0.80111 0.6668 0.0
O28 O 0.52494 0.74838 0.63052 0.0
Zn29 Zn 0.52153 0.77283 0.64565 0.0
O30 O 0.51922 0.79623 0.62784 0.0
C31 C 0.55042 0.76212 0.6736 0.0
O32 O 0.54148 0.7459 0.6739 0.0
O33 O 0.49732 0.77007 0.66169 0.0
C34 C 0.5321 0.8087 0.62712 0.0
O35 O 0.54742 0.80581 0.63715 0.0
C36 C 0.51558 0.74419 0.61557 0.0
O37 O 0.50366 0.75667 0.60851 0.0
O38 O 0.54414 0.77565 0.66314 0.0
C39 C 0.57086 0.25805 0.89643 0.0
O40 O 0.56968 0.25701 0.91557 0.0
O41 O 0.53069 0.23395 0.91726 0.0
Zn42 Zn 0.53102 0.25756 0.90094 0.0
O43 O 0.52733 0.28002 0.91817 0.0
C44 C 0.49587 0.24619 0.88511 0.0
O45 O 0.49521 0.23579 0.90112 0.0
O46 O 0.55583 0.2589 0.88674 0.0
C47 C 0.51191 0.28187 0.92775 0.0
O48 O 0.49871 0.26914 0.92593 0.0
C49 C 0.53387 0.23336 0.93543 0.0
O50 O 0.538 0.24898 0.94456 0.0
O51 O 0.51008 0.25667 0.8817 0.0
C52 C 0.15791 0.00771 0.32002 0.0
O53 O 0.1499 0.01356 0.33636 0.0
O54 O 0.12358 0.0302 0.27179 0.0
Zn55 Zn 0.12895 0.02984 0.3003 0.0
O56 O 0.10628 0.01935 0.31443 0.0
C57 C 0.12738 0.07073 0.30504 0.0
O58 O 0.11438 0.07039 0.2917 0.0
O59 O 0.15118 0.01285 0.30377 0.0
C60 C 0.08992 0.02388 0.30871 0.0
O61 O 0.08821 0.03578 0.29398 0.0
C62 C 0.11914 0.01402 0.26552 0.0
O63 O 0.11899 -0.00048 0.27771 0.0
O64 O 0.13511 0.05536 0.31049 0.0
C65 C 0.21415 0.93384 0.60468 0.0
O66 O 0.20702 0.93378 0.62254 0.0
O67 O 0.26575 0.90872 0.5813 0.0
Zn68 Zn 0.24584 0.92831 0.57636 0.0
O69 O 0.23086 0.91702 0.55475 0.0
C70 C 0.27197 0.95755 0.57905 0.0
O71 O 0.27333 0.94961 0.59642 0.0
O72 O 0.23177 0.93153 0.60211 0.0
C73 C 0.23129 0.92439 0.53775 0.0
O74 O 0.23795 0.94158 0.53544 0.0
C75 C 0.27239 0.89804 0.56796 0.0
O76 O 0.26692 0.90035 0.54991 0.0
O77 O 0.25948 0.95165 0.5677 0.0
C78 C 0.34358 0.07168 0.77868 0.0
O79 O 0.35766 0.07556 0.79005 0.0
O80 O 0.37754 0.03869 0.74298 0.0
Zn81 Zn 0.36547 0.03817 0.76967 0.0
O82 O 0.3843 0.04473 0.78996 0.0
C83 C 0.36577 -0.00215 0.77571 0.0
O84 O 0.3834 -0.00085 0.76962 0.0
O85 O 0.34387 0.05638 0.76918 0.0
C86 C 0.40183 0.04183 0.78709 0.0
O87 O 0.4078 0.03507 0.77025 0.0
C88 C 0.3855 0.05393 0.73744 0.0
O89 O 0.38567 0.06836 0.74937 0.0
O90 O 0.35551 0.01261 0.77635 0.0
C91 C 0.29361 0.11036 0.00849 0.0
O92 O 0.28633 0.11105 0.99102 0.0
O93 O 0.2609 0.15298 0.04284 0.0
Zn94 Zn 0.26343 0.13707 0.01852 0.0
O95 O 0.26735 0.15325 0.99417 0.0
C96 C 0.23435 0.10913 0.02752 0.0
O97 O 0.2447 0.10548 0.0428 0.0
O98 O 0.28598 0.11995 0.02215 0.0
C99 C 0.25334 0.16186 0.98685 0.0
O100 O 0.23684 0.16067 0.99582 0.0
C101 C 0.27043 0.16796 0.04494 0.0
O102 O 0.28147 0.17383 0.0305 0.0
O103 O 0.23973 0.12178 0.01533 0.0
C104 C 0.7026 0.43523 0.00525 0.0
O105 O 0.70944 0.42608 0.99005 0.0
O106 O 0.73114 0.40566 0.05189 0.0
Zn107 Zn 0.73443 0.41892 0.02609 0.0
O108 O 0.73988 0.4002 0.00472 0.0
C109 C 0.76993 0.43242 0.03891 0.0
O110 O 0.76824 0.41789 0.05093 0.0
O111 O 0.71106 0.43416 0.02137 0.0
C112 C 0.75175 0.38692 0.00744 0.0
O113 O 0.7595 0.38504 0.0246 0.0
C114 C 0.7228 0.38995 0.05427 0.0
O115 O 0.71557 0.38158 0.03916 0.0
O116 O 0.75679 0.43607 0.02712 0.0
C117 C 0.86771 0.55978 0.23882 0.0
O118 O 0.87593 0.54662 0.22819 0.0
O119 O 0.91149 0.54234 0.24303 0.0
Zn120 Zn 0.89331 0.54504 0.2656 0.0
O121 O 0.907 0.55522 0.28843 0.0
C122 C 0.88542 0.50523 0.26318 0.0
O123 O 0.89717 0.50602 0.24811 0.0
O124 O 0.87268 0.56205 0.25636 0.0
C125 C 0.92183 0.54589 0.29226 0.0
O126 O 0.92619 0.53106 0.28162 0.0
C127 C 0.92436 0.55428 0.23915 0.0
O128 O 0.92693 0.56846 0.25101 0.0
O129 O 0.88194 0.5201 0.27287 0.0
C130 C 0.80835 0.61067 0.50377 0.0
O131 O 0.80294 0.61493 0.48603 0.0
O132 O 0.77311 0.649 0.53987 0.0
Zn133 Zn 0.77575 0.63344 0.5153 0.0
O134 O 0.77896 0.64971 0.49082 0.0
C135 C 0.7466 0.60617 0.52599 0.0
O136 O 0.75638 0.60419 0.54196 0.0
O137 O 0.7987 0.6167 0.5183 0.0
C138 C 0.7646 0.65473 0.4812 0.0
O139 O 0.74777 0.65025 0.48805 0.0
C140 C 0.78114 0.66483 0.54215 0.0
O141 O 0.79108 0.67218 0.52758 0.0
O142 O 0.75241 0.61752 0.51269 0.0
C143 C 0.66958 0.47952 0.81749 0.0
O144 O 0.65538 0.47791 0.83 0.0
O145 O 0.64194 0.51316 0.77354 0.0
Zn146 Zn 0.64761 0.51055 0.80195 0.0
O147 O 0.62451 0.50013 0.81551 0.0
C148 C 0.64662 0.55093 0.80785 0.0
O149 O 0.63332 0.55045 0.79483 0.0
O150 O 0.66931 0.49255 0.80459 0.0
C151 C 0.60835 0.50565 0.81011 0.0
O152 O 0.60711 0.5184 0.79609 0.0
C153 C 0.63842 0.49793 0.7647 0.0
O154 O 0.63953 0.48178 0.77431 0.0
O155 O 0.6545 0.53558 0.81313 0.0
C156 C 0.0496 0.77968 0.85838 0.0
O157 O 0.0434 0.79717 0.85974 0.0
O158 O 0.01515 0.7481 0.90351 0.0
Zn159 Zn 0.01793 0.77122 0.88554 0.0
O160 O 0.02079 0.79548 0.90139 0.0
C161 C 0.98491 0.75951 0.86406 0.0
O162 O 0.99019 0.74259 0.86998 0.0
O163 O 0.04104 0.76666 0.86792 0.0
C164 C 0.01512 0.81124 0.89436 0.0
O165 O 0.00759 0.81149 0.87701 0.0
C166 C 0.0294 0.74107 0.91202 0.0
O167 O 0.04574 0.74953 0.90981 0.0
O168 O 0.99461 0.77376 0.86879 0.0
C169 C 0.96384 0.28 0.61792 0.0
O170 O 0.96258 0.28646 0.59993 0.0
O171 O 0.00741 0.25118 0.59254 0.0
Zn172 Zn 0.00343 0.27482 0.60793 0.0
O173 O 0.00325 0.29709 0.58968 0.0
C174 C 0.03979 0.26799 0.62498 0.0
O175 O 0.04197 0.25628 0.61033 0.0
O176 O 0.97958 0.27394 0.6239 0.0
C177 C 0.01679 0.29936 0.57747 0.0
O178 O 0.03081 0.28712 0.57724 0.0
C179 C 0.0026 0.24957 0.57488 0.0
O180 O 0.99305 0.26331 0.56653 0.0
O181 O 0.02464 0.27758 0.62662 0.0
C182 C 0.55038 0.28064 0.3781 0.0
O183 O 0.55072 0.29027 0.39438 0.0
O184 O 0.50858 0.25177 0.40743 0.0
Zn185 Zn 0.5113 0.27549 0.39039 0.0
O186 O 0.51311 0.29904 0.40718 0.0
C187 C 0.47863 0.26419 0.36827 0.0
O188 O 0.4839 0.24721 0.37406 0.0
O189 O 0.53504 0.27294 0.37325 0.0
C190 C 0.51326 0.31515 0.39865 0.0
O191 O 0.51205 0.31583 0.37954 0.0
C192 C 0.52118 0.24649 0.41929 0.0
O193 O 0.53625 0.25697 0.42106 0.0
O194 O 0.48827 0.27839 0.37326 0.0
C195 C 0.45089 0.7666 0.15901 0.0
O196 O 0.44888 0.77226 0.14083 0.0
O197 O 0.48987 0.74337 0.12533 0.0
Zn198 Zn 0.48894 0.76343 0.14586 0.0
O199 O 0.48687 0.78883 0.13287 0.0
C200 C 0.52715 0.77167 0.15431 0.0
O201 O 0.52659 0.77974 0.13696 0.0
O202 O 0.46695 0.76083 0.16441 0.0
C203 C 0.48468 0.79134 0.11467 0.0
O204 O 0.48343 0.77663 0.10324 0.0
C205 C 0.50312 0.73124 0.12405 0.0
O206 O 0.51605 0.73068 0.13746 0.0
O207 O 0.51259 0.76339 0.16117 0.0
C208 C 0.88727 0.07836 0.70751 0.0
O209 O 0.90242 0.08131 0.69658 0.0
O210 O 0.92794 0.04555 0.70258 0.0
Zn211 Zn 0.90603 0.04354 0.7214 0.0
O212 O 0.91627 0.04603 0.74806 0.0
C213 C 0.88776 0.01045 0.70523 0.0
O214 O 0.88894 0.01952 0.68841 0.0
O215 O 0.88617 0.06353 0.71809 0.0
C216 C 0.9256 0.03227 0.75509 0.0
O217 O 0.92811 0.01693 0.74465 0.0
C218 C 0.94028 0.05824 0.70491 0.0
O219 O 0.9377 0.07084 0.71869 0.0
O220 O 0.89415 0.01805 0.72039 0.0
C221 C 0.82711 0.13437 0.51535 0.0
O222 O 0.82467 0.1523 0.51075 0.0
O223 O 0.78126 0.15407 0.5296 0.0
Zn224 Zn 0.78771 0.13411 0.5099 0.0
O225 O 0.78781 0.14447 0.48262 0.0
C226 C 0.76473 0.10773 0.53003 0.0
O227 O 0.77501 0.11355 0.54447 0.0
O228 O 0.81301 0.12343 0.51582 0.0
C229 C 0.7746 0.15523 0.47692 0.0
O230 O 0.76068 0.15951 0.48908 0.0
C231 C 0.783 0.1719 0.52793 0.0
O232 O 0.78996 0.1793 0.51166 0.0
O233 O 0.7681 0.11414 0.51292 0.0
C234 C 0.67607 0.95512 0.30385 0.0
O235 O 0.65832 0.9542 0.30961 0.0
O236 O 0.64737 0.9881 0.26924 0.0
Zn237 Zn 0.66441 0.99174 0.29185 0.0
O238 O 0.64929 0.9945 0.31655 0.0
C239 C 0.68561 0.01832 0.26946 0.0
O240 O 0.68233 0.00602 0.25571 0.0
O241 O 0.68198 0.96994 0.29514 0.0
C242 C 0.64113 0.0098 0.32143 0.0
O243 O 0.64255 0.02473 0.3099 0.0
C244 C 0.63009 0.98373 0.27092 0.0
O245 O 0.62272 0.98027 0.28835 0.0
O246 O 0.6794 0.0151 0.2867 0.0
C247 C 0.73187 0.93051 0.00306 0.0
O248 O 0.73691 0.92641 0.98502 0.0
O249 O 0.76432 0.88857 0.03578 0.0
Zn250 Zn 0.76415 0.90681 0.01277 0.0
O251 O 0.76125 0.89238 0.98756 0.0
C252 C 0.79503 0.9295 0.02659 0.0
O253 O 0.78616 0.92716 0.04348 0.0
O254 O 0.74163 0.92408 0.01702 0.0
C255 C 0.7755 0.886 0.97809 0.0
O256 O 0.79238 0.88859 0.98502 0.0
C257 C 0.77901 0.8807 0.04249 0.0
O258 O 0.7954 0.88393 0.03386 0.0
O259 O 0.78817 0.92224 0.01142 0.0
C260 C 0.30575 0.66957 0.01678 0.0
O261 O 0.3091 0.68559 0.00746 0.0
O262 O 0.27364 0.70749 0.04489 0.0
Zn263 Zn 0.2705 0.68781 0.0246 0.0
O264 O 0.27155 0.69878 0.99761 0.0
C265 C 0.24162 0.6656 0.04347 0.0
O266 O 0.25366 0.66498 0.05776 0.0
O267 O 0.29033 0.66765 0.02631 0.0
C268 C 0.26968 0.68673 0.98418 0.0
O269 O 0.26699 0.66889 0.98904 0.0
C270 C 0.25999 0.71873 0.0484 0.0
O271 O 0.24464 0.71742 0.03814 0.0
O272 O 0.24566 0.67511 0.02813 0.0
C273 C 0.19116 0.46251 0.80023 0.0
O274 O 0.18023 0.46853 0.81462 0.0
O275 O 0.14814 0.46431 0.7543 0.0
Zn276 Zn 0.16071 0.47585 0.77718 0.0
O277 O 0.14375 0.47435 0.80076 0.0
C278 C 0.1717 0.50804 0.75443 0.0
O279 O 0.1741 0.4952 0.74085 0.0
O280 O 0.18555 0.46369 0.78277 0.0
C281 C 0.12667 0.47971 0.80035 0.0
O282 O 0.11975 0.48608 0.78389 0.0
C283 C 0.13598 0.45124 0.75588 0.0
O284 O 0.13222 0.44368 0.77312 0.0
O285 O 0.16564 0.50301 0.77125 0.0
C286 C 0.24739 0.43854 0.50903 0.0
O287 O 0.25635 0.44208 0.49243 0.0
O288 O 0.27734 0.38981 0.53673 0.0
Zn289 Zn 0.27561 0.40834 0.51408 0.0
O290 O 0.27162 0.39428 0.48883 0.0
C291 C 0.30693 0.42985 0.5276 0.0
O292 O 0.29892 0.42579 0.5446 0.0
O293 O 0.25326 0.42529 0.52006 0.0
C294 C 0.27654 0.40158 0.47244 0.0
O295 O 0.28447 0.41832 0.47209 0.0
C296 C 0.26216 0.38314 0.54416 0.0
O297 O 0.24607 0.38767 0.53616 0.0
O298 O 0.29942 0.42392 0.51216 0.0
C299 C 0.35894 0.58868 0.26588 0.0
O300 O 0.36444 0.57779 0.28037 0.0
O301 O 0.3978 0.56518 0.22028 0.0
Zn302 Zn 0.38247 0.56306 0.2451 0.0
O303 O 0.40032 0.56209 0.26729 0.0
C304 C 0.36252 0.5317 0.2292 0.0
O305 O 0.36622 0.54059 0.21263 0.0
O306 O 0.36482 0.58511 0.24864 0.0
C307 C 0.40829 0.54665 0.27214 0.0
O308 O 0.40484 0.53125 0.26232 0.0
C309 C 0.40321 0.58058 0.2123 0.0
O310 O 0.39829 0.59677 0.22022 0.0
O311 O 0.36779 0.5389 0.24507 0.0
Co312 Co 0.01248 0.02796 0.00025 0.0
C313 C 0.00949 0.05207 0.0322 0.0
Co314 Co 0.01686 0.0136 0.02835 0.0
C315 C 3e-05 0.03451 0.96117 0.0
C316 C 0.01526 0.05803 0.97209 0.0
N317 N 0.00904 0.04059 0.97698 0.0
N318 N 0.00035 0.04748 0.94659 0.0
C319 C 0.00987 0.06234 0.9534 0.0
H320 H 0.99324 0.02087 0.96046 0.0
H321 H 0.02332 0.06698 0.98146 0.0
C322 C 0.01983 0.9896 0.99617 0.0
N323 N 0.0206 0.00114 0.05165 0.0
C324 C 0.03132 0.00708 0.0663 0.0
C325 C 0.01445 0.98391 0.05734 0.0
N326 N 0.03236 0.99419 0.08094 0.0
C327 C 0.02167 0.97958 0.07533 0.0
C328 C 0.97959 0.0134 0.01694 0.0
O329 O 0.01699 0.00487 0.98667 0.0
O330 O 0.02042 0.99023 0.0147 0.0
O331 O 0.99063 0.00878 0.03057 0.0
O332 O 0.98621 0.02209 0.00196 0.0
O333 O 0.01337 0.03713 0.04188 0.0
H334 H 0.00565 0.97492 0.04876 0.0
H335 H 0.03829 0.02063 0.06602 0.0
O336 O 0.0079 0.05095 0.01383 0.0
O337 O 0.03876 0.03374 -0.00135 0.0
O338 O 0.04306 0.01846 0.02614 0.0
C339 C 0.04977 0.02811 0.01192 0.0
H340 H 0.01306 0.07522 0.94533 0.0
H341 H 0.01955 0.96646 0.08333 0.0
Co342 Co 0.27287 0.80177 0.32082 0.0
C343 C 0.27045 0.76667 0.30419 0.0
Co344 Co 0.25872 0.80262 0.29249 0.0
C345 C 0.27714 0.81372 0.35953 0.0
C346 C 0.29663 0.79118 0.35377 0.0
N347 N 0.28321 0.80196 0.34537 0.0
N348 N 0.28622 0.811 0.37632 0.0
C349 C 0.29844 0.79668 0.37299 0.0
H350 H 0.26581 0.82387 0.35777 0.0
H351 H 0.30443 0.78 0.3465 0.0
C352 C 0.2614 0.83776 0.30854 0.0
N353 N 0.24776 0.80309 0.26837 0.0
C354 C 0.25464 0.79564 0.25164 0.0
C355 C 0.23174 0.81209 0.26339 0.0
N356 N 0.24365 0.79975 0.23631 0.0
C357 C 0.22915 0.81004 0.2437 0.0
C358 C 0.23385 0.79726 0.32312 0.0
O359 O 0.26948 0.82861 0.32203 0.0
O360 O 0.25547 0.82896 0.29394 0.0
O361 O 0.23484 0.79898 0.30467 0.0
O362 O 0.24882 0.79811 0.33283 0.0
O363 O 0.26221 0.77608 0.29092 0.0
H364 H 0.22277 0.82001 0.27337 0.0
H365 H 0.26756 0.78745 0.25076 0.0
O366 O 0.27617 0.77517 0.3192 0.0
O367 O 0.29697 0.80514 0.30863 0.0
O368 O 0.28262 0.80624 0.28057 0.0
C369 C 0.29775 0.80668 0.2901 0.0
H370 H 0.30804 0.79081 0.38355 0.0
H371 H 0.21779 0.81616 0.2354 0.0
Co372 Co 0.5002 0.02672 0.52154 0.0
C373 C 0.51253 0.06417 0.51706 0.0
Co374 Co 0.52555 0.03332 0.53799 0.0
C375 C 0.46304 0.01386 0.51509 0.0
C376 C 0.47458 0.02716 0.48935 0.0
N377 N 0.47876 0.02206 0.50779 0.0
N378 N 0.44906 0.01378 0.50211 0.0
C379 C 0.45625 0.02214 0.48582 0.0
H380 H 0.46165 0.00885 0.53004 0.0
H381 H 0.48406 0.03454 0.47934 0.0
C382 C 0.51344 0.99575 0.54224 0.0
N383 N 0.54687 0.03772 0.55207 0.0
C384 C 0.5636 0.04444 0.54554 0.0
C385 C 0.54952 0.03308 0.57096 0.0
N386 N 0.5767 0.04399 0.55954 0.0
C387 C 0.56781 0.03693 0.5756 0.0
C388 C 0.49257 0.03947 0.55903 0.0
O389 O 0.5006 0.00102 0.53071 0.0
O390 O 0.52564 0.00773 0.54727 0.0
O391 O 0.51035 0.04064 0.55974 0.0
O392 O 0.48514 0.03365 0.54356 0.0
O393 O 0.52544 0.05883 0.52853 0.0
H394 H 0.53901 0.02665 0.58054 0.0
H395 H 0.56614 0.04923 0.53066 0.0
O396 O 0.49997 0.05238 0.51243 0.0
O397 O 0.51528 0.01988 0.49968 0.0
O398 O 0.54061 0.02611 0.51608 0.0
C399 C 0.5331 0.02081 0.50041 0.0
H400 H 0.44874 0.02472 0.47247 0.0
H401 H 0.57423 0.03396 0.58949 0.0
Co402 Co 0.27668 0.2677 0.76221 0.0
C403 C 0.26122 0.2864 0.73076 0.0
Co404 Co 0.24596 0.27148 0.76556 0.0
C405 C 0.31507 0.26341 0.77359 0.0
C406 C 0.3122 0.25983 0.74283 0.0
N407 N 0.30227 0.26361 0.75937 0.0
N408 N 0.33258 0.25964 0.76662 0.0
C409 C 0.3309 0.25747 0.74724 0.0
H410 H 0.31161 0.2661 0.78878 0.0
H411 H 0.30619 0.25866 0.72852 0.0
C412 C 0.26134 0.25281 0.79705 0.0
N413 N 0.22033 0.27546 0.76807 0.0
C414 C 0.2076 0.27219 0.75426 0.0
C415 C 0.21024 0.28225 0.78339 0.0
N416 N 0.18991 0.27661 0.76025 0.0
C417 C 0.19149 0.28303 0.7786 0.0
C418 C 0.25579 0.23833 0.74744 0.0
O419 O 0.27649 0.25466 0.78696 0.0
O420 O 0.24607 0.25938 0.79035 0.0
O421 O 0.24166 0.24766 0.75381 0.0
O422 O 0.27225 0.24475 0.74954 0.0
O423 O 0.24596 0.28373 0.74044 0.0
H424 H 0.21614 0.28638 0.79712 0.0
H425 H 0.21135 0.26697 0.73988 0.0
O426 O 0.2766 0.2806 0.73785 0.0
O427 O 0.28113 0.29077 0.77478 0.0
O428 O 0.25052 0.29501 0.77759 0.0
C429 C 0.26716 0.30071 0.7805 0.0
H430 H 0.34227 0.25398 0.73708 0.0
H431 H 0.17993 0.28776 0.78794 0.0
Co432 Co 0.02343 0.00399 0.51973 0.0
C433 C 0.0423 0.02389 0.54798 0.0
Co434 Co 0.03912 0.02867 0.50827 0.0
C435 C 0.00681 0.96722 0.5216 0.0
C436 C -0.00036 0.98342 0.54691 0.0
N437 N 0.0099 0.98396 0.5301 0.0
N438 N 0.99482 0.95632 0.53226 0.0
C439 C 0.99038 0.96639 0.54832 0.0
H440 H 0.01307 0.96325 0.50768 0.0
H441 H -0.00151 0.99492 0.55718 0.0
C442 C 0.0197 0.00908 0.48027 0.0
N443 N 0.0523 0.049 0.49802 0.0
C444 C 0.05322 0.06621 0.5061 0.0
C445 C 0.06117 0.05083 0.48047 0.0
N446 N 0.06207 0.07881 0.49429 0.0
C447 C 0.06704 0.06929 0.47804 0.0
C448 C 0.05991 0.99528 0.50858 0.0
O449 O 0.01518 -0.00185 0.49436 0.0
O450 O 0.03015 0.02321 0.48316 0.0
O451 O 0.06031 0.01274 0.5039 0.0
O452 O 0.04487 0.9883 0.51595 0.0
O453 O 0.04774 0.03422 0.53369 0.0
H454 H 0.06258 0.03968 0.46982 0.0
H455 H 0.04648 0.06976 0.51994 0.0
O456 O 0.03171 0.0099 0.54488 0.0
O457 O 0.00207 0.01989 0.52355 0.0
O458 O 0.01794 0.04445 0.51271 0.0
C459 C 0.00277 0.03749 0.51965 0.0
H460 H 0.98061 0.96208 0.55985 0.0
H461 H 0.0739 0.07537 0.46519 0.0
Co462 Co 0.26231 0.77426 0.75531 0.0
C463 C 0.22679 0.75762 0.75734 0.0
Co464 Co 0.26198 0.74509 0.7445 0.0
C465 C 0.27526 0.80805 0.77381 0.0
C466 C 0.24739 0.8112 0.76285 0.0
N467 N 0.26171 0.79868 0.76448 0.0
N468 N 0.26991 0.82591 0.77808 0.0
C469 C 0.25237 0.82792 0.77125 0.0
H470 H 0.28885 0.80198 0.77719 0.0
H471 H 0.23433 0.80851 0.75558 0.0
C472 C 0.29751 0.76207 0.74263 0.0
N473 N 0.26241 0.72084 0.73502 0.0
C474 C 0.25215 0.70596 0.74137 0.0
C475 C 0.27256 0.71439 0.71958 0.0
N476 N 0.25539 0.69044 0.73045 0.0
C477 C 0.26829 0.6957 0.71674 0.0
C478 C 0.25634 0.77213 0.71583 0.0
O479 O 0.28859 0.7762 0.74959 0.0
O480 O 0.28858 0.74688 0.73966 0.0
O481 O 0.25781 0.75446 0.7189 0.0
O482 O 0.2573 0.7834 0.73006 0.0
O483 O 0.23515 0.74349 0.74961 0.0
H484 H 0.28225 0.72282 0.71079 0.0
H485 H 0.2421 0.70671 0.75346 0.0
O486 O 0.23624 0.77227 0.7609 0.0
O487 O 0.26742 0.76502 0.78059 0.0
O488 O 0.26639 0.73584 0.77006 0.0
C489 C 0.26847 0.74734 0.78398 0.0
H490 H 0.24408 0.84084 0.7715 0.0
H491 H 0.27424 0.68673 0.70545 0.0
Co492 Co 0.50963 0.01025 0.01565 0.0
C493 C 0.54558 0.0063 0.03028 0.0
Co494 Co 0.51165 0.01934 0.04615 0.0
C495 C 0.50092 0.01307 0.97516 0.0
C496 C 0.51514 0.98705 0.98177 0.0
N497 N 0.50841 0.00306 0.98996 0.0
N498 N 0.50272 0.004 0.958 0.0
C499 C 0.5116 0.98755 0.96209 0.0
H500 H 0.49409 0.02669 0.977 0.0
H501 H 0.5223 0.97583 0.98957 0.0
C502 C 0.47575 0.02352 0.03095 0.0
N503 N 0.51295 0.02653 0.07186 0.0
C504 C 0.52203 0.01738 0.08626 0.0
C505 C 0.50528 0.04198 0.08033 0.0
N506 N 0.52042 0.0265 0.10342 0.0
C507 C 0.50989 0.04203 0.09975 0.0
C508 C 0.5184 0.04816 0.01977 0.0
O509 O 0.48366 0.01652 0.01584 0.0
O510 O 0.48543 0.02584 0.04614 0.0
O511 O 0.51767 0.04424 0.03789 0.0
O512 O 0.51544 0.0352 0.00755 0.0
O513 O 0.53796 0.01281 0.04582 0.0
H514 H 0.49696 0.05257 0.07284 0.0
H515 H 0.53004 0.00447 0.08403 0.0
O516 O 0.53553 0.00414 0.01539 0.0
O517 O 0.50378 0.98534 0.02395 0.0
O518 O 0.50557 0.99443 0.05432 0.0
C519 C 0.50271 0.98147 0.04207 0.0
H520 H 0.51549 0.97681 0.95159 0.0
H521 H 0.50576 0.05264 0.11031 0.0
Co522 Co 0.26365 0.26848 0.26941 0.0
C523 C 0.30116 0.2801 0.27034 0.0
Co524 Co 0.26929 0.29483 0.25294 0.0
C525 C 0.24337 0.24116 0.29295 0.0
C526 C 0.27163 0.23206 0.28659 0.0
N527 N 0.25946 0.24652 0.2837 0.0
N528 N 0.24497 0.22393 0.3014 0.0
C529 C 0.26277 0.21817 0.29753 0.0
H530 H 0.23057 0.24957 0.29322 0.0
H531 H 0.28585 0.23137 0.28064 0.0
C532 C 0.23171 0.28292 0.25207 0.0
N533 N 0.27338 0.31667 0.23852 0.0
C534 C 0.28293 0.33225 0.24349 0.0
C535 C 0.26698 0.32045 0.2205 0.0
N536 N 0.28275 0.34566 0.22927 0.0
C537 C 0.27271 0.33823 0.21478 0.0
C538 C 0.2731 0.2623 0.23057 0.0
O539 O 0.23782 0.26971 0.26296 0.0
O540 O 0.2431 0.29567 0.24612 0.0
O541 O 0.27473 0.28019 0.23036 0.0
O542 O 0.26848 0.25396 0.24649 0.0
O543 O 0.29543 0.29389 0.25988 0.0
H544 H 0.25853 0.31093 0.21214 0.0
H545 H 0.28997 0.33363 0.25725 0.0
O546 O 0.28951 0.26741 0.27566 0.0
O547 O 0.25879 0.28308 0.29226 0.0
O548 O 0.26389 0.3093 0.27563 0.0
C549 C 0.2599 0.30104 0.29177 0.0
H550 H 0.26864 0.2045 0.30144 0.0
H551 H 0.26938 0.34525 0.20116 0.0
Co552 Co 0.47802 0.51261 -0.00123 0.0
C553 C 0.48061 0.53952 0.02736 0.0
Co554 Co 0.48817 0.54007 0.98736 0.0
C555 C 0.47903 0.47279 0.00472 0.0
C556 C 0.4553 0.48496 0.01985 0.0
N557 N 0.4703 0.48938 0.00828 0.0
N558 N 0.47019 0.45813 0.01357 0.0
C559 C 0.45512 0.46564 0.02302 0.0
H560 H 0.49143 0.47143 0.99533 0.0
H561 H 0.44513 0.49509 0.02551 0.0
C562 C 0.48554 0.51292 0.95894 0.0
N563 N 0.49594 0.56339 0.97783 0.0
C564 C 0.50529 0.5766 0.98773 0.0
C565 C 0.49129 0.57196 0.96091 0.0
N566 N 0.50625 0.59326 0.97797 0.0
C567 C 0.49752 0.59038 0.96099 0.0
C568 C 0.51709 0.51661 -0.00154 0.0
O569 O 0.47967 0.50267 0.97312 0.0
O570 O 0.49006 0.52997 0.96199 0.0
O571 O 0.51353 0.53299 0.99162 0.0
O572 O 0.50353 0.50556 0.00271 0.0
O573 O 0.486 0.54998 0.01314 0.0
H574 H 0.48288 0.56563 0.94978 0.0
H575 H 0.50995 0.57451 0.00253 0.0
O576 O 0.47653 0.52239 0.02423 0.0
O577 O 0.45256 0.52 0.99481 0.0
O578 O 0.463 0.54705 0.98304 0.0
C579 C 0.44931 0.53627 0.9875 0.0
H580 H 0.44478 0.45776 0.03158 0.0
H581 H 0.49489 0.60108 0.94994 0.0
Co582 Co 0.76635 0.28443 0.27125 0.0
C583 C 0.72975 0.27097 0.2762 0.0
Co584 Co 0.76126 0.25809 0.25552 0.0
C585 C 0.7807 0.32111 0.279 0.0
C586 C 0.76463 0.31028 0.30338 0.0
N587 N 0.77036 0.30618 0.285 0.0
N588 N 0.78189 0.33434 0.29294 0.0
C589 C 0.77169 0.32763 0.30831 0.0
H590 H 0.78733 0.32213 0.26465 0.0
H591 H 0.75624 0.30104 0.31273 0.0
C592 C 0.79797 0.27168 0.25079 0.0
N593 N 0.75751 0.23632 0.24168 0.0
C594 C 0.75046 0.21979 0.24838 0.0
C595 C 0.76256 0.23312 0.22291 0.0
N596 N 0.75107 0.20626 0.23462 0.0
C597 C 0.75861 0.21466 0.21852 0.0
C598 C 0.75386 0.29067 0.23397 0.0
O599 O 0.79187 0.28461 0.26204 0.0
O600 O 0.78683 0.25861 0.24603 0.0
O601 O 0.75367 0.27272 0.23371 0.0
O602 O 0.75917 0.29898 0.24922 0.0
O603 O 0.73561 0.25767 0.26518 0.0
H604 H 0.76921 0.2434 0.21323 0.0
H605 H 0.7452 0.21774 0.26319 0.0
O606 O 0.741 0.28414 0.28038 0.0
O607 O 0.77338 0.26991 0.29322 0.0
O608 O 0.76883 0.24356 0.27752 0.0
C609 C 0.77342 0.25196 0.29298 0.0
H610 H 0.76996 0.33445 0.32231 0.0
H611 H 0.76173 0.20781 0.20476 0.0
Co612 Co 0.0306 0.52631 0.51606 0.0
C613 C 0.0639 0.51879 0.53521 0.0
Co614 Co 0.02703 0.52458 0.54807 0.0
C615 C 0.02429 0.53926 0.47669 0.0
C616 C 0.04702 0.51931 0.47815 0.0
N617 N 0.03412 0.5285 0.48931 0.0
N618 N 0.03043 0.5371 0.45802 0.0
C619 C 0.04485 0.5246 0.45898 0.0
H620 H 0.01248 0.54807 0.48113 0.0
H621 H 0.05721 0.5092 0.48355 0.0
C622 C 0.99373 0.53225 0.52876 0.0
N623 N 0.02368 0.52204 0.57472 0.0
C624 C 0.03089 0.50806 0.58586 0.0
C625 C 0.01355 0.53292 0.5872 0.0
N626 N 0.02572 0.50967 0.60482 0.0
C627 C 0.01485 0.52538 0.60577 0.0
C628 C 0.03491 0.56049 0.53522 0.0
O629 O 0.00441 0.53112 0.51368 0.0
O630 O 0.00076 0.52972 0.5455 0.0
O631 O 0.03154 0.55077 0.55058 0.0
O632 O 0.035 0.55251 0.51867 0.0
O633 O 0.05344 0.51943 0.55049 0.0
H634 H 0.00574 0.54547 0.58304 0.0
H635 H 0.0401 0.49708 0.58014 0.0
O636 O 0.0566 0.52161 0.51871 0.0
O637 O 0.02636 0.49997 0.51357 0.0
O638 O 0.02262 0.49848 0.54538 0.0
C639 C 0.02323 0.49027 0.529 0.0
H640 H 0.05321 0.51941 0.44676 0.0
H641 H 0.00823 0.53097 0.6189 0.0
Co642 Co 0.78877 0.75822 0.25615 0.0
C643 C 0.77226 0.77433 0.22361 0.0
Co644 Co 0.75842 0.75237 0.25463 0.0
C645 C 0.82442 0.76332 0.27368 0.0
C646 C 0.82721 0.76272 0.24255 0.0
N647 N 0.81432 0.76262 0.25731 0.0
N648 N 0.84313 0.76323 0.26986 0.0
C649 C 0.84497 0.76311 0.25023 0.0
H650 H 0.81814 0.763 0.28822 0.0
H651 H 0.82395 0.76137 0.22728 0.0
C652 C 0.77498 0.73645 0.28738 0.0
N653 N 0.73304 0.74729 0.25371 0.0
C654 C 0.71886 0.75832 0.24724 0.0
C655 C 0.72477 0.73101 0.25959 0.0
N656 N 0.70207 0.74956 0.249 0.0
C657 C 0.70575 0.73238 0.25678 0.0
C658 C 0.78047 0.7258 0.23592 0.0
O659 O 0.78984 0.74348 0.27976 0.0
O660 O 0.75955 0.73872 0.27866 0.0
O661 O 0.76361 0.72999 0.2407 0.0
O662 O 0.7938 0.73631 0.24121 0.0
O663 O 0.75747 0.76634 0.23047 0.0
H664 H 0.73215 0.71878 0.26532 0.0
H665 H 0.72082 0.77248 0.24138 0.0
O666 O 0.78751 0.77273 0.23285 0.0
O667 O 0.78357 0.78025 0.27094 0.0
O668 O 0.75331 0.77465 0.26865 0.0
C669 C 0.76656 0.78486 0.27477 0.0
H670 H 0.85815 0.76202 0.24206 0.0
H671 H 0.6955 0.72137 0.25963 0.0
Co672 Co 0.78385 0.27526 0.78304 0.0
C673 C 0.78297 0.24131 0.7643 0.0
Co674 Co 0.76683 0.27674 0.75651 0.0
C675 C 0.79093 0.28471 0.82208 0.0
C676 C 0.81359 0.26759 0.81101 0.0
N677 N 0.79684 0.2752 0.80614 0.0
N678 N 0.80335 0.28377 0.83662 0.0
C679 C 0.81762 0.27281 0.82987 0.0
H680 H 0.77775 0.29247 0.82291 0.0
H681 H 0.82248 0.25925 0.80133 0.0
C682 C 0.76796 0.31076 0.77508 0.0
N683 N 0.75346 0.2773 0.73368 0.0
C684 C 0.75751 0.26742 0.71739 0.0
C685 C 0.73807 0.28771 0.72932 0.0
N686 N 0.74532 0.27123 0.70307 0.0
C687 C 0.7331 0.28409 0.71039 0.0
C688 C 0.74573 0.2672 0.78902 0.0
O689 O 0.77831 0.30139 0.78657 0.0
O690 O 0.76125 0.3026 0.76043 0.0
O691 O 0.74481 0.27007 0.77074 0.0
O692 O 0.76149 0.26871 0.79725 0.0
O693 O 0.77261 0.25075 0.75279 0.0
H694 H 0.73094 0.29733 0.73924 0.0
H695 H 0.76938 0.25781 0.71592 0.0
O696 O 0.78941 0.24931 0.77926 0.0
O697 O 0.80604 0.28169 0.7686 0.0
O698 O 0.78895 0.2834 0.74231 0.0
C699 C 0.80486 0.28462 0.75031 0.0
H700 H 0.83032 0.26945 0.83767 0.0
H701 H 0.72129 0.29015 0.70273 0.0
Co702 Co 0.76898 0.75936 0.76975 0.0
C703 C 0.80618 0.77255 0.76953 0.0
Co704 Co 0.77318 0.78647 0.75411 0.0
C705 C 0.75102 0.73003 0.79311 0.0
C706 C 0.77962 0.72312 0.78547 0.0
N707 N 0.7664 0.73679 0.7835 0.0
N708 N 0.75414 0.71274 0.80097 0.0
C709 C 0.77215 0.70838 0.79626 0.0
H710 H 0.73768 0.7375 0.79408 0.0
H711 H 0.79363 0.72355 0.77898 0.0
C712 C 0.73595 0.77317 0.75446 0.0
N713 N 0.77577 0.80874 0.73993 0.0
C714 C 0.78752 0.82334 0.74268 0.0
C715 C 0.76666 0.81314 0.72342 0.0
N716 N 0.78616 0.83664 0.72843 0.0
C717 C 0.77295 0.83026 0.71636 0.0
C718 C 0.77732 0.75472 0.73048 0.0
O719 O 0.74281 0.75954 0.76428 0.0
O720 O 0.74675 0.78652 0.74885 0.0
O721 O 0.77804 0.77266 0.73086 0.0
O722 O 0.77371 0.74567 0.74625 0.0
O723 O 0.7996 0.78629 0.75961 0.0
H724 H 0.75633 0.80428 0.71669 0.0
H725 H 0.79728 0.82388 0.75456 0.0
O726 O 0.79516 0.75937 0.77506 0.0
O727 O 0.76424 0.7732 0.79317 0.0
O728 O 0.7684 0.80014 0.77744 0.0
C729 C 0.76492 0.7912 0.79334 0.0
H730 H 0.77912 0.69507 0.79952 0.0
H731 H 0.76818 0.83739 0.70329 0.0
Co732 Co 0.52254 0.53119 0.50316 0.0
C733 C 0.52012 0.55598 0.53454 0.0
Co734 Co 0.52623 0.51726 0.53167 0.0
C735 C 0.51008 0.53765 0.46398 0.0
C736 C 0.52737 0.56011 0.47395 0.0
N737 N 0.51983 0.54338 0.47948 0.0
N738 N 0.51119 0.55018 0.44899 0.0
C739 C 0.52205 0.56435 0.45523 0.0
H740 H 0.5021 0.52466 0.46385 0.0
H741 H 0.53622 0.56864 0.48297 0.0
C742 C 0.52842 0.49256 0.50009 0.0
N743 N 0.52913 0.50516 0.55538 0.0
C744 C 0.54066 0.51015 0.56978 0.0
C745 C 0.52085 0.48907 0.56178 0.0
N746 N 0.54004 0.49777 0.58491 0.0
C747 C 0.52755 0.48447 0.57994 0.0
C748 C 0.48906 0.51818 0.5198 0.0
O749 O 0.52632 0.50775 0.49025 0.0
O750 O 0.52891 0.49348 0.51861 0.0
O751 O 0.49983 0.51356 0.53365 0.0
O752 O 0.49607 0.52631 0.50468 0.0
O753 O 0.52352 0.54113 0.54457 0.0
H754 H 0.51077 0.48109 0.55366 0.0
H755 H 0.54974 0.52238 0.56888 0.0
O756 O 0.51866 0.55459 0.51617 0.0
O757 O 0.54901 0.53591 0.50177 0.0
O758 O 0.55264 0.52102 0.52961 0.0
C759 C 0.55975 0.53011 0.5152 0.0
H760 H 0.52607 0.57678 0.44679 0.0
H761 H 0.52352 0.47231 0.58877 0.0
Co762 Co 0.00625 0.52014 0.01089 0.0
C763 C 0.02165 0.55594 0.00422 0.0
Co764 Co 0.03491 0.52308 0.02213 0.0
C765 C 0.96721 0.51065 0.01054 0.0
C766 C 0.97623 0.52355 0.98354 0.0
N767 N 0.98239 0.51802 0.00119 0.0
N768 N 0.95173 0.51132 -0.00053 0.0
C769 C 0.95736 0.51946 0.98244 0.0
H770 H 0.96753 0.50515 0.02533 0.0
H771 H 0.98491 0.53012 0.97223 0.0
C772 C 0.01928 0.48721 0.02859 0.0
N773 N 0.05878 0.52517 0.03232 0.0
C774 C 0.07246 0.53758 0.02735 0.0
C775 C 0.06548 0.51558 0.04786 0.0
N776 N 0.08733 0.53626 0.03927 0.0
C777 C 0.083 0.52228 0.0521 0.0
C778 C 0.00678 0.53247 0.04891 0.0
O779 O 0.00534 0.49435 0.01974 0.0
O780 O 0.03366 0.49741 0.03114 0.0
O781 O 0.02448 0.53137 0.04618 0.0
O782 O 0.99595 0.52811 0.03519 0.0
O783 O 0.03573 0.54878 0.01285 0.0
H784 H 0.05787 0.50485 0.05611 0.0
H785 H 0.07115 0.54801 0.01577 0.0
O786 O 0.00715 0.54581 0.00202 0.0
O787 O 0.01675 0.5122 0.98678 0.0
O788 O 0.04534 0.51478 -0.002 0.0
C789 C 0.03446 0.51074 0.98416 0.0
H790 H 0.94859 0.52203 0.96996 0.0
H791 H 0.09163 0.51746 0.064 0.0
C792 C 0.02091 0.20683 0.11315 0.0
C793 C 0.01063 0.22141 0.10401 0.0
C794 C 0.02091 0.1884 0.10577 0.0
C795 C 0.01288 0.16128 0.06107 0.0
H796 H 0.00431 0.11887 0.09648 0.0
C797 C 0.00052 0.08643 0.03159 0.0
C798 C 0.00805 0.07083 0.04174 0.0
C799 C 0.00051 0.1045 0.03971 0.0
C800 C 0.007 0.13047 0.08637 0.0
H801 H 0.99259 0.22803 0.0797 0.0
H802 H 0.99285 0.196 0.0667 0.0
H803 H 0.00574 0.15089 0.10933 0.0
H804 H 0.02127 0.062 0.06858 0.0
H805 H 0.02172 0.09362 0.08259 0.0
H806 H 0.01457 0.14103 0.03815 0.0
C807 C 0.00087 0.19881 0.0796 0.0
C808 C 0.00777 0.14887 0.09377 0.0
C809 C 0.00067 0.21717 0.08711 0.0
C810 C 0.01523 0.07369 0.06043 0.0
C811 C 0.01543 0.09186 0.06848 0.0
C812 C 0.01233 0.1429 0.0537 0.0
C813 C 0.01085 0.18415 0.08894 0.0
C814 C 0.01058 0.16451 0.08119 0.0
C815 C 0.00827 0.1076 0.05813 0.0
C816 C 0.0092 0.1272 0.06619 0.0
H817 H 0.0287 0.20956 0.12622 0.0
H818 H 0.02888 0.17748 0.1132 0.0
H819 H 0.01536 0.17298 0.05101 0.0
H820 H 0.99474 0.08472 0.01721 0.0
H821 H 0.99441 0.11607 0.03144 0.0
C822 C 0.09333 0.7517 0.41789 0.0
C823 C 0.07613 0.75864 0.4109 0.0
C824 C 0.11029 0.75673 0.40856 0.0
C825 C 0.13035 0.7709 0.3616 0.0
H826 H 0.17134 0.79117 0.39123 0.0
C827 C 0.19863 0.79742 0.3237 0.0
C828 C 0.21562 0.79391 0.33322 0.0
C829 C 0.1814 0.79397 0.33328 0.0
C830 C 0.16016 0.78527 0.38276 0.0
H831 H 0.06314 0.77613 0.38864 0.0
H832 H 0.09282 0.78456 0.37211 0.0
H833 H 0.14175 0.78297 0.40789 0.0
H834 H 0.22798 0.78392 0.36014 0.0
H835 H 0.19805 0.77721 0.37657 0.0
H836 H 0.1488 0.77249 0.33659 0.0
C837 C 0.09312 0.77537 0.38487 0.0
C838 C 0.14321 0.78068 0.39231 0.0
C839 C 0.07619 0.77062 0.39438 0.0
C840 C 0.21509 0.78689 0.35248 0.0
C841 C 0.1979 0.78317 0.36195 0.0
C842 C 0.1474 0.7752 0.35208 0.0
C843 C 0.11029 0.7685 0.39192 0.0
C844 C 0.12818 0.77347 0.3818 0.0
C845 C 0.18082 0.78667 0.35249 0.0
C846 C 0.16254 0.78244 0.36254 0.0
H847 H 0.09371 0.74249 0.43062 0.0
H848 H 0.12339 0.75118 0.41417 0.0
H849 H 0.11898 0.76518 0.35324 0.0
H850 H 0.19863 0.80297 0.30889 0.0
H851 H 0.16855 0.79717 0.32565 0.0
C852 C 0.5438 0.8406 0.61634 0.0
C853 C 0.52963 0.8268 0.61614 0.0
C854 C 0.54142 0.85804 0.60686 0.0
C855 C 0.50483 0.89067 0.58782 0.0
H856 H 0.54801 0.91498 0.56292 0.0
C857 C 0.50011 0.96288 0.54598 0.0
C858 C 0.51446 0.97592 0.54967 0.0
C859 C 0.5013 0.94419 0.553 0.0
C860 C 0.53583 0.90845 0.56992 0.0
H861 H 0.50184 0.82057 0.60551 0.0
H862 H 0.49778 0.85099 0.58866 0.0
H863 H 0.55128 0.88319 0.57652 0.0
H864 H 0.54127 0.97946 0.56372 0.0
H865 H 0.54333 0.94702 0.57585 0.0
H866 H 0.48942 0.91607 0.58113 0.0
C867 C 0.51067 0.84837 0.59642 0.0
C868 C 0.5377 0.8902 0.57777 0.0
C869 C 0.51305 0.83086 0.60598 0.0
C870 C 0.52997 0.96982 0.56054 0.0
C871 C 0.53123 0.95115 0.56741 0.0
C872 C 0.50294 0.90894 0.57985 0.0
C873 C 0.52482 0.86223 0.59679 0.0
C874 C 0.52233 0.88114 0.58713 0.0
C875 C 0.51694 0.93807 0.5637 0.0
C876 C 0.5185 0.91818 0.57108 0.0
H877 H 0.55672 0.83807 0.62408 0.0
H878 H 0.5525 0.86841 0.60781 0.0
H879 H 0.49272 0.88427 0.59507 0.0
H880 H 0.48794 0.96711 0.53768 0.0
H881 H 0.49011 0.93445 0.54979 0.0
C882 C 0.46271 0.23795 0.87757 0.0
C883 C 0.47979 0.24651 0.87184 0.0
C884 C 0.44716 0.23902 0.86554 0.0
C885 C 0.43281 0.24635 0.8151 0.0
H886 H 0.38526 0.26218 0.83888 0.0
C887 C 0.36694 0.26312 0.76971 0.0
C888 C 0.3494 0.25774 0.77777 0.0
C889 C 0.38319 0.26164 0.78077 0.0
C890 C 0.39835 0.25747 0.83204 0.0
H891 H 0.49412 0.26245 0.84875 0.0
H892 H 0.46687 0.26413 0.82759 0.0
H893 H 0.41309 0.2593 0.85884 0.0
H894 H 0.33515 0.24596 0.80337 0.0
H895 H 0.36347 0.24296 0.82254 0.0
H896 H 0.41802 0.24417 0.78835 0.0
C897 C 0.46559 0.25666 0.84144 0.0
C898 C 0.41428 0.25589 0.84348 0.0
C899 C 0.48113 0.25576 0.85359 0.0
C900 C 0.34844 0.25055 0.79694 0.0
C901 C 0.36467 0.24888 0.80792 0.0
C902 C 0.4168 0.24775 0.80366 0.0
C903 C 0.44841 0.2485 0.84744 0.0
C904 C 0.43163 0.25026 0.83514 0.0
C905 C 0.38222 0.25456 0.80004 0.0
C906 C 0.39936 0.25327 0.81203 0.0
H907 H 0.46123 0.23069 0.89153 0.0
H908 H 0.43411 0.23243 0.87039 0.0
H909 H 0.44602 0.24185 0.80837 0.0
H910 H 0.368 0.26887 0.75502 0.0
H911 H 0.39643 0.26638 0.77434 0.0
C912 C 0.97785 0.7942 0.48306 0.0
C913 C 0.98608 0.79514 0.46423 0.0
C914 C 0.97207 0.81074 0.49252 0.0
C915 C 0.96093 0.86119 0.48469 0.0
H916 H 0.98716 0.86921 0.53292 0.0
C917 C 0.98619 0.93358 0.50706 0.0
C918 C 0.98749 0.93825 0.52685 0.0
C919 C 0.98012 0.91575 0.50166 0.0
C920 C 0.97927 0.86712 0.51978 0.0
H921 H 0.99376 0.81385 0.44008 0.0
H922 H 0.98349 0.84264 0.45649 0.0
H923 H 0.98653 0.8377 0.51895 0.0
H924 H 0.9827 0.92814 0.55652 0.0
H925 H 0.97185 0.89684 0.54706 0.0
H926 H 0.95425 0.89073 0.48508 0.0
C927 C 0.98153 0.82918 0.46396 0.0
C928 C 0.97894 0.84906 0.51177 0.0
C929 C 0.98758 0.81273 0.45465 0.0
C930 C 0.98185 0.92492 0.54116 0.0
C931 C 0.97574 0.907 0.53574 0.0
C932 C 0.9611 0.87921 0.49278 0.0
C933 C 0.9741 0.82838 0.48312 0.0
C934 C 0.97049 0.84615 0.49373 0.0
C935 C 0.97509 0.90214 0.51592 0.0
C936 C 0.97105 0.88253 0.50991 0.0
H937 H 0.97654 0.78079 0.49077 0.0
H938 H 0.96639 0.8098 0.50731 0.0
H939 H 0.9541 0.8592 0.47088 0.0
H940 H 0.99004 0.94365 0.49567 0.0
H941 H 0.98008 0.91242 0.48627 0.0
C942 C 0.45948 0.79637 0.6868 0.0
C943 C 0.46955 0.78106 0.67866 0.0
C944 C 0.44144 0.79378 0.69505 0.0
C945 C 0.40062 0.76185 0.69338 0.0
H946 H 0.38468 0.78718 0.74094 0.0
C947 C 0.32774 0.74789 0.72966 0.0
C948 C 0.31781 0.76355 0.73723 0.0
C949 C 0.34662 0.74954 0.72362 0.0
C950 C 0.38883 0.78015 0.72754 0.0
H951 H 0.46864 0.7509 0.67319 0.0
H952 H 0.43725 0.74639 0.68762 0.0
H953 H 0.41691 0.79099 0.72844 0.0
H954 H 0.32009 0.79321 0.74462 0.0
H955 H 0.35289 0.79615 0.73382 0.0
H956 H 0.37253 0.75124 0.69225 0.0
C957 C 0.44322 0.76046 0.68744 0.0
C958 C 0.40733 0.78232 0.72039 0.0
C959 C 0.46128 0.76303 0.67927 0.0
C960 C 0.32732 0.78083 0.73891 0.0
C961 C 0.34619 0.78249 0.73281 0.0
C962 C 0.38211 0.75974 0.70048 0.0
C963 C 0.433 0.77582 0.69528 0.0
C964 C 0.41345 0.77323 0.7032 0.0
C965 C 0.35606 0.76691 0.72492 0.0
C966 C 0.37594 0.76888 0.71764 0.0
H967 H 0.4654 0.81045 0.68658 0.0
H968 H 0.43391 0.80595 0.70079 0.0
H969 H 0.40475 0.7549 0.67993 0.0
H970 H 0.32088 0.73435 0.72823 0.0
H971 H 0.35383 0.73715 0.71794 0.0
C972 C 0.52778 0.19871 0.93607 0.0
C973 C 0.53245 0.21518 0.94611 0.0
C974 C 0.52601 0.18151 0.946 0.0
C975 C 0.54007 0.1558 0.99004 0.0
H976 H 0.49928 0.12278 0.97585 0.0
C977 C 0.51989 0.07222 0.99296 0.0
C978 C 0.52144 0.06775 0.01289 0.0
C979 C 0.5212 0.09091 0.98648 0.0
C980 C 0.51078 0.13183 0.9799 0.0
H981 H 0.5391 0.22654 0.97442 0.0
H982 H 0.53589 0.19628 0.99187 0.0
H983 H 0.50109 0.15453 0.96181 0.0
H984 H 0.52621 0.07926 0.0416 0.0
H985 H 0.52866 0.11209 0.03012 0.0
H986 H 0.54978 0.13287 0.00804 0.0
C987 C 0.53372 0.19677 0.97627 0.0
C988 C 0.51182 0.14998 0.97187 0.0
C989 C 0.53548 0.21407 0.9663 0.0
C990 C 0.52493 0.0823 0.02615 0.0
C991 C 0.52638 0.10104 0.01961 0.0
C992 C 0.53897 0.1376 -0.00184 0.0
C993 C 0.52883 0.18037 0.9662 0.0
C994 C 0.52673 0.16197 0.97647 0.0
C995 C 0.52418 0.10551 -0.00023 0.0
C996 C 0.52456 0.12533 0.99277 0.0
H997 H 0.52543 0.19905 0.9205 0.0
H998 H 0.52259 0.16904 0.93778 0.0
H999 H 0.55176 0.16474 0.99376 0.0
H1000 H 0.51725 0.06134 0.98236 0.0
H1001 H 0.51978 0.09396 0.97105 0.0
C1002 C 0.07208 0.25269 0.19385 0.0
C1003 C 0.06548 0.26546 0.17964 0.0
C1004 C 0.08954 0.2554 0.20248 0.0
C1005 C 0.12655 0.29143 0.21051 0.0
H1006 H 0.15797 0.24726 0.21956 0.0
C1007 C 0.20529 0.29603 0.23188 0.0
C1008 C 0.21191 0.28262 0.24546 0.0
C1009 C 0.18705 0.29472 0.2246 0.0
C1010 C 0.1493 0.25974 0.21738 0.0
H1011 H 0.07207 0.29128 0.16356 0.0
H1012 H 0.10258 0.29587 0.17841 0.0
H1013 H 0.12707 0.24349 0.20553 0.0
H1014 H 0.20425 0.25761 0.26245 0.0
H1015 H 0.17254 0.25547 0.24994 0.0
H1016 H 0.14897 0.30768 0.22222 0.0
C1017 C 0.09416 0.28386 0.1831 0.0
C1018 C 0.13153 0.25757 0.20932 0.0
C1019 C 0.07667 0.28117 0.17449 0.0
C1020 C 0.19969 0.26816 0.25194 0.0
C1021 C 0.18151 0.26684 0.24465 0.0
C1022 C 0.14439 0.2936 0.21854 0.0
C1023 C 0.10091 0.27093 0.19711 0.0
C1024 C 0.11986 0.27337 0.2058 0.0
C1025 C 0.17501 0.27993 0.23068 0.0
C1026 C 0.15598 0.27777 0.22214 0.0
H1027 H 0.06382 0.24049 0.19828 0.0
H1028 H 0.09408 0.24531 0.21345 0.0
H1029 H 0.11789 0.3039 0.20825 0.0
H1030 H 0.21434 0.30732 0.22653 0.0
H1031 H 0.18258 0.30497 0.21375 0.0
C1032 C 0.11588 0.02593 0.2312 0.0
C1033 C 0.11299 0.01162 0.2453 0.0
C1034 C 0.10932 0.02377 0.21228 0.0
C1035 C 0.09093 0.98772 0.17843 0.0
H1036 H 0.06812 0.03145 0.15344 0.0
C1037 C 0.03947 0.98348 0.11457 0.0
C1038 C 0.04305 0.99566 0.09853 0.0
C1039 C 0.04967 0.98511 0.13164 0.0
C1040 C 0.07462 0.01918 0.1602 0.0
H1041 H 0.10108 0.98382 0.25071 0.0
H1042 H 0.08909 0.98033 0.21808 0.0
H1043 H 0.08315 0.035 0.18481 0.0
H1044 H 0.06078 0.01879 0.08798 0.0
H1045 H 0.07795 0.02194 0.11798 0.0
H1046 H 0.08159 0.97182 0.15406 0.0
C1047 C 0.09687 0.993 0.22133 0.0
C1048 C 0.08332 0.0212 0.1781 0.0
C1049 C 0.10363 0.99505 0.24012 0.0
C1050 C 0.05721 0.0094 0.10003 0.0
C1051 C 0.0672 0.01118 0.1172 0.0
C1052 C 0.08198 0.98566 0.16066 0.0
C1053 C 0.09954 0.00736 0.2072 0.0
C1054 C 0.09143 0.00546 0.18753 0.0
C1055 C 0.06348 -0.00092 0.13314 0.0
C1056 C 0.07364 0.00135 0.1515 0.0
H1057 H 0.12318 0.0388 0.23478 0.0
H1058 H 0.1119 0.03498 0.20167 0.0
H1059 H 0.09737 0.97537 0.18507 0.0
H1060 H 0.0286 0.97288 0.11414 0.0
H1061 H 0.04645 0.97573 0.14387 0.0
C1062 C 0.23018 0.89214 0.52311 0.0
C1063 C 0.23021 0.91193 0.5206 0.0
C1064 C 0.23456 0.88032 0.5074 0.0
C1065 C 0.2623 0.8828 0.46166 0.0
H1066 H 0.24286 0.83257 0.4527 0.0
C1067 C 0.27946 0.84121 0.39225 0.0
C1068 C 0.28289 0.82168 0.39377 0.0
C1069 C 0.27369 0.8515 0.40854 0.0
C1070 C 0.24859 0.84647 0.45525 0.0
H1071 H 0.23251 0.9347 0.49923 0.0
H1072 H 0.23954 0.91408 0.47173 0.0
H1073 H 0.22867 0.85209 0.4785 0.0
H1074 H 0.28353 0.79759 0.41349 0.0
H1075 H 0.2733 0.81573 0.44238 0.0
H1076 H 0.28209 0.8773 0.43839 0.0
C1077 C 0.2369 0.90772 0.48598 0.0
C1078 C 0.24041 0.85768 0.46992 0.0
C1079 C 0.23268 0.91954 0.5017 0.0
C1080 C 0.2811 0.81268 0.41207 0.0
C1081 C 0.27507 0.82299 0.42846 0.0
C1082 C 0.27041 0.87165 0.44702 0.0
C1083 C 0.23883 0.88807 0.48886 0.0
C1084 C 0.24705 0.87606 0.47313 0.0
C1085 C 0.27109 0.84247 0.42674 0.0
C1086 C 0.26353 0.85346 0.44351 0.0
H1087 H 0.22825 0.88578 0.53747 0.0
H1088 H 0.23587 0.86525 0.51011 0.0
H1089 H 0.26816 0.89665 0.46411 0.0
H1090 H 0.28083 0.84844 0.37827 0.0
H1091 H 0.27058 0.86644 0.4067 0.0
C1092 C 0.40925 0.06877 0.71473 0.0
C1093 C 0.39531 0.05507 0.71829 0.0
C1094 C 0.41919 0.06928 0.69692 0.0
C1095 C 0.41714 0.05647 0.64578 0.0
H1096 H 0.47153 0.05201 0.64762 0.0
C1097 C 0.46228 0.03708 0.57804 0.0
C1098 C 0.48069 0.04411 0.57625 0.0
C1099 C 0.45142 0.0404 0.5949 0.0
C1100 C 0.45641 0.05368 0.64675 0.0
H1101 H 0.3804 0.03155 0.70587 0.0
H1102 H 0.39754 0.03275 0.67451 0.0
H1103 H 0.45312 0.05466 0.67789 0.0
H1104 H 0.50192 0.06078 0.59025 0.0
H1105 H 0.48271 0.0673 0.61934 0.0
H1106 H 0.42029 0.05586 0.61471 0.0
C1107 C 0.40083 0.04295 0.68559 0.0
C1108 C 0.44589 0.05509 0.66413 0.0
C1109 C 0.39113 0.04221 0.70353 0.0
C1110 C 0.48783 0.05504 0.59135 0.0
C1111 C 0.47684 0.05865 0.60807 0.0
C1112 C 0.42767 0.05541 0.62836 0.0
C1113 C 0.41508 0.05634 0.68225 0.0
C1114 C 0.42617 0.05622 0.66378 0.0
C1115 C 0.45861 0.05111 0.61021 0.0
C1116 C 0.44744 0.05369 0.62863 0.0
H1117 H 0.41279 0.07883 0.72587 0.0
H1118 H 0.43011 0.07975 0.6946 0.0
H1119 H 0.40193 0.05751 0.64521 0.0
H1120 H 0.45646 0.02849 0.56667 0.0
H1121 H 0.43761 0.03405 0.59612 0.0
C1122 C 0.27261 0.17279 0.95762 0.0
C1123 C 0.25523 0.17207 0.96786 0.0
C1124 C 0.27402 0.18161 0.93922 0.0
C1125 C 0.24486 0.19556 0.89736 0.0
H1126 H 0.28713 0.2275 0.8826 0.0
C1127 C 0.24459 0.24172 0.8276 0.0
C1128 C 0.26138 0.24327 0.81646 0.0
C1129 C 0.24446 0.23284 0.84593 0.0
C1130 C 0.27535 0.21843 0.8864 0.0
H1131 H 0.22581 0.18046 0.96694 0.0
H1132 H 0.22831 0.19589 0.93505 0.0
H1133 H 0.28584 0.21264 0.91498 0.0
H1134 H 0.29128 0.2367 0.81591 0.0
H1135 H 0.29101 0.22097 0.84788 0.0
H1136 H 0.23436 0.20126 0.86887 0.0
C1137 C 0.2408 0.18941 0.94108 0.0
C1138 C 0.27461 0.20993 0.90497 0.0
C1139 C 0.2394 0.18066 0.95945 0.0
C1140 C 0.27809 0.23575 0.82412 0.0
C1141 C 0.27796 0.22683 0.8425 0.0
C1142 C 0.24563 0.20401 0.87882 0.0
C1143 C 0.25807 0.18983 0.93063 0.0
C1144 C 0.25926 0.19853 0.91074 0.0
C1145 C 0.26112 0.22523 0.85361 0.0
C1146 C 0.26078 0.21569 0.87314 0.0
H1147 H 0.28509 0.1663 0.96366 0.0
H1148 H 0.28751 0.18156 0.93152 0.0
H1149 H 0.23303 0.18655 0.90116 0.0
H1150 H 0.23147 0.24745 0.82222 0.0
H1151 H 0.2313 0.23217 0.85419 0.0
C1152 C 0.07467 0.002 0.33302 0.0
C1153 C 0.07309 0.01695 0.31947 0.0
C1154 C 0.05942 0.99713 0.34517 0.0
C1155 C 0.02332 0.02215 0.37062 0.0
H1156 H 0.01248 0.97283 0.39331 0.0
C1157 C 0.00325 0.01872 0.45026 0.0
C1158 C 0.0137 0.00516 0.46048 0.0
C1159 C 0.00077 0.01689 0.43023 0.0
C1160 C 0.0153 0.98673 0.38717 0.0
H1161 H 0.05389 0.03748 0.30684 0.0
H1162 H 0.02733 0.02928 0.32857 0.0
H1163 H 0.02725 0.97512 0.36083 0.0
H1164 H 0.0287 0.97853 0.45864 0.0
H1165 H 0.02572 0.97587 0.4235 0.0
H1166 H 0.01353 0.03392 0.39734 0.0
C1167 C 0.04035 0.02129 0.32964 0.0
C1168 C 0.02358 0.98801 0.3685 0.0
C1169 C 0.05557 0.02601 0.3173 0.0
C1170 C 0.02054 0.98909 0.45087 0.0
C1171 C 0.01863 0.98755 0.43071 0.0
C1172 C 0.01541 0.0209 0.38936 0.0
C1173 C 0.04236 0.00726 0.34414 0.0
C1174 C 0.02854 0.00572 0.36053 0.0
C1175 C 0.00949 0.00192 0.41996 0.0
C1176 C 0.01229 0.00313 0.39835 0.0
H1177 H 0.08794 0.99459 0.33482 0.0
H1178 H 0.06145 0.98641 0.35637 0.0
H1179 H 0.02711 0.03601 0.36491 0.0
H1180 H 0.9977 0.03113 0.45762 0.0
H1181 H 0.99306 0.02789 0.42263 0.0
C1182 C 0.27218 0.86317 0.56951 0.0
C1183 C 0.28108 0.88016 0.57401 0.0
C1184 C 0.27541 0.84696 0.5808 0.0
C1185 C 0.2807 0.81459 0.60937 0.0
H1186 H 0.28133 0.83361 0.6622 0.0
C1187 C 0.2664 0.77013 0.6808 0.0
C1188 C 0.25678 0.77987 0.69583 0.0
C1189 C 0.27123 0.77949 0.66332 0.0
C1190 C 0.281 0.82807 0.64753 0.0
H1191 H 0.3024 0.89313 0.59136 0.0
H1192 H 0.30936 0.86442 0.61001 0.0
H1193 H 0.29039 0.85414 0.63546 0.0
H1194 H 0.24286 0.80614 0.70373 0.0
H1195 H 0.25057 0.82221 0.67302 0.0
H1196 H 0.26992 0.78876 0.62193 0.0
C1197 C 0.29902 0.86375 0.59866 0.0
C1198 C 0.28668 0.83974 0.63209 0.0
C1199 C 0.29526 0.88014 0.58787 0.0
C1200 C 0.25048 0.79842 0.69244 0.0
C1201 C 0.25507 0.80764 0.67495 0.0
C1202 C 0.27481 0.80289 0.62495 0.0
C1203 C 0.28789 0.84751 0.59647 0.0
C1204 C 0.28605 0.83343 0.61271 0.0
C1205 C 0.26634 0.79862 0.66066 0.0
C1206 C 0.27425 0.80983 0.64409 0.0
H1207 H 0.26113 0.86296 0.55885 0.0
H1208 H 0.2666 0.83479 0.57853 0.0
H1209 H 0.28033 0.80913 0.59468 0.0
H1210 H 0.27148 0.7558 0.68312 0.0
H1211 H 0.27983 0.77217 0.65251 0.0
C1212 C 0.4345 0.04144 0.79993 0.0
C1213 C 0.41504 0.04386 0.80324 0.0
C1214 C 0.44679 0.04102 0.81557 0.0
C1215 C 0.44985 0.04998 0.86892 0.0
H1216 H 0.48578 0.00842 0.86695 0.0
C1217 C 0.49497 0.02993 0.93505 0.0
C1218 C 0.49617 0.01047 0.93936 0.0
C1219 C 0.48779 0.03624 0.91731 0.0
C1220 C 0.4758 0.02007 0.86774 0.0
H1221 H 0.39329 0.04876 0.8254 0.0
H1222 H 0.41458 0.04754 0.85266 0.0
H1223 H 0.46786 0.01643 0.83816 0.0
H1224 H 0.49096 0.9824 0.92844 0.0
H1225 H 0.47816 0.99333 0.89762 0.0
H1226 H 0.45698 0.05284 0.89888 0.0
C1227 C 0.42047 0.04626 0.83801 0.0
C1228 C 0.46572 0.02486 0.85114 0.0
C1229 C 0.40822 0.04683 0.82237 0.0
C1230 C 0.49041 0.99745 0.92542 0.0
C1231 C 0.48313 0.00375 0.90773 0.0
C1232 C 0.45986 0.0451 0.88557 0.0
C1233 C 0.43983 0.04288 0.83484 0.0
C1234 C 0.45231 0.03959 0.85166 0.0
C1235 C 0.48158 0.02322 0.90354 0.0
C1236 C 0.47262 0.0298 0.88529 0.0
H1237 H 0.44022 0.03935 0.78531 0.0
H1238 H 0.46167 0.03876 0.8126 0.0
H1239 H 0.43983 0.06158 0.86972 0.0
H1240 H 0.49963 0.04028 0.94539 0.0
H1241 H 0.48706 0.05132 0.9144 0.0
C1242 C 0.27918 0.19541 0.06573 0.0
C1243 C 0.27012 0.17791 0.0639 0.0
C1244 C 0.27966 0.20439 0.08381 0.0
C1245 C 0.27667 0.19482 0.13667 0.0
H1246 H 0.26671 0.24866 0.14043 0.0
C1247 C 0.26873 0.23289 0.21098 0.0
C1248 C 0.27507 0.25164 0.21211 0.0
C1249 C 0.2688 0.22356 0.19305 0.0
C1250 C 0.26984 0.23367 0.13965 0.0
H1251 H 0.25432 0.15621 0.07967 0.0
H1252 H 0.25526 0.17188 0.11123 0.0
H1253 H 0.26515 0.2333 0.10887 0.0
H1254 H 0.2872 0.27499 0.19544 0.0
H1255 H 0.28788 0.25857 0.16439 0.0
H1256 H 0.28164 0.19518 0.16737 0.0
C1257 C 0.26205 0.17859 0.09867 0.0
C1258 C 0.26885 0.22486 0.12153 0.0
C1259 C 0.2614 0.16969 0.08055 0.0
C1260 C 0.2821 0.26059 0.19506 0.0
C1261 C 0.28232 0.25121 0.1772 0.0
C1262 C 0.27782 0.20366 0.15479 0.0
C1263 C 0.27125 0.19601 0.10052 0.0
C1264 C 0.27222 0.20533 0.11983 0.0
C1265 C 0.27535 0.2327 0.17586 0.0
C1266 C 0.27441 0.22322 0.15653 0.0
H1267 H 0.28604 0.20213 0.05322 0.0
H1268 H 0.28698 0.21773 0.08479 0.0
H1269 H 0.27958 0.17978 0.13578 0.0
H1270 H 0.26312 0.22563 0.22382 0.0
H1271 H 0.26312 0.2094 0.19261 0.0
C1272 C 0.21009 0.08538 0.03848 0.0
C1273 C 0.21629 0.09913 0.02487 0.0
C1274 C 0.19276 0.07642 0.03633 0.0
C1275 C 0.15589 0.06655 0.00031 0.0
H1276 H 0.12413 0.05941 0.04655 0.0
C1277 C 0.07699 0.04623 0.99716 0.0
C1278 C 0.06982 0.03386 0.01168 0.0
C1279 C 0.09544 0.05297 -0.00196 0.0
C1280 C 0.13291 0.06103 0.03352 0.0
H1281 H 0.2092 0.11406 -0.00186 0.0
H1282 H 0.17894 0.09858 0.99451 0.0
H1283 H 0.15513 0.07341 0.04952 0.0
H1284 H 0.07667 0.01838 0.03816 0.0
H1285 H 0.10884 0.02989 0.0395 0.0
H1286 H 0.13353 0.05429 0.9843 0.0
C1287 C 0.18756 0.09455 0.00674 0.0
C1288 C 0.15072 0.06908 0.03522 0.0
C1289 C 0.20488 0.10351 0.00889 0.0
C1290 C 0.0817 0.02795 0.02676 0.0
C1291 C 0.10013 0.03467 0.02762 0.0
C1292 C 0.13805 0.05848 -0.0014 0.0
C1293 C 0.18121 0.08099 0.02051 0.0
C1294 C 0.16242 0.07199 0.01865 0.0
C1295 C 0.10715 0.0475 0.01345 0.0
C1296 C 0.12633 0.05565 0.01519 0.0
H1297 H 0.21855 0.08159 0.05091 0.0
H1298 H 0.18844 0.06585 0.04706 0.0
H1299 H 0.16463 0.06835 0.98728 0.0
H1300 H 0.06819 0.05112 0.98539 0.0
H1301 H 0.10032 0.06296 0.98697 0.0
C1302 C 0.67761 0.45567 0.02052 0.0
C1303 C 0.68468 0.44594 0.00411 0.0
C1304 C 0.66019 0.46488 0.01999 0.0
C1305 C 0.62425 0.4839 0.98684 0.0
H1306 H 0.59068 0.47629 0.03166 0.0
C1307 C 0.55188 0.52149 0.99431 0.0
C1308 C 0.53675 0.51003 0.00053 0.0
C1309 C 0.57039 0.51473 0.99518 0.0
C1310 C 0.59987 0.4785 0.01902 0.0
H1311 H 0.67924 0.43868 0.97408 0.0
H1312 H 0.64866 0.45468 0.97322 0.0
H1313 H 0.62222 0.46252 0.03174 0.0
H1314 H 0.52919 0.48258 0.01279 0.0
H1315 H 0.56143 0.47084 0.01429 0.0
H1316 H 0.60166 0.49952 0.97395 0.0
C1317 C 0.6567 0.45529 0.98644 0.0
C1318 C 0.61801 0.47079 0.01914 0.0
C1319 C 0.67417 0.44604 0.98697 0.0
C1320 C 0.54053 0.49181 0.00795 0.0
C1321 C 0.55901 0.4851 0.00889 0.0
C1322 C 0.6061 0.49168 0.98675 0.0
C1323 C 0.64942 0.46458 0.00305 0.0
C1324 C 0.63037 0.47331 0.00301 0.0
C1325 C 0.57413 0.49642 0.00238 0.0
C1326 C 0.59368 0.48894 0.00279 0.0
H1327 H 0.6854 0.456 0.03392 0.0
H1328 H 0.6551 0.47219 0.03291 0.0
H1329 H 0.63352 0.48621 0.97427 0.0
H1330 H 0.54943 0.5356 0.98851 0.0
H1331 H 0.58178 0.52385 0.99026 0.0
C1332 C 0.87969 0.47082 0.25795 0.0
C1333 C 0.87571 0.48743 0.26837 0.0
C1334 C 0.87003 0.45416 0.26246 0.0
C1335 C 0.82578 0.43704 0.28426 0.0
H1336 H 0.8521 0.38881 0.28614 0.0
C1337 C 0.78778 0.36706 0.30354 0.0
C1338 C 0.7927 0.35148 0.29187 0.0
C1339 C 0.79826 0.3837 0.30231 0.0
C1340 C 0.84453 0.40216 0.28552 0.0
H1341 H 0.85867 0.49956 0.29186 0.0
H1342 H 0.84183 0.47041 0.2997 0.0
H1343 H 0.86994 0.41784 0.28084 0.0
H1344 H 0.81281 0.34104 0.27012 0.0
H1345 H 0.83065 0.37013 0.26757 0.0
H1346 H 0.80034 0.42135 0.28851 0.0
C1347 C 0.85232 0.47035 0.28797 0.0
C1348 C 0.85475 0.41875 0.28251 0.0
C1349 C 0.86204 0.48699 0.28353 0.0
C1350 C 0.80842 0.35285 0.27909 0.0
C1351 C 0.81884 0.36945 0.27784 0.0
C1352 C 0.81554 0.42042 0.28719 0.0
C1353 C 0.85617 0.45381 0.27742 0.0
C1354 C 0.84545 0.43632 0.28165 0.0
C1355 C 0.81388 0.38506 0.28941 0.0
C1356 C 0.8248 0.40279 0.28761 0.0
H1357 H 0.89013 0.47071 0.24617 0.0
H1358 H 0.87312 0.44164 0.25394 0.0
H1359 H 0.81824 0.45039 0.28345 0.0
H1360 H 0.7757 0.36649 0.31342 0.0
H1361 H 0.7942 0.39546 0.31153 0.0
C1362 C 0.83202 0.59558 0.52583 0.0
C1363 C 0.82608 0.59994 0.50685 0.0
C1364 C 0.84925 0.58638 0.52877 0.0
C1365 C 0.88659 0.55803 0.50369 0.0
H1366 H 0.91797 0.57678 0.54475 0.0
C1367 C 0.96598 0.54046 0.50824 0.0
C1368 C 0.97358 0.53737 0.5268 0.0
C1369 C 0.9473 0.54642 0.50636 0.0
C1370 C 0.90928 0.57117 0.53341 0.0
H1371 H 0.83346 0.5977 0.47605 0.0
H1372 H 0.86357 0.58187 0.48119 0.0
H1373 H 0.88663 0.59019 0.54043 0.0
H1374 H 0.96732 0.53774 0.55794 0.0
H1375 H 0.93465 0.54803 0.55463 0.0
H1376 H 0.90941 0.5392 0.49649 0.0
C1377 C 0.85482 0.58535 0.49381 0.0
C1378 C 0.89129 0.57886 0.53093 0.0
C1379 C 0.83758 0.59454 0.49087 0.0
C1380 C 0.96193 0.54002 0.54343 0.0
C1381 C 0.94324 0.54603 0.54154 0.0
C1382 C 0.9046 0.55035 0.50616 0.0
C1383 C 0.86096 0.58133 0.51281 0.0
C1384 C 0.87977 0.57249 0.51595 0.0
C1385 C 0.93575 0.54949 0.52299 0.0
C1386 C 0.91622 0.55693 0.52095 0.0
H1387 H 0.82347 0.59945 0.53847 0.0
H1388 H 0.8534 0.58324 0.54358 0.0
H1389 H 0.87797 0.55258 0.49221 0.0
H1390 H 0.97457 0.53859 0.49512 0.0
H1391 H 0.94206 0.54916 0.49186 0.0
C1392 C 0.14702 0.08888 0.32795 0.0
C1393 C 0.1345 0.08884 0.31235 0.0
C1394 C 0.15593 0.10551 0.33319 0.0
C1395 C 0.15753 0.15755 0.32536 0.0
H1396 H 0.21151 0.14909 0.32644 0.0
C1397 C 0.21192 0.21357 0.30219 0.0
C1398 C 0.23009 0.21263 0.30984 0.0
C1399 C 0.19825 0.20051 0.30816 0.0
C1400 C 0.19648 0.1518 0.32673 0.0
H1401 H 0.12042 0.10645 0.29097 0.0
H1402 H 0.13632 0.13551 0.29987 0.0
H1403 H 0.19054 0.12228 0.32681 0.0
H1404 H 0.24775 0.19857 0.33093 0.0
H1405 H 0.22372 0.17601 0.34183 0.0
H1406 H 0.16364 0.18719 0.32464 0.0
C1407 C 0.1391 0.1227 0.30817 0.0
C1408 C 0.18441 0.13636 0.32689 0.0
C1409 C 0.13008 0.10603 0.30298 0.0
C1410 C 0.23393 0.19933 0.32459 0.0
C1411 C 0.22018 0.18642 0.33076 0.0
C1412 C 0.16964 0.17308 0.32533 0.0
C1413 C 0.1526 0.12245 0.32288 0.0
C1414 C 0.16485 0.13903 0.3257 0.0
C1415 C 0.20243 0.18638 0.32205 0.0
C1416 C 0.18929 0.17035 0.32546 0.0
H1417 H 0.15047 0.0759 0.3357 0.0
H1418 H 0.16602 0.10497 0.34483 0.0
H1419 H 0.14249 0.16001 0.32466 0.0
H1420 H 0.20863 0.2236 0.29068 0.0
H1421 H 0.18483 0.20079 0.30094 0.0
C1422 C 0.2866 0.97708 0.55209 0.0
C1423 C 0.28745 0.96936 0.57109 0.0
C1424 C 0.30276 0.98451 0.54294 0.0
C1425 C 0.35063 0.97305 0.53921 0.0
H1426 H 0.36319 0.02384 0.52163 0.0
C1427 C 0.42628 0.99404 0.52052 0.0
C1428 C 0.43001 0.00776 0.50599 0.0
C1429 C 0.40783 0.98963 0.52601 0.0
C1430 C 0.35973 0.00951 0.52607 0.0
H1431 H 0.30545 0.96486 0.59596 0.0
H1432 H 0.33366 0.97748 0.57975 0.0
H1433 H 0.33218 0.01765 0.53679 0.0
H1434 H 0.41722 0.02706 0.48523 0.0
H1435 H 0.38482 0.01887 0.49442 0.0
H1436 H 0.37777 0.96462 0.5284 0.0
C1437 C 0.32049 0.97777 0.57206 0.0
C1438 C 0.34209 0.00606 0.53485 0.0
C1439 C 0.30433 0.9706 0.5813 0.0
C1440 C 0.41482 0.01636 0.49642 0.0
C1441 C 0.39626 0.01185 0.50186 0.0
C1442 C 0.36806 0.97639 0.53019 0.0
C1443 C 0.31993 0.98414 0.55263 0.0
C1444 C 0.33769 0.9879 0.5419 0.0
C1445 C 0.39258 -0.00136 0.51695 0.0
C1446 C 0.37306 0.99476 0.52402 0.0
H1447 H 0.27375 0.97641 0.54391 0.0
H1448 H 0.30214 0.98937 0.52791 0.0
H1449 H 0.34729 0.95887 0.5443 0.0
H1450 H 0.43765 0.98692 0.52795 0.0
H1451 H 0.40559 0.97957 0.53787 0.0
C1452 C 0.85606 0.57776 0.20998 0.0
C1453 C 0.85422 0.57293 0.22989 0.0
C1454 C 0.84483 0.59207 0.20205 0.0
C1455 C 0.80253 0.62026 0.2066 0.0
H1456 H 0.83373 0.665 0.20411 0.0
C1457 C 0.79966 0.70751 0.21179 0.0
C1458 C 0.78467 0.70829 0.2254 0.0
C1459 C 0.80512 0.69027 0.20363 0.0
C1460 C 0.82465 0.65278 0.20394 0.0
H1461 H 0.83848 0.57808 0.25679 0.0
H1462 H 0.81842 0.60276 0.24271 0.0
H1463 H 0.84841 0.63407 0.20524 0.0
H1464 H 0.76286 0.69219 0.24045 0.0
H1465 H 0.77316 0.66196 0.22763 0.0
H1466 H 0.7787 0.6388 0.20547 0.0
C1467 C 0.82864 0.59559 0.23337 0.0
C1468 C 0.83319 0.635 0.2047 0.0
C1469 C 0.84019 0.58166 0.24143 0.0
C1470 C 0.77452 0.69186 0.22996 0.0
C1471 C 0.78035 0.67451 0.22236 0.0
C1472 C 0.79393 0.63805 0.20523 0.0
C1473 C 0.83127 0.60123 0.2138 0.0
C1474 C 0.82218 0.61876 0.20707 0.0
C1475 C 0.79617 0.67336 0.20959 0.0
C1476 C 0.80489 0.65461 0.20515 0.0
H1477 H 0.86686 0.57123 0.20083 0.0
H1478 H 0.8472 0.59649 0.187 0.0
H1479 H 0.79385 0.60778 0.20835 0.0
H1480 H 0.80743 0.72018 0.2078 0.0
H1481 H 0.81689 0.69014 0.19332 0.0
C1482 C 0.68262 0.44789 0.82706 0.0
C1483 C 0.68473 0.46511 0.81687 0.0
C1484 C 0.69576 0.4333 0.82437 0.0
C1485 C 0.7295 0.41651 0.787 0.0
H1486 H 0.74056 0.37851 0.82642 0.0
C1487 C 0.76994 0.33945 0.79599 0.0
C1488 C 0.76289 0.33058 0.77942 0.0
C1489 C 0.7639 0.35765 0.80098 0.0
C1490 C 0.7379 0.38914 0.81529 0.0
H1491 H 0.70296 0.48114 0.79705 0.0
H1492 H 0.72611 0.45585 0.79273 0.0
H1493 H 0.72439 0.40763 0.83587 0.0
H1494 H 0.74442 0.33399 0.75481 0.0
H1495 H 0.73368 0.36554 0.76366 0.0
H1496 H 0.74298 0.39805 0.76642 0.0
C1497 C 0.71404 0.45339 0.80235 0.0
C1498 C 0.72843 0.40573 0.82068 0.0
C1499 C 0.70082 0.4679 0.8049 0.0
C1500 C 0.75015 0.34046 0.76763 0.0
C1501 C 0.74409 0.35861 0.77265 0.0
C1502 C 0.73905 0.4 0.78164 0.0
C1503 C 0.71136 0.43573 0.81159 0.0
C1504 C 0.72369 0.41938 0.80651 0.0
C1505 C 0.7507 0.36732 0.78951 0.0
C1506 C 0.74289 0.3859 0.79562 0.0
H1507 H 0.67037 0.44532 0.8364 0.0
H1508 H 0.69314 0.41982 0.83157 0.0
H1509 H 0.72594 0.42662 0.77565 0.0
H1510 H 0.77984 0.33222 0.80533 0.0
H1511 H 0.76942 0.36407 0.81393 0.0
C1512 C 0.02251 0.82932 0.92487 0.0
C1513 C 0.01679 0.8292 0.90534 0.0
C1514 C 0.0235 0.84638 0.93511 0.0
C1515 C 0.00591 0.89628 0.9335 0.0
H1516 H 0.04548 0.90523 0.9703 0.0
C1517 C 0.01807 0.97023 0.96572 0.0
C1518 C 0.0213 0.9712 0.98587 0.0
C1519 C 0.01818 0.95279 0.95621 0.0
C1520 C 0.03424 0.90289 0.96019 0.0
H1521 H 0.00808 0.84708 0.88118 0.0
H1522 H 0.01019 0.8766 0.89872 0.0
H1523 H 0.04437 0.87504 0.95332 0.0
H1524 H 0.02758 0.95451 0.01171 0.0
H1525 H 0.02786 0.92408 0.99507 0.0
H1526 H 0.99589 0.92415 0.94021 0.0
C1527 C 0.01346 0.86356 0.9064 0.0
C1528 C 0.03357 0.88554 0.95047 0.0
C1529 C 0.01238 0.84656 0.89625 0.0
C1530 C 0.02507 0.9543 0.99617 0.0
C1531 C 0.0253 0.93685 0.98662 0.0
C1532 C 0.00665 0.91362 0.94311 0.0
C1533 C 0.01886 0.86375 0.92604 0.0
C1534 C 0.01944 0.88202 0.93688 0.0
C1535 C 0.02162 0.93584 0.96656 0.0
C1536 C 0.02087 0.91721 0.95651 0.0
H1537 H 0.02598 0.81621 0.93234 0.0
H1538 H 0.02755 0.8459 0.95025 0.0
H1539 H 0.99454 0.89401 0.92353 0.0
H1540 H 0.01513 0.98293 0.9573 0.0
H1541 H 0.01555 0.95258 0.9407 0.0
C1542 C 0.94973 0.27614 0.65144 0.0
C1543 C 0.94751 0.28093 0.63165 0.0
C1544 C 0.93465 0.27776 0.66471 0.0
C1545 C 0.88841 0.30128 0.67174 0.0
H1546 H 0.8813 0.26267 0.71187 0.0
C1547 C 0.82018 0.29279 0.71821 0.0
C1548 C 0.8219 0.28795 0.73806 0.0
C1549 C 0.8361 0.29382 0.70596 0.0
C1550 C 0.88327 0.27371 0.70093 0.0
H1551 H 0.92764 0.29092 0.6102 0.0
H1552 H 0.90112 0.29336 0.63336 0.0
H1553 H 0.9075 0.2599 0.68852 0.0
H1554 H 0.84168 0.28114 0.76081 0.0
H1555 H 0.86957 0.28294 0.73931 0.0
H1556 H 0.86386 0.31483 0.68399 0.0
C1557 C 0.91466 0.2887 0.63866 0.0
C1558 C 0.89826 0.27212 0.68752 0.0
C1559 C 0.9298 0.28717 0.62537 0.0
C1560 C 0.83992 0.28489 0.74558 0.0
C1561 C 0.85585 0.28579 0.73326 0.0
C1562 C 0.87334 0.30281 0.6851 0.0
C1563 C 0.91695 0.28409 0.6585 0.0
C1564 C 0.90099 0.28585 0.67274 0.0
C1565 C 0.85405 0.28993 0.71327 0.0
C1566 C 0.8706 0.28901 0.69979 0.0
H1567 H 0.96322 0.27139 0.6568 0.0
H1568 H 0.93698 0.27436 0.67993 0.0
H1569 H 0.8903 0.31226 0.66074 0.0
H1570 H 0.80648 0.29527 0.71198 0.0
H1571 H 0.83427 0.2969 0.69059 0.0
C1572 C 0.53323 0.22268 0.44359 0.0
C1573 C 0.51928 0.22841 0.43046 0.0
C1574 C 0.53182 0.20538 0.45367 0.0
C1575 C 0.50912 0.15849 0.45143 0.0
H1576 H 0.52373 0.15414 0.5055 0.0
C1577 C 0.498 0.08941 0.49602 0.0
C1578 C 0.51244 0.0836 0.50852 0.0
C1579 C 0.4983 0.10735 0.48718 0.0
C1580 C 0.51978 0.15505 0.49034 0.0
H1581 H 0.49276 0.22045 0.41787 0.0
H1582 H 0.49025 0.19037 0.43556 0.0
H1583 H 0.52512 0.18484 0.48889 0.0
H1584 H 0.53845 0.0923 0.52167 0.0
H1585 H 0.53908 0.12353 0.5061 0.0
H1586 H 0.50393 0.12871 0.45278 0.0
C1587 C 0.5024 0.19916 0.43789 0.0
C1588 C 0.52057 0.17268 0.48081 0.0
C1589 C 0.50379 0.21648 0.42783 0.0
C1590 C 0.52706 0.09632 0.51218 0.0
C1591 C 0.52737 0.11429 0.50331 0.0
C1592 C 0.50836 0.14087 0.46094 0.0
C1593 C 0.51645 0.19333 0.45088 0.0
C1594 C 0.51527 0.17463 0.46121 0.0
C1595 C 0.51307 0.12 0.49056 0.0
C1596 C 0.5137 0.13888 0.48053 0.0
H1597 H 0.54538 0.23146 0.44597 0.0
H1598 H 0.54302 0.20128 0.46337 0.0
H1599 H 0.50524 0.15937 0.43624 0.0
H1600 H 0.48648 0.08002 0.49291 0.0
H1601 H 0.48688 0.11134 0.47773 0.0
C1602 C 0.54497 0.76367 0.18437 0.0
C1603 C 0.54456 0.77203 0.16568 0.0
C1604 C 0.5615 0.76356 0.19496 0.0
C1605 C 0.60811 0.78596 0.19852 0.0
H1606 H 0.62156 0.73832 0.2233 0.0
C1607 C 0.6828 0.76762 0.22563 0.0
C1608 C 0.68409 0.75621 0.24247 0.0
C1609 C 0.66522 0.77194 0.21788 0.0
C1610 C 0.61788 0.75183 0.21677 0.0
H1611 H 0.56106 0.78717 0.14359 0.0
H1612 H 0.59006 0.78673 0.16204 0.0
H1613 H 0.5919 0.74114 0.20652 0.0
H1614 H 0.66812 0.74165 0.26529 0.0
H1615 H 0.63743 0.74934 0.25196 0.0
H1616 H 0.63436 0.79651 0.20859 0.0
C1617 C 0.57751 0.78046 0.16856 0.0
C1618 C 0.60088 0.75344 0.20712 0.0
C1619 C 0.56094 0.78059 0.15795 0.0
C1620 C 0.6675 0.75014 0.25206 0.0
C1621 C 0.64997 0.75453 0.24441 0.0
C1622 C 0.62518 0.78436 0.20822 0.0
C1623 C 0.578 0.77177 0.18709 0.0
C1624 C 0.59584 0.77048 0.19784 0.0
C1625 C 0.64866 0.76497 0.22692 0.0
C1626 C 0.63024 0.76724 0.2174 0.0
H1627 H 0.53254 0.75708 0.19081 0.0
H1628 H 0.56139 0.75699 0.20933 0.0
H1629 H 0.60449 0.79933 0.19164 0.0
H1630 H 0.69539 0.77239 0.2179 0.0
H1631 H 0.66468 0.77991 0.20431 0.0
C1632 C 0.0208 0.21937 0.57233 0.0
C1633 C 0.00995 0.23352 0.56331 0.0
C1634 C 0.0292 0.20504 0.56131 0.0
C1635 C 0.02592 0.17945 0.51546 0.0
H1636 H 0.07587 0.16207 0.52935 0.0
C1637 C 0.05813 0.11173 0.4828 0.0
C1638 C 0.06294 0.09877 0.49758 0.0
C1639 C 0.0553 0.13083 0.48719 0.0
C1640 C 0.06199 0.16688 0.52519 0.0
H1641 H -0.00091 0.24355 0.53567 0.0
H1642 H 0.01379 0.21832 0.51636 0.0
H1643 H 0.06273 0.1906 0.54426 0.0
H1644 H 0.07001 0.09557 0.52798 0.0
H1645 H 0.06532 0.12887 0.53569 0.0
H1646 H 0.02493 0.15531 0.49694 0.0
C1647 C 0.01575 0.21839 0.53199 0.0
C1648 C 0.05443 0.18312 0.53378 0.0
C1649 C 0.00733 0.2328 0.54305 0.0
C1650 C 0.06624 0.10536 0.51641 0.0
C1651 C 0.06367 0.12442 0.52075 0.0
C1652 C 0.03352 0.16322 0.50681 0.0
C1653 C 0.02698 0.20452 0.541 0.0
C1654 C 0.03604 0.18916 0.52955 0.0
C1655 C 0.05754 0.13722 0.50635 0.0
C1656 C 0.05135 0.15642 0.51214 0.0
H1657 H 0.02304 0.21945 0.58792 0.0
H1658 H 0.03738 0.19429 0.56875 0.0
H1659 H 0.0117 0.18373 0.51196 0.0
H1660 H 0.05539 0.10688 0.4682 0.0
H1661 H 0.05065 0.14045 0.47583 0.0
C1662 C 0.56895 0.26606 0.35022 0.0
C1663 C 0.56769 0.279 0.36566 0.0
C1664 C 0.58553 0.26455 0.33878 0.0
C1665 C 0.62781 0.29143 0.3238 0.0
H1666 H 0.65095 0.24254 0.31372 0.0
C1667 C 0.70491 0.28525 0.29799 0.0
C1668 C 0.71026 0.27121 0.28454 0.0
C1669 C 0.68676 0.28569 0.30621 0.0
C1670 C 0.64454 0.25629 0.3161 0.0
H1671 H 0.58286 0.30056 0.38109 0.0
H1672 H 0.61152 0.29806 0.3611 0.0
H1673 H 0.62043 0.24425 0.33095 0.0
H1674 H 0.7006 0.24656 0.26921 0.0
H1675 H 0.66863 0.2475 0.2834 0.0
H1676 H 0.6517 0.30356 0.30901 0.0
C1677 C 0.59973 0.2891 0.35779 0.0
C1678 C 0.62706 0.25726 0.32601 0.0
C1679 C 0.58331 0.29045 0.36932 0.0
C1680 C 0.69694 0.25757 0.27952 0.0
C1681 C 0.67864 0.25806 0.28774 0.0
C1682 C 0.64514 0.29047 0.31378 0.0
C1683 C 0.60106 0.27615 0.34239 0.0
C1684 C 0.61871 0.27487 0.33033 0.0
C1685 C 0.67331 0.27219 0.30116 0.0
C1686 C 0.65397 0.27292 0.31018 0.0
H1687 H 0.55719 0.257 0.34705 0.0
H1688 H 0.58611 0.25449 0.32696 0.0
H1689 H 0.62156 0.30519 0.32656 0.0
H1690 H 0.71482 0.2959 0.30237 0.0
H1691 H 0.68338 0.29652 0.31681 0.0
C1692 C 0.48528 0.8263 0.11902 0.0
C1693 C 0.48442 0.81074 0.1065 0.0
C1694 C 0.48608 0.84465 0.11143 0.0
C1695 C 0.47698 0.87378 0.0678 0.0
H1696 H 0.51321 0.90724 0.09083 0.0
C1697 C 0.49657 0.94734 0.03546 0.0
C1698 C 0.4988 0.962 0.04889 0.0
C1699 C 0.49385 0.92876 0.04202 0.0
C1700 C 0.50287 0.89814 0.0844 0.0
H1701 H 0.48322 0.80221 0.07622 0.0
H1702 H 0.48479 0.83441 0.06293 0.0
H1703 H 0.51018 0.87493 0.10303 0.0
H1704 H 0.49942 0.96881 0.0797 0.0
H1705 H 0.49451 0.93646 0.09109 0.0
H1706 H 0.46975 0.89711 0.04911 0.0
C1707 C 0.48471 0.83235 0.07863 0.0
C1708 C 0.50114 0.87965 0.09137 0.0
C1709 C 0.48389 0.81393 0.08623 0.0
C1710 C 0.49785 0.95781 0.06897 0.0
C1711 C 0.49514 0.93927 0.07551 0.0
C1712 C 0.47872 0.89235 0.0608 0.0
C1713 C 0.48608 0.84785 0.09117 0.0
C1714 C 0.48808 0.86732 0.08327 0.0
C1715 C 0.49336 0.92452 0.0621 0.0
C1716 C 0.49159 0.90474 0.06915 0.0
H1717 H 0.48554 0.82435 0.13472 0.0
H1718 H 0.48677 0.85635 0.12146 0.0
H1719 H 0.4667 0.86461 0.06139 0.0
H1720 H 0.49724 0.95014 0.01988 0.0
H1721 H 0.49266 0.91765 0.03136 0.0
C1722 C 0.96225 0.77977 0.84501 0.0
C1723 C 0.96768 0.7619 0.85229 0.0
C1724 C 0.94588 0.78188 0.83409 0.0
C1725 C 0.91145 0.75415 0.80586 0.0
H1726 H 0.8786 0.79745 0.81453 0.0
C1727 C 0.83375 0.75532 0.78354 0.0
C1728 C 0.82612 0.77206 0.77563 0.0
C1729 C 0.85199 0.75493 0.79077 0.0
C1730 C 0.88775 0.78542 0.81172 0.0
H1731 H 0.96003 0.73225 0.85379 0.0
H1732 H 0.93148 0.73596 0.83517 0.0
H1733 H 0.90844 0.79519 0.83147 0.0
H1734 H 0.83187 0.80153 0.76887 0.0
H1735 H 0.86387 0.80088 0.78167 0.0
H1736 H 0.89052 0.74415 0.78653 0.0
C1737 C 0.94001 0.74833 0.83751 0.0
C1738 C 0.90489 0.78411 0.82143 0.0
C1739 C 0.95637 0.74622 0.84835 0.0
C1740 C 0.83735 0.78838 0.7748 0.0
C1741 C 0.85561 0.78804 0.78226 0.0
C1742 C 0.8943 0.75541 0.79626 0.0
C1743 C 0.93451 0.76618 0.8302 0.0
C1744 C 0.91685 0.7683 0.81887 0.0
C1745 C 0.86309 0.77132 0.79044 0.0
C1746 C 0.88209 0.77091 0.79929 0.0
H1747 H 0.97066 0.79216 0.84772 0.0
H1748 H 0.94224 0.79581 0.82854 0.0
H1749 H 0.92045 0.74199 0.80314 0.0
H1750 H 0.82551 0.74248 0.78443 0.0
H1751 H 0.85719 0.74187 0.79716 0.0
C1752 C 0.94161 0.01757 0.78369 0.0
C1753 C 0.93348 0.03354 0.77475 0.0
C1754 C 0.94893 0.01879 0.80237 0.0
C1755 C 0.96774 0.05267 0.83679 0.0
H1756 H 0.95513 0.01457 0.87604 0.0
C1757 C 0.98605 0.0617 0.91741 0.0
C1758 C 0.99256 0.04566 0.92754 0.0
C1759 C 0.97875 0.05999 0.89879 0.0
C1760 C 0.95898 0.02518 0.86517 0.0
H1761 H 0.92674 0.06333 0.77826 0.0
H1762 H 0.9396 0.06545 0.81084 0.0
H1763 H 0.94286 0.01187 0.8432 0.0
H1764 H 0.99674 0.01529 0.92611 0.0
H1765 H 0.98421 0.0123 0.89346 0.0
H1766 H 0.98401 0.0659 0.85859 0.0
C1767 C 0.94035 0.05202 0.80337 0.0
C1768 C 0.95193 0.02364 0.84641 0.0
C1769 C 0.9329 0.05077 0.78478 0.0
C1770 C 0.99157 0.02785 0.91874 0.0
C1771 C 0.98438 0.02615 0.90005 0.0
C1772 C 0.97489 0.05415 0.8555 0.0
C1773 C 0.9484 0.03605 0.81234 0.0
C1774 C 0.95618 0.03742 0.83209 0.0
C1775 C 0.97794 0.04221 0.88986 0.0
C1776 C 0.97051 0.04048 0.86992 0.0
H1777 H 0.94225 0.00409 0.77631 0.0
H1778 H 0.95522 0.00631 0.80892 0.0
H1779 H 0.97143 0.06334 0.82592 0.0
H1780 H 0.98639 0.07554 0.92398 0.0
H1781 H 0.97357 0.07259 0.89147 0.0
C1782 C 0.77503 0.20374 0.54191 0.0
C1783 C 0.77684 0.18405 0.5443 0.0
C1784 C 0.76876 0.21495 0.55751 0.0
C1785 C 0.74454 0.21132 0.60618 0.0
H1786 H 0.76957 0.2587 0.61628 0.0
C1787 C 0.74985 0.24362 0.68202 0.0
C1788 C 0.7454 0.26287 0.68409 0.0
C1789 C 0.75072 0.2355 0.66359 0.0
C1790 C 0.76226 0.24565 0.61343 0.0
H1791 H 0.77383 0.16069 0.56497 0.0
H1792 H 0.76354 0.18014 0.59211 0.0
H1793 H 0.77709 0.24162 0.58624 0.0
H1794 H 0.73831 0.28879 0.66872 0.0
H1795 H 0.74035 0.27459 0.6361 0.0
H1796 H 0.73057 0.21488 0.63393 0.0
C1797 C 0.76635 0.18698 0.57813 0.0
C1798 C 0.76652 0.23588 0.59624 0.0
C1799 C 0.77244 0.17581 0.56257 0.0
C1800 C 0.74166 0.27388 0.66741 0.0
C1801 C 0.7429 0.26582 0.64885 0.0
C1802 C 0.74051 0.22095 0.62344 0.0
C1803 C 0.7643 0.20666 0.57579 0.0
C1804 C 0.75808 0.21833 0.59268 0.0
C1805 C 0.74745 0.24656 0.64684 0.0
C1806 C 0.74966 0.23795 0.6274 0.0
H1807 H 0.77824 0.21047 0.52796 0.0
H1808 H 0.76722 0.23006 0.55519 0.0
H1809 H 0.7374 0.19812 0.60365 0.0
H1810 H 0.75266 0.23486 0.69471 0.0
H1811 H 0.75441 0.22065 0.66237 0.0
C1812 C 0.62795 0.99417 0.35154 0.0
C1813 C 0.63013 0.01058 0.33995 0.0
C1814 C 0.61764 0.99473 0.36907 0.0
C1815 C 0.60077 0.02707 0.4072 0.0
H1816 H 0.56584 0.98659 0.42003 0.0
C1817 C 0.53649 0.01146 0.46545 0.0
C1818 C 0.54484 0.01715 0.48282 0.0
C1819 C 0.54731 0.00967 0.44832 0.0
C1820 C 0.5755 -0.00199 0.41661 0.0
H1821 H 0.62318 0.04045 0.33763 0.0
H1822 H 0.60504 0.04139 0.36834 0.0
H1823 H 0.58348 0.98608 0.38906 0.0
H1824 H 0.57119 0.02487 0.49601 0.0
H1825 H 0.5901 0.0216 0.46605 0.0
H1826 H 0.59256 0.03916 0.43462 0.0
C1827 C 0.61148 0.02814 0.36388 0.0
C1828 C 0.5857 -0.00235 0.39897 0.0
C1829 C 0.62177 0.02758 0.34626 0.0
C1830 C 0.56433 0.02049 0.48285 0.0
C1831 C 0.57514 0.01875 0.46568 0.0
C1832 C 0.59062 0.02739 0.42488 0.0
C1833 C 0.6093 0.0117 0.37543 0.0
C1834 C 0.59841 0.01219 0.39408 0.0
C1835 C 0.56668 0.01358 0.4482 0.0
C1836 C 0.57786 0.01289 0.42973 0.0
H1837 H 0.63424 0.98084 0.34711 0.0
H1838 H 0.61639 0.98189 0.37779 0.0
H1839 H 0.61061 0.03837 0.40389 0.0
H1840 H 0.5215 0.00881 0.46496 0.0
H1841 H 0.54039 0.00581 0.43502 0.0
C1842 C 0.76011 0.86414 0.06889 0.0
C1843 C 0.77774 0.86891 0.06052 0.0
C1844 C 0.75891 0.85368 0.08633 0.0
C1845 C 0.78584 0.84226 0.1302 0.0
H1846 H 0.75081 0.80073 0.13695 0.0
C1847 C 0.78897 0.79187 0.19655 0.0
C1848 C 0.77201 0.78522 0.20499 0.0
C1849 C 0.78903 0.8021 0.179 0.0
C1850 C 0.76048 0.81246 0.13543 0.0
H1851 H 0.80795 0.8662 0.06384 0.0
H1852 H 0.80585 0.848 0.09428 0.0
H1853 H 0.75217 0.81831 0.10605 0.0
H1854 H 0.74175 0.78416 0.20157 0.0
H1855 H 0.7418 0.80239 0.17101 0.0
H1856 H 0.79404 0.83666 0.15955 0.0
C1857 C 0.79295 0.85246 0.0874 0.0
C1858 C 0.76129 0.82249 0.11769 0.0
C1859 C 0.79415 0.86279 0.06988 0.0
C1860 C 0.75507 0.78905 0.19542 0.0
C1861 C 0.75512 0.79941 0.17785 0.0
C1862 C 0.78494 0.83234 0.14795 0.0
C1863 C 0.77532 0.84789 0.09589 0.0
C1864 C 0.77411 0.8374 0.11482 0.0
C1865 C 0.77212 0.80611 0.16943 0.0
C1866 C 0.77239 0.81717 0.15076 0.0
H1867 H 0.74718 0.86862 0.06206 0.0
H1868 H 0.74513 0.8505 0.09257 0.0
H1869 H 0.79561 0.85391 0.1286 0.0
H1870 H 0.80231 0.78906 0.20342 0.0
H1871 H 0.80243 0.80667 0.1728 0.0
C1872 C 0.96393 0.04119 0.68411 0.0
C1873 C 0.95791 0.05799 0.69312 0.0
C1874 C 0.9807 0.0407 0.67316 0.0
C1875 C 0.00886 0.06911 0.64111 0.0
H1876 H 0.04327 0.02633 0.64362 0.0
C1877 C 0.04965 0.04834 0.57278 0.0
C1878 C 0.0456 0.02947 0.56829 0.0
C1879 C 0.04744 0.0547 0.59198 0.0
C1880 C 0.03394 0.03849 0.6428 0.0
H1881 H 0.96473 0.08742 0.69789 0.0
H1882 H 0.99385 0.08671 0.67788 0.0
H1883 H 0.02126 0.03229 0.6708 0.0
H1884 H 0.0385 0.00196 0.58053 0.0
H1885 H 0.03441 0.01292 0.61365 0.0
H1886 H 0.02006 0.07432 0.61242 0.0
C1887 C 0.98569 0.07389 0.67971 0.0
C1888 C 0.02141 0.04191 0.65837 0.0
C1889 C 0.96905 0.07429 0.69106 0.0
C1890 C 0.04148 0.01665 0.58354 0.0
C1891 C 0.0393 0.02295 0.60264 0.0
C1892 C 0.02121 0.06555 0.6254 0.0
C1893 C 0.99164 0.05706 0.67071 0.0
C1894 C 0.00812 0.05666 0.65718 0.0
C1895 C 0.0412 0.04226 0.60692 0.0
C1896 C 0.03312 0.04953 0.62561 0.0
H1897 H 0.95572 0.02837 0.68558 0.0
H1898 H 0.98481 0.02763 0.66606 0.0
H1899 H -0.00128 0.08057 0.63985 0.0
H1900 H 0.05301 0.05852 0.56131 0.0
H1901 H 0.04935 0.06959 0.59487 0.0
C1902 C 0.78604 0.15491 0.4422 0.0
C1903 C 0.77559 0.16376 0.45723 0.0
C1904 C 0.78749 0.16333 0.42369 0.0
C1905 C 0.78942 0.20801 0.39928 0.0
H1906 H 0.7681 0.1847 0.35389 0.0
C1907 C 0.77672 0.25031 0.32904 0.0
C1908 C 0.77735 0.24114 0.31097 0.0
C1909 C 0.77872 0.24002 0.34634 0.0
C1910 C 0.77454 0.19125 0.36627 0.0
H1911 H 0.75855 0.18829 0.46484 0.0
H1912 H 0.76163 0.2033 0.43254 0.0
H1913 H 0.76723 0.16795 0.38527 0.0
H1914 H 0.78132 0.21413 0.29671 0.0
H1915 H 0.78566 0.19619 0.32696 0.0
H1916 H 0.79722 0.23108 0.38052 0.0
C1917 C 0.76843 0.18975 0.4351 0.0
C1918 C 0.77388 0.18169 0.38423 0.0
C1919 C 0.7666 0.18113 0.45347 0.0
C1920 C 0.78068 0.22155 0.31048 0.0
C1921 C 0.78302 0.21126 0.32782 0.0
C1922 C 0.79046 0.2174 0.38128 0.0
C1923 C 0.77889 0.18091 0.42013 0.0
C1924 C 0.78095 0.19021 0.40089 0.0
C1925 C 0.78176 0.22034 0.346 0.0
C1926 C 0.78261 0.20936 0.36463 0.0
H1927 H 0.79306 0.14148 0.44474 0.0
H1928 H 0.79563 0.15634 0.41227 0.0
H1929 H 0.79516 0.21468 0.412 0.0
H1930 H 0.77399 0.26538 0.32992 0.0
H1931 H 0.77723 0.2475 0.36 0.0
C1932 C 0.626 0.98932 0.23519 0.0
C1933 C 0.61804 0.98477 0.25361 0.0
C1934 C 0.61454 0.9924 0.21918 0.0
C1935 C 0.56707 0.985 0.20007 0.0
H1936 H 0.57916 0.02955 0.16877 0.0
C1937 C 0.53348 0.00216 0.12561 0.0
C1938 C 0.52911 0.02121 0.1215 0.0
C1939 C 0.54303 0.99716 0.14253 0.0
C1940 C 0.57549 0.01716 0.17746 0.0
H1941 H 0.59186 0.97904 0.26945 0.0
H1942 H 0.57181 0.9845 0.24139 0.0
H1943 H 0.59856 0.02119 0.19644 0.0
H1944 H 0.53093 0.04988 0.13223 0.0
H1945 H 0.54736 0.04113 0.16188 0.0
H1946 H 0.54385 0.98114 0.18109 0.0
C1947 C 0.58693 0.98562 0.23939 0.0
C1948 C 0.58675 0.01223 0.19316 0.0
C1949 C 0.59842 0.98255 0.25546 0.0
C1950 C 0.53399 0.03508 0.13499 0.0
C1951 C 0.54358 0.03009 0.15188 0.0
C1952 C 0.55582 0.98991 0.18427 0.0
C1953 C 0.59487 0.99099 0.2212 0.0
C1954 C 0.58273 0.99606 0.20458 0.0
C1955 C 0.54844 0.01111 0.15569 0.0
C1956 C 0.55994 0.00604 0.1728 0.0
H1957 H 0.64107 0.99099 0.2332 0.0
H1958 H 0.62108 0.99616 0.20524 0.0
H1959 H 0.56368 0.97243 0.20859 0.0
H1960 H 0.52966 0.99111 0.11567 0.0
H1961 H 0.54667 0.98243 0.14501 0.0
C1962 C 0.78908 0.86993 0.94844 0.0
C1963 C 0.7732 0.87621 0.95923 0.0
C1964 C 0.78704 0.86105 0.93048 0.0
C1965 C 0.75291 0.83546 0.90071 0.0
H1966 H 0.78778 0.84806 0.85823 0.0
C1967 C 0.75979 0.79169 0.82974 0.0
C1968 C 0.76303 0.80154 0.81203 0.0
C1969 C 0.75959 0.80125 0.84753 0.0
C1970 C 0.7778 0.84449 0.86986 0.0
H1971 H 0.74268 0.87793 0.95958 0.0
H1972 H 0.73914 0.86248 0.92817 0.0
H1973 H 0.79028 0.8639 0.88946 0.0
H1974 H 0.76804 0.82929 0.79917 0.0
H1975 H 0.76754 0.84594 0.83016 0.0
H1976 H 0.74035 0.81613 0.881 0.0
C1977 C 0.75318 0.8643 0.93371 0.0
C1978 C 0.77939 0.85342 0.88786 0.0
C1979 C 0.75521 0.87324 0.95168 0.0
C1980 C 0.76555 0.82124 0.81252 0.0
C1981 C 0.7654 0.83078 0.83031 0.0
C1982 C 0.75137 0.82646 0.8827 0.0
C1983 C 0.76908 0.85819 0.92283 0.0
C1984 C 0.76703 0.84895 0.90355 0.0
C1985 C 0.76269 0.82087 0.84806 0.0
C1986 C 0.76384 0.83083 0.86707 0.0
H1987 H 0.80314 0.87191 0.95383 0.0
H1988 H 0.79958 0.85627 0.92264 0.0
H1989 H 0.74325 0.83158 0.91251 0.0
H1990 H 0.75782 0.77651 0.82992 0.0
H1991 H 0.75763 0.79314 0.86092 0.0
C1992 C 0.82159 0.94456 0.00727 0.0
C1993 C 0.81319 0.93976 0.02543 0.0
C1994 C 0.83896 0.95382 0.00628 0.0
C1995 C 0.88187 0.96044 0.03414 0.0
H1996 H 0.8908 0.00341 -0.00043 0.0
C1997 C 0.95161 0.00121 0.03593 0.0
C1998 C 0.95957 0.00759 0.01811 0.0
C1999 C 0.93324 0.99422 0.03688 0.0
C2000 C 0.88865 0.99128 0.00913 0.0
H2001 H 0.81644 0.94108 0.05681 0.0
H2002 H 0.8468 0.95702 0.05505 0.0
H2003 H 0.85984 0.98851 0.00082 0.0
H2004 H 0.95435 0.01195 0.98733 0.0
H2005 H 0.92247 -0.00072 0.98882 0.0
H2006 H 0.91065 0.96271 0.04213 0.0
C2007 C 0.83995 0.9536 0.04158 0.0
C2008 C 0.87087 0.98278 0.00987 0.0
C2009 C 0.8225 0.94455 0.04257 0.0
C2010 C 0.94858 0.00725 0.00131 0.0
C2011 C 0.93025 3e-05 0.0022 0.0
C2012 C 0.89966 0.96877 0.03325 0.0
C2013 C 0.84842 0.95827 0.02343 0.0
C2014 C 0.86727 0.96732 0.02246 0.0
C2015 C 0.92241 0.99317 0.01996 0.0
C2016 C 0.90332 0.98438 0.02082 0.0
H2017 H 0.81478 0.94109 0.99379 0.0
H2018 H 0.84521 0.95711 0.99208 0.0
H2019 H 0.87962 0.94835 0.04375 0.0
H2020 H 0.95964 0.00143 0.04919 0.0
H2021 H 0.92759 0.98955 0.05091 0.0
C2022 C 0.33335 0.65407 0.0002 0.0
C2023 C 0.31839 0.65312 0.01392 0.0
C2024 C 0.34425 0.63805 0.99611 0.0
C2025 C 0.35962 0.59277 0.01636 0.0
H2026 H 0.37392 0.58263 0.96247 0.0
C2027 C 0.41524 0.53621 0.99769 0.0
C2028 C 0.42995 0.54367 0.98599 0.0
C2029 C 0.39793 0.54574 -0.00091 0.0
C2030 C 0.36996 0.58521 0.97758 0.0
H2031 H 0.30341 0.63476 0.0345 0.0
H2032 H 0.32272 0.60679 0.0275 0.0
H2033 H 0.35114 0.60771 0.96984 0.0
H2034 H 0.43767 0.56589 0.96529 0.0
H2035 H 0.4077 0.58243 0.96771 0.0
H2036 H 0.3791 0.57091 0.02418 0.0
C2037 C 0.32589 0.61993 0.01986 0.0
C2038 C 0.357 0.59959 0.98179 0.0
C2039 C 0.31487 0.63594 0.02386 0.0
C2040 C 0.42662 0.5599 0.97454 0.0
C2041 C 0.40935 0.5693 0.97582 0.0
C2042 C 0.37267 0.57843 0.01215 0.0
C2043 C 0.34051 0.62078 0.00575 0.0
C2044 C 0.35219 0.60391 0.00124 0.0
C2045 C 0.39506 0.56272 0.98864 0.0
C2046 C 0.37844 0.57494 0.99274 0.0
H2047 H 0.33643 0.66708 0.99229 0.0
H2048 H 0.35569 0.6392 0.98544 0.0
H2049 H 0.35619 0.59584 0.03149 0.0
H2050 H 0.41745 0.5237 0.00666 0.0
H2051 H 0.38708 0.54026 0.00893 0.0
C2052 C 0.1764 0.54099 0.76599 0.0
C2053 C 0.17758 0.52777 0.75084 0.0
C2054 C 0.18351 0.55918 0.76325 0.0
C2055 C 0.19816 0.59435 0.72616 0.0
H2056 H 0.23051 0.61208 0.76693 0.0
C2057 C 0.24503 0.66025 0.71649 0.0
C2058 C 0.24633 0.67236 0.73254 0.0
C2059 C 0.236 0.64284 0.71847 0.0
C2060 C 0.22131 0.60746 0.75554 0.0
H2061 H 0.1864 0.52348 0.72066 0.0
H2062 H 0.19887 0.55535 0.71591 0.0
H2063 H 0.21509 0.58157 0.77067 0.0
H2064 H 0.23931 0.67549 0.76334 0.0
H2065 H 0.22314 0.6454 0.76666 0.0
H2066 H 0.20436 0.62031 0.71105 0.0
C2067 C 0.1924 0.5516 0.72988 0.0
C2068 C 0.21249 0.58999 0.75768 0.0
C2069 C 0.18534 0.53334 0.73263 0.0
C2070 C 0.23839 0.66664 0.75062 0.0
C2071 C 0.22931 0.64927 0.75258 0.0
C2072 C 0.20692 0.6119 0.72406 0.0
C2073 C 0.19187 0.56454 0.74529 0.0
C2074 C 0.20084 0.58326 0.74302 0.0
C2075 C 0.22803 0.63718 0.73654 0.0
C2076 C 0.2186 0.61863 0.73873 0.0
H2077 H 0.17038 0.53719 0.78016 0.0
H2078 H 0.18266 0.56899 0.77528 0.0
H2079 H 0.18911 0.58954 0.71473 0.0
H2080 H 0.25077 0.66429 0.7023 0.0
H2081 H 0.23543 0.63374 0.70588 0.0
C2082 C 0.22217 0.46237 0.5015 0.0
C2083 C 0.23011 0.44927 0.51456 0.0
C2084 C 0.20536 0.47179 0.50638 0.0
C2085 C 0.16315 0.46738 0.53861 0.0
H2086 H 0.15398 0.51902 0.52142 0.0
C2087 C 0.09175 0.50549 0.55291 0.0
C2088 C 0.08417 0.51401 0.53617 0.0
C2089 C 0.11057 0.49938 0.55283 0.0
C2090 C 0.15635 0.50459 0.52632 0.0
H2091 H 0.22691 0.43619 0.54326 0.0
H2092 H 0.19779 0.45285 0.55187 0.0
H2093 H 0.18515 0.5049 0.51645 0.0
H2094 H 0.09055 0.52351 0.50653 0.0
H2095 H 0.12321 0.513 0.50645 0.0
H2096 H 0.13424 0.46703 0.54822 0.0
C2097 C 0.20434 0.45559 0.5377 0.0
C2098 C 0.17417 0.49647 0.5234 0.0
C2099 C 0.2211 0.44611 0.53279 0.0
C2100 C 0.09594 0.51695 0.51966 0.0
C2101 C 0.11472 0.51104 0.51965 0.0
C2102 C 0.14534 0.47555 0.54161 0.0
C2103 C 0.19615 0.4684 0.52448 0.0
C2104 C 0.1777 0.47763 0.52915 0.0
C2105 C 0.12218 0.50192 0.5361 0.0
C2106 C 0.14164 0.49411 0.53514 0.0
H2107 H 0.22871 0.46509 0.48732 0.0
H2108 H 0.19932 0.48134 0.49571 0.0
H2109 H 0.16527 0.45278 0.54301 0.0
H2110 H 0.083 0.50301 0.56584 0.0
H2111 H 0.11599 0.49248 0.56576 0.0
C2112 C 0.87052 0.98332 0.69066 0.0
C2113 C 0.87846 0.99184 0.70695 0.0
C2114 C 0.86113 0.96604 0.69269 0.0
C2115 C 0.83651 0.93656 0.72959 0.0
H2116 H 0.84365 0.8964 0.692 0.0
C2117 C 0.80516 0.86229 0.74218 0.0
C2118 C 0.79708 0.85365 0.72602 0.0
C2119 C 0.81561 0.87887 0.73977 0.0
C2120 C 0.84136 0.90756 0.70251 0.0
H2121 H 0.88318 0.9887 0.73805 0.0
H2122 H 0.86695 0.95866 0.7415 0.0
H2123 H 0.86087 0.92597 0.68759 0.0
H2124 H 0.79407 0.8555 0.69459 0.0
H2125 H 0.81181 0.88458 0.6905 0.0
H2126 H 0.81691 0.9183 0.74443 0.0
C2127 C 0.86772 0.96542 0.72723 0.0
C2128 C 0.85122 0.92447 0.69998 0.0
C2129 C 0.87711 0.9826 0.72521 0.0
C2130 C 0.79983 0.86189 0.7074 0.0
C2131 C 0.81024 0.87845 0.705 0.0
C2132 C 0.82662 0.91969 0.73209 0.0
C2133 C 0.85948 0.95704 0.71106 0.0
C2134 C 0.84892 0.93913 0.71352 0.0
C2135 C 0.81821 0.88716 0.72116 0.0
C2136 C 0.82894 0.90499 0.7186 0.0
H2137 H 0.87133 0.99008 0.6764 0.0
H2138 H 0.8548 0.95996 0.67999 0.0
H2139 H 0.83422 0.94773 0.7401 0.0
H2140 H 0.80321 0.85642 0.75673 0.0
H2141 H 0.82174 0.88513 0.75249 0.0
C2142 C 0.73665 0.09018 0.51861 0.0
C2143 C 0.74784 0.09612 0.53402 0.0
C2144 C 0.71935 0.08148 0.52247 0.0
C2145 C 0.68189 0.08136 0.5595 0.0
H2146 H 0.66188 0.04008 0.52966 0.0
C2147 C 0.60697 0.05295 0.57388 0.0
C2148 C 0.59639 0.04859 0.55744 0.0
C2149 C 0.62614 0.05693 0.57194 0.0
C2150 C 0.66722 0.05173 0.538 0.0
H2151 H 0.75023 0.09659 0.56555 0.0
H2152 H 0.71999 0.08141 0.57224 0.0
H2153 H 0.69474 0.04932 0.52472 0.0
H2154 H 0.5979 0.04483 0.52601 0.0
H2155 H 0.6311 0.05246 0.52255 0.0
H2156 H 0.65434 0.08426 0.57233 0.0
C2157 C 0.72453 0.08368 0.5572 0.0
C2158 C 0.68604 0.05694 0.53523 0.0
C2159 C 0.74187 0.09229 0.55335 0.0
C2160 C 0.60547 0.04838 0.53898 0.0
C2161 C 0.62463 0.05246 0.53702 0.0
C2162 C 0.66307 0.07624 0.56218 0.0
C2163 C 0.7129 0.07864 0.5418 0.0
C2164 C 0.69349 0.07192 0.54583 0.0
C2165 C 0.63519 0.05676 0.55348 0.0
C2166 C 0.65546 0.0615 0.55132 0.0
H2167 H 0.7409 0.09286 0.50355 0.0
H2168 H 0.71063 0.07784 0.51031 0.0
H2169 H 0.68717 0.09319 0.56763 0.0
H2170 H 0.60043 0.05342 0.58829 0.0
H2171 H 0.63391 0.06002 0.58494 0.0
C2172 C 0.21009 0.44052 0.82053 0.0
C2173 C 0.20895 0.45273 0.80436 0.0
C2174 C 0.22572 0.42867 0.82261 0.0
C2175 C 0.2611 0.40639 0.78988 0.0
H2176 H 0.26834 0.37617 0.83671 0.0
C2177 C 0.28593 0.33009 0.78439 0.0
C2178 C 0.27013 0.31913 0.78962 0.0
C2179 C 0.28715 0.34877 0.7907 0.0
C2180 C 0.2669 0.38474 0.82361 0.0
H2181 H 0.22394 0.46407 0.77904 0.0
H2182 H 0.25188 0.44437 0.78333 0.0
H2183 H 0.25518 0.40806 0.83941 0.0
H2184 H 0.24422 0.31823 0.8069 0.0
H2185 H 0.24655 0.3507 0.81825 0.0
H2186 H 0.27239 0.38284 0.77413 0.0
C2187 C 0.24035 0.44299 0.79383 0.0
C2188 C 0.25911 0.40289 0.82507 0.0
C2189 C 0.2244 0.45437 0.79139 0.0
C2190 C 0.25643 0.3265 0.80254 0.0
C2191 C 0.2579 0.34496 0.80922 0.0
C2192 C 0.26934 0.38851 0.7885 0.0
C2193 C 0.24077 0.42918 0.80881 0.0
C2194 C 0.25477 0.41335 0.80809 0.0
C2195 C 0.27287 0.35647 0.80274 0.0
C2196 C 0.27111 0.37709 0.80521 0.0
H2197 H 0.19831 0.4391 0.83076 0.0
H2198 H 0.2252 0.4182 0.83424 0.0
H2199 H 0.25806 0.41375 0.77637 0.0
H2200 H 0.29669 0.32466 0.77444 0.0
H2201 H 0.2987 0.35749 0.78539 0.0
C2202 C 0.3383 0.6152 0.2543 0.0
C2203 C 0.34671 0.60527 0.26973 0.0
C2204 C 0.32731 0.6313 0.25797 0.0
C2205 C 0.30275 0.65788 0.2979 0.0
H2206 H 0.3089 0.70021 0.26188 0.0
C2207 C 0.28348 0.73564 0.31596 0.0
C2208 C 0.27484 0.74642 0.30126 0.0
C2209 C 0.28961 0.71716 0.31227 0.0
C2210 C 0.30683 0.68843 0.27193 0.0
H2211 H 0.35004 0.60429 0.30113 0.0
H2212 H 0.33142 0.63265 0.30747 0.0
H2213 H 0.32483 0.6704 0.25494 0.0
H2214 H 0.26513 0.74599 0.27143 0.0
H2215 H 0.27596 0.71382 0.26502 0.0
H2216 H 0.2853 0.67638 0.31524 0.0
C2217 C 0.33288 0.6278 0.29257 0.0
C2218 C 0.31592 0.6713 0.26794 0.0
C2219 C 0.34368 0.61159 0.28892 0.0
C2220 C 0.27177 0.73809 0.28307 0.0
C2221 C 0.27805 0.7197 0.27934 0.0
C2222 C 0.29382 0.67512 0.30199 0.0
C2223 C 0.32467 0.63795 0.27713 0.0
C2224 C 0.31411 0.65583 0.28093 0.0
C2225 C 0.28735 0.7092 0.29377 0.0
C2226 C 0.29586 0.69058 0.28908 0.0
H2227 H 0.34024 0.61056 0.23936 0.0
H2228 H 0.32093 0.63854 0.24575 0.0
H2229 H 0.30078 0.64618 0.30806 0.0
H2230 H 0.28602 0.74166 0.33013 0.0
H2231 H 0.29684 0.70939 0.32362 0.0
C2232 C 0.52652 0.71027 0.61695 0.0
C2233 C 0.51712 0.72497 0.60704 0.0
C2234 C 0.52707 0.69191 0.60942 0.0
C2235 C 0.52266 0.66519 0.56386 0.0
H2236 H 0.51132 0.62259 0.59821 0.0
C2237 C 0.51202 0.59053 0.53314 0.0
C2238 C 0.51872 0.57486 0.5438 0.0
C2239 C 0.51168 0.6086 0.54126 0.0
C2240 C 0.5148 0.63426 0.58843 0.0
H2241 H 0.50122 0.73189 0.58123 0.0
H2242 H 0.50241 0.69996 0.56799 0.0
H2243 H 0.5117 0.65453 0.61137 0.0
H2244 H 0.53019 0.56591 0.5715 0.0
H2245 H 0.53004 0.59752 0.58554 0.0
H2246 H 0.52612 0.64507 0.54098 0.0
C2247 C 0.50933 0.70264 0.58161 0.0
C2248 C 0.51496 0.6526 0.596 0.0
C2249 C 0.50859 0.72093 0.58924 0.0
C2250 C 0.52483 0.57766 0.56293 0.0
C2251 C 0.52467 0.59582 0.571 0.0
C2252 C 0.52268 0.64686 0.55633 0.0
C2253 C 0.51844 0.68787 0.59169 0.0
C2254 C 0.51877 0.6683 0.58378 0.0
C2255 C 0.51825 0.61159 0.56021 0.0
C2256 C 0.5186 0.63112 0.56845 0.0
H2257 H 0.53321 0.71285 0.63072 0.0
H2258 H 0.53436 0.6809 0.61744 0.0
H2259 H 0.52592 0.67694 0.55411 0.0
H2260 H 0.50708 0.58887 0.51841 0.0
H2261 H 0.5062 0.62023 0.53262 0.0
C2262 C 0.60606 0.25627 0.89686 0.0
C2263 C 0.58939 0.2575 0.88623 0.0
C2264 C 0.62355 0.25539 0.88716 0.0
C2265 C 0.64582 0.24399 0.83954 0.0
H2266 H 0.68635 0.27562 0.85713 0.0
C2267 C 0.71102 0.26181 0.79169 0.0
C2268 C 0.72854 0.26296 0.80071 0.0
C2269 C 0.6946 0.25901 0.80286 0.0
C2270 C 0.67528 0.26646 0.85223 0.0
H2271 H 0.57797 0.25879 0.85711 0.0
H2272 H 0.60848 0.25746 0.84023 0.0
H2273 H 0.65651 0.27499 0.87541 0.0
H2274 H 0.74267 0.2615 0.82848 0.0
H2275 H 0.71394 0.25645 0.84797 0.0
H2276 H 0.66451 0.23569 0.81619 0.0
C2277 C 0.60802 0.25692 0.85605 0.0
C2278 C 0.65819 0.26612 0.86268 0.0
C2279 C 0.59055 0.25783 0.86573 0.0
C2280 C 0.72936 0.26075 0.8211 0.0
C2281 C 0.71292 0.25796 0.83227 0.0
C2282 C 0.66292 0.24432 0.82909 0.0
C2283 C 0.62469 0.25568 0.86666 0.0
C2284 C 0.6432 0.25509 0.85629 0.0
C2285 C 0.69534 0.2573 0.82329 0.0
C2286 C 0.67773 0.25576 0.83518 0.0
H2287 H 0.60562 0.25591 0.91267 0.0
H2288 H 0.63616 0.25429 0.89571 0.0
H2289 H 0.63462 0.23509 0.83447 0.0
H2290 H 0.70992 0.26346 0.77601 0.0
H2291 H 0.68124 0.25878 0.79554 0.0
C2292 C 0.01055 0.33071 0.10912 0.0
C2293 C 0.01983 0.31602 0.09898 0.0
C2294 C 0.00954 0.34896 0.10105 0.0
C2295 C 0.01315 0.37617 0.05472 0.0
H2296 H 0.02482 0.41811 0.08832 0.0
C2297 C 0.00401 0.45519 0.03149 0.0
C2298 C 0.01881 0.46739 0.03609 0.0
C2299 C 0.00364 0.43656 0.03874 0.0
C2300 C 0.02158 0.40656 0.07872 0.0
H2301 H 0.03487 0.309 0.07209 0.0
H2302 H 0.03294 0.34085 0.05795 0.0
H2303 H 0.02487 0.38589 0.10152 0.0
H2304 H 0.04481 0.46948 0.05195 0.0
H2305 H 0.04404 0.43714 0.06467 0.0
H2306 H 0.00998 0.39691 0.03188 0.0
C2307 C 0.02646 0.3382 0.07217 0.0
C2308 C 0.02143 0.3881 0.08634 0.0
C2309 C 0.02763 0.31996 0.08032 0.0
C2310 C 0.03318 0.46051 0.04811 0.0
C2311 C 0.0327 0.44198 0.0555 0.0
C2312 C 0.0131 0.39468 0.04714 0.0
C2313 C 0.01762 0.35299 0.08255 0.0
C2314 C 0.01731 0.37266 0.07442 0.0
C2315 C 0.01793 0.42977 0.05094 0.0
C2316 C 0.01744 0.41009 0.05903 0.0
H2317 H 0.00435 0.32822 0.12351 0.0
H2318 H 0.00242 0.35997 0.10933 0.0
H2319 H 0.0098 0.36461 0.04518 0.0
H2320 H 0.99271 0.46003 0.02228 0.0
H2321 H 0.99198 0.42756 0.03507 0.0
C2322 C 0.95491 0.72947 0.3989 0.0
C2323 C 0.97282 0.73714 0.39508 0.0
C2324 C 0.9412 0.7301 0.3846 0.0
C2325 C 0.93352 0.73859 0.33185 0.0
H2326 H 0.88465 0.75682 0.35009 0.0
C2327 C 0.87633 0.76606 0.27955 0.0
C2328 C 0.85778 0.76027 0.28379 0.0
C2329 C 0.89064 0.76241 0.29282 0.0
C2330 C 0.89815 0.75153 0.34479 0.0
H2331 H 0.99079 0.75044 0.3729 0.0
H2332 H 0.96684 0.75168 0.34811 0.0
H2333 H 0.90916 0.75032 0.37354 0.0
H2334 H 0.83986 0.74567 0.30512 0.0
H2335 H 0.86463 0.73951 0.32815 0.0
H2336 H 0.92248 0.74004 0.30303 0.0
C2337 C 0.96338 0.74511 0.36208 0.0
C2338 C 0.91217 0.74772 0.35823 0.0
C2339 C 0.97708 0.74449 0.37635 0.0
C2340 C 0.85385 0.75079 0.30156 0.0
C2341 C 0.86809 0.74716 0.31477 0.0
C2342 C 0.91947 0.74241 0.31838 0.0
C2343 C 0.94515 0.73837 0.36622 0.0
C2344 C 0.93002 0.74126 0.35192 0.0
C2345 C 0.88663 0.75291 0.31055 0.0
C2346 C 0.90165 0.74896 0.32472 0.0
H2347 H 0.95124 0.72359 0.41314 0.0
H2348 H 0.92735 0.72449 0.38808 0.0
H2349 H 0.9471 0.73347 0.32658 0.0
H2350 H 0.87976 0.77349 0.26605 0.0
H2351 H 0.90477 0.76721 0.28929 0.0
C2352 C 0.49088 0.30202 0.94876 0.0
C2353 C 0.50884 0.2982 0.94067 0.0
C2354 C 0.4878 0.31798 0.96025 0.0
C2355 C 0.5076 0.36505 0.96809 0.0
H2356 H 0.47265 0.36606 0.01243 0.0
C2357 C 0.49443 0.43345 0.00935 0.0
C2358 C 0.47538 0.43855 0.01173 0.0
C2359 C 0.4995 0.415 0.00448 0.0
C2360 C 0.48243 0.36594 6e-05 0.0
H2361 H 0.53786 0.3076 0.93899 0.0
H2362 H 0.53257 0.33526 0.95931 0.0
H2363 H 0.47994 0.336 0.99644 0.0
H2364 H 0.44675 0.42817 0.0122 0.0
H2365 H 0.45559 0.39579 0.00346 0.0
H2366 H 0.5099 0.39491 0.9714 0.0
C2367 C 0.52075 0.32617 0.95641 0.0
C2368 C 0.48657 0.34879 0.99089 0.0
C2369 C 0.5238 0.3103 0.94481 0.0
C2370 C 0.46153 0.42456 0.01049 0.0
C2371 C 0.46661 0.40605 0.00551 0.0
C2372 C 0.50354 0.38211 0.97728 0.0
C2373 C 0.50265 0.33037 0.96398 0.0
C2374 C 0.49908 0.34821 0.97468 0.0
C2375 C 0.4856 0.40129 0.00181 0.0
C2376 C 0.4908 0.38278 0.99325 0.0
H2377 H 0.47907 0.29293 0.94583 0.0
H2378 H 0.47364 0.32093 0.96566 0.0
H2379 H 0.51697 0.36519 0.95539 0.0
H2380 H 0.50539 0.4439 0.01068 0.0
H2381 H 0.51428 0.41161 0.00214 0.0
C2382 C 0.96036 0.29416 0.18897 0.0
C2383 C 0.96825 0.27901 0.17837 0.0
C2384 C 0.94241 0.29267 0.19772 0.0
C2385 C 0.89782 0.26671 0.19385 0.0
H2386 H 0.88697 0.28667 0.24541 0.0
C2387 C 0.82507 0.2568 0.23223 0.0
C2388 C 0.81773 0.27196 0.24319 0.0
C2389 C 0.84364 0.25715 0.22492 0.0
C2390 C 0.88967 0.28122 0.2309 0.0
H2391 H 0.9635 0.25024 0.169 0.0
H2392 H 0.93222 0.24767 0.18427 0.0
H2393 H 0.91898 0.28814 0.23182 0.0
H2394 H 0.8242 0.29946 0.25499 0.0
H2395 H 0.85639 0.30026 0.24195 0.0
H2396 H 0.86852 0.26008 0.19271 0.0
C2397 C 0.93987 0.26077 0.18567 0.0
C2398 C 0.90807 0.28203 0.22313 0.0
C2399 C 0.95787 0.26221 0.17703 0.0
C2400 C 0.82942 0.28748 0.24669 0.0
C2401 C 0.84796 0.28788 0.2393 0.0
C2402 C 0.87941 0.266 0.20156 0.0
C2403 C 0.93185 0.27604 0.19599 0.0
C2404 C 0.91237 0.27481 0.2045 0.0
C2405 C 0.85534 0.27273 0.22829 0.0
C2406 C 0.87506 0.27327 0.22019 0.0
H2407 H 0.96794 0.30731 0.1903 0.0
H2408 H 0.9366 0.30476 0.20541 0.0
H2409 H 0.90057 0.26129 0.17933 0.0
H2410 H 0.81648 0.24457 0.22933 0.0
H2411 H 0.84887 0.24509 0.21679 0.0
C2412 C 0.04347 0.72603 0.49535 0.0
C2413 C 0.02942 0.72541 0.48124 0.0
C2414 C 0.04536 0.71122 0.50889 0.0
C2415 C 0.02129 0.66926 0.53002 0.0
H2416 H 0.07012 0.64462 0.52525 0.0
C2417 C 0.04728 0.5904 0.52063 0.0
C2418 C 0.03831 0.58097 0.53634 0.0
C2419 C 0.04914 0.60999 0.52073 0.0
C2420 C 0.05652 0.6515 0.52707 0.0
H2421 H 0.00568 0.70952 0.47091 0.0
H2422 H 0.0089 0.68382 0.49452 0.0
H2423 H 0.0662 0.67701 0.51318 0.0
H2424 H 0.02492 0.58443 0.56486 0.0
H2425 H 0.02772 0.61901 0.56475 0.0
H2426 H 0.01129 0.64327 0.54258 0.0
C2427 C 0.01844 0.69568 0.49519 0.0
C2428 C 0.0543 0.67006 0.52029 0.0
C2429 C 0.01674 0.71028 0.48151 0.0
C2430 C 0.03187 0.5914 0.55254 0.0
C2431 C 0.03347 0.61112 0.5525 0.0
C2432 C 0.02355 0.65075 0.53693 0.0
C2433 C 0.03301 0.6958 0.50873 0.0
C2434 C 0.03643 0.6787 0.52077 0.0
C2435 C 0.04186 0.62058 0.53644 0.0
C2436 C 0.04095 0.6414 0.53455 0.0
H2437 H 0.05341 0.73758 0.49547 0.0
H2438 H 0.05672 0.71158 0.51917 0.0
H2439 H 0.00741 0.67573 0.53071 0.0
H2440 H 0.05249 0.58269 0.50801 0.0
H2441 H 0.0554 0.61693 0.50801 0.0
C2442 C 0.57502 0.74935 0.69612 0.0
C2443 C 0.5683 0.76416 0.68423 0.0
C2444 C 0.59238 0.75078 0.70526 0.0
C2445 C 0.62907 0.78526 0.71926 0.0
H2446 H 0.66121 0.74069 0.72014 0.0
C2447 C 0.70837 0.78795 0.73752 0.0
C2448 C 0.7159 0.77301 0.74871 0.0
C2449 C 0.68983 0.78725 0.73103 0.0
C2450 C 0.65233 0.75322 0.72027 0.0
H2451 H 0.57453 0.79228 0.67293 0.0
H2452 H 0.60489 0.79467 0.68862 0.0
H2453 H 0.63 0.73882 0.70632 0.0
H2454 H 0.7096 0.7458 0.76221 0.0
H2455 H 0.67726 0.74464 0.75098 0.0
H2456 H 0.65161 0.79971 0.73295 0.0
C2457 C 0.59663 0.78202 0.69112 0.0
C2458 C 0.63438 0.75214 0.71234 0.0
C2459 C 0.57923 0.78061 0.68203 0.0
C2460 C 0.70429 0.75753 0.75357 0.0
C2461 C 0.68578 0.75681 0.74702 0.0
C2462 C 0.64707 0.78635 0.72713 0.0
C2463 C 0.60354 0.76705 0.70272 0.0
C2464 C 0.62251 0.76816 0.71166 0.0
C2465 C 0.67836 0.77157 0.73551 0.0
C2466 C 0.65896 0.77035 0.72768 0.0
H2467 H 0.56695 0.73652 0.69824 0.0
H2468 H 0.59705 0.7391 0.71434 0.0
H2469 H 0.62024 0.79781 0.71928 0.0
H2470 H 0.71691 0.80007 0.73345 0.0
H2471 H 0.68466 0.79877 0.72203 0.0
C2472 C 0.62641 0.48164 0.73533 0.0
C2473 C 0.63143 0.49847 0.74455 0.0
C2474 C 0.61832 0.48218 0.71695 0.0
C2475 C 0.59099 0.51379 0.68535 0.0
H2476 H 0.60213 0.47595 0.6461 0.0
C2477 C 0.55749 0.51566 0.60936 0.0
C2478 C 0.55101 0.49833 0.60231 0.0
C2479 C 0.56838 0.5162 0.62606 0.0
C2480 C 0.59879 0.48652 0.65699 0.0
H2481 H 0.63256 0.52903 0.74143 0.0
H2482 H 0.6186 0.52994 0.70922 0.0
H2483 H 0.62 0.4761 0.67612 0.0
H2484 H 0.55105 0.46796 0.60719 0.0
H2485 H 0.56977 0.46892 0.63654 0.0
H2486 H 0.56965 0.52409 0.66632 0.0
C2487 C 0.62066 0.51635 0.71635 0.0
C2488 C 0.60902 0.48663 0.67416 0.0
C2489 C 0.62875 0.51582 0.73475 0.0
C2490 C 0.55564 0.48155 0.61235 0.0
C2491 C 0.56658 0.48208 0.62902 0.0
C2492 C 0.58078 0.5137 0.66818 0.0
C2493 C 0.61509 0.49956 0.70739 0.0
C2494 C 0.60511 0.50015 0.6886 0.0
C2495 C 0.57306 0.49941 0.63605 0.0
C2496 C 0.58444 0.49996 0.6539 0.0
H2497 H 0.62829 0.46804 0.74249 0.0
H2498 H 0.614 0.469 0.71054 0.0
H2499 H 0.58743 0.52421 0.69633 0.0
H2500 H 0.55401 0.52886 0.60208 0.0
H2501 H 0.57328 0.52975 0.63105 0.0
C2502 C 0.75271 0.37919 0.97189 0.0
C2503 C 0.75801 0.37478 0.99105 0.0
C2504 C 0.7598 0.36867 0.95621 0.0
C2505 C 0.78031 0.323 0.94236 0.0
H2506 H 0.79867 0.35121 0.89701 0.0
C2507 C 0.80914 0.28635 0.87205 0.0
C2508 C 0.80189 0.29392 0.85469 0.0
C2509 C 0.80643 0.29591 0.88974 0.0
C2510 C 0.79354 0.34311 0.90952 0.0
H2511 H 0.77442 0.35548 0.00886 0.0
H2512 H 0.78663 0.33693 0.98136 0.0
H2513 H 0.78784 0.36812 0.92598 0.0
H2514 H 0.78702 0.31785 0.84208 0.0
H2515 H 0.78202 0.33419 0.87263 0.0
H2516 H 0.78544 0.29798 0.9256 0.0
C2517 C 0.77706 0.3486 0.97855 0.0
C2518 C 0.78733 0.3528 0.92609 0.0
C2519 C 0.77011 0.35926 0.99425 0.0
C2520 C 0.79248 0.31146 0.85524 0.0
C2521 C 0.78985 0.32098 0.87276 0.0
C2522 C 0.78642 0.31326 0.92567 0.0
C2523 C 0.77222 0.35342 0.95935 0.0
C2524 C 0.78025 0.34288 0.9425 0.0
C2525 C 0.79664 0.31329 0.89026 0.0
C2526 C 0.79266 0.32325 0.9089 0.0
H2527 H 0.74339 0.39103 0.96892 0.0
H2528 H 0.75559 0.3725 0.94158 0.0
H2529 H 0.7749 0.31502 0.95483 0.0
H2530 H 0.81642 0.27284 0.87201 0.0
H2531 H 0.81194 0.28969 0.90298 0.0
C2532 C 0.92758 0.54238 0.20519 0.0
C2533 C 0.93472 0.55331 0.22031 0.0
C2534 C 0.93636 0.54249 0.18682 0.0
C2535 C 0.98033 0.54841 0.16082 0.0
H2536 H 0.94923 0.55987 0.1163 0.0
C2537 C 0.01047 0.5463 0.082 0.0
C2538 C -0.00108 0.53809 0.06808 0.0
C2539 C 0.00322 0.55076 0.10051 0.0
C2540 C 0.95808 0.55647 0.12854 0.0
H2541 H 0.95696 0.57244 0.2283 0.0
H2542 H 0.97272 0.57213 0.19603 0.0
H2543 H 0.93578 0.56211 0.14925 0.0
H2544 H 0.97071 0.52823 0.06249 0.0
H2545 H 0.95821 0.53538 0.0949 0.0
H2546 H 0.00238 0.54179 0.14022 0.0
C2547 C 0.96016 0.56375 0.1985 0.0
C2548 C 0.9504 0.55788 0.14736 0.0
C2549 C 0.95115 0.56392 0.21687 0.0
C2550 C 0.97992 0.53467 0.07288 0.0
C2551 C 0.97274 0.5389 0.09144 0.0
C2552 C 0.98797 0.54671 0.14194 0.0
C2553 C 0.9526 0.55327 0.18329 0.0
C2554 C 0.96137 0.55356 0.1636 0.0
C2555 C 0.98432 0.54689 0.10553 0.0
C2556 C 0.97682 0.5504 0.12557 0.0
H2557 H 0.91491 0.5341 0.20736 0.0
H2558 H 0.93044 0.53414 0.17531 0.0
H2559 H 0.98899 0.54492 0.17319 0.0
H2560 H 0.02516 0.54922 0.07863 0.0
H2561 H 0.01245 0.55718 0.11088 0.0
C2562 C 0.75085 0.66755 0.45036 0.0
C2563 C 0.76676 0.66401 0.46173 0.0
C2564 C 0.75279 0.67507 0.43148 0.0
C2565 C 0.7848 0.70171 0.39835 0.0
H2566 H 0.75488 0.6794 0.35802 0.0
C2567 C 0.79217 0.72466 0.3169 0.0
C2568 C 0.77533 0.72663 0.30662 0.0
C2569 C 0.79215 0.7163 0.33554 0.0
C2570 C 0.7632 0.68594 0.36911 0.0
H2571 H 0.79721 0.66606 0.46227 0.0
H2572 H 0.80058 0.67933 0.42925 0.0
H2573 H 0.7528 0.66687 0.39124 0.0
H2574 H 0.74529 0.72119 0.30787 0.0
H2575 H 0.74521 0.70693 0.3403 0.0
H2576 H 0.79498 0.72101 0.37626 0.0
C2577 C 0.78659 0.67628 0.43502 0.0
C2578 C 0.76201 0.67873 0.38818 0.0
C2579 C 0.78466 0.66862 0.45392 0.0
C2580 C 0.75854 0.71983 0.31531 0.0
C2581 C 0.75851 0.71153 0.33391 0.0
C2582 C 0.78592 0.70901 0.37926 0.0
C2583 C 0.77069 0.67934 0.42349 0.0
C2584 C 0.77263 0.68665 0.40308 0.0
C2585 C 0.77529 0.70972 0.34434 0.0
C2586 C 0.77498 0.70134 0.36443 0.0
H2587 H 0.73684 0.66423 0.45591 0.0
H2588 H 0.74023 0.67756 0.42311 0.0
H2589 H 0.79306 0.70821 0.40952 0.0
H2590 H 0.80536 0.72974 0.31063 0.0
H2591 H 0.80537 0.71494 0.34304 0.0
C2592 C 0.59167 0.48201 0.83157 0.0
C2593 C 0.59121 0.49871 0.82029 0.0
C2594 C 0.57582 0.47638 0.84255 0.0
C2595 C 0.5251 0.48896 0.85327 0.0
H2596 H 0.5385 0.47449 0.90593 0.0
C2597 C 0.49067 0.51654 0.92305 0.0
C2598 C 0.48919 0.50469 0.93958 0.0
C2599 C 0.49785 0.50953 0.90544 0.0
C2600 C 0.53439 0.47802 0.89118 0.0
H2601 H 0.57365 0.52215 0.81091 0.0
H2602 H 0.54646 0.51301 0.83075 0.0
H2603 H 0.56231 0.47369 0.88011 0.0
H2604 H 0.49264 0.47593 0.95037 0.0
H2605 H 0.5058 0.4638 0.91959 0.0
H2606 H 0.49752 0.49504 0.8651 0.0
C2607 C 0.55871 0.50381 0.83075 0.0
C2608 C 0.54807 0.47755 0.87628 0.0
C2609 C 0.57441 0.50922 0.81949 0.0
C2610 C 0.49364 0.48537 0.93782 0.0
C2611 C 0.50117 0.47843 0.92026 0.0
C2612 C 0.51148 0.48975 0.86829 0.0
C2613 C 0.55934 0.48756 0.84282 0.0
C2614 C 0.54383 0.48383 0.8573 0.0
C2615 C 0.50395 0.49064 0.90415 0.0
C2616 C 0.51626 0.48501 0.88751 0.0
H2617 H 0.60437 0.47346 0.83216 0.0
H2618 H 0.57672 0.46356 0.85129 0.0
H2619 H 0.52117 0.49335 0.83871 0.0
H2620 H 0.48721 0.53147 0.92401 0.0
H2621 H 0.50002 0.5193 0.8933 0.0
C2622 C 0.72822 0.3908 0.0901 0.0
C2623 C 0.72252 0.38073 0.07371 0.0
C2624 C 0.7294 0.38185 0.10827 0.0
C2625 C 0.7152 0.33902 0.13643 0.0
H2626 H 0.75985 0.35014 0.16572 0.0
C2627 C 0.74132 0.29243 0.20019 0.0
C2628 C 0.7482 0.30168 0.21661 0.0
C2629 C 0.7365 0.30273 0.18352 0.0
C2630 C 0.74717 0.34708 0.15786 0.0
H2631 H 0.71301 0.35351 0.06362 0.0
H2632 H 0.71544 0.33772 0.09534 0.0
H2633 H 0.75429 0.36687 0.13515 0.0
H2634 H 0.75508 0.32902 0.22856 0.0
H2635 H 0.74667 0.34701 0.19939 0.0
H2636 H 0.70839 0.31887 0.15905 0.0
C2637 C 0.71875 0.35263 0.09419 0.0
C2638 C 0.74396 0.35668 0.14034 0.0
C2639 C 0.71744 0.36165 0.07599 0.0
C2640 C 0.74989 0.32147 0.21612 0.0
C2641 C 0.74514 0.33177 0.19941 0.0
C2642 C 0.71847 0.32935 0.15394 0.0
C2643 C 0.72505 0.36257 0.11045 0.0
C2644 C 0.72798 0.35273 0.12939 0.0
C2645 C 0.73854 0.32248 0.18289 0.0
C2646 C 0.73453 0.33324 0.16477 0.0
H2647 H 0.73204 0.40559 0.08887 0.0
H2648 H 0.73392 0.39001 0.12058 0.0
H2649 H 0.70263 0.33583 0.12845 0.0
H2650 H 0.73984 0.27718 0.20011 0.0
H2651 H 0.73165 0.29518 0.17093 0.0
C2652 C 0.92869 0.56568 0.32145 0.0
C2653 C 0.93417 0.55148 0.30823 0.0
C2654 C 0.94024 0.57021 0.33698 0.0
C2655 C 0.98892 0.56444 0.35476 0.0
H2656 H 0.96513 0.56297 0.40626 0.0
C2657 C 0.02574 0.53666 0.42235 0.0
C2658 C 0.02211 0.54494 0.44064 0.0
C2659 C 0.01645 0.54307 0.40582 0.0
C2660 C 0.97197 0.56388 0.39199 0.0
H2661 H 0.95626 0.53134 0.30055 0.0
H2662 H 0.97621 0.53911 0.32756 0.0
H2663 H 0.94563 0.56415 0.3774 0.0
H2664 H 0.00651 0.56739 0.45541 0.0
H2665 H 0.98993 0.57818 0.42653 0.0
H2666 H 0.01525 0.56315 0.36934 0.0
C2667 C 0.96314 0.5469 0.32589 0.0
C2668 C 0.96081 0.56455 0.37546 0.0
C2669 C 0.95159 0.5423 0.31051 0.0
C2670 C 0.00942 0.56033 0.44174 0.0
C2671 C -3e-05 0.56663 0.42517 0.0
C2672 C 7e-05 0.56372 0.37126 0.0
C2673 C 0.95753 0.56076 0.33941 0.0
C2674 C 0.96918 0.56406 0.35669 0.0
C2675 C 0.0032 0.55785 0.40712 0.0
C2676 C 0.99169 0.56268 0.39 0.0
H2677 H 0.91535 0.57304 0.32001 0.0
H2678 H 0.93561 0.58099 0.34717 0.0
H2679 H 0.99575 0.56444 0.34046 0.0
H2680 H 0.03519 0.52469 0.42078 0.0
H2681 H 0.01901 0.5358 0.39216 0.0
C2682 C 0.77244 0.6649 0.57789 0.0
C2683 C 0.78023 0.67426 0.5614 0.0
C2684 C 0.77238 0.67341 0.59623 0.0
C2685 C 0.77502 0.71963 0.62027 0.0
H2686 H 0.79026 0.69013 0.66537 0.0
C2687 C 0.78557 0.75465 0.69474 0.0
C2688 C 0.7795 0.74475 0.71162 0.0
C2689 C 0.7863 0.74576 0.67661 0.0
C2690 C 0.78573 0.69853 0.653 0.0
H2691 H 0.79379 0.70007 0.55127 0.0
H2692 H 0.79352 0.71499 0.58326 0.0
H2693 H 0.78963 0.67535 0.63338 0.0
H2694 H 0.76972 0.71762 0.72271 0.0
H2695 H 0.77061 0.7022 0.69102 0.0
H2696 H 0.77078 0.74272 0.6398 0.0
C2697 C 0.78746 0.70105 0.58197 0.0
C2698 C 0.78541 0.69005 0.63465 0.0
C2699 C 0.78768 0.69247 0.56365 0.0
C2700 C 0.77456 0.72562 0.71001 0.0
C2701 C 0.77514 0.71676 0.69181 0.0
C2702 C 0.7752 0.72808 0.63863 0.0
C2703 C 0.77994 0.69156 0.5985 0.0
C2704 C 0.7801 0.70052 0.61806 0.0
C2705 C 0.78081 0.72678 0.67482 0.0
C2706 C 0.78063 0.71768 0.65526 0.0
H2707 H 0.76659 0.65085 0.5767 0.0
H2708 H 0.76629 0.66582 0.60864 0.0
H2709 H 0.77061 0.72801 0.60782 0.0
H2710 H 0.7896 0.76938 0.69547 0.0
H2711 H 0.79115 0.75384 0.66397 0.0
C2712 C 0.72194 0.58359 0.5386 0.0
C2713 C 0.72853 0.59607 0.52391 0.0
C2714 C 0.70448 0.57475 0.53705 0.0
C2715 C 0.66751 0.56294 0.50169 0.0
H2716 H 0.63531 0.5604 0.5481 0.0
C2717 C 0.58781 0.54616 0.49959 0.0
C2718 C 0.58003 0.53499 0.51481 0.0
C2719 C 0.60656 0.55205 0.50011 0.0
C2720 C 0.64421 0.56073 0.53506 0.0
H2721 H 0.72201 0.60881 0.49586 0.0
H2722 H 0.69151 0.5936 0.49328 0.0
H2723 H 0.6668 0.57351 0.55016 0.0
H2724 H 0.58608 0.52078 0.54224 0.0
H2725 H 0.61878 0.5309 0.54303 0.0
H2726 H 0.64474 0.55038 0.48656 0.0
C2727 C 0.69993 0.59043 0.5059 0.0
C2728 C 0.6623 0.56826 0.53623 0.0
C2729 C 0.71739 0.59925 0.50745 0.0
C2730 C 0.59159 0.52943 0.5303 0.0
C2731 C 0.61031 0.53534 0.53083 0.0
C2732 C 0.64939 0.55543 0.50051 0.0
C2733 C 0.69316 0.5782 0.52076 0.0
C2734 C 0.67415 0.56955 0.51956 0.0
C2735 C 0.61796 0.54695 0.51589 0.0
C2736 C 0.63749 0.55431 0.51716 0.0
H2737 H 0.73019 0.58074 0.55143 0.0
H2738 H 0.69984 0.56519 0.54862 0.0
H2739 H 0.67636 0.56346 0.48862 0.0
H2740 H 0.57928 0.55074 0.48747 0.0
H2741 H 0.61194 0.56113 0.48846 0.0
C2742 C 0.2069 0.94817 0.57232 0.0
C2743 C 0.2017 0.93627 0.58801 0.0
C2744 C 0.1945 0.95146 0.55709 0.0
C2745 C 0.15018 0.93476 0.53537 0.0
H2746 H 0.14176 0.98812 0.52497 0.0
C2747 C 0.07847 0.96656 0.51783 0.0
C2748 C 0.07744 0.98395 0.50778 0.0
C2749 C 0.09589 0.95784 0.5208 0.0
C2750 C 0.14417 0.97311 0.52716 0.0
H2751 H 0.17973 0.91839 0.60028 0.0
H2752 H 0.1579 0.92424 0.57381 0.0
H2753 H 0.16881 0.97825 0.54353 0.0
H2754 H 0.0935 0.00472 0.49097 0.0
H2755 H 0.12387 0.98928 0.49582 0.0
H2756 H 0.12498 0.92975 0.51969 0.0
C2757 C 0.17169 0.93071 0.57295 0.0
C2758 C 0.15972 0.96745 0.53789 0.0
C2759 C 0.18405 0.92752 0.58821 0.0
C2760 C 0.0939 0.99148 0.49909 0.0
C2761 C 0.1113 0.98267 0.50192 0.0
C2762 C 0.13464 0.94042 0.52454 0.0
C2763 C 0.17667 0.94292 0.55737 0.0
C2764 C 0.16247 0.9483 0.54276 0.0
C2765 C 0.11258 0.96627 0.51363 0.0
C2766 C 0.13106 0.95973 0.52099 0.0
H2767 H 0.22036 0.9553 0.57208 0.0
H2768 H 0.19873 0.96093 0.54527 0.0
H2769 H 0.15218 0.91985 0.53863 0.0
H2770 H 0.06602 0.96033 0.5246 0.0
H2771 H 0.09631 0.94529 0.52999 0.0
C2772 C 0.34031 0.97881 0.79178 0.0
C2773 C 0.35774 0.97945 0.78169 0.0
C2774 C 0.33203 0.96151 0.79654 0.0
C2775 C 0.34046 0.90969 0.79947 0.0
H2776 H 0.28754 0.90778 0.78692 0.0
C2777 C 0.3006 0.8416 0.78091 0.0
C2778 C 0.28129 0.8407 0.78569 0.0
C2779 C 0.31093 0.85766 0.7854 0.0
C2780 C 0.3022 0.9081 0.79093 0.0
H2781 H 0.38054 0.96252 0.76935 0.0
H2782 H 0.36576 0.93219 0.77716 0.0
H2783 H 0.30384 0.93772 0.7851 0.0
H2784 H 0.25806 0.85488 0.80055 0.0
H2785 H 0.27611 0.88286 0.80865 0.0
H2786 H 0.3388 0.87975 0.80458 0.0
C2787 C 0.35867 0.94508 0.78169 0.0
C2788 C 0.31158 0.9253 0.78986 0.0
C2789 C 0.36706 0.96244 0.77708 0.0
C2790 C 0.27284 0.85544 0.79636 0.0
C2791 C 0.28317 0.87141 0.80098 0.0
C2792 C 0.33104 0.89239 0.80051 0.0
C2793 C 0.34088 0.94446 0.79112 0.0
C2794 C 0.33085 0.92628 0.79388 0.0
C2795 C 0.30211 0.87301 0.79484 0.0
C2796 C 0.31185 0.89141 0.79602 0.0
H2797 H 0.33292 0.99169 0.79584 0.0
H2798 H 0.3185 0.9615 0.80417 0.0
H2799 H 0.35528 0.91006 0.80285 0.0
H2800 H 0.30744 0.83047 0.77258 0.0
H2801 H 0.32546 0.85852 0.78034 0.0
C2802 C 0.31928 0.09932 0.03055 0.0
C2803 C 0.31106 0.09931 0.01206 0.0
C2804 C 0.33621 0.08967 0.03373 0.0
C2805 C 0.36777 0.0524 0.01359 0.0
H2806 H 0.40601 0.07812 0.04267 0.0
C2807 C 0.44563 0.02821 0.01311 0.0
C2808 C 0.45582 0.02985 0.03037 0.0
C2809 C 0.42728 0.03534 0.012 0.0
C2810 C 0.39541 0.07058 0.03479 0.0
H2811 H 0.31405 0.08883 0.98251 0.0
H2812 H 0.34366 0.07209 0.98803 0.0
H2813 H 0.3753 0.09301 0.03858 0.0
H2814 H 0.45448 0.03984 0.0602 0.0
H2815 H 0.42232 0.05208 0.05834 0.0
H2816 H 0.38796 0.03004 0.00966 0.0
C2817 C 0.33691 0.07943 0.00012 0.0
C2818 C 0.37778 0.07914 0.03242 0.0
C2819 C 0.31998 0.08912 0.99693 0.0
C2820 C 0.44705 0.03839 0.04666 0.0
C2821 C 0.42865 0.04552 0.04556 0.0
C2822 C 0.3854 0.04382 0.01599 0.0
C2823 C 0.34532 0.07974 0.01852 0.0
C2824 C 0.3638 0.07023 0.02166 0.0
C2825 C 0.41862 0.04428 0.02813 0.0
C2826 C 0.3995 0.05287 0.02648 0.0
H2827 H 0.31275 0.10695 0.04257 0.0
H2828 H 0.34217 0.08998 0.04814 0.0
H2829 H 0.35722 0.04502 0.00548 0.0
H2830 H 0.45197 0.02177 0.00025 0.0
H2831 H 0.42009 0.03435 -0.00172 0.0
C2832 C 0.64755 0.58632 0.80643 0.0
C2833 C 0.65374 0.5692 0.81479 0.0
C2834 C 0.65606 0.60337 0.81119 0.0
C2835 C 0.70185 0.61989 0.82643 0.0
H2836 H 0.67718 0.669 0.82756 0.0
C2837 C 0.7461 0.68679 0.82386 0.0
C2838 C 0.74053 0.70016 0.8098 0.0
C2839 C 0.73376 0.6726 0.83019 0.0
C2840 C 0.68426 0.65538 0.82729 0.0
H2841 H 0.67269 0.55668 0.83583 0.0
H2842 H 0.6874 0.58644 0.84424 0.0
H2843 H 0.65818 0.64025 0.82828 0.0
H2844 H 0.71738 0.70989 0.79215 0.0
H2845 H 0.69595 0.6849 0.80277 0.0
H2846 H 0.72783 0.63476 0.82448 0.0
C2847 C 0.67623 0.58664 0.83372 0.0
C2848 C 0.67339 0.63895 0.82772 0.0
C2849 C 0.66778 0.56961 0.82892 0.0
C2850 C 0.72199 0.69983 0.80311 0.0
C2851 C 0.70969 0.68551 0.80926 0.0
C2852 C 0.71268 0.63625 0.82594 0.0
C2853 C 0.67088 0.60362 0.82445 0.0
C2854 C 0.68209 0.62104 0.82685 0.0
C2855 C 0.71567 0.67135 0.82237 0.0
C2856 C 0.70404 0.65421 0.82591 0.0
H2857 H 0.6367 0.58649 0.79556 0.0
H2858 H 0.65172 0.61618 0.80367 0.0
H2859 H 0.70901 0.60634 0.82539 0.0
H2860 H 0.76022 0.68697 0.8295 0.0
H2861 H 0.73865 0.66217 0.84065 0.0
C2862 C 0.79011 0.45796 0.0241 0.0
C2863 C 0.78771 0.44314 0.03776 0.0
C2864 C 0.80756 0.46681 0.02172 0.0
C2865 C 0.85766 0.45688 0.02781 0.0
H2866 H 0.86366 0.51087 0.01937 0.0
C2867 C 0.91717 0.51194 0.99558 0.0
C2868 C 0.93318 0.50461 0.0048 0.0
C2869 C 0.89922 0.50529 0.00068 0.0
C2870 C 0.86217 0.49574 0.02152 0.0
H2871 H 0.80146 0.42657 0.06027 0.0
H2872 H 0.83184 0.44206 0.05613 0.0
H2873 H 0.8324 0.49809 0.02689 0.0
H2874 H 0.94278 0.48444 0.02662 0.0
H2875 H 0.91155 0.47328 0.03586 0.0
H2876 H 0.88726 0.45438 0.02209 0.0
C2877 C 0.82031 0.44665 0.04709 0.0
C2878 C 0.8443 0.48846 0.02587 0.0
C2879 C 0.80287 0.43785 0.04951 0.0
C2880 C 0.9308 0.49059 0.01935 0.0
C2881 C 0.91288 0.484 0.02449 0.0
C2882 C 0.87547 0.46413 0.02339 0.0
C2883 C 0.82292 0.46096 0.03291 0.0
C2884 C 0.84188 0.46894 0.02903 0.0
C2885 C 0.8969 0.49119 0.01514 0.0
C2886 C 0.87794 0.48364 0.02016 0.0
H2887 H 0.77869 0.4624 0.01485 0.0
H2888 H 0.8092 0.47771 0.01059 0.0
H2889 H 0.85617 0.44173 0.02979 0.0
H2890 H 0.91845 0.52289 0.98448 0.0
H2891 H 0.88721 0.51099 0.99306 0.0
C2892 C 0.33059 0.10442 0.78187 0.0
C2893 C 0.32888 0.08599 0.77474 0.0
C2894 C 0.31832 0.11867 0.7758 0.0
C2895 C 0.30243 0.14643 0.74681 0.0
H2896 H 0.2478 0.14541 0.74779 0.0
C2897 C 0.26559 0.21255 0.72535 0.0
C2898 C 0.25388 0.21888 0.74069 0.0
C2899 C 0.26958 0.19332 0.72349 0.0
C2900 C 0.26304 0.14576 0.74722 0.0
H2901 H 0.31212 0.06771 0.75679 0.0
H2902 H 0.29058 0.09277 0.74627 0.0
H2903 H 0.26564 0.11767 0.75925 0.0
H2904 H 0.23527 0.21034 0.76457 0.0
H2905 H 0.24288 0.17678 0.76197 0.0
H2906 H 0.30024 0.17452 0.73572 0.0
C2907 C 0.30151 0.09611 0.75644 0.0
C2908 C 0.27321 0.12995 0.75376 0.0
C2909 C 0.31389 0.08184 0.76241 0.0
C2910 C 0.24431 0.20567 0.75258 0.0
C2911 C 0.24868 0.18643 0.75105 0.0
C2912 C 0.29238 0.16208 0.74021 0.0
C2913 C 0.30404 0.11475 0.76259 0.0
C2914 C 0.29297 0.13045 0.75414 0.0
C2915 C 0.26246 0.1803 0.73742 0.0
C2916 C 0.27256 0.16215 0.74075 0.0
H2917 H 0.34189 0.10805 0.79149 0.0
H2918 H 0.32033 0.13293 0.78099 0.0
H2919 H 0.31768 0.14703 0.74663 0.0
H2920 H 0.27299 0.22258 0.71593 0.0
H2921 H 0.27981 0.18892 0.71244 0.0
C2922 C 0.18332 0.98974 0.30259 0.0
C2923 C 0.17381 0.99415 0.32018 0.0
C2924 C 0.19682 0.97538 0.30199 0.0
C2925 C 0.22711 0.94378 0.33085 0.0
H2926 H 0.21624 0.90821 0.28998 0.0
C2927 C 0.25507 0.86646 0.32868 0.0
C2928 C 0.25764 0.85816 0.31027 0.0
C2929 C 0.24833 0.88505 0.33015 0.0
C2930 C 0.21983 0.91813 0.30121 0.0
H2931 H 0.1719 0.98781 0.35122 0.0
H2932 H 0.19549 0.96236 0.35009 0.0
H2933 H 0.19826 0.93732 0.29236 0.0
H2934 H 0.25705 0.86313 0.27903 0.0
H2935 H 0.24616 0.89573 0.28152 0.0
H2936 H 0.24867 0.92432 0.33977 0.0
C2937 C 0.19248 0.97017 0.33681 0.0
C2938 C 0.20943 0.93482 0.30262 0.0
C2939 C 0.17892 0.98465 0.33743 0.0
C2940 C 0.25485 0.86913 0.29339 0.0
C2941 C 0.2485 0.88776 0.29485 0.0
C2942 C 0.2377 0.92704 0.32935 0.0
C2943 C 0.20108 0.96504 0.31895 0.0
C2944 C 0.21291 0.94779 0.31743 0.0
C2945 C 0.24435 0.89566 0.31321 0.0
C2946 C 0.23413 0.91402 0.3145 0.0
H2947 H 0.17994 0.99701 0.28909 0.0
H2948 H 0.2035 0.97193 0.28809 0.0
H2949 H 0.23006 0.9536 0.3424 0.0
H2950 H 0.25714 0.85826 0.34192 0.0
H2951 H 0.24523 0.89066 0.34452 0.0
C2952 C 0.51695 0.33261 0.43025 0.0
C2953 C 0.51513 0.33292 0.40983 0.0
C2954 C 0.51878 0.34952 0.44057 0.0
C2955 C 0.50984 0.40121 0.43616 0.0
H2956 H 0.54507 0.40491 0.47836 0.0
C2957 C 0.52762 0.47311 0.4697 0.0
C2958 C 0.52892 0.47399 0.49012 0.0
C2959 C 0.52655 0.45568 0.46034 0.0
C2960 C 0.53502 0.40407 0.46674 0.0
H2961 H 0.51398 0.35131 0.3843 0.0
H2962 H 0.51731 0.38057 0.40217 0.0
H2963 H 0.54166 0.37489 0.46148 0.0
H2964 H 0.5305 0.45709 0.51667 0.0
H2965 H 0.52853 0.42664 0.50032 0.0
H2966 H 0.50317 0.4303 0.44136 0.0
C2967 C 0.51705 0.36734 0.4103 0.0
C2968 C 0.53305 0.38683 0.45707 0.0
C2969 C 0.51524 0.3505 0.40002 0.0
C2970 C 0.52958 0.45694 0.50091 0.0
C2971 C 0.52851 0.43947 0.49152 0.0
C2972 C 0.51181 0.41839 0.4458 0.0
C2973 C 0.51878 0.36711 0.43072 0.0
C2974 C 0.52052 0.38522 0.44155 0.0
C2975 C 0.52671 0.43862 0.47113 0.0
C2976 C 0.52452 0.42012 0.46113 0.0
H2977 H 0.51692 0.31932 0.43827 0.0
H2978 H 0.51992 0.34881 0.4563 0.0
H2979 H 0.49977 0.40042 0.42456 0.0
H2980 H 0.52713 0.48593 0.4609 0.0
H2981 H 0.52553 0.45558 0.44459 0.0
C2982 C 0.43842 0.76561 0.1935 0.0
C2983 C 0.43558 0.76965 0.17362 0.0
C2984 C 0.42478 0.77059 0.20757 0.0
C2985 C 0.38525 0.80384 0.21515 0.0
H2986 H 0.37088 0.7702 0.25796 0.0
C2987 C 0.31629 0.81165 0.25925 0.0
C2988 C 0.31593 0.80711 0.27928 0.0
C2989 C 0.33273 0.80928 0.24806 0.0
C2990 C 0.37501 0.77991 0.24631 0.0
H2991 H 0.41586 0.78132 0.15286 0.0
H2992 H 0.39199 0.78974 0.17739 0.0
H2993 H 0.39548 0.76045 0.23464 0.0
H2994 H 0.33275 0.7974 0.3035 0.0
H2995 H 0.36167 0.79325 0.2838 0.0
H2996 H 0.36453 0.82313 0.22656 0.0
C2997 C 0.40493 0.78309 0.18212 0.0
C2998 C 0.38903 0.77428 0.23291 0.0
C2999 C 0.41853 0.7781 0.16805 0.0
C3000 C 0.33263 0.80104 0.2881 0.0
C3001 C 0.34911 0.79852 0.27682 0.0
C3002 C 0.37125 0.80946 0.22852 0.0
C3003 C 0.40806 0.77971 0.20205 0.0
C3004 C 0.39402 0.78604 0.21698 0.0
C3005 C 0.34918 0.80223 0.2566 0.0
C3006 C 0.36573 0.7974 0.24402 0.0
H3007 H 0.45141 0.75912 0.19827 0.0
H3008 H 0.42761 0.76785 0.22282 0.0
H3009 H 0.38911 0.8134 0.20327 0.0
H3010 H 0.30365 0.81639 0.25203 0.0
H3011 H 0.33226 0.81207 0.2325 0.0
C3012 C 0.0112 0.71251 0.92388 0.0
C3013 C 0.02798 0.72298 0.92327 0.0
C3014 C 0.01032 0.69497 0.93364 0.0
C3015 C 0.0411 0.65601 0.9516 0.0
H3016 H 0.99612 0.64045 0.98041 0.0
C3017 C 0.03858 0.58663 0.99753 0.0
C3018 C 0.02221 0.57564 0.99634 0.0
C3019 C 0.03921 0.60494 0.98946 0.0
C3020 C 0.00874 0.6445 0.97228 0.0
H3021 H 0.05687 0.72334 0.93292 0.0
H3022 H 0.05525 0.69305 0.95012 0.0
H3023 H 0.99722 0.67169 0.96492 0.0
H3024 H 0.9936 0.57546 0.98584 0.0
H3025 H 0.99476 0.60725 0.97176 0.0
H3026 H 0.05261 0.62882 0.95893 0.0
C3027 C 0.04284 0.69816 0.94275 0.0
C3028 C 0.00937 0.66244 0.96337 0.0
C3029 C 0.04373 0.71564 0.93298 0.0
C3030 C 0.00644 0.58351 0.98709 0.0
C3031 C 0.00706 0.60182 0.97909 0.0
C3032 C 0.04049 0.63811 0.96055 0.0
C3033 C 0.02619 0.68747 0.94306 0.0
C3034 C 0.02554 0.66844 0.95285 0.0
C3035 C 0.02348 0.61276 0.98005 0.0
C3036 C 0.02428 0.63207 0.97096 0.0
H3037 H -0.00119 0.71768 0.91651 0.0
H3038 H 0.99731 0.68709 0.93336 0.0
H3039 H 0.05369 0.65995 0.94335 0.0
H3040 H 0.05098 0.58104 0.00456 0.0
H3041 H 0.05203 0.61302 0.9907 0.0
C3042 C 0.05239 0.28219 0.65535 0.0
C3043 C 0.05441 0.26933 0.63991 0.0
C3044 C 0.06594 0.283 0.66979 0.0
C3045 C 0.10355 0.25467 0.69225 0.0
H3046 H 0.12224 0.30306 0.70928 0.0
C3047 C 0.17213 0.26152 0.7342 0.0
C3048 C 0.1731 0.27502 0.74904 0.0
C3049 C 0.15634 0.26056 0.72254 0.0
C3050 C 0.11694 0.28945 0.70493 0.0
H3051 H 0.07232 0.24739 0.62742 0.0
H3052 H 0.09598 0.24889 0.65255 0.0
H3053 H 0.09726 0.30215 0.68541 0.0
H3054 H 0.15804 0.29787 0.76353 0.0
H3055 H 0.13022 0.29602 0.74326 0.0
H3056 H 0.1233 0.24194 0.71159 0.0
C3057 C 0.08381 0.25818 0.6536 0.0
C3058 C 0.10267 0.28893 0.69122 0.0
C3059 C 0.07032 0.25743 0.63913 0.0
C3060 C 0.15768 0.28726 0.75228 0.0
C3061 C 0.14184 0.28632 0.74055 0.0
C3062 C 0.11776 0.25518 0.70597 0.0
C3063 C 0.08172 0.27091 0.66913 0.0
C3064 C 0.09605 0.27153 0.68452 0.0
C3065 C 0.14109 0.27305 0.72545 0.0
C3066 C 0.12483 0.27257 0.71222 0.0
H3067 H 0.04028 0.29156 0.65638 0.0
H3068 H 0.06391 0.29287 0.68166 0.0
H3069 H 0.09846 0.24106 0.68764 0.0
H3070 H 0.18363 0.2517 0.73152 0.0
H3071 H 0.15631 0.25031 0.7109 0.0
C3072 C 0.49278 0.72174 0.09093 0.0
C3073 C 0.50477 0.71896 0.10677 0.0
C3074 C 0.49478 0.71066 0.07426 0.0
C3075 C 0.5281 0.67848 0.04826 0.0
H3076 H 0.48259 0.65953 0.02536 0.0
C3077 C 0.52445 0.61174 0.00116 0.0
C3078 C 0.51097 0.61107 0.98649 0.0
C3079 C 0.52611 0.62782 0.01261 0.0
C3080 C 0.49545 0.66501 0.03129 0.0
H3081 H 0.52822 0.70237 0.11759 0.0
H3082 H 0.53137 0.68268 0.0887 0.0
H3083 H 0.48018 0.68143 0.05237 0.0
H3084 H 0.48977 0.62734 0.97121 0.0
H3085 H 0.49285 0.65554 0.99101 0.0
H3086 H 0.54331 0.66138 0.02752 0.0
C3087 C 0.52069 0.69369 0.08898 0.0
C3088 C 0.49407 0.67755 0.04683 0.0
C3089 C 0.51876 0.70485 0.10562 0.0
C3090 C 0.50032 0.6274 0.98237 0.0
C3091 C 0.50194 0.64349 0.99384 0.0
C3092 C 0.52948 0.66584 0.03273 0.0
C3093 C 0.50873 0.69648 0.07311 0.0
C3094 C 0.51035 0.68421 0.0557 0.0
C3095 C 0.51429 0.64356 0.00959 0.0
C3096 C 0.51315 0.65878 0.02428 0.0
H3097 H 0.48197 0.73263 0.09127 0.0
H3098 H 0.48549 0.71334 0.0622 0.0
H3099 H 0.54092 0.68362 0.05455 0.0
H3100 H 0.53302 0.59943 0.00445 0.0
H3101 H 0.53574 0.62742 0.02465 0.0
C3102 C 0.07618 0.78984 0.83599 0.0
C3103 C 0.06646 0.77526 0.84594 0.0
C3104 C 0.09213 0.78587 0.82438 0.0
C3105 C 0.12962 0.74986 0.8163 0.0
H3106 H 0.13893 0.77924 0.76896 0.0
C3107 C 0.1973 0.74011 0.76763 0.0
C3108 C 0.20657 0.75719 0.76321 0.0
C3109 C 0.17888 0.74028 0.77559 0.0
C3110 C 0.13654 0.77091 0.78214 0.0
H3111 H 0.06592 0.74497 0.85133 0.0
H3112 H 0.09368 0.738 0.83086 0.0
H3113 H 0.10936 0.78337 0.7872 0.0
H3114 H 0.20354 0.78775 0.76284 0.0
H3115 H 0.17162 0.78803 0.77633 0.0
H3116 H 0.15701 0.73759 0.81126 0.0
C3117 C 0.08907 0.75257 0.83224 0.0
C3118 C 0.11961 0.77333 0.79267 0.0
C3119 C 0.07308 0.75656 0.84391 0.0
C3120 C 0.19681 0.77434 0.76611 0.0
C3121 C 0.17844 0.7745 0.77376 0.0
C3122 C 0.14655 0.74737 0.80568 0.0
C3123 C 0.09881 0.76719 0.82231 0.0
C3124 C 0.11609 0.76319 0.81015 0.0
C3125 C 0.16933 0.75753 0.77893 0.0
C3126 C 0.15039 0.75819 0.78873 0.0
H3127 H 0.07156 0.80443 0.83727 0.0
H3128 H 0.09943 0.79756 0.81729 0.0
H3129 H 0.12749 0.74189 0.82975 0.0
H3130 H 0.20451 0.72668 0.76565 0.0
H3131 H 0.17219 0.72697 0.77933 0.0
C3132 C 0.03346 0.3205 0.55329 0.0
C3133 C 0.0172 0.31613 0.56445 0.0
C3134 C 0.03454 0.33748 0.5427 0.0
C3135 C 0.00689 0.37892 0.52526 0.0
H3136 H 0.05034 0.40744 0.54108 0.0
C3137 C 0.0239 0.45889 0.54566 0.0
C3138 C 0.02192 0.46949 0.52834 0.0
C3139 C 0.02422 0.43923 0.54522 0.0
C3140 C 0.0383 0.39955 0.53626 0.0
H3141 H 0.9888 0.32539 0.57213 0.0
H3142 H 0.99077 0.35505 0.55385 0.0
H3143 H 0.04908 0.37355 0.54772 0.0
H3144 H 0.01815 0.46782 0.49706 0.0
H3145 H 0.01814 0.43302 0.49648 0.0
H3146 H 0.99577 0.40537 0.51475 0.0
C3147 C 0.00265 0.34536 0.55317 0.0
C3148 C 0.03761 0.38014 0.53992 0.0
C3149 C 0.00161 0.32846 0.56383 0.0
C3150 C 0.01972 0.45998 0.51061 0.0
C3151 C 0.01972 0.44017 0.51025 0.0
C3152 C 0.00768 0.39837 0.52141 0.0
C3153 C 0.01932 0.3503 0.54298 0.0
C3154 C 0.02159 0.36977 0.53515 0.0
C3155 C 0.02231 0.42972 0.52754 0.0
C3156 C 0.02307 0.40889 0.52761 0.0
H3157 H 0.04564 0.31119 0.55332 0.0
H3158 H 0.0475 0.3409 0.53484 0.0
H3159 H 0.99444 0.37119 0.52131 0.0
H3160 H 0.02567 0.46576 0.55955 0.0
H3161 H 0.02597 0.43141 0.55877 0.0
C3162 C 0.44975 0.25107 0.35311 0.0
C3163 C 0.46129 0.26668 0.35671 0.0
C3164 C 0.43305 0.25332 0.34286 0.0
C3165 C 0.40789 0.28469 0.30852 0.0
H3166 H 0.36385 0.25854 0.32919 0.0
C3167 C 0.33244 0.29504 0.27738 0.0
C3168 C 0.32076 0.27905 0.27741 0.0
C3169 C 0.35014 0.2942 0.28613 0.0
C3170 C 0.37604 0.26575 0.323 0.0
H3171 H 0.46443 0.2969 0.35194 0.0
H3172 H 0.43522 0.3008 0.33394 0.0
H3173 H 0.39348 0.25586 0.34609 0.0
H3174 H 0.31896 0.2494 0.28573 0.0
H3175 H 0.34975 0.2478 0.30036 0.0
H3176 H 0.39039 0.29442 0.28528 0.0
C3177 C 0.43917 0.2868 0.33906 0.0
C3178 C 0.39305 0.26423 0.33277 0.0
C3179 C 0.45586 0.28457 0.34946 0.0
C3180 C 0.32748 0.26206 0.28564 0.0
C3181 C 0.34513 0.26118 0.2942 0.0
C3182 C 0.39082 0.28612 0.29864 0.0
C3183 C 0.42746 0.27122 0.33583 0.0
C3184 C 0.40926 0.27352 0.32558 0.0
C3185 C 0.35655 0.27733 0.295 0.0
C3186 C 0.3747 0.27649 0.30565 0.0
H3187 H 0.45348 0.23707 0.35839 0.0
H3188 H 0.42452 0.24097 0.34039 0.0
H3189 H 0.42014 0.29194 0.30254 0.0
H3190 H 0.32764 0.30836 0.27123 0.0
H3191 H 0.35849 0.30694 0.28653 0.0
C3192 C 0.42579 0.5628 0.29839 0.0
C3193 C 0.42088 0.54601 0.28901 0.0
C3194 C 0.43722 0.56223 0.31468 0.0
C3195 C 0.45124 0.53122 0.35489 0.0
H3196 H 0.49077 0.56811 0.36111 0.0
C3197 C 0.49871 0.53108 0.42226 0.0
C3198 C 0.50243 0.54883 0.43033 0.0
C3199 C 0.49007 0.52982 0.40421 0.0
C3200 C 0.47968 0.55781 0.35966 0.0
H3201 H 0.42429 0.51547 0.28922 0.0
H3202 H 0.44425 0.51451 0.31781 0.0
H3203 H 0.47338 0.56756 0.33082 0.0
H3204 H 0.49978 0.57913 0.42592 0.0
H3205 H 0.48456 0.57698 0.39457 0.0
H3206 H 0.45719 0.52175 0.38388 0.0
C3207 C 0.43916 0.52808 0.31255 0.0
C3208 C 0.46977 0.55748 0.34231 0.0
C3209 C 0.42781 0.52865 0.29614 0.0
C3210 C 0.49738 0.56527 0.41995 0.0
C3211 C 0.48868 0.56402 0.40196 0.0
C3212 C 0.46109 0.5316 0.37229 0.0
C3213 C 0.4439 0.54486 0.32201 0.0
C3214 C 0.4553 0.54433 0.33985 0.0
C3215 C 0.48492 0.54629 0.39388 0.0
C3216 C 0.47526 0.54507 0.37496 0.0
H3217 H 0.42069 0.57641 0.29325 0.0
H3218 H 0.44047 0.57537 0.32182 0.0
H3219 H 0.44001 0.52106 0.35347 0.0
H3220 H 0.5027 0.51816 0.42978 0.0
H3221 H 0.48759 0.51595 0.39826 0.0
C3222 C 0.27739 0.73383 0.07539 0.0
C3223 C 0.26064 0.73167 0.06512 0.0
C3224 C 0.27752 0.74444 0.09245 0.0
C3225 C 0.24943 0.77849 0.12239 0.0
H3226 H 0.27509 0.7541 0.16538 0.0
C3227 C 0.23198 0.79365 0.20327 0.0
C3228 C 0.24701 0.79471 0.21621 0.0
C3229 C 0.23519 0.7884 0.18389 0.0
C3230 C 0.2681 0.76126 0.15346 0.0
H3231 H 0.23112 0.73965 0.06415 0.0
H3232 H 0.23123 0.75778 0.09412 0.0
H3233 H 0.27818 0.74098 0.13279 0.0
H3234 H 0.27733 0.79176 0.21865 0.0
H3235 H 0.28284 0.78229 0.18492 0.0
H3236 H 0.23883 0.79838 0.14337 0.0
C3237 C 0.24434 0.75153 0.08888 0.0
C3238 C 0.26991 0.75378 0.13476 0.0
C3239 C 0.24424 0.74103 0.07175 0.0
C3240 C 0.26537 0.79069 0.20923 0.0
C3241 C 0.26856 0.78536 0.18988 0.0
C3242 C 0.24754 0.78591 0.14115 0.0
C3243 C 0.26088 0.753 0.09966 0.0
C3244 C 0.26038 0.76214 0.11906 0.0
C3245 C 0.25348 0.78403 0.17706 0.0
C3246 C 0.25665 0.7772 0.15691 0.0
H3247 H 0.29031 0.72696 0.07052 0.0
H3248 H 0.29057 0.7456 0.10021 0.0
H3249 H 0.24214 0.78543 0.11054 0.0
H3250 H 0.21766 0.79643 0.2082 0.0
H3251 H 0.22326 0.78722 0.17441 0.0
C3252 C 0.09577 0.48391 0.81818 0.0
C3253 C 0.11508 0.47952 0.81849 0.0
C3254 C 0.08515 0.48464 0.83558 0.0
C3255 C 0.08629 0.47123 0.88823 0.0
H3256 H 0.05196 0.51378 0.89429 0.0
C3257 C 0.06145 0.50018 0.9628 0.0
C3258 C 0.04225 0.50475 0.96507 0.0
C3259 C 0.06883 0.49495 0.94457 0.0
C3260 C 0.06131 0.50169 0.89271 0.0
H3261 H 0.13835 0.47209 0.8372 0.0
H3262 H 0.12002 0.47386 0.86743 0.0
H3263 H 0.06741 0.50827 0.86273 0.0
H3264 H 0.01568 0.50727 0.95014 0.0
H3265 H 0.0287 0.49835 0.91825 0.0
H3266 H 0.08069 0.46518 0.91851 0.0
C3267 C 0.11291 0.47634 0.85381 0.0
C3268 C 0.0701 0.49847 0.87463 0.0
C3269 C 0.12347 0.47548 0.83645 0.0
C3270 C 0.03054 0.50383 0.94883 0.0
C3271 C 0.03797 0.4988 0.93058 0.0
C3272 C 0.07763 0.47457 0.90636 0.0
C3273 C 0.09367 0.48111 0.85361 0.0
C3274 C 0.08292 0.48338 0.87226 0.0
C3275 C 0.05718 0.49439 0.92829 0.0
C3276 C 0.06527 0.48998 0.90881 0.0
H3277 H 0.08889 0.48695 0.80453 0.0
H3278 H 0.07029 0.48809 0.83491 0.0
H3279 H 0.0958 0.45925 0.88679 0.0
H3280 H 0.0708 0.50074 0.97505 0.0
H3281 H 0.08375 0.4918 0.94311 0.0
C3282 C 0.27943 0.36687 0.5713 0.0
C3283 C 0.26237 0.37162 0.56238 0.0
C3284 C 0.27944 0.35693 0.58909 0.0
C3285 C 0.24932 0.32725 0.62215 0.0
H3286 H 0.28451 0.34261 0.66133 0.0
C3287 C 0.2442 0.3012 0.7026 0.0
C3288 C 0.2612 0.296 0.71141 0.0
C3289 C 0.24433 0.3101 0.68423 0.0
C3290 C 0.27471 0.33802 0.65048 0.0
H3291 H 0.23195 0.36939 0.56506 0.0
H3292 H 0.23197 0.35237 0.59611 0.0
H3293 H 0.28497 0.35829 0.62947 0.0
H3294 H 0.29165 0.29609 0.70781 0.0
H3295 H 0.29183 0.31157 0.67587 0.0
H3296 H 0.23894 0.30712 0.64332 0.0
C3297 C 0.24537 0.35604 0.58927 0.0
C3298 C 0.27501 0.34698 0.63218 0.0
C3299 C 0.24536 0.36592 0.57148 0.0
C3300 C 0.27829 0.29994 0.70148 0.0
C3301 C 0.27842 0.30891 0.6832 0.0
C3302 C 0.24898 0.31835 0.6405 0.0
C3303 C 0.26239 0.35155 0.5984 0.0
C3304 C 0.26231 0.34171 0.61776 0.0
C3305 C 0.26145 0.31409 0.67435 0.0
C3306 C 0.26168 0.32363 0.65487 0.0
H3307 H 0.29278 0.37099 0.56466 0.0
H3308 H 0.29283 0.35345 0.59554 0.0
H3309 H 0.23952 0.32263 0.61132 0.0
H3310 H 0.23079 0.29836 0.70986 0.0
H3311 H 0.23102 0.31408 0.67789 0.0
C3312 C 0.41964 0.59661 0.1838 0.0
C3313 C 0.41519 0.58 0.19438 0.0
C3314 C 0.43067 0.59571 0.16662 0.0
C3315 C 0.46385 0.56436 0.13955 0.0
H3316 H 0.44424 0.58862 0.09313 0.0
C3317 C 0.47555 0.53485 0.06318 0.0
C3318 C 0.47832 0.54721 0.04721 0.0
C3319 C 0.47188 0.54191 0.0818 0.0
C3320 C 0.45016 0.5821 0.10601 0.0
H3321 H 0.41909 0.54951 0.19541 0.0
H3322 H 0.43811 0.54798 0.16561 0.0
H3323 H 0.43004 0.59569 0.12505 0.0
H3324 H 0.48 0.57672 0.03829 0.0
H3325 H 0.47327 0.58911 0.071 0.0
H3326 H 0.48339 0.55011 0.12046 0.0
C3327 C 0.4333 0.56171 0.17062 0.0
C3328 C 0.44203 0.58614 0.12429 0.0
C3329 C 0.42222 0.56258 0.18762 0.0
C3330 C 0.4779 0.56685 0.05034 0.0
C3331 C 0.47399 0.57394 0.06901 0.0
C3332 C 0.47194 0.56031 0.12132 0.0
C3333 C 0.43758 0.57823 0.15987 0.0
C3334 C 0.44834 0.57675 0.14114 0.0
C3335 C 0.47075 0.56151 0.08487 0.0
C3336 C 0.46473 0.56861 0.10431 0.0
H3337 H 0.41444 0.61025 0.18866 0.0
H3338 H 0.43379 0.60867 0.15863 0.0
H3339 H 0.46926 0.55722 0.15236 0.0
H3340 H 0.47585 0.51965 0.06126 0.0
H3341 H 0.46917 0.53197 0.09367 0.0
C3342 C 0.26979 0.67882 0.94876 0.0
C3343 C 0.27099 0.69247 0.96343 0.0
C3344 C 0.27103 0.68413 0.92911 0.0
C3345 C 0.28728 0.72245 0.89604 0.0
H3346 H 0.25206 0.70056 0.86032 0.0
C3347 C 0.27396 0.75308 0.81928 0.0
C3348 C 0.27136 0.74029 0.80404 0.0
C3349 C 0.27557 0.74656 0.83846 0.0
C3350 C 0.26218 0.70658 0.87005 0.0
H3351 H 0.27451 0.72237 0.96903 0.0
H3352 H 0.27642 0.73168 0.93465 0.0
H3353 H 0.25146 0.6906 0.89448 0.0
H3354 H 0.26893 0.71059 0.79683 0.0
H3355 H 0.27186 0.69919 0.83039 0.0
H3356 H 0.2978 0.73864 0.8716 0.0
C3357 C 0.27477 0.71684 0.93838 0.0
C3358 C 0.26182 0.7009 0.88961 0.0
C3359 C 0.27355 0.71153 0.95806 0.0
C3360 C 0.27086 0.7208 0.80828 0.0
C3361 C 0.27243 0.71428 0.82749 0.0
C3362 C 0.28762 0.72816 0.87646 0.0
C3363 C 0.27347 0.7032 0.92371 0.0
C3364 C 0.27428 0.70886 0.90284 0.0
C3365 C 0.27459 0.72711 0.84279 0.0
C3366 C 0.27499 0.72037 0.86331 0.0
H3367 H 0.26793 0.66399 0.95243 0.0
H3368 H 0.27022 0.67326 0.91814 0.0
H3369 H 0.29724 0.72862 0.90583 0.0
H3370 H 0.27443 0.76819 0.81648 0.0
H3371 H 0.27702 0.75679 0.84998 0.0
C3372 C 0.12905 0.45411 0.72046 0.0
C3373 C 0.12383 0.44744 0.73918 0.0
C3374 C 0.11621 0.45394 0.70537 0.0
C3375 C 0.0659 0.45883 0.6994 0.0
H3376 H 0.07982 0.45462 0.64456 0.0
C3377 C 0.03702 0.47878 0.61725 0.0
C3378 C 0.03175 0.4977 0.62066 0.0
C3379 C 0.04495 0.46777 0.63203 0.0
C3380 C 0.0755 0.45552 0.65979 0.0
H3381 H 0.10156 0.43402 0.75642 0.0
H3382 H 0.07903 0.4338 0.72995 0.0
H3383 H 0.10091 0.44212 0.66921 0.0
H3384 H 0.02983 0.51957 0.64255 0.0
H3385 H 0.04373 0.50045 0.66831 0.0
H3386 H 0.04079 0.47282 0.68999 0.0
C3387 C 0.09303 0.43928 0.72705 0.0
C3388 C 0.08767 0.4485 0.6739 0.0
C3389 C 0.10597 0.43931 0.74215 0.0
C3390 C 0.03362 0.50503 0.63948 0.0
C3391 C 0.04155 0.49403 0.65426 0.0
C3392 C 0.05374 0.46589 0.68528 0.0
C3393 C 0.09784 0.44717 0.7087 0.0
C3394 C 0.08332 0.45071 0.69385 0.0
C3395 C 0.04774 0.47543 0.65056 0.0
C3396 C 0.05874 0.46492 0.66535 0.0
H3397 H 0.14276 0.46035 0.71769 0.0
H3398 H 0.12031 0.46028 0.69146 0.0
H3399 H 0.06219 0.46086 0.71466 0.0
H3400 H 0.03533 0.47256 0.60303 0.0
H3401 H 0.04929 0.45339 0.62882 0.0
C3402 C 0.26657 0.37283 0.45408 0.0
C3403 C 0.27339 0.39146 0.45394 0.0
C3404 C 0.26389 0.36331 0.43654 0.0
C3405 C 0.27851 0.36447 0.38415 0.0
H3406 H 0.23606 0.33098 0.3781 0.0
C3407 C 0.26223 0.33153 0.30992 0.0
C3408 C 0.25825 0.31206 0.31004 0.0
C3409 C 0.2627 0.34155 0.32739 0.0
C3410 C 0.24806 0.34019 0.37962 0.0
H3411 H 0.28239 0.4148 0.43521 0.0
H3412 H 0.27741 0.3984 0.40476 0.0
H3413 H 0.23973 0.34772 0.40878 0.0
H3414 H 0.25098 0.28803 0.32864 0.0
H3415 H 0.25176 0.30556 0.35911 0.0
H3416 H 0.28682 0.35699 0.35501 0.0
C3417 C 0.2745 0.39094 0.41838 0.0
C3418 C 0.25019 0.34975 0.39722 0.0
C3419 C 0.27726 0.40041 0.43588 0.0
C3420 C 0.25408 0.30301 0.328 0.0
C3421 C 0.25446 0.31307 0.34548 0.0
C3422 C 0.27632 0.35499 0.36655 0.0
C3423 C 0.26789 0.37222 0.41845 0.0
C3424 C 0.26547 0.36202 0.39972 0.0
C3425 C 0.25913 0.33238 0.34541 0.0
C3426 C 0.26108 0.34273 0.36406 0.0
H3427 H 0.26348 0.3655 0.46773 0.0
H3428 H 0.259 0.34883 0.43719 0.0
H3429 H 0.29066 0.37348 0.38563 0.0
H3430 H 0.26549 0.33896 0.29636 0.0
H3431 H 0.26605 0.35647 0.3268 0.0
C3432 C 0.33263 0.44658 0.5085 0.0
C3433 C 0.32473 0.44071 0.52657 0.0
C3434 C 0.34968 0.45643 0.50765 0.0
C3435 C 0.39266 0.46345 0.53549 0.0
H3436 H 0.4002 0.50742 0.50194 0.0
C3437 C 0.46084 0.50631 0.53855 0.0
C3438 C 0.46897 0.51265 0.52079 0.0
C3439 C 0.44258 0.49908 0.53927 0.0
C3440 C 0.39841 0.49504 0.51123 0.0
H3441 H 0.32848 0.44083 0.55792 0.0
H3442 H 0.35819 0.45788 0.5564 0.0
H3443 H 0.3697 0.49155 0.50288 0.0
H3444 H 0.46407 0.51688 0.48992 0.0
H3445 H 0.4323 0.50386 0.49107 0.0
H3446 H 0.42133 0.46653 0.54359 0.0
C3447 C 0.35126 0.45478 0.54289 0.0
C3448 C 0.38091 0.48597 0.51178 0.0
C3449 C 0.33417 0.44508 0.54375 0.0
C3450 C 0.45817 0.51219 0.50385 0.0
C3451 C 0.43992 0.50476 0.50454 0.0
C3452 C 0.41014 0.47239 0.53484 0.0
C3453 C 0.35928 0.46047 0.52483 0.0
C3454 C 0.37783 0.47013 0.524 0.0
C3455 C 0.43203 0.49776 0.52221 0.0
C3456 C 0.41325 0.48838 0.52279 0.0
H3457 H 0.3257 0.44347 0.49499 0.0
H3458 H 0.35558 0.4605 0.49351 0.0
H3459 H 0.39085 0.45106 0.54479 0.0
H3460 H 0.46872 0.50662 0.55191 0.0
H3461 H 0.43683 0.49429 0.55323 0.0
C3462 C 0.8484 0.10798 0.52558 0.0
C3463 C 0.84607 0.12687 0.51946 0.0
C3464 C 0.86636 0.10059 0.52868 0.0
C3465 C 0.91521 0.10692 0.51281 0.0
H3466 H 0.92536 0.07164 0.55513 0.0
C3467 C 0.98696 0.0692 0.51908 0.0
C3468 C 0.98605 0.04964 0.52284 0.0
C3469 C 0.9709 0.08055 0.52131 0.0
C3470 C 0.92271 0.08142 0.5432 0.0
H3471 H 0.86068 0.153 0.5123 0.0
H3472 H 0.89213 0.14 0.51768 0.0
H3473 H 0.89513 0.08828 0.55438 0.0
H3474 H 0.96775 0.0267 0.53237 0.0
H3475 H 0.93971 0.04643 0.53592 0.0
H3476 H 0.94247 0.09964 0.50125 0.0
C3477 C 0.88003 0.13092 0.51995 0.0
C3478 C 0.90544 0.09095 0.5428 0.0
C3479 C 0.86204 0.13836 0.51693 0.0
C3480 C 0.9689 0.04173 0.52933 0.0
C3481 C 0.95286 0.05307 0.53153 0.0
C3482 C 0.93245 0.09735 0.51318 0.0
C3483 C 0.88236 0.11192 0.52568 0.0
C3484 C 0.90139 0.1035 0.52739 0.0
C3485 C 0.95364 0.07256 0.52733 0.0
C3486 C 0.93623 0.08421 0.52817 0.0
H3487 H 0.83638 0.09878 0.52771 0.0
H3488 H 0.86774 0.08582 0.53285 0.0
H3489 H 0.91239 0.11634 0.50063 0.0
H3490 H 2e-05 0.07574 0.51421 0.0
H3491 H 0.97198 0.09557 0.5182 0.0
C3492 C 0.69901 0.04153 0.24519 0.0
C3493 C 0.69536 0.0362 0.26472 0.0
C3494 C 0.70706 0.05906 0.2407 0.0
C3495 C 0.7342 0.09788 0.26129 0.0
H3496 H 0.70855 0.12921 0.22322 0.0
C3497 C 0.74556 0.1781 0.25561 0.0
C3498 C 0.74595 0.18667 0.23699 0.0
C3499 C 0.74078 0.15909 0.25792 0.0
C3500 C 0.71609 0.12055 0.23364 0.0
H3501 H 0.69783 0.04473 0.29489 0.0
H3502 H 0.71194 0.07528 0.28703 0.0
H3503 H 0.69836 0.09673 0.22899 0.0
H3504 H 0.74154 0.18191 0.2062 0.0
H3505 H 0.73368 0.1486 0.21017 0.0
H3506 H 0.75189 0.12167 0.26603 0.0
C3507 C 0.70862 0.0659 0.27521 0.0
C3508 C 0.71024 0.10196 0.23694 0.0
C3509 C 0.70043 0.04846 0.27969 0.0
C3510 C 0.74153 0.17574 0.22072 0.0
C3511 C 0.73683 0.15668 0.22302 0.0
C3512 C 0.74015 0.11642 0.25789 0.0
C3513 C 0.71176 0.07146 0.25567 0.0
C3514 C 0.71906 0.09056 0.25101 0.0
C3515 C 0.73638 0.14816 0.24165 0.0
C3516 C 0.73095 0.12806 0.24426 0.0
H3517 H 0.69528 0.03236 0.23333 0.0
H3518 H 0.7095 0.06297 0.22552 0.0
H3519 H 0.74139 0.08928 0.27203 0.0
H3520 H 0.74914 0.18595 0.26845 0.0
H3521 H 0.7403 0.15304 0.27251 0.0
C3522 C 0.70872 0.94566 0.02646 0.0
C3523 C 0.71434 0.94143 0.00717 0.0
C3524 C 0.69163 0.95501 0.03036 0.0
C3525 C 0.65416 0.98369 0.00677 0.0
H3526 H 0.62261 0.96478 0.04953 0.0
C3527 C 0.57438 0.99698 0.01104 0.0
C3528 C 0.56585 0.00123 0.02921 0.0
C3529 C 0.59334 0.99178 0.00971 0.0
C3530 C 0.63137 0.97043 0.03773 0.0
H3531 H 0.70652 0.94404 0.97682 0.0
H3532 H 0.67669 0.96006 0.9836 0.0
H3533 H 0.65431 0.95188 0.04457 0.0
H3534 H 0.57062 0.00342 0.06025 0.0
H3535 H 0.60393 0.9941 0.05791 0.0
H3536 H 0.631 0.00184 -0.00039 0.0
C3537 C 0.68558 0.95642 0.99574 0.0
C3538 C 0.64955 0.96305 0.03488 0.0
C3539 C 0.70266 0.94711 0.99185 0.0
C3540 C 0.5768 0.00025 0.04605 0.0
C3541 C 0.59582 0.99484 0.04472 0.0
C3542 C 0.63598 0.99099 0.00957 0.0
C3543 C 0.67975 0.96035 0.01506 0.0
C3544 C 0.66105 0.96934 0.01914 0.0
C3545 C 0.60428 0.99055 0.02651 0.0
C3546 C 0.62424 0.9842 0.02486 0.0
H3547 H 0.71741 0.94156 0.03861 0.0
H3548 H 0.68771 0.95803 0.04538 0.0
H3549 H 0.66277 0.98917 0.99477 0.0
H3550 H 0.56638 -0.0024 0.99777 0.0
H3551 H 0.59934 0.9883 0.99551 0.0
C3552 C 0.34921 0.50358 0.24712 0.0
C3553 C 0.35329 0.51301 0.22936 0.0
C3554 C 0.34126 0.48556 0.24725 0.0
C3555 C 0.33656 0.44359 0.21666 0.0
H3556 H 0.29629 0.43034 0.25338 0.0
C3557 C 0.29591 0.37362 0.21199 0.0
C3558 C 0.29114 0.36416 0.22955 0.0
C3559 C 0.30362 0.39172 0.21217 0.0
C3560 C 0.30769 0.43375 0.2432 0.0
H3561 H 0.35195 0.51106 0.19783 0.0
H3562 H 0.33799 0.47962 0.1981 0.0
H3563 H 0.3091 0.46228 0.25321 0.0
H3564 H 0.29076 0.3664 0.26112 0.0
H3565 H 0.30463 0.39783 0.26145 0.0
H3566 H 0.33526 0.41507 0.20671 0.0
C3567 C 0.34113 0.4861 0.2119 0.0
C3568 C 0.315 0.45205 0.24309 0.0
C3569 C 0.34901 0.50416 0.21176 0.0
C3570 C 0.29444 0.37318 0.24733 0.0
C3571 C 0.30217 0.3913 0.24752 0.0
C3572 C 0.3293 0.42528 0.21682 0.0
C3573 C 0.33729 0.47657 0.22964 0.0
C3574 C 0.32947 0.45717 0.22977 0.0
C3575 C 0.30679 0.4008 0.22993 0.0
C3576 C 0.31474 0.42016 0.23005 0.0
H3577 H 0.35235 0.51 0.26094 0.0
H3578 H 0.33862 0.47849 0.26115 0.0
H3579 H 0.34793 0.44703 0.20646 0.0
H3580 H 0.29379 0.36702 0.19804 0.0
H3581 H 0.30684 0.39871 0.19836 0.0
C3582 C 0.22008 0.64268 0.06074 0.0
C3583 C 0.22452 0.65384 0.0442 0.0
C3584 C 0.20477 0.63036 0.06066 0.0
C3585 C 0.17639 0.6036 0.02678 0.0
H3586 H 0.14111 0.5987 0.07053 0.0
C3587 C 0.10891 0.55905 0.02286 0.0
C3588 C 0.10339 0.54862 0.0396 0.0
C3589 C 0.12379 0.57182 0.02351 0.0
C3590 C 0.15099 0.59972 0.05829 0.0
H3591 H 0.21601 0.66133 0.01482 0.0
H3592 H 0.18936 0.63987 0.01474 0.0
H3593 H 0.16659 0.62161 0.07189 0.0
H3594 H 0.10946 0.54343 0.07015 0.0
H3595 H 0.13571 0.56514 0.07106 0.0
H3596 H 0.16104 0.58159 0.01324 0.0
C3597 C 0.19783 0.64049 0.02767 0.0
C3598 C 0.16553 0.61287 0.05908 0.0
C3599 C 0.21303 0.65286 0.02779 0.0
C3600 C 0.11337 0.55102 0.0569 0.0
C3601 C 0.12829 0.56371 0.05752 0.0
C3602 C 0.16194 0.59038 0.02604 0.0
C3603 C 0.19372 0.62892 0.04398 0.0
C3604 C 0.17831 0.61498 0.04329 0.0
C3605 C 0.13356 0.57439 0.0409 0.0
C3606 C 0.14905 0.58831 0.04177 0.0
H3607 H 0.22865 0.64314 0.07361 0.0
H3608 H 0.20194 0.62153 0.0734 0.0
H3609 H 0.18625 0.60472 0.01453 0.0
H3610 H 0.10172 0.55742 0.00923 0.0
H3611 H 0.12739 0.57995 0.01048 0.0
C3612 C 0.70853 0.94128 0.30431 0.0
C3613 C 0.68903 0.93912 0.30738 0.0
C3614 C 0.72074 0.92593 0.30677 0.0
C3615 C 0.72318 0.8763 0.32566 0.0
H3616 H 0.75869 0.86987 0.28236 0.0
C3617 C 0.74368 0.80517 0.29308 0.0
C3618 C 0.76201 0.80226 0.28555 0.0
C3619 C 0.7386 0.82241 0.30139 0.0
C3620 C 0.74922 0.87162 0.29485 0.0
H3621 H 0.66706 0.91941 0.31608 0.0
H3622 H 0.68821 0.89246 0.31971 0.0
H3623 H 0.74226 0.89986 0.28627 0.0
H3624 H 0.78974 0.81465 0.28182 0.0
H3625 H 0.78069 0.84508 0.29609 0.0
H3626 H 0.72933 0.84748 0.33335 0.0
C3627 C 0.6942 0.90609 0.31585 0.0
C3628 C 0.73977 0.88883 0.29711 0.0
C3629 C 0.68202 0.92149 0.31357 0.0
C3630 C 0.77548 0.81657 0.28742 0.0
C3631 C 0.77032 0.83394 0.29556 0.0
C3632 C 0.73254 0.85902 0.3233 0.0
C3633 C 0.71366 0.90806 0.31217 0.0
C3634 C 0.72613 0.89113 0.31211 0.0
C3635 C 0.75171 0.83714 0.3022 0.0
C3636 C 0.74513 0.85633 0.30745 0.0
H3637 H 0.71438 0.9548 0.2998 0.0
H3638 H 0.73568 0.92798 0.30412 0.0
H3639 H 0.71307 0.87779 0.33763 0.0
H3640 H 0.73305 0.79433 0.292 0.0
H3641 H 0.7241 0.82455 0.30617 0.0
C3642 C 0.856 0.08938 0.72056 0.0
C3643 C 0.87257 0.09315 0.70962 0.0
C3644 C 0.84319 0.10387 0.72486 0.0
C3645 C 0.82804 0.13898 0.74466 0.0
H3646 H 0.81644 0.18031 0.70913 0.0
C3647 C 0.80205 0.21205 0.77056 0.0
C3648 C 0.78893 0.2219 0.75916 0.0
C3649 C 0.80954 0.19477 0.76429 0.0
C3650 C 0.81932 0.16874 0.71917 0.0
H3651 H 0.88817 0.11485 0.6937 0.0
H3652 H 0.86589 0.14025 0.70142 0.0
H3653 H 0.83417 0.15296 0.69712 0.0
H3654 H 0.77266 0.22088 0.73272 0.0
H3655 H 0.78561 0.19064 0.72193 0.0
H3656 H 0.8133 0.15479 0.76672 0.0
C3657 C 0.86273 0.12604 0.70654 0.0
C3658 C 0.82965 0.15319 0.71233 0.0
C3659 C 0.87555 0.11151 0.70218 0.0
C3660 C 0.78282 0.2137 0.74181 0.0
C3661 C 0.79032 0.19644 0.73554 0.0
C3662 C 0.81773 0.15453 0.75149 0.0
C3663 C 0.84666 0.12246 0.71836 0.0
C3664 C 0.83435 0.13826 0.72506 0.0
C3665 C 0.80405 0.18699 0.7465 0.0
C3666 C 0.8135 0.16971 0.7389 0.0
H3667 H 0.85317 0.07533 0.72632 0.0
H3668 H 0.83074 0.10059 0.73366 0.0
H3669 H 0.8316 0.12782 0.75491 0.0
H3670 H 0.80707 0.218 0.78397 0.0
H3671 H 0.82022 0.18793 0.77298 0.0
loop_
_geom_bond_atom_site_label_1
_geom_bond_atom_site_label_2
_geom_bond_distance
_geom_bond_site_symmetry_2
_ccdc_geom_bond_type
C0 O1 1.160 . S
C0 O7 1.185 . S
O1 C0 1.160 . S
O2 Zn3 1.899 . S
O2 C10 1.284 . S
Zn3 O2 1.899 . S
Zn3 O4 2.032 . S
Zn3 O7 2.086 1_455 S
Zn3 O12 1.977 . S
O4 Zn3 2.032 . S
O4 C8 1.278 . S
C5 O6 1.203 . S
C5 O12 1.267 . S
O6 C5 1.203 . S
O7 C0 1.185 . S
O7 Zn3 2.086 1_655 S
C8 O4 1.278 . S
C8 O9 1.211 . S
O9 C8 1.211 . S
C10 O2 1.284 . S
C10 O11 1.273 . S
O11 C10 1.273 . S
O12 Zn3 1.977 . S
O12 C5 1.267 . S
C13 O14 1.160 . S
C13 O20 1.185 . S
O14 C13 1.160 . S
O15 Zn16 1.899 . S
O15 C23 1.284 . S
Zn16 O15 1.899 . S
Zn16 O17 2.032 . S
Zn16 O20 2.086 . S
Zn16 O25 1.977 . S
O17 Zn16 2.032 . S
O17 C21 1.278 . S
C18 O19 1.203 1_455 S
C18 O25 1.267 . S
O19 C18 1.203 1_655 S
O20 C13 1.185 . S
O20 Zn16 2.086 . S
C21 O17 1.278 . S
C21 O22 1.211 . S
O22 C21 1.211 . S
C23 O15 1.284 . S
C23 O24 1.273 . S
O24 C23 1.273 . S
O25 Zn16 1.977 . S
O25 C18 1.267 . S
C26 O27 1.160 . S
C26 O33 1.185 . S
O27 C26 1.160 . S
O28 Zn29 1.899 . S
O28 C36 1.284 . S
Zn29 O28 1.899 . S
Zn29 O30 2.032 . S
Zn29 O33 2.086 . S
Zn29 O38 1.977 . S
O30 Zn29 2.032 . S
O30 C34 1.278 . S
C31 O32 1.203 . S
C31 O38 1.267 . S
O32 C31 1.203 . S
O33 C26 1.185 . S
O33 Zn29 2.086 . S
C34 O30 1.278 . S
C34 O35 1.211 . S
O35 C34 1.211 . S
C36 O28 1.284 . S
C36 O37 1.273 . S
O37 C36 1.273 . S
O38 Zn29 1.977 . S
O38 C31 1.267 . S
C39 O40 1.160 . S
C39 O46 1.185 . S
O40 C39 1.160 . S
O41 Zn42 1.899 . S
O41 C49 1.284 . S
Zn42 O41 1.899 . S
Zn42 O43 2.032 . S
Zn42 O46 2.086 . S
Zn42 O51 1.977 . S
O43 Zn42 2.032 . S
O43 C47 1.278 . S
C44 O45 1.203 . S
C44 O51 1.267 . S
O45 C44 1.203 . S
O46 C39 1.185 . S
O46 Zn42 2.086 . S
C47 O43 1.278 . S
C47 O48 1.211 . S
O48 C47 1.211 . S
C49 O41 1.284 . S
C49 O50 1.273 . S
O50 C49 1.273 . S
O51 Zn42 1.977 . S
O51 C44 1.267 . S
C52 O53 1.160 . S
C52 O59 1.185 . S
O53 C52 1.160 . S
O54 Zn55 1.899 . S
O54 C62 1.284 . S
Zn55 O54 1.899 . S
Zn55 O56 2.032 1_545 S
Zn55 O59 2.086 1_545 S
Zn55 O64 1.977 . S
O56 Zn55 2.032 1_565 S
O56 C60 1.278 1_565 S
C57 O58 1.203 . S
C57 O64 1.267 . S
O58 C57 1.203 . S
O59 C52 1.185 . S
O59 Zn55 2.086 1_565 S
C60 O56 1.278 1_545 S
C60 O61 1.211 . S
O61 C60 1.211 . S
C62 O54 1.284 . S
C62 O63 1.273 . S
O63 C62 1.273 . S
O64 Zn55 1.977 . S
O64 C57 1.267 . S
C65 O66 1.160 . S
C65 O72 1.185 . S
O66 C65 1.160 . S
O67 Zn68 1.899 . S
O67 C75 1.284 . S
Zn68 O67 1.899 . S
Zn68 O69 2.032 . S
Zn68 O72 2.086 . S
Zn68 O77 1.977 . S
O69 Zn68 2.032 . S
O69 C73 1.278 . S
C70 O71 1.203 . S
C70 O77 1.267 . S
O71 C70 1.203 . S
O72 C65 1.185 . S
O72 Zn68 2.086 . S
C73 O69 1.278 . S
C73 O74 1.211 . S
O74 C73 1.211 . S
C75 O67 1.284 . S
C75 O76 1.273 . S
O76 C75 1.273 . S
O77 Zn68 1.977 . S
O77 C70 1.267 . S
C78 O79 1.160 . S
C78 O85 1.185 . S
O79 C78 1.160 . S
O80 Zn81 1.899 . S
O80 C88 1.284 . S
Zn81 O80 1.899 . S
Zn81 O82 2.032 . S
Zn81 O85 2.086 . S
Zn81 O90 1.977 . S
O82 Zn81 2.032 . S
O82 C86 1.278 . S
C83 O84 1.203 . S
C83 O90 1.267 . S
O84 C83 1.203 . S
O85 C78 1.185 . S
O85 Zn81 2.086 . S
C86 O82 1.278 . S
C86 O87 1.211 . S
O87 C86 1.211 . S
C88 O80 1.284 . S
C88 O89 1.273 . S
O89 C88 1.273 . S
O90 Zn81 1.977 . S
O90 C83 1.267 . S
C91 O92 1.160 . S
C91 O98 1.185 . S
O92 C91 1.160 . S
O93 Zn94 1.899 . S
O93 C101 1.284 . S
Zn94 O93 1.899 . S
Zn94 O95 2.032 . S
Zn94 O98 2.086 . S
Zn94 O103 1.977 . S
O95 Zn94 2.032 . S
O95 C99 1.278 1_554 S
C96 O97 1.203 . S
C96 O103 1.267 . S
O97 C96 1.203 . S
O98 C91 1.185 . S
O98 Zn94 2.086 . S
C99 O95 1.278 1_556 S
C99 O100 1.211 . S
O100 C99 1.211 . S
C101 O93 1.284 . S
C101 O102 1.273 . S
O102 C101 1.273 . S
O103 Zn94 1.977 . S
O103 C96 1.267 . S
C104 O105 1.160 . S
C104 O111 1.185 . S
O105 C104 1.160 . S
O106 Zn107 1.899 . S
O106 C114 1.284 . S
Zn107 O106 1.899 . S
Zn107 O108 2.032 . S
Zn107 O111 2.086 . S
Zn107 O116 1.977 . S
O108 Zn107 2.032 . S
O108 C112 1.278 . S
C109 O110 1.203 . S
C109 O116 1.267 . S
O110 C109 1.203 . S
O111 C104 1.185 . S
O111 Zn107 2.086 . S
C112 O108 1.278 . S
C112 O113 1.211 . S
O113 C112 1.211 . S
C114 O106 1.284 . S
C114 O115 1.273 . S
O115 C114 1.273 . S
O116 Zn107 1.977 . S
O116 C109 1.267 . S
C117 O118 1.160 . S
C117 O124 1.185 . S
O118 C117 1.160 . S
O119 Zn120 1.899 . S
O119 C127 1.284 . S
Zn120 O119 1.899 . S
Zn120 O121 2.032 . S
Zn120 O124 2.086 . S
Zn120 O129 1.977 . S
O121 Zn120 2.032 . S
O121 C125 1.278 . S
C122 O123 1.203 . S
C122 O129 1.267 . S
O123 C122 1.203 . S
O124 C117 1.185 . S
O124 Zn120 2.086 . S
C125 O121 1.278 . S
C125 O126 1.211 . S
O126 C125 1.211 . S
C127 O119 1.284 . S
C127 O128 1.273 . S
O128 C127 1.273 . S
O129 Zn120 1.977 . S
O129 C122 1.267 . S
C130 O131 1.160 . S
C130 O137 1.185 . S
O131 C130 1.160 . S
O132 Zn133 1.899 . S
O132 C140 1.284 . S
Zn133 O132 1.899 . S
Zn133 O134 2.032 . S
Zn133 O137 2.086 . S
Zn133 O142 1.977 . S
O134 Zn133 2.032 . S
O134 C138 1.278 . S
C135 O136 1.203 . S
C135 O142 1.267 . S
O136 C135 1.203 . S
O137 C130 1.185 . S
O137 Zn133 2.086 . S
C138 O134 1.278 . S
C138 O139 1.211 . S
O139 C138 1.211 . S
C140 O132 1.284 . S
C140 O141 1.273 . S
O141 C140 1.273 . S
O142 Zn133 1.977 . S
O142 C135 1.267 . S
C143 O144 1.160 . S
C143 O150 1.185 . S
O144 C143 1.160 . S
O145 Zn146 1.899 . S
O145 C153 1.284 . S
Zn146 O145 1.899 . S
Zn146 O147 2.032 . S
Zn146 O150 2.086 . S
Zn146 O155 1.977 . S
O147 Zn146 2.032 . S
O147 C151 1.278 . S
C148 O149 1.203 . S
C148 O155 1.267 . S
O149 C148 1.203 . S
O150 C143 1.185 . S
O150 Zn146 2.086 . S
C151 O147 1.278 . S
C151 O152 1.211 . S
O152 C151 1.211 . S
C153 O145 1.284 . S
C153 O154 1.273 . S
O154 C153 1.273 . S
O155 Zn146 1.977 . S
O155 C148 1.267 . S
C156 O157 1.160 . S
C156 O163 1.185 . S
O157 C156 1.160 . S
O158 Zn159 1.899 . S
O158 C166 1.284 . S
Zn159 O158 1.899 . S
Zn159 O160 2.032 . S
Zn159 O163 2.086 . S
Zn159 O168 1.977 1_455 S
O160 Zn159 2.032 . S
O160 C164 1.278 . S
C161 O162 1.203 . S
C161 O168 1.267 . S
O162 C161 1.203 . S
O163 C156 1.185 . S
O163 Zn159 2.086 . S
C164 O160 1.278 . S
C164 O165 1.211 1_455 S
O165 C164 1.211 1_655 S
C166 O158 1.284 . S
C166 O167 1.273 . S
O167 C166 1.273 . S
O168 Zn159 1.977 1_655 S
O168 C161 1.267 . S
C169 O170 1.160 . S
C169 O176 1.185 . S
O170 C169 1.160 . S
O171 Zn172 1.899 . S
O171 C179 1.284 1_655 S
Zn172 O171 1.899 . S
Zn172 O173 2.032 . S
Zn172 O176 2.086 . S
Zn172 O181 1.977 1_655 S
O173 Zn172 2.032 . S
O173 C177 1.278 1_655 S
C174 O175 1.203 . S
C174 O181 1.267 . S
O175 C174 1.203 . S
O176 C169 1.185 . S
O176 Zn172 2.086 . S
C177 O173 1.278 1_455 S
C177 O178 1.211 . S
O178 C177 1.211 . S
C179 O171 1.284 1_455 S
C179 O180 1.273 . S
O180 C179 1.273 . S
O181 Zn172 1.977 1_455 S
O181 C174 1.267 . S
C182 O183 1.160 . S
C182 O189 1.185 . S
O183 C182 1.160 . S
O184 Zn185 1.899 . S
O184 C192 1.284 . S
Zn185 O184 1.899 . S
Zn185 O186 2.032 . S
Zn185 O189 2.086 . S
Zn185 O194 1.977 . S
O186 Zn185 2.032 . S
O186 C190 1.278 . S
C187 O188 1.203 . S
C187 O194 1.267 . S
O188 C187 1.203 . S
O189 C182 1.185 . S
O189 Zn185 2.086 . S
C190 O186 1.278 . S
C190 O191 1.211 . S
O191 C190 1.211 . S
C192 O184 1.284 . S
C192 O193 1.273 . S
O193 C192 1.273 . S
O194 Zn185 1.977 . S
O194 C187 1.267 . S
C195 O196 1.160 . S
C195 O202 1.185 . S
O196 C195 1.160 . S
O197 Zn198 1.899 . S
O197 C205 1.284 . S
Zn198 O197 1.899 . S
Zn198 O199 2.032 . S
Zn198 O202 2.086 . S
Zn198 O207 1.977 . S
O199 Zn198 2.032 . S
O199 C203 1.278 . S
C200 O201 1.203 . S
C200 O207 1.267 . S
O201 C200 1.203 . S
O202 C195 1.185 . S
O202 Zn198 2.086 . S
C203 O199 1.278 . S
C203 O204 1.211 . S
O204 C203 1.211 . S
C205 O197 1.284 . S
C205 O206 1.273 . S
O206 C205 1.273 . S
O207 Zn198 1.977 . S
O207 C200 1.267 . S
C208 O209 1.160 . S
C208 O215 1.185 . S
O209 C208 1.160 . S
O210 Zn211 1.899 . S
O210 C218 1.284 . S
Zn211 O210 1.899 . S
Zn211 O212 2.032 . S
Zn211 O215 2.086 . S
Zn211 O220 1.977 . S
O212 Zn211 2.032 . S
O212 C216 1.278 . S
C213 O214 1.203 . S
C213 O220 1.267 . S
O214 C213 1.203 . S
O215 C208 1.185 . S
O215 Zn211 2.086 . S
C216 O212 1.278 . S
C216 O217 1.211 . S
O217 C216 1.211 . S
C218 O210 1.284 . S
C218 O219 1.273 . S
O219 C218 1.273 . S
O220 Zn211 1.977 . S
O220 C213 1.267 . S
C221 O222 1.160 . S
C221 O228 1.185 . S
O222 C221 1.160 . S
O223 Zn224 1.899 . S
O223 C231 1.284 . S
Zn224 O223 1.899 . S
Zn224 O225 2.032 . S
Zn224 O228 2.086 . S
Zn224 O233 1.977 . S
O225 Zn224 2.032 . S
O225 C229 1.278 . S
C226 O227 1.203 . S
C226 O233 1.267 . S
O227 C226 1.203 . S
O228 C221 1.185 . S
O228 Zn224 2.086 . S
C229 O225 1.278 . S
C229 O230 1.211 . S
O230 C229 1.211 . S
C231 O223 1.284 . S
C231 O232 1.273 . S
O232 C231 1.273 . S
O233 Zn224 1.977 . S
O233 C226 1.267 . S
C234 O235 1.160 . S
C234 O241 1.185 . S
O235 C234 1.160 . S
O236 Zn237 1.899 . S
O236 C244 1.284 . S
Zn237 O236 1.899 . S
Zn237 O238 2.032 1_545 S
Zn237 O241 2.086 1_545 S
Zn237 O246 1.977 . S
O238 Zn237 2.032 1_565 S
O238 C242 1.278 1_565 S
C239 O240 1.203 . S
C239 O246 1.267 . S
O240 C239 1.203 . S
O241 C234 1.185 . S
O241 Zn237 2.086 1_565 S
C242 O238 1.278 1_545 S
C242 O243 1.211 . S
O243 C242 1.211 . S
C244 O236 1.284 . S
C244 O245 1.273 . S
O245 C244 1.273 . S
O246 Zn237 1.977 . S
O246 C239 1.267 . S
C247 O248 1.160 . S
C247 O254 1.185 . S
O248 C247 1.160 . S
O249 Zn250 1.899 . S
O249 C257 1.284 . S
Zn250 O249 1.899 . S
Zn250 O251 2.032 1_554 S
Zn250 O254 2.086 . S
Zn250 O259 1.977 . S
O251 Zn250 2.032 1_556 S
O251 C255 1.278 . S
C252 O253 1.203 . S
C252 O259 1.267 . S
O253 C252 1.203 . S
O254 C247 1.185 . S
O254 Zn250 2.086 . S
C255 O251 1.278 . S
C255 O256 1.211 . S
O256 C255 1.211 . S
C257 O249 1.284 . S
C257 O258 1.273 . S
O258 C257 1.273 . S
O259 Zn250 1.977 . S
O259 C252 1.267 . S
C260 O261 1.160 . S
C260 O267 1.185 1_554 S
O261 C260 1.160 . S
O262 Zn263 1.899 . S
O262 C270 1.284 . S
Zn263 O262 1.899 . S
Zn263 O264 2.032 1_554 S
Zn263 O267 2.086 1_554 S
Zn263 O272 1.977 1_554 S
O264 Zn263 2.032 1_556 S
O264 C268 1.278 . S
C265 O266 1.203 . S
C265 O272 1.267 1_554 S
O266 C265 1.203 . S
O267 C260 1.185 1_556 S
O267 Zn263 2.086 1_556 S
C268 O264 1.278 . S
C268 O269 1.211 . S
O269 C268 1.211 . S
C270 O262 1.284 . S
C270 O271 1.273 . S
O271 C270 1.273 . S
O272 Zn263 1.977 1_556 S
O272 C265 1.267 1_556 S
C273 O274 1.160 . S
C273 O280 1.185 . S
O274 C273 1.160 . S
O275 Zn276 1.899 . S
O275 C283 1.284 . S
Zn276 O275 1.899 . S
Zn276 O277 2.032 . S
Zn276 O280 2.086 . S
Zn276 O285 1.977 . S
O277 Zn276 2.032 . S
O277 C281 1.278 . S
C278 O279 1.203 . S
C278 O285 1.267 . S
O279 C278 1.203 . S
O280 C273 1.185 . S
O280 Zn276 2.086 . S
C281 O277 1.278 . S
C281 O282 1.211 . S
O282 C281 1.211 . S
C283 O275 1.284 . S
C283 O284 1.273 . S
O284 C283 1.273 . S
O285 Zn276 1.977 . S
O285 C278 1.267 . S
C286 O287 1.160 . S
C286 O293 1.185 . S
O287 C286 1.160 . S
O288 Zn289 1.899 . S
O288 C296 1.284 . S
Zn289 O288 1.899 . S
Zn289 O290 2.032 . S
Zn289 O293 2.086 . S
Zn289 O298 1.977 . S
O290 Zn289 2.032 . S
O290 C294 1.278 . S
C291 O292 1.203 . S
C291 O298 1.267 . S
O292 C291 1.203 . S
O293 C286 1.185 . S
O293 Zn289 2.086 . S
C294 O290 1.278 . S
C294 O295 1.211 . S
O295 C294 1.211 . S
C296 O288 1.284 . S
C296 O297 1.273 . S
O297 C296 1.273 . S
O298 Zn289 1.977 . S
O298 C291 1.267 . S
C299 O300 1.160 . S
C299 O306 1.185 . S
O300 C299 1.160 . S
O301 Zn302 1.899 . S
O301 C309 1.284 . S
Zn302 O301 1.899 . S
Zn302 O303 2.032 . S
Zn302 O306 2.086 . S
Zn302 O311 1.977 . S
O303 Zn302 2.032 . S
O303 C307 1.278 . S
C304 O305 1.203 . S
C304 O311 1.267 . S
O305 C304 1.203 . S
O306 C299 1.185 . S
O306 Zn302 2.086 . S
C307 O303 1.278 . S
C307 O308 1.211 . S
O308 C307 1.211 . S
C309 O301 1.284 . S
C309 O310 1.273 . S
O310 C309 1.273 . S
O311 Zn302 1.977 . S
O311 C304 1.267 . S
Co312 N317 2.057 1_554 S
Co312 O329 2.021 1_554 S
Co312 O332 2.062 1_455 S
Co312 O336 2.117 . S
Co312 O337 2.019 . S
C313 O333 1.259 . S
C313 O336 1.258 . S
Co314 N323 2.057 . S
Co314 O330 2.100 1_545 S
Co314 O331 2.020 1_455 S
Co314 O333 2.021 . S
Co314 O338 2.062 . S
C315 N317 1.311 1_655 S
C315 N318 1.355 . S
C315 H320 0.928 1_655 S
C316 N317 1.375 1_655 S
C316 C319 1.350 . S
C316 H321 0.929 . S
N317 Co312 2.057 1_556 S
N317 C315 1.311 1_455 S
N317 C316 1.375 1_455 S
N318 C315 1.355 . S
N318 C319 1.373 . S
C319 C316 1.350 . S
C319 N318 1.373 . S
C319 H340 0.931 . S
H320 C315 0.928 1_455 S
H321 C316 0.929 . S
C322 O329 1.259 1_564 S
C322 O330 1.264 . S
N323 Co314 2.057 . S
N323 C324 1.316 . S
N323 C325 1.375 1_545 S
C324 N323 1.316 . S
C324 N326 1.347 . S
C324 H335 0.931 . S
C325 N323 1.375 1_565 S
C325 C327 1.350 . S
C325 H334 0.930 . S
N326 C324 1.347 . S
N326 C327 1.373 1_545 S
C327 C325 1.350 . S
C327 N326 1.373 1_565 S
C327 H341 0.931 . S
C328 O331 1.256 . S
C328 O332 1.255 . S
O329 Co312 2.021 1_556 S
O329 C322 1.259 1_546 S
O330 Co314 2.100 1_565 S
O330 C322 1.264 . S
O331 Co314 2.020 1_655 S
O331 C328 1.256 . S
O332 Co312 2.062 1_655 S
O332 C328 1.255 . S
O333 C313 1.259 . S
O333 Co314 2.021 . S
H334 C325 0.930 . S
H335 C324 0.931 . S
O336 Co312 2.117 . S
O336 C313 1.258 . S
O337 Co312 2.019 . S
O337 C339 1.289 . S
O338 Co314 2.062 . S
O338 C339 1.255 . S
C339 O337 1.289 . S
C339 O338 1.255 . S
H340 C319 0.931 . S
H341 C327 0.931 . S
Co342 N347 2.057 . S
Co342 O359 2.021 . S
Co342 O362 2.062 . S
Co342 O366 2.117 . S
Co342 O367 2.020 . S
C343 O363 1.259 . S
C343 O366 1.258 . S
Co344 N353 2.057 . S
Co344 O360 2.117 . S
Co344 O361 2.020 . S
Co344 O363 2.021 . S
Co344 O368 2.062 . S
C345 N347 1.316 . S
C345 N348 1.347 . S
C345 H350 0.931 . S
C346 N347 1.375 . S
C346 C349 1.350 . S
C346 H351 0.930 . S
N347 Co342 2.057 . S
N347 C345 1.316 . S
N347 C346 1.375 . S
N348 C345 1.347 . S
N348 C349 1.373 . S
C349 C346 1.350 . S
C349 N348 1.373 . S
C349 H370 0.931 . S
H350 C345 0.931 . S
H351 C346 0.930 . S
C352 O359 1.259 . S
C352 O360 1.258 . S
N353 Co344 2.057 . S
N353 C354 1.316 . S
N353 C355 1.375 . S
C354 N353 1.316 . S
C354 N356 1.347 . S
C354 H365 0.931 . S
C355 N353 1.375 . S
C355 C357 1.350 . S
C355 H364 0.930 . S
N356 C354 1.347 . S
N356 C357 1.373 . S
C357 C355 1.350 . S
C357 N356 1.373 . S
C357 H371 0.931 . S
C358 O361 1.256 . S
C358 O362 1.255 . S
O359 Co342 2.021 . S
O359 C352 1.259 . S
O360 Co344 2.117 . S
O360 C352 1.258 . S
O361 Co344 2.020 . S
O361 C358 1.256 . S
O362 Co342 2.062 . S
O362 C358 1.255 . S
O363 C343 1.259 . S
O363 Co344 2.021 . S
H364 C355 0.930 . S
H365 C354 0.931 . S
O366 Co342 2.117 . S
O366 C343 1.258 . S
O367 Co342 2.020 . S
O367 C369 1.256 . S
O368 Co344 2.062 . S
O368 C369 1.255 . S
C369 O367 1.256 . S
C369 O368 1.255 . S
H370 C349 0.931 . S
H371 C357 0.931 . S
Co372 N377 2.057 . S
Co372 O389 2.021 1_545 S
Co372 O392 2.062 . S
Co372 O396 2.117 . S
Co372 O397 2.020 . S
C373 O393 1.259 . S
C373 O396 1.258 . S
Co374 N383 2.057 . S
Co374 O390 2.117 . S
Co374 O391 2.020 . S
Co374 O393 2.021 . S
Co374 O398 2.062 . S
C375 N377 1.288 1_565 S
C375 N378 1.341 1_565 S
C375 H380 0.962 . S
C376 N377 1.375 . S
C376 C379 1.350 . S
C376 H381 0.930 . S
N377 Co372 2.057 . S
N377 C375 1.288 1_545 S
N377 C376 1.375 . S
N378 C375 1.341 1_545 S
N378 C379 1.373 . S
C379 C376 1.350 . S
C379 N378 1.373 . S
C379 H400 0.931 . S
H380 C375 0.962 . S
H381 C376 0.930 . S
C382 O389 1.259 . S
C382 O390 1.258 1_565 S
N383 Co374 2.057 . S
N383 C384 1.316 . S
N383 C385 1.375 . S
C384 N383 1.316 . S
C384 N386 1.347 . S
C384 H395 0.931 . S
C385 N383 1.375 . S
C385 C387 1.350 . S
C385 H394 0.930 . S
N386 C384 1.347 . S
N386 C387 1.373 . S
C387 C385 1.350 . S
C387 N386 1.373 . S
C387 H401 0.931 . S
C388 O391 1.256 . S
C388 O392 1.255 . S
O389 Co372 2.021 1_565 S
O389 C382 1.259 . S
O390 Co374 2.117 . S
O390 C382 1.258 1_545 S
O391 Co374 2.020 . S
O391 C388 1.256 . S
O392 Co372 2.062 . S
O392 C388 1.255 . S
O393 C373 1.259 . S
O393 Co374 2.021 . S
H394 C385 0.930 . S
H395 C384 0.931 . S
O396 Co372 2.117 . S
O396 C373 1.258 . S
O397 Co372 2.020 . S
O397 C399 1.256 . S
O398 Co374 2.062 . S
O398 C399 1.255 . S
C399 O397 1.256 . S
C399 O398 1.255 . S
H400 C379 0.931 . S
H401 C387 0.931 . S
Co402 N407 2.057 . S
Co402 O419 2.021 . S
Co402 O422 2.062 . S
Co402 O426 2.117 . S
Co402 O427 2.020 . S
C403 O423 1.259 . S
C403 O426 1.258 . S
Co404 N413 2.057 . S
Co404 O420 2.117 . S
Co404 O421 2.020 . S
Co404 O423 2.021 . S
Co404 O428 2.062 . S
C405 N407 1.316 . S
C405 N408 1.347 . S
C405 H410 0.931 . S
C406 N407 1.375 . S
C406 C409 1.350 . S
C406 H411 0.930 . S
N407 Co402 2.057 . S
N407 C405 1.316 . S
N407 C406 1.375 . S
N408 C405 1.347 . S
N408 C409 1.373 . S
C409 C406 1.350 . S
C409 N408 1.373 . S
C409 H430 0.931 . S
H410 C405 0.931 . S
H411 C406 0.930 . S
C412 O419 1.259 . S
C412 O420 1.258 . S
N413 Co404 2.057 . S
N413 C414 1.316 . S
N413 C415 1.375 . S
C414 N413 1.316 . S
C414 N416 1.347 . S
C414 H425 0.931 . S
C415 N413 1.375 . S
C415 C417 1.350 . S
C415 H424 0.930 . S
N416 C414 1.347 . S
N416 C417 1.373 . S
C417 C415 1.350 . S
C417 N416 1.373 . S
C417 H431 0.931 . S
C418 O421 1.256 . S
C418 O422 1.255 . S
O419 Co402 2.021 . S
O419 C412 1.259 . S
O420 Co404 2.117 . S
O420 C412 1.258 . S
O421 Co404 2.020 . S
O421 C418 1.256 . S
O422 Co402 2.062 . S
O422 C418 1.255 . S
O423 C403 1.259 . S
O423 Co404 2.021 . S
H424 C415 0.930 . S
H425 C414 0.931 . S
O426 Co402 2.117 . S
O426 C403 1.258 . S
O427 Co402 2.020 . S
O427 C429 1.256 . S
O428 Co404 2.062 . S
O428 C429 1.255 . S
C429 O427 1.256 . S
C429 O428 1.255 . S
H430 C409 0.931 . S
H431 C417 0.931 . S
Co432 N437 2.057 1_545 S
Co432 O449 2.021 . S
Co432 O452 2.062 . S
Co432 O456 2.117 . S
Co432 O457 2.020 1_455 S
C433 O453 1.259 . S
C433 O456 1.258 . S
Co434 N443 2.057 . S
Co434 O450 2.117 . S
Co434 O451 2.020 . S
Co434 O453 2.021 . S
Co434 O458 2.008 1_455 S
C435 N437 1.316 . S
C435 N438 1.347 . S
C435 H440 0.931 . S
C436 N437 1.375 1_655 S
C436 C439 1.350 . S
C436 H441 0.930 . S
N437 Co432 2.057 1_565 S
N437 C435 1.316 . S
N437 C436 1.375 1_455 S
N438 C435 1.347 . S
N438 C439 1.373 1_455 S
C439 C436 1.350 . S
C439 N438 1.373 1_655 S
C439 H460 0.931 . S
H440 C435 0.931 . S
H441 C436 0.930 . S
C442 O449 1.259 . S
C442 O450 1.258 . S
N443 Co434 2.057 . S
N443 C444 1.316 . S
N443 C445 1.375 . S
C444 N443 1.316 . S
C444 N446 1.347 . S
C444 H455 0.931 . S
C445 N443 1.375 . S
C445 C447 1.350 . S
C445 H454 0.930 . S
N446 C444 1.347 . S
N446 C447 1.373 . S
C447 C445 1.350 . S
C447 N446 1.373 . S
C447 H461 0.931 . S
C448 O451 1.256 . S
C448 O452 1.255 . S
O449 Co432 2.021 . S
O449 C442 1.259 . S
O450 Co434 2.117 . S
O450 C442 1.258 . S
O451 Co434 2.020 . S
O451 C448 1.256 . S
O452 Co432 2.062 . S
O452 C448 1.255 . S
O453 C433 1.259 . S
O453 Co434 2.021 . S
H454 C445 0.930 . S
H455 C444 0.931 . S
O456 Co432 2.117 . S
O456 C433 1.258 . S
O457 Co432 2.020 1_655 S
O457 C459 1.256 . S
O458 Co434 2.008 1_655 S
O458 C459 1.293 . S
C459 O457 1.256 . S
C459 O458 1.293 . S
H460 C439 0.931 . S
H461 C447 0.931 . S
Co462 N467 2.057 . S
Co462 O479 2.021 . S
Co462 O482 2.062 . S
Co462 O486 2.117 . S
Co462 O487 2.020 . S
C463 O483 1.259 . S
C463 O486 1.258 . S
Co464 N473 2.057 . S
Co464 O480 2.117 . S
Co464 O481 2.020 . S
Co464 O483 2.021 . S
Co464 O488 2.062 . S
C465 N467 1.316 . S
C465 N468 1.347 . S
C465 H470 0.931 . S
C466 N467 1.375 . S
C466 C469 1.350 . S
C466 H471 0.930 . S
N467 Co462 2.057 . S
N467 C465 1.316 . S
N467 C466 1.375 . S
N468 C465 1.347 . S
N468 C469 1.373 . S
C469 C466 1.350 . S
C469 N468 1.373 . S
C469 H490 0.931 . S
H470 C465 0.931 . S
H471 C466 0.930 . S
C472 O479 1.259 . S
C472 O480 1.258 . S
N473 Co464 2.057 . S
N473 C474 1.316 . S
N473 C475 1.375 . S
C474 N473 1.316 . S
C474 N476 1.347 . S
C474 H485 0.931 . S
C475 N473 1.375 . S
C475 C477 1.350 . S
C475 H484 0.930 . S
N476 C474 1.347 . S
N476 C477 1.373 . S
C477 C475 1.350 . S
C477 N476 1.373 . S
C477 H491 0.931 . S
C478 O481 1.256 . S
C478 O482 1.255 . S
O479 Co462 2.021 . S
O479 C472 1.259 . S
O480 Co464 2.117 . S
O480 C472 1.258 . S
O481 Co464 2.020 . S
O481 C478 1.256 . S
O482 Co462 2.062 . S
O482 C478 1.255 . S
O483 C463 1.259 . S
O483 Co464 2.021 . S
H484 C475 0.930 . S
H485 C474 0.931 . S
O486 Co462 2.117 . S
O486 C463 1.258 . S
O487 Co462 2.020 . S
O487 C489 1.256 . S
O488 Co464 2.062 . S
O488 C489 1.255 . S
C489 O487 1.256 . S
C489 O488 1.255 . S
H490 C469 0.931 . S
H491 C477 0.931 . S
Co492 N497 2.057 1_554 S
Co492 O509 2.021 . S
Co492 O512 2.062 1_554 S
Co492 O516 2.117 . S
Co492 O517 2.020 1_545 S
C493 O513 1.259 . S
C493 O516 1.258 . S
Co494 N503 2.057 . S
Co494 O510 2.117 . S
Co494 O511 2.020 . S
Co494 O513 2.021 . S
Co494 O518 2.062 . S
C495 N497 1.316 . S
C495 N498 1.347 . S
C495 H500 0.931 . S
C496 N497 1.375 . S
C496 C499 1.350 . S
C496 H501 0.930 . S
N497 Co492 2.057 1_556 S
N497 C495 1.316 . S
N497 C496 1.375 . S
N498 C495 1.347 . S
N498 C499 1.373 . S
C499 C496 1.350 . S
C499 N498 1.373 . S
C499 H520 0.937 . S
H500 C495 0.931 . S
H501 C496 0.930 . S
C502 O509 1.259 . S
C502 O510 1.258 . S
N503 Co494 2.057 . S
N503 C504 1.316 . S
N503 C505 1.375 . S
C504 N503 1.316 . S
C504 N506 1.347 . S
C504 H515 0.931 . S
C505 N503 1.375 . S
C505 C507 1.350 . S
C505 H514 0.930 . S
N506 C504 1.347 . S
N506 C507 1.373 . S
C507 C505 1.350 . S
C507 N506 1.373 . S
C507 H521 0.931 . S
C508 O511 1.256 . S
C508 O512 1.255 1_554 S
O509 Co492 2.021 . S
O509 C502 1.259 . S
O510 Co494 2.117 . S
O510 C502 1.258 . S
O511 Co494 2.020 . S
O511 C508 1.256 . S
O512 Co492 2.062 1_556 S
O512 C508 1.255 1_556 S
O513 C493 1.259 . S
O513 Co494 2.021 . S
H514 C505 0.930 . S
H515 C504 0.931 . S
O516 Co492 2.117 . S
O516 C493 1.258 . S
O517 Co492 2.020 1_565 S
O517 C519 1.256 . S
O518 Co494 2.062 . S
O518 C519 1.255 1_545 S
C519 O517 1.256 . S
C519 O518 1.255 1_565 S
H520 C499 0.937 . S
H521 C507 0.931 . S
Co522 N527 2.057 . S
Co522 O539 2.021 . S
Co522 O542 2.062 . S
Co522 O546 2.117 . S
Co522 O547 2.020 . S
C523 O543 1.259 . S
C523 O546 1.258 . S
Co524 N533 2.057 . S
Co524 O540 2.117 . S
Co524 O541 2.020 . S
Co524 O543 2.021 . S
Co524 O548 2.062 . S
C525 N527 1.316 . S
C525 N528 1.347 . S
C525 H530 0.931 . S
C526 N527 1.375 . S
C526 C529 1.350 . S
C526 H531 0.930 . S
N527 Co522 2.057 . S
N527 C525 1.316 . S
N527 C526 1.375 . S
N528 C525 1.347 . S
N528 C529 1.373 . S
C529 C526 1.350 . S
C529 N528 1.373 . S
C529 H550 0.931 . S
H530 C525 0.931 . S
H531 C526 0.930 . S
C532 O539 1.259 . S
C532 O540 1.258 . S
N533 Co524 2.057 . S
N533 C534 1.316 . S
N533 C535 1.375 . S
C534 N533 1.316 . S
C534 N536 1.347 . S
C534 H545 0.931 . S
C535 N533 1.375 . S
C535 C537 1.350 . S
C535 H544 0.930 . S
N536 C534 1.347 . S
N536 C537 1.373 . S
C537 C535 1.350 . S
C537 N536 1.373 . S
C537 H551 0.931 . S
C538 O541 1.256 . S
C538 O542 1.255 . S
O539 Co522 2.021 . S
O539 C532 1.259 . S
O540 Co524 2.117 . S
O540 C532 1.258 . S
O541 Co524 2.020 . S
O541 C538 1.256 . S
O542 Co522 2.062 . S
O542 C538 1.255 . S
O543 C523 1.259 . S
O543 Co524 2.021 . S
H544 C535 0.930 . S
H545 C534 0.931 . S
O546 Co522 2.117 . S
O546 C523 1.258 . S
O547 Co522 2.020 . S
O547 C549 1.256 . S
O548 Co524 2.062 . S
O548 C549 1.255 . S
C549 O547 1.256 . S
C549 O548 1.255 . S
H550 C529 0.931 . S
H551 C537 0.931 . S
Co552 N557 2.057 . S
Co552 O569 2.021 1_554 S
Co552 O572 2.062 . S
Co552 O576 2.117 . S
Co552 O577 2.020 . S
C553 O573 1.259 . S
C553 O576 1.258 . S
Co554 N563 2.057 . S
Co554 O570 2.117 1_554 S
Co554 O571 2.020 . S
Co554 O573 2.021 . S
Co554 O578 2.062 . S
C555 N557 1.316 1_556 S
C555 N558 1.347 . S
C555 H560 0.931 . S
C556 N557 1.375 . S
C556 C559 1.350 . S
C556 H561 0.930 . S
N557 Co552 2.057 . S
N557 C555 1.316 1_554 S
N557 C556 1.375 . S
N558 C555 1.347 . S
N558 C559 1.373 1_556 S
C559 C556 1.350 . S
C559 N558 1.373 1_554 S
C559 H580 0.931 . S
H560 C555 0.931 . S
H561 C556 0.930 . S
C562 O569 1.259 . S
C562 O570 1.258 . S
N563 Co554 2.057 . S
N563 C564 1.316 . S
N563 C565 1.375 . S
C564 N563 1.316 . S
C564 N566 1.347 . S
C564 H575 0.931 . S
C565 N563 1.375 . S
C565 C567 1.350 . S
C565 H574 0.930 . S
N566 C564 1.347 . S
N566 C567 1.373 . S
C567 C565 1.350 . S
C567 N566 1.373 . S
C567 H581 0.931 . S
C568 O571 1.256 . S
C568 O572 1.255 . S
O569 Co552 2.021 1_556 S
O569 C562 1.259 . S
O570 Co554 2.117 1_556 S
O570 C562 1.258 . S
O571 Co554 2.020 . S
O571 C568 1.256 . S
O572 Co552 2.062 . S
O572 C568 1.255 . S
O573 C553 1.259 . S
O573 Co554 2.021 . S
H574 C565 0.930 . S
H575 C564 0.931 . S
O576 Co552 2.117 . S
O576 C553 1.258 . S
O577 Co552 2.020 . S
O577 C579 1.256 . S
O578 Co554 2.062 . S
O578 C579 1.255 . S
C579 O577 1.256 . S
C579 O578 1.255 . S
H580 C559 0.931 . S
H581 C567 0.931 . S
Co582 N587 2.057 . S
Co582 O599 2.021 . S
Co582 O602 2.062 . S
Co582 O606 2.117 . S
Co582 O607 2.020 . S
C583 O603 1.259 . S
C583 O606 1.258 . S
Co584 N593 2.057 . S
Co584 O600 2.117 . S
Co584 O601 2.020 . S
Co584 O603 2.021 . S
Co584 O608 2.062 . S
C585 N587 1.316 . S
C585 N588 1.347 . S
C585 H590 0.931 . S
C586 N587 1.375 . S
C586 C589 1.350 . S
C586 H591 0.930 . S
N587 Co582 2.057 . S
N587 C585 1.316 . S
N587 C586 1.375 . S
N588 C585 1.347 . S
N588 C589 1.373 . S
C589 C586 1.350 . S
C589 N588 1.373 . S
C589 H610 0.931 . S
H590 C585 0.931 . S
H591 C586 0.930 . S
C592 O599 1.259 . S
C592 O600 1.258 . S
N593 Co584 2.057 . S
N593 C594 1.316 . S
N593 C595 1.375 . S
C594 N593 1.316 . S
C594 N596 1.347 . S
C594 H605 0.931 . S
C595 N593 1.375 . S
C595 C597 1.350 . S
C595 H604 0.930 . S
N596 C594 1.347 . S
N596 C597 1.373 . S
C597 C595 1.350 . S
C597 N596 1.373 . S
C597 H611 0.931 . S
C598 O601 1.256 . S
C598 O602 1.255 . S
O599 Co582 2.021 . S
O599 C592 1.259 . S
O600 Co584 2.117 . S
O600 C592 1.258 . S
O601 Co584 2.020 . S
O601 C598 1.256 . S
O602 Co582 2.062 . S
O602 C598 1.255 . S
O603 C583 1.259 . S
O603 Co584 2.021 . S
H604 C595 0.930 . S
H605 C594 0.931 . S
O606 Co582 2.117 . S
O606 C583 1.258 . S
O607 Co582 2.020 . S
O607 C609 1.256 . S
O608 Co584 2.062 . S
O608 C609 1.255 . S
C609 O607 1.256 . S
C609 O608 1.255 . S
H610 C589 0.931 . S
H611 C597 0.931 . S
Co612 N617 2.057 . S
Co612 O629 2.021 1_455 S
Co612 O632 2.062 . S
Co612 O636 2.117 . S
Co612 O637 2.020 . S
C613 O633 1.259 . S
C613 O636 1.258 . S
Co614 N623 2.057 . S
Co614 O630 2.117 1_455 S
Co614 O631 2.020 . S
Co614 O633 2.021 . S
Co614 O638 2.062 . S
C615 N617 1.316 1_655 S
C615 N618 1.347 . S
C615 H620 0.931 . S
C616 N617 1.375 . S
C616 C619 1.350 . S
C616 H621 0.930 . S
N617 Co612 2.057 . S
N617 C615 1.316 1_455 S
N617 C616 1.375 . S
N618 C615 1.347 . S
N618 C619 1.373 1_655 S
C619 C616 1.350 . S
C619 N618 1.373 1_455 S
C619 H640 0.931 . S
H620 C615 0.931 . S
H621 C616 0.930 . S
C622 O629 1.259 . S
C622 O630 1.258 . S
N623 Co614 2.057 . S
N623 C624 1.316 . S
N623 C625 1.375 . S
C624 N623 1.316 . S
C624 N626 1.347 . S
C624 H635 0.931 . S
C625 N623 1.375 . S
C625 C627 1.350 . S
C625 H634 0.930 . S
N626 C624 1.347 . S
N626 C627 1.373 . S
C627 C625 1.350 . S
C627 N626 1.373 . S
C627 H641 0.931 . S
C628 O631 1.256 . S
C628 O632 1.255 . S
O629 Co612 2.021 1_655 S
O629 C622 1.259 . S
O630 Co614 2.117 1_655 S
O630 C622 1.258 . S
O631 Co614 2.020 . S
O631 C628 1.256 . S
O632 Co612 2.062 . S
O632 C628 1.255 . S
O633 C613 1.259 . S
O633 Co614 2.021 . S
H634 C625 0.930 . S
H635 C624 0.931 . S
O636 Co612 2.117 . S
O636 C613 1.258 . S
O637 Co612 2.020 . S
O637 C639 1.256 . S
O638 Co614 2.062 . S
O638 C639 1.255 . S
C639 O637 1.256 . S
C639 O638 1.255 . S
H640 C619 0.931 . S
H641 C627 0.931 . S
Co642 N647 2.057 . S
Co642 O659 2.021 . S
Co642 O662 2.062 . S
Co642 O666 2.117 . S
Co642 O667 2.020 . S
C643 O663 1.259 . S
C643 O666 1.258 . S
Co644 N653 2.057 . S
Co644 O660 2.117 . S
Co644 O661 2.020 . S
Co644 O663 2.021 . S
Co644 O668 2.062 . S
C645 N647 1.316 . S
C645 N648 1.347 . S
C645 H650 0.931 . S
C646 N647 1.375 . S
C646 C649 1.350 . S
C646 H651 0.930 . S
N647 Co642 2.057 . S
N647 C645 1.316 . S
N647 C646 1.375 . S
N648 C645 1.347 . S
N648 C649 1.373 . S
C649 C646 1.350 . S
C649 N648 1.373 . S
C649 H670 0.931 . S
H650 C645 0.931 . S
H651 C646 0.930 . S
C652 O659 1.259 . S
C652 O660 1.258 . S
N653 Co644 2.057 . S
N653 C654 1.316 . S
N653 C655 1.375 . S
C654 N653 1.316 . S
C654 N656 1.347 . S
C654 H665 0.931 . S
C655 N653 1.375 . S
C655 C657 1.350 . S
C655 H664 0.930 . S
N656 C654 1.347 . S
N656 C657 1.373 . S
C657 C655 1.350 . S
C657 N656 1.373 . S
C657 H671 0.931 . S
C658 O661 1.256 . S
C658 O662 1.255 . S
O659 Co642 2.021 . S
O659 C652 1.259 . S
O660 Co644 2.117 . S
O660 C652 1.258 . S
O661 Co644 2.020 . S
O661 C658 1.256 . S
O662 Co642 2.062 . S
O662 C658 1.255 . S
O663 C643 1.259 . S
O663 Co644 2.021 . S
H664 C655 0.930 . S
H665 C654 0.931 . S
O666 Co642 2.117 . S
O666 C643 1.258 . S
O667 Co642 2.020 . S
O667 C669 1.256 . S
O668 Co644 2.062 . S
O668 C669 1.255 . S
C669 O667 1.256 . S
C669 O668 1.255 . S
H670 C649 0.931 . S
H671 C657 0.931 . S
Co672 N677 2.057 . S
Co672 O689 2.021 . S
Co672 O692 2.062 . S
Co672 O696 2.117 . S
Co672 O697 2.020 . S
C673 O693 1.259 . S
C673 O696 1.258 . S
Co674 N683 2.057 . S
Co674 O690 2.117 . S
Co674 O691 2.020 . S
Co674 O693 2.021 . S
Co674 O698 2.062 . S
C675 N677 1.316 . S
C675 N678 1.347 . S
C675 H680 0.931 . S
C676 N677 1.375 . S
C676 C679 1.350 . S
C676 H681 0.930 . S
N677 Co672 2.057 . S
N677 C675 1.316 . S
N677 C676 1.375 . S
N678 C675 1.347 . S
N678 C679 1.373 . S
C679 C676 1.350 . S
C679 N678 1.373 . S
C679 H700 0.931 . S
H680 C675 0.931 . S
H681 C676 0.930 . S
C682 O689 1.259 . S
C682 O690 1.258 . S
N683 Co674 2.057 . S
N683 C684 1.316 . S
N683 C685 1.375 . S
C684 N683 1.316 . S
C684 N686 1.347 . S
C684 H695 0.931 . S
C685 N683 1.375 . S
C685 C687 1.350 . S
C685 H694 0.930 . S
N686 C684 1.347 . S
N686 C687 1.373 . S
C687 C685 1.350 . S
C687 N686 1.373 . S
C687 H701 0.931 . S
C688 O691 1.256 . S
C688 O692 1.255 . S
O689 Co672 2.021 . S
O689 C682 1.259 . S
O690 Co674 2.117 . S
O690 C682 1.258 . S
O691 Co674 2.020 . S
O691 C688 1.256 . S
O692 Co672 2.062 . S
O692 C688 1.255 . S
O693 C673 1.259 . S
O693 Co674 2.021 . S
H694 C685 0.930 . S
H695 C684 0.931 . S
O696 Co672 2.117 . S
O696 C673 1.258 . S
O697 Co672 2.020 . S
O697 C699 1.256 . S
O698 Co674 2.062 . S
O698 C699 1.255 . S
C699 O697 1.256 . S
C699 O698 1.255 . S
H700 C679 0.931 . S
H701 C687 0.931 . S
Co702 N707 2.057 . S
Co702 O719 2.021 . S
Co702 O722 2.062 . S
Co702 O726 2.117 . S
Co702 O727 2.020 . S
C703 O723 1.259 . S
C703 O726 1.258 . S
Co704 N713 2.057 . S
Co704 O720 2.117 . S
Co704 O721 2.020 . S
Co704 O723 2.021 . S
Co704 O728 2.062 . S
C705 N707 1.316 . S
C705 N708 1.347 . S
C705 H710 0.931 . S
C706 N707 1.375 . S
C706 C709 1.350 . S
C706 H711 0.930 . S
N707 Co702 2.057 . S
N707 C705 1.316 . S
N707 C706 1.375 . S
N708 C705 1.347 . S
N708 C709 1.373 . S
C709 C706 1.350 . S
C709 N708 1.373 . S
C709 H730 0.931 . S
H710 C705 0.931 . S
H711 C706 0.930 . S
C712 O719 1.259 . S
C712 O720 1.258 . S
N713 Co704 2.057 . S
N713 C714 1.316 . S
N713 C715 1.375 . S
C714 N713 1.316 . S
C714 N716 1.347 . S
C714 H725 0.931 . S
C715 N713 1.375 . S
C715 C717 1.350 . S
C715 H724 0.930 . S
N716 C714 1.347 . S
N716 C717 1.373 . S
C717 C715 1.350 . S
C717 N716 1.373 . S
C717 H731 0.931 . S
C718 O721 1.256 . S
C718 O722 1.255 . S
O719 Co702 2.021 . S
O719 C712 1.259 . S
O720 Co704 2.117 . S
O720 C712 1.258 . S
O721 Co704 2.020 . S
O721 C718 1.256 . S
O722 Co702 2.062 . S
O722 C718 1.255 . S
O723 C703 1.259 . S
O723 Co704 2.021 . S
H724 C715 0.930 . S
H725 C714 0.931 . S
O726 Co702 2.117 . S
O726 C703 1.258 . S
O727 Co702 2.020 . S
O727 C729 1.256 . S
O728 Co704 2.062 . S
O728 C729 1.255 . S
C729 O727 1.256 . S
C729 O728 1.255 . S
H730 C709 0.931 . S
H731 C717 0.931 . S
Co732 N737 2.057 . S
Co732 O749 2.021 . S
Co732 O752 2.062 . S
Co732 O756 2.117 . S
Co732 O757 2.020 . S
C733 O753 1.259 . S
C733 O756 1.258 . S
Co734 N743 2.057 . S
Co734 O750 2.117 . S
Co734 O751 2.020 . S
Co734 O753 2.021 . S
Co734 O758 2.062 . S
C735 N737 1.316 . S
C735 N738 1.347 . S
C735 H740 0.931 . S
C736 N737 1.375 . S
C736 C739 1.350 . S
C736 H741 0.930 . S
N737 Co732 2.057 . S
N737 C735 1.316 . S
N737 C736 1.375 . S
N738 C735 1.347 . S
N738 C739 1.373 . S
C739 C736 1.350 . S
C739 N738 1.373 . S
C739 H760 0.931 . S
H740 C735 0.931 . S
H741 C736 0.930 . S
C742 O749 1.259 . S
C742 O750 1.258 . S
N743 Co734 2.057 . S
N743 C744 1.316 . S
N743 C745 1.375 . S
C744 N743 1.316 . S
C744 N746 1.347 . S
C744 H755 0.931 . S
C745 N743 1.375 . S
C745 C747 1.350 . S
C745 H754 0.930 . S
N746 C744 1.347 . S
N746 C747 1.373 . S
C747 C745 1.350 . S
C747 N746 1.373 . S
C747 H761 0.931 . S
C748 O751 1.256 . S
C748 O752 1.255 . S
O749 Co732 2.021 . S
O749 C742 1.259 . S
O750 Co734 2.117 . S
O750 C742 1.258 . S
O751 Co734 2.020 . S
O751 C748 1.256 . S
O752 Co732 2.062 . S
O752 C748 1.255 . S
O753 C733 1.259 . S
O753 Co734 2.021 . S
H754 C745 0.930 . S
H755 C744 0.931 . S
O756 Co732 2.117 . S
O756 C733 1.258 . S
O757 Co732 2.020 . S
O757 C759 1.256 . S
O758 Co734 2.062 . S
O758 C759 1.255 . S
C759 O757 1.256 . S
C759 O758 1.255 . S
H760 C739 0.931 . S
H761 C747 0.931 . S
Co762 N767 2.001 1_455 S
Co762 O779 2.037 . S
Co762 O782 2.050 1_455 S
Co762 O786 2.118 . S
Co762 O787 2.049 1_554 S
C763 O783 1.259 . S
C763 O786 1.258 . S
Co764 N773 2.057 . S
Co764 O780 2.117 . S
Co764 O781 2.020 . S
Co764 O783 2.021 . S
Co764 O788 2.084 . S
C765 N767 1.316 . S
C765 N768 1.347 . S
C765 H770 0.931 . S
C766 N767 1.370 1_556 S
C766 C769 1.348 . S
C766 H771 0.934 . S
N767 Co762 2.001 1_655 S
N767 C765 1.316 . S
N767 C766 1.370 1_554 S
N768 C765 1.347 . S
N768 C769 1.350 1_554 S
C769 C766 1.348 . S
C769 N768 1.350 1_556 S
C769 H790 0.955 . S
H770 C765 0.931 . S
H771 C766 0.934 . S
C772 O779 1.259 . S
C772 O780 1.258 . S
N773 Co764 2.057 . S
N773 C774 1.316 . S
N773 C775 1.375 . S
C774 N773 1.316 . S
C774 N776 1.347 . S
C774 H785 0.931 . S
C775 N773 1.375 . S
C775 C777 1.350 . S
C775 H784 0.930 . S
N776 C774 1.347 . S
N776 C777 1.373 . S
C777 C775 1.350 . S
C777 N776 1.373 . S
C777 H791 0.931 . S
C778 O781 1.256 . S
C778 O782 1.255 1_455 S
O779 Co762 2.037 . S
O779 C772 1.259 . S
O780 Co764 2.117 . S
O780 C772 1.258 . S
O781 Co764 2.020 . S
O781 C778 1.256 . S
O782 Co762 2.050 1_655 S
O782 C778 1.255 1_655 S
O783 C763 1.259 . S
O783 Co764 2.021 . S
H784 C775 0.930 . S
H785 C774 0.931 . S
O786 Co762 2.118 . S
O786 C763 1.258 . S
O787 Co762 2.049 1_556 S
O787 C789 1.256 . S
O788 Co764 2.084 . S
O788 C789 1.239 1_554 S
C789 O787 1.256 . S
C789 O788 1.239 1_556 S
H790 C769 0.955 . S
H791 C777 0.931 . S
C792 C793 1.349 . S
C792 C794 1.327 . S
C792 H817 0.950 . S
C793 C792 1.349 . S
C793 C809 1.349 . S
C794 C792 1.327 . S
C794 C813 1.429 . S
C794 H818 0.950 . S
C795 C812 1.574 . S
C795 C814 1.368 . S
C795 H819 0.949 . S
H796 C800 0.949 . S
C797 C798 1.349 . S
C797 C799 1.327 . S
C797 H820 0.950 . S
C798 C797 1.349 . S
C798 C810 1.349 . S
C799 C797 1.327 . S
C799 C815 1.429 . S
C799 H821 0.950 . S
C800 H796 0.949 . S
C800 C808 1.574 . S
C800 C816 1.368 . S
H801 C809 0.950 . S
H802 C807 0.950 . S
H803 C808 0.949 . S
H804 C810 0.946 1_655 S
H805 C811 0.950 . S
H806 C812 0.949 . S
C807 H802 0.950 . S
C807 C809 1.327 . S
C807 C813 1.429 . S
C808 C800 1.574 . S
C808 H803 0.949 . S
C808 C814 1.368 . S
C809 C793 1.349 . S
C809 H801 0.950 . S
C809 C807 1.327 . S
C810 C798 1.349 . S
C810 H804 0.946 1_455 S
C810 C811 1.327 . S
C811 H805 0.950 . S
C811 C810 1.327 . S
C811 C815 1.429 . S
C812 C795 1.574 . S
C812 H806 0.949 . S
C812 C816 1.368 . S
C813 C794 1.429 . S
C813 C807 1.429 . S
C813 C814 1.523 . S
C814 C795 1.368 . S
C814 C808 1.368 . S
C814 C813 1.523 . S
C815 C799 1.429 . S
C815 C811 1.429 . S
C815 C816 1.523 . S
C816 C800 1.368 . S
C816 C812 1.368 . S
C816 C815 1.523 . S
H817 C792 0.950 . S
H818 C794 0.950 . S
H819 C795 0.949 . S
H820 C797 0.950 . S
H821 C799 0.950 . S
C822 C823 1.349 . S
C822 C824 1.327 . S
C822 H847 0.950 . S
C823 C822 1.349 . S
C823 C839 1.349 . S
C824 C822 1.327 . S
C824 C843 1.429 . S
C824 H848 0.950 . S
C825 C842 1.574 . S
C825 C844 1.368 . S
C825 H849 0.949 . S
H826 C830 0.949 . S
C827 C828 1.349 . S
C827 C829 1.327 . S
C827 H850 0.950 . S
C828 C827 1.349 . S
C828 C840 1.349 . S
C829 C827 1.327 . S
C829 C845 1.429 . S
C829 H851 0.950 . S
C830 H826 0.949 . S
C830 C838 1.574 . S
C830 C846 1.368 . S
H831 C839 0.950 . S
H832 C837 0.950 . S
H833 C838 0.949 . S
H834 C840 0.950 . S
H835 C841 0.950 . S
H836 C842 0.949 . S
C837 H832 0.950 . S
C837 C839 1.327 . S
C837 C843 1.429 . S
C838 C830 1.574 . S
C838 H833 0.949 . S
C838 C844 1.368 . S
C839 C823 1.349 . S
C839 H831 0.950 . S
C839 C837 1.327 . S
C840 C828 1.349 . S
C840 H834 0.950 . S
C840 C841 1.327 . S
C841 H835 0.950 . S
C841 C840 1.327 . S
C841 C845 1.429 . S
C842 C825 1.574 . S
C842 H836 0.949 . S
C842 C846 1.368 . S
C843 C824 1.429 . S
C843 C837 1.429 . S
C843 C844 1.523 . S
C844 C825 1.368 . S
C844 C838 1.368 . S
C844 C843 1.523 . S
C845 C829 1.429 . S
C845 C841 1.429 . S
C845 C846 1.523 . S
C846 C830 1.368 . S
C846 C842 1.368 . S
C846 C845 1.523 . S
H847 C822 0.950 . S
H848 C824 0.950 . S
H849 C825 0.949 . S
H850 C827 0.950 . S
H851 C829 0.950 . S
C852 C853 1.349 . S
C852 C854 1.327 . S
C852 H877 0.950 . S
C853 C852 1.349 . S
C853 C869 1.349 . S
C854 C852 1.327 . S
C854 C873 1.429 . S
C854 H878 0.950 . S
C855 C872 1.574 . S
C855 C874 1.368 . S
C855 H879 0.949 . S
H856 C860 0.949 . S
C857 C858 1.349 . S
C857 C859 1.327 . S
C857 H880 0.950 . S
C858 C857 1.349 . S
C858 C870 1.349 . S
C859 C857 1.327 . S
C859 C875 1.429 . S
C859 H881 0.950 . S
C860 H856 0.949 . S
C860 C868 1.574 . S
C860 C876 1.368 . S
H861 C869 0.950 . S
H862 C867 0.950 . S
H863 C868 0.949 . S
H864 C870 0.950 . S
H865 C871 0.950 . S
H866 C872 0.949 . S
C867 H862 0.950 . S
C867 C869 1.327 . S
C867 C873 1.429 . S
C868 C860 1.574 . S
C868 H863 0.949 . S
C868 C874 1.368 . S
C869 C853 1.349 . S
C869 H861 0.950 . S
C869 C867 1.327 . S
C870 C858 1.349 . S
C870 H864 0.950 . S
C870 C871 1.327 . S
C871 H865 0.950 . S
C871 C870 1.327 . S
C871 C875 1.429 . S
C872 C855 1.574 . S
C872 H866 0.949 . S
C872 C876 1.368 . S
C873 C854 1.429 . S
C873 C867 1.429 . S
C873 C874 1.523 . S
C874 C855 1.368 . S
C874 C868 1.368 . S
C874 C873 1.523 . S
C875 C859 1.429 . S
C875 C871 1.429 . S
C875 C876 1.523 . S
C876 C860 1.368 . S
C876 C872 1.368 . S
C876 C875 1.523 . S
H877 C852 0.950 . S
H878 C854 0.950 . S
H879 C855 0.949 . S
H880 C857 0.950 . S
H881 C859 0.950 . S
C882 C883 1.349 . S
C882 C884 1.327 . S
C882 H907 0.950 . S
C883 C882 1.349 . S
C883 C899 1.349 . S
C884 C882 1.327 . S
C884 C903 1.429 . S
C884 H908 0.950 . S
C885 C902 1.574 . S
C885 C904 1.368 . S
C885 H909 0.949 . S
H886 C890 0.949 . S
C887 C888 1.349 . S
C887 C889 1.327 . S
C887 H910 0.950 . S
C888 C887 1.349 . S
C888 C900 1.349 . S
C889 C887 1.327 . S
C889 C905 1.429 . S
C889 H911 0.950 . S
C890 H886 0.949 . S
C890 C898 1.574 . S
C890 C906 1.368 . S
H891 C899 0.950 . S
H892 C897 0.950 . S
H893 C898 0.949 . S
H894 C900 0.950 . S
H895 C901 0.950 . S
H896 C902 0.949 . S
C897 H892 0.950 . S
C897 C899 1.327 . S
C897 C903 1.429 . S
C898 C890 1.574 . S
C898 H893 0.949 . S
C898 C904 1.368 . S
C899 C883 1.349 . S
C899 H891 0.950 . S
C899 C897 1.327 . S
C900 C888 1.349 . S
C900 H894 0.950 . S
C900 C901 1.327 . S
C901 H895 0.950 . S
C901 C900 1.327 . S
C901 C905 1.429 . S
C902 C885 1.574 . S
C902 H896 0.949 . S
C902 C906 1.368 . S
C903 C884 1.429 . S
C903 C897 1.429 . S
C903 C904 1.523 . S
C904 C885 1.368 . S
C904 C898 1.368 . S
C904 C903 1.523 . S
C905 C889 1.429 . S
C905 C901 1.429 . S
C905 C906 1.523 . S
C906 C890 1.368 . S
C906 C902 1.368 . S
C906 C905 1.523 . S
H907 C882 0.950 . S
H908 C884 0.950 . S
H909 C885 0.949 . S
H910 C887 0.950 . S
H911 C889 0.950 . S
C912 C913 1.349 . S
C912 C914 1.327 . S
C912 H937 0.950 . S
C913 C912 1.349 . S
C913 C929 1.349 . S
C914 C912 1.327 . S
C914 C933 1.429 . S
C914 H938 0.950 . S
C915 C932 1.574 . S
C915 C934 1.368 . S
C915 H939 0.949 . S
H916 C920 0.949 . S
C917 C918 1.349 . S
C917 C919 1.327 . S
C917 H940 0.953 . S
C918 C917 1.349 . S
C918 C930 1.349 . S
C919 C917 1.327 . S
C919 C935 1.429 . S
C919 H941 0.950 . S
C920 H916 0.949 . S
C920 C928 1.574 . S
C920 C936 1.368 . S
H921 C929 0.950 . S
H922 C927 0.950 . S
H923 C928 0.949 . S
H924 C930 0.950 . S
H925 C931 0.950 . S
H926 C932 0.949 . S
C927 H922 0.950 . S
C927 C929 1.327 . S
C927 C933 1.429 . S
C928 C920 1.574 . S
C928 H923 0.949 . S
C928 C934 1.368 . S
C929 C913 1.349 . S
C929 H921 0.950 . S
C929 C927 1.327 . S
C930 C918 1.349 . S
C930 H924 0.950 . S
C930 C931 1.327 . S
C931 H925 0.950 . S
C931 C930 1.327 . S
C931 C935 1.429 . S
C932 C915 1.574 . S
C932 H926 0.949 . S
C932 C936 1.368 . S
C933 C914 1.429 . S
C933 C927 1.429 . S
C933 C934 1.523 . S
C934 C915 1.368 . S
C934 C928 1.368 . S
C934 C933 1.523 . S
C935 C919 1.429 . S
C935 C931 1.429 . S
C935 C936 1.523 . S
C936 C920 1.368 . S
C936 C932 1.368 . S
C936 C935 1.523 . S
H937 C912 0.950 . S
H938 C914 0.950 . S
H939 C915 0.949 . S
H940 C917 0.953 . S
H941 C919 0.950 . S
C942 C943 1.349 . S
C942 C944 1.327 . S
C942 H967 0.950 . S
C943 C942 1.349 . S
C943 C959 1.349 . S
C944 C942 1.327 . S
C944 C963 1.429 . S
C944 H968 0.950 . S
C945 C962 1.574 . S
C945 C964 1.368 . S
C945 H969 0.949 . S
H946 C950 0.949 . S
C947 C948 1.349 . S
C947 C949 1.327 . S
C947 H970 0.950 . S
C948 C947 1.349 . S
C948 C960 1.349 . S
C949 C947 1.327 . S
C949 C965 1.429 . S
C949 H971 0.950 . S
C950 H946 0.949 . S
C950 C958 1.574 . S
C950 C966 1.368 . S
H951 C959 0.950 . S
H952 C957 0.950 . S
H953 C958 0.949 . S
H954 C960 0.950 . S
H955 C961 0.950 . S
H956 C962 0.949 . S
C957 H952 0.950 . S
C957 C959 1.327 . S
C957 C963 1.429 . S
C958 C950 1.574 . S
C958 H953 0.949 . S
C958 C964 1.368 . S
C959 C943 1.349 . S
C959 H951 0.950 . S
C959 C957 1.327 . S
C960 C948 1.349 . S
C960 H954 0.950 . S
C960 C961 1.327 . S
C961 H955 0.950 . S
C961 C960 1.327 . S
C961 C965 1.429 . S
C962 C945 1.574 . S
C962 H956 0.949 . S
C962 C966 1.368 . S
C963 C944 1.429 . S
C963 C957 1.429 . S
C963 C964 1.523 . S
C964 C945 1.368 . S
C964 C958 1.368 . S
C964 C963 1.523 . S
C965 C949 1.429 . S
C965 C961 1.429 . S
C965 C966 1.523 . S
C966 C950 1.368 . S
C966 C962 1.368 . S
C966 C965 1.523 . S
H967 C942 0.950 . S
H968 C944 0.950 . S
H969 C945 0.949 . S
H970 C947 0.950 . S
H971 C949 0.950 . S
C972 C973 1.349 . S
C972 C974 1.327 . S
C972 H997 0.950 . S
C973 C972 1.349 . S
C973 C989 1.349 . S
C974 C972 1.327 . S
C974 C993 1.429 . S
C974 H998 0.950 . S
C975 C992 1.574 . S
C975 C994 1.368 . S
C975 H999 0.949 . S
H976 C980 0.949 . S
C977 C978 1.319 1_556 S
C977 C979 1.327 . S
C977 H1000 0.950 . S
C978 C977 1.319 1_554 S
C978 C990 1.363 . S
C979 C977 1.327 . S
C979 C995 1.429 . S
C979 H1001 0.950 . S
C980 H976 0.949 . S
C980 C988 1.574 . S
C980 C996 1.368 . S
H981 C989 0.950 . S
H982 C987 0.950 . S
H983 C988 0.949 . S
H984 C990 0.950 . S
H985 C991 0.941 1_554 S
H986 C992 0.949 . S
C987 H982 0.950 . S
C987 C989 1.327 . S
C987 C993 1.429 . S
C988 C980 1.574 . S
C988 H983 0.949 . S
C988 C994 1.368 . S
C989 C973 1.349 . S
C989 H981 0.950 . S
C989 C987 1.327 . S
C990 C978 1.363 . S
C990 H984 0.950 . S
C990 C991 1.318 1_554 S
C991 H985 0.941 1_556 S
C991 C990 1.318 1_556 S
C991 C995 1.446 . S
C992 C975 1.574 . S
C992 H986 0.949 . S
C992 C996 1.368 . S
C993 C974 1.429 . S
C993 C987 1.429 . S
C993 C994 1.523 . S
C994 C975 1.368 . S
C994 C988 1.368 . S
C994 C993 1.523 . S
C995 C979 1.429 . S
C995 C991 1.446 . S
C995 C996 1.523 . S
C996 C980 1.368 . S
C996 C992 1.368 . S
C996 C995 1.523 . S
H997 C972 0.950 . S
H998 C974 0.950 . S
H999 C975 0.949 . S
H1000 C977 0.950 . S
H1001 C979 0.950 . S
C1002 C1003 1.349 . S
C1002 C1004 1.327 . S
C1002 H1027 0.950 . S
C1003 C1002 1.349 . S
C1003 C1019 1.349 . S
C1004 C1002 1.327 . S
C1004 C1023 1.429 . S
C1004 H1028 0.950 . S
C1005 C1022 1.574 . S
C1005 C1024 1.368 . S
C1005 H1029 0.949 . S
H1006 C1010 0.949 . S
C1007 C1008 1.349 . S
C1007 C1009 1.327 . S
C1007 H1030 0.950 . S
C1008 C1007 1.349 . S
C1008 C1020 1.349 . S
C1009 C1007 1.327 . S
C1009 C1025 1.429 . S
C1009 H1031 0.950 . S
C1010 H1006 0.949 . S
C1010 C1018 1.574 . S
C1010 C1026 1.368 . S
H1011 C1019 0.950 . S
H1012 C1017 0.950 . S
H1013 C1018 0.949 . S
H1014 C1020 0.950 . S
H1015 C1021 0.950 . S
H1016 C1022 0.949 . S
C1017 H1012 0.950 . S
C1017 C1019 1.327 . S
C1017 C1023 1.429 . S
C1018 C1010 1.574 . S
C1018 H1013 0.949 . S
C1018 C1024 1.368 . S
C1019 C1003 1.349 . S
C1019 H1011 0.950 . S
C1019 C1017 1.327 . S
C1020 C1008 1.349 . S
C1020 H1014 0.950 . S
C1020 C1021 1.327 . S
C1021 H1015 0.950 . S
C1021 C1020 1.327 . S
C1021 C1025 1.429 . S
C1022 C1005 1.574 . S
C1022 H1016 0.949 . S
C1022 C1026 1.368 . S
C1023 C1004 1.429 . S
C1023 C1017 1.429 . S
C1023 C1024 1.523 . S
C1024 C1005 1.368 . S
C1024 C1018 1.368 . S
C1024 C1023 1.523 . S
C1025 C1009 1.429 . S
C1025 C1021 1.429 . S
C1025 C1026 1.523 . S
C1026 C1010 1.368 . S
C1026 C1022 1.368 . S
C1026 C1025 1.523 . S
H1027 C1002 0.950 . S
H1028 C1004 0.950 . S
H1029 C1005 0.949 . S
H1030 C1007 0.950 . S
H1031 C1009 0.950 . S
C1032 C1033 1.349 . S
C1032 C1034 1.327 . S
C1032 H1057 0.950 . S
C1033 C1032 1.349 . S
C1033 C1049 1.349 1_545 S
C1034 C1032 1.327 . S
C1034 C1053 1.429 . S
C1034 H1058 0.950 . S
C1035 C1052 1.574 . S
C1035 C1054 1.368 1_565 S
C1035 H1059 0.949 . S
H1036 C1040 0.949 . S
C1037 C1038 1.349 1_565 S
C1037 C1039 1.327 . S
C1037 H1060 0.950 . S
C1038 C1037 1.349 1_545 S
C1038 C1050 1.349 . S
C1039 C1037 1.327 . S
C1039 C1055 1.429 1_565 S
C1039 H1061 0.950 . S
C1040 H1036 0.949 . S
C1040 C1048 1.574 . S
C1040 C1056 1.368 . S
H1041 C1049 0.950 . S
H1042 C1047 0.950 . S
H1043 C1048 0.949 . S
H1044 C1050 0.950 . S
H1045 C1051 0.950 . S
H1046 C1052 0.949 . S
C1047 H1042 0.950 . S
C1047 C1049 1.327 . S
C1047 C1053 1.429 1_565 S
C1048 C1040 1.574 . S
C1048 H1043 0.949 . S
C1048 C1054 1.368 . S
C1049 C1033 1.349 1_565 S
C1049 H1041 0.950 . S
C1049 C1047 1.327 . S
C1050 C1038 1.349 . S
C1050 H1044 0.950 . S
C1050 C1051 1.327 . S
C1051 H1045 0.950 . S
C1051 C1050 1.327 . S
C1051 C1055 1.429 . S
C1052 C1035 1.574 . S
C1052 H1046 0.949 . S
C1052 C1056 1.368 1_565 S
C1053 C1034 1.429 . S
C1053 C1047 1.429 1_545 S
C1053 C1054 1.523 . S
C1054 C1035 1.368 1_545 S
C1054 C1048 1.368 . S
C1054 C1053 1.523 . S
C1055 C1039 1.429 1_545 S
C1055 C1051 1.429 . S
C1055 C1056 1.523 . S
C1056 C1040 1.368 . S
C1056 C1052 1.368 1_545 S
C1056 C1055 1.523 . S
H1057 C1032 0.950 . S
H1058 C1034 0.950 . S
H1059 C1035 0.949 . S
H1060 C1037 0.950 . S
H1061 C1039 0.950 . S
C1062 C1063 1.349 . S
C1062 C1064 1.327 . S
C1062 H1087 0.950 . S
C1063 C1062 1.349 . S
C1063 C1079 1.349 . S
C1064 C1062 1.327 . S
C1064 C1083 1.429 . S
C1064 H1088 0.950 . S
C1065 C1082 1.574 . S
C1065 C1084 1.368 . S
C1065 H1089 0.949 . S
H1066 C1070 0.949 . S
C1067 C1068 1.349 . S
C1067 C1069 1.327 . S
C1067 H1090 0.950 . S
C1068 C1067 1.349 . S
C1068 C1080 1.349 . S
C1069 C1067 1.327 . S
C1069 C1085 1.429 . S
C1069 H1091 0.950 . S
C1070 H1066 0.949 . S
C1070 C1078 1.574 . S
C1070 C1086 1.368 . S
H1071 C1079 0.950 . S
H1072 C1077 0.950 . S
H1073 C1078 0.949 . S
H1074 C1080 0.950 . S
H1075 C1081 0.950 . S
H1076 C1082 0.949 . S
C1077 H1072 0.950 . S
C1077 C1079 1.327 . S
C1077 C1083 1.429 . S
C1078 C1070 1.574 . S
C1078 H1073 0.949 . S
C1078 C1084 1.368 . S
C1079 C1063 1.349 . S
C1079 H1071 0.950 . S
C1079 C1077 1.327 . S
C1080 C1068 1.349 . S
C1080 H1074 0.950 . S
C1080 C1081 1.327 . S
C1081 H1075 0.950 . S
C1081 C1080 1.327 . S
C1081 C1085 1.429 . S
C1082 C1065 1.574 . S
C1082 H1076 0.949 . S
C1082 C1086 1.368 . S
C1083 C1064 1.429 . S
C1083 C1077 1.429 . S
C1083 C1084 1.523 . S
C1084 C1065 1.368 . S
C1084 C1078 1.368 . S
C1084 C1083 1.523 . S
C1085 C1069 1.429 . S
C1085 C1081 1.429 . S
C1085 C1086 1.523 . S
C1086 C1070 1.368 . S
C1086 C1082 1.368 . S
C1086 C1085 1.523 . S
H1087 C1062 0.950 . S
H1088 C1064 0.950 . S
H1089 C1065 0.949 . S
H1090 C1067 0.950 . S
H1091 C1069 0.950 . S
C1092 C1093 1.349 . S
C1092 C1094 1.327 . S
C1092 H1117 0.950 . S
C1093 C1092 1.349 . S
C1093 C1109 1.349 . S
C1094 C1092 1.327 . S
C1094 C1113 1.429 . S
C1094 H1118 0.950 . S
C1095 C1112 1.574 . S
C1095 C1114 1.368 . S
C1095 H1119 0.949 . S
H1096 C1100 0.949 . S
C1097 C1098 1.349 . S
C1097 C1099 1.327 . S
C1097 H1120 0.950 . S
C1098 C1097 1.349 . S
C1098 C1110 1.349 . S
C1099 C1097 1.327 . S
C1099 C1115 1.429 . S
C1099 H1121 0.950 . S
C1100 H1096 0.949 . S
C1100 C1108 1.574 . S
C1100 C1116 1.368 . S
H1101 C1109 0.950 . S
H1102 C1107 0.950 . S
H1103 C1108 0.949 . S
H1104 C1110 0.950 . S
H1105 C1111 0.950 . S
H1106 C1112 0.949 . S
C1107 H1102 0.950 . S
C1107 C1109 1.327 . S
C1107 C1113 1.429 . S
C1108 C1100 1.574 . S
C1108 H1103 0.949 . S
C1108 C1114 1.368 . S
C1109 C1093 1.349 . S
C1109 H1101 0.950 . S
C1109 C1107 1.327 . S
C1110 C1098 1.349 . S
C1110 H1104 0.950 . S
C1110 C1111 1.327 . S
C1111 H1105 0.950 . S
C1111 C1110 1.327 . S
C1111 C1115 1.429 . S
C1112 C1095 1.574 . S
C1112 H1106 0.949 . S
C1112 C1116 1.368 . S
C1113 C1094 1.429 . S
C1113 C1107 1.429 . S
C1113 C1114 1.523 . S
C1114 C1095 1.368 . S
C1114 C1108 1.368 . S
C1114 C1113 1.523 . S
C1115 C1099 1.429 . S
C1115 C1111 1.429 . S
C1115 C1116 1.523 . S
C1116 C1100 1.368 . S
C1116 C1112 1.368 . S
C1116 C1115 1.523 . S
H1117 C1092 0.950 . S
H1118 C1094 0.950 . S
H1119 C1095 0.949 . S
H1120 C1097 0.950 . S
H1121 C1099 0.950 . S
C1122 C1123 1.349 . S
C1122 C1124 1.327 . S
C1122 H1147 0.950 . S
C1123 C1122 1.349 . S
C1123 C1139 1.349 . S
C1124 C1122 1.327 . S
C1124 C1143 1.429 . S
C1124 H1148 0.950 . S
C1125 C1142 1.574 . S
C1125 C1144 1.368 . S
C1125 H1149 0.949 . S
H1126 C1130 0.949 . S
C1127 C1128 1.349 . S
C1127 C1129 1.327 . S
C1127 H1150 0.950 . S
C1128 C1127 1.349 . S
C1128 C1140 1.349 . S
C1129 C1127 1.327 . S
C1129 C1145 1.429 . S
C1129 H1151 0.950 . S
C1130 H1126 0.949 . S
C1130 C1138 1.574 . S
C1130 C1146 1.368 . S
H1131 C1139 0.950 . S
H1132 C1137 0.950 . S
H1133 C1138 0.949 . S
H1134 C1140 0.950 . S
H1135 C1141 0.950 . S
H1136 C1142 0.949 . S
C1137 H1132 0.950 . S
C1137 C1139 1.327 . S
C1137 C1143 1.429 . S
C1138 C1130 1.574 . S
C1138 H1133 0.949 . S
C1138 C1144 1.368 . S
C1139 C1123 1.349 . S
C1139 H1131 0.950 . S
C1139 C1137 1.327 . S
C1140 C1128 1.349 . S
C1140 H1134 0.950 . S
C1140 C1141 1.327 . S
C1141 H1135 0.950 . S
C1141 C1140 1.327 . S
C1141 C1145 1.429 . S
C1142 C1125 1.574 . S
C1142 H1136 0.949 . S
C1142 C1146 1.368 . S
C1143 C1124 1.429 . S
C1143 C1137 1.429 . S
C1143 C1144 1.523 . S
C1144 C1125 1.368 . S
C1144 C1138 1.368 . S
C1144 C1143 1.523 . S
C1145 C1129 1.429 . S
C1145 C1141 1.429 . S
C1145 C1146 1.523 . S
C1146 C1130 1.368 . S
C1146 C1142 1.368 . S
C1146 C1145 1.523 . S
H1147 C1122 0.950 . S
H1148 C1124 0.950 . S
H1149 C1125 0.949 . S
H1150 C1127 0.950 . S
H1151 C1129 0.950 . S
C1152 C1153 1.349 1_565 S
C1152 C1154 1.327 1_565 S
C1152 H1177 0.950 . S
C1153 C1152 1.349 1_545 S
C1153 C1169 1.349 . S
C1154 C1152 1.327 1_545 S
C1154 C1173 1.427 . S
C1154 H1178 0.950 1_545 S
C1155 C1172 1.574 . S
C1155 C1174 1.368 . S
C1155 H1179 0.949 . S
H1156 C1160 0.949 . S
C1157 C1158 1.349 . S
C1157 C1159 1.327 . S
C1157 H1180 0.950 . S
C1158 C1157 1.349 . S
C1158 C1170 1.349 . S
C1159 C1157 1.327 . S
C1159 C1175 1.429 . S
C1159 H1181 0.950 . S
C1160 H1156 0.949 . S
C1160 C1168 1.574 . S
C1160 C1176 1.368 . S
H1161 C1169 0.950 . S
H1162 C1167 0.950 . S
H1163 C1168 0.949 1_565 S
H1164 C1170 0.950 . S
H1165 C1171 0.950 . S
H1166 C1172 0.949 . S
C1167 H1162 0.950 . S
C1167 C1169 1.327 . S
C1167 C1173 1.429 . S
C1168 C1160 1.574 . S
C1168 H1163 0.949 1_545 S
C1168 C1174 1.368 . S
C1169 C1153 1.349 . S
C1169 H1161 0.950 . S
C1169 C1167 1.327 . S
C1170 C1158 1.349 . S
C1170 H1164 0.950 . S
C1170 C1171 1.327 . S
C1171 H1165 0.950 . S
C1171 C1170 1.327 . S
C1171 C1175 1.429 . S
C1172 C1155 1.574 . S
C1172 H1166 0.949 . S
C1172 C1176 1.368 . S
C1173 C1154 1.427 . S
C1173 C1167 1.429 . S
C1173 C1174 1.523 . S
C1174 C1155 1.368 . S
C1174 C1168 1.368 . S
C1174 C1173 1.523 . S
C1175 C1159 1.429 . S
C1175 C1171 1.429 . S
C1175 C1176 1.523 . S
C1176 C1160 1.368 . S
C1176 C1172 1.368 . S
C1176 C1175 1.523 . S
H1177 C1152 0.950 . S
H1178 C1154 0.950 1_565 S
H1179 C1155 0.949 . S
H1180 C1157 0.950 . S
H1181 C1159 0.950 . S
C1182 C1183 1.349 . S
C1182 C1184 1.327 . S
C1182 H1207 0.950 . S
C1183 C1182 1.349 . S
C1183 C1199 1.349 . S
C1184 C1182 1.327 . S
C1184 C1203 1.429 . S
C1184 H1208 0.950 . S
C1185 C1202 1.574 . S
C1185 C1204 1.368 . S
C1185 H1209 0.949 . S
H1186 C1190 0.949 . S
C1187 C1188 1.349 . S
C1187 C1189 1.327 . S
C1187 H1210 0.950 . S
C1188 C1187 1.349 . S
C1188 C1200 1.349 . S
C1189 C1187 1.327 . S
C1189 C1205 1.429 . S
C1189 H1211 0.950 . S
C1190 H1186 0.949 . S
C1190 C1198 1.574 . S
C1190 C1206 1.368 . S
H1191 C1199 0.950 . S
H1192 C1197 0.950 . S
H1193 C1198 0.949 . S
H1194 C1200 0.950 . S
H1195 C1201 0.950 . S
H1196 C1202 0.949 . S
C1197 H1192 0.950 . S
C1197 C1199 1.327 . S
C1197 C1203 1.429 . S
C1198 C1190 1.574 . S
C1198 H1193 0.949 . S
C1198 C1204 1.368 . S
C1199 C1183 1.349 . S
C1199 H1191 0.950 . S
C1199 C1197 1.327 . S
C1200 C1188 1.349 . S
C1200 H1194 0.950 . S
C1200 C1201 1.327 . S
C1201 H1195 0.950 . S
C1201 C1200 1.327 . S
C1201 C1205 1.429 . S
C1202 C1185 1.574 . S
C1202 H1196 0.949 . S
C1202 C1206 1.368 . S
C1203 C1184 1.429 . S
C1203 C1197 1.429 . S
C1203 C1204 1.523 . S
C1204 C1185 1.368 . S
C1204 C1198 1.368 . S
C1204 C1203 1.523 . S
C1205 C1189 1.429 . S
C1205 C1201 1.429 . S
C1205 C1206 1.523 . S
C1206 C1190 1.368 . S
C1206 C1202 1.368 . S
C1206 C1205 1.523 . S
H1207 C1182 0.950 . S
H1208 C1184 0.950 . S
H1209 C1185 0.949 . S
H1210 C1187 0.950 . S
H1211 C1189 0.950 . S
C1212 C1213 1.349 . S
C1212 C1214 1.327 . S
C1212 H1237 0.950 . S
C1213 C1212 1.349 . S
C1213 C1229 1.349 . S
C1214 C1212 1.327 . S
C1214 C1233 1.429 . S
C1214 H1238 0.950 . S
C1215 C1232 1.574 . S
C1215 C1234 1.368 . S
C1215 H1239 0.949 . S
H1216 C1220 0.949 . S
C1217 C1218 1.349 . S
C1217 C1219 1.327 . S
C1217 H1240 0.950 . S
C1218 C1217 1.349 . S
C1218 C1230 1.349 . S
C1219 C1217 1.327 . S
C1219 C1235 1.429 . S
C1219 H1241 0.950 . S
C1220 H1216 0.949 . S
C1220 C1228 1.574 . S
C1220 C1236 1.368 . S
H1221 C1229 0.950 . S
H1222 C1227 0.950 . S
H1223 C1228 0.949 . S
H1224 C1230 0.950 1_565 S
H1225 C1231 0.950 1_565 S
H1226 C1232 0.949 . S
C1227 H1222 0.950 . S
C1227 C1229 1.327 . S
C1227 C1233 1.429 . S
C1228 C1220 1.574 . S
C1228 H1223 0.949 . S
C1228 C1234 1.368 . S
C1229 C1213 1.349 . S
C1229 H1221 0.950 . S
C1229 C1227 1.327 . S
C1230 C1218 1.349 . S
C1230 H1224 0.950 1_545 S
C1230 C1231 1.327 . S
C1231 H1225 0.950 1_545 S
C1231 C1230 1.327 . S
C1231 C1235 1.429 . S
C1232 C1215 1.574 . S
C1232 H1226 0.949 . S
C1232 C1236 1.368 . S
C1233 C1214 1.429 . S
C1233 C1227 1.429 . S
C1233 C1234 1.523 . S
C1234 C1215 1.368 . S
C1234 C1228 1.368 . S
C1234 C1233 1.523 . S
C1235 C1219 1.429 . S
C1235 C1231 1.429 . S
C1235 C1236 1.523 . S
C1236 C1220 1.368 . S
C1236 C1232 1.368 . S
C1236 C1235 1.523 . S
H1237 C1212 0.950 . S
H1238 C1214 0.950 . S
H1239 C1215 0.949 . S
H1240 C1217 0.950 . S
H1241 C1219 0.950 . S
C1242 C1243 1.349 . S
C1242 C1244 1.327 . S
C1242 H1267 0.950 . S
C1243 C1242 1.349 . S
C1243 C1259 1.349 . S
C1244 C1242 1.327 . S
C1244 C1263 1.429 . S
C1244 H1268 0.950 . S
C1245 C1262 1.574 . S
C1245 C1264 1.368 . S
C1245 H1269 0.949 . S
H1246 C1250 0.949 . S
C1247 C1248 1.349 . S
C1247 C1249 1.327 . S
C1247 H1270 0.950 . S
C1248 C1247 1.349 . S
C1248 C1260 1.349 . S
C1249 C1247 1.327 . S
C1249 C1265 1.429 . S
C1249 H1271 0.950 . S
C1250 H1246 0.949 . S
C1250 C1258 1.574 . S
C1250 C1266 1.368 . S
H1251 C1259 0.950 . S
H1252 C1257 0.950 . S
H1253 C1258 0.949 . S
H1254 C1260 0.950 . S
H1255 C1261 0.950 . S
H1256 C1262 0.949 . S
C1257 H1252 0.950 . S
C1257 C1259 1.327 . S
C1257 C1263 1.429 . S
C1258 C1250 1.574 . S
C1258 H1253 0.949 . S
C1258 C1264 1.368 . S
C1259 C1243 1.349 . S
C1259 H1251 0.950 . S
C1259 C1257 1.327 . S
C1260 C1248 1.349 . S
C1260 H1254 0.950 . S
C1260 C1261 1.327 . S
C1261 H1255 0.950 . S
C1261 C1260 1.327 . S
C1261 C1265 1.429 . S
C1262 C1245 1.574 . S
C1262 H1256 0.949 . S
C1262 C1266 1.368 . S
C1263 C1244 1.429 . S
C1263 C1257 1.429 . S
C1263 C1264 1.523 . S
C1264 C1245 1.368 . S
C1264 C1258 1.368 . S
C1264 C1263 1.523 . S
C1265 C1249 1.429 . S
C1265 C1261 1.429 . S
C1265 C1266 1.523 . S
C1266 C1250 1.368 . S
C1266 C1262 1.368 . S
C1266 C1265 1.523 . S
H1267 C1242 0.950 . S
H1268 C1244 0.950 . S
H1269 C1245 0.949 . S
H1270 C1247 0.950 . S
H1271 C1249 0.950 . S
C1272 C1273 1.349 . S
C1272 C1274 1.327 . S
C1272 H1297 0.950 . S
C1273 C1272 1.349 . S
C1273 C1289 1.349 . S
C1274 C1272 1.327 . S
C1274 C1293 1.429 . S
C1274 H1298 0.950 . S
C1275 C1292 1.574 . S
C1275 C1294 1.368 . S
C1275 H1299 0.949 1_554 S
H1276 C1280 0.949 . S
C1277 C1278 1.349 1_556 S
C1277 C1279 1.331 . S
C1277 H1300 0.950 . S
C1278 C1277 1.349 1_554 S
C1278 C1290 1.349 . S
C1279 C1277 1.331 . S
C1279 C1295 1.392 1_556 S
C1279 H1301 0.984 . S
C1280 H1276 0.949 . S
C1280 C1288 1.574 . S
C1280 C1296 1.368 . S
H1281 C1289 0.950 1_556 S
H1282 C1287 0.950 1_556 S
H1283 C1288 0.949 . S
H1284 C1290 0.950 . S
H1285 C1291 0.950 . S
H1286 C1292 0.949 1_556 S
C1287 H1282 0.950 1_554 S
C1287 C1289 1.327 . S
C1287 C1293 1.429 . S
C1288 C1280 1.574 . S
C1288 H1283 0.949 . S
C1288 C1294 1.368 . S
C1289 C1273 1.349 . S
C1289 H1281 0.950 1_554 S
C1289 C1287 1.327 . S
C1290 C1278 1.349 . S
C1290 H1284 0.950 . S
C1290 C1291 1.327 . S
C1291 H1285 0.950 . S
C1291 C1290 1.327 . S
C1291 C1295 1.429 . S
C1292 C1275 1.574 . S
C1292 H1286 0.949 1_554 S
C1292 C1296 1.368 . S
C1293 C1274 1.429 . S
C1293 C1287 1.429 . S
C1293 C1294 1.523 . S
C1294 C1275 1.368 . S
C1294 C1288 1.368 . S
C1294 C1293 1.523 . S
C1295 C1279 1.392 1_554 S
C1295 C1291 1.429 . S
C1295 C1296 1.523 . S
C1296 C1280 1.368 . S
C1296 C1292 1.368 . S
C1296 C1295 1.523 . S
H1297 C1272 0.950 . S
H1298 C1274 0.950 . S
H1299 C1275 0.949 1_556 S
H1300 C1277 0.950 . S
H1301 C1279 0.984 . S
C1302 C1303 1.349 . S
C1302 C1304 1.327 . S
C1302 H1327 0.950 . S
C1303 C1302 1.349 . S
C1303 C1319 1.349 . S
C1304 C1302 1.327 . S
C1304 C1323 1.429 . S
C1304 H1328 0.950 . S
C1305 C1322 1.574 . S
C1305 C1324 1.368 . S
C1305 H1329 0.949 . S
H1306 C1310 0.949 . S
C1307 C1308 1.349 . S
C1307 C1309 1.327 . S
C1307 H1330 0.950 . S
C1308 C1307 1.349 . S
C1308 C1320 1.349 . S
C1309 C1307 1.327 . S
C1309 C1325 1.429 . S
C1309 H1331 0.950 . S
C1310 H1306 0.949 . S
C1310 C1318 1.574 . S
C1310 C1326 1.368 . S
H1311 C1319 0.950 . S
H1312 C1317 0.950 . S
H1313 C1318 0.949 . S
H1314 C1320 0.950 . S
H1315 C1321 0.950 . S
H1316 C1322 0.949 . S
C1317 H1312 0.950 . S
C1317 C1319 1.327 . S
C1317 C1323 1.429 . S
C1318 C1310 1.574 . S
C1318 H1313 0.949 . S
C1318 C1324 1.368 . S
C1319 C1303 1.349 . S
C1319 H1311 0.950 . S
C1319 C1317 1.327 . S
C1320 C1308 1.349 . S
C1320 H1314 0.950 . S
C1320 C1321 1.327 . S
C1321 H1315 0.950 . S
C1321 C1320 1.327 . S
C1321 C1325 1.429 . S
C1322 C1305 1.574 . S
C1322 H1316 0.949 . S
C1322 C1326 1.368 . S
C1323 C1304 1.429 . S
C1323 C1317 1.429 . S
C1323 C1324 1.523 . S
C1324 C1305 1.368 . S
C1324 C1318 1.368 . S
C1324 C1323 1.523 . S
C1325 C1309 1.429 . S
C1325 C1321 1.429 . S
C1325 C1326 1.523 . S
C1326 C1310 1.368 . S
C1326 C1322 1.368 . S
C1326 C1325 1.523 . S
H1327 C1302 0.950 . S
H1328 C1304 0.950 . S
H1329 C1305 0.949 . S
H1330 C1307 0.950 . S
H1331 C1309 0.950 . S
C1332 C1333 1.349 . S
C1332 C1334 1.327 . S
C1332 H1357 0.950 . S
C1333 C1332 1.349 . S
C1333 C1349 1.349 . S
C1334 C1332 1.327 . S
C1334 C1353 1.429 . S
C1334 H1358 0.950 . S
C1335 C1352 1.574 . S
C1335 C1354 1.368 . S
C1335 H1359 0.949 . S
H1336 C1340 0.949 . S
C1337 C1338 1.349 . S
C1337 C1339 1.327 . S
C1337 H1360 0.950 . S
C1338 C1337 1.349 . S
C1338 C1350 1.349 . S
C1339 C1337 1.327 . S
C1339 C1355 1.429 . S
C1339 H1361 0.950 . S
C1340 H1336 0.949 . S
C1340 C1348 1.574 . S
C1340 C1356 1.368 . S
H1341 C1349 0.950 . S
H1342 C1347 0.950 . S
H1343 C1348 0.949 . S
H1344 C1350 0.950 . S
H1345 C1351 0.950 . S
H1346 C1352 0.949 . S
C1347 H1342 0.950 . S
C1347 C1349 1.327 . S
C1347 C1353 1.429 . S
C1348 C1340 1.574 . S
C1348 H1343 0.949 . S
C1348 C1354 1.368 . S
C1349 C1333 1.349 . S
C1349 H1341 0.950 . S
C1349 C1347 1.327 . S
C1350 C1338 1.349 . S
C1350 H1344 0.950 . S
C1350 C1351 1.327 . S
C1351 H1345 0.950 . S
C1351 C1350 1.327 . S
C1351 C1355 1.429 . S
C1352 C1335 1.574 . S
C1352 H1346 0.949 . S
C1352 C1356 1.368 . S
C1353 C1334 1.429 . S
C1353 C1347 1.429 . S
C1353 C1354 1.523 . S
C1354 C1335 1.368 . S
C1354 C1348 1.368 . S
C1354 C1353 1.523 . S
C1355 C1339 1.429 . S
C1355 C1351 1.429 . S
C1355 C1356 1.523 . S
C1356 C1340 1.368 . S
C1356 C1352 1.368 . S
C1356 C1355 1.523 . S
H1357 C1332 0.950 . S
H1358 C1334 0.950 . S
H1359 C1335 0.949 . S
H1360 C1337 0.950 . S
H1361 C1339 0.950 . S
C1362 C1363 1.349 . S
C1362 C1364 1.327 . S
C1362 H1387 0.950 . S
C1363 C1362 1.349 . S
C1363 C1379 1.349 . S
C1364 C1362 1.327 . S
C1364 C1383 1.429 . S
C1364 H1388 0.950 . S
C1365 C1382 1.574 . S
C1365 C1384 1.368 . S
C1365 H1389 0.949 . S
H1366 C1370 0.949 . S
C1367 C1368 1.349 . S
C1367 C1369 1.327 . S
C1367 H1390 0.950 . S
C1368 C1367 1.349 . S
C1368 C1380 1.349 . S
C1369 C1367 1.327 . S
C1369 C1385 1.429 . S
C1369 H1391 0.950 . S
C1370 H1366 0.949 . S
C1370 C1378 1.574 . S
C1370 C1386 1.368 . S
H1371 C1379 0.950 . S
H1372 C1377 0.950 . S
H1373 C1378 0.949 . S
H1374 C1380 0.950 . S
H1375 C1381 0.950 . S
H1376 C1382 0.949 . S
C1377 H1372 0.950 . S
C1377 C1379 1.327 . S
C1377 C1383 1.429 . S
C1378 C1370 1.574 . S
C1378 H1373 0.949 . S
C1378 C1384 1.368 . S
C1379 C1363 1.349 . S
C1379 H1371 0.950 . S
C1379 C1377 1.327 . S
C1380 C1368 1.349 . S
C1380 H1374 0.950 . S
C1380 C1381 1.327 . S
C1381 H1375 0.950 . S
C1381 C1380 1.327 . S
C1381 C1385 1.429 . S
C1382 C1365 1.574 . S
C1382 H1376 0.949 . S
C1382 C1386 1.368 . S
C1383 C1364 1.429 . S
C1383 C1377 1.429 . S
C1383 C1384 1.523 . S
C1384 C1365 1.368 . S
C1384 C1378 1.368 . S
C1384 C1383 1.523 . S
C1385 C1369 1.429 . S
C1385 C1381 1.429 . S
C1385 C1386 1.523 . S
C1386 C1370 1.368 . S
C1386 C1382 1.368 . S
C1386 C1385 1.523 . S
H1387 C1362 0.950 . S
H1388 C1364 0.950 . S
H1389 C1365 0.949 . S
H1390 C1367 0.950 . S
H1391 C1369 0.950 . S
C1392 C1393 1.349 . S
C1392 C1394 1.327 . S
C1392 H1417 0.950 . S
C1393 C1392 1.349 . S
C1393 C1409 1.349 . S
C1394 C1392 1.327 . S
C1394 C1413 1.429 . S
C1394 H1418 0.950 . S
C1395 C1412 1.574 . S
C1395 C1414 1.368 . S
C1395 H1419 0.949 . S
H1396 C1400 0.949 . S
C1397 C1398 1.349 . S
C1397 C1399 1.327 . S
C1397 H1420 0.950 . S
C1398 C1397 1.349 . S
C1398 C1410 1.349 . S
C1399 C1397 1.327 . S
C1399 C1415 1.429 . S
C1399 H1421 0.950 . S
C1400 H1396 0.949 . S
C1400 C1408 1.574 . S
C1400 C1416 1.368 . S
H1401 C1409 0.950 . S
H1402 C1407 0.950 . S
H1403 C1408 0.949 . S
H1404 C1410 0.950 . S
H1405 C1411 0.950 . S
H1406 C1412 0.949 . S
C1407 H1402 0.950 . S
C1407 C1409 1.327 . S
C1407 C1413 1.429 . S
C1408 C1400 1.574 . S
C1408 H1403 0.949 . S
C1408 C1414 1.368 . S
C1409 C1393 1.349 . S
C1409 H1401 0.950 . S
C1409 C1407 1.327 . S
C1410 C1398 1.349 . S
C1410 H1404 0.950 . S
C1410 C1411 1.327 . S
C1411 H1405 0.950 . S
C1411 C1410 1.327 . S
C1411 C1415 1.429 . S
C1412 C1395 1.574 . S
C1412 H1406 0.949 . S
C1412 C1416 1.368 . S
C1413 C1394 1.429 . S
C1413 C1407 1.429 . S
C1413 C1414 1.523 . S
C1414 C1395 1.368 . S
C1414 C1408 1.368 . S
C1414 C1413 1.523 . S
C1415 C1399 1.429 . S
C1415 C1411 1.429 . S
C1415 C1416 1.523 . S
C1416 C1400 1.368 . S
C1416 C1412 1.368 . S
C1416 C1415 1.523 . S
H1417 C1392 0.950 . S
H1418 C1394 0.950 . S
H1419 C1395 0.949 . S
H1420 C1397 0.950 . S
H1421 C1399 0.950 . S
C1422 C1423 1.349 . S
C1422 C1424 1.327 . S
C1422 H1447 0.950 . S
C1423 C1422 1.349 . S
C1423 C1439 1.349 . S
C1424 C1422 1.327 . S
C1424 C1443 1.429 . S
C1424 H1448 0.950 . S
C1425 C1442 1.574 . S
C1425 C1444 1.368 . S
C1425 H1449 0.949 . S
H1426 C1430 0.949 . S
C1427 C1428 1.349 . S
C1427 C1429 1.327 . S
C1427 H1450 0.950 . S
C1428 C1427 1.349 . S
C1428 C1440 1.349 . S
C1429 C1427 1.327 . S
C1429 C1445 1.429 . S
C1429 H1451 0.950 . S
C1430 H1426 0.949 . S
C1430 C1438 1.574 . S
C1430 C1446 1.368 . S
H1431 C1439 0.950 . S
H1432 C1437 0.950 . S
H1433 C1438 0.949 . S
H1434 C1440 0.950 1_545 S
H1435 C1441 0.950 . S
H1436 C1442 0.949 . S
C1437 H1432 0.950 . S
C1437 C1439 1.327 . S
C1437 C1443 1.429 . S
C1438 C1430 1.574 . S
C1438 H1433 0.949 . S
C1438 C1444 1.368 . S
C1439 C1423 1.349 . S
C1439 H1431 0.950 . S
C1439 C1437 1.327 . S
C1440 C1428 1.349 . S
C1440 H1434 0.950 1_565 S
C1440 C1441 1.327 . S
C1441 H1435 0.950 . S
C1441 C1440 1.327 . S
C1441 C1445 1.429 . S
C1442 C1425 1.574 . S
C1442 H1436 0.949 . S
C1442 C1446 1.368 . S
C1443 C1424 1.429 . S
C1443 C1437 1.429 . S
C1443 C1444 1.523 . S
C1444 C1425 1.368 . S
C1444 C1438 1.368 . S
C1444 C1443 1.523 . S
C1445 C1429 1.429 . S
C1445 C1441 1.429 . S
C1445 C1446 1.523 . S
C1446 C1430 1.368 . S
C1446 C1442 1.368 . S
C1446 C1445 1.523 . S
H1447 C1422 0.950 . S
H1448 C1424 0.950 . S
H1449 C1425 0.949 . S
H1450 C1427 0.950 . S
H1451 C1429 0.950 . S
C1452 C1453 1.349 . S
C1452 C1454 1.327 . S
C1452 H1477 0.950 . S
C1453 C1452 1.349 . S
C1453 C1469 1.349 . S
C1454 C1452 1.327 . S
C1454 C1473 1.429 . S
C1454 H1478 0.950 . S
C1455 C1472 1.574 . S
C1455 C1474 1.368 . S
C1455 H1479 0.949 . S
H1456 C1460 0.949 . S
C1457 C1458 1.349 . S
C1457 C1459 1.327 . S
C1457 H1480 0.950 . S
C1458 C1457 1.349 . S
C1458 C1470 1.349 . S
C1459 C1457 1.327 . S
C1459 C1475 1.429 . S
C1459 H1481 0.950 . S
C1460 H1456 0.949 . S
C1460 C1468 1.574 . S
C1460 C1476 1.368 . S
H1461 C1469 0.950 . S
H1462 C1467 0.950 . S
H1463 C1468 0.949 . S
H1464 C1470 0.950 . S
H1465 C1471 0.950 . S
H1466 C1472 0.949 . S
C1467 H1462 0.950 . S
C1467 C1469 1.327 . S
C1467 C1473 1.429 . S
C1468 C1460 1.574 . S
C1468 H1463 0.949 . S
C1468 C1474 1.368 . S
C1469 C1453 1.349 . S
C1469 H1461 0.950 . S
C1469 C1467 1.327 . S
C1470 C1458 1.349 . S
C1470 H1464 0.950 . S
C1470 C1471 1.327 . S
C1471 H1465 0.950 . S
C1471 C1470 1.327 . S
C1471 C1475 1.429 . S
C1472 C1455 1.574 . S
C1472 H1466 0.949 . S
C1472 C1476 1.368 . S
C1473 C1454 1.429 . S
C1473 C1467 1.429 . S
C1473 C1474 1.523 . S
C1474 C1455 1.368 . S
C1474 C1468 1.368 . S
C1474 C1473 1.523 . S
C1475 C1459 1.429 . S
C1475 C1471 1.429 . S
C1475 C1476 1.523 . S
C1476 C1460 1.368 . S
C1476 C1472 1.368 . S
C1476 C1475 1.523 . S
H1477 C1452 0.950 . S
H1478 C1454 0.950 . S
H1479 C1455 0.949 . S
H1480 C1457 0.950 . S
H1481 C1459 0.950 . S
C1482 C1483 1.349 . S
C1482 C1484 1.327 . S
C1482 H1507 0.950 . S
C1483 C1482 1.349 . S
C1483 C1499 1.349 . S
C1484 C1482 1.327 . S
C1484 C1503 1.429 . S
C1484 H1508 0.950 . S
C1485 C1502 1.574 . S
C1485 C1504 1.368 . S
C1485 H1509 0.949 . S
H1486 C1490 0.949 . S
C1487 C1488 1.349 . S
C1487 C1489 1.327 . S
C1487 H1510 0.950 . S
C1488 C1487 1.349 . S
C1488 C1500 1.349 . S
C1489 C1487 1.327 . S
C1489 C1505 1.429 . S
C1489 H1511 0.950 . S
C1490 H1486 0.949 . S
C1490 C1498 1.574 . S
C1490 C1506 1.368 . S
H1491 C1499 0.950 . S
H1492 C1497 0.950 . S
H1493 C1498 0.949 . S
H1494 C1500 0.950 . S
H1495 C1501 0.950 . S
H1496 C1502 0.949 . S
C1497 H1492 0.950 . S
C1497 C1499 1.327 . S
C1497 C1503 1.429 . S
C1498 C1490 1.574 . S
C1498 H1493 0.949 . S
C1498 C1504 1.368 . S
C1499 C1483 1.349 . S
C1499 H1491 0.950 . S
C1499 C1497 1.327 . S
C1500 C1488 1.349 . S
C1500 H1494 0.950 . S
C1500 C1501 1.327 . S
C1501 H1495 0.950 . S
C1501 C1500 1.327 . S
C1501 C1505 1.429 . S
C1502 C1485 1.574 . S
C1502 H1496 0.949 . S
C1502 C1506 1.368 . S
C1503 C1484 1.429 . S
C1503 C1497 1.429 . S
C1503 C1504 1.523 . S
C1504 C1485 1.368 . S
C1504 C1498 1.368 . S
C1504 C1503 1.523 . S
C1505 C1489 1.429 . S
C1505 C1501 1.429 . S
C1505 C1506 1.523 . S
C1506 C1490 1.368 . S
C1506 C1502 1.368 . S
C1506 C1505 1.523 . S
H1507 C1482 0.950 . S
H1508 C1484 0.950 . S
H1509 C1485 0.949 . S
H1510 C1487 0.950 . S
H1511 C1489 0.950 . S
C1512 C1513 1.349 . S
C1512 C1514 1.327 . S
C1512 H1537 0.950 . S
C1513 C1512 1.349 . S
C1513 C1529 1.349 . S
C1514 C1512 1.327 . S
C1514 C1533 1.429 . S
C1514 H1538 0.950 . S
C1515 C1532 1.574 . S
C1515 C1534 1.368 . S
C1515 H1539 0.949 1_455 S
H1516 C1520 0.949 . S
C1517 C1518 1.349 . S
C1517 C1519 1.327 . S
C1517 H1540 0.950 . S
C1518 C1517 1.349 . S
C1518 C1530 1.349 . S
C1519 C1517 1.327 . S
C1519 C1535 1.429 . S
C1519 H1541 0.950 1_455 S
C1520 H1516 0.949 . S
C1520 C1528 1.574 . S
C1520 C1536 1.368 . S
H1521 C1529 0.950 1_655 S
H1522 C1527 0.950 1_655 S
H1523 C1528 0.949 . S
H1524 C1530 0.950 1_554 S
H1525 C1531 0.950 . S
H1526 C1532 0.949 1_655 S
C1527 H1522 0.950 1_455 S
C1527 C1529 1.327 . S
C1527 C1533 1.429 . S
C1528 C1520 1.574 . S
C1528 H1523 0.949 . S
C1528 C1534 1.368 . S
C1529 C1513 1.349 . S
C1529 H1521 0.950 1_455 S
C1529 C1527 1.327 . S
C1530 C1518 1.349 . S
C1530 H1524 0.950 1_556 S
C1530 C1531 1.327 . S
C1531 H1525 0.950 . S
C1531 C1530 1.327 . S
C1531 C1535 1.429 . S
C1532 C1515 1.574 . S
C1532 H1526 0.949 1_455 S
C1532 C1536 1.368 . S
C1533 C1514 1.429 . S
C1533 C1527 1.429 . S
C1533 C1534 1.523 . S
C1534 C1515 1.368 . S
C1534 C1528 1.368 . S
C1534 C1533 1.523 . S
C1535 C1519 1.429 . S
C1535 C1531 1.429 . S
C1535 C1536 1.523 . S
C1536 C1520 1.368 . S
C1536 C1532 1.368 . S
C1536 C1535 1.523 . S
H1537 C1512 0.950 . S
H1538 C1514 0.950 . S
H1539 C1515 0.949 1_655 S
H1540 C1517 0.950 . S
H1541 C1519 0.950 1_655 S
C1542 C1543 1.349 . S
C1542 C1544 1.327 . S
C1542 H1567 0.950 . S
C1543 C1542 1.349 . S
C1543 C1559 1.349 . S
C1544 C1542 1.327 . S
C1544 C1563 1.429 . S
C1544 H1568 0.950 . S
C1545 C1562 1.574 . S
C1545 C1564 1.368 . S
C1545 H1569 0.949 . S
H1546 C1550 0.949 . S
C1547 C1548 1.349 . S
C1547 C1549 1.327 . S
C1547 H1570 0.950 . S
C1548 C1547 1.349 . S
C1548 C1560 1.349 . S
C1549 C1547 1.327 . S
C1549 C1565 1.429 . S
C1549 H1571 0.950 . S
C1550 H1546 0.949 . S
C1550 C1558 1.574 . S
C1550 C1566 1.368 . S
H1551 C1559 0.950 . S
H1552 C1557 0.950 . S
H1553 C1558 0.949 . S
H1554 C1560 0.950 . S
H1555 C1561 0.950 . S
H1556 C1562 0.949 . S
C1557 H1552 0.950 . S
C1557 C1559 1.327 . S
C1557 C1563 1.429 . S
C1558 C1550 1.574 . S
C1558 H1553 0.949 . S
C1558 C1564 1.368 . S
C1559 C1543 1.349 . S
C1559 H1551 0.950 . S
C1559 C1557 1.327 . S
C1560 C1548 1.349 . S
C1560 H1554 0.950 . S
C1560 C1561 1.327 . S
C1561 H1555 0.950 . S
C1561 C1560 1.327 . S
C1561 C1565 1.429 . S
C1562 C1545 1.574 . S
C1562 H1556 0.949 . S
C1562 C1566 1.368 . S
C1563 C1544 1.429 . S
C1563 C1557 1.429 . S
C1563 C1564 1.523 . S
C1564 C1545 1.368 . S
C1564 C1558 1.368 . S
C1564 C1563 1.523 . S
C1565 C1549 1.429 . S
C1565 C1561 1.429 . S
C1565 C1566 1.523 . S
C1566 C1550 1.368 . S
C1566 C1562 1.368 . S
C1566 C1565 1.523 . S
H1567 C1542 0.950 . S
H1568 C1544 0.950 . S
H1569 C1545 0.949 . S
H1570 C1547 0.950 . S
H1571 C1549 0.950 . S
C1572 C1573 1.349 . S
C1572 C1574 1.327 . S
C1572 H1597 0.950 . S
C1573 C1572 1.349 . S
C1573 C1589 1.349 . S
C1574 C1572 1.327 . S
C1574 C1593 1.429 . S
C1574 H1598 0.950 . S
C1575 C1592 1.574 . S
C1575 C1594 1.368 . S
C1575 H1599 0.949 . S
H1576 C1580 0.949 . S
C1577 C1578 1.349 . S
C1577 C1579 1.327 . S
C1577 H1600 0.950 . S
C1578 C1577 1.349 . S
C1578 C1590 1.349 . S
C1579 C1577 1.327 . S
C1579 C1595 1.429 . S
C1579 H1601 0.950 . S
C1580 H1576 0.949 . S
C1580 C1588 1.574 . S
C1580 C1596 1.368 . S
H1581 C1589 0.950 . S
H1582 C1587 0.950 . S
H1583 C1588 0.949 . S
H1584 C1590 0.950 . S
H1585 C1591 0.950 . S
H1586 C1592 0.949 . S
C1587 H1582 0.950 . S
C1587 C1589 1.327 . S
C1587 C1593 1.429 . S
C1588 C1580 1.574 . S
C1588 H1583 0.949 . S
C1588 C1594 1.368 . S
C1589 C1573 1.349 . S
C1589 H1581 0.950 . S
C1589 C1587 1.327 . S
C1590 C1578 1.349 . S
C1590 H1584 0.950 . S
C1590 C1591 1.327 . S
C1591 H1585 0.950 . S
C1591 C1590 1.327 . S
C1591 C1595 1.429 . S
C1592 C1575 1.574 . S
C1592 H1586 0.949 . S
C1592 C1596 1.368 . S
C1593 C1574 1.429 . S
C1593 C1587 1.429 . S
C1593 C1594 1.523 . S
C1594 C1575 1.368 . S
C1594 C1588 1.368 . S
C1594 C1593 1.523 . S
C1595 C1579 1.429 . S
C1595 C1591 1.429 . S
C1595 C1596 1.523 . S
C1596 C1580 1.368 . S
C1596 C1592 1.368 . S
C1596 C1595 1.523 . S
H1597 C1572 0.950 . S
H1598 C1574 0.950 . S
H1599 C1575 0.949 . S
H1600 C1577 0.950 . S
H1601 C1579 0.950 . S
C1602 C1603 1.349 . S
C1602 C1604 1.327 . S
C1602 H1627 0.950 . S
C1603 C1602 1.349 . S
C1603 C1619 1.349 . S
C1604 C1602 1.327 . S
C1604 C1623 1.429 . S
C1604 H1628 0.950 . S
C1605 C1622 1.574 . S
C1605 C1624 1.368 . S
C1605 H1629 0.949 . S
H1606 C1610 0.949 . S
C1607 C1608 1.349 . S
C1607 C1609 1.327 . S
C1607 H1630 0.950 . S
C1608 C1607 1.349 . S
C1608 C1620 1.349 . S
C1609 C1607 1.327 . S
C1609 C1625 1.429 . S
C1609 H1631 0.950 . S
C1610 H1606 0.949 . S
C1610 C1618 1.574 . S
C1610 C1626 1.368 . S
H1611 C1619 0.950 . S
H1612 C1617 0.950 . S
H1613 C1618 0.949 . S
H1614 C1620 0.950 . S
H1615 C1621 0.950 . S
H1616 C1622 0.949 . S
C1617 H1612 0.950 . S
C1617 C1619 1.327 . S
C1617 C1623 1.429 . S
C1618 C1610 1.574 . S
C1618 H1613 0.949 . S
C1618 C1624 1.368 . S
C1619 C1603 1.349 . S
C1619 H1611 0.950 . S
C1619 C1617 1.327 . S
C1620 C1608 1.349 . S
C1620 H1614 0.950 . S
C1620 C1621 1.327 . S
C1621 H1615 0.950 . S
C1621 C1620 1.327 . S
C1621 C1625 1.429 . S
C1622 C1605 1.574 . S
C1622 H1616 0.949 . S
C1622 C1626 1.368 . S
C1623 C1604 1.429 . S
C1623 C1617 1.429 . S
C1623 C1624 1.523 . S
C1624 C1605 1.368 . S
C1624 C1618 1.368 . S
C1624 C1623 1.523 . S
C1625 C1609 1.429 . S
C1625 C1621 1.429 . S
C1625 C1626 1.523 . S
C1626 C1610 1.368 . S
C1626 C1622 1.368 . S
C1626 C1625 1.523 . S
H1627 C1602 0.950 . S
H1628 C1604 0.950 . S
H1629 C1605 0.949 . S
H1630 C1607 0.950 . S
H1631 C1609 0.950 . S
C1632 C1633 1.349 1_655 S
C1632 C1634 1.336 . S
C1632 H1657 0.950 . S
C1633 C1632 1.349 1_455 S
C1633 C1649 1.349 . S
C1634 C1632 1.336 . S
C1634 C1653 1.402 1_655 S
C1634 H1658 0.971 . S
C1635 C1652 1.574 . S
C1635 C1654 1.368 . S
C1635 H1659 0.949 . S
H1636 C1640 0.949 . S
C1637 C1638 1.349 . S
C1637 C1639 1.327 . S
C1637 H1660 0.950 . S
C1638 C1637 1.349 . S
C1638 C1650 1.349 . S
C1639 C1637 1.327 . S
C1639 C1655 1.429 . S
C1639 H1661 0.950 . S
C1640 H1636 0.949 . S
C1640 C1648 1.574 . S
C1640 C1656 1.368 . S
H1641 C1649 0.950 . S
H1642 C1647 0.950 . S
H1643 C1648 0.949 1_655 S
H1644 C1650 0.950 . S
H1645 C1651 0.950 . S
H1646 C1652 0.949 . S
C1647 H1642 0.950 . S
C1647 C1649 1.327 . S
C1647 C1653 1.429 . S
C1648 C1640 1.574 . S
C1648 H1643 0.949 1_455 S
C1648 C1654 1.368 . S
C1649 C1633 1.349 . S
C1649 H1641 0.950 . S
C1649 C1647 1.327 . S
C1650 C1638 1.349 . S
C1650 H1644 0.950 . S
C1650 C1651 1.327 . S
C1651 H1645 0.950 . S
C1651 C1650 1.327 . S
C1651 C1655 1.429 . S
C1652 C1635 1.574 . S
C1652 H1646 0.949 . S
C1652 C1656 1.368 . S
C1653 C1634 1.402 1_455 S
C1653 C1647 1.429 . S
C1653 C1654 1.523 . S
C1654 C1635 1.368 . S
C1654 C1648 1.368 . S
C1654 C1653 1.523 . S
C1655 C1639 1.429 . S
C1655 C1651 1.429 . S
C1655 C1656 1.523 . S
C1656 C1640 1.368 . S
C1656 C1652 1.368 . S
C1656 C1655 1.523 . S
H1657 C1632 0.950 . S
H1658 C1634 0.971 . S
H1659 C1635 0.949 . S
H1660 C1637 0.950 . S
H1661 C1639 0.950 . S
C1662 C1663 1.349 . S
C1662 C1664 1.327 . S
C1662 H1687 0.950 . S
C1663 C1662 1.349 . S
C1663 C1679 1.349 . S
C1664 C1662 1.327 . S
C1664 C1683 1.429 . S
C1664 H1688 0.950 . S
C1665 C1682 1.574 . S
C1665 C1684 1.368 . S
C1665 H1689 0.949 . S
H1666 C1670 0.949 . S
C1667 C1668 1.349 . S
C1667 C1669 1.327 . S
C1667 H1690 0.950 . S
C1668 C1667 1.349 . S
C1668 C1680 1.349 . S
C1669 C1667 1.327 . S
C1669 C1685 1.429 . S
C1669 H1691 0.950 . S
C1670 H1666 0.949 . S
C1670 C1678 1.574 . S
C1670 C1686 1.368 . S
H1671 C1679 0.950 . S
H1672 C1677 0.950 . S
H1673 C1678 0.949 . S
H1674 C1680 0.950 . S
H1675 C1681 0.950 . S
H1676 C1682 0.949 . S
C1677 H1672 0.950 . S
C1677 C1679 1.327 . S
C1677 C1683 1.429 . S
C1678 C1670 1.574 . S
C1678 H1673 0.949 . S
C1678 C1684 1.368 . S
C1679 C1663 1.349 . S
C1679 H1671 0.950 . S
C1679 C1677 1.327 . S
C1680 C1668 1.349 . S
C1680 H1674 0.950 . S
C1680 C1681 1.327 . S
C1681 H1675 0.950 . S
C1681 C1680 1.327 . S
C1681 C1685 1.429 . S
C1682 C1665 1.574 . S
C1682 H1676 0.949 . S
C1682 C1686 1.368 . S
C1683 C1664 1.429 . S
C1683 C1677 1.429 . S
C1683 C1684 1.523 . S
C1684 C1665 1.368 . S
C1684 C1678 1.368 . S
C1684 C1683 1.523 . S
C1685 C1669 1.429 . S
C1685 C1681 1.429 . S
C1685 C1686 1.523 . S
C1686 C1670 1.368 . S
C1686 C1682 1.368 . S
C1686 C1685 1.523 . S
H1687 C1662 0.950 . S
H1688 C1664 0.950 . S
H1689 C1665 0.949 . S
H1690 C1667 0.950 . S
H1691 C1669 0.950 . S
C1692 C1693 1.349 . S
C1692 C1694 1.327 . S
C1692 H1717 0.950 . S
C1693 C1692 1.349 . S
C1693 C1709 1.349 . S
C1694 C1692 1.327 . S
C1694 C1713 1.429 . S
C1694 H1718 0.950 . S
C1695 C1712 1.574 . S
C1695 C1714 1.368 . S
C1695 H1719 0.949 . S
H1696 C1700 0.949 . S
C1697 C1698 1.349 . S
C1697 C1699 1.327 . S
C1697 H1720 0.950 . S
C1698 C1697 1.349 . S
C1698 C1710 1.349 . S
C1699 C1697 1.327 . S
C1699 C1715 1.429 . S
C1699 H1721 0.950 . S
C1700 H1696 0.949 . S
C1700 C1708 1.574 . S
C1700 C1716 1.368 . S
H1701 C1709 0.950 . S
H1702 C1707 0.950 . S
H1703 C1708 0.949 . S
H1704 C1710 0.950 . S
H1705 C1711 0.950 . S
H1706 C1712 0.949 . S
C1707 H1702 0.950 . S
C1707 C1709 1.327 . S
C1707 C1713 1.429 . S
C1708 C1700 1.574 . S
C1708 H1703 0.949 . S
C1708 C1714 1.368 . S
C1709 C1693 1.349 . S
C1709 H1701 0.950 . S
C1709 C1707 1.327 . S
C1710 C1698 1.349 . S
C1710 H1704 0.950 . S
C1710 C1711 1.327 . S
C1711 H1705 0.950 . S
C1711 C1710 1.327 . S
C1711 C1715 1.429 . S
C1712 C1695 1.574 . S
C1712 H1706 0.949 . S
C1712 C1716 1.368 . S
C1713 C1694 1.429 . S
C1713 C1707 1.429 . S
C1713 C1714 1.523 . S
C1714 C1695 1.368 . S
C1714 C1708 1.368 . S
C1714 C1713 1.523 . S
C1715 C1699 1.429 . S
C1715 C1711 1.429 . S
C1715 C1716 1.523 . S
C1716 C1700 1.368 . S
C1716 C1712 1.368 . S
C1716 C1715 1.523 . S
H1717 C1692 0.950 . S
H1718 C1694 0.950 . S
H1719 C1695 0.949 . S
H1720 C1697 0.950 . S
H1721 C1699 0.950 . S
C1722 C1723 1.349 . S
C1722 C1724 1.327 . S
C1722 H1747 0.950 . S
C1723 C1722 1.349 . S
C1723 C1739 1.349 . S
C1724 C1722 1.327 . S
C1724 C1743 1.429 . S
C1724 H1748 0.950 . S
C1725 C1742 1.574 . S
C1725 C1744 1.368 . S
C1725 H1749 0.949 . S
H1726 C1730 0.949 . S
C1727 C1728 1.349 . S
C1727 C1729 1.327 . S
C1727 H1750 0.950 . S
C1728 C1727 1.349 . S
C1728 C1740 1.349 . S
C1729 C1727 1.327 . S
C1729 C1745 1.429 . S
C1729 H1751 0.950 . S
C1730 H1726 0.949 . S
C1730 C1738 1.574 . S
C1730 C1746 1.368 . S
H1731 C1739 0.950 . S
H1732 C1737 0.950 . S
H1733 C1738 0.949 . S
H1734 C1740 0.950 . S
H1735 C1741 0.950 . S
H1736 C1742 0.949 . S
C1737 H1732 0.950 . S
C1737 C1739 1.327 . S
C1737 C1743 1.429 . S
C1738 C1730 1.574 . S
C1738 H1733 0.949 . S
C1738 C1744 1.368 . S
C1739 C1723 1.349 . S
C1739 H1731 0.950 . S
C1739 C1737 1.327 . S
C1740 C1728 1.349 . S
C1740 H1734 0.950 . S
C1740 C1741 1.327 . S
C1741 H1735 0.950 . S
C1741 C1740 1.327 . S
C1741 C1745 1.429 . S
C1742 C1725 1.574 . S
C1742 H1736 0.949 . S
C1742 C1746 1.368 . S
C1743 C1724 1.429 . S
C1743 C1737 1.429 . S
C1743 C1744 1.523 . S
C1744 C1725 1.368 . S
C1744 C1738 1.368 . S
C1744 C1743 1.523 . S
C1745 C1729 1.429 . S
C1745 C1741 1.429 . S
C1745 C1746 1.523 . S
C1746 C1730 1.368 . S
C1746 C1742 1.368 . S
C1746 C1745 1.523 . S
H1747 C1722 0.950 . S
H1748 C1724 0.950 . S
H1749 C1725 0.949 . S
H1750 C1727 0.950 . S
H1751 C1729 0.950 . S
C1752 C1753 1.349 . S
C1752 C1754 1.327 . S
C1752 H1777 0.950 . S
C1753 C1752 1.349 . S
C1753 C1769 1.349 . S
C1754 C1752 1.327 . S
C1754 C1773 1.429 . S
C1754 H1778 0.950 . S
C1755 C1772 1.574 . S
C1755 C1774 1.368 . S
C1755 H1779 0.949 . S
H1756 C1760 0.949 . S
C1757 C1758 1.349 . S
C1757 C1759 1.327 . S
C1757 H1780 0.950 . S
C1758 C1757 1.349 . S
C1758 C1770 1.349 . S
C1759 C1757 1.327 . S
C1759 C1775 1.429 . S
C1759 H1781 0.950 . S
C1760 H1756 0.949 . S
C1760 C1768 1.574 . S
C1760 C1776 1.368 . S
H1761 C1769 0.950 . S
H1762 C1767 0.950 . S
H1763 C1768 0.949 . S
H1764 C1770 0.950 . S
H1765 C1771 0.950 . S
H1766 C1772 0.949 . S
C1767 H1762 0.950 . S
C1767 C1769 1.327 . S
C1767 C1773 1.429 . S
C1768 C1760 1.574 . S
C1768 H1763 0.949 . S
C1768 C1774 1.368 . S
C1769 C1753 1.349 . S
C1769 H1761 0.950 . S
C1769 C1767 1.327 . S
C1770 C1758 1.349 . S
C1770 H1764 0.950 . S
C1770 C1771 1.327 . S
C1771 H1765 0.950 . S
C1771 C1770 1.327 . S
C1771 C1775 1.429 . S
C1772 C1755 1.574 . S
C1772 H1766 0.949 . S
C1772 C1776 1.368 . S
C1773 C1754 1.429 . S
C1773 C1767 1.429 . S
C1773 C1774 1.523 . S
C1774 C1755 1.368 . S
C1774 C1768 1.368 . S
C1774 C1773 1.523 . S
C1775 C1759 1.429 . S
C1775 C1771 1.429 . S
C1775 C1776 1.523 . S
C1776 C1760 1.368 . S
C1776 C1772 1.368 . S
C1776 C1775 1.523 . S
H1777 C1752 0.950 . S
H1778 C1754 0.950 . S
H1779 C1755 0.949 . S
H1780 C1757 0.950 . S
H1781 C1759 0.950 . S
C1782 C1783 1.349 . S
C1782 C1784 1.327 . S
C1782 H1807 0.950 . S
C1783 C1782 1.349 . S
C1783 C1799 1.349 . S
C1784 C1782 1.327 . S
C1784 C1803 1.429 . S
C1784 H1808 0.950 . S
C1785 C1802 1.574 . S
C1785 C1804 1.368 . S
C1785 H1809 0.949 . S
H1786 C1790 0.949 . S
C1787 C1788 1.349 . S
C1787 C1789 1.327 . S
C1787 H1810 0.950 . S
C1788 C1787 1.349 . S
C1788 C1800 1.349 . S
C1789 C1787 1.327 . S
C1789 C1805 1.429 . S
C1789 H1811 0.950 . S
C1790 H1786 0.949 . S
C1790 C1798 1.574 . S
C1790 C1806 1.368 . S
H1791 C1799 0.950 . S
H1792 C1797 0.950 . S
H1793 C1798 0.949 . S
H1794 C1800 0.950 . S
H1795 C1801 0.950 . S
H1796 C1802 0.949 . S
C1797 H1792 0.950 . S
C1797 C1799 1.327 . S
C1797 C1803 1.429 . S
C1798 C1790 1.574 . S
C1798 H1793 0.949 . S
C1798 C1804 1.368 . S
C1799 C1783 1.349 . S
C1799 H1791 0.950 . S
C1799 C1797 1.327 . S
C1800 C1788 1.349 . S
C1800 H1794 0.950 . S
C1800 C1801 1.327 . S
C1801 H1795 0.950 . S
C1801 C1800 1.327 . S
C1801 C1805 1.429 . S
C1802 C1785 1.574 . S
C1802 H1796 0.949 . S
C1802 C1806 1.368 . S
C1803 C1784 1.429 . S
C1803 C1797 1.429 . S
C1803 C1804 1.523 . S
C1804 C1785 1.368 . S
C1804 C1798 1.368 . S
C1804 C1803 1.523 . S
C1805 C1789 1.429 . S
C1805 C1801 1.429 . S
C1805 C1806 1.523 . S
C1806 C1790 1.368 . S
C1806 C1802 1.368 . S
C1806 C1805 1.523 . S
H1807 C1782 0.950 . S
H1808 C1784 0.950 . S
H1809 C1785 0.949 . S
H1810 C1787 0.950 . S
H1811 C1789 0.950 . S
C1812 C1813 1.349 1_565 S
C1812 C1814 1.327 . S
C1812 H1837 0.950 . S
C1813 C1812 1.349 1_545 S
C1813 C1829 1.349 . S
C1814 C1812 1.327 . S
C1814 C1833 1.429 1_565 S
C1814 H1838 0.950 . S
C1815 C1832 1.574 . S
C1815 C1834 1.368 . S
C1815 H1839 0.949 . S
H1816 C1820 0.949 . S
C1817 C1818 1.349 . S
C1817 C1819 1.327 . S
C1817 H1840 0.950 . S
C1818 C1817 1.349 . S
C1818 C1830 1.349 1_545 S
C1819 C1817 1.327 . S
C1819 C1835 1.429 . S
C1819 H1841 0.950 . S
C1820 H1816 0.949 . S
C1820 C1828 1.574 . S
C1820 C1836 1.368 1_565 S
H1821 C1829 0.950 . S
H1822 C1827 0.950 . S
H1823 C1828 0.949 . S
H1824 C1830 0.950 . S
H1825 C1831 0.950 . S
H1826 C1832 0.949 . S
C1827 H1822 0.950 . S
C1827 C1829 1.327 . S
C1827 C1833 1.429 . S
C1828 C1820 1.574 . S
C1828 H1823 0.949 . S
C1828 C1834 1.368 1_565 S
C1829 C1813 1.349 . S
C1829 H1821 0.950 . S
C1829 C1827 1.327 . S
C1830 C1818 1.349 1_565 S
C1830 H1824 0.950 . S
C1830 C1831 1.327 . S
C1831 H1825 0.950 . S
C1831 C1830 1.327 . S
C1831 C1835 1.429 1_565 S
C1832 C1815 1.574 . S
C1832 H1826 0.949 . S
C1832 C1836 1.368 . S
C1833 C1814 1.429 1_545 S
C1833 C1827 1.429 . S
C1833 C1834 1.523 . S
C1834 C1815 1.368 . S
C1834 C1828 1.368 1_545 S
C1834 C1833 1.523 . S
C1835 C1819 1.429 . S
C1835 C1831 1.429 1_545 S
C1835 C1836 1.523 . S
C1836 C1820 1.368 1_545 S
C1836 C1832 1.368 . S
C1836 C1835 1.523 . S
H1837 C1812 0.950 . S
H1838 C1814 0.950 . S
H1839 C1815 0.949 . S
H1840 C1817 0.950 . S
H1841 C1819 0.950 . S
C1842 C1843 1.349 . S
C1842 C1844 1.327 . S
C1842 H1867 0.950 . S
C1843 C1842 1.349 . S
C1843 C1859 1.349 . S
C1844 C1842 1.327 . S
C1844 C1863 1.429 . S
C1844 H1868 0.950 . S
C1845 C1862 1.574 . S
C1845 C1864 1.368 . S
C1845 H1869 0.949 . S
H1846 C1850 0.949 . S
C1847 C1848 1.349 . S
C1847 C1849 1.327 . S
C1847 H1870 0.950 . S
C1848 C1847 1.349 . S
C1848 C1860 1.349 . S
C1849 C1847 1.327 . S
C1849 C1865 1.429 . S
C1849 H1871 0.950 . S
C1850 H1846 0.949 . S
C1850 C1858 1.574 . S
C1850 C1866 1.368 . S
H1851 C1859 0.950 . S
H1852 C1857 0.950 . S
H1853 C1858 0.949 . S
H1854 C1860 0.950 . S
H1855 C1861 0.950 . S
H1856 C1862 0.949 . S
C1857 H1852 0.950 . S
C1857 C1859 1.327 . S
C1857 C1863 1.429 . S
C1858 C1850 1.574 . S
C1858 H1853 0.949 . S
C1858 C1864 1.368 . S
C1859 C1843 1.349 . S
C1859 H1851 0.950 . S
C1859 C1857 1.327 . S
C1860 C1848 1.349 . S
C1860 H1854 0.950 . S
C1860 C1861 1.327 . S
C1861 H1855 0.950 . S
C1861 C1860 1.327 . S
C1861 C1865 1.429 . S
C1862 C1845 1.574 . S
C1862 H1856 0.949 . S
C1862 C1866 1.368 . S
C1863 C1844 1.429 . S
C1863 C1857 1.429 . S
C1863 C1864 1.523 . S
C1864 C1845 1.368 . S
C1864 C1858 1.368 . S
C1864 C1863 1.523 . S
C1865 C1849 1.429 . S
C1865 C1861 1.429 . S
C1865 C1866 1.523 . S
C1866 C1850 1.368 . S
C1866 C1862 1.368 . S
C1866 C1865 1.523 . S
H1867 C1842 0.950 . S
H1868 C1844 0.950 . S
H1869 C1845 0.949 . S
H1870 C1847 0.950 . S
H1871 C1849 0.950 . S
C1872 C1873 1.349 . S
C1872 C1874 1.327 . S
C1872 H1897 0.950 . S
C1873 C1872 1.349 . S
C1873 C1889 1.349 . S
C1874 C1872 1.327 . S
C1874 C1893 1.429 . S
C1874 H1898 0.950 . S
C1875 C1892 1.574 . S
C1875 C1894 1.368 . S
C1875 H1899 0.949 . S
H1876 C1880 0.981 . S
C1877 C1878 1.349 . S
C1877 C1879 1.327 . S
C1877 H1900 0.950 1_655 S
C1878 C1877 1.349 . S
C1878 C1890 1.349 . S
C1879 C1877 1.327 . S
C1879 C1895 1.429 . S
C1879 H1901 0.950 . S
C1880 H1876 0.981 . S
C1880 C1888 1.574 . S
C1880 C1896 1.368 . S
H1881 C1889 0.950 . S
H1882 C1887 0.950 . S
H1883 C1888 0.949 . S
H1884 C1890 0.950 1_565 S
H1885 C1891 0.950 1_565 S
H1886 C1892 0.949 . S
C1887 H1882 0.950 . S
C1887 C1889 1.327 . S
C1887 C1893 1.429 . S
C1888 C1880 1.574 . S
C1888 H1883 0.949 . S
C1888 C1894 1.368 . S
C1889 C1873 1.349 . S
C1889 H1881 0.950 . S
C1889 C1887 1.327 . S
C1890 C1878 1.349 . S
C1890 H1884 0.950 1_545 S
C1890 C1891 1.327 . S
C1891 H1885 0.950 1_545 S
C1891 C1890 1.327 . S
C1891 C1895 1.429 . S
C1892 C1875 1.574 . S
C1892 H1886 0.949 . S
C1892 C1896 1.368 . S
C1893 C1874 1.429 . S
C1893 C1887 1.429 . S
C1893 C1894 1.523 . S
C1894 C1875 1.368 . S
C1894 C1888 1.368 . S
C1894 C1893 1.523 . S
C1895 C1879 1.429 . S
C1895 C1891 1.429 . S
C1895 C1896 1.523 . S
C1896 C1880 1.368 . S
C1896 C1892 1.368 . S
C1896 C1895 1.523 . S
H1897 C1872 0.950 . S
H1898 C1874 0.950 . S
H1899 C1875 0.949 . S
H1900 C1877 0.950 1_455 S
H1901 C1879 0.950 . S
C1902 C1903 1.349 . S
C1902 C1904 1.327 . S
C1902 H1927 0.950 . S
C1903 C1902 1.349 . S
C1903 C1919 1.349 . S
C1904 C1902 1.327 . S
C1904 C1923 1.429 . S
C1904 H1928 0.950 . S
C1905 C1922 1.574 . S
C1905 C1924 1.368 . S
C1905 H1929 0.949 . S
H1906 C1910 0.949 . S
C1907 C1908 1.349 . S
C1907 C1909 1.327 . S
C1907 H1930 0.950 . S
C1908 C1907 1.349 . S
C1908 C1920 1.349 . S
C1909 C1907 1.327 . S
C1909 C1925 1.429 . S
C1909 H1931 0.950 . S
C1910 H1906 0.949 . S
C1910 C1918 1.574 . S
C1910 C1926 1.368 . S
H1911 C1919 0.950 . S
H1912 C1917 0.950 . S
H1913 C1918 0.949 . S
H1914 C1920 0.950 . S
H1915 C1921 0.950 . S
H1916 C1922 0.949 . S
C1917 H1912 0.950 . S
C1917 C1919 1.327 . S
C1917 C1923 1.429 . S
C1918 C1910 1.574 . S
C1918 H1913 0.949 . S
C1918 C1924 1.368 . S
C1919 C1903 1.349 . S
C1919 H1911 0.950 . S
C1919 C1917 1.327 . S
C1920 C1908 1.349 . S
C1920 H1914 0.950 . S
C1920 C1921 1.327 . S
C1921 H1915 0.950 . S
C1921 C1920 1.327 . S
C1921 C1925 1.429 . S
C1922 C1905 1.574 . S
C1922 H1916 0.949 . S
C1922 C1926 1.368 . S
C1923 C1904 1.429 . S
C1923 C1917 1.429 . S
C1923 C1924 1.523 . S
C1924 C1905 1.368 . S
C1924 C1918 1.368 . S
C1924 C1923 1.523 . S
C1925 C1909 1.429 . S
C1925 C1921 1.429 . S
C1925 C1926 1.523 . S
C1926 C1910 1.368 . S
C1926 C1922 1.368 . S
C1926 C1925 1.523 . S
H1927 C1902 0.950 . S
H1928 C1904 0.950 . S
H1929 C1905 0.949 . S
H1930 C1907 0.950 . S
H1931 C1909 0.950 . S
C1932 C1933 1.349 . S
C1932 C1934 1.327 . S
C1932 H1957 0.950 . S
C1933 C1932 1.349 . S
C1933 C1949 1.349 1_545 S
C1934 C1932 1.327 . S
C1934 C1953 1.429 . S
C1934 H1958 0.950 . S
C1935 C1952 1.574 . S
C1935 C1954 1.368 . S
C1935 H1959 0.949 1_545 S
H1936 C1940 0.949 . S
C1937 C1938 1.349 . S
C1937 C1939 1.327 . S
C1937 H1960 0.950 . S
C1938 C1937 1.349 . S
C1938 C1950 1.349 . S
C1939 C1937 1.327 . S
C1939 C1955 1.429 . S
C1939 H1961 0.950 . S
C1940 H1936 0.949 . S
C1940 C1948 1.574 . S
C1940 C1956 1.368 . S
H1941 C1949 0.950 . S
H1942 C1947 0.950 . S
H1943 C1948 0.949 . S
H1944 C1950 0.950 . S
H1945 C1951 0.950 . S
H1946 C1952 0.973 . S
C1947 H1942 0.950 . S
C1947 C1949 1.327 . S
C1947 C1953 1.429 1_565 S
C1948 C1940 1.574 . S
C1948 H1943 0.949 . S
C1948 C1954 1.368 . S
C1949 C1933 1.349 1_565 S
C1949 H1941 0.950 . S
C1949 C1947 1.327 . S
C1950 C1938 1.349 . S
C1950 H1944 0.950 . S
C1950 C1951 1.327 . S
C1951 H1945 0.950 . S
C1951 C1950 1.327 . S
C1951 C1955 1.429 . S
C1952 C1935 1.574 . S
C1952 H1946 0.973 . S
C1952 C1956 1.368 . S
C1953 C1934 1.429 . S
C1953 C1947 1.429 1_545 S
C1953 C1954 1.523 . S
C1954 C1935 1.368 . S
C1954 C1948 1.368 . S
C1954 C1953 1.523 . S
C1955 C1939 1.429 . S
C1955 C1951 1.429 . S
C1955 C1956 1.523 . S
C1956 C1940 1.368 . S
C1956 C1952 1.368 . S
C1956 C1955 1.523 . S
H1957 C1932 0.950 . S
H1958 C1934 0.950 . S
H1959 C1935 0.949 1_565 S
H1960 C1937 0.950 . S
H1961 C1939 0.950 . S
C1962 C1963 1.349 . S
C1962 C1964 1.327 . S
C1962 H1987 0.950 . S
C1963 C1962 1.349 . S
C1963 C1979 1.349 . S
C1964 C1962 1.327 . S
C1964 C1983 1.429 . S
C1964 H1988 0.950 . S
C1965 C1982 1.574 . S
C1965 C1984 1.368 . S
C1965 H1989 0.949 . S
H1966 C1970 0.949 . S
C1967 C1968 1.349 . S
C1967 C1969 1.327 . S
C1967 H1990 0.950 . S
C1968 C1967 1.349 . S
C1968 C1980 1.349 . S
C1969 C1967 1.327 . S
C1969 C1985 1.429 . S
C1969 H1991 0.950 . S
C1970 H1966 0.949 . S
C1970 C1978 1.574 . S
C1970 C1986 1.368 . S
H1971 C1979 0.950 . S
H1972 C1977 0.950 . S
H1973 C1978 0.949 . S
H1974 C1980 0.950 . S
H1975 C1981 0.950 . S
H1976 C1982 0.949 . S
C1977 H1972 0.950 . S
C1977 C1979 1.327 . S
C1977 C1983 1.429 . S
C1978 C1970 1.574 . S
C1978 H1973 0.949 . S
C1978 C1984 1.368 . S
C1979 C1963 1.349 . S
C1979 H1971 0.950 . S
C1979 C1977 1.327 . S
C1980 C1968 1.349 . S
C1980 H1974 0.950 . S
C1980 C1981 1.327 . S
C1981 H1975 0.950 . S
C1981 C1980 1.327 . S
C1981 C1985 1.429 . S
C1982 C1965 1.574 . S
C1982 H1976 0.949 . S
C1982 C1986 1.368 . S
C1983 C1964 1.429 . S
C1983 C1977 1.429 . S
C1983 C1984 1.523 . S
C1984 C1965 1.368 . S
C1984 C1978 1.368 . S
C1984 C1983 1.523 . S
C1985 C1969 1.429 . S
C1985 C1981 1.429 . S
C1985 C1986 1.523 . S
C1986 C1970 1.368 . S
C1986 C1982 1.368 . S
C1986 C1985 1.523 . S
H1987 C1962 0.950 . S
H1988 C1964 0.950 . S
H1989 C1965 0.949 . S
H1990 C1967 0.950 . S
H1991 C1969 0.950 . S
C1992 C1993 1.349 . S
C1992 C1994 1.327 . S
C1992 H2017 0.950 . S
C1993 C1992 1.349 . S
C1993 C2009 1.349 . S
C1994 C1992 1.327 . S
C1994 C2013 1.429 . S
C1994 H2018 0.950 . S
C1995 C2012 1.574 . S
C1995 C2014 1.368 . S
C1995 H2019 0.949 . S
H1996 C2000 0.953 . S
C1997 C1998 1.349 1_565 S
C1997 C1999 1.327 . S
C1997 H2020 0.950 . S
C1998 C1997 1.349 1_545 S
C1998 C2010 1.349 . S
C1999 C1997 1.327 . S
C1999 C2015 1.429 . S
C1999 H2021 0.950 . S
C2000 H1996 0.953 . S
C2000 C2008 1.574 . S
C2000 C2016 1.368 . S
H2001 C2009 0.948 . S
H2002 C2007 0.950 . S
H2003 C2008 0.949 . S
H2004 C2010 0.950 . S
H2005 C2011 0.950 . S
H2006 C2012 0.949 . S
C2007 H2002 0.950 . S
C2007 C2009 1.327 . S
C2007 C2013 1.429 . S
C2008 C2000 1.574 . S
C2008 H2003 0.949 . S
C2008 C2014 1.368 . S
C2009 C1993 1.349 . S
C2009 H2001 0.948 . S
C2009 C2007 1.327 . S
C2010 C1998 1.349 . S
C2010 H2004 0.950 . S
C2010 C2011 1.327 . S
C2011 H2005 0.950 . S
C2011 C2010 1.327 . S
C2011 C2015 1.429 1_545 S
C2012 C1995 1.574 . S
C2012 H2006 0.949 . S
C2012 C2016 1.368 . S
C2013 C1994 1.429 . S
C2013 C2007 1.429 . S
C2013 C2014 1.523 . S
C2014 C1995 1.368 . S
C2014 C2008 1.368 . S
C2014 C2013 1.523 . S
C2015 C1999 1.429 . S
C2015 C2011 1.429 1_565 S
C2015 C2016 1.523 . S
C2016 C2000 1.368 . S
C2016 C2012 1.368 . S
C2016 C2015 1.523 . S
H2017 C1992 0.950 . S
H2018 C1994 0.950 . S
H2019 C1995 0.949 . S
H2020 C1997 0.950 . S
H2021 C1999 0.950 . S
C2022 C2023 1.349 . S
C2022 C2024 1.327 . S
C2022 H2047 0.950 . S
C2023 C2022 1.349 . S
C2023 C2039 1.349 1_556 S
C2024 C2022 1.327 . S
C2024 C2043 1.430 1_556 S
C2024 H2048 0.950 . S
C2025 C2042 1.574 . S
C2025 C2044 1.368 . S
C2025 H2049 0.949 . S
H2026 C2030 0.949 . S
C2027 C2028 1.349 . S
C2027 C2029 1.327 . S
C2027 H2050 0.950 . S
C2028 C2027 1.349 . S
C2028 C2040 1.349 1_554 S
C2029 C2027 1.327 . S
C2029 C2045 1.429 . S
C2029 H2051 0.950 . S
C2030 H2026 0.949 . S
C2030 C2038 1.574 . S
C2030 C2046 1.368 1_556 S
H2031 C2039 0.950 . S
H2032 C2037 0.950 . S
H2033 C2038 0.949 . S
H2034 C2040 0.950 . S
H2035 C2041 0.950 . S
H2036 C2042 0.949 . S
C2037 H2032 0.950 . S
C2037 C2039 1.327 . S
C2037 C2043 1.428 . S
C2038 C2030 1.574 . S
C2038 H2033 0.949 . S
C2038 C2044 1.368 1_556 S
C2039 C2023 1.349 1_554 S
C2039 H2031 0.950 . S
C2039 C2037 1.327 . S
C2040 C2028 1.349 1_556 S
C2040 H2034 0.950 . S
C2040 C2041 1.327 . S
C2041 H2035 0.950 . S
C2041 C2040 1.327 . S
C2041 C2045 1.429 1_556 S
C2042 C2025 1.574 . S
C2042 H2036 0.949 . S
C2042 C2046 1.368 . S
C2043 C2024 1.430 1_554 S
C2043 C2037 1.428 . S
C2043 C2044 1.523 . S
C2044 C2025 1.368 . S
C2044 C2038 1.368 1_554 S
C2044 C2043 1.523 . S
C2045 C2029 1.429 . S
C2045 C2041 1.429 1_554 S
C2045 C2046 1.523 . S
C2046 C2030 1.368 1_554 S
C2046 C2042 1.368 . S
C2046 C2045 1.523 . S
H2047 C2022 0.950 . S
H2048 C2024 0.950 . S
H2049 C2025 0.949 . S
H2050 C2027 0.950 . S
H2051 C2029 0.950 . S
C2052 C2053 1.349 . S
C2052 C2054 1.327 . S
C2052 H2077 0.950 . S
C2053 C2052 1.349 . S
C2053 C2069 1.349 . S
C2054 C2052 1.327 . S
C2054 C2073 1.429 . S
C2054 H2078 0.950 . S
C2055 C2072 1.574 . S
C2055 C2074 1.368 . S
C2055 H2079 0.949 . S
H2056 C2060 0.949 . S
C2057 C2058 1.349 . S
C2057 C2059 1.327 . S
C2057 H2080 0.950 . S
C2058 C2057 1.349 . S
C2058 C2070 1.349 . S
C2059 C2057 1.327 . S
C2059 C2075 1.429 . S
C2059 H2081 0.950 . S
C2060 H2056 0.949 . S
C2060 C2068 1.574 . S
C2060 C2076 1.368 . S
H2061 C2069 0.950 . S
H2062 C2067 0.950 . S
H2063 C2068 0.949 . S
H2064 C2070 0.950 . S
H2065 C2071 0.950 . S
H2066 C2072 0.949 . S
C2067 H2062 0.950 . S
C2067 C2069 1.327 . S
C2067 C2073 1.429 . S
C2068 C2060 1.574 . S
C2068 H2063 0.949 . S
C2068 C2074 1.368 . S
C2069 C2053 1.349 . S
C2069 H2061 0.950 . S
C2069 C2067 1.327 . S
C2070 C2058 1.349 . S
C2070 H2064 0.950 . S
C2070 C2071 1.327 . S
C2071 H2065 0.950 . S
C2071 C2070 1.327 . S
C2071 C2075 1.429 . S
C2072 C2055 1.574 . S
C2072 H2066 0.949 . S
C2072 C2076 1.368 . S
C2073 C2054 1.429 . S
C2073 C2067 1.429 . S
C2073 C2074 1.523 . S
C2074 C2055 1.368 . S
C2074 C2068 1.368 . S
C2074 C2073 1.523 . S
C2075 C2059 1.429 . S
C2075 C2071 1.429 . S
C2075 C2076 1.523 . S
C2076 C2060 1.368 . S
C2076 C2072 1.368 . S
C2076 C2075 1.523 . S
H2077 C2052 0.950 . S
H2078 C2054 0.950 . S
H2079 C2055 0.949 . S
H2080 C2057 0.950 . S
H2081 C2059 0.950 . S
C2082 C2083 1.349 . S
C2082 C2084 1.327 . S
C2082 H2107 0.950 . S
C2083 C2082 1.349 . S
C2083 C2099 1.349 . S
C2084 C2082 1.327 . S
C2084 C2103 1.429 . S
C2084 H2108 0.950 . S
C2085 C2102 1.574 . S
C2085 C2104 1.368 . S
C2085 H2109 0.949 . S
H2086 C2090 0.949 . S
C2087 C2088 1.349 . S
C2087 C2089 1.327 . S
C2087 H2110 0.950 . S
C2088 C2087 1.349 . S
C2088 C2100 1.349 . S
C2089 C2087 1.327 . S
C2089 C2105 1.429 . S
C2089 H2111 0.950 . S
C2090 H2086 0.949 . S
C2090 C2098 1.574 . S
C2090 C2106 1.368 . S
H2091 C2099 0.950 . S
H2092 C2097 0.950 . S
H2093 C2098 0.949 . S
H2094 C2100 0.950 . S
H2095 C2101 0.950 . S
H2096 C2102 0.949 . S
C2097 H2092 0.950 . S
C2097 C2099 1.327 . S
C2097 C2103 1.429 . S
C2098 C2090 1.574 . S
C2098 H2093 0.949 . S
C2098 C2104 1.368 . S
C2099 C2083 1.349 . S
C2099 H2091 0.950 . S
C2099 C2097 1.327 . S
C2100 C2088 1.349 . S
C2100 H2094 0.950 . S
C2100 C2101 1.327 . S
C2101 H2095 0.950 . S
C2101 C2100 1.327 . S
C2101 C2105 1.429 . S
C2102 C2085 1.574 . S
C2102 H2096 0.949 . S
C2102 C2106 1.368 . S
C2103 C2084 1.429 . S
C2103 C2097 1.429 . S
C2103 C2104 1.523 . S
C2104 C2085 1.368 . S
C2104 C2098 1.368 . S
C2104 C2103 1.523 . S
C2105 C2089 1.429 . S
C2105 C2101 1.429 . S
C2105 C2106 1.523 . S
C2106 C2090 1.368 . S
C2106 C2102 1.368 . S
C2106 C2105 1.523 . S
H2107 C2082 0.950 . S
H2108 C2084 0.950 . S
H2109 C2085 0.949 . S
H2110 C2087 0.950 . S
H2111 C2089 0.950 . S
C2112 C2113 1.349 1_565 S
C2112 C2114 1.327 . S
C2112 H2137 0.950 . S
C2113 C2112 1.349 1_545 S
C2113 C2129 1.349 1_545 S
C2114 C2112 1.327 . S
C2114 C2133 1.429 . S
C2114 H2138 0.950 . S
C2115 C2132 1.574 . S
C2115 C2134 1.368 . S
C2115 H2139 0.949 . S
H2116 C2120 0.949 . S
C2117 C2118 1.349 . S
C2117 C2119 1.327 . S
C2117 H2140 0.950 . S
C2118 C2117 1.349 . S
C2118 C2130 1.349 . S
C2119 C2117 1.327 . S
C2119 C2135 1.429 . S
C2119 H2141 0.950 . S
C2120 H2116 0.949 . S
C2120 C2128 1.574 . S
C2120 C2136 1.368 . S
H2121 C2129 0.950 1_545 S
H2122 C2127 0.950 . S
H2123 C2128 0.949 . S
H2124 C2130 0.950 . S
H2125 C2131 0.950 . S
H2126 C2132 0.949 . S
C2127 H2122 0.950 . S
C2127 C2129 1.327 . S
C2127 C2133 1.429 . S
C2128 C2120 1.574 . S
C2128 H2123 0.949 . S
C2128 C2134 1.368 . S
C2129 C2113 1.349 1_565 S
C2129 H2121 0.950 1_565 S
C2129 C2127 1.327 . S
C2130 C2118 1.349 . S
C2130 H2124 0.950 . S
C2130 C2131 1.327 . S
C2131 H2125 0.950 . S
C2131 C2130 1.327 . S
C2131 C2135 1.429 . S
C2132 C2115 1.574 . S
C2132 H2126 0.949 . S
C2132 C2136 1.368 . S
C2133 C2114 1.429 . S
C2133 C2127 1.429 . S
C2133 C2134 1.523 . S
C2134 C2115 1.368 . S
C2134 C2128 1.368 . S
C2134 C2133 1.523 . S
C2135 C2119 1.429 . S
C2135 C2131 1.429 . S
C2135 C2136 1.523 . S
C2136 C2120 1.368 . S
C2136 C2132 1.368 . S
C2136 C2135 1.523 . S
H2137 C2112 0.950 . S
H2138 C2114 0.950 . S
H2139 C2115 0.949 . S
H2140 C2117 0.950 . S
H2141 C2119 0.950 . S
C2142 C2143 1.349 . S
C2142 C2144 1.327 . S
C2142 H2167 0.950 . S
C2143 C2142 1.349 . S
C2143 C2159 1.349 . S
C2144 C2142 1.327 . S
C2144 C2163 1.429 . S
C2144 H2168 0.950 . S
C2145 C2162 1.574 . S
C2145 C2164 1.368 . S
C2145 H2169 0.949 . S
H2146 C2150 0.949 . S
C2147 C2148 1.349 . S
C2147 C2149 1.327 . S
C2147 H2170 0.950 . S
C2148 C2147 1.349 . S
C2148 C2160 1.349 . S
C2149 C2147 1.327 . S
C2149 C2165 1.429 . S
C2149 H2171 0.950 . S
C2150 H2146 0.949 . S
C2150 C2158 1.574 . S
C2150 C2166 1.368 . S
H2151 C2159 0.950 . S
H2152 C2157 0.950 . S
H2153 C2158 0.949 . S
H2154 C2160 0.950 . S
H2155 C2161 0.950 . S
H2156 C2162 0.949 . S
C2157 H2152 0.950 . S
C2157 C2159 1.327 . S
C2157 C2163 1.429 . S
C2158 C2150 1.574 . S
C2158 H2153 0.949 . S
C2158 C2164 1.368 . S
C2159 C2143 1.349 . S
C2159 H2151 0.950 . S
C2159 C2157 1.327 . S
C2160 C2148 1.349 . S
C2160 H2154 0.950 . S
C2160 C2161 1.327 . S
C2161 H2155 0.950 . S
C2161 C2160 1.327 . S
C2161 C2165 1.429 . S
C2162 C2145 1.574 . S
C2162 H2156 0.949 . S
C2162 C2166 1.368 . S
C2163 C2144 1.429 . S
C2163 C2157 1.429 . S
C2163 C2164 1.523 . S
C2164 C2145 1.368 . S
C2164 C2158 1.368 . S
C2164 C2163 1.523 . S
C2165 C2149 1.429 . S
C2165 C2161 1.429 . S
C2165 C2166 1.523 . S
C2166 C2150 1.368 . S
C2166 C2162 1.368 . S
C2166 C2165 1.523 . S
H2167 C2142 0.950 . S
H2168 C2144 0.950 . S
H2169 C2145 0.949 . S
H2170 C2147 0.950 . S
H2171 C2149 0.950 . S
C2172 C2173 1.349 . S
C2172 C2174 1.327 . S
C2172 H2197 0.950 . S
C2173 C2172 1.349 . S
C2173 C2189 1.349 . S
C2174 C2172 1.327 . S
C2174 C2193 1.429 . S
C2174 H2198 0.950 . S
C2175 C2192 1.574 . S
C2175 C2194 1.368 . S
C2175 H2199 0.949 . S
H2176 C2180 0.949 . S
C2177 C2178 1.349 . S
C2177 C2179 1.327 . S
C2177 H2200 0.950 . S
C2178 C2177 1.349 . S
C2178 C2190 1.349 . S
C2179 C2177 1.327 . S
C2179 C2195 1.429 . S
C2179 H2201 0.950 . S
C2180 H2176 0.949 . S
C2180 C2188 1.574 . S
C2180 C2196 1.368 . S
H2181 C2189 0.950 . S
H2182 C2187 0.950 . S
H2183 C2188 0.949 . S
H2184 C2190 0.950 . S
H2185 C2191 0.950 . S
H2186 C2192 0.949 . S
C2187 H2182 0.950 . S
C2187 C2189 1.327 . S
C2187 C2193 1.429 . S
C2188 C2180 1.574 . S
C2188 H2183 0.949 . S
C2188 C2194 1.368 . S
C2189 C2173 1.349 . S
C2189 H2181 0.950 . S
C2189 C2187 1.327 . S
C2190 C2178 1.349 . S
C2190 H2184 0.950 . S
C2190 C2191 1.327 . S
C2191 H2185 0.950 . S
C2191 C2190 1.327 . S
C2191 C2195 1.429 . S
C2192 C2175 1.574 . S
C2192 H2186 0.949 . S
C2192 C2196 1.368 . S
C2193 C2174 1.429 . S
C2193 C2187 1.429 . S
C2193 C2194 1.523 . S
C2194 C2175 1.368 . S
C2194 C2188 1.368 . S
C2194 C2193 1.523 . S
C2195 C2179 1.429 . S
C2195 C2191 1.429 . S
C2195 C2196 1.523 . S
C2196 C2180 1.368 . S
C2196 C2192 1.368 . S
C2196 C2195 1.523 . S
H2197 C2172 0.950 . S
H2198 C2174 0.950 . S
H2199 C2175 0.949 . S
H2200 C2177 0.950 . S
H2201 C2179 0.950 . S
C2202 C2203 1.349 . S
C2202 C2204 1.327 . S
C2202 H2227 0.950 . S
C2203 C2202 1.349 . S
C2203 C2219 1.349 . S
C2204 C2202 1.327 . S
C2204 C2223 1.429 . S
C2204 H2228 0.950 . S
C2205 C2222 1.574 . S
C2205 C2224 1.368 . S
C2205 H2229 0.949 . S
H2206 C2210 0.949 . S
C2207 C2208 1.349 . S
C2207 C2209 1.327 . S
C2207 H2230 0.950 . S
C2208 C2207 1.349 . S
C2208 C2220 1.349 . S
C2209 C2207 1.327 . S
C2209 C2225 1.429 . S
C2209 H2231 0.950 . S
C2210 H2206 0.949 . S
C2210 C2218 1.574 . S
C2210 C2226 1.368 . S
H2211 C2219 0.950 . S
H2212 C2217 0.950 . S
H2213 C2218 0.949 . S
H2214 C2220 0.950 . S
H2215 C2221 0.950 . S
H2216 C2222 0.949 . S
C2217 H2212 0.950 . S
C2217 C2219 1.327 . S
C2217 C2223 1.429 . S
C2218 C2210 1.574 . S
C2218 H2213 0.949 . S
C2218 C2224 1.368 . S
C2219 C2203 1.349 . S
C2219 H2211 0.950 . S
C2219 C2217 1.327 . S
C2220 C2208 1.349 . S
C2220 H2214 0.950 . S
C2220 C2221 1.327 . S
C2221 H2215 0.950 . S
C2221 C2220 1.327 . S
C2221 C2225 1.429 . S
C2222 C2205 1.574 . S
C2222 H2216 0.949 . S
C2222 C2226 1.368 . S
C2223 C2204 1.429 . S
C2223 C2217 1.429 . S
C2223 C2224 1.523 . S
C2224 C2205 1.368 . S
C2224 C2218 1.368 . S
C2224 C2223 1.523 . S
C2225 C2209 1.429 . S
C2225 C2221 1.429 . S
C2225 C2226 1.523 . S
C2226 C2210 1.368 . S
C2226 C2222 1.368 . S
C2226 C2225 1.523 . S
H2227 C2202 0.950 . S
H2228 C2204 0.950 . S
H2229 C2205 0.949 . S
H2230 C2207 0.950 . S
H2231 C2209 0.950 . S
C2232 C2233 1.349 . S
C2232 C2234 1.327 . S
C2232 H2257 0.950 . S
C2233 C2232 1.349 . S
C2233 C2249 1.349 . S
C2234 C2232 1.327 . S
C2234 C2253 1.429 . S
C2234 H2258 0.950 . S
C2235 C2252 1.574 . S
C2235 C2254 1.368 . S
C2235 H2259 0.949 . S
H2236 C2240 0.949 . S
C2237 C2238 1.349 . S
C2237 C2239 1.327 . S
C2237 H2260 0.950 . S
C2238 C2237 1.349 . S
C2238 C2250 1.349 . S
C2239 C2237 1.327 . S
C2239 C2255 1.429 . S
C2239 H2261 0.950 . S
C2240 H2236 0.949 . S
C2240 C2248 1.574 . S
C2240 C2256 1.368 . S
H2241 C2249 0.950 . S
H2242 C2247 0.950 . S
H2243 C2248 0.949 . S
H2244 C2250 0.950 . S
H2245 C2251 0.950 . S
H2246 C2252 0.949 . S
C2247 H2242 0.950 . S
C2247 C2249 1.327 . S
C2247 C2253 1.429 . S
C2248 C2240 1.574 . S
C2248 H2243 0.949 . S
C2248 C2254 1.368 . S
C2249 C2233 1.349 . S
C2249 H2241 0.950 . S
C2249 C2247 1.327 . S
C2250 C2238 1.349 . S
C2250 H2244 0.950 . S
C2250 C2251 1.327 . S
C2251 H2245 0.950 . S
C2251 C2250 1.327 . S
C2251 C2255 1.429 . S
C2252 C2235 1.574 . S
C2252 H2246 0.949 . S
C2252 C2256 1.368 . S
C2253 C2234 1.429 . S
C2253 C2247 1.429 . S
C2253 C2254 1.523 . S
C2254 C2235 1.368 . S
C2254 C2248 1.368 . S
C2254 C2253 1.523 . S
C2255 C2239 1.429 . S
C2255 C2251 1.429 . S
C2255 C2256 1.523 . S
C2256 C2240 1.368 . S
C2256 C2252 1.368 . S
C2256 C2255 1.523 . S
H2257 C2232 0.950 . S
H2258 C2234 0.950 . S
H2259 C2235 0.949 . S
H2260 C2237 0.950 . S
H2261 C2239 0.950 . S
C2262 C2263 1.349 . S
C2262 C2264 1.327 . S
C2262 H2287 0.950 . S
C2263 C2262 1.349 . S
C2263 C2279 1.349 . S
C2264 C2262 1.327 . S
C2264 C2283 1.429 . S
C2264 H2288 0.950 . S
C2265 C2282 1.574 . S
C2265 C2284 1.368 . S
C2265 H2289 0.949 . S
H2266 C2270 0.949 . S
C2267 C2268 1.349 . S
C2267 C2269 1.327 . S
C2267 H2290 0.950 . S
C2268 C2267 1.349 . S
C2268 C2280 1.349 . S
C2269 C2267 1.327 . S
C2269 C2285 1.429 . S
C2269 H2291 0.950 . S
C2270 H2266 0.949 . S
C2270 C2278 1.574 . S
C2270 C2286 1.368 . S
H2271 C2279 0.950 . S
H2272 C2277 0.950 . S
H2273 C2278 0.949 . S
H2274 C2280 0.950 . S
H2275 C2281 0.950 . S
H2276 C2282 0.949 . S
C2277 H2272 0.950 . S
C2277 C2279 1.327 . S
C2277 C2283 1.429 . S
C2278 C2270 1.574 . S
C2278 H2273 0.949 . S
C2278 C2284 1.368 . S
C2279 C2263 1.349 . S
C2279 H2271 0.950 . S
C2279 C2277 1.327 . S
C2280 C2268 1.349 . S
C2280 H2274 0.950 . S
C2280 C2281 1.327 . S
C2281 H2275 0.950 . S
C2281 C2280 1.327 . S
C2281 C2285 1.429 . S
C2282 C2265 1.574 . S
C2282 H2276 0.949 . S
C2282 C2286 1.368 . S
C2283 C2264 1.429 . S
C2283 C2277 1.429 . S
C2283 C2284 1.523 . S
C2284 C2265 1.368 . S
C2284 C2278 1.368 . S
C2284 C2283 1.523 . S
C2285 C2269 1.429 . S
C2285 C2281 1.429 . S
C2285 C2286 1.523 . S
C2286 C2270 1.368 . S
C2286 C2282 1.368 . S
C2286 C2285 1.523 . S
H2287 C2262 0.950 . S
H2288 C2264 0.950 . S
H2289 C2265 0.949 . S
H2290 C2267 0.950 . S
H2291 C2269 0.950 . S
C2292 C2293 1.349 . S
C2292 C2294 1.327 . S
C2292 H2317 0.950 . S
C2293 C2292 1.349 . S
C2293 C2309 1.349 . S
C2294 C2292 1.327 . S
C2294 C2313 1.429 . S
C2294 H2318 0.950 . S
C2295 C2312 1.574 . S
C2295 C2314 1.368 . S
C2295 H2319 0.949 . S
H2296 C2300 0.949 . S
C2297 C2298 1.349 . S
C2297 C2299 1.327 . S
C2297 H2320 0.950 . S
C2298 C2297 1.349 . S
C2298 C2310 1.349 . S
C2299 C2297 1.327 . S
C2299 C2315 1.429 . S
C2299 H2321 0.950 . S
C2300 H2296 0.949 . S
C2300 C2308 1.574 . S
C2300 C2316 1.368 . S
H2301 C2309 0.950 . S
H2302 C2307 0.950 . S
H2303 C2308 0.949 . S
H2304 C2310 0.950 . S
H2305 C2311 0.950 . S
H2306 C2312 0.949 . S
C2307 H2302 0.950 . S
C2307 C2309 1.327 . S
C2307 C2313 1.429 . S
C2308 C2300 1.574 . S
C2308 H2303 0.949 . S
C2308 C2314 1.368 . S
C2309 C2293 1.349 . S
C2309 H2301 0.950 . S
C2309 C2307 1.327 . S
C2310 C2298 1.349 . S
C2310 H2304 0.950 . S
C2310 C2311 1.327 . S
C2311 H2305 0.950 . S
C2311 C2310 1.327 . S
C2311 C2315 1.429 . S
C2312 C2295 1.574 . S
C2312 H2306 0.949 . S
C2312 C2316 1.368 . S
C2313 C2294 1.429 . S
C2313 C2307 1.429 . S
C2313 C2314 1.523 . S
C2314 C2295 1.368 . S
C2314 C2308 1.368 . S
C2314 C2313 1.523 . S
C2315 C2299 1.429 . S
C2315 C2311 1.429 . S
C2315 C2316 1.523 . S
C2316 C2300 1.368 . S
C2316 C2312 1.368 . S
C2316 C2315 1.523 . S
H2317 C2292 0.950 . S
H2318 C2294 0.950 . S
H2319 C2295 0.949 . S
H2320 C2297 0.950 . S
H2321 C2299 0.950 . S
C2322 C2323 1.349 . S
C2322 C2324 1.327 . S
C2322 H2347 0.950 . S
C2323 C2322 1.349 . S
C2323 C2339 1.349 . S
C2324 C2322 1.327 . S
C2324 C2343 1.429 . S
C2324 H2348 0.950 . S
C2325 C2342 1.574 . S
C2325 C2344 1.368 . S
C2325 H2349 0.949 . S
H2326 C2330 0.949 . S
C2327 C2328 1.349 . S
C2327 C2329 1.327 . S
C2327 H2350 0.950 . S
C2328 C2327 1.349 . S
C2328 C2340 1.349 . S
C2329 C2327 1.327 . S
C2329 C2345 1.429 . S
C2329 H2351 0.950 . S
C2330 H2326 0.949 . S
C2330 C2338 1.574 . S
C2330 C2346 1.368 . S
H2331 C2339 0.950 1_455 S
H2332 C2337 0.950 . S
H2333 C2338 0.949 . S
H2334 C2340 0.950 . S
H2335 C2341 0.950 . S
H2336 C2342 0.949 . S
C2337 H2332 0.950 . S
C2337 C2339 1.327 . S
C2337 C2343 1.429 . S
C2338 C2330 1.574 . S
C2338 H2333 0.949 . S
C2338 C2344 1.368 . S
C2339 C2323 1.349 . S
C2339 H2331 0.950 1_655 S
C2339 C2337 1.327 . S
C2340 C2328 1.349 . S
C2340 H2334 0.950 . S
C2340 C2341 1.327 . S
C2341 H2335 0.950 . S
C2341 C2340 1.327 . S
C2341 C2345 1.429 . S
C2342 C2325 1.574 . S
C2342 H2336 0.949 . S
C2342 C2346 1.368 . S
C2343 C2324 1.429 . S
C2343 C2337 1.429 . S
C2343 C2344 1.523 . S
C2344 C2325 1.368 . S
C2344 C2338 1.368 . S
C2344 C2343 1.523 . S
C2345 C2329 1.429 . S
C2345 C2341 1.429 . S
C2345 C2346 1.523 . S
C2346 C2330 1.368 . S
C2346 C2342 1.368 . S
C2346 C2345 1.523 . S
H2347 C2322 0.950 . S
H2348 C2324 0.950 . S
H2349 C2325 0.949 . S
H2350 C2327 0.950 . S
H2351 C2329 0.950 . S
C2352 C2353 1.349 . S
C2352 C2354 1.327 . S
C2352 H2377 0.950 . S
C2353 C2352 1.349 . S
C2353 C2369 1.349 . S
C2354 C2352 1.327 . S
C2354 C2373 1.429 . S
C2354 H2378 0.950 . S
C2355 C2372 1.574 . S
C2355 C2374 1.368 . S
C2355 H2379 0.949 . S
H2356 C2360 0.949 . S
C2357 C2358 1.349 . S
C2357 C2359 1.327 . S
C2357 H2380 0.950 1_556 S
C2358 C2357 1.349 . S
C2358 C2370 1.349 . S
C2359 C2357 1.327 . S
C2359 C2375 1.429 . S
C2359 H2381 0.950 . S
C2360 H2356 0.949 . S
C2360 C2368 1.574 . S
C2360 C2376 1.368 . S
H2361 C2369 0.950 . S
H2362 C2367 0.950 . S
H2363 C2368 0.949 . S
H2364 C2370 0.950 . S
H2365 C2371 0.950 . S
H2366 C2372 0.949 . S
C2367 H2362 0.950 . S
C2367 C2369 1.327 . S
C2367 C2373 1.429 . S
C2368 C2360 1.574 . S
C2368 H2363 0.949 . S
C2368 C2374 1.368 . S
C2369 C2353 1.349 . S
C2369 H2361 0.950 . S
C2369 C2367 1.327 . S
C2370 C2358 1.349 . S
C2370 H2364 0.950 . S
C2370 C2371 1.327 . S
C2371 H2365 0.950 . S
C2371 C2370 1.327 . S
C2371 C2375 1.429 . S
C2372 C2355 1.574 . S
C2372 H2366 0.949 . S
C2372 C2376 1.368 . S
C2373 C2354 1.429 . S
C2373 C2367 1.429 . S
C2373 C2374 1.523 . S
C2374 C2355 1.368 . S
C2374 C2368 1.368 . S
C2374 C2373 1.523 . S
C2375 C2359 1.429 . S
C2375 C2371 1.429 . S
C2375 C2376 1.523 . S
C2376 C2360 1.368 . S
C2376 C2372 1.368 . S
C2376 C2375 1.523 . S
H2377 C2352 0.950 . S
H2378 C2354 0.950 . S
H2379 C2355 0.949 . S
H2380 C2357 0.950 1_554 S
H2381 C2359 0.950 . S
C2382 C2383 1.349 . S
C2382 C2384 1.327 . S
C2382 H2407 0.950 . S
C2383 C2382 1.349 . S
C2383 C2399 1.349 . S
C2384 C2382 1.327 . S
C2384 C2403 1.429 . S
C2384 H2408 0.950 . S
C2385 C2402 1.574 . S
C2385 C2404 1.368 . S
C2385 H2409 0.949 . S
H2386 C2390 0.949 . S
C2387 C2388 1.349 . S
C2387 C2389 1.327 . S
C2387 H2410 0.950 . S
C2388 C2387 1.349 . S
C2388 C2400 1.349 . S
C2389 C2387 1.327 . S
C2389 C2405 1.429 . S
C2389 H2411 0.950 . S
C2390 H2386 0.949 . S
C2390 C2398 1.574 . S
C2390 C2406 1.368 . S
H2391 C2399 0.950 . S
H2392 C2397 0.950 . S
H2393 C2398 0.949 . S
H2394 C2400 0.950 . S
H2395 C2401 0.950 . S
H2396 C2402 0.949 . S
C2397 H2392 0.950 . S
C2397 C2399 1.327 . S
C2397 C2403 1.429 . S
C2398 C2390 1.574 . S
C2398 H2393 0.949 . S
C2398 C2404 1.368 . S
C2399 C2383 1.349 . S
C2399 H2391 0.950 . S
C2399 C2397 1.327 . S
C2400 C2388 1.349 . S
C2400 H2394 0.950 . S
C2400 C2401 1.327 . S
C2401 H2395 0.950 . S
C2401 C2400 1.327 . S
C2401 C2405 1.429 . S
C2402 C2385 1.574 . S
C2402 H2396 0.949 . S
C2402 C2406 1.368 . S
C2403 C2384 1.429 . S
C2403 C2397 1.429 . S
C2403 C2404 1.523 . S
C2404 C2385 1.368 . S
C2404 C2398 1.368 . S
C2404 C2403 1.523 . S
C2405 C2389 1.429 . S
C2405 C2401 1.429 . S
C2405 C2406 1.523 . S
C2406 C2390 1.368 . S
C2406 C2402 1.368 . S
C2406 C2405 1.523 . S
H2407 C2382 0.950 . S
H2408 C2384 0.950 . S
H2409 C2385 0.949 . S
H2410 C2387 0.950 . S
H2411 C2389 0.950 . S
C2412 C2413 1.349 . S
C2412 C2414 1.327 . S
C2412 H2437 0.950 . S
C2413 C2412 1.349 . S
C2413 C2429 1.349 . S
C2414 C2412 1.327 . S
C2414 C2433 1.429 . S
C2414 H2438 0.950 . S
C2415 C2432 1.574 . S
C2415 C2434 1.368 . S
C2415 H2439 0.949 . S
H2416 C2420 0.949 . S
C2417 C2418 1.349 . S
C2417 C2419 1.327 . S
C2417 H2440 0.950 . S
C2418 C2417 1.349 . S
C2418 C2430 1.349 . S
C2419 C2417 1.327 . S
C2419 C2435 1.429 . S
C2419 H2441 0.950 . S
C2420 H2416 0.949 . S
C2420 C2428 1.574 . S
C2420 C2436 1.368 . S
H2421 C2429 0.950 . S
H2422 C2427 0.950 . S
H2423 C2428 0.949 . S
H2424 C2430 0.950 . S
H2425 C2431 0.950 . S
H2426 C2432 0.949 . S
C2427 H2422 0.950 . S
C2427 C2429 1.327 . S
C2427 C2433 1.429 . S
C2428 C2420 1.574 . S
C2428 H2423 0.949 . S
C2428 C2434 1.368 . S
C2429 C2413 1.349 . S
C2429 H2421 0.950 . S
C2429 C2427 1.327 . S
C2430 C2418 1.349 . S
C2430 H2424 0.950 . S
C2430 C2431 1.327 . S
C2431 H2425 0.950 . S
C2431 C2430 1.327 . S
C2431 C2435 1.429 . S
C2432 C2415 1.574 . S
C2432 H2426 0.949 . S
C2432 C2436 1.368 . S
C2433 C2414 1.429 . S
C2433 C2427 1.429 . S
C2433 C2434 1.523 . S
C2434 C2415 1.368 . S
C2434 C2428 1.368 . S
C2434 C2433 1.523 . S
C2435 C2419 1.429 . S
C2435 C2431 1.429 . S
C2435 C2436 1.523 . S
C2436 C2420 1.368 . S
C2436 C2432 1.368 . S
C2436 C2435 1.523 . S
H2437 C2412 0.950 . S
H2438 C2414 0.950 . S
H2439 C2415 0.949 . S
H2440 C2417 0.950 . S
H2441 C2419 0.950 . S
C2442 C2443 1.349 . S
C2442 C2444 1.327 . S
C2442 H2467 0.950 . S
C2443 C2442 1.349 . S
C2443 C2459 1.349 . S
C2444 C2442 1.327 . S
C2444 C2463 1.429 . S
C2444 H2468 0.950 . S
C2445 C2462 1.574 . S
C2445 C2464 1.368 . S
C2445 H2469 0.949 . S
H2446 C2450 0.949 . S
C2447 C2448 1.349 . S
C2447 C2449 1.327 . S
C2447 H2470 0.950 . S
C2448 C2447 1.349 . S
C2448 C2460 1.349 . S
C2449 C2447 1.327 . S
C2449 C2465 1.429 . S
C2449 H2471 0.950 . S
C2450 H2446 0.949 . S
C2450 C2458 1.574 . S
C2450 C2466 1.368 . S
H2451 C2459 0.950 . S
H2452 C2457 0.950 . S
H2453 C2458 0.949 . S
H2454 C2460 0.950 . S
H2455 C2461 0.950 . S
H2456 C2462 0.949 . S
C2457 H2452 0.950 . S
C2457 C2459 1.327 . S
C2457 C2463 1.429 . S
C2458 C2450 1.574 . S
C2458 H2453 0.949 . S
C2458 C2464 1.368 . S
C2459 C2443 1.349 . S
C2459 H2451 0.950 . S
C2459 C2457 1.327 . S
C2460 C2448 1.349 . S
C2460 H2454 0.950 . S
C2460 C2461 1.327 . S
C2461 H2455 0.950 . S
C2461 C2460 1.327 . S
C2461 C2465 1.429 . S
C2462 C2445 1.574 . S
C2462 H2456 0.949 . S
C2462 C2466 1.368 . S
C2463 C2444 1.429 . S
C2463 C2457 1.429 . S
C2463 C2464 1.523 . S
C2464 C2445 1.368 . S
C2464 C2458 1.368 . S
C2464 C2463 1.523 . S
C2465 C2449 1.429 . S
C2465 C2461 1.429 . S
C2465 C2466 1.523 . S
C2466 C2450 1.368 . S
C2466 C2462 1.368 . S
C2466 C2465 1.523 . S
H2467 C2442 0.950 . S
H2468 C2444 0.950 . S
H2469 C2445 0.949 . S
H2470 C2447 0.950 . S
H2471 C2449 0.950 . S
C2472 C2473 1.349 . S
C2472 C2474 1.327 . S
C2472 H2497 0.950 . S
C2473 C2472 1.349 . S
C2473 C2489 1.349 . S
C2474 C2472 1.327 . S
C2474 C2493 1.429 . S
C2474 H2498 0.950 . S
C2475 C2492 1.574 . S
C2475 C2494 1.368 . S
C2475 H2499 0.949 . S
H2476 C2480 0.949 . S
C2477 C2478 1.349 . S
C2477 C2479 1.327 . S
C2477 H2500 0.950 . S
C2478 C2477 1.349 . S
C2478 C2490 1.349 . S
C2479 C2477 1.327 . S
C2479 C2495 1.429 . S
C2479 H2501 0.950 . S
C2480 H2476 0.949 . S
C2480 C2488 1.574 . S
C2480 C2496 1.368 . S
H2481 C2489 0.950 . S
H2482 C2487 0.950 . S
H2483 C2488 0.949 . S
H2484 C2490 0.950 . S
H2485 C2491 0.950 . S
H2486 C2492 0.949 . S
C2487 H2482 0.950 . S
C2487 C2489 1.327 . S
C2487 C2493 1.429 . S
C2488 C2480 1.574 . S
C2488 H2483 0.949 . S
C2488 C2494 1.368 . S
C2489 C2473 1.349 . S
C2489 H2481 0.950 . S
C2489 C2487 1.327 . S
C2490 C2478 1.349 . S
C2490 H2484 0.950 . S
C2490 C2491 1.327 . S
C2491 H2485 0.950 . S
C2491 C2490 1.327 . S
C2491 C2495 1.429 . S
C2492 C2475 1.574 . S
C2492 H2486 0.949 . S
C2492 C2496 1.368 . S
C2493 C2474 1.429 . S
C2493 C2487 1.429 . S
C2493 C2494 1.523 . S
C2494 C2475 1.368 . S
C2494 C2488 1.368 . S
C2494 C2493 1.523 . S
C2495 C2479 1.429 . S
C2495 C2491 1.429 . S
C2495 C2496 1.523 . S
C2496 C2480 1.368 . S
C2496 C2492 1.368 . S
C2496 C2495 1.523 . S
H2497 C2472 0.950 . S
H2498 C2474 0.950 . S
H2499 C2475 0.949 . S
H2500 C2477 0.950 . S
H2501 C2479 0.950 . S
C2502 C2503 1.349 1_556 S
C2502 C2504 1.327 . S
C2502 H2527 0.950 . S
C2503 C2502 1.349 1_554 S
C2503 C2519 1.341 1_554 S
C2504 C2502 1.327 . S
C2504 C2523 1.429 . S
C2504 H2528 0.950 . S
C2505 C2522 1.574 . S
C2505 C2524 1.368 . S
C2505 H2529 0.949 . S
H2506 C2510 0.949 . S
C2507 C2508 1.349 . S
C2507 C2509 1.327 . S
C2507 H2530 0.950 . S
C2508 C2507 1.349 . S
C2508 C2520 1.349 . S
C2509 C2507 1.327 . S
C2509 C2525 1.429 . S
C2509 H2531 0.950 . S
C2510 H2506 0.949 . S
C2510 C2518 1.574 . S
C2510 C2526 1.368 . S
H2511 C2519 0.920 1_554 S
H2512 C2517 0.950 . S
H2513 C2518 0.949 . S
H2514 C2520 0.950 . S
H2515 C2521 0.950 . S
H2516 C2522 0.949 . S
C2517 H2512 0.950 . S
C2517 C2519 1.366 . S
C2517 C2523 1.429 . S
C2518 C2510 1.574 . S
C2518 H2513 0.949 . S
C2518 C2524 1.368 . S
C2519 C2503 1.341 1_556 S
C2519 H2511 0.920 1_556 S
C2519 C2517 1.366 . S
C2520 C2508 1.349 . S
C2520 H2514 0.950 . S
C2520 C2521 1.327 . S
C2521 H2515 0.950 . S
C2521 C2520 1.327 . S
C2521 C2525 1.429 . S
C2522 C2505 1.574 . S
C2522 H2516 0.949 . S
C2522 C2526 1.368 . S
C2523 C2504 1.429 . S
C2523 C2517 1.429 . S
C2523 C2524 1.523 . S
C2524 C2505 1.368 . S
C2524 C2518 1.368 . S
C2524 C2523 1.523 . S
C2525 C2509 1.429 . S
C2525 C2521 1.429 . S
C2525 C2526 1.523 . S
C2526 C2510 1.368 . S
C2526 C2522 1.368 . S
C2526 C2525 1.523 . S
H2527 C2502 0.950 . S
H2528 C2504 0.950 . S
H2529 C2505 0.949 . S
H2530 C2507 0.950 . S
H2531 C2509 0.950 . S
C2532 C2533 1.349 . S
C2532 C2534 1.327 . S
C2532 H2557 0.950 . S
C2533 C2532 1.349 . S
C2533 C2549 1.349 . S
C2534 C2532 1.327 . S
C2534 C2553 1.429 . S
C2534 H2558 0.950 . S
C2535 C2552 1.574 . S
C2535 C2554 1.368 . S
C2535 H2559 0.949 . S
H2536 C2540 0.949 . S
C2537 C2538 1.345 1_455 S
C2537 C2539 1.327 1_455 S
C2537 H2560 0.950 . S
C2538 C2537 1.345 1_655 S
C2538 C2550 1.362 . S
C2539 C2537 1.327 1_655 S
C2539 C2555 1.429 . S
C2539 H2561 0.950 . S
C2540 H2536 0.949 . S
C2540 C2548 1.574 . S
C2540 C2556 1.368 . S
H2541 C2549 0.950 . S
H2542 C2547 0.950 . S
H2543 C2548 0.949 . S
H2544 C2550 0.950 . S
H2545 C2551 0.950 . S
H2546 C2552 0.949 . S
C2547 H2542 0.950 . S
C2547 C2549 1.327 . S
C2547 C2553 1.429 . S
C2548 C2540 1.574 . S
C2548 H2543 0.949 . S
C2548 C2554 1.368 . S
C2549 C2533 1.349 . S
C2549 H2541 0.950 . S
C2549 C2547 1.327 . S
C2550 C2538 1.362 . S
C2550 H2544 0.950 . S
C2550 C2551 1.327 . S
C2551 H2545 0.950 . S
C2551 C2550 1.327 . S
C2551 C2555 1.429 . S
C2552 C2535 1.574 . S
C2552 H2546 0.949 . S
C2552 C2556 1.368 . S
C2553 C2534 1.429 . S
C2553 C2547 1.429 . S
C2553 C2554 1.523 . S
C2554 C2535 1.368 . S
C2554 C2548 1.368 . S
C2554 C2553 1.523 . S
C2555 C2539 1.429 . S
C2555 C2551 1.429 . S
C2555 C2556 1.523 . S
C2556 C2540 1.368 . S
C2556 C2552 1.368 . S
C2556 C2555 1.523 . S
H2557 C2532 0.950 . S
H2558 C2534 0.950 . S
H2559 C2535 0.949 . S
H2560 C2537 0.950 . S
H2561 C2539 0.950 . S
C2562 C2563 1.349 . S
C2562 C2564 1.327 . S
C2562 H2587 0.950 . S
C2563 C2562 1.349 . S
C2563 C2579 1.349 . S
C2564 C2562 1.327 . S
C2564 C2583 1.429 . S
C2564 H2588 0.950 . S
C2565 C2582 1.574 . S
C2565 C2584 1.368 . S
C2565 H2589 0.949 . S
H2566 C2570 0.949 . S
C2567 C2568 1.349 . S
C2567 C2569 1.327 . S
C2567 H2590 0.950 . S
C2568 C2567 1.349 . S
C2568 C2580 1.349 . S
C2569 C2567 1.327 . S
C2569 C2585 1.429 . S
C2569 H2591 0.950 . S
C2570 H2566 0.949 . S
C2570 C2578 1.574 . S
C2570 C2586 1.368 . S
H2571 C2579 0.950 . S
H2572 C2577 0.950 . S
H2573 C2578 0.949 . S
H2574 C2580 0.950 . S
H2575 C2581 0.950 . S
H2576 C2582 0.949 . S
C2577 H2572 0.950 . S
C2577 C2579 1.327 . S
C2577 C2583 1.429 . S
C2578 C2570 1.574 . S
C2578 H2573 0.949 . S
C2578 C2584 1.368 . S
C2579 C2563 1.349 . S
C2579 H2571 0.950 . S
C2579 C2577 1.327 . S
C2580 C2568 1.349 . S
C2580 H2574 0.950 . S
C2580 C2581 1.327 . S
C2581 H2575 0.950 . S
C2581 C2580 1.327 . S
C2581 C2585 1.429 . S
C2582 C2565 1.574 . S
C2582 H2576 0.949 . S
C2582 C2586 1.368 . S
C2583 C2564 1.429 . S
C2583 C2577 1.429 . S
C2583 C2584 1.523 . S
C2584 C2565 1.368 . S
C2584 C2578 1.368 . S
C2584 C2583 1.523 . S
C2585 C2569 1.429 . S
C2585 C2581 1.429 . S
C2585 C2586 1.523 . S
C2586 C2570 1.368 . S
C2586 C2582 1.368 . S
C2586 C2585 1.523 . S
H2587 C2562 0.950 . S
H2588 C2564 0.950 . S
H2589 C2565 0.949 . S
H2590 C2567 0.950 . S
H2591 C2569 0.950 . S
C2592 C2593 1.349 . S
C2592 C2594 1.327 . S
C2592 H2617 0.950 . S
C2593 C2592 1.349 . S
C2593 C2609 1.349 . S
C2594 C2592 1.327 . S
C2594 C2613 1.429 . S
C2594 H2618 0.950 . S
C2595 C2612 1.574 . S
C2595 C2614 1.368 . S
C2595 H2619 0.949 . S
H2596 C2600 0.949 . S
C2597 C2598 1.349 . S
C2597 C2599 1.327 . S
C2597 H2620 0.950 . S
C2598 C2597 1.349 . S
C2598 C2610 1.349 . S
C2599 C2597 1.327 . S
C2599 C2615 1.429 . S
C2599 H2621 0.950 . S
C2600 H2596 0.949 . S
C2600 C2608 1.574 . S
C2600 C2616 1.368 . S
H2601 C2609 0.950 . S
H2602 C2607 0.950 . S
H2603 C2608 0.949 . S
H2604 C2610 0.950 . S
H2605 C2611 0.950 . S
H2606 C2612 0.949 . S
C2607 H2602 0.950 . S
C2607 C2609 1.327 . S
C2607 C2613 1.429 . S
C2608 C2600 1.574 . S
C2608 H2603 0.949 . S
C2608 C2614 1.368 . S
C2609 C2593 1.349 . S
C2609 H2601 0.950 . S
C2609 C2607 1.327 . S
C2610 C2598 1.349 . S
C2610 H2604 0.950 . S
C2610 C2611 1.327 . S
C2611 H2605 0.950 . S
C2611 C2610 1.327 . S
C2611 C2615 1.429 . S
C2612 C2595 1.574 . S
C2612 H2606 0.949 . S
C2612 C2616 1.368 . S
C2613 C2594 1.429 . S
C2613 C2607 1.429 . S
C2613 C2614 1.523 . S
C2614 C2595 1.368 . S
C2614 C2608 1.368 . S
C2614 C2613 1.523 . S
C2615 C2599 1.429 . S
C2615 C2611 1.429 . S
C2615 C2616 1.523 . S
C2616 C2600 1.368 . S
C2616 C2612 1.368 . S
C2616 C2615 1.523 . S
H2617 C2592 0.950 . S
H2618 C2594 0.950 . S
H2619 C2595 0.949 . S
H2620 C2597 0.950 . S
H2621 C2599 0.950 . S
C2622 C2623 1.349 . S
C2622 C2624 1.327 . S
C2622 H2647 0.950 . S
C2623 C2622 1.349 . S
C2623 C2639 1.349 . S
C2624 C2622 1.327 . S
C2624 C2643 1.429 . S
C2624 H2648 0.950 . S
C2625 C2642 1.574 . S
C2625 C2644 1.368 . S
C2625 H2649 0.949 . S
H2626 C2630 0.949 . S
C2627 C2628 1.349 . S
C2627 C2629 1.327 . S
C2627 H2650 0.950 . S
C2628 C2627 1.349 . S
C2628 C2640 1.349 . S
C2629 C2627 1.327 . S
C2629 C2645 1.429 . S
C2629 H2651 0.950 . S
C2630 H2626 0.949 . S
C2630 C2638 1.574 . S
C2630 C2646 1.368 . S
H2631 C2639 0.950 . S
H2632 C2637 0.950 . S
H2633 C2638 0.949 . S
H2634 C2640 0.950 . S
H2635 C2641 0.950 . S
H2636 C2642 0.949 . S
C2637 H2632 0.950 . S
C2637 C2639 1.327 . S
C2637 C2643 1.429 . S
C2638 C2630 1.574 . S
C2638 H2633 0.949 . S
C2638 C2644 1.368 . S
C2639 C2623 1.349 . S
C2639 H2631 0.950 . S
C2639 C2637 1.327 . S
C2640 C2628 1.349 . S
C2640 H2634 0.950 . S
C2640 C2641 1.327 . S
C2641 H2635 0.950 . S
C2641 C2640 1.327 . S
C2641 C2645 1.429 . S
C2642 C2625 1.574 . S
C2642 H2636 0.949 . S
C2642 C2646 1.368 . S
C2643 C2624 1.429 . S
C2643 C2637 1.429 . S
C2643 C2644 1.523 . S
C2644 C2625 1.368 . S
C2644 C2638 1.368 . S
C2644 C2643 1.523 . S
C2645 C2629 1.429 . S
C2645 C2641 1.429 . S
C2645 C2646 1.523 . S
C2646 C2630 1.368 . S
C2646 C2642 1.368 . S
C2646 C2645 1.523 . S
H2647 C2622 0.950 . S
H2648 C2624 0.950 . S
H2649 C2625 0.949 . S
H2650 C2627 0.950 . S
H2651 C2629 0.950 . S
C2652 C2653 1.349 . S
C2652 C2654 1.327 . S
C2652 H2677 0.950 . S
C2653 C2652 1.349 . S
C2653 C2669 1.349 . S
C2654 C2652 1.327 . S
C2654 C2673 1.429 . S
C2654 H2678 0.950 . S
C2655 C2672 1.574 . S
C2655 C2674 1.368 . S
C2655 H2679 0.949 . S
H2656 C2660 0.949 . S
C2657 C2658 1.349 . S
C2657 C2659 1.327 . S
C2657 H2680 0.950 1_655 S
C2658 C2657 1.349 . S
C2658 C2670 1.349 . S
C2659 C2657 1.327 . S
C2659 C2675 1.429 . S
C2659 H2681 0.950 . S
C2660 H2656 0.949 . S
C2660 C2668 1.574 . S
C2660 C2676 1.368 . S
H2661 C2669 0.950 . S
H2662 C2667 0.950 . S
H2663 C2668 0.949 . S
H2664 C2670 0.950 . S
H2665 C2671 0.950 . S
H2666 C2672 0.949 . S
C2667 H2662 0.950 . S
C2667 C2669 1.327 . S
C2667 C2673 1.429 . S
C2668 C2660 1.574 . S
C2668 H2663 0.949 . S
C2668 C2674 1.368 . S
C2669 C2653 1.349 . S
C2669 H2661 0.950 . S
C2669 C2667 1.327 . S
C2670 C2658 1.349 . S
C2670 H2664 0.950 . S
C2670 C2671 1.327 . S
C2671 H2665 0.950 . S
C2671 C2670 1.327 . S
C2671 C2675 1.429 . S
C2672 C2655 1.574 . S
C2672 H2666 0.949 . S
C2672 C2676 1.368 . S
C2673 C2654 1.429 . S
C2673 C2667 1.429 . S
C2673 C2674 1.523 . S
C2674 C2655 1.368 . S
C2674 C2668 1.368 . S
C2674 C2673 1.523 . S
C2675 C2659 1.429 . S
C2675 C2671 1.429 . S
C2675 C2676 1.523 . S
C2676 C2660 1.368 . S
C2676 C2672 1.368 . S
C2676 C2675 1.523 . S
H2677 C2652 0.950 . S
H2678 C2654 0.950 . S
H2679 C2655 0.949 . S
H2680 C2657 0.950 1_455 S
H2681 C2659 0.950 . S
C2682 C2683 1.349 . S
C2682 C2684 1.327 . S
C2682 H2707 0.950 . S
C2683 C2682 1.349 . S
C2683 C2699 1.349 . S
C2684 C2682 1.327 . S
C2684 C2703 1.429 . S
C2684 H2708 0.950 . S
C2685 C2702 1.574 . S
C2685 C2704 1.368 . S
C2685 H2709 0.949 . S
H2686 C2690 0.949 . S
C2687 C2688 1.349 . S
C2687 C2689 1.327 . S
C2687 H2710 0.950 . S
C2688 C2687 1.349 . S
C2688 C2700 1.349 . S
C2689 C2687 1.327 . S
C2689 C2705 1.429 . S
C2689 H2711 0.950 . S
C2690 H2686 0.949 . S
C2690 C2698 1.574 . S
C2690 C2706 1.368 . S
H2691 C2699 0.950 . S
H2692 C2697 0.950 . S
H2693 C2698 0.949 . S
H2694 C2700 0.950 . S
H2695 C2701 0.950 . S
H2696 C2702 0.949 . S
C2697 H2692 0.950 . S
C2697 C2699 1.327 . S
C2697 C2703 1.429 . S
C2698 C2690 1.574 . S
C2698 H2693 0.949 . S
C2698 C2704 1.368 . S
C2699 C2683 1.349 . S
C2699 H2691 0.950 . S
C2699 C2697 1.327 . S
C2700 C2688 1.349 . S
C2700 H2694 0.950 . S
C2700 C2701 1.327 . S
C2701 H2695 0.950 . S
C2701 C2700 1.327 . S
C2701 C2705 1.429 . S
C2702 C2685 1.574 . S
C2702 H2696 0.949 . S
C2702 C2706 1.368 . S
C2703 C2684 1.429 . S
C2703 C2697 1.429 . S
C2703 C2704 1.523 . S
C2704 C2685 1.368 . S
C2704 C2698 1.368 . S
C2704 C2703 1.523 . S
C2705 C2689 1.429 . S
C2705 C2701 1.429 . S
C2705 C2706 1.523 . S
C2706 C2690 1.368 . S
C2706 C2702 1.368 . S
C2706 C2705 1.523 . S
H2707 C2682 0.950 . S
H2708 C2684 0.950 . S
H2709 C2685 0.949 . S
H2710 C2687 0.950 . S
H2711 C2689 0.950 . S
C2712 C2713 1.349 . S
C2712 C2714 1.327 . S
C2712 H2737 0.950 . S
C2713 C2712 1.349 . S
C2713 C2729 1.349 . S
C2714 C2712 1.327 . S
C2714 C2733 1.429 . S
C2714 H2738 0.950 . S
C2715 C2732 1.574 . S
C2715 C2734 1.368 . S
C2715 H2739 0.949 . S
H2716 C2720 0.949 . S
C2717 C2718 1.349 . S
C2717 C2719 1.327 . S
C2717 H2740 0.950 . S
C2718 C2717 1.349 . S
C2718 C2730 1.349 . S
C2719 C2717 1.327 . S
C2719 C2735 1.429 . S
C2719 H2741 0.950 . S
C2720 H2716 0.949 . S
C2720 C2728 1.574 . S
C2720 C2736 1.368 . S
H2721 C2729 0.950 . S
H2722 C2727 0.950 . S
H2723 C2728 0.949 . S
H2724 C2730 0.950 . S
H2725 C2731 0.950 . S
H2726 C2732 0.949 . S
C2727 H2722 0.950 . S
C2727 C2729 1.327 . S
C2727 C2733 1.429 . S
C2728 C2720 1.574 . S
C2728 H2723 0.949 . S
C2728 C2734 1.368 . S
C2729 C2713 1.349 . S
C2729 H2721 0.950 . S
C2729 C2727 1.327 . S
C2730 C2718 1.349 . S
C2730 H2724 0.950 . S
C2730 C2731 1.327 . S
C2731 H2725 0.950 . S
C2731 C2730 1.327 . S
C2731 C2735 1.429 . S
C2732 C2715 1.574 . S
C2732 H2726 0.949 . S
C2732 C2736 1.368 . S
C2733 C2714 1.429 . S
C2733 C2727 1.429 . S
C2733 C2734 1.523 . S
C2734 C2715 1.368 . S
C2734 C2728 1.368 . S
C2734 C2733 1.523 . S
C2735 C2719 1.429 . S
C2735 C2731 1.429 . S
C2735 C2736 1.523 . S
C2736 C2720 1.368 . S
C2736 C2732 1.368 . S
C2736 C2735 1.523 . S
H2737 C2712 0.950 . S
H2738 C2714 0.950 . S
H2739 C2715 0.949 . S
H2740 C2717 0.950 . S
H2741 C2719 0.950 . S
C2742 C2743 1.349 . S
C2742 C2744 1.327 . S
C2742 H2767 0.950 . S
C2743 C2742 1.349 . S
C2743 C2759 1.349 . S
C2744 C2742 1.327 . S
C2744 C2763 1.429 . S
C2744 H2768 0.950 . S
C2745 C2762 1.574 . S
C2745 C2764 1.368 . S
C2745 H2769 0.949 . S
H2746 C2750 0.949 . S
C2747 C2748 1.349 1_565 S
C2747 C2749 1.327 . S
C2747 H2770 0.950 . S
C2748 C2747 1.349 1_545 S
C2748 C2760 1.349 . S
C2749 C2747 1.327 . S
C2749 C2765 1.429 . S
C2749 H2771 0.950 . S
C2750 H2746 0.949 . S
C2750 C2758 1.574 . S
C2750 C2766 1.368 . S
H2751 C2759 0.950 . S
H2752 C2757 0.950 . S
H2753 C2758 0.949 . S
H2754 C2760 0.950 . S
H2755 C2761 0.950 . S
H2756 C2762 0.949 . S
C2757 H2752 0.950 . S
C2757 C2759 1.327 . S
C2757 C2763 1.429 . S
C2758 C2750 1.574 . S
C2758 H2753 0.949 . S
C2758 C2764 1.368 . S
C2759 C2743 1.349 . S
C2759 H2751 0.950 . S
C2759 C2757 1.327 . S
C2760 C2748 1.349 . S
C2760 H2754 0.950 . S
C2760 C2761 1.327 . S
C2761 H2755 0.950 . S
C2761 C2760 1.327 . S
C2761 C2765 1.429 1_545 S
C2762 C2745 1.574 . S
C2762 H2756 0.949 . S
C2762 C2766 1.368 . S
C2763 C2744 1.429 . S
C2763 C2757 1.429 . S
C2763 C2764 1.523 . S
C2764 C2745 1.368 . S
C2764 C2758 1.368 . S
C2764 C2763 1.523 . S
C2765 C2749 1.429 . S
C2765 C2761 1.429 1_565 S
C2765 C2766 1.523 . S
C2766 C2750 1.368 . S
C2766 C2762 1.368 . S
C2766 C2765 1.523 . S
H2767 C2742 0.950 . S
H2768 C2744 0.950 . S
H2769 C2745 0.949 . S
H2770 C2747 0.950 . S
H2771 C2749 0.950 . S
C2772 C2773 1.353 . S
C2772 C2774 1.285 1_545 S
C2772 H2797 0.989 . S
C2773 C2772 1.353 . S
C2773 C2789 1.349 1_545 S
C2774 C2772 1.285 1_565 S
C2774 C2793 1.429 . S
C2774 H2798 0.950 . S
C2775 C2792 1.574 . S
C2775 C2794 1.368 . S
C2775 H2799 0.949 . S
H2776 C2780 0.949 . S
C2777 C2778 1.349 . S
C2777 C2779 1.327 . S
C2777 H2800 0.950 . S
C2778 C2777 1.349 . S
C2778 C2790 1.349 . S
C2779 C2777 1.327 . S
C2779 C2795 1.429 . S
C2779 H2801 0.950 . S
C2780 H2776 0.949 . S
C2780 C2788 1.574 . S
C2780 C2796 1.368 . S
H2781 C2789 0.950 . S
H2782 C2787 0.950 . S
H2783 C2788 0.949 . S
H2784 C2790 0.950 . S
H2785 C2791 0.950 . S
H2786 C2792 0.949 . S
C2787 H2782 0.950 . S
C2787 C2789 1.327 . S
C2787 C2793 1.429 . S
C2788 C2780 1.574 . S
C2788 H2783 0.949 . S
C2788 C2794 1.368 . S
C2789 C2773 1.349 1_565 S
C2789 H2781 0.950 . S
C2789 C2787 1.327 . S
C2790 C2778 1.349 . S
C2790 H2784 0.950 . S
C2790 C2791 1.327 . S
C2791 H2785 0.950 . S
C2791 C2790 1.327 . S
C2791 C2795 1.429 . S
C2792 C2775 1.574 . S
C2792 H2786 0.949 . S
C2792 C2796 1.368 . S
C2793 C2774 1.429 . S
C2793 C2787 1.429 . S
C2793 C2794 1.523 . S
C2794 C2775 1.368 . S
C2794 C2788 1.368 . S
C2794 C2793 1.523 . S
C2795 C2779 1.429 . S
C2795 C2791 1.429 . S
C2795 C2796 1.523 . S
C2796 C2780 1.368 . S
C2796 C2792 1.368 . S
C2796 C2795 1.523 . S
H2797 C2772 0.989 . S
H2798 C2774 0.950 . S
H2799 C2775 0.949 . S
H2800 C2777 0.950 . S
H2801 C2779 0.950 . S
C2802 C2803 1.349 . S
C2802 C2804 1.327 . S
C2802 H2827 0.950 . S
C2803 C2802 1.349 . S
C2803 C2819 1.349 . S
C2804 C2802 1.327 . S
C2804 C2823 1.429 . S
C2804 H2828 0.950 . S
C2805 C2822 1.574 . S
C2805 C2824 1.368 . S
C2805 H2829 0.949 . S
H2806 C2810 0.949 . S
C2807 C2808 1.349 . S
C2807 C2809 1.327 . S
C2807 H2830 0.950 . S
C2808 C2807 1.349 . S
C2808 C2820 1.349 . S
C2809 C2807 1.327 . S
C2809 C2825 1.429 . S
C2809 H2831 0.950 . S
C2810 H2806 0.949 . S
C2810 C2818 1.574 . S
C2810 C2826 1.368 . S
H2811 C2819 0.950 . S
H2812 C2817 0.950 . S
H2813 C2818 0.949 . S
H2814 C2820 0.950 . S
H2815 C2821 0.950 . S
H2816 C2822 0.949 . S
C2817 H2812 0.950 . S
C2817 C2819 1.327 . S
C2817 C2823 1.429 . S
C2818 C2810 1.574 . S
C2818 H2813 0.949 . S
C2818 C2824 1.368 . S
C2819 C2803 1.349 . S
C2819 H2811 0.950 . S
C2819 C2817 1.327 . S
C2820 C2808 1.349 . S
C2820 H2814 0.950 . S
C2820 C2821 1.327 . S
C2821 H2815 0.950 . S
C2821 C2820 1.327 . S
C2821 C2825 1.429 . S
C2822 C2805 1.574 . S
C2822 H2816 0.949 . S
C2822 C2826 1.368 . S
C2823 C2804 1.429 . S
C2823 C2817 1.429 . S
C2823 C2824 1.523 . S
C2824 C2805 1.368 . S
C2824 C2818 1.368 . S
C2824 C2823 1.523 . S
C2825 C2809 1.429 . S
C2825 C2821 1.429 . S
C2825 C2826 1.523 . S
C2826 C2810 1.368 . S
C2826 C2822 1.368 . S
C2826 C2825 1.523 . S
H2827 C2802 0.950 . S
H2828 C2804 0.950 . S
H2829 C2805 0.949 . S
H2830 C2807 0.950 . S
H2831 C2809 0.950 . S
C2832 C2833 1.349 . S
C2832 C2834 1.327 . S
C2832 H2857 0.950 . S
C2833 C2832 1.349 . S
C2833 C2849 1.349 . S
C2834 C2832 1.327 . S
C2834 C2853 1.429 . S
C2834 H2858 0.950 . S
C2835 C2852 1.574 . S
C2835 C2854 1.368 . S
C2835 H2859 0.949 . S
H2836 C2840 0.949 . S
C2837 C2838 1.349 . S
C2837 C2839 1.327 . S
C2837 H2860 0.950 . S
C2838 C2837 1.349 . S
C2838 C2850 1.349 . S
C2839 C2837 1.327 . S
C2839 C2855 1.429 . S
C2839 H2861 0.950 . S
C2840 H2836 0.949 . S
C2840 C2848 1.574 . S
C2840 C2856 1.368 . S
H2841 C2849 0.950 . S
H2842 C2847 0.950 . S
H2843 C2848 0.949 . S
H2844 C2850 0.950 . S
H2845 C2851 0.950 . S
H2846 C2852 0.949 . S
C2847 H2842 0.950 . S
C2847 C2849 1.327 . S
C2847 C2853 1.429 . S
C2848 C2840 1.574 . S
C2848 H2843 0.949 . S
C2848 C2854 1.368 . S
C2849 C2833 1.349 . S
C2849 H2841 0.950 . S
C2849 C2847 1.327 . S
C2850 C2838 1.349 . S
C2850 H2844 0.950 . S
C2850 C2851 1.327 . S
C2851 H2845 0.950 . S
C2851 C2850 1.327 . S
C2851 C2855 1.429 . S
C2852 C2835 1.574 . S
C2852 H2846 0.949 . S
C2852 C2856 1.368 . S
C2853 C2834 1.429 . S
C2853 C2847 1.429 . S
C2853 C2854 1.523 . S
C2854 C2835 1.368 . S
C2854 C2848 1.368 . S
C2854 C2853 1.523 . S
C2855 C2839 1.429 . S
C2855 C2851 1.429 . S
C2855 C2856 1.523 . S
C2856 C2840 1.368 . S
C2856 C2852 1.368 . S
C2856 C2855 1.523 . S
H2857 C2832 0.950 . S
H2858 C2834 0.950 . S
H2859 C2835 0.949 . S
H2860 C2837 0.950 . S
H2861 C2839 0.950 . S
C2862 C2863 1.349 . S
C2862 C2864 1.327 . S
C2862 H2887 0.950 . S
C2863 C2862 1.349 . S
C2863 C2879 1.349 . S
C2864 C2862 1.327 . S
C2864 C2883 1.429 . S
C2864 H2888 0.950 . S
C2865 C2882 1.574 . S
C2865 C2884 1.368 . S
C2865 H2889 0.949 . S
H2866 C2870 0.949 . S
C2867 C2868 1.349 1_556 S
C2867 C2869 1.334 . S
C2867 H2890 0.950 . S
C2868 C2867 1.349 1_554 S
C2868 C2880 1.349 . S
C2869 C2867 1.334 . S
C2869 C2885 1.388 1_556 S
C2869 H2891 0.985 . S
C2870 H2866 0.949 . S
C2870 C2878 1.574 . S
C2870 C2886 1.368 . S
H2871 C2879 0.950 . S
H2872 C2877 0.950 . S
H2873 C2878 0.949 . S
H2874 C2880 0.950 . S
H2875 C2881 0.950 . S
H2876 C2882 0.949 1_556 S
C2877 H2872 0.950 . S
C2877 C2879 1.327 . S
C2877 C2883 1.429 . S
C2878 C2870 1.574 . S
C2878 H2873 0.949 . S
C2878 C2884 1.368 . S
C2879 C2863 1.349 . S
C2879 H2871 0.950 . S
C2879 C2877 1.327 . S
C2880 C2868 1.349 . S
C2880 H2874 0.950 . S
C2880 C2881 1.327 . S
C2881 H2875 0.950 . S
C2881 C2880 1.327 . S
C2881 C2885 1.429 . S
C2882 C2865 1.574 . S
C2882 H2876 0.949 1_554 S
C2882 C2886 1.368 . S
C2883 C2864 1.429 . S
C2883 C2877 1.429 . S
C2883 C2884 1.523 . S
C2884 C2865 1.368 . S
C2884 C2878 1.368 . S
C2884 C2883 1.523 . S
C2885 C2869 1.388 1_554 S
C2885 C2881 1.429 . S
C2885 C2886 1.523 . S
C2886 C2870 1.368 . S
C2886 C2882 1.368 . S
C2886 C2885 1.523 . S
H2887 C2862 0.950 . S
H2888 C2864 0.950 . S
H2889 C2865 0.949 . S
H2890 C2867 0.950 . S
H2891 C2869 0.985 . S
C2892 C2893 1.349 . S
C2892 C2894 1.327 . S
C2892 H2917 0.950 . S
C2893 C2892 1.349 . S
C2893 C2909 1.349 . S
C2894 C2892 1.327 . S
C2894 C2913 1.429 . S
C2894 H2918 0.950 . S
C2895 C2912 1.574 . S
C2895 C2914 1.368 . S
C2895 H2919 0.949 . S
H2896 C2900 0.949 . S
C2897 C2898 1.349 . S
C2897 C2899 1.327 . S
C2897 H2920 0.950 . S
C2898 C2897 1.349 . S
C2898 C2910 1.349 . S
C2899 C2897 1.327 . S
C2899 C2915 1.429 . S
C2899 H2921 0.950 . S
C2900 H2896 0.949 . S
C2900 C2908 1.574 . S
C2900 C2916 1.368 . S
H2901 C2909 0.950 . S
H2902 C2907 0.950 . S
H2903 C2908 0.949 . S
H2904 C2910 0.950 . S
H2905 C2911 0.950 . S
H2906 C2912 0.949 . S
C2907 H2902 0.950 . S
C2907 C2909 1.327 . S
C2907 C2913 1.429 . S
C2908 C2900 1.574 . S
C2908 H2903 0.949 . S
C2908 C2914 1.368 . S
C2909 C2893 1.349 . S
C2909 H2901 0.950 . S
C2909 C2907 1.327 . S
C2910 C2898 1.349 . S
C2910 H2904 0.950 . S
C2910 C2911 1.327 . S
C2911 H2905 0.950 . S
C2911 C2910 1.327 . S
C2911 C2915 1.429 . S
C2912 C2895 1.574 . S
C2912 H2906 0.949 . S
C2912 C2916 1.368 . S
C2913 C2894 1.429 . S
C2913 C2907 1.429 . S
C2913 C2914 1.523 . S
C2914 C2895 1.368 . S
C2914 C2908 1.368 . S
C2914 C2913 1.523 . S
C2915 C2899 1.429 . S
C2915 C2911 1.429 . S
C2915 C2916 1.523 . S
C2916 C2900 1.368 . S
C2916 C2912 1.368 . S
C2916 C2915 1.523 . S
H2917 C2892 0.950 . S
H2918 C2894 0.950 . S
H2919 C2895 0.949 . S
H2920 C2897 0.950 . S
H2921 C2899 0.950 . S
C2922 C2923 1.349 . S
C2922 C2924 1.327 . S
C2922 H2947 0.950 . S
C2923 C2922 1.349 . S
C2923 C2939 1.349 . S
C2924 C2922 1.327 . S
C2924 C2943 1.429 . S
C2924 H2948 0.950 . S
C2925 C2942 1.574 . S
C2925 C2944 1.368 . S
C2925 H2949 0.949 . S
H2926 C2930 0.949 . S
C2927 C2928 1.349 . S
C2927 C2929 1.327 . S
C2927 H2950 0.950 . S
C2928 C2927 1.349 . S
C2928 C2940 1.349 . S
C2929 C2927 1.327 . S
C2929 C2945 1.429 . S
C2929 H2951 0.950 . S
C2930 H2926 0.949 . S
C2930 C2938 1.574 . S
C2930 C2946 1.368 . S
H2931 C2939 0.950 . S
H2932 C2937 0.950 . S
H2933 C2938 0.949 . S
H2934 C2940 0.950 . S
H2935 C2941 0.950 . S
H2936 C2942 0.949 . S
C2937 H2932 0.950 . S
C2937 C2939 1.327 . S
C2937 C2943 1.429 . S
C2938 C2930 1.574 . S
C2938 H2933 0.949 . S
C2938 C2944 1.368 . S
C2939 C2923 1.349 . S
C2939 H2931 0.950 . S
C2939 C2937 1.327 . S
C2940 C2928 1.349 . S
C2940 H2934 0.950 . S
C2940 C2941 1.327 . S
C2941 H2935 0.950 . S
C2941 C2940 1.327 . S
C2941 C2945 1.429 . S
C2942 C2925 1.574 . S
C2942 H2936 0.949 . S
C2942 C2946 1.368 . S
C2943 C2924 1.429 . S
C2943 C2937 1.429 . S
C2943 C2944 1.523 . S
C2944 C2925 1.368 . S
C2944 C2938 1.368 . S
C2944 C2943 1.523 . S
C2945 C2929 1.429 . S
C2945 C2941 1.429 . S
C2945 C2946 1.523 . S
C2946 C2930 1.368 . S
C2946 C2942 1.368 . S
C2946 C2945 1.523 . S
H2947 C2922 0.950 . S
H2948 C2924 0.950 . S
H2949 C2925 0.949 . S
H2950 C2927 0.950 . S
H2951 C2929 0.950 . S
C2952 C2953 1.349 . S
C2952 C2954 1.327 . S
C2952 H2977 0.950 . S
C2953 C2952 1.349 . S
C2953 C2969 1.349 . S
C2954 C2952 1.327 . S
C2954 C2973 1.429 . S
C2954 H2978 0.950 . S
C2955 C2972 1.574 . S
C2955 C2974 1.368 . S
C2955 H2979 0.949 . S
H2956 C2960 0.949 . S
C2957 C2958 1.349 . S
C2957 C2959 1.327 . S
C2957 H2980 0.950 . S
C2958 C2957 1.349 . S
C2958 C2970 1.349 . S
C2959 C2957 1.327 . S
C2959 C2975 1.429 . S
C2959 H2981 0.950 . S
C2960 H2956 0.949 . S
C2960 C2968 1.574 . S
C2960 C2976 1.368 . S
H2961 C2969 0.950 . S
H2962 C2967 0.950 . S
H2963 C2968 0.949 . S
H2964 C2970 0.950 . S
H2965 C2971 0.950 . S
H2966 C2972 0.949 . S
C2967 H2962 0.950 . S
C2967 C2969 1.327 . S
C2967 C2973 1.429 . S
C2968 C2960 1.574 . S
C2968 H2963 0.949 . S
C2968 C2974 1.368 . S
C2969 C2953 1.349 . S
C2969 H2961 0.950 . S
C2969 C2967 1.327 . S
C2970 C2958 1.349 . S
C2970 H2964 0.950 . S
C2970 C2971 1.327 . S
C2971 H2965 0.950 . S
C2971 C2970 1.327 . S
C2971 C2975 1.429 . S
C2972 C2955 1.574 . S
C2972 H2966 0.949 . S
C2972 C2976 1.368 . S
C2973 C2954 1.429 . S
C2973 C2967 1.429 . S
C2973 C2974 1.523 . S
C2974 C2955 1.368 . S
C2974 C2968 1.368 . S
C2974 C2973 1.523 . S
C2975 C2959 1.429 . S
C2975 C2971 1.429 . S
C2975 C2976 1.523 . S
C2976 C2960 1.368 . S
C2976 C2972 1.368 . S
C2976 C2975 1.523 . S
H2977 C2952 0.950 . S
H2978 C2954 0.950 . S
H2979 C2955 0.949 . S
H2980 C2957 0.950 . S
H2981 C2959 0.950 . S
C2982 C2983 1.349 . S
C2982 C2984 1.327 . S
C2982 H3007 0.950 . S
C2983 C2982 1.349 . S
C2983 C2999 1.349 . S
C2984 C2982 1.327 . S
C2984 C3003 1.429 . S
C2984 H3008 0.950 . S
C2985 C3002 1.574 . S
C2985 C3004 1.368 . S
C2985 H3009 0.949 . S
H2986 C2990 0.949 . S
C2987 C2988 1.349 . S
C2987 C2989 1.327 . S
C2987 H3010 0.950 . S
C2988 C2987 1.349 . S
C2988 C3000 1.349 . S
C2989 C2987 1.327 . S
C2989 C3005 1.429 . S
C2989 H3011 0.950 . S
C2990 H2986 0.949 . S
C2990 C2998 1.574 . S
C2990 C3006 1.368 . S
H2991 C2999 0.950 . S
H2992 C2997 0.950 . S
H2993 C2998 0.949 . S
H2994 C3000 0.950 . S
H2995 C3001 0.950 . S
H2996 C3002 0.949 . S
C2997 H2992 0.950 . S
C2997 C2999 1.327 . S
C2997 C3003 1.429 . S
C2998 C2990 1.574 . S
C2998 H2993 0.949 . S
C2998 C3004 1.368 . S
C2999 C2983 1.349 . S
C2999 H2991 0.950 . S
C2999 C2997 1.327 . S
C3000 C2988 1.349 . S
C3000 H2994 0.950 . S
C3000 C3001 1.327 . S
C3001 H2995 0.950 . S
C3001 C3000 1.327 . S
C3001 C3005 1.429 . S
C3002 C2985 1.574 . S
C3002 H2996 0.949 . S
C3002 C3006 1.368 . S
C3003 C2984 1.429 . S
C3003 C2997 1.429 . S
C3003 C3004 1.523 . S
C3004 C2985 1.368 . S
C3004 C2998 1.368 . S
C3004 C3003 1.523 . S
C3005 C2989 1.429 . S
C3005 C3001 1.429 . S
C3005 C3006 1.523 . S
C3006 C2990 1.368 . S
C3006 C3002 1.368 . S
C3006 C3005 1.523 . S
H3007 C2982 0.950 . S
H3008 C2984 0.950 . S
H3009 C2985 0.949 . S
H3010 C2987 0.950 . S
H3011 C2989 0.950 . S
C3012 C3013 1.349 1_655 S
C3012 C3014 1.327 . S
C3012 H3037 0.950 . S
C3013 C3012 1.349 1_455 S
C3013 C3029 1.349 . S
C3014 C3012 1.327 . S
C3014 C3033 1.429 1_655 S
C3014 H3038 0.950 . S
C3015 C3032 1.574 . S
C3015 C3034 1.368 . S
C3015 H3039 0.949 . S
H3016 C3020 0.949 . S
C3017 C3018 1.349 . S
C3017 C3019 1.327 . S
C3017 H3040 0.950 1_556 S
C3018 C3017 1.349 . S
C3018 C3030 1.349 1_455 S
C3019 C3017 1.327 . S
C3019 C3035 1.429 . S
C3019 H3041 0.950 . S
C3020 H3016 0.949 . S
C3020 C3028 1.574 . S
C3020 C3036 1.368 1_655 S
H3021 C3029 0.950 . S
H3022 C3027 0.950 . S
H3023 C3028 0.949 . S
H3024 C3030 0.950 . S
H3025 C3031 0.950 . S
H3026 C3032 0.949 . S
C3027 H3022 0.950 . S
C3027 C3029 1.327 . S
C3027 C3033 1.429 . S
C3028 C3020 1.574 . S
C3028 H3023 0.949 . S
C3028 C3034 1.368 1_655 S
C3029 C3013 1.349 . S
C3029 H3021 0.950 . S
C3029 C3027 1.327 . S
C3030 C3018 1.349 1_655 S
C3030 H3024 0.950 . S
C3030 C3031 1.327 . S
C3031 H3025 0.950 . S
C3031 C3030 1.327 . S
C3031 C3035 1.429 1_655 S
C3032 C3015 1.574 . S
C3032 H3026 0.949 . S
C3032 C3036 1.368 . S
C3033 C3014 1.429 1_455 S
C3033 C3027 1.429 . S
C3033 C3034 1.523 . S
C3034 C3015 1.368 . S
C3034 C3028 1.368 1_455 S
C3034 C3033 1.523 . S
C3035 C3019 1.429 . S
C3035 C3031 1.429 1_455 S
C3035 C3036 1.523 . S
C3036 C3020 1.368 1_455 S
C3036 C3032 1.368 . S
C3036 C3035 1.523 . S
H3037 C3012 0.950 . S
H3038 C3014 0.950 . S
H3039 C3015 0.949 . S
H3040 C3017 0.950 1_554 S
H3041 C3019 0.950 . S
C3042 C3043 1.349 . S
C3042 C3044 1.327 . S
C3042 H3067 0.950 . S
C3043 C3042 1.349 . S
C3043 C3059 1.349 . S
C3044 C3042 1.327 . S
C3044 C3063 1.429 . S
C3044 H3068 0.950 . S
C3045 C3062 1.574 . S
C3045 C3064 1.368 . S
C3045 H3069 0.949 . S
H3046 C3050 0.949 . S
C3047 C3048 1.349 . S
C3047 C3049 1.327 . S
C3047 H3070 0.950 . S
C3048 C3047 1.349 . S
C3048 C3060 1.349 . S
C3049 C3047 1.327 . S
C3049 C3065 1.429 . S
C3049 H3071 0.950 . S
C3050 H3046 0.949 . S
C3050 C3058 1.574 . S
C3050 C3066 1.368 . S
H3051 C3059 0.950 . S
H3052 C3057 0.950 . S
H3053 C3058 0.949 . S
H3054 C3060 0.950 . S
H3055 C3061 0.950 . S
H3056 C3062 0.949 . S
C3057 H3052 0.950 . S
C3057 C3059 1.327 . S
C3057 C3063 1.429 . S
C3058 C3050 1.574 . S
C3058 H3053 0.949 . S
C3058 C3064 1.368 . S
C3059 C3043 1.349 . S
C3059 H3051 0.950 . S
C3059 C3057 1.327 . S
C3060 C3048 1.349 . S
C3060 H3054 0.950 . S
C3060 C3061 1.327 . S
C3061 H3055 0.950 . S
C3061 C3060 1.327 . S
C3061 C3065 1.429 . S
C3062 C3045 1.574 . S
C3062 H3056 0.949 . S
C3062 C3066 1.368 . S
C3063 C3044 1.429 . S
C3063 C3057 1.429 . S
C3063 C3064 1.523 . S
C3064 C3045 1.368 . S
C3064 C3058 1.368 . S
C3064 C3063 1.523 . S
C3065 C3049 1.429 . S
C3065 C3061 1.429 . S
C3065 C3066 1.523 . S
C3066 C3050 1.368 . S
C3066 C3062 1.368 . S
C3066 C3065 1.523 . S
H3067 C3042 0.950 . S
H3068 C3044 0.950 . S
H3069 C3045 0.949 . S
H3070 C3047 0.950 . S
H3071 C3049 0.950 . S
C3072 C3073 1.349 . S
C3072 C3074 1.327 . S
C3072 H3097 0.950 . S
C3073 C3072 1.349 . S
C3073 C3089 1.349 . S
C3074 C3072 1.327 . S
C3074 C3093 1.429 . S
C3074 H3098 0.950 . S
C3075 C3092 1.574 . S
C3075 C3094 1.368 . S
C3075 H3099 0.949 . S
H3076 C3080 0.949 . S
C3077 C3078 1.349 . S
C3077 C3079 1.327 . S
C3077 H3100 0.950 . S
C3078 C3077 1.349 . S
C3078 C3090 1.349 . S
C3079 C3077 1.327 . S
C3079 C3095 1.429 . S
C3079 H3101 0.950 . S
C3080 H3076 0.949 . S
C3080 C3088 1.574 . S
C3080 C3096 1.368 . S
H3081 C3089 0.950 . S
H3082 C3087 0.950 . S
H3083 C3088 0.949 . S
H3084 C3090 0.950 . S
H3085 C3091 0.950 . S
H3086 C3092 0.949 . S
C3087 H3082 0.950 . S
C3087 C3089 1.327 . S
C3087 C3093 1.429 . S
C3088 C3080 1.574 . S
C3088 H3083 0.949 . S
C3088 C3094 1.368 . S
C3089 C3073 1.349 . S
C3089 H3081 0.950 . S
C3089 C3087 1.327 . S
C3090 C3078 1.349 . S
C3090 H3084 0.950 . S
C3090 C3091 1.327 . S
C3091 H3085 0.950 . S
C3091 C3090 1.327 . S
C3091 C3095 1.429 . S
C3092 C3075 1.574 . S
C3092 H3086 0.949 . S
C3092 C3096 1.368 . S
C3093 C3074 1.429 . S
C3093 C3087 1.429 . S
C3093 C3094 1.523 . S
C3094 C3075 1.368 . S
C3094 C3088 1.368 . S
C3094 C3093 1.523 . S
C3095 C3079 1.429 . S
C3095 C3091 1.429 . S
C3095 C3096 1.523 . S
C3096 C3080 1.368 . S
C3096 C3092 1.368 . S
C3096 C3095 1.523 . S
H3097 C3072 0.950 . S
H3098 C3074 0.950 . S
H3099 C3075 0.949 . S
H3100 C3077 0.950 . S
H3101 C3079 0.950 . S
C3102 C3103 1.349 . S
C3102 C3104 1.327 . S
C3102 H3127 0.950 . S
C3103 C3102 1.349 . S
C3103 C3119 1.349 . S
C3104 C3102 1.327 . S
C3104 C3123 1.429 . S
C3104 H3128 0.950 . S
C3105 C3122 1.574 . S
C3105 C3124 1.368 . S
C3105 H3129 0.949 . S
H3106 C3110 0.949 . S
C3107 C3108 1.349 . S
C3107 C3109 1.327 . S
C3107 H3130 0.950 . S
C3108 C3107 1.349 . S
C3108 C3120 1.349 . S
C3109 C3107 1.327 . S
C3109 C3125 1.429 . S
C3109 H3131 0.950 . S
C3110 H3106 0.949 . S
C3110 C3118 1.574 . S
C3110 C3126 1.368 . S
H3111 C3119 0.950 . S
H3112 C3117 0.950 . S
H3113 C3118 0.949 . S
H3114 C3120 0.950 . S
H3115 C3121 0.950 . S
H3116 C3122 0.949 . S
C3117 H3112 0.950 . S
C3117 C3119 1.327 . S
C3117 C3123 1.429 . S
C3118 C3110 1.574 . S
C3118 H3113 0.949 . S
C3118 C3124 1.368 . S
C3119 C3103 1.349 . S
C3119 H3111 0.950 . S
C3119 C3117 1.327 . S
C3120 C3108 1.349 . S
C3120 H3114 0.950 . S
C3120 C3121 1.327 . S
C3121 H3115 0.950 . S
C3121 C3120 1.327 . S
C3121 C3125 1.429 . S
C3122 C3105 1.574 . S
C3122 H3116 0.949 . S
C3122 C3126 1.368 . S
C3123 C3104 1.429 . S
C3123 C3117 1.429 . S
C3123 C3124 1.523 . S
C3124 C3105 1.368 . S
C3124 C3118 1.368 . S
C3124 C3123 1.523 . S
C3125 C3109 1.429 . S
C3125 C3121 1.429 . S
C3125 C3126 1.523 . S
C3126 C3110 1.368 . S
C3126 C3122 1.368 . S
C3126 C3125 1.523 . S
H3127 C3102 0.950 . S
H3128 C3104 0.950 . S
H3129 C3105 0.949 . S
H3130 C3107 0.950 . S
H3131 C3109 0.950 . S
C3132 C3133 1.360 . S
C3132 C3134 1.327 . S
C3132 H3157 0.950 . S
C3133 C3132 1.360 . S
C3133 C3149 1.338 1_455 S
C3134 C3132 1.327 . S
C3134 C3153 1.429 . S
C3134 H3158 0.950 . S
C3135 C3152 1.574 . S
C3135 C3154 1.368 1_655 S
C3135 H3159 0.949 . S
H3136 C3140 0.949 . S
C3137 C3138 1.349 1_655 S
C3137 C3139 1.327 . S
C3137 H3160 0.950 . S
C3138 C3137 1.349 1_455 S
C3138 C3150 1.349 . S
C3139 C3137 1.327 . S
C3139 C3155 1.429 1_655 S
C3139 H3161 0.950 . S
C3140 H3136 0.949 . S
C3140 C3148 1.574 . S
C3140 C3156 1.368 . S
H3141 C3149 0.950 . S
H3142 C3147 0.950 . S
H3143 C3148 0.949 . S
H3144 C3150 0.950 . S
H3145 C3151 0.950 . S
H3146 C3152 0.949 . S
C3147 H3142 0.950 . S
C3147 C3149 1.327 . S
C3147 C3153 1.429 1_655 S
C3148 C3140 1.574 . S
C3148 H3143 0.949 . S
C3148 C3154 1.368 . S
C3149 C3133 1.338 1_655 S
C3149 H3141 0.950 . S
C3149 C3147 1.327 . S
C3150 C3138 1.349 . S
C3150 H3144 0.950 . S
C3150 C3151 1.327 . S
C3151 H3145 0.950 . S
C3151 C3150 1.327 . S
C3151 C3155 1.429 . S
C3152 C3135 1.574 . S
C3152 H3146 0.949 . S
C3152 C3156 1.368 1_655 S
C3153 C3134 1.429 . S
C3153 C3147 1.429 1_455 S
C3153 C3154 1.523 . S
C3154 C3135 1.368 1_455 S
C3154 C3148 1.368 . S
C3154 C3153 1.523 . S
C3155 C3139 1.429 1_455 S
C3155 C3151 1.429 . S
C3155 C3156 1.523 . S
C3156 C3140 1.368 . S
C3156 C3152 1.368 1_455 S
C3156 C3155 1.523 . S
H3157 C3132 0.950 . S
H3158 C3134 0.950 . S
H3159 C3135 0.949 . S
H3160 C3137 0.950 . S
H3161 C3139 0.950 . S
C3162 C3163 1.349 . S
C3162 C3164 1.327 . S
C3162 H3187 0.950 . S
C3163 C3162 1.349 . S
C3163 C3179 1.349 . S
C3164 C3162 1.327 . S
C3164 C3183 1.429 . S
C3164 H3188 0.950 . S
C3165 C3182 1.574 . S
C3165 C3184 1.368 . S
C3165 H3189 0.949 . S
H3166 C3170 0.949 . S
C3167 C3168 1.349 . S
C3167 C3169 1.327 . S
C3167 H3190 0.950 . S
C3168 C3167 1.349 . S
C3168 C3180 1.349 . S
C3169 C3167 1.327 . S
C3169 C3185 1.429 . S
C3169 H3191 0.950 . S
C3170 H3166 0.949 . S
C3170 C3178 1.574 . S
C3170 C3186 1.368 . S
H3171 C3179 0.950 . S
H3172 C3177 0.950 . S
H3173 C3178 0.949 . S
H3174 C3180 0.950 . S
H3175 C3181 0.950 . S
H3176 C3182 0.949 . S
C3177 H3172 0.950 . S
C3177 C3179 1.327 . S
C3177 C3183 1.429 . S
C3178 C3170 1.574 . S
C3178 H3173 0.949 . S
C3178 C3184 1.368 . S
C3179 C3163 1.349 . S
C3179 H3171 0.950 . S
C3179 C3177 1.327 . S
C3180 C3168 1.349 . S
C3180 H3174 0.950 . S
C3180 C3181 1.327 . S
C3181 H3175 0.950 . S
C3181 C3180 1.327 . S
C3181 C3185 1.429 . S
C3182 C3165 1.574 . S
C3182 H3176 0.949 . S
C3182 C3186 1.368 . S
C3183 C3164 1.429 . S
C3183 C3177 1.429 . S
C3183 C3184 1.523 . S
C3184 C3165 1.368 . S
C3184 C3178 1.368 . S
C3184 C3183 1.523 . S
C3185 C3169 1.429 . S
C3185 C3181 1.429 . S
C3185 C3186 1.523 . S
C3186 C3170 1.368 . S
C3186 C3182 1.368 . S
C3186 C3185 1.523 . S
H3187 C3162 0.950 . S
H3188 C3164 0.950 . S
H3189 C3165 0.949 . S
H3190 C3167 0.950 . S
H3191 C3169 0.950 . S
C3192 C3193 1.349 . S
C3192 C3194 1.327 . S
C3192 H3217 0.950 . S
C3193 C3192 1.349 . S
C3193 C3209 1.349 . S
C3194 C3192 1.327 . S
C3194 C3213 1.429 . S
C3194 H3218 0.950 . S
C3195 C3212 1.574 . S
C3195 C3214 1.368 . S
C3195 H3219 0.949 . S
H3196 C3200 0.949 . S
C3197 C3198 1.349 . S
C3197 C3199 1.327 . S
C3197 H3220 0.950 . S
C3198 C3197 1.349 . S
C3198 C3210 1.349 . S
C3199 C3197 1.327 . S
C3199 C3215 1.429 . S
C3199 H3221 0.950 . S
C3200 H3196 0.949 . S
C3200 C3208 1.574 . S
C3200 C3216 1.368 . S
H3201 C3209 0.950 . S
H3202 C3207 0.950 . S
H3203 C3208 0.949 . S
H3204 C3210 0.950 . S
H3205 C3211 0.950 . S
H3206 C3212 0.949 . S
C3207 H3202 0.950 . S
C3207 C3209 1.327 . S
C3207 C3213 1.429 . S
C3208 C3200 1.574 . S
C3208 H3203 0.949 . S
C3208 C3214 1.368 . S
C3209 C3193 1.349 . S
C3209 H3201 0.950 . S
C3209 C3207 1.327 . S
C3210 C3198 1.349 . S
C3210 H3204 0.950 . S
C3210 C3211 1.327 . S
C3211 H3205 0.950 . S
C3211 C3210 1.327 . S
C3211 C3215 1.429 . S
C3212 C3195 1.574 . S
C3212 H3206 0.949 . S
C3212 C3216 1.368 . S
C3213 C3194 1.429 . S
C3213 C3207 1.429 . S
C3213 C3214 1.523 . S
C3214 C3195 1.368 . S
C3214 C3208 1.368 . S
C3214 C3213 1.523 . S
C3215 C3199 1.429 . S
C3215 C3211 1.429 . S
C3215 C3216 1.523 . S
C3216 C3200 1.368 . S
C3216 C3212 1.368 . S
C3216 C3215 1.523 . S
H3217 C3192 0.950 . S
H3218 C3194 0.950 . S
H3219 C3195 0.949 . S
H3220 C3197 0.950 . S
H3221 C3199 0.950 . S
C3222 C3223 1.349 . S
C3222 C3224 1.327 . S
C3222 H3247 0.950 . S
C3223 C3222 1.349 . S
C3223 C3239 1.349 . S
C3224 C3222 1.327 . S
C3224 C3243 1.429 . S
C3224 H3248 0.950 . S
C3225 C3242 1.574 . S
C3225 C3244 1.368 . S
C3225 H3249 0.949 . S
H3226 C3230 0.949 . S
C3227 C3228 1.349 . S
C3227 C3229 1.327 . S
C3227 H3250 0.950 . S
C3228 C3227 1.349 . S
C3228 C3240 1.349 . S
C3229 C3227 1.327 . S
C3229 C3245 1.429 . S
C3229 H3251 0.950 . S
C3230 H3226 0.949 . S
C3230 C3238 1.574 . S
C3230 C3246 1.368 . S
H3231 C3239 0.950 . S
H3232 C3237 0.950 . S
H3233 C3238 0.949 . S
H3234 C3240 0.950 . S
H3235 C3241 0.950 . S
H3236 C3242 0.949 . S
C3237 H3232 0.950 . S
C3237 C3239 1.327 . S
C3237 C3243 1.429 . S
C3238 C3230 1.574 . S
C3238 H3233 0.949 . S
C3238 C3244 1.368 . S
C3239 C3223 1.349 . S
C3239 H3231 0.950 . S
C3239 C3237 1.327 . S
C3240 C3228 1.349 . S
C3240 H3234 0.950 . S
C3240 C3241 1.327 . S
C3241 H3235 0.950 . S
C3241 C3240 1.327 . S
C3241 C3245 1.429 . S
C3242 C3225 1.574 . S
C3242 H3236 0.949 . S
C3242 C3246 1.368 . S
C3243 C3224 1.429 . S
C3243 C3237 1.429 . S
C3243 C3244 1.523 . S
C3244 C3225 1.368 . S
C3244 C3238 1.368 . S
C3244 C3243 1.523 . S
C3245 C3229 1.429 . S
C3245 C3241 1.429 . S
C3245 C3246 1.523 . S
C3246 C3230 1.368 . S
C3246 C3242 1.368 . S
C3246 C3245 1.523 . S
H3247 C3222 0.950 . S
H3248 C3224 0.950 . S
H3249 C3225 0.949 . S
H3250 C3227 0.950 . S
H3251 C3229 0.950 . S
C3252 C3253 1.349 . S
C3252 C3254 1.327 . S
C3252 H3277 0.950 . S
C3253 C3252 1.349 . S
C3253 C3269 1.349 . S
C3254 C3252 1.327 . S
C3254 C3273 1.429 . S
C3254 H3278 0.950 . S
C3255 C3272 1.574 . S
C3255 C3274 1.368 . S
C3255 H3279 0.949 . S
H3256 C3260 0.949 . S
C3257 C3258 1.349 . S
C3257 C3259 1.327 . S
C3257 H3280 0.950 . S
C3258 C3257 1.349 . S
C3258 C3270 1.349 . S
C3259 C3257 1.327 . S
C3259 C3275 1.429 . S
C3259 H3281 0.950 . S
C3260 H3256 0.949 . S
C3260 C3268 1.574 . S
C3260 C3276 1.368 . S
H3261 C3269 0.950 . S
H3262 C3267 0.950 . S
H3263 C3268 0.949 . S
H3264 C3270 0.950 . S
H3265 C3271 0.950 . S
H3266 C3272 0.949 . S
C3267 H3262 0.950 . S
C3267 C3269 1.327 . S
C3267 C3273 1.429 . S
C3268 C3260 1.574 . S
C3268 H3263 0.949 . S
C3268 C3274 1.368 . S
C3269 C3253 1.349 . S
C3269 H3261 0.950 . S
C3269 C3267 1.327 . S
C3270 C3258 1.349 . S
C3270 H3264 0.950 . S
C3270 C3271 1.327 . S
C3271 H3265 0.950 . S
C3271 C3270 1.327 . S
C3271 C3275 1.429 . S
C3272 C3255 1.574 . S
C3272 H3266 0.949 . S
C3272 C3276 1.368 . S
C3273 C3254 1.429 . S
C3273 C3267 1.429 . S
C3273 C3274 1.523 . S
C3274 C3255 1.368 . S
C3274 C3268 1.368 . S
C3274 C3273 1.523 . S
C3275 C3259 1.429 . S
C3275 C3271 1.429 . S
C3275 C3276 1.523 . S
C3276 C3260 1.368 . S
C3276 C3272 1.368 . S
C3276 C3275 1.523 . S
H3277 C3252 0.950 . S
H3278 C3254 0.950 . S
H3279 C3255 0.949 . S
H3280 C3257 0.950 . S
H3281 C3259 0.950 . S
C3282 C3283 1.349 . S
C3282 C3284 1.327 . S
C3282 H3307 0.950 . S
C3283 C3282 1.349 . S
C3283 C3299 1.349 . S
C3284 C3282 1.327 . S
C3284 C3303 1.429 . S
C3284 H3308 0.950 . S
C3285 C3302 1.574 . S
C3285 C3304 1.368 . S
C3285 H3309 0.949 . S
H3286 C3290 0.949 . S
C3287 C3288 1.349 . S
C3287 C3289 1.327 . S
C3287 H3310 0.950 . S
C3288 C3287 1.349 . S
C3288 C3300 1.349 . S
C3289 C3287 1.327 . S
C3289 C3305 1.429 . S
C3289 H3311 0.950 . S
C3290 H3286 0.949 . S
C3290 C3298 1.574 . S
C3290 C3306 1.368 . S
H3291 C3299 0.950 . S
H3292 C3297 0.950 . S
H3293 C3298 0.949 . S
H3294 C3300 0.950 . S
H3295 C3301 0.950 . S
H3296 C3302 0.949 . S
C3297 H3292 0.950 . S
C3297 C3299 1.327 . S
C3297 C3303 1.429 . S
C3298 C3290 1.574 . S
C3298 H3293 0.949 . S
C3298 C3304 1.368 . S
C3299 C3283 1.349 . S
C3299 H3291 0.950 . S
C3299 C3297 1.327 . S
C3300 C3288 1.349 . S
C3300 H3294 0.950 . S
C3300 C3301 1.327 . S
C3301 H3295 0.950 . S
C3301 C3300 1.327 . S
C3301 C3305 1.429 . S
C3302 C3285 1.574 . S
C3302 H3296 0.949 . S
C3302 C3306 1.368 . S
C3303 C3284 1.429 . S
C3303 C3297 1.429 . S
C3303 C3304 1.523 . S
C3304 C3285 1.368 . S
C3304 C3298 1.368 . S
C3304 C3303 1.523 . S
C3305 C3289 1.429 . S
C3305 C3301 1.429 . S
C3305 C3306 1.523 . S
C3306 C3290 1.368 . S
C3306 C3302 1.368 . S
C3306 C3305 1.523 . S
H3307 C3282 0.950 . S
H3308 C3284 0.950 . S
H3309 C3285 0.949 . S
H3310 C3287 0.950 . S
H3311 C3289 0.950 . S
C3312 C3313 1.349 . S
C3312 C3314 1.327 . S
C3312 H3337 0.950 . S
C3313 C3312 1.349 . S
C3313 C3329 1.349 . S
C3314 C3312 1.327 . S
C3314 C3333 1.429 . S
C3314 H3338 0.950 . S
C3315 C3332 1.574 . S
C3315 C3334 1.368 . S
C3315 H3339 0.949 . S
H3316 C3320 0.949 . S
C3317 C3318 1.349 . S
C3317 C3319 1.327 . S
C3317 H3340 0.950 . S
C3318 C3317 1.349 . S
C3318 C3330 1.349 . S
C3319 C3317 1.327 . S
C3319 C3335 1.429 . S
C3319 H3341 0.950 . S
C3320 H3316 0.949 . S
C3320 C3328 1.574 . S
C3320 C3336 1.368 . S
H3321 C3329 0.950 . S
H3322 C3327 0.950 . S
H3323 C3328 0.949 . S
H3324 C3330 0.950 . S
H3325 C3331 0.950 . S
H3326 C3332 0.949 . S
C3327 H3322 0.950 . S
C3327 C3329 1.327 . S
C3327 C3333 1.429 . S
C3328 C3320 1.574 . S
C3328 H3323 0.949 . S
C3328 C3334 1.368 . S
C3329 C3313 1.349 . S
C3329 H3321 0.950 . S
C3329 C3327 1.327 . S
C3330 C3318 1.349 . S
C3330 H3324 0.950 . S
C3330 C3331 1.327 . S
C3331 H3325 0.950 . S
C3331 C3330 1.327 . S
C3331 C3335 1.429 . S
C3332 C3315 1.574 . S
C3332 H3326 0.949 . S
C3332 C3336 1.368 . S
C3333 C3314 1.429 . S
C3333 C3327 1.429 . S
C3333 C3334 1.523 . S
C3334 C3315 1.368 . S
C3334 C3328 1.368 . S
C3334 C3333 1.523 . S
C3335 C3319 1.429 . S
C3335 C3331 1.429 . S
C3335 C3336 1.523 . S
C3336 C3320 1.368 . S
C3336 C3332 1.368 . S
C3336 C3335 1.523 . S
H3337 C3312 0.950 . S
H3338 C3314 0.950 . S
H3339 C3315 0.949 . S
H3340 C3317 0.950 . S
H3341 C3319 0.950 . S
C3342 C3343 1.349 . S
C3342 C3344 1.327 . S
C3342 H3367 0.950 . S
C3343 C3342 1.349 . S
C3343 C3359 1.349 . S
C3344 C3342 1.327 . S
C3344 C3363 1.429 . S
C3344 H3368 0.950 . S
C3345 C3362 1.574 . S
C3345 C3364 1.368 . S
C3345 H3369 0.949 . S
H3346 C3350 0.949 . S
C3347 C3348 1.349 . S
C3347 C3349 1.327 . S
C3347 H3370 0.950 . S
C3348 C3347 1.349 . S
C3348 C3360 1.349 . S
C3349 C3347 1.327 . S
C3349 C3365 1.429 . S
C3349 H3371 0.950 . S
C3350 H3346 0.949 . S
C3350 C3358 1.574 . S
C3350 C3366 1.368 . S
H3351 C3359 0.950 . S
H3352 C3357 0.950 . S
H3353 C3358 0.949 . S
H3354 C3360 0.950 . S
H3355 C3361 0.950 . S
H3356 C3362 0.949 . S
C3357 H3352 0.950 . S
C3357 C3359 1.327 . S
C3357 C3363 1.429 . S
C3358 C3350 1.574 . S
C3358 H3353 0.949 . S
C3358 C3364 1.368 . S
C3359 C3343 1.349 . S
C3359 H3351 0.950 . S
C3359 C3357 1.327 . S
C3360 C3348 1.349 . S
C3360 H3354 0.950 . S
C3360 C3361 1.327 . S
C3361 H3355 0.950 . S
C3361 C3360 1.327 . S
C3361 C3365 1.429 . S
C3362 C3345 1.574 . S
C3362 H3356 0.949 . S
C3362 C3366 1.368 . S
C3363 C3344 1.429 . S
C3363 C3357 1.429 . S
C3363 C3364 1.523 . S
C3364 C3345 1.368 . S
C3364 C3358 1.368 . S
C3364 C3363 1.523 . S
C3365 C3349 1.429 . S
C3365 C3361 1.429 . S
C3365 C3366 1.523 . S
C3366 C3350 1.368 . S
C3366 C3362 1.368 . S
C3366 C3365 1.523 . S
H3367 C3342 0.950 . S
H3368 C3344 0.950 . S
H3369 C3345 0.949 . S
H3370 C3347 0.950 . S
H3371 C3349 0.950 . S
C3372 C3373 1.349 . S
C3372 C3374 1.327 . S
C3372 H3397 0.950 . S
C3373 C3372 1.349 . S
C3373 C3389 1.349 . S
C3374 C3372 1.327 . S
C3374 C3393 1.429 . S
C3374 H3398 0.950 . S
C3375 C3392 1.574 . S
C3375 C3394 1.368 . S
C3375 H3399 0.949 . S
H3376 C3380 0.949 . S
C3377 C3378 1.349 . S
C3377 C3379 1.327 . S
C3377 H3400 0.950 . S
C3378 C3377 1.349 . S
C3378 C3390 1.349 . S
C3379 C3377 1.327 . S
C3379 C3395 1.429 . S
C3379 H3401 0.950 . S
C3380 H3376 0.949 . S
C3380 C3388 1.574 . S
C3380 C3396 1.368 . S
H3381 C3389 0.950 . S
H3382 C3387 0.950 . S
H3383 C3388 0.949 . S
H3384 C3390 0.950 . S
H3385 C3391 0.950 . S
H3386 C3392 0.949 . S
C3387 H3382 0.950 . S
C3387 C3389 1.327 . S
C3387 C3393 1.429 . S
C3388 C3380 1.574 . S
C3388 H3383 0.949 . S
C3388 C3394 1.368 . S
C3389 C3373 1.349 . S
C3389 H3381 0.950 . S
C3389 C3387 1.327 . S
C3390 C3378 1.349 . S
C3390 H3384 0.950 . S
C3390 C3391 1.327 . S
C3391 H3385 0.950 . S
C3391 C3390 1.327 . S
C3391 C3395 1.429 . S
C3392 C3375 1.574 . S
C3392 H3386 0.949 . S
C3392 C3396 1.368 . S
C3393 C3374 1.429 . S
C3393 C3387 1.429 . S
C3393 C3394 1.523 . S
C3394 C3375 1.368 . S
C3394 C3388 1.368 . S
C3394 C3393 1.523 . S
C3395 C3379 1.429 . S
C3395 C3391 1.429 . S
C3395 C3396 1.523 . S
C3396 C3380 1.368 . S
C3396 C3392 1.368 . S
C3396 C3395 1.523 . S
H3397 C3372 0.950 . S
H3398 C3374 0.950 . S
H3399 C3375 0.949 . S
H3400 C3377 0.950 . S
H3401 C3379 0.950 . S
C3402 C3403 1.349 . S
C3402 C3404 1.327 . S
C3402 H3427 0.950 . S
C3403 C3402 1.349 . S
C3403 C3419 1.349 . S
C3404 C3402 1.327 . S
C3404 C3423 1.429 . S
C3404 H3428 0.950 . S
C3405 C3422 1.574 . S
C3405 C3424 1.368 . S
C3405 H3429 0.949 . S
H3406 C3410 0.949 . S
C3407 C3408 1.349 . S
C3407 C3409 1.327 . S
C3407 H3430 0.950 . S
C3408 C3407 1.349 . S
C3408 C3420 1.349 . S
C3409 C3407 1.327 . S
C3409 C3425 1.429 . S
C3409 H3431 0.950 . S
C3410 H3406 0.949 . S
C3410 C3418 1.574 . S
C3410 C3426 1.368 . S
H3411 C3419 0.950 . S
H3412 C3417 0.950 . S
H3413 C3418 0.949 . S
H3414 C3420 0.950 . S
H3415 C3421 0.950 . S
H3416 C3422 0.949 . S
C3417 H3412 0.950 . S
C3417 C3419 1.327 . S
C3417 C3423 1.429 . S
C3418 C3410 1.574 . S
C3418 H3413 0.949 . S
C3418 C3424 1.368 . S
C3419 C3403 1.349 . S
C3419 H3411 0.950 . S
C3419 C3417 1.327 . S
C3420 C3408 1.349 . S
C3420 H3414 0.950 . S
C3420 C3421 1.327 . S
C3421 H3415 0.950 . S
C3421 C3420 1.327 . S
C3421 C3425 1.429 . S
C3422 C3405 1.574 . S
C3422 H3416 0.949 . S
C3422 C3426 1.368 . S
C3423 C3404 1.429 . S
C3423 C3417 1.429 . S
C3423 C3424 1.523 . S
C3424 C3405 1.368 . S
C3424 C3418 1.368 . S
C3424 C3423 1.523 . S
C3425 C3409 1.429 . S
C3425 C3421 1.429 . S
C3425 C3426 1.523 . S
C3426 C3410 1.368 . S
C3426 C3422 1.368 . S
C3426 C3425 1.523 . S
H3427 C3402 0.950 . S
H3428 C3404 0.950 . S
H3429 C3405 0.949 . S
H3430 C3407 0.950 . S
H3431 C3409 0.950 . S
C3432 C3433 1.349 . S
C3432 C3434 1.327 . S
C3432 H3457 0.950 . S
C3433 C3432 1.349 . S
C3433 C3449 1.349 . S
C3434 C3432 1.327 . S
C3434 C3453 1.429 . S
C3434 H3458 0.950 . S
C3435 C3452 1.574 . S
C3435 C3454 1.368 . S
C3435 H3459 0.949 . S
H3436 C3440 0.949 . S
C3437 C3438 1.349 . S
C3437 C3439 1.327 . S
C3437 H3460 0.950 . S
C3438 C3437 1.349 . S
C3438 C3450 1.349 . S
C3439 C3437 1.327 . S
C3439 C3455 1.429 . S
C3439 H3461 0.950 . S
C3440 H3436 0.949 . S
C3440 C3448 1.574 . S
C3440 C3456 1.368 . S
H3441 C3449 0.950 . S
H3442 C3447 0.950 . S
H3443 C3448 0.949 . S
H3444 C3450 0.950 . S
H3445 C3451 0.950 . S
H3446 C3452 0.949 . S
C3447 H3442 0.950 . S
C3447 C3449 1.327 . S
C3447 C3453 1.429 . S
C3448 C3440 1.574 . S
C3448 H3443 0.949 . S
C3448 C3454 1.368 . S
C3449 C3433 1.349 . S
C3449 H3441 0.950 . S
C3449 C3447 1.327 . S
C3450 C3438 1.349 . S
C3450 H3444 0.950 . S
C3450 C3451 1.327 . S
C3451 H3445 0.950 . S
C3451 C3450 1.327 . S
C3451 C3455 1.429 . S
C3452 C3435 1.574 . S
C3452 H3446 0.949 . S
C3452 C3456 1.368 . S
C3453 C3434 1.429 . S
C3453 C3447 1.429 . S
C3453 C3454 1.523 . S
C3454 C3435 1.368 . S
C3454 C3448 1.368 . S
C3454 C3453 1.523 . S
C3455 C3439 1.429 . S
C3455 C3451 1.429 . S
C3455 C3456 1.523 . S
C3456 C3440 1.368 . S
C3456 C3452 1.368 . S
C3456 C3455 1.523 . S
H3457 C3432 0.950 . S
H3458 C3434 0.950 . S
H3459 C3435 0.949 . S
H3460 C3437 0.950 . S
H3461 C3439 0.950 . S
C3462 C3463 1.349 . S
C3462 C3464 1.327 . S
C3462 H3487 0.950 . S
C3463 C3462 1.349 . S
C3463 C3479 1.349 . S
C3464 C3462 1.327 . S
C3464 C3483 1.429 . S
C3464 H3488 0.950 . S
C3465 C3482 1.574 . S
C3465 C3484 1.368 . S
C3465 H3489 0.949 . S
H3466 C3470 0.949 . S
C3467 C3468 1.349 . S
C3467 C3469 1.327 . S
C3467 H3490 0.950 . S
C3468 C3467 1.349 . S
C3468 C3480 1.349 . S
C3469 C3467 1.327 . S
C3469 C3485 1.429 . S
C3469 H3491 0.950 . S
C3470 H3466 0.949 . S
C3470 C3478 1.574 . S
C3470 C3486 1.368 . S
H3471 C3479 0.950 . S
H3472 C3477 0.950 . S
H3473 C3478 0.949 . S
H3474 C3480 0.950 . S
H3475 C3481 0.950 . S
H3476 C3482 0.949 . S
C3477 H3472 0.950 . S
C3477 C3479 1.327 . S
C3477 C3483 1.429 . S
C3478 C3470 1.574 . S
C3478 H3473 0.949 . S
C3478 C3484 1.368 . S
C3479 C3463 1.349 . S
C3479 H3471 0.950 . S
C3479 C3477 1.327 . S
C3480 C3468 1.349 . S
C3480 H3474 0.950 . S
C3480 C3481 1.327 . S
C3481 H3475 0.950 . S
C3481 C3480 1.327 . S
C3481 C3485 1.429 . S
C3482 C3465 1.574 . S
C3482 H3476 0.949 . S
C3482 C3486 1.368 . S
C3483 C3464 1.429 . S
C3483 C3477 1.429 . S
C3483 C3484 1.523 . S
C3484 C3465 1.368 . S
C3484 C3478 1.368 . S
C3484 C3483 1.523 . S
C3485 C3469 1.429 . S
C3485 C3481 1.429 . S
C3485 C3486 1.523 . S
C3486 C3470 1.368 . S
C3486 C3482 1.368 . S
C3486 C3485 1.523 . S
H3487 C3462 0.950 . S
H3488 C3464 0.950 . S
H3489 C3465 0.949 . S
H3490 C3467 0.950 . S
H3491 C3469 0.950 . S
C3492 C3493 1.349 . S
C3492 C3494 1.327 . S
C3492 H3517 0.950 . S
C3493 C3492 1.349 . S
C3493 C3509 1.349 . S
C3494 C3492 1.327 . S
C3494 C3513 1.429 . S
C3494 H3518 0.950 . S
C3495 C3512 1.574 . S
C3495 C3514 1.368 . S
C3495 H3519 0.949 . S
H3496 C3500 0.949 . S
C3497 C3498 1.349 . S
C3497 C3499 1.327 . S
C3497 H3520 0.950 . S
C3498 C3497 1.349 . S
C3498 C3510 1.349 . S
C3499 C3497 1.327 . S
C3499 C3515 1.429 . S
C3499 H3521 0.950 . S
C3500 H3496 0.949 . S
C3500 C3508 1.574 . S
C3500 C3516 1.368 . S
H3501 C3509 0.950 . S
H3502 C3507 0.950 . S
H3503 C3508 0.949 . S
H3504 C3510 0.950 . S
H3505 C3511 0.950 . S
H3506 C3512 0.949 . S
C3507 H3502 0.950 . S
C3507 C3509 1.327 . S
C3507 C3513 1.429 . S
C3508 C3500 1.574 . S
C3508 H3503 0.949 . S
C3508 C3514 1.368 . S
C3509 C3493 1.349 . S
C3509 H3501 0.950 . S
C3509 C3507 1.327 . S
C3510 C3498 1.349 . S
C3510 H3504 0.950 . S
C3510 C3511 1.327 . S
C3511 H3505 0.950 . S
C3511 C3510 1.327 . S
C3511 C3515 1.429 . S
C3512 C3495 1.574 . S
C3512 H3506 0.949 . S
C3512 C3516 1.368 . S
C3513 C3494 1.429 . S
C3513 C3507 1.429 . S
C3513 C3514 1.523 . S
C3514 C3495 1.368 . S
C3514 C3508 1.368 . S
C3514 C3513 1.523 . S
C3515 C3499 1.429 . S
C3515 C3511 1.429 . S
C3515 C3516 1.523 . S
C3516 C3500 1.368 . S
C3516 C3512 1.368 . S
C3516 C3515 1.523 . S
H3517 C3492 0.950 . S
H3518 C3494 0.950 . S
H3519 C3495 0.949 . S
H3520 C3497 0.950 . S
H3521 C3499 0.950 . S
C3522 C3523 1.349 . S
C3522 C3524 1.327 . S
C3522 H3547 0.950 . S
C3523 C3522 1.349 . S
C3523 C3539 1.349 . S
C3524 C3522 1.327 . S
C3524 C3543 1.429 . S
C3524 H3548 0.950 . S
C3525 C3542 1.576 . S
C3525 C3544 1.368 . S
C3525 H3549 0.949 1_554 S
H3526 C3530 0.923 1_545 S
C3527 C3528 1.321 1_566 S
C3527 C3529 1.326 . S
C3527 H3550 0.982 . S
C3528 C3527 1.321 1_544 S
C3528 C3540 1.349 . S
C3529 C3527 1.326 . S
C3529 C3545 1.416 1_556 S
C3529 H3551 0.962 . S
C3530 H3526 0.923 1_565 S
C3530 C3538 1.574 . S
C3530 C3546 1.368 . S
H3531 C3539 0.950 1_556 S
H3532 C3537 0.950 1_556 S
H3533 C3538 0.949 . S
H3534 C3540 0.950 . S
H3535 C3541 0.950 . S
H3536 C3542 0.932 1_556 S
C3537 H3532 0.950 1_554 S
C3537 C3539 1.327 . S
C3537 C3543 1.429 . S
C3538 C3530 1.574 . S
C3538 H3533 0.949 . S
C3538 C3544 1.368 . S
C3539 C3523 1.349 . S
C3539 H3531 0.950 1_554 S
C3539 C3537 1.327 . S
C3540 C3528 1.349 . S
C3540 H3534 0.950 . S
C3540 C3541 1.327 . S
C3541 H3535 0.950 . S
C3541 C3540 1.327 . S
C3541 C3545 1.429 1_545 S
C3542 C3525 1.576 . S
C3542 H3536 0.932 1_554 S
C3542 C3546 1.386 . S
C3543 C3524 1.429 . S
C3543 C3537 1.429 . S
C3543 C3544 1.523 . S
C3544 C3525 1.368 . S
C3544 C3538 1.368 . S
C3544 C3543 1.523 . S
C3545 C3529 1.416 1_554 S
C3545 C3541 1.429 1_565 S
C3545 C3546 1.523 . S
C3546 C3530 1.368 . S
C3546 C3542 1.386 . S
C3546 C3545 1.523 . S
H3547 C3522 0.950 . S
H3548 C3524 0.950 . S
H3549 C3525 0.949 1_556 S
H3550 C3527 0.982 . S
H3551 C3529 0.962 . S
C3552 C3553 1.349 . S
C3552 C3554 1.327 . S
C3552 H3577 0.950 . S
C3553 C3552 1.349 . S
C3553 C3569 1.349 . S
C3554 C3552 1.327 . S
C3554 C3573 1.429 . S
C3554 H3578 0.950 . S
C3555 C3572 1.574 . S
C3555 C3574 1.368 . S
C3555 H3579 0.949 . S
H3556 C3560 0.949 . S
C3557 C3558 1.349 . S
C3557 C3559 1.327 . S
C3557 H3580 0.950 . S
C3558 C3557 1.349 . S
C3558 C3570 1.349 . S
C3559 C3557 1.327 . S
C3559 C3575 1.429 . S
C3559 H3581 0.950 . S
C3560 H3556 0.949 . S
C3560 C3568 1.574 . S
C3560 C3576 1.368 . S
H3561 C3569 0.950 . S
H3562 C3567 0.950 . S
H3563 C3568 0.949 . S
H3564 C3570 0.950 . S
H3565 C3571 0.950 . S
H3566 C3572 0.949 . S
C3567 H3562 0.950 . S
C3567 C3569 1.327 . S
C3567 C3573 1.429 . S
C3568 C3560 1.574 . S
C3568 H3563 0.949 . S
C3568 C3574 1.368 . S
C3569 C3553 1.349 . S
C3569 H3561 0.950 . S
C3569 C3567 1.327 . S
C3570 C3558 1.349 . S
C3570 H3564 0.950 . S
C3570 C3571 1.327 . S
C3571 H3565 0.950 . S
C3571 C3570 1.327 . S
C3571 C3575 1.429 . S
C3572 C3555 1.574 . S
C3572 H3566 0.949 . S
C3572 C3576 1.368 . S
C3573 C3554 1.429 . S
C3573 C3567 1.429 . S
C3573 C3574 1.523 . S
C3574 C3555 1.368 . S
C3574 C3568 1.368 . S
C3574 C3573 1.523 . S
C3575 C3559 1.429 . S
C3575 C3571 1.429 . S
C3575 C3576 1.523 . S
C3576 C3560 1.368 . S
C3576 C3572 1.368 . S
C3576 C3575 1.523 . S
H3577 C3552 0.950 . S
H3578 C3554 0.950 . S
H3579 C3555 0.949 . S
H3580 C3557 0.950 . S
H3581 C3559 0.950 . S
C3582 C3583 1.349 . S
C3582 C3584 1.327 . S
C3582 H3607 0.950 . S
C3583 C3582 1.349 . S
C3583 C3599 1.349 1_554 S
C3584 C3582 1.327 . S
C3584 C3603 1.429 . S
C3584 H3608 0.950 . S
C3585 C3602 1.574 . S
C3585 C3604 1.368 . S
C3585 H3609 0.949 1_554 S
H3586 C3590 0.949 . S
C3587 C3588 1.349 . S
C3587 C3589 1.327 . S
C3587 H3610 0.950 . S
C3588 C3587 1.349 . S
C3588 C3600 1.349 . S
C3589 C3587 1.327 . S
C3589 C3605 1.429 . S
C3589 H3611 0.950 . S
C3590 H3586 0.949 . S
C3590 C3598 1.574 . S
C3590 C3606 1.368 . S
H3591 C3599 0.950 . S
H3592 C3597 0.950 . S
H3593 C3598 0.949 . S
H3594 C3600 0.950 . S
H3595 C3601 0.950 . S
H3596 C3602 0.949 1_556 S
C3597 H3592 0.950 . S
C3597 C3599 1.327 . S
C3597 C3603 1.429 1_556 S
C3598 C3590 1.574 . S
C3598 H3593 0.949 . S
C3598 C3604 1.368 . S
C3599 C3583 1.349 1_556 S
C3599 H3591 0.950 . S
C3599 C3597 1.327 . S
C3600 C3588 1.349 . S
C3600 H3594 0.950 . S
C3600 C3601 1.327 . S
C3601 H3595 0.950 . S
C3601 C3600 1.327 . S
C3601 C3605 1.429 . S
C3602 C3585 1.574 . S
C3602 H3596 0.949 1_554 S
C3602 C3606 1.368 . S
C3603 C3584 1.429 . S
C3603 C3597 1.429 1_554 S
C3603 C3604 1.523 . S
C3604 C3585 1.368 . S
C3604 C3598 1.368 . S
C3604 C3603 1.523 . S
C3605 C3589 1.429 . S
C3605 C3601 1.429 . S
C3605 C3606 1.523 . S
C3606 C3590 1.368 . S
C3606 C3602 1.368 . S
C3606 C3605 1.523 . S
H3607 C3582 0.950 . S
H3608 C3584 0.950 . S
H3609 C3585 0.949 1_556 S
H3610 C3587 0.950 . S
H3611 C3589 0.950 . S
C3612 C3613 1.349 . S
C3612 C3614 1.327 . S
C3612 H3637 0.950 . S
C3613 C3612 1.349 . S
C3613 C3629 1.349 . S
C3614 C3612 1.327 . S
C3614 C3633 1.429 . S
C3614 H3638 0.950 . S
C3615 C3632 1.574 . S
C3615 C3634 1.368 . S
C3615 H3639 0.949 . S
H3616 C3620 0.949 . S
C3617 C3618 1.349 . S
C3617 C3619 1.327 . S
C3617 H3640 0.950 . S
C3618 C3617 1.349 . S
C3618 C3630 1.349 . S
C3619 C3617 1.327 . S
C3619 C3635 1.429 . S
C3619 H3641 0.950 . S
C3620 H3616 0.949 . S
C3620 C3628 1.574 . S
C3620 C3636 1.368 . S
H3621 C3629 0.950 . S
H3622 C3627 0.950 . S
H3623 C3628 0.949 . S
H3624 C3630 0.950 . S
H3625 C3631 0.950 . S
H3626 C3632 0.949 . S
C3627 H3622 0.950 . S
C3627 C3629 1.327 . S
C3627 C3633 1.429 . S
C3628 C3620 1.574 . S
C3628 H3623 0.949 . S
C3628 C3634 1.368 . S
C3629 C3613 1.349 . S
C3629 H3621 0.950 . S
C3629 C3627 1.327 . S
C3630 C3618 1.349 . S
C3630 H3624 0.950 . S
C3630 C3631 1.327 . S
C3631 H3625 0.950 . S
C3631 C3630 1.327 . S
C3631 C3635 1.429 . S
C3632 C3615 1.574 . S
C3632 H3626 0.949 . S
C3632 C3636 1.368 . S
C3633 C3614 1.429 . S
C3633 C3627 1.429 . S
C3633 C3634 1.523 . S
C3634 C3615 1.368 . S
C3634 C3628 1.368 . S
C3634 C3633 1.523 . S
C3635 C3619 1.429 . S
C3635 C3631 1.429 . S
C3635 C3636 1.523 . S
C3636 C3620 1.368 . S
C3636 C3632 1.368 . S
C3636 C3635 1.523 . S
H3637 C3612 0.950 . S
H3638 C3614 0.950 . S
H3639 C3615 0.949 . S
H3640 C3617 0.950 . S
H3641 C3619 0.950 . S
C3642 C3643 1.349 . S
C3642 C3644 1.327 . S
C3642 H3667 0.950 . S
C3643 C3642 1.349 . S
C3643 C3659 1.349 . S
C3644 C3642 1.327 . S
C3644 C3663 1.429 . S
C3644 H3668 0.950 . S
C3645 C3662 1.574 . S
C3645 C3664 1.368 . S
C3645 H3669 0.949 . S
H3646 C3650 0.949 . S
C3647 C3648 1.349 . S
C3647 C3649 1.327 . S
C3647 H3670 0.950 . S
C3648 C3647 1.349 . S
C3648 C3660 1.349 . S
C3649 C3647 1.327 . S
C3649 C3665 1.429 . S
C3649 H3671 0.950 . S
C3650 H3646 0.949 . S
C3650 C3658 1.574 . S
C3650 C3666 1.368 . S
H3651 C3659 0.950 . S
H3652 C3657 0.950 . S
H3653 C3658 0.949 . S
H3654 C3660 0.950 . S
H3655 C3661 0.950 . S
H3656 C3662 0.949 . S
C3657 H3652 0.950 . S
C3657 C3659 1.327 . S
C3657 C3663 1.429 . S
C3658 C3650 1.574 . S
C3658 H3653 0.949 . S
C3658 C3664 1.368 . S
C3659 C3643 1.349 . S
C3659 H3651 0.950 . S
C3659 C3657 1.327 . S
C3660 C3648 1.349 . S
C3660 H3654 0.950 . S
C3660 C3661 1.327 . S
C3661 H3655 0.950 . S
C3661 C3660 1.327 . S
C3661 C3665 1.429 . S
C3662 C3645 1.574 . S
C3662 H3656 0.949 . S
C3662 C3666 1.368 . S
C3663 C3644 1.429 . S
C3663 C3657 1.429 . S
C3663 C3664 1.523 . S
C3664 C3645 1.368 . S
C3664 C3658 1.368 . S
C3664 C3663 1.523 . S
C3665 C3649 1.429 . S
C3665 C3661 1.429 . S
C3665 C3666 1.523 . S
C3666 C3650 1.368 . S
C3666 C3662 1.368 . S
C3666 C3665 1.523 . S
H3667 C3642 0.950 . S
H3668 C3644 0.950 . S
H3669 C3645 0.949 . S
H3670 C3647 0.950 . S
H3671 C3649 0.950 . S
C798 C313 1.620 . S
C793 C10 1.639 . S
C823 C13 0.744 . S
C828 C358 0.743 . S
C853 C34 1.518 . S
C858 C382 1.543 . S
C888 N408 0.816 . S
C883 C44 0.812 . S
C913 C21 0.875 . S
C918 N438 0.897 . S
C948 C472 1.353 . S
C943 C26 1.330 . S
C978 C508 0.996 . S
C973 C49 0.984 . S
C1003 C5 1.547 . S
C1008 C532 1.552 . S
C1033 C62 0.746 . S
C1038 N326 0.746 . S
C1063 C73 0.829 . S
C1068 N348 0.844 . S
C1098 C388 0.773 . S
C1093 C88 0.773 . S
C1128 C412 1.571 . S
C1123 C99 1.551 . S
C1153 C60 0.983 . S
C1158 C442 0.995 . S
C1188 C478 0.819 . S
C1183 C75 0.820 . S
C1218 N498 0.847 . S
C1213 C86 0.832 . S
C1248 C538 1.467 . S
C1243 C101 1.476 . S
C1278 C339 1.455 . S
C1273 C96 1.439 . S
C1308 C568 0.753 . S
C1303 C104 0.753 . S
C1333 C122 0.827 . S
C1338 N588 0.832 . S
C1368 C622 1.360 . S
C1363 C130 1.339 . S
C1393 C57 0.673 . S
C1398 N528 0.665 . S
C1428 N378 0.856 1_565 S
C1423 C70 0.849 . S
C1453 C117 0.756 . S
C1458 C658 0.756 . S
C1488 C682 0.729 . S
C1483 C143 0.731 . S
C1513 C164 1.715 . S
C1518 C322 1.727 1_556 S
C1548 C699 0.842 . S
C1543 C169 0.836 . S
C1573 C192 1.655 . S
C1578 C373 1.632 . S
C1603 C200 0.885 . S
C1608 N656 0.900 . S
C1638 N446 0.972 . S
C1633 C179 0.970 . S
C1668 C583 1.439 . S
C1663 C182 1.428 . S
C1698 C519 1.104 . S
C1693 C203 1.083 . S
C1728 C703 1.648 . S
C1723 C161 1.633 . S
C1758 N318 0.816 . S
C1753 C216 0.812 . S
C1783 C231 0.919 . S
C1788 N686 0.922 . S
C1818 C399 0.886 . S
C1813 C242 0.876 . S
C1843 C257 1.689 . S
C1848 C643 1.666 . S
C1873 C218 1.121 . S
C1878 C433 1.105 1_655 S
C1903 C229 0.924 . S
C1908 C609 0.937 . S
C1938 N506 0.911 . S
C1933 C244 0.909 . S
C1963 C255 1.559 . S
C1968 C729 1.569 . S
C1993 C252 1.525 . S
C1998 C328 1.552 . S
C2023 C260 0.840 1_556 S
C2028 C579 0.846 . S
C2053 C278 0.895 . S
C2058 N476 0.912 . S
C2083 C286 1.444 . S
C2088 C613 1.454 . S
C2118 N716 0.731 . S
C2113 C213 0.732 . S
C2148 N386 0.931 . S
C2143 C226 0.912 . S
C2178 C429 0.850 . S
C2173 C273 0.842 . S
C2208 C343 0.837 . S
C2203 C299 0.841 . S
C2233 C36 1.639 . S
C2238 C733 1.620 . S
C2268 C688 0.743 . S
C2263 C39 0.744 . S
C2298 C772 1.543 . S
C2293 C8 1.518 . S
C2323 C18 0.812 1_655 S
C2328 N648 0.816 . S
C2353 C47 0.875 . S
C2358 N558 0.897 . S
C2388 C592 1.353 . S
C2383 C0 1.330 . S
C2418 C628 0.981 . S
C2413 C23 0.984 . S
C2448 C712 1.552 . S
C2443 C31 1.547 . S
C2478 N746 0.746 . S
C2473 C153 0.746 . S
C2503 C112 0.829 . S
C2508 N678 0.844 . S
C2533 C127 0.773 . S
C2538 C778 0.766 1_655 S
C2568 C652 1.571 . S
C2563 C138 1.551 . S
C2598 C562 0.995 . S
C2593 C151 0.983 . S
C2623 C114 0.820 . S
C2628 C598 0.819 . S
C2658 N618 0.847 . S
C2653 C125 0.832 . S
C2683 C140 1.475 . S
C2688 C718 1.467 . S
C2718 C759 1.455 . S
C2713 C135 1.439 . S
C2748 C448 0.753 . S
C2743 C65 0.753 . S
C2778 N468 0.832 . S
C2773 C83 0.827 . S
C2803 C91 1.339 . S
C2808 C502 1.360 . S
C2838 N708 0.665 . S
C2833 C148 0.673 . S
C2863 C109 0.849 . S
C2868 N768 0.856 . S
C2898 C418 0.756 . S
C2893 C78 0.756 . S
C2928 C352 0.729 . S
C2923 C52 0.731 . S
C2953 C190 1.715 . S
C2958 C742 1.727 . S
C2988 C369 0.842 . S
C2983 C195 0.834 . S
C3018 C763 1.632 1_556 S
C3013 C166 1.655 . S
C3043 C174 0.885 . S
C3048 N416 0.898 . S
C3073 C205 0.970 . S
C3078 N566 0.972 . S
C3103 C156 1.428 . S
C3108 C463 1.439 . S
C3133 C177 1.086 . S
C3138 C639 1.104 . S
C3163 C187 1.633 . S
C3168 C523 1.648 . S
C3198 N738 0.816 . S
C3193 C307 0.812 . S
C3223 C270 0.919 . S
C3228 N356 0.916 . S
C3258 C789 0.886 . S
C3253 C281 0.876 . S
C3283 C296 1.689 . S
C3288 C403 1.666 . S
C3313 C309 1.121 . S
C3318 C553 1.105 . S
C3348 C489 0.938 . S
C3343 C268 0.930 . S
C3373 C283 0.909 . S
C3378 N626 0.911 . S
C3408 C549 1.569 . S
C3403 C294 1.559 . S
C3438 C748 1.552 . S
C3433 C291 1.525 . S
C3468 C459 0.848 . S
C3463 C221 0.841 . S
C3493 C239 0.895 . S
C3498 N596 0.912 . S
C3528 C493 1.454 . S
C3523 C247 1.444 . S
C3558 N536 0.731 . S
C3553 C304 0.732 . S
C3583 C265 0.912 . S
C3588 N776 0.929 . S
C3618 C669 0.850 . S
C3613 C234 0.842 . S
C3648 C673 0.837 . S
C3643 C208 0.841 . S
