# Generated by pormake.
# Topology pts, (4,4)-cn, num edge types: 1
# Building blocks:
#     Node 0, Type 0, BuildingBlock: MUDLON_clean_sbu_0, # of connection points: 4
#     Node 1, Type 0, BuildingBlock: MUDLON_clean_sbu_0, # of connection points: 4
#     Node 2, Type 1, BuildingBlock: AZAVOO_clean_sbu_0, # of connection points: 4
#     Node 3, Type 1, BuildingBlock: AZAVOO_clean_sbu_0, # of connection points: 4
#     Edge 4, Type (0, 1), BuildingBlock: TEMPAE_clean_linker_10, # of connection points: 2
#     Edge 5, Type (0, 1), BuildingBlock: TEMPAE_clean_linker_10, # of connection points: 2
#     Edge 6, Type (0, 1), BuildingBlock: TEMPAE_clean_linker_10, # of connection points: 2
#     Edge 7, Type (0, 1), BuildingBlock: TEMPAE_clean_linker_10, # of connection points: 2
#     Edge 8, Type (0, 1), BuildingBlock: TEMPAE_clean_linker_10, # of connection points: 2
#     Edge 9, Type (0, 1), BuildingBlock: TEMPAE_clean_linker_10, # of connection points: 2
#     Edge 10, Type (0, 1), BuildingBlock: TEMPAE_clean_linker_10, # of connection points: 2
#     Edge 11, Type (0, 1), BuildingBlock: TEMPAE_clean_linker_10, # of connection points: 2
# Relax obj value: 0.032
# Max RMSD: 0.087
# Mean RMSD: 0.074
data_MOF--net-pts--node1-MUDLON_clean_sbu_0--node2-AZAVOO_clean_sbu_0--edge1-TEMPAE_clean_linker_10
_symmetry_space_group_name_H-M    P1
_symmetry_Int_Tables_number       1
_symmetry_cell_setting            triclinic
loop_
_symmetry_equiv_pos_as_xyz
'x, y, z'
_cell_length_a     22.822916
_cell_length_b     23.706791
_cell_length_c     40.096505
_cell_angle_alpha  89.910751
_cell_angle_beta   96.293541
_cell_angle_gamma 90.032337
loop_
_atom_site_label
_atom_site_type_symbol
_atom_site_fract_x
_atom_site_fract_y
_atom_site_fract_z
_atom_type_partial_charge
Mg0 Mg 0.57019 0.02856 0.01163 0.0
C1 C 0.50762 0.97298 0.94705 0.0
O2 O 0.55718 0.98142 0.934 0.0
C3 C 0.63267 0.97781 0.07757 0.0
O4 O 0.58253 0.98618 0.09 0.0
C5 C 0.47318 0.04005 0.05132 0.0
O6 O 0.47179 0.98876 0.03895 0.0
O7 O 0.51377 0.07333 0.04386 0.0
O8 O 0.50536 0.98207 0.97812 0.0
O9 O 0.62614 0.07096 0.97812 0.0
C10 C 0.6654 0.03626 0.97066 0.0
O11 O 0.66596 0.98563 0.98404 0.0
O12 O 0.63557 0.98525 0.04639 0.0
Mg13 Mg 0.07629 0.51741 0.51483 0.0
C14 C 0.13622 0.57681 0.5798 0.0
O15 O 0.15086 0.52655 0.5918 0.0
C16 C 0.14181 0.41461 0.49456 0.0
O17 O 0.11885 0.39273 0.52031 0.0
C18 C 0.07785 0.59566 0.46253 0.0
O19 O 0.13151 0.58776 0.47735 0.0
O20 O 0.03593 0.56801 0.47334 0.0
O21 O 0.11116 0.58161 0.55003 0.0
O22 O 0.02237 0.45909 0.54026 0.0
C23 C 1.00837 0.46965 0.56946 0.0
O24 O 0.01654 0.52082 0.58159 0.0
O25 O 0.13791 0.4675 0.48973 0.0
Mg26 Mg 0.12183 0.0088 0.28248 0.0
O27 O 0.03339 0.01361 0.24881 0.0
O28 O 0.96145 0.01446 0.28256 0.0
Mg29 Mg 1.00251 0.00502 0.33684 0.0
C30 C 0.9789 0.01553 0.25342 0.0
C31 C 0.22776 0.02758 0.24211 0.0
O32 O 0.25186 0.00222 0.26939 0.0
O33 O 0.11635 0.09966 0.30125 0.0
O34 O 0.04672 0.09166 0.33612 0.0
O35 O 0.11639 0.91418 0.28008 0.0
O36 O 0.08049 0.9659 0.3187 0.0
C37 C 0.08539 0.12057 0.32288 0.0
C38 C 0.08748 0.91689 0.30609 0.0
O39 O 0.17256 0.03696 0.23907 0.0
Mg40 Mg 0.01915 0.00303 0.74112 0.0
O41 O 0.10707 0.00577 0.77552 0.0
O42 O 0.17967 0.00746 0.74213 0.0
Mg43 Mg 0.13946 -0.0 0.68758 0.0
C44 C 0.16172 0.00759 0.77118 0.0
C45 C 0.91162 0.0294 0.77929 0.0
O46 O 0.88645 0.01153 0.75017 0.0
O47 O 0.02761 0.09441 0.72392 0.0
O48 O 0.09755 0.08782 0.68927 0.0
O49 O 0.02145 0.90873 0.74335 0.0
O50 O 0.06187 0.95933 0.70563 0.0
C51 C 0.0593 0.1164 0.703 0.0
C52 C 0.0531 0.91061 0.71846 0.0
O53 O 0.96761 0.03122 0.78412 0.0
C54 C 0.44332 0.09742 0.09973 0.0
C55 C 0.43186 0.05406 0.07617 0.0
C56 C 0.40864 0.10336 0.12656 0.0
C57 C 0.36205 0.06478 0.12986 0.0
C58 C 0.34829 0.02332 0.1049 0.0
C59 C 0.38302 0.01878 0.07837 0.0
C60 C 0.4238 0.14893 0.15227 0.0
C61 C 0.29923 0.98113 0.10732 0.0
C62 C 0.32045 0.01849 0.21468 0.0
C63 C 0.26419 0.04218 0.21485 0.0
C64 C 0.35406 0.02801 0.18793 0.0
C65 C 0.3314 0.06294 0.16085 0.0
C66 C 0.27606 0.0896 0.16177 0.0
C67 C 0.24277 0.07841 0.18858 0.0
C68 C 0.41241 -0.00201 0.18779 0.0
C69 C 0.25096 0.12811 0.13379 0.0
H70 H 0.48086 0.12493 0.09814 0.0
H71 H 0.37321 0.98568 0.05998 0.0
H72 H 0.38328 0.17027 0.15872 0.0
H73 H 0.44572 0.12976 0.17564 0.0
H74 H 0.45395 0.18101 0.1433 0.0
H75 H 0.29186 0.95384 0.08474 0.0
H76 H 0.31016 0.95373 0.1296 0.0
H77 H 0.25742 0.00314 0.11063 0.0
H78 H 0.33747 0.9906 0.23489 0.0
H79 H 0.19967 0.09752 0.18875 0.0
H80 H 0.44755 0.0284 0.18314 0.0
H81 H 0.40927 0.96664 0.16714 0.0
H82 H 0.42579 0.97565 0.2118 0.0
H83 H 0.28502 0.15823 0.12705 0.0
H84 H 0.21238 0.1523 0.14065 0.0
H85 H 0.23675 0.10277 0.1111 0.0
C86 C 1.00735 0.42952 0.62714 0.0
C87 C 0.99825 0.42211 0.59222 0.0
C88 C 0.011 0.38298 0.649 0.0
C89 C 1.00461 0.32784 0.63562 0.0
C90 C 0.99047 0.32047 0.6006 0.0
C91 C 0.98782 0.36766 0.5793 0.0
C92 C 0.02627 0.3927 0.68614 0.0
C93 C 0.98215 0.26243 0.58534 0.0
C94 C 0.09109 0.20501 0.6766 0.0
C95 C 0.04741 0.17486 0.69104 0.0
C96 C 0.07824 0.25638 0.66004 0.0
C97 C 0.01998 0.27779 0.65734 0.0
C98 C 0.9763 0.24902 0.67328 0.0
C99 C 0.99067 0.19801 0.69021 0.0
C100 C 0.1265 0.28634 0.64403 0.0
C101 C 0.91365 0.27026 0.67079 0.0
H102 H 0.01548 0.47143 0.63741 0.0
H103 H 0.98026 0.36161 0.55238 0.0
H104 H 0.9983 0.36632 0.70089 0.0
H105 H 0.07277 0.38025 0.69344 0.0
H106 H 0.02102 0.43763 0.69306 0.0
H107 H 0.96403 0.2642 0.55849 0.0
H108 H 0.02521 0.24029 0.58721 0.0
H109 H 0.95206 0.23691 0.59924 0.0
H110 H 0.13513 0.18756 0.6774 0.0
H111 H 0.95657 0.1747 0.70111 0.0
H112 H 0.1287 0.33133 0.65165 0.0
H113 H 0.11665 0.28516 0.61631 0.0
H114 H 0.17042 0.26684 0.65092 0.0
H115 H 0.91267 0.31594 0.67664 0.0
H116 H 0.88692 0.24722 0.68795 0.0
H117 H 0.89266 0.26482 0.6447 0.0
C118 C 0.68867 0.95041 0.1324 0.0
C119 C 0.68798 0.97458 0.10048 0.0
C120 C 0.7391 0.95399 0.15584 0.0
C121 C 0.78902 0.98442 0.14754 0.0
C122 C 0.7889 0.00785 0.11504 0.0
C123 C 0.73878 0.00178 0.09173 0.0
C124 C 0.7383 0.92661 0.1898 0.0
C125 C 0.84035 0.04212 0.1055 0.0
C126 C 0.88482 0.04761 0.22171 0.0
C127 C 0.93381 0.0118 0.22427 0.0
C128 C 0.83838 0.04036 0.19606 0.0
C129 C 0.83989 0.99462 0.17343 0.0
C130 C 0.88953 0.95839 0.17595 0.0
C131 C 0.93646 0.9681 0.20101 0.0
C132 C 0.78733 0.08121 0.19348 0.0
C133 C 0.89194 0.90805 0.15313 0.0
H134 H 0.64949 0.92936 0.1392 0.0
H135 H 0.73821 0.02129 0.06722 0.0
H136 H 0.7787 0.90097 0.19604 0.0
H137 H 0.73787 0.95959 0.20936 0.0
H138 H 0.69913 0.89911 0.19091 0.0
H139 H 0.8344 0.0554 0.07876 0.0
H140 H 0.84567 0.08043 0.12142 0.0
H141 H 0.88183 0.01764 0.11008 0.0
H142 H 0.88283 0.08119 0.23988 0.0
H143 H 0.97396 0.93974 0.2035 0.0
H144 H 0.74665 0.05904 0.19894 0.0
H145 H 0.77922 0.09816 0.16756 0.0
H146 H 0.79522 0.1171 0.21119 0.0
H147 H 0.85499 0.87897 0.15667 0.0
H148 H 0.93406 0.88446 0.15804 0.0
H149 H 0.88647 0.9216 0.12649 0.0
C150 C 0.10421 0.67459 0.59159 0.0
C151 C 0.13682 0.62644 0.60234 0.0
C152 C 0.09698 0.71934 0.61349 0.0
C153 C 0.12422 0.7168 0.6469 0.0
C154 C 0.15967 0.6697 0.65756 0.0
C155 C 0.165 0.62464 0.63524 0.0
C156 C 0.05817 0.7684 0.60114 0.0
C157 C 0.19071 0.66631 0.69272 0.0
C158 C 0.12775 0.86066 0.68796 0.0
C159 C 0.07699 0.85868 0.70469 0.0
C160 C 0.14657 0.81315 0.67121 0.0
C161 C 0.11301 0.76287 0.67057 0.0
C162 C 0.06357 0.75973 0.68902 0.0
C163 C 0.04655 0.80757 0.70618 0.0
C164 C 0.20047 0.81779 0.65266 0.0
C165 C 0.02608 0.70719 0.68864 0.0
H166 H 0.08208 0.67654 0.56628 0.0
H167 H 0.19042 0.58772 0.6437 0.0
H168 H 0.02061 0.77193 0.6164 0.0
H169 H 0.08337 0.80842 0.60408 0.0
H170 H 0.04031 0.76394 0.57436 0.0
H171 H 0.22164 0.63006 0.69595 0.0
H172 H 0.21561 0.70577 0.69907 0.0
H173 H 0.15774 0.66176 0.71091 0.0
H174 H 0.15235 0.89958 0.68743 0.0
H175 H 1.00734 0.80583 0.71917 0.0
H176 H 0.18675 0.81985 0.62527 0.0
H177 H 0.22894 0.78006 0.65739 0.0
H178 H 0.22686 0.85606 0.66003 0.0
H179 H 1.00257 0.70121 0.66315 0.0
H180 H 0.99287 0.70954 0.70688 0.0
H181 H 0.054 0.66944 0.69446 0.0
C182 C 0.45098 0.94308 0.89296 0.0
C183 C 0.4519 0.96814 0.92462 0.0
C184 C 0.40031 0.9458 0.86967 0.0
C185 C 0.35035 0.97623 0.8778 0.0
C186 C 0.35055 0.00023 0.91011 0.0
C187 C 0.40096 0.99505 0.93331 0.0
C188 C 0.40104 0.91783 0.83592 0.0
C189 C 0.29904 0.03448 0.91948 0.0
C190 C 0.2556 0.03928 0.80314 0.0
C191 C 0.20645 0.00362 0.8005 0.0
C192 C 0.30172 0.03202 0.82898 0.0
C193 C 0.29969 0.98644 0.85176 0.0
C194 C 0.24987 0.9504 0.84919 0.0
C195 C 0.20327 0.96009 0.8239 0.0
C196 C 0.35299 0.07265 0.83157 0.0
C197 C 0.24693 0.90027 0.87221 0.0
H198 H 0.49025 0.92221 0.8862 0.0
H199 H 0.40166 0.0152 0.95761 0.0
H200 H 0.36045 0.89242 0.82977 0.0
H201 H 0.40192 0.95049 0.81614 0.0
H202 H 0.44 0.88999 0.8351 0.0
H203 H 0.30468 0.04745 0.94626 0.0
H204 H 0.29414 0.07299 0.90364 0.0
H205 H 0.25747 0.01018 0.91465 0.0
H206 H 0.25798 0.07276 0.78488 0.0
H207 H 0.16563 0.93188 0.82135 0.0
H208 H 0.39363 0.05025 0.82634 0.0
H209 H 0.36092 0.08976 0.85742 0.0
H210 H 0.34549 0.10844 0.8137 0.0
H211 H 0.28356 0.87081 0.86876 0.0
H212 H 0.20456 0.87705 0.86739 0.0
H213 H 0.25258 0.91395 0.8988 0.0
C214 C 0.15538 0.39923 0.43409 0.0
C215 C 0.15534 0.37742 0.46671 0.0
C216 C 0.15276 0.36325 0.40615 0.0
C217 C 0.1507 0.3042 0.41103 0.0
C218 C 0.15664 0.28202 0.44408 0.0
C219 C 0.15863 0.31891 0.47151 0.0
C220 C 0.14695 0.38865 0.37141 0.0
C221 C 0.156 0.21924 0.45044 0.0
C222 C 0.0576 0.20715 0.35227 0.0
C223 C 0.10063 0.17641 0.33775 0.0
C224 C 0.07321 0.25194 0.37422 0.0
C225 C 0.13349 0.26583 0.38224 0.0
C226 C 0.17674 0.23804 0.3655 0.0
C227 C 0.1597 0.19373 0.34321 0.0
C228 C 0.02544 0.28139 0.39085 0.0
C229 C 0.24137 0.25171 0.3732 0.0
H230 H 0.15314 0.44444 0.43006 0.0
H231 H 0.15935 0.30173 0.49663 0.0
H232 H 0.17368 0.36495 0.35466 0.0
H233 H 0.10023 0.38619 0.36042 0.0
H234 H 0.16068 0.43363 0.37183 0.0
H235 H 0.16866 0.20876 0.47728 0.0
H236 H 0.11104 0.2025 0.44301 0.0
H237 H 0.18654 0.19732 0.43508 0.0
H238 H 0.01184 0.19411 0.3479 0.0
H239 H 0.19323 0.16984 0.33222 0.0
H240 H 0.03083 0.32782 0.38955 0.0
H241 H 0.0289 0.26942 0.41776 0.0
H242 H 0.98061 0.27015 0.37909 0.0
H243 H 0.24848 0.29791 0.37527 0.0
H244 H 0.26771 0.23483 0.35374 0.0
H245 H 0.25815 0.23265 0.39769 0.0
C246 C 0.70018 0.09622 0.92443 0.0
C247 C 0.7059 0.0481 0.94493 0.0
C248 C 0.73498 0.10283 0.89768 0.0
C249 C 0.77565 0.06003 0.89119 0.0
C250 C 0.78313 0.0127 0.91274 0.0
C251 C 0.74864 0.00762 0.93935 0.0
C252 C 0.72673 0.15449 0.87566 0.0
C253 C 0.82561 0.96579 0.90677 0.0
C254 C 0.81581 0.02706 0.80409 0.0
C255 C 0.87515 0.04359 0.80657 0.0
C256 C 0.78183 0.03522 0.83081 0.0
C257 C 0.80743 0.06147 0.86062 0.0
C258 C 0.86621 0.08146 0.86249 0.0
C259 C 0.89961 0.07174 0.83557 0.0
C260 C 0.71966 0.01242 0.82789 0.0
C261 C 0.89474 0.1107 0.89352 0.0
H262 H 0.66748 0.1278 0.92863 0.0
H263 H 0.75407 0.97054 0.95523 0.0
H264 H 0.77007 0.17292 0.87157 0.0
H265 H 0.70432 0.1425 0.85073 0.0
H266 H 0.69982 0.18724 0.88663 0.0
H267 H 0.82766 0.9328 0.92657 0.0
H268 H 0.81197 0.94558 0.88219 0.0
H269 H 0.87058 0.98301 0.90581 0.0
H270 H 0.79642 0.00547 0.78174 0.0
H271 H 0.9452 0.08537 0.83751 0.0
H272 H 0.68869 0.04512 0.83507 0.0
H273 H 0.71745 0.97639 0.84542 0.0
H274 H 0.70449 0.99772 0.80209 0.0
H275 H 0.86451 0.14271 0.90234 0.0
H276 H 0.93674 0.13164 0.88906 0.0
H277 H 0.90424 0.0794 0.91399 0.0
C278 C 0.01378 0.64405 0.41568 0.0
C279 C 0.06837 0.63764 0.43509 0.0
C280 C 1.00605 0.68521 0.39017 0.0
C281 C 0.05374 0.72103 0.38451 0.0
C282 C 0.109 0.71394 0.40376 0.0
C283 C 0.11563 0.6723 0.42855 0.0
C284 C 0.9468 0.69107 0.36974 0.0
C285 C 0.16102 0.75149 0.3989 0.0
C286 C 0.07497 0.8119 0.30932 0.0
C287 C 0.06628 0.86575 0.32233 0.0
C288 C 0.06482 0.76323 0.32793 0.0
C289 C 0.04632 0.76881 0.36036 0.0
C290 C 0.03247 0.82284 0.3722 0.0
C291 C 0.04252 0.87059 0.35302 0.0
C292 C 0.07883 0.70624 0.3141 0.0
C293 C 0.0129 0.8309 0.40667 0.0
H294 H 0.97722 0.61712 0.42046 0.0
H295 H 0.15805 0.66777 0.44335 0.0
H296 H 0.92591 0.73128 0.37614 0.0
H297 H 0.95212 0.69257 0.34258 0.0
H298 H 0.9166 0.65584 0.37437 0.0
H299 H 0.20125 0.73963 0.41557 0.0
H300 H 0.17124 0.74931 0.37252 0.0
H301 H 0.1501 0.796 0.4041 0.0
H302 H 0.09256 0.80775 0.2854 0.0
H303 H 0.03528 0.91192 0.36327 0.0
H304 H 0.04575 0.67439 0.31988 0.0
H305 H 0.12249 0.69199 0.32602 0.0
H306 H 0.08035 0.70772 0.28651 0.0
H307 H 0.97877 0.79952 0.41146 0.0
H308 H 0.99503 0.87388 0.40994 0.0
H309 H 0.05113 0.82446 0.42591 0.0
loop_
_geom_bond_atom_site_label_1
_geom_bond_atom_site_label_2
_geom_bond_distance
_geom_bond_site_symmetry_2
_ccdc_geom_bond_type
Mg0 O7 2.141 . S
Mg0 O8 2.048 1_554 S
Mg0 O9 2.048 1_554 S
Mg0 O12 2.141 . S
C1 O2 1.313 1_545 S
C1 O8 1.195 . S
O2 C1 1.313 1_565 S
C3 O4 1.245 1_545 S
C3 O12 1.289 . S
O4 C3 1.245 1_565 S
C5 O6 1.245 1_545 S
C5 O7 1.289 . S
O6 C5 1.245 1_565 S
O7 Mg0 2.141 . S
O7 C5 1.289 . S
O8 Mg0 2.048 1_556 S
O8 C1 1.195 . S
O9 Mg0 2.048 1_556 S
O9 C10 1.195 . S
C10 O9 1.195 . S
C10 O11 1.313 1_545 S
O11 C10 1.313 1_565 S
O12 Mg0 2.141 . S
O12 C3 1.289 . S
Mg13 O20 2.141 . S
Mg13 O21 2.048 . S
Mg13 O22 2.048 . S
Mg13 O25 2.141 . S
C14 O15 1.313 . S
C14 O21 1.195 . S
O15 C14 1.313 . S
C16 O17 1.245 . S
C16 O25 1.289 . S
O17 C16 1.245 . S
C18 O19 1.245 . S
C18 O20 1.289 . S
O19 C18 1.245 . S
O20 Mg13 2.141 . S
O20 C18 1.289 . S
O21 Mg13 2.048 . S
O21 C14 1.195 . S
O22 Mg13 2.048 . S
O22 C23 1.195 . S
C23 O22 1.195 . S
C23 O24 1.313 . S
O24 C23 1.313 . S
O25 Mg13 2.141 . S
O25 C16 1.289 . S
Mg26 O27 2.028 . S
Mg26 O33 1.986 . S
Mg26 O35 2.114 1_545 S
Mg26 O36 2.251 1_545 S
Mg26 O39 2.010 . S
O27 Mg26 2.028 . S
O27 C30 1.250 . S
O28 Mg29 2.028 . S
O28 C30 1.248 1_655 S
Mg29 O28 2.028 . S
Mg29 O34 2.032 1_655 S
Mg29 O36 2.079 1_645 S
C30 O27 1.250 . S
C30 O28 1.248 1_455 S
C31 O32 1.264 . S
C31 O39 1.249 . S
O32 C31 1.264 . S
O33 Mg26 1.986 . S
O33 C37 1.246 . S
O34 Mg29 2.032 1_455 S
O34 C37 1.259 . S
O35 Mg26 2.114 1_565 S
O35 C38 1.252 . S
O36 Mg26 2.251 1_565 S
O36 Mg29 2.079 1_465 S
O36 C38 1.273 . S
C37 O33 1.246 . S
C37 O34 1.259 . S
C38 O35 1.252 . S
C38 O36 1.273 . S
O39 Mg26 2.010 . S
O39 C31 1.249 . S
Mg40 O41 2.028 . S
Mg40 O47 1.986 . S
Mg40 O49 2.114 1_545 S
Mg40 O50 2.251 1_545 S
Mg40 O53 2.010 1_455 S
O41 Mg40 2.028 . S
O41 C44 1.250 . S
O42 Mg43 2.028 . S
O42 C44 1.248 . S
Mg43 O42 2.028 . S
Mg43 O48 2.032 . S
Mg43 O50 2.079 1_545 S
C44 O41 1.250 . S
C44 O42 1.248 . S
C45 O46 1.264 . S
C45 O53 1.249 . S
O46 C45 1.264 . S
O47 Mg40 1.986 . S
O47 C51 1.246 . S
O48 Mg43 2.032 . S
O48 C51 1.259 . S
O49 Mg40 2.114 1_565 S
O49 C52 1.252 . S
O50 Mg40 2.251 1_565 S
O50 Mg43 2.079 1_565 S
O50 C52 1.273 . S
C51 O47 1.246 . S
C51 O48 1.259 . S
C52 O49 1.252 . S
C52 O50 1.273 . S
O53 Mg40 2.010 1_655 S
O53 C45 1.249 . S
C54 C55 1.391 . S
C54 C56 1.394 . S
C54 H70 0.931 . S
C55 C54 1.391 . S
C55 C59 1.376 1_545 S
C56 C54 1.394 . S
C56 C57 1.369 . S
C56 C60 1.531 . S
C57 C56 1.369 . S
C57 C58 1.415 . S
C57 C65 1.503 . S
C58 C57 1.415 . S
C58 C59 1.391 1_545 S
C58 C61 1.507 1_545 S
C59 C55 1.376 1_565 S
C59 C58 1.391 1_565 S
C59 H71 0.929 . S
C60 C56 1.531 . S
C60 H72 0.960 . S
C60 H73 0.962 . S
C60 H74 0.960 . S
C61 C58 1.507 1_565 S
C61 H75 0.961 . S
C61 H76 0.961 . S
C61 H77 0.961 1_565 S
C62 C63 1.370 1_565 S
C62 C64 1.363 . S
C62 H78 0.931 . S
C63 C62 1.370 1_545 S
C63 C67 1.408 . S
C64 C62 1.363 . S
C64 C65 1.370 1_565 S
C64 C68 1.524 . S
C65 C57 1.503 . S
C65 C64 1.370 1_545 S
C65 C66 1.403 . S
C66 C65 1.403 . S
C66 C67 1.404 . S
C66 C69 1.539 . S
C67 C63 1.408 . S
C67 C66 1.404 . S
C67 H79 0.930 . S
C68 C64 1.524 . S
C68 H80 0.956 . S
C68 H81 0.961 . S
C68 H82 0.961 . S
C69 C66 1.539 . S
C69 H83 0.958 . S
C69 H84 0.961 . S
C69 H85 0.960 . S
H70 C54 0.931 . S
H71 C59 0.929 . S
H72 C60 0.960 . S
H73 C60 0.962 . S
H74 C60 0.960 . S
H75 C61 0.961 . S
H76 C61 0.961 . S
H77 C61 0.961 1_545 S
H78 C62 0.931 . S
H79 C67 0.930 . S
H80 C68 0.956 . S
H81 C68 0.961 . S
H82 C68 0.961 . S
H83 C69 0.958 . S
H84 C69 0.961 . S
H85 C69 0.960 . S
C86 C87 1.391 . S
C86 C88 1.394 . S
C86 H102 0.931 . S
C87 C86 1.391 . S
C87 C91 1.376 . S
C88 C86 1.394 . S
C88 C89 1.369 . S
C88 C92 1.531 . S
C89 C88 1.369 . S
C89 C90 1.397 1_455 S
C89 C97 1.503 . S
C90 C89 1.397 1_655 S
C90 C91 1.389 1_655 S
C90 C93 1.527 . S
C91 C87 1.376 . S
C91 C90 1.389 1_455 S
C91 H103 0.929 1_455 S
C92 C88 1.531 . S
C92 H104 0.960 . S
C92 H105 0.962 . S
C92 H106 0.960 . S
C93 C90 1.527 . S
C93 H107 0.961 . S
C93 H108 0.961 . S
C93 H109 0.961 . S
C94 C95 1.370 . S
C94 C96 1.363 . S
C94 H110 0.931 . S
C95 C94 1.370 . S
C95 C99 1.408 . S
C96 C94 1.363 . S
C96 C97 1.370 . S
C96 C100 1.524 . S
C97 C89 1.503 . S
C97 C96 1.370 . S
C97 C98 1.403 . S
C98 C97 1.403 . S
C98 C99 1.404 . S
C98 C101 1.539 1_455 S
C99 C95 1.408 . S
C99 C98 1.404 . S
C99 H111 0.930 . S
C100 C96 1.524 . S
C100 H112 0.956 . S
C100 H113 0.961 . S
C100 H114 0.961 . S
C101 C98 1.539 1_655 S
C101 H115 0.958 1_655 S
C101 H116 0.961 . S
C101 H117 0.960 . S
H102 C86 0.931 . S
H103 C91 0.929 1_655 S
H104 C92 0.960 . S
H105 C92 0.962 . S
H106 C92 0.960 . S
H107 C93 0.961 . S
H108 C93 0.961 . S
H109 C93 0.961 . S
H110 C94 0.931 . S
H111 C99 0.930 . S
H112 C100 0.956 . S
H113 C100 0.961 . S
H114 C100 0.961 . S
H115 C101 0.958 1_455 S
H116 C101 0.961 . S
H117 C101 0.960 . S
C118 C119 1.391 1_565 S
C118 C120 1.394 . S
C118 H134 0.931 . S
C119 C118 1.391 1_545 S
C119 C123 1.376 . S
C120 C118 1.394 . S
C120 C121 1.363 1_565 S
C120 C124 1.531 . S
C121 C120 1.363 1_545 S
C121 C122 1.416 . S
C121 C129 1.505 . S
C122 C121 1.416 . S
C122 C123 1.392 . S
C122 C125 1.511 . S
C123 C119 1.376 . S
C123 C122 1.392 . S
C123 H135 0.929 . S
C124 C120 1.531 . S
C124 H136 0.960 . S
C124 H137 0.962 . S
C124 H138 0.960 . S
C125 C122 1.511 . S
C125 H139 0.961 . S
C125 H140 0.961 . S
C125 H141 0.961 . S
C126 C127 1.370 . S
C126 C128 1.363 . S
C126 H142 0.931 . S
C127 C126 1.370 . S
C127 C131 1.408 1_545 S
C128 C126 1.363 . S
C128 C129 1.370 . S
C128 C132 1.524 . S
C129 C121 1.505 . S
C129 C128 1.370 . S
C129 C130 1.403 1_545 S
C130 C129 1.403 1_565 S
C130 C131 1.404 . S
C130 C133 1.539 . S
C131 C127 1.408 1_565 S
C131 C130 1.404 . S
C131 H143 0.930 . S
C132 C128 1.524 . S
C132 H144 0.956 . S
C132 H145 0.961 . S
C132 H146 0.961 . S
C133 C130 1.539 . S
C133 H147 0.958 . S
C133 H148 0.961 . S
C133 H149 0.960 . S
H134 C118 0.931 . S
H135 C123 0.929 . S
H136 C124 0.960 . S
H137 C124 0.962 . S
H138 C124 0.960 . S
H139 C125 0.961 . S
H140 C125 0.961 . S
H141 C125 0.961 . S
H142 C126 0.931 . S
H143 C131 0.930 . S
H144 C132 0.956 . S
H145 C132 0.961 . S
H146 C132 0.961 . S
H147 C133 0.958 . S
H148 C133 0.961 . S
H149 C133 0.960 . S
C150 C151 1.391 . S
C150 C152 1.394 . S
C150 H166 0.931 1_455 S
C151 C150 1.391 . S
C151 C155 1.376 . S
C152 C150 1.394 . S
C152 C153 1.369 . S
C152 C156 1.531 1_455 S
C153 C152 1.369 . S
C153 C154 1.410 . S
C153 C161 1.503 . S
C154 C153 1.410 . S
C154 C155 1.392 . S
C154 C157 1.511 . S
C155 C151 1.376 . S
C155 C154 1.392 . S
C155 H167 0.929 . S
C156 C152 1.531 1_655 S
C156 H168 0.960 . S
C156 H169 0.962 . S
C156 H170 0.960 . S
C157 C154 1.511 . S
C157 H171 0.961 . S
C157 H172 0.961 . S
C157 H173 0.961 . S
C158 C159 1.370 . S
C158 C160 1.363 . S
C158 H174 0.931 . S
C159 C158 1.370 . S
C159 C163 1.408 . S
C160 C158 1.363 . S
C160 C161 1.370 . S
C160 C164 1.524 . S
C161 C153 1.503 . S
C161 C160 1.370 . S
C161 C162 1.403 . S
C162 C161 1.403 . S
C162 C163 1.404 . S
C162 C165 1.539 . S
C163 C159 1.408 . S
C163 C162 1.404 . S
C163 H175 0.930 . S
C164 C160 1.524 . S
C164 H176 0.956 . S
C164 H177 0.961 . S
C164 H178 0.961 . S
C165 C162 1.539 . S
C165 H179 0.958 . S
C165 H180 0.961 . S
C165 H181 0.960 . S
H166 C150 0.931 1_655 S
H167 C155 0.929 . S
H168 C156 0.960 . S
H169 C156 0.962 . S
H170 C156 0.960 . S
H171 C157 0.961 . S
H172 C157 0.961 . S
H173 C157 0.961 . S
H174 C158 0.931 . S
H175 C163 0.930 . S
H176 C164 0.956 . S
H177 C164 0.961 . S
H178 C164 0.961 . S
H179 C165 0.958 . S
H180 C165 0.961 . S
H181 C165 0.960 . S
C182 C183 1.391 1_565 S
C182 C184 1.394 . S
C182 H198 0.931 . S
C183 C182 1.391 1_545 S
C183 C187 1.376 . S
C184 C182 1.394 . S
C184 C185 1.369 1_565 S
C184 C188 1.531 . S
C185 C184 1.369 1_545 S
C185 C186 1.410 . S
C185 C193 1.503 . S
C186 C185 1.410 . S
C186 C187 1.392 . S
C186 C189 1.511 . S
C187 C183 1.376 . S
C187 C186 1.392 . S
C187 H199 0.929 . S
C188 C184 1.531 . S
C188 H200 0.960 . S
C188 H201 0.962 . S
C188 H202 0.960 . S
C189 C186 1.511 . S
C189 H203 0.961 . S
C189 H204 0.961 . S
C189 H205 0.961 . S
C190 C191 1.370 . S
C190 C192 1.363 . S
C190 H206 0.931 . S
C191 C190 1.370 . S
C191 C195 1.408 1_545 S
C192 C190 1.363 . S
C192 C193 1.370 . S
C192 C196 1.524 . S
C193 C185 1.503 . S
C193 C192 1.370 . S
C193 C194 1.403 1_545 S
C194 C193 1.403 1_565 S
C194 C195 1.404 . S
C194 C197 1.539 . S
C195 C191 1.408 1_565 S
C195 C194 1.404 . S
C195 H207 0.930 . S
C196 C192 1.524 . S
C196 H208 0.956 . S
C196 H209 0.961 . S
C196 H210 0.961 . S
C197 C194 1.539 . S
C197 H211 0.958 . S
C197 H212 0.961 . S
C197 H213 0.960 . S
H198 C182 0.931 . S
H199 C187 0.929 . S
H200 C188 0.960 . S
H201 C188 0.962 . S
H202 C188 0.960 . S
H203 C189 0.961 . S
H204 C189 0.961 . S
H205 C189 0.961 . S
H206 C190 0.931 . S
H207 C195 0.930 . S
H208 C196 0.956 . S
H209 C196 0.961 . S
H210 C196 0.961 . S
H211 C197 0.958 . S
H212 C197 0.961 . S
H213 C197 0.960 . S
C214 C215 1.391 . S
C214 C216 1.394 . S
C214 H230 0.931 1_455 S
C215 C214 1.391 . S
C215 C219 1.376 . S
C216 C214 1.394 . S
C216 C217 1.369 . S
C216 C220 1.531 1_455 S
C217 C216 1.369 . S
C217 C218 1.410 . S
C217 C225 1.503 . S
C218 C217 1.410 . S
C218 C219 1.392 . S
C218 C221 1.511 . S
C219 C215 1.376 . S
C219 C218 1.392 . S
C219 H231 0.929 . S
C220 C216 1.531 1_655 S
C220 H232 0.960 . S
C220 H233 0.962 . S
C220 H234 0.960 . S
C221 C218 1.511 . S
C221 H235 0.961 . S
C221 H236 0.961 . S
C221 H237 0.961 . S
C222 C223 1.370 . S
C222 C224 1.363 . S
C222 H238 0.931 . S
C223 C222 1.370 . S
C223 C227 1.408 . S
C224 C222 1.363 . S
C224 C225 1.370 . S
C224 C228 1.524 . S
C225 C217 1.503 . S
C225 C224 1.370 . S
C225 C226 1.403 . S
C226 C225 1.403 . S
C226 C227 1.404 . S
C226 C229 1.539 . S
C227 C223 1.408 . S
C227 C226 1.404 . S
C227 H239 0.930 . S
C228 C224 1.524 . S
C228 H240 0.956 . S
C228 H241 0.961 . S
C228 H242 0.961 . S
C229 C226 1.539 . S
C229 H243 0.958 . S
C229 H244 0.961 . S
C229 H245 0.960 . S
H230 C214 0.931 1_655 S
H231 C219 0.929 . S
H232 C220 0.960 . S
H233 C220 0.962 . S
H234 C220 0.960 . S
H235 C221 0.961 . S
H236 C221 0.961 . S
H237 C221 0.961 . S
H238 C222 0.931 . S
H239 C227 0.930 . S
H240 C228 0.956 . S
H241 C228 0.961 . S
H242 C228 0.961 . S
H243 C229 0.958 . S
H244 C229 0.961 . S
H245 C229 0.960 . S
C246 C247 1.391 . S
C246 C248 1.394 . S
C246 H262 0.931 . S
C247 C246 1.391 . S
C247 C251 1.376 1_545 S
C248 C246 1.394 . S
C248 C249 1.369 . S
C248 C252 1.531 . S
C249 C248 1.369 . S
C249 C250 1.410 1_545 S
C249 C257 1.503 . S
C250 C249 1.410 1_565 S
C250 C251 1.392 . S
C250 C253 1.511 . S
C251 C247 1.376 1_565 S
C251 C250 1.392 . S
C251 H263 0.929 . S
C252 C248 1.531 . S
C252 H264 0.960 . S
C252 H265 0.962 . S
C252 H266 0.960 . S
C253 C250 1.511 . S
C253 H267 0.961 . S
C253 H268 0.961 . S
C253 H269 0.961 . S
C254 C255 1.370 1_565 S
C254 C256 1.363 . S
C254 H270 0.931 . S
C255 C254 1.370 1_545 S
C255 C259 1.408 . S
C256 C254 1.363 . S
C256 C257 1.370 1_565 S
C256 C260 1.524 . S
C257 C249 1.503 . S
C257 C256 1.370 1_545 S
C257 C258 1.403 . S
C258 C257 1.403 . S
C258 C259 1.404 . S
C258 C261 1.539 . S
C259 C255 1.408 . S
C259 C258 1.404 . S
C259 H271 0.930 . S
C260 C256 1.524 . S
C260 H272 0.956 . S
C260 H273 0.961 . S
C260 H274 0.961 . S
C261 C258 1.539 . S
C261 H275 0.958 . S
C261 H276 0.961 . S
C261 H277 0.960 . S
H262 C246 0.931 . S
H263 C251 0.929 . S
H264 C252 0.960 . S
H265 C252 0.962 . S
H266 C252 0.960 . S
H267 C253 0.961 . S
H268 C253 0.961 . S
H269 C253 0.961 . S
H270 C254 0.931 . S
H271 C259 0.930 . S
H272 C260 0.956 . S
H273 C260 0.961 . S
H274 C260 0.961 . S
H275 C261 0.958 . S
H276 C261 0.961 . S
H277 C261 0.960 . S
C278 C279 1.391 . S
C278 C280 1.394 . S
C278 H294 0.931 1_455 S
C279 C278 1.391 . S
C279 C283 1.376 . S
C280 C278 1.394 . S
C280 C281 1.369 . S
C280 C284 1.531 1_455 S
C281 C280 1.369 . S
C281 C282 1.410 . S
C281 C289 1.503 . S
C282 C281 1.410 . S
C282 C283 1.392 . S
C282 C285 1.511 . S
C283 C279 1.376 . S
C283 C282 1.392 . S
C283 H295 0.929 . S
C284 C280 1.531 1_655 S
C284 H296 0.960 . S
C284 H297 0.962 . S
C284 H298 0.960 . S
C285 C282 1.511 . S
C285 H299 0.961 . S
C285 H300 0.961 . S
C285 H301 0.961 . S
C286 C287 1.370 . S
C286 C288 1.363 . S
C286 H302 0.931 . S
C287 C286 1.370 . S
C287 C291 1.408 . S
C288 C286 1.363 . S
C288 C289 1.370 . S
C288 C292 1.524 . S
C289 C281 1.503 . S
C289 C288 1.370 . S
C289 C290 1.403 . S
C290 C289 1.403 . S
C290 C291 1.404 . S
C290 C293 1.539 . S
C291 C287 1.408 . S
C291 C290 1.404 . S
C291 H303 0.930 . S
C292 C288 1.524 . S
C292 H304 0.956 . S
C292 H305 0.961 . S
C292 H306 0.961 . S
C293 C290 1.539 . S
C293 H307 0.959 1_455 S
C293 H308 0.961 . S
C293 H309 0.960 . S
H294 C278 0.931 1_655 S
H295 C283 0.929 . S
H296 C284 0.960 . S
H297 C284 0.962 . S
H298 C284 0.960 . S
H299 C285 0.961 . S
H300 C285 0.961 . S
H301 C285 0.961 . S
H302 C286 0.931 . S
H303 C291 0.930 . S
H304 C292 0.956 . S
H305 C292 0.961 . S
H306 C292 0.961 . S
H307 C293 0.959 1_655 S
H308 C293 0.961 . S
H309 C293 0.960 . S
C63 C31 1.240 . S
C55 C5 1.411 . S
C95 C51 1.453 . S
C87 C23 1.472 . S
C127 C30 1.407 1_655 S
C119 C3 1.405 . S
C159 C52 1.498 . S
C151 C14 1.486 . S
C191 C44 1.473 . S
C183 C1 1.481 . S
C223 C37 1.386 . S
C215 C16 1.394 . S
C255 C45 1.295 . S
C247 C10 1.471 . S
C279 C18 1.422 . S
C287 C38 1.426 . S
