# Generated by pormake.
# Topology cor, (4,6)-cn, num edge types: 1
# Building blocks:
#     Node 0, Type 0, BuildingBlock: QUQFOY_clean_sbu_3, # of connection points: 4
#     Node 1, Type 0, BuildingBlock: QUQFOY_clean_sbu_3, # of connection points: 4
#     Node 2, Type 0, BuildingBlock: QUQFOY_clean_sbu_3, # of connection points: 4
#     Node 3, Type 0, BuildingBlock: QUQFOY_clean_sbu_3, # of connection points: 4
#     Node 4, Type 0, BuildingBlock: QUQFOY_clean_sbu_3, # of connection points: 4
#     Node 5, Type 0, BuildingBlock: QUQFOY_clean_sbu_3, # of connection points: 4
#     Node 6, Type 0, BuildingBlock: QUQFOY_clean_sbu_3, # of connection points: 4
#     Node 7, Type 0, BuildingBlock: QUQFOY_clean_sbu_3, # of connection points: 4
#     Node 8, Type 0, BuildingBlock: QUQFOY_clean_sbu_3, # of connection points: 4
#     Node 9, Type 0, BuildingBlock: QUQFOY_clean_sbu_3, # of connection points: 4
#     Node 10, Type 0, BuildingBlock: QUQFOY_clean_sbu_3, # of connection points: 4
#     Node 11, Type 0, BuildingBlock: QUQFOY_clean_sbu_3, # of connection points: 4
#     Node 12, Type 0, BuildingBlock: QUQFOY_clean_sbu_3, # of connection points: 4
#     Node 13, Type 0, BuildingBlock: QUQFOY_clean_sbu_3, # of connection points: 4
#     Node 14, Type 0, BuildingBlock: QUQFOY_clean_sbu_3, # of connection points: 4
#     Node 15, Type 0, BuildingBlock: QUQFOY_clean_sbu_3, # of connection points: 4
#     Node 16, Type 0, BuildingBlock: QUQFOY_clean_sbu_3, # of connection points: 4
#     Node 17, Type 0, BuildingBlock: QUQFOY_clean_sbu_3, # of connection points: 4
#     Node 18, Type 1, BuildingBlock: MIDCAF_clean_sbu_0, # of connection points: 6
#     Node 19, Type 1, BuildingBlock: MIDCAF_clean_sbu_0, # of connection points: 6
#     Node 20, Type 1, BuildingBlock: MIDCAF_clean_sbu_0, # of connection points: 6
#     Node 21, Type 1, BuildingBlock: MIDCAF_clean_sbu_0, # of connection points: 6
#     Node 22, Type 1, BuildingBlock: MIDCAF_clean_sbu_0, # of connection points: 6
#     Node 23, Type 1, BuildingBlock: MIDCAF_clean_sbu_0, # of connection points: 6
#     Node 24, Type 1, BuildingBlock: MIDCAF_clean_sbu_0, # of connection points: 6
#     Node 25, Type 1, BuildingBlock: MIDCAF_clean_sbu_0, # of connection points: 6
#     Node 26, Type 1, BuildingBlock: MIDCAF_clean_sbu_0, # of connection points: 6
#     Node 27, Type 1, BuildingBlock: MIDCAF_clean_sbu_0, # of connection points: 6
#     Node 28, Type 1, BuildingBlock: MIDCAF_clean_sbu_0, # of connection points: 6
#     Node 29, Type 1, BuildingBlock: MIDCAF_clean_sbu_0, # of connection points: 6
#     Edge 30, Type (0, 1), BuildingBlock: ZUJKAS_clean_linker_0, # of connection points: 2
#     Edge 31, Type (0, 1), BuildingBlock: ZUJKAS_clean_linker_0, # of connection points: 2
#     Edge 32, Type (0, 1), BuildingBlock: ZUJKAS_clean_linker_0, # of connection points: 2
#     Edge 33, Type (0, 1), BuildingBlock: ZUJKAS_clean_linker_0, # of connection points: 2
#     Edge 34, Type (0, 1), BuildingBlock: ZUJKAS_clean_linker_0, # of connection points: 2
#     Edge 35, Type (0, 1), BuildingBlock: ZUJKAS_clean_linker_0, # of connection points: 2
#     Edge 36, Type (0, 1), BuildingBlock: ZUJKAS_clean_linker_0, # of connection points: 2
#     Edge 37, Type (0, 1), BuildingBlock: ZUJKAS_clean_linker_0, # of connection points: 2
#     Edge 38, Type (0, 1), BuildingBlock: ZUJKAS_clean_linker_0, # of connection points: 2
#     Edge 39, Type (0, 1), BuildingBlock: ZUJKAS_clean_linker_0, # of connection points: 2
#     Edge 40, Type (0, 1), BuildingBlock: ZUJKAS_clean_linker_0, # of connection points: 2
#     Edge 41, Type (0, 1), BuildingBlock: ZUJKAS_clean_linker_0, # of connection points: 2
#     Edge 42, Type (0, 1), BuildingBlock: ZUJKAS_clean_linker_0, # of connection points: 2
#     Edge 43, Type (0, 1), BuildingBlock: ZUJKAS_clean_linker_0, # of connection points: 2
#     Edge 44, Type (0, 1), BuildingBlock: ZUJKAS_clean_linker_0, # of connection points: 2
#     Edge 45, Type (0, 1), BuildingBlock: ZUJKAS_clean_linker_0, # of connection points: 2
#     Edge 46, Type (0, 1), BuildingBlock: ZUJKAS_clean_linker_0, # of connection points: 2
#     Edge 47, Type (0, 1), BuildingBlock: ZUJKAS_clean_linker_0, # of connection points: 2
#     Edge 48, Type (0, 1), BuildingBlock: ZUJKAS_clean_linker_0, # of connection points: 2
#     Edge 49, Type (0, 1), BuildingBlock: ZUJKAS_clean_linker_0, # of connection points: 2
#     Edge 50, Type (0, 1), BuildingBlock: ZUJKAS_clean_linker_0, # of connection points: 2
#     Edge 51, Type (0, 1), BuildingBlock: ZUJKAS_clean_linker_0, # of connection points: 2
#     Edge 52, Type (0, 1), BuildingBlock: ZUJKAS_clean_linker_0, # of connection points: 2
#     Edge 53, Type (0, 1), BuildingBlock: ZUJKAS_clean_linker_0, # of connection points: 2
#     Edge 54, Type (0, 1), BuildingBlock: ZUJKAS_clean_linker_0, # of connection points: 2
#     Edge 55, Type (0, 1), BuildingBlock: ZUJKAS_clean_linker_0, # of connection points: 2
#     Edge 56, Type (0, 1), BuildingBlock: ZUJKAS_clean_linker_0, # of connection points: 2
#     Edge 57, Type (0, 1), BuildingBlock: ZUJKAS_clean_linker_0, # of connection points: 2
#     Edge 58, Type (0, 1), BuildingBlock: ZUJKAS_clean_linker_0, # of connection points: 2
#     Edge 59, Type (0, 1), BuildingBlock: ZUJKAS_clean_linker_0, # of connection points: 2
#     Edge 60, Type (0, 1), BuildingBlock: ZUJKAS_clean_linker_0, # of connection points: 2
#     Edge 61, Type (0, 1), BuildingBlock: ZUJKAS_clean_linker_0, # of connection points: 2
#     Edge 62, Type (0, 1), BuildingBlock: ZUJKAS_clean_linker_0, # of connection points: 2
#     Edge 63, Type (0, 1), BuildingBlock: ZUJKAS_clean_linker_0, # of connection points: 2
#     Edge 64, Type (0, 1), BuildingBlock: ZUJKAS_clean_linker_0, # of connection points: 2
#     Edge 65, Type (0, 1), BuildingBlock: ZUJKAS_clean_linker_0, # of connection points: 2
#     Edge 66, Type (0, 1), BuildingBlock: ZUJKAS_clean_linker_0, # of connection points: 2
#     Edge 67, Type (0, 1), BuildingBlock: ZUJKAS_clean_linker_0, # of connection points: 2
#     Edge 68, Type (0, 1), BuildingBlock: ZUJKAS_clean_linker_0, # of connection points: 2
#     Edge 69, Type (0, 1), BuildingBlock: ZUJKAS_clean_linker_0, # of connection points: 2
#     Edge 70, Type (0, 1), BuildingBlock: ZUJKAS_clean_linker_0, # of connection points: 2
#     Edge 71, Type (0, 1), BuildingBlock: ZUJKAS_clean_linker_0, # of connection points: 2
#     Edge 72, Type (0, 1), BuildingBlock: ZUJKAS_clean_linker_0, # of connection points: 2
#     Edge 73, Type (0, 1), BuildingBlock: ZUJKAS_clean_linker_0, # of connection points: 2
#     Edge 74, Type (0, 1), BuildingBlock: ZUJKAS_clean_linker_0, # of connection points: 2
#     Edge 75, Type (0, 1), BuildingBlock: ZUJKAS_clean_linker_0, # of connection points: 2
#     Edge 76, Type (0, 1), BuildingBlock: ZUJKAS_clean_linker_0, # of connection points: 2
#     Edge 77, Type (0, 1), BuildingBlock: ZUJKAS_clean_linker_0, # of connection points: 2
#     Edge 78, Type (0, 1), BuildingBlock: ZUJKAS_clean_linker_0, # of connection points: 2
#     Edge 79, Type (0, 1), BuildingBlock: ZUJKAS_clean_linker_0, # of connection points: 2
#     Edge 80, Type (0, 1), BuildingBlock: ZUJKAS_clean_linker_0, # of connection points: 2
#     Edge 81, Type (0, 1), BuildingBlock: ZUJKAS_clean_linker_0, # of connection points: 2
#     Edge 82, Type (0, 1), BuildingBlock: ZUJKAS_clean_linker_0, # of connection points: 2
#     Edge 83, Type (0, 1), BuildingBlock: ZUJKAS_clean_linker_0, # of connection points: 2
#     Edge 84, Type (0, 1), BuildingBlock: ZUJKAS_clean_linker_0, # of connection points: 2
#     Edge 85, Type (0, 1), BuildingBlock: ZUJKAS_clean_linker_0, # of connection points: 2
#     Edge 86, Type (0, 1), BuildingBlock: ZUJKAS_clean_linker_0, # of connection points: 2
#     Edge 87, Type (0, 1), BuildingBlock: ZUJKAS_clean_linker_0, # of connection points: 2
#     Edge 88, Type (0, 1), BuildingBlock: ZUJKAS_clean_linker_0, # of connection points: 2
#     Edge 89, Type (0, 1), BuildingBlock: ZUJKAS_clean_linker_0, # of connection points: 2
#     Edge 90, Type (0, 1), BuildingBlock: ZUJKAS_clean_linker_0, # of connection points: 2
#     Edge 91, Type (0, 1), BuildingBlock: ZUJKAS_clean_linker_0, # of connection points: 2
#     Edge 92, Type (0, 1), BuildingBlock: ZUJKAS_clean_linker_0, # of connection points: 2
#     Edge 93, Type (0, 1), BuildingBlock: ZUJKAS_clean_linker_0, # of connection points: 2
#     Edge 94, Type (0, 1), BuildingBlock: ZUJKAS_clean_linker_0, # of connection points: 2
#     Edge 95, Type (0, 1), BuildingBlock: ZUJKAS_clean_linker_0, # of connection points: 2
#     Edge 96, Type (0, 1), BuildingBlock: ZUJKAS_clean_linker_0, # of connection points: 2
#     Edge 97, Type (0, 1), BuildingBlock: ZUJKAS_clean_linker_0, # of connection points: 2
#     Edge 98, Type (0, 1), BuildingBlock: ZUJKAS_clean_linker_0, # of connection points: 2
#     Edge 99, Type (0, 1), BuildingBlock: ZUJKAS_clean_linker_0, # of connection points: 2
#     Edge 100, Type (0, 1), BuildingBlock: ZUJKAS_clean_linker_0, # of connection points: 2
#     Edge 101, Type (0, 1), BuildingBlock: ZUJKAS_clean_linker_0, # of connection points: 2
# Relax obj value: 0.108
# Max RMSD: 0.161
# Mean RMSD: 0.107
data_MOF--net-cor--node1-QUQFOY_clean_sbu_3--node2-MIDCAF_clean_sbu_0--edge1-ZUJKAS_clean_linker_0
_symmetry_space_group_name_H-M    P1
_symmetry_Int_Tables_number       1
_symmetry_cell_setting            triclinic
loop_
_symmetry_equiv_pos_as_xyz
'x, y, z'
_cell_length_a     50.508146
_cell_length_b     50.616585
_cell_length_c     131.19136
_cell_angle_alpha  90.019787
_cell_angle_beta   89.879174
_cell_angle_gamma 120.45047
loop_
_atom_site_label
_atom_site_type_symbol
_atom_site_fract_x
_atom_site_fract_y
_atom_site_fract_z
_atom_type_partial_charge
C0 C 0.68079 0.93229 0.25367 0.0
O1 O 0.69456 0.92216 0.24826 0.0
Cd2 Cd 0.7455 0.95699 0.24224 0.0
O3 O 0.69171 0.96106 0.25453 0.0
Cd4 Cd 0.73455 0.00996 0.24768 0.0
C5 C 0.7751 -0.00393 0.26491 0.0
O6 O 0.74614 -0.00508 0.23114 0.0
O7 O 0.78173 0.03716 0.23779 0.0
O8 O 0.6956 0.02085 0.24155 0.0
C9 C 0.77187 0.0195 0.23012 0.0
O10 O 0.77348 0.97707 0.25821 0.0
C11 C 0.70876 0.04831 0.24471 0.0
O12 O 0.76207 0.01172 0.26342 0.0
O13 O 0.73333 0.05764 0.24981 0.0
C14 C 0.945 0.67356 0.2478 0.0
O15 O 0.92899 0.68353 0.2519 0.0
Cd16 Cd 0.95097 0.73623 0.25657 0.0
O17 O 0.97407 0.69082 0.24713 0.0
Cd18 Cd 0.01357 0.7435 0.25298 0.0
C19 C 0.98861 0.77081 0.2342 0.0
O20 O -0.00869 0.75093 0.26875 0.0
O21 O 0.02679 0.79181 0.26137 0.0
O22 O 0.03859 0.72055 0.26212 0.0
C23 C 0.01021 0.77955 0.2692 0.0
O24 O 0.96692 0.76439 0.24049 0.0
C25 C 0.06541 0.73796 0.25864 0.0
O26 O 0.00944 0.76451 0.23635 0.0
O27 O 0.06822 0.75726 0.25187 0.0
C28 C 0.25935 0.35091 0.25143 0.0
O29 O 0.23485 0.33583 0.24632 0.0
Cd30 Cd 0.21834 0.28481 0.24065 0.0
O31 O 0.27789 0.34094 0.25239 0.0
Cd32 Cd 0.28331 0.29735 0.24603 0.0
C33 C 0.22817 0.256 0.26334 0.0
O34 O 0.25567 0.2838 0.22964 0.0
O35 O 0.26263 0.24925 0.23671 0.0
O36 O 0.33317 0.33357 0.23871 0.0
C37 C 0.25434 0.25811 0.22894 0.0
O38 O 0.21052 0.25725 0.25667 0.0
C39 C 0.34775 0.3219 0.24272 0.0
O40 O 0.25709 0.26952 0.2618 0.0
O41 O 0.33276 0.29966 0.24884 0.0
C42 C 0.34689 0.09193 0.75183 0.0
O43 O 0.33275 0.10271 0.7567 0.0
Cd44 Cd 0.28044 0.07135 0.76179 0.0
O45 O 0.33479 0.06301 0.75075 0.0
Cd46 Cd 0.28658 0.016 0.75687 0.0
C47 C 0.25144 0.03455 0.73886 0.0
O48 O 0.27442 0.03182 0.77317 0.0
O49 O 0.23679 -0.00634 0.76544 0.0
O50 O 0.31616 -0.00428 0.76493 0.0
C51 C 0.24708 0.00932 0.77353 0.0
O52 O 0.25346 0.05369 0.74557 0.0
C53 C 0.30056 0.96885 0.7613 0.0
O54 O 0.26276 0.01744 0.74056 0.0
O55 O 0.28002 0.9645 0.75482 0.0
C56 C 0.92667 0.25886 0.75137 0.0
O57 O 0.91492 0.23318 0.75589 0.0
Cd58 Cd 0.94579 0.21267 0.76149 0.0
O59 O 0.95578 0.27606 0.75084 0.0
Cd60 Cd 0.00179 0.2748 0.75719 0.0
C61 C 0.98444 0.22171 0.73897 0.0
O62 O 0.98364 0.24702 0.7734 0.0
O63 O 0.02326 0.24825 0.76663 0.0
O64 O 0.02262 0.32534 0.76485 0.0
C65 C 0.00632 0.24297 0.77441 0.0
O66 O 0.96456 0.20369 0.74541 0.0
C67 C 0.04922 0.33657 0.76097 0.0
O68 O 0.00142 0.2501 0.74101 0.0
O69 O 0.05321 0.31978 0.75468 0.0
C70 C 0.68664 0.7666 0.75034 0.0
O71 O 0.70238 0.79289 0.7463 0.0
Cd72 Cd 0.75453 0.8137 0.74138 0.0
O73 O 0.6977 0.74892 0.75112 0.0
Cd74 Cd 0.74658 0.75086 0.7461 0.0
C75 C 0.78101 0.80448 0.76446 0.0
O76 O 0.75614 0.7778 0.72986 0.0
O77 O 0.79482 0.77669 0.73628 0.0
O78 O 0.717 0.69964 0.73882 0.0
C79 C 0.78268 0.78152 0.72858 0.0
O80 O 0.78011 0.82247 0.75786 0.0
C81 C 0.73291 0.68935 0.74277 0.0
O82 O 0.76963 0.77614 0.76242 0.0
O83 O 0.75372 0.70687 0.74899 0.0
C84 C 0.36048 0.27086 0.58759 0.0
O85 O 0.37607 0.26068 0.58333 0.0
Cd86 Cd 0.42619 0.29329 0.57667 0.0
O87 O 0.37024 0.29958 0.58765 0.0
Cd88 Cd 0.41665 0.3468 0.58098 0.0
C89 C 0.45579 0.33292 0.59889 0.0
O90 O 0.4242 0.32807 0.56468 0.0
O91 O 0.46364 0.3687 0.57057 0.0
O92 O 0.38462 0.36654 0.5745 0.0
C93 C 0.45055 0.35116 0.56304 0.0
O94 O 0.45537 0.31399 0.59241 0.0
C95 C 0.40183 0.39367 0.57773 0.0
O96 O 0.44241 0.34795 0.59696 0.0
O97 O 0.42457 0.39835 0.58318 0.0
C98 C 0.60588 0.01595 0.58317 0.0
O99 O 0.59426 0.0293 0.58804 0.0
Cd100 Cd 0.62451 0.08171 0.59301 0.0
O101 O 0.63494 0.0289 0.58209 0.0
Cd102 Cd 0.68139 0.07726 0.5881 0.0
C103 C 0.66137 0.11096 0.56999 0.0
O104 O 0.66447 0.08846 0.60431 0.0
O105 O 0.70289 0.12661 0.59679 0.0
O106 O 0.70125 0.04763 0.59627 0.0
C107 C 0.68668 0.11588 0.60478 0.0
O108 O 0.64179 0.10825 0.57667 0.0
C109 C 0.72828 0.063 0.59269 0.0
O110 O 0.67933 0.10065 0.57175 0.0
O111 O 0.73307 0.08366 0.5862 0.0
C112 C 0.94188 0.68352 0.58614 0.0
O113 O 0.91587 0.66853 0.58186 0.0
Cd114 Cd 0.89357 0.61587 0.5774 0.0
O115 O 0.95884 0.67168 0.58712 0.0
Cd116 Cd 0.95589 0.62233 0.58203 0.0
C117 C 0.90293 0.59008 0.60069 0.0
O118 O 0.92667 0.60899 0.56602 0.0
O119 O 0.92712 0.57192 0.57398 0.0
O120 O 0.00582 0.64981 0.57357 0.0
C121 C 0.92136 0.58167 0.56586 0.0
O122 O 0.88524 0.59136 0.59405 0.0
C123 C 0.01683 0.63478 0.57769 0.0
O124 O 0.93128 0.60075 0.59867 0.0
O125 O 0.00045 0.61553 0.58452 0.0
C126 C 0.01112 0.4286 0.08128 0.0
O127 O -0.00344 0.44117 0.08463 0.0
Cd128 Cd 0.95045 0.41848 0.09432 0.0
O129 O 0.00178 0.40039 0.08308 0.0
Cd130 Cd 0.95467 0.35794 0.09177 0.0
C131 C 0.91096 0.37057 0.07465 0.0
O132 O 0.95421 0.38642 0.10677 0.0
O133 O 0.91233 0.34393 0.10401 0.0
O134 O 0.98238 0.33396 0.09902 0.0
C135 C 0.92788 0.36637 0.10994 0.0
O136 O 0.91429 0.39187 0.08063 0.0
C137 C 0.96368 0.30709 0.09583 0.0
O138 O 0.92433 0.3554 0.0765 0.0
O139 O 0.94185 0.30418 0.09023 0.0
C140 C 0.5901 0.59839 0.08453 0.0
O141 O 0.57499 0.57213 0.08865 0.0
Cd142 Cd 0.59698 0.54501 0.09611 0.0
O143 O 0.61938 0.61394 0.08517 0.0
Cd144 Cd 0.66067 0.6079 0.09366 0.0
C145 C 0.64365 0.55377 0.0755 0.0
O146 O 0.63194 0.5784 0.10856 0.0
O147 O 0.67289 0.57693 0.10516 0.0
O148 O 0.68409 0.65879 0.10145 0.0
C149 C 0.65094 0.57046 0.11128 0.0
O150 O 0.62065 0.53659 0.08113 0.0
C151 C 0.71128 0.66768 0.09846 0.0
O152 O 0.66213 0.58157 0.07799 0.0
O153 O 0.71478 0.64946 0.0927 0.0
C154 C 0.36279 0.09638 0.0965 0.0
O155 O 0.38179 0.12397 0.09411 0.0
Cd156 Cd 0.43181 0.14055 0.08746 0.0
O157 O 0.36961 0.07559 0.09505 0.0
Cd158 Cd 0.41576 0.07525 0.08791 0.0
C159 C 0.46132 0.1195 0.10705 0.0
O160 O 0.42701 0.10896 0.07305 0.0
O161 O 0.46306 0.10056 0.0776 0.0
O162 O 0.38384 0.02742 0.07859 0.0
C163 C 0.4519 0.10992 0.07082 0.0
O164 O 0.46276 0.14152 0.10191 0.0
C165 C 0.39769 0.01407 0.08187 0.0
O166 O 0.44418 0.09199 0.10408 0.0
O167 O 0.41825 0.02825 0.08856 0.0
C168 C 0.01346 0.60171 0.92162 0.0
O169 O 0.02755 0.59055 0.91693 0.0
Cd170 Cd 0.0797 0.62236 0.91157 0.0
O171 O 0.0253 0.63068 0.92226 0.0
Cd172 Cd 0.07233 0.6774 0.91578 0.0
C173 C 0.10798 0.66113 0.93418 0.0
O174 O 0.08493 0.66075 0.89973 0.0
O175 O 0.12172 0.70078 0.90704 0.0
O176 O 0.04229 0.69691 0.90769 0.0
C177 C 0.1118 0.68401 0.89916 0.0
O178 O 0.1065 0.6415 0.92778 0.0
C179 C 0.05686 0.72339 0.91167 0.0
O180 O 0.09634 0.67769 0.93208 0.0
O181 O 0.07724 0.72781 0.91822 0.0
C182 C 0.27009 0.34744 0.91736 0.0
O183 O 0.25855 0.36036 0.92252 0.0
Cd184 Cd 0.28841 0.41188 0.92836 0.0
O185 O 0.29916 0.36044 0.91625 0.0
Cd186 Cd 0.34528 0.40852 0.92281 0.0
C187 C 0.32602 0.44595 0.9059 0.0
O188 O 0.32819 0.41704 0.93945 0.0
O189 O 0.36617 0.45651 0.9323 0.0
O190 O 0.36647 0.37919 0.93032 0.0
C191 C 0.35022 0.44446 0.94025 0.0
O192 O 0.3061 0.44179 0.91265 0.0
C193 C 0.39338 0.39544 0.92672 0.0
O194 O 0.34384 0.43523 0.9072 0.0
O195 O 0.39746 0.4164 0.92047 0.0
C196 C 0.59825 0.02073 0.91849 0.0
O197 O 0.57292 0.00741 0.91373 0.0
Cd198 Cd 0.54981 0.95497 0.90892 0.0
O199 O 0.6143 0.00786 0.91933 0.0
Cd200 Cd 0.61131 0.9595 0.91294 0.0
C201 C 0.55964 0.92721 0.93178 0.0
O202 O 0.58178 0.94805 0.89705 0.0
O203 O 0.58094 0.90966 0.90452 0.0
O204 O 0.66125 0.98703 0.90446 0.0
C205 C 0.57547 0.92042 0.89659 0.0
O206 O 0.54187 0.9296 0.92545 0.0
C207 C 0.67197 0.97147 0.90839 0.0
O208 O 0.58763 0.937 0.92946 0.0
O209 O 0.65535 0.95174 0.91507 0.0
C210 C 0.68308 0.75235 0.41265 0.0
O211 O 0.67154 0.76489 0.41801 0.0
Cd212 Cd 0.62033 0.73611 0.4245 0.0
O213 O 0.66936 0.72319 0.41199 0.0
Cd214 Cd 0.62181 0.67848 0.41953 0.0
C215 C 0.58585 0.69815 0.40224 0.0
O216 O 0.61333 0.69649 0.43607 0.0
O217 O 0.57358 0.65911 0.42886 0.0
O218 O 0.65006 0.65609 0.42711 0.0
C219 C 0.58552 0.67505 0.4368 0.0
O220 O 0.59022 0.7184 0.40885 0.0
C221 C 0.63347 0.62951 0.42337 0.0
O222 O 0.59585 0.67986 0.40378 0.0
O223 O 0.61276 0.62618 0.41712 0.0
C224 C 0.26015 0.92628 0.42032 0.0
O225 O 0.24999 0.89986 0.42417 0.0
Cd226 Cd 0.28262 0.88055 0.42875 0.0
O227 O 0.28904 0.9448 0.41962 0.0
Cd228 Cd 0.33677 0.94426 0.42452 0.0
C229 C 0.31959 0.89253 0.40574 0.0
O230 O 0.32052 0.91534 0.44054 0.0
O231 O 0.36036 0.91844 0.43328 0.0
O232 O 0.35787 -0.00564 0.43259 0.0
C233 C 0.34381 0.91219 0.44121 0.0
O234 O 0.30075 0.87364 0.41224 0.0
C235 C 0.38411 0.00609 0.4284 0.0
O236 O 0.33571 0.92091 0.40792 0.0
O237 O 0.38762 0.98986 0.42175 0.0
C238 C 0.01449 0.42071 0.42192 0.0
O239 O 0.02698 0.44605 0.41718 0.0
Cd240 Cd 0.07824 0.4699 0.41107 0.0
O241 O 0.028 0.40521 0.42252 0.0
Cd242 Cd 0.07702 0.41083 0.41556 0.0
C243 C 0.11149 0.46544 0.43335 0.0
O244 O 0.0812 0.43574 0.39913 0.0
O245 O 0.12335 0.44136 0.40521 0.0
O246 O 0.04902 0.35756 0.40962 0.0
C247 C 0.10885 0.44301 0.39758 0.0
O248 O 0.10812 0.48219 0.42685 0.0
C249 C 0.07008 0.35195 0.41196 0.0
O250 O 0.10123 0.43719 0.43151 0.0
O251 O 0.09297 0.3727 0.41679 0.0
Zn252 Zn 0.00599 0.00946 0.12354 0.0
Zn253 Zn 0.00658 0.0143 0.1634 0.0
Zn254 Zn 0.00702 0.01221 0.14383 0.0
C255 C 0.97814 0.95292 0.15905 0.0
C256 C 0.06784 0.04533 0.15799 0.0
O257 O 0.9865 0.03932 0.13795 0.0
O258 O 0.98833 0.03625 0.12116 0.0
C259 C 0.97015 0.94921 0.13074 0.0
O260 O 0.98512 0.96427 0.14997 0.0
O261 O 0.98344 0.97033 0.1666 0.0
O262 O 0.05107 0.03586 0.16582 0.0
O263 O 0.05572 0.039 0.14903 0.0
O264 O 0.97884 0.96431 0.12253 0.0
O265 O 0.97907 0.9631 0.13939 0.0
O266 O 0.05531 0.0327 0.13854 0.0
O267 O 0.05096 0.02725 0.12179 0.0
C268 C 0.06758 0.03566 0.12967 0.0
O269 O 0.98117 0.03527 0.14852 0.0
O270 O 0.98578 0.0378 0.1653 0.0
C271 C 0.98201 0.04669 0.12896 0.0
C272 C 0.97578 0.04325 0.15726 0.0
Zn273 Zn 0.02308 0.01006 0.327 0.0
Zn274 Zn -0.00189 0.00915 0.37645 0.0
Zn275 Zn 0.01359 0.01538 0.35817 0.0
C276 C 0.03002 0.07258 0.37251 0.0
C277 C 0.94404 0.97777 0.36509 0.0
O278 O 0.03672 0.98902 0.35569 0.0
O279 O 0.03494 0.0074 0.34126 0.0
C280 C 0.04722 0.06265 0.34393 0.0
O281 O 0.03355 0.06359 0.36368 0.0
O282 O 0.01481 0.05298 0.37931 0.0
O283 O 0.95342 0.98355 0.37418 0.0
O284 O 0.96333 0.98834 0.35767 0.0
O285 O 0.03359 0.03593 0.34014 0.0
O286 O 0.04354 0.06378 0.35351 0.0
O287 O 0.97379 -0.00382 0.34659 0.0
O288 O 0.97725 0.99087 0.32941 0.0
C289 C 0.96169 0.98803 0.33752 0.0
O290 O 0.03544 0.99188 0.36599 0.0
O291 O 0.02116 0.99011 0.382 0.0
C292 C 0.04004 0.98895 0.34608 0.0
C293 C 0.03641 0.98514 0.37542 0.0
Zn294 Zn 0.00368 0.00827 0.88002 0.0
Zn295 Zn 0.00942 0.00937 0.84051 0.0
Zn296 Zn 0.00597 0.00812 0.85976 0.0
C297 C 0.03937 0.0697 0.8457 0.0
C298 C 0.94755 0.97888 0.84449 0.0
O299 O 0.02648 0.98129 0.86559 0.0
O300 O 0.02302 0.98315 0.88237 0.0
C301 C 0.03933 0.06928 0.87397 0.0
O302 O 0.02953 0.05681 0.85447 0.0
O303 O 0.03563 0.05347 0.83795 0.0
O304 O 0.9658 0.99102 0.83711 0.0
O305 O 0.95808 0.9822 0.85364 0.0
O306 O 0.02893 0.05328 0.88195 0.0
O307 O 0.03262 0.05636 0.86514 0.0
O308 O 0.95685 0.98671 0.86426 0.0
O309 O 0.95839 0.98837 0.88111 0.0
C310 C 0.9431 0.98158 0.87295 0.0
O311 O 0.03238 0.9856 0.85502 0.0
O312 O 0.02776 0.98377 0.83825 0.0
C313 C 0.03064 0.9738 0.87459 0.0
C314 C 0.03762 0.97779 0.84622 0.0
Zn315 Zn 0.01157 0.01381 0.66561 0.0
Zn316 Zn 0.02202 0.02989 0.62672 0.0
Zn317 Zn 0.01668 0.01993 0.64633 0.0
C318 C -0.00067 0.96694 0.6297 0.0
C319 C 0.08039 0.06471 0.63493 0.0
O320 O -0.00744 0.04369 0.65224 0.0
O321 O 0.98636 0.03222 0.66865 0.0
C322 C 0.98329 0.95486 0.65792 0.0
O323 O -0.0017 0.97444 0.63903 0.0
O324 O 0.00981 0.98724 0.62283 0.0
O325 O 0.06583 0.0619 0.62682 0.0
O326 O 0.06632 0.04912 0.64293 0.0
O327 O -0.00846 0.96905 0.66627 0.0
O328 O -0.00989 0.96982 0.64945 0.0
O329 O 0.06379 0.04033 0.6532 0.0
O330 O 0.05479 0.03695 0.66978 0.0
C331 C 0.07357 0.04485 0.66248 0.0
O332 O 0.98909 0.04144 0.64159 0.0
O333 O -0.00764 0.04366 0.62477 0.0
C334 C 0.98275 0.04563 0.66115 0.0
C335 C 0.98147 0.04763 0.6329 0.0
Zn336 Zn 0.67273 0.34386 0.49764 0.0
Zn337 Zn 0.67899 0.34093 0.45813 0.0
Zn338 Zn 0.67604 0.34259 0.47828 0.0
C339 C 0.73915 0.36936 0.46526 0.0
C340 C 0.64354 0.2803 0.4648 0.0
O341 O 0.65036 0.36622 0.48232 0.0
O342 O 0.65485 0.37027 0.49907 0.0
C343 C 0.73451 0.37257 0.49351 0.0
O344 O 0.72496 0.36408 0.47385 0.0
O345 O 0.7243 0.362 0.457 0.0
O346 O 0.65479 0.29576 0.45676 0.0
O347 O 0.6493 0.29383 0.47353 0.0
O348 O 0.71648 0.36209 0.50102 0.0
O349 O 0.72376 0.36835 0.48438 0.0
O350 O 0.65309 0.29453 0.48429 0.0
O351 O 0.64644 0.29993 0.50064 0.0
C352 C 0.6434 0.28279 0.49322 0.0
O353 O 0.65556 0.36895 0.47172 0.0
O354 O 0.65858 0.36466 0.45504 0.0
C355 C 0.64532 0.37546 0.49087 0.0
C356 C 0.65111 0.3751 0.46255 0.0
Zn357 Zn 0.68329 0.35541 0.71156 0.0
Zn358 Zn 0.68312 0.35429 0.6723 0.0
Zn359 Zn 0.68291 0.35471 0.69154 0.0
C360 C 0.62216 0.32475 0.67729 0.0
C361 C 0.71516 0.41515 0.67702 0.0
O362 O 0.70703 0.33084 0.69693 0.0
O363 O 0.70424 0.33186 0.71374 0.0
C364 C 0.62173 0.32406 0.70577 0.0
O365 O 0.63441 0.33347 0.68618 0.0
O366 O 0.63891 0.32895 0.66961 0.0
O367 O 0.70248 0.39829 0.6694 0.0
O368 O 0.71106 0.40309 0.68597 0.0
O369 O 0.6383 0.33395 0.71363 0.0
O370 O 0.63426 0.32973 0.69685 0.0
O371 O 0.70672 0.40333 0.69664 0.0
O372 O 0.7071 0.4003 0.71345 0.0
C373 C 0.71379 0.41634 0.70546 0.0
O374 O 0.70394 0.32744 0.68629 0.0
O375 O 0.70828 0.33552 0.66967 0.0
C376 C 0.71301 0.3243 0.70582 0.0
C377 C 0.71262 0.3236 0.67744 0.0
Zn378 Zn 0.67433 0.34035 0.21602 0.0
Zn379 Zn 0.67508 0.343 0.17638 0.0
Zn380 Zn 0.6748 0.34124 0.19579 0.0
C381 C 0.63821 0.36553 0.18184 0.0
C382 C 0.65216 0.28214 0.18105 0.0
O383 O 0.65882 0.29354 0.20072 0.0
O384 O 0.66015 0.29617 0.21757 0.0
C385 C 0.73451 0.3828 0.20995 0.0
O386 O 0.64717 0.36198 0.19067 0.0
O387 O 0.64575 0.35685 0.17391 0.0
O388 O 0.66126 0.29989 0.17346 0.0
O389 O 0.65476 0.29315 0.1901 0.0
O390 O 0.71847 0.37129 0.21787 0.0
O391 O 0.72231 0.37363 0.20107 0.0
O392 O 0.64251 0.35618 0.20125 0.0
O393 O 0.64384 0.35348 0.21805 0.0
C394 C 0.63309 0.3588 0.21014 0.0
O395 O 0.72341 0.36895 0.19043 0.0
O396 O 0.71867 0.37254 0.17381 0.0
C397 C 0.65505 0.2807 0.20951 0.0
C398 C 0.73553 0.37876 0.18155 0.0
Zn399 Zn 0.67436 0.34841 1.00173 0.0
Zn400 Zn 0.67737 0.35183 0.9626 0.0
Zn401 Zn 0.67598 0.34983 0.98257 0.0
C402 C 0.64706 0.29006 0.96782 0.0
C403 C 0.73828 0.38224 0.969 0.0
O404 O 0.65454 0.37667 0.98804 0.0
O405 O 0.64877 0.36652 0.00454 0.0
C406 C 0.64441 0.288 0.99627 0.0
O407 O 0.65291 0.30186 0.97683 0.0
O408 O 0.65458 0.30716 0.96007 0.0
O409 O 0.72245 0.37393 0.96095 0.0
O410 O 0.72498 0.37529 0.97779 0.0
O411 O 0.65573 0.30424 0.00412 0.0
O412 O 0.64866 0.30085 0.98746 0.0
O413 O 0.72414 0.37054 0.98843 0.0
O414 O 0.71818 0.37364 0.00498 0.0
C415 C 0.7356 0.37832 0.99746 0.0
O416 O 0.65073 0.37305 0.97732 0.0
O417 O 0.65552 0.37456 0.96054 0.0
C418 C 0.64529 0.37962 0.99692 0.0
C419 C 0.64513 0.38028 0.96847 0.0
Zn420 Zn 0.35927 0.69202 0.84016 0.0
Zn421 Zn 0.33478 0.67759 0.79007 0.0
Zn422 Zn 0.34394 0.67822 0.80907 0.0
C423 C 0.39774 0.70288 0.79184 0.0
C424 C 0.3024 0.61631 0.79651 0.0
O425 O 0.32539 0.7022 0.81921 0.0
O426 O 0.33528 0.7127 0.83619 0.0
C427 C 0.3969 0.70565 0.82118 0.0
O428 O 0.38957 0.69864 0.8013 0.0
O429 O 0.37774 0.69605 0.785 0.0
O430 O 0.30819 0.63264 0.78862 0.0
O431 O 0.31375 0.6289 0.80518 0.0
O432 O 0.3727 0.68924 0.82617 0.0
O433 O 0.39375 0.70355 0.81155 0.0
O434 O 0.32345 0.63119 0.81536 0.0
O435 O 0.34168 0.6615 0.82816 0.0
C436 C 0.32817 0.6341 0.82495 0.0
O437 O 0.32236 0.70614 0.8077 0.0
O438 O 0.31559 0.70351 0.79104 0.0
C439 C 0.32276 0.7137 0.8278 0.0
C440 C 0.31329 0.71353 0.79962 0.0
Zn441 Zn 0.35202 0.68875 0.04271 0.0
Zn442 Zn 0.3488 0.69004 0.00317 0.0
Zn443 Zn 0.34984 0.68997 0.0227 0.0
C444 C 0.2881 0.66114 0.00897 0.0
C445 C 0.38096 0.75102 0.00863 0.0
O446 O 0.376 0.66742 0.02732 0.0
O447 O 0.37555 0.66766 0.04418 0.0
C448 C 0.29001 0.65583 0.0374 0.0
O449 O 0.30098 0.66853 0.01781 0.0
O450 O 0.3042 0.66639 1.00105 0.0
O451 O 0.36944 0.73445 1.00085 0.0
O452 O 0.37651 0.73863 0.01752 0.0
O453 O 0.3073 0.66457 0.04511 0.0
O454 O 0.30168 0.66361 0.02838 0.0
O455 O 0.37276 0.73807 0.02818 0.0
O456 O 0.3735 0.7335 0.04493 0.0
C457 C 0.37952 0.75022 0.03714 0.0
O458 O 0.37103 0.66357 0.01678 0.0
O459 O 0.37215 0.66957 1.00008 0.0
C460 C 0.3838 0.66112 0.03593 0.0
C461 C 0.37792 0.65852 0.00779 0.0
Zn462 Zn 0.34664 0.67564 0.54506 0.0
Zn463 Zn 0.35016 0.67571 0.50578 0.0
Zn464 Zn 0.34822 0.6751 0.52504 0.0
C465 C 0.38068 0.73627 0.51087 0.0
C466 C 0.28869 0.64597 0.51023 0.0
O467 O 0.36977 0.6489 0.53065 0.0
O468 O 0.3677 0.65231 0.54741 0.0
C469 C 0.38034 0.7365 0.53916 0.0
O470 O 0.37125 0.72362 0.51968 0.0
O471 O 0.37652 0.71982 0.50314 0.0
O472 O 0.30636 0.65772 0.50269 0.0
O473 O 0.29997 0.64926 0.51927 0.0
O474 O 0.37005 0.72055 0.54715 0.0
O475 O 0.37425 0.72346 0.53035 0.0
O476 O 0.29912 0.65279 0.5299 0.0
O477 O 0.30156 0.65389 0.54674 0.0
C478 C 0.28579 0.64692 0.53869 0.0
O479 O 0.37508 0.65322 0.52 0.0
O480 O 0.36827 0.64996 0.50332 0.0
C481 C 0.37494 0.64245 0.53968 0.0
C482 C 0.37952 0.64499 0.51115 0.0
Zn483 Zn 0.345 0.68759 0.29327 0.0
Zn484 Zn 0.33951 0.68158 0.3328 0.0
Zn485 Zn 0.3425 0.68462 0.31343 0.0
C486 C 0.40112 0.70974 0.32866 0.0
C487 C 0.30746 0.62175 0.32655 0.0
O488 O 0.31975 0.71018 0.30821 0.0
O489 O 0.32566 0.71292 0.29146 0.0
C490 C 0.40537 0.71437 0.30025 0.0
O491 O 0.39005 0.70336 0.31955 0.0
O492 O 0.38348 0.70454 0.33616 0.0
O493 O 0.31826 0.6369 0.33464 0.0
O494 O 0.31333 0.63565 0.31789 0.0
O495 O 0.39016 0.70713 0.29207 0.0
O496 O 0.3915 0.70798 0.30894 0.0
O497 O 0.31785 0.63716 0.30728 0.0
O498 O 0.31985 0.64303 0.29054 0.0
C499 C 0.31153 0.62565 0.29823 0.0
O500 O 0.32265 0.71272 0.31896 0.0
O501 O 0.31594 0.70207 0.33542 0.0
C502 C 0.31542 0.71873 0.29941 0.0
C503 C 0.31348 0.71591 0.32782 0.0
H504 H 0.23087 0.26878 0.2116 0.0
H505 H 0.20852 0.23469 0.19685 0.0
H506 H 0.22901 0.16983 0.21064 0.0
H507 H 0.25103 0.20343 0.2254 0.0
H508 H 0.23312 0.20567 0.18291 0.0
H509 H 0.13408 0.12323 0.20664 0.0
H510 H 0.15975 0.1623 0.21053 0.0
H511 H 0.17123 0.13416 0.21174 0.0
C512 C 0.23077 0.24734 0.21145 0.0
C513 C 0.24234 0.23861 0.21973 0.0
C514 C 0.21817 0.228 0.203 0.0
C515 C 0.21693 0.19968 0.20271 0.0
C516 C 0.22951 0.19148 0.21077 0.0
H517 H 0.1077 0.0354 0.16861 0.0
H518 H 0.15222 0.0752 0.17774 0.0
C519 C 0.24202 0.2107 0.21921 0.0
C520 C 0.20036 0.17754 0.1944 0.0
H521 H 0.1368 0.10791 0.18995 0.0
C522 C 0.21207 0.18423 0.18441 0.0
C523 C 0.17288 0.14972 0.19639 0.0
C524 C 0.15851 0.14191 0.20688 0.0
C525 C 0.19717 0.16341 0.17638 0.0
C526 C 0.16974 0.13549 0.17841 0.0
C527 C 0.15811 0.12906 0.1884 0.0
C528 C 0.15125 0.11295 0.17037 0.0
C529 C 0.21106 0.17124 0.16585 0.0
C530 C 0.13747 0.12095 0.1626 0.0
C531 C 0.11244 0.09808 0.15717 0.0
C532 C 0.10065 0.06711 0.15962 0.0
C533 C 0.11664 0.05917 0.16653 0.0
C534 C 0.14191 0.08192 0.1718 0.0
H535 H 0.23603 0.18834 0.16612 0.0
H536 H 0.20765 0.15048 0.16179 0.0
H537 H 0.19971 0.18131 0.16137 0.0
H538 H 0.14387 0.14464 0.16145 0.0
H539 H 0.10008 0.1047 0.15201 0.0
H540 H 0.75962 0.98391 0.21302 0.0
H541 H 0.79186 -0.0044 0.19775 0.0
H542 H 0.85705 0.08364 0.21037 0.0
H543 H 0.82536 0.07207 0.22566 0.0
H544 H 0.81754 0.04731 0.18322 0.0
H545 H 0.90572 0.03876 0.20592 0.0
H546 H 0.86709 0.02441 0.21049 0.0
H547 H 0.89463 0.06476 0.21094 0.0
C548 C 0.78074 0.00582 0.21251 0.0
C549 C 0.79017 0.02689 0.22061 0.0
C550 C 0.79901 0.01253 0.20376 0.0
C551 C 0.82693 0.04036 0.20298 0.0
C552 C 0.83573 0.06189 0.21087 0.0
H553 H 0.98687 0.09569 0.16641 0.0
H554 H 0.94795 0.10133 0.17562 0.0
C555 C 0.81761 0.05519 0.21962 0.0
C556 C 0.84814 0.046 0.19435 0.0
H557 H 0.9182 0.05491 0.18892 0.0
C558 C 0.83962 0.04908 0.18442 0.0
C559 C 0.8768 0.04812 0.19596 0.0
C560 C 0.88661 0.04359 0.20638 0.0
C561 C 0.85937 0.05471 0.17607 0.0
C562 C 0.8881 0.05693 0.17772 0.0
C563 C 0.89642 0.05378 0.18766 0.0
C564 C 0.90945 0.06029 0.16934 0.0
C565 C 0.84951 0.05851 0.1656 0.0
C566 C 0.90062 0.03687 0.16209 0.0
C567 C 0.92294 0.03414 0.1566 0.0
C568 C 0.95422 0.05443 0.1585 0.0
C569 C 0.96284 0.07997 0.16476 0.0
C570 C 0.94059 0.08302 0.17009 0.0
H571 H 0.832 0.06558 0.16602 0.0
H572 H 0.8694 0.07572 0.16106 0.0
H573 H 0.83915 0.03626 0.16152 0.0
H574 H 0.87684 0.0188 0.16147 0.0
H575 H 0.91582 0.01397 0.15194 0.0
H576 H 0.02492 0.78023 0.21725 0.0
H577 H 0.02195 0.80113 0.20066 0.0
H578 H 0.94885 0.81353 0.21208 0.0
H579 H 0.95121 0.79237 0.22846 0.0
H580 H 0.93619 0.78703 0.19295 0.0
H581 H 0.05305 0.89083 0.19406 0.0
H582 H 0.05102 0.85449 0.19531 0.0
H583 H 0.03547 0.86734 0.20517 0.0
C584 C 0.00836 0.78759 0.21623 0.0
C585 C 0.9884 0.78469 0.22422 0.0
C586 C 0.00671 0.79957 0.20675 0.0
C587 C 0.9853 0.80911 0.20513 0.0
C588 C 0.96547 0.80623 0.21311 0.0
H589 H 0.93479 0.9149 0.17246 0.0
H590 H 0.93407 0.87192 0.18109 0.0
C591 C 0.96698 0.7942 0.22251 0.0
C592 C 0.98327 0.82249 0.19526 0.0
H593 H 0.02114 0.88676 0.18052 0.0
C594 C 0.95494 0.80861 0.19013 0.0
C595 C 0.00778 0.8505 0.19151 0.0
C596 C 0.03852 0.86689 0.1968 0.0
C597 C 0.95001 0.82274 0.18171 0.0
C598 C 0.97391 0.85164 0.17837 0.0
C599 C 0.00284 0.86453 0.18306 0.0
C600 C 0.96828 0.87124 0.1713 0.0
C601 C 0.91894 0.80706 0.17666 0.0
C602 C 0.98668 0.88434 0.1626 0.0
C603 C 0.9867 0.90876 0.15752 0.0
C604 C 0.9689 0.9208 0.16126 0.0
C605 C 0.94848 0.90582 0.16936 0.0
C606 C 0.9481 0.88123 0.17432 0.0
H607 H 0.90739 0.78177 0.17752 0.0
H608 H 0.90418 0.81469 0.18037 0.0
H609 H 0.92079 0.81281 0.16843 0.0
H610 H 0.00255 0.87712 0.16018 0.0
H611 H 0.00301 0.92023 0.1514 0.0
H612 H 0.16815 0.22865 0.26919 0.0
H613 H 0.14528 0.20376 0.2853 0.0
H614 H 0.23359 0.2219 0.296 0.0
H615 H 0.25702 0.24709 0.27972 0.0
H616 H 0.18558 0.16118 0.29919 0.0
H617 H 0.15221 0.24328 0.31322 0.0
H618 H 0.13977 0.23129 0.30038 0.0
H619 H 0.1802 0.2527 0.3032 0.0
C620 C 0.18291 0.22752 0.27494 0.0
C621 C 0.21454 0.24 0.27313 0.0
C622 C 0.16976 0.21349 0.28421 0.0
C623 C 0.18782 0.21161 0.29195 0.0
C624 C 0.21931 0.2235 0.29017 0.0
H625 H 0.09528 0.11896 0.34988 0.0
H626 H 0.13356 0.15927 0.33859 0.0
C627 C 0.23263 0.23777 0.28085 0.0
C628 C 0.17298 0.19547 0.3016 0.0
H629 H 0.124 0.19203 0.32028 0.0
C630 C 0.17271 0.1683 0.30394 0.0
C631 C 0.15645 0.20492 0.30788 0.0
C632 C 0.15739 0.23483 0.30611 0.0
C633 C 0.15453 0.14923 0.31193 0.0
C634 C 0.13603 0.15744 0.31766 0.0
C635 C 0.13799 0.18566 0.31581 0.0
C636 C 0.11192 0.13522 0.32464 0.0
C637 C 0.15417 0.11969 0.31391 0.0
C638 C 0.08663 0.10915 0.32051 0.0
C639 C 0.06482 0.0865 0.32687 0.0
C640 C 0.06776 0.08939 0.33753 0.0
C641 C 0.09227 0.11628 0.3417 0.0
C642 C 0.11423 0.13915 0.33527 0.0
H643 H 0.17497 0.12039 0.31078 0.0
H644 H 0.15266 0.11478 0.32221 0.0
H645 H 0.13374 0.10053 0.31018 0.0
H646 H 0.08418 0.10594 0.31233 0.0
H647 H 0.04606 0.06623 0.32341 0.0
H648 H 0.77806 0.02832 0.28227 0.0
H649 H 0.79953 0.02661 0.2989 0.0
H650 H 0.82689 0.96511 0.28654 0.0
H651 H 0.80573 0.96657 0.27005 0.0
H652 H 0.79295 0.94632 0.30596 0.0
H653 H 0.89308 0.06572 0.30603 0.0
H654 H 0.85543 0.05968 0.30339 0.0
H655 H 0.87352 0.0472 0.29438 0.0
C656 C 0.78894 0.0147 0.28308 0.0
C657 C 0.79018 -0.00237 0.27479 0.0
C658 C 0.80112 0.0137 0.29259 0.0
C659 C 0.81471 -0.00434 0.29394 0.0
C660 C 0.81631 0.97902 0.28567 0.0
H661 H 0.92096 0.94463 0.32469 0.0
H662 H 0.87682 0.9441 0.31707 0.0
C663 C 0.8043 0.98004 0.27621 0.0
C664 C 0.82759 -0.00625 0.30389 0.0
H665 H 0.89188 0.03213 0.31851 0.0
C666 C 0.81424 0.96526 0.30886 0.0
C667 C 0.85511 0.01856 0.30773 0.0
C668 C 0.87036 0.04957 0.30264 0.0
C669 C 0.82875 0.96041 0.31718 0.0
C670 C 0.85764 0.98449 0.32046 0.0
C671 C 0.86973 0.01364 0.316 0.0
C672 C 0.8782 0.97887 0.32705 0.0
C673 C 0.81354 0.92921 0.32211 0.0
C674 C 0.89304 -0.00235 0.33551 0.0
C675 C 0.91837 -0.00219 0.33994 0.0
C676 C 0.92946 0.97961 0.33583 0.0
C677 C 0.91277 0.95876 0.32803 0.0
C678 C 0.88741 0.9584 0.32369 0.0
H679 H 0.78812 0.91808 0.32175 0.0
H680 H 0.82016 0.91436 0.31793 0.0
H681 H 0.82053 0.93056 0.33021 0.0
H682 H 0.88643 0.01373 0.33821 0.0
H683 H 0.93104 0.01436 0.34587 0.0
H684 H 0.98386 0.75874 0.28797 0.0
H685 H -0.00925 0.78918 0.30331 0.0
H686 H 0.04993 0.87195 0.28655 0.0
H687 H 0.04383 0.84169 0.2713 0.0
H688 H 0.07388 0.87132 0.30506 0.0
H689 H 0.95191 0.84032 0.30947 0.0
H690 H 0.95818 0.80844 0.30928 0.0
H691 H 0.96608 0.83169 0.29806 0.0
C692 C -0.00182 0.78345 0.28754 0.0
C693 C 0.01317 0.79782 0.2784 0.0
C694 C 0.00201 0.80083 0.29631 0.0
C695 C 0.02053 0.83291 0.29606 0.0
C696 C 0.0355 0.84724 0.28694 0.0
H697 H 0.0643 -0.00588 0.32733 0.0
H698 H 0.06205 0.95332 0.31678 0.0
C699 C 0.0319 0.82991 0.27821 0.0
C700 C 0.02478 0.85184 0.30525 0.0
H701 H 0.98684 0.87364 0.32172 0.0
C702 C 0.05479 0.8716 0.30876 0.0
C703 C -0.00014 0.85209 0.31013 0.0
C704 C 0.9672 0.83222 0.30652 0.0
C705 C 0.06063 0.89227 0.31676 0.0
C706 C 0.03586 0.89329 0.32136 0.0
C707 C 0.00575 0.87259 0.31821 0.0
C708 C 0.04091 0.91832 0.3284 0.0
C709 C 0.09333 0.91344 0.32008 0.0
C710 C 0.03016 0.91226 0.33851 0.0
C711 C 0.03174 0.93576 0.34463 0.0
C712 C 0.0434 0.96536 0.34059 0.0
C713 C 0.05513 0.97149 0.33062 0.0
C714 C 0.05398 0.94824 0.32459 0.0
H715 H 0.10852 0.90443 0.31787 0.0
H716 H 0.10215 0.93607 0.31636 0.0
H717 H 0.09465 0.91695 0.32846 0.0
H718 H 0.0198 0.88922 0.34154 0.0
H719 H 0.02235 0.93042 0.35228 0.0
H720 H 0.78453 0.77325 0.78113 0.0
H721 H 0.80075 0.79312 0.79849 0.0
H722 H 0.82019 0.88238 0.78855 0.0
H723 H 0.80417 0.863 0.77133 0.0
H724 H 0.85804 0.84216 0.80504 0.0
H725 H 0.76494 0.86591 0.81364 0.0
H726 H 0.76249 0.84088 0.80339 0.0
H727 H 0.78317 0.8818 0.80163 0.0
C728 C 0.79236 0.79714 0.78264 0.0
C729 C 0.79293 0.81647 0.77482 0.0
C730 C 0.80146 0.80839 0.79257 0.0
C731 C 0.81089 0.83902 0.79487 0.0
C732 C 0.81217 0.85846 0.78703 0.0
H733 H 0.91275 0.98721 0.83075 0.0
H734 H 0.87074 0.9462 0.82117 0.0
C735 C 0.80327 0.84735 0.77714 0.0
C736 C 0.82108 0.85159 0.80528 0.0
H737 H 0.81162 0.89453 0.82343 0.0
C738 C 0.84748 0.85291 0.80923 0.0
C739 C 0.80709 0.86541 0.81075 0.0
C740 C 0.77766 0.86318 0.80719 0.0
C741 C 0.86186 0.87001 0.81803 0.0
C742 C 0.84906 0.8857 0.82312 0.0
C743 C 0.82139 0.88249 0.81956 0.0
C744 C 0.86703 0.90978 0.83081 0.0
C745 C 0.89197 0.87316 0.82131 0.0
C746 C 0.8771 0.90316 0.83993 0.0
C747 C 0.90109 0.92682 0.84551 0.0
C748 C 0.91519 0.95716 0.84196 0.0
C749 C 0.90225 0.96398 0.83363 0.0
C750 C 0.87832 0.94049 0.82812 0.0
H751 H 0.90065 0.86276 0.81575 0.0
H752 H 0.90971 0.8977 0.82227 0.0
H753 H 0.88888 0.86156 0.82876 0.0
H754 H 0.86822 0.87962 0.84226 0.0
H755 H 0.91077 0.92097 0.85188 0.0
H756 H 0.26285 0.03845 0.79205 0.0
H757 H 0.23017 0.02649 0.80721 0.0
H758 H 0.15538 0.95156 0.79116 0.0
H759 H 0.18768 0.96342 0.77601 0.0
H760 H 0.14108 0.99324 0.80017 0.0
H761 H 0.19751 0.9545 0.8279 0.0
H762 H 0.22218 0.99035 0.82159 0.0
H763 H 0.204 0.95554 0.81431 0.0
C764 C 0.2395 0.01931 0.79178 0.0
C765 C 0.2278 0.00199 0.78281 0.0
C766 C 0.22097 0.01231 0.80048 0.0
C767 C 0.19051 0.98784 0.80036 0.0
C768 C 0.17892 0.97038 0.79144 0.0
H769 H 0.02811 0.92731 0.83602 0.0
H770 H 0.06832 0.92482 0.82642 0.0
C771 C 0.19738 0.97729 0.78277 0.0
C772 C 0.16968 0.98206 0.80913 0.0
H773 H 0.15648 0.9602 0.83418 0.0
C774 C 0.14438 0.98587 0.80759 0.0
C775 C 0.17425 0.97274 0.81882 0.0
C776 C 0.20081 0.96778 0.8208 0.0
C777 C 0.12356 0.9808 0.81546 0.0
C778 C 0.12769 0.9709 0.82511 0.0
C779 C 0.15321 0.96742 0.82674 0.0
C780 C 0.10566 0.965 0.8335 0.0
C781 C 0.0975 0.98659 0.8134 0.0
C782 C 0.11364 0.98651 0.84138 0.0
C783 C 0.09062 0.98743 0.84707 0.0
C784 C 0.05958 0.96716 0.84479 0.0
C785 C 0.05192 0.94304 0.83794 0.0
C786 C 0.07488 0.94179 0.83239 0.0
H787 H 0.10151 0.00048 0.8064 0.0
H788 H 0.07593 0.96434 0.81235 0.0
H789 H 0.09418 -0.00136 0.81991 0.0
H790 H 0.1373 0.00457 0.84236 0.0
H791 H 0.09704 0.00646 0.85223 0.0
H792 H 0.97614 0.23339 0.79261 0.0
H793 H 0.98764 0.21727 0.8088 0.0
H794 H 0.06257 0.21343 0.79448 0.0
H795 H 0.05165 0.23009 0.77837 0.0
H796 H 0.98547 0.16437 0.81264 0.0
H797 H 0.10317 0.25888 0.82038 0.0
H798 H 0.07862 0.26202 0.81106 0.0
H799 H 0.10017 0.24371 0.80781 0.0
C800 C -0.00479 0.22932 0.79293 0.0
C801 C 0.01297 0.23297 0.7842 0.0
C802 C 0.00184 0.22026 0.8022 0.0
C803 C 0.02642 0.21484 0.80293 0.0
C804 C 0.04411 0.21842 0.79421 0.0
H805 H 0.0804 0.10735 0.83161 0.0
H806 H 0.08069 0.15137 0.82399 0.0
C807 C 0.03758 0.22757 0.78496 0.0
C808 C 0.03181 0.20252 0.81248 0.0
H809 H 0.08853 0.21017 0.82851 0.0
C810 C 0.00777 0.17478 0.81629 0.0
C811 C 0.06089 0.21623 0.81727 0.0
C812 C 0.08707 0.24703 0.81398 0.0
C813 C 0.0126 0.1591 0.82421 0.0
C814 C 0.04224 0.17183 0.82858 0.0
C815 C 0.06582 0.20052 0.82519 0.0
C816 C 0.05008 0.15304 0.8352 0.0
C817 C 0.98651 0.1279 0.82729 0.0
C818 C 0.03496 0.14112 0.84453 0.0
C819 C 0.03485 0.11584 0.84894 0.0
C820 C 0.04978 0.10235 0.844 0.0
C821 C 0.06842 0.11714 0.8355 0.0
C822 C 0.06859 0.14233 0.83113 0.0
H823 H 0.96626 0.11972 0.82222 0.0
H824 H -0.00594 0.11076 0.82717 0.0
H825 H 0.97913 0.129 0.83518 0.0
H826 H 0.02101 0.14951 0.84789 0.0
H827 H 0.02036 0.10493 0.85552 0.0
H828 H 0.76013 0.78949 0.71068 0.0
H829 H 0.7859 0.80419 0.69411 0.0
H830 H 0.86632 0.80879 0.70727 0.0
H831 H 0.84049 0.7935 0.72381 0.0
H832 H 0.83684 0.85707 0.68987 0.0
H833 H 0.85815 0.76274 0.68116 0.0
H834 H 0.83128 0.75962 0.69087 0.0
H835 H 0.87173 0.77818 0.69362 0.0
C836 C 0.78322 0.7934 0.71003 0.0
C837 C 0.79834 0.79046 0.71857 0.0
C838 C 0.79783 0.80161 0.70054 0.0
C839 C 0.82778 0.80692 0.69938 0.0
C840 C 0.84287 0.80388 0.70789 0.0
H841 H 0.98766 0.91471 0.67029 0.0
H842 H 0.94362 0.86878 0.67717 0.0
C843 C 0.82823 0.79555 0.71738 0.0
C844 C 0.84458 0.81903 0.68963 0.0
H845 H 0.89187 0.81136 0.67276 0.0
C846 C 0.8482 0.84667 0.68595 0.0
C847 C 0.85923 0.80531 0.68449 0.0
C848 C 0.85463 0.77464 0.68768 0.0
C849 C 0.86815 0.86236 0.67783 0.0
C850 C 0.88447 0.84967 0.6731 0.0
C851 C 0.87923 0.82096 0.67634 0.0
C852 C 0.91119 0.86877 0.66642 0.0
C853 C 0.87349 0.89363 0.67499 0.0
C854 C 0.90812 0.88216 0.65744 0.0
C855 C 0.93351 0.9086 0.65346 0.0
C856 C 0.96193 0.92158 0.65846 0.0
C857 C 0.96584 0.90521 0.66637 0.0
C858 C 0.94063 0.87894 0.67032 0.0
H859 H 0.86193 0.90167 0.68032 0.0
H860 H 0.89844 0.91081 0.67494 0.0
H861 H 0.86439 0.89274 0.66723 0.0
H862 H 0.88565 0.87417 0.65417 0.0
H863 H 0.92999 0.92081 0.64732 0.0
H864 H 0.22221 0.06534 0.7336 0.0
H865 H 0.20271 0.06837 0.71697 0.0
H866 H 0.23029 0.00713 0.70451 0.0
H867 H 0.24988 0.00369 0.7213 0.0
H868 H 0.2365 0.08905 0.69835 0.0
H869 H 0.13928 0.96849 0.69591 0.0
H870 H 0.15822 0.98523 0.70782 0.0
H871 H 0.17697 0.97456 0.69844 0.0
C872 C 0.22402 0.05226 0.72738 0.0
C873 C 0.23761 0.03418 0.72883 0.0
C874 C 0.21295 0.05417 0.71784 0.0
C875 C 0.21501 0.038 0.7095 0.0
C876 C 0.2282 0.01959 0.71088 0.0
H877 H 0.10913 0.02328 0.65477 0.0
H878 H 0.15253 0.02473 0.66372 0.0
C879 C 0.23936 0.01763 0.72048 0.0
C880 C 0.20315 0.04086 0.69945 0.0
H881 H 0.14226 0.0027 0.68336 0.0
C882 C 0.21621 0.07004 0.69495 0.0
C883 C 0.17693 0.01601 0.69495 0.0
C884 C 0.16179 0.98428 0.69951 0.0
C885 C 0.20272 0.07537 0.68644 0.0
C886 C 0.17518 0.05102 0.68241 0.0
C887 C 0.16341 0.02139 0.68644 0.0
C888 C 0.15542 0.05643 0.67535 0.0
C889 C 0.2175 0.10729 0.68207 0.0
C890 C 0.14361 0.07485 0.67861 0.0
C891 C 0.11895 0.07401 0.67353 0.0
C892 C 0.10569 0.05484 0.66506 0.0
C893 C 0.11938 0.03873 0.66116 0.0
C894 C 0.14394 0.03929 0.66634 0.0
H895 H 0.24279 0.11972 0.68319 0.0
H896 H 0.21259 0.10688 0.6738 0.0
H897 H 0.20841 0.12035 0.68608 0.0
H898 H 0.15156 0.08779 0.68564 0.0
H899 H 0.10851 0.08627 0.67677 0.0
H900 H 0.9531 0.16221 0.73262 0.0
H901 H 0.95154 0.14238 0.71557 0.0
H902 H 0.01578 0.23358 0.70494 0.0
H903 H 0.01777 0.25382 0.72211 0.0
H904 H 0.93394 0.15937 0.69703 0.0
H905 H 0.05406 0.18202 0.69577 0.0
H906 H 0.0358 0.18223 0.70759 0.0
H907 H 0.04854 0.21356 0.69881 0.0
C908 C 0.96716 0.17814 0.72671 0.0
C909 C 0.98568 0.20965 0.72877 0.0
C910 C 0.96608 0.16674 0.71694 0.0
C911 C 0.98353 0.18647 0.70899 0.0
C912 C 0.00234 0.21791 0.71099 0.0
H913 H 0.00588 0.10359 0.65375 0.0
H914 H 0.00286 0.14462 0.66269 0.0
C915 C 0.00347 0.22941 0.72081 0.0
C916 C 0.98177 0.17353 0.69869 0.0
H917 H 0.0214 0.15342 0.68246 0.0
C918 C 0.95322 0.15854 0.69373 0.0
C919 C 0.00701 0.17284 0.69432 0.0
C920 C 0.03811 0.18834 0.69937 0.0
C921 C 0.94878 0.14131 0.68484 0.0
C922 C 0.97339 0.13859 0.68092 0.0
C923 C 0.00252 0.15553 0.68544 0.0
C924 C 0.96846 0.11427 0.67353 0.0
C925 C 0.91748 0.12527 0.67995 0.0
C926 C 0.9489 0.08351 0.67627 0.0
C927 C 0.95067 0.06022 0.67121 0.0
C928 C 0.97203 0.06725 0.66332 0.0
C929 C 0.989 0.09756 0.65976 0.0
C930 C 0.98748 0.12103 0.66491 0.0
H931 H 0.90569 0.13857 0.68105 0.0
H932 H 0.91896 0.12175 0.67166 0.0
H933 H 0.90314 0.10258 0.68362 0.0
H934 H 0.93443 0.07764 0.68298 0.0
H935 H 0.93747 0.03703 0.67413 0.0
H936 H 0.90479 0.52154 0.56398 0.0
H937 H 0.88247 0.48838 0.54912 0.0
H938 H 0.88624 0.56344 0.53235 0.0
H939 H 0.9087 0.59692 0.5472 0.0
H940 H 0.8261 0.47688 0.54008 0.0
H941 H 0.92261 0.52568 0.51222 0.0
H942 H 0.9285 0.53236 0.52579 0.0
H943 H 0.91424 0.55235 0.51842 0.0
C944 C 0.90108 0.5311 0.55712 0.0
C945 C 0.90836 0.56182 0.55678 0.0
C946 C 0.88846 0.51215 0.54862 0.0
C947 C 0.88315 0.52359 0.5396 0.0
C948 C 0.89074 0.55435 0.53917 0.0
H949 H 0.77005 0.43172 0.48749 0.0
H950 H 0.81309 0.47069 0.49755 0.0
C951 C 0.90327 0.57334 0.5477 0.0
C952 C 0.86693 0.50245 0.53103 0.0
H953 H 0.8743 0.48595 0.50626 0.0
C954 C 0.83669 0.47878 0.53271 0.0
C955 C 0.88076 0.50527 0.52139 0.0
C956 C 0.9134 0.53014 0.5193 0.0
C957 C 0.81974 0.45786 0.52501 0.0
C958 C 0.8337 0.46015 0.51542 0.0
C959 C 0.86386 0.48407 0.51365 0.0
C960 C 0.81641 0.43788 0.50722 0.0
C961 C 0.78675 0.43376 0.52716 0.0
C962 C 0.80589 0.40668 0.5088 0.0
C963 C 0.78115 0.38453 0.50317 0.0
C964 C 0.76717 0.39334 0.49574 0.0
C965 C 0.78071 0.42443 0.49312 0.0
C966 C 0.80517 0.4467 0.4989 0.0
H967 H 0.7775 0.43961 0.53394 0.0
H968 H 0.77187 0.43076 0.52053 0.0
H969 H 0.78534 0.41151 0.52868 0.0
H970 H 0.81457 0.39946 0.5151 0.0
H971 H 0.77097 0.36066 0.50533 0.0
H972 H 0.42469 0.32274 0.54502 0.0
H973 H 0.44937 0.3327 0.52826 0.0
H974 H 0.53455 0.40264 0.54141 0.0
H975 H 0.50981 0.39348 0.55811 0.0
H976 H 0.52266 0.4199 0.52264 0.0
H977 H 0.50773 0.30317 0.52073 0.0
H978 H 0.47307 0.30448 0.52213 0.0
H979 H 0.50079 0.3181 0.53226 0.0
C980 C 0.44869 0.34023 0.54434 0.0
C981 C 0.46544 0.35705 0.55291 0.0
C982 C 0.46274 0.34588 0.53476 0.0
C983 C 0.49391 0.3681 0.53361 0.0
C984 C 0.51046 0.38539 0.54212 0.0
H985 H 0.65162 0.42113 0.50314 0.0
H986 H 0.60901 0.42455 0.51026 0.0
C987 C 0.49635 0.37999 0.55167 0.0
C988 C 0.50999 0.37242 0.52373 0.0
H989 H 0.5356 0.3372 0.50766 0.0
C990 C 0.52513 0.4017 0.51926 0.0
C991 C 0.51291 0.34859 0.51925 0.0
C992 C 0.498 0.31687 0.52385 0.0
C993 C 0.54443 0.40817 0.51075 0.0
C994 C 0.54889 0.38484 0.5067 0.0
C995 C 0.532 0.35506 0.51072 0.0
C996 C 0.57505 0.39156 0.49988 0.0
C997 C 0.56069 0.44017 0.50642 0.0
C998 C 0.57066 0.37338 0.49122 0.0
C999 C 0.59529 0.37157 0.48708 0.0
C1000 C 0.62429 0.38748 0.4917 0.0
C1001 C 0.62941 0.40865 0.49945 0.0
C1002 C 0.60499 0.4107 0.50351 0.0
H1003 H 0.54646 0.45106 0.50732 0.0
H1004 H 0.58241 0.45437 0.51065 0.0
H1005 H 0.56622 0.44026 0.49822 0.0
H1006 H 0.54774 0.35836 0.48831 0.0
H1007 H 0.59077 0.35496 0.48113 0.0
H1008 H 0.69354 0.11421 0.55252 0.0
H1009 H 0.6893 0.13294 0.53566 0.0
H1010 H 0.6242 0.156 0.54781 0.0
H1011 H 0.62804 0.13738 0.56451 0.0
H1012 H 0.60552 0.12198 0.52914 0.0
H1013 H 0.72393 0.22345 0.52702 0.0
H1014 H 0.71992 0.18672 0.52969 0.0
H1015 H 0.70728 0.20415 0.53891 0.0
C1016 C 0.67857 0.12356 0.55161 0.0
C1017 C 0.6612 0.12431 0.5599 0.0
C1018 C 0.67615 0.13422 0.54197 0.0
C1019 C 0.65644 0.14589 0.54048 0.0
C1020 C 0.63942 0.14694 0.54876 0.0
H1021 H 0.60065 0.2451 0.50688 0.0
H1022 H 0.60116 0.20327 0.51583 0.0
C1023 C 0.6418 0.13638 0.55834 0.0
C1024 C 0.65311 0.15723 0.53039 0.0
H1025 H 0.68932 0.21846 0.5143 0.0
C1026 C 0.624 0.14278 0.52578 0.0
C1027 C 0.67728 0.18413 0.52593 0.0
C1028 C 0.70889 0.20075 0.53062 0.0
C1029 C 0.618 0.15546 0.51718 0.0
C1030 C 0.64157 0.1836 0.51318 0.0
C1031 C 0.67123 0.19686 0.51735 0.0
C1032 C 0.63507 0.20228 0.50596 0.0
C1033 C 0.5862 0.13907 0.51266 0.0
C1034 C 0.65289 0.21487 0.49711 0.0
C1035 C 0.65235 0.23878 0.49188 0.0
C1036 C 0.63451 0.25082 0.4956 0.0
C1037 C 0.61446 0.23612 0.50382 0.0
C1038 C 0.61475 0.21212 0.50895 0.0
H1039 H 0.57513 0.11388 0.51373 0.0
H1040 H 0.57177 0.14666 0.51662 0.0
H1041 H 0.58664 0.14405 0.5044 0.0
H1042 H 0.66882 0.20773 0.49468 0.0
H1043 H 0.66831 0.24994 0.48565 0.0
H1044 H 0.84443 0.5688 0.60739 0.0
H1045 H 0.82358 0.55117 0.62436 0.0
H1046 H 0.9112 0.56608 0.63455 0.0
H1047 H 0.93261 0.58398 0.6174 0.0
H1048 H 0.86029 0.50866 0.64016 0.0
H1049 H 0.83916 0.60229 0.65033 0.0
H1050 H 0.82419 0.58669 0.63798 0.0
H1051 H 0.86496 0.60569 0.64017 0.0
C1052 C 0.85947 0.56846 0.6132 0.0
C1053 C 0.89032 0.57794 0.61099 0.0
C1054 C 0.84751 0.55862 0.62296 0.0
C1055 C 0.86601 0.55806 0.6308 0.0
C1056 C 0.89665 0.5668 0.62864 0.0
H1057 H 0.77231 0.44876 0.68543 0.0
H1058 H 0.81628 0.49201 0.67689 0.0
C1059 C 0.90879 0.57687 0.61882 0.0
C1060 C 0.85225 0.54642 0.64101 0.0
H1061 H 0.80729 0.55376 0.65896 0.0
C1062 C 0.84945 0.51892 0.64447 0.0
C1063 C 0.83829 0.55999 0.64664 0.0
C1064 C 0.84206 0.59048 0.64365 0.0
C1065 C 0.83066 0.50313 0.65286 0.0
C1066 C 0.81471 0.51554 0.65802 0.0
C1067 C 0.81949 0.54426 0.65502 0.0
C1068 C 0.78891 0.49648 0.66508 0.0
C1069 C 0.826 0.47206 0.65557 0.0
C1070 C 0.75888 0.4866 0.66182 0.0
C1071 C 0.73391 0.46223 0.66671 0.0
C1072 C 0.7385 0.44741 0.67498 0.0
C1073 C 0.76814 0.45988 0.67909 0.0
C1074 C 0.7933 0.4843 0.67413 0.0
H1075 H 0.83721 0.4642 0.65003 0.0
H1076 H 0.83587 0.47314 0.66321 0.0
H1077 H 0.80112 0.4547 0.65588 0.0
H1078 H 0.75489 0.49581 0.65492 0.0
H1079 H 0.71127 0.45306 0.66341 0.0
H1080 H 0.45503 0.36507 0.61572 0.0
H1081 H 0.47182 0.36265 0.63306 0.0
H1082 H 0.50222 0.30156 0.62266 0.0
H1083 H 0.4856 0.3037 0.60541 0.0
H1084 H 0.46229 0.28188 0.64093 0.0
H1085 H 0.56261 0.40087 0.64334 0.0
H1086 H 0.52619 0.3954 0.63922 0.0
H1087 H 0.54663 0.38297 0.63123 0.0
C1088 C 0.46567 0.35145 0.61709 0.0
C1089 C 0.46899 0.33462 0.60914 0.0
C1090 C 0.47515 0.35004 0.62702 0.0
C1091 C 0.48815 0.33184 0.62913 0.0
C1092 C 0.49205 0.31558 0.62119 0.0
H1093 H 0.58358 0.27947 0.66467 0.0
H1094 H 0.54072 0.27813 0.6558 0.0
C1095 C 0.48268 0.317 0.61131 0.0
C1096 C 0.49778 0.32928 0.63957 0.0
H1097 H 0.55672 0.36678 0.65637 0.0
C1098 C 0.48259 0.30061 0.64444 0.0
C1099 C 0.5239 0.35384 0.6442 0.0
C1100 C 0.541 0.38506 0.63927 0.0
C1101 C 0.49402 0.29532 0.65348 0.0
C1102 C 0.52171 0.31914 0.65763 0.0
C1103 C 0.53547 0.34848 0.6532 0.0
C1104 C 0.53999 0.31306 0.66514 0.0
C1105 C 0.47696 0.26393 0.65828 0.0
C1106 C 0.55295 0.33197 0.67372 0.0
C1107 C 0.57752 0.33254 0.67888 0.0
C1108 C 0.5897 0.31467 0.67536 0.0
C1109 C 0.57444 0.29332 0.66756 0.0
C1110 C 0.54983 0.29253 0.66248 0.0
H1111 H 0.45182 0.25326 0.65708 0.0
H1112 H 0.48429 0.24893 0.65459 0.0
H1113 H 0.48154 0.26484 0.66658 0.0
H1114 H 0.54581 0.34808 0.67588 0.0
H1115 H 0.58914 0.34944 0.68481 0.0
H1116 H 0.73104 0.17572 0.60742 0.0
H1117 H 0.74109 0.2073 0.62263 0.0
H1118 H 0.66702 0.13065 0.63839 0.0
H1119 H 0.65681 0.0987 0.62318 0.0
H1120 H 0.69585 0.21814 0.63155 0.0
H1121 H 0.73977 0.1661 0.65919 0.0
H1122 H 0.74007 0.1607 0.64557 0.0
H1123 H 0.70479 0.14031 0.6526 0.0
C1124 C 0.71699 0.16546 0.61414 0.0
C1125 C 0.69301 0.13474 0.61408 0.0
C1126 C 0.72286 0.18352 0.62283 0.0
C1127 C 0.70509 0.17118 0.63167 0.0
C1128 C 0.68138 0.14042 0.63171 0.0
H1129 H 0.68396 0.26411 0.68347 0.0
H1130 H 0.68589 0.22372 0.67373 0.0
C1131 C 0.67541 0.12231 0.62298 0.0
C1132 C 0.70966 0.19149 0.64044 0.0
H1133 H 0.73253 0.2061 0.66536 0.0
C1134 C 0.70392 0.21553 0.63893 0.0
C1135 C 0.71989 0.18778 0.65009 0.0
C1136 C 0.72673 0.16247 0.65201 0.0
C1137 C 0.70818 0.23606 0.64677 0.0
C1138 C 0.71918 0.23293 0.65635 0.0
C1139 C 0.72443 0.20857 0.65797 0.0
C1140 C 0.725 0.25519 0.6646 0.0
C1141 C 0.70064 0.26091 0.64475 0.0
C1142 C 0.74787 0.28595 0.66323 0.0
C1143 C 0.74656 0.30894 0.66868 0.0
C1144 C 0.72271 0.30137 0.67568 0.0
C1145 C 0.70272 0.27045 0.67817 0.0
C1146 C 0.7037 0.24737 0.67257 0.0
H1147 H 0.68619 0.25605 0.63784 0.0
H1148 H 0.68842 0.26363 0.65134 0.0
H1149 H 0.72228 0.28302 0.64354 0.0
H1150 H 0.76463 0.29238 0.65716 0.0
H1151 H 0.76213 0.33265 0.66662 0.0
H1152 H 0.45945 0.07866 0.12132 0.0
H1153 H 0.48583 0.09065 0.13785 0.0
H1154 H 0.52884 0.18714 0.13115 0.0
H1155 H 0.50253 0.17556 0.11481 0.0
H1156 H 0.54809 0.12326 0.14305 0.0
H1157 H 0.48847 0.18027 0.15874 0.0
H1158 H 0.47498 0.15622 0.14755 0.0
H1159 H 0.50479 0.19585 0.14651 0.0
C1160 C 0.47459 0.10243 0.12336 0.0
C1161 C 0.47862 0.12616 0.11676 0.0
C1162 C 0.4896 0.10921 0.13281 0.0
C1163 C 0.50871 0.13979 0.13583 0.0
C1164 C 0.51354 0.16339 0.1291 0.0
H1165 H 0.66313 0.25225 0.16612 0.0
H1166 H 0.62437 0.20577 0.15793 0.0
C1167 C 0.49859 0.15669 0.11971 0.0
C1168 C 0.52415 0.14768 0.14591 0.0
H1169 H 0.53868 0.19627 0.16584 0.0
C1170 C 0.54557 0.13865 0.14819 0.0
C1171 C 0.52012 0.16679 0.15284 0.0
C1172 C 0.49556 0.17504 0.15134 0.0
C1173 C 0.56525 0.15084 0.15664 0.0
C1174 C 0.5639 0.17315 0.1628 0.0
C1175 C 0.54024 0.17954 0.16111 0.0
C1176 C 0.58967 0.19437 0.16956 0.0
C1177 C 0.58796 0.14048 0.15865 0.0
C1178 C 0.58396 0.20302 0.17916 0.0
C1179 C 0.60635 0.23012 0.18385 0.0
C1180 C 0.63453 0.24894 0.17893 0.0
C1181 C 0.64153 0.23818 0.17005 0.0
C1182 C 0.61929 0.2113 0.16538 0.0
H1183 H 0.57754 0.11567 0.15693 0.0
H1184 H 0.60806 0.15305 0.15351 0.0
H1185 H 0.59601 0.14458 0.16667 0.0
H1186 H 0.56132 0.19034 0.18256 0.0
H1187 H 0.60032 0.23795 0.19068 0.0
H1188 H 0.87161 0.32781 0.11835 0.0
H1189 H 0.84802 0.33749 0.1331 0.0
H1190 H 0.92965 0.42566 0.13736 0.0
H1191 H 0.95365 0.416 0.12268 0.0
H1192 H 0.9032 0.39316 0.15597 0.0
H1193 H 0.81777 0.39904 0.13106 0.0
H1194 H 0.81862 0.3642 0.12964 0.0
H1195 H 0.85166 0.40017 0.12608 0.0
C1196 C 0.88464 0.34918 0.12245 0.0
C1197 C 0.91435 0.3713 0.11926 0.0
C1198 C 0.87112 0.35469 0.13087 0.0
C1199 C 0.88692 0.38249 0.13622 0.0
C1200 C 0.91704 0.40411 0.13332 0.0
H1201 H 0.7731 0.43062 0.17107 0.0
H1202 H 0.81883 0.43953 0.16174 0.0
C1203 C 0.93064 0.39858 0.12491 0.0
C1204 C 0.87126 0.38958 0.14444 0.0
H1205 H 0.80853 0.39642 0.14886 0.0
C1206 C 0.88265 0.39419 0.15444 0.0
C1207 C 0.84488 0.39159 0.14238 0.0
C1208 C 0.83264 0.3888 0.1317 0.0
C1209 C 0.86752 0.39952 0.16252 0.0
C1210 C 0.84015 0.39984 0.16053 0.0
C1211 C 0.82952 0.39626 0.15044 0.0
C1212 C 0.82057 0.40163 0.16868 0.0
C1213 C 0.88102 0.40477 0.17307 0.0
C1214 C 0.80786 0.37904 0.17632 0.0
C1215 C 0.78225 0.37461 0.1819 0.0
C1216 C 0.76863 0.39219 0.17971 0.0
C1217 C 0.78339 0.41694 0.17293 0.0
C1218 C 0.80935 0.42183 0.16753 0.0
H1219 H 0.9063 0.41466 0.17276 0.0
H1220 H 0.876 0.42033 0.17756 0.0
H1221 H 0.87098 0.38249 0.17712 0.0
H1222 H 0.81563 0.3628 0.17726 0.0
H1223 H 0.77091 0.35504 0.18697 0.0
H1224 H 0.68776 0.55032 0.11907 0.0
H1225 H 0.67724 0.51637 0.13369 0.0
H1226 H 0.59126 0.51308 0.13881 0.0
H1227 H 0.60183 0.54749 0.1243 0.0
H1228 H 0.6234 0.51787 0.15702 0.0
H1229 H 0.61308 0.42487 0.132 0.0
H1230 H 0.6489 0.46008 0.13046 0.0
H1231 H 0.61356 0.45838 0.12707 0.0
C1232 C 0.66668 0.54251 0.12333 0.0
C1233 C 0.64546 0.55129 0.12045 0.0
C1234 C 0.66068 0.52307 0.13167 0.0
C1235 C 0.63323 0.51182 0.13722 0.0
C1236 C 0.61251 0.52142 0.13461 0.0
H1237 H 0.58517 0.3497 0.17201 0.0
H1238 H 0.57516 0.38596 0.16298 0.0
C1239 C 0.61856 0.54098 0.12629 0.0
C1240 C 0.6256 0.48889 0.14542 0.0
H1241 H 0.61692 0.41862 0.14978 0.0
C1242 C 0.62162 0.49598 0.15546 0.0
C1243 C 0.62254 0.46009 0.14333 0.0
C1244 C 0.62442 0.45021 0.13262 0.0
C1245 C 0.61606 0.47549 0.16354 0.0
C1246 C 0.61493 0.44746 0.16152 0.0
C1247 C 0.6177 0.44003 0.1514 0.0
C1248 C 0.61352 0.42632 0.16966 0.0
C1249 C 0.61151 0.48411 0.17413 0.0
C1250 C 0.63668 0.43678 0.1771 0.0
C1251 C 0.64168 0.4159 0.18254 0.0
C1252 C 0.62413 0.38448 0.18038 0.0
C1253 C 0.5988 0.37385 0.17385 0.0
C1254 C 0.5933 0.39462 0.16862 0.0
H1255 H 0.60159 0.4993 0.17387 0.0
H1256 H 0.59623 0.46355 0.17877 0.0
H1257 H 0.63412 0.49691 0.17798 0.0
H1258 H 0.65296 0.46102 0.17796 0.0
H1259 H 0.66169 0.4246 0.1874 0.0
H1260 H 0.42944 0.12431 0.0541 0.0
H1261 H 0.45394 0.14169 0.0374 0.0
H1262 H 0.53283 0.13834 0.04817 0.0
H1263 H 0.50813 0.12014 0.06476 0.0
H1264 H 0.50507 0.19279 0.03305 0.0
H1265 H 0.52022 0.09675 0.02111 0.0
H1266 H 0.49555 0.09356 0.0316 0.0
H1267 H 0.5363 0.11032 0.0335 0.0
C1268 C 0.45193 0.12708 0.05288 0.0
C1269 C 0.46688 0.12089 0.06076 0.0
C1270 C 0.46583 0.13686 0.04332 0.0
C1271 C 0.49494 0.14064 0.04143 0.0
C1272 C 0.50995 0.13462 0.04931 0.0
H1273 H 0.65112 0.25007 0.00908 0.0
H1274 H 0.60879 0.20544 0.01732 0.0
C1275 C 0.49597 0.1246 0.05884 0.0
C1276 C 0.51095 0.15372 0.03159 0.0
H1277 H 0.55448 0.146 0.01315 0.0
C1278 C 0.51519 0.18218 0.02854 0.0
C1279 C 0.52403 0.13979 0.02567 0.0
C1280 C 0.51849 0.10826 0.02808 0.0
C1281 C 0.534 0.19815 0.02022 0.0
C1282 C 0.54869 0.18511 0.01469 0.0
C1283 C 0.54309 0.15588 0.01737 0.0
C1284 C 0.57384 0.20395 0.00743 0.0
C1285 C 0.53977 0.22987 0.01788 0.0
C1286 C 0.56851 0.21619 0.99857 0.0
C1287 C 0.5929 0.24169 0.99377 0.0
C1288 C 0.62262 0.25513 0.99787 0.0
C1289 C 0.62835 0.24015 0.00582 0.0
C1290 C 0.60414 0.21467 0.01055 0.0
H1291 H 0.52949 0.23802 0.02368 0.0
H1292 H 0.56482 0.24654 0.01746 0.0
H1293 H 0.52962 0.2297 0.01037 0.0
H1294 H 0.54527 0.20791 0.99597 0.0
H1295 H 0.58792 0.2529 0.98766 0.0
H1296 H 0.87637 0.39572 0.06929 0.0
H1297 H 0.85619 0.39641 0.05252 0.0
H1298 H 0.88878 0.33843 0.04078 0.0
H1299 H 0.90935 0.33761 0.05767 0.0
H1300 H 0.89567 0.4179 0.03378 0.0
H1301 H 0.79581 0.29865 0.03146 0.0
H1302 H 0.81175 0.31649 0.04359 0.0
H1303 H 0.83261 0.30481 0.03551 0.0
C1304 C 0.87897 0.38271 0.06321 0.0
C1305 C 0.8946 0.36665 0.06486 0.0
C1306 C 0.86751 0.38327 0.0536 0.0
C1307 C 0.87116 0.36766 0.0454 0.0
C1308 C 0.88566 0.35058 0.04703 0.0
H1309 H 0.76833 0.35311 0.99007 0.0
H1310 H 0.81064 0.35296 0.99922 0.0
C1311 C 0.89726 0.35003 0.0567 0.0
C1312 C 0.86041 0.37043 0.03516 0.0
H1313 H 0.79994 0.33338 0.01887 0.0
C1314 C 0.87508 0.39927 0.03039 0.0
C1315 C 0.83386 0.34602 0.03068 0.0
C1316 C 0.81737 0.31468 0.03552 0.0
C1317 C 0.86281 0.4048 0.02159 0.0
C1318 C 0.83481 0.38106 0.01758 0.0
C1319 C 0.82142 0.35162 0.02192 0.0
C1320 C 0.81624 0.38728 0.01022 0.0
C1321 C 0.87944 0.43632 0.01688 0.0
C1322 C 0.80649 0.4078 0.01301 0.0
C1323 C 0.78248 0.4079 0.00781 0.0
C1324 C 0.7677 0.38747 0.99973 0.0
C1325 C 0.77964 0.3694 0.99619 0.0
C1326 C 0.80358 0.36906 1.00148 0.0
H1327 H 0.90465 0.44726 0.01798 0.0
H1328 H 0.87458 0.43556 0.0086 0.0
H1329 H 0.87194 0.45101 0.0207 0.0
H1330 H 0.81537 0.42168 0.01981 0.0
H1331 H 0.77348 0.42181 0.01075 0.0
H1332 H 0.61096 0.49482 0.06869 0.0
H1333 H 0.61169 0.47544 0.05176 0.0
H1334 H 0.68278 0.56561 0.04247 0.0
H1335 H 0.68246 0.58537 0.05953 0.0
H1336 H 0.59983 0.49577 0.03294 0.0
H1337 H 0.71652 0.50959 0.03403 0.0
H1338 H 0.69704 0.51052 0.04545 0.0
H1339 H 0.71346 0.54268 0.03692 0.0
C1340 C 0.62705 0.51059 0.06311 0.0
C1341 C 0.64672 0.5417 0.06551 0.0
C1342 C 0.62729 0.49946 0.0534 0.0
C1343 C 0.64724 0.51904 0.04584 0.0
C1344 C 0.66738 0.55002 0.04822 0.0
H1345 H 0.67261 0.43876 0.99038 0.0
H1346 H 0.67108 0.47995 0.99976 0.0
C1347 C 0.6672 0.56125 0.05798 0.0
C1348 C 0.64637 0.50653 0.03553 0.0
H1349 H 0.68572 0.48436 0.01993 0.0
C1350 C 0.6188 0.49372 0.02999 0.0
C1351 C 0.67123 0.50424 0.03162 0.0
C1352 C 0.70124 0.51729 0.0373 0.0
C1353 C 0.61486 0.47721 0.02096 0.0
C1354 C 0.63894 0.47297 0.01746 0.0
C1355 C 0.66725 0.48765 0.0226 0.0
C1356 C 0.63386 0.44936 0.00973 0.0
C1357 C 0.58459 0.46362 0.01544 0.0
C1358 C 0.61231 0.41854 0.01182 0.0
C1359 C 0.6132 0.39515 0.00649 0.0
C1360 C 0.63564 0.40211 0.99898 0.0
C1361 C 0.65481 0.4328 0.99604 0.0
C1362 C 0.65416 0.45634 1.00147 0.0
H1363 H 0.57394 0.47799 0.0165 0.0
H1364 H 0.58734 0.46114 0.00716 0.0
H1365 H 0.56856 0.44062 0.01865 0.0
H1366 H 0.59678 0.41245 0.01824 0.0
H1367 H 0.59841 0.37167 0.00896 0.0
H1368 H 0.55453 0.85935 0.89428 0.0
H1369 H 0.53236 0.82807 0.87905 0.0
H1370 H 0.54416 0.90725 0.86268 0.0
H1371 H 0.56571 0.93861 0.87801 0.0
H1372 H 0.48824 0.85867 0.85964 0.0
H1373 H 0.57387 0.82296 0.85356 0.0
H1374 H 0.55844 0.81406 0.86623 0.0
H1375 H 0.58044 0.85348 0.8622 0.0
C1376 C 0.55253 0.87016 0.88743 0.0
C1377 C 0.56192 0.90148 0.88735 0.0
C1378 C 0.54013 0.8523 0.87869 0.0
C1379 C 0.53729 0.86544 0.86963 0.0
C1380 C 0.54644 0.89667 0.86955 0.0
H1381 H 0.44027 0.7624 0.81398 0.0
H1382 H 0.47974 0.80496 0.82424 0.0
C1383 C 0.55867 0.91454 0.87832 0.0
C1384 C 0.52299 0.84604 0.86049 0.0
H1385 H 0.52439 0.79141 0.84555 0.0
C1386 C 0.49656 0.8445 0.8564 0.0
C1387 C 0.53396 0.82768 0.8562 0.0
C1388 C 0.56343 0.82987 0.85971 0.0
C1389 C 0.47976 0.82371 0.8486 0.0
C1390 C 0.4897 0.80406 0.84479 0.0
C1391 C 0.51688 0.80656 0.84851 0.0
C1392 C 0.46979 0.7781 0.83803 0.0
C1393 C 0.45047 0.82154 0.84488 0.0
C1394 C 0.45206 0.74892 0.84234 0.0
C1395 C 0.42957 0.72492 0.83658 0.0
C1396 C 0.42459 0.72956 0.82637 0.0
C1397 C 0.44377 0.75825 0.82183 0.0
C1398 C 0.46615 0.78252 0.82767 0.0
H1399 H 0.44534 0.83778 0.84888 0.0
H1400 H 0.45236 0.82653 0.83659 0.0
H1401 H 0.43089 0.79788 0.84601 0.0
H1402 H 0.45457 0.7451 0.85032 0.0
H1403 H 0.41522 0.70295 0.84024 0.0
H1404 H 0.09964 0.64936 0.88183 0.0
H1405 H 0.13281 0.66096 0.8668 0.0
H1406 H 0.19966 0.74682 0.88034 0.0
H1407 H 0.1671 0.73524 0.8954 0.0
H1408 H 0.16012 0.71212 0.85273 0.0
H1409 H 0.24672 0.70134 0.87551 0.0
H1410 H 0.20829 0.68802 0.88009 0.0
H1411 H 0.23682 0.72809 0.88065 0.0
C1412 C 0.12139 0.67073 0.88159 0.0
C1413 C 0.13097 0.69117 0.88987 0.0
C1414 C 0.14019 0.6774 0.87298 0.0
C1415 C 0.16881 0.70458 0.87252 0.0
C1416 C 0.17785 0.7255 0.88061 0.0
H1417 H 0.33072 0.76545 0.83674 0.0
H1418 H 0.28999 0.7688 0.84562 0.0
C1419 C 0.15922 0.71881 0.88922 0.0
C1420 C 0.19026 0.71029 0.86395 0.0
H1421 H 0.26068 0.71977 0.85873 0.0
C1422 C 0.18215 0.71383 0.85401 0.0
C1423 C 0.21883 0.71225 0.86563 0.0
C1424 C 0.22815 0.70695 0.87602 0.0
C1425 C 0.20229 0.71995 0.84573 0.0
C1426 C 0.23103 0.72234 0.84748 0.0
C1427 C 0.23888 0.71854 0.85741 0.0
C1428 C 0.25307 0.72687 0.83922 0.0
C1429 C 0.19291 0.72415 0.83523 0.0
C1430 C 0.24563 0.70363 0.83199 0.0
C1431 C 0.26898 0.70209 0.82673 0.0
C1432 C 0.2999 0.72339 0.82884 0.0
C1433 C 0.30702 0.74881 0.83499 0.0
C1434 C 0.28374 0.75062 0.84011 0.0
H1435 H 0.17432 0.72976 0.83556 0.0
H1436 H 0.2128 0.74258 0.83102 0.0
H1437 H 0.18426 0.70252 0.83088 0.0
H1438 H 0.22221 0.68487 0.83125 0.0
H1439 H 0.26296 0.68209 0.82211 0.0
H1440 H 0.29096 0.47105 0.90107 0.0
H1441 H 0.29059 0.49608 0.8853 0.0
H1442 H 0.36216 0.48262 0.87305 0.0
H1443 H 0.36294 0.4575 0.88899 0.0
H1444 H 0.3731 0.54139 0.87009 0.0
H1445 H 0.25515 0.45747 0.85773 0.0
H1446 H 0.25601 0.46978 0.87061 0.0
H1447 H 0.27503 0.44889 0.86743 0.0
C1448 C 0.30665 0.47324 0.89505 0.0
C1449 C 0.32694 0.4621 0.89632 0.0
C1450 C 0.30615 0.48734 0.88597 0.0
C1451 C 0.32577 0.49054 0.87789 0.0
C1452 C 0.34651 0.48001 0.87915 0.0
H1453 H 0.31376 0.57525 0.82007 0.0
H1454 H 0.31302 0.53692 0.83185 0.0
C1455 C 0.34701 0.46577 0.88827 0.0
C1456 C 0.32555 0.50655 0.86841 0.0
H1457 H 0.27726 0.50837 0.85055 0.0
C1458 C 0.3523 0.53384 0.8657 0.0
C1459 C 0.29854 0.49652 0.86257 0.0
C1460 C 0.26965 0.46637 0.86466 0.0
C1461 C 0.3522 0.55237 0.85775 0.0
C1462 C 0.32455 0.54356 0.85246 0.0
C1463 C 0.29833 0.51529 0.8547 0.0
C1464 C 0.32197 0.56488 0.84532 0.0
C1465 C 0.38155 0.58171 0.85526 0.0
C1466 C 0.32585 0.59256 0.84906 0.0
C1467 C 0.32615 0.61419 0.84243 0.0
C1468 C 0.32243 0.60865 0.83188 0.0
C1469 C 0.31671 0.58015 0.82816 0.0
C1470 C 0.31643 0.55834 0.83486 0.0
H1471 H 0.40207 0.58083 0.85779 0.0
H1472 H 0.3835 0.58651 0.84695 0.0
H1473 H 0.3816 0.60104 0.85928 0.0
H1474 H 0.32945 0.59776 0.85713 0.0
H1475 H 0.33026 0.63575 0.84556 0.0
H1476 H 0.50188 0.90655 0.93915 0.0
H1477 H 0.48273 0.88928 0.95633 0.0
H1478 H 0.571 0.90328 0.9653 0.0
H1479 H 0.5906 0.92065 0.94796 0.0
H1480 H 0.52158 0.84693 0.97136 0.0
H1481 H 0.50051 0.93997 0.98235 0.0
H1482 H 0.48387 0.92398 0.9702 0.0
H1483 H 0.52493 0.94331 0.97175 0.0
C1484 C 0.51738 0.90605 0.94474 0.0
C1485 C 0.54787 0.91509 0.94215 0.0
C1486 C 0.50643 0.89648 0.95462 0.0
C1487 C 0.52566 0.89581 0.96218 0.0
C1488 C 0.55592 0.90411 0.95961 0.0
H1489 H 0.43789 0.78568 0.01703 0.0
H1490 H 0.48079 0.83018 0.00858 0.0
C1491 C 0.56702 0.91386 0.94969 0.0
C1492 C 0.513 0.88431 0.97251 0.0
H1493 H 0.46962 0.89136 0.99113 0.0
C1494 C 0.51099 0.85706 0.97587 0.0
C1495 C 0.49944 0.89775 0.97842 0.0
C1496 C 0.50257 0.92806 0.97555 0.0
C1497 C 0.49323 0.84131 0.98444 0.0
C1498 C 0.47753 0.85351 0.98987 0.0
C1499 C 0.48164 0.88204 0.98698 0.0
C1500 C 0.45234 0.83418 0.99708 0.0
C1501 C 0.48927 0.81045 0.98704 0.0
C1502 C 0.42204 0.82366 0.994 0.0
C1503 C 0.39769 0.79856 0.99883 0.0
C1504 C 0.40323 0.7837 0.00686 0.0
C1505 C 0.43304 0.79683 0.01087 0.0
C1506 C 0.45758 0.82199 0.00597 0.0
H1507 H 0.5003 0.80282 0.98135 0.0
H1508 H 0.49976 0.81173 0.99458 0.0
H1509 H 0.4645 0.79282 0.98753 0.0
H1510 H 0.41741 0.83286 0.98721 0.0
H1511 H 0.37488 0.78886 0.99561 0.0
H1512 H 0.10916 0.69455 0.95094 0.0
H1513 H 0.12785 0.69334 0.9681 0.0
H1514 H 0.15487 0.6296 0.95769 0.0
H1515 H 0.13624 0.63043 0.94067 0.0
H1516 H 0.12002 0.61264 0.97649 0.0
H1517 H 0.21925 0.73254 0.9767 0.0
H1518 H 0.1818 0.72643 0.9737 0.0
H1519 H 0.20038 0.71358 0.96502 0.0
C1520 C 0.11935 0.68051 0.95229 0.0
C1521 C 0.12127 0.66267 0.9444 0.0
C1522 C 0.12995 0.6798 0.9621 0.0
C1523 C 0.14272 0.66136 0.96416 0.0
C1524 C 0.1449 0.64383 0.95628 0.0
H1525 H 0.24854 0.616 0.99651 0.0
H1526 H 0.20336 0.61301 0.9888 0.0
C1527 C 0.13438 0.6445 0.94652 0.0
C1528 C 0.15438 0.66018 0.97441 0.0
H1529 H 0.21656 0.70007 0.98981 0.0
C1530 C 0.14077 0.63194 0.97955 0.0
C1531 C 0.18114 0.68547 0.97846 0.0
C1532 C 0.19673 0.71626 0.97321 0.0
C1533 C 0.15445 0.62776 0.98823 0.0
C1534 C 0.18271 0.6523 0.99174 0.0
C1535 C 0.19486 0.68123 0.98713 0.0
C1536 C 0.2031 0.64731 0.99862 0.0
C1537 C 0.13922 0.59673 0.99329 0.0
C1538 C 0.21723 0.66648 0.00706 0.0
C1539 C 0.2431 0.66794 0.01157 0.0
C1540 C 0.25537 0.65074 0.00751 0.0
C1541 C 0.23932 0.62932 0.9998 0.0
C1542 C 0.21339 0.62757 0.99541 0.0
H1543 H 0.11382 0.58522 0.99264 0.0
H1544 H 0.14656 0.58203 0.98938 0.0
H1545 H 0.14547 0.59845 1.00147 0.0
H1546 H 0.20979 0.68203 0.00962 0.0
H1547 H 0.25534 0.68489 0.01743 0.0
H1548 H 0.39354 0.50428 0.94357 0.0
H1549 H 0.40385 0.53339 0.95934 0.0
H1550 H 0.33273 0.45317 0.97463 0.0
H1551 H 0.32178 0.42392 0.95876 0.0
H1552 H 0.32699 0.50197 0.97789 0.0
H1553 H 0.44748 0.53563 0.98524 0.0
H1554 H 0.4431 0.54543 0.97248 0.0
H1555 H 0.42373 0.50576 0.97631 0.0
C1556 C 0.38022 0.49272 0.9503 0.0
C1557 C 0.35677 0.46181 0.94991 0.0
C1558 C 0.38642 0.50931 0.95936 0.0
C1559 C 0.36961 0.49529 0.96825 0.0
C1560 C 0.34627 0.46435 0.9679 0.0
H1561 H 0.36226 0.60627 0.01857 0.0
H1562 H 0.36423 0.56197 0.01189 0.0
C1563 C 0.33994 0.44773 0.95881 0.0
C1564 C 0.37439 0.51398 0.97753 0.0
H1565 H 0.4307 0.56932 0.99237 0.0
C1566 C 0.34947 0.51605 0.98127 0.0
C1567 C 0.40371 0.53218 0.982 0.0
C1568 C 0.43092 0.52938 0.97886 0.0
C1569 C 0.35356 0.53776 0.98869 0.0
C1570 C 0.38336 0.55763 0.99259 0.0
C1571 C 0.4079 0.55407 0.98939 0.0
C1572 C 0.39007 0.58548 0.99837 0.0
C1573 C 0.32639 0.5409 0.99169 0.0
C1574 C 0.40607 0.61388 0.9934 0.0
C1575 C 0.40507 0.63907 0.99719 0.0
C1576 C 0.38819 0.63631 0.00605 0.0
C1577 C 0.37546 0.609 0.01172 0.0
C1578 C 0.37634 0.58362 0.00788 0.0
H1579 H 0.30564 0.52592 0.98709 0.0
H1580 H 0.32072 0.53455 0.99983 0.0
H1581 H 0.33199 0.565 0.99077 0.0
H1582 H 0.41696 0.61586 0.98609 0.0
H1583 H 0.41528 0.65996 0.99272 0.0
H1584 H 0.14193 0.52571 0.43887 0.0
H1585 H 0.16027 0.54731 0.45577 0.0
H1586 H 0.12872 0.45683 0.46778 0.0
H1587 H 0.11069 0.43493 0.45079 0.0
H1588 H 0.12562 0.53464 0.47389 0.0
H1589 H 0.21773 0.50538 0.47764 0.0
H1590 H 0.20002 0.50379 0.46555 0.0
H1591 H 0.17962 0.47447 0.47492 0.0
C1592 C 0.13913 0.51035 0.44507 0.0
C1593 C 0.12498 0.47858 0.44344 0.0
C1594 C 0.14948 0.52274 0.45475 0.0
C1595 C 0.14594 0.50372 0.46304 0.0
C1596 C 0.13207 0.47199 0.46147 0.0
H1597 H 0.25071 0.58914 0.51824 0.0
H1598 H 0.20539 0.54839 0.50949 0.0
C1599 C 0.12182 0.45953 0.45174 0.0
C1600 C 0.157 0.51762 0.47325 0.0
H1601 H 0.21455 0.53598 0.49034 0.0
C1602 C 0.14475 0.53453 0.47759 0.0
C1603 C 0.18155 0.51701 0.47818 0.0
C1604 C 0.19573 0.49938 0.47385 0.0
C1605 C 0.15764 0.55236 0.48637 0.0
C1606 C 0.18379 0.55376 0.49082 0.0
C1607 C 0.19448 0.53494 0.48695 0.0
C1608 C 0.20392 0.57844 0.49805 0.0
C1609 C 0.14375 0.57038 0.49057 0.0
C1610 C 0.21701 0.60906 0.4949 0.0
C1611 C 0.24271 0.63217 0.49987 0.0
C1612 C 0.25589 0.62512 0.50806 0.0
C1613 C 0.24077 0.59517 0.51199 0.0
C1614 C 0.21505 0.57186 0.50694 0.0
H1615 H 0.11849 0.55787 0.48938 0.0
H1616 H 0.1485 0.5751 0.49884 0.0
H1617 H 0.15352 0.59253 0.48645 0.0
H1618 H 0.20938 0.61479 0.48798 0.0
H1619 H 0.25408 0.65507 0.49667 0.0
H1620 H 0.60487 0.70422 0.45528 0.0
H1621 H 0.57411 0.69456 0.47083 0.0
H1622 H 0.49485 0.62298 0.45538 0.0
H1623 H 0.5252 0.63247 0.43987 0.0
H1624 H 0.48636 0.66874 0.46509 0.0
H1625 H 0.53794 0.62054 0.49123 0.0
H1626 H 0.5639 0.65554 0.48466 0.0
H1627 H 0.54219 0.6208 0.47754 0.0
C1628 C 0.58093 0.68631 0.45522 0.0
C1629 C 0.56745 0.66922 0.44632 0.0
C1630 C 0.56348 0.68064 0.46414 0.0
C1631 C 0.53231 0.65777 0.46429 0.0
C1632 C 0.51893 0.64057 0.45545 0.0
H1633 H 0.37166 0.59636 0.50015 0.0
H1634 H 0.4127 0.59599 0.49038 0.0
C1635 C 0.53631 0.64613 0.44657 0.0
C1636 C 0.51274 0.65325 0.47334 0.0
H1637 H 0.49825 0.6274 0.49798 0.0
C1638 C 0.48902 0.65976 0.47228 0.0
C1639 C 0.51642 0.64174 0.48273 0.0
C1640 C 0.54134 0.63401 0.48417 0.0
C1641 C 0.4687 0.65485 0.4803 0.0
C1642 C 0.47175 0.64251 0.48961 0.0
C1643 C 0.49587 0.6366 0.4908 0.0
C1644 C 0.44933 0.63551 0.49797 0.0
C1645 C 0.44396 0.66286 0.47875 0.0
C1646 C 0.45662 0.65611 0.5061 0.0
C1647 C 0.4331 0.65589 0.51187 0.0
C1648 C 0.40222 0.6354 0.50941 0.0
C1649 C 0.3953 0.61223 0.50223 0.0
C1650 C 0.41874 0.61216 0.49659 0.0
H1651 H 0.4486 0.67782 0.47199 0.0
H1652 H 0.42159 0.64149 0.47757 0.0
H1653 H 0.44178 0.67465 0.48557 0.0
H1654 H 0.48011 0.67432 0.50727 0.0
H1655 H 0.43898 0.67423 0.51728 0.0
H1656 H 0.31503 0.90157 0.45969 0.0
H1657 H 0.32785 0.88483 0.47548 0.0
H1658 H 0.40206 0.88234 0.46006 0.0
H1659 H 0.38986 0.89973 0.44434 0.0
H1660 H 0.32599 0.83205 0.47864 0.0
H1661 H 0.44429 0.92602 0.48597 0.0
H1662 H 0.41924 0.92966 0.477 0.0
H1663 H 0.44045 0.91136 0.47328 0.0
C1664 C 0.33424 0.89768 0.45969 0.0
C1665 C 0.3514 0.90191 0.45076 0.0
C1666 C 0.34162 0.88827 0.46873 0.0
C1667 C 0.36636 0.88299 0.46903 0.0
C1668 C 0.3835 0.88719 0.46012 0.0
H1669 H 0.42076 0.77342 0.49646 0.0
H1670 H 0.42111 0.81767 0.489 0.0
C1671 C 0.37624 0.89675 0.45109 0.0
C1672 C 0.37237 0.87014 0.47833 0.0
H1673 H 0.42989 0.87704 0.49381 0.0
C1674 C 0.3485 0.84227 0.48214 0.0
C1675 C 0.40173 0.88359 0.48292 0.0
C1676 C 0.42778 0.91448 0.47965 0.0
C1677 C 0.3537 0.8263 0.48986 0.0
C1678 C 0.38354 0.83883 0.49403 0.0
C1679 C 0.40703 0.86756 0.49064 0.0
C1680 C 0.39153 0.81987 0.5005 0.0
C1681 C 0.3277 0.79506 0.49295 0.0
C1682 C 0.37694 0.80813 0.50992 0.0
C1683 C 0.37678 0.78272 0.51423 0.0
C1684 C 0.39113 0.76891 0.50912 0.0
C1685 C 0.40924 0.78345 0.50049 0.0
C1686 C 0.40946 0.80878 0.49622 0.0
H1687 H 0.30722 0.78703 0.488 0.0
H1688 H 0.33518 0.77788 0.49265 0.0
H1689 H 0.32071 0.796 0.5009 0.0
H1690 H 0.36341 0.81678 0.51343 0.0
H1691 H 0.36269 0.77199 0.5209 0.0
H1692 H 0.16881 0.4642 0.39264 0.0
H1693 H 0.19334 0.48155 0.37599 0.0
H1694 H 0.10678 0.46138 0.36292 0.0
H1695 H 0.08213 0.44457 0.37964 0.0
H1696 H 0.18107 0.45133 0.35698 0.0
H1697 H 0.16356 0.55154 0.35574 0.0
H1698 H 0.15798 0.52987 0.36726 0.0
H1699 H 0.12979 0.51446 0.35729 0.0
C1700 C 0.15498 0.46352 0.38624 0.0
C1701 C 0.12362 0.4534 0.38748 0.0
C1702 C 0.16899 0.47324 0.37671 0.0
C1703 C 0.15194 0.47299 0.36824 0.0
C1704 C 0.12045 0.4622 0.36939 0.0
H1705 H 0.2525 0.58885 0.31681 0.0
H1706 H 0.20836 0.54197 0.32361 0.0
C1707 C 0.10643 0.45262 0.37895 0.0
C1708 C 0.16784 0.48551 0.35838 0.0
H1709 H 0.19373 0.54803 0.34296 0.0
C1710 C 0.18341 0.47218 0.35379 0.0
C1711 C 0.17052 0.51246 0.35414 0.0
C1712 C 0.15479 0.52814 0.35886 0.0
C1713 C 0.20313 0.48617 0.34544 0.0
C1714 C 0.20765 0.51436 0.34172 0.0
C1715 C 0.19016 0.52632 0.34579 0.0
C1716 C 0.23447 0.53505 0.33529 0.0
C1717 C 0.21987 0.47127 0.34097 0.0
C1718 C 0.26401 0.54562 0.3392 0.0
C1719 C 0.28901 0.57232 0.33538 0.0
C1720 C 0.28492 0.58887 0.32758 0.0
C1721 C 0.25621 0.57633 0.3228 0.0
C1722 C 0.23098 0.54965 0.3267 0.0
H1723 H 0.20565 0.4459 0.34151 0.0
H1724 H 0.2261 0.47781 0.33286 0.0
H1725 H 0.24123 0.47856 0.34536 0.0
H1726 H 0.26731 0.53521 0.34592 0.0
H1727 H 0.31097 0.58162 0.33919 0.0
H1728 H 0.57687 0.66258 0.38519 0.0
H1729 H 0.5561 0.66606 0.36863 0.0
H1730 H 0.5413 0.73694 0.38054 0.0
H1731 H 0.56187 0.7338 0.39693 0.0
H1732 H 0.49804 0.65813 0.36405 0.0
H1733 H 0.58957 0.7756 0.35427 0.0
H1734 H 0.59428 0.75296 0.36396 0.0
H1735 H 0.57477 0.77357 0.36687 0.0
C1736 C 0.56909 0.67882 0.38428 0.0
C1737 C 0.57122 0.69801 0.3924 0.0
C1738 C 0.55739 0.68089 0.3748 0.0
C1739 C 0.54796 0.70236 0.37327 0.0
C1740 C 0.5493 0.72085 0.38144 0.0
H1741 H 0.43769 0.74929 0.34315 0.0
H1742 H 0.48088 0.74893 0.35125 0.0
C1743 C 0.56083 0.71878 0.39087 0.0
C1744 C 0.53519 0.70483 0.36337 0.0
H1745 H 0.54016 0.75798 0.34623 0.0
C1746 C 0.50764 0.67966 0.35995 0.0
C1747 C 0.54791 0.73292 0.35799 0.0
C1748 C 0.57845 0.7602 0.3609 0.0
C1749 C 0.49103 0.68261 0.35188 0.0
C1750 C 0.50261 0.71141 0.34702 0.0
C1751 C 0.53131 0.73593 0.34995 0.0
C1752 C 0.48272 0.71777 0.34037 0.0
C1753 C 0.46005 0.65556 0.34918 0.0
C1754 C 0.47091 0.70218 0.33111 0.0
C1755 C 0.44626 0.70267 0.32637 0.0
C1756 C 0.43315 0.71853 0.33092 0.0
C1757 C 0.44735 0.73682 0.33951 0.0
C1758 C 0.47198 0.73654 0.34417 0.0
H1759 H 0.45298 0.63591 0.35446 0.0
H1760 H 0.44222 0.66222 0.34936 0.0
H1761 H 0.46087 0.64778 0.34134 0.0
H1762 H 0.47924 0.68795 0.32797 0.0
H1763 H 0.43563 0.68826 0.31978 0.0
H1764 H 0.28776 0.83365 0.39882 0.0
H1765 H 0.28656 0.81507 0.38161 0.0
H1766 H 0.35177 0.90683 0.37173 0.0
H1767 H 0.35329 0.92588 0.38907 0.0
H1768 H 0.27053 0.8352 0.36293 0.0
H1769 H 0.38912 0.85347 0.36254 0.0
H1770 H 0.36996 0.85234 0.3743 0.0
H1771 H 0.38405 0.88501 0.36606 0.0
C1772 C 0.30207 0.85 0.39304 0.0
C1773 C 0.32073 0.88131 0.39537 0.0
C1774 C 0.30119 0.8393 0.38317 0.0
C1775 C 0.31904 0.85954 0.37539 0.0
C1776 C 0.33796 0.89079 0.37765 0.0
H1777 H 0.34064 0.77446 0.32057 0.0
H1778 H 0.33977 0.8169 0.32934 0.0
C1779 C 0.33883 0.90161 0.38757 0.0
C1780 C 0.31764 0.84723 0.36502 0.0
H1781 H 0.35648 0.82508 0.34919 0.0
C1782 C 0.28952 0.83353 0.35979 0.0
C1783 C 0.34253 0.84545 0.36087 0.0
C1784 C 0.37316 0.85969 0.3662 0.0
C1785 C 0.28505 0.8164 0.35088 0.0
C1786 C 0.30912 0.81236 0.34722 0.0
C1787 C 0.33799 0.82815 0.35198 0.0
C1788 C 0.30356 0.7877 0.33987 0.0
C1789 C 0.25421 0.80181 0.34569 0.0
C1790 C 0.28239 0.75719 0.34249 0.0
C1791 C 0.28294 0.73312 0.33752 0.0
C1792 C 0.30464 0.73905 0.32984 0.0
C1793 C 0.32345 0.76929 0.3264 0.0
C1794 C 0.32314 0.79354 0.33147 0.0
H1795 H 0.24357 0.81626 0.34658 0.0
H1796 H 0.25608 0.79808 0.33745 0.0
H1797 H 0.2386 0.77935 0.34932 0.0
H1798 H 0.26746 0.75197 0.34904 0.0
H1799 H 0.26835 0.71001 0.34035 0.0
H1800 H 0.34064 0.13499 0.09964 0.0
H1801 H 0.29226 0.12348 0.10752 0.0
H1802 H 0.26897 0.02978 0.11215 0.0
H1803 H 0.31742 0.04098 0.10407 0.0
H1804 H 0.22172 0.03369 0.10412 0.0
H1805 H 0.26774 0.11138 0.13729 0.0
H1806 H 0.2837 0.13118 0.12551 0.0
H1807 H 0.29122 0.10163 0.12957 0.0
C1808 C 0.32538 0.11191 0.10236 0.0
C1809 C 0.33303 0.08892 0.10123 0.0
C1810 C 0.29779 0.10546 0.10697 0.0
C1811 C 0.27729 0.07597 0.11066 0.0
C1812 C 0.28462 0.05281 0.10946 0.0
H1813 H 0.10652 0.03125 0.14328 0.0
H1814 H 0.15854 0.04106 0.13974 0.0
C1815 C 0.31228 0.05923 0.10481 0.0
C1816 C 0.24741 0.06908 0.11515 0.0
H1817 H 0.21512 0.09404 0.13282 0.0
C1818 C 0.2203 0.04659 0.11048 0.0
C1819 C 0.24546 0.08558 0.12356 0.0
C1820 C 0.27359 0.10856 0.12934 0.0
C1821 C 0.19145 0.04126 0.11366 0.0
C1822 C 0.18968 0.05927 0.12159 0.0
C1823 C 0.21659 0.08063 0.12663 0.0
C1824 C 0.16012 0.05708 0.12434 0.0
C1825 C 0.16309 0.01658 0.10841 0.0
C1826 C 0.1445 0.06423 0.11704 0.0
C1827 C 0.11505 0.05887 0.11905 0.0
C1828 C 0.10069 0.04653 0.12846 0.0
C1829 C 0.11714 0.04121 0.13603 0.0
C1830 C 0.14673 0.04653 0.13398 0.0
H1831 H 0.16745 -0.00058 0.10467 0.0
H1832 H 0.14377 0.00453 0.11387 0.0
H1833 H 0.15598 0.02719 0.10242 0.0
H1834 H 0.1547 0.07302 0.10963 0.0
H1835 H 0.10308 0.06343 0.11309 0.0
H1836 H 0.00158 0.30513 0.11033 0.0
H1837 H 0.00213 0.25993 0.11675 0.0
H1838 H 0.93102 0.20286 0.09547 0.0
H1839 H 0.93004 0.24785 0.08905 0.0
H1840 H 0.94414 0.20039 0.12455 0.0
H1841 H 0.00649 0.18669 0.09181 0.0
H1842 H 0.01003 0.2231 0.09497 0.0
H1843 H 0.97577 0.19381 0.08898 0.0
C1844 C 0.98623 0.28302 0.10694 0.0
C1845 C 0.96584 0.28015 0.09914 0.0
C1846 C 0.98647 0.2572 0.11067 0.0
C1847 C 0.96661 0.22809 0.10659 0.0
C1848 C 0.94658 0.22516 0.0987 0.0
H1849 H 0.94947 0.05032 0.11312 0.0
H1850 H 0.94267 0.09332 0.10865 0.0
C1851 C 0.94611 0.25091 0.09503 0.0
C1852 C 0.96674 0.2007 0.11059 0.0
H1853 H 0.9882 0.14867 0.10451 0.0
C1854 C 0.9538 0.18902 0.1202 0.0
C1855 C 0.97925 0.18596 0.10488 0.0
C1856 C -0.00612 0.19798 0.0946 0.0
C1857 C 0.95248 0.16251 0.12418 0.0
C1858 C 0.96516 0.14777 0.11848 0.0
C1859 C 0.97833 0.15977 0.10889 0.0
C1860 C 0.96506 0.11981 0.12215 0.0
C1861 C 0.93673 0.15012 0.13429 0.0
C1862 C 0.97895 0.1197 0.13144 0.0
C1863 C 0.98235 0.09472 0.13411 0.0
C1864 C 0.97245 0.06969 0.12745 0.0
C1865 C 0.95734 0.06927 0.11841 0.0
C1866 C 0.95357 0.09394 0.11582 0.0
H1867 H 0.92042 0.1581 0.1361 0.0
H1868 H 0.924 0.12467 0.13436 0.0
H1869 H 0.95426 0.15841 0.14041 0.0
H1870 H 0.98864 0.13957 0.13637 0.0
H1871 H -0.00539 0.096 0.14102 0.0
H1872 H 0.71153 0.70501 0.11354 0.0
H1873 H 0.75573 0.75039 0.12073 0.0
H1874 H 0.81532 0.74177 0.09909 0.0
H1875 H 0.77122 0.6956 0.09207 0.0
H1876 H 0.8396 0.75282 0.11786 0.0
H1877 H 0.80132 0.8357 0.10962 0.0
H1878 H 0.77405 0.8037 0.11709 0.0
H1879 H 0.78253 0.79769 0.10425 0.0
C1880 C 0.73398 0.71296 0.11022 0.0
C1881 C 0.7378 0.69679 0.10217 0.0
C1882 C 0.75927 0.73903 0.11433 0.0
C1883 C 0.78888 0.7499 0.11036 0.0
C1884 C 0.79272 0.73392 0.10227 0.0
H1885 H 0.96542 0.90991 0.11584 0.0
H1886 H 0.92186 0.85869 0.11253 0.0
C1887 C 0.76746 0.70761 0.09823 0.0
C1888 C 0.81594 0.77741 0.11481 0.0
H1889 H 0.84521 0.85335 0.12014 0.0
C1890 C 0.84079 0.77479 0.11834 0.0
C1891 C 0.81756 0.80615 0.11549 0.0
C1892 C 0.79259 0.81113 0.11132 0.0
C1893 C 0.86714 0.80007 0.12247 0.0
C1894 C 0.86868 0.82866 0.12311 0.0
C1895 C 0.84372 0.83122 0.11977 0.0
C1896 C 0.89712 0.85698 0.12622 0.0
C1897 C 0.89332 0.79621 0.12607 0.0
C1898 C 0.89803 0.87266 0.13517 0.0
C1899 C 0.92322 0.90189 0.13717 0.0
C1900 C 0.94745 0.91604 0.1301 0.0
C1901 C 0.94709 0.89955 0.12142 0.0
C1902 C 0.92224 0.87027 0.11953 0.0
H1903 H 0.8863 0.77169 0.12697 0.0
H1904 H 0.91228 0.8067 0.12041 0.0
H1905 H 0.90235 0.80814 0.13346 0.0
H1906 H 0.87872 0.86282 0.14039 0.0
H1907 H 0.92268 0.9142 0.14384 0.0
H1908 H 0.11946 0.34525 0.40849 0.0
H1909 H 0.12034 0.30324 0.39966 0.0
H1910 H 0.02136 0.25427 0.3979 0.0
H1911 H 0.0206 0.29724 0.40615 0.0
H1912 H 0.10196 0.24828 0.40352 0.0
H1913 H 0.0388 0.24665 0.36913 0.0
H1914 H 0.05144 0.27665 0.37852 0.0
H1915 H 0.01561 0.24108 0.38016 0.0
C1916 C 0.09786 0.32542 0.40627 0.0
C1917 C 0.06994 0.32453 0.40799 0.0
C1918 C 0.09839 0.30146 0.40116 0.0
C1919 C 0.07099 0.27584 0.3978 0.0
C1920 C 0.04294 0.27426 0.4 0.0
H1921 H 0.03214 0.09585 0.39125 0.0
H1922 H 0.04738 0.14772 0.39591 0.0
C1923 C 0.04245 0.2986 0.40488 0.0
C1924 C 0.0717 0.25031 0.39237 0.0
H1925 H 0.03981 0.20004 0.37256 0.0
C1926 C 0.08876 0.23817 0.39665 0.0
C1927 C 0.05548 0.23754 0.38317 0.0
C1928 C 0.03965 0.25146 0.37743 0.0
C1929 C 0.08835 0.21253 0.3924 0.0
C1930 C 0.06928 0.19766 0.38391 0.0
C1931 C 0.05396 0.211 0.37919 0.0
C1932 C 0.0618 0.16642 0.38074 0.0
C1933 C 0.10811 0.20143 0.3972 0.0
C1934 C 0.06377 0.15908 0.37051 0.0
C1935 C 0.05431 0.12873 0.36771 0.0
C1936 C 0.04263 0.10537 0.37511 0.0
C1937 C 0.0411 0.11311 0.38531 0.0
C1938 C 0.05021 0.14303 0.38805 0.0
H1939 H 0.12955 0.22094 0.40033 0.0
H1940 H 0.09546 0.1859 0.40365 0.0
H1941 H 0.11436 0.18891 0.39165 0.0
H1942 H 0.07225 0.17671 0.3647 0.0
H1943 H 0.05536 0.12348 0.35978 0.0
H1944 H 0.70875 0.73462 0.39755 0.0
H1945 H 0.74908 0.76786 0.38544 0.0
H1946 H 0.75878 0.84759 0.4008 0.0
H1947 H 0.71856 0.81479 0.41284 0.0
H1948 H 0.75141 0.84771 0.37919 0.0
H1949 H 0.84266 0.82205 0.39 0.0
H1950 H 0.80521 0.78994 0.38726 0.0
H1951 H 0.8106 0.81315 0.39828 0.0
C1952 C 0.71984 0.75923 0.39846 0.0
C1953 C 0.71037 0.77198 0.4062 0.0
C1954 C 0.74286 0.7782 0.39152 0.0
C1955 C 0.75693 0.81022 0.39221 0.0
C1956 C 0.74813 0.82295 0.40008 0.0
H1957 H 0.89658 0.97982 0.37361 0.0
H1958 H 0.84609 0.93557 0.37704 0.0
C1959 C 0.72521 0.8041 0.40701 0.0
C1960 C 0.78028 0.83082 0.38466 0.0
H1961 H 0.85482 0.85927 0.37738 0.0
C1962 C 0.7739 0.84996 0.37868 0.0
C1963 C 0.80945 0.83346 0.38389 0.0
C1964 C 0.81766 0.81375 0.39022 0.0
C1965 C 0.79636 0.8726 0.37232 0.0
C1966 C 0.82615 0.87656 0.37206 0.0
C1967 C 0.83195 0.85618 0.37755 0.0
C1968 C 0.85279 0.90436 0.36758 0.0
C1969 C 0.78819 0.89256 0.36614 0.0
C1970 C 0.87303 0.90203 0.36075 0.0
C1971 C 0.90198 0.92765 0.35867 0.0
C1972 C 0.91116 0.95565 0.36358 0.0
C1973 C 0.88984 0.95856 0.36963 0.0
C1974 C 0.86093 0.93319 0.3716 0.0
H1975 H 0.76341 0.88005 0.36413 0.0
H1976 H 0.79273 0.91283 0.37074 0.0
H1977 H 0.80198 0.90068 0.35903 0.0
H1978 H 0.86731 0.87997 0.3576 0.0
H1979 H 0.91824 0.92473 0.35412 0.0
H1980 H 0.27274 0.97825 0.40973 0.0
H1981 H 0.23592 0.9887 0.40116 0.0
H1982 H 0.16112 0.90278 0.41214 0.0
H1983 H 0.19752 0.89201 0.42064 0.0
H1984 H 0.15884 0.91289 0.39091 0.0
H1985 H 0.17606 0.01189 0.41442 0.0
H1986 H 0.2102 0.0147 0.40906 0.0
H1987 H 0.1887 0.98602 0.41852 0.0
C1988 C 0.24844 0.96175 0.41043 0.0
C1989 C 0.23812 0.93432 0.4159 0.0
C1990 C 0.22744 0.96777 0.40552 0.0
C1991 C 0.19581 0.94654 0.40605 0.0
C1992 C 0.18545 0.91942 0.41162 0.0
H1993 H 0.03933 0.96445 0.3943 0.0
H1994 H 0.0782 0.95392 0.40081 0.0
C1995 C 0.20633 0.91339 0.41652 0.0
C1996 C 0.1733 0.95207 0.40067 0.0
H1997 H 0.14178 -0.00216 0.4006 0.0
C1998 C 0.15517 0.93155 0.39298 0.0
C1999 C 0.16852 0.97632 0.40344 0.0
C2000 C 0.18668 -0.00158 0.41186 0.0
C2001 C 0.1321 0.93445 0.38805 0.0
C2002 C 0.12726 0.95864 0.39085 0.0
C2003 C 0.14565 0.97937 0.39845 0.0
C2004 C 0.10216 0.96203 0.38644 0.0
C2005 C 0.11244 0.91112 0.38013 0.0
C2006 C 0.10234 0.9694 0.37612 0.0
C2007 C 0.07997 0.97538 0.37232 0.0
C2008 C 0.05724 0.97427 0.37883 0.0
C2009 C 0.05654 0.96565 0.38907 0.0
C2010 C 0.0788 0.95969 0.39283 0.0
H2011 H 0.11525 0.89073 0.38023 0.0
H2012 H 0.08781 0.90348 0.38134 0.0
H2013 H 0.11906 0.92174 0.37245 0.0
H2014 H 0.12039 0.97165 0.37108 0.0
H2015 H 0.08134 0.98212 0.36442 0.0
H2016 H 0.70174 0.9427 0.91565 0.0
H2017 H 0.74608 0.94265 0.90808 0.0
H2018 H 0.75029 0.00394 0.88447 0.0
H2019 H 0.70669 0.00484 0.89215 0.0
H2020 H 0.75076 0.92282 0.88937 0.0
H2021 H 0.83861 0.04598 0.89312 0.0
H2022 H 0.80221 0.02898 0.89968 0.0
H2023 H 0.80487 0.03954 0.88646 0.0
C2024 C 0.71249 0.95664 0.90896 0.0
C2025 C 0.70082 0.97398 0.90456 0.0
C2026 C 0.73772 0.95644 0.9046 0.0
C2027 C 0.75179 0.97354 0.89576 0.0
C2028 C 0.74036 0.99113 0.89142 0.0
H2029 H 0.90858 -0.00535 0.86009 0.0
H2030 H 0.85843 0.98911 0.86406 0.0
C2031 C 0.71532 0.99155 0.89582 0.0
C2032 C 0.77755 0.97197 0.89085 0.0
H2033 H 0.85224 0.01566 0.88312 0.0
C2034 C 0.77295 0.94314 0.88801 0.0
C2035 C 0.80649 -0.00152 0.88901 0.0
C2036 C 0.81351 0.02996 0.89231 0.0
C2037 C 0.7965 0.94013 0.88346 0.0
C2038 C 0.82542 0.96658 0.88172 0.0
C2039 C 0.82988 -0.00456 0.88434 0.0
C2040 C 0.85241 0.96475 0.87822 0.0
C2041 C 0.79038 0.90867 0.88058 0.0
C2042 C 0.86511 0.95209 0.8847 0.0
C2043 C 0.89368 0.95539 0.88249 0.0
C2044 C 0.91004 0.97125 0.87372 0.0
C2045 C 0.89631 0.98196 0.86683 0.0
C2046 C 0.8678 0.97902 0.86913 0.0
H2047 H 0.76538 0.89196 0.87992 0.0
H2048 H 0.80172 0.90939 0.87324 0.0
H2049 H 0.79989 0.90032 0.88655 0.0
H2050 H 0.85385 0.94136 0.89181 0.0
H2051 H 0.90377 0.94701 0.88795 0.0
H2052 H 0.02101 0.72203 0.89591 0.0
H2053 H 0.01978 0.76534 0.88823 0.0
H2054 H 0.08193 0.82537 0.91128 0.0
H2055 H 0.08398 0.78225 0.91886 0.0
H2056 H 0.00247 0.80412 0.89516 0.0
H2057 H 0.12644 0.86958 0.8856 0.0
H2058 H 0.10742 0.8302 0.8898 0.0
H2059 H 0.11946 0.86074 0.89893 0.0
C2060 C 0.03423 0.74439 0.89941 0.0
C2061 C 0.05277 0.74873 0.90796 0.0
C2062 C 0.03359 0.76916 0.89498 0.0
C2063 C 0.05141 0.79877 0.89901 0.0
C2064 C 0.06874 0.80291 0.90785 0.0
H2065 H 0.06232 0.97066 0.89076 0.0
H2066 H 0.06998 0.92816 0.89527 0.0
C2067 C 0.0696 0.77817 0.91224 0.0
C2068 C 0.0516 0.82518 0.89398 0.0
H2069 H 0.09894 0.89633 0.8839 0.0
C2070 C 0.02353 0.82411 0.89259 0.0
C2071 C 0.0791 0.85119 0.89055 0.0
C2072 C 0.10977 0.85294 0.89119 0.0
C2073 C 0.0223 0.84877 0.88821 0.0
C2074 C 0.04985 0.87509 0.88509 0.0
C2075 C 0.07788 0.87602 0.88629 0.0
C2076 C 0.04998 0.90278 0.8814 0.0
C2077 C -0.00832 0.84702 0.88727 0.0
C2078 C 0.0374 0.90312 0.8719 0.0
C2079 C 0.03324 0.92759 0.86924 0.0
C2080 C 0.04138 0.95182 0.87612 0.0
C2081 C 0.05576 0.95223 0.88533 0.0
C2082 C 0.06016 0.92801 0.88792 0.0
H2083 H 0.97294 0.8265 0.89114 0.0
H2084 H -0.00705 0.86784 0.89057 0.0
H2085 H 0.9857 0.84603 0.87909 0.0
H2086 H 0.02953 0.88383 0.86676 0.0
H2087 H 0.02173 0.92644 0.86216 0.0
H2088 H 0.209 0.30888 0.92085 0.0
H2089 H 0.17313 0.26438 0.91087 0.0
H2090 H 0.24718 0.27668 0.89125 0.0
H2091 H 0.28353 0.32099 0.9014 0.0
H2092 H 0.15904 0.26348 0.89082 0.0
H2093 H 0.20532 0.18596 0.8975 0.0
H2094 H 0.21696 0.21992 0.90504 0.0
H2095 H 0.23239 0.22302 0.89245 0.0
C2096 C 0.21781 0.30191 0.91451 0.0
C2097 C 0.24919 0.31847 0.91195 0.0
C2098 C 0.19722 0.2765 0.90877 0.0
C2099 C 0.20741 0.26705 0.90033 0.0
C2100 C 0.23883 0.28317 0.89784 0.0
H2101 H 0.08987 0.10563 0.86222 0.0
H2102 H 0.13205 0.15723 0.86654 0.0
C2103 C 0.25959 0.30853 0.90365 0.0
C2104 C 0.18469 0.241 0.89402 0.0
H2105 H 0.16252 0.16791 0.88665 0.0
C2106 C 0.15997 0.24269 0.88984 0.0
C2107 C 0.186 0.21394 0.89266 0.0
C2108 C 0.21142 0.21034 0.89721 0.0
C2109 C 0.13605 0.21773 0.88467 0.0
C2110 C 0.13679 0.19034 0.88367 0.0
C2111 C 0.16216 0.18907 0.88739 0.0
C2112 C 0.10981 0.16161 0.88001 0.0
C2113 C 0.10977 0.22053 0.88051 0.0
C2114 C 0.08318 0.14738 0.88603 0.0
C2115 C 0.05931 0.11802 0.88364 0.0
C2116 C 0.06148 0.10239 0.87512 0.0
C2117 C 0.08738 0.11734 0.86874 0.0
C2118 C 0.11156 0.14668 0.87123 0.0
H2119 H 0.1163 0.24488 0.87946 0.0
H2120 H 0.10178 0.20841 0.87311 0.0
H2121 H 0.09025 0.20988 0.88596 0.0
H2122 H 0.08153 0.15835 0.89291 0.0
H2123 H 0.03967 0.10698 0.88871 0.0
H2124 H -0.00697 0.72048 0.59766 0.0
H2125 H 0.00421 0.7672 0.60689 0.0
H2126 H 0.92206 0.76091 0.59466 0.0
H2127 H 0.91063 0.71446 0.58549 0.0
H2128 H 0.01207 0.82338 0.5995 0.0
H2129 H 0.91243 0.76612 0.62572 0.0
H2130 H 0.92615 0.74526 0.61836 0.0
H2131 H 0.90215 0.75773 0.61253 0.0
C2132 C 0.97748 0.72918 0.59687 0.0
C2133 C 0.95083 0.71356 0.59087 0.0
C2134 C 0.98384 0.75579 0.60219 0.0
C2135 C 0.96355 0.76705 0.60165 0.0
C2136 C 0.9376 0.75216 0.59539 0.0
H2137 H 0.98182 0.94106 0.61099 0.0
H2138 H 0.97392 0.89166 0.60536 0.0
C2139 C 0.93126 0.72571 0.59007 0.0
C2140 C 0.96958 0.79472 0.60744 0.0
H2141 H 0.9371 0.82088 0.62459 0.0
C2142 C -0.00409 0.82278 0.60508 0.0
C2143 C 0.94869 0.79383 0.61485 0.0
C2144 C 0.92092 0.76407 0.6181 0.0
C2145 C 0.00105 0.85022 0.60953 0.0
C2146 C 0.97914 0.84955 0.61643 0.0
C2147 C 0.95366 0.82133 0.61921 0.0
C2148 C 0.9814 0.87819 0.62022 0.0
C2149 C 0.02963 0.87983 0.60667 0.0
C2150 C 0.98697 0.88641 0.63055 0.0
C2151 C -0.00849 0.9148 0.63383 0.0
C2152 C -0.00978 0.93514 0.62682 0.0
C2153 C 0.98316 0.92603 0.61658 0.0
C2154 C 0.97875 0.89785 0.61333 0.0
H2155 H 0.04767 0.87576 0.6035 0.0
H2156 H 0.02379 0.89176 0.60078 0.0
H2157 H 0.03914 0.89524 0.61338 0.0
H2158 H 0.98897 0.87142 0.63599 0.0
H2159 H -0.00248 0.92138 0.6417 0.0
H2160 H 0.31841 0.28247 0.59674 0.0
H2161 H 0.27451 0.24744 0.60734 0.0
H2162 H 0.29643 0.17632 0.6026 0.0
H2163 H 0.33951 0.21064 0.59177 0.0
H2164 H 0.2371 0.1545 0.60048 0.0
H2165 H 0.27501 0.22147 0.63628 0.0
H2166 H 0.27245 0.24307 0.62588 0.0
H2167 H 0.30001 0.2305 0.62537 0.0
C2168 C 0.31377 0.25932 0.59792 0.0
C2169 C 0.33251 0.2494 0.5934 0.0
C2170 C 0.2889 0.23944 0.60408 0.0
C2171 C 0.28266 0.20949 0.60599 0.0
C2172 C 0.30096 0.1994 0.60132 0.0
H2173 H 0.12821 0.05468 0.63761 0.0
H2174 H 0.18186 0.09031 0.63256 0.0
C2175 C 0.32555 0.21908 0.59508 0.0
C2176 C 0.25627 0.1881 0.61247 0.0
H2177 H 0.22254 0.18033 0.63576 0.0
C2178 C 0.2342 0.15996 0.60825 0.0
C2179 C 0.25259 0.19514 0.62264 0.0
C2180 C 0.27645 0.22405 0.62785 0.0
C2181 C 0.20795 0.13927 0.61375 0.0
C2182 C 0.20372 0.14684 0.62376 0.0
C2183 C 0.22606 0.17458 0.6281 0.0
C2184 C 0.17434 0.12786 0.62919 0.0
C2185 C 0.18418 0.11001 0.60867 0.0
C2186 C 0.15304 0.13782 0.62943 0.0
C2187 C 0.12269 0.11762 0.63224 0.0
C2188 C 0.11333 0.08735 0.635 0.0
C2189 C 0.13517 0.07811 0.63565 0.0
C2190 C 0.16564 0.09832 0.63271 0.0
H2191 H 0.1895 0.10908 0.6005 0.0
H2192 H 0.18306 0.0901 0.61263 0.0
H2193 H 0.16113 0.10765 0.60922 0.0
H2194 H 0.15933 0.16047 0.6267 0.0
H2195 H 0.10604 0.12503 0.63161 0.0
H2196 H 0.78909 0.0937 0.58712 0.0
H2197 H 0.83142 0.09186 0.59553 0.0
H2198 H 0.76721 0.02374 0.61648 0.0
H2199 H 0.72487 0.02485 0.60799 0.0
H2200 H 0.84999 0.10629 0.61527 0.0
H2201 H 0.81677 0.98541 0.60795 0.0
H2202 H 0.79932 0.00394 0.60132 0.0
H2203 H 0.78711 0.98937 0.61402 0.0
C2204 C 0.78393 0.07786 0.59338 0.0
C2205 C 0.75355 0.05927 0.59682 0.0
C2206 C 0.80816 0.07697 0.59823 0.0
C2207 C 0.80253 0.05745 0.60659 0.0
C2208 C 0.77215 0.0385 0.60992 0.0
H2209 H 0.92918 0.02809 0.64431 0.0
H2210 H 0.88477 0.03313 0.63962 0.0
C2211 C 0.74793 0.03924 0.60505 0.0
C2212 C 0.8285 0.05796 0.61212 0.0
H2213 H 0.85768 0.01306 0.61953 0.0
C2214 C 0.85165 0.08589 0.61619 0.0
C2215 C 0.8306 0.03129 0.61342 0.0
C2216 C 0.80729 0.00087 0.60887 0.0
C2217 C 0.87687 0.08791 0.62142 0.0
C2218 C 0.87914 0.06137 0.62259 0.0
C2219 C 0.8557 0.03331 0.61874 0.0
C2220 C 0.9072 0.06272 0.62667 0.0
C2221 C 0.90101 0.11845 0.62564 0.0
C2222 C 0.9347 0.07836 0.62114 0.0
C2223 C 0.95981 0.07536 0.62375 0.0
C2224 C 0.95805 0.0568 0.632 0.0
C2225 C 0.9313 0.04286 0.63801 0.0
C2226 C 0.90588 0.04553 0.63528 0.0
H2227 H 0.89197 0.13423 0.62668 0.0
H2228 H 0.90979 0.11559 0.63307 0.0
H2229 H 0.9206 0.12932 0.62023 0.0
H2230 H 0.93614 0.09139 0.6144 0.0
H2231 H 0.98012 0.08626 0.61897 0.0
H2232 H -0.0096 0.38033 0.43793 0.0
H2233 H 0.94713 0.37131 0.44886 0.0
H2234 H 0.93079 0.43102 0.42981 0.0
H2235 H 0.97416 0.44064 0.41903 0.0
H2236 H 0.93424 0.44542 0.45022 0.0
H2237 H 0.85486 0.32052 0.44401 0.0
H2238 H 0.89301 0.33169 0.44816 0.0
H2239 H 0.88736 0.34318 0.43579 0.0
C2240 C 0.97718 0.39104 0.43596 0.0
C2241 C 0.98571 0.41121 0.42762 0.0
C2242 C 0.95249 0.38588 0.44222 0.0
C2243 C 0.93572 0.40047 0.44014 0.0
C2244 C 0.94354 0.41968 0.43159 0.0
H2245 H 0.7789 0.40771 0.45105 0.0
H2246 H 0.83089 0.41802 0.44776 0.0
C2247 C 0.96826 0.42503 0.42541 0.0
C2248 C 0.91071 0.39702 0.44696 0.0
H2249 H 0.83754 0.34602 0.45464 0.0
C2250 C 0.91325 0.4236 0.4513 0.0
C2251 C 0.88348 0.36849 0.44846 0.0
C2252 C 0.87924 0.33932 0.44382 0.0
C2253 C 0.8887 0.42267 0.45663 0.0
C2254 C 0.86094 0.39448 0.45763 0.0
C2255 C 0.85901 0.36758 0.45388 0.0
C2256 C 0.83228 0.3931 0.46095 0.0
C2257 C 0.89215 0.45198 0.46084 0.0
C2258 C 0.8162 0.37637 0.46962 0.0
C2259 C 0.78654 0.37083 0.47161 0.0
C2260 C 0.77247 0.38136 0.46479 0.0
C2261 C 0.7893 0.39943 0.45643 0.0
C2262 C 0.81899 0.40539 0.45456 0.0
H2263 H 0.91668 0.46962 0.46199 0.0
H2264 H 0.88218 0.46125 0.45536 0.0
H2265 H 0.87972 0.44779 0.4682 0.0
H2266 H 0.82605 0.36651 0.47459 0.0
H2267 H 0.77384 0.35645 0.47802 0.0
H2268 H 0.60255 0.57016 0.41646 0.0
H2269 H 0.60284 0.52579 0.42387 0.0
H2270 H 0.6694 0.58448 0.44613 0.0
H2271 H 0.66956 0.62895 0.43875 0.0
H2272 H 0.65974 0.51994 0.42786 0.0
H2273 H 0.59204 0.51323 0.46231 0.0
H2274 H 0.59042 0.53129 0.45063 0.0
H2275 H 0.62349 0.5503 0.4587 0.0
C2276 C 0.61753 0.57369 0.42285 0.0
C2277 C 0.63604 0.60312 0.427 0.0
C2278 C 0.61756 0.54831 0.4271 0.0
C2279 C 0.63578 0.55185 0.43564 0.0
C2280 C 0.65488 0.58125 0.43962 0.0
H2281 H 0.66337 0.42629 0.47346 0.0
H2282 H 0.65734 0.46883 0.46738 0.0
C2283 C 0.65509 0.60666 0.43534 0.0
C2284 C 0.63501 0.52485 0.44036 0.0
H2285 H 0.61041 0.47866 0.46142 0.0
C2286 C 0.64886 0.51079 0.43517 0.0
C2287 C 0.62112 0.5133 0.44995 0.0
C2288 C 0.60572 0.52759 0.45576 0.0
C2289 C 0.6495 0.4856 0.43937 0.0
C2290 C 0.63496 0.47348 0.44888 0.0
C2291 C 0.6213 0.48776 0.45411 0.0
C2292 C 0.63397 0.44608 0.45345 0.0
C2293 C 0.66651 0.47278 0.43368 0.0
C2294 C 0.62118 0.41852 0.44797 0.0
C2295 C 0.62478 0.3944 0.45139 0.0
C2296 C 0.64062 0.39706 0.46048 0.0
C2297 C 0.65085 0.4235 0.46647 0.0
C2298 C 0.64761 0.4479 0.46296 0.0
H2299 H 0.68357 0.48978 0.42826 0.0
H2300 H 0.67868 0.46552 0.43901 0.0
H2301 H 0.64987 0.45251 0.4292 0.0
H2302 H 0.60969 0.41619 0.44078 0.0
H2303 H 0.61642 0.37417 0.44666 0.0
H2304 H 0.44286 0.03704 0.42091 0.0
H2305 H 0.48726 0.08217 0.42832 0.0
H2306 H 0.42912 0.08645 0.45157 0.0
H2307 H 0.3846 0.04145 0.44423 0.0
H2308 H 0.49519 0.14277 0.4325 0.0
H2309 H 0.4992 0.08246 0.4674 0.0
H2310 H 0.47905 0.06223 0.45601 0.0
H2311 H 0.46268 0.07847 0.46428 0.0
C2312 C 0.43944 0.0478 0.42753 0.0
C2313 C 0.41019 0.0356 0.43199 0.0
C2314 C 0.46484 0.07348 0.43177 0.0
C2315 C 0.46152 0.08721 0.4406 0.0
C2316 C 0.43223 0.0758 0.44486 0.0
H2317 H 0.59201 0.2453 0.47633 0.0
H2318 H 0.54764 0.19603 0.4712 0.0
C2319 C 0.40678 0.05025 0.44059 0.0
C2320 C 0.48872 0.11359 0.44531 0.0
H2321 H 0.53481 0.13567 0.46638 0.0
C2322 C 0.50391 0.14123 0.43989 0.0
C2323 C 0.49981 0.1115 0.455 0.0
C2324 C 0.48456 0.08205 0.46102 0.0
C2325 C 0.52985 0.16699 0.44392 0.0
C2326 C 0.54145 0.16478 0.45351 0.0
C2327 C 0.52601 0.13722 0.45901 0.0
C2328 C 0.56977 0.19098 0.45781 0.0
C2329 C 0.54428 0.19655 0.43793 0.0
C2330 C 0.59745 0.20333 0.45236 0.0
C2331 C 0.62261 0.23138 0.45523 0.0
C2332 C 0.62074 0.24736 0.4637 0.0
C2333 C 0.59414 0.23343 0.46979 0.0
C2334 C 0.56872 0.2054 0.46683 0.0
H2335 H 0.52801 0.19682 0.4323 0.0
H2336 H 0.55219 0.21662 0.44306 0.0
H2337 H 0.56446 0.19911 0.43368 0.0
H2338 H 0.59902 0.19214 0.44554 0.0
H2339 H 0.64295 0.24146 0.45045 0.0
H2340 H 0.76312 0.66092 0.74991 0.0
H2341 H 0.76288 0.61627 0.74253 0.0
H2342 H 0.69658 0.60767 0.72017 0.0
H2343 H 0.69644 0.65205 0.7275 0.0
H2344 H 0.70819 0.5536 0.73872 0.0
H2345 H 0.77267 0.61491 0.70375 0.0
H2346 H 0.77367 0.63484 0.71531 0.0
H2347 H 0.74037 0.61882 0.7073 0.0
C2348 C 0.74817 0.64928 0.74351 0.0
C2349 C 0.72982 0.66006 0.73929 0.0
C2350 C 0.74819 0.6239 0.73928 0.0
C2351 C 0.73015 0.60912 0.7307 0.0
C2352 C 0.71102 0.61912 0.72669 0.0
H2353 H 0.70023 0.45322 0.69408 0.0
H2354 H 0.70716 0.50273 0.69956 0.0
C2355 C 0.71079 0.64432 0.73095 0.0
C2356 C 0.73122 0.58313 0.72596 0.0
H2357 H 0.75512 0.56189 0.7047 0.0
C2358 C 0.71854 0.55539 0.73131 0.0
C2359 C 0.74449 0.58558 0.71625 0.0
C2360 C 0.75879 0.61515 0.71029 0.0
C2361 C 0.71843 0.5298 0.72715 0.0
C2362 C 0.73229 0.53235 0.7175 0.0
C2363 C 0.74477 0.56007 0.71211 0.0
C2364 C 0.73363 0.50617 0.71297 0.0
C2365 C 0.70276 0.50004 0.73303 0.0
C2366 C 0.74801 0.49286 0.71829 0.0
C2367 C 0.74388 0.46462 0.71523 0.0
C2368 C 0.72584 0.4495 0.70667 0.0
C2369 C 0.71436 0.46446 0.70068 0.0
C2370 C 0.71813 0.49262 0.70385 0.0
H2371 H 0.68621 0.49961 0.73871 0.0
H2372 H 0.69027 0.48015 0.72783 0.0
H2373 H 0.72029 0.49731 0.73721 0.0
H2374 H 0.76084 0.50339 0.72518 0.0
H2375 H 0.7532 0.45368 0.71993 0.0
H2376 H 0.37588 0.0798 0.73632 0.0
H2377 H 0.42132 0.11705 0.72663 0.0
H2378 H 0.42889 0.18992 0.74569 0.0
H2379 H 0.38368 0.15317 0.75534 0.0
H2380 H 0.42822 0.17471 0.71632 0.0
H2381 H 0.51587 0.19601 0.74573 0.0
H2382 H 0.4787 0.16135 0.74541 0.0
H2383 H 0.48233 0.19623 0.75024 0.0
C2384 C 0.38749 0.10369 0.73854 0.0
C2385 C 0.37619 0.11348 0.74664 0.0
C2386 C 0.41326 0.12494 0.73294 0.0
C2387 C 0.42839 0.15618 0.73546 0.0
C2388 C 0.41758 0.16588 0.74366 0.0
H2389 H 0.5858 0.32687 0.72054 0.0
H2390 H 0.53597 0.28519 0.7262 0.0
C2391 C 0.39175 0.1448 0.74917 0.0
C2392 C 0.45534 0.17907 0.72953 0.0
H2393 H 0.53167 0.23115 0.73198 0.0
C2394 C 0.45097 0.18688 0.71966 0.0
C2395 C 0.48488 0.19479 0.73393 0.0
C2396 C 0.49096 0.18661 0.74438 0.0
C2397 C 0.47526 0.2111 0.71424 0.0
C2398 C 0.50462 0.22749 0.71879 0.0
C2399 C 0.50908 0.21881 0.72852 0.0
C2400 C 0.53108 0.25452 0.71392 0.0
C2401 C 0.46905 0.21975 0.70389 0.0
C2402 C 0.5442 0.2518 0.7048 0.0
C2403 C 0.57263 0.27598 0.70143 0.0
C2404 C 0.58846 0.3029 0.70725 0.0
C2405 C 0.57412 0.30635 0.71592 0.0
C2406 C 0.54571 0.28248 0.71919 0.0
H2407 H 0.44407 0.20951 0.70246 0.0
H2408 H 0.48039 0.24503 0.70311 0.0
H2409 H 0.47857 0.21132 0.69792 0.0
H2410 H 0.53357 0.23033 0.70066 0.0
H2411 H 0.58336 0.27256 0.6948 0.0
H2412 H 0.86408 0.23033 0.75231 0.0
H2413 H 0.83023 0.24044 0.7419 0.0
H2414 H 0.90889 0.3154 0.72719 0.0
H2415 H 0.94311 0.30584 0.73775 0.0
H2416 H 0.86564 0.32995 0.73208 0.0
H2417 H 0.8103 0.21833 0.71215 0.0
H2418 H 0.8076 0.21373 0.72573 0.0
H2419 H 0.84471 0.23181 0.71964 0.0
C2420 C 0.87426 0.2491 0.74691 0.0
C2421 C 0.90634 0.26716 0.74583 0.0
C2422 C 0.85484 0.25463 0.74087 0.0
C2423 C 0.86701 0.27806 0.73354 0.0
C2424 C 0.89901 0.29691 0.7327 0.0
H2425 H 0.76182 0.33335 0.69407 0.0
H2426 H 0.80101 0.32045 0.69882 0.0
C2427 C 0.91853 0.29151 0.73879 0.0
C2428 C 0.84617 0.28329 0.727 0.0
H2429 H 0.78361 0.24658 0.7114 0.0
C2430 C 0.84812 0.31193 0.7274 0.0
C2431 C 0.82346 0.25983 0.7208 0.0
C2432 C 0.82157 0.22932 0.71946 0.0
C2433 C 0.82683 0.31712 0.72225 0.0
C2434 C 0.80309 0.29309 0.71658 0.0
C2435 C 0.80188 0.26491 0.71579 0.0
C2436 C 0.77743 0.29598 0.71252 0.0
C2437 C 0.82879 0.34775 0.72331 0.0
C2438 C 0.75086 0.28541 0.71845 0.0
C2439 C 0.72868 0.29279 0.71579 0.0
C2440 C 0.73254 0.31061 0.70709 0.0
C2441 C 0.75806 0.31921 0.70072 0.0
C2442 C 0.78052 0.31207 0.70346 0.0
H2443 H 0.84866 0.36408 0.72802 0.0
H2444 H 0.83093 0.35798 0.71565 0.0
H2445 H 0.80738 0.34458 0.72685 0.0
H2446 H 0.74816 0.27298 0.72546 0.0
H2447 H 0.70921 0.28586 0.72083 0.0
H2448 H 0.38307 0.36576 0.2287 0.0
H2449 H 0.43293 0.3775 0.22186 0.0
H2450 H 0.43486 0.31266 0.24271 0.0
H2451 H 0.38462 0.30028 0.24946 0.0
H2452 H 0.48991 0.39935 0.23015 0.0
H2453 H 0.4454 0.2819 0.21523 0.0
H2454 H 0.42047 0.2952 0.2198 0.0
H2455 H 0.43892 0.28255 0.22866 0.0
C2456 C 0.3942 0.35416 0.23191 0.0
C2457 C 0.37971 0.33186 0.23958 0.0
C2458 C 0.42272 0.3609 0.22797 0.0
C2459 C 0.43732 0.34545 0.2316 0.0
C2460 C 0.42365 0.32429 0.23961 0.0
H2461 H 0.62163 0.3839 0.22662 0.0
H2462 H 0.57482 0.38463 0.23044 0.0
C2463 C 0.39504 0.31743 0.24353 0.0
C2464 C 0.46648 0.351 0.22687 0.0
H2465 H 0.49983 0.31456 0.21535 0.0
C2466 C 0.49204 0.38086 0.22684 0.0
C2467 C 0.46906 0.32707 0.2223 0.0
C2468 C 0.44193 0.29494 0.22138 0.0
C2469 C 0.52044 0.38714 0.22278 0.0
C2470 C 0.52351 0.36281 0.21881 0.0
C2471 C 0.4976 0.33322 0.21844 0.0
C2472 C 0.55373 0.36682 0.21577 0.0
C2473 C 0.54685 0.41978 0.22278 0.0
C2474 C 0.55771 0.35668 0.20621 0.0
C2475 C 0.58454 0.35596 0.20403 0.0
C2476 C 0.60774 0.36524 0.2114 0.0
C2477 C 0.60425 0.37673 0.22076 0.0
C2478 C 0.57753 0.37739 0.22293 0.0
H2479 H 0.53849 0.43629 0.22258 0.0
H2480 H 0.56028 0.42404 0.22989 0.0
H2481 H 0.56238 0.42436 0.21618 0.0
H2482 H 0.53953 0.34813 0.20059 0.0
H2483 H 0.58614 0.34627 0.19687 0.0
H2484 H 0.73906 0.11077 0.24596 0.0
H2485 H 0.7224 0.14507 0.23931 0.0
H2486 H 0.63598 0.06709 0.2302 0.0
H2487 H 0.65302 0.03264 0.2365 0.0
H2488 H 0.65839 0.10793 0.2153 0.0
H2489 H 0.66412 0.16823 0.25107 0.0
H2490 H 0.70022 0.17106 0.24829 0.0
H2491 H 0.66694 0.13413 0.25089 0.0
C2492 C 0.71632 0.10092 0.24269 0.0
C2493 C 0.69729 0.069 0.24182 0.0
C2494 C 0.70676 0.12057 0.23891 0.0
C2495 C 0.6777 0.10871 0.23439 0.0
C2496 C 0.65845 0.07681 0.23367 0.0
H2497 H 0.61666 0.23824 0.22311 0.0
H2498 H 0.6158 0.19121 0.22793 0.0
C2499 C 0.66817 0.05714 0.23733 0.0
C2500 C 0.66798 0.12962 0.23005 0.0
H2501 H 0.66273 0.1926 0.23561 0.0
C2502 C 0.65895 0.12623 0.21977 0.0
C2503 C 0.6681 0.15315 0.2359 0.0
C2504 C 0.67504 0.15666 0.24718 0.0
C2505 C 0.65106 0.14633 0.21512 0.0
C2506 C 0.65313 0.17107 0.22081 0.0
C2507 C 0.66128 0.17383 0.23117 0.0
C2508 C 0.64803 0.19511 0.21628 0.0
C2509 C 0.64033 0.14059 0.20419 0.0
C2510 C 0.66505 0.21215 0.20774 0.0
C2511 C 0.66475 0.23859 0.20477 0.0
C2512 C 0.64817 0.24883 0.21049 0.0
C2513 C 0.62961 0.23075 0.21858 0.0
C2514 C 0.62929 0.20399 0.22138 0.0
H2515 H 0.6295 0.1159 0.20223 0.0
H2516 H 0.62357 0.14817 0.20268 0.0
H2517 H 0.66041 0.15343 0.19908 0.0
H2518 H 0.68024 0.20633 0.20379 0.0
H2519 H 0.67959 0.25243 0.1986 0.0
H2520 H 0.96934 0.64828 0.23498 0.0
H2521 H 0.94167 0.59894 0.22608 0.0
H2522 H 0.858 0.57921 0.24141 0.0
H2523 H 0.88513 0.62845 0.25014 0.0
H2524 H 0.90827 0.53885 0.23249 0.0
H2525 H 0.83322 0.57023 0.21165 0.0
H2526 H 0.86699 0.59809 0.21844 0.0
H2527 H 0.83136 0.5748 0.22514 0.0
C2528 C 0.94508 0.63333 0.23651 0.0
C2529 C 0.92938 0.6425 0.24319 0.0
C2530 C 0.92931 0.60517 0.2314 0.0
C2531 C 0.89761 0.58575 0.23288 0.0
C2532 C 0.88227 0.59422 0.23992 0.0
H2533 H 0.77076 0.39803 0.22675 0.0
H2534 H 0.81605 0.44726 0.23046 0.0
C2535 C 0.89789 0.62234 0.24496 0.0
C2536 C 0.88017 0.5567 0.22707 0.0
H2537 H 0.81552 0.51637 0.21274 0.0
C2538 C 0.88825 0.53405 0.22804 0.0
C2539 C 0.85462 0.55071 0.22098 0.0
C2540 C 0.84624 0.57489 0.21889 0.0
C2541 C 0.87018 0.50486 0.22366 0.0
C2542 C 0.84295 0.49797 0.2184 0.0
C2543 C 0.83614 0.52136 0.21686 0.0
C2544 C 0.81942 0.4662 0.21539 0.0
C2545 C 0.88033 0.48167 0.22484 0.0
C2546 C 0.80609 0.46005 0.20564 0.0
C2547 C 0.77961 0.4319 0.20354 0.0
C2548 C 0.76605 0.40936 0.21116 0.0
C2549 C 0.78066 0.41484 0.22069 0.0
C2550 C 0.80687 0.44299 0.2228 0.0
H2551 H 0.90578 0.49315 0.22515 0.0
H2552 H 0.87123 0.46913 0.23213 0.0
H2553 H 0.87192 0.46486 0.2185 0.0
H2554 H 0.81517 0.47765 0.19981 0.0
H2555 H 0.76861 0.42882 0.19623 0.0
H2556 H 0.64019 0.04732 0.93396 0.0
H2557 H 0.64736 0.08948 0.94504 0.0
H2558 H 0.58255 0.10074 0.92696 0.0
H2559 H 0.57481 0.05845 0.91601 0.0
H2560 H 0.66612 0.14989 0.94169 0.0
H2561 H 0.54578 0.08895 0.95524 0.0
H2562 H 0.5622 0.06993 0.94826 0.0
H2563 H 0.54809 0.09142 0.9416 0.0
C2564 C 0.62778 0.05905 0.93226 0.0
C2565 C 0.6067 0.04931 0.92415 0.0
C2566 C 0.63176 0.08301 0.93864 0.0
C2567 C 0.61475 0.0976 0.93702 0.0
C2568 C 0.59513 0.08912 0.92857 0.0
H2569 H 0.61042 0.25538 0.95238 0.0
H2570 H 0.60085 0.20507 0.94703 0.0
C2571 C 0.59098 0.06513 0.92224 0.0
C2572 C 0.61737 0.12177 0.94408 0.0
H2573 H 0.57427 0.14356 0.95797 0.0
C2574 C 0.64617 0.14828 0.94542 0.0
C2575 C 0.59134 0.1195 0.94905 0.0
C2576 C 0.56018 0.09076 0.94856 0.0
C2577 C 0.64927 0.17334 0.95104 0.0
C2578 C 0.62292 0.17171 0.95547 0.0
C2579 C 0.5944 0.1447 0.95455 0.0
C2580 C 0.62407 0.19919 0.95989 0.0
C2581 C 0.68038 0.20207 0.95174 0.0
C2582 C 0.639 0.21182 0.96917 0.0
C2583 C 0.64418 0.24054 0.97233 0.0
C2584 C 0.63476 0.25699 0.96617 0.0
C2585 C 0.61796 0.24321 0.95726 0.0
C2586 C 0.61252 0.21451 0.95419 0.0
H2587 H 0.69809 0.20047 0.94719 0.0
H2588 H 0.67899 0.22212 0.94904 0.0
H2589 H 0.68788 0.2063 0.95982 0.0
H2590 H 0.64792 0.20018 0.9737 0.0
H2591 H 0.65748 0.25077 0.97916 0.0
H2592 H 0.98494 0.6168 0.9364 0.0
H2593 H 0.9424 0.58168 0.94745 0.0
H2594 H 0.93518 0.50462 0.93093 0.0
H2595 H 0.97807 0.53941 0.92004 0.0
H2596 H 0.88355 0.53931 0.94379 0.0
H2597 H 0.9423 0.48161 0.95976 0.0
H2598 H 0.96232 0.51649 0.95241 0.0
H2599 H 0.94123 0.47993 0.94611 0.0
C2600 C 0.97413 0.59238 0.93506 0.0
C2601 C 0.98509 0.58091 0.92738 0.0
C2602 C 0.94993 0.57233 0.94143 0.0
C2603 C 0.93623 0.54049 0.94023 0.0
C2604 C 0.9461 0.52907 0.93224 0.0
H2605 H 0.77446 0.37933 0.95437 0.0
H2606 H 0.8263 0.41953 0.94973 0.0
C2607 C 0.97042 0.54903 0.92594 0.0
C2608 C 0.91113 0.51907 0.94714 0.0
H2609 H 0.88716 0.45488 0.96173 0.0
C2610 C 0.88458 0.52125 0.94789 0.0
C2611 C 0.91261 0.49567 0.95259 0.0
C2612 C 0.9413 0.49347 0.95278 0.0
C2613 C 0.85878 0.49951 0.95339 0.0
C2614 C 0.85965 0.47509 0.95829 0.0
C2615 C 0.88663 0.47368 0.95796 0.0
C2616 C 0.83138 0.44874 0.96249 0.0
C2617 C 0.8301 0.50175 0.95346 0.0
C2618 C 0.81776 0.45126 0.97151 0.0
C2619 C 0.78814 0.428 0.97427 0.0
C2620 C 0.77182 0.40231 0.96794 0.0
C2621 C 0.78653 0.39895 0.95936 0.0
C2622 C 0.81611 0.42188 0.9567 0.0
H2623 H 0.83258 0.52111 0.94875 0.0
H2624 H 0.81033 0.48013 0.95056 0.0
H2625 H 0.82468 0.50502 0.9614 0.0
H2626 H 0.82933 0.47186 0.97609 0.0
H2627 H 0.7772 0.43125 0.98088 0.0
H2628 H 0.45401 0.42742 0.9209 0.0
H2629 H 0.49729 0.42678 0.92908 0.0
H2630 H 0.43481 0.35795 0.9502 0.0
H2631 H 0.39158 0.35776 0.9419 0.0
H2632 H 0.51718 0.44172 0.94845 0.0
H2633 H 0.48517 0.32111 0.94161 0.0
H2634 H 0.4666 0.33874 0.93512 0.0
H2635 H 0.4553 0.3242 0.94789 0.0
C2636 C 0.44944 0.41166 0.92714 0.0
C2637 C 0.41928 0.39245 0.93068 0.0
C2638 C 0.47423 0.41146 0.93186 0.0
C2639 C 0.46935 0.39207 0.9402 0.0
C2640 C 0.43919 0.37258 0.94363 0.0
H2641 H 0.59345 0.36513 0.97963 0.0
H2642 H 0.55049 0.37146 0.97414 0.0
C2643 C 0.41444 0.37257 0.93888 0.0
C2644 C 0.49582 0.39321 0.94562 0.0
H2645 H 0.52524 0.34895 0.95354 0.0
C2646 C 0.51897 0.42143 0.94953 0.0
C2647 C 0.49817 0.36674 0.94708 0.0
C2648 C 0.47515 0.33606 0.94262 0.0
C2649 C 0.54424 0.42384 0.95486 0.0
C2650 C 0.54646 0.39738 0.95633 0.0
C2651 C 0.52322 0.36914 0.95254 0.0
C2652 C 0.57404 0.39878 0.96087 0.0
C2653 C 0.56842 0.45462 0.9589 0.0
C2654 C 0.60178 0.41291 0.95544 0.0
C2655 C 0.62614 0.40916 0.95851 0.0
C2656 C 0.62332 0.39137 0.96713 0.0
C2657 C 0.59643 0.37929 0.97305 0.0
C2658 C 0.5718 0.38267 0.96987 0.0
H2659 H 0.55998 0.47105 0.95927 0.0
H2660 H 0.57599 0.45226 0.96662 0.0
H2661 H 0.58873 0.46436 0.95378 0.0
H2662 H 0.60391 0.42513 0.94842 0.0
H2663 H 0.64654 0.41862 0.95378 0.0
H2664 H 0.65611 0.79817 0.74937 0.0
H2665 H 0.60846 0.78624 0.75794 0.0
H2666 H 0.60079 0.70366 0.77024 0.0
H2667 H 0.6486 0.71526 0.76159 0.0
H2668 H 0.54585 0.69556 0.76225 0.0
H2669 H 0.5989 0.79456 0.78864 0.0
H2670 H 0.60852 0.8054 0.77553 0.0
H2671 H 0.62112 0.7818 0.78158 0.0
C2672 C 0.64433 0.77737 0.75386 0.0
C2673 C 0.65632 0.75775 0.75484 0.0
C2674 C 0.6172 0.77075 0.75882 0.0
C2675 C 0.60155 0.7445 0.76492 0.0
C2676 C 0.61278 0.72425 0.76566 0.0
H2677 H 0.44553 0.71004 0.80392 0.0
H2678 H 0.49589 0.71979 0.79818 0.0
C2679 C 0.64002 0.73086 0.76068 0.0
C2680 C 0.57307 0.73803 0.77029 0.0
H2681 H 0.54415 0.76925 0.78685 0.0
C2682 C 0.54551 0.71147 0.76772 0.0
C2683 C 0.57278 0.75859 0.77756 0.0
C2684 C 0.60196 0.78653 0.78108 0.0
C2685 C 0.5174 0.70565 0.77184 0.0
C2686 C 0.5169 0.72722 0.77859 0.0
C2687 C 0.54461 0.75301 0.78156 0.0
C2688 C 0.48764 0.72391 0.78224 0.0
C2689 C 0.48843 0.67659 0.76887 0.0
C2690 C 0.46695 0.72429 0.77523 0.0
C2691 C 0.4383 0.71886 0.77846 0.0
C2692 C 0.42978 0.71307 0.7888 0.0
C2693 C 0.45126 0.71437 0.7959 0.0
C2694 C 0.48002 0.71982 0.79264 0.0
H2695 H 0.49345 0.65888 0.76604 0.0
H2696 H 0.4723 0.66701 0.77542 0.0
H2697 H 0.47683 0.68174 0.76266 0.0
H2698 H 0.47273 0.72815 0.7672 0.0
H2699 H 0.4225 0.71835 0.77279 0.0
H2700 H 0.2673 0.90795 0.75621 0.0
H2701 H 0.26779 0.86518 0.76476 0.0
H2702 H 0.34014 0.92872 0.78459 0.0
H2703 H 0.3402 0.97158 0.77598 0.0
H2704 H 0.34986 0.88324 0.77785 0.0
H2705 H 0.23129 0.83279 0.79282 0.0
H2706 H 0.23364 0.83742 0.77923 0.0
H2707 H 0.25191 0.87068 0.78731 0.0
C2708 C 0.2836 0.91286 0.7623 0.0
C2709 C 0.30363 0.94321 0.76543 0.0
C2710 C 0.28359 0.88835 0.76727 0.0
C2711 C 0.30342 0.89367 0.77551 0.0
C2712 C 0.32439 0.92401 0.77834 0.0
H2713 H 0.33657 0.76566 0.81122 0.0
H2714 H 0.33236 0.81088 0.8073 0.0
C2715 C 0.32446 0.94851 0.77337 0.0
C2716 C 0.30245 0.86768 0.78115 0.0
H2717 H 0.25462 0.80205 0.79431 0.0
C2718 C 0.32915 0.86569 0.78155 0.0
C2719 C 0.27546 0.84488 0.78607 0.0
C2720 C 0.24653 0.84663 0.78644 0.0
C2721 C 0.32925 0.84086 0.78632 0.0
C2722 C 0.30201 0.8176 0.79097 0.0
C2723 C 0.27551 0.81997 0.7908 0.0
C2724 C 0.29986 0.78912 0.795 0.0
C2725 C 0.35814 0.83901 0.78593 0.0
C2726 C 0.2814 0.76139 0.78989 0.0
C2727 C 0.28356 0.73562 0.79218 0.0
C2728 C 0.30403 0.73696 0.79968 0.0
C2729 C 0.32033 0.76384 0.80549 0.0
C2730 C 0.31828 0.78981 0.80315 0.0
H2731 H 0.37541 0.85598 0.78055 0.0
H2732 H 0.36861 0.84362 0.79362 0.0
H2733 H 0.3528 0.81572 0.78359 0.0
H2734 H 0.26687 0.76024 0.78364 0.0
H2735 H 0.27073 0.71519 0.78758 0.0
H2736 H 0.04882 0.37262 0.77639 0.0
H2737 H 0.09273 0.41873 0.78348 0.0
H2738 H 0.152 0.41367 0.76085 0.0
H2739 H 0.10825 0.36738 0.75373 0.0
H2740 H 0.15097 0.42244 0.79083 0.0
H2741 H 0.16681 0.50376 0.75967 0.0
H2742 H 0.1309 0.46856 0.76179 0.0
H2743 H 0.16243 0.46761 0.75584 0.0
C2744 C 0.07111 0.38152 0.77283 0.0
C2745 C 0.07503 0.36639 0.76446 0.0
C2746 C 0.09618 0.40774 0.77694 0.0
C2747 C 0.12552 0.41952 0.77269 0.0
C2748 C 0.12945 0.40496 0.7642 0.0
H2749 H 0.30185 0.57999 0.7814 0.0
H2750 H 0.25964 0.52926 0.77686 0.0
C2751 C 0.10443 0.37858 0.76013 0.0
C2752 C 0.15218 0.4468 0.77722 0.0
H2753 H 0.2047 0.52172 0.77246 0.0
C2754 C 0.16276 0.44423 0.78686 0.0
C2755 C 0.16734 0.47507 0.77201 0.0
C2756 C 0.15628 0.4792 0.76178 0.0
C2757 C 0.1888 0.46914 0.7913 0.0
C2758 C 0.20414 0.49743 0.78604 0.0
C2759 C 0.19311 0.49998 0.77647 0.0
C2760 C 0.23198 0.52483 0.79009 0.0
C2761 C 0.2001 0.46468 0.80142 0.0
C2762 C 0.23123 0.53861 0.79932 0.0
C2763 C 0.25583 0.5675 0.80205 0.0
C2764 C 0.28106 0.58311 0.79546 0.0
C2765 C 0.28261 0.56838 0.7866 0.0
C2766 C 0.25843 0.53947 0.78398 0.0
H2767 H 0.19121 0.44005 0.80306 0.0
H2768 H 0.22559 0.47706 0.80165 0.0
H2769 H 0.19197 0.47391 0.80757 0.0
H2770 H 0.21089 0.52804 0.80408 0.0
H2771 H 0.25398 0.57863 0.80885 0.0
H2772 H 0.36256 0.98391 0.06528 0.0
H2773 H 0.36018 0.94023 0.05634 0.0
H2774 H 0.42027 0.93623 0.07879 0.0
H2775 H 0.42279 0.97978 0.08777 0.0
H2776 H 0.4129 0.9383 0.04825 0.0
H2777 H 0.34687 0.84704 0.0768 0.0
H2778 H 0.34723 0.88291 0.07666 0.0
H2779 H 0.3791 0.88108 0.08191 0.0
C2780 C 0.37483 0.97338 0.06842 0.0
C2781 C 0.39276 0.98522 0.07727 0.0
C2782 C 0.37361 0.94859 0.06326 0.0
C2783 C 0.38997 0.93499 0.06693 0.0
C2784 C 0.40722 0.94622 0.0759 0.0
H2785 H 0.41736 0.78645 0.05208 0.0
H2786 H 0.42322 0.83488 0.05794 0.0
C2787 C 0.40861 0.97109 0.08103 0.0
C2788 C 0.38992 0.90968 0.06124 0.0
H2789 H 0.37098 0.83505 0.06353 0.0
C2790 C 0.40355 0.91561 0.05153 0.0
C2791 C 0.37764 0.88018 0.06555 0.0
C2792 C 0.36162 0.87222 0.07576 0.0
C2793 C 0.40622 0.89299 0.04616 0.0
C2794 C 0.39454 0.86369 0.05059 0.0
C2795 C 0.38024 0.85765 0.06019 0.0
C2796 C 0.39702 0.83872 0.0456 0.0
C2797 C 0.42231 0.90089 0.03597 0.0
C2798 C 0.38178 0.82565 0.03639 0.0
C2799 C 0.37882 0.79807 0.03292 0.0
C2800 C 0.3906 0.78305 0.03874 0.0
C2801 C 0.40797 0.79751 0.04748 0.0
C2802 C 0.41122 0.82511 0.05085 0.0
H2803 H 0.4363 0.92606 0.03478 0.0
H2804 H 0.43745 0.89098 0.03525 0.0
H2805 H 0.4049 0.89109 0.02982 0.0
H2806 H 0.37029 0.83552 0.03227 0.0
H2807 H 0.36502 0.78722 0.02623 0.0
H2808 H 0.01112 0.46139 0.0652 0.0
H2809 H 0.05437 0.49595 0.05442 0.0
H2810 H 0.11334 0.47311 0.07133 0.0
H2811 H 0.06924 0.43686 0.08176 0.0
H2812 H 0.10108 0.54525 0.06002 0.0
H2813 H 0.14405 0.47372 0.04343 0.0
H2814 H 0.10747 0.45727 0.04987 0.0
H2815 H 0.14239 0.47081 0.05706 0.0
C2816 C 0.03323 0.46329 0.06646 0.0
C2817 C 0.03701 0.44661 0.07429 0.0
C2818 C 0.05794 0.48307 0.06031 0.0
C2819 C 0.08722 0.48715 0.06197 0.0
C2820 C 0.09089 0.46985 0.06968 0.0
H2821 H 0.25741 0.65086 0.05441 0.0
H2822 H 0.20588 0.61018 0.05876 0.0
C2823 C 0.0658 0.44932 0.0757 0.0
C2824 C 0.11411 0.51178 0.05637 0.0
H2825 H 0.17963 0.52837 0.04349 0.0
C2826 C 0.11792 0.5413 0.05627 0.0
C2827 C 0.13595 0.50681 0.05127 0.0
C2828 C 0.13207 0.47534 0.05031 0.0
C2829 C 0.14344 0.56608 0.05162 0.0
C2830 C 0.16652 0.56162 0.04728 0.0
C2831 C 0.16211 0.5319 0.04693 0.0
C2832 C 0.19661 0.58785 0.04405 0.0
C2833 C 0.14545 0.59686 0.0515 0.0
C2834 C 0.20882 0.5889 0.03431 0.0
C2835 C 0.23869 0.61219 0.03182 0.0
C2836 C 0.25678 0.63463 0.03905 0.0
C2837 C 0.24401 0.63404 0.04864 0.0
C2838 C 0.2144 0.61085 0.05112 0.0
H2839 H 0.1222 0.59417 0.05144 0.0
H2840 H 0.15726 0.60968 0.05851 0.0
H2841 H 0.15843 0.61069 0.04477 0.0
H2842 H 0.19559 0.57122 0.02876 0.0
H2843 H 0.24815 0.61156 0.02448 0.0
H2844 H 0.52861 0.57667 0.08438 0.0
H2845 H 0.49964 0.58829 0.07219 0.0
H2846 H 0.58388 0.65483 0.05753 0.0
H2847 H 0.61338 0.64353 0.06986 0.0
H2848 H 0.54167 0.6746 0.06002 0.0
H2849 H 0.48517 0.55944 0.0426 0.0
H2850 H 0.48075 0.55725 0.0562 0.0
H2851 H 0.51853 0.57338 0.05069 0.0
C2852 C 0.54111 0.59396 0.07862 0.0
C2853 C 0.57332 0.60897 0.07804 0.0
C2854 C 0.52446 0.60036 0.0716 0.0
C2855 C 0.53955 0.62165 0.06376 0.0
C2856 C 0.57179 0.63793 0.06343 0.0
H2857 H 0.43316 0.67496 0.0237 0.0
H2858 H 0.4747 0.6646 0.02762 0.0
C2859 C 0.58859 0.63161 0.07052 0.0
C2860 C 0.52118 0.62692 0.0561 0.0
H2861 H 0.45872 0.588 0.04065 0.0
C2862 C 0.52409 0.65595 0.05555 0.0
C2863 C 0.49851 0.6026 0.05017 0.0
C2864 C 0.49577 0.57151 0.04985 0.0
C2865 C 0.50312 0.66056 0.04993 0.0
C2866 C 0.47886 0.63552 0.04473 0.0
C2867 C 0.47733 0.60711 0.04467 0.0
C2868 C 0.45218 0.63716 0.04097 0.0
C2869 C 0.50557 0.69152 0.05021 0.0
C2870 C 0.42539 0.62395 0.0469 0.0
C2871 C 0.40193 0.62991 0.04473 0.0
C2872 C 0.4047 0.64886 0.0365 0.0
C2873 C 0.43039 0.66003 0.03003 0.0
C2874 C 0.45417 0.65434 0.0323 0.0
H2875 H 0.52517 0.70831 0.05492 0.0
H2876 H 0.50861 0.70072 0.04234 0.0
H2877 H 0.48405 0.68926 0.05332 0.0
H2878 H 0.42346 0.61059 0.05361 0.0
H2879 H 0.38232 0.62101 0.04981 0.0
H2880 H 0.04528 0.60429 0.58455 0.0
H2881 H 0.08913 0.60365 0.57682 0.0
H2882 H 0.09665 0.66888 0.5542 0.0
H2883 H 0.05282 0.66965 0.56186 0.0
H2884 H 0.09663 0.61556 0.54619 0.0
H2885 H 0.18081 0.67211 0.57749 0.0
H2886 H 0.14426 0.6405 0.58137 0.0
H2887 H 0.14651 0.67459 0.57635 0.0
C2888 C 0.05655 0.61888 0.57804 0.0
C2889 C 0.04563 0.63715 0.57387 0.0
C2890 C 0.08159 0.61845 0.57361 0.0
C2891 C 0.09619 0.63629 0.56495 0.0
C2892 C 0.08568 0.65492 0.56087 0.0
H2893 H 0.25034 0.66232 0.52726 0.0
H2894 H 0.20111 0.65659 0.53258 0.0
C2895 C 0.06076 0.65548 0.56531 0.0
C2896 C 0.12202 0.63501 0.56003 0.0
H2897 H 0.19511 0.65039 0.56418 0.0
C2898 C 0.11824 0.62323 0.55009 0.0
C2899 C 0.15014 0.6451 0.56513 0.0
C2900 C 0.15593 0.65904 0.57564 0.0
C2901 C 0.14162 0.62052 0.54522 0.0
C2902 C 0.16969 0.63039 0.55037 0.0
C2903 C 0.1735 0.64253 0.56026 0.0
C2904 C 0.19574 0.62861 0.5458 0.0
C2905 C 0.13578 0.60645 0.53474 0.0
C2906 C 0.20868 0.61403 0.55123 0.0
C2907 C 0.23687 0.61763 0.54828 0.0
C2908 C 0.25263 0.63564 0.53977 0.0
C2909 C 0.23846 0.64794 0.53377 0.0
C2910 C 0.21031 0.64471 0.53682 0.0
H2911 H 0.11081 0.59236 0.5331 0.0
H2912 H 0.1462 0.62499 0.52896 0.0
H2913 H 0.14625 0.59186 0.53387 0.0
H2914 H 0.19783 0.60136 0.55814 0.0
H2915 H 0.24731 0.60791 0.55304 0.0
H2916 H 0.44008 0.45495 0.58102 0.0
H2917 H 0.43686 0.49736 0.57339 0.0
H2918 H 0.35199 0.43293 0.55871 0.0
H2919 H 0.35499 0.39031 0.56629 0.0
H2920 H 0.43274 0.50553 0.55115 0.0
H2921 H 0.33473 0.49613 0.57368 0.0
H2922 H 0.35744 0.47996 0.57801 0.0
H2923 H 0.3296 0.46135 0.5681 0.0
C2924 C 0.42045 0.44977 0.57631 0.0
C2925 C 0.39772 0.41924 0.57429 0.0
C2926 C 0.41879 0.47403 0.5719 0.0
C2927 C 0.39422 0.46823 0.56549 0.0
C2928 C 0.37104 0.43785 0.56369 0.0
H2929 H 0.36823 0.59553 0.52733 0.0
H2930 H 0.37595 0.55315 0.53239 0.0
C2931 C 0.37277 0.41355 0.56804 0.0
C2932 C 0.39326 0.49401 0.56053 0.0
H2933 H 0.35466 0.53315 0.56059 0.0
C2934 C 0.4156 0.51153 0.55316 0.0
C2935 C 0.37089 0.50171 0.5632 0.0
C2936 C 0.34686 0.48402 0.57122 0.0
C2937 C 0.4162 0.53675 0.54843 0.0
C2938 C 0.394 0.54455 0.55118 0.0
C2939 C 0.37153 0.52688 0.55847 0.0
C2940 C 0.39478 0.57225 0.54719 0.0
C2941 C 0.44087 0.55545 0.54072 0.0
C2942 C 0.40388 0.59734 0.55368 0.0
C2943 C 0.39973 0.6215 0.5508 0.0
C2944 C 0.38622 0.62096 0.54138 0.0
C2945 C 0.37909 0.59681 0.53456 0.0
C2946 C 0.38327 0.5725 0.53747 0.0
H2947 H 0.4574 0.54727 0.53977 0.0
H2948 H 0.43013 0.5543 0.53323 0.0
H2949 H 0.45363 0.57987 0.5431 0.0
H2950 H 0.41284 0.59753 0.56119 0.0
H2951 H 0.40558 0.63984 0.5562 0.0
H2952 H 0.54451 0.97771 0.58639 0.0
H2953 H 0.50912 0.93279 0.57646 0.0
H2954 H 0.58429 0.94393 0.55766 0.0
H2955 H 0.62009 0.98854 0.56777 0.0
H2956 H 0.49632 0.93105 0.55628 0.0
H2957 H 0.54188 0.85363 0.56432 0.0
H2958 H 0.5532 0.88794 0.57162 0.0
H2959 H 0.56952 0.89039 0.55922 0.0
C2960 C 0.55365 0.97035 0.58025 0.0
C2961 C 0.58518 0.98667 0.57791 0.0
C2962 C 0.53334 0.94472 0.57454 0.0
C2963 C 0.54402 0.93485 0.56634 0.0
C2964 C 0.57557 0.95074 0.56407 0.0
H2965 H 0.43132 0.77356 0.52773 0.0
H2966 H 0.47244 0.82551 0.53224 0.0
C2967 C 0.59601 0.97627 0.56986 0.0
C2968 C 0.52173 0.90865 0.56 0.0
H2969 H 0.50058 0.83571 0.55279 0.0
C2970 C 0.4974 0.91029 0.55547 0.0
C2971 C 0.52326 0.88164 0.55886 0.0
C2972 C 0.54819 0.87805 0.56382 0.0
C2973 C 0.47409 0.88534 0.55011 0.0
C2974 C 0.47509 0.85807 0.54928 0.0
C2975 C 0.50006 0.85682 0.5534 0.0
C2976 C 0.44866 0.82934 0.54539 0.0
C2977 C 0.44816 0.88803 0.54556 0.0
C2978 C 0.42152 0.81474 0.55114 0.0
C2979 C 0.39829 0.78518 0.54865 0.0
C2980 C 0.40164 0.76976 0.54029 0.0
C2981 C 0.42798 0.78512 0.53412 0.0
C2982 C 0.45152 0.81465 0.53673 0.0
H2983 H 0.45461 0.91236 0.54451 0.0
H2984 H 0.44113 0.87615 0.53809 0.0
H2985 H 0.42803 0.87704 0.55075 0.0
H2986 H 0.41903 0.82554 0.55792 0.0
H2987 H 0.37826 0.77381 0.55354 0.0
H2988 H 0.30156 0.38161 0.26647 0.0
H2989 H 0.307 0.42425 0.27685 0.0
H2990 H 0.23562 0.42605 0.25942 0.0
H2991 H 0.22941 0.38292 0.24922 0.0
H2992 H 0.32252 0.48144 0.27211 0.0
H2993 H 0.20464 0.42272 0.28789 0.0
H2994 H 0.22007 0.40247 0.28111 0.0
H2995 H 0.20455 0.42236 0.27423 0.0
C2996 C 0.28709 0.39115 0.26481 0.0
C2997 C 0.2649 0.3787 0.25705 0.0
C2998 C 0.29014 0.41544 0.27079 0.0
C2999 C 0.27113 0.42781 0.26911 0.0
C3000 C 0.24981 0.41622 0.2611 0.0
H3001 H 0.27453 0.59228 0.28262 0.0
H3002 H 0.26212 0.54091 0.27737 0.0
C3003 C 0.24654 0.39176 0.25519 0.0
C3004 C 0.27427 0.45353 0.27549 0.0
H3005 H 0.23327 0.47772 0.28947 0.0
C3006 C 0.30311 0.48041 0.27605 0.0
C3007 C 0.24898 0.45212 0.28071 0.0
C3008 C 0.21791 0.42324 0.28105 0.0
C3009 C 0.30701 0.50637 0.28126 0.0
C3010 C 0.28142 0.5054 0.28603 0.0
C3011 C 0.2528 0.4783 0.28578 0.0
C3012 C 0.28367 0.53341 0.29039 0.0
C3013 C 0.33817 0.53518 0.28128 0.0
C3014 C 0.29871 0.54553 0.29968 0.0
C3015 C 0.3056 0.57485 0.30276 0.0
C3016 C 0.29773 0.5924 0.29652 0.0
C3017 C 0.28085 0.57925 0.28757 0.0
C3018 C 0.27374 0.54993 0.28457 0.0
H3019 H 0.35529 0.53276 0.27666 0.0
H3020 H 0.33636 0.55467 0.27823 0.0
H3021 H 0.34673 0.54093 0.28922 0.0
H3022 H 0.30655 0.53302 0.30426 0.0
H3023 H 0.31904 0.58459 0.3096 0.0
H3024 H 0.64521 0.87009 0.25148 0.0
H3025 H 0.60218 0.83435 0.26222 0.0
H3026 H 0.61302 0.90973 0.28068 0.0
H3027 H 0.65526 0.94566 0.26978 0.0
H3028 H 0.60063 0.82177 0.28226 0.0
H3029 H 0.52292 0.86722 0.27467 0.0
H3030 H 0.55718 0.87866 0.26727 0.0
H3031 H 0.55968 0.8953 0.27961 0.0
C3032 C 0.63816 0.87909 0.25774 0.0
C3033 C 0.65344 0.91075 0.2597 0.0
C3034 C 0.61368 0.85863 0.26391 0.0
C3035 C 0.60411 0.86937 0.27219 0.0
C3036 C 0.61946 0.90095 0.2742 0.0
H3037 H 0.44479 0.76298 0.31206 0.0
H3038 H 0.49798 0.80145 0.30759 0.0
C3039 C 0.64366 0.92147 0.26796 0.0
C3040 C 0.5783 0.84738 0.27875 0.0
H3041 H 0.50641 0.82787 0.28691 0.0
C3042 C 0.5801 0.82321 0.28332 0.0
C3043 C 0.55156 0.84936 0.28019 0.0
C3044 C 0.5475 0.87384 0.27511 0.0
C3045 C 0.55557 0.80058 0.28906 0.0
C3046 C 0.52868 0.80223 0.29027 0.0
C3047 C 0.52731 0.82697 0.28606 0.0
C3048 C 0.50006 0.77649 0.29452 0.0
C3049 C 0.55825 0.7747 0.29362 0.0
C3050 C 0.48416 0.74942 0.28884 0.0
C3051 C 0.45387 0.72779 0.29128 0.0
C3052 C 0.43909 0.73272 0.29952 0.0
C3053 C 0.45583 0.75853 0.30575 0.0
C3054 C 0.48609 0.78054 0.30318 0.0
H3055 H 0.58261 0.78072 0.2943 0.0
H3056 H 0.54729 0.76842 0.30127 0.0
H3057 H 0.54624 0.75426 0.28863 0.0
H3058 H 0.49437 0.74607 0.28205 0.0
H3059 H 0.44139 0.70807 0.28636 0.0
H3060 H 0.12595 0.77088 0.25263 0.0
H3061 H 0.17 0.77132 0.2607 0.0
H3062 H 0.10934 0.70521 0.28284 0.0
H3063 H 0.06544 0.70392 0.27469 0.0
H3064 H 0.1925 0.78732 0.27998 0.0
H3065 H 0.15651 0.66557 0.27337 0.0
H3066 H 0.13829 0.68386 0.26709 0.0
H3067 H 0.12773 0.66982 0.27994 0.0
C3068 C 0.122 0.7561 0.25912 0.0
C3069 C 0.09213 0.73711 0.26293 0.0
C3070 C 0.1472 0.7565 0.26376 0.0
C3071 C 0.14297 0.73793 0.27229 0.0
C3072 C 0.11317 0.71913 0.27612 0.0
H3073 H 0.26486 0.70633 0.31075 0.0
H3074 H 0.2235 0.71535 0.30549 0.0
C3075 C 0.08804 0.71851 0.27145 0.0
C3076 C 0.16963 0.7386 0.27737 0.0
H3077 H 0.19753 0.69284 0.28504 0.0
C3078 C 0.19366 0.76668 0.28105 0.0
C3079 C 0.17118 0.71167 0.27878 0.0
C3080 C 0.14721 0.6811 0.2745 0.0
C3081 C 0.21895 0.76843 0.28617 0.0
C3082 C 0.22022 0.74145 0.28766 0.0
C3083 C 0.1962 0.71342 0.28404 0.0
C3084 C 0.24739 0.74187 0.29213 0.0
C3085 C 0.24408 0.79901 0.29002 0.0
C3086 C 0.27487 0.75471 0.28656 0.0
C3087 C 0.29837 0.74945 0.28951 0.0
C3088 C 0.29489 0.7314 0.29812 0.0
C3089 C 0.26839 0.72068 0.30417 0.0
C3090 C 0.24465 0.72561 0.30113 0.0
H3091 H 0.23661 0.81621 0.29032 0.0
H3092 H 0.25164 0.79665 0.29774 0.0
H3093 H 0.26418 0.80777 0.28483 0.0
H3094 H 0.27733 0.76699 0.27954 0.0
H3095 H 0.3185 0.75792 0.28469 0.0
loop_
_geom_bond_atom_site_label_1
_geom_bond_atom_site_label_2
_geom_bond_distance
_geom_bond_site_symmetry_2
_ccdc_geom_bond_type
C0 O1 1.306 . S
C0 O3 1.160 1_565 S
O1 C0 1.306 . S
O1 Cd2 2.228 . S
Cd2 O1 2.228 . S
Cd2 O6 2.273 . S
Cd2 O10 2.290 . S
O3 C0 1.160 1_545 S
O3 Cd4 2.203 . S
Cd4 O3 2.203 . S
Cd4 O6 2.411 1_545 S
Cd4 O7 2.333 . S
Cd4 O8 2.352 . S
Cd4 O12 2.277 . S
Cd4 O13 2.356 . S
C5 O10 1.194 1_545 S
C5 O12 1.226 . S
O6 Cd2 2.273 . S
O6 Cd4 2.411 1_565 S
O6 C9 1.320 1_565 S
O7 Cd4 2.333 . S
O7 C9 1.214 . S
O8 Cd4 2.352 . S
O8 C11 1.258 . S
C9 O6 1.320 1_545 S
C9 O7 1.214 . S
O10 Cd2 2.290 . S
O10 C5 1.194 1_565 S
C11 O8 1.258 . S
C11 O13 1.282 . S
O12 Cd4 2.277 . S
O12 C5 1.226 . S
O13 Cd4 2.356 . S
O13 C11 1.282 . S
C14 O15 1.306 . S
C14 O17 1.135 1_655 S
O15 C14 1.306 . S
O15 Cd16 2.228 . S
Cd16 O15 2.228 . S
Cd16 O20 2.273 . S
Cd16 O24 2.277 . S
O17 C14 1.135 1_455 S
O17 Cd18 2.208 . S
Cd18 O17 2.208 . S
Cd18 O20 2.411 1_455 S
Cd18 O21 2.333 . S
Cd18 O22 2.352 . S
Cd18 O26 2.277 . S
Cd18 O27 2.356 . S
C19 O24 1.209 1_455 S
C19 O26 1.226 . S
O20 Cd16 2.273 . S
O20 Cd18 2.411 1_655 S
O20 C23 1.320 1_655 S
O21 Cd18 2.333 . S
O21 C23 1.214 . S
O22 Cd18 2.352 . S
O22 C25 1.258 . S
C23 O20 1.320 1_455 S
C23 O21 1.214 . S
O24 Cd16 2.277 . S
O24 C19 1.209 1_655 S
C25 O22 1.258 . S
C25 O27 1.282 . S
O26 Cd18 2.277 . S
O26 C19 1.226 . S
O27 Cd18 2.356 . S
O27 C25 1.282 . S
C28 O29 1.306 . S
C28 O31 1.160 . S
O29 C28 1.306 . S
O29 Cd30 2.228 . S
Cd30 O29 2.228 . S
Cd30 O34 2.273 . S
Cd30 O38 2.277 . S
O31 C28 1.160 . S
O31 Cd32 2.203 . S
Cd32 O31 2.203 . S
Cd32 O34 2.411 . S
Cd32 O35 2.333 . S
Cd32 O36 2.352 . S
Cd32 O40 2.277 . S
Cd32 O41 2.356 . S
C33 O38 1.209 . S
C33 O40 1.226 . S
O34 Cd30 2.273 . S
O34 Cd32 2.411 . S
O34 C37 1.320 . S
O35 Cd32 2.333 . S
O35 C37 1.214 . S
O36 Cd32 2.352 . S
O36 C39 1.258 . S
C37 O34 1.320 . S
C37 O35 1.214 . S
O38 Cd30 2.277 . S
O38 C33 1.209 . S
C39 O36 1.258 . S
C39 O41 1.282 . S
O40 Cd32 2.277 . S
O40 C33 1.226 . S
O41 Cd32 2.356 . S
O41 C39 1.282 . S
C42 O43 1.306 . S
C42 O45 1.160 . S
O43 C42 1.306 . S
O43 Cd44 2.228 . S
Cd44 O43 2.228 . S
Cd44 O48 2.273 . S
Cd44 O52 2.277 . S
O45 C42 1.160 . S
O45 Cd46 2.203 . S
Cd46 O45 2.203 . S
Cd46 O48 2.411 . S
Cd46 O49 2.333 1_545 S
Cd46 O50 2.346 1_545 S
Cd46 O54 2.277 1_545 S
Cd46 O55 2.356 1_545 S
C47 O52 1.209 . S
C47 O54 1.226 1_545 S
O48 Cd44 2.273 . S
O48 Cd46 2.411 . S
O48 C51 1.320 . S
O49 Cd46 2.333 1_565 S
O49 C51 1.214 1_565 S
O50 Cd46 2.346 1_565 S
O50 C53 1.266 . S
C51 O48 1.320 . S
C51 O49 1.214 1_545 S
O52 Cd44 2.277 . S
O52 C47 1.209 . S
C53 O50 1.266 . S
C53 O55 1.282 . S
O54 Cd46 2.277 1_565 S
O54 C47 1.226 1_565 S
O55 Cd46 2.356 1_565 S
O55 C53 1.282 . S
C56 O57 1.306 . S
C56 O59 1.124 1_655 S
O57 C56 1.306 . S
O57 Cd58 2.228 . S
Cd58 O57 2.228 . S
Cd58 O62 2.273 . S
Cd58 O66 2.277 . S
O59 C56 1.124 1_455 S
O59 Cd60 2.239 . S
Cd60 O59 2.239 . S
Cd60 O62 2.411 1_455 S
Cd60 O63 2.333 . S
Cd60 O64 2.352 . S
Cd60 O68 2.277 . S
Cd60 O69 2.356 . S
C61 O66 1.209 1_455 S
C61 O68 1.226 . S
O62 Cd58 2.273 . S
O62 Cd60 2.411 1_655 S
O62 C65 1.320 1_655 S
O63 Cd60 2.333 . S
O63 C65 1.214 . S
O64 Cd60 2.352 . S
O64 C67 1.258 . S
C65 O62 1.320 1_455 S
C65 O63 1.214 . S
O66 Cd58 2.277 . S
O66 C61 1.209 1_655 S
C67 O64 1.258 . S
C67 O69 1.282 . S
O68 Cd60 2.277 . S
O68 C61 1.226 . S
O69 Cd60 2.356 . S
O69 C67 1.282 . S
C70 O71 1.306 . S
C70 O73 1.160 . S
O71 C70 1.306 . S
O71 Cd72 2.228 . S
Cd72 O71 2.228 . S
Cd72 O76 2.273 . S
Cd72 O80 2.277 . S
O73 C70 1.160 . S
O73 Cd74 2.203 . S
Cd74 O73 2.203 . S
Cd74 O76 2.411 . S
Cd74 O77 2.333 . S
Cd74 O78 2.352 . S
Cd74 O82 2.277 . S
Cd74 O83 2.356 . S
C75 O80 1.209 . S
C75 O82 1.226 . S
O76 Cd72 2.273 . S
O76 Cd74 2.411 . S
O76 C79 1.320 . S
O77 Cd74 2.333 . S
O77 C79 1.214 . S
O78 Cd74 2.352 . S
O78 C81 1.258 . S
C79 O76 1.320 . S
C79 O77 1.214 . S
O80 Cd72 2.277 . S
O80 C75 1.209 . S
C81 O78 1.258 . S
C81 O83 1.282 . S
O82 Cd74 2.277 . S
O82 C75 1.226 . S
O83 Cd74 2.356 . S
O83 C81 1.282 . S
C84 O85 1.306 . S
C84 O87 1.160 . S
O85 C84 1.306 . S
O85 Cd86 2.228 . S
Cd86 O85 2.228 . S
Cd86 O90 2.273 . S
Cd86 O94 2.277 . S
O87 C84 1.160 . S
O87 Cd88 2.203 . S
Cd88 O87 2.203 . S
Cd88 O90 2.411 . S
Cd88 O91 2.333 . S
Cd88 O92 2.352 . S
Cd88 O96 2.277 . S
Cd88 O97 2.356 . S
C89 O94 1.209 . S
C89 O96 1.226 . S
O90 Cd86 2.273 . S
O90 Cd88 2.411 . S
O90 C93 1.320 . S
O91 Cd88 2.333 . S
O91 C93 1.214 . S
O92 Cd88 2.352 . S
O92 C95 1.258 . S
C93 O90 1.320 . S
C93 O91 1.214 . S
O94 Cd86 2.277 . S
O94 C89 1.209 . S
C95 O92 1.258 . S
C95 O97 1.282 . S
O96 Cd88 2.277 . S
O96 C89 1.226 . S
O97 Cd88 2.356 . S
O97 C95 1.282 . S
C98 O99 1.306 . S
C98 O101 1.160 . S
O99 C98 1.306 . S
O99 Cd100 2.228 . S
Cd100 O99 2.228 . S
Cd100 O104 2.273 . S
Cd100 O108 2.277 . S
O101 C98 1.160 . S
O101 Cd102 2.203 . S
Cd102 O101 2.203 . S
Cd102 O104 2.411 . S
Cd102 O105 2.333 . S
Cd102 O106 2.352 . S
Cd102 O110 2.277 . S
Cd102 O111 2.356 . S
C103 O108 1.209 . S
C103 O110 1.226 . S
O104 Cd100 2.273 . S
O104 Cd102 2.411 . S
O104 C107 1.320 . S
O105 Cd102 2.333 . S
O105 C107 1.214 . S
O106 Cd102 2.352 . S
O106 C109 1.258 . S
C107 O104 1.320 . S
C107 O105 1.214 . S
O108 Cd100 2.277 . S
O108 C103 1.209 . S
C109 O106 1.258 . S
C109 O111 1.282 . S
O110 Cd102 2.277 . S
O110 C103 1.226 . S
O111 Cd102 2.356 . S
O111 C109 1.282 . S
C112 O113 1.306 . S
C112 O115 1.160 . S
O113 C112 1.306 . S
O113 Cd114 2.228 . S
Cd114 O113 2.228 . S
Cd114 O118 2.273 . S
Cd114 O122 2.277 . S
O115 C112 1.160 . S
O115 Cd116 2.203 . S
Cd116 O115 2.203 . S
Cd116 O118 2.411 . S
Cd116 O119 2.333 . S
Cd116 O120 2.352 1_655 S
Cd116 O124 2.277 . S
Cd116 O125 2.356 1_655 S
C117 O122 1.209 . S
C117 O124 1.226 . S
O118 Cd114 2.273 . S
O118 Cd116 2.411 . S
O118 C121 1.320 . S
O119 Cd116 2.333 . S
O119 C121 1.214 . S
O120 Cd116 2.352 1_455 S
O120 C123 1.258 . S
C121 O118 1.320 . S
C121 O119 1.214 . S
O122 Cd114 2.277 . S
O122 C117 1.209 . S
C123 O120 1.258 . S
C123 O125 1.282 . S
O124 Cd116 2.277 . S
O124 C117 1.226 . S
O125 Cd116 2.356 1_455 S
O125 C123 1.282 . S
C126 O127 1.306 . S
C126 O129 1.160 . S
O127 C126 1.306 . S
O127 Cd128 2.228 1_455 S
Cd128 O127 2.228 1_655 S
Cd128 O132 2.273 . S
Cd128 O136 2.277 . S
O129 C126 1.160 . S
O129 Cd130 2.203 1_455 S
Cd130 O129 2.203 1_655 S
Cd130 O132 2.411 . S
Cd130 O133 2.333 . S
Cd130 O134 2.352 . S
Cd130 O138 2.277 . S
Cd130 O139 2.356 . S
C131 O136 1.209 . S
C131 O138 1.226 . S
O132 Cd128 2.273 . S
O132 Cd130 2.411 . S
O132 C135 1.320 . S
O133 Cd130 2.333 . S
O133 C135 1.214 . S
O134 Cd130 2.352 . S
O134 C137 1.258 . S
C135 O132 1.320 . S
C135 O133 1.214 . S
O136 Cd128 2.277 . S
O136 C131 1.209 . S
C137 O134 1.258 . S
C137 O139 1.282 . S
O138 Cd130 2.277 . S
O138 C131 1.226 . S
O139 Cd130 2.356 . S
O139 C137 1.282 . S
C140 O141 1.306 . S
C140 O143 1.160 . S
O141 C140 1.306 . S
O141 Cd142 2.228 . S
Cd142 O141 2.228 . S
Cd142 O146 2.273 . S
Cd142 O150 2.277 . S
O143 C140 1.160 . S
O143 Cd144 2.203 . S
Cd144 O143 2.203 . S
Cd144 O146 2.411 . S
Cd144 O147 2.333 . S
Cd144 O148 2.352 . S
Cd144 O152 2.277 . S
Cd144 O153 2.356 . S
C145 O150 1.209 . S
C145 O152 1.226 . S
O146 Cd142 2.273 . S
O146 Cd144 2.411 . S
O146 C149 1.320 . S
O147 Cd144 2.333 . S
O147 C149 1.214 . S
O148 Cd144 2.352 . S
O148 C151 1.258 . S
C149 O146 1.320 . S
C149 O147 1.214 . S
O150 Cd142 2.277 . S
O150 C145 1.209 . S
C151 O148 1.258 . S
C151 O153 1.282 . S
O152 Cd144 2.277 . S
O152 C145 1.226 . S
O153 Cd144 2.356 . S
O153 C151 1.282 . S
C154 O155 1.306 . S
C154 O157 1.160 . S
O155 C154 1.306 . S
O155 Cd156 2.228 . S
Cd156 O155 2.228 . S
Cd156 O160 2.273 . S
Cd156 O164 2.277 . S
O157 C154 1.160 . S
O157 Cd158 2.203 . S
Cd158 O157 2.203 . S
Cd158 O160 2.411 . S
Cd158 O161 2.333 . S
Cd158 O162 2.352 . S
Cd158 O166 2.277 . S
Cd158 O167 2.356 . S
C159 O164 1.209 . S
C159 O166 1.226 . S
O160 Cd156 2.273 . S
O160 Cd158 2.411 . S
O160 C163 1.320 . S
O161 Cd158 2.333 . S
O161 C163 1.214 . S
O162 Cd158 2.352 . S
O162 C165 1.258 . S
C163 O160 1.320 . S
C163 O161 1.214 . S
O164 Cd156 2.277 . S
O164 C159 1.209 . S
C165 O162 1.258 . S
C165 O167 1.282 . S
O166 Cd158 2.277 . S
O166 C159 1.226 . S
O167 Cd158 2.356 . S
O167 C165 1.282 . S
C168 O169 1.306 . S
C168 O171 1.160 . S
O169 C168 1.306 . S
O169 Cd170 2.228 . S
Cd170 O169 2.228 . S
Cd170 O174 2.273 . S
Cd170 O178 2.277 . S
O171 C168 1.160 . S
O171 Cd172 2.203 . S
Cd172 O171 2.203 . S
Cd172 O174 2.411 . S
Cd172 O175 2.333 . S
Cd172 O176 2.352 . S
Cd172 O180 2.277 . S
Cd172 O181 2.356 . S
C173 O178 1.209 . S
C173 O180 1.226 . S
O174 Cd170 2.273 . S
O174 Cd172 2.411 . S
O174 C177 1.320 . S
O175 Cd172 2.333 . S
O175 C177 1.214 . S
O176 Cd172 2.352 . S
O176 C179 1.258 . S
C177 O174 1.320 . S
C177 O175 1.214 . S
O178 Cd170 2.277 . S
O178 C173 1.209 . S
C179 O176 1.258 . S
C179 O181 1.282 . S
O180 Cd172 2.277 . S
O180 C173 1.226 . S
O181 Cd172 2.356 . S
O181 C179 1.282 . S
C182 O183 1.306 . S
C182 O185 1.160 . S
O183 C182 1.306 . S
O183 Cd184 2.228 . S
Cd184 O183 2.228 . S
Cd184 O188 2.273 . S
Cd184 O192 2.277 . S
O185 C182 1.160 . S
O185 Cd186 2.203 . S
Cd186 O185 2.203 . S
Cd186 O188 2.411 . S
Cd186 O189 2.333 . S
Cd186 O190 2.352 . S
Cd186 O194 2.277 . S
Cd186 O195 2.356 . S
C187 O192 1.209 . S
C187 O194 1.226 . S
O188 Cd184 2.273 . S
O188 Cd186 2.411 . S
O188 C191 1.320 . S
O189 Cd186 2.333 . S
O189 C191 1.214 . S
O190 Cd186 2.352 . S
O190 C193 1.258 . S
C191 O188 1.320 . S
C191 O189 1.214 . S
O192 Cd184 2.277 . S
O192 C187 1.209 . S
C193 O190 1.258 . S
C193 O195 1.282 . S
O194 Cd186 2.277 . S
O194 C187 1.226 . S
O195 Cd186 2.356 . S
O195 C193 1.282 . S
C196 O197 1.306 . S
C196 O199 1.160 . S
O197 C196 1.306 . S
O197 Cd198 2.228 1_545 S
Cd198 O197 2.228 1_565 S
Cd198 O202 2.273 . S
Cd198 O206 2.277 . S
O199 C196 1.160 . S
O199 Cd200 2.203 1_545 S
Cd200 O199 2.203 1_565 S
Cd200 O202 2.411 . S
Cd200 O203 2.333 . S
Cd200 O204 2.352 . S
Cd200 O208 2.277 . S
Cd200 O209 2.356 . S
C201 O206 1.209 . S
C201 O208 1.226 . S
O202 Cd198 2.273 . S
O202 Cd200 2.411 . S
O202 C205 1.320 . S
O203 Cd200 2.333 . S
O203 C205 1.214 . S
O204 Cd200 2.352 . S
O204 C207 1.258 . S
C205 O202 1.320 . S
C205 O203 1.214 . S
O206 Cd198 2.277 . S
O206 C201 1.209 . S
C207 O204 1.258 . S
C207 O209 1.282 . S
O208 Cd200 2.277 . S
O208 C201 1.226 . S
O209 Cd200 2.356 . S
O209 C207 1.282 . S
C210 O211 1.306 . S
C210 O213 1.160 . S
O211 C210 1.306 . S
O211 Cd212 2.228 . S
Cd212 O211 2.228 . S
Cd212 O216 2.273 . S
Cd212 O220 2.277 . S
O213 C210 1.160 . S
O213 Cd214 2.203 . S
Cd214 O213 2.203 . S
Cd214 O216 2.411 . S
Cd214 O217 2.333 . S
Cd214 O218 2.352 . S
Cd214 O222 2.277 . S
Cd214 O223 2.356 . S
C215 O220 1.209 . S
C215 O222 1.226 . S
O216 Cd212 2.273 . S
O216 Cd214 2.411 . S
O216 C219 1.320 . S
O217 Cd214 2.333 . S
O217 C219 1.214 . S
O218 Cd214 2.352 . S
O218 C221 1.258 . S
C219 O216 1.320 . S
C219 O217 1.214 . S
O220 Cd212 2.277 . S
O220 C215 1.209 . S
C221 O218 1.258 . S
C221 O223 1.282 . S
O222 Cd214 2.277 . S
O222 C215 1.226 . S
O223 Cd214 2.356 . S
O223 C221 1.282 . S
C224 O225 1.306 . S
C224 O227 1.160 . S
O225 C224 1.306 . S
O225 Cd226 2.228 . S
Cd226 O225 2.228 . S
Cd226 O230 2.273 . S
Cd226 O234 2.277 . S
O227 C224 1.160 . S
O227 Cd228 2.203 . S
Cd228 O227 2.203 . S
Cd228 O230 2.411 . S
Cd228 O231 2.333 . S
Cd228 O232 2.352 1_565 S
Cd228 O236 2.277 . S
Cd228 O237 2.356 1_565 S
C229 O234 1.209 . S
C229 O236 1.226 . S
O230 Cd226 2.273 . S
O230 Cd228 2.411 . S
O230 C233 1.320 . S
O231 Cd228 2.333 . S
O231 C233 1.214 . S
O232 Cd228 2.352 1_545 S
O232 C235 1.258 . S
C233 O230 1.320 . S
C233 O231 1.214 . S
O234 Cd226 2.277 . S
O234 C229 1.209 . S
C235 O232 1.258 . S
C235 O237 1.282 . S
O236 Cd228 2.277 . S
O236 C229 1.226 . S
O237 Cd228 2.356 1_545 S
O237 C235 1.282 . S
C238 O239 1.306 . S
C238 O241 1.160 . S
O239 C238 1.306 . S
O239 Cd240 2.228 . S
Cd240 O239 2.228 . S
Cd240 O244 2.273 . S
Cd240 O248 2.277 . S
O241 C238 1.160 . S
O241 Cd242 2.203 . S
Cd242 O241 2.203 . S
Cd242 O244 2.411 . S
Cd242 O245 2.333 . S
Cd242 O246 2.352 . S
Cd242 O250 2.277 . S
Cd242 O251 2.356 . S
C243 O248 1.209 . S
C243 O250 1.226 . S
O244 Cd240 2.273 . S
O244 Cd242 2.411 . S
O244 C247 1.320 . S
O245 Cd242 2.333 . S
O245 C247 1.214 . S
O246 Cd242 2.352 . S
O246 C249 1.258 . S
C247 O244 1.320 . S
C247 O245 1.214 . S
O248 Cd240 2.277 . S
O248 C243 1.209 . S
C249 O246 1.258 . S
C249 O251 1.282 . S
O250 Cd242 2.277 . S
O250 C243 1.226 . S
O251 Cd242 2.356 . S
O251 C249 1.282 . S
Zn252 O258 1.920 . S
Zn252 O264 1.898 1_445 S
Zn252 O267 1.905 . S
Zn253 O261 1.905 1_545 S
Zn253 O262 1.898 . S
Zn253 O270 1.920 1_455 S
Zn254 O257 2.080 . S
Zn254 O260 2.114 1_545 S
Zn254 O263 2.120 . S
Zn254 O265 2.120 1_445 S
Zn254 O266 2.114 . S
Zn254 O269 2.080 1_455 S
C255 O260 1.166 . S
C255 O261 1.182 . S
C256 O262 1.167 . S
C256 O263 1.299 . S
O257 Zn254 2.080 . S
O257 C271 1.305 . S
O258 Zn252 1.920 . S
O258 C271 1.234 . S
C259 O264 1.167 . S
C259 O265 1.299 . S
O260 Zn254 2.114 1_565 S
O260 C255 1.166 . S
O261 Zn253 1.905 1_565 S
O261 C255 1.182 . S
O262 Zn253 1.898 . S
O262 C256 1.167 . S
O263 Zn254 2.120 . S
O263 C256 1.299 . S
O264 Zn252 1.898 1_665 S
O264 C259 1.167 . S
O265 Zn254 2.120 1_665 S
O265 C259 1.299 . S
O266 Zn254 2.114 . S
O266 C268 1.166 . S
O267 Zn252 1.905 . S
O267 C268 1.182 . S
C268 O266 1.166 . S
C268 O267 1.182 . S
O269 Zn254 2.080 1_655 S
O269 C272 1.305 . S
O270 Zn253 1.920 1_655 S
O270 C272 1.234 . S
C271 O257 1.305 . S
C271 O258 1.234 . S
C272 O269 1.305 . S
C272 O270 1.234 . S
Zn273 O279 1.920 1_545 S
Zn273 O285 1.898 . S
Zn273 O288 1.905 1_455 S
Zn274 O282 1.905 . S
Zn274 O283 1.898 1_445 S
Zn274 O291 1.920 1_545 S
Zn275 O278 2.080 1_545 S
Zn275 O281 2.114 . S
Zn275 O284 2.120 1_445 S
Zn275 O286 2.120 . S
Zn275 O287 2.114 1_455 S
Zn275 O290 2.080 . S
C276 O281 1.166 . S
C276 O282 1.182 . S
C277 O283 1.167 . S
C277 O284 1.299 . S
O278 Zn275 2.080 1_565 S
O278 C292 1.305 . S
O279 Zn273 1.920 1_565 S
O279 C292 1.234 . S
C280 O285 1.167 . S
C280 O286 1.299 . S
O281 Zn275 2.114 . S
O281 C276 1.166 . S
O282 Zn274 1.905 . S
O282 C276 1.182 . S
O283 Zn274 1.898 1_665 S
O283 C277 1.167 . S
O284 Zn275 2.120 1_665 S
O284 C277 1.299 . S
O285 Zn273 1.898 . S
O285 C280 1.167 . S
O286 Zn275 2.120 . S
O286 C280 1.299 . S
O287 Zn275 2.114 1_655 S
O287 C289 1.166 . S
O288 Zn273 1.905 1_655 S
O288 C289 1.182 . S
C289 O287 1.166 . S
C289 O288 1.182 . S
O290 Zn275 2.080 . S
O290 C293 1.305 . S
O291 Zn274 1.920 1_565 S
O291 C293 1.234 1_565 S
C292 O278 1.305 . S
C292 O279 1.234 . S
C293 O290 1.305 . S
C293 O291 1.234 1_545 S
Zn294 O300 1.920 1_545 S
Zn294 O306 1.898 . S
Zn294 O309 1.905 1_455 S
Zn295 O303 1.905 . S
Zn295 O304 1.898 1_445 S
Zn295 O312 1.920 . S
Zn296 O299 2.080 1_545 S
Zn296 O302 2.114 . S
Zn296 O305 2.120 1_445 S
Zn296 O307 2.120 . S
Zn296 O308 2.114 1_455 S
Zn296 O311 2.080 . S
C297 O302 1.166 . S
C297 O303 1.182 . S
C298 O304 1.167 . S
C298 O305 1.299 . S
O299 Zn296 2.080 1_565 S
O299 C313 1.305 . S
O300 Zn294 1.920 1_565 S
O300 C313 1.234 . S
C301 O306 1.167 . S
C301 O307 1.299 . S
O302 Zn296 2.114 . S
O302 C297 1.166 . S
O303 Zn295 1.905 . S
O303 C297 1.182 . S
O304 Zn295 1.898 1_665 S
O304 C298 1.167 . S
O305 Zn296 2.120 1_665 S
O305 C298 1.299 . S
O306 Zn294 1.898 . S
O306 C301 1.167 . S
O307 Zn296 2.120 . S
O307 C301 1.299 . S
O308 Zn296 2.114 1_655 S
O308 C310 1.166 . S
O309 Zn294 1.905 1_655 S
O309 C310 1.182 . S
C310 O308 1.166 . S
C310 O309 1.182 . S
O311 Zn296 2.080 . S
O311 C314 1.305 . S
O312 Zn295 1.920 . S
O312 C314 1.234 . S
C313 O299 1.305 . S
C313 O300 1.234 . S
C314 O311 1.305 . S
C314 O312 1.234 . S
Zn315 O321 1.920 . S
Zn315 O327 1.898 1_445 S
Zn315 O330 1.905 . S
Zn316 O324 1.905 1_545 S
Zn316 O325 1.898 . S
Zn316 O333 1.920 1_455 S
Zn317 O320 2.080 . S
Zn317 O323 2.114 1_545 S
Zn317 O326 2.120 . S
Zn317 O328 2.120 1_445 S
Zn317 O329 2.114 . S
Zn317 O332 2.080 1_455 S
C318 O323 1.166 . S
C318 O324 1.182 . S
C319 O325 1.167 . S
C319 O326 1.299 . S
O320 Zn317 2.080 . S
O320 C334 1.305 . S
O321 Zn315 1.920 . S
O321 C334 1.234 . S
C322 O327 1.167 . S
C322 O328 1.299 . S
O323 Zn317 2.114 1_565 S
O323 C318 1.166 . S
O324 Zn316 1.905 1_565 S
O324 C318 1.182 . S
O325 Zn316 1.898 . S
O325 C319 1.167 . S
O326 Zn317 2.120 . S
O326 C319 1.299 . S
O327 Zn315 1.898 1_665 S
O327 C322 1.167 . S
O328 Zn317 2.120 1_665 S
O328 C322 1.299 . S
O329 Zn317 2.114 . S
O329 C331 1.166 . S
O330 Zn315 1.905 . S
O330 C331 1.182 . S
C331 O329 1.166 . S
C331 O330 1.182 . S
O332 Zn317 2.080 1_655 S
O332 C335 1.305 . S
O333 Zn316 1.920 1_655 S
O333 C335 1.234 . S
C334 O320 1.305 . S
C334 O321 1.234 . S
C335 O332 1.305 . S
C335 O333 1.234 . S
Zn336 O342 1.920 . S
Zn336 O348 1.898 . S
Zn336 O351 1.905 . S
Zn337 O345 1.905 . S
Zn337 O346 1.898 . S
Zn337 O354 1.920 . S
Zn338 O341 2.080 . S
Zn338 O344 2.114 . S
Zn338 O347 2.120 . S
Zn338 O349 2.120 . S
Zn338 O350 2.114 . S
Zn338 O353 2.080 . S
C339 O344 1.166 . S
C339 O345 1.182 . S
C340 O346 1.167 . S
C340 O347 1.299 . S
O341 Zn338 2.080 . S
O341 C355 1.305 . S
O342 Zn336 1.920 . S
O342 C355 1.234 . S
C343 O348 1.167 . S
C343 O349 1.299 . S
O344 Zn338 2.114 . S
O344 C339 1.166 . S
O345 Zn337 1.905 . S
O345 C339 1.182 . S
O346 Zn337 1.898 . S
O346 C340 1.167 . S
O347 Zn338 2.120 . S
O347 C340 1.299 . S
O348 Zn336 1.898 . S
O348 C343 1.167 . S
O349 Zn338 2.120 . S
O349 C343 1.299 . S
O350 Zn338 2.114 . S
O350 C352 1.166 . S
O351 Zn336 1.905 . S
O351 C352 1.182 . S
C352 O350 1.166 . S
C352 O351 1.182 . S
O353 Zn338 2.080 . S
O353 C356 1.305 . S
O354 Zn337 1.920 . S
O354 C356 1.234 . S
C355 O341 1.305 . S
C355 O342 1.234 . S
C356 O353 1.305 . S
C356 O354 1.234 . S
Zn357 O363 1.920 . S
Zn357 O369 1.898 . S
Zn357 O372 1.905 . S
Zn358 O366 1.905 . S
Zn358 O367 1.898 . S
Zn358 O375 1.920 . S
Zn359 O362 2.080 . S
Zn359 O365 2.114 . S
Zn359 O368 2.120 . S
Zn359 O370 2.120 . S
Zn359 O371 2.114 . S
Zn359 O374 2.080 . S
C360 O365 1.166 . S
C360 O366 1.182 . S
C361 O367 1.167 . S
C361 O368 1.299 . S
O362 Zn359 2.080 . S
O362 C376 1.305 . S
O363 Zn357 1.920 . S
O363 C376 1.234 . S
C364 O369 1.167 . S
C364 O370 1.299 . S
O365 Zn359 2.114 . S
O365 C360 1.166 . S
O366 Zn358 1.905 . S
O366 C360 1.182 . S
O367 Zn358 1.898 . S
O367 C361 1.167 . S
O368 Zn359 2.120 . S
O368 C361 1.299 . S
O369 Zn357 1.898 . S
O369 C364 1.167 . S
O370 Zn359 2.120 . S
O370 C364 1.299 . S
O371 Zn359 2.114 . S
O371 C373 1.166 . S
O372 Zn357 1.905 . S
O372 C373 1.182 . S
C373 O371 1.166 . S
C373 O372 1.182 . S
O374 Zn359 2.080 . S
O374 C377 1.305 . S
O375 Zn358 1.920 . S
O375 C377 1.234 . S
C376 O362 1.305 . S
C376 O363 1.234 . S
C377 O374 1.305 . S
C377 O375 1.234 . S
Zn378 O384 1.920 . S
Zn378 O390 1.898 . S
Zn378 O393 1.905 . S
Zn379 O387 1.905 . S
Zn379 O388 1.898 . S
Zn379 O396 1.920 . S
Zn380 O383 2.080 . S
Zn380 O386 2.114 . S
Zn380 O389 2.120 . S
Zn380 O391 2.120 . S
Zn380 O392 2.114 . S
Zn380 O395 2.080 . S
C381 O386 1.166 . S
C381 O387 1.182 . S
C382 O388 1.167 . S
C382 O389 1.299 . S
O383 Zn380 2.080 . S
O383 C397 1.305 . S
O384 Zn378 1.920 . S
O384 C397 1.234 . S
C385 O390 1.167 . S
C385 O391 1.299 . S
O386 Zn380 2.114 . S
O386 C381 1.166 . S
O387 Zn379 1.905 . S
O387 C381 1.182 . S
O388 Zn379 1.898 . S
O388 C382 1.167 . S
O389 Zn380 2.120 . S
O389 C382 1.299 . S
O390 Zn378 1.898 . S
O390 C385 1.167 . S
O391 Zn380 2.120 . S
O391 C385 1.299 . S
O392 Zn380 2.114 . S
O392 C394 1.166 . S
O393 Zn378 1.905 . S
O393 C394 1.182 . S
C394 O392 1.166 . S
C394 O393 1.182 . S
O395 Zn380 2.080 . S
O395 C398 1.305 . S
O396 Zn379 1.920 . S
O396 C398 1.234 . S
C397 O383 1.305 . S
C397 O384 1.234 . S
C398 O395 1.305 . S
C398 O396 1.234 . S
Zn399 O405 1.920 . S
Zn399 O411 1.898 . S
Zn399 O414 1.905 . S
Zn400 O408 1.905 . S
Zn400 O409 1.898 . S
Zn400 O417 1.920 . S
Zn401 O404 2.080 . S
Zn401 O407 2.114 . S
Zn401 O410 2.120 . S
Zn401 O412 2.120 . S
Zn401 O413 2.114 . S
Zn401 O416 2.080 . S
C402 O407 1.166 . S
C402 O408 1.182 . S
C403 O409 1.167 . S
C403 O410 1.299 . S
O404 Zn401 2.080 . S
O404 C418 1.268 1_556 S
O405 Zn399 1.920 . S
O405 C418 1.279 . S
C406 O411 1.227 . S
C406 O412 1.249 1_554 S
O407 Zn401 2.114 . S
O407 C402 1.166 . S
O408 Zn400 1.905 . S
O408 C402 1.182 . S
O409 Zn400 1.898 . S
O409 C403 1.167 . S
O410 Zn401 2.120 . S
O410 C403 1.299 . S
O411 Zn399 1.898 . S
O411 C406 1.227 . S
O412 Zn401 2.120 . S
O412 C406 1.249 1_556 S
O413 Zn401 2.114 . S
O413 C415 1.161 1_556 S
O414 Zn399 1.905 . S
O414 C415 1.189 . S
C415 O413 1.161 1_554 S
C415 O414 1.189 . S
O416 Zn401 2.080 . S
O416 C419 1.305 . S
O417 Zn400 1.920 . S
O417 C419 1.234 . S
C418 O404 1.268 1_554 S
C418 O405 1.279 . S
C419 O416 1.305 . S
C419 O417 1.234 . S
Zn420 O426 1.920 . S
Zn420 O432 1.898 . S
Zn420 O435 1.905 . S
Zn421 O429 1.905 . S
Zn421 O430 1.898 . S
Zn421 O438 1.920 . S
Zn422 O425 2.080 . S
Zn422 O428 2.114 . S
Zn422 O431 2.120 . S
Zn422 O433 2.120 . S
Zn422 O434 2.114 . S
Zn422 O437 2.080 . S
C423 O428 1.166 . S
C423 O429 1.182 . S
C424 O430 1.167 . S
C424 O431 1.299 . S
O425 Zn422 2.080 . S
O425 C439 1.305 . S
O426 Zn420 1.920 . S
O426 C439 1.234 . S
C427 O432 1.167 . S
C427 O433 1.299 . S
O428 Zn422 2.114 . S
O428 C423 1.166 . S
O429 Zn421 1.905 . S
O429 C423 1.182 . S
O430 Zn421 1.898 . S
O430 C424 1.167 . S
O431 Zn422 2.120 . S
O431 C424 1.299 . S
O432 Zn420 1.898 . S
O432 C427 1.167 . S
O433 Zn422 2.120 . S
O433 C427 1.299 . S
O434 Zn422 2.114 . S
O434 C436 1.166 . S
O435 Zn420 1.905 . S
O435 C436 1.182 . S
C436 O434 1.166 . S
C436 O435 1.182 . S
O437 Zn422 2.080 . S
O437 C440 1.305 . S
O438 Zn421 1.920 . S
O438 C440 1.234 . S
C439 O425 1.305 . S
C439 O426 1.234 . S
C440 O437 1.305 . S
C440 O438 1.234 . S
Zn441 O447 1.920 . S
Zn441 O453 1.898 . S
Zn441 O456 1.905 . S
Zn442 O450 1.905 . S
Zn442 O451 1.898 . S
Zn442 O459 1.920 . S
Zn443 O446 2.080 . S
Zn443 O449 2.114 . S
Zn443 O452 2.120 . S
Zn443 O454 2.120 . S
Zn443 O455 2.114 . S
Zn443 O458 2.080 . S
C444 O449 1.161 1_556 S
C444 O450 1.189 . S
C445 O451 1.227 . S
C445 O452 1.249 1_556 S
O446 Zn443 2.080 . S
O446 C460 1.305 . S
O447 Zn441 1.920 . S
O447 C460 1.234 . S
C448 O453 1.167 . S
C448 O454 1.299 . S
O449 Zn443 2.114 . S
O449 C444 1.161 1_554 S
O450 Zn442 1.905 . S
O450 C444 1.189 . S
O451 Zn442 1.898 . S
O451 C445 1.227 . S
O452 Zn443 2.120 . S
O452 C445 1.249 1_554 S
O453 Zn441 1.898 . S
O453 C448 1.167 . S
O454 Zn443 2.120 . S
O454 C448 1.299 . S
O455 Zn443 2.114 . S
O455 C457 1.166 . S
O456 Zn441 1.905 . S
O456 C457 1.182 . S
C457 O455 1.166 . S
C457 O456 1.182 . S
O458 Zn443 2.080 . S
O458 C461 1.266 1_554 S
O459 Zn442 1.920 . S
O459 C461 1.282 . S
C460 O446 1.305 . S
C460 O447 1.234 . S
C461 O458 1.266 1_556 S
C461 O459 1.282 . S
Zn462 O468 1.920 . S
Zn462 O474 1.898 . S
Zn462 O477 1.905 . S
Zn463 O471 1.905 . S
Zn463 O472 1.898 . S
Zn463 O480 1.920 . S
Zn464 O467 2.080 . S
Zn464 O470 2.114 . S
Zn464 O473 2.120 . S
Zn464 O475 2.120 . S
Zn464 O476 2.114 . S
Zn464 O479 2.080 . S
C465 O470 1.166 . S
C465 O471 1.182 . S
C466 O472 1.167 . S
C466 O473 1.299 . S
O467 Zn464 2.080 . S
O467 C481 1.305 . S
O468 Zn462 1.920 . S
O468 C481 1.234 . S
C469 O474 1.167 . S
C469 O475 1.299 . S
O470 Zn464 2.114 . S
O470 C465 1.166 . S
O471 Zn463 1.905 . S
O471 C465 1.182 . S
O472 Zn463 1.898 . S
O472 C466 1.167 . S
O473 Zn464 2.120 . S
O473 C466 1.299 . S
O474 Zn462 1.898 . S
O474 C469 1.167 . S
O475 Zn464 2.120 . S
O475 C469 1.299 . S
O476 Zn464 2.114 . S
O476 C478 1.166 . S
O477 Zn462 1.905 . S
O477 C478 1.182 . S
C478 O476 1.166 . S
C478 O477 1.182 . S
O479 Zn464 2.080 . S
O479 C482 1.305 . S
O480 Zn463 1.920 . S
O480 C482 1.234 . S
C481 O467 1.305 . S
C481 O468 1.234 . S
C482 O479 1.305 . S
C482 O480 1.234 . S
Zn483 O489 1.920 . S
Zn483 O495 1.898 . S
Zn483 O498 1.905 . S
Zn484 O492 1.905 . S
Zn484 O493 1.898 . S
Zn484 O501 1.920 . S
Zn485 O488 2.080 . S
Zn485 O491 2.114 . S
Zn485 O494 2.120 . S
Zn485 O496 2.120 . S
Zn485 O497 2.114 . S
Zn485 O500 2.080 . S
C486 O491 1.166 . S
C486 O492 1.182 . S
C487 O493 1.167 . S
C487 O494 1.299 . S
O488 Zn485 2.080 . S
O488 C502 1.305 . S
O489 Zn483 1.920 . S
O489 C502 1.234 . S
C490 O495 1.167 . S
C490 O496 1.299 . S
O491 Zn485 2.114 . S
O491 C486 1.166 . S
O492 Zn484 1.905 . S
O492 C486 1.182 . S
O493 Zn484 1.898 . S
O493 C487 1.167 . S
O494 Zn485 2.120 . S
O494 C487 1.299 . S
O495 Zn483 1.898 . S
O495 C490 1.167 . S
O496 Zn485 2.120 . S
O496 C490 1.299 . S
O497 Zn485 2.114 . S
O497 C499 1.166 . S
O498 Zn483 1.905 . S
O498 C499 1.182 . S
C499 O497 1.166 . S
C499 O498 1.182 . S
O500 Zn485 2.080 . S
O500 C503 1.305 . S
O501 Zn484 1.920 . S
O501 C503 1.234 . S
C502 O488 1.305 . S
C502 O489 1.234 . S
C503 O500 1.305 . S
C503 O501 1.234 . S
H504 C512 0.929 . S
H505 C514 0.930 . S
H506 C516 0.930 . S
H507 C519 0.929 . S
H508 C522 0.930 . S
H509 C524 0.960 . S
H510 C524 0.960 . S
H511 C524 0.960 . S
C512 H504 0.929 . S
C512 C513 1.377 . S
C512 C514 1.384 . S
C513 C512 1.377 . S
C513 C519 1.390 . S
C514 H505 0.930 . S
C514 C512 1.384 . S
C514 C515 1.372 . S
C515 C514 1.372 . S
C515 C516 1.400 . S
C515 C520 1.490 . S
C516 H506 0.930 . S
C516 C515 1.400 . S
C516 C519 1.386 . S
H517 C533 0.930 . S
H518 C534 0.931 . S
C519 H507 0.929 . S
C519 C513 1.390 . S
C519 C516 1.386 . S
C520 C515 1.490 . S
C520 C522 1.395 . S
C520 C523 1.403 . S
H521 C527 0.930 . S
C522 H508 0.930 . S
C522 C520 1.395 . S
C522 C525 1.403 . S
C523 C520 1.403 . S
C523 C524 1.524 . S
C523 C527 1.400 . S
C524 H509 0.960 . S
C524 H510 0.960 . S
C524 H511 0.960 . S
C524 C523 1.524 . S
C525 C522 1.403 . S
C525 C526 1.392 . S
C525 C529 1.495 . S
C526 C525 1.392 . S
C526 C527 1.385 . S
C526 C528 1.478 . S
C527 H521 0.930 . S
C527 C523 1.400 . S
C527 C526 1.385 . S
C528 C526 1.478 . S
C528 C530 1.381 . S
C528 C534 1.383 . S
C529 C525 1.495 . S
C529 H535 0.959 . S
C529 H536 0.961 . S
C529 H537 0.960 . S
C530 C528 1.381 . S
C530 C531 1.394 . S
C530 H538 0.930 . S
C531 C530 1.394 . S
C531 C532 1.383 . S
C531 H539 0.929 . S
C532 C531 1.383 . S
C532 C533 1.377 . S
C533 H517 0.930 . S
C533 C532 1.377 . S
C533 C534 1.379 . S
C534 H518 0.931 . S
C534 C528 1.383 . S
C534 C533 1.379 . S
H535 C529 0.959 . S
H536 C529 0.961 . S
H537 C529 0.960 . S
H538 C530 0.930 . S
H539 C531 0.929 . S
H540 C548 0.929 . S
H541 C550 0.930 . S
H542 C552 0.930 . S
H543 C555 0.929 . S
H544 C558 0.930 1_565 S
H545 C560 0.960 . S
H546 C560 0.960 . S
H547 C560 0.960 . S
C548 H540 0.929 . S
C548 C549 1.377 1_565 S
C548 C550 1.384 . S
C549 C548 1.377 1_545 S
C549 C555 1.390 . S
C550 H541 0.930 . S
C550 C548 1.384 . S
C550 C551 1.372 1_565 S
C551 C550 1.372 1_545 S
C551 C552 1.400 . S
C551 C556 1.490 . S
C552 H542 0.930 . S
C552 C551 1.400 . S
C552 C555 1.386 . S
H553 C569 0.930 . S
H554 C570 0.931 . S
C555 H543 0.929 . S
C555 C549 1.390 . S
C555 C552 1.386 . S
C556 C551 1.490 . S
C556 C558 1.395 . S
C556 C559 1.403 . S
H557 C563 0.930 . S
C558 H544 0.930 1_545 S
C558 C556 1.395 . S
C558 C561 1.403 . S
C559 C556 1.403 . S
C559 C560 1.524 . S
C559 C563 1.400 . S
C560 H545 0.960 . S
C560 H546 0.960 . S
C560 H547 0.960 . S
C560 C559 1.524 . S
C561 C558 1.403 . S
C561 C562 1.392 . S
C561 C565 1.495 1_545 S
C562 C561 1.392 . S
C562 C563 1.385 . S
C562 C564 1.478 . S
C563 H557 0.930 . S
C563 C559 1.400 . S
C563 C562 1.385 . S
C564 C562 1.478 . S
C564 C566 1.381 . S
C564 C570 1.383 . S
C565 C561 1.495 1_565 S
C565 H571 0.959 . S
C565 H572 0.961 . S
C565 H573 0.960 . S
C566 C564 1.381 . S
C566 C567 1.394 . S
C566 H574 0.930 1_545 S
C567 C566 1.394 . S
C567 C568 1.383 . S
C567 H575 0.929 1_545 S
C568 C567 1.383 . S
C568 C569 1.377 . S
C569 H553 0.930 . S
C569 C568 1.377 . S
C569 C570 1.379 . S
C570 H554 0.931 . S
C570 C564 1.383 . S
C570 C569 1.379 . S
H571 C565 0.959 . S
H572 C565 0.961 . S
H573 C565 0.960 . S
H574 C566 0.930 1_565 S
H575 C567 0.929 1_565 S
H576 C584 0.929 . S
H577 C586 0.930 . S
H578 C588 0.930 . S
H579 C591 0.929 . S
H580 C594 0.930 . S
H581 C596 0.960 . S
H582 C596 0.960 1_455 S
H583 C596 0.960 . S
C584 H576 0.929 . S
C584 C585 1.377 . S
C584 C586 1.384 . S
C585 C584 1.377 . S
C585 C591 1.390 1_455 S
C586 H577 0.930 . S
C586 C584 1.384 . S
C586 C587 1.372 . S
C587 C586 1.372 . S
C587 C588 1.400 1_455 S
C587 C592 1.490 . S
C588 H578 0.930 . S
C588 C587 1.400 1_655 S
C588 C591 1.386 . S
H589 C605 0.930 . S
H590 C606 0.931 . S
C591 H579 0.929 . S
C591 C585 1.390 1_655 S
C591 C588 1.386 . S
C592 C587 1.490 . S
C592 C594 1.395 . S
C592 C595 1.403 . S
H593 C599 0.930 1_655 S
C594 H580 0.930 . S
C594 C592 1.395 . S
C594 C597 1.403 . S
C595 C592 1.403 . S
C595 C596 1.524 1_455 S
C595 C599 1.400 . S
C596 H581 0.960 . S
C596 H582 0.960 1_655 S
C596 H583 0.960 . S
C596 C595 1.524 1_655 S
C597 C594 1.403 . S
C597 C598 1.392 . S
C597 C601 1.495 . S
C598 C597 1.392 . S
C598 C599 1.385 . S
C598 C600 1.478 . S
C599 H593 0.930 1_455 S
C599 C595 1.400 . S
C599 C598 1.385 . S
C600 C598 1.478 . S
C600 C602 1.381 . S
C600 C606 1.383 1_455 S
C601 C597 1.495 . S
C601 H607 0.959 . S
C601 H608 0.961 . S
C601 H609 0.960 . S
C602 C600 1.381 . S
C602 C603 1.394 . S
C602 H610 0.930 . S
C603 C602 1.394 . S
C603 C604 1.383 . S
C603 H611 0.929 . S
C604 C603 1.383 . S
C604 C605 1.377 1_455 S
C605 H589 0.930 . S
C605 C604 1.377 1_655 S
C605 C606 1.379 . S
C606 H590 0.931 . S
C606 C600 1.383 1_655 S
C606 C605 1.379 . S
H607 C601 0.959 . S
H608 C601 0.961 . S
H609 C601 0.960 . S
H610 C602 0.930 . S
H611 C603 0.929 . S
H612 C620 0.929 . S
H613 C622 0.930 . S
H614 C624 0.930 . S
H615 C627 0.929 . S
H616 C630 0.930 . S
H617 C632 0.960 . S
H618 C632 0.960 . S
H619 C632 0.960 . S
C620 H612 0.929 . S
C620 C621 1.377 . S
C620 C622 1.384 . S
C621 C620 1.377 . S
C621 C627 1.390 . S
C622 H613 0.930 . S
C622 C620 1.384 . S
C622 C623 1.372 . S
C623 C622 1.372 . S
C623 C624 1.400 . S
C623 C628 1.490 . S
C624 H614 0.930 . S
C624 C623 1.400 . S
C624 C627 1.386 . S
H625 C641 0.930 . S
H626 C642 0.931 . S
C627 H615 0.929 . S
C627 C621 1.390 . S
C627 C624 1.386 . S
C628 C623 1.490 . S
C628 C630 1.395 . S
C628 C631 1.403 . S
H629 C635 0.930 . S
C630 H616 0.930 . S
C630 C628 1.395 . S
C630 C633 1.403 . S
C631 C628 1.403 . S
C631 C632 1.524 . S
C631 C635 1.400 . S
C632 H617 0.960 . S
C632 H618 0.960 . S
C632 H619 0.960 . S
C632 C631 1.524 . S
C633 C630 1.403 . S
C633 C634 1.392 . S
C633 C637 1.495 . S
C634 C633 1.392 . S
C634 C635 1.385 . S
C634 C636 1.478 . S
C635 H629 0.930 . S
C635 C631 1.400 . S
C635 C634 1.385 . S
C636 C634 1.478 . S
C636 C638 1.381 . S
C636 C642 1.383 . S
C637 C633 1.495 . S
C637 H643 0.959 . S
C637 H644 0.961 . S
C637 H645 0.960 . S
C638 C636 1.381 . S
C638 C639 1.394 . S
C638 H646 0.930 . S
C639 C638 1.394 . S
C639 C640 1.383 . S
C639 H647 0.929 . S
C640 C639 1.383 . S
C640 C641 1.377 . S
C641 H625 0.930 . S
C641 C640 1.377 . S
C641 C642 1.379 . S
C642 H626 0.931 . S
C642 C636 1.383 . S
C642 C641 1.379 . S
H643 C637 0.959 . S
H644 C637 0.961 . S
H645 C637 0.960 . S
H646 C638 0.930 . S
H647 C639 0.929 . S
H648 C656 0.929 . S
H649 C658 0.930 . S
H650 C660 0.930 . S
H651 C663 0.929 . S
H652 C666 0.930 . S
H653 C668 0.978 . S
H654 C668 0.942 1_545 S
H655 C668 0.969 . S
C656 H648 0.929 . S
C656 C657 1.377 . S
C656 C658 1.384 . S
C657 C656 1.377 . S
C657 C663 1.390 1_545 S
C658 H649 0.930 . S
C658 C656 1.384 . S
C658 C659 1.372 . S
C659 C658 1.372 . S
C659 C660 1.400 1_545 S
C659 C664 1.490 . S
C660 H650 0.930 . S
C660 C659 1.400 1_565 S
C660 C663 1.386 . S
H661 C677 0.930 . S
H662 C678 0.931 . S
C663 H651 0.929 . S
C663 C657 1.390 1_565 S
C663 C660 1.386 . S
C664 C659 1.490 . S
C664 C666 1.395 . S
C664 C667 1.403 . S
H665 C671 0.930 1_565 S
C666 H652 0.930 . S
C666 C664 1.395 . S
C666 C669 1.403 . S
C667 C664 1.403 . S
C667 C668 1.515 1_545 S
C667 C671 1.400 . S
C668 H653 0.978 . S
C668 H654 0.942 1_565 S
C668 H655 0.969 . S
C668 C667 1.515 1_565 S
C669 C666 1.403 . S
C669 C670 1.392 . S
C669 C673 1.495 . S
C670 C669 1.392 . S
C670 C671 1.385 . S
C670 C672 1.478 . S
C671 H665 0.930 1_545 S
C671 C667 1.400 . S
C671 C670 1.385 . S
C672 C670 1.478 . S
C672 C674 1.381 . S
C672 C678 1.383 1_545 S
C673 C669 1.495 . S
C673 H679 0.959 . S
C673 H680 0.961 . S
C673 H681 0.960 . S
C674 C672 1.381 . S
C674 C675 1.394 . S
C674 H682 0.930 . S
C675 C674 1.394 . S
C675 C676 1.383 . S
C675 H683 0.929 . S
C676 C675 1.383 . S
C676 C677 1.377 1_545 S
C677 H661 0.930 . S
C677 C676 1.377 1_565 S
C677 C678 1.379 . S
C678 H662 0.931 . S
C678 C672 1.383 1_565 S
C678 C677 1.379 . S
H679 C673 0.959 . S
H680 C673 0.961 . S
H681 C673 0.960 . S
H682 C674 0.930 . S
H683 C675 0.929 . S
H684 C692 0.929 . S
H685 C694 0.930 . S
H686 C696 0.930 . S
H687 C699 0.929 . S
H688 C702 0.930 . S
H689 C704 0.960 . S
H690 C704 0.960 . S
H691 C704 0.960 . S
C692 H684 0.929 . S
C692 C693 1.377 . S
C692 C694 1.384 . S
C693 C692 1.377 . S
C693 C699 1.390 . S
C694 H685 0.930 . S
C694 C692 1.384 . S
C694 C695 1.372 . S
C695 C694 1.372 . S
C695 C696 1.400 . S
C695 C700 1.490 . S
C696 H686 0.930 . S
C696 C695 1.400 . S
C696 C699 1.386 . S
H697 C713 0.930 . S
H698 C714 0.931 . S
C699 H687 0.929 . S
C699 C693 1.390 . S
C699 C696 1.386 . S
C700 C695 1.490 . S
C700 C702 1.395 . S
C700 C703 1.403 1_455 S
H701 C707 0.930 1_655 S
C702 H688 0.930 . S
C702 C700 1.395 . S
C702 C705 1.403 . S
C703 C700 1.403 1_655 S
C703 C704 1.524 . S
C703 C707 1.400 1_655 S
C704 H689 0.960 . S
C704 H690 0.960 . S
C704 H691 0.960 . S
C704 C703 1.524 . S
C705 C702 1.403 . S
C705 C706 1.392 . S
C705 C709 1.495 . S
C706 C705 1.392 . S
C706 C707 1.385 . S
C706 C708 1.478 . S
C707 H701 0.930 1_455 S
C707 C703 1.400 1_455 S
C707 C706 1.385 . S
C708 C706 1.478 . S
C708 C710 1.381 . S
C708 C714 1.383 . S
C709 C705 1.495 . S
C709 H715 0.959 . S
C709 H716 0.961 . S
C709 H717 0.960 . S
C710 C708 1.381 . S
C710 C711 1.394 . S
C710 H718 0.930 . S
C711 C710 1.394 . S
C711 C712 1.383 . S
C711 H719 0.929 . S
C712 C711 1.383 . S
C712 C713 1.377 . S
C713 H697 0.930 . S
C713 C712 1.377 . S
C713 C714 1.379 . S
C714 H698 0.931 . S
C714 C708 1.383 . S
C714 C713 1.379 . S
H715 C709 0.959 . S
H716 C709 0.961 . S
H717 C709 0.960 . S
H718 C710 0.930 . S
H719 C711 0.929 . S
H720 C728 0.929 . S
H721 C730 0.930 . S
H722 C732 0.930 . S
H723 C735 0.929 . S
H724 C738 0.930 . S
H725 C740 0.960 . S
H726 C740 0.960 . S
H727 C740 0.960 . S
C728 H720 0.929 . S
C728 C729 1.377 . S
C728 C730 1.384 . S
C729 C728 1.377 . S
C729 C735 1.390 . S
C730 H721 0.930 . S
C730 C728 1.384 . S
C730 C731 1.372 . S
C731 C730 1.372 . S
C731 C732 1.400 . S
C731 C736 1.490 . S
C732 H722 0.930 . S
C732 C731 1.400 . S
C732 C735 1.386 . S
H733 C749 0.930 . S
H734 C750 0.931 . S
C735 H723 0.929 . S
C735 C729 1.390 . S
C735 C732 1.386 . S
C736 C731 1.490 . S
C736 C738 1.395 . S
C736 C739 1.403 . S
H737 C743 0.930 . S
C738 H724 0.930 . S
C738 C736 1.395 . S
C738 C741 1.403 . S
C739 C736 1.403 . S
C739 C740 1.524 . S
C739 C743 1.400 . S
C740 H725 0.960 . S
C740 H726 0.960 . S
C740 H727 0.960 . S
C740 C739 1.524 . S
C741 C738 1.403 . S
C741 C742 1.392 . S
C741 C745 1.495 . S
C742 C741 1.392 . S
C742 C743 1.385 . S
C742 C744 1.478 . S
C743 H737 0.930 . S
C743 C739 1.400 . S
C743 C742 1.385 . S
C744 C742 1.478 . S
C744 C746 1.381 . S
C744 C750 1.383 . S
C745 C741 1.495 . S
C745 H751 0.959 . S
C745 H752 0.961 . S
C745 H753 0.960 . S
C746 C744 1.381 . S
C746 C747 1.394 . S
C746 H754 0.930 . S
C747 C746 1.394 . S
C747 C748 1.383 . S
C747 H755 0.929 . S
C748 C747 1.383 . S
C748 C749 1.377 . S
C749 H733 0.930 . S
C749 C748 1.377 . S
C749 C750 1.379 . S
C750 H734 0.931 . S
C750 C744 1.383 . S
C750 C749 1.379 . S
H751 C745 0.959 . S
H752 C745 0.961 . S
H753 C745 0.960 . S
H754 C746 0.930 . S
H755 C747 0.929 . S
H756 C764 0.929 . S
H757 C766 0.930 . S
H758 C768 0.930 1_565 S
H759 C771 0.929 1_565 S
H760 C774 0.930 . S
H761 C776 0.960 . S
H762 C776 0.960 . S
H763 C776 0.960 . S
C764 H756 0.929 . S
C764 C765 1.377 . S
C764 C766 1.384 . S
C765 C764 1.377 . S
C765 C771 1.390 . S
C766 H757 0.930 . S
C766 C764 1.384 . S
C766 C767 1.372 . S
C767 C766 1.372 . S
C767 C768 1.400 . S
C767 C772 1.490 . S
C768 H758 0.930 1_545 S
C768 C767 1.400 . S
C768 C771 1.386 . S
H769 C785 0.930 . S
H770 C786 0.931 . S
C771 H759 0.929 1_545 S
C771 C765 1.390 . S
C771 C768 1.386 . S
C772 C767 1.490 . S
C772 C774 1.395 . S
C772 C775 1.403 . S
H773 C779 0.930 . S
C774 H760 0.930 . S
C774 C772 1.395 . S
C774 C777 1.403 . S
C775 C772 1.403 . S
C775 C776 1.524 . S
C775 C779 1.400 . S
C776 H761 0.960 . S
C776 H762 0.960 . S
C776 H763 0.960 . S
C776 C775 1.524 . S
C777 C774 1.403 . S
C777 C778 1.392 . S
C777 C781 1.495 1_545 S
C778 C777 1.392 . S
C778 C779 1.385 . S
C778 C780 1.478 . S
C779 H773 0.930 . S
C779 C775 1.400 . S
C779 C778 1.385 . S
C780 C778 1.478 . S
C780 C782 1.381 . S
C780 C786 1.383 1_545 S
C781 C777 1.495 1_565 S
C781 H787 0.959 . S
C781 H788 0.961 . S
C781 H789 0.960 1_565 S
C782 C780 1.381 . S
C782 C783 1.394 . S
C782 H790 0.930 . S
C783 C782 1.394 . S
C783 C784 1.383 . S
C783 H791 0.929 . S
C784 C783 1.383 . S
C784 C785 1.377 1_545 S
C785 H769 0.930 . S
C785 C784 1.377 1_565 S
C785 C786 1.379 . S
C786 H770 0.931 . S
C786 C780 1.383 1_565 S
C786 C785 1.379 . S
H787 C781 0.959 . S
H788 C781 0.961 . S
H789 C781 0.960 1_545 S
H790 C782 0.930 . S
H791 C783 0.929 . S
H792 C800 0.900 1_655 S
H793 C802 0.930 . S
H794 C804 0.930 . S
H795 C807 0.929 . S
H796 C810 0.930 . S
H797 C812 0.960 . S
H798 C812 0.960 . S
H799 C812 0.960 . S
C800 H792 0.900 1_455 S
C800 C801 1.377 . S
C800 C802 1.384 . S
C801 C800 1.377 . S
C801 C807 1.390 . S
C802 H793 0.930 . S
C802 C800 1.384 . S
C802 C803 1.372 . S
C803 C802 1.372 . S
C803 C804 1.400 . S
C803 C808 1.490 . S
C804 H794 0.930 . S
C804 C803 1.400 . S
C804 C807 1.386 . S
H805 C821 0.930 . S
H806 C822 0.931 . S
C807 H795 0.929 . S
C807 C801 1.390 . S
C807 C804 1.386 . S
C808 C803 1.490 . S
C808 C810 1.395 1_455 S
C808 C811 1.403 . S
H809 C815 0.930 . S
C810 H796 0.930 . S
C810 C808 1.395 1_655 S
C810 C813 1.403 . S
C811 C808 1.403 . S
C811 C812 1.524 . S
C811 C815 1.400 . S
C812 H797 0.960 . S
C812 H798 0.960 . S
C812 H799 0.960 . S
C812 C811 1.524 . S
C813 C810 1.403 . S
C813 C814 1.392 1_655 S
C813 C817 1.495 . S
C814 C813 1.392 1_455 S
C814 C815 1.385 . S
C814 C816 1.478 . S
C815 H809 0.930 . S
C815 C811 1.400 . S
C815 C814 1.385 . S
C816 C814 1.478 . S
C816 C818 1.381 . S
C816 C822 1.383 . S
C817 C813 1.495 . S
C817 H823 0.959 . S
C817 H824 0.961 . S
C817 H825 0.960 . S
C818 C816 1.381 . S
C818 C819 1.394 . S
C818 H826 0.930 . S
C819 C818 1.394 . S
C819 C820 1.383 . S
C819 H827 0.929 . S
C820 C819 1.383 . S
C820 C821 1.377 . S
C821 H805 0.930 . S
C821 C820 1.377 . S
C821 C822 1.379 . S
C822 H806 0.931 . S
C822 C816 1.383 . S
C822 C821 1.379 . S
H823 C817 0.959 . S
H824 C817 0.961 . S
H825 C817 0.960 . S
H826 C818 0.930 . S
H827 C819 0.929 . S
H828 C836 0.929 . S
H829 C838 0.930 . S
H830 C840 0.930 . S
H831 C843 0.929 . S
H832 C846 0.930 . S
H833 C848 0.960 . S
H834 C848 0.960 . S
H835 C848 0.960 . S
C836 H828 0.929 . S
C836 C837 1.377 . S
C836 C838 1.384 . S
C837 C836 1.377 . S
C837 C843 1.390 . S
C838 H829 0.930 . S
C838 C836 1.384 . S
C838 C839 1.372 . S
C839 C838 1.372 . S
C839 C840 1.400 . S
C839 C844 1.490 . S
C840 H830 0.930 . S
C840 C839 1.400 . S
C840 C843 1.386 . S
H841 C857 0.930 . S
H842 C858 0.931 . S
C843 H831 0.929 . S
C843 C837 1.390 . S
C843 C840 1.386 . S
C844 C839 1.490 . S
C844 C846 1.395 . S
C844 C847 1.403 . S
H845 C851 0.930 . S
C846 H832 0.930 . S
C846 C844 1.395 . S
C846 C849 1.403 . S
C847 C844 1.403 . S
C847 C848 1.524 . S
C847 C851 1.400 . S
C848 H833 0.960 . S
C848 H834 0.960 . S
C848 H835 0.960 . S
C848 C847 1.524 . S
C849 C846 1.403 . S
C849 C850 1.392 . S
C849 C853 1.495 . S
C850 C849 1.392 . S
C850 C851 1.385 . S
C850 C852 1.478 . S
C851 H845 0.930 . S
C851 C847 1.400 . S
C851 C850 1.385 . S
C852 C850 1.478 . S
C852 C854 1.381 . S
C852 C858 1.383 . S
C853 C849 1.495 . S
C853 H859 0.959 . S
C853 H860 0.961 . S
C853 H861 0.960 . S
C854 C852 1.381 . S
C854 C855 1.394 . S
C854 H862 0.930 . S
C855 C854 1.394 . S
C855 C856 1.383 . S
C855 H863 0.929 . S
C856 C855 1.383 . S
C856 C857 1.377 . S
C857 H841 0.930 . S
C857 C856 1.377 . S
C857 C858 1.379 . S
C858 H842 0.931 . S
C858 C852 1.383 . S
C858 C857 1.379 . S
H859 C853 0.959 . S
H860 C853 0.961 . S
H861 C853 0.960 . S
H862 C854 0.930 . S
H863 C855 0.929 . S
H864 C872 0.929 . S
H865 C874 0.930 . S
H866 C876 0.930 . S
H867 C879 0.929 . S
H868 C882 0.930 . S
H869 C884 0.960 . S
H870 C884 0.960 . S
H871 C884 0.960 1_565 S
C872 H864 0.929 . S
C872 C873 1.377 . S
C872 C874 1.384 . S
C873 C872 1.377 . S
C873 C879 1.390 1_545 S
C874 H865 0.930 . S
C874 C872 1.384 . S
C874 C875 1.372 . S
C875 C874 1.372 . S
C875 C876 1.400 1_545 S
C875 C880 1.490 . S
C876 H866 0.930 . S
C876 C875 1.400 1_565 S
C876 C879 1.386 . S
H877 C893 0.930 1_565 S
H878 C894 0.931 1_565 S
C879 H867 0.929 . S
C879 C873 1.390 1_565 S
C879 C876 1.386 . S
C880 C875 1.490 . S
C880 C882 1.395 . S
C880 C883 1.403 . S
H881 C887 0.930 . S
C882 H868 0.930 . S
C882 C880 1.395 . S
C882 C885 1.403 . S
C883 C880 1.403 . S
C883 C884 1.524 . S
C883 C887 1.400 . S
C884 H869 0.960 . S
C884 H870 0.960 . S
C884 H871 0.960 1_545 S
C884 C883 1.524 . S
C885 C882 1.403 . S
C885 C886 1.392 . S
C885 C889 1.495 . S
C886 C885 1.392 . S
C886 C887 1.385 . S
C886 C888 1.478 . S
C887 H881 0.930 . S
C887 C883 1.400 . S
C887 C886 1.385 . S
C888 C886 1.478 . S
C888 C890 1.381 . S
C888 C894 1.383 . S
C889 C885 1.495 . S
C889 H895 0.959 . S
C889 H896 0.961 . S
C889 H897 0.960 . S
C890 C888 1.381 . S
C890 C891 1.394 . S
C890 H898 0.930 . S
C891 C890 1.394 . S
C891 C892 1.383 . S
C891 H899 0.929 . S
C892 C891 1.383 . S
C892 C893 1.377 . S
C893 H877 0.930 1_545 S
C893 C892 1.377 . S
C893 C894 1.379 . S
C894 H878 0.931 1_545 S
C894 C888 1.383 . S
C894 C893 1.379 . S
H895 C889 0.959 . S
H896 C889 0.961 . S
H897 C889 0.960 . S
H898 C890 0.930 . S
H899 C891 0.929 . S
H900 C908 0.929 . S
H901 C910 0.930 . S
H902 C912 0.930 . S
H903 C915 0.929 . S
H904 C918 0.930 . S
H905 C920 0.960 . S
H906 C920 0.960 . S
H907 C920 0.960 . S
C908 H900 0.929 . S
C908 C909 1.377 1_655 S
C908 C910 1.384 . S
C909 C908 1.377 1_455 S
C909 C915 1.390 . S
C910 H901 0.930 . S
C910 C908 1.384 . S
C910 C911 1.372 1_655 S
C911 C910 1.372 1_455 S
C911 C912 1.400 . S
C911 C916 1.490 . S
C912 H902 0.930 . S
C912 C911 1.400 . S
C912 C915 1.386 . S
H913 C929 0.930 . S
H914 C930 0.931 . S
C915 H903 0.929 . S
C915 C909 1.390 . S
C915 C912 1.386 . S
C916 C911 1.490 . S
C916 C918 1.395 1_455 S
C916 C919 1.403 . S
H917 C923 0.930 . S
C918 H904 0.930 . S
C918 C916 1.395 1_655 S
C918 C921 1.403 . S
C919 C916 1.403 . S
C919 C920 1.524 . S
C919 C923 1.400 . S
C920 H905 0.960 . S
C920 H906 0.960 . S
C920 H907 0.960 . S
C920 C919 1.524 . S
C921 C918 1.403 . S
C921 C922 1.392 1_655 S
C921 C925 1.495 . S
C922 C921 1.392 1_455 S
C922 C923 1.385 . S
C922 C924 1.478 . S
C923 H917 0.930 . S
C923 C919 1.400 . S
C923 C922 1.385 . S
C924 C922 1.478 . S
C924 C926 1.381 1_455 S
C924 C930 1.383 . S
C925 C921 1.495 . S
C925 H931 0.959 . S
C925 H932 0.961 . S
C925 H933 0.960 . S
C926 C924 1.381 1_655 S
C926 C927 1.394 . S
C926 H934 0.930 . S
C927 C926 1.394 . S
C927 C928 1.383 1_655 S
C927 H935 0.929 . S
C928 C927 1.383 1_455 S
C928 C929 1.377 . S
C929 H913 0.930 . S
C929 C928 1.377 . S
C929 C930 1.379 . S
C930 H914 0.931 . S
C930 C924 1.383 . S
C930 C929 1.379 . S
H931 C925 0.959 . S
H932 C925 0.961 . S
H933 C925 0.960 . S
H934 C926 0.930 . S
H935 C927 0.929 . S
H936 C944 0.929 . S
H937 C946 0.930 . S
H938 C948 0.930 . S
H939 C951 0.929 . S
H940 C954 0.930 . S
H941 C956 0.960 . S
H942 C956 0.960 . S
H943 C956 0.960 . S
C944 H936 0.929 . S
C944 C945 1.377 . S
C944 C946 1.384 . S
C945 C944 1.377 . S
C945 C951 1.390 . S
C946 H937 0.930 . S
C946 C944 1.384 . S
C946 C947 1.372 . S
C947 C946 1.372 . S
C947 C948 1.400 . S
C947 C952 1.490 . S
C948 H938 0.930 . S
C948 C947 1.400 . S
C948 C951 1.386 . S
H949 C965 0.930 . S
H950 C966 0.931 . S
C951 H939 0.929 . S
C951 C945 1.390 . S
C951 C948 1.386 . S
C952 C947 1.490 . S
C952 C954 1.395 . S
C952 C955 1.403 . S
H953 C959 0.930 . S
C954 H940 0.930 . S
C954 C952 1.395 . S
C954 C957 1.403 . S
C955 C952 1.403 . S
C955 C956 1.524 . S
C955 C959 1.400 . S
C956 H941 0.960 . S
C956 H942 0.960 . S
C956 H943 0.960 . S
C956 C955 1.524 . S
C957 C954 1.403 . S
C957 C958 1.392 . S
C957 C961 1.495 . S
C958 C957 1.392 . S
C958 C959 1.385 . S
C958 C960 1.478 . S
C959 H953 0.930 . S
C959 C955 1.400 . S
C959 C958 1.385 . S
C960 C958 1.478 . S
C960 C962 1.381 . S
C960 C966 1.383 . S
C961 C957 1.495 . S
C961 H967 0.959 . S
C961 H968 0.961 . S
C961 H969 0.960 . S
C962 C960 1.381 . S
C962 C963 1.394 . S
C962 H970 0.930 . S
C963 C962 1.394 . S
C963 C964 1.383 . S
C963 H971 0.929 . S
C964 C963 1.383 . S
C964 C965 1.377 . S
C965 H949 0.930 . S
C965 C964 1.377 . S
C965 C966 1.379 . S
C966 H950 0.931 . S
C966 C960 1.383 . S
C966 C965 1.379 . S
H967 C961 0.959 . S
H968 C961 0.961 . S
H969 C961 0.960 . S
H970 C962 0.930 . S
H971 C963 0.929 . S
H972 C980 0.929 . S
H973 C982 0.930 . S
H974 C984 0.930 . S
H975 C987 0.929 . S
H976 C990 0.930 . S
H977 C992 0.960 . S
H978 C992 0.960 . S
H979 C992 0.960 . S
C980 H972 0.929 . S
C980 C981 1.377 . S
C980 C982 1.384 . S
C981 C980 1.377 . S
C981 C987 1.390 . S
C982 H973 0.930 . S
C982 C980 1.384 . S
C982 C983 1.372 . S
C983 C982 1.372 . S
C983 C984 1.400 . S
C983 C988 1.490 . S
C984 H974 0.930 . S
C984 C983 1.400 . S
C984 C987 1.386 . S
H985 C1001 0.930 . S
H986 C1002 0.931 . S
C987 H975 0.929 . S
C987 C981 1.390 . S
C987 C984 1.386 . S
C988 C983 1.490 . S
C988 C990 1.395 . S
C988 C991 1.403 . S
H989 C995 0.930 . S
C990 H976 0.930 . S
C990 C988 1.395 . S
C990 C993 1.403 . S
C991 C988 1.403 . S
C991 C992 1.524 . S
C991 C995 1.400 . S
C992 H977 0.960 . S
C992 H978 0.960 . S
C992 H979 0.960 . S
C992 C991 1.524 . S
C993 C990 1.403 . S
C993 C994 1.392 . S
C993 C997 1.495 . S
C994 C993 1.392 . S
C994 C995 1.385 . S
C994 C996 1.478 . S
C995 H989 0.930 . S
C995 C991 1.400 . S
C995 C994 1.385 . S
C996 C994 1.478 . S
C996 C998 1.381 . S
C996 C1002 1.383 . S
C997 C993 1.495 . S
C997 H1003 0.959 . S
C997 H1004 0.961 . S
C997 H1005 0.960 . S
C998 C996 1.381 . S
C998 C999 1.394 . S
C998 H1006 0.930 . S
C999 C998 1.394 . S
C999 C1000 1.383 . S
C999 H1007 0.929 . S
C1000 C999 1.383 . S
C1000 C1001 1.377 . S
C1001 H985 0.930 . S
C1001 C1000 1.377 . S
C1001 C1002 1.379 . S
C1002 H986 0.931 . S
C1002 C996 1.383 . S
C1002 C1001 1.379 . S
H1003 C997 0.959 . S
H1004 C997 0.961 . S
H1005 C997 0.960 . S
H1006 C998 0.930 . S
H1007 C999 0.929 . S
H1008 C1016 0.929 . S
H1009 C1018 0.930 . S
H1010 C1020 0.930 . S
H1011 C1023 0.929 . S
H1012 C1026 0.930 . S
H1013 C1028 0.960 . S
H1014 C1028 0.960 . S
H1015 C1028 0.960 . S
C1016 H1008 0.929 . S
C1016 C1017 1.377 . S
C1016 C1018 1.384 . S
C1017 C1016 1.377 . S
C1017 C1023 1.390 . S
C1018 H1009 0.930 . S
C1018 C1016 1.384 . S
C1018 C1019 1.372 . S
C1019 C1018 1.372 . S
C1019 C1020 1.400 . S
C1019 C1024 1.490 . S
C1020 H1010 0.930 . S
C1020 C1019 1.400 . S
C1020 C1023 1.386 . S
H1021 C1037 0.930 . S
H1022 C1038 0.931 . S
C1023 H1011 0.929 . S
C1023 C1017 1.390 . S
C1023 C1020 1.386 . S
C1024 C1019 1.490 . S
C1024 C1026 1.395 . S
C1024 C1027 1.403 . S
H1025 C1031 0.930 . S
C1026 H1012 0.930 . S
C1026 C1024 1.395 . S
C1026 C1029 1.403 . S
C1027 C1024 1.403 . S
C1027 C1028 1.524 . S
C1027 C1031 1.400 . S
C1028 H1013 0.960 . S
C1028 H1014 0.960 . S
C1028 H1015 0.960 . S
C1028 C1027 1.524 . S
C1029 C1026 1.403 . S
C1029 C1030 1.392 . S
C1029 C1033 1.495 . S
C1030 C1029 1.392 . S
C1030 C1031 1.385 . S
C1030 C1032 1.478 . S
C1031 H1025 0.930 . S
C1031 C1027 1.400 . S
C1031 C1030 1.385 . S
C1032 C1030 1.478 . S
C1032 C1034 1.381 . S
C1032 C1038 1.383 . S
C1033 C1029 1.495 . S
C1033 H1039 0.959 . S
C1033 H1040 0.961 . S
C1033 H1041 0.960 . S
C1034 C1032 1.381 . S
C1034 C1035 1.394 . S
C1034 H1042 0.930 . S
C1035 C1034 1.394 . S
C1035 C1036 1.383 . S
C1035 H1043 0.929 . S
C1036 C1035 1.383 . S
C1036 C1037 1.377 . S
C1037 H1021 0.930 . S
C1037 C1036 1.377 . S
C1037 C1038 1.379 . S
C1038 H1022 0.931 . S
C1038 C1032 1.383 . S
C1038 C1037 1.379 . S
H1039 C1033 0.959 . S
H1040 C1033 0.961 . S
H1041 C1033 0.960 . S
H1042 C1034 0.930 . S
H1043 C1035 0.929 . S
H1044 C1052 0.929 . S
H1045 C1054 0.930 . S
H1046 C1056 0.930 . S
H1047 C1059 0.929 . S
H1048 C1062 0.930 . S
H1049 C1064 0.960 . S
H1050 C1064 0.960 . S
H1051 C1064 0.960 . S
C1052 H1044 0.929 . S
C1052 C1053 1.377 . S
C1052 C1054 1.384 . S
C1053 C1052 1.377 . S
C1053 C1059 1.390 . S
C1054 H1045 0.930 . S
C1054 C1052 1.384 . S
C1054 C1055 1.372 . S
C1055 C1054 1.372 . S
C1055 C1056 1.400 . S
C1055 C1060 1.490 . S
C1056 H1046 0.930 . S
C1056 C1055 1.400 . S
C1056 C1059 1.386 . S
H1057 C1073 0.930 . S
H1058 C1074 0.931 . S
C1059 H1047 0.929 . S
C1059 C1053 1.390 . S
C1059 C1056 1.386 . S
C1060 C1055 1.490 . S
C1060 C1062 1.395 . S
C1060 C1063 1.403 . S
H1061 C1067 0.930 . S
C1062 H1048 0.930 . S
C1062 C1060 1.395 . S
C1062 C1065 1.403 . S
C1063 C1060 1.403 . S
C1063 C1064 1.524 . S
C1063 C1067 1.400 . S
C1064 H1049 0.960 . S
C1064 H1050 0.960 . S
C1064 H1051 0.960 . S
C1064 C1063 1.524 . S
C1065 C1062 1.403 . S
C1065 C1066 1.392 . S
C1065 C1069 1.495 . S
C1066 C1065 1.392 . S
C1066 C1067 1.385 . S
C1066 C1068 1.478 . S
C1067 H1061 0.930 . S
C1067 C1063 1.400 . S
C1067 C1066 1.385 . S
C1068 C1066 1.478 . S
C1068 C1070 1.381 . S
C1068 C1074 1.383 . S
C1069 C1065 1.495 . S
C1069 H1075 0.959 . S
C1069 H1076 0.961 . S
C1069 H1077 0.960 . S
C1070 C1068 1.381 . S
C1070 C1071 1.394 . S
C1070 H1078 0.930 . S
C1071 C1070 1.394 . S
C1071 C1072 1.383 . S
C1071 H1079 0.929 . S
C1072 C1071 1.383 . S
C1072 C1073 1.377 . S
C1073 H1057 0.930 . S
C1073 C1072 1.377 . S
C1073 C1074 1.379 . S
C1074 H1058 0.931 . S
C1074 C1068 1.383 . S
C1074 C1073 1.379 . S
H1075 C1069 0.959 . S
H1076 C1069 0.961 . S
H1077 C1069 0.960 . S
H1078 C1070 0.930 . S
H1079 C1071 0.929 . S
H1080 C1088 0.929 . S
H1081 C1090 0.930 . S
H1082 C1092 0.930 . S
H1083 C1095 0.929 . S
H1084 C1098 0.930 . S
H1085 C1100 0.960 . S
H1086 C1100 0.960 . S
H1087 C1100 0.960 . S
C1088 H1080 0.929 . S
C1088 C1089 1.377 . S
C1088 C1090 1.384 . S
C1089 C1088 1.377 . S
C1089 C1095 1.390 . S
C1090 H1081 0.930 . S
C1090 C1088 1.384 . S
C1090 C1091 1.372 . S
C1091 C1090 1.372 . S
C1091 C1092 1.400 . S
C1091 C1096 1.490 . S
C1092 H1082 0.930 . S
C1092 C1091 1.400 . S
C1092 C1095 1.386 . S
H1093 C1109 0.930 . S
H1094 C1110 0.931 . S
C1095 H1083 0.929 . S
C1095 C1089 1.390 . S
C1095 C1092 1.386 . S
C1096 C1091 1.490 . S
C1096 C1098 1.395 . S
C1096 C1099 1.403 . S
H1097 C1103 0.930 . S
C1098 H1084 0.930 . S
C1098 C1096 1.395 . S
C1098 C1101 1.403 . S
C1099 C1096 1.403 . S
C1099 C1100 1.524 . S
C1099 C1103 1.400 . S
C1100 H1085 0.960 . S
C1100 H1086 0.960 . S
C1100 H1087 0.960 . S
C1100 C1099 1.524 . S
C1101 C1098 1.403 . S
C1101 C1102 1.392 . S
C1101 C1105 1.495 . S
C1102 C1101 1.392 . S
C1102 C1103 1.385 . S
C1102 C1104 1.478 . S
C1103 H1097 0.930 . S
C1103 C1099 1.400 . S
C1103 C1102 1.385 . S
C1104 C1102 1.478 . S
C1104 C1106 1.381 . S
C1104 C1110 1.383 . S
C1105 C1101 1.495 . S
C1105 H1111 0.959 . S
C1105 H1112 0.961 . S
C1105 H1113 0.960 . S
C1106 C1104 1.381 . S
C1106 C1107 1.394 . S
C1106 H1114 0.930 . S
C1107 C1106 1.394 . S
C1107 C1108 1.383 . S
C1107 H1115 0.929 . S
C1108 C1107 1.383 . S
C1108 C1109 1.377 . S
C1109 H1093 0.930 . S
C1109 C1108 1.377 . S
C1109 C1110 1.379 . S
C1110 H1094 0.931 . S
C1110 C1104 1.383 . S
C1110 C1109 1.379 . S
H1111 C1105 0.959 . S
H1112 C1105 0.961 . S
H1113 C1105 0.960 . S
H1114 C1106 0.930 . S
H1115 C1107 0.929 . S
H1116 C1124 0.929 . S
H1117 C1126 0.930 . S
H1118 C1128 0.930 . S
H1119 C1131 0.929 . S
H1120 C1134 0.930 . S
H1121 C1136 0.960 . S
H1122 C1136 0.960 . S
H1123 C1136 0.960 . S
C1124 H1116 0.929 . S
C1124 C1125 1.377 . S
C1124 C1126 1.384 . S
C1125 C1124 1.377 . S
C1125 C1131 1.390 . S
C1126 H1117 0.930 . S
C1126 C1124 1.384 . S
C1126 C1127 1.372 . S
C1127 C1126 1.372 . S
C1127 C1128 1.400 . S
C1127 C1132 1.490 . S
C1128 H1118 0.930 . S
C1128 C1127 1.400 . S
C1128 C1131 1.386 . S
H1129 C1145 0.930 . S
H1130 C1146 0.931 . S
C1131 H1119 0.929 . S
C1131 C1125 1.390 . S
C1131 C1128 1.386 . S
C1132 C1127 1.490 . S
C1132 C1134 1.395 . S
C1132 C1135 1.403 . S
H1133 C1139 0.930 . S
C1134 H1120 0.930 . S
C1134 C1132 1.395 . S
C1134 C1137 1.403 . S
C1135 C1132 1.403 . S
C1135 C1136 1.524 . S
C1135 C1139 1.400 . S
C1136 H1121 0.960 . S
C1136 H1122 0.960 . S
C1136 H1123 0.960 . S
C1136 C1135 1.524 . S
C1137 C1134 1.403 . S
C1137 C1138 1.392 . S
C1137 C1141 1.495 . S
C1138 C1137 1.392 . S
C1138 C1139 1.385 . S
C1138 C1140 1.478 . S
C1139 H1133 0.930 . S
C1139 C1135 1.400 . S
C1139 C1138 1.385 . S
C1140 C1138 1.478 . S
C1140 C1142 1.381 . S
C1140 C1146 1.383 . S
C1141 C1137 1.495 . S
C1141 H1147 0.959 . S
C1141 H1148 0.961 . S
C1141 H1149 0.960 . S
C1142 C1140 1.381 . S
C1142 C1143 1.394 . S
C1142 H1150 0.930 . S
C1143 C1142 1.394 . S
C1143 C1144 1.383 . S
C1143 H1151 0.929 . S
C1144 C1143 1.383 . S
C1144 C1145 1.377 . S
C1145 H1129 0.930 . S
C1145 C1144 1.377 . S
C1145 C1146 1.379 . S
C1146 H1130 0.931 . S
C1146 C1140 1.383 . S
C1146 C1145 1.379 . S
H1147 C1141 0.959 . S
H1148 C1141 0.961 . S
H1149 C1141 0.960 . S
H1150 C1142 0.930 . S
H1151 C1143 0.929 . S
H1152 C1160 0.929 . S
H1153 C1162 0.930 . S
H1154 C1164 0.930 . S
H1155 C1167 0.929 . S
H1156 C1170 0.930 . S
H1157 C1172 0.960 . S
H1158 C1172 0.960 . S
H1159 C1172 0.960 . S
C1160 H1152 0.929 . S
C1160 C1161 1.377 . S
C1160 C1162 1.384 . S
C1161 C1160 1.377 . S
C1161 C1167 1.390 . S
C1162 H1153 0.930 . S
C1162 C1160 1.384 . S
C1162 C1163 1.372 . S
C1163 C1162 1.372 . S
C1163 C1164 1.400 . S
C1163 C1168 1.490 . S
C1164 H1154 0.930 . S
C1164 C1163 1.400 . S
C1164 C1167 1.386 . S
H1165 C1181 0.930 . S
H1166 C1182 0.931 . S
C1167 H1155 0.929 . S
C1167 C1161 1.390 . S
C1167 C1164 1.386 . S
C1168 C1163 1.490 . S
C1168 C1170 1.395 . S
C1168 C1171 1.403 . S
H1169 C1175 0.930 . S
C1170 H1156 0.930 . S
C1170 C1168 1.395 . S
C1170 C1173 1.403 . S
C1171 C1168 1.403 . S
C1171 C1172 1.524 . S
C1171 C1175 1.400 . S
C1172 H1157 0.960 . S
C1172 H1158 0.960 . S
C1172 H1159 0.960 . S
C1172 C1171 1.524 . S
C1173 C1170 1.403 . S
C1173 C1174 1.392 . S
C1173 C1177 1.495 . S
C1174 C1173 1.392 . S
C1174 C1175 1.385 . S
C1174 C1176 1.478 . S
C1175 H1169 0.930 . S
C1175 C1171 1.400 . S
C1175 C1174 1.385 . S
C1176 C1174 1.478 . S
C1176 C1178 1.381 . S
C1176 C1182 1.383 . S
C1177 C1173 1.495 . S
C1177 H1183 0.959 . S
C1177 H1184 0.961 . S
C1177 H1185 0.960 . S
C1178 C1176 1.381 . S
C1178 C1179 1.394 . S
C1178 H1186 0.930 . S
C1179 C1178 1.394 . S
C1179 C1180 1.383 . S
C1179 H1187 0.929 . S
C1180 C1179 1.383 . S
C1180 C1181 1.377 . S
C1181 H1165 0.930 . S
C1181 C1180 1.377 . S
C1181 C1182 1.379 . S
C1182 H1166 0.931 . S
C1182 C1176 1.383 . S
C1182 C1181 1.379 . S
H1183 C1177 0.959 . S
H1184 C1177 0.961 . S
H1185 C1177 0.960 . S
H1186 C1178 0.930 . S
H1187 C1179 0.929 . S
H1188 C1196 0.929 . S
H1189 C1198 0.930 . S
H1190 C1200 0.930 . S
H1191 C1203 0.929 . S
H1192 C1206 0.930 . S
H1193 C1208 0.960 . S
H1194 C1208 0.960 . S
H1195 C1208 0.960 . S
C1196 H1188 0.929 . S
C1196 C1197 1.377 . S
C1196 C1198 1.384 . S
C1197 C1196 1.377 . S
C1197 C1203 1.390 . S
C1198 H1189 0.930 . S
C1198 C1196 1.384 . S
C1198 C1199 1.372 . S
C1199 C1198 1.372 . S
C1199 C1200 1.400 . S
C1199 C1204 1.490 . S
C1200 H1190 0.930 . S
C1200 C1199 1.400 . S
C1200 C1203 1.386 . S
H1201 C1217 0.930 . S
H1202 C1218 0.931 . S
C1203 H1191 0.929 . S
C1203 C1197 1.390 . S
C1203 C1200 1.386 . S
C1204 C1199 1.490 . S
C1204 C1206 1.395 . S
C1204 C1207 1.403 . S
H1205 C1211 0.930 . S
C1206 H1192 0.930 . S
C1206 C1204 1.395 . S
C1206 C1209 1.403 . S
C1207 C1204 1.403 . S
C1207 C1208 1.524 . S
C1207 C1211 1.400 . S
C1208 H1193 0.960 . S
C1208 H1194 0.960 . S
C1208 H1195 0.960 . S
C1208 C1207 1.524 . S
C1209 C1206 1.403 . S
C1209 C1210 1.392 . S
C1209 C1213 1.495 . S
C1210 C1209 1.392 . S
C1210 C1211 1.385 . S
C1210 C1212 1.478 . S
C1211 H1205 0.930 . S
C1211 C1207 1.400 . S
C1211 C1210 1.385 . S
C1212 C1210 1.478 . S
C1212 C1214 1.381 . S
C1212 C1218 1.383 . S
C1213 C1209 1.495 . S
C1213 H1219 0.959 . S
C1213 H1220 0.961 . S
C1213 H1221 0.960 . S
C1214 C1212 1.381 . S
C1214 C1215 1.394 . S
C1214 H1222 0.930 . S
C1215 C1214 1.394 . S
C1215 C1216 1.383 . S
C1215 H1223 0.929 . S
C1216 C1215 1.383 . S
C1216 C1217 1.377 . S
C1217 H1201 0.930 . S
C1217 C1216 1.377 . S
C1217 C1218 1.379 . S
C1218 H1202 0.931 . S
C1218 C1212 1.383 . S
C1218 C1217 1.379 . S
H1219 C1213 0.959 . S
H1220 C1213 0.961 . S
H1221 C1213 0.960 . S
H1222 C1214 0.930 . S
H1223 C1215 0.929 . S
H1224 C1232 0.929 . S
H1225 C1234 0.930 . S
H1226 C1236 0.930 . S
H1227 C1239 0.929 . S
H1228 C1242 0.930 . S
H1229 C1244 0.960 . S
H1230 C1244 0.960 . S
H1231 C1244 0.960 . S
C1232 H1224 0.929 . S
C1232 C1233 1.377 . S
C1232 C1234 1.384 . S
C1233 C1232 1.377 . S
C1233 C1239 1.390 . S
C1234 H1225 0.930 . S
C1234 C1232 1.384 . S
C1234 C1235 1.372 . S
C1235 C1234 1.372 . S
C1235 C1236 1.400 . S
C1235 C1240 1.490 . S
C1236 H1226 0.930 . S
C1236 C1235 1.400 . S
C1236 C1239 1.386 . S
H1237 C1253 0.930 . S
H1238 C1254 0.931 . S
C1239 H1227 0.929 . S
C1239 C1233 1.390 . S
C1239 C1236 1.386 . S
C1240 C1235 1.490 . S
C1240 C1242 1.395 . S
C1240 C1243 1.403 . S
H1241 C1247 0.930 . S
C1242 H1228 0.930 . S
C1242 C1240 1.395 . S
C1242 C1245 1.403 . S
C1243 C1240 1.403 . S
C1243 C1244 1.524 . S
C1243 C1247 1.400 . S
C1244 H1229 0.960 . S
C1244 H1230 0.960 . S
C1244 H1231 0.960 . S
C1244 C1243 1.524 . S
C1245 C1242 1.403 . S
C1245 C1246 1.392 . S
C1245 C1249 1.495 . S
C1246 C1245 1.392 . S
C1246 C1247 1.385 . S
C1246 C1248 1.478 . S
C1247 H1241 0.930 . S
C1247 C1243 1.400 . S
C1247 C1246 1.385 . S
C1248 C1246 1.478 . S
C1248 C1250 1.381 . S
C1248 C1254 1.383 . S
C1249 C1245 1.495 . S
C1249 H1255 0.959 . S
C1249 H1256 0.961 . S
C1249 H1257 0.960 . S
C1250 C1248 1.381 . S
C1250 C1251 1.394 . S
C1250 H1258 0.930 . S
C1251 C1250 1.394 . S
C1251 C1252 1.383 . S
C1251 H1259 0.929 . S
C1252 C1251 1.383 . S
C1252 C1253 1.377 . S
C1253 H1237 0.930 . S
C1253 C1252 1.377 . S
C1253 C1254 1.379 . S
C1254 H1238 0.931 . S
C1254 C1248 1.383 . S
C1254 C1253 1.379 . S
H1255 C1249 0.959 . S
H1256 C1249 0.961 . S
H1257 C1249 0.960 . S
H1258 C1250 0.930 . S
H1259 C1251 0.929 . S
H1260 C1268 0.929 . S
H1261 C1270 0.930 . S
H1262 C1272 0.930 . S
H1263 C1275 0.929 . S
H1264 C1278 0.930 . S
H1265 C1280 0.960 . S
H1266 C1280 0.960 . S
H1267 C1280 0.960 . S
C1268 H1260 0.929 . S
C1268 C1269 1.377 . S
C1268 C1270 1.384 . S
C1269 C1268 1.377 . S
C1269 C1275 1.390 . S
C1270 H1261 0.930 . S
C1270 C1268 1.384 . S
C1270 C1271 1.372 . S
C1271 C1270 1.372 . S
C1271 C1272 1.400 . S
C1271 C1276 1.490 . S
C1272 H1262 0.930 . S
C1272 C1271 1.400 . S
C1272 C1275 1.386 . S
H1273 C1289 0.930 . S
H1274 C1290 0.931 . S
C1275 H1263 0.929 . S
C1275 C1269 1.390 . S
C1275 C1272 1.386 . S
C1276 C1271 1.490 . S
C1276 C1278 1.395 . S
C1276 C1279 1.403 . S
H1277 C1283 0.930 . S
C1278 H1264 0.930 . S
C1278 C1276 1.395 . S
C1278 C1281 1.403 . S
C1279 C1276 1.403 . S
C1279 C1280 1.524 . S
C1279 C1283 1.400 . S
C1280 H1265 0.960 . S
C1280 H1266 0.960 . S
C1280 H1267 0.960 . S
C1280 C1279 1.524 . S
C1281 C1278 1.403 . S
C1281 C1282 1.392 . S
C1281 C1285 1.495 . S
C1282 C1281 1.392 . S
C1282 C1283 1.385 . S
C1282 C1284 1.478 . S
C1283 H1277 0.930 . S
C1283 C1279 1.400 . S
C1283 C1282 1.385 . S
C1284 C1282 1.478 . S
C1284 C1286 1.381 . S
C1284 C1290 1.383 . S
C1285 C1281 1.495 . S
C1285 H1291 0.959 . S
C1285 H1292 0.961 . S
C1285 H1293 0.960 . S
C1286 C1284 1.381 . S
C1286 C1287 1.394 . S
C1286 H1294 0.930 . S
C1287 C1286 1.394 . S
C1287 C1288 1.383 . S
C1287 H1295 0.929 1_554 S
C1288 C1287 1.383 . S
C1288 C1289 1.377 . S
C1289 H1273 0.930 . S
C1289 C1288 1.377 . S
C1289 C1290 1.379 . S
C1290 H1274 0.931 . S
C1290 C1284 1.383 . S
C1290 C1289 1.379 . S
H1291 C1285 0.959 . S
H1292 C1285 0.961 . S
H1293 C1285 0.960 . S
H1294 C1286 0.930 . S
H1295 C1287 0.929 1_556 S
H1296 C1304 0.929 . S
H1297 C1306 0.930 . S
H1298 C1308 0.930 . S
H1299 C1311 0.929 . S
H1300 C1314 0.930 . S
H1301 C1316 0.960 . S
H1302 C1316 0.960 . S
H1303 C1316 0.960 . S
C1304 H1296 0.929 . S
C1304 C1305 1.377 . S
C1304 C1306 1.384 . S
C1305 C1304 1.377 . S
C1305 C1311 1.390 . S
C1306 H1297 0.930 . S
C1306 C1304 1.384 . S
C1306 C1307 1.372 . S
C1307 C1306 1.372 . S
C1307 C1308 1.400 . S
C1307 C1312 1.490 . S
C1308 H1298 0.930 . S
C1308 C1307 1.400 . S
C1308 C1311 1.386 . S
H1309 C1325 0.972 . S
H1310 C1326 0.931 . S
C1311 H1299 0.929 . S
C1311 C1305 1.390 . S
C1311 C1308 1.386 . S
C1312 C1307 1.490 . S
C1312 C1314 1.395 . S
C1312 C1315 1.403 . S
H1313 C1319 0.930 . S
C1314 H1300 0.930 . S
C1314 C1312 1.395 . S
C1314 C1317 1.403 . S
C1315 C1312 1.403 . S
C1315 C1316 1.524 . S
C1315 C1319 1.400 . S
C1316 H1301 0.960 . S
C1316 H1302 0.960 . S
C1316 H1303 0.960 . S
C1316 C1315 1.524 . S
C1317 C1314 1.403 . S
C1317 C1318 1.392 . S
C1317 C1321 1.495 . S
C1318 C1317 1.392 . S
C1318 C1319 1.385 . S
C1318 C1320 1.478 . S
C1319 H1313 0.930 . S
C1319 C1315 1.400 . S
C1319 C1318 1.385 . S
C1320 C1318 1.478 . S
C1320 C1322 1.381 . S
C1320 C1326 1.383 . S
C1321 C1317 1.495 . S
C1321 H1327 0.959 . S
C1321 H1328 0.961 . S
C1321 H1329 0.960 . S
C1322 C1320 1.381 . S
C1322 C1323 1.394 . S
C1322 H1330 0.930 . S
C1323 C1322 1.394 . S
C1323 C1324 1.383 . S
C1323 H1331 0.929 . S
C1324 C1323 1.383 . S
C1324 C1325 1.369 1_554 S
C1325 H1309 0.972 . S
C1325 C1324 1.369 1_556 S
C1325 C1326 1.347 1_556 S
C1326 H1310 0.931 . S
C1326 C1320 1.383 . S
C1326 C1325 1.347 1_554 S
H1327 C1321 0.959 . S
H1328 C1321 0.961 . S
H1329 C1321 0.960 . S
H1330 C1322 0.930 . S
H1331 C1323 0.929 . S
H1332 C1340 0.929 . S
H1333 C1342 0.930 . S
H1334 C1344 0.930 . S
H1335 C1347 0.929 . S
H1336 C1350 0.930 . S
H1337 C1352 0.960 . S
H1338 C1352 0.960 . S
H1339 C1352 0.960 . S
C1340 H1332 0.929 . S
C1340 C1341 1.377 . S
C1340 C1342 1.384 . S
C1341 C1340 1.377 . S
C1341 C1347 1.390 . S
C1342 H1333 0.930 . S
C1342 C1340 1.384 . S
C1342 C1343 1.372 . S
C1343 C1342 1.372 . S
C1343 C1344 1.400 . S
C1343 C1348 1.490 . S
C1344 H1334 0.930 . S
C1344 C1343 1.400 . S
C1344 C1347 1.386 . S
H1345 C1361 0.965 . S
H1346 C1362 0.931 . S
C1347 H1335 0.929 . S
C1347 C1341 1.390 . S
C1347 C1344 1.386 . S
C1348 C1343 1.490 . S
C1348 C1350 1.395 . S
C1348 C1351 1.403 . S
H1349 C1355 0.930 . S
C1350 H1336 0.930 . S
C1350 C1348 1.395 . S
C1350 C1353 1.403 . S
C1351 C1348 1.403 . S
C1351 C1352 1.524 . S
C1351 C1355 1.400 . S
C1352 H1337 0.960 . S
C1352 H1338 0.960 . S
C1352 H1339 0.960 . S
C1352 C1351 1.524 . S
C1353 C1350 1.403 . S
C1353 C1354 1.392 . S
C1353 C1357 1.495 . S
C1354 C1353 1.392 . S
C1354 C1355 1.385 . S
C1354 C1356 1.478 . S
C1355 H1349 0.930 . S
C1355 C1351 1.400 . S
C1355 C1354 1.385 . S
C1356 C1354 1.478 . S
C1356 C1358 1.381 . S
C1356 C1362 1.383 . S
C1357 C1353 1.495 . S
C1357 H1363 0.959 . S
C1357 H1364 0.961 . S
C1357 H1365 0.960 . S
C1358 C1356 1.381 . S
C1358 C1359 1.394 . S
C1358 H1366 0.930 . S
C1359 C1358 1.394 . S
C1359 C1360 1.383 . S
C1359 H1367 0.929 . S
C1360 C1359 1.383 . S
C1360 C1361 1.371 1_554 S
C1361 H1345 0.965 . S
C1361 C1360 1.371 1_556 S
C1361 C1362 1.352 1_556 S
C1362 H1346 0.931 . S
C1362 C1356 1.383 . S
C1362 C1361 1.352 1_554 S
H1363 C1357 0.959 . S
H1364 C1357 0.961 . S
H1365 C1357 0.960 . S
H1366 C1358 0.930 . S
H1367 C1359 0.929 . S
H1368 C1376 0.929 . S
H1369 C1378 0.930 . S
H1370 C1380 0.930 . S
H1371 C1383 0.929 . S
H1372 C1386 0.930 . S
H1373 C1388 0.960 . S
H1374 C1388 0.960 . S
H1375 C1388 0.960 . S
C1376 H1368 0.929 . S
C1376 C1377 1.377 . S
C1376 C1378 1.384 . S
C1377 C1376 1.377 . S
C1377 C1383 1.390 . S
C1378 H1369 0.930 . S
C1378 C1376 1.384 . S
C1378 C1379 1.372 . S
C1379 C1378 1.372 . S
C1379 C1380 1.400 . S
C1379 C1384 1.490 . S
C1380 H1370 0.930 . S
C1380 C1379 1.400 . S
C1380 C1383 1.386 . S
H1381 C1397 0.930 . S
H1382 C1398 0.931 . S
C1383 H1371 0.929 . S
C1383 C1377 1.390 . S
C1383 C1380 1.386 . S
C1384 C1379 1.490 . S
C1384 C1386 1.395 . S
C1384 C1387 1.403 . S
H1385 C1391 0.930 . S
C1386 H1372 0.930 . S
C1386 C1384 1.395 . S
C1386 C1389 1.403 . S
C1387 C1384 1.403 . S
C1387 C1388 1.524 . S
C1387 C1391 1.400 . S
C1388 H1373 0.960 . S
C1388 H1374 0.960 . S
C1388 H1375 0.960 . S
C1388 C1387 1.524 . S
C1389 C1386 1.403 . S
C1389 C1390 1.392 . S
C1389 C1393 1.495 . S
C1390 C1389 1.392 . S
C1390 C1391 1.385 . S
C1390 C1392 1.478 . S
C1391 H1385 0.930 . S
C1391 C1387 1.400 . S
C1391 C1390 1.385 . S
C1392 C1390 1.478 . S
C1392 C1394 1.381 . S
C1392 C1398 1.383 . S
C1393 C1389 1.495 . S
C1393 H1399 0.959 . S
C1393 H1400 0.961 . S
C1393 H1401 0.960 . S
C1394 C1392 1.381 . S
C1394 C1395 1.394 . S
C1394 H1402 0.930 . S
C1395 C1394 1.394 . S
C1395 C1396 1.383 . S
C1395 H1403 0.929 . S
C1396 C1395 1.383 . S
C1396 C1397 1.377 . S
C1397 H1381 0.930 . S
C1397 C1396 1.377 . S
C1397 C1398 1.379 . S
C1398 H1382 0.931 . S
C1398 C1392 1.383 . S
C1398 C1397 1.379 . S
H1399 C1393 0.959 . S
H1400 C1393 0.961 . S
H1401 C1393 0.960 . S
H1402 C1394 0.930 . S
H1403 C1395 0.929 . S
H1404 C1412 0.929 . S
H1405 C1414 0.930 . S
H1406 C1416 0.930 . S
H1407 C1419 0.929 . S
H1408 C1422 0.930 . S
H1409 C1424 0.960 . S
H1410 C1424 0.960 . S
H1411 C1424 0.960 . S
C1412 H1404 0.929 . S
C1412 C1413 1.377 . S
C1412 C1414 1.384 . S
C1413 C1412 1.377 . S
C1413 C1419 1.390 . S
C1414 H1405 0.930 . S
C1414 C1412 1.384 . S
C1414 C1415 1.372 . S
C1415 C1414 1.372 . S
C1415 C1416 1.400 . S
C1415 C1420 1.490 . S
C1416 H1406 0.930 . S
C1416 C1415 1.400 . S
C1416 C1419 1.386 . S
H1417 C1433 0.930 . S
H1418 C1434 0.931 . S
C1419 H1407 0.929 . S
C1419 C1413 1.390 . S
C1419 C1416 1.386 . S
C1420 C1415 1.490 . S
C1420 C1422 1.395 . S
C1420 C1423 1.403 . S
H1421 C1427 0.930 . S
C1422 H1408 0.930 . S
C1422 C1420 1.395 . S
C1422 C1425 1.403 . S
C1423 C1420 1.403 . S
C1423 C1424 1.524 . S
C1423 C1427 1.400 . S
C1424 H1409 0.960 . S
C1424 H1410 0.960 . S
C1424 H1411 0.960 . S
C1424 C1423 1.524 . S
C1425 C1422 1.403 . S
C1425 C1426 1.392 . S
C1425 C1429 1.495 . S
C1426 C1425 1.392 . S
C1426 C1427 1.385 . S
C1426 C1428 1.478 . S
C1427 H1421 0.930 . S
C1427 C1423 1.400 . S
C1427 C1426 1.385 . S
C1428 C1426 1.478 . S
C1428 C1430 1.381 . S
C1428 C1434 1.383 . S
C1429 C1425 1.495 . S
C1429 H1435 0.959 . S
C1429 H1436 0.961 . S
C1429 H1437 0.960 . S
C1430 C1428 1.381 . S
C1430 C1431 1.394 . S
C1430 H1438 0.930 . S
C1431 C1430 1.394 . S
C1431 C1432 1.383 . S
C1431 H1439 0.929 . S
C1432 C1431 1.383 . S
C1432 C1433 1.377 . S
C1433 H1417 0.930 . S
C1433 C1432 1.377 . S
C1433 C1434 1.379 . S
C1434 H1418 0.931 . S
C1434 C1428 1.383 . S
C1434 C1433 1.379 . S
H1435 C1429 0.959 . S
H1436 C1429 0.961 . S
H1437 C1429 0.960 . S
H1438 C1430 0.930 . S
H1439 C1431 0.929 . S
H1440 C1448 0.929 . S
H1441 C1450 0.930 . S
H1442 C1452 0.930 . S
H1443 C1455 0.929 . S
H1444 C1458 0.930 . S
H1445 C1460 0.960 . S
H1446 C1460 0.960 . S
H1447 C1460 0.960 . S
C1448 H1440 0.929 . S
C1448 C1449 1.377 . S
C1448 C1450 1.384 . S
C1449 C1448 1.377 . S
C1449 C1455 1.390 . S
C1450 H1441 0.930 . S
C1450 C1448 1.384 . S
C1450 C1451 1.372 . S
C1451 C1450 1.372 . S
C1451 C1452 1.400 . S
C1451 C1456 1.490 . S
C1452 H1442 0.930 . S
C1452 C1451 1.400 . S
C1452 C1455 1.386 . S
H1453 C1469 0.930 . S
H1454 C1470 0.931 . S
C1455 H1443 0.929 . S
C1455 C1449 1.390 . S
C1455 C1452 1.386 . S
C1456 C1451 1.490 . S
C1456 C1458 1.395 . S
C1456 C1459 1.403 . S
H1457 C1463 0.930 . S
C1458 H1444 0.930 . S
C1458 C1456 1.395 . S
C1458 C1461 1.403 . S
C1459 C1456 1.403 . S
C1459 C1460 1.524 . S
C1459 C1463 1.400 . S
C1460 H1445 0.960 . S
C1460 H1446 0.960 . S
C1460 H1447 0.960 . S
C1460 C1459 1.524 . S
C1461 C1458 1.403 . S
C1461 C1462 1.392 . S
C1461 C1465 1.495 . S
C1462 C1461 1.392 . S
C1462 C1463 1.385 . S
C1462 C1464 1.478 . S
C1463 H1457 0.930 . S
C1463 C1459 1.400 . S
C1463 C1462 1.385 . S
C1464 C1462 1.478 . S
C1464 C1466 1.381 . S
C1464 C1470 1.383 . S
C1465 C1461 1.495 . S
C1465 H1471 0.959 . S
C1465 H1472 0.961 . S
C1465 H1473 0.960 . S
C1466 C1464 1.381 . S
C1466 C1467 1.394 . S
C1466 H1474 0.930 . S
C1467 C1466 1.394 . S
C1467 C1468 1.383 . S
C1467 H1475 0.929 . S
C1468 C1467 1.383 . S
C1468 C1469 1.377 . S
C1469 H1453 0.930 . S
C1469 C1468 1.377 . S
C1469 C1470 1.379 . S
C1470 H1454 0.931 . S
C1470 C1464 1.383 . S
C1470 C1469 1.379 . S
H1471 C1465 0.959 . S
H1472 C1465 0.961 . S
H1473 C1465 0.960 . S
H1474 C1466 0.930 . S
H1475 C1467 0.929 . S
H1476 C1484 0.929 . S
H1477 C1486 0.930 . S
H1478 C1488 0.930 . S
H1479 C1491 0.929 . S
H1480 C1494 0.930 . S
H1481 C1496 0.960 . S
H1482 C1496 0.960 . S
H1483 C1496 0.960 . S
C1484 H1476 0.929 . S
C1484 C1485 1.377 . S
C1484 C1486 1.384 . S
C1485 C1484 1.377 . S
C1485 C1491 1.390 . S
C1486 H1477 0.930 . S
C1486 C1484 1.384 . S
C1486 C1487 1.372 . S
C1487 C1486 1.372 . S
C1487 C1488 1.400 . S
C1487 C1492 1.490 . S
C1488 H1478 0.930 . S
C1488 C1487 1.400 . S
C1488 C1491 1.386 . S
H1489 C1505 0.930 1_554 S
H1490 C1506 0.931 . S
C1491 H1479 0.929 . S
C1491 C1485 1.390 . S
C1491 C1488 1.386 . S
C1492 C1487 1.490 . S
C1492 C1494 1.395 . S
C1492 C1495 1.403 . S
H1493 C1499 0.930 . S
C1494 H1480 0.930 . S
C1494 C1492 1.395 . S
C1494 C1497 1.403 . S
C1495 C1492 1.403 . S
C1495 C1496 1.524 . S
C1495 C1499 1.400 . S
C1496 H1481 0.960 . S
C1496 H1482 0.960 . S
C1496 H1483 0.960 . S
C1496 C1495 1.524 . S
C1497 C1494 1.403 . S
C1497 C1498 1.392 . S
C1497 C1501 1.495 . S
C1498 C1497 1.392 . S
C1498 C1499 1.385 . S
C1498 C1500 1.478 . S
C1499 H1493 0.930 . S
C1499 C1495 1.400 . S
C1499 C1498 1.385 . S
C1500 C1498 1.478 . S
C1500 C1502 1.381 . S
C1500 C1506 1.383 . S
C1501 C1497 1.495 . S
C1501 H1507 0.959 . S
C1501 H1508 0.961 . S
C1501 H1509 0.960 . S
C1502 C1500 1.381 . S
C1502 C1503 1.394 . S
C1502 H1510 0.930 . S
C1503 C1502 1.394 . S
C1503 C1504 1.383 . S
C1503 H1511 0.929 . S
C1504 C1503 1.383 . S
C1504 C1505 1.377 . S
C1505 H1489 0.930 1_556 S
C1505 C1504 1.377 . S
C1505 C1506 1.379 . S
C1506 H1490 0.931 . S
C1506 C1500 1.383 . S
C1506 C1505 1.379 . S
H1507 C1501 0.959 . S
H1508 C1501 0.961 . S
H1509 C1501 0.960 . S
H1510 C1502 0.930 . S
H1511 C1503 0.929 . S
H1512 C1520 0.929 . S
H1513 C1522 0.930 . S
H1514 C1524 0.930 . S
H1515 C1527 0.929 . S
H1516 C1530 0.930 . S
H1517 C1532 0.960 . S
H1518 C1532 0.960 . S
H1519 C1532 0.960 . S
C1520 H1512 0.929 . S
C1520 C1521 1.377 . S
C1520 C1522 1.384 . S
C1521 C1520 1.377 . S
C1521 C1527 1.390 . S
C1522 H1513 0.930 . S
C1522 C1520 1.384 . S
C1522 C1523 1.372 . S
C1523 C1522 1.372 . S
C1523 C1524 1.400 . S
C1523 C1528 1.490 . S
C1524 H1514 0.930 . S
C1524 C1523 1.400 . S
C1524 C1527 1.386 . S
H1525 C1541 0.930 1_554 S
H1526 C1542 0.931 . S
C1527 H1515 0.929 . S
C1527 C1521 1.390 . S
C1527 C1524 1.386 . S
C1528 C1523 1.490 . S
C1528 C1530 1.395 . S
C1528 C1531 1.403 . S
H1529 C1535 0.930 . S
C1530 H1516 0.930 . S
C1530 C1528 1.395 . S
C1530 C1533 1.403 . S
C1531 C1528 1.403 . S
C1531 C1532 1.524 . S
C1531 C1535 1.400 . S
C1532 H1517 0.960 . S
C1532 H1518 0.960 . S
C1532 H1519 0.960 . S
C1532 C1531 1.524 . S
C1533 C1530 1.403 . S
C1533 C1534 1.392 . S
C1533 C1537 1.495 . S
C1534 C1533 1.392 . S
C1534 C1535 1.385 . S
C1534 C1536 1.478 . S
C1535 H1529 0.930 . S
C1535 C1531 1.400 . S
C1535 C1534 1.385 . S
C1536 C1534 1.478 . S
C1536 C1538 1.381 . S
C1536 C1542 1.383 . S
C1537 C1533 1.495 . S
C1537 H1543 0.959 . S
C1537 H1544 0.961 . S
C1537 H1545 0.960 . S
C1538 C1536 1.381 . S
C1538 C1539 1.394 . S
C1538 H1546 0.930 . S
C1539 C1538 1.394 . S
C1539 C1540 1.383 . S
C1539 H1547 0.929 . S
C1540 C1539 1.383 . S
C1540 C1541 1.377 . S
C1541 H1525 0.930 1_556 S
C1541 C1540 1.377 . S
C1541 C1542 1.379 . S
C1542 H1526 0.931 . S
C1542 C1536 1.383 . S
C1542 C1541 1.379 . S
H1543 C1537 0.959 . S
H1544 C1537 0.961 . S
H1545 C1537 0.960 . S
H1546 C1538 0.930 . S
H1547 C1539 0.929 . S
H1548 C1556 0.929 . S
H1549 C1558 0.930 . S
H1550 C1560 0.930 . S
H1551 C1563 0.929 . S
H1552 C1566 0.930 . S
H1553 C1568 0.960 . S
H1554 C1568 0.960 . S
H1555 C1568 0.960 . S
C1556 H1548 0.929 . S
C1556 C1557 1.377 . S
C1556 C1558 1.384 . S
C1557 C1556 1.377 . S
C1557 C1563 1.390 . S
C1558 H1549 0.930 . S
C1558 C1556 1.384 . S
C1558 C1559 1.372 . S
C1559 C1558 1.372 . S
C1559 C1560 1.400 . S
C1559 C1564 1.490 . S
C1560 H1550 0.930 . S
C1560 C1559 1.400 . S
C1560 C1563 1.386 . S
H1561 C1577 1.014 . S
H1562 C1578 0.931 . S
C1563 H1551 0.929 . S
C1563 C1557 1.390 . S
C1563 C1560 1.386 . S
C1564 C1559 1.490 . S
C1564 C1566 1.395 . S
C1564 C1567 1.403 . S
H1565 C1571 0.930 . S
C1566 H1552 0.930 . S
C1566 C1564 1.395 . S
C1566 C1569 1.403 . S
C1567 C1564 1.403 . S
C1567 C1568 1.524 . S
C1567 C1571 1.400 . S
C1568 H1553 0.960 . S
C1568 H1554 0.960 . S
C1568 H1555 0.960 . S
C1568 C1567 1.524 . S
C1569 C1566 1.403 . S
C1569 C1570 1.392 . S
C1569 C1573 1.495 . S
C1570 C1569 1.392 . S
C1570 C1571 1.385 . S
C1570 C1572 1.478 . S
C1571 H1565 0.930 . S
C1571 C1567 1.400 . S
C1571 C1570 1.385 . S
C1572 C1570 1.478 . S
C1572 C1574 1.381 . S
C1572 C1578 1.383 . S
C1573 C1569 1.495 . S
C1573 H1579 0.959 . S
C1573 H1580 0.961 . S
C1573 H1581 0.960 . S
C1574 C1572 1.381 . S
C1574 C1575 1.394 . S
C1574 H1582 0.930 . S
C1575 C1574 1.394 . S
C1575 C1576 1.383 . S
C1575 H1583 0.929 . S
C1576 C1575 1.383 . S
C1576 C1577 1.359 1_556 S
C1577 H1561 1.014 . S
C1577 C1576 1.359 1_554 S
C1577 C1578 1.318 1_554 S
C1578 H1562 0.931 . S
C1578 C1572 1.383 . S
C1578 C1577 1.318 1_556 S
H1579 C1573 0.959 . S
H1580 C1573 0.961 . S
H1581 C1573 0.960 . S
H1582 C1574 0.930 . S
H1583 C1575 0.929 . S
H1584 C1592 0.929 . S
H1585 C1594 0.930 . S
H1586 C1596 0.930 . S
H1587 C1599 0.929 . S
H1588 C1602 0.930 . S
H1589 C1604 0.960 . S
H1590 C1604 0.960 . S
H1591 C1604 0.960 . S
C1592 H1584 0.929 . S
C1592 C1593 1.377 . S
C1592 C1594 1.384 . S
C1593 C1592 1.377 . S
C1593 C1599 1.390 . S
C1594 H1585 0.930 . S
C1594 C1592 1.384 . S
C1594 C1595 1.372 . S
C1595 C1594 1.372 . S
C1595 C1596 1.400 . S
C1595 C1600 1.490 . S
C1596 H1586 0.930 . S
C1596 C1595 1.400 . S
C1596 C1599 1.386 . S
H1597 C1613 0.930 . S
H1598 C1614 0.931 . S
C1599 H1587 0.929 . S
C1599 C1593 1.390 . S
C1599 C1596 1.386 . S
C1600 C1595 1.490 . S
C1600 C1602 1.395 . S
C1600 C1603 1.403 . S
H1601 C1607 0.930 . S
C1602 H1588 0.930 . S
C1602 C1600 1.395 . S
C1602 C1605 1.403 . S
C1603 C1600 1.403 . S
C1603 C1604 1.524 . S
C1603 C1607 1.400 . S
C1604 H1589 0.960 . S
C1604 H1590 0.960 . S
C1604 H1591 0.960 . S
C1604 C1603 1.524 . S
C1605 C1602 1.403 . S
C1605 C1606 1.392 . S
C1605 C1609 1.495 . S
C1606 C1605 1.392 . S
C1606 C1607 1.385 . S
C1606 C1608 1.478 . S
C1607 H1601 0.930 . S
C1607 C1603 1.400 . S
C1607 C1606 1.385 . S
C1608 C1606 1.478 . S
C1608 C1610 1.381 . S
C1608 C1614 1.383 . S
C1609 C1605 1.495 . S
C1609 H1615 0.959 . S
C1609 H1616 0.961 . S
C1609 H1617 0.960 . S
C1610 C1608 1.381 . S
C1610 C1611 1.394 . S
C1610 H1618 0.930 . S
C1611 C1610 1.394 . S
C1611 C1612 1.383 . S
C1611 H1619 0.929 . S
C1612 C1611 1.383 . S
C1612 C1613 1.377 . S
C1613 H1597 0.930 . S
C1613 C1612 1.377 . S
C1613 C1614 1.379 . S
C1614 H1598 0.931 . S
C1614 C1608 1.383 . S
C1614 C1613 1.379 . S
H1615 C1609 0.959 . S
H1616 C1609 0.961 . S
H1617 C1609 0.960 . S
H1618 C1610 0.930 . S
H1619 C1611 0.929 . S
H1620 C1628 0.929 . S
H1621 C1630 0.930 . S
H1622 C1632 0.930 . S
H1623 C1635 0.929 . S
H1624 C1638 0.930 . S
H1625 C1640 0.960 . S
H1626 C1640 0.960 . S
H1627 C1640 0.960 . S
C1628 H1620 0.929 . S
C1628 C1629 1.377 . S
C1628 C1630 1.384 . S
C1629 C1628 1.377 . S
C1629 C1635 1.390 . S
C1630 H1621 0.930 . S
C1630 C1628 1.384 . S
C1630 C1631 1.372 . S
C1631 C1630 1.372 . S
C1631 C1632 1.400 . S
C1631 C1636 1.490 . S
C1632 H1622 0.930 . S
C1632 C1631 1.400 . S
C1632 C1635 1.386 . S
H1633 C1649 0.930 . S
H1634 C1650 0.931 . S
C1635 H1623 0.929 . S
C1635 C1629 1.390 . S
C1635 C1632 1.386 . S
C1636 C1631 1.490 . S
C1636 C1638 1.395 . S
C1636 C1639 1.403 . S
H1637 C1643 0.930 . S
C1638 H1624 0.930 . S
C1638 C1636 1.395 . S
C1638 C1641 1.403 . S
C1639 C1636 1.403 . S
C1639 C1640 1.524 . S
C1639 C1643 1.400 . S
C1640 H1625 0.960 . S
C1640 H1626 0.960 . S
C1640 H1627 0.960 . S
C1640 C1639 1.524 . S
C1641 C1638 1.403 . S
C1641 C1642 1.392 . S
C1641 C1645 1.495 . S
C1642 C1641 1.392 . S
C1642 C1643 1.385 . S
C1642 C1644 1.478 . S
C1643 H1637 0.930 . S
C1643 C1639 1.400 . S
C1643 C1642 1.385 . S
C1644 C1642 1.478 . S
C1644 C1646 1.381 . S
C1644 C1650 1.383 . S
C1645 C1641 1.495 . S
C1645 H1651 0.959 . S
C1645 H1652 0.961 . S
C1645 H1653 0.960 . S
C1646 C1644 1.381 . S
C1646 C1647 1.394 . S
C1646 H1654 0.930 . S
C1647 C1646 1.394 . S
C1647 C1648 1.383 . S
C1647 H1655 0.929 . S
C1648 C1647 1.383 . S
C1648 C1649 1.377 . S
C1649 H1633 0.930 . S
C1649 C1648 1.377 . S
C1649 C1650 1.379 . S
C1650 H1634 0.931 . S
C1650 C1644 1.383 . S
C1650 C1649 1.379 . S
H1651 C1645 0.959 . S
H1652 C1645 0.961 . S
H1653 C1645 0.960 . S
H1654 C1646 0.930 . S
H1655 C1647 0.929 . S
H1656 C1664 0.929 . S
H1657 C1666 0.930 . S
H1658 C1668 0.930 . S
H1659 C1671 0.929 . S
H1660 C1674 0.930 . S
H1661 C1676 0.960 . S
H1662 C1676 0.960 . S
H1663 C1676 0.960 . S
C1664 H1656 0.929 . S
C1664 C1665 1.377 . S
C1664 C1666 1.384 . S
C1665 C1664 1.377 . S
C1665 C1671 1.390 . S
C1666 H1657 0.930 . S
C1666 C1664 1.384 . S
C1666 C1667 1.372 . S
C1667 C1666 1.372 . S
C1667 C1668 1.400 . S
C1667 C1672 1.490 . S
C1668 H1658 0.930 . S
C1668 C1667 1.400 . S
C1668 C1671 1.386 . S
H1669 C1685 0.930 . S
H1670 C1686 0.931 . S
C1671 H1659 0.929 . S
C1671 C1665 1.390 . S
C1671 C1668 1.386 . S
C1672 C1667 1.490 . S
C1672 C1674 1.395 . S
C1672 C1675 1.403 . S
H1673 C1679 0.930 . S
C1674 H1660 0.930 . S
C1674 C1672 1.395 . S
C1674 C1677 1.403 . S
C1675 C1672 1.403 . S
C1675 C1676 1.524 . S
C1675 C1679 1.400 . S
C1676 H1661 0.960 . S
C1676 H1662 0.960 . S
C1676 H1663 0.960 . S
C1676 C1675 1.524 . S
C1677 C1674 1.403 . S
C1677 C1678 1.392 . S
C1677 C1681 1.495 . S
C1678 C1677 1.392 . S
C1678 C1679 1.385 . S
C1678 C1680 1.478 . S
C1679 H1673 0.930 . S
C1679 C1675 1.400 . S
C1679 C1678 1.385 . S
C1680 C1678 1.478 . S
C1680 C1682 1.381 . S
C1680 C1686 1.383 . S
C1681 C1677 1.495 . S
C1681 H1687 0.959 . S
C1681 H1688 0.961 . S
C1681 H1689 0.960 . S
C1682 C1680 1.381 . S
C1682 C1683 1.394 . S
C1682 H1690 0.930 . S
C1683 C1682 1.394 . S
C1683 C1684 1.383 . S
C1683 H1691 0.929 . S
C1684 C1683 1.383 . S
C1684 C1685 1.377 . S
C1685 H1669 0.930 . S
C1685 C1684 1.377 . S
C1685 C1686 1.379 . S
C1686 H1670 0.931 . S
C1686 C1680 1.383 . S
C1686 C1685 1.379 . S
H1687 C1681 0.959 . S
H1688 C1681 0.961 . S
H1689 C1681 0.960 . S
H1690 C1682 0.930 . S
H1691 C1683 0.929 . S
H1692 C1700 0.929 . S
H1693 C1702 0.930 . S
H1694 C1704 0.930 . S
H1695 C1707 0.929 . S
H1696 C1710 0.930 . S
H1697 C1712 0.960 . S
H1698 C1712 0.960 . S
H1699 C1712 0.960 . S
C1700 H1692 0.929 . S
C1700 C1701 1.377 . S
C1700 C1702 1.384 . S
C1701 C1700 1.377 . S
C1701 C1707 1.390 . S
C1702 H1693 0.930 . S
C1702 C1700 1.384 . S
C1702 C1703 1.372 . S
C1703 C1702 1.372 . S
C1703 C1704 1.400 . S
C1703 C1708 1.490 . S
C1704 H1694 0.930 . S
C1704 C1703 1.400 . S
C1704 C1707 1.386 . S
H1705 C1721 0.930 . S
H1706 C1722 0.931 . S
C1707 H1695 0.929 . S
C1707 C1701 1.390 . S
C1707 C1704 1.386 . S
C1708 C1703 1.490 . S
C1708 C1710 1.395 . S
C1708 C1711 1.403 . S
H1709 C1715 0.930 . S
C1710 H1696 0.930 . S
C1710 C1708 1.395 . S
C1710 C1713 1.403 . S
C1711 C1708 1.403 . S
C1711 C1712 1.524 . S
C1711 C1715 1.400 . S
C1712 H1697 0.960 . S
C1712 H1698 0.960 . S
C1712 H1699 0.960 . S
C1712 C1711 1.524 . S
C1713 C1710 1.403 . S
C1713 C1714 1.392 . S
C1713 C1717 1.495 . S
C1714 C1713 1.392 . S
C1714 C1715 1.385 . S
C1714 C1716 1.478 . S
C1715 H1709 0.930 . S
C1715 C1711 1.400 . S
C1715 C1714 1.385 . S
C1716 C1714 1.478 . S
C1716 C1718 1.381 . S
C1716 C1722 1.383 . S
C1717 C1713 1.495 . S
C1717 H1723 0.959 . S
C1717 H1724 0.961 . S
C1717 H1725 0.960 . S
C1718 C1716 1.381 . S
C1718 C1719 1.394 . S
C1718 H1726 0.930 . S
C1719 C1718 1.394 . S
C1719 C1720 1.383 . S
C1719 H1727 0.929 . S
C1720 C1719 1.383 . S
C1720 C1721 1.377 . S
C1721 H1705 0.930 . S
C1721 C1720 1.377 . S
C1721 C1722 1.379 . S
C1722 H1706 0.931 . S
C1722 C1716 1.383 . S
C1722 C1721 1.379 . S
H1723 C1717 0.959 . S
H1724 C1717 0.961 . S
H1725 C1717 0.960 . S
H1726 C1718 0.930 . S
H1727 C1719 0.929 . S
H1728 C1736 0.929 . S
H1729 C1738 0.930 . S
H1730 C1740 0.930 . S
H1731 C1743 0.929 . S
H1732 C1746 0.930 . S
H1733 C1748 0.960 . S
H1734 C1748 0.960 . S
H1735 C1748 0.960 . S
C1736 H1728 0.929 . S
C1736 C1737 1.377 . S
C1736 C1738 1.384 . S
C1737 C1736 1.377 . S
C1737 C1743 1.390 . S
C1738 H1729 0.930 . S
C1738 C1736 1.384 . S
C1738 C1739 1.372 . S
C1739 C1738 1.372 . S
C1739 C1740 1.400 . S
C1739 C1744 1.490 . S
C1740 H1730 0.930 . S
C1740 C1739 1.400 . S
C1740 C1743 1.386 . S
H1741 C1757 0.930 . S
H1742 C1758 0.931 . S
C1743 H1731 0.929 . S
C1743 C1737 1.390 . S
C1743 C1740 1.386 . S
C1744 C1739 1.490 . S
C1744 C1746 1.395 . S
C1744 C1747 1.403 . S
H1745 C1751 0.930 . S
C1746 H1732 0.930 . S
C1746 C1744 1.395 . S
C1746 C1749 1.403 . S
C1747 C1744 1.403 . S
C1747 C1748 1.524 . S
C1747 C1751 1.400 . S
C1748 H1733 0.960 . S
C1748 H1734 0.960 . S
C1748 H1735 0.960 . S
C1748 C1747 1.524 . S
C1749 C1746 1.403 . S
C1749 C1750 1.392 . S
C1749 C1753 1.495 . S
C1750 C1749 1.392 . S
C1750 C1751 1.385 . S
C1750 C1752 1.478 . S
C1751 H1745 0.930 . S
C1751 C1747 1.400 . S
C1751 C1750 1.385 . S
C1752 C1750 1.478 . S
C1752 C1754 1.381 . S
C1752 C1758 1.383 . S
C1753 C1749 1.495 . S
C1753 H1759 0.959 . S
C1753 H1760 0.961 . S
C1753 H1761 0.960 . S
C1754 C1752 1.381 . S
C1754 C1755 1.394 . S
C1754 H1762 0.930 . S
C1755 C1754 1.394 . S
C1755 C1756 1.383 . S
C1755 H1763 0.929 . S
C1756 C1755 1.383 . S
C1756 C1757 1.377 . S
C1757 H1741 0.930 . S
C1757 C1756 1.377 . S
C1757 C1758 1.379 . S
C1758 H1742 0.931 . S
C1758 C1752 1.383 . S
C1758 C1757 1.379 . S
H1759 C1753 0.959 . S
H1760 C1753 0.961 . S
H1761 C1753 0.960 . S
H1762 C1754 0.930 . S
H1763 C1755 0.929 . S
H1764 C1772 0.929 . S
H1765 C1774 0.930 . S
H1766 C1776 0.930 . S
H1767 C1779 0.929 . S
H1768 C1782 0.930 . S
H1769 C1784 0.960 . S
H1770 C1784 0.960 . S
H1771 C1784 0.960 . S
C1772 H1764 0.929 . S
C1772 C1773 1.377 . S
C1772 C1774 1.384 . S
C1773 C1772 1.377 . S
C1773 C1779 1.390 . S
C1774 H1765 0.930 . S
C1774 C1772 1.384 . S
C1774 C1775 1.372 . S
C1775 C1774 1.372 . S
C1775 C1776 1.400 . S
C1775 C1780 1.490 . S
C1776 H1766 0.930 . S
C1776 C1775 1.400 . S
C1776 C1779 1.386 . S
H1777 C1793 0.930 . S
H1778 C1794 0.931 . S
C1779 H1767 0.929 . S
C1779 C1773 1.390 . S
C1779 C1776 1.386 . S
C1780 C1775 1.490 . S
C1780 C1782 1.395 . S
C1780 C1783 1.403 . S
H1781 C1787 0.930 . S
C1782 H1768 0.930 . S
C1782 C1780 1.395 . S
C1782 C1785 1.403 . S
C1783 C1780 1.403 . S
C1783 C1784 1.524 . S
C1783 C1787 1.400 . S
C1784 H1769 0.960 . S
C1784 H1770 0.960 . S
C1784 H1771 0.960 . S
C1784 C1783 1.524 . S
C1785 C1782 1.403 . S
C1785 C1786 1.392 . S
C1785 C1789 1.495 . S
C1786 C1785 1.392 . S
C1786 C1787 1.385 . S
C1786 C1788 1.478 . S
C1787 H1781 0.930 . S
C1787 C1783 1.400 . S
C1787 C1786 1.385 . S
C1788 C1786 1.478 . S
C1788 C1790 1.381 . S
C1788 C1794 1.383 . S
C1789 C1785 1.495 . S
C1789 H1795 0.959 . S
C1789 H1796 0.961 . S
C1789 H1797 0.960 . S
C1790 C1788 1.381 . S
C1790 C1791 1.394 . S
C1790 H1798 0.930 . S
C1791 C1790 1.394 . S
C1791 C1792 1.383 . S
C1791 H1799 0.929 . S
C1792 C1791 1.383 . S
C1792 C1793 1.377 . S
C1793 H1777 0.930 . S
C1793 C1792 1.377 . S
C1793 C1794 1.379 . S
C1794 H1778 0.931 . S
C1794 C1788 1.383 . S
C1794 C1793 1.379 . S
H1795 C1789 0.959 . S
H1796 C1789 0.961 . S
H1797 C1789 0.960 . S
H1798 C1790 0.930 . S
H1799 C1791 0.929 . S
H1800 C1808 0.929 . S
H1801 C1810 0.930 . S
H1802 C1812 0.930 . S
H1803 C1815 0.929 . S
H1804 C1818 0.930 . S
H1805 C1820 0.960 . S
H1806 C1820 0.960 . S
H1807 C1820 0.960 . S
C1808 H1800 0.929 . S
C1808 C1809 1.377 . S
C1808 C1810 1.384 . S
C1809 C1808 1.377 . S
C1809 C1815 1.390 . S
C1810 H1801 0.930 . S
C1810 C1808 1.384 . S
C1810 C1811 1.372 . S
C1811 C1810 1.372 . S
C1811 C1812 1.400 . S
C1811 C1816 1.490 . S
C1812 H1802 0.930 . S
C1812 C1811 1.400 . S
C1812 C1815 1.386 . S
H1813 C1829 0.930 . S
H1814 C1830 0.931 . S
C1815 H1803 0.929 . S
C1815 C1809 1.390 . S
C1815 C1812 1.386 . S
C1816 C1811 1.490 . S
C1816 C1818 1.395 . S
C1816 C1819 1.403 . S
H1817 C1823 0.930 . S
C1818 H1804 0.930 . S
C1818 C1816 1.395 . S
C1818 C1821 1.403 . S
C1819 C1816 1.403 . S
C1819 C1820 1.524 . S
C1819 C1823 1.400 . S
C1820 H1805 0.960 . S
C1820 H1806 0.960 . S
C1820 H1807 0.960 . S
C1820 C1819 1.524 . S
C1821 C1818 1.403 . S
C1821 C1822 1.392 . S
C1821 C1825 1.495 . S
C1822 C1821 1.392 . S
C1822 C1823 1.385 . S
C1822 C1824 1.478 . S
C1823 H1817 0.930 . S
C1823 C1819 1.400 . S
C1823 C1822 1.385 . S
C1824 C1822 1.478 . S
C1824 C1826 1.381 . S
C1824 C1830 1.383 . S
C1825 C1821 1.495 . S
C1825 H1831 0.959 . S
C1825 H1832 0.961 . S
C1825 H1833 0.960 . S
C1826 C1824 1.381 . S
C1826 C1827 1.394 . S
C1826 H1834 0.930 . S
C1827 C1826 1.394 . S
C1827 C1828 1.383 . S
C1827 H1835 0.929 . S
C1828 C1827 1.383 . S
C1828 C1829 1.377 . S
C1829 H1813 0.930 . S
C1829 C1828 1.377 . S
C1829 C1830 1.379 . S
C1830 H1814 0.931 . S
C1830 C1824 1.383 . S
C1830 C1829 1.379 . S
H1831 C1825 0.959 . S
H1832 C1825 0.961 . S
H1833 C1825 0.960 . S
H1834 C1826 0.930 . S
H1835 C1827 0.929 . S
H1836 C1844 0.929 . S
H1837 C1846 0.930 . S
H1838 C1848 0.930 . S
H1839 C1851 0.929 . S
H1840 C1854 0.930 1_455 S
H1841 C1856 0.960 . S
H1842 C1856 0.960 1_455 S
H1843 C1856 0.960 . S
C1844 H1836 0.929 . S
C1844 C1845 1.377 1_455 S
C1844 C1846 1.384 . S
C1845 C1844 1.377 1_655 S
C1845 C1851 1.390 . S
C1846 H1837 0.930 . S
C1846 C1844 1.384 . S
C1846 C1847 1.372 1_455 S
C1847 C1846 1.372 1_655 S
C1847 C1848 1.400 . S
C1847 C1852 1.490 . S
C1848 H1838 0.930 . S
C1848 C1847 1.400 . S
C1848 C1851 1.386 . S
H1849 C1865 0.930 . S
H1850 C1866 0.931 . S
C1851 H1839 0.929 . S
C1851 C1845 1.390 . S
C1851 C1848 1.386 . S
C1852 C1847 1.490 . S
C1852 C1854 1.395 . S
C1852 C1855 1.403 . S
H1853 C1859 0.930 . S
C1854 H1840 0.930 1_655 S
C1854 C1852 1.395 . S
C1854 C1857 1.407 . S
C1855 C1852 1.403 . S
C1855 C1856 1.524 . S
C1855 C1859 1.400 . S
C1856 H1841 0.960 . S
C1856 H1842 0.960 1_655 S
C1856 H1843 0.960 . S
C1856 C1855 1.524 . S
C1857 C1854 1.407 . S
C1857 C1858 1.390 . S
C1857 C1861 1.495 1_655 S
C1858 C1857 1.390 . S
C1858 C1859 1.385 . S
C1858 C1860 1.478 . S
C1859 H1853 0.930 . S
C1859 C1855 1.400 . S
C1859 C1858 1.385 . S
C1860 C1858 1.478 . S
C1860 C1862 1.381 1_655 S
C1860 C1866 1.383 . S
C1861 C1857 1.495 1_455 S
C1861 H1867 0.959 . S
C1861 H1868 0.961 1_455 S
C1861 H1869 0.960 . S
C1862 C1860 1.381 1_455 S
C1862 C1863 1.394 . S
C1862 H1870 0.930 . S
C1863 C1862 1.394 . S
C1863 C1864 1.391 . S
C1863 H1871 0.929 . S
C1864 C1863 1.391 . S
C1864 C1865 1.359 1_455 S
C1865 H1849 0.930 . S
C1865 C1864 1.359 1_655 S
C1865 C1866 1.379 . S
C1866 H1850 0.931 . S
C1866 C1860 1.383 . S
C1866 C1865 1.379 . S
H1867 C1861 0.959 . S
H1868 C1861 0.961 1_655 S
H1869 C1861 0.960 . S
H1870 C1862 0.930 . S
H1871 C1863 0.929 . S
H1872 C1880 0.929 . S
H1873 C1882 0.930 . S
H1874 C1884 0.930 . S
H1875 C1887 0.929 . S
H1876 C1890 0.930 . S
H1877 C1892 0.960 . S
H1878 C1892 0.960 . S
H1879 C1892 0.960 . S
C1880 H1872 0.929 . S
C1880 C1881 1.377 . S
C1880 C1882 1.384 . S
C1881 C1880 1.377 . S
C1881 C1887 1.390 . S
C1882 H1873 0.930 . S
C1882 C1880 1.384 . S
C1882 C1883 1.372 . S
C1883 C1882 1.372 . S
C1883 C1884 1.400 . S
C1883 C1888 1.490 . S
C1884 H1874 0.930 . S
C1884 C1883 1.400 . S
C1884 C1887 1.386 . S
H1885 C1901 0.930 . S
H1886 C1902 0.931 . S
C1887 H1875 0.929 . S
C1887 C1881 1.390 . S
C1887 C1884 1.386 . S
C1888 C1883 1.490 . S
C1888 C1890 1.395 . S
C1888 C1891 1.403 . S
H1889 C1895 0.930 . S
C1890 H1876 0.930 . S
C1890 C1888 1.395 . S
C1890 C1893 1.403 . S
C1891 C1888 1.403 . S
C1891 C1892 1.524 . S
C1891 C1895 1.400 . S
C1892 H1877 0.960 . S
C1892 H1878 0.960 . S
C1892 H1879 0.960 . S
C1892 C1891 1.524 . S
C1893 C1890 1.403 . S
C1893 C1894 1.392 . S
C1893 C1897 1.495 . S
C1894 C1893 1.392 . S
C1894 C1895 1.385 . S
C1894 C1896 1.478 . S
C1895 H1889 0.930 . S
C1895 C1891 1.400 . S
C1895 C1894 1.385 . S
C1896 C1894 1.478 . S
C1896 C1898 1.381 . S
C1896 C1902 1.383 . S
C1897 C1893 1.495 . S
C1897 H1903 0.959 . S
C1897 H1904 0.961 . S
C1897 H1905 0.960 . S
C1898 C1896 1.381 . S
C1898 C1899 1.394 . S
C1898 H1906 0.930 . S
C1899 C1898 1.394 . S
C1899 C1900 1.383 . S
C1899 H1907 0.929 . S
C1900 C1899 1.383 . S
C1900 C1901 1.377 . S
C1901 H1885 0.930 . S
C1901 C1900 1.377 . S
C1901 C1902 1.379 . S
C1902 H1886 0.931 . S
C1902 C1896 1.383 . S
C1902 C1901 1.379 . S
H1903 C1897 0.959 . S
H1904 C1897 0.961 . S
H1905 C1897 0.960 . S
H1906 C1898 0.930 . S
H1907 C1899 0.929 . S
H1908 C1916 0.929 . S
H1909 C1918 0.930 . S
H1910 C1920 0.930 . S
H1911 C1923 0.929 . S
H1912 C1926 0.930 . S
H1913 C1928 0.960 1_655 S
H1914 C1928 0.960 . S
H1915 C1928 0.960 1_655 S
C1916 H1908 0.929 . S
C1916 C1917 1.377 . S
C1916 C1918 1.384 . S
C1917 C1916 1.377 . S
C1917 C1923 1.390 . S
C1918 H1909 0.930 . S
C1918 C1916 1.384 . S
C1918 C1919 1.372 . S
C1919 C1918 1.372 . S
C1919 C1920 1.400 . S
C1919 C1924 1.490 . S
C1920 H1910 0.930 . S
C1920 C1919 1.400 . S
C1920 C1923 1.386 . S
H1921 C1937 0.930 1_655 S
H1922 C1938 0.931 . S
C1923 H1911 0.929 . S
C1923 C1917 1.390 . S
C1923 C1920 1.386 . S
C1924 C1919 1.490 . S
C1924 C1926 1.395 . S
C1924 C1927 1.403 . S
H1925 C1931 0.930 . S
C1926 H1912 0.930 . S
C1926 C1924 1.395 . S
C1926 C1929 1.403 . S
C1927 C1924 1.403 . S
C1927 C1928 1.524 . S
C1927 C1931 1.400 . S
C1928 H1913 0.960 1_455 S
C1928 H1914 0.960 . S
C1928 H1915 0.960 1_455 S
C1928 C1927 1.524 . S
C1929 C1926 1.403 . S
C1929 C1930 1.392 . S
C1929 C1933 1.495 . S
C1930 C1929 1.392 . S
C1930 C1931 1.385 . S
C1930 C1932 1.478 . S
C1931 H1925 0.930 . S
C1931 C1927 1.400 . S
C1931 C1930 1.385 . S
C1932 C1930 1.478 . S
C1932 C1934 1.381 . S
C1932 C1938 1.383 . S
C1933 C1929 1.495 . S
C1933 H1939 0.959 . S
C1933 H1940 0.961 . S
C1933 H1941 0.960 . S
C1934 C1932 1.381 . S
C1934 C1935 1.394 . S
C1934 H1942 0.930 . S
C1935 C1934 1.394 . S
C1935 C1936 1.383 . S
C1935 H1943 0.929 . S
C1936 C1935 1.383 . S
C1936 C1937 1.377 . S
C1937 H1921 0.930 1_455 S
C1937 C1936 1.377 . S
C1937 C1938 1.379 . S
C1938 H1922 0.931 . S
C1938 C1932 1.383 . S
C1938 C1937 1.379 . S
H1939 C1933 0.959 . S
H1940 C1933 0.961 . S
H1941 C1933 0.960 . S
H1942 C1934 0.930 . S
H1943 C1935 0.929 . S
H1944 C1952 0.929 . S
H1945 C1954 0.930 . S
H1946 C1956 0.930 . S
H1947 C1959 0.929 . S
H1948 C1962 0.930 . S
H1949 C1964 0.960 . S
H1950 C1964 0.960 . S
H1951 C1964 0.960 . S
C1952 H1944 0.929 . S
C1952 C1953 1.377 . S
C1952 C1954 1.384 . S
C1953 C1952 1.377 . S
C1953 C1959 1.390 . S
C1954 H1945 0.930 . S
C1954 C1952 1.384 . S
C1954 C1955 1.372 . S
C1955 C1954 1.372 . S
C1955 C1956 1.400 . S
C1955 C1960 1.490 . S
C1956 H1946 0.930 . S
C1956 C1955 1.400 . S
C1956 C1959 1.386 . S
H1957 C1973 0.930 . S
H1958 C1974 0.931 . S
C1959 H1947 0.929 . S
C1959 C1953 1.390 . S
C1959 C1956 1.386 . S
C1960 C1955 1.490 . S
C1960 C1962 1.395 . S
C1960 C1963 1.403 . S
H1961 C1967 0.930 . S
C1962 H1948 0.930 . S
C1962 C1960 1.395 . S
C1962 C1965 1.403 . S
C1963 C1960 1.403 . S
C1963 C1964 1.524 . S
C1963 C1967 1.400 . S
C1964 H1949 0.960 . S
C1964 H1950 0.960 . S
C1964 H1951 0.960 . S
C1964 C1963 1.524 . S
C1965 C1962 1.403 . S
C1965 C1966 1.392 . S
C1965 C1969 1.495 . S
C1966 C1965 1.392 . S
C1966 C1967 1.385 . S
C1966 C1968 1.478 . S
C1967 H1961 0.930 . S
C1967 C1963 1.400 . S
C1967 C1966 1.385 . S
C1968 C1966 1.478 . S
C1968 C1970 1.381 . S
C1968 C1974 1.383 . S
C1969 C1965 1.495 . S
C1969 H1975 0.959 . S
C1969 H1976 0.961 . S
C1969 H1977 0.960 . S
C1970 C1968 1.381 . S
C1970 C1971 1.394 . S
C1970 H1978 0.930 . S
C1971 C1970 1.394 . S
C1971 C1972 1.383 . S
C1971 H1979 0.929 . S
C1972 C1971 1.383 . S
C1972 C1973 1.377 . S
C1973 H1957 0.930 . S
C1973 C1972 1.377 . S
C1973 C1974 1.379 . S
C1974 H1958 0.931 . S
C1974 C1968 1.383 . S
C1974 C1973 1.379 . S
H1975 C1969 0.959 . S
H1976 C1969 0.961 . S
H1977 C1969 0.960 . S
H1978 C1970 0.930 . S
H1979 C1971 0.929 . S
H1980 C1988 0.929 . S
H1981 C1990 0.930 . S
H1982 C1992 0.930 . S
H1983 C1995 0.929 . S
H1984 C1998 0.930 . S
H1985 C2000 0.960 . S
H1986 C2000 0.960 1_545 S
H1987 C2000 0.960 . S
C1988 H1980 0.929 . S
C1988 C1989 1.377 1_545 S
C1988 C1990 1.384 . S
C1989 C1988 1.377 1_565 S
C1989 C1995 1.390 . S
C1990 H1981 0.930 . S
C1990 C1988 1.384 . S
C1990 C1991 1.372 1_545 S
C1991 C1990 1.372 1_565 S
C1991 C1992 1.400 . S
C1991 C1996 1.490 . S
C1992 H1982 0.930 . S
C1992 C1991 1.400 . S
C1992 C1995 1.386 . S
H1993 C2009 0.930 . S
H1994 C2010 0.931 . S
C1995 H1983 0.929 . S
C1995 C1989 1.390 . S
C1995 C1992 1.386 . S
C1996 C1991 1.490 . S
C1996 C1998 1.395 . S
C1996 C1999 1.403 . S
H1997 C2003 0.930 . S
C1998 H1984 0.930 . S
C1998 C1996 1.395 . S
C1998 C2001 1.403 . S
C1999 C1996 1.403 . S
C1999 C2000 1.524 . S
C1999 C2003 1.400 . S
C2000 H1985 0.960 . S
C2000 H1986 0.960 1_565 S
C2000 H1987 0.960 . S
C2000 C1999 1.524 . S
C2001 C1998 1.403 . S
C2001 C2002 1.392 . S
C2001 C2005 1.495 . S
C2002 C2001 1.392 . S
C2002 C2003 1.385 . S
C2002 C2004 1.478 . S
C2003 H1997 0.930 . S
C2003 C1999 1.400 . S
C2003 C2002 1.385 . S
C2004 C2002 1.478 . S
C2004 C2006 1.381 1_565 S
C2004 C2010 1.383 . S
C2005 C2001 1.495 . S
C2005 H2011 0.959 1_565 S
C2005 H2012 0.961 . S
C2005 H2013 0.960 1_565 S
C2006 C2004 1.381 1_545 S
C2006 C2007 1.394 . S
C2006 H2014 0.930 . S
C2007 C2006 1.394 . S
C2007 C2008 1.383 1_545 S
C2007 H2015 0.929 . S
C2008 C2007 1.383 1_565 S
C2008 C2009 1.377 . S
C2009 H1993 0.930 . S
C2009 C2008 1.377 . S
C2009 C2010 1.379 . S
C2010 H1994 0.931 . S
C2010 C2004 1.383 . S
C2010 C2009 1.379 . S
H2011 C2005 0.959 1_545 S
H2012 C2005 0.961 . S
H2013 C2005 0.960 1_545 S
H2014 C2006 0.930 . S
H2015 C2007 0.929 . S
H2016 C2024 0.929 . S
H2017 C2026 0.930 . S
H2018 C2028 0.930 . S
H2019 C2031 0.929 . S
H2020 C2034 0.930 . S
H2021 C2036 0.960 . S
H2022 C2036 0.960 . S
H2023 C2036 0.960 . S
C2024 H2016 0.929 . S
C2024 C2025 1.377 1_545 S
C2024 C2026 1.384 . S
C2025 C2024 1.377 1_565 S
C2025 C2031 1.390 . S
C2026 H2017 0.930 . S
C2026 C2024 1.384 . S
C2026 C2027 1.372 1_545 S
C2027 C2026 1.372 1_565 S
C2027 C2028 1.400 . S
C2027 C2032 1.490 . S
C2028 H2018 0.930 . S
C2028 C2027 1.400 . S
C2028 C2031 1.386 . S
H2029 C2045 0.930 . S
H2030 C2046 0.931 . S
C2031 H2019 0.929 . S
C2031 C2025 1.390 . S
C2031 C2028 1.386 . S
C2032 C2027 1.490 . S
C2032 C2034 1.395 . S
C2032 C2035 1.403 1_565 S
H2033 C2039 0.930 . S
C2034 H2020 0.930 . S
C2034 C2032 1.395 . S
C2034 C2037 1.403 . S
C2035 C2032 1.403 1_545 S
C2035 C2036 1.524 . S
C2035 C2039 1.400 . S
C2036 H2021 0.960 . S
C2036 H2022 0.960 . S
C2036 H2023 0.960 . S
C2036 C2035 1.524 . S
C2037 C2034 1.403 . S
C2037 C2038 1.392 . S
C2037 C2041 1.495 . S
C2038 C2037 1.392 . S
C2038 C2039 1.385 1_565 S
C2038 C2040 1.478 . S
C2039 H2033 0.930 . S
C2039 C2035 1.400 . S
C2039 C2038 1.385 1_545 S
C2040 C2038 1.478 . S
C2040 C2042 1.381 1_565 S
C2040 C2046 1.383 . S
C2041 C2037 1.495 . S
C2041 H2047 0.959 . S
C2041 H2048 0.961 . S
C2041 H2049 0.960 . S
C2042 C2040 1.381 1_545 S
C2042 C2043 1.394 . S
C2042 H2050 0.930 . S
C2043 C2042 1.394 . S
C2043 C2044 1.383 . S
C2043 H2051 0.929 . S
C2044 C2043 1.383 . S
C2044 C2045 1.377 1_545 S
C2045 H2029 0.930 . S
C2045 C2044 1.377 1_565 S
C2045 C2046 1.379 . S
C2046 H2030 0.931 . S
C2046 C2040 1.383 . S
C2046 C2045 1.379 . S
H2047 C2041 0.959 . S
H2048 C2041 0.961 . S
H2049 C2041 0.960 . S
H2050 C2042 0.930 . S
H2051 C2043 0.929 . S
H2052 C2060 0.929 . S
H2053 C2062 0.930 . S
H2054 C2064 0.930 . S
H2055 C2067 0.929 . S
H2056 C2070 0.930 . S
H2057 C2072 0.960 . S
H2058 C2072 0.960 . S
H2059 C2072 0.960 . S
C2060 H2052 0.929 . S
C2060 C2061 1.377 . S
C2060 C2062 1.384 . S
C2061 C2060 1.377 . S
C2061 C2067 1.390 . S
C2062 H2053 0.930 . S
C2062 C2060 1.384 . S
C2062 C2063 1.372 . S
C2063 C2062 1.372 . S
C2063 C2064 1.400 . S
C2063 C2068 1.490 . S
C2064 H2054 0.930 . S
C2064 C2063 1.400 . S
C2064 C2067 1.386 . S
H2065 C2081 0.930 . S
H2066 C2082 0.931 . S
C2067 H2055 0.929 . S
C2067 C2061 1.390 . S
C2067 C2064 1.386 . S
C2068 C2063 1.490 . S
C2068 C2070 1.395 . S
C2068 C2071 1.403 . S
H2069 C2075 0.930 . S
C2070 H2056 0.930 . S
C2070 C2068 1.395 . S
C2070 C2073 1.403 . S
C2071 C2068 1.403 . S
C2071 C2072 1.524 . S
C2071 C2075 1.400 . S
C2072 H2057 0.960 . S
C2072 H2058 0.960 . S
C2072 H2059 0.960 . S
C2072 C2071 1.524 . S
C2073 C2070 1.403 . S
C2073 C2074 1.392 . S
C2073 C2077 1.495 . S
C2074 C2073 1.392 . S
C2074 C2075 1.385 . S
C2074 C2076 1.478 . S
C2075 H2069 0.930 . S
C2075 C2071 1.400 . S
C2075 C2074 1.385 . S
C2076 C2074 1.478 . S
C2076 C2078 1.381 . S
C2076 C2082 1.383 . S
C2077 C2073 1.495 . S
C2077 H2083 0.959 . S
C2077 H2084 0.961 . S
C2077 H2085 0.960 . S
C2078 C2076 1.381 . S
C2078 C2079 1.394 . S
C2078 H2086 0.930 . S
C2079 C2078 1.394 . S
C2079 C2080 1.383 . S
C2079 H2087 0.929 . S
C2080 C2079 1.383 . S
C2080 C2081 1.377 . S
C2081 H2065 0.930 . S
C2081 C2080 1.377 . S
C2081 C2082 1.379 . S
C2082 H2066 0.931 . S
C2082 C2076 1.383 . S
C2082 C2081 1.379 . S
H2083 C2077 0.959 . S
H2084 C2077 0.961 . S
H2085 C2077 0.960 . S
H2086 C2078 0.930 . S
H2087 C2079 0.929 . S
H2088 C2096 0.929 . S
H2089 C2098 0.930 . S
H2090 C2100 0.930 . S
H2091 C2103 0.929 . S
H2092 C2106 0.930 . S
H2093 C2108 0.960 . S
H2094 C2108 0.960 . S
H2095 C2108 0.960 . S
C2096 H2088 0.929 . S
C2096 C2097 1.377 . S
C2096 C2098 1.384 . S
C2097 C2096 1.377 . S
C2097 C2103 1.390 . S
C2098 H2089 0.930 . S
C2098 C2096 1.384 . S
C2098 C2099 1.372 . S
C2099 C2098 1.372 . S
C2099 C2100 1.400 . S
C2099 C2104 1.490 . S
C2100 H2090 0.930 . S
C2100 C2099 1.400 . S
C2100 C2103 1.386 . S
H2101 C2117 0.930 . S
H2102 C2118 0.931 . S
C2103 H2091 0.929 . S
C2103 C2097 1.390 . S
C2103 C2100 1.386 . S
C2104 C2099 1.490 . S
C2104 C2106 1.395 . S
C2104 C2107 1.403 . S
H2105 C2111 0.930 . S
C2106 H2092 0.930 . S
C2106 C2104 1.395 . S
C2106 C2109 1.403 . S
C2107 C2104 1.403 . S
C2107 C2108 1.524 . S
C2107 C2111 1.400 . S
C2108 H2093 0.960 . S
C2108 H2094 0.960 . S
C2108 H2095 0.960 . S
C2108 C2107 1.524 . S
C2109 C2106 1.403 . S
C2109 C2110 1.392 . S
C2109 C2113 1.495 . S
C2110 C2109 1.392 . S
C2110 C2111 1.385 . S
C2110 C2112 1.478 . S
C2111 H2105 0.930 . S
C2111 C2107 1.400 . S
C2111 C2110 1.385 . S
C2112 C2110 1.478 . S
C2112 C2114 1.381 . S
C2112 C2118 1.383 . S
C2113 C2109 1.495 . S
C2113 H2119 0.959 . S
C2113 H2120 0.961 . S
C2113 H2121 0.960 . S
C2114 C2112 1.381 . S
C2114 C2115 1.394 . S
C2114 H2122 0.930 . S
C2115 C2114 1.394 . S
C2115 C2116 1.383 . S
C2115 H2123 0.929 . S
C2116 C2115 1.383 . S
C2116 C2117 1.377 . S
C2117 H2101 0.930 . S
C2117 C2116 1.377 . S
C2117 C2118 1.379 . S
C2118 H2102 0.931 . S
C2118 C2112 1.383 . S
C2118 C2117 1.379 . S
H2119 C2113 0.959 . S
H2120 C2113 0.961 . S
H2121 C2113 0.960 . S
H2122 C2114 0.930 . S
H2123 C2115 0.929 . S
H2124 C2132 0.929 . S
H2125 C2134 0.930 . S
H2126 C2136 0.930 . S
H2127 C2139 0.929 . S
H2128 C2142 0.930 . S
H2129 C2144 0.960 . S
H2130 C2144 0.960 . S
H2131 C2144 0.960 . S
C2132 H2124 0.929 . S
C2132 C2133 1.377 1_455 S
C2132 C2134 1.384 . S
C2133 C2132 1.377 1_655 S
C2133 C2139 1.390 . S
C2134 H2125 0.930 . S
C2134 C2132 1.384 . S
C2134 C2135 1.372 1_455 S
C2135 C2134 1.372 1_655 S
C2135 C2136 1.400 . S
C2135 C2140 1.490 . S
C2136 H2126 0.930 . S
C2136 C2135 1.400 . S
C2136 C2139 1.386 . S
H2137 C2153 0.930 . S
H2138 C2154 0.931 . S
C2139 H2127 0.929 . S
C2139 C2133 1.390 . S
C2139 C2136 1.386 . S
C2140 C2135 1.490 . S
C2140 C2142 1.395 1_655 S
C2140 C2143 1.403 . S
H2141 C2147 0.930 . S
C2142 H2128 0.930 . S
C2142 C2140 1.395 1_455 S
C2142 C2145 1.403 . S
C2143 C2140 1.403 . S
C2143 C2144 1.524 . S
C2143 C2147 1.400 . S
C2144 H2129 0.960 . S
C2144 H2130 0.960 . S
C2144 H2131 0.960 . S
C2144 C2143 1.524 . S
C2145 C2142 1.403 . S
C2145 C2146 1.392 1_455 S
C2145 C2149 1.495 . S
C2146 C2145 1.392 1_655 S
C2146 C2147 1.385 . S
C2146 C2148 1.478 . S
C2147 H2141 0.930 . S
C2147 C2143 1.400 . S
C2147 C2146 1.385 . S
C2148 C2146 1.478 . S
C2148 C2150 1.381 1_655 S
C2148 C2154 1.383 . S
C2149 C2145 1.495 . S
C2149 H2155 0.959 . S
C2149 H2156 0.961 . S
C2149 H2157 0.960 . S
C2150 C2148 1.381 1_455 S
C2150 C2151 1.394 . S
C2150 H2158 0.930 . S
C2151 C2150 1.394 . S
C2151 C2152 1.364 1_455 S
C2151 H2159 0.929 . S
C2152 C2151 1.364 1_655 S
C2152 C2153 1.387 . S
C2153 H2137 0.930 . S
C2153 C2152 1.387 . S
C2153 C2154 1.379 . S
C2154 H2138 0.931 . S
C2154 C2148 1.383 . S
C2154 C2153 1.379 . S
H2155 C2149 0.959 . S
H2156 C2149 0.961 . S
H2157 C2149 0.960 . S
H2158 C2150 0.930 . S
H2159 C2151 0.929 . S
H2160 C2168 0.929 . S
H2161 C2170 0.930 . S
H2162 C2172 0.930 . S
H2163 C2175 0.929 . S
H2164 C2178 0.930 . S
H2165 C2180 0.960 . S
H2166 C2180 0.960 . S
H2167 C2180 0.960 . S
C2168 H2160 0.929 . S
C2168 C2169 1.377 . S
C2168 C2170 1.384 . S
C2169 C2168 1.377 . S
C2169 C2175 1.390 . S
C2170 H2161 0.930 . S
C2170 C2168 1.384 . S
C2170 C2171 1.372 . S
C2171 C2170 1.372 . S
C2171 C2172 1.400 . S
C2171 C2176 1.490 . S
C2172 H2162 0.930 . S
C2172 C2171 1.400 . S
C2172 C2175 1.386 . S
H2173 C2189 0.930 . S
H2174 C2190 0.931 . S
C2175 H2163 0.929 . S
C2175 C2169 1.390 . S
C2175 C2172 1.386 . S
C2176 C2171 1.490 . S
C2176 C2178 1.395 . S
C2176 C2179 1.403 . S
H2177 C2183 0.930 . S
C2178 H2164 0.930 . S
C2178 C2176 1.395 . S
C2178 C2181 1.403 . S
C2179 C2176 1.403 . S
C2179 C2180 1.524 . S
C2179 C2183 1.400 . S
C2180 H2165 0.960 . S
C2180 H2166 0.960 . S
C2180 H2167 0.960 . S
C2180 C2179 1.524 . S
C2181 C2178 1.403 . S
C2181 C2182 1.392 . S
C2181 C2185 1.495 . S
C2182 C2181 1.392 . S
C2182 C2183 1.385 . S
C2182 C2184 1.478 . S
C2183 H2177 0.930 . S
C2183 C2179 1.400 . S
C2183 C2182 1.385 . S
C2184 C2182 1.478 . S
C2184 C2186 1.381 . S
C2184 C2190 1.383 . S
C2185 C2181 1.495 . S
C2185 H2191 0.959 . S
C2185 H2192 0.961 . S
C2185 H2193 0.960 . S
C2186 C2184 1.381 . S
C2186 C2187 1.394 . S
C2186 H2194 0.930 . S
C2187 C2186 1.394 . S
C2187 C2188 1.383 . S
C2187 H2195 0.929 . S
C2188 C2187 1.383 . S
C2188 C2189 1.377 . S
C2189 H2173 0.930 . S
C2189 C2188 1.377 . S
C2189 C2190 1.379 . S
C2190 H2174 0.931 . S
C2190 C2184 1.383 . S
C2190 C2189 1.379 . S
H2191 C2185 0.959 . S
H2192 C2185 0.961 . S
H2193 C2185 0.960 . S
H2194 C2186 0.930 . S
H2195 C2187 0.929 . S
H2196 C2204 0.929 . S
H2197 C2206 0.930 . S
H2198 C2208 0.930 . S
H2199 C2211 0.929 . S
H2200 C2214 0.930 . S
H2201 C2216 0.960 . S
H2202 C2216 0.960 . S
H2203 C2216 0.960 . S
C2204 H2196 0.929 . S
C2204 C2205 1.377 . S
C2204 C2206 1.384 . S
C2205 C2204 1.377 . S
C2205 C2211 1.390 . S
C2206 H2197 0.930 . S
C2206 C2204 1.384 . S
C2206 C2207 1.372 . S
C2207 C2206 1.372 . S
C2207 C2208 1.400 . S
C2207 C2212 1.490 . S
C2208 H2198 0.930 . S
C2208 C2207 1.400 . S
C2208 C2211 1.386 . S
H2209 C2225 0.930 . S
H2210 C2226 0.931 . S
C2211 H2199 0.929 . S
C2211 C2205 1.390 . S
C2211 C2208 1.386 . S
C2212 C2207 1.490 . S
C2212 C2214 1.395 . S
C2212 C2215 1.403 . S
H2213 C2219 0.930 . S
C2214 H2200 0.930 . S
C2214 C2212 1.395 . S
C2214 C2217 1.403 . S
C2215 C2212 1.403 . S
C2215 C2216 1.524 . S
C2215 C2219 1.400 . S
C2216 H2201 0.960 . S
C2216 H2202 0.960 . S
C2216 H2203 0.960 . S
C2216 C2215 1.524 . S
C2217 C2214 1.403 . S
C2217 C2218 1.392 . S
C2217 C2221 1.495 . S
C2218 C2217 1.392 . S
C2218 C2219 1.385 . S
C2218 C2220 1.478 . S
C2219 H2213 0.930 . S
C2219 C2215 1.400 . S
C2219 C2218 1.385 . S
C2220 C2218 1.478 . S
C2220 C2222 1.381 . S
C2220 C2226 1.383 . S
C2221 C2217 1.495 . S
C2221 H2227 0.959 . S
C2221 H2228 0.961 . S
C2221 H2229 0.960 . S
C2222 C2220 1.381 . S
C2222 C2223 1.394 . S
C2222 H2230 0.930 . S
C2223 C2222 1.394 . S
C2223 C2224 1.383 . S
C2223 H2231 0.929 . S
C2224 C2223 1.383 . S
C2224 C2225 1.377 . S
C2225 H2209 0.930 . S
C2225 C2224 1.377 . S
C2225 C2226 1.379 . S
C2226 H2210 0.931 . S
C2226 C2220 1.383 . S
C2226 C2225 1.379 . S
H2227 C2221 0.959 . S
H2228 C2221 0.961 . S
H2229 C2221 0.960 . S
H2230 C2222 0.930 . S
H2231 C2223 0.929 . S
H2232 C2240 0.929 1_455 S
H2233 C2242 0.930 . S
H2234 C2244 0.930 . S
H2235 C2247 0.929 . S
H2236 C2250 0.930 . S
H2237 C2252 0.960 . S
H2238 C2252 0.960 . S
H2239 C2252 0.960 . S
C2240 H2232 0.929 1_655 S
C2240 C2241 1.377 . S
C2240 C2242 1.384 . S
C2241 C2240 1.377 . S
C2241 C2247 1.390 . S
C2242 H2233 0.930 . S
C2242 C2240 1.384 . S
C2242 C2243 1.372 . S
C2243 C2242 1.372 . S
C2243 C2244 1.400 . S
C2243 C2248 1.490 . S
C2244 H2234 0.930 . S
C2244 C2243 1.400 . S
C2244 C2247 1.386 . S
H2245 C2261 0.930 . S
H2246 C2262 0.931 . S
C2247 H2235 0.929 . S
C2247 C2241 1.390 . S
C2247 C2244 1.386 . S
C2248 C2243 1.490 . S
C2248 C2250 1.395 . S
C2248 C2251 1.403 . S
H2249 C2255 0.930 . S
C2250 H2236 0.930 . S
C2250 C2248 1.395 . S
C2250 C2253 1.403 . S
C2251 C2248 1.403 . S
C2251 C2252 1.524 . S
C2251 C2255 1.400 . S
C2252 H2237 0.960 . S
C2252 H2238 0.960 . S
C2252 H2239 0.960 . S
C2252 C2251 1.524 . S
C2253 C2250 1.403 . S
C2253 C2254 1.392 . S
C2253 C2257 1.495 . S
C2254 C2253 1.392 . S
C2254 C2255 1.385 . S
C2254 C2256 1.478 . S
C2255 H2249 0.930 . S
C2255 C2251 1.400 . S
C2255 C2254 1.385 . S
C2256 C2254 1.478 . S
C2256 C2258 1.381 . S
C2256 C2262 1.383 . S
C2257 C2253 1.495 . S
C2257 H2263 0.959 . S
C2257 H2264 0.961 . S
C2257 H2265 0.960 . S
C2258 C2256 1.381 . S
C2258 C2259 1.394 . S
C2258 H2266 0.930 . S
C2259 C2258 1.394 . S
C2259 C2260 1.383 . S
C2259 H2267 0.929 . S
C2260 C2259 1.383 . S
C2260 C2261 1.377 . S
C2261 H2245 0.930 . S
C2261 C2260 1.377 . S
C2261 C2262 1.379 . S
C2262 H2246 0.931 . S
C2262 C2256 1.383 . S
C2262 C2261 1.379 . S
H2263 C2257 0.959 . S
H2264 C2257 0.961 . S
H2265 C2257 0.960 . S
H2266 C2258 0.930 . S
H2267 C2259 0.929 . S
H2268 C2276 0.929 . S
H2269 C2278 0.930 . S
H2270 C2280 0.930 . S
H2271 C2283 0.929 . S
H2272 C2286 0.930 . S
H2273 C2288 0.960 . S
H2274 C2288 0.960 . S
H2275 C2288 0.960 . S
C2276 H2268 0.929 . S
C2276 C2277 1.377 . S
C2276 C2278 1.384 . S
C2277 C2276 1.377 . S
C2277 C2283 1.390 . S
C2278 H2269 0.930 . S
C2278 C2276 1.384 . S
C2278 C2279 1.372 . S
C2279 C2278 1.372 . S
C2279 C2280 1.400 . S
C2279 C2284 1.490 . S
C2280 H2270 0.930 . S
C2280 C2279 1.400 . S
C2280 C2283 1.386 . S
H2281 C2297 0.930 . S
H2282 C2298 0.931 . S
C2283 H2271 0.929 . S
C2283 C2277 1.390 . S
C2283 C2280 1.386 . S
C2284 C2279 1.490 . S
C2284 C2286 1.395 . S
C2284 C2287 1.403 . S
H2285 C2291 0.930 . S
C2286 H2272 0.930 . S
C2286 C2284 1.395 . S
C2286 C2289 1.403 . S
C2287 C2284 1.403 . S
C2287 C2288 1.524 . S
C2287 C2291 1.400 . S
C2288 H2273 0.960 . S
C2288 H2274 0.960 . S
C2288 H2275 0.960 . S
C2288 C2287 1.524 . S
C2289 C2286 1.403 . S
C2289 C2290 1.392 . S
C2289 C2293 1.495 . S
C2290 C2289 1.392 . S
C2290 C2291 1.385 . S
C2290 C2292 1.478 . S
C2291 H2285 0.930 . S
C2291 C2287 1.400 . S
C2291 C2290 1.385 . S
C2292 C2290 1.478 . S
C2292 C2294 1.381 . S
C2292 C2298 1.383 . S
C2293 C2289 1.495 . S
C2293 H2299 0.959 . S
C2293 H2300 0.961 . S
C2293 H2301 0.960 . S
C2294 C2292 1.381 . S
C2294 C2295 1.394 . S
C2294 H2302 0.930 . S
C2295 C2294 1.394 . S
C2295 C2296 1.383 . S
C2295 H2303 0.929 . S
C2296 C2295 1.383 . S
C2296 C2297 1.377 . S
C2297 H2281 0.930 . S
C2297 C2296 1.377 . S
C2297 C2298 1.379 . S
C2298 H2282 0.931 . S
C2298 C2292 1.383 . S
C2298 C2297 1.379 . S
H2299 C2293 0.959 . S
H2300 C2293 0.961 . S
H2301 C2293 0.960 . S
H2302 C2294 0.930 . S
H2303 C2295 0.929 . S
H2304 C2312 0.929 . S
H2305 C2314 0.930 . S
H2306 C2316 0.930 . S
H2307 C2319 0.929 . S
H2308 C2322 0.930 . S
H2309 C2324 0.960 . S
H2310 C2324 0.960 . S
H2311 C2324 0.960 . S
C2312 H2304 0.929 . S
C2312 C2313 1.377 . S
C2312 C2314 1.384 . S
C2313 C2312 1.377 . S
C2313 C2319 1.390 . S
C2314 H2305 0.930 . S
C2314 C2312 1.384 . S
C2314 C2315 1.372 . S
C2315 C2314 1.372 . S
C2315 C2316 1.400 . S
C2315 C2320 1.490 . S
C2316 H2306 0.930 . S
C2316 C2315 1.400 . S
C2316 C2319 1.386 . S
H2317 C2333 0.930 . S
H2318 C2334 0.931 . S
C2319 H2307 0.929 . S
C2319 C2313 1.390 . S
C2319 C2316 1.386 . S
C2320 C2315 1.490 . S
C2320 C2322 1.395 . S
C2320 C2323 1.403 . S
H2321 C2327 0.930 . S
C2322 H2308 0.930 . S
C2322 C2320 1.395 . S
C2322 C2325 1.403 . S
C2323 C2320 1.403 . S
C2323 C2324 1.524 . S
C2323 C2327 1.400 . S
C2324 H2309 0.960 . S
C2324 H2310 0.960 . S
C2324 H2311 0.960 . S
C2324 C2323 1.524 . S
C2325 C2322 1.403 . S
C2325 C2326 1.392 . S
C2325 C2329 1.495 . S
C2326 C2325 1.392 . S
C2326 C2327 1.385 . S
C2326 C2328 1.478 . S
C2327 H2321 0.930 . S
C2327 C2323 1.400 . S
C2327 C2326 1.385 . S
C2328 C2326 1.478 . S
C2328 C2330 1.381 . S
C2328 C2334 1.383 . S
C2329 C2325 1.495 . S
C2329 H2335 0.959 . S
C2329 H2336 0.961 . S
C2329 H2337 0.960 . S
C2330 C2328 1.381 . S
C2330 C2331 1.394 . S
C2330 H2338 0.930 . S
C2331 C2330 1.394 . S
C2331 C2332 1.383 . S
C2331 H2339 0.929 . S
C2332 C2331 1.383 . S
C2332 C2333 1.377 . S
C2333 H2317 0.930 . S
C2333 C2332 1.377 . S
C2333 C2334 1.379 . S
C2334 H2318 0.931 . S
C2334 C2328 1.383 . S
C2334 C2333 1.379 . S
H2335 C2329 0.959 . S
H2336 C2329 0.961 . S
H2337 C2329 0.960 . S
H2338 C2330 0.930 . S
H2339 C2331 0.929 . S
H2340 C2348 0.929 . S
H2341 C2350 0.930 . S
H2342 C2352 0.930 . S
H2343 C2355 0.929 . S
H2344 C2358 0.930 . S
H2345 C2360 0.960 . S
H2346 C2360 0.960 . S
H2347 C2360 0.960 . S
C2348 H2340 0.929 . S
C2348 C2349 1.377 . S
C2348 C2350 1.384 . S
C2349 C2348 1.377 . S
C2349 C2355 1.390 . S
C2350 H2341 0.930 . S
C2350 C2348 1.384 . S
C2350 C2351 1.372 . S
C2351 C2350 1.372 . S
C2351 C2352 1.400 . S
C2351 C2356 1.490 . S
C2352 H2342 0.930 . S
C2352 C2351 1.400 . S
C2352 C2355 1.386 . S
H2353 C2369 0.930 . S
H2354 C2370 0.931 . S
C2355 H2343 0.929 . S
C2355 C2349 1.390 . S
C2355 C2352 1.386 . S
C2356 C2351 1.490 . S
C2356 C2358 1.395 . S
C2356 C2359 1.403 . S
H2357 C2363 0.930 . S
C2358 H2344 0.930 . S
C2358 C2356 1.395 . S
C2358 C2361 1.403 . S
C2359 C2356 1.403 . S
C2359 C2360 1.524 . S
C2359 C2363 1.400 . S
C2360 H2345 0.960 . S
C2360 H2346 0.960 . S
C2360 H2347 0.960 . S
C2360 C2359 1.524 . S
C2361 C2358 1.403 . S
C2361 C2362 1.392 . S
C2361 C2365 1.495 . S
C2362 C2361 1.392 . S
C2362 C2363 1.385 . S
C2362 C2364 1.478 . S
C2363 H2357 0.930 . S
C2363 C2359 1.400 . S
C2363 C2362 1.385 . S
C2364 C2362 1.478 . S
C2364 C2366 1.381 . S
C2364 C2370 1.383 . S
C2365 C2361 1.495 . S
C2365 H2371 0.959 . S
C2365 H2372 0.961 . S
C2365 H2373 0.960 . S
C2366 C2364 1.381 . S
C2366 C2367 1.394 . S
C2366 H2374 0.930 . S
C2367 C2366 1.394 . S
C2367 C2368 1.383 . S
C2367 H2375 0.929 . S
C2368 C2367 1.383 . S
C2368 C2369 1.377 . S
C2369 H2353 0.930 . S
C2369 C2368 1.377 . S
C2369 C2370 1.379 . S
C2370 H2354 0.931 . S
C2370 C2364 1.383 . S
C2370 C2369 1.379 . S
H2371 C2365 0.959 . S
H2372 C2365 0.961 . S
H2373 C2365 0.960 . S
H2374 C2366 0.930 . S
H2375 C2367 0.929 . S
H2376 C2384 0.929 . S
H2377 C2386 0.930 . S
H2378 C2388 0.930 . S
H2379 C2391 0.929 . S
H2380 C2394 0.930 . S
H2381 C2396 0.960 . S
H2382 C2396 0.960 . S
H2383 C2396 0.960 . S
C2384 H2376 0.929 . S
C2384 C2385 1.377 . S
C2384 C2386 1.384 . S
C2385 C2384 1.377 . S
C2385 C2391 1.390 . S
C2386 H2377 0.930 . S
C2386 C2384 1.384 . S
C2386 C2387 1.372 . S
C2387 C2386 1.372 . S
C2387 C2388 1.400 . S
C2387 C2392 1.490 . S
C2388 H2378 0.930 . S
C2388 C2387 1.400 . S
C2388 C2391 1.386 . S
H2389 C2405 0.930 . S
H2390 C2406 0.931 . S
C2391 H2379 0.929 . S
C2391 C2385 1.390 . S
C2391 C2388 1.386 . S
C2392 C2387 1.490 . S
C2392 C2394 1.395 . S
C2392 C2395 1.403 . S
H2393 C2399 0.930 . S
C2394 H2380 0.930 . S
C2394 C2392 1.395 . S
C2394 C2397 1.403 . S
C2395 C2392 1.403 . S
C2395 C2396 1.524 . S
C2395 C2399 1.400 . S
C2396 H2381 0.960 . S
C2396 H2382 0.960 . S
C2396 H2383 0.960 . S
C2396 C2395 1.524 . S
C2397 C2394 1.403 . S
C2397 C2398 1.392 . S
C2397 C2401 1.495 . S
C2398 C2397 1.392 . S
C2398 C2399 1.385 . S
C2398 C2400 1.478 . S
C2399 H2393 0.930 . S
C2399 C2395 1.400 . S
C2399 C2398 1.385 . S
C2400 C2398 1.478 . S
C2400 C2402 1.381 . S
C2400 C2406 1.383 . S
C2401 C2397 1.495 . S
C2401 H2407 0.959 . S
C2401 H2408 0.961 . S
C2401 H2409 0.960 . S
C2402 C2400 1.381 . S
C2402 C2403 1.394 . S
C2402 H2410 0.930 . S
C2403 C2402 1.394 . S
C2403 C2404 1.383 . S
C2403 H2411 0.929 . S
C2404 C2403 1.383 . S
C2404 C2405 1.377 . S
C2405 H2389 0.930 . S
C2405 C2404 1.377 . S
C2405 C2406 1.379 . S
C2406 H2390 0.931 . S
C2406 C2400 1.383 . S
C2406 C2405 1.379 . S
H2407 C2401 0.959 . S
H2408 C2401 0.961 . S
H2409 C2401 0.960 . S
H2410 C2402 0.930 . S
H2411 C2403 0.929 . S
H2412 C2420 0.929 . S
H2413 C2422 0.930 . S
H2414 C2424 0.930 . S
H2415 C2427 0.929 . S
H2416 C2430 0.930 . S
H2417 C2432 0.960 . S
H2418 C2432 0.960 . S
H2419 C2432 0.960 . S
C2420 H2412 0.929 . S
C2420 C2421 1.377 . S
C2420 C2422 1.384 . S
C2421 C2420 1.377 . S
C2421 C2427 1.390 . S
C2422 H2413 0.930 . S
C2422 C2420 1.384 . S
C2422 C2423 1.372 . S
C2423 C2422 1.372 . S
C2423 C2424 1.400 . S
C2423 C2428 1.490 . S
C2424 H2414 0.930 . S
C2424 C2423 1.400 . S
C2424 C2427 1.386 . S
H2425 C2441 0.930 . S
H2426 C2442 0.931 . S
C2427 H2415 0.929 . S
C2427 C2421 1.390 . S
C2427 C2424 1.386 . S
C2428 C2423 1.490 . S
C2428 C2430 1.395 . S
C2428 C2431 1.403 . S
H2429 C2435 0.930 . S
C2430 H2416 0.930 . S
C2430 C2428 1.395 . S
C2430 C2433 1.403 . S
C2431 C2428 1.403 . S
C2431 C2432 1.524 . S
C2431 C2435 1.400 . S
C2432 H2417 0.960 . S
C2432 H2418 0.960 . S
C2432 H2419 0.960 . S
C2432 C2431 1.524 . S
C2433 C2430 1.403 . S
C2433 C2434 1.392 . S
C2433 C2437 1.495 . S
C2434 C2433 1.392 . S
C2434 C2435 1.385 . S
C2434 C2436 1.478 . S
C2435 H2429 0.930 . S
C2435 C2431 1.400 . S
C2435 C2434 1.385 . S
C2436 C2434 1.478 . S
C2436 C2438 1.381 . S
C2436 C2442 1.383 . S
C2437 C2433 1.495 . S
C2437 H2443 0.959 . S
C2437 H2444 0.961 . S
C2437 H2445 0.960 . S
C2438 C2436 1.381 . S
C2438 C2439 1.394 . S
C2438 H2446 0.930 . S
C2439 C2438 1.394 . S
C2439 C2440 1.383 . S
C2439 H2447 0.929 . S
C2440 C2439 1.383 . S
C2440 C2441 1.377 . S
C2441 H2425 0.930 . S
C2441 C2440 1.377 . S
C2441 C2442 1.379 . S
C2442 H2426 0.931 . S
C2442 C2436 1.383 . S
C2442 C2441 1.379 . S
H2443 C2437 0.959 . S
H2444 C2437 0.961 . S
H2445 C2437 0.960 . S
H2446 C2438 0.930 . S
H2447 C2439 0.929 . S
H2448 C2456 0.929 . S
H2449 C2458 0.930 . S
H2450 C2460 0.930 . S
H2451 C2463 0.929 . S
H2452 C2466 0.930 . S
H2453 C2468 0.960 . S
H2454 C2468 0.960 . S
H2455 C2468 0.960 . S
C2456 H2448 0.929 . S
C2456 C2457 1.377 . S
C2456 C2458 1.384 . S
C2457 C2456 1.377 . S
C2457 C2463 1.390 . S
C2458 H2449 0.930 . S
C2458 C2456 1.384 . S
C2458 C2459 1.372 . S
C2459 C2458 1.372 . S
C2459 C2460 1.400 . S
C2459 C2464 1.490 . S
C2460 H2450 0.930 . S
C2460 C2459 1.400 . S
C2460 C2463 1.386 . S
H2461 C2477 0.930 . S
H2462 C2478 0.931 . S
C2463 H2451 0.929 . S
C2463 C2457 1.390 . S
C2463 C2460 1.386 . S
C2464 C2459 1.490 . S
C2464 C2466 1.395 . S
C2464 C2467 1.403 . S
H2465 C2471 0.930 . S
C2466 H2452 0.930 . S
C2466 C2464 1.395 . S
C2466 C2469 1.403 . S
C2467 C2464 1.403 . S
C2467 C2468 1.524 . S
C2467 C2471 1.400 . S
C2468 H2453 0.960 . S
C2468 H2454 0.960 . S
C2468 H2455 0.960 . S
C2468 C2467 1.524 . S
C2469 C2466 1.403 . S
C2469 C2470 1.392 . S
C2469 C2473 1.495 . S
C2470 C2469 1.392 . S
C2470 C2471 1.385 . S
C2470 C2472 1.478 . S
C2471 H2465 0.930 . S
C2471 C2467 1.400 . S
C2471 C2470 1.385 . S
C2472 C2470 1.478 . S
C2472 C2474 1.381 . S
C2472 C2478 1.383 . S
C2473 C2469 1.495 . S
C2473 H2479 0.959 . S
C2473 H2480 0.961 . S
C2473 H2481 0.960 . S
C2474 C2472 1.381 . S
C2474 C2475 1.394 . S
C2474 H2482 0.930 . S
C2475 C2474 1.394 . S
C2475 C2476 1.383 . S
C2475 H2483 0.929 . S
C2476 C2475 1.383 . S
C2476 C2477 1.377 . S
C2477 H2461 0.930 . S
C2477 C2476 1.377 . S
C2477 C2478 1.379 . S
C2478 H2462 0.931 . S
C2478 C2472 1.383 . S
C2478 C2477 1.379 . S
H2479 C2473 0.959 . S
H2480 C2473 0.961 . S
H2481 C2473 0.960 . S
H2482 C2474 0.930 . S
H2483 C2475 0.929 . S
H2484 C2492 0.929 . S
H2485 C2494 0.930 . S
H2486 C2496 0.930 . S
H2487 C2499 0.929 . S
H2488 C2502 0.930 . S
H2489 C2504 0.960 . S
H2490 C2504 0.960 . S
H2491 C2504 0.960 . S
C2492 H2484 0.929 . S
C2492 C2493 1.377 . S
C2492 C2494 1.384 . S
C2493 C2492 1.377 . S
C2493 C2499 1.390 . S
C2494 H2485 0.930 . S
C2494 C2492 1.384 . S
C2494 C2495 1.372 . S
C2495 C2494 1.372 . S
C2495 C2496 1.400 . S
C2495 C2500 1.490 . S
C2496 H2486 0.930 . S
C2496 C2495 1.400 . S
C2496 C2499 1.386 . S
H2497 C2513 0.930 . S
H2498 C2514 0.931 . S
C2499 H2487 0.929 . S
C2499 C2493 1.390 . S
C2499 C2496 1.386 . S
C2500 C2495 1.490 . S
C2500 C2502 1.395 . S
C2500 C2503 1.403 . S
H2501 C2507 0.930 . S
C2502 H2488 0.930 . S
C2502 C2500 1.395 . S
C2502 C2505 1.403 . S
C2503 C2500 1.403 . S
C2503 C2504 1.524 . S
C2503 C2507 1.400 . S
C2504 H2489 0.960 . S
C2504 H2490 0.960 . S
C2504 H2491 0.960 . S
C2504 C2503 1.524 . S
C2505 C2502 1.403 . S
C2505 C2506 1.392 . S
C2505 C2509 1.495 . S
C2506 C2505 1.392 . S
C2506 C2507 1.385 . S
C2506 C2508 1.478 . S
C2507 H2501 0.930 . S
C2507 C2503 1.400 . S
C2507 C2506 1.385 . S
C2508 C2506 1.478 . S
C2508 C2510 1.381 . S
C2508 C2514 1.383 . S
C2509 C2505 1.495 . S
C2509 H2515 0.959 . S
C2509 H2516 0.961 . S
C2509 H2517 0.960 . S
C2510 C2508 1.381 . S
C2510 C2511 1.394 . S
C2510 H2518 0.930 . S
C2511 C2510 1.394 . S
C2511 C2512 1.383 . S
C2511 H2519 0.929 . S
C2512 C2511 1.383 . S
C2512 C2513 1.377 . S
C2513 H2497 0.930 . S
C2513 C2512 1.377 . S
C2513 C2514 1.379 . S
C2514 H2498 0.931 . S
C2514 C2508 1.383 . S
C2514 C2513 1.379 . S
H2515 C2509 0.959 . S
H2516 C2509 0.961 . S
H2517 C2509 0.960 . S
H2518 C2510 0.930 . S
H2519 C2511 0.929 . S
H2520 C2528 0.929 . S
H2521 C2530 0.930 . S
H2522 C2532 0.930 . S
H2523 C2535 0.929 . S
H2524 C2538 0.930 . S
H2525 C2540 0.960 . S
H2526 C2540 0.960 . S
H2527 C2540 0.960 . S
C2528 H2520 0.929 . S
C2528 C2529 1.377 . S
C2528 C2530 1.384 . S
C2529 C2528 1.377 . S
C2529 C2535 1.390 . S
C2530 H2521 0.930 . S
C2530 C2528 1.384 . S
C2530 C2531 1.372 . S
C2531 C2530 1.372 . S
C2531 C2532 1.400 . S
C2531 C2536 1.490 . S
C2532 H2522 0.930 . S
C2532 C2531 1.400 . S
C2532 C2535 1.386 . S
H2533 C2549 0.930 . S
H2534 C2550 0.931 . S
C2535 H2523 0.929 . S
C2535 C2529 1.390 . S
C2535 C2532 1.386 . S
C2536 C2531 1.490 . S
C2536 C2538 1.395 . S
C2536 C2539 1.403 . S
H2537 C2543 0.930 . S
C2538 H2524 0.930 . S
C2538 C2536 1.395 . S
C2538 C2541 1.403 . S
C2539 C2536 1.403 . S
C2539 C2540 1.524 . S
C2539 C2543 1.400 . S
C2540 H2525 0.960 . S
C2540 H2526 0.960 . S
C2540 H2527 0.960 . S
C2540 C2539 1.524 . S
C2541 C2538 1.403 . S
C2541 C2542 1.392 . S
C2541 C2545 1.495 . S
C2542 C2541 1.392 . S
C2542 C2543 1.385 . S
C2542 C2544 1.478 . S
C2543 H2537 0.930 . S
C2543 C2539 1.400 . S
C2543 C2542 1.385 . S
C2544 C2542 1.478 . S
C2544 C2546 1.381 . S
C2544 C2550 1.383 . S
C2545 C2541 1.495 . S
C2545 H2551 0.959 . S
C2545 H2552 0.961 . S
C2545 H2553 0.960 . S
C2546 C2544 1.381 . S
C2546 C2547 1.394 . S
C2546 H2554 0.930 . S
C2547 C2546 1.394 . S
C2547 C2548 1.383 . S
C2547 H2555 0.929 . S
C2548 C2547 1.383 . S
C2548 C2549 1.377 . S
C2549 H2533 0.930 . S
C2549 C2548 1.377 . S
C2549 C2550 1.379 . S
C2550 H2534 0.931 . S
C2550 C2544 1.383 . S
C2550 C2549 1.379 . S
H2551 C2545 0.959 . S
H2552 C2545 0.961 . S
H2553 C2545 0.960 . S
H2554 C2546 0.930 . S
H2555 C2547 0.929 . S
H2556 C2564 0.929 . S
H2557 C2566 0.930 . S
H2558 C2568 0.930 . S
H2559 C2571 0.929 . S
H2560 C2574 0.930 . S
H2561 C2576 0.960 . S
H2562 C2576 0.960 . S
H2563 C2576 0.960 . S
C2564 H2556 0.929 . S
C2564 C2565 1.377 . S
C2564 C2566 1.384 . S
C2565 C2564 1.377 . S
C2565 C2571 1.390 . S
C2566 H2557 0.930 . S
C2566 C2564 1.384 . S
C2566 C2567 1.372 . S
C2567 C2566 1.372 . S
C2567 C2568 1.400 . S
C2567 C2572 1.490 . S
C2568 H2558 0.930 . S
C2568 C2567 1.400 . S
C2568 C2571 1.386 . S
H2569 C2585 0.930 . S
H2570 C2586 0.931 . S
C2571 H2559 0.929 . S
C2571 C2565 1.390 . S
C2571 C2568 1.386 . S
C2572 C2567 1.490 . S
C2572 C2574 1.395 . S
C2572 C2575 1.403 . S
H2573 C2579 0.930 . S
C2574 H2560 0.930 . S
C2574 C2572 1.395 . S
C2574 C2577 1.403 . S
C2575 C2572 1.403 . S
C2575 C2576 1.524 . S
C2575 C2579 1.400 . S
C2576 H2561 0.960 . S
C2576 H2562 0.960 . S
C2576 H2563 0.960 . S
C2576 C2575 1.524 . S
C2577 C2574 1.403 . S
C2577 C2578 1.392 . S
C2577 C2581 1.495 . S
C2578 C2577 1.392 . S
C2578 C2579 1.385 . S
C2578 C2580 1.478 . S
C2579 H2573 0.930 . S
C2579 C2575 1.400 . S
C2579 C2578 1.385 . S
C2580 C2578 1.478 . S
C2580 C2582 1.381 . S
C2580 C2586 1.383 . S
C2581 C2577 1.495 . S
C2581 H2587 0.959 . S
C2581 H2588 0.961 . S
C2581 H2589 0.960 . S
C2582 C2580 1.381 . S
C2582 C2583 1.394 . S
C2582 H2590 0.930 . S
C2583 C2582 1.394 . S
C2583 C2584 1.383 . S
C2583 H2591 0.929 . S
C2584 C2583 1.383 . S
C2584 C2585 1.377 . S
C2585 H2569 0.930 . S
C2585 C2584 1.377 . S
C2585 C2586 1.379 . S
C2586 H2570 0.931 . S
C2586 C2580 1.383 . S
C2586 C2585 1.379 . S
H2587 C2581 0.959 . S
H2588 C2581 0.961 . S
H2589 C2581 0.960 . S
H2590 C2582 0.930 . S
H2591 C2583 0.929 . S
H2592 C2600 0.929 . S
H2593 C2602 0.930 . S
H2594 C2604 0.930 . S
H2595 C2607 0.929 . S
H2596 C2610 0.930 . S
H2597 C2612 0.960 . S
H2598 C2612 0.960 . S
H2599 C2612 0.960 . S
C2600 H2592 0.929 . S
C2600 C2601 1.377 . S
C2600 C2602 1.384 . S
C2601 C2600 1.377 . S
C2601 C2607 1.390 . S
C2602 H2593 0.930 . S
C2602 C2600 1.384 . S
C2602 C2603 1.372 . S
C2603 C2602 1.372 . S
C2603 C2604 1.400 . S
C2603 C2608 1.490 . S
C2604 H2594 0.930 . S
C2604 C2603 1.400 . S
C2604 C2607 1.386 . S
H2605 C2621 0.930 . S
H2606 C2622 0.931 . S
C2607 H2595 0.929 . S
C2607 C2601 1.390 . S
C2607 C2604 1.386 . S
C2608 C2603 1.490 . S
C2608 C2610 1.395 . S
C2608 C2611 1.403 . S
H2609 C2615 0.930 . S
C2610 H2596 0.930 . S
C2610 C2608 1.395 . S
C2610 C2613 1.403 . S
C2611 C2608 1.403 . S
C2611 C2612 1.524 . S
C2611 C2615 1.400 . S
C2612 H2597 0.960 . S
C2612 H2598 0.960 . S
C2612 H2599 0.960 . S
C2612 C2611 1.524 . S
C2613 C2610 1.403 . S
C2613 C2614 1.392 . S
C2613 C2617 1.495 . S
C2614 C2613 1.392 . S
C2614 C2615 1.385 . S
C2614 C2616 1.478 . S
C2615 H2609 0.930 . S
C2615 C2611 1.400 . S
C2615 C2614 1.385 . S
C2616 C2614 1.478 . S
C2616 C2618 1.381 . S
C2616 C2622 1.383 . S
C2617 C2613 1.495 . S
C2617 H2623 0.959 . S
C2617 H2624 0.961 . S
C2617 H2625 0.960 . S
C2618 C2616 1.381 . S
C2618 C2619 1.394 . S
C2618 H2626 0.930 . S
C2619 C2618 1.394 . S
C2619 C2620 1.383 . S
C2619 H2627 0.929 . S
C2620 C2619 1.383 . S
C2620 C2621 1.377 . S
C2621 H2605 0.930 . S
C2621 C2620 1.377 . S
C2621 C2622 1.379 . S
C2622 H2606 0.931 . S
C2622 C2616 1.383 . S
C2622 C2621 1.379 . S
H2623 C2617 0.959 . S
H2624 C2617 0.961 . S
H2625 C2617 0.960 . S
H2626 C2618 0.930 . S
H2627 C2619 0.929 . S
H2628 C2636 0.929 . S
H2629 C2638 0.930 . S
H2630 C2640 0.930 . S
H2631 C2643 0.929 . S
H2632 C2646 0.930 . S
H2633 C2648 0.960 . S
H2634 C2648 0.960 . S
H2635 C2648 0.960 . S
C2636 H2628 0.929 . S
C2636 C2637 1.377 . S
C2636 C2638 1.384 . S
C2637 C2636 1.377 . S
C2637 C2643 1.390 . S
C2638 H2629 0.930 . S
C2638 C2636 1.384 . S
C2638 C2639 1.372 . S
C2639 C2638 1.372 . S
C2639 C2640 1.400 . S
C2639 C2644 1.490 . S
C2640 H2630 0.930 . S
C2640 C2639 1.400 . S
C2640 C2643 1.386 . S
H2641 C2657 0.930 . S
H2642 C2658 0.931 . S
C2643 H2631 0.929 . S
C2643 C2637 1.390 . S
C2643 C2640 1.386 . S
C2644 C2639 1.490 . S
C2644 C2646 1.395 . S
C2644 C2647 1.403 . S
H2645 C2651 0.930 . S
C2646 H2632 0.930 . S
C2646 C2644 1.395 . S
C2646 C2649 1.403 . S
C2647 C2644 1.403 . S
C2647 C2648 1.524 . S
C2647 C2651 1.400 . S
C2648 H2633 0.960 . S
C2648 H2634 0.960 . S
C2648 H2635 0.960 . S
C2648 C2647 1.524 . S
C2649 C2646 1.403 . S
C2649 C2650 1.392 . S
C2649 C2653 1.495 . S
C2650 C2649 1.392 . S
C2650 C2651 1.385 . S
C2650 C2652 1.478 . S
C2651 H2645 0.930 . S
C2651 C2647 1.400 . S
C2651 C2650 1.385 . S
C2652 C2650 1.478 . S
C2652 C2654 1.381 . S
C2652 C2658 1.383 . S
C2653 C2649 1.495 . S
C2653 H2659 0.959 . S
C2653 H2660 0.961 . S
C2653 H2661 0.960 . S
C2654 C2652 1.381 . S
C2654 C2655 1.394 . S
C2654 H2662 0.930 . S
C2655 C2654 1.394 . S
C2655 C2656 1.383 . S
C2655 H2663 0.929 . S
C2656 C2655 1.383 . S
C2656 C2657 1.377 . S
C2657 H2641 0.930 . S
C2657 C2656 1.377 . S
C2657 C2658 1.379 . S
C2658 H2642 0.931 . S
C2658 C2652 1.383 . S
C2658 C2657 1.379 . S
H2659 C2653 0.959 . S
H2660 C2653 0.961 . S
H2661 C2653 0.960 . S
H2662 C2654 0.930 . S
H2663 C2655 0.929 . S
H2664 C2672 0.929 . S
H2665 C2674 0.930 . S
H2666 C2676 0.930 . S
H2667 C2679 0.929 . S
H2668 C2682 0.930 . S
H2669 C2684 0.960 . S
H2670 C2684 0.960 . S
H2671 C2684 0.960 . S
C2672 H2664 0.929 . S
C2672 C2673 1.377 . S
C2672 C2674 1.384 . S
C2673 C2672 1.377 . S
C2673 C2679 1.390 . S
C2674 H2665 0.930 . S
C2674 C2672 1.384 . S
C2674 C2675 1.372 . S
C2675 C2674 1.372 . S
C2675 C2676 1.400 . S
C2675 C2680 1.490 . S
C2676 H2666 0.930 . S
C2676 C2675 1.400 . S
C2676 C2679 1.386 . S
H2677 C2693 0.930 . S
H2678 C2694 0.931 . S
C2679 H2667 0.929 . S
C2679 C2673 1.390 . S
C2679 C2676 1.386 . S
C2680 C2675 1.490 . S
C2680 C2682 1.395 . S
C2680 C2683 1.403 . S
H2681 C2687 0.930 . S
C2682 H2668 0.930 . S
C2682 C2680 1.395 . S
C2682 C2685 1.403 . S
C2683 C2680 1.403 . S
C2683 C2684 1.524 . S
C2683 C2687 1.400 . S
C2684 H2669 0.960 . S
C2684 H2670 0.960 . S
C2684 H2671 0.960 . S
C2684 C2683 1.524 . S
C2685 C2682 1.403 . S
C2685 C2686 1.392 . S
C2685 C2689 1.495 . S
C2686 C2685 1.392 . S
C2686 C2687 1.385 . S
C2686 C2688 1.478 . S
C2687 H2681 0.930 . S
C2687 C2683 1.400 . S
C2687 C2686 1.385 . S
C2688 C2686 1.478 . S
C2688 C2690 1.381 . S
C2688 C2694 1.383 . S
C2689 C2685 1.495 . S
C2689 H2695 0.959 . S
C2689 H2696 0.961 . S
C2689 H2697 0.960 . S
C2690 C2688 1.381 . S
C2690 C2691 1.394 . S
C2690 H2698 0.930 . S
C2691 C2690 1.394 . S
C2691 C2692 1.383 . S
C2691 H2699 0.929 . S
C2692 C2691 1.383 . S
C2692 C2693 1.377 . S
C2693 H2677 0.930 . S
C2693 C2692 1.377 . S
C2693 C2694 1.379 . S
C2694 H2678 0.931 . S
C2694 C2688 1.383 . S
C2694 C2693 1.379 . S
H2695 C2689 0.959 . S
H2696 C2689 0.961 . S
H2697 C2689 0.960 . S
H2698 C2690 0.930 . S
H2699 C2691 0.929 . S
H2700 C2708 0.929 . S
H2701 C2710 0.930 . S
H2702 C2712 0.930 . S
H2703 C2715 0.929 . S
H2704 C2718 0.930 . S
H2705 C2720 0.960 . S
H2706 C2720 0.960 . S
H2707 C2720 0.960 . S
C2708 H2700 0.929 . S
C2708 C2709 1.377 . S
C2708 C2710 1.384 . S
C2709 C2708 1.377 . S
C2709 C2715 1.390 . S
C2710 H2701 0.930 . S
C2710 C2708 1.384 . S
C2710 C2711 1.372 . S
C2711 C2710 1.372 . S
C2711 C2712 1.400 . S
C2711 C2716 1.490 . S
C2712 H2702 0.930 . S
C2712 C2711 1.400 . S
C2712 C2715 1.386 . S
H2713 C2729 0.930 . S
H2714 C2730 0.931 . S
C2715 H2703 0.929 . S
C2715 C2709 1.390 . S
C2715 C2712 1.386 . S
C2716 C2711 1.490 . S
C2716 C2718 1.395 . S
C2716 C2719 1.403 . S
H2717 C2723 0.930 . S
C2718 H2704 0.930 . S
C2718 C2716 1.395 . S
C2718 C2721 1.403 . S
C2719 C2716 1.403 . S
C2719 C2720 1.524 . S
C2719 C2723 1.400 . S
C2720 H2705 0.960 . S
C2720 H2706 0.960 . S
C2720 H2707 0.960 . S
C2720 C2719 1.524 . S
C2721 C2718 1.403 . S
C2721 C2722 1.392 . S
C2721 C2725 1.495 . S
C2722 C2721 1.392 . S
C2722 C2723 1.385 . S
C2722 C2724 1.478 . S
C2723 H2717 0.930 . S
C2723 C2719 1.400 . S
C2723 C2722 1.385 . S
C2724 C2722 1.478 . S
C2724 C2726 1.381 . S
C2724 C2730 1.383 . S
C2725 C2721 1.495 . S
C2725 H2731 0.959 . S
C2725 H2732 0.961 . S
C2725 H2733 0.960 . S
C2726 C2724 1.381 . S
C2726 C2727 1.394 . S
C2726 H2734 0.930 . S
C2727 C2726 1.394 . S
C2727 C2728 1.383 . S
C2727 H2735 0.929 . S
C2728 C2727 1.383 . S
C2728 C2729 1.377 . S
C2729 H2713 0.930 . S
C2729 C2728 1.377 . S
C2729 C2730 1.379 . S
C2730 H2714 0.931 . S
C2730 C2724 1.383 . S
C2730 C2729 1.379 . S
H2731 C2725 0.959 . S
H2732 C2725 0.961 . S
H2733 C2725 0.960 . S
H2734 C2726 0.930 . S
H2735 C2727 0.929 . S
H2736 C2744 0.929 . S
H2737 C2746 0.930 . S
H2738 C2748 0.930 . S
H2739 C2751 0.929 . S
H2740 C2754 0.930 . S
H2741 C2756 0.960 . S
H2742 C2756 0.960 . S
H2743 C2756 0.960 . S
C2744 H2736 0.929 . S
C2744 C2745 1.377 . S
C2744 C2746 1.384 . S
C2745 C2744 1.377 . S
C2745 C2751 1.390 . S
C2746 H2737 0.930 . S
C2746 C2744 1.384 . S
C2746 C2747 1.372 . S
C2747 C2746 1.372 . S
C2747 C2748 1.400 . S
C2747 C2752 1.490 . S
C2748 H2738 0.930 . S
C2748 C2747 1.400 . S
C2748 C2751 1.386 . S
H2749 C2765 0.930 . S
H2750 C2766 0.931 . S
C2751 H2739 0.929 . S
C2751 C2745 1.390 . S
C2751 C2748 1.386 . S
C2752 C2747 1.490 . S
C2752 C2754 1.395 . S
C2752 C2755 1.403 . S
H2753 C2759 0.930 . S
C2754 H2740 0.930 . S
C2754 C2752 1.395 . S
C2754 C2757 1.403 . S
C2755 C2752 1.403 . S
C2755 C2756 1.524 . S
C2755 C2759 1.400 . S
C2756 H2741 0.960 . S
C2756 H2742 0.960 . S
C2756 H2743 0.960 . S
C2756 C2755 1.524 . S
C2757 C2754 1.403 . S
C2757 C2758 1.392 . S
C2757 C2761 1.495 . S
C2758 C2757 1.392 . S
C2758 C2759 1.385 . S
C2758 C2760 1.478 . S
C2759 H2753 0.930 . S
C2759 C2755 1.400 . S
C2759 C2758 1.385 . S
C2760 C2758 1.478 . S
C2760 C2762 1.381 . S
C2760 C2766 1.383 . S
C2761 C2757 1.495 . S
C2761 H2767 0.959 . S
C2761 H2768 0.961 . S
C2761 H2769 0.960 . S
C2762 C2760 1.381 . S
C2762 C2763 1.394 . S
C2762 H2770 0.930 . S
C2763 C2762 1.394 . S
C2763 C2764 1.383 . S
C2763 H2771 0.929 . S
C2764 C2763 1.383 . S
C2764 C2765 1.377 . S
C2765 H2749 0.930 . S
C2765 C2764 1.377 . S
C2765 C2766 1.379 . S
C2766 H2750 0.931 . S
C2766 C2760 1.383 . S
C2766 C2765 1.379 . S
H2767 C2761 0.959 . S
H2768 C2761 0.961 . S
H2769 C2761 0.960 . S
H2770 C2762 0.930 . S
H2771 C2763 0.929 . S
H2772 C2780 0.929 . S
H2773 C2782 0.930 . S
H2774 C2784 0.930 . S
H2775 C2787 0.929 . S
H2776 C2790 0.930 . S
H2777 C2792 0.960 . S
H2778 C2792 0.960 . S
H2779 C2792 0.960 . S
C2780 H2772 0.929 . S
C2780 C2781 1.377 . S
C2780 C2782 1.384 . S
C2781 C2780 1.377 . S
C2781 C2787 1.390 . S
C2782 H2773 0.930 . S
C2782 C2780 1.384 . S
C2782 C2783 1.372 . S
C2783 C2782 1.372 . S
C2783 C2784 1.400 . S
C2783 C2788 1.490 . S
C2784 H2774 0.930 . S
C2784 C2783 1.400 . S
C2784 C2787 1.386 . S
H2785 C2801 0.930 . S
H2786 C2802 0.931 . S
C2787 H2775 0.929 . S
C2787 C2781 1.390 . S
C2787 C2784 1.386 . S
C2788 C2783 1.490 . S
C2788 C2790 1.395 . S
C2788 C2791 1.403 . S
H2789 C2795 0.930 . S
C2790 H2776 0.930 . S
C2790 C2788 1.395 . S
C2790 C2793 1.403 . S
C2791 C2788 1.403 . S
C2791 C2792 1.524 . S
C2791 C2795 1.400 . S
C2792 H2777 0.960 . S
C2792 H2778 0.960 . S
C2792 H2779 0.960 . S
C2792 C2791 1.524 . S
C2793 C2790 1.403 . S
C2793 C2794 1.392 . S
C2793 C2797 1.495 . S
C2794 C2793 1.392 . S
C2794 C2795 1.385 . S
C2794 C2796 1.478 . S
C2795 H2789 0.930 . S
C2795 C2791 1.400 . S
C2795 C2794 1.385 . S
C2796 C2794 1.478 . S
C2796 C2798 1.381 . S
C2796 C2802 1.383 . S
C2797 C2793 1.495 . S
C2797 H2803 0.959 . S
C2797 H2804 0.961 . S
C2797 H2805 0.960 . S
C2798 C2796 1.381 . S
C2798 C2799 1.394 . S
C2798 H2806 0.930 . S
C2799 C2798 1.394 . S
C2799 C2800 1.383 . S
C2799 H2807 0.929 . S
C2800 C2799 1.383 . S
C2800 C2801 1.377 . S
C2801 H2785 0.930 . S
C2801 C2800 1.377 . S
C2801 C2802 1.379 . S
C2802 H2786 0.931 . S
C2802 C2796 1.383 . S
C2802 C2801 1.379 . S
H2803 C2797 0.959 . S
H2804 C2797 0.961 . S
H2805 C2797 0.960 . S
H2806 C2798 0.930 . S
H2807 C2799 0.929 . S
H2808 C2816 0.929 . S
H2809 C2818 0.930 . S
H2810 C2820 0.930 . S
H2811 C2823 0.929 . S
H2812 C2826 0.930 . S
H2813 C2828 0.960 . S
H2814 C2828 0.960 . S
H2815 C2828 0.960 . S
C2816 H2808 0.929 . S
C2816 C2817 1.377 . S
C2816 C2818 1.384 . S
C2817 C2816 1.377 . S
C2817 C2823 1.390 . S
C2818 H2809 0.930 . S
C2818 C2816 1.384 . S
C2818 C2819 1.372 . S
C2819 C2818 1.372 . S
C2819 C2820 1.400 . S
C2819 C2824 1.490 . S
C2820 H2810 0.930 . S
C2820 C2819 1.400 . S
C2820 C2823 1.386 . S
H2821 C2837 0.930 . S
H2822 C2838 0.931 . S
C2823 H2811 0.929 . S
C2823 C2817 1.390 . S
C2823 C2820 1.386 . S
C2824 C2819 1.490 . S
C2824 C2826 1.395 . S
C2824 C2827 1.403 . S
H2825 C2831 0.930 . S
C2826 H2812 0.930 . S
C2826 C2824 1.395 . S
C2826 C2829 1.403 . S
C2827 C2824 1.403 . S
C2827 C2828 1.524 . S
C2827 C2831 1.400 . S
C2828 H2813 0.960 . S
C2828 H2814 0.960 . S
C2828 H2815 0.960 . S
C2828 C2827 1.524 . S
C2829 C2826 1.403 . S
C2829 C2830 1.392 . S
C2829 C2833 1.495 . S
C2830 C2829 1.392 . S
C2830 C2831 1.385 . S
C2830 C2832 1.478 . S
C2831 H2825 0.930 . S
C2831 C2827 1.400 . S
C2831 C2830 1.385 . S
C2832 C2830 1.478 . S
C2832 C2834 1.381 . S
C2832 C2838 1.383 . S
C2833 C2829 1.495 . S
C2833 H2839 0.959 . S
C2833 H2840 0.961 . S
C2833 H2841 0.960 . S
C2834 C2832 1.381 . S
C2834 C2835 1.394 . S
C2834 H2842 0.930 . S
C2835 C2834 1.394 . S
C2835 C2836 1.383 . S
C2835 H2843 0.929 . S
C2836 C2835 1.383 . S
C2836 C2837 1.377 . S
C2837 H2821 0.930 . S
C2837 C2836 1.377 . S
C2837 C2838 1.379 . S
C2838 H2822 0.931 . S
C2838 C2832 1.383 . S
C2838 C2837 1.379 . S
H2839 C2833 0.959 . S
H2840 C2833 0.961 . S
H2841 C2833 0.960 . S
H2842 C2834 0.930 . S
H2843 C2835 0.929 . S
H2844 C2852 0.929 . S
H2845 C2854 0.930 . S
H2846 C2856 0.930 . S
H2847 C2859 0.929 . S
H2848 C2862 0.930 . S
H2849 C2864 0.960 . S
H2850 C2864 0.960 . S
H2851 C2864 0.960 . S
C2852 H2844 0.929 . S
C2852 C2853 1.377 . S
C2852 C2854 1.384 . S
C2853 C2852 1.377 . S
C2853 C2859 1.390 . S
C2854 H2845 0.930 . S
C2854 C2852 1.384 . S
C2854 C2855 1.372 . S
C2855 C2854 1.372 . S
C2855 C2856 1.400 . S
C2855 C2860 1.490 . S
C2856 H2846 0.930 . S
C2856 C2855 1.400 . S
C2856 C2859 1.386 . S
H2857 C2873 0.930 . S
H2858 C2874 0.931 . S
C2859 H2847 0.929 . S
C2859 C2853 1.390 . S
C2859 C2856 1.386 . S
C2860 C2855 1.490 . S
C2860 C2862 1.395 . S
C2860 C2863 1.403 . S
H2861 C2867 0.930 . S
C2862 H2848 0.930 . S
C2862 C2860 1.395 . S
C2862 C2865 1.403 . S
C2863 C2860 1.403 . S
C2863 C2864 1.524 . S
C2863 C2867 1.400 . S
C2864 H2849 0.960 . S
C2864 H2850 0.960 . S
C2864 H2851 0.960 . S
C2864 C2863 1.524 . S
C2865 C2862 1.403 . S
C2865 C2866 1.392 . S
C2865 C2869 1.495 . S
C2866 C2865 1.392 . S
C2866 C2867 1.385 . S
C2866 C2868 1.478 . S
C2867 H2861 0.930 . S
C2867 C2863 1.400 . S
C2867 C2866 1.385 . S
C2868 C2866 1.478 . S
C2868 C2870 1.381 . S
C2868 C2874 1.383 . S
C2869 C2865 1.495 . S
C2869 H2875 0.959 . S
C2869 H2876 0.961 . S
C2869 H2877 0.960 . S
C2870 C2868 1.381 . S
C2870 C2871 1.394 . S
C2870 H2878 0.930 . S
C2871 C2870 1.394 . S
C2871 C2872 1.383 . S
C2871 H2879 0.929 . S
C2872 C2871 1.383 . S
C2872 C2873 1.377 . S
C2873 H2857 0.930 . S
C2873 C2872 1.377 . S
C2873 C2874 1.379 . S
C2874 H2858 0.931 . S
C2874 C2868 1.383 . S
C2874 C2873 1.379 . S
H2875 C2869 0.959 . S
H2876 C2869 0.961 . S
H2877 C2869 0.960 . S
H2878 C2870 0.930 . S
H2879 C2871 0.929 . S
H2880 C2888 0.929 . S
H2881 C2890 0.930 . S
H2882 C2892 0.930 . S
H2883 C2895 0.929 . S
H2884 C2898 0.930 . S
H2885 C2900 0.960 . S
H2886 C2900 0.960 . S
H2887 C2900 0.960 . S
C2888 H2880 0.929 . S
C2888 C2889 1.377 . S
C2888 C2890 1.384 . S
C2889 C2888 1.377 . S
C2889 C2895 1.390 . S
C2890 H2881 0.930 . S
C2890 C2888 1.384 . S
C2890 C2891 1.372 . S
C2891 C2890 1.372 . S
C2891 C2892 1.400 . S
C2891 C2896 1.490 . S
C2892 H2882 0.930 . S
C2892 C2891 1.400 . S
C2892 C2895 1.386 . S
H2893 C2909 0.930 . S
H2894 C2910 0.931 . S
C2895 H2883 0.929 . S
C2895 C2889 1.390 . S
C2895 C2892 1.386 . S
C2896 C2891 1.490 . S
C2896 C2898 1.395 . S
C2896 C2899 1.403 . S
H2897 C2903 0.930 . S
C2898 H2884 0.930 . S
C2898 C2896 1.395 . S
C2898 C2901 1.403 . S
C2899 C2896 1.403 . S
C2899 C2900 1.524 . S
C2899 C2903 1.400 . S
C2900 H2885 0.960 . S
C2900 H2886 0.960 . S
C2900 H2887 0.960 . S
C2900 C2899 1.524 . S
C2901 C2898 1.403 . S
C2901 C2902 1.392 . S
C2901 C2905 1.495 . S
C2902 C2901 1.392 . S
C2902 C2903 1.385 . S
C2902 C2904 1.478 . S
C2903 H2897 0.930 . S
C2903 C2899 1.400 . S
C2903 C2902 1.385 . S
C2904 C2902 1.478 . S
C2904 C2906 1.381 . S
C2904 C2910 1.383 . S
C2905 C2901 1.495 . S
C2905 H2911 0.959 . S
C2905 H2912 0.961 . S
C2905 H2913 0.960 . S
C2906 C2904 1.381 . S
C2906 C2907 1.394 . S
C2906 H2914 0.930 . S
C2907 C2906 1.394 . S
C2907 C2908 1.383 . S
C2907 H2915 0.929 . S
C2908 C2907 1.383 . S
C2908 C2909 1.377 . S
C2909 H2893 0.930 . S
C2909 C2908 1.377 . S
C2909 C2910 1.379 . S
C2910 H2894 0.931 . S
C2910 C2904 1.383 . S
C2910 C2909 1.379 . S
H2911 C2905 0.959 . S
H2912 C2905 0.961 . S
H2913 C2905 0.960 . S
H2914 C2906 0.930 . S
H2915 C2907 0.929 . S
H2916 C2924 0.929 . S
H2917 C2926 0.930 . S
H2918 C2928 0.930 . S
H2919 C2931 0.929 . S
H2920 C2934 0.930 . S
H2921 C2936 0.960 . S
H2922 C2936 0.960 . S
H2923 C2936 0.960 . S
C2924 H2916 0.929 . S
C2924 C2925 1.377 . S
C2924 C2926 1.384 . S
C2925 C2924 1.377 . S
C2925 C2931 1.390 . S
C2926 H2917 0.930 . S
C2926 C2924 1.384 . S
C2926 C2927 1.372 . S
C2927 C2926 1.372 . S
C2927 C2928 1.400 . S
C2927 C2932 1.490 . S
C2928 H2918 0.930 . S
C2928 C2927 1.400 . S
C2928 C2931 1.386 . S
H2929 C2945 0.930 . S
H2930 C2946 0.931 . S
C2931 H2919 0.929 . S
C2931 C2925 1.390 . S
C2931 C2928 1.386 . S
C2932 C2927 1.490 . S
C2932 C2934 1.395 . S
C2932 C2935 1.403 . S
H2933 C2939 0.930 . S
C2934 H2920 0.930 . S
C2934 C2932 1.395 . S
C2934 C2937 1.403 . S
C2935 C2932 1.403 . S
C2935 C2936 1.524 . S
C2935 C2939 1.400 . S
C2936 H2921 0.960 . S
C2936 H2922 0.960 . S
C2936 H2923 0.960 . S
C2936 C2935 1.524 . S
C2937 C2934 1.403 . S
C2937 C2938 1.392 . S
C2937 C2941 1.495 . S
C2938 C2937 1.392 . S
C2938 C2939 1.385 . S
C2938 C2940 1.478 . S
C2939 H2933 0.930 . S
C2939 C2935 1.400 . S
C2939 C2938 1.385 . S
C2940 C2938 1.478 . S
C2940 C2942 1.381 . S
C2940 C2946 1.383 . S
C2941 C2937 1.495 . S
C2941 H2947 0.959 . S
C2941 H2948 0.961 . S
C2941 H2949 0.960 . S
C2942 C2940 1.381 . S
C2942 C2943 1.394 . S
C2942 H2950 0.930 . S
C2943 C2942 1.394 . S
C2943 C2944 1.383 . S
C2943 H2951 0.929 . S
C2944 C2943 1.383 . S
C2944 C2945 1.377 . S
C2945 H2929 0.930 . S
C2945 C2944 1.377 . S
C2945 C2946 1.379 . S
C2946 H2930 0.931 . S
C2946 C2940 1.383 . S
C2946 C2945 1.379 . S
H2947 C2941 0.959 . S
H2948 C2941 0.961 . S
H2949 C2941 0.960 . S
H2950 C2942 0.930 . S
H2951 C2943 0.929 . S
H2952 C2960 0.929 . S
H2953 C2962 0.930 . S
H2954 C2964 0.930 . S
H2955 C2967 0.917 1_545 S
H2956 C2970 0.930 . S
H2957 C2972 0.960 . S
H2958 C2972 0.960 . S
H2959 C2972 0.960 . S
C2960 H2952 0.929 . S
C2960 C2961 1.377 . S
C2960 C2962 1.384 . S
C2961 C2960 1.377 . S
C2961 C2967 1.390 . S
C2962 H2953 0.930 . S
C2962 C2960 1.384 . S
C2962 C2963 1.372 . S
C2963 C2962 1.372 . S
C2963 C2964 1.400 . S
C2963 C2968 1.490 . S
C2964 H2954 0.930 . S
C2964 C2963 1.400 . S
C2964 C2967 1.386 . S
H2965 C2981 0.930 . S
H2966 C2982 0.931 . S
C2967 H2955 0.917 1_565 S
C2967 C2961 1.390 . S
C2967 C2964 1.386 . S
C2968 C2963 1.490 . S
C2968 C2970 1.395 . S
C2968 C2971 1.403 . S
H2969 C2975 0.930 . S
C2970 H2956 0.930 . S
C2970 C2968 1.395 . S
C2970 C2973 1.403 . S
C2971 C2968 1.403 . S
C2971 C2972 1.524 . S
C2971 C2975 1.400 . S
C2972 H2957 0.960 . S
C2972 H2958 0.960 . S
C2972 H2959 0.960 . S
C2972 C2971 1.524 . S
C2973 C2970 1.403 . S
C2973 C2974 1.392 . S
C2973 C2977 1.495 . S
C2974 C2973 1.392 . S
C2974 C2975 1.385 . S
C2974 C2976 1.478 . S
C2975 H2969 0.930 . S
C2975 C2971 1.400 . S
C2975 C2974 1.385 . S
C2976 C2974 1.478 . S
C2976 C2978 1.381 . S
C2976 C2982 1.383 . S
C2977 C2973 1.495 . S
C2977 H2983 0.959 . S
C2977 H2984 0.961 . S
C2977 H2985 0.960 . S
C2978 C2976 1.381 . S
C2978 C2979 1.394 . S
C2978 H2986 0.930 . S
C2979 C2978 1.394 . S
C2979 C2980 1.383 . S
C2979 H2987 0.929 . S
C2980 C2979 1.383 . S
C2980 C2981 1.377 . S
C2981 H2965 0.930 . S
C2981 C2980 1.377 . S
C2981 C2982 1.379 . S
C2982 H2966 0.931 . S
C2982 C2976 1.383 . S
C2982 C2981 1.379 . S
H2983 C2977 0.959 . S
H2984 C2977 0.961 . S
H2985 C2977 0.960 . S
H2986 C2978 0.930 . S
H2987 C2979 0.929 . S
H2988 C2996 0.929 . S
H2989 C2998 0.930 . S
H2990 C3000 0.930 . S
H2991 C3003 0.929 . S
H2992 C3006 0.930 . S
H2993 C3008 0.960 . S
H2994 C3008 0.960 . S
H2995 C3008 0.960 . S
C2996 H2988 0.929 . S
C2996 C2997 1.377 . S
C2996 C2998 1.384 . S
C2997 C2996 1.377 . S
C2997 C3003 1.390 . S
C2998 H2989 0.930 . S
C2998 C2996 1.384 . S
C2998 C2999 1.372 . S
C2999 C2998 1.372 . S
C2999 C3000 1.400 . S
C2999 C3004 1.490 . S
C3000 H2990 0.930 . S
C3000 C2999 1.400 . S
C3000 C3003 1.386 . S
H3001 C3017 0.930 . S
H3002 C3018 0.931 . S
C3003 H2991 0.929 . S
C3003 C2997 1.390 . S
C3003 C3000 1.386 . S
C3004 C2999 1.490 . S
C3004 C3006 1.395 . S
C3004 C3007 1.403 . S
H3005 C3011 0.930 . S
C3006 H2992 0.930 . S
C3006 C3004 1.395 . S
C3006 C3009 1.403 . S
C3007 C3004 1.403 . S
C3007 C3008 1.524 . S
C3007 C3011 1.400 . S
C3008 H2993 0.960 . S
C3008 H2994 0.960 . S
C3008 H2995 0.960 . S
C3008 C3007 1.524 . S
C3009 C3006 1.403 . S
C3009 C3010 1.392 . S
C3009 C3013 1.495 . S
C3010 C3009 1.392 . S
C3010 C3011 1.385 . S
C3010 C3012 1.478 . S
C3011 H3005 0.930 . S
C3011 C3007 1.400 . S
C3011 C3010 1.385 . S
C3012 C3010 1.478 . S
C3012 C3014 1.381 . S
C3012 C3018 1.383 . S
C3013 C3009 1.495 . S
C3013 H3019 0.959 . S
C3013 H3020 0.961 . S
C3013 H3021 0.960 . S
C3014 C3012 1.381 . S
C3014 C3015 1.394 . S
C3014 H3022 0.930 . S
C3015 C3014 1.394 . S
C3015 C3016 1.383 . S
C3015 H3023 0.929 . S
C3016 C3015 1.383 . S
C3016 C3017 1.377 . S
C3017 H3001 0.930 . S
C3017 C3016 1.377 . S
C3017 C3018 1.379 . S
C3018 H3002 0.931 . S
C3018 C3012 1.383 . S
C3018 C3017 1.379 . S
H3019 C3013 0.959 . S
H3020 C3013 0.961 . S
H3021 C3013 0.960 . S
H3022 C3014 0.930 . S
H3023 C3015 0.929 . S
H3024 C3032 0.929 . S
H3025 C3034 0.930 . S
H3026 C3036 0.930 . S
H3027 C3039 0.929 . S
H3028 C3042 0.930 . S
H3029 C3044 0.960 . S
H3030 C3044 0.960 . S
H3031 C3044 0.960 . S
C3032 H3024 0.929 . S
C3032 C3033 1.377 . S
C3032 C3034 1.384 . S
C3033 C3032 1.377 . S
C3033 C3039 1.390 . S
C3034 H3025 0.930 . S
C3034 C3032 1.384 . S
C3034 C3035 1.372 . S
C3035 C3034 1.372 . S
C3035 C3036 1.400 . S
C3035 C3040 1.490 . S
C3036 H3026 0.930 . S
C3036 C3035 1.400 . S
C3036 C3039 1.386 . S
H3037 C3053 0.930 . S
H3038 C3054 0.931 . S
C3039 H3027 0.929 . S
C3039 C3033 1.390 . S
C3039 C3036 1.386 . S
C3040 C3035 1.490 . S
C3040 C3042 1.395 . S
C3040 C3043 1.403 . S
H3041 C3047 0.930 . S
C3042 H3028 0.930 . S
C3042 C3040 1.395 . S
C3042 C3045 1.403 . S
C3043 C3040 1.403 . S
C3043 C3044 1.524 . S
C3043 C3047 1.400 . S
C3044 H3029 0.960 . S
C3044 H3030 0.960 . S
C3044 H3031 0.960 . S
C3044 C3043 1.524 . S
C3045 C3042 1.403 . S
C3045 C3046 1.392 . S
C3045 C3049 1.495 . S
C3046 C3045 1.392 . S
C3046 C3047 1.385 . S
C3046 C3048 1.478 . S
C3047 H3041 0.930 . S
C3047 C3043 1.400 . S
C3047 C3046 1.385 . S
C3048 C3046 1.478 . S
C3048 C3050 1.381 . S
C3048 C3054 1.383 . S
C3049 C3045 1.495 . S
C3049 H3055 0.959 . S
C3049 H3056 0.961 . S
C3049 H3057 0.960 . S
C3050 C3048 1.381 . S
C3050 C3051 1.394 . S
C3050 H3058 0.930 . S
C3051 C3050 1.394 . S
C3051 C3052 1.383 . S
C3051 H3059 0.929 . S
C3052 C3051 1.383 . S
C3052 C3053 1.377 . S
C3053 H3037 0.930 . S
C3053 C3052 1.377 . S
C3053 C3054 1.379 . S
C3054 H3038 0.931 . S
C3054 C3048 1.383 . S
C3054 C3053 1.379 . S
H3055 C3049 0.959 . S
H3056 C3049 0.961 . S
H3057 C3049 0.960 . S
H3058 C3050 0.930 . S
H3059 C3051 0.929 . S
H3060 C3068 0.929 . S
H3061 C3070 0.930 . S
H3062 C3072 0.930 . S
H3063 C3075 0.929 . S
H3064 C3078 0.930 . S
H3065 C3080 0.960 . S
H3066 C3080 0.960 . S
H3067 C3080 0.960 . S
C3068 H3060 0.929 . S
C3068 C3069 1.377 . S
C3068 C3070 1.384 . S
C3069 C3068 1.377 . S
C3069 C3075 1.390 . S
C3070 H3061 0.930 . S
C3070 C3068 1.384 . S
C3070 C3071 1.372 . S
C3071 C3070 1.372 . S
C3071 C3072 1.400 . S
C3071 C3076 1.490 . S
C3072 H3062 0.930 . S
C3072 C3071 1.400 . S
C3072 C3075 1.386 . S
H3073 C3089 0.930 . S
H3074 C3090 0.931 . S
C3075 H3063 0.929 . S
C3075 C3069 1.390 . S
C3075 C3072 1.386 . S
C3076 C3071 1.490 . S
C3076 C3078 1.395 . S
C3076 C3079 1.403 . S
H3077 C3083 0.930 . S
C3078 H3064 0.930 . S
C3078 C3076 1.395 . S
C3078 C3081 1.403 . S
C3079 C3076 1.403 . S
C3079 C3080 1.524 . S
C3079 C3083 1.400 . S
C3080 H3065 0.960 . S
C3080 H3066 0.960 . S
C3080 H3067 0.960 . S
C3080 C3079 1.524 . S
C3081 C3078 1.403 . S
C3081 C3082 1.392 . S
C3081 C3085 1.495 . S
C3082 C3081 1.392 . S
C3082 C3083 1.385 . S
C3082 C3084 1.478 . S
C3083 H3077 0.930 . S
C3083 C3079 1.400 . S
C3083 C3082 1.385 . S
C3084 C3082 1.478 . S
C3084 C3086 1.381 . S
C3084 C3090 1.383 . S
C3085 C3081 1.495 . S
C3085 H3091 0.959 . S
C3085 H3092 0.961 . S
C3085 H3093 0.960 . S
C3086 C3084 1.381 . S
C3086 C3087 1.394 . S
C3086 H3094 0.930 . S
C3087 C3086 1.394 . S
C3087 C3088 1.383 . S
C3087 H3095 0.929 . S
C3088 C3087 1.383 . S
C3088 C3089 1.377 . S
C3089 H3073 0.930 . S
C3089 C3088 1.377 . S
C3089 C3090 1.379 . S
C3090 H3074 0.931 . S
C3090 C3084 1.383 . S
C3090 C3089 1.379 . S
H3091 C3085 0.959 . S
H3092 C3085 0.961 . S
H3093 C3085 0.960 . S
H3094 C3086 0.930 . S
H3095 C3087 0.929 . S
C513 C37 1.207 . S
C532 C256 1.114 . S
C549 C9 1.184 . S
C568 C272 1.080 . S
C604 C255 1.118 . S
C585 C19 1.220 . S
C640 C280 1.008 . S
C621 C33 1.207 . S
C657 C5 1.239 . S
C676 C289 1.136 . S
C712 C292 1.088 . S
C693 C23 1.201 . S
C729 C75 1.204 . S
C748 C298 0.988 . S
C784 C314 0.993 . S
C765 C51 1.178 . S
C820 C297 1.068 . S
C801 C65 1.228 . S
C837 C79 1.221 . S
C856 C322 1.012 . S
C892 C331 1.138 . S
C873 C47 1.229 . S
C928 C334 1.110 . S
C909 C61 1.194 . S
C964 C343 1.000 . S
C945 C121 1.200 . S
C1000 C355 1.082 . S
C981 C93 1.187 . S
C1036 C352 1.116 . S
C1017 C103 1.223 . S
C1053 C117 1.208 . S
C1072 C361 0.992 . S
C1108 C360 1.145 . S
C1089 C89 1.241 . S
C1125 C107 1.196 . S
C1144 C377 1.010 . S
C1180 C382 1.082 . S
C1161 C159 1.201 . S
C1216 C398 1.096 . S
C1197 C135 1.173 . S
C1233 C149 1.226 . S
C1252 C381 1.123 . S
C1288 C406 1.019 . S
C1269 C163 1.222 . S
C1324 C415 1.064 . S
C1305 C131 1.232 . S
C1341 C145 1.195 . S
C1360 C418 1.091 . S
C1377 C205 1.201 . S
C1396 C427 1.006 . S
C1432 C439 1.105 . S
C1413 C177 1.187 . S
C1468 C436 1.027 . S
C1449 C187 1.218 . S
C1485 C201 1.209 . S
C1504 C445 1.007 . S
C1540 C444 1.103 . S
C1521 C173 1.238 . S
C1557 C191 1.194 . S
C1576 C461 1.024 . S
C1612 C466 1.002 . S
C1593 C243 1.204 . S
C1648 C482 0.984 . S
C1629 C219 1.179 . S
C1665 C233 1.229 . S
C1684 C465 1.049 . S
C1720 C487 1.126 . S
C1701 C247 1.217 . S
C1756 C486 1.022 . S
C1737 C215 1.233 . S
C1792 C503 1.111 . S
C1773 C229 1.193 . S
C1828 C268 1.515 . S
C1809 C154 1.638 . S
C1845 C137 1.534 . S
C1864 C271 1.480 . S
C1900 C259 1.451 . S
C1881 C151 1.538 . S
C1917 C249 1.591 . S
C1936 C276 1.485 . S
C1953 C210 1.524 . S
C1972 C277 1.456 . S
C2008 C293 1.594 1_565 S
C1989 C224 1.664 . S
C2044 C310 1.410 . S
C2025 C207 1.520 . S
C2080 C313 1.538 . S
C2061 C179 1.615 . S
C2097 C182 1.577 . S
C2116 C301 1.470 . S
C2152 C318 1.513 1_655 S
C2133 C112 1.632 . S
C2169 C84 1.612 . S
C2188 C319 1.484 . S
C2205 C109 1.538 . S
C2224 C335 1.421 . S
C2241 C238 1.642 1_655 S
C2260 C339 1.558 . S
C2277 C221 1.531 . S
C2296 C356 1.424 . S
C2332 C340 1.412 . S
C2313 C235 1.535 . S
C2368 C373 1.469 . S
C2349 C81 1.591 . S
C2404 C364 1.458 . S
C2385 C42 1.524 . S
C2421 C56 1.659 . S
C2440 C376 1.541 . S
C2476 C394 1.410 . S
C2457 C39 1.515 . S
C2512 C397 1.541 . S
C2493 C11 1.615 . S
C2529 C14 1.571 . S
C2548 C385 1.464 . S
C2584 C402 1.507 . S
C2565 C196 1.631 . S
C2620 C403 1.475 . S
C2601 C168 1.610 1_655 S
C2656 C419 1.420 . S
C2637 C193 1.538 . S
C2692 C423 1.516 . S
C2673 C70 1.638 . S
C2728 C440 1.403 . S
C2709 C53 1.529 . S
C2745 C67 1.539 . S
C2764 C424 1.461 . S
C2781 C165 1.595 1_565 S
C2800 C457 1.531 . S
C2817 C126 1.521 . S
C2836 C448 1.429 . S
C2872 C460 1.534 . S
C2853 C140 1.658 . S
C2889 C123 1.514 . S
C2908 C478 1.451 . S
C2925 C95 1.617 . S
C2944 C481 1.548 . S
C2980 C469 1.470 . S
C2961 C98 1.577 1_565 S
C3016 C499 1.527 . S
C2997 C28 1.629 . S
C3052 C490 1.520 . S
C3033 C0 1.612 . S
C3069 C25 1.538 . S
C3088 C502 1.448 . S
