# Generated by pormake.
# Topology gar, (4,6)-cn, num edge types: 1
# Building blocks:
#     Node 0, Type 0, BuildingBlock: GALJAG_clean_sbu_0, # of connection points: 4
#     Node 1, Type 0, BuildingBlock: GALJAG_clean_sbu_0, # of connection points: 4
#     Node 2, Type 0, BuildingBlock: GALJAG_clean_sbu_0, # of connection points: 4
#     Node 3, Type 0, BuildingBlock: GALJAG_clean_sbu_0, # of connection points: 4
#     Node 4, Type 0, BuildingBlock: GALJAG_clean_sbu_0, # of connection points: 4
#     Node 5, Type 0, BuildingBlock: GALJAG_clean_sbu_0, # of connection points: 4
#     Node 6, Type 0, BuildingBlock: GALJAG_clean_sbu_0, # of connection points: 4
#     Node 7, Type 0, BuildingBlock: GALJAG_clean_sbu_0, # of connection points: 4
#     Node 8, Type 0, BuildingBlock: GALJAG_clean_sbu_0, # of connection points: 4
#     Node 9, Type 0, BuildingBlock: GALJAG_clean_sbu_0, # of connection points: 4
#     Node 10, Type 0, BuildingBlock: GALJAG_clean_sbu_0, # of connection points: 4
#     Node 11, Type 0, BuildingBlock: GALJAG_clean_sbu_0, # of connection points: 4
#     Node 12, Type 0, BuildingBlock: GALJAG_clean_sbu_0, # of connection points: 4
#     Node 13, Type 0, BuildingBlock: GALJAG_clean_sbu_0, # of connection points: 4
#     Node 14, Type 0, BuildingBlock: GALJAG_clean_sbu_0, # of connection points: 4
#     Node 15, Type 0, BuildingBlock: GALJAG_clean_sbu_0, # of connection points: 4
#     Node 16, Type 0, BuildingBlock: GALJAG_clean_sbu_0, # of connection points: 4
#     Node 17, Type 0, BuildingBlock: GALJAG_clean_sbu_0, # of connection points: 4
#     Node 18, Type 0, BuildingBlock: GALJAG_clean_sbu_0, # of connection points: 4
#     Node 19, Type 0, BuildingBlock: GALJAG_clean_sbu_0, # of connection points: 4
#     Node 20, Type 0, BuildingBlock: GALJAG_clean_sbu_0, # of connection points: 4
#     Node 21, Type 0, BuildingBlock: GALJAG_clean_sbu_0, # of connection points: 4
#     Node 22, Type 0, BuildingBlock: GALJAG_clean_sbu_0, # of connection points: 4
#     Node 23, Type 0, BuildingBlock: GALJAG_clean_sbu_0, # of connection points: 4
#     Node 24, Type 1, BuildingBlock: PAMTUU_clean_sbu_0, # of connection points: 6
#     Node 25, Type 1, BuildingBlock: PAMTUU_clean_sbu_0, # of connection points: 6
#     Node 26, Type 1, BuildingBlock: PAMTUU_clean_sbu_0, # of connection points: 6
#     Node 27, Type 1, BuildingBlock: PAMTUU_clean_sbu_0, # of connection points: 6
#     Node 28, Type 1, BuildingBlock: PAMTUU_clean_sbu_0, # of connection points: 6
#     Node 29, Type 1, BuildingBlock: PAMTUU_clean_sbu_0, # of connection points: 6
#     Node 30, Type 1, BuildingBlock: PAMTUU_clean_sbu_0, # of connection points: 6
#     Node 31, Type 1, BuildingBlock: PAMTUU_clean_sbu_0, # of connection points: 6
#     Node 32, Type 1, BuildingBlock: PAMTUU_clean_sbu_0, # of connection points: 6
#     Node 33, Type 1, BuildingBlock: PAMTUU_clean_sbu_0, # of connection points: 6
#     Node 34, Type 1, BuildingBlock: PAMTUU_clean_sbu_0, # of connection points: 6
#     Node 35, Type 1, BuildingBlock: PAMTUU_clean_sbu_0, # of connection points: 6
#     Node 36, Type 1, BuildingBlock: PAMTUU_clean_sbu_0, # of connection points: 6
#     Node 37, Type 1, BuildingBlock: PAMTUU_clean_sbu_0, # of connection points: 6
#     Node 38, Type 1, BuildingBlock: PAMTUU_clean_sbu_0, # of connection points: 6
#     Node 39, Type 1, BuildingBlock: PAMTUU_clean_sbu_0, # of connection points: 6
#     Edge 40, Type (0, 1), BuildingBlock: XIVTED_clean_linker_0, # of connection points: 2
#     Edge 41, Type (0, 1), BuildingBlock: XIVTED_clean_linker_0, # of connection points: 2
#     Edge 42, Type (0, 1), BuildingBlock: XIVTED_clean_linker_0, # of connection points: 2
#     Edge 43, Type (0, 1), BuildingBlock: XIVTED_clean_linker_0, # of connection points: 2
#     Edge 44, Type (0, 1), BuildingBlock: XIVTED_clean_linker_0, # of connection points: 2
#     Edge 45, Type (0, 1), BuildingBlock: XIVTED_clean_linker_0, # of connection points: 2
#     Edge 46, Type (0, 1), BuildingBlock: XIVTED_clean_linker_0, # of connection points: 2
#     Edge 47, Type (0, 1), BuildingBlock: XIVTED_clean_linker_0, # of connection points: 2
#     Edge 48, Type (0, 1), BuildingBlock: XIVTED_clean_linker_0, # of connection points: 2
#     Edge 49, Type (0, 1), BuildingBlock: XIVTED_clean_linker_0, # of connection points: 2
#     Edge 50, Type (0, 1), BuildingBlock: XIVTED_clean_linker_0, # of connection points: 2
#     Edge 51, Type (0, 1), BuildingBlock: XIVTED_clean_linker_0, # of connection points: 2
#     Edge 52, Type (0, 1), BuildingBlock: XIVTED_clean_linker_0, # of connection points: 2
#     Edge 53, Type (0, 1), BuildingBlock: XIVTED_clean_linker_0, # of connection points: 2
#     Edge 54, Type (0, 1), BuildingBlock: XIVTED_clean_linker_0, # of connection points: 2
#     Edge 55, Type (0, 1), BuildingBlock: XIVTED_clean_linker_0, # of connection points: 2
#     Edge 56, Type (0, 1), BuildingBlock: XIVTED_clean_linker_0, # of connection points: 2
#     Edge 57, Type (0, 1), BuildingBlock: XIVTED_clean_linker_0, # of connection points: 2
#     Edge 58, Type (0, 1), BuildingBlock: XIVTED_clean_linker_0, # of connection points: 2
#     Edge 59, Type (0, 1), BuildingBlock: XIVTED_clean_linker_0, # of connection points: 2
#     Edge 60, Type (0, 1), BuildingBlock: XIVTED_clean_linker_0, # of connection points: 2
#     Edge 61, Type (0, 1), BuildingBlock: XIVTED_clean_linker_0, # of connection points: 2
#     Edge 62, Type (0, 1), BuildingBlock: XIVTED_clean_linker_0, # of connection points: 2
#     Edge 63, Type (0, 1), BuildingBlock: XIVTED_clean_linker_0, # of connection points: 2
#     Edge 64, Type (0, 1), BuildingBlock: XIVTED_clean_linker_0, # of connection points: 2
#     Edge 65, Type (0, 1), BuildingBlock: XIVTED_clean_linker_0, # of connection points: 2
#     Edge 66, Type (0, 1), BuildingBlock: XIVTED_clean_linker_0, # of connection points: 2
#     Edge 67, Type (0, 1), BuildingBlock: XIVTED_clean_linker_0, # of connection points: 2
#     Edge 68, Type (0, 1), BuildingBlock: XIVTED_clean_linker_0, # of connection points: 2
#     Edge 69, Type (0, 1), BuildingBlock: XIVTED_clean_linker_0, # of connection points: 2
#     Edge 70, Type (0, 1), BuildingBlock: XIVTED_clean_linker_0, # of connection points: 2
#     Edge 71, Type (0, 1), BuildingBlock: XIVTED_clean_linker_0, # of connection points: 2
#     Edge 72, Type (0, 1), BuildingBlock: XIVTED_clean_linker_0, # of connection points: 2
#     Edge 73, Type (0, 1), BuildingBlock: XIVTED_clean_linker_0, # of connection points: 2
#     Edge 74, Type (0, 1), BuildingBlock: XIVTED_clean_linker_0, # of connection points: 2
#     Edge 75, Type (0, 1), BuildingBlock: XIVTED_clean_linker_0, # of connection points: 2
#     Edge 76, Type (0, 1), BuildingBlock: XIVTED_clean_linker_0, # of connection points: 2
#     Edge 77, Type (0, 1), BuildingBlock: XIVTED_clean_linker_0, # of connection points: 2
#     Edge 78, Type (0, 1), BuildingBlock: XIVTED_clean_linker_0, # of connection points: 2
#     Edge 79, Type (0, 1), BuildingBlock: XIVTED_clean_linker_0, # of connection points: 2
#     Edge 80, Type (0, 1), BuildingBlock: XIVTED_clean_linker_0, # of connection points: 2
#     Edge 81, Type (0, 1), BuildingBlock: XIVTED_clean_linker_0, # of connection points: 2
#     Edge 82, Type (0, 1), BuildingBlock: XIVTED_clean_linker_0, # of connection points: 2
#     Edge 83, Type (0, 1), BuildingBlock: XIVTED_clean_linker_0, # of connection points: 2
#     Edge 84, Type (0, 1), BuildingBlock: XIVTED_clean_linker_0, # of connection points: 2
#     Edge 85, Type (0, 1), BuildingBlock: XIVTED_clean_linker_0, # of connection points: 2
#     Edge 86, Type (0, 1), BuildingBlock: XIVTED_clean_linker_0, # of connection points: 2
#     Edge 87, Type (0, 1), BuildingBlock: XIVTED_clean_linker_0, # of connection points: 2
#     Edge 88, Type (0, 1), BuildingBlock: XIVTED_clean_linker_0, # of connection points: 2
#     Edge 89, Type (0, 1), BuildingBlock: XIVTED_clean_linker_0, # of connection points: 2
#     Edge 90, Type (0, 1), BuildingBlock: XIVTED_clean_linker_0, # of connection points: 2
#     Edge 91, Type (0, 1), BuildingBlock: XIVTED_clean_linker_0, # of connection points: 2
#     Edge 92, Type (0, 1), BuildingBlock: XIVTED_clean_linker_0, # of connection points: 2
#     Edge 93, Type (0, 1), BuildingBlock: XIVTED_clean_linker_0, # of connection points: 2
#     Edge 94, Type (0, 1), BuildingBlock: XIVTED_clean_linker_0, # of connection points: 2
#     Edge 95, Type (0, 1), BuildingBlock: XIVTED_clean_linker_0, # of connection points: 2
#     Edge 96, Type (0, 1), BuildingBlock: XIVTED_clean_linker_0, # of connection points: 2
#     Edge 97, Type (0, 1), BuildingBlock: XIVTED_clean_linker_0, # of connection points: 2
#     Edge 98, Type (0, 1), BuildingBlock: XIVTED_clean_linker_0, # of connection points: 2
#     Edge 99, Type (0, 1), BuildingBlock: XIVTED_clean_linker_0, # of connection points: 2
#     Edge 100, Type (0, 1), BuildingBlock: XIVTED_clean_linker_0, # of connection points: 2
#     Edge 101, Type (0, 1), BuildingBlock: XIVTED_clean_linker_0, # of connection points: 2
#     Edge 102, Type (0, 1), BuildingBlock: XIVTED_clean_linker_0, # of connection points: 2
#     Edge 103, Type (0, 1), BuildingBlock: XIVTED_clean_linker_0, # of connection points: 2
#     Edge 104, Type (0, 1), BuildingBlock: XIVTED_clean_linker_0, # of connection points: 2
#     Edge 105, Type (0, 1), BuildingBlock: XIVTED_clean_linker_0, # of connection points: 2
#     Edge 106, Type (0, 1), BuildingBlock: XIVTED_clean_linker_0, # of connection points: 2
#     Edge 107, Type (0, 1), BuildingBlock: XIVTED_clean_linker_0, # of connection points: 2
#     Edge 108, Type (0, 1), BuildingBlock: XIVTED_clean_linker_0, # of connection points: 2
#     Edge 109, Type (0, 1), BuildingBlock: XIVTED_clean_linker_0, # of connection points: 2
#     Edge 110, Type (0, 1), BuildingBlock: XIVTED_clean_linker_0, # of connection points: 2
#     Edge 111, Type (0, 1), BuildingBlock: XIVTED_clean_linker_0, # of connection points: 2
#     Edge 112, Type (0, 1), BuildingBlock: XIVTED_clean_linker_0, # of connection points: 2
#     Edge 113, Type (0, 1), BuildingBlock: XIVTED_clean_linker_0, # of connection points: 2
#     Edge 114, Type (0, 1), BuildingBlock: XIVTED_clean_linker_0, # of connection points: 2
#     Edge 115, Type (0, 1), BuildingBlock: XIVTED_clean_linker_0, # of connection points: 2
#     Edge 116, Type (0, 1), BuildingBlock: XIVTED_clean_linker_0, # of connection points: 2
#     Edge 117, Type (0, 1), BuildingBlock: XIVTED_clean_linker_0, # of connection points: 2
#     Edge 118, Type (0, 1), BuildingBlock: XIVTED_clean_linker_0, # of connection points: 2
#     Edge 119, Type (0, 1), BuildingBlock: XIVTED_clean_linker_0, # of connection points: 2
#     Edge 120, Type (0, 1), BuildingBlock: XIVTED_clean_linker_0, # of connection points: 2
#     Edge 121, Type (0, 1), BuildingBlock: XIVTED_clean_linker_0, # of connection points: 2
#     Edge 122, Type (0, 1), BuildingBlock: XIVTED_clean_linker_0, # of connection points: 2
#     Edge 123, Type (0, 1), BuildingBlock: XIVTED_clean_linker_0, # of connection points: 2
#     Edge 124, Type (0, 1), BuildingBlock: XIVTED_clean_linker_0, # of connection points: 2
#     Edge 125, Type (0, 1), BuildingBlock: XIVTED_clean_linker_0, # of connection points: 2
#     Edge 126, Type (0, 1), BuildingBlock: XIVTED_clean_linker_0, # of connection points: 2
#     Edge 127, Type (0, 1), BuildingBlock: XIVTED_clean_linker_0, # of connection points: 2
#     Edge 128, Type (0, 1), BuildingBlock: XIVTED_clean_linker_0, # of connection points: 2
#     Edge 129, Type (0, 1), BuildingBlock: XIVTED_clean_linker_0, # of connection points: 2
#     Edge 130, Type (0, 1), BuildingBlock: XIVTED_clean_linker_0, # of connection points: 2
#     Edge 131, Type (0, 1), BuildingBlock: XIVTED_clean_linker_0, # of connection points: 2
#     Edge 132, Type (0, 1), BuildingBlock: XIVTED_clean_linker_0, # of connection points: 2
#     Edge 133, Type (0, 1), BuildingBlock: XIVTED_clean_linker_0, # of connection points: 2
#     Edge 134, Type (0, 1), BuildingBlock: XIVTED_clean_linker_0, # of connection points: 2
#     Edge 135, Type (0, 1), BuildingBlock: XIVTED_clean_linker_0, # of connection points: 2
# Relax obj value: 0.189
# Max RMSD: 0.332
# Mean RMSD: 0.179
data_MOF--net-gar--node1-GALJAG_clean_sbu_0--node2-PAMTUU_clean_sbu_0--edge1-XIVTED_clean_linker_0
_symmetry_space_group_name_H-M    P1
_symmetry_Int_Tables_number       1
_symmetry_cell_setting            triclinic
loop_
_symmetry_equiv_pos_as_xyz
'x, y, z'
_cell_length_a     60.150128
_cell_length_b     56.180477
_cell_length_c     59.994034
_cell_angle_alpha  93.29235
_cell_angle_beta   93.722272
_cell_angle_gamma 105.68449
loop_
_atom_site_label
_atom_site_type_symbol
_atom_site_fract_x
_atom_site_fract_y
_atom_site_fract_z
_atom_type_partial_charge
In0 In 0.06566 0.29188 0.39467 0.0
O1 O 0.0893 0.29261 0.36215 0.0
O2 O 0.10709 0.29494 0.39314 0.0
C3 C 0.01979 0.28844 0.37137 0.0
C4 C 0.06254 0.24745 0.41897 0.0
C5 C 0.06979 0.33859 0.42035 0.0
O6 O 0.0235 0.2755 0.38709 0.0
O7 O 0.03905 0.30181 0.36616 0.0
O8 O 0.06323 0.31745 0.42791 0.0
O9 O 0.07545 0.33645 0.40057 0.0
C10 C 0.10905 0.29435 0.3722 0.0
O11 O 0.06658 0.26938 0.42802 0.0
O12 O 0.0597 0.24759 0.39777 0.0
In13 In 0.05412 0.80266 0.66976 0.0
O14 O 0.05253 0.82582 0.6371 0.0
O15 O 0.06159 0.84733 0.66745 0.0
C16 C 0.05123 0.75673 0.64289 0.0
C17 C 0.09985 0.80634 0.69338 0.0
C18 C 1.01036 0.79955 0.6921 0.0
O19 O 0.05472 0.7779 0.63532 0.0
O20 O 0.04798 0.75829 0.66346 0.0
O21 O 0.02999 0.80083 0.70213 0.0
O22 O 1.01256 0.79958 0.67122 0.0
C23 C 0.05772 0.84774 0.64638 0.0
O24 O 0.09641 0.81832 0.67682 0.0
O25 O 0.08045 0.79384 0.69909 0.0
In26 In 0.56445 0.79455 0.89612 0.0
O27 O 0.5872 0.78489 0.86563 0.0
O28 O 0.60646 0.8081 0.892 0.0
C29 C 0.51851 0.79146 0.87308 0.0
C30 C 0.56176 0.75055 0.92115 0.0
C31 C 0.56847 0.84148 0.92134 0.0
O32 O 0.53787 0.80056 0.86526 0.0
O33 O 0.52207 0.78276 0.89159 0.0
O34 O 0.56551 0.8208 0.92983 0.0
O35 O 0.57043 0.8389 0.90051 0.0
C36 C 0.60763 0.79685 0.87333 0.0
O37 O 0.56665 0.77269 0.92984 0.0
O38 O 0.55795 0.75033 0.90007 0.0
In39 In 0.55714 0.30695 0.17114 0.0
O40 O 0.55562 0.28097 0.13705 0.0
O41 O 0.55351 0.26314 0.16661 0.0
C42 C 0.56017 0.3515 0.14709 0.0
C43 C 0.51352 0.30389 0.19327 0.0
C44 C 0.60277 0.30992 0.19438 0.0
O45 O 0.55404 0.32943 0.13815 0.0
O46 O 0.56517 0.35141 0.16796 0.0
O47 O 0.58337 0.30109 0.20225 0.0
O48 O 0.59939 0.31844 0.17573 0.0
C49 C 0.55441 0.26057 0.14561 0.0
O50 O 0.53379 0.31596 0.20131 0.0
O51 O 0.51509 0.2928 0.17464 0.0
In52 In 0.10544 0.82049 0.14293 0.0
O53 O 0.09052 0.79098 0.11349 0.0
O54 O 0.1173 0.78555 0.13557 0.0
C55 C 0.10254 0.86256 0.12345 0.0
C56 C 0.06843 0.80623 0.16712 0.0
C57 C 0.14505 0.83154 0.17027 0.0
O58 O 0.11633 0.8505 0.11749 0.0
O59 O 0.09059 0.85347 0.13886 0.0
O60 O 0.12516 0.82592 0.17737 0.0
O61 O 0.14511 0.83223 0.14925 0.0
C62 C 0.10322 0.77724 0.11867 0.0
O63 O 0.08773 0.82012 0.17536 0.0
O64 O 0.06782 0.79919 0.14665 0.0
In65 In 0.52377 0.78506 0.4399 0.0
O66 O 0.54159 0.77054 0.41162 0.0
O67 O 0.55931 0.80511 0.42879 0.0
C68 C 0.48213 0.77716 0.41667 0.0
C69 C 0.52623 0.74633 0.46429 0.0
C70 C 0.52695 0.83016 0.46079 0.0
O71 O 0.50077 0.7791 0.40748 0.0
O72 O 0.48429 0.77857 0.43786 0.0
O73 O 0.53018 0.81241 0.4714 0.0
O74 O 0.52203 0.82503 0.44004 0.0
C75 C 0.55941 0.78873 0.41359 0.0
O76 O 0.54049 0.7675 0.46774 0.0
O77 O 0.51011 0.74502 0.44938 0.0
In78 In 0.60678 0.32212 0.64108 0.0
O79 O 0.61154 0.29473 0.61272 0.0
O80 O 0.59313 0.28009 0.64006 0.0
C81 C 0.60814 0.36325 0.61867 0.0
C82 C 0.5692 0.31893 0.66424 0.0
C83 C 0.64724 0.32833 0.66598 0.0
O84 O 0.59575 0.34194 0.61156 0.0
O85 O 0.62052 0.3637 0.63651 0.0
O86 O 0.62943 0.33197 0.67397 0.0
O87 O 0.64486 0.32211 0.6452 0.0
C88 C 0.60085 0.27562 0.62173 0.0
O89 O 0.58933 0.32252 0.67364 0.0
O90 O 0.568 0.31704 0.64311 0.0
In91 In 0.02278 0.28496 0.94098 0.0
O92 O 1.00855 0.24561 0.95196 0.0
O93 O 0.04082 0.26717 0.96764 0.0
C94 C 0.02581 0.3297 0.9627 0.0
C95 C 0.0579 0.28886 0.91398 0.0
C96 C 0.98131 0.27574 0.91714 0.0
O97 O 0.03071 0.3123 0.97264 0.0
O98 O 0.01925 0.32437 0.94223 0.0
O99 O 1.00015 0.27794 0.90826 0.0
O100 O 0.98319 0.27772 0.93833 0.0
C101 C 0.02573 0.24646 0.96549 0.0
O102 O 0.04124 0.26962 0.9138 0.0
O103 O 0.0569 0.30627 0.92773 0.0
In104 In 0.45219 0.07908 0.32519 0.0
O105 O 0.4859 0.0884 0.3084 0.0
O106 O 0.45514 0.0889 0.28911 0.0
C107 C 0.48322 0.09181 0.36088 0.0
C108 C 0.41859 0.10176 0.329 0.0
C109 C 0.43081 0.03012 0.31846 0.0
O110 O 0.48172 0.07337 0.3473 0.0
O111 O 0.46877 0.10392 0.35667 0.0
O112 O 0.4361 0.04121 0.33773 0.0
O113 O 0.43651 0.04364 0.3026 0.0
C114 C 0.47666 0.09144 0.28971 0.0
O115 O 0.41741 0.08106 0.33666 0.0
O116 O 0.43713 0.1114 0.32026 0.0
In117 In 0.30646 0.21752 0.52449 0.0
O118 O 0.29238 0.23923 0.55201 0.0
O119 O 0.32598 0.23551 0.55871 0.0
C120 C 0.30978 0.23532 0.48221 0.0
C121 C 0.33955 0.19334 0.52975 0.0
C122 C 0.26372 0.18548 0.52432 0.0
O123 O 0.3147 0.24961 0.5 0.0
O124 O 0.30317 0.21279 0.48587 0.0
O125 O 0.28187 0.1784 0.52346 0.0
O126 O 0.26704 0.20869 0.52469 0.0
C127 C 0.30958 0.24268 0.56619 0.0
O128 O 0.31843 0.18359 0.53224 0.0
O129 O 0.3442 0.21557 0.52454 0.0
In130 In 0.15423 0.02937 0.81442 0.0
O131 O 0.12649 1.00657 0.78791 0.0
O132 O 0.12021 0.03814 0.80456 0.0
C133 C 0.14948 0.02727 0.85867 0.0
C134 C 0.1784 0.99888 0.79953 0.0
C135 C 0.18089 0.07477 0.8075 0.0
O136 O 0.13713 0.0109 0.84436 0.0
O137 O 0.1641 0.04439 0.85065 0.0
O138 O 0.18919 0.05712 0.81202 0.0
O139 O 0.15908 0.06955 0.8064 0.0
C140 C 0.11315 0.0203 0.78981 0.0
O141 O 0.17336 0.01492 0.78779 0.0
O142 O 0.17048 0.99759 0.81855 0.0
In143 In 0.30427 0.9348 1.00175 0.0
O144 O 0.3026 0.89806 0.01711 0.0
O145 O 0.30341 0.92975 0.03875 0.0
C146 C 0.28966 0.91648 0.95923 0.0
C147 C 0.27985 0.96603 0.01414 0.0
C148 C 0.35037 0.95326 1.00224 0.0
O149 O 0.28236 0.90469 0.97577 0.0
O150 O 0.30375 0.93742 0.96426 0.0
O151 O 0.33644 0.96535 0.99633 0.0
O152 O 0.34108 0.93159 0.00737 0.0
C153 C 0.30301 0.90716 0.03696 0.0
O154 O 0.3014 0.97283 0.01273 0.0
O155 O 0.27026 0.94332 0.00871 0.0
In156 In 0.3182 0.37348 0.03181 0.0
O157 O 0.30574 0.34179 0.05616 0.0
O158 O 0.32663 0.3766 0.06998 0.0
C159 C 0.31007 0.34803 0.98988 0.0
C160 C 0.28788 0.40114 0.03558 0.0
C161 C 0.36157 0.40267 0.02743 0.0
O162 O 0.32469 0.34479 0.00469 0.0
O163 O 0.29868 0.36234 0.9968 0.0
O164 O 0.34344 0.40811 0.02055 0.0
O165 O 0.35795 0.38234 0.03648 0.0
C166 C 0.31536 0.35506 0.07379 0.0
O167 O 0.30954 0.41039 0.03632 0.0
O168 O 0.28134 0.37771 0.03304 0.0
In169 In 0.82489 0.15606 0.07449 0.0
O170 O 0.83607 0.12058 0.07142 0.0
O171 O 0.85593 0.1519 0.05647 0.0
C172 C 0.7796 0.13555 0.07778 0.0
C173 C 0.84236 0.17739 0.11555 0.0
C174 C 0.81707 0.18148 0.03969 0.0
O175 O 0.79333 0.12276 0.07349 0.0
O176 O 0.78892 0.15855 0.08127 0.0
O177 O 0.82728 0.19225 0.05809 0.0
O178 O 0.81156 0.15812 0.03877 0.0
C179 C 0.85261 0.1293 0.05976 0.0
O180 O 0.84676 0.18848 0.098 0.0
O181 O 0.83005 0.15528 0.11225 0.0
In182 In 0.16097 0.53752 0.27228 0.0
O183 O 0.18994 0.51956 0.26872 0.0
O184 O 0.1747 0.51758 0.2999 0.0
C185 C 0.19054 0.58324 0.27884 0.0
C186 C 0.1408 0.52503 0.23059 0.0
C187 C 0.12049 0.53127 0.29038 0.0
O188 O 0.18772 0.57029 0.26046 0.0
O189 O 0.17828 0.57323 0.29384 0.0
O190 O 0.12949 0.51353 0.28758 0.0
O191 O 0.13254 0.552 0.28527 0.0
C192 C 0.19008 0.51281 0.28841 0.0
O193 O 0.14198 0.54531 0.24129 0.0
O194 O 0.1508 0.51105 0.24046 0.0
In195 In 0.81754 0.87381 0.53785 0.0
O196 O 0.80617 0.84303 0.56332 0.0
O197 O 0.82685 0.87822 0.57605 0.0
C198 C 0.81069 0.84784 0.49621 0.0
C199 C 0.78619 0.90045 0.53664 0.0
C200 C 0.85997 0.90533 0.53445 0.0
O201 O 0.82695 0.8476 0.51055 0.0
O202 O 0.7971 0.85951 0.5034 0.0
O203 O 0.84232 0.91238 0.53833 0.0
O204 O 0.85651 0.88204 0.53257 0.0
C205 C 0.81586 0.85691 0.58056 0.0
O206 O 0.80745 0.90952 0.53444 0.0
O207 O 0.78033 0.87743 0.53916 0.0
In208 In 0.94535 0.05606 0.24319 0.0
O209 O 0.96891 0.08292 0.22211 0.0
O210 O 0.94298 0.05272 0.20518 0.0
C211 C 0.9832 0.06024 0.27121 0.0
C212 C 0.91424 0.08024 0.25387 0.0
C213 C 0.92171 1.00898 0.24804 0.0
O214 O 0.97262 0.07681 0.27078 0.0
O215 O 0.97505 0.04193 0.25709 0.0
O216 O 0.9192 0.02723 0.25978 0.0
O217 O 0.93631 0.01435 0.23365 0.0
C218 C 0.95962 0.07162 0.20366 0.0
O219 O 0.91277 0.06813 0.23521 0.0
O220 O 0.93186 0.08089 0.26675 0.0
In221 In 0.32463 0.6575 0.57028 0.0
O222 O 0.33081 0.6193 0.56602 0.0
O223 O 0.35731 0.65036 0.558 0.0
C224 C 0.27939 0.63351 0.56265 0.0
C225 C 0.33997 0.67784 0.6121 0.0
C226 C 0.32309 0.69252 0.54213 0.0
O227 O 0.29272 0.63833 0.5472 0.0
O228 O 0.28893 0.64033 0.58217 0.0
O229 O 0.31395 0.69182 0.56055 0.0
O230 O 0.33377 0.67637 0.53862 0.0
C231 C 0.35027 0.62715 0.55844 0.0
O232 O 0.34573 0.68915 0.59491 0.0
O233 O 0.32721 0.65599 0.60813 0.0
In234 In 0.43266 0.55005 0.73716 0.0
O235 O 0.39928 0.56179 0.73698 0.0
O236 O 0.42731 0.58123 0.7602 0.0
C237 C 0.4117 0.50161 0.72809 0.0
C238 C 0.4515 0.56939 0.70041 0.0
C239 C 0.45965 0.54368 0.77245 0.0
O240 O 0.40061 0.51761 0.73027 0.0
O241 O 0.43347 0.51018 0.7296 0.0
O242 O 0.4681 0.55333 0.75527 0.0
O243 O 0.43783 0.53772 0.77181 0.0
C244 C 0.40655 0.57822 0.75293 0.0
O245 O 0.45923 0.57862 0.71994 0.0
O246 O 0.43406 0.55085 0.69948 0.0
In247 In 0.65558 0.02981 0.76279 0.0
O248 O 0.67029 0.01093 0.79064 0.0
O249 O 0.68259 1.00937 0.75823 0.0
C250 C 0.68338 0.07656 0.76774 0.0
C251 C 0.63866 1.00822 0.72191 0.0
C252 C 0.61738 0.03238 0.78229 0.0
O253 O 0.68442 0.06069 0.78148 0.0
O254 O 0.66806 0.06905 0.75159 0.0
O255 O 0.62845 0.04927 0.77105 0.0
O256 O 0.62596 0.01433 0.78426 0.0
C257 C 0.68408 1.00415 0.77833 0.0
O258 O 0.62834 1.00208 0.73918 0.0
O259 O 0.65764 0.02486 0.72535 0.0
In260 In 0.80833 0.721 0.02982 0.0
O261 O 0.82025 0.68603 0.02605 0.0
O262 O 0.84652 0.72023 0.03152 0.0
C263 C 0.76531 0.69002 0.03152 0.0
C264 C 0.81324 0.74258 0.0731 0.0
C265 C 0.8103 0.74113 0.98854 0.0
O266 O 0.78272 0.68252 0.02755 0.0
O267 O 0.76943 0.71334 0.03435 0.0
O268 O 0.82323 0.75215 0.00562 0.0
O269 O 0.79621 0.72118 0.99266 0.0
C270 C 0.84165 0.69684 0.02865 0.0
O271 O 0.80413 0.75115 0.05689 0.0
O272 O 0.82063 0.72445 0.06721 0.0
In273 In 0.95205 0.56942 0.82227 0.0
O274 O 0.91564 0.57364 0.82215 0.0
O275 O 0.94256 0.6044 0.81396 0.0
C276 C 0.92938 0.52074 0.81806 0.0
C277 C 0.97897 0.58003 0.78837 0.0
C278 C 0.97978 0.58244 0.8603 0.0
O279 O 0.93001 0.53432 0.8357 0.0
O280 O 0.94049 0.5316 0.80276 0.0
O281 O 0.98143 0.5661 0.84576 0.0
O282 O 0.96349 0.59215 0.85608 0.0
C283 C 0.92113 0.5951 0.81528 0.0
O284 O 0.98681 0.57612 0.80739 0.0
O285 O 0.95763 0.57842 0.78651 0.0
In286 In 0.80344 0.43101 0.50716 0.0
O287 O 0.78988 0.39672 0.52643 0.0
O288 O 0.81937 0.42503 0.54077 0.0
C289 C 0.78778 0.40989 0.46551 0.0
C290 C 0.78032 0.46221 0.52335 0.0
C291 C 0.84867 0.44877 0.50191 0.0
O292 O 0.7883 0.39749 0.48227 0.0
O293 O 0.79446 0.43303 0.46983 0.0
O294 O 0.83439 0.46121 0.49822 0.0
O295 O 0.83996 0.42705 0.5073 0.0
C296 C 0.80551 0.40402 0.54238 0.0
O297 O 0.80144 0.46899 0.52004 0.0
O298 O 0.77048 0.43958 0.51808 0.0
In299 In 0.65598 0.53146 0.31566 0.0
O300 O 0.67528 0.51734 0.28883 0.0
O301 O 0.67555 0.50246 0.32062 0.0
C302 C 0.683 0.57699 0.30986 0.0
C303 C 0.61479 0.52172 0.29131 0.0
C304 C 0.64772 0.52857 0.35911 0.0
O305 O 0.69008 0.56167 0.32089 0.0
O306 O 0.66225 0.56934 0.30166 0.0
O307 O 0.63911 0.51066 0.34465 0.0
O308 O 0.66016 0.54768 0.35158 0.0
C309 C 0.68243 0.50308 0.30118 0.0
O310 O 0.62808 0.50786 0.28978 0.0
O311 O 0.62195 0.53998 0.30566 0.0
Tb312 Tb 0.0948 0.07397 0.05503 0.0
Tb313 Tb 0.04844 0.03773 0.02645 0.0
C314 C 0.04476 0.06663 0.07116 0.0
C315 C 0.1552 0.0976 0.07834 0.0
C316 C 0.19474 0.08044 0.07603 0.0
C317 C 0.18217 0.07714 0.09506 0.0
C318 C 0.16259 0.08578 0.09627 0.0
C319 C 0.16938 0.10347 0.0606 0.0
C320 C 0.189 0.09493 0.05945 0.0
C321 C 0.1314 0.1002 0.07665 0.0
O322 O 0.09719 0.03614 0.05758 0.0
O323 O 0.05827 0.01691 0.05314 0.0
O324 O 0.07799 0.02899 0.01314 0.0
O325 O 0.10423 0.06681 0.02135 0.0
O326 O 1.01655 0.01063 0.02561 0.0
O327 O 0.0312 0.0232 0.99502 0.0
O328 O 0.05419 0.07417 0.01298 0.0
O329 O 0.0756 0.09886 0.04303 0.0
O330 O 0.0667 0.06868 0.0768 0.0
O331 O 0.03516 0.05893 0.05086 0.0
C332 C 0.07951 0.01698 0.05989 0.0
O333 O 0.12362 0.10522 0.05716 0.0
O334 O 0.11597 0.08287 0.08518 0.0
C335 C 0.09709 0.04545 0.00938 0.0
C336 C 0.99108 0.0166 0.997 0.0
C337 C 0.9498 0.03098 0.99497 0.0
C338 C 0.94925 1.00601 0.99708 0.0
C339 C 0.96981 0.99889 0.99816 0.0
C340 C 0.99145 0.04104 0.99301 0.0
C341 C 0.97101 0.04816 0.99193 0.0
C342 C 1.01275 0.01091 0.004 0.0
C343 C 0.06273 0.09607 0.02404 0.0
H344 H 0.18654 0.06639 0.10825 0.0
H345 H 0.15227 0.08152 0.11041 0.0
H346 H 0.16442 0.11298 0.04672 0.0
H347 H 0.1984 0.09776 0.04458 0.0
H348 H 0.93312 0.99231 0.99921 0.0
H349 H 0.96925 0.97996 1.00136 0.0
H350 H 1.0077 0.0551 0.99234 0.0
H351 H 0.97222 0.06761 0.99062 0.0
Tb352 Tb 0.29922 0.81089 0.31827 0.0
Tb353 Tb 0.32516 0.80074 0.27336 0.0
C354 C 0.2796 0.81804 0.27039 0.0
C355 C 0.27823 0.80349 0.37356 0.0
C356 C 0.28006 0.7794 0.41318 0.0
C357 C 0.27174 0.80054 0.41291 0.0
C358 C 0.27091 0.81258 0.39319 0.0
C359 C 0.28588 0.78207 0.3736 0.0
C360 C 0.2869 0.77023 0.39319 0.0
C361 C 0.28002 0.81723 0.35347 0.0
O362 O 0.28186 0.77361 0.30418 0.0
O363 O 0.31095 0.76453 0.28541 0.0
O364 O 0.34944 0.80105 0.30178 0.0
O365 O 0.32454 0.79184 0.32962 0.0
O366 O 0.324 0.77999 0.24289 0.0
O367 O 0.35394 0.81022 0.25433 0.0
O368 O 0.33099 0.84067 0.27849 0.0
O369 O 0.3287 0.84246 0.31636 0.0
O370 O 0.28361 0.8271 0.29141 0.0
O371 O 0.29094 0.80318 0.26199 0.0
C372 C 0.29123 0.75758 0.29456 0.0
O373 O 0.30107 0.82932 0.35004 0.0
O374 O 0.26891 0.80478 0.33524 0.0
C375 C 0.34486 0.79376 0.32183 0.0
C376 C 0.3409 0.80628 0.2164 0.0
C377 C 0.33439 0.82749 0.17604 0.0
C378 C 0.34675 0.80952 0.17695 0.0
C379 C 0.34999 0.79896 0.19708 0.0
C380 C 0.32854 0.82411 0.2155 0.0
C381 C 0.32526 0.83458 0.19553 0.0
C382 C 0.34318 0.79489 0.23743 0.0
C383 C 0.33573 0.85299 0.29823 0.0
H384 H 0.26615 0.80794 0.42795 0.0
H385 H 0.26508 0.82921 0.3934 0.0
H386 H 0.29176 0.77493 0.35859 0.0
H387 H 0.29394 0.7544 0.39279 0.0
H388 H 0.35407 0.80382 0.16221 0.0
H389 H 0.35946 0.78508 0.19754 0.0
H390 H 0.32119 0.82977 0.23026 0.0
H391 H 0.31526 0.84797 0.19529 0.0
Tb392 Tb 0.54163 0.04973 0.54613 0.0
Tb393 Tb 0.59622 0.05781 0.53421 0.0
C394 C 0.57699 0.03214 0.57689 0.0
C395 C 0.4843 0.06202 0.55226 0.0
C396 C 0.45381 0.09244 0.54908 0.0
C397 C 0.47793 0.10304 0.55293 0.0
C398 C 0.49305 0.08796 0.55444 0.0
C399 C 0.46035 0.0514 0.54839 0.0
C400 C 0.44527 0.0664 0.54677 0.0
C401 C 0.4998 0.0457 0.55305 0.0
O402 O 0.56242 0.08336 0.56535 0.0
O403 O 0.59318 0.09477 0.54367 0.0
O404 O 0.57639 0.06273 0.50426 0.0
O405 O 0.54824 0.07605 0.52078 0.0
O406 O 0.63198 0.07124 0.54347 0.0
O407 O 0.61928 0.05226 0.51096 0.0
O408 O 0.5804 0.01808 0.53108 0.0
O409 O 0.54257 0.01823 0.52333 0.0
O410 O 0.55528 0.02737 0.56882 0.0
O411 O 0.59396 0.04811 0.56849 0.0
C412 C 0.58015 0.10022 0.5589 0.0
O413 O 0.50659 0.03974 0.53385 0.0
O414 O 0.51676 0.05124 0.56884 0.0
C415 C 0.5603 0.07447 0.50364 0.0
C416 C 0.65263 0.04492 0.5282 0.0
C417 C 0.68149 0.01297 0.53237 0.0
C418 C 0.68888 0.03538 0.52209 0.0
C419 C 0.67458 0.0512 0.52006 0.0
C420 C 0.6451 0.02264 0.53848 0.0
C421 C 0.65942 1.00683 0.54061 0.0
C422 C 0.63735 0.06117 0.52519 0.0
C423 C 0.55901 1.00681 0.52333 0.0
H424 H 0.48515 0.12297 0.55501 0.0
H425 H 0.51154 0.09654 0.55726 0.0
H426 H 0.4533 0.03142 0.54638 0.0
H427 H 0.42691 0.05752 0.54333 0.0
H428 H 0.70556 0.04054 0.51521 0.0
H429 H 0.68056 0.06822 0.5119 0.0
H430 H 0.62809 0.01742 0.54473 0.0
H431 H 0.65324 0.98991 0.54884 0.0
Tb432 Tb 0.32998 0.28192 0.78256 0.0
Tb433 Tb 0.28087 0.2967 0.77469 0.0
C434 C 0.28187 0.2442 0.78723 0.0
C435 C 0.38953 0.27875 0.77608 0.0
C436 C 0.42976 0.29081 0.75278 0.0
C437 C 0.42839 0.27583 0.77094 0.0
C438 C 0.40839 0.26983 0.78248 0.0
C439 C 0.39088 0.29396 0.75819 0.0
C440 C 0.41082 0.29993 0.74662 0.0
C441 C 0.36829 0.27174 0.7877 0.0
O442 O 0.32517 0.28371 0.74639 0.0
O443 O 0.28588 0.27914 0.74221 0.0
O444 O 0.30584 0.32486 0.75967 0.0
O445 O 0.3391 0.32164 0.7788 0.0
O446 O 0.24564 0.28605 0.7633 0.0
O447 O 0.26218 0.32318 0.77801 0.0
O448 O 0.29516 0.31092 0.80906 0.0
O449 O 0.31806 0.28507 0.816 0.0
O450 O 0.30237 0.24744 0.77967 0.0
O451 O 0.2732 0.2628 0.79138 0.0
C452 C 0.30558 0.27903 0.73365 0.0
O453 O 0.36328 0.28975 0.79915 0.0
O454 O 0.3502 0.2577 0.77565 0.0
C455 C 0.32792 0.33361 0.76604 0.0
C456 C 0.2237 0.30527 0.78573 0.0
C457 C 0.18782 0.30264 0.81425 0.0
C458 C 0.19201 0.32032 0.79823 0.0
C459 C 0.20977 0.32155 0.78404 0.0
C460 C 0.21977 0.28779 0.80187 0.0
C461 C 0.20189 0.28639 0.81591 0.0
C462 C 0.2426 0.30705 0.771 0.0
C463 C 0.30686 0.30074 0.82323 0.0
H464 H 0.44256 0.26828 0.77593 0.0
H465 H 0.40756 0.258 0.79622 0.0
H466 H 0.37644 0.30107 0.7531 0.0
H467 H 0.41144 0.31176 0.73291 0.0
H468 H 0.18134 0.33295 0.79645 0.0
H469 H 0.21266 0.33524 0.77176 0.0
H470 H 0.23055 0.27527 0.80366 0.0
H471 H 0.19927 0.27282 0.82829 0.0
Tb472 Tb 0.05616 0.06365 0.55686 0.0
Tb473 Tb 0.06694 0.03487 0.51273 0.0
C474 C 1.01616 0.02473 0.52711 0.0
C475 C 0.0411 0.07442 0.61405 0.0
C476 C 0.03443 0.05354 0.65546 0.0
C477 C 0.02691 0.03866 0.63526 0.0
C478 C 0.03035 0.04901 0.61471 0.0
C479 C 0.0471 0.08962 0.63403 0.0
C480 C 0.04377 0.07929 0.65459 0.0
C481 C 0.04933 0.08435 0.5931 0.0
O482 O 0.06374 0.02933 0.56972 0.0
O483 O 0.06273 1.00549 0.53704 0.0
O484 O 0.09931 0.05008 0.53354 0.0
O485 O 0.08991 0.08371 0.54778 0.0
O486 O 0.05774 1.00756 0.48565 0.0
O487 O 0.09225 0.03207 0.49106 0.0
O488 O 0.06549 0.07171 0.50053 0.0
O489 O 0.05149 0.08904 0.53033 0.0
O490 O 0.02419 0.03543 0.54703 0.0
O491 O 0.02928 0.0264 0.51031 0.0
C492 C 0.06317 1.0075 0.55927 0.0
O493 O 0.06928 0.08108 0.58858 0.0
O494 O 0.03432 0.07897 0.57556 0.0
C495 C 0.1056 0.07326 0.54153 0.0
C496 C 0.07601 0.02232 0.45376 0.0
C497 C 0.06833 0.03496 0.4097 0.0
C498 C 0.07964 0.05336 0.42665 0.0
C499 C 0.08331 0.04715 0.44848 0.0
C500 C 0.06564 1.00378 0.43673 0.0
C501 C 0.06178 1.01002 0.41488 0.0
C502 C 0.07747 0.0159 0.47715 0.0
C503 C 0.05814 0.09017 0.50955 0.0
H504 H 0.01941 0.01884 0.63533 0.0
H505 H 0.02575 0.03695 0.59938 0.0
H506 H 0.05564 0.10923 0.63379 0.0
H507 H 0.05008 0.09128 0.66976 0.0
H508 H 0.08522 0.07269 0.42317 0.0
H509 H 0.09131 0.06189 0.46131 0.0
H510 H 0.05977 0.98456 0.4405 0.0
H511 H 0.05273 0.99541 0.40232 0.0
Tb512 Tb 0.32199 0.82455 0.77137 0.0
Tb513 Tb 0.29709 0.77517 0.7945 0.0
C514 C 0.32124 0.77191 0.74968 0.0
C515 C 0.32983 0.88728 0.75487 0.0
C516 C 0.30314 0.92094 0.76057 0.0
C517 C 0.30077 0.90641 0.74025 0.0
C518 C 0.31408 0.88978 0.73739 0.0
C519 C 0.33399 0.90381 0.77415 0.0
C520 C 0.32072 0.92045 0.77699 0.0
C521 C 0.33856 0.86507 0.75463 0.0
O522 O 0.28386 0.82062 0.76325 0.0
O523 O 0.26772 0.78077 0.77202 0.0
O524 O 0.28567 0.80429 0.81103 0.0
O525 O 0.31599 0.83682 0.8048 0.0
O526 O 0.27581 0.73863 0.79247 0.0
O527 O 0.2904 0.75808 0.8245 0.0
O528 O 0.33433 0.78526 0.80962 0.0
O529 O 0.3525 0.81243 0.78511 0.0
O530 O 0.32267 0.79518 0.74689 0.0
O531 O 0.31387 0.76138 0.76774 0.0
C532 C 0.26531 0.80114 0.76297 0.0
O533 O 0.34621 0.85962 0.77396 0.0
O534 O 0.32526 0.84537 0.74319 0.0
C535 C 0.298 0.82717 0.81569 0.0
C536 C 0.28901 0.71587 0.81899 0.0
C537 C 0.30833 0.67562 0.81814 0.0
C538 C 0.28416 0.67152 0.81531 0.0
C539 C 0.27456 0.69157 0.8157 0.0
C540 C 0.31296 0.71988 0.82355 0.0
C541 C 0.32253 0.69994 0.82322 0.0
C542 C 0.27974 0.73669 0.81384 0.0
C543 C 0.35394 0.7983 0.8019 0.0
H544 H 0.2874 0.90644 0.72726 0.0
H545 H 0.31074 0.87756 0.72218 0.0
H546 H 0.34634 0.90274 0.78777 0.0
H547 H 0.32329 0.93192 0.79259 0.0
H548 H 0.2728 0.65295 0.8116 0.0
H549 H 0.25604 0.68818 0.81205 0.0
H550 H 0.3245 0.73849 0.8259 0.0
H551 H 0.34122 0.70382 0.82515 0.0
Tb552 Tb 0.56511 0.0398 0.05473 0.0
Tb553 Tb 0.56482 0.06687 0.00927 0.0
C554 C 0.61001 0.06862 0.03698 0.0
C555 C 0.55636 0.03013 0.11226 0.0
C556 C 0.54157 0.04994 0.15077 0.0
C557 C 0.55462 0.03263 0.1525 0.0
C558 C 0.56207 0.02284 0.1333 0.0
C559 C 0.54322 0.04718 0.11051 0.0
C560 C 0.536 0.05709 0.12956 0.0
C561 C 0.56549 0.02199 0.09211 0.0
O562 O 0.56778 0.07913 0.06685 0.0
O563 O 0.55732 0.09408 0.03425 0.0
O564 O 0.53152 0.04015 0.00904 0.0
O565 O 0.52978 0.04074 0.04677 0.0
O566 O 0.58107 0.08052 0.98097 0.0
O567 O 0.54758 0.08549 0.9878 0.0
O568 O 0.5704 0.03018 0.99778 0.0
O569 O 0.56191 1.00848 0.029 0.0
O570 O 0.59916 0.04676 0.04273 0.0
O571 O 0.59835 0.08244 0.02761 0.0
C572 C 0.56187 0.09696 0.05631 0.0
O573 O 0.54996 0.01216 0.07553 0.0
O574 O 0.58304 0.0386 0.0856 0.0
C575 C 0.51958 0.03614 0.02648 0.0
C576 C 0.55393 0.07845 0.9503 0.0
C577 C 0.5392 0.06284 0.9051 0.0
C578 C 0.53736 0.08578 0.91429 0.0
C579 C 0.54481 0.09358 0.93671 0.0
C580 C 0.55418 0.05482 0.94172 0.0
C581 C 0.54703 0.04714 0.9193 0.0
C582 C 0.56311 0.08745 0.97334 0.0
C583 C 0.56644 1.00887 0.00761 0.0
H584 H 0.55896 0.02658 0.16863 0.0
H585 H 0.57241 1.00986 0.13488 0.0
H586 H 0.53886 0.05319 0.09437 0.0
H587 H 0.52638 0.0707 0.12767 0.0
H588 H 0.53104 0.09814 0.90395 0.0
H589 H 0.54402 0.11168 0.94329 0.0
H590 H 0.56073 0.04265 0.95211 0.0
H591 H 0.54906 0.02951 0.91288 0.0
Tb592 Tb 0.29889 0.2719 0.2706 0.0
Tb593 Tb 0.32014 0.32793 0.28799 0.0
C594 C 0.30443 0.31289 0.23647 0.0
C595 C 0.27525 0.20402 0.26842 0.0
C596 C 0.28362 0.16291 0.28786 0.0
C597 C 0.27433 0.16068 0.26544 0.0
C598 C 0.27051 0.18132 0.25567 0.0
C599 C 0.28042 0.20504 0.29164 0.0
C600 C 0.28462 0.18454 0.30137 0.0
C601 C 0.28079 0.22694 0.25703 0.0
O602 O 0.33451 0.28106 0.25739 0.0
O603 O 0.35216 0.31747 0.27816 0.0
O604 O 0.31661 0.3086 0.31869 0.0
O605 O 0.31371 0.26918 0.30451 0.0
O606 O 0.32228 0.36504 0.28359 0.0
O607 O 0.34189 0.35515 0.3113 0.0
O608 O 0.28166 0.32144 0.29213 0.0
O609 O 0.27182 0.27942 0.29227 0.0
O610 O 0.29083 0.29211 0.24232 0.0
O611 O 0.3193 0.32785 0.25148 0.0
C612 C 0.35375 0.29924 0.26362 0.0
O613 O 0.26885 0.24256 0.26129 0.0
O614 O 0.30287 0.23798 0.25798 0.0
C615 C 0.31629 0.28557 0.32175 0.0
C616 C 0.3269 0.38956 0.317 0.0
C617 C 0.30546 0.4249 0.33318 0.0
C618 C 0.32914 0.43197 0.32941 0.0
C619 C 0.33971 0.4144 0.32109 0.0
C620 C 0.30428 0.38194 0.3236 0.0
C621 C 0.29359 0.39949 0.33158 0.0
C622 C 0.33535 0.37294 0.30218 0.0
C623 C 0.26648 0.30053 0.29681 0.0
H624 H 0.27287 0.14399 0.2548 0.0
H625 H 0.26629 0.18022 0.23773 0.0
H626 H 0.28385 0.22244 0.30174 0.0
H627 H 0.29157 0.18686 0.31872 0.0
H628 H 0.33894 0.45132 0.33105 0.0
H629 H 0.35728 0.42052 0.31626 0.0
H630 H 0.29421 0.36273 0.3207 0.0
H631 H 0.27536 0.39328 0.33427 0.0
Tb632 Tb 0.55653 0.56669 0.05888 0.0
Tb633 Tb 0.56645 0.5384 0.01429 0.0
C634 C 0.51718 0.52715 0.02991 0.0
C635 C 0.54055 0.576 0.11583 0.0
C636 C 0.53503 0.5544 0.15703 0.0
C637 C 0.528 0.53964 0.13671 0.0
C638 C 0.53086 0.55034 0.11627 0.0
C639 C 0.54605 0.59099 0.13595 0.0
C640 C 0.54329 0.58031 0.1564 0.0
C641 C 0.5484 0.58651 0.09497 0.0
O642 O 0.56585 0.5334 0.07185 0.0
O643 O 0.5634 0.50946 0.039 0.0
O644 O 0.59977 0.55402 0.03359 0.0
O645 O 0.59055 0.58677 0.05048 0.0
O646 O 0.55719 0.5078 0.99037 0.0
O647 O 0.58866 0.53708 0.98899 0.0
O648 O 0.56498 0.57514 1.00223 0.0
O649 O 0.55108 0.59192 0.0324 0.0
O650 O 0.52665 0.5353 0.05007 0.0
O651 O 0.52901 0.53295 0.01248 0.0
C652 C 0.56486 0.51155 0.06126 0.0
O653 O 0.56886 0.58463 0.09058 0.0
O654 O 0.5335 0.58043 0.07732 0.0
C655 C 0.60606 0.57673 0.04296 0.0
C656 C 0.56795 0.51892 0.95473 0.0
C657 C 0.55117 0.52101 0.91025 0.0
C658 C 0.56058 0.54293 0.92412 0.0
C659 C 0.56878 0.5419 0.94621 0.0
C660 C 0.55936 0.49708 0.94069 0.0
C661 C 0.55095 0.4981 0.91862 0.0
C662 C 0.57434 0.51735 0.97854 0.0
C663 C 0.55764 0.5934 0.01157 0.0
H664 H 0.52132 0.51969 0.13659 0.0
H665 H 0.52669 0.53843 0.10085 0.0
H666 H 0.55381 0.61079 0.13588 0.0
H667 H 0.54921 0.59224 0.17166 0.0
H668 H 0.56063 0.5608 0.9182 0.0
H669 H 0.57513 0.55902 0.95679 0.0
H670 H 0.55854 0.4792 0.94701 0.0
H671 H 0.54387 0.48095 0.90821 0.0
Tb672 Tb 0.82262 0.32504 0.27467 0.0
Tb673 Tb 0.79806 0.27392 0.2952 0.0
C674 C 0.82325 0.27405 0.25104 0.0
C675 C 0.82849 0.38635 0.2551 0.0
C676 C 0.80284 0.42136 0.25711 0.0
C677 C 0.82514 0.42681 0.2682 0.0
C678 C 0.83792 0.40946 0.26711 0.0
C679 C 0.80699 0.38176 0.24251 0.0
C680 C 0.79433 0.39918 0.24345 0.0
C681 C 0.83912 0.36602 0.25888 0.0
O682 O 0.78612 0.31496 0.25821 0.0
O683 O 0.76811 0.28786 0.28266 0.0
O684 O 0.801 0.30167 0.3222 0.0
O685 O 0.80424 0.33552 0.30203 0.0
O686 O 0.77013 0.24179 0.29248 0.0
O687 O 0.79588 0.24914 0.32048 0.0
O688 O 0.83614 0.27712 0.30284 0.0
O689 O 0.85202 0.31776 0.29595 0.0
O690 O 0.8341 0.29753 0.25543 0.0
O691 O 0.80594 0.26281 0.26218 0.0
C692 C 0.76656 0.30196 0.26587 0.0
O693 O 0.84263 0.3621 0.27989 0.0
O694 O 0.83022 0.34531 0.24649 0.0
C695 C 0.79984 0.32435 0.32045 0.0
C696 C 0.78204 0.20803 0.30533 0.0
C697 C 0.79798 0.16579 0.29831 0.0
C698 C 0.79339 0.17329 0.31991 0.0
C699 C 0.7855 0.19432 0.32339 0.0
C700 C 0.78493 0.19948 0.28356 0.0
C701 C 0.79282 0.17856 0.28008 0.0
C702 C 0.77851 0.2327 0.30954 0.0
C703 C 0.8546 0.29684 0.3038 0.0
H704 H 0.83216 0.44393 0.27867 0.0
H705 H 0.85446 0.41341 0.2769 0.0
H706 H 0.79918 0.36409 0.23311 0.0
H707 H 0.77712 0.39441 0.23486 0.0
H708 H 0.79695 0.16361 0.33424 0.0
H709 H 0.7833 0.20062 0.3403 0.0
H710 H 0.78237 0.20971 0.26931 0.0
H711 H 0.79644 0.17355 0.26327 0.0
Tb712 Tb 0.06469 0.53673 0.55252 0.0
Tb713 Tb 0.06153 0.56232 0.50657 0.0
C714 C 0.10839 0.56551 0.53172 0.0
C715 C 0.06055 0.52782 0.61086 0.0
C716 C 0.04867 0.54766 0.65081 0.0
C717 C 0.06106 0.52968 0.65127 0.0
C718 C 0.0671 0.5199 0.63133 0.0
C719 C 0.04811 0.54558 0.61038 0.0
C720 C 0.04244 0.55561 0.63015 0.0
C721 C 0.06801 0.51953 0.5899 0.0
O722 O 0.06665 0.57588 0.56431 0.0
O723 O 0.05553 0.59046 0.53172 0.0
O724 O 0.02923 0.53452 0.50836 0.0
O725 O 0.0288 0.53657 0.5462 0.0
O726 O 0.07536 0.5757 0.47712 0.0
O727 O 0.04139 0.57807 0.48518 0.0
O728 O 0.06835 0.52609 0.49553 0.0
O729 O 0.0606 0.50501 0.52713 0.0
O730 O 0.09815 0.54431 0.53921 0.0
O731 O 0.09628 0.57864 0.52193 0.0
C732 C 0.06041 0.59351 0.55378 0.0
O733 O 0.05132 0.50954 0.57439 0.0
O734 O 0.08475 0.53615 0.58224 0.0
C735 C 1.0179 0.53128 0.52623 0.0
C736 C 0.0459 0.56805 0.44769 0.0
C737 C 0.02967 0.54695 0.40399 0.0
C738 C 0.02481 0.56891 0.41204 0.0
C739 C 0.03305 0.57947 0.43369 0.0
C740 C 0.04897 0.54507 0.44048 0.0
C741 C 0.04109 0.5347 0.41883 0.0
C742 C 0.05597 0.57998 0.46979 0.0
C743 C 0.06487 0.50505 0.5057 0.0
H744 H 0.06584 0.523 0.66696 0.0
H745 H 0.07691 0.50633 0.63188 0.0
H746 H 0.04301 0.55196 0.59468 0.0
H747 H 0.03332 0.56976 0.62922 0.0
H748 H 1.01562 0.57856 0.40129 0.0
H749 H 0.02998 0.59691 0.43927 0.0
H750 H 0.05834 0.53558 0.45124 0.0
H751 H 0.0455 0.51797 0.41339 0.0
Tb752 Tb 0.83344 0.78299 0.2891 0.0
Tb753 Tb 0.7863 0.80123 0.28097 0.0
C754 C 0.78444 0.74687 0.29166 0.0
C755 C 0.89012 0.77131 0.2808 0.0
C756 C 0.92906 0.77586 0.25597 0.0
C757 C 0.92934 0.76836 0.27795 0.0
C758 C 0.91002 0.7661 0.29024 0.0
C759 C 0.8896 0.77859 0.25883 0.0
C760 C 0.9089 0.78078 0.24649 0.0
C761 C 0.87031 0.76988 0.29419 0.0
O762 O 0.82066 0.77195 0.25393 0.0
O763 O 0.79877 0.79906 0.2475 0.0
O764 O 0.81556 0.8339 0.28568 0.0
O765 O 0.84371 0.81749 0.27316 0.0
O766 O 0.75273 0.7959 0.2656 0.0
O767 O 0.76889 0.82818 0.28799 0.0
O768 O 0.78962 0.79645 0.31693 0.0
O769 O 0.82877 0.80101 0.32123 0.0
O770 O 0.80579 0.75426 0.30085 0.0
O771 O 0.77551 0.76117 0.2795 0.0
C772 C 0.80987 0.78332 0.24001 0.0
O773 O 0.86811 0.79112 0.30218 0.0
O774 O 0.85054 0.75515 0.28567 0.0
C775 C 0.83562 0.83652 0.27745 0.0
C776 C 0.72899 0.81114 0.28923 0.0
C777 C 0.69102 0.80569 0.31552 0.0
C778 C 0.69759 0.82612 0.30252 0.0
C779 C 0.71641 0.82879 0.28947 0.0
C780 C 0.72241 0.7906 0.30201 0.0
C781 C 0.70349 0.78782 0.31495 0.0
C782 C 0.74978 0.81522 0.27681 0.0
C783 C 0.80913 0.80104 0.32981 0.0
H784 H 0.94449 0.76415 0.28563 0.0
H785 H 0.91067 0.76048 0.30719 0.0
H786 H 0.87438 0.78284 0.25134 0.0
H787 H 0.90822 0.78689 0.22972 0.0
H788 H 0.68818 0.84006 0.30246 0.0
H789 H 0.72135 0.84483 0.27981 0.0
H790 H 0.73215 0.77694 0.30228 0.0
H791 H 0.69901 0.77205 0.32498 0.0
Tb792 Tb 0.79637 0.30219 0.8167 0.0
Tb793 Tb 0.82304 0.29108 0.77285 0.0
C794 C 0.77808 0.30951 0.76865 0.0
C795 C 0.77374 0.29479 0.87142 0.0
C796 C 0.77532 0.27049 0.9109 0.0
C797 C 0.77172 0.29424 0.91163 0.0
C798 C 0.77094 0.30632 0.89197 0.0
C799 C 0.77667 0.27084 0.87056 0.0
C800 C 0.77738 0.25877 0.8901 0.0
C801 C 0.77647 0.30863 0.85139 0.0
O802 O 0.77759 0.2662 0.80058 0.0
O803 O 0.80789 0.2555 0.78578 0.0
O804 O 0.84693 0.29238 0.80178 0.0
O805 O 0.82107 0.28262 0.82868 0.0
O806 O 0.82262 0.2685 0.74368 0.0
O807 O 0.85154 0.30043 0.7534 0.0
O808 O 0.82937 0.33113 0.77705 0.0
O809 O 0.82546 0.33418 0.81469 0.0
O810 O 0.78211 0.31908 0.78952 0.0
O811 O 0.78909 0.29399 0.76085 0.0
C812 C 0.78685 0.24941 0.79227 0.0
O813 O 0.79779 0.32031 0.84855 0.0
O814 O 0.76562 0.2966 0.83288 0.0
C815 C 0.84181 0.28502 0.82168 0.0
C816 C 0.83837 0.29295 0.71544 0.0
C817 C 0.83166 0.31086 0.67349 0.0
C818 C 0.84881 0.29845 0.67732 0.0
C819 C 0.85203 0.28937 0.6982 0.0
C820 C 0.82155 0.30569 0.7117 0.0
C821 C 0.81807 0.31437 0.69087 0.0
C822 C 0.84128 0.2836 0.73741 0.0
C823 C 0.83321 0.34407 0.7965 0.0
H824 H 0.76995 0.30363 0.92742 0.0
H825 H 0.76892 0.32493 0.89289 0.0
H826 H 0.7793 0.26184 0.85486 0.0
H827 H 0.78062 0.24071 0.88902 0.0
H828 H 0.85954 0.29562 0.66415 0.0
H829 H 0.86516 0.27965 0.70089 0.0
H830 H 0.81116 0.30901 0.72498 0.0
H831 H 0.80508 0.32432 0.68851 0.0
Tb832 Tb 0.79789 0.7689 0.77558 0.0
Tb833 Tb 0.82102 0.82479 0.79302 0.0
C834 C 0.8032 0.81079 0.74177 0.0
C835 C 0.78743 0.70561 0.7484 0.0
C836 C 0.80784 0.66744 0.73871 0.0
C837 C 0.78389 0.66191 0.74118 0.0
C838 C 0.77382 0.68097 0.7464 0.0
C839 C 0.81007 0.71133 0.74186 0.0
C840 C 0.82029 0.69235 0.73711 0.0
C841 C 0.78037 0.72388 0.76248 0.0
O842 O 0.83615 0.77403 0.77004 0.0
O843 O 0.84955 0.81638 0.77423 0.0
O844 O 0.83123 0.80242 0.81863 0.0
O845 O 0.79921 0.77021 0.812 0.0
O846 O 0.83341 0.86267 0.78806 0.0
O847 O 0.83641 0.84972 0.82074 0.0
O848 O 0.78492 0.81783 0.80505 0.0
O849 O 0.76661 0.78073 0.78559 0.0
O850 O 0.8021 0.78766 0.74489 0.0
O851 O 0.80601 0.82732 0.75898 0.0
C852 C 0.85294 0.79475 0.76756 0.0
O853 O 0.79384 0.7317 0.78087 0.0
O854 O 0.77513 0.74202 0.75268 0.0
C855 C 0.81634 0.78339 0.82585 0.0
C856 C 0.82848 0.88815 0.81829 0.0
C857 C 0.80534 0.92451 0.8266 0.0
C858 C 0.8286 0.93133 0.82143 0.0
C859 C 0.84006 0.9132 0.81718 0.0
C860 C 0.80604 0.88148 0.82543 0.0
C861 C 0.79455 0.89952 0.82958 0.0
C862 C 0.83858 0.86904 0.80932 0.0
C863 C 0.7655 0.79962 0.79958 0.0
H864 H 0.77356 0.64291 0.74159 0.0
H865 H 0.75616 0.67633 0.75111 0.0
H866 H 0.82071 0.73037 0.74308 0.0
H867 H 0.83868 0.69755 0.73506 0.0
H868 H 0.83745 0.9505 0.81933 0.0
H869 H 0.85745 0.91862 0.81179 0.0
H870 H 0.79687 0.8622 0.82649 0.0
H871 H 0.77659 0.89356 0.83331 0.0
Tb872 Tb 0.5958 0.57571 0.55666 0.0
Tb873 Tb 0.54886 0.53918 0.52903 0.0
C874 C 0.54636 0.56828 0.5741 0.0
C875 C 0.65628 0.59806 0.57979 0.0
C876 C 0.69504 0.57925 0.57923 0.0
C877 C 0.68217 0.57728 0.59806 0.0
C878 C 0.66302 0.58676 0.5984 0.0
C879 C 0.67066 0.60238 0.56205 0.0
C880 C 0.6899 0.59304 0.56177 0.0
C881 C 0.63289 0.60179 0.57758 0.0
O882 O 0.59851 0.53806 0.55938 0.0
O883 O 0.5597 0.51796 0.55478 0.0
O884 O 0.57806 0.53031 0.5151 0.0
O885 O 0.60419 0.5683 0.52261 0.0
O886 O 0.51689 0.51236 0.52892 0.0
O887 O 0.53104 0.5243 0.49794 0.0
O888 O 0.55457 0.5754 0.51521 0.0
O889 O 0.57627 0.60045 0.54494 0.0
O890 O 0.56838 0.57023 0.57918 0.0
O891 O 0.53631 0.56056 0.55395 0.0
C892 C 0.58112 0.51843 0.56125 0.0
O893 O 0.62539 0.60607 0.55771 0.0
O894 O 0.61696 0.58564 0.58675 0.0
C895 C 0.59696 0.54679 0.5109 0.0
C896 C 0.49095 0.51731 0.50025 0.0
C897 C 0.44899 0.53026 0.49666 0.0
C898 C 0.449 0.50552 0.49918 0.0
C899 C 0.46991 0.4991 0.501 0.0
C900 C 0.49085 0.5416 0.49616 0.0
C901 C 0.47008 0.54799 0.49429 0.0
C902 C 0.51281 0.5121 0.50729 0.0
C903 C 0.56312 0.5974 0.52607 0.0
H904 H 0.68606 0.56709 0.6119 0.0
H905 H 0.65252 0.58364 0.61253 0.0
H906 H 0.6662 0.61141 0.54761 0.0
H907 H 0.69952 0.59482 0.54703 0.0
H908 H 0.433 0.49145 0.5009 0.0
H909 H 0.46973 0.48029 0.50429 0.0
H910 H 0.50693 0.55603 0.49585 0.0
H911 H 0.47081 0.5673 0.49276 0.0
Tb912 Tb 0.04097 0.55005 0.04732 0.0
Tb913 Tb 0.09578 0.55689 0.0359 0.0
C914 C 0.07635 0.53436 0.08009 0.0
C915 C 0.98412 0.56326 0.05175 0.0
C916 C 0.95421 0.59396 0.04616 0.0
C917 C 0.9464 0.57058 0.05472 0.0
C918 C 0.96121 0.55539 0.05744 0.0
C919 C 0.99222 0.58675 0.04365 0.0
C920 C 0.97741 0.60198 0.04089 0.0
C921 C 0.99906 0.54646 0.05349 0.0
O922 O 0.06095 0.58525 0.06451 0.0
O923 O 0.09388 0.59435 0.04523 0.0
O924 O 0.07602 0.56166 0.00566 0.0
O925 O 0.0481 0.5758 0.02171 0.0
O926 O 0.13167 0.5702 0.04448 0.0
O927 O 0.11827 0.54967 0.01274 0.0
O928 O 0.07942 0.51731 0.03438 0.0
O929 O 0.042 0.51797 0.02533 0.0
O930 O 0.05466 0.52991 0.07203 0.0
O931 O 0.09385 0.54803 0.07045 0.0
C932 C 0.07985 0.60098 0.05878 0.0
O933 O 1.0061 0.53972 0.03466 0.0
O934 O 1.01579 0.55238 0.06949 0.0
C935 C 0.06003 0.57357 0.00466 0.0
C936 C 0.15225 0.54342 0.02983 0.0
C937 C 0.18186 0.51229 0.03445 0.0
C938 C 0.18887 0.5346 0.02395 0.0
C939 C 0.17419 0.54998 0.02167 0.0
C940 C 0.14514 0.52132 0.04047 0.0
C941 C 0.15981 0.50588 0.04275 0.0
C942 C 0.13664 0.55927 0.02646 0.0
C943 C 0.05814 0.50616 0.02627 0.0
H944 H 0.92881 0.56397 0.05935 0.0
H945 H 0.95468 0.53735 0.06377 0.0
H946 H 1.00989 0.59312 0.03913 0.0
H947 H 0.98396 0.61973 0.03408 0.0
H948 H 0.20555 0.53995 0.01706 0.0
H949 H 0.17988 0.56689 0.01328 0.0
H950 H 0.1282 0.51595 0.04687 0.0
H951 H 0.15394 0.48901 0.05114 0.0
H952 H 0.99957 0.19819 0.95737 0.0
H953 H 0.0815 0.14463 0.03945 0.0
H954 H 0.06013 0.24406 0.99679 0.0
H955 H 0.03091 0.09839 0.9895 0.0
H956 H 0.07143 0.18099 0.02644 0.0
H957 H 1.00798 0.16132 0.97176 0.0
C958 C 1.01448 0.20053 0.96927 0.0
C959 C 0.02917 0.22427 0.9759 0.0
C960 C 0.06252 0.16291 0.01829 0.0
C961 C 0.03898 0.18211 0.99232 0.0
C962 C 0.06826 0.14205 0.02571 0.0
C963 C 0.05705 0.11828 0.01557 0.0
C964 C 0.04529 0.16013 1.00065 0.0
C965 C 0.04005 0.11628 0.99782 0.0
C966 C 0.01936 0.17946 0.97735 0.0
C967 C 0.04833 0.22615 0.99123 0.0
N968 N 0.03464 0.13691 0.99098 0.0
N969 N 0.05268 0.20538 0.99888 0.0
H970 H 0.14941 0.83597 0.21602 0.0
H971 H 0.27455 0.81373 0.22467 0.0
H972 H 0.18885 0.83365 0.15878 0.0
H973 H 0.24346 0.83604 0.2823 0.0
H974 H 0.24334 0.82101 0.20035 0.0
H975 H 0.18355 0.83635 0.24067 0.0
C976 C 0.16535 0.83582 0.20865 0.0
C977 C 0.16629 0.83467 0.18531 0.0
C978 C 0.24341 0.82451 0.21829 0.0
C979 C 0.20534 0.83477 0.21342 0.0
C980 C 0.26119 0.82026 0.23223 0.0
C981 C 0.26153 0.8241 0.25561 0.0
C982 C 0.22557 0.83232 0.22775 0.0
C983 C 0.24387 0.8328 0.26439 0.0
C984 C 0.18484 0.83606 0.22274 0.0
C985 C 0.18738 0.83453 0.17668 0.0
N986 N 0.22645 0.83635 0.25046 0.0
N987 N 0.20599 0.83428 0.19072 0.0
H988 H 0.51019 0.86655 0.44405 0.0
H989 H 0.58319 0.97342 0.53312 0.0
H990 H 0.54987 0.85121 0.50125 0.0
H991 H 0.52189 0.97968 0.49508 0.0
H992 H 0.57393 0.92973 0.51931 0.0
H993 H 0.51668 0.90911 0.46024 0.0
C994 C 0.52018 0.87212 0.46009 0.0
C995 C 0.52953 0.85534 0.47134 0.0
C996 C 0.56247 0.94064 0.51407 0.0
C997 C 0.53732 0.90414 0.48975 0.0
C998 C 0.56779 0.96562 0.52182 0.0
C999 C 0.55332 0.98027 0.51517 0.0
C1000 C 0.54276 0.93029 0.49921 0.0
C1001 C 0.53351 0.96908 0.50065 0.0
C1002 C 0.52382 0.89639 0.46933 0.0
C1003 C 0.5423 0.86354 0.49208 0.0
N1004 N 0.52893 0.94482 0.49298 0.0
N1005 N 0.54606 0.88746 0.50051 0.0
H1006 H 0.524 0.31024 0.64781 0.0
H1007 H 0.47539 0.30295 0.76918 0.0
H1008 H 0.5676 0.32168 0.70969 0.0
H1009 H 0.43176 0.29149 0.7073 0.0
H1010 H 0.50946 0.31094 0.74772 0.0
H1011 H 0.49005 0.30463 0.66935 0.0
C1012 C 0.52643 0.31165 0.66594 0.0
C1013 C 0.54862 0.31636 0.677 0.0
C1014 C 0.49244 0.30675 0.73883 0.0
C1015 C 0.50989 0.30992 0.70175 0.0
C1016 C 0.47297 0.30205 0.75108 0.0
C1017 C 0.45067 0.29648 0.74003 0.0
C1018 C 0.48963 0.30579 0.71534 0.0
C1019 C 0.44862 0.29598 0.71654 0.0
C1020 C 0.50704 0.30844 0.67823 0.0
C1021 C 0.55078 0.31803 0.7005 0.0
N1022 N 0.46783 0.30048 0.70499 0.0
N1023 N 0.53165 0.31474 0.71209 0.0
H1024 H 0.05262 0.8531 0.60014 0.0
H1025 H 0.06539 1.00252 0.60611 0.0
H1026 H 0.0653 0.89806 0.66255 0.0
H1027 H 0.05982 0.95799 0.54414 0.0
H1028 H 0.06438 0.96543 0.62677 0.0
H1029 H 0.05413 0.89051 0.57997 0.0
C1030 C 0.05575 0.87073 0.60982 0.0
C1031 C 0.05886 0.87157 0.63354 0.0
C1032 C 0.06341 0.96362 0.60865 0.0
C1033 C 0.06051 0.91606 0.60969 0.0
C1034 C 0.06402 0.98512 0.59662 0.0
C1035 C 0.06285 0.9843 0.57284 0.0
C1036 C 0.06142 0.94019 0.59726 0.0
C1037 C 0.06092 0.96039 0.56224 0.0
C1038 C 0.05662 0.89241 0.59808 0.0
C1039 C 0.0628 0.89573 0.64445 0.0
N1040 N 0.06024 0.93986 0.57427 0.0
N1041 N 0.06343 0.91647 0.63267 0.0
H1042 H 0.47376 0.77079 0.88682 0.0
H1043 H 0.39896 0.82073 0.78948 0.0
H1044 H 0.50563 0.81309 0.83421 0.0
H1045 H 0.36651 0.7732 0.83868 0.0
H1046 H 0.43719 0.81888 0.80569 0.0
H1047 H 0.43539 0.77207 0.87033 0.0
C1048 C 0.47297 0.78036 0.87176 0.0
C1049 C 0.49394 0.79172 0.86225 0.0
C1050 C 0.42182 0.80879 0.81309 0.0
C1051 C 0.44829 0.79352 0.84264 0.0
C1052 C 0.39956 0.80985 0.8037 0.0
C1053 C 0.37844 0.79717 0.81231 0.0
C1054 C 0.42404 0.79498 0.83177 0.0
C1055 C 0.38159 0.78347 0.831 0.0
C1056 C 0.45066 0.7811 0.86222 0.0
C1057 C 0.49063 0.80382 0.84255 0.0
N1058 N 0.4034 0.78286 0.83985 0.0
N1059 N 0.46881 0.8044 0.83372 0.0
H1060 H 0.55609 0.21512 0.16158 0.0
H1061 H 0.55519 0.1407 0.04034 0.0
H1062 H 0.55419 0.24888 0.09919 0.0
H1063 H 0.56526 0.10974 0.10294 0.0
H1064 H 0.55328 0.17907 0.0612 0.0
H1065 H 0.55785 0.17656 0.14081 0.0
C1066 C 0.55593 0.21461 0.1435 0.0
C1067 C 0.5549 0.236 0.1325 0.0
C1068 C 0.55591 0.16398 0.07051 0.0
C1069 C 0.55694 0.19053 0.10789 0.0
C1070 C 0.55699 0.14172 0.05847 0.0
C1071 C 0.56048 0.12118 0.06948 0.0
C1072 C 0.5581 0.16647 0.09421 0.0
C1073 C 0.56264 0.12457 0.09326 0.0
C1074 C 0.55701 0.1923 0.13152 0.0
C1075 C 0.5549 0.23335 0.10881 0.0
N1076 N 0.56137 0.14632 0.10455 0.0
N1077 N 0.55583 0.21145 0.09757 0.0
H1078 H 0.14801 0.27863 0.38704 0.0
H1079 H 0.23823 0.33402 0.29477 0.0
H1080 H 0.12504 0.31244 0.33079 0.0
H1081 H 0.23975 0.26673 0.32467 0.0
H1082 H 0.20126 0.33245 0.31155 0.0
H1083 H 0.18427 0.27978 0.3693 0.0
C1084 C 0.15035 0.28645 0.371 0.0
C1085 C 0.13236 0.29527 0.36083 0.0
C1086 C 0.20958 0.31796 0.31457 0.0
C1087 C 0.17601 0.29745 0.33989 0.0
C1088 C 0.23111 0.31887 0.30487 0.0
C1089 C 0.24307 0.30042 0.30772 0.0
C1090 C 0.19935 0.29887 0.32834 0.0
C1091 C 0.23188 0.28151 0.32141 0.0
C1092 C 0.17144 0.28706 0.3607 0.0
C1093 C 0.13762 0.30513 0.33975 0.0
N1094 N 0.21144 0.28147 0.33113 0.0
N1095 N 0.15852 0.3062 0.33045 0.0
H1096 H 0.9996 0.10636 0.19689 0.0
H1097 H 0.99741 0.05526 0.06968 0.0
H1098 H 0.94162 0.05132 0.16177 0.0
H1099 H 0.0596 0.09259 0.11165 0.0
H1100 H 0.97426 0.06287 0.09998 0.0
H1101 H 0.01883 0.11104 0.16211 0.0
C1102 C 0.99074 0.09562 0.18175 0.0
C1103 C 0.96924 0.07807 0.18222 0.0
C1104 C 0.99297 0.0696 0.10241 0.0
C1105 C 0.9911 0.08321 0.14259 0.0
C1106 C 1.00619 0.06527 0.08517 0.0
C1107 C 0.03046 0.07288 0.08836 0.0
C1108 C 1.00416 0.08179 0.12283 0.0
C1109 C 0.04093 0.08597 0.10865 0.0
C1110 C 1.00174 0.09823 0.16196 0.0
C1111 C 0.95839 0.06477 0.16214 0.0
N1112 N 0.02771 0.08985 0.12519 0.0
N1113 N 0.9696 0.06737 0.14314 0.0
H1114 H 0.32985 0.68718 0.49815 0.0
H1115 H 0.2941 0.80181 0.45578 0.0
H1116 H 0.30551 0.73282 0.54588 0.0
H1117 H 0.27309 0.72996 0.41872 0.0
H1118 H 0.3044 0.78203 0.48888 0.0
H1119 H 0.3174 0.7091 0.46792 0.0
C1120 C 0.32222 0.7021 0.50231 0.0
C1121 C 0.3186 0.70818 0.5245 0.0
C1122 C 0.29731 0.77074 0.47348 0.0
C1123 C 0.30437 0.7332 0.49002 0.0
C1124 C 0.29127 0.78189 0.45464 0.0
C1125 C 0.28309 0.76759 0.43425 0.0
C1126 C 0.29557 0.74531 0.47167 0.0
C1127 C 0.28002 0.74188 0.4338 0.0
C1128 C 0.31494 0.71439 0.48504 0.0
C1129 C 0.30852 0.72759 0.52892 0.0
N1130 N 0.28665 0.73165 0.4521 0.0
N1131 N 0.30175 0.73957 0.51175 0.0
H1132 H 0.59275 0.98789 0.70885 0.0
H1133 H 0.61722 0.02013 0.58442 0.0
H1134 H 0.66022 1.00944 0.68348 0.0
H1135 H 0.55101 0.01299 0.61106 0.0
H1136 H 0.63017 1.00281 0.61739 0.0
H1137 H 0.57484 0.98374 0.67042 0.0
C1138 C 0.60377 0.99103 0.69512 0.0
C1139 C 0.62794 0.99956 0.69921 0.0
C1140 C 0.61271 1.00475 0.616 0.0
C1141 C 0.60773 0.99495 0.65559 0.0
C1142 C 0.60534 0.01476 0.59723 0.0
C1143 C 0.58328 0.01866 0.59544 0.0
C1144 C 0.59809 0.99909 0.63337 0.0
C1145 C 0.56832 0.01067 0.61211 0.0
C1146 C 0.59355 0.98878 0.67326 0.0
C1147 C 0.64149 1.0033 0.68097 0.0
N1148 N 0.5762 1.00172 0.63074 0.0
N1149 N 0.63118 1.00131 0.65995 0.0
H1150 H 0.28054 0.35491 0.95568 0.0
H1151 H 0.33195 0.28671 0.85786 0.0
H1152 H 0.33519 0.31999 0.96854 0.0
H1153 H 0.28238 0.32841 0.84564 0.0
H1154 H 0.33205 0.29657 0.89823 0.0
H1155 H 0.27939 0.34293 0.91571 0.0
C1156 C 0.29218 0.34448 0.95017 0.0
C1157 C 0.30796 0.33844 0.96572 0.0
C1158 C 0.32114 0.30357 0.88674 0.0
C1159 C 0.30686 0.32472 0.9194 0.0
C1160 C 0.32105 0.29794 0.86358 0.0
C1161 C 0.30717 0.30675 0.84805 0.0
C1162 C 0.30714 0.31807 0.89471 0.0
C1163 C 0.29346 0.32122 0.85676 0.0
C1164 C 0.29158 0.33773 0.92721 0.0
C1165 C 0.32266 0.32499 0.95731 0.0
N1166 N 0.29379 0.32635 0.87935 0.0
N1167 N 0.32179 0.31866 0.93481 0.0
H1168 H 1.00128 0.09575 0.30548 0.0
H1169 H 0.06837 0.01085 0.36845 0.0
H1170 H 1.00706 0.02569 0.27672 0.0
H1171 H 0.05257 0.07481 0.39982 0.0
H1172 H 0.05267 0.0202 0.33238 0.0
H1173 H 0.02733 0.09282 0.33754 0.0
C1174 C 1.00834 0.07994 0.30575 0.0
C1175 C 1.00178 0.06076 0.28862 0.0
C1176 C 0.05294 0.03234 0.34714 0.0
C1177 C 0.03136 0.05715 0.32528 0.0
C1178 C 0.06178 0.02695 0.36775 0.0
C1179 C 0.0616 0.04191 0.38727 0.0
C1180 C 0.04384 0.05282 0.34606 0.0
C1181 C 0.05327 0.06283 0.38525 0.0
C1182 C 0.02314 0.07823 0.32408 0.0
C1183 C 1.01152 0.04077 0.28972 0.0
N1184 N 0.04455 0.06752 0.36507 0.0
N1185 N 0.02562 0.03933 0.30791 0.0
H1186 H 0.36383 0.72594 0.62445 0.0
H1187 H 0.31549 0.72161 0.74547 0.0
H1188 H 0.32594 0.65853 0.65125 0.0
H1189 H 0.3437 0.78874 0.71317 0.0
H1190 H 0.32589 0.69774 0.71436 0.0
H1191 H 0.3641 0.74852 0.66051 0.0
C1192 C 0.35596 0.71581 0.63807 0.0
C1193 C 0.34452 0.69044 0.6348 0.0
C1194 C 0.32994 0.71772 0.71421 0.0
C1195 C 0.34444 0.71616 0.67593 0.0
C1196 C 0.32398 0.73135 0.73193 0.0
C1197 C 0.32838 0.75718 0.73173 0.0
C1198 C 0.34047 0.73004 0.69629 0.0
C1199 C 0.33961 0.76883 0.71387 0.0
C1200 C 0.356 0.72872 0.65862 0.0
C1201 C 0.33473 0.67817 0.65303 0.0
N1202 N 0.34513 0.75516 0.69682 0.0
N1203 N 0.33461 0.69123 0.67277 0.0
H1204 H 0.5982 0.07113 0.78315 0.0
H1205 H 0.52237 0.01731 0.88118 0.0
H1206 H 0.5892 0.9978 0.80574 0.0
H1207 H 0.55157 0.09508 0.87258 0.0
H1208 H 0.53246 1.0073 0.84363 0.0
H1209 H 0.56747 0.07654 0.80598 0.0
C1210 C 0.58949 0.05602 0.79265 0.0
C1211 C 0.59666 0.03428 0.79316 0.0
C1212 C 0.53599 0.02656 0.8498 0.0
C1213 C 0.56152 0.04028 0.81905 0.0
C1214 C 0.53034 0.03232 0.87124 0.0
C1215 C 0.53707 0.05701 0.88048 0.0
C1216 C 0.54824 0.04568 0.83757 0.0
C1217 C 0.54639 0.07573 0.86645 0.0
C1218 C 0.5719 0.05908 0.80555 0.0
C1219 C 0.58454 0.0151 0.80536 0.0
N1220 N 0.55222 0.06963 0.84588 0.0
N1221 N 0.56777 0.01871 0.81816 0.0
H1222 H 0.28931 0.31079 0.08881 0.0
H1223 H 0.32899 0.35538 0.21911 0.0
H1224 H 0.33627 0.3815 0.11278 0.0
H1225 H 0.2805 0.28449 0.19832 0.0
H1226 H 0.33124 0.36462 0.17998 0.0
H1227 H 0.28556 0.30007 0.128 0.0
C1228 C 0.29892 0.32402 0.10222 0.0
C1229 C 0.31319 0.34712 0.09728 0.0
C1230 C 0.32001 0.34704 0.18385 0.0
C1231 C 0.30886 0.33499 0.14239 0.0
C1232 C 0.31865 0.34172 0.20637 0.0
C1233 C 0.30446 0.31907 0.21233 0.0
C1234 C 0.30717 0.32964 0.16673 0.0
C1235 C 0.29161 0.30225 0.19472 0.0
C1236 C 0.29671 0.31791 0.12465 0.0
C1237 C 0.32508 0.36348 0.11555 0.0
N1238 N 0.29331 0.30782 0.17282 0.0
N1239 N 0.32265 0.35713 0.13704 0.0
H1240 H 0.23587 0.95448 0.02734 0.0
H1241 H 0.23732 0.09443 0.05915 0.0
H1242 H 0.2959 0.01614 0.02221 0.0
H1243 H 0.18728 0.03127 0.08095 0.0
H1244 H 0.25901 0.06654 0.04467 0.0
H1245 H 0.21679 0.98295 0.04521 0.0
C1246 C 0.24493 0.97404 0.02982 0.0
C1247 C 0.26741 0.98304 0.0233 0.0
C1248 C 0.24347 0.05889 0.05295 0.0
C1249 C 0.24591 0.01557 0.04381 0.0
C1250 C 0.23117 0.07477 0.06124 0.0
C1251 C 0.21056 0.06512 0.07128 0.0
C1252 C 0.23482 0.03322 0.05443 0.0
C1253 C 0.20326 0.03952 0.07359 0.0
C1254 C 0.23416 0.99023 0.04019 0.0
C1255 C 0.27851 1.0085 0.02703 0.0
N1256 N 0.21524 0.02442 0.06497 0.0
N1257 N 0.26761 0.02393 0.037 0.0
H1258 H 0.7517 0.63963 0.0224 0.0
H1259 H 0.62378 0.62467 0.06023 0.0
H1260 H 0.72619 0.70094 0.04472 0.0
H1261 H 0.6437 0.56486 0.026 0.0
H1262 H 0.6625 0.65174 0.05778 0.0
H1263 H 0.71351 0.61119 0.02614 0.0
C1264 C 0.73805 0.64712 0.02806 0.0
C1265 C 0.74213 0.67273 0.03322 0.0
C1266 C 0.65849 0.63269 0.05085 0.0
C1267 C 0.69844 0.64023 0.03772 0.0
C1268 C 0.63634 0.6171 0.05233 0.0
C1269 C 0.63035 0.59236 0.04325 0.0
C1270 C 0.675 0.6236 0.04029 0.0
C1271 C 0.6475 0.58376 0.03325 0.0
C1272 C 0.71626 0.63086 0.03019 0.0
C1273 C 0.72382 0.68137 0.04049 0.0
N1274 N 0.66904 0.59938 0.03199 0.0
N1275 N 0.70283 0.66517 0.04258 0.0
H1276 H 0.70622 0.47834 0.32704 0.0
H1277 H 0.7735 0.43719 0.22818 0.0
H1278 H 0.69726 0.49868 0.25943 0.0
H1279 H 0.79563 0.4391 0.2983 0.0
H1280 H 0.74364 0.45719 0.23844 0.0
H1281 H 0.73667 0.46003 0.31586 0.0
C1282 C 0.71053 0.47874 0.30979 0.0
C1283 C 0.69927 0.49003 0.29412 0.0
C1284 C 0.75524 0.45347 0.25152 0.0
C1285 C 0.73414 0.46933 0.28127 0.0
C1286 C 0.77225 0.44213 0.24569 0.0
C1287 C 0.78708 0.43663 0.26242 0.0
C1288 C 0.75288 0.45891 0.27424 0.0
C1289 C 0.78477 0.44334 0.28486 0.0
C1290 C 0.72802 0.46848 0.30346 0.0
C1291 C 0.70558 0.49015 0.27201 0.0
N1292 N 0.76783 0.45392 0.29012 0.0
N1293 N 0.72262 0.47992 0.2662 0.0
H1294 H 0.872 0.49036 0.48308 0.0
H1295 H 0.99036 0.50341 0.5551 0.0
H1296 H 0.88213 0.43296 0.52418 0.0
H1297 H 0.98853 0.53374 0.49072 0.0
H1298 H 0.94878 0.48243 0.54816 0.0
H1299 H 0.91362 0.51119 0.48916 0.0
C1300 C 0.88305 0.48205 0.49316 0.0
C1301 C 0.87379 0.45993 0.50306 0.0
C1302 C 0.95757 0.49375 0.53563 0.0
C1303 C 0.92087 0.48384 0.51056 0.0
C1304 C 0.98113 0.50584 0.53966 0.0
C1305 C 0.99275 0.52017 0.52341 0.0
C1306 C 0.94564 0.49654 0.51548 0.0
C1307 C 0.98015 0.52266 0.50358 0.0
C1308 C 0.90668 0.49392 0.49665 0.0
C1309 C 0.88871 0.44992 0.5161 0.0
N1310 N 0.95718 0.51103 0.5002 0.0
N1311 N 0.91155 0.46213 0.51972 0.0
H1312 H 0.41417 0.14013 0.3053 0.0
H1313 H 0.28889 0.14408 0.32897 0.0
H1314 H 0.37729 0.08615 0.34794 0.0
H1315 H 0.31384 0.14764 0.26297 0.0
H1316 H 0.32175 0.12852 0.34192 0.0
H1317 H 0.37866 0.15195 0.29653 0.0
C1318 C 0.39871 0.13108 0.31314 0.0
C1319 C 0.39853 0.11195 0.32714 0.0
C1320 C 0.31953 0.13225 0.32452 0.0
C1321 C 0.35799 0.12531 0.3171 0.0
C1322 C 0.30083 0.14097 0.31711 0.0
C1323 C 0.29857 0.14715 0.29485 0.0
C1324 C 0.33615 0.13045 0.30966 0.0
C1325 C 0.31459 0.14288 0.28017 0.0
C1326 C 0.37845 0.13767 0.30798 0.0
C1327 C 0.37799 0.10087 0.3369 0.0
N1328 N 0.33292 0.13528 0.28796 0.0
N1329 N 0.35835 0.10766 0.33162 0.0
H1330 H 0.3857 0.20795 0.52195 0.0
H1331 H 0.41065 0.08428 0.56468 0.0
H1332 H 0.33365 0.14741 0.54493 0.0
H1333 H 0.45966 0.13691 0.52968 0.0
H1334 H 0.38344 0.1092 0.56027 0.0
H1335 H 0.41423 0.18424 0.52731 0.0
C1336 C 0.38029 0.18971 0.52815 0.0
C1337 C 0.35725 0.17962 0.53296 0.0
C1338 C 0.40015 0.11534 0.55354 0.0
C1339 C 0.38976 0.15249 0.53923 0.0
C1340 C 0.4157 0.10101 0.55595 0.0
C1341 C 0.43751 0.10828 0.54736 0.0
C1342 C 0.40634 0.1373 0.54256 0.0
C1343 C 0.44317 0.13059 0.53675 0.0
C1344 C 0.39656 0.17618 0.53117 0.0
C1345 C 0.35119 0.15591 0.54094 0.0
N1346 N 0.42769 0.14426 0.53461 0.0
N1347 N 0.36732 0.14322 0.54385 0.0
H1348 H 0.67142 0.61351 0.2876 0.0
H1349 H 0.79651 0.71044 0.31418 0.0
H1350 H 0.72813 0.59725 0.32581 0.0
H1351 H 0.73908 0.72624 0.27664 0.0
H1352 H 0.77185 0.66892 0.31882 0.0
H1353 H 0.69618 0.65504 0.28344 0.0
C1354 C 0.68911 0.6187 0.29509 0.0
C1355 C 0.69778 0.60199 0.30705 0.0
C1356 C 0.76468 0.68151 0.30958 0.0
C1357 C 0.72619 0.6494 0.30241 0.0
C1358 C 0.77874 0.70521 0.30694 0.0
C1359 C 0.76987 0.72182 0.29495 0.0
C1360 C 0.74162 0.67442 0.30018 0.0
C1361 C 0.74671 0.71405 0.28594 0.0
C1362 C 0.70323 0.6424 0.29274 0.0
C1363 C 0.72079 0.60963 0.31645 0.0
N1364 N 0.73341 0.69091 0.28873 0.0
N1365 N 0.73423 0.63282 0.31393 0.0
H1366 H 0.90382 0.4935 0.8484 0.0
H1367 H 0.85696 0.37124 0.76445 0.0
H1368 H 0.92379 0.48862 0.78084 0.0
H1369 H 0.84076 0.37673 0.83334 0.0
H1370 H 0.88075 0.41445 0.7694 0.0
H1371 H 0.88005 0.45061 0.84265 0.0
C1372 C 0.90326 0.48333 0.83238 0.0
C1373 C 0.91577 0.49455 0.81509 0.0
C1374 C 0.87194 0.40613 0.78338 0.0
C1375 C 0.88853 0.44551 0.80828 0.0
C1376 C 0.85832 0.38152 0.78055 0.0
C1377 C 0.84692 0.37032 0.79851 0.0
C1378 C 0.87406 0.41954 0.8043 0.0
C1379 C 0.8493 0.38449 0.81902 0.0
C1380 C 0.88966 0.45886 0.82907 0.0
C1381 C 0.91441 0.48059 0.79463 0.0
N1382 N 0.8626 0.4083 0.82133 0.0
N1383 N 0.90097 0.45676 0.79176 0.0
H1384 H 0.1313 0.89213 0.09586 0.0
H1385 H 0.04763 0.9793 0.07655 0.0
H1386 H 0.06819 0.88497 0.1284 0.0
H1387 H 0.12014 1.00333 0.06513 0.0
H1388 H 0.05372 0.9419 0.09157 0.0
H1389 H 0.12646 0.93031 0.08041 0.0
C1390 C 0.11643 0.89853 0.09968 0.0
C1391 C 0.10013 0.88536 0.11344 0.0
C1392 C 0.06834 0.95536 0.08584 0.0
C1393 C 0.09441 0.92871 0.09576 0.0
C1394 C 0.06486 0.97673 0.0772 0.0
C1395 C 0.0834 0.99456 0.0696 0.0
C1396 C 0.09047 0.95146 0.08665 0.0
C1397 C 0.10537 0.99015 0.07092 0.0
C1398 C 0.11373 0.92033 0.09096 0.0
C1399 C 0.08122 0.89452 0.11792 0.0
N1400 N 0.10828 0.96896 0.07915 0.0
N1401 N 0.07883 0.91548 0.10904 0.0
H1402 H 0.97353 0.26843 0.8718 0.0
H1403 H 0.84311 0.27916 0.8671 0.0
H1404 H 0.93886 0.27655 0.93135 0.0
H1405 H 0.88292 0.2788 0.80979 0.0
H1406 H 0.87581 0.27354 0.89101 0.0
H1407 H 0.93825 0.26724 0.84896 0.0
C1408 C 0.9584 0.26979 0.88009 0.0
C1409 C 0.95919 0.27277 0.90351 0.0
C1410 C 0.87725 0.27455 0.87317 0.0
C1411 C 0.91858 0.27163 0.87737 0.0
C1412 C 0.85859 0.27768 0.85952 0.0
C1413 C 0.86033 0.27968 0.83642 0.0
C1414 C 0.89766 0.27324 0.86359 0.0
C1415 C 0.88081 0.27764 0.82751 0.0
C1416 C 0.93822 0.26915 0.86702 0.0
C1417 C 0.93899 0.2743 0.91333 0.0
N1418 N 0.89861 0.27463 0.84108 0.0
N1419 N 0.91951 0.2739 0.90019 0.0
H1420 H 0.57538 0.2328 0.63697 0.0
H1421 H 0.61114 0.14221 0.54649 0.0
H1422 H 0.61967 0.25986 0.58488 0.0
H1423 H 0.559 0.11782 0.59271 0.0
H1424 H 0.61655 0.18514 0.56142 0.0
H1425 H 0.57106 0.1904 0.62195 0.0
C1426 C 0.58418 0.22982 0.62231 0.0
C1427 C 0.59788 0.24993 0.61214 0.0
C1428 C 0.60396 0.17035 0.56829 0.0
C1429 C 0.5931 0.2012 0.59484 0.0
C1430 C 0.60093 0.14581 0.55985 0.0
C1431 C 0.5846 0.12628 0.56835 0.0
C1432 C 0.59068 0.17541 0.58545 0.0
C1433 C 0.5718 0.13217 0.58559 0.0
C1434 C 0.5817 0.20555 0.61372 0.0
C1435 C 0.60889 0.24489 0.59319 0.0
N1436 N 0.57512 0.15613 0.59353 0.0
N1437 N 0.60631 0.22101 0.58517 0.0
H1438 H 0.56494 0.75417 0.38203 0.0
H1439 H 0.68193 0.84196 0.34292 0.0
H1440 H 0.59777 0.82792 0.41233 0.0
H1441 H 0.65601 0.76417 0.32126 0.0
H1442 H 0.64992 0.83785 0.36682 0.0
H1443 H 0.59698 0.75807 0.35812 0.0
C1444 C 0.5789 0.77118 0.38365 0.0
C1445 C 0.57872 0.79076 0.39917 0.0
C1446 C 0.65123 0.82167 0.35686 0.0
C1447 C 0.61537 0.7954 0.37184 0.0
C1448 C 0.6694 0.82404 0.3431 0.0
C1449 C 0.6716 0.80338 0.33003 0.0
C1450 C 0.63498 0.7985 0.35747 0.0
C1451 C 0.65507 0.78052 0.33119 0.0
C1452 C 0.5972 0.77338 0.37003 0.0
C1453 C 0.59725 0.81237 0.40059 0.0
N1454 N 0.63741 0.77871 0.34461 0.0
N1455 N 0.61479 0.81414 0.38705 0.0
H1456 H 0.06053 0.1985 0.40312 0.0
H1457 H 0.05169 0.13649 0.52376 0.0
H1458 H 0.06227 0.24104 0.46542 0.0
H1459 H 0.06481 0.09838 0.4639 0.0
H1460 H 0.05278 0.17321 0.50268 0.0
H1461 H 0.05946 0.16163 0.42409 0.0
C1462 C 0.06062 0.20034 0.42119 0.0
C1463 C 0.06153 0.22378 0.43204 0.0
C1464 C 0.05538 0.15688 0.49399 0.0
C1465 C 0.06004 0.18003 0.457 0.0
C1466 C 0.05469 0.1355 0.50618 0.0
C1467 C 0.05808 0.11338 0.49609 0.0
C1468 C 0.05925 0.15693 0.47093 0.0
C1469 C 0.06202 0.11441 0.47294 0.0
C1470 C 0.06005 0.17894 0.43332 0.0
C1471 C 0.06163 0.22394 0.4558 0.0
N1472 N 0.06235 0.13528 0.46146 0.0
N1473 N 0.06079 0.20288 0.46713 0.0
H1474 H 0.64756 0.33025 0.18076 0.0
H1475 H 0.7215 0.2796 0.27821 0.0
H1476 H 0.61523 0.28827 0.23336 0.0
H1477 H 0.7543 0.3274 0.22934 0.0
H1478 H 0.68337 0.28172 0.26193 0.0
H1479 H 0.68577 0.3287 0.19741 0.0
C1480 C 0.64823 0.3207 0.19585 0.0
C1481 C 0.6272 0.30951 0.20532 0.0
C1482 C 0.6988 0.29181 0.25463 0.0
C1483 C 0.67262 0.30739 0.22509 0.0
C1484 C 0.72098 0.29059 0.26405 0.0
C1485 C 0.74214 0.30326 0.25554 0.0
C1486 C 0.69673 0.30576 0.23602 0.0
C1487 C 0.73915 0.31711 0.23692 0.0
C1488 C 0.67044 0.3198 0.20547 0.0
C1489 C 0.63031 0.29741 0.22506 0.0
N1490 N 0.71742 0.31787 0.22803 0.0
N1491 N 0.65204 0.29667 0.23397 0.0
H1492 H 0.563 0.85162 0.96675 0.0
H1493 H 0.57367 0.99957 0.96226 0.0
H1494 H 0.57432 0.88919 0.90629 0.0
H1495 H 0.56061 0.96099 0.02205 0.0
H1496 H 0.57441 0.96035 0.94187 0.0
H1497 H 0.56261 0.89102 0.98695 0.0
C1498 C 0.5655 0.86804 0.95756 0.0
C1499 C 0.56877 0.86634 0.93441 0.0
C1500 C 0.57139 0.96034 0.95946 0.0
C1501 C 0.56826 0.91289 0.95812 0.0
C1502 C 0.57097 0.98302 0.97129 0.0
C1503 C 0.56708 0.9844 0.99434 0.0
C1504 C 0.56795 0.93807 0.97037 0.0
C1505 C 0.56369 0.96157 0.0045 0.0
C1506 C 0.56523 0.89082 0.96926 0.0
C1507 C 0.57178 0.88896 0.92397 0.0
N1508 N 0.56422 0.93987 0.99267 0.0
N1509 N 0.57146 0.91081 0.9357 0.0
H1510 H 0.97222 0.81716 0.67816 0.0
H1511 H 0.87913 0.75894 0.76713 0.0
H1512 H 0.99337 0.77958 0.73261 0.0
H1513 H 0.88158 0.82965 0.74207 0.0
H1514 H 0.91606 0.76003 0.75036 0.0
H1515 H 0.93599 0.81615 0.69593 0.0
C1516 C 0.96948 0.80852 0.69379 0.0
C1517 C 0.98698 0.79861 0.70346 0.0
C1518 C 0.90862 0.77538 0.74841 0.0
C1519 C 0.94329 0.79658 0.72441 0.0
C1520 C 0.8871 0.77475 0.7581 0.0
C1521 C 0.87626 0.7943 0.75663 0.0
C1522 C 0.91994 0.79533 0.73597 0.0
C1523 C 0.88854 0.814 0.74425 0.0
C1524 C 0.9484 0.80799 0.70412 0.0
C1525 C 0.9812 0.78775 0.72405 0.0
N1526 N 0.90889 0.81378 0.73447 0.0
N1527 N 0.9603 0.78679 0.73335 0.0
H1528 H 0.17242 0.06224 0.89175 0.0
H1529 H 0.08881 1.00197 0.98346 0.0
H1530 H 0.11916 0.99271 0.88036 0.0
H1531 H 0.13375 0.07678 0.99145 0.0
H1532 H 0.10559 0.99507 0.94867 0.0
H1533 H 0.16399 0.06451 0.93098 0.0
C1534 C 0.15911 0.04732 0.89758 0.0
C1535 C 0.14622 0.02741 0.88277 0.0
C1536 C 0.11195 0.01293 0.95812 0.0
C1537 C 0.13652 0.02992 0.92753 0.0
C1538 C 0.10239 0.01691 0.97802 0.0
C1539 C 0.10958 0.04018 0.99016 0.0
C1540 C 0.12879 0.03235 0.95023 0.0
C1541 C 0.1275 0.05866 0.98247 0.0
C1542 C 0.15431 0.04865 0.91995 0.0
C1543 C 0.12933 1.0085 0.8912 0.0
N1544 N 0.13631 0.05444 0.9628 0.0
N1545 N 0.12482 1.01033 0.91301 0.0
H1546 H 0.77539 0.36129 0.55392 0.0
H1547 H 0.86477 0.33947 0.64995 0.0
H1548 H 0.84305 0.41173 0.57232 0.0
H1549 H 0.79105 0.30615 0.64823 0.0
H1550 H 0.85844 0.36057 0.61649 0.0
H1551 H 0.78204 0.33587 0.58431 0.0
C1552 C 0.79159 0.36699 0.56436 0.0
C1553 C 0.80863 0.38868 0.56078 0.0
C1554 C 0.84368 0.34848 0.62336 0.0
C1555 C 0.81647 0.35967 0.59505 0.0
C1556 C 0.8473 0.3363 0.64228 0.0
C1557 C 0.82838 0.32122 0.65184 0.0
C1558 C 0.821 0.34533 0.61386 0.0
C1559 C 0.80605 0.31788 0.64143 0.0
C1560 C 0.79537 0.35252 0.58163 0.0
C1561 C 0.82937 0.39524 0.57466 0.0
N1562 N 0.80294 0.32991 0.62299 0.0
N1563 N 0.83274 0.38075 0.59114 0.0
H1564 H 0.48281 0.12137 0.39861 0.0
H1565 H 0.57911 0.07198 0.46359 0.0
H1566 H 0.52125 0.07529 0.36817 0.0
H1567 H 0.52886 0.10098 0.49617 0.0
H1568 H 0.5657 0.08432 0.42798 0.0
H1569 H 0.50724 0.12498 0.43367 0.0
C1570 C 0.49666 0.11241 0.39922 0.0
C1571 C 0.49979 0.09758 0.38076 0.0
C1572 C 0.55783 0.08826 0.44299 0.0
C1573 C 0.52761 0.10165 0.42044 0.0
C1574 C 0.56544 0.0812 0.46332 0.0
C1575 C 0.55466 0.08488 0.48275 0.0
C1576 C 0.5393 0.09901 0.44213 0.0
C1577 C 0.53732 0.09731 0.48148 0.0
C1578 C 0.51053 0.11444 0.41917 0.0
C1579 C 0.51802 0.08649 0.38224 0.0
N1580 N 0.52993 0.10363 0.46141 0.0
N1581 N 0.53111 0.08853 0.40186 0.0
H1582 H 0.79317 0.77699 0.09252 0.0
H1583 H 0.83252 0.75339 0.21856 0.0
H1584 H 0.83436 0.72755 0.10927 0.0
H1585 H 0.78951 0.80187 0.2045 0.0
H1586 H 0.83403 0.74513 0.17842 0.0
H1587 H 0.7925 0.78791 0.13285 0.0
C1588 C 0.80225 0.7686 0.1046 0.0
C1589 C 0.81388 0.75131 0.09733 0.0
C1590 C 0.82423 0.75759 0.18401 0.0
C1591 C 0.81303 0.7636 0.14368 0.0
C1592 C 0.82332 0.76234 0.20709 0.0
C1593 C 0.81077 0.77834 0.21521 0.0
C1594 C 0.81253 0.76886 0.16855 0.0
C1595 C 0.79937 0.78936 0.19919 0.0
C1596 C 0.80178 0.77477 0.12767 0.0
C1597 C 0.82517 0.74095 0.11391 0.0
N1598 N 0.80049 0.78441 0.17673 0.0
N1599 N 0.82442 0.74719 0.13609 0.0
H1600 H 0.09628 0.98539 0.75479 0.0
H1601 H 0.02658 0.07043 0.69746 0.0
H1602 H 0.08429 0.05041 0.78805 0.0
H1603 H 0.04635 0.01078 0.66278 0.0
H1604 H 0.03818 0.05647 0.73315 0.0
H1605 H 0.0685 0.98744 0.7239 0.0
C1606 C 0.08743 0.9998 0.7558 0.0
C1607 C 0.09293 0.01807 0.77375 0.0
C1608 C 0.03951 0.04615 0.71772 0.0
C1609 C 0.06139 0.02074 0.73838 0.0
C1610 C 0.03296 0.05415 0.69734 0.0
C1611 C 0.03593 0.0421 0.67704 0.0
C1612 C 0.04919 0.02603 0.71779 0.0
C1613 C 0.04374 0.02073 0.67793 0.0
C1614 C 0.07161 1.001 0.73814 0.0
C1615 C 0.0808 0.03617 0.77434 0.0
N1616 N 0.05047 0.01365 0.69794 0.0
N1617 N 0.06589 0.03732 0.75669 0.0
H1618 H 0.79378 0.43245 0.42623 0.0
H1619 H 0.77949 0.3035 0.35642 0.0
H1620 H 0.771 0.36071 0.45247 0.0
H1621 H 0.80442 0.37425 0.3288 0.0
H1622 H 0.77083 0.3245 0.38986 0.0
H1623 H 0.792 0.4119 0.38875 0.0
C1624 C 0.78798 0.41239 0.42402 0.0
C1625 C 0.78282 0.3982 0.44247 0.0
C1626 C 0.77807 0.33551 0.37649 0.0
C1627 C 0.78095 0.37468 0.39986 0.0
C1628 C 0.78313 0.32352 0.35737 0.0
C1629 C 0.7931 0.3372 0.33995 0.0
C1630 C 0.78321 0.36147 0.37842 0.0
C1631 C 0.79695 0.36304 0.34195 0.0
C1632 C 0.78706 0.40069 0.40266 0.0
C1633 C 0.77538 0.37233 0.43873 0.0
N1634 N 0.79226 0.37441 0.36103 0.0
N1635 N 0.77491 0.36141 0.41789 0.0
H1636 H 0.5221 0.09323 0.28622 0.0
H1637 H 0.4996 0.05895 0.15508 0.0
H1638 H 0.45961 0.0942 0.24704 0.0
H1639 H 0.56515 0.06501 0.19215 0.0
H1640 H 0.48634 0.0761 0.18812 0.0
H1641 H 0.54014 0.08806 0.25161 0.0
C1642 C 0.51234 0.09285 0.27031 0.0
C1643 C 0.48922 0.0937 0.26941 0.0
C1644 C 0.5037 0.07389 0.18904 0.0
C1645 C 0.50955 0.08744 0.22991 0.0
C1646 C 0.51132 0.06412 0.17013 0.0
C1647 C 0.53351 0.06045 0.17087 0.0
C1648 C 0.51823 0.07978 0.20898 0.0
C1649 C 0.54776 0.06712 0.19096 0.0
C1650 C 0.52261 0.08981 0.25058 0.0
C1651 C 0.4774 0.0933 0.24844 0.0
N1652 N 0.53981 0.07632 0.20931 0.0
N1653 N 0.48759 0.08982 0.22949 0.0
H1654 H 0.84128 0.78185 0.97268 0.0
H1655 H 0.78905 0.74356 0.84439 0.0
H1656 H 0.78333 0.71899 0.95066 0.0
H1657 H 0.84524 0.80938 0.86277 0.0
H1658 H 0.78813 0.73453 0.88352 0.0
H1659 H 0.84405 0.79274 0.93342 0.0
C1660 C 0.82906 0.77043 0.95969 0.0
C1661 C 0.81199 0.74945 0.96517 0.0
C1662 C 0.80077 0.75096 0.87915 0.0
C1663 C 0.81521 0.7617 0.92004 0.0
C1664 C 0.80137 0.75614 0.85661 0.0
C1665 C 0.81729 0.77732 0.84996 0.0
C1666 C 0.81618 0.76698 0.89566 0.0
C1667 C 0.83271 0.79278 0.86693 0.0
C1668 C 0.8307 0.77662 0.93724 0.0
C1669 C 0.79676 0.73533 0.94746 0.0
N1670 N 0.83174 0.78735 0.88893 0.0
N1671 N 0.79877 0.74165 0.92594 0.0
H1672 H 0.88285 0.1415 0.02764 0.0
H1673 H 0.91954 0.01659 0.02691 0.0
H1674 H 0.851 0.08135 0.06688 0.0
H1675 H 0.93464 0.0671 0.97476 0.0
H1676 H 0.89299 0.03872 0.04082 0.0
H1677 H 0.90224 0.11439 0.00823 0.0
C1678 C 0.88008 0.12262 0.03226 0.0
C1679 C 0.8655 0.11366 0.04899 0.0
C1680 C 0.9018 0.0447 0.02609 0.0
C1681 C 0.88735 0.08253 0.02674 0.0
C1682 C 0.91679 0.03188 0.01794 0.0
C1683 C 0.92962 0.04021 0.99979 0.0
C1684 C 0.89986 0.06616 0.01621 0.0
C1685 C 0.92552 0.0604 0.98912 0.0
C1686 C 0.89093 0.10709 0.02102 0.0
C1687 C 0.86225 0.08899 0.05416 0.0
N1688 N 0.9113 0.07298 0.99774 0.0
N1689 N 0.87322 0.07429 0.04316 0.0
H1690 H 0.40209 0.40228 0.05069 0.0
H1691 H 0.48468 0.51414 0.99325 0.0
H1692 H 0.37444 0.44134 1.00084 0.0
H1693 H 0.49735 0.49754 0.06148 0.0
H1694 H 0.44674 0.4827 0.99105 0.0
H1695 H 0.44023 0.43201 0.04985 0.0
C1696 C 0.4041 0.41696 0.03941 0.0
C1697 C 0.38505 0.41944 0.02592 0.0
C1698 C 0.45793 0.48607 0.00645 0.0
C1699 C 0.42866 0.45337 0.02473 0.0
C1700 C 0.47952 0.50392 0.0077 0.0
C1701 C 0.49411 0.50865 0.02763 0.0
C1702 C 0.45127 0.47248 0.02506 0.0
C1703 C 0.4866 0.49479 0.04585 0.0
C1704 C 0.42582 0.43398 0.03901 0.0
C1705 C 0.38866 0.43888 0.01163 0.0
N1706 N 0.46585 0.47729 0.04407 0.0
N1707 N 0.41006 0.45509 0.01136 0.0
H1708 H 0.41706 0.61028 0.79038 0.0
H1709 H 0.29508 0.64014 0.78316 0.0
H1710 H 0.36142 0.57516 0.74009 0.0
H1711 H 0.34671 0.66619 0.83903 0.0
H1712 H 0.31774 0.61369 0.76868 0.0
H1713 H 0.391 0.62991 0.80911 0.0
C1714 C 0.39938 0.60682 0.78322 0.0
C1715 C 0.39139 0.59126 0.76359 0.0
C1716 C 0.32396 0.6249 0.78429 0.0
C1717 C 0.36143 0.61339 0.78501 0.0
C1718 C 0.31087 0.63981 0.79274 0.0
C1719 C 0.31914 0.65561 0.81224 0.0
C1720 C 0.34556 0.62598 0.7953 0.0
C1721 C 0.33993 0.65464 0.8237 0.0
C1722 C 0.38445 0.61785 0.79402 0.0
C1723 C 0.36828 0.58719 0.75513 0.0
N1724 N 0.35261 0.64036 0.81488 0.0
N1725 N 0.35411 0.59829 0.76586 0.0
H1726 H 0.24849 0.61174 0.59182 0.0
H1727 H 0.13733 0.60047 0.50915 0.0
H1728 H 0.25366 0.62971 0.52301 0.0
H1729 H 0.13691 0.55193 0.56247 0.0
H1730 H 0.17955 0.6163 0.5163 0.0
H1731 H 0.20654 0.59425 0.58372 0.0
C1732 C 0.24077 0.61191 0.57502 0.0
C1733 C 0.25441 0.62205 0.55802 0.0
C1734 C 0.17014 0.60209 0.52631 0.0
C1735 C 0.20679 0.6026 0.5488 0.0
C1736 C 0.14613 0.59316 0.52231 0.0
C1737 C 0.13373 0.57486 0.53521 0.0
C1738 C 0.18159 0.59299 0.5436 0.0
C1739 C 0.14589 0.56593 0.55205 0.0
C1740 C 0.21695 0.60192 0.57041 0.0
C1741 C 0.24368 0.6219 0.53653 0.0
N1742 N 0.16918 0.57525 0.55591 0.0
N1743 N 0.2204 0.6125 0.53255 0.0
H1744 H 0.71924 0.9956 0.75605 0.0
H1745 H 0.77057 0.93031 0.85243 0.0
H1746 H 0.69085 0.98912 0.82042 0.0
H1747 H 0.80681 0.95795 0.79532 0.0
H1748 H 0.7415 0.95206 0.84244 0.0
H1749 H 0.7511 0.98068 0.7708 0.0
C1750 C 0.71964 0.99086 0.7733 0.0
C1751 C 0.70235 0.99345 0.78703 0.0
C1752 C 0.75611 0.95372 0.83242 0.0
C1753 C 0.73898 0.97653 0.80414 0.0
C1754 C 0.77268 0.94134 0.8381 0.0
C1755 C 0.79103 0.94209 0.82456 0.0
C1756 C 0.75786 0.96662 0.81297 0.0
C1757 C 0.7931 0.9569 0.80635 0.0
C1758 C 0.73798 0.98257 0.78179 0.0
C1759 C 0.70385 0.98724 0.80929 0.0
N1760 N 0.77652 0.96824 0.80091 0.0
N1761 N 0.72185 0.97888 0.81718 0.0
H1762 H 0.73863 0.88588 0.53689 0.0
H1763 H 0.72869 0.02549 0.5416 0.0
H1764 H 0.79679 0.95062 0.53635 0.0
H1765 H 0.66918 0.96183 0.52767 0.0
H1766 H 0.75362 0.99782 0.5431 0.0
H1767 H 0.71255 0.9129 0.53676 0.0
C1768 C 0.74589 0.90574 0.53676 0.0
C1769 C 0.76989 0.91602 0.53656 0.0
C1770 C 0.73511 0.98986 0.53971 0.0
C1771 C 0.74032 0.94694 0.53658 0.0
C1772 C 0.72083 1.0057 0.53874 0.0
C1773 C 0.69674 0.99608 0.53429 0.0
C1774 C 0.72534 0.96409 0.53634 0.0
C1775 C 0.6876 0.97014 0.53133 0.0
C1776 C 0.73103 0.92112 0.53666 0.0
C1777 C 0.7784 0.94186 0.53642 0.0
N1778 N 0.7019 0.95506 0.53235 0.0
N1779 N 0.76367 0.95638 0.53648 0.0
H1780 H 0.43175 0.46406 0.73443 0.0
H1781 H 0.30975 0.36521 0.74279 0.0
H1782 H 0.36551 0.4787 0.72105 0.0
H1783 H 0.37488 0.35554 0.76965 0.0
H1784 H 0.33055 0.40401 0.72871 0.0
H1785 H 0.41167 0.42115 0.74061 0.0
C1786 C 0.413 0.45809 0.73234 0.0
C1787 C 0.40021 0.47492 0.72747 0.0
C1788 C 0.34031 0.3934 0.73765 0.0
C1789 C 0.37726 0.4262 0.73471 0.0
C1790 C 0.32845 0.37123 0.74576 0.0
C1791 C 0.34058 0.35723 0.75768 0.0
C1792 C 0.36451 0.40169 0.74142 0.0
C1793 C 0.36482 0.36592 0.76081 0.0
C1794 C 0.40157 0.4337 0.73603 0.0
C1795 C 0.37599 0.46632 0.72498 0.0
N1796 N 0.37602 0.3877 0.75279 0.0
N1797 N 0.36528 0.44258 0.72883 0.0
H1798 H 0.19574 0.61671 0.31491 0.0
H1799 H 0.29725 0.71951 0.26706 0.0
H1800 H 0.22242 0.60641 0.25106 0.0
H1801 H 0.25661 0.73525 0.31987 0.0
H1802 H 0.27418 0.67607 0.26425 0.0
H1803 H 0.22217 0.65854 0.32013 0.0
C1804 C 0.20722 0.62325 0.30203 0.0
C1805 C 0.20681 0.60821 0.28245 0.0
C1806 C 0.27041 0.68906 0.27649 0.0
C1807 C 0.23711 0.65587 0.28836 0.0
C1808 C 0.28362 0.7138 0.27817 0.0
C1809 C 0.27868 0.73103 0.29358 0.0
C1810 C 0.25237 0.68153 0.29048 0.0
C1811 C 0.26082 0.72263 0.30757 0.0
C1812 C 0.22226 0.6471 0.305 0.0
C1813 C 0.22209 0.61752 0.26633 0.0
N1814 N 0.2483 0.69849 0.30566 0.0
N1815 N 0.23665 0.6408 0.26963 0.0
H1816 H 0.5015 0.69772 0.45493 0.0
H1817 H 0.58071 0.64609 0.54175 0.0
H1818 H 0.55885 0.74464 0.49777 0.0
H1819 H 0.53205 0.5991 0.49071 0.0
H1820 H 0.57054 0.68209 0.52797 0.0
H1821 H 0.50972 0.66123 0.47029 0.0
C1822 C 0.51567 0.70037 0.46776 0.0
C1823 C 0.52953 0.72429 0.47508 0.0
C1824 C 0.56207 0.66392 0.51976 0.0
C1825 C 0.53914 0.68256 0.49262 0.0
C1826 C 0.56787 0.64328 0.52762 0.0
C1827 C 0.55726 0.61941 0.51737 0.0
C1828 C 0.5454 0.66082 0.50155 0.0
C1829 C 0.54074 0.61709 0.49912 0.0
C1830 C 0.52043 0.67951 0.47642 0.0
C1831 C 0.54773 0.72657 0.49163 0.0
N1832 N 0.53529 0.63751 0.49183 0.0
N1833 N 0.55202 0.706 0.49981 0.0
H1834 H 0.68607 0.3162 0.65379 0.0
H1835 H 0.74731 0.33617 0.77881 0.0
H1836 H 0.65671 0.34276 0.71068 0.0
H1837 H 0.76819 0.29653 0.72376 0.0
H1838 H 0.71696 0.34399 0.75334 0.0
H1839 H 0.71952 0.31449 0.67846 0.0
C1840 C 0.68678 0.32191 0.67143 0.0
C1841 C 0.66853 0.32948 0.68023 0.0
C1842 C 0.7283 0.3337 0.74686 0.0
C1843 C 0.70667 0.32746 0.70859 0.0
C1844 C 0.74565 0.32926 0.76138 0.0
C1845 C 0.7603 0.31558 0.75348 0.0
C1846 C 0.72571 0.32454 0.72427 0.0
C1847 C 0.75732 0.30711 0.73069 0.0
C1848 C 0.70583 0.32084 0.68553 0.0
C1849 C 0.67035 0.33668 0.70323 0.0
N1850 N 0.74038 0.31168 0.71694 0.0
N1851 N 0.68903 0.33539 0.71665 0.0
H1852 H 1.00737 0.36564 0.94751 0.0
H1853 H 0.08245 0.47272 0.03574 0.0
H1854 H 0.05058 0.35101 1.00233 0.0
H1855 H 0.02069 0.47889 0.99846 0.0
H1856 H 0.0732 0.4291 0.02176 0.0
H1857 H 1.01394 0.40806 0.96405 0.0
C1858 C 0.01815 0.37133 0.96312 0.0
C1859 C 0.02847 0.35478 0.97357 0.0
C1860 C 0.06162 0.43997 0.01674 0.0
C1861 C 0.03633 0.40346 0.99241 0.0
C1862 C 0.06693 0.46492 0.0246 0.0
C1863 C 0.05235 0.47955 0.01821 0.0
C1864 C 0.04179 0.42959 1.00203 0.0
C1865 C 0.03241 0.46833 0.00386 0.0
C1866 C 0.02184 0.39553 0.97256 0.0
C1867 C 0.04224 0.36315 0.99377 0.0
N1868 N 0.02783 0.44409 0.99609 0.0
N1869 N 0.04599 0.387 1.00241 0.0
H1870 H 0.02416 0.77941 0.15255 0.0
H1871 H 0.97445 0.79681 0.27133 0.0
H1872 H 0.06611 0.8185 0.21142 0.0
H1873 H 0.93119 0.76249 0.21156 0.0
H1874 H 1.0085 0.80262 0.25006 0.0
H1875 H 0.99017 0.77077 0.17428 0.0
C1876 C 0.02623 0.78605 0.17008 0.0
C1877 C 0.04796 0.79973 0.1802 0.0
C1878 C 0.99158 0.79376 0.24158 0.0
C1879 C 1.00919 0.79 0.20512 0.0
C1880 C 0.97212 0.7903 0.25376 0.0
C1881 C 0.94991 0.77911 0.24322 0.0
C1882 C 0.98888 0.78596 0.21866 0.0
C1883 C 0.94795 0.77145 0.22031 0.0
C1884 C 1.00682 0.78117 0.18245 0.0
C1885 C 0.04967 0.80792 0.20294 0.0
N1886 N 0.96718 0.77501 0.20879 0.0
N1887 N 0.03054 0.80297 0.21462 0.0
H1888 H 0.55296 0.35664 0.10096 0.0
H1889 H 0.56881 0.50658 0.10801 0.0
H1890 H 0.56949 0.40184 0.1633 0.0
H1891 H 0.56027 0.462 0.04565 0.0
H1892 H 0.56796 0.4693 0.12831 0.0
H1893 H 0.55435 0.3942 0.08102 0.0
C1894 C 0.5569 0.37435 0.11066 0.0
C1895 C 0.56113 0.37526 0.13428 0.0
C1896 C 0.56632 0.46753 0.11018 0.0
C1897 C 0.56264 0.41984 0.11076 0.0
C1898 C 0.56684 0.48913 0.09837 0.0
C1899 C 0.5648 0.48832 0.07459 0.0
C1900 C 0.56351 0.44404 0.09856 0.0
C1901 C 0.56208 0.46436 0.06376 0.0
C1902 C 0.5577 0.3961 0.09907 0.0
C1903 C 0.5661 0.39949 0.14526 0.0
N1904 N 0.56149 0.44373 0.07559 0.0
N1905 N 0.56662 0.42028 0.13365 0.0
H1906 H 0.97516 0.2573 0.37685 0.0
H1907 H 0.89879 0.33095 0.30342 0.0
H1908 H 1.00663 0.32075 0.3417 0.0
H1909 H 0.86818 0.25971 0.32736 0.0
H1910 H 0.93723 0.3287 0.3187 0.0
H1911 H 0.93661 0.25885 0.361 0.0
C1912 C 0.97425 0.27162 0.36578 0.0
C1913 C 0.99515 0.28879 0.36088 0.0
C1914 C 0.92221 0.31346 0.32072 0.0
C1915 C 0.94931 0.29099 0.34226 0.0
C1916 C 0.89984 0.31473 0.31189 0.0
C1917 C 0.87919 0.29554 0.3137 0.0
C1918 C 0.92497 0.29288 0.33213 0.0
C1919 C 0.8829 0.27519 0.32515 0.0
C1920 C 0.95184 0.2725 0.35661 0.0
C1921 C 0.99168 0.30682 0.34624 0.0
N1922 N 0.90476 0.27455 0.33378 0.0
N1923 N 0.96977 0.30745 0.33781 0.0
H1924 H 0.05418 0.74745 0.59673 0.0
H1925 H 0.06277 0.60495 0.60032 0.0
H1926 H 0.05025 0.70973 0.65734 0.0
H1927 H 0.05443 0.63817 0.53857 0.0
H1928 H 0.06016 0.64309 0.62122 0.0
H1929 H 0.05608 0.70904 0.57565 0.0
C1930 C 0.05365 0.7312 0.60577 0.0
C1931 C 0.0519 0.73252 0.62923 0.0
C1932 C 0.0589 0.64219 0.6031 0.0
C1933 C 0.05445 0.68725 0.60453 0.0
C1934 C 0.06045 0.62014 0.59096 0.0
C1935 C 0.05887 0.61756 0.5672 0.0
C1936 C 0.05597 0.66275 0.59183 0.0
C1937 C 0.05577 0.6386 0.55667 0.0
C1938 C 0.05476 0.709 0.59356 0.0
C1939 C 0.05144 0.7102 0.63944 0.0
N1940 N 0.05456 0.65987 0.56884 0.0
N1941 N 0.05279 0.68901 0.62727 0.0
H1942 H 0.61554 0.76921 0.83484 0.0
H1943 H 0.75613 0.83211 0.83364 0.0
H1944 H 0.65432 0.82554 0.88482 0.0
H1945 H 0.71949 0.76775 0.79062 0.0
H1946 H 0.71968 0.83155 0.85072 0.0
H1947 H 0.65197 0.76984 0.81756 0.0
C1948 C 0.63153 0.78188 0.84235 0.0
C1949 C 0.63081 0.79734 0.86181 0.0
C1950 C 0.71938 0.81749 0.83751 0.0
C1951 C 0.67443 0.79831 0.84112 0.0
C1952 C 0.74058 0.81781 0.82747 0.0
C1953 C 0.74196 0.80001 0.81008 0.0
C1954 C 0.69821 0.7993 0.83046 0.0
C1955 C 0.72024 0.78212 0.80367 0.0
C1956 C 0.65273 0.78218 0.83229 0.0
C1957 C 0.65307 0.81309 0.87007 0.0
N1958 N 0.69991 0.78235 0.81354 0.0
N1959 N 0.67329 0.81318 0.85989 0.0
H1960 H 0.49177 0.60594 0.6984 0.0
H1961 H 0.56193 0.58969 0.61625 0.0
H1962 H 0.43903 0.55057 0.65715 0.0
H1963 H 0.4994 0.56164 0.57213 0.0
H1964 H 0.53879 0.59711 0.64616 0.0
H1965 H 0.51524 0.61297 0.66644 0.0
C1966 C 0.48507 0.59543 0.68254 0.0
C1967 C 0.46373 0.57722 0.6805 0.0
C1968 C 0.53007 0.59002 0.62982 0.0
C1969 C 0.49077 0.58438 0.64421 0.0
C1970 C 0.54332 0.58542 0.61276 0.0
C1971 C 0.53257 0.57474 0.59173 0.0
C1972 C 0.50584 0.58387 0.62584 0.0
C1973 C 0.50841 0.56973 0.58814 0.0
C1974 C 0.4986 0.5992 0.66437 0.0
C1975 C 0.45561 0.56446 0.65952 0.0
N1976 N 0.49582 0.574 0.60516 0.0
N1977 N 0.4693 0.56805 0.64223 0.0
H1978 H 0.79212 0.16163 1.00039 0.0
H1979 H 0.80042 0.29194 0.95015 0.0
H1980 H 0.82687 0.23174 0.03686 0.0
H1981 H 0.7583 0.22172 0.91887 0.0
H1982 H 0.80971 0.27079 0.98252 0.0
H1983 H 0.7799 0.18374 0.97026 0.0
C1984 C 0.79727 0.18172 1.002 0.0
C1985 C 0.8106 0.19491 0.02108 0.0
C1986 C 0.79828 0.26006 0.96865 0.0
C1987 C 0.79652 0.22037 0.9867 0.0
C1988 C 0.79281 0.27214 0.95026 0.0
C1989 C 0.77869 0.25852 0.93173 0.0
C1990 C 0.78964 0.23419 0.96843 0.0
C1991 C 0.76957 0.23287 0.93263 0.0
C1992 C 0.79017 0.19434 0.98484 0.0
C1993 C 0.81666 0.2209 0.02236 0.0
N1994 N 0.77535 0.22151 0.95059 0.0
N1995 N 0.80961 0.23283 0.00534 0.0
H1996 H 0.14963 0.49707 0.19506 0.0
H1997 H 0.04935 0.52434 0.11512 0.0
H1998 H 0.10232 0.5376 0.21664 0.0
H1999 H 0.11528 0.52112 0.09265 0.0
H2000 H 0.06143 0.51366 0.15222 0.0
H2001 H 0.12973 0.49094 0.15708 0.0
C2002 C 0.13482 0.50423 0.19185 0.0
C2003 C 0.12777 0.51824 0.20864 0.0
C2004 C 0.073 0.51483 0.13897 0.0
C2005 C 0.10489 0.5109 0.16601 0.0
C2006 C 0.06614 0.52087 0.11789 0.0
C2007 C 0.0816 0.52415 0.10112 0.0
C2008 C 0.09527 0.51173 0.14303 0.0
C2009 C 0.10312 0.51933 0.10541 0.0
C2010 C 0.12354 0.50075 0.17032 0.0
C2011 C 0.10848 0.52711 0.20389 0.0
N2012 N 0.10944 0.51357 0.12607 0.0
N2013 N 0.09774 0.52338 0.18294 0.0
H2014 H 0.77551 0.84373 0.46335 0.0
H2015 H 0.84472 0.8063 0.36278 0.0
H2016 H 0.8424 0.83005 0.47391 0.0
H2017 H 0.77349 0.80819 0.35393 0.0
H2018 H 0.8445 0.81569 0.40315 0.0
H2019 H 0.77461 0.83125 0.42339 0.0
C2020 C 0.78994 0.83786 0.45734 0.0
C2021 C 0.80903 0.83788 0.47221 0.0
C2022 C 0.82888 0.81399 0.39242 0.0
C2023 C 0.80827 0.82386 0.42601 0.0
C2024 C 0.82899 0.80866 0.36925 0.0
C2025 C 0.80909 0.80642 0.35467 0.0
C2026 C 0.80878 0.81737 0.40134 0.0
C2027 C 0.78927 0.80967 0.36433 0.0
C2028 C 0.78943 0.83078 0.43442 0.0
C2029 C 0.82724 0.83021 0.46323 0.0
N2030 N 0.78967 0.81507 0.38689 0.0
N2031 N 0.82648 0.82371 0.44081 0.0
H2032 H 0.44476 0.51624 0.80712 0.0
H2033 H 0.56711 0.55226 0.87779 0.0
H2034 H 0.50681 0.56029 0.78139 0.0
H2035 H 0.50899 0.49255 0.89228 0.0
H2036 H 0.54565 0.55654 0.84277 0.0
H2037 H 0.46816 0.50866 0.83919 0.0
C2038 C 0.46335 0.52433 0.80824 0.0
C2039 C 0.4739 0.539 0.79168 0.0
C2040 C 0.53774 0.54232 0.85351 0.0
C2041 C 0.5008 0.53042 0.82835 0.0
C2042 C 0.54992 0.53993 0.87347 0.0
C2043 C 0.53976 0.52206 0.88791 0.0
C2044 C 0.51515 0.52697 0.84819 0.0
C2045 C 0.51754 0.50641 0.88152 0.0
C2046 C 0.47672 0.51988 0.82649 0.0
C2047 C 0.49805 0.5489 0.79387 0.0
N2048 N 0.50588 0.5094 0.86224 0.0
N2049 N 0.51073 0.54457 0.81202 0.0
H2050 H 0.83185 0.158 0.15543 0.0
H2051 H 0.85355 0.29166 0.21973 0.0
H2052 H 0.86373 0.2265 0.12682 0.0
H2053 H 0.81065 0.22376 0.24173 0.0
H2054 H 0.86452 0.26754 0.18923 0.0
H2055 H 0.8321 0.18134 0.19107 0.0
C2056 C 0.83935 0.17792 0.15679 0.0
C2057 C 0.84741 0.19042 0.13808 0.0
C2058 C 0.85284 0.25794 0.20085 0.0
C2059 C 0.84741 0.21723 0.17864 0.0
C2060 C 0.84652 0.27168 0.21824 0.0
C2061 C 0.83083 0.25973 0.23309 0.0
C2062 C 0.8435 0.23209 0.19839 0.0
C2063 C 0.82246 0.2338 0.23046 0.0
C2064 C 0.83936 0.19124 0.1771 0.0
C2065 C 0.8571 0.2162 0.1408 0.0
N2066 N 0.82879 0.22087 0.21336 0.0
N2067 N 0.85651 0.22883 0.16064 0.0
H2068 H 0.09423 0.56354 0.28818 0.0
H2069 H 0.01995 0.49984 0.38259 0.0
H2070 H 0.09461 0.49241 0.3115 0.0
H2071 H 0.03457 0.57706 0.36918 0.0
H2072 H 0.03307 0.49087 0.34614 0.0
H2073 H 0.05928 0.56198 0.30708 0.0
C2074 C 0.08679 0.54746 0.29714 0.0
C2075 C 0.0977 0.52847 0.29902 0.0
C2076 C 0.03267 0.50962 0.35096 0.0
C2077 C 0.05782 0.52663 0.32072 0.0
C2078 C 0.02527 0.51482 0.3718 0.0
C2079 C 0.02742 0.5395 0.37959 0.0
C2080 C 0.04192 0.52923 0.33786 0.0
C2081 C 0.03318 0.55784 0.36436 0.0
C2082 C 0.06674 0.54649 0.30776 0.0
C2083 C 0.08698 0.50771 0.31017 0.0
N2084 N 0.04083 0.55243 0.34447 0.0
N2085 N 0.06785 0.50759 0.3211 0.0
H2086 H 0.83223 0.88655 0.61924 0.0
H2087 H 0.7891 0.78025 0.70315 0.0
H2088 H 0.79437 0.81151 0.5964 0.0
H2089 H 0.81659 0.85759 0.72568 0.0
H2090 H 0.79159 0.79111 0.66436 0.0
H2091 H 0.82785 0.87604 0.65803 0.0
C2092 C 0.82305 0.86777 0.62233 0.0
C2093 C 0.81373 0.84989 0.6043 0.0
C2094 C 0.79695 0.80578 0.67772 0.0
C2095 C 0.80858 0.83766 0.64922 0.0
C2096 C 0.79551 0.7996 0.70002 0.0
C2097 C 0.80259 0.818 0.718 0.0
C2098 C 0.80581 0.83061 0.673 0.0
C2099 C 0.81076 0.84273 0.71255 0.0
C2100 C 0.82048 0.86182 0.6446 0.0
C2101 C 0.80193 0.82593 0.60961 0.0
N2102 N 0.81229 0.84825 0.69065 0.0
N2103 N 0.79977 0.82053 0.63148 0.0
H2104 H 0.73704 0.45116 0.53832 0.0
H2105 H 0.73812 0.59204 0.5633 0.0
H2106 H 0.7969 0.51232 0.53122 0.0
H2107 H 0.6873 0.53052 0.58653 0.0
H2108 H 0.7603 0.56349 0.55152 0.0
H2109 H 0.71816 0.48027 0.55544 0.0
C2110 C 0.74616 0.47072 0.54034 0.0
C2111 C 0.76846 0.47942 0.53329 0.0
C2112 C 0.74448 0.55634 0.55953 0.0
C2113 C 0.74713 0.51272 0.55285 0.0
C2114 C 0.73188 0.57261 0.56626 0.0
C2115 C 0.7109 0.56361 0.57589 0.0
C2116 C 0.73579 0.5309 0.56215 0.0
C2117 C 0.70353 0.53829 0.5794 0.0
C2118 C 0.73548 0.4873 0.55023 0.0
C2119 C 0.77963 0.5049 0.5364 0.0
N2120 N 0.71582 0.52276 0.57227 0.0
N2121 N 0.76878 0.52071 0.54584 0.0
H2122 H 0.25149 0.13462 0.52054 0.0
H2123 H 0.12279 0.12247 0.5546 0.0
H2124 H 0.2235 0.1968 0.53263 0.0
H2125 H 0.1434 0.05991 0.52666 0.0
H2126 H 0.16122 0.14919 0.55032 0.0
H2127 H 0.21346 0.10638 0.52557 0.0
C2128 C 0.23732 0.14232 0.52415 0.0
C2129 C 0.24064 0.16811 0.52613 0.0
C2130 C 0.15742 0.12962 0.54516 0.0
C2131 C 0.19726 0.13596 0.53218 0.0
C2132 C 0.13545 0.11425 0.54771 0.0
C2133 C 0.12975 0.08883 0.54092 0.0
C2134 C 0.17404 0.11962 0.53584 0.0
C2135 C 0.14701 0.07938 0.53213 0.0
C2136 C 0.21565 0.1262 0.52703 0.0
C2137 C 0.22172 0.17707 0.53088 0.0
N2138 N 0.1684 0.0948 0.52981 0.0
N2139 N 0.20091 0.16105 0.53384 0.0
H2140 H 0.19444 0.9659 0.82302 0.0
H2141 H 0.28323 0.94885 0.73359 0.0
H2142 H 0.1994 1.00047 0.76043 0.0
H2143 H 0.28197 0.9211 0.79925 0.0
H2144 H 0.25124 0.9663 0.74201 0.0
H2145 H 0.22471 0.94674 0.81311 0.0
C2146 C 0.20174 0.96922 0.80707 0.0
C2147 C 0.19451 0.98484 0.79256 0.0
C2148 C 0.25808 0.9565 0.75459 0.0
C2149 C 0.22934 0.96329 0.78121 0.0
C2150 C 0.27632 0.94659 0.7498 0.0
C2151 C 0.28539 0.93373 0.76582 0.0
C2152 C 0.24878 0.95331 0.77546 0.0
C2153 C 0.27584 0.93131 0.78658 0.0
C2154 C 0.21911 0.95841 0.80147 0.0
C2155 C 0.20454 0.98856 0.77211 0.0
N2156 N 0.25802 0.94094 0.79076 0.0
N2157 N 0.22156 0.97796 0.76708 0.0
H2158 H 0.38271 0.93743 0.02649 0.0
H2159 H 0.49104 0.03839 0.99009 0.0
H2160 H 0.37492 0.99435 0.9837 0.0
H2161 H 0.49129 1.00831 0.05471 0.0
H2162 H 0.44957 0.01762 0.98346 0.0
H2163 H 0.4243 0.95815 0.03267 0.0
C2164 C 0.38983 0.95414 0.01822 0.0
C2165 C 0.37552 0.9643 0.0046 0.0
C2166 C 0.45873 0.0157 0.99911 0.0
C2167 C 0.42268 0.98785 0.01154 0.0
C2168 C 0.48232 0.02746 0.00289 0.0
C2169 C 0.49447 0.02502 0.02299 0.0
C2170 C 0.44744 1.00104 0.01534 0.0
C2171 C 0.48244 0.01074 0.03907 0.0
C2172 C 0.41343 0.96601 0.0219 0.0
C2173 C 0.38545 0.98603 0.99438 0.0
N2174 N 0.45953 0.99903 0.0348 0.0
N2175 N 0.40854 0.99709 0.99798 0.0
H2176 H 0.92854 0.63379 0.78883 0.0
H2177 H 0.79754 0.63136 0.76827 0.0
H2178 H 0.87417 0.5798 0.81677 0.0
H2179 H 0.8484 0.66224 0.72243 0.0
H2180 H 0.82442 0.61152 0.78578 0.0
H2181 H 0.89922 0.6464 0.76601 0.0
C2182 C 0.91041 0.6249 0.79045 0.0
C2183 C 0.90371 0.60584 0.80478 0.0
C2184 C 0.82955 0.62226 0.77162 0.0
C2185 C 0.87019 0.61976 0.77841 0.0
C2186 C 0.81403 0.63339 0.76127 0.0
C2187 C 0.8208 0.64912 0.74403 0.0
C2188 C 0.85212 0.62717 0.76498 0.0
C2189 C 0.84265 0.65102 0.73613 0.0
C2190 C 0.89372 0.6318 0.77715 0.0
C2191 C 0.88001 0.59468 0.80601 0.0
N2192 N 0.85777 0.6407 0.74703 0.0
N2193 N 0.86405 0.60187 0.79299 0.0
H2194 H 0.88881 0.71461 0.03864 0.0
H2195 H 0.90853 0.57882 0.0299 0.0
H2196 H 0.83453 0.64702 0.02069 0.0
H2197 H 0.96285 0.64473 0.05338 0.0
H2198 H 0.88186 0.60419 0.0245 0.0
H2199 H 0.91692 0.69012 0.0419 0.0
C2200 C 0.88284 0.69466 0.03524 0.0
C2201 C 0.85929 0.68283 0.02943 0.0
C2202 C 0.89961 0.61317 0.03083 0.0
C2203 C 0.89126 0.65473 0.03318 0.0
C2204 C 0.91486 0.59863 0.03407 0.0
C2205 C 0.93799 0.60956 0.04233 0.0
C2206 C 0.90743 0.63896 0.03582 0.0
C2207 C 0.94524 0.63547 0.04686 0.0
C2208 C 0.89887 0.68069 0.03716 0.0
C2209 C 0.85249 0.65693 0.02526 0.0
N2210 N 0.93 0.64927 0.04362 0.0
N2211 N 0.86836 0.6438 0.02726 0.0
H2212 H 0.16753 0.11699 0.80262 0.0
H2213 H 0.2946 0.20077 0.78488 0.0
H2214 H 0.22772 0.08902 0.80501 0.0
H2215 H 0.23689 0.23025 0.79747 0.0
H2216 H 0.2701 0.15916 0.78973 0.0
H2217 H 0.19245 0.15832 0.79791 0.0
C2218 C 0.186 0.11957 0.80209 0.0
C2219 C 0.19563 0.09965 0.80422 0.0
C2220 C 0.26288 0.17479 0.7915 0.0
C2221 C 0.2242 0.14676 0.79884 0.0
C2222 C 0.27683 0.19852 0.78871 0.0
C2223 C 0.26779 0.21901 0.79077 0.0
C2224 C 0.23972 0.17159 0.79618 0.0
C2225 C 0.24464 0.21502 0.79577 0.0
C2226 C 0.20022 0.14315 0.79948 0.0
C2227 C 0.21964 0.10396 0.80347 0.0
N2228 N 0.2314 0.19177 0.79821 0.0
N2229 N 0.23314 0.12708 0.80079 0.0
H2230 H 0.41738 1.00222 0.2785 0.0
H2231 H 0.34881 0.88292 0.33681 0.0
H2232 H 0.41502 0.99806 0.34995 0.0
H2233 H 0.35482 0.88265 0.26542 0.0
H2234 H 0.37259 0.9255 0.34134 0.0
H2235 H 0.39443 0.95876 0.27284 0.0
C2236 C 0.41211 0.99211 0.29298 0.0
C2237 C 0.41803 1.0037 0.31473 0.0
C2238 C 0.36878 0.9162 0.32465 0.0
C2239 C 0.39177 0.95423 0.30839 0.0
C2240 C 0.35511 0.89181 0.32201 0.0
C2241 C 0.34979 0.87912 0.30066 0.0
C2242 C 0.37725 0.92821 0.30583 0.0
C2243 C 0.35849 0.89174 0.28218 0.0
C2244 C 0.39902 0.96736 0.28974 0.0
C2245 C 0.41081 0.98984 0.33291 0.0
N2246 N 0.37182 0.91566 0.28519 0.0
N2247 N 0.398 0.96586 0.32932 0.0
H2248 H 0.63592 0.41066 0.62838 0.0
H2249 H 0.55152 0.47168 0.5582 0.0
H2250 H 0.57619 0.36798 0.58589 0.0
H2251 H 0.62119 0.51295 0.58261 0.0
H2252 H 0.55935 0.43398 0.57069 0.0
H2253 H 0.63033 0.4487 0.61375 0.0
C2254 C 0.62177 0.40927 0.61581 0.0
C2255 C 0.60649 0.38611 0.60834 0.0
C2256 C 0.57296 0.45126 0.57329 0.0
C2257 C 0.59976 0.42956 0.59185 0.0
C2258 C 0.56846 0.47288 0.56629 0.0
C2259 C 0.5857 0.49562 0.56941 0.0
C2260 C 0.59478 0.45228 0.58378 0.0
C2261 C 0.60737 0.49586 0.57986 0.0
C2262 C 0.61859 0.43099 0.60749 0.0
C2263 C 0.58842 0.38541 0.59208 0.0
N2264 N 0.61126 0.47455 0.58679 0.0
N2265 N 0.58543 0.40681 0.58455 0.0
H2266 H 0.44013 0.7781 0.43185 0.0
H2267 H 0.3854 0.78711 0.30861 0.0
H2268 H 0.47397 0.77251 0.37129 0.0
H2269 H 0.34703 0.78683 0.36703 0.0
H2270 H 0.41716 0.77983 0.33176 0.0
H2271 H 0.40506 0.7792 0.40898 0.0
C2272 C 0.44009 0.77683 0.41377 0.0
C2273 C 0.46003 0.77535 0.40345 0.0
C2274 C 0.4018 0.78123 0.33959 0.0
C2275 C 0.42017 0.77676 0.37728 0.0
C2276 C 0.3836 0.78546 0.32635 0.0
C2277 C 0.36353 0.7878 0.33589 0.0
C2278 C 0.40017 0.77948 0.36271 0.0
C2279 C 0.3622 0.78521 0.35897 0.0
C2280 C 0.42011 0.7775 0.40074 0.0
C2281 C 0.45906 0.77379 0.37998 0.0
N2282 N 0.38038 0.78139 0.37166 0.0
N2283 N 0.43957 0.77469 0.36775 0.0
H2284 H 0.06579 0.748 0.09243 0.0
H2285 H 0.12155 0.63695 0.06488 0.0
H2286 H 0.1346 0.74993 0.11924 0.0
H2287 H 0.04827 0.62543 0.07032 0.0
H2288 H 0.12804 0.68082 0.07789 0.0
H2289 H 0.06054 0.70532 0.07674 0.0
C2290 C 0.0799 0.73957 0.09474 0.0
C2291 C 0.10064 0.75247 0.1072 0.0
C2292 C 0.11057 0.66861 0.07621 0.0
C2293 C 0.0948 0.70383 0.08921 0.0
C2294 C 0.10685 0.64365 0.06877 0.0
C2295 C 0.08437 0.62747 0.06672 0.0
C2296 C 0.09161 0.67756 0.08107 0.0
C2297 C 0.06594 0.63716 0.07193 0.0
C2298 C 0.07683 0.71519 0.08593 0.0
C2299 C 0.1183 0.74058 0.10982 0.0
N2300 N 0.06994 0.66157 0.07871 0.0
N2301 N 0.11502 0.71695 0.10085 0.0
H2302 H 0.06546 0.25233 0.88597 0.0
H2303 H 0.1763 0.34072 0.83705 0.0
H2304 H 0.09371 0.32962 0.90858 0.0
H2305 H 0.15602 0.261 0.82527 0.0
H2306 H 0.14466 0.3376 0.86139 0.0
H2307 H 0.09712 0.25568 0.86174 0.0
C2308 C 0.07833 0.27002 0.88582 0.0
C2309 C 0.07698 0.29073 0.89929 0.0
C2310 C 0.14716 0.32079 0.85351 0.0
C2311 C 0.11323 0.29473 0.87156 0.0
C2312 C 0.16512 0.32257 0.83952 0.0
C2313 C 0.16878 0.30108 0.82913 0.0
C2314 C 0.13262 0.29736 0.85697 0.0
C2315 C 0.15396 0.27802 0.83313 0.0
C2316 C 0.09644 0.27191 0.87202 0.0
C2317 C 0.09413 0.31319 0.89846 0.0
N2318 N 0.13648 0.27678 0.84666 0.0
N2319 N 0.11153 0.31462 0.88477 0.0
H2320 H 0.55821 0.7013 0.90541 0.0
H2321 H 0.55205 0.64001 0.02632 0.0
H2322 H 0.56309 0.74478 0.9678 0.0
H2323 H 0.56307 0.60143 0.96582 0.0
H2324 H 0.5531 0.67685 0.00536 0.0
H2325 H 0.55714 0.6645 0.92644 0.0
C2326 C 0.559 0.70336 0.92352 0.0
C2327 C 0.56079 0.72702 0.93437 0.0
C2328 C 0.55524 0.66038 0.99651 0.0
C2329 C 0.55927 0.68337 0.95941 0.0
C2330 C 0.55455 0.63895 0.00863 0.0
C2331 C 0.5574 0.61667 0.99831 0.0
C2332 C 0.55851 0.6603 0.97331 0.0
C2333 C 0.56073 0.61758 0.97504 0.0
C2334 C 0.55842 0.68201 0.93568 0.0
C2335 C 0.56175 0.72748 0.95818 0.0
N2336 N 0.56105 0.63848 0.96364 0.0
N2337 N 0.56087 0.70644 0.96957 0.0
H2338 H 0.11187 0.77568 0.72512 0.0
H2339 H 0.25283 0.83715 0.73738 0.0
H2340 H 0.14517 0.8358 0.68701 0.0
H2341 H 0.22045 0.76801 0.76413 0.0
H2342 H 0.21441 0.83862 0.72116 0.0
H2343 H 0.15036 0.77431 0.74121 0.0
C2344 C 0.1271 0.78881 0.72008 0.0
C2345 C 0.12431 0.80597 0.70433 0.0
C2346 C 0.21553 0.82304 0.73055 0.0
C2347 C 0.17018 0.80453 0.72352 0.0
C2348 C 0.23783 0.82215 0.74001 0.0
C2349 C 0.24089 0.80233 0.7525 0.0
C2350 C 0.19506 0.80415 0.73346 0.0
C2351 C 0.21984 0.78377 0.75481 0.0
C2352 C 0.14945 0.78793 0.72939 0.0
C2353 C 0.14562 0.82215 0.69891 0.0
N2354 N 0.19842 0.78523 0.7457 0.0
N2355 N 0.16705 0.82109 0.70836 0.0
H2356 H 0.08075 0.38656 0.40576 0.0
H2357 H 0.05698 0.45745 0.52065 0.0
H2358 H 0.05859 0.34867 0.46413 0.0
H2359 H 0.07472 0.49516 0.46111 0.0
H2360 H 0.05835 0.41844 0.50071 0.0
H2361 H 0.07965 0.42593 0.42553 0.0
C2362 C 0.07573 0.38632 0.42277 0.0
C2363 C 0.06985 0.36356 0.43297 0.0
C2364 C 0.06198 0.43516 0.49188 0.0
C2365 C 0.06847 0.40988 0.45634 0.0
C2366 C 0.0612 0.45779 0.50338 0.0
C2367 C 0.06573 0.48043 0.49295 0.0
C2368 C 0.06744 0.43434 0.46933 0.0
C2369 C 0.07106 0.47869 0.47029 0.0
C2370 C 0.07505 0.4091 0.43415 0.0
C2371 C 0.06339 0.36527 0.45522 0.0
N2372 N 0.07178 0.45647 0.4595 0.0
N2373 N 0.06293 0.38761 0.46591 0.0
H2374 H 0.50477 0.33083 0.23179 0.0
H2375 H 0.36384 0.26816 0.22894 0.0
H2376 H 0.46706 0.27542 0.18055 0.0
H2377 H 0.39965 0.33097 0.27413 0.0
H2378 H 0.40078 0.26919 0.21266 0.0
H2379 H 0.46788 0.3299 0.24827 0.0
C2380 C 0.48892 0.3183 0.22384 0.0
C2381 C 0.49007 0.30318 0.2043 0.0
C2382 C 0.40079 0.28282 0.22617 0.0
C2383 C 0.44592 0.30188 0.22398 0.0
C2384 C 0.3793 0.28223 0.23572 0.0
C2385 C 0.37755 0.29944 0.25346 0.0
C2386 C 0.42186 0.3007 0.23408 0.0
C2387 C 0.39918 0.31707 0.26073 0.0
C2388 C 0.46746 0.31782 0.23343 0.0
C2389 C 0.46797 0.2876 0.19543 0.0
N2390 N 0.4198 0.31711 0.25131 0.0
N2391 N 0.44748 0.28735 0.20514 0.0
H2392 H 0.61826 0.49159 0.37915 0.0
H2393 H 0.59355 0.50159 0.48973 0.0
H2394 H 0.66665 0.56403 0.39301 0.0
H2395 H 0.62763 0.57953 0.48776 0.0
H2396 H 0.60886 0.49323 0.45455 0.0
H2397 H 0.60854 0.49255 0.41784 0.0
C2398 C 0.62712 0.50751 0.39051 0.0
C2399 C 0.64313 0.52781 0.38289 0.0
C2400 C 0.61283 0.51222 0.46152 0.0
C2401 C 0.63261 0.52896 0.42751 0.0
C2402 C 0.60428 0.51698 0.48182 0.0
C2403 C 0.60893 0.54137 0.4914 0.0
C2404 C 0.62578 0.5321 0.4505 0.0
C2405 C 0.62341 0.56048 0.4808 0.0
C2406 C 0.62175 0.50801 0.41277 0.0
C2407 C 0.65406 0.54804 0.3982 0.0
N2408 N 0.63109 0.55546 0.46074 0.0
N2409 N 0.64845 0.54819 0.41973 0.0
H2410 H 0.3057 0.85922 0.03852 0.0
H2411 H 0.33757 0.87615 0.17088 0.0
H2412 H 0.30626 0.9244 0.08057 0.0
H2413 H 0.32305 0.80503 0.1333 0.0
H2414 H 0.32871 0.89452 0.13686 0.0
H2415 H 0.31366 0.83897 0.07218 0.0
C2416 C 0.30727 0.86915 0.05482 0.0
C2417 C 0.30538 0.89352 0.05681 0.0
C2418 C 0.32741 0.87487 0.13599 0.0
C2419 C 0.31477 0.87075 0.0951 0.0
C2420 C 0.33244 0.86437 0.15544 0.0
C2421 C 0.33078 0.83896 0.15497 0.0
C2422 C 0.32076 0.85995 0.1158 0.0
C2423 C 0.32463 0.82472 0.13436 0.0
C2424 C 0.31187 0.85764 0.07397 0.0
C2425 C 0.30762 0.90561 0.07826 0.0
N2426 N 0.31975 0.83541 0.11555 0.0
N2427 N 0.31233 0.89415 0.09653 0.0
H2428 H 0.97551 0.60909 0.89878 0.0
H2429 H 0.07765 0.5692 0.96416 0.0
H2430 H 0.0201 0.57045 0.86808 0.0
H2431 H 0.02797 0.59914 0.99671 0.0
H2432 H 0.0625 0.57896 0.92816 0.0
H2433 H 1.00007 0.61461 0.93403 0.0
C2434 C 0.99063 0.60209 0.89941 0.0
C2435 C 0.99557 0.58885 0.88077 0.0
C2436 C 0.05511 0.58367 0.94322 0.0
C2437 C 0.02358 0.59508 0.92065 0.0
C2438 C 0.06377 0.57811 0.96378 0.0
C2439 C 0.05367 0.58279 0.98337 0.0
C2440 C 0.03617 0.59384 0.9423 0.0
C2441 C 0.03596 0.59472 0.98194 0.0
C2442 C 1.00461 0.60523 0.91946 0.0
C2443 C 1.01544 0.58033 0.88227 0.0
N2444 N 0.02752 0.5995 0.96168 0.0
N2445 N 0.02858 0.58337 0.90195 0.0
H2446 H 0.27377 0.25301 0.58783 0.0
H2447 H 0.34265 0.27563 0.71032 0.0
H2448 H 0.34456 0.25076 0.60005 0.0
H2449 H 0.27011 0.2719 0.69978 0.0
H2450 H 0.34392 0.26861 0.66993 0.0
H2451 H 0.27255 0.2624 0.62817 0.0
C2452 C 0.28918 0.2548 0.59892 0.0
C2453 C 0.30935 0.25116 0.59035 0.0
C2454 C 0.32769 0.26931 0.67638 0.0
C2455 C 0.30797 0.2617 0.6369 0.0
C2456 C 0.32691 0.27332 0.69958 0.0
C2457 C 0.30619 0.27434 0.70877 0.0
C2458 C 0.30763 0.26632 0.66187 0.0
C2459 C 0.28648 0.27121 0.69367 0.0
C2460 C 0.28841 0.26003 0.62203 0.0
C2461 C 0.32864 0.25349 0.60573 0.0
N2462 N 0.2877 0.26738 0.67109 0.0
N2463 N 0.32745 0.25853 0.6281 0.0
H2464 H 0.59856 0.48687 0.2561 0.0
H2465 H 0.52646 0.57009 0.19918 0.0
H2466 H 0.58528 0.5511 0.28955 0.0
H2467 H 0.54888 0.51263 0.16394 0.0
H2468 H 0.5385 0.55613 0.2347 0.0
H2469 H 0.57084 0.48869 0.22506 0.0
C2470 C 0.58943 0.50104 0.25714 0.0
C2471 C 0.59456 0.51918 0.27518 0.0
C2472 C 0.54034 0.54629 0.21918 0.0
C2473 C 0.56308 0.52157 0.23965 0.0
C2474 C 0.53354 0.5543 0.19889 0.0
C2475 C 0.53707 0.54287 0.17849 0.0
C2476 C 0.55081 0.52677 0.21906 0.0
C2477 C 0.54579 0.52208 0.17917 0.0
C2478 C 0.57366 0.50212 0.23938 0.0
C2479 C 0.58209 0.53698 0.27576 0.0
N2480 N 0.55271 0.51498 0.1991 0.0
N2481 N 0.5672 0.53799 0.25805 0.0
H2482 H 0.30443 0.93867 0.92167 0.0
H2483 H 0.26522 0.81135 0.84508 0.0
H2484 H 0.26381 0.86974 0.94384 0.0
H2485 H 0.31679 0.87651 0.82865 0.0
H2486 H 0.25782 0.83491 0.87782 0.0
H2487 H 0.30187 0.91855 0.88409 0.0
C2488 C 0.29465 0.91937 0.91853 0.0
C2489 C 0.28462 0.90569 0.93592 0.0
C2490 C 0.27061 0.8441 0.86694 0.0
C2491 C 0.28182 0.88257 0.89308 0.0
C2492 C 0.27487 0.83068 0.84823 0.0
C2493 C 0.29198 0.84188 0.83433 0.0
C2494 C 0.28349 0.8689 0.87176 0.0
C2495 C 0.30374 0.86703 0.83913 0.0
C2496 C 0.29327 0.9079 0.8971 0.0
C2497 C 0.27198 0.88086 0.93091 0.0
N2498 N 0.29941 0.87965 0.85758 0.0
N2499 N 0.27118 0.86997 0.90996 0.0
H2500 H 0.96652 0.59209 0.74715 0.0
H2501 H 0.07317 0.56026 0.69208 0.0
H2502 H 0.02304 0.57609 0.78592 0.0
H2503 H 1.00752 0.5577 0.65677 0.0
H2504 H 0.05959 0.57535 0.72638 0.0
H2505 H 0.9869 0.59061 0.71355 0.0
C2506 C 0.98339 0.58859 0.7486 0.0
C2507 C 0.99294 0.58362 0.76912 0.0
C2508 C 0.04836 0.57173 0.711 0.0
C2509 C 1.01613 0.58157 0.73087 0.0
C2510 C 0.05598 0.56292 0.69152 0.0
C2511 C 0.04142 0.55762 0.67158 0.0
C2512 C 0.02613 0.57529 0.71036 0.0
C2513 C 0.01948 0.56184 0.67165 0.0
C2514 C 0.99499 0.5877 0.72945 0.0
C2515 C 1.01499 0.57964 0.77025 0.0
N2516 N 1.0125 0.57033 0.69076 0.0
N2517 N 0.02576 0.57827 0.75122 0.0
H2518 H 0.32133 0.28309 0.46822 0.0
H2519 H 0.3114 0.23864 0.33653 0.0
H2520 H 0.3026 0.20643 0.44258 0.0
H2521 H 0.32293 0.31496 0.36135 0.0
H2522 H 0.31037 0.22677 0.37528 0.0
H2523 H 0.324 0.29539 0.42953 0.0
C2524 C 0.3178 0.26884 0.45452 0.0
C2525 C 0.31168 0.24365 0.45884 0.0
C2526 C 0.3132 0.24614 0.37227 0.0
C2527 C 0.31482 0.25763 0.41422 0.0
C2528 C 0.31386 0.25297 0.35004 0.0
C2529 C 0.31723 0.27791 0.34538 0.0
C2530 C 0.31603 0.26432 0.39022 0.0
C2531 C 0.32027 0.2955 0.36389 0.0
C2532 C 0.31932 0.27586 0.43236 0.0
C2533 C 0.30733 0.22607 0.44022 0.0
N2534 N 0.31959 0.28841 0.3853 0.0
N2535 N 0.309 0.23335 0.41891 0.0
H2536 H 0.3433 0.57758 0.56314 0.0
H2537 H 0.43346 0.56478 0.47444 0.0
H2538 H 0.38438 0.63867 0.53016 0.0
H2539 H 0.41747 0.51563 0.5275 0.0
H2540 H 0.40604 0.58643 0.48766 0.0
H2541 H 0.36261 0.54983 0.54406 0.0
C2542 C 0.35642 0.58512 0.55196 0.0
C2543 C 0.36253 0.61044 0.54838 0.0
C2544 C 0.40829 0.57062 0.49612 0.0
C2545 C 0.38392 0.57891 0.52616 0.0
C2546 C 0.42384 0.55822 0.48857 0.0
C2547 C 0.42814 0.53873 0.50019 0.0
C2548 C 0.39684 0.56331 0.51527 0.0
C2549 C 0.41476 0.5306 0.51806 0.0
C2550 C 0.36728 0.56931 0.54103 0.0
C2551 C 0.37942 0.61932 0.53359 0.0
N2552 N 0.39992 0.54318 0.52529 0.0
N2553 N 0.3895 0.60354 0.52295 0.0
H2554 H 0.87272 0.95492 0.54611 0.0
H2555 H 0.99762 0.98294 0.4986 0.0
H2556 H 0.89861 0.8967 0.51707 0.0
H2557 H 0.98007 0.02957 0.55037 0.0
H2558 H 0.95897 0.9536 0.49895 0.0
H2559 H 0.90982 0.98483 0.54188 0.0
C2560 C 0.88624 0.94842 0.53882 0.0
C2561 C 0.88264 0.92325 0.53207 0.0
C2562 C 0.96358 0.97039 0.51005 0.0
C2563 C 0.92511 0.95753 0.5269 0.0
C2564 C 0.98549 0.98723 0.5097 0.0
C2565 C 0.99203 1.00871 0.52447 0.0
C2566 C 0.94805 0.97534 0.52501 0.0
C2567 C 0.97578 0.0132 0.53874 0.0
C2568 C 0.90741 0.96552 0.53642 0.0
C2569 C 0.90076 0.91592 0.52266 0.0
N2570 N 0.95458 0.9967 0.53863 0.0
N2571 N 0.92124 0.93301 0.52027 0.0
H2572 H 0.8734 0.07865 0.23029 0.0
H2573 H 0.83468 0.16067 0.32497 0.0
H2574 H 0.91297 0.10554 0.29369 0.0
H2575 H 0.79233 0.12982 0.26374 0.0
H2576 H 0.86148 0.13686 0.31546 0.0
H2577 H 0.84229 0.09501 0.24311 0.0
C2578 C 0.87556 0.08809 0.24687 0.0
C2579 C 0.89582 0.09097 0.2609 0.0
C2580 C 0.84617 0.13502 0.30422 0.0
C2581 C 0.86029 0.10942 0.27576 0.0
C2582 C 0.83067 0.14839 0.30978 0.0
C2583 C 0.81133 0.14745 0.295 0.0
C2584 C 0.84244 0.12076 0.28364 0.0
C2585 C 0.80728 0.13148 0.2754 0.0
C2586 C 0.85774 0.09726 0.25424 0.0
C2587 C 0.89768 0.10311 0.28229 0.0
N2588 N 0.8229 0.11901 0.27012 0.0
N2589 N 0.88016 0.11197 0.28904 0.0
H2590 H 0.7553 0.08664 0.07246 0.0
H2591 H 0.63656 0.11648 0.03696 0.0
H2592 H 0.74659 0.1605 0.07753 0.0
H2593 H 0.6403 0.04312 0.05125 0.0
H2594 H 0.67766 0.13272 0.04939 0.0
H2595 H 0.71351 0.06992 0.06334 0.0
C2596 C 0.74453 0.09928 0.07196 0.0
C2597 C 0.75433 0.12496 0.07566 0.0
C2598 C 0.66945 0.11307 0.04984 0.0
C2599 C 0.70681 0.10609 0.06486 0.0
C2600 C 0.64606 0.10377 0.04257 0.0
C2601 C 0.63505 0.07842 0.04306 0.0
C2602 C 0.68193 0.09686 0.05741 0.0
C2603 C 0.64814 0.0628 0.05063 0.0
C2604 C 0.72074 0.08976 0.06671 0.0
C2605 C 0.73968 0.14057 0.07479 0.0
N2606 N 0.67095 0.07227 0.05746 0.0
N2607 N 0.71664 0.13089 0.06922 0.0
H2608 H 0.2294 0.51073 0.26981 0.0
H2609 H 0.26777 0.42611 0.35693 0.0
H2610 H 0.19196 0.49086 0.32804 0.0
H2611 H 0.31184 0.46569 0.30928 0.0
H2612 H 0.2404 0.45046 0.34873 0.0
H2613 H 0.25989 0.49404 0.28512 0.0
C2614 C 0.22757 0.50273 0.28583 0.0
C2615 C 0.20807 0.50197 0.29761 0.0
C2616 C 0.25635 0.45412 0.34051 0.0
C2617 C 0.24306 0.48287 0.31538 0.0
C2618 C 0.27197 0.44025 0.34515 0.0
C2619 C 0.29204 0.44354 0.33357 0.0
C2620 C 0.26081 0.47118 0.32403 0.0
C2621 C 0.29675 0.46242 0.31876 0.0
C2622 C 0.24511 0.49341 0.29469 0.0
C2623 C 0.20672 0.49165 0.31841 0.0
N2624 N 0.28108 0.47518 0.31417 0.0
N2625 N 0.22394 0.48224 0.3266 0.0
H2626 H 0.24027 0.38634 0.03177 0.0
H2627 H 0.229 0.52547 0.04432 0.0
H2628 H 0.29857 0.45153 0.04242 0.0
H2629 H 0.17027 0.4613 0.02903 0.0
H2630 H 0.25445 0.49826 0.04571 0.0
H2631 H 0.21405 0.41302 0.03284 0.0
C2632 C 0.24755 0.40624 0.03442 0.0
C2633 C 0.27164 0.41673 0.03695 0.0
C2634 C 0.23599 0.49009 0.04209 0.0
C2635 C 0.24179 0.44736 0.03818 0.0
C2636 C 0.22143 0.50565 0.04118 0.0
C2637 C 0.19741 0.49573 0.0364 0.0
C2638 C 0.22657 0.4643 0.03818 0.0
C2639 C 0.18862 0.46981 0.03296 0.0
C2640 C 0.23258 0.42147 0.035 0.0
C2641 C 0.28012 0.44263 0.04033 0.0
N2642 N 0.20319 0.45502 0.03383 0.0
N2643 N 0.26524 0.45702 0.04081 0.0
H2644 H 0.88541 0.99442 0.27334 0.0
H2645 H 0.87558 0.84985 0.25586 0.0
H2646 H 0.92856 0.96561 0.23046 0.0
H2647 H 0.82588 0.8802 0.28791 0.0
H2648 H 0.89666 0.89184 0.24766 0.0
H2649 H 0.8646 0.95226 0.28003 0.0
C2650 C 0.89048 0.97915 0.2653 0.0
C2651 C 0.90873 0.98343 0.25138 0.0
C2652 C 0.88111 0.8892 0.25645 0.0
C2653 C 0.88505 0.93505 0.25904 0.0
C2654 C 0.86914 0.8653 0.26122 0.0
C2655 C 0.84897 0.86153 0.27262 0.0
C2656 C 0.87287 0.90936 0.2633 0.0
C2657 C 0.84133 0.88218 0.27908 0.0
C2658 C 0.87857 0.95507 0.2691 0.0
C2659 C 0.91453 0.96301 0.2413 0.0
N2660 N 0.85332 0.90517 0.27437 0.0
N2661 N 0.90276 0.9396 0.24543 0.0
H2662 H 0.67666 0.11787 0.74984 0.0
H2663 H 0.80103 0.20693 0.7904 0.0
H2664 H 0.72549 0.09263 0.79161 0.0
H2665 H 0.73996 0.2333 0.78541 0.0
H2666 H 0.77609 0.16411 0.78379 0.0
H2667 H 0.70257 0.16015 0.7554 0.0
C2668 C 0.69288 0.12124 0.76007 0.0
C2669 C 0.69895 0.1019 0.77042 0.0
C2670 C 0.76827 0.17937 0.78419 0.0
C2671 C 0.72862 0.1498 0.77649 0.0
C2672 C 0.78242 0.20369 0.78788 0.0
C2673 C 0.77247 0.22355 0.78858 0.0
C2674 C 0.74417 0.17512 0.7806 0.0
C2675 C 0.74829 0.21845 0.78522 0.0
C2676 C 0.70756 0.14528 0.76329 0.0
C2677 C 0.72014 0.10716 0.78352 0.0
N2678 N 0.73495 0.19472 0.78119 0.0
N2679 N 0.73435 0.13066 0.78609 0.0
loop_
_geom_bond_atom_site_label_1
_geom_bond_atom_site_label_2
_geom_bond_distance
_geom_bond_site_symmetry_2
_ccdc_geom_bond_type
In0 O1 2.294 . S
In0 O2 2.326 . S
In0 O6 2.266 . S
In0 O7 2.372 . S
In0 O8 2.266 . S
In0 O9 2.326 . S
In0 O11 2.294 . S
In0 O12 2.326 . S
O1 In0 2.294 . S
O1 C10 1.240 . S
O2 In0 2.326 . S
O2 C10 1.252 . S
C3 O6 1.252 1_655 S
C3 O7 1.256 1_655 S
C4 O11 1.240 . S
C4 O12 1.252 . S
C5 O8 1.252 . S
C5 O9 1.260 . S
O6 In0 2.266 . S
O6 C3 1.252 1_455 S
O7 In0 2.372 . S
O7 C3 1.256 1_455 S
O8 In0 2.266 . S
O8 C5 1.252 . S
O9 In0 2.326 . S
O9 C5 1.260 . S
C10 O1 1.240 . S
C10 O2 1.252 . S
O11 In0 2.294 . S
O11 C4 1.240 . S
O12 In0 2.326 . S
O12 C4 1.252 . S
In13 O14 2.294 . S
In13 O15 2.326 . S
In13 O19 2.266 . S
In13 O20 2.326 . S
In13 O21 2.266 . S
In13 O22 2.326 . S
In13 O24 2.294 . S
In13 O25 2.326 . S
O14 In13 2.294 . S
O14 C23 1.240 . S
O15 In13 2.326 . S
O15 C23 1.252 . S
C16 O19 1.252 . S
C16 O20 1.260 . S
C17 O24 1.240 . S
C17 O25 1.252 . S
C18 O21 1.252 . S
C18 O22 1.260 . S
O19 In13 2.266 . S
O19 C16 1.252 . S
O20 In13 2.326 . S
O20 C16 1.260 . S
O21 In13 2.266 . S
O21 C18 1.252 . S
O22 In13 2.326 . S
O22 C18 1.260 . S
C23 O14 1.240 . S
C23 O15 1.252 . S
O24 In13 2.294 . S
O24 C17 1.240 . S
O25 In13 2.326 . S
O25 C17 1.252 . S
In26 O27 2.294 . S
In26 O28 2.326 . S
In26 O32 2.266 . S
In26 O33 2.326 . S
In26 O34 2.266 . S
In26 O35 2.326 . S
In26 O37 2.294 . S
In26 O38 2.326 . S
O27 In26 2.294 . S
O27 C36 1.240 . S
O28 In26 2.326 . S
O28 C36 1.252 . S
C29 O32 1.252 . S
C29 O33 1.260 . S
C30 O37 1.240 . S
C30 O38 1.252 . S
C31 O34 1.252 . S
C31 O35 1.260 . S
O32 In26 2.266 . S
O32 C29 1.252 . S
O33 In26 2.326 . S
O33 C29 1.260 . S
O34 In26 2.266 . S
O34 C31 1.252 . S
O35 In26 2.326 . S
O35 C31 1.260 . S
C36 O27 1.240 . S
C36 O28 1.252 . S
O37 In26 2.294 . S
O37 C30 1.240 . S
O38 In26 2.326 . S
O38 C30 1.252 . S
In39 O40 2.294 . S
In39 O41 2.326 . S
In39 O45 2.266 . S
In39 O46 2.326 . S
In39 O47 2.266 . S
In39 O48 2.326 . S
In39 O50 2.294 . S
In39 O51 2.326 . S
O40 In39 2.294 . S
O40 C49 1.240 . S
O41 In39 2.326 . S
O41 C49 1.252 . S
C42 O45 1.252 . S
C42 O46 1.260 . S
C43 O50 1.240 . S
C43 O51 1.252 . S
C44 O47 1.252 . S
C44 O48 1.260 . S
O45 In39 2.266 . S
O45 C42 1.252 . S
O46 In39 2.326 . S
O46 C42 1.260 . S
O47 In39 2.266 . S
O47 C44 1.252 . S
O48 In39 2.326 . S
O48 C44 1.260 . S
C49 O40 1.240 . S
C49 O41 1.252 . S
O50 In39 2.294 . S
O50 C43 1.240 . S
O51 In39 2.326 . S
O51 C43 1.252 . S
In52 O53 2.294 . S
In52 O54 2.326 . S
In52 O58 2.266 . S
In52 O59 2.326 . S
In52 O60 2.266 . S
In52 O61 2.326 . S
In52 O63 2.294 . S
In52 O64 2.326 . S
O53 In52 2.294 . S
O53 C62 1.240 . S
O54 In52 2.326 . S
O54 C62 1.252 . S
C55 O58 1.252 . S
C55 O59 1.260 . S
C56 O63 1.240 . S
C56 O64 1.252 . S
C57 O60 1.252 . S
C57 O61 1.260 . S
O58 In52 2.266 . S
O58 C55 1.252 . S
O59 In52 2.326 . S
O59 C55 1.260 . S
O60 In52 2.266 . S
O60 C57 1.252 . S
O61 In52 2.326 . S
O61 C57 1.260 . S
C62 O53 1.240 . S
C62 O54 1.252 . S
O63 In52 2.294 . S
O63 C56 1.240 . S
O64 In52 2.326 . S
O64 C56 1.252 . S
In65 O66 2.294 . S
In65 O67 2.326 . S
In65 O71 2.266 . S
In65 O72 2.326 . S
In65 O73 2.266 . S
In65 O74 2.326 . S
In65 O76 2.294 . S
In65 O77 2.326 . S
O66 In65 2.294 . S
O66 C75 1.240 . S
O67 In65 2.326 . S
O67 C75 1.252 . S
C68 O71 1.252 . S
C68 O72 1.260 . S
C69 O76 1.240 . S
C69 O77 1.252 . S
C70 O73 1.252 . S
C70 O74 1.260 . S
O71 In65 2.266 . S
O71 C68 1.252 . S
O72 In65 2.326 . S
O72 C68 1.260 . S
O73 In65 2.266 . S
O73 C70 1.252 . S
O74 In65 2.326 . S
O74 C70 1.260 . S
C75 O66 1.240 . S
C75 O67 1.252 . S
O76 In65 2.294 . S
O76 C69 1.240 . S
O77 In65 2.326 . S
O77 C69 1.252 . S
In78 O79 2.294 . S
In78 O80 2.326 . S
In78 O84 2.266 . S
In78 O85 2.326 . S
In78 O86 2.266 . S
In78 O87 2.326 . S
In78 O89 2.294 . S
In78 O90 2.326 . S
O79 In78 2.294 . S
O79 C88 1.240 . S
O80 In78 2.326 . S
O80 C88 1.252 . S
C81 O84 1.252 . S
C81 O85 1.260 . S
C82 O89 1.240 . S
C82 O90 1.252 . S
C83 O86 1.252 . S
C83 O87 1.260 . S
O84 In78 2.266 . S
O84 C81 1.252 . S
O85 In78 2.326 . S
O85 C81 1.260 . S
O86 In78 2.266 . S
O86 C83 1.252 . S
O87 In78 2.326 . S
O87 C83 1.260 . S
C88 O79 1.240 . S
C88 O80 1.252 . S
O89 In78 2.294 . S
O89 C82 1.240 . S
O90 In78 2.326 . S
O90 C82 1.252 . S
In91 O92 2.295 . S
In91 O93 2.327 1_455 S
In91 O97 2.276 . S
In91 O98 2.325 . S
In91 O99 2.264 1_455 S
In91 O100 2.323 1_455 S
In91 O102 2.296 . S
In91 O103 2.329 . S
O92 In91 2.295 . S
O92 C101 1.240 1_455 S
O93 In91 2.327 1_655 S
O93 C101 1.253 . S
C94 O97 1.248 . S
C94 O98 1.260 . S
C95 O102 1.240 . S
C95 O103 1.252 . S
C96 O99 1.252 . S
C96 O100 1.260 . S
O97 In91 2.276 . S
O97 C94 1.248 . S
O98 In91 2.325 . S
O98 C94 1.260 . S
O99 In91 2.264 1_655 S
O99 C96 1.252 . S
O100 In91 2.323 1_655 S
O100 C96 1.260 . S
C101 O92 1.240 1_655 S
C101 O93 1.253 . S
O102 In91 2.296 . S
O102 C95 1.240 . S
O103 In91 2.329 . S
O103 C95 1.252 . S
In104 O105 2.294 . S
In104 O106 2.326 . S
In104 O110 2.266 . S
In104 O111 2.326 . S
In104 O112 2.266 1_545 S
In104 O113 2.326 1_545 S
In104 O115 2.294 . S
In104 O116 2.326 . S
O105 In104 2.294 . S
O105 C114 1.240 . S
O106 In104 2.326 . S
O106 C114 1.252 . S
C107 O110 1.252 . S
C107 O111 1.260 . S
C108 O115 1.240 . S
C108 O116 1.252 . S
C109 O112 1.252 . S
C109 O113 1.260 . S
O110 In104 2.266 . S
O110 C107 1.252 . S
O111 In104 2.326 . S
O111 C107 1.260 . S
O112 In104 2.266 1_565 S
O112 C109 1.252 . S
O113 In104 2.326 1_565 S
O113 C109 1.260 . S
C114 O105 1.240 . S
C114 O106 1.252 . S
O115 In104 2.294 . S
O115 C108 1.240 . S
O116 In104 2.326 . S
O116 C108 1.252 . S
In117 O118 2.294 . S
In117 O119 2.326 . S
In117 O123 2.266 . S
In117 O124 2.326 . S
In117 O125 2.266 . S
In117 O126 2.326 . S
In117 O128 2.294 . S
In117 O129 2.326 . S
O118 In117 2.294 . S
O118 C127 1.240 . S
O119 In117 2.326 . S
O119 C127 1.252 . S
C120 O123 1.252 . S
C120 O124 1.260 . S
C121 O128 1.240 . S
C121 O129 1.252 . S
C122 O125 1.252 . S
C122 O126 1.260 . S
O123 In117 2.266 . S
O123 C120 1.252 . S
O124 In117 2.326 . S
O124 C120 1.260 . S
O125 In117 2.266 . S
O125 C122 1.252 . S
O126 In117 2.326 . S
O126 C122 1.260 . S
C127 O118 1.240 . S
C127 O119 1.252 . S
O128 In117 2.294 . S
O128 C121 1.240 . S
O129 In117 2.326 . S
O129 C121 1.252 . S
In130 O131 2.294 . S
In130 O132 2.326 . S
In130 O136 2.266 . S
In130 O137 2.326 . S
In130 O138 2.266 . S
In130 O139 2.326 . S
In130 O141 2.294 . S
In130 O142 2.326 . S
O131 In130 2.294 . S
O131 C140 1.240 . S
O132 In130 2.326 . S
O132 C140 1.252 . S
C133 O136 1.252 . S
C133 O137 1.260 . S
C134 O141 1.240 . S
C134 O142 1.252 . S
C135 O138 1.252 . S
C135 O139 1.260 . S
O136 In130 2.266 . S
O136 C133 1.252 . S
O137 In130 2.326 . S
O137 C133 1.260 . S
O138 In130 2.266 . S
O138 C135 1.252 . S
O139 In130 2.326 . S
O139 C135 1.260 . S
C140 O131 1.240 . S
C140 O132 1.252 . S
O141 In130 2.294 . S
O141 C134 1.240 . S
O142 In130 2.326 . S
O142 C134 1.252 . S
In143 O144 2.296 . S
In143 O145 2.329 . S
In143 O149 2.264 1_554 S
In143 O150 2.322 1_554 S
In143 O151 2.266 1_554 S
In143 O152 2.325 1_554 S
In143 O154 2.294 . S
In143 O155 2.327 . S
O144 In143 2.296 . S
O144 C153 1.240 . S
O145 In143 2.329 . S
O145 C153 1.252 . S
C146 O149 1.252 . S
C146 O150 1.260 . S
C147 O154 1.240 . S
C147 O155 1.252 . S
C148 O151 1.252 . S
C148 O152 1.260 . S
O149 In143 2.264 1_556 S
O149 C146 1.252 . S
O150 In143 2.322 1_556 S
O150 C146 1.260 . S
O151 In143 2.266 1_556 S
O151 C148 1.252 . S
O152 In143 2.325 1_556 S
O152 C148 1.260 . S
C153 O144 1.240 . S
C153 O145 1.252 . S
O154 In143 2.294 . S
O154 C147 1.240 . S
O155 In143 2.327 . S
O155 C147 1.252 . S
In156 O157 2.294 . S
In156 O158 2.326 . S
In156 O162 2.266 . S
In156 O163 2.326 1_554 S
In156 O164 2.266 . S
In156 O165 2.326 . S
In156 O167 2.294 . S
In156 O168 2.326 . S
O157 In156 2.294 . S
O157 C166 1.240 . S
O158 In156 2.326 . S
O158 C166 1.252 . S
C159 O162 1.252 1_556 S
C159 O163 1.260 . S
C160 O167 1.240 . S
C160 O168 1.252 . S
C161 O164 1.252 . S
C161 O165 1.260 . S
O162 In156 2.266 . S
O162 C159 1.252 1_554 S
O163 In156 2.326 1_556 S
O163 C159 1.260 . S
O164 In156 2.266 . S
O164 C161 1.252 . S
O165 In156 2.326 . S
O165 C161 1.260 . S
C166 O157 1.240 . S
C166 O158 1.252 . S
O167 In156 2.294 . S
O167 C160 1.240 . S
O168 In156 2.326 . S
O168 C160 1.252 . S
In169 O170 2.294 . S
In169 O171 2.326 . S
In169 O175 2.266 . S
In169 O176 2.326 . S
In169 O177 2.266 . S
In169 O178 2.326 . S
In169 O180 2.294 . S
In169 O181 2.326 . S
O170 In169 2.294 . S
O170 C179 1.240 . S
O171 In169 2.326 . S
O171 C179 1.252 . S
C172 O175 1.252 . S
C172 O176 1.260 . S
C173 O180 1.240 . S
C173 O181 1.252 . S
C174 O177 1.252 . S
C174 O178 1.260 . S
O175 In169 2.266 . S
O175 C172 1.252 . S
O176 In169 2.326 . S
O176 C172 1.260 . S
O177 In169 2.266 . S
O177 C174 1.252 . S
O178 In169 2.326 . S
O178 C174 1.260 . S
C179 O170 1.240 . S
C179 O171 1.252 . S
O180 In169 2.294 . S
O180 C173 1.240 . S
O181 In169 2.326 . S
O181 C173 1.252 . S
In182 O183 2.294 . S
In182 O184 2.326 . S
In182 O188 2.266 . S
In182 O189 2.326 . S
In182 O190 2.266 . S
In182 O191 2.326 . S
In182 O193 2.294 . S
In182 O194 2.326 . S
O183 In182 2.294 . S
O183 C192 1.240 . S
O184 In182 2.326 . S
O184 C192 1.252 . S
C185 O188 1.252 . S
C185 O189 1.260 . S
C186 O193 1.240 . S
C186 O194 1.252 . S
C187 O190 1.252 . S
C187 O191 1.260 . S
O188 In182 2.266 . S
O188 C185 1.252 . S
O189 In182 2.326 . S
O189 C185 1.260 . S
O190 In182 2.266 . S
O190 C187 1.252 . S
O191 In182 2.326 . S
O191 C187 1.260 . S
C192 O183 1.240 . S
C192 O184 1.252 . S
O193 In182 2.294 . S
O193 C186 1.240 . S
O194 In182 2.326 . S
O194 C186 1.252 . S
In195 O196 2.294 . S
In195 O197 2.326 . S
In195 O201 2.266 . S
In195 O202 2.326 . S
In195 O203 2.266 . S
In195 O204 2.326 . S
In195 O206 2.294 . S
In195 O207 2.326 . S
O196 In195 2.294 . S
O196 C205 1.240 . S
O197 In195 2.326 . S
O197 C205 1.252 . S
C198 O201 1.252 . S
C198 O202 1.260 . S
C199 O206 1.240 . S
C199 O207 1.252 . S
C200 O203 1.252 . S
C200 O204 1.260 . S
O201 In195 2.266 . S
O201 C198 1.252 . S
O202 In195 2.326 . S
O202 C198 1.260 . S
O203 In195 2.266 . S
O203 C200 1.252 . S
O204 In195 2.326 . S
O204 C200 1.260 . S
C205 O196 1.240 . S
C205 O197 1.252 . S
O206 In195 2.294 . S
O206 C199 1.240 . S
O207 In195 2.326 . S
O207 C199 1.252 . S
In208 O209 2.294 . S
In208 O210 2.326 . S
In208 O214 2.266 . S
In208 O215 2.326 . S
In208 O216 2.266 1_545 S
In208 O217 2.326 1_545 S
In208 O219 2.294 . S
In208 O220 2.326 . S
O209 In208 2.294 . S
O209 C218 1.240 . S
O210 In208 2.326 . S
O210 C218 1.252 . S
C211 O214 1.252 . S
C211 O215 1.260 . S
C212 O219 1.240 . S
C212 O220 1.252 . S
C213 O216 1.252 . S
C213 O217 1.260 . S
O214 In208 2.266 . S
O214 C211 1.252 . S
O215 In208 2.326 . S
O215 C211 1.260 . S
O216 In208 2.266 1_565 S
O216 C213 1.252 . S
O217 In208 2.326 1_565 S
O217 C213 1.260 . S
C218 O209 1.240 . S
C218 O210 1.252 . S
O219 In208 2.294 . S
O219 C212 1.240 . S
O220 In208 2.326 . S
O220 C212 1.252 . S
In221 O222 2.294 . S
In221 O223 2.326 . S
In221 O227 2.266 . S
In221 O228 2.326 . S
In221 O229 2.266 . S
In221 O230 2.326 . S
In221 O232 2.294 . S
In221 O233 2.326 . S
O222 In221 2.294 . S
O222 C231 1.240 . S
O223 In221 2.326 . S
O223 C231 1.252 . S
C224 O227 1.252 . S
C224 O228 1.260 . S
C225 O232 1.240 . S
C225 O233 1.252 . S
C226 O229 1.252 . S
C226 O230 1.260 . S
O227 In221 2.266 . S
O227 C224 1.252 . S
O228 In221 2.326 . S
O228 C224 1.260 . S
O229 In221 2.266 . S
O229 C226 1.252 . S
O230 In221 2.326 . S
O230 C226 1.260 . S
C231 O222 1.240 . S
C231 O223 1.252 . S
O232 In221 2.294 . S
O232 C225 1.240 . S
O233 In221 2.326 . S
O233 C225 1.252 . S
In234 O235 2.294 . S
In234 O236 2.326 . S
In234 O240 2.266 . S
In234 O241 2.326 . S
In234 O242 2.266 . S
In234 O243 2.326 . S
In234 O245 2.294 . S
In234 O246 2.326 . S
O235 In234 2.294 . S
O235 C244 1.240 . S
O236 In234 2.326 . S
O236 C244 1.252 . S
C237 O240 1.252 . S
C237 O241 1.260 . S
C238 O245 1.240 . S
C238 O246 1.252 . S
C239 O242 1.252 . S
C239 O243 1.260 . S
O240 In234 2.266 . S
O240 C237 1.252 . S
O241 In234 2.326 . S
O241 C237 1.260 . S
O242 In234 2.266 . S
O242 C239 1.252 . S
O243 In234 2.326 . S
O243 C239 1.260 . S
C244 O235 1.240 . S
C244 O236 1.252 . S
O245 In234 2.294 . S
O245 C238 1.240 . S
O246 In234 2.326 . S
O246 C238 1.252 . S
In247 O248 2.294 . S
In247 O249 2.326 . S
In247 O253 2.266 . S
In247 O254 2.326 . S
In247 O255 2.266 . S
In247 O256 2.326 . S
In247 O258 2.294 . S
In247 O259 2.326 . S
O248 In247 2.294 . S
O248 C257 1.240 . S
O249 In247 2.326 . S
O249 C257 1.252 . S
C250 O253 1.252 . S
C250 O254 1.260 . S
C251 O258 1.240 . S
C251 O259 1.252 . S
C252 O255 1.252 . S
C252 O256 1.260 . S
O253 In247 2.266 . S
O253 C250 1.252 . S
O254 In247 2.326 . S
O254 C250 1.260 . S
O255 In247 2.266 . S
O255 C252 1.252 . S
O256 In247 2.326 . S
O256 C252 1.260 . S
C257 O248 1.240 . S
C257 O249 1.252 . S
O258 In247 2.294 . S
O258 C251 1.240 . S
O259 In247 2.326 . S
O259 C251 1.252 . S
In260 O261 2.294 . S
In260 O262 2.326 . S
In260 O266 2.266 . S
In260 O267 2.326 . S
In260 O268 2.266 . S
In260 O269 2.326 1_554 S
In260 O271 2.294 . S
In260 O272 2.326 . S
O261 In260 2.294 . S
O261 C270 1.240 . S
O262 In260 2.326 . S
O262 C270 1.252 . S
C263 O266 1.252 . S
C263 O267 1.260 . S
C264 O271 1.240 . S
C264 O272 1.252 . S
C265 O268 1.252 1_556 S
C265 O269 1.260 . S
O266 In260 2.266 . S
O266 C263 1.252 . S
O267 In260 2.326 . S
O267 C263 1.260 . S
O268 In260 2.266 . S
O268 C265 1.252 1_554 S
O269 In260 2.326 1_556 S
O269 C265 1.260 . S
C270 O261 1.240 . S
C270 O262 1.252 . S
O271 In260 2.294 . S
O271 C264 1.240 . S
O272 In260 2.326 . S
O272 C264 1.252 . S
In273 O274 2.294 . S
In273 O275 2.326 . S
In273 O279 2.266 . S
In273 O280 2.326 . S
In273 O281 2.266 . S
In273 O282 2.326 . S
In273 O284 2.294 . S
In273 O285 2.326 . S
O274 In273 2.294 . S
O274 C283 1.240 . S
O275 In273 2.326 . S
O275 C283 1.252 . S
C276 O279 1.252 . S
C276 O280 1.260 . S
C277 O284 1.240 . S
C277 O285 1.252 . S
C278 O281 1.252 . S
C278 O282 1.260 . S
O279 In273 2.266 . S
O279 C276 1.252 . S
O280 In273 2.326 . S
O280 C276 1.260 . S
O281 In273 2.266 . S
O281 C278 1.252 . S
O282 In273 2.326 . S
O282 C278 1.260 . S
C283 O274 1.240 . S
C283 O275 1.252 . S
O284 In273 2.294 . S
O284 C277 1.240 . S
O285 In273 2.326 . S
O285 C277 1.252 . S
In286 O287 2.294 . S
In286 O288 2.326 . S
In286 O292 2.266 . S
In286 O293 2.326 . S
In286 O294 2.266 . S
In286 O295 2.326 . S
In286 O297 2.294 . S
In286 O298 2.326 . S
O287 In286 2.294 . S
O287 C296 1.240 . S
O288 In286 2.326 . S
O288 C296 1.252 . S
C289 O292 1.252 . S
C289 O293 1.260 . S
C290 O297 1.240 . S
C290 O298 1.252 . S
C291 O294 1.252 . S
C291 O295 1.260 . S
O292 In286 2.266 . S
O292 C289 1.252 . S
O293 In286 2.326 . S
O293 C289 1.260 . S
O294 In286 2.266 . S
O294 C291 1.252 . S
O295 In286 2.326 . S
O295 C291 1.260 . S
C296 O287 1.240 . S
C296 O288 1.252 . S
O297 In286 2.294 . S
O297 C290 1.240 . S
O298 In286 2.326 . S
O298 C290 1.252 . S
In299 O300 2.294 . S
In299 O301 2.326 . S
In299 O305 2.266 . S
In299 O306 2.326 . S
In299 O307 2.266 . S
In299 O308 2.326 . S
In299 O310 2.294 . S
In299 O311 2.326 . S
O300 In299 2.294 . S
O300 C309 1.240 . S
O301 In299 2.326 . S
O301 C309 1.252 . S
C302 O305 1.252 . S
C302 O306 1.260 . S
C303 O310 1.240 . S
C303 O311 1.252 . S
C304 O307 1.252 . S
C304 O308 1.260 . S
O305 In299 2.266 . S
O305 C302 1.252 . S
O306 In299 2.326 . S
O306 C302 1.260 . S
O307 In299 2.266 . S
O307 C304 1.252 . S
O308 In299 2.326 . S
O308 C304 1.260 . S
C309 O300 1.240 . S
C309 O301 1.252 . S
O310 In299 2.294 . S
O310 C303 1.240 . S
O311 In299 2.326 . S
O311 C303 1.252 . S
Tb312 C321 2.764 . S
Tb312 O322 2.325 . S
Tb312 O325 2.303 . S
Tb312 O329 2.322 . S
Tb312 O330 2.349 . S
Tb312 O333 2.415 . S
Tb312 O334 2.399 . S
Tb313 O323 2.322 . S
Tb313 O324 2.349 . S
Tb313 O326 2.415 1_455 S
Tb313 O327 2.399 1_455 S
Tb313 O328 2.325 . S
Tb313 O331 2.303 . S
Tb313 C342 2.764 1_455 S
C314 O330 1.261 . S
C314 O331 1.257 . S
C315 C318 1.358 . S
C315 C319 1.332 . S
C315 C321 1.504 . S
C316 C317 1.373 . S
C316 C320 1.308 . S
C317 C316 1.373 . S
C317 C318 1.429 . S
C317 H344 0.932 . S
C318 C315 1.358 . S
C318 C317 1.429 . S
C318 H345 0.930 . S
C319 C315 1.332 . S
C319 C320 1.394 . S
C319 H346 0.932 . S
C320 C316 1.308 . S
C320 C319 1.394 . S
C320 H347 0.929 . S
C321 Tb312 2.764 . S
C321 C315 1.504 . S
C321 O333 1.239 . S
C321 O334 1.263 . S
O322 Tb312 2.325 . S
O322 C332 1.236 . S
O323 Tb313 2.322 . S
O323 C332 1.257 . S
O324 Tb313 2.349 . S
O324 C335 1.261 . S
O325 Tb312 2.303 . S
O325 C335 1.257 . S
O326 Tb313 2.415 1_655 S
O326 C342 1.239 . S
O327 Tb313 2.399 1_655 S
O327 C342 1.263 . S
O328 Tb313 2.325 . S
O328 C343 1.236 . S
O329 Tb312 2.322 . S
O329 C343 1.257 . S
O330 Tb312 2.349 . S
O330 C314 1.261 . S
O331 Tb313 2.303 . S
O331 C314 1.257 . S
C332 O322 1.236 . S
C332 O323 1.257 . S
O333 Tb312 2.415 . S
O333 C321 1.239 . S
O334 Tb312 2.399 . S
O334 C321 1.263 . S
C335 O324 1.261 . S
C335 O325 1.257 . S
C336 C339 1.358 . S
C336 C340 1.332 . S
C336 C342 1.504 . S
C337 C338 1.356 1_554 S
C337 C341 1.308 . S
C338 C337 1.356 1_556 S
C338 C339 1.427 1_556 S
C338 H348 0.952 . S
C339 C336 1.358 . S
C339 C338 1.427 1_554 S
C339 H349 0.930 1_554 S
C340 C336 1.332 . S
C340 C341 1.394 . S
C340 H350 0.932 . S
C341 C337 1.308 . S
C341 C340 1.394 . S
C341 H351 0.929 . S
C342 Tb313 2.764 1_655 S
C342 O326 1.239 . S
C342 O327 1.263 . S
C342 C336 1.504 . S
C343 O328 1.236 . S
C343 O329 1.257 . S
H344 C317 0.932 . S
H345 C318 0.930 . S
H346 C319 0.932 . S
H347 C320 0.929 . S
H348 C338 0.952 . S
H349 C339 0.930 1_556 S
H350 C340 0.932 . S
H351 C341 0.929 . S
Tb352 C361 2.764 . S
Tb352 O362 2.325 . S
Tb352 O365 2.303 . S
Tb352 O369 2.322 . S
Tb352 O370 2.349 . S
Tb352 O373 2.415 . S
Tb352 O374 2.399 . S
Tb353 O363 2.322 . S
Tb353 O364 2.349 . S
Tb353 O366 2.415 . S
Tb353 O367 2.399 . S
Tb353 O368 2.325 . S
Tb353 O371 2.303 . S
Tb353 C382 2.764 . S
C354 O370 1.261 . S
C354 O371 1.257 . S
C355 C358 1.358 . S
C355 C359 1.332 . S
C355 C361 1.504 . S
C356 C357 1.373 . S
C356 C360 1.308 . S
C357 C356 1.373 . S
C357 C358 1.429 . S
C357 H384 0.932 . S
C358 C355 1.358 . S
C358 C357 1.429 . S
C358 H385 0.930 . S
C359 C355 1.332 . S
C359 C360 1.394 . S
C359 H386 0.932 . S
C360 C356 1.308 . S
C360 C359 1.394 . S
C360 H387 0.929 . S
C361 Tb352 2.764 . S
C361 C355 1.504 . S
C361 O373 1.239 . S
C361 O374 1.263 . S
O362 Tb352 2.325 . S
O362 C372 1.236 . S
O363 Tb353 2.322 . S
O363 C372 1.257 . S
O364 Tb353 2.349 . S
O364 C375 1.261 . S
O365 Tb352 2.303 . S
O365 C375 1.257 . S
O366 Tb353 2.415 . S
O366 C382 1.239 . S
O367 Tb353 2.399 . S
O367 C382 1.263 . S
O368 Tb353 2.325 . S
O368 C383 1.236 . S
O369 Tb352 2.322 . S
O369 C383 1.257 . S
O370 Tb352 2.349 . S
O370 C354 1.261 . S
O371 Tb353 2.303 . S
O371 C354 1.257 . S
C372 O362 1.236 . S
C372 O363 1.257 . S
O373 Tb352 2.415 . S
O373 C361 1.239 . S
O374 Tb352 2.399 . S
O374 C361 1.263 . S
C375 O364 1.261 . S
C375 O365 1.257 . S
C376 C379 1.358 . S
C376 C380 1.332 . S
C376 C382 1.504 . S
C377 C378 1.373 . S
C377 C381 1.308 . S
C378 C377 1.373 . S
C378 C379 1.429 . S
C378 H388 0.932 . S
C379 C376 1.358 . S
C379 C378 1.429 . S
C379 H389 0.930 . S
C380 C376 1.332 . S
C380 C381 1.394 . S
C380 H390 0.932 . S
C381 C377 1.308 . S
C381 C380 1.394 . S
C381 H391 0.929 . S
C382 Tb353 2.764 . S
C382 O366 1.239 . S
C382 O367 1.263 . S
C382 C376 1.504 . S
C383 O368 1.236 . S
C383 O369 1.257 . S
H384 C357 0.932 . S
H385 C358 0.930 . S
H386 C359 0.932 . S
H387 C360 0.929 . S
H388 C378 0.932 . S
H389 C379 0.930 . S
H390 C380 0.932 . S
H391 C381 0.929 . S
Tb392 C401 2.764 . S
Tb392 O402 2.325 . S
Tb392 O405 2.303 . S
Tb392 O409 2.322 1_545 S
Tb392 O410 2.349 . S
Tb392 O413 2.415 . S
Tb392 O414 2.399 . S
Tb393 O403 2.322 . S
Tb393 O404 2.349 . S
Tb393 O406 2.415 . S
Tb393 O407 2.399 . S
Tb393 O408 2.325 1_545 S
Tb393 O411 2.303 . S
Tb393 C422 2.764 . S
C394 O410 1.261 . S
C394 O411 1.257 . S
C395 C398 1.358 . S
C395 C399 1.332 . S
C395 C401 1.504 . S
C396 C397 1.373 . S
C396 C400 1.308 . S
C397 C396 1.373 . S
C397 C398 1.429 . S
C397 H424 0.932 . S
C398 C395 1.358 . S
C398 C397 1.429 . S
C398 H425 0.930 . S
C399 C395 1.332 . S
C399 C400 1.394 . S
C399 H426 0.932 . S
C400 C396 1.308 . S
C400 C399 1.394 . S
C400 H427 0.929 . S
C401 Tb392 2.764 . S
C401 C395 1.504 . S
C401 O413 1.239 . S
C401 O414 1.263 . S
O402 Tb392 2.325 . S
O402 C412 1.236 . S
O403 Tb393 2.322 . S
O403 C412 1.257 . S
O404 Tb393 2.349 . S
O404 C415 1.261 . S
O405 Tb392 2.303 . S
O405 C415 1.257 . S
O406 Tb393 2.415 . S
O406 C422 1.239 . S
O407 Tb393 2.399 . S
O407 C422 1.263 . S
O408 Tb393 2.325 1_565 S
O408 C423 1.236 . S
O409 Tb392 2.322 1_565 S
O409 C423 1.257 . S
O410 Tb392 2.349 . S
O410 C394 1.261 . S
O411 Tb393 2.303 . S
O411 C394 1.257 . S
C412 O402 1.236 . S
C412 O403 1.257 . S
O413 Tb392 2.415 . S
O413 C401 1.239 . S
O414 Tb392 2.399 . S
O414 C401 1.263 . S
C415 O404 1.261 . S
C415 O405 1.257 . S
C416 C419 1.358 . S
C416 C420 1.332 . S
C416 C422 1.504 1_565 S
C417 C418 1.373 . S
C417 C421 1.308 . S
C418 C417 1.373 . S
C418 C419 1.429 . S
C418 H428 0.932 . S
C419 C416 1.358 . S
C419 C418 1.429 . S
C419 H429 0.930 1_565 S
C420 C416 1.332 . S
C420 C421 1.394 . S
C420 H430 0.932 . S
C421 C417 1.308 . S
C421 C420 1.394 . S
C421 H431 0.929 . S
C422 Tb393 2.764 . S
C422 O406 1.239 . S
C422 O407 1.263 . S
C422 C416 1.504 1_545 S
C423 O408 1.236 . S
C423 O409 1.257 . S
H424 C397 0.932 . S
H425 C398 0.930 . S
H426 C399 0.932 . S
H427 C400 0.929 . S
H428 C418 0.932 . S
H429 C419 0.930 1_545 S
H430 C420 0.932 . S
H431 C421 0.929 . S
Tb432 C441 2.764 . S
Tb432 O442 2.325 . S
Tb432 O445 2.303 . S
Tb432 O449 2.322 . S
Tb432 O450 2.349 . S
Tb432 O453 2.415 . S
Tb432 O454 2.399 . S
Tb433 O443 2.322 . S
Tb433 O444 2.349 . S
Tb433 O446 2.415 . S
Tb433 O447 2.399 . S
Tb433 O448 2.325 . S
Tb433 O451 2.303 . S
Tb433 C462 2.764 . S
C434 O450 1.261 . S
C434 O451 1.257 . S
C435 C438 1.358 . S
C435 C439 1.332 . S
C435 C441 1.504 . S
C436 C437 1.373 . S
C436 C440 1.308 . S
C437 C436 1.373 . S
C437 C438 1.429 . S
C437 H464 0.932 . S
C438 C435 1.358 . S
C438 C437 1.429 . S
C438 H465 0.930 . S
C439 C435 1.332 . S
C439 C440 1.394 . S
C439 H466 0.932 . S
C440 C436 1.308 . S
C440 C439 1.394 . S
C440 H467 0.929 . S
C441 Tb432 2.764 . S
C441 C435 1.504 . S
C441 O453 1.239 . S
C441 O454 1.263 . S
O442 Tb432 2.325 . S
O442 C452 1.236 . S
O443 Tb433 2.322 . S
O443 C452 1.257 . S
O444 Tb433 2.349 . S
O444 C455 1.261 . S
O445 Tb432 2.303 . S
O445 C455 1.257 . S
O446 Tb433 2.415 . S
O446 C462 1.239 . S
O447 Tb433 2.399 . S
O447 C462 1.263 . S
O448 Tb433 2.325 . S
O448 C463 1.236 . S
O449 Tb432 2.322 . S
O449 C463 1.257 . S
O450 Tb432 2.349 . S
O450 C434 1.261 . S
O451 Tb433 2.303 . S
O451 C434 1.257 . S
C452 O442 1.236 . S
C452 O443 1.257 . S
O453 Tb432 2.415 . S
O453 C441 1.239 . S
O454 Tb432 2.399 . S
O454 C441 1.263 . S
C455 O444 1.261 . S
C455 O445 1.257 . S
C456 C459 1.358 . S
C456 C460 1.332 . S
C456 C462 1.504 . S
C457 C458 1.373 . S
C457 C461 1.308 . S
C458 C457 1.373 . S
C458 C459 1.429 . S
C458 H468 0.932 . S
C459 C456 1.358 . S
C459 C458 1.429 . S
C459 H469 0.930 . S
C460 C456 1.332 . S
C460 C461 1.394 . S
C460 H470 0.932 . S
C461 C457 1.308 . S
C461 C460 1.394 . S
C461 H471 0.929 . S
C462 Tb433 2.764 . S
C462 O446 1.239 . S
C462 O447 1.263 . S
C462 C456 1.504 . S
C463 O448 1.236 . S
C463 O449 1.257 . S
H464 C437 0.932 . S
H465 C438 0.930 . S
H466 C439 0.932 . S
H467 C440 0.929 . S
H468 C458 0.932 . S
H469 C459 0.930 . S
H470 C460 0.932 . S
H471 C461 0.929 . S
Tb472 C481 2.764 . S
Tb472 O482 2.325 . S
Tb472 O485 2.303 . S
Tb472 O489 2.322 . S
Tb472 O490 2.349 . S
Tb472 O493 2.415 . S
Tb472 O494 2.399 . S
Tb473 O483 2.322 1_545 S
Tb473 O484 2.349 . S
Tb473 O486 2.415 . S
Tb473 O487 2.399 . S
Tb473 O488 2.325 . S
Tb473 O491 2.303 . S
Tb473 C502 2.764 . S
C474 O490 1.261 . S
C474 O491 1.257 . S
C475 C478 1.358 . S
C475 C479 1.332 . S
C475 C481 1.504 . S
C476 C477 1.373 . S
C476 C480 1.308 . S
C477 C476 1.373 . S
C477 C478 1.429 . S
C477 H504 0.932 . S
C478 C475 1.358 . S
C478 C477 1.429 . S
C478 H505 0.930 . S
C479 C475 1.332 . S
C479 C480 1.394 . S
C479 H506 0.932 . S
C480 C476 1.308 . S
C480 C479 1.394 . S
C480 H507 0.929 . S
C481 Tb472 2.764 . S
C481 C475 1.504 . S
C481 O493 1.239 . S
C481 O494 1.263 . S
O482 Tb472 2.325 . S
O482 C492 1.236 1_545 S
O483 Tb473 2.322 1_565 S
O483 C492 1.257 . S
O484 Tb473 2.349 . S
O484 C495 1.261 . S
O485 Tb472 2.303 . S
O485 C495 1.257 . S
O486 Tb473 2.415 . S
O486 C502 1.239 . S
O487 Tb473 2.399 . S
O487 C502 1.263 . S
O488 Tb473 2.325 . S
O488 C503 1.236 . S
O489 Tb472 2.322 . S
O489 C503 1.257 . S
O490 Tb472 2.349 . S
O490 C474 1.261 . S
O491 Tb473 2.303 . S
O491 C474 1.257 . S
C492 O482 1.236 1_565 S
C492 O483 1.257 . S
O493 Tb472 2.415 . S
O493 C481 1.239 . S
O494 Tb472 2.399 . S
O494 C481 1.263 . S
C495 O484 1.261 . S
C495 O485 1.257 . S
C496 C499 1.358 . S
C496 C500 1.332 . S
C496 C502 1.504 . S
C497 C498 1.373 . S
C497 C501 1.308 1_455 S
C498 C497 1.373 . S
C498 C499 1.429 . S
C498 H508 0.932 . S
C499 C496 1.358 . S
C499 C498 1.429 . S
C499 H509 0.930 . S
C500 C496 1.332 . S
C500 C501 1.394 1_455 S
C500 H510 0.932 1_455 S
C501 C497 1.308 1_655 S
C501 C500 1.394 1_655 S
C501 H511 0.929 . S
C502 Tb473 2.764 . S
C502 O486 1.239 . S
C502 O487 1.263 . S
C502 C496 1.504 . S
C503 O488 1.236 . S
C503 O489 1.257 . S
H504 C477 0.932 . S
H505 C478 0.930 . S
H506 C479 0.932 . S
H507 C480 0.929 . S
H508 C498 0.932 . S
H509 C499 0.930 . S
H510 C500 0.932 1_655 S
H511 C501 0.929 . S
Tb512 C521 2.764 . S
Tb512 O522 2.325 . S
Tb512 O525 2.303 . S
Tb512 O529 2.322 . S
Tb512 O530 2.349 . S
Tb512 O533 2.415 . S
Tb512 O534 2.399 . S
Tb513 O523 2.322 . S
Tb513 O524 2.349 . S
Tb513 O526 2.415 . S
Tb513 O527 2.399 . S
Tb513 O528 2.325 . S
Tb513 O531 2.303 . S
Tb513 C542 2.764 . S
C514 O530 1.261 . S
C514 O531 1.257 . S
C515 C518 1.358 . S
C515 C519 1.332 . S
C515 C521 1.504 . S
C516 C517 1.373 . S
C516 C520 1.308 . S
C517 C516 1.373 . S
C517 C518 1.429 . S
C517 H544 0.932 . S
C518 C515 1.358 . S
C518 C517 1.429 . S
C518 H545 0.930 . S
C519 C515 1.332 . S
C519 C520 1.394 . S
C519 H546 0.932 . S
C520 C516 1.308 . S
C520 C519 1.394 . S
C520 H547 0.929 . S
C521 Tb512 2.764 . S
C521 C515 1.504 . S
C521 O533 1.239 . S
C521 O534 1.263 . S
O522 Tb512 2.325 . S
O522 C532 1.236 . S
O523 Tb513 2.322 . S
O523 C532 1.257 . S
O524 Tb513 2.349 . S
O524 C535 1.261 . S
O525 Tb512 2.303 . S
O525 C535 1.257 . S
O526 Tb513 2.415 . S
O526 C542 1.239 . S
O527 Tb513 2.399 . S
O527 C542 1.263 . S
O528 Tb513 2.325 . S
O528 C543 1.236 . S
O529 Tb512 2.322 . S
O529 C543 1.257 . S
O530 Tb512 2.349 . S
O530 C514 1.261 . S
O531 Tb513 2.303 . S
O531 C514 1.257 . S
C532 O522 1.236 . S
C532 O523 1.257 . S
O533 Tb512 2.415 . S
O533 C521 1.239 . S
O534 Tb512 2.399 . S
O534 C521 1.263 . S
C535 O524 1.261 . S
C535 O525 1.257 . S
C536 C539 1.358 . S
C536 C540 1.332 . S
C536 C542 1.504 . S
C537 C538 1.373 . S
C537 C541 1.308 . S
C538 C537 1.373 . S
C538 C539 1.429 . S
C538 H548 0.932 . S
C539 C536 1.358 . S
C539 C538 1.429 . S
C539 H549 0.930 . S
C540 C536 1.332 . S
C540 C541 1.394 . S
C540 H550 0.932 . S
C541 C537 1.308 . S
C541 C540 1.394 . S
C541 H551 0.929 . S
C542 Tb513 2.764 . S
C542 O526 1.239 . S
C542 O527 1.263 . S
C542 C536 1.504 . S
C543 O528 1.236 . S
C543 O529 1.257 . S
H544 C517 0.932 . S
H545 C518 0.930 . S
H546 C519 0.932 . S
H547 C520 0.929 . S
H548 C538 0.932 . S
H549 C539 0.930 . S
H550 C540 0.932 . S
H551 C541 0.929 . S
Tb552 C561 2.764 . S
Tb552 O562 2.325 . S
Tb552 O565 2.303 . S
Tb552 O569 2.322 . S
Tb552 O570 2.349 . S
Tb552 O573 2.415 . S
Tb552 O574 2.399 . S
Tb553 O563 2.322 1_556 S
Tb553 O564 2.349 . S
Tb553 O566 2.415 . S
Tb553 O567 2.399 . S
Tb553 O568 2.325 . S
Tb553 O571 2.303 1_556 S
Tb553 C582 2.764 . S
C554 O570 1.261 . S
C554 O571 1.257 . S
C555 C558 1.358 . S
C555 C559 1.332 . S
C555 C561 1.504 . S
C556 C557 1.373 . S
C556 C560 1.308 . S
C557 C556 1.373 . S
C557 C558 1.429 . S
C557 H584 0.932 . S
C558 C555 1.358 . S
C558 C557 1.429 . S
C558 H585 0.930 . S
C559 C555 1.332 . S
C559 C560 1.394 . S
C559 H586 0.932 . S
C560 C556 1.308 . S
C560 C559 1.394 . S
C560 H587 0.929 . S
C561 Tb552 2.764 . S
C561 C555 1.504 . S
C561 O573 1.239 . S
C561 O574 1.263 . S
O562 Tb552 2.325 . S
O562 C572 1.236 . S
O563 Tb553 2.322 1_554 S
O563 C572 1.257 . S
O564 Tb553 2.349 . S
O564 C575 1.261 1_556 S
O565 Tb552 2.303 . S
O565 C575 1.257 . S
O566 Tb553 2.415 . S
O566 C582 1.239 . S
O567 Tb553 2.399 . S
O567 C582 1.263 . S
O568 Tb553 2.325 . S
O568 C583 1.236 1_556 S
O569 Tb552 2.322 . S
O569 C583 1.257 . S
O570 Tb552 2.349 . S
O570 C554 1.261 . S
O571 Tb553 2.303 1_554 S
O571 C554 1.257 . S
C572 O562 1.236 . S
C572 O563 1.257 . S
O573 Tb552 2.415 . S
O573 C561 1.239 . S
O574 Tb552 2.399 . S
O574 C561 1.263 . S
C575 O564 1.261 1_554 S
C575 O565 1.257 . S
C576 C579 1.358 . S
C576 C580 1.332 . S
C576 C582 1.504 . S
C577 C578 1.373 . S
C577 C581 1.308 . S
C578 C577 1.373 . S
C578 C579 1.429 . S
C578 H588 0.932 . S
C579 C576 1.358 . S
C579 C578 1.429 . S
C579 H589 0.930 . S
C580 C576 1.332 . S
C580 C581 1.394 . S
C580 H590 0.932 . S
C581 C577 1.308 . S
C581 C580 1.394 . S
C581 H591 0.929 . S
C582 Tb553 2.764 . S
C582 O566 1.239 . S
C582 O567 1.263 . S
C582 C576 1.504 . S
C583 O568 1.236 1_554 S
C583 O569 1.257 . S
H584 C557 0.932 . S
H585 C558 0.930 . S
H586 C559 0.932 . S
H587 C560 0.929 . S
H588 C578 0.932 . S
H589 C579 0.930 . S
H590 C580 0.932 . S
H591 C581 0.929 . S
Tb592 C601 2.764 . S
Tb592 O602 2.325 . S
Tb592 O605 2.303 . S
Tb592 O609 2.322 . S
Tb592 O610 2.349 . S
Tb592 O613 2.415 . S
Tb592 O614 2.399 . S
Tb593 O603 2.322 . S
Tb593 O604 2.349 . S
Tb593 O606 2.415 . S
Tb593 O607 2.399 . S
Tb593 O608 2.325 . S
Tb593 O611 2.303 . S
Tb593 C622 2.764 . S
C594 O610 1.261 . S
C594 O611 1.257 . S
C595 C598 1.358 . S
C595 C599 1.332 . S
C595 C601 1.504 . S
C596 C597 1.373 . S
C596 C600 1.308 . S
C597 C596 1.373 . S
C597 C598 1.429 . S
C597 H624 0.932 . S
C598 C595 1.358 . S
C598 C597 1.429 . S
C598 H625 0.930 . S
C599 C595 1.332 . S
C599 C600 1.394 . S
C599 H626 0.932 . S
C600 C596 1.308 . S
C600 C599 1.394 . S
C600 H627 0.929 . S
C601 Tb592 2.764 . S
C601 C595 1.504 . S
C601 O613 1.239 . S
C601 O614 1.263 . S
O602 Tb592 2.325 . S
O602 C612 1.236 . S
O603 Tb593 2.322 . S
O603 C612 1.257 . S
O604 Tb593 2.349 . S
O604 C615 1.261 . S
O605 Tb592 2.303 . S
O605 C615 1.257 . S
O606 Tb593 2.415 . S
O606 C622 1.239 . S
O607 Tb593 2.399 . S
O607 C622 1.263 . S
O608 Tb593 2.325 . S
O608 C623 1.236 . S
O609 Tb592 2.322 . S
O609 C623 1.257 . S
O610 Tb592 2.349 . S
O610 C594 1.261 . S
O611 Tb593 2.303 . S
O611 C594 1.257 . S
C612 O602 1.236 . S
C612 O603 1.257 . S
O613 Tb592 2.415 . S
O613 C601 1.239 . S
O614 Tb592 2.399 . S
O614 C601 1.263 . S
C615 O604 1.261 . S
C615 O605 1.257 . S
C616 C619 1.358 . S
C616 C620 1.332 . S
C616 C622 1.504 . S
C617 C618 1.373 . S
C617 C621 1.308 . S
C618 C617 1.373 . S
C618 C619 1.429 . S
C618 H628 0.932 . S
C619 C616 1.358 . S
C619 C618 1.429 . S
C619 H629 0.930 . S
C620 C616 1.332 . S
C620 C621 1.394 . S
C620 H630 0.932 . S
C621 C617 1.308 . S
C621 C620 1.394 . S
C621 H631 0.929 . S
C622 Tb593 2.764 . S
C622 O606 1.239 . S
C622 O607 1.263 . S
C622 C616 1.504 . S
C623 O608 1.236 . S
C623 O609 1.257 . S
H624 C597 0.932 . S
H625 C598 0.930 . S
H626 C599 0.932 . S
H627 C600 0.929 . S
H628 C618 0.932 . S
H629 C619 0.930 . S
H630 C620 0.932 . S
H631 C621 0.929 . S
Tb632 C641 2.764 . S
Tb632 O642 2.325 . S
Tb632 O645 2.303 . S
Tb632 O649 2.322 . S
Tb632 O650 2.349 . S
Tb632 O653 2.415 . S
Tb632 O654 2.399 . S
Tb633 O643 2.322 1_556 S
Tb633 O644 2.349 . S
Tb633 O646 2.415 . S
Tb633 O647 2.399 . S
Tb633 O648 2.325 . S
Tb633 O651 2.303 1_556 S
Tb633 C662 2.764 . S
C634 O650 1.261 . S
C634 O651 1.257 . S
C635 C638 1.358 . S
C635 C639 1.332 . S
C635 C641 1.504 . S
C636 C637 1.373 . S
C636 C640 1.308 . S
C637 C636 1.373 . S
C637 C638 1.429 . S
C637 H664 0.932 . S
C638 C635 1.358 . S
C638 C637 1.429 . S
C638 H665 0.930 . S
C639 C635 1.332 . S
C639 C640 1.394 . S
C639 H666 0.932 . S
C640 C636 1.308 . S
C640 C639 1.394 . S
C640 H667 0.929 . S
C641 Tb632 2.764 . S
C641 C635 1.504 . S
C641 O653 1.239 . S
C641 O654 1.263 . S
O642 Tb632 2.325 . S
O642 C652 1.236 . S
O643 Tb633 2.322 1_554 S
O643 C652 1.257 . S
O644 Tb633 2.349 . S
O644 C655 1.261 1_556 S
O645 Tb632 2.303 . S
O645 C655 1.257 . S
O646 Tb633 2.415 . S
O646 C662 1.239 . S
O647 Tb633 2.399 . S
O647 C662 1.263 . S
O648 Tb633 2.325 . S
O648 C663 1.236 1_556 S
O649 Tb632 2.322 . S
O649 C663 1.257 . S
O650 Tb632 2.349 . S
O650 C634 1.261 . S
O651 Tb633 2.303 1_554 S
O651 C634 1.257 . S
C652 O642 1.236 . S
C652 O643 1.257 . S
O653 Tb632 2.415 . S
O653 C641 1.239 . S
O654 Tb632 2.399 . S
O654 C641 1.263 . S
C655 O644 1.261 1_554 S
C655 O645 1.257 . S
C656 C659 1.358 . S
C656 C660 1.332 . S
C656 C662 1.504 . S
C657 C658 1.373 . S
C657 C661 1.308 . S
C658 C657 1.373 . S
C658 C659 1.429 . S
C658 H668 0.932 . S
C659 C656 1.358 . S
C659 C658 1.429 . S
C659 H669 0.930 . S
C660 C656 1.332 . S
C660 C661 1.394 . S
C660 H670 0.932 . S
C661 C657 1.308 . S
C661 C660 1.394 . S
C661 H671 0.929 . S
C662 Tb633 2.764 . S
C662 O646 1.239 . S
C662 O647 1.263 . S
C662 C656 1.504 . S
C663 O648 1.236 1_554 S
C663 O649 1.257 . S
H664 C637 0.932 . S
H665 C638 0.930 . S
H666 C639 0.932 . S
H667 C640 0.929 . S
H668 C658 0.932 . S
H669 C659 0.930 . S
H670 C660 0.932 . S
H671 C661 0.929 . S
Tb672 C681 2.764 . S
Tb672 O682 2.325 . S
Tb672 O685 2.303 . S
Tb672 O689 2.322 . S
Tb672 O690 2.349 . S
Tb672 O693 2.415 . S
Tb672 O694 2.399 . S
Tb673 O683 2.322 . S
Tb673 O684 2.349 . S
Tb673 O686 2.415 . S
Tb673 O687 2.399 . S
Tb673 O688 2.325 . S
Tb673 O691 2.303 . S
Tb673 C702 2.764 . S
C674 O690 1.261 . S
C674 O691 1.257 . S
C675 C678 1.358 . S
C675 C679 1.332 . S
C675 C681 1.504 . S
C676 C677 1.373 . S
C676 C680 1.308 . S
C677 C676 1.373 . S
C677 C678 1.429 . S
C677 H704 0.932 . S
C678 C675 1.358 . S
C678 C677 1.429 . S
C678 H705 0.930 . S
C679 C675 1.332 . S
C679 C680 1.394 . S
C679 H706 0.932 . S
C680 C676 1.308 . S
C680 C679 1.394 . S
C680 H707 0.929 . S
C681 Tb672 2.764 . S
C681 C675 1.504 . S
C681 O693 1.239 . S
C681 O694 1.263 . S
O682 Tb672 2.325 . S
O682 C692 1.236 . S
O683 Tb673 2.322 . S
O683 C692 1.257 . S
O684 Tb673 2.349 . S
O684 C695 1.261 . S
O685 Tb672 2.303 . S
O685 C695 1.257 . S
O686 Tb673 2.415 . S
O686 C702 1.239 . S
O687 Tb673 2.399 . S
O687 C702 1.263 . S
O688 Tb673 2.325 . S
O688 C703 1.236 . S
O689 Tb672 2.322 . S
O689 C703 1.257 . S
O690 Tb672 2.349 . S
O690 C674 1.261 . S
O691 Tb673 2.303 . S
O691 C674 1.257 . S
C692 O682 1.236 . S
C692 O683 1.257 . S
O693 Tb672 2.415 . S
O693 C681 1.239 . S
O694 Tb672 2.399 . S
O694 C681 1.263 . S
C695 O684 1.261 . S
C695 O685 1.257 . S
C696 C699 1.358 . S
C696 C700 1.332 . S
C696 C702 1.504 . S
C697 C698 1.373 . S
C697 C701 1.308 . S
C698 C697 1.373 . S
C698 C699 1.429 . S
C698 H708 0.932 . S
C699 C696 1.358 . S
C699 C698 1.429 . S
C699 H709 0.930 . S
C700 C696 1.332 . S
C700 C701 1.394 . S
C700 H710 0.932 . S
C701 C697 1.308 . S
C701 C700 1.394 . S
C701 H711 0.929 . S
C702 Tb673 2.764 . S
C702 O686 1.239 . S
C702 O687 1.263 . S
C702 C696 1.504 . S
C703 O688 1.236 . S
C703 O689 1.257 . S
H704 C677 0.932 . S
H705 C678 0.930 . S
H706 C679 0.932 . S
H707 C680 0.929 . S
H708 C698 0.932 . S
H709 C699 0.930 . S
H710 C700 0.932 . S
H711 C701 0.929 . S
Tb712 C721 2.764 . S
Tb712 O722 2.325 . S
Tb712 O725 2.303 . S
Tb712 O729 2.322 . S
Tb712 O730 2.349 . S
Tb712 O733 2.415 . S
Tb712 O734 2.399 . S
Tb713 O723 2.322 . S
Tb713 O724 2.349 1_455 S
Tb713 O726 2.415 . S
Tb713 O727 2.399 . S
Tb713 O728 2.325 . S
Tb713 O731 2.303 . S
Tb713 C742 2.764 . S
C714 O730 1.261 . S
C714 O731 1.257 . S
C715 C718 1.358 . S
C715 C719 1.332 1_455 S
C715 C721 1.504 . S
C716 C717 1.373 1_655 S
C716 C720 1.308 . S
C717 C716 1.373 1_455 S
C717 C718 1.429 . S
C717 H744 0.932 . S
C718 C715 1.358 . S
C718 C717 1.429 . S
C718 H745 0.930 . S
C719 C715 1.332 1_655 S
C719 C720 1.394 . S
C719 H746 0.932 . S
C720 C716 1.308 . S
C720 C719 1.394 . S
C720 H747 0.929 . S
C721 Tb712 2.764 . S
C721 C715 1.504 . S
C721 O733 1.239 . S
C721 O734 1.263 . S
O722 Tb712 2.325 . S
O722 C732 1.236 . S
O723 Tb713 2.322 . S
O723 C732 1.257 . S
O724 Tb713 2.349 1_655 S
O724 C735 1.261 . S
O725 Tb712 2.303 . S
O725 C735 1.257 1_455 S
O726 Tb713 2.415 . S
O726 C742 1.239 . S
O727 Tb713 2.399 . S
O727 C742 1.263 . S
O728 Tb713 2.325 . S
O728 C743 1.236 . S
O729 Tb712 2.322 . S
O729 C743 1.257 . S
O730 Tb712 2.349 . S
O730 C714 1.261 . S
O731 Tb713 2.303 . S
O731 C714 1.257 . S
C732 O722 1.236 . S
C732 O723 1.257 . S
O733 Tb712 2.415 . S
O733 C721 1.239 . S
O734 Tb712 2.399 . S
O734 C721 1.263 . S
C735 O724 1.261 . S
C735 O725 1.257 1_655 S
C736 C739 1.358 . S
C736 C740 1.332 . S
C736 C742 1.504 . S
C737 C738 1.373 . S
C737 C741 1.308 . S
C738 C737 1.373 . S
C738 C739 1.429 . S
C738 H748 0.932 . S
C739 C736 1.358 . S
C739 C738 1.429 . S
C739 H749 0.930 . S
C740 C736 1.332 . S
C740 C741 1.394 . S
C740 H750 0.932 . S
C741 C737 1.308 . S
C741 C740 1.394 . S
C741 H751 0.929 . S
C742 Tb713 2.764 . S
C742 O726 1.239 . S
C742 O727 1.263 . S
C742 C736 1.504 . S
C743 O728 1.236 . S
C743 O729 1.257 . S
H744 C717 0.932 . S
H745 C718 0.930 . S
H746 C719 0.932 . S
H747 C720 0.929 . S
H748 C738 0.932 . S
H749 C739 0.930 . S
H750 C740 0.932 . S
H751 C741 0.929 . S
Tb752 C761 2.764 . S
Tb752 O762 2.325 . S
Tb752 O765 2.303 . S
Tb752 O769 2.322 . S
Tb752 O770 2.349 . S
Tb752 O773 2.415 . S
Tb752 O774 2.399 . S
Tb753 O763 2.322 . S
Tb753 O764 2.349 . S
Tb753 O766 2.415 . S
Tb753 O767 2.399 . S
Tb753 O768 2.325 . S
Tb753 O771 2.303 . S
Tb753 C782 2.764 . S
C754 O770 1.261 . S
C754 O771 1.257 . S
C755 C758 1.358 . S
C755 C759 1.332 . S
C755 C761 1.504 . S
C756 C757 1.373 . S
C756 C760 1.308 . S
C757 C756 1.373 . S
C757 C758 1.429 . S
C757 H784 0.932 . S
C758 C755 1.358 . S
C758 C757 1.429 . S
C758 H785 0.930 . S
C759 C755 1.332 . S
C759 C760 1.394 . S
C759 H786 0.932 . S
C760 C756 1.308 . S
C760 C759 1.394 . S
C760 H787 0.929 . S
C761 Tb752 2.764 . S
C761 C755 1.504 . S
C761 O773 1.239 . S
C761 O774 1.263 . S
O762 Tb752 2.325 . S
O762 C772 1.236 . S
O763 Tb753 2.322 . S
O763 C772 1.257 . S
O764 Tb753 2.349 . S
O764 C775 1.261 . S
O765 Tb752 2.303 . S
O765 C775 1.257 . S
O766 Tb753 2.415 . S
O766 C782 1.239 . S
O767 Tb753 2.399 . S
O767 C782 1.263 . S
O768 Tb753 2.325 . S
O768 C783 1.236 . S
O769 Tb752 2.322 . S
O769 C783 1.257 . S
O770 Tb752 2.349 . S
O770 C754 1.261 . S
O771 Tb753 2.303 . S
O771 C754 1.257 . S
C772 O762 1.236 . S
C772 O763 1.257 . S
O773 Tb752 2.415 . S
O773 C761 1.239 . S
O774 Tb752 2.399 . S
O774 C761 1.263 . S
C775 O764 1.261 . S
C775 O765 1.257 . S
C776 C779 1.358 . S
C776 C780 1.332 . S
C776 C782 1.504 . S
C777 C778 1.373 . S
C777 C781 1.308 . S
C778 C777 1.373 . S
C778 C779 1.429 . S
C778 H788 0.932 . S
C779 C776 1.358 . S
C779 C778 1.429 . S
C779 H789 0.930 . S
C780 C776 1.332 . S
C780 C781 1.394 . S
C780 H790 0.932 . S
C781 C777 1.308 . S
C781 C780 1.394 . S
C781 H791 0.929 . S
C782 Tb753 2.764 . S
C782 O766 1.239 . S
C782 O767 1.263 . S
C782 C776 1.504 . S
C783 O768 1.236 . S
C783 O769 1.257 . S
H784 C757 0.932 . S
H785 C758 0.930 . S
H786 C759 0.932 . S
H787 C760 0.929 . S
H788 C778 0.932 . S
H789 C779 0.930 . S
H790 C780 0.932 . S
H791 C781 0.929 . S
Tb792 C801 2.764 . S
Tb792 O802 2.325 . S
Tb792 O805 2.303 . S
Tb792 O809 2.322 . S
Tb792 O810 2.349 . S
Tb792 O813 2.415 . S
Tb792 O814 2.399 . S
Tb793 O803 2.322 . S
Tb793 O804 2.349 . S
Tb793 O806 2.415 . S
Tb793 O807 2.399 . S
Tb793 O808 2.325 . S
Tb793 O811 2.303 . S
Tb793 C822 2.764 . S
C794 O810 1.261 . S
C794 O811 1.257 . S
C795 C798 1.358 . S
C795 C799 1.332 . S
C795 C801 1.504 . S
C796 C797 1.373 . S
C796 C800 1.308 . S
C797 C796 1.373 . S
C797 C798 1.429 . S
C797 H824 0.932 . S
C798 C795 1.358 . S
C798 C797 1.429 . S
C798 H825 0.930 . S
C799 C795 1.332 . S
C799 C800 1.394 . S
C799 H826 0.932 . S
C800 C796 1.308 . S
C800 C799 1.394 . S
C800 H827 0.929 . S
C801 Tb792 2.764 . S
C801 C795 1.504 . S
C801 O813 1.239 . S
C801 O814 1.263 . S
O802 Tb792 2.325 . S
O802 C812 1.236 . S
O803 Tb793 2.322 . S
O803 C812 1.257 . S
O804 Tb793 2.349 . S
O804 C815 1.261 . S
O805 Tb792 2.303 . S
O805 C815 1.257 . S
O806 Tb793 2.415 . S
O806 C822 1.239 . S
O807 Tb793 2.399 . S
O807 C822 1.263 . S
O808 Tb793 2.325 . S
O808 C823 1.236 . S
O809 Tb792 2.322 . S
O809 C823 1.257 . S
O810 Tb792 2.349 . S
O810 C794 1.261 . S
O811 Tb793 2.303 . S
O811 C794 1.257 . S
C812 O802 1.236 . S
C812 O803 1.257 . S
O813 Tb792 2.415 . S
O813 C801 1.239 . S
O814 Tb792 2.399 . S
O814 C801 1.263 . S
C815 O804 1.261 . S
C815 O805 1.257 . S
C816 C819 1.358 . S
C816 C820 1.332 . S
C816 C822 1.504 . S
C817 C818 1.373 . S
C817 C821 1.308 . S
C818 C817 1.373 . S
C818 C819 1.429 . S
C818 H828 0.932 . S
C819 C816 1.358 . S
C819 C818 1.429 . S
C819 H829 0.930 . S
C820 C816 1.332 . S
C820 C821 1.394 . S
C820 H830 0.932 . S
C821 C817 1.308 . S
C821 C820 1.394 . S
C821 H831 0.929 . S
C822 Tb793 2.764 . S
C822 O806 1.239 . S
C822 O807 1.263 . S
C822 C816 1.504 . S
C823 O808 1.236 . S
C823 O809 1.257 . S
H824 C797 0.932 . S
H825 C798 0.930 . S
H826 C799 0.932 . S
H827 C800 0.929 . S
H828 C818 0.932 . S
H829 C819 0.930 . S
H830 C820 0.932 . S
H831 C821 0.929 . S
Tb832 C841 2.764 . S
Tb832 O842 2.325 . S
Tb832 O845 2.303 . S
Tb832 O849 2.322 . S
Tb832 O850 2.349 . S
Tb832 O853 2.415 . S
Tb832 O854 2.399 . S
Tb833 O843 2.322 . S
Tb833 O844 2.349 . S
Tb833 O846 2.415 . S
Tb833 O847 2.399 . S
Tb833 O848 2.325 . S
Tb833 O851 2.303 . S
Tb833 C862 2.764 . S
C834 O850 1.261 . S
C834 O851 1.257 . S
C835 C838 1.358 . S
C835 C839 1.332 . S
C835 C841 1.504 . S
C836 C837 1.373 . S
C836 C840 1.308 . S
C837 C836 1.373 . S
C837 C838 1.429 . S
C837 H864 0.932 . S
C838 C835 1.358 . S
C838 C837 1.429 . S
C838 H865 0.930 . S
C839 C835 1.332 . S
C839 C840 1.394 . S
C839 H866 0.932 . S
C840 C836 1.308 . S
C840 C839 1.394 . S
C840 H867 0.929 . S
C841 Tb832 2.764 . S
C841 C835 1.504 . S
C841 O853 1.239 . S
C841 O854 1.263 . S
O842 Tb832 2.325 . S
O842 C852 1.236 . S
O843 Tb833 2.322 . S
O843 C852 1.257 . S
O844 Tb833 2.349 . S
O844 C855 1.261 . S
O845 Tb832 2.303 . S
O845 C855 1.257 . S
O846 Tb833 2.415 . S
O846 C862 1.239 . S
O847 Tb833 2.399 . S
O847 C862 1.263 . S
O848 Tb833 2.325 . S
O848 C863 1.236 . S
O849 Tb832 2.322 . S
O849 C863 1.257 . S
O850 Tb832 2.349 . S
O850 C834 1.261 . S
O851 Tb833 2.303 . S
O851 C834 1.257 . S
C852 O842 1.236 . S
C852 O843 1.257 . S
O853 Tb832 2.415 . S
O853 C841 1.239 . S
O854 Tb832 2.399 . S
O854 C841 1.263 . S
C855 O844 1.261 . S
C855 O845 1.257 . S
C856 C859 1.358 . S
C856 C860 1.332 . S
C856 C862 1.504 . S
C857 C858 1.373 . S
C857 C861 1.308 . S
C858 C857 1.373 . S
C858 C859 1.429 . S
C858 H868 0.932 . S
C859 C856 1.358 . S
C859 C858 1.429 . S
C859 H869 0.930 . S
C860 C856 1.332 . S
C860 C861 1.394 . S
C860 H870 0.932 . S
C861 C857 1.308 . S
C861 C860 1.394 . S
C861 H871 0.929 . S
C862 Tb833 2.764 . S
C862 O846 1.239 . S
C862 O847 1.263 . S
C862 C856 1.504 . S
C863 O848 1.236 . S
C863 O849 1.257 . S
H864 C837 0.932 . S
H865 C838 0.930 . S
H866 C839 0.932 . S
H867 C840 0.929 . S
H868 C858 0.932 . S
H869 C859 0.930 . S
H870 C860 0.932 . S
H871 C861 0.929 . S
Tb872 C881 2.764 . S
Tb872 O882 2.325 . S
Tb872 O885 2.303 . S
Tb872 O889 2.322 . S
Tb872 O890 2.349 . S
Tb872 O893 2.415 . S
Tb872 O894 2.399 . S
Tb873 O883 2.322 . S
Tb873 O884 2.349 . S
Tb873 O886 2.415 . S
Tb873 O887 2.399 . S
Tb873 O888 2.325 . S
Tb873 O891 2.303 . S
Tb873 C902 2.764 . S
C874 O890 1.261 . S
C874 O891 1.257 . S
C875 C878 1.358 . S
C875 C879 1.332 . S
C875 C881 1.504 . S
C876 C877 1.373 . S
C876 C880 1.308 . S
C877 C876 1.373 . S
C877 C878 1.429 . S
C877 H904 0.932 . S
C878 C875 1.358 . S
C878 C877 1.429 . S
C878 H905 0.930 . S
C879 C875 1.332 . S
C879 C880 1.394 . S
C879 H906 0.932 . S
C880 C876 1.308 . S
C880 C879 1.394 . S
C880 H907 0.929 . S
C881 Tb872 2.764 . S
C881 C875 1.504 . S
C881 O893 1.239 . S
C881 O894 1.263 . S
O882 Tb872 2.325 . S
O882 C892 1.236 . S
O883 Tb873 2.322 . S
O883 C892 1.257 . S
O884 Tb873 2.349 . S
O884 C895 1.261 . S
O885 Tb872 2.303 . S
O885 C895 1.257 . S
O886 Tb873 2.415 . S
O886 C902 1.239 . S
O887 Tb873 2.399 . S
O887 C902 1.263 . S
O888 Tb873 2.325 . S
O888 C903 1.236 . S
O889 Tb872 2.322 . S
O889 C903 1.257 . S
O890 Tb872 2.349 . S
O890 C874 1.261 . S
O891 Tb873 2.303 . S
O891 C874 1.257 . S
C892 O882 1.236 . S
C892 O883 1.257 . S
O893 Tb872 2.415 . S
O893 C881 1.239 . S
O894 Tb872 2.399 . S
O894 C881 1.263 . S
C895 O884 1.261 . S
C895 O885 1.257 . S
C896 C899 1.358 . S
C896 C900 1.332 . S
C896 C902 1.504 . S
C897 C898 1.373 . S
C897 C901 1.308 . S
C898 C897 1.373 . S
C898 C899 1.429 . S
C898 H908 0.932 . S
C899 C896 1.358 . S
C899 C898 1.429 . S
C899 H909 0.930 . S
C900 C896 1.332 . S
C900 C901 1.394 . S
C900 H910 0.932 . S
C901 C897 1.308 . S
C901 C900 1.394 . S
C901 H911 0.929 . S
C902 Tb873 2.764 . S
C902 O886 1.239 . S
C902 O887 1.263 . S
C902 C896 1.504 . S
C903 O888 1.236 . S
C903 O889 1.257 . S
H904 C877 0.932 . S
H905 C878 0.930 . S
H906 C879 0.932 . S
H907 C880 0.929 . S
H908 C898 0.932 . S
H909 C899 0.930 . S
H910 C900 0.932 . S
H911 C901 0.929 . S
Tb912 C921 2.789 . S
Tb912 O922 2.317 1_655 S
Tb912 O925 2.290 1_655 S
Tb912 O929 2.307 1_655 S
Tb912 O930 2.336 1_655 S
Tb912 O933 2.438 . S
Tb912 O934 2.421 . S
Tb913 O923 2.322 . S
Tb913 O924 2.396 . S
Tb913 O926 2.415 . S
Tb913 O927 2.399 . S
Tb913 O928 2.325 . S
Tb913 O931 2.303 . S
Tb913 C942 2.764 . S
C914 O930 1.261 . S
C914 O931 1.257 . S
C915 C918 1.358 . S
C915 C919 1.332 . S
C915 C921 1.504 . S
C916 C917 1.373 . S
C916 C920 1.308 . S
C917 C916 1.373 . S
C917 C918 1.429 . S
C917 H944 0.932 . S
C918 C915 1.358 . S
C918 C917 1.429 . S
C918 H945 0.930 . S
C919 C915 1.332 . S
C919 C920 1.394 . S
C919 H946 0.932 . S
C920 C916 1.308 . S
C920 C919 1.394 . S
C920 H947 0.929 . S
C921 Tb912 2.789 . S
C921 C915 1.504 . S
C921 O933 1.239 . S
C921 O934 1.263 . S
O922 Tb912 2.317 1_455 S
O922 C932 1.236 . S
O923 Tb913 2.322 . S
O923 C932 1.257 . S
O924 Tb913 2.396 . S
O924 C935 1.274 . S
O925 Tb912 2.290 1_455 S
O925 C935 1.257 . S
O926 Tb913 2.415 . S
O926 C942 1.239 . S
O927 Tb913 2.399 . S
O927 C942 1.263 . S
O928 Tb913 2.325 . S
O928 C943 1.236 . S
O929 Tb912 2.307 1_455 S
O929 C943 1.257 . S
O930 Tb912 2.336 1_455 S
O930 C914 1.261 . S
O931 Tb913 2.303 . S
O931 C914 1.257 . S
C932 O922 1.236 . S
C932 O923 1.257 . S
O933 Tb912 2.438 . S
O933 C921 1.239 . S
O934 Tb912 2.421 . S
O934 C921 1.263 . S
C935 O924 1.274 . S
C935 O925 1.257 . S
C936 C939 1.358 . S
C936 C940 1.332 . S
C936 C942 1.504 . S
C937 C938 1.373 . S
C937 C941 1.308 . S
C938 C937 1.373 . S
C938 C939 1.429 . S
C938 H948 0.932 1_554 S
C939 C936 1.358 . S
C939 C938 1.429 . S
C939 H949 0.930 1_554 S
C940 C936 1.332 . S
C940 C941 1.394 . S
C940 H950 0.932 . S
C941 C937 1.308 . S
C941 C940 1.394 . S
C941 H951 0.929 . S
C942 Tb913 2.764 . S
C942 O926 1.239 . S
C942 O927 1.263 . S
C942 C936 1.504 . S
C943 O928 1.236 . S
C943 O929 1.257 . S
H944 C917 0.932 . S
H945 C918 0.930 . S
H946 C919 0.932 . S
H947 C920 0.929 . S
H948 C938 0.932 1_556 S
H949 C939 0.930 1_556 S
H950 C940 0.932 . S
H951 C941 0.929 . S
H952 C958 0.930 . S
H953 C962 0.930 . S
H954 C967 0.929 . S
H955 C965 0.929 . S
H956 C960 0.929 1_556 S
H957 C966 0.915 1_654 S
C958 H952 0.930 . S
C958 C959 1.367 1_655 S
C958 C966 1.364 1_655 S
C959 C958 1.367 1_455 S
C959 C967 1.433 . S
C960 H956 0.929 1_554 S
C960 C962 1.378 . S
C960 C964 1.350 . S
C961 C964 1.463 1_556 S
C961 C966 1.378 . S
C961 N969 1.427 . S
C962 H953 0.930 . S
C962 C960 1.378 . S
C962 C963 1.367 . S
C963 C962 1.367 . S
C963 C965 1.433 . S
C964 C960 1.350 . S
C964 C961 1.463 1_554 S
C964 N968 1.427 . S
C965 H955 0.929 . S
C965 C963 1.433 . S
C965 N968 1.384 . S
C966 H957 0.915 1_456 S
C966 C958 1.364 1_455 S
C966 C961 1.378 . S
C967 H954 0.929 . S
C967 C959 1.433 . S
C967 N969 1.384 . S
N968 C964 1.427 . S
N968 C965 1.384 . S
N969 C961 1.427 . S
N969 C967 1.384 . S
H970 C976 0.930 . S
H971 C980 0.930 . S
H972 C985 0.929 . S
H973 C983 0.929 . S
H974 C978 0.929 . S
H975 C984 0.929 . S
C976 H970 0.930 . S
C976 C977 1.367 . S
C976 C984 1.378 . S
C977 C976 1.367 . S
C977 C985 1.433 . S
C978 H974 0.929 . S
C978 C980 1.378 . S
C978 C982 1.350 . S
C979 C982 1.463 . S
C979 C984 1.350 . S
C979 N987 1.427 . S
C980 H971 0.930 . S
C980 C978 1.378 . S
C980 C981 1.367 . S
C981 C980 1.367 . S
C981 C983 1.433 . S
C982 C978 1.350 . S
C982 C979 1.463 . S
C982 N986 1.427 . S
C983 H973 0.929 . S
C983 C981 1.433 . S
C983 N986 1.384 . S
C984 H975 0.929 . S
C984 C976 1.378 . S
C984 C979 1.350 . S
C985 H972 0.929 . S
C985 C977 1.433 . S
C985 N987 1.384 . S
N986 C982 1.427 . S
N986 C983 1.384 . S
N987 C979 1.427 . S
N987 C985 1.384 . S
H988 C994 0.930 . S
H989 C998 0.930 . S
H990 C1003 0.929 . S
H991 C1001 0.929 . S
H992 C996 0.929 . S
H993 C1002 0.929 . S
C994 H988 0.930 . S
C994 C995 1.367 . S
C994 C1002 1.378 . S
C995 C994 1.367 . S
C995 C1003 1.433 . S
C996 H992 0.929 . S
C996 C998 1.378 . S
C996 C1000 1.350 . S
C997 C1000 1.463 . S
C997 C1002 1.350 . S
C997 N1005 1.427 . S
C998 H989 0.930 . S
C998 C996 1.378 . S
C998 C999 1.367 . S
C999 C998 1.367 . S
C999 C1001 1.433 . S
C1000 C996 1.350 . S
C1000 C997 1.463 . S
C1000 N1004 1.427 . S
C1001 H991 0.929 . S
C1001 C999 1.433 . S
C1001 N1004 1.384 . S
C1002 H993 0.929 . S
C1002 C994 1.378 . S
C1002 C997 1.350 . S
C1003 H990 0.929 . S
C1003 C995 1.433 . S
C1003 N1005 1.384 . S
N1004 C1000 1.427 . S
N1004 C1001 1.384 . S
N1005 C997 1.427 . S
N1005 C1003 1.384 . S
H1006 C1012 0.930 . S
H1007 C1016 0.930 . S
H1008 C1021 0.929 . S
H1009 C1019 0.929 . S
H1010 C1014 0.929 . S
H1011 C1020 0.929 . S
C1012 H1006 0.930 . S
C1012 C1013 1.367 . S
C1012 C1020 1.378 . S
C1013 C1012 1.367 . S
C1013 C1021 1.433 . S
C1014 H1010 0.929 . S
C1014 C1016 1.378 . S
C1014 C1018 1.350 . S
C1015 C1018 1.463 . S
C1015 C1020 1.350 . S
C1015 N1023 1.427 . S
C1016 H1007 0.930 . S
C1016 C1014 1.378 . S
C1016 C1017 1.367 . S
C1017 C1016 1.367 . S
C1017 C1019 1.433 . S
C1018 C1014 1.350 . S
C1018 C1015 1.463 . S
C1018 N1022 1.427 . S
C1019 H1009 0.929 . S
C1019 C1017 1.433 . S
C1019 N1022 1.384 . S
C1020 H1011 0.929 . S
C1020 C1012 1.378 . S
C1020 C1015 1.350 . S
C1021 H1008 0.929 . S
C1021 C1013 1.433 . S
C1021 N1023 1.384 . S
N1022 C1018 1.427 . S
N1022 C1019 1.384 . S
N1023 C1015 1.427 . S
N1023 C1021 1.384 . S
H1024 C1030 0.930 . S
H1025 C1034 0.930 . S
H1026 C1039 0.929 . S
H1027 C1037 0.929 . S
H1028 C1032 0.929 . S
H1029 C1038 0.929 . S
C1030 H1024 0.930 . S
C1030 C1031 1.367 . S
C1030 C1038 1.378 . S
C1031 C1030 1.367 . S
C1031 C1039 1.433 . S
C1032 H1028 0.929 . S
C1032 C1034 1.378 . S
C1032 C1036 1.350 . S
C1033 C1036 1.463 . S
C1033 C1038 1.350 . S
C1033 N1041 1.427 . S
C1034 H1025 0.930 . S
C1034 C1032 1.378 . S
C1034 C1035 1.367 . S
C1035 C1034 1.367 . S
C1035 C1037 1.433 . S
C1036 C1032 1.350 . S
C1036 C1033 1.463 . S
C1036 N1040 1.427 . S
C1037 H1027 0.929 . S
C1037 C1035 1.433 . S
C1037 N1040 1.384 . S
C1038 H1029 0.929 . S
C1038 C1030 1.378 . S
C1038 C1033 1.350 . S
C1039 H1026 0.929 . S
C1039 C1031 1.433 . S
C1039 N1041 1.384 . S
N1040 C1036 1.427 . S
N1040 C1037 1.384 . S
N1041 C1033 1.427 . S
N1041 C1039 1.384 . S
H1042 C1048 0.930 . S
H1043 C1052 0.930 . S
H1044 C1057 0.929 . S
H1045 C1055 0.929 . S
H1046 C1050 0.929 . S
H1047 C1056 0.929 . S
C1048 H1042 0.930 . S
C1048 C1049 1.367 . S
C1048 C1056 1.378 . S
C1049 C1048 1.367 . S
C1049 C1057 1.433 . S
C1050 H1046 0.929 . S
C1050 C1052 1.378 . S
C1050 C1054 1.350 . S
C1051 C1054 1.463 . S
C1051 C1056 1.350 . S
C1051 N1059 1.427 . S
C1052 H1043 0.930 . S
C1052 C1050 1.378 . S
C1052 C1053 1.367 . S
C1053 C1052 1.367 . S
C1053 C1055 1.433 . S
C1054 C1050 1.350 . S
C1054 C1051 1.463 . S
C1054 N1058 1.427 . S
C1055 H1045 0.929 . S
C1055 C1053 1.433 . S
C1055 N1058 1.384 . S
C1056 H1047 0.929 . S
C1056 C1048 1.378 . S
C1056 C1051 1.350 . S
C1057 H1044 0.929 . S
C1057 C1049 1.433 . S
C1057 N1059 1.384 . S
N1058 C1054 1.427 . S
N1058 C1055 1.384 . S
N1059 C1051 1.427 . S
N1059 C1057 1.384 . S
H1060 C1066 0.930 . S
H1061 C1070 0.930 . S
H1062 C1075 0.929 . S
H1063 C1073 0.929 . S
H1064 C1068 0.929 . S
H1065 C1074 0.929 . S
C1066 H1060 0.930 . S
C1066 C1067 1.367 . S
C1066 C1074 1.378 . S
C1067 C1066 1.367 . S
C1067 C1075 1.433 . S
C1068 H1064 0.929 . S
C1068 C1070 1.378 . S
C1068 C1072 1.350 . S
C1069 C1072 1.463 . S
C1069 C1074 1.350 . S
C1069 N1077 1.427 . S
C1070 H1061 0.930 . S
C1070 C1068 1.378 . S
C1070 C1071 1.367 . S
C1071 C1070 1.367 . S
C1071 C1073 1.433 . S
C1072 C1068 1.350 . S
C1072 C1069 1.463 . S
C1072 N1076 1.427 . S
C1073 H1063 0.929 . S
C1073 C1071 1.433 . S
C1073 N1076 1.384 . S
C1074 H1065 0.929 . S
C1074 C1066 1.378 . S
C1074 C1069 1.350 . S
C1075 H1062 0.929 . S
C1075 C1067 1.433 . S
C1075 N1077 1.384 . S
N1076 C1072 1.427 . S
N1076 C1073 1.384 . S
N1077 C1069 1.427 . S
N1077 C1075 1.384 . S
H1078 C1084 0.930 . S
H1079 C1088 0.930 . S
H1080 C1093 0.929 . S
H1081 C1091 0.929 . S
H1082 C1086 0.929 . S
H1083 C1092 0.929 . S
C1084 H1078 0.930 . S
C1084 C1085 1.367 . S
C1084 C1092 1.378 . S
C1085 C1084 1.367 . S
C1085 C1093 1.433 . S
C1086 H1082 0.929 . S
C1086 C1088 1.378 . S
C1086 C1090 1.350 . S
C1087 C1090 1.463 . S
C1087 C1092 1.350 . S
C1087 N1095 1.427 . S
C1088 H1079 0.930 . S
C1088 C1086 1.378 . S
C1088 C1089 1.367 . S
C1089 C1088 1.367 . S
C1089 C1091 1.433 . S
C1090 C1086 1.350 . S
C1090 C1087 1.463 . S
C1090 N1094 1.427 . S
C1091 H1081 0.929 . S
C1091 C1089 1.433 . S
C1091 N1094 1.384 . S
C1092 H1083 0.929 . S
C1092 C1084 1.378 . S
C1092 C1087 1.350 . S
C1093 H1080 0.929 . S
C1093 C1085 1.433 . S
C1093 N1095 1.384 . S
N1094 C1090 1.427 . S
N1094 C1091 1.384 . S
N1095 C1087 1.427 . S
N1095 C1093 1.384 . S
H1096 C1102 0.930 . S
H1097 C1106 0.930 . S
H1098 C1111 0.929 . S
H1099 C1109 0.929 . S
H1100 C1104 0.929 . S
H1101 C1110 0.929 . S
C1102 H1096 0.930 . S
C1102 C1103 1.367 . S
C1102 C1110 1.378 . S
C1103 C1102 1.367 . S
C1103 C1111 1.433 . S
C1104 H1100 0.929 . S
C1104 C1106 1.378 . S
C1104 C1108 1.348 1_455 S
C1105 C1108 1.465 . S
C1105 C1110 1.350 . S
C1105 N1113 1.427 . S
C1106 H1097 0.930 . S
C1106 C1104 1.378 . S
C1106 C1107 1.367 . S
C1107 C1106 1.367 . S
C1107 C1109 1.433 . S
C1108 C1104 1.348 1_655 S
C1108 C1105 1.465 . S
C1108 N1112 1.427 . S
C1109 H1099 0.929 . S
C1109 C1107 1.433 . S
C1109 N1112 1.384 1_455 S
C1110 H1101 0.929 . S
C1110 C1102 1.378 . S
C1110 C1105 1.350 . S
C1111 H1098 0.929 . S
C1111 C1103 1.433 . S
C1111 N1113 1.384 . S
N1112 C1108 1.427 . S
N1112 C1109 1.384 1_655 S
N1113 C1105 1.427 . S
N1113 C1111 1.384 . S
H1114 C1120 0.930 . S
H1115 C1124 0.930 . S
H1116 C1129 0.929 . S
H1117 C1127 0.929 . S
H1118 C1122 0.929 . S
H1119 C1128 0.929 . S
C1120 H1114 0.930 . S
C1120 C1121 1.367 . S
C1120 C1128 1.378 . S
C1121 C1120 1.367 . S
C1121 C1129 1.433 . S
C1122 H1118 0.929 . S
C1122 C1124 1.378 . S
C1122 C1126 1.350 . S
C1123 C1126 1.463 . S
C1123 C1128 1.350 . S
C1123 N1131 1.427 . S
C1124 H1115 0.930 . S
C1124 C1122 1.378 . S
C1124 C1125 1.367 . S
C1125 C1124 1.367 . S
C1125 C1127 1.433 . S
C1126 C1122 1.350 . S
C1126 C1123 1.463 . S
C1126 N1130 1.427 . S
C1127 H1117 0.929 . S
C1127 C1125 1.433 . S
C1127 N1130 1.384 . S
C1128 H1119 0.929 . S
C1128 C1120 1.378 . S
C1128 C1123 1.350 . S
C1129 H1116 0.929 . S
C1129 C1121 1.433 . S
C1129 N1131 1.384 . S
N1130 C1126 1.427 . S
N1130 C1127 1.384 . S
N1131 C1123 1.427 . S
N1131 C1129 1.384 . S
H1132 C1138 0.930 . S
H1133 C1142 0.930 . S
H1134 C1147 0.929 . S
H1135 C1145 0.929 1_565 S
H1136 C1140 0.929 . S
H1137 C1146 0.929 1_565 S
C1138 H1132 0.930 . S
C1138 C1139 1.367 . S
C1138 C1146 1.378 . S
C1139 C1138 1.367 . S
C1139 C1147 1.433 . S
C1140 H1136 0.929 . S
C1140 C1142 1.378 . S
C1140 C1144 1.350 . S
C1141 C1144 1.463 . S
C1141 C1146 1.350 . S
C1141 N1149 1.427 . S
C1142 H1133 0.930 . S
C1142 C1140 1.378 . S
C1142 C1143 1.367 . S
C1143 C1142 1.367 . S
C1143 C1145 1.433 . S
C1144 C1140 1.350 . S
C1144 C1141 1.463 . S
C1144 N1148 1.427 . S
C1145 H1135 0.929 1_545 S
C1145 C1143 1.433 . S
C1145 N1148 1.384 . S
C1146 H1137 0.929 1_545 S
C1146 C1138 1.378 . S
C1146 C1141 1.350 . S
C1147 H1134 0.929 . S
C1147 C1139 1.433 . S
C1147 N1149 1.384 . S
N1148 C1144 1.427 . S
N1148 C1145 1.384 . S
N1149 C1141 1.427 . S
N1149 C1147 1.384 . S
H1150 C1156 0.930 . S
H1151 C1160 0.930 . S
H1152 C1165 0.929 . S
H1153 C1163 0.929 . S
H1154 C1158 0.929 . S
H1155 C1164 0.929 . S
C1156 H1150 0.930 . S
C1156 C1157 1.367 . S
C1156 C1164 1.378 . S
C1157 C1156 1.367 . S
C1157 C1165 1.433 . S
C1158 H1154 0.929 . S
C1158 C1160 1.378 . S
C1158 C1162 1.350 . S
C1159 C1162 1.463 . S
C1159 C1164 1.350 . S
C1159 N1167 1.427 . S
C1160 H1151 0.930 . S
C1160 C1158 1.378 . S
C1160 C1161 1.367 . S
C1161 C1160 1.367 . S
C1161 C1163 1.433 . S
C1162 C1158 1.350 . S
C1162 C1159 1.463 . S
C1162 N1166 1.427 . S
C1163 H1153 0.929 . S
C1163 C1161 1.433 . S
C1163 N1166 1.384 . S
C1164 H1155 0.929 . S
C1164 C1156 1.378 . S
C1164 C1159 1.350 . S
C1165 H1152 0.929 . S
C1165 C1157 1.433 . S
C1165 N1167 1.384 . S
N1166 C1162 1.427 . S
N1166 C1163 1.384 . S
N1167 C1159 1.427 . S
N1167 C1165 1.384 . S
H1168 C1174 0.930 . S
H1169 C1178 0.930 . S
H1170 C1183 0.929 . S
H1171 C1181 0.929 . S
H1172 C1176 0.929 . S
H1173 C1182 0.929 . S
C1174 H1168 0.930 . S
C1174 C1175 1.367 . S
C1174 C1182 1.378 . S
C1175 C1174 1.367 . S
C1175 C1183 1.433 1_545 S
C1176 H1172 0.929 . S
C1176 C1178 1.378 . S
C1176 C1180 1.350 1_565 S
C1177 C1180 1.463 . S
C1177 C1182 1.350 . S
C1177 N1185 1.427 1_545 S
C1178 H1169 0.930 . S
C1178 C1176 1.378 . S
C1178 C1179 1.367 1_665 S
C1179 C1178 1.367 1_445 S
C1179 C1181 1.433 . S
C1180 C1176 1.350 1_545 S
C1180 C1177 1.463 . S
C1180 N1184 1.427 1_655 S
C1181 H1171 0.929 . S
C1181 C1179 1.433 . S
C1181 N1184 1.384 . S
C1182 H1173 0.929 . S
C1182 C1174 1.378 . S
C1182 C1177 1.350 . S
C1183 H1170 0.929 . S
C1183 C1175 1.433 1_565 S
C1183 N1185 1.384 . S
N1184 C1180 1.427 1_455 S
N1184 C1181 1.384 . S
N1185 C1177 1.427 1_565 S
N1185 C1183 1.384 . S
H1186 C1192 0.930 . S
H1187 C1196 0.930 . S
H1188 C1201 0.929 . S
H1189 C1199 0.929 . S
H1190 C1194 0.929 . S
H1191 C1200 0.929 . S
C1192 H1186 0.930 . S
C1192 C1193 1.367 . S
C1192 C1200 1.378 . S
C1193 C1192 1.367 . S
C1193 C1201 1.433 . S
C1194 H1190 0.929 . S
C1194 C1196 1.378 . S
C1194 C1198 1.350 . S
C1195 C1198 1.463 . S
C1195 C1200 1.350 . S
C1195 N1203 1.427 . S
C1196 H1187 0.930 . S
C1196 C1194 1.378 . S
C1196 C1197 1.367 . S
C1197 C1196 1.367 . S
C1197 C1199 1.433 . S
C1198 C1194 1.350 . S
C1198 C1195 1.463 . S
C1198 N1202 1.427 . S
C1199 H1189 0.929 . S
C1199 C1197 1.433 . S
C1199 N1202 1.384 . S
C1200 H1191 0.929 . S
C1200 C1192 1.378 . S
C1200 C1195 1.350 . S
C1201 H1188 0.929 . S
C1201 C1193 1.433 . S
C1201 N1203 1.384 . S
N1202 C1198 1.427 . S
N1202 C1199 1.384 . S
N1203 C1195 1.427 . S
N1203 C1201 1.384 . S
H1204 C1210 0.930 . S
H1205 C1214 0.930 . S
H1206 C1219 0.929 . S
H1207 C1217 0.929 . S
H1208 C1212 0.929 . S
H1209 C1218 0.929 . S
C1210 H1204 0.930 . S
C1210 C1211 1.367 . S
C1210 C1218 1.378 . S
C1211 C1210 1.367 . S
C1211 C1219 1.433 . S
C1212 H1208 0.929 . S
C1212 C1214 1.378 . S
C1212 C1216 1.350 . S
C1213 C1216 1.463 . S
C1213 C1218 1.350 . S
C1213 N1221 1.427 . S
C1214 H1205 0.930 . S
C1214 C1212 1.378 . S
C1214 C1215 1.367 . S
C1215 C1214 1.367 . S
C1215 C1217 1.433 . S
C1216 C1212 1.350 . S
C1216 C1213 1.463 . S
C1216 N1220 1.427 . S
C1217 H1207 0.929 . S
C1217 C1215 1.433 . S
C1217 N1220 1.384 . S
C1218 H1209 0.929 . S
C1218 C1210 1.378 . S
C1218 C1213 1.350 . S
C1219 H1206 0.929 . S
C1219 C1211 1.433 . S
C1219 N1221 1.384 . S
N1220 C1216 1.427 . S
N1220 C1217 1.384 . S
N1221 C1213 1.427 . S
N1221 C1219 1.384 . S
H1222 C1228 0.930 . S
H1223 C1232 0.930 . S
H1224 C1237 0.929 . S
H1225 C1235 0.929 . S
H1226 C1230 0.929 . S
H1227 C1236 0.929 . S
C1228 H1222 0.930 . S
C1228 C1229 1.367 . S
C1228 C1236 1.378 . S
C1229 C1228 1.367 . S
C1229 C1237 1.433 . S
C1230 H1226 0.929 . S
C1230 C1232 1.378 . S
C1230 C1234 1.350 . S
C1231 C1234 1.463 . S
C1231 C1236 1.350 . S
C1231 N1239 1.427 . S
C1232 H1223 0.930 . S
C1232 C1230 1.378 . S
C1232 C1233 1.367 . S
C1233 C1232 1.367 . S
C1233 C1235 1.433 . S
C1234 C1230 1.350 . S
C1234 C1231 1.463 . S
C1234 N1238 1.427 . S
C1235 H1225 0.929 . S
C1235 C1233 1.433 . S
C1235 N1238 1.384 . S
C1236 H1227 0.929 . S
C1236 C1228 1.378 . S
C1236 C1231 1.350 . S
C1237 H1224 0.929 . S
C1237 C1229 1.433 . S
C1237 N1239 1.384 . S
N1238 C1234 1.427 . S
N1238 C1235 1.384 . S
N1239 C1231 1.427 . S
N1239 C1237 1.384 . S
H1240 C1246 0.930 . S
H1241 C1250 0.930 . S
H1242 C1255 0.943 . S
H1243 C1253 0.929 1_565 S
H1244 C1248 0.929 . S
H1245 C1254 0.929 . S
C1246 H1240 0.930 . S
C1246 C1247 1.367 . S
C1246 C1254 1.378 . S
C1247 C1246 1.367 . S
C1247 C1255 1.433 . S
C1248 H1244 0.929 . S
C1248 C1250 1.378 . S
C1248 C1252 1.350 . S
C1249 C1252 1.463 1_565 S
C1249 C1254 1.350 . S
C1249 N1257 1.427 1_565 S
C1250 H1241 0.930 . S
C1250 C1248 1.378 . S
C1250 C1251 1.367 . S
C1251 C1250 1.367 . S
C1251 C1253 1.433 . S
C1252 C1248 1.350 . S
C1252 C1249 1.463 1_545 S
C1252 N1256 1.427 1_545 S
C1253 H1243 0.929 1_545 S
C1253 C1251 1.433 . S
C1253 N1256 1.384 1_545 S
C1254 H1245 0.929 . S
C1254 C1246 1.378 . S
C1254 C1249 1.350 . S
C1255 H1242 0.943 . S
C1255 C1247 1.433 . S
C1255 N1257 1.384 1_565 S
N1256 C1252 1.427 1_565 S
N1256 C1253 1.384 1_565 S
N1257 C1249 1.427 1_545 S
N1257 C1255 1.384 1_545 S
H1258 C1264 0.930 1_556 S
H1259 C1268 0.930 . S
H1260 C1273 0.929 . S
H1261 C1271 0.929 1_556 S
H1262 C1266 0.929 . S
H1263 C1272 0.929 1_556 S
C1264 H1258 0.930 1_554 S
C1264 C1265 1.367 . S
C1264 C1272 1.378 . S
C1265 C1264 1.367 . S
C1265 C1273 1.433 . S
C1266 H1262 0.929 . S
C1266 C1268 1.378 . S
C1266 C1270 1.350 . S
C1267 C1270 1.463 . S
C1267 C1272 1.350 . S
C1267 N1275 1.427 . S
C1268 H1259 0.930 . S
C1268 C1266 1.378 . S
C1268 C1269 1.367 . S
C1269 C1268 1.367 . S
C1269 C1271 1.433 . S
C1270 C1266 1.350 . S
C1270 C1267 1.463 . S
C1270 N1274 1.427 . S
C1271 H1261 0.929 1_554 S
C1271 C1269 1.433 . S
C1271 N1274 1.384 . S
C1272 H1263 0.929 1_554 S
C1272 C1264 1.378 . S
C1272 C1267 1.350 . S
C1273 H1260 0.929 . S
C1273 C1265 1.433 . S
C1273 N1275 1.384 . S
N1274 C1270 1.427 . S
N1274 C1271 1.384 . S
N1275 C1267 1.427 . S
N1275 C1273 1.384 . S
H1276 C1282 0.930 . S
H1277 C1286 0.930 . S
H1278 C1291 0.929 . S
H1279 C1289 0.929 . S
H1280 C1284 0.929 . S
H1281 C1290 0.929 . S
C1282 H1276 0.930 . S
C1282 C1283 1.367 . S
C1282 C1290 1.378 . S
C1283 C1282 1.367 . S
C1283 C1291 1.433 . S
C1284 H1280 0.929 . S
C1284 C1286 1.378 . S
C1284 C1288 1.350 . S
C1285 C1288 1.463 . S
C1285 C1290 1.350 . S
C1285 N1293 1.427 . S
C1286 H1277 0.930 . S
C1286 C1284 1.378 . S
C1286 C1287 1.367 . S
C1287 C1286 1.367 . S
C1287 C1289 1.433 . S
C1288 C1284 1.350 . S
C1288 C1285 1.463 . S
C1288 N1292 1.427 . S
C1289 H1279 0.929 . S
C1289 C1287 1.433 . S
C1289 N1292 1.384 . S
C1290 H1281 0.929 . S
C1290 C1282 1.378 . S
C1290 C1285 1.350 . S
C1291 H1278 0.929 . S
C1291 C1283 1.433 . S
C1291 N1293 1.384 . S
N1292 C1288 1.427 . S
N1292 C1289 1.384 . S
N1293 C1285 1.427 . S
N1293 C1291 1.384 . S
H1294 C1300 0.930 . S
H1295 C1304 0.930 . S
H1296 C1309 0.929 . S
H1297 C1307 0.929 . S
H1298 C1302 0.929 . S
H1299 C1308 0.929 . S
C1300 H1294 0.930 . S
C1300 C1301 1.367 . S
C1300 C1308 1.378 . S
C1301 C1300 1.367 . S
C1301 C1309 1.433 . S
C1302 H1298 0.929 . S
C1302 C1304 1.378 . S
C1302 C1306 1.350 . S
C1303 C1306 1.463 . S
C1303 C1308 1.350 . S
C1303 N1311 1.427 . S
C1304 H1295 0.930 . S
C1304 C1302 1.378 . S
C1304 C1305 1.367 . S
C1305 C1304 1.367 . S
C1305 C1307 1.433 . S
C1306 C1302 1.350 . S
C1306 C1303 1.463 . S
C1306 N1310 1.427 . S
C1307 H1297 0.929 . S
C1307 C1305 1.433 . S
C1307 N1310 1.384 . S
C1308 H1299 0.929 . S
C1308 C1300 1.378 . S
C1308 C1303 1.350 . S
C1309 H1296 0.929 . S
C1309 C1301 1.433 . S
C1309 N1311 1.384 . S
N1310 C1306 1.427 . S
N1310 C1307 1.384 . S
N1311 C1303 1.427 . S
N1311 C1309 1.384 . S
H1312 C1318 0.930 . S
H1313 C1322 0.930 . S
H1314 C1327 0.929 . S
H1315 C1325 0.929 . S
H1316 C1320 0.929 . S
H1317 C1326 0.929 . S
C1318 H1312 0.930 . S
C1318 C1319 1.367 . S
C1318 C1326 1.378 . S
C1319 C1318 1.367 . S
C1319 C1327 1.433 . S
C1320 H1316 0.929 . S
C1320 C1322 1.378 . S
C1320 C1324 1.350 . S
C1321 C1324 1.463 . S
C1321 C1326 1.350 . S
C1321 N1329 1.427 . S
C1322 H1313 0.930 . S
C1322 C1320 1.378 . S
C1322 C1323 1.367 . S
C1323 C1322 1.367 . S
C1323 C1325 1.433 . S
C1324 C1320 1.350 . S
C1324 C1321 1.463 . S
C1324 N1328 1.427 . S
C1325 H1315 0.929 . S
C1325 C1323 1.433 . S
C1325 N1328 1.384 . S
C1326 H1317 0.929 . S
C1326 C1318 1.378 . S
C1326 C1321 1.350 . S
C1327 H1314 0.929 . S
C1327 C1319 1.433 . S
C1327 N1329 1.384 . S
N1328 C1324 1.427 . S
N1328 C1325 1.384 . S
N1329 C1321 1.427 . S
N1329 C1327 1.384 . S
H1330 C1336 0.930 . S
H1331 C1340 0.930 . S
H1332 C1345 0.929 . S
H1333 C1343 0.929 . S
H1334 C1338 0.929 . S
H1335 C1344 0.929 . S
C1336 H1330 0.930 . S
C1336 C1337 1.367 . S
C1336 C1344 1.378 . S
C1337 C1336 1.367 . S
C1337 C1345 1.433 . S
C1338 H1334 0.929 . S
C1338 C1340 1.378 . S
C1338 C1342 1.350 . S
C1339 C1342 1.463 . S
C1339 C1344 1.350 . S
C1339 N1347 1.427 . S
C1340 H1331 0.930 . S
C1340 C1338 1.378 . S
C1340 C1341 1.367 . S
C1341 C1340 1.367 . S
C1341 C1343 1.433 . S
C1342 C1338 1.350 . S
C1342 C1339 1.463 . S
C1342 N1346 1.427 . S
C1343 H1333 0.929 . S
C1343 C1341 1.433 . S
C1343 N1346 1.384 . S
C1344 H1335 0.929 . S
C1344 C1336 1.378 . S
C1344 C1339 1.350 . S
C1345 H1332 0.929 . S
C1345 C1337 1.433 . S
C1345 N1347 1.384 . S
N1346 C1342 1.427 . S
N1346 C1343 1.384 . S
N1347 C1339 1.427 . S
N1347 C1345 1.384 . S
H1348 C1354 0.930 . S
H1349 C1358 0.930 . S
H1350 C1363 0.929 . S
H1351 C1361 0.929 . S
H1352 C1356 0.929 . S
H1353 C1362 0.929 . S
C1354 H1348 0.930 . S
C1354 C1355 1.367 . S
C1354 C1362 1.378 . S
C1355 C1354 1.367 . S
C1355 C1363 1.433 . S
C1356 H1352 0.929 . S
C1356 C1358 1.378 . S
C1356 C1360 1.350 . S
C1357 C1360 1.463 . S
C1357 C1362 1.350 . S
C1357 N1365 1.427 . S
C1358 H1349 0.930 . S
C1358 C1356 1.378 . S
C1358 C1359 1.367 . S
C1359 C1358 1.367 . S
C1359 C1361 1.433 . S
C1360 C1356 1.350 . S
C1360 C1357 1.463 . S
C1360 N1364 1.427 . S
C1361 H1351 0.929 . S
C1361 C1359 1.433 . S
C1361 N1364 1.384 . S
C1362 H1353 0.929 . S
C1362 C1354 1.378 . S
C1362 C1357 1.350 . S
C1363 H1350 0.929 . S
C1363 C1355 1.433 . S
C1363 N1365 1.384 . S
N1364 C1360 1.427 . S
N1364 C1361 1.384 . S
N1365 C1357 1.427 . S
N1365 C1363 1.384 . S
H1366 C1372 0.930 . S
H1367 C1376 0.930 . S
H1368 C1381 0.929 . S
H1369 C1379 0.929 . S
H1370 C1374 0.929 . S
H1371 C1380 0.929 . S
C1372 H1366 0.930 . S
C1372 C1373 1.367 . S
C1372 C1380 1.378 . S
C1373 C1372 1.367 . S
C1373 C1381 1.433 . S
C1374 H1370 0.929 . S
C1374 C1376 1.378 . S
C1374 C1378 1.350 . S
C1375 C1378 1.463 . S
C1375 C1380 1.350 . S
C1375 N1383 1.427 . S
C1376 H1367 0.930 . S
C1376 C1374 1.378 . S
C1376 C1377 1.367 . S
C1377 C1376 1.367 . S
C1377 C1379 1.433 . S
C1378 C1374 1.350 . S
C1378 C1375 1.463 . S
C1378 N1382 1.427 . S
C1379 H1369 0.929 . S
C1379 C1377 1.433 . S
C1379 N1382 1.384 . S
C1380 H1371 0.929 . S
C1380 C1372 1.378 . S
C1380 C1375 1.350 . S
C1381 H1368 0.929 . S
C1381 C1373 1.433 . S
C1381 N1383 1.384 . S
N1382 C1378 1.427 . S
N1382 C1379 1.384 . S
N1383 C1375 1.427 . S
N1383 C1381 1.384 . S
H1384 C1390 0.930 . S
H1385 C1394 0.930 . S
H1386 C1399 0.929 . S
H1387 C1397 0.929 . S
H1388 C1392 0.929 . S
H1389 C1398 0.929 . S
C1390 H1384 0.930 . S
C1390 C1391 1.367 . S
C1390 C1398 1.378 . S
C1391 C1390 1.367 . S
C1391 C1399 1.433 . S
C1392 H1388 0.929 . S
C1392 C1394 1.378 . S
C1392 C1396 1.350 . S
C1393 C1396 1.463 . S
C1393 C1398 1.350 . S
C1393 N1401 1.427 . S
C1394 H1385 0.930 . S
C1394 C1392 1.378 . S
C1394 C1395 1.367 . S
C1395 C1394 1.367 . S
C1395 C1397 1.433 . S
C1396 C1392 1.350 . S
C1396 C1393 1.463 . S
C1396 N1400 1.427 . S
C1397 H1387 0.929 . S
C1397 C1395 1.433 . S
C1397 N1400 1.384 . S
C1398 H1389 0.929 . S
C1398 C1390 1.378 . S
C1398 C1393 1.350 . S
C1399 H1386 0.929 . S
C1399 C1391 1.433 . S
C1399 N1401 1.384 . S
N1400 C1396 1.427 . S
N1400 C1397 1.384 . S
N1401 C1393 1.427 . S
N1401 C1399 1.384 . S
H1402 C1408 0.930 . S
H1403 C1412 0.930 . S
H1404 C1417 0.929 . S
H1405 C1415 0.929 . S
H1406 C1410 0.929 . S
H1407 C1416 0.929 . S
C1408 H1402 0.930 . S
C1408 C1409 1.367 . S
C1408 C1416 1.378 . S
C1409 C1408 1.367 . S
C1409 C1417 1.433 . S
C1410 H1406 0.929 . S
C1410 C1412 1.378 . S
C1410 C1414 1.350 . S
C1411 C1414 1.463 . S
C1411 C1416 1.350 . S
C1411 N1419 1.427 . S
C1412 H1403 0.930 . S
C1412 C1410 1.378 . S
C1412 C1413 1.367 . S
C1413 C1412 1.367 . S
C1413 C1415 1.433 . S
C1414 C1410 1.350 . S
C1414 C1411 1.463 . S
C1414 N1418 1.427 . S
C1415 H1405 0.929 . S
C1415 C1413 1.433 . S
C1415 N1418 1.384 . S
C1416 H1407 0.929 . S
C1416 C1408 1.378 . S
C1416 C1411 1.350 . S
C1417 H1404 0.929 . S
C1417 C1409 1.433 . S
C1417 N1419 1.384 . S
N1418 C1414 1.427 . S
N1418 C1415 1.384 . S
N1419 C1411 1.427 . S
N1419 C1417 1.384 . S
H1420 C1426 0.930 . S
H1421 C1430 0.930 . S
H1422 C1435 0.929 . S
H1423 C1433 0.929 . S
H1424 C1428 0.929 . S
H1425 C1434 0.929 . S
C1426 H1420 0.930 . S
C1426 C1427 1.367 . S
C1426 C1434 1.378 . S
C1427 C1426 1.367 . S
C1427 C1435 1.433 . S
C1428 H1424 0.929 . S
C1428 C1430 1.378 . S
C1428 C1432 1.350 . S
C1429 C1432 1.463 . S
C1429 C1434 1.350 . S
C1429 N1437 1.427 . S
C1430 H1421 0.930 . S
C1430 C1428 1.378 . S
C1430 C1431 1.367 . S
C1431 C1430 1.367 . S
C1431 C1433 1.433 . S
C1432 C1428 1.350 . S
C1432 C1429 1.463 . S
C1432 N1436 1.427 . S
C1433 H1423 0.929 . S
C1433 C1431 1.433 . S
C1433 N1436 1.384 . S
C1434 H1425 0.929 . S
C1434 C1426 1.378 . S
C1434 C1429 1.350 . S
C1435 H1422 0.929 . S
C1435 C1427 1.433 . S
C1435 N1437 1.384 . S
N1436 C1432 1.427 . S
N1436 C1433 1.384 . S
N1437 C1429 1.427 . S
N1437 C1435 1.384 . S
H1438 C1444 0.930 . S
H1439 C1448 0.930 . S
H1440 C1453 0.929 . S
H1441 C1451 0.929 . S
H1442 C1446 0.929 . S
H1443 C1452 0.929 . S
C1444 H1438 0.930 . S
C1444 C1445 1.367 . S
C1444 C1452 1.378 . S
C1445 C1444 1.367 . S
C1445 C1453 1.433 . S
C1446 H1442 0.929 . S
C1446 C1448 1.378 . S
C1446 C1450 1.350 . S
C1447 C1450 1.463 . S
C1447 C1452 1.350 . S
C1447 N1455 1.427 . S
C1448 H1439 0.930 . S
C1448 C1446 1.378 . S
C1448 C1449 1.367 . S
C1449 C1448 1.367 . S
C1449 C1451 1.433 . S
C1450 C1446 1.350 . S
C1450 C1447 1.463 . S
C1450 N1454 1.427 . S
C1451 H1441 0.929 . S
C1451 C1449 1.433 . S
C1451 N1454 1.384 . S
C1452 H1443 0.929 . S
C1452 C1444 1.378 . S
C1452 C1447 1.350 . S
C1453 H1440 0.929 . S
C1453 C1445 1.433 . S
C1453 N1455 1.384 . S
N1454 C1450 1.427 . S
N1454 C1451 1.384 . S
N1455 C1447 1.427 . S
N1455 C1453 1.384 . S
H1456 C1462 0.930 . S
H1457 C1466 0.930 . S
H1458 C1471 0.929 . S
H1459 C1469 0.929 . S
H1460 C1464 0.929 . S
H1461 C1470 0.929 . S
C1462 H1456 0.930 . S
C1462 C1463 1.367 . S
C1462 C1470 1.378 . S
C1463 C1462 1.367 . S
C1463 C1471 1.433 . S
C1464 H1460 0.929 . S
C1464 C1466 1.378 . S
C1464 C1468 1.350 . S
C1465 C1468 1.463 . S
C1465 C1470 1.350 . S
C1465 N1473 1.427 . S
C1466 H1457 0.930 . S
C1466 C1464 1.378 . S
C1466 C1467 1.367 . S
C1467 C1466 1.367 . S
C1467 C1469 1.433 . S
C1468 C1464 1.350 . S
C1468 C1465 1.463 . S
C1468 N1472 1.427 . S
C1469 H1459 0.929 . S
C1469 C1467 1.433 . S
C1469 N1472 1.384 . S
C1470 H1461 0.929 . S
C1470 C1462 1.378 . S
C1470 C1465 1.350 . S
C1471 H1458 0.929 . S
C1471 C1463 1.433 . S
C1471 N1473 1.384 . S
N1472 C1468 1.427 . S
N1472 C1469 1.384 . S
N1473 C1465 1.427 . S
N1473 C1471 1.384 . S
H1474 C1480 0.930 . S
H1475 C1484 0.930 . S
H1476 C1489 0.929 . S
H1477 C1487 0.929 . S
H1478 C1482 0.929 . S
H1479 C1488 0.929 . S
C1480 H1474 0.930 . S
C1480 C1481 1.367 . S
C1480 C1488 1.378 . S
C1481 C1480 1.367 . S
C1481 C1489 1.433 . S
C1482 H1478 0.929 . S
C1482 C1484 1.378 . S
C1482 C1486 1.350 . S
C1483 C1486 1.463 . S
C1483 C1488 1.350 . S
C1483 N1491 1.427 . S
C1484 H1475 0.930 . S
C1484 C1482 1.378 . S
C1484 C1485 1.367 . S
C1485 C1484 1.367 . S
C1485 C1487 1.433 . S
C1486 C1482 1.350 . S
C1486 C1483 1.463 . S
C1486 N1490 1.427 . S
C1487 H1477 0.929 . S
C1487 C1485 1.433 . S
C1487 N1490 1.384 . S
C1488 H1479 0.929 . S
C1488 C1480 1.378 . S
C1488 C1483 1.350 . S
C1489 H1476 0.929 . S
C1489 C1481 1.433 . S
C1489 N1491 1.384 . S
N1490 C1486 1.427 . S
N1490 C1487 1.384 . S
N1491 C1483 1.427 . S
N1491 C1489 1.384 . S
H1492 C1498 0.930 . S
H1493 C1502 0.930 . S
H1494 C1507 0.929 . S
H1495 C1505 0.929 1_554 S
H1496 C1500 0.929 . S
H1497 C1506 0.929 . S
C1498 H1492 0.930 . S
C1498 C1499 1.367 . S
C1498 C1506 1.378 . S
C1499 C1498 1.367 . S
C1499 C1507 1.433 . S
C1500 H1496 0.929 . S
C1500 C1502 1.378 . S
C1500 C1504 1.350 . S
C1501 C1504 1.463 . S
C1501 C1506 1.350 . S
C1501 N1509 1.427 . S
C1502 H1493 0.930 . S
C1502 C1500 1.378 . S
C1502 C1503 1.367 . S
C1503 C1502 1.367 . S
C1503 C1505 1.433 . S
C1504 C1500 1.350 . S
C1504 C1501 1.463 . S
C1504 N1508 1.427 . S
C1505 H1495 0.929 1_556 S
C1505 C1503 1.433 . S
C1505 N1508 1.384 . S
C1506 H1497 0.929 . S
C1506 C1498 1.378 . S
C1506 C1501 1.350 . S
C1507 H1494 0.929 . S
C1507 C1499 1.433 . S
C1507 N1509 1.384 . S
N1508 C1504 1.427 . S
N1508 C1505 1.384 . S
N1509 C1501 1.427 . S
N1509 C1507 1.384 . S
H1510 C1516 0.930 . S
H1511 C1520 0.930 . S
H1512 C1525 0.929 . S
H1513 C1523 0.929 . S
H1514 C1518 0.929 . S
H1515 C1524 0.929 . S
C1516 H1510 0.930 . S
C1516 C1517 1.367 . S
C1516 C1524 1.378 . S
C1517 C1516 1.367 . S
C1517 C1525 1.433 . S
C1518 H1514 0.929 . S
C1518 C1520 1.378 . S
C1518 C1522 1.350 . S
C1519 C1522 1.463 . S
C1519 C1524 1.350 . S
C1519 N1527 1.427 . S
C1520 H1511 0.930 . S
C1520 C1518 1.378 . S
C1520 C1521 1.367 . S
C1521 C1520 1.367 . S
C1521 C1523 1.433 . S
C1522 C1518 1.350 . S
C1522 C1519 1.463 . S
C1522 N1526 1.427 . S
C1523 H1513 0.929 . S
C1523 C1521 1.433 . S
C1523 N1526 1.384 . S
C1524 H1515 0.929 . S
C1524 C1516 1.378 . S
C1524 C1519 1.350 . S
C1525 H1512 0.929 . S
C1525 C1517 1.433 . S
C1525 N1527 1.384 . S
N1526 C1522 1.427 . S
N1526 C1523 1.384 . S
N1527 C1519 1.427 . S
N1527 C1525 1.384 . S
H1528 C1534 0.930 . S
H1529 C1538 0.930 . S
H1530 C1543 0.929 . S
H1531 C1541 0.929 1_554 S
H1532 C1536 0.929 . S
H1533 C1542 0.929 . S
C1534 H1528 0.930 . S
C1534 C1535 1.367 . S
C1534 C1542 1.378 . S
C1535 C1534 1.367 . S
C1535 C1543 1.433 . S
C1536 H1532 0.929 . S
C1536 C1538 1.378 . S
C1536 C1540 1.350 . S
C1537 C1540 1.463 . S
C1537 C1542 1.350 . S
C1537 N1545 1.427 . S
C1538 H1529 0.930 . S
C1538 C1536 1.378 . S
C1538 C1539 1.367 . S
C1539 C1538 1.367 . S
C1539 C1541 1.433 . S
C1540 C1536 1.350 . S
C1540 C1537 1.463 . S
C1540 N1544 1.427 . S
C1541 H1531 0.929 1_556 S
C1541 C1539 1.433 . S
C1541 N1544 1.384 . S
C1542 H1533 0.929 . S
C1542 C1534 1.378 . S
C1542 C1537 1.350 . S
C1543 H1530 0.929 . S
C1543 C1535 1.433 . S
C1543 N1545 1.384 . S
N1544 C1540 1.427 . S
N1544 C1541 1.384 . S
N1545 C1537 1.427 . S
N1545 C1543 1.384 . S
H1546 C1552 0.930 . S
H1547 C1556 0.930 . S
H1548 C1561 0.929 . S
H1549 C1559 0.929 . S
H1550 C1554 0.929 . S
H1551 C1560 0.929 . S
C1552 H1546 0.930 . S
C1552 C1553 1.367 . S
C1552 C1560 1.378 . S
C1553 C1552 1.367 . S
C1553 C1561 1.433 . S
C1554 H1550 0.929 . S
C1554 C1556 1.378 . S
C1554 C1558 1.350 . S
C1555 C1558 1.463 . S
C1555 C1560 1.350 . S
C1555 N1563 1.427 . S
C1556 H1547 0.930 . S
C1556 C1554 1.378 . S
C1556 C1557 1.367 . S
C1557 C1556 1.367 . S
C1557 C1559 1.433 . S
C1558 C1554 1.350 . S
C1558 C1555 1.463 . S
C1558 N1562 1.427 . S
C1559 H1549 0.929 . S
C1559 C1557 1.433 . S
C1559 N1562 1.384 . S
C1560 H1551 0.929 . S
C1560 C1552 1.378 . S
C1560 C1555 1.350 . S
C1561 H1548 0.929 . S
C1561 C1553 1.433 . S
C1561 N1563 1.384 . S
N1562 C1558 1.427 . S
N1562 C1559 1.384 . S
N1563 C1555 1.427 . S
N1563 C1561 1.384 . S
H1564 C1570 0.930 . S
H1565 C1574 0.930 . S
H1566 C1579 0.929 . S
H1567 C1577 0.929 . S
H1568 C1572 0.929 . S
H1569 C1578 0.929 . S
C1570 H1564 0.930 . S
C1570 C1571 1.367 . S
C1570 C1578 1.378 . S
C1571 C1570 1.367 . S
C1571 C1579 1.433 . S
C1572 H1568 0.929 . S
C1572 C1574 1.378 . S
C1572 C1576 1.350 . S
C1573 C1576 1.463 . S
C1573 C1578 1.350 . S
C1573 N1581 1.427 . S
C1574 H1565 0.930 . S
C1574 C1572 1.378 . S
C1574 C1575 1.367 . S
C1575 C1574 1.367 . S
C1575 C1577 1.433 . S
C1576 C1572 1.350 . S
C1576 C1573 1.463 . S
C1576 N1580 1.427 . S
C1577 H1567 0.929 . S
C1577 C1575 1.433 . S
C1577 N1580 1.384 . S
C1578 H1569 0.929 . S
C1578 C1570 1.378 . S
C1578 C1573 1.350 . S
C1579 H1566 0.929 . S
C1579 C1571 1.433 . S
C1579 N1581 1.384 . S
N1580 C1576 1.427 . S
N1580 C1577 1.384 . S
N1581 C1573 1.427 . S
N1581 C1579 1.384 . S
H1582 C1588 0.930 . S
H1583 C1592 0.930 . S
H1584 C1597 0.929 . S
H1585 C1595 0.929 . S
H1586 C1590 0.929 . S
H1587 C1596 0.929 . S
C1588 H1582 0.930 . S
C1588 C1589 1.367 . S
C1588 C1596 1.378 . S
C1589 C1588 1.367 . S
C1589 C1597 1.433 . S
C1590 H1586 0.929 . S
C1590 C1592 1.378 . S
C1590 C1594 1.350 . S
C1591 C1594 1.463 . S
C1591 C1596 1.350 . S
C1591 N1599 1.427 . S
C1592 H1583 0.930 . S
C1592 C1590 1.378 . S
C1592 C1593 1.367 . S
C1593 C1592 1.367 . S
C1593 C1595 1.433 . S
C1594 C1590 1.350 . S
C1594 C1591 1.463 . S
C1594 N1598 1.427 . S
C1595 H1585 0.929 . S
C1595 C1593 1.433 . S
C1595 N1598 1.384 . S
C1596 H1587 0.929 . S
C1596 C1588 1.378 . S
C1596 C1591 1.350 . S
C1597 H1584 0.929 . S
C1597 C1589 1.433 . S
C1597 N1599 1.384 . S
N1598 C1594 1.427 . S
N1598 C1595 1.384 . S
N1599 C1591 1.427 . S
N1599 C1597 1.384 . S
H1600 C1606 0.930 . S
H1601 C1610 0.930 . S
H1602 C1615 0.929 . S
H1603 C1613 0.929 . S
H1604 C1608 0.929 . S
H1605 C1614 0.929 . S
C1606 H1600 0.930 . S
C1606 C1607 1.367 . S
C1606 C1614 1.378 . S
C1607 C1606 1.367 . S
C1607 C1615 1.433 . S
C1608 H1604 0.929 . S
C1608 C1610 1.378 . S
C1608 C1612 1.350 . S
C1609 C1612 1.463 . S
C1609 C1614 1.350 . S
C1609 N1617 1.427 . S
C1610 H1601 0.930 . S
C1610 C1608 1.378 . S
C1610 C1611 1.367 . S
C1611 C1610 1.367 . S
C1611 C1613 1.433 . S
C1612 C1608 1.350 . S
C1612 C1609 1.463 . S
C1612 N1616 1.427 . S
C1613 H1603 0.929 . S
C1613 C1611 1.433 . S
C1613 N1616 1.384 . S
C1614 H1605 0.929 . S
C1614 C1606 1.378 . S
C1614 C1609 1.350 . S
C1615 H1602 0.929 . S
C1615 C1607 1.433 . S
C1615 N1617 1.384 . S
N1616 C1612 1.427 . S
N1616 C1613 1.384 . S
N1617 C1609 1.427 . S
N1617 C1615 1.384 . S
H1618 C1624 0.930 . S
H1619 C1628 0.930 . S
H1620 C1633 0.929 . S
H1621 C1631 0.929 . S
H1622 C1626 0.929 . S
H1623 C1632 0.929 . S
C1624 H1618 0.930 . S
C1624 C1625 1.367 . S
C1624 C1632 1.378 . S
C1625 C1624 1.367 . S
C1625 C1633 1.433 . S
C1626 H1622 0.929 . S
C1626 C1628 1.378 . S
C1626 C1630 1.350 . S
C1627 C1630 1.463 . S
C1627 C1632 1.350 . S
C1627 N1635 1.427 . S
C1628 H1619 0.930 . S
C1628 C1626 1.378 . S
C1628 C1629 1.367 . S
C1629 C1628 1.367 . S
C1629 C1631 1.433 . S
C1630 C1626 1.350 . S
C1630 C1627 1.463 . S
C1630 N1634 1.427 . S
C1631 H1621 0.929 . S
C1631 C1629 1.433 . S
C1631 N1634 1.384 . S
C1632 H1623 0.929 . S
C1632 C1624 1.378 . S
C1632 C1627 1.350 . S
C1633 H1620 0.929 . S
C1633 C1625 1.433 . S
C1633 N1635 1.384 . S
N1634 C1630 1.427 . S
N1634 C1631 1.384 . S
N1635 C1627 1.427 . S
N1635 C1633 1.384 . S
H1636 C1642 0.930 . S
H1637 C1646 0.930 . S
H1638 C1651 0.929 . S
H1639 C1649 0.929 . S
H1640 C1644 0.929 . S
H1641 C1650 0.929 . S
C1642 H1636 0.930 . S
C1642 C1643 1.367 . S
C1642 C1650 1.378 . S
C1643 C1642 1.367 . S
C1643 C1651 1.433 . S
C1644 H1640 0.929 . S
C1644 C1646 1.378 . S
C1644 C1648 1.350 . S
C1645 C1648 1.463 . S
C1645 C1650 1.350 . S
C1645 N1653 1.427 . S
C1646 H1637 0.930 . S
C1646 C1644 1.378 . S
C1646 C1647 1.367 . S
C1647 C1646 1.367 . S
C1647 C1649 1.433 . S
C1648 C1644 1.350 . S
C1648 C1645 1.463 . S
C1648 N1652 1.427 . S
C1649 H1639 0.929 . S
C1649 C1647 1.433 . S
C1649 N1652 1.384 . S
C1650 H1641 0.929 . S
C1650 C1642 1.378 . S
C1650 C1645 1.350 . S
C1651 H1638 0.929 . S
C1651 C1643 1.433 . S
C1651 N1653 1.384 . S
N1652 C1648 1.427 . S
N1652 C1649 1.384 . S
N1653 C1645 1.427 . S
N1653 C1651 1.384 . S
H1654 C1660 0.930 . S
H1655 C1664 0.930 . S
H1656 C1669 0.929 . S
H1657 C1667 0.929 . S
H1658 C1662 0.929 . S
H1659 C1668 0.929 . S
C1660 H1654 0.930 . S
C1660 C1661 1.367 . S
C1660 C1668 1.378 . S
C1661 C1660 1.367 . S
C1661 C1669 1.433 . S
C1662 H1658 0.929 . S
C1662 C1664 1.378 . S
C1662 C1666 1.350 . S
C1663 C1666 1.463 . S
C1663 C1668 1.350 . S
C1663 N1671 1.427 . S
C1664 H1655 0.930 . S
C1664 C1662 1.378 . S
C1664 C1665 1.367 . S
C1665 C1664 1.367 . S
C1665 C1667 1.433 . S
C1666 C1662 1.350 . S
C1666 C1663 1.463 . S
C1666 N1670 1.427 . S
C1667 H1657 0.929 . S
C1667 C1665 1.433 . S
C1667 N1670 1.384 . S
C1668 H1659 0.929 . S
C1668 C1660 1.378 . S
C1668 C1663 1.350 . S
C1669 H1656 0.929 . S
C1669 C1661 1.433 . S
C1669 N1671 1.384 . S
N1670 C1666 1.427 . S
N1670 C1667 1.384 . S
N1671 C1663 1.427 . S
N1671 C1669 1.384 . S
H1672 C1678 0.930 . S
H1673 C1682 0.930 . S
H1674 C1687 0.929 . S
H1675 C1685 0.929 1_556 S
H1676 C1680 0.929 . S
H1677 C1686 0.929 . S
C1678 H1672 0.930 . S
C1678 C1679 1.367 . S
C1678 C1686 1.378 . S
C1679 C1678 1.367 . S
C1679 C1687 1.433 . S
C1680 H1676 0.929 . S
C1680 C1682 1.378 . S
C1680 C1684 1.350 . S
C1681 C1684 1.463 . S
C1681 C1686 1.350 . S
C1681 N1689 1.427 . S
C1682 H1673 0.930 . S
C1682 C1680 1.378 . S
C1682 C1683 1.367 . S
C1683 C1682 1.367 . S
C1683 C1685 1.433 . S
C1684 C1680 1.350 . S
C1684 C1681 1.463 . S
C1684 N1688 1.427 . S
C1685 H1675 0.929 1_554 S
C1685 C1683 1.433 . S
C1685 N1688 1.384 . S
C1686 H1677 0.929 . S
C1686 C1678 1.378 . S
C1686 C1681 1.350 . S
C1687 H1674 0.929 . S
C1687 C1679 1.433 . S
C1687 N1689 1.384 . S
N1688 C1684 1.427 . S
N1688 C1685 1.384 . S
N1689 C1681 1.427 . S
N1689 C1687 1.384 . S
H1690 C1696 0.930 . S
H1691 C1700 0.930 1_556 S
H1692 C1705 0.929 1_556 S
H1693 C1703 0.929 . S
H1694 C1698 0.929 1_556 S
H1695 C1704 0.929 . S
C1696 H1690 0.930 . S
C1696 C1697 1.367 . S
C1696 C1704 1.378 . S
C1697 C1696 1.367 . S
C1697 C1705 1.433 . S
C1698 H1694 0.929 1_554 S
C1698 C1700 1.378 . S
C1698 C1702 1.350 . S
C1699 C1702 1.463 . S
C1699 C1704 1.350 . S
C1699 N1707 1.427 . S
C1700 H1691 0.930 1_554 S
C1700 C1698 1.378 . S
C1700 C1701 1.367 . S
C1701 C1700 1.367 . S
C1701 C1703 1.433 . S
C1702 C1698 1.350 . S
C1702 C1699 1.463 . S
C1702 N1706 1.427 . S
C1703 H1693 0.929 . S
C1703 C1701 1.433 . S
C1703 N1706 1.384 . S
C1704 H1695 0.929 . S
C1704 C1696 1.378 . S
C1704 C1699 1.350 . S
C1705 H1692 0.929 1_554 S
C1705 C1697 1.433 . S
C1705 N1707 1.384 . S
N1706 C1702 1.427 . S
N1706 C1703 1.384 . S
N1707 C1699 1.427 . S
N1707 C1705 1.384 . S
H1708 C1714 0.930 . S
H1709 C1718 0.930 . S
H1710 C1723 0.929 . S
H1711 C1721 0.929 . S
H1712 C1716 0.929 . S
H1713 C1722 0.929 . S
C1714 H1708 0.930 . S
C1714 C1715 1.367 . S
C1714 C1722 1.378 . S
C1715 C1714 1.367 . S
C1715 C1723 1.433 . S
C1716 H1712 0.929 . S
C1716 C1718 1.378 . S
C1716 C1720 1.350 . S
C1717 C1720 1.463 . S
C1717 C1722 1.350 . S
C1717 N1725 1.427 . S
C1718 H1709 0.930 . S
C1718 C1716 1.378 . S
C1718 C1719 1.367 . S
C1719 C1718 1.367 . S
C1719 C1721 1.433 . S
C1720 C1716 1.350 . S
C1720 C1717 1.463 . S
C1720 N1724 1.427 . S
C1721 H1711 0.929 . S
C1721 C1719 1.433 . S
C1721 N1724 1.384 . S
C1722 H1713 0.929 . S
C1722 C1714 1.378 . S
C1722 C1717 1.350 . S
C1723 H1710 0.929 . S
C1723 C1715 1.433 . S
C1723 N1725 1.384 . S
N1724 C1720 1.427 . S
N1724 C1721 1.384 . S
N1725 C1717 1.427 . S
N1725 C1723 1.384 . S
H1726 C1732 0.930 . S
H1727 C1736 0.930 . S
H1728 C1741 0.929 . S
H1729 C1739 0.929 . S
H1730 C1734 0.929 . S
H1731 C1740 0.929 . S
C1732 H1726 0.930 . S
C1732 C1733 1.367 . S
C1732 C1740 1.378 . S
C1733 C1732 1.367 . S
C1733 C1741 1.433 . S
C1734 H1730 0.929 . S
C1734 C1736 1.378 . S
C1734 C1738 1.350 . S
C1735 C1738 1.463 . S
C1735 C1740 1.350 . S
C1735 N1743 1.427 . S
C1736 H1727 0.930 . S
C1736 C1734 1.378 . S
C1736 C1737 1.367 . S
C1737 C1736 1.367 . S
C1737 C1739 1.433 . S
C1738 C1734 1.350 . S
C1738 C1735 1.463 . S
C1738 N1742 1.427 . S
C1739 H1729 0.929 . S
C1739 C1737 1.433 . S
C1739 N1742 1.384 . S
C1740 H1731 0.929 . S
C1740 C1732 1.378 . S
C1740 C1735 1.350 . S
C1741 H1728 0.929 . S
C1741 C1733 1.433 . S
C1741 N1743 1.384 . S
N1742 C1738 1.427 . S
N1742 C1739 1.384 . S
N1743 C1735 1.427 . S
N1743 C1741 1.384 . S
H1744 C1750 0.930 . S
H1745 C1754 0.930 . S
H1746 C1759 0.927 . S
H1747 C1757 0.929 . S
H1748 C1752 0.929 . S
H1749 C1758 0.929 . S
C1750 H1744 0.930 . S
C1750 C1751 1.367 . S
C1750 C1758 1.378 . S
C1751 C1750 1.367 . S
C1751 C1759 1.434 1_565 S
C1752 H1748 0.929 . S
C1752 C1754 1.378 . S
C1752 C1756 1.350 . S
C1753 C1756 1.463 . S
C1753 C1758 1.350 . S
C1753 N1761 1.427 . S
C1754 H1745 0.930 . S
C1754 C1752 1.378 . S
C1754 C1755 1.367 . S
C1755 C1754 1.367 . S
C1755 C1757 1.433 . S
C1756 C1752 1.350 . S
C1756 C1753 1.463 . S
C1756 N1760 1.427 . S
C1757 H1747 0.929 . S
C1757 C1755 1.433 . S
C1757 N1760 1.384 . S
C1758 H1749 0.929 . S
C1758 C1750 1.378 . S
C1758 C1753 1.350 . S
C1759 H1746 0.927 . S
C1759 C1751 1.434 1_545 S
C1759 N1761 1.386 1_545 S
N1760 C1756 1.427 . S
N1760 C1757 1.384 . S
N1761 C1753 1.427 . S
N1761 C1759 1.386 1_565 S
H1762 C1768 0.930 . S
H1763 C1772 0.930 . S
H1764 C1777 0.929 . S
H1765 C1775 0.929 . S
H1766 C1770 0.929 . S
H1767 C1776 0.929 . S
C1768 H1762 0.930 . S
C1768 C1769 1.367 . S
C1768 C1776 1.378 . S
C1769 C1768 1.367 . S
C1769 C1777 1.433 . S
C1770 H1766 0.929 . S
C1770 C1772 1.378 . S
C1770 C1774 1.350 . S
C1771 C1774 1.463 . S
C1771 C1776 1.350 . S
C1771 N1779 1.427 . S
C1772 H1763 0.930 . S
C1772 C1770 1.378 . S
C1772 C1773 1.367 . S
C1773 C1772 1.367 . S
C1773 C1775 1.433 . S
C1774 C1770 1.350 . S
C1774 C1771 1.463 . S
C1774 N1778 1.427 . S
C1775 H1765 0.929 . S
C1775 C1773 1.433 . S
C1775 N1778 1.384 . S
C1776 H1767 0.929 . S
C1776 C1768 1.378 . S
C1776 C1771 1.350 . S
C1777 H1764 0.929 . S
C1777 C1769 1.433 . S
C1777 N1779 1.384 . S
N1778 C1774 1.427 . S
N1778 C1775 1.384 . S
N1779 C1771 1.427 . S
N1779 C1777 1.384 . S
H1780 C1786 0.930 . S
H1781 C1790 0.930 . S
H1782 C1795 0.929 . S
H1783 C1793 0.929 . S
H1784 C1788 0.929 . S
H1785 C1794 0.929 . S
C1786 H1780 0.930 . S
C1786 C1787 1.367 . S
C1786 C1794 1.378 . S
C1787 C1786 1.367 . S
C1787 C1795 1.433 . S
C1788 H1784 0.929 . S
C1788 C1790 1.378 . S
C1788 C1792 1.350 . S
C1789 C1792 1.463 . S
C1789 C1794 1.350 . S
C1789 N1797 1.427 . S
C1790 H1781 0.930 . S
C1790 C1788 1.378 . S
C1790 C1791 1.367 . S
C1791 C1790 1.367 . S
C1791 C1793 1.433 . S
C1792 C1788 1.350 . S
C1792 C1789 1.463 . S
C1792 N1796 1.427 . S
C1793 H1783 0.929 . S
C1793 C1791 1.433 . S
C1793 N1796 1.384 . S
C1794 H1785 0.929 . S
C1794 C1786 1.378 . S
C1794 C1789 1.350 . S
C1795 H1782 0.929 . S
C1795 C1787 1.433 . S
C1795 N1797 1.384 . S
N1796 C1792 1.427 . S
N1796 C1793 1.384 . S
N1797 C1789 1.427 . S
N1797 C1795 1.384 . S
H1798 C1804 0.930 . S
H1799 C1808 0.930 . S
H1800 C1813 0.929 . S
H1801 C1811 0.929 . S
H1802 C1806 0.929 . S
H1803 C1812 0.929 . S
C1804 H1798 0.930 . S
C1804 C1805 1.367 . S
C1804 C1812 1.378 . S
C1805 C1804 1.367 . S
C1805 C1813 1.433 . S
C1806 H1802 0.929 . S
C1806 C1808 1.378 . S
C1806 C1810 1.350 . S
C1807 C1810 1.463 . S
C1807 C1812 1.350 . S
C1807 N1815 1.427 . S
C1808 H1799 0.930 . S
C1808 C1806 1.378 . S
C1808 C1809 1.367 . S
C1809 C1808 1.367 . S
C1809 C1811 1.433 . S
C1810 C1806 1.350 . S
C1810 C1807 1.463 . S
C1810 N1814 1.427 . S
C1811 H1801 0.929 . S
C1811 C1809 1.433 . S
C1811 N1814 1.384 . S
C1812 H1803 0.929 . S
C1812 C1804 1.378 . S
C1812 C1807 1.350 . S
C1813 H1800 0.929 . S
C1813 C1805 1.433 . S
C1813 N1815 1.384 . S
N1814 C1810 1.427 . S
N1814 C1811 1.384 . S
N1815 C1807 1.427 . S
N1815 C1813 1.384 . S
H1816 C1822 0.930 . S
H1817 C1826 0.930 . S
H1818 C1831 0.929 . S
H1819 C1829 0.929 . S
H1820 C1824 0.929 . S
H1821 C1830 0.929 . S
C1822 H1816 0.930 . S
C1822 C1823 1.367 . S
C1822 C1830 1.378 . S
C1823 C1822 1.367 . S
C1823 C1831 1.433 . S
C1824 H1820 0.929 . S
C1824 C1826 1.378 . S
C1824 C1828 1.350 . S
C1825 C1828 1.463 . S
C1825 C1830 1.350 . S
C1825 N1833 1.427 . S
C1826 H1817 0.930 . S
C1826 C1824 1.378 . S
C1826 C1827 1.367 . S
C1827 C1826 1.367 . S
C1827 C1829 1.433 . S
C1828 C1824 1.350 . S
C1828 C1825 1.463 . S
C1828 N1832 1.427 . S
C1829 H1819 0.929 . S
C1829 C1827 1.433 . S
C1829 N1832 1.384 . S
C1830 H1821 0.929 . S
C1830 C1822 1.378 . S
C1830 C1825 1.350 . S
C1831 H1818 0.929 . S
C1831 C1823 1.433 . S
C1831 N1833 1.384 . S
N1832 C1828 1.427 . S
N1832 C1829 1.384 . S
N1833 C1825 1.427 . S
N1833 C1831 1.384 . S
H1834 C1840 0.930 . S
H1835 C1844 0.930 . S
H1836 C1849 0.929 . S
H1837 C1847 0.929 . S
H1838 C1842 0.929 . S
H1839 C1848 0.929 . S
C1840 H1834 0.930 . S
C1840 C1841 1.367 . S
C1840 C1848 1.378 . S
C1841 C1840 1.367 . S
C1841 C1849 1.433 . S
C1842 H1838 0.929 . S
C1842 C1844 1.378 . S
C1842 C1846 1.350 . S
C1843 C1846 1.463 . S
C1843 C1848 1.350 . S
C1843 N1851 1.427 . S
C1844 H1835 0.930 . S
C1844 C1842 1.378 . S
C1844 C1845 1.367 . S
C1845 C1844 1.367 . S
C1845 C1847 1.433 . S
C1846 C1842 1.350 . S
C1846 C1843 1.463 . S
C1846 N1850 1.427 . S
C1847 H1837 0.929 . S
C1847 C1845 1.433 . S
C1847 N1850 1.384 . S
C1848 H1839 0.929 . S
C1848 C1840 1.378 . S
C1848 C1843 1.350 . S
C1849 H1836 0.929 . S
C1849 C1841 1.433 . S
C1849 N1851 1.384 . S
N1850 C1846 1.427 . S
N1850 C1847 1.384 . S
N1851 C1843 1.427 . S
N1851 C1849 1.384 . S
H1852 C1858 0.930 . S
H1853 C1862 0.930 . S
H1854 C1867 0.929 . S
H1855 C1865 0.929 1_655 S
H1856 C1860 0.929 . S
H1857 C1866 0.929 . S
C1858 H1852 0.930 . S
C1858 C1859 1.367 1_655 S
C1858 C1866 1.378 . S
C1859 C1858 1.367 1_455 S
C1859 C1867 1.433 . S
C1860 H1856 0.929 . S
C1860 C1862 1.378 . S
C1860 C1864 1.350 . S
C1861 C1864 1.463 1_556 S
C1861 C1866 1.350 1_455 S
C1861 N1869 1.427 . S
C1862 H1853 0.930 . S
C1862 C1860 1.378 . S
C1862 C1863 1.367 . S
C1863 C1862 1.367 . S
C1863 C1865 1.433 . S
C1864 C1860 1.350 . S
C1864 C1861 1.463 1_554 S
C1864 N1868 1.443 1_554 S
C1865 H1855 0.929 1_455 S
C1865 C1863 1.433 . S
C1865 N1868 1.380 1_554 S
C1866 H1857 0.929 . S
C1866 C1858 1.378 . S
C1866 C1861 1.350 1_655 S
C1867 H1854 0.929 . S
C1867 C1859 1.433 . S
C1867 N1869 1.384 . S
N1868 C1864 1.443 1_556 S
N1868 C1865 1.380 1_556 S
N1869 C1861 1.427 . S
N1869 C1867 1.384 . S
H1870 C1876 0.928 1_655 S
H1871 C1880 0.930 . S
H1872 C1885 0.929 . S
H1873 C1883 0.929 . S
H1874 C1878 0.929 . S
H1875 C1884 0.929 . S
C1876 H1870 0.928 1_455 S
C1876 C1877 1.367 . S
C1876 C1884 1.378 1_455 S
C1877 C1876 1.367 . S
C1877 C1885 1.433 . S
C1878 H1874 0.929 . S
C1878 C1880 1.378 . S
C1878 C1882 1.350 . S
C1879 C1882 1.463 . S
C1879 C1884 1.350 . S
C1879 N1887 1.427 1_655 S
C1880 H1871 0.930 . S
C1880 C1878 1.378 . S
C1880 C1881 1.367 . S
C1881 C1880 1.367 . S
C1881 C1883 1.433 . S
C1882 C1878 1.350 . S
C1882 C1879 1.463 . S
C1882 N1886 1.427 . S
C1883 H1873 0.929 . S
C1883 C1881 1.433 . S
C1883 N1886 1.384 . S
C1884 H1875 0.929 . S
C1884 C1876 1.378 1_655 S
C1884 C1879 1.350 . S
C1885 H1872 0.929 . S
C1885 C1877 1.433 . S
C1885 N1887 1.384 . S
N1886 C1882 1.427 . S
N1886 C1883 1.384 . S
N1887 C1879 1.427 1_455 S
N1887 C1885 1.384 . S
H1888 C1894 0.930 . S
H1889 C1898 0.930 . S
H1890 C1903 0.929 . S
H1891 C1901 0.929 . S
H1892 C1896 0.929 . S
H1893 C1902 0.929 . S
C1894 H1888 0.930 . S
C1894 C1895 1.367 . S
C1894 C1902 1.378 . S
C1895 C1894 1.367 . S
C1895 C1903 1.433 . S
C1896 H1892 0.929 . S
C1896 C1898 1.378 . S
C1896 C1900 1.350 . S
C1897 C1900 1.463 . S
C1897 C1902 1.350 . S
C1897 N1905 1.427 . S
C1898 H1889 0.930 . S
C1898 C1896 1.378 . S
C1898 C1899 1.367 . S
C1899 C1898 1.367 . S
C1899 C1901 1.433 . S
C1900 C1896 1.350 . S
C1900 C1897 1.463 . S
C1900 N1904 1.427 . S
C1901 H1891 0.929 . S
C1901 C1899 1.433 . S
C1901 N1904 1.384 . S
C1902 H1893 0.929 . S
C1902 C1894 1.378 . S
C1902 C1897 1.350 . S
C1903 H1890 0.929 . S
C1903 C1895 1.433 . S
C1903 N1905 1.384 . S
N1904 C1900 1.427 . S
N1904 C1901 1.384 . S
N1905 C1897 1.427 . S
N1905 C1903 1.384 . S
H1906 C1912 0.930 . S
H1907 C1916 0.930 . S
H1908 C1921 0.929 . S
H1909 C1919 0.929 . S
H1910 C1914 0.929 . S
H1911 C1920 0.929 . S
C1912 H1906 0.930 . S
C1912 C1913 1.367 . S
C1912 C1920 1.378 . S
C1913 C1912 1.367 . S
C1913 C1921 1.433 . S
C1914 H1910 0.929 . S
C1914 C1916 1.378 . S
C1914 C1918 1.350 . S
C1915 C1918 1.463 . S
C1915 C1920 1.350 . S
C1915 N1923 1.427 . S
C1916 H1907 0.930 . S
C1916 C1914 1.378 . S
C1916 C1917 1.367 . S
C1917 C1916 1.367 . S
C1917 C1919 1.433 . S
C1918 C1914 1.350 . S
C1918 C1915 1.463 . S
C1918 N1922 1.427 . S
C1919 H1909 0.929 . S
C1919 C1917 1.433 . S
C1919 N1922 1.384 . S
C1920 H1911 0.929 . S
C1920 C1912 1.378 . S
C1920 C1915 1.350 . S
C1921 H1908 0.929 . S
C1921 C1913 1.433 . S
C1921 N1923 1.384 . S
N1922 C1918 1.427 . S
N1922 C1919 1.384 . S
N1923 C1915 1.427 . S
N1923 C1921 1.384 . S
H1924 C1930 0.930 . S
H1925 C1934 0.930 1_655 S
H1926 C1939 0.929 1_655 S
H1927 C1937 0.929 . S
H1928 C1932 0.929 1_655 S
H1929 C1938 0.929 . S
C1930 H1924 0.930 . S
C1930 C1931 1.367 . S
C1930 C1938 1.378 . S
C1931 C1930 1.367 . S
C1931 C1939 1.433 . S
C1932 H1928 0.929 1_455 S
C1932 C1934 1.378 . S
C1932 C1936 1.350 . S
C1933 C1936 1.463 . S
C1933 C1938 1.350 . S
C1933 N1941 1.427 . S
C1934 H1925 0.930 1_455 S
C1934 C1932 1.378 . S
C1934 C1935 1.367 . S
C1935 C1934 1.367 . S
C1935 C1937 1.433 . S
C1936 C1932 1.350 . S
C1936 C1933 1.463 . S
C1936 N1940 1.427 . S
C1937 H1927 0.929 . S
C1937 C1935 1.433 . S
C1937 N1940 1.384 . S
C1938 H1929 0.929 . S
C1938 C1930 1.378 . S
C1938 C1933 1.350 . S
C1939 H1926 0.929 1_455 S
C1939 C1931 1.433 . S
C1939 N1941 1.384 . S
N1940 C1936 1.427 . S
N1940 C1937 1.384 . S
N1941 C1933 1.427 . S
N1941 C1939 1.384 . S
H1942 C1948 0.930 . S
H1943 C1952 0.930 . S
H1944 C1957 0.929 . S
H1945 C1955 0.929 . S
H1946 C1950 0.929 . S
H1947 C1956 0.929 . S
C1948 H1942 0.930 . S
C1948 C1949 1.367 . S
C1948 C1956 1.378 . S
C1949 C1948 1.367 . S
C1949 C1957 1.433 . S
C1950 H1946 0.929 . S
C1950 C1952 1.378 . S
C1950 C1954 1.350 . S
C1951 C1954 1.463 . S
C1951 C1956 1.350 . S
C1951 N1959 1.427 . S
C1952 H1943 0.930 . S
C1952 C1950 1.378 . S
C1952 C1953 1.367 . S
C1953 C1952 1.367 . S
C1953 C1955 1.433 . S
C1954 C1950 1.350 . S
C1954 C1951 1.463 . S
C1954 N1958 1.427 . S
C1955 H1945 0.929 . S
C1955 C1953 1.433 . S
C1955 N1958 1.384 . S
C1956 H1947 0.929 . S
C1956 C1948 1.378 . S
C1956 C1951 1.350 . S
C1957 H1944 0.929 . S
C1957 C1949 1.433 . S
C1957 N1959 1.384 . S
N1958 C1954 1.427 . S
N1958 C1955 1.384 . S
N1959 C1951 1.427 . S
N1959 C1957 1.384 . S
H1960 C1966 0.930 . S
H1961 C1970 0.930 . S
H1962 C1975 0.929 . S
H1963 C1973 0.929 . S
H1964 C1968 0.929 . S
H1965 C1974 0.929 . S
C1966 H1960 0.930 . S
C1966 C1967 1.367 . S
C1966 C1974 1.378 . S
C1967 C1966 1.367 . S
C1967 C1975 1.433 . S
C1968 H1964 0.929 . S
C1968 C1970 1.378 . S
C1968 C1972 1.350 . S
C1969 C1972 1.463 . S
C1969 C1974 1.350 . S
C1969 N1977 1.427 . S
C1970 H1961 0.930 . S
C1970 C1968 1.378 . S
C1970 C1971 1.367 . S
C1971 C1970 1.367 . S
C1971 C1973 1.433 . S
C1972 C1968 1.350 . S
C1972 C1969 1.463 . S
C1972 N1976 1.427 . S
C1973 H1963 0.929 . S
C1973 C1971 1.433 . S
C1973 N1976 1.384 . S
C1974 H1965 0.929 . S
C1974 C1966 1.378 . S
C1974 C1969 1.350 . S
C1975 H1962 0.929 . S
C1975 C1967 1.433 . S
C1975 N1977 1.384 . S
N1976 C1972 1.427 . S
N1976 C1973 1.384 . S
N1977 C1969 1.427 . S
N1977 C1975 1.384 . S
H1978 C1984 0.931 1_554 S
H1979 C1988 0.930 . S
H1980 C1993 0.929 . S
H1981 C1991 0.929 . S
H1982 C1986 0.929 . S
H1983 C1992 0.929 . S
C1984 H1978 0.931 1_556 S
C1984 C1985 1.367 1_556 S
C1984 C1992 1.378 . S
C1985 C1984 1.367 1_554 S
C1985 C1993 1.433 . S
C1986 H1982 0.929 . S
C1986 C1988 1.378 . S
C1986 C1990 1.350 . S
C1987 C1990 1.463 . S
C1987 C1992 1.350 . S
C1987 N1995 1.427 . S
C1988 H1979 0.930 . S
C1988 C1986 1.378 . S
C1988 C1989 1.367 . S
C1989 C1988 1.367 . S
C1989 C1991 1.433 . S
C1990 C1986 1.350 . S
C1990 C1987 1.463 . S
C1990 N1994 1.427 . S
C1991 H1981 0.929 . S
C1991 C1989 1.433 . S
C1991 N1994 1.384 . S
C1992 H1983 0.929 . S
C1992 C1984 1.378 . S
C1992 C1987 1.350 . S
C1993 H1980 0.929 . S
C1993 C1985 1.433 . S
C1993 N1995 1.384 1_554 S
N1994 C1990 1.427 . S
N1994 C1991 1.384 . S
N1995 C1987 1.427 . S
N1995 C1993 1.384 1_556 S
H1996 C2002 0.930 . S
H1997 C2006 0.930 . S
H1998 C2011 0.929 . S
H1999 C2009 0.929 . S
H2000 C2004 0.929 . S
H2001 C2010 0.929 . S
C2002 H1996 0.930 . S
C2002 C2003 1.367 . S
C2002 C2010 1.378 . S
C2003 C2002 1.367 . S
C2003 C2011 1.433 . S
C2004 H2000 0.929 . S
C2004 C2006 1.378 . S
C2004 C2008 1.350 . S
C2005 C2008 1.463 . S
C2005 C2010 1.350 . S
C2005 N2013 1.427 . S
C2006 H1997 0.930 . S
C2006 C2004 1.378 . S
C2006 C2007 1.367 . S
C2007 C2006 1.367 . S
C2007 C2009 1.433 . S
C2008 C2004 1.350 . S
C2008 C2005 1.463 . S
C2008 N2012 1.427 . S
C2009 H1999 0.929 . S
C2009 C2007 1.433 . S
C2009 N2012 1.384 . S
C2010 H2001 0.929 . S
C2010 C2002 1.378 . S
C2010 C2005 1.350 . S
C2011 H1998 0.929 . S
C2011 C2003 1.433 . S
C2011 N2013 1.384 . S
N2012 C2008 1.427 . S
N2012 C2009 1.384 . S
N2013 C2005 1.427 . S
N2013 C2011 1.384 . S
H2014 C2020 0.930 . S
H2015 C2024 0.930 . S
H2016 C2029 0.929 . S
H2017 C2027 0.929 . S
H2018 C2022 0.929 . S
H2019 C2028 0.929 . S
C2020 H2014 0.930 . S
C2020 C2021 1.367 . S
C2020 C2028 1.378 . S
C2021 C2020 1.367 . S
C2021 C2029 1.433 . S
C2022 H2018 0.929 . S
C2022 C2024 1.378 . S
C2022 C2026 1.350 . S
C2023 C2026 1.463 . S
C2023 C2028 1.350 . S
C2023 N2031 1.427 . S
C2024 H2015 0.930 . S
C2024 C2022 1.378 . S
C2024 C2025 1.367 . S
C2025 C2024 1.367 . S
C2025 C2027 1.433 . S
C2026 C2022 1.350 . S
C2026 C2023 1.463 . S
C2026 N2030 1.427 . S
C2027 H2017 0.929 . S
C2027 C2025 1.433 . S
C2027 N2030 1.384 . S
C2028 H2019 0.929 . S
C2028 C2020 1.378 . S
C2028 C2023 1.350 . S
C2029 H2016 0.929 . S
C2029 C2021 1.433 . S
C2029 N2031 1.384 . S
N2030 C2026 1.427 . S
N2030 C2027 1.384 . S
N2031 C2023 1.427 . S
N2031 C2029 1.384 . S
H2032 C2038 0.930 . S
H2033 C2042 0.930 . S
H2034 C2047 0.929 . S
H2035 C2045 0.929 . S
H2036 C2040 0.929 . S
H2037 C2046 0.929 . S
C2038 H2032 0.930 . S
C2038 C2039 1.367 . S
C2038 C2046 1.378 . S
C2039 C2038 1.367 . S
C2039 C2047 1.433 . S
C2040 H2036 0.929 . S
C2040 C2042 1.378 . S
C2040 C2044 1.350 . S
C2041 C2044 1.463 . S
C2041 C2046 1.350 . S
C2041 N2049 1.427 . S
C2042 H2033 0.930 . S
C2042 C2040 1.378 . S
C2042 C2043 1.367 . S
C2043 C2042 1.367 . S
C2043 C2045 1.433 . S
C2044 C2040 1.350 . S
C2044 C2041 1.463 . S
C2044 N2048 1.427 . S
C2045 H2035 0.929 . S
C2045 C2043 1.433 . S
C2045 N2048 1.384 . S
C2046 H2037 0.929 . S
C2046 C2038 1.378 . S
C2046 C2041 1.350 . S
C2047 H2034 0.929 . S
C2047 C2039 1.433 . S
C2047 N2049 1.384 . S
N2048 C2044 1.427 . S
N2048 C2045 1.384 . S
N2049 C2041 1.427 . S
N2049 C2047 1.384 . S
H2050 C2056 0.930 . S
H2051 C2060 0.930 . S
H2052 C2065 0.929 . S
H2053 C2063 0.929 . S
H2054 C2058 0.929 . S
H2055 C2064 0.929 . S
C2056 H2050 0.930 . S
C2056 C2057 1.367 . S
C2056 C2064 1.378 . S
C2057 C2056 1.367 . S
C2057 C2065 1.433 . S
C2058 H2054 0.929 . S
C2058 C2060 1.378 . S
C2058 C2062 1.350 . S
C2059 C2062 1.463 . S
C2059 C2064 1.350 . S
C2059 N2067 1.427 . S
C2060 H2051 0.930 . S
C2060 C2058 1.378 . S
C2060 C2061 1.367 . S
C2061 C2060 1.367 . S
C2061 C2063 1.433 . S
C2062 C2058 1.350 . S
C2062 C2059 1.463 . S
C2062 N2066 1.427 . S
C2063 H2053 0.929 . S
C2063 C2061 1.433 . S
C2063 N2066 1.384 . S
C2064 H2055 0.929 . S
C2064 C2056 1.378 . S
C2064 C2059 1.350 . S
C2065 H2052 0.929 . S
C2065 C2057 1.433 . S
C2065 N2067 1.384 . S
N2066 C2062 1.427 . S
N2066 C2063 1.384 . S
N2067 C2059 1.427 . S
N2067 C2065 1.384 . S
H2068 C2074 0.930 . S
H2069 C2078 0.930 . S
H2070 C2083 0.929 . S
H2071 C2081 0.929 . S
H2072 C2076 0.929 . S
H2073 C2082 0.929 . S
C2074 H2068 0.930 . S
C2074 C2075 1.367 . S
C2074 C2082 1.378 . S
C2075 C2074 1.367 . S
C2075 C2083 1.433 . S
C2076 H2072 0.929 . S
C2076 C2078 1.378 . S
C2076 C2080 1.350 . S
C2077 C2080 1.463 . S
C2077 C2082 1.350 . S
C2077 N2085 1.427 . S
C2078 H2069 0.930 . S
C2078 C2076 1.378 . S
C2078 C2079 1.367 . S
C2079 C2078 1.367 . S
C2079 C2081 1.433 . S
C2080 C2076 1.350 . S
C2080 C2077 1.463 . S
C2080 N2084 1.427 . S
C2081 H2071 0.929 . S
C2081 C2079 1.433 . S
C2081 N2084 1.384 . S
C2082 H2073 0.929 . S
C2082 C2074 1.378 . S
C2082 C2077 1.350 . S
C2083 H2070 0.929 . S
C2083 C2075 1.433 . S
C2083 N2085 1.384 . S
N2084 C2080 1.427 . S
N2084 C2081 1.384 . S
N2085 C2077 1.427 . S
N2085 C2083 1.384 . S
H2086 C2092 0.930 . S
H2087 C2096 0.930 . S
H2088 C2101 0.929 . S
H2089 C2099 0.929 . S
H2090 C2094 0.929 . S
H2091 C2100 0.929 . S
C2092 H2086 0.930 . S
C2092 C2093 1.367 . S
C2092 C2100 1.378 . S
C2093 C2092 1.367 . S
C2093 C2101 1.433 . S
C2094 H2090 0.929 . S
C2094 C2096 1.378 . S
C2094 C2098 1.350 . S
C2095 C2098 1.463 . S
C2095 C2100 1.350 . S
C2095 N2103 1.427 . S
C2096 H2087 0.930 . S
C2096 C2094 1.378 . S
C2096 C2097 1.367 . S
C2097 C2096 1.367 . S
C2097 C2099 1.433 . S
C2098 C2094 1.350 . S
C2098 C2095 1.463 . S
C2098 N2102 1.427 . S
C2099 H2089 0.929 . S
C2099 C2097 1.433 . S
C2099 N2102 1.384 . S
C2100 H2091 0.929 . S
C2100 C2092 1.378 . S
C2100 C2095 1.350 . S
C2101 H2088 0.929 . S
C2101 C2093 1.433 . S
C2101 N2103 1.384 . S
N2102 C2098 1.427 . S
N2102 C2099 1.384 . S
N2103 C2095 1.427 . S
N2103 C2101 1.384 . S
H2104 C2110 0.930 . S
H2105 C2114 0.930 . S
H2106 C2119 0.929 . S
H2107 C2117 0.929 . S
H2108 C2112 0.929 . S
H2109 C2118 0.929 . S
C2110 H2104 0.930 . S
C2110 C2111 1.367 . S
C2110 C2118 1.378 . S
C2111 C2110 1.367 . S
C2111 C2119 1.433 . S
C2112 H2108 0.929 . S
C2112 C2114 1.378 . S
C2112 C2116 1.350 . S
C2113 C2116 1.463 . S
C2113 C2118 1.350 . S
C2113 N2121 1.427 . S
C2114 H2105 0.930 . S
C2114 C2112 1.378 . S
C2114 C2115 1.367 . S
C2115 C2114 1.367 . S
C2115 C2117 1.433 . S
C2116 C2112 1.350 . S
C2116 C2113 1.463 . S
C2116 N2120 1.427 . S
C2117 H2107 0.929 . S
C2117 C2115 1.433 . S
C2117 N2120 1.384 . S
C2118 H2109 0.929 . S
C2118 C2110 1.378 . S
C2118 C2113 1.350 . S
C2119 H2106 0.929 . S
C2119 C2111 1.433 . S
C2119 N2121 1.384 . S
N2120 C2116 1.427 . S
N2120 C2117 1.384 . S
N2121 C2113 1.427 . S
N2121 C2119 1.384 . S
H2122 C2128 0.930 . S
H2123 C2132 0.930 . S
H2124 C2137 0.929 . S
H2125 C2135 0.929 . S
H2126 C2130 0.929 . S
H2127 C2136 0.929 . S
C2128 H2122 0.930 . S
C2128 C2129 1.367 . S
C2128 C2136 1.378 . S
C2129 C2128 1.367 . S
C2129 C2137 1.433 . S
C2130 H2126 0.929 . S
C2130 C2132 1.378 . S
C2130 C2134 1.350 . S
C2131 C2134 1.463 . S
C2131 C2136 1.350 . S
C2131 N2139 1.427 . S
C2132 H2123 0.930 . S
C2132 C2130 1.378 . S
C2132 C2133 1.367 . S
C2133 C2132 1.367 . S
C2133 C2135 1.433 . S
C2134 C2130 1.350 . S
C2134 C2131 1.463 . S
C2134 N2138 1.427 . S
C2135 H2125 0.929 . S
C2135 C2133 1.433 . S
C2135 N2138 1.384 . S
C2136 H2127 0.929 . S
C2136 C2128 1.378 . S
C2136 C2131 1.350 . S
C2137 H2124 0.929 . S
C2137 C2129 1.433 . S
C2137 N2139 1.384 . S
N2138 C2134 1.427 . S
N2138 C2135 1.384 . S
N2139 C2131 1.427 . S
N2139 C2137 1.384 . S
H2140 C2146 0.930 . S
H2141 C2150 0.930 . S
H2142 C2155 0.929 . S
H2143 C2153 0.929 . S
H2144 C2148 0.929 1_545 S
H2145 C2154 0.929 . S
C2146 H2140 0.930 . S
C2146 C2147 1.367 1_565 S
C2146 C2154 1.378 . S
C2147 C2146 1.367 1_545 S
C2147 C2155 1.433 . S
C2148 H2144 0.929 1_565 S
C2148 C2150 1.378 . S
C2148 C2152 1.350 . S
C2149 C2152 1.463 . S
C2149 C2154 1.350 . S
C2149 N2157 1.427 1_565 S
C2150 H2141 0.930 . S
C2150 C2148 1.378 . S
C2150 C2151 1.367 . S
C2151 C2150 1.367 . S
C2151 C2153 1.433 . S
C2152 C2148 1.350 . S
C2152 C2149 1.463 . S
C2152 N2156 1.427 . S
C2153 H2143 0.929 . S
C2153 C2151 1.433 . S
C2153 N2156 1.384 . S
C2154 H2145 0.929 . S
C2154 C2146 1.378 . S
C2154 C2149 1.350 . S
C2155 H2142 0.929 . S
C2155 C2147 1.433 . S
C2155 N2157 1.384 . S
N2156 C2152 1.427 . S
N2156 C2153 1.384 . S
N2157 C2149 1.427 1_545 S
N2157 C2155 1.384 . S
H2158 C2164 0.930 . S
H2159 C2168 0.930 . S
H2160 C2173 0.929 . S
H2161 C2171 0.929 . S
H2162 C2166 0.929 . S
H2163 C2172 0.929 . S
C2164 H2158 0.930 . S
C2164 C2165 1.367 1_554 S
C2164 C2172 1.378 . S
C2165 C2164 1.367 1_556 S
C2165 C2173 1.433 . S
C2166 H2162 0.929 . S
C2166 C2168 1.378 . S
C2166 C2170 1.350 1_556 S
C2167 C2170 1.463 1_565 S
C2167 C2172 1.350 . S
C2167 N2175 1.427 1_554 S
C2168 H2159 0.930 . S
C2168 C2166 1.378 . S
C2168 C2169 1.367 1_556 S
C2169 C2168 1.367 1_554 S
C2169 C2171 1.433 . S
C2170 C2166 1.350 1_554 S
C2170 C2167 1.463 1_545 S
C2170 N2174 1.427 . S
C2171 H2161 0.929 . S
C2171 C2169 1.433 . S
C2171 N2174 1.384 . S
C2172 H2163 0.929 . S
C2172 C2164 1.378 . S
C2172 C2167 1.350 . S
C2173 H2160 0.929 . S
C2173 C2165 1.433 . S
C2173 N2175 1.384 . S
N2174 C2170 1.427 . S
N2174 C2171 1.384 . S
N2175 C2167 1.427 1_556 S
N2175 C2173 1.384 . S
H2176 C2182 0.930 . S
H2177 C2186 0.930 . S
H2178 C2191 0.929 . S
H2179 C2189 0.929 . S
H2180 C2184 0.929 . S
H2181 C2190 0.929 . S
C2182 H2176 0.930 . S
C2182 C2183 1.367 . S
C2182 C2190 1.378 . S
C2183 C2182 1.367 . S
C2183 C2191 1.433 . S
C2184 H2180 0.929 . S
C2184 C2186 1.378 . S
C2184 C2188 1.350 . S
C2185 C2188 1.463 . S
C2185 C2190 1.350 . S
C2185 N2193 1.427 . S
C2186 H2177 0.930 . S
C2186 C2184 1.378 . S
C2186 C2187 1.367 . S
C2187 C2186 1.367 . S
C2187 C2189 1.433 . S
C2188 C2184 1.350 . S
C2188 C2185 1.463 . S
C2188 N2192 1.427 . S
C2189 H2179 0.929 . S
C2189 C2187 1.433 . S
C2189 N2192 1.384 . S
C2190 H2181 0.929 . S
C2190 C2182 1.378 . S
C2190 C2185 1.350 . S
C2191 H2178 0.929 . S
C2191 C2183 1.433 . S
C2191 N2193 1.384 . S
N2192 C2188 1.427 . S
N2192 C2189 1.384 . S
N2193 C2185 1.427 . S
N2193 C2191 1.384 . S
H2194 C2200 0.930 . S
H2195 C2204 0.930 . S
H2196 C2209 0.929 . S
H2197 C2207 0.929 . S
H2198 C2202 0.929 . S
H2199 C2208 0.929 . S
C2200 H2194 0.930 . S
C2200 C2201 1.367 . S
C2200 C2208 1.378 . S
C2201 C2200 1.367 . S
C2201 C2209 1.433 . S
C2202 H2198 0.929 . S
C2202 C2204 1.378 . S
C2202 C2206 1.350 . S
C2203 C2206 1.463 . S
C2203 C2208 1.350 . S
C2203 N2211 1.427 . S
C2204 H2195 0.930 . S
C2204 C2202 1.378 . S
C2204 C2205 1.367 . S
C2205 C2204 1.367 . S
C2205 C2207 1.433 . S
C2206 C2202 1.350 . S
C2206 C2203 1.463 . S
C2206 N2210 1.427 . S
C2207 H2197 0.929 . S
C2207 C2205 1.433 . S
C2207 N2210 1.384 . S
C2208 H2199 0.929 . S
C2208 C2200 1.378 . S
C2208 C2203 1.350 . S
C2209 H2196 0.929 . S
C2209 C2201 1.433 . S
C2209 N2211 1.384 . S
N2210 C2206 1.427 . S
N2210 C2207 1.384 . S
N2211 C2203 1.427 . S
N2211 C2209 1.384 . S
H2212 C2218 0.930 . S
H2213 C2222 0.930 . S
H2214 C2227 0.929 . S
H2215 C2225 0.929 . S
H2216 C2220 0.929 . S
H2217 C2226 0.929 . S
C2218 H2212 0.930 . S
C2218 C2219 1.367 . S
C2218 C2226 1.378 . S
C2219 C2218 1.367 . S
C2219 C2227 1.433 . S
C2220 H2216 0.929 . S
C2220 C2222 1.378 . S
C2220 C2224 1.350 . S
C2221 C2224 1.463 . S
C2221 C2226 1.350 . S
C2221 N2229 1.427 . S
C2222 H2213 0.930 . S
C2222 C2220 1.378 . S
C2222 C2223 1.367 . S
C2223 C2222 1.367 . S
C2223 C2225 1.433 . S
C2224 C2220 1.350 . S
C2224 C2221 1.463 . S
C2224 N2228 1.427 . S
C2225 H2215 0.929 . S
C2225 C2223 1.433 . S
C2225 N2228 1.384 . S
C2226 H2217 0.929 . S
C2226 C2218 1.378 . S
C2226 C2221 1.350 . S
C2227 H2214 0.929 . S
C2227 C2219 1.433 . S
C2227 N2229 1.384 . S
N2228 C2224 1.427 . S
N2228 C2225 1.384 . S
N2229 C2221 1.427 . S
N2229 C2227 1.384 . S
H2230 C2236 0.930 . S
H2231 C2240 0.930 . S
H2232 C2245 0.929 . S
H2233 C2243 0.929 . S
H2234 C2238 0.929 . S
H2235 C2244 0.929 . S
C2236 H2230 0.930 . S
C2236 C2237 1.367 . S
C2236 C2244 1.378 . S
C2237 C2236 1.367 . S
C2237 C2245 1.433 . S
C2238 H2234 0.929 . S
C2238 C2240 1.378 . S
C2238 C2242 1.350 . S
C2239 C2242 1.463 . S
C2239 C2244 1.350 . S
C2239 N2247 1.427 . S
C2240 H2231 0.930 . S
C2240 C2238 1.378 . S
C2240 C2241 1.367 . S
C2241 C2240 1.367 . S
C2241 C2243 1.433 . S
C2242 C2238 1.350 . S
C2242 C2239 1.463 . S
C2242 N2246 1.427 . S
C2243 H2233 0.929 . S
C2243 C2241 1.433 . S
C2243 N2246 1.384 . S
C2244 H2235 0.929 . S
C2244 C2236 1.378 . S
C2244 C2239 1.350 . S
C2245 H2232 0.929 . S
C2245 C2237 1.433 . S
C2245 N2247 1.384 . S
N2246 C2242 1.427 . S
N2246 C2243 1.384 . S
N2247 C2239 1.427 . S
N2247 C2245 1.384 . S
H2248 C2254 0.930 . S
H2249 C2258 0.930 . S
H2250 C2263 0.929 . S
H2251 C2261 0.929 . S
H2252 C2256 0.929 . S
H2253 C2262 0.929 . S
C2254 H2248 0.930 . S
C2254 C2255 1.367 . S
C2254 C2262 1.378 . S
C2255 C2254 1.367 . S
C2255 C2263 1.433 . S
C2256 H2252 0.929 . S
C2256 C2258 1.378 . S
C2256 C2260 1.350 . S
C2257 C2260 1.463 . S
C2257 C2262 1.350 . S
C2257 N2265 1.427 . S
C2258 H2249 0.930 . S
C2258 C2256 1.378 . S
C2258 C2259 1.367 . S
C2259 C2258 1.367 . S
C2259 C2261 1.433 . S
C2260 C2256 1.350 . S
C2260 C2257 1.463 . S
C2260 N2264 1.427 . S
C2261 H2251 0.929 . S
C2261 C2259 1.433 . S
C2261 N2264 1.384 . S
C2262 H2253 0.929 . S
C2262 C2254 1.378 . S
C2262 C2257 1.350 . S
C2263 H2250 0.929 . S
C2263 C2255 1.433 . S
C2263 N2265 1.384 . S
N2264 C2260 1.427 . S
N2264 C2261 1.384 . S
N2265 C2257 1.427 . S
N2265 C2263 1.384 . S
H2266 C2272 0.930 . S
H2267 C2276 0.930 . S
H2268 C2281 0.929 . S
H2269 C2279 0.929 . S
H2270 C2274 0.929 . S
H2271 C2280 0.929 . S
C2272 H2266 0.930 . S
C2272 C2273 1.367 . S
C2272 C2280 1.378 . S
C2273 C2272 1.367 . S
C2273 C2281 1.433 . S
C2274 H2270 0.929 . S
C2274 C2276 1.378 . S
C2274 C2278 1.350 . S
C2275 C2278 1.463 . S
C2275 C2280 1.350 . S
C2275 N2283 1.427 . S
C2276 H2267 0.930 . S
C2276 C2274 1.378 . S
C2276 C2277 1.367 . S
C2277 C2276 1.367 . S
C2277 C2279 1.433 . S
C2278 C2274 1.350 . S
C2278 C2275 1.463 . S
C2278 N2282 1.427 . S
C2279 H2269 0.929 . S
C2279 C2277 1.433 . S
C2279 N2282 1.384 . S
C2280 H2271 0.929 . S
C2280 C2272 1.378 . S
C2280 C2275 1.350 . S
C2281 H2268 0.929 . S
C2281 C2273 1.433 . S
C2281 N2283 1.384 . S
N2282 C2278 1.427 . S
N2282 C2279 1.384 . S
N2283 C2275 1.427 . S
N2283 C2281 1.384 . S
H2284 C2290 0.930 . S
H2285 C2294 0.930 . S
H2286 C2299 0.929 . S
H2287 C2297 0.929 . S
H2288 C2292 0.929 . S
H2289 C2298 0.929 . S
C2290 H2284 0.930 . S
C2290 C2291 1.367 . S
C2290 C2298 1.378 . S
C2291 C2290 1.367 . S
C2291 C2299 1.433 . S
C2292 H2288 0.929 . S
C2292 C2294 1.378 . S
C2292 C2296 1.350 . S
C2293 C2296 1.463 . S
C2293 C2298 1.350 . S
C2293 N2301 1.427 . S
C2294 H2285 0.930 . S
C2294 C2292 1.378 . S
C2294 C2295 1.367 . S
C2295 C2294 1.367 . S
C2295 C2297 1.433 . S
C2296 C2292 1.350 . S
C2296 C2293 1.463 . S
C2296 N2300 1.427 . S
C2297 H2287 0.929 . S
C2297 C2295 1.433 . S
C2297 N2300 1.384 . S
C2298 H2289 0.929 . S
C2298 C2290 1.378 . S
C2298 C2293 1.350 . S
C2299 H2286 0.929 . S
C2299 C2291 1.433 . S
C2299 N2301 1.384 . S
N2300 C2296 1.427 . S
N2300 C2297 1.384 . S
N2301 C2293 1.427 . S
N2301 C2299 1.384 . S
H2302 C2308 0.930 . S
H2303 C2312 0.930 . S
H2304 C2317 0.929 . S
H2305 C2315 0.929 . S
H2306 C2310 0.929 . S
H2307 C2316 0.929 . S
C2308 H2302 0.930 . S
C2308 C2309 1.367 . S
C2308 C2316 1.378 . S
C2309 C2308 1.367 . S
C2309 C2317 1.433 . S
C2310 H2306 0.929 . S
C2310 C2312 1.378 . S
C2310 C2314 1.350 . S
C2311 C2314 1.463 . S
C2311 C2316 1.350 . S
C2311 N2319 1.427 . S
C2312 H2303 0.930 . S
C2312 C2310 1.378 . S
C2312 C2313 1.367 . S
C2313 C2312 1.367 . S
C2313 C2315 1.433 . S
C2314 C2310 1.350 . S
C2314 C2311 1.463 . S
C2314 N2318 1.427 . S
C2315 H2305 0.929 . S
C2315 C2313 1.433 . S
C2315 N2318 1.384 . S
C2316 H2307 0.929 . S
C2316 C2308 1.378 . S
C2316 C2311 1.350 . S
C2317 H2304 0.929 . S
C2317 C2309 1.433 . S
C2317 N2319 1.384 . S
N2318 C2314 1.427 . S
N2318 C2315 1.384 . S
N2319 C2311 1.427 . S
N2319 C2317 1.384 . S
H2320 C2326 0.930 . S
H2321 C2330 0.930 . S
H2322 C2335 0.929 . S
H2323 C2333 0.929 . S
H2324 C2328 0.929 . S
H2325 C2334 0.929 . S
C2326 H2320 0.930 . S
C2326 C2327 1.367 . S
C2326 C2334 1.378 . S
C2327 C2326 1.367 . S
C2327 C2335 1.433 . S
C2328 H2324 0.929 . S
C2328 C2330 1.378 . S
C2328 C2332 1.350 . S
C2329 C2332 1.463 . S
C2329 C2334 1.350 . S
C2329 N2337 1.427 . S
C2330 H2321 0.930 . S
C2330 C2328 1.378 . S
C2330 C2331 1.367 . S
C2331 C2330 1.367 . S
C2331 C2333 1.433 . S
C2332 C2328 1.350 . S
C2332 C2329 1.463 . S
C2332 N2336 1.427 . S
C2333 H2323 0.929 . S
C2333 C2331 1.433 . S
C2333 N2336 1.384 . S
C2334 H2325 0.929 . S
C2334 C2326 1.378 . S
C2334 C2329 1.350 . S
C2335 H2322 0.929 . S
C2335 C2327 1.433 . S
C2335 N2337 1.384 . S
N2336 C2332 1.427 . S
N2336 C2333 1.384 . S
N2337 C2329 1.427 . S
N2337 C2335 1.384 . S
H2338 C2344 0.930 . S
H2339 C2348 0.930 . S
H2340 C2353 0.929 . S
H2341 C2351 0.929 . S
H2342 C2346 0.929 . S
H2343 C2352 0.929 . S
C2344 H2338 0.930 . S
C2344 C2345 1.367 . S
C2344 C2352 1.378 . S
C2345 C2344 1.367 . S
C2345 C2353 1.433 . S
C2346 H2342 0.929 . S
C2346 C2348 1.378 . S
C2346 C2350 1.350 . S
C2347 C2350 1.463 . S
C2347 C2352 1.350 . S
C2347 N2355 1.427 . S
C2348 H2339 0.930 . S
C2348 C2346 1.378 . S
C2348 C2349 1.367 . S
C2349 C2348 1.367 . S
C2349 C2351 1.433 . S
C2350 C2346 1.350 . S
C2350 C2347 1.463 . S
C2350 N2354 1.427 . S
C2351 H2341 0.929 . S
C2351 C2349 1.433 . S
C2351 N2354 1.384 . S
C2352 H2343 0.929 . S
C2352 C2344 1.378 . S
C2352 C2347 1.350 . S
C2353 H2340 0.929 . S
C2353 C2345 1.433 . S
C2353 N2355 1.384 . S
N2354 C2350 1.427 . S
N2354 C2351 1.384 . S
N2355 C2347 1.427 . S
N2355 C2353 1.384 . S
H2356 C2362 0.930 . S
H2357 C2366 0.930 . S
H2358 C2371 0.929 . S
H2359 C2369 0.929 . S
H2360 C2364 0.929 . S
H2361 C2370 0.929 . S
C2362 H2356 0.930 . S
C2362 C2363 1.367 . S
C2362 C2370 1.378 . S
C2363 C2362 1.367 . S
C2363 C2371 1.433 . S
C2364 H2360 0.929 . S
C2364 C2366 1.378 . S
C2364 C2368 1.350 . S
C2365 C2368 1.463 . S
C2365 C2370 1.350 . S
C2365 N2373 1.427 . S
C2366 H2357 0.930 . S
C2366 C2364 1.378 . S
C2366 C2367 1.367 . S
C2367 C2366 1.367 . S
C2367 C2369 1.433 . S
C2368 C2364 1.350 . S
C2368 C2365 1.463 . S
C2368 N2372 1.427 . S
C2369 H2359 0.929 . S
C2369 C2367 1.433 . S
C2369 N2372 1.384 . S
C2370 H2361 0.929 . S
C2370 C2362 1.378 . S
C2370 C2365 1.350 . S
C2371 H2358 0.929 . S
C2371 C2363 1.433 . S
C2371 N2373 1.384 . S
N2372 C2368 1.427 . S
N2372 C2369 1.384 . S
N2373 C2365 1.427 . S
N2373 C2371 1.384 . S
H2374 C2380 0.930 . S
H2375 C2384 0.930 . S
H2376 C2389 0.929 . S
H2377 C2387 0.929 . S
H2378 C2382 0.929 . S
H2379 C2388 0.929 . S
C2380 H2374 0.930 . S
C2380 C2381 1.367 . S
C2380 C2388 1.378 . S
C2381 C2380 1.367 . S
C2381 C2389 1.433 . S
C2382 H2378 0.929 . S
C2382 C2384 1.378 . S
C2382 C2386 1.350 . S
C2383 C2386 1.463 . S
C2383 C2388 1.350 . S
C2383 N2391 1.427 . S
C2384 H2375 0.930 . S
C2384 C2382 1.378 . S
C2384 C2385 1.367 . S
C2385 C2384 1.367 . S
C2385 C2387 1.433 . S
C2386 C2382 1.350 . S
C2386 C2383 1.463 . S
C2386 N2390 1.427 . S
C2387 H2377 0.929 . S
C2387 C2385 1.433 . S
C2387 N2390 1.384 . S
C2388 H2379 0.929 . S
C2388 C2380 1.378 . S
C2388 C2383 1.350 . S
C2389 H2376 0.929 . S
C2389 C2381 1.433 . S
C2389 N2391 1.384 . S
N2390 C2386 1.427 . S
N2390 C2387 1.384 . S
N2391 C2383 1.427 . S
N2391 C2389 1.384 . S
H2392 C2398 0.930 . S
H2393 C2402 0.930 . S
H2394 C2407 0.929 . S
H2395 C2405 0.929 . S
H2396 C2400 0.929 . S
H2397 C2406 0.929 . S
C2398 H2392 0.930 . S
C2398 C2399 1.367 . S
C2398 C2406 1.378 . S
C2399 C2398 1.367 . S
C2399 C2407 1.433 . S
C2400 H2396 0.929 . S
C2400 C2402 1.378 . S
C2400 C2404 1.350 . S
C2401 C2404 1.463 . S
C2401 C2406 1.350 . S
C2401 N2409 1.427 . S
C2402 H2393 0.930 . S
C2402 C2400 1.378 . S
C2402 C2403 1.367 . S
C2403 C2402 1.367 . S
C2403 C2405 1.433 . S
C2404 C2400 1.350 . S
C2404 C2401 1.463 . S
C2404 N2408 1.427 . S
C2405 H2395 0.929 . S
C2405 C2403 1.433 . S
C2405 N2408 1.384 . S
C2406 H2397 0.929 . S
C2406 C2398 1.378 . S
C2406 C2401 1.350 . S
C2407 H2394 0.929 . S
C2407 C2399 1.433 . S
C2407 N2409 1.384 . S
N2408 C2404 1.427 . S
N2408 C2405 1.384 . S
N2409 C2401 1.427 . S
N2409 C2407 1.384 . S
H2410 C2416 0.930 . S
H2411 C2420 0.930 . S
H2412 C2425 0.929 . S
H2413 C2423 0.929 . S
H2414 C2418 0.929 . S
H2415 C2424 0.929 . S
C2416 H2410 0.930 . S
C2416 C2417 1.367 . S
C2416 C2424 1.378 . S
C2417 C2416 1.367 . S
C2417 C2425 1.433 . S
C2418 H2414 0.929 . S
C2418 C2420 1.378 . S
C2418 C2422 1.350 . S
C2419 C2422 1.463 . S
C2419 C2424 1.350 . S
C2419 N2427 1.427 . S
C2420 H2411 0.930 . S
C2420 C2418 1.378 . S
C2420 C2421 1.367 . S
C2421 C2420 1.367 . S
C2421 C2423 1.433 . S
C2422 C2418 1.350 . S
C2422 C2419 1.463 . S
C2422 N2426 1.427 . S
C2423 H2413 0.929 . S
C2423 C2421 1.433 . S
C2423 N2426 1.384 . S
C2424 H2415 0.929 . S
C2424 C2416 1.378 . S
C2424 C2419 1.350 . S
C2425 H2412 0.929 . S
C2425 C2417 1.433 . S
C2425 N2427 1.384 . S
N2426 C2422 1.427 . S
N2426 C2423 1.384 . S
N2427 C2419 1.427 . S
N2427 C2425 1.384 . S
H2428 C2434 0.930 . S
H2429 C2438 0.930 . S
H2430 C2443 0.929 . S
H2431 C2441 0.929 . S
H2432 C2436 0.929 . S
H2433 C2442 0.929 . S
C2434 H2428 0.930 . S
C2434 C2435 1.367 . S
C2434 C2442 1.378 . S
C2435 C2434 1.367 . S
C2435 C2443 1.433 . S
C2436 H2432 0.929 . S
C2436 C2438 1.378 . S
C2436 C2440 1.350 1_455 S
C2437 C2440 1.463 . S
C2437 C2442 1.350 . S
C2437 N2445 1.427 . S
C2438 H2429 0.930 . S
C2438 C2436 1.378 . S
C2438 C2439 1.367 . S
C2439 C2438 1.367 . S
C2439 C2441 1.433 1_455 S
C2440 C2436 1.350 1_655 S
C2440 C2437 1.463 . S
C2440 N2444 1.427 . S
C2441 H2431 0.929 . S
C2441 C2439 1.433 1_655 S
C2441 N2444 1.384 . S
C2442 H2433 0.929 . S
C2442 C2434 1.378 . S
C2442 C2437 1.350 . S
C2443 H2430 0.929 . S
C2443 C2435 1.433 . S
C2443 N2445 1.384 . S
N2444 C2440 1.427 . S
N2444 C2441 1.384 . S
N2445 C2437 1.427 . S
N2445 C2443 1.384 . S
H2446 C2452 0.930 . S
H2447 C2456 0.930 . S
H2448 C2461 0.929 . S
H2449 C2459 0.929 . S
H2450 C2454 0.929 . S
H2451 C2460 0.929 . S
C2452 H2446 0.930 . S
C2452 C2453 1.367 . S
C2452 C2460 1.378 . S
C2453 C2452 1.367 . S
C2453 C2461 1.433 . S
C2454 H2450 0.929 . S
C2454 C2456 1.378 . S
C2454 C2458 1.350 . S
C2455 C2458 1.463 . S
C2455 C2460 1.350 . S
C2455 N2463 1.427 . S
C2456 H2447 0.930 . S
C2456 C2454 1.378 . S
C2456 C2457 1.367 . S
C2457 C2456 1.367 . S
C2457 C2459 1.433 . S
C2458 C2454 1.350 . S
C2458 C2455 1.463 . S
C2458 N2462 1.427 . S
C2459 H2449 0.929 . S
C2459 C2457 1.433 . S
C2459 N2462 1.384 . S
C2460 H2451 0.929 . S
C2460 C2452 1.378 . S
C2460 C2455 1.350 . S
C2461 H2448 0.929 . S
C2461 C2453 1.433 . S
C2461 N2463 1.384 . S
N2462 C2458 1.427 . S
N2462 C2459 1.384 . S
N2463 C2455 1.427 . S
N2463 C2461 1.384 . S
H2464 C2470 0.930 . S
H2465 C2474 0.930 . S
H2466 C2479 0.929 . S
H2467 C2477 0.929 . S
H2468 C2472 0.929 . S
H2469 C2478 0.929 . S
C2470 H2464 0.930 . S
C2470 C2471 1.367 . S
C2470 C2478 1.378 . S
C2471 C2470 1.367 . S
C2471 C2479 1.433 . S
C2472 H2468 0.929 . S
C2472 C2474 1.378 . S
C2472 C2476 1.350 . S
C2473 C2476 1.463 . S
C2473 C2478 1.350 . S
C2473 N2481 1.427 . S
C2474 H2465 0.930 . S
C2474 C2472 1.378 . S
C2474 C2475 1.367 . S
C2475 C2474 1.367 . S
C2475 C2477 1.433 . S
C2476 C2472 1.350 . S
C2476 C2473 1.463 . S
C2476 N2480 1.427 . S
C2477 H2467 0.929 . S
C2477 C2475 1.433 . S
C2477 N2480 1.384 . S
C2478 H2469 0.929 . S
C2478 C2470 1.378 . S
C2478 C2473 1.350 . S
C2479 H2466 0.929 . S
C2479 C2471 1.433 . S
C2479 N2481 1.384 . S
N2480 C2476 1.427 . S
N2480 C2477 1.384 . S
N2481 C2473 1.427 . S
N2481 C2479 1.384 . S
H2482 C2488 0.930 . S
H2483 C2492 0.930 . S
H2484 C2497 0.929 . S
H2485 C2495 0.929 . S
H2486 C2490 0.929 . S
H2487 C2496 0.929 . S
C2488 H2482 0.930 . S
C2488 C2489 1.367 . S
C2488 C2496 1.378 . S
C2489 C2488 1.367 . S
C2489 C2497 1.433 . S
C2490 H2486 0.929 . S
C2490 C2492 1.378 . S
C2490 C2494 1.350 . S
C2491 C2494 1.463 . S
C2491 C2496 1.350 . S
C2491 N2499 1.427 . S
C2492 H2483 0.930 . S
C2492 C2490 1.378 . S
C2492 C2493 1.367 . S
C2493 C2492 1.367 . S
C2493 C2495 1.433 . S
C2494 C2490 1.350 . S
C2494 C2491 1.463 . S
C2494 N2498 1.427 . S
C2495 H2485 0.929 . S
C2495 C2493 1.433 . S
C2495 N2498 1.384 . S
C2496 H2487 0.929 . S
C2496 C2488 1.378 . S
C2496 C2491 1.350 . S
C2497 H2484 0.929 . S
C2497 C2489 1.433 . S
C2497 N2499 1.384 . S
N2498 C2494 1.427 . S
N2498 C2495 1.384 . S
N2499 C2491 1.427 . S
N2499 C2497 1.384 . S
H2500 C2506 0.930 . S
H2501 C2510 0.934 . S
H2502 C2515 0.929 . S
H2503 C2513 0.929 . S
H2504 C2508 0.929 . S
H2505 C2514 0.929 . S
C2506 H2500 0.930 . S
C2506 C2507 1.367 . S
C2506 C2514 1.378 . S
C2507 C2506 1.367 . S
C2507 C2515 1.433 . S
C2508 H2504 0.929 . S
C2508 C2510 1.373 1_655 S
C2508 C2512 1.350 . S
C2509 C2512 1.463 . S
C2509 C2514 1.350 . S
C2509 N2517 1.427 . S
C2510 H2501 0.934 . S
C2510 C2508 1.373 1_455 S
C2510 C2511 1.368 1_455 S
C2511 C2510 1.368 1_655 S
C2511 C2513 1.433 . S
C2512 C2508 1.350 . S
C2512 C2509 1.463 . S
C2512 N2516 1.427 . S
C2513 H2503 0.929 . S
C2513 C2511 1.433 . S
C2513 N2516 1.384 . S
C2514 H2505 0.929 . S
C2514 C2506 1.378 . S
C2514 C2509 1.350 . S
C2515 H2502 0.929 . S
C2515 C2507 1.433 . S
C2515 N2517 1.384 . S
N2516 C2512 1.427 . S
N2516 C2513 1.384 . S
N2517 C2509 1.427 . S
N2517 C2515 1.384 . S
H2518 C2524 0.930 . S
H2519 C2528 0.930 . S
H2520 C2533 0.929 . S
H2521 C2531 0.929 . S
H2522 C2526 0.929 . S
H2523 C2532 0.929 . S
C2524 H2518 0.930 . S
C2524 C2525 1.367 . S
C2524 C2532 1.378 . S
C2525 C2524 1.367 . S
C2525 C2533 1.433 . S
C2526 H2522 0.929 . S
C2526 C2528 1.378 . S
C2526 C2530 1.350 . S
C2527 C2530 1.463 . S
C2527 C2532 1.350 . S
C2527 N2535 1.427 . S
C2528 H2519 0.930 . S
C2528 C2526 1.378 . S
C2528 C2529 1.367 . S
C2529 C2528 1.367 . S
C2529 C2531 1.433 . S
C2530 C2526 1.350 . S
C2530 C2527 1.463 . S
C2530 N2534 1.427 . S
C2531 H2521 0.929 . S
C2531 C2529 1.433 . S
C2531 N2534 1.384 . S
C2532 H2523 0.929 . S
C2532 C2524 1.378 . S
C2532 C2527 1.350 . S
C2533 H2520 0.929 . S
C2533 C2525 1.433 . S
C2533 N2535 1.384 . S
N2534 C2530 1.427 . S
N2534 C2531 1.384 . S
N2535 C2527 1.427 . S
N2535 C2533 1.384 . S
H2536 C2542 0.930 . S
H2537 C2546 0.930 . S
H2538 C2551 0.929 . S
H2539 C2549 0.929 . S
H2540 C2544 0.929 . S
H2541 C2550 0.929 . S
C2542 H2536 0.930 . S
C2542 C2543 1.367 . S
C2542 C2550 1.378 . S
C2543 C2542 1.367 . S
C2543 C2551 1.433 . S
C2544 H2540 0.929 . S
C2544 C2546 1.378 . S
C2544 C2548 1.350 . S
C2545 C2548 1.463 . S
C2545 C2550 1.350 . S
C2545 N2553 1.427 . S
C2546 H2537 0.930 . S
C2546 C2544 1.378 . S
C2546 C2547 1.367 . S
C2547 C2546 1.367 . S
C2547 C2549 1.433 . S
C2548 C2544 1.350 . S
C2548 C2545 1.463 . S
C2548 N2552 1.427 . S
C2549 H2539 0.929 . S
C2549 C2547 1.433 . S
C2549 N2552 1.384 . S
C2550 H2541 0.929 . S
C2550 C2542 1.378 . S
C2550 C2545 1.350 . S
C2551 H2538 0.929 . S
C2551 C2543 1.433 . S
C2551 N2553 1.384 . S
N2552 C2548 1.427 . S
N2552 C2549 1.384 . S
N2553 C2545 1.427 . S
N2553 C2551 1.384 . S
H2554 C2560 0.930 . S
H2555 C2564 0.930 . S
H2556 C2569 0.929 . S
H2557 C2567 0.929 . S
H2558 C2562 0.929 . S
H2559 C2568 0.929 . S
C2560 H2554 0.930 . S
C2560 C2561 1.367 . S
C2560 C2568 1.378 . S
C2561 C2560 1.367 . S
C2561 C2569 1.433 . S
C2562 H2558 0.929 . S
C2562 C2564 1.378 . S
C2562 C2566 1.350 . S
C2563 C2566 1.463 . S
C2563 C2568 1.350 . S
C2563 N2571 1.427 . S
C2564 H2555 0.930 . S
C2564 C2562 1.378 . S
C2564 C2565 1.367 . S
C2565 C2564 1.367 . S
C2565 C2567 1.433 1_565 S
C2566 C2562 1.350 . S
C2566 C2563 1.463 . S
C2566 N2570 1.427 . S
C2567 H2557 0.929 . S
C2567 C2565 1.433 1_545 S
C2567 N2570 1.384 1_545 S
C2568 H2559 0.929 . S
C2568 C2560 1.378 . S
C2568 C2563 1.350 . S
C2569 H2556 0.929 . S
C2569 C2561 1.433 . S
C2569 N2571 1.384 . S
N2570 C2566 1.427 . S
N2570 C2567 1.384 1_565 S
N2571 C2563 1.427 . S
N2571 C2569 1.384 . S
H2572 C2578 0.930 . S
H2573 C2582 0.930 . S
H2574 C2587 0.929 . S
H2575 C2585 0.929 . S
H2576 C2580 0.929 . S
H2577 C2586 0.929 . S
C2578 H2572 0.930 . S
C2578 C2579 1.367 . S
C2578 C2586 1.378 . S
C2579 C2578 1.367 . S
C2579 C2587 1.433 . S
C2580 H2576 0.929 . S
C2580 C2582 1.378 . S
C2580 C2584 1.350 . S
C2581 C2584 1.463 . S
C2581 C2586 1.350 . S
C2581 N2589 1.427 . S
C2582 H2573 0.930 . S
C2582 C2580 1.378 . S
C2582 C2583 1.367 . S
C2583 C2582 1.367 . S
C2583 C2585 1.433 . S
C2584 C2580 1.350 . S
C2584 C2581 1.463 . S
C2584 N2588 1.427 . S
C2585 H2575 0.929 . S
C2585 C2583 1.433 . S
C2585 N2588 1.384 . S
C2586 H2577 0.929 . S
C2586 C2578 1.378 . S
C2586 C2581 1.350 . S
C2587 H2574 0.929 . S
C2587 C2579 1.433 . S
C2587 N2589 1.384 . S
N2588 C2584 1.427 . S
N2588 C2585 1.384 . S
N2589 C2581 1.427 . S
N2589 C2587 1.384 . S
H2590 C2596 0.930 . S
H2591 C2600 0.930 . S
H2592 C2605 0.929 . S
H2593 C2603 0.929 . S
H2594 C2598 0.929 . S
H2595 C2604 0.929 . S
C2596 H2590 0.930 . S
C2596 C2597 1.367 . S
C2596 C2604 1.378 . S
C2597 C2596 1.367 . S
C2597 C2605 1.433 . S
C2598 H2594 0.929 . S
C2598 C2600 1.378 . S
C2598 C2602 1.350 . S
C2599 C2602 1.463 . S
C2599 C2604 1.350 . S
C2599 N2607 1.427 . S
C2600 H2591 0.930 . S
C2600 C2598 1.378 . S
C2600 C2601 1.367 . S
C2601 C2600 1.367 . S
C2601 C2603 1.433 . S
C2602 C2598 1.350 . S
C2602 C2599 1.463 . S
C2602 N2606 1.427 . S
C2603 H2593 0.929 . S
C2603 C2601 1.433 . S
C2603 N2606 1.384 . S
C2604 H2595 0.929 . S
C2604 C2596 1.378 . S
C2604 C2599 1.350 . S
C2605 H2592 0.929 . S
C2605 C2597 1.433 . S
C2605 N2607 1.384 . S
N2606 C2602 1.427 . S
N2606 C2603 1.384 . S
N2607 C2599 1.427 . S
N2607 C2605 1.384 . S
H2608 C2614 0.930 . S
H2609 C2618 0.930 . S
H2610 C2623 0.929 . S
H2611 C2621 0.929 . S
H2612 C2616 0.929 . S
H2613 C2622 0.929 . S
C2614 H2608 0.930 . S
C2614 C2615 1.367 . S
C2614 C2622 1.378 . S
C2615 C2614 1.367 . S
C2615 C2623 1.433 . S
C2616 H2612 0.929 . S
C2616 C2618 1.378 . S
C2616 C2620 1.350 . S
C2617 C2620 1.463 . S
C2617 C2622 1.350 . S
C2617 N2625 1.427 . S
C2618 H2609 0.930 . S
C2618 C2616 1.378 . S
C2618 C2619 1.367 . S
C2619 C2618 1.367 . S
C2619 C2621 1.433 . S
C2620 C2616 1.350 . S
C2620 C2617 1.463 . S
C2620 N2624 1.427 . S
C2621 H2611 0.929 . S
C2621 C2619 1.433 . S
C2621 N2624 1.384 . S
C2622 H2613 0.929 . S
C2622 C2614 1.378 . S
C2622 C2617 1.350 . S
C2623 H2610 0.929 . S
C2623 C2615 1.433 . S
C2623 N2625 1.384 . S
N2624 C2620 1.427 . S
N2624 C2621 1.384 . S
N2625 C2617 1.427 . S
N2625 C2623 1.384 . S
H2626 C2632 0.930 . S
H2627 C2636 0.930 . S
H2628 C2641 0.929 . S
H2629 C2639 0.929 . S
H2630 C2634 0.929 . S
H2631 C2640 0.929 . S
C2632 H2626 0.930 . S
C2632 C2633 1.367 . S
C2632 C2640 1.378 . S
C2633 C2632 1.367 . S
C2633 C2641 1.433 . S
C2634 H2630 0.929 . S
C2634 C2636 1.378 . S
C2634 C2638 1.350 . S
C2635 C2638 1.463 . S
C2635 C2640 1.350 . S
C2635 N2643 1.427 . S
C2636 H2627 0.930 . S
C2636 C2634 1.378 . S
C2636 C2637 1.367 . S
C2637 C2636 1.367 . S
C2637 C2639 1.433 . S
C2638 C2634 1.350 . S
C2638 C2635 1.463 . S
C2638 N2642 1.427 . S
C2639 H2629 0.929 . S
C2639 C2637 1.433 . S
C2639 N2642 1.384 . S
C2640 H2631 0.929 . S
C2640 C2632 1.378 . S
C2640 C2635 1.350 . S
C2641 H2628 0.929 . S
C2641 C2633 1.433 . S
C2641 N2643 1.384 . S
N2642 C2638 1.427 . S
N2642 C2639 1.384 . S
N2643 C2635 1.427 . S
N2643 C2641 1.384 . S
H2644 C2650 0.930 . S
H2645 C2654 0.930 . S
H2646 C2659 0.929 . S
H2647 C2657 0.929 . S
H2648 C2652 0.929 . S
H2649 C2658 0.929 . S
C2650 H2644 0.930 . S
C2650 C2651 1.367 . S
C2650 C2658 1.378 . S
C2651 C2650 1.367 . S
C2651 C2659 1.433 . S
C2652 H2648 0.929 . S
C2652 C2654 1.378 . S
C2652 C2656 1.350 . S
C2653 C2656 1.463 . S
C2653 C2658 1.350 . S
C2653 N2661 1.427 . S
C2654 H2645 0.930 . S
C2654 C2652 1.378 . S
C2654 C2655 1.367 . S
C2655 C2654 1.367 . S
C2655 C2657 1.433 . S
C2656 C2652 1.350 . S
C2656 C2653 1.463 . S
C2656 N2660 1.427 . S
C2657 H2647 0.929 . S
C2657 C2655 1.433 . S
C2657 N2660 1.384 . S
C2658 H2649 0.929 . S
C2658 C2650 1.378 . S
C2658 C2653 1.350 . S
C2659 H2646 0.929 . S
C2659 C2651 1.433 . S
C2659 N2661 1.384 . S
N2660 C2656 1.427 . S
N2660 C2657 1.384 . S
N2661 C2653 1.427 . S
N2661 C2659 1.384 . S
H2662 C2668 0.930 . S
H2663 C2672 0.930 . S
H2664 C2677 0.929 . S
H2665 C2675 0.929 . S
H2666 C2670 0.929 . S
H2667 C2676 0.929 . S
C2668 H2662 0.930 . S
C2668 C2669 1.367 . S
C2668 C2676 1.378 . S
C2669 C2668 1.367 . S
C2669 C2677 1.433 . S
C2670 H2666 0.929 . S
C2670 C2672 1.378 . S
C2670 C2674 1.350 . S
C2671 C2674 1.463 . S
C2671 C2676 1.350 . S
C2671 N2679 1.427 . S
C2672 H2663 0.930 . S
C2672 C2670 1.378 . S
C2672 C2673 1.367 . S
C2673 C2672 1.367 . S
C2673 C2675 1.433 . S
C2674 C2670 1.350 . S
C2674 C2671 1.463 . S
C2674 N2678 1.427 . S
C2675 H2665 0.929 . S
C2675 C2673 1.433 . S
C2675 N2678 1.384 . S
C2676 H2667 0.929 . S
C2676 C2668 1.378 . S
C2676 C2671 1.350 . S
C2677 H2664 0.929 . S
C2677 C2669 1.433 . S
C2677 N2679 1.384 . S
N2678 C2674 1.427 . S
N2678 C2675 1.384 . S
N2679 C2671 1.427 . S
N2679 C2677 1.384 . S
C959 C101 2.136 1_455 S
C963 C343 2.077 . S
C977 C57 1.733 . S
C981 C354 1.783 . S
C995 C70 1.563 . S
C999 C423 1.512 . S
C1017 C436 1.197 . S
C1013 C82 1.227 . S
C1031 C23 2.447 . S
C1035 C492 2.424 . S
C1053 C543 2.018 . S
C1049 C29 2.085 . S
C1071 C572 2.276 . S
C1067 C49 2.285 . S
C1085 C10 2.454 . S
C1089 C623 2.378 . S
C1107 C314 1.334 . S
C1103 C218 1.322 . S
C1121 C226 0.980 . S
C1125 C356 0.952 . S
C1143 C394 1.028 . S
C1139 C251 1.029 . S
C1161 C463 1.512 . S
C1157 C159 1.522 . S
C1175 C211 0.617 . S
C1179 C497 0.631 . S
C1197 C514 1.440 . S
C1193 C225 1.416 . S
C1215 C577 0.424 . S
C1211 C252 0.376 . S
C1233 C594 1.991 . S
C1229 C166 2.021 . S
C1251 C316 1.781 . S
C1247 C147 1.904 . S
C1265 C263 1.609 . S
C1269 C655 1.581 . S
C1287 C676 1.641 . S
C1283 C309 1.732 . S
C1305 C735 0.401 . S
C1301 C291 0.305 . S
C1319 C108 1.200 . S
C1323 C596 1.171 . S
C1337 C121 1.492 . S
C1341 C396 1.447 . S
C1355 C302 0.850 . S
C1359 C754 0.881 . S
C1377 C823 0.939 . S
C1373 C276 0.957 . S
C1395 C332 2.280 1_565 S
C1391 C55 2.292 . S
C1413 C815 2.052 . S
C1409 C96 2.039 . S
C1427 C88 1.885 . S
C1431 C412 1.858 . S
C1445 C75 1.358 . S
C1449 C777 1.343 . S
C1467 C503 2.748 . S
C1463 C4 2.778 . S
C1481 C44 2.277 . S
C1485 C692 2.268 . S
C1503 C583 2.637 1_566 S
C1499 C31 2.651 . S
C1521 C852 2.564 . S
C1517 C18 2.607 1_655 S
C1539 C335 1.425 1_556 S
C1535 C133 1.436 . S
C1557 C817 1.118 . S
C1553 C296 1.141 . S
C1571 C107 1.293 . S
C1575 C415 1.269 . S
C1589 C264 1.967 . S
C1593 C772 1.973 . S
C1607 C140 0.784 . S
C1611 C476 0.781 . S
C1629 C695 1.648 . S
C1625 C289 1.657 . S
C1643 C114 0.613 . S
C1647 C556 0.610 . S
C1661 C265 2.349 . S
C1665 C855 2.310 . S
C1679 C179 1.700 . S
C1683 C337 1.635 . S
C1697 C161 1.760 . S
C1701 C634 1.720 . S
C1715 C244 1.531 . S
C1719 C537 1.485 . S
C1733 C224 0.629 . S
C1737 C714 0.654 . S
C1755 C857 1.069 . S
C1751 C257 1.080 1_565 S
C1769 C199 1.485 . S
C1773 C417 1.464 . S
C1791 C455 1.171 . S
C1787 C237 1.156 . S
C1809 C372 1.120 . S
C1805 C185 1.139 . S
C1823 C69 2.137 . S
C1827 C903 2.088 . S
C1845 C794 1.785 . S
C1841 C83 1.741 . S
C1859 C94 1.563 . S
C1863 C943 1.513 . S
C1877 C56 1.232 . S
C1881 C756 1.207 . S
C1895 C42 2.460 . S
C1899 C652 2.428 . S
C1917 C703 2.011 . S
C1913 C3 2.083 . S
C1935 C732 2.289 . S
C1931 C16 2.288 . S
C1953 C863 2.377 . S
C1949 C36 2.454 . S
C1971 C874 1.323 . S
C1967 C238 1.308 . S
C1985 C174 0.971 . S
C1989 C796 0.932 . S
C2007 C914 1.028 . S
C2003 C186 1.038 . S
C2025 C783 1.509 . S
C2021 C198 1.521 . S
C2043 C657 0.655 . S
C2039 C239 0.631 . S
C2057 C173 1.429 . S
C2061 C674 1.442 . S
C2079 C737 0.461 . S
C2075 C187 0.399 . S
C2093 C205 2.022 . S
C2097 C834 1.988 . S
C2115 C876 1.784 . S
C2111 C290 1.907 . S
C2129 C122 1.612 . S
C2133 C495 1.584 . S
C2151 C516 1.640 . S
C2147 C134 1.732 . S
C2169 C575 0.371 . S
C2165 C148 0.290 . S
C2187 C836 1.170 . S
C2183 C283 1.198 . S
C2201 C270 1.498 . S
C2205 C916 1.461 . S
C2223 C434 0.881 . S
C2219 C135 0.873 . S
C2241 C383 0.923 . S
C2237 C109 0.942 . S
C2255 C81 2.292 . S
C2259 C892 2.285 . S
C2277 C375 2.050 . S
C2273 C68 2.034 . S
C2291 C62 1.886 . S
C2295 C932 1.851 . S
C2309 C95 1.359 . S
C2313 C457 1.340 . S
C2327 C30 2.779 . S
C2331 C663 2.748 1_556 S
C2349 C532 2.257 . S
C2345 C17 2.274 . S
C2363 C5 2.654 . S
C2367 C743 2.638 . S
C2381 C43 2.603 . S
C2385 C612 2.552 . S
C2403 C895 1.433 . S
C2399 C304 1.436 . S
C2417 C153 1.139 . S
C2421 C377 1.111 . S
C2439 C935 1.268 1_556 S
C2435 C278 1.293 . S
C2453 C127 1.966 . S
C2457 C452 1.973 . S
C2471 C303 0.780 . S
C2475 C636 0.778 . S
C2493 C535 1.645 . S
C2489 C146 1.659 . S
C2507 C277 0.609 . S
C2511 C716 0.614 . S
C2529 C615 2.309 . S
C2525 C120 2.348 . S
C2547 C897 1.643 . S
C2543 C231 1.709 . S
C2565 C474 1.712 1_665 S
C2561 C200 1.757 . S
C2579 C212 1.535 . S
C2583 C697 1.490 . S
C2601 C554 0.635 . S
C2597 C172 0.628 . S
C2615 C192 1.063 . S
C2619 C617 1.049 . S
C2633 C160 1.486 . S
C2637 C937 1.465 . S
C2655 C775 1.176 . S
C2651 C213 1.156 . S
C2673 C812 1.117 . S
C2669 C250 1.139 . S
