# Generated by pormake.
# Topology zzz, (3,6)-cn, num edge types: 1
# Building blocks:
#     Node 0, Type 0, BuildingBlock: OLANEW_clean_sbu_2, # of connection points: 3
#     Node 1, Type 0, BuildingBlock: OLANEW_clean_sbu_2, # of connection points: 3
#     Node 2, Type 0, BuildingBlock: OLANEW_clean_sbu_2, # of connection points: 3
#     Node 3, Type 0, BuildingBlock: OLANEW_clean_sbu_2, # of connection points: 3
#     Node 4, Type 0, BuildingBlock: OLANEW_clean_sbu_2, # of connection points: 3
#     Node 5, Type 0, BuildingBlock: OLANEW_clean_sbu_2, # of connection points: 3
#     Node 6, Type 0, BuildingBlock: OLANEW_clean_sbu_2, # of connection points: 3
#     Node 7, Type 0, BuildingBlock: OLANEW_clean_sbu_2, # of connection points: 3
#     Node 8, Type 1, BuildingBlock: INOVEN_clean_sbu_0, # of connection points: 6
#     Node 9, Type 1, BuildingBlock: INOVEN_clean_sbu_0, # of connection points: 6
#     Node 10, Type 1, BuildingBlock: INOVEN_clean_sbu_0, # of connection points: 6
#     Node 11, Type 1, BuildingBlock: INOVEN_clean_sbu_0, # of connection points: 6
#     Edge 12, Type (0, 1), BuildingBlock: MIFKUJ_clean_linker_0, # of connection points: 2
#     Edge 13, Type (0, 1), BuildingBlock: MIFKUJ_clean_linker_0, # of connection points: 2
#     Edge 14, Type (0, 1), BuildingBlock: MIFKUJ_clean_linker_0, # of connection points: 2
#     Edge 15, Type (0, 1), BuildingBlock: MIFKUJ_clean_linker_0, # of connection points: 2
#     Edge 16, Type (0, 1), BuildingBlock: MIFKUJ_clean_linker_0, # of connection points: 2
#     Edge 17, Type (0, 1), BuildingBlock: MIFKUJ_clean_linker_0, # of connection points: 2
#     Edge 18, Type (0, 1), BuildingBlock: MIFKUJ_clean_linker_0, # of connection points: 2
#     Edge 19, Type (0, 1), BuildingBlock: MIFKUJ_clean_linker_0, # of connection points: 2
#     Edge 20, Type (0, 1), BuildingBlock: MIFKUJ_clean_linker_0, # of connection points: 2
#     Edge 21, Type (0, 1), BuildingBlock: MIFKUJ_clean_linker_0, # of connection points: 2
#     Edge 22, Type (0, 1), BuildingBlock: MIFKUJ_clean_linker_0, # of connection points: 2
#     Edge 23, Type (0, 1), BuildingBlock: MIFKUJ_clean_linker_0, # of connection points: 2
#     Edge 24, Type (0, 1), BuildingBlock: MIFKUJ_clean_linker_0, # of connection points: 2
#     Edge 25, Type (0, 1), BuildingBlock: MIFKUJ_clean_linker_0, # of connection points: 2
#     Edge 26, Type (0, 1), BuildingBlock: MIFKUJ_clean_linker_0, # of connection points: 2
#     Edge 27, Type (0, 1), BuildingBlock: MIFKUJ_clean_linker_0, # of connection points: 2
#     Edge 28, Type (0, 1), BuildingBlock: MIFKUJ_clean_linker_0, # of connection points: 2
#     Edge 29, Type (0, 1), BuildingBlock: MIFKUJ_clean_linker_0, # of connection points: 2
#     Edge 30, Type (0, 1), BuildingBlock: MIFKUJ_clean_linker_0, # of connection points: 2
#     Edge 31, Type (0, 1), BuildingBlock: MIFKUJ_clean_linker_0, # of connection points: 2
#     Edge 32, Type (0, 1), BuildingBlock: MIFKUJ_clean_linker_0, # of connection points: 2
#     Edge 33, Type (0, 1), BuildingBlock: MIFKUJ_clean_linker_0, # of connection points: 2
#     Edge 34, Type (0, 1), BuildingBlock: MIFKUJ_clean_linker_0, # of connection points: 2
#     Edge 35, Type (0, 1), BuildingBlock: MIFKUJ_clean_linker_0, # of connection points: 2
# Relax obj value: 0.211
# Max RMSD: 0.175
# Mean RMSD: 0.166
data_MOF--net-zzz--node1-OLANEW_clean_sbu_2--node2-INOVEN_clean_sbu_0--edge1-MIFKUJ_clean_linker_0
_symmetry_space_group_name_H-M    P1
_symmetry_Int_Tables_number       1
_symmetry_cell_setting            triclinic
loop_
_symmetry_equiv_pos_as_xyz
'x, y, z'
_cell_length_a     71.684622
_cell_length_b     71.669799
_cell_length_c     19.467614
_cell_angle_alpha  89.980896
_cell_angle_beta   89.800666
_cell_angle_gamma 89.986806
loop_
_atom_site_label
_atom_site_type_symbol
_atom_site_fract_x
_atom_site_fract_y
_atom_site_fract_z
_atom_type_partial_charge
O0 O 0.73798 0.5586 0.1388 0.0
Cd1 Cd 0.70951 0.57126 0.19085 0.0
O2 O 0.74105 0.543 0.23462 0.0
Cd3 Cd 0.75506 0.52473 0.30794 0.0
O4 O 0.78093 0.51975 0.36268 0.0
C5 C 0.78365 0.51008 0.41636 0.0
O6 O 0.76968 0.50106 0.44487 0.0
C7 C 0.74753 0.54764 0.17602 0.0
C8 C 0.67682 0.55965 0.12695 0.0
O9 O 0.68531 0.5745 0.10755 0.0
O10 O 0.68389 0.5502 0.17636 0.0
O11 O 0.9599 0.74537 0.19672 0.0
Cd12 Cd 0.94931 0.71701 0.25407 0.0
O13 O 0.98595 0.74321 0.2545 0.0
Cd14 Cd 0.01308 0.75241 0.29293 0.0
O15 O 0.0239 0.77494 0.3562 0.0
C16 C 0.01387 0.77828 0.40868 0.0
O17 O 0.99996 0.76695 0.42277 0.0
C18 C 0.97572 0.7521 0.21226 0.0
C19 C 0.95906 0.68535 0.17996 0.0
O20 O 0.94377 0.69403 0.1682 0.0
O21 O 0.96977 0.69163 0.2272 0.0
O22 O 0.76888 0.975 0.19813 0.0
Cd23 Cd 0.7984 0.96841 0.25493 0.0
O24 O 0.76684 1.00104 0.25669 0.0
Cd25 Cd 0.74997 0.02377 0.29771 0.0
O26 O 0.72227 0.0308 0.33477 0.0
C27 C 0.71946 0.03362 0.39833 0.0
O28 O 0.7338 0.0339 0.44018 0.0
C29 C 0.75996 0.98975 0.21317 0.0
C30 C 0.82828 0.97442 0.16643 0.0
O31 O 0.81984 0.95867 0.1682 0.0
O32 O 0.82264 0.98735 0.20699 0.0
O33 O 0.54906 0.76256 0.19119 0.0
Cd34 Cd 0.55635 0.79108 0.25392 0.0
O35 O 0.52384 0.76166 0.25422 0.0
Cd36 Cd 0.50086 0.74797 0.3074 0.0
O37 O 0.4955 0.72787 0.38837 0.0
C38 C 0.50895 0.72609 0.43019 0.0
O39 O 0.52359 0.73697 0.42299 0.0
C40 C 0.53418 0.75418 0.20866 0.0
C41 C 0.54544 0.82266 0.18194 0.0
O42 O 0.56192 0.81594 0.17531 0.0
O43 O 0.53409 0.81442 0.22297 0.0
O44 O 0.2698 0.5417 0.0806 0.0
Cd45 Cd 0.30087 0.54847 0.03586 0.0
O46 O 0.27129 0.51314 0.04047 0.0
Cd47 Cd 0.25966 0.48537 0.02493 0.0
O48 O 0.2369 0.46863 0.98534 0.0
C49 C 0.2353 0.46783 0.92048 0.0
O50 O 0.24852 0.47517 0.88213 0.0
C51 C 0.26229 0.52583 0.07199 0.0
C52 C 0.32767 0.53981 0.13373 0.0
O53 O 0.31948 0.5557 0.13362 0.0
O54 O 0.32332 0.52802 0.08694 0.0
O55 O 0.98241 0.27769 0.13358 0.0
Cd56 Cd 0.98132 0.30705 0.0703 0.0
O57 O 0.00613 0.27327 0.06494 0.0
Cd58 Cd 0.02866 0.25741 0.01805 0.0
O59 O 0.03818 0.23533 0.95052 0.0
C60 C 0.02658 0.23087 0.90421 0.0
O61 O 0.01093 0.24033 0.8994 0.0
C62 C 0.99536 0.26714 0.11185 0.0
C63 C 0.99498 0.33634 0.14825 0.0
O64 O 0.97739 0.33343 0.14323 0.0
O65 O 0.00614 0.32543 0.11606 0.0
O66 O 0.2472 0.99081 0.06974 0.0
Cd67 Cd 0.21662 0.9815 0.02693 0.0
O68 O 0.24946 0.01228 0.99043 0.0
Cd69 Cd 0.25974 0.0363 0.93212 0.0
O70 O 0.25842 0.06029 0.85508 0.0
C71 C 0.27017 0.06281 0.80632 0.0
O72 O 0.25783 0.06085 0.85514 0.0
C73 C 0.25644 0.00395 0.04204 0.0
C74 C 0.18889 0.98859 0.12423 0.0
O75 O 0.19843 0.97348 0.12575 0.0
O76 O 0.19238 1.00038 0.07634 0.0
O77 O 0.54111 0.23009 0.11431 0.0
Cd78 Cd 0.54201 0.20004 0.05544 0.0
O79 O 0.51673 0.23504 0.04978 0.0
Cd80 Cd 0.49343 0.25114 0.00931 0.0
O81 O 0.48055 0.27442 0.95613 0.0
C82 C 0.48088 0.27491 0.89091 0.0
O83 O 0.48783 0.26063 0.85709 0.0
C84 C 0.52811 0.24088 0.09499 0.0
C85 C 0.52991 0.17143 0.14099 0.0
O86 O 0.54733 0.17503 0.13395 0.0
O87 O 0.51821 0.18132 0.10718 0.0
Gd88 Gd 0.01707 0.00245 0.72146 0.0
Gd89 Gd 1.00071 0.01084 0.57984 0.0
C90 C 0.00558 0.96845 0.61748 0.0
C91 C 0.02291 0.98846 0.84155 0.0
C92 C 0.02035 0.96959 0.86983 0.0
C93 C 0.03336 0.96233 0.91612 0.0
C94 C 0.00546 0.95835 0.8482 0.0
C95 C 0.01625 0.93289 0.9211 0.0
C96 C 0.00349 0.94021 0.87325 0.0
C97 C 0.03139 0.94416 0.94139 0.0
C98 C 0.04236 0.00929 0.62214 0.0
C99 C 0.01405 0.04453 0.68184 0.0
C100 C 0.99332 0.02454 0.45997 0.0
C101 C 0.99553 0.04303 0.42804 0.0
C102 C 0.98407 0.04822 0.37308 0.0
C103 C 0.00844 0.05591 0.45412 0.0
C104 C 0.99795 0.07925 0.37208 0.0
C105 C 0.00957 0.07389 0.42668 0.0
C106 C 0.98533 0.06616 0.34502 0.0
C107 C 0.97586 0.0032 0.67994 0.0
O108 O 0.00787 0.97428 0.68142 0.0
O109 O 0.00445 0.9802 0.56538 0.0
O110 O 0.03604 0.99009 0.79512 0.0
O111 O 0.00766 0.99752 0.82557 0.0
O112 O 0.04458 0.01437 0.68568 0.0
O113 O 0.02756 1.00001 0.6155 0.0
O114 O 0.01177 0.03859 0.61808 0.0
O115 O 0.01398 0.03306 0.73476 0.0
O116 O 0.98105 0.02361 0.50973 0.0
O117 O 0.00873 0.01552 0.47387 0.0
O118 O 0.97388 0.99761 0.61696 0.0
O119 O 0.99022 0.01313 0.68573 0.0
H120 H 0.04515 0.97067 0.93239 0.0
H121 H 0.99531 0.96357 0.81182 0.0
H122 H 0.99163 0.93219 0.856 0.0
H123 H 0.0419 0.93895 0.97623 0.0
H124 H 0.97398 0.03848 0.35248 0.0
H125 H 0.01756 0.05212 0.49597 0.0
H126 H 0.01958 0.0836 0.44801 0.0
H127 H 0.97611 0.06994 0.30331 0.0
Gd128 Gd 0.50221 0.01021 0.76061 0.0
Gd129 Gd 0.49247 0.99389 0.61824 0.0
C130 C 0.53543 0.99826 0.65177 0.0
C131 C 0.51704 0.015 0.88008 0.0
C132 C 0.53639 0.01407 0.90539 0.0
C133 C 0.54225 0.0259 0.95843 0.0
C134 C 0.54928 0.00173 0.8755 0.0
C135 C 0.57369 0.01297 0.95169 0.0
C136 C 0.56774 1.00126 0.89807 0.0
C137 C 0.56073 0.02534 0.98153 0.0
C138 C 0.49625 0.03518 0.65985 0.0
C139 C 0.45955 0.00761 0.72459 0.0
C140 C 0.47998 0.98844 0.49531 0.0
C141 C 0.46316 0.99311 0.45609 0.0
C142 C 0.46119 0.98657 0.3887 0.0
C143 C 0.44923 0.00444 0.48481 0.0
C144 C 0.43118 0.00225 0.37957 0.0
C145 C 0.43327 0.00884 0.44712 0.0
C146 C 0.44535 0.99118 0.35051 0.0
C147 C 0.4998 0.96898 0.71744 0.0
O148 O 0.5304 0.00195 0.71595 0.0
O149 O 0.5231 0.99599 0.60236 0.0
O150 O 0.5133 0.02883 0.8384 0.0
O151 O 0.50972 0.99916 0.86014 0.0
O152 O 0.49136 0.03823 0.72331 0.0
O153 O 0.50469 0.01992 0.65473 0.0
O154 O 0.46498 0.00501 0.66003 0.0
O155 O 0.47152 0.00793 0.776 0.0
O156 O 0.47788 0.97635 0.54526 0.0
O157 O 0.49049 0.00262 0.51231 0.0
O158 O 0.50463 0.96645 0.65371 0.0
O159 O 0.49057 0.98377 0.7242 0.0
H160 H 0.53252 0.03553 0.98214 0.0
H161 H 0.54512 0.99241 0.83458 0.0
H162 H 0.57735 0.99172 0.87332 0.0
H163 H 0.56477 0.03436 0.02356 0.0
H164 H 0.4719 0.97791 0.36562 0.0
H165 H 0.45077 0.00996 0.53612 0.0
H166 H 0.42266 0.01757 0.47045 0.0
H167 H 0.44402 0.98583 0.29873 0.0
Gd168 Gd 0.49827 0.50283 0.72239 0.0
Gd169 Gd 0.50982 0.49496 0.57247 0.0
C170 C 0.51078 0.53706 0.62059 0.0
C171 C 0.4979 0.51569 0.84616 0.0
C172 C 0.49957 0.53465 0.87487 0.0
C173 C 0.48989 0.54973 0.8457 0.0
C174 C 0.51177 0.53793 0.92972 0.0
C175 C 0.50429 0.57105 0.92696 0.0
C176 C 0.51417 0.55599 0.95544 0.0
C177 C 0.49214 0.56774 0.87181 0.0
C178 C 0.47026 0.50231 0.6306 0.0
C179 C 0.49601 0.46098 0.67486 0.0
C180 C 0.51199 0.48285 0.4476 0.0
C181 C 0.51172 0.46415 0.41626 0.0
C182 C 0.5236 0.46008 0.36085 0.0
C183 C 0.5005 0.44993 0.4439 0.0
C184 C 0.51381 0.42758 0.3638 0.0
C185 C 0.50171 0.43174 0.41851 0.0
C186 C 0.52451 0.44195 0.33434 0.0
C187 C 0.53773 0.49701 0.66385 0.0
O188 O 0.50939 0.53051 0.68399 0.0
O189 O 0.50881 0.52615 0.56628 0.0
O190 O 0.48269 0.51195 0.81174 0.0
O191 O 0.51296 0.50917 0.81664 0.0
O192 O 0.46834 0.49661 0.69361 0.0
O193 O 0.48623 0.50907 0.62133 0.0
O194 O 0.49849 0.46729 0.61142 0.0
O195 O 0.49761 0.47188 0.72917 0.0
O196 O 0.52666 0.48661 0.48496 0.0
O197 O 0.4964 0.48854 0.47591 0.0
O198 O 0.53903 0.50327 0.60144 0.0
O199 O 0.52218 0.48924 0.67326 0.0
H200 H 0.4807 0.54766 0.8023 0.0
H201 H 0.51956 0.52652 0.95235 0.0
H202 H 0.52359 0.55814 -0.00189 0.0
H203 H 0.48459 0.57914 0.84814 0.0
H204 H 0.53237 0.47085 0.33883 0.0
H205 H 0.49095 0.45285 0.48565 0.0
H206 H 0.49315 0.42092 0.44142 0.0
H207 H 0.53395 0.43903 0.29209 0.0
Gd208 Gd 0.00527 0.49612 0.75895 0.0
Gd209 Gd 0.01665 0.51409 0.62033 0.0
C210 C 0.97353 0.50896 0.64675 0.0
C211 C 0.98852 0.48986 0.87431 0.0
C212 C 0.96898 0.49212 0.89663 0.0
C213 C 0.96172 0.48094 0.94938 0.0
C214 C 0.95727 0.50505 0.86396 0.0
C215 C 0.9313 0.4959 0.93759 0.0
C216 C 0.9386 0.50675 0.88356 0.0
C217 C 0.94308 0.48286 0.96993 0.0
C218 C 0.01437 0.47229 0.65816 0.0
C219 C 0.04829 0.49932 0.72988 0.0
C220 C 0.03095 0.52153 0.50111 0.0
C221 C 0.0487 0.51878 0.46458 0.0
C222 C 0.05073 0.52552 0.39742 0.0
C223 C 0.06367 0.50961 0.49611 0.0
C224 C 0.08283 0.51449 0.39427 0.0
C225 C 0.08068 0.50762 0.46151 0.0
C226 C 0.06765 0.52333 0.36236 0.0
C227 C 0.00682 0.53783 0.72099 0.0
O228 O 0.97788 0.50463 0.71077 0.0
O229 O 0.98627 0.51171 0.59881 0.0
O230 O 0.99149 0.47684 0.82844 0.0
O231 O 0.99762 0.50531 0.8611 0.0
O232 O 0.018 0.469 0.72248 0.0
O233 O 0.00518 0.48713 0.65157 0.0
O234 O 0.04379 0.50343 0.66554 0.0
O235 O 0.0357 0.49793 0.77932 0.0
O236 O 0.03125 0.53322 0.55281 0.0
O237 O 0.02135 0.50639 0.51418 0.0
O238 O 0.00311 0.54078 0.65663 0.0
O239 O 0.01645 0.52329 0.72796 0.0
H240 H 0.97049 0.47076 0.97478 0.0
H241 H 0.96257 0.51401 0.82368 0.0
H242 H 0.93011 0.5171 0.85791 0.0
H243 H 0.93787 0.47405 0.01092 0.0
H244 H 0.03926 0.53255 0.37219 0.0
H245 H 0.0622 0.50402 0.5474 0.0
H246 H 0.09208 0.50055 0.48699 0.0
H247 H 0.06895 0.52883 0.31074 0.0
H248 H 0.16104 0.01466 0.1195 0.0
H249 H 0.13642 0.02 0.20452 0.0
H250 H 0.15956 0.97665 0.33253 0.0
H251 H 0.1837 0.97076 0.2465 0.0
H252 H 0.12429 0.97258 0.32959 0.0
H253 H 0.16445 0.02498 0.36808 0.0
H254 H 0.18256 0.05302 0.33718 0.0
H255 H 0.13246 0.08044 0.27122 0.0
H256 H 0.11407 0.05246 0.30092 0.0
H257 H 0.07719 0.02435 0.63325 0.0
H258 H 0.10245 0.02286 0.54818 0.0
H259 H 0.06544 0.99557 0.40562 0.0
H260 H 0.04049 0.99633 0.49118 0.0
H261 H 0.10858 0.0353 0.42097 0.0
H262 H 0.08837 0.96203 0.32065 0.0
H263 H 0.07201 0.93387 0.36207 0.0
H264 H 0.08649 0.94752 0.56991 0.0
H265 H 0.10315 0.97559 0.52965 0.0
C266 C 0.16089 0.00631 0.16589 0.0
C267 C 0.17429 0.99227 0.17631 0.0
C268 C 0.14687 0.00945 0.21467 0.0
C269 C 0.14624 0.99889 0.27548 0.0
C270 C 0.15971 0.98496 0.28603 0.0
C271 C 0.17353 0.98162 0.23684 0.0
C272 C 0.13122 0.00186 0.32719 0.0
C273 C 0.12091 0.98632 0.34949 0.0
C274 C 0.12688 0.01973 0.35408 0.0
C275 C 0.13791 0.03656 0.33612 0.0
C276 C 0.15731 0.03694 0.3465 0.0
C277 C 0.16763 0.05283 0.32929 0.0
C278 C 0.15867 0.06848 0.30209 0.0
C279 C 0.13938 0.06829 0.2922 0.0
C280 C 0.129 0.05243 0.30928 0.0
C281 C 0.07445 0.01816 0.58354 0.0
C282 C 0.05696 0.01032 0.56889 0.0
C283 C 0.08884 0.0174 0.53492 0.0
C284 C 0.08591 0.00883 0.47101 0.0
C285 C 0.06812 0.00193 0.45508 0.0
C286 C 0.05383 0.0025 0.50384 0.0
C287 C 0.10168 0.00607 0.42254 0.0
C288 C 0.11204 0.02161 0.40085 0.0
C289 C 0.10642 0.98813 0.39753 0.0
C290 C 0.09686 0.971 0.42212 0.0
C291 C 0.08815 0.95896 0.37514 0.0
C292 C 0.0788 0.94303 0.39843 0.0
C293 C 0.07816 0.93894 0.46859 0.0
C294 C 0.08694 0.95073 0.5156 0.0
C295 C 0.09633 0.96666 0.49257 0.0
H296 H 0.07088 0.92663 0.48653 0.0
H297 H 0.16668 0.08077 0.28881 0.0
H298 H 0.5506 0.1432 0.19564 0.0
H299 H 0.54029 0.11926 0.27697 0.0
H300 H 0.48471 0.14226 0.27493 0.0
H301 H 0.49482 0.16613 0.19257 0.0
H302 H 0.50123 0.13647 0.40959 0.0
H303 H 0.48984 0.10341 0.19802 0.0
H304 H 0.49817 0.09091 0.08396 0.0
H305 H 0.54217 0.05849 0.17381 0.0
H306 H 0.53429 0.07101 0.28828 0.0
H307 H 0.4719 0.06408 0.63844 0.0
H308 H 0.47275 0.0867 0.54348 0.0
H309 H 0.52284 0.06055 0.4656 0.0
H310 H 0.52126 0.03749 0.55672 0.0
H311 H 0.50381 0.06843 0.36436 0.0
H312 H 0.52112 0.10367 0.56566 0.0
H313 H 0.51692 0.11666 0.68204 0.0
H314 H 0.46754 0.14539 0.6162 0.0
H315 H 0.47134 0.13239 0.49957 0.0
C316 C 0.53615 0.14309 0.21212 0.0
C317 C 0.52352 0.15654 0.18786 0.0
C318 C 0.53028 0.12938 0.25829 0.0
C319 C 0.51174 0.129 0.28148 0.0
C320 C 0.49906 0.14234 0.25728 0.0
C321 C 0.50485 0.1559 0.21023 0.0
C322 C 0.50595 0.11517 0.33362 0.0
C323 C 0.50142 0.12157 0.39963 0.0
C324 C 0.50679 0.0958 0.32066 0.0
C325 C 0.51154 0.08826 0.25173 0.0
C326 C 0.50139 0.09374 0.1934 0.0
C327 C 0.50602 0.08662 0.12867 0.0
C328 C 0.52071 0.07394 0.12162 0.0
C329 C 0.5308 0.06832 0.17932 0.0
C330 C 0.52624 0.07541 0.24416 0.0
C331 C 0.48301 0.06327 0.60071 0.0
C332 C 0.49652 0.04917 0.60474 0.0
C333 C 0.48357 0.0762 0.54671 0.0
C334 C 0.49805 0.07556 0.49765 0.0
C335 C 0.51148 0.06137 0.50224 0.0
C336 C 0.51061 0.04822 0.55466 0.0
C337 C 0.49967 0.08962 0.4417 0.0
C338 C 0.50336 0.0833 0.37462 0.0
C339 C 0.4987 0.10908 0.45424 0.0
C340 C 0.49638 0.11688 0.52424 0.0
C341 C 0.50929 0.11265 0.57619 0.0
C342 C 0.507 0.12003 0.64214 0.0
C343 C 0.49193 0.13179 0.65656 0.0
C344 C 0.47917 0.13624 0.60499 0.0
C345 C 0.48139 0.12888 0.53897 0.0
H346 H 0.49018 0.13749 0.70765 0.0
H347 H 0.52425 0.06843 0.07147 0.0
H348 H 0.3528 0.51111 0.1331 0.0
H349 H 0.37604 0.50379 0.22068 0.0
H350 H 0.35675 0.55026 0.34275 0.0
H351 H 0.33402 0.55808 0.25417 0.0
H352 H 0.39239 0.55019 0.34312 0.0
H353 H 0.34595 0.50335 0.38216 0.0
H354 H 0.32473 0.47762 0.35139 0.0
H355 H 0.37154 0.44386 0.29163 0.0
H356 H 0.39303 0.46948 0.32121 0.0
H357 H 0.43361 0.49261 0.64683 0.0
H358 H 0.40812 0.49804 0.56533 0.0
H359 H 0.44744 0.52089 0.4195 0.0
H360 H 0.47261 0.51636 0.50153 0.0
H361 H 0.39995 0.48654 0.43957 0.0
H362 H 0.42892 0.55645 0.33411 0.0
H363 H 0.4487 0.58248 0.37349 0.0
H364 H 0.43297 0.57138 0.58256 0.0
H365 H 0.4129 0.54546 0.54436 0.0
C366 C 0.35351 0.51975 0.17868 0.0
C367 C 0.34159 0.53517 0.18681 0.0
C368 C 0.36672 0.51548 0.22891 0.0
C369 C 0.36797 0.5263 0.28888 0.0
C370 C 0.35606 0.54171 0.29697 0.0
C371 C 0.34305 0.54615 0.24632 0.0
C372 C 0.38204 0.52195 0.34239 0.0
C373 C 0.39397 0.53627 0.36426 0.0
C374 C 0.38397 0.50386 0.37094 0.0
C375 C 0.37108 0.4884 0.35337 0.0
C376 C 0.35171 0.49049 0.36202 0.0
C377 C 0.33964 0.47591 0.34486 0.0
C378 C 0.34678 0.45913 0.31942 0.0
C379 C 0.36602 0.45687 0.31127 0.0
C380 C 0.37816 0.47141 0.3283 0.0
C381 C 0.43675 0.49874 0.59726 0.0
C382 C 0.45504 0.50412 0.58047 0.0
C383 C 0.42223 0.50176 0.55071 0.0
C384 C 0.42584 0.51015 0.48679 0.0
C385 C 0.44426 0.51476 0.46904 0.0
C386 C 0.45867 0.512 0.51576 0.0
C387 C 0.41037 0.51472 0.43933 0.0
C388 C 0.39824 0.50046 0.41854 0.0
C389 C 0.40793 0.53297 0.413 0.0
C390 C 0.41953 0.54891 0.43635 0.0
C391 C 0.42959 0.55964 0.38843 0.0
C392 C 0.44088 0.57436 0.41057 0.0
C393 C 0.44214 0.57854 0.4805 0.0
C394 C 0.43203 0.56808 0.52842 0.0
C395 C 0.4207 0.55337 0.50656 0.0
H396 H 0.45093 0.5899 0.49754 0.0
H397 H 0.33741 0.44786 0.30616 0.0
H398 H 0.0292 0.33887 0.20852 0.0
H399 H 0.03992 0.363 0.28866 0.0
H400 H 0.98785 0.39235 0.26429 0.0
H401 H 0.97682 0.36808 0.18587 0.0
H402 H 0.02434 0.415 0.26294 0.0
H403 H 0.98799 0.36768 0.39046 0.0
H404 H 0.98221 0.33517 0.42646 0.0
H405 H 0.03761 0.33178 0.50879 0.0
H406 H 0.04378 0.36421 0.47232 0.0
H407 H 0.99886 0.47284 0.53185 0.0
H408 H 0.00355 0.45068 0.43894 0.0
H409 H 0.04423 0.42115 0.56094 0.0
H410 H 0.03887 0.44308 0.65591 0.0
H411 H 0.02213 0.39743 0.50947 0.0
H412 H 0.05685 0.446 0.40881 0.0
H413 H 0.06511 0.47776 0.37129 0.0
H414 H 0.01759 0.47889 0.23776 0.0
H415 H 0.00899 0.4471 0.27459 0.0
C416 C 0.02014 0.35059 0.21968 0.0
C417 C 0.00214 0.35158 0.19151 0.0
C418 C 0.02629 0.36433 0.26523 0.0
C419 C 0.01465 0.37939 0.2819 0.0
C420 C 0.99702 0.38084 0.25149 0.0
C421 C 0.99071 0.36693 0.20721 0.0
C422 C 0.02 0.39282 0.33565 0.0
C423 C 0.02391 0.41128 0.31695 0.0
C424 C 0.02021 0.38763 0.40558 0.0
C425 C 0.01642 0.36824 0.4279 0.0
C426 C 0.99899 0.35993 0.41565 0.0
C427 C 0.99563 0.34154 0.43626 0.0
C428 C 0.00956 0.33139 0.46967 0.0
C429 C 0.02685 0.33964 0.48276 0.0
C430 C 0.03029 0.35802 0.46215 0.0
C431 C 0.00898 0.46176 0.53857 0.0
C432 C 0.01846 0.45957 0.60094 0.0
C433 C 0.01181 0.44918 0.48509 0.0
C434 C 0.02454 0.43441 0.49219 0.0
C435 C 0.03441 0.43248 0.55411 0.0
C436 C 0.03133 0.44495 0.60827 0.0
C437 C 0.0259 0.42006 0.43745 0.0
C438 C 0.02318 0.40129 0.45571 0.0
C439 C 0.02723 0.42496 0.36704 0.0
C440 C 0.03224 0.44415 0.34471 0.0
C441 C 0.04809 0.45305 0.37177 0.0
C442 C 0.05284 0.47107 0.35057 0.0
C443 C 0.04185 0.48038 0.30234 0.0
C444 C 0.0261 0.47166 0.2751 0.0
C445 C 0.02131 0.4536 0.29592 0.0
H446 H 0.04557 0.49431 0.28585 0.0
H447 H 0.00694 0.31716 0.48561 0.0
H448 H 0.85239 0.00398 0.16363 0.0
H449 H 0.87866 0.00886 0.08527 0.0
H450 H 0.86572 0.95719 0.98213 0.0
H451 H 0.83982 0.95194 0.06155 0.0
H452 H 0.90162 0.95943 0.00348 0.0
H453 H 0.85512 1.00094 0.91235 0.0
H454 H 0.83207 0.02646 0.9168 0.0
H455 H 0.87499 0.06494 0.97617 0.0
H456 H 0.89827 0.03958 0.97294 0.0
H457 H 0.94945 0.97597 0.68449 0.0
H458 H 0.92646 0.97034 0.77584 0.0
H459 H 0.94947 0.01588 0.89288 0.0
H460 H 0.97276 0.0213 0.80237 0.0
H461 H 0.90972 0.01756 0.86835 0.0
H462 H 0.95509 0.97633 0.96994 0.0
H463 H 0.97758 0.95047 0.98087 0.0
H464 H 0.93685 0.91209 0.90267 0.0
H465 H 0.91395 0.9377 0.8931 0.0
C466 C 0.85513 0.99368 0.12416 0.0
C467 C 0.84403 0.97758 0.11871 0.0
C468 C 0.87009 0.99654 0.07917 0.0
C469 C 0.87402 0.98352 0.02719 0.0
C470 C 0.86295 0.96743 0.0218 0.0
C471 C 0.84813 0.96446 0.06718 0.0
C472 C 0.88993 0.98634 0.9794 0.0
C473 C 0.9032 0.97204 0.97317 0.0
C474 C 0.89236 0.00304 0.94146 0.0
C475 C 0.8784 0.01832 0.94305 0.0
C476 C 0.85962 0.01481 0.92683 0.0
C477 C 0.84652 0.02926 0.92906 0.0
C478 C 0.85205 0.0473 0.94693 0.0
C479 C 0.87072 0.05095 0.96242 0.0
C480 C 0.88387 0.03655 0.96034 0.0
C481 C 0.94969 0.98464 0.73005 0.0
C482 C 0.96273 0.99915 0.73636 0.0
C483 C 0.93667 0.98135 0.78226 0.0
C484 C 0.93634 0.99268 0.84102 0.0
C485 C 0.94957 0.00697 0.84794 0.0
C486 C 0.96281 0.01005 0.79631 0.0
C487 C 0.92119 0.99057 0.89217 0.0
C488 C 0.90806 0.00498 0.89876 0.0
C489 C 0.91882 0.97399 0.93033 0.0
C490 C 0.93293 0.95893 0.93005 0.0
C491 C 0.95104 0.96242 0.9542 0.0
C492 C 0.96379 0.94778 0.96071 0.0
C493 C 0.95868 0.92966 0.94217 0.0
C494 C 0.9408 0.92614 0.91697 0.0
C495 C 0.92789 0.94068 0.91136 0.0
H496 H 0.96854 0.91832 0.94758 0.0
H497 H 0.84189 0.05846 0.94863 0.0
H498 H 0.51083 0.83876 0.17729 0.0
H499 H 0.50123 0.86579 0.10909 0.0
H500 H 0.55724 0.8711 0.02969 0.0
H501 H 0.56698 0.84423 0.09782 0.0
H502 H 0.5423 0.90481 0.06706 0.0
H503 H 0.52394 0.85046 0.93547 0.0
H504 H 0.50742 0.8207 0.91742 0.0
H505 H 0.45499 0.84772 0.95679 0.0
H506 H 0.47125 0.87761 0.97599 0.0
H507 H 0.52846 0.94431 0.72605 0.0
H508 H 0.53469 0.92224 0.8198 0.0
H509 H 0.48581 0.94182 0.92744 0.0
H510 H 0.48 0.96453 0.83543 0.0
H511 H 0.49396 0.89774 0.88718 0.0
H512 H 0.51212 0.9529 0.00844 0.0
H513 H 0.52867 0.98221 0.03343 0.0
H514 H 0.5812 0.95363 0.02001 0.0
H515 H 0.56503 0.92437 0.99139 0.0
C516 C 0.52112 0.84573 0.14552 0.0
C517 C 0.53965 0.83931 0.14264 0.0
C518 C 0.51559 0.86114 0.10653 0.0
C519 C 0.5285 0.87033 0.06403 0.0
C520 C 0.54708 0.86419 0.06225 0.0
C521 C 0.55259 0.84878 0.10098 0.0
C522 C 0.52269 0.88608 0.01991 0.0
C523 C 0.53181 0.90327 0.02744 0.0
C524 C 0.50859 0.88415 0.96974 0.0
C525 C 0.49882 0.86621 0.95796 0.0
C526 C 0.5089 0.85002 0.94084 0.0
C527 C 0.49958 0.83313 0.9303 0.0
C528 C 0.48017 0.8323 0.93617 0.0
C529 C 0.47003 0.84837 0.9524 0.0
C530 C 0.47929 0.86529 0.96308 0.0
C531 C 0.51918 0.94398 0.77007 0.0
C532 C 0.50376 0.95599 0.77383 0.0
C533 C 0.52278 0.9315 0.8235 0.0
C534 C 0.51079 0.93063 0.88048 0.0
C535 C 0.49531 0.94252 0.88411 0.0
C536 C 0.492 0.95539 0.83165 0.0
C537 C 0.51386 0.91632 0.93356 0.0
C538 C 0.50428 0.89936 0.92741 0.0
C539 C 0.5275 0.9185 0.98507 0.0
C540 C 0.53733 0.93646 -0.00354 0.0
C541 C 0.52722 0.95296 0.00863 0.0
C542 C 0.53654 0.96958 0.02382 0.0
C543 C 0.55597 0.9698 0.02823 0.0
C544 C 0.56615 0.9535 0.01616 0.0
C545 C 0.55691 0.9369 0.00013 0.0
H546 H 0.56312 0.98256 0.0417 0.0
H547 H 0.47298 0.81922 0.92798 0.0
H548 H 0.65859 0.57672 0.02119 0.0
H549 H 0.63119 0.56554 0.95968 0.0
H550 H 0.62833 0.51758 0.09335 0.0
H551 H 0.65595 0.52857 0.15467 0.0
H552 H 0.62645 0.50696 0.96561 0.0
H553 H 0.59525 0.55196 0.09951 0.0
H554 H 0.5873 0.58198 0.15385 0.0
H555 H 0.57893 0.60667 0.95539 0.0
H556 H 0.58728 0.57694 0.89964 0.0
H557 H 0.5422 0.48001 0.78796 0.0
H558 H 0.56289 0.48983 0.88176 0.0
H559 H 0.58213 0.53604 0.75846 0.0
H560 H 0.56173 0.52621 0.66472 0.0
H561 H 0.57193 0.54531 0.89775 0.0
H562 H 0.60874 0.49998 0.76824 0.0
H563 H 0.6143 0.46885 0.71829 0.0
H564 H 0.60938 0.44399 0.91828 0.0
H565 H 0.60354 0.47499 0.96927 0.0
C566 C 0.65204 0.56388 0.03798 0.0
C567 C 0.65952 0.55347 0.09253 0.0
C568 C 0.63626 0.55758 0.00312 0.0
C569 C 0.62757 0.54081 0.02233 0.0
C570 C 0.63477 0.53059 0.07777 0.0
C571 C 0.65057 0.53688 0.11269 0.0
C572 C 0.61214 0.53316 0.98029 0.0
C573 C 0.61434 0.51524 0.95209 0.0
C574 C 0.59635 0.54398 0.96211 0.0
C575 C 0.59211 0.56219 -0.0047 0.0
C576 C 0.59201 0.56385 0.06732 0.0
C577 C 0.58737 0.58082 0.09841 0.0
C578 C 0.58266 0.59624 0.05809 0.0
C579 C 0.58263 0.59473 0.98656 0.0
C580 C 0.58733 0.57782 0.95519 0.0
C581 C 0.55094 0.4922 0.78106 0.0
C582 C 0.55051 0.50233 0.71934 0.0
C583 C 0.56266 0.4978 0.83448 0.0
C584 C 0.57396 0.51366 0.82681 0.0
C585 C 0.57344 0.52381 0.76528 0.0
C586 C 0.56193 0.51809 0.71168 0.0
C587 C 0.58674 0.51958 0.88199 0.0
C588 C 0.58397 0.53708 0.9125 0.0
C589 C 0.60186 0.50835 0.90303 0.0
C590 C 0.60548 0.48976 0.8724 0.0
C591 C 0.60868 0.48786 0.80145 0.0
C592 C 0.61192 0.47024 0.77298 0.0
C593 C 0.61213 0.45444 0.81505 0.0
C594 C 0.60917 0.45624 0.88573 0.0
C595 C 0.60591 0.47382 0.91444 0.0
H596 H 0.61465 0.44082 0.79292 0.0
H597 H 0.57898 0.60933 0.08228 0.0
H598 H 0.9883 0.6615 0.20161 0.0
H599 H 0.99666 0.6339 0.13425 0.0
H600 H 0.9501 0.64413 -0.00058 0.0
H601 H 0.94139 0.67138 0.06741 0.0
H602 H 0.95196 0.60843 0.03038 0.0
H603 H 0.99594 0.65539 0.95529 0.0
H604 H 0.0207 0.67891 0.97061 0.0
H605 H 0.05677 0.63716 0.05623 0.0
H606 H 0.03212 0.61343 0.04223 0.0
H607 H 0.97914 0.56367 0.71979 0.0
H608 H 0.97056 0.58533 0.81198 0.0
H609 H 0.01309 0.56158 0.94153 0.0
H610 H 0.02149 0.53958 0.84977 0.0
H611 H 0.01469 0.60137 0.92508 0.0
H612 H 0.97116 0.5549 0.0037 0.0
H613 H 0.94588 0.53165 -0.00142 0.0
H614 H 0.90968 0.57215 0.9058 0.0
H615 H 0.93465 0.59582 0.91232 0.0
C616 C 0.97985 0.65785 0.15762 0.0
C617 C 0.96421 0.66864 0.1397 0.0
C618 C 0.98468 0.64212 0.11903 0.0
C619 C 0.97413 0.63708 0.06131 0.0
C620 C 0.95843 0.64775 0.04378 0.0
C621 C 0.9535 0.66336 0.0826 0.0
C622 C 0.97927 0.62066 0.01894 0.0
C623 C 0.96564 0.60701 0.00686 0.0
C624 C 0.9973 0.61844 0.99013 0.0
C625 C 0.01212 0.63269 -0.00155 0.0
C626 C 0.0091 0.65126 0.9779 0.0
C627 C 0.02312 0.66462 0.98625 0.0
C628 C 0.04027 0.65954 0.01457 0.0
C629 C 0.04346 0.64108 0.03442 0.0
C630 C 0.02948 0.62767 0.02626 0.0
C631 C 0.98652 0.56296 0.7682 0.0
C632 C 1.00103 0.5501 0.77776 0.0
C633 C 0.98153 0.57522 0.82089 0.0
C634 C 0.99115 0.57495 0.88353 0.0
C635 C 0.00547 0.5619 0.8936 0.0
C636 C 0.01024 0.5494 0.84128 0.0
C637 C 0.98725 0.58945 0.93561 0.0
C638 C 1.0011 0.60275 0.9493 0.0
C639 C 0.96944 0.5914 0.96584 0.0
C640 C 0.9548 0.57703 0.95782 0.0
C641 C 0.95787 0.55877 0.98151 0.0
C642 C 0.94357 0.54556 0.97874 0.0
C643 C 0.92623 0.55037 0.95122 0.0
C644 C 0.92315 0.56843 0.92676 0.0
C645 C 0.93732 0.58179 0.93049 0.0
H646 H 0.91512 0.54019 0.94949 0.0
H647 H 0.05111 0.6699 0.02098 0.0
H648 H 0.00352 0.23548 0.0402 0.0
H649 H 0.00579 0.20361 0.08441 0.0
H650 H 0.99282 0.22347 0.28817 0.0
H651 H 0.99075 0.25552 0.24402 0.0
H652 H 0.02305 0.19661 0.28129 0.0
H653 H 0.95935 0.20472 0.20277 0.0
H654 H 0.93556 0.21301 0.11679 0.0
H655 H 0.95701 0.17109 0.98015 0.0
H656 H 0.98109 0.16271 0.06505 0.0
H657 H 0.99871 0.11188 0.4443 0.0
H658 H 0.99959 0.14367 0.39899 0.0
H659 H 1.00014 0.12199 0.19214 0.0
H660 H 0.99881 0.09014 0.23743 0.0
H661 H 0.97736 0.14988 0.19783 0.0
H662 H 0.03972 0.14015 0.26989 0.0
H663 H 0.06505 0.13121 0.34864 0.0
H664 H 0.04928 0.17515 0.48667 0.0
H665 H 0.02355 0.18418 0.40935 0.0
C666 C 0.00164 0.23313 0.09464 0.0
C667 C 0.99734 0.24799 0.13895 0.0
C668 C 0.00272 0.21489 0.11972 0.0
C669 C 0.99949 0.2112 0.18956 0.0
C670 C 0.99546 0.22606 0.23417 0.0
C671 C 0.99419 0.2443 0.2089 0.0
C672 C 0.99951 0.19174 0.21541 0.0
C673 C 0.01294 0.18641 0.26384 0.0
C674 C 0.98672 0.17833 0.19066 0.0
C675 C 0.97211 0.18321 0.13999 0.0
C676 C 0.95907 0.19736 0.15419 0.0
C677 C 0.94552 0.20206 0.1057 0.0
C678 C 0.9448 0.19261 0.04298 0.0
C679 C 0.95759 0.17841 0.02872 0.0
C680 C 0.97118 0.17366 0.07704 0.0
C681 C 0.99916 0.11391 0.38917 0.0
C682 C 0.99877 0.09853 0.34437 0.0
C683 C 0.9997 0.13208 0.36328 0.0
C684 C 1.00021 0.13527 0.29206 0.0
C685 C 0.99974 0.11991 0.24725 0.0
C686 C 0.99898 0.10172 0.27314 0.0
C687 C 1.00087 0.15462 0.26439 0.0
C688 C 0.98755 0.15997 0.21547 0.0
C689 C 0.01403 0.16793 0.28769 0.0
C690 C 0.02956 0.16271 0.33418 0.0
C691 C 0.04153 0.14782 0.31734 0.0
C692 C 0.05596 0.14274 0.36172 0.0
C693 C 0.05868 0.15256 0.42282 0.0
C694 C 0.04704 0.16753 0.43952 0.0
C695 C 0.03255 0.17264 0.39543 0.0
H696 H 0.06986 0.14861 0.45712 0.0
H697 H 0.9343 0.19628 0.00548 0.0
H698 H 0.28641 0.02041 0.97711 0.0
H699 H 0.31712 0.02721 0.02646 0.0
H700 H 0.29898 0.00425 0.22019 0.0
H701 H 0.26813 0.99851 0.17267 0.0
H702 H 0.31978 0.03473 0.23994 0.0
H703 H 0.32312 0.97932 0.09068 0.0
H704 H 0.32159 0.96345 0.97839 0.0
H705 H 0.36413 0.99978 0.89924 0.0
H706 H 0.3655 0.01622 0.01014 0.0
H707 H 0.39516 0.9988 0.42205 0.0
H708 H 0.36689 0.00496 0.35635 0.0
H709 H 0.40034 0.02211 0.18259 0.0
H710 H 0.42874 0.01529 0.24783 0.0
H711 H 0.37399 0.00155 0.13854 0.0
H712 H 0.37483 0.0543 0.28303 0.0
H713 H 0.37775 0.07217 0.39063 0.0
H714 H 0.32949 0.04446 0.47285 0.0
H715 H 0.32642 0.02621 0.3661 0.0
C716 C 0.28877 0.01747 0.03076 0.0
C717 C 0.27474 0.00922 0.07121 0.0
C718 C 0.30642 0.02105 0.05855 0.0
C719 C 0.31041 0.01605 0.12672 0.0
C720 C 0.29624 0.00826 0.1675 0.0
C721 C 0.27863 0.00486 0.14007 0.0
C722 C 0.32947 0.01784 0.15562 0.0
C723 C 0.33165 0.02744 0.21793 0.0
C724 C 0.34519 0.00912 0.12514 0.0
C725 C 0.34418 0.99921 0.05839 0.0
C726 C 0.33196 0.98408 0.04901 0.0
C727 C 0.33111 0.97499 0.98552 0.0
C728 C 0.34262 0.98073 0.93138 0.0
C729 C 0.35505 0.99551 0.94074 0.0
C730 C 0.35584 0.00474 0.00386 0.0
C731 C 0.39646 0.00406 0.37007 0.0
C732 C 0.41411 0.00664 0.34006 0.0
C733 C 0.3803 0.00768 0.33259 0.0
C734 C 0.38143 0.0144 0.26482 0.0
C735 C 0.39909 0.01702 0.2348 0.0
C736 C 0.41529 0.01311 0.27201 0.0
C737 C 0.3641 0.0177 0.2247 0.0
C738 C 0.36228 0.00916 0.16017 0.0
C739 C 0.34881 0.02775 0.25235 0.0
C740 C 0.35046 0.03881 0.31658 0.0
C741 C 0.36489 0.05193 0.32418 0.0
C742 C 0.36657 0.06214 0.38502 0.0
C743 C 0.35383 0.05943 0.43857 0.0
C744 C 0.33935 0.04654 0.43131 0.0
C745 C 0.33761 0.03629 0.37058 0.0
H746 H 0.35516 0.06734 0.48566 0.0
H747 H 0.342 0.97365 0.88232 0.0
H748 H 0.51736 0.27297 0.03 0.0
H749 H 0.5144 0.30414 0.07935 0.0
H750 H 0.53402 0.2833 0.27412 0.0
H751 H 0.53612 0.25179 0.22555 0.0
H752 H 0.50504 0.30696 0.29188 0.0
H753 H 0.56299 0.30743 0.16741 0.0
H754 H 0.58334 0.30288 0.06639 0.0
H755 H 0.55131 0.343 0.95305 0.0
H756 H 0.53062 0.34762 0.05317 0.0
H757 H 0.52199 0.39633 0.43737 0.0
H758 H 0.52505 0.36434 0.39459 0.0
H759 H 0.51138 0.38327 0.19025 0.0
H760 H 0.50936 0.4154 0.23248 0.0
H761 H 0.53796 0.35991 0.18084 0.0
H762 H 0.47965 0.35937 0.30593 0.0
H763 H 0.45963 0.36404 0.40779 0.0
H764 H 0.492 0.32403 0.52032 0.0
H765 H 0.51244 0.31938 0.41954 0.0
C766 C 0.52048 0.27488 0.08384 0.0
C767 C 0.52645 0.25983 0.12444 0.0
C768 C 0.51914 0.2928 0.11171 0.0
C769 C 0.52409 0.29609 0.18039 0.0
C770 C 0.53007 0.28107 0.22108 0.0
C771 C 0.53136 0.26312 0.19322 0.0
C772 C 0.5233 0.31526 0.20932 0.0
C773 C 0.5124 0.31853 0.26816 0.0
C774 C 0.53265 0.3304 0.17769 0.0
C775 C 0.54517 0.32775 0.1176 0.0
C776 C 0.56022 0.31519 0.1208 0.0
C777 C 0.57182 0.31262 0.06373 0.0
C778 C 0.5686 0.32262 0.0033 0.0
C779 C 0.55378 0.33526 -0.00012 0.0
C780 C 0.54213 0.33787 0.05679 0.0
C781 C 0.51963 0.39358 0.38336 0.0
C782 C 0.51539 0.40823 0.3381 0.0
C783 C 0.52126 0.3753 0.359 0.0
C784 C 0.51807 0.37125 0.28934 0.0
C785 C 0.51389 0.38598 0.24418 0.0
C786 C 0.5127 0.40431 0.26823 0.0
C787 C 0.51941 0.35179 0.26296 0.0
C788 C 0.53051 0.34842 0.20466 0.0
C789 C 0.51018 0.33659 0.29509 0.0
C790 C 0.49767 0.33915 0.35532 0.0
C791 C 0.48256 0.35164 0.3525 0.0
C792 C 0.47114 0.35429 0.41007 0.0
C793 C 0.47457 0.34437 0.47054 0.0
C794 C 0.48937 0.33171 0.47345 0.0
C795 C 0.50088 0.32907 0.41615 0.0
H796 H 0.46575 0.34648 0.51512 0.0
H797 H 0.5776 0.3206 0.95916 0.0
H798 H 0.23309 0.50769 0.01061 0.0
H799 H 0.20174 0.50248 0.05855 0.0
H800 H 0.21771 0.53155 0.2433 0.0
H801 H 0.24893 0.53671 0.1957 0.0
H802 H 0.19938 0.49777 0.2686 0.0
H803 H 0.19345 0.55244 0.12527 0.0
H804 H 0.19365 0.57083 0.01834 0.0
H805 H 0.15191 0.53487 0.93248 0.0
H806 H 0.15198 0.51579 0.03789 0.0
H807 H 0.11733 0.52295 0.44343 0.0
H808 H 0.14712 0.52148 0.38244 0.0
H809 H 0.11913 0.50046 0.20238 0.0
H810 H 0.08915 0.50242 0.26298 0.0
H811 H 0.14279 0.5259 0.16564 0.0
H812 H 0.14708 0.47195 0.30706 0.0
H813 H 0.14539 0.45374 0.41439 0.0
H814 H 0.18878 0.48739 0.50191 0.0
H815 H 0.19056 0.50598 0.39544 0.0
C816 C 0.22995 0.51266 0.06188 0.0
C817 C 0.24348 0.5223 0.10012 0.0
C818 C 0.21202 0.50986 0.08887 0.0
C819 C 0.20744 0.5166 0.15457 0.0
C820 C 0.221 0.52616 0.19268 0.0
C821 C 0.23877 0.52916 0.16541 0.0
C822 C 0.18857 0.5139 0.18437 0.0
C823 C 0.18699 0.50396 0.24626 0.0
C824 C 0.17234 0.52146 0.15385 0.0
C825 C 0.17295 0.53247 0.08923 0.0
C826 C 0.18458 0.5482 0.08314 0.0
C827 C 0.1846 0.5588 0.02282 0.0
C828 C 0.17282 0.55401 0.96862 0.0
C829 C 0.16102 0.53858 0.97454 0.0
C830 C 0.16113 0.52779 0.03437 0.0
C831 C 0.11757 0.51782 0.39109 0.0
C832 C 0.10096 0.51276 0.35795 0.0
C833 C 0.13461 0.51692 0.35627 0.0
C834 C 0.13547 0.51055 0.28805 0.0
C835 C 0.11886 0.50539 0.25497 0.0
C836 C 0.10175 0.50652 0.28955 0.0
C837 C 0.15361 0.51005 0.25069 0.0
C838 C 0.15507 0.51937 0.1874 0.0
C839 C 0.16972 0.50174 0.27943 0.0
C840 C 0.16887 0.49044 0.34334 0.0
C841 C 0.15619 0.47554 0.34932 0.0
C842 C 0.15522 0.46514 0.41 0.0
C843 C 0.16695 0.46943 0.46497 0.0
C844 C 0.1797 0.48409 0.45929 0.0
C845 C 0.18072 0.49454 0.39873 0.0
H846 H 0.16616 0.46137 0.51194 0.0
H847 H 0.17282 0.56225 0.92202 0.0
H848 H 0.9965 0.77959 0.27245 0.0
H849 H 0.00654 0.80909 0.22263 0.0
H850 H 0.97504 0.79678 0.03954 0.0
H851 H 0.96675 0.76624 0.08691 0.0
H852 H 0.00643 0.81239 0.00443 0.0
H853 H 0.95927 0.82705 0.1803 0.0
H854 H 0.94723 0.82646 0.29928 0.0
H855 H 0.9968 0.854 0.36974 0.0
H856 H 0.00914 0.85465 0.25143 0.0
H857 H 1.00024 0.90197 0.86036 0.0
H858 H 0.99405 0.87177 0.91169 0.0
H859 H 0.02161 0.8892 0.09766 0.0
H860 H 0.02578 0.92023 0.05002 0.0
H861 H 0.99422 0.87073 0.13396 0.0
H862 H 0.04179 0.85803 0.96844 0.0
H863 H 0.05677 0.85872 0.85423 0.0
H864 H 0.01132 0.82727 0.76991 0.0
H865 H 0.99595 0.82655 0.88357 0.0
C866 C 0.99254 0.78272 0.22042 0.0
C867 C 0.98158 0.77021 0.18263 0.0
C868 C 0.99776 0.79992 0.1926 0.0
C869 C 0.99134 0.80537 0.12751 0.0
C870 C 0.98023 0.79292 0.08978 0.0
C871 C 0.9754 0.77552 0.11705 0.0
C872 C 0.99589 0.82409 0.09883 0.0
C873 C 0.00356 0.82517 0.03244 0.0
C874 C 0.9929 0.84078 0.13633 0.0
C875 C 0.98516 0.84081 0.20711 0.0
C876 C 0.96759 0.83296 0.22124 0.0
C877 C 0.96072 0.83261 0.28857 0.0
C878 C 0.97125 0.84015 0.3421 0.0
C879 C 0.98864 0.84815 0.32835 0.0
C880 C 0.99556 0.84856 0.26115 0.0
C881 C 0.00473 0.89963 0.91265 0.0
C882 C 0.01357 0.91381 0.95066 0.0
C883 C 0.0015 0.88208 0.94159 0.0
C884 C 0.00776 0.8779 0.00816 0.0
C885 C 0.01671 0.89194 0.04607 0.0
C886 C 0.01938 0.90969 0.01806 0.0
C887 C 0.00458 0.85911 0.03898 0.0
C888 C 0.99717 0.858 0.1058 0.0
C889 C 0.00826 0.84238 0.00253 0.0
C890 C 0.01766 0.84236 0.93444 0.0
C891 C 0.03496 0.85131 0.92551 0.0
C892 C 0.04352 0.85171 0.86089 0.0
C893 C 0.03498 0.84309 0.80487 0.0
C894 C 0.01791 0.83395 0.81339 0.0
C895 C 0.00928 0.83351 0.87794 0.0
H896 H 0.04161 0.84348 0.75492 0.0
H897 H 0.96593 0.83983 0.39417 0.0
H898 H 0.73394 0.96366 0.17981 0.0
H899 H 0.70267 0.96891 0.13333 0.0
H900 H 0.71257 0.02828 0.1327 0.0
H901 H 0.74403 0.02305 0.17731 0.0
H902 H 0.67813 0.01902 0.18796 0.0
H903 H 0.71406 0.00512 0.9856 0.0
H904 H 0.73555 0.98667 0.91347 0.0
H905 H 0.69768 0.94029 0.91978 0.0
H906 H 0.67606 0.95839 0.99277 0.0
H907 H 0.59697 0.0415 0.99128 0.0
H908 H 0.62891 0.039 0.03449 0.0
H909 H 0.62615 0.97907 0.0155 0.0
H910 H 0.59465 0.98154 0.97049 0.0
H911 H 0.65776 0.99029 0.96895 0.0
H912 H 0.62169 0.00389 0.17185 0.0
H913 H 0.60026 0.0221 0.24497 0.0
H914 H 0.63835 0.06832 0.24202 0.0
H915 H 0.65979 0.05059 0.16726 0.0
C916 C 0.72946 0.97782 0.16951 0.0
C917 C 0.74124 0.99298 0.18383 0.0
C918 C 0.71161 0.9808 0.14302 0.0
C919 C 0.7053 0.999 0.12971 0.0
C920 C 0.7171 0.01415 0.14335 0.0
C921 C 0.73499 0.01116 0.16949 0.0
C922 C 0.68637 0.00218 0.10152 0.0
C923 C 0.6737 0.01298 0.13959 0.0
C924 C 0.68055 0.99396 0.03918 0.0
C925 C 0.69352 0.98306 -0.00482 0.0
C926 C 0.71038 0.99094 0.97207 0.0
C927 C 0.72257 0.98055 0.93094 0.0
C928 C 0.718 0.9623 0.91218 0.0
C929 C 0.70121 0.95442 0.9344 0.0
C930 C 0.68897 0.96474 0.9756 0.0
C931 C 0.60314 0.02779 -0.00321 0.0
C932 C 0.59315 0.0117 0.9779 0.0
C933 C 0.6214 0.02637 0.02162 0.0
C934 C 0.6299 0.00881 0.02927 0.0
C935 C 0.61995 0.99279 0.01011 0.0
C936 C 0.60187 0.99422 0.98443 0.0
C937 C 0.64926 0.00696 0.05578 0.0
C938 C 0.6621 0.99641 0.01729 0.0
C939 C 0.65516 0.01534 0.11801 0.0
C940 C 0.64223 0.02599 0.16305 0.0
C941 C 0.62542 0.01801 0.18614 0.0
C942 C 0.61327 0.02825 0.22796 0.0
C943 C 0.61792 0.04638 0.24794 0.0
C944 C 0.63474 0.0543 0.22631 0.0
C945 C 0.64688 0.04417 0.18409 0.0
H946 H 0.60851 0.05431 0.28026 0.0
H947 H 0.72746 0.95429 0.88032 0.0
H948 H 0.49994 0.73783 0.18941 0.0
H949 H 0.49346 0.70698 0.14121 0.0
H950 H 0.55246 0.69786 0.11206 0.0
H951 H 0.55897 0.72863 0.16022 0.0
H952 H 0.53395 0.68764 0.00096 0.0
H953 H 0.5269 0.67647 0.24631 0.0
H954 H 0.51365 0.68029 0.36263 0.0
H955 H 0.45883 0.6689 0.28488 0.0
H956 H 0.47174 0.66509 0.16814 0.0
H957 H 0.53678 0.58912 0.9582 0.0
H958 H 0.54037 0.62081 0.00359 0.0
H959 H 0.48059 0.62776 0.00386 0.0
H960 H 0.47691 0.59608 0.95858 0.0
H961 H 0.49741 0.63947 0.12545 0.0
H962 H 0.5038 0.64773 0.88484 0.0
H963 H 0.51637 0.6408 0.76991 0.0
H964 H 0.57092 0.65792 0.83465 0.0
H965 H 0.55885 0.66416 0.95125 0.0
C966 C 0.51153 0.72909 0.17416 0.0
C967 C 0.52999 0.73551 0.18004 0.0
C968 C 0.50782 0.71149 0.14619 0.0
C969 C 0.52249 0.69995 0.12386 0.0
C970 C 0.5409 0.70647 0.129 0.0
C971 C 0.5446 0.72406 0.15662 0.0
C972 C 0.51879 0.68123 0.09391 0.0
C973 C 0.52614 0.67705 0.02861 0.0
C974 C 0.50805 0.66758 0.12874 0.0
C975 C 0.50026 0.67068 0.19843 0.0
C976 C 0.51199 0.675 0.25392 0.0
C977 C 0.50455 0.67711 0.31997 0.0
C978 C 0.4854 0.67487 0.33103 0.0
C979 C 0.47365 0.67064 0.27616 0.0
C980 C 0.48102 0.66848 0.21013 0.0
C981 C 0.52442 0.59739 0.96823 0.0
C982 C 0.50656 0.59018 0.95474 0.0
C983 C 0.52648 0.6155 0.99374 0.0
C984 C 0.51073 0.62664 0.00663 0.0
C985 C 0.4929 0.61938 0.9941 0.0
C986 C 0.49083 0.60136 0.96788 0.0
C987 C 0.51288 0.64585 0.03356 0.0
C988 C 0.50518 0.65012 0.09791 0.0
C989 C 0.52315 0.65961 -0.00237 0.0
C990 C 0.53044 0.65623 0.92717 0.0
C991 C 0.51852 0.64983 0.87492 0.0
C992 C 0.52556 0.64604 0.80937 0.0
C993 C 0.54441 0.64899 0.7948 0.0
C994 C 0.5563 0.65565 0.84597 0.0
C995 C 0.54939 0.65926 0.91193 0.0
H996 H 0.5498 0.64612 0.74388 0.0
H997 H 0.47962 0.67629 0.38209 0.0
H998 H 0.75872 0.54122 0.04394 0.0
H999 H 0.78952 0.53131 0.00367 0.0
H1000 H 0.80881 0.52905 0.21339 0.0
H1001 H 0.77875 0.54091 0.25242 0.0
H1002 H 0.83433 0.54306 0.14444 0.0
H1003 H 0.79815 0.48779 0.10863 0.0
H1004 H 0.77192 0.46883 0.06589 0.0
H1005 H 0.78605 0.48352 0.85824 0.0
H1006 H 0.81219 0.50278 0.89998 0.0
H1007 H 0.91827 0.49551 0.07024 0.0
H1008 H 0.88678 0.50218 0.11089 0.0
H1009 H 0.8688 0.51117 0.9022 0.0
H1010 H 0.90004 0.50333 0.86069 0.0
H1011 H 0.8428 0.49287 0.97179 0.0
H1012 H 0.87947 0.54921 0.01707 0.0
H1013 H 0.90601 0.56635 0.06747 0.0
H1014 H 0.89133 0.54607 0.26793 0.0
H1015 H 0.86457 0.52904 0.21904 0.0
C1016 C 0.76953 0.53852 0.08137 0.0
C1017 C 0.766 0.54096 0.15185 0.0
C1018 C 0.78711 0.53264 0.05838 0.0
C1019 C 0.80145 0.52877 0.10548 0.0
C1020 C 0.79797 0.53156 0.17583 0.0
C1021 C 0.78056 0.53785 0.19853 0.0
C1022 C 0.82031 0.52267 0.08155 0.0
C1023 C 0.8361 0.53187 0.10746 0.0
C1024 C 0.82284 0.50826 0.03251 0.0
C1025 C 0.80706 0.49679 0.00738 0.0
C1026 C 0.79558 0.48706 0.05389 0.0
C1027 C 0.78074 0.47625 0.02987 0.0
C1028 C 0.77731 0.47498 0.9594 0.0
C1029 C 0.78872 0.48451 0.91281 0.0
C1030 C 0.80357 0.49534 0.9366 0.0
C1031 C 0.90757 0.49852 0.03273 0.0
C1032 C 0.91179 0.49893 0.96208 0.0
C1033 C 0.88959 0.50264 0.05621 0.0
C1034 C 0.87549 0.50765 0.0098 0.0
C1035 C 0.87948 0.50752 0.93913 0.0
C1036 C 0.89741 0.50318 0.9155 0.0
C1037 C 0.85665 0.51325 0.03486 0.0
C1038 C 0.84091 0.50399 0.00896 0.0
C1039 C 0.85417 0.52733 0.08507 0.0
C1040 C 0.8701 0.53779 0.11437 0.0
C1041 C 0.88193 0.5484 0.07186 0.0
C1042 C 0.897 0.55809 0.10014 0.0
C1043 C 0.90042 0.55719 0.17068 0.0
C1044 C 0.88868 0.54674 0.21329 0.0
C1045 C 0.87351 0.53715 0.18541 0.0
H1046 H 0.91213 0.56465 0.19236 0.0
H1047 H 0.76582 0.4666 0.9409 0.0
H1048 H 0.0584 0.21007 0.8914 0.0
H1049 H 0.06178 0.18002 0.83314 0.0
H1050 H 0.00434 0.18299 0.76816 0.0
H1051 H 1.0011 0.21321 0.82387 0.0
H1052 H 0.04558 0.14982 0.86574 0.0
H1053 H 0.99647 0.15675 0.62479 0.0
H1054 H 0.98873 0.18053 0.53804 0.0
H1055 H 0.0404 0.20874 0.57756 0.0
H1056 H 0.04882 0.18478 0.66272 0.0
H1057 H 0.00445 0.06473 0.79443 0.0
H1058 H 0.01083 0.09765 0.81609 0.0
H1059 H 0.03859 0.10197 0.61946 0.0
H1060 H 0.03131 0.06921 0.59618 0.0
H1061 H 0.02024 0.13179 0.63848 0.0
H1062 H 0.06338 0.09865 0.77601 0.0
H1063 H 0.07417 0.07501 0.85894 0.0
H1064 H 0.04063 0.1001 0.01704 0.0
H1065 H 0.02942 0.12373 0.93485 0.0
C1066 C 0.04662 0.20447 0.86347 0.0
C1067 C 0.02946 0.21393 0.86248 0.0
C1068 C 0.04857 0.1873 0.83027 0.0
C1069 C 0.03335 0.17928 0.79592 0.0
C1070 C 0.0164 0.18905 0.79299 0.0
C1071 C 0.01453 0.2063 0.82535 0.0
C1072 C 0.03442 0.15987 0.76993 0.0
C1073 C 0.04023 0.14592 0.8157 0.0
C1074 C 0.02793 0.15479 0.70387 0.0
C1075 C 0.02319 0.16901 0.65099 0.0
C1076 C 0.00629 0.16792 0.61465 0.0
C1077 C 0.00177 0.18145 0.56569 0.0
C1078 C 0.014 0.19621 0.5527 0.0
C1079 C 0.03086 0.19738 0.58812 0.0
C1080 C 0.03555 0.18378 0.63659 0.0
C1081 C 0.01187 0.07274 0.75585 0.0
C1082 C 0.01749 0.06448 0.69389 0.0
C1083 C 0.01563 0.09151 0.76837 0.0
C1084 C 0.02567 0.10218 0.72022 0.0
C1085 C 0.03094 0.09401 0.65755 0.0
C1086 C 0.02677 0.07532 0.64429 0.0
C1087 C 0.03051 0.12185 0.73571 0.0
C1088 C 0.02588 0.13578 0.68795 0.0
C1089 C 0.03863 0.12699 0.79914 0.0
C1090 C 0.0455 0.11292 0.8491 0.0
C1091 C 0.05824 0.09908 0.82838 0.0
C1092 C 0.06443 0.08568 0.87527 0.0
C1093 C 0.05807 0.08604 0.94319 0.0
C1094 C 0.04554 0.09984 0.96441 0.0
C1095 C 0.03929 0.11326 0.91772 0.0
H1096 H 0.06287 0.07565 0.97939 0.0
H1097 H 0.01045 0.20669 0.5149 0.0
H1098 H 0.29104 0.05017 0.91564 0.0
H1099 H 0.32207 0.03587 0.91007 0.0
H1100 H 0.32125 0.03978 0.6892 0.0
H1101 H 0.29005 0.05377 0.69439 0.0
H1102 H 0.33699 0.00586 0.7389 0.0
H1103 H 0.34198 0.07311 0.77696 0.0
H1104 H 0.33502 0.10198 0.84115 0.0
H1105 H 0.35854 0.07802 0.02363 0.0
H1106 H 0.36548 0.04896 0.96053 0.0
H1107 H 0.43069 0.00889 0.63298 0.0
H1108 H 0.39777 0.01402 0.65717 0.0
H1109 H 0.40957 0.01683 0.8741 0.0
H1110 H 0.44274 0.01217 0.85014 0.0
H1111 H 0.38757 0.04416 0.84037 0.0
H1112 H 0.38623 0.97901 0.80671 0.0
H1113 H 0.39285 0.94884 0.75088 0.0
H1114 H 0.36229 0.96617 0.57257 0.0
H1115 H 0.35568 0.99655 0.62704 0.0
C1116 C 0.29718 0.04733 0.86588 0.0
C1117 C 0.28801 0.05262 0.80518 0.0
C1118 C 0.31496 0.03936 0.86286 0.0
C1119 C 0.32389 0.03676 0.79932 0.0
C1120 C 0.31451 0.04154 0.73869 0.0
C1121 C 0.29678 0.04959 0.74171 0.0
C1122 C 0.3436 0.03068 0.79605 0.0
C1123 C 0.34811 0.01426 0.7605 0.0
C1124 C 0.35797 0.04128 0.82673 0.0
C1125 C 0.35408 0.05883 0.86427 0.0
C1126 C 0.34557 0.07398 0.83086 0.0
C1127 C 0.34165 0.09038 0.86701 0.0
C1128 C 0.34629 0.09182 0.93647 0.0
C1129 C 0.35493 0.07688 0.96985 0.0
C1130 C 0.35888 0.06046 0.93392 0.0
C1131 C 0.42636 0.01056 0.68587 0.0
C1132 C 0.43944 0.01022 0.7395 0.0
C1133 C 0.40744 0.01333 0.69971 0.0
C1134 C 0.40114 0.01558 0.76756 0.0
C1135 C 0.41412 0.0151 0.82135 0.0
C1136 C 0.43308 0.01243 0.8075 0.0
C1137 C 0.38116 0.0195 0.78159 0.0
C1138 C 0.37655 0.03555 0.81923 0.0
C1139 C 0.3667 0.00835 0.7539 0.0
C1140 C 0.37061 0.99012 0.72072 0.0
C1141 C 0.38105 0.97645 0.75536 0.0
C1142 C 0.38477 0.95929 0.72402 0.0
C1143 C 0.37803 0.95561 0.65815 0.0
C1144 C 0.36751 0.96905 0.62357 0.0
C1145 C 0.36375 0.98623 0.6547 0.0
H1146 H 0.38093 0.94232 0.63396 0.0
H1147 H 0.34323 0.10452 0.96439 0.0
H1148 H 0.46981 0.30795 0.94732 0.0
H1149 H 0.4667 0.33787 0.88965 0.0
H1150 H 0.47798 0.31159 0.69441 0.0
H1151 H 0.48158 0.28149 0.75231 0.0
H1152 H 0.4996 0.34036 0.70956 0.0
H1153 H 0.43479 0.33134 0.72905 0.0
H1154 H 0.40468 0.3231 0.78254 0.0
H1155 H 0.41101 0.36767 0.92789 0.0
H1156 H 0.4413 0.37603 0.87599 0.0
H1157 H 0.49542 0.43314 0.5786 0.0
H1158 H 0.48721 0.40046 0.59531 0.0
H1159 H 0.47848 0.41077 0.8114 0.0
H1160 H 0.48595 0.44367 0.79452 0.0
H1161 H 0.45151 0.38835 0.75889 0.0
H1162 H 0.51982 0.39211 0.74766 0.0
H1163 H 0.54933 0.40016 0.68912 0.0
H1164 H 0.53474 0.36466 0.51997 0.0
H1165 H 0.50503 0.35665 0.57719 0.0
C1166 C 0.47128 0.30841 0.89195 0.0
C1167 C 0.47609 0.29235 0.85447 0.0
C1168 C 0.46936 0.32555 0.85888 0.0
C1169 C 0.47194 0.32697 0.78754 0.0
C1170 C 0.4759 0.31081 0.74949 0.0
C1171 C 0.47792 0.29362 0.78266 0.0
C1172 C 0.47259 0.34565 0.75481 0.0
C1173 C 0.48884 0.35071 0.71887 0.0
C1174 C 0.45862 0.35921 0.76704 0.0
C1175 C 0.44039 0.35426 0.79873 0.0
C1176 C 0.42984 0.33931 0.77274 0.0
C1177 C 0.41272 0.33463 0.80274 0.0
C1178 C 0.40595 0.34484 0.85862 0.0
C1179 C 0.41627 0.35978 0.88458 0.0
C1180 C 0.43341 0.36452 0.85479 0.0
C1181 C 0.4915 0.42857 0.62944 0.0
C1182 C 0.49128 0.44109 0.68506 0.0
C1183 C 0.48693 0.40982 0.639 0.0
C1184 C 0.48236 0.40317 0.70468 0.0
C1185 C 0.48191 0.41565 0.7602 0.0
C1186 C 0.48634 0.43442 0.75054 0.0
C1187 C 0.47881 0.38309 0.71679 0.0
C1188 C 0.46201 0.37782 0.74848 0.0
C1189 C 0.49216 0.36928 0.69997 0.0
C1190 C 0.51015 0.37392 0.66631 0.0
C1191 C 0.52287 0.38612 0.69781 0.0
C1192 C 0.53963 0.39068 0.66487 0.0
C1193 C 0.54387 0.38299 0.60072 0.0
C1194 C 0.53141 0.37066 0.56951 0.0
C1195 C 0.51462 0.36609 0.60217 0.0
H1196 H 0.55684 0.38655 0.57528 0.0
H1197 H 0.39269 0.3412 0.88177 0.0
H1198 H 0.22491 0.47112 0.7862 0.0
H1199 H 0.19302 0.47138 0.74269 0.0
H1200 H 0.1725 0.45433 0.94146 0.0
H1201 H 0.20435 0.4541 0.98576 0.0
H1202 H 0.15114 0.4404 0.82443 0.0
H1203 H 0.17757 0.49684 0.91926 0.0
H1204 H 0.20195 0.52095 0.92671 0.0
H1205 H 0.19129 0.53714 0.71812 0.0
H1206 H 0.16732 0.51257 0.7085 0.0
H1207 H 0.06194 0.482 0.84419 0.0
H1208 H 0.09423 0.47314 0.86711 0.0
H1209 H 0.11141 0.49769 0.67472 0.0
H1210 H 0.0792 0.50691 0.65186 0.0
H1211 H 0.13489 0.50668 0.78002 0.0
H1212 H 0.10734 0.45173 0.68576 0.0
H1213 H 0.08364 0.42698 0.67564 0.0
H1214 H 0.09606 0.40829 0.88001 0.0
H1215 H 0.11962 0.43316 0.89185 0.0
C1216 C 0.21371 0.46685 0.82019 0.0
C1217 C 0.21709 0.46303 0.88989 0.0
C1218 C 0.1955 0.46696 0.79511 0.0
C1219 C 0.18047 0.4632 0.83931 0.0
C1220 C 0.18396 0.45732 0.90673 0.0
C1221 C 0.20217 0.45731 0.93201 0.0
C1222 C 0.16136 0.46859 0.81942 0.0
C1223 C 0.14751 0.45486 0.815 0.0
C1224 C 0.15682 0.48749 0.80635 0.0
C1225 C 0.17083 0.50265 0.8128 0.0
C1226 C 0.18061 0.50534 0.87459 0.0
C1227 C 0.19439 0.51906 0.87918 0.0
C1228 C 0.19821 0.53053 0.82285 0.0
C1229 C 0.18832 0.52823 0.76171 0.0
C1230 C 0.17468 0.51435 0.75657 0.0
C1231 C 0.07259 0.48566 0.80693 0.0
C1232 C 0.06797 0.49501 0.74583 0.0
C1233 C 0.09101 0.48045 0.81991 0.0
C1234 C 0.10512 0.4845 0.77207 0.0
C1235 C 0.10067 0.49432 0.71202 0.0
C1236 C 0.08224 0.49948 0.69888 0.0
C1237 C 0.12454 0.47849 0.78497 0.0
C1238 C 0.13849 0.49216 0.78858 0.0
C1239 C 0.12914 0.45955 0.7971 0.0
C1240 C 0.11514 0.44442 0.78991 0.0
C1241 C 0.10493 0.44244 0.72876 0.0
C1242 C 0.09152 0.42837 0.72268 0.0
C1243 C 0.08832 0.41609 0.7772 0.0
C1244 C 0.09855 0.41782 0.83785 0.0
C1245 C 0.11194 0.4319 0.84426 0.0
H1246 H 0.07794 0.40521 0.7724 0.0
H1247 H 0.20879 0.54124 0.82666 0.0
H1248 H 0.03735 0.80745 0.38014 0.0
H1249 H 0.03652 0.83865 0.43093 0.0
H1250 H 0.99297 0.82104 0.5699 0.0
H1251 H 0.99363 0.78987 0.51946 0.0
H1252 H 0.98368 0.85242 0.50117 0.0
H1253 H 0.0352 0.82975 0.63026 0.0
H1254 H 0.06587 0.81525 0.65046 0.0
H1255 H 0.09253 0.8589 0.53526 0.0
H1256 H 0.06198 0.87355 0.51359 0.0
H1257 H 0.01258 0.94041 0.70889 0.0
H1258 H 0.01389 0.90696 0.6861 0.0
H1259 H 0.99965 0.91694 0.47415 0.0
H1260 H 0.99828 0.95051 0.49634 0.0
H1261 H 0.03702 0.88826 0.59501 0.0
H1262 H 0.97181 0.88014 0.42283 0.0
H1263 H 0.94069 0.89427 0.40866 0.0
H1264 H 0.94069 0.91112 0.62033 0.0
H1265 H 0.97167 0.89682 0.63606 0.0
C1266 C 0.02786 0.8101 0.42245 0.0
C1267 C 0.01551 0.79621 0.44563 0.0
C1268 C 0.02742 0.82793 0.45144 0.0
C1269 C 0.01469 0.8321 0.50417 0.0
C1270 C 0.00286 0.81807 0.52913 0.0
C1271 C 0.00331 0.80026 0.50034 0.0
C1272 C 0.01269 0.85145 0.52952 0.0
C1273 C 0.99534 0.86024 0.52181 0.0
C1274 C 0.02785 0.86152 0.55735 0.0
C1275 C 0.04625 0.85266 0.56979 0.0
C1276 C 0.04757 0.83616 0.6086 0.0
C1277 C 0.06495 0.82794 0.62049 0.0
C1278 C 0.08114 0.83612 0.594 0.0
C1279 C 0.07998 0.85257 0.5557 0.0
C1280 C 0.06264 0.86085 0.5437 0.0
C1281 C 0.00956 0.93553 0.6575 0.0
C1282 C 0.00529 0.94814 0.60437 0.0
C1283 C 0.01042 0.91641 0.64457 0.0
C1284 C 0.00683 0.90953 0.57858 0.0
C1285 C 0.00233 0.92201 0.5256 0.0
C1286 C 0.00158 0.94118 0.53835 0.0
C1287 C 0.00817 0.88931 0.56463 0.0
C1288 C 0.02538 0.88038 0.57448 0.0
C1289 C 0.99286 0.87905 0.53908 0.0
C1290 C 0.97415 0.88757 0.53038 0.0
C1291 C 0.96514 0.88679 0.46641 0.0
C1292 C 0.94752 0.89484 0.45811 0.0
C1293 C 0.93874 0.90364 0.5135 0.0
C1294 C 0.94754 0.90436 0.57739 0.0
C1295 C 0.96514 0.89631 0.586 0.0
H1296 H 0.92511 0.90987 0.50695 0.0
H1297 H 0.09458 0.82974 0.60328 0.0
H1298 H 0.70822 0.03982 0.53072 0.0
H1299 H 0.67697 0.03536 0.57855 0.0
H1300 H 0.65615 0.02198 0.37669 0.0
H1301 H 0.68717 0.02693 0.32824 0.0
H1302 H 0.63122 0.04148 0.44367 0.0
H1303 H 0.66888 0.98777 0.49421 0.0
H1304 H 0.69597 0.97079 0.54068 0.0
H1305 H 0.68283 0.9904 0.74357 0.0
H1306 H 0.6558 0.00773 0.6981 0.0
H1307 H 0.55105 0.99056 0.52697 0.0
H1308 H 0.5828 0.99737 0.48961 0.0
H1309 H 0.59671 0.01565 0.69416 0.0
H1310 H 0.56491 0.0088 0.73242 0.0
H1311 H 0.62501 0.99503 0.63162 0.0
H1312 H 0.5859 0.04793 0.57704 0.0
H1313 H 0.5585 0.06352 0.52636 0.0
H1314 H 0.57403 0.04328 0.3266 0.0
H1315 H 0.60134 0.0273 0.3765 0.0
C1316 C 0.69693 0.03619 0.49638 0.0
C1317 C 0.70022 0.0335 0.42587 0.0
C1318 C 0.6791 0.03354 0.52385 0.0
C1319 C 0.66434 0.02786 0.48149 0.0
C1320 C 0.66737 0.02621 0.41048 0.0
C1321 C 0.68514 0.02903 0.38287 0.0
C1322 C 0.64595 0.02282 0.51128 0.0
C1323 C 0.62988 0.03123 0.48444 0.0
C1324 C 0.6442 0.00962 0.56518 0.0
C1325 C 0.66045 0.99922 0.59262 0.0
C1326 C 0.67186 0.98859 0.54864 0.0
C1327 C 0.68719 0.97888 0.57481 0.0
C1328 C 0.69116 0.97956 0.645 0.0
C1329 C 0.67977 0.98992 0.68919 0.0
C1330 C 0.66444 0.99968 0.66325 0.0
C1331 C 0.56089 0.99577 0.56444 0.0
C1332 C 0.55536 0.99933 0.63257 0.0
C1333 C 0.57901 0.99973 0.54283 0.0
C1334 C 0.59192 0.00741 0.58878 0.0
C1335 C 0.58686 0.00987 0.65784 0.0
C1336 C 0.56869 0.0059 0.67961 0.0
C1337 C 0.61039 0.01361 0.56368 0.0
C1338 C 0.62644 0.00541 0.59136 0.0
C1339 C 0.61212 0.02685 0.51011 0.0
C1340 C 0.59565 0.03643 0.48039 0.0
C1341 C 0.58341 0.04672 0.52238 0.0
C1342 C 0.56789 0.05563 0.49382 0.0
C1343 C 0.56456 0.05443 0.42327 0.0
C1344 C 0.57666 0.04424 0.3812 0.0
C1345 C 0.59216 0.03529 0.40955 0.0
H1346 H 0.55262 0.06141 0.40113 0.0
H1347 H 0.70302 0.97203 0.66517 0.0
H1348 H 0.48023 0.70338 0.46984 0.0
H1349 H 0.48294 0.67315 0.52721 0.0
H1350 H 0.54195 0.68224 0.55441 0.0
H1351 H 0.53939 0.71232 0.49647 0.0
H1352 H 0.53559 0.65089 0.4867 0.0
H1353 H 0.51414 0.67828 0.69284 0.0
H1354 H 0.49427 0.69672 0.77092 0.0
H1355 H 0.44787 0.66069 0.72858 0.0
H1356 H 0.46741 0.64214 0.64959 0.0
H1357 H 0.51904 0.56293 0.71888 0.0
H1358 H 0.52137 0.59671 0.70495 0.0
H1359 H 0.50934 0.59103 0.48889 0.0
H1360 H 0.50739 0.55721 0.50199 0.0
H1361 H 0.49653 0.62174 0.66802 0.0
H1362 H 0.53142 0.62396 0.39797 0.0
H1363 H 0.55389 0.60562 0.32947 0.0
H1364 H 0.57798 0.58371 0.51434 0.0
H1365 H 0.55584 0.60211 0.58397 0.0
C1366 C 0.4937 0.69911 0.48946 0.0
C1367 C 0.50966 0.71 0.4774 0.0
C1368 C 0.49521 0.6819 0.52267 0.0
C1369 C 0.51268 0.67542 0.54461 0.0
C1370 C 0.52836 0.68696 0.53745 0.0
C1371 C 0.52685 0.70417 0.50445 0.0
C1372 C 0.51499 0.65572 0.56563 0.0
C1373 C 0.52717 0.64455 0.52681 0.0
C1374 C 0.50421 0.64754 0.61855 0.0
C1375 C 0.49222 0.65892 0.66468 0.0
C1376 C 0.49964 0.67443 0.69943 0.0
C1377 C 0.48845 0.68485 0.74413 0.0
C1378 C 0.46981 0.67992 0.75456 0.0
C1379 C 0.46232 0.66451 0.7204 0.0
C1380 C 0.47346 0.65401 0.67577 0.0
C1381 C 0.51705 0.56884 0.6682 0.0
C1382 C 0.51314 0.55737 0.61135 0.0
C1383 C 0.51832 0.58816 0.66047 0.0
C1384 C 0.51572 0.59637 0.59582 0.0
C1385 C 0.51176 0.58496 0.53903 0.0
C1386 C 0.51062 0.56562 0.54659 0.0
C1387 C 0.51673 0.61689 0.58772 0.0
C1388 C 0.50511 0.62816 0.62857 0.0
C1389 C 0.52834 0.62528 0.53762 0.0
C1390 C 0.54186 0.6143 0.49616 0.0
C1391 C 0.54157 0.61529 0.42402 0.0
C1392 C 0.55424 0.60488 0.38499 0.0
C1393 C 0.56732 0.59347 0.41753 0.0
C1394 C 0.5678 0.5925 0.48919 0.0
C1395 C 0.55518 0.6029 0.52847 0.0
H1396 H 0.57711 0.58541 0.38721 0.0
H1397 H 0.46117 0.688 0.78922 0.0
H1398 H 0.79626 0.4889 0.52465 0.0
H1399 H 0.82808 0.48798 0.57078 0.0
H1400 H 0.84521 0.5294 0.4225 0.0
H1401 H 0.81389 0.53011 0.37552 0.0
H1402 H 0.86881 0.5013 0.42438 0.0
H1403 H 0.83684 0.53893 0.59561 0.0
H1404 H 0.8137 0.54548 0.68652 0.0
H1405 H 0.83532 0.5002 0.80695 0.0
H1406 H 0.85826 0.49313 0.71622 0.0
H1407 H 0.95767 0.52784 0.54014 0.0
H1408 H 0.92482 0.52784 0.50685 0.0
H1409 H 0.91203 0.49082 0.67569 0.0
H1410 H 0.9446 0.49166 0.71132 0.0
H1411 H 0.88585 0.51419 0.66632 0.0
H1412 H 0.91759 0.4762 0.50013 0.0
H1413 H 0.94096 0.46853 0.41125 0.0
H1414 H 0.91985 0.5124 0.28281 0.0
H1415 H 0.89657 0.52054 0.3714 0.0
C1416 C 0.80683 0.49783 0.50212 0.0
C1417 C 0.80256 0.50952 0.4463 0.0
C1418 C 0.82495 0.49736 0.52873 0.0
C1419 C 0.83897 0.50872 0.50031 0.0
C1420 C 0.83463 0.52049 0.44512 0.0
C1421 C 0.81667 0.52087 0.41834 0.0
C1422 C 0.85843 0.50801 0.52534 0.0
C1423 C 0.87256 0.50429 0.47721 0.0
C1424 C 0.86324 0.51124 0.59476 0.0
C1425 C 0.8491 0.51532 0.64856 0.0
C1426 C 0.83648 0.53021 0.64103 0.0
C1427 C 0.82342 0.53404 0.69265 0.0
C1428 C 0.82296 0.52321 0.75237 0.0
C1429 C 0.83558 0.50854 0.76061 0.0
C1430 C 0.84861 0.5046 0.70905 0.0
C1431 C 0.9478 0.51978 0.57021 0.0
C1432 C 0.95367 0.50964 0.62791 0.0
C1433 C 0.92907 0.51967 0.55093 0.0
C1434 C 0.91601 0.50891 0.58763 0.0
C1435 C 0.92183 0.49914 0.64629 0.0
C1436 C 0.94046 0.49962 0.66656 0.0
C1437 C 0.89629 0.50781 0.56504 0.0
C1438 C 0.88212 0.5111 0.61358 0.0
C1439 C 0.89139 0.50396 0.49607 0.0
C1440 C 0.90545 0.49909 0.44278 0.0
C1441 C 0.91803 0.48431 0.45319 0.0
C1442 C 0.93126 0.47987 0.40282 0.0
C1443 C 0.93193 0.49 0.34151 0.0
C1444 C 0.91935 0.50458 0.33038 0.0
C1445 C 0.90614 0.50911 0.38066 0.0
H1446 H 0.94217 0.48652 0.30257 0.0
H1447 H 0.81287 0.52624 0.79233 0.0
loop_
_geom_bond_atom_site_label_1
_geom_bond_atom_site_label_2
_geom_bond_distance
_geom_bond_site_symmetry_2
_ccdc_geom_bond_type
O0 Cd1 2.300 . S
O0 C7 1.275 . S
Cd1 O0 2.300 . S
Cd1 O9 2.381 . S
Cd1 O10 2.378 . S
O2 Cd3 2.385 . S
O2 C7 1.255 . S
Cd3 O2 2.385 . S
Cd3 O4 2.317 . S
O4 Cd3 2.317 . S
O4 C5 1.232 . S
C5 O4 1.232 . S
C5 O6 1.218 . S
O6 C5 1.218 . S
C7 O0 1.275 . S
C7 O2 1.255 . S
C8 O9 1.258 . S
C8 O10 1.256 . S
O9 Cd1 2.381 . S
O9 C8 1.258 . S
O10 Cd1 2.378 . S
O10 C8 1.256 . S
O11 Cd12 2.300 1_655 S
O11 C18 1.275 1_655 S
Cd12 O11 2.300 1_455 S
Cd12 O20 2.381 1_455 S
Cd12 O21 2.378 . S
O13 Cd14 2.385 . S
O13 C18 1.256 . S
Cd14 O13 2.385 . S
Cd14 O15 2.317 . S
O15 Cd14 2.317 . S
O15 C16 1.232 . S
C16 O15 1.232 . S
C16 O17 1.218 . S
O17 C16 1.218 . S
C18 O11 1.275 1_455 S
C18 O13 1.256 . S
C19 O20 1.258 . S
C19 O21 1.256 1_655 S
O20 Cd12 2.381 1_655 S
O20 C19 1.258 . S
O21 Cd12 2.378 . S
O21 C19 1.256 1_455 S
O22 Cd23 2.300 1_565 S
O22 C29 1.286 . S
Cd23 O22 2.300 1_545 S
Cd23 O31 2.381 1_545 S
Cd23 O32 2.378 . S
O24 Cd25 2.385 . S
O24 C29 1.237 1_545 S
Cd25 O24 2.385 . S
Cd25 O26 2.317 . S
O26 Cd25 2.317 . S
O26 C27 1.232 . S
C27 O26 1.232 . S
C27 O28 1.218 . S
O28 C27 1.218 . S
C29 O22 1.286 . S
C29 O24 1.237 1_565 S
C30 O31 1.258 . S
C30 O32 1.256 1_565 S
O31 Cd23 2.381 1_565 S
O31 C30 1.258 . S
O32 Cd23 2.378 . S
O32 C30 1.256 1_545 S
O33 Cd34 2.300 . S
O33 C40 1.275 . S
Cd34 O33 2.300 . S
Cd34 O42 2.381 . S
Cd34 O43 2.378 . S
O35 Cd36 2.385 . S
O35 C40 1.255 . S
Cd36 O35 2.385 . S
Cd36 O37 2.317 . S
O37 Cd36 2.317 . S
O37 C38 1.232 . S
C38 O37 1.232 . S
C38 O39 1.218 . S
O39 C38 1.218 . S
C40 O33 1.275 . S
C40 O35 1.255 . S
C41 O42 1.258 . S
C41 O43 1.256 . S
O42 Cd34 2.381 . S
O42 C41 1.258 . S
O43 Cd34 2.378 . S
O43 C41 1.256 . S
O44 Cd45 2.300 . S
O44 C51 1.275 . S
Cd45 O44 2.300 . S
Cd45 O53 2.381 . S
Cd45 O54 2.378 . S
O46 Cd47 2.385 1_554 S
O46 C51 1.255 . S
Cd47 O46 2.385 1_556 S
Cd47 O48 2.317 . S
O48 Cd47 2.317 . S
O48 C49 1.232 . S
C49 O48 1.232 . S
C49 O50 1.218 . S
O50 C49 1.218 . S
C51 O44 1.275 . S
C51 O46 1.255 . S
C52 O53 1.258 . S
C52 O54 1.256 . S
O53 Cd45 2.381 . S
O53 C52 1.258 . S
O54 Cd45 2.378 . S
O54 C52 1.256 . S
O55 Cd56 2.300 . S
O55 C62 1.275 . S
Cd56 O55 2.300 . S
Cd56 O64 2.381 . S
Cd56 O65 2.378 . S
O57 Cd58 2.385 1_554 S
O57 C62 1.255 . S
Cd58 O57 2.385 1_556 S
Cd58 O59 2.317 . S
O59 Cd58 2.317 . S
O59 C60 1.232 . S
C60 O59 1.232 . S
C60 O61 1.218 . S
O61 C60 1.218 . S
C62 O55 1.275 . S
C62 O57 1.255 . S
C63 O64 1.258 . S
C63 O65 1.256 . S
O64 Cd56 2.381 . S
O64 C63 1.258 . S
O65 Cd56 2.378 . S
O65 C63 1.256 . S
O66 Cd67 2.300 . S
O66 C73 1.275 . S
Cd67 O66 2.300 . S
Cd67 O75 2.381 . S
Cd67 O76 2.378 . S
O68 Cd69 2.385 1_554 S
O68 C73 1.255 . S
Cd69 O68 2.385 1_556 S
Cd69 O70 2.317 . S
O70 Cd69 2.317 . S
O70 C71 1.232 . S
C71 O70 1.232 . S
C71 O72 1.218 . S
O72 C71 1.218 . S
C73 O66 1.275 . S
C73 O68 1.255 . S
C74 O75 1.258 . S
C74 O76 1.256 . S
O75 Cd67 2.381 . S
O75 C74 1.258 . S
O76 Cd67 2.378 . S
O76 C74 1.256 . S
O77 Cd78 2.300 . S
O77 C84 1.275 . S
Cd78 O77 2.300 . S
Cd78 O86 2.381 . S
Cd78 O87 2.378 . S
O79 Cd80 2.385 1_554 S
O79 C84 1.255 . S
Cd80 O79 2.385 1_556 S
Cd80 O81 2.317 . S
O81 Cd80 2.317 . S
O81 C82 1.232 . S
C82 O81 1.232 . S
C82 O83 1.218 . S
O83 C82 1.218 . S
C84 O77 1.275 . S
C84 O79 1.255 . S
C85 O86 1.258 . S
C85 O87 1.256 . S
O86 Cd78 2.381 . S
O86 C85 1.258 . S
O87 Cd78 2.378 . S
O87 C85 1.256 . S
Gd88 C91 2.818 . S
Gd88 O108 2.377 . S
Gd88 O110 2.448 . S
Gd88 O111 2.506 . S
Gd88 O112 2.435 . S
Gd88 O113 2.717 1_565 S
Gd88 O115 2.395 1_565 S
Gd88 O119 2.323 1_465 S
Gd89 C100 2.818 . S
Gd89 O109 2.395 1_545 S
Gd89 O113 2.327 1_655 S
Gd89 O114 2.389 . S
Gd89 O116 2.448 . S
Gd89 O117 2.506 1_655 S
Gd89 O118 2.435 . S
Gd89 O119 2.726 . S
C90 O108 1.240 1_655 S
C90 O109 1.240 . S
C91 Gd88 2.818 . S
C91 C92 1.510 . S
C91 O110 1.249 . S
C91 O111 1.252 . S
C92 C91 1.510 . S
C92 C93 1.404 . S
C92 C94 1.352 . S
C93 C92 1.404 . S
C93 C97 1.389 . S
C93 H120 0.930 . S
C94 C92 1.352 . S
C94 C96 1.374 . S
C94 H121 0.931 1_455 S
C95 C96 1.359 . S
C95 C97 1.364 . S
C96 C94 1.374 . S
C96 C95 1.359 . S
C96 H122 0.931 1_455 S
C97 C93 1.389 . S
C97 C95 1.364 . S
C97 H123 0.931 . S
C98 O112 1.256 1_545 S
C98 O113 1.257 . S
C99 O114 1.204 1_455 S
C99 O115 1.240 . S
C100 Gd89 2.818 . S
C100 C101 1.510 . S
C100 O116 1.249 . S
C100 O117 1.252 1_655 S
C101 C100 1.510 . S
C101 C102 1.404 . S
C101 C103 1.352 1_655 S
C102 C101 1.404 . S
C102 C106 1.389 . S
C102 H124 0.930 . S
C103 C101 1.352 1_455 S
C103 C105 1.374 . S
C103 H125 0.931 . S
C104 C105 1.359 1_655 S
C104 C106 1.364 . S
C105 C103 1.374 . S
C105 C104 1.359 1_455 S
C105 H126 0.931 . S
C106 C102 1.389 . S
C106 C104 1.364 . S
C106 H127 0.931 . S
C107 O118 1.256 . S
C107 O119 1.264 . S
O108 Gd88 2.377 . S
O108 C90 1.240 1_455 S
O109 Gd89 2.395 1_565 S
O109 C90 1.240 . S
O110 Gd88 2.448 . S
O110 C91 1.249 . S
O111 Gd88 2.506 . S
O111 C91 1.252 . S
O112 Gd88 2.435 . S
O112 C98 1.256 1_565 S
O113 Gd88 2.717 1_545 S
O113 Gd89 2.327 1_455 S
O113 C98 1.257 . S
O114 Gd89 2.389 . S
O114 C99 1.204 1_655 S
O115 Gd88 2.395 1_545 S
O115 C99 1.240 . S
O116 Gd89 2.448 . S
O116 C100 1.249 . S
O117 Gd89 2.506 1_455 S
O117 C100 1.252 1_455 S
O118 Gd89 2.435 . S
O118 C107 1.256 . S
O119 Gd88 2.323 1_645 S
O119 Gd89 2.726 . S
O119 C107 1.264 . S
H120 C93 0.930 . S
H121 C94 0.931 1_655 S
H122 C96 0.931 1_655 S
H123 C97 0.931 . S
H124 C102 0.930 . S
H125 C103 0.931 . S
H126 C105 0.931 . S
H127 C106 0.931 . S
Gd128 C131 2.818 . S
Gd128 O148 2.377 . S
Gd128 O150 2.448 . S
Gd128 O151 2.506 . S
Gd128 O152 2.435 . S
Gd128 O153 2.717 . S
Gd128 O155 2.395 . S
Gd128 O159 2.327 1_545 S
Gd129 C140 2.818 . S
Gd129 O149 2.395 . S
Gd129 O153 2.327 1_565 S
Gd129 O154 2.390 . S
Gd129 O156 2.448 . S
Gd129 O157 2.506 1_565 S
Gd129 O158 2.435 . S
Gd129 O159 2.717 . S
C130 O148 1.240 1_565 S
C130 O149 1.240 . S
C131 Gd128 2.818 . S
C131 C132 1.510 . S
C131 O150 1.249 . S
C131 O151 1.252 . S
C132 C131 1.510 . S
C132 C133 1.404 . S
C132 C134 1.352 . S
C133 C132 1.404 . S
C133 C137 1.389 . S
C133 H160 0.930 . S
C134 C132 1.352 . S
C134 C136 1.374 . S
C134 H161 0.931 1_545 S
C135 C136 1.359 . S
C135 C137 1.364 . S
C136 C134 1.374 . S
C136 C135 1.359 . S
C136 H162 0.931 1_545 S
C137 C133 1.389 . S
C137 C135 1.364 . S
C137 H163 0.931 . S
C138 O152 1.256 . S
C138 O153 1.257 . S
C139 O154 1.202 1_545 S
C139 O155 1.240 . S
C140 Gd129 2.818 . S
C140 C141 1.510 . S
C140 O156 1.249 . S
C140 O157 1.252 1_565 S
C141 C140 1.510 . S
C141 C142 1.404 . S
C141 C143 1.352 1_565 S
C142 C141 1.404 . S
C142 C146 1.389 . S
C142 H164 0.930 . S
C143 C141 1.352 1_545 S
C143 C145 1.374 . S
C143 H165 0.931 . S
C144 C145 1.359 1_565 S
C144 C146 1.364 . S
C145 C143 1.374 . S
C145 C144 1.359 1_545 S
C145 H166 0.931 . S
C146 C142 1.389 . S
C146 C144 1.364 . S
C146 H167 0.931 . S
C147 O158 1.256 . S
C147 O159 1.257 . S
O148 Gd128 2.377 . S
O148 C130 1.240 1_545 S
O149 Gd129 2.395 . S
O149 C130 1.240 . S
O150 Gd128 2.448 . S
O150 C131 1.249 . S
O151 Gd128 2.506 . S
O151 C131 1.252 . S
O152 Gd128 2.435 . S
O152 C138 1.256 . S
O153 Gd128 2.717 . S
O153 Gd129 2.327 1_545 S
O153 C138 1.257 . S
O154 Gd129 2.390 . S
O154 C139 1.202 1_565 S
O155 Gd128 2.395 . S
O155 C139 1.240 . S
O156 Gd129 2.448 . S
O156 C140 1.249 . S
O157 Gd129 2.506 1_545 S
O157 C140 1.252 1_545 S
O158 Gd129 2.435 . S
O158 C147 1.256 . S
O159 Gd128 2.327 1_565 S
O159 Gd129 2.717 . S
O159 C147 1.257 . S
H160 C133 0.930 . S
H161 C134 0.931 1_565 S
H162 C136 0.931 1_565 S
H163 C137 0.931 . S
H164 C142 0.930 . S
H165 C143 0.931 . S
H166 C145 0.931 . S
H167 C146 0.931 . S
Gd168 C171 2.818 . S
Gd168 O188 2.377 . S
Gd168 O190 2.448 . S
Gd168 O191 2.506 . S
Gd168 O192 2.435 . S
Gd168 O193 2.717 . S
Gd168 O195 2.395 . S
Gd168 O199 2.327 . S
Gd169 C180 2.818 . S
Gd169 O189 2.395 . S
Gd169 O193 2.327 . S
Gd169 O194 2.377 . S
Gd169 O196 2.448 . S
Gd169 O197 2.506 . S
Gd169 O198 2.435 . S
Gd169 O199 2.717 . S
C170 O188 1.240 . S
C170 O189 1.240 . S
C171 Gd168 2.818 . S
C171 C172 1.510 . S
C171 O190 1.249 . S
C171 O191 1.252 . S
C172 C171 1.510 . S
C172 C173 1.404 . S
C172 C174 1.352 . S
C173 C172 1.404 . S
C173 C177 1.389 . S
C173 H200 0.930 . S
C174 C172 1.352 . S
C174 C176 1.374 . S
C174 H201 0.931 . S
C175 C176 1.359 . S
C175 C177 1.364 . S
C176 C174 1.374 . S
C176 C175 1.359 . S
C176 H202 0.931 . S
C177 C173 1.389 . S
C177 C175 1.364 . S
C177 H203 0.931 . S
C178 O192 1.256 . S
C178 O193 1.257 . S
C179 O194 1.240 . S
C179 O195 1.240 . S
C180 Gd169 2.818 . S
C180 C181 1.510 . S
C180 O196 1.249 . S
C180 O197 1.252 . S
C181 C180 1.510 . S
C181 C182 1.404 . S
C181 C183 1.352 . S
C182 C181 1.404 . S
C182 C186 1.389 . S
C182 H204 0.930 . S
C183 C181 1.352 . S
C183 C185 1.374 . S
C183 H205 0.931 . S
C184 C185 1.359 . S
C184 C186 1.364 . S
C185 C183 1.374 . S
C185 C184 1.359 . S
C185 H206 0.931 . S
C186 C182 1.389 . S
C186 C184 1.364 . S
C186 H207 0.931 . S
C187 O198 1.256 . S
C187 O199 1.257 . S
O188 Gd168 2.377 . S
O188 C170 1.240 . S
O189 Gd169 2.395 . S
O189 C170 1.240 . S
O190 Gd168 2.448 . S
O190 C171 1.249 . S
O191 Gd168 2.506 . S
O191 C171 1.252 . S
O192 Gd168 2.435 . S
O192 C178 1.256 . S
O193 Gd168 2.717 . S
O193 Gd169 2.327 . S
O193 C178 1.257 . S
O194 Gd169 2.377 . S
O194 C179 1.240 . S
O195 Gd168 2.395 . S
O195 C179 1.240 . S
O196 Gd169 2.448 . S
O196 C180 1.249 . S
O197 Gd169 2.506 . S
O197 C180 1.252 . S
O198 Gd169 2.435 . S
O198 C187 1.256 . S
O199 Gd168 2.327 . S
O199 Gd169 2.717 . S
O199 C187 1.257 . S
H200 C173 0.930 . S
H201 C174 0.931 . S
H202 C176 0.931 . S
H203 C177 0.931 . S
H204 C182 0.930 . S
H205 C183 0.931 . S
H206 C185 0.931 . S
H207 C186 0.931 . S
Gd208 C211 2.818 . S
Gd208 O228 2.377 . S
Gd208 O230 2.448 . S
Gd208 O231 2.506 . S
Gd208 O232 2.435 . S
Gd208 O233 2.717 1_655 S
Gd208 O235 2.395 1_655 S
Gd208 O239 2.321 1_655 S
Gd209 C220 2.818 . S
Gd209 O229 2.395 1_455 S
Gd209 O233 2.327 . S
Gd209 O234 2.377 . S
Gd209 O236 2.448 . S
Gd209 O237 2.506 . S
Gd209 O238 2.435 . S
Gd209 O239 2.731 . S
C210 O228 1.240 . S
C210 O229 1.240 . S
C211 Gd208 2.818 . S
C211 C212 1.510 . S
C211 O230 1.249 . S
C211 O231 1.252 . S
C212 C211 1.510 . S
C212 C213 1.404 . S
C212 C214 1.352 . S
C213 C212 1.404 . S
C213 C217 1.389 . S
C213 H240 0.930 . S
C214 C212 1.352 . S
C214 C216 1.374 . S
C214 H241 0.931 . S
C215 C216 1.359 . S
C215 C217 1.364 . S
C216 C214 1.374 . S
C216 C215 1.359 . S
C216 H242 0.931 . S
C217 C213 1.389 . S
C217 C215 1.364 . S
C217 H243 0.931 . S
C218 O232 1.256 1_455 S
C218 O233 1.257 . S
C219 O234 1.240 . S
C219 O235 1.240 . S
C220 Gd209 2.818 . S
C220 C221 1.510 . S
C220 O236 1.249 . S
C220 O237 1.252 . S
C221 C220 1.510 . S
C221 C222 1.404 . S
C221 C223 1.352 . S
C222 C221 1.404 . S
C222 C226 1.389 . S
C222 H244 0.930 . S
C223 C221 1.352 . S
C223 C225 1.374 . S
C223 H245 0.931 . S
C224 C225 1.359 . S
C224 C226 1.364 . S
C225 C223 1.374 . S
C225 C224 1.359 . S
C225 H246 0.931 . S
C226 C222 1.389 . S
C226 C224 1.364 . S
C226 H247 0.931 . S
C227 O238 1.256 . S
C227 O239 1.268 . S
O228 Gd208 2.377 . S
O228 C210 1.240 . S
O229 Gd209 2.395 1_655 S
O229 C210 1.240 . S
O230 Gd208 2.448 . S
O230 C211 1.249 . S
O231 Gd208 2.506 . S
O231 C211 1.252 . S
O232 Gd208 2.435 . S
O232 C218 1.256 1_655 S
O233 Gd208 2.717 1_455 S
O233 Gd209 2.327 . S
O233 C218 1.257 . S
O234 Gd209 2.377 . S
O234 C219 1.240 . S
O235 Gd208 2.395 1_455 S
O235 C219 1.240 . S
O236 Gd209 2.448 . S
O236 C220 1.249 . S
O237 Gd209 2.506 . S
O237 C220 1.252 . S
O238 Gd209 2.435 . S
O238 C227 1.256 . S
O239 Gd208 2.321 1_455 S
O239 Gd209 2.731 . S
O239 C227 1.268 . S
H240 C213 0.930 . S
H241 C214 0.931 . S
H242 C216 0.931 . S
H243 C217 0.931 . S
H244 C222 0.930 . S
H245 C223 0.931 . S
H246 C225 0.931 . S
H247 C226 0.931 . S
H248 C266 0.951 . S
H249 C268 0.951 . S
H250 C270 0.950 . S
H251 C271 0.950 . S
H252 C273 0.950 . S
H253 C276 0.950 . S
H254 C277 0.950 . S
H255 C279 0.950 . S
H256 C280 0.950 . S
H257 C281 0.951 . S
H258 C283 0.951 . S
H259 C285 0.950 . S
H260 C286 0.950 . S
H261 C288 0.950 . S
H262 C291 0.950 . S
H263 C292 0.950 . S
H264 C294 0.950 . S
H265 C295 0.950 . S
C266 H248 0.951 . S
C266 C267 1.366 . S
C266 C268 1.388 . S
C267 C266 1.366 . S
C267 C271 1.385 . S
C268 H249 0.951 . S
C268 C266 1.388 . S
C268 C269 1.366 . S
C269 C268 1.366 . S
C269 C270 1.414 . S
C269 C272 1.499 . S
C270 H250 0.950 . S
C270 C269 1.414 . S
C270 C271 1.374 . S
C271 H251 0.950 . S
C271 C267 1.385 . S
C271 C270 1.374 . S
C272 C269 1.499 . S
C272 C273 1.373 1_545 S
C272 C274 1.389 . S
C273 H252 0.950 . S
C273 C272 1.373 1_565 S
C273 C289 1.377 . S
C274 C272 1.389 . S
C274 C275 1.524 . S
C274 C288 1.377 . S
C275 C274 1.524 . S
C275 C276 1.397 . S
C275 C280 1.363 . S
C276 H253 0.950 . S
C276 C275 1.397 . S
C276 C277 1.334 . S
C277 H254 0.950 . S
C277 C276 1.334 . S
C277 C278 1.287 . S
C278 C277 1.287 . S
C278 C279 1.524 . S
C278 H297 0.913 . S
C279 H255 0.950 . S
C279 C278 1.524 . S
C279 C280 1.415 . S
C280 H256 0.950 . S
C280 C275 1.363 . S
C280 C279 1.415 . S
C281 H257 0.951 . S
C281 C282 1.366 . S
C281 C283 1.388 . S
C282 C281 1.366 . S
C282 C286 1.385 . S
C283 H258 0.951 . S
C283 C281 1.388 . S
C283 C284 1.366 . S
C284 C283 1.366 . S
C284 C285 1.414 . S
C284 C287 1.499 . S
C285 H259 0.950 . S
C285 C284 1.414 . S
C285 C286 1.374 . S
C286 H260 0.950 . S
C286 C282 1.385 . S
C286 C285 1.374 . S
C287 C284 1.499 . S
C287 C288 1.373 . S
C287 C289 1.389 1_545 S
C288 H261 0.950 . S
C288 C274 1.377 . S
C288 C287 1.373 . S
C289 C273 1.377 . S
C289 C287 1.389 1_565 S
C289 C290 1.524 . S
C290 C289 1.524 . S
C290 C291 1.397 . S
C290 C295 1.363 . S
C291 H262 0.950 . S
C291 C290 1.397 . S
C291 C292 1.334 . S
C292 H263 0.950 . S
C292 C291 1.334 . S
C292 C293 1.287 . S
C293 C292 1.287 . S
C293 C294 1.524 . S
C293 H296 0.999 . S
C294 H264 0.950 . S
C294 C293 1.524 . S
C294 C295 1.415 . S
C295 H265 0.950 . S
C295 C290 1.363 . S
C295 C294 1.415 . S
H296 C293 0.999 . S
H297 C278 0.913 . S
H298 C316 0.951 . S
H299 C318 0.951 . S
H300 C320 0.950 . S
H301 C321 0.950 . S
H302 C323 0.950 . S
H303 C326 0.950 . S
H304 C327 0.950 . S
H305 C329 0.950 . S
H306 C330 0.950 . S
H307 C331 0.951 . S
H308 C333 0.951 . S
H309 C335 0.950 . S
H310 C336 0.950 . S
H311 C338 0.950 . S
H312 C341 0.950 . S
H313 C342 0.950 . S
H314 C344 0.950 . S
H315 C345 0.950 . S
C316 H298 0.951 . S
C316 C317 1.366 . S
C316 C318 1.388 . S
C317 C316 1.366 . S
C317 C321 1.385 . S
C318 H299 0.951 . S
C318 C316 1.388 . S
C318 C319 1.366 . S
C319 C318 1.366 . S
C319 C320 1.414 . S
C319 C322 1.499 . S
C320 H300 0.950 . S
C320 C319 1.414 . S
C320 C321 1.374 . S
C321 H301 0.950 . S
C321 C317 1.385 . S
C321 C320 1.374 . S
C322 C319 1.499 . S
C322 C323 1.373 . S
C322 C324 1.389 . S
C323 H302 0.950 . S
C323 C322 1.373 . S
C323 C339 1.377 . S
C324 C322 1.389 . S
C324 C325 1.524 . S
C324 C338 1.377 . S
C325 C324 1.524 . S
C325 C326 1.397 . S
C325 C330 1.363 . S
C326 H303 0.950 . S
C326 C325 1.397 . S
C326 C327 1.334 . S
C327 H304 0.950 . S
C327 C326 1.334 . S
C327 C328 1.287 . S
C328 C327 1.287 . S
C328 C329 1.524 . S
C328 H347 0.913 . S
C329 H305 0.950 . S
C329 C328 1.524 . S
C329 C330 1.415 . S
C330 H306 0.950 . S
C330 C325 1.363 . S
C330 C329 1.415 . S
C331 H307 0.951 . S
C331 C332 1.366 . S
C331 C333 1.388 . S
C332 C331 1.366 . S
C332 C336 1.385 . S
C333 H308 0.951 . S
C333 C331 1.388 . S
C333 C334 1.366 . S
C334 C333 1.366 . S
C334 C335 1.414 . S
C334 C337 1.499 . S
C335 H309 0.950 . S
C335 C334 1.414 . S
C335 C336 1.374 . S
C336 H310 0.950 . S
C336 C332 1.385 . S
C336 C335 1.374 . S
C337 C334 1.499 . S
C337 C338 1.373 . S
C337 C339 1.389 . S
C338 H311 0.950 . S
C338 C324 1.377 . S
C338 C337 1.373 . S
C339 C323 1.377 . S
C339 C337 1.389 . S
C339 C340 1.524 . S
C340 C339 1.524 . S
C340 C341 1.397 . S
C340 C345 1.363 . S
C341 H312 0.950 . S
C341 C340 1.397 . S
C341 C342 1.334 . S
C342 H313 0.950 . S
C342 C341 1.334 . S
C342 C343 1.287 . S
C343 C342 1.287 . S
C343 C344 1.524 . S
C343 H346 0.999 . S
C344 H314 0.950 . S
C344 C343 1.524 . S
C344 C345 1.415 . S
C345 H315 0.950 . S
C345 C340 1.363 . S
C345 C344 1.415 . S
H346 C343 0.999 . S
H347 C328 0.913 . S
H348 C366 0.951 . S
H349 C368 0.951 . S
H350 C370 0.950 . S
H351 C371 0.950 . S
H352 C373 0.950 . S
H353 C376 0.950 . S
H354 C377 0.950 . S
H355 C379 0.950 . S
H356 C380 0.950 . S
H357 C381 0.951 . S
H358 C383 0.951 . S
H359 C385 0.950 . S
H360 C386 0.950 . S
H361 C388 0.950 . S
H362 C391 0.950 . S
H363 C392 0.950 . S
H364 C394 0.950 . S
H365 C395 0.950 . S
C366 H348 0.951 . S
C366 C367 1.366 . S
C366 C368 1.388 . S
C367 C366 1.366 . S
C367 C371 1.385 . S
C368 H349 0.951 . S
C368 C366 1.388 . S
C368 C369 1.366 . S
C369 C368 1.366 . S
C369 C370 1.414 . S
C369 C372 1.499 . S
C370 H350 0.950 . S
C370 C369 1.414 . S
C370 C371 1.374 . S
C371 H351 0.950 . S
C371 C367 1.385 . S
C371 C370 1.374 . S
C372 C369 1.499 . S
C372 C373 1.373 . S
C372 C374 1.389 . S
C373 H352 0.950 . S
C373 C372 1.373 . S
C373 C389 1.377 . S
C374 C372 1.389 . S
C374 C375 1.524 . S
C374 C388 1.377 . S
C375 C374 1.524 . S
C375 C376 1.397 . S
C375 C380 1.363 . S
C376 H353 0.950 . S
C376 C375 1.397 . S
C376 C377 1.334 . S
C377 H354 0.950 . S
C377 C376 1.334 . S
C377 C378 1.287 . S
C378 C377 1.287 . S
C378 C379 1.524 . S
C378 H397 0.913 . S
C379 H355 0.950 . S
C379 C378 1.524 . S
C379 C380 1.415 . S
C380 H356 0.950 . S
C380 C375 1.363 . S
C380 C379 1.415 . S
C381 H357 0.951 . S
C381 C382 1.366 . S
C381 C383 1.388 . S
C382 C381 1.366 . S
C382 C386 1.385 . S
C383 H358 0.951 . S
C383 C381 1.388 . S
C383 C384 1.366 . S
C384 C383 1.366 . S
C384 C385 1.414 . S
C384 C387 1.499 . S
C385 H359 0.950 . S
C385 C384 1.414 . S
C385 C386 1.374 . S
C386 H360 0.950 . S
C386 C382 1.385 . S
C386 C385 1.374 . S
C387 C384 1.499 . S
C387 C388 1.373 . S
C387 C389 1.389 . S
C388 H361 0.950 . S
C388 C374 1.377 . S
C388 C387 1.373 . S
C389 C373 1.377 . S
C389 C387 1.389 . S
C389 C390 1.524 . S
C390 C389 1.524 . S
C390 C391 1.397 . S
C390 C395 1.363 . S
C391 H362 0.950 . S
C391 C390 1.397 . S
C391 C392 1.334 . S
C392 H363 0.950 . S
C392 C391 1.334 . S
C392 C393 1.287 . S
C393 C392 1.287 . S
C393 C394 1.524 . S
C393 H396 0.999 . S
C394 H364 0.950 . S
C394 C393 1.524 . S
C394 C395 1.415 . S
C395 H365 0.950 . S
C395 C390 1.363 . S
C395 C394 1.415 . S
H396 C393 0.999 . S
H397 C378 0.913 . S
H398 C416 0.951 . S
H399 C418 0.951 . S
H400 C420 0.950 . S
H401 C421 0.950 . S
H402 C423 0.950 . S
H403 C426 0.987 . S
H404 C427 0.950 . S
H405 C429 0.950 . S
H406 C430 0.950 . S
H407 C431 0.951 . S
H408 C433 0.951 . S
H409 C435 0.950 . S
H410 C436 0.950 . S
H411 C438 0.950 . S
H412 C441 0.950 . S
H413 C442 0.950 . S
H414 C444 0.950 . S
H415 C445 0.950 . S
C416 H398 0.951 . S
C416 C417 1.366 . S
C416 C418 1.388 . S
C417 C416 1.366 . S
C417 C421 1.385 1_455 S
C418 H399 0.951 . S
C418 C416 1.388 . S
C418 C419 1.366 . S
C419 C418 1.366 . S
C419 C420 1.414 1_455 S
C419 C422 1.499 . S
C420 H400 0.950 . S
C420 C419 1.414 1_655 S
C420 C421 1.374 . S
C421 H401 0.950 . S
C421 C417 1.385 1_655 S
C421 C420 1.374 . S
C422 C419 1.499 . S
C422 C423 1.373 . S
C422 C424 1.389 . S
C423 H402 0.950 . S
C423 C422 1.373 . S
C423 C439 1.377 . S
C424 C422 1.389 . S
C424 C425 1.524 . S
C424 C438 1.377 . S
C425 C424 1.524 . S
C425 C426 1.360 1_455 S
C425 C430 1.363 . S
C426 H403 0.987 . S
C426 C425 1.360 1_655 S
C426 C427 1.336 . S
C427 H404 0.950 . S
C427 C426 1.336 . S
C427 C428 1.287 1_655 S
C428 C427 1.287 1_455 S
C428 C429 1.524 . S
C428 H447 0.913 . S
C429 H405 0.950 . S
C429 C428 1.524 . S
C429 C430 1.415 . S
C430 H406 0.950 . S
C430 C425 1.363 . S
C430 C429 1.415 . S
C431 H407 0.951 . S
C431 C432 1.366 1_655 S
C431 C433 1.388 . S
C432 C431 1.366 1_455 S
C432 C436 1.385 . S
C433 H408 0.951 . S
C433 C431 1.388 . S
C433 C434 1.366 1_655 S
C434 C433 1.366 1_455 S
C434 C435 1.414 . S
C434 C437 1.499 . S
C435 H409 0.950 . S
C435 C434 1.414 . S
C435 C436 1.374 . S
C436 H410 0.950 . S
C436 C432 1.385 . S
C436 C435 1.374 . S
C437 C434 1.499 . S
C437 C438 1.373 . S
C437 C439 1.389 . S
C438 H411 0.950 . S
C438 C424 1.377 . S
C438 C437 1.373 . S
C439 C423 1.377 . S
C439 C437 1.389 . S
C439 C440 1.524 . S
C440 C439 1.524 . S
C440 C441 1.397 . S
C440 C445 1.363 1_455 S
C441 H412 0.950 . S
C441 C440 1.397 . S
C441 C442 1.334 . S
C442 H413 0.950 . S
C442 C441 1.334 . S
C442 C443 1.287 . S
C443 C442 1.287 . S
C443 C444 1.524 1_455 S
C443 H446 0.999 . S
C444 H414 0.950 . S
C444 C443 1.524 1_655 S
C444 C445 1.415 . S
C445 H415 0.950 . S
C445 C440 1.363 1_655 S
C445 C444 1.415 . S
H446 C443 0.999 . S
H447 C428 0.913 . S
H448 C466 0.951 . S
H449 C468 0.951 . S
H450 C470 0.950 . S
H451 C471 0.950 . S
H452 C473 0.950 . S
H453 C476 0.950 . S
H454 C477 0.951 . S
H455 C479 0.950 . S
H456 C480 0.950 . S
H457 C481 0.951 . S
H458 C483 0.951 . S
H459 C485 0.950 . S
H460 C486 0.950 . S
H461 C488 0.950 . S
H462 C491 0.950 . S
H463 C492 0.950 . S
H464 C494 0.950 . S
H465 C495 0.950 . S
C466 H448 0.951 . S
C466 C467 1.366 1_545 S
C466 C468 1.388 . S
C467 C466 1.366 1_565 S
C467 C471 1.385 . S
C468 H449 0.951 . S
C468 C466 1.388 . S
C468 C469 1.366 1_545 S
C469 C468 1.366 1_565 S
C469 C470 1.414 . S
C469 C472 1.501 . S
C470 H450 0.950 . S
C470 C469 1.414 . S
C470 C471 1.374 . S
C471 H451 0.950 . S
C471 C467 1.385 . S
C471 C470 1.374 . S
C472 C469 1.501 . S
C472 C473 1.424 . S
C472 C474 1.339 1_564 S
C473 H452 0.950 . S
C473 C472 1.424 . S
C473 C489 1.377 1_554 S
C474 C472 1.339 1_546 S
C474 C475 1.524 1_556 S
C474 C488 1.377 . S
C475 C474 1.524 1_554 S
C475 C476 1.397 1_554 S
C475 C480 1.363 . S
C476 H453 0.950 . S
C476 C475 1.397 1_556 S
C476 C477 1.334 1_556 S
C477 H454 0.951 . S
C477 C476 1.334 1_554 S
C477 C478 1.287 . S
C478 C477 1.287 . S
C478 C479 1.524 . S
C478 H497 0.913 . S
C479 H455 0.950 . S
C479 C478 1.524 . S
C479 C480 1.415 . S
C480 H456 0.950 . S
C480 C475 1.363 . S
C480 C479 1.415 . S
C481 H457 0.951 . S
C481 C482 1.366 1_565 S
C481 C483 1.388 . S
C482 C481 1.366 1_545 S
C482 C486 1.385 . S
C483 H458 0.951 . S
C483 C481 1.388 . S
C483 C484 1.359 1_565 S
C484 C483 1.359 1_545 S
C484 C485 1.422 . S
C484 C487 1.498 1_545 S
C485 H459 0.950 . S
C485 C484 1.422 . S
C485 C486 1.374 . S
C486 H460 0.950 . S
C486 C482 1.385 . S
C486 C485 1.374 . S
C487 C484 1.498 1_565 S
C487 C488 1.371 1_565 S
C487 C489 1.392 . S
C488 H461 0.950 . S
C488 C474 1.377 . S
C488 C487 1.371 1_545 S
C489 C473 1.377 1_556 S
C489 C487 1.392 . S
C489 C490 1.524 . S
C490 C489 1.524 . S
C490 C491 1.397 . S
C490 C495 1.363 . S
C491 H462 0.950 . S
C491 C490 1.397 . S
C491 C492 1.334 . S
C492 H463 0.950 . S
C492 C491 1.334 . S
C492 C493 1.287 . S
C493 C492 1.287 . S
C493 C494 1.524 . S
C493 H496 0.999 . S
C494 H464 0.950 . S
C494 C493 1.524 . S
C494 C495 1.415 . S
C495 H465 0.950 . S
C495 C490 1.363 . S
C495 C494 1.415 . S
H496 C493 0.999 . S
H497 C478 0.913 . S
H498 C516 0.951 . S
H499 C518 0.951 . S
H500 C520 0.950 . S
H501 C521 0.950 . S
H502 C523 0.950 . S
H503 C526 0.950 . S
H504 C527 0.950 . S
H505 C529 0.950 . S
H506 C530 0.950 . S
H507 C531 0.951 . S
H508 C533 0.951 . S
H509 C535 0.950 . S
H510 C536 0.950 . S
H511 C538 0.950 . S
H512 C541 0.949 1_556 S
H513 C542 0.950 . S
H514 C544 0.950 . S
H515 C545 0.950 . S
C516 H498 0.951 . S
C516 C517 1.366 . S
C516 C518 1.388 . S
C517 C516 1.366 . S
C517 C521 1.385 . S
C518 H499 0.951 . S
C518 C516 1.388 . S
C518 C519 1.366 . S
C519 C518 1.366 . S
C519 C520 1.414 . S
C519 C522 1.499 . S
C520 H500 0.950 . S
C520 C519 1.414 . S
C520 C521 1.374 . S
C521 H501 0.950 . S
C521 C517 1.385 . S
C521 C520 1.374 . S
C522 C519 1.499 . S
C522 C523 1.373 . S
C522 C524 1.389 1_554 S
C523 H502 0.950 . S
C523 C522 1.373 . S
C523 C539 1.377 1_554 S
C524 C522 1.389 1_556 S
C524 C525 1.524 . S
C524 C538 1.377 . S
C525 C524 1.524 . S
C525 C526 1.397 . S
C525 C530 1.363 . S
C526 H503 0.950 . S
C526 C525 1.397 . S
C526 C527 1.334 . S
C527 H504 0.950 . S
C527 C526 1.334 . S
C527 C528 1.287 . S
C528 C527 1.287 . S
C528 C529 1.524 . S
C528 H547 0.913 . S
C529 H505 0.950 . S
C529 C528 1.524 . S
C529 C530 1.415 . S
C530 H506 0.950 . S
C530 C525 1.363 . S
C530 C529 1.415 . S
C531 H507 0.951 . S
C531 C532 1.366 . S
C531 C533 1.388 . S
C532 C531 1.366 . S
C532 C536 1.385 . S
C533 H508 0.951 . S
C533 C531 1.388 . S
C533 C534 1.366 . S
C534 C533 1.366 . S
C534 C535 1.414 . S
C534 C537 1.499 . S
C535 H509 0.950 . S
C535 C534 1.414 . S
C535 C536 1.374 . S
C536 H510 0.950 . S
C536 C532 1.385 . S
C536 C535 1.374 . S
C537 C534 1.499 . S
C537 C538 1.373 . S
C537 C539 1.389 . S
C538 H511 0.950 . S
C538 C524 1.377 . S
C538 C537 1.373 . S
C539 C523 1.377 1_556 S
C539 C537 1.389 . S
C539 C540 1.524 . S
C540 C539 1.524 . S
C540 C541 1.397 1_556 S
C540 C545 1.363 . S
C541 H512 0.949 1_554 S
C541 C540 1.397 1_554 S
C541 C542 1.334 . S
C542 H513 0.950 . S
C542 C541 1.334 . S
C542 C543 1.287 . S
C543 C542 1.287 . S
C543 C544 1.524 . S
C543 H546 0.999 . S
C544 H514 0.950 . S
C544 C543 1.524 . S
C544 C545 1.415 1_554 S
C545 H515 0.950 . S
C545 C540 1.363 . S
C545 C544 1.415 1_556 S
H546 C543 0.999 . S
H547 C528 0.913 . S
H548 C566 0.951 . S
H549 C568 0.951 . S
H550 C570 0.950 . S
H551 C571 0.950 . S
H552 C573 0.950 . S
H553 C576 0.950 . S
H554 C577 0.950 . S
H555 C579 0.950 . S
H556 C580 0.950 1_556 S
H557 C581 0.951 . S
H558 C583 0.951 . S
H559 C585 0.950 . S
H560 C586 0.950 . S
H561 C588 0.950 . S
H562 C591 0.950 . S
H563 C592 0.950 . S
H564 C594 0.950 . S
H565 C595 0.950 . S
C566 H548 0.951 . S
C566 C567 1.366 . S
C566 C568 1.388 . S
C567 C566 1.366 . S
C567 C571 1.385 . S
C568 H549 0.951 . S
C568 C566 1.388 . S
C568 C569 1.366 . S
C569 C568 1.366 . S
C569 C570 1.414 . S
C569 C572 1.499 . S
C570 H550 0.950 . S
C570 C569 1.414 . S
C570 C571 1.374 . S
C571 H551 0.950 . S
C571 C567 1.385 . S
C571 C570 1.374 . S
C572 C569 1.499 . S
C572 C573 1.373 1_554 S
C572 C574 1.389 . S
C573 H552 0.950 . S
C573 C572 1.373 1_556 S
C573 C589 1.377 . S
C574 C572 1.389 . S
C574 C575 1.524 . S
C574 C588 1.377 1_554 S
C575 C574 1.524 . S
C575 C576 1.397 . S
C575 C580 1.363 . S
C576 H553 0.950 . S
C576 C575 1.397 . S
C576 C577 1.334 . S
C577 H554 0.950 . S
C577 C576 1.334 . S
C577 C578 1.287 . S
C578 C577 1.287 . S
C578 C579 1.524 . S
C578 H597 0.913 . S
C579 H555 0.950 . S
C579 C578 1.524 . S
C579 C580 1.415 . S
C580 H556 0.950 1_554 S
C580 C575 1.363 . S
C580 C579 1.415 . S
C581 H557 0.951 . S
C581 C582 1.366 . S
C581 C583 1.388 . S
C582 C581 1.366 . S
C582 C586 1.385 . S
C583 H558 0.951 . S
C583 C581 1.388 . S
C583 C584 1.366 . S
C584 C583 1.366 . S
C584 C585 1.414 . S
C584 C587 1.499 . S
C585 H559 0.950 . S
C585 C584 1.414 . S
C585 C586 1.374 . S
C586 H560 0.950 . S
C586 C582 1.385 . S
C586 C585 1.374 . S
C587 C584 1.499 . S
C587 C588 1.373 . S
C587 C589 1.389 . S
C588 H561 0.950 . S
C588 C574 1.377 1_556 S
C588 C587 1.373 . S
C589 C573 1.377 . S
C589 C587 1.389 . S
C589 C590 1.524 . S
C590 C589 1.524 . S
C590 C591 1.397 . S
C590 C595 1.363 . S
C591 H562 0.950 . S
C591 C590 1.397 . S
C591 C592 1.334 . S
C592 H563 0.950 . S
C592 C591 1.334 . S
C592 C593 1.287 . S
C593 C592 1.287 . S
C593 C594 1.524 . S
C593 H596 0.999 . S
C594 H564 0.950 . S
C594 C593 1.524 . S
C594 C595 1.415 . S
C595 H565 0.950 . S
C595 C590 1.363 . S
C595 C594 1.415 . S
H596 C593 0.999 . S
H597 C578 0.913 . S
H598 C616 0.951 . S
H599 C618 0.951 . S
H600 C620 0.950 . S
H601 C621 0.950 . S
H602 C623 0.950 . S
H603 C626 0.950 . S
H604 C627 0.950 . S
H605 C629 0.950 . S
H606 C630 0.950 . S
H607 C631 0.951 . S
H608 C633 0.951 . S
H609 C635 0.950 . S
H610 C636 0.950 . S
H611 C638 0.950 . S
H612 C641 0.950 . S
H613 C642 0.950 . S
H614 C644 0.950 . S
H615 C645 0.950 . S
C616 H598 0.951 . S
C616 C617 1.366 1_455 S
C616 C618 1.388 . S
C617 C616 1.366 1_655 S
C617 C621 1.385 . S
C618 H599 0.951 . S
C618 C616 1.388 . S
C618 C619 1.361 1_455 S
C619 C618 1.361 1_655 S
C619 C620 1.422 . S
C619 C622 1.498 1_655 S
C620 H600 0.950 . S
C620 C619 1.422 . S
C620 C621 1.374 . S
C621 H601 0.950 . S
C621 C617 1.385 . S
C621 C620 1.374 . S
C622 C619 1.498 1_455 S
C622 C623 1.373 1_454 S
C622 C624 1.390 . S
C623 H602 0.950 . S
C623 C622 1.373 1_656 S
C623 C639 1.377 . S
C624 C622 1.390 . S
C624 C625 1.524 . S
C624 C638 1.377 1_554 S
C625 C624 1.524 . S
C625 C626 1.397 . S
C625 C630 1.363 . S
C626 H603 0.950 . S
C626 C625 1.397 . S
C626 C627 1.334 . S
C627 H604 0.950 . S
C627 C626 1.334 . S
C627 C628 1.287 . S
C628 C627 1.287 . S
C628 C629 1.524 . S
C628 H647 0.913 . S
C629 H605 0.950 . S
C629 C628 1.524 . S
C629 C630 1.415 . S
C630 H606 0.950 . S
C630 C625 1.363 . S
C630 C629 1.415 . S
C631 H607 0.951 . S
C631 C632 1.366 1_655 S
C631 C633 1.388 . S
C632 C631 1.366 1_455 S
C632 C636 1.385 . S
C633 H608 0.951 . S
C633 C631 1.388 . S
C633 C634 1.364 1_655 S
C634 C633 1.364 1_455 S
C634 C635 1.417 . S
C634 C637 1.498 1_455 S
C635 H609 0.950 . S
C635 C634 1.417 . S
C635 C636 1.374 . S
C636 H610 0.950 . S
C636 C632 1.385 . S
C636 C635 1.374 . S
C637 C634 1.498 1_655 S
C637 C638 1.357 1_655 S
C637 C639 1.405 . S
C638 H611 0.950 . S
C638 C624 1.377 1_556 S
C638 C637 1.357 1_455 S
C639 C623 1.377 . S
C639 C637 1.405 . S
C639 C640 1.524 . S
C640 C639 1.524 . S
C640 C641 1.397 . S
C640 C645 1.363 . S
C641 H612 0.950 . S
C641 C640 1.397 . S
C641 C642 1.334 . S
C642 H613 0.950 . S
C642 C641 1.334 . S
C642 C643 1.287 . S
C643 C642 1.287 . S
C643 C644 1.524 . S
C643 H646 0.999 . S
C644 H614 0.950 . S
C644 C643 1.524 . S
C644 C645 1.415 . S
C645 H615 0.950 . S
C645 C640 1.363 . S
C645 C644 1.415 . S
H646 C643 0.999 . S
H647 C628 0.913 . S
H648 C666 0.951 . S
H649 C668 0.951 . S
H650 C670 0.950 . S
H651 C671 0.950 . S
H652 C673 0.950 . S
H653 C676 0.950 . S
H654 C677 0.950 . S
H655 C679 0.950 . S
H656 C680 0.950 . S
H657 C681 0.951 . S
H658 C683 0.951 . S
H659 C685 0.950 . S
H660 C686 0.950 . S
H661 C688 0.950 . S
H662 C691 0.950 . S
H663 C692 0.950 . S
H664 C694 0.950 . S
H665 C695 0.950 . S
C666 H648 0.951 . S
C666 C667 1.366 . S
C666 C668 1.388 . S
C667 C666 1.366 . S
C667 C671 1.385 . S
C668 H649 0.951 . S
C668 C666 1.388 . S
C668 C669 1.366 . S
C669 C668 1.366 . S
C669 C670 1.414 . S
C669 C672 1.499 . S
C670 H650 0.950 . S
C670 C669 1.414 . S
C670 C671 1.374 . S
C671 H651 0.950 . S
C671 C667 1.385 . S
C671 C670 1.374 . S
C672 C669 1.499 . S
C672 C673 1.373 . S
C672 C674 1.389 1_455 S
C673 H652 0.950 . S
C673 C672 1.373 . S
C673 C689 1.377 . S
C674 C672 1.389 1_655 S
C674 C675 1.524 . S
C674 C688 1.377 . S
C675 C674 1.524 . S
C675 C676 1.397 . S
C675 C680 1.363 . S
C676 H653 0.950 . S
C676 C675 1.397 . S
C676 C677 1.334 . S
C677 H654 0.950 . S
C677 C676 1.334 . S
C677 C678 1.287 . S
C678 C677 1.287 . S
C678 C679 1.524 . S
C678 H697 0.913 . S
C679 H655 0.950 . S
C679 C678 1.524 . S
C679 C680 1.415 . S
C680 H656 0.950 . S
C680 C675 1.363 . S
C680 C679 1.415 . S
C681 H657 0.951 . S
C681 C682 1.366 . S
C681 C683 1.388 . S
C682 C681 1.366 . S
C682 C686 1.385 . S
C683 H658 0.951 . S
C683 C681 1.388 . S
C683 C684 1.366 . S
C684 C683 1.366 . S
C684 C685 1.414 . S
C684 C687 1.499 . S
C685 H659 0.950 . S
C685 C684 1.414 . S
C685 C686 1.374 . S
C686 H660 0.950 . S
C686 C682 1.385 . S
C686 C685 1.374 . S
C687 C684 1.499 . S
C687 C688 1.373 . S
C687 C689 1.389 1_655 S
C688 H661 0.950 . S
C688 C674 1.377 . S
C688 C687 1.373 . S
C689 C673 1.377 . S
C689 C687 1.389 1_455 S
C689 C690 1.524 . S
C690 C689 1.524 . S
C690 C691 1.397 . S
C690 C695 1.363 . S
C691 H662 0.950 . S
C691 C690 1.397 . S
C691 C692 1.334 . S
C692 H663 0.950 . S
C692 C691 1.334 . S
C692 C693 1.287 . S
C693 C692 1.287 . S
C693 C694 1.524 . S
C693 H696 0.999 . S
C694 H664 0.950 . S
C694 C693 1.524 . S
C694 C695 1.415 . S
C695 H665 0.950 . S
C695 C690 1.363 . S
C695 C694 1.415 . S
H696 C693 0.999 . S
H697 C678 0.913 . S
H698 C716 0.951 . S
H699 C718 0.951 1_565 S
H700 C720 0.950 . S
H701 C721 0.950 . S
H702 C723 0.950 . S
H703 C726 0.950 . S
H704 C727 0.950 . S
H705 C729 0.950 . S
H706 C730 0.950 . S
H707 C731 0.951 . S
H708 C733 0.952 . S
H709 C735 0.950 . S
H710 C736 0.950 . S
H711 C738 0.950 . S
H712 C741 0.950 . S
H713 C742 0.950 . S
H714 C744 0.950 . S
H715 C745 0.950 . S
C716 H698 0.951 . S
C716 C717 1.366 . S
C716 C718 1.388 . S
C717 C716 1.366 . S
C717 C721 1.385 . S
C718 H699 0.951 1_545 S
C718 C716 1.388 . S
C718 C719 1.366 . S
C719 C718 1.366 . S
C719 C720 1.414 . S
C719 C722 1.499 . S
C720 H700 0.950 . S
C720 C719 1.414 . S
C720 C721 1.374 . S
C721 H701 0.950 . S
C721 C717 1.385 . S
C721 C720 1.374 . S
C722 C719 1.499 . S
C722 C723 1.373 . S
C722 C724 1.389 1_545 S
C723 H702 0.950 . S
C723 C722 1.373 . S
C723 C739 1.377 . S
C724 C722 1.389 1_565 S
C724 C725 1.524 . S
C724 C738 1.377 . S
C725 C724 1.524 . S
C725 C726 1.397 . S
C725 C730 1.363 . S
C726 H703 0.950 . S
C726 C725 1.397 . S
C726 C727 1.334 . S
C727 H704 0.950 . S
C727 C726 1.334 . S
C727 C728 1.287 . S
C728 C727 1.287 . S
C728 C729 1.524 . S
C728 H747 0.913 . S
C729 H705 0.950 . S
C729 C728 1.524 . S
C729 C730 1.415 . S
C730 H706 0.950 . S
C730 C725 1.363 . S
C730 C729 1.415 . S
C731 H707 0.951 . S
C731 C732 1.366 . S
C731 C733 1.388 . S
C732 C731 1.366 . S
C732 C736 1.385 . S
C733 H708 0.952 . S
C733 C731 1.388 . S
C733 C734 1.366 . S
C734 C733 1.366 . S
C734 C735 1.414 . S
C734 C737 1.499 . S
C735 H709 0.950 . S
C735 C734 1.414 . S
C735 C736 1.374 . S
C736 H710 0.950 . S
C736 C732 1.385 . S
C736 C735 1.374 . S
C737 C734 1.499 . S
C737 C738 1.373 . S
C737 C739 1.389 1_565 S
C738 H711 0.950 . S
C738 C724 1.377 . S
C738 C737 1.373 . S
C739 C723 1.377 . S
C739 C737 1.389 1_545 S
C739 C740 1.524 . S
C740 C739 1.524 . S
C740 C741 1.397 . S
C740 C745 1.363 . S
C741 H712 0.950 . S
C741 C740 1.397 . S
C741 C742 1.334 . S
C742 H713 0.950 . S
C742 C741 1.334 . S
C742 C743 1.287 . S
C743 C742 1.287 . S
C743 C744 1.524 . S
C743 H746 0.999 . S
C744 H714 0.950 . S
C744 C743 1.524 . S
C744 C745 1.415 . S
C745 H715 0.950 . S
C745 C740 1.363 . S
C745 C744 1.415 . S
H746 C743 0.999 . S
H747 C728 0.913 . S
H748 C766 0.951 . S
H749 C768 0.951 . S
H750 C770 0.950 . S
H751 C771 0.950 . S
H752 C773 0.950 . S
H753 C776 0.950 . S
H754 C777 0.950 . S
H755 C779 0.950 . S
H756 C780 0.950 . S
H757 C781 0.951 . S
H758 C783 0.951 . S
H759 C785 0.950 . S
H760 C786 0.950 . S
H761 C788 0.950 . S
H762 C791 0.950 . S
H763 C792 0.950 . S
H764 C794 0.950 . S
H765 C795 0.950 . S
C766 H748 0.951 . S
C766 C767 1.366 . S
C766 C768 1.388 . S
C767 C766 1.366 . S
C767 C771 1.385 . S
C768 H749 0.951 . S
C768 C766 1.388 . S
C768 C769 1.366 . S
C769 C768 1.366 . S
C769 C770 1.414 . S
C769 C772 1.499 . S
C770 H750 0.950 . S
C770 C769 1.414 . S
C770 C771 1.374 . S
C771 H751 0.950 . S
C771 C767 1.385 . S
C771 C770 1.374 . S
C772 C769 1.499 . S
C772 C773 1.373 . S
C772 C774 1.389 . S
C773 H752 0.950 . S
C773 C772 1.373 . S
C773 C789 1.377 . S
C774 C772 1.389 . S
C774 C775 1.524 . S
C774 C788 1.377 . S
C775 C774 1.524 . S
C775 C776 1.397 . S
C775 C780 1.363 . S
C776 H753 0.950 . S
C776 C775 1.397 . S
C776 C777 1.334 . S
C777 H754 0.950 . S
C777 C776 1.334 . S
C777 C778 1.287 . S
C778 C777 1.287 . S
C778 C779 1.524 . S
C778 H797 0.913 . S
C779 H755 0.950 . S
C779 C778 1.524 . S
C779 C780 1.415 . S
C780 H756 0.950 . S
C780 C775 1.363 . S
C780 C779 1.415 . S
C781 H757 0.951 . S
C781 C782 1.366 . S
C781 C783 1.388 . S
C782 C781 1.366 . S
C782 C786 1.385 . S
C783 H758 0.951 . S
C783 C781 1.388 . S
C783 C784 1.366 . S
C784 C783 1.366 . S
C784 C785 1.414 . S
C784 C787 1.499 . S
C785 H759 0.950 . S
C785 C784 1.414 . S
C785 C786 1.374 . S
C786 H760 0.950 . S
C786 C782 1.385 . S
C786 C785 1.374 . S
C787 C784 1.499 . S
C787 C788 1.373 . S
C787 C789 1.389 . S
C788 H761 0.950 . S
C788 C774 1.377 . S
C788 C787 1.373 . S
C789 C773 1.377 . S
C789 C787 1.389 . S
C789 C790 1.524 . S
C790 C789 1.524 . S
C790 C791 1.397 . S
C790 C795 1.363 . S
C791 H762 0.950 . S
C791 C790 1.397 . S
C791 C792 1.334 . S
C792 H763 0.950 . S
C792 C791 1.334 . S
C792 C793 1.287 . S
C793 C792 1.287 . S
C793 C794 1.524 . S
C793 H796 0.999 . S
C794 H764 0.950 . S
C794 C793 1.524 . S
C794 C795 1.415 . S
C795 H765 0.950 . S
C795 C790 1.363 . S
C795 C794 1.415 . S
H796 C793 0.999 . S
H797 C778 0.913 . S
H798 C816 0.951 . S
H799 C818 0.951 . S
H800 C820 0.950 . S
H801 C821 0.950 . S
H802 C823 0.950 . S
H803 C826 0.950 . S
H804 C827 0.950 . S
H805 C829 0.950 . S
H806 C830 0.950 . S
H807 C831 0.951 . S
H808 C833 0.951 . S
H809 C835 0.950 . S
H810 C836 0.950 . S
H811 C838 0.950 . S
H812 C841 0.950 . S
H813 C842 0.950 . S
H814 C844 0.950 . S
H815 C845 0.950 . S
C816 H798 0.951 . S
C816 C817 1.366 . S
C816 C818 1.388 . S
C817 C816 1.366 . S
C817 C821 1.385 . S
C818 H799 0.951 . S
C818 C816 1.388 . S
C818 C819 1.366 . S
C819 C818 1.366 . S
C819 C820 1.414 . S
C819 C822 1.499 . S
C820 H800 0.950 . S
C820 C819 1.414 . S
C820 C821 1.374 . S
C821 H801 0.950 . S
C821 C817 1.385 . S
C821 C820 1.374 . S
C822 C819 1.499 . S
C822 C823 1.373 . S
C822 C824 1.389 . S
C823 H802 0.950 . S
C823 C822 1.373 . S
C823 C839 1.377 . S
C824 C822 1.389 . S
C824 C825 1.524 . S
C824 C838 1.377 . S
C825 C824 1.524 . S
C825 C826 1.397 . S
C825 C830 1.363 . S
C826 H803 0.950 . S
C826 C825 1.397 . S
C826 C827 1.334 . S
C827 H804 0.950 . S
C827 C826 1.334 . S
C827 C828 1.287 . S
C828 C827 1.287 . S
C828 C829 1.524 . S
C828 H847 0.913 . S
C829 H805 0.950 . S
C829 C828 1.524 . S
C829 C830 1.415 . S
C830 H806 0.950 . S
C830 C825 1.363 . S
C830 C829 1.415 . S
C831 H807 0.951 . S
C831 C832 1.366 . S
C831 C833 1.388 . S
C832 C831 1.366 . S
C832 C836 1.385 . S
C833 H808 0.951 . S
C833 C831 1.388 . S
C833 C834 1.366 . S
C834 C833 1.366 . S
C834 C835 1.414 . S
C834 C837 1.499 . S
C835 H809 0.950 . S
C835 C834 1.414 . S
C835 C836 1.374 . S
C836 H810 0.950 . S
C836 C832 1.385 . S
C836 C835 1.374 . S
C837 C834 1.499 . S
C837 C838 1.373 . S
C837 C839 1.389 . S
C838 H811 0.950 . S
C838 C824 1.377 . S
C838 C837 1.373 . S
C839 C823 1.377 . S
C839 C837 1.389 . S
C839 C840 1.524 . S
C840 C839 1.524 . S
C840 C841 1.397 . S
C840 C845 1.363 . S
C841 H812 0.950 . S
C841 C840 1.397 . S
C841 C842 1.334 . S
C842 H813 0.950 . S
C842 C841 1.334 . S
C842 C843 1.287 . S
C843 C842 1.287 . S
C843 C844 1.524 . S
C843 H846 0.999 . S
C844 H814 0.950 . S
C844 C843 1.524 . S
C844 C845 1.415 . S
C845 H815 0.950 . S
C845 C840 1.363 . S
C845 C844 1.415 . S
H846 C843 0.999 . S
H847 C828 0.913 . S
H848 C866 0.951 . S
H849 C868 0.951 . S
H850 C870 0.950 . S
H851 C871 0.950 . S
H852 C873 0.950 1_556 S
H853 C876 0.950 . S
H854 C877 0.950 . S
H855 C879 0.950 . S
H856 C880 0.950 . S
H857 C881 0.951 . S
H858 C883 0.951 1_655 S
H859 C885 0.950 1_554 S
H860 C886 0.950 . S
H861 C888 0.950 . S
H862 C891 0.950 . S
H863 C892 0.950 . S
H864 C894 0.950 1_655 S
H865 C895 0.950 1_655 S
C866 H848 0.951 . S
C866 C867 1.366 1_455 S
C866 C868 1.388 . S
C867 C866 1.366 1_655 S
C867 C871 1.385 . S
C868 H849 0.951 . S
C868 C866 1.388 . S
C868 C869 1.366 . S
C869 C868 1.366 . S
C869 C870 1.414 1_455 S
C869 C872 1.499 . S
C870 H850 0.950 . S
C870 C869 1.414 1_655 S
C870 C871 1.374 . S
C871 H851 0.950 . S
C871 C867 1.385 . S
C871 C870 1.374 . S
C872 C869 1.499 . S
C872 C873 1.373 . S
C872 C874 1.389 . S
C873 H852 0.950 1_554 S
C873 C872 1.373 . S
C873 C889 1.377 1_554 S
C874 C872 1.389 . S
C874 C875 1.524 . S
C874 C888 1.377 . S
C875 C874 1.524 . S
C875 C876 1.397 1_455 S
C875 C880 1.363 . S
C876 H853 0.950 . S
C876 C875 1.397 1_655 S
C876 C877 1.334 . S
C877 H854 0.950 . S
C877 C876 1.334 . S
C877 C878 1.287 . S
C878 C877 1.287 . S
C878 C879 1.524 1_655 S
C878 H897 0.913 . S
C879 H855 0.950 . S
C879 C878 1.524 1_455 S
C879 C880 1.415 . S
C880 H856 0.950 . S
C880 C875 1.363 . S
C880 C879 1.415 . S
C881 H857 0.951 . S
C881 C882 1.366 . S
C881 C883 1.388 . S
C882 C881 1.366 . S
C882 C886 1.385 . S
C883 H858 0.951 1_455 S
C883 C881 1.388 . S
C883 C884 1.366 . S
C884 C883 1.366 . S
C884 C885 1.414 . S
C884 C887 1.499 1_556 S
C885 H859 0.950 1_556 S
C885 C884 1.414 . S
C885 C886 1.374 . S
C886 H860 0.950 . S
C886 C882 1.385 . S
C886 C885 1.374 . S
C887 C884 1.499 1_554 S
C887 C888 1.373 . S
C887 C889 1.389 1_554 S
C888 H861 0.950 . S
C888 C874 1.377 . S
C888 C887 1.373 . S
C889 C873 1.377 1_556 S
C889 C887 1.389 1_556 S
C889 C890 1.524 . S
C890 C889 1.524 . S
C890 C891 1.397 . S
C890 C895 1.363 . S
C891 H862 0.950 . S
C891 C890 1.397 . S
C891 C892 1.334 . S
C892 H863 0.950 . S
C892 C891 1.334 . S
C892 C893 1.287 . S
C893 C892 1.287 . S
C893 C894 1.524 . S
C893 H896 0.999 . S
C894 H864 0.950 1_455 S
C894 C893 1.524 . S
C894 C895 1.415 . S
C895 H865 0.950 1_455 S
C895 C890 1.363 . S
C895 C894 1.415 . S
H896 C893 0.999 . S
H897 C878 0.913 . S
H898 C916 0.951 . S
H899 C918 0.951 . S
H900 C920 0.950 . S
H901 C921 0.950 . S
H902 C923 0.950 . S
H903 C926 0.950 . S
H904 C927 0.950 1_556 S
H905 C929 0.950 . S
H906 C930 0.950 . S
H907 C931 0.951 . S
H908 C933 0.951 . S
H909 C935 0.950 1_564 S
H910 C936 0.950 . S
H911 C938 0.950 . S
H912 C941 0.950 . S
H913 C942 0.950 . S
H914 C944 0.950 . S
H915 C945 0.950 . S
C916 H898 0.951 . S
C916 C917 1.366 . S
C916 C918 1.388 . S
C917 C916 1.366 . S
C917 C921 1.385 1_565 S
C918 H899 0.951 . S
C918 C916 1.388 . S
C918 C919 1.366 1_565 S
C919 C918 1.366 1_545 S
C919 C920 1.414 . S
C919 C922 1.499 . S
C920 H900 0.950 . S
C920 C919 1.414 . S
C920 C921 1.374 . S
C921 H901 0.950 . S
C921 C917 1.385 1_545 S
C921 C920 1.374 . S
C922 C919 1.499 . S
C922 C923 1.373 . S
C922 C924 1.389 1_545 S
C923 H902 0.950 . S
C923 C922 1.373 . S
C923 C939 1.377 . S
C924 C922 1.389 1_565 S
C924 C925 1.524 . S
C924 C938 1.377 . S
C925 C924 1.524 . S
C925 C926 1.397 . S
C925 C930 1.363 . S
C926 H903 0.950 . S
C926 C925 1.397 . S
C926 C927 1.334 . S
C927 H904 0.950 1_554 S
C927 C926 1.334 . S
C927 C928 1.287 . S
C928 C927 1.287 . S
C928 C929 1.524 . S
C928 H947 0.913 . S
C929 H905 0.950 . S
C929 C928 1.524 . S
C929 C930 1.415 . S
C930 H906 0.950 . S
C930 C925 1.363 . S
C930 C929 1.415 . S
C931 H907 0.951 . S
C931 C932 1.366 . S
C931 C933 1.388 . S
C932 C931 1.366 . S
C932 C936 1.385 . S
C933 H908 0.951 . S
C933 C931 1.388 . S
C933 C934 1.366 . S
C934 C933 1.366 . S
C934 C935 1.414 . S
C934 C937 1.499 1_556 S
C935 H909 0.950 1_546 S
C935 C934 1.414 . S
C935 C936 1.374 . S
C936 H910 0.950 . S
C936 C932 1.385 . S
C936 C935 1.374 . S
C937 C934 1.499 1_554 S
C937 C938 1.373 1_545 S
C937 C939 1.389 . S
C938 H911 0.950 . S
C938 C924 1.377 . S
C938 C937 1.373 1_565 S
C939 C923 1.377 . S
C939 C937 1.389 . S
C939 C940 1.524 . S
C940 C939 1.524 . S
C940 C941 1.397 . S
C940 C945 1.363 . S
C941 H912 0.950 . S
C941 C940 1.397 . S
C941 C942 1.334 . S
C942 H913 0.950 . S
C942 C941 1.334 . S
C942 C943 1.287 . S
C943 C942 1.287 . S
C943 C944 1.524 . S
C943 H946 0.999 . S
C944 H914 0.950 . S
C944 C943 1.524 . S
C944 C945 1.415 . S
C945 H915 0.950 . S
C945 C940 1.363 . S
C945 C944 1.415 . S
H946 C943 0.999 . S
H947 C928 0.913 . S
H948 C966 0.951 . S
H949 C968 0.951 . S
H950 C970 0.950 . S
H951 C971 0.950 . S
H952 C973 0.950 1_556 S
H953 C976 0.950 . S
H954 C977 0.950 . S
H955 C979 0.950 . S
H956 C980 0.950 . S
H957 C981 0.951 . S
H958 C983 0.951 . S
H959 C985 0.950 1_554 S
H960 C986 0.950 . S
H961 C988 0.950 . S
H962 C991 0.950 . S
H963 C992 0.950 . S
H964 C994 0.950 . S
H965 C995 0.950 . S
C966 H948 0.951 . S
C966 C967 1.366 . S
C966 C968 1.388 . S
C967 C966 1.366 . S
C967 C971 1.385 . S
C968 H949 0.951 . S
C968 C966 1.388 . S
C968 C969 1.366 . S
C969 C968 1.366 . S
C969 C970 1.414 . S
C969 C972 1.499 . S
C970 H950 0.950 . S
C970 C969 1.414 . S
C970 C971 1.374 . S
C971 H951 0.950 . S
C971 C967 1.385 . S
C971 C970 1.374 . S
C972 C969 1.499 . S
C972 C973 1.373 . S
C972 C974 1.389 . S
C973 H952 0.950 1_554 S
C973 C972 1.373 . S
C973 C989 1.377 1_554 S
C974 C972 1.389 . S
C974 C975 1.524 . S
C974 C988 1.377 . S
C975 C974 1.524 . S
C975 C976 1.397 . S
C975 C980 1.363 . S
C976 H953 0.950 . S
C976 C975 1.397 . S
C976 C977 1.334 . S
C977 H954 0.950 . S
C977 C976 1.334 . S
C977 C978 1.287 . S
C978 C977 1.287 . S
C978 C979 1.524 . S
C978 H997 0.913 . S
C979 H955 0.950 . S
C979 C978 1.524 . S
C979 C980 1.415 . S
C980 H956 0.950 . S
C980 C975 1.363 . S
C980 C979 1.415 . S
C981 H957 0.951 . S
C981 C982 1.366 . S
C981 C983 1.388 . S
C982 C981 1.366 . S
C982 C986 1.385 . S
C983 H958 0.951 . S
C983 C981 1.388 . S
C983 C984 1.366 . S
C984 C983 1.366 . S
C984 C985 1.414 . S
C984 C987 1.499 1_556 S
C985 H959 0.950 1_556 S
C985 C984 1.414 . S
C985 C986 1.374 . S
C986 H960 0.950 . S
C986 C982 1.385 . S
C986 C985 1.374 . S
C987 C984 1.499 1_554 S
C987 C988 1.373 . S
C987 C989 1.389 1_554 S
C988 H961 0.950 . S
C988 C974 1.377 . S
C988 C987 1.373 . S
C989 C973 1.377 1_556 S
C989 C987 1.389 1_556 S
C989 C990 1.524 . S
C990 C989 1.524 . S
C990 C991 1.397 . S
C990 C995 1.363 . S
C991 H962 0.950 . S
C991 C990 1.397 . S
C991 C992 1.334 . S
C992 H963 0.950 . S
C992 C991 1.334 . S
C992 C993 1.287 . S
C993 C992 1.287 . S
C993 C994 1.524 . S
C993 H996 0.999 . S
C994 H964 0.950 . S
C994 C993 1.524 . S
C994 C995 1.415 . S
C995 H965 0.950 . S
C995 C990 1.363 . S
C995 C994 1.415 . S
H996 C993 0.999 . S
H997 C978 0.913 . S
H998 C1016 0.951 . S
H999 C1018 0.951 . S
H1000 C1020 0.950 . S
H1001 C1021 0.950 . S
H1002 C1023 0.950 . S
H1003 C1026 0.950 . S
H1004 C1027 0.950 . S
H1005 C1029 0.950 . S
H1006 C1030 0.950 . S
H1007 C1031 0.951 . S
H1008 C1033 0.951 . S
H1009 C1035 0.950 . S
H1010 C1036 0.950 . S
H1011 C1038 0.950 . S
H1012 C1041 0.950 . S
H1013 C1042 0.950 . S
H1014 C1044 0.950 . S
H1015 C1045 0.950 . S
C1016 H998 0.951 . S
C1016 C1017 1.366 . S
C1016 C1018 1.388 . S
C1017 C1016 1.366 . S
C1017 C1021 1.385 . S
C1018 H999 0.951 . S
C1018 C1016 1.388 . S
C1018 C1019 1.366 . S
C1019 C1018 1.366 . S
C1019 C1020 1.414 . S
C1019 C1022 1.499 . S
C1020 H1000 0.950 . S
C1020 C1019 1.414 . S
C1020 C1021 1.374 . S
C1021 H1001 0.950 . S
C1021 C1017 1.385 . S
C1021 C1020 1.374 . S
C1022 C1019 1.499 . S
C1022 C1023 1.373 . S
C1022 C1024 1.389 . S
C1023 H1002 0.950 . S
C1023 C1022 1.373 . S
C1023 C1039 1.377 . S
C1024 C1022 1.389 . S
C1024 C1025 1.524 1_554 S
C1024 C1038 1.377 1_554 S
C1025 C1024 1.524 1_556 S
C1025 C1026 1.397 1_556 S
C1025 C1030 1.363 . S
C1026 H1003 0.950 . S
C1026 C1025 1.397 1_554 S
C1026 C1027 1.334 . S
C1027 H1004 0.950 . S
C1027 C1026 1.334 . S
C1027 C1028 1.287 1_554 S
C1028 C1027 1.287 1_556 S
C1028 C1029 1.524 . S
C1028 H1047 0.913 . S
C1029 H1005 0.950 . S
C1029 C1028 1.524 . S
C1029 C1030 1.415 . S
C1030 H1006 0.950 . S
C1030 C1025 1.363 . S
C1030 C1029 1.415 . S
C1031 H1007 0.951 . S
C1031 C1032 1.366 . S
C1031 C1033 1.388 1_556 S
C1032 C1031 1.366 . S
C1032 C1036 1.385 . S
C1033 H1008 0.951 . S
C1033 C1031 1.388 1_554 S
C1033 C1034 1.366 1_554 S
C1034 C1033 1.366 1_556 S
C1034 C1035 1.414 . S
C1034 C1037 1.499 1_556 S
C1035 H1009 0.950 . S
C1035 C1034 1.414 . S
C1035 C1036 1.374 . S
C1036 H1010 0.950 . S
C1036 C1032 1.385 . S
C1036 C1035 1.374 . S
C1037 C1034 1.499 1_554 S
C1037 C1038 1.373 1_554 S
C1037 C1039 1.389 . S
C1038 H1011 0.950 . S
C1038 C1024 1.377 1_556 S
C1038 C1037 1.373 1_556 S
C1039 C1023 1.377 . S
C1039 C1037 1.389 . S
C1039 C1040 1.524 . S
C1040 C1039 1.524 . S
C1040 C1041 1.397 . S
C1040 C1045 1.363 . S
C1041 H1012 0.950 . S
C1041 C1040 1.397 . S
C1041 C1042 1.334 . S
C1042 H1013 0.950 . S
C1042 C1041 1.334 . S
C1042 C1043 1.287 . S
C1043 C1042 1.287 . S
C1043 C1044 1.524 . S
C1043 H1046 0.999 . S
C1044 H1014 0.950 . S
C1044 C1043 1.524 . S
C1044 C1045 1.415 . S
C1045 H1015 0.950 . S
C1045 C1040 1.363 . S
C1045 C1044 1.415 . S
H1046 C1043 0.999 . S
H1047 C1028 0.913 . S
H1048 C1066 0.951 . S
H1049 C1068 0.951 . S
H1050 C1070 0.950 . S
H1051 C1071 0.950 . S
H1052 C1073 0.950 . S
H1053 C1076 0.953 1_655 S
H1054 C1077 0.950 . S
H1055 C1079 0.950 . S
H1056 C1080 0.950 . S
H1057 C1081 0.984 . S
H1058 C1083 0.983 . S
H1059 C1085 0.950 . S
H1060 C1086 0.950 . S
H1061 C1088 0.950 . S
H1062 C1091 0.950 . S
H1063 C1092 0.950 . S
H1064 C1094 0.950 1_554 S
H1065 C1095 0.950 . S
C1066 H1048 0.951 . S
C1066 C1067 1.366 . S
C1066 C1068 1.388 . S
C1067 C1066 1.366 . S
C1067 C1071 1.385 1_455 S
C1068 H1049 0.951 . S
C1068 C1066 1.388 . S
C1068 C1069 1.366 . S
C1069 C1068 1.366 . S
C1069 C1070 1.414 1_455 S
C1069 C1072 1.499 . S
C1070 H1050 0.950 . S
C1070 C1069 1.414 1_655 S
C1070 C1071 1.374 . S
C1071 H1051 0.950 . S
C1071 C1067 1.385 1_655 S
C1071 C1070 1.374 . S
C1072 C1069 1.499 . S
C1072 C1073 1.373 . S
C1072 C1074 1.389 . S
C1073 H1052 0.950 . S
C1073 C1072 1.373 . S
C1073 C1089 1.377 . S
C1074 C1072 1.389 . S
C1074 C1075 1.524 . S
C1074 C1088 1.377 . S
C1075 C1074 1.524 . S
C1075 C1076 1.397 . S
C1075 C1080 1.363 . S
C1076 H1053 0.953 1_455 S
C1076 C1075 1.397 . S
C1076 C1077 1.334 . S
C1077 H1054 0.950 . S
C1077 C1076 1.334 . S
C1077 C1078 1.287 . S
C1078 C1077 1.287 . S
C1078 C1079 1.524 . S
C1078 H1097 0.913 . S
C1079 H1055 0.950 . S
C1079 C1078 1.524 . S
C1079 C1080 1.415 . S
C1080 H1056 0.950 . S
C1080 C1075 1.363 . S
C1080 C1079 1.415 . S
C1081 H1057 0.984 . S
C1081 C1082 1.333 1_655 S
C1081 C1083 1.388 . S
C1082 C1081 1.333 1_455 S
C1082 C1086 1.385 . S
C1083 H1058 0.983 . S
C1083 C1081 1.388 . S
C1083 C1084 1.334 1_655 S
C1084 C1083 1.334 1_455 S
C1084 C1085 1.414 . S
C1084 C1087 1.499 . S
C1085 H1059 0.950 . S
C1085 C1084 1.414 . S
C1085 C1086 1.374 . S
C1086 H1060 0.950 . S
C1086 C1082 1.385 . S
C1086 C1085 1.374 . S
C1087 C1084 1.499 . S
C1087 C1088 1.373 . S
C1087 C1089 1.389 . S
C1088 H1061 0.950 . S
C1088 C1074 1.377 . S
C1088 C1087 1.373 . S
C1089 C1073 1.377 . S
C1089 C1087 1.389 . S
C1089 C1090 1.524 . S
C1090 C1089 1.524 . S
C1090 C1091 1.397 . S
C1090 C1095 1.363 1_455 S
C1091 H1062 0.950 . S
C1091 C1090 1.397 . S
C1091 C1092 1.334 . S
C1092 H1063 0.950 . S
C1092 C1091 1.334 . S
C1092 C1093 1.287 1_456 S
C1093 C1092 1.287 1_654 S
C1093 C1094 1.524 1_554 S
C1093 H1096 0.999 . S
C1094 H1064 0.950 1_556 S
C1094 C1093 1.524 1_556 S
C1094 C1095 1.415 . S
C1095 H1065 0.950 . S
C1095 C1090 1.363 1_655 S
C1095 C1094 1.415 . S
H1096 C1093 0.999 . S
H1097 C1078 0.913 . S
H1098 C1116 0.951 . S
H1099 C1118 0.951 . S
H1100 C1120 0.950 1_565 S
H1101 C1121 0.950 1_565 S
H1102 C1123 0.950 . S
H1103 C1126 0.950 . S
H1104 C1127 0.950 . S
H1105 C1129 0.950 . S
H1106 C1130 0.950 . S
H1107 C1131 0.951 1_565 S
H1108 C1133 0.951 1_565 S
H1109 C1135 0.950 . S
H1110 C1136 0.950 . S
H1111 C1138 0.950 . S
H1112 C1141 0.950 . S
H1113 C1142 0.950 . S
H1114 C1144 0.950 . S
H1115 C1145 0.950 . S
C1116 H1098 0.951 . S
C1116 C1117 1.366 . S
C1116 C1118 1.388 . S
C1117 C1116 1.366 . S
C1117 C1121 1.385 . S
C1118 H1099 0.951 . S
C1118 C1116 1.388 . S
C1118 C1119 1.366 . S
C1119 C1118 1.366 . S
C1119 C1120 1.414 . S
C1119 C1122 1.499 . S
C1120 H1100 0.950 1_545 S
C1120 C1119 1.414 . S
C1120 C1121 1.374 . S
C1121 H1101 0.950 1_545 S
C1121 C1117 1.385 . S
C1121 C1120 1.374 . S
C1122 C1119 1.499 . S
C1122 C1123 1.373 1_545 S
C1122 C1124 1.389 . S
C1123 H1102 0.950 . S
C1123 C1122 1.373 1_565 S
C1123 C1139 1.377 . S
C1124 C1122 1.389 . S
C1124 C1125 1.524 . S
C1124 C1138 1.377 . S
C1125 C1124 1.524 . S
C1125 C1126 1.397 . S
C1125 C1130 1.363 . S
C1126 H1103 0.950 . S
C1126 C1125 1.397 . S
C1126 C1127 1.334 . S
C1127 H1104 0.950 . S
C1127 C1126 1.334 . S
C1127 C1128 1.287 . S
C1128 C1127 1.287 . S
C1128 C1129 1.524 . S
C1128 H1147 0.913 . S
C1129 H1105 0.950 . S
C1129 C1128 1.524 . S
C1129 C1130 1.415 . S
C1130 H1106 0.950 . S
C1130 C1125 1.363 . S
C1130 C1129 1.415 . S
C1131 H1107 0.951 1_545 S
C1131 C1132 1.366 . S
C1131 C1133 1.388 . S
C1132 C1131 1.366 . S
C1132 C1136 1.385 . S
C1133 H1108 0.951 1_545 S
C1133 C1131 1.388 . S
C1133 C1134 1.366 . S
C1134 C1133 1.366 . S
C1134 C1135 1.414 . S
C1134 C1137 1.499 . S
C1135 H1109 0.950 . S
C1135 C1134 1.414 . S
C1135 C1136 1.374 . S
C1136 H1110 0.950 . S
C1136 C1132 1.385 . S
C1136 C1135 1.374 . S
C1137 C1134 1.499 . S
C1137 C1138 1.373 . S
C1137 C1139 1.389 1_545 S
C1138 H1111 0.950 . S
C1138 C1124 1.377 . S
C1138 C1137 1.373 . S
C1139 C1123 1.377 . S
C1139 C1137 1.389 1_565 S
C1139 C1140 1.524 . S
C1140 C1139 1.524 . S
C1140 C1141 1.397 . S
C1140 C1145 1.363 . S
C1141 H1112 0.950 . S
C1141 C1140 1.397 . S
C1141 C1142 1.334 . S
C1142 H1113 0.950 . S
C1142 C1141 1.334 . S
C1142 C1143 1.287 . S
C1143 C1142 1.287 . S
C1143 C1144 1.524 . S
C1143 H1146 0.999 . S
C1144 H1114 0.950 . S
C1144 C1143 1.524 . S
C1144 C1145 1.415 . S
C1145 H1115 0.950 . S
C1145 C1140 1.363 . S
C1145 C1144 1.415 . S
H1146 C1143 0.999 . S
H1147 C1128 0.913 . S
H1148 C1166 0.951 . S
H1149 C1168 0.951 . S
H1150 C1170 0.950 . S
H1151 C1171 0.950 . S
H1152 C1173 0.950 . S
H1153 C1176 0.950 . S
H1154 C1177 0.950 . S
H1155 C1179 0.950 . S
H1156 C1180 0.950 . S
H1157 C1181 0.951 . S
H1158 C1183 0.951 . S
H1159 C1185 0.950 . S
H1160 C1186 0.950 . S
H1161 C1188 0.950 . S
H1162 C1191 0.950 . S
H1163 C1192 0.950 . S
H1164 C1194 0.950 . S
H1165 C1195 0.950 . S
C1166 H1148 0.951 . S
C1166 C1167 1.366 . S
C1166 C1168 1.388 . S
C1167 C1166 1.366 . S
C1167 C1171 1.385 . S
C1168 H1149 0.951 . S
C1168 C1166 1.388 . S
C1168 C1169 1.366 . S
C1169 C1168 1.366 . S
C1169 C1170 1.414 . S
C1169 C1172 1.499 . S
C1170 H1150 0.950 . S
C1170 C1169 1.414 . S
C1170 C1171 1.374 . S
C1171 H1151 0.950 . S
C1171 C1167 1.385 . S
C1171 C1170 1.374 . S
C1172 C1169 1.499 . S
C1172 C1173 1.373 . S
C1172 C1174 1.389 . S
C1173 H1152 0.950 . S
C1173 C1172 1.373 . S
C1173 C1189 1.377 . S
C1174 C1172 1.389 . S
C1174 C1175 1.524 . S
C1174 C1188 1.377 . S
C1175 C1174 1.524 . S
C1175 C1176 1.397 . S
C1175 C1180 1.363 . S
C1176 H1153 0.950 . S
C1176 C1175 1.397 . S
C1176 C1177 1.334 . S
C1177 H1154 0.950 . S
C1177 C1176 1.334 . S
C1177 C1178 1.287 . S
C1178 C1177 1.287 . S
C1178 C1179 1.524 . S
C1178 H1197 0.913 . S
C1179 H1155 0.950 . S
C1179 C1178 1.524 . S
C1179 C1180 1.415 . S
C1180 H1156 0.950 . S
C1180 C1175 1.363 . S
C1180 C1179 1.415 . S
C1181 H1157 0.951 . S
C1181 C1182 1.366 . S
C1181 C1183 1.388 . S
C1182 C1181 1.366 . S
C1182 C1186 1.385 . S
C1183 H1158 0.951 . S
C1183 C1181 1.388 . S
C1183 C1184 1.366 . S
C1184 C1183 1.366 . S
C1184 C1185 1.414 . S
C1184 C1187 1.499 . S
C1185 H1159 0.950 . S
C1185 C1184 1.414 . S
C1185 C1186 1.374 . S
C1186 H1160 0.950 . S
C1186 C1182 1.385 . S
C1186 C1185 1.374 . S
C1187 C1184 1.499 . S
C1187 C1188 1.373 . S
C1187 C1189 1.389 . S
C1188 H1161 0.950 . S
C1188 C1174 1.377 . S
C1188 C1187 1.373 . S
C1189 C1173 1.377 . S
C1189 C1187 1.389 . S
C1189 C1190 1.524 . S
C1190 C1189 1.524 . S
C1190 C1191 1.397 . S
C1190 C1195 1.363 . S
C1191 H1162 0.950 . S
C1191 C1190 1.397 . S
C1191 C1192 1.334 . S
C1192 H1163 0.950 . S
C1192 C1191 1.334 . S
C1192 C1193 1.287 . S
C1193 C1192 1.287 . S
C1193 C1194 1.524 . S
C1193 H1196 0.999 . S
C1194 H1164 0.950 . S
C1194 C1193 1.524 . S
C1194 C1195 1.415 . S
C1195 H1165 0.950 . S
C1195 C1190 1.363 . S
C1195 C1194 1.415 . S
H1196 C1193 0.999 . S
H1197 C1178 0.913 . S
H1198 C1216 0.951 . S
H1199 C1218 0.951 . S
H1200 C1220 0.950 . S
H1201 C1221 0.950 . S
H1202 C1223 0.950 . S
H1203 C1226 0.950 . S
H1204 C1227 0.950 . S
H1205 C1229 0.950 . S
H1206 C1230 0.950 . S
H1207 C1231 0.951 . S
H1208 C1233 0.951 . S
H1209 C1235 0.950 . S
H1210 C1236 0.950 . S
H1211 C1238 0.950 . S
H1212 C1241 0.950 . S
H1213 C1242 0.950 . S
H1214 C1244 0.950 . S
H1215 C1245 0.950 . S
C1216 H1198 0.951 . S
C1216 C1217 1.366 . S
C1216 C1218 1.388 . S
C1217 C1216 1.366 . S
C1217 C1221 1.385 . S
C1218 H1199 0.951 . S
C1218 C1216 1.388 . S
C1218 C1219 1.366 . S
C1219 C1218 1.366 . S
C1219 C1220 1.414 . S
C1219 C1222 1.499 . S
C1220 H1200 0.950 . S
C1220 C1219 1.414 . S
C1220 C1221 1.374 . S
C1221 H1201 0.950 . S
C1221 C1217 1.385 . S
C1221 C1220 1.374 . S
C1222 C1219 1.499 . S
C1222 C1223 1.373 . S
C1222 C1224 1.389 . S
C1223 H1202 0.950 . S
C1223 C1222 1.373 . S
C1223 C1239 1.377 . S
C1224 C1222 1.389 . S
C1224 C1225 1.524 . S
C1224 C1238 1.377 . S
C1225 C1224 1.524 . S
C1225 C1226 1.397 . S
C1225 C1230 1.363 . S
C1226 H1203 0.950 . S
C1226 C1225 1.397 . S
C1226 C1227 1.334 . S
C1227 H1204 0.950 . S
C1227 C1226 1.334 . S
C1227 C1228 1.287 . S
C1228 C1227 1.287 . S
C1228 C1229 1.524 . S
C1228 H1247 0.913 . S
C1229 H1205 0.950 . S
C1229 C1228 1.524 . S
C1229 C1230 1.415 . S
C1230 H1206 0.950 . S
C1230 C1225 1.363 . S
C1230 C1229 1.415 . S
C1231 H1207 0.951 . S
C1231 C1232 1.366 . S
C1231 C1233 1.388 . S
C1232 C1231 1.366 . S
C1232 C1236 1.385 . S
C1233 H1208 0.951 . S
C1233 C1231 1.388 . S
C1233 C1234 1.366 . S
C1234 C1233 1.366 . S
C1234 C1235 1.414 . S
C1234 C1237 1.499 . S
C1235 H1209 0.950 . S
C1235 C1234 1.414 . S
C1235 C1236 1.374 . S
C1236 H1210 0.950 . S
C1236 C1232 1.385 . S
C1236 C1235 1.374 . S
C1237 C1234 1.499 . S
C1237 C1238 1.373 . S
C1237 C1239 1.389 . S
C1238 H1211 0.950 . S
C1238 C1224 1.377 . S
C1238 C1237 1.373 . S
C1239 C1223 1.377 . S
C1239 C1237 1.389 . S
C1239 C1240 1.524 . S
C1240 C1239 1.524 . S
C1240 C1241 1.397 . S
C1240 C1245 1.363 . S
C1241 H1212 0.950 . S
C1241 C1240 1.397 . S
C1241 C1242 1.334 . S
C1242 H1213 0.950 . S
C1242 C1241 1.334 . S
C1242 C1243 1.287 . S
C1243 C1242 1.287 . S
C1243 C1244 1.524 . S
C1243 H1246 0.999 . S
C1244 H1214 0.950 . S
C1244 C1243 1.524 . S
C1244 C1245 1.415 . S
C1245 H1215 0.950 . S
C1245 C1240 1.363 . S
C1245 C1244 1.415 . S
H1246 C1243 0.999 . S
H1247 C1228 0.913 . S
H1248 C1266 0.951 . S
H1249 C1268 0.951 . S
H1250 C1270 0.950 . S
H1251 C1271 0.950 . S
H1252 C1273 0.950 . S
H1253 C1276 0.950 . S
H1254 C1277 0.950 . S
H1255 C1279 0.950 . S
H1256 C1280 0.950 . S
H1257 C1281 0.951 . S
H1258 C1283 0.951 . S
H1259 C1285 0.950 . S
H1260 C1286 0.950 . S
H1261 C1288 0.950 . S
H1262 C1291 0.950 . S
H1263 C1292 0.950 . S
H1264 C1294 0.950 . S
H1265 C1295 0.950 . S
C1266 H1248 0.951 . S
C1266 C1267 1.366 1_455 S
C1266 C1268 1.388 . S
C1267 C1266 1.366 1_655 S
C1267 C1271 1.385 . S
C1268 H1249 0.951 . S
C1268 C1266 1.388 . S
C1268 C1269 1.366 1_455 S
C1269 C1268 1.366 1_655 S
C1269 C1270 1.414 . S
C1269 C1272 1.499 . S
C1270 H1250 0.950 . S
C1270 C1269 1.414 . S
C1270 C1271 1.374 . S
C1271 H1251 0.950 . S
C1271 C1267 1.385 . S
C1271 C1270 1.374 . S
C1272 C1269 1.499 . S
C1272 C1273 1.373 . S
C1272 C1274 1.389 1_655 S
C1273 H1252 0.950 . S
C1273 C1272 1.373 . S
C1273 C1289 1.377 . S
C1274 C1272 1.389 1_455 S
C1274 C1275 1.524 . S
C1274 C1288 1.377 . S
C1275 C1274 1.524 . S
C1275 C1276 1.397 . S
C1275 C1280 1.363 . S
C1276 H1253 0.950 . S
C1276 C1275 1.397 . S
C1276 C1277 1.334 . S
C1277 H1254 0.950 . S
C1277 C1276 1.334 . S
C1277 C1278 1.287 . S
C1278 C1277 1.287 . S
C1278 C1279 1.524 . S
C1278 H1297 0.913 . S
C1279 H1255 0.950 . S
C1279 C1278 1.524 . S
C1279 C1280 1.415 . S
C1280 H1256 0.950 . S
C1280 C1275 1.363 . S
C1280 C1279 1.415 . S
C1281 H1257 0.951 . S
C1281 C1282 1.366 . S
C1281 C1283 1.388 . S
C1282 C1281 1.366 . S
C1282 C1286 1.385 1_655 S
C1283 H1258 0.951 . S
C1283 C1281 1.388 . S
C1283 C1284 1.366 . S
C1284 C1283 1.366 . S
C1284 C1285 1.414 1_655 S
C1284 C1287 1.499 . S
C1285 H1259 0.950 . S
C1285 C1284 1.414 1_455 S
C1285 C1286 1.374 . S
C1286 H1260 0.950 . S
C1286 C1282 1.385 1_455 S
C1286 C1285 1.374 . S
C1287 C1284 1.499 . S
C1287 C1288 1.373 1_655 S
C1287 C1289 1.389 . S
C1288 H1261 0.950 . S
C1288 C1274 1.377 . S
C1288 C1287 1.373 1_455 S
C1289 C1273 1.377 . S
C1289 C1287 1.389 . S
C1289 C1290 1.524 . S
C1290 C1289 1.524 . S
C1290 C1291 1.397 . S
C1290 C1295 1.363 . S
C1291 H1262 0.950 . S
C1291 C1290 1.397 . S
C1291 C1292 1.334 . S
C1292 H1263 0.950 . S
C1292 C1291 1.334 . S
C1292 C1293 1.287 . S
C1293 C1292 1.287 . S
C1293 C1294 1.524 . S
C1293 H1296 0.999 . S
C1294 H1264 0.950 . S
C1294 C1293 1.524 . S
C1294 C1295 1.415 . S
C1295 H1265 0.950 . S
C1295 C1290 1.363 . S
C1295 C1294 1.415 . S
H1296 C1293 0.999 . S
H1297 C1278 0.913 . S
H1298 C1316 0.951 . S
H1299 C1318 0.951 . S
H1300 C1320 0.950 . S
H1301 C1321 0.950 . S
H1302 C1323 0.950 . S
H1303 C1326 0.950 . S
H1304 C1327 0.950 . S
H1305 C1329 0.950 . S
H1306 C1330 0.950 . S
H1307 C1331 0.951 . S
H1308 C1333 0.951 . S
H1309 C1335 0.950 . S
H1310 C1336 0.950 . S
H1311 C1338 0.950 . S
H1312 C1341 0.950 . S
H1313 C1342 0.950 . S
H1314 C1344 0.950 . S
H1315 C1345 0.967 . S
C1316 H1298 0.951 . S
C1316 C1317 1.366 1_545 S
C1316 C1318 1.388 . S
C1317 C1316 1.366 1_565 S
C1317 C1321 1.385 . S
C1318 H1299 0.951 . S
C1318 C1316 1.388 . S
C1318 C1319 1.366 1_545 S
C1319 C1318 1.366 1_565 S
C1319 C1320 1.414 . S
C1319 C1322 1.499 . S
C1320 H1300 0.950 . S
C1320 C1319 1.414 . S
C1320 C1321 1.374 . S
C1321 H1301 0.950 . S
C1321 C1317 1.385 . S
C1321 C1320 1.374 . S
C1322 C1319 1.499 . S
C1322 C1323 1.373 1_565 S
C1322 C1324 1.389 . S
C1323 H1302 0.950 . S
C1323 C1322 1.373 1_545 S
C1323 C1339 1.377 . S
C1324 C1322 1.389 . S
C1324 C1325 1.524 . S
C1324 C1338 1.377 . S
C1325 C1324 1.524 . S
C1325 C1326 1.397 . S
C1325 C1330 1.363 . S
C1326 H1303 0.950 . S
C1326 C1325 1.397 . S
C1326 C1327 1.334 . S
C1327 H1304 0.950 . S
C1327 C1326 1.334 . S
C1327 C1328 1.287 . S
C1328 C1327 1.287 . S
C1328 C1329 1.524 . S
C1328 H1347 0.913 . S
C1329 H1305 0.950 . S
C1329 C1328 1.524 . S
C1329 C1330 1.415 . S
C1330 H1306 0.950 . S
C1330 C1325 1.363 . S
C1330 C1329 1.415 . S
C1331 H1307 0.951 . S
C1331 C1332 1.366 . S
C1331 C1333 1.388 . S
C1332 C1331 1.366 . S
C1332 C1336 1.385 1_565 S
C1333 H1308 0.951 . S
C1333 C1331 1.388 . S
C1333 C1334 1.366 . S
C1334 C1333 1.366 . S
C1334 C1335 1.414 1_565 S
C1334 C1337 1.499 . S
C1335 H1309 0.950 . S
C1335 C1334 1.414 1_545 S
C1335 C1336 1.374 . S
C1336 H1310 0.950 . S
C1336 C1332 1.385 1_545 S
C1336 C1335 1.374 . S
C1337 C1334 1.499 . S
C1337 C1338 1.373 . S
C1337 C1339 1.389 1_565 S
C1338 H1311 0.950 . S
C1338 C1324 1.377 . S
C1338 C1337 1.373 . S
C1339 C1323 1.377 . S
C1339 C1337 1.389 1_545 S
C1339 C1340 1.524 . S
C1340 C1339 1.524 . S
C1340 C1341 1.397 . S
C1340 C1345 1.363 . S
C1341 H1312 0.950 . S
C1341 C1340 1.397 . S
C1341 C1342 1.334 . S
C1342 H1313 0.950 . S
C1342 C1341 1.334 . S
C1342 C1343 1.287 . S
C1343 C1342 1.287 . S
C1343 C1344 1.524 . S
C1343 H1346 0.999 . S
C1344 H1314 0.950 . S
C1344 C1343 1.524 . S
C1344 C1345 1.415 . S
C1345 H1315 0.967 . S
C1345 C1340 1.363 . S
C1345 C1344 1.415 . S
H1346 C1343 0.999 . S
H1347 C1328 0.913 . S
H1348 C1366 0.951 . S
H1349 C1368 0.951 . S
H1350 C1370 0.950 . S
H1351 C1371 0.950 . S
H1352 C1373 0.950 . S
H1353 C1376 0.950 . S
H1354 C1377 0.950 . S
H1355 C1379 0.950 . S
H1356 C1380 0.950 . S
H1357 C1381 0.951 . S
H1358 C1383 0.951 . S
H1359 C1385 0.950 . S
H1360 C1386 0.950 . S
H1361 C1388 0.950 . S
H1362 C1391 0.950 . S
H1363 C1392 0.950 . S
H1364 C1394 0.950 . S
H1365 C1395 0.950 . S
C1366 H1348 0.951 . S
C1366 C1367 1.366 . S
C1366 C1368 1.388 . S
C1367 C1366 1.366 . S
C1367 C1371 1.385 . S
C1368 H1349 0.951 . S
C1368 C1366 1.388 . S
C1368 C1369 1.366 . S
C1369 C1368 1.366 . S
C1369 C1370 1.414 . S
C1369 C1372 1.499 . S
C1370 H1350 0.950 . S
C1370 C1369 1.414 . S
C1370 C1371 1.374 . S
C1371 H1351 0.950 . S
C1371 C1367 1.385 . S
C1371 C1370 1.374 . S
C1372 C1369 1.499 . S
C1372 C1373 1.373 . S
C1372 C1374 1.389 . S
C1373 H1352 0.950 . S
C1373 C1372 1.373 . S
C1373 C1389 1.377 . S
C1374 C1372 1.389 . S
C1374 C1375 1.524 . S
C1374 C1388 1.377 . S
C1375 C1374 1.524 . S
C1375 C1376 1.397 . S
C1375 C1380 1.363 . S
C1376 H1353 0.950 . S
C1376 C1375 1.397 . S
C1376 C1377 1.334 . S
C1377 H1354 0.950 . S
C1377 C1376 1.334 . S
C1377 C1378 1.287 . S
C1378 C1377 1.287 . S
C1378 C1379 1.524 . S
C1378 H1397 0.913 . S
C1379 H1355 0.950 . S
C1379 C1378 1.524 . S
C1379 C1380 1.415 . S
C1380 H1356 0.950 . S
C1380 C1375 1.363 . S
C1380 C1379 1.415 . S
C1381 H1357 0.951 . S
C1381 C1382 1.366 . S
C1381 C1383 1.388 . S
C1382 C1381 1.366 . S
C1382 C1386 1.385 . S
C1383 H1358 0.951 . S
C1383 C1381 1.388 . S
C1383 C1384 1.366 . S
C1384 C1383 1.366 . S
C1384 C1385 1.414 . S
C1384 C1387 1.499 . S
C1385 H1359 0.950 . S
C1385 C1384 1.414 . S
C1385 C1386 1.374 . S
C1386 H1360 0.950 . S
C1386 C1382 1.385 . S
C1386 C1385 1.374 . S
C1387 C1384 1.499 . S
C1387 C1388 1.373 . S
C1387 C1389 1.389 . S
C1388 H1361 0.950 . S
C1388 C1374 1.377 . S
C1388 C1387 1.373 . S
C1389 C1373 1.377 . S
C1389 C1387 1.389 . S
C1389 C1390 1.524 . S
C1390 C1389 1.524 . S
C1390 C1391 1.397 . S
C1390 C1395 1.363 . S
C1391 H1362 0.950 . S
C1391 C1390 1.397 . S
C1391 C1392 1.334 . S
C1392 H1363 0.950 . S
C1392 C1391 1.334 . S
C1392 C1393 1.287 . S
C1393 C1392 1.287 . S
C1393 C1394 1.524 . S
C1393 H1396 0.999 . S
C1394 H1364 0.950 . S
C1394 C1393 1.524 . S
C1394 C1395 1.415 . S
C1395 H1365 0.950 . S
C1395 C1390 1.363 . S
C1395 C1394 1.415 . S
H1396 C1393 0.999 . S
H1397 C1378 0.913 . S
H1398 C1416 0.951 . S
H1399 C1418 0.951 . S
H1400 C1420 0.950 . S
H1401 C1421 0.950 . S
H1402 C1423 0.950 . S
H1403 C1426 0.950 . S
H1404 C1427 0.950 . S
H1405 C1429 0.950 . S
H1406 C1430 0.950 . S
H1407 C1431 0.951 . S
H1408 C1433 0.951 . S
H1409 C1435 0.950 . S
H1410 C1436 0.950 . S
H1411 C1438 0.950 . S
H1412 C1441 0.950 . S
H1413 C1442 0.950 . S
H1414 C1444 0.950 . S
H1415 C1445 0.950 . S
C1416 H1398 0.951 . S
C1416 C1417 1.366 . S
C1416 C1418 1.388 . S
C1417 C1416 1.366 . S
C1417 C1421 1.385 . S
C1418 H1399 0.951 . S
C1418 C1416 1.388 . S
C1418 C1419 1.366 . S
C1419 C1418 1.366 . S
C1419 C1420 1.414 . S
C1419 C1422 1.499 . S
C1420 H1400 0.950 . S
C1420 C1419 1.414 . S
C1420 C1421 1.374 . S
C1421 H1401 0.950 . S
C1421 C1417 1.385 . S
C1421 C1420 1.374 . S
C1422 C1419 1.499 . S
C1422 C1423 1.373 . S
C1422 C1424 1.389 . S
C1423 H1402 0.950 . S
C1423 C1422 1.373 . S
C1423 C1439 1.377 . S
C1424 C1422 1.389 . S
C1424 C1425 1.524 . S
C1424 C1438 1.377 . S
C1425 C1424 1.524 . S
C1425 C1426 1.397 . S
C1425 C1430 1.363 . S
C1426 H1403 0.950 . S
C1426 C1425 1.397 . S
C1426 C1427 1.334 . S
C1427 H1404 0.950 . S
C1427 C1426 1.334 . S
C1427 C1428 1.287 . S
C1428 C1427 1.287 . S
C1428 C1429 1.524 . S
C1428 H1447 0.913 . S
C1429 H1405 0.950 . S
C1429 C1428 1.524 . S
C1429 C1430 1.415 . S
C1430 H1406 0.950 . S
C1430 C1425 1.363 . S
C1430 C1429 1.415 . S
C1431 H1407 0.951 . S
C1431 C1432 1.366 . S
C1431 C1433 1.388 . S
C1432 C1431 1.366 . S
C1432 C1436 1.385 . S
C1433 H1408 0.951 . S
C1433 C1431 1.388 . S
C1433 C1434 1.366 . S
C1434 C1433 1.366 . S
C1434 C1435 1.414 . S
C1434 C1437 1.499 . S
C1435 H1409 0.950 . S
C1435 C1434 1.414 . S
C1435 C1436 1.374 . S
C1436 H1410 0.950 . S
C1436 C1432 1.385 . S
C1436 C1435 1.374 . S
C1437 C1434 1.499 . S
C1437 C1438 1.373 . S
C1437 C1439 1.389 . S
C1438 H1411 0.950 . S
C1438 C1424 1.377 . S
C1438 C1437 1.373 . S
C1439 C1423 1.377 . S
C1439 C1437 1.389 . S
C1439 C1440 1.524 . S
C1440 C1439 1.524 . S
C1440 C1441 1.397 . S
C1440 C1445 1.363 . S
C1441 H1412 0.950 . S
C1441 C1440 1.397 . S
C1441 C1442 1.334 . S
C1442 H1413 0.950 . S
C1442 C1441 1.334 . S
C1442 C1443 1.287 . S
C1443 C1442 1.287 . S
C1443 C1444 1.524 . S
C1443 H1446 0.999 . S
C1444 H1414 0.950 . S
C1444 C1443 1.524 . S
C1444 C1445 1.415 . S
C1445 H1415 0.950 . S
C1445 C1440 1.363 . S
C1445 C1444 1.415 . S
H1446 C1443 0.999 . S
H1447 C1428 0.913 . S
C267 C74 1.669 . S
C282 C98 1.722 . S
C332 C138 1.722 . S
C317 C85 1.669 . S
C382 C178 1.722 . S
C367 C52 1.669 . S
C432 C218 1.722 . S
C417 C63 1.669 . S
C482 C107 1.722 . S
C467 C30 1.663 . S
C517 C41 1.663 . S
C532 C147 1.722 . S
C567 C8 1.662 . S
C582 C187 1.723 . S
C617 C19 1.663 . S
C632 C227 1.722 . S
C682 C104 0.452 . S
C667 C62 0.425 . S
C732 C144 0.452 . S
C717 C73 0.425 . S
C782 C184 0.452 . S
C767 C84 0.425 . S
C817 C51 0.425 . S
C832 C224 0.452 . S
C867 C18 0.493 1_655 S
C882 C95 0.450 . S
C932 C135 0.450 . S
C917 C29 0.510 . S
C982 C175 0.450 . S
C967 C40 0.494 . S
C1017 C7 0.497 . S
C1032 C215 0.452 . S
C1067 C60 1.581 . S
C1082 C99 2.027 . S
C1117 C71 1.584 . S
C1132 C139 2.028 . S
C1182 C179 2.028 . S
C1167 C82 1.583 . S
C1232 C219 2.028 . S
C1217 C49 1.582 . S
C1267 C16 1.590 1_655 S
C1282 C90 2.028 . S
C1332 C130 2.028 . S
C1317 C27 1.588 1_565 S
C1382 C170 2.028 . S
C1367 C38 1.590 . S
C1417 C5 1.588 . S
C1432 C210 2.028 . S
