# Generated by pormake.
# Topology soc, (4,6)-cn, num edge types: 1
# Building blocks:
#     Node 0, Type 0, BuildingBlock: ESEHIV_clean_sbu_0, # of connection points: 4
#     Node 1, Type 0, BuildingBlock: ESEHIV_clean_sbu_0, # of connection points: 4
#     Node 2, Type 0, BuildingBlock: ESEHIV_clean_sbu_0, # of connection points: 4
#     Node 3, Type 0, BuildingBlock: ESEHIV_clean_sbu_0, # of connection points: 4
#     Node 4, Type 0, BuildingBlock: ESEHIV_clean_sbu_0, # of connection points: 4
#     Node 5, Type 0, BuildingBlock: ESEHIV_clean_sbu_0, # of connection points: 4
#     Node 6, Type 0, BuildingBlock: ESEHIV_clean_sbu_0, # of connection points: 4
#     Node 7, Type 0, BuildingBlock: ESEHIV_clean_sbu_0, # of connection points: 4
#     Node 8, Type 0, BuildingBlock: ESEHIV_clean_sbu_0, # of connection points: 4
#     Node 9, Type 0, BuildingBlock: ESEHIV_clean_sbu_0, # of connection points: 4
#     Node 10, Type 0, BuildingBlock: ESEHIV_clean_sbu_0, # of connection points: 4
#     Node 11, Type 0, BuildingBlock: ESEHIV_clean_sbu_0, # of connection points: 4
#     Node 12, Type 1, BuildingBlock: PAMTOO_clean_sbu_0, # of connection points: 6
#     Node 13, Type 1, BuildingBlock: PAMTOO_clean_sbu_0, # of connection points: 6
#     Node 14, Type 1, BuildingBlock: PAMTOO_clean_sbu_0, # of connection points: 6
#     Node 15, Type 1, BuildingBlock: PAMTOO_clean_sbu_0, # of connection points: 6
#     Node 16, Type 1, BuildingBlock: PAMTOO_clean_sbu_0, # of connection points: 6
#     Node 17, Type 1, BuildingBlock: PAMTOO_clean_sbu_0, # of connection points: 6
#     Node 18, Type 1, BuildingBlock: PAMTOO_clean_sbu_0, # of connection points: 6
#     Node 19, Type 1, BuildingBlock: PAMTOO_clean_sbu_0, # of connection points: 6
#     Edge 20, Type (0, 1), BuildingBlock: OJICUG_clean_linker_0, # of connection points: 2
#     Edge 21, Type (0, 1), BuildingBlock: OJICUG_clean_linker_0, # of connection points: 2
#     Edge 22, Type (0, 1), BuildingBlock: OJICUG_clean_linker_0, # of connection points: 2
#     Edge 23, Type (0, 1), BuildingBlock: OJICUG_clean_linker_0, # of connection points: 2
#     Edge 24, Type (0, 1), BuildingBlock: OJICUG_clean_linker_0, # of connection points: 2
#     Edge 25, Type (0, 1), BuildingBlock: OJICUG_clean_linker_0, # of connection points: 2
#     Edge 26, Type (0, 1), BuildingBlock: OJICUG_clean_linker_0, # of connection points: 2
#     Edge 27, Type (0, 1), BuildingBlock: OJICUG_clean_linker_0, # of connection points: 2
#     Edge 28, Type (0, 1), BuildingBlock: OJICUG_clean_linker_0, # of connection points: 2
#     Edge 29, Type (0, 1), BuildingBlock: OJICUG_clean_linker_0, # of connection points: 2
#     Edge 30, Type (0, 1), BuildingBlock: OJICUG_clean_linker_0, # of connection points: 2
#     Edge 31, Type (0, 1), BuildingBlock: OJICUG_clean_linker_0, # of connection points: 2
#     Edge 32, Type (0, 1), BuildingBlock: OJICUG_clean_linker_0, # of connection points: 2
#     Edge 33, Type (0, 1), BuildingBlock: OJICUG_clean_linker_0, # of connection points: 2
#     Edge 34, Type (0, 1), BuildingBlock: OJICUG_clean_linker_0, # of connection points: 2
#     Edge 35, Type (0, 1), BuildingBlock: OJICUG_clean_linker_0, # of connection points: 2
#     Edge 36, Type (0, 1), BuildingBlock: OJICUG_clean_linker_0, # of connection points: 2
#     Edge 37, Type (0, 1), BuildingBlock: OJICUG_clean_linker_0, # of connection points: 2
#     Edge 38, Type (0, 1), BuildingBlock: OJICUG_clean_linker_0, # of connection points: 2
#     Edge 39, Type (0, 1), BuildingBlock: OJICUG_clean_linker_0, # of connection points: 2
#     Edge 40, Type (0, 1), BuildingBlock: OJICUG_clean_linker_0, # of connection points: 2
#     Edge 41, Type (0, 1), BuildingBlock: OJICUG_clean_linker_0, # of connection points: 2
#     Edge 42, Type (0, 1), BuildingBlock: OJICUG_clean_linker_0, # of connection points: 2
#     Edge 43, Type (0, 1), BuildingBlock: OJICUG_clean_linker_0, # of connection points: 2
#     Edge 44, Type (0, 1), BuildingBlock: OJICUG_clean_linker_0, # of connection points: 2
#     Edge 45, Type (0, 1), BuildingBlock: OJICUG_clean_linker_0, # of connection points: 2
#     Edge 46, Type (0, 1), BuildingBlock: OJICUG_clean_linker_0, # of connection points: 2
#     Edge 47, Type (0, 1), BuildingBlock: OJICUG_clean_linker_0, # of connection points: 2
#     Edge 48, Type (0, 1), BuildingBlock: OJICUG_clean_linker_0, # of connection points: 2
#     Edge 49, Type (0, 1), BuildingBlock: OJICUG_clean_linker_0, # of connection points: 2
#     Edge 50, Type (0, 1), BuildingBlock: OJICUG_clean_linker_0, # of connection points: 2
#     Edge 51, Type (0, 1), BuildingBlock: OJICUG_clean_linker_0, # of connection points: 2
#     Edge 52, Type (0, 1), BuildingBlock: OJICUG_clean_linker_0, # of connection points: 2
#     Edge 53, Type (0, 1), BuildingBlock: OJICUG_clean_linker_0, # of connection points: 2
#     Edge 54, Type (0, 1), BuildingBlock: OJICUG_clean_linker_0, # of connection points: 2
#     Edge 55, Type (0, 1), BuildingBlock: OJICUG_clean_linker_0, # of connection points: 2
#     Edge 56, Type (0, 1), BuildingBlock: OJICUG_clean_linker_0, # of connection points: 2
#     Edge 57, Type (0, 1), BuildingBlock: OJICUG_clean_linker_0, # of connection points: 2
#     Edge 58, Type (0, 1), BuildingBlock: OJICUG_clean_linker_0, # of connection points: 2
#     Edge 59, Type (0, 1), BuildingBlock: OJICUG_clean_linker_0, # of connection points: 2
#     Edge 60, Type (0, 1), BuildingBlock: OJICUG_clean_linker_0, # of connection points: 2
#     Edge 61, Type (0, 1), BuildingBlock: OJICUG_clean_linker_0, # of connection points: 2
#     Edge 62, Type (0, 1), BuildingBlock: OJICUG_clean_linker_0, # of connection points: 2
#     Edge 63, Type (0, 1), BuildingBlock: OJICUG_clean_linker_0, # of connection points: 2
#     Edge 64, Type (0, 1), BuildingBlock: OJICUG_clean_linker_0, # of connection points: 2
#     Edge 65, Type (0, 1), BuildingBlock: OJICUG_clean_linker_0, # of connection points: 2
#     Edge 66, Type (0, 1), BuildingBlock: OJICUG_clean_linker_0, # of connection points: 2
#     Edge 67, Type (0, 1), BuildingBlock: OJICUG_clean_linker_0, # of connection points: 2
# Relax obj value: 0.142
# Max RMSD: 0.262
# Mean RMSD: 0.161
data_MOF--net-soc--node1-ESEHIV_clean_sbu_0--node2-PAMTOO_clean_sbu_0--edge1-OJICUG_clean_linker_0
_symmetry_space_group_name_H-M    P1
_symmetry_Int_Tables_number       1
_symmetry_cell_setting            triclinic
loop_
_symmetry_equiv_pos_as_xyz
'x, y, z'
_cell_length_a     44.851014
_cell_length_b     33.719389
_cell_length_c     31.383955
_cell_angle_alpha  92.707143
_cell_angle_beta   92.520327
_cell_angle_gamma 64.826235
loop_
_atom_site_label
_atom_site_type_symbol
_atom_site_fract_x
_atom_site_fract_y
_atom_site_fract_z
_atom_type_partial_charge
Cu0 Cu 0.08348 0.03332 0.38337 0.0
N1 N 0.09637 0.06913 0.41971 0.0
N2 N 0.11869 0.11528 0.43978 0.0
C3 C 0.11266 0.0919 0.40717 0.0
C4 C 0.10561 0.10681 0.47427 0.0
C5 C 0.0917 0.07847 0.46173 0.0
O6 O 0.12218 0.9941 0.35154 0.0
C7 C 0.02048 0.09502 0.37249 0.0
O8 O 0.02266 0.08844 0.41368 0.0
H9 H 0.1203 0.09076 0.37473 0.0
H10 H 0.07889 0.06592 0.48176 0.0
N11 N 0.06986 0.99756 0.41346 0.0
N12 N 0.04464 0.95465 0.42621 0.0
C13 C 0.04797 0.98221 0.39881 0.0
C14 C 0.08089 0.97918 0.45144 0.0
C15 C 0.06536 0.95282 0.45945 0.0
C16 C 0.14793 0.97467 0.37494 0.0
O17 O 0.14609 0.98277 0.41632 0.0
H18 H 0.03493 0.99116 0.36845 0.0
H19 H 0.09948 0.98376 0.47149 0.0
O20 O 0.04559 0.07308 0.34995 0.0
H21 H 0.10559 0.12064 0.50611 0.0
H22 H 0.06981 0.93298 0.48716 0.0
Cu23 Cu 0.06771 0.04963 0.71417 0.0
N24 N 0.05103 1.01573 0.68095 0.0
N25 N 0.02293 0.97526 0.66661 0.0
C26 C 0.03214 0.99808 0.6967 0.0
C27 C 0.03668 0.97877 0.63033 0.0
C28 C 0.0541 1.00368 0.63931 0.0
O29 O 0.03045 0.09226 0.7467 0.0
C30 C 0.13039 0.98482 0.72045 0.0
O31 O 0.12561 0.99055 0.67916 0.0
H32 H 0.02485 1.00272 0.72964 0.0
H33 H 0.06807 1.01219 0.61714 0.0
N34 N 0.08302 0.08255 0.68277 0.0
N35 N 0.11214 0.12073 0.67137 0.0
C36 C 0.10476 0.09722 0.69929 0.0
C37 C 0.07613 0.09725 0.64279 0.0
C38 C 0.09423 0.12071 0.63557 0.0
C39 C 1.00487 0.11328 0.7234 0.0
O40 O 1.00627 0.10481 0.68206 0.0
H41 H 0.11534 0.08997 0.7312 0.0
H42 H 0.05909 0.09161 0.62061 0.0
O43 O 0.1068 1.00802 0.74507 0.0
H44 H 0.03471 0.96396 0.59961 0.0
H45 H 0.09386 0.1369 0.60645 0.0
Cu46 Cu 0.3275 0.04859 0.06667 0.0
N47 N 0.29958 0.03226 0.03231 0.0
N48 N 0.28694 0.99049 0.98482 0.0
C49 C 0.30991 0.99281 1.01248 0.0
C50 C 0.26095 0.03001 0.9873 0.0
C51 C 0.26875 0.05579 1.01703 0.0
O52 O 0.35248 0.99743 0.10272 0.0
C53 C 0.32871 0.10498 1.00689 0.0
O54 O 0.29765 0.12161 1.01739 0.0
H55 H 0.33469 0.96731 1.01616 0.0
H56 H 0.25365 0.08985 1.02515 0.0
N57 N 0.30373 0.09396 0.10423 0.0
N58 N 0.29507 0.14271 0.15776 0.0
C59 C 0.31696 0.11563 0.12975 0.0
C60 C 0.27234 0.10795 0.11618 0.0
C61 C 0.2669 0.13818 0.14935 0.0
C62 C 0.33362 0.98549 0.12307 0.0
O63 O 0.3016 1.00731 0.1178 0.0
H64 H 0.34261 0.10985 0.12926 0.0
H65 H 0.2551 0.09561 0.10314 0.0
O66 O 0.34922 0.0714 1.02673 0.0
H67 H 0.23855 0.03997 0.96788 0.0
H68 H 0.24426 0.15481 0.16655 0.0
Cu69 Cu 0.11331 0.37839 0.06397 0.0
N70 N 0.12945 0.3944 1.01683 0.0
N71 N 0.16358 0.38961 0.96489 0.0
C72 C 0.16037 0.37388 1.0024 0.0
C73 C 0.13351 0.42148 0.95551 0.0
C74 C 0.11252 0.42446 0.98769 0.0
O75 O 0.14832 0.35948 0.10831 0.0
C76 C 0.09112 0.32692 1.00699 0.0
O77 O 0.10826 0.33442 0.97815 0.0
H78 H 0.17969 0.3465 1.01813 0.0
H79 H 0.0865 0.4459 0.98903 0.0
N80 N 0.07684 0.42569 0.08626 0.0
N81 N 0.02744 0.4517 0.11607 0.0
C82 C 0.04695 0.4254 0.08535 0.0
C83 C 0.07598 0.45457 0.11785 0.0
C84 C 0.04549 0.47055 0.13647 0.0
C85 C 0.14336 0.35903 0.14797 0.0
O86 O 0.11387 0.36583 0.16014 0.0
H87 H 0.04118 0.40192 0.06634 0.0
H88 H 0.09716 0.45951 0.12989 0.0
O89 O 0.09497 0.33638 0.04612 0.0
H90 H 0.12704 0.44086 0.9272 0.0
H91 H 0.03837 0.49122 0.16509 0.0
Cu92 Cu 0.83397 0.03516 0.03921 0.0
N93 N 0.85905 0.05464 1.00817 0.0
N94 N 0.86598 0.10077 0.96574 0.0
C95 C 0.84425 0.09108 0.98589 0.0
C96 C 0.89596 0.06917 0.97593 0.0
C97 C 0.89159 0.04037 1.00217 0.0
O98 O 0.80978 0.08557 0.07866 0.0
C99 C 0.8301 0.98563 0.96766 0.0
O100 O 0.86117 0.9789 0.96828 0.0
H101 H 0.81784 0.11055 0.98521 0.0
H102 H 0.91069 1.01113 1.01537 0.0
N103 N 0.85848 0.98937 0.07413 0.0
N104 N 0.86426 0.94256 0.12477 0.0
C105 C 0.84388 0.96919 0.0953 0.0
C106 C 0.88943 0.97488 0.09039 0.0
C107 C 0.8931 0.94575 0.1218 0.0
C108 C 0.82933 0.09748 0.10123 0.0
O109 O 0.86118 0.07551 0.09621 0.0
H110 H 0.81797 0.97656 0.09123 0.0
H111 H 0.90733 0.98663 0.0822 0.0
O112 O 0.81138 1.01096 0.99672 0.0
H113 H 0.91919 0.06672 0.96474 0.0
H114 H 0.91482 0.92954 0.1419 0.0
Cu115 Cu 0.04257 0.69978 0.05654 0.0
N116 N 0.02425 0.67737 1.01227 0.0
N117 N 0.98945 0.67781 0.95895 0.0
C118 C 0.99878 0.70225 0.98693 0.0
C119 C 0.00977 0.63574 0.96713 0.0
C120 C 0.03141 0.63557 0.99998 0.0
O121 O 0.00951 0.72311 0.10149 0.0
C122 C 0.06981 0.73172 0.99499 0.0
O123 O 0.06704 0.69972 0.97225 0.0
H124 H 0.9869 0.7377 0.98962 0.0
H125 H 0.05061 0.60709 1.01435 0.0
N126 N 0.08105 0.65727 0.08068 0.0
N127 N 0.13168 0.6352 0.11015 0.0
C128 C 0.10997 0.66036 0.08069 0.0
C129 C 0.08466 0.62844 0.11095 0.0
C130 C 0.11594 0.61476 0.12924 0.0
C131 C 0.99511 0.69897 0.11016 0.0
O132 O 1.00341 0.66127 0.0893 0.0
H133 H 0.11376 0.6844 0.06285 0.0
H134 H 0.06512 0.62095 0.12173 0.0
O135 O 0.05775 0.7408 0.03232 0.0
H136 H 1.00913 0.60726 0.95046 0.0
H137 H 0.12545 0.59386 0.15635 0.0
Cu138 Cu 0.57175 0.55234 0.91746 0.0
N139 N 0.58461 0.59168 0.94737 0.0
N140 N 0.60949 0.63651 0.95686 0.0
C141 C 0.60113 0.61115 0.92894 0.0
C142 C 0.59763 0.63299 0.99461 0.0
C143 C 0.5821 0.60531 0.98861 0.0
O144 O 0.61218 0.50753 0.89318 0.0
C145 C 0.50776 0.6097 0.89887 0.0
O146 O 0.5081 0.60857 0.94068 0.0
H147 H 0.6079 0.60548 0.8958 0.0
H148 H 0.5703 0.59543 1.01267 0.0
N149 N 0.55652 0.52185 0.95214 0.0
N150 N 0.5311 0.47969 0.96638 0.0
C151 C 0.53608 0.50434 0.93731 0.0
C152 C 0.56501 0.50797 0.99225 0.0
C153 C 0.54915 0.4821 1.00125 0.0
C154 C 0.6272 0.50903 0.86028 0.0
O155 O 0.61341 0.54217 0.83476 0.0
H156 H 0.52547 0.50933 0.9053 0.0
H157 H 0.58234 0.51478 1.01287 0.0
O158 O 0.53446 0.58688 0.87935 0.0
H159 H 0.60009 0.64909 1.02433 0.0
H160 H 0.55181 0.46508 0.03053 0.0
Cu161 Cu 0.57983 0.53441 0.20443 0.0
N162 N 0.55588 0.50579 0.17756 0.0
N163 N 0.51879 0.47737 0.1714 0.0
C164 C 0.53271 0.49837 0.19725 0.0
C165 C 0.53394 0.4714 0.13376 0.0
C166 C 0.55683 0.48887 0.13768 0.0
O167 O 0.54767 0.58293 0.2374 0.0
C168 C 0.63813 0.46279 0.21181 0.0
O169 O 0.6315 0.46383 0.17056 0.0
H170 H 0.52597 0.50881 0.22995 0.0
H171 H 0.57313 0.48881 0.11329 0.0
N172 N 0.59872 0.55912 0.16768 0.0
N173 N 0.62989 0.59271 0.15003 0.0
C174 C 0.61986 0.57593 0.18174 0.0
C175 C 0.59511 0.56536 0.12537 0.0
C176 C 0.61432 0.58616 0.11441 0.0
C177 C 0.52553 0.61046 0.21348 0.0
O178 O 0.5279 0.60354 0.17195 0.0
H179 H 0.62715 0.57657 0.21501 0.0
H180 H 0.57945 0.55599 0.10406 0.0
O181 O 0.61702 0.49147 0.2361 0.0
H182 H 0.52931 0.45489 0.10559 0.0
H183 H 0.6168 0.59535 0.08268 0.0
Cu184 Cu 0.81468 0.54079 0.54203 0.0
N185 N 0.79798 0.58134 0.49968 0.0
N186 N 0.80087 0.61526 0.44209 0.0
C187 C 0.81789 0.58745 0.47281 0.0
C188 C 0.76875 0.62732 0.44995 0.0
C189 C 0.76702 0.60618 0.48581 0.0
O190 O 0.83429 0.56695 0.58689 0.0
C191 C 0.82567 0.47526 0.4798 0.0
O192 O 0.79563 0.50362 0.46999 0.0
H193 H 0.84451 0.57073 0.47523 0.0
H194 H 0.74494 0.60821 0.50024 0.0
N195 N 0.7823 0.53164 0.56887 0.0
N196 N 0.76638 0.49961 0.61777 0.0
C197 C 0.78823 0.51499 0.60783 0.0
C198 C 0.75522 0.52751 0.55351 0.0
C199 C 0.74542 0.50731 0.58374 0.0
C200 C 0.81274 0.60065 0.6063 0.0
O201 O 0.78169 0.61401 0.594 0.0
H202 H 0.81049 0.50958 0.62641 0.0
H203 H 0.7451 0.53494 0.52145 0.0
O204 O 0.841 0.48417 0.51167 0.0
H205 H 0.74812 0.65008 0.43149 0.0
H206 H 0.72608 0.49618 0.57976 0.0
Cu207 Cu 0.61885 0.86191 0.55182 0.0
N208 N 0.64566 0.86781 0.50997 0.0
N209 N 0.68324 0.86193 0.46215 0.0
C210 C 0.66847 0.84054 0.48244 0.0
C211 C 0.66891 0.90374 0.47718 0.0
C212 C 0.64618 0.9071 0.50646 0.0
O213 O 0.63842 0.86898 0.60697 0.0
C214 C 0.56326 0.91446 0.50362 0.0
O215 O 0.58459 0.9011 0.47287 0.0
H216 H 0.67506 0.80577 0.4787 0.0
H217 H 0.63115 0.9363 0.52478 0.0
N218 N 0.61305 0.80988 0.55283 0.0
N219 N 0.58131 0.77816 0.57435 0.0
C220 C 0.58239 0.81177 0.55375 0.0
C221 C 0.63242 0.7727 0.57268 0.0
C222 C 0.61297 0.75306 0.58584 0.0
C223 C 0.66957 0.84709 0.61021 0.0
O224 O 0.68529 0.8216 0.578 0.0
H225 H 0.56061 0.84051 0.54519 0.0
H226 H 0.65796 0.76341 0.58191 0.0
O227 O 0.57395 0.90635 0.54206 0.0
H228 H 0.67462 0.93018 0.46784 0.0
H229 H 0.62115 0.72478 0.60571 0.0
Cu230 Cu 0.31822 0.54775 0.55648 0.0
N231 N 0.34358 0.55924 0.51613 0.0
N232 N 0.35461 0.59648 0.46605 0.0
C233 C 0.33699 0.59915 0.50089 0.0
C234 C 0.3735 0.55311 0.45976 0.0
C235 C 0.36663 0.53035 0.4905 0.0
O236 O 0.30142 0.59811 0.5952 0.0
C237 C 0.27403 0.55178 0.48777 0.0
O238 O 0.2791 0.58498 0.4754 0.0
H239 H 0.31764 0.62925 0.51303 0.0
H240 H 0.37634 0.49511 0.49249 0.0
N241 N 0.34182 0.49886 0.59096 0.0
N242 N 0.35102 0.45016 0.6423 0.0
C243 C 0.32835 0.47951 0.61607 0.0
C244 C 0.37418 0.48077 0.60148 0.0
C245 C 0.37989 0.45093 0.63307 0.0
C246 C 0.32462 0.60669 0.6112 0.0
O247 O 0.35502 0.5817 0.60014 0.0
H248 H 0.30216 0.48838 0.61659 0.0
H249 H 0.39219 0.48988 0.58832 0.0
O250 O 0.2849 0.53597 0.52429 0.0
H251 H 0.39028 0.53859 0.43383 0.0
H252 H 0.40345 0.43167 0.64845 0.0
Cu253 Cu 0.52201 0.23221 0.54618 0.0
N254 N 0.55573 0.19697 0.51013 0.0
N255 N 0.59941 0.18076 0.46967 0.0
C256 C 0.57757 0.21058 0.49609 0.0
C257 C 0.59107 0.14666 0.46697 0.0
C258 C 0.56382 0.15694 0.49177 0.0
O259 O 0.5404 0.26922 0.5768 0.0
C260 C 0.46844 0.24015 0.49452 0.0
O261 O 0.48124 0.19822 0.5027 0.0
H262 H 0.57753 0.24188 0.50554 0.0
H263 H 0.55071 0.13691 0.49559 0.0
N264 N 0.51128 0.20052 0.58556 0.0
N265 N 0.48662 0.18891 0.6409 0.0
C266 C 0.49008 0.21907 0.61738 0.0
C267 C 0.52161 0.15696 0.58899 0.0
C268 C 0.50622 0.14971 0.62302 0.0
C269 C 0.55693 0.2558 0.61151 0.0
O270 O 0.55738 0.22083 0.62874 0.0
H271 H 0.47723 0.25418 0.62289 0.0
H272 H 0.5391 0.13219 0.56841 0.0
O273 O 0.4826 0.26339 0.5106 0.0
H274 H 0.60337 0.11686 0.44793 0.0
H275 H 0.50952 0.11815 0.63411 0.0
Dy276 Dy 0.27705 0.31912 0.36825 0.0
Dy277 Dy 0.31645 0.34984 0.29684 0.0
C278 C 0.30849 0.25846 0.28717 0.0
O279 O 0.33124 0.28771 0.38392 0.0
O280 O 0.34642 0.33838 0.35769 0.0
O281 O 0.2785 0.27147 0.4126 0.0
O282 O 0.23532 0.33353 0.40832 0.0
O283 O 0.28511 0.41127 0.33367 0.0
O284 O 0.27911 0.37992 0.39429 0.0
O285 O 0.27188 0.351 0.26106 0.0
O286 O 0.2394 0.34934 0.31555 0.0
O287 O 0.31973 0.39483 0.25208 0.0
O288 O 0.36093 0.33154 0.26153 0.0
C289 C 0.3516 0.30649 0.38353 0.0
O290 O 0.28508 0.27164 0.31494 0.0
O291 O 0.32731 0.27904 0.28222 0.0
C292 C 0.22727 0.27126 0.42551 0.0
C293 C 0.18949 0.22267 0.43003 0.0
C294 C 0.20691 0.22038 0.393 0.0
C295 C 0.22555 0.24453 0.39074 0.0
C296 C 0.20963 0.27423 0.46218 0.0
C297 C 0.19087 0.25025 0.46444 0.0
C298 C 0.24837 0.29473 0.42472 0.0
C299 C 0.27703 0.41403 0.3739 0.0
C300 C 0.24387 0.35331 0.27492 0.0
C301 C 0.37328 0.38665 0.23302 0.0
C302 C 0.41955 0.4195 0.21362 0.0
C303 C 0.4008 0.43411 0.25085 0.0
C304 C 0.37783 0.41783 0.26047 0.0
C305 C 0.39197 0.37198 0.19615 0.0
C306 C 0.4148 0.38811 0.18655 0.0
C307 C 0.34964 0.3682 0.24134 0.0
H308 H 0.20678 0.19914 0.36609 0.0
H309 H 0.23907 0.24178 0.36214 0.0
H310 H 0.21063 0.29479 0.48929 0.0
H311 H 0.17738 0.25342 0.49314 0.0
H312 H 0.40359 0.45848 0.27231 0.0
H313 H 0.36368 0.42954 0.28917 0.0
H314 H 0.38898 0.34772 0.17467 0.0
H315 H 0.42913 0.37536 0.15812 0.0
Dy316 Dy 0.81546 0.26344 0.32792 0.0
Dy317 Dy 0.84595 0.30485 0.25685 0.0
C318 C 0.76823 0.34062 0.26952 0.0
O319 O 0.80369 0.23862 0.26408 0.0
O320 O 0.84262 0.24628 0.22422 0.0
O321 O 0.8126 0.20675 0.35349 0.0
O322 O 0.78695 0.27081 0.38385 0.0
O323 O 0.89073 0.25983 0.29355 0.0
O324 O 0.86835 0.21727 0.32204 0.0
O325 O 0.83894 0.3478 0.31579 0.0
O326 O 0.83879 0.30133 0.36683 0.0
O327 O 0.83916 0.36185 0.22161 0.0
O328 O 0.88079 0.29952 0.20905 0.0
C329 C 0.82105 0.22999 0.2292 0.0
O330 O 0.77361 0.32578 0.30826 0.0
O331 O 0.79202 0.32779 0.24201 0.0
C332 C 0.76418 0.21966 0.38967 0.0
C333 C 0.70975 0.20213 0.40638 0.0
C334 C 0.70701 0.23308 0.37604 0.0
C335 C 0.73405 0.24172 0.36768 0.0
C336 C 0.76726 0.18807 0.41907 0.0
C337 C 0.74034 0.17932 0.42736 0.0
C338 C 0.79254 0.22955 0.38333 0.0
C339 C 0.89389 0.2244 0.31284 0.0
C340 C 0.84101 0.33726 0.35601 0.0
C341 C 0.88654 0.3644 0.19368 0.0
C342 C 0.92724 0.40546 0.17356 0.0
C343 C 0.93704 0.37405 0.20553 0.0
C344 C 0.91686 0.35364 0.21549 0.0
C345 C 0.87619 0.39683 0.16304 0.0
C346 C 0.89627 0.41719 0.15307 0.0
C347 C 0.86594 0.34097 0.20016 0.0
H348 H 0.68388 0.25087 0.35903 0.0
H349 H 0.73132 0.266 0.34457 0.0
H350 H 0.79039 0.17071 0.43628 0.0
H351 H 0.7432 0.15576 0.45129 0.0
H352 H 0.96086 0.36395 0.22164 0.0
H353 H 0.9253 0.32875 0.23936 0.0
H354 H 0.8528 0.40573 0.14599 0.0
H355 H 0.88777 0.44164 0.12878 0.0
Dy356 Dy 0.81502 0.76316 0.24702 0.0
Dy357 Dy 0.86131 0.78372 0.32612 0.0
C358 C 0.78531 0.80534 0.33751 0.0
O359 O 0.81138 0.83065 0.23768 0.0
O360 O 0.85739 0.82834 0.27522 0.0
O361 O 0.76818 0.78397 0.21291 0.0
O362 O 0.80941 0.72361 0.19377 0.0
O363 O 0.89756 0.74966 0.27454 0.0
O364 O 0.86345 0.74744 0.21759 0.0
O365 O 0.85315 0.72704 0.34626 0.0
O366 O 0.83673 0.70208 0.28378 0.0
O367 O 0.90339 0.76428 0.36984 0.0
O368 O 0.86424 0.83029 0.37371 0.0
C369 C 0.83425 0.84493 0.24588 0.0
O370 O 0.78607 0.77741 0.30659 0.0
O371 O 0.80783 0.82069 0.34123 0.0
C372 C 0.75615 0.72637 0.18288 0.0
C373 C 0.71488 0.68216 0.17118 0.0
C374 C 0.72304 0.69349 0.21249 0.0
C375 C 0.74355 0.71526 0.21827 0.0
C376 C 0.74808 0.71531 0.14174 0.0
C377 C 0.72769 0.69344 0.1359 0.0
C378 C 0.7781 0.74878 0.18808 0.0
C379 C 0.89242 0.74231 0.23381 0.0
C380 C 0.84556 0.69833 0.32436 0.0
C381 C 0.91765 0.8223 0.39321 0.0
C382 C 0.96114 0.8631 0.4041 0.0
C383 C 0.96202 0.83719 0.36715 0.0
C384 C 0.94036 0.81714 0.36166 0.0
C385 C 0.91686 0.84769 0.43014 0.0
C386 C 0.93829 0.86796 0.43554 0.0
C387 C 0.89344 0.80352 0.3876 0.0
H388 H 0.71333 0.68594 0.24043 0.0
H389 H 0.74955 0.72344 0.25034 0.0
H390 H 0.75775 0.72338 0.11403 0.0
H391 H 0.72245 0.68474 0.1037 0.0
H392 H 0.97951 0.83224 0.34248 0.0
H393 H 0.94118 0.79793 0.3327 0.0
H394 H 0.89924 0.85244 0.45462 0.0
H395 H 0.93636 0.88826 0.46399 0.0
Dy396 Dy 0.35438 0.81829 0.33708 0.0
Dy397 Dy 0.3253 0.77442 0.2588 0.0
C398 C 0.40251 0.74469 0.2734 0.0
O399 O 0.36399 0.84595 0.27763 0.0
O400 O 0.32646 0.83434 0.23235 0.0
O401 O 0.3526 0.87584 0.3721 0.0
O402 O 0.38399 0.81133 0.39509 0.0
O403 O 0.28141 0.81389 0.29843 0.0
O404 O 0.30094 0.86175 0.32845 0.0
O405 O 0.34124 0.7267 0.31162 0.0
O406 O 0.33567 0.77452 0.36803 0.0
O407 O 0.33087 0.7172 0.21962 0.0
O408 O 0.28997 0.78002 0.20784 0.0
C409 C 0.34668 0.8529 0.24138 0.0
O410 O 0.39794 0.75937 0.31318 0.0
O411 O 0.37801 0.756 0.24523 0.0
C412 C 0.39947 0.86905 0.41545 0.0
C413 C 0.44498 0.90101 0.44874 0.0
C414 C 0.42445 0.92041 0.41326 0.0
C415 C 0.40191 0.90462 0.39677 0.0
C416 C 0.41972 0.84995 0.45103 0.0
C417 C 0.44231 0.86557 0.46737 0.0
C418 C 0.37443 0.85347 0.40082 0.0
C419 C 0.27652 0.85113 0.31849 0.0
C420 C 0.33924 0.73573 0.35285 0.0
C421 C 0.28195 0.71621 0.18924 0.0
C422 C 0.23812 0.67787 0.16716 0.0
C423 C 0.23218 0.7073 0.20253 0.0
C424 C 0.25393 0.72633 0.21349 0.0
C425 C 0.28857 0.68572 0.15501 0.0
C426 C 0.26693 0.66669 0.14407 0.0
C427 C 0.30384 0.7383 0.19748 0.0
H428 H 0.42571 0.94792 0.39829 0.0
H429 H 0.38631 0.92045 0.36962 0.0
H430 H 0.41804 0.82285 0.46633 0.0
H431 H 0.45819 0.84917 0.49406 0.0
H432 H 0.21008 0.71697 0.22074 0.0
H433 H 0.24843 0.74972 0.24016 0.0
H434 H 0.3102 0.67732 0.13608 0.0
H435 H 0.27251 0.64369 0.11708 0.0
Dy436 Dy 0.30147 0.77251 0.83662 0.0
Dy437 Dy 0.33853 0.81056 0.76795 0.0
C438 C 0.25858 0.85343 0.77625 0.0
O439 O 0.29364 0.74955 0.77071 0.0
O440 O 0.34119 0.74653 0.74377 0.0
O441 O 0.28442 0.72537 0.85744 0.0
O442 O 0.27901 0.78161 0.89797 0.0
O443 O 0.37946 0.7639 0.8091 0.0
O444 O 0.35451 0.72356 0.8368 0.0
O445 O 0.31614 0.86112 0.81908 0.0
O446 O 0.3247 0.81207 0.87069 0.0
O447 O 0.37024 0.8424 0.75698 0.0
O448 O 0.34828 0.82062 0.70323 0.0
C449 C 0.31638 0.73562 0.74164 0.0
O450 O 0.26103 0.83414 0.81258 0.0
O451 O 0.28412 0.84386 0.75165 0.0
C452 C 0.24082 0.75152 0.90723 0.0
C453 C 0.1796 0.75962 0.93704 0.0
C454 C 0.18144 0.77665 0.89749 0.0
C455 C 0.21176 0.77275 0.88278 0.0
C456 C 0.23904 0.73504 0.94676 0.0
C457 C 0.20886 0.739 0.96152 0.0
C458 C 0.27321 0.74694 0.89323 0.0
C459 C 0.38102 0.72932 0.82872 0.0
C460 C 0.31804 0.85189 0.85937 0.0
C461 C 0.39959 0.82361 0.69238 0.0
C462 C 0.4596 0.80027 0.64958 0.0
C463 C 0.45616 0.77149 0.67821 0.0
C464 C 0.42645 0.78305 0.69939 0.0
C465 C 0.40277 0.85206 0.66364 0.0
C466 C 0.43231 0.84066 0.64258 0.0
C467 C 0.36843 0.838 0.71551 0.0
H468 H 0.15944 0.79304 0.87789 0.0
H469 H 0.21253 0.78617 0.85237 0.0
H470 H 0.26116 0.71871 0.96623 0.0
H471 H 0.20866 0.72478 0.99168 0.0
H472 H 0.47638 0.73996 0.68422 0.0
H473 H 0.42454 0.76054 0.72148 0.0
H474 H 0.38244 0.88364 0.65794 0.0
H475 H 0.43396 0.86419 0.6216 0.0
Dy476 Dy 0.31768 0.25768 0.78442 0.0
Dy477 Dy 0.35868 0.29078 0.85812 0.0
C478 C 0.28031 0.31873 0.86397 0.0
O479 O 0.32776 0.30821 0.75167 0.0
O480 O 0.34337 0.34236 0.80809 0.0
O481 O 0.28007 0.27014 0.73497 0.0
O482 O 0.31349 0.20324 0.74958 0.0
O483 O 0.39232 0.26589 0.80338 0.0
O484 O 0.37154 0.21982 0.772 0.0
O485 O 0.36596 0.22333 0.87634 0.0
O486 O 0.31946 0.22237 0.84403 0.0
O487 O 0.40156 0.27747 0.89906 0.0
O488 O 0.35878 0.34021 0.90452 0.0
C489 C 0.33526 0.33982 0.76737 0.0
O490 O 0.27814 0.30934 0.82315 0.0
O491 O 0.30887 0.30815 0.88395 0.0
C492 C 0.26103 0.21504 0.71981 0.0
C493 C 0.20948 0.18891 0.7028 0.0
C494 C 0.20691 0.22014 0.73563 0.0
C495 C 0.23249 0.23306 0.74411 0.0
C496 C 0.26371 0.18394 0.68721 0.0
C497 C 0.23827 0.17095 0.67879 0.0
C498 C 0.28806 0.22861 0.72677 0.0
C499 C 0.39441 0.23452 0.77568 0.0
C500 C 0.34354 0.20776 0.87292 0.0
C501 C 0.41067 0.33934 0.92372 0.0
C502 C 0.45195 0.38291 0.93911 0.0
C503 C 0.45809 0.3516 0.90532 0.0
C504 C 0.43758 0.33015 0.89758 0.0
C505 C 0.40454 0.37033 0.95746 0.0
C506 C 0.42487 0.39199 0.96506 0.0
C507 C 0.38908 0.31655 0.91735 0.0
H508 H 0.185 0.23495 0.75451 0.0
H509 H 0.22992 0.25722 0.7694 0.0
H510 H 0.28558 0.16964 0.66816 0.0
H511 H 0.24143 0.14627 0.65385 0.0
H512 H 0.47894 0.34331 0.88501 0.0
H513 H 0.44286 0.30629 0.87135 0.0
H514 H 0.38389 0.37787 0.978 0.0
H515 H 0.41902 0.41635 0.99087 0.0
Dy516 Dy 0.83806 0.33498 0.83672 0.0
Dy517 Dy 0.79977 0.28617 0.77366 0.0
C518 C 0.87918 0.24814 0.7778 0.0
O519 O 0.8134 0.38016 0.78363 0.0
O520 O 0.81044 0.33044 0.73291 0.0
O521 O 0.86827 0.37049 0.8447 0.0
O522 O 0.84992 0.35299 0.90034 0.0
O523 O 0.76094 0.35158 0.79188 0.0
O524 O 0.78416 0.365 0.85466 0.0
O525 O 0.8035 0.26444 0.84046 0.0
O526 O 0.85084 0.26964 0.86252 0.0
O527 O 0.76864 0.25194 0.76978 0.0
O528 O 0.78652 0.26548 0.71181 0.0
C529 C 0.80789 0.36969 0.74419 0.0
O530 O 0.87745 0.28541 0.7954 0.0
O531 O 0.8531 0.23989 0.77145 0.0
C532 C 0.90235 0.35476 0.90732 0.0
C533 C 0.96597 0.3324 0.94483 0.0
C534 C 0.96139 0.30801 0.90946 0.0
C535 C 0.92991 0.31901 0.89098 0.0
C536 C 0.90662 0.37832 0.94328 0.0
C537 C 0.93803 0.36727 0.96189 0.0
C538 C 0.86937 0.36907 0.8863 0.0
C539 C 0.75851 0.37342 0.82822 0.0
C540 C 0.83049 0.25136 0.86433 0.0
C541 C 0.73346 0.26503 0.70832 0.0
C542 C 0.67014 0.28112 0.67365 0.0
C543 C 0.67367 0.2998 0.71353 0.0
C544 C 0.70499 0.29202 0.7306 0.0
C545 C 0.72994 0.24808 0.66767 0.0
C546 C 0.69862 0.25617 0.65041 0.0
C547 C 0.76677 0.25135 0.72822 0.0
H548 H 0.9822 0.28064 0.89576 0.0
H549 H 0.92719 0.30012 0.86343 0.0
H550 H 0.88572 0.40602 0.95642 0.0
H551 H 0.94054 0.38718 0.98868 0.0
H552 H 0.65222 0.31949 0.73204 0.0
H553 H 0.70692 0.30594 0.76186 0.0
H554 H 0.75152 0.22718 0.64991 0.0
H555 H 0.69682 0.24092 0.61984 0.0
Dy556 Dy 0.80216 0.77392 0.82823 0.0
Dy557 Dy 0.84368 0.80189 0.75923 0.0
C558 C 0.82664 0.71794 0.74028 0.0
O559 O 0.85611 0.73368 0.84082 0.0
O560 O 0.87584 0.78086 0.81757 0.0
O561 O 0.79784 0.72403 0.86466 0.0
O562 O 0.76476 0.79254 0.87595 0.0
O563 O 0.82305 0.86037 0.80461 0.0
O564 O 0.81117 0.82868 0.86086 0.0
O565 O 0.79453 0.81831 0.72813 0.0
O566 O 0.76251 0.81605 0.78271 0.0
O567 O 0.84641 0.84634 0.71393 0.0
O568 O 0.88861 0.7844 0.72491 0.0
C569 C 0.87906 0.74811 0.84105 0.0
O570 O 0.80382 0.73275 0.76941 0.0
O571 O 0.84827 0.7346 0.73718 0.0
C572 C 0.74589 0.7398 0.8941 0.0
C573 C 0.69735 0.71203 0.915 0.0
C574 C 0.71294 0.69978 0.87538 0.0
C575 C 0.737 0.71358 0.86499 0.0
C576 C 0.72995 0.75282 0.93315 0.0
C577 C 0.7059 0.73914 0.94353 0.0
C578 C 0.77286 0.7521 0.88601 0.0
C579 C 0.81526 0.86128 0.8448 0.0
C580 C 0.7658 0.82556 0.74346 0.0
C581 C 0.89917 0.84292 0.70146 0.0
C582 C 0.94023 0.88598 0.69075 0.0
C583 C 0.92143 0.8941 0.72769 0.0
C584 C 0.90105 0.87275 0.73299 0.0
C585 C 0.9181 0.83436 0.66496 0.0
C586 C 0.93843 0.8556 0.65962 0.0
C587 C 0.87702 0.82126 0.70494 0.0
H588 H 0.70723 0.67851 0.85284 0.0
H589 H 0.74906 0.70309 0.83467 0.0
H590 H 0.73651 0.77309 0.95602 0.0
H591 H 0.69407 0.74974 0.97397 0.0
H592 H 0.92197 0.91757 0.75212 0.0
H593 H 0.88653 0.87984 0.76139 0.0
H594 H 0.917 0.81136 0.64032 0.0
H595 H 0.95293 0.84795 0.63118 0.0
C596 C 0.15293 0.15003 0.47372 0.0
C597 C 0.13565 0.14316 0.43782 0.0
H598 H 0.18397 0.17957 0.49926 0.0
C599 C 0.1356 0.16344 0.39966 0.0
H600 H 0.15378 0.13451 0.50344 0.0
C601 C 0.15271 0.18953 0.39728 0.0
C602 C 0.17044 0.19591 0.43297 0.0
H603 H 0.12204 0.15954 0.37164 0.0
H604 H 0.15178 0.20503 0.3675 0.0
C605 C 0.1702 0.17597 0.47129 0.0
C606 C 0.98667 0.15284 0.31972 0.0
C607 C 0.98866 0.12647 0.35413 0.0
H608 H 0.95499 0.20572 0.28002 0.0
C609 C 0.95955 0.13239 0.37392 0.0
H610 H 1.00882 0.14919 0.30417 0.0
C611 C 0.92914 0.16393 0.36004 0.0
C612 C 0.92689 0.19117 0.32637 0.0
H613 H 0.96024 0.11258 0.40048 0.0
H614 H 0.90735 0.16743 0.37641 0.0
C615 C 0.95598 0.18539 0.30623 0.0
C616 C 0.01655 0.91272 0.45552 0.0
C617 C 0.02406 0.93123 0.42057 0.0
H618 H 0.99175 0.87606 0.47773 0.0
C619 C 0.01108 0.92634 0.37999 0.0
H620 H 0.02572 0.91593 0.48732 0.0
C621 C 0.99095 0.90409 0.37463 0.0
C622 C 0.98337 0.88577 0.40961 0.0
H623 H 0.01647 0.93947 0.35209 0.0
H624 H 0.9809 0.90191 0.34306 0.0
C625 C 0.99663 0.89019 0.45008 0.0
C626 C 0.20893 0.94255 0.37864 0.0
C627 C 0.18015 0.94456 0.3574 0.0
H628 H 0.26141 0.9119 0.38298 0.0
C629 C 0.18299 0.9156 0.32244 0.0
H630 H 0.20755 0.96442 0.40568 0.0
C631 C 0.21426 0.8844 0.3098 0.0
C632 C 0.24301 0.88257 0.33136 0.0
H633 H 0.16114 0.91621 0.30579 0.0
H634 H 0.21595 0.86207 0.28309 0.0
C635 C 0.23986 0.91234 0.3656 0.0
C636 C 0.18972 0.93547 0.70837 0.0
C637 C 0.16309 0.9523 0.73631 0.0
H638 H 0.24026 0.89177 0.6988 0.0
C639 C 0.16823 0.93675 0.77798 0.0
H640 H 0.18684 0.94676 0.67605 0.0
C641 C 0.19916 0.90457 0.79099 0.0
C642 C 0.22571 0.88762 0.76277 0.0
H643 H 0.1483 0.94891 0.80027 0.0
H644 H 0.20224 0.89304 0.82323 0.0
C645 C 0.22055 0.90383 0.72143 0.0
C646 C 0.14272 0.1507 0.72057 0.0
C647 C 0.13495 0.1405 0.67874 0.0
H648 H 0.17233 0.17326 0.76096 0.0
C649 C 0.15071 0.14856 0.64463 0.0
H650 H 0.1307 0.14579 0.74764 0.0
C651 C 0.17435 0.16511 0.65231 0.0
C652 C 0.1828 0.17403 0.69428 0.0
H653 H 0.14544 0.14106 0.61205 0.0
H654 H 0.18614 0.1707 0.6253 0.0
C655 C 0.16635 0.16711 0.72824 0.0
C656 C 0.97186 0.17604 0.77395 0.0
C657 C 0.97323 0.14584 0.7408 0.0
H658 H 0.94098 0.23306 0.81105 0.0
C659 C 0.94361 0.14931 0.72073 0.0
H660 H 0.99432 0.17442 0.78967 0.0
C661 C 0.91333 0.18222 0.7331 0.0
C662 C 0.91177 0.21336 0.76527 0.0
H663 H 0.94386 0.12654 0.69504 0.0
H664 H 0.8911 0.18376 0.71673 0.0
C665 C 0.94138 0.20987 0.78576 0.0
C666 C 0.98411 0.94509 0.63806 0.0
C667 C 1.0025 0.95246 0.67243 0.0
H668 H 0.94963 0.91933 0.61697 0.0
C669 C 1.00026 0.93766 0.71286 0.0
H670 H 0.98484 0.95652 0.60665 0.0
C671 C 0.98008 0.91628 0.71881 0.0
C672 C 0.96159 0.90905 0.6845 0.0
H673 H 0.01447 0.94201 0.73993 0.0
H674 H 0.97939 0.90478 0.75023 0.0
C675 C 0.96388 0.92373 0.64403 0.0
C676 C 0.28575 0.17408 0.23071 0.0
C677 C 0.30137 0.16826 0.19175 0.0
H678 H 0.27687 0.20574 0.29213 0.0
C679 C 0.32285 0.18804 0.18628 0.0
H680 H 0.26978 0.15822 0.23608 0.0
C681 C 0.32704 0.21547 0.21847 0.0
C682 C 0.30995 0.22314 0.25664 0.0
H683 H 0.33524 0.18381 0.15644 0.0
H684 H 0.34234 0.23219 0.2126 0.0
C685 C 0.29014 0.20099 0.26292 0.0
C686 C 0.994 0.44705 0.17478 0.0
C687 C 0.99873 0.44807 0.13091 0.0
H688 H 0.96764 0.43287 0.22279 0.0
C689 C 0.97774 0.43895 0.10154 0.0
H690 H 0.01001 0.45336 0.19823 0.0
C691 C 0.95378 0.42677 0.11551 0.0
C692 C 0.95018 0.42339 0.15931 0.0
H693 H 0.98082 0.43947 0.06757 0.0
H694 H 0.93918 0.41793 0.09182 0.0
C695 C 0.97005 0.43467 0.18884 0.0
C696 C 0.83061 0.9055 0.14652 0.0
C697 C 0.85517 0.92034 0.1561 0.0
H698 H 0.80412 0.87057 0.1678 0.0
C699 C 0.86998 0.9143 0.19696 0.0
H700 H 0.8188 0.90976 0.11518 0.0
C701 C 0.86134 0.8924 0.22718 0.0
C702 C 0.83787 0.87575 0.21705 0.0
H703 H 0.88831 0.92641 0.20558 0.0
H704 H 0.87394 0.88728 0.25807 0.0
C705 C 0.82201 0.88339 0.17674 0.0
C706 C 0.17044 0.63804 0.16774 0.0
C707 C 0.16142 0.63909 0.12417 0.0
H708 H 0.20186 0.64932 0.2156 0.0
C709 C 0.17966 0.64932 0.09481 0.0
H710 H 0.15669 0.6307 0.19121 0.0
C711 C 0.20522 0.66038 0.10872 0.0
C712 C 0.21325 0.66148 0.15245 0.0
H713 H 0.17339 0.65018 0.06104 0.0
H714 H 0.2177 0.66997 0.08525 0.0
C715 C 0.19602 0.64929 0.18175 0.0
C716 C 0.31061 0.91192 0.96564 0.0
C717 C 0.29229 0.95559 0.95407 0.0
H718 H 0.33315 0.84456 0.94456 0.0
C719 C 0.28205 0.9649 0.91143 0.0
H720 H 0.3187 0.9042 0.99847 0.0
C721 C 0.29083 0.93109 0.88053 0.0
C722 C 0.30955 0.8874 0.89197 0.0
H723 H 0.26829 0.99841 0.90179 0.0
H724 H 0.28285 0.93919 0.84772 0.0
C725 C 0.31893 0.87799 0.93488 0.0
C726 C 0.22413 0.35652 0.95888 0.0
C727 C 0.19263 0.37364 0.93929 0.0
H728 H 0.27621 0.32646 0.95076 0.0
C729 C 0.19006 0.37381 0.89442 0.0
H730 H 0.22693 0.35631 0.99332 0.0
C731 C 0.21841 0.35636 0.86976 0.0
C732 C 0.24995 0.33894 0.88946 0.0
H733 H 0.16612 0.38641 0.87838 0.0
H734 H 0.2156 0.3563 0.83531 0.0
C735 C 0.25239 0.33965 0.93435 0.0
C736 C 0.82758 0.15483 0.91655 0.0
C737 C 0.85782 0.13776 0.93941 0.0
H738 H 0.79504 0.20431 0.87535 0.0
C739 C 0.879 0.15845 0.93767 0.0
H740 H 0.811 0.13909 0.91678 0.0
C741 C 0.86983 0.19599 0.91389 0.0
C742 C 0.83941 0.21322 0.89129 0.0
H743 H 0.90227 0.14613 0.95534 0.0
H744 H 0.88668 0.21131 0.91308 0.0
C745 C 0.81844 0.19219 0.89278 0.0
C746 C 0.95528 0.7336 0.90776 0.0
C747 C 0.96283 0.69391 0.92771 0.0
H748 H 0.92332 0.78147 0.86449 0.0
C749 C 0.94334 0.67115 0.91773 0.0
H750 H 0.9701 0.75158 0.91448 0.0
C751 C 0.91626 0.68844 0.88928 0.0
C752 C 0.90849 0.72847 0.86972 0.0
H753 H 0.94849 0.64064 0.93286 0.0
H754 H 0.90131 0.67058 0.88283 0.0
C755 C 0.92859 0.75054 0.8789 0.0
C756 C 0.16368 0.35741 0.22439 0.0
C757 C 0.16943 0.35616 0.18048 0.0
H758 H 0.18222 0.3579 0.28851 0.0
C759 C 0.19963 0.35476 0.1681 0.0
H760 H 0.14068 0.35869 0.2352 0.0
C761 C 0.22333 0.35479 0.19871 0.0
C762 C 0.21761 0.35613 0.24267 0.0
H763 H 0.20493 0.354 0.13465 0.0
H764 H 0.24632 0.35341 0.18774 0.0
C765 C 0.18746 0.35728 0.25506 0.0
C766 C 0.11262 0.76105 1.00925 0.0
C767 C 0.09304 0.74882 0.9802 0.0
H768 H 0.15526 0.77432 1.01851 0.0
C769 C 0.0999 0.74543 0.93651 0.0
H770 H 0.1082 0.76359 0.04314 0.0
C771 C 0.12686 0.7513 0.92238 0.0
C772 C 0.14796 0.76044 0.9516 0.0
H773 H 0.08532 0.73598 0.91327 0.0
H774 H 0.13226 0.74603 0.88875 0.0
C775 C 0.13988 0.7666 0.99512 0.0
C776 C 0.31426 0.13774 0.9354 0.0
C777 C 0.33713 0.12401 0.96981 0.0
H778 H 0.29857 0.17364 0.87816 0.0
C779 C 0.3643 0.13455 0.97023 0.0
H780 H 0.29306 0.13012 0.93401 0.0
C781 C 0.3673 0.16047 0.93801 0.0
C782 C 0.34338 0.17588 0.90458 0.0
H783 H 0.38212 0.12492 0.99654 0.0
H784 H 0.38771 0.16966 0.94014 0.0
C785 C 0.31741 0.16291 0.90325 0.0
C786 C 0.03668 0.32518 1.02122 0.0
C787 C 0.06172 0.31935 0.99274 0.0
H788 H 0.98691 0.33385 1.02866 0.0
C789 C 0.05614 0.31273 0.94905 0.0
H790 H 0.04008 0.33002 0.05512 0.0
C791 C 0.02567 0.31487 0.93388 0.0
C792 C 0.9998 0.32383 0.96194 0.0
H793 H 0.07479 0.30803 0.9261 0.0
H794 H 0.02187 0.31191 0.89978 0.0
C795 C 1.00603 0.32771 1.00598 0.0
C796 C 0.83181 0.95604 0.89298 0.0
C797 C 0.81933 0.9612 0.93429 0.0
H798 H 0.83985 0.92154 0.83237 0.0
C799 C 0.80249 0.93622 0.94456 0.0
H800 H 0.84521 0.97451 0.8842 0.0
C801 C 0.80005 0.90486 0.91496 0.0
C802 C 0.81393 0.89831 0.87422 0.0
H803 H 0.79315 0.9388 0.97631 0.0
H804 H 0.78823 0.88472 0.92457 0.0
C805 C 0.82884 0.92546 0.86323 0.0
C806 C 0.96799 0.73801 0.17864 0.0
C807 C 0.96871 0.71205 0.14195 0.0
H808 H 0.94375 0.76694 0.23742 0.0
C809 C 0.94465 0.69569 0.13649 0.0
H810 H 0.98634 0.75078 0.18387 0.0
C811 C 0.92032 0.70517 0.16658 0.0
C812 C 0.91974 0.73045 0.20361 0.0
H813 H 0.94444 0.67563 0.10856 0.0
H814 H 0.90199 0.6924 0.1609 0.0
C815 C 0.9439 0.74672 0.20949 0.0
C816 C 0.33308 0.91461 0.13873 0.0
C817 C 0.34545 0.94579 0.14923 0.0
H818 H 0.32411 0.86115 0.15876 0.0
C819 C 0.36136 0.94378 0.18929 0.0
H820 H 0.3202 0.91578 0.10842 0.0
C821 C 0.36328 0.91243 0.21894 0.0
C822 C 0.34903 0.88285 0.20914 0.0
H823 H 0.37031 0.96817 0.19873 0.0
H824 H 0.37437 0.91286 0.25021 0.0
C825 C 0.33496 0.88357 0.16801 0.0
C826 C 0.80286 0.14075 0.16827 0.0
C827 C 0.81851 0.13752 0.12951 0.0
H828 H 0.79121 0.17258 0.23052 0.0
C829 C 0.83166 0.16768 0.12261 0.0
H830 H 0.79328 0.11721 0.17498 0.0
C831 C 0.83095 0.1987 0.15423 0.0
C832 C 0.81722 0.20052 0.19415 0.0
H833 H 0.84432 0.16562 0.09337 0.0
H834 H 0.84245 0.2202 0.14781 0.0
C835 C 0.80207 0.17215 0.20026 0.0
C836 C 0.65109 0.66407 0.97901 0.0
C837 C 0.62931 0.65923 0.94788 0.0
H838 H 0.69013 0.68366 0.99288 0.0
C839 C 0.62871 0.6743 0.9067 0.0
H840 H 0.65234 0.65241 1.01089 0.0
C841 C 0.65021 0.6923 0.89635 0.0
C842 C 0.67293 0.69563 0.92692 0.0
H843 H 0.61173 0.67183 0.88225 0.0
H844 H 0.64913 0.70342 0.86426 0.0
C845 C 0.67275 0.68196 0.96861 0.0
C846 C 0.47419 0.66229 0.84186 0.0
C847 C 0.47604 0.63647 0.87659 0.0
H848 H 0.44262 0.71268 0.79985 0.0
C849 C 0.44656 0.63975 0.89362 0.0
H850 H 0.49649 0.66073 0.82836 0.0
C851 C 0.41592 0.66878 0.87713 0.0
C852 C 0.41383 0.6962 0.84372 0.0
H853 H 0.44718 0.62024 0.9204 0.0
H854 H 0.39384 0.67076 0.89166 0.0
C855 C 0.44335 0.69227 0.82587 0.0
C856 C 0.50016 0.44111 0.99483 0.0
C857 C 0.51196 0.45447 0.96 0.0
H858 H 0.4725 0.40755 1.01576 0.0
C859 C 0.50445 0.44308 0.91848 0.0
H860 H 0.50527 0.44938 1.02722 0.0
C861 C 0.48522 0.41983 0.91188 0.0
C862 C 0.47314 0.40681 0.94658 0.0
H863 H 0.51349 0.45189 0.89074 0.0
H864 H 0.47938 0.41274 0.87939 0.0
C865 C 0.48101 0.41752 0.98821 0.0
C866 C 0.67363 0.46606 0.81122 0.0
C867 C 0.66107 0.47469 0.85249 0.0
H868 H 0.71406 0.42717 0.77144 0.0
C869 C 0.68148 0.45079 0.88646 0.0
H870 H 0.6587 0.48392 0.78443 0.0
C871 C 0.71368 0.41892 0.8792 0.0
C872 C 0.72577 0.40952 0.83768 0.0
H873 H 0.67265 0.45699 0.91876 0.0
H874 H 0.72872 0.40084 0.90582 0.0
C875 C 0.70538 0.43352 0.80384 0.0
C876 C 0.69543 0.40738 0.19834 0.0
C877 C 0.67083 0.43095 0.22783 0.0
H878 H 0.74506 0.36099 0.18827 0.0
C879 C 0.67832 0.42412 0.27159 0.0
H880 H 0.69067 0.41181 0.16436 0.0
C881 C 0.70983 0.39426 0.2854 0.0
C882 C 0.73449 0.37129 0.25569 0.0
H883 H 0.65991 0.44176 0.29508 0.0
H884 H 0.71501 0.38968 0.3193 0.0
C885 C 0.72681 0.37822 0.21206 0.0
C886 C 0.64971 0.64602 0.12544 0.0
C887 C 0.65188 0.61408 0.15418 0.0
H888 H 0.66714 0.69316 0.10866 0.0
C889 C 0.67541 0.6041 0.18789 0.0
H890 H 0.63169 0.65487 0.09938 0.0
C891 C 0.69586 0.62589 0.19317 0.0
C892 C 0.69334 0.65843 0.16495 0.0
H893 H 0.67829 0.57907 0.21013 0.0
H894 H 0.71392 0.61681 0.21921 0.0
C895 C 0.67011 0.66799 0.13081 0.0
C896 C 0.47221 0.67534 0.20167 0.0
C897 C 0.49592 0.64751 0.23053 0.0
H898 H 0.42453 0.72768 0.19258 0.0
C899 C 0.48982 0.65431 0.27444 0.0
H900 H 0.4761 0.67147 0.16762 0.0
C901 C 0.45996 0.68728 0.28889 0.0
C902 C 0.4357 0.71355 0.25958 0.0
H903 H 0.50763 0.6335 0.29746 0.0
H904 H 0.45535 0.69101 0.32276 0.0
C905 C 0.44249 0.70771 0.21596 0.0
C906 C 0.48876 0.45701 0.22473 0.0
C907 C 0.49344 0.46387 0.18207 0.0
H908 H 0.46231 0.43736 0.26809 0.0
C909 C 0.47294 0.45715 0.15009 0.0
H910 H 0.50429 0.4612 0.25023 0.0
C911 C 0.44871 0.4436 0.16041 0.0
C912 C 0.44432 0.43615 0.20301 0.0
H913 H 0.47536 0.46277 0.11702 0.0
H914 H 0.43324 0.43919 0.13489 0.0
C915 C 0.46456 0.44336 0.23505 0.0
C916 C 0.79703 0.64246 0.67561 0.0
C917 C 0.82038 0.62465 0.64339 0.0
H918 H 0.78086 0.68452 0.731 0.0
C919 C 0.84766 0.63506 0.64502 0.0
H920 H 0.77571 0.63516 0.67548 0.0
C921 C 0.85043 0.66442 0.67701 0.0
C922 C 0.82624 0.68344 0.70839 0.0
H923 H 0.86589 0.62234 0.62045 0.0
H924 H 0.87106 0.67307 0.67648 0.0
C925 C 0.8 0.67099 0.70763 0.0
C926 C 0.52142 0.7976 0.56822 0.0
C927 C 0.5517 0.7777 0.59076 0.0
H928 H 0.46911 0.81915 0.56825 0.0
C929 C 0.55171 0.7618 0.63146 0.0
H930 H 0.52049 0.80975 0.53664 0.0
C931 C 0.52208 0.76767 0.64994 0.0
C932 C 0.49159 0.78947 0.62818 0.0
H933 H 0.5744 0.74682 0.65007 0.0
H934 H 0.52302 0.7569 0.68212 0.0
C935 C 0.49187 0.80324 0.58655 0.0
C936 C 0.36382 0.41651 0.71361 0.0
C937 C 0.3456 0.42474 0.67471 0.0
H938 H 0.37429 0.38446 0.77366 0.0
C939 C 0.32264 0.40672 0.66771 0.0
H940 H 0.38151 0.43016 0.7202 0.0
C941 C 0.31884 0.37994 0.69809 0.0
C942 C 0.33726 0.37138 0.73685 0.0
H943 H 0.30836 0.41221 0.63808 0.0
H944 H 0.3016 0.36561 0.69103 0.0
C945 C 0.35944 0.39062 0.74445 0.0
C946 C 0.59902 0.28484 0.60037 0.0
C947 C 0.5809 0.27259 0.62821 0.0
H948 H 0.64178 0.29699 0.59286 0.0
C949 C 0.59008 0.26865 0.67172 0.0
H950 H 0.59277 0.28759 0.56657 0.0
C951 C 0.61786 0.27427 0.68677 0.0
C952 C 0.63751 0.28328 0.65854 0.0
H953 H 0.57667 0.259 0.69386 0.0
H954 H 0.62514 0.2687 0.72012 0.0
C955 C 0.62727 0.28974 0.61534 0.0
C956 C 0.84426 0.4396 0.40886 0.0
C957 C 0.83987 0.43501 0.45209 0.0
H958 H 0.84856 0.41263 0.34513 0.0
C959 C 0.83931 0.39574 0.46435 0.0
H960 H 0.8438 0.46998 0.39825 0.0
C961 C 0.84143 0.36279 0.43362 0.0
C962 C 0.84386 0.36857 0.38987 0.0
H963 H 0.83478 0.39189 0.49719 0.0
H964 H 0.83933 0.3339 0.44393 0.0
C965 C 0.84649 0.40681 0.37828 0.0
C966 C 0.73243 0.86406 0.43193 0.0
C967 C 0.70987 0.84514 0.43237 0.0
H968 H 0.77335 0.86684 0.40204 0.0
C969 C 0.71274 0.81201 0.40175 0.0
H970 H 0.73137 0.88906 0.45552 0.0
C971 C 0.73703 0.79918 0.37063 0.0
C972 C 0.75907 0.81903 0.36975 0.0
H973 H 0.6957 0.79692 0.40119 0.0
H974 H 0.73848 0.77378 0.34726 0.0
C975 C 0.75662 0.85122 0.40118 0.0
C976 C 0.34058 0.67517 0.45385 0.0
C977 C 0.35072 0.63165 0.43811 0.0
H978 H 0.32923 0.74201 0.43979 0.0
C979 C 0.35644 0.6232 0.39416 0.0
H980 H 0.33606 0.68293 0.48749 0.0
C981 C 0.35222 0.65701 0.36682 0.0
C982 C 0.34243 0.70046 0.38248 0.0
H983 H 0.36373 0.59042 0.38059 0.0
H984 H 0.35696 0.64883 0.33326 0.0
C985 C 0.33672 0.70907 0.42647 0.0
C986 C 0.42804 0.29927 0.44751 0.0
C987 C 0.43808 0.25878 0.4671 0.0
H988 H 0.39305 0.34598 0.4052 0.0
C989 C 0.41921 0.23474 0.45934 0.0
H990 H 0.44208 0.31851 0.45275 0.0
C991 C 0.39116 0.25049 0.43261 0.0
C992 C 0.38131 0.29053 0.41234 0.0
H993 H 0.42609 0.2035 0.47401 0.0
H994 H 0.3774 0.23086 0.42745 0.0
C995 C 0.40005 0.31485 0.42012 0.0
C996 C 0.68392 0.84239 0.68878 0.0
C997 C 0.68923 0.8517 0.64737 0.0
H998 H 0.70428 0.82658 0.75238 0.0
C999 C 0.71726 0.85839 0.63982 0.0
H1000 H 0.66257 0.83662 0.69512 0.0
C1001 C 0.74075 0.85318 0.6722 0.0
C1002 C 0.73715 0.84023 0.7129 0.0
H1003 H 0.72182 0.86568 0.60812 0.0
H1004 H 0.76266 0.85702 0.66448 0.0
C1005 C 0.70785 0.83652 0.72141 0.0
C1006 C 0.65595 0.14845 0.44183 0.0
C1007 C 0.62614 0.18516 0.4497 0.0
H1008 H 0.70581 0.12489 0.42161 0.0
C1009 C 0.62339 0.22691 0.44006 0.0
H1010 H 0.65884 0.11591 0.44903 0.0
C1011 C 0.65016 0.23212 0.42458 0.0
C1012 C 0.68044 0.19569 0.4184 0.0
H1013 H 0.60059 0.25579 0.44509 0.0
H1014 H 0.64745 0.26496 0.41902 0.0
C1015 C 0.68289 0.15368 0.4265 0.0
C1016 C 0.84421 0.6346 0.4178 0.0
C1017 C 0.81471 0.63019 0.40944 0.0
H1018 H 0.87773 0.65893 0.39647 0.0
C1019 C 0.79862 0.64183 0.36955 0.0
H1020 H 0.85708 0.62606 0.44835 0.0
C1021 C 0.81086 0.65991 0.33944 0.0
C1022 C 0.83903 0.66725 0.34923 0.0
H1023 H 0.77613 0.63808 0.36217 0.0
H1024 H 0.79686 0.67117 0.30995 0.0
C1025 C 0.85616 0.65319 0.38806 0.0
C1026 C 0.50766 0.91992 0.52199 0.0
C1027 C 0.52847 0.92425 0.49213 0.0
H1028 H 0.46469 0.90923 0.53171 0.0
C1029 C 0.51817 0.92897 0.44895 0.0
H1030 H 0.51464 0.91668 0.55557 0.0
C1031 C 0.48977 0.92433 0.43523 0.0
C1032 C 0.47088 0.91513 0.46444 0.0
H1033 H 0.53339 0.93289 0.42512 0.0
H1034 H 0.48412 0.92467 0.40131 0.0
C1035 C 0.47923 0.91512 0.50823 0.0
C1036 C 0.27369 0.5238 0.41262 0.0
C1037 C 0.26595 0.5242 0.45569 0.0
H1038 H 0.28354 0.48817 0.35252 0.0
C1039 C 0.25649 0.4923 0.46912 0.0
H1040 H 0.28118 0.54799 0.40135 0.0
C1041 C 0.25771 0.45832 0.44122 0.0
C1042 C 0.2688 0.45521 0.39937 0.0
H1043 H 0.25013 0.49204 0.50199 0.0
H1044 H 0.25181 0.43304 0.45338 0.0
C1045 C 0.27523 0.48941 0.38465 0.0
C1046 C 0.44926 0.17135 0.68418 0.0
C1047 C 0.46593 0.19745 0.67717 0.0
H1048 H 0.4134 0.16256 0.72087 0.0
C1049 C 0.461 0.23336 0.70508 0.0
H1050 H 0.45255 0.14357 0.66303 0.0
C1051 C 0.43903 0.24392 0.73843 0.0
C1052 C 0.4211 0.21914 0.74432 0.0
H1053 H 0.47388 0.25364 0.70077 0.0
H1054 H 0.43518 0.27262 0.75853 0.0
C1055 C 0.42683 0.1823 0.71723 0.0
C1056 C 0.77008 0.42969 0.64287 0.0
C1057 C 0.77181 0.46985 0.65142 0.0
H1058 H 0.78086 0.36602 0.66521 0.0
C1059 C 0.78421 0.47758 0.69123 0.0
H1060 H 0.76114 0.42275 0.61211 0.0
C1061 C 0.79585 0.44511 0.7215 0.0
C1062 C 0.79555 0.40413 0.71228 0.0
H1063 H 0.78584 0.50836 0.69828 0.0
H1064 H 0.80572 0.45184 0.75169 0.0
C1065 C 0.78198 0.397 0.67299 0.0
C1066 C 0.34126 0.66244 0.6432 0.0
C1067 C 0.31881 0.64355 0.64151 0.0
H1068 H 0.35779 0.7064 0.6755 0.0
C1069 C 0.29349 0.65747 0.67114 0.0
H1070 H 0.36073 0.6527 0.62033 0.0
C1071 C 0.29193 0.68832 0.70359 0.0
C1072 C 0.31552 0.70564 0.70631 0.0
H1073 H 0.27596 0.64313 0.67038 0.0
H1074 H 0.27293 0.69762 0.72707 0.0
C1075 C 0.33956 0.69321 0.67502 0.0
loop_
_geom_bond_atom_site_label_1
_geom_bond_atom_site_label_2
_geom_bond_distance
_geom_bond_site_symmetry_2
_ccdc_geom_bond_type
Cu0 N1 1.999 . S
Cu0 O6 1.974 1_545 S
Cu0 N11 1.985 1_545 S
Cu0 O20 1.959 . S
N1 Cu0 1.999 . S
N1 C3 1.263 . S
N1 C5 1.389 . S
N2 C3 1.358 . S
N2 C4 1.400 . S
C3 N1 1.263 . S
C3 N2 1.358 . S
C3 H9 0.930 . S
C4 N2 1.400 . S
C4 C5 1.351 . S
C4 H21 0.930 . S
C5 N1 1.389 . S
C5 C4 1.351 . S
C5 H10 0.930 . S
O6 Cu0 1.974 1_565 S
O6 C16 1.282 . S
C7 O8 1.261 . S
C7 O20 1.251 . S
O8 C7 1.261 . S
H9 C3 0.930 . S
H10 C5 0.930 . S
N11 Cu0 1.985 1_565 S
N11 C13 1.341 1_565 S
N11 C14 1.390 . S
N12 C13 1.327 1_565 S
N12 C15 1.336 . S
C13 N11 1.341 1_545 S
C13 N12 1.327 1_545 S
C13 H18 0.940 . S
C14 N11 1.390 . S
C14 C15 1.346 . S
C14 H19 0.930 . S
C15 N12 1.336 . S
C15 C14 1.346 . S
C15 H22 0.929 . S
C16 O6 1.282 . S
C16 O17 1.216 . S
O17 C16 1.216 . S
H18 C13 0.940 . S
H19 C14 0.930 . S
O20 Cu0 1.959 . S
O20 C7 1.251 . S
H21 C4 0.930 . S
H22 C15 0.929 . S
Cu23 N24 1.999 1_545 S
Cu23 O29 1.974 . S
Cu23 N34 1.985 . S
Cu23 O43 1.959 1_545 S
N24 Cu23 1.999 1_565 S
N24 C26 1.263 . S
N24 C28 1.389 . S
N25 C26 1.358 . S
N25 C27 1.400 . S
C26 N24 1.263 . S
C26 N25 1.358 . S
C26 H32 0.930 . S
C27 N25 1.400 . S
C27 C28 1.351 . S
C27 H44 0.930 . S
C28 N24 1.389 . S
C28 C27 1.351 . S
C28 H33 0.930 . S
O29 Cu23 1.974 . S
O29 C39 1.282 . S
C30 O31 1.261 . S
C30 O43 1.251 . S
O31 C30 1.261 . S
H32 C26 0.930 . S
H33 C28 0.930 . S
N34 Cu23 1.985 . S
N34 C36 1.335 . S
N34 C37 1.390 . S
N35 C36 1.345 . S
N35 C38 1.336 . S
C36 N34 1.335 . S
C36 N35 1.345 . S
C36 H41 0.930 . S
C37 N34 1.390 . S
C37 C38 1.346 . S
C37 H42 0.930 . S
C38 N35 1.336 . S
C38 C37 1.346 . S
C38 H45 0.929 . S
C39 O29 1.282 . S
C39 O40 1.216 . S
O40 C39 1.216 . S
H41 C36 0.930 . S
H42 C37 0.930 . S
O43 Cu23 1.959 1_565 S
O43 C30 1.251 . S
H44 C27 0.930 . S
H45 C38 0.929 . S
Cu46 N47 1.999 1_544 S
Cu46 O52 1.974 1_545 S
Cu46 N57 1.985 . S
Cu46 O66 1.959 1_554 S
N47 Cu46 1.999 1_566 S
N47 C49 1.263 . S
N47 C51 1.389 . S
N48 C49 1.358 . S
N48 C50 1.400 . S
C49 N47 1.263 . S
C49 N48 1.358 . S
C49 H55 0.930 . S
C50 N48 1.400 . S
C50 C51 1.351 . S
C50 H67 0.930 . S
C51 N47 1.389 . S
C51 C50 1.351 . S
C51 H56 0.930 1_565 S
O52 Cu46 1.974 1_565 S
O52 C62 1.282 . S
C53 O54 1.261 . S
C53 O66 1.251 . S
O54 C53 1.261 . S
H55 C49 0.930 . S
H56 C51 0.930 1_545 S
N57 Cu46 1.985 . S
N57 C59 1.335 . S
N57 C60 1.390 . S
N58 C59 1.345 . S
N58 C61 1.336 . S
C59 N57 1.335 . S
C59 N58 1.345 . S
C59 H64 0.930 . S
C60 N57 1.390 . S
C60 C61 1.346 . S
C60 H65 0.930 . S
C61 N58 1.336 . S
C61 C60 1.346 . S
C61 H68 0.929 . S
C62 O52 1.282 . S
C62 O63 1.216 1_565 S
O63 C62 1.216 1_545 S
H64 C59 0.930 . S
H65 C60 0.930 . S
O66 Cu46 1.959 1_556 S
O66 C53 1.251 . S
H67 C50 0.930 . S
H68 C61 0.929 . S
Cu69 N70 1.999 1_554 S
Cu69 O75 1.974 . S
Cu69 N80 1.985 . S
Cu69 O89 1.959 1_554 S
N70 Cu69 1.999 1_556 S
N70 C72 1.263 . S
N70 C74 1.389 . S
N71 C72 1.358 . S
N71 C73 1.400 . S
C72 N70 1.263 . S
C72 N71 1.358 . S
C72 H78 0.930 1_556 S
C73 N71 1.400 . S
C73 C74 1.351 . S
C73 H90 0.930 . S
C74 N70 1.389 . S
C74 C73 1.351 . S
C74 H79 0.930 . S
O75 Cu69 1.974 . S
O75 C85 1.282 . S
C76 O77 1.261 . S
C76 O89 1.251 . S
O77 C76 1.261 . S
H78 C72 0.930 1_554 S
H79 C74 0.930 . S
N80 Cu69 1.985 . S
N80 C82 1.335 . S
N80 C83 1.390 . S
N81 C82 1.345 . S
N81 C84 1.336 . S
C82 N80 1.335 . S
C82 N81 1.345 . S
C82 H87 0.930 . S
C83 N80 1.390 . S
C83 C84 1.346 . S
C83 H88 0.930 . S
C84 N81 1.336 . S
C84 C83 1.346 . S
C84 H91 0.929 . S
C85 O75 1.282 . S
C85 O86 1.216 . S
O86 C85 1.216 . S
H87 C82 0.930 . S
H88 C83 0.930 . S
O89 Cu69 1.959 1_556 S
O89 C76 1.251 . S
H90 C73 0.930 . S
H91 C84 0.929 . S
Cu92 N93 1.999 1_554 S
Cu92 O98 1.974 . S
Cu92 N103 1.985 1_545 S
Cu92 O112 1.959 1_544 S
N93 Cu92 1.999 1_556 S
N93 C95 1.263 . S
N93 C97 1.389 . S
N94 C95 1.358 . S
N94 C96 1.400 . S
C95 N93 1.263 . S
C95 N94 1.358 . S
C95 H101 0.930 . S
C96 N94 1.400 . S
C96 C97 1.351 . S
C96 H113 0.930 . S
C97 N93 1.389 . S
C97 C96 1.351 . S
C97 H102 0.930 . S
O98 Cu92 1.974 . S
O98 C108 1.282 . S
C99 O100 1.261 . S
C99 O112 1.251 . S
O100 C99 1.261 . S
H101 C95 0.930 . S
H102 C97 0.930 . S
N103 Cu92 1.985 1_565 S
N103 C105 1.335 . S
N103 C106 1.390 . S
N104 C105 1.345 . S
N104 C107 1.336 . S
C105 N103 1.335 . S
C105 N104 1.345 . S
C105 H110 0.930 . S
C106 N103 1.390 . S
C106 C107 1.346 . S
C106 H111 0.930 . S
C107 N104 1.336 . S
C107 C106 1.346 . S
C107 H114 0.929 . S
C108 O98 1.282 . S
C108 O109 1.216 . S
O109 C108 1.216 . S
H110 C105 0.930 . S
H111 C106 0.930 . S
O112 Cu92 1.959 1_566 S
O112 C99 1.251 . S
H113 C96 0.930 . S
H114 C107 0.929 . S
Cu115 N116 1.992 1_454 S
Cu115 O121 1.980 1_455 S
Cu115 N126 1.992 . S
Cu115 O135 1.952 1_554 S
N116 Cu115 1.992 1_656 S
N116 C118 1.263 . S
N116 C120 1.389 1_655 S
N117 C118 1.358 . S
N117 C119 1.400 . S
C118 N116 1.263 . S
C118 N117 1.358 . S
C118 H124 0.930 . S
C119 N117 1.400 . S
C119 C120 1.351 1_655 S
C119 H136 0.930 . S
C120 N116 1.389 1_455 S
C120 C119 1.351 1_455 S
C120 H125 0.930 . S
O121 Cu115 1.980 1_655 S
O121 C131 1.282 . S
C122 O123 1.261 . S
C122 O135 1.251 . S
O123 C122 1.261 . S
H124 C118 0.930 . S
H125 C120 0.930 . S
N126 Cu115 1.992 . S
N126 C128 1.335 . S
N126 C129 1.390 . S
N127 C128 1.345 . S
N127 C130 1.336 . S
C128 N126 1.335 . S
C128 N127 1.345 . S
C128 H133 0.930 . S
C129 N126 1.390 . S
C129 C130 1.346 . S
C129 H134 0.930 . S
C130 N127 1.336 . S
C130 C129 1.346 . S
C130 H137 0.929 . S
C131 O121 1.282 . S
C131 O132 1.216 . S
O132 C131 1.216 . S
H133 C128 0.930 . S
H134 C129 0.930 . S
O135 Cu115 1.952 1_556 S
O135 C122 1.251 . S
H136 C119 0.930 . S
H137 C130 0.929 . S
Cu138 N139 1.999 . S
Cu138 O144 1.974 . S
Cu138 N149 1.985 . S
Cu138 O158 1.959 . S
N139 Cu138 1.999 . S
N139 C141 1.263 . S
N139 C143 1.389 . S
N140 C141 1.358 . S
N140 C142 1.400 . S
C141 N139 1.263 . S
C141 N140 1.358 . S
C141 H147 0.930 . S
C142 N140 1.400 . S
C142 C143 1.351 . S
C142 H159 0.930 . S
C143 N139 1.389 . S
C143 C142 1.351 . S
C143 H148 0.930 . S
O144 Cu138 1.974 . S
O144 C154 1.282 . S
C145 O146 1.261 . S
C145 O158 1.251 . S
O146 C145 1.261 . S
H147 C141 0.930 . S
H148 C143 0.930 . S
N149 Cu138 1.985 . S
N149 C151 1.335 . S
N149 C152 1.390 . S
N150 C151 1.345 . S
N150 C153 1.336 . S
C151 N149 1.335 . S
C151 N150 1.345 . S
C151 H156 0.930 . S
C152 N149 1.390 . S
C152 C153 1.346 . S
C152 H157 0.930 . S
C153 N150 1.336 . S
C153 C152 1.346 . S
C153 H160 0.929 . S
C154 O144 1.282 . S
C154 O155 1.216 . S
O155 C154 1.216 . S
H156 C151 0.930 . S
H157 C152 0.930 . S
O158 Cu138 1.959 . S
O158 C145 1.251 . S
H159 C142 0.930 . S
H160 C153 0.929 . S
Cu161 N162 1.999 . S
Cu161 O167 1.974 . S
Cu161 N172 1.985 . S
Cu161 O181 1.959 . S
N162 Cu161 1.999 . S
N162 C164 1.263 . S
N162 C166 1.389 . S
N163 C164 1.358 . S
N163 C165 1.400 . S
C164 N162 1.263 . S
C164 N163 1.358 . S
C164 H170 0.930 . S
C165 N163 1.400 . S
C165 C166 1.351 . S
C165 H182 0.930 . S
C166 N162 1.389 . S
C166 C165 1.351 . S
C166 H171 0.930 . S
O167 Cu161 1.974 . S
O167 C177 1.282 . S
C168 O169 1.261 . S
C168 O181 1.251 . S
O169 C168 1.261 . S
H170 C164 0.930 . S
H171 C166 0.930 . S
N172 Cu161 1.985 . S
N172 C174 1.335 . S
N172 C175 1.390 . S
N173 C174 1.345 . S
N173 C176 1.336 . S
C174 N172 1.335 . S
C174 N173 1.345 . S
C174 H179 0.930 . S
C175 N172 1.390 . S
C175 C176 1.346 . S
C175 H180 0.930 . S
C176 N173 1.336 . S
C176 C175 1.346 . S
C176 H183 0.929 . S
C177 O167 1.282 . S
C177 O178 1.216 . S
O178 C177 1.216 . S
H179 C174 0.930 . S
H180 C175 0.930 . S
O181 Cu161 1.959 . S
O181 C168 1.251 . S
H182 C165 0.930 . S
H183 C176 0.929 . S
Cu184 N185 1.999 . S
Cu184 O190 1.974 . S
Cu184 N195 1.985 . S
Cu184 O204 1.959 . S
N185 Cu184 1.999 . S
N185 C187 1.263 . S
N185 C189 1.389 . S
N186 C187 1.358 . S
N186 C188 1.400 . S
C187 N185 1.263 . S
C187 N186 1.358 . S
C187 H193 0.930 . S
C188 N186 1.400 . S
C188 C189 1.351 . S
C188 H205 0.930 . S
C189 N185 1.389 . S
C189 C188 1.351 . S
C189 H194 0.930 . S
O190 Cu184 1.974 . S
O190 C200 1.282 . S
C191 O192 1.261 . S
C191 O204 1.251 . S
O192 C191 1.261 . S
H193 C187 0.930 . S
H194 C189 0.930 . S
N195 Cu184 1.985 . S
N195 C197 1.335 . S
N195 C198 1.390 . S
N196 C197 1.345 . S
N196 C199 1.336 . S
C197 N195 1.335 . S
C197 N196 1.345 . S
C197 H202 0.930 . S
C198 N195 1.390 . S
C198 C199 1.346 . S
C198 H203 0.930 . S
C199 N196 1.336 . S
C199 C198 1.346 . S
C199 H206 0.929 . S
C200 O190 1.282 . S
C200 O201 1.216 . S
O201 C200 1.216 . S
H202 C197 0.930 . S
H203 C198 0.930 . S
O204 Cu184 1.959 . S
O204 C191 1.251 . S
H205 C188 0.930 . S
H206 C199 0.929 . S
Cu207 N208 1.999 . S
Cu207 O213 1.974 . S
Cu207 N218 1.985 . S
Cu207 O227 1.959 . S
N208 Cu207 1.999 . S
N208 C210 1.263 . S
N208 C212 1.389 . S
N209 C210 1.358 . S
N209 C211 1.400 . S
C210 N208 1.263 . S
C210 N209 1.358 . S
C210 H216 0.930 . S
C211 N209 1.400 . S
C211 C212 1.351 . S
C211 H228 0.930 . S
C212 N208 1.389 . S
C212 C211 1.351 . S
C212 H217 0.930 . S
O213 Cu207 1.974 . S
O213 C223 1.282 . S
C214 O215 1.261 . S
C214 O227 1.251 . S
O215 C214 1.261 . S
H216 C210 0.930 . S
H217 C212 0.930 . S
N218 Cu207 1.985 . S
N218 C220 1.335 . S
N218 C221 1.390 . S
N219 C220 1.345 . S
N219 C222 1.336 . S
C220 N218 1.335 . S
C220 N219 1.345 . S
C220 H225 0.930 . S
C221 N218 1.390 . S
C221 C222 1.346 . S
C221 H226 0.930 . S
C222 N219 1.336 . S
C222 C221 1.346 . S
C222 H229 0.929 . S
C223 O213 1.282 . S
C223 O224 1.216 . S
O224 C223 1.216 . S
H225 C220 0.930 . S
H226 C221 0.930 . S
O227 Cu207 1.959 . S
O227 C214 1.251 . S
H228 C211 0.930 . S
H229 C222 0.929 . S
Cu230 N231 1.999 . S
Cu230 O236 1.974 . S
Cu230 N241 1.985 . S
Cu230 O250 1.959 . S
N231 Cu230 1.999 . S
N231 C233 1.263 . S
N231 C235 1.389 . S
N232 C233 1.358 . S
N232 C234 1.400 . S
C233 N231 1.263 . S
C233 N232 1.358 . S
C233 H239 0.930 . S
C234 N232 1.400 . S
C234 C235 1.351 . S
C234 H251 0.930 . S
C235 N231 1.389 . S
C235 C234 1.351 . S
C235 H240 0.930 . S
O236 Cu230 1.974 . S
O236 C246 1.282 . S
C237 O238 1.261 . S
C237 O250 1.251 . S
O238 C237 1.261 . S
H239 C233 0.930 . S
H240 C235 0.930 . S
N241 Cu230 1.985 . S
N241 C243 1.335 . S
N241 C244 1.390 . S
N242 C243 1.345 . S
N242 C245 1.336 . S
C243 N241 1.335 . S
C243 N242 1.345 . S
C243 H248 0.930 . S
C244 N241 1.390 . S
C244 C245 1.346 . S
C244 H249 0.930 . S
C245 N242 1.336 . S
C245 C244 1.346 . S
C245 H252 0.929 . S
C246 O236 1.282 . S
C246 O247 1.216 . S
O247 C246 1.216 . S
H248 C243 0.930 . S
H249 C244 0.930 . S
O250 Cu230 1.959 . S
O250 C237 1.251 . S
H251 C234 0.930 . S
H252 C245 0.929 . S
Cu253 N254 1.999 . S
Cu253 O259 1.974 . S
Cu253 N264 1.985 . S
Cu253 O273 1.959 . S
N254 Cu253 1.999 . S
N254 C256 1.263 . S
N254 C258 1.389 . S
N255 C256 1.358 . S
N255 C257 1.400 . S
C256 N254 1.263 . S
C256 N255 1.358 . S
C256 H262 0.930 . S
C257 N255 1.400 . S
C257 C258 1.351 . S
C257 H274 0.930 . S
C258 N254 1.389 . S
C258 C257 1.351 . S
C258 H263 0.930 . S
O259 Cu253 1.974 . S
O259 C269 1.282 . S
C260 O261 1.261 . S
C260 O273 1.251 . S
O261 C260 1.261 . S
H262 C256 0.930 . S
H263 C258 0.930 . S
N264 Cu253 1.985 . S
N264 C266 1.335 . S
N264 C267 1.390 . S
N265 C266 1.345 . S
N265 C268 1.336 . S
C266 N264 1.335 . S
C266 N265 1.345 . S
C266 H271 0.930 . S
C267 N264 1.390 . S
C267 C268 1.346 . S
C267 H272 0.930 . S
C268 N265 1.336 . S
C268 C267 1.346 . S
C268 H275 0.929 . S
C269 O259 1.282 . S
C269 O270 1.216 . S
O270 C269 1.216 . S
H271 C266 0.930 . S
H272 C267 0.930 . S
O273 Cu253 1.959 . S
O273 C260 1.251 . S
H274 C257 0.930 . S
H275 C268 0.929 . S
Dy276 O279 2.307 . S
Dy276 O281 2.395 . S
Dy276 O282 2.379 . S
Dy276 O284 2.339 . S
Dy276 O286 2.298 . S
Dy276 O290 2.275 . S
Dy276 C298 2.738 . S
Dy277 O280 2.298 . S
Dy277 O283 2.275 . S
Dy277 O285 2.307 . S
Dy277 O287 2.395 . S
Dy277 O288 2.379 . S
Dy277 O291 2.339 . S
Dy277 C307 2.738 . S
C278 O290 1.254 . S
C278 O291 1.257 . S
O279 Dy276 2.307 . S
O279 C289 1.266 . S
O280 Dy277 2.298 . S
O280 C289 1.236 . S
O281 Dy276 2.395 . S
O281 C298 1.255 . S
O282 Dy276 2.379 . S
O282 C298 1.249 . S
O283 Dy277 2.275 . S
O283 C299 1.254 . S
O284 Dy276 2.339 . S
O284 C299 1.257 . S
O285 Dy277 2.307 . S
O285 C300 1.266 . S
O286 Dy276 2.298 . S
O286 C300 1.236 . S
O287 Dy277 2.395 . S
O287 C307 1.255 . S
O288 Dy277 2.379 . S
O288 C307 1.249 . S
C289 O279 1.266 . S
C289 O280 1.236 . S
O290 Dy276 2.275 . S
O290 C278 1.254 . S
O291 Dy277 2.339 . S
O291 C278 1.257 . S
C292 C295 1.344 . S
C292 C296 1.328 . S
C292 C298 1.516 . S
C293 C294 1.304 . S
C293 C297 1.323 . S
C294 C293 1.304 . S
C294 C295 1.371 . S
C294 H308 0.930 . S
C295 C292 1.344 . S
C295 C294 1.371 . S
C295 H309 0.931 . S
C296 C292 1.328 . S
C296 C297 1.433 . S
C296 H310 0.931 . S
C297 C293 1.323 . S
C297 C296 1.433 . S
C297 H311 0.933 . S
C298 Dy276 2.738 . S
C298 O281 1.255 . S
C298 O282 1.249 . S
C298 C292 1.516 . S
C299 O283 1.254 . S
C299 O284 1.257 . S
C300 O285 1.266 . S
C300 O286 1.236 . S
C301 C304 1.344 . S
C301 C305 1.328 . S
C301 C307 1.516 . S
C302 C303 1.304 . S
C302 C306 1.323 . S
C303 C302 1.304 . S
C303 C304 1.371 . S
C303 H312 0.930 . S
C304 C301 1.344 . S
C304 C303 1.371 . S
C304 H313 0.931 . S
C305 C301 1.328 . S
C305 C306 1.433 . S
C305 H314 0.931 . S
C306 C302 1.323 . S
C306 C305 1.433 . S
C306 H315 0.933 . S
C307 Dy277 2.738 . S
C307 O287 1.255 . S
C307 O288 1.249 . S
C307 C301 1.516 . S
H308 C294 0.930 . S
H309 C295 0.931 . S
H310 C296 0.931 . S
H311 C297 0.933 . S
H312 C303 0.930 . S
H313 C304 0.931 . S
H314 C305 0.931 . S
H315 C306 0.933 . S
Dy316 O319 2.307 . S
Dy316 O321 2.395 . S
Dy316 O322 2.379 . S
Dy316 O324 2.339 . S
Dy316 O326 2.298 . S
Dy316 O330 2.275 . S
Dy316 C338 2.738 . S
Dy317 O320 2.298 . S
Dy317 O323 2.275 . S
Dy317 O325 2.307 . S
Dy317 O327 2.395 . S
Dy317 O328 2.379 . S
Dy317 O331 2.339 . S
Dy317 C347 2.738 . S
C318 O330 1.254 . S
C318 O331 1.257 . S
O319 Dy316 2.307 . S
O319 C329 1.266 . S
O320 Dy317 2.298 . S
O320 C329 1.236 . S
O321 Dy316 2.395 . S
O321 C338 1.255 . S
O322 Dy316 2.379 . S
O322 C338 1.249 . S
O323 Dy317 2.275 . S
O323 C339 1.254 . S
O324 Dy316 2.339 . S
O324 C339 1.257 . S
O325 Dy317 2.307 . S
O325 C340 1.266 . S
O326 Dy316 2.298 . S
O326 C340 1.236 . S
O327 Dy317 2.395 . S
O327 C347 1.255 . S
O328 Dy317 2.379 . S
O328 C347 1.249 . S
C329 O319 1.266 . S
C329 O320 1.236 . S
O330 Dy316 2.275 . S
O330 C318 1.254 . S
O331 Dy317 2.339 . S
O331 C318 1.257 . S
C332 C335 1.344 . S
C332 C336 1.328 . S
C332 C338 1.516 . S
C333 C334 1.304 . S
C333 C337 1.323 . S
C334 C333 1.304 . S
C334 C335 1.371 . S
C334 H348 0.930 . S
C335 C332 1.344 . S
C335 C334 1.371 . S
C335 H349 0.931 . S
C336 C332 1.328 . S
C336 C337 1.433 . S
C336 H350 0.931 . S
C337 C333 1.323 . S
C337 C336 1.433 . S
C337 H351 0.933 . S
C338 Dy316 2.738 . S
C338 O321 1.255 . S
C338 O322 1.249 . S
C338 C332 1.516 . S
C339 O323 1.254 . S
C339 O324 1.257 . S
C340 O325 1.266 . S
C340 O326 1.236 . S
C341 C344 1.344 . S
C341 C345 1.328 . S
C341 C347 1.516 . S
C342 C343 1.304 . S
C342 C346 1.323 . S
C343 C342 1.304 . S
C343 C344 1.371 . S
C343 H352 0.930 . S
C344 C341 1.344 . S
C344 C343 1.371 . S
C344 H353 0.931 . S
C345 C341 1.328 . S
C345 C346 1.433 . S
C345 H354 0.931 . S
C346 C342 1.323 . S
C346 C345 1.433 . S
C346 H355 0.933 . S
C347 Dy317 2.738 . S
C347 O327 1.255 . S
C347 O328 1.249 . S
C347 C341 1.516 . S
H348 C334 0.930 . S
H349 C335 0.931 . S
H350 C336 0.931 . S
H351 C337 0.933 . S
H352 C343 0.930 . S
H353 C344 0.931 . S
H354 C345 0.931 . S
H355 C346 0.933 . S
Dy356 O359 2.307 . S
Dy356 O361 2.395 . S
Dy356 O362 2.379 . S
Dy356 O364 2.339 . S
Dy356 O366 2.298 . S
Dy356 O370 2.275 . S
Dy356 C378 2.738 . S
Dy357 O360 2.298 . S
Dy357 O363 2.275 . S
Dy357 O365 2.307 . S
Dy357 O367 2.395 . S
Dy357 O368 2.379 . S
Dy357 O371 2.339 . S
Dy357 C387 2.738 . S
C358 O370 1.254 . S
C358 O371 1.257 . S
O359 Dy356 2.307 . S
O359 C369 1.266 . S
O360 Dy357 2.298 . S
O360 C369 1.236 . S
O361 Dy356 2.395 . S
O361 C378 1.255 . S
O362 Dy356 2.379 . S
O362 C378 1.249 . S
O363 Dy357 2.275 . S
O363 C379 1.254 . S
O364 Dy356 2.339 . S
O364 C379 1.257 . S
O365 Dy357 2.307 . S
O365 C380 1.266 . S
O366 Dy356 2.298 . S
O366 C380 1.236 . S
O367 Dy357 2.395 . S
O367 C387 1.255 . S
O368 Dy357 2.379 . S
O368 C387 1.249 . S
C369 O359 1.266 . S
C369 O360 1.236 . S
O370 Dy356 2.275 . S
O370 C358 1.254 . S
O371 Dy357 2.339 . S
O371 C358 1.257 . S
C372 C375 1.344 . S
C372 C376 1.328 . S
C372 C378 1.516 . S
C373 C374 1.304 . S
C373 C377 1.323 . S
C374 C373 1.304 . S
C374 C375 1.371 . S
C374 H388 0.930 . S
C375 C372 1.344 . S
C375 C374 1.371 . S
C375 H389 0.931 . S
C376 C372 1.328 . S
C376 C377 1.433 . S
C376 H390 0.931 . S
C377 C373 1.323 . S
C377 C376 1.433 . S
C377 H391 0.933 . S
C378 Dy356 2.738 . S
C378 O361 1.255 . S
C378 O362 1.249 . S
C378 C372 1.516 . S
C379 O363 1.254 . S
C379 O364 1.257 . S
C380 O365 1.266 . S
C380 O366 1.236 . S
C381 C384 1.344 . S
C381 C385 1.328 . S
C381 C387 1.516 . S
C382 C383 1.304 . S
C382 C386 1.323 . S
C383 C382 1.304 . S
C383 C384 1.371 . S
C383 H392 0.930 . S
C384 C381 1.344 . S
C384 C383 1.371 . S
C384 H393 0.931 . S
C385 C381 1.328 . S
C385 C386 1.433 . S
C385 H394 0.931 . S
C386 C382 1.323 . S
C386 C385 1.433 . S
C386 H395 0.933 . S
C387 Dy357 2.738 . S
C387 O367 1.255 . S
C387 O368 1.249 . S
C387 C381 1.516 . S
H388 C374 0.930 . S
H389 C375 0.931 . S
H390 C376 0.931 . S
H391 C377 0.933 . S
H392 C383 0.930 . S
H393 C384 0.931 . S
H394 C385 0.931 . S
H395 C386 0.933 . S
Dy396 O399 2.307 . S
Dy396 O401 2.395 . S
Dy396 O402 2.379 . S
Dy396 O404 2.339 . S
Dy396 O406 2.298 . S
Dy396 O410 2.275 . S
Dy396 C418 2.738 . S
Dy397 O400 2.298 . S
Dy397 O403 2.275 . S
Dy397 O405 2.307 . S
Dy397 O407 2.395 . S
Dy397 O408 2.379 . S
Dy397 O411 2.339 . S
Dy397 C427 2.738 . S
C398 O410 1.254 . S
C398 O411 1.257 . S
O399 Dy396 2.307 . S
O399 C409 1.266 . S
O400 Dy397 2.298 . S
O400 C409 1.236 . S
O401 Dy396 2.395 . S
O401 C418 1.255 . S
O402 Dy396 2.379 . S
O402 C418 1.249 . S
O403 Dy397 2.275 . S
O403 C419 1.254 . S
O404 Dy396 2.339 . S
O404 C419 1.257 . S
O405 Dy397 2.307 . S
O405 C420 1.266 . S
O406 Dy396 2.298 . S
O406 C420 1.236 . S
O407 Dy397 2.395 . S
O407 C427 1.255 . S
O408 Dy397 2.379 . S
O408 C427 1.249 . S
C409 O399 1.266 . S
C409 O400 1.236 . S
O410 Dy396 2.275 . S
O410 C398 1.254 . S
O411 Dy397 2.339 . S
O411 C398 1.257 . S
C412 C415 1.344 . S
C412 C416 1.328 . S
C412 C418 1.516 . S
C413 C414 1.304 . S
C413 C417 1.323 . S
C414 C413 1.304 . S
C414 C415 1.371 . S
C414 H428 0.930 . S
C415 C412 1.344 . S
C415 C414 1.371 . S
C415 H429 0.931 . S
C416 C412 1.328 . S
C416 C417 1.433 . S
C416 H430 0.931 . S
C417 C413 1.323 . S
C417 C416 1.433 . S
C417 H431 0.933 . S
C418 Dy396 2.738 . S
C418 O401 1.255 . S
C418 O402 1.249 . S
C418 C412 1.516 . S
C419 O403 1.254 . S
C419 O404 1.257 . S
C420 O405 1.266 . S
C420 O406 1.236 . S
C421 C424 1.344 . S
C421 C425 1.328 . S
C421 C427 1.516 . S
C422 C423 1.304 . S
C422 C426 1.323 . S
C423 C422 1.304 . S
C423 C424 1.371 . S
C423 H432 0.930 . S
C424 C421 1.344 . S
C424 C423 1.371 . S
C424 H433 0.931 . S
C425 C421 1.328 . S
C425 C426 1.433 . S
C425 H434 0.931 . S
C426 C422 1.323 . S
C426 C425 1.433 . S
C426 H435 0.933 . S
C427 Dy397 2.738 . S
C427 O407 1.255 . S
C427 O408 1.249 . S
C427 C421 1.516 . S
H428 C414 0.930 . S
H429 C415 0.931 . S
H430 C416 0.931 . S
H431 C417 0.933 . S
H432 C423 0.930 . S
H433 C424 0.931 . S
H434 C425 0.931 . S
H435 C426 0.933 . S
Dy436 O439 2.307 . S
Dy436 O441 2.395 . S
Dy436 O442 2.379 . S
Dy436 O444 2.339 . S
Dy436 O446 2.298 . S
Dy436 O450 2.275 . S
Dy436 C458 2.738 . S
Dy437 O440 2.298 . S
Dy437 O443 2.275 . S
Dy437 O445 2.307 . S
Dy437 O447 2.395 . S
Dy437 O448 2.379 . S
Dy437 O451 2.339 . S
Dy437 C467 2.738 . S
C438 O450 1.254 . S
C438 O451 1.257 . S
O439 Dy436 2.307 . S
O439 C449 1.266 . S
O440 Dy437 2.298 . S
O440 C449 1.236 . S
O441 Dy436 2.395 . S
O441 C458 1.255 . S
O442 Dy436 2.379 . S
O442 C458 1.249 . S
O443 Dy437 2.275 . S
O443 C459 1.254 . S
O444 Dy436 2.339 . S
O444 C459 1.257 . S
O445 Dy437 2.307 . S
O445 C460 1.266 . S
O446 Dy436 2.298 . S
O446 C460 1.236 . S
O447 Dy437 2.395 . S
O447 C467 1.255 . S
O448 Dy437 2.379 . S
O448 C467 1.249 . S
C449 O439 1.266 . S
C449 O440 1.236 . S
O450 Dy436 2.275 . S
O450 C438 1.254 . S
O451 Dy437 2.339 . S
O451 C438 1.257 . S
C452 C455 1.344 . S
C452 C456 1.328 . S
C452 C458 1.516 . S
C453 C454 1.304 . S
C453 C457 1.323 . S
C454 C453 1.304 . S
C454 C455 1.371 . S
C454 H468 0.930 . S
C455 C452 1.344 . S
C455 C454 1.371 . S
C455 H469 0.931 . S
C456 C452 1.328 . S
C456 C457 1.433 . S
C456 H470 0.931 . S
C457 C453 1.323 . S
C457 C456 1.433 . S
C457 H471 0.933 . S
C458 Dy436 2.738 . S
C458 O441 1.255 . S
C458 O442 1.249 . S
C458 C452 1.516 . S
C459 O443 1.254 . S
C459 O444 1.257 . S
C460 O445 1.266 . S
C460 O446 1.236 . S
C461 C464 1.344 . S
C461 C465 1.328 . S
C461 C467 1.516 . S
C462 C463 1.304 . S
C462 C466 1.323 . S
C463 C462 1.304 . S
C463 C464 1.371 . S
C463 H472 0.930 . S
C464 C461 1.344 . S
C464 C463 1.371 . S
C464 H473 0.931 . S
C465 C461 1.328 . S
C465 C466 1.433 . S
C465 H474 0.931 . S
C466 C462 1.323 . S
C466 C465 1.433 . S
C466 H475 0.933 . S
C467 Dy437 2.738 . S
C467 O447 1.255 . S
C467 O448 1.249 . S
C467 C461 1.516 . S
H468 C454 0.930 . S
H469 C455 0.931 . S
H470 C456 0.931 . S
H471 C457 0.933 . S
H472 C463 0.930 . S
H473 C464 0.931 . S
H474 C465 0.931 . S
H475 C466 0.933 . S
Dy476 O479 2.307 . S
Dy476 O481 2.395 . S
Dy476 O482 2.379 . S
Dy476 O484 2.339 . S
Dy476 O486 2.298 . S
Dy476 O490 2.275 . S
Dy476 C498 2.738 . S
Dy477 O480 2.298 . S
Dy477 O483 2.275 . S
Dy477 O485 2.307 . S
Dy477 O487 2.395 . S
Dy477 O488 2.379 . S
Dy477 O491 2.339 . S
Dy477 C507 2.738 . S
C478 O490 1.254 . S
C478 O491 1.257 . S
O479 Dy476 2.307 . S
O479 C489 1.266 . S
O480 Dy477 2.298 . S
O480 C489 1.236 . S
O481 Dy476 2.395 . S
O481 C498 1.255 . S
O482 Dy476 2.379 . S
O482 C498 1.249 . S
O483 Dy477 2.275 . S
O483 C499 1.254 . S
O484 Dy476 2.339 . S
O484 C499 1.257 . S
O485 Dy477 2.307 . S
O485 C500 1.266 . S
O486 Dy476 2.298 . S
O486 C500 1.236 . S
O487 Dy477 2.395 . S
O487 C507 1.255 . S
O488 Dy477 2.379 . S
O488 C507 1.249 . S
C489 O479 1.266 . S
C489 O480 1.236 . S
O490 Dy476 2.275 . S
O490 C478 1.254 . S
O491 Dy477 2.339 . S
O491 C478 1.257 . S
C492 C495 1.344 . S
C492 C496 1.328 . S
C492 C498 1.516 . S
C493 C494 1.304 . S
C493 C497 1.323 . S
C494 C493 1.304 . S
C494 C495 1.371 . S
C494 H508 0.930 . S
C495 C492 1.344 . S
C495 C494 1.371 . S
C495 H509 0.931 . S
C496 C492 1.328 . S
C496 C497 1.433 . S
C496 H510 0.931 . S
C497 C493 1.323 . S
C497 C496 1.433 . S
C497 H511 0.933 . S
C498 Dy476 2.738 . S
C498 O481 1.255 . S
C498 O482 1.249 . S
C498 C492 1.516 . S
C499 O483 1.254 . S
C499 O484 1.257 . S
C500 O485 1.266 . S
C500 O486 1.236 . S
C501 C504 1.344 . S
C501 C505 1.328 . S
C501 C507 1.516 . S
C502 C503 1.304 . S
C502 C506 1.323 . S
C503 C502 1.304 . S
C503 C504 1.371 . S
C503 H512 0.930 . S
C504 C501 1.344 . S
C504 C503 1.371 . S
C504 H513 0.931 . S
C505 C501 1.328 . S
C505 C506 1.433 . S
C505 H514 0.931 . S
C506 C502 1.323 . S
C506 C505 1.433 . S
C506 H515 0.933 . S
C507 Dy477 2.738 . S
C507 O487 1.255 . S
C507 O488 1.249 . S
C507 C501 1.516 . S
H508 C494 0.930 . S
H509 C495 0.931 . S
H510 C496 0.931 . S
H511 C497 0.933 . S
H512 C503 0.930 . S
H513 C504 0.931 . S
H514 C505 0.931 . S
H515 C506 0.933 . S
Dy516 O519 2.307 . S
Dy516 O521 2.395 . S
Dy516 O522 2.379 . S
Dy516 O524 2.339 . S
Dy516 O526 2.298 . S
Dy516 O530 2.275 . S
Dy516 C538 2.738 . S
Dy517 O520 2.298 . S
Dy517 O523 2.275 . S
Dy517 O525 2.307 . S
Dy517 O527 2.395 . S
Dy517 O528 2.379 . S
Dy517 O531 2.339 . S
Dy517 C547 2.738 . S
C518 O530 1.254 . S
C518 O531 1.257 . S
O519 Dy516 2.307 . S
O519 C529 1.266 . S
O520 Dy517 2.298 . S
O520 C529 1.236 . S
O521 Dy516 2.395 . S
O521 C538 1.255 . S
O522 Dy516 2.379 . S
O522 C538 1.249 . S
O523 Dy517 2.275 . S
O523 C539 1.254 . S
O524 Dy516 2.339 . S
O524 C539 1.257 . S
O525 Dy517 2.307 . S
O525 C540 1.266 . S
O526 Dy516 2.298 . S
O526 C540 1.236 . S
O527 Dy517 2.395 . S
O527 C547 1.255 . S
O528 Dy517 2.379 . S
O528 C547 1.249 . S
C529 O519 1.266 . S
C529 O520 1.236 . S
O530 Dy516 2.275 . S
O530 C518 1.254 . S
O531 Dy517 2.339 . S
O531 C518 1.257 . S
C532 C535 1.344 . S
C532 C536 1.328 . S
C532 C538 1.516 . S
C533 C534 1.304 . S
C533 C537 1.323 . S
C534 C533 1.304 . S
C534 C535 1.371 . S
C534 H548 0.930 . S
C535 C532 1.344 . S
C535 C534 1.371 . S
C535 H549 0.931 . S
C536 C532 1.328 . S
C536 C537 1.433 . S
C536 H550 0.931 . S
C537 C533 1.323 . S
C537 C536 1.433 . S
C537 H551 0.933 . S
C538 Dy516 2.738 . S
C538 O521 1.255 . S
C538 O522 1.249 . S
C538 C532 1.516 . S
C539 O523 1.254 . S
C539 O524 1.257 . S
C540 O525 1.266 . S
C540 O526 1.236 . S
C541 C544 1.344 . S
C541 C545 1.328 . S
C541 C547 1.516 . S
C542 C543 1.304 . S
C542 C546 1.323 . S
C543 C542 1.304 . S
C543 C544 1.371 . S
C543 H552 0.930 . S
C544 C541 1.344 . S
C544 C543 1.371 . S
C544 H553 0.931 . S
C545 C541 1.328 . S
C545 C546 1.433 . S
C545 H554 0.931 . S
C546 C542 1.323 . S
C546 C545 1.433 . S
C546 H555 0.933 . S
C547 Dy517 2.738 . S
C547 O527 1.255 . S
C547 O528 1.249 . S
C547 C541 1.516 . S
H548 C534 0.930 . S
H549 C535 0.931 . S
H550 C536 0.931 . S
H551 C537 0.933 . S
H552 C543 0.930 . S
H553 C544 0.931 . S
H554 C545 0.931 . S
H555 C546 0.933 . S
Dy556 O559 2.307 . S
Dy556 O561 2.395 . S
Dy556 O562 2.379 . S
Dy556 O564 2.339 . S
Dy556 O566 2.298 . S
Dy556 O570 2.275 . S
Dy556 C578 2.738 . S
Dy557 O560 2.298 . S
Dy557 O563 2.275 . S
Dy557 O565 2.307 . S
Dy557 O567 2.395 . S
Dy557 O568 2.379 . S
Dy557 O571 2.339 . S
Dy557 C587 2.738 . S
C558 O570 1.254 . S
C558 O571 1.257 . S
O559 Dy556 2.307 . S
O559 C569 1.266 . S
O560 Dy557 2.298 . S
O560 C569 1.236 . S
O561 Dy556 2.395 . S
O561 C578 1.255 . S
O562 Dy556 2.379 . S
O562 C578 1.249 . S
O563 Dy557 2.275 . S
O563 C579 1.254 . S
O564 Dy556 2.339 . S
O564 C579 1.257 . S
O565 Dy557 2.307 . S
O565 C580 1.266 . S
O566 Dy556 2.298 . S
O566 C580 1.236 . S
O567 Dy557 2.395 . S
O567 C587 1.255 . S
O568 Dy557 2.379 . S
O568 C587 1.249 . S
C569 O559 1.266 . S
C569 O560 1.236 . S
O570 Dy556 2.275 . S
O570 C558 1.254 . S
O571 Dy557 2.339 . S
O571 C558 1.257 . S
C572 C575 1.344 . S
C572 C576 1.328 . S
C572 C578 1.516 . S
C573 C574 1.304 . S
C573 C577 1.323 . S
C574 C573 1.304 . S
C574 C575 1.371 . S
C574 H588 0.930 . S
C575 C572 1.344 . S
C575 C574 1.371 . S
C575 H589 0.931 . S
C576 C572 1.328 . S
C576 C577 1.433 . S
C576 H590 0.931 . S
C577 C573 1.323 . S
C577 C576 1.433 . S
C577 H591 0.933 . S
C578 Dy556 2.738 . S
C578 O561 1.255 . S
C578 O562 1.249 . S
C578 C572 1.516 . S
C579 O563 1.254 . S
C579 O564 1.257 . S
C580 O565 1.266 . S
C580 O566 1.236 . S
C581 C584 1.344 . S
C581 C585 1.328 . S
C581 C587 1.516 . S
C582 C583 1.304 . S
C582 C586 1.323 . S
C583 C582 1.304 . S
C583 C584 1.371 . S
C583 H592 0.930 . S
C584 C581 1.344 . S
C584 C583 1.371 . S
C584 H593 0.931 . S
C585 C581 1.328 . S
C585 C586 1.433 . S
C585 H594 0.931 . S
C586 C582 1.323 . S
C586 C585 1.433 . S
C586 H595 0.933 . S
C587 Dy557 2.738 . S
C587 O567 1.255 . S
C587 O568 1.249 . S
C587 C581 1.516 . S
H588 C574 0.930 . S
H589 C575 0.931 . S
H590 C576 0.931 . S
H591 C577 0.933 . S
H592 C583 0.930 . S
H593 C584 0.931 . S
H594 C585 0.931 . S
H595 C586 0.933 . S
C596 C597 1.387 . S
C596 H600 0.950 . S
C596 C605 1.390 . S
C597 C596 1.387 . S
C597 C599 1.387 . S
H598 C605 0.950 . S
C599 C597 1.387 . S
C599 C601 1.390 . S
C599 H603 0.950 . S
H600 C596 0.950 . S
C601 C599 1.390 . S
C601 C602 1.387 . S
C601 H604 0.950 . S
C602 C601 1.387 . S
C602 C605 1.387 . S
H603 C599 0.950 . S
H604 C601 0.950 . S
C605 C596 1.390 . S
C605 H598 0.950 . S
C605 C602 1.387 . S
C606 C607 1.387 . S
C606 H610 0.950 . S
C606 C615 1.390 . S
C607 C606 1.387 . S
C607 C609 1.387 . S
H608 C615 0.950 . S
C609 C607 1.387 . S
C609 C611 1.390 . S
C609 H613 0.950 . S
H610 C606 0.950 . S
C611 C609 1.390 . S
C611 C612 1.387 . S
C611 H614 0.950 . S
C612 C611 1.387 . S
C612 C615 1.387 . S
H613 C609 0.950 . S
H614 C611 0.950 . S
C615 C606 1.390 . S
C615 H608 0.950 . S
C615 C612 1.387 . S
C616 C617 1.387 . S
C616 H620 0.950 . S
C616 C625 1.390 . S
C617 C616 1.387 . S
C617 C619 1.387 . S
H618 C625 0.950 . S
C619 C617 1.387 . S
C619 C621 1.390 . S
C619 H623 0.950 . S
H620 C616 0.950 . S
C621 C619 1.390 . S
C621 C622 1.387 . S
C621 H624 0.950 . S
C622 C621 1.387 . S
C622 C625 1.387 . S
H623 C619 0.950 . S
H624 C621 0.950 . S
C625 C616 1.390 . S
C625 H618 0.950 . S
C625 C622 1.387 . S
C626 C627 1.387 . S
C626 H630 0.950 . S
C626 C635 1.390 . S
C627 C626 1.387 . S
C627 C629 1.387 . S
H628 C635 0.950 . S
C629 C627 1.387 . S
C629 C631 1.390 . S
C629 H633 0.950 . S
H630 C626 0.950 . S
C631 C629 1.390 . S
C631 C632 1.387 . S
C631 H634 0.950 . S
C632 C631 1.387 . S
C632 C635 1.387 . S
H633 C629 0.950 . S
H634 C631 0.950 . S
C635 C626 1.390 . S
C635 H628 0.950 . S
C635 C632 1.387 . S
C636 C637 1.387 . S
C636 H640 0.950 . S
C636 C645 1.390 . S
C637 C636 1.387 . S
C637 C639 1.387 . S
H638 C645 0.950 . S
C639 C637 1.387 . S
C639 C641 1.390 . S
C639 H643 0.950 . S
H640 C636 0.950 . S
C641 C639 1.390 . S
C641 C642 1.387 . S
C641 H644 0.950 . S
C642 C641 1.387 . S
C642 C645 1.387 . S
H643 C639 0.950 . S
H644 C641 0.950 . S
C645 C636 1.390 . S
C645 H638 0.950 . S
C645 C642 1.387 . S
C646 C647 1.387 . S
C646 H650 0.950 . S
C646 C655 1.390 . S
C647 C646 1.387 . S
C647 C649 1.387 . S
H648 C655 0.950 . S
C649 C647 1.387 . S
C649 C651 1.390 . S
C649 H653 0.950 . S
H650 C646 0.950 . S
C651 C649 1.390 . S
C651 C652 1.387 . S
C651 H654 0.950 . S
C652 C651 1.387 . S
C652 C655 1.387 . S
H653 C649 0.950 . S
H654 C651 0.950 . S
C655 C646 1.390 . S
C655 H648 0.950 . S
C655 C652 1.387 . S
C656 C657 1.387 . S
C656 H660 0.950 . S
C656 C665 1.390 . S
C657 C656 1.387 . S
C657 C659 1.387 . S
H658 C665 0.950 . S
C659 C657 1.387 . S
C659 C661 1.390 . S
C659 H663 0.950 . S
H660 C656 0.950 . S
C661 C659 1.390 . S
C661 C662 1.387 . S
C661 H664 0.950 . S
C662 C661 1.387 . S
C662 C665 1.387 . S
H663 C659 0.950 . S
H664 C661 0.950 . S
C665 C656 1.390 . S
C665 H658 0.950 . S
C665 C662 1.387 . S
C666 C667 1.387 . S
C666 H670 0.950 . S
C666 C675 1.390 . S
C667 C666 1.387 . S
C667 C669 1.387 . S
H668 C675 0.950 . S
C669 C667 1.387 . S
C669 C671 1.390 . S
C669 H673 0.939 1_655 S
H670 C666 0.950 . S
C671 C669 1.390 . S
C671 C672 1.387 . S
C671 H674 0.950 . S
C672 C671 1.387 . S
C672 C675 1.387 . S
H673 C669 0.939 1_455 S
H674 C671 0.950 . S
C675 C666 1.390 . S
C675 H668 0.950 . S
C675 C672 1.387 . S
C676 C677 1.387 . S
C676 H680 0.950 . S
C676 C685 1.390 . S
C677 C676 1.387 . S
C677 C679 1.387 . S
H678 C685 0.950 . S
C679 C677 1.387 . S
C679 C681 1.390 . S
C679 H683 0.950 . S
H680 C676 0.950 . S
C681 C679 1.390 . S
C681 C682 1.387 . S
C681 H684 0.950 . S
C682 C681 1.387 . S
C682 C685 1.387 . S
H683 C679 0.950 . S
H684 C681 0.950 . S
C685 C676 1.390 . S
C685 H678 0.950 . S
C685 C682 1.387 . S
C686 C687 1.387 . S
C686 H690 0.950 . S
C686 C695 1.390 1_455 S
C687 C686 1.387 . S
C687 C689 1.387 1_455 S
H688 C695 0.950 . S
C689 C687 1.387 1_655 S
C689 C691 1.390 . S
C689 H693 0.950 . S
H690 C686 0.950 . S
C691 C689 1.390 . S
C691 C692 1.387 . S
C691 H694 0.950 . S
C692 C691 1.387 . S
C692 C695 1.387 . S
H693 C689 0.950 . S
H694 C691 0.950 . S
C695 C686 1.390 1_655 S
C695 H688 0.950 . S
C695 C692 1.387 . S
C696 C697 1.387 . S
C696 H700 0.950 . S
C696 C705 1.390 . S
C697 C696 1.387 . S
C697 C699 1.387 . S
H698 C705 0.950 . S
C699 C697 1.387 . S
C699 C701 1.390 . S
C699 H703 0.950 . S
H700 C696 0.950 . S
C701 C699 1.390 . S
C701 C702 1.387 . S
C701 H704 0.950 . S
C702 C701 1.387 . S
C702 C705 1.387 . S
H703 C699 0.950 . S
H704 C701 0.950 . S
C705 C696 1.390 . S
C705 H698 0.950 . S
C705 C702 1.387 . S
C706 C707 1.387 . S
C706 H710 0.950 . S
C706 C715 1.390 . S
C707 C706 1.387 . S
C707 C709 1.387 . S
H708 C715 0.950 . S
C709 C707 1.387 . S
C709 C711 1.390 . S
C709 H713 0.950 . S
H710 C706 0.950 . S
C711 C709 1.390 . S
C711 C712 1.387 . S
C711 H714 0.950 . S
C712 C711 1.387 . S
C712 C715 1.387 . S
H713 C709 0.950 . S
H714 C711 0.950 . S
C715 C706 1.390 . S
C715 H708 0.950 . S
C715 C712 1.387 . S
C716 C717 1.387 . S
C716 H720 0.950 . S
C716 C725 1.390 . S
C717 C716 1.387 . S
C717 C719 1.387 . S
H718 C725 0.950 . S
C719 C717 1.387 . S
C719 C721 1.390 . S
C719 H723 0.950 . S
H720 C716 0.950 . S
C721 C719 1.390 . S
C721 C722 1.387 . S
C721 H724 0.950 . S
C722 C721 1.387 . S
C722 C725 1.387 . S
H723 C719 0.950 . S
H724 C721 0.950 . S
C725 C716 1.390 . S
C725 H718 0.950 . S
C725 C722 1.387 . S
C726 C727 1.387 . S
C726 H730 0.950 . S
C726 C735 1.390 . S
C727 C726 1.387 . S
C727 C729 1.387 . S
H728 C735 0.950 . S
C729 C727 1.387 . S
C729 C731 1.390 . S
C729 H733 0.950 . S
H730 C726 0.950 . S
C731 C729 1.390 . S
C731 C732 1.387 . S
C731 H734 0.950 . S
C732 C731 1.387 . S
C732 C735 1.387 . S
H733 C729 0.950 . S
H734 C731 0.950 . S
C735 C726 1.390 . S
C735 H728 0.950 . S
C735 C732 1.387 . S
C736 C737 1.387 . S
C736 H740 0.950 . S
C736 C745 1.390 . S
C737 C736 1.387 . S
C737 C739 1.387 . S
H738 C745 0.950 . S
C739 C737 1.387 . S
C739 C741 1.390 . S
C739 H743 0.950 . S
H740 C736 0.950 . S
C741 C739 1.390 . S
C741 C742 1.387 . S
C741 H744 0.950 . S
C742 C741 1.387 . S
C742 C745 1.387 . S
H743 C739 0.950 . S
H744 C741 0.950 . S
C745 C736 1.390 . S
C745 H738 0.950 . S
C745 C742 1.387 . S
C746 C747 1.387 . S
C746 H750 0.950 . S
C746 C755 1.390 . S
C747 C746 1.387 . S
C747 C749 1.387 . S
H748 C755 0.950 . S
C749 C747 1.387 . S
C749 C751 1.390 . S
C749 H753 0.950 . S
H750 C746 0.950 . S
C751 C749 1.390 . S
C751 C752 1.387 . S
C751 H754 0.950 . S
C752 C751 1.387 . S
C752 C755 1.387 . S
H753 C749 0.950 . S
H754 C751 0.950 . S
C755 C746 1.390 . S
C755 H748 0.950 . S
C755 C752 1.387 . S
C756 C757 1.387 . S
C756 H760 0.950 . S
C756 C765 1.390 . S
C757 C756 1.387 . S
C757 C759 1.387 . S
H758 C765 0.950 . S
C759 C757 1.387 . S
C759 C761 1.390 . S
C759 H763 0.950 . S
H760 C756 0.950 . S
C761 C759 1.390 . S
C761 C762 1.387 . S
C761 H764 0.950 . S
C762 C761 1.387 . S
C762 C765 1.387 . S
H763 C759 0.950 . S
H764 C761 0.950 . S
C765 C756 1.390 . S
C765 H758 0.950 . S
C765 C762 1.387 . S
C766 C767 1.387 . S
C766 H770 0.950 1_556 S
C766 C775 1.390 . S
C767 C766 1.387 . S
C767 C769 1.387 . S
H768 C775 0.950 1_554 S
C769 C767 1.387 . S
C769 C771 1.390 . S
C769 H773 0.950 . S
H770 C766 0.950 1_554 S
C771 C769 1.390 . S
C771 C772 1.387 . S
C771 H774 0.950 . S
C772 C771 1.387 . S
C772 C775 1.387 . S
H773 C769 0.950 . S
H774 C771 0.950 . S
C775 C766 1.390 . S
C775 H768 0.950 1_556 S
C775 C772 1.387 . S
C776 C777 1.387 . S
C776 H780 0.950 . S
C776 C785 1.390 . S
C777 C776 1.387 . S
C777 C779 1.387 . S
H778 C785 0.950 . S
C779 C777 1.387 . S
C779 C781 1.390 . S
C779 H783 0.950 . S
H780 C776 0.950 . S
C781 C779 1.390 . S
C781 C782 1.387 . S
C781 H784 0.950 . S
C782 C781 1.387 . S
C782 C785 1.387 . S
H783 C779 0.950 . S
H784 C781 0.950 . S
C785 C776 1.390 . S
C785 H778 0.950 . S
C785 C782 1.387 . S
C786 C787 1.376 1_554 S
C786 H790 0.962 . S
C786 C795 1.390 1_554 S
C787 C786 1.376 1_556 S
C787 C789 1.387 . S
H788 C795 0.950 1_654 S
C789 C787 1.387 . S
C789 C791 1.390 . S
C789 H793 0.950 . S
H790 C786 0.962 . S
C791 C789 1.390 . S
C791 C792 1.387 1_455 S
C791 H794 0.950 1_455 S
C792 C791 1.387 1_655 S
C792 C795 1.387 1_655 S
H793 C789 0.950 . S
H794 C791 0.950 1_655 S
C795 C786 1.390 1_556 S
C795 H788 0.950 1_456 S
C795 C792 1.387 1_455 S
C796 C797 1.387 . S
C796 H800 0.950 . S
C796 C805 1.390 . S
C797 C796 1.387 . S
C797 C799 1.387 . S
H798 C805 0.950 . S
C799 C797 1.387 . S
C799 C801 1.390 . S
C799 H803 0.950 . S
H800 C796 0.950 . S
C801 C799 1.390 . S
C801 C802 1.387 . S
C801 H804 0.950 . S
C802 C801 1.387 . S
C802 C805 1.387 . S
H803 C799 0.950 . S
H804 C801 0.950 . S
C805 C796 1.390 . S
C805 H798 0.950 . S
C805 C802 1.387 . S
C806 C807 1.387 . S
C806 H810 0.950 . S
C806 C815 1.390 . S
C807 C806 1.387 . S
C807 C809 1.387 . S
H808 C815 0.950 . S
C809 C807 1.387 . S
C809 C811 1.390 . S
C809 H813 0.950 . S
H810 C806 0.950 . S
C811 C809 1.390 . S
C811 C812 1.387 . S
C811 H814 0.950 . S
C812 C811 1.387 . S
C812 C815 1.387 . S
H813 C809 0.950 . S
H814 C811 0.950 . S
C815 C806 1.390 . S
C815 H808 0.950 . S
C815 C812 1.387 . S
C816 C817 1.387 . S
C816 H820 0.950 . S
C816 C825 1.390 . S
C817 C816 1.387 . S
C817 C819 1.387 . S
H818 C825 0.950 . S
C819 C817 1.387 . S
C819 C821 1.390 . S
C819 H823 0.950 . S
H820 C816 0.950 . S
C821 C819 1.390 . S
C821 C822 1.387 . S
C821 H824 0.950 . S
C822 C821 1.387 . S
C822 C825 1.387 . S
H823 C819 0.950 . S
H824 C821 0.950 . S
C825 C816 1.390 . S
C825 H818 0.950 . S
C825 C822 1.387 . S
C826 C827 1.387 . S
C826 H830 0.950 . S
C826 C835 1.390 . S
C827 C826 1.387 . S
C827 C829 1.387 . S
H828 C835 0.950 . S
C829 C827 1.387 . S
C829 C831 1.390 . S
C829 H833 0.950 . S
H830 C826 0.950 . S
C831 C829 1.390 . S
C831 C832 1.387 . S
C831 H834 0.950 . S
C832 C831 1.387 . S
C832 C835 1.387 . S
H833 C829 0.950 . S
H834 C831 0.950 . S
C835 C826 1.390 . S
C835 H828 0.950 . S
C835 C832 1.387 . S
C836 C837 1.387 . S
C836 H840 0.950 . S
C836 C845 1.390 . S
C837 C836 1.387 . S
C837 C839 1.387 . S
H838 C845 0.950 . S
C839 C837 1.387 . S
C839 C841 1.390 . S
C839 H843 0.950 . S
H840 C836 0.950 . S
C841 C839 1.390 . S
C841 C842 1.387 . S
C841 H844 0.950 . S
C842 C841 1.387 . S
C842 C845 1.387 . S
H843 C839 0.950 . S
H844 C841 0.950 . S
C845 C836 1.390 . S
C845 H838 0.950 . S
C845 C842 1.387 . S
C846 C847 1.387 . S
C846 H850 0.950 . S
C846 C855 1.390 . S
C847 C846 1.387 . S
C847 C849 1.387 . S
H848 C855 0.950 . S
C849 C847 1.387 . S
C849 C851 1.390 . S
C849 H853 0.950 . S
H850 C846 0.950 . S
C851 C849 1.390 . S
C851 C852 1.387 . S
C851 H854 0.950 . S
C852 C851 1.387 . S
C852 C855 1.387 . S
H853 C849 0.950 . S
H854 C851 0.950 . S
C855 C846 1.390 . S
C855 H848 0.950 . S
C855 C852 1.387 . S
C856 C857 1.387 . S
C856 H860 0.950 . S
C856 C865 1.390 . S
C857 C856 1.387 . S
C857 C859 1.387 . S
H858 C865 0.950 . S
C859 C857 1.387 . S
C859 C861 1.390 . S
C859 H863 0.950 . S
H860 C856 0.950 . S
C861 C859 1.390 . S
C861 C862 1.387 . S
C861 H864 0.950 . S
C862 C861 1.387 . S
C862 C865 1.387 . S
H863 C859 0.950 . S
H864 C861 0.950 . S
C865 C856 1.390 . S
C865 H858 0.950 . S
C865 C862 1.387 . S
C866 C867 1.387 . S
C866 H870 0.950 . S
C866 C875 1.390 . S
C867 C866 1.387 . S
C867 C869 1.387 . S
H868 C875 0.950 . S
C869 C867 1.387 . S
C869 C871 1.390 . S
C869 H873 0.950 . S
H870 C866 0.950 . S
C871 C869 1.390 . S
C871 C872 1.387 . S
C871 H874 0.950 . S
C872 C871 1.387 . S
C872 C875 1.387 . S
H873 C869 0.950 . S
H874 C871 0.950 . S
C875 C866 1.390 . S
C875 H868 0.950 . S
C875 C872 1.387 . S
C876 C877 1.387 . S
C876 H880 0.950 . S
C876 C885 1.390 . S
C877 C876 1.387 . S
C877 C879 1.387 . S
H878 C885 0.950 . S
C879 C877 1.387 . S
C879 C881 1.390 . S
C879 H883 0.950 . S
H880 C876 0.950 . S
C881 C879 1.390 . S
C881 C882 1.387 . S
C881 H884 0.950 . S
C882 C881 1.387 . S
C882 C885 1.387 . S
H883 C879 0.950 . S
H884 C881 0.950 . S
C885 C876 1.390 . S
C885 H878 0.950 . S
C885 C882 1.387 . S
C886 C887 1.387 . S
C886 H890 0.950 . S
C886 C895 1.390 . S
C887 C886 1.387 . S
C887 C889 1.387 . S
H888 C895 0.950 . S
C889 C887 1.387 . S
C889 C891 1.390 . S
C889 H893 0.950 . S
H890 C886 0.950 . S
C891 C889 1.390 . S
C891 C892 1.387 . S
C891 H894 0.950 . S
C892 C891 1.387 . S
C892 C895 1.387 . S
H893 C889 0.950 . S
H894 C891 0.950 . S
C895 C886 1.390 . S
C895 H888 0.950 . S
C895 C892 1.387 . S
C896 C897 1.387 . S
C896 H900 0.950 . S
C896 C905 1.390 . S
C897 C896 1.387 . S
C897 C899 1.387 . S
H898 C905 0.950 . S
C899 C897 1.387 . S
C899 C901 1.390 . S
C899 H903 0.950 . S
H900 C896 0.950 . S
C901 C899 1.390 . S
C901 C902 1.387 . S
C901 H904 0.950 . S
C902 C901 1.387 . S
C902 C905 1.387 . S
H903 C899 0.950 . S
H904 C901 0.950 . S
C905 C896 1.390 . S
C905 H898 0.950 . S
C905 C902 1.387 . S
C906 C907 1.387 . S
C906 H910 0.950 . S
C906 C915 1.390 . S
C907 C906 1.387 . S
C907 C909 1.387 . S
H908 C915 0.950 . S
C909 C907 1.387 . S
C909 C911 1.390 . S
C909 H913 0.950 . S
H910 C906 0.950 . S
C911 C909 1.390 . S
C911 C912 1.387 . S
C911 H914 0.950 . S
C912 C911 1.387 . S
C912 C915 1.387 . S
H913 C909 0.950 . S
H914 C911 0.950 . S
C915 C906 1.390 . S
C915 H908 0.950 . S
C915 C912 1.387 . S
C916 C917 1.387 . S
C916 H920 0.950 . S
C916 C925 1.390 . S
C917 C916 1.387 . S
C917 C919 1.387 . S
H918 C925 0.950 . S
C919 C917 1.387 . S
C919 C921 1.390 . S
C919 H923 0.950 . S
H920 C916 0.950 . S
C921 C919 1.390 . S
C921 C922 1.387 . S
C921 H924 0.950 . S
C922 C921 1.387 . S
C922 C925 1.387 . S
H923 C919 0.950 . S
H924 C921 0.950 . S
C925 C916 1.390 . S
C925 H918 0.950 . S
C925 C922 1.387 . S
C926 C927 1.387 . S
C926 H930 0.950 . S
C926 C935 1.390 . S
C927 C926 1.387 . S
C927 C929 1.387 . S
H928 C935 0.950 . S
C929 C927 1.387 . S
C929 C931 1.390 . S
C929 H933 0.950 . S
H930 C926 0.950 . S
C931 C929 1.390 . S
C931 C932 1.387 . S
C931 H934 0.950 . S
C932 C931 1.387 . S
C932 C935 1.387 . S
H933 C929 0.950 . S
H934 C931 0.950 . S
C935 C926 1.390 . S
C935 H928 0.950 . S
C935 C932 1.387 . S
C936 C937 1.387 . S
C936 H940 0.950 . S
C936 C945 1.390 . S
C937 C936 1.387 . S
C937 C939 1.387 . S
H938 C945 0.950 . S
C939 C937 1.387 . S
C939 C941 1.390 . S
C939 H943 0.950 . S
H940 C936 0.950 . S
C941 C939 1.390 . S
C941 C942 1.387 . S
C941 H944 0.950 . S
C942 C941 1.387 . S
C942 C945 1.387 . S
H943 C939 0.950 . S
H944 C941 0.950 . S
C945 C936 1.390 . S
C945 H938 0.950 . S
C945 C942 1.387 . S
C946 C947 1.387 . S
C946 H950 0.950 . S
C946 C955 1.390 . S
C947 C946 1.387 . S
C947 C949 1.387 . S
H948 C955 0.950 . S
C949 C947 1.387 . S
C949 C951 1.390 . S
C949 H953 0.950 . S
H950 C946 0.950 . S
C951 C949 1.390 . S
C951 C952 1.387 . S
C951 H954 0.950 . S
C952 C951 1.387 . S
C952 C955 1.387 . S
H953 C949 0.950 . S
H954 C951 0.950 . S
C955 C946 1.390 . S
C955 H948 0.950 . S
C955 C952 1.387 . S
C956 C957 1.387 . S
C956 H960 0.950 . S
C956 C965 1.390 . S
C957 C956 1.387 . S
C957 C959 1.387 . S
H958 C965 0.950 . S
C959 C957 1.387 . S
C959 C961 1.390 . S
C959 H963 0.950 . S
H960 C956 0.950 . S
C961 C959 1.390 . S
C961 C962 1.387 . S
C961 H964 0.950 . S
C962 C961 1.387 . S
C962 C965 1.387 . S
H963 C959 0.950 . S
H964 C961 0.950 . S
C965 C956 1.390 . S
C965 H958 0.950 . S
C965 C962 1.387 . S
C966 C967 1.387 . S
C966 H970 0.950 . S
C966 C975 1.390 . S
C967 C966 1.387 . S
C967 C969 1.387 . S
H968 C975 0.950 . S
C969 C967 1.387 . S
C969 C971 1.390 . S
C969 H973 0.950 . S
H970 C966 0.950 . S
C971 C969 1.390 . S
C971 C972 1.387 . S
C971 H974 0.950 . S
C972 C971 1.387 . S
C972 C975 1.387 . S
H973 C969 0.950 . S
H974 C971 0.950 . S
C975 C966 1.390 . S
C975 H968 0.950 . S
C975 C972 1.387 . S
C976 C977 1.387 . S
C976 H980 0.950 . S
C976 C985 1.390 . S
C977 C976 1.387 . S
C977 C979 1.387 . S
H978 C985 0.950 . S
C979 C977 1.387 . S
C979 C981 1.390 . S
C979 H983 0.950 . S
H980 C976 0.950 . S
C981 C979 1.390 . S
C981 C982 1.387 . S
C981 H984 0.950 . S
C982 C981 1.387 . S
C982 C985 1.387 . S
H983 C979 0.950 . S
H984 C981 0.950 . S
C985 C976 1.390 . S
C985 H978 0.950 . S
C985 C982 1.387 . S
C986 C987 1.387 . S
C986 H990 0.950 . S
C986 C995 1.390 . S
C987 C986 1.387 . S
C987 C989 1.387 . S
H988 C995 0.950 . S
C989 C987 1.387 . S
C989 C991 1.390 . S
C989 H993 0.950 . S
H990 C986 0.950 . S
C991 C989 1.390 . S
C991 C992 1.387 . S
C991 H994 0.950 . S
C992 C991 1.387 . S
C992 C995 1.387 . S
H993 C989 0.950 . S
H994 C991 0.950 . S
C995 C986 1.390 . S
C995 H988 0.950 . S
C995 C992 1.387 . S
C996 C997 1.387 . S
C996 H1000 0.950 . S
C996 C1005 1.390 . S
C997 C996 1.387 . S
C997 C999 1.387 . S
H998 C1005 0.950 . S
C999 C997 1.387 . S
C999 C1001 1.390 . S
C999 H1003 0.950 . S
H1000 C996 0.950 . S
C1001 C999 1.390 . S
C1001 C1002 1.387 . S
C1001 H1004 0.950 . S
C1002 C1001 1.387 . S
C1002 C1005 1.387 . S
H1003 C999 0.950 . S
H1004 C1001 0.950 . S
C1005 C996 1.390 . S
C1005 H998 0.950 . S
C1005 C1002 1.387 . S
C1006 C1007 1.387 . S
C1006 H1010 0.950 . S
C1006 C1015 1.390 . S
C1007 C1006 1.387 . S
C1007 C1009 1.387 . S
H1008 C1015 0.950 . S
C1009 C1007 1.387 . S
C1009 C1011 1.390 . S
C1009 H1013 0.950 . S
H1010 C1006 0.950 . S
C1011 C1009 1.390 . S
C1011 C1012 1.387 . S
C1011 H1014 0.950 . S
C1012 C1011 1.387 . S
C1012 C1015 1.387 . S
H1013 C1009 0.950 . S
H1014 C1011 0.950 . S
C1015 C1006 1.390 . S
C1015 H1008 0.950 . S
C1015 C1012 1.387 . S
C1016 C1017 1.387 . S
C1016 H1020 0.950 . S
C1016 C1025 1.390 . S
C1017 C1016 1.387 . S
C1017 C1019 1.387 . S
H1018 C1025 0.950 . S
C1019 C1017 1.387 . S
C1019 C1021 1.390 . S
C1019 H1023 0.950 . S
H1020 C1016 0.950 . S
C1021 C1019 1.390 . S
C1021 C1022 1.387 . S
C1021 H1024 0.950 . S
C1022 C1021 1.387 . S
C1022 C1025 1.387 . S
H1023 C1019 0.950 . S
H1024 C1021 0.950 . S
C1025 C1016 1.390 . S
C1025 H1018 0.950 . S
C1025 C1022 1.387 . S
C1026 C1027 1.387 . S
C1026 H1030 0.950 . S
C1026 C1035 1.390 . S
C1027 C1026 1.387 . S
C1027 C1029 1.387 . S
H1028 C1035 0.950 . S
C1029 C1027 1.387 . S
C1029 C1031 1.390 . S
C1029 H1033 0.950 . S
H1030 C1026 0.950 . S
C1031 C1029 1.390 . S
C1031 C1032 1.387 . S
C1031 H1034 0.950 . S
C1032 C1031 1.387 . S
C1032 C1035 1.387 . S
H1033 C1029 0.950 . S
H1034 C1031 0.950 . S
C1035 C1026 1.390 . S
C1035 H1028 0.950 . S
C1035 C1032 1.387 . S
C1036 C1037 1.387 . S
C1036 H1040 0.950 . S
C1036 C1045 1.390 . S
C1037 C1036 1.387 . S
C1037 C1039 1.387 . S
H1038 C1045 0.950 . S
C1039 C1037 1.387 . S
C1039 C1041 1.390 . S
C1039 H1043 0.950 . S
H1040 C1036 0.950 . S
C1041 C1039 1.390 . S
C1041 C1042 1.387 . S
C1041 H1044 0.950 . S
C1042 C1041 1.387 . S
C1042 C1045 1.387 . S
H1043 C1039 0.950 . S
H1044 C1041 0.950 . S
C1045 C1036 1.390 . S
C1045 H1038 0.950 . S
C1045 C1042 1.387 . S
C1046 C1047 1.387 . S
C1046 H1050 0.950 . S
C1046 C1055 1.390 . S
C1047 C1046 1.387 . S
C1047 C1049 1.387 . S
H1048 C1055 0.950 . S
C1049 C1047 1.387 . S
C1049 C1051 1.390 . S
C1049 H1053 0.950 . S
H1050 C1046 0.950 . S
C1051 C1049 1.390 . S
C1051 C1052 1.387 . S
C1051 H1054 0.950 . S
C1052 C1051 1.387 . S
C1052 C1055 1.387 . S
H1053 C1049 0.950 . S
H1054 C1051 0.950 . S
C1055 C1046 1.390 . S
C1055 H1048 0.950 . S
C1055 C1052 1.387 . S
C1056 C1057 1.387 . S
C1056 H1060 0.950 . S
C1056 C1065 1.390 . S
C1057 C1056 1.387 . S
C1057 C1059 1.387 . S
H1058 C1065 0.950 . S
C1059 C1057 1.387 . S
C1059 C1061 1.390 . S
C1059 H1063 0.950 . S
H1060 C1056 0.950 . S
C1061 C1059 1.390 . S
C1061 C1062 1.387 . S
C1061 H1064 0.950 . S
C1062 C1061 1.387 . S
C1062 C1065 1.387 . S
H1063 C1059 0.950 . S
H1064 C1061 0.950 . S
C1065 C1056 1.390 . S
C1065 H1058 0.950 . S
C1065 C1062 1.387 . S
C1066 C1067 1.387 . S
C1066 H1070 0.950 . S
C1066 C1075 1.390 . S
C1067 C1066 1.387 . S
C1067 C1069 1.387 . S
H1068 C1075 0.950 . S
C1069 C1067 1.387 . S
C1069 C1071 1.390 . S
C1069 H1073 0.950 . S
H1070 C1066 0.950 . S
C1071 C1069 1.390 . S
C1071 C1072 1.387 . S
C1071 H1074 0.950 . S
C1072 C1071 1.387 . S
C1072 C1075 1.387 . S
H1073 C1069 0.950 . S
H1074 C1071 0.950 . S
C1075 C1066 1.390 . S
C1075 H1068 0.950 . S
C1075 C1072 1.387 . S
C602 C293 1.519 . S
C597 N2 1.503 . S
C612 C339 2.081 . S
C607 C7 2.052 1_655 S
C622 C382 1.485 . S
C617 N12 1.342 1_655 S
C627 C16 2.291 . S
C632 C419 2.370 . S
C642 C438 2.182 . S
C637 C30 2.143 . S
C652 C493 1.275 . S
C647 N35 1.246 . S
C657 C39 2.509 1_655 S
C662 C518 2.486 . S
C672 C582 1.251 . S
C667 N25 1.142 1_655 S
C682 C278 1.721 . S
C677 N58 1.689 . S
C687 N81 1.708 . S
C692 C342 1.664 . S
C702 C369 1.568 . S
C697 N104 1.501 . S
C707 N127 1.697 . S
C712 C422 1.670 . S
C722 C460 1.428 . S
C717 N48 1.405 . S
C732 C478 1.668 . S
C727 N71 1.661 . S
C737 N94 1.453 . S
C742 C540 1.496 . S
C752 C569 1.567 . S
C747 N117 1.520 . S
C757 C85 1.929 . S
C762 C300 1.947 . S
C767 C122 1.781 . S
C772 C453 1.756 . S
C777 C53 2.245 . S
C782 C500 2.257 . S
C792 C533 1.805 . S
C787 C76 1.824 . S
C802 C579 2.474 . S
C797 C99 2.490 . S
C812 C379 2.072 . S
C807 C131 2.114 . S
C822 C409 2.035 . S
C817 C62 2.027 . S
C827 C108 1.913 . S
C832 C329 1.915 . S
C842 C573 1.628 . S
C837 N140 1.614 . S
C847 C145 2.037 . S
C852 C459 2.071 . S
C862 C502 1.358 . S
C857 N150 1.239 . S
C867 C154 2.291 . S
C872 C539 2.367 . S
C882 C318 2.172 . S
C877 C168 2.129 . S
C887 N173 1.151 . S
C892 C373 1.169 . S
C902 C398 2.469 . S
C897 C177 2.499 . S
C912 C302 1.362 . S
C907 N163 1.217 . S
C922 C558 2.171 . S
C917 C200 2.146 . S
C932 C462 1.865 . S
C927 N219 1.902 . S
C937 N242 1.760 . S
C942 C489 1.830 . S
C952 C542 1.935 . S
C947 C269 1.990 . S
C962 C340 1.749 . S
C957 C191 1.777 . S
C967 N209 1.936 . S
C972 C358 1.944 . S
C977 N232 1.759 . S
C982 C420 1.807 . S
C987 C260 1.973 . S
C992 C289 2.018 . S
C997 C223 1.578 . S
C1002 C580 1.599 . S
C1007 N255 1.493 . S
C1012 C333 1.491 . S
C1017 N186 1.907 . S
C1022 C380 1.893 . S
C1032 C413 1.567 . S
C1027 C214 1.593 . S
C1042 C299 2.213 . S
C1037 C237 2.222 . S
C1052 C499 1.587 . S
C1047 N265 1.569 . S
C1062 C529 1.704 . S
C1057 N196 1.592 . S
C1072 C449 1.614 . S
C1067 C246 1.608 . S
