# Generated by pormake.
# Topology zzz, (3,6)-cn, num edge types: 1
# Building blocks:
#     Node 0, Type 0, BuildingBlock: WUSLED_clean_sbu_0, # of connection points: 3
#     Node 1, Type 0, BuildingBlock: WUSLED_clean_sbu_0, # of connection points: 3
#     Node 2, Type 0, BuildingBlock: WUSLED_clean_sbu_0, # of connection points: 3
#     Node 3, Type 0, BuildingBlock: WUSLED_clean_sbu_0, # of connection points: 3
#     Node 4, Type 0, BuildingBlock: WUSLED_clean_sbu_0, # of connection points: 3
#     Node 5, Type 0, BuildingBlock: WUSLED_clean_sbu_0, # of connection points: 3
#     Node 6, Type 0, BuildingBlock: WUSLED_clean_sbu_0, # of connection points: 3
#     Node 7, Type 0, BuildingBlock: WUSLED_clean_sbu_0, # of connection points: 3
#     Node 8, Type 1, BuildingBlock: HISSIN_clean_sbu_0, # of connection points: 6
#     Node 9, Type 1, BuildingBlock: HISSIN_clean_sbu_0, # of connection points: 6
#     Node 10, Type 1, BuildingBlock: HISSIN_clean_sbu_0, # of connection points: 6
#     Node 11, Type 1, BuildingBlock: HISSIN_clean_sbu_0, # of connection points: 6
#     Edge 12, Type (0, 1), BuildingBlock: TEMPAE_clean_linker_10, # of connection points: 2
#     Edge 13, Type (0, 1), BuildingBlock: TEMPAE_clean_linker_10, # of connection points: 2
#     Edge 14, Type (0, 1), BuildingBlock: TEMPAE_clean_linker_10, # of connection points: 2
#     Edge 15, Type (0, 1), BuildingBlock: TEMPAE_clean_linker_10, # of connection points: 2
#     Edge 16, Type (0, 1), BuildingBlock: TEMPAE_clean_linker_10, # of connection points: 2
#     Edge 17, Type (0, 1), BuildingBlock: TEMPAE_clean_linker_10, # of connection points: 2
#     Edge 18, Type (0, 1), BuildingBlock: TEMPAE_clean_linker_10, # of connection points: 2
#     Edge 19, Type (0, 1), BuildingBlock: TEMPAE_clean_linker_10, # of connection points: 2
#     Edge 20, Type (0, 1), BuildingBlock: TEMPAE_clean_linker_10, # of connection points: 2
#     Edge 21, Type (0, 1), BuildingBlock: TEMPAE_clean_linker_10, # of connection points: 2
#     Edge 22, Type (0, 1), BuildingBlock: TEMPAE_clean_linker_10, # of connection points: 2
#     Edge 23, Type (0, 1), BuildingBlock: TEMPAE_clean_linker_10, # of connection points: 2
#     Edge 24, Type (0, 1), BuildingBlock: TEMPAE_clean_linker_10, # of connection points: 2
#     Edge 25, Type (0, 1), BuildingBlock: TEMPAE_clean_linker_10, # of connection points: 2
#     Edge 26, Type (0, 1), BuildingBlock: TEMPAE_clean_linker_10, # of connection points: 2
#     Edge 27, Type (0, 1), BuildingBlock: TEMPAE_clean_linker_10, # of connection points: 2
#     Edge 28, Type (0, 1), BuildingBlock: TEMPAE_clean_linker_10, # of connection points: 2
#     Edge 29, Type (0, 1), BuildingBlock: TEMPAE_clean_linker_10, # of connection points: 2
#     Edge 30, Type (0, 1), BuildingBlock: TEMPAE_clean_linker_10, # of connection points: 2
#     Edge 31, Type (0, 1), BuildingBlock: TEMPAE_clean_linker_10, # of connection points: 2
#     Edge 32, Type (0, 1), BuildingBlock: TEMPAE_clean_linker_10, # of connection points: 2
#     Edge 33, Type (0, 1), BuildingBlock: TEMPAE_clean_linker_10, # of connection points: 2
#     Edge 34, Type (0, 1), BuildingBlock: TEMPAE_clean_linker_10, # of connection points: 2
#     Edge 35, Type (0, 1), BuildingBlock: TEMPAE_clean_linker_10, # of connection points: 2
# Relax obj value: 0.361
# Max RMSD: 0.215
# Mean RMSD: 0.183
data_MOF--net-zzz--node1-WUSLED_clean_sbu_0--node2-HISSIN_clean_sbu_0--edge1-TEMPAE_clean_linker_10
_symmetry_space_group_name_H-M    P1
_symmetry_Int_Tables_number       1
_symmetry_cell_setting            triclinic
loop_
_symmetry_equiv_pos_as_xyz
'x, y, z'
_cell_length_a     60.204418
_cell_length_b     60.5667
_cell_length_c     23.185294
_cell_angle_alpha  89.385963
_cell_angle_beta   90.973089
_cell_angle_gamma 91.619807
loop_
_atom_site_label
_atom_site_type_symbol
_atom_site_fract_x
_atom_site_fract_y
_atom_site_fract_z
_atom_type_partial_charge
C0 C 0.78692 0.56149 0.39266 0.0
C1 C 0.80578 0.56393 0.35801 0.0
C2 C 0.83042 0.55955 0.44211 0.0
C3 C 0.82722 0.56293 0.38235 0.0
C4 C 0.81145 0.55775 0.47693 0.0
C5 C 0.78995 0.55863 0.45242 0.0
U6 U 0.75108 0.56869 0.25915 0.0
O7 O 0.72565 0.5463 0.22054 0.0
O8 O 0.71703 0.58023 0.24136 0.0
C9 C 0.71044 0.56146 0.21759 0.0
C10 C 0.76433 0.56062 0.36585 0.0
C11 C 0.6968 0.56266 0.16342 0.0
C12 C 0.66044 0.56828 0.11795 0.0
C13 C 0.67467 0.56924 0.16651 0.0
C14 C 0.69032 0.55455 0.06129 0.0
C15 C 0.66791 0.56063 0.06466 0.0
C16 C 0.70459 0.55556 0.11001 0.0
C17 C 0.78995 0.58743 0.13246 0.0
C18 C 0.7918 0.57413 0.03467 0.0
C19 C 0.82259 0.59563 0.07583 0.0
C20 C 0.81058 0.59831 0.12596 0.0
C21 C 0.81398 0.58209 0.03145 0.0
C22 C 0.77989 0.57659 0.0853 0.0
C23 C 0.78296 0.58254 0.19136 0.0
O24 O 0.75617 0.57964 0.34928 0.0
O25 O 0.7613 0.5452 0.32689 0.0
O26 O 0.77853 0.5616 0.20284 0.0
O27 O 0.76979 0.5962 0.21688 0.0
H28 H 0.80392 0.56621 0.3118 0.0
H29 H 0.84134 0.56476 0.35419 0.0
H30 H 0.81318 0.55497 0.52298 0.0
H31 H 0.77568 0.55663 0.48003 0.0
H32 H 0.64332 0.57283 0.12283 0.0
H33 H 0.66813 0.57457 0.20718 0.0
H34 H 0.69684 0.54889 0.02098 0.0
H35 H 0.72156 0.55037 0.10614 0.0
H36 H 0.78448 0.56418 1.00039 0.0
H37 H 0.83955 0.60206 0.07502 0.0
H38 H 0.81855 0.60675 0.16211 0.0
H39 H 0.76388 0.56817 0.0896 0.0
C40 C 0.99854 0.78158 0.3997 0.0
C41 C 0.99642 0.80084 0.36581 0.0
C42 C 0.99869 0.82437 0.45173 0.0
C43 C 0.99654 0.82186 0.39132 0.0
C44 C 1.00035 0.80489 0.48551 0.0
C45 C 1.00034 0.78387 0.45987 0.0
U46 U 0.99155 0.74471 0.26724 0.0
O47 O 1.01485 0.72181 0.22831 0.0
O48 O 0.98176 0.7096 0.25308 0.0
C49 C 1.00066 0.7049 0.22895 0.0
C50 C 1.0001 0.75936 0.3725 0.0
C51 C 0.99986 0.69013 0.17742 0.0
C52 C 1.0051 0.6532 0.13842 0.0
C53 C 1.00438 0.66765 0.18541 0.0
C54 C 0.99633 0.68325 0.07349 0.0
C55 C 1.00132 0.6607 0.08137 0.0
C56 C 0.99569 0.69778 0.12082 0.0
C57 C 0.96985 0.78157 0.13848 0.0
C58 C 0.98591 0.78979 0.04557 0.0
C59 C 0.959 0.81423 0.08511 0.0
C60 C 0.9563 0.79991 0.13215 0.0
C61 C 0.97525 0.81016 0.04419 0.0
C62 C 0.98324 0.7755 0.09269 0.0
C63 C 0.97534 0.77462 0.19748 0.0
O64 O 0.98129 0.74917 0.35773 0.0
O65 O 1.01519 0.75801 0.33255 0.0
O66 O 0.99663 0.77266 0.20898 0.0
O67 O 0.96251 0.75996 0.22398 0.0
H68 H 0.99509 0.79967 0.31928 0.0
H69 H 0.99553 0.83619 0.36322 0.0
H70 H 1.00163 0.80579 0.53205 0.0
H71 H 1.00199 0.76937 0.48719 0.0
H72 H 1.00856 0.63603 0.14706 0.0
H73 H 1.00763 0.6612 0.22842 0.0
H74 H 0.99345 0.68985 0.03052 0.0
H75 H 0.99222 0.71502 0.11311 0.0
H76 H 0.99822 0.78615 1.01373 0.0
H77 H 0.95047 0.82975 0.08489 0.0
H78 H 0.94586 0.80481 0.16715 0.0
H79 H 0.99373 0.7613 0.09671 0.0
C80 C 0.76359 0.99174 0.3771 0.0
C81 C 0.74531 1.00187 0.35005 0.0
C82 C 0.7208 0.99214 0.43141 0.0
C83 C 0.72435 1.00205 0.37663 0.0
C84 C 0.73909 0.98162 0.4577 0.0
C85 C 0.76002 0.98149 0.43114 0.0
U86 U 0.811 0.98652 0.26111 0.0
O87 O 0.83828 1.01079 0.24398 0.0
O88 O 0.84619 0.97708 0.2698 0.0
C89 C 0.8538 0.99604 0.24861 0.0
C90 C 0.78682 0.9937 0.35357 0.0
C91 C 0.86948 0.99525 0.19891 0.0
C92 C 0.90109 1.01154 0.14644 0.0
C93 C 0.88675 1.01124 0.19391 0.0
C94 C 0.88148 0.97961 0.10761 0.0
C95 C 0.89877 0.99577 0.10206 0.0
C96 C 0.86704 0.97941 0.15505 0.0
C97 C 0.76976 0.96521 0.14229 0.0
C98 C 0.75069 0.95692 0.05216 0.0
C99 C 0.73148 0.97545 0.12816 0.0
C100 C 0.75036 0.97413 0.16375 0.0
C101 C 0.73208 0.96804 0.07098 0.0
C102 C 0.76944 0.95544 0.08783 0.0
C103 C 0.79143 0.97074 0.16812 0.0
O104 O 0.79772 0.97544 0.34583 0.0
O105 O 0.79076 1.00856 0.31291 0.0
O106 O 0.79504 0.9919 0.17731 0.0
O107 O 0.79897 0.95792 0.20969 0.0
H108 H 0.74729 1.01017 0.30877 0.0
H109 H 0.71109 1.01063 0.35469 0.0
H110 H 0.73733 0.97342 0.49914 0.0
H111 H 0.77367 0.97369 0.45369 0.0
H112 H 0.91372 0.02457 0.14413 0.0
H113 H 0.88901 0.02379 0.22658 0.0
H114 H 0.87908 0.96691 0.07544 0.0
H115 H 0.85385 0.9669 0.15721 0.0
H116 H 0.75138 0.95101 1.00829 0.0
H117 H 0.71729 0.9842 0.14334 0.0
H118 H 0.75047 0.98188 0.20568 0.0
H119 H 0.78437 0.94859 0.07071 0.0
C120 C 0.49901 0.76351 0.382 0.0
C121 C 0.48861 0.74499 0.35573 0.0
C122 C 0.50172 0.72052 0.4342 0.0
C123 C 0.48991 0.72377 0.38158 0.0
C124 C 0.51177 0.73929 0.46028 0.0
C125 C 0.51045 0.76032 0.43461 0.0
U126 U 0.49359 0.81052 0.26199 0.0
O127 O 0.51525 0.84035 0.25639 0.0
O128 O 0.47955 0.84385 0.26737 0.0
C129 C 0.49846 0.85373 0.25319 0.0
C130 C 0.49845 0.78641 0.35716 0.0
C131 C 0.4979 0.86812 0.20052 0.0
C132 C 0.49575 0.90455 0.15458 0.0
C133 C 0.49506 0.89099 0.20434 0.0
C134 C 0.50167 0.87255 0.09608 0.0
C135 C 0.49936 0.8956 0.09958 0.0
C136 C 0.50088 0.85905 0.14568 0.0
C137 C 0.48069 0.77316 0.12713 0.0
C138 C 0.47021 0.75863 0.03357 0.0
C139 C 0.48388 0.73419 0.10907 0.0
C140 C 0.48621 0.75204 0.14655 0.0
C141 C 0.47614 0.73743 0.05199 0.0
C142 C 0.47244 0.77634 0.07099 0.0
C143 C 0.48487 0.79272 0.1618 0.0
O144 O 0.51502 0.79271 0.32404 0.0
O145 O 0.47925 0.79409 0.33925 0.0
O146 O 0.46924 0.79835 0.19719 0.0
O147 O 0.50518 0.79588 0.18234 0.0
H148 H 0.47964 0.74688 0.31518 0.0
H149 H 0.48202 0.70985 0.35972 0.0
H150 H 0.52059 0.73782 0.50116 0.0
H151 H 0.51846 0.77426 0.4562 0.0
H152 H 0.49346 0.9221 0.15933 0.0
H153 H 0.49253 0.89843 0.24592 0.0
H154 H 0.50473 0.86489 0.0551 0.0
H155 H 0.50305 0.84146 0.14125 0.0
H156 H 0.46446 0.76166 0.98975 0.0
H157 H 0.48823 0.71792 0.12456 0.0
H158 H 0.49263 0.74946 0.18997 0.0
H159 H 0.46829 0.79269 0.05552 0.0
C160 C 0.26405 0.47448 0.91802 0.0
C161 C 0.24494 0.46481 0.94298 0.0
C162 C 0.22156 0.47947 0.86477 0.0
C163 C 0.22392 0.46717 0.91641 0.0
C164 C 0.24084 0.4888 0.83973 0.0
C165 C 0.26177 0.4863 0.86598 0.0
U166 U 0.30258 0.46644 0.05104 0.0
O167 O 0.33173 0.48724 0.0746 0.0
O168 O 0.33564 0.45172 0.06295 0.0
C169 C 0.34512 0.47055 0.07916 0.0
C170 C 0.28631 0.47348 0.94632 0.0
C171 C 0.35959 0.47023 0.13167 0.0
C172 C 0.39702 0.46945 0.1734 0.0
C173 C 0.38247 0.46733 0.12579 0.0
C174 C 0.36595 0.47674 0.23452 0.0
C175 C 0.38906 0.47457 0.22834 0.0
C176 C 0.35138 0.47464 0.18668 0.0
C177 C 0.25831 0.45342 0.17782 0.0
C178 C 0.24221 0.46605 0.266 0.0
C179 C 0.22056 0.44224 0.20161 0.0
C180 C 0.23884 0.44094 0.16556 0.0
C181 C 0.2219 0.45569 0.25045 0.0
C182 C 0.26032 0.46504 0.22961 0.0
C183 C 0.27424 0.45808 0.13206 0.0
O184 O 0.2911 0.48932 0.98307 0.0
O185 O 0.29276 0.45402 0.96478 0.0
O186 O 0.28272 0.44225 0.10173 0.0
O187 O 0.28112 0.47832 0.11948 0.0
H188 H 0.24622 0.45575 0.98338 0.0
H189 H 0.20944 0.4599 0.93715 0.0
H190 H 0.23973 0.49813 0.79971 0.0
H191 H 0.27624 0.49391 0.84589 0.0
H192 H 0.41459 0.46727 0.167 0.0
H193 H 0.38921 0.46395 0.08386 0.0
H194 H 0.35919 0.48081 0.27593 0.0
H195 H 0.33379 0.47706 0.19235 0.0
H196 H 0.24337 0.47675 0.30317 0.0
H197 H 0.20486 0.43448 0.18857 0.0
H198 H 0.237 0.43203 0.1254 0.0
H199 H 0.27525 0.47478 0.23957 0.0
C200 C 0.05586 0.26154 0.93533 0.0
C201 C 0.07217 0.24578 0.94689 0.0
C202 C 0.05409 0.21949 0.87912 0.0
C203 C 0.07128 0.22505 0.91922 0.0
C204 C 0.03806 0.23555 0.86738 0.0
C205 C 0.03893 0.2561 0.89502 0.0
U206 U 0.06551 0.30566 0.05883 0.0
O207 O 0.07635 0.34092 0.05645 0.0
O208 O 0.04213 0.33178 0.07854 0.0
C209 C 0.0573 0.34773 0.0758 0.0
C210 C 0.05601 0.28395 0.96236 0.0
C211 C 0.05797 0.36312 0.12579 0.0
C212 C 0.04415 0.39626 0.17099 0.0
C213 C 0.04541 0.38231 0.12313 0.0
C214 C 0.06849 0.37245 0.22535 0.0
C215 C 0.05545 0.39148 0.22323 0.0
C216 C 0.06963 0.35838 0.17738 0.0
C217 C 0.08436 0.25969 0.15912 0.0
C218 C 0.08844 0.23151 0.233 0.0
C219 C 0.07251 0.222 0.13939 0.0
C220 C 0.0759 0.24374 0.12062 0.0
C221 C 0.0776 0.21608 0.1967 0.0
C222 C 0.09171 0.25332 0.21428 0.0
C223 C 0.08096 0.28304 0.1469 0.0
O224 O 0.04158 0.28701 1.0032 0.0
O225 O 0.07527 0.29409 0.97279 0.0
O226 O 0.09395 0.29252 0.10835 0.0
O227 O 0.05995 0.28783 0.13992 0.0
H228 H 0.08558 0.24945 0.97731 0.0
H229 H 0.0839 0.21324 0.93 0.0
H230 H 0.02483 0.23238 0.83609 0.0
H231 H 0.02629 0.26795 0.88445 0.0
H232 H 0.03423 0.41085 0.16698 0.0
H233 H 0.03621 0.38637 0.08407 0.0
H234 H 0.07732 0.36803 0.2647 0.0
H235 H 0.07928 0.34359 0.18097 0.0
H236 H 0.09229 0.2273 0.27754 0.0
H237 H 0.06409 0.2103 0.11086 0.0
H238 H 0.06998 0.24852 0.07805 0.0
H239 H 0.09812 0.26554 0.24451 0.0
C240 C 0.28294 0.05539 0.89749 0.0
C241 C 0.30258 0.05482 0.93126 0.0
C242 C 0.32591 0.05498 0.84488 0.0
C243 C 0.32363 0.05454 0.90552 0.0
C244 C 0.30611 0.05602 0.81128 0.0
C245 C 0.28503 0.05616 0.83715 0.0
U246 U 0.24651 0.06262 0.02957 0.0
O247 O 0.21203 0.07312 0.04511 0.0
O248 O 0.22191 0.0398 0.06974 0.0
C249 C 0.20623 0.05448 0.07131 0.0
C250 C 0.26044 0.05405 0.92473 0.0
C251 C 0.19264 0.05554 0.12543 0.0
C252 C 0.15863 0.06697 0.17313 0.0
C253 C 0.17317 0.06796 0.12589 0.0
C254 C 0.18264 0.04127 0.22156 0.0
C255 C 0.16287 0.05332 0.22163 0.0
C256 C 0.19721 0.04234 0.17446 0.0
C257 C 0.28542 0.08401 0.15585 0.0
C258 C 0.28644 0.07331 0.25672 0.0
C259 C 0.31857 0.09137 0.21338 0.0
C260 C 0.3067 0.09359 0.16177 0.0
C261 C 0.30912 0.07978 0.26036 0.0
C262 C 0.27473 0.07507 0.20432 0.0
C263 C 0.27814 0.07826 0.09749 0.0
O264 O 0.25801 0.03902 0.96557 0.0
O265 O 0.25139 0.07281 0.93821 0.0
O266 O 0.26435 0.09118 0.06959 0.0
O267 O 0.27433 0.05709 0.08872 0.0
H268 H 0.30164 0.05418 0.97787 0.0
H269 H 0.3381 0.0534 0.93358 0.0
H270 H 0.3068 0.05682 0.76469 0.0
H271 H 0.27029 0.05664 0.80979 0.0
H272 H 0.14361 0.07638 0.17062 0.0
H273 H 0.16881 0.07804 0.08873 0.0
H274 H 0.18689 0.03083 0.25806 0.0
H275 H 0.21187 0.03238 0.17609 0.0
H276 H 0.27831 0.06512 0.29267 0.0
H277 H 0.33589 0.09664 0.21368 0.0
H278 H 0.31517 0.10052 0.12454 0.0
H279 H 0.25818 0.06769 0.20034 0.0
C280 C 0.54606 0.28075 0.91725 0.0
C281 C 0.54112 0.29889 0.95164 0.0
C282 C 0.54289 0.32407 0.86753 0.0
C283 C 0.53962 0.32025 0.92717 0.0
C284 C 0.54821 0.30577 0.83375 0.0
C285 C 0.5498 0.28454 0.85827 0.0
U286 U 0.54957 0.23303 0.03452 0.0
O287 O 0.56421 0.20009 0.02812 0.0
O288 O 0.52837 0.2028 0.03823 0.0
C289 C 0.54544 0.18976 0.0414 0.0
C290 C 0.54581 0.25755 0.93983 0.0
C291 C 0.54623 0.17536 0.09382 0.0
C292 C 0.54556 0.13886 0.13969 0.0
C293 C 0.54592 0.15225 0.08966 0.0
C294 C 0.54629 0.17149 0.19889 0.0
C295 C 0.54549 0.14827 0.19518 0.0
C296 C 0.54667 0.18481 0.14899 0.0
C297 C 0.56105 0.26907 0.17329 0.0
C298 C 0.56653 0.28209 0.27085 0.0
C299 C 0.56643 0.30813 0.19045 0.0
C300 C 0.56282 0.29073 0.152 0.0
C301 C 0.5682 0.30388 0.2502 0.0
C302 C 0.56299 0.26482 0.23257 0.0
C303 C 0.55715 0.25021 0.13596 0.0
O304 O 0.56474 0.24945 0.95826 0.0
O305 O 0.5289 0.25125 0.97184 0.0
O306 O 0.53704 0.24725 0.11396 0.0
O307 O 0.57315 0.24506 0.10113 0.0
H308 H 0.53814 0.29652 0.99726 0.0
H309 H 0.5359 0.33378 0.95521 0.0
H310 H 0.55053 0.30764 0.78776 0.0
H311 H 0.55344 0.27086 0.83054 0.0
H312 H 0.54534 0.1211 0.13482 0.0
H313 H 0.54572 0.14454 0.04772 0.0
H314 H 0.546 0.17947 0.24043 0.0
H315 H 0.54692 0.20258 0.15352 0.0
H316 H 0.56805 0.27841 0.31656 0.0
H317 H 0.56745 0.32489 0.17371 0.0
H318 H 0.5613 0.29413 0.10615 0.0
H319 H 0.56172 0.24805 0.24932 0.0
Eu320 Eu 1.00742 0.03174 0.61844 0.0
Eu321 Eu 0.04804 1.0141 0.6925 0.0
C322 C 0.03735 0.06591 0.69675 0.0
C323 C 0.98517 0.06579 0.5057 0.0
C324 C 1.00709 0.07419 0.50931 0.0
C325 C 0.97866 0.08921 0.42196 0.0
C326 C 1.01467 0.09011 0.47064 0.0
C327 C 0.97091 0.07321 0.46162 0.0
C328 C 1.00054 0.09781 0.42698 0.0
C329 C 0.97861 0.04871 0.54761 0.0
O330 O 1.01696 1.00248 0.7413 0.0
O331 O 0.99307 0.02844 0.70816 0.0
C332 C 0.99861 1.01357 0.74715 0.0
O333 O 1.00114 0.99442 0.62227 0.0
O334 O 0.06478 1.00961 0.77584 0.0
O335 O 0.07823 0.99498 0.69981 0.0
O336 O 0.03778 0.98687 0.62974 0.0
C337 C 1.0173 0.98048 0.61688 0.0
O338 O 0.0361 0.02877 0.55603 0.0
O339 O 0.06531 0.03269 0.61891 0.0
O340 O 0.04461 0.04882 0.72601 0.0
O341 O 0.98748 0.02967 0.53898 0.0
O342 O 0.98074 0.05474 0.60132 0.0
O343 O 0.02647 0.06301 0.64757 0.0
C344 C 0.07327 0.97252 0.78229 0.0
C345 C 0.06019 0.9569 0.75162 0.0
C346 C 0.06756 0.95097 0.86989 0.0
C347 C 0.0502 0.93903 0.78002 0.0
C348 C 0.0774 0.96912 0.84135 0.0
C349 C 0.05326 0.93615 0.83976 0.0
C350 C 0.07737 0.99438 0.75602 0.0
C351 C 0.05737 0.03307 0.5656 0.0
H352 H 0.01851 0.06835 0.54206 0.0
H353 H 0.96763 0.09504 0.38805 0.0
H354 H 0.03168 0.09635 0.47461 0.0
H355 H 0.95402 0.06667 0.45786 0.0
H356 H 0.0563 0.95926 0.70626 0.0
H357 H 0.07053 0.94898 0.91582 0.0
H358 H 0.03904 0.92823 0.7555 0.0
H359 H 0.08709 0.98119 0.86598 0.0
Eu360 Eu 0.53363 0.04234 0.68776 0.0
Eu361 Eu 0.51549 1.00266 0.60991 0.0
C362 C 0.52418 0.99218 0.74092 0.0
C363 C 0.5747 0.05985 0.79398 0.0
C364 C 0.57612 0.03711 0.80513 0.0
C365 C 0.61215 0.06532 0.83269 0.0
C366 C 0.5953 0.02851 0.82929 0.0
C367 C 0.59276 0.07399 0.80821 0.0
C368 C 0.61367 0.04241 0.84235 0.0
C369 C 0.55574 0.06754 0.7595 0.0
O370 O 0.48593 0.0163 0.65852 0.0
O371 O 0.4974 0.05119 0.68384 0.0
C372 C 0.48152 0.03603 0.67812 0.0
O373 O 0.52388 0.06153 0.60825 0.0
O374 O 0.49096 0.97598 0.59433 0.0
O375 O 0.51058 0.98873 0.52392 0.0
O376 O 0.52494 0.03145 0.54996 0.0
C377 C 0.52487 0.05297 0.5568 0.0
O378 O 0.56372 0.02818 0.64216 0.0
O379 O 0.55184 0.99446 0.60801 0.0
O380 O 0.52595 0.98369 0.68949 0.0
O381 O 0.55912 0.068 0.70418 0.0
O382 O 0.53661 0.05818 0.77186 0.0
O383 O 0.52335 1.01368 0.74752 0.0
C384 C 0.47223 0.98631 0.51017 0.0
C385 C 0.46693 1.00841 0.5193 0.0
C386 C 0.43837 0.98144 0.45295 0.0
C387 C 0.44745 0.01687 0.4965 0.0
C388 C 0.45794 0.97281 0.47665 0.0
C389 C 0.43289 1.00348 0.46355 0.0
C390 C 0.49237 0.97814 0.53853 0.0
C391 C 0.56788 1.00922 0.6174 0.0
H392 H 0.56261 0.02577 0.79346 0.0
H393 H 0.62614 0.07637 0.8424 0.0
H394 H 0.59579 1.01087 0.8373 0.0
H395 H 0.59212 0.09152 0.79876 0.0
H396 H 0.47787 0.01916 0.5446 0.0
H397 H 0.42734 0.97087 0.42738 0.0
H398 H 0.44384 0.034 0.50435 0.0
H399 H 0.46181 0.95572 0.46929 0.0
Eu400 Eu 0.50415 0.5254 0.69217 0.0
Eu401 Eu 0.54522 0.51869 0.61049 0.0
C402 C 0.55466 0.53666 0.73662 0.0
C403 C 0.4698 0.55452 0.79142 0.0
C404 C 0.48842 0.56893 0.79479 0.0
C405 C 0.44715 0.58268 0.83172 0.0
C406 C 0.48641 0.59013 0.81566 0.0
C407 C 0.44914 0.56138 0.81011 0.0
C408 C 0.46574 0.59726 0.8337 0.0
C409 C 0.47197 0.53378 0.76107 0.0
O410 O 0.54411 0.48934 0.6727 0.0
O411 O 0.50686 0.48809 0.68748 0.0
C412 C 0.52613 0.47844 0.68931 0.0
O413 O 0.48922 0.52203 0.60288 0.0
O414 O 0.57807 0.50549 0.59688 0.0
O415 O 0.56103 0.52214 0.52681 0.0
O416 O 0.51589 0.50047 0.56746 0.0
C417 C 0.4958 0.50833 0.56386 0.0
O418 O 0.51416 0.56049 0.6643 0.0
O419 O 0.53157 0.55162 0.58141 0.0
O420 O 0.56017 0.53948 0.68243 0.0
O421 O 0.47026 0.5358 0.70526 0.0
O422 O 0.48904 0.52226 0.77687 0.0
O423 O 0.53509 0.52797 0.7496 0.0
C424 C 0.57738 0.48839 0.50754 0.0
C425 C 0.55731 0.4788 0.48702 0.0
C426 C 0.59646 0.45535 0.48134 0.0
C427 C 0.55667 0.45754 0.46538 0.0
C428 C 0.59701 0.47666 0.50411 0.0
C429 C 0.57618 0.44549 0.46259 0.0
C430 C 0.57674 0.50865 0.54128 0.0
C431 C 0.52173 0.5662 0.61313 0.0
H432 H 0.50448 0.56395 0.77989 0.0
H433 H 0.43107 0.58795 0.84564 0.0
H434 H 0.50104 0.60095 0.81779 0.0
H435 H 0.43458 0.55052 0.80672 0.0
H436 H 0.54186 0.48737 0.48969 0.0
H437 H 0.61183 0.44656 0.47896 0.0
H438 H 0.5407 0.45035 0.45239 0.0
H439 H 0.61258 0.48367 0.52064 0.0
Eu440 Eu 0.03823 0.54376 0.6171 0.0
Eu441 Eu 1.01566 0.50471 0.69302 0.0
C442 C 0.06858 0.51204 0.69608 0.0
C443 C 0.07918 0.56605 0.51717 0.0
C444 C 0.09795 0.55695 0.54431 0.0
C445 C 0.0924 0.55376 0.42479 0.0
C446 C 0.11322 0.5456 0.5124 0.0
C447 C 0.07704 0.56513 0.45684 0.0
C448 C 0.11018 0.5432 0.45262 0.0
C449 C 0.05983 0.57157 0.55187 0.0
O450 O 1.00643 0.53666 0.73678 0.0
O451 O 0.03487 0.55906 0.70542 0.0
C452 C 0.01891 0.55473 0.7422 0.0
O453 O 1.00145 0.55073 0.61075 0.0
O454 O 1.00965 0.48988 0.77785 0.0
O455 O 0.9933 0.47586 0.70255 0.0
O456 O 0.98958 0.51522 0.62769 0.0
C457 C 0.98564 0.53533 0.60938 0.0
O458 O 0.03381 0.51465 0.55657 0.0
O459 O 0.03189 0.48582 0.62113 0.0
O460 O 0.05101 0.50722 0.7269 0.0
O461 O 0.04115 0.5619 0.53559 0.0
O462 O 0.06272 0.57073 0.6078 0.0
O463 O 0.06666 0.52211 0.64588 0.0
C464 C 0.97145 0.4843 0.78129 0.0
C465 C 0.96122 0.50241 0.75509 0.0
C466 C 0.94428 0.48478 0.85731 0.0
C467 C 0.94294 0.51176 0.77944 0.0
C468 C 0.96287 0.47537 0.83253 0.0
C469 C 0.93432 0.50324 0.83106 0.0
C470 C 0.99288 0.4779 0.75853 0.0
C471 C 0.03477 0.49336 0.56808 0.0
H472 H 0.1001 0.55714 0.59078 0.0
H473 H 0.08991 0.55251 0.37854 0.0
H474 H 0.12664 0.53753 0.53523 0.0
H475 H 0.06268 0.57191 0.43493 0.0
H476 H 0.96802 0.51014 0.71696 0.0
H477 H 0.93793 0.47787 0.89723 0.0
H478 H 0.93618 0.52631 0.7589 0.0
H479 H 0.97088 0.46171 0.85412 0.0
C480 C 0.1427 0.03072 0.29921 0.0
C481 C 0.14665 0.05118 0.27123 0.0
C482 C 0.12781 0.02832 0.34568 0.0
C483 C 0.11641 0.04683 0.36611 0.0
C484 C 0.12009 0.06753 0.33779 0.0
C485 C 0.13493 0.0694 0.29088 0.0
C486 C 0.1242 1.00579 0.3729 0.0
C487 C 0.10832 0.0878 0.35691 0.0
C488 C 0.06412 0.03594 0.45773 0.0
C489 C 0.07244 0.03747 0.51482 0.0
C490 C 0.078 0.03919 0.4094 0.0
C491 C 0.10099 0.04442 0.41739 0.0
C492 C 0.10938 0.04653 0.47485 0.0
C493 C 0.09516 0.04295 0.52247 0.0
C494 C 0.06801 0.03676 0.34959 0.0
C495 C 0.13353 0.05253 0.48606 0.0
H496 H 0.15105 0.01631 0.28417 0.0
H497 H 0.13764 0.08537 0.27026 0.0
H498 H 0.12921 1.00628 0.41915 0.0
H499 H 0.10629 1.00095 0.37078 0.0
H500 H 0.13378 0.99289 0.35144 0.0
H501 H 0.09039 0.08612 0.34551 0.0
H502 H 0.10968 0.08957 0.40444 0.0
H503 H 0.11508 0.10313 0.33618 0.0
H504 H 0.04665 0.03188 0.45056 0.0
H505 H 0.10194 0.04439 0.5659 0.0
H506 H 0.07707 0.02427 0.32525 0.0
H507 H 0.06973 0.05265 0.32564 0.0
H508 H 0.05012 0.03176 0.35035 0.0
H509 H 0.14413 0.03959 0.46853 0.0
H510 H 0.13746 0.05441 0.53277 0.0
H511 H 0.13797 0.06825 0.46344 0.0
C512 C 0.55538 0.13991 0.29993 0.0
C513 C 0.5438 0.13408 0.24881 0.0
C514 C 0.55314 0.12722 0.35108 0.0
C515 C 0.53889 0.10817 0.35173 0.0
C516 C 0.5274 0.10204 0.30019 0.0
C517 C 0.53 0.11497 0.24966 0.0
C518 C 0.56607 0.13422 0.40448 0.0
C519 C 0.51202 0.08193 0.29861 0.0
C520 C 0.54506 0.06253 0.46599 0.0
C521 C 0.52862 0.06759 0.50559 0.0
C522 C 0.54914 0.07601 0.41715 0.0
C523 C 0.53587 0.09463 0.40609 0.0
C524 C 0.51922 0.09979 0.44611 0.0
C525 C 0.51609 0.08646 0.49588 0.0
C526 C 0.56764 0.07027 0.3773 0.0
C527 C 0.50438 0.11913 0.43569 0.0
H528 H 0.56638 0.15438 0.29995 0.0
H529 H 0.52071 0.11035 0.21101 0.0
H530 H 0.55446 0.13788 0.43954 0.0
H531 H 0.57659 0.12055 0.42005 0.0
H532 H 0.5769 0.14907 0.3967 0.0
H533 H 0.50426 0.07933 0.25531 0.0
H534 H 0.52129 0.06697 0.31086 0.0
H535 H 0.49866 0.08365 0.33051 0.0
H536 H 0.55505 0.04815 0.47381 0.0
H537 H 0.50337 0.09042 0.52635 0.0
H538 H 0.579 0.0848 0.37097 0.0
H539 H 0.56062 0.06576 0.33434 0.0
H540 H 0.57748 0.05628 0.39414 0.0
H541 H 0.51455 0.13463 0.43222 0.0
H542 H 0.49218 0.12095 0.47062 0.0
H543 H 0.49517 0.11703 0.39414 0.0
C544 C 0.42505 0.49036 0.26995 0.0
C545 C 0.40495 0.47844 0.27811 0.0
C546 C 0.44008 0.49451 0.31606 0.0
C547 C 0.43511 0.48649 0.37215 0.0
C548 C 0.41494 0.4743 0.38072 0.0
C549 C 0.4001 0.47052 0.33382 0.0
C550 C 0.46114 0.50789 0.30486 0.0
C551 C 0.40897 0.46533 0.4396 0.0
C552 C 0.48334 0.48338 0.48201 0.0
C553 C 0.48038 0.50234 0.51501 0.0
C554 C 0.46854 0.47776 0.43621 0.0
C555 C 0.45059 0.49167 0.42208 0.0
C556 C 0.44771 0.51093 0.45498 0.0
C557 C 0.46243 0.51587 0.50117 0.0
C558 C 0.47206 0.4569 0.40301 0.0
C559 C 0.42921 0.52653 0.44096 0.0
H560 H 0.42887 0.49692 0.22749 0.0
H561 H 0.38477 0.46113 0.34071 0.0
H562 H 0.46135 0.52318 0.33085 0.0
H563 H 0.47584 0.49838 0.31845 0.0
H564 H 0.46282 0.51258 0.25866 0.0
H565 H 0.39312 0.45548 0.43886 0.0
H566 H 0.4224 0.45477 0.45657 0.0
H567 H 0.40738 0.47914 0.47016 0.0
H568 H 0.49707 0.47276 0.49244 0.0
H569 H 0.46006 0.53067 0.52596 0.0
H570 H 0.47485 0.46096 0.35689 0.0
H571 H 0.45694 0.44602 0.40503 0.0
H572 H 0.48646 0.4476 0.41996 0.0
H573 H 0.43074 0.53274 0.39595 0.0
H574 H 0.42931 0.54092 0.47031 0.0
H575 H 0.41288 0.51769 0.444 0.0
C576 C 0.03237 0.41466 0.28874 0.0
C577 C 0.05309 0.40601 0.27528 0.0
C578 C 0.02972 0.42835 0.33696 0.0
C579 C 0.04822 0.43387 0.37326 0.0
C580 C 0.06923 0.4253 0.35989 0.0
C581 C 0.07136 0.41141 0.31163 0.0
C582 C 1.00699 0.43695 0.34902 0.0
C583 C 0.08954 0.43087 0.3965 0.0
C584 C 0.04453 0.48625 0.46433 0.0
C585 C 0.03889 0.47785 0.51921 0.0
C586 C 0.04793 0.47221 0.41721 0.0
C587 C 0.0456 0.44897 0.42422 0.0
C588 C 0.04015 0.44033 0.47959 0.0
C589 C 0.03695 0.45478 0.52622 0.0
C590 C 0.05376 0.48235 0.35949 0.0
C591 C 0.03739 0.41575 0.48938 0.0
H592 H 1.01801 0.41046 0.26182 0.0
H593 H 0.08751 0.40511 0.30173 0.0
H594 H 1.00184 0.43185 0.39302 0.0
H595 H 1.00753 0.45527 0.34758 0.0
H596 H 0.99418 0.43089 0.3175 0.0
H597 H 0.10497 0.42449 0.37798 0.0
H598 H 0.09154 0.44903 0.40134 0.0
H599 H 0.08746 0.42369 0.44036 0.0
H600 H 0.04626 0.50396 0.45789 0.0
H601 H 0.03262 0.44796 0.56808 0.0
H602 H 0.03993 0.47918 0.32817 0.0
H603 H 0.06868 0.47457 0.3423 0.0
H604 H 0.05694 0.50047 0.36201 0.0
H605 H 0.02387 0.40903 0.46096 0.0
H606 H 0.03341 0.41152 0.53485 0.0
H607 H 0.05285 0.40743 0.4778 0.0
C608 C 0.90633 0.98993 0.99503 0.0
C609 C 0.91401 0.99652 0.05019 0.0
C610 C 0.92014 0.99126 0.94611 0.0
C611 C 0.94233 0.99969 0.95127 0.0
C612 C 0.95032 1.00607 1.00678 0.0
C613 C 0.93627 1.00429 0.05512 0.0
C614 C 0.91078 0.98393 0.88842 0.0
C615 C 0.9737 1.01527 1.01504 0.0
C616 C 0.98504 0.99 0.83196 0.0
C617 C 0.98404 1.00957 0.79882 0.0
C618 C 0.97144 0.98636 0.88077 0.0
C619 C 0.95674 1.0029 0.89841 0.0
C620 C 0.9559 0.02276 0.86541 0.0
C621 C 0.96923 0.0257 0.81606 0.0
C622 C 0.97277 0.96472 0.91334 0.0
C623 C 0.94107 0.04116 0.88271 0.0
H624 H 0.88926 0.98415 0.98947 0.0
H625 H 0.94288 1.00901 0.09706 0.0
H626 H 0.90982 0.99834 0.85864 0.0
H627 H 0.92192 0.97194 0.8687 0.0
H628 H 0.89391 0.97617 0.89194 0.0
H629 H 0.97771 0.01904 0.0609 0.0
H630 H 0.98583 1.00335 0.99945 0.0
H631 H 0.97592 0.03065 0.98906 0.0
H632 H 0.99631 0.97733 0.81934 0.0
H633 H 0.96836 0.04099 0.79152 0.0
H634 H 0.95603 0.95661 0.91537 0.0
H635 H 0.97848 0.96772 0.95838 0.0
H636 H 0.98431 0.95318 0.89316 0.0
H637 H 0.92347 0.03522 0.88247 0.0
H638 H 0.94257 0.05577 0.85352 0.0
H639 H 0.94533 0.04642 0.92735 0.0
C640 C 0.51217 0.93107 0.04932 0.0
C641 C 0.50146 0.91015 0.04647 0.0
C642 C 0.5153 0.94439 0.99956 0.0
C643 C 0.50761 0.93678 0.9449 0.0
C644 C 0.49639 0.9159 0.94175 0.0
C645 C 0.49347 0.90292 0.99222 0.0
C646 C 0.52727 0.9665 1.0054 0.0
C647 C 0.48753 0.90718 0.88486 0.0
C648 C 0.5009 0.98034 0.8249 0.0
C649 C 0.5199 0.97749 0.7918 0.0
C650 C 0.49635 0.96683 0.87349 0.0
C651 C 0.5116 0.95054 0.89116 0.0
C652 C 0.53093 0.94774 0.85791 0.0
C653 C 0.53463 0.96095 0.80812 0.0
C654 C 0.47515 0.97001 0.90589 0.0
C655 C 0.54794 0.93104 0.87559 0.0
H656 H 0.5187 0.93689 0.09042 0.0
H657 H 0.48478 0.88706 0.98908 0.0
H658 H 0.54258 0.96677 0.97937 0.0
H659 H 0.51663 0.97982 0.98837 0.0
H660 H 0.53193 0.97028 0.05088 0.0
H661 H 0.47854 0.89101 0.88969 0.0
H662 H 0.47607 0.91918 0.86476 0.0
H663 H 0.50142 0.9052 0.8547 0.0
H664 H 0.48936 0.99299 0.81213 0.0
H665 H 0.54938 0.95877 0.78285 0.0
H666 H 0.47913 0.97537 0.95056 0.0
H667 H 0.46558 0.95413 0.90897 0.0
H668 H 0.46443 0.98249 0.88484 0.0
H669 H 0.55431 0.93463 0.9198 0.0
H670 H 0.56222 0.93103 0.84585 0.0
H671 H 0.54012 0.91424 0.87668 0.0
C672 C 0.6528 0.53992 0.97738 0.0
C673 C 0.65213 0.5583 1.0138 0.0
C674 C 0.63738 0.53692 0.93138 0.0
C675 C 0.62076 0.55268 0.92094 0.0
C676 C 0.6202 0.57145 0.95686 0.0
C677 C 0.63579 0.57401 1.00263 0.0
C678 C 0.63861 0.51658 0.89464 0.0
C679 C 0.60293 0.58877 0.94734 0.0
C680 C 0.59136 0.55318 0.7727 0.0
C681 C 0.57125 0.5417 0.78396 0.0
C682 C 0.60743 0.55711 0.81678 0.0
C683 C 0.60357 0.54918 0.87365 0.0
C684 C 0.58327 0.53767 0.88526 0.0
C685 C 0.56739 0.53421 0.84061 0.0
C686 C 0.62866 0.56966 0.80237 0.0
C687 C 0.57842 0.52869 0.94487 0.0
H688 H 0.66505 0.52746 0.98576 0.0
H689 H 0.6352 0.58845 0.02969 0.0
H690 H 0.62304 0.50647 0.89863 0.0
H691 H 0.64016 0.52139 0.84855 0.0
H692 H 0.65287 0.5062 0.9071 0.0
H693 H 0.6051 0.60276 0.97771 0.0
H694 H 0.60377 0.59533 0.90255 0.0
H695 H 0.58607 0.58126 0.95285 0.0
H696 H 0.59459 0.55909 0.72928 0.0
H697 H 0.55205 0.5252 0.85005 0.0
H698 H 0.64313 0.5591 0.81101 0.0
H699 H 0.63071 0.58436 0.83034 0.0
H700 H 0.629 0.5752 0.75655 0.0
H701 H 0.59133 0.5169 0.95832 0.0
H702 H 0.56189 0.52012 0.94704 0.0
H703 H 0.57898 0.54233 0.97648 0.0
C704 C 0.98855 0.64627 0.98265 0.0
C705 C 1.00301 0.64506 0.03094 0.0
C706 C 0.99002 0.6316 0.93568 0.0
C707 C 1.00641 0.61516 0.93612 0.0
C708 C 0.02096 0.61379 0.98476 0.0
C709 C 0.01912 0.62862 0.03107 0.0
C710 C 0.97401 0.63374 0.88532 0.0
C711 C 0.03872 0.59669 0.98774 0.0
C712 C 1.00034 0.56484 0.83566 0.0
C713 C 1.01503 0.57045 0.79086 0.0
C714 C 0.99722 0.57917 0.88261 0.0
C715 C 1.00887 0.59989 0.88523 0.0
C716 C 0.02341 0.60576 0.83963 0.0
C717 C 0.02638 0.59106 0.79354 0.0
C718 C 0.98166 0.57191 0.92997 0.0
C719 C 0.03606 0.62763 0.83969 0.0
H720 H 0.97581 0.65855 0.9818 0.0
H721 H 0.03068 0.62752 0.06722 0.0
H722 H 0.98333 0.6372 0.84519 0.0
H723 H 0.96453 0.61795 0.87901 0.0
H724 H 0.96205 0.64712 0.89144 0.0
H725 H 0.04827 0.59717 0.02915 0.0
H726 H 0.03109 0.57992 0.98253 0.0
H727 H 0.05047 0.59941 0.95184 0.0
H728 H 0.99146 0.54903 0.83459 0.0
H729 H 0.03771 0.59577 0.75944 0.0
H730 H 0.96882 0.58443 0.93586 0.0
H731 H 0.99107 0.57054 0.97137 0.0
H732 H 0.97323 0.55573 0.92087 0.0
H733 H 0.02432 0.64136 0.84262 0.0
H734 H 0.04615 0.63017 0.80038 0.0
H735 H 0.04729 0.62859 0.87808 0.0
C736 C 0.04373 0.19418 0.21983 0.0
C737 C 0.06695 0.19622 0.22223 0.0
C738 C 0.0325 0.17745 0.25041 0.0
C739 C 0.04487 0.16214 0.28319 0.0
C740 C 0.06842 0.1636 0.28414 0.0
C741 C 0.07924 0.18094 0.25415 0.0
C742 C 1.00739 0.17683 0.24992 0.0
C743 C 0.08207 0.14727 0.31804 0.0
C744 C 1.01613 0.1354 0.41061 0.0
C745 C 1.00929 0.11498 0.38786 0.0
C746 C 0.02782 0.15091 0.37694 0.0
C747 C 0.03296 0.14562 0.31947 0.0
C748 C 0.0259 0.12503 0.29616 0.0
C749 C 1.01396 0.1099 0.33076 0.0
C750 C 0.03486 0.17281 0.40309 0.0
C751 C 0.0314 0.11884 0.23525 0.0
H752 H 0.03427 0.2064 0.1962 0.0
H753 H 0.0972 0.18277 0.25624 0.0
H754 H 1.0009 0.16035 0.23626 0.0
H755 H 1.00135 0.17962 0.29414 0.0
H756 H 1.00031 0.18956 0.22064 0.0
H757 H 0.1002 0.15 0.31173 0.0
H758 H 0.07862 0.14858 0.3647 0.0
H759 H 0.07738 0.13016 0.305 0.0
H760 H 1.01272 0.13898 0.45529 0.0
H761 H 1.00905 0.0938 0.31407 0.0
H762 H 0.02794 0.18655 0.37705 0.0
H763 H 0.05322 0.17485 0.40266 0.0
H764 H 0.02927 0.17434 0.44826 0.0
H765 H 0.02437 0.13097 0.20428 0.0
H766 H 0.02486 0.10208 0.22389 0.0
H767 H 0.04969 0.11936 0.22989 0.0
C768 C 0.32005 0.0491 0.32748 0.0
C769 C 0.32398 0.07068 0.30634 0.0
C770 C 0.33631 0.03806 0.35958 0.0
C771 C 0.35728 0.04854 0.36926 0.0
C772 C 0.36096 0.07073 0.3514 0.0
C773 C 0.34405 0.08171 0.32145 0.0
C774 C 0.33152 1.01463 0.37969 0.0
C775 C 0.38327 0.08235 0.3602 0.0
C776 C 0.3986 0.02482 0.47644 0.0
C777 C 0.41228 1.01302 0.44014 0.0
C778 C 0.38032 0.03611 0.45417 0.0
C779 C 0.37584 0.03576 0.39414 0.0
C780 C 0.38931 0.02343 0.35744 0.0
C781 C 0.40733 1.01204 0.38105 0.0
C782 C 0.36607 0.04872 0.49468 0.0
C783 C 0.38515 0.02288 0.29304 0.0
H784 H 0.30485 0.04011 0.31591 0.0
H785 H 0.3471 0.09859 0.30705 0.0
H786 H 0.3409 1.00307 0.35316 0.0
H787 H 0.33706 1.01237 0.4252 0.0
H788 H 0.31356 1.01003 0.37608 0.0
H789 H 0.38305 0.09999 0.34666 0.0
H790 H 0.3886 0.0814 0.40615 0.0
H791 H 0.39596 0.07399 0.33473 0.0
H792 H 0.40242 0.02544 0.52229 0.0
H793 H 0.41809 1.0031 0.35304 0.0
H794 H 0.34836 0.04347 0.48905 0.0
H795 H 0.36731 0.06663 0.48436 0.0
H796 H 0.37105 0.04625 0.5406 0.0
H797 H 0.36804 0.0165 0.28352 0.0
H798 H 0.39707 1.01238 0.27068 0.0
H799 H 0.38651 0.03988 0.27484 0.0
C800 C 0.58715 0.33896 0.28065 0.0
C801 C 0.57129 0.32216 0.29118 0.0
C802 C 0.58913 0.35723 0.31684 0.0
C803 C 0.57473 0.35872 0.36418 0.0
C804 C 0.55953 0.3412 0.37695 0.0
C805 C 0.55797 0.32306 0.34009 0.0
C806 C 0.60573 0.37554 0.30247 0.0
C807 C 0.5439 0.34223 0.42706 0.0
C808 C 0.58789 0.40608 0.46524 0.0
C809 C 0.57512 0.42274 0.43994 0.0
C810 C 0.58727 0.38468 0.44272 0.0
C811 C 0.57344 0.37997 0.39427 0.0
C812 C 0.55974 0.39641 0.37039 0.0
C813 C 0.56099 0.41766 0.39298 0.0
C814 C 0.60194 0.36739 0.46943 0.0
C815 C 0.54437 0.39181 0.31941 0.0
H816 H 0.59775 0.33797 0.24346 0.0
H817 H 0.54567 0.31002 0.34817 0.0
H818 H 0.59678 0.39035 0.28735 0.0
H819 H 0.61561 0.38031 0.34144 0.0
H820 H 0.6173 0.37075 0.26824 0.0
H821 H 0.53645 0.32573 0.4378 0.0
H822 H 0.55258 0.3489 0.46598 0.0
H823 H 0.53024 0.35349 0.41578 0.0
H824 H 0.59843 0.40978 0.50245 0.0
H825 H 0.55124 0.43047 0.37277 0.0
H826 H 0.6156 0.36393 0.43961 0.0
H827 H 0.5924 0.35167 0.47627 0.0
H828 H 0.60936 0.37279 0.51134 0.0
H829 H 0.55432 0.38864 0.28067 0.0
H830 H 0.53333 0.4058 0.30962 0.0
H831 H 0.53385 0.37682 0.32774 0.0
C832 C 0.19377 0.48408 0.25196 0.0
C833 C 0.20158 0.46424 0.2747 0.0
C834 C 0.17679 0.4951 0.27876 0.0
C835 C 0.16734 0.48587 0.32929 0.0
C836 C 0.17415 0.46501 0.35023 0.0
C837 C 0.19153 0.45444 0.32284 0.0
C838 C 0.16989 0.51723 0.25492 0.0
C839 C 0.16383 0.45446 0.40296 0.0
C840 C 0.14763 0.52864 0.43254 0.0
C841 C 0.12475 0.52854 0.42051 0.0
C842 C 0.1615 0.51417 0.40464 0.0
C843 C 0.15228 0.4994 0.36317 0.0
C844 C 0.1292 0.49915 0.35076 0.0
C845 C 0.11565 0.51363 0.38001 0.0
C846 C 0.18612 0.51507 0.41852 0.0
C847 C 0.11878 0.48362 0.30684 0.0
H848 H 0.20174 0.49148 0.21455 0.0
H849 H 0.19772 0.43903 0.34 0.0
H850 H 0.15158 0.51745 0.24887 0.0
H851 H 0.17465 0.53039 0.28608 0.0
H852 H 0.17778 0.52129 0.213 0.0
H853 H 0.16944 0.43733 0.41038 0.0
H854 H 0.16829 0.46443 0.44155 0.0
H855 H 0.14544 0.45413 0.39849 0.0
H856 H 0.15476 0.54024 0.46347 0.0
H857 H 0.09789 0.51311 0.3716 0.0
H858 H 0.19545 0.52028 0.37958 0.0
H859 H 0.19181 0.49844 0.43135 0.0
H860 H 0.19044 0.52676 0.45386 0.0
H861 H 0.12892 0.48305 0.26741 0.0
H862 H 0.10174 0.48848 0.29406 0.0
H863 H 0.11789 0.46668 0.32542 0.0
C864 C 1.00785 0.83329 1.01572 0.0
C865 C 0.98492 0.82886 1.01078 0.0
C866 C 1.01762 0.852 0.9899 0.0
C867 C 1.00416 0.86656 0.95769 0.0
C868 C 0.98093 0.86241 0.95298 0.0
C869 C 0.97151 0.8436 0.98011 0.0
C870 C 0.04239 0.85615 0.99704 0.0
C871 C 0.96616 0.87763 0.91875 0.0
C872 C 0.03113 0.9224 0.92418 0.0
C873 C 0.04047 0.91846 0.87032 0.0
C874 C 0.01853 0.9059 0.95257 0.0
C875 C 1.01494 0.88516 0.92591 0.0
C876 C 0.02371 0.88134 0.87086 0.0
C877 C 0.03664 0.8979 0.84415 0.0
C878 C 1.00963 0.91046 1.01165 0.0
C879 C 0.01999 0.8595 0.84082 0.0
H880 H 1.01815 0.82236 0.04128 0.0
H881 H 0.95372 0.84037 0.97726 0.0
H882 H 0.05045 0.85543 0.95444 0.0
H883 H 0.04582 0.87291 1.01446 0.0
H884 H 0.05023 0.84389 0.02636 0.0
H885 H 0.94828 0.87282 0.92229 0.0
H886 H 0.9686 0.89488 0.93368 0.0
H887 H 0.97073 0.87741 0.87261 0.0
H888 H 0.03355 0.93842 0.94405 0.0
H889 H 0.04397 0.89461 0.80286 0.0
H890 H 1.01812 0.89995 0.04422 0.0
H891 H 0.99162 0.90616 1.01325 0.0
H892 H 1.01219 0.92803 0.02404 0.0
H893 H 0.02891 0.84641 0.8648 0.0
H894 H 0.02594 0.86001 0.79571 0.0
H895 H 1.00206 0.85473 0.84024 0.0
C896 C 0.69286 0.97283 0.03782 0.0
C897 C 0.7156 0.97592 0.0285 0.0
C898 C 0.67728 0.98303 1.00152 0.0
C899 C 0.68481 0.99706 0.95614 0.0
C900 C 0.70778 0.99963 0.94552 0.0
C901 C 0.72293 0.98888 0.98171 0.0
C902 C 0.65283 0.97949 1.01304 0.0
C903 C 0.71643 1.01468 0.8981 0.0
C904 C 0.64172 1.01286 0.84386 0.0
C905 C 0.63407 0.0326 0.86652 0.0
C906 C 0.65884 1.00143 0.8714 0.0
C907 C 0.66863 1.01012 0.92242 0.0
C908 C 0.66201 0.03077 0.94335 0.0
C909 C 0.64471 0.04178 0.91515 0.0
C910 C 0.66563 0.97955 0.84757 0.0
C911 C 0.67249 0.04073 0.99706 0.0
H912 H 0.68732 0.96281 0.07415 0.0
H913 H 0.74061 0.99154 0.97526 0.0
H914 H 0.64571 0.9952 0.02718 0.0
H915 H 0.64385 0.97443 0.97292 0.0
H916 H 0.64973 0.9667 0.04688 0.0
H917 H 0.73458 1.01312 0.89194 0.0
H918 H 0.70767 1.01107 0.85666 0.0
H919 H 0.71317 0.03209 0.90889 0.0
H920 H 0.63382 1.00599 0.80542 0.0
H921 H 0.63881 0.05701 0.93275 0.0
H922 H 0.66053 0.96605 0.87768 0.0
H923 H 0.68395 0.9791 0.84378 0.0
H924 H 0.65791 0.97618 0.80457 0.0
H925 H 0.6682 0.03028 0.03508 0.0
H926 H 0.66681 0.05773 1.00472 0.0
H927 H 0.69086 0.04125 0.99383 0.0
C928 C 0.49167 0.70372 1.0094 0.0
C929 C 0.47457 0.71888 1.01131 0.0
C930 C 0.48995 0.68545 0.97311 0.0
C931 C 0.4707 0.68243 0.93791 0.0
C932 C 0.45397 0.69833 0.93717 0.0
C933 C 0.45603 0.71634 0.97431 0.0
C934 C 0.50824 0.66888 0.97444 0.0
C935 C 0.43345 0.69577 0.89918 0.0
C936 C 0.47369 0.6377 0.82641 0.0
C937 C 0.46414 0.61969 0.85641 0.0
C938 C 0.47511 0.65864 0.85126 0.0
C939 C 0.46695 0.66137 0.90747 0.0
C940 C 0.4564 0.64344 0.93678 0.0
C941 C 0.45502 0.62276 0.91064 0.0
C942 C 0.4862 0.67749 0.81852 0.0
C943 C 0.44762 0.64582 0.997 0.0
H944 H 0.50631 0.70602 0.0368 0.0
H945 H 0.44277 0.72806 0.97566 0.0
H946 H 0.50188 0.65304 0.99319 0.0
H947 H 0.51371 0.66546 0.93006 0.0
H948 H 0.52291 0.67465 1.00045 0.0
H949 H 0.42353 0.71096 0.89801 0.0
H950 H 0.43807 0.6917 0.85448 0.0
H951 H 0.42282 0.6819 0.91558 0.0
H952 H 0.48055 0.63522 0.7841 0.0
H953 H 0.44784 0.60873 0.93384 0.0
H954 H 0.50257 0.68164 0.83892 0.0
H955 H 0.47608 0.69249 0.82012 0.0
H956 H 0.4889 0.67333 0.77265 0.0
H957 H 0.46157 0.64989 0.02729 0.0
H958 H 0.43897 0.6305 1.01261 0.0
H959 H 0.43588 0.65958 0.99826 0.0
C960 C 0.82813 0.54955 0.98034 0.0
C961 C 0.82947 0.57238 0.9902 0.0
C962 C 0.84496 0.5389 0.95169 0.0
C963 C 0.86369 0.55132 0.9326 0.0
C964 C 0.8648 0.57449 0.93996 0.0
C965 C 0.84759 0.5848 0.96853 0.0
C966 C 0.8432 0.51413 0.94449 0.0
C967 C 0.88457 0.58823 0.91985 0.0
C968 C 0.91616 0.51893 0.9172 0.0
C969 C 0.91576 0.51465 0.85793 0.0
C970 C 0.89954 0.53133 0.942 0.0
C971 C 0.88229 0.53972 0.90648 0.0
C972 C 0.88193 0.53563 0.8466 0.0
C973 C 0.8985 0.52291 0.82318 0.0
C974 C 0.90038 0.53534 1.00619 0.0
C975 C 0.86392 0.54451 0.80735 0.0
H976 H 0.81456 0.53966 0.99805 0.0
H977 H 0.84869 0.60245 0.9757 0.0
H978 H 0.84523 0.50978 0.89857 0.0
H979 H 0.85674 0.50621 0.96954 0.0
H980 H 0.82703 0.50705 0.95931 0.0
H981 H 0.88215 0.60621 0.92513 0.0
H982 H 0.89962 0.58358 0.94491 0.0
H983 H 0.88781 0.58496 0.87381 0.0
H984 H 0.92971 0.51299 0.94399 0.0
H985 H 0.898 0.51947 0.77737 0.0
H986 H 0.88532 0.52792 0.02644 0.0
H987 H 0.90045 0.55333 1.01469 0.0
H988 H 0.91528 0.52824 0.02739 0.0
H989 H 0.84766 0.53672 0.8187 0.0
H990 H 0.86706 0.54133 0.76113 0.0
H991 H 0.86256 0.56257 0.81322 0.0
C992 C 0.07156 0.18622 0.83247 0.0
C993 C 0.0525 0.19716 0.85 0.0
C994 C 0.07003 0.16543 0.80486 0.0
C995 C 0.04895 0.15494 0.79458 0.0
C996 C 0.02969 0.16594 0.8118 0.0
C997 C 0.03168 0.1867 0.83902 0.0
C998 C 0.09106 0.15466 0.78672 0.0
C999 C 1.00684 0.15557 0.80239 0.0
C1000 C 0.04044 0.1077 0.68518 0.0
C1001 C 0.04107 0.08875 0.72074 0.0
C1002 C 0.04363 0.12919 0.70809 0.0
C1003 C 0.04696 0.13208 0.76844 0.0
C1004 C 0.04756 0.11298 0.80438 0.0
C1005 C 0.0449 0.09172 0.7802 0.0
C1006 C 0.04337 0.14884 0.66758 0.0
C1007 C 0.05057 0.11499 0.86889 0.0
H1008 H 0.08776 0.19405 0.83959 0.0
H1009 H 1.01676 0.19456 0.85281 0.0
H1010 H 0.09297 0.1388 0.81044 0.0
H1011 H 0.09008 0.15078 0.74007 0.0
H1012 H 0.10609 0.16529 0.79501 0.0
H1013 H 0.99343 0.16641 0.81654 0.0
H1014 H 1.00408 0.15181 0.75605 0.0
H1015 H 1.0055 0.13969 0.82657 0.0
H1016 H 0.03763 0.10572 0.63919 0.0
H1017 H 0.04528 0.07733 0.80837 0.0
H1018 H 0.05887 0.15899 0.6733 0.0
H1019 H 0.0293 0.15948 0.67785 0.0
H1020 H 0.04177 0.14389 0.62165 0.0
H1021 H 0.06643 0.12396 0.87915 0.0
H1022 H 0.05062 0.09864 0.8911 0.0
H1023 H 0.03697 0.12475 0.8866 0.0
C1024 C 0.3679 0.06293 0.84468 0.0
C1025 C 0.34867 0.05391 0.81727 0.0
C1026 C 0.38932 0.06106 0.82108 0.0
C1027 C 0.39201 0.05018 0.76781 0.0
C1028 C 0.37268 0.04167 0.73886 0.0
C1029 C 0.35148 0.04345 0.76389 0.0
C1030 C 0.40921 0.07041 0.85401 0.0
C1031 C 0.37441 0.03027 0.68159 0.0
C1032 C 0.44746 0.05959 0.68789 0.0
C1033 C 0.45864 0.04 0.70027 0.0
C1034 C 0.4257 0.06294 0.70823 0.0
C1035 C 0.41504 0.04675 0.74399 0.0
C1036 C 0.42657 0.02715 0.7574 0.0
C1037 C 0.44785 0.02386 0.73457 0.0
C1038 C 0.41398 0.0837 0.69069 0.0
C1039 C 0.41652 1.00966 0.79664 0.0
H1040 H 0.36632 0.07158 0.88497 0.0
H1041 H 0.33714 0.03608 0.74191 0.0
H1042 H 0.42075 0.05698 0.86512 0.0
H1043 H 0.41845 0.08257 0.82678 0.0
H1044 H 0.40448 0.07863 0.89442 0.0
H1045 H 0.35785 0.02668 0.66139 0.0
H1046 H 0.38441 0.04063 0.65135 0.0
H1047 H 0.38306 1.01447 0.68775 0.0
H1048 H 0.45552 0.0721 0.66109 0.0
H1049 H 0.45637 1.00875 0.74486 0.0
H1050 H 0.40978 0.09318 0.72948 0.0
H1051 H 0.39811 0.07933 0.66797 0.0
H1052 H 0.4242 0.09451 0.66192 0.0
H1053 H 0.4123 0.01706 0.83852 0.0
H1054 H 0.42789 0.99582 0.805 0.0
H1055 H 0.40084 1.00291 0.77716 0.0
C1056 C 0.55338 0.35381 0.79334 0.0
C1057 C 0.54032 0.34676 0.84034 0.0
C1058 C 0.55079 0.37474 0.76679 0.0
C1059 C 0.53497 0.38946 0.78789 0.0
C1060 C 0.52177 0.38251 0.83523 0.0
C1061 C 0.52448 0.36138 0.86045 0.0
C1062 C 0.56509 0.38112 0.71609 0.0
C1063 C 0.50478 0.39753 0.85964 0.0
C1064 C 0.54423 0.45146 0.75698 0.0
C1065 C 0.52811 0.45569 0.71416 0.0
C1066 C 0.54638 0.4302 0.78176 0.0
C1067 C 0.53268 0.41231 0.76176 0.0
C1068 C 0.51672 0.41643 0.71733 0.0
C1069 C 0.51432 0.4381 0.69499 0.0
C1070 C 0.56316 0.42696 0.82998 0.0
C1071 C 0.5024 0.39786 0.69272 0.0
H1072 H 0.56593 0.34306 0.77744 0.0
H1073 H 0.5139 0.35624 0.89571 0.0
H1074 H 0.55452 0.3864 0.67905 0.0
H1075 H 0.57622 0.39536 0.72761 0.0
H1076 H 0.57549 0.36735 0.70213 0.0
H1077 H 0.49592 0.38989 0.8968 0.0
H1078 H 0.51303 0.4132 0.87392 0.0
H1079 H 0.49234 0.40182 0.82581 0.0
H1080 H 0.55489 0.46499 0.77214 0.0
H1081 H 0.50202 0.44119 0.6614 0.0
H1082 H 0.57566 0.41497 0.81689 0.0
H1083 H 0.55476 0.41997 0.86859 0.0
H1084 H 0.57195 0.44264 0.84218 0.0
H1085 H 0.51308 0.38486 0.67576 0.0
H1086 H 0.49121 0.40358 0.65735 0.0
H1087 H 0.49213 0.39012 0.7271 0.0
C1088 C 0.18321 0.46601 0.83217 0.0
C1089 C 0.19913 0.48329 0.83791 0.0
C1090 C 0.16212 0.46961 0.80676 0.0
C1091 C 0.15654 0.49111 0.78753 0.0
C1092 C 0.17257 0.50858 0.79326 0.0
C1093 C 0.1936 0.50444 0.8179 0.0
C1094 C 0.14578 0.45038 0.80049 0.0
C1095 C 0.16733 0.53183 0.77445 0.0
C1096 C 0.10819 0.50112 0.68163 0.0
C1097 C 0.09097 0.50618 0.71894 0.0
C1098 C 0.12936 0.49546 0.70327 0.0
C1099 C 0.13372 0.49562 0.76364 0.0
C1100 C 0.11639 0.50093 0.80133 0.0
C1101 C 0.09521 0.50576 0.77863 0.0
C1102 C 0.14704 0.48925 0.66151 0.0
C1103 C 0.12035 0.502 0.86573 0.0
H1104 H 0.18736 0.44956 0.84687 0.0
H1105 H 0.20564 0.51798 0.8227 0.0
H1106 H 0.13085 0.45326 0.82644 0.0
H1107 H 0.14017 0.4489 0.75482 0.0
H1108 H 0.15301 0.4345 0.81467 0.0
H1109 H 0.1816 0.54357 0.78144 0.0
H1110 H 0.16258 0.53217 0.72803 0.0
H1111 H 0.15293 0.53766 0.79875 0.0
H1112 H 0.10499 0.50124 0.63546 0.0
H1113 H 0.08205 0.50982 0.80772 0.0
H1114 H 0.15343 0.47275 0.67312 0.0
H1115 H 0.16128 0.50123 0.66422 0.0
H1116 H 0.14073 0.48886 0.6162 0.0
H1117 H 0.12575 0.48576 0.88248 0.0
H1118 H 0.10527 0.50668 0.88914 0.0
H1119 H 0.13391 0.51425 0.87558 0.0
C1120 C 0.98781 0.86478 0.45481 0.0
C1121 C 0.99968 0.8471 0.47893 0.0
C1122 C 0.98945 0.8863 0.47801 0.0
C1123 C 1.0031 0.8906 0.52737 0.0
C1124 C 1.0146 0.87275 0.55304 0.0
C1125 C 1.0129 0.85145 0.52851 0.0
C1126 C 0.97688 0.90462 0.44875 0.0
C1127 C 0.0291 0.87624 0.60611 0.0
C1128 C 0.02756 0.94906 0.5533 0.0
C1129 C 1.01298 0.95776 0.5933 0.0
C1130 C 0.02422 0.92761 0.53077 0.0
C1131 C 1.0063 0.91387 0.55018 0.0
C1132 C 0.99169 0.92247 0.5914 0.0
C1133 C 0.99494 0.94438 0.61154 0.0
C1134 C 0.03989 0.91968 0.48579 0.0
C1135 C 0.97285 0.90837 0.61513 0.0
H1136 H 0.97712 0.86186 0.41748 0.0
H1137 H 0.02245 0.8383 0.54768 0.0
H1138 H 0.96593 0.91252 0.47999 0.0
H1139 H 0.98877 0.91756 0.43298 0.0
H1140 H 0.96654 0.89862 0.41168 0.0
H1141 H 0.03551 0.86049 0.62379 0.0
H1142 H 0.04346 0.88733 0.59547 0.0
H1143 H 0.01964 0.8844 0.64015 0.0
H1144 H 0.0415 0.95927 0.53874 0.0
H1145 H 0.98374 0.95082 0.64296 0.0
H1146 H 0.03035 0.91444 0.44665 0.0
H1147 H 0.04877 0.90507 0.50242 0.0
H1148 H 0.05238 0.93262 0.47321 0.0
H1149 H 0.96134 0.90315 0.57967 0.0
H1150 H 0.96329 0.91716 0.64791 0.0
H1151 H 0.97948 0.89313 0.63518 0.0
C1152 C 0.69696 0.99442 0.52176 0.0
C1153 C 0.69842 0.99315 0.46117 0.0
C1154 C 0.67627 0.99593 0.54974 0.0
C1155 C 0.65614 0.99644 0.51693 0.0
C1156 C 0.65743 0.9949 0.45598 0.0
C1157 C 0.6783 0.99319 0.42917 0.0
C1158 C 0.67601 0.99725 0.61469 0.0
C1159 C 0.63665 0.99537 0.4187 0.0
C1160 C 0.59873 0.98429 0.58508 0.0
C1161 C 0.59092 1.00558 0.59497 0.0
C1162 C 0.62004 0.98104 0.56169 0.0
C1163 C 0.63388 0.99947 0.54576 0.0
C1164 C 0.62604 0.02097 0.55586 0.0
C1165 C 0.60499 0.02372 0.5808 0.0
C1166 C 0.62773 0.95779 0.55383 0.0
C1167 C 0.6397 0.04121 0.53899 0.0
H1168 H 0.71209 0.99473 0.54771 0.0
H1169 H 0.67875 0.99176 0.3827 0.0
H1170 H 0.66964 1.01343 0.62774 0.0
H1171 H 0.66461 0.98427 0.63248 0.0
H1172 H 0.69278 0.99529 0.6345 0.0
H1173 H 0.64025 0.99384 0.3721 0.0
H1174 H 0.62503 0.9817 0.43137 0.0
H1175 H 0.62802 1.01107 0.42531 0.0
H1176 H 0.58822 0.97009 0.59599 0.0
H1177 H 0.59924 0.04028 0.58753 0.0
H1178 H 0.64398 0.95568 0.57624 0.0
H1179 H 0.63023 0.95464 0.50739 0.0
H1180 H 0.61566 0.94523 0.57079 0.0
H1181 H 0.65609 0.04114 0.56158 0.0
H1182 H 0.63137 0.05678 0.54935 0.0
H1183 H 0.64287 0.04103 0.49198 0.0
C1184 C 0.48631 0.6821 0.46119 0.0
C1185 C 0.50397 0.69786 0.4618 0.0
C1186 C 0.48837 0.66104 0.48773 0.0
C1187 C 0.50861 0.65526 0.51564 0.0
C1188 C 0.5264 0.67112 0.51674 0.0
C1189 C 0.52391 0.692 0.48994 0.0
C1190 C 0.46882 0.64492 0.4859 0.0
C1191 C 0.54823 0.666 0.54619 0.0
C1192 C 0.50999 0.60606 0.62292 0.0
C1193 C 0.51853 0.58917 0.58925 0.0
C1194 C 0.50671 0.62754 0.59996 0.0
C1195 C 0.51165 0.63238 0.54131 0.0
C1196 C 0.52011 0.61533 0.50715 0.0
C1197 C 0.52353 0.59417 0.53139 0.0
C1198 C 0.49765 0.64491 0.6386 0.0
C1199 C 0.52556 0.61944 0.44456 0.0
H1200 H 0.47069 0.68633 0.44061 0.0
H1201 H 0.53787 0.70368 0.49037 0.0
H1202 H 0.47351 0.62958 0.46398 0.0
H1203 H 0.46401 0.64024 0.53047 0.0
H1204 H 0.45417 0.65181 0.46301 0.0
H1205 H 0.56026 0.68024 0.545 0.0
H1206 H 0.54538 0.66125 0.5919 0.0
H1207 H 0.55578 0.65174 0.52508 0.0
H1208 H 0.50589 0.60254 0.66749 0.0
H1209 H 0.52997 0.5814 0.50445 0.0
H1210 H 0.47979 0.64703 0.62807 0.0
H1211 H 0.50633 0.66111 0.63182 0.0
H1212 H 0.4992 0.64023 0.68492 0.0
H1213 H 0.51058 0.62502 0.42064 0.0
H1214 H 0.53168 0.60447 0.42337 0.0
H1215 H 0.53846 0.63281 0.441 0.0
C1216 C 0.86927 0.54503 0.43868 0.0
C1217 C 0.85339 0.55722 0.46743 0.0
C1218 C 0.8908 0.54232 0.46196 0.0
C1219 C 0.89686 0.55204 0.51552 0.0
C1220 C 0.88098 0.56449 0.54469 0.0
C1221 C 0.8595 0.56688 0.52045 0.0
C1222 C 0.90701 0.52872 0.42951 0.0
C1223 C 0.88663 0.57514 0.60183 0.0
C1224 C 0.94485 0.52583 0.59884 0.0
C1225 C 0.96289 0.54028 0.58665 0.0
C1226 C 0.92329 0.52983 0.57751 0.0
C1227 C 0.91953 0.5485 0.54167 0.0
C1228 C 0.93763 0.56323 0.52931 0.0
C1229 C 0.959 0.55907 0.55235 0.0
C1230 C 0.90454 0.51387 0.59289 0.0
C1231 C 0.93449 0.58319 0.49086 0.0
H1232 H 0.86472 0.53716 0.39824 0.0
H1233 H 0.84751 0.57651 0.54287 0.0
H1234 H 0.92248 0.53858 0.42147 0.0
H1235 H 0.91166 0.51412 0.4559 0.0
H1236 H 0.90006 0.52288 0.3875 0.0
H1237 H 0.8727 0.58476 0.6184 0.0
H1238 H 0.89091 0.56228 0.63427 0.0
H1239 H 0.90143 0.58633 0.59746 0.0
H1240 H 0.94752 0.51128 0.62533 0.0
H1241 H 0.97277 0.57031 0.54243 0.0
H1242 H 0.89781 0.50582 0.55328 0.0
H1243 H 0.89076 0.52285 0.61233 0.0
H1244 H 0.90992 0.50082 0.62372 0.0
H1245 H 0.9288 0.57783 0.44729 0.0
H1246 H 0.95003 0.59336 0.48648 0.0
H1247 H 0.92141 0.59366 0.50829 0.0
loop_
_geom_bond_atom_site_label_1
_geom_bond_atom_site_label_2
_geom_bond_distance
_geom_bond_site_symmetry_2
_ccdc_geom_bond_type
C0 C1 1.264 . S
C0 C5 1.479 . S
C0 C10 1.465 . S
C1 C0 1.264 . S
C1 C3 1.339 . S
C1 H28 0.931 . S
C2 C3 1.395 . S
C2 C4 1.320 . S
C3 C1 1.339 . S
C3 C2 1.395 . S
C3 H29 0.929 . S
C4 C2 1.320 . S
C4 C5 1.405 . S
C4 H30 0.930 . S
C5 C0 1.479 . S
C5 C4 1.405 . S
C5 H31 0.931 . S
U6 O7 2.454 . S
U6 O8 2.458 . S
U6 C9 2.984 . S
U6 C10 2.847 . S
U6 C23 2.882 . S
U6 O24 2.441 . S
U6 O25 2.420 . S
U6 O26 2.455 . S
U6 O27 2.449 . S
O7 U6 2.454 . S
O7 C9 1.353 . S
O8 U6 2.458 . S
O8 C9 1.286 . S
C9 U6 2.984 . S
C9 O7 1.353 . S
C9 O8 1.286 . S
C9 C11 1.363 . S
C10 C0 1.465 . S
C10 U6 2.847 . S
C10 O24 1.249 . S
C10 O25 1.202 . S
C11 C9 1.363 . S
C11 C13 1.408 . S
C11 C16 1.342 . S
C12 C13 1.310 . S
C12 C15 1.461 . S
C12 H32 0.932 . S
C13 C11 1.408 . S
C13 C12 1.310 . S
C13 H33 0.930 . S
C14 C15 1.474 . S
C14 C16 1.285 . S
C14 H34 0.929 . S
C15 C12 1.461 . S
C15 C14 1.474 . S
C16 C11 1.342 . S
C16 C14 1.285 . S
C16 H35 0.930 . S
C17 C20 1.424 . S
C17 C22 1.245 . S
C17 C23 1.428 . S
C18 C21 1.260 . S
C18 C22 1.477 1_556 S
C18 H36 0.932 . S
C19 C20 1.384 . S
C19 C21 1.479 1_554 S
C19 H37 0.929 . S
C20 C17 1.424 . S
C20 C19 1.384 . S
C20 H38 0.928 . S
C21 C18 1.260 . S
C21 C19 1.479 1_556 S
C22 C17 1.245 . S
C22 C18 1.477 1_554 S
C22 H39 0.932 1_554 S
C23 U6 2.882 . S
C23 C17 1.428 . S
C23 O26 1.301 . S
C23 O27 1.282 . S
O24 U6 2.441 . S
O24 C10 1.249 . S
O25 U6 2.420 . S
O25 C10 1.202 . S
O26 U6 2.455 . S
O26 C23 1.301 . S
O27 U6 2.449 . S
O27 C23 1.282 . S
H28 C1 0.931 . S
H29 C3 0.929 . S
H30 C4 0.930 . S
H31 C5 0.931 . S
H32 C12 0.932 . S
H33 C13 0.930 . S
H34 C14 0.929 . S
H35 C16 0.930 . S
H36 C18 0.932 . S
H37 C19 0.929 . S
H38 C20 0.928 . S
H39 C22 0.932 1_556 S
C40 C41 1.264 . S
C40 C45 1.479 . S
C40 C50 1.465 . S
C41 C40 1.264 . S
C41 C43 1.339 . S
C41 H68 0.931 . S
C42 C43 1.395 . S
C42 C44 1.320 . S
C43 C41 1.339 . S
C43 C42 1.395 . S
C43 H69 0.929 . S
C44 C42 1.320 . S
C44 C45 1.405 . S
C44 H70 0.930 . S
C45 C40 1.479 . S
C45 C44 1.405 . S
C45 H71 0.931 . S
U46 O47 2.454 . S
U46 O48 2.458 . S
U46 C49 2.984 . S
U46 C50 2.847 . S
U46 C63 2.882 . S
U46 O64 2.441 . S
U46 O65 2.420 . S
U46 O66 2.455 . S
U46 O67 2.449 . S
O47 U46 2.454 . S
O47 C49 1.353 . S
O48 U46 2.458 . S
O48 C49 1.286 . S
C49 U46 2.984 . S
C49 O47 1.353 . S
C49 O48 1.286 . S
C49 C51 1.363 . S
C50 C40 1.465 . S
C50 U46 2.847 . S
C50 O64 1.249 . S
C50 O65 1.202 . S
C51 C49 1.363 . S
C51 C53 1.408 . S
C51 C56 1.342 . S
C52 C53 1.310 . S
C52 C55 1.461 . S
C52 H72 0.932 . S
C53 C51 1.408 . S
C53 C52 1.310 . S
C53 H73 0.930 . S
C54 C55 1.474 . S
C54 C56 1.285 . S
C54 H74 0.929 . S
C55 C52 1.461 . S
C55 C54 1.474 . S
C56 C51 1.342 . S
C56 C54 1.285 . S
C56 H75 0.930 . S
C57 C60 1.424 . S
C57 C62 1.245 . S
C57 C63 1.428 . S
C58 C61 1.260 . S
C58 C62 1.477 . S
C58 H76 0.932 1_554 S
C59 C60 1.384 . S
C59 C61 1.479 . S
C59 H77 0.929 . S
C60 C57 1.424 . S
C60 C59 1.384 . S
C60 H78 0.928 . S
C61 C58 1.260 . S
C61 C59 1.479 . S
C62 C57 1.245 . S
C62 C58 1.477 . S
C62 H79 0.932 . S
C63 U46 2.882 . S
C63 C57 1.428 . S
C63 O66 1.301 . S
C63 O67 1.282 . S
O64 U46 2.441 . S
O64 C50 1.249 . S
O65 U46 2.420 . S
O65 C50 1.202 . S
O66 U46 2.455 . S
O66 C63 1.301 . S
O67 U46 2.449 . S
O67 C63 1.282 . S
H68 C41 0.931 . S
H69 C43 0.929 . S
H70 C44 0.930 . S
H71 C45 0.931 . S
H72 C52 0.932 . S
H73 C53 0.930 . S
H74 C54 0.929 . S
H75 C56 0.930 . S
H76 C58 0.932 1_556 S
H77 C59 0.929 . S
H78 C60 0.928 . S
H79 C62 0.932 . S
C80 C81 1.264 . S
C80 C85 1.479 . S
C80 C90 1.465 . S
C81 C80 1.264 . S
C81 C83 1.339 . S
C81 H108 0.931 . S
C82 C83 1.395 . S
C82 C84 1.320 . S
C83 C81 1.339 . S
C83 C82 1.395 . S
C83 H109 0.929 . S
C84 C82 1.320 . S
C84 C85 1.405 . S
C84 H110 0.930 . S
C85 C80 1.479 . S
C85 C84 1.405 . S
C85 H111 0.931 . S
U86 O87 2.454 . S
U86 O88 2.458 . S
U86 C89 2.984 . S
U86 C90 2.847 . S
U86 C103 2.882 . S
U86 O104 2.441 . S
U86 O105 2.420 . S
U86 O106 2.455 . S
U86 O107 2.449 . S
O87 U86 2.454 . S
O87 C89 1.353 . S
O88 U86 2.458 . S
O88 C89 1.286 . S
C89 U86 2.984 . S
C89 O87 1.353 . S
C89 O88 1.286 . S
C89 C91 1.363 . S
C90 C80 1.465 . S
C90 U86 2.847 . S
C90 O104 1.249 . S
C90 O105 1.202 . S
C91 C89 1.363 . S
C91 C93 1.408 . S
C91 C96 1.342 . S
C92 C93 1.310 . S
C92 C95 1.461 . S
C92 H112 0.932 . S
C93 C91 1.408 . S
C93 C92 1.310 . S
C93 H113 0.930 . S
C94 C95 1.474 . S
C94 C96 1.285 . S
C94 H114 0.929 . S
C95 C92 1.461 . S
C95 C94 1.474 . S
C96 C91 1.342 . S
C96 C94 1.285 . S
C96 H115 0.930 . S
C97 C100 1.424 . S
C97 C102 1.245 . S
C97 C103 1.428 . S
C98 C101 1.260 . S
C98 C102 1.477 . S
C98 H116 0.932 1_554 S
C99 C100 1.384 . S
C99 C101 1.479 . S
C99 H117 0.929 . S
C100 C97 1.424 . S
C100 C99 1.384 . S
C100 H118 0.928 . S
C101 C98 1.260 . S
C101 C99 1.479 . S
C102 C97 1.245 . S
C102 C98 1.477 . S
C102 H119 0.932 . S
C103 U86 2.882 . S
C103 C97 1.428 . S
C103 O106 1.301 . S
C103 O107 1.282 . S
O104 U86 2.441 . S
O104 C90 1.249 . S
O105 U86 2.420 . S
O105 C90 1.202 . S
O106 U86 2.455 . S
O106 C103 1.301 . S
O107 U86 2.449 . S
O107 C103 1.282 . S
H108 C81 0.931 . S
H109 C83 0.929 . S
H110 C84 0.930 . S
H111 C85 0.931 . S
H112 C92 0.932 . S
H113 C93 0.930 . S
H114 C94 0.929 . S
H115 C96 0.930 . S
H116 C98 0.932 1_556 S
H117 C99 0.929 . S
H118 C100 0.928 . S
H119 C102 0.932 . S
C120 C121 1.264 . S
C120 C125 1.479 . S
C120 C130 1.465 . S
C121 C120 1.264 . S
C121 C123 1.339 . S
C121 H148 0.931 . S
C122 C123 1.395 . S
C122 C124 1.320 . S
C123 C121 1.339 . S
C123 C122 1.395 . S
C123 H149 0.929 . S
C124 C122 1.320 . S
C124 C125 1.405 . S
C124 H150 0.930 . S
C125 C120 1.479 . S
C125 C124 1.405 . S
C125 H151 0.931 . S
U126 O127 2.454 . S
U126 O128 2.458 . S
U126 C129 2.984 . S
U126 C130 2.847 . S
U126 C143 2.882 . S
U126 O144 2.441 . S
U126 O145 2.420 . S
U126 O146 2.455 . S
U126 O147 2.449 . S
O127 U126 2.454 . S
O127 C129 1.353 . S
O128 U126 2.458 . S
O128 C129 1.286 . S
C129 U126 2.984 . S
C129 O127 1.353 . S
C129 O128 1.286 . S
C129 C131 1.363 . S
C130 C120 1.465 . S
C130 U126 2.847 . S
C130 O144 1.249 . S
C130 O145 1.202 . S
C131 C129 1.363 . S
C131 C133 1.408 . S
C131 C136 1.342 . S
C132 C133 1.310 . S
C132 C135 1.461 . S
C132 H152 0.932 . S
C133 C131 1.408 . S
C133 C132 1.310 . S
C133 H153 0.930 . S
C134 C135 1.474 . S
C134 C136 1.285 . S
C134 H154 0.929 . S
C135 C132 1.461 . S
C135 C134 1.474 . S
C136 C131 1.342 . S
C136 C134 1.285 . S
C136 H155 0.930 . S
C137 C140 1.424 . S
C137 C142 1.245 . S
C137 C143 1.428 . S
C138 C141 1.260 . S
C138 C142 1.477 1_556 S
C138 H156 0.932 . S
C139 C140 1.384 . S
C139 C141 1.479 1_554 S
C139 H157 0.929 . S
C140 C137 1.424 . S
C140 C139 1.384 . S
C140 H158 0.928 . S
C141 C138 1.260 . S
C141 C139 1.479 1_556 S
C142 C137 1.245 . S
C142 C138 1.477 1_554 S
C142 H159 0.932 . S
C143 U126 2.882 . S
C143 C137 1.428 . S
C143 O146 1.301 . S
C143 O147 1.282 . S
O144 U126 2.441 . S
O144 C130 1.249 . S
O145 U126 2.420 . S
O145 C130 1.202 . S
O146 U126 2.455 . S
O146 C143 1.301 . S
O147 U126 2.449 . S
O147 C143 1.282 . S
H148 C121 0.931 . S
H149 C123 0.929 . S
H150 C124 0.930 . S
H151 C125 0.931 . S
H152 C132 0.932 . S
H153 C133 0.930 . S
H154 C134 0.929 . S
H155 C136 0.930 . S
H156 C138 0.932 . S
H157 C139 0.929 . S
H158 C140 0.928 . S
H159 C142 0.932 . S
C160 C161 1.264 . S
C160 C165 1.479 . S
C160 C170 1.465 . S
C161 C160 1.264 . S
C161 C163 1.339 . S
C161 H188 0.931 . S
C162 C163 1.395 . S
C162 C164 1.320 . S
C163 C161 1.339 . S
C163 C162 1.395 . S
C163 H189 0.929 . S
C164 C162 1.320 . S
C164 C165 1.405 . S
C164 H190 0.930 . S
C165 C160 1.479 . S
C165 C164 1.405 . S
C165 H191 0.931 . S
U166 O167 2.454 . S
U166 O168 2.458 . S
U166 C169 2.984 . S
U166 C170 2.847 1_554 S
U166 C183 2.882 . S
U166 O184 2.441 1_554 S
U166 O185 2.436 . S
U166 O186 2.455 . S
U166 O187 2.449 . S
O167 U166 2.454 . S
O167 C169 1.353 . S
O168 U166 2.458 . S
O168 C169 1.286 . S
C169 U166 2.984 . S
C169 O167 1.353 . S
C169 O168 1.286 . S
C169 C171 1.363 . S
C170 C160 1.465 . S
C170 U166 2.847 1_556 S
C170 O184 1.249 . S
C170 O185 1.186 1_556 S
C171 C169 1.363 . S
C171 C173 1.408 . S
C171 C176 1.342 . S
C172 C173 1.310 . S
C172 C175 1.461 . S
C172 H192 0.932 . S
C173 C171 1.408 . S
C173 C172 1.310 . S
C173 H193 0.930 . S
C174 C175 1.474 . S
C174 C176 1.285 . S
C174 H194 0.929 . S
C175 C172 1.461 . S
C175 C174 1.474 . S
C176 C171 1.342 . S
C176 C174 1.285 . S
C176 H195 0.930 . S
C177 C180 1.424 . S
C177 C182 1.245 . S
C177 C183 1.428 . S
C178 C181 1.260 . S
C178 C182 1.477 . S
C178 H196 0.932 . S
C179 C180 1.384 . S
C179 C181 1.479 . S
C179 H197 0.929 . S
C180 C177 1.424 . S
C180 C179 1.384 . S
C180 H198 0.928 . S
C181 C178 1.260 . S
C181 C179 1.479 . S
C182 C177 1.245 . S
C182 C178 1.477 . S
C182 H199 0.932 . S
C183 U166 2.882 . S
C183 C177 1.428 . S
C183 O186 1.301 . S
C183 O187 1.282 . S
O184 U166 2.441 1_556 S
O184 C170 1.249 . S
O185 U166 2.436 . S
O185 C170 1.186 1_554 S
O186 U166 2.455 . S
O186 C183 1.301 . S
O187 U166 2.449 . S
O187 C183 1.282 . S
H188 C161 0.931 . S
H189 C163 0.929 . S
H190 C164 0.930 . S
H191 C165 0.931 . S
H192 C172 0.932 . S
H193 C173 0.930 . S
H194 C174 0.929 . S
H195 C176 0.930 . S
H196 C178 0.932 . S
H197 C179 0.929 . S
H198 C180 0.928 . S
H199 C182 0.932 . S
C200 C201 1.264 . S
C200 C205 1.479 . S
C200 C210 1.465 . S
C201 C200 1.264 . S
C201 C203 1.339 . S
C201 H228 0.931 . S
C202 C203 1.395 . S
C202 C204 1.320 . S
C203 C201 1.339 . S
C203 C202 1.395 . S
C203 H229 0.929 . S
C204 C202 1.320 . S
C204 C205 1.405 . S
C204 H230 0.930 . S
C205 C200 1.479 . S
C205 C204 1.405 . S
C205 H231 0.931 . S
U206 O207 2.454 . S
U206 O208 2.458 . S
U206 C209 2.984 . S
U206 C210 2.847 1_554 S
U206 C223 2.882 . S
U206 O224 2.441 1_554 S
U206 O225 2.420 1_554 S
U206 O226 2.455 . S
U206 O227 2.449 . S
O207 U206 2.454 . S
O207 C209 1.353 . S
O208 U206 2.458 . S
O208 C209 1.286 . S
C209 U206 2.984 . S
C209 O207 1.353 . S
C209 O208 1.286 . S
C209 C211 1.363 . S
C210 C200 1.465 . S
C210 U206 2.847 1_556 S
C210 O224 1.249 . S
C210 O225 1.202 . S
C211 C209 1.363 . S
C211 C213 1.408 . S
C211 C216 1.342 . S
C212 C213 1.310 . S
C212 C215 1.461 . S
C212 H232 0.932 . S
C213 C211 1.408 . S
C213 C212 1.310 . S
C213 H233 0.930 1_554 S
C214 C215 1.474 . S
C214 C216 1.285 . S
C214 H234 0.929 . S
C215 C212 1.461 . S
C215 C214 1.474 . S
C216 C211 1.342 . S
C216 C214 1.285 . S
C216 H235 0.930 . S
C217 C220 1.424 . S
C217 C222 1.245 . S
C217 C223 1.428 . S
C218 C221 1.260 . S
C218 C222 1.477 . S
C218 H236 0.932 . S
C219 C220 1.384 . S
C219 C221 1.479 . S
C219 H237 0.929 . S
C220 C217 1.424 . S
C220 C219 1.384 . S
C220 H238 0.928 . S
C221 C218 1.260 . S
C221 C219 1.479 . S
C222 C217 1.245 . S
C222 C218 1.477 . S
C222 H239 0.932 . S
C223 U206 2.882 . S
C223 C217 1.428 . S
C223 O226 1.301 . S
C223 O227 1.282 . S
O224 U206 2.441 1_556 S
O224 C210 1.249 . S
O225 U206 2.420 1_556 S
O225 C210 1.202 . S
O226 U206 2.455 . S
O226 C223 1.301 . S
O227 U206 2.449 . S
O227 C223 1.282 . S
H228 C201 0.931 . S
H229 C203 0.929 . S
H230 C204 0.930 . S
H231 C205 0.931 . S
H232 C212 0.932 . S
H233 C213 0.930 1_556 S
H234 C214 0.929 . S
H235 C216 0.930 . S
H236 C218 0.932 . S
H237 C219 0.929 . S
H238 C220 0.928 . S
H239 C222 0.932 . S
C240 C241 1.264 . S
C240 C245 1.479 . S
C240 C250 1.465 . S
C241 C240 1.264 . S
C241 C243 1.339 . S
C241 H268 0.931 . S
C242 C243 1.395 . S
C242 C244 1.320 . S
C243 C241 1.339 . S
C243 C242 1.395 . S
C243 H269 0.929 . S
C244 C242 1.320 . S
C244 C245 1.405 . S
C244 H270 0.930 . S
C245 C240 1.479 . S
C245 C244 1.405 . S
C245 H271 0.931 . S
U246 O247 2.454 1_554 S
U246 O248 2.458 . S
U246 C249 2.984 . S
U246 C250 2.847 1_554 S
U246 C263 2.882 . S
U246 O264 2.441 1_554 S
U246 O265 2.420 1_554 S
U246 O266 2.455 . S
U246 O267 2.449 . S
O247 U246 2.454 1_556 S
O247 C249 1.353 1_556 S
O248 U246 2.458 . S
O248 C249 1.286 . S
C249 U246 2.984 . S
C249 O247 1.353 1_554 S
C249 O248 1.286 . S
C249 C251 1.363 . S
C250 C240 1.465 . S
C250 U246 2.847 1_556 S
C250 O264 1.249 . S
C250 O265 1.202 . S
C251 C249 1.363 . S
C251 C253 1.408 . S
C251 C256 1.342 . S
C252 C253 1.310 . S
C252 C255 1.461 . S
C252 H272 0.932 1_554 S
C253 C251 1.408 . S
C253 C252 1.310 . S
C253 H273 0.930 1_554 S
C254 C255 1.474 . S
C254 C256 1.285 . S
C254 H274 0.929 . S
C255 C252 1.461 . S
C255 C254 1.474 . S
C256 C251 1.342 . S
C256 C254 1.285 . S
C256 H275 0.930 . S
C257 C260 1.424 . S
C257 C262 1.245 . S
C257 C263 1.428 . S
C258 C261 1.260 . S
C258 C262 1.477 . S
C258 H276 0.932 . S
C259 C260 1.384 . S
C259 C261 1.479 . S
C259 H277 0.929 . S
C260 C257 1.424 . S
C260 C259 1.384 . S
C260 H278 0.928 . S
C261 C258 1.260 . S
C261 C259 1.479 . S
C262 C257 1.245 . S
C262 C258 1.477 . S
C262 H279 0.932 . S
C263 U246 2.882 . S
C263 C257 1.428 . S
C263 O266 1.301 . S
C263 O267 1.282 . S
O264 U246 2.441 1_556 S
O264 C250 1.249 . S
O265 U246 2.420 1_556 S
O265 C250 1.202 . S
O266 U246 2.455 . S
O266 C263 1.301 . S
O267 U246 2.449 . S
O267 C263 1.282 . S
H268 C241 0.931 . S
H269 C243 0.929 . S
H270 C244 0.930 . S
H271 C245 0.931 . S
H272 C252 0.932 1_556 S
H273 C253 0.930 1_556 S
H274 C254 0.929 . S
H275 C256 0.930 . S
H276 C258 0.932 . S
H277 C259 0.929 . S
H278 C260 0.928 . S
H279 C262 0.932 . S
C280 C281 1.264 . S
C280 C285 1.479 . S
C280 C290 1.465 . S
C281 C280 1.264 . S
C281 C283 1.339 . S
C281 H308 0.931 . S
C282 C283 1.395 . S
C282 C284 1.320 . S
C283 C281 1.339 . S
C283 C282 1.395 . S
C283 H309 0.929 . S
C284 C282 1.320 . S
C284 C285 1.405 . S
C284 H310 0.930 . S
C285 C280 1.479 . S
C285 C284 1.405 . S
C285 H311 0.931 . S
U286 O287 2.454 . S
U286 O288 2.458 . S
U286 C289 2.984 . S
U286 C290 2.847 1_554 S
U286 C303 2.882 . S
U286 O304 2.441 1_554 S
U286 O305 2.420 1_554 S
U286 O306 2.455 . S
U286 O307 2.449 . S
O287 U286 2.454 . S
O287 C289 1.353 . S
O288 U286 2.458 . S
O288 C289 1.286 . S
C289 U286 2.984 . S
C289 O287 1.353 . S
C289 O288 1.286 . S
C289 C291 1.363 . S
C290 C280 1.465 . S
C290 U286 2.847 1_556 S
C290 O304 1.249 . S
C290 O305 1.202 . S
C291 C289 1.363 . S
C291 C293 1.408 . S
C291 C296 1.342 . S
C292 C293 1.310 . S
C292 C295 1.461 . S
C292 H312 0.932 . S
C293 C291 1.408 . S
C293 C292 1.310 . S
C293 H313 0.930 . S
C294 C295 1.474 . S
C294 C296 1.285 . S
C294 H314 0.929 . S
C295 C292 1.461 . S
C295 C294 1.474 . S
C296 C291 1.342 . S
C296 C294 1.285 . S
C296 H315 0.930 . S
C297 C300 1.424 . S
C297 C302 1.245 . S
C297 C303 1.428 . S
C298 C301 1.260 . S
C298 C302 1.477 . S
C298 H316 0.932 . S
C299 C300 1.384 . S
C299 C301 1.479 . S
C299 H317 0.929 . S
C300 C297 1.424 . S
C300 C299 1.384 . S
C300 H318 0.928 . S
C301 C298 1.260 . S
C301 C299 1.479 . S
C302 C297 1.245 . S
C302 C298 1.477 . S
C302 H319 0.932 . S
C303 U286 2.882 . S
C303 C297 1.428 . S
C303 O306 1.301 . S
C303 O307 1.282 . S
O304 U286 2.441 1_556 S
O304 C290 1.249 . S
O305 U286 2.420 1_556 S
O305 C290 1.202 . S
O306 U286 2.455 . S
O306 C303 1.301 . S
O307 U286 2.449 . S
O307 C303 1.282 . S
H308 C281 0.931 . S
H309 C283 0.929 . S
H310 C284 0.930 . S
H311 C285 0.931 . S
H312 C292 0.932 . S
H313 C293 0.930 . S
H314 C294 0.929 . S
H315 C296 0.930 . S
H316 C298 0.932 . S
H317 C299 0.929 . S
H318 C300 0.928 . S
H319 C302 0.932 . S
Eu320 C329 2.828 . S
Eu320 O331 2.392 . S
Eu320 O333 2.418 1_545 S
Eu320 O338 2.373 1_655 S
Eu320 O341 2.488 . S
Eu320 O342 2.471 . S
Eu320 O343 2.349 1_655 S
Eu321 O330 2.373 1_455 S
Eu321 O334 2.488 . S
Eu321 O335 2.471 . S
Eu321 O336 2.349 . S
Eu321 O339 2.392 1_565 S
Eu321 O340 2.418 1_565 S
Eu321 C350 2.828 . S
C322 O340 1.244 . S
C322 O343 1.265 . S
C323 C324 1.379 1_655 S
C323 C327 1.373 . S
C323 C329 1.505 . S
C324 C323 1.379 1_455 S
C324 C326 1.369 . S
C324 H352 0.930 . S
C325 C327 1.383 . S
C325 C328 1.382 1_655 S
C325 H353 0.930 . S
C326 C324 1.369 . S
C326 C328 1.392 . S
C326 H354 0.930 . S
C327 C323 1.373 . S
C327 C325 1.383 . S
C327 H355 0.931 . S
C328 C325 1.382 1_455 S
C328 C326 1.392 . S
C329 Eu320 2.828 . S
C329 C323 1.505 . S
C329 O341 1.249 . S
C329 O342 1.244 . S
O330 Eu321 2.373 1_655 S
O330 C332 1.258 . S
O331 Eu320 2.392 . S
O331 C332 1.242 1_545 S
C332 O330 1.258 . S
C332 O331 1.242 1_565 S
O333 Eu320 2.418 1_565 S
O333 C337 1.244 . S
O334 Eu321 2.488 . S
O334 C350 1.249 . S
O335 Eu321 2.471 . S
O335 C350 1.244 . S
O336 Eu321 2.349 . S
O336 C337 1.265 1_455 S
C337 O333 1.244 . S
C337 O336 1.265 1_655 S
O338 Eu320 2.373 1_455 S
O338 C351 1.258 . S
O339 Eu321 2.392 1_545 S
O339 C351 1.242 . S
O340 Eu321 2.418 1_545 S
O340 C322 1.244 . S
O341 Eu320 2.488 . S
O341 C329 1.249 . S
O342 Eu320 2.471 . S
O342 C329 1.244 . S
O343 Eu320 2.349 1_455 S
O343 C322 1.265 . S
C344 C345 1.379 . S
C344 C348 1.373 . S
C344 C350 1.505 . S
C345 C344 1.379 . S
C345 C347 1.369 . S
C345 H356 0.930 1_455 S
C346 C348 1.383 . S
C346 C349 1.382 . S
C346 H357 0.930 . S
C347 C345 1.369 . S
C347 C349 1.392 . S
C347 H358 0.930 1_455 S
C348 C344 1.373 . S
C348 C346 1.383 . S
C348 H359 0.931 . S
C349 C346 1.382 . S
C349 C347 1.392 . S
C350 Eu321 2.828 . S
C350 O334 1.249 . S
C350 O335 1.244 . S
C350 C344 1.505 . S
C351 O338 1.258 . S
C351 O339 1.242 . S
H352 C324 0.930 . S
H353 C325 0.930 . S
H354 C326 0.930 . S
H355 C327 0.931 . S
H356 C345 0.930 1_655 S
H357 C346 0.930 . S
H358 C347 0.930 1_655 S
H359 C348 0.931 . S
Eu360 C369 2.828 . S
Eu360 O371 2.392 . S
Eu360 O373 2.418 . S
Eu360 O378 2.373 . S
Eu360 O381 2.488 . S
Eu360 O382 2.471 . S
Eu360 O383 2.349 1_545 S
Eu361 O370 2.373 1_565 S
Eu361 O374 2.488 . S
Eu361 O375 2.471 1_565 S
Eu361 O376 2.349 1_565 S
Eu361 O379 2.392 . S
Eu361 O380 2.418 . S
Eu361 C390 2.828 . S
C362 O380 1.244 . S
C362 O383 1.265 . S
C363 C364 1.379 1_545 S
C363 C367 1.373 . S
C363 C369 1.505 . S
C364 C363 1.379 1_565 S
C364 C366 1.369 . S
C364 H392 0.930 . S
C365 C367 1.383 . S
C365 C368 1.382 . S
C365 H393 0.930 . S
C366 C364 1.369 . S
C366 C368 1.392 1_565 S
C366 H394 0.930 . S
C367 C363 1.373 . S
C367 C365 1.383 . S
C367 H395 0.931 . S
C368 C365 1.382 . S
C368 C366 1.392 1_545 S
C369 Eu360 2.828 . S
C369 C363 1.505 . S
C369 O381 1.249 . S
C369 O382 1.244 . S
O370 Eu361 2.373 1_545 S
O370 C372 1.258 . S
O371 Eu360 2.392 . S
O371 C372 1.242 . S
C372 O370 1.258 . S
C372 O371 1.242 . S
O373 Eu360 2.418 . S
O373 C377 1.244 . S
O374 Eu361 2.488 . S
O374 C390 1.249 . S
O375 Eu361 2.471 1_545 S
O375 C390 1.244 1_545 S
O376 Eu361 2.349 1_545 S
O376 C377 1.265 . S
C377 O373 1.244 . S
C377 O376 1.265 . S
O378 Eu360 2.373 . S
O378 C391 1.258 1_545 S
O379 Eu361 2.392 . S
O379 C391 1.242 . S
O380 Eu361 2.418 . S
O380 C362 1.244 . S
O381 Eu360 2.488 . S
O381 C369 1.249 . S
O382 Eu360 2.471 . S
O382 C369 1.244 . S
O383 Eu360 2.349 1_565 S
O383 C362 1.265 . S
C384 C385 1.379 1_565 S
C384 C388 1.373 . S
C384 C390 1.505 . S
C385 C384 1.379 1_545 S
C385 C387 1.369 . S
C385 H396 0.930 . S
C386 C388 1.383 . S
C386 C389 1.382 1_565 S
C386 H397 0.930 . S
C387 C385 1.369 . S
C387 C389 1.392 . S
C387 H398 0.930 . S
C388 C384 1.373 . S
C388 C386 1.383 . S
C388 H399 0.931 . S
C389 C386 1.382 1_545 S
C389 C387 1.392 . S
C390 Eu361 2.828 . S
C390 O374 1.249 . S
C390 O375 1.244 1_565 S
C390 C384 1.505 . S
C391 O378 1.258 1_565 S
C391 O379 1.242 . S
H392 C364 0.930 . S
H393 C365 0.930 . S
H394 C366 0.930 . S
H395 C367 0.931 . S
H396 C385 0.930 . S
H397 C386 0.930 . S
H398 C387 0.930 . S
H399 C388 0.931 . S
Eu400 C409 2.828 . S
Eu400 O411 2.392 . S
Eu400 O413 2.418 . S
Eu400 O418 2.373 . S
Eu400 O421 2.488 . S
Eu400 O422 2.471 . S
Eu400 O423 2.349 . S
Eu401 O410 2.373 . S
Eu401 O414 2.488 . S
Eu401 O415 2.471 . S
Eu401 O416 2.349 . S
Eu401 O419 2.392 . S
Eu401 O420 2.418 . S
Eu401 C430 2.828 . S
C402 O420 1.244 . S
C402 O423 1.265 . S
C403 C404 1.379 . S
C403 C407 1.373 . S
C403 C409 1.505 . S
C404 C403 1.379 . S
C404 C406 1.369 . S
C404 H432 0.930 . S
C405 C407 1.383 . S
C405 C408 1.382 . S
C405 H433 0.930 . S
C406 C404 1.369 . S
C406 C408 1.392 . S
C406 H434 0.930 . S
C407 C403 1.373 . S
C407 C405 1.383 . S
C407 H435 0.931 . S
C408 C405 1.382 . S
C408 C406 1.392 . S
C409 Eu400 2.828 . S
C409 C403 1.505 . S
C409 O421 1.249 . S
C409 O422 1.244 . S
O410 Eu401 2.373 . S
O410 C412 1.258 . S
O411 Eu400 2.392 . S
O411 C412 1.242 . S
C412 O410 1.258 . S
C412 O411 1.242 . S
O413 Eu400 2.418 . S
O413 C417 1.244 . S
O414 Eu401 2.488 . S
O414 C430 1.249 . S
O415 Eu401 2.471 . S
O415 C430 1.244 . S
O416 Eu401 2.349 . S
O416 C417 1.265 . S
C417 O413 1.244 . S
C417 O416 1.265 . S
O418 Eu400 2.373 . S
O418 C431 1.258 . S
O419 Eu401 2.392 . S
O419 C431 1.242 . S
O420 Eu401 2.418 . S
O420 C402 1.244 . S
O421 Eu400 2.488 . S
O421 C409 1.249 . S
O422 Eu400 2.471 . S
O422 C409 1.244 . S
O423 Eu400 2.349 . S
O423 C402 1.265 . S
C424 C425 1.379 . S
C424 C428 1.373 . S
C424 C430 1.505 . S
C425 C424 1.379 . S
C425 C427 1.369 . S
C425 H436 0.930 . S
C426 C428 1.383 . S
C426 C429 1.382 . S
C426 H437 0.930 . S
C427 C425 1.369 . S
C427 C429 1.392 . S
C427 H438 0.930 . S
C428 C424 1.373 . S
C428 C426 1.383 . S
C428 H439 0.931 . S
C429 C426 1.382 . S
C429 C427 1.392 . S
C430 Eu401 2.828 . S
C430 O414 1.249 . S
C430 O415 1.244 . S
C430 C424 1.505 . S
C431 O418 1.258 . S
C431 O419 1.242 . S
H432 C404 0.930 . S
H433 C405 0.930 . S
H434 C406 0.930 . S
H435 C407 0.931 . S
H436 C425 0.930 . S
H437 C426 0.930 . S
H438 C427 0.930 . S
H439 C428 0.931 . S
Eu440 C449 2.828 . S
Eu440 O451 2.392 . S
Eu440 O453 2.418 1_455 S
Eu440 O458 2.373 . S
Eu440 O461 2.488 . S
Eu440 O462 2.471 . S
Eu440 O463 2.349 . S
Eu441 O450 2.373 . S
Eu441 O454 2.488 . S
Eu441 O455 2.471 . S
Eu441 O456 2.349 . S
Eu441 O459 2.392 1_655 S
Eu441 O460 2.418 1_655 S
Eu441 C470 2.828 . S
C442 O460 1.244 . S
C442 O463 1.265 . S
C443 C444 1.379 . S
C443 C447 1.373 . S
C443 C449 1.505 . S
C444 C443 1.379 . S
C444 C446 1.369 . S
C444 H472 0.930 . S
C445 C447 1.383 . S
C445 C448 1.382 . S
C445 H473 0.930 . S
C446 C444 1.369 . S
C446 C448 1.392 . S
C446 H474 0.930 . S
C447 C443 1.373 . S
C447 C445 1.383 . S
C447 H475 0.931 . S
C448 C445 1.382 . S
C448 C446 1.392 . S
C449 Eu440 2.828 . S
C449 C443 1.505 . S
C449 O461 1.249 . S
C449 O462 1.244 . S
O450 Eu441 2.373 . S
O450 C452 1.246 1_655 S
O451 Eu440 2.392 . S
O451 C452 1.265 . S
C452 O450 1.246 1_455 S
C452 O451 1.265 . S
O453 Eu440 2.418 1_655 S
O453 C457 1.244 . S
O454 Eu441 2.488 . S
O454 C470 1.249 . S
O455 Eu441 2.471 . S
O455 C470 1.244 . S
O456 Eu441 2.349 . S
O456 C457 1.265 . S
C457 O453 1.244 . S
C457 O456 1.265 . S
O458 Eu440 2.373 . S
O458 C471 1.258 . S
O459 Eu441 2.392 1_455 S
O459 C471 1.242 . S
O460 Eu441 2.418 1_455 S
O460 C442 1.244 . S
O461 Eu440 2.488 . S
O461 C449 1.249 . S
O462 Eu440 2.471 . S
O462 C449 1.244 . S
O463 Eu440 2.349 . S
O463 C442 1.265 . S
C464 C465 1.379 . S
C464 C468 1.373 . S
C464 C470 1.505 . S
C465 C464 1.379 . S
C465 C467 1.369 . S
C465 H476 0.930 . S
C466 C468 1.383 . S
C466 C469 1.382 . S
C466 H477 0.930 . S
C467 C465 1.369 . S
C467 C469 1.392 . S
C467 H478 0.930 . S
C468 C464 1.373 . S
C468 C466 1.383 . S
C468 H479 0.931 . S
C469 C466 1.382 . S
C469 C467 1.392 . S
C470 Eu441 2.828 . S
C470 O454 1.249 . S
C470 O455 1.244 . S
C470 C464 1.505 . S
C471 O458 1.258 . S
C471 O459 1.242 . S
H472 C444 0.930 . S
H473 C445 0.930 . S
H474 C446 0.930 . S
H475 C447 0.931 . S
H476 C465 0.930 . S
H477 C466 0.930 . S
H478 C467 0.930 . S
H479 C468 0.931 . S
C480 C481 1.391 . S
C480 C482 1.394 . S
C480 H496 0.931 . S
C481 C480 1.391 . S
C481 C485 1.376 . S
C482 C480 1.394 . S
C482 C483 1.369 . S
C482 C486 1.531 . S
C483 C482 1.369 . S
C483 C484 1.410 . S
C483 C491 1.503 . S
C484 C483 1.410 . S
C484 C485 1.392 . S
C484 C487 1.511 . S
C485 C481 1.376 . S
C485 C484 1.392 . S
C485 H497 0.929 . S
C486 C482 1.531 . S
C486 H498 0.960 . S
C486 H499 0.962 1_545 S
C486 H500 0.948 1_545 S
C487 C484 1.511 . S
C487 H501 0.961 . S
C487 H502 0.961 . S
C487 H503 0.961 . S
C488 C489 1.370 . S
C488 C490 1.363 . S
C488 H504 0.931 . S
C489 C488 1.370 . S
C489 C493 1.408 . S
C490 C488 1.363 . S
C490 C491 1.370 . S
C490 C494 1.524 . S
C491 C483 1.503 . S
C491 C490 1.370 . S
C491 C492 1.403 . S
C492 C491 1.403 . S
C492 C493 1.404 . S
C492 C495 1.539 . S
C493 C489 1.408 . S
C493 C492 1.404 . S
C493 H505 0.930 . S
C494 C490 1.524 . S
C494 H506 0.956 . S
C494 H507 0.961 . S
C494 H508 0.961 . S
C495 C492 1.539 . S
C495 H509 0.958 . S
C495 H510 0.961 . S
C495 H511 0.960 . S
H496 C480 0.931 . S
H497 C485 0.929 . S
H498 C486 0.960 . S
H499 C486 0.962 1_565 S
H500 C486 0.948 1_565 S
H501 C487 0.961 . S
H502 C487 0.961 . S
H503 C487 0.961 . S
H504 C488 0.931 . S
H505 C493 0.930 . S
H506 C494 0.956 . S
H507 C494 0.961 . S
H508 C494 0.961 . S
H509 C495 0.958 . S
H510 C495 0.961 . S
H511 C495 0.960 . S
C512 C513 1.391 . S
C512 C514 1.394 . S
C512 H528 0.931 . S
C513 C512 1.391 . S
C513 C517 1.376 . S
C514 C512 1.394 . S
C514 C515 1.369 . S
C514 C518 1.531 . S
C515 C514 1.369 . S
C515 C516 1.410 . S
C515 C523 1.503 . S
C516 C515 1.410 . S
C516 C517 1.392 . S
C516 C519 1.511 . S
C517 C513 1.376 . S
C517 C516 1.392 . S
C517 H529 0.929 . S
C518 C514 1.531 . S
C518 H530 0.960 . S
C518 H531 0.962 . S
C518 H532 0.960 . S
C519 C516 1.511 . S
C519 H533 0.961 . S
C519 H534 0.961 . S
C519 H535 0.961 . S
C520 C521 1.370 . S
C520 C522 1.363 . S
C520 H536 0.931 . S
C521 C520 1.370 . S
C521 C525 1.408 . S
C522 C520 1.363 . S
C522 C523 1.370 . S
C522 C526 1.524 . S
C523 C515 1.503 . S
C523 C522 1.370 . S
C523 C524 1.403 . S
C524 C523 1.403 . S
C524 C525 1.404 . S
C524 C527 1.539 . S
C525 C521 1.408 . S
C525 C524 1.404 . S
C525 H537 0.930 . S
C526 C522 1.524 . S
C526 H538 0.956 . S
C526 H539 0.961 . S
C526 H540 0.961 . S
C527 C524 1.539 . S
C527 H541 0.958 . S
C527 H542 0.961 . S
C527 H543 0.960 . S
H528 C512 0.931 . S
H529 C517 0.929 . S
H530 C518 0.960 . S
H531 C518 0.962 . S
H532 C518 0.960 . S
H533 C519 0.961 . S
H534 C519 0.961 . S
H535 C519 0.961 . S
H536 C520 0.931 . S
H537 C525 0.930 . S
H538 C526 0.956 . S
H539 C526 0.961 . S
H540 C526 0.961 . S
H541 C527 0.958 . S
H542 C527 0.961 . S
H543 C527 0.960 . S
C544 C545 1.391 . S
C544 C546 1.394 . S
C544 H560 0.931 . S
C545 C544 1.391 . S
C545 C549 1.376 . S
C546 C544 1.394 . S
C546 C547 1.369 . S
C546 C550 1.531 . S
C547 C546 1.369 . S
C547 C548 1.410 . S
C547 C555 1.503 . S
C548 C547 1.410 . S
C548 C549 1.392 . S
C548 C551 1.511 . S
C549 C545 1.376 . S
C549 C548 1.392 . S
C549 H561 0.929 . S
C550 C546 1.531 . S
C550 H562 0.960 . S
C550 H563 0.962 . S
C550 H564 0.960 . S
C551 C548 1.511 . S
C551 H565 0.961 . S
C551 H566 0.961 . S
C551 H567 0.961 . S
C552 C553 1.370 . S
C552 C554 1.363 . S
C552 H568 0.931 . S
C553 C552 1.370 . S
C553 C557 1.408 . S
C554 C552 1.363 . S
C554 C555 1.370 . S
C554 C558 1.524 . S
C555 C547 1.503 . S
C555 C554 1.370 . S
C555 C556 1.403 . S
C556 C555 1.403 . S
C556 C557 1.404 . S
C556 C559 1.539 . S
C557 C553 1.408 . S
C557 C556 1.404 . S
C557 H569 0.930 . S
C558 C554 1.524 . S
C558 H570 0.956 . S
C558 H571 0.961 . S
C558 H572 0.961 . S
C559 C556 1.539 . S
C559 H573 0.958 . S
C559 H574 0.961 . S
C559 H575 0.960 . S
H560 C544 0.931 . S
H561 C549 0.929 . S
H562 C550 0.960 . S
H563 C550 0.962 . S
H564 C550 0.960 . S
H565 C551 0.961 . S
H566 C551 0.961 . S
H567 C551 0.961 . S
H568 C552 0.931 . S
H569 C557 0.930 . S
H570 C558 0.956 . S
H571 C558 0.961 . S
H572 C558 0.961 . S
H573 C559 0.958 . S
H574 C559 0.961 . S
H575 C559 0.960 . S
C576 C577 1.391 . S
C576 C578 1.394 . S
C576 H592 0.931 . S
C577 C576 1.391 . S
C577 C581 1.376 . S
C578 C576 1.394 . S
C578 C579 1.369 . S
C578 C582 1.531 1_455 S
C579 C578 1.369 . S
C579 C580 1.410 . S
C579 C587 1.503 . S
C580 C579 1.410 . S
C580 C581 1.392 . S
C580 C583 1.511 . S
C581 C577 1.376 . S
C581 C580 1.392 . S
C581 H593 0.929 . S
C582 C578 1.531 1_655 S
C582 H594 0.960 . S
C582 H595 0.962 . S
C582 H596 0.960 . S
C583 C580 1.511 . S
C583 H597 0.961 . S
C583 H598 0.961 . S
C583 H599 0.961 . S
C584 C585 1.370 . S
C584 C586 1.363 . S
C584 H600 0.931 . S
C585 C584 1.370 . S
C585 C589 1.408 . S
C586 C584 1.363 . S
C586 C587 1.370 . S
C586 C590 1.524 . S
C587 C579 1.503 . S
C587 C586 1.370 . S
C587 C588 1.403 . S
C588 C587 1.403 . S
C588 C589 1.404 . S
C588 C591 1.539 . S
C589 C585 1.408 . S
C589 C588 1.404 . S
C589 H601 0.930 . S
C590 C586 1.524 . S
C590 H602 0.956 . S
C590 H603 0.961 . S
C590 H604 0.961 . S
C591 C588 1.539 . S
C591 H605 0.958 . S
C591 H606 0.961 . S
C591 H607 0.960 . S
H592 C576 0.931 . S
H593 C581 0.929 . S
H594 C582 0.960 . S
H595 C582 0.962 . S
H596 C582 0.960 . S
H597 C583 0.961 . S
H598 C583 0.961 . S
H599 C583 0.961 . S
H600 C584 0.931 . S
H601 C589 0.930 . S
H602 C590 0.956 . S
H603 C590 0.961 . S
H604 C590 0.961 . S
H605 C591 0.958 . S
H606 C591 0.961 . S
H607 C591 0.960 . S
C608 C609 1.391 . S
C608 C610 1.394 1_554 S
C608 H624 0.931 . S
C609 C608 1.391 . S
C609 C613 1.376 . S
C610 C608 1.394 1_556 S
C610 C611 1.369 . S
C610 C614 1.531 . S
C611 C610 1.369 . S
C611 C612 1.410 1_556 S
C611 C619 1.503 . S
C612 C611 1.410 1_554 S
C612 C613 1.392 . S
C612 C615 1.511 . S
C613 C609 1.376 . S
C613 C612 1.392 . S
C613 H625 0.929 . S
C614 C610 1.531 . S
C614 H626 0.960 . S
C614 H627 0.962 . S
C614 H628 0.960 . S
C615 C612 1.511 . S
C615 H629 0.961 . S
C615 H630 0.961 1_554 S
C615 H631 0.961 1_565 S
C616 C617 1.370 . S
C616 C618 1.363 . S
C616 H632 0.931 . S
C617 C616 1.370 . S
C617 C621 1.408 1_565 S
C618 C616 1.363 . S
C618 C619 1.370 . S
C618 C622 1.524 . S
C619 C611 1.503 . S
C619 C618 1.370 . S
C619 C620 1.403 . S
C620 C619 1.403 . S
C620 C621 1.404 1_565 S
C620 C623 1.539 1_565 S
C621 C617 1.408 1_545 S
C621 C620 1.404 1_545 S
C621 H633 0.930 . S
C622 C618 1.524 . S
C622 H634 0.956 . S
C622 H635 0.961 . S
C622 H636 0.961 . S
C623 C620 1.539 1_545 S
C623 H637 0.958 . S
C623 H638 0.961 . S
C623 H639 0.960 . S
H624 C608 0.931 . S
H625 C613 0.929 . S
H626 C614 0.960 . S
H627 C614 0.962 . S
H628 C614 0.960 . S
H629 C615 0.961 . S
H630 C615 0.961 1_556 S
H631 C615 0.961 1_545 S
H632 C616 0.931 . S
H633 C621 0.930 . S
H634 C622 0.956 . S
H635 C622 0.961 . S
H636 C622 0.961 . S
H637 C623 0.958 . S
H638 C623 0.961 . S
H639 C623 0.960 . S
C640 C641 1.391 . S
C640 C642 1.394 1_554 S
C640 H656 0.931 . S
C641 C640 1.391 . S
C641 C645 1.376 . S
C642 C640 1.394 1_556 S
C642 C643 1.369 . S
C642 C646 1.531 . S
C643 C642 1.369 . S
C643 C644 1.410 . S
C643 C651 1.503 . S
C644 C643 1.410 . S
C644 C645 1.392 1_556 S
C644 C647 1.511 . S
C645 C641 1.376 . S
C645 C644 1.392 1_554 S
C645 H657 0.929 . S
C646 C642 1.531 . S
C646 H658 0.960 . S
C646 H659 0.962 . S
C646 H660 0.960 1_556 S
C647 C644 1.511 . S
C647 H661 0.961 . S
C647 H662 0.961 . S
C647 H663 0.961 . S
C648 C649 1.370 . S
C648 C650 1.363 . S
C648 H664 0.931 . S
C649 C648 1.370 . S
C649 C653 1.408 . S
C650 C648 1.363 . S
C650 C651 1.370 . S
C650 C654 1.524 . S
C651 C643 1.503 . S
C651 C650 1.370 . S
C651 C652 1.403 . S
C652 C651 1.403 . S
C652 C653 1.404 . S
C652 C655 1.539 . S
C653 C649 1.408 . S
C653 C652 1.404 . S
C653 H665 0.930 . S
C654 C650 1.524 . S
C654 H666 0.956 . S
C654 H667 0.961 . S
C654 H668 0.961 . S
C655 C652 1.539 . S
C655 H669 0.958 . S
C655 H670 0.961 . S
C655 H671 0.960 . S
H656 C640 0.931 . S
H657 C645 0.929 . S
H658 C646 0.960 . S
H659 C646 0.962 . S
H660 C646 0.960 1_554 S
H661 C647 0.961 . S
H662 C647 0.961 . S
H663 C647 0.961 . S
H664 C648 0.931 . S
H665 C653 0.930 . S
H666 C654 0.956 . S
H667 C654 0.961 . S
H668 C654 0.961 . S
H669 C655 0.958 . S
H670 C655 0.961 . S
H671 C655 0.960 . S
C672 C673 1.391 . S
C672 C674 1.394 1_554 S
C672 H688 0.931 . S
C673 C672 1.391 . S
C673 C677 1.376 . S
C674 C672 1.394 1_556 S
C674 C675 1.369 . S
C674 C678 1.531 . S
C675 C674 1.369 . S
C675 C676 1.410 . S
C675 C683 1.503 . S
C676 C675 1.410 . S
C676 C677 1.392 1_556 S
C676 C679 1.511 . S
C677 C673 1.376 . S
C677 C676 1.392 1_554 S
C677 H689 0.929 . S
C678 C674 1.531 . S
C678 H690 0.960 . S
C678 H691 0.962 . S
C678 H692 0.960 . S
C679 C676 1.511 . S
C679 H693 0.961 . S
C679 H694 0.961 . S
C679 H695 0.961 . S
C680 C681 1.370 . S
C680 C682 1.363 . S
C680 H696 0.931 . S
C681 C680 1.370 . S
C681 C685 1.408 . S
C682 C680 1.363 . S
C682 C683 1.370 . S
C682 C686 1.524 . S
C683 C675 1.503 . S
C683 C682 1.370 . S
C683 C684 1.403 . S
C684 C683 1.403 . S
C684 C685 1.404 . S
C684 C687 1.539 . S
C685 C681 1.408 . S
C685 C684 1.404 . S
C685 H697 0.930 . S
C686 C682 1.524 . S
C686 H698 0.956 . S
C686 H699 0.961 . S
C686 H700 0.961 . S
C687 C684 1.539 . S
C687 H701 0.958 . S
C687 H702 0.961 . S
C687 H703 0.960 . S
H688 C672 0.931 . S
H689 C677 0.929 . S
H690 C678 0.960 . S
H691 C678 0.962 . S
H692 C678 0.960 . S
H693 C679 0.961 . S
H694 C679 0.961 . S
H695 C679 0.961 . S
H696 C680 0.931 . S
H697 C685 0.930 . S
H698 C686 0.956 . S
H699 C686 0.961 . S
H700 C686 0.961 . S
H701 C687 0.958 . S
H702 C687 0.961 . S
H703 C687 0.960 . S
C704 C705 1.391 . S
C704 C706 1.394 1_554 S
C704 H720 0.931 . S
C705 C704 1.391 . S
C705 C709 1.376 . S
C706 C704 1.394 1_556 S
C706 C707 1.369 . S
C706 C710 1.531 . S
C707 C706 1.369 . S
C707 C708 1.410 1_556 S
C707 C715 1.503 . S
C708 C707 1.410 1_554 S
C708 C709 1.392 . S
C708 C711 1.511 1_655 S
C709 C705 1.376 . S
C709 C708 1.392 . S
C709 H721 0.929 . S
C710 C706 1.531 . S
C710 H722 0.960 . S
C710 H723 0.962 . S
C710 H724 0.960 . S
C711 C708 1.511 1_455 S
C711 H725 0.961 . S
C711 H726 0.961 1_554 S
C711 H727 0.961 1_554 S
C712 C713 1.370 . S
C712 C714 1.363 . S
C712 H728 0.931 . S
C713 C712 1.370 . S
C713 C717 1.400 1_655 S
C714 C712 1.363 . S
C714 C715 1.370 . S
C714 C718 1.524 . S
C715 C707 1.503 . S
C715 C714 1.370 . S
C715 C716 1.403 . S
C716 C715 1.403 . S
C716 C717 1.398 1_655 S
C716 C719 1.539 1_655 S
C717 C713 1.400 1_455 S
C717 C716 1.398 1_455 S
C717 H729 0.944 . S
C718 C714 1.524 . S
C718 H730 0.956 . S
C718 H731 0.961 . S
C718 H732 0.961 . S
C719 C716 1.539 1_455 S
C719 H733 0.958 1_455 S
C719 H734 0.961 . S
C719 H735 0.960 . S
H720 C704 0.931 . S
H721 C709 0.929 . S
H722 C710 0.960 . S
H723 C710 0.962 . S
H724 C710 0.960 . S
H725 C711 0.961 . S
H726 C711 0.961 1_556 S
H727 C711 0.961 1_556 S
H728 C712 0.931 . S
H729 C717 0.944 . S
H730 C718 0.956 . S
H731 C718 0.961 . S
H732 C718 0.961 . S
H733 C719 0.958 1_655 S
H734 C719 0.961 . S
H735 C719 0.960 . S
C736 C737 1.391 . S
C736 C738 1.394 . S
C736 H752 0.931 . S
C737 C736 1.391 . S
C737 C741 1.376 . S
C738 C736 1.394 . S
C738 C739 1.369 . S
C738 C742 1.531 1_455 S
C739 C738 1.369 . S
C739 C740 1.410 . S
C739 C747 1.503 . S
C740 C739 1.410 . S
C740 C741 1.392 . S
C740 C743 1.511 . S
C741 C737 1.376 . S
C741 C740 1.392 . S
C741 H753 0.929 . S
C742 C738 1.531 1_655 S
C742 H754 0.960 . S
C742 H755 0.962 . S
C742 H756 0.960 . S
C743 C740 1.511 . S
C743 H757 0.961 . S
C743 H758 0.961 . S
C743 H759 0.961 . S
C744 C745 1.363 1_455 S
C744 C746 1.363 . S
C744 H760 0.931 . S
C745 C744 1.363 1_655 S
C745 C749 1.401 1_655 S
C746 C744 1.363 . S
C746 C747 1.370 . S
C746 C750 1.524 . S
C747 C739 1.503 . S
C747 C746 1.370 . S
C747 C748 1.403 . S
C748 C747 1.403 . S
C748 C749 1.404 . S
C748 C751 1.539 . S
C749 C745 1.401 1_455 S
C749 C748 1.404 . S
C749 H761 0.921 1_455 S
C750 C746 1.524 . S
C750 H762 0.956 . S
C750 H763 0.961 . S
C750 H764 0.961 . S
C751 C748 1.539 . S
C751 H765 0.958 . S
C751 H766 0.961 . S
C751 H767 0.960 . S
H752 C736 0.931 . S
H753 C741 0.929 . S
H754 C742 0.960 . S
H755 C742 0.962 . S
H756 C742 0.960 . S
H757 C743 0.961 . S
H758 C743 0.961 . S
H759 C743 0.961 . S
H760 C744 0.931 . S
H761 C749 0.921 1_655 S
H762 C750 0.956 . S
H763 C750 0.961 . S
H764 C750 0.961 . S
H765 C751 0.958 . S
H766 C751 0.961 . S
H767 C751 0.960 . S
C768 C769 1.391 . S
C768 C770 1.394 . S
C768 H784 0.931 . S
C769 C768 1.391 . S
C769 C773 1.376 . S
C770 C768 1.394 . S
C770 C771 1.369 . S
C770 C774 1.531 . S
C771 C770 1.369 . S
C771 C772 1.410 . S
C771 C779 1.503 . S
C772 C771 1.410 . S
C772 C773 1.392 . S
C772 C775 1.511 . S
C773 C769 1.376 . S
C773 C772 1.392 . S
C773 H785 0.929 . S
C774 C770 1.531 . S
C774 H786 0.960 1_545 S
C774 H787 0.962 . S
C774 H788 0.960 . S
C775 C772 1.511 . S
C775 H789 0.961 . S
C775 H790 0.961 . S
C775 H791 0.961 . S
C776 C777 1.370 . S
C776 C778 1.363 . S
C776 H792 0.931 . S
C777 C776 1.370 . S
C777 C781 1.408 1_545 S
C778 C776 1.363 . S
C778 C779 1.370 . S
C778 C782 1.524 . S
C779 C771 1.503 . S
C779 C778 1.370 . S
C779 C780 1.403 . S
C780 C779 1.403 . S
C780 C781 1.404 1_545 S
C780 C783 1.539 . S
C781 C777 1.408 1_565 S
C781 C780 1.404 1_565 S
C781 H793 0.930 . S
C782 C778 1.524 . S
C782 H794 0.956 . S
C782 H795 0.961 . S
C782 H796 0.961 . S
C783 C780 1.539 . S
C783 H797 0.958 1_545 S
C783 H798 0.961 . S
C783 H799 0.960 . S
H784 C768 0.931 . S
H785 C773 0.929 . S
H786 C774 0.960 1_565 S
H787 C774 0.962 . S
H788 C774 0.960 . S
H789 C775 0.961 . S
H790 C775 0.961 . S
H791 C775 0.961 . S
H792 C776 0.931 . S
H793 C781 0.930 . S
H794 C782 0.956 . S
H795 C782 0.961 . S
H796 C782 0.961 . S
H797 C783 0.958 1_565 S
H798 C783 0.961 . S
H799 C783 0.960 . S
C800 C801 1.391 . S
C800 C802 1.394 . S
C800 H816 0.931 . S
C801 C800 1.391 . S
C801 C805 1.376 . S
C802 C800 1.394 . S
C802 C803 1.369 . S
C802 C806 1.531 . S
C803 C802 1.369 . S
C803 C804 1.410 . S
C803 C811 1.503 . S
C804 C803 1.410 . S
C804 C805 1.392 . S
C804 C807 1.511 . S
C805 C801 1.376 . S
C805 C804 1.392 . S
C805 H817 0.929 . S
C806 C802 1.531 . S
C806 H818 0.960 . S
C806 H819 0.962 . S
C806 H820 0.960 . S
C807 C804 1.511 . S
C807 H821 0.961 . S
C807 H822 0.961 . S
C807 H823 0.961 . S
C808 C809 1.370 . S
C808 C810 1.363 . S
C808 H824 0.931 . S
C809 C808 1.370 . S
C809 C813 1.408 . S
C810 C808 1.363 . S
C810 C811 1.370 . S
C810 C814 1.524 . S
C811 C803 1.503 . S
C811 C810 1.370 . S
C811 C812 1.403 . S
C812 C811 1.403 . S
C812 C813 1.404 . S
C812 C815 1.539 . S
C813 C809 1.408 . S
C813 C812 1.404 . S
C813 H825 0.930 . S
C814 C810 1.524 . S
C814 H826 0.956 . S
C814 H827 0.961 . S
C814 H828 0.961 . S
C815 C812 1.539 . S
C815 H829 0.958 . S
C815 H830 0.961 . S
C815 H831 0.960 . S
H816 C800 0.931 . S
H817 C805 0.929 . S
H818 C806 0.960 . S
H819 C806 0.962 . S
H820 C806 0.960 . S
H821 C807 0.961 . S
H822 C807 0.961 . S
H823 C807 0.961 . S
H824 C808 0.931 . S
H825 C813 0.930 . S
H826 C814 0.956 . S
H827 C814 0.961 . S
H828 C814 0.961 . S
H829 C815 0.958 . S
H830 C815 0.961 . S
H831 C815 0.960 . S
C832 C833 1.391 . S
C832 C834 1.394 . S
C832 H848 0.931 . S
C833 C832 1.391 . S
C833 C837 1.376 . S
C834 C832 1.394 . S
C834 C835 1.369 . S
C834 C838 1.531 . S
C835 C834 1.369 . S
C835 C836 1.410 . S
C835 C843 1.503 . S
C836 C835 1.410 . S
C836 C837 1.392 . S
C836 C839 1.511 . S
C837 C833 1.376 . S
C837 C836 1.392 . S
C837 H849 0.929 . S
C838 C834 1.531 . S
C838 H850 0.960 . S
C838 H851 0.962 . S
C838 H852 0.960 . S
C839 C836 1.511 . S
C839 H853 0.961 . S
C839 H854 0.961 . S
C839 H855 0.961 . S
C840 C841 1.370 . S
C840 C842 1.363 . S
C840 H856 0.931 . S
C841 C840 1.370 . S
C841 C845 1.408 . S
C842 C840 1.363 . S
C842 C843 1.370 . S
C842 C846 1.524 . S
C843 C835 1.503 . S
C843 C842 1.370 . S
C843 C844 1.403 . S
C844 C843 1.403 . S
C844 C845 1.404 . S
C844 C847 1.539 . S
C845 C841 1.408 . S
C845 C844 1.404 . S
C845 H857 0.930 . S
C846 C842 1.524 . S
C846 H858 0.956 . S
C846 H859 0.961 . S
C846 H860 0.961 . S
C847 C844 1.539 . S
C847 H861 0.958 . S
C847 H862 0.961 . S
C847 H863 0.960 . S
H848 C832 0.931 . S
H849 C837 0.929 . S
H850 C838 0.960 . S
H851 C838 0.962 . S
H852 C838 0.960 . S
H853 C839 0.961 . S
H854 C839 0.961 . S
H855 C839 0.961 . S
H856 C840 0.931 . S
H857 C845 0.930 . S
H858 C846 0.956 . S
H859 C846 0.961 . S
H860 C846 0.961 . S
H861 C847 0.958 . S
H862 C847 0.961 . S
H863 C847 0.960 . S
C864 C865 1.391 . S
C864 C866 1.394 1_554 S
C864 H880 0.931 . S
C865 C864 1.391 . S
C865 C869 1.376 1_554 S
C866 C864 1.394 1_556 S
C866 C867 1.369 . S
C866 C870 1.531 1_656 S
C867 C866 1.369 . S
C867 C868 1.410 . S
C867 C875 1.503 . S
C868 C867 1.410 . S
C868 C869 1.392 . S
C868 C871 1.511 . S
C869 C865 1.376 1_556 S
C869 C868 1.392 . S
C869 H881 0.929 . S
C870 C866 1.531 1_454 S
C870 H882 0.960 1_554 S
C870 H883 0.962 . S
C870 H884 0.960 . S
C871 C868 1.511 . S
C871 H885 0.961 . S
C871 H886 0.961 . S
C871 H887 0.961 . S
C872 C873 1.370 . S
C872 C874 1.363 1_455 S
C872 H888 0.931 . S
C873 C872 1.370 . S
C873 C877 1.408 . S
C874 C872 1.363 1_655 S
C874 C875 1.370 . S
C874 C878 1.524 1_556 S
C875 C867 1.503 . S
C875 C874 1.370 . S
C875 C876 1.403 1_655 S
C876 C875 1.403 1_455 S
C876 C877 1.404 . S
C876 C879 1.539 1_455 S
C877 C873 1.408 . S
C877 C876 1.404 . S
C877 H889 0.930 . S
C878 C874 1.524 1_554 S
C878 H890 0.956 . S
C878 H891 0.961 . S
C878 H892 0.961 . S
C879 C876 1.539 1_655 S
C879 H893 0.958 1_655 S
C879 H894 0.961 . S
C879 H895 0.960 . S
H880 C864 0.931 . S
H881 C869 0.929 . S
H882 C870 0.960 1_556 S
H883 C870 0.962 . S
H884 C870 0.960 . S
H885 C871 0.961 . S
H886 C871 0.961 . S
H887 C871 0.961 . S
H888 C872 0.931 . S
H889 C877 0.930 . S
H890 C878 0.956 . S
H891 C878 0.961 . S
H892 C878 0.961 . S
H893 C879 0.958 1_455 S
H894 C879 0.961 . S
H895 C879 0.960 . S
C896 C897 1.391 . S
C896 C898 1.397 . S
C896 H912 0.931 . S
C897 C896 1.391 . S
C897 C901 1.376 1_554 S
C898 C896 1.397 . S
C898 C899 1.364 1_554 S
C898 C902 1.532 . S
C899 C898 1.364 1_556 S
C899 C900 1.410 . S
C899 C907 1.503 . S
C900 C899 1.410 . S
C900 C901 1.392 . S
C900 C903 1.511 . S
C901 C897 1.376 1_556 S
C901 C900 1.392 . S
C901 H913 0.929 . S
C902 C898 1.532 . S
C902 H914 0.960 1_554 S
C902 H915 0.962 1_554 S
C902 H916 0.960 . S
C903 C900 1.511 . S
C903 H917 0.961 . S
C903 H918 0.961 . S
C903 H919 0.961 1_565 S
C904 C905 1.370 1_565 S
C904 C906 1.363 . S
C904 H920 0.931 . S
C905 C904 1.370 1_545 S
C905 C909 1.408 . S
C906 C904 1.363 . S
C906 C907 1.370 . S
C906 C910 1.524 . S
C907 C899 1.503 . S
C907 C906 1.370 . S
C907 C908 1.403 1_565 S
C908 C907 1.403 1_545 S
C908 C909 1.404 . S
C908 C911 1.539 . S
C909 C905 1.408 . S
C909 C908 1.404 . S
C909 H921 0.930 . S
C910 C906 1.524 . S
C910 H922 0.956 . S
C910 H923 0.961 . S
C910 H924 0.961 . S
C911 C908 1.539 . S
C911 H925 0.958 1_556 S
C911 H926 0.961 . S
C911 H927 0.960 . S
H912 C896 0.931 . S
H913 C901 0.929 . S
H914 C902 0.960 1_556 S
H915 C902 0.962 1_556 S
H916 C902 0.960 . S
H917 C903 0.961 . S
H918 C903 0.961 . S
H919 C903 0.961 1_545 S
H920 C904 0.931 . S
H921 C909 0.930 . S
H922 C910 0.956 . S
H923 C910 0.961 . S
H924 C910 0.961 . S
H925 C911 0.958 1_554 S
H926 C911 0.961 . S
H927 C911 0.960 . S
C928 C929 1.391 . S
C928 C930 1.394 . S
C928 H944 0.931 1_556 S
C929 C928 1.391 . S
C929 C933 1.376 . S
C930 C928 1.394 . S
C930 C931 1.369 . S
C930 C934 1.531 . S
C931 C930 1.369 . S
C931 C932 1.410 . S
C931 C939 1.503 . S
C932 C931 1.410 . S
C932 C933 1.392 . S
C932 C935 1.511 . S
C933 C929 1.376 . S
C933 C932 1.392 . S
C933 H945 0.929 . S
C934 C930 1.531 . S
C934 H946 0.960 . S
C934 H947 0.962 . S
C934 H948 0.960 . S
C935 C932 1.511 . S
C935 H949 0.961 . S
C935 H950 0.961 . S
C935 H951 0.961 . S
C936 C937 1.370 . S
C936 C938 1.363 . S
C936 H952 0.931 . S
C937 C936 1.370 . S
C937 C941 1.408 . S
C938 C936 1.363 . S
C938 C939 1.370 . S
C938 C942 1.524 . S
C939 C931 1.503 . S
C939 C938 1.370 . S
C939 C940 1.403 . S
C940 C939 1.403 . S
C940 C941 1.404 . S
C940 C943 1.539 . S
C941 C937 1.408 . S
C941 C940 1.404 . S
C941 H953 0.930 . S
C942 C938 1.524 . S
C942 H954 0.956 . S
C942 H955 0.961 . S
C942 H956 0.961 . S
C943 C940 1.539 . S
C943 H957 0.958 . S
C943 H958 0.961 . S
C943 H959 0.960 . S
H944 C928 0.931 1_554 S
H945 C933 0.929 . S
H946 C934 0.960 . S
H947 C934 0.962 . S
H948 C934 0.960 . S
H949 C935 0.961 . S
H950 C935 0.961 . S
H951 C935 0.961 . S
H952 C936 0.931 . S
H953 C941 0.930 . S
H954 C942 0.956 . S
H955 C942 0.961 . S
H956 C942 0.961 . S
H957 C943 0.958 . S
H958 C943 0.961 . S
H959 C943 0.960 . S
C960 C961 1.391 . S
C960 C962 1.394 . S
C960 H976 0.931 . S
C961 C960 1.391 . S
C961 C965 1.376 . S
C962 C960 1.394 . S
C962 C963 1.369 . S
C962 C966 1.531 . S
C963 C962 1.369 . S
C963 C964 1.410 . S
C963 C971 1.503 . S
C964 C963 1.410 . S
C964 C965 1.392 . S
C964 C967 1.511 . S
C965 C961 1.376 . S
C965 C964 1.392 . S
C965 H977 0.929 . S
C966 C962 1.531 . S
C966 H978 0.960 . S
C966 H979 0.962 . S
C966 H980 0.960 . S
C967 C964 1.511 . S
C967 H981 0.961 . S
C967 H982 0.961 . S
C967 H983 0.961 . S
C968 C969 1.370 . S
C968 C970 1.363 . S
C968 H984 0.931 . S
C969 C968 1.370 . S
C969 C973 1.408 . S
C970 C968 1.363 . S
C970 C971 1.370 . S
C970 C974 1.524 1_556 S
C971 C963 1.503 . S
C971 C970 1.370 . S
C971 C972 1.403 . S
C972 C971 1.403 . S
C972 C973 1.404 . S
C972 C975 1.539 . S
C973 C969 1.408 . S
C973 C972 1.404 . S
C973 H985 0.930 . S
C974 C970 1.524 1_554 S
C974 H986 0.956 . S
C974 H987 0.961 . S
C974 H988 0.961 . S
C975 C972 1.539 . S
C975 H989 0.958 . S
C975 H990 0.961 . S
C975 H991 0.960 . S
H976 C960 0.931 . S
H977 C965 0.929 . S
H978 C966 0.960 . S
H979 C966 0.962 . S
H980 C966 0.960 . S
H981 C967 0.961 . S
H982 C967 0.961 . S
H983 C967 0.961 . S
H984 C968 0.931 . S
H985 C973 0.930 . S
H986 C974 0.956 . S
H987 C974 0.961 . S
H988 C974 0.961 . S
H989 C975 0.958 . S
H990 C975 0.961 . S
H991 C975 0.960 . S
C992 C993 1.391 . S
C992 C994 1.394 . S
C992 H1008 0.931 . S
C993 C992 1.391 . S
C993 C997 1.376 . S
C994 C992 1.394 . S
C994 C995 1.369 . S
C994 C998 1.531 . S
C995 C994 1.369 . S
C995 C996 1.410 . S
C995 C1003 1.503 . S
C996 C995 1.410 . S
C996 C997 1.392 . S
C996 C999 1.511 1_455 S
C997 C993 1.376 . S
C997 C996 1.392 . S
C997 H1009 0.929 . S
C998 C994 1.531 . S
C998 H1010 0.960 . S
C998 H1011 0.962 . S
C998 H1012 0.960 . S
C999 C996 1.511 1_655 S
C999 H1013 0.961 . S
C999 H1014 0.961 . S
C999 H1015 0.961 . S
C1000 C1001 1.370 . S
C1000 C1002 1.363 . S
C1000 H1016 0.931 . S
C1001 C1000 1.370 . S
C1001 C1005 1.408 . S
C1002 C1000 1.363 . S
C1002 C1003 1.370 . S
C1002 C1006 1.524 . S
C1003 C995 1.503 . S
C1003 C1002 1.370 . S
C1003 C1004 1.403 . S
C1004 C1003 1.403 . S
C1004 C1005 1.404 . S
C1004 C1007 1.539 . S
C1005 C1001 1.408 . S
C1005 C1004 1.404 . S
C1005 H1017 0.930 . S
C1006 C1002 1.524 . S
C1006 H1018 0.956 . S
C1006 H1019 0.961 . S
C1006 H1020 0.961 . S
C1007 C1004 1.539 . S
C1007 H1021 0.958 . S
C1007 H1022 0.961 . S
C1007 H1023 0.960 . S
H1008 C992 0.931 . S
H1009 C997 0.929 . S
H1010 C998 0.960 . S
H1011 C998 0.962 . S
H1012 C998 0.960 . S
H1013 C999 0.961 . S
H1014 C999 0.961 . S
H1015 C999 0.961 . S
H1016 C1000 0.931 . S
H1017 C1005 0.930 . S
H1018 C1006 0.956 . S
H1019 C1006 0.961 . S
H1020 C1006 0.961 . S
H1021 C1007 0.958 . S
H1022 C1007 0.961 . S
H1023 C1007 0.960 . S
C1024 C1025 1.391 . S
C1024 C1026 1.394 . S
C1024 H1040 0.931 . S
C1025 C1024 1.391 . S
C1025 C1029 1.376 . S
C1026 C1024 1.394 . S
C1026 C1027 1.369 . S
C1026 C1030 1.531 . S
C1027 C1026 1.369 . S
C1027 C1028 1.410 . S
C1027 C1035 1.503 . S
C1028 C1027 1.410 . S
C1028 C1029 1.392 . S
C1028 C1031 1.511 . S
C1029 C1025 1.376 . S
C1029 C1028 1.392 . S
C1029 H1041 0.929 . S
C1030 C1026 1.531 . S
C1030 H1042 0.960 . S
C1030 H1043 0.962 . S
C1030 H1044 0.960 . S
C1031 C1028 1.511 . S
C1031 H1045 0.961 . S
C1031 H1046 0.961 . S
C1031 H1047 0.961 . S
C1032 C1033 1.370 . S
C1032 C1034 1.363 . S
C1032 H1048 0.931 . S
C1033 C1032 1.370 . S
C1033 C1037 1.408 . S
C1034 C1032 1.363 . S
C1034 C1035 1.370 . S
C1034 C1038 1.524 . S
C1035 C1027 1.503 . S
C1035 C1034 1.370 . S
C1035 C1036 1.403 . S
C1036 C1035 1.403 . S
C1036 C1037 1.404 . S
C1036 C1039 1.539 . S
C1037 C1033 1.408 . S
C1037 C1036 1.404 . S
C1037 H1049 0.930 . S
C1038 C1034 1.524 . S
C1038 H1050 0.956 . S
C1038 H1051 0.961 . S
C1038 H1052 0.961 . S
C1039 C1036 1.539 . S
C1039 H1053 0.958 . S
C1039 H1054 0.961 1_545 S
C1039 H1055 0.960 . S
H1040 C1024 0.931 . S
H1041 C1029 0.929 . S
H1042 C1030 0.960 . S
H1043 C1030 0.962 . S
H1044 C1030 0.960 . S
H1045 C1031 0.961 . S
H1046 C1031 0.961 . S
H1047 C1031 0.961 . S
H1048 C1032 0.931 . S
H1049 C1037 0.930 . S
H1050 C1038 0.956 . S
H1051 C1038 0.961 . S
H1052 C1038 0.961 . S
H1053 C1039 0.958 . S
H1054 C1039 0.961 1_565 S
H1055 C1039 0.960 . S
C1056 C1057 1.391 . S
C1056 C1058 1.394 . S
C1056 H1072 0.931 . S
C1057 C1056 1.391 . S
C1057 C1061 1.376 . S
C1058 C1056 1.394 . S
C1058 C1059 1.369 . S
C1058 C1062 1.531 . S
C1059 C1058 1.369 . S
C1059 C1060 1.410 . S
C1059 C1067 1.503 . S
C1060 C1059 1.410 . S
C1060 C1061 1.392 . S
C1060 C1063 1.511 . S
C1061 C1057 1.376 . S
C1061 C1060 1.392 . S
C1061 H1073 0.929 . S
C1062 C1058 1.531 . S
C1062 H1074 0.960 . S
C1062 H1075 0.962 . S
C1062 H1076 0.960 . S
C1063 C1060 1.511 . S
C1063 H1077 0.961 . S
C1063 H1078 0.961 . S
C1063 H1079 0.961 . S
C1064 C1065 1.370 . S
C1064 C1066 1.363 . S
C1064 H1080 0.931 . S
C1065 C1064 1.370 . S
C1065 C1069 1.408 . S
C1066 C1064 1.363 . S
C1066 C1067 1.370 . S
C1066 C1070 1.524 . S
C1067 C1059 1.503 . S
C1067 C1066 1.370 . S
C1067 C1068 1.403 . S
C1068 C1067 1.403 . S
C1068 C1069 1.404 . S
C1068 C1071 1.539 . S
C1069 C1065 1.408 . S
C1069 C1068 1.404 . S
C1069 H1081 0.930 . S
C1070 C1066 1.524 . S
C1070 H1082 0.956 . S
C1070 H1083 0.961 . S
C1070 H1084 0.961 . S
C1071 C1068 1.539 . S
C1071 H1085 0.958 . S
C1071 H1086 0.961 . S
C1071 H1087 0.960 . S
H1072 C1056 0.931 . S
H1073 C1061 0.929 . S
H1074 C1062 0.960 . S
H1075 C1062 0.962 . S
H1076 C1062 0.960 . S
H1077 C1063 0.961 . S
H1078 C1063 0.961 . S
H1079 C1063 0.961 . S
H1080 C1064 0.931 . S
H1081 C1069 0.930 . S
H1082 C1070 0.956 . S
H1083 C1070 0.961 . S
H1084 C1070 0.961 . S
H1085 C1071 0.958 . S
H1086 C1071 0.961 . S
H1087 C1071 0.960 . S
C1088 C1089 1.391 . S
C1088 C1090 1.394 . S
C1088 H1104 0.931 . S
C1089 C1088 1.391 . S
C1089 C1093 1.376 . S
C1090 C1088 1.394 . S
C1090 C1091 1.369 . S
C1090 C1094 1.531 . S
C1091 C1090 1.369 . S
C1091 C1092 1.410 . S
C1091 C1099 1.503 . S
C1092 C1091 1.410 . S
C1092 C1093 1.392 . S
C1092 C1095 1.511 . S
C1093 C1089 1.376 . S
C1093 C1092 1.392 . S
C1093 H1105 0.929 . S
C1094 C1090 1.531 . S
C1094 H1106 0.960 . S
C1094 H1107 0.962 . S
C1094 H1108 0.960 . S
C1095 C1092 1.511 . S
C1095 H1109 0.961 . S
C1095 H1110 0.961 . S
C1095 H1111 0.961 . S
C1096 C1097 1.370 . S
C1096 C1098 1.363 . S
C1096 H1112 0.931 . S
C1097 C1096 1.370 . S
C1097 C1101 1.408 . S
C1098 C1096 1.363 . S
C1098 C1099 1.370 . S
C1098 C1102 1.524 . S
C1099 C1091 1.503 . S
C1099 C1098 1.370 . S
C1099 C1100 1.403 . S
C1100 C1099 1.403 . S
C1100 C1101 1.404 . S
C1100 C1103 1.539 . S
C1101 C1097 1.408 . S
C1101 C1100 1.404 . S
C1101 H1113 0.930 . S
C1102 C1098 1.524 . S
C1102 H1114 0.956 . S
C1102 H1115 0.961 . S
C1102 H1116 0.961 . S
C1103 C1100 1.539 . S
C1103 H1117 0.958 . S
C1103 H1118 0.961 . S
C1103 H1119 0.960 . S
H1104 C1088 0.931 . S
H1105 C1093 0.929 . S
H1106 C1094 0.960 . S
H1107 C1094 0.962 . S
H1108 C1094 0.960 . S
H1109 C1095 0.961 . S
H1110 C1095 0.961 . S
H1111 C1095 0.961 . S
H1112 C1096 0.931 . S
H1113 C1101 0.930 . S
H1114 C1102 0.956 . S
H1115 C1102 0.961 . S
H1116 C1102 0.961 . S
H1117 C1103 0.958 . S
H1118 C1103 0.961 . S
H1119 C1103 0.960 . S
C1120 C1121 1.391 . S
C1120 C1122 1.394 . S
C1120 H1136 0.931 . S
C1121 C1120 1.391 . S
C1121 C1125 1.376 . S
C1122 C1120 1.394 . S
C1122 C1123 1.369 . S
C1122 C1126 1.531 . S
C1123 C1122 1.369 . S
C1123 C1124 1.410 . S
C1123 C1131 1.503 . S
C1124 C1123 1.410 . S
C1124 C1125 1.392 . S
C1124 C1127 1.511 1_655 S
C1125 C1121 1.376 . S
C1125 C1124 1.392 . S
C1125 H1137 0.929 . S
C1126 C1122 1.531 . S
C1126 H1138 0.960 . S
C1126 H1139 0.962 . S
C1126 H1140 0.960 . S
C1127 C1124 1.511 1_455 S
C1127 H1141 0.961 . S
C1127 H1142 0.961 . S
C1127 H1143 0.962 . S
C1128 C1129 1.370 . S
C1128 C1130 1.363 . S
C1128 H1144 0.931 1_655 S
C1129 C1128 1.370 . S
C1129 C1133 1.408 . S
C1130 C1128 1.363 . S
C1130 C1131 1.370 . S
C1130 C1134 1.532 . S
C1131 C1123 1.503 . S
C1131 C1130 1.370 . S
C1131 C1132 1.403 . S
C1132 C1131 1.403 . S
C1132 C1133 1.404 . S
C1132 C1135 1.539 . S
C1133 C1129 1.408 . S
C1133 C1132 1.404 . S
C1133 H1145 0.930 . S
C1134 C1130 1.532 . S
C1134 H1146 0.968 . S
C1134 H1147 0.952 1_655 S
C1134 H1148 0.949 1_655 S
C1135 C1132 1.539 . S
C1135 H1149 0.958 . S
C1135 H1150 0.961 . S
C1135 H1151 0.960 . S
H1136 C1120 0.931 . S
H1137 C1125 0.929 . S
H1138 C1126 0.960 . S
H1139 C1126 0.962 . S
H1140 C1126 0.960 . S
H1141 C1127 0.961 . S
H1142 C1127 0.961 . S
H1143 C1127 0.962 . S
H1144 C1128 0.931 1_455 S
H1145 C1133 0.930 . S
H1146 C1134 0.968 . S
H1147 C1134 0.952 1_455 S
H1148 C1134 0.949 1_455 S
H1149 C1135 0.958 . S
H1150 C1135 0.961 . S
H1151 C1135 0.960 . S
C1152 C1153 1.391 . S
C1152 C1154 1.394 . S
C1152 H1168 0.931 . S
C1153 C1152 1.391 . S
C1153 C1157 1.376 . S
C1154 C1152 1.394 . S
C1154 C1155 1.369 . S
C1154 C1158 1.531 . S
C1155 C1154 1.369 . S
C1155 C1156 1.410 . S
C1155 C1163 1.503 . S
C1156 C1155 1.410 . S
C1156 C1157 1.392 . S
C1156 C1159 1.511 . S
C1157 C1153 1.376 . S
C1157 C1156 1.392 . S
C1157 H1169 0.929 . S
C1158 C1154 1.531 . S
C1158 H1170 0.960 . S
C1158 H1171 0.962 . S
C1158 H1172 0.960 . S
C1159 C1156 1.511 . S
C1159 H1173 0.961 . S
C1159 H1174 0.961 . S
C1159 H1175 0.961 . S
C1160 C1161 1.370 . S
C1160 C1162 1.363 . S
C1160 H1176 0.931 . S
C1161 C1160 1.370 . S
C1161 C1165 1.408 . S
C1162 C1160 1.363 . S
C1162 C1163 1.370 . S
C1162 C1166 1.524 . S
C1163 C1155 1.503 . S
C1163 C1162 1.370 . S
C1163 C1164 1.403 . S
C1164 C1163 1.403 . S
C1164 C1165 1.404 . S
C1164 C1167 1.539 1_565 S
C1165 C1161 1.408 . S
C1165 C1164 1.404 . S
C1165 H1177 0.930 1_565 S
C1166 C1162 1.524 . S
C1166 H1178 0.956 . S
C1166 H1179 0.961 . S
C1166 H1180 0.961 . S
C1167 C1164 1.539 1_545 S
C1167 H1181 0.958 . S
C1167 H1182 0.961 . S
C1167 H1183 0.960 . S
H1168 C1152 0.931 . S
H1169 C1157 0.929 . S
H1170 C1158 0.960 . S
H1171 C1158 0.962 . S
H1172 C1158 0.960 . S
H1173 C1159 0.961 . S
H1174 C1159 0.961 . S
H1175 C1159 0.961 . S
H1176 C1160 0.931 . S
H1177 C1165 0.930 1_545 S
H1178 C1166 0.956 . S
H1179 C1166 0.961 . S
H1180 C1166 0.961 . S
H1181 C1167 0.958 . S
H1182 C1167 0.961 . S
H1183 C1167 0.960 . S
C1184 C1185 1.391 . S
C1184 C1186 1.394 . S
C1184 H1200 0.931 . S
C1185 C1184 1.391 . S
C1185 C1189 1.376 . S
C1186 C1184 1.394 . S
C1186 C1187 1.369 . S
C1186 C1190 1.531 . S
C1187 C1186 1.369 . S
C1187 C1188 1.410 . S
C1187 C1195 1.503 . S
C1188 C1187 1.410 . S
C1188 C1189 1.392 . S
C1188 C1191 1.511 . S
C1189 C1185 1.376 . S
C1189 C1188 1.392 . S
C1189 H1201 0.929 . S
C1190 C1186 1.531 . S
C1190 H1202 0.960 . S
C1190 H1203 0.962 . S
C1190 H1204 0.960 . S
C1191 C1188 1.511 . S
C1191 H1205 0.961 . S
C1191 H1206 0.961 . S
C1191 H1207 0.961 . S
C1192 C1193 1.370 . S
C1192 C1194 1.363 . S
C1192 H1208 0.931 . S
C1193 C1192 1.370 . S
C1193 C1197 1.408 . S
C1194 C1192 1.363 . S
C1194 C1195 1.370 . S
C1194 C1198 1.524 . S
C1195 C1187 1.503 . S
C1195 C1194 1.370 . S
C1195 C1196 1.403 . S
C1196 C1195 1.403 . S
C1196 C1197 1.404 . S
C1196 C1199 1.539 . S
C1197 C1193 1.408 . S
C1197 C1196 1.404 . S
C1197 H1209 0.930 . S
C1198 C1194 1.524 . S
C1198 H1210 0.956 . S
C1198 H1211 0.961 . S
C1198 H1212 0.961 . S
C1199 C1196 1.539 . S
C1199 H1213 0.958 . S
C1199 H1214 0.961 . S
C1199 H1215 0.960 . S
H1200 C1184 0.931 . S
H1201 C1189 0.929 . S
H1202 C1190 0.960 . S
H1203 C1190 0.962 . S
H1204 C1190 0.960 . S
H1205 C1191 0.961 . S
H1206 C1191 0.961 . S
H1207 C1191 0.961 . S
H1208 C1192 0.931 . S
H1209 C1197 0.930 . S
H1210 C1198 0.956 . S
H1211 C1198 0.961 . S
H1212 C1198 0.961 . S
H1213 C1199 0.958 . S
H1214 C1199 0.961 . S
H1215 C1199 0.960 . S
C1216 C1217 1.391 . S
C1216 C1218 1.394 . S
C1216 H1232 0.931 . S
C1217 C1216 1.391 . S
C1217 C1221 1.376 . S
C1218 C1216 1.394 . S
C1218 C1219 1.369 . S
C1218 C1222 1.531 . S
C1219 C1218 1.369 . S
C1219 C1220 1.410 . S
C1219 C1227 1.503 . S
C1220 C1219 1.410 . S
C1220 C1221 1.392 . S
C1220 C1223 1.511 . S
C1221 C1217 1.376 . S
C1221 C1220 1.392 . S
C1221 H1233 0.929 . S
C1222 C1218 1.531 . S
C1222 H1234 0.960 . S
C1222 H1235 0.962 . S
C1222 H1236 0.960 . S
C1223 C1220 1.511 . S
C1223 H1237 0.961 . S
C1223 H1238 0.961 . S
C1223 H1239 0.961 . S
C1224 C1225 1.370 . S
C1224 C1226 1.363 . S
C1224 H1240 0.931 . S
C1225 C1224 1.370 . S
C1225 C1229 1.408 . S
C1226 C1224 1.363 . S
C1226 C1227 1.370 . S
C1226 C1230 1.524 . S
C1227 C1219 1.503 . S
C1227 C1226 1.370 . S
C1227 C1228 1.403 . S
C1228 C1227 1.403 . S
C1228 C1229 1.404 . S
C1228 C1231 1.539 . S
C1229 C1225 1.408 . S
C1229 C1228 1.404 . S
C1229 H1241 0.930 . S
C1230 C1226 1.524 . S
C1230 H1242 0.956 . S
C1230 H1243 0.961 . S
C1230 H1244 0.961 . S
C1231 C1228 1.539 . S
C1231 H1245 0.958 . S
C1231 H1246 0.961 . S
C1231 H1247 0.960 . S
H1232 C1216 0.931 . S
H1233 C1221 0.929 . S
H1234 C1222 0.960 . S
H1235 C1222 0.962 . S
H1236 C1222 0.960 . S
H1237 C1223 0.961 . S
H1238 C1223 0.961 . S
H1239 C1223 0.961 . S
H1240 C1224 0.931 . S
H1241 C1229 0.930 . S
H1242 C1230 0.956 . S
H1243 C1230 0.961 . S
H1244 C1230 0.961 . S
H1245 C1231 0.958 . S
H1246 C1231 0.961 . S
H1247 C1231 0.960 . S
C481 C255 2.871 . S
C489 C351 3.112 . S
C521 C377 2.474 . S
C513 C295 2.219 . S
C553 C417 2.464 . S
C545 C175 2.238 . S
C585 C471 2.997 . S
C577 C215 2.789 . S
C617 C332 3.107 . S
C609 C95 2.876 . S
C641 C135 2.232 . S
C649 C362 2.475 . S
C673 C15 2.269 . S
C681 C402 2.460 . S
C705 C55 2.787 . S
C713 C452 2.985 1_655 S
C745 C328 0.429 1_655 S
C737 C221 0.292 . S
C777 C389 0.668 . S
C769 C261 0.638 . S
C809 C429 0.322 . S
C801 C301 0.286 . S
C833 C181 0.365 . S
C841 C448 0.390 . S
C865 C61 0.631 . S
C873 C349 0.366 . S
C905 C368 0.690 . S
C897 C101 0.606 . S
C937 C408 0.336 . S
C929 C141 0.292 . S
C961 C21 0.721 . S
C969 C469 0.332 . S
C993 C202 2.787 . S
C1001 C322 3.116 . S
C1025 C242 3.481 . S
C1033 C372 3.775 . S
C1065 C412 3.443 . S
C1057 C282 3.142 . S
C1097 C442 2.800 . S
C1089 C162 2.517 . S
C1121 C42 2.796 . S
C1129 C337 3.111 . S
C1161 C391 3.774 . S
C1153 C82 3.429 . S
C1193 C431 3.446 . S
C1185 C122 3.173 . S
C1217 C2 2.474 . S
C1225 C457 2.795 . S
