# Generated by pormake.
# Topology wbl, (4,4)-cn, num edge types: 1
# Building blocks:
#     Node 0, Type 0, BuildingBlock: MUDLON_clean_sbu_0, # of connection points: 4
#     Node 1, Type 0, BuildingBlock: MUDLON_clean_sbu_0, # of connection points: 4
#     Node 2, Type 0, BuildingBlock: MUDLON_clean_sbu_0, # of connection points: 4
#     Node 3, Type 0, BuildingBlock: MUDLON_clean_sbu_0, # of connection points: 4
#     Node 4, Type 0, BuildingBlock: MUDLON_clean_sbu_0, # of connection points: 4
#     Node 5, Type 0, BuildingBlock: MUDLON_clean_sbu_0, # of connection points: 4
#     Node 6, Type 0, BuildingBlock: MUDLON_clean_sbu_0, # of connection points: 4
#     Node 7, Type 0, BuildingBlock: MUDLON_clean_sbu_0, # of connection points: 4
#     Node 8, Type 1, BuildingBlock: CEKHIL_clean_sbu_0, # of connection points: 4
#     Node 9, Type 1, BuildingBlock: CEKHIL_clean_sbu_0, # of connection points: 4
#     Node 10, Type 1, BuildingBlock: CEKHIL_clean_sbu_0, # of connection points: 4
#     Node 11, Type 1, BuildingBlock: CEKHIL_clean_sbu_0, # of connection points: 4
#     Node 12, Type 1, BuildingBlock: CEKHIL_clean_sbu_0, # of connection points: 4
#     Node 13, Type 1, BuildingBlock: CEKHIL_clean_sbu_0, # of connection points: 4
#     Node 14, Type 1, BuildingBlock: CEKHIL_clean_sbu_0, # of connection points: 4
#     Node 15, Type 1, BuildingBlock: CEKHIL_clean_sbu_0, # of connection points: 4
#     Edge 16, Type (0, 1), BuildingBlock: MIFKUJ_clean_linker_0, # of connection points: 2
#     Edge 17, Type (0, 1), BuildingBlock: MIFKUJ_clean_linker_0, # of connection points: 2
#     Edge 18, Type (0, 1), BuildingBlock: MIFKUJ_clean_linker_0, # of connection points: 2
#     Edge 19, Type (0, 1), BuildingBlock: MIFKUJ_clean_linker_0, # of connection points: 2
#     Edge 20, Type (0, 1), BuildingBlock: MIFKUJ_clean_linker_0, # of connection points: 2
#     Edge 21, Type (0, 1), BuildingBlock: MIFKUJ_clean_linker_0, # of connection points: 2
#     Edge 22, Type (0, 1), BuildingBlock: MIFKUJ_clean_linker_0, # of connection points: 2
#     Edge 23, Type (0, 1), BuildingBlock: MIFKUJ_clean_linker_0, # of connection points: 2
#     Edge 24, Type (0, 1), BuildingBlock: MIFKUJ_clean_linker_0, # of connection points: 2
#     Edge 25, Type (0, 1), BuildingBlock: MIFKUJ_clean_linker_0, # of connection points: 2
#     Edge 26, Type (0, 1), BuildingBlock: MIFKUJ_clean_linker_0, # of connection points: 2
#     Edge 27, Type (0, 1), BuildingBlock: MIFKUJ_clean_linker_0, # of connection points: 2
#     Edge 28, Type (0, 1), BuildingBlock: MIFKUJ_clean_linker_0, # of connection points: 2
#     Edge 29, Type (0, 1), BuildingBlock: MIFKUJ_clean_linker_0, # of connection points: 2
#     Edge 30, Type (0, 1), BuildingBlock: MIFKUJ_clean_linker_0, # of connection points: 2
#     Edge 31, Type (0, 1), BuildingBlock: MIFKUJ_clean_linker_0, # of connection points: 2
#     Edge 32, Type (0, 1), BuildingBlock: MIFKUJ_clean_linker_0, # of connection points: 2
#     Edge 33, Type (0, 1), BuildingBlock: MIFKUJ_clean_linker_0, # of connection points: 2
#     Edge 34, Type (0, 1), BuildingBlock: MIFKUJ_clean_linker_0, # of connection points: 2
#     Edge 35, Type (0, 1), BuildingBlock: MIFKUJ_clean_linker_0, # of connection points: 2
#     Edge 36, Type (0, 1), BuildingBlock: MIFKUJ_clean_linker_0, # of connection points: 2
#     Edge 37, Type (0, 1), BuildingBlock: MIFKUJ_clean_linker_0, # of connection points: 2
#     Edge 38, Type (0, 1), BuildingBlock: MIFKUJ_clean_linker_0, # of connection points: 2
#     Edge 39, Type (0, 1), BuildingBlock: MIFKUJ_clean_linker_0, # of connection points: 2
#     Edge 40, Type (0, 1), BuildingBlock: MIFKUJ_clean_linker_0, # of connection points: 2
#     Edge 41, Type (0, 1), BuildingBlock: MIFKUJ_clean_linker_0, # of connection points: 2
#     Edge 42, Type (0, 1), BuildingBlock: MIFKUJ_clean_linker_0, # of connection points: 2
#     Edge 43, Type (0, 1), BuildingBlock: MIFKUJ_clean_linker_0, # of connection points: 2
#     Edge 44, Type (0, 1), BuildingBlock: MIFKUJ_clean_linker_0, # of connection points: 2
#     Edge 45, Type (0, 1), BuildingBlock: MIFKUJ_clean_linker_0, # of connection points: 2
#     Edge 46, Type (0, 1), BuildingBlock: MIFKUJ_clean_linker_0, # of connection points: 2
#     Edge 47, Type (0, 1), BuildingBlock: MIFKUJ_clean_linker_0, # of connection points: 2
# Relax obj value: 0.232
# Max RMSD: 0.218
# Mean RMSD: 0.171
data_MOF--net-wbl--node1-MUDLON_clean_sbu_0--node2-CEKHIL_clean_sbu_0--edge1-MIFKUJ_clean_linker_0
_symmetry_space_group_name_H-M    P1
_symmetry_Int_Tables_number       1
_symmetry_cell_setting            triclinic
loop_
_symmetry_equiv_pos_as_xyz
'x, y, z'
_cell_length_a     44.585963
_cell_length_b     44.86045
_cell_length_c     97.551493
_cell_angle_alpha  90.224551
_cell_angle_beta   90.090052
_cell_angle_gamma 89.93587
loop_
_atom_site_label
_atom_site_type_symbol
_atom_site_fract_x
_atom_site_fract_y
_atom_site_fract_z
_atom_type_partial_charge
Mg0 Mg 0.01426 0.03718 0.33711 0.0
C1 C 0.99726 0.98915 0.35733 0.0
O2 O 0.97849 0.00996 0.36138 0.0
C3 C 0.95115 0.04947 0.32856 0.0
O4 O 0.94714 0.03963 0.34108 0.0
C5 C 0.06106 0.02403 0.31592 0.0
O6 O 0.03789 0.01088 0.31018 0.0
O7 O 0.05737 0.03838 0.32705 0.0
O8 O 0.01232 0.99334 0.34646 0.0
O9 O 0.01272 0.0687 0.35398 0.0
C10 C 0.02615 0.06281 0.36514 0.0
O11 O 0.04312 0.03889 0.36582 0.0
O12 O 0.97747 0.04927 0.32357 0.0
Mg13 Mg 0.13424 0.50902 0.59267 0.0
C14 C 0.19614 0.49996 0.60931 0.0
O15 O 0.1984 0.47178 0.60575 0.0
C16 C 0.13395 0.44458 0.58135 0.0
O17 O 0.14926 0.43789 0.59243 0.0
C18 C 0.15715 0.559 0.57677 0.0
O19 O 0.18092 0.54256 0.57926 0.0
O20 O 0.13174 0.55012 0.58106 0.0
O21 O 0.17427 0.51554 0.60504 0.0
O22 O 0.09876 0.50253 0.60765 0.0
C23 C 0.10603 0.48287 0.61641 0.0
O24 O 0.13283 0.47087 0.61561 0.0
O25 O 0.12862 0.47176 0.57863 0.0
Mg26 Mg 0.66632 0.65355 0.8373 0.0
C27 C 0.64243 0.71278 0.84705 0.0
O28 O 0.62021 0.70513 0.83892 0.0
C29 C 0.72937 0.64239 0.82855 0.0
O30 O 0.73377 0.65337 0.84088 0.0
C31 C 0.61766 0.65586 0.81572 0.0
O32 O 0.63947 0.66782 0.80857 0.0
O33 O 0.62304 0.64665 0.82778 0.0
O34 O 0.66651 0.69756 0.84669 0.0
O35 O 0.67194 0.62314 0.8544 0.0
C36 C 0.68627 0.63304 0.86473 0.0
O37 O 0.69558 0.6608 0.86467 0.0
O38 O 0.70296 0.64255 0.82362 0.0
Mg39 Mg 0.54082 0.15275 0.09042 0.0
C40 C 0.57335 0.13473 0.1164 0.0
O41 O 0.5519 0.11473 0.11668 0.0
C42 C 0.52224 0.08908 0.0848 0.0
O43 O 0.51249 0.09208 0.09742 0.0
C44 C 0.58168 0.18857 0.07406 0.0
O45 O 0.59746 0.16495 0.07744 0.0
O46 O 0.55421 0.18962 0.07752 0.0
O47 O 0.57549 0.15175 0.10608 0.0
O48 O 0.50129 0.16042 0.10281 0.0
C49 C 0.47569 0.14879 0.10072 0.0
O50 O 0.46988 0.13675 0.08871 0.0
O51 O 0.53594 0.11076 0.07922 0.0
Mg52 Mg 0.16864 0.51694 0.9273 0.0
C53 C 0.17867 0.57354 0.91012 0.0
O54 O 0.19102 0.58431 0.92132 0.0
C55 C 0.10611 0.53372 0.93617 0.0
O56 O 0.10596 0.54536 0.92384 0.0
C57 C 0.20676 0.54874 0.94699 0.0
O58 O 0.17978 0.55924 0.9495 0.0
O59 O 0.2095 0.52762 0.93835 0.0
O60 O 0.16674 0.54782 0.91032 0.0
O61 O 0.16614 0.4742 0.91666 0.0
C62 C 0.14085 0.46106 0.91663 0.0
O63 O 0.12004 0.47042 0.92512 0.0
O64 O 0.12992 0.52142 0.94055 0.0
Mg65 Mg 0.65151 0.65553 0.17924 0.0
C66 C 0.62597 0.67476 0.15385 0.0
O67 O 0.65041 0.69054 0.15587 0.0
C68 C 0.63052 0.59754 0.1932 0.0
O69 O 0.60622 0.60056 0.1857 0.0
C70 C 0.61254 0.69542 0.19394 0.0
O71 O 0.59665 0.67156 0.19102 0.0
O72 O 0.64011 0.69571 0.19056 0.0
O73 O 0.61884 0.6553 0.16272 0.0
O74 O 0.6939 0.65282 0.1682 0.0
C75 C 0.70007 0.62611 0.16475 0.0
O76 O 0.68298 0.60462 0.16942 0.0
O77 O 0.65081 0.61733 0.19272 0.0
Mg78 Mg 0.50608 0.13418 0.433 0.0
C79 C 0.52355 0.19514 0.42231 0.0
O80 O 0.54388 0.19314 0.43202 0.0
C81 C 0.46774 0.1016 0.45304 0.0
O82 O 0.49363 0.08822 0.45497 0.0
C83 C 0.55105 0.14801 0.4558 0.0
O84 O 0.52818 0.16266 0.46101 0.0
O85 O 0.54755 0.13356 0.44467 0.0
O86 O 0.50311 0.17546 0.4216 0.0
O87 O 0.50828 0.10179 0.41644 0.0
C88 C 0.48431 0.08934 0.41226 0.0
O89 O 0.45926 0.09408 0.419 0.0
O90 O 0.46654 0.12369 0.44494 0.0
Mg91 Mg 0.02258 0.00358 0.6775 0.0
C92 C 0.07293 0.98585 0.6581 0.0
O93 O 0.07708 0.96485 0.66724 0.0
C94 C 0.00634 0.06653 0.68294 0.0
O95 O 0.99566 0.06251 0.67051 0.0
C96 C 0.05966 0.97048 0.69741 0.0
O97 O 0.07184 0.99714 0.69771 0.0
O98 O 0.0362 0.96648 0.69022 0.0
O99 O 0.0534 0.00599 0.66033 0.0
O100 O 0.97949 0.99943 0.66748 0.0
C101 C 0.97896 0.98602 0.65599 0.0
O102 O 0.00177 0.96885 0.65272 0.0
O103 O 0.02046 0.04529 0.68867 0.0
Co104 Co 0.49014 0.7527 0.002 0.0
O105 O 0.4769 0.7156 0.99431 0.0
O106 O 0.45344 0.75874 0.99164 0.0
C107 C 0.49909 0.73555 0.02329 0.0
O108 O 0.49718 0.79511 0.00908 0.0
Co109 Co 0.55625 0.75726 0.01224 0.0
O110 O 0.54205 0.79574 0.01978 0.0
C111 C 0.54362 0.75801 0.98264 0.0
C112 C 0.45435 0.73015 0.98926 0.0
C113 C 0.51741 0.80821 0.01641 0.0
O114 O 0.51535 0.76023 0.98515 0.0
O115 O 0.5633 0.75399 0.99202 0.0
O116 O 0.47203 0.74267 0.01962 0.0
O117 O 0.51883 0.73582 0.01361 0.0
Co118 Co 0.40162 0.99268 0.24836 0.0
O119 O 0.36754 0.01586 0.25377 0.0
O120 O 0.37212 0.96725 0.2571 0.0
C121 C 0.40501 0.01243 0.22721 0.0
O122 O 0.4332 0.9613 0.24341 0.0
Co123 Co 0.46156 0.02439 0.24179 0.0
O124 O 0.47405 0.98455 0.23516 0.0
C125 C 0.44342 0.01707 0.27058 0.0
C126 C 0.35596 0.99133 0.2583 0.0
C127 C 0.45939 0.9609 0.23781 0.0
O128 O 0.42127 0.00074 0.26666 0.0
O129 O 0.46095 0.0303 0.26219 0.0
O130 O 0.38638 0.99084 0.22963 0.0
O131 O 0.419 0.02289 0.2378 0.0
Co132 Co 0.16882 0.88302 0.49594 0.0
O133 O 0.1476 0.84874 0.50245 0.0
O134 O 0.1967 0.85512 0.50419 0.0
C135 C 0.1452 0.88467 0.47552 0.0
O136 O 0.19859 0.91495 0.48995 0.0
Co137 Co 0.13507 0.94159 0.48905 0.0
O138 O 0.17363 0.95339 0.48058 0.0
C139 C 0.14513 0.92484 0.51797 0.0
C140 C 0.17333 0.8385 0.50649 0.0
C141 C 0.198 0.93986 0.48341 0.0
O142 O 0.16256 0.90344 0.51416 0.0
O143 O 0.13038 0.94096 0.50952 0.0
O144 O 0.16812 0.8671 0.4772 0.0
O145 O 0.1364 0.8989 0.4863 0.0
Co146 Co 0.25805 0.68516 0.75361 0.0
O147 O 0.221 0.6982 0.74553 0.0
O148 O 0.26474 0.72098 0.74309 0.0
C149 C 0.23961 0.67744 0.77475 0.0
O150 O 0.30055 0.67903 0.7609 0.0
Co151 Co 0.26523 0.62139 0.76542 0.0
O152 O 0.29916 0.64015 0.77536 0.0
C153 C 0.26862 0.63062 0.73544 0.0
C154 C 0.23606 0.72043 0.7406 0.0
C155 C 0.31211 0.66309 0.77051 0.0
O156 O 0.26632 0.65903 0.73713 0.0
O157 O 0.26741 0.61193 0.74532 0.0
O158 O 0.24721 0.70407 0.77094 0.0
O159 O 0.24082 0.65707 0.76536 0.0
Co160 Co 0.91252 0.18622 0.51561 0.0
O161 O 0.95001 0.19784 0.52365 0.0
O162 O 0.90726 0.22219 0.52654 0.0
C163 C 0.93117 0.17823 0.49443 0.0
O164 O 0.86968 0.18083 0.5084 0.0
Co165 Co 0.90537 0.12234 0.50334 0.0
O166 O 0.86933 0.14018 0.49479 0.0
C167 C 0.90529 0.13134 0.53343 0.0
C168 C 0.93592 0.22029 0.52901 0.0
C169 C 0.85687 0.16365 0.49952 0.0
O170 O 0.90415 0.15985 0.53192 0.0
O171 O 0.90814 0.11311 0.52337 0.0
O172 O 0.92372 0.20501 0.49824 0.0
O173 O 0.92927 0.15808 0.50377 0.0
Co174 Co 0.97483 0.40053 0.76655 0.0
O175 O 0.96788 0.44047 0.7729 0.0
O176 O 0.93942 0.40165 0.77801 0.0
C177 C 0.98274 0.41216 0.74445 0.0
O178 O 0.97436 0.35654 0.76114 0.0
Co179 Co 0.03761 0.38361 0.75498 0.0
O180 O 0.01714 0.34623 0.7497 0.0
C181 C 0.0298 0.39022 0.78476 0.0
C182 C 0.94426 0.43019 0.77901 0.0
C183 C 0.99126 0.339 0.75407 0.0
O184 O 0.00125 0.39261 0.78303 0.0
O185 O 0.04837 0.38875 0.77479 0.0
O186 O 0.95561 0.40982 0.74913 0.0
O187 O 0.00388 0.41068 0.75352 0.0
Co188 Co 0.76402 0.48127 0.01316 0.0
O189 O 0.72679 0.46816 0.02096 0.0
O190 O 0.76999 0.44409 0.02279 0.0
C191 C 0.74563 0.49227 0.99226 0.0
O192 O 0.8065 0.48731 0.00584 0.0
Co193 Co 0.77159 0.54681 0.00343 0.0
O194 O 0.80522 0.52891 0.99303 0.0
C195 C 0.77531 0.53312 0.03296 0.0
C196 C 0.74136 0.44503 0.02535 0.0
C197 C 0.81792 0.50485 0.99682 0.0
O198 O 0.77334 0.50501 0.03033 0.0
O199 O 0.77341 0.55326 0.02373 0.0
O200 O 0.75229 0.46492 0.99535 0.0
O201 O 0.74734 0.5112 0.00224 0.0
Co202 Co 0.66551 0.27406 0.27277 0.0
O203 O 0.64217 0.3058 0.26516 0.0
O204 O 0.69153 0.30194 0.26336 0.0
C205 C 0.64311 0.2749 0.29346 0.0
O206 O 0.69699 0.24462 0.27977 0.0
Co207 Co 0.63425 0.21556 0.282 0.0
O208 O 0.67328 0.20789 0.29103 0.0
C209 C 0.64518 0.22626 0.25253 0.0
C210 C 0.66714 0.31685 0.26068 0.0
C211 C 0.6972 0.22131 0.28747 0.0
O212 O 0.66 0.25008 0.25542 0.0
O213 O 0.63171 0.21059 0.26158 0.0
O214 O 0.66474 0.29336 0.29079 0.0
O215 O 0.63434 0.25851 0.28333 0.0
H216 H 0.11466 0.03287 0.32885 0.0
H217 H 0.16484 0.02384 0.31976 0.0
H218 H 0.12651 0.99724 0.28095 0.0
H219 H 0.07613 0.00506 0.2902 0.0
H220 H 0.17059 0.96158 0.28676 0.0
H221 H 0.15818 0.06801 0.28652 0.0
H222 H 0.14709 0.11745 0.29645 0.0
H223 H 0.21975 0.10714 0.325 0.0
H224 H 0.23103 0.05746 0.31534 0.0
H225 H 0.31346 0.03364 0.2549 0.0
H226 H 0.26358 0.03577 0.26483 0.0
H227 H 0.27961 0.95225 0.28545 0.0
H228 H 0.32966 0.94946 0.27497 0.0
H229 H 0.24715 0.04147 0.2896 0.0
H230 H 0.21165 0.91784 0.29142 0.0
H231 H 0.22046 0.87077 0.27888 0.0
H232 H 0.24021 0.91981 0.24228 0.0
H233 H 0.23116 0.96713 0.25456 0.0
C234 C 0.11691 0.02524 0.31836 0.0
C235 C 0.09146 0.01994 0.31019 0.0
C236 C 0.14564 0.02008 0.31317 0.0
C237 C 0.14953 0.01024 0.2996 0.0
C238 C 0.1241 0.00478 0.29145 0.0
C239 C 0.09533 0.00945 0.29672 0.0
C240 C 0.18008 0.00619 0.29381 0.0
C241 C 0.18736 0.97904 0.28739 0.0
C242 C 0.20192 0.02901 0.2945 0.0
C243 C 0.19525 0.05891 0.3003 0.0
C244 C 0.17166 0.07621 0.29498 0.0
C245 C 0.16536 0.10428 0.30055 0.0
C246 C 0.18266 0.11539 0.31137 0.0
C247 C 0.20634 0.09849 0.31662 0.0
C248 C 0.21272 0.07038 0.3111 0.0
C249 C 0.30639 0.0156 0.26149 0.0
C250 C 0.32549 0.99142 0.2642 0.0
C251 C 0.27783 0.01689 0.2672 0.0
C252 C 0.26773 0.99422 0.27591 0.0
C253 C 0.28671 0.96984 0.27861 0.0
C254 C 0.31531 0.9683 0.27268 0.0
C255 C 0.23763 0.99703 0.28233 0.0
C256 C 0.23048 0.02391 0.289 0.0
C257 C 0.21569 0.9743 0.28147 0.0
C258 C 0.2211 0.94601 0.27397 0.0
C259 C 0.21783 0.91856 0.28069 0.0
C260 C 0.22286 0.89184 0.27363 0.0
C261 C 0.23101 0.8923 0.25981 0.0
C262 C 0.23403 0.91949 0.253 0.0
C263 C 0.229 0.94626 0.26002 0.0
H264 H 0.2349 0.8716 0.25436 0.0
H265 H 0.17774 0.13713 0.31567 0.0
H266 H 0.20914 0.58826 0.57119 0.0
H267 H 0.21539 0.6354 0.55912 0.0
H268 H 0.11961 0.64168 0.55363 0.0
H269 H 0.11305 0.59441 0.56583 0.0
H270 H 0.15402 0.6522 0.52948 0.0
H271 H 0.15122 0.68335 0.57715 0.0
H272 H 0.16817 0.68198 0.60122 0.0
H273 H 0.25697 0.70699 0.58879 0.0
H274 H 0.24062 0.70813 0.56462 0.0
H275 H 0.12782 0.79977 0.51116 0.0
H276 H 0.13 0.75176 0.5226 0.0
H277 H 0.22513 0.76256 0.52899 0.0
H278 H 0.22309 0.81127 0.51754 0.0
H279 H 0.19713 0.74195 0.55195 0.0
H280 H 0.2019 0.7145 0.50522 0.0
H281 H 0.18849 0.71404 0.4807 0.0
H282 H 0.10119 0.6799 0.49045 0.0
H283 H 0.1139 0.68058 0.51506 0.0
C284 C 0.18934 0.59962 0.56742 0.0
C285 C 0.16055 0.5876 0.56946 0.0
C286 C 0.193 0.62661 0.56057 0.0
C287 C 0.16796 0.64203 0.55556 0.0
C288 C 0.13919 0.63004 0.55745 0.0
C289 C 0.13547 0.60313 0.56445 0.0
C290 C 0.17185 0.67055 0.5482 0.0
C291 C 0.16308 0.67196 0.53442 0.0
C292 C 0.18504 0.6958 0.55451 0.0
C293 C 0.19476 0.69552 0.56906 0.0
C294 C 0.17441 0.68834 0.57954 0.0
C295 C 0.1839 0.68765 0.5932 0.0
C296 C 0.21365 0.6943 0.59653 0.0
C297 C 0.23394 0.7018 0.5862 0.0
C298 C 0.22457 0.7025 0.57252 0.0
C299 C 0.14929 0.79201 0.51495 0.0
C300 C 0.17533 0.80928 0.51339 0.0
C301 C 0.1505 0.76445 0.52145 0.0
C302 C 0.17778 0.75338 0.52647 0.0
C303 C 0.20386 0.77066 0.52511 0.0
C304 C 0.20268 0.79839 0.51855 0.0
C305 C 0.17847 0.7239 0.5333 0.0
C306 C 0.18822 0.7222 0.54696 0.0
C307 C 0.16667 0.69817 0.52681 0.0
C308 C 0.15878 0.69784 0.51201 0.0
C309 C 0.17974 0.70715 0.50215 0.0
C310 C 0.17228 0.7068 0.48823 0.0
C311 C 0.14399 0.69701 0.48402 0.0
C312 C 0.1231 0.68751 0.49373 0.0
C313 C 0.13043 0.68784 0.50767 0.0
H314 H 0.13826 0.69674 0.47323 0.0
H315 H 0.22097 0.69372 0.60711 0.0
H316 H 0.5982 0.67036 0.78995 0.0
H317 H 0.54629 0.67419 0.78196 0.0
H318 H 0.51485 0.64761 0.8219 0.0
H319 H 0.56652 0.64293 0.82982 0.0
H320 H 0.48388 0.62035 0.8029 0.0
H321 H 0.51433 0.72168 0.81112 0.0
H322 H 0.5465 0.76599 0.80857 0.0
H323 H 0.52841 0.76731 0.76532 0.0
H324 H 0.49644 0.72274 0.7676 0.0
H325 H 0.33291 0.65719 0.79646 0.0
H326 H 0.38494 0.66054 0.80421 0.0
H327 H 0.41231 0.68569 0.76344 0.0
H328 H 0.35987 0.68361 0.7558 0.0
H329 H 0.44565 0.71393 0.78222 0.0
H330 H 0.41531 0.6118 0.77435 0.0
H331 H 0.38201 0.56846 0.77742 0.0
H332 H 0.39946 0.56959 0.82072 0.0
H333 H 0.43265 0.61312 0.81791 0.0
C334 C 0.58022 0.66514 0.797 0.0
C335 C 0.58648 0.65638 0.81053 0.0
C336 C 0.55056 0.66754 0.79244 0.0
C337 C 0.52665 0.66168 0.8014 0.0
C338 C 0.53292 0.65231 0.81481 0.0
C339 C 0.5625 0.64963 0.81933 0.0
C340 C 0.49505 0.66513 0.79686 0.0
C341 C 0.47549 0.64095 0.79852 0.0
C342 C 0.48418 0.69179 0.79088 0.0
C343 C 0.50324 0.7187 0.78951 0.0
C344 C 0.51739 0.73129 0.80105 0.0
C345 C 0.53556 0.75647 0.79966 0.0
C346 C 0.53956 0.76941 0.78678 0.0
C347 C 0.52533 0.75724 0.77529 0.0
C348 C 0.50716 0.73203 0.77662 0.0
C349 C 0.35001 0.66388 0.78922 0.0
C350 C 0.34258 0.6697 0.7755 0.0
C351 C 0.37971 0.6657 0.79363 0.0
C352 C 0.40263 0.67245 0.78429 0.0
C353 C 0.395 0.68019 0.77078 0.0
C354 C 0.3651 0.679 0.76643 0.0
C355 C 0.43455 0.66924 0.78838 0.0
C356 C 0.45413 0.69337 0.78658 0.0
C357 C 0.4455 0.64256 0.79429 0.0
C358 C 0.42633 0.61579 0.79593 0.0
C359 C 0.412 0.60282 0.78452 0.0
C360 C 0.39314 0.57824 0.78622 0.0
C361 C 0.3886 0.5663 0.79926 0.0
C362 C 0.40301 0.57885 0.81063 0.0
C363 C 0.4219 0.60343 0.80899 0.0
H364 H 0.37396 0.54729 0.80056 0.0
H365 H 0.55364 0.7889 0.78572 0.0
H366 H 0.54014 0.07407 0.05876 0.0
H367 H 0.53078 0.02717 0.04655 0.0
H368 H 0.48123 0.99425 0.08128 0.0
H369 H 0.4904 0.04087 0.0935 0.0
H370 H 0.52078 0.9541 0.07276 0.0
H371 H 0.4445 0.01288 0.05254 0.0
H372 H 0.4222 0.0564 0.04101 0.0
H373 H 0.47762 0.04064 0.00576 0.0
H374 H 0.50061 0.99724 0.01716 0.0
H375 H 0.46408 0.83901 0.01906 0.0
H376 H 0.45685 0.88791 0.03013 0.0
H377 H 0.5524 0.89549 0.03606 0.0
H378 H 0.55979 0.8472 0.02525 0.0
H379 H 0.47933 0.9463 0.02561 0.0
H380 H 0.5654 0.91759 0.06842 0.0
H381 H 0.58421 0.87306 0.08047 0.0
H382 H 0.50157 0.82741 0.07209 0.0
H383 H 0.48205 0.87183 0.06021 0.0
C384 C 0.52716 0.05689 0.06377 0.0
C385 C 0.51631 0.0611 0.07717 0.0
C386 C 0.52166 0.03018 0.05675 0.0
C387 C 0.50515 0.00728 0.06298 0.0
C388 C 0.49405 0.01159 0.07628 0.0
C389 C 0.49945 0.03825 0.08328 0.0
C390 C 0.50097 0.97818 0.05595 0.0
C391 C 0.51154 0.95242 0.06249 0.0
C392 C 0.4882 0.97584 0.04268 0.0
C393 C 0.47446 0.00192 0.03576 0.0
C394 C 0.45213 0.01883 0.04237 0.0
C395 C 0.43932 0.04345 0.03585 0.0
C396 C 0.44853 0.05132 0.02267 0.0
C397 C 0.47053 0.03453 0.01598 0.0
C398 C 0.48343 0.00989 0.02246 0.0
C399 C 0.48352 0.85134 0.02257 0.0
C400 C 0.51245 0.83899 0.02148 0.0
C401 C 0.47936 0.87922 0.02887 0.0
C402 C 0.50408 0.89497 0.03413 0.0
C403 C 0.533 0.88342 0.0323 0.0
C404 C 0.53714 0.85574 0.02612 0.0
C405 C 0.50019 0.92266 0.04226 0.0
C406 C 0.48818 0.94806 0.03595 0.0
C407 C 0.51106 0.92464 0.05588 0.0
C408 C 0.52234 0.89803 0.06334 0.0
C409 C 0.55115 0.89814 0.06924 0.0
C410 C 0.56195 0.87289 0.07602 0.0
C411 C 0.54412 0.84739 0.07702 0.0
C412 C 0.51539 0.84714 0.07128 0.0
C413 C 0.50445 0.87235 0.06451 0.0
H414 H 0.55256 0.82785 0.08225 0.0
H415 H 0.43859 0.07039 0.01764 0.0
H416 H 0.20756 0.60224 0.96025 0.0
H417 H 0.25114 0.63256 0.96608 0.0
H418 H 0.30982 0.5634 0.95103 0.0
H419 H 0.26611 0.53285 0.9449 0.0
H420 H 0.32647 0.59097 0.97736 0.0
H421 H 0.30046 0.6166 0.9311 0.0
H422 H 0.26541 0.6313 0.91275 0.0
H423 H 0.24631 0.71309 0.93403 0.0
H424 H 0.28081 0.6986 0.95266 0.0
H425 H 0.45777 0.6753 0.97761 0.0
H426 H 0.41665 0.6449 0.96884 0.0
H427 H 0.35479 0.71714 0.97634 0.0
H428 H 0.39628 0.74814 0.98484 0.0
H429 H 0.34011 0.68715 0.95312 0.0
H430 H 0.36301 0.66167 -0.00035 0.0
H431 H 0.39552 0.64704 0.01896 0.0
H432 H 0.41815 0.56555 0.99816 0.0
H433 H 0.38609 0.57991 0.97862 0.0
C434 C 0.22969 0.59322 0.95831 0.0
C435 C 0.23337 0.56513 0.95205 0.0
C436 C 0.25456 0.61068 0.96159 0.0
C437 C 0.28358 0.60032 0.95883 0.0
C438 C 0.28751 0.57177 0.95318 0.0
C439 C 0.26256 0.55437 0.9497 0.0
C440 C 0.30965 0.61983 0.96156 0.0
C441 C 0.32981 0.61175 0.97191 0.0
C442 C 0.31333 0.6473 0.95468 0.0
C443 C 0.29303 0.65638 0.94335 0.0
C444 C 0.28861 0.63762 0.93193 0.0
C445 C 0.26886 0.64592 0.92147 0.0
C446 C 0.25359 0.67308 0.92224 0.0
C447 C 0.25813 0.69204 0.93345 0.0
C448 C 0.27779 0.6838 0.94396 0.0
C449 C 0.43549 0.68492 0.9772 0.0
C450 C 0.43014 0.71397 0.98206 0.0
C451 C 0.41199 0.66746 0.97223 0.0
C452 C 0.38253 0.67847 0.97226 0.0
C453 C 0.37734 0.70814 0.97632 0.0
C454 C 0.40102 0.72582 0.98116 0.0
C455 C 0.35713 0.6583 0.96894 0.0
C456 C 0.33697 0.66629 0.95851 0.0
C457 C 0.35324 0.6308 0.97584 0.0
C458 C 0.37239 0.62201 0.98761 0.0
C459 C 0.37509 0.64073 0.99915 0.0
C460 C 0.39341 0.63247 0.01014 0.0
C461 C 0.40895 0.60542 0.00977 0.0
C462 C 0.40614 0.58653 0.99842 0.0
C463 C 0.38788 0.5947 0.98739 0.0
H464 H 0.42312 0.59906 0.0183 0.0
H465 H 0.2383 0.67945 0.91413 0.0
H466 H 0.55318 0.70176 0.19961 0.0
H467 H 0.52714 0.74588 0.20804 0.0
H468 H 0.61108 0.7933 0.21032 0.0
H469 H 0.6376 0.74893 0.20177 0.0
H470 H 0.57385 0.80238 0.23333 0.0
H471 H 0.56752 0.80635 0.18451 0.0
H472 H 0.55707 0.78679 0.16137 0.0
H473 H 0.46417 0.77601 0.17173 0.0
H474 H 0.47421 0.79485 0.1951 0.0
H475 H 0.51894 0.9504 0.23408 0.0
H476 H 0.54343 0.90361 0.22803 0.0
H477 H 0.4578 0.85903 0.22777 0.0
H478 H 0.43287 0.90609 0.23401 0.0
H479 H 0.49462 0.84753 0.2042 0.0
H480 H 0.50136 0.84483 0.25309 0.0
H481 H 0.51264 0.86435 0.27618 0.0
H482 H 0.60543 0.87375 0.26533 0.0
H483 H 0.59463 0.85469 0.24209 0.0
C484 C 0.56627 0.72145 0.20197 0.0
C485 C 0.59751 0.72186 0.19995 0.0
C486 C 0.55126 0.7467 0.20676 0.0
C487 C 0.56713 0.77292 0.20966 0.0
C488 C 0.59845 0.77324 0.2081 0.0
C489 C 0.61354 0.74794 0.2032 0.0
C490 C 0.55068 0.80011 0.21398 0.0
C491 C 0.5568 0.8125 0.2269 0.0
C492 C 0.52792 0.8128 0.2057 0.0
C493 C 0.52169 0.8017 0.19162 0.0
C494 C 0.5449 0.79955 0.18191 0.0
C495 C 0.53905 0.78863 0.16873 0.0
C496 C 0.50998 0.78013 0.16507 0.0
C497 C 0.48669 0.78257 0.17459 0.0
C498 C 0.49246 0.79335 0.1878 0.0
C499 C 0.5052 0.93069 0.23277 0.0
C500 C 0.47389 0.932 0.23451 0.0
C501 C 0.51931 0.90392 0.22937 0.0
C502 C 0.50246 0.87787 0.22752 0.0
C503 C 0.47118 0.87895 0.22919 0.0
C504 C 0.45701 0.90577 0.2328 0.0
C505 C 0.51779 0.84981 0.22355 0.0
C506 C 0.51153 0.8373 0.21067 0.0
C507 C 0.54051 0.8371 0.23183 0.0
C508 C 0.54712 0.8486 0.2458 0.0
C509 C 0.52412 0.85133 0.25558 0.0
C510 C 0.53044 0.86225 0.26871 0.0
C511 C 0.55972 0.87036 0.27221 0.0
C512 C 0.58276 0.86749 0.2626 0.0
C513 C 0.57655 0.85661 0.24945 0.0
H514 H 0.56457 0.8788 0.28239 0.0
H515 H 0.5055 0.77171 0.15486 0.0
H516 H 0.46243 0.05661 0.47169 0.0
H517 H 0.41687 0.02977 0.47801 0.0
H518 H 0.36451 0.08804 0.45225 0.0
H519 H 0.40986 0.11544 0.44614 0.0
H520 H 0.33478 0.0758 0.47515 0.0
H521 H 0.38752 0.01888 0.44095 0.0
H522 H 0.4313 0.99298 0.43106 0.0
H523 H 0.43365 0.93355 0.46545 0.0
H524 H 0.39009 0.95937 0.47564 0.0
H525 H 0.2063 0.98693 0.46612 0.0
H526 H 0.25261 0.01409 0.46172 0.0
H527 H 0.30091 0.9542 0.4883 0.0
H528 H 0.25467 0.92641 0.49257 0.0
H529 H 0.33321 0.96694 0.46586 0.0
H530 H 0.27843 0.02359 0.49953 0.0
H531 H 0.23418 0.04972 0.50883 0.0
H532 H 0.23512 0.10996 0.47473 0.0
H533 H 0.27916 0.08393 0.46513 0.0
C534 C 0.44117 0.06399 0.46752 0.0
C535 C 0.43982 0.08801 0.45832 0.0
C536 C 0.41515 0.0485 0.47108 0.0
C537 C 0.38736 0.05646 0.46536 0.0
C538 C 0.38573 0.08139 0.45674 0.0
C539 C 0.4117 0.09705 0.45325 0.0
C540 C 0.36022 0.03811 0.46789 0.0
C541 C 0.33435 0.05206 0.47299 0.0
C542 C 0.35978 0.007 0.4653 0.0
C543 C 0.38573 0.99122 0.45912 0.0
C544 C 0.39749 0.0004 0.44644 0.0
C545 C 0.42225 0.98572 0.44078 0.0
C546 C 0.43529 0.96168 0.44764 0.0
C547 C 0.42354 0.9522 0.46016 0.0
C548 C 0.3988 0.96683 0.46587 0.0
C549 C 0.22677 0.97937 0.47099 0.0
C550 C 0.22667 0.95463 0.47982 0.0
C551 C 0.25324 0.99503 0.4685 0.0
C552 C 0.28011 0.98661 0.47492 0.0
C553 C 0.28039 0.96123 0.48331 0.0
C554 C 0.25392 0.94536 0.48573 0.0
C555 C 0.30773 0.00465 0.47308 0.0
C556 C 0.33368 0.99065 0.46809 0.0
C557 C 0.30819 0.03574 0.47571 0.0
C558 C 0.28195 0.05167 0.48156 0.0
C559 C 0.2691 0.04231 0.49398 0.0
C560 C 0.24407 0.05711 0.49931 0.0
C561 C 0.23181 0.08145 0.49236 0.0
C562 C 0.24462 0.09109 0.4801 0.0
C563 C 0.26964 0.07635 0.47471 0.0
H564 H 0.21242 0.09286 0.4965 0.0
H565 H 0.45447 0.95036 0.44324 0.0
H566 H 0.04391 0.91146 0.69648 0.0
H567 H 0.07426 0.8688 0.70363 0.0
H568 H 0.14303 0.92845 0.71837 0.0
H569 H 0.11297 0.97119 0.7112 0.0
H570 H 0.16588 0.88458 0.702 0.0
H571 H 0.09937 0.8914 0.74069 0.0
H572 H 0.05022 0.89395 0.7522 0.0
H573 H 0.02642 0.80871 0.73525 0.0
H574 H 0.07529 0.80584 0.72348 0.0
H575 H 0.25508 0.77793 0.73776 0.0
H576 H 0.22546 0.82038 0.72976 0.0
H577 H 0.15223 0.7612 0.71981 0.0
H578 H 0.18129 0.71899 0.72835 0.0
H579 H 0.13154 0.80529 0.73356 0.0
H580 H 0.19726 0.79765 0.69482 0.0
H581 H 0.24575 0.7948 0.68276 0.0
H582 H 0.27038 0.88057 0.69887 0.0
H583 H 0.22219 0.88377 0.71118 0.0
C584 C 0.06528 0.91553 0.70143 0.0
C585 C 0.07602 0.94474 0.70326 0.0
C586 C 0.08261 0.89111 0.7055 0.0
C587 C 0.1109 0.89547 0.71153 0.0
C588 C 0.12131 0.9246 0.71369 0.0
C589 C 0.104 0.94901 0.70965 0.0
C590 C 0.13015 0.86968 0.71512 0.0
C591 C 0.15858 0.86738 0.70904 0.0
C592 C 0.12023 0.8469 0.72399 0.0
C593 C 0.09088 0.84854 0.7311 0.0
C594 C 0.08356 0.87331 0.73933 0.0
C595 C 0.05577 0.87479 0.74592 0.0
C596 C 0.03518 0.85154 0.74443 0.0
C597 C 0.04237 0.82672 0.73638 0.0
C598 C 0.07012 0.82514 0.72976 0.0
C599 C 0.23289 0.77395 0.73362 0.0
C600 C 0.22044 0.74521 0.7337 0.0
C601 C 0.21596 0.79823 0.72901 0.0
C602 C 0.18658 0.79405 0.7241 0.0
C603 C 0.17473 0.76507 0.72362 0.0
C604 C 0.19141 0.74093 0.72844 0.0
C605 C 0.16739 0.81993 0.72038 0.0
C606 C 0.13893 0.82233 0.72647 0.0
C607 C 0.17722 0.84268 0.71143 0.0
C608 C 0.20622 0.84081 0.70403 0.0
C609 C 0.21311 0.8158 0.69588 0.0
C610 C 0.24053 0.81414 0.68898 0.0
C611 C 0.26117 0.83745 0.69008 0.0
C612 C 0.25439 0.86251 0.69804 0.0
C613 C 0.22702 0.86427 0.70497 0.0
H614 H 0.28238 0.83613 0.68473 0.0
H615 H 0.01368 0.85273 0.74953 0.0
H616 H 0.72598 0.61071 0.80451 0.0
H617 H 0.76226 0.57429 0.79588 0.0
H618 H 0.82264 0.59663 0.82893 0.0
H619 H 0.78649 0.63286 0.8377 0.0
H620 H 0.82004 0.57559 0.78727 0.0
H621 H 0.85327 0.53192 0.84106 0.0
H622 H 0.83141 0.52864 0.86423 0.0
H623 H 0.74277 0.52871 0.84696 0.0
H624 H 0.76409 0.53148 0.82369 0.0
H625 H 0.95077 0.48988 0.78285 0.0
H626 H 0.91352 0.52518 0.79132 0.0
H627 H 0.8519 0.45296 0.79866 0.0
H628 H 0.88935 0.4172 0.7902 0.0
H629 H 0.85084 0.49547 0.81936 0.0
H630 H 0.84334 0.49212 0.77053 0.0
H631 H 0.86238 0.49344 0.74682 0.0
H632 H 0.89337 0.58308 0.75303 0.0
H633 H 0.8749 0.58213 0.77686 0.0
C634 C 0.74719 0.60826 0.80982 0.0
C635 C 0.75319 0.62447 0.82189 0.0
C636 C 0.76788 0.58741 0.80487 0.0
C637 C 0.79484 0.58234 0.81194 0.0
C638 C 0.8017 0.59981 0.82349 0.0
C639 C 0.78105 0.62065 0.82843 0.0
C640 C 0.81517 0.55788 0.80763 0.0
C641 C 0.8268 0.55811 0.79429 0.0
C642 C 0.82337 0.53464 0.8167 0.0
C643 C 0.81031 0.53221 0.83064 0.0
C644 C 0.82913 0.53107 0.8422 0.0
C645 C 0.81682 0.52932 0.85535 0.0
C646 C 0.78572 0.52857 0.85707 0.0
C647 C 0.76685 0.5294 0.84562 0.0
C648 C 0.77904 0.53108 0.83245 0.0
C649 C 0.92944 0.48138 0.7864 0.0
C650 C 0.92289 0.45075 0.78574 0.0
C651 C 0.90814 0.50163 0.7912 0.0
C652 C 0.87979 0.49173 0.79539 0.0
C653 C 0.87363 0.46103 0.7954 0.0
C654 C 0.89502 0.44066 0.79058 0.0
C655 C 0.85635 0.51371 0.79915 0.0
C656 C 0.84407 0.51297 0.81236 0.0
C657 C 0.84709 0.53617 0.78989 0.0
C658 C 0.85795 0.53696 0.77551 0.0
C659 C 0.8544 0.51204 0.76687 0.0
C660 C 0.86506 0.51273 0.75341 0.0
C661 C 0.87913 0.53831 0.74843 0.0
C662 C 0.88249 0.56328 0.7569 0.0
C663 C 0.8719 0.56268 0.77038 0.0
H664 H 0.88738 0.5388 0.73801 0.0
H665 H 0.77624 0.5273 0.86726 0.0
H666 H 0.55702 0.24235 0.06667 0.0
H667 H 0.58366 0.28658 0.05846 0.0
H668 H 0.66719 0.23807 0.05959 0.0
H669 H 0.64092 0.19396 0.06777 0.0
H670 H 0.67165 0.29233 0.07219 0.0
H671 H 0.63467 0.25277 0.02954 0.0
H672 H 0.59618 0.23419 0.01348 0.0
H673 H 0.55037 0.31833 0.01556 0.0
H674 H 0.58839 0.33729 0.0318 0.0
H675 H 0.76453 0.39181 0.03418 0.0
H676 H 0.73663 0.349 0.04304 0.0
H677 H 0.65419 0.39902 0.04015 0.0
H678 H 0.68178 0.44168 0.03122 0.0
H679 H 0.64823 0.34475 0.02879 0.0
H680 H 0.68542 0.38491 0.071 0.0
H681 H 0.72358 0.40375 0.08716 0.0
H682 H 0.76847 0.31903 0.08617 0.0
H683 H 0.7308 0.29981 0.06983 0.0
C684 C 0.581 0.24102 0.06502 0.0
C685 C 0.59683 0.21463 0.06789 0.0
C686 C 0.59618 0.26629 0.06034 0.0
C687 C 0.62741 0.26558 0.05843 0.0
C688 C 0.64312 0.23913 0.06105 0.0
C689 C 0.628 0.21388 0.06567 0.0
C690 C 0.64397 0.29256 0.05407 0.0
C691 C 0.66679 0.30361 0.06262 0.0
C692 C 0.63708 0.30767 0.04176 0.0
C693 C 0.6142 0.29633 0.032 0.0
C694 C 0.61624 0.26722 0.02667 0.0
C695 C 0.59454 0.25664 0.01752 0.0
C696 C 0.57079 0.27504 0.01353 0.0
C697 C 0.56875 0.30409 0.01867 0.0
C698 C 0.59038 0.31477 0.02785 0.0
C699 C 0.74052 0.39379 0.0356 0.0
C700 C 0.72536 0.4201 0.03199 0.0
C701 C 0.72461 0.36933 0.04067 0.0
C702 C 0.69332 0.37085 0.04227 0.0
C703 C 0.67829 0.39733 0.03895 0.0
C704 C 0.69414 0.42174 0.0339 0.0
C705 C 0.67603 0.34449 0.04689 0.0
C706 C 0.65306 0.33355 0.03838 0.0
C707 C 0.68274 0.32953 0.05926 0.0
C708 C 0.70545 0.34102 0.06908 0.0
C709 C 0.70358 0.37037 0.07413 0.0
C710 C 0.72509 0.38111 0.08334 0.0
C711 C 0.74848 0.36263 0.08766 0.0
C712 C 0.75036 0.33334 0.0828 0.0
C713 C 0.72892 0.32251 0.07357 0.0
H714 H 0.76511 0.37097 0.09479 0.0
H715 H 0.55402 0.26681 0.00644 0.0
H716 H 0.89194 0.04822 0.33525 0.0
H717 H 0.85149 0.0778 0.32538 0.0
H718 H 0.913 0.1149 0.29595 0.0
H719 H 0.95389 0.0853 0.30585 0.0
H720 H 0.87965 0.15804 0.30908 0.0
H721 H 0.8606 0.06748 0.28504 0.0
H722 H 0.85309 0.01337 0.28221 0.0
H723 H 0.77558 0.01734 0.30822 0.0
H724 H 0.78287 0.07142 0.31137 0.0
H725 H 0.75324 0.23136 0.27666 0.0
H726 H 0.79927 0.20324 0.28142 0.0
H727 H 0.75245 0.15207 0.312 0.0
H728 H 0.70658 0.17963 0.30726 0.0
H729 H 0.7816 0.11637 0.29453 0.0
H730 H 0.80413 0.20537 0.32065 0.0
H731 H 0.812 0.2593 0.32405 0.0
H732 H 0.883 0.25807 0.29436 0.0
H733 H 0.87527 0.20417 0.29066 0.0
C734 C 0.89685 0.06232 0.32655 0.0
C735 C 0.92614 0.06443 0.32134 0.0
C736 C 0.87365 0.07918 0.32089 0.0
C737 C 0.87921 0.09846 0.30989 0.0
C738 C 0.90826 0.10012 0.30443 0.0
C739 C 0.93152 0.08306 0.31004 0.0
C740 C 0.85481 0.11793 0.30471 0.0
C741 C 0.85839 0.14898 0.3056 0.0
C742 C 0.82697 0.10606 0.30041 0.0
C743 C 0.82241 0.07351 0.29851 0.0
C744 C 0.84208 0.05679 0.29024 0.0
C745 C 0.83784 0.02612 0.28856 0.0
C746 C 0.81391 0.01192 0.29505 0.0
C747 C 0.79412 0.02837 0.3032 0.0
C748 C 0.79827 0.05905 0.30492 0.0
C749 C 0.7529 0.21445 0.28455 0.0
C750 C 0.72615 0.20759 0.29149 0.0
C751 C 0.77922 0.19838 0.28725 0.0
C752 C 0.77924 0.17542 0.29702 0.0
C753 C 0.75288 0.16945 0.30432 0.0
C754 C 0.72667 0.18534 0.30161 0.0
C755 C 0.8061 0.15648 0.29929 0.0
C756 C 0.80298 0.12548 0.29781 0.0
C757 C 0.8343 0.16842 0.30307 0.0
C758 C 0.83886 0.20083 0.30525 0.0
C759 C 0.82122 0.21666 0.31475 0.0
C760 C 0.8257 0.2472 0.31675 0.0
C761 C 0.84792 0.26212 0.30939 0.0
C762 C 0.86576 0.2465 0.30003 0.0
C763 C 0.86134 0.21595 0.29798 0.0
H764 H 0.85136 0.28577 0.31096 0.0
H765 H 0.81066 0.98817 0.29374 0.0
H766 H 0.08694 0.45196 0.56371 0.0
H767 H 0.05307 0.41354 0.55504 0.0
H768 H 0.10774 0.3456 0.57375 0.0
H769 H 0.1416 0.38403 0.58278 0.0
H770 H 0.08507 0.3338 0.54536 0.0
H771 H 0.05311 0.36462 0.59049 0.0
H772 H 0.03926 0.40274 0.60761 0.0
H773 H 0.96431 0.42918 0.58278 0.0
H774 H 0.97844 0.39203 0.56521 0.0
H775 H 0.98849 0.21279 0.54247 0.0
H776 H 0.021 0.25128 0.55203 0.0
H777 H 0.95515 0.31831 0.542 0.0
H778 H 0.92187 0.27941 0.53276 0.0
H779 H 0.98307 0.33205 0.56574 0.0
H780 H 0.01386 0.30486 0.52057 0.0
H781 H 0.02816 0.27074 0.5018 0.0
H782 H 0.10404 0.24071 0.52515 0.0
H783 H 0.08992 0.27435 0.54415 0.0
C784 C 0.09218 0.42884 0.56579 0.0
C785 C 0.11693 0.42106 0.57402 0.0
C786 C 0.07267 0.40694 0.56087 0.0
C787 C 0.07776 0.37687 0.56391 0.0
C788 C 0.10344 0.36878 0.57135 0.0
C789 C 0.12275 0.39073 0.57649 0.0
C790 C 0.05531 0.35411 0.55998 0.0
C791 C 0.06292 0.33309 0.54993 0.0
C792 C 0.02611 0.35399 0.56568 0.0
C793 C 0.01707 0.37574 0.57644 0.0
C794 C 0.03386 0.37876 0.58859 0.0
C795 C 0.02595 0.40019 0.59839 0.0
C796 C 0.0009 0.41833 0.59629 0.0
C797 C 0.98373 0.41511 0.58438 0.0
C798 C 0.99174 0.39393 0.57448 0.0
C799 C 0.98068 0.23567 0.5425 0.0
C800 C 0.95281 0.24318 0.53673 0.0
C801 C 0.99935 0.25767 0.54792 0.0
C802 C 0.99091 0.28779 0.54739 0.0
C803 C 0.96223 0.29523 0.54242 0.0
C804 C 0.94323 0.27302 0.53716 0.0
C805 C 0.01291 0.31133 0.55118 0.0
C806 C 0.00522 0.33262 0.56117 0.0
C807 C 0.04197 0.31205 0.54527 0.0
C808 C 0.05067 0.29193 0.53383 0.0
C809 C 0.03347 0.29082 0.52174 0.0
C810 C 0.04156 0.27159 0.51106 0.0
C811 C 0.06695 0.25352 0.5123 0.0
C812 C 0.08436 0.2547 0.52421 0.0
C813 C 0.07634 0.27386 0.53494 0.0
H814 H 0.07318 0.23864 0.50401 0.0
H815 H 0.99478 0.43485 0.60391 0.0
H816 H 0.60368 0.12582 0.44581 0.0
H817 H 0.65389 0.13222 0.4552 0.0
H818 H 0.61769 0.18259 0.48912 0.0
H819 H 0.5671 0.17682 0.47958 0.0
H820 H 0.66753 0.20882 0.47925 0.0
H821 H 0.6411 0.11108 0.4938 0.0
H822 H 0.62191 0.05981 0.49133 0.0
H823 H 0.69223 0.03946 0.46274 0.0
H824 H 0.7116 0.09074 0.4649 0.0
H825 H 0.81299 0.1952 0.51316 0.0
H826 H 0.75932 0.19685 0.50742 0.0
H827 H 0.7766 0.14646 0.47051 0.0
H828 H 0.82971 0.14442 0.4762 0.0
H829 H 0.73371 0.12099 0.48559 0.0
H830 H 0.75732 0.2207 0.4699 0.0
H831 H 0.77588 0.27217 0.47257 0.0
H832 H 0.7107 0.28858 0.50408 0.0
H833 H 0.692 0.23706 0.50172 0.0
C834 C 0.60626 0.1381 0.45532 0.0
C835 C 0.5813 0.15064 0.46199 0.0
C836 C 0.63504 0.1417 0.4607 0.0
C837 C 0.63955 0.15754 0.47297 0.0
C838 C 0.61473 0.17021 0.47966 0.0
C839 C 0.58583 0.16675 0.47423 0.0
C840 C 0.67032 0.16086 0.47864 0.0
C841 C 0.68188 0.1896 0.48088 0.0
C842 C 0.6891 0.13583 0.48069 0.0
C843 C 0.67769 0.10484 0.47946 0.0
C844 C 0.65237 0.09573 0.48693 0.0
C845 C 0.64147 0.06666 0.48559 0.0
C846 C 0.65582 0.04641 0.47687 0.0
C847 C 0.68114 0.05517 0.46949 0.0
C848 C 0.69211 0.08423 0.47079 0.0
C849 C 0.80537 0.18503 0.50369 0.0
C850 C 0.82552 0.16938 0.49521 0.0
C851 C 0.77471 0.18596 0.50043 0.0
C852 C 0.76392 0.17155 0.48858 0.0
C853 C 0.78435 0.15743 0.47977 0.0
C854 C 0.81475 0.15633 0.48304 0.0
C855 C 0.73131 0.16896 0.4857 0.0
C856 C 0.71932 0.14023 0.48409 0.0
C857 C 0.71222 0.194 0.48433 0.0
C858 C 0.72351 0.22492 0.48575 0.0
C859 C 0.74713 0.23519 0.47749 0.0
C860 C 0.75764 0.2644 0.47893 0.0
C861 C 0.74455 0.2836 0.48852 0.0
C862 C 0.72086 0.27366 0.49667 0.0
C863 C 0.71029 0.24447 0.49528 0.0
H864 H 0.7527 0.3062 0.48961 0.0
H865 H 0.64734 0.02391 0.47584 0.0
H866 H 0.02473 0.08222 0.70875 0.0
H867 H 0.01269 0.12784 0.72135 0.0
H868 H 0.96128 0.15965 0.68685 0.0
H869 H 0.97368 0.11432 0.67409 0.0
H870 H 0.9946 0.203 0.69685 0.0
H871 H 0.92599 0.13372 0.71538 0.0
H872 H 0.90878 0.0865 0.72551 0.0
H873 H 0.96341 0.10252 0.76106 0.0
H874 H 0.98133 0.14966 0.75105 0.0
H875 H 0.94529 0.32569 0.7369 0.0
H876 H 0.93719 0.27744 0.72542 0.0
H877 H 0.00621 0.23796 0.75053 0.0
H878 H 0.01481 0.28621 0.7617 0.0
H879 H 0.95462 0.19923 0.74428 0.0
H880 H 0.02777 0.26568 0.72282 0.0
H881 H 0.04253 0.31341 0.71235 0.0
H882 H 0.9746 0.30255 0.68149 0.0
H883 H 0.95904 0.25499 0.69196 0.0
C884 C 0.01092 0.09894 0.70383 0.0
C885 C 0.00011 0.09459 0.69043 0.0
C886 C 0.00386 0.12492 0.71108 0.0
C887 C 0.98563 0.14694 0.70513 0.0
C888 C 0.97525 0.1429 0.69167 0.0
C889 C 0.98237 0.11696 0.68439 0.0
C890 C 0.9781 0.17446 0.71289 0.0
C891 C 0.98526 0.20215 0.7071 0.0
C892 C 0.96593 0.17344 0.72629 0.0
C893 C 0.95519 0.14514 0.73241 0.0
C894 C 0.93452 0.12708 0.72531 0.0
C895 C 0.92461 0.10034 0.73104 0.0
C896 C 0.93504 0.09149 0.74391 0.0
C897 C 0.95536 0.1094 0.75109 0.0
C898 C 0.96538 0.13616 0.7454 0.0
C899 C 0.95781 0.30635 0.7403 0.0
C900 C 0.98046 0.30931 0.7502 0.0
C901 C 0.95331 0.27895 0.73371 0.0
C902 C 0.97124 0.25429 0.73711 0.0
C903 C 0.99207 0.25671 0.74784 0.0
C904 C 0.99696 0.28418 0.75421 0.0
C905 C 0.97171 0.2274 0.72831 0.0
C906 C 0.96335 0.19993 0.73392 0.0
C907 C 0.98235 0.22862 0.71467 0.0
C908 C 0.99197 0.257 0.70828 0.0
C909 C 0.01579 0.27361 0.71388 0.0
C910 C 0.02432 0.30062 0.70794 0.0
C911 C 0.00945 0.31106 0.69629 0.0
C912 C 0.98605 0.29448 0.69054 0.0
C913 C 0.97735 0.26751 0.69648 0.0
H914 H 0.01611 0.33195 0.69169 0.0
H915 H 0.92733 0.07078 0.74833 0.0
H916 H 0.09787 0.50727 0.96113 0.0
H917 H 0.05042 0.49903 0.97305 0.0
H918 H 0.00324 0.54546 0.94091 0.0
H919 H 0.05056 0.55419 0.92903 0.0
H920 H 0.98198 0.56091 0.96541 0.0
H921 H 0.00555 0.46984 0.94181 0.0
H922 H 0.03718 0.42678 0.93557 0.0
H923 H 0.03698 0.39755 0.97744 0.0
H924 H 0.00574 0.44077 0.98397 0.0
H925 H 0.83569 0.51628 0.97104 0.0
H926 H 0.88676 0.5151 0.96206 0.0
H927 H 0.91861 0.47909 0.00032 0.0
H928 H 0.86696 0.4794 0.00928 0.0
H929 H 0.94952 0.45732 0.97531 0.0
H930 H 0.92281 0.54985 0.99804 0.0
H931 H 0.88816 0.59165 0.00254 0.0
H932 H 0.89197 0.61677 0.96014 0.0
H933 H 0.92644 0.57493 0.95537 0.0
C934 C 0.07744 0.51601 0.95666 0.0
C935 C 0.07796 0.53124 0.94408 0.0
C936 C 0.05032 0.51112 0.96345 0.0
C937 C 0.02326 0.52121 0.95775 0.0
C938 C 0.02387 0.53739 0.94547 0.0
C939 C 0.05094 0.54233 0.93868 0.0
C940 C 0.99416 0.51446 0.96437 0.0
C941 C 0.97493 0.53825 0.96752 0.0
C942 C 0.98508 0.48489 0.96732 0.0
C943 C 0.00361 0.45873 0.96341 0.0
C944 C 0.01245 0.45437 0.94971 0.0
C945 C 0.03028 0.42991 0.94612 0.0
C946 C 0.03915 0.40948 0.95611 0.0
C947 C 0.03014 0.41343 0.96971 0.0
C948 C 0.01237 0.4379 0.97337 0.0
C949 C 0.85348 0.50744 0.97741 0.0
C950 C 0.84758 0.49836 0.99088 0.0
C951 C 0.88256 0.50677 0.97228 0.0
C952 C 0.90642 0.49765 0.98064 0.0
C953 C 0.90041 0.48631 0.99375 0.0
C954 C 0.87101 0.48653 0.99885 0.0
C955 C 0.93748 0.50375 0.97616 0.0
C956 C 0.95696 0.47995 0.9734 0.0
C957 C 0.94677 0.53328 0.97339 0.0
C958 C 0.92715 0.55925 0.97635 0.0
C959 C 0.91625 0.5643 0.98968 0.0
C960 C 0.89664 0.58798 0.99227 0.0
C961 C 0.88788 0.60686 0.98163 0.0
C962 C 0.89884 0.60218 0.96838 0.0
C963 C 0.91848 0.57854 0.96574 0.0
H964 H 0.8726 0.62512 0.98365 0.0
H965 H 0.05296 0.39056 0.95331 0.0
H966 H 0.68365 0.57819 0.20385 0.0
H967 H 0.69359 0.53143 0.21578 0.0
H968 H 0.60017 0.50771 0.21242 0.0
H969 H 0.58998 0.55443 0.20028 0.0
H970 H 0.62709 0.49914 0.2392 0.0
H971 H 0.64577 0.47704 0.19118 0.0
H972 H 0.67031 0.48566 0.16891 0.0
H973 H 0.75667 0.47232 0.18746 0.0
H974 H 0.73264 0.46406 0.2099 0.0
H975 H 0.6186 0.3477 0.25184 0.0
H976 H 0.61728 0.3964 0.24103 0.0
H977 H 0.71392 0.40038 0.24203 0.0
H978 H 0.71548 0.35088 0.2528 0.0
H979 H 0.69137 0.42142 0.21783 0.0
H980 H 0.67542 0.43989 0.26499 0.0
H981 H 0.65369 0.4332 0.28799 0.0
H982 H 0.56652 0.456 0.27245 0.0
H983 H 0.58764 0.46239 0.24929 0.0
C984 C 0.66512 0.56316 0.20572 0.0
C985 C 0.63597 0.57 0.20111 0.0
C986 C 0.67091 0.5364 0.21249 0.0
C987 C 0.64766 0.51612 0.21488 0.0
C988 C 0.61841 0.52315 0.21063 0.0
C989 C 0.61264 0.54977 0.20368 0.0
C990 C 0.65389 0.48737 0.22168 0.0
C991 C 0.64087 0.482 0.23449 0.0
C992 C 0.67302 0.46567 0.21577 0.0
C993 C 0.68743 0.47026 0.20225 0.0
C994 C 0.67001 0.47619 0.19053 0.0
C995 C 0.68382 0.48097 0.17788 0.0
C996 C 0.71504 0.47963 0.17678 0.0
C997 C 0.7325 0.4734 0.18833 0.0
C998 C 0.71879 0.46865 0.20102 0.0
C999 C 0.63966 0.35878 0.24974 0.0
C1000 C 0.66717 0.34555 0.25329 0.0
C1001 C 0.63884 0.38672 0.2436 0.0
C1002 C 0.66545 0.40229 0.24099 0.0
C1003 C 0.69311 0.38879 0.24406 0.0
C1004 C 0.69397 0.36058 0.2502 0.0
C1005 C 0.66381 0.43278 0.23521 0.0
C1006 C 0.67779 0.4386 0.22263 0.0
C1007 C 0.64599 0.45518 0.24145 0.0
C1008 C 0.63309 0.45139 0.25537 0.0
C1009 C 0.65157 0.44324 0.26645 0.0
C1010 C 0.63937 0.43954 0.27952 0.0
C1011 C 0.60874 0.44411 0.28167 0.0
C1012 C 0.59025 0.45245 0.27076 0.0
C1013 C 0.60233 0.45615 0.25766 0.0
H1014 H 0.59934 0.44125 0.29181 0.0
H1015 H 0.72569 0.48335 0.16697 0.0
H1016 H 0.04574 0.95166 0.35535 0.0
H1017 H 0.0694 0.92467 0.37419 0.0
H1018 H 0.99568 0.94831 0.40067 0.0
H1019 H 0.97203 0.97561 0.38198 0.0
H1020 H 0.04931 0.96839 0.41009 0.0
H1021 H 0.00994 0.87584 0.39205 0.0
H1022 H 0.00185 0.83752 0.37424 0.0
H1023 H 0.09694 0.82403 0.371 0.0
H1024 H 0.10563 0.86257 0.38867 0.0
H1025 H 0.08872 0.90474 0.47171 0.0
H1026 H 0.06291 0.91379 0.45012 0.0
H1027 H 0.14049 0.88279 0.42781 0.0
H1028 H 0.16623 0.87248 0.44963 0.0
H1029 H 0.08875 0.86555 0.41516 0.0
H1030 H 0.12944 0.95633 0.43237 0.0
H1031 H 0.14003 0.99509 0.44969 0.0
H1032 H 0.04587 0.01381 0.45321 0.0
H1033 H 0.03466 0.97476 0.43609 0.0
C1034 C 0.03405 0.95034 0.36505 0.0
C1035 C 0.00721 0.96623 0.36723 0.0
C1036 C 0.04764 0.93482 0.37582 0.0
C1037 C 0.03443 0.93472 0.38886 0.0
C1038 C 0.00634 0.9483 0.3907 0.0
C1039 C 0.9928 0.96385 0.37998 0.0
C1040 C 0.05164 0.92461 0.40099 0.0
C1041 C 0.05747 0.94574 0.41129 0.0
C1042 C 0.06368 0.89552 0.40219 0.0
C1043 C 0.05844 0.87231 0.39159 0.0
C1044 C 0.02914 0.8649 0.38746 0.0
C1045 C 0.02444 0.84309 0.3774 0.0
C1046 C 0.04887 0.82841 0.37147 0.0
C1047 C 0.07804 0.83545 0.3756 0.0
C1048 C 0.08286 0.85724 0.38564 0.0
C1049 C 0.10027 0.89966 0.46222 0.0
C1050 C 0.12963 0.88835 0.46231 0.0
C1051 C 0.08548 0.90483 0.44988 0.0
C1052 C 0.10002 0.89962 0.43735 0.0
C1053 C 0.12894 0.88711 0.43737 0.0
C1054 C 0.14364 0.88138 0.44981 0.0
C1055 C 0.08538 0.9091 0.42442 0.0
C1056 C 0.08044 0.88812 0.41394 0.0
C1057 C 0.07451 0.93855 0.42286 0.0
C1058 C 0.0812 0.96244 0.43301 0.0
C1059 C 0.11097 0.96858 0.43689 0.0
C1060 C 0.11709 0.99061 0.44668 0.0
C1061 C 0.09363 0.00687 0.45256 0.0
C1062 C 0.06402 0.00118 0.44865 0.0
C1063 C 0.05777 0.97911 0.4389 0.0
H1064 H 0.09841 0.0239 0.46014 0.0
H1065 H 0.04518 0.81154 0.36368 0.0
H1066 H 0.19826 0.55799 0.61735 0.0
H1067 H 0.22358 0.57878 0.63717 0.0
H1068 H 0.26493 0.49358 0.6452 0.0
H1069 H 0.23844 0.47205 0.62544 0.0
H1070 H 0.23906 0.51371 0.66728 0.0
H1071 H 0.30704 0.55742 0.63554 0.0
H1072 H 0.32194 0.58465 0.61473 0.0
H1073 H 0.27557 0.66262 0.62913 0.0
H1074 H 0.2601 0.63579 0.64996 0.0
H1075 H 0.29537 0.57852 0.72777 0.0
H1076 H 0.29648 0.55605 0.70493 0.0
H1077 H 0.24951 0.63231 0.68864 0.0
H1078 H 0.24953 0.6555 0.7114 0.0
H1079 H 0.28843 0.61257 0.6704 0.0
H1080 H 0.21252 0.56671 0.69899 0.0
H1081 H 0.19451 0.54013 0.71948 0.0
H1082 H 0.25339 0.46687 0.7104 0.0
H1083 H 0.27199 0.4932 0.68994 0.0
C1084 C 0.21311 0.54364 0.62316 0.0
C1085 C 0.21604 0.5132 0.61988 0.0
C1086 C 0.22791 0.55575 0.63446 0.0
C1087 C 0.24651 0.53791 0.64264 0.0
C1088 C 0.25076 0.50782 0.639 0.0
C1089 C 0.2357 0.49556 0.62768 0.0
C1090 C 0.2582 0.54998 0.65582 0.0
C1091 C 0.25065 0.53493 0.66792 0.0
C1092 C 0.27259 0.57809 0.65672 0.0
C1093 C 0.28233 0.59451 0.64431 0.0
C1094 C 0.29992 0.58034 0.63425 0.0
C1095 C 0.30848 0.59571 0.62245 0.0
C1096 C 0.29969 0.62533 0.6206 0.0
C1097 C 0.2824 0.63968 0.63058 0.0
C1098 C 0.2738 0.62442 0.6424 0.0
C1099 C 0.28558 0.59065 0.71928 0.0
C1100 C 0.27195 0.61857 0.7214 0.0
C1101 C 0.2862 0.57776 0.70624 0.0
C1102 C 0.27242 0.59213 0.69512 0.0
C1103 C 0.26019 0.62072 0.69707 0.0
C1104 C 0.26011 0.63392 0.71009 0.0
C1105 C 0.26866 0.57655 0.68175 0.0
C1106 C 0.27758 0.59099 0.66968 0.0
C1107 C 0.25527 0.54798 0.68082 0.0
C1108 C 0.24386 0.53204 0.69303 0.0
C1109 C 0.22173 0.545 0.70141 0.0
C1110 C 0.21141 0.52998 0.71301 0.0
C1111 C 0.22286 0.50186 0.71626 0.0
C1112 C 0.24458 0.48867 0.70789 0.0
C1113 C 0.25501 0.50361 0.69629 0.0
H1114 H 0.21485 0.49028 0.72525 0.0
H1115 H 0.30629 0.63718 0.61145 0.0
H1116 H 0.67901 0.72342 0.86911 0.0
H1117 H 0.66297 0.74082 0.89165 0.0
H1118 H 0.57536 0.76138 0.87547 0.0
H1119 H 0.59112 0.74393 0.85283 0.0
H1120 H 0.59367 0.80054 0.89704 0.0
H1121 H 0.58364 0.69667 0.88722 0.0
H1122 H 0.59896 0.64618 0.88002 0.0
H1123 H 0.66424 0.64364 0.9124 0.0
H1124 H 0.64991 0.69444 0.91955 0.0
H1125 H 0.5109 0.77185 0.95956 0.0
H1126 H 0.5288 0.7734 0.93582 0.0
H1127 H 0.61789 0.75055 0.94948 0.0
H1128 H 0.60046 0.74894 0.9731 0.0
H1129 H 0.59693 0.71432 0.92874 0.0
H1130 H 0.60366 0.81941 0.93894 0.0
H1131 H 0.58399 0.86825 0.94636 0.0
H1132 H 0.51985 0.86672 0.91348 0.0
H1133 H 0.53886 0.81763 0.90598 0.0
C1134 C 0.65662 0.73251 0.87019 0.0
C1135 C 0.6361 0.73158 0.85923 0.0
C1136 C 0.64749 0.74242 0.88311 0.0
C1137 C 0.61779 0.75171 0.88526 0.0
C1138 C 0.59832 0.75409 0.87402 0.0
C1139 C 0.60738 0.74403 0.86109 0.0
C1140 C 0.606 0.75442 0.89939 0.0
C1141 C 0.59418 0.7817 0.90397 0.0
C1142 C 0.60656 0.72973 0.90838 0.0
C1143 C 0.61597 0.69954 0.90381 0.0
C1144 C 0.60161 0.68554 0.89267 0.0
C1145 C 0.61006 0.65683 0.88861 0.0
C1146 C 0.63257 0.64173 0.89573 0.0
C1147 C 0.64685 0.65537 0.90686 0.0
C1148 C 0.63862 0.68415 0.91091 0.0
C1149 C 0.53435 0.76733 0.95753 0.0
C1150 C 0.55419 0.76011 0.96826 0.0
C1151 C 0.54455 0.76843 0.94397 0.0
C1152 C 0.57469 0.76225 0.94093 0.0
C1153 C 0.59456 0.75545 0.95162 0.0
C1154 C 0.58449 0.75453 0.96513 0.0
C1155 C 0.58534 0.76065 0.92658 0.0
C1156 C 0.59667 0.73332 0.92189 0.0
C1157 C 0.58387 0.78516 0.91751 0.0
C1158 C 0.57248 0.8147 0.92199 0.0
C1159 C 0.58517 0.82935 0.93337 0.0
C1160 C 0.57418 0.85711 0.93757 0.0
C1161 C 0.55063 0.87054 0.93042 0.0
C1162 C 0.53807 0.85627 0.91902 0.0
C1163 C 0.54896 0.82849 0.91478 0.0
H1164 H 0.54215 0.89204 0.93369 0.0
H1165 H 0.63881 0.61939 0.89266 0.0
H1166 H 0.48538 0.16508 0.12732 0.0
H1167 H 0.46545 0.14062 0.14756 0.0
H1168 H 0.40578 0.08858 0.12235 0.0
H1169 H 0.426 0.11256 0.10177 0.0
H1170 H 0.38309 0.11174 0.15047 0.0
H1171 H 0.45952 0.05573 0.12805 0.0
H1172 H 0.50799 0.044 0.11723 0.0
H1173 H 0.55391 0.06598 0.15461 0.0
H1174 H 0.5059 0.07862 0.16553 0.0
H1175 H 0.37104 0.00149 0.20441 0.0
H1176 H 0.37571 0.02481 0.18182 0.0
H1177 H 0.4509 0.07638 0.19647 0.0
H1178 H 0.4463 0.05333 0.21904 0.0
H1179 H 0.46113 0.04766 0.17163 0.0
H1180 H 0.38423 0.10861 0.19294 0.0
H1181 H 0.33539 0.11682 0.20417 0.0
H1182 H 0.29002 0.08058 0.16902 0.0
H1183 H 0.33866 0.07176 0.15765 0.0
C1184 C 0.46749 0.14899 0.12601 0.0
C1185 C 0.45769 0.1404 0.11286 0.0
C1186 C 0.45624 0.13498 0.13763 0.0
C1187 C 0.43473 0.11243 0.13639 0.0
C1188 C 0.42258 0.10585 0.12346 0.0
C1189 C 0.43412 0.11963 0.11173 0.0
C1190 C 0.42773 0.09392 0.14847 0.0
C1191 C 0.39993 0.09732 0.15499 0.0
C1192 C 0.44987 0.07527 0.15436 0.0
C1193 C 0.47902 0.06906 0.14752 0.0
C1194 C 0.47997 0.05891 0.13386 0.0
C1195 C 0.5074 0.0519 0.12771 0.0
C1196 C 0.53404 0.05455 0.13516 0.0
C1197 C 0.53331 0.06422 0.14878 0.0
C1198 C 0.506 0.07146 0.15493 0.0
C1199 C 0.3886 0.01776 0.20279 0.0
C1200 C 0.40837 0.02559 0.21347 0.0
C1201 C 0.39108 0.03118 0.18993 0.0
C1202 C 0.41346 0.05248 0.18754 0.0
C1203 C 0.4334 0.06005 0.19814 0.0
C1204 C 0.43078 0.04686 0.21102 0.0
C1205 C 0.41702 0.0663 0.17389 0.0
C1206 C 0.44422 0.06191 0.16704 0.0
C1207 C 0.3943 0.08375 0.16771 0.0
C1208 C 0.36509 0.08921 0.17451 0.0
C1209 C 0.36386 0.10215 0.18766 0.0
C1210 C 0.33621 0.10696 0.19404 0.0
C1211 C 0.30962 0.09914 0.18733 0.0
C1212 C 0.31063 0.08657 0.17421 0.0
C1213 C 0.33823 0.08168 0.16779 0.0
H1214 H 0.28824 0.10288 0.19229 0.0
H1215 H 0.55522 0.04892 0.1304 0.0
H1216 H 0.2021 0.62918 0.90549 0.0
H1217 H 0.21331 0.65174 0.8832 0.0
H1218 H 0.17621 0.57484 0.86266 0.0
H1219 H 0.16457 0.55243 0.88474 0.0
H1220 H 0.23568 0.59137 0.85429 0.0
H1221 H 0.13729 0.63517 0.86234 0.0
H1222 H 0.10076 0.66478 0.87562 0.0
H1223 H 0.15857 0.7411 0.87346 0.0
H1224 H 0.19564 0.7118 0.86032 0.0
H1225 H 0.22056 0.62443 0.78494 0.0
H1226 H 0.21186 0.61158 0.80888 0.0
H1227 H 0.23677 0.70067 0.82122 0.0
H1228 H 0.24486 0.71392 0.79716 0.0
H1229 H 0.18906 0.68276 0.8352 0.0
H1230 H 0.2855 0.64303 0.82595 0.0
H1231 H 0.32457 0.61516 0.81339 0.0
H1232 H 0.27519 0.53396 0.81874 0.0
H1233 H 0.2357 0.56132 0.83125 0.0
C1234 C 0.19594 0.6173 0.89622 0.0
C1235 C 0.1825 0.58897 0.89687 0.0
C1236 C 0.20238 0.6302 0.88352 0.0
C1237 C 0.19568 0.61484 0.87134 0.0
C1238 C 0.18164 0.58695 0.87197 0.0
C1239 C 0.17489 0.57425 0.8846 0.0
C1240 C 0.20426 0.62702 0.85786 0.0
C1241 C 0.22538 0.61123 0.85004 0.0
C1242 C 0.1917 0.6536 0.85264 0.0
C1243 C 0.16938 0.6712 0.8605 0.0
C1244 C 0.14234 0.65818 0.86481 0.0
C1245 C 0.12151 0.67493 0.87229 0.0
C1246 C 0.12739 0.70478 0.87542 0.0
C1247 C 0.15407 0.71797 0.87105 0.0
C1248 C 0.17499 0.70131 0.86358 0.0
C1249 C 0.22413 0.64132 0.79274 0.0
C1250 C 0.23349 0.67013 0.7892 0.0
C1251 C 0.21932 0.6339 0.80643 0.0
C1252 C 0.2242 0.65501 0.81686 0.0
C1253 C 0.233 0.68401 0.81333 0.0
C1254 C 0.23763 0.69153 0.7996 0.0
C1255 C 0.21987 0.64657 0.83139 0.0
C1256 C 0.1997 0.66309 0.83945 0.0
C1257 C 0.23376 0.62093 0.83696 0.0
C1258 C 0.2575 0.6043 0.82946 0.0
C1259 C 0.28286 0.61926 0.82437 0.0
C1260 C 0.3051 0.60356 0.81727 0.0
C1261 C 0.30229 0.57285 0.81523 0.0
C1262 C 0.27731 0.55775 0.82032 0.0
C1263 C 0.25502 0.57334 0.82745 0.0
H1264 H 0.31951 0.56074 0.80972 0.0
H1265 H 0.11123 0.71771 0.88121 0.0
H1266 H 0.64433 0.70066 0.13041 0.0
H1267 H 0.61483 0.71237 0.1102 0.0
H1268 H 0.53615 0.67507 0.12926 0.0
H1269 H 0.56634 0.66177 0.14947 0.0
H1270 H 0.53567 0.66012 0.10396 0.0
H1271 H 0.54747 0.75357 0.1257 0.0
H1272 H 0.57259 0.79556 0.13736 0.0
H1273 H 0.62706 0.8105 0.10181 0.0
H1274 H 0.6026 0.76841 0.08997 0.0
H1275 H 0.46115 0.72656 0.04484 0.0
H1276 H 0.47482 0.71757 0.06887 0.0
H1277 H 0.56849 0.72332 0.05826 0.0
H1278 H 0.55511 0.73182 0.03429 0.0
H1279 H 0.54955 0.75851 0.08178 0.0
H1280 H 0.53963 0.65773 0.0623 0.0
H1281 H 0.51013 0.61816 0.05098 0.0
H1282 H 0.44567 0.62118 0.08361 0.0
H1283 H 0.47461 0.66107 0.09503 0.0
C1284 C 0.62076 0.69484 0.13032 0.0
C1285 C 0.6076 0.6804 0.14153 0.0
C1286 C 0.60381 0.70183 0.11879 0.0
C1287 C 0.57302 0.6955 0.11833 0.0
C1288 C 0.55981 0.68048 0.12942 0.0
C1289 C 0.57704 0.67285 0.14093 0.0
C1290 C 0.55538 0.70386 0.10597 0.0
C1291 C 0.53819 0.68189 0.09931 0.0
C1292 C 0.5583 0.73236 0.09985 0.0
C1293 C 0.57325 0.75768 0.10697 0.0
C1294 C 0.56495 0.76566 0.1204 0.0
C1295 C 0.57907 0.7895 0.12704 0.0
C1296 C 0.60145 0.80562 0.12035 0.0
C1297 C 0.60973 0.79799 0.10699 0.0
C1298 C 0.5957 0.77417 0.10029 0.0
C1299 C 0.48465 0.72584 0.04765 0.0
C1300 C 0.5071 0.72983 0.03771 0.0
C1301 C 0.49237 0.72069 0.06134 0.0
C1302 C 0.52262 0.71979 0.06527 0.0
C1303 C 0.54501 0.72401 0.05539 0.0
C1304 C 0.53734 0.72875 0.0417 0.0
C1305 C 0.53141 0.71438 0.07965 0.0
C1306 C 0.54668 0.73702 0.08667 0.0
C1307 C 0.52611 0.68686 0.08621 0.0
C1308 C 0.50909 0.66257 0.07943 0.0
C1309 C 0.51905 0.6501 0.067 0.0
C1310 C 0.50246 0.62759 0.06058 0.0
C1311 C 0.476 0.61722 0.06655 0.0
C1312 C 0.46614 0.62926 0.07899 0.0
C1313 C 0.48264 0.6518 0.08544 0.0
H1314 H 0.46317 0.59981 0.06156 0.0
H1315 H 0.61234 0.82407 0.12552 0.0
H1316 H 0.43749 0.05886 0.40078 0.0
H1317 H 0.43337 0.04089 0.37717 0.0
H1318 H 0.52462 0.06784 0.36949 0.0
H1319 H 0.52893 0.08601 0.39307 0.0
H1320 H 0.48528 0.09088 0.35096 0.0
H1321 H 0.50648 0.99492 0.37024 0.0
H1322 H 0.4995 0.95309 0.38623 0.0
H1323 H 0.40971 0.94044 0.37135 0.0
H1324 H 0.416 0.9825 0.35539 0.0
H1325 H 0.49398 0.03854 0.28305 0.0
H1326 H 0.50292 0.04572 0.3075 0.0
H1327 H 0.41461 0.01171 0.31638 0.0
H1328 H 0.40576 0.00363 0.29189 0.0
H1329 H 0.45339 0.99105 0.33449 0.0
H1330 H 0.43012 0.08727 0.31631 0.0
H1331 H 0.43469 0.13041 0.30088 0.0
H1332 H 0.52539 0.14421 0.31435 0.0
H1333 H 0.52152 0.10083 0.3297 0.0
C1334 C 0.45689 0.06048 0.39415 0.0
C1335 C 0.48347 0.07408 0.39878 0.0
C1336 C 0.45451 0.05008 0.38067 0.0
C1337 C 0.47869 0.05304 0.37158 0.0
C1338 C 0.50569 0.06538 0.37635 0.0
C1339 C 0.50814 0.07565 0.38985 0.0
C1340 C 0.4749 0.04585 0.35682 0.0
C1341 C 0.47887 0.0689 0.34733 0.0
C1342 C 0.46543 0.01747 0.35217 0.0
C1343 C 0.46164 0.99205 0.3617 0.0
C1344 C 0.48516 0.98338 0.37045 0.0
C1345 C 0.48134 0.95959 0.37949 0.0
C1346 C 0.45415 0.94416 0.37983 0.0
C1347 C 0.43075 0.95244 0.37109 0.0
C1348 C 0.43445 0.97623 0.36203 0.0
C1349 C 0.47641 0.03255 0.29018 0.0
C1350 C 0.44903 0.02076 0.28548 0.0
C1351 C 0.48156 0.03673 0.30418 0.0
C1352 C 0.45924 0.02977 0.31379 0.0
C1353 C 0.43214 0.01732 0.30917 0.0
C1354 C 0.42709 0.0128 0.29515 0.0
C1355 C 0.46401 0.03607 0.3286 0.0
C1356 C 0.46004 0.01297 0.33811 0.0
C1357 C 0.47318 0.06455 0.33332 0.0
C1358 C 0.47563 0.09057 0.32404 0.0
C1359 C 0.45113 0.09933 0.31589 0.0
C1360 C 0.45358 0.12385 0.30717 0.0
C1361 C 0.48034 0.13998 0.3066 0.0
C1362 C 0.50469 0.13165 0.31477 0.0
C1363 C 0.50238 0.1071 0.32348 0.0
H1364 H 0.48218 0.15898 0.29985 0.0
H1365 H 0.45124 0.92576 0.38684 0.0
H1366 H 0.12003 0.95037 0.65042 0.0
H1367 H 0.13721 0.94005 0.62702 0.0
H1368 H 0.0727 0.00289 0.61131 0.0
H1369 H 0.05538 0.01334 0.63459 0.0
H1370 H 0.06872 0.9495 0.59868 0.0
H1371 H 0.14653 0.01892 0.61095 0.0
H1372 H 0.18802 0.03858 0.62505 0.0
H1373 H 0.23864 0.95856 0.61785 0.0
H1374 H 0.19723 0.93823 0.60385 0.0
H1375 H 0.10873 0.96633 0.53 0.0
H1376 H 0.10128 0.97562 0.55435 0.0
H1377 H 0.16569 0.90714 0.56415 0.0
H1378 H 0.17353 0.8976 0.53966 0.0
H1379 H 0.17199 0.959 0.58031 0.0
H1380 H 0.09505 0.89058 0.56717 0.0
H1381 H 0.05364 0.87116 0.55295 0.0
H1382 H 0.00125 0.94915 0.56199 0.0
H1383 H 0.04254 0.96927 0.5761 0.0
C1384 C 0.10991 0.96242 0.64199 0.0
C1385 C 0.08644 0.98278 0.64434 0.0
C1386 C 0.11978 0.95653 0.62865 0.0
C1387 C 0.10625 0.97084 0.61746 0.0
C1388 C 0.08347 0.99179 0.61983 0.0
C1389 C 0.07377 0.99786 0.63314 0.0
C1390 C 0.11416 0.9626 0.60319 0.0
C1391 C 0.09124 0.95189 0.59463 0.0
C1392 C 0.14375 0.96475 0.59807 0.0
C1393 C 0.16864 0.97691 0.60649 0.0
C1394 C 0.16639 0.00539 0.61248 0.0
C1395 C 0.18992 0.01668 0.62043 0.0
C1396 C 0.21591 0.99979 0.62238 0.0
C1397 C 0.21846 0.9716 0.61635 0.0
C1398 C 0.19498 0.96019 0.6084 0.0
C1399 C 0.12147 0.95323 0.53727 0.0
C1400 C 0.14161 0.93104 0.53283 0.0
C1401 C 0.11712 0.95857 0.55121 0.0
C1402 C 0.13268 0.94184 0.56103 0.0
C1403 C 0.15343 0.92024 0.55671 0.0
C1404 C 0.15776 0.91477 0.54271 0.0
C1405 C 0.12638 0.94656 0.57577 0.0
C1406 C 0.14955 0.95645 0.58442 0.0
C1407 C 0.097 0.94363 0.58103 0.0
C1408 C 0.07201 0.93155 0.5726 0.0
C1409 C 0.0748 0.90371 0.56603 0.0
C1410 C 0.05133 0.89255 0.55801 0.0
C1411 C 0.02486 0.90894 0.55654 0.0
C1412 C 0.02178 0.93649 0.56313 0.0
C1413 C 0.0452 0.94777 0.57115 0.0
H1414 H 0.00671 0.90026 0.55032 0.0
H1415 H 0.23411 0.00858 0.62854 0.0
H1416 H 0.67563 0.57305 0.86763 0.0
H1417 H 0.68785 0.54189 0.88747 0.0
H1418 H 0.72425 0.61874 0.90839 0.0
H1419 H 0.71302 0.64958 0.88861 0.0
H1420 H 0.75991 0.57394 0.91193 0.0
H1421 H 0.65222 0.58884 0.9164 0.0
H1422 H 0.59965 0.58667 0.90847 0.0
H1423 H 0.6074 0.49204 0.90263 0.0
H1424 H 0.66008 0.49378 0.91045 0.0
H1425 H 0.7439 0.54906 0.98256 0.0
H1426 H 0.73716 0.56506 0.95889 0.0
H1427 H 0.72839 0.47347 0.94594 0.0
H1428 H 0.73591 0.45707 0.96972 0.0
H1429 H 0.68195 0.51577 0.93626 0.0
H1430 H 0.78891 0.50194 0.93567 0.0
H1431 H 0.84085 0.50651 0.94415 0.0
H1432 H 0.83308 0.60192 0.94397 0.0
H1433 H 0.78114 0.5979 0.93535 0.0
C1434 C 0.68627 0.58323 0.87647 0.0
C1435 C 0.69327 0.61379 0.87657 0.0
C1436 C 0.69312 0.56545 0.88782 0.0
C1437 C 0.70672 0.57803 0.89948 0.0
C1438 C 0.71391 0.60846 0.89949 0.0
C1439 C 0.70737 0.62612 0.88817 0.0
C1440 C 0.71366 0.55991 0.91178 0.0
C1441 C 0.74279 0.5613 0.91724 0.0
C1442 C 0.69165 0.54263 0.91854 0.0
C1443 C 0.66011 0.54153 0.9138 0.0
C1444 C 0.64274 0.56765 0.9133 0.0
C1445 C 0.61293 0.56648 0.90886 0.0
C1446 C 0.60024 0.53925 0.90498 0.0
C1447 C 0.61729 0.51312 0.9056 0.0
C1448 C 0.6471 0.51419 0.91005 0.0
C1449 C 0.74065 0.53225 0.97471 0.0
C1450 C 0.74051 0.5018 0.97799 0.0
C1451 C 0.73692 0.54144 0.96118 0.0
C1452 C 0.73258 0.5204 0.95071 0.0
C1453 C 0.7319 0.48997 0.95392 0.0
C1454 C 0.73615 0.48069 0.96747 0.0
C1455 C 0.7278 0.53076 0.93653 0.0
C1456 C 0.69915 0.52789 0.93074 0.0
C1457 C 0.7501 0.54703 0.92955 0.0
C1458 C 0.78111 0.5496 0.93494 0.0
C1459 C 0.79823 0.52388 0.93752 0.0
C1460 C 0.82771 0.52639 0.94228 0.0
C1461 C 0.84023 0.5545 0.94463 0.0
C1462 C 0.82334 0.58017 0.94215 0.0
C1463 C 0.79394 0.57779 0.93725 0.0
H1464 H 0.86302 0.55641 0.94835 0.0
H1465 H 0.57716 0.53839 0.90154 0.0
H1466 H 0.5813 0.09901 0.13857 0.0
H1467 H 0.59938 0.11387 0.16127 0.0
H1468 H 0.6219 0.20078 0.1456 0.0
H1469 H 0.60347 0.18607 0.12292 0.0
H1470 H 0.6634 0.18093 0.16443 0.0
H1471 H 0.5565 0.19063 0.16087 0.0
H1472 H 0.50392 0.17583 0.15714 0.0
H1473 H 0.51128 0.11065 0.18909 0.0
H1474 H 0.56417 0.1246 0.1928 0.0
H1475 H 0.65876 0.25788 0.22929 0.0
H1476 H 0.65311 0.24146 0.20545 0.0
H1477 H 0.62307 0.15531 0.21933 0.0
H1478 H 0.62793 0.17166 0.24304 0.0
H1479 H 0.58628 0.17639 0.20095 0.0
H1480 H 0.69347 0.16662 0.20462 0.0
H1481 H 0.74494 0.18394 0.20936 0.0
H1482 H 0.73643 0.25042 0.17804 0.0
H1483 H 0.68473 0.23376 0.17324 0.0
C1484 C 0.59029 0.12116 0.13996 0.0
C1485 C 0.59024 0.14155 0.12908 0.0
C1486 C 0.60071 0.12962 0.1529 0.0
C1487 C 0.61133 0.15866 0.15517 0.0
C1488 C 0.6136 0.17833 0.14407 0.0
C1489 C 0.6031 0.16985 0.13111 0.0
C1490 C 0.61783 0.16915 0.16929 0.0
C1491 C 0.64651 0.18017 0.17242 0.0
C1492 C 0.59583 0.16787 0.17971 0.0
C1493 C 0.56445 0.15844 0.177 0.0
C1494 C 0.54708 0.17281 0.16695 0.0
C1495 C 0.51717 0.16462 0.16487 0.0
C1496 C 0.50426 0.14229 0.17288 0.0
C1497 C 0.52131 0.12795 0.18291 0.0
C1498 C 0.55127 0.13593 0.18497 0.0
C1499 C 0.65118 0.23536 0.22725 0.0
C1500 C 0.64354 0.21618 0.23807 0.0
C1501 C 0.64813 0.22595 0.21362 0.0
C1502 C 0.63783 0.19707 0.2106 0.0
C1503 C 0.63096 0.17772 0.2214 0.0
C1504 C 0.6337 0.18715 0.23497 0.0
C1505 C 0.63209 0.18745 0.19626 0.0
C1506 C 0.60334 0.17688 0.19304 0.0
C1507 C 0.65403 0.18914 0.18582 0.0
C1508 C 0.68512 0.19913 0.18867 0.0
C1509 C 0.70249 0.18509 0.19882 0.0
C1510 C 0.73172 0.19476 0.2015 0.0
C1511 C 0.74392 0.21832 0.19403 0.0
C1512 C 0.72693 0.2322 0.18383 0.0
C1513 C 0.69768 0.22264 0.18112 0.0
H1514 H 0.76655 0.22577 0.19612 0.0
H1515 H 0.48105 0.13607 0.17135 0.0
H1516 H 0.99892 0.11739 0.36712 0.0
H1517 H 0.98166 0.14245 0.38807 0.0
H1518 H 0.01816 0.07098 0.41238 0.0
H1519 H 0.03581 0.04601 0.3916 0.0
H1520 H 0.95563 0.08557 0.41724 0.0
H1521 H 0.05333 0.13326 0.41286 0.0
H1522 H 0.09125 0.16291 0.4006 0.0
H1523 H 0.02945 0.23613 0.39778 0.0
H1524 H 0.99101 0.20672 0.40987 0.0
H1525 H 0.9545 0.12588 0.48561 0.0
H1526 H 0.96869 0.11198 0.46239 0.0
H1527 H 0.94171 0.19874 0.44789 0.0
H1528 H 0.92812 0.21321 0.47142 0.0
H1529 H 0.99306 0.18163 0.43596 0.0
H1530 H 0.89738 0.13892 0.44198 0.0
H1531 H 0.85725 0.11131 0.45374 0.0
H1532 H 0.9101 0.03131 0.45206 0.0
H1533 H 0.95082 0.05856 0.44051 0.0
C1534 C 0.00364 0.10725 0.37695 0.0
C1535 C 0.01874 0.07974 0.37772 0.0
C1536 C 0.99378 0.12159 0.38888 0.0
C1537 C 0.9986 0.10846 0.40172 0.0
C1538 C 0.01422 0.08138 0.40253 0.0
C1539 C 0.02444 0.06725 0.39065 0.0
C1540 C 0.98621 0.12208 0.41432 0.0
C1541 C 0.96392 0.10646 0.42141 0.0
C1542 C 0.99604 0.15002 0.41933 0.0
C1543 C 0.01919 0.16767 0.41212 0.0
C1544 C 0.04773 0.15557 0.40951 0.0
C1545 C 0.06934 0.17236 0.40262 0.0
C1546 C 0.06273 0.20135 0.39837 0.0
C1547 C 0.03452 0.21365 0.40105 0.0
C1548 C 0.01283 0.19694 0.40793 0.0
C1549 C 0.95154 0.14206 0.4775 0.0
C1550 C 0.93998 0.17055 0.48029 0.0
C1551 C 0.95956 0.13403 0.46421 0.0
C1552 C 0.95568 0.15409 0.45335 0.0
C1553 C 0.94471 0.18286 0.45612 0.0
C1554 C 0.9369 0.19106 0.46952 0.0
C1555 C 0.96324 0.14453 0.43921 0.0
C1556 C 0.98442 0.16094 0.43175 0.0
C1557 C 0.9519 0.11757 0.43368 0.0
C1558 C 0.92726 0.10086 0.44043 0.0
C1559 C 0.90054 0.11548 0.44419 0.0
C1560 C 0.87767 0.09989 0.45082 0.0
C1561 C 0.88114 0.06958 0.45366 0.0
C1562 C 0.90745 0.05479 0.44985 0.0
C1563 C 0.93043 0.0703 0.44324 0.0
H1564 H 0.86341 0.05755 0.45879 0.0
H1565 H 0.07949 0.21431 0.39304 0.0
H1566 H 0.11798 0.44316 0.63655 0.0
H1567 H 0.08586 0.4277 0.65519 0.0
H1568 H 0.01485 0.48405 0.63993 0.0
H1569 H 0.04757 0.50034 0.62113 0.0
H1570 H 0.02133 0.49202 0.6664 0.0
H1571 H 0.00727 0.40654 0.63902 0.0
H1572 H 0.01902 0.3638 0.62399 0.0
H1573 H 0.07402 0.32563 0.65552 0.0
H1574 H 0.06257 0.36802 0.67079 0.0
H1575 H 0.94368 0.4305 0.72472 0.0
H1576 H 0.95442 0.43931 0.70042 0.0
H1577 H 0.04578 0.41068 0.70666 0.0
H1578 H 0.03541 0.40243 0.731 0.0
H1579 H 0.01502 0.38708 0.68205 0.0
H1580 H 0.03453 0.4804 0.70699 0.0
H1581 H 0.01869 0.5219 0.72199 0.0
H1582 H 0.94814 0.54401 0.69377 0.0
H1583 H 0.96336 0.50233 0.67869 0.0
C1584 C 0.09547 0.45219 0.63702 0.0
C1585 C 0.08539 0.47312 0.62737 0.0
C1586 C 0.07694 0.44302 0.64765 0.0
C1587 C 0.04768 0.4542 0.64884 0.0
C1588 C 0.03729 0.47493 0.63914 0.0
C1589 C 0.05599 0.48427 0.62844 0.0
C1590 C 0.02953 0.44604 0.66099 0.0
C1591 C 0.0192 0.46899 0.66961 0.0
C1592 C 0.0267 0.416 0.66526 0.0
C1593 C 0.03417 0.39062 0.65604 0.0
C1594 C 0.02207 0.38917 0.64272 0.0
C1595 C 0.02864 0.36497 0.63416 0.0
C1596 C 0.04741 0.34214 0.63876 0.0
C1597 C 0.05952 0.34336 0.65197 0.0
C1598 C 0.05289 0.36741 0.6606 0.0
C1599 C 0.966 0.42592 0.72088 0.0
C1600 C 0.98882 0.41602 0.72973 0.0
C1601 C 0.97205 0.43093 0.70703 0.0
C1602 C 0.00086 0.42567 0.70182 0.0
C1603 C 0.02338 0.41479 0.71054 0.0
C1604 C 0.0175 0.41028 0.72442 0.0
C1605 C 0.00829 0.43306 0.68749 0.0
C1606 C 0.01649 0.40996 0.67856 0.0
C1607 C 0.00867 0.46284 0.68283 0.0
C1608 C 0.99983 0.48807 0.69181 0.0
C1609 C 0.01549 0.49397 0.70404 0.0
C1610 C 0.00666 0.51754 0.71254 0.0
C1611 C 0.98236 0.53552 0.70885 0.0
C1612 C 0.96692 0.53003 0.69663 0.0
C1613 C 0.97564 0.50645 0.6881 0.0
H1614 H 0.97554 0.55375 0.71545 0.0
H1615 H 0.05248 0.32345 0.6321 0.0
H1616 H 0.56573 0.23913 0.41973 0.0
H1617 H 0.58334 0.26114 0.39825 0.0
H1618 H 0.51315 0.21554 0.37617 0.0
H1619 H 0.49508 0.19385 0.3975 0.0
H1620 H 0.57471 0.20103 0.36865 0.0
H1621 H 0.5093 0.28526 0.37614 0.0
H1622 H 0.48898 0.32803 0.38908 0.0
H1623 H 0.57593 0.36909 0.38944 0.0
H1624 H 0.59688 0.32632 0.37666 0.0
H1625 H 0.5954 0.24089 0.30064 0.0
H1626 H 0.57373 0.23469 0.32335 0.0
H1627 H 0.639 0.29561 0.34024 0.0
H1628 H 0.66057 0.30245 0.31731 0.0
H1629 H 0.5833 0.30459 0.35141 0.0
H1630 H 0.64944 0.22284 0.34422 0.0
H1631 H 0.67194 0.18074 0.33157 0.0
H1632 H 0.58737 0.13503 0.33178 0.0
H1633 H 0.56422 0.17708 0.34424 0.0
C1634 C 0.55346 0.23452 0.41037 0.0
C1635 C 0.52928 0.21437 0.4103 0.0
C1636 C 0.56355 0.24715 0.39812 0.0
C1637 C 0.54968 0.23967 0.38567 0.0
C1638 C 0.52416 0.22146 0.38571 0.0
C1639 C 0.51384 0.20915 0.39793 0.0
C1640 C 0.56412 0.24716 0.3725 0.0
C1641 C 0.57625 0.22363 0.36479 0.0
C1642 C 0.56726 0.27677 0.36784 0.0
C1643 C 0.55474 0.3024 0.37559 0.0
C1644 C 0.52417 0.30324 0.37911 0.0
C1645 C 0.51252 0.32753 0.38638 0.0
C1646 C 0.53118 0.35122 0.39012 0.0
C1647 C 0.56152 0.3507 0.38656 0.0
C1648 C 0.57329 0.32644 0.37929 0.0
C1649 C 0.60514 0.25306 0.30916 0.0
C1650 C 0.62986 0.27193 0.30723 0.0
C1651 C 0.59273 0.24948 0.32214 0.0
C1652 C 0.60504 0.26435 0.33351 0.0
C1653 C 0.62923 0.28389 0.33159 0.0
C1654 C 0.6416 0.28765 0.31853 0.0
C1655 C 0.59314 0.25833 0.34739 0.0
C1656 C 0.5818 0.28202 0.3553 0.0
C1657 C 0.59112 0.22884 0.35241 0.0
C1658 C 0.60504 0.20324 0.34509 0.0
C1659 C 0.63559 0.20389 0.3415 0.0
C1660 C 0.64847 0.18003 0.33437 0.0
C1661 C 0.63109 0.15524 0.33086 0.0
C1662 C 0.60081 0.15424 0.3345 0.0
C1663 C 0.5878 0.17808 0.34162 0.0
H1664 H 0.64111 0.13679 0.32533 0.0
H1665 H 0.5221 0.37001 0.39574 0.0
H1666 H 0.97841 0.96953 0.62906 0.0
H1667 H 0.95648 0.99745 0.61015 0.0
H1668 H 0.91325 0.05684 0.63882 0.0
H1669 H 0.93527 0.02908 0.65793 0.0
H1670 H 0.87862 0.04487 0.61418 0.0
H1671 H 0.97401 0.07971 0.62826 0.0
H1672 H 0.02741 0.079 0.63479 0.0
H1673 H 0.05056 0.04408 0.59515 0.0
H1674 H 0.99719 0.04375 0.58851 0.0
H1675 H 0.89387 0.15996 0.55799 0.0
H1676 H 0.89608 0.13816 0.58108 0.0
H1677 H 0.9173 0.05247 0.56349 0.0
H1678 H 0.91478 0.07347 0.5406 0.0
H1679 H 0.95967 0.0872 0.58537 0.0
H1680 H 0.85922 0.04742 0.57364 0.0
H1681 H 0.80605 0.05501 0.56757 0.0
H1682 H 0.79333 0.10756 0.60399 0.0
H1683 H 0.84661 0.10064 0.61015 0.0
C1684 C 0.96356 0.98797 0.63141 0.0
C1685 C 0.95906 0.99738 0.64501 0.0
C1686 C 0.95111 0.00397 0.62057 0.0
C1687 C 0.93381 0.02952 0.62312 0.0
C1688 C 0.92672 0.03726 0.63667 0.0
C1689 C 0.93933 0.02133 0.64756 0.0
C1690 C 0.9264 0.04975 0.61166 0.0
C1691 C 0.89631 0.05444 0.60798 0.0
C1692 C 0.94948 0.06278 0.60374 0.0
C1693 C 0.98151 0.06148 0.60792 0.0
C1694 C 0.99041 0.07142 0.62101 0.0
C1695 C 0.0207 0.07131 0.62471 0.0
C1696 C 0.04236 0.06164 0.61537 0.0
C1697 C 0.03375 0.05167 0.60236 0.0
C1698 C 0.00347 0.05154 0.59863 0.0
C1699 C 0.8986 0.13639 0.55904 0.0
C1700 C 0.9043 0.11854 0.54741 0.0
C1701 C 0.89968 0.124 0.57221 0.0
C1702 C 0.90657 0.09373 0.57387 0.0
C1703 C 0.91162 0.07583 0.56233 0.0
C1704 C 0.91025 0.08799 0.54925 0.0
C1705 C 0.91214 0.08095 0.58754 0.0
C1706 C 0.94202 0.07786 0.59168 0.0
C1707 C 0.88891 0.06994 0.59593 0.0
C1708 C 0.85695 0.07389 0.59224 0.0
C1709 C 0.84517 0.06089 0.58026 0.0
C1710 C 0.815 0.06499 0.57683 0.0
C1711 C 0.79634 0.08186 0.58536 0.0
C1712 C 0.80781 0.09457 0.59737 0.0
C1713 C 0.83799 0.09055 0.60084 0.0
H1714 H 0.77299 0.08501 0.58269 0.0
H1715 H 0.06583 0.06179 0.61822 0.0
H1716 H 0.17743 0.43445 0.89748 0.0
H1717 H 0.1617 0.41116 0.87589 0.0
H1718 H 0.06895 0.42308 0.88733 0.0
H1719 H 0.08445 0.44452 0.9091 0.0
H1720 H 0.07197 0.37585 0.87314 0.0
H1721 H 0.11087 0.47587 0.86661 0.0
H1722 H 0.14885 0.51575 0.86758 0.0
H1723 H 0.20919 0.46217 0.84362 0.0
H1724 H 0.17147 0.42196 0.8425 0.0
H1725 H 0.00024 0.40146 0.80892 0.0
H1726 H 0.02165 0.40335 0.832 0.0
H1727 H 0.1082 0.37877 0.81578 0.0
H1728 H 0.08722 0.37731 0.7927 0.0
H1729 H 0.11255 0.42605 0.83195 0.0
H1730 H 0.06617 0.32978 0.83533 0.0
H1731 H 0.02451 0.29382 0.83366 0.0
H1732 H 0.97446 0.34413 0.86337 0.0
H1733 H 0.01565 0.38062 0.86509 0.0
C1734 C 0.15372 0.43137 0.89552 0.0
C1735 C 0.13222 0.44173 0.90493 0.0
C1736 C 0.14472 0.41832 0.88312 0.0
C1737 C 0.11409 0.41624 0.87974 0.0
C1738 C 0.09271 0.42457 0.88959 0.0
C1739 C 0.10166 0.43694 0.90208 0.0
C1740 C 0.10402 0.40785 0.86568 0.0
C1741 C 0.0808 0.38691 0.86414 0.0
C1742 C 0.11576 0.42184 0.85384 0.0
C1743 C 0.13854 0.44582 0.85462 0.0
C1744 C 0.13232 0.47255 0.86163 0.0
C1745 C 0.15378 0.49521 0.86219 0.0
C1746 C 0.1815 0.49145 0.85574 0.0
C1747 C 0.18775 0.46504 0.84865 0.0
C1748 C 0.16633 0.44232 0.84802 0.0
C1749 C 0.02376 0.39614 0.81027 0.0
C1750 C 0.04202 0.38943 0.79891 0.0
C1751 C 0.03594 0.39706 0.82349 0.0
C1752 C 0.0665 0.39094 0.82564 0.0
C1753 C 0.08458 0.38356 0.81437 0.0
C1754 C 0.0725 0.38279 0.80116 0.0
C1755 C 0.08017 0.39449 0.83945 0.0
C1756 C 0.10407 0.41457 0.84091 0.0
C1757 C 0.06863 0.38013 0.8512 0.0
C1758 C 0.04395 0.35804 0.85027 0.0
C1759 C 0.04621 0.33328 0.84144 0.0
C1760 C 0.02269 0.31278 0.8405 0.0
C1761 C 0.99684 0.31671 0.84838 0.0
C1762 C 0.99449 0.34111 0.85726 0.0
C1763 C 0.01794 0.36168 0.85825 0.0
H1764 H 0.97865 0.30083 0.84763 0.0
H1765 H 0.19807 0.50905 0.85619 0.0
H1766 H 0.73248 0.66513 0.14882 0.0
H1767 H 0.75991 0.65287 0.12777 0.0
H1768 H 0.74221 0.55942 0.13428 0.0
H1769 H 0.71627 0.57129 0.15545 0.0
H1770 H 0.79363 0.56409 0.12238 0.0
H1771 H 0.69434 0.60768 0.11448 0.0
H1772 H 0.65593 0.64729 0.11539 0.0
H1773 H 0.71568 0.70732 0.09483 0.0
H1774 H 0.75447 0.66807 0.09387 0.0
H1775 H 0.76672 0.50091 0.05652 0.0
H1776 H 0.76791 0.5196 0.0801 0.0
H1777 H 0.79453 0.60631 0.06554 0.0
H1778 H 0.79283 0.58806 0.042 0.0
H1779 H 0.74788 0.61099 0.08143 0.0
H1780 H 0.84254 0.56245 0.08486 0.0
H1781 H 0.87878 0.52114 0.08274 0.0
H1782 H 0.82713 0.46898 0.11095 0.0
H1783 H 0.79034 0.50981 0.1131 0.0
C1784 C 0.73518 0.64194 0.14594 0.0
C1785 C 0.7217 0.61924 0.15367 0.0
C1786 C 0.75067 0.63496 0.13385 0.0
C1787 C 0.7524 0.60525 0.12921 0.0
C1788 C 0.74107 0.58251 0.13754 0.0
C1789 C 0.72601 0.5894 0.14965 0.0
C1790 C 0.7629 0.59769 0.11515 0.0
C1791 C 0.78365 0.57434 0.11341 0.0
C1792 C 0.75048 0.61145 0.1034 0.0
C1793 C 0.72739 0.63513 0.10427 0.0
C1794 C 0.69934 0.62942 0.11026 0.0
C1795 C 0.6775 0.65178 0.11076 0.0
C1796 C 0.68343 0.67985 0.10521 0.0
C1797 C 0.71117 0.6856 0.09915 0.0
C1798 C 0.73307 0.66332 0.09862 0.0
C1799 C 0.77329 0.52383 0.05835 0.0
C1800 C 0.77928 0.54308 0.04735 0.0
C1801 C 0.77417 0.53444 0.07186 0.0
C1802 C 0.78145 0.56436 0.0746 0.0
C1803 C 0.78879 0.58318 0.06367 0.0
C1804 C 0.78769 0.5727 0.0502 0.0
C1805 C 0.77804 0.5769 0.08863 0.0
C1806 C 0.7585 0.60115 0.09035 0.0
C1807 C 0.79143 0.56377 0.1003 0.0
C1808 C 0.81356 0.53916 0.09907 0.0
C1809 C 0.83878 0.54209 0.09054 0.0
C1810 C 0.85945 0.51877 0.08935 0.0
C1811 C 0.85524 0.49244 0.09669 0.0
C1812 C 0.83037 0.48939 0.10527 0.0
C1813 C 0.80962 0.51264 0.10649 0.0
H1814 H 0.87126 0.47441 0.09575 0.0
H1815 H 0.66653 0.69713 0.10554 0.0
loop_
_geom_bond_atom_site_label_1
_geom_bond_atom_site_label_2
_geom_bond_distance
_geom_bond_site_symmetry_2
_ccdc_geom_bond_type
Mg0 O7 2.141 . S
Mg0 O8 2.048 . S
Mg0 O9 2.048 1_455 S
Mg0 O12 2.141 1_455 S
C1 O2 1.313 . S
C1 O8 1.195 1_565 S
O2 C1 1.313 . S
C3 O4 1.245 . S
C3 O12 1.289 . S
O4 C3 1.245 . S
C5 O6 1.245 . S
C5 O7 1.289 1_565 S
O6 C5 1.245 . S
O7 Mg0 2.141 . S
O7 C5 1.289 1_545 S
O8 Mg0 2.048 . S
O8 C1 1.195 1_545 S
O9 Mg0 2.048 1_655 S
O9 C10 1.195 . S
C10 O9 1.195 . S
C10 O11 1.313 . S
O11 C10 1.313 . S
O12 Mg0 2.141 1_655 S
O12 C3 1.289 . S
Mg13 O20 2.141 . S
Mg13 O21 2.048 . S
Mg13 O22 2.048 . S
Mg13 O25 2.141 . S
C14 O15 1.313 . S
C14 O21 1.195 . S
O15 C14 1.313 . S
C16 O17 1.245 . S
C16 O25 1.289 . S
O17 C16 1.245 . S
C18 O19 1.245 . S
C18 O20 1.289 . S
O19 C18 1.245 . S
O20 Mg13 2.141 . S
O20 C18 1.289 . S
O21 Mg13 2.048 . S
O21 C14 1.195 . S
O22 Mg13 2.048 . S
O22 C23 1.195 . S
C23 O22 1.195 . S
C23 O24 1.313 . S
O24 C23 1.313 . S
O25 Mg13 2.141 . S
O25 C16 1.289 . S
Mg26 O33 2.141 . S
Mg26 O34 2.048 . S
Mg26 O35 2.048 . S
Mg26 O38 2.141 . S
C27 O28 1.313 . S
C27 O34 1.195 . S
O28 C27 1.313 . S
C29 O30 1.245 . S
C29 O38 1.289 . S
O30 C29 1.245 . S
C31 O32 1.245 . S
C31 O33 1.289 . S
O32 C31 1.245 . S
O33 Mg26 2.141 . S
O33 C31 1.289 . S
O34 Mg26 2.048 . S
O34 C27 1.195 . S
O35 Mg26 2.048 . S
O35 C36 1.195 . S
C36 O35 1.195 . S
C36 O37 1.313 . S
O37 C36 1.313 . S
O38 Mg26 2.141 . S
O38 C29 1.289 . S
Mg39 O46 2.141 . S
Mg39 O47 2.048 . S
Mg39 O48 2.048 . S
Mg39 O51 2.141 . S
C40 O41 1.313 . S
C40 O47 1.195 . S
O41 C40 1.313 . S
C42 O43 1.245 . S
C42 O51 1.289 . S
O43 C42 1.245 . S
C44 O45 1.245 . S
C44 O46 1.289 . S
O45 C44 1.245 . S
O46 Mg39 2.141 . S
O46 C44 1.289 . S
O47 Mg39 2.048 . S
O47 C40 1.195 . S
O48 Mg39 2.048 . S
O48 C49 1.195 . S
C49 O48 1.195 . S
C49 O50 1.313 . S
O50 C49 1.313 . S
O51 Mg39 2.141 . S
O51 C42 1.289 . S
Mg52 O59 2.141 . S
Mg52 O60 2.048 . S
Mg52 O61 2.048 . S
Mg52 O64 2.141 . S
C53 O54 1.313 . S
C53 O60 1.195 . S
O54 C53 1.313 . S
C55 O56 1.245 . S
C55 O64 1.289 . S
O56 C55 1.245 . S
C57 O58 1.245 . S
C57 O59 1.289 . S
O58 C57 1.245 . S
O59 Mg52 2.141 . S
O59 C57 1.289 . S
O60 Mg52 2.048 . S
O60 C53 1.195 . S
O61 Mg52 2.048 . S
O61 C62 1.195 . S
C62 O61 1.195 . S
C62 O63 1.313 . S
O63 C62 1.313 . S
O64 Mg52 2.141 . S
O64 C55 1.289 . S
Mg65 O72 2.141 . S
Mg65 O73 2.048 . S
Mg65 O74 2.048 . S
Mg65 O77 2.141 . S
C66 O67 1.313 . S
C66 O73 1.195 . S
O67 C66 1.313 . S
C68 O69 1.245 . S
C68 O77 1.289 . S
O69 C68 1.245 . S
C70 O71 1.245 . S
C70 O72 1.289 . S
O71 C70 1.245 . S
O72 Mg65 2.141 . S
O72 C70 1.289 . S
O73 Mg65 2.048 . S
O73 C66 1.195 . S
O74 Mg65 2.048 . S
O74 C75 1.195 . S
C75 O74 1.195 . S
C75 O76 1.313 . S
O76 C75 1.313 . S
O77 Mg65 2.141 . S
O77 C68 1.289 . S
Mg78 O85 2.141 . S
Mg78 O86 2.048 . S
Mg78 O87 2.048 . S
Mg78 O90 2.141 . S
C79 O80 1.313 . S
C79 O86 1.195 . S
O80 C79 1.313 . S
C81 O82 1.245 . S
C81 O90 1.289 . S
O82 C81 1.245 . S
C83 O84 1.245 . S
C83 O85 1.289 . S
O84 C83 1.245 . S
O85 Mg78 2.141 . S
O85 C83 1.289 . S
O86 Mg78 2.048 . S
O86 C79 1.195 . S
O87 Mg78 2.048 . S
O87 C88 1.195 . S
C88 O87 1.195 . S
C88 O89 1.313 . S
O89 C88 1.313 . S
O90 Mg78 2.141 . S
O90 C81 1.289 . S
Mg91 O98 2.141 . S
Mg91 O99 2.048 . S
Mg91 O100 2.048 1_465 S
Mg91 O103 2.141 1_465 S
C92 O93 1.313 . S
C92 O99 1.195 . S
O93 C92 1.313 . S
C94 O95 1.256 . S
C94 O103 1.284 1_455 S
O95 C94 1.256 . S
C96 O97 1.245 . S
C96 O98 1.289 . S
O97 C96 1.245 . S
O98 Mg91 2.141 . S
O98 C96 1.289 . S
O99 Mg91 2.048 . S
O99 C92 1.195 . S
O100 Mg91 2.048 1_645 S
O100 C101 1.195 . S
C101 O100 1.195 . S
C101 O102 1.313 1_655 S
O102 C101 1.313 1_455 S
O103 Mg91 2.141 1_645 S
O103 C94 1.284 1_655 S
Co104 O105 2.216 1_554 S
Co104 O106 2.091 1_554 S
Co104 O108 2.004 . S
Co104 O114 2.021 1_554 S
Co104 O116 2.137 . S
Co104 O117 2.244 . S
O105 Co104 2.216 1_556 S
O105 C112 1.247 . S
O106 Co104 2.091 1_556 S
O106 C112 1.261 . S
C107 O116 1.247 . S
C107 O117 1.272 . S
O108 Co104 2.004 . S
O108 C113 1.259 . S
Co109 O110 2.061 . S
Co109 O115 2.052 1_554 S
Co109 O117 2.135 . S
O110 Co109 2.061 . S
O110 C113 1.235 . S
C111 O114 1.238 . S
C111 O115 1.241 . S
C112 O105 1.247 . S
C112 O106 1.261 . S
C113 O108 1.259 . S
C113 O110 1.235 . S
O114 Co104 2.021 1_556 S
O114 C111 1.238 . S
O115 Co109 2.052 1_556 S
O115 C111 1.241 . S
O116 Co104 2.137 . S
O116 C107 1.247 . S
O117 Co104 2.244 . S
O117 C107 1.272 . S
O117 Co109 2.135 . S
Co118 O119 2.216 . S
Co118 O120 2.091 . S
Co118 O122 2.004 . S
Co118 O128 2.021 . S
Co118 O130 2.137 . S
Co118 O131 2.244 . S
O119 Co118 2.216 . S
O119 C126 1.247 . S
O120 Co118 2.091 . S
O120 C126 1.261 . S
C121 O130 1.247 . S
C121 O131 1.272 . S
O122 Co118 2.004 . S
O122 C127 1.259 . S
Co123 O124 2.061 . S
Co123 O129 2.052 . S
Co123 O131 2.135 . S
O124 Co123 2.061 . S
O124 C127 1.235 . S
C125 O128 1.238 . S
C125 O129 1.241 . S
C126 O119 1.247 . S
C126 O120 1.261 . S
C127 O122 1.259 . S
C127 O124 1.235 . S
O128 Co118 2.021 . S
O128 C125 1.238 . S
O129 Co123 2.052 . S
O129 C125 1.241 . S
O130 Co118 2.137 . S
O130 C121 1.247 . S
O131 Co118 2.244 . S
O131 C121 1.272 . S
O131 Co123 2.135 . S
Co132 O133 2.216 . S
Co132 O134 2.091 . S
Co132 O136 2.004 . S
Co132 O142 2.021 . S
Co132 O144 2.137 . S
Co132 O145 2.244 . S
O133 Co132 2.216 . S
O133 C140 1.247 . S
O134 Co132 2.091 . S
O134 C140 1.261 . S
C135 O144 1.247 . S
C135 O145 1.272 . S
O136 Co132 2.004 . S
O136 C141 1.259 . S
Co137 O138 2.061 . S
Co137 O143 2.052 . S
Co137 O145 2.135 . S
O138 Co137 2.061 . S
O138 C141 1.235 . S
C139 O142 1.238 . S
C139 O143 1.241 . S
C140 O133 1.247 . S
C140 O134 1.261 . S
C141 O136 1.259 . S
C141 O138 1.235 . S
O142 Co132 2.021 . S
O142 C139 1.238 . S
O143 Co137 2.052 . S
O143 C139 1.241 . S
O144 Co132 2.137 . S
O144 C135 1.247 . S
O145 Co132 2.244 . S
O145 C135 1.272 . S
O145 Co137 2.135 . S
Co146 O147 2.216 . S
Co146 O148 2.091 . S
Co146 O150 2.004 . S
Co146 O156 2.021 . S
Co146 O158 2.137 . S
Co146 O159 2.244 . S
O147 Co146 2.216 . S
O147 C154 1.247 . S
O148 Co146 2.091 . S
O148 C154 1.261 . S
C149 O158 1.247 . S
C149 O159 1.272 . S
O150 Co146 2.004 . S
O150 C155 1.259 . S
Co151 O152 2.061 . S
Co151 O157 2.052 . S
Co151 O159 2.135 . S
O152 Co151 2.061 . S
O152 C155 1.235 . S
C153 O156 1.238 . S
C153 O157 1.241 . S
C154 O147 1.247 . S
C154 O148 1.261 . S
C155 O150 1.259 . S
C155 O152 1.235 . S
O156 Co146 2.021 . S
O156 C153 1.238 . S
O157 Co151 2.052 . S
O157 C153 1.241 . S
O158 Co146 2.137 . S
O158 C149 1.247 . S
O159 Co146 2.244 . S
O159 C149 1.272 . S
O159 Co151 2.135 . S
Co160 O161 2.216 . S
Co160 O162 2.091 . S
Co160 O164 2.004 . S
Co160 O170 2.021 . S
Co160 O172 2.137 . S
Co160 O173 2.244 . S
O161 Co160 2.216 . S
O161 C168 1.247 . S
O162 Co160 2.091 . S
O162 C168 1.261 . S
C163 O172 1.247 . S
C163 O173 1.272 . S
O164 Co160 2.004 . S
O164 C169 1.259 . S
Co165 O166 2.061 . S
Co165 O171 2.052 . S
Co165 O173 2.135 . S
O166 Co165 2.061 . S
O166 C169 1.235 . S
C167 O170 1.238 . S
C167 O171 1.241 . S
C168 O161 1.247 . S
C168 O162 1.261 . S
C169 O164 1.259 . S
C169 O166 1.235 . S
O170 Co160 2.021 . S
O170 C167 1.238 . S
O171 Co165 2.052 . S
O171 C167 1.241 . S
O172 Co160 2.137 . S
O172 C163 1.247 . S
O173 Co160 2.244 . S
O173 C163 1.272 . S
O173 Co165 2.135 . S
Co174 O175 2.216 . S
Co174 O176 2.091 . S
Co174 O178 2.004 . S
Co174 O184 2.021 . S
Co174 O186 2.137 . S
Co174 O187 2.244 . S
O175 Co174 2.216 . S
O175 C182 1.247 . S
O176 Co174 2.091 . S
O176 C182 1.261 . S
C177 O186 1.247 . S
C177 O187 1.272 . S
O178 Co174 2.004 . S
O178 C183 1.259 . S
Co179 O180 2.061 1_455 S
Co179 O185 2.056 . S
Co179 O187 2.135 1_455 S
O180 Co179 2.061 1_655 S
O180 C183 1.235 . S
C181 O184 1.238 . S
C181 O185 1.225 1_655 S
C182 O175 1.247 . S
C182 O176 1.261 . S
C183 O178 1.259 . S
C183 O180 1.235 . S
O184 Co174 2.021 . S
O184 C181 1.238 . S
O185 Co179 2.056 . S
O185 C181 1.225 1_455 S
O186 Co174 2.137 . S
O186 C177 1.247 . S
O187 Co174 2.244 . S
O187 C177 1.272 . S
O187 Co179 2.135 1_655 S
Co188 O189 2.216 . S
Co188 O190 2.091 . S
Co188 O192 2.004 . S
Co188 O198 2.021 . S
Co188 O200 2.137 1_554 S
Co188 O201 2.244 . S
O189 Co188 2.216 . S
O189 C196 1.247 . S
O190 Co188 2.091 . S
O190 C196 1.261 . S
C191 O200 1.247 . S
C191 O201 1.272 1_556 S
O192 Co188 2.004 . S
O192 C197 1.259 . S
Co193 O194 2.061 . S
Co193 O199 2.052 . S
Co193 O201 2.135 . S
O194 Co193 2.061 . S
O194 C197 1.235 . S
C195 O198 1.238 . S
C195 O199 1.241 . S
C196 O189 1.247 . S
C196 O190 1.261 . S
C197 O192 1.259 . S
C197 O194 1.235 . S
O198 Co188 2.021 . S
O198 C195 1.238 . S
O199 Co193 2.052 . S
O199 C195 1.241 . S
O200 Co188 2.137 1_556 S
O200 C191 1.247 . S
O201 Co188 2.244 . S
O201 C191 1.272 1_554 S
O201 Co193 2.135 . S
Co202 O203 2.216 . S
Co202 O204 2.091 . S
Co202 O206 2.004 . S
Co202 O212 2.021 . S
Co202 O214 2.137 . S
Co202 O215 2.244 . S
O203 Co202 2.216 . S
O203 C210 1.247 . S
O204 Co202 2.091 . S
O204 C210 1.261 . S
C205 O214 1.247 . S
C205 O215 1.272 . S
O206 Co202 2.004 . S
O206 C211 1.259 . S
Co207 O208 2.061 . S
Co207 O213 2.052 . S
Co207 O215 2.135 . S
O208 Co207 2.061 . S
O208 C211 1.235 . S
C209 O212 1.238 . S
C209 O213 1.241 . S
C210 O203 1.247 . S
C210 O204 1.261 . S
C211 O206 1.259 . S
C211 O208 1.235 . S
O212 Co202 2.021 . S
O212 C209 1.238 . S
O213 Co207 2.052 . S
O213 C209 1.241 . S
O214 Co202 2.137 . S
O214 C205 1.247 . S
O215 Co202 2.244 . S
O215 C205 1.272 . S
O215 Co207 2.135 . S
H216 C234 0.951 . S
H217 C236 0.951 . S
H218 C238 0.950 . S
H219 C239 0.950 . S
H220 C241 0.950 . S
H221 C244 0.950 . S
H222 C245 0.950 . S
H223 C247 0.950 . S
H224 C248 0.950 . S
H225 C249 0.951 . S
H226 C251 0.951 . S
H227 C253 0.950 . S
H228 C254 0.950 . S
H229 C256 0.950 . S
H230 C259 0.950 . S
H231 C260 0.950 . S
H232 C262 0.950 . S
H233 C263 0.950 . S
C234 H216 0.951 . S
C234 C235 1.366 . S
C234 C236 1.388 . S
C235 C234 1.366 . S
C235 C239 1.385 . S
C236 H217 0.951 . S
C236 C234 1.388 . S
C236 C237 1.366 . S
C237 C236 1.366 . S
C237 C238 1.414 . S
C237 C240 1.499 . S
C238 H218 0.950 . S
C238 C237 1.414 . S
C238 C239 1.374 . S
C239 H219 0.950 . S
C239 C235 1.385 . S
C239 C238 1.374 . S
C240 C237 1.499 . S
C240 C241 1.373 . S
C240 C242 1.389 . S
C241 H220 0.950 . S
C241 C240 1.373 . S
C241 C257 1.377 . S
C242 C240 1.389 . S
C242 C243 1.524 1_565 S
C242 C256 1.377 . S
C243 C242 1.524 1_545 S
C243 C244 1.397 . S
C243 C248 1.363 . S
C244 H221 0.950 . S
C244 C243 1.397 . S
C244 C245 1.334 . S
C245 H222 0.950 . S
C245 C244 1.334 . S
C245 C246 1.287 . S
C246 C245 1.287 . S
C246 C247 1.524 . S
C246 H265 0.913 . S
C247 H223 0.950 . S
C247 C246 1.524 . S
C247 C248 1.415 . S
C248 H224 0.950 . S
C248 C243 1.363 . S
C248 C247 1.415 . S
C249 H225 0.951 . S
C249 C250 1.366 . S
C249 C251 1.388 . S
C250 C249 1.366 . S
C250 C254 1.385 . S
C251 H226 0.951 . S
C251 C249 1.388 . S
C251 C252 1.366 . S
C252 C251 1.366 . S
C252 C253 1.414 . S
C252 C255 1.499 . S
C253 H227 0.950 . S
C253 C252 1.414 . S
C253 C254 1.374 . S
C254 H228 0.950 . S
C254 C250 1.385 . S
C254 C253 1.374 . S
C255 C252 1.499 . S
C255 C256 1.373 . S
C255 C257 1.389 . S
C256 H229 0.950 . S
C256 C242 1.377 . S
C256 C255 1.373 . S
C257 C241 1.377 . S
C257 C255 1.389 . S
C257 C258 1.524 . S
C258 C257 1.524 . S
C258 C259 1.397 . S
C258 C263 1.363 . S
C259 H230 0.950 . S
C259 C258 1.397 . S
C259 C260 1.334 . S
C260 H231 0.950 . S
C260 C259 1.334 . S
C260 C261 1.287 . S
C261 C260 1.287 . S
C261 C262 1.524 . S
C261 H264 0.999 . S
C262 H232 0.950 . S
C262 C261 1.524 . S
C262 C263 1.415 . S
C263 H233 0.950 . S
C263 C258 1.363 . S
C263 C262 1.415 . S
H264 C261 0.999 . S
H265 C246 0.913 . S
H266 C284 0.951 . S
H267 C286 0.951 . S
H268 C288 0.950 . S
H269 C289 0.950 . S
H270 C291 0.950 . S
H271 C294 0.950 . S
H272 C295 0.950 . S
H273 C297 0.950 . S
H274 C298 0.950 . S
H275 C299 0.951 . S
H276 C301 0.951 . S
H277 C303 0.950 . S
H278 C304 0.950 . S
H279 C306 0.950 . S
H280 C309 0.950 . S
H281 C310 0.950 . S
H282 C312 0.950 . S
H283 C313 0.950 . S
C284 H266 0.951 . S
C284 C285 1.366 . S
C284 C286 1.388 . S
C285 C284 1.366 . S
C285 C289 1.385 . S
C286 H267 0.951 . S
C286 C284 1.388 . S
C286 C287 1.366 . S
C287 C286 1.366 . S
C287 C288 1.414 . S
C287 C290 1.499 . S
C288 H268 0.950 . S
C288 C287 1.414 . S
C288 C289 1.374 . S
C289 H269 0.950 . S
C289 C285 1.385 . S
C289 C288 1.374 . S
C290 C287 1.499 . S
C290 C291 1.373 . S
C290 C292 1.389 . S
C291 H270 0.950 . S
C291 C290 1.373 . S
C291 C307 1.377 . S
C292 C290 1.389 . S
C292 C293 1.524 . S
C292 C306 1.377 . S
C293 C292 1.524 . S
C293 C294 1.397 . S
C293 C298 1.363 . S
C294 H271 0.950 . S
C294 C293 1.397 . S
C294 C295 1.334 . S
C295 H272 0.950 . S
C295 C294 1.334 . S
C295 C296 1.287 . S
C296 C295 1.287 . S
C296 C297 1.524 . S
C296 H315 0.913 . S
C297 H273 0.950 . S
C297 C296 1.524 . S
C297 C298 1.415 . S
C298 H274 0.950 . S
C298 C293 1.363 . S
C298 C297 1.415 . S
C299 H275 0.951 . S
C299 C300 1.366 . S
C299 C301 1.388 . S
C300 C299 1.366 . S
C300 C304 1.385 . S
C301 H276 0.951 . S
C301 C299 1.388 . S
C301 C302 1.366 . S
C302 C301 1.366 . S
C302 C303 1.414 . S
C302 C305 1.499 . S
C303 H277 0.950 . S
C303 C302 1.414 . S
C303 C304 1.374 . S
C304 H278 0.950 . S
C304 C300 1.385 . S
C304 C303 1.374 . S
C305 C302 1.499 . S
C305 C306 1.373 . S
C305 C307 1.389 . S
C306 H279 0.950 . S
C306 C292 1.377 . S
C306 C305 1.373 . S
C307 C291 1.377 . S
C307 C305 1.389 . S
C307 C308 1.524 . S
C308 C307 1.524 . S
C308 C309 1.397 . S
C308 C313 1.363 . S
C309 H280 0.950 . S
C309 C308 1.397 . S
C309 C310 1.334 . S
C310 H281 0.950 . S
C310 C309 1.334 . S
C310 C311 1.287 . S
C311 C310 1.287 . S
C311 C312 1.524 . S
C311 H314 0.999 . S
C312 H282 0.950 . S
C312 C311 1.524 . S
C312 C313 1.415 . S
C313 H283 0.950 . S
C313 C308 1.363 . S
C313 C312 1.415 . S
H314 C311 0.999 . S
H315 C296 0.913 . S
H316 C334 0.951 . S
H317 C336 0.951 . S
H318 C338 0.950 . S
H319 C339 0.950 . S
H320 C341 0.950 . S
H321 C344 0.950 . S
H322 C345 0.950 . S
H323 C347 0.950 . S
H324 C348 0.950 . S
H325 C349 0.951 . S
H326 C351 0.951 . S
H327 C353 0.950 . S
H328 C354 0.950 . S
H329 C356 0.950 . S
H330 C359 0.950 . S
H331 C360 0.950 . S
H332 C362 0.950 . S
H333 C363 0.950 . S
C334 H316 0.951 . S
C334 C335 1.366 . S
C334 C336 1.388 . S
C335 C334 1.366 . S
C335 C339 1.385 . S
C336 H317 0.951 . S
C336 C334 1.388 . S
C336 C337 1.366 . S
C337 C336 1.366 . S
C337 C338 1.414 . S
C337 C340 1.499 . S
C338 H318 0.950 . S
C338 C337 1.414 . S
C338 C339 1.374 . S
C339 H319 0.950 . S
C339 C335 1.385 . S
C339 C338 1.374 . S
C340 C337 1.499 . S
C340 C341 1.373 . S
C340 C342 1.389 . S
C341 H320 0.950 . S
C341 C340 1.373 . S
C341 C357 1.377 . S
C342 C340 1.389 . S
C342 C343 1.524 . S
C342 C356 1.377 . S
C343 C342 1.524 . S
C343 C344 1.397 . S
C343 C348 1.363 . S
C344 H321 0.950 . S
C344 C343 1.397 . S
C344 C345 1.334 . S
C345 H322 0.950 . S
C345 C344 1.334 . S
C345 C346 1.287 . S
C346 C345 1.287 . S
C346 C347 1.524 . S
C346 H365 0.913 . S
C347 H323 0.950 . S
C347 C346 1.524 . S
C347 C348 1.415 . S
C348 H324 0.950 . S
C348 C343 1.363 . S
C348 C347 1.415 . S
C349 H325 0.951 . S
C349 C350 1.366 . S
C349 C351 1.388 . S
C350 C349 1.366 . S
C350 C354 1.385 . S
C351 H326 0.951 . S
C351 C349 1.388 . S
C351 C352 1.366 . S
C352 C351 1.366 . S
C352 C353 1.414 . S
C352 C355 1.499 . S
C353 H327 0.950 . S
C353 C352 1.414 . S
C353 C354 1.374 . S
C354 H328 0.950 . S
C354 C350 1.385 . S
C354 C353 1.374 . S
C355 C352 1.499 . S
C355 C356 1.373 . S
C355 C357 1.389 . S
C356 H329 0.950 . S
C356 C342 1.377 . S
C356 C355 1.373 . S
C357 C341 1.377 . S
C357 C355 1.389 . S
C357 C358 1.524 . S
C358 C357 1.524 . S
C358 C359 1.397 . S
C358 C363 1.363 . S
C359 H330 0.950 . S
C359 C358 1.397 . S
C359 C360 1.334 . S
C360 H331 0.950 . S
C360 C359 1.334 . S
C360 C361 1.287 . S
C361 C360 1.287 . S
C361 C362 1.524 . S
C361 H364 0.999 . S
C362 H332 0.950 . S
C362 C361 1.524 . S
C362 C363 1.415 . S
C363 H333 0.950 . S
C363 C358 1.363 . S
C363 C362 1.415 . S
H364 C361 0.999 . S
H365 C346 0.913 . S
H366 C384 0.951 . S
H367 C386 0.951 . S
H368 C388 0.950 . S
H369 C389 0.950 . S
H370 C391 0.950 . S
H371 C394 0.950 . S
H372 C395 0.950 . S
H373 C397 0.950 . S
H374 C398 0.950 . S
H375 C399 0.951 . S
H376 C401 0.951 . S
H377 C403 0.950 . S
H378 C404 0.950 1_556 S
H379 C406 0.950 . S
H380 C409 0.950 . S
H381 C410 0.950 . S
H382 C412 0.950 . S
H383 C413 0.950 . S
C384 H366 0.951 . S
C384 C385 1.366 . S
C384 C386 1.388 . S
C385 C384 1.366 . S
C385 C389 1.385 . S
C386 H367 0.951 . S
C386 C384 1.388 . S
C386 C387 1.366 . S
C387 C386 1.366 . S
C387 C388 1.414 . S
C387 C390 1.499 . S
C388 H368 0.950 . S
C388 C387 1.414 . S
C388 C389 1.374 . S
C389 H369 0.950 . S
C389 C385 1.385 . S
C389 C388 1.374 . S
C390 C387 1.499 . S
C390 C391 1.373 1_545 S
C390 C392 1.389 . S
C391 H370 0.950 . S
C391 C390 1.373 1_565 S
C391 C407 1.377 . S
C392 C390 1.389 . S
C392 C393 1.524 . S
C392 C406 1.377 1_545 S
C393 C392 1.524 . S
C393 C394 1.397 . S
C393 C398 1.363 . S
C394 H371 0.950 . S
C394 C393 1.397 . S
C394 C395 1.334 . S
C395 H372 0.950 . S
C395 C394 1.334 . S
C395 C396 1.287 . S
C396 C395 1.287 . S
C396 C397 1.524 . S
C396 H415 0.913 . S
C397 H373 0.950 . S
C397 C396 1.524 . S
C397 C398 1.415 . S
C398 H374 0.950 . S
C398 C393 1.363 . S
C398 C397 1.415 . S
C399 H375 0.951 . S
C399 C400 1.366 . S
C399 C401 1.388 . S
C400 C399 1.366 . S
C400 C404 1.385 . S
C401 H376 0.951 . S
C401 C399 1.388 . S
C401 C402 1.366 . S
C402 C401 1.366 . S
C402 C403 1.414 . S
C402 C405 1.499 . S
C403 H377 0.950 . S
C403 C402 1.414 . S
C403 C404 1.374 . S
C404 H378 0.950 1_554 S
C404 C400 1.385 . S
C404 C403 1.374 . S
C405 C402 1.499 . S
C405 C406 1.373 . S
C405 C407 1.389 . S
C406 H379 0.950 . S
C406 C392 1.377 1_565 S
C406 C405 1.373 . S
C407 C391 1.377 . S
C407 C405 1.389 . S
C407 C408 1.524 . S
C408 C407 1.524 . S
C408 C409 1.397 . S
C408 C413 1.363 . S
C409 H380 0.950 . S
C409 C408 1.397 . S
C409 C410 1.334 . S
C410 H381 0.950 . S
C410 C409 1.334 . S
C410 C411 1.287 . S
C411 C410 1.287 . S
C411 C412 1.524 . S
C411 H414 0.999 . S
C412 H382 0.950 . S
C412 C411 1.524 . S
C412 C413 1.415 . S
C413 H383 0.950 . S
C413 C408 1.363 . S
C413 C412 1.415 . S
H414 C411 0.999 . S
H415 C396 0.913 . S
H416 C434 0.951 . S
H417 C436 0.951 . S
H418 C438 0.950 . S
H419 C439 0.950 . S
H420 C441 0.950 . S
H421 C444 0.950 . S
H422 C445 0.950 . S
H423 C447 0.950 . S
H424 C448 0.950 . S
H425 C449 0.951 . S
H426 C451 0.951 . S
H427 C453 0.950 . S
H428 C454 0.950 . S
H429 C456 0.950 . S
H430 C459 0.950 . S
H431 C460 0.950 . S
H432 C462 0.950 . S
H433 C463 0.950 . S
C434 H416 0.951 . S
C434 C435 1.366 . S
C434 C436 1.388 . S
C435 C434 1.366 . S
C435 C439 1.385 . S
C436 H417 0.951 . S
C436 C434 1.388 . S
C436 C437 1.366 . S
C437 C436 1.366 . S
C437 C438 1.414 . S
C437 C440 1.499 . S
C438 H418 0.950 . S
C438 C437 1.414 . S
C438 C439 1.374 . S
C439 H419 0.950 . S
C439 C435 1.385 . S
C439 C438 1.374 . S
C440 C437 1.499 . S
C440 C441 1.373 . S
C440 C442 1.389 . S
C441 H420 0.950 . S
C441 C440 1.373 . S
C441 C457 1.377 . S
C442 C440 1.389 . S
C442 C443 1.524 . S
C442 C456 1.377 . S
C443 C442 1.524 . S
C443 C444 1.397 . S
C443 C448 1.363 . S
C444 H421 0.950 . S
C444 C443 1.397 . S
C444 C445 1.334 . S
C445 H422 0.950 . S
C445 C444 1.334 . S
C445 C446 1.287 . S
C446 C445 1.287 . S
C446 C447 1.524 . S
C446 H465 0.913 . S
C447 H423 0.950 . S
C447 C446 1.524 . S
C447 C448 1.415 . S
C448 H424 0.950 . S
C448 C443 1.363 . S
C448 C447 1.415 . S
C449 H425 0.951 . S
C449 C450 1.366 . S
C449 C451 1.388 . S
C450 C449 1.366 . S
C450 C454 1.385 . S
C451 H426 0.951 . S
C451 C449 1.388 . S
C451 C452 1.366 . S
C452 C451 1.366 . S
C452 C453 1.414 . S
C452 C455 1.499 . S
C453 H427 0.950 . S
C453 C452 1.414 . S
C453 C454 1.374 . S
C454 H428 0.950 . S
C454 C450 1.385 . S
C454 C453 1.374 . S
C455 C452 1.499 . S
C455 C456 1.373 . S
C455 C457 1.389 . S
C456 H429 0.950 . S
C456 C442 1.377 . S
C456 C455 1.373 . S
C457 C441 1.377 . S
C457 C455 1.389 . S
C457 C458 1.524 . S
C458 C457 1.524 . S
C458 C459 1.397 1_556 S
C458 C463 1.363 . S
C459 H430 0.950 . S
C459 C458 1.397 1_554 S
C459 C460 1.334 . S
C460 H431 0.950 . S
C460 C459 1.334 . S
C460 C461 1.287 . S
C461 C460 1.287 . S
C461 C462 1.524 1_554 S
C461 H464 0.999 . S
C462 H432 0.950 . S
C462 C461 1.524 1_556 S
C462 C463 1.415 . S
C463 H433 0.950 . S
C463 C458 1.363 . S
C463 C462 1.415 . S
H464 C461 0.999 . S
H465 C446 0.913 . S
H466 C484 0.951 . S
H467 C486 0.951 . S
H468 C488 0.950 . S
H469 C489 0.950 . S
H470 C491 0.950 . S
H471 C494 0.950 . S
H472 C495 0.950 . S
H473 C497 0.950 . S
H474 C498 0.950 . S
H475 C499 0.951 . S
H476 C501 0.951 . S
H477 C503 0.950 . S
H478 C504 0.950 . S
H479 C506 0.950 . S
H480 C509 0.950 . S
H481 C510 0.950 . S
H482 C512 0.950 . S
H483 C513 0.950 . S
C484 H466 0.951 . S
C484 C485 1.366 . S
C484 C486 1.388 . S
C485 C484 1.366 . S
C485 C489 1.385 . S
C486 H467 0.951 . S
C486 C484 1.388 . S
C486 C487 1.366 . S
C487 C486 1.366 . S
C487 C488 1.414 . S
C487 C490 1.499 . S
C488 H468 0.950 . S
C488 C487 1.414 . S
C488 C489 1.374 . S
C489 H469 0.950 . S
C489 C485 1.385 . S
C489 C488 1.374 . S
C490 C487 1.499 . S
C490 C491 1.373 . S
C490 C492 1.389 . S
C491 H470 0.950 . S
C491 C490 1.373 . S
C491 C507 1.377 . S
C492 C490 1.389 . S
C492 C493 1.524 . S
C492 C506 1.377 . S
C493 C492 1.524 . S
C493 C494 1.397 . S
C493 C498 1.363 . S
C494 H471 0.950 . S
C494 C493 1.397 . S
C494 C495 1.334 . S
C495 H472 0.950 . S
C495 C494 1.334 . S
C495 C496 1.287 . S
C496 C495 1.287 . S
C496 C497 1.524 . S
C496 H515 0.913 . S
C497 H473 0.950 . S
C497 C496 1.524 . S
C497 C498 1.415 . S
C498 H474 0.950 . S
C498 C493 1.363 . S
C498 C497 1.415 . S
C499 H475 0.951 . S
C499 C500 1.366 . S
C499 C501 1.388 . S
C500 C499 1.366 . S
C500 C504 1.385 . S
C501 H476 0.951 . S
C501 C499 1.388 . S
C501 C502 1.366 . S
C502 C501 1.366 . S
C502 C503 1.414 . S
C502 C505 1.499 . S
C503 H477 0.950 . S
C503 C502 1.414 . S
C503 C504 1.374 . S
C504 H478 0.950 . S
C504 C500 1.385 . S
C504 C503 1.374 . S
C505 C502 1.499 . S
C505 C506 1.373 . S
C505 C507 1.389 . S
C506 H479 0.950 . S
C506 C492 1.377 . S
C506 C505 1.373 . S
C507 C491 1.377 . S
C507 C505 1.389 . S
C507 C508 1.524 . S
C508 C507 1.524 . S
C508 C509 1.397 . S
C508 C513 1.363 . S
C509 H480 0.950 . S
C509 C508 1.397 . S
C509 C510 1.334 . S
C510 H481 0.950 . S
C510 C509 1.334 . S
C510 C511 1.287 . S
C511 C510 1.287 . S
C511 C512 1.524 . S
C511 H514 0.999 . S
C512 H482 0.950 . S
C512 C511 1.524 . S
C512 C513 1.415 . S
C513 H483 0.950 . S
C513 C508 1.363 . S
C513 C512 1.415 . S
H514 C511 0.999 . S
H515 C496 0.913 . S
H516 C534 0.951 . S
H517 C536 0.951 . S
H518 C538 0.950 . S
H519 C539 0.950 . S
H520 C541 0.950 . S
H521 C544 0.950 . S
H522 C545 0.950 . S
H523 C547 0.950 . S
H524 C548 0.951 . S
H525 C549 0.951 . S
H526 C551 0.951 . S
H527 C553 0.950 . S
H528 C554 0.950 . S
H529 C556 0.950 . S
H530 C559 0.950 . S
H531 C560 0.950 . S
H532 C562 0.950 . S
H533 C563 0.950 . S
C534 H516 0.951 . S
C534 C535 1.366 . S
C534 C536 1.388 . S
C535 C534 1.366 . S
C535 C539 1.385 . S
C536 H517 0.951 . S
C536 C534 1.388 . S
C536 C537 1.366 . S
C537 C536 1.366 . S
C537 C538 1.414 . S
C537 C540 1.499 . S
C538 H518 0.950 . S
C538 C537 1.414 . S
C538 C539 1.374 . S
C539 H519 0.950 . S
C539 C535 1.385 . S
C539 C538 1.374 . S
C540 C537 1.499 . S
C540 C541 1.373 . S
C540 C542 1.389 . S
C541 H520 0.950 . S
C541 C540 1.373 . S
C541 C557 1.377 . S
C542 C540 1.389 . S
C542 C543 1.524 1_545 S
C542 C556 1.377 1_545 S
C543 C542 1.524 1_565 S
C543 C544 1.397 . S
C543 C548 1.363 . S
C544 H521 0.950 . S
C544 C543 1.397 . S
C544 C545 1.334 . S
C545 H522 0.950 . S
C545 C544 1.334 . S
C545 C546 1.287 . S
C546 C545 1.287 . S
C546 C547 1.524 . S
C546 H565 0.913 . S
C547 H523 0.950 . S
C547 C546 1.524 . S
C547 C548 1.415 . S
C548 H524 0.951 . S
C548 C543 1.363 . S
C548 C547 1.415 . S
C549 H525 0.951 . S
C549 C550 1.366 . S
C549 C551 1.388 . S
C550 C549 1.366 . S
C550 C554 1.385 . S
C551 H526 0.951 . S
C551 C549 1.388 . S
C551 C552 1.366 . S
C552 C551 1.366 . S
C552 C553 1.414 . S
C552 C555 1.499 . S
C553 H527 0.950 . S
C553 C552 1.414 . S
C553 C554 1.374 . S
C554 H528 0.950 . S
C554 C550 1.385 . S
C554 C553 1.374 . S
C555 C552 1.499 . S
C555 C556 1.373 . S
C555 C557 1.389 1_565 S
C556 H529 0.950 . S
C556 C542 1.377 1_565 S
C556 C555 1.373 . S
C557 C541 1.377 . S
C557 C555 1.389 1_545 S
C557 C558 1.524 . S
C558 C557 1.524 . S
C558 C559 1.397 . S
C558 C563 1.363 . S
C559 H530 0.950 . S
C559 C558 1.397 . S
C559 C560 1.334 . S
C560 H531 0.950 . S
C560 C559 1.334 . S
C560 C561 1.287 . S
C561 C560 1.287 . S
C561 C562 1.524 . S
C561 H564 0.999 . S
C562 H532 0.950 . S
C562 C561 1.524 . S
C562 C563 1.415 . S
C563 H533 0.950 . S
C563 C558 1.363 . S
C563 C562 1.415 . S
H564 C561 0.999 . S
H565 C546 0.913 . S
H566 C584 0.951 . S
H567 C586 0.951 . S
H568 C588 0.950 . S
H569 C589 0.950 . S
H570 C591 0.950 . S
H571 C594 0.950 . S
H572 C595 0.950 . S
H573 C597 0.950 . S
H574 C598 0.950 . S
H575 C599 0.951 . S
H576 C601 0.951 . S
H577 C603 0.950 . S
H578 C604 0.950 . S
H579 C606 0.950 . S
H580 C609 0.950 . S
H581 C610 0.950 . S
H582 C612 0.950 . S
H583 C613 0.950 . S
C584 H566 0.951 . S
C584 C585 1.366 . S
C584 C586 1.388 . S
C585 C584 1.366 . S
C585 C589 1.385 . S
C586 H567 0.951 . S
C586 C584 1.388 . S
C586 C587 1.366 . S
C587 C586 1.366 . S
C587 C588 1.414 . S
C587 C590 1.499 . S
C588 H568 0.950 . S
C588 C587 1.414 . S
C588 C589 1.374 . S
C589 H569 0.950 . S
C589 C585 1.385 . S
C589 C588 1.374 . S
C590 C587 1.499 . S
C590 C591 1.373 . S
C590 C592 1.389 . S
C591 H570 0.950 . S
C591 C590 1.373 . S
C591 C607 1.377 . S
C592 C590 1.389 . S
C592 C593 1.524 . S
C592 C606 1.377 . S
C593 C592 1.524 . S
C593 C594 1.397 . S
C593 C598 1.363 . S
C594 H571 0.950 . S
C594 C593 1.397 . S
C594 C595 1.334 . S
C595 H572 0.950 . S
C595 C594 1.334 . S
C595 C596 1.287 . S
C596 C595 1.287 . S
C596 C597 1.524 . S
C596 H615 0.913 . S
C597 H573 0.950 . S
C597 C596 1.524 . S
C597 C598 1.415 . S
C598 H574 0.950 . S
C598 C593 1.363 . S
C598 C597 1.415 . S
C599 H575 0.951 . S
C599 C600 1.366 . S
C599 C601 1.388 . S
C600 C599 1.366 . S
C600 C604 1.385 . S
C601 H576 0.951 . S
C601 C599 1.388 . S
C601 C602 1.366 . S
C602 C601 1.366 . S
C602 C603 1.414 . S
C602 C605 1.499 . S
C603 H577 0.950 . S
C603 C602 1.414 . S
C603 C604 1.374 . S
C604 H578 0.950 . S
C604 C600 1.385 . S
C604 C603 1.374 . S
C605 C602 1.499 . S
C605 C606 1.373 . S
C605 C607 1.389 . S
C606 H579 0.950 . S
C606 C592 1.377 . S
C606 C605 1.373 . S
C607 C591 1.377 . S
C607 C605 1.389 . S
C607 C608 1.524 . S
C608 C607 1.524 . S
C608 C609 1.397 . S
C608 C613 1.363 . S
C609 H580 0.950 . S
C609 C608 1.397 . S
C609 C610 1.334 . S
C610 H581 0.950 . S
C610 C609 1.334 . S
C610 C611 1.287 . S
C611 C610 1.287 . S
C611 C612 1.524 . S
C611 H614 0.999 . S
C612 H582 0.950 . S
C612 C611 1.524 . S
C612 C613 1.415 . S
C613 H583 0.950 . S
C613 C608 1.363 . S
C613 C612 1.415 . S
H614 C611 0.999 . S
H615 C596 0.913 . S
H616 C634 0.951 . S
H617 C636 0.951 . S
H618 C638 0.950 . S
H619 C639 0.950 . S
H620 C641 0.950 . S
H621 C644 0.950 . S
H622 C645 0.950 . S
H623 C647 0.950 . S
H624 C648 0.950 . S
H625 C649 0.951 . S
H626 C651 0.951 . S
H627 C653 0.950 . S
H628 C654 0.950 . S
H629 C656 0.950 . S
H630 C659 0.950 . S
H631 C660 0.950 . S
H632 C662 0.950 . S
H633 C663 0.950 . S
C634 H616 0.951 . S
C634 C635 1.366 . S
C634 C636 1.388 . S
C635 C634 1.366 . S
C635 C639 1.385 . S
C636 H617 0.951 . S
C636 C634 1.388 . S
C636 C637 1.366 . S
C637 C636 1.366 . S
C637 C638 1.414 . S
C637 C640 1.499 . S
C638 H618 0.950 . S
C638 C637 1.414 . S
C638 C639 1.374 . S
C639 H619 0.950 . S
C639 C635 1.385 . S
C639 C638 1.374 . S
C640 C637 1.499 . S
C640 C641 1.373 . S
C640 C642 1.389 . S
C641 H620 0.950 . S
C641 C640 1.373 . S
C641 C657 1.377 . S
C642 C640 1.389 . S
C642 C643 1.524 . S
C642 C656 1.377 . S
C643 C642 1.524 . S
C643 C644 1.397 . S
C643 C648 1.363 . S
C644 H621 0.950 . S
C644 C643 1.397 . S
C644 C645 1.334 . S
C645 H622 0.950 . S
C645 C644 1.334 . S
C645 C646 1.287 . S
C646 C645 1.287 . S
C646 C647 1.524 . S
C646 H665 0.913 . S
C647 H623 0.950 . S
C647 C646 1.524 . S
C647 C648 1.415 . S
C648 H624 0.950 . S
C648 C643 1.363 . S
C648 C647 1.415 . S
C649 H625 0.951 . S
C649 C650 1.366 . S
C649 C651 1.388 . S
C650 C649 1.366 . S
C650 C654 1.385 . S
C651 H626 0.951 . S
C651 C649 1.388 . S
C651 C652 1.366 . S
C652 C651 1.366 . S
C652 C653 1.414 . S
C652 C655 1.499 . S
C653 H627 0.950 . S
C653 C652 1.414 . S
C653 C654 1.374 . S
C654 H628 0.950 . S
C654 C650 1.385 . S
C654 C653 1.374 . S
C655 C652 1.499 . S
C655 C656 1.373 . S
C655 C657 1.389 . S
C656 H629 0.950 . S
C656 C642 1.377 . S
C656 C655 1.373 . S
C657 C641 1.377 . S
C657 C655 1.389 . S
C657 C658 1.524 . S
C658 C657 1.524 . S
C658 C659 1.397 . S
C658 C663 1.363 . S
C659 H630 0.950 . S
C659 C658 1.397 . S
C659 C660 1.334 . S
C660 H631 0.950 . S
C660 C659 1.334 . S
C660 C661 1.287 . S
C661 C660 1.287 . S
C661 C662 1.524 . S
C661 H664 0.999 . S
C662 H632 0.950 . S
C662 C661 1.524 . S
C662 C663 1.415 . S
C663 H633 0.950 . S
C663 C658 1.363 . S
C663 C662 1.415 . S
H664 C661 0.999 . S
H665 C646 0.913 . S
H666 C684 0.951 . S
H667 C686 0.951 . S
H668 C688 0.950 . S
H669 C689 0.950 . S
H670 C691 0.950 . S
H671 C694 0.950 . S
H672 C695 0.950 . S
H673 C697 0.950 . S
H674 C698 0.950 . S
H675 C699 0.951 . S
H676 C701 0.951 . S
H677 C703 0.950 . S
H678 C704 0.950 . S
H679 C706 0.950 . S
H680 C709 0.950 . S
H681 C710 0.950 . S
H682 C712 0.950 . S
H683 C713 0.950 . S
C684 H666 0.951 . S
C684 C685 1.366 . S
C684 C686 1.388 . S
C685 C684 1.366 . S
C685 C689 1.385 . S
C686 H667 0.951 . S
C686 C684 1.388 . S
C686 C687 1.366 . S
C687 C686 1.366 . S
C687 C688 1.414 . S
C687 C690 1.499 . S
C688 H668 0.950 . S
C688 C687 1.414 . S
C688 C689 1.374 . S
C689 H669 0.950 . S
C689 C685 1.385 . S
C689 C688 1.374 . S
C690 C687 1.499 . S
C690 C691 1.373 . S
C690 C692 1.389 . S
C691 H670 0.950 . S
C691 C690 1.373 . S
C691 C707 1.377 . S
C692 C690 1.389 . S
C692 C693 1.524 . S
C692 C706 1.377 . S
C693 C692 1.524 . S
C693 C694 1.397 . S
C693 C698 1.363 . S
C694 H671 0.950 . S
C694 C693 1.397 . S
C694 C695 1.334 . S
C695 H672 0.950 . S
C695 C694 1.334 . S
C695 C696 1.287 . S
C696 C695 1.287 . S
C696 C697 1.524 . S
C696 H715 0.913 . S
C697 H673 0.950 . S
C697 C696 1.524 . S
C697 C698 1.415 . S
C698 H674 0.950 . S
C698 C693 1.363 . S
C698 C697 1.415 . S
C699 H675 0.951 . S
C699 C700 1.366 . S
C699 C701 1.388 . S
C700 C699 1.366 . S
C700 C704 1.385 . S
C701 H676 0.951 . S
C701 C699 1.388 . S
C701 C702 1.366 . S
C702 C701 1.366 . S
C702 C703 1.414 . S
C702 C705 1.499 . S
C703 H677 0.950 . S
C703 C702 1.414 . S
C703 C704 1.374 . S
C704 H678 0.950 . S
C704 C700 1.385 . S
C704 C703 1.374 . S
C705 C702 1.499 . S
C705 C706 1.373 . S
C705 C707 1.389 . S
C706 H679 0.950 . S
C706 C692 1.377 . S
C706 C705 1.373 . S
C707 C691 1.377 . S
C707 C705 1.389 . S
C707 C708 1.524 . S
C708 C707 1.524 . S
C708 C709 1.397 . S
C708 C713 1.363 . S
C709 H680 0.950 . S
C709 C708 1.397 . S
C709 C710 1.334 . S
C710 H681 0.950 . S
C710 C709 1.334 . S
C710 C711 1.287 . S
C711 C710 1.287 . S
C711 C712 1.524 . S
C711 H714 0.999 . S
C712 H682 0.950 . S
C712 C711 1.524 . S
C712 C713 1.415 . S
C713 H683 0.950 . S
C713 C708 1.363 . S
C713 C712 1.415 . S
H714 C711 0.999 . S
H715 C696 0.913 . S
H716 C734 0.951 . S
H717 C736 0.951 . S
H718 C738 0.950 . S
H719 C739 0.950 . S
H720 C741 0.950 . S
H721 C744 0.950 . S
H722 C745 0.950 . S
H723 C747 0.950 . S
H724 C748 0.950 . S
H725 C749 0.951 . S
H726 C751 0.951 . S
H727 C753 0.950 . S
H728 C754 0.950 . S
H729 C756 0.950 . S
H730 C759 0.950 . S
H731 C760 0.950 . S
H732 C762 0.950 . S
H733 C763 0.950 . S
C734 H716 0.951 . S
C734 C735 1.366 . S
C734 C736 1.388 . S
C735 C734 1.366 . S
C735 C739 1.385 . S
C736 H717 0.951 . S
C736 C734 1.388 . S
C736 C737 1.366 . S
C737 C736 1.366 . S
C737 C738 1.414 . S
C737 C740 1.499 . S
C738 H718 0.950 . S
C738 C737 1.414 . S
C738 C739 1.374 . S
C739 H719 0.950 . S
C739 C735 1.385 . S
C739 C738 1.374 . S
C740 C737 1.499 . S
C740 C741 1.373 . S
C740 C742 1.389 . S
C741 H720 0.950 . S
C741 C740 1.373 . S
C741 C757 1.377 . S
C742 C740 1.389 . S
C742 C743 1.524 . S
C742 C756 1.377 . S
C743 C742 1.524 . S
C743 C744 1.397 . S
C743 C748 1.363 . S
C744 H721 0.950 . S
C744 C743 1.397 . S
C744 C745 1.334 . S
C745 H722 0.950 . S
C745 C744 1.334 . S
C745 C746 1.287 . S
C746 C745 1.287 . S
C746 C747 1.524 . S
C746 H765 0.913 . S
C747 H723 0.950 . S
C747 C746 1.524 . S
C747 C748 1.415 . S
C748 H724 0.950 . S
C748 C743 1.363 . S
C748 C747 1.415 . S
C749 H725 0.951 . S
C749 C750 1.366 . S
C749 C751 1.388 . S
C750 C749 1.366 . S
C750 C754 1.385 . S
C751 H726 0.951 . S
C751 C749 1.388 . S
C751 C752 1.366 . S
C752 C751 1.366 . S
C752 C753 1.414 . S
C752 C755 1.499 . S
C753 H727 0.950 . S
C753 C752 1.414 . S
C753 C754 1.374 . S
C754 H728 0.950 . S
C754 C750 1.385 . S
C754 C753 1.374 . S
C755 C752 1.499 . S
C755 C756 1.373 . S
C755 C757 1.389 . S
C756 H729 0.950 . S
C756 C742 1.377 . S
C756 C755 1.373 . S
C757 C741 1.377 . S
C757 C755 1.389 . S
C757 C758 1.524 . S
C758 C757 1.524 . S
C758 C759 1.397 . S
C758 C763 1.363 . S
C759 H730 0.950 . S
C759 C758 1.397 . S
C759 C760 1.334 . S
C760 H731 0.950 . S
C760 C759 1.334 . S
C760 C761 1.287 . S
C761 C760 1.287 . S
C761 C762 1.524 . S
C761 H764 0.999 . S
C762 H732 0.950 . S
C762 C761 1.524 . S
C762 C763 1.415 . S
C763 H733 0.950 . S
C763 C758 1.363 . S
C763 C762 1.415 . S
H764 C761 0.999 . S
H765 C746 0.913 . S
H766 C784 0.951 . S
H767 C786 0.951 . S
H768 C788 0.950 . S
H769 C789 0.950 . S
H770 C791 0.950 . S
H771 C794 0.950 . S
H772 C795 0.948 1_455 S
H773 C797 0.950 . S
H774 C798 0.950 . S
H775 C799 0.951 . S
H776 C801 0.951 . S
H777 C803 0.950 . S
H778 C804 0.950 . S
H779 C806 0.950 . S
H780 C809 0.950 1_655 S
H781 C810 0.950 . S
H782 C812 0.950 . S
H783 C813 0.950 . S
C784 H766 0.951 . S
C784 C785 1.366 . S
C784 C786 1.388 . S
C785 C784 1.366 . S
C785 C789 1.385 . S
C786 H767 0.951 . S
C786 C784 1.388 . S
C786 C787 1.366 . S
C787 C786 1.366 . S
C787 C788 1.414 . S
C787 C790 1.499 . S
C788 H768 0.950 . S
C788 C787 1.414 . S
C788 C789 1.374 . S
C789 H769 0.950 . S
C789 C785 1.385 . S
C789 C788 1.374 . S
C790 C787 1.499 . S
C790 C791 1.373 . S
C790 C792 1.389 . S
C791 H770 0.950 . S
C791 C790 1.373 . S
C791 C807 1.377 . S
C792 C790 1.389 . S
C792 C793 1.524 1_455 S
C792 C806 1.377 1_455 S
C793 C792 1.524 1_655 S
C793 C794 1.397 1_655 S
C793 C798 1.363 . S
C794 H771 0.950 . S
C794 C793 1.397 1_455 S
C794 C795 1.333 1_455 S
C795 H772 0.948 1_655 S
C795 C794 1.333 1_655 S
C795 C796 1.290 . S
C796 C795 1.290 . S
C796 C797 1.524 . S
C796 H815 0.913 . S
C797 H773 0.950 . S
C797 C796 1.524 . S
C797 C798 1.415 . S
C798 H774 0.950 . S
C798 C793 1.363 . S
C798 C797 1.415 . S
C799 H775 0.951 . S
C799 C800 1.366 . S
C799 C801 1.388 . S
C800 C799 1.366 . S
C800 C804 1.385 . S
C801 H776 0.951 . S
C801 C799 1.388 . S
C801 C802 1.366 . S
C802 C801 1.366 . S
C802 C803 1.414 . S
C802 C805 1.499 . S
C803 H777 0.950 . S
C803 C802 1.414 . S
C803 C804 1.374 . S
C804 H778 0.950 . S
C804 C800 1.385 . S
C804 C803 1.374 . S
C805 C802 1.499 . S
C805 C806 1.373 . S
C805 C807 1.389 1_655 S
C806 H779 0.950 . S
C806 C792 1.377 1_655 S
C806 C805 1.373 . S
C807 C791 1.377 . S
C807 C805 1.389 1_455 S
C807 C808 1.524 . S
C808 C807 1.524 . S
C808 C809 1.397 . S
C808 C813 1.363 . S
C809 H780 0.950 1_455 S
C809 C808 1.397 . S
C809 C810 1.334 . S
C810 H781 0.950 . S
C810 C809 1.334 . S
C810 C811 1.287 . S
C811 C810 1.287 . S
C811 C812 1.524 . S
C811 H814 0.999 . S
C812 H782 0.950 . S
C812 C811 1.524 . S
C812 C813 1.415 . S
C813 H783 0.950 . S
C813 C808 1.363 . S
C813 C812 1.415 . S
H814 C811 0.999 . S
H815 C796 0.913 . S
H816 C834 0.951 . S
H817 C836 0.951 . S
H818 C838 0.950 . S
H819 C839 0.950 . S
H820 C841 0.950 . S
H821 C844 0.950 . S
H822 C845 0.950 . S
H823 C847 0.950 . S
H824 C848 0.950 . S
H825 C849 0.951 . S
H826 C851 0.951 . S
H827 C853 0.950 . S
H828 C854 0.950 . S
H829 C856 0.950 . S
H830 C859 0.950 . S
H831 C860 0.950 . S
H832 C862 0.950 . S
H833 C863 0.950 . S
C834 H816 0.951 . S
C834 C835 1.366 . S
C834 C836 1.388 . S
C835 C834 1.366 . S
C835 C839 1.385 . S
C836 H817 0.951 . S
C836 C834 1.388 . S
C836 C837 1.366 . S
C837 C836 1.366 . S
C837 C838 1.414 . S
C837 C840 1.499 . S
C838 H818 0.950 . S
C838 C837 1.414 . S
C838 C839 1.374 . S
C839 H819 0.950 . S
C839 C835 1.385 . S
C839 C838 1.374 . S
C840 C837 1.499 . S
C840 C841 1.373 . S
C840 C842 1.389 . S
C841 H820 0.950 . S
C841 C840 1.373 . S
C841 C857 1.377 . S
C842 C840 1.389 . S
C842 C843 1.524 . S
C842 C856 1.377 . S
C843 C842 1.524 . S
C843 C844 1.397 . S
C843 C848 1.363 . S
C844 H821 0.950 . S
C844 C843 1.397 . S
C844 C845 1.334 . S
C845 H822 0.950 . S
C845 C844 1.334 . S
C845 C846 1.287 . S
C846 C845 1.287 . S
C846 C847 1.524 . S
C846 H865 0.913 . S
C847 H823 0.950 . S
C847 C846 1.524 . S
C847 C848 1.415 . S
C848 H824 0.950 . S
C848 C843 1.363 . S
C848 C847 1.415 . S
C849 H825 0.951 . S
C849 C850 1.366 . S
C849 C851 1.388 . S
C850 C849 1.366 . S
C850 C854 1.385 . S
C851 H826 0.951 . S
C851 C849 1.388 . S
C851 C852 1.366 . S
C852 C851 1.366 . S
C852 C853 1.414 . S
C852 C855 1.499 . S
C853 H827 0.950 . S
C853 C852 1.414 . S
C853 C854 1.374 . S
C854 H828 0.950 . S
C854 C850 1.385 . S
C854 C853 1.374 . S
C855 C852 1.499 . S
C855 C856 1.373 . S
C855 C857 1.389 . S
C856 H829 0.950 . S
C856 C842 1.377 . S
C856 C855 1.373 . S
C857 C841 1.377 . S
C857 C855 1.389 . S
C857 C858 1.524 . S
C858 C857 1.524 . S
C858 C859 1.397 . S
C858 C863 1.363 . S
C859 H830 0.950 . S
C859 C858 1.397 . S
C859 C860 1.334 . S
C860 H831 0.950 . S
C860 C859 1.334 . S
C860 C861 1.287 . S
C861 C860 1.287 . S
C861 C862 1.524 . S
C861 H864 0.999 . S
C862 H832 0.950 . S
C862 C861 1.524 . S
C862 C863 1.415 . S
C863 H833 0.950 . S
C863 C858 1.363 . S
C863 C862 1.415 . S
H864 C861 0.999 . S
H865 C846 0.913 . S
H866 C884 0.951 . S
H867 C886 0.951 . S
H868 C888 0.950 . S
H869 C889 0.950 . S
H870 C891 0.950 1_455 S
H871 C894 0.950 . S
H872 C895 0.950 . S
H873 C897 0.950 . S
H874 C898 0.950 . S
H875 C899 0.951 . S
H876 C901 0.951 . S
H877 C903 0.950 . S
H878 C904 0.950 . S
H879 C906 0.950 . S
H880 C909 0.950 . S
H881 C910 0.950 . S
H882 C912 0.950 . S
H883 C913 0.950 . S
C884 H866 0.951 . S
C884 C885 1.366 . S
C884 C886 1.388 . S
C885 C884 1.366 . S
C885 C889 1.385 . S
C886 H867 0.951 . S
C886 C884 1.388 . S
C886 C887 1.366 . S
C887 C886 1.366 . S
C887 C888 1.414 . S
C887 C890 1.499 . S
C888 H868 0.950 . S
C888 C887 1.414 . S
C888 C889 1.374 . S
C889 H869 0.950 . S
C889 C885 1.385 . S
C889 C888 1.374 . S
C890 C887 1.499 . S
C890 C891 1.373 . S
C890 C892 1.389 . S
C891 H870 0.950 1_655 S
C891 C890 1.373 . S
C891 C907 1.377 . S
C892 C890 1.389 . S
C892 C893 1.524 . S
C892 C906 1.377 . S
C893 C892 1.524 . S
C893 C894 1.397 . S
C893 C898 1.363 . S
C894 H871 0.950 . S
C894 C893 1.397 . S
C894 C895 1.334 . S
C895 H872 0.950 . S
C895 C894 1.334 . S
C895 C896 1.287 . S
C896 C895 1.287 . S
C896 C897 1.524 . S
C896 H915 0.913 . S
C897 H873 0.950 . S
C897 C896 1.524 . S
C897 C898 1.415 . S
C898 H874 0.950 . S
C898 C893 1.363 . S
C898 C897 1.415 . S
C899 H875 0.951 . S
C899 C900 1.366 . S
C899 C901 1.388 . S
C900 C899 1.366 . S
C900 C904 1.385 . S
C901 H876 0.951 . S
C901 C899 1.388 . S
C901 C902 1.366 . S
C902 C901 1.366 . S
C902 C903 1.414 . S
C902 C905 1.499 . S
C903 H877 0.950 . S
C903 C902 1.414 . S
C903 C904 1.374 . S
C904 H878 0.950 . S
C904 C900 1.385 . S
C904 C903 1.374 . S
C905 C902 1.499 . S
C905 C906 1.373 . S
C905 C907 1.389 . S
C906 H879 0.950 . S
C906 C892 1.377 . S
C906 C905 1.373 . S
C907 C891 1.377 . S
C907 C905 1.389 . S
C907 C908 1.524 1_655 S
C908 C907 1.524 1_455 S
C908 C909 1.397 . S
C908 C913 1.363 . S
C909 H880 0.950 . S
C909 C908 1.397 . S
C909 C910 1.334 . S
C910 H881 0.950 . S
C910 C909 1.334 . S
C910 C911 1.287 . S
C911 C910 1.287 . S
C911 C912 1.524 . S
C911 H914 0.999 . S
C912 H882 0.950 . S
C912 C911 1.524 . S
C912 C913 1.415 . S
C913 H883 0.950 . S
C913 C908 1.363 . S
C913 C912 1.415 . S
H914 C911 0.999 . S
H915 C896 0.913 . S
H916 C934 0.951 . S
H917 C936 0.951 . S
H918 C938 0.950 . S
H919 C939 0.950 . S
H920 C941 0.950 . S
H921 C944 0.950 . S
H922 C945 0.950 . S
H923 C947 0.950 . S
H924 C948 0.950 . S
H925 C949 0.951 . S
H926 C951 0.951 . S
H927 C953 0.950 . S
H928 C954 0.950 . S
H929 C956 0.950 . S
H930 C959 0.914 1_554 S
H931 C960 0.950 . S
H932 C962 0.950 . S
H933 C963 0.950 . S
C934 H916 0.951 . S
C934 C935 1.366 . S
C934 C936 1.388 . S
C935 C934 1.366 . S
C935 C939 1.385 . S
C936 H917 0.951 . S
C936 C934 1.388 . S
C936 C937 1.366 . S
C937 C936 1.366 . S
C937 C938 1.414 . S
C937 C940 1.499 . S
C938 H918 0.950 . S
C938 C937 1.414 . S
C938 C939 1.374 . S
C939 H919 0.950 . S
C939 C935 1.385 . S
C939 C938 1.374 . S
C940 C937 1.499 . S
C940 C941 1.373 . S
C940 C942 1.389 . S
C941 H920 0.950 . S
C941 C940 1.373 . S
C941 C957 1.377 1_455 S
C942 C940 1.389 . S
C942 C943 1.524 . S
C942 C956 1.377 1_455 S
C943 C942 1.524 . S
C943 C944 1.397 . S
C943 C948 1.363 . S
C944 H921 0.950 . S
C944 C943 1.397 . S
C944 C945 1.334 . S
C945 H922 0.950 . S
C945 C944 1.334 . S
C945 C946 1.287 . S
C946 C945 1.287 . S
C946 C947 1.524 . S
C946 H965 0.913 . S
C947 H923 0.950 . S
C947 C946 1.524 . S
C947 C948 1.415 . S
C948 H924 0.950 . S
C948 C943 1.363 . S
C948 C947 1.415 . S
C949 H925 0.951 . S
C949 C950 1.366 1_556 S
C949 C951 1.388 . S
C950 C949 1.366 1_554 S
C950 C954 1.385 . S
C951 H926 0.951 . S
C951 C949 1.388 . S
C951 C952 1.366 . S
C952 C951 1.366 . S
C952 C953 1.414 1_556 S
C952 C955 1.499 . S
C953 H927 0.950 . S
C953 C952 1.414 1_554 S
C953 C954 1.374 . S
C954 H928 0.950 . S
C954 C950 1.385 . S
C954 C953 1.374 . S
C955 C952 1.499 . S
C955 C956 1.373 . S
C955 C957 1.389 . S
C956 H929 0.950 . S
C956 C942 1.377 1_655 S
C956 C955 1.373 . S
C957 C941 1.377 1_655 S
C957 C955 1.389 . S
C957 C958 1.524 . S
C958 C957 1.524 . S
C958 C959 1.450 . S
C958 C963 1.363 . S
C959 H930 0.914 1_556 S
C959 C958 1.450 . S
C959 C960 1.318 1_556 S
C960 H931 0.950 . S
C960 C959 1.318 1_554 S
C960 C961 1.287 1_554 S
C961 C960 1.287 1_556 S
C961 C962 1.524 . S
C961 H964 0.999 . S
C962 H932 0.950 . S
C962 C961 1.524 . S
C962 C963 1.415 . S
C963 H933 0.950 . S
C963 C958 1.363 . S
C963 C962 1.415 . S
H964 C961 0.999 . S
H965 C946 0.913 . S
H966 C984 0.951 . S
H967 C986 0.951 . S
H968 C988 0.950 . S
H969 C989 0.950 . S
H970 C991 0.950 . S
H971 C994 0.950 . S
H972 C995 0.950 . S
H973 C997 0.950 . S
H974 C998 0.950 . S
H975 C999 0.951 . S
H976 C1001 0.951 . S
H977 C1003 0.950 . S
H978 C1004 0.950 . S
H979 C1006 0.950 . S
H980 C1009 0.950 . S
H981 C1010 0.950 . S
H982 C1012 0.950 . S
H983 C1013 0.950 . S
C984 H966 0.951 . S
C984 C985 1.366 . S
C984 C986 1.388 . S
C985 C984 1.366 . S
C985 C989 1.385 . S
C986 H967 0.951 . S
C986 C984 1.388 . S
C986 C987 1.366 . S
C987 C986 1.366 . S
C987 C988 1.414 . S
C987 C990 1.499 . S
C988 H968 0.950 . S
C988 C987 1.414 . S
C988 C989 1.374 . S
C989 H969 0.950 . S
C989 C985 1.385 . S
C989 C988 1.374 . S
C990 C987 1.499 . S
C990 C991 1.373 . S
C990 C992 1.389 . S
C991 H970 0.950 . S
C991 C990 1.373 . S
C991 C1007 1.377 . S
C992 C990 1.389 . S
C992 C993 1.524 . S
C992 C1006 1.377 . S
C993 C992 1.524 . S
C993 C994 1.397 . S
C993 C998 1.363 . S
C994 H971 0.950 . S
C994 C993 1.397 . S
C994 C995 1.334 . S
C995 H972 0.950 . S
C995 C994 1.334 . S
C995 C996 1.287 . S
C996 C995 1.287 . S
C996 C997 1.524 . S
C996 H1015 0.913 . S
C997 H973 0.950 . S
C997 C996 1.524 . S
C997 C998 1.415 . S
C998 H974 0.950 . S
C998 C993 1.363 . S
C998 C997 1.415 . S
C999 H975 0.951 . S
C999 C1000 1.366 . S
C999 C1001 1.388 . S
C1000 C999 1.366 . S
C1000 C1004 1.385 . S
C1001 H976 0.951 . S
C1001 C999 1.388 . S
C1001 C1002 1.366 . S
C1002 C1001 1.366 . S
C1002 C1003 1.414 . S
C1002 C1005 1.499 . S
C1003 H977 0.950 . S
C1003 C1002 1.414 . S
C1003 C1004 1.374 . S
C1004 H978 0.950 . S
C1004 C1000 1.385 . S
C1004 C1003 1.374 . S
C1005 C1002 1.499 . S
C1005 C1006 1.373 . S
C1005 C1007 1.389 . S
C1006 H979 0.950 . S
C1006 C992 1.377 . S
C1006 C1005 1.373 . S
C1007 C991 1.377 . S
C1007 C1005 1.389 . S
C1007 C1008 1.524 . S
C1008 C1007 1.524 . S
C1008 C1009 1.397 . S
C1008 C1013 1.363 . S
C1009 H980 0.950 . S
C1009 C1008 1.397 . S
C1009 C1010 1.334 . S
C1010 H981 0.950 . S
C1010 C1009 1.334 . S
C1010 C1011 1.287 . S
C1011 C1010 1.287 . S
C1011 C1012 1.524 . S
C1011 H1014 0.999 . S
C1012 H982 0.950 . S
C1012 C1011 1.524 . S
C1012 C1013 1.415 . S
C1013 H983 0.950 . S
C1013 C1008 1.363 . S
C1013 C1012 1.415 . S
H1014 C1011 0.999 . S
H1015 C996 0.913 . S
H1016 C1034 0.951 . S
H1017 C1036 0.951 . S
H1018 C1038 0.950 . S
H1019 C1039 0.950 . S
H1020 C1041 0.950 . S
H1021 C1044 0.950 . S
H1022 C1045 0.950 . S
H1023 C1047 0.950 . S
H1024 C1048 0.950 . S
H1025 C1049 0.951 . S
H1026 C1051 0.951 . S
H1027 C1053 0.950 . S
H1028 C1054 0.950 . S
H1029 C1056 0.950 . S
H1030 C1059 0.950 . S
H1031 C1060 0.950 . S
H1032 C1062 0.950 . S
H1033 C1063 0.950 . S
C1034 H1016 0.951 . S
C1034 C1035 1.366 . S
C1034 C1036 1.388 . S
C1035 C1034 1.366 . S
C1035 C1039 1.385 . S
C1036 H1017 0.951 . S
C1036 C1034 1.388 . S
C1036 C1037 1.366 . S
C1037 C1036 1.366 . S
C1037 C1038 1.414 . S
C1037 C1040 1.499 . S
C1038 H1018 0.950 . S
C1038 C1037 1.414 . S
C1038 C1039 1.374 . S
C1039 H1019 0.950 . S
C1039 C1035 1.385 . S
C1039 C1038 1.374 . S
C1040 C1037 1.499 . S
C1040 C1041 1.373 . S
C1040 C1042 1.389 . S
C1041 H1020 0.950 . S
C1041 C1040 1.373 . S
C1041 C1057 1.377 . S
C1042 C1040 1.389 . S
C1042 C1043 1.524 . S
C1042 C1056 1.377 . S
C1043 C1042 1.524 . S
C1043 C1044 1.397 . S
C1043 C1048 1.363 . S
C1044 H1021 0.950 . S
C1044 C1043 1.397 . S
C1044 C1045 1.334 . S
C1045 H1022 0.950 . S
C1045 C1044 1.334 . S
C1045 C1046 1.287 . S
C1046 C1045 1.287 . S
C1046 C1047 1.524 . S
C1046 H1065 0.913 . S
C1047 H1023 0.950 . S
C1047 C1046 1.524 . S
C1047 C1048 1.415 . S
C1048 H1024 0.950 . S
C1048 C1043 1.363 . S
C1048 C1047 1.415 . S
C1049 H1025 0.951 . S
C1049 C1050 1.366 . S
C1049 C1051 1.388 . S
C1050 C1049 1.366 . S
C1050 C1054 1.385 . S
C1051 H1026 0.951 . S
C1051 C1049 1.388 . S
C1051 C1052 1.366 . S
C1052 C1051 1.366 . S
C1052 C1053 1.414 . S
C1052 C1055 1.499 . S
C1053 H1027 0.950 . S
C1053 C1052 1.414 . S
C1053 C1054 1.374 . S
C1054 H1028 0.950 . S
C1054 C1050 1.385 . S
C1054 C1053 1.374 . S
C1055 C1052 1.499 . S
C1055 C1056 1.373 . S
C1055 C1057 1.389 . S
C1056 H1029 0.950 . S
C1056 C1042 1.377 . S
C1056 C1055 1.373 . S
C1057 C1041 1.377 . S
C1057 C1055 1.389 . S
C1057 C1058 1.524 . S
C1058 C1057 1.524 . S
C1058 C1059 1.397 . S
C1058 C1063 1.363 . S
C1059 H1030 0.950 . S
C1059 C1058 1.397 . S
C1059 C1060 1.334 . S
C1060 H1031 0.950 . S
C1060 C1059 1.334 . S
C1060 C1061 1.287 . S
C1061 C1060 1.287 . S
C1061 C1062 1.524 . S
C1061 H1064 0.999 . S
C1062 H1032 0.950 . S
C1062 C1061 1.524 . S
C1062 C1063 1.415 . S
C1063 H1033 0.950 . S
C1063 C1058 1.363 . S
C1063 C1062 1.415 . S
H1064 C1061 0.999 . S
H1065 C1046 0.913 . S
H1066 C1084 0.951 . S
H1067 C1086 0.951 . S
H1068 C1088 0.950 . S
H1069 C1089 0.950 . S
H1070 C1091 0.950 . S
H1071 C1094 0.950 . S
H1072 C1095 0.950 . S
H1073 C1097 0.950 . S
H1074 C1098 0.950 . S
H1075 C1099 0.951 . S
H1076 C1101 0.951 . S
H1077 C1103 0.950 . S
H1078 C1104 0.950 . S
H1079 C1106 0.950 . S
H1080 C1109 0.950 . S
H1081 C1110 0.950 . S
H1082 C1112 0.950 . S
H1083 C1113 0.950 . S
C1084 H1066 0.951 . S
C1084 C1085 1.366 . S
C1084 C1086 1.388 . S
C1085 C1084 1.366 . S
C1085 C1089 1.385 . S
C1086 H1067 0.951 . S
C1086 C1084 1.388 . S
C1086 C1087 1.366 . S
C1087 C1086 1.366 . S
C1087 C1088 1.414 . S
C1087 C1090 1.499 . S
C1088 H1068 0.950 . S
C1088 C1087 1.414 . S
C1088 C1089 1.374 . S
C1089 H1069 0.950 . S
C1089 C1085 1.385 . S
C1089 C1088 1.374 . S
C1090 C1087 1.499 . S
C1090 C1091 1.373 . S
C1090 C1092 1.389 . S
C1091 H1070 0.950 . S
C1091 C1090 1.373 . S
C1091 C1107 1.377 . S
C1092 C1090 1.389 . S
C1092 C1093 1.524 . S
C1092 C1106 1.377 . S
C1093 C1092 1.524 . S
C1093 C1094 1.397 . S
C1093 C1098 1.363 . S
C1094 H1071 0.950 . S
C1094 C1093 1.397 . S
C1094 C1095 1.334 . S
C1095 H1072 0.950 . S
C1095 C1094 1.334 . S
C1095 C1096 1.287 . S
C1096 C1095 1.287 . S
C1096 C1097 1.524 . S
C1096 H1115 0.913 . S
C1097 H1073 0.950 . S
C1097 C1096 1.524 . S
C1097 C1098 1.415 . S
C1098 H1074 0.950 . S
C1098 C1093 1.363 . S
C1098 C1097 1.415 . S
C1099 H1075 0.951 . S
C1099 C1100 1.366 . S
C1099 C1101 1.388 . S
C1100 C1099 1.366 . S
C1100 C1104 1.385 . S
C1101 H1076 0.951 . S
C1101 C1099 1.388 . S
C1101 C1102 1.366 . S
C1102 C1101 1.366 . S
C1102 C1103 1.414 . S
C1102 C1105 1.499 . S
C1103 H1077 0.950 . S
C1103 C1102 1.414 . S
C1103 C1104 1.374 . S
C1104 H1078 0.950 . S
C1104 C1100 1.385 . S
C1104 C1103 1.374 . S
C1105 C1102 1.499 . S
C1105 C1106 1.373 . S
C1105 C1107 1.389 . S
C1106 H1079 0.950 . S
C1106 C1092 1.377 . S
C1106 C1105 1.373 . S
C1107 C1091 1.377 . S
C1107 C1105 1.389 . S
C1107 C1108 1.524 . S
C1108 C1107 1.524 . S
C1108 C1109 1.397 . S
C1108 C1113 1.363 . S
C1109 H1080 0.950 . S
C1109 C1108 1.397 . S
C1109 C1110 1.334 . S
C1110 H1081 0.950 . S
C1110 C1109 1.334 . S
C1110 C1111 1.287 . S
C1111 C1110 1.287 . S
C1111 C1112 1.524 . S
C1111 H1114 0.999 . S
C1112 H1082 0.950 . S
C1112 C1111 1.524 . S
C1112 C1113 1.415 . S
C1113 H1083 0.950 . S
C1113 C1108 1.363 . S
C1113 C1112 1.415 . S
H1114 C1111 0.999 . S
H1115 C1096 0.913 . S
H1116 C1134 0.951 . S
H1117 C1136 0.951 . S
H1118 C1138 0.950 . S
H1119 C1139 0.950 . S
H1120 C1141 0.950 . S
H1121 C1144 0.950 . S
H1122 C1145 0.950 . S
H1123 C1147 0.950 . S
H1124 C1148 0.950 . S
H1125 C1149 0.951 . S
H1126 C1151 0.951 . S
H1127 C1153 0.950 . S
H1128 C1154 0.950 . S
H1129 C1156 0.950 . S
H1130 C1159 0.950 . S
H1131 C1160 0.950 . S
H1132 C1162 0.950 . S
H1133 C1163 0.950 . S
C1134 H1116 0.951 . S
C1134 C1135 1.366 . S
C1134 C1136 1.388 . S
C1135 C1134 1.366 . S
C1135 C1139 1.385 . S
C1136 H1117 0.951 . S
C1136 C1134 1.388 . S
C1136 C1137 1.366 . S
C1137 C1136 1.366 . S
C1137 C1138 1.414 . S
C1137 C1140 1.499 . S
C1138 H1118 0.950 . S
C1138 C1137 1.414 . S
C1138 C1139 1.374 . S
C1139 H1119 0.950 . S
C1139 C1135 1.385 . S
C1139 C1138 1.374 . S
C1140 C1137 1.499 . S
C1140 C1141 1.373 . S
C1140 C1142 1.389 . S
C1141 H1120 0.950 . S
C1141 C1140 1.373 . S
C1141 C1157 1.377 . S
C1142 C1140 1.389 . S
C1142 C1143 1.524 . S
C1142 C1156 1.377 . S
C1143 C1142 1.524 . S
C1143 C1144 1.397 . S
C1143 C1148 1.363 . S
C1144 H1121 0.950 . S
C1144 C1143 1.397 . S
C1144 C1145 1.334 . S
C1145 H1122 0.950 . S
C1145 C1144 1.334 . S
C1145 C1146 1.287 . S
C1146 C1145 1.287 . S
C1146 C1147 1.524 . S
C1146 H1165 0.913 . S
C1147 H1123 0.950 . S
C1147 C1146 1.524 . S
C1147 C1148 1.415 . S
C1148 H1124 0.950 . S
C1148 C1143 1.363 . S
C1148 C1147 1.415 . S
C1149 H1125 0.951 . S
C1149 C1150 1.366 . S
C1149 C1151 1.388 . S
C1150 C1149 1.366 . S
C1150 C1154 1.385 . S
C1151 H1126 0.951 . S
C1151 C1149 1.388 . S
C1151 C1152 1.366 . S
C1152 C1151 1.366 . S
C1152 C1153 1.414 . S
C1152 C1155 1.499 . S
C1153 H1127 0.950 . S
C1153 C1152 1.414 . S
C1153 C1154 1.374 . S
C1154 H1128 0.950 . S
C1154 C1150 1.385 . S
C1154 C1153 1.374 . S
C1155 C1152 1.499 . S
C1155 C1156 1.373 . S
C1155 C1157 1.389 . S
C1156 H1129 0.950 . S
C1156 C1142 1.377 . S
C1156 C1155 1.373 . S
C1157 C1141 1.377 . S
C1157 C1155 1.389 . S
C1157 C1158 1.524 . S
C1158 C1157 1.524 . S
C1158 C1159 1.397 . S
C1158 C1163 1.363 . S
C1159 H1130 0.950 . S
C1159 C1158 1.397 . S
C1159 C1160 1.334 . S
C1160 H1131 0.950 . S
C1160 C1159 1.334 . S
C1160 C1161 1.287 . S
C1161 C1160 1.287 . S
C1161 C1162 1.524 . S
C1161 H1164 0.999 . S
C1162 H1132 0.950 . S
C1162 C1161 1.524 . S
C1162 C1163 1.415 . S
C1163 H1133 0.950 . S
C1163 C1158 1.363 . S
C1163 C1162 1.415 . S
H1164 C1161 0.999 . S
H1165 C1146 0.913 . S
H1166 C1184 0.951 . S
H1167 C1186 0.951 . S
H1168 C1188 0.950 . S
H1169 C1189 0.950 . S
H1170 C1191 0.950 . S
H1171 C1194 0.950 . S
H1172 C1195 0.950 . S
H1173 C1197 0.945 1_565 S
H1174 C1198 0.950 . S
H1175 C1199 0.951 . S
H1176 C1201 0.951 . S
H1177 C1203 0.950 . S
H1178 C1204 0.950 . S
H1179 C1206 0.950 . S
H1180 C1209 0.950 . S
H1181 C1210 0.950 . S
H1182 C1212 0.950 . S
H1183 C1213 0.950 . S
C1184 H1166 0.951 . S
C1184 C1185 1.366 . S
C1184 C1186 1.388 . S
C1185 C1184 1.366 . S
C1185 C1189 1.385 . S
C1186 H1167 0.951 . S
C1186 C1184 1.388 . S
C1186 C1187 1.366 . S
C1187 C1186 1.366 . S
C1187 C1188 1.414 . S
C1187 C1190 1.499 . S
C1188 H1168 0.950 . S
C1188 C1187 1.414 . S
C1188 C1189 1.374 . S
C1189 H1169 0.950 . S
C1189 C1185 1.385 . S
C1189 C1188 1.374 . S
C1190 C1187 1.499 . S
C1190 C1191 1.373 . S
C1190 C1192 1.389 . S
C1191 H1170 0.950 . S
C1191 C1190 1.373 . S
C1191 C1207 1.377 . S
C1192 C1190 1.389 . S
C1192 C1193 1.524 . S
C1192 C1206 1.377 . S
C1193 C1192 1.524 . S
C1193 C1194 1.397 . S
C1193 C1198 1.363 . S
C1194 H1171 0.950 . S
C1194 C1193 1.397 . S
C1194 C1195 1.334 1_545 S
C1195 H1172 0.950 . S
C1195 C1194 1.334 1_565 S
C1195 C1196 1.287 . S
C1196 C1195 1.287 . S
C1196 C1197 1.517 1_565 S
C1196 H1215 0.913 . S
C1197 H1173 0.945 1_545 S
C1197 C1196 1.517 1_545 S
C1197 C1198 1.427 . S
C1198 H1174 0.950 . S
C1198 C1193 1.363 . S
C1198 C1197 1.427 . S
C1199 H1175 0.951 . S
C1199 C1200 1.366 . S
C1199 C1201 1.388 1_565 S
C1200 C1199 1.366 . S
C1200 C1204 1.385 . S
C1201 H1176 0.951 . S
C1201 C1199 1.388 1_545 S
C1201 C1202 1.366 . S
C1202 C1201 1.366 . S
C1202 C1203 1.414 . S
C1202 C1205 1.499 . S
C1203 H1177 0.950 . S
C1203 C1202 1.414 . S
C1203 C1204 1.374 1_545 S
C1204 H1178 0.950 . S
C1204 C1200 1.385 . S
C1204 C1203 1.374 1_565 S
C1205 C1202 1.499 . S
C1205 C1206 1.373 . S
C1205 C1207 1.389 . S
C1206 H1179 0.950 . S
C1206 C1192 1.377 . S
C1206 C1205 1.373 . S
C1207 C1191 1.377 . S
C1207 C1205 1.389 . S
C1207 C1208 1.524 . S
C1208 C1207 1.524 . S
C1208 C1209 1.397 . S
C1208 C1213 1.363 . S
C1209 H1180 0.950 . S
C1209 C1208 1.397 . S
C1209 C1210 1.334 . S
C1210 H1181 0.950 . S
C1210 C1209 1.334 . S
C1210 C1211 1.287 . S
C1211 C1210 1.287 . S
C1211 C1212 1.524 . S
C1211 H1214 0.999 . S
C1212 H1182 0.950 . S
C1212 C1211 1.524 . S
C1212 C1213 1.415 . S
C1213 H1183 0.950 . S
C1213 C1208 1.363 . S
C1213 C1212 1.415 . S
H1214 C1211 0.999 . S
H1215 C1196 0.913 . S
H1216 C1234 0.951 . S
H1217 C1236 0.951 . S
H1218 C1238 0.950 . S
H1219 C1239 0.950 . S
H1220 C1241 0.950 . S
H1221 C1244 0.950 . S
H1222 C1245 0.950 . S
H1223 C1247 0.950 . S
H1224 C1248 0.950 . S
H1225 C1249 0.951 . S
H1226 C1251 0.951 . S
H1227 C1253 0.950 . S
H1228 C1254 0.950 . S
H1229 C1256 0.950 . S
H1230 C1259 0.950 . S
H1231 C1260 0.950 . S
H1232 C1262 0.950 . S
H1233 C1263 0.950 . S
C1234 H1216 0.951 . S
C1234 C1235 1.366 . S
C1234 C1236 1.388 . S
C1235 C1234 1.366 . S
C1235 C1239 1.385 . S
C1236 H1217 0.951 . S
C1236 C1234 1.388 . S
C1236 C1237 1.366 . S
C1237 C1236 1.366 . S
C1237 C1238 1.414 . S
C1237 C1240 1.499 . S
C1238 H1218 0.950 . S
C1238 C1237 1.414 . S
C1238 C1239 1.374 . S
C1239 H1219 0.950 . S
C1239 C1235 1.385 . S
C1239 C1238 1.374 . S
C1240 C1237 1.499 . S
C1240 C1241 1.373 . S
C1240 C1242 1.389 . S
C1241 H1220 0.950 . S
C1241 C1240 1.373 . S
C1241 C1257 1.377 . S
C1242 C1240 1.389 . S
C1242 C1243 1.524 . S
C1242 C1256 1.377 . S
C1243 C1242 1.524 . S
C1243 C1244 1.397 . S
C1243 C1248 1.363 . S
C1244 H1221 0.950 . S
C1244 C1243 1.397 . S
C1244 C1245 1.334 . S
C1245 H1222 0.950 . S
C1245 C1244 1.334 . S
C1245 C1246 1.287 . S
C1246 C1245 1.287 . S
C1246 C1247 1.524 . S
C1246 H1265 0.913 . S
C1247 H1223 0.950 . S
C1247 C1246 1.524 . S
C1247 C1248 1.415 . S
C1248 H1224 0.950 . S
C1248 C1243 1.363 . S
C1248 C1247 1.415 . S
C1249 H1225 0.951 . S
C1249 C1250 1.366 . S
C1249 C1251 1.388 . S
C1250 C1249 1.366 . S
C1250 C1254 1.385 . S
C1251 H1226 0.951 . S
C1251 C1249 1.388 . S
C1251 C1252 1.366 . S
C1252 C1251 1.366 . S
C1252 C1253 1.414 . S
C1252 C1255 1.499 . S
C1253 H1227 0.950 . S
C1253 C1252 1.414 . S
C1253 C1254 1.374 . S
C1254 H1228 0.950 . S
C1254 C1250 1.385 . S
C1254 C1253 1.374 . S
C1255 C1252 1.499 . S
C1255 C1256 1.373 . S
C1255 C1257 1.389 . S
C1256 H1229 0.950 . S
C1256 C1242 1.377 . S
C1256 C1255 1.373 . S
C1257 C1241 1.377 . S
C1257 C1255 1.389 . S
C1257 C1258 1.524 . S
C1258 C1257 1.524 . S
C1258 C1259 1.397 . S
C1258 C1263 1.363 . S
C1259 H1230 0.950 . S
C1259 C1258 1.397 . S
C1259 C1260 1.334 . S
C1260 H1231 0.950 . S
C1260 C1259 1.334 . S
C1260 C1261 1.287 . S
C1261 C1260 1.287 . S
C1261 C1262 1.524 . S
C1261 H1264 0.999 . S
C1262 H1232 0.950 . S
C1262 C1261 1.524 . S
C1262 C1263 1.415 . S
C1263 H1233 0.950 . S
C1263 C1258 1.363 . S
C1263 C1262 1.415 . S
H1264 C1261 0.999 . S
H1265 C1246 0.913 . S
H1266 C1284 0.951 . S
H1267 C1286 0.951 . S
H1268 C1288 0.950 . S
H1269 C1289 0.950 . S
H1270 C1291 0.950 . S
H1271 C1294 0.950 . S
H1272 C1295 0.950 . S
H1273 C1297 0.950 . S
H1274 C1298 0.950 . S
H1275 C1299 0.951 . S
H1276 C1301 0.951 . S
H1277 C1303 0.950 . S
H1278 C1304 0.950 . S
H1279 C1306 0.950 . S
H1280 C1309 0.950 . S
H1281 C1310 0.950 . S
H1282 C1312 0.950 . S
H1283 C1313 0.950 . S
C1284 H1266 0.951 . S
C1284 C1285 1.366 . S
C1284 C1286 1.388 . S
C1285 C1284 1.366 . S
C1285 C1289 1.385 . S
C1286 H1267 0.951 . S
C1286 C1284 1.388 . S
C1286 C1287 1.366 . S
C1287 C1286 1.366 . S
C1287 C1288 1.414 . S
C1287 C1290 1.499 . S
C1288 H1268 0.950 . S
C1288 C1287 1.414 . S
C1288 C1289 1.374 . S
C1289 H1269 0.950 . S
C1289 C1285 1.385 . S
C1289 C1288 1.374 . S
C1290 C1287 1.499 . S
C1290 C1291 1.373 . S
C1290 C1292 1.389 . S
C1291 H1270 0.950 . S
C1291 C1290 1.373 . S
C1291 C1307 1.377 . S
C1292 C1290 1.389 . S
C1292 C1293 1.524 . S
C1292 C1306 1.377 . S
C1293 C1292 1.524 . S
C1293 C1294 1.397 . S
C1293 C1298 1.363 . S
C1294 H1271 0.950 . S
C1294 C1293 1.397 . S
C1294 C1295 1.334 . S
C1295 H1272 0.950 . S
C1295 C1294 1.334 . S
C1295 C1296 1.287 . S
C1296 C1295 1.287 . S
C1296 C1297 1.524 . S
C1296 H1315 0.913 . S
C1297 H1273 0.950 . S
C1297 C1296 1.524 . S
C1297 C1298 1.415 . S
C1298 H1274 0.950 . S
C1298 C1293 1.363 . S
C1298 C1297 1.415 . S
C1299 H1275 0.951 . S
C1299 C1300 1.366 . S
C1299 C1301 1.388 . S
C1300 C1299 1.366 . S
C1300 C1304 1.385 . S
C1301 H1276 0.951 . S
C1301 C1299 1.388 . S
C1301 C1302 1.366 . S
C1302 C1301 1.366 . S
C1302 C1303 1.414 . S
C1302 C1305 1.499 . S
C1303 H1277 0.950 . S
C1303 C1302 1.414 . S
C1303 C1304 1.374 . S
C1304 H1278 0.950 . S
C1304 C1300 1.385 . S
C1304 C1303 1.374 . S
C1305 C1302 1.499 . S
C1305 C1306 1.373 . S
C1305 C1307 1.389 . S
C1306 H1279 0.950 . S
C1306 C1292 1.377 . S
C1306 C1305 1.373 . S
C1307 C1291 1.377 . S
C1307 C1305 1.389 . S
C1307 C1308 1.524 . S
C1308 C1307 1.524 . S
C1308 C1309 1.397 . S
C1308 C1313 1.363 . S
C1309 H1280 0.950 . S
C1309 C1308 1.397 . S
C1309 C1310 1.334 . S
C1310 H1281 0.950 . S
C1310 C1309 1.334 . S
C1310 C1311 1.287 . S
C1311 C1310 1.287 . S
C1311 C1312 1.524 . S
C1311 H1314 0.999 . S
C1312 H1282 0.950 . S
C1312 C1311 1.524 . S
C1312 C1313 1.415 . S
C1313 H1283 0.950 . S
C1313 C1308 1.363 . S
C1313 C1312 1.415 . S
H1314 C1311 0.999 . S
H1315 C1296 0.913 . S
H1316 C1334 0.951 . S
H1317 C1336 0.951 . S
H1318 C1338 0.950 . S
H1319 C1339 0.950 . S
H1320 C1341 0.950 . S
H1321 C1344 0.950 . S
H1322 C1345 0.950 . S
H1323 C1347 0.950 . S
H1324 C1348 0.950 . S
H1325 C1349 0.951 . S
H1326 C1351 0.951 . S
H1327 C1353 0.950 . S
H1328 C1354 0.950 . S
H1329 C1356 0.950 1_565 S
H1330 C1359 0.950 . S
H1331 C1360 0.950 . S
H1332 C1362 0.950 . S
H1333 C1363 0.950 . S
C1334 H1316 0.951 . S
C1334 C1335 1.366 . S
C1334 C1336 1.388 . S
C1335 C1334 1.366 . S
C1335 C1339 1.385 . S
C1336 H1317 0.951 . S
C1336 C1334 1.388 . S
C1336 C1337 1.366 . S
C1337 C1336 1.366 . S
C1337 C1338 1.414 . S
C1337 C1340 1.499 . S
C1338 H1318 0.950 . S
C1338 C1337 1.414 . S
C1338 C1339 1.374 . S
C1339 H1319 0.950 . S
C1339 C1335 1.385 . S
C1339 C1338 1.374 . S
C1340 C1337 1.499 . S
C1340 C1341 1.373 . S
C1340 C1342 1.389 . S
C1341 H1320 0.950 . S
C1341 C1340 1.373 . S
C1341 C1357 1.377 . S
C1342 C1340 1.389 . S
C1342 C1343 1.524 . S
C1342 C1356 1.377 . S
C1343 C1342 1.524 . S
C1343 C1344 1.397 . S
C1343 C1348 1.363 1_545 S
C1344 H1321 0.950 . S
C1344 C1343 1.397 . S
C1344 C1345 1.334 1_545 S
C1345 H1322 0.950 . S
C1345 C1344 1.334 1_565 S
C1345 C1346 1.287 . S
C1346 C1345 1.287 . S
C1346 C1347 1.524 . S
C1346 H1365 0.913 . S
C1347 H1323 0.950 . S
C1347 C1346 1.524 . S
C1347 C1348 1.415 . S
C1348 H1324 0.950 . S
C1348 C1343 1.363 1_565 S
C1348 C1347 1.415 . S
C1349 H1325 0.951 . S
C1349 C1350 1.366 . S
C1349 C1351 1.388 1_565 S
C1350 C1349 1.366 . S
C1350 C1354 1.385 . S
C1351 H1326 0.951 . S
C1351 C1349 1.388 1_545 S
C1351 C1352 1.366 . S
C1352 C1351 1.366 . S
C1352 C1353 1.414 1_545 S
C1352 C1355 1.499 . S
C1353 H1327 0.950 . S
C1353 C1352 1.414 1_565 S
C1353 C1354 1.374 . S
C1354 H1328 0.950 . S
C1354 C1350 1.385 . S
C1354 C1353 1.374 . S
C1355 C1352 1.499 . S
C1355 C1356 1.373 . S
C1355 C1357 1.389 . S
C1356 H1329 0.950 1_545 S
C1356 C1342 1.377 . S
C1356 C1355 1.373 . S
C1357 C1341 1.377 . S
C1357 C1355 1.389 . S
C1357 C1358 1.524 . S
C1358 C1357 1.524 . S
C1358 C1359 1.397 . S
C1358 C1363 1.363 . S
C1359 H1330 0.950 . S
C1359 C1358 1.397 . S
C1359 C1360 1.334 . S
C1360 H1331 0.950 . S
C1360 C1359 1.334 . S
C1360 C1361 1.287 . S
C1361 C1360 1.287 . S
C1361 C1362 1.524 . S
C1361 H1364 0.999 . S
C1362 H1332 0.950 . S
C1362 C1361 1.524 . S
C1362 C1363 1.415 . S
C1363 H1333 0.950 . S
C1363 C1358 1.363 . S
C1363 C1362 1.415 . S
H1364 C1361 0.999 . S
H1365 C1346 0.913 . S
H1366 C1384 0.951 . S
H1367 C1386 0.951 . S
H1368 C1388 0.950 . S
H1369 C1389 0.950 . S
H1370 C1391 0.950 . S
H1371 C1394 0.950 . S
H1372 C1395 0.947 1_545 S
H1373 C1397 0.950 . S
H1374 C1398 0.950 . S
H1375 C1399 0.951 . S
H1376 C1401 0.951 . S
H1377 C1403 0.950 . S
H1378 C1404 0.950 . S
H1379 C1406 0.950 . S
H1380 C1409 0.950 . S
H1381 C1410 0.950 . S
H1382 C1412 0.950 . S
H1383 C1413 0.950 . S
C1384 H1366 0.951 . S
C1384 C1385 1.366 . S
C1384 C1386 1.388 . S
C1385 C1384 1.366 . S
C1385 C1389 1.385 . S
C1386 H1367 0.951 . S
C1386 C1384 1.388 . S
C1386 C1387 1.366 . S
C1387 C1386 1.366 . S
C1387 C1388 1.414 . S
C1387 C1390 1.499 . S
C1388 H1368 0.950 . S
C1388 C1387 1.414 . S
C1388 C1389 1.374 . S
C1389 H1369 0.950 . S
C1389 C1385 1.385 . S
C1389 C1388 1.374 . S
C1390 C1387 1.499 . S
C1390 C1391 1.373 . S
C1390 C1392 1.389 . S
C1391 H1370 0.950 . S
C1391 C1390 1.373 . S
C1391 C1407 1.377 . S
C1392 C1390 1.389 . S
C1392 C1393 1.524 . S
C1392 C1406 1.377 . S
C1393 C1392 1.524 . S
C1393 C1394 1.397 . S
C1393 C1398 1.363 . S
C1394 H1371 0.950 . S
C1394 C1393 1.397 . S
C1394 C1395 1.336 . S
C1395 H1372 0.947 1_565 S
C1395 C1394 1.336 . S
C1395 C1396 1.288 . S
C1396 C1395 1.288 . S
C1396 C1397 1.524 . S
C1396 H1415 0.913 1_565 S
C1397 H1373 0.950 . S
C1397 C1396 1.524 . S
C1397 C1398 1.415 . S
C1398 H1374 0.950 . S
C1398 C1393 1.363 . S
C1398 C1397 1.415 . S
C1399 H1375 0.951 . S
C1399 C1400 1.366 . S
C1399 C1401 1.388 . S
C1400 C1399 1.366 . S
C1400 C1404 1.385 . S
C1401 H1376 0.951 . S
C1401 C1399 1.388 . S
C1401 C1402 1.366 . S
C1402 C1401 1.366 . S
C1402 C1403 1.414 . S
C1402 C1405 1.499 . S
C1403 H1377 0.950 . S
C1403 C1402 1.414 . S
C1403 C1404 1.374 . S
C1404 H1378 0.950 . S
C1404 C1400 1.385 . S
C1404 C1403 1.374 . S
C1405 C1402 1.499 . S
C1405 C1406 1.373 . S
C1405 C1407 1.389 . S
C1406 H1379 0.950 . S
C1406 C1392 1.377 . S
C1406 C1405 1.373 . S
C1407 C1391 1.377 . S
C1407 C1405 1.389 . S
C1407 C1408 1.524 . S
C1408 C1407 1.524 . S
C1408 C1409 1.397 . S
C1408 C1413 1.363 . S
C1409 H1380 0.950 . S
C1409 C1408 1.397 . S
C1409 C1410 1.334 . S
C1410 H1381 0.950 . S
C1410 C1409 1.334 . S
C1410 C1411 1.287 . S
C1411 C1410 1.287 . S
C1411 C1412 1.524 . S
C1411 H1414 0.999 . S
C1412 H1382 0.950 . S
C1412 C1411 1.524 . S
C1412 C1413 1.415 . S
C1413 H1383 0.950 . S
C1413 C1408 1.363 . S
C1413 C1412 1.415 . S
H1414 C1411 0.999 . S
H1415 C1396 0.913 1_545 S
H1416 C1434 0.951 . S
H1417 C1436 0.951 . S
H1418 C1438 0.950 . S
H1419 C1439 0.950 . S
H1420 C1441 0.950 . S
H1421 C1444 0.950 . S
H1422 C1445 0.950 . S
H1423 C1447 0.950 . S
H1424 C1448 0.950 . S
H1425 C1449 0.951 . S
H1426 C1451 0.951 . S
H1427 C1453 0.950 . S
H1428 C1454 0.950 . S
H1429 C1456 0.950 . S
H1430 C1459 0.950 . S
H1431 C1460 0.950 . S
H1432 C1462 0.950 . S
H1433 C1463 0.950 . S
C1434 H1416 0.951 . S
C1434 C1435 1.366 . S
C1434 C1436 1.388 . S
C1435 C1434 1.366 . S
C1435 C1439 1.385 . S
C1436 H1417 0.951 . S
C1436 C1434 1.388 . S
C1436 C1437 1.366 . S
C1437 C1436 1.366 . S
C1437 C1438 1.414 . S
C1437 C1440 1.499 . S
C1438 H1418 0.950 . S
C1438 C1437 1.414 . S
C1438 C1439 1.374 . S
C1439 H1419 0.950 . S
C1439 C1435 1.385 . S
C1439 C1438 1.374 . S
C1440 C1437 1.499 . S
C1440 C1441 1.373 . S
C1440 C1442 1.389 . S
C1441 H1420 0.950 . S
C1441 C1440 1.373 . S
C1441 C1457 1.377 . S
C1442 C1440 1.389 . S
C1442 C1443 1.524 . S
C1442 C1456 1.377 . S
C1443 C1442 1.524 . S
C1443 C1444 1.397 . S
C1443 C1448 1.363 . S
C1444 H1421 0.950 . S
C1444 C1443 1.397 . S
C1444 C1445 1.334 . S
C1445 H1422 0.950 . S
C1445 C1444 1.334 . S
C1445 C1446 1.287 . S
C1446 C1445 1.287 . S
C1446 C1447 1.524 . S
C1446 H1465 0.913 . S
C1447 H1423 0.950 . S
C1447 C1446 1.524 . S
C1447 C1448 1.415 . S
C1448 H1424 0.950 . S
C1448 C1443 1.363 . S
C1448 C1447 1.415 . S
C1449 H1425 0.951 . S
C1449 C1450 1.366 . S
C1449 C1451 1.388 . S
C1450 C1449 1.366 . S
C1450 C1454 1.385 . S
C1451 H1426 0.951 . S
C1451 C1449 1.388 . S
C1451 C1452 1.366 . S
C1452 C1451 1.366 . S
C1452 C1453 1.414 . S
C1452 C1455 1.499 . S
C1453 H1427 0.950 . S
C1453 C1452 1.414 . S
C1453 C1454 1.374 . S
C1454 H1428 0.950 . S
C1454 C1450 1.385 . S
C1454 C1453 1.374 . S
C1455 C1452 1.499 . S
C1455 C1456 1.373 . S
C1455 C1457 1.389 . S
C1456 H1429 0.950 . S
C1456 C1442 1.377 . S
C1456 C1455 1.373 . S
C1457 C1441 1.377 . S
C1457 C1455 1.389 . S
C1457 C1458 1.524 . S
C1458 C1457 1.524 . S
C1458 C1459 1.397 . S
C1458 C1463 1.363 . S
C1459 H1430 0.950 . S
C1459 C1458 1.397 . S
C1459 C1460 1.334 . S
C1460 H1431 0.950 . S
C1460 C1459 1.334 . S
C1460 C1461 1.287 . S
C1461 C1460 1.287 . S
C1461 C1462 1.524 . S
C1461 H1464 0.999 . S
C1462 H1432 0.950 . S
C1462 C1461 1.524 . S
C1462 C1463 1.415 . S
C1463 H1433 0.950 . S
C1463 C1458 1.363 . S
C1463 C1462 1.415 . S
H1464 C1461 0.999 . S
H1465 C1446 0.913 . S
H1466 C1484 0.951 . S
H1467 C1486 0.951 . S
H1468 C1488 0.950 . S
H1469 C1489 0.950 . S
H1470 C1491 0.950 . S
H1471 C1494 0.950 . S
H1472 C1495 0.950 . S
H1473 C1497 0.950 . S
H1474 C1498 0.950 . S
H1475 C1499 0.951 . S
H1476 C1501 0.951 . S
H1477 C1503 0.950 . S
H1478 C1504 0.950 . S
H1479 C1506 0.950 . S
H1480 C1509 0.950 . S
H1481 C1510 0.950 . S
H1482 C1512 0.950 . S
H1483 C1513 0.950 . S
C1484 H1466 0.951 . S
C1484 C1485 1.366 . S
C1484 C1486 1.388 . S
C1485 C1484 1.366 . S
C1485 C1489 1.385 . S
C1486 H1467 0.951 . S
C1486 C1484 1.388 . S
C1486 C1487 1.366 . S
C1487 C1486 1.366 . S
C1487 C1488 1.414 . S
C1487 C1490 1.499 . S
C1488 H1468 0.950 . S
C1488 C1487 1.414 . S
C1488 C1489 1.374 . S
C1489 H1469 0.950 . S
C1489 C1485 1.385 . S
C1489 C1488 1.374 . S
C1490 C1487 1.499 . S
C1490 C1491 1.373 . S
C1490 C1492 1.389 . S
C1491 H1470 0.950 . S
C1491 C1490 1.373 . S
C1491 C1507 1.377 . S
C1492 C1490 1.389 . S
C1492 C1493 1.524 . S
C1492 C1506 1.377 . S
C1493 C1492 1.524 . S
C1493 C1494 1.397 . S
C1493 C1498 1.363 . S
C1494 H1471 0.950 . S
C1494 C1493 1.397 . S
C1494 C1495 1.334 . S
C1495 H1472 0.950 . S
C1495 C1494 1.334 . S
C1495 C1496 1.287 . S
C1496 C1495 1.287 . S
C1496 C1497 1.524 . S
C1496 H1515 0.913 . S
C1497 H1473 0.950 . S
C1497 C1496 1.524 . S
C1497 C1498 1.415 . S
C1498 H1474 0.950 . S
C1498 C1493 1.363 . S
C1498 C1497 1.415 . S
C1499 H1475 0.951 . S
C1499 C1500 1.366 . S
C1499 C1501 1.388 . S
C1500 C1499 1.366 . S
C1500 C1504 1.385 . S
C1501 H1476 0.951 . S
C1501 C1499 1.388 . S
C1501 C1502 1.366 . S
C1502 C1501 1.366 . S
C1502 C1503 1.414 . S
C1502 C1505 1.499 . S
C1503 H1477 0.950 . S
C1503 C1502 1.414 . S
C1503 C1504 1.374 . S
C1504 H1478 0.950 . S
C1504 C1500 1.385 . S
C1504 C1503 1.374 . S
C1505 C1502 1.499 . S
C1505 C1506 1.373 . S
C1505 C1507 1.389 . S
C1506 H1479 0.950 . S
C1506 C1492 1.377 . S
C1506 C1505 1.373 . S
C1507 C1491 1.377 . S
C1507 C1505 1.389 . S
C1507 C1508 1.524 . S
C1508 C1507 1.524 . S
C1508 C1509 1.397 . S
C1508 C1513 1.363 . S
C1509 H1480 0.950 . S
C1509 C1508 1.397 . S
C1509 C1510 1.334 . S
C1510 H1481 0.950 . S
C1510 C1509 1.334 . S
C1510 C1511 1.287 . S
C1511 C1510 1.287 . S
C1511 C1512 1.524 . S
C1511 H1514 0.999 . S
C1512 H1482 0.950 . S
C1512 C1511 1.524 . S
C1512 C1513 1.415 . S
C1513 H1483 0.950 . S
C1513 C1508 1.363 . S
C1513 C1512 1.415 . S
H1514 C1511 0.999 . S
H1515 C1496 0.913 . S
H1516 C1534 0.951 . S
H1517 C1536 0.951 . S
H1518 C1538 0.950 . S
H1519 C1539 0.950 . S
H1520 C1541 0.950 . S
H1521 C1544 0.950 . S
H1522 C1545 0.950 1_455 S
H1523 C1547 0.950 . S
H1524 C1548 0.950 . S
H1525 C1549 0.951 . S
H1526 C1551 0.951 . S
H1527 C1553 0.950 . S
H1528 C1554 0.950 . S
H1529 C1556 0.950 . S
H1530 C1559 0.950 . S
H1531 C1560 0.950 . S
H1532 C1562 0.950 . S
H1533 C1563 0.950 . S
C1534 H1516 0.951 . S
C1534 C1535 1.366 . S
C1534 C1536 1.388 . S
C1535 C1534 1.366 . S
C1535 C1539 1.385 . S
C1536 H1517 0.951 . S
C1536 C1534 1.388 . S
C1536 C1537 1.366 . S
C1537 C1536 1.366 . S
C1537 C1538 1.414 . S
C1537 C1540 1.499 . S
C1538 H1518 0.950 . S
C1538 C1537 1.414 . S
C1538 C1539 1.374 . S
C1539 H1519 0.950 . S
C1539 C1535 1.385 . S
C1539 C1538 1.374 . S
C1540 C1537 1.499 . S
C1540 C1541 1.373 . S
C1540 C1542 1.389 . S
C1541 H1520 0.950 . S
C1541 C1540 1.373 . S
C1541 C1557 1.377 . S
C1542 C1540 1.389 . S
C1542 C1543 1.524 . S
C1542 C1556 1.377 . S
C1543 C1542 1.524 . S
C1543 C1544 1.397 . S
C1543 C1548 1.363 . S
C1544 H1521 0.950 . S
C1544 C1543 1.397 . S
C1544 C1545 1.334 . S
C1545 H1522 0.950 1_655 S
C1545 C1544 1.334 . S
C1545 C1546 1.287 . S
C1546 C1545 1.287 . S
C1546 C1547 1.524 . S
C1546 H1565 0.913 . S
C1547 H1523 0.950 . S
C1547 C1546 1.524 . S
C1547 C1548 1.415 . S
C1548 H1524 0.950 . S
C1548 C1543 1.363 . S
C1548 C1547 1.415 . S
C1549 H1525 0.951 . S
C1549 C1550 1.366 . S
C1549 C1551 1.388 . S
C1550 C1549 1.366 . S
C1550 C1554 1.385 . S
C1551 H1526 0.951 . S
C1551 C1549 1.388 . S
C1551 C1552 1.366 . S
C1552 C1551 1.366 . S
C1552 C1553 1.414 . S
C1552 C1555 1.499 . S
C1553 H1527 0.950 . S
C1553 C1552 1.414 . S
C1553 C1554 1.374 . S
C1554 H1528 0.950 . S
C1554 C1550 1.385 . S
C1554 C1553 1.374 . S
C1555 C1552 1.499 . S
C1555 C1556 1.373 . S
C1555 C1557 1.389 . S
C1556 H1529 0.950 . S
C1556 C1542 1.377 . S
C1556 C1555 1.373 . S
C1557 C1541 1.377 . S
C1557 C1555 1.389 . S
C1557 C1558 1.524 . S
C1558 C1557 1.524 . S
C1558 C1559 1.397 . S
C1558 C1563 1.363 . S
C1559 H1530 0.950 . S
C1559 C1558 1.397 . S
C1559 C1560 1.334 . S
C1560 H1531 0.950 . S
C1560 C1559 1.334 . S
C1560 C1561 1.287 . S
C1561 C1560 1.287 . S
C1561 C1562 1.524 . S
C1561 H1564 0.999 . S
C1562 H1532 0.950 . S
C1562 C1561 1.524 . S
C1562 C1563 1.415 . S
C1563 H1533 0.950 . S
C1563 C1558 1.363 . S
C1563 C1562 1.415 . S
H1564 C1561 0.999 . S
H1565 C1546 0.913 . S
H1566 C1584 0.951 . S
H1567 C1586 0.951 . S
H1568 C1588 0.950 . S
H1569 C1589 0.950 . S
H1570 C1591 0.950 . S
H1571 C1594 0.950 . S
H1572 C1595 0.950 . S
H1573 C1597 0.950 . S
H1574 C1598 0.950 . S
H1575 C1599 0.951 . S
H1576 C1601 0.951 . S
H1577 C1603 0.950 . S
H1578 C1604 0.946 1_455 S
H1579 C1606 0.950 . S
H1580 C1609 0.950 . S
H1581 C1610 0.950 . S
H1582 C1612 0.950 . S
H1583 C1613 0.950 . S
C1584 H1566 0.951 . S
C1584 C1585 1.366 . S
C1584 C1586 1.388 . S
C1585 C1584 1.366 . S
C1585 C1589 1.385 . S
C1586 H1567 0.951 . S
C1586 C1584 1.388 . S
C1586 C1587 1.366 . S
C1587 C1586 1.366 . S
C1587 C1588 1.414 . S
C1587 C1590 1.499 . S
C1588 H1568 0.950 . S
C1588 C1587 1.414 . S
C1588 C1589 1.374 . S
C1589 H1569 0.950 . S
C1589 C1585 1.385 . S
C1589 C1588 1.374 . S
C1590 C1587 1.499 . S
C1590 C1591 1.373 . S
C1590 C1592 1.389 . S
C1591 H1570 0.950 . S
C1591 C1590 1.373 . S
C1591 C1607 1.377 . S
C1592 C1590 1.389 . S
C1592 C1593 1.524 . S
C1592 C1606 1.377 . S
C1593 C1592 1.524 . S
C1593 C1594 1.397 . S
C1593 C1598 1.363 . S
C1594 H1571 0.950 . S
C1594 C1593 1.397 . S
C1594 C1595 1.334 . S
C1595 H1572 0.950 . S
C1595 C1594 1.334 . S
C1595 C1596 1.287 . S
C1596 C1595 1.287 . S
C1596 C1597 1.524 . S
C1596 H1615 0.913 . S
C1597 H1573 0.950 . S
C1597 C1596 1.524 . S
C1597 C1598 1.415 . S
C1598 H1574 0.950 . S
C1598 C1593 1.363 . S
C1598 C1597 1.415 . S
C1599 H1575 0.951 . S
C1599 C1600 1.366 . S
C1599 C1601 1.388 . S
C1600 C1599 1.366 . S
C1600 C1604 1.385 . S
C1601 H1576 0.951 . S
C1601 C1599 1.388 . S
C1601 C1602 1.366 1_655 S
C1602 C1601 1.366 1_455 S
C1602 C1603 1.414 . S
C1602 C1605 1.499 . S
C1603 H1577 0.950 . S
C1603 C1602 1.414 . S
C1603 C1604 1.374 1_455 S
C1604 H1578 0.946 1_655 S
C1604 C1600 1.385 . S
C1604 C1603 1.374 1_655 S
C1605 C1602 1.499 . S
C1605 C1606 1.373 . S
C1605 C1607 1.389 . S
C1606 H1579 0.950 . S
C1606 C1592 1.377 . S
C1606 C1605 1.373 . S
C1607 C1591 1.377 . S
C1607 C1605 1.389 . S
C1607 C1608 1.524 . S
C1608 C1607 1.524 . S
C1608 C1609 1.397 . S
C1608 C1613 1.363 . S
C1609 H1580 0.950 . S
C1609 C1608 1.397 . S
C1609 C1610 1.334 . S
C1610 H1581 0.950 . S
C1610 C1609 1.334 . S
C1610 C1611 1.287 . S
C1611 C1610 1.287 . S
C1611 C1612 1.524 . S
C1611 H1614 0.999 . S
C1612 H1582 0.950 . S
C1612 C1611 1.524 . S
C1612 C1613 1.415 . S
C1613 H1583 0.950 . S
C1613 C1608 1.363 . S
C1613 C1612 1.415 . S
H1614 C1611 0.999 . S
H1615 C1596 0.913 . S
H1616 C1634 0.951 . S
H1617 C1636 0.951 . S
H1618 C1638 0.950 . S
H1619 C1639 0.950 . S
H1620 C1641 0.950 . S
H1621 C1644 0.950 . S
H1622 C1645 0.950 . S
H1623 C1647 0.950 . S
H1624 C1648 0.950 . S
H1625 C1649 0.951 . S
H1626 C1651 0.951 . S
H1627 C1653 0.950 . S
H1628 C1654 0.950 . S
H1629 C1656 0.950 . S
H1630 C1659 0.950 . S
H1631 C1660 0.950 . S
H1632 C1662 0.950 . S
H1633 C1663 0.950 . S
C1634 H1616 0.951 . S
C1634 C1635 1.366 . S
C1634 C1636 1.388 . S
C1635 C1634 1.366 . S
C1635 C1639 1.385 . S
C1636 H1617 0.951 . S
C1636 C1634 1.388 . S
C1636 C1637 1.366 . S
C1637 C1636 1.366 . S
C1637 C1638 1.414 . S
C1637 C1640 1.499 . S
C1638 H1618 0.950 . S
C1638 C1637 1.414 . S
C1638 C1639 1.374 . S
C1639 H1619 0.950 . S
C1639 C1635 1.385 . S
C1639 C1638 1.374 . S
C1640 C1637 1.499 . S
C1640 C1641 1.373 . S
C1640 C1642 1.389 . S
C1641 H1620 0.950 . S
C1641 C1640 1.373 . S
C1641 C1657 1.377 . S
C1642 C1640 1.389 . S
C1642 C1643 1.524 . S
C1642 C1656 1.377 . S
C1643 C1642 1.524 . S
C1643 C1644 1.397 . S
C1643 C1648 1.363 . S
C1644 H1621 0.950 . S
C1644 C1643 1.397 . S
C1644 C1645 1.334 . S
C1645 H1622 0.950 . S
C1645 C1644 1.334 . S
C1645 C1646 1.287 . S
C1646 C1645 1.287 . S
C1646 C1647 1.524 . S
C1646 H1665 0.913 . S
C1647 H1623 0.950 . S
C1647 C1646 1.524 . S
C1647 C1648 1.415 . S
C1648 H1624 0.950 . S
C1648 C1643 1.363 . S
C1648 C1647 1.415 . S
C1649 H1625 0.951 . S
C1649 C1650 1.366 . S
C1649 C1651 1.388 . S
C1650 C1649 1.366 . S
C1650 C1654 1.385 . S
C1651 H1626 0.951 . S
C1651 C1649 1.388 . S
C1651 C1652 1.366 . S
C1652 C1651 1.366 . S
C1652 C1653 1.414 . S
C1652 C1655 1.499 . S
C1653 H1627 0.950 . S
C1653 C1652 1.414 . S
C1653 C1654 1.374 . S
C1654 H1628 0.950 . S
C1654 C1650 1.385 . S
C1654 C1653 1.374 . S
C1655 C1652 1.499 . S
C1655 C1656 1.373 . S
C1655 C1657 1.389 . S
C1656 H1629 0.950 . S
C1656 C1642 1.377 . S
C1656 C1655 1.373 . S
C1657 C1641 1.377 . S
C1657 C1655 1.389 . S
C1657 C1658 1.524 . S
C1658 C1657 1.524 . S
C1658 C1659 1.397 . S
C1658 C1663 1.363 . S
C1659 H1630 0.950 . S
C1659 C1658 1.397 . S
C1659 C1660 1.334 . S
C1660 H1631 0.950 . S
C1660 C1659 1.334 . S
C1660 C1661 1.287 . S
C1661 C1660 1.287 . S
C1661 C1662 1.524 . S
C1661 H1664 0.999 . S
C1662 H1632 0.950 . S
C1662 C1661 1.524 . S
C1662 C1663 1.415 . S
C1663 H1633 0.950 . S
C1663 C1658 1.363 . S
C1663 C1662 1.415 . S
H1664 C1661 0.999 . S
H1665 C1646 0.913 . S
H1666 C1684 0.951 1_455 S
H1667 C1686 0.951 . S
H1668 C1688 0.950 . S
H1669 C1689 0.950 . S
H1670 C1691 0.950 . S
H1671 C1694 0.950 . S
H1672 C1695 0.950 . S
H1673 C1697 0.950 . S
H1674 C1698 0.940 1_655 S
H1675 C1699 0.951 . S
H1676 C1701 0.951 . S
H1677 C1703 0.950 . S
H1678 C1704 0.950 . S
H1679 C1706 0.950 . S
H1680 C1709 0.950 . S
H1681 C1710 0.950 . S
H1682 C1712 0.950 . S
H1683 C1713 0.950 . S
C1684 H1666 0.951 1_655 S
C1684 C1685 1.366 . S
C1684 C1686 1.388 . S
C1685 C1684 1.366 . S
C1685 C1689 1.385 . S
C1686 H1667 0.951 . S
C1686 C1684 1.388 . S
C1686 C1687 1.366 . S
C1687 C1686 1.366 . S
C1687 C1688 1.414 . S
C1687 C1690 1.499 . S
C1688 H1668 0.950 . S
C1688 C1687 1.414 . S
C1688 C1689 1.374 . S
C1689 H1669 0.950 . S
C1689 C1685 1.385 . S
C1689 C1688 1.374 . S
C1690 C1687 1.499 . S
C1690 C1691 1.373 . S
C1690 C1692 1.389 . S
C1691 H1670 0.950 . S
C1691 C1690 1.373 . S
C1691 C1707 1.377 . S
C1692 C1690 1.389 . S
C1692 C1693 1.524 . S
C1692 C1706 1.377 . S
C1693 C1692 1.524 . S
C1693 C1694 1.397 . S
C1693 C1698 1.363 1_655 S
C1694 H1671 0.950 . S
C1694 C1693 1.397 . S
C1694 C1695 1.334 1_655 S
C1695 H1672 0.950 . S
C1695 C1694 1.334 1_455 S
C1695 C1696 1.287 . S
C1696 C1695 1.287 . S
C1696 C1697 1.524 . S
C1696 H1715 0.913 . S
C1697 H1673 0.950 . S
C1697 C1696 1.524 . S
C1697 C1698 1.415 . S
C1698 H1674 0.940 1_455 S
C1698 C1693 1.363 1_455 S
C1698 C1697 1.415 . S
C1699 H1675 0.951 . S
C1699 C1700 1.366 . S
C1699 C1701 1.388 . S
C1700 C1699 1.366 . S
C1700 C1704 1.385 . S
C1701 H1676 0.951 . S
C1701 C1699 1.388 . S
C1701 C1702 1.366 . S
C1702 C1701 1.366 . S
C1702 C1703 1.414 . S
C1702 C1705 1.499 . S
C1703 H1677 0.950 . S
C1703 C1702 1.414 . S
C1703 C1704 1.374 . S
C1704 H1678 0.950 . S
C1704 C1700 1.385 . S
C1704 C1703 1.374 . S
C1705 C1702 1.499 . S
C1705 C1706 1.373 . S
C1705 C1707 1.389 . S
C1706 H1679 0.950 . S
C1706 C1692 1.377 . S
C1706 C1705 1.373 . S
C1707 C1691 1.377 . S
C1707 C1705 1.389 . S
C1707 C1708 1.524 . S
C1708 C1707 1.524 . S
C1708 C1709 1.397 . S
C1708 C1713 1.363 . S
C1709 H1680 0.950 . S
C1709 C1708 1.397 . S
C1709 C1710 1.334 . S
C1710 H1681 0.950 . S
C1710 C1709 1.334 . S
C1710 C1711 1.287 . S
C1711 C1710 1.287 . S
C1711 C1712 1.524 . S
C1711 H1714 0.999 . S
C1712 H1682 0.950 . S
C1712 C1711 1.524 . S
C1712 C1713 1.415 . S
C1713 H1683 0.950 . S
C1713 C1708 1.363 . S
C1713 C1712 1.415 . S
H1714 C1711 0.999 . S
H1715 C1696 0.913 . S
H1716 C1734 0.951 . S
H1717 C1736 0.951 . S
H1718 C1738 0.950 . S
H1719 C1739 0.950 . S
H1720 C1741 0.950 . S
H1721 C1744 0.950 . S
H1722 C1745 0.950 . S
H1723 C1747 0.950 . S
H1724 C1748 0.950 . S
H1725 C1749 0.951 . S
H1726 C1751 0.951 . S
H1727 C1753 0.950 . S
H1728 C1754 0.950 . S
H1729 C1756 0.950 . S
H1730 C1759 0.950 . S
H1731 C1760 0.950 . S
H1732 C1762 0.950 . S
H1733 C1763 0.950 . S
C1734 H1716 0.951 . S
C1734 C1735 1.366 . S
C1734 C1736 1.388 . S
C1735 C1734 1.366 . S
C1735 C1739 1.385 . S
C1736 H1717 0.951 . S
C1736 C1734 1.388 . S
C1736 C1737 1.366 . S
C1737 C1736 1.366 . S
C1737 C1738 1.414 . S
C1737 C1740 1.499 . S
C1738 H1718 0.950 . S
C1738 C1737 1.414 . S
C1738 C1739 1.374 . S
C1739 H1719 0.950 . S
C1739 C1735 1.385 . S
C1739 C1738 1.374 . S
C1740 C1737 1.499 . S
C1740 C1741 1.373 . S
C1740 C1742 1.389 . S
C1741 H1720 0.950 . S
C1741 C1740 1.373 . S
C1741 C1757 1.377 . S
C1742 C1740 1.389 . S
C1742 C1743 1.524 . S
C1742 C1756 1.377 . S
C1743 C1742 1.524 . S
C1743 C1744 1.397 . S
C1743 C1748 1.363 . S
C1744 H1721 0.950 . S
C1744 C1743 1.397 . S
C1744 C1745 1.334 . S
C1745 H1722 0.950 . S
C1745 C1744 1.334 . S
C1745 C1746 1.287 . S
C1746 C1745 1.287 . S
C1746 C1747 1.524 . S
C1746 H1765 0.913 . S
C1747 H1723 0.950 . S
C1747 C1746 1.524 . S
C1747 C1748 1.415 . S
C1748 H1724 0.950 . S
C1748 C1743 1.363 . S
C1748 C1747 1.415 . S
C1749 H1725 0.951 . S
C1749 C1750 1.366 . S
C1749 C1751 1.388 . S
C1750 C1749 1.366 . S
C1750 C1754 1.385 1_655 S
C1751 H1726 0.951 . S
C1751 C1749 1.388 . S
C1751 C1752 1.366 1_655 S
C1752 C1751 1.366 1_455 S
C1752 C1753 1.414 . S
C1752 C1755 1.499 . S
C1753 H1727 0.950 . S
C1753 C1752 1.414 . S
C1753 C1754 1.374 . S
C1754 H1728 0.950 . S
C1754 C1750 1.385 1_455 S
C1754 C1753 1.374 . S
C1755 C1752 1.499 . S
C1755 C1756 1.373 . S
C1755 C1757 1.389 . S
C1756 H1729 0.950 . S
C1756 C1742 1.377 . S
C1756 C1755 1.373 . S
C1757 C1741 1.377 . S
C1757 C1755 1.389 . S
C1757 C1758 1.524 1_455 S
C1758 C1757 1.524 1_655 S
C1758 C1759 1.397 . S
C1758 C1763 1.363 . S
C1759 H1730 0.950 . S
C1759 C1758 1.397 . S
C1759 C1760 1.334 . S
C1760 H1731 0.950 . S
C1760 C1759 1.334 . S
C1760 C1761 1.287 . S
C1761 C1760 1.287 . S
C1761 C1762 1.524 . S
C1761 H1764 0.999 . S
C1762 H1732 0.950 . S
C1762 C1761 1.524 . S
C1762 C1763 1.415 . S
C1763 H1733 0.950 . S
C1763 C1758 1.363 . S
C1763 C1762 1.415 . S
H1764 C1761 0.999 . S
H1765 C1746 0.913 . S
H1766 C1784 0.951 . S
H1767 C1786 0.951 . S
H1768 C1788 0.950 . S
H1769 C1789 0.950 . S
H1770 C1791 0.950 . S
H1771 C1794 0.950 . S
H1772 C1795 0.950 . S
H1773 C1797 0.950 . S
H1774 C1798 0.950 . S
H1775 C1799 0.951 . S
H1776 C1801 0.951 . S
H1777 C1803 0.950 . S
H1778 C1804 0.950 . S
H1779 C1806 0.950 . S
H1780 C1809 0.950 . S
H1781 C1810 0.950 . S
H1782 C1812 0.950 . S
H1783 C1813 0.950 . S
C1784 H1766 0.951 . S
C1784 C1785 1.366 . S
C1784 C1786 1.388 . S
C1785 C1784 1.366 . S
C1785 C1789 1.385 . S
C1786 H1767 0.951 . S
C1786 C1784 1.388 . S
C1786 C1787 1.366 . S
C1787 C1786 1.366 . S
C1787 C1788 1.414 . S
C1787 C1790 1.499 . S
C1788 H1768 0.950 . S
C1788 C1787 1.414 . S
C1788 C1789 1.374 . S
C1789 H1769 0.950 . S
C1789 C1785 1.385 . S
C1789 C1788 1.374 . S
C1790 C1787 1.499 . S
C1790 C1791 1.373 . S
C1790 C1792 1.389 . S
C1791 H1770 0.950 . S
C1791 C1790 1.373 . S
C1791 C1807 1.377 . S
C1792 C1790 1.389 . S
C1792 C1793 1.524 . S
C1792 C1806 1.377 . S
C1793 C1792 1.524 . S
C1793 C1794 1.397 . S
C1793 C1798 1.363 . S
C1794 H1771 0.950 . S
C1794 C1793 1.397 . S
C1794 C1795 1.334 . S
C1795 H1772 0.950 . S
C1795 C1794 1.334 . S
C1795 C1796 1.287 . S
C1796 C1795 1.287 . S
C1796 C1797 1.524 . S
C1796 H1815 0.913 . S
C1797 H1773 0.950 . S
C1797 C1796 1.524 . S
C1797 C1798 1.415 . S
C1798 H1774 0.950 . S
C1798 C1793 1.363 . S
C1798 C1797 1.415 . S
C1799 H1775 0.951 . S
C1799 C1800 1.366 . S
C1799 C1801 1.388 . S
C1800 C1799 1.366 . S
C1800 C1804 1.385 . S
C1801 H1776 0.951 . S
C1801 C1799 1.388 . S
C1801 C1802 1.366 . S
C1802 C1801 1.366 . S
C1802 C1803 1.414 . S
C1802 C1805 1.499 . S
C1803 H1777 0.950 . S
C1803 C1802 1.414 . S
C1803 C1804 1.374 . S
C1804 H1778 0.950 . S
C1804 C1800 1.385 . S
C1804 C1803 1.374 . S
C1805 C1802 1.499 . S
C1805 C1806 1.373 . S
C1805 C1807 1.389 . S
C1806 H1779 0.950 . S
C1806 C1792 1.377 . S
C1806 C1805 1.373 . S
C1807 C1791 1.377 . S
C1807 C1805 1.389 . S
C1807 C1808 1.524 . S
C1808 C1807 1.524 . S
C1808 C1809 1.397 . S
C1808 C1813 1.363 . S
C1809 H1780 0.950 . S
C1809 C1808 1.397 . S
C1809 C1810 1.334 . S
C1810 H1781 0.950 . S
C1810 C1809 1.334 . S
C1810 C1811 1.287 . S
C1811 C1810 1.287 . S
C1811 C1812 1.524 . S
C1811 H1814 0.999 . S
C1812 H1782 0.950 . S
C1812 C1811 1.524 . S
C1812 C1813 1.415 . S
C1813 H1783 0.950 . S
C1813 C1808 1.363 . S
C1813 C1812 1.415 . S
H1814 C1811 0.999 . S
H1815 C1796 0.913 . S
C250 C126 1.131 . S
C235 C5 1.132 . S
C300 C140 1.153 . S
C285 C18 1.155 . S
C350 C155 1.123 . S
C335 C31 1.149 . S
C385 C42 1.073 . S
C400 C113 1.087 . S
C435 C57 1.364 . S
C450 C112 1.393 . S
C485 C70 1.394 . S
C500 C127 1.381 . S
C550 C141 1.396 . S
C535 C81 1.433 . S
C600 C154 1.410 . S
C585 C96 1.380 . S
C635 C29 1.386 . S
C650 C182 1.389 . S
C700 C196 1.412 . S
C685 C44 1.383 . S
C735 C3 1.411 . S
C750 C211 1.372 . S
C800 C168 1.401 . S
C785 C16 1.399 . S
C835 C83 1.130 . S
C850 C169 1.103 . S
C885 C94 1.090 1_655 S
C900 C183 1.112 . S
C950 C197 1.128 . S
C935 C55 1.112 . S
C985 C68 1.130 . S
C1000 C210 1.174 . S
C1050 C135 1.314 . S
C1035 C1 1.317 . S
C1100 C153 1.286 . S
C1085 C14 1.312 . S
C1135 C27 1.293 . S
C1150 C111 1.268 . S
C1185 C49 1.294 . S
C1200 C121 1.299 . S
C1235 C53 1.631 . S
C1250 C149 1.695 . S
C1300 C107 1.700 . S
C1285 C66 1.632 . S
C1350 C125 1.659 . S
C1335 C88 1.684 . S
C1400 C139 1.662 . S
C1385 C92 1.628 . S
C1450 C191 1.694 . S
C1435 C36 1.689 . S
C1500 C209 1.650 . S
C1485 C40 1.618 . S
C1535 C10 1.685 . S
C1550 C163 1.691 . S
C1600 C177 1.694 . S
C1585 C23 1.688 . S
C1650 C205 1.308 . S
C1635 C79 1.311 . S
C1685 C101 1.290 . S
C1700 C167 1.271 . S
C1750 C181 1.272 . S
C1735 C62 1.291 . S
C1800 C195 1.299 . S
C1785 C75 1.318 . S
