# Generated by pormake.
# Topology anh, (6,3)-cn, num edge types: 1
# Building blocks:
#     Node 0, Type 0, BuildingBlock: BETGAK_clean_sbu_0, # of connection points: 6
#     Node 1, Type 0, BuildingBlock: BETGAK_clean_sbu_0, # of connection points: 6
#     Node 2, Type 0, BuildingBlock: BETGAK_clean_sbu_0, # of connection points: 6
#     Node 3, Type 1, BuildingBlock: OLANEW_clean_sbu_2, # of connection points: 3
#     Node 4, Type 1, BuildingBlock: OLANEW_clean_sbu_2, # of connection points: 3
#     Node 5, Type 1, BuildingBlock: OLANEW_clean_sbu_2, # of connection points: 3
#     Node 6, Type 1, BuildingBlock: OLANEW_clean_sbu_2, # of connection points: 3
#     Node 7, Type 1, BuildingBlock: OLANEW_clean_sbu_2, # of connection points: 3
#     Node 8, Type 1, BuildingBlock: OLANEW_clean_sbu_2, # of connection points: 3
#     Edge 9, Type (0, 1), BuildingBlock: TEMPAE_clean_linker_10, # of connection points: 2
#     Edge 10, Type (0, 1), BuildingBlock: TEMPAE_clean_linker_10, # of connection points: 2
#     Edge 11, Type (0, 1), BuildingBlock: TEMPAE_clean_linker_10, # of connection points: 2
#     Edge 12, Type (0, 1), BuildingBlock: TEMPAE_clean_linker_10, # of connection points: 2
#     Edge 13, Type (0, 1), BuildingBlock: TEMPAE_clean_linker_10, # of connection points: 2
#     Edge 14, Type (0, 1), BuildingBlock: TEMPAE_clean_linker_10, # of connection points: 2
#     Edge 15, Type (0, 1), BuildingBlock: TEMPAE_clean_linker_10, # of connection points: 2
#     Edge 16, Type (0, 1), BuildingBlock: TEMPAE_clean_linker_10, # of connection points: 2
#     Edge 17, Type (0, 1), BuildingBlock: TEMPAE_clean_linker_10, # of connection points: 2
#     Edge 18, Type (0, 1), BuildingBlock: TEMPAE_clean_linker_10, # of connection points: 2
#     Edge 19, Type (0, 1), BuildingBlock: TEMPAE_clean_linker_10, # of connection points: 2
#     Edge 20, Type (0, 1), BuildingBlock: TEMPAE_clean_linker_10, # of connection points: 2
#     Edge 21, Type (0, 1), BuildingBlock: TEMPAE_clean_linker_10, # of connection points: 2
#     Edge 22, Type (0, 1), BuildingBlock: TEMPAE_clean_linker_10, # of connection points: 2
#     Edge 23, Type (0, 1), BuildingBlock: TEMPAE_clean_linker_10, # of connection points: 2
#     Edge 24, Type (0, 1), BuildingBlock: TEMPAE_clean_linker_10, # of connection points: 2
#     Edge 25, Type (0, 1), BuildingBlock: TEMPAE_clean_linker_10, # of connection points: 2
#     Edge 26, Type (0, 1), BuildingBlock: TEMPAE_clean_linker_10, # of connection points: 2
# Relax obj value: 0.142
# Max RMSD: 0.166
# Mean RMSD: 0.114
data_MOF--net-anh--node1-BETGAK_clean_sbu_0--node2-OLANEW_clean_sbu_2--edge1-TEMPAE_clean_linker_10
_symmetry_space_group_name_H-M    P1
_symmetry_Int_Tables_number       1
_symmetry_cell_setting            triclinic
loop_
_symmetry_equiv_pos_as_xyz
'x, y, z'
_cell_length_a     37.620603
_cell_length_b     41.63189
_cell_length_c     51.127186
_cell_angle_alpha  91.677238
_cell_angle_beta   89.643604
_cell_angle_gamma 130.09243
loop_
_atom_site_label
_atom_site_type_symbol
_atom_site_fract_x
_atom_site_fract_y
_atom_site_fract_z
_atom_type_partial_charge
La0 La 0.03542 0.5046 0.12328 0.0
La1 La 0.99327 0.54209 0.14345 0.0
C2 C 0.07813 0.48717 0.097 0.0
C3 C 0.1258 0.50258 0.09814 0.0
C4 C 0.13381 0.47466 0.09239 0.0
C5 C 0.17745 0.48668 0.09725 0.0
C6 C 0.21385 0.52694 0.10792 0.0
C7 C 0.20617 0.55546 0.11259 0.0
C8 C 0.16241 0.54329 0.10788 0.0
C9 C 0.03449 0.51096 0.17465 0.0
C10 C 0.09905 0.60484 0.13232 0.0
C11 C 0.95169 0.55971 0.17079 0.0
C12 C 0.90324 0.53833 0.17744 0.0
C13 C 0.88878 0.56194 0.17982 0.0
C14 C 0.8422 0.54205 0.18416 0.0
C15 C 0.80933 0.49818 0.18618 0.0
C16 C 0.82412 0.47466 0.1847 0.0
C17 C 0.8708 0.4946 0.18029 0.0
C18 C 0.99655 0.53677 0.09212 0.0
C19 C 0.92981 0.44239 0.13514 0.0
O20 O 0.05342 0.46668 0.11748 0.0
O21 O 0.07284 0.51374 0.08957 0.0
O22 O 0.03288 0.48255 0.16222 0.0
O23 O 0.04157 0.53666 0.15858 0.0
O24 O 0.09353 0.57295 0.1206 0.0
O25 O 0.06528 0.59893 0.14582 0.0
O26 O 0.96234 0.56969 0.14629 0.0
O27 O 0.96965 0.54393 0.18021 0.0
O28 O 1.00083 0.56674 0.10454 0.0
O29 O 0.98751 0.51021 0.10816 0.0
O30 O 0.93551 0.47438 0.14662 0.0
O31 O 0.96283 0.44782 0.12106 0.0
H32 H 0.10576 0.44294 0.08518 0.0
H33 H 0.18199 0.46373 0.09379 0.0
H34 H 0.23365 0.58685 0.12048 0.0
H35 H 0.15688 0.56522 0.11271 0.0
H36 H 0.91338 0.59569 0.17776 0.0
H37 H 0.83169 0.56091 0.18552 0.0
H38 H 0.79938 0.44078 0.18598 0.0
H39 H 0.88123 0.47574 0.1786 0.0
La40 La 0.5652 0.01742 0.48474 0.0
La41 La 0.50732 0.04065 0.47071 0.0
C42 C 0.59812 0.98707 0.50552 0.0
C43 C 0.58366 0.94531 0.50924 0.0
C44 C 0.61766 0.94173 0.5136 0.0
C45 C 0.60494 0.90235 0.51684 0.0
C46 C 0.55789 0.86579 0.51575 0.0
C47 C 0.52384 0.86949 0.51119 0.0
C48 C 0.53666 0.90897 0.50797 0.0
C49 C 0.56465 0.0309 0.4348 0.0
C50 C 0.45696 0.9461 0.47117 0.0
C51 C 0.47582 0.07349 0.45227 0.0
C52 C 0.48216 0.1115 0.45966 0.0
C53 C 0.47327 0.11782 0.48522 0.0
C54 C 0.48053 0.15433 0.49219 0.0
C55 C 0.49732 0.18567 0.47389 0.0
C56 C 0.50612 0.17926 0.44829 0.0
C57 C 0.4985 0.14248 0.44126 0.0
C58 C 0.51068 0.0298 0.52099 0.0
C59 C 0.61732 0.1125 0.48115 0.0
O60 O 0.60565 0.99914 0.48136 0.0
O61 O 0.57504 0.99597 0.51832 0.0
O62 O 0.59991 0.03931 0.44708 0.0
O63 O 0.53048 0.01255 0.44979 0.0
O64 O 0.4933 0.95707 0.48487 0.0
O65 O 0.45846 0.97453 0.45901 0.0
O66 O 0.4534 0.04296 0.46879 0.0
O67 O 0.51239 0.07988 0.44305 0.0
O68 O 0.475 0.02128 0.50933 0.0
O69 O 0.54345 0.04698 0.50521 0.0
O70 O 0.57851 0.10134 0.47063 0.0
O71 O 0.61862 0.08469 0.49176 0.0
H72 H 0.65414 0.96945 0.51443 0.0
H73 H 0.63201 0.90048 0.51995 0.0
H74 H 0.48729 0.84197 0.51051 0.0
H75 H 0.50992 0.91109 0.5046 0.0
H76 H 0.46081 0.09464 0.49994 0.0
H77 H 0.47258 0.15782 0.51193 0.0
H78 H 0.51956 0.20293 0.43379 0.0
H79 H 0.50585 0.13841 0.42148 0.0
La80 La 0.5954 0.5707 0.85669 0.0
La81 La 0.52827 0.4802 0.87075 0.0
C82 C 0.6345 0.64052 0.83627 0.0
C83 C 0.62147 0.66627 0.83025 0.0
C84 C 0.65071 0.70851 0.83889 0.0
C85 C 0.6389 0.73351 0.83413 0.0
C86 C 0.59766 0.71684 0.82044 0.0
C87 C 0.56844 0.67455 0.81162 0.0
C88 C 0.58011 0.6494 0.81658 0.0
C89 C 0.58963 0.55587 0.90672 0.0
C90 C 0.48763 0.5252 0.86565 0.0
C91 C 0.48902 0.41052 0.89134 0.0
C92 C 0.49417 0.37821 0.88885 0.0
C93 C 0.45677 0.33792 0.87896 0.0
C94 C 0.46204 0.30805 0.87386 0.0
C95 C 0.50484 0.31772 0.87868 0.0
C96 C 0.54176 0.35756 0.8896 0.0
C97 C 0.5365 0.38752 0.89465 0.0
C98 C 0.53395 0.49355 0.82035 0.0
C99 C 0.63745 0.52684 0.86298 0.0
O100 O 0.63803 0.63631 0.86114 0.0
O101 O 0.61371 0.60522 0.82273 0.0
O102 O 0.62816 0.58543 0.89551 0.0
O103 O 0.55654 0.53761 0.89052 0.0
O104 O 0.52675 0.55472 0.85351 0.0
O105 O 0.48331 0.49545 0.87815 0.0
O106 O 0.473 0.41517 0.87045 0.0
O107 O 0.5233 0.44672 0.90257 0.0
O108 O 0.49639 0.46292 0.83171 0.0
O109 O 0.5671 0.51308 0.83666 0.0
O110 O 0.59609 0.49435 0.87183 0.0
O111 O 0.64429 0.55939 0.85293 0.0
H112 H 0.68275 0.72219 0.84945 0.0
H113 H 0.66236 0.7661 0.84089 0.0
H114 H 0.53627 0.66078 0.8012 0.0
H115 H 0.5567 0.6168 0.80983 0.0
H116 H 0.42377 0.32994 0.87438 0.0
H117 H 0.43302 0.27791 0.86517 0.0
H118 H 0.57492 0.36576 0.89394 0.0
H119 H 0.56588 0.41816 0.90257 0.0
O120 O 0.55052 0.06176 0.22652 0.0
Cd121 Cd 0.54611 0.07362 0.18051 0.0
O122 O 0.5097 0.993 0.22737 0.0
Cd123 Cd 0.48429 0.97097 0.18707 0.0
O124 O 0.43048 0.90888 0.16855 0.0
C125 C 0.40185 0.90065 0.15084 0.0
O126 O 0.40542 0.93153 0.14121 0.0
C127 C 0.53416 0.02892 0.23902 0.0
C128 C 0.62725 0.15347 0.16753 0.0
O129 O 0.59544 0.14893 0.18086 0.0
O130 O 0.62078 0.12043 0.15991 0.0
O131 O 0.55022 0.50445 0.60946 0.0
Cd132 Cd 0.54194 0.5031 0.56191 0.0
O133 O 0.53311 0.54551 0.61638 0.0
Cd134 Cd 0.52633 0.5551 0.57564 0.0
O135 O 0.52231 0.59442 0.55087 0.0
C136 C 0.49321 0.59895 0.55776 0.0
O137 O 0.46581 0.57737 0.57742 0.0
C138 C 0.54359 0.52429 0.62522 0.0
C139 C 0.53297 0.43671 0.53848 0.0
O140 O 0.57278 0.47356 0.54081 0.0
O141 O 0.49745 0.43142 0.547 0.0
O142 O 0.10818 0.53563 0.89975 0.0
Cd143 Cd 0.1527 0.54106 0.86102 0.0
O144 O 0.05181 0.53303 0.88335 0.0
Cd145 Cd 0.99152 0.53257 0.88244 0.0
O146 O 0.93029 0.52928 0.87516 0.0
C147 C 0.91124 0.53548 0.89304 0.0
O148 O 0.92815 0.54422 0.91703 0.0
C149 C 0.07298 0.5336 0.90311 0.0
C150 C 0.22388 0.5353 0.86701 0.0
O151 O 0.23148 0.56951 0.87261 0.0
O152 O 0.18252 0.5034 0.8596 0.0
O153 O 0.07503 0.55341 0.38482 0.0
Cd154 Cd 0.08808 0.55998 0.43219 0.0
O155 O 0.9985 0.50493 0.38288 0.0
Cd156 Cd 0.98344 0.48711 0.42381 0.0
O157 O 0.93018 0.43176 0.4462 0.0
C158 C 0.90978 0.39715 0.43344 0.0
O159 O 0.92361 0.39812 0.40958 0.0
C160 C 0.0372 0.53071 0.37158 0.0
C161 C 0.16887 0.64186 0.44531 0.0
O162 O 0.17086 0.61338 0.43792 0.0
O163 O 0.12866 0.63152 0.44698 0.0
O164 O 0.53016 0.98663 0.72687 0.0
Cd165 Cd 0.53529 0.98067 0.77394 0.0
O166 O 0.54092 0.04535 0.72993 0.0
Cd167 Cd 0.54375 0.0553 0.77235 0.0
O168 O 0.54108 0.09418 0.80075 0.0
C169 C 0.52542 0.11075 0.79102 0.0
O170 O 0.51215 0.10228 0.76628 0.0
C171 C 0.53458 0.01613 0.71603 0.0
C172 C 0.5454 0.92108 0.78397 0.0
O173 O 0.50512 0.91074 0.78314 0.0
O174 O 0.58079 0.95954 0.78018 0.0
O175 O 0.48519 0.44579 0.0987 0.0
Cd176 Cd 0.44433 0.41552 0.14012 0.0
O177 O 0.54828 0.50748 0.11381 0.0
Cd178 Cd 0.51841 0.50039 0.15172 0.0
O179 O 0.47123 0.51076 0.16384 0.0
C180 C 0.48245 0.54501 0.15633 0.0
O181 O 0.52279 0.57208 0.14509 0.0
C182 C 0.5253 0.48093 0.09495 0.0
C183 C 0.49664 0.40404 0.17 0.0
O184 O 0.49846 0.43551 0.17436 0.0
O185 O 0.46794 0.37657 0.15243 0.0
C186 C 0.27804 0.5248 0.10015 0.0
C187 C 0.25842 0.5378 0.11584 0.0
C188 C 0.31724 0.53071 0.10873 0.0
C189 C 0.33755 0.55048 0.13349 0.0
C190 C 0.31927 0.56543 0.14892 0.0
C191 C 0.27971 0.55871 0.13996 0.0
C192 C 0.33591 0.51445 0.09166 0.0
C193 C 0.34034 0.58702 0.17529 0.0
C194 C 0.40169 0.51812 0.16311 0.0
C195 C 0.44726 0.55034 0.15515 0.0
C196 C 0.36592 0.51899 0.15747 0.0
C197 C 0.37612 0.55299 0.14368 0.0
C198 C 0.42259 0.58713 0.13738 0.0
C199 C 0.45769 0.58539 0.1432 0.0
C200 C 0.31676 0.48213 0.1647 0.0
C201 C 0.43484 0.62419 0.123 0.0
H202 H 0.26222 0.50929 0.08131 0.0
H203 H 0.26444 0.56843 0.15235 0.0
H204 H 0.37338 0.54004 0.08805 0.0
H205 H 0.33258 0.48947 0.10184 0.0
H206 H 0.31725 0.50133 0.0725 0.0
H207 H 0.3252 0.60079 0.18353 0.0
H208 H 0.33435 0.56406 0.18921 0.0
H209 H 0.37847 0.61233 0.1738 0.0
H210 H 0.39341 0.4911 0.17256 0.0
H211 H 0.49293 0.61064 0.1372 0.0
H212 H 0.29607 0.46438 0.14665 0.0
H213 H 0.29998 0.49317 0.17475 0.0
H214 H 0.31531 0.46032 0.17762 0.0
H215 H 0.42192 0.61433 0.10246 0.0
H216 H 0.47295 0.65057 0.12278 0.0
H217 H 0.41782 0.63568 0.13205 0.0
C218 C 0.70319 0.16938 0.48872 0.0
C219 C 0.66059 0.15692 0.4798 0.0
C220 C 0.7451 0.21002 0.48452 0.0
C221 C 0.74439 0.23883 0.47101 0.0
C222 C 0.70131 0.22716 0.46322 0.0
C223 C 0.65998 0.18642 0.46773 0.0
C224 C 0.79028 0.22135 0.49332 0.0
C225 C 0.69896 0.25693 0.44882 0.0
C226 C 0.85146 0.35486 0.46879 0.0
C227 C 0.8693 0.35658 0.44418 0.0
C228 C 0.81137 0.31661 0.47815 0.0
C229 C 0.78861 0.27932 0.46249 0.0
C230 C 0.80709 0.28079 0.43793 0.0
C231 C 0.84715 0.31929 0.42913 0.0
C232 C 0.7928 0.3162 0.5045 0.0
C233 C 0.78392 0.24178 0.4206 0.0
H234 H 0.70408 0.14696 0.4982 0.0
H235 H 0.62728 0.1773 0.46091 0.0
H236 H 0.80973 0.22394 0.47596 0.0
H237 H 0.81243 0.25234 0.50389 0.0
H238 H 0.78468 0.19752 0.50626 0.0
H239 H 0.66273 0.24464 0.44642 0.0
H240 H 0.71976 0.2879 0.45936 0.0
H241 H 0.71406 0.26215 0.42912 0.0
H242 H 0.86838 0.38349 0.48058 0.0
H243 H 0.86066 0.32018 0.41013 0.0
H244 H 0.78829 0.29242 0.51691 0.0
H245 H 0.75807 0.30715 0.50195 0.0
H246 H 0.81604 0.34729 0.51497 0.0
H247 H 0.78056 0.21719 0.43134 0.0
H248 H 0.80349 0.24802 0.4024 0.0
H249 H 0.74832 0.2289 0.4151 0.0
C250 C 0.58993 0.76993 0.83531 0.0
C251 C 0.58571 0.74387 0.81528 0.0
C252 C 0.58114 0.7973 0.83047 0.0
C253 C 0.56826 0.79897 0.8049 0.0
C254 C 0.5631 0.77216 0.78469 0.0
C255 C 0.57165 0.74475 0.79016 0.0
C256 C 0.58639 0.82493 0.85264 0.0
C257 C 0.5498 0.77324 0.75714 0.0
C258 C 0.51273 0.84875 0.79615 0.0
C259 C 0.55098 0.88962 0.78911 0.0
C260 C 0.51776 0.81886 0.80129 0.0
C261 C 0.562 0.82997 0.79913 0.0
C262 C 0.60063 0.87105 0.79182 0.0
C263 C 0.59469 0.90039 0.78701 0.0
C264 C 0.47582 0.77549 0.80924 0.0
C265 C 0.64833 0.88406 0.78913 0.0
H266 H 0.60019 0.76893 0.85483 0.0
H267 H 0.5687 0.72489 0.77458 0.0
H268 H 0.61475 0.85844 0.84834 0.0
H269 H 0.55401 0.82034 0.85462 0.0
H270 H 0.59439 0.81835 0.87164 0.0
H271 H 0.54553 0.7493 0.74388 0.0
H272 H 0.51681 0.76783 0.75711 0.0
H273 H 0.57693 0.80475 0.74914 0.0
H274 H 0.47884 0.84016 0.79787 0.0
H275 H 0.62441 0.93182 0.78149 0.0
H276 H 0.48206 0.76905 0.82885 0.0
H277 H 0.4699 0.75146 0.79531 0.0
H278 H 0.4438 0.77173 0.80989 0.0
H279 H 0.66005 0.88127 0.80815 0.0
H280 H 0.67455 0.91688 0.78271 0.0
H281 H 0.64701 0.86282 0.77476 0.0
C282 C 0.73111 0.44613 0.20637 0.0
C283 C 0.75941 0.47704 0.18798 0.0
C284 C 0.68383 0.42671 0.20816 0.0
C285 C 0.66479 0.43844 0.19102 0.0
C286 C 0.69319 0.46907 0.17211 0.0
C287 C 0.74011 0.48799 0.17088 0.0
C288 C 0.65463 0.39443 0.22865 0.0
C289 C 0.67416 0.48216 0.1532 0.0
C290 C 0.54022 0.37768 0.17055 0.0
C291 C 0.53195 0.40344 0.18175 0.0
C292 C 0.58187 0.38567 0.17577 0.0
C293 C 0.61553 0.41996 0.1927 0.0
C294 C 0.60453 0.44229 0.20671 0.0
C295 C 0.56281 0.43385 0.20098 0.0
C296 C 0.59203 0.36073 0.16071 0.0
C297 C 0.63908 0.47847 0.22538 0.0
H298 H 0.74617 0.43777 0.21964 0.0
H299 H 0.76179 0.51129 0.15632 0.0
H300 H 0.64504 0.40726 0.24373 0.0
H301 H 0.62182 0.36575 0.21981 0.0
H302 H 0.67329 0.38548 0.23845 0.0
H303 H 0.70074 0.50567 0.1393 0.0
H304 H 0.64453 0.45436 0.14176 0.0
H305 H 0.66098 0.49592 0.16416 0.0
H306 H 0.51619 0.3537 0.15592 0.0
H307 H 0.55615 0.45332 0.21011 0.0
H308 H 0.61094 0.35451 0.17314 0.0
H309 H 0.6145 0.37913 0.14394 0.0
H310 H 0.5597 0.3303 0.15292 0.0
H311 H 0.65698 0.47094 0.23759 0.0
H312 H 0.62217 0.48678 0.23843 0.0
H313 H 0.66594 0.50645 0.21401 0.0
C314 C 0.40572 0.87237 0.48666 0.0
C315 C 0.41518 0.90117 0.46821 0.0
C316 C 0.36597 0.82971 0.48415 0.0
C317 C 0.3353 0.81544 0.46248 0.0
C318 C 0.34494 0.84438 0.44368 0.0
C319 C 0.38451 0.88694 0.44691 0.0
C320 C 0.35657 0.80001 0.50482 0.0
C321 C 0.31359 0.83033 0.42005 0.0
C322 C 0.2548 0.69959 0.44186 0.0
C323 C 0.21179 0.68567 0.45095 0.0
C324 C 0.29536 0.74164 0.44569 0.0
C325 C 0.29303 0.7703 0.45938 0.0
C326 C 0.24994 0.75612 0.46926 0.0
C327 C 0.20976 0.71409 0.46469 0.0
C328 C 0.34047 0.75564 0.4345 0.0
C329 C 0.24618 0.7855 0.48439 0.0
H330 H 0.42896 0.88329 0.50335 0.0
H331 H 0.39179 0.90901 0.43249 0.0
H332 H 0.32251 0.78533 0.51391 0.0
H333 H 0.35448 0.77428 0.4958 0.0
H334 H 0.38387 0.81608 0.52045 0.0
H335 H 0.32659 0.85657 0.40691 0.0
H336 H 0.31051 0.80547 0.40872 0.0
H337 H 0.27817 0.81655 0.42637 0.0
H338 H 0.25659 0.67785 0.43111 0.0
H339 H 0.17669 0.70348 0.47192 0.0
H340 H 0.36739 0.76988 0.45019 0.0
H341 H 0.35334 0.78016 0.41997 0.0
H342 H 0.33663 0.72931 0.42479 0.0
H343 H 0.27141 0.80084 0.50105 0.0
H344 H 0.21075 0.76902 0.49209 0.0
H345 H 0.25503 0.81075 0.4716 0.0
C346 C 0.55201 0.30099 0.85783 0.0
C347 C 0.51148 0.28723 0.87069 0.0
C348 C 0.5565 0.27221 0.84737 0.0
C349 C 0.5195 0.22857 0.84973 0.0
C350 C 0.47949 0.21456 0.86382 0.0
C351 C 0.47599 0.24404 0.87415 0.0
C352 C 0.59979 0.28848 0.83255 0.0
C353 C 0.43937 0.16833 0.86687 0.0
C354 C 0.50462 0.15676 0.79523 0.0
C355 C 0.52319 0.14003 0.80662 0.0
C356 C 0.50307 0.18535 0.80914 0.0
C357 C 0.52057 0.19769 0.83516 0.0
C358 C 0.53909 0.18076 0.84693 0.0
C359 C 0.54016 0.15206 0.83252 0.0
C360 C 0.48292 0.20256 0.79586 0.0
C361 C 0.5581 0.19324 0.87463 0.0
H362 H 0.57945 0.33424 0.85483 0.0
H363 H 0.44492 0.23318 0.88447 0.0
H364 H 0.61381 0.27337 0.83918 0.0
H365 H 0.5911 0.28042 0.81139 0.0
H366 H 0.62737 0.3231 0.83499 0.0
H367 H 0.41288 0.16271 0.88051 0.0
H368 H 0.42237 0.15356 0.84753 0.0
H369 H 0.45199 0.15236 0.87418 0.0
H370 H 0.49135 0.14766 0.77526 0.0
H371 H 0.55462 0.13933 0.84147 0.0
H372 H 0.50956 0.23726 0.79509 0.0
H373 H 0.45345 0.19526 0.80728 0.0
H374 H 0.47038 0.18948 0.7756 0.0
H375 H 0.58733 0.22761 0.87622 0.0
H376 H 0.57063 0.17676 0.8811 0.0
H377 H 0.5309 0.18614 0.88822 0.0
C378 C 0.5106 0.78917 0.50372 0.0
C379 C 0.54456 0.82411 0.51976 0.0
C380 C 0.49834 0.74981 0.50728 0.0
C381 C 0.5205 0.74538 0.52737 0.0
C382 C 0.5546 0.78051 0.54367 0.0
C383 C 0.56617 0.81939 0.53968 0.0
C384 C 0.46191 0.71306 0.48949 0.0
C385 C 0.5788 0.77701 0.56545 0.0
C386 C 0.46727 0.64111 0.55721 0.0
C387 C 0.49506 0.63252 0.54677 0.0
C388 C 0.47346 0.67664 0.54997 0.0
C389 C 0.50811 0.70412 0.53176 0.0
C390 C 0.53419 0.69417 0.51986 0.0
C391 C 0.52741 0.65849 0.52754 0.0
C392 C 0.44484 0.68609 0.56304 0.0
C393 C 0.57113 0.72251 0.50015 0.0
H394 H 0.49412 0.79277 0.48814 0.0
H395 H 0.59187 0.8461 0.55239 0.0
H396 H 0.477 0.7008 0.47887 0.0
H397 H 0.43284 0.68714 0.50124 0.0
H398 H 0.44769 0.72165 0.47494 0.0
H399 H 0.60461 0.80738 0.57632 0.0
H400 H 0.55285 0.75339 0.57949 0.0
H401 H 0.59693 0.76607 0.55734 0.0
H402 H 0.44193 0.62106 0.57193 0.0
H403 H 0.54876 0.65191 0.51921 0.0
H404 H 0.42996 0.69366 0.54826 0.0
H405 H 0.46746 0.71403 0.57642 0.0
H406 H 0.41604 0.65941 0.57455 0.0
H407 H 0.55733 0.7305 0.4849 0.0
H408 H 0.58442 0.70792 0.49048 0.0
H409 H 0.60071 0.75237 0.51011 0.0
C410 C 0.6696 0.49023 0.87119 0.0
C411 C 0.67713 0.52675 0.86471 0.0
C412 C 0.70689 0.49031 0.87435 0.0
C413 C 0.75323 0.52794 0.87123 0.0
C414 C 0.761 0.5647 0.86415 0.0
C415 C 0.72303 0.56363 0.8609 0.0
C416 C 0.69666 0.45023 0.88164 0.0
C417 C 0.80964 0.60556 0.86066 0.0
C418 C 0.85104 0.54105 0.90715 0.0
C419 C 0.87063 0.53317 0.88716 0.0
C420 C 0.81302 0.53935 0.90222 0.0
C421 C 0.7936 0.52943 0.87662 0.0
C422 C 0.813 0.52125 0.85633 0.0
C423 C 0.85119 0.52326 0.86181 0.0
C424 C 0.79371 0.54834 0.92449 0.0
C425 C 0.79338 0.51036 0.8288 0.0
H426 H 0.63444 0.46142 0.87395 0.0
H427 H 0.7295 0.59211 0.85595 0.0
H428 H 0.71506 0.44373 0.86847 0.0
H429 H 0.70952 0.45373 0.90186 0.0
H430 H 0.6589 0.42275 0.88064 0.0
H431 H 0.80988 0.63085 0.85397 0.0
H432 H 0.8293 0.61606 0.87947 0.0
H433 H 0.82833 0.60106 0.84621 0.0
H434 H 0.86552 0.54873 0.92682 0.0
H435 H 0.86581 0.51704 0.84618 0.0
H436 H 0.75649 0.52087 0.92712 0.0
H437 H 0.79576 0.57537 0.91986 0.0
H438 H 0.81262 0.5556 0.94327 0.0
H439 H 0.75607 0.48192 0.82871 0.0
H440 H 0.81197 0.50449 0.81524 0.0
H441 H 0.79561 0.53631 0.82126 0.0
C442 C 0.15392 0.67926 0.14926 0.0
C443 C 0.14506 0.64768 0.13223 0.0
C444 C 0.19734 0.7198 0.15009 0.0
C445 C 0.2329 0.72933 0.13333 0.0
C446 C 0.22416 0.6978 0.11586 0.0
C447 C 0.18034 0.65726 0.11557 0.0
C448 C 0.20529 0.75233 0.16921 0.0
C449 C 0.26111 0.70686 0.09758 0.0
C450 C 0.32878 0.84648 0.12475 0.0
C451 C 0.36162 0.85624 0.14363 0.0
C452 C 0.28782 0.80484 0.12005 0.0
C453 C 0.27933 0.77223 0.13473 0.0
C454 C 0.31341 0.7816 0.15285 0.0
C455 C 0.35416 0.82341 0.15701 0.0
C456 C 0.25259 0.79606 0.10032 0.0
C457 C 0.30569 0.7478 0.16897 0.0
H458 H 0.12705 0.67222 0.1623 0.0
H459 H 0.17371 0.63317 0.10222 0.0
H460 H 0.23429 0.76359 0.1829 0.0
H461 H 0.21543 0.77992 0.15856 0.0
H462 H 0.17396 0.7399 0.18084 0.0
H463 H 0.24862 0.6791 0.08494 0.0
H464 H 0.27274 0.73316 0.0849 0.0
H465 H 0.29192 0.71688 0.109 0.0
H466 H 0.33436 0.87152 0.11415 0.0
H467 H 0.37938 0.8305 0.17155 0.0
H468 H 0.2215 0.78719 0.11066 0.0
H469 H 0.24097 0.76923 0.08703 0.0
H470 H 0.26663 0.82375 0.08838 0.0
H471 H 0.2772 0.73605 0.18291 0.0
H472 H 0.33731 0.75945 0.18029 0.0
H473 H 0.29488 0.72073 0.15623 0.0
C474 C 0.49343 0.24237 0.46464 0.0
C475 C 0.50543 0.22471 0.48166 0.0
C476 C 0.49909 0.27813 0.4723 0.0
C477 C 0.51674 0.29644 0.49766 0.0
C478 C 0.52969 0.27926 0.51475 0.0
C479 C 0.52416 0.24383 0.50649 0.0
C480 C 0.4853 0.29581 0.45345 0.0
C481 C 0.54857 0.29781 0.54198 0.0
C482 C 0.56566 0.40804 0.51407 0.0
C483 C 0.52824 0.40106 0.52689 0.0
C484 C 0.56203 0.37433 0.50382 0.0
C485 C 0.52021 0.33267 0.50679 0.0
C486 C 0.48215 0.32546 0.51943 0.0
C487 C 0.48653 0.35975 0.52918 0.0
C488 C 0.60315 0.38327 0.49015 0.0
C489 C 0.43714 0.28147 0.52322 0.0
H490 H 0.47853 0.22763 0.44553 0.0
H491 H 0.53447 0.23099 0.51958 0.0
H492 H 0.45582 0.2928 0.46144 0.0
H493 H 0.51458 0.32978 0.45099 0.0
H494 H 0.47483 0.27952 0.43391 0.0
H495 H 0.55772 0.28113 0.5527 0.0
H496 H 0.58 0.33141 0.54098 0.0
H497 H 0.52239 0.29634 0.55339 0.0
H498 H 0.59791 0.43989 0.51209 0.0
H499 H 0.4575 0.35408 0.53912 0.0
H500 H 0.59257 0.36795 0.47035 0.0
H501 H 0.61594 0.36988 0.50123 0.0
H502 H 0.63226 0.41746 0.48822 0.0
H503 H 0.42298 0.26425 0.50406 0.0
H504 H 0.41045 0.28125 0.53287 0.0
H505 H 0.44361 0.26399 0.53537 0.0
C506 C 0.41364 0.50442 0.88473 0.0
C507 C 0.4491 0.52689 0.86627 0.0
C508 C 0.37732 0.50602 0.8857 0.0
C509 C 0.3756 0.53001 0.86743 0.0
C510 C 0.41122 0.55262 0.84867 0.0
C511 C 0.44762 0.5511 0.84848 0.0
C512 C 0.34084 0.48214 0.9064 0.0
C513 C 0.41064 0.5781 0.82854 0.0
C514 C 0.25777 0.50114 0.85416 0.0
C515 C 0.26209 0.53321 0.86796 0.0
C516 C 0.29441 0.49995 0.85364 0.0
C517 C 0.33631 0.53103 0.86777 0.0
C518 C 0.34053 0.56303 0.88216 0.0
C519 C 0.30372 0.56402 0.88183 0.0
C520 C 0.28853 0.46573 0.8376 0.0
C521 C 0.38399 0.59629 0.89796 0.0
H522 H 0.41454 0.48589 0.89874 0.0
H523 H 0.47463 0.56847 0.83406 0.0
H524 H 0.33911 0.50389 0.91821 0.0
H525 H 0.30618 0.45813 0.89703 0.0
H526 H 0.34792 0.4662 0.91975 0.0
H527 H 0.44069 0.59375 0.81521 0.0
H528 H 0.37808 0.55746 0.81664 0.0
H529 H 0.41118 0.60251 0.83839 0.0
H530 H 0.22601 0.47738 0.84318 0.0
H531 H 0.30747 0.58888 0.89261 0.0
H532 H 0.2922 0.4469 0.85036 0.0
H533 H 0.31623 0.47992 0.82279 0.0
H534 H 0.25421 0.4443 0.82737 0.0
H535 H 0.39103 0.58127 0.91217 0.0
H536 H 0.38131 0.61812 0.90884 0.0
H537 H 0.41429 0.61483 0.88487 0.0
C538 C 0.84331 0.39287 0.13739 0.0
C539 C 0.88495 0.3997 0.13781 0.0
C540 C 0.80047 0.35258 0.14083 0.0
C541 C 0.79957 0.31879 0.14596 0.0
C542 C 0.84174 0.32578 0.14668 0.0
C543 C 0.88387 0.36602 0.14204 0.0
C544 C 0.75625 0.34623 0.139 0.0
C545 C 0.84255 0.2911 0.15319 0.0
C546 C 0.69431 0.22687 0.18173 0.0
C547 C 0.67074 0.19572 0.16179 0.0
C548 C 0.73667 0.26685 0.17694 0.0
C549 C 0.75471 0.27641 0.1513 0.0
C550 C 0.73019 0.24527 0.13093 0.0
C551 C 0.68899 0.20491 0.13657 0.0
C552 C 0.76261 0.29852 0.19944 0.0
C553 C 0.74721 0.2547 0.10315 0.0
H554 H 0.84423 0.419 0.13405 0.0
H555 H 0.91624 0.37154 0.14273 0.0
H556 H 0.73162 0.32012 0.12481 0.0
H557 H 0.73907 0.33735 0.15826 0.0
H558 H 0.76272 0.37496 0.13284 0.0
H559 H 0.87835 0.30196 0.15356 0.0
H560 H 0.82687 0.27869 0.17262 0.0
H561 H 0.82142 0.26465 0.13865 0.0
H562 H 0.68025 0.2195 0.20128 0.0
H563 H 0.67043 0.18078 0.12114 0.0
H564 H 0.76627 0.32663 0.19576 0.0
H565 H 0.79819 0.30915 0.20118 0.0
H566 H 0.74483 0.2855 0.21838 0.0
H567 H 0.75228 0.28261 0.09667 0.0
H568 H 0.72263 0.22788 0.08931 0.0
H569 H 0.78137 0.26236 0.10206 0.0
C570 C 0.01692 0.56785 0.04792 0.0
C571 C 1.00311 0.53479 0.06379 0.0
C572 C 0.02549 0.5672 0.0212 0.0
C573 C 0.02033 0.53274 0.01019 0.0
C574 C 1.00532 0.49882 0.02607 0.0
C575 C 0.99667 0.50017 0.05265 0.0
C576 C 0.04121 0.60386 0.00491 0.0
C577 C 0.99972 0.46166 0.01517 0.0
C578 C 1.01295 0.51553 0.93613 0.0
C579 C 0.05882 0.53364 0.93028 0.0
C580 C 0.99993 0.51547 0.962 0.0
C581 C 0.03344 0.53337 0.98253 0.0
C582 C 0.07968 0.55135 0.97676 0.0
C583 C 0.09176 0.55128 0.95077 0.0
C584 C 0.95026 0.49593 0.9674 0.0
C585 C 0.11642 0.57049 0.99809 0.0
H586 H 0.02175 0.59458 0.05649 0.0
H587 H 0.98563 0.47439 0.06485 0.0
H588 H 0.07711 0.62022 0.99813 0.0
H589 H 0.01862 0.59257 0.98722 0.0
H590 H 0.04067 0.62691 0.01597 0.0
H591 H 0.98553 0.43691 0.02976 0.0
H592 H 0.97625 0.44768 0.99773 0.0
H593 H 0.0339 0.47216 0.00874 0.0
H594 H 0.98687 0.50038 0.92068 0.0
H595 H 0.1273 0.56529 0.94647 0.0
H596 H 0.94923 0.5194 0.97729 0.0
H597 H 0.9346 0.46956 0.98084 0.0
H598 H 0.92858 0.48391 0.94924 0.0
H599 H 0.12023 0.59624 0.00866 0.0
H600 H 0.15081 0.58328 0.99033 0.0
H601 H 0.10575 0.54653 0.01261 0.0
C602 C 0.60051 0.0491 0.3908 0.0
C603 C 0.56238 0.03474 0.40641 0.0
C604 C 0.59803 0.05057 0.36354 0.0
C605 C 0.55654 0.0377 0.35172 0.0
C606 C 0.51841 0.0244 0.36754 0.0
C607 C 0.52173 0.02291 0.39474 0.0
C608 C 0.63933 0.06475 0.34733 0.0
C609 C 0.47374 0.01083 0.3557 0.0
C610 C 0.56014 0.06916 0.28204 0.0
C611 C 0.54193 0.03202 0.26772 0.0
C612 C 0.5652 0.07156 0.3094 0.0
C613 C 0.55218 0.03612 0.32272 0.0
C614 C 0.53459 0.99883 0.30836 0.0
C615 C 0.52951 0.99718 0.28108 0.0
C616 C 0.5838 0.11176 0.3241 0.0
C617 C 0.52076 0.96051 0.32184 0.0
H618 H 0.63204 0.05839 0.39983 0.0
H619 H 0.49229 0.012 0.40684 0.0
H620 H 0.62975 0.03847 0.33417 0.0
H621 H 0.64978 0.09077 0.33476 0.0
H622 H 0.6697 0.0755 0.35961 0.0
H623 H 0.44849 1.00388 0.37082 0.0
H624 H 0.48102 0.0357 0.34314 0.0
H625 H 0.45737 0.98224 0.34303 0.0
H626 H 0.56965 0.09619 0.27192 0.0
H627 H 0.5156 0.9684 0.27022 0.0
H628 H 0.6152 0.12368 0.33572 0.0
H629 H 0.55751 0.1056 0.3381 0.0
H630 H 0.5929 0.13666 0.31083 0.0
H631 H 0.55065 0.96862 0.33333 0.0
H632 H 0.50868 0.93428 0.30778 0.0
H633 H 0.49247 0.94941 0.33578 0.0
C634 C 0.58178 0.52938 0.78068 0.0
C635 C 0.53825 0.49963 0.7919 0.0
C636 C 0.58585 0.53496 0.75354 0.0
C637 C 0.54543 0.50994 0.73737 0.0
C638 C 0.50145 0.47969 0.74867 0.0
C639 C 0.49841 0.47498 0.77582 0.0
C640 C 0.63328 0.56767 0.74219 0.0
C641 C 0.45754 0.45242 0.73209 0.0
C642 C 0.54297 0.54679 0.67099 0.0
C643 C 0.547 0.52229 0.65392 0.0
C644 C 0.54383 0.54399 0.69821 0.0
C645 C 0.54865 0.51587 0.70866 0.0
C646 C 0.55389 0.49178 0.69161 0.0
C647 C 0.55309 0.49532 0.66442 0.0
C648 C 0.53837 0.57036 0.71576 0.0
C649 C 0.55903 0.4614 0.70208 0.0
H650 H 0.61268 0.5482 0.7931 0.0
H651 H 0.46471 0.45192 0.78449 0.0
H652 H 0.64085 0.55272 0.7275 0.0
H653 H 0.63399 0.59118 0.73191 0.0
H654 H 0.66127 0.58431 0.75743 0.0
H655 H 0.4262 0.42981 0.74388 0.0
H656 H 0.45264 0.47239 0.72171 0.0
H657 H 0.46038 0.43454 0.71697 0.0
H658 H 0.53857 0.56795 0.66311 0.0
H659 H 0.55633 0.47634 0.65139 0.0
H660 H 0.56722 0.58866 0.7304 0.0
H661 H 0.50552 0.54963 0.72671 0.0
H662 H 0.53776 0.59251 0.7046 0.0
H663 H 0.58822 0.47773 0.7165 0.0
H664 H 0.56536 0.44674 0.68633 0.0
H665 H 0.52702 0.43614 0.71245 0.0
C666 C 0.47454 1.00383 0.56464 0.0
C667 C 0.51415 0.02513 0.54912 0.0
C668 C 0.47747 1.00024 0.59161 0.0
C669 C 0.52109 0.01844 0.60326 0.0
C670 C 0.56105 0.03929 0.58752 0.0
C671 C 0.55711 0.04247 0.56062 0.0
C672 C 0.43407 0.97777 0.60772 0.0
C673 C 0.60816 0.05911 0.59921 0.0
C674 C 0.53751 0.04977 0.67539 0.0
C675 C 0.53189 0.01669 0.6871 0.0
C676 C 0.53437 0.05077 0.64817 0.0
C677 C 0.52535 0.01788 0.63213 0.0
C678 C 0.51994 0.9845 0.64372 0.0
C679 C 0.52329 0.98429 0.67108 0.0
C680 C 0.54041 0.08697 0.63657 0.0
C681 C 0.51031 0.9489 0.6272 0.0
H682 H 0.44126 0.99028 0.55573 0.0
H683 H 0.58784 0.05916 0.54865 0.0
H684 H 0.42902 0.95266 0.61885 0.0
H685 H 0.43779 1.00019 0.6222 0.0
H686 H 0.4025 0.96351 0.59548 0.0
H687 H 0.6352 0.07189 0.58406 0.0
H688 H 0.61903 0.08505 0.61314 0.0
H689 H 0.60643 0.03572 0.61041 0.0
H690 H 0.54423 0.07502 0.68753 0.0
H691 H 0.5189 0.95861 0.67991 0.0
H692 H 0.50847 0.07502 0.62555 0.0
H693 H 0.56935 0.10316 0.6225 0.0
H694 H 0.54781 0.11033 0.65173 0.0
H695 H 0.4773 0.93247 0.61599 0.0
H696 H 0.50774 0.92565 0.63917 0.0
H697 H 0.53829 0.96142 0.61276 0.0
C698 C 0.54236 0.52769 0.94669 0.0
C699 C 0.58441 0.54533 0.93438 0.0
C700 C 0.53642 0.51772 0.97313 0.0
C701 C 0.5729 0.52413 0.98728 0.0
C702 C 0.61508 0.54091 0.97467 0.0
C703 C 0.62067 0.55209 0.94838 0.0
C704 C 0.49139 0.501 0.98601 0.0
C705 C 0.65402 0.54673 0.98887 0.0
C706 C 0.56896 0.53449 0.06086 0.0
C707 C 0.54303 0.4927 0.06811 0.0
C708 C 0.58039 0.5455 0.03465 0.0
C709 C 0.56682 0.51413 0.01543 0.0
C710 C 0.54333 0.47238 0.02295 0.0
C711 C 0.53091 0.46197 0.04919 0.0
C712 C 0.60424 0.59009 0.02734 0.0
C713 C 0.52969 0.4384 0.00313 0.0
H714 H 0.5144 0.52256 0.93574 0.0
H715 H 0.65294 0.56524 0.93861 0.0
H716 H 0.47375 0.46915 0.99328 0.0
H717 H 0.49858 0.52148 0.00317 0.0
H718 H 0.46718 0.49922 0.97243 0.0
H719 H 0.68349 0.5579 0.97583 0.0
H720 H 0.66715 0.5698 0.00543 0.0
H721 H 0.64094 0.51661 0.99723 0.0
H722 H 0.578 0.55823 0.07545 0.0
H723 H 0.51116 0.42969 0.05484 0.0
H724 H 0.58029 0.59052 0.0151 0.0
H725 H 0.63539 0.60282 0.01552 0.0
H726 H 0.615 0.61124 0.04478 0.0
H727 H 0.50118 0.43053 0.99033 0.0
H728 H 0.5177 0.40929 0.0126 0.0
H729 H 0.55944 0.44952 0.9904 0.0
C730 C 0.02811 0.48548 0.21927 0.0
C731 C 0.03576 0.51617 0.20337 0.0
C732 C 0.02926 0.4898 0.24663 0.0
C733 C 0.03786 0.52554 0.25834 0.0
C734 C 0.0456 0.55665 0.24234 0.0
C735 C 0.04484 0.55175 0.215 0.0
C736 C 0.02125 0.45611 0.26301 0.0
C737 C 0.05446 0.59498 0.25409 0.0
C738 C 0.99686 0.51303 0.3282 0.0
C739 C 0.03813 0.53252 0.34263 0.0
C740 C 0.99657 0.51178 0.30073 0.0
C741 C 0.03845 0.53001 0.28735 0.0
C742 C 0.08042 0.55062 0.30176 0.0
C743 C 0.07981 0.55186 0.32923 0.0
C744 C 0.95122 0.49003 0.28604 0.0
C745 C 0.12571 0.57011 0.28819 0.0
H746 H 0.02121 0.45799 0.21029 0.0
H747 H 0.05139 0.57581 0.20273 0.0
H748 H 0.05139 0.4701 0.27644 0.0
H749 H 0.99024 0.44193 0.27531 0.0
H750 H 1.01599 0.43073 0.25087 0.0
H751 H 0.05924 0.61598 0.23891 0.0
H752 H 0.02492 0.58526 0.26654 0.0
H753 H 0.08598 0.61307 0.26686 0.0
H754 H 0.96453 0.49826 0.33837 0.0
H755 H 0.11184 0.56689 0.3402 0.0
H756 H 0.94157 0.46187 0.27518 0.0
H757 H 0.95501 0.51119 0.2714 0.0
H758 H 0.92237 0.48002 0.29927 0.0
H759 H 0.12336 0.54531 0.27733 0.0
H760 H 0.15564 0.58672 0.30215 0.0
H761 H 0.13259 0.59274 0.27366 0.0
loop_
_geom_bond_atom_site_label_1
_geom_bond_atom_site_label_2
_geom_bond_distance
_geom_bond_site_symmetry_2
_ccdc_geom_bond_type
La0 C2 2.928 . S
La0 O20 2.521 . S
La0 O21 2.628 . S
La0 O22 2.554 . S
La0 O23 2.757 . S
La0 O24 2.470 . S
La0 O29 2.482 . S
La0 O31 2.503 1_455 S
La1 C11 2.928 . S
La1 O23 2.482 1_655 S
La1 O25 2.503 1_655 S
La1 O26 2.521 . S
La1 O27 2.628 . S
La1 O28 2.554 . S
La1 O29 2.757 1_655 S
La1 O30 2.470 . S
C2 La0 2.928 . S
C2 C3 1.503 . S
C2 O20 1.261 . S
C2 O21 1.243 . S
C3 C2 1.503 . S
C3 C4 1.394 . S
C3 C8 1.373 . S
C4 C3 1.394 . S
C4 C5 1.380 . S
C4 H32 0.930 . S
C5 C4 1.380 . S
C5 C6 1.376 . S
C5 H33 0.930 . S
C6 C5 1.376 . S
C6 C7 1.370 . S
C7 C6 1.370 . S
C7 C8 1.396 . S
C7 H34 0.929 . S
C8 C3 1.373 . S
C8 C7 1.396 . S
C8 H35 0.929 . S
C9 O22 1.240 . S
C9 O23 1.289 . S
C10 O24 1.258 . S
C10 O25 1.256 . S
C11 La1 2.928 . S
C11 C12 1.503 . S
C11 O26 1.261 . S
C11 O27 1.243 . S
C12 C11 1.503 . S
C12 C13 1.394 . S
C12 C17 1.373 . S
C13 C12 1.394 . S
C13 C14 1.380 . S
C13 H36 0.930 . S
C14 C13 1.380 . S
C14 C15 1.376 . S
C14 H37 0.930 . S
C15 C14 1.376 . S
C15 C16 1.370 . S
C16 C15 1.370 . S
C16 C17 1.396 . S
C16 H38 0.929 . S
C17 C12 1.373 . S
C17 C16 1.396 . S
C17 H39 0.929 . S
C18 O28 1.240 1_455 S
C18 O29 1.289 . S
C19 O30 1.258 . S
C19 O31 1.256 . S
O20 La0 2.521 . S
O20 C2 1.261 . S
O21 La0 2.628 . S
O21 C2 1.243 . S
O22 La0 2.554 . S
O22 C9 1.240 . S
O23 La0 2.757 . S
O23 La1 2.482 1_455 S
O23 C9 1.289 . S
O24 La0 2.470 . S
O24 C10 1.258 . S
O25 La1 2.503 1_455 S
O25 C10 1.256 . S
O26 La1 2.521 . S
O26 C11 1.261 . S
O27 La1 2.628 . S
O27 C11 1.243 . S
O28 La1 2.554 . S
O28 C18 1.240 1_655 S
O29 La0 2.482 . S
O29 La1 2.757 1_455 S
O29 C18 1.289 . S
O30 La1 2.470 . S
O30 C19 1.258 . S
O31 La0 2.503 1_655 S
O31 C19 1.256 . S
H32 C4 0.930 . S
H33 C5 0.930 . S
H34 C7 0.929 . S
H35 C8 0.929 . S
H36 C13 0.930 . S
H37 C14 0.930 . S
H38 C16 0.929 . S
H39 C17 0.929 . S
La40 C42 2.928 . S
La40 O60 2.521 . S
La40 O61 2.628 . S
La40 O62 2.554 . S
La40 O63 2.757 1_565 S
La40 O64 2.470 . S
La40 O69 2.473 1_565 S
La40 O71 2.503 1_565 S
La41 C51 2.928 . S
La41 O63 2.482 . S
La41 O65 2.503 1_545 S
La41 O66 2.521 . S
La41 O67 2.628 . S
La41 O68 2.554 . S
La41 O69 2.770 . S
La41 O70 2.470 . S
C42 La40 2.928 . S
C42 C43 1.503 . S
C42 O60 1.261 . S
C42 O61 1.243 . S
C43 C42 1.503 . S
C43 C44 1.394 . S
C43 C48 1.373 . S
C44 C43 1.394 . S
C44 C45 1.380 . S
C44 H72 0.930 . S
C45 C44 1.380 . S
C45 C46 1.376 . S
C45 H73 0.930 . S
C46 C45 1.376 . S
C46 C47 1.370 . S
C47 C46 1.370 . S
C47 C48 1.396 . S
C47 H74 0.929 . S
C48 C43 1.373 . S
C48 C47 1.396 . S
C48 H75 0.929 . S
C49 O62 1.240 1_545 S
C49 O63 1.289 . S
C50 O64 1.258 . S
C50 O65 1.256 . S
C51 La41 2.928 . S
C51 C52 1.503 . S
C51 O66 1.261 . S
C51 O67 1.243 . S
C52 C51 1.503 . S
C52 C53 1.394 . S
C52 C57 1.373 . S
C53 C52 1.394 . S
C53 C54 1.380 . S
C53 H76 0.930 . S
C54 C53 1.380 . S
C54 C55 1.376 . S
C54 H77 0.930 . S
C55 C54 1.376 . S
C55 C56 1.370 . S
C56 C55 1.370 . S
C56 C57 1.396 . S
C56 H78 0.929 . S
C57 C52 1.373 . S
C57 C56 1.396 . S
C57 H79 0.929 . S
C58 O68 1.240 . S
C58 O69 1.297 . S
C59 O70 1.258 . S
C59 O71 1.256 . S
O60 La40 2.521 . S
O60 C42 1.261 . S
O61 La40 2.628 . S
O61 C42 1.243 . S
O62 La40 2.554 . S
O62 C49 1.240 1_565 S
O63 La40 2.757 1_545 S
O63 La41 2.482 . S
O63 C49 1.289 . S
O64 La40 2.470 . S
O64 C50 1.258 . S
O65 La41 2.503 1_565 S
O65 C50 1.256 . S
O66 La41 2.521 . S
O66 C51 1.261 . S
O67 La41 2.628 . S
O67 C51 1.243 . S
O68 La41 2.554 . S
O68 C58 1.240 . S
O69 La40 2.473 1_545 S
O69 La41 2.770 . S
O69 C58 1.297 . S
O70 La41 2.470 . S
O70 C59 1.258 . S
O71 La40 2.503 1_545 S
O71 C59 1.256 . S
H72 C44 0.930 . S
H73 C45 0.930 . S
H74 C47 0.929 . S
H75 C48 0.929 . S
H76 C53 0.930 . S
H77 C54 0.930 . S
H78 C56 0.929 . S
H79 C57 0.929 . S
La80 C82 2.928 . S
La80 O100 2.521 . S
La80 O101 2.628 . S
La80 O102 2.554 . S
La80 O103 2.757 . S
La80 O104 2.470 . S
La80 O109 2.482 . S
La80 O111 2.503 . S
La81 C91 2.928 . S
La81 O103 2.482 . S
La81 O105 2.503 . S
La81 O106 2.521 . S
La81 O107 2.628 . S
La81 O108 2.554 . S
La81 O109 2.757 . S
La81 O110 2.470 . S
C82 La80 2.928 . S
C82 C83 1.503 . S
C82 O100 1.261 . S
C82 O101 1.243 . S
C83 C82 1.503 . S
C83 C84 1.394 . S
C83 C88 1.373 . S
C84 C83 1.394 . S
C84 C85 1.380 . S
C84 H112 0.930 . S
C85 C84 1.380 . S
C85 C86 1.376 . S
C85 H113 0.930 . S
C86 C85 1.376 . S
C86 C87 1.370 . S
C87 C86 1.370 . S
C87 C88 1.396 . S
C87 H114 0.929 . S
C88 C83 1.373 . S
C88 C87 1.396 . S
C88 H115 0.929 . S
C89 O102 1.240 . S
C89 O103 1.289 . S
C90 O104 1.258 . S
C90 O105 1.256 . S
C91 La81 2.928 . S
C91 C92 1.503 . S
C91 O106 1.261 . S
C91 O107 1.243 . S
C92 C91 1.503 . S
C92 C93 1.394 . S
C92 C97 1.373 . S
C93 C92 1.394 . S
C93 C94 1.380 . S
C93 H116 0.930 . S
C94 C93 1.380 . S
C94 C95 1.376 . S
C94 H117 0.930 . S
C95 C94 1.376 . S
C95 C96 1.370 . S
C96 C95 1.370 . S
C96 C97 1.396 . S
C96 H118 0.929 . S
C97 C92 1.373 . S
C97 C96 1.396 . S
C97 H119 0.929 . S
C98 O108 1.240 . S
C98 O109 1.289 . S
C99 O110 1.258 . S
C99 O111 1.256 . S
O100 La80 2.521 . S
O100 C82 1.261 . S
O101 La80 2.628 . S
O101 C82 1.243 . S
O102 La80 2.554 . S
O102 C89 1.240 . S
O103 La80 2.757 . S
O103 La81 2.482 . S
O103 C89 1.289 . S
O104 La80 2.470 . S
O104 C90 1.258 . S
O105 La81 2.503 . S
O105 C90 1.256 . S
O106 La81 2.521 . S
O106 C91 1.261 . S
O107 La81 2.628 . S
O107 C91 1.243 . S
O108 La81 2.554 . S
O108 C98 1.240 . S
O109 La80 2.482 . S
O109 La81 2.757 . S
O109 C98 1.289 . S
O110 La81 2.470 . S
O110 C99 1.258 . S
O111 La80 2.503 . S
O111 C99 1.256 . S
H112 C84 0.930 . S
H113 C85 0.930 . S
H114 C87 0.929 . S
H115 C88 0.929 . S
H116 C93 0.930 . S
H117 C94 0.930 . S
H118 C96 0.929 . S
H119 C97 0.929 . S
O120 Cd121 2.300 . S
O120 C127 1.275 . S
Cd121 O120 2.300 . S
Cd121 O129 2.381 . S
Cd121 O130 2.378 . S
O122 Cd123 2.385 . S
O122 C127 1.255 1_565 S
Cd123 O122 2.385 . S
Cd123 O124 2.317 . S
O124 Cd123 2.317 . S
O124 C125 1.232 . S
C125 O124 1.232 . S
C125 O126 1.218 . S
O126 C125 1.218 . S
C127 O120 1.275 . S
C127 O122 1.255 1_545 S
C128 O129 1.258 . S
C128 O130 1.256 . S
O129 Cd121 2.381 . S
O129 C128 1.258 . S
O130 Cd121 2.378 . S
O130 C128 1.256 . S
O131 Cd132 2.300 . S
O131 C138 1.275 . S
Cd132 O131 2.300 . S
Cd132 O140 2.381 . S
Cd132 O141 2.378 . S
O133 Cd134 2.385 . S
O133 C138 1.255 . S
Cd134 O133 2.385 . S
Cd134 O135 2.317 . S
O135 Cd134 2.317 . S
O135 C136 1.232 . S
C136 O135 1.232 . S
C136 O137 1.218 . S
O137 C136 1.218 . S
C138 O131 1.275 . S
C138 O133 1.255 . S
C139 O140 1.258 . S
C139 O141 1.256 . S
O140 Cd132 2.381 . S
O140 C139 1.258 . S
O141 Cd132 2.378 . S
O141 C139 1.256 . S
O142 Cd143 2.300 . S
O142 C149 1.275 . S
Cd143 O142 2.300 . S
Cd143 O151 2.381 . S
Cd143 O152 2.378 . S
O144 Cd145 2.385 . S
O144 C149 1.255 1_655 S
Cd145 O144 2.385 . S
Cd145 O146 2.317 . S
O146 Cd145 2.317 . S
O146 C147 1.232 . S
C147 O146 1.232 . S
C147 O148 1.218 . S
O148 C147 1.218 . S
C149 O142 1.275 . S
C149 O144 1.255 1_455 S
C150 O151 1.258 . S
C150 O152 1.256 . S
O151 Cd143 2.381 . S
O151 C150 1.258 . S
O152 Cd143 2.378 . S
O152 C150 1.256 . S
O153 Cd154 2.300 . S
O153 C160 1.275 1_455 S
Cd154 O153 2.300 . S
Cd154 O162 2.381 . S
Cd154 O163 2.378 . S
O155 Cd156 2.385 . S
O155 C160 1.255 . S
Cd156 O155 2.385 . S
Cd156 O157 2.317 . S
O157 Cd156 2.317 . S
O157 C158 1.232 . S
C158 O157 1.232 . S
C158 O159 1.218 . S
O159 C158 1.218 . S
C160 O153 1.275 1_655 S
C160 O155 1.255 . S
C161 O162 1.258 . S
C161 O163 1.256 . S
O162 Cd154 2.381 . S
O162 C161 1.258 . S
O163 Cd154 2.378 . S
O163 C161 1.256 . S
O164 Cd165 2.300 . S
O164 C171 1.275 1_565 S
Cd165 O164 2.300 . S
Cd165 O173 2.381 . S
Cd165 O174 2.378 . S
O166 Cd167 2.385 . S
O166 C171 1.255 . S
Cd167 O166 2.385 . S
Cd167 O168 2.317 . S
O168 Cd167 2.317 . S
O168 C169 1.232 . S
C169 O168 1.232 . S
C169 O170 1.218 . S
O170 C169 1.218 . S
C171 O164 1.275 1_545 S
C171 O166 1.255 . S
C172 O173 1.258 . S
C172 O174 1.256 . S
O173 Cd165 2.381 . S
O173 C172 1.258 . S
O174 Cd165 2.378 . S
O174 C172 1.256 . S
O175 Cd176 2.300 . S
O175 C182 1.275 . S
Cd176 O175 2.300 . S
Cd176 O184 2.381 . S
Cd176 O185 2.378 . S
O177 Cd178 2.385 . S
O177 C182 1.255 . S
Cd178 O177 2.385 . S
Cd178 O179 2.317 . S
O179 Cd178 2.317 . S
O179 C180 1.232 . S
C180 O179 1.232 . S
C180 O181 1.218 . S
O181 C180 1.218 . S
C182 O175 1.275 . S
C182 O177 1.255 . S
C183 O184 1.258 . S
C183 O185 1.256 . S
O184 Cd176 2.381 . S
O184 C183 1.258 . S
O185 Cd176 2.378 . S
O185 C183 1.256 . S
C186 C187 1.391 . S
C186 C188 1.394 . S
C186 H202 0.931 . S
C187 C186 1.391 . S
C187 C191 1.376 . S
C188 C186 1.394 . S
C188 C189 1.369 . S
C188 C192 1.531 . S
C189 C188 1.369 . S
C189 C190 1.410 . S
C189 C197 1.503 . S
C190 C189 1.410 . S
C190 C191 1.392 . S
C190 C193 1.511 . S
C191 C187 1.376 . S
C191 C190 1.392 . S
C191 H203 0.929 . S
C192 C188 1.531 . S
C192 H204 0.960 . S
C192 H205 0.962 . S
C192 H206 0.960 . S
C193 C190 1.511 . S
C193 H207 0.961 . S
C193 H208 0.961 . S
C193 H209 0.961 . S
C194 C195 1.370 . S
C194 C196 1.363 . S
C194 H210 0.931 . S
C195 C194 1.370 . S
C195 C199 1.408 . S
C196 C194 1.363 . S
C196 C197 1.370 . S
C196 C200 1.524 . S
C197 C189 1.503 . S
C197 C196 1.370 . S
C197 C198 1.403 . S
C198 C197 1.403 . S
C198 C199 1.404 . S
C198 C201 1.539 . S
C199 C195 1.408 . S
C199 C198 1.404 . S
C199 H211 0.930 . S
C200 C196 1.524 . S
C200 H212 0.956 . S
C200 H213 0.961 . S
C200 H214 0.961 . S
C201 C198 1.539 . S
C201 H215 0.958 . S
C201 H216 0.961 . S
C201 H217 0.960 . S
H202 C186 0.931 . S
H203 C191 0.929 . S
H204 C192 0.960 . S
H205 C192 0.962 . S
H206 C192 0.960 . S
H207 C193 0.961 . S
H208 C193 0.961 . S
H209 C193 0.961 . S
H210 C194 0.931 . S
H211 C199 0.930 . S
H212 C200 0.956 . S
H213 C200 0.961 . S
H214 C200 0.961 . S
H215 C201 0.958 . S
H216 C201 0.961 . S
H217 C201 0.960 . S
C218 C219 1.391 . S
C218 C220 1.394 . S
C218 H234 0.931 . S
C219 C218 1.391 . S
C219 C223 1.376 . S
C220 C218 1.394 . S
C220 C221 1.369 . S
C220 C224 1.531 . S
C221 C220 1.369 . S
C221 C222 1.410 . S
C221 C229 1.503 . S
C222 C221 1.410 . S
C222 C223 1.392 . S
C222 C225 1.511 . S
C223 C219 1.376 . S
C223 C222 1.392 . S
C223 H235 0.929 . S
C224 C220 1.531 . S
C224 H236 0.960 . S
C224 H237 0.962 . S
C224 H238 0.960 . S
C225 C222 1.511 . S
C225 H239 0.961 . S
C225 H240 0.961 . S
C225 H241 0.961 . S
C226 C227 1.370 . S
C226 C228 1.363 . S
C226 H242 0.931 . S
C227 C226 1.370 . S
C227 C231 1.408 . S
C228 C226 1.363 . S
C228 C229 1.370 . S
C228 C232 1.524 . S
C229 C221 1.503 . S
C229 C228 1.370 . S
C229 C230 1.403 . S
C230 C229 1.403 . S
C230 C231 1.404 . S
C230 C233 1.539 . S
C231 C227 1.408 . S
C231 C230 1.404 . S
C231 H243 0.930 . S
C232 C228 1.524 . S
C232 H244 0.956 . S
C232 H245 0.961 . S
C232 H246 0.961 . S
C233 C230 1.539 . S
C233 H247 0.958 . S
C233 H248 0.961 . S
C233 H249 0.960 . S
H234 C218 0.931 . S
H235 C223 0.929 . S
H236 C224 0.960 . S
H237 C224 0.962 . S
H238 C224 0.960 . S
H239 C225 0.961 . S
H240 C225 0.961 . S
H241 C225 0.961 . S
H242 C226 0.931 . S
H243 C231 0.930 . S
H244 C232 0.956 . S
H245 C232 0.961 . S
H246 C232 0.961 . S
H247 C233 0.958 . S
H248 C233 0.961 . S
H249 C233 0.960 . S
C250 C251 1.391 . S
C250 C252 1.394 . S
C250 H266 0.931 . S
C251 C250 1.391 . S
C251 C255 1.376 . S
C252 C250 1.394 . S
C252 C253 1.369 . S
C252 C256 1.531 . S
C253 C252 1.369 . S
C253 C254 1.410 . S
C253 C261 1.503 . S
C254 C253 1.410 . S
C254 C255 1.392 . S
C254 C257 1.511 . S
C255 C251 1.376 . S
C255 C254 1.392 . S
C255 H267 0.929 . S
C256 C252 1.531 . S
C256 H268 0.960 . S
C256 H269 0.962 . S
C256 H270 0.960 . S
C257 C254 1.511 . S
C257 H271 0.961 . S
C257 H272 0.961 . S
C257 H273 0.961 . S
C258 C259 1.370 . S
C258 C260 1.363 . S
C258 H274 0.931 . S
C259 C258 1.370 . S
C259 C263 1.408 . S
C260 C258 1.363 . S
C260 C261 1.370 . S
C260 C264 1.524 . S
C261 C253 1.503 . S
C261 C260 1.370 . S
C261 C262 1.403 . S
C262 C261 1.403 . S
C262 C263 1.404 . S
C262 C265 1.539 . S
C263 C259 1.408 . S
C263 C262 1.404 . S
C263 H275 0.930 . S
C264 C260 1.524 . S
C264 H276 0.956 . S
C264 H277 0.961 . S
C264 H278 0.961 . S
C265 C262 1.539 . S
C265 H279 0.958 . S
C265 H280 0.961 . S
C265 H281 0.960 . S
H266 C250 0.931 . S
H267 C255 0.929 . S
H268 C256 0.960 . S
H269 C256 0.962 . S
H270 C256 0.960 . S
H271 C257 0.961 . S
H272 C257 0.961 . S
H273 C257 0.961 . S
H274 C258 0.931 . S
H275 C263 0.930 . S
H276 C264 0.956 . S
H277 C264 0.961 . S
H278 C264 0.961 . S
H279 C265 0.958 . S
H280 C265 0.961 . S
H281 C265 0.960 . S
C282 C283 1.391 . S
C282 C284 1.394 . S
C282 H298 0.931 . S
C283 C282 1.391 . S
C283 C287 1.376 . S
C284 C282 1.394 . S
C284 C285 1.369 . S
C284 C288 1.531 . S
C285 C284 1.369 . S
C285 C286 1.410 . S
C285 C293 1.503 . S
C286 C285 1.410 . S
C286 C287 1.392 . S
C286 C289 1.511 . S
C287 C283 1.376 . S
C287 C286 1.392 . S
C287 H299 0.929 . S
C288 C284 1.531 . S
C288 H300 0.960 . S
C288 H301 0.962 . S
C288 H302 0.960 . S
C289 C286 1.511 . S
C289 H303 0.961 . S
C289 H304 0.961 . S
C289 H305 0.961 . S
C290 C291 1.370 . S
C290 C292 1.363 . S
C290 H306 0.931 . S
C291 C290 1.370 . S
C291 C295 1.408 . S
C292 C290 1.363 . S
C292 C293 1.370 . S
C292 C296 1.524 . S
C293 C285 1.503 . S
C293 C292 1.370 . S
C293 C294 1.403 . S
C294 C293 1.403 . S
C294 C295 1.404 . S
C294 C297 1.539 . S
C295 C291 1.408 . S
C295 C294 1.404 . S
C295 H307 0.930 . S
C296 C292 1.524 . S
C296 H308 0.956 . S
C296 H309 0.961 . S
C296 H310 0.961 . S
C297 C294 1.539 . S
C297 H311 0.958 . S
C297 H312 0.961 . S
C297 H313 0.960 . S
H298 C282 0.931 . S
H299 C287 0.929 . S
H300 C288 0.960 . S
H301 C288 0.962 . S
H302 C288 0.960 . S
H303 C289 0.961 . S
H304 C289 0.961 . S
H305 C289 0.961 . S
H306 C290 0.931 . S
H307 C295 0.930 . S
H308 C296 0.956 . S
H309 C296 0.961 . S
H310 C296 0.961 . S
H311 C297 0.958 . S
H312 C297 0.961 . S
H313 C297 0.960 . S
C314 C315 1.391 . S
C314 C316 1.394 . S
C314 H330 0.931 . S
C315 C314 1.391 . S
C315 C319 1.376 . S
C316 C314 1.394 . S
C316 C317 1.369 . S
C316 C320 1.531 . S
C317 C316 1.369 . S
C317 C318 1.410 . S
C317 C325 1.503 . S
C318 C317 1.410 . S
C318 C319 1.392 . S
C318 C321 1.511 . S
C319 C315 1.376 . S
C319 C318 1.392 . S
C319 H331 0.929 . S
C320 C316 1.531 . S
C320 H332 0.960 . S
C320 H333 0.962 . S
C320 H334 0.960 . S
C321 C318 1.511 . S
C321 H335 0.961 . S
C321 H336 0.961 . S
C321 H337 0.961 . S
C322 C323 1.370 . S
C322 C324 1.363 . S
C322 H338 0.931 . S
C323 C322 1.370 . S
C323 C327 1.408 . S
C324 C322 1.363 . S
C324 C325 1.370 . S
C324 C328 1.524 . S
C325 C317 1.503 . S
C325 C324 1.370 . S
C325 C326 1.403 . S
C326 C325 1.403 . S
C326 C327 1.404 . S
C326 C329 1.539 . S
C327 C323 1.408 . S
C327 C326 1.404 . S
C327 H339 0.930 . S
C328 C324 1.524 . S
C328 H340 0.956 . S
C328 H341 0.961 . S
C328 H342 0.961 . S
C329 C326 1.539 . S
C329 H343 0.958 . S
C329 H344 0.961 . S
C329 H345 0.960 . S
H330 C314 0.931 . S
H331 C319 0.929 . S
H332 C320 0.960 . S
H333 C320 0.962 . S
H334 C320 0.960 . S
H335 C321 0.961 . S
H336 C321 0.961 . S
H337 C321 0.961 . S
H338 C322 0.931 . S
H339 C327 0.930 . S
H340 C328 0.956 . S
H341 C328 0.961 . S
H342 C328 0.961 . S
H343 C329 0.958 . S
H344 C329 0.961 . S
H345 C329 0.960 . S
C346 C347 1.391 . S
C346 C348 1.394 . S
C346 H362 0.931 . S
C347 C346 1.391 . S
C347 C351 1.376 . S
C348 C346 1.394 . S
C348 C349 1.369 . S
C348 C352 1.531 . S
C349 C348 1.369 . S
C349 C350 1.410 . S
C349 C357 1.503 . S
C350 C349 1.410 . S
C350 C351 1.392 . S
C350 C353 1.511 . S
C351 C347 1.376 . S
C351 C350 1.392 . S
C351 H363 0.929 . S
C352 C348 1.531 . S
C352 H364 0.960 . S
C352 H365 0.962 . S
C352 H366 0.960 . S
C353 C350 1.511 . S
C353 H367 0.961 . S
C353 H368 0.961 . S
C353 H369 0.961 . S
C354 C355 1.370 . S
C354 C356 1.363 . S
C354 H370 0.931 . S
C355 C354 1.370 . S
C355 C359 1.408 . S
C356 C354 1.363 . S
C356 C357 1.370 . S
C356 C360 1.524 . S
C357 C349 1.503 . S
C357 C356 1.370 . S
C357 C358 1.403 . S
C358 C357 1.403 . S
C358 C359 1.404 . S
C358 C361 1.539 . S
C359 C355 1.408 . S
C359 C358 1.404 . S
C359 H371 0.930 . S
C360 C356 1.524 . S
C360 H372 0.956 . S
C360 H373 0.961 . S
C360 H374 0.961 . S
C361 C358 1.539 . S
C361 H375 0.958 . S
C361 H376 0.961 . S
C361 H377 0.960 . S
H362 C346 0.931 . S
H363 C351 0.929 . S
H364 C352 0.960 . S
H365 C352 0.962 . S
H366 C352 0.960 . S
H367 C353 0.961 . S
H368 C353 0.961 . S
H369 C353 0.961 . S
H370 C354 0.931 . S
H371 C359 0.930 . S
H372 C360 0.956 . S
H373 C360 0.961 . S
H374 C360 0.961 . S
H375 C361 0.958 . S
H376 C361 0.961 . S
H377 C361 0.960 . S
C378 C379 1.391 . S
C378 C380 1.394 . S
C378 H394 0.931 . S
C379 C378 1.391 . S
C379 C383 1.376 . S
C380 C378 1.394 . S
C380 C381 1.369 . S
C380 C384 1.531 . S
C381 C380 1.369 . S
C381 C382 1.410 . S
C381 C389 1.503 . S
C382 C381 1.410 . S
C382 C383 1.392 . S
C382 C385 1.511 . S
C383 C379 1.376 . S
C383 C382 1.392 . S
C383 H395 0.929 . S
C384 C380 1.531 . S
C384 H396 0.960 . S
C384 H397 0.962 . S
C384 H398 0.960 . S
C385 C382 1.511 . S
C385 H399 0.961 . S
C385 H400 0.961 . S
C385 H401 0.961 . S
C386 C387 1.370 . S
C386 C388 1.363 . S
C386 H402 0.931 . S
C387 C386 1.370 . S
C387 C391 1.408 . S
C388 C386 1.363 . S
C388 C389 1.370 . S
C388 C392 1.524 . S
C389 C381 1.503 . S
C389 C388 1.370 . S
C389 C390 1.403 . S
C390 C389 1.403 . S
C390 C391 1.404 . S
C390 C393 1.539 . S
C391 C387 1.408 . S
C391 C390 1.404 . S
C391 H403 0.930 . S
C392 C388 1.524 . S
C392 H404 0.956 . S
C392 H405 0.961 . S
C392 H406 0.961 . S
C393 C390 1.539 . S
C393 H407 0.958 . S
C393 H408 0.961 . S
C393 H409 0.960 . S
H394 C378 0.931 . S
H395 C383 0.929 . S
H396 C384 0.960 . S
H397 C384 0.962 . S
H398 C384 0.960 . S
H399 C385 0.961 . S
H400 C385 0.961 . S
H401 C385 0.961 . S
H402 C386 0.931 . S
H403 C391 0.930 . S
H404 C392 0.956 . S
H405 C392 0.961 . S
H406 C392 0.961 . S
H407 C393 0.958 . S
H408 C393 0.961 . S
H409 C393 0.960 . S
C410 C411 1.391 . S
C410 C412 1.394 . S
C410 H426 0.931 . S
C411 C410 1.391 . S
C411 C415 1.376 . S
C412 C410 1.394 . S
C412 C413 1.369 . S
C412 C416 1.531 . S
C413 C412 1.369 . S
C413 C414 1.410 . S
C413 C421 1.503 . S
C414 C413 1.410 . S
C414 C415 1.392 . S
C414 C417 1.511 . S
C415 C411 1.376 . S
C415 C414 1.392 . S
C415 H427 0.929 . S
C416 C412 1.531 . S
C416 H428 0.960 . S
C416 H429 0.962 . S
C416 H430 0.960 . S
C417 C414 1.511 . S
C417 H431 0.961 . S
C417 H432 0.961 . S
C417 H433 0.961 . S
C418 C419 1.370 . S
C418 C420 1.363 . S
C418 H434 0.931 . S
C419 C418 1.370 . S
C419 C423 1.408 . S
C420 C418 1.363 . S
C420 C421 1.370 . S
C420 C424 1.524 . S
C421 C413 1.503 . S
C421 C420 1.370 . S
C421 C422 1.403 . S
C422 C421 1.403 . S
C422 C423 1.404 . S
C422 C425 1.539 . S
C423 C419 1.408 . S
C423 C422 1.404 . S
C423 H435 0.930 . S
C424 C420 1.524 . S
C424 H436 0.956 . S
C424 H437 0.961 . S
C424 H438 0.961 . S
C425 C422 1.539 . S
C425 H439 0.958 . S
C425 H440 0.961 . S
C425 H441 0.960 . S
H426 C410 0.931 . S
H427 C415 0.929 . S
H428 C416 0.960 . S
H429 C416 0.962 . S
H430 C416 0.960 . S
H431 C417 0.961 . S
H432 C417 0.961 . S
H433 C417 0.961 . S
H434 C418 0.931 . S
H435 C423 0.930 . S
H436 C424 0.956 . S
H437 C424 0.961 . S
H438 C424 0.961 . S
H439 C425 0.958 . S
H440 C425 0.961 . S
H441 C425 0.960 . S
C442 C443 1.391 . S
C442 C444 1.394 . S
C442 H458 0.931 . S
C443 C442 1.391 . S
C443 C447 1.376 . S
C444 C442 1.394 . S
C444 C445 1.369 . S
C444 C448 1.531 . S
C445 C444 1.369 . S
C445 C446 1.410 . S
C445 C453 1.503 . S
C446 C445 1.410 . S
C446 C447 1.392 . S
C446 C449 1.511 . S
C447 C443 1.376 . S
C447 C446 1.392 . S
C447 H459 0.929 . S
C448 C444 1.531 . S
C448 H460 0.960 . S
C448 H461 0.962 . S
C448 H462 0.960 . S
C449 C446 1.511 . S
C449 H463 0.961 . S
C449 H464 0.961 . S
C449 H465 0.961 . S
C450 C451 1.370 . S
C450 C452 1.363 . S
C450 H466 0.931 . S
C451 C450 1.370 . S
C451 C455 1.408 . S
C452 C450 1.363 . S
C452 C453 1.370 . S
C452 C456 1.524 . S
C453 C445 1.503 . S
C453 C452 1.370 . S
C453 C454 1.403 . S
C454 C453 1.403 . S
C454 C455 1.404 . S
C454 C457 1.539 . S
C455 C451 1.408 . S
C455 C454 1.404 . S
C455 H467 0.930 . S
C456 C452 1.524 . S
C456 H468 0.956 . S
C456 H469 0.961 . S
C456 H470 0.961 . S
C457 C454 1.539 . S
C457 H471 0.958 . S
C457 H472 0.961 . S
C457 H473 0.960 . S
H458 C442 0.931 . S
H459 C447 0.929 . S
H460 C448 0.960 . S
H461 C448 0.962 . S
H462 C448 0.960 . S
H463 C449 0.961 . S
H464 C449 0.961 . S
H465 C449 0.961 . S
H466 C450 0.931 . S
H467 C455 0.930 . S
H468 C456 0.956 . S
H469 C456 0.961 . S
H470 C456 0.961 . S
H471 C457 0.958 . S
H472 C457 0.961 . S
H473 C457 0.960 . S
C474 C475 1.391 . S
C474 C476 1.394 . S
C474 H490 0.931 . S
C475 C474 1.391 . S
C475 C479 1.376 . S
C476 C474 1.394 . S
C476 C477 1.369 . S
C476 C480 1.531 . S
C477 C476 1.369 . S
C477 C478 1.410 . S
C477 C485 1.503 . S
C478 C477 1.410 . S
C478 C479 1.392 . S
C478 C481 1.511 . S
C479 C475 1.376 . S
C479 C478 1.392 . S
C479 H491 0.929 . S
C480 C476 1.531 . S
C480 H492 0.960 . S
C480 H493 0.962 . S
C480 H494 0.960 . S
C481 C478 1.511 . S
C481 H495 0.961 . S
C481 H496 0.961 . S
C481 H497 0.961 . S
C482 C483 1.370 . S
C482 C484 1.363 . S
C482 H498 0.931 . S
C483 C482 1.370 . S
C483 C487 1.408 . S
C484 C482 1.363 . S
C484 C485 1.370 . S
C484 C488 1.524 . S
C485 C477 1.503 . S
C485 C484 1.370 . S
C485 C486 1.403 . S
C486 C485 1.403 . S
C486 C487 1.404 . S
C486 C489 1.539 . S
C487 C483 1.408 . S
C487 C486 1.404 . S
C487 H499 0.930 . S
C488 C484 1.524 . S
C488 H500 0.956 . S
C488 H501 0.961 . S
C488 H502 0.961 . S
C489 C486 1.539 . S
C489 H503 0.958 . S
C489 H504 0.961 . S
C489 H505 0.960 . S
H490 C474 0.931 . S
H491 C479 0.929 . S
H492 C480 0.960 . S
H493 C480 0.962 . S
H494 C480 0.960 . S
H495 C481 0.961 . S
H496 C481 0.961 . S
H497 C481 0.961 . S
H498 C482 0.931 . S
H499 C487 0.930 . S
H500 C488 0.956 . S
H501 C488 0.961 . S
H502 C488 0.961 . S
H503 C489 0.958 . S
H504 C489 0.961 . S
H505 C489 0.960 . S
C506 C507 1.391 . S
C506 C508 1.394 . S
C506 H522 0.931 . S
C507 C506 1.391 . S
C507 C511 1.376 . S
C508 C506 1.394 . S
C508 C509 1.369 . S
C508 C512 1.531 . S
C509 C508 1.369 . S
C509 C510 1.410 . S
C509 C517 1.503 . S
C510 C509 1.410 . S
C510 C511 1.392 . S
C510 C513 1.511 . S
C511 C507 1.376 . S
C511 C510 1.392 . S
C511 H523 0.929 . S
C512 C508 1.531 . S
C512 H524 0.960 . S
C512 H525 0.962 . S
C512 H526 0.960 . S
C513 C510 1.511 . S
C513 H527 0.961 . S
C513 H528 0.961 . S
C513 H529 0.961 . S
C514 C515 1.370 . S
C514 C516 1.363 . S
C514 H530 0.931 . S
C515 C514 1.370 . S
C515 C519 1.408 . S
C516 C514 1.363 . S
C516 C517 1.370 . S
C516 C520 1.524 . S
C517 C509 1.503 . S
C517 C516 1.370 . S
C517 C518 1.403 . S
C518 C517 1.403 . S
C518 C519 1.404 . S
C518 C521 1.539 . S
C519 C515 1.408 . S
C519 C518 1.404 . S
C519 H531 0.930 . S
C520 C516 1.524 . S
C520 H532 0.956 . S
C520 H533 0.961 . S
C520 H534 0.961 . S
C521 C518 1.539 . S
C521 H535 0.958 . S
C521 H536 0.961 . S
C521 H537 0.960 . S
H522 C506 0.931 . S
H523 C511 0.929 . S
H524 C512 0.960 . S
H525 C512 0.962 . S
H526 C512 0.960 . S
H527 C513 0.961 . S
H528 C513 0.961 . S
H529 C513 0.961 . S
H530 C514 0.931 . S
H531 C519 0.930 . S
H532 C520 0.956 . S
H533 C520 0.961 . S
H534 C520 0.961 . S
H535 C521 0.958 . S
H536 C521 0.961 . S
H537 C521 0.960 . S
C538 C539 1.391 . S
C538 C540 1.394 . S
C538 H554 0.931 . S
C539 C538 1.391 . S
C539 C543 1.376 . S
C540 C538 1.394 . S
C540 C541 1.369 . S
C540 C544 1.531 . S
C541 C540 1.369 . S
C541 C542 1.410 . S
C541 C549 1.503 . S
C542 C541 1.410 . S
C542 C543 1.392 . S
C542 C545 1.511 . S
C543 C539 1.376 . S
C543 C542 1.392 . S
C543 H555 0.929 . S
C544 C540 1.531 . S
C544 H556 0.960 . S
C544 H557 0.962 . S
C544 H558 0.960 . S
C545 C542 1.511 . S
C545 H559 0.961 . S
C545 H560 0.961 . S
C545 H561 0.961 . S
C546 C547 1.370 . S
C546 C548 1.363 . S
C546 H562 0.931 . S
C547 C546 1.370 . S
C547 C551 1.408 . S
C548 C546 1.363 . S
C548 C549 1.370 . S
C548 C552 1.524 . S
C549 C541 1.503 . S
C549 C548 1.370 . S
C549 C550 1.403 . S
C550 C549 1.403 . S
C550 C551 1.404 . S
C550 C553 1.539 . S
C551 C547 1.408 . S
C551 C550 1.404 . S
C551 H563 0.930 . S
C552 C548 1.524 . S
C552 H564 0.956 . S
C552 H565 0.961 . S
C552 H566 0.961 . S
C553 C550 1.539 . S
C553 H567 0.958 . S
C553 H568 0.961 . S
C553 H569 0.960 . S
H554 C538 0.931 . S
H555 C543 0.929 . S
H556 C544 0.960 . S
H557 C544 0.962 . S
H558 C544 0.960 . S
H559 C545 0.961 . S
H560 C545 0.961 . S
H561 C545 0.961 . S
H562 C546 0.931 . S
H563 C551 0.930 . S
H564 C552 0.956 . S
H565 C552 0.961 . S
H566 C552 0.961 . S
H567 C553 0.958 . S
H568 C553 0.961 . S
H569 C553 0.960 . S
C570 C571 1.391 . S
C570 C572 1.394 . S
C570 H586 0.931 . S
C571 C570 1.391 . S
C571 C575 1.376 . S
C572 C570 1.394 . S
C572 C573 1.369 . S
C572 C576 1.531 . S
C573 C572 1.369 . S
C573 C574 1.410 . S
C573 C581 1.529 . S
C574 C573 1.410 . S
C574 C575 1.392 . S
C574 C577 1.511 . S
C575 C571 1.376 . S
C575 C574 1.392 . S
C575 H587 0.929 . S
C576 C572 1.531 . S
C576 H588 0.960 . S
C576 H589 0.962 1_455 S
C576 H590 0.960 . S
C577 C574 1.511 . S
C577 H591 0.961 . S
C577 H592 0.961 . S
C577 H593 0.961 . S
C578 C579 1.370 1_655 S
C578 C580 1.363 . S
C578 H594 0.931 . S
C579 C578 1.370 1_455 S
C579 C583 1.408 . S
C580 C578 1.363 . S
C580 C581 1.359 1_656 S
C580 C584 1.524 1_556 S
C581 C573 1.529 . S
C581 C580 1.359 1_454 S
C581 C582 1.389 1_554 S
C582 C581 1.389 1_556 S
C582 C583 1.404 . S
C582 C585 1.533 1_556 S
C583 C579 1.408 . S
C583 C582 1.404 . S
C583 H595 0.930 . S
C584 C580 1.524 1_554 S
C584 H596 0.956 . S
C584 H597 0.961 . S
C584 H598 0.961 1_554 S
C585 C582 1.533 1_554 S
C585 H599 0.961 . S
C585 H600 0.952 1_554 S
C585 H601 0.972 . S
H586 C570 0.931 . S
H587 C575 0.929 . S
H588 C576 0.960 . S
H589 C576 0.962 1_655 S
H590 C576 0.960 . S
H591 C577 0.961 . S
H592 C577 0.961 . S
H593 C577 0.961 . S
H594 C578 0.931 . S
H595 C583 0.930 . S
H596 C584 0.956 . S
H597 C584 0.961 . S
H598 C584 0.961 1_556 S
H599 C585 0.961 . S
H600 C585 0.952 1_556 S
H601 C585 0.972 . S
C602 C603 1.391 1_565 S
C602 C604 1.394 . S
C602 H618 0.931 . S
C603 C602 1.391 1_545 S
C603 C607 1.376 . S
C604 C602 1.394 . S
C604 C605 1.369 1_565 S
C604 C608 1.531 . S
C605 C604 1.369 1_545 S
C605 C606 1.410 . S
C605 C613 1.503 . S
C606 C605 1.410 . S
C606 C607 1.392 . S
C606 C609 1.511 . S
C607 C603 1.376 . S
C607 C606 1.392 . S
C607 H619 0.929 . S
C608 C604 1.531 . S
C608 H620 0.960 . S
C608 H621 0.962 . S
C608 H622 0.960 . S
C609 C606 1.511 . S
C609 H623 0.961 . S
C609 H624 0.961 . S
C609 H625 0.961 . S
C610 C611 1.370 . S
C610 C612 1.363 . S
C610 H626 0.931 . S
C611 C610 1.370 . S
C611 C615 1.408 1_545 S
C612 C610 1.363 . S
C612 C613 1.370 . S
C612 C616 1.524 . S
C613 C605 1.503 . S
C613 C612 1.370 . S
C613 C614 1.403 1_545 S
C614 C613 1.403 1_565 S
C614 C615 1.404 . S
C614 C617 1.539 . S
C615 C611 1.408 1_565 S
C615 C614 1.404 . S
C615 H627 0.930 . S
C616 C612 1.524 . S
C616 H628 0.956 . S
C616 H629 0.961 . S
C616 H630 0.961 . S
C617 C614 1.539 . S
C617 H631 0.958 . S
C617 H632 0.961 . S
C617 H633 0.960 . S
H618 C602 0.931 . S
H619 C607 0.929 . S
H620 C608 0.960 . S
H621 C608 0.962 . S
H622 C608 0.960 . S
H623 C609 0.961 . S
H624 C609 0.961 . S
H625 C609 0.961 . S
H626 C610 0.931 . S
H627 C615 0.930 . S
H628 C616 0.956 . S
H629 C616 0.961 . S
H630 C616 0.961 . S
H631 C617 0.958 . S
H632 C617 0.961 . S
H633 C617 0.960 . S
C634 C635 1.391 . S
C634 C636 1.394 . S
C634 H650 0.931 . S
C635 C634 1.391 . S
C635 C639 1.376 . S
C636 C634 1.394 . S
C636 C637 1.369 . S
C636 C640 1.531 . S
C637 C636 1.369 . S
C637 C638 1.410 . S
C637 C645 1.503 . S
C638 C637 1.410 . S
C638 C639 1.392 . S
C638 C641 1.511 . S
C639 C635 1.376 . S
C639 C638 1.392 . S
C639 H651 0.929 . S
C640 C636 1.531 . S
C640 H652 0.960 . S
C640 H653 0.962 . S
C640 H654 0.960 . S
C641 C638 1.511 . S
C641 H655 0.961 . S
C641 H656 0.961 . S
C641 H657 0.961 . S
C642 C643 1.370 . S
C642 C644 1.363 . S
C642 H658 0.931 . S
C643 C642 1.370 . S
C643 C647 1.408 . S
C644 C642 1.363 . S
C644 C645 1.370 . S
C644 C648 1.524 . S
C645 C637 1.503 . S
C645 C644 1.370 . S
C645 C646 1.403 . S
C646 C645 1.403 . S
C646 C647 1.404 . S
C646 C649 1.539 . S
C647 C643 1.408 . S
C647 C646 1.404 . S
C647 H659 0.930 . S
C648 C644 1.524 . S
C648 H660 0.956 . S
C648 H661 0.961 . S
C648 H662 0.961 . S
C649 C646 1.539 . S
C649 H663 0.958 . S
C649 H664 0.961 . S
C649 H665 0.960 . S
H650 C634 0.931 . S
H651 C639 0.929 . S
H652 C640 0.960 . S
H653 C640 0.962 . S
H654 C640 0.960 . S
H655 C641 0.961 . S
H656 C641 0.961 . S
H657 C641 0.961 . S
H658 C642 0.931 . S
H659 C647 0.930 . S
H660 C648 0.956 . S
H661 C648 0.961 . S
H662 C648 0.961 . S
H663 C649 0.958 . S
H664 C649 0.961 . S
H665 C649 0.960 . S
C666 C667 1.391 1_565 S
C666 C668 1.394 . S
C666 H682 0.931 . S
C667 C666 1.391 1_545 S
C667 C671 1.376 . S
C668 C666 1.394 . S
C668 C669 1.369 1_565 S
C668 C672 1.531 . S
C669 C668 1.369 1_545 S
C669 C670 1.410 . S
C669 C677 1.503 . S
C670 C669 1.410 . S
C670 C671 1.392 . S
C670 C673 1.511 . S
C671 C667 1.376 . S
C671 C670 1.392 . S
C671 H683 0.929 . S
C672 C668 1.531 . S
C672 H684 0.960 . S
C672 H685 0.962 . S
C672 H686 0.960 . S
C673 C670 1.511 . S
C673 H687 0.961 . S
C673 H688 0.961 . S
C673 H689 0.961 . S
C674 C675 1.370 . S
C674 C676 1.363 . S
C674 H690 0.931 . S
C675 C674 1.370 . S
C675 C679 1.408 1_545 S
C676 C674 1.363 . S
C676 C677 1.370 . S
C676 C680 1.524 . S
C677 C669 1.503 . S
C677 C676 1.370 . S
C677 C678 1.403 1_545 S
C678 C677 1.403 1_565 S
C678 C679 1.404 . S
C678 C681 1.539 . S
C679 C675 1.408 1_565 S
C679 C678 1.404 . S
C679 H691 0.930 . S
C680 C676 1.524 . S
C680 H692 0.956 . S
C680 H693 0.961 . S
C680 H694 0.961 . S
C681 C678 1.539 . S
C681 H695 0.958 . S
C681 H696 0.961 . S
C681 H697 0.960 . S
H682 C666 0.931 . S
H683 C671 0.929 . S
H684 C672 0.960 . S
H685 C672 0.962 . S
H686 C672 0.960 . S
H687 C673 0.961 . S
H688 C673 0.961 . S
H689 C673 0.961 . S
H690 C674 0.931 . S
H691 C679 0.930 . S
H692 C680 0.956 . S
H693 C680 0.961 . S
H694 C680 0.961 . S
H695 C681 0.958 . S
H696 C681 0.961 . S
H697 C681 0.960 . S
C698 C699 1.391 . S
C698 C700 1.394 . S
C698 H714 0.931 . S
C699 C698 1.391 . S
C699 C703 1.376 . S
C700 C698 1.394 . S
C700 C701 1.369 . S
C700 C704 1.531 . S
C701 C700 1.369 . S
C701 C702 1.410 . S
C701 C709 1.503 . S
C702 C701 1.410 . S
C702 C703 1.392 . S
C702 C705 1.511 . S
C703 C699 1.376 . S
C703 C702 1.392 . S
C703 H715 0.929 . S
C704 C700 1.531 . S
C704 H716 0.960 . S
C704 H717 0.962 . S
C704 H718 0.960 . S
C705 C702 1.511 . S
C705 H719 0.961 . S
C705 H720 0.961 . S
C705 H721 0.961 . S
C706 C707 1.370 . S
C706 C708 1.363 . S
C706 H722 0.931 . S
C707 C706 1.370 . S
C707 C711 1.408 . S
C708 C706 1.363 . S
C708 C709 1.370 1_554 S
C708 C712 1.524 1_554 S
C709 C701 1.503 . S
C709 C708 1.370 1_556 S
C709 C710 1.403 1_556 S
C710 C709 1.403 1_554 S
C710 C711 1.404 . S
C710 C713 1.539 1_554 S
C711 C707 1.408 . S
C711 C710 1.404 . S
C711 H723 0.930 . S
C712 C708 1.524 1_556 S
C712 H724 0.956 . S
C712 H725 0.961 . S
C712 H726 0.961 1_556 S
C713 C710 1.539 1_556 S
C713 H727 0.958 . S
C713 H728 0.961 . S
C713 H729 0.960 . S
H714 C698 0.931 . S
H715 C703 0.929 . S
H716 C704 0.960 . S
H717 C704 0.962 . S
H718 C704 0.960 . S
H719 C705 0.961 . S
H720 C705 0.961 . S
H721 C705 0.961 . S
H722 C706 0.931 . S
H723 C711 0.930 . S
H724 C712 0.956 . S
H725 C712 0.961 . S
H726 C712 0.961 1_554 S
H727 C713 0.958 . S
H728 C713 0.961 . S
H729 C713 0.960 . S
C730 C731 1.391 1_655 S
C730 C732 1.394 . S
C730 H746 0.931 . S
C731 C730 1.391 1_455 S
C731 C735 1.376 . S
C732 C730 1.394 . S
C732 C733 1.369 1_655 S
C732 C736 1.531 . S
C733 C732 1.369 1_455 S
C733 C734 1.410 . S
C733 C741 1.503 . S
C734 C733 1.410 . S
C734 C735 1.392 . S
C734 C737 1.511 . S
C735 C731 1.376 . S
C735 C734 1.392 . S
C735 H747 0.929 . S
C736 C732 1.531 . S
C736 H748 0.960 . S
C736 H749 0.962 . S
C736 H750 0.960 . S
C737 C734 1.511 . S
C737 H751 0.961 . S
C737 H752 0.961 . S
C737 H753 0.961 . S
C738 C739 1.370 . S
C738 C740 1.363 . S
C738 H754 0.931 . S
C739 C738 1.370 . S
C739 C743 1.408 1_655 S
C740 C738 1.363 . S
C740 C741 1.370 1_655 S
C740 C744 1.524 . S
C741 C733 1.503 . S
C741 C740 1.370 1_455 S
C741 C742 1.403 . S
C742 C741 1.403 . S
C742 C743 1.404 . S
C742 C745 1.539 . S
C743 C739 1.408 1_455 S
C743 C742 1.404 . S
C743 H755 0.930 . S
C744 C740 1.524 . S
C744 H756 0.956 . S
C744 H757 0.961 1_655 S
C744 H758 0.961 . S
C745 C742 1.539 . S
C745 H759 0.958 1_455 S
C745 H760 0.961 . S
C745 H761 0.960 . S
H746 C730 0.931 . S
H747 C735 0.929 . S
H748 C736 0.960 . S
H749 C736 0.962 . S
H750 C736 0.960 . S
H751 C737 0.961 . S
H752 C737 0.961 . S
H753 C737 0.961 . S
H754 C738 0.931 . S
H755 C743 0.930 . S
H756 C744 0.956 . S
H757 C744 0.961 1_455 S
H758 C744 0.961 . S
H759 C745 0.958 1_655 S
H760 C745 0.961 . S
H761 C745 0.960 . S
C187 C6 0.590 . S
C195 C180 0.728 . S
C219 C59 2.037 . S
C227 C158 1.764 . S
C251 C86 1.073 . S
C259 C172 1.036 . S
C283 C15 0.248 . S
C291 C183 0.164 . S
C323 C161 1.799 . S
C315 C50 1.838 . S
C355 C169 1.218 . S
C347 C95 1.404 . S
C379 C46 1.346 . S
C387 C136 1.169 . S
C411 C99 3.269 . S
C419 C147 2.950 . S
C443 C10 2.101 . S
C451 C125 1.780 . S
C483 C139 1.053 . S
C475 C55 1.052 . S
C515 C150 2.843 . S
C507 C90 2.888 . S
C539 C19 1.754 . S
C547 C128 1.751 . S
C579 C149 1.652 . S
C571 C18 1.655 . S
C603 C49 1.405 . S
C611 C127 1.408 . S
C635 C98 1.512 . S
C643 C138 1.480 . S
C675 C171 1.433 . S
C667 C58 1.480 . S
C707 C182 1.183 . S
C699 C89 1.248 . S
C731 C9 1.377 . S
C739 C160 1.400 . S
