# Generated by pormake.
# Topology ocu, (6,8)-cn, num edge types: 1
# Building blocks:
#     Node 0, Type 0, BuildingBlock: JUFBIX_clean_sbu_0, # of connection points: 6
#     Node 1, Type 0, BuildingBlock: JUFBIX_clean_sbu_0, # of connection points: 6
#     Node 2, Type 0, BuildingBlock: JUFBIX_clean_sbu_0, # of connection points: 6
#     Node 3, Type 0, BuildingBlock: JUFBIX_clean_sbu_0, # of connection points: 6
#     Node 4, Type 0, BuildingBlock: JUFBIX_clean_sbu_0, # of connection points: 6
#     Node 5, Type 0, BuildingBlock: JUFBIX_clean_sbu_0, # of connection points: 6
#     Node 6, Type 0, BuildingBlock: JUFBIX_clean_sbu_0, # of connection points: 6
#     Node 7, Type 0, BuildingBlock: JUFBIX_clean_sbu_0, # of connection points: 6
#     Node 8, Type 1, BuildingBlock: VETTIZ_charged_sbu_0, # of connection points: 8
#     Node 9, Type 1, BuildingBlock: VETTIZ_charged_sbu_0, # of connection points: 8
#     Node 10, Type 1, BuildingBlock: VETTIZ_charged_sbu_0, # of connection points: 8
#     Node 11, Type 1, BuildingBlock: VETTIZ_charged_sbu_0, # of connection points: 8
#     Node 12, Type 1, BuildingBlock: VETTIZ_charged_sbu_0, # of connection points: 8
#     Node 13, Type 1, BuildingBlock: VETTIZ_charged_sbu_0, # of connection points: 8
#     Edge 14, Type (0, 1), BuildingBlock: EZIPEK_clean_linker_0, # of connection points: 2
#     Edge 15, Type (0, 1), BuildingBlock: EZIPEK_clean_linker_0, # of connection points: 2
#     Edge 16, Type (0, 1), BuildingBlock: EZIPEK_clean_linker_0, # of connection points: 2
#     Edge 17, Type (0, 1), BuildingBlock: EZIPEK_clean_linker_0, # of connection points: 2
#     Edge 18, Type (0, 1), BuildingBlock: EZIPEK_clean_linker_0, # of connection points: 2
#     Edge 19, Type (0, 1), BuildingBlock: EZIPEK_clean_linker_0, # of connection points: 2
#     Edge 20, Type (0, 1), BuildingBlock: EZIPEK_clean_linker_0, # of connection points: 2
#     Edge 21, Type (0, 1), BuildingBlock: EZIPEK_clean_linker_0, # of connection points: 2
#     Edge 22, Type (0, 1), BuildingBlock: EZIPEK_clean_linker_0, # of connection points: 2
#     Edge 23, Type (0, 1), BuildingBlock: EZIPEK_clean_linker_0, # of connection points: 2
#     Edge 24, Type (0, 1), BuildingBlock: EZIPEK_clean_linker_0, # of connection points: 2
#     Edge 25, Type (0, 1), BuildingBlock: EZIPEK_clean_linker_0, # of connection points: 2
#     Edge 26, Type (0, 1), BuildingBlock: EZIPEK_clean_linker_0, # of connection points: 2
#     Edge 27, Type (0, 1), BuildingBlock: EZIPEK_clean_linker_0, # of connection points: 2
#     Edge 28, Type (0, 1), BuildingBlock: EZIPEK_clean_linker_0, # of connection points: 2
#     Edge 29, Type (0, 1), BuildingBlock: EZIPEK_clean_linker_0, # of connection points: 2
#     Edge 30, Type (0, 1), BuildingBlock: EZIPEK_clean_linker_0, # of connection points: 2
#     Edge 31, Type (0, 1), BuildingBlock: EZIPEK_clean_linker_0, # of connection points: 2
#     Edge 32, Type (0, 1), BuildingBlock: EZIPEK_clean_linker_0, # of connection points: 2
#     Edge 33, Type (0, 1), BuildingBlock: EZIPEK_clean_linker_0, # of connection points: 2
#     Edge 34, Type (0, 1), BuildingBlock: EZIPEK_clean_linker_0, # of connection points: 2
#     Edge 35, Type (0, 1), BuildingBlock: EZIPEK_clean_linker_0, # of connection points: 2
#     Edge 36, Type (0, 1), BuildingBlock: EZIPEK_clean_linker_0, # of connection points: 2
#     Edge 37, Type (0, 1), BuildingBlock: EZIPEK_clean_linker_0, # of connection points: 2
#     Edge 38, Type (0, 1), BuildingBlock: EZIPEK_clean_linker_0, # of connection points: 2
#     Edge 39, Type (0, 1), BuildingBlock: EZIPEK_clean_linker_0, # of connection points: 2
#     Edge 40, Type (0, 1), BuildingBlock: EZIPEK_clean_linker_0, # of connection points: 2
#     Edge 41, Type (0, 1), BuildingBlock: EZIPEK_clean_linker_0, # of connection points: 2
#     Edge 42, Type (0, 1), BuildingBlock: EZIPEK_clean_linker_0, # of connection points: 2
#     Edge 43, Type (0, 1), BuildingBlock: EZIPEK_clean_linker_0, # of connection points: 2
#     Edge 44, Type (0, 1), BuildingBlock: EZIPEK_clean_linker_0, # of connection points: 2
#     Edge 45, Type (0, 1), BuildingBlock: EZIPEK_clean_linker_0, # of connection points: 2
#     Edge 46, Type (0, 1), BuildingBlock: EZIPEK_clean_linker_0, # of connection points: 2
#     Edge 47, Type (0, 1), BuildingBlock: EZIPEK_clean_linker_0, # of connection points: 2
#     Edge 48, Type (0, 1), BuildingBlock: EZIPEK_clean_linker_0, # of connection points: 2
#     Edge 49, Type (0, 1), BuildingBlock: EZIPEK_clean_linker_0, # of connection points: 2
#     Edge 50, Type (0, 1), BuildingBlock: EZIPEK_clean_linker_0, # of connection points: 2
#     Edge 51, Type (0, 1), BuildingBlock: EZIPEK_clean_linker_0, # of connection points: 2
#     Edge 52, Type (0, 1), BuildingBlock: EZIPEK_clean_linker_0, # of connection points: 2
#     Edge 53, Type (0, 1), BuildingBlock: EZIPEK_clean_linker_0, # of connection points: 2
#     Edge 54, Type (0, 1), BuildingBlock: EZIPEK_clean_linker_0, # of connection points: 2
#     Edge 55, Type (0, 1), BuildingBlock: EZIPEK_clean_linker_0, # of connection points: 2
#     Edge 56, Type (0, 1), BuildingBlock: EZIPEK_clean_linker_0, # of connection points: 2
#     Edge 57, Type (0, 1), BuildingBlock: EZIPEK_clean_linker_0, # of connection points: 2
#     Edge 58, Type (0, 1), BuildingBlock: EZIPEK_clean_linker_0, # of connection points: 2
#     Edge 59, Type (0, 1), BuildingBlock: EZIPEK_clean_linker_0, # of connection points: 2
#     Edge 60, Type (0, 1), BuildingBlock: EZIPEK_clean_linker_0, # of connection points: 2
#     Edge 61, Type (0, 1), BuildingBlock: EZIPEK_clean_linker_0, # of connection points: 2
# Relax obj value: 0.192
# Max RMSD: 0.275
# Mean RMSD: 0.153
data_MOF--net-ocu--node1-JUFBIX_clean_sbu_0--node2-VETTIZ_charged_sbu_0--edge1-EZIPEK_clean_linker_0
_symmetry_space_group_name_H-M    P1
_symmetry_Int_Tables_number       1
_symmetry_cell_setting            triclinic
loop_
_symmetry_equiv_pos_as_xyz
'x, y, z'
_cell_length_a     28.174356
_cell_length_b     28.665913
_cell_length_c     28.675258
_cell_angle_alpha  94.857027
_cell_angle_beta   93.916379
_cell_angle_gamma 88.833395
loop_
_atom_site_label
_atom_site_type_symbol
_atom_site_fract_x
_atom_site_fract_y
_atom_site_fract_z
_atom_type_partial_charge
Co0 Co 0.23629 0.23226 0.25 0.0
C1 C 0.21322 0.30655 0.31854 0.0
Co2 Co 0.28804 0.28915 0.26005 0.0
C3 C 0.20055 0.14418 0.26915 0.0
C4 C 0.1453 0.19244 0.24941 0.0
N5 N 0.19258 0.18446 0.24841 0.0
N6 N 0.16146 0.13032 0.28829 0.0
C7 C 0.12619 0.15942 0.27435 0.0
H8 H 0.23564 0.13019 0.27794 0.0
H9 H 0.12744 0.22447 0.24017 0.0
C10 C 0.31111 0.21446 0.19382 0.0
N11 N 0.33136 0.33735 0.26211 0.0
C12 C 0.37379 0.33459 0.2427 0.0
C13 C 0.32126 0.38362 0.26769 0.0
N14 N 0.38823 0.37675 0.23259 0.0
C15 C 0.35601 0.40789 0.24925 0.0
C16 C 0.31452 0.2192 0.3164 0.0
O17 O 0.27285 0.19643 0.20466 0.0
O18 O 0.32162 0.25536 0.21134 0.0
O19 O 0.32779 0.2586 0.30515 0.0
O20 O 0.27469 0.20384 0.29893 0.0
O21 O 0.25361 0.32181 0.30964 0.0
H22 H 0.2882 0.39857 0.27875 0.0
H23 H 0.39063 0.30218 0.22996 0.0
O24 O 0.19937 0.26845 0.29623 0.0
O25 O 0.19929 0.26128 0.20084 0.0
O26 O 0.24831 0.32011 0.21355 0.0
C27 C 0.21133 0.30197 0.1918 0.0
H28 H 0.09081 0.16079 0.28704 0.0
H29 H 0.35481 0.44475 0.24345 0.0
Co30 Co 0.79507 0.26906 0.25244 0.0
C31 C 0.81526 0.33938 0.32675 0.0
Co32 Co 0.73834 0.28613 0.29854 0.0
C33 C 0.84344 0.28732 0.17335 0.0
C34 C 0.89083 0.26309 0.22783 0.0
N35 N 0.84434 0.26575 0.21328 0.0
N36 N 0.88631 0.3038 0.16651 0.0
C37 C 0.91671 0.28722 0.19945 0.0
H38 H 0.81126 0.29707 0.15351 0.0
H39 H 0.90451 0.25054 0.26035 0.0
C40 C 0.71862 0.21865 0.21941 0.0
N41 N 0.69157 0.2903 0.33847 0.0
C42 C 0.67156 0.25176 0.35057 0.0
C43 C 0.67408 0.32598 0.36642 0.0
N44 N 0.64313 0.26123 0.38545 0.0
C45 C 0.64385 0.30782 0.39605 0.0
C46 C 0.72605 0.34124 0.22817 0.0
O47 O 0.76128 0.22575 0.21115 0.0
O48 O 0.70287 0.23785 0.25732 0.0
O49 O 0.70611 0.3316 0.26414 0.0
O50 O 0.76483 0.32009 0.21879 0.0
O51 O 0.77234 0.33489 0.33609 0.0
H52 H 0.68467 0.3621 0.36704 0.0
H53 H 0.68009 0.21666 0.33628 0.0
O54 O 0.8305 0.31276 0.29336 0.0
O55 O 0.82372 0.21987 0.28629 0.0
O56 O 0.77137 0.23964 0.33705 0.0
C57 C 0.80798 0.21538 0.32616 0.0
H58 H 0.95388 0.2963 0.20547 0.0
H59 H 0.62614 0.32654 0.42446 0.0
Co60 Co 0.77651 0.77121 0.27469 0.0
C61 C 0.83851 0.84595 0.30474 0.0
Co62 Co 0.78212 0.82079 0.22277 0.0
C63 C 0.80831 0.71112 0.3423 0.0
C64 C 0.73242 0.70923 0.332 0.0
N65 N 0.77136 0.72986 0.31843 0.0
N66 N 0.79439 0.6791 0.36963 0.0
C67 C 0.74672 0.67734 0.36376 0.0
H68 H 0.8451 0.71905 0.33803 0.0
H69 H 0.69636 0.71561 0.31828 0.0
C70 C 0.72135 0.74647 0.19257 0.0
N71 N 0.78718 0.86395 0.18022 0.0
C72 C 0.78109 0.91022 0.1904 0.0
C73 C 0.79388 0.85861 0.13417 0.0
N74 N 0.7811 0.93461 0.1523 0.0
C75 C 0.79013 0.90192 0.11686 0.0
C76 C 0.84781 0.74481 0.21038 0.0
O77 O 0.73388 0.73439 0.23318 0.0
O78 O 0.73586 0.78542 0.18087 0.0
O79 O 0.83216 0.78276 0.1944 0.0
O80 O 0.82957 0.73369 0.24743 0.0
O81 O 0.82827 0.85618 0.26313 0.0
H82 H 0.79798 0.82529 0.11405 0.0
H83 H 0.77325 0.92509 0.22488 0.0
O84 O 0.82041 0.80924 0.3179 0.0
O85 O 0.72389 0.80638 0.30097 0.0
O86 O 0.73109 0.85896 0.2519 0.0
C87 C 0.71114 0.84586 0.28705 0.0
H88 H 0.72455 0.65331 0.37931 0.0
H89 H 0.78902 0.90784 0.08001 0.0
Co90 Co 0.2423 0.81071 0.26431 0.0
C91 C 0.31737 0.82894 0.33249 0.0
Co92 Co 0.2928 0.7542 0.27075 0.0
C93 C 0.18701 0.87676 0.30416 0.0
C94 C 0.17363 0.88026 0.23043 0.0
N95 N 0.20019 0.85814 0.26318 0.0
N96 N 0.15302 0.90891 0.29947 0.0
C97 C 0.14356 0.91211 0.25324 0.0
H98 H 0.20003 0.86498 0.33767 0.0
H99 H 0.17452 0.87225 0.19295 0.0
C100 C 0.2191 0.73838 0.20144 0.0
N101 N 0.33593 0.70679 0.27287 0.0
C102 C 0.38315 0.71262 0.27634 0.0
C103 C 0.3295 0.66032 0.27013 0.0
N104 N 0.40722 0.67173 0.27489 0.0
C105 C 0.37331 0.6386 0.27113 0.0
C106 C 0.21574 0.7404 0.32868 0.0
O107 O 0.20634 0.77926 0.21546 0.0
O108 O 0.25648 0.72022 0.22013 0.0
O109 O 0.25608 0.724 0.31682 0.0
O110 O 0.20288 0.77872 0.31082 0.0
O111 O 0.32935 0.78717 0.32069 0.0
H112 H 0.29545 0.64338 0.26494 0.0
H113 H 0.39919 0.74636 0.27753 0.0
O114 O 0.27941 0.84519 0.31375 0.0
O115 O 0.27901 0.84158 0.21965 0.0
O116 O 0.33094 0.78496 0.22427 0.0
C117 C 0.31903 0.82432 0.20815 0.0
H118 H 0.11572 0.93353 0.23764 0.0
H119 H 0.37952 0.60125 0.26495 0.0
Co120 Co 0.30727 0.76531 0.74814 0.0
C121 C 0.3239 0.82916 0.82824 0.0
Co122 Co 0.25001 0.77422 0.79615 0.0
C123 C 0.35518 0.78074 0.66823 0.0
C124 C 0.40376 0.76165 0.72441 0.0
N125 N 0.35703 0.76389 0.71056 0.0
N126 N 0.3983 0.79243 0.65672 0.0
C127 C 0.4294 0.77966 0.69118 0.0
H128 H 0.32265 0.79059 0.64901 0.0
H129 H 0.4177 0.75374 0.75897 0.0
C130 C 0.23382 0.70899 0.71611 0.0
N131 N 0.1987 0.77633 0.83376 0.0
C132 C 0.19222 0.74586 0.86582 0.0
C133 C 0.15424 0.79108 0.82067 0.0
N134 N 0.14599 0.73646 0.86833 0.0
C135 C 0.12184 0.76565 0.84079 0.0
C136 C 0.23565 0.83369 0.72397 0.0
O137 O 0.27559 0.71895 0.70668 0.0
O138 O 0.21689 0.72824 0.75318 0.0
O139 O 0.22005 0.82324 0.76207 0.0
O140 O 0.27435 0.81388 0.71207 0.0
O141 O 0.28225 0.81904 0.83796 0.0
H142 H 0.14504 0.81422 0.79375 0.0
H143 H 0.22036 0.72492 0.88145 0.0
O144 O 0.33973 0.8118 0.78997 0.0
O145 O 0.33931 0.71745 0.78335 0.0
O146 O 0.28198 0.72449 0.83084 0.0
C147 C 0.32178 0.70596 0.82034 0.0
H148 H 0.46669 0.78864 0.69505 0.0
H149 H 0.08398 0.76458 0.8313 0.0
Co150 Co 0.27325 0.24 0.81922 0.0
C151 C 0.33733 0.31197 0.84843 0.0
Co152 Co 0.28181 0.28872 0.76617 0.0
C153 C 0.27153 0.15023 0.85012 0.0
C154 C 0.26126 0.20107 0.90757 0.0
N155 N 0.26715 0.19648 0.86132 0.0
N156 N 0.27133 0.125 0.88757 0.0
C157 C 0.26394 0.15722 0.92388 0.0
H158 H 0.27883 0.13584 0.81547 0.0
H159 H 0.25842 0.23414 0.92844 0.0
C160 C 0.21657 0.21874 0.73707 0.0
N161 N 0.28593 0.33101 0.72213 0.0
C162 C 0.24857 0.35672 0.70714 0.0
C163 C 0.31991 0.33731 0.69226 0.0
N164 N 0.25696 0.37778 0.66872 0.0
C165 C 0.30176 0.36585 0.65867 0.0
C166 C 0.34262 0.21094 0.75287 0.0
O167 O 0.22605 0.20677 0.77829 0.0
O168 O 0.23599 0.25498 0.72495 0.0
O169 O 0.33151 0.25029 0.73742 0.0
O170 O 0.32322 0.20049 0.7894 0.0
O171 O 0.32697 0.3232 0.80695 0.0
H172 H 0.35428 0.3198 0.69275 0.0
H173 H 0.2138 0.35649 0.72097 0.0
O174 O 0.32041 0.27424 0.86087 0.0
O175 O 0.22416 0.27842 0.8485 0.0
O176 O 0.23149 0.32667 0.79506 0.0
C177 C 0.21192 0.31682 0.8316 0.0
H178 H 0.26542 0.15046 0.96052 0.0
H179 H 0.3188 0.37475 0.62797 0.0
Co180 Co 0.75475 0.28765 0.74214 0.0
C181 C 0.82181 0.31027 0.81256 0.0
Co182 Co 0.80735 0.23247 0.74796 0.0
C183 C 0.67996 0.34977 0.7657 0.0
C184 C 0.68842 0.34526 0.69198 0.0
N185 N 0.70707 0.33007 0.73278 0.0
N186 N 0.64484 0.37615 0.74725 0.0
C187 C 0.6494 0.37347 0.70078 0.0
H188 H 0.68606 0.34529 0.80278 0.0
H189 H 0.70246 0.33663 0.65816 0.0
C190 C 0.74081 0.20957 0.67689 0.0
N191 N 0.85505 0.18991 0.75695 0.0
C192 C 0.90124 0.20041 0.75751 0.0
C193 C 0.85413 0.14417 0.76367 0.0
N194 N 0.93014 0.16272 0.76136 0.0
C195 C 0.90021 0.12734 0.7664 0.0
C196 C 0.72777 0.21717 0.80347 0.0
O197 O 0.72684 0.24999 0.69181 0.0
O198 O 0.77834 0.1932 0.69687 0.0
O199 O 0.76851 0.20071 0.79245 0.0
O200 O 0.71476 0.2553 0.78561 0.0
O201 O 0.8365 0.26994 0.79858 0.0
H202 H 0.82214 0.12402 0.76413 0.0
H203 H 0.91308 0.23481 0.75156 0.0
O204 O 0.78348 0.32641 0.79368 0.0
O205 O 0.79293 0.32026 0.69934 0.0
O206 O 0.84688 0.26565 0.70272 0.0
C207 C 0.83364 0.30511 0.68745 0.0
H208 H 0.62719 0.39162 0.67562 0.0
H209 H 0.9102 0.09087 0.76754 0.0
Co210 Co 0.75365 0.75256 0.76278 0.0
C211 C 0.72607 0.82398 0.83232 0.0
Co212 Co 0.80179 0.81194 0.77742 0.0
C213 C 0.70086 0.68127 0.79572 0.0
C214 C 0.66716 0.70454 0.7326 0.0
N215 N 0.70927 0.70483 0.75831 0.0
N216 N 0.65478 0.67058 0.79658 0.0
C217 C 0.63343 0.68445 0.7566 0.0
H218 H 0.72586 0.67819 0.82564 0.0
H219 H 0.65941 0.72296 0.70156 0.0
C220 C 0.82978 0.74094 0.70712 0.0
N221 N 0.84481 0.86069 0.78483 0.0
C222 C 0.83937 0.89879 0.76062 0.0
C223 C 0.89227 0.85668 0.79449 0.0
N224 N 0.88089 0.91392 0.74821 0.0
C225 C 0.91468 0.88968 0.77183 0.0
C226 C 0.82783 0.73877 0.83162 0.0
O227 O 0.79048 0.72176 0.71385 0.0
O228 O 0.83986 0.77981 0.73035 0.0
O229 O 0.83816 0.78062 0.82539 0.0
O230 O 0.7924 0.72038 0.80784 0.0
O231 O 0.76375 0.84373 0.82265 0.0
H232 H 0.90989 0.82671 0.80887 0.0
H233 H 0.80591 0.91038 0.7445 0.0
O234 O 0.71764 0.78371 0.81191 0.0
O235 O 0.71507 0.78548 0.71752 0.0
O236 O 0.76456 0.84285 0.72973 0.0
C237 C 0.72665 0.82629 0.70927 0.0
H238 H 0.59555 0.68338 0.74728 0.0
H239 H 0.9521 0.88906 0.7653 0.0
Fe240 Fe 0.037 0.13092 0.50608 0.0
O241 O 1.02298 0.06467 0.50292 0.0
Fe242 Fe 0.07533 1.0208 0.53561 0.0
Fe243 Fe 0.96416 0.03759 0.52374 0.0
O244 O 0.02745 0.06166 0.50266 0.0
O245 O 1.01834 0.99817 0.56577 0.0
O246 O 1.00995 0.99747 0.55916 0.0
Fe247 Fe 1.01447 0.93211 0.53622 0.0
C248 C 0.9853 0.11998 0.59682 0.0
O249 O 0.97324 0.13567 0.4656 0.0
O250 O 0.91977 0.08476 0.48787 0.0
O251 O 0.06203 0.95475 0.48984 0.0
O252 O 0.06414 0.96002 0.48892 0.0
O253 O 0.12243 0.04869 0.49023 0.0
O254 O 0.07897 0.10795 0.4541 0.0
O255 O 0.95811 0.99935 0.45866 0.0
O256 O 0.9604 0.9301 0.48381 0.0
C257 C 0.11276 0.07626 0.45618 0.0
O258 O 0.06997 0.92291 0.58701 0.0
O259 O 0.12216 0.97858 0.57521 0.0
O260 O 1.00235 0.14505 0.56729 0.0
O261 O 0.96768 0.07981 0.58502 0.0
C262 C 0.93109 0.11827 0.46318 0.0
C263 C 0.94924 0.95639 0.45191 0.0
C264 C 0.91964 0.96087 0.57549 0.0
O265 O 0.91341 0.99694 0.55052 0.0
O266 O 0.95687 0.93237 0.57652 0.0
C267 C 0.0992 0.93166 0.48178 0.0
O268 O 0.08915 0.07355 0.58936 0.0
O269 O 0.10029 0.13084 0.54621 0.0
C270 C 0.11116 0.942 0.59553 0.0
C271 C 0.10517 0.11391 0.58532 0.0
Fe272 Fe 0.5413 0.92333 0.04193 0.0
O273 O 0.54736 0.99617 0.0372 0.0
Fe274 Fe 0.45425 1.0167 0.02886 0.0
Fe275 Fe 0.59963 0.03463 1.00035 0.0
O276 O 0.52118 0.9933 0.04047 0.0
O277 O 0.50708 0.05646 0.99407 0.0
O278 O 0.53325 0.05967 0.99196 0.0
Fe279 Fe 0.51345 0.12933 0.99008 0.0
C280 C 0.62145 0.96794 0.08069 0.0
O281 O 0.58809 0.91756 0.98615 0.0
O282 O 0.58999 0.98261 0.94606 0.0
O283 O 0.4557 0.11909 0.93838 0.0
O284 O 0.45519 0.06598 0.98339 0.0
O285 O 0.44417 0.9704 0.97222 0.0
O286 O 0.48649 0.90692 0.99065 0.0
O287 O 0.62532 0.08268 0.95455 0.0
O288 O 0.56314 0.13043 0.93686 0.0
C289 C 0.45502 0.92759 0.96521 0.0
O290 O 0.46553 0.13478 0.04446 0.0
O291 O 0.45805 0.06938 0.08304 0.0
O292 O 0.59897 0.93392 0.09313 0.0
O293 O 0.59959 0.98579 0.0467 0.0
C294 C 0.59969 0.93913 0.95083 0.0
C295 C 0.60655 0.11627 0.93144 0.0
C296 C 0.59975 0.12308 0.06728 0.0
O297 O 0.61333 0.0814 0.05665 0.0
O298 O 0.56715 0.14422 0.04339 0.0
C299 C 0.43303 0.08481 0.95032 0.0
O300 O 0.42851 0.96683 0.07273 0.0
O301 O 0.49218 0.92272 0.09511 0.0
C302 C 0.44897 0.11294 0.07732 0.0
C303 C 0.44754 0.93396 0.09676 0.0
Fe304 Fe 1.01744 0.57669 0.01676 0.0
O305 O 0.97481 0.52439 0.99289 0.0
Fe306 Fe 0.12936 0.52076 0.03056 0.0
Fe307 Fe 0.90687 0.52338 0.99982 0.0
O308 O 0.05955 0.52542 0.04266 0.0
O309 O 0.06121 0.51957 0.03897 0.0
O310 O 0.9765 0.5197 0.9889 0.0
Fe311 Fe 1.02093 0.46757 1.00901 0.0
C312 C 0.93744 0.59804 0.08355 0.0
O313 O 0.96946 0.62277 0.98248 0.0
O314 O 0.90431 0.57795 0.95684 0.0
O315 O 0.05535 0.4617 0.94659 0.0
O316 O 0.12931 0.46618 0.9778 0.0
O317 O 0.12503 0.56884 0.9811 0.0
O318 O 0.04978 0.56513 0.95513 0.0
O319 O 0.907 0.46897 0.9484 0.0
O320 O 0.9703 0.42154 0.97266 0.0
C321 C 0.09206 0.57639 0.95011 0.0
O322 O 0.07322 0.42054 0.03911 0.0
O323 O 0.13188 0.46831 0.07587 0.0
O324 O 0.98238 0.593 0.07901 0.0
O325 O 0.90739 0.57543 0.05542 0.0
C326 C 0.92941 0.6155 0.95734 0.0
C327 C 0.93098 0.42979 0.94761 0.0
C328 C 0.94522 0.4542 0.0698 0.0
O329 O 0.91118 0.47114 0.04475 0.0
O330 O 0.9876 0.46769 0.06965 0.0
C331 C 0.0994 0.45082 0.94519 0.0
O332 O 0.12912 0.57837 0.07799 0.0
O333 O 0.06948 0.62468 0.04499 0.0
C334 C 0.11022 0.42851 0.06892 0.0
C335 C 0.10715 0.61804 0.07287 0.0
Fe336 Fe 0.51623 0.52504 0.9718 0.0
O337 O 0.57108 0.49887 1.01092 0.0
Fe338 Fe 0.42661 0.54288 0.04796 0.0
Fe339 Fe 0.63934 0.50966 1.00178 0.0
O340 O 0.49208 0.54996 0.03232 0.0
O341 O 0.4939 0.55045 0.03603 0.0
O342 O 0.57329 0.5002 1.01477 0.0
Fe343 Fe 0.54876 0.52506 0.07506 0.0
C344 C 0.58876 0.47029 0.9099 0.0
O345 O 0.55043 0.5866 0.96934 0.0
O346 O 0.62425 0.56173 0.95739 0.0
O347 O 0.51777 0.55327 0.13323 0.0
O348 O 0.44743 0.58776 0.10729 0.0
O349 O 0.41307 0.59183 0.99777 0.0
O350 O 0.4564 0.55788 0.93795 0.0
O351 O 0.65402 0.56 0.05784 0.0
O352 O 0.58307 0.58818 0.07469 0.0
C353 C 0.42443 0.58751 0.95415 0.0
O354 O 0.51502 0.46302 0.07883 0.0
O355 O 0.44144 0.48949 0.09172 0.0
O356 O 0.55019 0.49555 0.9139 0.0
O357 O 0.62249 0.46498 0.94256 0.0
C358 C 0.58939 0.58985 0.95064 0.0
C359 C 0.628 0.59234 0.07646 0.0
C360 C 0.64069 0.46561 0.09445 0.0
O361 O 0.65294 0.46104 0.05132 0.0
O362 O 0.60832 0.4948 0.1099 0.0
C363 C 0.48266 0.58209 0.13861 0.0
O364 O 0.40961 0.49314 0.99174 0.0
O365 O 0.47932 0.46316 0.9714 0.0
C366 C 0.47513 0.45928 0.09608 0.0
C367 C 0.43408 0.46085 0.97065 0.0
Fe368 Fe 1.02355 0.4719 0.51197 0.0
O369 O 0.99883 0.52665 0.55238 0.0
Fe370 Fe 0.0438 0.52546 0.40885 0.0
Fe371 Fe 1.00733 0.5314 0.62199 0.0
O372 O 0.05122 0.52321 0.47762 0.0
O373 O 0.05402 0.52925 0.47851 0.0
O374 O 1.00137 0.5325 0.55319 0.0
Fe375 Fe 0.02866 0.5836 0.51871 0.0
C376 C 0.95964 0.43446 0.59152 0.0
O377 O 0.08546 0.47161 0.55162 0.0
O378 O 0.06154 0.48127 0.62431 0.0
O379 O 0.06502 0.63009 0.47339 0.0
O380 O 0.09353 0.57869 0.4154 0.0
O381 O 0.08915 0.46864 0.41093 0.0
O382 O 0.05875 0.42245 0.46404 0.0
O383 O 0.05782 0.58373 0.63086 0.0
O384 O 0.09004 0.58662 0.56234 0.0
C385 C 0.08732 0.42962 0.4308 0.0
O386 O 0.96665 0.582 0.47811 0.0
O387 O 0.99343 0.57859 0.40714 0.0
O388 O 0.98699 0.4253 0.55577 0.0
O389 O 0.96001 0.47529 0.6152 0.0
C390 C 0.09267 0.46927 0.59515 0.0
C391 C 0.09124 0.59552 0.60674 0.0
C392 C 0.96249 0.62536 0.59854 0.0
O393 O 0.95865 0.58621 0.61788 0.0
O394 O 0.99257 0.63259 0.56656 0.0
C395 C 0.09249 0.62018 0.43758 0.0
O396 O 0.99041 0.47677 0.40132 0.0
O397 O 0.96185 0.46903 0.47041 0.0
C398 C 0.96064 0.58732 0.43489 0.0
C399 C 0.95916 0.46171 0.42613 0.0
Fe400 Fe 0.55001 0.91881 0.49578 0.0
O401 O 0.54949 0.98704 0.51276 0.0
Fe402 Fe 0.51565 0.02866 0.46186 0.0
Fe403 Fe 0.521 1.01627 0.57113 0.0
O404 O 0.54898 0.98727 0.5071 0.0
O405 O 0.48796 0.05834 0.52025 0.0
O406 O 0.48791 0.05782 0.52579 0.0
Fe407 Fe 0.48695 0.12653 0.53467 0.0
C408 C 0.46571 0.92731 0.55494 0.0
O409 O 0.6001 0.92055 0.55119 0.0
O410 O 0.56284 0.96658 0.60887 0.0
O411 O 0.53219 0.13784 0.48466 0.0
O412 O 0.57292 0.07177 0.47007 0.0
O413 O 0.55324 0.99012 0.40613 0.0
O414 O 0.59311 0.93222 0.44471 0.0
O415 O 0.5784 0.0594 0.5844 0.0
O416 O 0.54468 0.12979 0.58232 0.0
C417 C 0.58602 0.95668 0.4089 0.0
O418 O 0.43485 0.12294 0.48075 0.0
O419 O 0.47389 0.07862 0.42353 0.0
O420 O 0.50329 0.90558 0.54362 0.0
O421 O 0.46394 0.97178 0.56079 0.0
C422 C 0.59548 0.93609 0.59451 0.0
C423 C 0.58013 0.1035 0.59272 0.0
C424 C 0.45418 0.09139 0.62507 0.0
O425 O 0.48444 0.05566 0.62669 0.0
O426 O 0.44577 0.11515 0.58886 0.0
C427 C 0.56846 0.11575 0.4704 0.0
O428 O 0.45757 0.98642 0.45173 0.0
O429 O 0.49505 0.91754 0.44412 0.0
C430 C 0.44129 0.10947 0.43721 0.0
C431 C 0.45777 0.94302 0.43942 0.0
C432 C 0.1263 0.06865 0.32818 0.0
C433 C 0.16028 0.10423 0.32897 0.0
C434 C 0.18026 0.09532 0.41235 0.0
C435 C 0.13845 0.06992 0.41344 0.0
N436 N 0.07157 0.02967 0.37299 0.0
N437 N 0.21515 0.15697 0.37551 0.0
C438 C 0.11187 0.05496 0.37126 0.0
C439 C 0.18739 0.11826 0.37169 0.0
N440 N 0.1074 0.04898 0.2862 0.0
N441 N 0.2109 0.1004 0.45132 0.0
H442 H 0.21577 0.17963 0.34937 0.0
H443 H 0.23241 0.17035 0.40694 0.0
H444 H 0.20488 0.08448 0.48177 0.0
H445 H 0.24409 0.11585 0.45145 0.0
H446 H 0.08506 1.02021 0.28315 0.0
H447 H 0.11797 0.05897 0.25433 0.0
H448 H 0.04759 1.02221 0.34417 0.0
H449 H 0.06171 1.01747 0.40418 0.0
C450 C 0.88694 0.18836 0.36261 0.0
C451 C 0.83663 0.18819 0.36188 0.0
C452 C 0.84572 0.1437 0.43255 0.0
C453 C 0.89565 0.13749 0.42694 0.0
N454 N 0.95646 0.13946 0.37101 0.0
N455 N 0.76777 0.15629 0.39308 0.0
C456 C 0.91381 0.15487 0.38681 0.0
C457 C 0.81571 0.16293 0.39591 0.0
N458 N 0.90987 0.22341 0.34464 0.0
N459 N 0.82688 0.1339 0.47314 0.0
H460 H 0.74532 0.16771 0.36584 0.0
H461 H 0.75132 0.13513 0.41483 0.0
H462 H 0.84723 0.12246 0.50173 0.0
H463 H 0.7917 0.142 0.48016 0.0
H464 H 0.94691 0.22549 0.34668 0.0
H465 H 0.89188 0.2538 0.33554 0.0
H466 H 0.96931 0.15088 0.34069 0.0
H467 H 0.97528 0.11119 0.38426 0.0
C468 C 0.84348 0.91098 0.3704 0.0
C469 C 0.86699 0.87944 0.33855 0.0
C470 C 0.94201 0.91682 0.36905 0.0
C471 C 0.91988 0.93669 0.40921 0.0
N472 N 0.84677 0.95409 0.4467 0.0
N473 N 0.94027 0.85636 0.30411 0.0
C474 C 0.86973 0.93412 0.40954 0.0
C475 C 0.91684 0.88378 0.33658 0.0
N476 N 0.7972 0.92302 0.36044 0.0
N477 N 0.9857 0.93192 0.3603 0.0
H478 H 0.92283 0.83242 0.27964 0.0
H479 H 0.97712 0.85579 0.30326 0.0
H480 H 1.00416 0.95645 0.38324 0.0
H481 H 1.00036 0.92429 0.32811 0.0
H482 H 0.77983 0.94988 0.37971 0.0
H483 H 0.77874 0.91046 0.32933 0.0
H484 H 0.81072 0.94896 0.45038 0.0
H485 H 0.86431 0.97386 0.47456 0.0
C486 C 0.09433 0.89548 0.35332 0.0
C487 C 0.12908 0.92551 0.33944 0.0
C488 C 0.15151 0.951 0.42113 0.0
C489 C 0.11392 0.92422 0.43429 0.0
N490 N 0.05058 0.86912 0.41574 0.0
N491 N 0.1915 0.98064 0.35747 0.0
C492 C 0.08556 0.89588 0.40117 0.0
C493 C 0.15707 0.9539 0.3729 0.0
N494 N 0.0739 0.86288 0.32101 0.0
N495 N 0.18218 0.97245 0.45487 0.0
H496 H 0.19517 0.98303 0.32175 0.0
H497 H 0.21451 1.00218 0.37899 0.0
H498 H 0.17884 0.96986 0.49049 0.0
H499 H 0.21199 0.99092 0.4482 0.0
H500 H 0.05563 0.83402 0.32979 0.0
H501 H 0.07733 0.86349 0.28511 0.0
H502 H 0.02569 0.85086 0.39309 0.0
H503 H 0.04564 0.86597 0.45107 0.0
C504 C 0.22613 0.89575 0.66331 0.0
C505 C 0.2057 0.86396 0.69165 0.0
C506 C 0.12697 0.89539 0.66661 0.0
C507 C 0.1459 0.91982 0.63103 0.0
N508 N 0.21709 0.9351 0.59171 0.0
N509 N 0.13346 0.82342 0.7038 0.0
C510 C 0.19661 0.91804 0.62836 0.0
C511 C 0.1552 0.86094 0.68876 0.0
N512 N 0.27331 0.90595 0.6703 0.0
N513 N 0.08237 0.90566 0.68073 0.0
H514 H 0.15227 0.79407 0.71444 0.0
H515 H 0.09674 0.81884 0.69923 0.0
H516 H 0.06219 0.93401 0.66945 0.0
H517 H 0.06867 0.89005 0.70843 0.0
H518 H 0.28905 0.93193 0.65349 0.0
H519 H 0.29535 0.89236 0.69668 0.0
H520 H 0.2531 0.93026 0.5861 0.0
H521 H 0.1978 0.94957 0.56427 0.0
C522 C 0.14536 0.21148 0.67969 0.0
C523 C 0.18535 0.18991 0.70199 0.0
C524 C 0.17224 0.11816 0.64892 0.0
C525 C 0.13272 0.14026 0.62562 0.0
N526 N 0.08843 0.21225 0.61308 0.0
N527 N 0.23373 0.1206 0.71252 0.0
C528 C 0.1211 0.18805 0.63944 0.0
C529 C 0.19752 0.14247 0.68828 0.0
N530 N 0.12891 0.25369 0.69867 0.0
N531 N 0.18889 0.07587 0.63027 0.0
H532 H 0.25704 0.13819 0.73729 0.0
H533 H 0.23982 0.08458 0.70959 0.0
H534 H 0.17398 0.05844 0.59957 0.0
H535 H 0.22039 0.05983 0.64202 0.0
H536 H 0.09664 0.26899 0.68787 0.0
H537 H 0.14509 0.27143 0.72868 0.0
H538 H 0.0834 0.24837 0.61766 0.0
H539 H 0.06857 0.19762 0.58398 0.0
C540 C 0.99317 0.113 0.72973 0.0
C541 C 0.97638 0.1581 0.74225 0.0
C542 C 0.98934 0.18326 0.66615 0.0
C543 C 0.99107 0.13514 0.64834 0.0
N544 N 1.01551 0.05655 0.66778 0.0
N545 N 1.00017 0.2367 0.73659 0.0
C546 C 1.00017 0.10051 0.68171 0.0
C547 C 0.99017 0.19346 0.71529 0.0
N548 N 1.00092 0.08303 0.76401 0.0
N549 N 0.98281 0.21878 0.63757 0.0
H550 H 0.99908 0.24325 0.77293 0.0
H551 H 1.01303 0.26369 0.719 0.0
H552 H 0.97715 0.21394 0.60139 0.0
H553 H 0.97883 0.25356 0.65067 0.0
H554 H 1.01385 0.0489 0.75882 0.0
H555 H 0.9956 0.09431 0.79894 0.0
H556 H 1.01791 0.02869 0.68882 0.0
H557 H 0.02883 0.04879 0.6354 0.0
C558 C 0.88262 0.89303 0.66285 0.0
C559 C 0.88382 0.9278 0.70167 0.0
C560 C 0.88073 0.98942 0.64792 0.0
C561 C 0.88536 0.95427 0.61052 0.0
N562 N 0.86678 0.87683 0.57877 0.0
N563 N 0.86574 1.00697 0.72983 0.0
C564 C 0.87685 0.90747 0.61707 0.0
C565 C 0.87695 0.97549 0.69375 0.0
N566 N 0.88908 0.84667 0.66932 0.0
N567 N 0.88243 0.03567 0.64022 0.0
H568 H 0.86499 0.99787 0.76425 0.0
H569 H 0.85323 0.04069 0.72467 0.0
H570 H 0.87887 0.04733 0.60674 0.0
H571 H 0.8868 0.06234 0.66712 0.0
H572 H 0.89238 0.82081 0.64191 0.0
H573 H 0.89577 0.83403 0.7019 0.0
H574 H 0.8567 0.84234 0.58091 0.0
H575 H 0.86394 0.88814 0.54496 0.0
C576 C 0.33462 0.17709 0.11564 0.0
C577 C 0.34568 0.18716 0.16429 0.0
C578 C 0.42286 0.14537 0.15684 0.0
C579 C 0.41365 0.1389 0.10743 0.0
N580 N 0.36321 0.15692 0.03897 0.0
N581 N 0.40402 0.18741 0.23019 0.0
C582 C 0.37029 0.1572 0.0866 0.0
C583 C 0.39085 0.17314 0.18457 0.0
N584 N 0.28979 0.18629 0.09693 0.0
N585 N 0.46241 0.12523 0.17754 0.0
H586 H 0.38162 0.20638 0.25225 0.0
H587 H 0.43835 0.18353 0.24538 0.0
H588 H 0.48866 0.1079 0.15858 0.0
H589 H 0.46786 0.12314 0.21359 0.0
H590 H 0.27756 0.17434 0.063 0.0
H591 H 0.26335 0.20273 0.11642 0.0
H592 H 0.33568 0.17534 0.02231 0.0
H593 H 0.38652 0.14138 1.01563 0.0
C594 C 0.92881 0.33136 0.10396 0.0
C595 C 0.8967 0.34103 0.13893 0.0
C596 C 0.90288 0.42528 0.13324 0.0
C597 C 0.93444 0.41575 0.09769 0.0
N598 N 0.98362 0.36057 0.05325 0.0
N599 N 0.84266 0.39621 0.17746 0.0
C600 C 0.94916 0.36896 0.08403 0.0
C601 C 0.88074 0.38761 0.15114 0.0
N602 N 0.93784 0.28572 0.08872 0.0
N603 N 0.89575 0.47043 0.15135 0.0
H604 H 0.82434 0.37038 0.19138 0.0
H605 H 0.82612 0.42888 0.18143 0.0
H606 H 0.91218 0.49898 0.13918 0.0
H607 H 0.87782 0.47928 0.1815 0.0
H608 H 0.9575 0.27509 0.06024 0.0
H609 H 0.922 0.25774 0.10257 0.0
H610 H 0.9994 0.32815 0.04495 0.0
H611 H 0.99972 0.3873 0.03883 0.0
C612 C 0.71873 0.99082 0.17552 0.0
C613 C 0.75654 0.97885 0.14686 0.0
C614 C 0.70658 0.99461 0.07818 0.0
C615 C 0.66655 0.98617 0.10427 0.0
N616 N 0.63301 0.99305 0.17989 0.0
N617 N 0.79302 1.00317 0.08103 0.0
C618 C 0.67197 0.99045 0.15399 0.0
C619 C 0.75249 0.99423 0.10177 0.0
N620 N 0.72827 1.00252 0.22214 0.0
N621 N 0.70154 0.99895 0.03121 0.0
H622 H 0.82623 0.99996 0.0992 0.0
H623 H 0.79362 1.01652 0.04844 0.0
H624 H 0.66873 1.00059 1.01289 0.0
H625 H 0.73004 1.00074 1.01027 0.0
H626 H 0.70242 1.0139 0.24497 0.0
H627 H 0.7634 1.00455 0.23639 0.0
H628 H 0.63502 0.99214 0.2162 0.0
H629 H 0.59853 0.99594 0.16449 0.0
C630 C 0.1458 0.69188 0.18111 0.0
C631 C 0.18781 0.71131 0.16655 0.0
C632 C 0.16928 0.67885 0.08596 0.0
C633 C 0.12826 0.65832 0.10107 0.0
N634 N 0.07045 0.65423 0.15832 0.0
N635 N 0.23458 0.73277 0.10464 0.0
C636 C 0.11416 0.66801 0.1472 0.0
C637 C 0.19806 0.70777 0.11869 0.0
N638 N 0.13724 0.69453 0.22761 0.0
N639 N 0.18116 0.66945 0.04066 0.0
H640 H 0.25639 0.75401 0.12803 0.0
H641 H 0.24139 0.73518 0.06972 0.0
H642 H 0.15869 0.65136 1.01523 0.0
H643 H 0.21345 0.67835 0.02848 0.0
H644 H 0.11044 0.67639 0.2412 0.0
H645 H 0.15906 0.71257 0.2534 0.0
H646 H 0.05581 0.66387 0.19015 0.0
H647 H 0.04676 0.63656 0.13381 0.0
C648 C 0.38375 0.89271 0.85062 0.0
C649 C 0.35651 0.85533 0.86371 0.0
C650 C 0.39249 0.86716 0.94401 0.0
C651 C 0.42414 0.90004 0.92949 0.0
N652 N 0.45409 0.94037 0.86745 0.0
N653 N 0.34326 0.80041 0.92139 0.0
C654 C 0.42103 0.91169 0.88223 0.0
C655 C 0.36316 0.84067 0.90996 0.0
N656 N 0.37253 0.91156 0.80899 0.0
N657 N 0.3881 0.86304 0.99062 0.0
H658 H 0.32223 0.77873 0.89798 0.0
H659 H 0.35198 0.78576 0.95297 0.0
H660 H 0.40717 0.8834 0.01689 0.0
H661 H 0.36177 0.84332 1.00314 0.0
H662 H 0.3879 0.94187 0.79965 0.0
H663 H 0.34432 0.8997 0.78585 0.0
H664 H 0.45638 0.94668 0.83244 0.0
H665 H 0.48198 0.95454 0.88968 0.0
C666 C 0.18499 0.40052 0.85774 0.0
C667 C 0.17773 0.35118 0.85583 0.0
C668 C 0.11128 0.36738 0.90773 0.0
C669 C 0.11771 0.41643 0.90733 0.0
N670 N 0.14711 0.47714 0.86533 0.0
N671 N 0.12323 0.29004 0.86824 0.0
C672 C 0.15025 0.43208 0.87695 0.0
C673 C 0.13765 0.33525 0.87769 0.0
N674 N 0.22646 0.4179 0.84478 0.0
N675 N 0.08073 0.35121 0.93736 0.0
H676 H 0.13931 0.26645 0.84426 0.0
H677 H 0.092 0.27762 0.87989 0.0
H678 H 0.05879 0.37345 0.95731 0.0
H679 H 0.07892 0.31604 0.94366 0.0
H680 H 0.23421 0.45348 0.84929 0.0
H681 H 0.25553 0.39698 0.83555 0.0
H682 H 0.16746 0.48973 0.84018 0.0
H683 H 0.11988 0.49966 0.87677 0.0
C684 C 0.67223 0.21606 0.87371 0.0
C685 C 0.69543 0.19151 0.83565 0.0
C686 C 0.66181 0.11728 0.861 0.0
C687 C 0.63723 0.14204 0.89795 0.0
N688 N 0.61667 0.21764 0.93548 0.0
N689 N 0.70187 0.11861 0.78809 0.0
C690 C 0.64172 0.19211 0.90272 0.0
C691 C 0.68765 0.14199 0.82844 0.0
N692 N 0.6811 0.26257 0.88416 0.0
N693 N 0.65997 0.06954 0.85613 0.0
H694 H 0.71816 0.13505 0.76247 0.0
H695 H 0.6932 0.08407 0.77735 0.0
H696 H 0.6376 0.05053 0.87465 0.0
H697 H 0.68224 0.04856 0.83539 0.0
H698 H 0.67228 0.28138 0.91509 0.0
H699 H 0.70026 0.28221 0.86339 0.0
H700 H 0.61118 0.25369 0.93591 0.0
H701 H 0.59918 0.20285 0.96129 0.0
C702 C 0.87136 0.72598 0.91032 0.0
C703 C 0.85879 0.70978 0.86296 0.0
C704 C 0.89845 0.6342 0.87617 0.0
C705 C 0.91115 0.65045 0.92371 0.0
N706 N 0.92413 0.71807 0.97945 0.0
N707 N 0.87261 0.65335 0.79771 0.0
C708 C 0.9024 0.69832 0.93874 0.0
C709 C 0.8758 0.66524 0.84502 0.0
N710 N 0.85148 0.7665 0.92931 0.0
N711 N 0.90874 0.58901 0.86026 0.0
H712 H 0.85729 0.67511 0.77342 0.0
H713 H 0.88939 0.62406 0.78185 0.0
H714 H 0.93132 0.5669 0.87891 0.0
H715 H 0.89373 0.57288 0.82895 0.0
H716 H 0.85499 0.77714 0.96502 0.0
H717 H 0.82761 0.78715 0.91037 0.0
H718 H 0.92273 0.75391 0.98917 0.0
H719 H 0.94726 0.69991 1.00146 0.0
C720 C 0.13668 0.34776 0.16799 0.0
C721 C 0.18219 0.32905 0.15706 0.0
C722 C 0.1773 0.37049 0.08476 0.0
C723 C 0.13181 0.38936 0.09567 0.0
N724 N 0.06479 0.39027 0.14346 0.0
N725 N 0.24212 0.31553 0.10141 0.0
C726 C 0.11033 0.37581 0.13581 0.0
C727 C 0.20136 0.33841 0.11431 0.0
N728 N 0.11987 0.34105 0.21053 0.0
N729 N 0.19798 0.3841 0.04642 0.0
H730 H 0.26066 0.29222 0.12227 0.0
H731 H 0.25586 0.31669 0.06877 0.0
H732 H 0.18007 0.40427 0.02204 0.0
H733 H 0.23331 0.37711 0.03954 0.0
H734 H 0.08986 0.35797 0.22341 0.0
H735 H 0.13775 0.32065 0.23474 0.0
H736 H 0.04469 0.37762 0.16865 0.0
H737 H 0.04565 0.41276 0.12222 0.0
C738 C 0.0852 0.69144 0.90256 0.0
C739 C 0.12871 0.69316 0.88154 0.0
C740 C 0.14531 0.61209 0.89597 0.0
C741 C 0.10073 0.61001 0.91551 0.0
N742 N 1.02025 0.63966 0.90342 0.0
N743 N 0.18159 0.6454 0.83356 0.0
C744 C 0.06769 0.64718 0.9091 0.0
C745 C 0.15375 0.65063 0.87063 0.0
N746 N 0.06062 0.73102 0.9165 0.0
N747 N 0.17957 0.57836 0.90107 0.0
H748 H 0.18426 0.6714 0.81063 0.0
H749 H 0.19496 0.61262 0.82176 0.0
H750 H 0.17536 0.54899 0.91926 0.0
H751 H 0.21334 0.58167 0.8891 0.0
H752 H 0.02923 0.72963 0.93369 0.0
H753 H 0.07405 0.76446 0.91513 0.0
H754 H 0.99662 0.66641 0.89439 0.0
H755 H 1.00662 0.60596 0.89897 0.0
C756 C 0.33049 0.06714 0.86027 0.0
C757 C 0.29475 0.07992 0.89114 0.0
C758 C 0.34739 0.06014 0.95669 0.0
C759 C 0.38627 0.06853 0.92874 0.0
N760 N 0.41536 0.06407 0.8511 0.0
N761 N 0.26078 0.05581 0.95838 0.0
C762 C 0.37812 0.0661 0.87925 0.0
C763 C 0.30047 0.06347 0.93571 0.0
N764 N 0.31827 0.05622 0.81397 0.0
N765 N 0.35451 0.05301 1.00306 0.0
H766 H 0.22697 0.06086 0.94201 0.0
H767 H 0.2611 0.04195 0.99078 0.0
H768 H 0.38778 0.04956 0.01992 0.0
H769 H 0.32726 0.05141 0.02554 0.0
H770 H 0.34259 0.04415 0.78976 0.0
H771 H 0.28254 0.05561 0.80146 0.0
H772 H 0.41122 0.06712 0.8151 0.0
H773 H 0.45049 0.05988 0.86436 0.0
C774 C 0.8966 0.35468 0.83642 0.0
C775 C 0.85178 0.3386 0.84827 0.0
C776 C 0.86851 0.37014 0.92966 0.0
C777 C 0.90968 0.39157 0.91613 0.0
N778 N 0.96323 0.40638 0.85743 0.0
N779 N 0.79446 0.33075 0.90559 0.0
C780 C 0.92423 0.38389 0.86986 0.0
C781 C 0.8376 0.34618 0.89484 0.0
N782 N 0.91289 0.34192 0.79329 0.0
N783 N 0.85974 0.37208 0.97609 0.0
H784 H 0.77242 0.31078 0.88147 0.0
H785 H 0.77937 0.33961 0.93733 0.0
H786 H 0.88254 0.38866 1.00222 0.0
H787 H 0.83272 0.3539 0.98928 0.0
H788 H 0.94749 0.34748 0.78461 0.0
H789 H 0.8928 0.32304 0.7667 0.0
H790 H 0.97233 0.40743 0.82297 0.0
H791 H 0.98549 0.42622 0.88167 0.0
C792 C 0.64117 0.84089 0.86239 0.0
C793 C 0.69156 0.84965 0.86448 0.0
C794 C 0.67672 0.92342 0.91165 0.0
C795 C 0.62861 0.91178 0.91556 0.0
N796 N 0.56606 0.85568 0.89837 0.0
N797 N 0.75587 0.89088 0.90977 0.0
C798 C 0.61138 0.86912 0.89242 0.0
C799 C 0.70889 0.88842 0.89464 0.0
N800 N 0.62034 0.8077 0.8309 0.0
N801 N 0.69237 0.96778 0.9235 0.0
H802 H 0.77986 0.86324 0.90354 0.0
H803 H 0.76905 0.91723 0.93429 0.0
H804 H 0.66987 0.99554 0.93323 0.0
H805 H 0.72672 0.9779 0.91774 0.0
H806 H 0.58362 0.80521 0.82436 0.0
H807 H 0.63813 0.78484 0.80799 0.0
H808 H 0.55375 0.82201 0.88847 0.0
H809 H 0.54147 0.87752 0.9154 0.0
C810 C 0.88399 0.71583 0.13308 0.0
C811 C 0.88051 0.71083 0.18169 0.0
C812 C 0.92511 0.63465 0.16816 0.0
C813 C 0.91825 0.63624 0.11852 0.0
N814 N 0.87752 0.67634 0.05583 0.0
N815 N 0.90517 0.66532 0.24661 0.0
C816 C 0.89335 0.67596 0.10176 0.0
C817 C 0.90319 0.66999 0.19956 0.0
N818 N 0.88194 0.75909 0.1164 0.0
N819 N 0.95263 0.59946 0.18543 0.0
H820 H 0.89844 0.69315 0.27113 0.0
H821 H 0.91401 0.63406 0.26134 0.0
H822 H 0.96717 0.5726 0.16374 0.0
H823 H 0.96341 0.59827 0.22076 0.0
H824 H 0.88665 0.76407 0.0814 0.0
H825 H 0.88456 0.7899 0.13837 0.0
H826 H 0.85526 0.70291 0.04372 0.0
H827 H 0.88242 0.64863 0.03089 0.0
C828 C 0.37809 0.83 0.14231 0.0
C829 C 0.35296 0.85207 0.18005 0.0
C830 C 0.38828 0.92816 0.1624 0.0
C831 C 0.41577 0.90562 0.12659 0.0
N832 N 0.44184 0.8314 0.08935 0.0
N833 N 0.34553 0.92183 0.23259 0.0
C834 C 0.41231 0.8555 0.11901 0.0
C835 C 0.361 0.90115 0.19155 0.0
N836 N 0.36745 0.78488 0.12645 0.0
N837 N 0.38863 0.97588 0.16953 0.0
H838 H 0.32804 0.90374 0.25617 0.0
H839 H 0.35472 0.95555 0.24609 0.0
H840 H 0.41107 0.99664 0.15289 0.0
H841 H 0.36475 0.99506 0.19004 0.0
H842 H 0.37953 0.76833 0.09565 0.0
H843 H 0.34274 0.76523 0.14142 0.0
H844 H 0.44616 0.79513 0.08749 0.0
H845 H 0.46452 0.84738 0.06861 0.0
C846 C 0.65726 0.15685 0.1903 0.0
C847 C 0.68623 0.1947 0.1813 0.0
C848 C 0.65974 0.18361 0.09727 0.0
C849 C 0.62736 0.14925 0.107 0.0
N850 N 0.59199 0.10495 0.16299 0.0
N851 N 0.70725 0.24983 0.12649 0.0
C852 C 0.62515 0.13643 0.15368 0.0
C853 C 0.6853 0.2096 0.13487 0.0
N854 N 0.66225 0.13877 0.233 0.0
N855 N 0.66808 0.18996 0.05179 0.0
H856 H 0.72571 0.27105 0.15234 0.0
H857 H 0.70258 0.26522 0.09483 0.0
H858 H 0.65064 0.17133 0.02307 0.0
H859 H 0.69567 0.21023 0.0425 0.0
H860 H 0.64616 0.10808 0.24031 0.0
H861 H 0.68585 0.15222 0.26018 0.0
H862 H 0.58484 0.09764 0.19674 0.0
H863 H 0.56907 0.08844 0.13688 0.0
C864 C 0.6013 0.61679 0.82884 0.0
C865 C 0.63173 0.65563 0.83595 0.0
C866 C 0.62042 0.66091 0.92052 0.0
C867 C 0.59196 0.62103 0.9128 0.0
N868 N 0.53811 0.57566 0.85916 0.0
N869 N 0.66011 0.72246 0.88706 0.0
C870 C 0.57662 0.60384 0.86671 0.0
C871 C 0.63823 0.68026 0.88142 0.0
N872 N 0.59837 0.59032 0.78686 0.0
N873 N 0.63027 0.67988 0.96535 0.0
H874 H 0.67337 0.73777 0.85948 0.0
H875 H 0.66183 0.74421 0.91804 0.0
H876 H 0.61356 0.66839 0.99364 0.0
H877 H 0.65529 0.7058 0.97474 0.0
H878 H 0.57977 0.55907 0.78139 0.0
H879 H 0.61874 0.5966 0.75911 0.0
H880 H 0.52323 0.56465 0.82589 0.0
H881 H 0.51749 0.56899 0.88636 0.0
C882 C 0.3299 0.63146 0.86363 0.0
C883 C 0.34929 0.67452 0.85315 0.0
C884 C 0.42036 0.65818 0.9057 0.0
C885 C 0.39843 0.61778 0.91972 0.0
N886 N 0.33056 0.56753 0.91436 0.0
N887 N 0.41226 0.73084 0.86773 0.0
C888 C 0.35266 0.605 0.89933 0.0
C889 C 0.39458 0.68816 0.87487 0.0
N890 N 0.29106 0.61432 0.83731 0.0
N891 N 0.46628 0.66772 0.92152 0.0
H892 H 0.39531 0.75354 0.84526 0.0
H893 H 0.44181 0.74562 0.88675 0.0
H894 H 0.48507 0.64859 0.94623 0.0
H895 H 0.48686 0.69252 0.90809 0.0
H896 H 0.27905 0.58028 0.83788 0.0
H897 H 0.27366 0.63289 0.81145 0.0
H898 H 0.29531 0.55906 0.90476 0.0
H899 H 0.34658 0.54639 0.93898 0.0
C900 C 0.40584 0.36697 0.86903 0.0
C901 C 0.36421 0.34621 0.88269 0.0
C902 C 0.36925 0.39866 0.95594 0.0
C903 C 0.40886 0.42188 0.94032 0.0
N904 N 0.45192 0.43755 0.87339 0.0
N905 N 0.2996 0.35144 0.93447 0.0
C906 C 0.42378 0.40852 0.89452 0.0
C907 C 0.34415 0.36438 0.92498 0.0
N908 N 0.42849 0.34696 0.83153 0.0
N909 N 0.3555 0.4086 1.00053 0.0
H910 H 0.27939 0.32708 0.91326 0.0
H911 H 0.28058 0.36827 0.96108 0.0
H912 H 0.37201 0.43322 0.0247 0.0
H913 H 0.33061 0.38898 1.01534 0.0
H914 H 0.46071 0.35886 0.82168 0.0
H915 H 0.41744 0.31569 0.81306 0.0
H916 H 0.46016 0.43171 0.83848 0.0
H917 H 0.46185 0.4705 0.88855 0.0
C918 C 0.62957 0.45189 0.78721 0.0
C919 C 0.61476 0.40565 0.7752 0.0
C920 C 0.5748 0.40491 0.84803 0.0
C921 C 0.59611 0.44849 0.863 0.0
N922 N 0.64831 0.51132 0.84977 0.0
N923 N 0.56636 0.34086 0.78651 0.0
C924 C 0.62404 0.47194 0.83312 0.0
C925 C 0.58418 0.38347 0.80311 0.0
N926 N 0.65072 0.47563 0.75509 0.0
N927 N 0.54859 0.38308 0.87799 0.0
H928 H 0.57336 0.32581 0.75316 0.0
H929 H 0.5436 0.32143 0.80404 0.0
H930 H 0.5418 0.39793 0.91141 0.0
H931 H 0.53425 0.34995 0.87074 0.0
H932 H 0.65943 0.51088 0.76033 0.0
H933 H 0.65509 0.46137 0.72103 0.0
H934 H 0.67353 0.52688 0.83146 0.0
H935 H 0.64644 0.52645 0.88372 0.0
C936 C 0.66184 0.35992 0.16636 0.0
C937 C 0.70268 0.37418 0.19566 0.0
C938 C 0.7018 0.44935 0.15989 0.0
C939 C 0.66299 0.43383 0.12854 0.0
N940 N 0.60758 0.37373 0.09911 0.0
N941 N 0.75218 0.43688 0.23024 0.0
C942 C 0.64329 0.389 0.1312 0.0
C943 C 0.72024 0.42013 0.19506 0.0
N944 N 0.63934 0.31963 0.17375 0.0
N945 N 0.72207 0.49142 0.15489 0.0
H946 H 0.76612 0.41647 0.25653 0.0
H947 H 0.76252 0.47168 0.23544 0.0
H948 H 0.70893 0.51395 0.13016 0.0
H949 H 0.75369 0.50267 0.17281 0.0
H950 H 0.60653 0.30961 0.15757 0.0
H951 H 0.65171 0.29734 0.19889 0.0
H952 H 0.59524 0.33958 0.09516 0.0
H953 H 0.59209 0.3945 0.07387 0.0
C954 C 0.65231 0.69234 0.17293 0.0
C955 C 0.694 0.71243 0.15871 0.0
C956 C 0.68914 0.65784 0.08711 0.0
C957 C 0.65094 0.63397 0.10447 0.0
N958 N 0.60689 0.62175 0.17177 0.0
N959 N 0.75709 0.70819 0.10538 0.0
C960 C 0.63508 0.64963 0.14937 0.0
C961 C 0.71363 0.69376 0.11646 0.0
N962 N 0.62898 0.71408 0.20915 0.0
N963 N 0.70178 0.64707 0.04226 0.0
H964 H 0.77633 0.73442 0.1251 0.0
H965 H 0.77599 0.69138 0.0787 0.0
H966 H 0.68504 0.62157 0.01921 0.0
H967 H 0.72569 0.6667 0.02617 0.0
H968 H 0.59589 0.70339 0.21812 0.0
H969 H 0.64031 0.74567 0.2268 0.0
H970 H 0.59755 0.62975 0.2061 0.0
H971 H 0.59852 0.58772 0.15872 0.0
C972 C 0.47519 0.61971 0.26691 0.0
C973 C 0.45494 0.66403 0.2609 0.0
C974 C 0.47818 0.66151 0.18133 0.0
C975 C 0.48518 0.61256 0.18286 0.0
N976 N 0.51803 0.55308 0.23285 0.0
N977 N 0.47419 0.73541 0.22887 0.0
C978 C 0.4933 0.59391 0.22758 0.0
C979 C 0.46881 0.68815 0.22339 0.0
N980 N 0.47139 0.60107 0.30865 0.0
N981 N 0.48082 0.68217 0.14045 0.0
H982 H 0.47254 0.75373 0.26177 0.0
H983 H 0.48629 0.75471 0.20296 0.0
H984 H 0.49215 0.66398 0.11002 0.0
H985 H 0.47101 0.71702 0.1369 0.0
H986 H 0.47953 0.56637 0.31448 0.0
H987 H 0.45785 0.62117 0.33702 0.0
H988 H 0.52577 0.53969 0.26517 0.0
H989 H 0.53684 0.53577 0.20669 0.0
C990 C 0.46224 0.40923 0.20979 0.0
C991 C 0.41944 0.38517 0.19686 0.0
C992 C 0.43284 0.38911 0.11405 0.0
C993 C 0.46858 0.42183 0.12729 0.0
N994 N 0.53126 0.44681 0.18416 0.0
N995 N 0.36235 0.3528 0.13621 0.0
C996 C 0.48794 0.42674 0.17424 0.0
C997 C 0.40488 0.37391 0.14879 0.0
N998 N 0.47626 0.41754 0.25623 0.0
N999 N 0.42688 0.37195 0.06832 0.0
H1000 H 0.33926 0.34296 0.1603 0.0
H1001 H 0.34809 0.34857 0.10164 0.0
H1002 H 0.44833 0.38279 0.04305 0.0
H1003 H 0.40465 0.34408 0.05687 0.0
H1004 H 0.50424 0.43918 0.26899 0.0
H1005 H 0.45837 0.40351 0.28242 0.0
H1006 H 0.54958 0.44836 0.21699 0.0
H1007 H 0.55083 0.45834 0.15805 0.0
C1008 C 0.85022 0.69654 0.62956 0.0
C1009 C 0.86538 0.71698 0.67507 0.0
C1010 C 0.94796 0.6919 0.65911 0.0
C1011 C 0.93124 0.66453 0.61807 0.0
N1012 N 0.86552 0.63882 0.56486 0.0
N1013 N 0.92998 0.72803 0.7353 0.0
C1014 C 0.88209 0.6666 0.60333 0.0
C1015 C 0.91479 0.71373 0.69014 0.0
N1016 N 0.80592 0.70706 0.61055 0.0
N1017 N 0.99586 0.69643 0.66888 0.0
H1018 H 0.90753 0.7416 0.76056 0.0
H1019 H 0.9643 0.72172 0.74947 0.0
H1020 H 1.02073 0.68056 0.64702 0.0
H1021 H 1.01068 0.71964 0.6956 0.0
H1022 H 0.79437 0.69691 0.57597 0.0
H1023 H 0.78249 0.73016 0.62772 0.0
H1024 H 0.82948 0.63433 0.55525 0.0
H1025 H 0.88809 0.61831 0.54386 0.0
C1026 C 0.41045 0.81614 0.57884 0.0
C1027 C 0.40522 0.82846 0.62671 0.0
C1028 C 0.40884 0.91131 0.61404 0.0
C1029 C 0.42794 0.89823 0.57061 0.0
N1030 N 0.43588 0.83987 0.50577 0.0
N1031 N 0.39529 0.88752 0.69073 0.0
C1032 C 0.42403 0.8511 0.5507 0.0
C1033 C 0.40259 0.87609 0.64456 0.0
N1034 N 0.40308 0.77095 0.56101 0.0
N1035 N 0.39553 0.95666 0.62532 0.0
H1036 H 0.38855 0.86271 0.71386 0.0
H1037 H 0.39848 0.92144 0.70664 0.0
H1038 H 0.39493 0.9817 0.601 0.0
H1039 H 0.37876 0.96769 0.65569 0.0
H1040 H 0.40238 0.75994 0.52546 0.0
H1041 H 0.39453 0.74467 0.58195 0.0
H1042 H 0.43935 0.80587 0.49047 0.0
H1043 H 0.44311 0.86548 0.4839 0.0
C1044 C 0.2215 0.44712 0.63412 0.0
C1045 C 0.22028 0.39891 0.64031 0.0
C1046 C 0.13541 0.39688 0.61735 0.0
C1047 C 0.13668 0.44516 0.61047 0.0
N1048 N 0.1842 0.51077 0.59486 0.0
N1049 N 0.1814 0.32507 0.62309 0.0
C1050 C 0.1808 0.46868 0.61317 0.0
C1051 C 0.17878 0.37284 0.62682 0.0
N1052 N 0.26035 0.47277 0.65037 0.0
N1053 N 0.09304 0.37418 0.61537 0.0
H1054 H 0.21357 0.30697 0.62861 0.0
H1055 H 0.15321 0.30385 0.60986 0.0
H1056 H 0.06043 0.39048 0.60749 0.0
H1057 H 0.08999 0.34016 0.62489 0.0
H1058 H 0.26075 0.50919 0.6514 0.0
H1059 H 0.29087 0.45784 0.66598 0.0
H1060 H 0.21649 0.52734 0.59279 0.0
H1061 H 0.15542 0.5267 0.57755 0.0
C1062 C 0.71203 0.13138 0.63324 0.0
C1063 C 0.70723 0.18063 0.64379 0.0
C1064 C 0.62201 0.17482 0.63012 0.0
C1065 C 0.62505 0.12683 0.61375 0.0
N1066 N 0.67931 0.0643 0.58618 0.0
N1067 N 0.65969 0.24713 0.6211 0.0
C1068 C 0.67182 0.10583 0.61182 0.0
C1069 C 0.66293 0.20175 0.63172 0.0
N1070 N 0.7547 0.10907 0.64108 0.0
N1071 N 0.58129 0.19488 0.64626 0.0
H1072 H 0.69003 0.26569 0.61568 0.0
H1073 H 0.62719 0.26286 0.61126 0.0
H1074 H 0.55223 0.17525 0.65328 0.0
H1075 H 0.57981 0.23002 0.65921 0.0
H1076 H 0.75789 0.07273 0.64066 0.0
H1077 H 0.78674 0.12666 0.64741 0.0
H1078 H 0.7132 0.05038 0.58108 0.0
H1079 H 0.65339 0.04704 0.56414 0.0
C1080 C 0.89061 0.38567 0.33165 0.0
C1081 C 0.84846 0.37461 0.35283 0.0
C1082 C 0.87435 0.43028 0.41928 0.0
C1083 C 0.9205 0.43173 0.40203 0.0
N1084 N 0.97455 0.39341 0.34762 0.0
N1085 N 0.80735 0.38057 0.42533 0.0
C1086 C 0.92943 0.40414 0.36007 0.0
C1087 C 0.84202 0.39521 0.39917 0.0
N1088 N 0.89349 0.3809 0.28426 0.0
N1089 N 0.86027 0.46292 0.4532 0.0
H1090 H 0.78533 0.35246 0.41482 0.0
H1091 H 0.80467 0.39287 0.46035 0.0
H1092 H 0.88087 0.4916 0.46595 0.0
H1093 H 0.82563 0.46467 0.464 0.0
H1094 H 0.92339 0.39089 0.26814 0.0
H1095 H 0.86377 0.37429 0.26149 0.0
H1096 H 0.98113 0.37109 0.318 0.0
H1097 H 1.00473 0.40081 0.3698 0.0
C1098 C 0.69077 0.89057 0.3642 0.0
C1099 C 0.67875 0.87877 0.31553 0.0
C1100 C 0.60704 0.93098 0.32306 0.0
C1101 C 0.62072 0.94284 0.3713 0.0
N1102 N 0.68681 0.95029 0.42869 0.0
N1103 N 0.62724 0.89289 0.24722 0.0
C1104 C 0.66646 0.92808 0.38842 0.0
C1105 C 0.63767 0.90109 0.29439 0.0
N1106 N 0.72488 0.86601 0.38852 0.0
N1107 N 0.5648 0.94768 0.30477 0.0
H1108 H 0.64622 0.86883 0.22611 0.0
H1109 H 0.60091 0.91094 0.22854 0.0
H1110 H 0.54561 0.97401 0.32269 0.0
H1111 H 0.54903 0.93593 0.27213 0.0
H1112 H 0.7298 0.87002 0.42501 0.0
H1113 H 0.74708 0.84048 0.37349 0.0
H1114 H 0.72151 0.94337 0.44153 0.0
H1115 H 0.67051 0.97919 0.44612 0.0
C1116 C 0.14699 0.73331 0.38802 0.0
C1117 C 0.18344 0.71244 0.35957 0.0
C1118 C 0.16831 0.63853 0.39661 0.0
C1119 C 0.12605 0.65611 0.41754 0.0
N1120 N 0.07276 0.72294 0.42541 0.0
N1121 N 0.21259 0.63726 0.32743 0.0
C1122 C 0.11482 0.7044 0.41116 0.0
C1123 C 0.18957 0.66288 0.36148 0.0
N1124 N 0.14371 0.78085 0.39499 0.0
N1125 N 0.18943 0.59834 0.41068 0.0
H1126 H 0.22136 0.65116 0.29683 0.0
H1127 H 0.21543 0.60083 0.32596 0.0
H1128 H 0.17796 0.58142 0.43864 0.0
H1129 H 0.22182 0.58577 0.39871 0.0
H1130 H 0.12152 0.7978 0.41886 0.0
H1131 H 0.16701 0.80309 0.38144 0.0
H1132 H 0.06024 0.75595 0.41727 0.0
H1133 H 0.04867 0.7039 0.44185 0.0
C1134 C 0.37238 0.21135 0.38668 0.0
C1135 C 0.34692 0.18991 0.3465 0.0
C1136 C 0.3833 0.11365 0.36492 0.0
C1137 C 0.41232 0.13634 0.4021 0.0
N1138 N 0.44392 0.20979 0.43764 0.0
N1139 N 0.33891 0.12157 0.29069 0.0
C1140 C 0.4097 0.1861 0.40966 0.0
C1141 C 0.35526 0.14123 0.33368 0.0
N1142 N 0.35982 0.25526 0.40449 0.0
N1143 N 0.38105 0.06592 0.3601 0.0
H1144 H 0.32103 0.14057 0.26539 0.0
H1145 H 0.348 0.08763 0.27808 0.0
H1146 H 0.40077 0.04457 0.38215 0.0
H1147 H 0.35653 0.04784 0.33676 0.0
H1148 H 0.37454 0.27057 0.43634 0.0
H1149 H 0.33095 0.27409 0.39052 0.0
H1150 H 0.44604 0.2462 0.44069 0.0
H1151 H 0.47336 0.19316 0.45306 0.0
C1152 C 0.71007 0.88108 0.64472 0.0
C1153 C 0.69349 0.85678 0.68136 0.0
C1154 C 0.61229 0.88711 0.66334 0.0
C1155 C 0.62936 0.91409 0.62898 0.0
N1156 N 0.69659 0.94398 0.59366 0.0
N1157 N 0.63188 0.85007 0.73458 0.0
C1158 C 0.67901 0.91334 0.6219 0.0
C1159 C 0.64542 0.86357 0.69317 0.0
N1160 N 0.75471 0.87181 0.63007 0.0
N1161 N 0.56451 0.88186 0.66635 0.0
H1162 H 0.65639 0.83685 0.75888 0.0
H1163 H 0.59855 0.85789 0.74717 0.0
H1164 H 0.53868 0.89785 0.64506 0.0
H1165 H 0.5506 0.85815 0.68726 0.0
H1166 H 0.76697 0.8847 0.60029 0.0
H1167 H 0.77803 0.84768 0.64503 0.0
H1168 H 0.73282 0.94883 0.59101 0.0
H1169 H 0.67492 0.96771 0.57621 0.0
C1170 C 0.58748 0.19836 0.38517 0.0
C1171 C 0.62412 0.22533 0.40941 0.0
C1172 C 0.63624 0.16778 0.46711 0.0
C1173 C 0.59886 0.14175 0.44316 0.0
N1174 N 0.55164 0.12197 0.37183 0.0
N1175 N 0.69111 0.23165 0.46642 0.0
C1176 C 0.57864 0.15377 0.39947 0.0
C1177 C 0.65087 0.20892 0.44857 0.0
N1178 N 0.56142 0.21584 0.3485 0.0
N1179 N 0.65697 0.15302 0.50769 0.0
H1180 H 0.70234 0.26232 0.45372 0.0
H1181 H 0.71483 0.21888 0.4919 0.0
H1182 H 0.64911 0.12041 0.51847 0.0
H1183 H 0.68099 0.17262 0.53015 0.0
H1184 H 0.53157 0.19945 0.33161 0.0
H1185 H 0.56754 0.24896 0.3377 0.0
H1186 H 0.53782 0.12746 0.33809 0.0
H1187 H 0.54809 0.08785 0.38108 0.0
C1188 C 0.8517 0.66593 0.43362 0.0
C1189 C 0.82685 0.64813 0.392 0.0
C1190 C 0.88705 0.58683 0.38005 0.0
C1191 C 0.91543 0.60887 0.41829 0.0
N1192 N 0.92858 0.67534 0.4754 0.0
N1193 N 0.82052 0.59438 0.32308 0.0
C1194 C 0.8986 0.64982 0.44394 0.0
C1195 C 0.84397 0.6087 0.36497 0.0
N1196 N 0.83069 0.69985 0.4619 0.0
N1197 N 0.90073 0.545 0.35831 0.0
H1198 H 0.78783 0.60877 0.31193 0.0
H1199 H 0.83452 0.57016 0.29833 0.0
H1200 H 0.9338 0.52965 0.36501 0.0
H1201 H 0.87826 0.52437 0.33508 0.0
H1202 H 0.84524 0.71202 0.49496 0.0
H1203 H 0.79631 0.71237 0.45373 0.0
H1204 H 0.9191 0.70739 0.49237 0.0
H1205 H 0.96467 0.66723 0.48078 0.0
C1206 C 0.33903 0.88445 0.40355 0.0
C1207 C 0.35131 0.86108 0.36016 0.0
C1208 C 0.42416 0.90669 0.36386 0.0
C1209 C 0.41661 0.92286 0.41041 0.0
N1210 N 0.36552 0.93213 0.47452 0.0
N1211 N 0.40814 0.84867 0.30008 0.0
C1212 C 0.3732 0.91384 0.4301 0.0
C1213 C 0.39458 0.87183 0.34064 0.0
N1214 N 0.29506 0.87829 0.41934 0.0
N1215 N 0.45854 0.92663 0.34107 0.0
H1216 H 0.38684 0.82501 0.27969 0.0
H1217 H 0.4421 0.85076 0.28817 0.0
H1218 H 0.47855 0.95449 0.35694 0.0
H1219 H 0.46274 0.92002 0.30529 0.0
H1220 H 0.2819 0.89793 0.44796 0.0
H1221 H 0.27047 0.85485 0.40229 0.0
H1222 H 0.33758 0.92259 0.49348 0.0
H1223 H 0.38842 0.9562 0.49312 0.0
C1224 C 0.18696 0.38407 0.35943 0.0
C1225 C 0.1813 0.33492 0.35174 0.0
C1226 C 0.11137 0.3446 0.40046 0.0
C1227 C 0.12237 0.39267 0.41248 0.0
N1228 N 0.18521 0.44958 0.41749 0.0
N1229 N 0.14303 0.26733 0.37755 0.0
C1230 C 0.16549 0.40909 0.39724 0.0
C1231 C 0.14498 0.31465 0.37605 0.0
N1232 N 0.20773 0.40835 0.32765 0.0
N1233 N 0.06869 0.32742 0.41023 0.0
H1234 H 0.16835 0.24447 0.36347 0.0
H1235 H 0.11969 0.25146 0.39783 0.0
H1236 H 0.04331 0.34731 0.42803 0.0
H1237 H 0.0572 0.29416 0.39734 0.0
H1238 H 0.2106 0.44474 0.3315 0.0
H1239 H 0.21328 0.39325 0.29409 0.0
H1240 H 0.21767 0.46148 0.40795 0.0
H1241 H 0.17183 0.46774 0.44703 0.0
C1242 C 0.41797 0.1601 0.7397 0.0
C1243 C 0.37122 0.17464 0.72413 0.0
C1244 C 0.37574 0.11679 0.65541 0.0
C1245 C 0.42508 0.10896 0.66588 0.0
N1246 N 0.49421 0.12572 0.71826 0.0
N1247 N 0.30866 0.17006 0.66185 0.0
C1248 C 0.44637 0.13072 0.7086 0.0
C1249 C 0.35093 0.15364 0.68065 0.0
N1250 N 0.43564 0.17495 0.78385 0.0
N1251 N 0.35249 0.08891 0.62051 0.0
H1252 H 0.28907 0.19689 0.67833 0.0
H1253 H 0.29495 0.15971 0.62797 0.0
H1254 H 0.3698 0.06187 0.60138 0.0
H1255 H 0.31562 0.08941 0.6141 0.0
H1256 H 0.46728 0.16204 0.79916 0.0
H1257 H 0.41679 0.19773 0.80642 0.0
H1258 H 0.51306 0.14504 0.74559 0.0
H1259 H 0.51552 0.10388 0.69723 0.0
C1260 C 0.89585 0.31771 0.62396 0.0
C1261 C 0.86612 0.33604 0.66018 0.0
C1262 C 0.88685 0.41503 0.6375 0.0
C1263 C 0.92495 0.39792 0.60952 0.0
N1264 N 0.96543 0.32741 0.57939 0.0
N1265 N 0.84591 0.40658 0.70764 0.0
C1266 C 0.92928 0.34758 0.6036 0.0
C1267 C 0.8655 0.3859 0.66868 0.0
N1268 N 0.8906 0.27218 0.60675 0.0
N1269 N 0.86792 0.45865 0.63229 0.0
H1270 H 0.83352 0.3877 0.7337 0.0
H1271 H 0.84789 0.44253 0.71682 0.0
H1272 H 0.8767 0.47867 0.60548 0.0
H1273 H 0.83831 0.47138 0.64959 0.0
H1274 H 0.90603 0.25829 0.5765 0.0
H1275 H 0.86682 0.24989 0.6197 0.0
H1276 H 0.97236 0.29154 0.57671 0.0
H1277 H 0.99066 0.34634 0.56457 0.0
C1278 C 0.17596 0.69697 0.64523 0.0
C1279 C 0.20333 0.67795 0.68271 0.0
C1280 C 0.15925 0.60475 0.66921 0.0
C1281 C 0.13128 0.6233 0.63151 0.0
N1282 N 0.11427 0.68653 0.58186 0.0
N1283 N 0.23205 0.61001 0.71953 0.0
C1284 C 0.14044 0.66912 0.61863 0.0
C1285 C 0.19812 0.63073 0.69154 0.0
N1286 N 0.18339 0.74215 0.63596 0.0
N1287 N 0.14838 0.56264 0.68449 0.0
H1288 H 0.26263 0.62762 0.73307 0.0
H1289 H 0.23305 0.5744 0.72439 0.0
H1290 H 0.12222 0.54084 0.66793 0.0
H1291 H 0.1635 0.55043 0.7154 0.0
H1292 H 0.16164 0.7609 0.61323 0.0
H1293 H 0.2115 0.76179 0.65221 0.0
H1294 H 0.12239 0.71686 0.56678 0.0
H1295 H 0.08431 0.67019 0.56521 0.0
loop_
_geom_bond_atom_site_label_1
_geom_bond_atom_site_label_2
_geom_bond_distance
_geom_bond_site_symmetry_2
_ccdc_geom_bond_type
Co0 N5 2.057 . S
Co0 O17 2.021 . S
Co0 O20 2.062 . S
Co0 O24 2.117 . S
Co0 O25 2.020 . S
C1 O21 1.259 . S
C1 O24 1.258 . S
Co2 N11 2.057 . S
Co2 O18 2.117 . S
Co2 O19 2.020 . S
Co2 O21 2.021 . S
Co2 O26 2.062 . S
C3 N5 1.316 . S
C3 N6 1.347 . S
C3 H8 0.931 . S
C4 N5 1.375 . S
C4 C7 1.350 . S
C4 H9 0.930 . S
N5 Co0 2.057 . S
N5 C3 1.316 . S
N5 C4 1.375 . S
N6 C3 1.347 . S
N6 C7 1.373 . S
C7 C4 1.350 . S
C7 N6 1.373 . S
C7 H28 0.931 . S
H8 C3 0.931 . S
H9 C4 0.930 . S
C10 O17 1.259 . S
C10 O18 1.258 . S
N11 Co2 2.057 . S
N11 C12 1.316 . S
N11 C13 1.375 . S
C12 N11 1.316 . S
C12 N14 1.347 . S
C12 H23 0.931 . S
C13 N11 1.375 . S
C13 C15 1.350 . S
C13 H22 0.930 . S
N14 C12 1.347 . S
N14 C15 1.373 . S
C15 C13 1.350 . S
C15 N14 1.373 . S
C15 H29 0.931 . S
C16 O19 1.256 . S
C16 O20 1.255 . S
O17 Co0 2.021 . S
O17 C10 1.259 . S
O18 Co2 2.117 . S
O18 C10 1.258 . S
O19 Co2 2.020 . S
O19 C16 1.256 . S
O20 Co0 2.062 . S
O20 C16 1.255 . S
O21 C1 1.259 . S
O21 Co2 2.021 . S
H22 C13 0.930 . S
H23 C12 0.931 . S
O24 Co0 2.117 . S
O24 C1 1.258 . S
O25 Co0 2.020 . S
O25 C27 1.256 . S
O26 Co2 2.062 . S
O26 C27 1.255 . S
C27 O25 1.256 . S
C27 O26 1.255 . S
H28 C7 0.931 . S
H29 C15 0.931 . S
Co30 N35 2.057 . S
Co30 O47 2.021 . S
Co30 O50 2.062 . S
Co30 O54 2.117 . S
Co30 O55 2.020 . S
C31 O51 1.259 . S
C31 O54 1.258 . S
Co32 N41 2.057 . S
Co32 O48 2.117 . S
Co32 O49 2.020 . S
Co32 O51 2.021 . S
Co32 O56 2.062 . S
C33 N35 1.316 . S
C33 N36 1.347 . S
C33 H38 0.931 . S
C34 N35 1.375 . S
C34 C37 1.350 . S
C34 H39 0.930 . S
N35 Co30 2.057 . S
N35 C33 1.316 . S
N35 C34 1.375 . S
N36 C33 1.347 . S
N36 C37 1.373 . S
C37 C34 1.350 . S
C37 N36 1.373 . S
C37 H58 0.931 . S
H38 C33 0.931 . S
H39 C34 0.930 . S
C40 O47 1.259 . S
C40 O48 1.258 . S
N41 Co32 2.057 . S
N41 C42 1.316 . S
N41 C43 1.375 . S
C42 N41 1.316 . S
C42 N44 1.347 . S
C42 H53 0.931 . S
C43 N41 1.375 . S
C43 C45 1.350 . S
C43 H52 0.930 . S
N44 C42 1.347 . S
N44 C45 1.373 . S
C45 C43 1.350 . S
C45 N44 1.373 . S
C45 H59 0.931 . S
C46 O49 1.256 . S
C46 O50 1.255 . S
O47 Co30 2.021 . S
O47 C40 1.259 . S
O48 Co32 2.117 . S
O48 C40 1.258 . S
O49 Co32 2.020 . S
O49 C46 1.256 . S
O50 Co30 2.062 . S
O50 C46 1.255 . S
O51 C31 1.259 . S
O51 Co32 2.021 . S
H52 C43 0.930 . S
H53 C42 0.931 . S
O54 Co30 2.117 . S
O54 C31 1.258 . S
O55 Co30 2.020 . S
O55 C57 1.256 . S
O56 Co32 2.062 . S
O56 C57 1.255 . S
C57 O55 1.256 . S
C57 O56 1.255 . S
H58 C37 0.931 . S
H59 C45 0.931 . S
Co60 N65 2.057 . S
Co60 O77 2.021 . S
Co60 O80 2.062 . S
Co60 O84 2.117 . S
Co60 O85 2.020 . S
C61 O81 1.259 . S
C61 O84 1.258 . S
Co62 N71 2.057 . S
Co62 O78 2.117 . S
Co62 O79 2.020 . S
Co62 O81 2.021 . S
Co62 O86 2.062 . S
C63 N65 1.316 . S
C63 N66 1.347 . S
C63 H68 0.931 . S
C64 N65 1.375 . S
C64 C67 1.350 . S
C64 H69 0.930 . S
N65 Co60 2.057 . S
N65 C63 1.316 . S
N65 C64 1.375 . S
N66 C63 1.347 . S
N66 C67 1.373 . S
C67 C64 1.350 . S
C67 N66 1.373 . S
C67 H88 0.931 . S
H68 C63 0.931 . S
H69 C64 0.930 . S
C70 O77 1.259 . S
C70 O78 1.258 . S
N71 Co62 2.057 . S
N71 C72 1.316 . S
N71 C73 1.375 . S
C72 N71 1.316 . S
C72 N74 1.347 . S
C72 H83 0.931 . S
C73 N71 1.375 . S
C73 C75 1.350 . S
C73 H82 0.930 . S
N74 C72 1.347 . S
N74 C75 1.373 . S
C75 C73 1.350 . S
C75 N74 1.373 . S
C75 H89 0.931 . S
C76 O79 1.256 . S
C76 O80 1.255 . S
O77 Co60 2.021 . S
O77 C70 1.259 . S
O78 Co62 2.117 . S
O78 C70 1.258 . S
O79 Co62 2.020 . S
O79 C76 1.256 . S
O80 Co60 2.062 . S
O80 C76 1.255 . S
O81 C61 1.259 . S
O81 Co62 2.021 . S
H82 C73 0.930 . S
H83 C72 0.931 . S
O84 Co60 2.117 . S
O84 C61 1.258 . S
O85 Co60 2.020 . S
O85 C87 1.256 . S
O86 Co62 2.062 . S
O86 C87 1.255 . S
C87 O85 1.256 . S
C87 O86 1.255 . S
H88 C67 0.931 . S
H89 C75 0.931 . S
Co90 N95 2.057 . S
Co90 O107 2.021 . S
Co90 O110 2.062 . S
Co90 O114 2.117 . S
Co90 O115 2.020 . S
C91 O111 1.259 . S
C91 O114 1.258 . S
Co92 N101 2.057 . S
Co92 O108 2.117 . S
Co92 O109 2.020 . S
Co92 O111 2.021 . S
Co92 O116 2.062 . S
C93 N95 1.316 . S
C93 N96 1.347 . S
C93 H98 0.931 . S
C94 N95 1.375 . S
C94 C97 1.350 . S
C94 H99 0.930 . S
N95 Co90 2.057 . S
N95 C93 1.316 . S
N95 C94 1.375 . S
N96 C93 1.347 . S
N96 C97 1.373 . S
C97 C94 1.350 . S
C97 N96 1.373 . S
C97 H118 0.931 . S
H98 C93 0.931 . S
H99 C94 0.930 . S
C100 O107 1.259 . S
C100 O108 1.258 . S
N101 Co92 2.057 . S
N101 C102 1.316 . S
N101 C103 1.375 . S
C102 N101 1.316 . S
C102 N104 1.347 . S
C102 H113 0.931 . S
C103 N101 1.375 . S
C103 C105 1.350 . S
C103 H112 0.930 . S
N104 C102 1.347 . S
N104 C105 1.373 . S
C105 C103 1.350 . S
C105 N104 1.373 . S
C105 H119 0.931 . S
C106 O109 1.256 . S
C106 O110 1.255 . S
O107 Co90 2.021 . S
O107 C100 1.259 . S
O108 Co92 2.117 . S
O108 C100 1.258 . S
O109 Co92 2.020 . S
O109 C106 1.256 . S
O110 Co90 2.062 . S
O110 C106 1.255 . S
O111 C91 1.259 . S
O111 Co92 2.021 . S
H112 C103 0.930 . S
H113 C102 0.931 . S
O114 Co90 2.117 . S
O114 C91 1.258 . S
O115 Co90 2.020 . S
O115 C117 1.256 . S
O116 Co92 2.062 . S
O116 C117 1.255 . S
C117 O115 1.256 . S
C117 O116 1.255 . S
H118 C97 0.931 . S
H119 C105 0.931 . S
Co120 N125 2.057 . S
Co120 O137 2.021 . S
Co120 O140 2.062 . S
Co120 O144 2.117 . S
Co120 O145 2.020 . S
C121 O141 1.259 . S
C121 O144 1.258 . S
Co122 N131 2.057 . S
Co122 O138 2.117 . S
Co122 O139 2.020 . S
Co122 O141 2.021 . S
Co122 O146 2.062 . S
C123 N125 1.316 . S
C123 N126 1.347 . S
C123 H128 0.931 . S
C124 N125 1.375 . S
C124 C127 1.350 . S
C124 H129 0.930 . S
N125 Co120 2.057 . S
N125 C123 1.316 . S
N125 C124 1.375 . S
N126 C123 1.347 . S
N126 C127 1.373 . S
C127 C124 1.350 . S
C127 N126 1.373 . S
C127 H148 0.931 . S
H128 C123 0.931 . S
H129 C124 0.930 . S
C130 O137 1.259 . S
C130 O138 1.258 . S
N131 Co122 2.057 . S
N131 C132 1.316 . S
N131 C133 1.375 . S
C132 N131 1.316 . S
C132 N134 1.347 . S
C132 H143 0.931 . S
C133 N131 1.375 . S
C133 C135 1.350 . S
C133 H142 0.930 . S
N134 C132 1.347 . S
N134 C135 1.373 . S
C135 C133 1.350 . S
C135 N134 1.373 . S
C135 H149 0.931 . S
C136 O139 1.256 . S
C136 O140 1.255 . S
O137 Co120 2.021 . S
O137 C130 1.259 . S
O138 Co122 2.117 . S
O138 C130 1.258 . S
O139 Co122 2.020 . S
O139 C136 1.256 . S
O140 Co120 2.062 . S
O140 C136 1.255 . S
O141 C121 1.259 . S
O141 Co122 2.021 . S
H142 C133 0.930 . S
H143 C132 0.931 . S
O144 Co120 2.117 . S
O144 C121 1.258 . S
O145 Co120 2.020 . S
O145 C147 1.256 . S
O146 Co122 2.062 . S
O146 C147 1.255 . S
C147 O145 1.256 . S
C147 O146 1.255 . S
H148 C127 0.931 . S
H149 C135 0.931 . S
Co150 N155 2.057 . S
Co150 O167 2.021 . S
Co150 O170 2.062 . S
Co150 O174 2.117 . S
Co150 O175 2.020 . S
C151 O171 1.259 . S
C151 O174 1.258 . S
Co152 N161 2.057 . S
Co152 O168 2.117 . S
Co152 O169 2.020 . S
Co152 O171 2.021 . S
Co152 O176 2.062 . S
C153 N155 1.316 . S
C153 N156 1.347 . S
C153 H158 0.931 . S
C154 N155 1.375 . S
C154 C157 1.350 . S
C154 H159 0.930 . S
N155 Co150 2.057 . S
N155 C153 1.316 . S
N155 C154 1.375 . S
N156 C153 1.347 . S
N156 C157 1.373 . S
C157 C154 1.350 . S
C157 N156 1.373 . S
C157 H178 0.931 . S
H158 C153 0.931 . S
H159 C154 0.930 . S
C160 O167 1.259 . S
C160 O168 1.258 . S
N161 Co152 2.057 . S
N161 C162 1.316 . S
N161 C163 1.375 . S
C162 N161 1.316 . S
C162 N164 1.347 . S
C162 H173 0.931 . S
C163 N161 1.375 . S
C163 C165 1.350 . S
C163 H172 0.930 . S
N164 C162 1.347 . S
N164 C165 1.373 . S
C165 C163 1.350 . S
C165 N164 1.373 . S
C165 H179 0.931 . S
C166 O169 1.256 . S
C166 O170 1.255 . S
O167 Co150 2.021 . S
O167 C160 1.259 . S
O168 Co152 2.117 . S
O168 C160 1.258 . S
O169 Co152 2.020 . S
O169 C166 1.256 . S
O170 Co150 2.062 . S
O170 C166 1.255 . S
O171 C151 1.259 . S
O171 Co152 2.021 . S
H172 C163 0.930 . S
H173 C162 0.931 . S
O174 Co150 2.117 . S
O174 C151 1.258 . S
O175 Co150 2.020 . S
O175 C177 1.256 . S
O176 Co152 2.062 . S
O176 C177 1.255 . S
C177 O175 1.256 . S
C177 O176 1.255 . S
H178 C157 0.931 . S
H179 C165 0.931 . S
Co180 N185 2.057 . S
Co180 O197 2.021 . S
Co180 O200 2.062 . S
Co180 O204 2.117 . S
Co180 O205 2.020 . S
C181 O201 1.259 . S
C181 O204 1.258 . S
Co182 N191 2.057 . S
Co182 O198 2.117 . S
Co182 O199 2.020 . S
Co182 O201 2.021 . S
Co182 O206 2.062 . S
C183 N185 1.316 . S
C183 N186 1.347 . S
C183 H188 0.931 . S
C184 N185 1.375 . S
C184 C187 1.350 . S
C184 H189 0.930 . S
N185 Co180 2.057 . S
N185 C183 1.316 . S
N185 C184 1.375 . S
N186 C183 1.347 . S
N186 C187 1.373 . S
C187 C184 1.350 . S
C187 N186 1.373 . S
C187 H208 0.931 . S
H188 C183 0.931 . S
H189 C184 0.930 . S
C190 O197 1.259 . S
C190 O198 1.258 . S
N191 Co182 2.057 . S
N191 C192 1.316 . S
N191 C193 1.375 . S
C192 N191 1.316 . S
C192 N194 1.347 . S
C192 H203 0.931 . S
C193 N191 1.375 . S
C193 C195 1.350 . S
C193 H202 0.930 . S
N194 C192 1.347 . S
N194 C195 1.373 . S
C195 C193 1.350 . S
C195 N194 1.373 . S
C195 H209 0.931 . S
C196 O199 1.256 . S
C196 O200 1.255 . S
O197 Co180 2.021 . S
O197 C190 1.259 . S
O198 Co182 2.117 . S
O198 C190 1.258 . S
O199 Co182 2.020 . S
O199 C196 1.256 . S
O200 Co180 2.062 . S
O200 C196 1.255 . S
O201 C181 1.259 . S
O201 Co182 2.021 . S
H202 C193 0.930 . S
H203 C192 0.931 . S
O204 Co180 2.117 . S
O204 C181 1.258 . S
O205 Co180 2.020 . S
O205 C207 1.256 . S
O206 Co182 2.062 . S
O206 C207 1.255 . S
C207 O205 1.256 . S
C207 O206 1.255 . S
H208 C187 0.931 . S
H209 C195 0.931 . S
Co210 N215 2.057 . S
Co210 O227 2.021 . S
Co210 O230 2.062 . S
Co210 O234 2.117 . S
Co210 O235 2.020 . S
C211 O231 1.259 . S
C211 O234 1.258 . S
Co212 N221 2.057 . S
Co212 O228 2.117 . S
Co212 O229 2.020 . S
Co212 O231 2.021 . S
Co212 O236 2.062 . S
C213 N215 1.316 . S
C213 N216 1.347 . S
C213 H218 0.931 . S
C214 N215 1.375 . S
C214 C217 1.350 . S
C214 H219 0.930 . S
N215 Co210 2.057 . S
N215 C213 1.316 . S
N215 C214 1.375 . S
N216 C213 1.347 . S
N216 C217 1.373 . S
C217 C214 1.350 . S
C217 N216 1.373 . S
C217 H238 0.931 . S
H218 C213 0.931 . S
H219 C214 0.930 . S
C220 O227 1.259 . S
C220 O228 1.258 . S
N221 Co212 2.057 . S
N221 C222 1.316 . S
N221 C223 1.375 . S
C222 N221 1.316 . S
C222 N224 1.347 . S
C222 H233 0.931 . S
C223 N221 1.375 . S
C223 C225 1.350 . S
C223 H232 0.930 . S
N224 C222 1.347 . S
N224 C225 1.373 . S
C225 C223 1.350 . S
C225 N224 1.373 . S
C225 H239 0.931 . S
C226 O229 1.256 . S
C226 O230 1.255 . S
O227 Co210 2.021 . S
O227 C220 1.259 . S
O228 Co212 2.117 . S
O228 C220 1.258 . S
O229 Co212 2.020 . S
O229 C226 1.256 . S
O230 Co210 2.062 . S
O230 C226 1.255 . S
O231 C211 1.259 . S
O231 Co212 2.021 . S
H232 C223 0.930 . S
H233 C222 0.931 . S
O234 Co210 2.117 . S
O234 C211 1.258 . S
O235 Co210 2.020 . S
O235 C237 1.256 . S
O236 Co212 2.062 . S
O236 C237 1.255 . S
C237 O235 1.256 . S
C237 O236 1.255 . S
H238 C217 0.931 . S
H239 C225 0.931 . S
Fe240 O241 1.888 . S
Fe240 O244 1.713 1_655 S
Fe240 O249 2.079 . S
Fe240 O254 1.933 1_655 S
Fe240 O260 2.079 . S
Fe240 O269 1.934 1_655 S
O241 Fe240 1.888 . S
O241 Fe243 1.715 1_545 S
Fe242 O244 1.886 . S
Fe242 O245 1.715 1_545 S
Fe242 O252 1.935 1_545 S
Fe242 O253 2.077 . S
Fe242 O259 1.935 1_545 S
Fe242 O268 2.077 . S
Fe243 O241 1.715 1_565 S
Fe243 O246 1.886 . S
Fe243 O250 1.935 1_565 S
Fe243 O255 2.077 . S
Fe243 O261 1.935 1_565 S
Fe243 O265 2.077 . S
O244 Fe240 1.713 1_455 S
O244 Fe242 1.886 . S
O245 Fe242 1.715 1_565 S
O245 Fe247 1.892 . S
O246 Fe243 1.886 . S
O246 Fe247 1.708 1_655 S
Fe247 O245 1.892 . S
Fe247 O246 1.708 1_455 S
Fe247 O251 2.083 . S
Fe247 O256 1.931 1_455 S
Fe247 O258 2.083 . S
Fe247 O266 1.930 1_455 S
C248 O260 1.381 . S
C248 O261 1.421 . S
O249 Fe240 2.079 . S
O249 C262 1.381 . S
O250 Fe243 1.935 1_545 S
O250 C262 1.421 . S
O251 Fe247 2.083 . S
O251 C267 1.381 . S
O252 Fe242 1.935 1_565 S
O252 C267 1.421 . S
O253 Fe242 2.077 . S
O253 C257 1.381 . S
O254 Fe240 1.933 1_455 S
O254 C257 1.421 . S
O255 Fe243 2.077 . S
O255 C263 1.381 . S
O256 Fe247 1.931 1_655 S
O256 C263 1.421 . S
C257 O253 1.381 . S
C257 O254 1.421 . S
O258 Fe247 2.083 . S
O258 C270 1.381 . S
O259 Fe242 1.935 1_565 S
O259 C270 1.421 . S
O260 Fe240 2.079 . S
O260 C248 1.381 . S
O261 Fe243 1.935 1_545 S
O261 C248 1.421 . S
C262 O249 1.381 . S
C262 O250 1.421 . S
C263 O255 1.381 . S
C263 O256 1.421 . S
C264 O265 1.381 . S
C264 O266 1.421 . S
O265 Fe243 2.077 . S
O265 C264 1.381 . S
O266 Fe247 1.930 1_655 S
O266 C264 1.421 . S
C267 O251 1.381 . S
C267 O252 1.421 . S
O268 Fe242 2.077 . S
O268 C271 1.381 . S
O269 Fe240 1.934 1_455 S
O269 C271 1.421 . S
C270 O258 1.381 . S
C270 O259 1.421 . S
C271 O268 1.381 . S
C271 O269 1.421 . S
Fe272 O273 1.886 1_556 S
Fe272 O276 1.715 . S
Fe272 O281 2.077 . S
Fe272 O286 1.935 . S
Fe272 O292 2.077 1_556 S
Fe272 O301 1.935 1_556 S
O273 Fe272 1.886 1_554 S
O273 Fe275 1.715 1_565 S
Fe274 O276 1.886 . S
Fe274 O277 1.715 1_566 S
Fe274 O284 1.935 1_565 S
Fe274 O285 2.077 . S
Fe274 O291 1.935 1_566 S
Fe274 O300 2.077 1_556 S
Fe275 O273 1.715 1_545 S
Fe275 O278 1.886 . S
Fe275 O282 1.935 1_544 S
Fe275 O287 2.077 1_554 S
Fe275 O293 1.935 1_545 S
Fe275 O297 2.077 . S
O276 Fe272 1.715 . S
O276 Fe274 1.886 . S
O277 Fe274 1.715 1_544 S
O277 Fe279 1.886 . S
O278 Fe275 1.886 . S
O278 Fe279 1.715 . S
Fe279 O277 1.886 . S
Fe279 O278 1.715 . S
Fe279 O283 2.077 1_554 S
Fe279 O288 1.935 1_554 S
Fe279 O290 2.077 . S
Fe279 O298 1.935 . S
C280 O292 1.381 . S
C280 O293 1.421 . S
O281 Fe272 2.077 . S
O281 C294 1.381 . S
O282 Fe275 1.935 1_566 S
O282 C294 1.421 . S
O283 Fe279 2.077 1_556 S
O283 C299 1.381 . S
O284 Fe274 1.935 1_545 S
O284 C299 1.421 . S
O285 Fe274 2.077 . S
O285 C289 1.381 . S
O286 Fe272 1.935 . S
O286 C289 1.421 . S
O287 Fe275 2.077 1_556 S
O287 C295 1.381 . S
O288 Fe279 1.935 1_556 S
O288 C295 1.421 . S
C289 O285 1.381 . S
C289 O286 1.421 . S
O290 Fe279 2.077 . S
O290 C302 1.381 . S
O291 Fe274 1.935 1_544 S
O291 C302 1.421 . S
O292 Fe272 2.077 1_554 S
O292 C280 1.381 . S
O293 Fe275 1.935 1_565 S
O293 C280 1.421 . S
C294 O281 1.381 . S
C294 O282 1.421 . S
C295 O287 1.381 . S
C295 O288 1.421 . S
C296 O297 1.381 . S
C296 O298 1.421 . S
O297 Fe275 2.077 . S
O297 C296 1.381 . S
O298 Fe279 1.935 . S
O298 C296 1.421 . S
C299 O283 1.381 . S
C299 O284 1.421 . S
O300 Fe274 2.077 1_554 S
O300 C303 1.381 . S
O301 Fe272 1.935 1_554 S
O301 C303 1.421 . S
C302 O290 1.381 . S
C302 O291 1.421 . S
C303 O300 1.381 . S
C303 O301 1.421 . S
Fe304 O305 1.887 1_554 S
Fe304 O308 1.713 1_655 S
Fe304 O313 2.079 1_554 S
Fe304 O318 1.934 1_654 S
Fe304 O324 2.079 . S
Fe304 O333 1.934 1_655 S
O305 Fe304 1.887 1_556 S
O305 Fe307 1.715 . S
Fe306 O308 1.886 . S
Fe306 O309 1.715 . S
Fe306 O316 1.935 1_554 S
Fe306 O317 2.077 1_554 S
Fe306 O323 1.935 . S
Fe306 O332 2.077 . S
Fe307 O305 1.715 . S
Fe307 O310 1.886 . S
Fe307 O314 1.935 . S
Fe307 O319 2.077 . S
Fe307 O325 1.935 1_556 S
Fe307 O329 2.077 1_556 S
O308 Fe304 1.713 1_455 S
O308 Fe306 1.886 . S
O309 Fe306 1.715 . S
O309 Fe311 1.892 1_554 S
O310 Fe307 1.886 . S
O310 Fe311 1.709 1_655 S
Fe311 O309 1.892 1_556 S
Fe311 O310 1.709 1_455 S
Fe311 O315 2.083 . S
Fe311 O320 1.931 1_455 S
Fe311 O322 2.082 1_556 S
Fe311 O330 1.930 1_456 S
C312 O324 1.381 . S
C312 O325 1.421 . S
O313 Fe304 2.079 1_556 S
O313 C326 1.381 . S
O314 Fe307 1.935 . S
O314 C326 1.421 . S
O315 Fe311 2.083 . S
O315 C331 1.381 . S
O316 Fe306 1.935 1_556 S
O316 C331 1.421 . S
O317 Fe306 2.077 1_556 S
O317 C321 1.381 . S
O318 Fe304 1.934 1_456 S
O318 C321 1.421 . S
O319 Fe307 2.077 . S
O319 C327 1.381 . S
O320 Fe311 1.931 1_655 S
O320 C327 1.421 . S
C321 O317 1.381 . S
C321 O318 1.421 . S
O322 Fe311 2.082 1_554 S
O322 C334 1.381 . S
O323 Fe306 1.935 . S
O323 C334 1.421 . S
O324 Fe304 2.079 . S
O324 C312 1.381 . S
O325 Fe307 1.935 1_554 S
O325 C312 1.421 . S
C326 O313 1.381 . S
C326 O314 1.421 . S
C327 O319 1.381 . S
C327 O320 1.421 . S
C328 O329 1.381 . S
C328 O330 1.421 . S
O329 Fe307 2.077 1_554 S
O329 C328 1.381 . S
O330 Fe311 1.930 1_654 S
O330 C328 1.421 . S
C331 O315 1.381 . S
C331 O316 1.421 . S
O332 Fe306 2.077 . S
O332 C335 1.381 . S
O333 Fe304 1.934 1_455 S
O333 C335 1.421 . S
C334 O322 1.381 . S
C334 O323 1.421 . S
C335 O332 1.381 . S
C335 O333 1.421 . S
Fe336 O337 1.886 . S
Fe336 O340 1.715 . S
Fe336 O345 2.077 . S
Fe336 O350 1.935 . S
Fe336 O356 2.077 . S
Fe336 O365 1.935 . S
O337 Fe336 1.886 . S
O337 Fe339 1.715 1_556 S
Fe338 O340 1.886 . S
Fe338 O341 1.715 1_556 S
Fe338 O348 1.935 1_556 S
Fe338 O349 2.077 . S
Fe338 O355 1.935 1_556 S
Fe338 O364 2.077 . S
Fe339 O337 1.715 1_554 S
Fe339 O342 1.886 . S
Fe339 O346 1.935 1_554 S
Fe339 O351 2.077 . S
Fe339 O357 1.935 1_554 S
Fe339 O361 2.077 . S
O340 Fe336 1.715 . S
O340 Fe338 1.886 . S
O341 Fe338 1.715 1_554 S
O341 Fe343 1.886 . S
O342 Fe339 1.886 . S
O342 Fe343 1.715 . S
Fe343 O341 1.886 . S
Fe343 O342 1.715 . S
Fe343 O347 2.077 . S
Fe343 O352 1.935 . S
Fe343 O354 2.077 . S
Fe343 O362 1.935 . S
C344 O356 1.381 . S
C344 O357 1.421 . S
O345 Fe336 2.077 . S
O345 C358 1.381 . S
O346 Fe339 1.935 1_556 S
O346 C358 1.421 . S
O347 Fe343 2.077 . S
O347 C363 1.381 . S
O348 Fe338 1.935 1_554 S
O348 C363 1.421 . S
O349 Fe338 2.077 . S
O349 C353 1.381 . S
O350 Fe336 1.935 . S
O350 C353 1.421 . S
O351 Fe339 2.077 . S
O351 C359 1.381 . S
O352 Fe343 1.935 . S
O352 C359 1.421 . S
C353 O349 1.381 . S
C353 O350 1.421 . S
O354 Fe343 2.077 . S
O354 C366 1.381 . S
O355 Fe338 1.935 1_554 S
O355 C366 1.421 . S
O356 Fe336 2.077 . S
O356 C344 1.381 . S
O357 Fe339 1.935 1_556 S
O357 C344 1.421 . S
C358 O345 1.381 . S
C358 O346 1.421 . S
C359 O351 1.381 . S
C359 O352 1.421 . S
C360 O361 1.381 . S
C360 O362 1.421 . S
O361 Fe339 2.077 . S
O361 C360 1.381 . S
O362 Fe343 1.935 . S
O362 C360 1.421 . S
C363 O347 1.381 . S
C363 O348 1.421 . S
O364 Fe338 2.077 . S
O364 C367 1.381 . S
O365 Fe336 1.935 . S
O365 C367 1.421 . S
C366 O354 1.381 . S
C366 O355 1.421 . S
C367 O364 1.381 . S
C367 O365 1.421 . S
Fe368 O369 1.886 1_655 S
Fe368 O372 1.715 . S
Fe368 O377 2.066 1_655 S
Fe368 O382 1.921 1_655 S
Fe368 O388 2.089 . S
Fe368 O397 1.948 . S
O369 Fe368 1.886 1_455 S
O369 Fe371 1.715 . S
Fe370 O372 1.886 . S
Fe370 O373 1.715 . S
Fe370 O380 1.935 1_655 S
Fe370 O381 2.077 1_655 S
Fe370 O387 1.935 . S
Fe370 O396 2.077 . S
Fe371 O369 1.715 . S
Fe371 O374 1.886 . S
Fe371 O378 1.935 . S
Fe371 O383 2.077 . S
Fe371 O389 1.935 1_455 S
Fe371 O393 2.077 1_455 S
O372 Fe368 1.715 . S
O372 Fe370 1.886 . S
O373 Fe370 1.715 . S
O373 Fe375 1.887 1_655 S
O374 Fe371 1.886 . S
O374 Fe375 1.715 . S
Fe375 O373 1.887 1_455 S
Fe375 O374 1.715 . S
Fe375 O379 2.093 . S
Fe375 O384 1.953 . S
Fe375 O386 2.062 1_455 S
Fe375 O394 1.916 1_455 S
C376 O388 1.381 . S
C376 O389 1.421 . S
O377 Fe368 2.066 1_455 S
O377 C390 1.381 . S
O378 Fe371 1.935 . S
O378 C390 1.421 . S
O379 Fe375 2.093 . S
O379 C395 1.381 . S
O380 Fe370 1.935 1_455 S
O380 C395 1.421 . S
O381 Fe370 2.077 1_455 S
O381 C385 1.381 . S
O382 Fe368 1.921 1_455 S
O382 C385 1.421 . S
O383 Fe371 2.077 . S
O383 C391 1.381 . S
O384 Fe375 1.953 . S
O384 C391 1.421 . S
C385 O381 1.381 . S
C385 O382 1.421 . S
O386 Fe375 2.062 1_655 S
O386 C398 1.381 . S
O387 Fe370 1.935 . S
O387 C398 1.421 . S
O388 Fe368 2.089 . S
O388 C376 1.381 . S
O389 Fe371 1.935 1_655 S
O389 C376 1.421 . S
C390 O377 1.381 . S
C390 O378 1.421 . S
C391 O383 1.381 . S
C391 O384 1.421 . S
C392 O393 1.381 . S
C392 O394 1.421 . S
O393 Fe371 2.077 1_655 S
O393 C392 1.381 . S
O394 Fe375 1.916 1_655 S
O394 C392 1.421 . S
C395 O379 1.381 . S
C395 O380 1.421 . S
O396 Fe370 2.077 . S
O396 C399 1.381 . S
O397 Fe368 1.948 . S
O397 C399 1.421 . S
C398 O386 1.381 . S
C398 O387 1.421 . S
C399 O396 1.381 . S
C399 O397 1.421 . S
Fe400 O401 1.886 . S
Fe400 O404 1.715 . S
Fe400 O409 2.077 . S
Fe400 O414 1.935 . S
Fe400 O420 2.077 . S
Fe400 O429 1.935 . S
O401 Fe400 1.886 . S
O401 Fe403 1.715 1_565 S
Fe402 O404 1.886 . S
Fe402 O405 1.715 1_565 S
Fe402 O412 1.935 1_565 S
Fe402 O413 2.077 . S
Fe402 O419 1.935 1_565 S
Fe402 O428 2.077 . S
Fe403 O401 1.715 1_545 S
Fe403 O406 1.886 . S
Fe403 O410 1.935 1_545 S
Fe403 O415 2.077 . S
Fe403 O421 1.935 1_545 S
Fe403 O425 2.077 . S
O404 Fe400 1.715 . S
O404 Fe402 1.886 . S
O405 Fe402 1.715 1_545 S
O405 Fe407 1.886 . S
O406 Fe403 1.886 . S
O406 Fe407 1.715 . S
Fe407 O405 1.886 . S
Fe407 O406 1.715 . S
Fe407 O411 2.077 . S
Fe407 O416 1.935 . S
Fe407 O418 2.077 . S
Fe407 O426 1.935 . S
C408 O420 1.381 . S
C408 O421 1.421 . S
O409 Fe400 2.077 . S
O409 C422 1.381 . S
O410 Fe403 1.935 1_565 S
O410 C422 1.421 . S
O411 Fe407 2.077 . S
O411 C427 1.381 . S
O412 Fe402 1.935 1_545 S
O412 C427 1.421 . S
O413 Fe402 2.077 . S
O413 C417 1.381 . S
O414 Fe400 1.935 . S
O414 C417 1.421 . S
O415 Fe403 2.077 . S
O415 C423 1.381 . S
O416 Fe407 1.935 . S
O416 C423 1.421 . S
C417 O413 1.381 . S
C417 O414 1.421 . S
O418 Fe407 2.077 . S
O418 C430 1.381 . S
O419 Fe402 1.935 1_545 S
O419 C430 1.421 . S
O420 Fe400 2.077 . S
O420 C408 1.381 . S
O421 Fe403 1.935 1_565 S
O421 C408 1.421 . S
C422 O409 1.381 . S
C422 O410 1.421 . S
C423 O415 1.381 . S
C423 O416 1.421 . S
C424 O425 1.381 . S
C424 O426 1.421 . S
O425 Fe403 2.077 . S
O425 C424 1.381 . S
O426 Fe407 1.935 . S
O426 C424 1.421 . S
C427 O411 1.381 . S
C427 O412 1.421 . S
O428 Fe402 2.077 . S
O428 C431 1.381 . S
O429 Fe400 1.935 . S
O429 C431 1.421 . S
C430 O418 1.381 . S
C430 O419 1.421 . S
C431 O428 1.381 . S
C431 O429 1.421 . S
C432 C433 1.363 . S
C432 C438 1.379 . S
C432 N440 1.356 . S
C433 C432 1.363 . S
C433 C439 1.363 . S
C434 C435 1.363 . S
C434 C439 1.379 . S
C434 N441 1.356 . S
C435 C434 1.363 . S
C435 C438 1.363 . S
N436 C438 1.356 . S
N436 H448 0.984 1_455 S
N436 H449 0.985 . S
N437 C439 1.356 . S
N437 H442 0.984 . S
N437 H443 0.985 . S
C438 C432 1.379 . S
C438 C435 1.363 . S
C438 N436 1.356 . S
C439 C433 1.363 . S
C439 C434 1.379 . S
C439 N437 1.356 . S
N440 C432 1.356 . S
N440 H446 0.984 . S
N440 H447 0.984 . S
N441 C434 1.356 . S
N441 H444 0.984 . S
N441 H445 0.985 . S
H442 N437 0.984 . S
H443 N437 0.985 . S
H444 N441 0.984 . S
H445 N441 0.985 . S
H446 N440 0.984 . S
H447 N440 0.984 . S
H448 N436 0.984 1_655 S
H449 N436 0.985 . S
C450 C451 1.363 . S
C450 C456 1.379 . S
C450 N458 1.356 . S
C451 C450 1.363 . S
C451 C457 1.363 . S
C452 C453 1.363 . S
C452 C457 1.379 . S
C452 N459 1.356 . S
C453 C452 1.363 . S
C453 C456 1.363 . S
N454 C456 1.356 . S
N454 H466 0.984 . S
N454 H467 0.985 . S
N455 C457 1.356 . S
N455 H460 0.984 . S
N455 H461 0.985 . S
C456 C450 1.379 . S
C456 C453 1.363 . S
C456 N454 1.356 . S
C457 C451 1.363 . S
C457 C452 1.379 . S
C457 N455 1.356 . S
N458 C450 1.356 . S
N458 H464 0.984 . S
N458 H465 0.984 . S
N459 C452 1.356 . S
N459 H462 0.984 . S
N459 H463 0.985 . S
H460 N455 0.984 . S
H461 N455 0.985 . S
H462 N459 0.984 . S
H463 N459 0.985 . S
H464 N458 0.984 . S
H465 N458 0.984 . S
H466 N454 0.984 . S
H467 N454 0.985 . S
C468 C469 1.363 . S
C468 C474 1.379 . S
C468 N476 1.356 . S
C469 C468 1.363 . S
C469 C475 1.363 . S
C470 C471 1.363 . S
C470 C475 1.379 . S
C470 N477 1.356 . S
C471 C470 1.363 . S
C471 C474 1.363 . S
N472 C474 1.356 . S
N472 H484 0.984 . S
N472 H485 0.985 . S
N473 C475 1.356 . S
N473 H478 0.984 . S
N473 H479 0.985 . S
C474 C468 1.379 . S
C474 C471 1.363 . S
C474 N472 1.356 . S
C475 C469 1.363 . S
C475 C470 1.379 . S
C475 N473 1.356 . S
N476 C468 1.356 . S
N476 H482 0.984 . S
N476 H483 0.984 . S
N477 C470 1.356 . S
N477 H480 0.984 . S
N477 H481 0.985 . S
H478 N473 0.984 . S
H479 N473 0.985 . S
H480 N477 0.984 . S
H481 N477 0.985 . S
H482 N476 0.984 . S
H483 N476 0.984 . S
H484 N472 0.984 . S
H485 N472 0.985 . S
C486 C487 1.363 . S
C486 C492 1.379 . S
C486 N494 1.356 . S
C487 C486 1.363 . S
C487 C493 1.363 . S
C488 C489 1.363 . S
C488 C493 1.379 . S
C488 N495 1.356 . S
C489 C488 1.363 . S
C489 C492 1.363 . S
N490 C492 1.356 . S
N490 H502 0.984 . S
N490 H503 0.985 . S
N491 C493 1.356 . S
N491 H496 0.984 . S
N491 H497 0.985 . S
C492 C486 1.379 . S
C492 C489 1.363 . S
C492 N490 1.356 . S
C493 C487 1.363 . S
C493 C488 1.379 . S
C493 N491 1.356 . S
N494 C486 1.356 . S
N494 H500 0.984 . S
N494 H501 0.984 . S
N495 C488 1.356 . S
N495 H498 0.984 . S
N495 H499 0.985 . S
H496 N491 0.984 . S
H497 N491 0.985 . S
H498 N495 0.984 . S
H499 N495 0.985 . S
H500 N494 0.984 . S
H501 N494 0.984 . S
H502 N490 0.984 . S
H503 N490 0.985 . S
C504 C505 1.363 . S
C504 C510 1.379 . S
C504 N512 1.356 . S
C505 C504 1.363 . S
C505 C511 1.363 . S
C506 C507 1.363 . S
C506 C511 1.379 . S
C506 N513 1.356 . S
C507 C506 1.363 . S
C507 C510 1.363 . S
N508 C510 1.356 . S
N508 H520 0.984 . S
N508 H521 0.985 . S
N509 C511 1.356 . S
N509 H514 0.984 . S
N509 H515 0.985 . S
C510 C504 1.379 . S
C510 C507 1.363 . S
C510 N508 1.356 . S
C511 C505 1.363 . S
C511 C506 1.379 . S
C511 N509 1.356 . S
N512 C504 1.356 . S
N512 H518 0.984 . S
N512 H519 0.984 . S
N513 C506 1.356 . S
N513 H516 0.984 . S
N513 H517 0.985 . S
H514 N509 0.984 . S
H515 N509 0.985 . S
H516 N513 0.984 . S
H517 N513 0.985 . S
H518 N512 0.984 . S
H519 N512 0.984 . S
H520 N508 0.984 . S
H521 N508 0.985 . S
C522 C523 1.363 . S
C522 C528 1.379 . S
C522 N530 1.356 . S
C523 C522 1.363 . S
C523 C529 1.363 . S
C524 C525 1.363 . S
C524 C529 1.379 . S
C524 N531 1.356 . S
C525 C524 1.363 . S
C525 C528 1.363 . S
N526 C528 1.356 . S
N526 H538 0.984 . S
N526 H539 0.985 . S
N527 C529 1.356 . S
N527 H532 0.984 . S
N527 H533 0.985 . S
C528 C522 1.379 . S
C528 C525 1.363 . S
C528 N526 1.356 . S
C529 C523 1.363 . S
C529 C524 1.379 . S
C529 N527 1.356 . S
N530 C522 1.356 . S
N530 H536 0.984 . S
N530 H537 0.984 . S
N531 C524 1.356 . S
N531 H534 0.984 . S
N531 H535 0.985 . S
H532 N527 0.984 . S
H533 N527 0.985 . S
H534 N531 0.984 . S
H535 N531 0.985 . S
H536 N530 0.984 . S
H537 N530 0.984 . S
H538 N526 0.984 . S
H539 N526 0.985 . S
C540 C541 1.363 . S
C540 C546 1.379 . S
C540 N548 1.356 . S
C541 C540 1.363 . S
C541 C547 1.363 . S
C542 C543 1.363 . S
C542 C547 1.379 . S
C542 N549 1.356 . S
C543 C542 1.363 . S
C543 C546 1.363 . S
N544 C546 1.356 . S
N544 H556 0.984 . S
N544 H557 0.985 . S
N545 C547 1.356 . S
N545 H550 0.984 . S
N545 H551 0.985 . S
C546 C540 1.379 . S
C546 C543 1.363 . S
C546 N544 1.356 . S
C547 C541 1.363 . S
C547 C542 1.379 . S
C547 N545 1.356 . S
N548 C540 1.356 . S
N548 H554 0.984 . S
N548 H555 0.984 . S
N549 C542 1.356 . S
N549 H552 0.984 . S
N549 H553 0.985 . S
H550 N545 0.984 . S
H551 N545 0.985 . S
H552 N549 0.984 . S
H553 N549 0.985 . S
H554 N548 0.984 . S
H555 N548 0.984 . S
H556 N544 0.984 . S
H557 N544 0.985 . S
C558 C559 1.363 . S
C558 C564 1.379 . S
C558 N566 1.356 . S
C559 C558 1.363 . S
C559 C565 1.363 . S
C560 C561 1.363 . S
C560 C565 1.379 . S
C560 N567 1.356 . S
C561 C560 1.363 . S
C561 C564 1.363 . S
N562 C564 1.356 . S
N562 H574 0.984 . S
N562 H575 0.985 . S
N563 C565 1.356 . S
N563 H568 0.984 . S
N563 H569 0.985 . S
C564 C558 1.379 . S
C564 C561 1.363 . S
C564 N562 1.356 . S
C565 C559 1.363 . S
C565 C560 1.379 . S
C565 N563 1.356 . S
N566 C558 1.356 . S
N566 H572 0.984 . S
N566 H573 0.984 . S
N567 C560 1.356 . S
N567 H570 0.984 . S
N567 H571 0.985 . S
H568 N563 0.984 . S
H569 N563 0.985 . S
H570 N567 0.984 . S
H571 N567 0.985 . S
H572 N566 0.984 . S
H573 N566 0.984 . S
H574 N562 0.984 . S
H575 N562 0.985 . S
C576 C577 1.363 . S
C576 C582 1.379 . S
C576 N584 1.356 . S
C577 C576 1.363 . S
C577 C583 1.363 . S
C578 C579 1.363 . S
C578 C583 1.379 . S
C578 N585 1.356 . S
C579 C578 1.363 . S
C579 C582 1.363 . S
N580 C582 1.356 . S
N580 H592 0.984 . S
N580 H593 0.985 . S
N581 C583 1.356 . S
N581 H586 0.984 . S
N581 H587 0.985 . S
C582 C576 1.379 . S
C582 C579 1.363 . S
C582 N580 1.356 . S
C583 C577 1.363 . S
C583 C578 1.379 . S
C583 N581 1.356 . S
N584 C576 1.356 . S
N584 H590 0.984 . S
N584 H591 0.984 . S
N585 C578 1.356 . S
N585 H588 0.984 . S
N585 H589 0.985 . S
H586 N581 0.984 . S
H587 N581 0.985 . S
H588 N585 0.984 . S
H589 N585 0.985 . S
H590 N584 0.984 . S
H591 N584 0.984 . S
H592 N580 0.984 . S
H593 N580 0.985 . S
C594 C595 1.363 . S
C594 C600 1.379 . S
C594 N602 1.356 . S
C595 C594 1.363 . S
C595 C601 1.363 . S
C596 C597 1.363 . S
C596 C601 1.379 . S
C596 N603 1.356 . S
C597 C596 1.363 . S
C597 C600 1.363 . S
N598 C600 1.356 . S
N598 H610 0.984 . S
N598 H611 0.985 . S
N599 C601 1.356 . S
N599 H604 0.984 . S
N599 H605 0.985 . S
C600 C594 1.379 . S
C600 C597 1.363 . S
C600 N598 1.356 . S
C601 C595 1.363 . S
C601 C596 1.379 . S
C601 N599 1.356 . S
N602 C594 1.356 . S
N602 H608 0.984 . S
N602 H609 0.984 . S
N603 C596 1.356 . S
N603 H606 0.984 . S
N603 H607 0.985 . S
H604 N599 0.984 . S
H605 N599 0.985 . S
H606 N603 0.984 . S
H607 N603 0.985 . S
H608 N602 0.984 . S
H609 N602 0.984 . S
H610 N598 0.984 . S
H611 N598 0.985 . S
C612 C613 1.363 . S
C612 C618 1.379 . S
C612 N620 1.356 . S
C613 C612 1.363 . S
C613 C619 1.363 . S
C614 C615 1.363 . S
C614 C619 1.379 . S
C614 N621 1.356 . S
C615 C614 1.363 . S
C615 C618 1.363 . S
N616 C618 1.356 . S
N616 H628 0.984 . S
N616 H629 0.985 . S
N617 C619 1.356 . S
N617 H622 0.984 . S
N617 H623 0.985 . S
C618 C612 1.379 . S
C618 C615 1.363 . S
C618 N616 1.356 . S
C619 C613 1.363 . S
C619 C614 1.379 . S
C619 N617 1.356 . S
N620 C612 1.356 . S
N620 H626 0.984 . S
N620 H627 0.984 . S
N621 C614 1.356 . S
N621 H624 0.984 . S
N621 H625 0.985 1_554 S
H622 N617 0.984 . S
H623 N617 0.985 . S
H624 N621 0.984 . S
H625 N621 0.985 1_556 S
H626 N620 0.984 . S
H627 N620 0.984 . S
H628 N616 0.984 . S
H629 N616 0.985 . S
C630 C631 1.363 . S
C630 C636 1.379 . S
C630 N638 1.356 . S
C631 C630 1.363 . S
C631 C637 1.363 . S
C632 C633 1.363 . S
C632 C637 1.379 . S
C632 N639 1.356 . S
C633 C632 1.363 . S
C633 C636 1.363 . S
N634 C636 1.356 . S
N634 H646 0.984 . S
N634 H647 0.985 . S
N635 C637 1.356 . S
N635 H640 0.984 . S
N635 H641 0.985 . S
C636 C630 1.379 . S
C636 C633 1.363 . S
C636 N634 1.356 . S
C637 C631 1.363 . S
C637 C632 1.379 . S
C637 N635 1.356 . S
N638 C630 1.356 . S
N638 H644 0.984 . S
N638 H645 0.984 . S
N639 C632 1.356 . S
N639 H642 0.984 . S
N639 H643 0.985 . S
H640 N635 0.984 . S
H641 N635 0.985 . S
H642 N639 0.984 . S
H643 N639 0.985 . S
H644 N638 0.984 . S
H645 N638 0.984 . S
H646 N634 0.984 . S
H647 N634 0.985 . S
C648 C649 1.363 . S
C648 C654 1.379 . S
C648 N656 1.356 . S
C649 C648 1.363 . S
C649 C655 1.363 . S
C650 C651 1.363 . S
C650 C655 1.379 . S
C650 N657 1.356 . S
C651 C650 1.363 . S
C651 C654 1.363 . S
N652 C654 1.356 . S
N652 H664 0.984 . S
N652 H665 0.985 . S
N653 C655 1.356 . S
N653 H658 0.984 . S
N653 H659 0.985 . S
C654 C648 1.379 . S
C654 C651 1.363 . S
C654 N652 1.356 . S
C655 C649 1.363 . S
C655 C650 1.379 . S
C655 N653 1.356 . S
N656 C648 1.356 . S
N656 H662 0.984 . S
N656 H663 0.984 . S
N657 C650 1.356 . S
N657 H660 0.984 . S
N657 H661 0.985 . S
H658 N653 0.984 . S
H659 N653 0.985 . S
H660 N657 0.984 . S
H661 N657 0.985 . S
H662 N656 0.984 . S
H663 N656 0.984 . S
H664 N652 0.984 . S
H665 N652 0.985 . S
C666 C667 1.363 . S
C666 C672 1.379 . S
C666 N674 1.356 . S
C667 C666 1.363 . S
C667 C673 1.363 . S
C668 C669 1.363 . S
C668 C673 1.379 . S
C668 N675 1.356 . S
C669 C668 1.363 . S
C669 C672 1.363 . S
N670 C672 1.356 . S
N670 H682 0.984 . S
N670 H683 0.985 . S
N671 C673 1.356 . S
N671 H676 0.984 . S
N671 H677 0.985 . S
C672 C666 1.379 . S
C672 C669 1.363 . S
C672 N670 1.356 . S
C673 C667 1.363 . S
C673 C668 1.379 . S
C673 N671 1.356 . S
N674 C666 1.356 . S
N674 H680 0.984 . S
N674 H681 0.984 . S
N675 C668 1.356 . S
N675 H678 0.984 . S
N675 H679 0.985 . S
H676 N671 0.984 . S
H677 N671 0.985 . S
H678 N675 0.984 . S
H679 N675 0.985 . S
H680 N674 0.984 . S
H681 N674 0.984 . S
H682 N670 0.984 . S
H683 N670 0.985 . S
C684 C685 1.363 . S
C684 C690 1.379 . S
C684 N692 1.356 . S
C685 C684 1.363 . S
C685 C691 1.363 . S
C686 C687 1.363 . S
C686 C691 1.379 . S
C686 N693 1.356 . S
C687 C686 1.363 . S
C687 C690 1.363 . S
N688 C690 1.356 . S
N688 H700 0.984 . S
N688 H701 0.985 . S
N689 C691 1.356 . S
N689 H694 0.984 . S
N689 H695 0.985 . S
C690 C684 1.379 . S
C690 C687 1.363 . S
C690 N688 1.356 . S
C691 C685 1.363 . S
C691 C686 1.379 . S
C691 N689 1.356 . S
N692 C684 1.356 . S
N692 H698 0.984 . S
N692 H699 0.984 . S
N693 C686 1.356 . S
N693 H696 0.984 . S
N693 H697 0.985 . S
H694 N689 0.984 . S
H695 N689 0.985 . S
H696 N693 0.984 . S
H697 N693 0.985 . S
H698 N692 0.984 . S
H699 N692 0.984 . S
H700 N688 0.984 . S
H701 N688 0.985 . S
C702 C703 1.363 . S
C702 C708 1.379 . S
C702 N710 1.356 . S
C703 C702 1.363 . S
C703 C709 1.363 . S
C704 C705 1.363 . S
C704 C709 1.379 . S
C704 N711 1.356 . S
C705 C704 1.363 . S
C705 C708 1.363 . S
N706 C708 1.356 . S
N706 H718 0.984 . S
N706 H719 0.985 . S
N707 C709 1.356 . S
N707 H712 0.984 . S
N707 H713 0.985 . S
C708 C702 1.379 . S
C708 C705 1.363 . S
C708 N706 1.356 . S
C709 C703 1.363 . S
C709 C704 1.379 . S
C709 N707 1.356 . S
N710 C702 1.356 . S
N710 H716 0.984 . S
N710 H717 0.984 . S
N711 C704 1.356 . S
N711 H714 0.984 . S
N711 H715 0.985 . S
H712 N707 0.984 . S
H713 N707 0.985 . S
H714 N711 0.984 . S
H715 N711 0.985 . S
H716 N710 0.984 . S
H717 N710 0.984 . S
H718 N706 0.984 . S
H719 N706 0.985 . S
C720 C721 1.363 . S
C720 C726 1.379 . S
C720 N728 1.356 . S
C721 C720 1.363 . S
C721 C727 1.363 . S
C722 C723 1.363 . S
C722 C727 1.379 . S
C722 N729 1.356 . S
C723 C722 1.363 . S
C723 C726 1.363 . S
N724 C726 1.356 . S
N724 H736 0.984 . S
N724 H737 0.985 . S
N725 C727 1.356 . S
N725 H730 0.984 . S
N725 H731 0.985 . S
C726 C720 1.379 . S
C726 C723 1.363 . S
C726 N724 1.356 . S
C727 C721 1.363 . S
C727 C722 1.379 . S
C727 N725 1.356 . S
N728 C720 1.356 . S
N728 H734 0.984 . S
N728 H735 0.984 . S
N729 C722 1.356 . S
N729 H732 0.984 . S
N729 H733 0.985 . S
H730 N725 0.984 . S
H731 N725 0.985 . S
H732 N729 0.984 . S
H733 N729 0.985 . S
H734 N728 0.984 . S
H735 N728 0.984 . S
H736 N724 0.984 . S
H737 N724 0.985 . S
C738 C739 1.363 . S
C738 C744 1.379 . S
C738 N746 1.356 . S
C739 C738 1.363 . S
C739 C745 1.363 . S
C740 C741 1.363 . S
C740 C745 1.379 . S
C740 N747 1.356 . S
C741 C740 1.363 . S
C741 C744 1.363 . S
N742 C744 1.356 . S
N742 H754 0.994 . S
N742 H755 0.985 . S
N743 C745 1.356 . S
N743 H748 0.984 . S
N743 H749 0.985 . S
C744 C738 1.379 . S
C744 C741 1.363 . S
C744 N742 1.356 . S
C745 C739 1.363 . S
C745 C740 1.379 . S
C745 N743 1.356 . S
N746 C738 1.356 . S
N746 H752 0.984 . S
N746 H753 0.984 . S
N747 C740 1.356 . S
N747 H750 0.984 . S
N747 H751 0.985 . S
H748 N743 0.984 . S
H749 N743 0.985 . S
H750 N747 0.984 . S
H751 N747 0.985 . S
H752 N746 0.984 . S
H753 N746 0.984 . S
H754 N742 0.994 . S
H755 N742 0.985 . S
C756 C757 1.363 . S
C756 C762 1.379 . S
C756 N764 1.356 . S
C757 C756 1.363 . S
C757 C763 1.363 . S
C758 C759 1.363 . S
C758 C763 1.379 . S
C758 N765 1.356 . S
C759 C758 1.363 . S
C759 C762 1.363 . S
N760 C762 1.356 . S
N760 H772 0.984 . S
N760 H773 0.985 . S
N761 C763 1.356 . S
N761 H766 0.984 . S
N761 H767 0.985 . S
C762 C756 1.379 . S
C762 C759 1.363 . S
C762 N760 1.356 . S
C763 C757 1.363 . S
C763 C758 1.379 . S
C763 N761 1.356 . S
N764 C756 1.356 . S
N764 H770 0.984 . S
N764 H771 0.984 . S
N765 C758 1.356 . S
N765 H768 0.984 . S
N765 H769 0.985 . S
H766 N761 0.984 . S
H767 N761 0.985 . S
H768 N765 0.984 . S
H769 N765 0.985 . S
H770 N764 0.984 . S
H771 N764 0.984 . S
H772 N760 0.984 . S
H773 N760 0.985 . S
C774 C775 1.363 . S
C774 C780 1.379 . S
C774 N782 1.356 . S
C775 C774 1.363 . S
C775 C781 1.363 . S
C776 C777 1.363 . S
C776 C781 1.379 . S
C776 N783 1.356 . S
C777 C776 1.363 . S
C777 C780 1.363 . S
N778 C780 1.356 . S
N778 H790 0.984 . S
N778 H791 0.985 . S
N779 C781 1.356 . S
N779 H784 0.984 . S
N779 H785 0.985 . S
C780 C774 1.379 . S
C780 C777 1.363 . S
C780 N778 1.356 . S
C781 C775 1.363 . S
C781 C776 1.379 . S
C781 N779 1.356 . S
N782 C774 1.356 . S
N782 H788 0.984 . S
N782 H789 0.984 . S
N783 C776 1.356 . S
N783 H786 0.984 . S
N783 H787 0.985 . S
H784 N779 0.984 . S
H785 N779 0.985 . S
H786 N783 0.984 . S
H787 N783 0.985 . S
H788 N782 0.984 . S
H789 N782 0.984 . S
H790 N778 0.984 . S
H791 N778 0.985 . S
C792 C793 1.363 . S
C792 C798 1.379 . S
C792 N800 1.356 . S
C793 C792 1.363 . S
C793 C799 1.363 . S
C794 C795 1.363 . S
C794 C799 1.379 . S
C794 N801 1.356 . S
C795 C794 1.363 . S
C795 C798 1.363 . S
N796 C798 1.356 . S
N796 H808 0.984 . S
N796 H809 0.985 . S
N797 C799 1.356 . S
N797 H802 0.984 . S
N797 H803 0.985 . S
C798 C792 1.379 . S
C798 C795 1.363 . S
C798 N796 1.356 . S
C799 C793 1.363 . S
C799 C794 1.379 . S
C799 N797 1.356 . S
N800 C792 1.356 . S
N800 H806 0.984 . S
N800 H807 0.984 . S
N801 C794 1.356 . S
N801 H804 0.984 . S
N801 H805 0.985 . S
H802 N797 0.984 . S
H803 N797 0.985 . S
H804 N801 0.984 . S
H805 N801 0.985 . S
H806 N800 0.984 . S
H807 N800 0.984 . S
H808 N796 0.984 . S
H809 N796 0.985 . S
C810 C811 1.363 . S
C810 C816 1.379 . S
C810 N818 1.356 . S
C811 C810 1.363 . S
C811 C817 1.363 . S
C812 C813 1.363 . S
C812 C817 1.379 . S
C812 N819 1.356 . S
C813 C812 1.363 . S
C813 C816 1.363 . S
N814 C816 1.356 . S
N814 H826 0.984 . S
N814 H827 0.985 . S
N815 C817 1.356 . S
N815 H820 0.984 . S
N815 H821 0.985 . S
C816 C810 1.379 . S
C816 C813 1.363 . S
C816 N814 1.356 . S
C817 C811 1.363 . S
C817 C812 1.379 . S
C817 N815 1.356 . S
N818 C810 1.356 . S
N818 H824 0.984 . S
N818 H825 0.984 . S
N819 C812 1.356 . S
N819 H822 0.984 . S
N819 H823 0.985 . S
H820 N815 0.984 . S
H821 N815 0.985 . S
H822 N819 0.984 . S
H823 N819 0.985 . S
H824 N818 0.984 . S
H825 N818 0.984 . S
H826 N814 0.984 . S
H827 N814 0.985 . S
C828 C829 1.363 . S
C828 C834 1.379 . S
C828 N836 1.356 . S
C829 C828 1.363 . S
C829 C835 1.363 . S
C830 C831 1.363 . S
C830 C835 1.379 . S
C830 N837 1.356 . S
C831 C830 1.363 . S
C831 C834 1.363 . S
N832 C834 1.356 . S
N832 H844 0.984 . S
N832 H845 0.985 . S
N833 C835 1.356 . S
N833 H838 0.984 . S
N833 H839 0.985 . S
C834 C828 1.379 . S
C834 C831 1.363 . S
C834 N832 1.356 . S
C835 C829 1.363 . S
C835 C830 1.379 . S
C835 N833 1.356 . S
N836 C828 1.356 . S
N836 H842 0.984 . S
N836 H843 0.984 . S
N837 C830 1.356 . S
N837 H840 0.984 . S
N837 H841 0.985 . S
H838 N833 0.984 . S
H839 N833 0.985 . S
H840 N837 0.984 . S
H841 N837 0.985 . S
H842 N836 0.984 . S
H843 N836 0.984 . S
H844 N832 0.984 . S
H845 N832 0.985 . S
C846 C847 1.363 . S
C846 C852 1.379 . S
C846 N854 1.356 . S
C847 C846 1.363 . S
C847 C853 1.363 . S
C848 C849 1.363 . S
C848 C853 1.379 . S
C848 N855 1.356 . S
C849 C848 1.363 . S
C849 C852 1.363 . S
N850 C852 1.356 . S
N850 H862 0.984 . S
N850 H863 0.985 . S
N851 C853 1.356 . S
N851 H856 0.984 . S
N851 H857 0.985 . S
C852 C846 1.379 . S
C852 C849 1.363 . S
C852 N850 1.356 . S
C853 C847 1.363 . S
C853 C848 1.379 . S
C853 N851 1.356 . S
N854 C846 1.356 . S
N854 H860 0.984 . S
N854 H861 0.984 . S
N855 C848 1.356 . S
N855 H858 0.984 . S
N855 H859 0.985 . S
H856 N851 0.984 . S
H857 N851 0.985 . S
H858 N855 0.984 . S
H859 N855 0.985 . S
H860 N854 0.984 . S
H861 N854 0.984 . S
H862 N850 0.984 . S
H863 N850 0.985 . S
C864 C865 1.363 . S
C864 C870 1.379 . S
C864 N872 1.356 . S
C865 C864 1.363 . S
C865 C871 1.363 . S
C866 C867 1.363 . S
C866 C871 1.379 . S
C866 N873 1.356 . S
C867 C866 1.363 . S
C867 C870 1.363 . S
N868 C870 1.356 . S
N868 H880 0.984 . S
N868 H881 0.985 . S
N869 C871 1.356 . S
N869 H874 0.984 . S
N869 H875 0.985 . S
C870 C864 1.379 . S
C870 C867 1.363 . S
C870 N868 1.356 . S
C871 C865 1.363 . S
C871 C866 1.379 . S
C871 N869 1.356 . S
N872 C864 1.356 . S
N872 H878 0.984 . S
N872 H879 0.984 . S
N873 C866 1.356 . S
N873 H876 0.984 . S
N873 H877 0.985 . S
H874 N869 0.984 . S
H875 N869 0.985 . S
H876 N873 0.984 . S
H877 N873 0.985 . S
H878 N872 0.984 . S
H879 N872 0.984 . S
H880 N868 0.984 . S
H881 N868 0.985 . S
C882 C883 1.363 . S
C882 C888 1.379 . S
C882 N890 1.356 . S
C883 C882 1.363 . S
C883 C889 1.363 . S
C884 C885 1.363 . S
C884 C889 1.379 . S
C884 N891 1.356 . S
C885 C884 1.363 . S
C885 C888 1.363 . S
N886 C888 1.356 . S
N886 H898 0.984 . S
N886 H899 0.985 . S
N887 C889 1.356 . S
N887 H892 0.984 . S
N887 H893 0.985 . S
C888 C882 1.379 . S
C888 C885 1.363 . S
C888 N886 1.356 . S
C889 C883 1.363 . S
C889 C884 1.379 . S
C889 N887 1.356 . S
N890 C882 1.356 . S
N890 H896 0.984 . S
N890 H897 0.984 . S
N891 C884 1.356 . S
N891 H894 0.984 . S
N891 H895 0.985 . S
H892 N887 0.984 . S
H893 N887 0.985 . S
H894 N891 0.984 . S
H895 N891 0.985 . S
H896 N890 0.984 . S
H897 N890 0.984 . S
H898 N886 0.984 . S
H899 N886 0.985 . S
C900 C901 1.363 . S
C900 C906 1.379 . S
C900 N908 1.356 . S
C901 C900 1.363 . S
C901 C907 1.363 . S
C902 C903 1.363 . S
C902 C907 1.379 . S
C902 N909 1.356 . S
C903 C902 1.363 . S
C903 C906 1.363 . S
N904 C906 1.356 . S
N904 H916 0.984 . S
N904 H917 0.985 . S
N905 C907 1.356 . S
N905 H910 0.984 . S
N905 H911 0.985 . S
C906 C900 1.379 . S
C906 C903 1.363 . S
C906 N904 1.356 . S
C907 C901 1.363 . S
C907 C902 1.379 . S
C907 N905 1.356 . S
N908 C900 1.356 . S
N908 H914 0.984 . S
N908 H915 0.984 . S
N909 C902 1.356 . S
N909 H912 0.984 . S
N909 H913 0.985 . S
H910 N905 0.984 . S
H911 N905 0.985 . S
H912 N909 0.984 . S
H913 N909 0.985 . S
H914 N908 0.984 . S
H915 N908 0.984 . S
H916 N904 0.984 . S
H917 N904 0.985 . S
C918 C919 1.363 . S
C918 C924 1.379 . S
C918 N926 1.356 . S
C919 C918 1.363 . S
C919 C925 1.363 . S
C920 C921 1.363 . S
C920 C925 1.379 . S
C920 N927 1.356 . S
C921 C920 1.363 . S
C921 C924 1.363 . S
N922 C924 1.356 . S
N922 H934 0.984 . S
N922 H935 0.985 . S
N923 C925 1.356 . S
N923 H928 0.984 . S
N923 H929 0.985 . S
C924 C918 1.379 . S
C924 C921 1.363 . S
C924 N922 1.356 . S
C925 C919 1.363 . S
C925 C920 1.379 . S
C925 N923 1.356 . S
N926 C918 1.356 . S
N926 H932 0.984 . S
N926 H933 0.984 . S
N927 C920 1.356 . S
N927 H930 0.984 . S
N927 H931 0.985 . S
H928 N923 0.984 . S
H929 N923 0.985 . S
H930 N927 0.984 . S
H931 N927 0.985 . S
H932 N926 0.984 . S
H933 N926 0.984 . S
H934 N922 0.984 . S
H935 N922 0.985 . S
C936 C937 1.363 . S
C936 C942 1.379 . S
C936 N944 1.356 . S
C937 C936 1.363 . S
C937 C943 1.363 . S
C938 C939 1.363 . S
C938 C943 1.379 . S
C938 N945 1.356 . S
C939 C938 1.363 . S
C939 C942 1.363 . S
N940 C942 1.356 . S
N940 H952 0.984 . S
N940 H953 0.985 . S
N941 C943 1.356 . S
N941 H946 0.984 . S
N941 H947 0.985 . S
C942 C936 1.379 . S
C942 C939 1.363 . S
C942 N940 1.356 . S
C943 C937 1.363 . S
C943 C938 1.379 . S
C943 N941 1.356 . S
N944 C936 1.356 . S
N944 H950 0.984 . S
N944 H951 0.984 . S
N945 C938 1.356 . S
N945 H948 0.984 . S
N945 H949 0.985 . S
H946 N941 0.984 . S
H947 N941 0.985 . S
H948 N945 0.984 . S
H949 N945 0.985 . S
H950 N944 0.984 . S
H951 N944 0.984 . S
H952 N940 0.984 . S
H953 N940 0.985 . S
C954 C955 1.363 . S
C954 C960 1.379 . S
C954 N962 1.356 . S
C955 C954 1.363 . S
C955 C961 1.363 . S
C956 C957 1.363 . S
C956 C961 1.379 . S
C956 N963 1.356 . S
C957 C956 1.363 . S
C957 C960 1.363 . S
N958 C960 1.356 . S
N958 H970 0.984 . S
N958 H971 0.985 . S
N959 C961 1.356 . S
N959 H964 0.984 . S
N959 H965 0.985 . S
C960 C954 1.379 . S
C960 C957 1.363 . S
C960 N958 1.356 . S
C961 C955 1.363 . S
C961 C956 1.379 . S
C961 N959 1.356 . S
N962 C954 1.356 . S
N962 H968 0.984 . S
N962 H969 0.984 . S
N963 C956 1.356 . S
N963 H966 0.984 . S
N963 H967 0.985 . S
H964 N959 0.984 . S
H965 N959 0.985 . S
H966 N963 0.984 . S
H967 N963 0.985 . S
H968 N962 0.984 . S
H969 N962 0.984 . S
H970 N958 0.984 . S
H971 N958 0.985 . S
C972 C973 1.363 . S
C972 C978 1.379 . S
C972 N980 1.356 . S
C973 C972 1.363 . S
C973 C979 1.363 . S
C974 C975 1.363 . S
C974 C979 1.379 . S
C974 N981 1.356 . S
C975 C974 1.363 . S
C975 C978 1.363 . S
N976 C978 1.356 . S
N976 H988 0.984 . S
N976 H989 0.985 . S
N977 C979 1.356 . S
N977 H982 0.984 . S
N977 H983 0.985 . S
C978 C972 1.379 . S
C978 C975 1.363 . S
C978 N976 1.356 . S
C979 C973 1.363 . S
C979 C974 1.379 . S
C979 N977 1.356 . S
N980 C972 1.356 . S
N980 H986 0.984 . S
N980 H987 0.984 . S
N981 C974 1.356 . S
N981 H984 0.984 . S
N981 H985 0.985 . S
H982 N977 0.984 . S
H983 N977 0.985 . S
H984 N981 0.984 . S
H985 N981 0.985 . S
H986 N980 0.984 . S
H987 N980 0.984 . S
H988 N976 0.984 . S
H989 N976 0.985 . S
C990 C991 1.363 . S
C990 C996 1.379 . S
C990 N998 1.356 . S
C991 C990 1.363 . S
C991 C997 1.363 . S
C992 C993 1.363 . S
C992 C997 1.379 . S
C992 N999 1.356 . S
C993 C992 1.363 . S
C993 C996 1.363 . S
N994 C996 1.356 . S
N994 H1006 0.984 . S
N994 H1007 0.985 . S
N995 C997 1.356 . S
N995 H1000 0.984 . S
N995 H1001 0.985 . S
C996 C990 1.379 . S
C996 C993 1.363 . S
C996 N994 1.356 . S
C997 C991 1.363 . S
C997 C992 1.379 . S
C997 N995 1.356 . S
N998 C990 1.356 . S
N998 H1004 0.984 . S
N998 H1005 0.984 . S
N999 C992 1.356 . S
N999 H1002 0.984 . S
N999 H1003 0.985 . S
H1000 N995 0.984 . S
H1001 N995 0.985 . S
H1002 N999 0.984 . S
H1003 N999 0.985 . S
H1004 N998 0.984 . S
H1005 N998 0.984 . S
H1006 N994 0.984 . S
H1007 N994 0.985 . S
C1008 C1009 1.363 . S
C1008 C1014 1.379 . S
C1008 N1016 1.356 . S
C1009 C1008 1.363 . S
C1009 C1015 1.363 . S
C1010 C1011 1.363 . S
C1010 C1015 1.379 . S
C1010 N1017 1.356 . S
C1011 C1010 1.363 . S
C1011 C1014 1.363 . S
N1012 C1014 1.356 . S
N1012 H1024 0.984 . S
N1012 H1025 0.985 . S
N1013 C1015 1.356 . S
N1013 H1018 0.984 . S
N1013 H1019 0.985 . S
C1014 C1008 1.379 . S
C1014 C1011 1.363 . S
C1014 N1012 1.356 . S
C1015 C1009 1.363 . S
C1015 C1010 1.379 . S
C1015 N1013 1.356 . S
N1016 C1008 1.356 . S
N1016 H1022 0.984 . S
N1016 H1023 0.984 . S
N1017 C1010 1.356 . S
N1017 H1020 0.984 . S
N1017 H1021 0.985 . S
H1018 N1013 0.984 . S
H1019 N1013 0.985 . S
H1020 N1017 0.984 . S
H1021 N1017 0.985 . S
H1022 N1016 0.984 . S
H1023 N1016 0.984 . S
H1024 N1012 0.984 . S
H1025 N1012 0.985 . S
C1026 C1027 1.363 . S
C1026 C1032 1.379 . S
C1026 N1034 1.356 . S
C1027 C1026 1.363 . S
C1027 C1033 1.363 . S
C1028 C1029 1.363 . S
C1028 C1033 1.379 . S
C1028 N1035 1.356 . S
C1029 C1028 1.363 . S
C1029 C1032 1.363 . S
N1030 C1032 1.356 . S
N1030 H1042 0.984 . S
N1030 H1043 0.985 . S
N1031 C1033 1.356 . S
N1031 H1036 0.984 . S
N1031 H1037 0.985 . S
C1032 C1026 1.379 . S
C1032 C1029 1.363 . S
C1032 N1030 1.356 . S
C1033 C1027 1.363 . S
C1033 C1028 1.379 . S
C1033 N1031 1.356 . S
N1034 C1026 1.356 . S
N1034 H1040 0.984 . S
N1034 H1041 0.984 . S
N1035 C1028 1.356 . S
N1035 H1038 0.984 . S
N1035 H1039 0.985 . S
H1036 N1031 0.984 . S
H1037 N1031 0.985 . S
H1038 N1035 0.984 . S
H1039 N1035 0.985 . S
H1040 N1034 0.984 . S
H1041 N1034 0.984 . S
H1042 N1030 0.984 . S
H1043 N1030 0.985 . S
C1044 C1045 1.363 . S
C1044 C1050 1.379 . S
C1044 N1052 1.356 . S
C1045 C1044 1.363 . S
C1045 C1051 1.363 . S
C1046 C1047 1.363 . S
C1046 C1051 1.379 . S
C1046 N1053 1.356 . S
C1047 C1046 1.363 . S
C1047 C1050 1.363 . S
N1048 C1050 1.356 . S
N1048 H1060 0.984 . S
N1048 H1061 0.985 . S
N1049 C1051 1.356 . S
N1049 H1054 0.984 . S
N1049 H1055 0.985 . S
C1050 C1044 1.379 . S
C1050 C1047 1.363 . S
C1050 N1048 1.356 . S
C1051 C1045 1.363 . S
C1051 C1046 1.379 . S
C1051 N1049 1.356 . S
N1052 C1044 1.356 . S
N1052 H1058 0.984 . S
N1052 H1059 0.984 . S
N1053 C1046 1.356 . S
N1053 H1056 0.984 . S
N1053 H1057 0.985 . S
H1054 N1049 0.984 . S
H1055 N1049 0.985 . S
H1056 N1053 0.984 . S
H1057 N1053 0.985 . S
H1058 N1052 0.984 . S
H1059 N1052 0.984 . S
H1060 N1048 0.984 . S
H1061 N1048 0.985 . S
C1062 C1063 1.363 . S
C1062 C1068 1.379 . S
C1062 N1070 1.356 . S
C1063 C1062 1.363 . S
C1063 C1069 1.363 . S
C1064 C1065 1.363 . S
C1064 C1069 1.379 . S
C1064 N1071 1.356 . S
C1065 C1064 1.363 . S
C1065 C1068 1.363 . S
N1066 C1068 1.356 . S
N1066 H1078 0.984 . S
N1066 H1079 0.985 . S
N1067 C1069 1.356 . S
N1067 H1072 0.984 . S
N1067 H1073 0.985 . S
C1068 C1062 1.379 . S
C1068 C1065 1.363 . S
C1068 N1066 1.356 . S
C1069 C1063 1.363 . S
C1069 C1064 1.379 . S
C1069 N1067 1.356 . S
N1070 C1062 1.356 . S
N1070 H1076 0.984 . S
N1070 H1077 0.984 . S
N1071 C1064 1.356 . S
N1071 H1074 0.984 . S
N1071 H1075 0.985 . S
H1072 N1067 0.984 . S
H1073 N1067 0.985 . S
H1074 N1071 0.984 . S
H1075 N1071 0.985 . S
H1076 N1070 0.984 . S
H1077 N1070 0.984 . S
H1078 N1066 0.984 . S
H1079 N1066 0.985 . S
C1080 C1081 1.363 . S
C1080 C1086 1.379 . S
C1080 N1088 1.356 . S
C1081 C1080 1.363 . S
C1081 C1087 1.363 . S
C1082 C1083 1.363 . S
C1082 C1087 1.379 . S
C1082 N1089 1.356 . S
C1083 C1082 1.363 . S
C1083 C1086 1.363 . S
N1084 C1086 1.356 . S
N1084 H1096 0.984 . S
N1084 H1097 0.985 . S
N1085 C1087 1.356 . S
N1085 H1090 0.984 . S
N1085 H1091 0.985 . S
C1086 C1080 1.379 . S
C1086 C1083 1.363 . S
C1086 N1084 1.356 . S
C1087 C1081 1.363 . S
C1087 C1082 1.379 . S
C1087 N1085 1.356 . S
N1088 C1080 1.356 . S
N1088 H1094 0.984 . S
N1088 H1095 0.984 . S
N1089 C1082 1.356 . S
N1089 H1092 0.984 . S
N1089 H1093 0.985 . S
H1090 N1085 0.984 . S
H1091 N1085 0.985 . S
H1092 N1089 0.984 . S
H1093 N1089 0.985 . S
H1094 N1088 0.984 . S
H1095 N1088 0.984 . S
H1096 N1084 0.984 . S
H1097 N1084 0.985 . S
C1098 C1099 1.363 . S
C1098 C1104 1.379 . S
C1098 N1106 1.356 . S
C1099 C1098 1.363 . S
C1099 C1105 1.363 . S
C1100 C1101 1.363 . S
C1100 C1105 1.379 . S
C1100 N1107 1.356 . S
C1101 C1100 1.363 . S
C1101 C1104 1.363 . S
N1102 C1104 1.356 . S
N1102 H1114 0.984 . S
N1102 H1115 0.985 . S
N1103 C1105 1.356 . S
N1103 H1108 0.984 . S
N1103 H1109 0.985 . S
C1104 C1098 1.379 . S
C1104 C1101 1.363 . S
C1104 N1102 1.356 . S
C1105 C1099 1.363 . S
C1105 C1100 1.379 . S
C1105 N1103 1.356 . S
N1106 C1098 1.356 . S
N1106 H1112 0.984 . S
N1106 H1113 0.984 . S
N1107 C1100 1.356 . S
N1107 H1110 0.984 . S
N1107 H1111 0.985 . S
H1108 N1103 0.984 . S
H1109 N1103 0.985 . S
H1110 N1107 0.984 . S
H1111 N1107 0.985 . S
H1112 N1106 0.984 . S
H1113 N1106 0.984 . S
H1114 N1102 0.984 . S
H1115 N1102 0.985 . S
C1116 C1117 1.363 . S
C1116 C1122 1.379 . S
C1116 N1124 1.356 . S
C1117 C1116 1.363 . S
C1117 C1123 1.363 . S
C1118 C1119 1.363 . S
C1118 C1123 1.379 . S
C1118 N1125 1.356 . S
C1119 C1118 1.363 . S
C1119 C1122 1.363 . S
N1120 C1122 1.356 . S
N1120 H1132 0.984 . S
N1120 H1133 0.985 . S
N1121 C1123 1.356 . S
N1121 H1126 0.984 . S
N1121 H1127 0.985 . S
C1122 C1116 1.379 . S
C1122 C1119 1.363 . S
C1122 N1120 1.356 . S
C1123 C1117 1.363 . S
C1123 C1118 1.379 . S
C1123 N1121 1.356 . S
N1124 C1116 1.356 . S
N1124 H1130 0.984 . S
N1124 H1131 0.984 . S
N1125 C1118 1.356 . S
N1125 H1128 0.984 . S
N1125 H1129 0.985 . S
H1126 N1121 0.984 . S
H1127 N1121 0.985 . S
H1128 N1125 0.984 . S
H1129 N1125 0.985 . S
H1130 N1124 0.984 . S
H1131 N1124 0.984 . S
H1132 N1120 0.984 . S
H1133 N1120 0.985 . S
C1134 C1135 1.363 . S
C1134 C1140 1.379 . S
C1134 N1142 1.356 . S
C1135 C1134 1.363 . S
C1135 C1141 1.363 . S
C1136 C1137 1.363 . S
C1136 C1141 1.379 . S
C1136 N1143 1.356 . S
C1137 C1136 1.363 . S
C1137 C1140 1.363 . S
N1138 C1140 1.356 . S
N1138 H1150 0.984 . S
N1138 H1151 0.985 . S
N1139 C1141 1.356 . S
N1139 H1144 0.984 . S
N1139 H1145 0.985 . S
C1140 C1134 1.379 . S
C1140 C1137 1.363 . S
C1140 N1138 1.356 . S
C1141 C1135 1.363 . S
C1141 C1136 1.379 . S
C1141 N1139 1.356 . S
N1142 C1134 1.356 . S
N1142 H1148 0.984 . S
N1142 H1149 0.984 . S
N1143 C1136 1.356 . S
N1143 H1146 0.984 . S
N1143 H1147 0.985 . S
H1144 N1139 0.984 . S
H1145 N1139 0.985 . S
H1146 N1143 0.984 . S
H1147 N1143 0.985 . S
H1148 N1142 0.984 . S
H1149 N1142 0.984 . S
H1150 N1138 0.984 . S
H1151 N1138 0.985 . S
C1152 C1153 1.363 . S
C1152 C1158 1.379 . S
C1152 N1160 1.356 . S
C1153 C1152 1.363 . S
C1153 C1159 1.363 . S
C1154 C1155 1.363 . S
C1154 C1159 1.379 . S
C1154 N1161 1.356 . S
C1155 C1154 1.363 . S
C1155 C1158 1.363 . S
N1156 C1158 1.356 . S
N1156 H1168 0.984 . S
N1156 H1169 0.985 . S
N1157 C1159 1.356 . S
N1157 H1162 0.984 . S
N1157 H1163 0.985 . S
C1158 C1152 1.379 . S
C1158 C1155 1.363 . S
C1158 N1156 1.356 . S
C1159 C1153 1.363 . S
C1159 C1154 1.379 . S
C1159 N1157 1.356 . S
N1160 C1152 1.356 . S
N1160 H1166 0.984 . S
N1160 H1167 0.984 . S
N1161 C1154 1.356 . S
N1161 H1164 0.984 . S
N1161 H1165 0.985 . S
H1162 N1157 0.984 . S
H1163 N1157 0.985 . S
H1164 N1161 0.984 . S
H1165 N1161 0.985 . S
H1166 N1160 0.984 . S
H1167 N1160 0.984 . S
H1168 N1156 0.984 . S
H1169 N1156 0.985 . S
C1170 C1171 1.363 . S
C1170 C1176 1.379 . S
C1170 N1178 1.356 . S
C1171 C1170 1.363 . S
C1171 C1177 1.363 . S
C1172 C1173 1.363 . S
C1172 C1177 1.379 . S
C1172 N1179 1.356 . S
C1173 C1172 1.363 . S
C1173 C1176 1.363 . S
N1174 C1176 1.356 . S
N1174 H1186 0.984 . S
N1174 H1187 0.985 . S
N1175 C1177 1.356 . S
N1175 H1180 0.984 . S
N1175 H1181 0.985 . S
C1176 C1170 1.379 . S
C1176 C1173 1.363 . S
C1176 N1174 1.356 . S
C1177 C1171 1.363 . S
C1177 C1172 1.379 . S
C1177 N1175 1.356 . S
N1178 C1170 1.356 . S
N1178 H1184 0.984 . S
N1178 H1185 0.984 . S
N1179 C1172 1.356 . S
N1179 H1182 0.984 . S
N1179 H1183 0.985 . S
H1180 N1175 0.984 . S
H1181 N1175 0.985 . S
H1182 N1179 0.984 . S
H1183 N1179 0.985 . S
H1184 N1178 0.984 . S
H1185 N1178 0.984 . S
H1186 N1174 0.984 . S
H1187 N1174 0.985 . S
C1188 C1189 1.363 . S
C1188 C1194 1.379 . S
C1188 N1196 1.356 . S
C1189 C1188 1.363 . S
C1189 C1195 1.363 . S
C1190 C1191 1.363 . S
C1190 C1195 1.379 . S
C1190 N1197 1.356 . S
C1191 C1190 1.363 . S
C1191 C1194 1.363 . S
N1192 C1194 1.356 . S
N1192 H1204 0.984 . S
N1192 H1205 0.985 . S
N1193 C1195 1.356 . S
N1193 H1198 0.984 . S
N1193 H1199 0.985 . S
C1194 C1188 1.379 . S
C1194 C1191 1.363 . S
C1194 N1192 1.356 . S
C1195 C1189 1.363 . S
C1195 C1190 1.379 . S
C1195 N1193 1.356 . S
N1196 C1188 1.356 . S
N1196 H1202 0.984 . S
N1196 H1203 0.984 . S
N1197 C1190 1.356 . S
N1197 H1200 0.984 . S
N1197 H1201 0.985 . S
H1198 N1193 0.984 . S
H1199 N1193 0.985 . S
H1200 N1197 0.984 . S
H1201 N1197 0.985 . S
H1202 N1196 0.984 . S
H1203 N1196 0.984 . S
H1204 N1192 0.984 . S
H1205 N1192 0.985 . S
C1206 C1207 1.363 . S
C1206 C1212 1.379 . S
C1206 N1214 1.356 . S
C1207 C1206 1.363 . S
C1207 C1213 1.363 . S
C1208 C1209 1.363 . S
C1208 C1213 1.379 . S
C1208 N1215 1.356 . S
C1209 C1208 1.363 . S
C1209 C1212 1.363 . S
N1210 C1212 1.356 . S
N1210 H1222 0.984 . S
N1210 H1223 0.985 . S
N1211 C1213 1.356 . S
N1211 H1216 0.984 . S
N1211 H1217 0.985 . S
C1212 C1206 1.379 . S
C1212 C1209 1.363 . S
C1212 N1210 1.356 . S
C1213 C1207 1.363 . S
C1213 C1208 1.379 . S
C1213 N1211 1.356 . S
N1214 C1206 1.356 . S
N1214 H1220 0.984 . S
N1214 H1221 0.984 . S
N1215 C1208 1.356 . S
N1215 H1218 0.984 . S
N1215 H1219 0.985 . S
H1216 N1211 0.984 . S
H1217 N1211 0.985 . S
H1218 N1215 0.984 . S
H1219 N1215 0.985 . S
H1220 N1214 0.984 . S
H1221 N1214 0.984 . S
H1222 N1210 0.984 . S
H1223 N1210 0.985 . S
C1224 C1225 1.363 . S
C1224 C1230 1.379 . S
C1224 N1232 1.356 . S
C1225 C1224 1.363 . S
C1225 C1231 1.363 . S
C1226 C1227 1.363 . S
C1226 C1231 1.379 . S
C1226 N1233 1.356 . S
C1227 C1226 1.363 . S
C1227 C1230 1.363 . S
N1228 C1230 1.356 . S
N1228 H1240 0.984 . S
N1228 H1241 0.985 . S
N1229 C1231 1.356 . S
N1229 H1234 0.984 . S
N1229 H1235 0.985 . S
C1230 C1224 1.379 . S
C1230 C1227 1.363 . S
C1230 N1228 1.356 . S
C1231 C1225 1.363 . S
C1231 C1226 1.379 . S
C1231 N1229 1.356 . S
N1232 C1224 1.356 . S
N1232 H1238 0.984 . S
N1232 H1239 0.984 . S
N1233 C1226 1.356 . S
N1233 H1236 0.984 . S
N1233 H1237 0.985 . S
H1234 N1229 0.984 . S
H1235 N1229 0.985 . S
H1236 N1233 0.984 . S
H1237 N1233 0.985 . S
H1238 N1232 0.984 . S
H1239 N1232 0.984 . S
H1240 N1228 0.984 . S
H1241 N1228 0.985 . S
C1242 C1243 1.363 . S
C1242 C1248 1.379 . S
C1242 N1250 1.356 . S
C1243 C1242 1.363 . S
C1243 C1249 1.363 . S
C1244 C1245 1.363 . S
C1244 C1249 1.379 . S
C1244 N1251 1.356 . S
C1245 C1244 1.363 . S
C1245 C1248 1.363 . S
N1246 C1248 1.356 . S
N1246 H1258 0.984 . S
N1246 H1259 0.985 . S
N1247 C1249 1.356 . S
N1247 H1252 0.984 . S
N1247 H1253 0.985 . S
C1248 C1242 1.379 . S
C1248 C1245 1.363 . S
C1248 N1246 1.356 . S
C1249 C1243 1.363 . S
C1249 C1244 1.379 . S
C1249 N1247 1.356 . S
N1250 C1242 1.356 . S
N1250 H1256 0.984 . S
N1250 H1257 0.984 . S
N1251 C1244 1.356 . S
N1251 H1254 0.984 . S
N1251 H1255 0.985 . S
H1252 N1247 0.984 . S
H1253 N1247 0.985 . S
H1254 N1251 0.984 . S
H1255 N1251 0.985 . S
H1256 N1250 0.984 . S
H1257 N1250 0.984 . S
H1258 N1246 0.984 . S
H1259 N1246 0.985 . S
C1260 C1261 1.363 . S
C1260 C1266 1.379 . S
C1260 N1268 1.356 . S
C1261 C1260 1.363 . S
C1261 C1267 1.363 . S
C1262 C1263 1.363 . S
C1262 C1267 1.379 . S
C1262 N1269 1.356 . S
C1263 C1262 1.363 . S
C1263 C1266 1.363 . S
N1264 C1266 1.356 . S
N1264 H1276 0.984 . S
N1264 H1277 0.985 . S
N1265 C1267 1.356 . S
N1265 H1270 0.984 . S
N1265 H1271 0.985 . S
C1266 C1260 1.379 . S
C1266 C1263 1.363 . S
C1266 N1264 1.356 . S
C1267 C1261 1.363 . S
C1267 C1262 1.379 . S
C1267 N1265 1.356 . S
N1268 C1260 1.356 . S
N1268 H1274 0.984 . S
N1268 H1275 0.984 . S
N1269 C1262 1.356 . S
N1269 H1272 0.984 . S
N1269 H1273 0.985 . S
H1270 N1265 0.984 . S
H1271 N1265 0.985 . S
H1272 N1269 0.984 . S
H1273 N1269 0.985 . S
H1274 N1268 0.984 . S
H1275 N1268 0.984 . S
H1276 N1264 0.984 . S
H1277 N1264 0.985 . S
C1278 C1279 1.363 . S
C1278 C1284 1.379 . S
C1278 N1286 1.356 . S
C1279 C1278 1.363 . S
C1279 C1285 1.363 . S
C1280 C1281 1.363 . S
C1280 C1285 1.379 . S
C1280 N1287 1.356 . S
C1281 C1280 1.363 . S
C1281 C1284 1.363 . S
N1282 C1284 1.356 . S
N1282 H1294 0.984 . S
N1282 H1295 0.985 . S
N1283 C1285 1.356 . S
N1283 H1288 0.984 . S
N1283 H1289 0.985 . S
C1284 C1278 1.379 . S
C1284 C1281 1.363 . S
C1284 N1282 1.356 . S
C1285 C1279 1.363 . S
C1285 C1280 1.379 . S
C1285 N1283 1.356 . S
N1286 C1278 1.356 . S
N1286 H1292 0.984 . S
N1286 H1293 0.984 . S
N1287 C1280 1.356 . S
N1287 H1290 0.984 . S
N1287 H1291 0.985 . S
H1288 N1283 0.984 . S
H1289 N1283 0.985 . S
H1290 N1287 0.984 . S
H1291 N1287 0.985 . S
H1292 N1286 0.984 . S
H1293 N1286 0.984 . S
H1294 N1282 0.984 . S
H1295 N1282 0.985 . S
C435 C257 1.168 . S
C433 N6 1.017 . S
C453 C262 1.944 . S
C451 C57 1.943 . S
C471 C263 1.431 . S
C469 C61 1.446 . S
C487 N96 0.725 . S
C489 C267 0.698 . S
C505 C136 1.943 . S
C507 C270 1.944 . S
C525 C271 1.431 . S
C523 C160 1.443 . S
C541 N194 0.725 . S
C543 C248 0.698 . S
C559 N224 1.018 . S
C561 C264 1.169 . S
C579 C302 1.876 . S
C577 C10 1.945 . S
C595 N36 0.952 . S
C597 C328 0.964 . S
C615 C280 0.673 . S
C613 N74 0.688 . S
C633 C335 1.382 . S
C631 C100 1.445 . S
C649 C121 1.453 . S
C651 C289 1.390 . S
C669 C331 1.817 . S
C667 C177 1.863 . S
C685 C196 2.265 . S
C687 C295 2.225 . S
C703 C226 1.940 . S
C705 C326 1.906 . S
C721 C27 1.940 . S
C723 C334 1.902 . S
C739 N134 0.952 . S
C741 C321 0.965 . S
C759 C299 0.673 . S
C757 N156 0.687 . S
C777 C327 1.382 . S
C775 C181 1.448 . S
C793 C211 1.946 . S
C795 C294 1.877 . S
C811 C76 1.863 . S
C813 C312 1.816 . S
C831 C303 2.224 . S
C829 C117 2.264 . S
C847 C40 1.453 . S
C849 C296 1.387 . S
C865 N216 0.997 . S
C867 C358 1.035 . S
C883 C147 1.921 . S
C885 C353 1.884 . S
C903 C367 1.370 . S
C901 C151 1.425 . S
C921 C344 0.694 . S
C919 N186 0.711 . S
C937 C46 1.921 . S
C939 C360 1.882 . S
C957 C359 1.370 . S
C955 C70 1.423 . S
C973 N104 0.711 . S
C975 C363 0.694 . S
C991 N14 0.997 . S
C993 C366 1.033 . S
C1009 C220 1.943 . S
C1011 C392 1.960 . S
C1029 C408 1.006 . S
C1027 N126 0.962 . S
C1045 N164 0.696 . S
C1047 C390 0.648 . S
C1063 C190 1.465 . S
C1065 C423 1.403 . S
C1083 C399 1.462 . S
C1081 C31 1.464 . S
C1099 C87 1.884 . S
C1101 C417 1.840 . S
C1119 C395 2.251 . S
C1117 C106 2.261 . S
C1137 C430 1.915 . S
C1135 C16 1.958 . S
C1155 C422 1.915 . S
C1153 C237 1.959 . S
C1171 N44 0.962 . S
C1173 C427 1.005 . S
C1189 N66 0.696 . S
C1191 C398 0.650 . S
C1209 C431 1.404 . S
C1207 C91 1.466 . S
C1225 C1 1.943 . S
C1227 C385 1.958 . S
C1243 C166 1.884 . S
C1245 C424 1.840 . S
C1263 C376 2.251 . S
C1261 C207 2.263 . S
C1281 C391 1.462 . S
C1279 C130 1.462 . S
