# Generated by pormake.
# Topology zzz, (3,6)-cn, num edge types: 1
# Building blocks:
#     Node 0, Type 0, BuildingBlock: WUSLED_clean_sbu_0, # of connection points: 3
#     Node 1, Type 0, BuildingBlock: WUSLED_clean_sbu_0, # of connection points: 3
#     Node 2, Type 0, BuildingBlock: WUSLED_clean_sbu_0, # of connection points: 3
#     Node 3, Type 0, BuildingBlock: WUSLED_clean_sbu_0, # of connection points: 3
#     Node 4, Type 0, BuildingBlock: WUSLED_clean_sbu_0, # of connection points: 3
#     Node 5, Type 0, BuildingBlock: WUSLED_clean_sbu_0, # of connection points: 3
#     Node 6, Type 0, BuildingBlock: WUSLED_clean_sbu_0, # of connection points: 3
#     Node 7, Type 0, BuildingBlock: WUSLED_clean_sbu_0, # of connection points: 3
#     Node 8, Type 1, BuildingBlock: BETFEN_clean_sbu_0, # of connection points: 6
#     Node 9, Type 1, BuildingBlock: BETFEN_clean_sbu_0, # of connection points: 6
#     Node 10, Type 1, BuildingBlock: BETFEN_clean_sbu_0, # of connection points: 6
#     Node 11, Type 1, BuildingBlock: BETFEN_clean_sbu_0, # of connection points: 6
#     Edge 12, Type (0, 1), BuildingBlock: XUDNAN_clean_linker_2, # of connection points: 2
#     Edge 13, Type (0, 1), BuildingBlock: XUDNAN_clean_linker_2, # of connection points: 2
#     Edge 14, Type (0, 1), BuildingBlock: XUDNAN_clean_linker_2, # of connection points: 2
#     Edge 15, Type (0, 1), BuildingBlock: XUDNAN_clean_linker_2, # of connection points: 2
#     Edge 16, Type (0, 1), BuildingBlock: XUDNAN_clean_linker_2, # of connection points: 2
#     Edge 17, Type (0, 1), BuildingBlock: XUDNAN_clean_linker_2, # of connection points: 2
#     Edge 18, Type (0, 1), BuildingBlock: XUDNAN_clean_linker_2, # of connection points: 2
#     Edge 19, Type (0, 1), BuildingBlock: XUDNAN_clean_linker_2, # of connection points: 2
#     Edge 20, Type (0, 1), BuildingBlock: XUDNAN_clean_linker_2, # of connection points: 2
#     Edge 21, Type (0, 1), BuildingBlock: XUDNAN_clean_linker_2, # of connection points: 2
#     Edge 22, Type (0, 1), BuildingBlock: XUDNAN_clean_linker_2, # of connection points: 2
#     Edge 23, Type (0, 1), BuildingBlock: XUDNAN_clean_linker_2, # of connection points: 2
#     Edge 24, Type (0, 1), BuildingBlock: XUDNAN_clean_linker_2, # of connection points: 2
#     Edge 25, Type (0, 1), BuildingBlock: XUDNAN_clean_linker_2, # of connection points: 2
#     Edge 26, Type (0, 1), BuildingBlock: XUDNAN_clean_linker_2, # of connection points: 2
#     Edge 27, Type (0, 1), BuildingBlock: XUDNAN_clean_linker_2, # of connection points: 2
#     Edge 28, Type (0, 1), BuildingBlock: XUDNAN_clean_linker_2, # of connection points: 2
#     Edge 29, Type (0, 1), BuildingBlock: XUDNAN_clean_linker_2, # of connection points: 2
#     Edge 30, Type (0, 1), BuildingBlock: XUDNAN_clean_linker_2, # of connection points: 2
#     Edge 31, Type (0, 1), BuildingBlock: XUDNAN_clean_linker_2, # of connection points: 2
#     Edge 32, Type (0, 1), BuildingBlock: XUDNAN_clean_linker_2, # of connection points: 2
#     Edge 33, Type (0, 1), BuildingBlock: XUDNAN_clean_linker_2, # of connection points: 2
#     Edge 34, Type (0, 1), BuildingBlock: XUDNAN_clean_linker_2, # of connection points: 2
#     Edge 35, Type (0, 1), BuildingBlock: XUDNAN_clean_linker_2, # of connection points: 2
# Relax obj value: 0.421
# Max RMSD: 0.264
# Mean RMSD: 0.247
data_MOF--net-zzz--node1-WUSLED_clean_sbu_0--node2-BETFEN_clean_sbu_0--edge1-XUDNAN_clean_linker_2
_symmetry_space_group_name_H-M    P1
_symmetry_Int_Tables_number       1
_symmetry_cell_setting            triclinic
loop_
_symmetry_equiv_pos_as_xyz
'x, y, z'
_cell_length_a     62.576363
_cell_length_b     62.95762
_cell_length_c     19.37854
_cell_angle_alpha  89.994308
_cell_angle_beta   89.966016
_cell_angle_gamma 90.187065
loop_
_atom_site_label
_atom_site_type_symbol
_atom_site_fract_x
_atom_site_fract_y
_atom_site_fract_z
_atom_type_partial_charge
C0 C 0.78235 0.51805 0.51252 0.0
C1 C 0.79949 0.507 0.48199 0.0
C2 C 0.82483 0.52201 0.56609 0.0
C3 C 0.82046 0.5089 0.5087 0.0
C4 C 0.80754 0.53255 0.59733 0.0
C5 C 0.78668 0.53049 0.57124 0.0
U6 U 0.73473 0.51473 0.37639 0.0
O7 O 0.70353 0.49838 0.38434 0.0
O8 O 0.70483 0.53308 0.3819 0.0
C9 C 0.69271 0.5161 0.37631 0.0
C10 C 0.75974 0.51679 0.48682 0.0
C11 C 0.6771 0.51654 0.3182 0.0
C12 C 0.64086 0.52276 0.27618 0.0
C13 C 0.65549 0.52099 0.33091 0.0
C14 C 0.66901 0.51506 0.19454 0.0
C15 C 0.6474 0.51991 0.2072 0.0
C16 C 0.68373 0.51357 0.24936 0.0
C17 C 0.77111 0.51361 0.2151 0.0
C18 C 0.79163 0.52629 0.11726 0.0
C19 C 0.80887 0.50672 0.20963 0.0
C20 C 0.78946 0.50464 0.24375 0.0
C21 C 0.81024 0.5182 0.14736 0.0
C22 C 0.77211 0.52396 0.15111 0.0
C23 C 0.75087 0.51333 0.25189 0.0
O24 O 0.75214 0.53356 0.45486 0.0
O25 O 0.75285 0.49883 0.45987 0.0
O26 O 0.74649 0.49621 0.28825 0.0
O27 O 0.74609 0.53113 0.28356 0.0
H28 H 0.79675 0.49715 0.43703 0.0
H29 H 0.83341 0.50073 0.4829 0.0
H30 H 0.81022 0.5427 0.64166 0.0
H31 H 0.77383 0.53892 0.59675 0.0
H32 H 0.62435 0.52642 0.28782 0.0
H33 H 0.64996 0.52343 0.38328 0.0
H34 H 0.67466 0.51306 0.1421 0.0
H35 H 0.70036 0.51037 0.23792 0.0
H36 H 0.79225 0.53499 0.06908 0.0
H37 H 0.82292 0.49963 0.23268 0.0
H38 H 0.78888 0.49642 0.29285 0.0
H39 H 0.75788 0.53078 0.12835 0.0
C40 C 0.02794 0.77908 0.5262 0.0
C41 C 0.04102 0.79551 0.50062 0.0
C42 C 1.02558 0.82121 0.58272 0.0
C43 C 0.0399 0.81621 0.52852 0.0
C44 C 1.01275 0.8045 0.60852 0.0
C45 C 1.01399 0.78387 0.58094 0.0
U46 U 0.0318 0.73273 0.38769 0.0
O47 O 0.04819 0.70176 0.39392 0.0
O48 O 1.0133 0.70286 0.38847 0.0
C49 C 0.03044 0.69095 0.38371 0.0
C50 C 0.02899 0.75665 0.50009 0.0
C51 C 0.03054 0.67543 0.32538 0.0
C52 C 1.02608 0.63902 0.28448 0.0
C53 C 0.02665 0.65391 0.33844 0.0
C54 C 0.03362 0.66683 0.20225 0.0
C55 C 0.02988 0.64496 0.21497 0.0
C56 C 0.03379 0.68182 0.25652 0.0
C57 C 0.03467 0.7684 0.22268 0.0
C58 C 0.02968 0.78407 0.10979 0.0
C59 C 0.03451 0.80645 0.21078 0.0
C60 C 0.03644 0.78853 0.25239 0.0
C61 C 0.03055 0.8043 0.13953 0.0
C62 C 0.0317 0.76619 0.15138 0.0
C63 C 0.03443 0.74926 0.2643 0.0
O64 O 1.01231 0.74941 0.4661 0.0
O65 O 0.0472 0.74978 0.47446 0.0
O66 O 0.0513 0.74548 0.30274 0.0
O67 O 1.01619 0.74479 0.2946 0.0
H68 H 0.05219 0.79238 0.4592 0.0
H69 H 0.05049 0.82822 0.50776 0.0
H70 H 1.00131 0.80732 0.64937 0.0
H71 H 1.0039 0.77153 0.60258 0.0
H72 H 1.02226 0.62283 0.29829 0.0
H73 H 1.0238 0.64855 0.39079 0.0
H74 H 0.03673 0.67256 0.15063 0.0
H75 H 0.03656 0.69842 0.24466 0.0
H76 H 0.02667 0.7821 0.05512 0.0
H77 H 0.03572 0.822 0.23444 0.0
H78 H 0.03883 0.79037 0.30746 0.0
H79 H 0.03032 0.75058 0.12818 0.0
C80 C 0.77192 0.02565 0.53775 0.0
C81 C 0.75427 0.02592 0.49271 0.0
C82 C 0.72927 0.02386 0.59019 0.0
C83 C 0.73322 0.02493 0.51861 0.0
C84 C 0.74702 0.02371 0.63497 0.0
C85 C 0.76801 0.02449 0.60908 0.0
U86 U 0.81371 0.02311 0.39072 0.0
O87 O 0.84324 0.04173 0.37358 0.0
O88 O 0.84507 1.0072 0.3835 0.0
C89 C 0.85545 0.02483 0.36883 0.0
C90 C 0.7944 0.02632 0.51178 0.0
C91 C 0.87051 0.02416 0.30892 0.0
C92 C 0.90712 0.02702 0.26492 0.0
C93 C 0.89257 0.02665 0.32035 0.0
C94 C 0.87793 1.02205 0.18493 0.0
C95 C 0.90001 0.02482 0.19648 0.0
C96 C 0.86334 1.02166 0.24052 0.0
C97 C 0.77594 1.01664 0.22235 0.0
C98 C 0.76668 0.03046 0.10991 0.0
C99 C 0.74113 1.00902 0.17364 0.0
C100 C 0.75609 1.00633 0.22636 0.0
C101 C 0.74606 1.02192 0.11673 0.0
C102 C 0.78155 0.0279 0.16269 0.0
C103 C 0.78916 1.01863 0.28398 0.0
O104 O 0.80201 1.00841 0.48721 0.0
O105 O 0.79981 0.0428 0.4738 0.0
O106 O 0.79555 0.03737 0.30583 0.0
O107 O 0.79598 1.00212 0.31908 0.0
H108 H 0.75678 0.02691 0.43749 0.0
H109 H 0.71999 0.02544 0.48265 0.0
H110 H 0.74467 1.02281 0.69029 0.0
H111 H 0.78126 0.0242 0.64502 0.0
H112 H 0.92393 0.02959 0.27543 0.0
H113 H 0.89856 0.02871 0.37237 0.0
H114 H 0.87192 1.02069 0.1327 0.0
H115 H 0.84643 1.01981 0.23003 0.0
H116 H 0.77058 0.04075 0.06683 0.0
H117 H 0.7251 1.00281 0.18055 0.0
H118 H 0.75149 0.99782 0.27269 0.0
H119 H 0.79685 0.03594 0.15909 0.0
C120 C 0.51901 0.76828 0.54696 0.0
C121 C 0.504 0.75374 0.52036 0.0
C122 C 0.52024 0.72432 0.58459 0.0
C123 C 0.5046 0.7322 0.53896 0.0
C124 C 0.5346 0.73898 0.61414 0.0
C125 C 0.53398 0.76069 0.59548 0.0
U126 U 0.5217 0.81069 0.40338 0.0
O127 O 0.53809 0.84172 0.3938 0.0
O128 O 0.50321 0.84016 0.3877 0.0
C129 C 0.52033 0.85212 0.38082 0.0
C130 C 0.51927 0.79111 0.524 0.0
C131 C 0.52056 0.86724 0.32118 0.0
C132 C 0.51525 0.90341 0.27852 0.0
C133 C 0.51487 0.8885 0.33246 0.0
C134 C 0.52684 0.87614 0.1995 0.0
C135 C 0.52152 0.89769 0.211 0.0
C136 C 0.52635 0.86113 0.25382 0.0
C137 C 0.5263 0.7726 0.23597 0.0
C138 C 0.51626 0.7652 0.11792 0.0
C139 C 0.53176 0.73747 0.18888 0.0
C140 C 0.53375 0.75179 0.24342 0.0
C141 C 0.52232 0.74392 0.12656 0.0
C142 C 0.51816 0.77947 0.17258 0.0
C143 C 0.52465 0.78629 0.29621 0.0
O144 O 0.5373 0.79829 0.49785 0.0
O145 O 0.50251 0.79783 0.48945 0.0
O146 O 0.50607 0.79263 0.32003 0.0
O147 O 0.54166 0.793 0.32951 0.0
H148 H 0.49206 0.75883 0.48357 0.0
H149 H 0.49319 0.72143 0.51547 0.0
H150 H 0.54695 0.73353 0.64896 0.0
H151 H 0.54562 0.77148 0.61764 0.0
H152 H 0.51042 0.91951 0.29015 0.0
H153 H 0.51014 0.89367 0.38355 0.0
H154 H 0.53186 0.87089 0.14887 0.0
H155 H 0.53069 0.84481 0.24331 0.0
H156 H 0.509 0.77048 0.07019 0.0
H157 H 0.53617 0.72103 0.19714 0.0
H158 H 0.53985 0.74628 0.29258 0.0
H159 H 0.51241 0.79557 0.16639 0.0
C160 C 0.26959 0.51885 0.88482 0.0
C161 C 0.25245 0.5151 0.93013 0.0
C162 C 0.22693 0.51559 0.83396 0.0
C163 C 0.2314 0.51336 0.90487 0.0
C164 C 0.24404 0.51965 0.78877 0.0
C165 C 0.26511 0.5212 0.81394 0.0
U166 U 0.31665 0.51744 0.02081 0.0
O167 O 0.34453 0.53892 0.02248 0.0
O168 O 0.34944 0.50478 1.01079 0.0
C169 C 0.35833 0.52326 0.02478 0.0
C170 C 0.2922 0.5203 0.90932 0.0
C171 C 0.37313 0.52365 0.08514 0.0
C172 C 0.4092 0.52239 0.13409 0.0
C173 C 0.39543 0.52275 0.07642 0.0
C174 C 0.37859 0.52413 0.20999 0.0
C175 C 0.4009 0.52275 0.20166 0.0
C176 C 0.36491 0.52465 0.15263 0.0
C177 C 0.28098 0.50897 0.18472 0.0
C178 C 0.26247 0.52129 0.28685 0.0
C179 C 0.24272 0.50484 0.19324 0.0
C180 C 0.26172 0.50157 0.15702 0.0
C181 C 0.24287 0.51604 0.25625 0.0
C182 C 0.28142 0.51771 0.25121 0.0
C183 C 0.30043 0.51068 0.14362 0.0
O184 O 0.29726 0.53659 0.94861 0.0
O185 O 0.30136 0.50259 0.92973 0.0
O186 O 0.30527 0.49516 0.101 0.0
O187 O 0.30403 0.52967 0.11806 0.0
H188 H 0.25536 0.51327 0.98487 0.0
H189 H 0.21855 0.51002 0.94076 0.0
H190 H 0.24119 0.52107 0.73382 0.0
H191 H 0.27801 0.52403 0.77773 0.0
H192 H 0.42625 0.52097 0.12591 0.0
H193 H 0.40219 0.52193 0.02504 0.0
H194 H 0.37166 0.52435 0.26124 0.0
H195 H 0.34782 0.52544 0.16108 0.0
H196 H 0.26311 0.52992 0.33518 0.0
H197 H 0.22778 0.50011 0.16949 0.0
H198 H 0.26118 0.49454 0.10603 0.0
H199 H 0.29631 0.52333 0.27332 0.0
C200 C 0.03193 0.26523 0.88089 0.0
C201 C 0.02745 0.24907 0.92856 0.0
C202 C 0.03404 0.22159 0.84116 0.0
C203 C 0.02846 0.22765 0.90901 0.0
C204 C 0.0376 0.23781 0.79242 0.0
C205 C 0.03662 0.25938 0.81221 0.0
U206 U 0.03542 0.3122 1.01331 0.0
O207 O 1.01516 0.34074 0.01595 0.0
O208 O 0.04976 0.34419 1.00411 0.0
C209 C 0.03155 0.35381 0.01708 0.0
C210 C 0.03146 0.2881 0.90162 0.0
C211 C 0.03161 0.36944 0.07482 0.0
C212 C 0.02685 0.40583 0.11514 0.0
C213 C 0.02741 0.39088 0.06139 0.0
C214 C 0.03476 0.37818 0.19762 0.0
C215 C 0.03076 0.39989 0.18436 0.0
C216 C 0.0351 0.36317 0.14362 0.0
C217 C 0.04229 0.27554 0.17422 0.0
C218 C 0.03335 0.25853 0.28264 0.0
C219 C 0.03686 0.23759 0.17814 0.0
C220 C 0.04233 0.25581 0.14106 0.0
C221 C 0.03114 0.23908 0.24826 0.0
C222 C 0.03887 0.2767 0.2456 0.0
C223 C 0.04152 0.29532 0.13532 0.0
O224 O 1.01529 0.29415 0.94024 0.0
O225 O 0.04966 0.2966 0.92172 0.0
O226 O 0.05732 0.29968 0.09281 0.0
O227 O 1.0226 0.29989 0.11024 0.0
H228 H 1.02337 0.25301 0.98131 0.0
H229 H 1.02523 0.21567 0.94781 0.0
H230 H 0.04196 0.23384 0.73989 0.0
H231 H 0.03986 0.27154 0.774 0.0
H232 H 1.02305 0.42207 0.10195 0.0
H233 H 1.02438 0.39611 1.00905 0.0
H234 H 0.038 0.37273 0.24952 0.0
H235 H 0.03817 0.34665 0.15558 0.0
H236 H 0.02898 0.26007 0.33652 0.0
H237 H 0.03562 0.22259 0.15102 0.0
H238 H 0.04511 0.25472 0.08604 0.0
H239 H 0.03874 0.29193 0.27167 0.0
C240 C 0.28291 0.02941 0.87358 0.0
C241 C 0.30103 0.02907 0.9164 0.0
C242 C 0.32474 0.03045 0.81569 0.0
C243 C 0.32174 0.0295 0.88768 0.0
C244 C 0.30659 0.03079 0.77303 0.0
C245 C 0.28595 0.03012 0.80164 0.0
U246 U 0.23812 0.03068 0.0171 0.0
O247 O 0.20875 1.01126 0.01938 0.0
O248 O 0.20634 0.04584 1.01329 0.0
C249 C 0.19611 0.02783 0.0234 0.0
C250 C 0.2607 0.02888 0.90154 0.0
C251 C 0.18027 0.02746 0.0809 0.0
C252 C 0.14318 0.02474 0.11914 0.0
C253 C 0.1584 0.02595 0.06596 0.0
C254 C 0.17138 0.02689 0.20402 0.0
C255 C 0.14937 0.025 0.18912 0.0
C256 C 0.18665 0.02804 0.15056 0.0
C257 C 0.27489 0.0354 0.18251 0.0
C258 C 0.28832 0.03308 0.29933 0.0
C259 C 0.31296 0.03305 0.20259 0.0
C260 C 0.29578 0.03484 0.15674 0.0
C261 C 0.3093 0.03162 0.2743 0.0
C262 C 0.2713 0.03499 0.25375 0.0
C263 C 0.25611 0.0343 0.13821 0.0
O264 O 0.25511 1.01206 0.93764 0.0
O265 O 0.2531 0.04663 0.92747 0.0
O266 O 0.25138 0.05084 0.09979 0.0
O267 O 0.25209 1.01592 0.10885 0.0
H268 H 0.29918 0.02858 0.97192 0.0
H269 H 0.33545 0.02955 0.92179 0.0
H270 H 0.30839 0.03163 0.71748 0.0
H271 H 0.27227 0.0303 0.76737 0.0
H272 H 0.12646 0.02369 0.1052 0.0
H273 H 0.15303 0.02554 1.01284 0.0
H274 H 0.17688 0.02697 0.257 0.0
H275 H 0.20345 0.02914 0.16362 0.0
H276 H 0.28492 0.03174 0.35396 0.0
H277 H 0.32903 0.03229 0.18198 0.0
H278 H 0.29872 0.03517 0.10168 0.0
H279 H 0.25517 0.03527 0.27417 0.0
C280 C 0.5192 0.27959 0.88043 0.0
C281 C 0.50994 0.2969 0.91522 0.0
C282 C 0.52018 0.3213 0.8215 0.0
C283 C 0.51037 0.31748 0.88599 0.0
C284 C 0.52906 0.30378 0.78653 0.0
C285 C 0.52853 0.28331 0.81548 0.0
U286 U 0.51678 0.23431 0.02291 0.0
O287 O 0.53647 0.20533 0.02349 0.0
O288 O 0.50174 0.20245 0.01841 0.0
C289 C 0.51993 0.19253 0.0289 0.0
C290 C 0.51919 0.25745 0.90873 0.0
C291 C 0.52061 0.17764 0.0889 0.0
C292 C 0.52382 0.14163 0.13601 0.0
C293 C 0.52164 0.15551 0.0792 0.0
C294 C 0.52362 0.17177 0.21316 0.0
C295 C 0.52526 0.1496 0.20385 0.0
C296 C 0.52131 0.18555 0.15666 0.0
C297 C 0.51214 0.27141 0.18514 0.0
C298 C 0.51757 0.28722 0.2979 0.0
C299 C 0.5186 0.30913 0.19491 0.0
C300 C 0.51405 0.29139 0.15413 0.0
C301 C 0.52144 0.3069 0.26664 0.0
C302 C 0.51298 0.26954 0.25719 0.0
C303 C 0.5128 0.25187 0.14479 0.0
O304 O 0.53596 0.25156 0.94475 0.0
O305 O 0.50117 0.24986 0.93387 0.0
O306 O 0.49631 0.24725 0.10552 0.0
O307 O 0.53131 0.2475 0.11624 0.0
H308 H 0.50256 0.29457 0.9652 0.0
H309 H 0.50357 0.33053 0.9149 0.0
H310 H 0.53655 0.3059 0.73657 0.0
H311 H 0.53558 0.27028 0.78696 0.0
H312 H 0.52512 0.12473 0.1266 0.0
H313 H 0.5212 0.14896 0.02753 0.0
H314 H 0.52433 0.17856 0.26447 0.0
H315 H 0.52047 0.2025 0.16587 0.0
H316 H 0.51993 0.28512 0.35288 0.0
H317 H 0.52144 0.32429 0.17001 0.0
H318 H 0.51345 0.29302 0.09851 0.0
H319 H 0.51166 0.2541 0.28161 0.0
Pr320 Pr 0.04759 1.01686 0.75134 0.0
Pr321 Pr 1.00788 0.02724 0.64537 0.0
C322 C 0.0704 1.0002 0.85329 0.0
C323 C 0.06621 0.9789 0.87977 0.0
C324 C 0.08291 0.96518 0.89817 0.0
C325 C 0.07837 0.94403 0.91555 0.0
C326 C 0.05721 0.93662 0.9127 0.0
C327 C 0.04092 0.95005 0.88999 0.0
C328 C 0.04528 0.97105 0.87489 0.0
C329 C 0.06227 1.02246 0.61484 0.0
C330 C 1.01914 0.97666 0.67677 0.0
C331 C 0.98907 0.04422 0.53513 0.0
C332 C 0.98874 0.06665 0.51359 0.0
C333 C 0.96913 0.07675 0.50265 0.0
C334 C 0.9685 0.09825 0.48529 0.0
C335 C 0.9875 0.11002 0.47798 0.0
C336 C 1.00713 0.10012 0.49175 0.0
C337 C 1.00774 0.07864 0.50961 0.0
C338 C 0.99183 0.02325 0.78093 0.0
C339 C 0.03414 0.0672 0.73187 0.0
O340 O 0.05539 1.01431 0.86508 0.0
O341 O 0.07712 1.00015 0.78949 0.0
O342 O 0.04348 0.02311 0.63774 0.0
O343 O 0.07513 1.02008 0.66662 0.0
O344 O 1.00932 0.98975 0.6333 0.0
O345 O 0.03179 0.98354 0.72689 0.0
O346 O 1.00752 0.03449 0.53125 0.0
O347 O 0.97846 0.03989 0.59164 0.0
O348 O 1.01118 1.02108 0.76202 0.0
O349 O 0.97998 0.02685 0.72709 0.0
O350 O 0.04516 0.05316 0.76804 0.0
O351 O 1.02077 0.06152 0.68152 0.0
H352 H 0.09926 0.97086 0.89958 0.0
H353 H 0.09107 0.93382 0.93382 0.0
H354 H 1.02449 0.94457 0.88832 0.0
H355 H 0.03216 0.98117 0.85941 0.0
H356 H 0.95427 0.06799 0.50746 0.0
H357 H 0.95313 0.10559 0.47619 0.0
H358 H 1.02206 0.10872 0.48617 0.0
H359 H 1.02311 0.07141 0.51975 0.0
Pr360 Pr 0.52786 0.04129 0.74772 0.0
Pr361 Pr 0.52401 1.00395 0.65007 0.0
C362 C 0.54424 0.06533 0.84745 0.0
C363 C 0.5661 0.06343 0.87496 0.0
C364 C 0.58007 0.08074 0.86962 0.0
C365 C 0.60159 0.07847 0.88635 0.0
C366 C 0.60957 0.05891 0.90999 0.0
C367 C 0.59567 0.04141 0.91433 0.0
C368 C 0.57414 0.04362 0.89663 0.0
C369 C 0.52232 0.05389 0.60938 0.0
C370 C 0.57312 1.01741 0.68725 0.0
C371 C 0.50897 0.98482 0.53754 0.0
C372 C 0.48678 0.98771 0.51362 0.0
C373 C 0.47301 0.97018 0.50689 0.0
C374 C 0.45104 0.97325 0.49757 0.0
C375 C 0.44257 0.99388 0.49612 0.0
C376 C 0.45634 1.01136 0.50168 0.0
C377 C 0.47819 1.00833 0.51009 0.0
C378 C 0.5242 0.9863 0.78386 0.0
C379 C 0.47932 0.02779 0.71645 0.0
O380 O 0.53112 0.04961 0.86079 0.0
O381 O 0.54314 0.07194 0.78359 0.0
O382 O 0.53421 0.03893 0.63073 0.0
O383 O 0.51279 0.06274 0.66169 0.0
O384 O 0.56189 1.00458 0.6468 0.0
O385 O 0.56345 0.03073 0.72964 0.0
O386 O 0.5214 1.00154 0.53374 0.0
O387 O 0.51086 0.97471 0.59611 0.0
O388 O 0.52549 1.00587 0.7691 0.0
O389 O 0.5243 0.975 0.7278 0.0
O390 O 0.49112 0.03848 0.76059 0.0
O391 O 0.48813 1.01587 0.66794 0.0
H392 H 0.57443 0.09594 0.8509 0.0
H393 H 0.61203 0.09213 0.8809 0.0
H394 H 0.60132 0.02614 0.93239 0.0
H395 H 0.56393 0.02973 0.89891 0.0
H396 H 0.47914 0.95416 0.51126 0.0
H397 H 0.44059 0.95956 0.49315 0.0
H398 H 0.45018 0.02742 0.49958 0.0
H399 H 0.4882 1.02221 0.51682 0.0
Pr400 Pr 0.50645 0.52612 0.75802 0.0
Pr401 Pr 0.54507 0.51913 0.64285 0.0
C402 C 0.48851 0.54027 0.87373 0.0
C403 C 0.48829 0.56244 0.89884 0.0
C404 C 0.47261 0.57659 0.87524 0.0
C405 C 0.47434 0.59826 0.8887 0.0
C406 C 0.49142 0.60634 0.92808 0.0
C407 C 0.5068 0.59204 0.95337 0.0
C408 C 0.50532 0.57038 0.93858 0.0
C409 C 0.48934 0.52283 0.62368 0.0
C410 C 0.52996 0.56858 0.67477 0.0
C411 C 0.56295 0.50307 0.53081 0.0
C412 C 0.56294 0.48022 0.51412 0.0
C413 C 0.58209 0.46878 0.51732 0.0
C414 C 0.582 0.44678 0.50923 0.0
C415 C 0.5628 0.43578 0.49649 0.0
C416 C 0.54352 0.4471 0.49576 0.0
C417 C 0.54357 0.4691 0.50472 0.0
C418 C 0.56134 0.52177 0.77866 0.0
C419 C 0.52163 0.47641 0.72098 0.0
O420 O 0.50716 0.53085 0.87356 0.0
O421 O 0.47733 0.53646 0.81786 0.0
O422 O 0.50881 0.52253 0.64151 0.0
O423 O 0.47764 0.52402 0.67911 0.0
O424 O 0.5412 0.55578 0.63428 0.0
O425 O 0.51755 0.56144 0.72591 0.0
O426 O 0.54438 0.51263 0.52832 0.0
O427 O 0.57444 0.50847 0.5846 0.0
O428 O 0.54227 0.5229 0.75822 0.0
O429 O 0.57364 0.51948 0.72502 0.0
O430 O 0.50992 0.48834 0.76344 0.0
O431 O 0.53382 0.48472 0.67201 0.0
H432 H 0.45937 0.57108 0.84395 0.0
H433 H 0.46243 0.60865 0.86662 0.0
H434 H 0.52001 0.59743 0.98492 0.0
H435 H 0.51779 0.55994 0.95709 0.0
H436 H 0.59712 0.47684 0.52682 0.0
H437 H 0.59707 0.4384 0.51138 0.0
H438 H 0.52848 0.43914 0.48562 0.0
H439 H 0.5284 0.47732 0.50429 0.0
Pr440 Pr 1.0213 0.50225 0.74713 0.0
Pr441 Pr 0.03153 0.54215 0.65019 0.0
C442 C 1.00553 0.47959 0.85122 0.0
C443 C 0.98374 0.48181 0.87675 0.0
C444 C 0.97222 0.46416 0.90056 0.0
C445 C 0.95095 0.46655 0.92095 0.0
C446 C 0.94107 0.48645 0.91552 0.0
C447 C 0.95219 0.50368 0.88741 0.0
C448 C 0.97345 0.50145 0.86882 0.0
C449 C 0.02688 0.4871 0.61223 0.0
C450 C 0.9804 0.52903 0.67056 0.0
C451 C 0.0479 0.56458 0.54615 0.0
C452 C 0.06996 0.56402 0.52096 0.0
C453 C 0.08046 0.58303 0.5047 0.0
C454 C 0.10181 0.58274 0.48404 0.0
C455 C 0.1129 0.56345 0.48016 0.0
C456 C 0.10276 0.54454 0.5 0.0
C457 C 0.08139 0.54481 0.52034 0.0
C458 C 0.02621 0.5574 0.78543 0.0
C459 C 0.07231 0.51488 0.72528 0.0
O460 O 1.01816 0.49595 0.86158 0.0
O461 O 1.00652 0.47211 0.78852 0.0
O462 O 0.02826 0.50633 0.63169 0.0
O463 O 1.02355 0.47494 0.66513 0.0
O464 O 0.99412 0.54138 0.63696 0.0
O465 O 0.98677 0.51433 0.71496 0.0
O466 O 0.03633 0.54747 0.53583 0.0
O467 O 0.04585 0.57243 0.6081 0.0
O468 O 1.02472 0.53813 0.76616 0.0
O469 O 0.02921 0.56952 0.7322 0.0
O470 O 0.05855 0.50266 0.75896 0.0
O471 O 0.06606 0.52982 0.68153 0.0
H472 H 0.97979 0.44876 0.90464 0.0
H473 H 0.94254 0.45324 0.94388 0.0
H474 H 0.94489 0.51926 0.88467 0.0
H475 H 0.98195 0.51522 0.84936 0.0
H476 H 0.07209 0.59805 0.50726 0.0
H477 H 0.10946 0.59745 0.46857 0.0
H478 H 0.11102 0.52947 0.49632 0.0
H479 H 0.07375 0.52999 0.53478 0.0
H480 H 0.14755 0.04544 0.31646 0.0
H481 H 0.11377 0.99923 0.19079 0.0
H482 H 0.08623 0.99573 0.28127 0.0
H483 H 0.13899 1.02059 0.4788 0.0
H484 H 0.13503 0.04503 0.52553 0.0
H485 H 0.15138 0.04484 0.44912 0.0
H486 H 0.12781 0.07438 0.39579 0.0
H487 H 0.11126 0.07449 0.47199 0.0
H488 H 0.09939 0.07022 0.38844 0.0
H489 H 0.06182 0.99722 0.38778 0.0
H490 H 0.04546 1.00107 0.50401 0.0
H491 H 0.09614 0.04446 0.56234 0.0
C492 C 0.13443 0.03452 0.3079 0.0
C493 C 0.1329 1.02279 0.24552 0.0
C494 C 0.11524 1.00879 0.237 0.0
C495 C 0.09946 1.00662 0.28842 0.0
C496 C 0.10134 1.01857 0.34871 0.0
C497 C 0.11846 0.03217 0.3588 0.0
C498 C 0.11699 0.04285 0.42896 0.0
C499 C 0.13677 0.03802 0.47321 0.0
C500 C 0.11368 0.06692 0.42079 0.0
C501 C 0.09703 0.03238 0.45805 0.0
C502 C 0.0878 1.0189 0.41028 0.0
C503 C 0.06894 1.0078 0.42534 0.0
C504 C 0.05962 1.01022 0.49124 0.0
C505 C 0.06941 0.02323 0.54176 0.0
C506 C 0.08824 0.03453 0.52443 0.0
H507 H 0.5069 0.11034 0.23847 0.0
H508 H 0.55387 0.15647 0.30774 0.0
H509 H 0.56034 0.13511 0.41205 0.0
H510 H 0.48372 0.09967 0.39974 0.0
H511 H 0.48027 0.07147 0.38758 0.0
H512 H 0.4808 0.08891 0.31399 0.0
H513 H 0.51162 0.06708 0.26087 0.0
H514 H 0.51121 0.04953 0.33444 0.0
H515 H 0.53564 0.06279 0.31014 0.0
H516 H 0.56018 0.11048 0.51333 0.0
H517 H 0.55237 0.08473 0.60643 0.0
H518 H 0.50513 0.05411 0.47653 0.0
C519 C 0.51878 0.11575 0.27512 0.0
C520 C 0.52973 0.13535 0.26468 0.0
C521 C 0.545 0.14183 0.31457 0.0
C522 C 0.54894 0.12966 0.37396 0.0
C523 C 0.53759 0.11079 0.38353 0.0
C524 C 0.52287 0.10374 0.33549 0.0
C525 C 0.51214 0.08335 0.3608 0.0
C526 C 0.48779 0.08603 0.36584 0.0
C527 C 0.518 0.06457 0.31375 0.0
C528 C 0.52227 0.0808 0.43196 0.0
C529 C 0.53733 0.09654 0.44293 0.0
C530 C 0.54854 0.09799 0.50501 0.0
C531 C 0.54402 0.08328 0.55768 0.0
C532 C 0.5283 0.06731 0.54877 0.0
C533 C 0.51743 0.06595 0.48462 0.0
H534 H 0.43587 0.54632 0.2511 0.0
H535 H 0.39712 0.49052 0.29258 0.0
H536 H 0.41852 0.48309 0.39636 0.0
H537 H 0.48713 0.52455 0.31594 0.0
H538 H 0.49552 0.54914 0.3553 0.0
H539 H 0.47849 0.54953 0.2803 0.0
H540 H 0.45088 0.57212 0.34652 0.0
H541 H 0.46784 0.57189 0.42153 0.0
H542 H 0.44059 0.56271 0.42794 0.0
H543 H 0.4425 0.48172 0.49646 0.0
H544 H 0.4658 0.48842 0.59641 0.0
H545 H 0.48956 0.54588 0.4994 0.0
C546 C 0.43215 0.53242 0.2818 0.0
C547 C 0.41483 0.51885 0.26329 0.0
C548 C 0.41023 0.50108 0.3055 0.0
C549 C 0.4224 0.49667 0.36445 0.0
C550 C 0.43922 0.51023 0.38158 0.0
C551 C 0.44407 0.52791 0.34225 0.0
C552 C 0.46223 0.54051 0.3761 0.0
C553 C 0.48202 0.54096 0.3291 0.0
C554 C 0.45494 0.56315 0.39411 0.0
C555 C 0.46637 0.52731 0.44111 0.0
C556 C 0.45309 0.50972 0.44177 0.0
C557 C 0.45313 0.49531 0.4963 0.0
C558 C 0.46656 0.49916 0.55279 0.0
C559 C 0.47994 0.51727 0.55526 0.0
C560 C 0.48007 0.53147 0.49801 0.0
H561 H 1.02039 0.39547 0.32469 0.0
H562 H 0.04242 0.44221 0.17534 0.0
H563 H 0.042 0.4696 0.26532 0.0
H564 H 0.98642 0.42991 0.42475 0.0
H565 H 0.99393 0.41863 0.50667 0.0
H566 H 0.9947 0.40256 0.42982 0.0
H567 H 0.03445 0.3938 0.45279 0.0
H568 H 0.03373 0.40973 0.52994 0.0
H569 H 0.05337 0.41518 0.46417 0.0
H570 H 0.03956 0.49267 0.37319 0.0
H571 H 0.03722 0.5081 0.49083 0.0
H572 H 1.01902 0.44636 0.57105 0.0
C573 C 1.02528 0.41138 0.31049 0.0
C574 C 0.03102 0.41641 0.24128 0.0
C575 C 0.0372 0.4377 0.2265 0.0
C576 C 0.03723 0.45352 0.27777 0.0
C577 C 0.03135 0.44803 0.34477 0.0
C578 C 1.0257 0.42741 0.36146 0.0
C579 C 1.02093 0.42556 0.43823 0.0
C580 C 0.99761 0.41877 0.45056 0.0
C581 C 0.03655 0.41015 0.47333 0.0
C582 C 1.0248 0.44832 0.46174 0.0
C583 C 0.03065 0.4611 0.40705 0.0
C584 C 0.03506 0.48274 0.41643 0.0
C585 C 0.03369 0.49143 0.48344 0.0
C586 C 0.02808 0.47854 0.54043 0.0
C587 C 1.02349 0.45671 0.52878 0.0
H588 H 0.92445 0.99508 0.12454 0.0
H589 H 0.9099 0.06221 0.13544 0.0
H590 H 0.93471 0.06914 0.03846 0.0
H591 H 0.98169 1.00198 0.07801 0.0
H592 H 0.98198 0.97952 0.02035 0.0
H593 H 0.96413 0.97973 0.09345 0.0
H594 H 0.93193 0.97337 1.01234 0.0
H595 H 0.94965 0.97305 0.93911 0.0
H596 H 0.92746 0.99124 0.94111 0.0
H597 H 0.95975 0.06886 0.93726 0.0
H598 H 0.98165 0.06124 0.83422 0.0
H599 H 0.98064 0.99419 0.88403 0.0
C600 C 0.92662 1.01121 0.10646 0.0
C601 C 0.91519 0.02818 0.13753 0.0
C602 C 0.91844 0.04904 0.11244 0.0
C603 C 0.93258 0.05311 0.05751 0.0
C604 C 0.94362 0.03616 0.02783 0.0
C605 C 0.94083 1.01558 0.05119 0.0
C606 C 0.95421 1.00025 1.00804 0.0
C607 C 0.97152 0.98974 0.05263 0.0
C608 C 0.93996 0.98349 0.97305 0.0
C609 C 0.96427 1.0153 0.95528 0.0
C610 C 0.95821 0.036 0.9689 0.0
C611 C 0.96482 0.05275 0.92682 0.0
C612 C 0.97745 0.0483 0.86858 0.0
C613 C 0.98355 0.02726 0.8521 0.0
C614 C 0.97696 1.01053 0.89661 0.0
H615 H 0.51445 0.8933 0.0686 0.0
H616 H 0.53212 0.94023 0.22289 0.0
H617 H 0.53327 0.96776 0.13306 0.0
H618 H 0.54932 0.91363 0.93497 0.0
H619 H 0.53083 0.90808 0.86595 0.0
H620 H 0.53044 0.89207 0.943 0.0
H621 H 0.49027 0.90049 0.9596 0.0
H622 H 0.49059 0.91662 0.88279 0.0
H623 H 0.48172 0.92778 0.96348 0.0
H624 H 0.53223 0.991 0.02478 0.0
H625 H 0.53123 1.00671 0.90753 0.0
H626 H 0.51662 0.94476 0.82197 0.0
C627 C 0.51873 0.90928 0.08384 0.0
C628 C 0.52283 0.9143 0.15425 0.0
C629 C 0.52824 0.9357 0.17051 0.0
C630 C 0.52912 0.9516 0.1194 0.0
C631 C 0.5248 0.94612 0.05111 0.0
C632 C 0.51988 0.92542 0.03313 0.0
C633 C 0.51643 0.92368 0.95553 0.0
C634 C 0.53273 0.90846 0.92295 0.0
C635 C 0.49338 0.91673 0.93942 0.0
C636 C 0.5204 0.94651 0.9327 0.0
C637 C 0.52496 0.95928 0.98875 0.0
C638 C 0.52883 0.98104 0.9806 0.0
C639 C 0.52824 0.98988 0.91367 0.0
C640 C 0.52411 0.97703 0.85515 0.0
C641 C 0.52003 0.95504 0.86538 0.0
H642 H 0.63822 0.4931 0.09714 0.0
H643 H 0.62143 0.55403 0.18549 0.0
H644 H 0.59575 0.56005 0.09052 0.0
H645 H 0.63621 0.50651 0.92088 0.0
H646 H 0.62348 0.48225 0.89302 0.0
H647 H 0.63968 0.48237 0.96969 0.0
H648 H 0.60789 0.46719 0.03972 0.0
H649 H 0.5915 0.4672 0.96321 0.0
H650 H 0.58272 0.48101 0.03951 0.0
H651 H 0.57179 0.55965 0.98381 0.0
H652 H 0.55414 0.55398 0.87052 0.0
H653 H 0.5871 0.49397 0.84888 0.0
C654 C 0.62912 0.50769 0.09637 0.0
C655 C 0.63187 0.52311 0.14907 0.0
C656 C 0.61948 0.54191 0.14632 0.0
C657 C 0.60482 0.54546 0.09247 0.0
C658 C 0.60233 0.52992 0.0417 0.0
C659 C 0.6141 0.51135 0.04331 0.0
C660 C 0.60831 0.49722 0.98237 0.0
C661 C 0.62811 0.49179 0.93891 0.0
C662 C 0.59694 0.47695 1.0077 0.0
C663 C 0.59283 0.51144 0.94333 0.0
C664 C 0.58894 0.5299 0.9798 0.0
C665 C 0.57476 0.54524 0.95496 0.0
C666 C 0.5647 0.54187 0.89071 0.0
C667 C 0.56926 0.52359 0.85097 0.0
C668 C 0.58337 0.50813 0.87817 0.0
H669 H 1.02449 0.6501 0.07076 0.0
H670 H 0.03667 0.60128 0.22492 0.0
H671 H 0.03485 0.57417 0.13524 0.0
H672 H 0.98988 0.62101 0.95956 0.0
H673 H 1.00167 0.63072 0.8807 0.0
H674 H 1.0026 0.64675 0.95761 0.0
H675 H 0.04375 0.64923 0.94772 0.0
H676 H 0.04296 0.63326 0.87063 0.0
H677 H 0.05926 0.6252 0.94259 0.0
H678 H 0.03091 0.55117 0.0273 0.0
H679 H 0.02887 0.5357 0.90955 0.0
H680 H 1.02316 0.59909 0.82431 0.0
C681 C 0.02698 0.63384 0.08657 0.0
C682 C 0.02999 0.62838 0.15741 0.0
C683 C 0.03323 0.60649 0.17303 0.0
C684 C 0.03253 0.59069 0.12172 0.0
C685 C 0.0292 0.59665 0.05344 0.0
C686 C 0.02694 0.61777 0.03551 0.0
C687 C 1.02489 0.61998 0.95752 0.0
C688 C 1.00348 0.63022 0.93772 0.0
C689 C 0.04384 0.63267 0.92787 0.0
C690 C 1.02574 0.59681 0.93497 0.0
C691 C 0.02816 0.58355 0.99109 0.0
C692 C 0.02909 0.56146 0.98298 0.0
C693 C 0.02778 0.55274 0.9159 0.0
C694 C 1.02572 0.56604 0.85746 0.0
C695 C 1.02464 0.58838 0.86777 0.0
H696 H 0.038 0.2214 0.37659 0.0
H697 H 0.99749 0.2178 0.19524 0.0
H698 H 0.97764 0.18808 0.24693 0.0
H699 H 0.04509 0.16924 0.39957 0.0
H700 H 0.04326 0.16773 0.49208 0.0
H701 H 0.05158 0.19207 0.45177 0.0
H702 H 1.02201 0.21275 0.512 0.0
H703 H 1.01193 0.18926 0.55435 0.0
H704 H 0.99447 0.20494 0.50168 0.0
H705 H 0.96587 0.1565 0.30646 0.0
H706 H 0.96356 0.12283 0.36938 0.0
H707 H 1.01103 0.14547 0.51512 0.0
C708 C 1.0247 0.2145 0.34864 0.0
C709 C 1.01944 0.22153 0.28157 0.0
C710 C 1.00204 0.21224 0.24604 0.0
C711 C 0.99044 0.19562 0.27543 0.0
C712 C 0.9963 0.18861 0.34071 0.0
C713 C 1.01292 0.19772 0.37732 0.0
C714 C 1.01722 0.18549 0.44326 0.0
C715 C 0.04066 0.1782 0.44687 0.0
C716 C 1.01108 0.1989 0.50655 0.0
C717 C 1.00186 0.16697 0.43399 0.0
C718 C 0.98935 0.16974 0.37601 0.0
C719 C 0.97511 0.15431 0.35308 0.0
C720 C 0.97387 0.13523 0.38937 0.0
C721 C 0.98696 0.1316 0.44767 0.0
C722 C 1.0008 0.14789 0.47104 0.0
H723 H 0.34209 1.00378 0.2554 0.0
H724 H 0.31608 0.04863 0.40307 0.0
H725 H 0.3449 0.03962 0.48501 0.0
H726 H 0.36071 0.96421 0.37978 0.0
H727 H 0.38456 0.95866 0.33084 0.0
H728 H 0.36057 0.96697 0.28718 0.0
H729 H 0.38123 0.99819 0.23029 0.0
H730 H 0.40528 0.98986 0.27303 0.0
H731 H 0.3957 1.01661 0.28419 0.0
H732 H 0.37882 0.02881 0.54459 0.0
H733 H 0.41558 1.01778 0.57494 0.0
H734 H 0.41864 0.97943 0.38963 0.0
C735 C 0.34247 1.01177 0.30487 0.0
C736 C 0.32693 0.02696 0.32277 0.0
C737 C 0.32779 0.03683 0.38848 0.0
C738 C 0.34403 0.03176 0.43541 0.0
C739 C 0.35915 1.01672 0.41592 0.0
C740 C 0.35849 1.00689 0.35218 0.0
C741 C 0.37746 0.99251 0.34139 0.0
C742 C 0.37039 0.96921 0.33441 0.0
C743 C 0.3907 0.99973 0.27854 0.0
C744 C 0.38932 0.99626 0.40817 0.0
C745 C 0.37842 1.01011 0.45092 0.0
C746 C 0.3873 1.01764 0.51221 0.0
C747 C 0.40812 1.01134 0.52901 0.0
C748 C 0.4196 0.99753 0.48496 0.0
C749 C 0.40986 0.98948 0.42498 0.0
H750 H 0.50925 0.32653 0.38823 0.0
H751 H 0.55911 0.32439 0.23272 0.0
H752 H 0.57862 0.35274 0.2927 0.0
H753 H 0.50584 0.37979 0.40274 0.0
H754 H 0.5026 0.38179 0.49502 0.0
H755 H 0.49469 0.35791 0.45106 0.0
H756 H 0.51923 0.3358 0.53066 0.0
H757 H 0.52713 0.35973 0.57519 0.0
H758 H 0.54711 0.34266 0.53795 0.0
H759 H 0.58977 0.38369 0.35331 0.0
H760 H 0.59131 0.41847 0.40849 0.0
H761 H 0.5347 0.40296 0.52866 0.0
C762 C 0.52449 0.33188 0.36807 0.0
C763 C 0.53266 0.32361 0.30558 0.0
C764 C 0.5525 0.33087 0.2799 0.0
C765 C 0.56386 0.34668 0.31423 0.0
C766 C 0.55526 0.35498 0.37457 0.0
C767 C 0.53607 0.34794 0.40184 0.0
C768 C 0.52935 0.36173 0.46252 0.0
C769 C 0.5068 0.37086 0.45211 0.0
C770 C 0.53079 0.34923 0.53059 0.0
C771 C 0.54654 0.37883 0.45935 0.0
C772 C 0.56181 0.37384 0.4105 0.0
C773 C 0.57835 0.3876 0.39323 0.0
C774 C 0.57913 0.40736 0.42522 0.0
C775 C 0.56335 0.41336 0.47368 0.0
C776 C 0.54709 0.39869 0.49222 0.0
H777 H 0.22898 0.52023 0.39162 0.0
H778 H 0.21267 0.53529 0.17915 0.0
H779 H 0.18053 0.55366 0.21843 0.0
H780 H 0.17868 0.50848 0.45137 0.0
H781 H 0.18074 0.52145 0.53409 0.0
H782 H 0.20442 0.51203 0.49167 0.0
H783 H 0.22101 0.54962 0.4988 0.0
H784 H 0.19725 0.55914 0.54136 0.0
H785 H 0.20667 0.57194 0.46387 0.0
H786 H 0.14954 0.56753 0.27479 0.0
H787 H 0.1181 0.57385 0.34781 0.0
H788 H 0.15227 0.54964 0.52541 0.0
C789 C 0.21867 0.52755 0.35368 0.0
C790 C 0.22308 0.52594 0.28216 0.0
C791 C 0.2093 0.53573 0.23395 0.0
C792 C 0.19122 0.54661 0.25578 0.0
C793 C 0.18722 0.54784 0.3261 0.0
C794 C 0.2004 0.53862 0.37474 0.0
C795 C 0.1911 0.54107 0.44679 0.0
C796 C 0.18856 0.51946 0.48303 0.0
C797 C 0.20483 0.55635 0.49025 0.0
C798 C 0.16971 0.55107 0.42929 0.0
C799 C 0.1685 0.55578 0.35974 0.0
C800 C 0.15033 0.56436 0.32959 0.0
C801 C 0.13261 0.56791 0.37131 0.0
C802 C 0.13307 0.56249 0.44191 0.0
C803 C 0.15186 0.55416 0.4717 0.0
H804 H 0.04793 0.81468 1.01344 0.0
H805 H 1.00411 0.83648 0.17194 0.0
H806 H 1.00338 0.87173 0.11868 0.0
H807 H 0.07962 0.85494 1.00168 0.0
H808 H 0.08263 0.85803 0.90965 0.0
H809 H 0.07548 0.83259 0.94492 0.0
H810 H 0.04164 0.83091 0.86932 0.0
H811 H 0.04885 0.8561 0.83142 0.0
H812 H 1.02296 0.85261 0.87063 0.0
H813 H 1.01627 0.90469 0.07873 0.0
H814 H 0.03337 0.93556 0.02536 0.0
H815 H 0.06627 0.89453 0.8802 0.0
C816 C 0.03749 0.8267 0.03473 0.0
C817 C 0.02653 0.82328 0.09766 0.0
C818 C 1.01305 0.83914 0.12481 0.0
C819 C 1.01235 0.85908 0.09454 0.0
C820 C 1.0247 0.8626 0.03608 0.0
C821 C 0.03625 0.84677 1.00393 0.0
C822 C 0.04938 0.85577 0.9445 0.0
C823 C 0.07318 0.85 0.95068 0.0
C824 C 0.04016 0.84842 0.87485 0.0
C825 C 0.0456 0.87933 0.95539 0.0
C826 C 0.03097 0.8826 1.00787 0.0
C827 C 0.02677 0.90253 0.03495 0.0
C828 C 0.03679 0.91988 1.00515 0.0
C829 C 0.05056 0.91725 0.94814 0.0
C830 C 0.05546 0.89676 0.92325 0.0
H831 H 0.71993 1.00379 0.01755 0.0
H832 H 0.73247 0.06159 0.13254 0.0
H833 H 0.70062 0.07815 0.08182 0.0
H834 H 0.69787 0.03293 0.85944 0.0
H835 H 0.67848 1.01233 0.84299 0.0
H836 H 0.70396 1.00575 0.88071 0.0
H837 H 0.68454 0.98763 0.983 0.0
H838 H 0.65906 0.99433 0.94615 0.0
H839 H 0.66544 1.00255 0.0329 0.0
H840 H 0.66609 0.08651 0.03614 0.0
H841 H 0.63002 0.0881 0.98818 0.0
H842 H 0.63897 0.02618 0.89328 0.0
C843 C 0.71613 1.0201 0.03009 0.0
C844 C 0.72858 0.03167 0.07791 0.0
C845 C 0.72319 0.05278 0.09489 0.0
C846 C 0.70519 0.06228 0.06643 0.0
C847 C 0.69301 0.05054 0.02013 0.0
C848 C 0.6983 0.03009 1.00068 0.0
C849 C 0.68156 1.02099 0.95205 0.0
C850 C 0.69103 1.01781 0.8795 0.0
C851 C 0.67208 1.00015 0.98028 0.0
C852 C 0.66531 0.0389 0.95244 0.0
C853 C 0.67266 0.05586 0.99099 0.0
C854 C 0.66032 0.07371 1.00383 0.0
C855 C 0.63984 0.07447 0.97609 0.0
C856 C 0.63181 0.05754 0.93562 0.0
C857 C 0.64476 0.03947 0.9235 0.0
H858 H 0.54608 0.71178 0.06984 0.0
H859 H 0.48252 0.73904 0.07485 0.0
H860 H 0.4685 0.70825 1.01099 0.0
H861 H 0.53977 0.68604 0.89366 0.0
H862 H 0.55519 0.66322 0.91946 0.0
H863 H 0.56113 0.689 0.95527 0.0
H864 H 0.55665 0.67387 0.07842 0.0
H865 H 0.5505 0.64809 0.04374 0.0
H866 H 0.53201 0.66079 0.10179 0.0
H867 H 0.46012 0.67215 0.97321 0.0
H868 H 0.45823 0.63433 0.94562 0.0
H869 H 0.5277 0.63096 0.94998 0.0
C870 C 0.52938 0.71151 0.05516 0.0
C871 C 0.51538 0.72777 0.07638 0.0
C872 C 0.49355 0.7269 0.05767 0.0
C873 C 0.48542 0.70945 0.02173 0.0
C874 C 0.49945 0.69327 1.00374 0.0
C875 C 0.52106 0.69433 0.0181 0.0
C876 C 0.53226 0.67405 0.99702 0.0
C877 C 0.54803 0.67832 0.93778 0.0
C878 C 0.5435 0.66359 0.05895 0.0
C879 C 0.51331 0.66101 0.9728 0.0
C880 C 0.4946 0.67249 0.977 0.0
C881 C 0.47471 0.66319 0.96646 0.0
C882 C 0.47385 0.64159 0.95041 0.0
C883 C 0.49281 0.62946 0.94374 0.0
C884 C 0.51282 0.63954 0.95449 0.0
H885 H 0.82152 0.51549 1.00988 0.0
H886 H 0.8464 0.52951 0.21417 0.0
H887 H 0.88291 0.52542 0.17105 0.0
H888 H 0.85195 0.47818 0.95865 0.0
H889 H 0.85902 0.48601 0.87203 0.0
H890 H 0.83476 0.49565 0.91021 0.0
H891 H 0.84613 0.5346 0.89018 0.0
H892 H 0.87001 0.52512 0.84827 0.0
H893 H 0.87199 0.54353 0.91916 0.0
H894 H 0.91311 0.50809 0.12148 0.0
H895 H 0.94114 0.49145 0.05115 0.0
H896 H 0.89969 0.49322 0.87213 0.0
C897 C 0.83473 0.51871 0.04444 0.0
C898 C 0.83132 0.5219 0.1159 0.0
C899 C 0.8488 0.52617 0.15988 0.0
C900 C 0.86957 0.52414 0.1358 0.0
C901 C 0.87247 0.51889 0.06693 0.0
C902 C 0.85579 0.51757 0.02036 0.0
C903 C 0.86387 0.51088 0.9496 0.0
C904 C 0.85167 0.49151 0.92107 0.0
C905 C 0.86295 0.52965 0.89882 0.0
C906 C 0.88683 0.50556 0.96749 0.0
C907 C 0.89131 0.51064 0.03534 0.0
C908 C 0.91031 0.50499 0.06732 0.0
C909 C 0.92588 0.49513 0.02766 0.0
C910 C 0.92234 0.49129 0.95696 0.0
C911 C 0.90256 0.49624 0.92625 0.0
H912 H 1.02127 0.19619 0.72714 0.0
H913 H 0.05719 0.19466 0.91887 0.0
H914 H 0.06181 0.15624 0.90679 0.0
H915 H 0.99299 0.14861 0.73684 0.0
H916 H 0.99755 0.13902 0.65039 0.0
H917 H 0.99828 0.1671 0.66769 0.0
H918 H 0.0362 0.16923 0.61568 0.0
H919 H 0.03629 0.14091 0.59933 0.0
H920 H 0.05711 0.15287 0.64979 0.0
H921 H 0.06026 0.11848 0.8834 0.0
H922 H 0.05479 0.08202 0.84511 0.0
H923 H 1.0204 0.10472 0.66459 0.0
C924 C 0.03024 0.18772 0.76612 0.0
C925 C 0.03825 0.19854 0.82561 0.0
C926 C 0.05025 0.18683 0.8744 0.0
C927 C 0.05311 0.16493 0.86776 0.0
C928 C 0.04424 0.15461 0.81116 0.0
C929 C 0.03348 0.16546 0.76002 0.0
C930 C 0.02645 0.14979 0.70375 0.0
C931 C 1.00237 0.15122 0.68886 0.0
C932 C 0.03973 0.15344 0.6381 0.0
C933 C 0.03253 0.12851 0.73614 0.0
C934 C 0.04362 0.13204 0.79663 0.0
C935 C 0.05169 0.11547 0.8359 0.0
C936 C 0.04844 0.09465 0.81331 0.0
C937 C 0.03702 0.09011 0.7517 0.0
C938 C 0.02899 0.10746 0.71227 0.0
H939 H 0.35712 1.00062 0.81002 0.0
H940 H 0.34177 0.06533 0.75337 0.0
H941 H 0.37897 0.07086 0.71312 0.0
H942 H 0.40821 1.00882 0.87323 0.0
H943 H 0.42027 0.98538 0.83686 0.0
H944 H 0.39206 0.98573 0.85492 0.0
H945 H 0.384 0.97569 0.72872 0.0
H946 H 0.41215 0.97549 0.70866 0.0
H947 H 0.3942 0.99196 0.6597 0.0
H948 H 0.41908 0.07096 0.69621 0.0
H949 H 0.45805 0.06437 0.69027 0.0
H950 H 0.44749 0.9986 0.74651 0.0
C951 C 0.3616 1.01583 0.78823 0.0
C952 C 0.34665 0.03267 0.78555 0.0
C953 C 0.35299 0.05229 0.75619 0.0
C954 C 0.37409 0.05554 0.73313 0.0
C955 C 0.38864 0.03884 0.73807 0.0
C956 C 0.38254 1.01916 0.76317 0.0
C957 C 0.40144 1.00397 0.76339 0.0
C958 C 0.40575 0.99548 0.83645 0.0
C959 C 0.39773 0.9857 0.71207 0.0
C960 C 0.41937 1.01852 0.73885 0.0
C961 C 0.41157 0.03855 0.72413 0.0
C962 C 0.42525 0.05521 0.70604 0.0
C963 C 0.44738 0.05137 0.70309 0.0
C964 C 0.45574 0.03097 0.71708 0.0
C965 C 0.44148 1.01427 0.73432 0.0
H966 H 0.49036 0.35435 0.81579 0.0
H967 H 0.55587 0.33886 0.76275 0.0
H968 H 0.56189 0.37574 0.72502 0.0
H969 H 0.48491 0.39369 0.66535 0.0
H970 H 0.46727 0.41054 0.71414 0.0
H971 H 0.46719 0.38223 0.72859 0.0
H972 H 0.47434 0.38877 0.85835 0.0
H973 H 0.47488 0.41702 0.84426 0.0
H974 H 0.49741 0.40409 0.88409 0.0
H975 H 0.56236 0.41477 0.70482 0.0
H976 H 0.55701 0.45322 0.6971 0.0
H977 H 0.49101 0.44555 0.76227 0.0
C978 C 0.50592 0.35871 0.79576 0.0
C979 C 0.5227 0.3435 0.7931 0.0
C980 C 0.54269 0.34993 0.76528 0.0
C981 C 0.5463 0.37096 0.74373 0.0
C982 C 0.52969 0.3856 0.7489 0.0
C983 C 0.50973 0.37973 0.77265 0.0
C984 C 0.49479 0.3989 0.77272 0.0
C985 C 0.47751 0.39618 0.71693 0.0
C986 C 0.48477 0.4024 0.84416 0.0
C987 C 0.51014 0.41683 0.75319 0.0
C988 C 0.52995 0.40848 0.73705 0.0
C989 C 0.54688 0.42142 0.71688 0.0
C990 C 0.54361 0.4434 0.71285 0.0
C991 C 0.52362 0.45274 0.72959 0.0
C992 C 0.50658 0.43911 0.75016 0.0
H993 H 0.19699 0.54441 0.78334 0.0
H994 H 0.20689 0.47757 0.82527 0.0
H995 H 0.16935 0.47002 0.79373 0.0
H996 H 0.14544 0.54858 0.85243 0.0
H997 H 0.13458 0.56593 0.78734 0.0
H998 H 0.16282 0.56619 0.8049 0.0
H999 H 0.17077 0.55854 0.67665 0.0
H1000 H 0.14254 0.55804 0.65774 0.0
H1001 H 0.15902 0.53553 0.63631 0.0
H1002 H 0.12992 0.47011 0.77329 0.0
H1003 H 0.09164 0.47724 0.75426 0.0
H1004 H 0.10606 0.54385 0.71977 0.0
C1005 C 0.19125 0.52818 0.78476 0.0
C1006 C 0.20482 0.51152 0.80739 0.0
C1007 C 0.19674 0.49052 0.80876 0.0
C1008 C 0.17544 0.4861 0.79081 0.0
C1009 C 0.16222 0.50285 0.77126 0.0
C1010 C 0.16982 0.52346 0.76694 0.0
C1011 C 0.15183 0.53849 0.74619 0.0
C1012 C 0.14847 0.55582 0.80101 0.0
C1013 C 0.1563 0.54826 0.67499 0.0
C1014 C 0.13283 0.52327 0.74301 0.0
C1015 C 0.13933 0.50277 0.75715 0.0
C1016 C 0.12471 0.48605 0.76119 0.0
C1017 C 0.10291 0.49029 0.75069 0.0
C1018 C 0.09571 0.51106 0.73533 0.0
C1019 C 0.11103 0.52774 0.73068 0.0
H1020 H 0.03232 0.85982 0.51524 0.0
H1021 H 1.01455 0.8343 0.71565 0.0
H1022 H 1.00912 0.87072 0.75876 0.0
H1023 H 0.0621 0.90512 0.58638 0.0
H1024 H 0.05455 0.92229 0.51614 0.0
H1025 H 0.05695 0.8941 0.50217 0.0
H1026 H 1.01807 0.89312 0.45589 0.0
H1027 H 1.01542 0.92123 0.47092 0.0
H1028 H 0.99667 0.90291 0.50939 0.0
H1029 H 1.00557 0.91093 0.78051 0.0
H1030 H 1.00578 0.95029 0.77901 0.0
H1031 H 0.02671 0.94971 0.56613 0.0
C1032 C 0.02759 0.86166 0.56856 0.0
C1033 C 1.02363 0.84365 0.61103 0.0
C1034 C 1.0172 0.84741 0.68053 0.0
C1035 C 1.01422 0.86821 0.70603 0.0
C1036 C 1.01795 0.88543 0.66214 0.0
C1037 C 1.02477 0.88233 0.59515 0.0
C1038 C 0.02815 0.90348 0.55876 0.0
C1039 C 0.05184 0.90642 0.53971 0.0
C1040 C 1.01371 0.90529 0.49495 0.0
C1041 C 1.02152 0.91907 0.61469 0.0
C1042 C 1.01589 0.90833 0.67437 0.0
C1043 C 1.00989 0.91935 0.73382 0.0
C1044 C 1.01003 0.94174 0.73254 0.0
C1045 C 1.01596 0.95313 0.67233 0.0
C1046 C 1.02154 0.94152 0.61239 0.0
H1047 H 0.69427 0.99952 0.5491 0.0
H1048 H 0.71335 0.04809 0.69559 0.0
H1049 H 0.67637 0.04967 0.73976 0.0
H1050 H 0.64368 1.01885 0.50558 0.0
H1051 H 0.63011 0.99353 0.50445 0.0
H1052 H 0.65837 0.99489 0.48744 0.0
H1053 H 0.66557 0.96811 0.58612 0.0
H1054 H 0.63726 0.9665 0.60297 0.0
H1055 H 0.65545 0.97356 0.67135 0.0
H1056 H 0.63706 0.04854 0.76084 0.0
H1057 H 0.59836 0.04384 0.76285 0.0
H1058 H 0.60304 0.9946 0.6065 0.0
C1059 C 0.69065 1.01044 0.59059 0.0
C1060 C 0.70685 0.02382 0.6184 0.0
C1061 C 0.70141 0.03764 0.67344 0.0
C1062 C 0.68038 0.03867 0.69884 0.0
C1063 C 0.66481 0.02551 0.66977 0.0
C1064 C 0.66969 1.01138 0.61768 0.0
C1065 C 0.64977 0.99896 0.59617 0.0
C1066 C 0.64521 1.00174 0.5188 0.0
C1067 C 0.65216 0.97538 0.61525 0.0
C1068 C 0.63264 1.00945 0.64054 0.0
C1069 C 0.64193 0.02439 0.68354 0.0
C1070 C 0.62971 0.03665 0.72814 0.0
C1071 C 0.60751 0.03373 0.72891 0.0
C1072 C 0.59721 1.01858 0.68557 0.0
C1073 C 0.61018 1.00616 0.64086 0.0
H1074 H 0.524 0.69827 0.70378 0.0
H1075 H 0.52357 0.69664 0.47969 0.0
H1076 H 0.527 0.65791 0.48224 0.0
H1077 H 0.56265 0.65262 0.72359 0.0
H1078 H 0.54937 0.64264 0.79961 0.0
H1079 H 0.54883 0.67066 0.77999 0.0
H1080 H 0.50766 0.6687 0.78874 0.0
H1081 H 0.50811 0.64039 0.802 0.0
H1082 H 0.49304 0.65135 0.73143 0.0
H1083 H 0.53008 0.62031 0.50422 0.0
H1084 H 0.53108 0.58362 0.54545 0.0
H1085 H 0.52788 0.60583 0.75753 0.0
C1086 C 0.52479 0.68968 0.65546 0.0
C1087 C 0.52327 0.70068 0.59113 0.0
C1088 C 0.52436 0.68876 0.52932 0.0
C1089 C 0.52644 0.66667 0.53022 0.0
C1090 C 0.52747 0.65629 0.59348 0.0
C1091 C 0.52671 0.66716 0.65534 0.0
C1092 C 0.52771 0.65127 0.71545 0.0
C1093 C 0.54836 0.65448 0.75718 0.0
C1094 C 0.50794 0.65306 0.76214 0.0
C1095 C 0.52815 0.62998 0.67692 0.0
C1096 C 0.52859 0.63365 0.60666 0.0
C1097 C 0.52971 0.61717 0.55909 0.0
C1098 C 0.53034 0.59627 0.58324 0.0
C1099 C 0.52951 0.59159 0.65466 0.0
C1100 C 0.52833 0.60879 0.70251 0.0
H1101 H 0.85726 0.4941 0.60752 0.0
H1102 H 0.84346 0.56087 0.5769 0.0
H1103 H 0.88086 0.56992 0.60507 0.0
H1104 H 0.89424 0.50498 0.75622 0.0
H1105 H 0.91187 0.48327 0.73595 0.0
H1106 H 0.88378 0.48137 0.71589 0.0
H1107 H 0.89248 0.4739 0.58802 0.0
H1108 H 0.92062 0.47544 0.60672 0.0
H1109 H 0.90926 0.49217 0.54082 0.0
H1110 H 0.92087 0.57149 0.62107 0.0
H1111 H 0.95949 0.56599 0.64065 0.0
H1112 H 0.94786 0.49884 0.67425 0.0
C1113 C 0.86215 0.51061 0.60704 0.0
C1114 C 0.84738 0.52678 0.58864 0.0
C1115 C 0.85438 0.54821 0.5902 0.0
C1116 C 0.87567 0.55351 0.60611 0.0
C1117 C 0.88994 0.53728 0.62231 0.0
C1118 C 0.88338 0.5163 0.62498 0.0
C1119 C 0.902 0.50214 0.64654 0.0
C1120 C 0.89772 0.49233 0.71787 0.0
C1121 C 0.90634 0.48489 0.59226 0.0
C1122 C 0.92027 0.51822 0.65028 0.0
C1123 C 0.91285 0.53842 0.63655 0.0
C1124 C 0.92677 0.55578 0.63303 0.0
C1125 C 0.94877 0.55248 0.64383 0.0
C1126 C 0.95686 0.53203 0.65924 0.0
C1127 C 0.94223 0.51472 0.66325 0.0
loop_
_geom_bond_atom_site_label_1
_geom_bond_atom_site_label_2
_geom_bond_distance
_geom_bond_site_symmetry_2
_ccdc_geom_bond_type
C0 C1 1.264 . S
C0 C5 1.479 . S
C0 C10 1.465 . S
C1 C0 1.264 . S
C1 C3 1.339 . S
C1 H28 0.931 . S
C2 C3 1.395 . S
C2 C4 1.320 . S
C3 C1 1.339 . S
C3 C2 1.395 . S
C3 H29 0.929 . S
C4 C2 1.320 . S
C4 C5 1.405 . S
C4 H30 0.930 . S
C5 C0 1.479 . S
C5 C4 1.405 . S
C5 H31 0.931 . S
U6 O7 2.454 . S
U6 O8 2.458 . S
U6 C9 2.984 . S
U6 C10 2.847 . S
U6 C23 2.882 . S
U6 O24 2.441 . S
U6 O25 2.420 . S
U6 O26 2.455 . S
U6 O27 2.449 . S
O7 U6 2.454 . S
O7 C9 1.353 . S
O8 U6 2.458 . S
O8 C9 1.286 . S
C9 U6 2.984 . S
C9 O7 1.353 . S
C9 O8 1.286 . S
C9 C11 1.363 . S
C10 C0 1.465 . S
C10 U6 2.847 . S
C10 O24 1.249 . S
C10 O25 1.202 . S
C11 C9 1.363 . S
C11 C13 1.408 . S
C11 C16 1.342 . S
C12 C13 1.310 . S
C12 C15 1.461 . S
C12 H32 0.932 . S
C13 C11 1.408 . S
C13 C12 1.310 . S
C13 H33 0.930 . S
C14 C15 1.474 . S
C14 C16 1.285 . S
C14 H34 0.929 . S
C15 C12 1.461 . S
C15 C14 1.474 . S
C16 C11 1.342 . S
C16 C14 1.285 . S
C16 H35 0.930 . S
C17 C20 1.424 . S
C17 C22 1.245 . S
C17 C23 1.428 . S
C18 C21 1.260 . S
C18 C22 1.477 . S
C18 H36 0.932 . S
C19 C20 1.384 . S
C19 C21 1.479 . S
C19 H37 0.929 . S
C20 C17 1.424 . S
C20 C19 1.384 . S
C20 H38 0.928 . S
C21 C18 1.260 . S
C21 C19 1.479 . S
C22 C17 1.245 . S
C22 C18 1.477 . S
C22 H39 0.932 . S
C23 U6 2.882 . S
C23 C17 1.428 . S
C23 O26 1.301 . S
C23 O27 1.282 . S
O24 U6 2.441 . S
O24 C10 1.249 . S
O25 U6 2.420 . S
O25 C10 1.202 . S
O26 U6 2.455 . S
O26 C23 1.301 . S
O27 U6 2.449 . S
O27 C23 1.282 . S
H28 C1 0.931 . S
H29 C3 0.929 . S
H30 C4 0.930 . S
H31 C5 0.931 . S
H32 C12 0.932 . S
H33 C13 0.930 . S
H34 C14 0.929 . S
H35 C16 0.930 . S
H36 C18 0.932 . S
H37 C19 0.929 . S
H38 C20 0.928 . S
H39 C22 0.932 . S
C40 C41 1.264 . S
C40 C45 1.479 . S
C40 C50 1.465 . S
C41 C40 1.264 . S
C41 C43 1.339 . S
C41 H68 0.931 . S
C42 C43 1.395 . S
C42 C44 1.320 . S
C43 C41 1.339 . S
C43 C42 1.395 . S
C43 H69 0.929 . S
C44 C42 1.320 . S
C44 C45 1.405 . S
C44 H70 0.921 1_455 S
C45 C40 1.479 . S
C45 C44 1.405 . S
C45 H71 0.931 . S
U46 O47 2.454 . S
U46 O48 2.458 . S
U46 C49 2.984 . S
U46 C50 2.847 . S
U46 C63 2.882 . S
U46 O64 2.441 . S
U46 O65 2.420 . S
U46 O66 2.455 . S
U46 O67 2.449 . S
O47 U46 2.454 . S
O47 C49 1.353 . S
O48 U46 2.458 . S
O48 C49 1.286 . S
C49 U46 2.984 . S
C49 O47 1.353 . S
C49 O48 1.286 . S
C49 C51 1.363 . S
C50 C40 1.465 . S
C50 U46 2.847 . S
C50 O64 1.249 . S
C50 O65 1.202 . S
C51 C49 1.363 . S
C51 C53 1.408 . S
C51 C56 1.342 . S
C52 C53 1.310 . S
C52 C55 1.461 . S
C52 H72 0.932 . S
C53 C51 1.408 . S
C53 C52 1.310 . S
C53 H73 0.930 . S
C54 C55 1.474 1_655 S
C54 C56 1.285 1_655 S
C54 H74 0.930 . S
C55 C52 1.461 . S
C55 C54 1.474 1_455 S
C56 C51 1.342 . S
C56 C54 1.285 1_455 S
C56 H75 0.932 . S
C57 C60 1.424 . S
C57 C62 1.245 . S
C57 C63 1.428 . S
C58 C61 1.260 . S
C58 C62 1.477 . S
C58 H76 0.932 . S
C59 C60 1.384 . S
C59 C61 1.479 . S
C59 H77 0.929 . S
C60 C57 1.424 . S
C60 C59 1.384 . S
C60 H78 0.928 . S
C61 C58 1.260 . S
C61 C59 1.479 . S
C62 C57 1.245 . S
C62 C58 1.477 . S
C62 H79 0.932 . S
C63 U46 2.882 . S
C63 C57 1.428 . S
C63 O66 1.301 . S
C63 O67 1.282 . S
O64 U46 2.441 . S
O64 C50 1.249 . S
O65 U46 2.420 . S
O65 C50 1.202 . S
O66 U46 2.455 . S
O66 C63 1.301 . S
O67 U46 2.449 . S
O67 C63 1.282 . S
H68 C41 0.931 . S
H69 C43 0.929 . S
H70 C44 0.921 1_655 S
H71 C45 0.931 . S
H72 C52 0.932 . S
H73 C53 0.930 . S
H74 C54 0.930 . S
H75 C56 0.932 . S
H76 C58 0.932 . S
H77 C59 0.929 . S
H78 C60 0.928 . S
H79 C62 0.932 . S
C80 C81 1.264 . S
C80 C85 1.479 . S
C80 C90 1.465 . S
C81 C80 1.264 . S
C81 C83 1.339 . S
C81 H108 0.931 . S
C82 C83 1.395 . S
C82 C84 1.320 . S
C83 C81 1.339 . S
C83 C82 1.395 . S
C83 H109 0.929 . S
C84 C82 1.320 . S
C84 C85 1.405 . S
C84 H110 0.921 1_545 S
C85 C80 1.479 . S
C85 C84 1.405 . S
C85 H111 0.931 . S
U86 O87 2.454 . S
U86 O88 2.458 . S
U86 C89 2.984 . S
U86 C90 2.847 . S
U86 C103 2.882 . S
U86 O104 2.441 . S
U86 O105 2.420 . S
U86 O106 2.455 . S
U86 O107 2.449 . S
O87 U86 2.454 . S
O87 C89 1.353 . S
O88 U86 2.458 . S
O88 C89 1.286 . S
C89 U86 2.984 . S
C89 O87 1.353 . S
C89 O88 1.286 . S
C89 C91 1.363 . S
C90 C80 1.465 . S
C90 U86 2.847 . S
C90 O104 1.249 . S
C90 O105 1.202 . S
C91 C89 1.363 . S
C91 C93 1.408 . S
C91 C96 1.342 . S
C92 C93 1.310 . S
C92 C95 1.461 . S
C92 H112 0.932 . S
C93 C91 1.408 . S
C93 C92 1.310 . S
C93 H113 0.930 . S
C94 C95 1.474 1_565 S
C94 C96 1.285 1_565 S
C94 H114 0.930 . S
C95 C92 1.461 . S
C95 C94 1.474 1_545 S
C96 C91 1.342 . S
C96 C94 1.285 1_545 S
C96 H115 0.932 . S
C97 C100 1.424 . S
C97 C102 1.245 . S
C97 C103 1.428 . S
C98 C101 1.260 . S
C98 C102 1.477 . S
C98 H116 0.932 . S
C99 C100 1.384 . S
C99 C101 1.479 . S
C99 H117 0.929 . S
C100 C97 1.424 . S
C100 C99 1.384 . S
C100 H118 0.928 . S
C101 C98 1.260 . S
C101 C99 1.479 . S
C102 C97 1.245 . S
C102 C98 1.477 . S
C102 H119 0.932 . S
C103 U86 2.882 . S
C103 C97 1.428 . S
C103 O106 1.301 . S
C103 O107 1.282 . S
O104 U86 2.441 . S
O104 C90 1.249 . S
O105 U86 2.420 . S
O105 C90 1.202 . S
O106 U86 2.455 . S
O106 C103 1.301 . S
O107 U86 2.449 . S
O107 C103 1.282 . S
H108 C81 0.931 . S
H109 C83 0.929 . S
H110 C84 0.921 1_565 S
H111 C85 0.931 . S
H112 C92 0.932 . S
H113 C93 0.930 . S
H114 C94 0.930 . S
H115 C96 0.932 . S
H116 C98 0.932 . S
H117 C99 0.929 . S
H118 C100 0.928 . S
H119 C102 0.932 . S
C120 C121 1.264 . S
C120 C125 1.479 . S
C120 C130 1.465 . S
C121 C120 1.264 . S
C121 C123 1.339 . S
C121 H148 0.931 . S
C122 C123 1.395 . S
C122 C124 1.320 . S
C123 C121 1.339 . S
C123 C122 1.395 . S
C123 H149 0.929 . S
C124 C122 1.320 . S
C124 C125 1.405 . S
C124 H150 0.930 . S
C125 C120 1.479 . S
C125 C124 1.405 . S
C125 H151 0.931 . S
U126 O127 2.454 . S
U126 O128 2.458 . S
U126 C129 2.984 . S
U126 C130 2.847 . S
U126 C143 2.882 . S
U126 O144 2.441 . S
U126 O145 2.420 . S
U126 O146 2.455 . S
U126 O147 2.449 . S
O127 U126 2.454 . S
O127 C129 1.353 . S
O128 U126 2.458 . S
O128 C129 1.286 . S
C129 U126 2.984 . S
C129 O127 1.353 . S
C129 O128 1.286 . S
C129 C131 1.363 . S
C130 C120 1.465 . S
C130 U126 2.847 . S
C130 O144 1.249 . S
C130 O145 1.202 . S
C131 C129 1.363 . S
C131 C133 1.408 . S
C131 C136 1.342 . S
C132 C133 1.310 . S
C132 C135 1.461 . S
C132 H152 0.932 . S
C133 C131 1.408 . S
C133 C132 1.310 . S
C133 H153 0.930 . S
C134 C135 1.474 . S
C134 C136 1.285 . S
C134 H154 0.929 . S
C135 C132 1.461 . S
C135 C134 1.474 . S
C136 C131 1.342 . S
C136 C134 1.285 . S
C136 H155 0.930 . S
C137 C140 1.424 . S
C137 C142 1.245 . S
C137 C143 1.428 . S
C138 C141 1.260 . S
C138 C142 1.477 . S
C138 H156 0.932 . S
C139 C140 1.384 . S
C139 C141 1.479 . S
C139 H157 0.929 . S
C140 C137 1.424 . S
C140 C139 1.384 . S
C140 H158 0.928 . S
C141 C138 1.260 . S
C141 C139 1.479 . S
C142 C137 1.245 . S
C142 C138 1.477 . S
C142 H159 0.932 . S
C143 U126 2.882 . S
C143 C137 1.428 . S
C143 O146 1.301 . S
C143 O147 1.282 . S
O144 U126 2.441 . S
O144 C130 1.249 . S
O145 U126 2.420 . S
O145 C130 1.202 . S
O146 U126 2.455 . S
O146 C143 1.301 . S
O147 U126 2.449 . S
O147 C143 1.282 . S
H148 C121 0.931 . S
H149 C123 0.929 . S
H150 C124 0.930 . S
H151 C125 0.931 . S
H152 C132 0.932 . S
H153 C133 0.930 . S
H154 C134 0.929 . S
H155 C136 0.930 . S
H156 C138 0.932 . S
H157 C139 0.929 . S
H158 C140 0.928 . S
H159 C142 0.932 . S
C160 C161 1.264 . S
C160 C165 1.479 . S
C160 C170 1.465 . S
C161 C160 1.264 . S
C161 C163 1.339 . S
C161 H188 0.931 . S
C162 C163 1.395 . S
C162 C164 1.320 . S
C163 C161 1.339 . S
C163 C162 1.395 . S
C163 H189 0.929 . S
C164 C162 1.320 . S
C164 C165 1.405 . S
C164 H190 0.930 . S
C165 C160 1.479 . S
C165 C164 1.405 . S
C165 H191 0.931 . S
U166 O167 2.454 . S
U166 O168 2.458 . S
U166 C169 2.984 . S
U166 C170 2.847 1_554 S
U166 C183 2.882 . S
U166 O184 2.441 1_554 S
U166 O185 2.420 1_554 S
U166 O186 2.455 . S
U166 O187 2.449 . S
O167 U166 2.454 . S
O167 C169 1.353 . S
O168 U166 2.458 . S
O168 C169 1.286 . S
C169 U166 2.984 . S
C169 O167 1.353 . S
C169 O168 1.286 . S
C169 C171 1.363 . S
C170 C160 1.465 . S
C170 U166 2.847 1_556 S
C170 O184 1.249 . S
C170 O185 1.202 . S
C171 C169 1.363 . S
C171 C173 1.408 . S
C171 C176 1.342 . S
C172 C173 1.310 . S
C172 C175 1.461 . S
C172 H192 0.932 . S
C173 C171 1.408 . S
C173 C172 1.310 . S
C173 H193 0.930 1_554 S
C174 C175 1.474 . S
C174 C176 1.285 . S
C174 H194 0.929 . S
C175 C172 1.461 . S
C175 C174 1.474 . S
C176 C171 1.342 . S
C176 C174 1.285 . S
C176 H195 0.930 . S
C177 C180 1.424 . S
C177 C182 1.245 . S
C177 C183 1.428 . S
C178 C181 1.260 . S
C178 C182 1.477 . S
C178 H196 0.932 . S
C179 C180 1.384 . S
C179 C181 1.479 . S
C179 H197 0.929 . S
C180 C177 1.424 . S
C180 C179 1.384 . S
C180 H198 0.928 . S
C181 C178 1.260 . S
C181 C179 1.479 . S
C182 C177 1.245 . S
C182 C178 1.477 . S
C182 H199 0.932 . S
C183 U166 2.882 . S
C183 C177 1.428 . S
C183 O186 1.301 . S
C183 O187 1.282 . S
O184 U166 2.441 1_556 S
O184 C170 1.249 . S
O185 U166 2.420 1_556 S
O185 C170 1.202 . S
O186 U166 2.455 . S
O186 C183 1.301 . S
O187 U166 2.449 . S
O187 C183 1.282 . S
H188 C161 0.931 . S
H189 C163 0.929 . S
H190 C164 0.930 . S
H191 C165 0.931 . S
H192 C172 0.932 . S
H193 C173 0.930 1_556 S
H194 C174 0.929 . S
H195 C176 0.930 . S
H196 C178 0.932 . S
H197 C179 0.929 . S
H198 C180 0.928 . S
H199 C182 0.932 . S
C200 C201 1.264 . S
C200 C205 1.479 . S
C200 C210 1.465 . S
C201 C200 1.264 . S
C201 C203 1.339 . S
C201 H228 0.931 . S
C202 C203 1.395 . S
C202 C204 1.320 . S
C203 C201 1.339 . S
C203 C202 1.395 . S
C203 H229 0.929 . S
C204 C202 1.320 . S
C204 C205 1.405 . S
C204 H230 0.923 1_455 S
C205 C200 1.479 . S
C205 C204 1.405 . S
C205 H231 0.931 . S
U206 O207 2.454 . S
U206 O208 2.458 . S
U206 C209 2.984 . S
U206 C210 2.847 1_554 S
U206 C223 2.882 . S
U206 O224 2.441 1_554 S
U206 O225 2.420 1_554 S
U206 O226 2.455 . S
U206 O227 2.449 . S
O207 U206 2.454 . S
O207 C209 1.353 . S
O208 U206 2.458 . S
O208 C209 1.286 . S
C209 U206 2.984 . S
C209 O207 1.353 . S
C209 O208 1.286 . S
C209 C211 1.363 . S
C210 C200 1.465 . S
C210 U206 2.847 1_556 S
C210 O224 1.249 . S
C210 O225 1.202 . S
C211 C209 1.363 . S
C211 C213 1.408 . S
C211 C216 1.342 . S
C212 C213 1.310 . S
C212 C215 1.462 . S
C212 H232 0.932 . S
C213 C211 1.408 . S
C213 C212 1.310 . S
C213 H233 0.930 1_554 S
C214 C215 1.474 1_655 S
C214 C216 1.286 1_655 S
C214 H234 0.929 . S
C215 C212 1.462 . S
C215 C214 1.474 1_455 S
C216 C211 1.342 . S
C216 C214 1.286 1_455 S
C216 H235 0.934 . S
C217 C220 1.424 . S
C217 C222 1.245 . S
C217 C223 1.428 . S
C218 C221 1.260 . S
C218 C222 1.477 . S
C218 H236 0.932 . S
C219 C220 1.384 . S
C219 C221 1.479 . S
C219 H237 0.929 . S
C220 C217 1.424 . S
C220 C219 1.384 . S
C220 H238 0.928 . S
C221 C218 1.260 . S
C221 C219 1.479 . S
C222 C217 1.245 . S
C222 C218 1.477 . S
C222 H239 0.932 . S
C223 U206 2.882 . S
C223 C217 1.428 . S
C223 O226 1.301 . S
C223 O227 1.282 . S
O224 U206 2.441 1_556 S
O224 C210 1.249 . S
O225 U206 2.420 1_556 S
O225 C210 1.202 . S
O226 U206 2.455 . S
O226 C223 1.301 . S
O227 U206 2.449 . S
O227 C223 1.282 . S
H228 C201 0.931 . S
H229 C203 0.929 . S
H230 C204 0.923 1_655 S
H231 C205 0.931 . S
H232 C212 0.932 . S
H233 C213 0.930 1_556 S
H234 C214 0.929 . S
H235 C216 0.934 . S
H236 C218 0.932 . S
H237 C219 0.929 . S
H238 C220 0.928 . S
H239 C222 0.932 . S
C240 C241 1.264 . S
C240 C245 1.479 . S
C240 C250 1.465 . S
C241 C240 1.264 . S
C241 C243 1.339 . S
C241 H268 0.931 . S
C242 C243 1.395 . S
C242 C244 1.320 . S
C243 C241 1.339 . S
C243 C242 1.395 . S
C243 H269 0.929 . S
C244 C242 1.320 . S
C244 C245 1.405 . S
C244 H270 0.923 1_545 S
C245 C240 1.479 . S
C245 C244 1.405 . S
C245 H271 0.931 . S
U246 O247 2.454 . S
U246 O248 2.458 . S
U246 C249 2.984 . S
U246 C250 2.847 1_554 S
U246 C263 2.882 . S
U246 O264 2.441 1_554 S
U246 O265 2.420 1_554 S
U246 O266 2.455 . S
U246 O267 2.449 . S
O247 U246 2.454 . S
O247 C249 1.353 . S
O248 U246 2.458 . S
O248 C249 1.286 . S
C249 U246 2.984 . S
C249 O247 1.353 . S
C249 O248 1.286 . S
C249 C251 1.363 . S
C250 C240 1.465 . S
C250 U246 2.847 1_556 S
C250 O264 1.249 . S
C250 O265 1.202 . S
C251 C249 1.363 . S
C251 C253 1.408 . S
C251 C256 1.342 . S
C252 C253 1.310 . S
C252 C255 1.462 . S
C252 H272 0.932 . S
C253 C251 1.408 . S
C253 C252 1.310 . S
C253 H273 0.930 1_554 S
C254 C255 1.474 1_565 S
C254 C256 1.286 1_565 S
C254 H274 0.929 . S
C255 C252 1.462 . S
C255 C254 1.474 1_545 S
C256 C251 1.342 . S
C256 C254 1.286 1_545 S
C256 H275 0.933 . S
C257 C260 1.424 . S
C257 C262 1.245 . S
C257 C263 1.428 . S
C258 C261 1.260 . S
C258 C262 1.477 . S
C258 H276 0.932 . S
C259 C260 1.384 . S
C259 C261 1.479 . S
C259 H277 0.929 . S
C260 C257 1.424 . S
C260 C259 1.384 . S
C260 H278 0.928 . S
C261 C258 1.260 . S
C261 C259 1.479 . S
C262 C257 1.245 . S
C262 C258 1.477 . S
C262 H279 0.932 . S
C263 U246 2.882 . S
C263 C257 1.428 . S
C263 O266 1.301 . S
C263 O267 1.282 . S
O264 U246 2.441 1_556 S
O264 C250 1.249 . S
O265 U246 2.420 1_556 S
O265 C250 1.202 . S
O266 U246 2.455 . S
O266 C263 1.301 . S
O267 U246 2.449 . S
O267 C263 1.282 . S
H268 C241 0.931 . S
H269 C243 0.929 . S
H270 C244 0.923 1_565 S
H271 C245 0.931 . S
H272 C252 0.932 . S
H273 C253 0.930 1_556 S
H274 C254 0.929 . S
H275 C256 0.933 . S
H276 C258 0.932 . S
H277 C259 0.929 . S
H278 C260 0.928 . S
H279 C262 0.932 . S
C280 C281 1.264 . S
C280 C285 1.479 . S
C280 C290 1.465 . S
C281 C280 1.264 . S
C281 C283 1.339 . S
C281 H308 0.931 . S
C282 C283 1.395 . S
C282 C284 1.320 . S
C283 C281 1.339 . S
C283 C282 1.395 . S
C283 H309 0.929 . S
C284 C282 1.320 . S
C284 C285 1.405 . S
C284 H310 0.930 . S
C285 C280 1.479 . S
C285 C284 1.405 . S
C285 H311 0.931 . S
U286 O287 2.454 . S
U286 O288 2.458 . S
U286 C289 2.984 . S
U286 C290 2.847 1_554 S
U286 C303 2.882 . S
U286 O304 2.441 1_554 S
U286 O305 2.420 1_554 S
U286 O306 2.455 . S
U286 O307 2.449 . S
O287 U286 2.454 . S
O287 C289 1.353 . S
O288 U286 2.458 . S
O288 C289 1.286 . S
C289 U286 2.984 . S
C289 O287 1.353 . S
C289 O288 1.286 . S
C289 C291 1.363 . S
C290 C280 1.465 . S
C290 U286 2.847 1_556 S
C290 O304 1.249 . S
C290 O305 1.202 . S
C291 C289 1.363 . S
C291 C293 1.408 . S
C291 C296 1.342 . S
C292 C293 1.310 . S
C292 C295 1.461 . S
C292 H312 0.932 . S
C293 C291 1.408 . S
C293 C292 1.310 . S
C293 H313 0.930 1_554 S
C294 C295 1.474 . S
C294 C296 1.285 . S
C294 H314 0.929 . S
C295 C292 1.461 . S
C295 C294 1.474 . S
C296 C291 1.342 . S
C296 C294 1.285 . S
C296 H315 0.930 . S
C297 C300 1.424 . S
C297 C302 1.245 . S
C297 C303 1.428 . S
C298 C301 1.260 . S
C298 C302 1.477 . S
C298 H316 0.932 . S
C299 C300 1.384 . S
C299 C301 1.479 . S
C299 H317 0.929 . S
C300 C297 1.424 . S
C300 C299 1.384 . S
C300 H318 0.928 . S
C301 C298 1.260 . S
C301 C299 1.479 . S
C302 C297 1.245 . S
C302 C298 1.477 . S
C302 H319 0.932 . S
C303 U286 2.882 . S
C303 C297 1.428 . S
C303 O306 1.301 . S
C303 O307 1.282 . S
O304 U286 2.441 1_556 S
O304 C290 1.249 . S
O305 U286 2.420 1_556 S
O305 C290 1.202 . S
O306 U286 2.455 . S
O306 C303 1.301 . S
O307 U286 2.449 . S
O307 C303 1.282 . S
H308 C281 0.931 . S
H309 C283 0.929 . S
H310 C284 0.930 . S
H311 C285 0.931 . S
H312 C292 0.932 . S
H313 C293 0.930 1_556 S
H314 C294 0.929 . S
H315 C296 0.930 . S
H316 C298 0.932 . S
H317 C299 0.929 . S
H318 C300 0.928 . S
H319 C302 0.932 . S
Pr320 C322 2.880 . S
Pr320 O340 2.562 . S
Pr320 O341 2.490 . S
Pr320 O342 2.695 1_565 S
Pr320 O343 2.512 . S
Pr320 O345 2.437 . S
Pr320 O348 2.436 1_455 S
Pr320 O350 2.438 1_565 S
Pr321 C331 2.880 . S
Pr321 O342 2.436 1_655 S
Pr321 O344 2.438 1_545 S
Pr321 O346 2.562 . S
Pr321 O347 2.490 . S
Pr321 O348 2.695 1_545 S
Pr321 O349 2.512 . S
Pr321 O351 2.437 . S
C322 Pr320 2.880 . S
C322 C323 1.491 . S
C322 O340 1.254 . S
C322 O341 1.225 . S
C323 C322 1.491 . S
C323 C324 1.392 . S
C323 C328 1.356 . S
C324 C323 1.392 . S
C324 C325 1.368 . S
C324 H352 0.929 . S
C325 C324 1.368 . S
C325 C326 1.386 . S
C325 H353 0.929 . S
C326 C325 1.386 . S
C326 C327 1.373 . S
C327 C326 1.373 . S
C327 C328 1.409 . S
C327 H354 0.931 1_455 S
C328 C323 1.356 . S
C328 C327 1.409 . S
C328 H355 0.930 1_455 S
C329 O342 1.253 1_565 S
C329 O343 1.278 . S
C330 O344 1.267 . S
C330 O345 1.278 1_655 S
C331 Pr321 2.880 . S
C331 C332 1.491 . S
C331 O346 1.254 . S
C331 O347 1.225 . S
C332 C331 1.491 . S
C332 C333 1.392 . S
C332 C337 1.356 . S
C333 C332 1.392 . S
C333 C334 1.368 . S
C333 H356 0.929 . S
C334 C333 1.368 . S
C334 C335 1.386 . S
C334 H357 0.929 . S
C335 C334 1.386 . S
C335 C336 1.373 . S
C336 C335 1.373 . S
C336 C337 1.409 . S
C336 H358 0.931 1_655 S
C337 C332 1.356 . S
C337 C336 1.409 . S
C337 H359 0.930 1_655 S
C338 O348 1.270 1_545 S
C338 O349 1.248 . S
C339 O350 1.267 . S
C339 O351 1.278 1_455 S
O340 Pr320 2.562 . S
O340 C322 1.254 . S
O341 Pr320 2.490 . S
O341 C322 1.225 . S
O342 Pr320 2.695 1_545 S
O342 Pr321 2.436 1_455 S
O342 C329 1.253 1_545 S
O343 Pr320 2.512 . S
O343 C329 1.278 . S
O344 Pr321 2.438 1_565 S
O344 C330 1.267 . S
O345 Pr320 2.437 . S
O345 C330 1.278 1_455 S
O346 Pr321 2.562 . S
O346 C331 1.254 . S
O347 Pr321 2.490 . S
O347 C331 1.225 . S
O348 Pr320 2.436 1_655 S
O348 Pr321 2.695 1_565 S
O348 C338 1.270 1_565 S
O349 Pr321 2.512 . S
O349 C338 1.248 . S
O350 Pr320 2.438 1_545 S
O350 C339 1.267 . S
O351 Pr321 2.437 . S
O351 C339 1.278 1_655 S
H352 C324 0.929 . S
H353 C325 0.929 . S
H354 C327 0.931 1_655 S
H355 C328 0.930 1_655 S
H356 C333 0.929 . S
H357 C334 0.929 . S
H358 C336 0.931 1_455 S
H359 C337 0.930 1_455 S
Pr360 C362 2.880 . S
Pr360 O380 2.562 . S
Pr360 O381 2.490 . S
Pr360 O382 2.695 . S
Pr360 O383 2.512 . S
Pr360 O385 2.437 . S
Pr360 O388 2.436 1_545 S
Pr360 O390 2.438 . S
Pr361 C371 2.880 . S
Pr361 O382 2.436 1_565 S
Pr361 O384 2.438 . S
Pr361 O386 2.562 . S
Pr361 O387 2.490 . S
Pr361 O388 2.695 . S
Pr361 O389 2.512 . S
Pr361 O391 2.437 . S
C362 Pr360 2.880 . S
C362 C363 1.491 . S
C362 O380 1.254 . S
C362 O381 1.225 . S
C363 C362 1.491 . S
C363 C364 1.392 . S
C363 C368 1.356 . S
C364 C363 1.392 . S
C364 C365 1.368 . S
C364 H392 0.929 . S
C365 C364 1.368 . S
C365 C366 1.386 . S
C365 H393 0.929 . S
C366 C365 1.386 . S
C366 C367 1.373 . S
C367 C366 1.373 . S
C367 C368 1.409 . S
C367 H394 0.931 1_545 S
C368 C363 1.356 . S
C368 C367 1.409 . S
C368 H395 0.930 1_545 S
C369 O382 1.270 . S
C369 O383 1.248 . S
C370 O384 1.267 . S
C370 O385 1.278 1_565 S
C371 Pr361 2.880 . S
C371 C372 1.491 . S
C371 O386 1.254 . S
C371 O387 1.225 . S
C372 C371 1.491 . S
C372 C373 1.392 . S
C372 C377 1.356 . S
C373 C372 1.392 . S
C373 C374 1.368 . S
C373 H396 0.929 . S
C374 C373 1.368 . S
C374 C375 1.386 . S
C374 H397 0.929 . S
C375 C374 1.386 . S
C375 C376 1.373 . S
C376 C375 1.373 . S
C376 C377 1.409 . S
C376 H398 0.931 1_565 S
C377 C372 1.356 . S
C377 C376 1.409 . S
C377 H399 0.930 1_565 S
C378 O388 1.270 . S
C378 O389 1.248 . S
C379 O390 1.267 . S
C379 O391 1.278 1_545 S
O380 Pr360 2.562 . S
O380 C362 1.254 . S
O381 Pr360 2.490 . S
O381 C362 1.225 . S
O382 Pr360 2.695 . S
O382 Pr361 2.436 1_545 S
O382 C369 1.270 . S
O383 Pr360 2.512 . S
O383 C369 1.248 . S
O384 Pr361 2.438 . S
O384 C370 1.267 . S
O385 Pr360 2.437 . S
O385 C370 1.278 1_545 S
O386 Pr361 2.562 . S
O386 C371 1.254 . S
O387 Pr361 2.490 . S
O387 C371 1.225 . S
O388 Pr360 2.436 1_565 S
O388 Pr361 2.695 . S
O388 C378 1.270 . S
O389 Pr361 2.512 . S
O389 C378 1.248 . S
O390 Pr360 2.438 . S
O390 C379 1.267 . S
O391 Pr361 2.437 . S
O391 C379 1.278 1_565 S
H392 C364 0.929 . S
H393 C365 0.929 . S
H394 C367 0.931 1_565 S
H395 C368 0.930 1_565 S
H396 C373 0.929 . S
H397 C374 0.929 . S
H398 C376 0.931 1_545 S
H399 C377 0.930 1_545 S
Pr400 C402 2.880 . S
Pr400 O420 2.562 . S
Pr400 O421 2.490 . S
Pr400 O422 2.695 . S
Pr400 O423 2.512 . S
Pr400 O425 2.437 . S
Pr400 O428 2.436 . S
Pr400 O430 2.438 . S
Pr401 C411 2.880 . S
Pr401 O422 2.436 . S
Pr401 O424 2.438 . S
Pr401 O426 2.562 . S
Pr401 O427 2.490 . S
Pr401 O428 2.695 . S
Pr401 O429 2.512 . S
Pr401 O431 2.437 . S
C402 Pr400 2.880 . S
C402 C403 1.491 . S
C402 O420 1.254 . S
C402 O421 1.225 . S
C403 C402 1.491 . S
C403 C404 1.392 . S
C403 C408 1.356 . S
C404 C403 1.392 . S
C404 C405 1.368 . S
C404 H432 0.929 . S
C405 C404 1.368 . S
C405 C406 1.386 . S
C405 H433 0.929 . S
C406 C405 1.386 . S
C406 C407 1.373 . S
C407 C406 1.373 . S
C407 C408 1.409 . S
C407 H434 0.931 . S
C408 C403 1.356 . S
C408 C407 1.409 . S
C408 H435 0.930 . S
C409 O422 1.270 . S
C409 O423 1.248 . S
C410 O424 1.267 . S
C410 O425 1.278 . S
C411 Pr401 2.880 . S
C411 C412 1.491 . S
C411 O426 1.254 . S
C411 O427 1.225 . S
C412 C411 1.491 . S
C412 C413 1.392 . S
C412 C417 1.356 . S
C413 C412 1.392 . S
C413 C414 1.368 . S
C413 H436 0.929 . S
C414 C413 1.368 . S
C414 C415 1.386 . S
C414 H437 0.929 . S
C415 C414 1.386 . S
C415 C416 1.373 . S
C416 C415 1.373 . S
C416 C417 1.409 . S
C416 H438 0.931 . S
C417 C412 1.356 . S
C417 C416 1.409 . S
C417 H439 0.930 . S
C418 O428 1.270 . S
C418 O429 1.248 . S
C419 O430 1.267 . S
C419 O431 1.278 . S
O420 Pr400 2.562 . S
O420 C402 1.254 . S
O421 Pr400 2.490 . S
O421 C402 1.225 . S
O422 Pr400 2.695 . S
O422 Pr401 2.436 . S
O422 C409 1.270 . S
O423 Pr400 2.512 . S
O423 C409 1.248 . S
O424 Pr401 2.438 . S
O424 C410 1.267 . S
O425 Pr400 2.437 . S
O425 C410 1.278 . S
O426 Pr401 2.562 . S
O426 C411 1.254 . S
O427 Pr401 2.490 . S
O427 C411 1.225 . S
O428 Pr400 2.436 . S
O428 Pr401 2.695 . S
O428 C418 1.270 . S
O429 Pr401 2.512 . S
O429 C418 1.248 . S
O430 Pr400 2.438 . S
O430 C419 1.267 . S
O431 Pr401 2.437 . S
O431 C419 1.278 . S
H432 C404 0.929 . S
H433 C405 0.929 . S
H434 C407 0.931 . S
H435 C408 0.930 . S
H436 C413 0.929 . S
H437 C414 0.929 . S
H438 C416 0.931 . S
H439 C417 0.930 . S
Pr440 C442 2.880 . S
Pr440 O460 2.562 . S
Pr440 O461 2.490 . S
Pr440 O462 2.695 1_655 S
Pr440 O463 2.512 . S
Pr440 O465 2.437 . S
Pr440 O468 2.436 . S
Pr440 O470 2.438 1_655 S
Pr441 C451 2.880 . S
Pr441 O462 2.436 . S
Pr441 O464 2.438 1_455 S
Pr441 O466 2.562 . S
Pr441 O467 2.490 . S
Pr441 O468 2.695 1_455 S
Pr441 O469 2.512 . S
Pr441 O471 2.437 . S
C442 Pr440 2.880 . S
C442 C443 1.491 . S
C442 O460 1.254 . S
C442 O461 1.225 . S
C443 C442 1.491 . S
C443 C444 1.392 . S
C443 C448 1.356 . S
C444 C443 1.392 . S
C444 C445 1.368 . S
C444 H472 0.929 . S
C445 C444 1.368 . S
C445 C446 1.386 . S
C445 H473 0.929 . S
C446 C445 1.386 . S
C446 C447 1.373 . S
C447 C446 1.373 . S
C447 C448 1.409 . S
C447 H474 0.931 . S
C448 C443 1.356 . S
C448 C447 1.409 . S
C448 H475 0.930 . S
C449 O462 1.256 1_655 S
C449 O463 1.273 . S
C450 O464 1.267 . S
C450 O465 1.278 . S
C451 Pr441 2.880 . S
C451 C452 1.491 . S
C451 O466 1.254 . S
C451 O467 1.225 . S
C452 C451 1.491 . S
C452 C453 1.392 . S
C452 C457 1.356 . S
C453 C452 1.392 . S
C453 C454 1.368 . S
C453 H476 0.929 . S
C454 C453 1.368 . S
C454 C455 1.386 . S
C454 H477 0.929 . S
C455 C454 1.386 . S
C455 C456 1.373 . S
C456 C455 1.373 . S
C456 C457 1.409 . S
C456 H478 0.931 . S
C457 C452 1.356 . S
C457 C456 1.409 . S
C457 H479 0.930 . S
C458 O468 1.270 1_455 S
C458 O469 1.248 . S
C459 O470 1.267 . S
C459 O471 1.278 . S
O460 Pr440 2.562 . S
O460 C442 1.254 . S
O461 Pr440 2.490 . S
O461 C442 1.225 . S
O462 Pr440 2.695 1_455 S
O462 Pr441 2.436 . S
O462 C449 1.256 1_455 S
O463 Pr440 2.512 . S
O463 C449 1.273 . S
O464 Pr441 2.438 1_655 S
O464 C450 1.267 . S
O465 Pr440 2.437 . S
O465 C450 1.278 . S
O466 Pr441 2.562 . S
O466 C451 1.254 . S
O467 Pr441 2.490 . S
O467 C451 1.225 . S
O468 Pr440 2.436 . S
O468 Pr441 2.695 1_655 S
O468 C458 1.270 1_655 S
O469 Pr441 2.512 . S
O469 C458 1.248 . S
O470 Pr440 2.438 1_455 S
O470 C459 1.267 . S
O471 Pr441 2.437 . S
O471 C459 1.278 . S
H472 C444 0.929 . S
H473 C445 0.929 . S
H474 C447 0.931 . S
H475 C448 0.930 . S
H476 C453 0.929 . S
H477 C454 0.929 . S
H478 C456 0.931 . S
H479 C457 0.930 . S
H480 C492 0.930 . S
H481 C494 0.930 . S
H482 C495 0.930 . S
H483 C499 0.959 . S
H484 C499 0.959 . S
H485 C499 0.961 . S
H486 C500 0.960 . S
H487 C500 0.961 . S
H488 C500 0.959 . S
H489 C503 0.929 . S
H490 C504 0.931 . S
H491 C506 0.930 . S
C492 H480 0.930 . S
C492 C493 1.387 1_545 S
C492 C497 1.399 . S
C493 C492 1.387 1_565 S
C493 C494 1.390 . S
C494 H481 0.930 . S
C494 C493 1.390 . S
C494 C495 1.388 . S
C495 H482 0.930 . S
C495 C494 1.388 . S
C495 C496 1.390 . S
C496 C495 1.390 . S
C496 C497 1.394 1_565 S
C496 C502 1.465 . S
C497 C492 1.399 . S
C497 C496 1.394 1_545 S
C497 C498 1.516 . S
C498 C497 1.516 . S
C498 C499 1.502 . S
C498 C500 1.561 . S
C498 C501 1.526 . S
C499 H483 0.959 . S
C499 H484 0.959 . S
C499 H485 0.961 . S
C499 C498 1.502 . S
C500 H486 0.960 . S
C500 H487 0.961 . S
C500 H488 0.959 . S
C500 C498 1.561 . S
C501 C498 1.526 . S
C501 C502 1.396 1_545 S
C501 C506 1.390 . S
C502 C496 1.465 . S
C502 C501 1.396 1_565 S
C502 C503 1.399 . S
C503 H489 0.929 . S
C503 C502 1.399 . S
C503 C504 1.385 . S
C504 H490 0.931 . S
C504 C503 1.385 . S
C504 C505 1.393 . S
C505 C504 1.393 . S
C505 C506 1.384 1_565 S
C506 H491 0.930 . S
C506 C501 1.390 . S
C506 C505 1.384 1_545 S
H507 C519 0.930 . S
H508 C521 0.930 . S
H509 C522 0.930 . S
H510 C526 0.959 . S
H511 C526 0.959 . S
H512 C526 0.961 . S
H513 C527 0.960 . S
H514 C527 0.961 . S
H515 C527 0.959 . S
H516 C530 0.929 . S
H517 C531 0.931 . S
H518 C533 0.930 . S
C519 H507 0.930 . S
C519 C520 1.399 . S
C519 C524 1.399 . S
C520 C519 1.399 . S
C520 C521 1.376 . S
C521 H508 0.930 . S
C521 C520 1.376 . S
C521 C522 1.388 . S
C522 H509 0.930 . S
C522 C521 1.388 . S
C522 C523 1.390 . S
C523 C522 1.390 . S
C523 C524 1.394 . S
C523 C529 1.465 . S
C524 C519 1.399 . S
C524 C523 1.394 . S
C524 C525 1.516 . S
C525 C524 1.516 . S
C525 C526 1.502 . S
C525 C527 1.561 . S
C525 C528 1.526 . S
C526 H510 0.959 . S
C526 H511 0.959 . S
C526 H512 0.961 . S
C526 C525 1.502 . S
C527 H513 0.960 . S
C527 H514 0.961 . S
C527 H515 0.959 . S
C527 C525 1.561 . S
C528 C525 1.526 . S
C528 C529 1.396 . S
C528 C533 1.390 . S
C529 C523 1.465 . S
C529 C528 1.396 . S
C529 C530 1.399 . S
C530 H516 0.929 . S
C530 C529 1.399 . S
C530 C531 1.385 . S
C531 H517 0.931 . S
C531 C530 1.385 . S
C531 C532 1.389 . S
C532 C531 1.389 . S
C532 C533 1.387 . S
C533 H518 0.930 . S
C533 C528 1.390 . S
C533 C532 1.387 . S
H534 C546 0.930 . S
H535 C548 0.930 . S
H536 C549 0.930 . S
H537 C553 0.959 . S
H538 C553 0.959 . S
H539 C553 0.961 . S
H540 C554 0.960 . S
H541 C554 0.961 . S
H542 C554 0.959 . S
H543 C557 0.929 . S
H544 C558 0.931 . S
H545 C560 0.930 . S
C546 H534 0.930 . S
C546 C547 1.399 . S
C546 C551 1.399 . S
C547 C546 1.399 . S
C547 C548 1.376 . S
C548 H535 0.930 . S
C548 C547 1.376 . S
C548 C549 1.388 . S
C549 H536 0.930 . S
C549 C548 1.388 . S
C549 C550 1.390 . S
C550 C549 1.390 . S
C550 C551 1.394 . S
C550 C556 1.465 . S
C551 C546 1.399 . S
C551 C550 1.394 . S
C551 C552 1.516 . S
C552 C551 1.516 . S
C552 C553 1.502 . S
C552 C554 1.561 . S
C552 C555 1.526 . S
C553 H537 0.959 . S
C553 H538 0.959 . S
C553 H539 0.961 . S
C553 C552 1.502 . S
C554 H540 0.960 . S
C554 H541 0.961 . S
C554 H542 0.959 . S
C554 C552 1.561 . S
C555 C552 1.526 . S
C555 C556 1.396 . S
C555 C560 1.390 . S
C556 C550 1.465 . S
C556 C555 1.396 . S
C556 C557 1.399 . S
C557 H543 0.929 . S
C557 C556 1.399 . S
C557 C558 1.385 . S
C558 H544 0.931 . S
C558 C557 1.385 . S
C558 C559 1.389 . S
C559 C558 1.389 . S
C559 C560 1.387 . S
C560 H545 0.930 . S
C560 C555 1.390 . S
C560 C559 1.387 . S
H561 C573 0.930 . S
H562 C575 0.930 . S
H563 C576 0.930 . S
H564 C580 0.959 . S
H565 C580 0.959 . S
H566 C580 0.961 . S
H567 C581 0.960 . S
H568 C581 0.961 . S
H569 C581 0.959 . S
H570 C584 0.929 . S
H571 C585 0.931 . S
H572 C587 0.930 . S
C573 H561 0.930 . S
C573 C574 1.399 1_655 S
C573 C578 1.402 . S
C574 C573 1.399 1_455 S
C574 C575 1.376 . S
C575 H562 0.930 . S
C575 C574 1.376 . S
C575 C576 1.388 . S
C576 H563 0.930 . S
C576 C575 1.388 . S
C576 C577 1.390 . S
C577 C576 1.390 . S
C577 C578 1.385 1_455 S
C577 C583 1.465 . S
C578 C573 1.402 . S
C578 C577 1.385 1_655 S
C578 C579 1.520 . S
C579 C578 1.520 . S
C579 C580 1.502 . S
C579 C581 1.561 1_655 S
C579 C582 1.527 . S
C580 H564 0.959 . S
C580 H565 0.959 . S
C580 H566 0.961 . S
C580 C579 1.502 . S
C581 H567 0.960 . S
C581 H568 0.961 . S
C581 H569 0.959 . S
C581 C579 1.561 1_455 S
C582 C579 1.527 . S
C582 C583 1.394 1_655 S
C582 C587 1.390 . S
C583 C577 1.465 . S
C583 C582 1.394 1_455 S
C583 C584 1.399 . S
C584 H570 0.929 . S
C584 C583 1.399 . S
C584 C585 1.385 . S
C585 H571 0.931 . S
C585 C584 1.385 . S
C585 C586 1.389 . S
C586 C585 1.389 . S
C586 C587 1.387 1_455 S
C587 H572 0.930 . S
C587 C582 1.390 . S
C587 C586 1.387 1_655 S
H588 C600 0.930 . S
H589 C602 0.930 . S
H590 C603 0.930 . S
H591 C607 0.959 . S
H592 C607 0.959 . S
H593 C607 0.961 . S
H594 C608 0.960 1_554 S
H595 C608 0.961 . S
H596 C608 0.959 . S
H597 C611 0.929 . S
H598 C612 0.931 . S
H599 C614 0.930 . S
C600 H588 0.930 . S
C600 C601 1.399 1_565 S
C600 C605 1.399 . S
C601 C600 1.399 1_545 S
C601 C602 1.376 . S
C602 H589 0.930 . S
C602 C601 1.376 . S
C602 C603 1.388 . S
C603 H590 0.930 . S
C603 C602 1.388 . S
C603 C604 1.390 . S
C604 C603 1.390 . S
C604 C605 1.394 1_545 S
C604 C610 1.465 1_554 S
C605 C600 1.399 . S
C605 C604 1.394 1_565 S
C605 C606 1.516 . S
C606 C605 1.516 . S
C606 C607 1.502 . S
C606 C608 1.561 1_554 S
C606 C609 1.526 1_554 S
C607 H591 0.959 . S
C607 H592 0.959 . S
C607 H593 0.961 . S
C607 C606 1.502 . S
C608 H594 0.960 1_556 S
C608 H595 0.961 . S
C608 H596 0.959 . S
C608 C606 1.561 1_556 S
C609 C606 1.526 1_556 S
C609 C610 1.396 1_565 S
C609 C614 1.390 . S
C610 C604 1.465 1_556 S
C610 C609 1.396 1_545 S
C610 C611 1.399 . S
C611 H597 0.929 . S
C611 C610 1.399 . S
C611 C612 1.385 . S
C612 H598 0.931 . S
C612 C611 1.385 . S
C612 C613 1.389 . S
C613 C612 1.389 . S
C613 C614 1.387 1_545 S
C614 H599 0.930 . S
C614 C609 1.390 . S
C614 C613 1.387 1_565 S
H615 C627 0.930 . S
H616 C629 0.930 . S
H617 C630 0.930 . S
H618 C634 0.959 . S
H619 C634 0.959 . S
H620 C634 0.961 . S
H621 C635 0.960 . S
H622 C635 0.961 . S
H623 C635 0.959 . S
H624 C638 0.929 . S
H625 C639 0.931 . S
H626 C641 0.930 . S
C627 H615 0.930 . S
C627 C628 1.399 . S
C627 C632 1.399 . S
C628 C627 1.399 . S
C628 C629 1.376 . S
C629 H616 0.930 . S
C629 C628 1.376 . S
C629 C630 1.388 . S
C630 H617 0.930 . S
C630 C629 1.388 . S
C630 C631 1.390 . S
C631 C630 1.390 . S
C631 C632 1.394 . S
C631 C637 1.465 1_554 S
C632 C627 1.399 . S
C632 C631 1.394 . S
C632 C633 1.516 1_554 S
C633 C632 1.516 1_556 S
C633 C634 1.502 . S
C633 C635 1.561 . S
C633 C636 1.526 . S
C634 H618 0.959 . S
C634 H619 0.959 . S
C634 H620 0.961 . S
C634 C633 1.502 . S
C635 H621 0.960 . S
C635 H622 0.961 . S
C635 H623 0.959 . S
C635 C633 1.561 . S
C636 C633 1.526 . S
C636 C637 1.396 . S
C636 C641 1.390 . S
C637 C631 1.465 1_556 S
C637 C636 1.396 . S
C637 C638 1.399 . S
C638 H624 0.929 . S
C638 C637 1.399 . S
C638 C639 1.385 . S
C639 H625 0.931 . S
C639 C638 1.385 . S
C639 C640 1.389 . S
C640 C639 1.389 . S
C640 C641 1.387 . S
C641 H626 0.930 . S
C641 C636 1.390 . S
C641 C640 1.387 . S
H642 C654 0.930 . S
H643 C656 0.930 . S
H644 C657 0.930 . S
H645 C661 0.959 . S
H646 C661 0.959 . S
H647 C661 0.961 . S
H648 C662 0.960 . S
H649 C662 0.961 1_556 S
H650 C662 0.959 . S
H651 C665 0.929 . S
H652 C666 0.931 . S
H653 C668 0.930 . S
C654 H642 0.930 . S
C654 C655 1.399 . S
C654 C659 1.399 . S
C655 C654 1.399 . S
C655 C656 1.376 . S
C656 H643 0.930 . S
C656 C655 1.376 . S
C656 C657 1.388 . S
C657 H644 0.930 . S
C657 C656 1.388 . S
C657 C658 1.390 . S
C658 C657 1.390 . S
C658 C659 1.394 . S
C658 C664 1.465 1_554 S
C659 C654 1.399 . S
C659 C658 1.394 . S
C659 C660 1.516 1_554 S
C660 C659 1.516 1_556 S
C660 C661 1.502 . S
C660 C662 1.561 1_556 S
C660 C663 1.526 . S
C661 H645 0.959 . S
C661 H646 0.959 . S
C661 H647 0.961 . S
C661 C660 1.502 . S
C662 H648 0.960 . S
C662 H649 0.961 1_554 S
C662 H650 0.959 . S
C662 C660 1.561 1_554 S
C663 C660 1.526 . S
C663 C664 1.396 . S
C663 C668 1.390 . S
C664 C658 1.465 1_556 S
C664 C663 1.396 . S
C664 C665 1.399 . S
C665 H651 0.929 . S
C665 C664 1.399 . S
C665 C666 1.385 . S
C666 H652 0.931 . S
C666 C665 1.385 . S
C666 C667 1.389 . S
C667 C666 1.389 . S
C667 C668 1.387 . S
C668 H653 0.930 . S
C668 C663 1.390 . S
C668 C667 1.387 . S
H669 C681 0.930 . S
H670 C683 0.930 . S
H671 C684 0.930 . S
H672 C688 0.959 . S
H673 C688 0.959 . S
H674 C688 0.961 . S
H675 C689 0.960 . S
H676 C689 0.961 . S
H677 C689 0.959 . S
H678 C692 0.929 . S
H679 C693 0.931 . S
H680 C695 0.930 . S
C681 H669 0.930 . S
C681 C682 1.395 1_655 S
C681 C686 1.399 . S
C682 C681 1.395 1_455 S
C682 C683 1.385 . S
C683 H670 0.930 . S
C683 C682 1.385 . S
C683 C684 1.388 . S
C684 H671 0.930 . S
C684 C683 1.388 . S
C684 C685 1.390 . S
C685 C684 1.390 . S
C685 C686 1.394 1_455 S
C685 C691 1.465 1_554 S
C686 C681 1.399 . S
C686 C685 1.394 1_655 S
C686 C687 1.515 1_554 S
C687 C686 1.515 1_556 S
C687 C688 1.545 . S
C687 C689 1.516 1_655 S
C687 C690 1.525 . S
C688 H672 0.959 . S
C688 H673 0.959 . S
C688 H674 0.961 . S
C688 C687 1.545 . S
C689 H675 0.960 . S
C689 H676 0.961 . S
C689 H677 0.959 . S
C689 C687 1.516 1_455 S
C690 C687 1.525 . S
C690 C691 1.394 1_655 S
C690 C695 1.391 . S
C691 C685 1.465 1_556 S
C691 C690 1.394 1_455 S
C691 C692 1.399 . S
C692 H678 0.929 . S
C692 C691 1.399 . S
C692 C693 1.385 . S
C693 H679 0.931 . S
C693 C692 1.385 . S
C693 C694 1.385 1_455 S
C694 C693 1.385 1_655 S
C694 C695 1.389 . S
C695 H680 0.930 . S
C695 C690 1.391 . S
C695 C694 1.389 . S
H696 C708 0.930 . S
H697 C710 0.930 . S
H698 C711 0.930 . S
H699 C715 0.959 . S
H700 C715 0.959 . S
H701 C715 0.961 . S
H702 C716 0.960 . S
H703 C716 0.961 . S
H704 C716 0.959 . S
H705 C719 0.929 . S
H706 C720 0.931 . S
H707 C722 0.930 . S
C708 H696 0.930 . S
C708 C709 1.402 . S
C708 C713 1.399 1_455 S
C709 C708 1.402 . S
C709 C710 1.366 1_455 S
C710 H697 0.930 . S
C710 C709 1.366 1_655 S
C710 C711 1.388 . S
C711 H698 0.930 . S
C711 C710 1.388 . S
C711 C712 1.390 . S
C712 C711 1.390 . S
C712 C713 1.394 . S
C712 C718 1.465 . S
C713 C708 1.399 1_655 S
C713 C712 1.394 . S
C713 C714 1.516 . S
C714 C713 1.516 . S
C714 C715 1.502 1_655 S
C714 C716 1.561 . S
C714 C717 1.526 . S
C715 H699 0.959 . S
C715 H700 0.959 . S
C715 H701 0.961 . S
C715 C714 1.502 1_455 S
C716 H702 0.960 . S
C716 H703 0.961 . S
C716 H704 0.959 . S
C716 C714 1.561 . S
C717 C714 1.526 . S
C717 C718 1.396 . S
C717 C722 1.390 . S
C718 C712 1.465 . S
C718 C717 1.396 . S
C718 C719 1.399 . S
C719 H705 0.929 . S
C719 C718 1.399 . S
C719 C720 1.385 . S
C720 H706 0.931 . S
C720 C719 1.385 . S
C720 C721 1.389 . S
C721 C720 1.389 . S
C721 C722 1.387 . S
C722 H707 0.930 . S
C722 C717 1.390 . S
C722 C721 1.387 . S
H723 C735 0.930 . S
H724 C737 0.930 . S
H725 C738 0.930 . S
H726 C742 0.959 . S
H727 C742 0.959 . S
H728 C742 0.961 . S
H729 C743 0.960 . S
H730 C743 0.961 . S
H731 C743 0.959 . S
H732 C746 0.929 1_545 S
H733 C747 0.931 . S
H734 C749 0.930 . S
C735 H723 0.930 . S
C735 C736 1.399 1_565 S
C735 C740 1.399 . S
C736 C735 1.399 1_545 S
C736 C737 1.376 . S
C737 H724 0.930 . S
C737 C736 1.376 . S
C737 C738 1.388 . S
C738 H725 0.930 . S
C738 C737 1.388 . S
C738 C739 1.390 1_545 S
C739 C738 1.390 1_565 S
C739 C740 1.394 . S
C739 C745 1.465 . S
C740 C735 1.399 . S
C740 C739 1.394 . S
C740 C741 1.516 . S
C741 C740 1.516 . S
C741 C742 1.502 . S
C741 C743 1.561 . S
C741 C744 1.526 . S
C742 H726 0.959 . S
C742 H727 0.959 . S
C742 H728 0.961 . S
C742 C741 1.502 . S
C743 H729 0.960 . S
C743 H730 0.961 . S
C743 H731 0.959 . S
C743 C741 1.561 . S
C744 C741 1.526 . S
C744 C745 1.396 . S
C744 C749 1.390 . S
C745 C739 1.465 . S
C745 C744 1.396 . S
C745 C746 1.399 . S
C746 H732 0.929 1_565 S
C746 C745 1.399 . S
C746 C747 1.385 . S
C747 H733 0.931 . S
C747 C746 1.385 . S
C747 C748 1.389 . S
C748 C747 1.389 . S
C748 C749 1.387 . S
C749 H734 0.930 . S
C749 C744 1.390 . S
C749 C748 1.387 . S
H750 C762 0.930 . S
H751 C764 0.930 . S
H752 C765 0.930 . S
H753 C769 0.959 . S
H754 C769 0.959 . S
H755 C769 0.961 . S
H756 C770 0.960 . S
H757 C770 0.961 . S
H758 C770 0.959 . S
H759 C773 0.929 . S
H760 C774 0.931 . S
H761 C776 0.930 . S
C762 H750 0.930 . S
C762 C763 1.399 . S
C762 C767 1.399 . S
C763 C762 1.399 . S
C763 C764 1.376 . S
C764 H751 0.930 . S
C764 C763 1.376 . S
C764 C765 1.388 . S
C765 H752 0.930 . S
C765 C764 1.388 . S
C765 C766 1.390 . S
C766 C765 1.390 . S
C766 C767 1.394 . S
C766 C772 1.465 . S
C767 C762 1.399 . S
C767 C766 1.394 . S
C767 C768 1.516 . S
C768 C767 1.516 . S
C768 C769 1.502 . S
C768 C770 1.561 . S
C768 C771 1.526 . S
C769 H753 0.959 . S
C769 H754 0.959 . S
C769 H755 0.961 . S
C769 C768 1.502 . S
C770 H756 0.960 . S
C770 H757 0.961 . S
C770 H758 0.959 . S
C770 C768 1.561 . S
C771 C768 1.526 . S
C771 C772 1.396 . S
C771 C776 1.390 . S
C772 C766 1.465 . S
C772 C771 1.396 . S
C772 C773 1.399 . S
C773 H759 0.929 . S
C773 C772 1.399 . S
C773 C774 1.385 . S
C774 H760 0.931 . S
C774 C773 1.385 . S
C774 C775 1.389 . S
C775 C774 1.389 . S
C775 C776 1.387 . S
C776 H761 0.930 . S
C776 C771 1.390 . S
C776 C775 1.387 . S
H777 C789 0.930 . S
H778 C791 0.930 . S
H779 C792 0.930 . S
H780 C796 0.959 . S
H781 C796 0.959 . S
H782 C796 0.961 . S
H783 C797 0.960 . S
H784 C797 0.961 . S
H785 C797 0.959 . S
H786 C800 0.929 . S
H787 C801 0.931 . S
H788 C803 0.930 . S
C789 H777 0.930 . S
C789 C790 1.399 . S
C789 C794 1.399 . S
C790 C789 1.399 . S
C790 C791 1.376 . S
C791 H778 0.930 . S
C791 C790 1.376 . S
C791 C792 1.388 . S
C792 H779 0.930 . S
C792 C791 1.388 . S
C792 C793 1.390 . S
C793 C792 1.390 . S
C793 C794 1.394 . S
C793 C799 1.465 . S
C794 C789 1.399 . S
C794 C793 1.394 . S
C794 C795 1.516 . S
C795 C794 1.516 . S
C795 C796 1.502 . S
C795 C797 1.561 . S
C795 C798 1.526 . S
C796 H780 0.959 . S
C796 H781 0.959 . S
C796 H782 0.961 . S
C796 C795 1.502 . S
C797 H783 0.960 . S
C797 H784 0.961 . S
C797 H785 0.959 . S
C797 C795 1.561 . S
C798 C795 1.526 . S
C798 C799 1.396 . S
C798 C803 1.390 . S
C799 C793 1.465 . S
C799 C798 1.396 . S
C799 C800 1.399 . S
C800 H786 0.929 . S
C800 C799 1.399 . S
C800 C801 1.385 . S
C801 H787 0.931 . S
C801 C800 1.385 . S
C801 C802 1.389 . S
C802 C801 1.389 . S
C802 C803 1.387 . S
C803 H788 0.930 . S
C803 C798 1.390 . S
C803 C802 1.387 . S
H804 C816 0.930 1_556 S
H805 C818 0.930 . S
H806 C819 0.930 . S
H807 C823 0.959 . S
H808 C823 0.959 . S
H809 C823 0.961 . S
H810 C824 0.960 . S
H811 C824 0.961 . S
H812 C824 0.959 1_655 S
H813 C827 0.929 . S
H814 C828 0.931 . S
H815 C830 0.930 . S
C816 H804 0.930 1_554 S
C816 C817 1.399 1_455 S
C816 C821 1.399 1_554 S
C817 C816 1.399 1_655 S
C817 C818 1.376 . S
C818 H805 0.930 . S
C818 C817 1.376 . S
C818 C819 1.388 . S
C819 H806 0.930 . S
C819 C818 1.388 . S
C819 C820 1.390 1_655 S
C820 C819 1.390 1_455 S
C820 C821 1.394 1_554 S
C820 C826 1.465 1_554 S
C821 C816 1.399 1_556 S
C821 C820 1.394 1_556 S
C821 C822 1.516 . S
C822 C821 1.516 . S
C822 C823 1.502 . S
C822 C824 1.561 . S
C822 C825 1.526 . S
C823 H807 0.959 . S
C823 H808 0.959 . S
C823 H809 0.961 . S
C823 C822 1.502 . S
C824 H810 0.960 . S
C824 H811 0.961 . S
C824 H812 0.959 1_455 S
C824 C822 1.561 . S
C825 C822 1.526 . S
C825 C826 1.396 . S
C825 C830 1.390 . S
C826 C820 1.465 1_556 S
C826 C825 1.396 . S
C826 C827 1.399 1_556 S
C827 H813 0.929 . S
C827 C826 1.399 1_554 S
C827 C828 1.385 1_554 S
C828 H814 0.931 . S
C828 C827 1.385 1_556 S
C828 C829 1.389 . S
C829 C828 1.389 . S
C829 C830 1.387 . S
C830 H815 0.930 . S
C830 C825 1.390 . S
C830 C829 1.387 . S
H831 C843 0.930 1_556 S
H832 C845 0.930 . S
H833 C846 0.930 . S
H834 C850 0.959 1_545 S
H835 C850 0.959 . S
H836 C850 0.961 . S
H837 C851 0.960 . S
H838 C851 0.961 . S
H839 C851 0.959 1_554 S
H840 C854 0.929 . S
H841 C855 0.931 . S
H842 C857 0.930 . S
C843 H831 0.930 1_554 S
C843 C844 1.399 . S
C843 C848 1.399 1_564 S
C844 C843 1.399 . S
C844 C845 1.376 1_565 S
C845 H832 0.930 . S
C845 C844 1.376 1_545 S
C845 C846 1.388 . S
C846 H833 0.930 . S
C846 C845 1.388 . S
C846 C847 1.390 . S
C847 C846 1.390 . S
C847 C848 1.394 1_554 S
C847 C853 1.465 . S
C848 C843 1.399 1_546 S
C848 C847 1.394 1_556 S
C848 C849 1.516 1_545 S
C849 C848 1.516 1_565 S
C849 C850 1.502 . S
C849 C851 1.561 . S
C849 C852 1.526 1_565 S
C850 H834 0.959 1_565 S
C850 H835 0.959 . S
C850 H836 0.961 . S
C850 C849 1.502 . S
C851 H837 0.960 . S
C851 H838 0.961 . S
C851 H839 0.959 1_556 S
C851 C849 1.561 . S
C852 C849 1.526 1_545 S
C852 C853 1.396 1_556 S
C852 C857 1.390 . S
C853 C847 1.465 . S
C853 C852 1.396 1_554 S
C853 C854 1.399 . S
C854 H840 0.929 . S
C854 C853 1.399 . S
C854 C855 1.385 1_554 S
C855 H841 0.931 . S
C855 C854 1.385 1_556 S
C855 C856 1.389 . S
C856 C855 1.389 . S
C856 C857 1.387 . S
C857 H842 0.930 . S
C857 C852 1.390 . S
C857 C856 1.387 . S
H858 C870 0.930 . S
H859 C872 0.930 . S
H860 C873 0.930 . S
H861 C877 0.959 . S
H862 C877 0.959 . S
H863 C877 0.961 . S
H864 C878 0.960 . S
H865 C878 0.961 . S
H866 C878 0.959 . S
H867 C881 0.929 . S
H868 C882 0.931 . S
H869 C884 0.930 . S
C870 H858 0.930 . S
C870 C871 1.399 . S
C870 C875 1.399 . S
C871 C870 1.399 . S
C871 C872 1.376 . S
C872 H859 0.930 . S
C872 C871 1.376 . S
C872 C873 1.388 . S
C873 H860 0.930 . S
C873 C872 1.388 . S
C873 C874 1.390 . S
C874 C873 1.390 . S
C874 C875 1.394 . S
C874 C880 1.465 1_554 S
C875 C870 1.399 . S
C875 C874 1.394 . S
C875 C876 1.516 1_554 S
C876 C875 1.516 1_556 S
C876 C877 1.502 . S
C876 C878 1.561 1_556 S
C876 C879 1.526 . S
C877 H861 0.959 . S
C877 H862 0.959 . S
C877 H863 0.961 . S
C877 C876 1.502 . S
C878 H864 0.960 . S
C878 H865 0.961 . S
C878 H866 0.959 . S
C878 C876 1.561 1_554 S
C879 C876 1.526 . S
C879 C880 1.396 . S
C879 C884 1.390 . S
C880 C874 1.465 1_556 S
C880 C879 1.396 . S
C880 C881 1.399 . S
C881 H867 0.929 . S
C881 C880 1.399 . S
C881 C882 1.385 . S
C882 H868 0.931 . S
C882 C881 1.385 . S
C882 C883 1.389 . S
C883 C882 1.389 . S
C883 C884 1.387 . S
C884 H869 0.930 . S
C884 C879 1.390 . S
C884 C883 1.387 . S
H885 C897 0.930 . S
H886 C899 0.930 . S
H887 C900 0.930 . S
H888 C904 0.959 . S
H889 C904 0.959 . S
H890 C904 0.961 . S
H891 C905 0.960 . S
H892 C905 0.961 . S
H893 C905 0.959 . S
H894 C908 0.929 . S
H895 C909 0.923 1_554 S
H896 C911 0.930 . S
C897 H885 0.930 . S
C897 C898 1.399 1_556 S
C897 C902 1.399 . S
C898 C897 1.399 1_554 S
C898 C899 1.376 . S
C899 H886 0.930 . S
C899 C898 1.376 . S
C899 C900 1.388 . S
C900 H887 0.930 . S
C900 C899 1.388 . S
C900 C901 1.390 . S
C901 C900 1.390 . S
C901 C902 1.394 1_554 S
C901 C907 1.465 . S
C902 C897 1.399 . S
C902 C901 1.394 1_556 S
C902 C903 1.516 . S
C903 C902 1.516 . S
C903 C904 1.502 . S
C903 C905 1.561 . S
C903 C906 1.526 . S
C904 H888 0.959 . S
C904 H889 0.959 . S
C904 H890 0.961 . S
C904 C903 1.502 . S
C905 H891 0.960 . S
C905 H892 0.961 . S
C905 H893 0.959 . S
C905 C903 1.561 . S
C906 C903 1.526 . S
C906 C907 1.396 1_556 S
C906 C911 1.390 . S
C907 C901 1.465 . S
C907 C906 1.396 1_554 S
C907 C908 1.399 . S
C908 H894 0.929 . S
C908 C907 1.399 . S
C908 C909 1.375 1_554 S
C909 H895 0.923 1_556 S
C909 C908 1.375 1_556 S
C909 C910 1.407 . S
C910 C909 1.407 . S
C910 C911 1.387 . S
C911 H896 0.930 . S
C911 C906 1.390 . S
C911 C910 1.387 . S
H912 C924 0.930 . S
H913 C926 0.930 . S
H914 C927 0.930 . S
H915 C931 0.959 . S
H916 C931 0.959 . S
H917 C931 0.961 . S
H918 C932 0.960 . S
H919 C932 0.961 . S
H920 C932 0.959 . S
H921 C935 0.929 . S
H922 C936 0.931 . S
H923 C938 0.930 1_655 S
C924 H912 0.930 . S
C924 C925 1.399 1_655 S
C924 C929 1.399 1_655 S
C925 C924 1.399 1_455 S
C925 C926 1.376 . S
C926 H913 0.930 . S
C926 C925 1.376 . S
C926 C927 1.388 . S
C927 H914 0.930 . S
C927 C926 1.388 . S
C927 C928 1.390 . S
C928 C927 1.390 . S
C928 C929 1.394 . S
C928 C934 1.465 . S
C929 C924 1.399 1_455 S
C929 C928 1.394 . S
C929 C930 1.516 1_455 S
C930 C929 1.516 1_655 S
C930 C931 1.502 . S
C930 C932 1.561 1_655 S
C930 C933 1.526 1_655 S
C931 H915 0.959 . S
C931 H916 0.959 . S
C931 H917 0.961 . S
C931 C930 1.502 . S
C932 H918 0.960 . S
C932 H919 0.961 . S
C932 H920 0.959 . S
C932 C930 1.561 1_455 S
C933 C930 1.526 1_455 S
C933 C934 1.396 . S
C933 C938 1.390 . S
C934 C928 1.465 . S
C934 C933 1.396 . S
C934 C935 1.399 . S
C935 H921 0.929 . S
C935 C934 1.399 . S
C935 C936 1.385 . S
C936 H922 0.931 . S
C936 C935 1.385 . S
C936 C937 1.389 . S
C937 C936 1.389 . S
C937 C938 1.387 . S
C938 H923 0.930 1_455 S
C938 C933 1.390 . S
C938 C937 1.387 . S
H939 C951 0.930 . S
H940 C953 0.930 . S
H941 C954 0.930 . S
H942 C958 0.959 . S
H943 C958 0.959 . S
H944 C958 0.961 . S
H945 C959 0.960 . S
H946 C959 0.961 . S
H947 C959 0.959 . S
H948 C962 0.929 . S
H949 C963 0.931 . S
H950 C965 0.930 . S
C951 H939 0.930 . S
C951 C952 1.399 1_565 S
C951 C956 1.399 . S
C952 C951 1.399 1_545 S
C952 C953 1.376 . S
C953 H940 0.930 . S
C953 C952 1.376 . S
C953 C954 1.388 . S
C954 H941 0.930 . S
C954 C953 1.388 . S
C954 C955 1.390 . S
C955 C954 1.390 . S
C955 C956 1.394 1_545 S
C955 C961 1.465 . S
C956 C951 1.399 . S
C956 C955 1.394 1_565 S
C956 C957 1.516 . S
C957 C956 1.516 . S
C957 C958 1.502 . S
C957 C959 1.561 . S
C957 C960 1.526 . S
C958 H942 0.959 . S
C958 H943 0.959 . S
C958 H944 0.961 . S
C958 C957 1.502 . S
C959 H945 0.960 . S
C959 H946 0.961 . S
C959 H947 0.959 . S
C959 C957 1.561 . S
C960 C957 1.526 . S
C960 C961 1.396 1_565 S
C960 C965 1.390 . S
C961 C955 1.465 . S
C961 C960 1.396 1_545 S
C961 C962 1.399 . S
C962 H948 0.929 . S
C962 C961 1.399 . S
C962 C963 1.385 . S
C963 H949 0.931 . S
C963 C962 1.385 . S
C963 C964 1.389 . S
C964 C963 1.389 . S
C964 C965 1.387 1_545 S
C965 H950 0.930 . S
C965 C960 1.390 . S
C965 C964 1.387 1_565 S
H966 C978 0.930 . S
H967 C980 0.930 . S
H968 C981 0.930 . S
H969 C985 0.959 . S
H970 C985 0.959 . S
H971 C985 0.961 . S
H972 C986 0.960 . S
H973 C986 0.961 . S
H974 C986 0.959 . S
H975 C989 0.929 . S
H976 C990 0.931 . S
H977 C992 0.930 . S
C978 H966 0.930 . S
C978 C979 1.399 . S
C978 C983 1.399 . S
C979 C978 1.399 . S
C979 C980 1.376 . S
C980 H967 0.930 . S
C980 C979 1.376 . S
C980 C981 1.388 . S
C981 H968 0.930 . S
C981 C980 1.388 . S
C981 C982 1.390 . S
C982 C981 1.390 . S
C982 C983 1.394 . S
C982 C988 1.465 . S
C983 C978 1.399 . S
C983 C982 1.394 . S
C983 C984 1.516 . S
C984 C983 1.516 . S
C984 C985 1.502 . S
C984 C986 1.561 . S
C984 C987 1.526 . S
C985 H969 0.959 . S
C985 H970 0.959 . S
C985 H971 0.961 . S
C985 C984 1.502 . S
C986 H972 0.960 . S
C986 H973 0.961 . S
C986 H974 0.959 . S
C986 C984 1.561 . S
C987 C984 1.526 . S
C987 C988 1.396 . S
C987 C992 1.390 . S
C988 C982 1.465 . S
C988 C987 1.396 . S
C988 C989 1.399 . S
C989 H975 0.929 . S
C989 C988 1.399 . S
C989 C990 1.385 . S
C990 H976 0.931 . S
C990 C989 1.385 . S
C990 C991 1.389 . S
C991 C990 1.389 . S
C991 C992 1.387 . S
C992 H977 0.930 . S
C992 C987 1.390 . S
C992 C991 1.387 . S
H993 C1005 0.930 . S
H994 C1007 0.930 . S
H995 C1008 0.930 . S
H996 C1012 0.959 . S
H997 C1012 0.959 . S
H998 C1012 0.961 . S
H999 C1013 0.960 . S
H1000 C1013 0.961 . S
H1001 C1013 0.959 . S
H1002 C1016 0.929 . S
H1003 C1017 0.931 . S
H1004 C1019 0.930 . S
C1005 H993 0.930 . S
C1005 C1006 1.399 . S
C1005 C1010 1.399 . S
C1006 C1005 1.399 . S
C1006 C1007 1.376 . S
C1007 H994 0.930 . S
C1007 C1006 1.376 . S
C1007 C1008 1.388 . S
C1008 H995 0.930 . S
C1008 C1007 1.388 . S
C1008 C1009 1.390 . S
C1009 C1008 1.390 . S
C1009 C1010 1.394 . S
C1009 C1015 1.465 . S
C1010 C1005 1.399 . S
C1010 C1009 1.394 . S
C1010 C1011 1.516 . S
C1011 C1010 1.516 . S
C1011 C1012 1.502 . S
C1011 C1013 1.561 . S
C1011 C1014 1.526 . S
C1012 H996 0.959 . S
C1012 H997 0.959 . S
C1012 H998 0.961 . S
C1012 C1011 1.502 . S
C1013 H999 0.960 . S
C1013 H1000 0.961 . S
C1013 H1001 0.959 . S
C1013 C1011 1.561 . S
C1014 C1011 1.526 . S
C1014 C1015 1.396 . S
C1014 C1019 1.390 . S
C1015 C1009 1.465 . S
C1015 C1014 1.396 . S
C1015 C1016 1.399 . S
C1016 H1002 0.929 . S
C1016 C1015 1.399 . S
C1016 C1017 1.385 . S
C1017 H1003 0.931 . S
C1017 C1016 1.385 . S
C1017 C1018 1.389 . S
C1018 C1017 1.389 . S
C1018 C1019 1.387 . S
C1019 H1004 0.930 . S
C1019 C1014 1.390 . S
C1019 C1018 1.387 . S
H1020 C1032 0.930 . S
H1021 C1034 0.930 . S
H1022 C1035 0.930 . S
H1023 C1039 0.959 . S
H1024 C1039 0.959 . S
H1025 C1039 0.961 . S
H1026 C1040 0.960 . S
H1027 C1040 0.961 . S
H1028 C1040 0.959 . S
H1029 C1043 0.929 . S
H1030 C1044 0.931 . S
H1031 C1046 0.930 1_455 S
C1032 H1020 0.930 . S
C1032 C1033 1.399 1_455 S
C1032 C1037 1.399 1_455 S
C1033 C1032 1.399 1_655 S
C1033 C1034 1.376 . S
C1034 H1021 0.930 . S
C1034 C1033 1.376 . S
C1034 C1035 1.388 . S
C1035 H1022 0.930 . S
C1035 C1034 1.388 . S
C1035 C1036 1.390 . S
C1036 C1035 1.390 . S
C1036 C1037 1.394 . S
C1036 C1042 1.465 . S
C1037 C1032 1.399 1_655 S
C1037 C1036 1.394 . S
C1037 C1038 1.516 1_655 S
C1038 C1037 1.516 1_455 S
C1038 C1039 1.502 . S
C1038 C1040 1.561 1_455 S
C1038 C1041 1.526 1_455 S
C1039 H1023 0.959 . S
C1039 H1024 0.959 . S
C1039 H1025 0.961 . S
C1039 C1038 1.502 . S
C1040 H1026 0.960 . S
C1040 H1027 0.961 . S
C1040 H1028 0.959 . S
C1040 C1038 1.561 1_655 S
C1041 C1038 1.526 1_655 S
C1041 C1042 1.396 . S
C1041 C1046 1.390 . S
C1042 C1036 1.465 . S
C1042 C1041 1.396 . S
C1042 C1043 1.399 . S
C1043 H1029 0.929 . S
C1043 C1042 1.399 . S
C1043 C1044 1.385 . S
C1044 H1030 0.931 . S
C1044 C1043 1.385 . S
C1044 C1045 1.389 . S
C1045 C1044 1.389 . S
C1045 C1046 1.387 . S
C1046 H1031 0.930 1_655 S
C1046 C1041 1.390 . S
C1046 C1045 1.387 . S
H1047 C1059 0.930 . S
H1048 C1061 0.930 . S
H1049 C1062 0.930 . S
H1050 C1066 0.959 . S
H1051 C1066 0.959 . S
H1052 C1066 0.961 . S
H1053 C1067 0.960 . S
H1054 C1067 0.961 . S
H1055 C1067 0.959 . S
H1056 C1070 0.929 . S
H1057 C1071 0.931 . S
H1058 C1073 0.930 . S
C1059 H1047 0.930 . S
C1059 C1060 1.399 . S
C1059 C1064 1.399 . S
C1060 C1059 1.399 . S
C1060 C1061 1.376 1_565 S
C1061 H1048 0.930 . S
C1061 C1060 1.376 1_545 S
C1061 C1062 1.388 . S
C1062 H1049 0.930 . S
C1062 C1061 1.388 . S
C1062 C1063 1.395 . S
C1063 C1062 1.395 . S
C1063 C1064 1.388 1_545 S
C1063 C1069 1.464 1_545 S
C1064 C1059 1.399 . S
C1064 C1063 1.388 1_565 S
C1064 C1065 1.516 . S
C1065 C1064 1.516 . S
C1065 C1066 1.502 . S
C1065 C1067 1.561 . S
C1065 C1068 1.526 . S
C1066 H1050 0.959 . S
C1066 H1051 0.959 . S
C1066 H1052 0.961 . S
C1066 C1065 1.502 . S
C1067 H1053 0.960 . S
C1067 H1054 0.961 . S
C1067 H1055 0.959 . S
C1067 C1065 1.561 . S
C1068 C1065 1.526 . S
C1068 C1069 1.422 . S
C1068 C1073 1.390 . S
C1069 C1063 1.464 1_565 S
C1069 C1068 1.422 . S
C1069 C1070 1.381 1_565 S
C1070 H1056 0.929 . S
C1070 C1069 1.381 1_545 S
C1070 C1071 1.385 . S
C1071 H1057 0.931 . S
C1071 C1070 1.385 . S
C1071 C1072 1.389 1_545 S
C1072 C1071 1.389 1_565 S
C1072 C1073 1.387 . S
C1073 H1058 0.930 . S
C1073 C1068 1.390 . S
C1073 C1072 1.387 . S
H1074 C1086 0.930 . S
H1075 C1088 0.930 . S
H1076 C1089 0.930 . S
H1077 C1093 0.959 . S
H1078 C1093 0.959 . S
H1079 C1093 0.961 . S
H1080 C1094 0.960 . S
H1081 C1094 0.961 . S
H1082 C1094 0.959 . S
H1083 C1097 0.929 . S
H1084 C1098 0.931 . S
H1085 C1100 0.930 . S
C1086 H1074 0.930 . S
C1086 C1087 1.399 . S
C1086 C1091 1.399 . S
C1087 C1086 1.399 . S
C1087 C1088 1.376 . S
C1088 H1075 0.930 . S
C1088 C1087 1.376 . S
C1088 C1089 1.388 . S
C1089 H1076 0.930 . S
C1089 C1088 1.388 . S
C1089 C1090 1.390 . S
C1090 C1089 1.390 . S
C1090 C1091 1.394 . S
C1090 C1096 1.465 . S
C1091 C1086 1.399 . S
C1091 C1090 1.394 . S
C1091 C1092 1.516 . S
C1092 C1091 1.516 . S
C1092 C1093 1.502 . S
C1092 C1094 1.561 . S
C1092 C1095 1.526 . S
C1093 H1077 0.959 . S
C1093 H1078 0.959 . S
C1093 H1079 0.961 . S
C1093 C1092 1.502 . S
C1094 H1080 0.960 . S
C1094 H1081 0.961 . S
C1094 H1082 0.959 . S
C1094 C1092 1.561 . S
C1095 C1092 1.526 . S
C1095 C1096 1.396 . S
C1095 C1100 1.390 . S
C1096 C1090 1.465 . S
C1096 C1095 1.396 . S
C1096 C1097 1.399 . S
C1097 H1083 0.929 . S
C1097 C1096 1.399 . S
C1097 C1098 1.385 . S
C1098 H1084 0.931 . S
C1098 C1097 1.385 . S
C1098 C1099 1.389 . S
C1099 C1098 1.389 . S
C1099 C1100 1.387 . S
C1100 H1085 0.930 . S
C1100 C1095 1.390 . S
C1100 C1099 1.387 . S
H1101 C1113 0.930 . S
H1102 C1115 0.930 . S
H1103 C1116 0.930 . S
H1104 C1120 0.959 . S
H1105 C1120 0.959 . S
H1106 C1120 0.961 . S
H1107 C1121 0.960 . S
H1108 C1121 0.961 . S
H1109 C1121 0.959 . S
H1110 C1124 0.929 . S
H1111 C1125 0.931 . S
H1112 C1127 0.930 . S
C1113 H1101 0.930 . S
C1113 C1114 1.399 . S
C1113 C1118 1.399 . S
C1114 C1113 1.399 . S
C1114 C1115 1.376 . S
C1115 H1102 0.930 . S
C1115 C1114 1.376 . S
C1115 C1116 1.388 . S
C1116 H1103 0.930 . S
C1116 C1115 1.388 . S
C1116 C1117 1.390 . S
C1117 C1116 1.390 . S
C1117 C1118 1.394 . S
C1117 C1123 1.465 . S
C1118 C1113 1.399 . S
C1118 C1117 1.394 . S
C1118 C1119 1.516 . S
C1119 C1118 1.516 . S
C1119 C1120 1.502 . S
C1119 C1121 1.561 . S
C1119 C1122 1.526 . S
C1120 H1104 0.959 . S
C1120 H1105 0.959 . S
C1120 H1106 0.961 . S
C1120 C1119 1.502 . S
C1121 H1107 0.960 . S
C1121 H1108 0.961 . S
C1121 H1109 0.959 . S
C1121 C1119 1.561 . S
C1122 C1119 1.526 . S
C1122 C1123 1.396 . S
C1122 C1127 1.390 . S
C1123 C1117 1.465 . S
C1123 C1122 1.396 . S
C1123 C1124 1.399 . S
C1124 H1110 0.929 . S
C1124 C1123 1.399 . S
C1124 C1125 1.385 . S
C1125 H1111 0.931 . S
C1125 C1124 1.385 . S
C1125 C1126 1.389 . S
C1126 C1125 1.389 . S
C1126 C1127 1.387 . S
C1127 H1112 0.930 . S
C1127 C1122 1.390 . S
C1127 C1126 1.387 . S
C493 C255 2.270 1_565 S
C505 C329 2.422 . S
C532 C369 2.437 . S
C520 C295 2.219 . S
C559 C409 2.451 . S
C547 C175 2.200 . S
C586 C449 2.431 1_455 S
C574 C215 2.263 . S
C613 C338 2.430 . S
C601 C95 2.211 . S
C628 C135 2.275 . S
C640 C378 2.436 . S
C655 C15 2.267 . S
C667 C418 2.445 . S
C682 C55 2.267 . S
C694 C458 2.427 1_655 S
C721 C335 0.547 . S
C709 C221 0.374 . S
C748 C375 0.358 . S
C736 C261 0.497 . S
C775 C415 0.554 . S
C763 C301 0.394 . S
C790 C181 0.331 . S
C802 C455 0.506 . S
C817 C61 0.574 1_655 S
C829 C326 0.411 . S
C856 C366 0.549 . S
C844 C101 0.393 1_565 S
C883 C406 0.563 . S
C871 C141 0.383 . S
C898 C21 0.468 . S
C910 C446 0.497 . S
C925 C202 3.114 . S
C937 C339 3.504 . S
C952 C242 3.147 . S
C964 C379 3.500 . S
C991 C419 3.477 . S
C979 C282 3.127 . S
C1018 C459 3.508 . S
C1006 C162 3.128 . S
C1033 C42 3.183 1_655 S
C1045 C330 3.505 . S
C1072 C370 3.480 . S
C1060 C82 3.177 1_565 S
C1099 C410 3.490 . S
C1087 C122 3.119 . S
C1114 C2 3.140 . S
C1126 C450 3.515 . S
