# Generated by pormake.
# Topology wbl, (4,4)-cn, num edge types: 1
# Building blocks:
#     Node 0, Type 0, BuildingBlock: MUDLON_clean_sbu_0, # of connection points: 4
#     Node 1, Type 0, BuildingBlock: MUDLON_clean_sbu_0, # of connection points: 4
#     Node 2, Type 0, BuildingBlock: MUDLON_clean_sbu_0, # of connection points: 4
#     Node 3, Type 0, BuildingBlock: MUDLON_clean_sbu_0, # of connection points: 4
#     Node 4, Type 0, BuildingBlock: MUDLON_clean_sbu_0, # of connection points: 4
#     Node 5, Type 0, BuildingBlock: MUDLON_clean_sbu_0, # of connection points: 4
#     Node 6, Type 0, BuildingBlock: MUDLON_clean_sbu_0, # of connection points: 4
#     Node 7, Type 0, BuildingBlock: MUDLON_clean_sbu_0, # of connection points: 4
#     Node 8, Type 1, BuildingBlock: NAHDIM_clean_sbu_0, # of connection points: 4
#     Node 9, Type 1, BuildingBlock: NAHDIM_clean_sbu_0, # of connection points: 4
#     Node 10, Type 1, BuildingBlock: NAHDIM_clean_sbu_0, # of connection points: 4
#     Node 11, Type 1, BuildingBlock: NAHDIM_clean_sbu_0, # of connection points: 4
#     Node 12, Type 1, BuildingBlock: NAHDIM_clean_sbu_0, # of connection points: 4
#     Node 13, Type 1, BuildingBlock: NAHDIM_clean_sbu_0, # of connection points: 4
#     Node 14, Type 1, BuildingBlock: NAHDIM_clean_sbu_0, # of connection points: 4
#     Node 15, Type 1, BuildingBlock: NAHDIM_clean_sbu_0, # of connection points: 4
#     Edge 16, Type (0, 1), BuildingBlock: MIFKUJ_clean_linker_0, # of connection points: 2
#     Edge 17, Type (0, 1), BuildingBlock: MIFKUJ_clean_linker_0, # of connection points: 2
#     Edge 18, Type (0, 1), BuildingBlock: MIFKUJ_clean_linker_0, # of connection points: 2
#     Edge 19, Type (0, 1), BuildingBlock: MIFKUJ_clean_linker_0, # of connection points: 2
#     Edge 20, Type (0, 1), BuildingBlock: MIFKUJ_clean_linker_0, # of connection points: 2
#     Edge 21, Type (0, 1), BuildingBlock: MIFKUJ_clean_linker_0, # of connection points: 2
#     Edge 22, Type (0, 1), BuildingBlock: MIFKUJ_clean_linker_0, # of connection points: 2
#     Edge 23, Type (0, 1), BuildingBlock: MIFKUJ_clean_linker_0, # of connection points: 2
#     Edge 24, Type (0, 1), BuildingBlock: MIFKUJ_clean_linker_0, # of connection points: 2
#     Edge 25, Type (0, 1), BuildingBlock: MIFKUJ_clean_linker_0, # of connection points: 2
#     Edge 26, Type (0, 1), BuildingBlock: MIFKUJ_clean_linker_0, # of connection points: 2
#     Edge 27, Type (0, 1), BuildingBlock: MIFKUJ_clean_linker_0, # of connection points: 2
#     Edge 28, Type (0, 1), BuildingBlock: MIFKUJ_clean_linker_0, # of connection points: 2
#     Edge 29, Type (0, 1), BuildingBlock: MIFKUJ_clean_linker_0, # of connection points: 2
#     Edge 30, Type (0, 1), BuildingBlock: MIFKUJ_clean_linker_0, # of connection points: 2
#     Edge 31, Type (0, 1), BuildingBlock: MIFKUJ_clean_linker_0, # of connection points: 2
#     Edge 32, Type (0, 1), BuildingBlock: MIFKUJ_clean_linker_0, # of connection points: 2
#     Edge 33, Type (0, 1), BuildingBlock: MIFKUJ_clean_linker_0, # of connection points: 2
#     Edge 34, Type (0, 1), BuildingBlock: MIFKUJ_clean_linker_0, # of connection points: 2
#     Edge 35, Type (0, 1), BuildingBlock: MIFKUJ_clean_linker_0, # of connection points: 2
#     Edge 36, Type (0, 1), BuildingBlock: MIFKUJ_clean_linker_0, # of connection points: 2
#     Edge 37, Type (0, 1), BuildingBlock: MIFKUJ_clean_linker_0, # of connection points: 2
#     Edge 38, Type (0, 1), BuildingBlock: MIFKUJ_clean_linker_0, # of connection points: 2
#     Edge 39, Type (0, 1), BuildingBlock: MIFKUJ_clean_linker_0, # of connection points: 2
#     Edge 40, Type (0, 1), BuildingBlock: MIFKUJ_clean_linker_0, # of connection points: 2
#     Edge 41, Type (0, 1), BuildingBlock: MIFKUJ_clean_linker_0, # of connection points: 2
#     Edge 42, Type (0, 1), BuildingBlock: MIFKUJ_clean_linker_0, # of connection points: 2
#     Edge 43, Type (0, 1), BuildingBlock: MIFKUJ_clean_linker_0, # of connection points: 2
#     Edge 44, Type (0, 1), BuildingBlock: MIFKUJ_clean_linker_0, # of connection points: 2
#     Edge 45, Type (0, 1), BuildingBlock: MIFKUJ_clean_linker_0, # of connection points: 2
#     Edge 46, Type (0, 1), BuildingBlock: MIFKUJ_clean_linker_0, # of connection points: 2
#     Edge 47, Type (0, 1), BuildingBlock: MIFKUJ_clean_linker_0, # of connection points: 2
# Relax obj value: 0.235
# Max RMSD: 0.228
# Mean RMSD: 0.180
data_MOF--net-wbl--node1-MUDLON_clean_sbu_0--node2-NAHDIM_clean_sbu_0--edge1-MIFKUJ_clean_linker_0
_symmetry_space_group_name_H-M    P1
_symmetry_Int_Tables_number       1
_symmetry_cell_setting            triclinic
loop_
_symmetry_equiv_pos_as_xyz
'x, y, z'
_cell_length_a     46.789257
_cell_length_b     45.107672
_cell_length_c     96.914502
_cell_angle_alpha  89.977974
_cell_angle_beta   90.001807
_cell_angle_gamma 89.993035
loop_
_atom_site_label
_atom_site_type_symbol
_atom_site_fract_x
_atom_site_fract_y
_atom_site_fract_z
_atom_type_partial_charge
Mg0 Mg 0.00884 0.02832 0.35438 0.0
C1 C 0.00299 0.96622 0.36611 0.0
O2 O 0.01936 0.95958 0.35554 0.0
C3 C 0.96675 0.02738 0.33053 0.0
O4 O 0.97825 0.00122 0.32835 0.0
C5 C 0.05047 0.02081 0.33064 0.0
O6 O 0.03325 0.03992 0.32467 0.0
O7 O 0.04578 0.0131 0.34304 0.0
O8 O 0.99406 0.99266 0.36745 0.0
O9 O 0.01931 0.06305 0.36892 0.0
C10 C 0.00167 0.08414 0.37061 0.0
O11 O 0.97971 0.08619 0.36221 0.0
O12 O 0.97541 0.04295 0.3406 0.0
Mg13 Mg 0.01296 0.49334 0.59288 0.0
C14 C 0.06753 0.49854 0.60904 0.0
O15 O 0.0694 0.52273 0.60154 0.0
C16 C 0.98658 0.45719 0.56984 0.0
O17 O 0.99119 0.48165 0.56282 0.0
C18 C 0.04797 0.52521 0.57122 0.0
O19 O 0.06264 0.50039 0.5716 0.0
O20 O 0.02604 0.52797 0.57884 0.0
O21 O 0.04752 0.48029 0.60651 0.0
O22 O 0.98162 0.50992 0.60735 0.0
C23 C 0.98991 0.52825 0.61647 0.0
O24 O 0.01566 0.53963 0.61547 0.0
O25 O 0.99434 0.45578 0.58238 0.0
Mg26 Mg 0.48957 0.48671 0.83708 0.0
C27 C 0.51417 0.5261 0.85933 0.0
O28 O 0.53407 0.50554 0.85935 0.0
C29 C 0.54525 0.50019 0.82212 0.0
O30 O 0.54391 0.52464 0.82945 0.0
C31 C 0.44668 0.51523 0.81899 0.0
O32 O 0.46871 0.53304 0.81756 0.0
O33 O 0.44936 0.49221 0.82644 0.0
O34 O 0.49419 0.52474 0.85046 0.0
O35 O 0.48928 0.44983 0.8514 0.0
C36 C 0.51232 0.43541 0.85322 0.0
O37 O 0.53425 0.44098 0.84516 0.0
O38 O 0.52499 0.48152 0.8229 0.0
Mg39 Mg 0.47718 0.02156 0.09369 0.0
C40 C 0.53368 0.01478 0.10879 0.0
O41 O 0.54293 0.03169 0.0987 0.0
C42 C 0.48421 0.96576 0.07729 0.0
O43 O 0.50943 0.96712 0.08322 0.0
C44 C 0.50553 0.05877 0.07165 0.0
O45 O 0.50291 0.03408 0.06457 0.0
O46 O 0.49539 0.06009 0.08379 0.0
O47 O 0.50793 0.00588 0.10863 0.0
O48 O 0.44149 0.03247 0.10686 0.0
C49 C 0.41991 0.01545 0.10747 0.0
O50 O 0.4173 0.99423 0.09828 0.0
O51 O 0.46628 0.98635 0.07949 0.0
Mg52 Mg 0.02181 0.49413 0.92137 0.0
C53 C 0.98276 0.52888 0.90272 0.0
O54 O 0.96642 0.50563 0.90483 0.0
C55 C 0.97074 0.49611 0.94022 0.0
O56 O 0.9732 0.52456 0.93757 0.0
C57 C 0.05939 0.51256 0.94535 0.0
O58 O 0.03589 0.50745 0.95238 0.0
O59 O 0.05955 0.50822 0.9324 0.0
O60 O 0.00632 0.53086 0.90918 0.0
O61 O 0.032 0.46111 0.90591 0.0
C62 C 0.01303 0.4421 0.90282 0.0
O63 O 0.9895 0.4411 0.91021 0.0
O64 O 0.98868 0.47817 0.93503 0.0
Mg65 Mg 0.46386 0.47181 0.16987 0.0
C66 C 0.43032 0.44615 0.14608 0.0
O67 O 0.45069 0.42612 0.14657 0.0
C68 C 0.48054 0.43983 0.19567 0.0
O69 O 0.48275 0.46741 0.1999 0.0
C70 C 0.43086 0.51386 0.18712 0.0
O71 O 0.41275 0.49173 0.18598 0.0
O72 O 0.4552 0.51174 0.1814 0.0
O73 O 0.42919 0.46583 0.15544 0.0
O74 O 0.50106 0.47649 0.15671 0.0
C75 C 0.51659 0.4537 0.15492 0.0
O76 O 0.51104 0.42968 0.1621 0.0
O77 O 0.47113 0.43478 0.1836 0.0
Mg78 Mg 0.50232 0.99613 0.41179 0.0
C79 C 0.52138 0.05136 0.39725 0.0
O80 O 0.54339 0.04695 0.40541 0.0
C81 C 0.43973 0.99225 0.4181 0.0
O82 O 0.43838 0.99907 0.40493 0.0
C83 C 0.53716 0.00095 0.43797 0.0
O84 O 0.51188 0.99718 0.44361 0.0
O85 O 0.5395 0.00016 0.42492 0.0
O86 O 0.49974 0.03452 0.39839 0.0
O87 O 0.50454 0.95893 0.39777 0.0
C88 C 0.51826 0.96181 0.38653 0.0
O89 O 0.53378 0.98575 0.38465 0.0
O90 O 0.46401 0.99052 0.42389 0.0
Mg91 Mg 0.0002 0.005 0.66748 0.0
C92 C 0.0368 0.02837 0.6446 0.0
O93 O 0.01547 0.04726 0.64393 0.0
C94 C 0.97959 0.04698 0.68972 0.0
O95 O 0.97734 0.02211 0.6967 0.0
C96 C 0.03022 0.96846 0.68885 0.0
O97 O 0.04865 0.99024 0.68749 0.0
O98 O 0.00725 0.9691 0.68186 0.0
O99 O 0.03706 0.00921 0.65422 0.0
O100 O 0.96569 0.99514 0.65344 0.0
C101 C 0.96941 0.97641 0.64381 0.0
O102 O 0.99331 0.96114 0.64345 0.0
O103 O 0.98959 0.04634 0.67753 0.0
C104 C 0.31443 0.63129 0.00611 0.0
O105 O 0.31855 0.63167 0.01952 0.0
O106 O 0.37951 0.61122 0.0214 0.0
Zn107 Zn 0.37534 0.6396 0.00556 0.0
O108 O 0.40293 0.62892 0.99037 0.0
C109 C 0.40593 0.68614 0.01848 0.0
O110 O 0.42421 0.66429 0.0201 0.0
O111 O 0.33558 0.63535 0.99811 0.0
C112 C 0.41714 0.64808 0.98362 0.0
O113 O 0.41454 0.67628 0.98675 0.0
C114 C 0.37915 0.58333 0.01956 0.0
O115 O 0.37705 0.57282 0.00696 0.0
O116 O 0.38243 0.68106 0.01235 0.0
C117 C 0.2665 0.86677 0.25401 0.0
O118 O 0.26926 0.87071 0.24064 0.0
O119 O 0.32883 0.87304 0.23493 0.0
Zn120 Zn 0.32484 0.84729 0.25172 0.0
O121 O 0.3561 0.857 0.26517 0.0
C122 C 0.35378 0.7977 0.24186 0.0
O123 O 0.37364 0.81827 0.24132 0.0
O124 O 0.28715 0.85568 0.26079 0.0
C125 C 0.35699 0.84362 0.27669 0.0
O126 O 0.33736 0.82371 0.27954 0.0
C127 C 0.33736 0.89969 0.2359 0.0
O128 O 0.34414 0.91038 0.24807 0.0
O129 O 0.32904 0.80471 0.24617 0.0
C130 C 0.18745 0.88554 0.4863 0.0
O131 O 0.16241 0.89531 0.48219 0.0
O132 O 0.14848 0.88393 0.52341 0.0
Zn133 Zn 0.15271 0.85747 0.50689 0.0
O134 O 0.11887 0.8624 0.49429 0.0
C135 C 0.12964 0.80699 0.51879 0.0
O136 O 0.10917 0.82666 0.52034 0.0
O137 O 0.18882 0.86841 0.49671 0.0
C138 C 0.11636 0.8446 0.48421 0.0
O139 O 0.13557 0.82365 0.48256 0.0
C140 C 0.14702 0.91195 0.52227 0.0
O141 O 0.14812 0.92401 0.50994 0.0
O142 O 0.15289 0.81505 0.51316 0.0
C143 C 0.16643 0.6098 0.77745 0.0
O144 O 0.1444 0.59387 0.7814 0.0
O145 O 0.11766 0.61445 0.74486 0.0
Zn146 Zn 0.12269 0.63897 0.762 0.0
O147 O 0.09392 0.6289 0.77674 0.0
C148 C 0.09443 0.68887 0.75097 0.0
O149 O 0.07533 0.66807 0.74873 0.0
O150 O 0.1624 0.6314 0.76924 0.0
C151 C 0.06947 0.61712 0.77508 0.0
O152 O 0.06086 0.60998 0.76262 0.0
C153 C 0.11586 0.58634 0.74467 0.0
O154 O 0.11592 0.57159 0.75635 0.0
O155 O 0.11779 0.68189 0.75682 0.0
C156 C 0.77392 0.12553 0.51146 0.0
O157 O 0.77776 0.12286 0.52483 0.0
O158 O 0.842 0.11576 0.52676 0.0
Zn159 Zn 0.8327 0.14504 0.51186 0.0
O160 O 0.86136 0.14236 0.49653 0.0
C161 C 0.83937 0.20816 0.51197 0.0
O162 O 0.83946 0.20421 0.49854 0.0
O163 O 0.79406 0.13571 0.50406 0.0
C164 C 0.88819 0.14154 0.49852 0.0
O165 O 0.89813 0.1412 0.5112 0.0
C166 C 0.84709 0.0886 0.52432 0.0
O167 O 0.84673 0.07901 0.51153 0.0
O168 O 0.83515 0.186 0.51981 0.0
C169 C 0.81735 0.40265 0.77167 0.0
O170 O 0.84 0.41724 0.7759 0.0
O171 O 0.8727 0.39556 0.74205 0.0
Zn172 Zn 0.86069 0.36965 0.75791 0.0
O173 O 0.88754 0.37463 0.77391 0.0
C174 C 0.86074 0.32041 0.73906 0.0
O175 O 0.8546 0.34135 0.73011 0.0
O176 O 0.82068 0.38044 0.76376 0.0
C177 C 0.91436 0.37796 0.77251 0.0
O178 O 0.92546 0.37887 0.76006 0.0
C179 C 0.88015 0.4226 0.74279 0.0
O180 O 0.88048 0.43596 0.75482 0.0
O181 O 0.86314 0.32711 0.75174 0.0
C182 C 0.70874 0.39188 0.99878 0.0
O183 O 0.6879 0.41113 0.00035 0.0
O184 O 0.64671 0.37566 0.01942 0.0
Zn185 Zn 0.6628 0.35197 0.00347 0.0
O186 O 0.64001 0.35817 0.98612 0.0
C187 C 0.67153 0.29971 0.0198 0.0
O188 O 0.68502 0.31857 0.02782 0.0
O189 O 0.70324 0.36441 -0.00013 0.0
C190 C 0.61289 0.35941 0.98577 0.0
O191 O 0.59834 0.35734 0.99732 0.0
C192 C 0.62881 0.3638 0.0276 0.0
O193 O 0.6195 0.33687 0.02508 0.0
O194 O 0.66144 0.30878 0.00838 0.0
C195 C 0.72948 0.12755 0.2501 0.0
O196 O 0.71916 0.11032 0.24038 0.0
O197 O 0.66173 0.12193 0.2353 0.0
Zn198 Zn 0.67172 0.15028 0.25056 0.0
O199 O 0.6488 0.14179 0.26763 0.0
C200 C 0.65638 0.21215 0.25236 0.0
O201 O 0.6617 0.2084 0.26556 0.0
O202 O 0.71341 0.14712 0.25548 0.0
C203 C 0.62182 0.14495 0.26803 0.0
O204 O 0.60808 0.15284 0.25679 0.0
C205 C 0.64804 0.09781 0.23676 0.0
O206 O 0.63953 0.08964 0.2491 0.0
O207 O 0.66087 0.19087 0.24406 0.0
H208 H 0.06235 0.0266 0.30312 0.0
H209 H 0.09848 -0.00022 0.28981 0.0
H210 H 0.12654 0.95525 0.32681 0.0
H211 H 0.09068 0.98204 0.34021 0.0
H212 H 0.17136 0.97419 0.311 0.0
H213 H 0.08368 0.92003 0.30463 0.0
H214 H 0.0329 0.91423 0.29838 0.0
H215 H 0.05113 0.94309 0.25709 0.0
H216 H 0.10199 0.94946 0.26315 0.0
H217 H 0.25313 0.86044 0.2813 0.0
H218 H 0.21499 0.88541 0.29397 0.0
H219 H 0.18556 0.92602 0.25625 0.0
H220 H 0.22328 0.90063 0.24342 0.0
H221 H 0.14129 0.90961 0.27216 0.0
H222 H 0.22864 0.96387 0.27829 0.0
H223 H 0.27949 0.97007 0.28433 0.0
H224 H 0.26201 0.94204 0.32582 0.0
H225 H 0.2111 0.93526 0.31997 0.0
C226 C 0.07636 0.01128 0.30845 0.0
C227 C 0.07357 0.00635 0.32271 0.0
C228 C 0.09688 0.99588 0.30082 0.0
C229 C 0.11491 0.97528 0.30731 0.0
C230 C 0.11277 0.97101 0.32161 0.0
C231 C 0.09222 0.9863 0.32923 0.0
C232 C 0.13572 0.95777 0.29921 0.0
C233 C 0.16478 0.9598 0.30261 0.0
C234 C 0.12711 0.93954 0.28807 0.0
C235 C 0.09658 0.93551 0.28438 0.0
C236 C 0.07682 0.92536 0.29425 0.0
C237 C 0.04803 0.92193 0.29074 0.0
C238 C 0.03878 0.92837 0.27736 0.0
C239 C 0.05832 0.93816 0.26745 0.0
C240 C 0.08714 0.94166 0.27091 0.0
C241 C 0.23833 0.87438 0.27566 0.0
C242 C 0.24142 0.87882 0.26138 0.0
C243 C 0.21662 0.88873 0.28293 0.0
C244 C 0.19785 0.90806 0.27609 0.0
C245 C 0.19994 0.91132 0.26173 0.0
C246 C 0.22154 0.89681 0.25442 0.0
C247 C 0.17694 0.92592 0.284 0.0
C248 C 0.14788 0.92401 0.28055 0.0
C249 C 0.18555 0.94438 0.29506 0.0
C250 C 0.2161 0.94879 0.29865 0.0
C251 C 0.23567 0.95884 0.28868 0.0
C252 C 0.2645 0.96248 0.29207 0.0
C253 C 0.27399 0.95638 0.30544 0.0
C254 C 0.25464 0.94672 0.31546 0.0
C255 C 0.22579 0.943 0.31212 0.0
H256 H 0.29632 0.95919 0.30804 0.0
H257 H 0.01648 0.92571 0.27466 0.0
H258 H 0.09905 0.53114 0.55766 0.0
H259 H 0.11714 0.57532 0.54581 0.0
H260 H 0.03823 0.62104 0.5546 0.0
H261 H 0.01998 0.57714 0.56636 0.0
H262 H 0.05704 0.63126 0.52822 0.0
H263 H 0.09554 0.63109 0.57478 0.0
H264 H 0.12283 0.60967 0.59414 0.0
H265 H 0.19838 0.60718 0.56901 0.0
H266 H 0.17139 0.62821 0.54942 0.0
H267 H 0.0812 0.78333 0.52971 0.0
H268 H 0.07204 0.73179 0.53571 0.0
H269 H 0.15749 0.70819 0.52313 0.0
H270 H 0.167 0.76013 0.51711 0.0
H271 H 0.14162 0.68235 0.54797 0.0
H272 H 0.10433 0.69011 0.5025 0.0
H273 H 0.07679 0.71234 0.48343 0.0
H274 H 0.99907 0.70077 0.50636 0.0
H275 H 0.02618 0.67888 0.52566 0.0
C276 C 0.08544 0.5505 0.55693 0.0
C277 C 0.05816 0.55074 0.56302 0.0
C278 C 0.09585 0.57572 0.5502 0.0
C279 C 0.0791 0.60149 0.54945 0.0
C280 C 0.05148 0.60136 0.55507 0.0
C281 C 0.04114 0.57628 0.56183 0.0
C282 C 0.09053 0.6292 0.54343 0.0
C283 C 0.0755 0.64248 0.53254 0.0
C284 C 0.11514 0.64332 0.54881 0.0
C285 C 0.13138 0.63085 0.56059 0.0
C286 C 0.11791 0.62574 0.57335 0.0
C287 C 0.13333 0.61371 0.58437 0.0
C288 C 0.1623 0.60698 0.58279 0.0
C289 C 0.17593 0.61235 0.5702 0.0
C290 C 0.16058 0.62432 0.55914 0.0
C291 C 0.09813 0.76728 0.52822 0.0
C292 C 0.1248 0.77581 0.52287 0.0
C293 C 0.09279 0.73777 0.5316 0.0
C294 C 0.11393 0.71614 0.52965 0.0
C295 C 0.14085 0.72458 0.52462 0.0
C296 C 0.14622 0.75421 0.52118 0.0
C297 C 0.10759 0.68483 0.53305 0.0
C298 C 0.12355 0.67086 0.54343 0.0
C299 C 0.08382 0.67005 0.5272 0.0
C300 C 0.06734 0.68299 0.51557 0.0
C301 C 0.08139 0.69248 0.50352 0.0
C302 C 0.06585 0.705 0.49266 0.0
C303 C 0.03621 0.708 0.49369 0.0
C304 C 0.02203 0.69843 0.50558 0.0
C305 C 0.03747 0.68592 0.51647 0.0
H306 H 0.02421 0.71771 0.48527 0.0
H307 H 0.1742 0.59768 0.59133 0.0
H308 H 0.43411 0.56276 0.80261 0.0
H309 H 0.38705 0.57881 0.79467 0.0
H310 H 0.34847 0.50311 0.8145 0.0
H311 H 0.39555 0.48659 0.82231 0.0
H312 H 0.32498 0.51301 0.7896 0.0
H313 H 0.34721 0.57093 0.82978 0.0
H314 H 0.37649 0.60426 0.84415 0.0
H315 H 0.37196 0.67158 0.81289 0.0
H316 H 0.34296 0.63847 0.79824 0.0
H317 H 0.18213 0.56265 0.79338 0.0
H318 H 0.23042 0.54717 0.7996 0.0
H319 H 0.26521 0.62204 0.7776 0.0
H320 H 0.21683 0.63789 0.77136 0.0
H321 H 0.29113 0.61335 0.80282 0.0
H322 H 0.2672 0.55534 0.76299 0.0
H323 H 0.23732 0.5218 0.74902 0.0
H324 H 0.24449 0.45435 0.7801 0.0
H325 H 0.27408 0.48767 0.79436 0.0
C326 C 0.41566 0.54937 0.8052 0.0
C327 C 0.41854 0.52351 0.81319 0.0
C328 C 0.38876 0.55866 0.80069 0.0
C329 C 0.36421 0.54243 0.8042 0.0
C330 C 0.36713 0.51602 0.81173 0.0
C331 C 0.39405 0.50664 0.8162 0.0
C332 C 0.33543 0.55338 0.80033 0.0
C333 C 0.31746 0.53481 0.79262 0.0
C334 C 0.32586 0.58209 0.80403 0.0
C335 C 0.34316 0.6021 0.81285 0.0
C336 C 0.35264 0.59275 0.82592 0.0
C337 C 0.36915 0.61162 0.83413 0.0
C338 C 0.37615 0.63999 0.82942 0.0
C339 C 0.36656 0.64958 0.81651 0.0
C340 C 0.35007 0.63078 0.80826 0.0
C341 C 0.2 0.57595 0.7899 0.0
C342 C 0.19563 0.60143 0.78181 0.0
C343 C 0.2276 0.56698 0.79343 0.0
C344 C 0.25137 0.58323 0.78889 0.0
C345 C 0.24711 0.60914 0.78114 0.0
C346 C 0.21947 0.61811 0.77758 0.0
C347 C 0.28067 0.57292 0.79215 0.0
C348 C 0.29872 0.5916 0.79975 0.0
C349 C 0.29026 0.54428 0.7884 0.0
C350 C 0.27265 0.5241 0.7798 0.0
C351 C 0.26223 0.53344 0.76689 0.0
C352 C 0.24537 0.51445 0.75891 0.0
C353 C 0.23895 0.48599 0.76368 0.0
C354 C 0.24945 0.47642 0.77643 0.0
C355 C 0.26629 0.49533 0.78446 0.0
H356 H 0.2259 0.47132 0.75749 0.0
H357 H 0.38894 0.65456 0.83579 0.0
H358 H 0.5162 0.91635 0.07216 0.0
H359 H 0.50145 0.87145 0.06009 0.0
H360 H 0.41916 0.91065 0.05165 0.0
H361 H 0.43358 0.95555 0.06396 0.0
H362 H 0.41311 0.85607 0.06142 0.0
H363 H 0.46847 0.90113 0.02589 0.0
H364 H 0.51043 0.92557 0.01553 0.0
H365 H 0.56174 0.84887 0.02421 0.0
H366 H 0.52018 0.82411 0.03481 0.0
H367 H 0.37226 0.7358 0.01769 0.0
H368 H 0.38432 0.78556 0.02588 0.0
H369 H 0.46747 0.75443 0.03853 0.0
H370 H 0.45572 0.70474 0.0303 0.0
H371 H 0.47047 0.80733 0.02483 0.0
H372 H 0.41538 0.76439 0.06198 0.0
H373 H 0.37316 0.74037 0.07234 0.0
H374 H 0.32081 0.81407 0.06016 0.0
H375 H 0.36268 0.83835 0.04956 0.0
C376 C 0.49505 0.91558 0.06763 0.0
C377 C 0.47605 0.93952 0.06904 0.0
C378 C 0.48669 0.88992 0.06067 0.0
C379 C 0.45929 0.8878 0.05485 0.0
C380 C 0.44042 0.91184 0.05605 0.0
C381 C 0.44873 0.9375 0.06306 0.0
C382 C 0.44993 0.85987 0.04817 0.0
C383 C 0.42535 0.8457 0.05323 0.0
C384 C 0.46618 0.84609 0.03765 0.0
C385 C 0.49123 0.86085 0.03124 0.0
C386 C 0.48875 0.88955 0.02568 0.0
C387 C 0.51246 0.90345 0.01975 0.0
C388 C 0.53875 0.88881 0.01923 0.0
C389 C 0.54137 0.8602 0.02462 0.0
C390 C 0.51773 0.8462 0.03058 0.0
C391 C 0.39312 0.73954 0.02221 0.0
C392 C 0.41301 0.71629 0.0234 0.0
C393 C 0.39994 0.76797 0.02691 0.0
C394 C 0.42672 0.7736 0.03289 0.0
C395 C 0.44671 0.75053 0.03393 0.0
C396 C 0.43989 0.72212 0.02927 0.0
C397 C 0.43394 0.80344 0.03823 0.0
C398 C 0.4581 0.81792 0.03291 0.0
C399 C 0.41725 0.81758 0.04846 0.0
C400 C 0.39209 0.80301 0.05484 0.0
C401 C 0.39482 0.77535 0.06141 0.0
C402 C 0.37096 0.76172 0.06734 0.0
C403 C 0.34431 0.77564 0.06687 0.0
C404 C 0.34147 0.80328 0.06049 0.0
C405 C 0.36525 0.81699 0.05453 0.0
H406 H 0.32586 0.76506 0.07147 0.0
H407 H 0.55708 0.8996 0.01464 0.0
H408 H 0.10933 0.53032 0.93338 0.0
H409 H 0.15129 0.55119 0.94468 0.0
H410 H 0.11 0.54242 0.98428 0.0
H411 H 0.06751 0.52203 0.97299 0.0
H412 H 0.1356 0.5952 0.98201 0.0
H413 H 0.1627 0.49435 0.97449 0.0
H414 H 0.16986 0.44839 0.96116 0.0
H415 H 0.22901 0.49338 0.93453 0.0
H416 H 0.22191 0.53973 0.94759 0.0
H417 H 0.26557 0.61712 0.02021 0.0
H418 H 0.22069 0.59854 0.01058 0.0
H419 H 0.25476 0.6079 0.96945 0.0
H420 H 0.29971 0.62623 0.97895 0.0
H421 H 0.23219 0.55346 0.97374 0.0
H422 H 0.20384 0.65481 0.98128 0.0
H423 H 0.1965 0.70033 0.99491 0.0
H424 H 0.13981 0.65351 0.0221 0.0
H425 H 0.14712 0.60759 0.00873 0.0
C426 C 0.10916 0.53269 0.9445 0.0
C427 C 0.08511 0.52439 0.9523 0.0
C428 C 0.13322 0.54455 0.95095 0.0
C429 C 0.13392 0.548 0.96534 0.0
C430 C 0.10992 0.53988 0.97316 0.0
C431 C 0.08571 0.52814 0.9667 0.0
C432 C 0.15964 0.56043 0.97213 0.0
C433 C 0.15668 0.58581 0.98039 0.0
C434 C 0.18719 0.54846 0.96981 0.0
C435 C 0.19157 0.52058 0.96195 0.0
C436 C 0.17707 0.4945 0.96573 0.0
C437 C 0.18114 0.46837 0.95823 0.0
C438 C 0.19982 0.46798 0.94698 0.0
C439 C 0.21452 0.49372 0.94323 0.0
C440 C 0.2105 0.51992 0.95069 0.0
C441 C 0.26339 0.61558 0.00911 0.0
C442 C 0.28627 0.62302 0.00035 0.0
C443 C 0.2377 0.60503 0.00363 0.0
C444 C 0.23441 0.60189 0.98931 0.0
C445 C 0.25692 0.61008 0.98054 0.0
C446 C 0.28256 0.62063 0.98599 0.0
C447 C 0.2082 0.58848 0.98344 0.0
C448 C 0.21109 0.56281 0.97539 0.0
C449 C 0.18064 0.6001 0.98603 0.0
C450 C 0.17628 0.62768 0.99409 0.0
C451 C 0.19001 0.65415 0.99024 0.0
C452 C 0.18582 0.68004 0.9979 0.0
C453 C 0.16777 0.67979 0.00939 0.0
C454 C 0.15383 0.65366 0.01321 0.0
C455 C 0.15797 0.6277 0.00559 0.0
H456 H 0.16454 0.69986 0.0153 0.0
H457 H 0.20295 0.44773 0.94119 0.0
H458 H 0.37939 0.5265 0.19908 0.0
H459 H 0.36482 0.57282 0.2101 0.0
H460 H 0.44847 0.60963 0.20258 0.0
H461 H 0.46335 0.5633 0.19164 0.0
H462 H 0.42898 0.62255 0.22848 0.0
H463 H 0.39367 0.6271 0.18176 0.0
H464 H 0.36675 0.60917 0.16154 0.0
H465 H 0.28897 0.61098 0.18505 0.0
H466 H 0.31553 0.62855 0.20547 0.0
H467 H 0.40482 0.77626 0.23273 0.0
H468 H 0.41591 0.72595 0.22531 0.0
H469 H 0.32913 0.69924 0.23377 0.0
H470 H 0.31768 0.74985 0.24111 0.0
H471 H 0.34737 0.67903 0.20899 0.0
H472 H 0.38217 0.67842 0.25526 0.0
H473 H 0.40915 0.69677 0.27537 0.0
H474 H 0.48774 0.6877 0.25288 0.0
H475 H 0.46118 0.6697 0.23256 0.0
C476 C 0.39476 0.54438 0.19983 0.0
C477 C 0.42248 0.54131 0.1944 0.0
C478 C 0.38636 0.57085 0.2061 0.0
C479 C 0.40547 0.59473 0.207 0.0
C480 C 0.4334 0.59145 0.20195 0.0
C481 C 0.44182 0.565 0.19567 0.0
C482 C 0.39621 0.62344 0.21289 0.0
C483 C 0.4113 0.63505 0.22416 0.0
C484 C 0.37263 0.63928 0.20746 0.0
C485 C 0.35663 0.62881 0.19518 0.0
C486 C 0.37087 0.62344 0.18265 0.0
C487 C 0.35567 0.61339 0.17115 0.0
C488 C 0.32618 0.60885 0.17202 0.0
C489 C 0.31182 0.61445 0.18439 0.0
C490 C 0.32693 0.62447 0.19593 0.0
C491 C 0.38806 0.75972 0.23307 0.0
C492 C 0.36037 0.76704 0.23753 0.0
C493 C 0.3945 0.73091 0.22889 0.0
C494 C 0.37345 0.70878 0.22917 0.0
C495 C 0.34571 0.716 0.23354 0.0
C496 C 0.33923 0.74489 0.23774 0.0
C497 C 0.38037 0.67837 0.22449 0.0
C498 C 0.36486 0.66642 0.21343 0.0
C499 C 0.40355 0.66222 0.23011 0.0
C500 C 0.41964 0.67293 0.24234 0.0
C501 C 0.40518 0.68055 0.25456 0.0
C502 C 0.42041 0.69086 0.26601 0.0
C503 C 0.45013 0.69346 0.26539 0.0
C504 C 0.46471 0.6857 0.25334 0.0
C505 C 0.44958 0.67541 0.24186 0.0
H506 H 0.46188 0.70144 0.27427 0.0
H507 H 0.31445 0.60108 0.1631 0.0
H508 H 0.38432 0.99555 0.40925 0.0
H509 H 0.34154 0.97855 0.42141 0.0
H510 H 0.3932 0.9531 0.45632 0.0
H511 H 0.43609 0.97001 0.44427 0.0
H512 H 0.35608 0.909 0.44802 0.0
H513 H 0.35239 0.01309 0.45855 0.0
H514 H 0.35223 0.0665 0.45313 0.0
H515 H 0.27632 0.05537 0.42877 0.0
H516 H 0.27626 0.00179 0.4339 0.0
H517 H 0.24288 0.8789 0.49477 0.0
H518 H 0.28589 0.8977 0.48344 0.0
H519 H 0.23433 0.93301 0.45036 0.0
H520 H 0.19122 0.91507 0.46183 0.0
H521 H 0.27196 0.97246 0.45795 0.0
H522 H 0.2754 0.86914 0.44656 0.0
H523 H 0.27526 0.81535 0.4511 0.0
H524 H 0.35093 0.8242 0.47582 0.0
H525 H 0.35131 0.87814 0.47158 0.0
C526 C 0.38656 0.98659 0.41956 0.0
C527 C 0.4136 0.98409 0.42579 0.0
C528 C 0.36209 0.97695 0.4265 0.0
C529 C 0.36425 0.96467 0.43977 0.0
C530 C 0.39114 0.9625 0.44608 0.0
C531 C 0.41558 0.97228 0.43919 0.0
C532 C 0.33858 0.95309 0.44687 0.0
C533 C 0.33781 0.92293 0.45038 0.0
C534 C 0.31453 0.97114 0.44957 0.0
C535 C 0.31448 0.00338 0.44651 0.0
C536 C 0.3358 0.02199 0.45195 0.0
C537 C 0.33573 0.0523 0.44894 0.0
C538 C 0.31432 0.06431 0.44058 0.0
C539 C 0.29291 0.04604 0.43523 0.0
C540 C 0.2929 0.0157 0.4382 0.0
C541 C 0.24073 0.89051 0.48504 0.0
C542 C 0.21367 0.89548 0.47919 0.0
C543 C 0.26534 0.90116 0.47855 0.0
C544 C 0.26337 0.91651 0.46597 0.0
C545 C 0.23637 0.92128 0.46007 0.0
C546 C 0.21176 0.91092 0.46662 0.0
C547 C 0.28934 0.92825 0.4591 0.0
C548 C 0.2902 0.95847 0.45561 0.0
C549 C 0.31339 0.91016 0.4563 0.0
C550 C 0.31321 0.87773 0.45887 0.0
C551 C 0.29188 0.85966 0.45306 0.0
C552 C 0.29178 0.82913 0.45556 0.0
C553 C 0.31302 0.81638 0.46377 0.0
C554 C 0.33446 0.83412 0.46948 0.0
C555 C 0.33465 0.86466 0.46702 0.0
H556 H 0.31291 0.79274 0.46569 0.0
H557 H 0.3143 0.08779 0.43827 0.0
H558 H 0.9978 0.91885 0.69295 0.0
H559 H 0.01037 0.87476 0.7062 0.0
H560 H 0.09029 0.91518 0.71797 0.0
H561 H 0.07807 0.95932 0.70453 0.0
H562 H 0.09842 0.85983 0.70913 0.0
H563 H 0.03665 0.90666 0.74151 0.0
H564 H 0.99294 0.93168 0.74965 0.0
H565 H 0.94329 0.85463 0.73958 0.0
H566 H 0.98664 0.82928 0.73118 0.0
H567 H 0.12938 0.73739 0.75359 0.0
H568 H 0.12001 0.78799 0.74558 0.0
H569 H 0.03773 0.76044 0.73013 0.0
H570 H 0.04669 0.7101 0.73823 0.0
H571 H 0.034 0.81274 0.74338 0.0
H572 H 0.09514 0.76863 0.70866 0.0
H573 H 0.1388 0.74393 0.70022 0.0
H574 H 0.18973 0.81662 0.71483 0.0
H575 H 0.14638 0.84158 0.72352 0.0
C576 C 0.01795 0.91852 0.69845 0.0
C577 C 0.03695 0.9426 0.69767 0.0
C578 C 0.02504 0.89333 0.70609 0.0
C579 C 0.05115 0.89179 0.7132 0.0
C580 C 0.07002 0.91593 0.71258 0.0
C581 C 0.06295 0.94116 0.70492 0.0
C582 C 0.05926 0.8643 0.72064 0.0
C583 C 0.08462 0.84984 0.71683 0.0
C584 C 0.04103 0.85103 0.73052 0.0
C585 C 0.01489 0.86614 0.73562 0.0
C586 C 0.01638 0.89512 0.74093 0.0
C587 C 0.99167 0.90935 0.74561 0.0
C588 C 0.96535 0.89478 0.74511 0.0
C589 C 0.96369 0.8659 0.73995 0.0
C590 C 0.98834 0.85157 0.73525 0.0
C591 C 0.10926 0.74215 0.74852 0.0
C592 C 0.08883 0.71969 0.74648 0.0
C593 C 0.10397 0.77104 0.74393 0.0
C594 C 0.07827 0.7779 0.73716 0.0
C595 C 0.05769 0.75564 0.73535 0.0
C596 C 0.06292 0.72683 0.73994 0.0
C597 C 0.07283 0.80805 0.73164 0.0
C598 C 0.04797 0.82299 0.73582 0.0
C599 C 0.09153 0.82178 0.72211 0.0
C600 C 0.11758 0.80679 0.71689 0.0
C601 C 0.11568 0.77922 0.71018 0.0
C602 C 0.14036 0.7652 0.70533 0.0
C603 C 0.16703 0.77865 0.70703 0.0
C604 C 0.16907 0.80619 0.71355 0.0
C605 C 0.14445 0.8203 0.71843 0.0
H606 H 0.18611 0.76776 0.70326 0.0
H607 H 0.94624 0.90584 0.74873 0.0
H608 H 0.55391 0.45292 0.805 0.0
H609 H 0.59885 0.43719 0.79449 0.0
H610 H 0.64121 0.5137 0.81166 0.0
H611 H 0.59618 0.52996 0.82197 0.0
H612 H 0.66021 0.50247 0.78606 0.0
H613 H 0.64472 0.44676 0.82761 0.0
H614 H 0.61744 0.41459 0.84343 0.0
H615 H 0.6163 0.34559 0.81292 0.0
H616 H 0.64316 0.37756 0.79683 0.0
H617 H 0.80331 0.4518 0.78659 0.0
H618 H 0.75572 0.4685 0.79335 0.0
H619 H 0.71832 0.39275 0.77308 0.0
H620 H 0.76602 0.37572 0.76629 0.0
H621 H 0.69585 0.40264 0.79907 0.0
H622 H 0.71426 0.45883 0.75796 0.0
H623 H 0.74216 0.49177 0.74276 0.0
H624 H 0.73903 0.56057 0.77333 0.0
H625 H 0.71145 0.52788 0.7888 0.0
C626 C 0.57269 0.46662 0.8064 0.0
C627 C 0.57154 0.49255 0.81444 0.0
C628 C 0.59839 0.45753 0.80043 0.0
C629 C 0.62348 0.47397 0.80252 0.0
C630 C 0.62211 0.50062 0.80997 0.0
C631 C 0.59636 0.50985 0.81587 0.0
C632 C 0.6514 0.46265 0.79756 0.0
C633 C 0.66812 0.48076 0.789 0.0
C634 C 0.66149 0.4341 0.80123 0.0
C635 C 0.64569 0.41467 0.81096 0.0
C636 C 0.63848 0.4248 0.82424 0.0
C637 C 0.62311 0.4066 0.83326 0.0
C638 C 0.61508 0.3781 0.82917 0.0
C639 C 0.62249 0.3677 0.81607 0.0
C640 C 0.6378 0.38584 0.80699 0.0
C641 C 0.785 0.43864 0.78356 0.0
C642 C 0.78845 0.41245 0.77586 0.0
C643 C 0.7578 0.44831 0.78738 0.0
C644 C 0.7335 0.43204 0.78358 0.0
C645 C 0.73683 0.40566 0.77607 0.0
C646 C 0.76407 0.39602 0.77218 0.0
C647 C 0.70467 0.4425 0.7876 0.0
C648 C 0.68782 0.42425 0.79603 0.0
C649 C 0.69459 0.47101 0.78391 0.0
C650 C 0.71099 0.4908 0.77459 0.0
C651 C 0.7197 0.48091 0.76148 0.0
C652 C 0.73543 0.49955 0.75281 0.0
C653 C 0.74242 0.52822 0.75709 0.0
C654 C 0.73362 0.53834 0.77004 0.0
C655 C 0.71791 0.51978 0.77876 0.0
H656 H 0.7546 0.54262 0.75036 0.0
H657 H 0.60317 0.36405 0.83616 0.0
H658 H 0.52499 0.06663 0.04529 0.0
H659 H 0.55614 0.10612 0.03678 0.0
H660 H 0.55729 0.14565 0.07732 0.0
H661 H 0.52544 0.10686 0.08577 0.0
H662 H 0.55288 0.18716 0.05904 0.0
H663 H 0.61401 0.1034 0.0648 0.0
H664 H 0.63002 0.05168 0.06195 0.0
H665 H 0.63575 0.06425 0.01812 0.0
H666 H 0.61939 0.11596 0.02068 0.0
H667 H 0.67017 0.28175 0.04669 0.0
H668 H 0.64573 0.2381 0.05592 0.0
H669 H 0.6267 0.2089 0.01457 0.0
H670 H 0.65085 0.25265 0.00522 0.0
H671 H 0.64217 0.16209 0.03395 0.0
H672 H 0.57893 0.24696 0.02929 0.0
H673 H 0.56512 0.29899 0.03336 0.0
H674 H 0.56614 0.28397 0.0771 0.0
H675 H 0.58047 0.23195 0.0733 0.0
C676 C 0.53173 0.08385 0.05236 0.0
C677 C 0.52282 0.08358 0.06621 0.0
C678 C 0.5497 0.10629 0.04751 0.0
C679 C 0.55952 0.12855 0.05648 0.0
C680 C 0.55007 0.12869 0.07022 0.0
C681 C 0.53184 0.10648 0.07503 0.0
C682 C 0.57964 0.1517 0.05156 0.0
C683 C 0.57258 0.18159 0.05373 0.0
C684 C 0.60528 0.14453 0.04452 0.0
C685 C 0.6152 0.11347 0.04292 0.0
C686 C 0.61848 0.09507 0.05454 0.0
C687 C 0.62765 0.06577 0.05298 0.0
C688 C 0.63383 0.05466 0.03986 0.0
C689 C 0.63092 0.07287 0.02827 0.0
C690 C 0.62172 0.10219 0.02978 0.0
C691 C 0.66144 0.26567 0.03954 0.0
C692 C 0.66218 0.27072 0.02523 0.0
C693 C 0.64741 0.24083 0.04484 0.0
C694 C 0.63419 0.22058 0.0359 0.0
C695 C 0.63677 0.22436 0.0216 0.0
C696 C 0.65049 0.24938 0.0163 0.0
C697 C 0.61524 0.19723 0.04142 0.0
C698 C 0.62251 0.16744 0.03933 0.0
C699 C 0.59002 0.20445 0.04873 0.0
C700 C 0.58104 0.23563 0.05101 0.0
C701 C 0.57643 0.25481 0.03978 0.0
C702 C 0.56846 0.28429 0.04203 0.0
C703 C 0.56474 0.29477 0.05548 0.0
C704 C 0.56901 0.27581 0.06669 0.0
C705 C 0.57705 0.24632 0.06449 0.0
H706 H 0.55855 0.3176 0.05721 0.0
H707 H 0.64093 0.03197 0.03867 0.0
H708 H 0.94551 0.00202 0.30698 0.0
H709 H 0.90785 0.02144 0.29194 0.0
H710 H 0.89959 0.09829 0.31812 0.0
H711 H 0.93695 0.07903 0.33323 0.0
H712 H 0.84822 0.07395 0.312 0.0
H713 H 0.93271 0.10367 0.2874 0.0
H714 H 0.97927 0.09588 0.27605 0.0
H715 H 0.94029 0.03622 0.24712 0.0
H716 H 0.89354 0.04333 0.25842 0.0
H717 H 0.7571 0.15844 0.27038 0.0
H718 H 0.8007 0.14399 0.28251 0.0
H719 H 0.80943 0.06798 0.25584 0.0
H720 H 0.76613 0.08253 0.24348 0.0
H721 H 0.86121 0.09218 0.26188 0.0
H722 H 0.77773 0.06047 0.28666 0.0
H723 H 0.7309 0.06693 0.29794 0.0
H724 H 0.76792 0.12854 0.32659 0.0
H725 H 0.81491 0.12276 0.31534 0.0
C726 C 0.93571 0.02307 0.30952 0.0
C727 C 0.9442 0.03897 0.3213 0.0
C728 C 0.91431 0.03421 0.30088 0.0
C729 C 0.90113 0.06142 0.30387 0.0
C730 C 0.90954 0.07726 0.31563 0.0
C731 C 0.93093 0.06622 0.32424 0.0
C732 C 0.8779 0.07303 0.29502 0.0
C733 C 0.85119 0.07836 0.30108 0.0
C734 C 0.88162 0.07799 0.28071 0.0
C735 C 0.90967 0.07382 0.27384 0.0
C736 C 0.9341 0.08871 0.27869 0.0
C737 C 0.96053 0.08445 0.27225 0.0
C738 C 0.96276 0.06551 0.2609 0.0
C739 C 0.93854 0.05085 0.25593 0.0
C740 C 0.91207 0.05501 0.26234 0.0
C741 C 0.76853 0.13891 0.26694 0.0
C742 C 0.75792 0.12139 0.2561 0.0
C743 C 0.7934 0.13065 0.27391 0.0
C744 C 0.80793 0.10459 0.27024 0.0
C745 C 0.79844 0.08809 0.25887 0.0
C746 C 0.77363 0.09641 0.25185 0.0
C747 C 0.83165 0.09335 0.27891 0.0
C748 C 0.85835 0.08792 0.27281 0.0
C749 C 0.82793 0.0881 0.2932 0.0
C750 C 0.79976 0.09142 0.30006 0.0
C751 C 0.77583 0.07556 0.2953 0.0
C752 C 0.74927 0.07908 0.3017 0.0
C753 C 0.74642 0.0982 0.31295 0.0
C754 C 0.77015 0.11377 0.31786 0.0
C755 C 0.79676 0.11037 0.31148 0.0
H756 H 0.72584 0.1009 0.31789 0.0
H757 H 0.98323 0.06223 0.25593 0.0
H758 H 0.96574 0.40792 0.58271 0.0
H759 H 0.93844 0.36746 0.57252 0.0
H760 H 0.94496 0.40887 0.5325 0.0
H761 H 0.97169 0.45003 0.54272 0.0
H762 H 0.89232 0.3891 0.53656 0.0
H763 H 0.98621 0.34814 0.54124 0.0
H764 H 0.03085 0.33487 0.55328 0.0
H765 H 0.98367 0.28018 0.5815 0.0
H766 H 0.93869 0.29344 0.56974 0.0
H767 H 0.85484 0.25865 0.4982 0.0
H768 H 0.87668 0.30314 0.50799 0.0
H769 H 0.86696 0.2669 0.54892 0.0
H770 H 0.84533 0.22226 0.53924 0.0
H771 H 0.92124 0.28446 0.54386 0.0
H772 H 0.82707 0.32548 0.53854 0.0
H773 H 0.78307 0.33863 0.52595 0.0
H774 H 0.83174 0.39276 0.49808 0.0
H775 H 0.8761 0.37961 0.5104 0.0
C776 C 0.96152 0.4084 0.57172 0.0
C777 C 0.97102 0.43212 0.5635 0.0
C778 C 0.94595 0.38518 0.5659 0.0
C779 C 0.93999 0.38491 0.55171 0.0
C780 C 0.94935 0.40861 0.54347 0.0
C781 C 0.96472 0.43204 0.54932 0.0
C782 C 0.92377 0.35997 0.54553 0.0
C783 C 0.89886 0.36622 0.53799 0.0
C784 C 0.93201 0.33011 0.54761 0.0
C785 C 0.95905 0.32201 0.55468 0.0
C786 C 0.98533 0.33346 0.55008 0.0
C787 C 0.0107 0.32591 0.55684 0.0
C788 C 0.01009 0.30675 0.56817 0.0
C789 C 0.98411 0.29504 0.57274 0.0
C790 C 0.95867 0.30254 0.56602 0.0
C791 C 0.85688 0.26035 0.5093 0.0
C792 C 0.84854 0.23681 0.51793 0.0
C793 C 0.86931 0.28584 0.51488 0.0
C794 C 0.87345 0.28829 0.52918 0.0
C795 C 0.86404 0.26538 0.53785 0.0
C796 C 0.85159 0.23992 0.53229 0.0
C797 C 0.88966 0.31355 0.53502 0.0
C798 C 0.91468 0.30733 0.54246 0.0
C799 C 0.88161 0.34338 0.53274 0.0
C800 C 0.85495 0.35131 0.52531 0.0
C801 C 0.82843 0.33998 0.52966 0.0
C802 C 0.80341 0.34748 0.52258 0.0
C803 C 0.80462 0.36646 0.51119 0.0
C804 C 0.83084 0.37803 0.50688 0.0
C805 C 0.85592 0.37059 0.51392 0.0
H806 H 0.78522 0.37224 0.50573 0.0
H807 H 0.02975 0.30094 0.57339 0.0
H808 H 0.58987 0.01875 0.42921 0.0
H809 H 0.62931 0.03698 0.44324 0.0
H810 H 0.58048 0.02027 0.48021 0.0
H811 H 0.54047 0.00264 0.46616 0.0
H812 H 0.60353 0.0734 0.48129 0.0
H813 H 0.6385 0.97661 0.47131 0.0
H814 H 0.65108 0.93354 0.45688 0.0
H815 H 0.7119 0.98641 0.43463 0.0
H816 H 0.69941 0.02993 0.4488 0.0
H817 H 0.72651 0.10214 0.524 0.0
H818 H 0.6852 0.07906 0.51281 0.0
H819 H 0.72106 0.09903 0.47287 0.0
H820 H 0.76233 0.12205 0.48391 0.0
H821 H 0.70401 0.04079 0.47529 0.0
H822 H 0.66585 0.1383 0.48466 0.0
H823 H 0.65307 0.18075 0.49945 0.0
H824 H 0.59822 0.12478 0.5236 0.0
H825 H 0.61098 0.08188 0.50905 0.0
C826 C 0.58759 0.01858 0.44033 0.0
C827 C 0.56202 0.00923 0.44657 0.0
C828 C 0.61024 0.02893 0.44835 0.0
C829 C 0.608 0.0297 0.46279 0.0
C830 C 0.58269 0.01985 0.46908 0.0
C831 C 0.55989 0.00968 0.46104 0.0
C832 C 0.63155 0.04226 0.47121 0.0
C833 C 0.62543 0.06586 0.48018 0.0
C834 C 0.6602 0.03276 0.4696 0.0
C835 C 0.66785 0.00661 0.46106 0.0
C836 C 0.65441 0.97912 0.46328 0.0
C837 C 0.66155 0.95461 0.45515 0.0
C838 C 0.68223 0.95725 0.44483 0.0
C839 C 0.69587 0.9844 0.44263 0.0
C840 C 0.68879 0.00899 0.45071 0.0
C841 C 0.72547 0.10188 0.51283 0.0
C842 C 0.74774 0.11388 0.50484 0.0
C843 C 0.70184 0.08871 0.50647 0.0
C844 C 0.70013 0.08735 0.49202 0.0
C845 C 0.72206 0.09977 0.48404 0.0
C846 C 0.74557 0.11304 0.49037 0.0
C847 C 0.67598 0.07217 0.48514 0.0
C848 C 0.68204 0.04805 0.47648 0.0
C849 C 0.6473 0.08104 0.48712 0.0
C850 C 0.63963 0.10681 0.49587 0.0
C851 C 0.65127 0.13498 0.4932 0.0
C852 C 0.64398 0.15914 0.50152 0.0
C853 C 0.62492 0.15544 0.51249 0.0
C854 C 0.61303 0.1276 0.51512 0.0
C855 C 0.62026 0.10336 0.50684 0.0
H856 H 0.6193 0.17418 0.51891 0.0
H857 H 0.68773 0.93825 0.43855 0.0
H858 H 0.9612 0.05776 0.71606 0.0
H859 H 0.93985 0.10337 0.725 0.0
H860 H 0.94982 0.14463 0.68511 0.0
H861 H 0.97193 0.09954 0.67624 0.0
H862 H 0.96353 0.18233 0.70417 0.0
H863 H 0.88439 0.11686 0.69671 0.0
H864 H 0.85652 0.07073 0.69901 0.0
H865 H 0.85188 0.08322 0.74288 0.0
H866 H 0.88006 0.12926 0.74086 0.0
H867 H 0.868 0.30183 0.71248 0.0
H868 H 0.88637 0.25399 0.70466 0.0
H869 H 0.88953 0.22314 0.74675 0.0
H870 H 0.87125 0.27105 0.75472 0.0
H871 H 0.86886 0.1802 0.72727 0.0
H872 H 0.94824 0.24717 0.7338 0.0
H873 H 0.97426 0.29416 0.73043 0.0
H874 H 0.97628 0.2791 0.68669 0.0
H875 H 0.94987 0.23221 0.68979 0.0
C876 C 0.95899 0.07661 0.70922 0.0
C877 C 0.96817 0.07499 0.69543 0.0
C878 C 0.94661 0.10261 0.71432 0.0
C879 C 0.94275 0.12728 0.70566 0.0
C880 C 0.9525 0.12588 0.69198 0.0
C881 C 0.96514 0.10005 0.68692 0.0
C882 C 0.92859 0.1546 0.71079 0.0
C883 C 0.94268 0.18182 0.70907 0.0
C884 C 0.90157 0.15398 0.7174 0.0
C885 C 0.88459 0.12634 0.71865 0.0
C886 C 0.87762 0.10965 0.70686 0.0
C887 C 0.86173 0.08354 0.70811 0.0
C888 C 0.85251 0.074 0.72109 0.0
C889 C 0.85908 0.09061 0.73284 0.0
C890 C 0.87499 0.11672 0.73164 0.0
C891 C 0.87221 0.28477 0.72008 0.0
C892 C 0.86842 0.29033 0.73423 0.0
C893 C 0.88277 0.25748 0.71559 0.0
C894 C 0.88959 0.23524 0.72516 0.0
C895 C 0.88443 0.2401 0.73923 0.0
C896 C 0.87408 0.2675 0.74375 0.0
C897 C 0.90377 0.20767 0.72053 0.0
C898 C 0.88972 0.18052 0.72237 0.0
C899 C 0.93065 0.20833 0.71387 0.0
C900 C 0.94685 0.23633 0.71201 0.0
C901 C 0.95405 0.25399 0.72345 0.0
C902 C 0.9689 0.28059 0.7216 0.0
C903 C 0.97686 0.28964 0.70835 0.0
C904 C 0.97007 0.27207 0.69694 0.0
C905 C 0.95518 0.24547 0.69874 0.0
H906 H 0.98834 0.31025 0.70693 0.0
H907 H 0.84021 0.05378 0.72204 0.0
H908 H 0.92652 0.52789 0.95121 0.0
H909 H 0.88469 0.50874 0.96336 0.0
H910 H 0.91805 0.41985 0.96001 0.0
H911 H 0.95974 0.43876 0.94764 0.0
H912 H 0.86365 0.42182 0.95228 0.0
H913 H 0.91732 0.45636 0.99101 0.0
H914 H 0.94511 0.49224 0.00473 0.0
H915 H 0.8727 0.55063 0.00625 0.0
H916 H 0.84458 0.51528 0.99238 0.0
H917 H 0.75615 0.35782 0.99412 0.0
H918 H 0.80318 0.37445 0.98634 0.0
H919 H 0.77398 0.46515 0.98687 0.0
H920 H 0.72699 0.44879 0.99482 0.0
H921 H 0.82804 0.46004 0.9971 0.0
H922 H 0.77585 0.42704 0.95702 0.0
H923 H 0.74813 0.39139 0.94314 0.0
H924 H 0.81834 0.33011 0.94413 0.0
H925 H 0.84636 0.36527 0.95819 0.0
C926 C 0.92511 0.5043 0.95317 0.0
C927 C 0.94643 0.48485 0.94844 0.0
C928 C 0.90124 0.4934 0.96018 0.0
C929 C 0.89837 0.46289 0.9627 0.0
C930 C 0.91985 0.44348 0.95818 0.0
C931 C 0.94369 0.45434 0.95114 0.0
C932 C 0.87221 0.45109 0.96935 0.0
C933 C 0.85616 0.42978 0.96221 0.0
C934 C 0.86211 0.46198 0.98215 0.0
C935 C 0.87892 0.48326 0.99055 0.0
C936 C 0.90739 0.47695 0.99418 0.0
C937 C 0.92319 0.49718 0.002 0.0
C938 C 0.9107 0.52373 0.00633 0.0
C939 C 0.88236 0.53007 0.00288 0.0
C940 C 0.86646 0.50992 0.99505 0.0
C941 C 0.75977 0.38133 0.99269 0.0
C942 C 0.73775 0.40197 0.99497 0.0
C943 C 0.78665 0.39078 0.98821 0.0
C944 C 0.79192 0.42099 0.98586 0.0
C945 C 0.77032 0.44173 0.98861 0.0
C946 C 0.74344 0.43231 0.9931 0.0
C947 C 0.81953 0.43092 0.97998 0.0
C948 C 0.83576 0.45191 0.98725 0.0
C949 C 0.82984 0.41974 0.96729 0.0
C950 C 0.81307 0.39864 0.95879 0.0
C951 C 0.78529 0.40586 0.95437 0.0
C952 C 0.76954 0.38577 0.94646 0.0
C953 C 0.78143 0.35847 0.94279 0.0
C954 C 0.80914 0.35125 0.947 0.0
C955 C 0.82497 0.37125 0.95494 0.0
H956 H 0.7692 0.34294 0.93666 0.0
H957 H 0.92297 0.53936 0.01238 0.0
H958 H 0.50053 0.44229 0.22216 0.0
H959 H 0.52821 0.40442 0.2343 0.0
H960 H 0.51862 0.34538 0.19959 0.0
H961 H 0.49034 0.38274 0.18755 0.0
H962 H 0.51551 0.31512 0.22286 0.0
H963 H 0.57875 0.38906 0.20382 0.0
H964 H 0.59725 0.43971 0.20034 0.0
H965 H 0.61418 0.44733 0.24374 0.0
H966 H 0.59542 0.39682 0.24751 0.0
H967 H 0.63506 0.22242 0.22661 0.0
H968 H 0.6039 0.26287 0.2194 0.0
H969 H 0.61104 0.30256 0.25972 0.0
H970 H 0.64225 0.26187 0.26714 0.0
H971 H 0.61403 0.34354 0.23655 0.0
H972 H 0.5548 0.26578 0.25457 0.0
H973 H 0.53857 0.214 0.25679 0.0
H974 H 0.51574 0.21274 0.21388 0.0
H975 H 0.53233 0.26438 0.21134 0.0
C976 C 0.50392 0.42106 0.21721 0.0
C977 C 0.4935 0.41562 0.20384 0.0
C978 C 0.51987 0.3995 0.22413 0.0
C979 C 0.52601 0.37232 0.21773 0.0
C980 C 0.51425 0.36624 0.20471 0.0
C981 C 0.49809 0.38766 0.19783 0.0
C982 C 0.54598 0.35083 0.22415 0.0
C983 C 0.53707 0.32134 0.22579 0.0
C984 C 0.57399 0.35903 0.22822 0.0
C985 C 0.58538 0.38933 0.22597 0.0
C986 C 0.58622 0.40163 0.21264 0.0
C987 C 0.59679 0.43029 0.21061 0.0
C988 C 0.6068 0.44676 0.22182 0.0
C989 C 0.60636 0.43457 0.23507 0.0
C990 C 0.59578 0.40593 0.23716 0.0
C991 C 0.63039 0.23991 0.23393 0.0
C992 C 0.64094 0.23878 0.2475 0.0
C993 C 0.61249 0.26295 0.22978 0.0
C994 C 0.6049 0.28536 0.2391 0.0
C995 C 0.6166 0.28531 0.25242 0.0
C996 C 0.63438 0.26206 0.25663 0.0
C997 C 0.58362 0.30793 0.23501 0.0
C998 C 0.59231 0.33752 0.2338 0.0
C999 C 0.55552 0.29978 0.2312 0.0
C1000 C 0.54502 0.26889 0.23274 0.0
C1001 C 0.54651 0.2544 0.24558 0.0
C1002 C 0.53722 0.22508 0.2469 0.0
C1003 C 0.52617 0.21008 0.23547 0.0
C1004 C 0.52432 0.22439 0.22272 0.0
C1005 C 0.53364 0.2537 0.22134 0.0
H1006 H 0.51901 0.18737 0.23651 0.0
H1007 H 0.61498 0.46895 0.22023 0.0
H1008 H 0.02808 0.91179 0.36912 0.0
H1009 H 0.03329 0.88394 0.39055 0.0
H1010 H 0.97772 0.94589 0.41128 0.0
H1011 H 0.9726 0.97408 0.38992 0.0
H1012 H 0.02902 0.94326 0.42313 0.0
H1013 H 0.95938 0.87286 0.40887 0.0
H1014 H 0.93562 0.83759 0.3932 0.0
H1015 H 0.01104 0.78337 0.39259 0.0
H1016 H 0.03543 0.81853 0.4081 0.0
H1017 H 0.06878 0.87952 0.48609 0.0
H1018 H 0.03602 0.89296 0.46744 0.0
H1019 H 0.08203 0.83559 0.43959 0.0
H1020 H 0.11414 0.82123 0.45828 0.0
H1021 H 0.02667 0.83548 0.43322 0.0
H1022 H 0.09868 0.90966 0.44286 0.0
H1023 H 0.12483 0.94496 0.45763 0.0
H1024 H 0.04696 0.99236 0.46557 0.0
H1025 H 0.02026 0.95704 0.45101 0.0
C1026 C 0.01627 0.91902 0.37812 0.0
C1027 C 0.00038 0.94548 0.37788 0.0
C1028 C 0.01915 0.90295 0.39037 0.0
C1029 C 0.00599 0.91292 0.40254 0.0
C1030 C 0.98813 0.93788 0.40202 0.0
C1031 C 0.98526 0.95397 0.38979 0.0
C1032 C 0.01473 0.90046 0.41605 0.0
C1033 C 0.02775 0.91978 0.42549 0.0
C1034 C 0.01388 0.86973 0.41894 0.0
C1035 C 0.9993 0.84847 0.4096 0.0
C1036 C 0.97099 0.85355 0.40531 0.0
C1037 C 0.95739 0.83354 0.39647 0.0
C1038 C 0.97182 0.80828 0.39188 0.0
C1039 C -0.00012 0.80295 0.39615 0.0
C1040 C 0.01359 0.82289 0.40499 0.0
C1041 C 0.07159 0.86938 0.47605 0.0
C1042 C 0.09431 0.84972 0.47357 0.0
C1043 C 0.05286 0.87707 0.46541 0.0
C1044 C 0.05697 0.86577 0.45205 0.0
C1045 C 0.07849 0.84464 0.4498 0.0
C1046 C 0.09694 0.83658 0.46048 0.0
C1047 C 0.04119 0.87829 0.44012 0.0
C1048 C 0.02715 0.85903 0.43097 0.0
C1049 C 0.04138 0.9091 0.43734 0.0
C1050 C 0.05744 0.93051 0.446 0.0
C1051 C 0.08712 0.9275 0.44784 0.0
C1052 C 0.10203 0.94752 0.45616 0.0
C1053 C 0.08754 0.97085 0.46257 0.0
C1054 C 0.05813 0.97425 0.46063 0.0
C1055 C 0.04309 0.95424 0.45235 0.0
H1056 H 0.09912 0.98633 0.46902 0.0
H1057 H 0.96125 0.79282 0.38504 0.0
H1058 H 0.10415 0.53929 0.61992 0.0
H1059 H 0.11992 0.54255 0.64375 0.0
H1060 H 0.08192 0.45741 0.65237 0.0
H1061 H 0.06496 0.45447 0.62852 0.0
H1062 H 0.06307 0.49626 0.66994 0.0
H1063 H 0.15555 0.4689 0.65509 0.0
H1064 H 0.1988 0.46878 0.64057 0.0
H1065 H 0.21469 0.5598 0.65098 0.0
H1066 H 0.1713 0.56065 0.66541 0.0
H1067 H 0.10556 0.52731 0.7401 0.0
H1068 H 0.1042 0.50158 0.71781 0.0
H1069 H 0.12284 0.58377 0.69693 0.0
H1070 H 0.12415 0.60961 0.71902 0.0
H1071 H 0.15565 0.53442 0.68741 0.0
H1072 H 0.05313 0.56147 0.69481 0.0
H1073 H 0.00957 0.56121 0.70922 0.0
H1074 H 0.01608 0.46674 0.71378 0.0
H1075 H 0.05955 0.46652 0.69928 0.0
C1076 C 0.0997 0.52086 0.62676 0.0
C1077 C 0.08296 0.4968 0.62235 0.0
C1078 C 0.10892 0.52268 0.64042 0.0
C1079 C 0.1021 0.50021 0.6499 0.0
C1080 C 0.08722 0.47509 0.64526 0.0
C1081 C 0.07771 0.47338 0.6316 0.0
C1082 C 0.1072 0.50504 0.66485 0.0
C1083 C 0.08363 0.50357 0.67382 0.0
C1084 C 0.13383 0.51518 0.66995 0.0
C1085 C 0.16005 0.51485 0.66131 0.0
C1086 C 0.16815 0.48897 0.65422 0.0
C1087 C 0.19272 0.48876 0.64601 0.0
C1088 C 0.20947 0.51427 0.64485 0.0
C1089 C 0.2017 0.54005 0.6519 0.0
C1090 C 0.17714 0.54038 0.66012 0.0
C1091 C 0.10939 0.53988 0.73076 0.0
C1092 C 0.11483 0.57052 0.73132 0.0
C1093 C 0.10861 0.52515 0.71806 0.0
C1094 C 0.11345 0.54082 0.70577 0.0
C1095 C 0.11922 0.57128 0.70632 0.0
C1096 C 0.11976 0.58604 0.71896 0.0
C1097 C 0.11148 0.52603 0.69219 0.0
C1098 C 0.13551 0.52589 0.68354 0.0
C1099 C 0.08551 0.51393 0.68741 0.0
C1100 C 0.05946 0.51399 0.69603 0.0
C1101 C 0.04521 0.54069 0.6989 0.0
C1102 C 0.02055 0.54061 0.70706 0.0
C1103 C 0.01006 0.51397 0.71241 0.0
C1104 C 0.02425 0.48736 0.70964 0.0
C1105 C 0.04882 0.4873 0.70142 0.0
H1106 H 0.99095 0.51394 0.7187 0.0
H1107 H 0.22848 0.51407 0.63848 0.0
H1108 H 0.4678 0.5587 0.86697 0.0
H1109 H 0.46158 0.58671 0.88818 0.0
H1110 H 0.54943 0.56972 0.89924 0.0
H1111 H 0.55555 0.54069 0.87809 0.0
H1112 H 0.5175 0.55704 0.91988 0.0
H1113 H 0.525 0.64144 0.89137 0.0
H1114 H 0.51623 0.67346 0.87119 0.0
H1115 H 0.42743 0.67959 0.88198 0.0
H1116 H 0.43555 0.64727 0.90213 0.0
H1117 H 0.45495 0.6818 0.96887 0.0
H1118 H 0.4822 0.66709 0.94844 0.0
H1119 H 0.44567 0.57937 0.95082 0.0
H1120 H 0.41922 0.59359 0.97143 0.0
H1121 H 0.46465 0.65187 0.92433 0.0
H1122 H 0.48765 0.52807 0.93756 0.0
H1123 H 0.50016 0.49759 0.9578 0.0
H1124 H 0.53507 0.57418 0.978 0.0
H1125 H 0.52326 0.60498 0.95776 0.0
C1126 C 0.48603 0.56144 0.87374 0.0
C1127 C 0.51214 0.54732 0.8709 0.0
C1128 C 0.48247 0.57764 0.88588 0.0
C1129 C 0.50511 0.58061 0.89529 0.0
C1130 C 0.53166 0.56776 0.89213 0.0
C1131 C 0.53516 0.55126 0.88003 0.0
C1132 C 0.49992 0.59447 0.90896 0.0
C1133 C 0.50618 0.57792 0.92085 0.0
C1134 C 0.48593 0.62215 0.91031 0.0
C1135 C 0.4809 0.64181 0.89825 0.0
C1136 C 0.50356 0.64947 0.88941 0.0
C1137 C 0.49871 0.6677 0.87797 0.0
C1138 C 0.47128 0.67853 0.8753 0.0
C1139 C 0.44866 0.6712 0.88407 0.0
C1140 C 0.4534 0.65298 0.89552 0.0
C1141 C 0.45303 0.65927 0.96513 0.0
C1142 C 0.43495 0.63885 0.97177 0.0
C1143 C 0.46859 0.65091 0.95345 0.0
C1144 C 0.46629 0.62202 0.94817 0.0
C1145 C 0.4484 0.60157 0.95487 0.0
C1146 C 0.43311 0.6098 0.96662 0.0
C1147 C 0.48093 0.61367 0.93513 0.0
C1148 C 0.47643 0.63126 0.92338 0.0
C1149 C 0.49705 0.58723 0.93394 0.0
C1150 C 0.50447 0.56884 0.94614 0.0
C1151 C 0.49821 0.53835 0.94627 0.0
C1152 C 0.50513 0.52102 0.95775 0.0
C1153 C 0.51836 0.53395 0.96919 0.0
C1154 C 0.52476 0.56421 0.96914 0.0
C1155 C 0.51794 0.58161 0.95767 0.0
H1156 H 0.52368 0.52051 0.97808 0.0
H1157 H 0.46757 0.69262 0.86644 0.0
H1158 H 0.42998 0.04489 0.13164 0.0
H1159 H 0.40963 0.03322 0.15416 0.0
H1160 H 0.35129 0.97155 0.13513 0.0
H1161 H 0.37174 0.98283 0.11249 0.0
H1162 H 0.32742 0.00113 0.15803 0.0
H1163 H 0.40999 0.94676 0.14511 0.0
H1164 H 0.45932 0.93691 0.13757 0.0
H1165 H 0.49163 0.97926 0.174 0.0
H1166 H 0.44242 0.9907 0.18148 0.0
H1167 H 0.31451 0.88946 0.21043 0.0
H1168 H 0.32225 0.91812 0.18933 0.0
H1169 H 0.37516 0.97966 0.21183 0.0
H1170 H 0.36726 0.95133 0.23306 0.0
H1171 H 0.40059 0.95395 0.18792 0.0
H1172 H 0.314 0.00363 0.20122 0.0
H1173 H 0.26353 0.00623 0.20842 0.0
H1174 H 0.23796 0.96344 0.17083 0.0
H1175 H 0.28833 0.96017 0.16349 0.0
C1176 C 0.41226 0.02948 0.13215 0.0
C1177 C 0.4028 0.01436 0.12029 0.0
C1178 C 0.4007 0.02281 0.14505 0.0
C1179 C 0.37934 0.00117 0.1463 0.0
C1180 C 0.36786 0.98825 0.13436 0.0
C1181 C 0.37963 0.99466 0.12144 0.0
C1182 C 0.3718 0.98919 0.16003 0.0
C1183 C 0.34337 0.99077 0.16457 0.0
C1184 C 0.39271 0.97564 0.16852 0.0
C1185 C 0.42243 0.9702 0.16371 0.0
C1186 C 0.42757 0.9547 0.15136 0.0
C1187 C 0.45554 0.94878 0.1471 0.0
C1188 C 0.47859 0.95771 0.15525 0.0
C1189 C 0.47373 0.97272 0.16763 0.0
C1190 C 0.44581 0.97905 0.17185 0.0
C1191 C 0.32756 0.90926 0.21092 0.0
C1192 C 0.34046 0.91806 0.22337 0.0
C1193 C 0.33178 0.9257 0.19889 0.0
C1194 C 0.34912 0.95105 0.19908 0.0
C1195 C 0.36158 0.96022 0.21153 0.0
C1196 C 0.35705 0.94402 0.22362 0.0
C1197 C 0.35636 0.96628 0.18604 0.0
C1198 C 0.38478 0.96496 0.18153 0.0
C1199 C 0.33533 0.97936 0.1775 0.0
C1200 C 0.305 0.98145 0.18186 0.0
C1201 C 0.29765 0.99455 0.19454 0.0
C1202 C 0.26904 0.99619 0.19864 0.0
C1203 C 0.24756 0.98495 0.19011 0.0
C1204 C 0.25463 0.97212 0.17744 0.0
C1205 C 0.2832 0.9704 0.1733 0.0
H1206 H 0.22542 0.98624 0.1933 0.0
H1207 H 0.50019 0.95267 0.15205 0.0
H1208 H 0.93731 0.5279 0.88483 0.0
H1209 H 0.93519 0.55167 0.86216 0.0
H1210 H 0.01441 0.59699 0.87072 0.0
H1211 H 0.01623 0.57423 0.89345 0.0
H1212 H 0.98044 0.62966 0.85368 0.0
H1213 H 0.01329 0.52501 0.85708 0.0
H1214 H 0.00168 0.47408 0.86446 0.0
H1215 H 0.92899 0.47332 0.83743 0.0
H1216 H 0.93991 0.52452 0.83008 0.0
H1217 H 0.08072 0.63146 0.80181 0.0
H1218 H 0.051 0.62277 0.82196 0.0
H1219 H 0.9865 0.58231 0.79633 0.0
H1220 H 0.01653 0.59069 0.77592 0.0
H1221 H 0.99601 0.55 0.81915 0.0
H1222 H 0.9736 0.65006 0.8103 0.0
H1223 H 0.98213 0.70249 0.80443 0.0
H1224 H 0.03133 0.71353 0.84147 0.0
H1225 H 0.02348 0.66105 0.84747 0.0
C1226 C 0.95379 0.54367 0.88206 0.0
C1227 C 0.97735 0.54857 0.89079 0.0
C1228 C 0.95254 0.55722 0.86909 0.0
C1229 C 0.97506 0.57542 0.86461 0.0
C1230 C 0.9969 0.58283 0.87391 0.0
C1231 C 0.998 0.56961 0.8869 0.0
C1232 C 0.97896 0.58274 0.84981 0.0
C1233 C 0.98361 0.61236 0.84606 0.0
C1234 C 0.98211 0.56018 0.83976 0.0
C1235 C 0.97728 0.52856 0.84312 0.0
C1236 C 0.99495 0.51387 0.85266 0.0
C1237 C 0.98839 0.48505 0.85689 0.0
C1238 C 0.96456 0.47049 0.85145 0.0
C1239 C 0.94738 0.48467 0.84168 0.0
C1240 C 0.95374 0.51357 0.83746 0.0
C1241 C 0.06017 0.62085 0.80038 0.0
C1242 C 0.05096 0.61189 0.78722 0.0
C1243 C 0.04307 0.61609 0.81193 0.0
C1244 C 0.01623 0.60249 0.81062 0.0
C1245 C 0.007 0.59316 0.79754 0.0
C1246 C 0.02417 0.59797 0.7859 0.0
C1247 C 0.99891 0.59692 0.82317 0.0
C1248 C 0.99182 0.56756 0.82651 0.0
C1249 C 0.99329 0.61981 0.8328 0.0
C1250 C 0.99798 0.65153 0.82932 0.0
C1251 C 0.98637 0.66361 0.81716 0.0
C1252 C 0.99108 0.69336 0.81381 0.0
C1253 C 0.00727 0.71133 0.82257 0.0
C1254 C 0.01876 0.69959 0.8347 0.0
C1255 C 0.01414 0.66985 0.8381 0.0
H1256 H 0.0109 0.73435 0.81995 0.0
H1257 H 0.9595 0.44818 0.85476 0.0
H1258 H 0.42539 0.40833 0.12403 0.0
H1259 H 0.40716 0.42071 0.10105 0.0
H1260 H 0.38197 0.50709 0.11584 0.0
H1261 H 0.39856 0.49435 0.13882 0.0
H1262 H 0.34648 0.49089 0.09699 0.0
H1263 H 0.45135 0.48931 0.10106 0.0
H1264 H 0.49654 0.46293 0.10577 0.0
H1265 H 0.47843 0.40168 0.073 0.0
H1266 H 0.43296 0.42747 0.06824 0.0
H1267 H 0.37507 0.59801 0.04678 0.0
H1268 H 0.3758 0.56477 0.06663 0.0
H1269 H 0.38565 0.48962 0.03954 0.0
H1270 H 0.38491 0.52285 0.0195 0.0
H1271 H 0.4233 0.48887 0.0617 0.0
H1272 H 0.3233 0.49878 0.05453 0.0
H1273 H 0.27802 0.52519 0.05027 0.0
H1274 H 0.28708 0.57158 0.0887 0.0
H1275 H 0.33266 0.54579 0.0931 0.0
C1276 C 0.41522 0.42963 0.12245 0.0
C1277 C 0.41391 0.45056 0.13319 0.0
C1278 C 0.40499 0.43676 0.10929 0.0
C1279 C 0.39406 0.46522 0.10659 0.0
C1280 C 0.39052 0.48509 0.1176 0.0
C1281 C 0.40014 0.47777 0.13078 0.0
C1282 C 0.38908 0.47588 0.09227 0.0
C1283 C 0.36327 0.49042 0.08928 0.0
C1284 C 0.41064 0.47452 0.08199 0.0
C1285 C 0.43862 0.46003 0.08443 0.0
C1286 C 0.45703 0.47021 0.09487 0.0
C1287 C 0.48266 0.45534 0.09756 0.0
C1288 C 0.49026 0.43055 0.08973 0.0
C1289 C 0.47245 0.42081 0.07909 0.0
C1290 C 0.44676 0.43553 0.07639 0.0
C1291 C 0.37738 0.57442 0.04501 0.0
C1292 C 0.37992 0.56307 0.03156 0.0
C1293 C 0.37759 0.55544 0.05636 0.0
C1294 C 0.38039 0.52472 0.05453 0.0
C1295 C 0.38329 0.51326 0.04115 0.0
C1296 C 0.38284 0.53227 0.02973 0.0
C1297 C 0.38126 0.50499 0.06674 0.0
C1298 C 0.40626 0.48875 0.06929 0.0
C1299 C 0.35906 0.50499 0.07665 0.0
C1300 C 0.3315 0.52042 0.07411 0.0
C1301 C 0.31574 0.51475 0.06203 0.0
C1302 C 0.29 0.5296 0.0596 0.0
C1303 C 0.2797 0.55008 0.0692 0.0
C1304 C 0.29509 0.55571 0.08127 0.0
C1305 C 0.32086 0.54094 0.08375 0.0
H1306 H 0.25977 0.56155 0.06729 0.0
H1307 H 0.50993 0.41883 0.0919 0.0
H1308 H 0.48485 0.91203 0.38646 0.0
H1309 H 0.46605 0.88624 0.36628 0.0
H1310 H 0.51735 0.94149 0.33969 0.0
H1311 H 0.53616 0.96756 0.35982 0.0
H1312 H 0.46134 0.94403 0.33324 0.0
H1313 H 0.52985 0.86766 0.34143 0.0
H1314 H 0.55636 0.83061 0.35507 0.0
H1315 H 0.47832 0.78382 0.36336 0.0
H1316 H 0.45125 0.82083 0.34993 0.0
H1317 H 0.40347 0.87953 0.27315 0.0
H1318 H 0.43852 0.8943 0.29052 0.0
H1319 H 0.3955 0.84029 0.32084 0.0
H1320 H 0.36076 0.82483 0.30344 0.0
H1321 H 0.45224 0.83632 0.3239 0.0
H1322 H 0.38335 0.91479 0.31867 0.0
H1323 H 0.3553 0.95217 0.30595 0.0
H1324 H 0.43272 0.99546 0.29327 0.0
H1325 H 0.46125 0.95805 0.30576 0.0
C1326 C 0.49271 0.91822 0.37635 0.0
C1327 C 0.51174 0.94211 0.37474 0.0
C1328 C 0.48202 0.90334 0.36481 0.0
C1329 C 0.49027 0.91199 0.35148 0.0
C1330 C 0.51068 0.93452 0.3499 0.0
C1331 C 0.52146 0.94935 0.36143 0.0
C1332 C 0.47487 0.90025 0.33929 0.0
C1333 C 0.45992 0.9205 0.331 0.0
C1334 C 0.47228 0.86952 0.33666 0.0
C1335 C 0.48848 0.84718 0.34475 0.0
C1336 C 0.51829 0.84961 0.34625 0.0
C1337 C 0.53344 0.82858 0.35393 0.0
C1338 C 0.51903 0.80491 0.3601 0.0
C1339 C 0.48945 0.80218 0.35858 0.0
C1340 C 0.4742 0.82316 0.35092 0.0
C1341 C 0.40157 0.87062 0.28349 0.0
C1342 C 0.37916 0.85125 0.28696 0.0
C1343 C 0.42161 0.87911 0.29341 0.0
C1344 C 0.41936 0.86875 0.30703 0.0
C1345 C 0.39762 0.84857 0.3104 0.0
C1346 C 0.3777 0.83987 0.30045 0.0
C1347 C 0.43866 0.88013 0.31795 0.0
C1348 C 0.45414 0.85985 0.32602 0.0
C1349 C 0.44156 0.91088 0.32051 0.0
C1350 C 0.42443 0.93341 0.313 0.0
C1351 C 0.39439 0.93213 0.31307 0.0
C1352 C 0.37841 0.95334 0.30592 0.0
C1353 C 0.39222 0.97611 0.29877 0.0
C1354 C 0.42205 0.97777 0.29879 0.0
C1355 C 0.43814 0.95657 0.3059 0.0
H1356 H 0.37981 0.99252 0.29324 0.0
H1357 H 0.53079 0.78865 0.36603 0.0
H1358 H 0.07558 0.98428 0.64002 0.0
H1359 H 0.10258 0.97517 0.61903 0.0
H1360 H 0.07142 0.05726 0.60175 0.0
H1361 H 0.04338 0.06602 0.62267 0.0
H1362 H 0.06327 0.01576 0.58423 0.0
H1363 H 0.14434 0.04588 0.60952 0.0
H1364 H 0.1779 0.04911 0.62906 0.0
H1365 H 0.19718 0.95647 0.62502 0.0
H1366 H 0.16342 0.95254 0.60557 0.0
H1367 H 0.13809 0.97193 0.52345 0.0
H1368 H 0.12807 0.00181 0.54398 0.0
H1369 H 0.13669 0.92404 0.56955 0.0
H1370 H 0.14689 0.8941 0.54918 0.0
H1371 H 0.16141 0.97457 0.58131 0.0
H1372 H 0.0717 0.94556 0.55877 0.0
H1373 H 0.04034 0.94424 0.5383 0.0
H1374 H 0.03988 0.03938 0.53684 0.0
H1375 H 0.07152 0.04123 0.55721 0.0
C1376 C 0.07491 0.00076 0.63189 0.0
C1377 C 0.05715 0.02578 0.63298 0.0
C1378 C 0.09058 0.99561 0.61989 0.0
C1379 C 0.08929 0.01564 0.6088 0.0
C1380 C 0.07275 0.04147 0.61015 0.0
C1381 C 0.05679 0.04648 0.62213 0.0
C1382 C 0.1025 0.0077 0.59535 0.0
C1383 C 0.08501 0.00753 0.58356 0.0
C1384 C 0.13081 0.99673 0.5944 0.0
C1385 C 0.1512 0.9989 0.6061 0.0
C1386 C 0.15558 0.02614 0.61285 0.0
C1387 C 0.17467 0.0281 0.62391 0.0
C1388 C 0.18964 0.00301 0.62829 0.0
C1389 C 0.18558 0.97589 0.62161 0.0
C1390 C 0.1665 0.9738 0.61054 0.0
C1391 C 0.13815 0.96125 0.53346 0.0
C1392 C 0.14297 0.93057 0.53467 0.0
C1393 C 0.13246 0.97836 0.54517 0.0
C1394 C 0.13145 0.96506 0.55826 0.0
C1395 C 0.13744 0.93473 0.55955 0.0
C1396 C 0.14306 0.91761 0.54787 0.0
C1397 C 0.12186 0.98189 0.57052 0.0
C1398 C 0.13998 0.98361 0.58202 0.0
C1399 C 0.0943 0.99467 0.5712 0.0
C1400 C 0.07423 0.99353 0.55938 0.0
C1401 C 0.06496 0.96618 0.55405 0.0
C1402 C 0.04717 0.96534 0.54247 0.0
C1403 C 0.03835 0.9917 0.53621 0.0
C1404 C 0.0469 0.01898 0.54165 0.0
C1405 C 0.06471 0.01994 0.55322 0.0
H1406 H 0.02484 0.991 0.52715 0.0
H1407 H 0.20441 0.00457 0.63685 0.0
H1408 H 0.47353 0.42474 0.87383 0.0
H1409 H 0.48344 0.40357 0.89657 0.0
H1410 H 0.57029 0.38559 0.88419 0.0
H1411 H 0.56047 0.40611 0.86139 0.0
H1412 H 0.55055 0.34258 0.90098 0.0
H1413 H 0.55327 0.45001 0.90065 0.0
H1414 H 0.53281 0.49947 0.89642 0.0
H1415 H 0.46484 0.48109 0.92492 0.0
H1416 H 0.48484 0.43128 0.92924 0.0
H1417 H 0.63639 0.35774 0.96002 0.0
H1418 H 0.61205 0.36309 0.93791 0.0
H1419 H 0.53142 0.37343 0.95893 0.0
H1420 H 0.55568 0.36814 0.98122 0.0
H1421 H 0.54004 0.41568 0.93892 0.0
H1422 H 0.54409 0.31042 0.94219 0.0
H1423 H 0.56651 0.2617 0.94616 0.0
H1424 H 0.62353 0.27657 0.91214 0.0
H1425 H 0.60174 0.32559 0.90808 0.0
C1426 C 0.49455 0.41566 0.87584 0.0
C1427 C 0.51635 0.41754 0.86587 0.0
C1428 C 0.5002 0.40367 0.88886 0.0
C1429 C 0.52776 0.39361 0.89215 0.0
C1430 C 0.5489 0.39337 0.88188 0.0
C1431 C 0.54326 0.40522 0.86886 0.0
C1432 C 0.53557 0.38609 0.90657 0.0
C1433 C 0.54829 0.35853 0.90929 0.0
C1434 C 0.53205 0.4067 0.91746 0.0
C1435 C 0.52032 0.43682 0.91512 0.0
C1436 C 0.53388 0.45647 0.90596 0.0
C1437 C 0.52237 0.48459 0.90355 0.0
C1438 C 0.49743 0.49341 0.91033 0.0
C1439 C 0.48409 0.47419 0.91963 0.0
C1440 C 0.49552 0.44603 0.92208 0.0
C1441 C 0.61347 0.36106 0.95998 0.0
C1442 C 0.59797 0.36252 0.97239 0.0
C1443 C 0.59956 0.36391 0.94732 0.0
C1444 C 0.56989 0.36825 0.94679 0.0
C1445 C 0.55432 0.3699 0.95914 0.0
C1446 C 0.56822 0.36687 0.97184 0.0
C1447 C 0.55558 0.3724 0.93329 0.0
C1448 C 0.54171 0.3994 0.93072 0.0
C1449 C 0.55827 0.35135 0.92254 0.0
C1450 C 0.57137 0.32179 0.92489 0.0
C1451 C 0.56155 0.30341 0.93561 0.0
C1452 C 0.57412 0.27571 0.93787 0.0
C1453 C 0.59646 0.26606 0.92942 0.0
C1454 C 0.60622 0.28407 0.91867 0.0
C1455 C 0.59374 0.3118 0.91638 0.0
H1456 H 0.60617 0.24461 0.93118 0.0
H1457 H 0.48847 0.51514 0.90839 0.0
H1458 H 0.51911 0.98452 0.13218 0.0
H1459 H 0.54239 0.98774 0.1547 0.0
H1460 H 0.60957 0.04092 0.13695 0.0
H1461 H 0.58661 0.03763 0.11435 0.0
H1462 H 0.6297 0.00418 0.15739 0.0
H1463 H 0.55223 0.07212 0.14994 0.0
H1464 H 0.50273 0.08664 0.14451 0.0
H1465 H 0.47268 0.04012 0.18033 0.0
H1466 H 0.52193 0.02435 0.1857 0.0
H1467 H 0.66958 0.10324 0.21076 0.0
H1468 H 0.65357 0.07787 0.18991 0.0
H1469 H 0.59273 0.02774 0.21387 0.0
H1470 H 0.60867 0.0531 0.23487 0.0
H1471 H 0.56867 0.05619 0.19157 0.0
H1472 H 0.64824 0.99253 0.20004 0.0
H1473 H 0.69843 0.98019 0.20523 0.0
H1474 H 0.72528 0.02291 0.16781 0.0
H1475 H 0.67528 0.0359 0.16249 0.0
C1476 C 0.5392 0.9963 0.13298 0.0
C1477 C 0.55075 0.0113 0.12153 0.0
C1478 C 0.55244 0.99812 0.14586 0.0
C1479 C 0.57733 0.01506 0.14751 0.0
C1480 C 0.59026 0.02786 0.13589 0.0
C1481 C 0.57705 0.02604 0.12298 0.0
C1482 C 0.58801 0.02237 0.16148 0.0
C1483 C 0.61642 0.0156 0.16487 0.0
C1484 C 0.57044 0.03693 0.17128 0.0
C1485 C 0.54077 0.0465 0.16807 0.0
C1486 C 0.53505 0.06456 0.15655 0.0
C1487 C 0.50701 0.07303 0.15347 0.0
C1488 C 0.48453 0.06407 0.162 0.0
C1489 C 0.49009 0.04682 0.17367 0.0
C1490 C 0.51805 0.03803 0.1767 0.0
C1491 C 0.65303 0.08656 0.21164 0.0
C1492 C 0.64024 0.0803 0.22444 0.0
C1493 C 0.64405 0.07193 0.19973 0.0
C1494 C 0.62211 0.05081 0.20038 0.0
C1495 C 0.60979 0.04391 0.21319 0.0
C1496 C 0.61895 0.05837 0.22516 0.0
C1497 C 0.6104 0.0381 0.18749 0.0
C1498 C 0.58179 0.04414 0.18423 0.0
C1499 C 0.62787 0.02323 0.17779 0.0
C1500 C 0.65799 0.01537 0.18092 0.0
C1501 C 0.66486 0.9995 0.19297 0.0
C1502 C 0.69328 0.99235 0.19592 0.0
C1503 C 0.71504 0.00081 0.18687 0.0
C1504 C 0.70841 0.01638 0.17482 0.0
C1505 C 0.68002 0.02361 0.17182 0.0
H1506 H 0.73703 0.99525 0.18918 0.0
H1507 H 0.46284 0.07064 0.15961 0.0
H1508 H 0.96241 0.12472 0.37925 0.0
H1509 H 0.9566 0.14391 0.40247 0.0
H1510 H 0.03571 0.10234 0.41475 0.0
H1511 H 0.04122 0.08213 0.39149 0.0
H1512 H 0.99597 0.08593 0.43126 0.0
H1513 H 0.02633 0.17982 0.41613 0.0
H1514 H 0.03036 0.22364 0.40106 0.0
H1515 H 0.94143 0.24295 0.40725 0.0
H1516 H 0.93672 0.19901 0.4222 0.0
H1517 H 0.94593 0.13085 0.49833 0.0
H1518 H 0.97772 0.12982 0.47819 0.0
H1519 H 0.90661 0.15182 0.45178 0.0
H1520 H 0.87486 0.15285 0.4717 0.0
H1521 H 0.95646 0.18338 0.4453 0.0
H1522 H 0.92655 0.08123 0.45538 0.0
H1523 H 0.92341 0.03708 0.47034 0.0
H1524 H 0.01488 0.03493 0.47382 0.0
H1525 H 0.01852 0.07923 0.45895 0.0
C1526 C 0.97901 0.12026 0.38676 0.0
C1527 C 0.00204 0.1015 0.38356 0.0
C1528 C 0.97577 0.1315 0.40007 0.0
C1529 C 0.99576 0.12468 0.41041 0.0
C1530 C 0.01998 0.10785 0.40696 0.0
C1531 C 0.02312 0.09637 0.39364 0.0
C1532 C 0.98888 0.13131 0.42506 0.0
C1533 C 0.9882 0.10754 0.43443 0.0
C1534 C 0.97854 0.1594 0.42925 0.0
C1535 C 0.98117 0.18599 0.42028 0.0
C1536 C 0.00758 0.19328 0.41422 0.0
C1537 C 0.00999 0.21818 0.4057 0.0
C1538 C 0.98617 0.23606 0.4032 0.0
C1539 C 0.95988 0.2291 0.40922 0.0
C1540 C 0.95734 0.20422 0.41774 0.0
C1541 C 0.93715 0.13564 0.48823 0.0
C1542 C 0.90785 0.14167 0.48658 0.0
C1543 C 0.95533 0.13508 0.47676 0.0
C1544 C 0.94447 0.14073 0.46352 0.0
C1545 C 0.91542 0.14756 0.46193 0.0
C1546 C 0.89726 0.14788 0.47332 0.0
C1547 C 0.96255 0.13775 0.45107 0.0
C1548 C 0.96524 0.16216 0.44218 0.0
C1549 C 0.97502 0.11037 0.44734 0.0
C1550 C 0.97278 0.08372 0.45622 0.0
C1551 C 0.94597 0.07145 0.45942 0.0
C1552 C 0.9441 0.04637 0.46786 0.0
C1553 C 0.96893 0.03324 0.47306 0.0
C1554 C 0.99567 0.04512 0.46979 0.0
C1555 C 0.99765 0.0702 0.46136 0.0
H1556 H 0.96745 0.01384 0.47959 0.0
H1557 H 0.98808 0.25532 0.3966 0.0
H1558 H 0.01135 0.54343 0.64161 0.0
H1559 H 0.98915 0.53402 0.66398 0.0
H1560 H 0.91118 0.50762 0.64372 0.0
H1561 H 0.93347 0.51628 0.62119 0.0
H1562 H 0.90535 0.53988 0.67108 0.0
H1563 H 0.9503 0.45677 0.64794 0.0
H1564 H 0.98996 0.43142 0.63607 0.0
H1565 H 0.04309 0.44259 0.67182 0.0
H1566 H 0.00388 0.46887 0.68369 0.0
H1567 H 0.88333 0.40028 0.71671 0.0
H1568 H 0.89892 0.42559 0.69583 0.0
H1569 H 0.91299 0.50579 0.71909 0.0
H1570 H 0.8971 0.4806 0.74016 0.0
H1571 H 0.95034 0.44921 0.6904 0.0
H1572 H 0.89909 0.56491 0.69651 0.0
H1573 H 0.85699 0.58798 0.70748 0.0
H1574 H 0.81117 0.50576 0.70448 0.0
H1575 H 0.85282 0.48235 0.69333 0.0
C1576 C 0.98916 0.53659 0.64188 0.0
C1577 C 0.97422 0.53021 0.62965 0.0
C1578 C 0.97654 0.53125 0.65469 0.0
C1579 C 0.94867 0.51996 0.65543 0.0
C1580 C 0.9327 0.51645 0.6433 0.0
C1581 C 0.9455 0.52125 0.63046 0.0
C1582 C 0.93822 0.50697 0.66846 0.0
C1583 C 0.91523 0.52019 0.6754 0.0
C1584 C 0.95086 0.48097 0.67386 0.0
C1585 C 0.9744 0.4653 0.66663 0.0
C1586 C 0.97059 0.45429 0.65318 0.0
C1587 C 0.99295 0.43969 0.64645 0.0
C1588 C 0.01908 0.43551 0.65315 0.0
C1589 C 0.02289 0.44596 0.6666 0.0
C1590 C 0.00066 0.4608 0.67331 0.0
C1591 C 0.8896 0.42334 0.71743 0.0
C1592 C 0.88901 0.43842 0.73012 0.0
C1593 C 0.89857 0.43775 0.70547 0.0
C1594 C 0.907 0.46756 0.70591 0.0
C1595 C 0.90627 0.48284 0.71852 0.0
C1596 C 0.89731 0.46838 0.73055 0.0
C1597 C 0.91741 0.48207 0.69316 0.0
C1598 C 0.94055 0.4691 0.68623 0.0
C1599 C 0.90448 0.5079 0.68767 0.0
C1600 C 0.8792 0.52181 0.69424 0.0
C1601 C 0.87999 0.55179 0.69816 0.0
C1602 C 0.85622 0.56492 0.70441 0.0
C1603 C 0.83146 0.54831 0.70672 0.0
C1604 C 0.8304 0.51857 0.70274 0.0
C1605 C 0.8541 0.50535 0.69647 0.0
H1606 H 0.81309 0.55851 0.71157 0.0
H1607 H 0.0363 0.42403 0.64796 0.0
H1608 H 0.56772 0.0844 0.38988 0.0
H1609 H 0.57594 0.10897 0.36791 0.0
H1610 H 0.48993 0.088 0.35512 0.0
H1611 H 0.48178 0.06247 0.37704 0.0
H1612 H 0.52551 0.07091 0.33632 0.0
H1613 H 0.51241 0.16128 0.36012 0.0
H1614 H 0.5178 0.19821 0.37868 0.0
H1615 H 0.60769 0.20439 0.37028 0.0
H1616 H 0.60297 0.16716 0.3518 0.0
H1617 H 0.56398 0.14061 0.27201 0.0
H1618 H 0.5388 0.1324 0.29389 0.0
H1619 H 0.6194 0.13146 0.31547 0.0
H1620 H 0.64467 0.13938 0.29376 0.0
H1621 H 0.57678 0.16571 0.32863 0.0
H1622 H 0.58909 0.06857 0.30754 0.0
H1623 H 0.58278 0.03144 0.28912 0.0
H1624 H 0.49161 0.03934 0.29263 0.0
H1625 H 0.49741 0.07693 0.31092 0.0
C1626 C 0.55029 0.08554 0.38254 0.0
C1627 C 0.52418 0.07121 0.38517 0.0
C1628 C 0.55497 0.09983 0.36998 0.0
C1629 C 0.5335 0.10053 0.35985 0.0
C1630 C 0.50682 0.08773 0.36277 0.0
C1631 C 0.50217 0.07322 0.37532 0.0
C1632 C 0.54028 0.11142 0.34576 0.0
C1633 C 0.53599 0.09204 0.33461 0.0
C1634 C 0.55431 0.1388 0.34349 0.0
C1635 C 0.55733 0.16128 0.3546 0.0
C1636 C 0.53337 0.17035 0.36229 0.0
C1637 C 0.53631 0.19137 0.37279 0.0
C1638 C 0.56307 0.20361 0.37567 0.0
C1639 C 0.58697 0.19489 0.36803 0.0
C1640 C 0.58416 0.17386 0.35752 0.0
C1641 C 0.57631 0.13872 0.28143 0.0
C1642 C 0.60632 0.14044 0.28115 0.0
C1643 C 0.5619 0.13406 0.29389 0.0
C1644 C 0.57729 0.13132 0.30626 0.0
C1645 C 0.60716 0.13364 0.30603 0.0
C1646 C 0.62156 0.13796 0.2936 0.0
C1647 C 0.56266 0.12483 0.31945 0.0
C1648 C 0.56556 0.145 0.33037 0.0
C1649 C 0.54713 0.09832 0.3215 0.0
C1650 C 0.54369 0.07588 0.31044 0.0
C1651 C 0.56771 0.06265 0.30427 0.0
C1652 C 0.56422 0.04147 0.29387 0.0
C1653 C 0.53681 0.03313 0.28967 0.0
C1654 C 0.51283 0.0459 0.29587 0.0
C1655 C 0.5162 0.06715 0.30624 0.0
H1656 H 0.53416 0.0167 0.28163 0.0
H1657 H 0.5653 0.21988 0.3838 0.0
H1658 H 0.92305 0.01188 0.63945 0.0
H1659 H 0.89595 0.01735 0.61823 0.0
H1660 H 0.94333 0.94532 0.5999 0.0
H1661 H 0.97138 0.94036 0.62108 0.0
H1662 H 0.9445 0.98982 0.58347 0.0
H1663 H 0.86925 0.94048 0.60613 0.0
H1664 H 0.83575 0.92762 0.62482 0.0
H1665 H 0.79932 0.01489 0.62294 0.0
H1666 H 0.83288 0.02847 0.60438 0.0
H1667 H 0.86666 0.03136 0.52288 0.0
H1668 H 0.88083 0.99935 0.54216 0.0
H1669 H 0.85736 0.06809 0.57094 0.0
H1670 H 0.84308 0.10004 0.55186 0.0
H1671 H 0.84084 0.01151 0.57971 0.0
H1672 H 0.92649 0.06144 0.56113 0.0
H1673 H 0.95931 0.07286 0.5419 0.0
H1674 H 0.97398 0.97985 0.53556 0.0
H1675 H 0.94132 0.96798 0.55477 0.0
C1676 C 0.92735 0.99673 0.63104 0.0
C1677 C 0.94957 0.97586 0.63193 0.0
C1678 C 0.91162 -0.00026 0.61889 0.0
C1679 C 0.91737 0.98158 0.60745 0.0
C1680 C 0.93849 0.95958 0.60858 0.0
C1681 C 0.95446 0.95674 0.62071 0.0
C1682 C 0.90379 0.98827 0.59395 0.0
C1683 C 0.92168 0.99369 0.58258 0.0
C1684 C 0.87405 0.99352 0.5927 0.0
C1685 C 0.85371 0.98552 0.60387 0.0
C1686 C 0.85423 0.95701 0.60976 0.0
C1687 C 0.8352 0.94958 0.62033 0.0
C1688 C 0.81544 0.97043 0.62507 0.0
C1689 C 0.81463 0.99875 0.61924 0.0
C1690 C 0.83362 0.00631 0.60868 0.0
C1691 C 0.86426 0.03952 0.53333 0.0
C1692 C 0.85403 0.06834 0.53584 0.0
C1693 C 0.87234 0.02121 0.54431 0.0
C1694 C 0.87026 0.03145 0.55795 0.0
C1695 C 0.85903 0.05974 0.56049 0.0
C1696 C 0.85109 0.07806 0.54955 0.0
C1697 C 0.88174 0.01397 0.56963 0.0
C1698 C 0.86347 0.00665 0.58059 0.0
C1699 C 0.91103 0.0066 0.57048 0.0
C1700 C 0.93134 0.01383 0.55927 0.0
C1701 C 0.93674 0.04347 0.55561 0.0
C1702 C 0.95533 0.05002 0.54474 0.0
C1703 C 0.9687 0.02711 0.53749 0.0
C1704 C 0.96367 0.9976 0.54118 0.0
C1705 C 0.94519 0.99094 0.55208 0.0
H1706 H 0.98295 0.03222 0.52903 0.0
H1707 H 0.80072 0.96463 0.63326 0.0
H1708 H 0.97379 0.40378 0.89224 0.0
H1709 H 0.97171 0.38456 0.86888 0.0
H1710 H 0.05381 0.42369 0.85994 0.0
H1711 H 0.05575 0.44375 0.8834 0.0
H1712 H 0.0169 0.44018 0.84152 0.0
H1713 H 0.04462 0.34733 0.85821 0.0
H1714 H 0.04692 0.30394 0.87362 0.0
H1715 H 0.95903 0.28398 0.86492 0.0
H1716 H 0.95602 0.3275 0.84961 0.0
H1717 H 0.97123 0.39271 0.77375 0.0
H1718 H 0.0011 0.39682 0.79449 0.0
H1719 H 0.92898 0.37218 0.81973 0.0
H1720 H 0.89914 0.36812 0.79923 0.0
H1721 H 0.97824 0.34272 0.82712 0.0
H1722 H 0.9477 0.44169 0.81499 0.0
H1723 H 0.94413 0.48747 0.80127 0.0
H1724 H 0.03519 0.49827 0.80307 0.0
H1725 H 0.03941 0.45208 0.81657 0.0
C1726 C 0.99178 0.40774 0.88545 0.0
C1727 C 0.01479 0.42556 0.88966 0.0
C1728 C 0.99069 0.39647 0.87208 0.0
C1729 C 0.01274 0.40241 0.86264 0.0
C1730 C 0.03661 0.4187 0.86705 0.0
C1731 C 0.03769 0.43012 0.88048 0.0
C1732 C 0.00843 0.39525 0.84783 0.0
C1733 C 0.00901 0.41869 0.83829 0.0
C1734 C 0.99852 0.36711 0.84355 0.0
C1735 C 0.0001 0.34079 0.85275 0.0
C1736 C 0.02571 0.33381 0.85964 0.0
C1737 C 0.02715 0.30916 0.86836 0.0
C1738 C 0.00314 0.29122 0.87026 0.0
C1739 C 0.97763 0.29788 0.86343 0.0
C1740 C 0.97607 0.32251 0.8547 0.0
C1741 C 0.9618 0.38808 0.78372 0.0
C1742 C 0.93279 0.3802 0.78486 0.0
C1743 C 0.97889 0.39044 0.79554 0.0
C1744 C 0.96723 0.38478 0.80862 0.0
C1745 C 0.93843 0.37647 0.80972 0.0
C1746 C 0.92135 0.37435 0.79798 0.0
C1747 C 0.98431 0.38838 0.82136 0.0
C1748 C 0.98656 0.36407 0.83034 0.0
C1749 C 0.9964 0.41592 0.82522 0.0
C1750 C 0.99395 0.44295 0.81653 0.0
C1751 C 0.96706 0.45339 0.8122 0.0
C1752 C 0.96489 0.47953 0.80452 0.0
C1753 C 0.98944 0.49565 0.8012 0.0
C1754 C 0.01621 0.48565 0.80557 0.0
C1755 C 0.0185 0.45946 0.81322 0.0
H1756 H 0.9877 0.516 0.79534 0.0
H1757 H 0.0043 0.27214 0.87701 0.0
H1758 H 0.54827 0.40623 0.14679 0.0
H1759 H 0.57539 0.40089 0.1256 0.0
H1760 H 0.55893 0.4925 0.11544 0.0
H1761 H 0.53066 0.49772 0.13656 0.0
H1762 H 0.54642 0.46056 0.09466 0.0
H1763 H 0.62862 0.46592 0.1223 0.0
H1764 H 0.6606 0.45631 0.14201 0.0
H1765 H 0.66516 0.3643 0.13092 0.0
H1766 H 0.63286 0.37321 0.11126 0.0
H1767 H 0.62758 0.42341 0.03294 0.0
H1768 H 0.61467 0.44757 0.05483 0.0
H1769 H 0.59999 0.3619 0.07329 0.0
H1770 H 0.6123 0.33778 0.05151 0.0
H1771 H 0.63587 0.40292 0.08905 0.0
H1772 H 0.54634 0.39656 0.06436 0.0
H1773 H 0.51223 0.40594 0.0455 0.0
H1774 H 0.51998 0.49974 0.05199 0.0
H1775 H 0.55474 0.49093 0.0707 0.0
C1776 C 0.55085 0.42547 0.14022 0.0
C1777 C 0.53712 0.45235 0.14333 0.0
C1778 C 0.56665 0.42245 0.12811 0.0
C1779 C 0.56958 0.44639 0.11895 0.0
C1780 C 0.55707 0.47374 0.12236 0.0
C1781 C 0.54097 0.47671 0.13445 0.0
C1782 C 0.58259 0.44144 0.10515 0.0
C1783 C 0.56629 0.4485 0.09344 0.0
C1784 C 0.60862 0.42582 0.1035 0.0
C1785 C 0.62819 0.42025 0.11531 0.0
C1786 C 0.63628 0.44359 0.12411 0.0
C1787 C 0.65449 0.43827 0.13527 0.0
C1788 C 0.66488 0.40971 0.13772 0.0
C1789 C 0.65711 0.38642 0.129 0.0
C1790 C 0.63889 0.39161 0.11782 0.0
C1791 C 0.62148 0.40983 0.04167 0.0
C1792 C 0.62063 0.37877 0.04053 0.0
C1793 C 0.61415 0.42361 0.05412 0.0
C1794 C 0.60647 0.40645 0.06562 0.0
C1795 C 0.60594 0.37547 0.06452 0.0
C1796 C 0.6127 0.36176 0.05205 0.0
C1797 C 0.5987 0.42049 0.07886 0.0
C1798 C 0.61622 0.41537 0.09036 0.0
C1799 C 0.5737 0.43778 0.08034 0.0
C1800 C 0.55371 0.44311 0.06872 0.0
C1801 C 0.54131 0.41921 0.06157 0.0
C1802 C 0.52172 0.42442 0.05095 0.0
C1803 C 0.51407 0.45342 0.04749 0.0
C1804 C 0.52603 0.47728 0.05464 0.0
C1805 C 0.54572 0.4722 0.06523 0.0
H1806 H 0.49878 0.4574 0.03932 0.0
H1807 H 0.67897 0.40564 0.14638 0.0
loop_
_geom_bond_atom_site_label_1
_geom_bond_atom_site_label_2
_geom_bond_distance
_geom_bond_site_symmetry_2
_ccdc_geom_bond_type
Mg0 O7 2.141 1_545 S
Mg0 O8 2.048 1_545 S
Mg0 O9 2.048 1_455 S
Mg0 O12 2.141 1_455 S
C1 O2 1.313 . S
C1 O8 1.195 . S
O2 C1 1.313 . S
C3 O4 1.245 . S
C3 O12 1.289 . S
O4 C3 1.245 . S
C5 O6 1.245 . S
C5 O7 1.289 . S
O6 C5 1.245 . S
O7 Mg0 2.141 1_565 S
O7 C5 1.289 . S
O8 Mg0 2.048 1_565 S
O8 C1 1.195 . S
O9 Mg0 2.048 1_655 S
O9 C10 1.195 . S
C10 O9 1.195 . S
C10 O11 1.313 1_545 S
O11 C10 1.313 1_565 S
O12 Mg0 2.141 1_655 S
O12 C3 1.289 . S
Mg13 O20 2.141 1_655 S
Mg13 O21 2.048 1_655 S
Mg13 O22 2.048 . S
Mg13 O25 2.141 . S
C14 O15 1.313 . S
C14 O21 1.195 . S
O15 C14 1.313 . S
C16 O17 1.245 . S
C16 O25 1.289 . S
O17 C16 1.245 . S
C18 O19 1.245 . S
C18 O20 1.289 . S
O19 C18 1.245 . S
O20 Mg13 2.141 1_455 S
O20 C18 1.289 . S
O21 Mg13 2.048 1_455 S
O21 C14 1.195 . S
O22 Mg13 2.048 . S
O22 C23 1.195 . S
C23 O22 1.195 . S
C23 O24 1.313 1_655 S
O24 C23 1.313 1_455 S
O25 Mg13 2.141 . S
O25 C16 1.289 . S
Mg26 O33 2.141 . S
Mg26 O34 2.048 . S
Mg26 O35 2.048 . S
Mg26 O38 2.141 . S
C27 O28 1.313 . S
C27 O34 1.195 . S
O28 C27 1.313 . S
C29 O30 1.245 . S
C29 O38 1.289 . S
O30 C29 1.245 . S
C31 O32 1.245 . S
C31 O33 1.289 . S
O32 C31 1.245 . S
O33 Mg26 2.141 . S
O33 C31 1.289 . S
O34 Mg26 2.048 . S
O34 C27 1.195 . S
O35 Mg26 2.048 . S
O35 C36 1.195 . S
C36 O35 1.195 . S
C36 O37 1.313 . S
O37 C36 1.313 . S
O38 Mg26 2.141 . S
O38 C29 1.289 . S
Mg39 O46 2.141 . S
Mg39 O47 2.048 . S
Mg39 O48 2.048 1_545 S
Mg39 O51 2.141 1_545 S
C40 O41 1.313 . S
C40 O47 1.195 . S
O41 C40 1.313 . S
C42 O43 1.245 . S
C42 O51 1.289 . S
O43 C42 1.245 . S
C44 O45 1.245 . S
C44 O46 1.289 . S
O45 C44 1.245 . S
O46 Mg39 2.141 . S
O46 C44 1.289 . S
O47 Mg39 2.048 . S
O47 C40 1.195 . S
O48 Mg39 2.048 1_565 S
O48 C49 1.195 . S
C49 O48 1.195 . S
C49 O50 1.313 . S
O50 C49 1.313 . S
O51 Mg39 2.141 1_565 S
O51 C42 1.289 . S
Mg52 O59 2.141 . S
Mg52 O60 2.048 . S
Mg52 O61 2.048 1_455 S
Mg52 O64 2.141 1_455 S
C53 O54 1.313 . S
C53 O60 1.195 . S
O54 C53 1.313 . S
C55 O56 1.245 . S
C55 O64 1.289 . S
O56 C55 1.245 . S
C57 O58 1.245 . S
C57 O59 1.289 . S
O58 C57 1.245 . S
O59 Mg52 2.141 . S
O59 C57 1.289 . S
O60 Mg52 2.048 . S
O60 C53 1.195 . S
O61 Mg52 2.048 1_655 S
O61 C62 1.195 . S
C62 O61 1.195 . S
C62 O63 1.313 . S
O63 C62 1.313 . S
O64 Mg52 2.141 1_655 S
O64 C55 1.289 . S
Mg65 O72 2.141 . S
Mg65 O73 2.048 . S
Mg65 O74 2.048 . S
Mg65 O77 2.141 . S
C66 O67 1.313 . S
C66 O73 1.195 . S
O67 C66 1.313 . S
C68 O69 1.245 . S
C68 O77 1.289 . S
O69 C68 1.245 . S
C70 O71 1.245 . S
C70 O72 1.289 . S
O71 C70 1.245 . S
O72 Mg65 2.141 . S
O72 C70 1.289 . S
O73 Mg65 2.048 . S
O73 C66 1.195 . S
O74 Mg65 2.048 . S
O74 C75 1.195 . S
C75 O74 1.195 . S
C75 O76 1.313 . S
O76 C75 1.313 . S
O77 Mg65 2.141 . S
O77 C68 1.289 . S
Mg78 O85 2.141 1_565 S
Mg78 O86 2.048 1_565 S
Mg78 O87 2.048 . S
Mg78 O90 2.141 . S
C79 O80 1.313 . S
C79 O86 1.195 . S
O80 C79 1.313 . S
C81 O82 1.279 . S
C81 O90 1.289 . S
O82 C81 1.279 . S
C83 O84 1.245 . S
C83 O85 1.289 . S
O84 C83 1.245 . S
O85 Mg78 2.141 1_545 S
O85 C83 1.289 . S
O86 Mg78 2.048 1_545 S
O86 C79 1.195 . S
O87 Mg78 2.048 . S
O87 C88 1.195 . S
C88 O87 1.195 . S
C88 O89 1.313 1_565 S
O89 C88 1.313 1_545 S
O90 Mg78 2.141 . S
O90 C81 1.289 . S
Mg91 O98 2.141 1_655 S
Mg91 O99 2.048 1_655 S
Mg91 O100 2.048 1_565 S
Mg91 O103 2.141 1_565 S
C92 O93 1.313 . S
C92 O99 1.195 . S
O93 C92 1.313 . S
C94 O95 1.245 . S
C94 O103 1.289 . S
O95 C94 1.245 . S
C96 O97 1.245 . S
C96 O98 1.289 . S
O97 C96 1.245 . S
O98 Mg91 2.141 1_455 S
O98 C96 1.289 . S
O99 Mg91 2.048 1_455 S
O99 C92 1.195 . S
O100 Mg91 2.048 1_545 S
O100 C101 1.195 . S
C101 O100 1.195 . S
C101 O102 1.313 1_655 S
O102 C101 1.313 1_455 S
O103 Mg91 2.141 1_545 S
O103 C94 1.289 . S
C104 O105 1.160 . S
C104 O111 1.190 . S
O105 C104 1.160 . S
O106 Zn107 1.899 . S
O106 C114 1.284 . S
Zn107 O106 1.899 . S
Zn107 O108 2.032 1_554 S
Zn107 O111 2.117 . S
Zn107 O116 1.977 . S
O108 Zn107 2.032 1_556 S
O108 C112 1.278 . S
C109 O110 1.203 . S
C109 O116 1.267 . S
O110 C109 1.203 . S
O111 C104 1.190 . S
O111 Zn107 2.117 . S
C112 O108 1.278 . S
C112 O113 1.211 . S
O113 C112 1.211 . S
C114 O106 1.284 . S
C114 O115 1.273 . S
O115 C114 1.273 . S
O116 Zn107 1.977 . S
O116 C109 1.267 . S
C117 O118 1.160 . S
C117 O124 1.185 . S
O118 C117 1.160 . S
O119 Zn120 1.899 . S
O119 C127 1.284 . S
Zn120 O119 1.899 . S
Zn120 O121 2.032 . S
Zn120 O124 2.086 . S
Zn120 O129 1.977 . S
O121 Zn120 2.032 . S
O121 C125 1.278 . S
C122 O123 1.203 . S
C122 O129 1.267 . S
O123 C122 1.203 . S
O124 C117 1.185 . S
O124 Zn120 2.086 . S
C125 O121 1.278 . S
C125 O126 1.211 . S
O126 C125 1.211 . S
C127 O119 1.284 . S
C127 O128 1.273 . S
O128 C127 1.273 . S
O129 Zn120 1.977 . S
O129 C122 1.267 . S
C130 O131 1.160 . S
C130 O137 1.185 . S
O131 C130 1.160 . S
O132 Zn133 1.899 . S
O132 C140 1.284 . S
Zn133 O132 1.899 . S
Zn133 O134 2.032 . S
Zn133 O137 2.086 . S
Zn133 O142 1.977 . S
O134 Zn133 2.032 . S
O134 C138 1.278 . S
C135 O136 1.203 . S
C135 O142 1.267 . S
O136 C135 1.203 . S
O137 C130 1.185 . S
O137 Zn133 2.086 . S
C138 O134 1.278 . S
C138 O139 1.211 . S
O139 C138 1.211 . S
C140 O132 1.284 . S
C140 O141 1.273 . S
O141 C140 1.273 . S
O142 Zn133 1.977 . S
O142 C135 1.267 . S
C143 O144 1.160 . S
C143 O150 1.185 . S
O144 C143 1.160 . S
O145 Zn146 1.899 . S
O145 C153 1.284 . S
Zn146 O145 1.899 . S
Zn146 O147 2.032 . S
Zn146 O150 2.086 . S
Zn146 O155 1.977 . S
O147 Zn146 2.032 . S
O147 C151 1.278 . S
C148 O149 1.203 . S
C148 O155 1.267 . S
O149 C148 1.203 . S
O150 C143 1.185 . S
O150 Zn146 2.086 . S
C151 O147 1.278 . S
C151 O152 1.211 . S
O152 C151 1.211 . S
C153 O145 1.284 . S
C153 O154 1.273 . S
O154 C153 1.273 . S
O155 Zn146 1.977 . S
O155 C148 1.267 . S
C156 O157 1.160 . S
C156 O163 1.185 . S
O157 C156 1.160 . S
O158 Zn159 1.899 . S
O158 C166 1.284 . S
Zn159 O158 1.899 . S
Zn159 O160 2.032 . S
Zn159 O163 2.086 . S
Zn159 O168 1.977 . S
O160 Zn159 2.032 . S
O160 C164 1.278 . S
C161 O162 1.203 . S
C161 O168 1.267 . S
O162 C161 1.203 . S
O163 C156 1.185 . S
O163 Zn159 2.086 . S
C164 O160 1.278 . S
C164 O165 1.211 . S
O165 C164 1.211 . S
C166 O158 1.284 . S
C166 O167 1.273 . S
O167 C166 1.273 . S
O168 Zn159 1.977 . S
O168 C161 1.267 . S
C169 O170 1.160 . S
C169 O176 1.185 . S
O170 C169 1.160 . S
O171 Zn172 1.899 . S
O171 C179 1.284 . S
Zn172 O171 1.899 . S
Zn172 O173 2.032 . S
Zn172 O176 2.086 . S
Zn172 O181 1.977 . S
O173 Zn172 2.032 . S
O173 C177 1.278 . S
C174 O175 1.203 . S
C174 O181 1.267 . S
O175 C174 1.203 . S
O176 C169 1.185 . S
O176 Zn172 2.086 . S
C177 O173 1.278 . S
C177 O178 1.211 . S
O178 C177 1.211 . S
C179 O171 1.284 . S
C179 O180 1.273 . S
O180 C179 1.273 . S
O181 Zn172 1.977 . S
O181 C174 1.267 . S
C182 O183 1.160 . S
C182 O189 1.190 . S
O183 C182 1.160 . S
O184 Zn185 1.899 . S
O184 C192 1.284 . S
Zn185 O184 1.899 . S
Zn185 O186 2.032 1_554 S
Zn185 O189 2.117 . S
Zn185 O194 1.977 . S
O186 Zn185 2.032 1_556 S
O186 C190 1.278 . S
C187 O188 1.203 . S
C187 O194 1.267 . S
O188 C187 1.203 . S
O189 C182 1.190 . S
O189 Zn185 2.117 . S
C190 O186 1.278 . S
C190 O191 1.211 . S
O191 C190 1.211 . S
C192 O184 1.284 . S
C192 O193 1.273 . S
O193 C192 1.273 . S
O194 Zn185 1.977 . S
O194 C187 1.267 . S
C195 O196 1.160 . S
C195 O202 1.185 . S
O196 C195 1.160 . S
O197 Zn198 1.899 . S
O197 C205 1.284 . S
Zn198 O197 1.899 . S
Zn198 O199 2.032 . S
Zn198 O202 2.086 . S
Zn198 O207 1.977 . S
O199 Zn198 2.032 . S
O199 C203 1.278 . S
C200 O201 1.203 . S
C200 O207 1.267 . S
O201 C200 1.203 . S
O202 C195 1.185 . S
O202 Zn198 2.086 . S
C203 O199 1.278 . S
C203 O204 1.211 . S
O204 C203 1.211 . S
C205 O197 1.284 . S
C205 O206 1.273 . S
O206 C205 1.273 . S
O207 Zn198 1.977 . S
O207 C200 1.267 . S
H208 C226 0.951 . S
H209 C228 0.951 . S
H210 C230 0.950 . S
H211 C231 0.950 . S
H212 C233 0.950 . S
H213 C236 0.950 . S
H214 C237 0.950 . S
H215 C239 0.950 . S
H216 C240 0.950 . S
H217 C241 0.951 . S
H218 C243 0.951 . S
H219 C245 0.950 . S
H220 C246 0.950 . S
H221 C248 0.950 . S
H222 C251 0.950 . S
H223 C252 0.950 . S
H224 C254 0.950 . S
H225 C255 0.950 . S
C226 H208 0.951 . S
C226 C227 1.366 . S
C226 C228 1.388 . S
C227 C226 1.366 . S
C227 C231 1.385 . S
C228 H209 0.951 . S
C228 C226 1.388 . S
C228 C229 1.366 . S
C229 C228 1.366 . S
C229 C230 1.414 . S
C229 C232 1.499 . S
C230 H210 0.950 . S
C230 C229 1.414 . S
C230 C231 1.374 . S
C231 H211 0.950 . S
C231 C227 1.385 . S
C231 C230 1.374 . S
C232 C229 1.499 . S
C232 C233 1.373 . S
C232 C234 1.389 . S
C233 H212 0.950 . S
C233 C232 1.373 . S
C233 C249 1.377 . S
C234 C232 1.389 . S
C234 C235 1.524 . S
C234 C248 1.377 . S
C235 C234 1.524 . S
C235 C236 1.397 . S
C235 C240 1.363 . S
C236 H213 0.950 . S
C236 C235 1.397 . S
C236 C237 1.334 . S
C237 H214 0.950 . S
C237 C236 1.334 . S
C237 C238 1.287 . S
C238 C237 1.287 . S
C238 C239 1.524 . S
C238 H257 0.913 . S
C239 H215 0.950 . S
C239 C238 1.524 . S
C239 C240 1.415 . S
C240 H216 0.950 . S
C240 C235 1.363 . S
C240 C239 1.415 . S
C241 H217 0.951 . S
C241 C242 1.366 . S
C241 C243 1.388 . S
C242 C241 1.366 . S
C242 C246 1.385 . S
C243 H218 0.951 . S
C243 C241 1.388 . S
C243 C244 1.366 . S
C244 C243 1.366 . S
C244 C245 1.414 . S
C244 C247 1.499 . S
C245 H219 0.950 . S
C245 C244 1.414 . S
C245 C246 1.374 . S
C246 H220 0.950 . S
C246 C242 1.385 . S
C246 C245 1.374 . S
C247 C244 1.499 . S
C247 C248 1.373 . S
C247 C249 1.389 . S
C248 H221 0.950 . S
C248 C234 1.377 . S
C248 C247 1.373 . S
C249 C233 1.377 . S
C249 C247 1.389 . S
C249 C250 1.524 . S
C250 C249 1.524 . S
C250 C251 1.397 . S
C250 C255 1.363 . S
C251 H222 0.950 . S
C251 C250 1.397 . S
C251 C252 1.334 . S
C252 H223 0.950 . S
C252 C251 1.334 . S
C252 C253 1.287 . S
C253 C252 1.287 . S
C253 C254 1.524 . S
C253 H256 0.999 . S
C254 H224 0.950 . S
C254 C253 1.524 . S
C254 C255 1.415 . S
C255 H225 0.950 . S
C255 C250 1.363 . S
C255 C254 1.415 . S
H256 C253 0.999 . S
H257 C238 0.913 . S
H258 C276 0.951 . S
H259 C278 0.951 . S
H260 C280 0.950 . S
H261 C281 0.950 . S
H262 C283 0.950 . S
H263 C286 0.950 . S
H264 C287 0.950 . S
H265 C289 0.950 . S
H266 C290 0.950 . S
H267 C291 0.951 . S
H268 C293 0.951 . S
H269 C295 0.950 . S
H270 C296 0.950 . S
H271 C298 0.950 . S
H272 C301 0.950 . S
H273 C302 0.950 . S
H274 C304 0.950 . S
H275 C305 0.950 . S
C276 H258 0.951 . S
C276 C277 1.366 . S
C276 C278 1.388 . S
C277 C276 1.366 . S
C277 C281 1.385 . S
C278 H259 0.951 . S
C278 C276 1.388 . S
C278 C279 1.366 . S
C279 C278 1.366 . S
C279 C280 1.414 . S
C279 C282 1.499 . S
C280 H260 0.950 . S
C280 C279 1.414 . S
C280 C281 1.374 . S
C281 H261 0.950 . S
C281 C277 1.385 . S
C281 C280 1.374 . S
C282 C279 1.499 . S
C282 C283 1.373 . S
C282 C284 1.389 . S
C283 H262 0.950 . S
C283 C282 1.373 . S
C283 C299 1.377 . S
C284 C282 1.389 . S
C284 C285 1.524 . S
C284 C298 1.377 . S
C285 C284 1.524 . S
C285 C286 1.397 . S
C285 C290 1.363 . S
C286 H263 0.950 . S
C286 C285 1.397 . S
C286 C287 1.334 . S
C287 H264 0.950 . S
C287 C286 1.334 . S
C287 C288 1.287 . S
C288 C287 1.287 . S
C288 C289 1.524 . S
C288 H307 0.913 . S
C289 H265 0.950 . S
C289 C288 1.524 . S
C289 C290 1.415 . S
C290 H266 0.950 . S
C290 C285 1.363 . S
C290 C289 1.415 . S
C291 H267 0.951 . S
C291 C292 1.366 . S
C291 C293 1.388 . S
C292 C291 1.366 . S
C292 C296 1.385 . S
C293 H268 0.951 . S
C293 C291 1.388 . S
C293 C294 1.366 . S
C294 C293 1.366 . S
C294 C295 1.414 . S
C294 C297 1.499 . S
C295 H269 0.950 . S
C295 C294 1.414 . S
C295 C296 1.374 . S
C296 H270 0.950 . S
C296 C292 1.385 . S
C296 C295 1.374 . S
C297 C294 1.499 . S
C297 C298 1.373 . S
C297 C299 1.389 . S
C298 H271 0.950 . S
C298 C284 1.377 . S
C298 C297 1.373 . S
C299 C283 1.377 . S
C299 C297 1.389 . S
C299 C300 1.524 . S
C300 C299 1.524 . S
C300 C301 1.397 . S
C300 C305 1.363 . S
C301 H272 0.950 . S
C301 C300 1.397 . S
C301 C302 1.334 . S
C302 H273 0.950 . S
C302 C301 1.334 . S
C302 C303 1.287 . S
C303 C302 1.287 . S
C303 C304 1.524 . S
C303 H306 0.999 . S
C304 H274 0.950 . S
C304 C303 1.524 . S
C304 C305 1.415 . S
C305 H275 0.950 . S
C305 C300 1.363 . S
C305 C304 1.415 . S
H306 C303 0.999 . S
H307 C288 0.913 . S
H308 C326 0.951 . S
H309 C328 0.951 . S
H310 C330 0.950 . S
H311 C331 0.950 . S
H312 C333 0.950 . S
H313 C336 0.950 . S
H314 C337 0.950 . S
H315 C339 0.950 . S
H316 C340 0.950 . S
H317 C341 0.951 . S
H318 C343 0.951 . S
H319 C345 0.950 . S
H320 C346 0.950 . S
H321 C348 0.950 . S
H322 C351 0.950 . S
H323 C352 0.950 . S
H324 C354 0.950 . S
H325 C355 0.950 . S
C326 H308 0.951 . S
C326 C327 1.366 . S
C326 C328 1.388 . S
C327 C326 1.366 . S
C327 C331 1.385 . S
C328 H309 0.951 . S
C328 C326 1.388 . S
C328 C329 1.366 . S
C329 C328 1.366 . S
C329 C330 1.414 . S
C329 C332 1.499 . S
C330 H310 0.950 . S
C330 C329 1.414 . S
C330 C331 1.374 . S
C331 H311 0.950 . S
C331 C327 1.385 . S
C331 C330 1.374 . S
C332 C329 1.499 . S
C332 C333 1.373 . S
C332 C334 1.389 . S
C333 H312 0.950 . S
C333 C332 1.373 . S
C333 C349 1.377 . S
C334 C332 1.389 . S
C334 C335 1.524 . S
C334 C348 1.377 . S
C335 C334 1.524 . S
C335 C336 1.397 . S
C335 C340 1.363 . S
C336 H313 0.950 . S
C336 C335 1.397 . S
C336 C337 1.334 . S
C337 H314 0.950 . S
C337 C336 1.334 . S
C337 C338 1.287 . S
C338 C337 1.287 . S
C338 C339 1.524 . S
C338 H357 0.913 . S
C339 H315 0.950 . S
C339 C338 1.524 . S
C339 C340 1.415 . S
C340 H316 0.950 . S
C340 C335 1.363 . S
C340 C339 1.415 . S
C341 H317 0.951 . S
C341 C342 1.366 . S
C341 C343 1.388 . S
C342 C341 1.366 . S
C342 C346 1.385 . S
C343 H318 0.951 . S
C343 C341 1.388 . S
C343 C344 1.366 . S
C344 C343 1.366 . S
C344 C345 1.414 . S
C344 C347 1.499 . S
C345 H319 0.950 . S
C345 C344 1.414 . S
C345 C346 1.374 . S
C346 H320 0.950 . S
C346 C342 1.385 . S
C346 C345 1.374 . S
C347 C344 1.499 . S
C347 C348 1.373 . S
C347 C349 1.389 . S
C348 H321 0.950 . S
C348 C334 1.377 . S
C348 C347 1.373 . S
C349 C333 1.377 . S
C349 C347 1.389 . S
C349 C350 1.524 . S
C350 C349 1.524 . S
C350 C351 1.397 . S
C350 C355 1.363 . S
C351 H322 0.950 . S
C351 C350 1.397 . S
C351 C352 1.334 . S
C352 H323 0.950 . S
C352 C351 1.334 . S
C352 C353 1.287 . S
C353 C352 1.287 . S
C353 C354 1.524 . S
C353 H356 0.999 . S
C354 H324 0.950 . S
C354 C353 1.524 . S
C354 C355 1.415 . S
C355 H325 0.950 . S
C355 C350 1.363 . S
C355 C354 1.415 . S
H356 C353 0.999 . S
H357 C338 0.913 . S
H358 C376 0.951 . S
H359 C378 0.951 . S
H360 C380 0.950 . S
H361 C381 0.950 . S
H362 C383 0.950 . S
H363 C386 0.950 . S
H364 C387 0.950 . S
H365 C389 0.950 . S
H366 C390 0.950 . S
H367 C391 0.951 . S
H368 C393 0.951 . S
H369 C395 0.950 . S
H370 C396 0.950 . S
H371 C398 0.950 . S
H372 C401 0.950 . S
H373 C402 0.950 . S
H374 C404 0.950 . S
H375 C405 0.950 . S
C376 H358 0.951 . S
C376 C377 1.366 . S
C376 C378 1.388 . S
C377 C376 1.366 . S
C377 C381 1.385 . S
C378 H359 0.951 . S
C378 C376 1.388 . S
C378 C379 1.366 . S
C379 C378 1.366 . S
C379 C380 1.414 . S
C379 C382 1.499 . S
C380 H360 0.950 . S
C380 C379 1.414 . S
C380 C381 1.374 . S
C381 H361 0.950 . S
C381 C377 1.385 . S
C381 C380 1.374 . S
C382 C379 1.499 . S
C382 C383 1.373 . S
C382 C384 1.389 . S
C383 H362 0.950 . S
C383 C382 1.373 . S
C383 C399 1.377 . S
C384 C382 1.389 . S
C384 C385 1.524 . S
C384 C398 1.377 . S
C385 C384 1.524 . S
C385 C386 1.397 . S
C385 C390 1.363 . S
C386 H363 0.950 . S
C386 C385 1.397 . S
C386 C387 1.334 . S
C387 H364 0.950 . S
C387 C386 1.334 . S
C387 C388 1.287 . S
C388 C387 1.287 . S
C388 C389 1.524 . S
C388 H407 0.913 . S
C389 H365 0.950 . S
C389 C388 1.524 . S
C389 C390 1.415 . S
C390 H366 0.950 . S
C390 C385 1.363 . S
C390 C389 1.415 . S
C391 H367 0.951 . S
C391 C392 1.366 . S
C391 C393 1.388 . S
C392 C391 1.366 . S
C392 C396 1.385 . S
C393 H368 0.951 . S
C393 C391 1.388 . S
C393 C394 1.366 . S
C394 C393 1.366 . S
C394 C395 1.414 . S
C394 C397 1.499 . S
C395 H369 0.950 . S
C395 C394 1.414 . S
C395 C396 1.374 . S
C396 H370 0.950 . S
C396 C392 1.385 . S
C396 C395 1.374 . S
C397 C394 1.499 . S
C397 C398 1.373 . S
C397 C399 1.389 . S
C398 H371 0.950 . S
C398 C384 1.377 . S
C398 C397 1.373 . S
C399 C383 1.377 . S
C399 C397 1.389 . S
C399 C400 1.524 . S
C400 C399 1.524 . S
C400 C401 1.397 . S
C400 C405 1.363 . S
C401 H372 0.950 . S
C401 C400 1.397 . S
C401 C402 1.334 . S
C402 H373 0.950 . S
C402 C401 1.334 . S
C402 C403 1.287 . S
C403 C402 1.287 . S
C403 C404 1.524 . S
C403 H406 0.999 . S
C404 H374 0.950 . S
C404 C403 1.524 . S
C404 C405 1.415 . S
C405 H375 0.950 . S
C405 C400 1.363 . S
C405 C404 1.415 . S
H406 C403 0.999 . S
H407 C388 0.913 . S
H408 C426 0.951 . S
H409 C428 0.951 . S
H410 C430 0.950 . S
H411 C431 0.950 . S
H412 C433 0.950 . S
H413 C436 0.950 . S
H414 C437 0.950 . S
H415 C439 0.950 . S
H416 C440 0.950 . S
H417 C441 0.951 . S
H418 C443 0.951 . S
H419 C445 0.950 . S
H420 C446 0.950 . S
H421 C448 0.950 . S
H422 C451 0.950 . S
H423 C452 0.950 . S
H424 C454 0.950 . S
H425 C455 0.950 . S
C426 H408 0.951 . S
C426 C427 1.366 . S
C426 C428 1.388 . S
C427 C426 1.366 . S
C427 C431 1.385 . S
C428 H409 0.951 . S
C428 C426 1.388 . S
C428 C429 1.366 . S
C429 C428 1.366 . S
C429 C430 1.414 . S
C429 C432 1.499 . S
C430 H410 0.950 . S
C430 C429 1.414 . S
C430 C431 1.374 . S
C431 H411 0.950 . S
C431 C427 1.385 . S
C431 C430 1.374 . S
C432 C429 1.499 . S
C432 C433 1.373 . S
C432 C434 1.389 . S
C433 H412 0.950 . S
C433 C432 1.373 . S
C433 C449 1.377 . S
C434 C432 1.389 . S
C434 C435 1.524 . S
C434 C448 1.377 . S
C435 C434 1.524 . S
C435 C436 1.397 . S
C435 C440 1.363 . S
C436 H413 0.950 . S
C436 C435 1.397 . S
C436 C437 1.334 . S
C437 H414 0.950 . S
C437 C436 1.334 . S
C437 C438 1.287 . S
C438 C437 1.287 . S
C438 C439 1.524 . S
C438 H457 0.913 . S
C439 H415 0.950 . S
C439 C438 1.524 . S
C439 C440 1.415 . S
C440 H416 0.950 . S
C440 C435 1.363 . S
C440 C439 1.415 . S
C441 H417 0.951 . S
C441 C442 1.366 1_554 S
C441 C443 1.388 1_554 S
C442 C441 1.366 1_556 S
C442 C446 1.385 . S
C443 H418 0.951 . S
C443 C441 1.388 1_556 S
C443 C444 1.366 . S
C444 C443 1.366 . S
C444 C445 1.414 . S
C444 C447 1.499 . S
C445 H419 0.950 . S
C445 C444 1.414 . S
C445 C446 1.374 . S
C446 H420 0.950 . S
C446 C442 1.385 . S
C446 C445 1.374 . S
C447 C444 1.499 . S
C447 C448 1.373 . S
C447 C449 1.389 . S
C448 H421 0.950 . S
C448 C434 1.377 . S
C448 C447 1.373 . S
C449 C433 1.377 . S
C449 C447 1.389 . S
C449 C450 1.524 . S
C450 C449 1.524 . S
C450 C451 1.397 . S
C450 C455 1.363 . S
C451 H422 0.950 . S
C451 C450 1.397 . S
C451 C452 1.334 . S
C452 H423 0.950 . S
C452 C451 1.334 . S
C452 C453 1.287 . S
C453 C452 1.287 . S
C453 C454 1.524 . S
C453 H456 0.999 . S
C454 H424 0.950 . S
C454 C453 1.524 . S
C454 C455 1.415 . S
C455 H425 0.950 . S
C455 C450 1.363 . S
C455 C454 1.415 . S
H456 C453 0.999 . S
H457 C438 0.913 . S
H458 C476 0.951 . S
H459 C478 0.951 . S
H460 C480 0.950 . S
H461 C481 0.950 . S
H462 C483 0.950 . S
H463 C486 0.950 . S
H464 C487 0.950 . S
H465 C489 0.950 . S
H466 C490 0.950 . S
H467 C491 0.951 . S
H468 C493 0.951 . S
H469 C495 0.950 . S
H470 C496 0.950 . S
H471 C498 0.950 . S
H472 C501 0.950 . S
H473 C502 0.950 . S
H474 C504 0.950 . S
H475 C505 0.950 . S
C476 H458 0.951 . S
C476 C477 1.366 . S
C476 C478 1.388 . S
C477 C476 1.366 . S
C477 C481 1.385 . S
C478 H459 0.951 . S
C478 C476 1.388 . S
C478 C479 1.366 . S
C479 C478 1.366 . S
C479 C480 1.414 . S
C479 C482 1.499 . S
C480 H460 0.950 . S
C480 C479 1.414 . S
C480 C481 1.374 . S
C481 H461 0.950 . S
C481 C477 1.385 . S
C481 C480 1.374 . S
C482 C479 1.499 . S
C482 C483 1.373 . S
C482 C484 1.389 . S
C483 H462 0.950 . S
C483 C482 1.373 . S
C483 C499 1.377 . S
C484 C482 1.389 . S
C484 C485 1.524 . S
C484 C498 1.377 . S
C485 C484 1.524 . S
C485 C486 1.397 . S
C485 C490 1.363 . S
C486 H463 0.950 . S
C486 C485 1.397 . S
C486 C487 1.334 . S
C487 H464 0.950 . S
C487 C486 1.334 . S
C487 C488 1.287 . S
C488 C487 1.287 . S
C488 C489 1.524 . S
C488 H507 0.913 . S
C489 H465 0.950 . S
C489 C488 1.524 . S
C489 C490 1.415 . S
C490 H466 0.950 . S
C490 C485 1.363 . S
C490 C489 1.415 . S
C491 H467 0.951 . S
C491 C492 1.366 . S
C491 C493 1.388 . S
C492 C491 1.366 . S
C492 C496 1.385 . S
C493 H468 0.951 . S
C493 C491 1.388 . S
C493 C494 1.366 . S
C494 C493 1.366 . S
C494 C495 1.414 . S
C494 C497 1.499 . S
C495 H469 0.950 . S
C495 C494 1.414 . S
C495 C496 1.374 . S
C496 H470 0.950 . S
C496 C492 1.385 . S
C496 C495 1.374 . S
C497 C494 1.499 . S
C497 C498 1.373 . S
C497 C499 1.389 . S
C498 H471 0.950 . S
C498 C484 1.377 . S
C498 C497 1.373 . S
C499 C483 1.377 . S
C499 C497 1.389 . S
C499 C500 1.524 . S
C500 C499 1.524 . S
C500 C501 1.397 . S
C500 C505 1.363 . S
C501 H472 0.950 . S
C501 C500 1.397 . S
C501 C502 1.334 . S
C502 H473 0.950 . S
C502 C501 1.334 . S
C502 C503 1.287 . S
C503 C502 1.287 . S
C503 C504 1.524 . S
C503 H506 0.999 . S
C504 H474 0.950 . S
C504 C503 1.524 . S
C504 C505 1.415 . S
C505 H475 0.950 . S
C505 C500 1.363 . S
C505 C504 1.415 . S
H506 C503 0.999 . S
H507 C488 0.913 . S
H508 C526 0.951 . S
H509 C528 0.951 . S
H510 C530 0.950 . S
H511 C531 0.950 . S
H512 C533 0.950 . S
H513 C536 0.950 . S
H514 C537 0.950 . S
H515 C539 0.950 . S
H516 C540 0.950 . S
H517 C541 0.951 . S
H518 C543 0.951 . S
H519 C545 0.950 . S
H520 C546 0.950 . S
H521 C548 0.950 . S
H522 C551 0.950 . S
H523 C552 0.950 . S
H524 C554 0.950 . S
H525 C555 0.950 . S
C526 H508 0.951 . S
C526 C527 1.366 . S
C526 C528 1.388 . S
C527 C526 1.366 . S
C527 C531 1.385 . S
C528 H509 0.951 . S
C528 C526 1.388 . S
C528 C529 1.366 . S
C529 C528 1.366 . S
C529 C530 1.414 . S
C529 C532 1.499 . S
C530 H510 0.950 . S
C530 C529 1.414 . S
C530 C531 1.374 . S
C531 H511 0.950 . S
C531 C527 1.385 . S
C531 C530 1.374 . S
C532 C529 1.499 . S
C532 C533 1.373 . S
C532 C534 1.389 . S
C533 H512 0.950 . S
C533 C532 1.373 . S
C533 C549 1.377 . S
C534 C532 1.389 . S
C534 C535 1.524 . S
C534 C548 1.377 . S
C535 C534 1.524 . S
C535 C536 1.397 . S
C535 C540 1.363 . S
C536 H513 0.950 . S
C536 C535 1.397 . S
C536 C537 1.334 1_565 S
C537 H514 0.950 . S
C537 C536 1.334 1_545 S
C537 C538 1.287 . S
C538 C537 1.287 . S
C538 C539 1.524 . S
C538 H557 0.913 . S
C539 H515 0.950 . S
C539 C538 1.524 . S
C539 C540 1.415 1_545 S
C540 H516 0.950 . S
C540 C535 1.363 . S
C540 C539 1.415 1_565 S
C541 H517 0.951 . S
C541 C542 1.366 . S
C541 C543 1.388 . S
C542 C541 1.366 . S
C542 C546 1.385 . S
C543 H518 0.951 . S
C543 C541 1.388 . S
C543 C544 1.366 . S
C544 C543 1.366 . S
C544 C545 1.414 . S
C544 C547 1.499 . S
C545 H519 0.950 . S
C545 C544 1.414 . S
C545 C546 1.374 . S
C546 H520 0.950 . S
C546 C542 1.385 . S
C546 C545 1.374 . S
C547 C544 1.499 . S
C547 C548 1.373 . S
C547 C549 1.389 . S
C548 H521 0.950 . S
C548 C534 1.377 . S
C548 C547 1.373 . S
C549 C533 1.377 . S
C549 C547 1.389 . S
C549 C550 1.524 . S
C550 C549 1.524 . S
C550 C551 1.397 . S
C550 C555 1.363 . S
C551 H522 0.950 . S
C551 C550 1.397 . S
C551 C552 1.334 . S
C552 H523 0.950 . S
C552 C551 1.334 . S
C552 C553 1.287 . S
C553 C552 1.287 . S
C553 C554 1.524 . S
C553 H556 0.999 . S
C554 H524 0.950 . S
C554 C553 1.524 . S
C554 C555 1.415 . S
C555 H525 0.950 . S
C555 C550 1.363 . S
C555 C554 1.415 . S
H556 C553 0.999 . S
H557 C538 0.913 . S
H558 C576 0.951 . S
H559 C578 0.951 . S
H560 C580 0.950 . S
H561 C581 0.950 . S
H562 C583 0.950 . S
H563 C586 0.950 . S
H564 C587 0.950 . S
H565 C589 0.935 1_655 S
H566 C590 0.950 . S
H567 C591 0.951 . S
H568 C593 0.951 . S
H569 C595 0.950 . S
H570 C596 0.950 . S
H571 C598 0.950 . S
H572 C601 0.950 . S
H573 C602 0.950 . S
H574 C604 0.950 . S
H575 C605 0.950 . S
C576 H558 0.951 . S
C576 C577 1.366 . S
C576 C578 1.388 . S
C577 C576 1.366 . S
C577 C581 1.385 . S
C578 H559 0.951 . S
C578 C576 1.388 . S
C578 C579 1.366 . S
C579 C578 1.366 . S
C579 C580 1.414 . S
C579 C582 1.499 . S
C580 H560 0.950 . S
C580 C579 1.414 . S
C580 C581 1.374 . S
C581 H561 0.950 . S
C581 C577 1.385 . S
C581 C580 1.374 . S
C582 C579 1.499 . S
C582 C583 1.373 . S
C582 C584 1.389 . S
C583 H562 0.950 . S
C583 C582 1.373 . S
C583 C599 1.377 . S
C584 C582 1.389 . S
C584 C585 1.524 . S
C584 C598 1.377 . S
C585 C584 1.524 . S
C585 C586 1.397 . S
C585 C590 1.363 . S
C586 H563 0.950 . S
C586 C585 1.397 . S
C586 C587 1.334 . S
C587 H564 0.950 . S
C587 C586 1.334 . S
C587 C588 1.287 1_455 S
C588 C587 1.287 1_655 S
C588 C589 1.524 1_655 S
C588 H607 0.913 . S
C589 H565 0.935 1_455 S
C589 C588 1.524 1_455 S
C589 C590 1.432 . S
C590 H566 0.950 . S
C590 C585 1.363 . S
C590 C589 1.432 . S
C591 H567 0.951 . S
C591 C592 1.366 . S
C591 C593 1.388 . S
C592 C591 1.366 . S
C592 C596 1.385 . S
C593 H568 0.951 . S
C593 C591 1.388 . S
C593 C594 1.366 . S
C594 C593 1.366 . S
C594 C595 1.414 . S
C594 C597 1.499 . S
C595 H569 0.950 . S
C595 C594 1.414 . S
C595 C596 1.374 . S
C596 H570 0.950 . S
C596 C592 1.385 . S
C596 C595 1.374 . S
C597 C594 1.499 . S
C597 C598 1.373 . S
C597 C599 1.389 . S
C598 H571 0.950 . S
C598 C584 1.377 . S
C598 C597 1.373 . S
C599 C583 1.377 . S
C599 C597 1.389 . S
C599 C600 1.524 . S
C600 C599 1.524 . S
C600 C601 1.397 . S
C600 C605 1.363 . S
C601 H572 0.950 . S
C601 C600 1.397 . S
C601 C602 1.334 . S
C602 H573 0.950 . S
C602 C601 1.334 . S
C602 C603 1.287 . S
C603 C602 1.287 . S
C603 C604 1.524 . S
C603 H606 0.999 . S
C604 H574 0.950 . S
C604 C603 1.524 . S
C604 C605 1.415 . S
C605 H575 0.950 . S
C605 C600 1.363 . S
C605 C604 1.415 . S
H606 C603 0.999 . S
H607 C588 0.913 . S
H608 C626 0.951 . S
H609 C628 0.951 . S
H610 C630 0.950 . S
H611 C631 0.950 . S
H612 C633 0.950 . S
H613 C636 0.950 . S
H614 C637 0.950 . S
H615 C639 0.950 . S
H616 C640 0.950 . S
H617 C641 0.951 . S
H618 C643 0.951 . S
H619 C645 0.950 . S
H620 C646 0.950 . S
H621 C648 0.950 . S
H622 C651 0.950 . S
H623 C652 0.950 . S
H624 C654 0.950 . S
H625 C655 0.950 . S
C626 H608 0.951 . S
C626 C627 1.366 . S
C626 C628 1.388 . S
C627 C626 1.366 . S
C627 C631 1.385 . S
C628 H609 0.951 . S
C628 C626 1.388 . S
C628 C629 1.366 . S
C629 C628 1.366 . S
C629 C630 1.414 . S
C629 C632 1.499 . S
C630 H610 0.950 . S
C630 C629 1.414 . S
C630 C631 1.374 . S
C631 H611 0.950 . S
C631 C627 1.385 . S
C631 C630 1.374 . S
C632 C629 1.499 . S
C632 C633 1.373 . S
C632 C634 1.389 . S
C633 H612 0.950 . S
C633 C632 1.373 . S
C633 C649 1.377 . S
C634 C632 1.389 . S
C634 C635 1.524 . S
C634 C648 1.377 . S
C635 C634 1.524 . S
C635 C636 1.397 . S
C635 C640 1.363 . S
C636 H613 0.950 . S
C636 C635 1.397 . S
C636 C637 1.334 . S
C637 H614 0.950 . S
C637 C636 1.334 . S
C637 C638 1.287 . S
C638 C637 1.287 . S
C638 C639 1.524 . S
C638 H657 0.913 . S
C639 H615 0.950 . S
C639 C638 1.524 . S
C639 C640 1.415 . S
C640 H616 0.950 . S
C640 C635 1.363 . S
C640 C639 1.415 . S
C641 H617 0.951 . S
C641 C642 1.366 . S
C641 C643 1.388 . S
C642 C641 1.366 . S
C642 C646 1.385 . S
C643 H618 0.951 . S
C643 C641 1.388 . S
C643 C644 1.366 . S
C644 C643 1.366 . S
C644 C645 1.414 . S
C644 C647 1.499 . S
C645 H619 0.950 . S
C645 C644 1.414 . S
C645 C646 1.374 . S
C646 H620 0.950 . S
C646 C642 1.385 . S
C646 C645 1.374 . S
C647 C644 1.499 . S
C647 C648 1.373 . S
C647 C649 1.389 . S
C648 H621 0.950 . S
C648 C634 1.377 . S
C648 C647 1.373 . S
C649 C633 1.377 . S
C649 C647 1.389 . S
C649 C650 1.524 . S
C650 C649 1.524 . S
C650 C651 1.397 . S
C650 C655 1.363 . S
C651 H622 0.950 . S
C651 C650 1.397 . S
C651 C652 1.334 . S
C652 H623 0.950 . S
C652 C651 1.334 . S
C652 C653 1.287 . S
C653 C652 1.287 . S
C653 C654 1.524 . S
C653 H656 0.999 . S
C654 H624 0.950 . S
C654 C653 1.524 . S
C654 C655 1.415 . S
C655 H625 0.950 . S
C655 C650 1.363 . S
C655 C654 1.415 . S
H656 C653 0.999 . S
H657 C638 0.913 . S
H658 C676 0.951 . S
H659 C678 0.951 . S
H660 C680 0.950 . S
H661 C681 0.950 . S
H662 C683 0.950 . S
H663 C686 0.950 . S
H664 C687 0.950 . S
H665 C689 0.950 . S
H666 C690 0.950 . S
H667 C691 0.951 . S
H668 C693 0.951 . S
H669 C695 0.950 . S
H670 C696 0.950 . S
H671 C698 0.950 . S
H672 C701 0.950 . S
H673 C702 0.950 . S
H674 C704 0.950 . S
H675 C705 0.950 . S
C676 H658 0.951 . S
C676 C677 1.366 . S
C676 C678 1.388 . S
C677 C676 1.366 . S
C677 C681 1.385 . S
C678 H659 0.951 . S
C678 C676 1.388 . S
C678 C679 1.366 . S
C679 C678 1.366 . S
C679 C680 1.414 . S
C679 C682 1.499 . S
C680 H660 0.950 . S
C680 C679 1.414 . S
C680 C681 1.374 . S
C681 H661 0.950 . S
C681 C677 1.385 . S
C681 C680 1.374 . S
C682 C679 1.499 . S
C682 C683 1.373 . S
C682 C684 1.389 . S
C683 H662 0.950 . S
C683 C682 1.373 . S
C683 C699 1.377 . S
C684 C682 1.389 . S
C684 C685 1.524 . S
C684 C698 1.377 . S
C685 C684 1.524 . S
C685 C686 1.397 . S
C685 C690 1.363 . S
C686 H663 0.950 . S
C686 C685 1.397 . S
C686 C687 1.334 . S
C687 H664 0.950 . S
C687 C686 1.334 . S
C687 C688 1.287 . S
C688 C687 1.287 . S
C688 C689 1.524 . S
C688 H707 0.913 . S
C689 H665 0.950 . S
C689 C688 1.524 . S
C689 C690 1.415 . S
C690 H666 0.950 . S
C690 C685 1.363 . S
C690 C689 1.415 . S
C691 H667 0.951 . S
C691 C692 1.366 . S
C691 C693 1.388 . S
C692 C691 1.366 . S
C692 C696 1.385 . S
C693 H668 0.951 . S
C693 C691 1.388 . S
C693 C694 1.366 . S
C694 C693 1.366 . S
C694 C695 1.414 . S
C694 C697 1.499 . S
C695 H669 0.950 . S
C695 C694 1.414 . S
C695 C696 1.374 . S
C696 H670 0.950 . S
C696 C692 1.385 . S
C696 C695 1.374 . S
C697 C694 1.499 . S
C697 C698 1.373 . S
C697 C699 1.389 . S
C698 H671 0.950 . S
C698 C684 1.377 . S
C698 C697 1.373 . S
C699 C683 1.377 . S
C699 C697 1.389 . S
C699 C700 1.524 . S
C700 C699 1.524 . S
C700 C701 1.397 . S
C700 C705 1.363 . S
C701 H672 0.950 . S
C701 C700 1.397 . S
C701 C702 1.334 . S
C702 H673 0.950 . S
C702 C701 1.334 . S
C702 C703 1.287 . S
C703 C702 1.287 . S
C703 C704 1.524 . S
C703 H706 0.999 . S
C704 H674 0.950 . S
C704 C703 1.524 . S
C704 C705 1.415 . S
C705 H675 0.950 . S
C705 C700 1.363 . S
C705 C704 1.415 . S
H706 C703 0.999 . S
H707 C688 0.913 . S
H708 C726 0.951 . S
H709 C728 0.951 . S
H710 C730 0.950 . S
H711 C731 0.950 . S
H712 C733 0.950 . S
H713 C736 0.950 . S
H714 C737 0.950 . S
H715 C739 0.950 . S
H716 C740 0.950 . S
H717 C741 0.951 . S
H718 C743 0.951 . S
H719 C745 0.950 . S
H720 C746 0.950 . S
H721 C748 0.950 . S
H722 C751 0.950 . S
H723 C752 0.950 . S
H724 C754 0.950 . S
H725 C755 0.950 . S
C726 H708 0.951 . S
C726 C727 1.366 . S
C726 C728 1.388 . S
C727 C726 1.366 . S
C727 C731 1.385 . S
C728 H709 0.951 . S
C728 C726 1.388 . S
C728 C729 1.366 . S
C729 C728 1.366 . S
C729 C730 1.414 . S
C729 C732 1.499 . S
C730 H710 0.950 . S
C730 C729 1.414 . S
C730 C731 1.374 . S
C731 H711 0.950 . S
C731 C727 1.385 . S
C731 C730 1.374 . S
C732 C729 1.499 . S
C732 C733 1.373 . S
C732 C734 1.389 . S
C733 H712 0.950 . S
C733 C732 1.373 . S
C733 C749 1.377 . S
C734 C732 1.389 . S
C734 C735 1.524 . S
C734 C748 1.377 . S
C735 C734 1.524 . S
C735 C736 1.397 . S
C735 C740 1.363 . S
C736 H713 0.950 . S
C736 C735 1.397 . S
C736 C737 1.334 . S
C737 H714 0.950 . S
C737 C736 1.334 . S
C737 C738 1.287 . S
C738 C737 1.287 . S
C738 C739 1.524 . S
C738 H757 0.913 . S
C739 H715 0.950 . S
C739 C738 1.524 . S
C739 C740 1.415 . S
C740 H716 0.950 . S
C740 C735 1.363 . S
C740 C739 1.415 . S
C741 H717 0.951 . S
C741 C742 1.366 . S
C741 C743 1.388 . S
C742 C741 1.366 . S
C742 C746 1.385 . S
C743 H718 0.951 . S
C743 C741 1.388 . S
C743 C744 1.366 . S
C744 C743 1.366 . S
C744 C745 1.414 . S
C744 C747 1.499 . S
C745 H719 0.950 . S
C745 C744 1.414 . S
C745 C746 1.374 . S
C746 H720 0.950 . S
C746 C742 1.385 . S
C746 C745 1.374 . S
C747 C744 1.499 . S
C747 C748 1.373 . S
C747 C749 1.389 . S
C748 H721 0.950 . S
C748 C734 1.377 . S
C748 C747 1.373 . S
C749 C733 1.377 . S
C749 C747 1.389 . S
C749 C750 1.524 . S
C750 C749 1.524 . S
C750 C751 1.397 . S
C750 C755 1.363 . S
C751 H722 0.950 . S
C751 C750 1.397 . S
C751 C752 1.334 . S
C752 H723 0.950 . S
C752 C751 1.334 . S
C752 C753 1.287 . S
C753 C752 1.287 . S
C753 C754 1.524 . S
C753 H756 0.999 . S
C754 H724 0.950 . S
C754 C753 1.524 . S
C754 C755 1.415 . S
C755 H725 0.950 . S
C755 C750 1.363 . S
C755 C754 1.415 . S
H756 C753 0.999 . S
H757 C738 0.913 . S
H758 C776 0.951 . S
H759 C778 0.951 . S
H760 C780 0.950 . S
H761 C781 0.950 . S
H762 C783 0.950 . S
H763 C786 0.950 . S
H764 C787 0.950 . S
H765 C789 0.950 . S
H766 C790 0.950 . S
H767 C791 0.951 . S
H768 C793 0.951 . S
H769 C795 0.950 . S
H770 C796 0.950 . S
H771 C798 0.950 . S
H772 C801 0.950 . S
H773 C802 0.950 . S
H774 C804 0.950 . S
H775 C805 0.950 . S
C776 H758 0.951 . S
C776 C777 1.366 . S
C776 C778 1.388 . S
C777 C776 1.366 . S
C777 C781 1.385 . S
C778 H759 0.951 . S
C778 C776 1.388 . S
C778 C779 1.366 . S
C779 C778 1.366 . S
C779 C780 1.414 . S
C779 C782 1.499 . S
C780 H760 0.950 . S
C780 C779 1.414 . S
C780 C781 1.374 . S
C781 H761 0.950 . S
C781 C777 1.385 . S
C781 C780 1.374 . S
C782 C779 1.499 . S
C782 C783 1.373 . S
C782 C784 1.389 . S
C783 H762 0.950 . S
C783 C782 1.373 . S
C783 C799 1.377 . S
C784 C782 1.389 . S
C784 C785 1.524 . S
C784 C798 1.377 . S
C785 C784 1.524 . S
C785 C786 1.397 . S
C785 C790 1.363 . S
C786 H763 0.950 . S
C786 C785 1.397 . S
C786 C787 1.334 . S
C787 H764 0.950 . S
C787 C786 1.334 . S
C787 C788 1.287 . S
C788 C787 1.287 . S
C788 C789 1.524 . S
C788 H807 0.913 . S
C789 H765 0.950 . S
C789 C788 1.524 . S
C789 C790 1.415 . S
C790 H766 0.950 . S
C790 C785 1.363 . S
C790 C789 1.415 . S
C791 H767 0.951 . S
C791 C792 1.366 . S
C791 C793 1.388 . S
C792 C791 1.366 . S
C792 C796 1.385 . S
C793 H768 0.951 . S
C793 C791 1.388 . S
C793 C794 1.366 . S
C794 C793 1.366 . S
C794 C795 1.414 . S
C794 C797 1.499 . S
C795 H769 0.950 . S
C795 C794 1.414 . S
C795 C796 1.374 . S
C796 H770 0.950 . S
C796 C792 1.385 . S
C796 C795 1.374 . S
C797 C794 1.499 . S
C797 C798 1.373 . S
C797 C799 1.389 . S
C798 H771 0.950 . S
C798 C784 1.377 . S
C798 C797 1.373 . S
C799 C783 1.377 . S
C799 C797 1.389 . S
C799 C800 1.524 . S
C800 C799 1.524 . S
C800 C801 1.397 . S
C800 C805 1.363 . S
C801 H772 0.950 . S
C801 C800 1.397 . S
C801 C802 1.334 . S
C802 H773 0.950 . S
C802 C801 1.334 . S
C802 C803 1.287 . S
C803 C802 1.287 . S
C803 C804 1.524 . S
C803 H806 0.999 . S
C804 H774 0.950 . S
C804 C803 1.524 . S
C804 C805 1.415 . S
C805 H775 0.950 . S
C805 C800 1.363 . S
C805 C804 1.415 . S
H806 C803 0.999 . S
H807 C788 0.913 . S
H808 C826 0.951 . S
H809 C828 0.951 . S
H810 C830 0.950 . S
H811 C831 0.950 . S
H812 C833 0.950 . S
H813 C836 0.950 . S
H814 C837 0.950 . S
H815 C839 0.950 . S
H816 C840 0.950 . S
H817 C841 0.951 . S
H818 C843 0.951 . S
H819 C845 0.950 . S
H820 C846 0.950 . S
H821 C848 0.950 . S
H822 C851 0.950 . S
H823 C852 0.950 . S
H824 C854 0.950 . S
H825 C855 0.950 . S
C826 H808 0.951 . S
C826 C827 1.366 . S
C826 C828 1.388 . S
C827 C826 1.366 . S
C827 C831 1.385 . S
C828 H809 0.951 . S
C828 C826 1.388 . S
C828 C829 1.366 . S
C829 C828 1.366 . S
C829 C830 1.414 . S
C829 C832 1.499 . S
C830 H810 0.950 . S
C830 C829 1.414 . S
C830 C831 1.374 . S
C831 H811 0.950 . S
C831 C827 1.385 . S
C831 C830 1.374 . S
C832 C829 1.499 . S
C832 C833 1.373 . S
C832 C834 1.389 . S
C833 H812 0.950 . S
C833 C832 1.373 . S
C833 C849 1.377 . S
C834 C832 1.389 . S
C834 C835 1.524 . S
C834 C848 1.377 . S
C835 C834 1.524 . S
C835 C836 1.397 . S
C835 C840 1.363 . S
C836 H813 0.950 . S
C836 C835 1.397 . S
C836 C837 1.334 1_545 S
C837 H814 0.950 . S
C837 C836 1.334 1_565 S
C837 C838 1.287 . S
C838 C837 1.287 . S
C838 C839 1.524 1_565 S
C838 H857 0.913 . S
C839 H815 0.950 . S
C839 C838 1.524 1_545 S
C839 C840 1.415 . S
C840 H816 0.950 . S
C840 C835 1.363 . S
C840 C839 1.415 . S
C841 H817 0.951 . S
C841 C842 1.366 . S
C841 C843 1.388 . S
C842 C841 1.366 . S
C842 C846 1.385 . S
C843 H818 0.951 . S
C843 C841 1.388 . S
C843 C844 1.366 . S
C844 C843 1.366 . S
C844 C845 1.414 . S
C844 C847 1.499 . S
C845 H819 0.950 . S
C845 C844 1.414 . S
C845 C846 1.374 . S
C846 H820 0.950 . S
C846 C842 1.385 . S
C846 C845 1.374 . S
C847 C844 1.499 . S
C847 C848 1.373 . S
C847 C849 1.389 . S
C848 H821 0.950 . S
C848 C834 1.377 . S
C848 C847 1.373 . S
C849 C833 1.377 . S
C849 C847 1.389 . S
C849 C850 1.524 . S
C850 C849 1.524 . S
C850 C851 1.397 . S
C850 C855 1.363 . S
C851 H822 0.950 . S
C851 C850 1.397 . S
C851 C852 1.334 . S
C852 H823 0.950 . S
C852 C851 1.334 . S
C852 C853 1.287 . S
C853 C852 1.287 . S
C853 C854 1.524 . S
C853 H856 0.999 . S
C854 H824 0.950 . S
C854 C853 1.524 . S
C854 C855 1.415 . S
C855 H825 0.950 . S
C855 C850 1.363 . S
C855 C854 1.415 . S
H856 C853 0.999 . S
H857 C838 0.913 . S
H858 C876 0.951 . S
H859 C878 0.951 . S
H860 C880 0.950 . S
H861 C881 0.950 . S
H862 C883 0.950 . S
H863 C886 0.950 . S
H864 C887 0.950 . S
H865 C889 0.950 . S
H866 C890 0.950 . S
H867 C891 0.951 . S
H868 C893 0.951 . S
H869 C895 0.950 . S
H870 C896 0.950 . S
H871 C898 0.950 . S
H872 C901 0.950 . S
H873 C902 0.950 . S
H874 C904 0.950 . S
H875 C905 0.950 . S
C876 H858 0.951 . S
C876 C877 1.366 . S
C876 C878 1.388 . S
C877 C876 1.366 . S
C877 C881 1.385 . S
C878 H859 0.951 . S
C878 C876 1.388 . S
C878 C879 1.366 . S
C879 C878 1.366 . S
C879 C880 1.414 . S
C879 C882 1.499 . S
C880 H860 0.950 . S
C880 C879 1.414 . S
C880 C881 1.374 . S
C881 H861 0.950 . S
C881 C877 1.385 . S
C881 C880 1.374 . S
C882 C879 1.499 . S
C882 C883 1.373 . S
C882 C884 1.389 . S
C883 H862 0.950 . S
C883 C882 1.373 . S
C883 C899 1.377 . S
C884 C882 1.389 . S
C884 C885 1.524 . S
C884 C898 1.377 . S
C885 C884 1.524 . S
C885 C886 1.397 . S
C885 C890 1.363 . S
C886 H863 0.950 . S
C886 C885 1.397 . S
C886 C887 1.334 . S
C887 H864 0.950 . S
C887 C886 1.334 . S
C887 C888 1.287 . S
C888 C887 1.287 . S
C888 C889 1.524 . S
C888 H907 0.913 . S
C889 H865 0.950 . S
C889 C888 1.524 . S
C889 C890 1.415 . S
C890 H866 0.950 . S
C890 C885 1.363 . S
C890 C889 1.415 . S
C891 H867 0.951 . S
C891 C892 1.366 . S
C891 C893 1.388 . S
C892 C891 1.366 . S
C892 C896 1.385 . S
C893 H868 0.951 . S
C893 C891 1.388 . S
C893 C894 1.366 . S
C894 C893 1.366 . S
C894 C895 1.414 . S
C894 C897 1.499 . S
C895 H869 0.950 . S
C895 C894 1.414 . S
C895 C896 1.374 . S
C896 H870 0.950 . S
C896 C892 1.385 . S
C896 C895 1.374 . S
C897 C894 1.499 . S
C897 C898 1.373 . S
C897 C899 1.389 . S
C898 H871 0.950 . S
C898 C884 1.377 . S
C898 C897 1.373 . S
C899 C883 1.377 . S
C899 C897 1.389 . S
C899 C900 1.524 . S
C900 C899 1.524 . S
C900 C901 1.397 . S
C900 C905 1.363 . S
C901 H872 0.950 . S
C901 C900 1.397 . S
C901 C902 1.334 . S
C902 H873 0.950 . S
C902 C901 1.334 . S
C902 C903 1.287 . S
C903 C902 1.287 . S
C903 C904 1.524 . S
C903 H906 0.999 . S
C904 H874 0.950 . S
C904 C903 1.524 . S
C904 C905 1.415 . S
C905 H875 0.950 . S
C905 C900 1.363 . S
C905 C904 1.415 . S
H906 C903 0.999 . S
H907 C888 0.913 . S
H908 C926 0.951 . S
H909 C928 0.951 . S
H910 C930 0.950 . S
H911 C931 0.950 . S
H912 C933 0.950 . S
H913 C936 0.950 . S
H914 C937 0.950 . S
H915 C939 0.950 . S
H916 C940 0.950 . S
H917 C941 0.951 . S
H918 C943 0.951 . S
H919 C945 0.950 . S
H920 C946 0.950 . S
H921 C948 0.950 . S
H922 C951 0.950 . S
H923 C952 0.950 . S
H924 C954 0.950 . S
H925 C955 0.950 . S
C926 H908 0.951 . S
C926 C927 1.366 . S
C926 C928 1.388 . S
C927 C926 1.366 . S
C927 C931 1.385 . S
C928 H909 0.951 . S
C928 C926 1.388 . S
C928 C929 1.366 . S
C929 C928 1.366 . S
C929 C930 1.414 . S
C929 C932 1.499 . S
C930 H910 0.950 . S
C930 C929 1.414 . S
C930 C931 1.374 . S
C931 H911 0.950 . S
C931 C927 1.385 . S
C931 C930 1.374 . S
C932 C929 1.499 . S
C932 C933 1.373 . S
C932 C934 1.389 . S
C933 H912 0.950 . S
C933 C932 1.373 . S
C933 C949 1.377 . S
C934 C932 1.389 . S
C934 C935 1.524 . S
C934 C948 1.377 . S
C935 C934 1.524 . S
C935 C936 1.397 . S
C935 C940 1.363 . S
C936 H913 0.950 . S
C936 C935 1.397 . S
C936 C937 1.334 . S
C937 H914 0.950 . S
C937 C936 1.334 . S
C937 C938 1.287 . S
C938 C937 1.287 . S
C938 C939 1.524 . S
C938 H957 0.913 . S
C939 H915 0.950 . S
C939 C938 1.524 . S
C939 C940 1.415 . S
C940 H916 0.950 . S
C940 C935 1.363 . S
C940 C939 1.415 . S
C941 H917 0.951 . S
C941 C942 1.366 . S
C941 C943 1.388 . S
C942 C941 1.366 . S
C942 C946 1.385 . S
C943 H918 0.951 . S
C943 C941 1.388 . S
C943 C944 1.366 . S
C944 C943 1.366 . S
C944 C945 1.414 . S
C944 C947 1.499 . S
C945 H919 0.950 . S
C945 C944 1.414 . S
C945 C946 1.374 . S
C946 H920 0.950 . S
C946 C942 1.385 . S
C946 C945 1.374 . S
C947 C944 1.499 . S
C947 C948 1.373 . S
C947 C949 1.389 . S
C948 H921 0.950 . S
C948 C934 1.377 . S
C948 C947 1.373 . S
C949 C933 1.377 . S
C949 C947 1.389 . S
C949 C950 1.524 . S
C950 C949 1.524 . S
C950 C951 1.397 . S
C950 C955 1.363 . S
C951 H922 0.950 . S
C951 C950 1.397 . S
C951 C952 1.334 . S
C952 H923 0.950 . S
C952 C951 1.334 . S
C952 C953 1.287 . S
C953 C952 1.287 . S
C953 C954 1.524 . S
C953 H956 0.999 . S
C954 H924 0.950 . S
C954 C953 1.524 . S
C954 C955 1.415 . S
C955 H925 0.950 . S
C955 C950 1.363 . S
C955 C954 1.415 . S
H956 C953 0.999 . S
H957 C938 0.913 . S
H958 C976 0.951 . S
H959 C978 0.951 . S
H960 C980 0.950 . S
H961 C981 0.950 . S
H962 C983 0.950 . S
H963 C986 0.950 . S
H964 C987 0.950 . S
H965 C989 0.950 . S
H966 C990 0.950 . S
H967 C991 0.951 . S
H968 C993 0.951 . S
H969 C995 0.950 . S
H970 C996 0.950 . S
H971 C998 0.950 . S
H972 C1001 0.950 . S
H973 C1002 0.950 . S
H974 C1004 0.950 . S
H975 C1005 0.950 . S
C976 H958 0.951 . S
C976 C977 1.366 . S
C976 C978 1.388 . S
C977 C976 1.366 . S
C977 C981 1.385 . S
C978 H959 0.951 . S
C978 C976 1.388 . S
C978 C979 1.366 . S
C979 C978 1.366 . S
C979 C980 1.414 . S
C979 C982 1.499 . S
C980 H960 0.950 . S
C980 C979 1.414 . S
C980 C981 1.374 . S
C981 H961 0.950 . S
C981 C977 1.385 . S
C981 C980 1.374 . S
C982 C979 1.499 . S
C982 C983 1.373 . S
C982 C984 1.389 . S
C983 H962 0.950 . S
C983 C982 1.373 . S
C983 C999 1.377 . S
C984 C982 1.389 . S
C984 C985 1.524 . S
C984 C998 1.377 . S
C985 C984 1.524 . S
C985 C986 1.397 . S
C985 C990 1.363 . S
C986 H963 0.950 . S
C986 C985 1.397 . S
C986 C987 1.334 . S
C987 H964 0.950 . S
C987 C986 1.334 . S
C987 C988 1.287 . S
C988 C987 1.287 . S
C988 C989 1.524 . S
C988 H1007 0.913 . S
C989 H965 0.950 . S
C989 C988 1.524 . S
C989 C990 1.415 . S
C990 H966 0.950 . S
C990 C985 1.363 . S
C990 C989 1.415 . S
C991 H967 0.951 . S
C991 C992 1.366 . S
C991 C993 1.388 . S
C992 C991 1.366 . S
C992 C996 1.385 . S
C993 H968 0.951 . S
C993 C991 1.388 . S
C993 C994 1.366 . S
C994 C993 1.366 . S
C994 C995 1.414 . S
C994 C997 1.499 . S
C995 H969 0.950 . S
C995 C994 1.414 . S
C995 C996 1.374 . S
C996 H970 0.950 . S
C996 C992 1.385 . S
C996 C995 1.374 . S
C997 C994 1.499 . S
C997 C998 1.373 . S
C997 C999 1.389 . S
C998 H971 0.950 . S
C998 C984 1.377 . S
C998 C997 1.373 . S
C999 C983 1.377 . S
C999 C997 1.389 . S
C999 C1000 1.524 . S
C1000 C999 1.524 . S
C1000 C1001 1.397 . S
C1000 C1005 1.363 . S
C1001 H972 0.950 . S
C1001 C1000 1.397 . S
C1001 C1002 1.334 . S
C1002 H973 0.950 . S
C1002 C1001 1.334 . S
C1002 C1003 1.287 . S
C1003 C1002 1.287 . S
C1003 C1004 1.524 . S
C1003 H1006 0.999 . S
C1004 H974 0.950 . S
C1004 C1003 1.524 . S
C1004 C1005 1.415 . S
C1005 H975 0.950 . S
C1005 C1000 1.363 . S
C1005 C1004 1.415 . S
H1006 C1003 0.999 . S
H1007 C988 0.913 . S
H1008 C1026 0.951 . S
H1009 C1028 0.951 . S
H1010 C1030 0.950 . S
H1011 C1031 0.950 . S
H1012 C1033 0.950 . S
H1013 C1036 0.950 . S
H1014 C1037 0.950 . S
H1015 C1039 0.959 . S
H1016 C1040 0.950 . S
H1017 C1041 0.951 . S
H1018 C1043 0.951 . S
H1019 C1045 0.950 . S
H1020 C1046 0.950 . S
H1021 C1048 0.950 . S
H1022 C1051 0.950 . S
H1023 C1052 0.950 . S
H1024 C1054 0.950 . S
H1025 C1055 0.950 . S
C1026 H1008 0.951 . S
C1026 C1027 1.366 . S
C1026 C1028 1.388 . S
C1027 C1026 1.366 . S
C1027 C1031 1.385 . S
C1028 H1009 0.951 . S
C1028 C1026 1.388 . S
C1028 C1029 1.366 . S
C1029 C1028 1.366 . S
C1029 C1030 1.414 . S
C1029 C1032 1.499 . S
C1030 H1010 0.950 . S
C1030 C1029 1.414 . S
C1030 C1031 1.374 . S
C1031 H1011 0.950 . S
C1031 C1027 1.385 . S
C1031 C1030 1.374 . S
C1032 C1029 1.499 . S
C1032 C1033 1.373 . S
C1032 C1034 1.389 . S
C1033 H1012 0.950 . S
C1033 C1032 1.373 . S
C1033 C1049 1.377 . S
C1034 C1032 1.389 . S
C1034 C1035 1.524 . S
C1034 C1048 1.377 . S
C1035 C1034 1.524 . S
C1035 C1036 1.397 . S
C1035 C1040 1.363 . S
C1036 H1013 0.950 . S
C1036 C1035 1.397 . S
C1036 C1037 1.334 1_455 S
C1037 H1014 0.950 . S
C1037 C1036 1.334 1_655 S
C1037 C1038 1.287 . S
C1038 C1037 1.287 . S
C1038 C1039 1.524 1_655 S
C1038 H1057 0.913 . S
C1039 H1015 0.959 . S
C1039 C1038 1.524 1_455 S
C1039 C1040 1.415 . S
C1040 H1016 0.950 . S
C1040 C1035 1.363 . S
C1040 C1039 1.415 . S
C1041 H1017 0.951 . S
C1041 C1042 1.366 . S
C1041 C1043 1.388 . S
C1042 C1041 1.366 . S
C1042 C1046 1.385 . S
C1043 H1018 0.951 . S
C1043 C1041 1.388 . S
C1043 C1044 1.366 . S
C1044 C1043 1.366 . S
C1044 C1045 1.414 . S
C1044 C1047 1.499 . S
C1045 H1019 0.950 . S
C1045 C1044 1.414 . S
C1045 C1046 1.374 . S
C1046 H1020 0.950 . S
C1046 C1042 1.385 . S
C1046 C1045 1.374 . S
C1047 C1044 1.499 . S
C1047 C1048 1.373 . S
C1047 C1049 1.389 . S
C1048 H1021 0.950 . S
C1048 C1034 1.377 . S
C1048 C1047 1.373 . S
C1049 C1033 1.377 . S
C1049 C1047 1.389 . S
C1049 C1050 1.524 . S
C1050 C1049 1.524 . S
C1050 C1051 1.397 . S
C1050 C1055 1.363 . S
C1051 H1022 0.950 . S
C1051 C1050 1.397 . S
C1051 C1052 1.334 . S
C1052 H1023 0.950 . S
C1052 C1051 1.334 . S
C1052 C1053 1.287 . S
C1053 C1052 1.287 . S
C1053 C1054 1.524 . S
C1053 H1056 0.999 . S
C1054 H1024 0.950 . S
C1054 C1053 1.524 . S
C1054 C1055 1.415 . S
C1055 H1025 0.950 . S
C1055 C1050 1.363 . S
C1055 C1054 1.415 . S
H1056 C1053 0.999 . S
H1057 C1038 0.913 . S
H1058 C1076 0.951 . S
H1059 C1078 0.951 . S
H1060 C1080 0.950 . S
H1061 C1081 0.950 . S
H1062 C1083 0.950 . S
H1063 C1086 0.950 . S
H1064 C1087 0.950 . S
H1065 C1089 0.950 . S
H1066 C1090 0.950 . S
H1067 C1091 0.951 . S
H1068 C1093 0.951 . S
H1069 C1095 0.950 . S
H1070 C1096 0.950 . S
H1071 C1098 0.950 . S
H1072 C1101 0.950 . S
H1073 C1102 0.950 . S
H1074 C1104 0.950 . S
H1075 C1105 0.950 . S
C1076 H1058 0.951 . S
C1076 C1077 1.366 . S
C1076 C1078 1.388 . S
C1077 C1076 1.366 . S
C1077 C1081 1.385 . S
C1078 H1059 0.951 . S
C1078 C1076 1.388 . S
C1078 C1079 1.366 . S
C1079 C1078 1.366 . S
C1079 C1080 1.414 . S
C1079 C1082 1.499 . S
C1080 H1060 0.950 . S
C1080 C1079 1.414 . S
C1080 C1081 1.374 . S
C1081 H1061 0.950 . S
C1081 C1077 1.385 . S
C1081 C1080 1.374 . S
C1082 C1079 1.499 . S
C1082 C1083 1.373 . S
C1082 C1084 1.389 . S
C1083 H1062 0.950 . S
C1083 C1082 1.373 . S
C1083 C1099 1.377 . S
C1084 C1082 1.389 . S
C1084 C1085 1.524 . S
C1084 C1098 1.377 . S
C1085 C1084 1.524 . S
C1085 C1086 1.397 . S
C1085 C1090 1.363 . S
C1086 H1063 0.950 . S
C1086 C1085 1.397 . S
C1086 C1087 1.334 . S
C1087 H1064 0.950 . S
C1087 C1086 1.334 . S
C1087 C1088 1.287 . S
C1088 C1087 1.287 . S
C1088 C1089 1.524 . S
C1088 H1107 0.913 . S
C1089 H1065 0.950 . S
C1089 C1088 1.524 . S
C1089 C1090 1.415 . S
C1090 H1066 0.950 . S
C1090 C1085 1.363 . S
C1090 C1089 1.415 . S
C1091 H1067 0.951 . S
C1091 C1092 1.366 . S
C1091 C1093 1.388 . S
C1092 C1091 1.366 . S
C1092 C1096 1.385 . S
C1093 H1068 0.951 . S
C1093 C1091 1.388 . S
C1093 C1094 1.366 . S
C1094 C1093 1.366 . S
C1094 C1095 1.414 . S
C1094 C1097 1.499 . S
C1095 H1069 0.950 . S
C1095 C1094 1.414 . S
C1095 C1096 1.374 . S
C1096 H1070 0.950 . S
C1096 C1092 1.385 . S
C1096 C1095 1.374 . S
C1097 C1094 1.499 . S
C1097 C1098 1.373 . S
C1097 C1099 1.389 . S
C1098 H1071 0.950 . S
C1098 C1084 1.377 . S
C1098 C1097 1.373 . S
C1099 C1083 1.377 . S
C1099 C1097 1.389 . S
C1099 C1100 1.524 . S
C1100 C1099 1.524 . S
C1100 C1101 1.397 . S
C1100 C1105 1.363 . S
C1101 H1072 0.950 . S
C1101 C1100 1.397 . S
C1101 C1102 1.334 . S
C1102 H1073 0.950 . S
C1102 C1101 1.334 . S
C1102 C1103 1.287 . S
C1103 C1102 1.287 . S
C1103 C1104 1.524 . S
C1103 H1106 0.999 . S
C1104 H1074 0.950 . S
C1104 C1103 1.524 . S
C1104 C1105 1.415 . S
C1105 H1075 0.950 . S
C1105 C1100 1.363 . S
C1105 C1104 1.415 . S
H1106 C1103 0.999 . S
H1107 C1088 0.913 . S
H1108 C1126 0.951 . S
H1109 C1128 0.951 . S
H1110 C1130 0.950 . S
H1111 C1131 0.950 . S
H1112 C1133 0.950 . S
H1113 C1136 0.950 . S
H1114 C1137 0.950 . S
H1115 C1139 0.950 . S
H1116 C1140 0.950 . S
H1117 C1141 0.951 . S
H1118 C1143 0.951 . S
H1119 C1145 0.950 . S
H1120 C1146 0.950 . S
H1121 C1148 0.950 . S
H1122 C1151 0.950 . S
H1123 C1152 0.950 . S
H1124 C1154 0.950 . S
H1125 C1155 0.950 . S
C1126 H1108 0.951 . S
C1126 C1127 1.366 . S
C1126 C1128 1.388 . S
C1127 C1126 1.366 . S
C1127 C1131 1.385 . S
C1128 H1109 0.951 . S
C1128 C1126 1.388 . S
C1128 C1129 1.366 . S
C1129 C1128 1.366 . S
C1129 C1130 1.414 . S
C1129 C1132 1.499 . S
C1130 H1110 0.950 . S
C1130 C1129 1.414 . S
C1130 C1131 1.374 . S
C1131 H1111 0.950 . S
C1131 C1127 1.385 . S
C1131 C1130 1.374 . S
C1132 C1129 1.499 . S
C1132 C1133 1.373 . S
C1132 C1134 1.389 . S
C1133 H1112 0.950 . S
C1133 C1132 1.373 . S
C1133 C1149 1.377 . S
C1134 C1132 1.389 . S
C1134 C1135 1.524 . S
C1134 C1148 1.377 . S
C1135 C1134 1.524 . S
C1135 C1136 1.397 . S
C1135 C1140 1.363 . S
C1136 H1113 0.950 . S
C1136 C1135 1.397 . S
C1136 C1137 1.334 . S
C1137 H1114 0.950 . S
C1137 C1136 1.334 . S
C1137 C1138 1.287 . S
C1138 C1137 1.287 . S
C1138 C1139 1.524 . S
C1138 H1157 0.913 . S
C1139 H1115 0.950 . S
C1139 C1138 1.524 . S
C1139 C1140 1.415 . S
C1140 H1116 0.950 . S
C1140 C1135 1.363 . S
C1140 C1139 1.415 . S
C1141 H1117 0.951 . S
C1141 C1142 1.366 . S
C1141 C1143 1.388 . S
C1142 C1141 1.366 . S
C1142 C1146 1.385 . S
C1143 H1118 0.951 . S
C1143 C1141 1.388 . S
C1143 C1144 1.366 . S
C1144 C1143 1.366 . S
C1144 C1145 1.414 . S
C1144 C1147 1.499 . S
C1145 H1119 0.950 . S
C1145 C1144 1.414 . S
C1145 C1146 1.374 . S
C1146 H1120 0.950 . S
C1146 C1142 1.385 . S
C1146 C1145 1.374 . S
C1147 C1144 1.499 . S
C1147 C1148 1.373 . S
C1147 C1149 1.389 . S
C1148 H1121 0.950 . S
C1148 C1134 1.377 . S
C1148 C1147 1.373 . S
C1149 C1133 1.377 . S
C1149 C1147 1.389 . S
C1149 C1150 1.524 . S
C1150 C1149 1.524 . S
C1150 C1151 1.397 . S
C1150 C1155 1.363 . S
C1151 H1122 0.950 . S
C1151 C1150 1.397 . S
C1151 C1152 1.334 . S
C1152 H1123 0.950 . S
C1152 C1151 1.334 . S
C1152 C1153 1.287 . S
C1153 C1152 1.287 . S
C1153 C1154 1.524 . S
C1153 H1156 0.999 . S
C1154 H1124 0.950 . S
C1154 C1153 1.524 . S
C1154 C1155 1.415 . S
C1155 H1125 0.950 . S
C1155 C1150 1.363 . S
C1155 C1154 1.415 . S
H1156 C1153 0.999 . S
H1157 C1138 0.913 . S
H1158 C1176 0.951 . S
H1159 C1178 0.951 . S
H1160 C1180 0.950 . S
H1161 C1181 0.950 . S
H1162 C1183 0.950 . S
H1163 C1186 0.950 . S
H1164 C1187 0.950 . S
H1165 C1189 0.950 1_545 S
H1166 C1190 0.950 . S
H1167 C1191 0.951 . S
H1168 C1193 0.951 . S
H1169 C1195 0.950 . S
H1170 C1196 0.950 . S
H1171 C1198 0.950 . S
H1172 C1201 0.950 . S
H1173 C1202 0.950 . S
H1174 C1204 0.950 . S
H1175 C1205 0.950 . S
C1176 H1158 0.951 . S
C1176 C1177 1.366 . S
C1176 C1178 1.388 . S
C1177 C1176 1.366 . S
C1177 C1181 1.385 . S
C1178 H1159 0.951 . S
C1178 C1176 1.388 . S
C1178 C1179 1.366 . S
C1179 C1178 1.366 . S
C1179 C1180 1.414 . S
C1179 C1182 1.499 . S
C1180 H1160 0.950 . S
C1180 C1179 1.414 . S
C1180 C1181 1.374 . S
C1181 H1161 0.950 . S
C1181 C1177 1.385 . S
C1181 C1180 1.374 . S
C1182 C1179 1.499 . S
C1182 C1183 1.373 . S
C1182 C1184 1.389 . S
C1183 H1162 0.950 . S
C1183 C1182 1.373 . S
C1183 C1199 1.377 . S
C1184 C1182 1.389 . S
C1184 C1185 1.524 . S
C1184 C1198 1.377 . S
C1185 C1184 1.524 . S
C1185 C1186 1.397 . S
C1185 C1190 1.363 . S
C1186 H1163 0.950 . S
C1186 C1185 1.397 . S
C1186 C1187 1.334 . S
C1187 H1164 0.950 . S
C1187 C1186 1.334 . S
C1187 C1188 1.287 . S
C1188 C1187 1.287 . S
C1188 C1189 1.524 . S
C1188 H1207 0.913 . S
C1189 H1165 0.950 1_565 S
C1189 C1188 1.524 . S
C1189 C1190 1.415 . S
C1190 H1166 0.950 . S
C1190 C1185 1.363 . S
C1190 C1189 1.415 . S
C1191 H1167 0.951 . S
C1191 C1192 1.366 . S
C1191 C1193 1.388 . S
C1192 C1191 1.366 . S
C1192 C1196 1.385 . S
C1193 H1168 0.951 . S
C1193 C1191 1.388 . S
C1193 C1194 1.366 . S
C1194 C1193 1.366 . S
C1194 C1195 1.414 . S
C1194 C1197 1.499 . S
C1195 H1169 0.950 . S
C1195 C1194 1.414 . S
C1195 C1196 1.374 . S
C1196 H1170 0.950 . S
C1196 C1192 1.385 . S
C1196 C1195 1.374 . S
C1197 C1194 1.499 . S
C1197 C1198 1.373 . S
C1197 C1199 1.389 . S
C1198 H1171 0.950 . S
C1198 C1184 1.377 . S
C1198 C1197 1.373 . S
C1199 C1183 1.377 . S
C1199 C1197 1.389 . S
C1199 C1200 1.524 . S
C1200 C1199 1.524 . S
C1200 C1201 1.397 . S
C1200 C1205 1.363 . S
C1201 H1172 0.950 . S
C1201 C1200 1.397 . S
C1201 C1202 1.334 . S
C1202 H1173 0.950 . S
C1202 C1201 1.334 . S
C1202 C1203 1.287 . S
C1203 C1202 1.287 . S
C1203 C1204 1.524 . S
C1203 H1206 0.999 . S
C1204 H1174 0.950 . S
C1204 C1203 1.524 . S
C1204 C1205 1.415 . S
C1205 H1175 0.950 . S
C1205 C1200 1.363 . S
C1205 C1204 1.415 . S
H1206 C1203 0.999 . S
H1207 C1188 0.913 . S
H1208 C1226 0.951 . S
H1209 C1228 0.951 . S
H1210 C1230 0.950 . S
H1211 C1231 0.950 . S
H1212 C1233 0.950 . S
H1213 C1236 0.950 . S
H1214 C1237 0.950 . S
H1215 C1239 0.950 . S
H1216 C1240 0.950 . S
H1217 C1241 0.951 . S
H1218 C1243 0.951 . S
H1219 C1245 0.950 . S
H1220 C1246 0.950 . S
H1221 C1248 0.950 . S
H1222 C1251 0.950 . S
H1223 C1252 0.950 . S
H1224 C1254 0.950 . S
H1225 C1255 0.950 . S
C1226 H1208 0.951 . S
C1226 C1227 1.366 . S
C1226 C1228 1.388 . S
C1227 C1226 1.366 . S
C1227 C1231 1.385 . S
C1228 H1209 0.951 . S
C1228 C1226 1.388 . S
C1228 C1229 1.366 . S
C1229 C1228 1.366 . S
C1229 C1230 1.414 . S
C1229 C1232 1.499 . S
C1230 H1210 0.950 . S
C1230 C1229 1.414 . S
C1230 C1231 1.374 . S
C1231 H1211 0.950 . S
C1231 C1227 1.385 . S
C1231 C1230 1.374 . S
C1232 C1229 1.499 . S
C1232 C1233 1.373 . S
C1232 C1234 1.389 . S
C1233 H1212 0.950 . S
C1233 C1232 1.373 . S
C1233 C1249 1.377 . S
C1234 C1232 1.389 . S
C1234 C1235 1.524 . S
C1234 C1248 1.377 . S
C1235 C1234 1.524 . S
C1235 C1236 1.397 . S
C1235 C1240 1.363 . S
C1236 H1213 0.950 . S
C1236 C1235 1.397 . S
C1236 C1237 1.334 . S
C1237 H1214 0.950 . S
C1237 C1236 1.334 . S
C1237 C1238 1.287 . S
C1238 C1237 1.287 . S
C1238 C1239 1.524 . S
C1238 H1257 0.913 . S
C1239 H1215 0.950 . S
C1239 C1238 1.524 . S
C1239 C1240 1.415 . S
C1240 H1216 0.950 . S
C1240 C1235 1.363 . S
C1240 C1239 1.415 . S
C1241 H1217 0.951 . S
C1241 C1242 1.366 . S
C1241 C1243 1.388 . S
C1242 C1241 1.366 . S
C1242 C1246 1.385 . S
C1243 H1218 0.951 . S
C1243 C1241 1.388 . S
C1243 C1244 1.366 . S
C1244 C1243 1.366 . S
C1244 C1245 1.414 . S
C1244 C1247 1.499 . S
C1245 H1219 0.950 . S
C1245 C1244 1.414 . S
C1245 C1246 1.374 . S
C1246 H1220 0.950 . S
C1246 C1242 1.385 . S
C1246 C1245 1.374 . S
C1247 C1244 1.499 . S
C1247 C1248 1.373 . S
C1247 C1249 1.389 . S
C1248 H1221 0.950 . S
C1248 C1234 1.377 . S
C1248 C1247 1.373 . S
C1249 C1233 1.377 . S
C1249 C1247 1.389 . S
C1249 C1250 1.524 . S
C1250 C1249 1.524 . S
C1250 C1251 1.397 . S
C1250 C1255 1.363 . S
C1251 H1222 0.950 . S
C1251 C1250 1.397 . S
C1251 C1252 1.334 . S
C1252 H1223 0.950 . S
C1252 C1251 1.334 . S
C1252 C1253 1.287 . S
C1253 C1252 1.287 . S
C1253 C1254 1.524 . S
C1253 H1256 0.999 . S
C1254 H1224 0.950 . S
C1254 C1253 1.524 . S
C1254 C1255 1.415 . S
C1255 H1225 0.950 . S
C1255 C1250 1.363 . S
C1255 C1254 1.415 . S
H1256 C1253 0.999 . S
H1257 C1238 0.913 . S
H1258 C1276 0.951 . S
H1259 C1278 0.951 . S
H1260 C1280 0.950 . S
H1261 C1281 0.950 . S
H1262 C1283 0.950 . S
H1263 C1286 0.950 . S
H1264 C1287 0.950 . S
H1265 C1289 0.950 . S
H1266 C1290 0.950 . S
H1267 C1291 0.951 . S
H1268 C1293 0.951 . S
H1269 C1295 0.950 . S
H1270 C1296 0.950 . S
H1271 C1298 0.950 . S
H1272 C1301 0.950 . S
H1273 C1302 0.950 . S
H1274 C1304 0.950 . S
H1275 C1305 0.950 . S
C1276 H1258 0.951 . S
C1276 C1277 1.366 . S
C1276 C1278 1.388 . S
C1277 C1276 1.366 . S
C1277 C1281 1.385 . S
C1278 H1259 0.951 . S
C1278 C1276 1.388 . S
C1278 C1279 1.366 . S
C1279 C1278 1.366 . S
C1279 C1280 1.414 . S
C1279 C1282 1.499 . S
C1280 H1260 0.950 . S
C1280 C1279 1.414 . S
C1280 C1281 1.374 . S
C1281 H1261 0.950 . S
C1281 C1277 1.385 . S
C1281 C1280 1.374 . S
C1282 C1279 1.499 . S
C1282 C1283 1.373 . S
C1282 C1284 1.389 . S
C1283 H1262 0.950 . S
C1283 C1282 1.373 . S
C1283 C1299 1.377 . S
C1284 C1282 1.389 . S
C1284 C1285 1.524 . S
C1284 C1298 1.377 . S
C1285 C1284 1.524 . S
C1285 C1286 1.397 . S
C1285 C1290 1.363 . S
C1286 H1263 0.950 . S
C1286 C1285 1.397 . S
C1286 C1287 1.334 . S
C1287 H1264 0.950 . S
C1287 C1286 1.334 . S
C1287 C1288 1.287 . S
C1288 C1287 1.287 . S
C1288 C1289 1.524 . S
C1288 H1307 0.913 . S
C1289 H1265 0.950 . S
C1289 C1288 1.524 . S
C1289 C1290 1.415 . S
C1290 H1266 0.950 . S
C1290 C1285 1.363 . S
C1290 C1289 1.415 . S
C1291 H1267 0.951 . S
C1291 C1292 1.366 . S
C1291 C1293 1.388 . S
C1292 C1291 1.366 . S
C1292 C1296 1.385 . S
C1293 H1268 0.951 . S
C1293 C1291 1.388 . S
C1293 C1294 1.366 . S
C1294 C1293 1.366 . S
C1294 C1295 1.414 . S
C1294 C1297 1.499 . S
C1295 H1269 0.950 . S
C1295 C1294 1.414 . S
C1295 C1296 1.374 . S
C1296 H1270 0.950 . S
C1296 C1292 1.385 . S
C1296 C1295 1.374 . S
C1297 C1294 1.499 . S
C1297 C1298 1.373 . S
C1297 C1299 1.389 . S
C1298 H1271 0.950 . S
C1298 C1284 1.377 . S
C1298 C1297 1.373 . S
C1299 C1283 1.377 . S
C1299 C1297 1.389 . S
C1299 C1300 1.524 . S
C1300 C1299 1.524 . S
C1300 C1301 1.397 . S
C1300 C1305 1.363 . S
C1301 H1272 0.950 . S
C1301 C1300 1.397 . S
C1301 C1302 1.334 . S
C1302 H1273 0.950 . S
C1302 C1301 1.334 . S
C1302 C1303 1.287 . S
C1303 C1302 1.287 . S
C1303 C1304 1.524 . S
C1303 H1306 0.999 . S
C1304 H1274 0.950 . S
C1304 C1303 1.524 . S
C1304 C1305 1.415 . S
C1305 H1275 0.950 . S
C1305 C1300 1.363 . S
C1305 C1304 1.415 . S
H1306 C1303 0.999 . S
H1307 C1288 0.913 . S
H1308 C1326 0.951 . S
H1309 C1328 0.951 . S
H1310 C1330 0.950 . S
H1311 C1331 0.950 . S
H1312 C1333 0.950 . S
H1313 C1336 0.950 . S
H1314 C1337 0.950 . S
H1315 C1339 0.950 . S
H1316 C1340 0.950 . S
H1317 C1341 0.951 . S
H1318 C1343 0.951 . S
H1319 C1345 0.950 . S
H1320 C1346 0.950 . S
H1321 C1348 0.950 . S
H1322 C1351 0.950 . S
H1323 C1352 0.950 . S
H1324 C1354 0.950 . S
H1325 C1355 0.950 . S
C1326 H1308 0.951 . S
C1326 C1327 1.366 . S
C1326 C1328 1.388 . S
C1327 C1326 1.366 . S
C1327 C1331 1.385 . S
C1328 H1309 0.951 . S
C1328 C1326 1.388 . S
C1328 C1329 1.366 . S
C1329 C1328 1.366 . S
C1329 C1330 1.414 . S
C1329 C1332 1.499 . S
C1330 H1310 0.950 . S
C1330 C1329 1.414 . S
C1330 C1331 1.374 . S
C1331 H1311 0.950 . S
C1331 C1327 1.385 . S
C1331 C1330 1.374 . S
C1332 C1329 1.499 . S
C1332 C1333 1.373 . S
C1332 C1334 1.389 . S
C1333 H1312 0.950 . S
C1333 C1332 1.373 . S
C1333 C1349 1.377 . S
C1334 C1332 1.389 . S
C1334 C1335 1.524 . S
C1334 C1348 1.377 . S
C1335 C1334 1.524 . S
C1335 C1336 1.397 . S
C1335 C1340 1.363 . S
C1336 H1313 0.950 . S
C1336 C1335 1.397 . S
C1336 C1337 1.334 . S
C1337 H1314 0.950 . S
C1337 C1336 1.334 . S
C1337 C1338 1.287 . S
C1338 C1337 1.287 . S
C1338 C1339 1.524 . S
C1338 H1357 0.913 . S
C1339 H1315 0.950 . S
C1339 C1338 1.524 . S
C1339 C1340 1.415 . S
C1340 H1316 0.950 . S
C1340 C1335 1.363 . S
C1340 C1339 1.415 . S
C1341 H1317 0.951 . S
C1341 C1342 1.366 . S
C1341 C1343 1.388 . S
C1342 C1341 1.366 . S
C1342 C1346 1.385 . S
C1343 H1318 0.951 . S
C1343 C1341 1.388 . S
C1343 C1344 1.366 . S
C1344 C1343 1.366 . S
C1344 C1345 1.414 . S
C1344 C1347 1.499 . S
C1345 H1319 0.950 . S
C1345 C1344 1.414 . S
C1345 C1346 1.374 . S
C1346 H1320 0.950 . S
C1346 C1342 1.385 . S
C1346 C1345 1.374 . S
C1347 C1344 1.499 . S
C1347 C1348 1.373 . S
C1347 C1349 1.389 . S
C1348 H1321 0.950 . S
C1348 C1334 1.377 . S
C1348 C1347 1.373 . S
C1349 C1333 1.377 . S
C1349 C1347 1.389 . S
C1349 C1350 1.524 . S
C1350 C1349 1.524 . S
C1350 C1351 1.397 . S
C1350 C1355 1.363 . S
C1351 H1322 0.950 . S
C1351 C1350 1.397 . S
C1351 C1352 1.334 . S
C1352 H1323 0.950 . S
C1352 C1351 1.334 . S
C1352 C1353 1.287 . S
C1353 C1352 1.287 . S
C1353 C1354 1.524 . S
C1353 H1356 0.999 . S
C1354 H1324 0.950 . S
C1354 C1353 1.524 . S
C1354 C1355 1.415 . S
C1355 H1325 0.950 . S
C1355 C1350 1.363 . S
C1355 C1354 1.415 . S
H1356 C1353 0.999 . S
H1357 C1338 0.913 . S
H1358 C1376 0.951 . S
H1359 C1378 0.951 . S
H1360 C1380 0.950 . S
H1361 C1381 0.950 . S
H1362 C1383 0.950 . S
H1363 C1386 0.950 . S
H1364 C1387 0.950 . S
H1365 C1389 0.950 . S
H1366 C1390 0.950 . S
H1367 C1391 0.951 . S
H1368 C1393 0.951 . S
H1369 C1395 0.950 . S
H1370 C1396 0.950 . S
H1371 C1398 0.950 . S
H1372 C1401 0.950 . S
H1373 C1402 0.950 . S
H1374 C1404 0.950 1_545 S
H1375 C1405 0.950 . S
C1376 H1358 0.951 . S
C1376 C1377 1.366 . S
C1376 C1378 1.388 . S
C1377 C1376 1.366 . S
C1377 C1381 1.385 . S
C1378 H1359 0.951 . S
C1378 C1376 1.388 . S
C1378 C1379 1.366 . S
C1379 C1378 1.366 . S
C1379 C1380 1.414 . S
C1379 C1382 1.499 . S
C1380 H1360 0.950 . S
C1380 C1379 1.414 . S
C1380 C1381 1.374 . S
C1381 H1361 0.950 . S
C1381 C1377 1.385 . S
C1381 C1380 1.374 . S
C1382 C1379 1.499 . S
C1382 C1383 1.373 . S
C1382 C1384 1.389 . S
C1383 H1362 0.950 . S
C1383 C1382 1.373 . S
C1383 C1399 1.377 . S
C1384 C1382 1.389 . S
C1384 C1385 1.524 . S
C1384 C1398 1.377 . S
C1385 C1384 1.524 . S
C1385 C1386 1.397 . S
C1385 C1390 1.363 . S
C1386 H1363 0.950 . S
C1386 C1385 1.397 . S
C1386 C1387 1.334 . S
C1387 H1364 0.950 . S
C1387 C1386 1.334 . S
C1387 C1388 1.287 . S
C1388 C1387 1.287 . S
C1388 C1389 1.524 . S
C1388 H1407 0.913 . S
C1389 H1365 0.950 . S
C1389 C1388 1.524 . S
C1389 C1390 1.415 . S
C1390 H1366 0.950 . S
C1390 C1385 1.363 . S
C1390 C1389 1.415 . S
C1391 H1367 0.951 . S
C1391 C1392 1.366 . S
C1391 C1393 1.388 . S
C1392 C1391 1.366 . S
C1392 C1396 1.385 . S
C1393 H1368 0.951 . S
C1393 C1391 1.388 . S
C1393 C1394 1.366 . S
C1394 C1393 1.366 . S
C1394 C1395 1.414 . S
C1394 C1397 1.499 . S
C1395 H1369 0.950 . S
C1395 C1394 1.414 . S
C1395 C1396 1.374 . S
C1396 H1370 0.950 . S
C1396 C1392 1.385 . S
C1396 C1395 1.374 . S
C1397 C1394 1.499 . S
C1397 C1398 1.373 . S
C1397 C1399 1.389 . S
C1398 H1371 0.950 . S
C1398 C1384 1.377 . S
C1398 C1397 1.373 . S
C1399 C1383 1.377 . S
C1399 C1397 1.389 . S
C1399 C1400 1.524 . S
C1400 C1399 1.524 . S
C1400 C1401 1.397 . S
C1400 C1405 1.363 . S
C1401 H1372 0.950 . S
C1401 C1400 1.397 . S
C1401 C1402 1.334 . S
C1402 H1373 0.950 . S
C1402 C1401 1.334 . S
C1402 C1403 1.287 . S
C1403 C1402 1.287 . S
C1403 C1404 1.524 . S
C1403 H1406 0.999 . S
C1404 H1374 0.950 1_565 S
C1404 C1403 1.524 . S
C1404 C1405 1.415 . S
C1405 H1375 0.950 . S
C1405 C1400 1.363 . S
C1405 C1404 1.415 . S
H1406 C1403 0.999 . S
H1407 C1388 0.913 . S
H1408 C1426 0.951 . S
H1409 C1428 0.951 . S
H1410 C1430 0.950 . S
H1411 C1431 0.950 . S
H1412 C1433 0.950 . S
H1413 C1436 0.950 . S
H1414 C1437 0.950 . S
H1415 C1439 0.950 . S
H1416 C1440 0.950 . S
H1417 C1441 0.951 . S
H1418 C1443 0.951 . S
H1419 C1445 0.950 . S
H1420 C1446 0.950 . S
H1421 C1448 0.950 . S
H1422 C1451 0.950 . S
H1423 C1452 0.950 . S
H1424 C1454 0.950 . S
H1425 C1455 0.950 . S
C1426 H1408 0.951 . S
C1426 C1427 1.366 . S
C1426 C1428 1.388 . S
C1427 C1426 1.366 . S
C1427 C1431 1.385 . S
C1428 H1409 0.951 . S
C1428 C1426 1.388 . S
C1428 C1429 1.366 . S
C1429 C1428 1.366 . S
C1429 C1430 1.414 . S
C1429 C1432 1.499 . S
C1430 H1410 0.950 . S
C1430 C1429 1.414 . S
C1430 C1431 1.374 . S
C1431 H1411 0.950 . S
C1431 C1427 1.385 . S
C1431 C1430 1.374 . S
C1432 C1429 1.499 . S
C1432 C1433 1.373 . S
C1432 C1434 1.389 . S
C1433 H1412 0.950 . S
C1433 C1432 1.373 . S
C1433 C1449 1.377 . S
C1434 C1432 1.389 . S
C1434 C1435 1.524 . S
C1434 C1448 1.377 . S
C1435 C1434 1.524 . S
C1435 C1436 1.397 . S
C1435 C1440 1.363 . S
C1436 H1413 0.950 . S
C1436 C1435 1.397 . S
C1436 C1437 1.334 . S
C1437 H1414 0.950 . S
C1437 C1436 1.334 . S
C1437 C1438 1.287 . S
C1438 C1437 1.287 . S
C1438 C1439 1.524 . S
C1438 H1457 0.913 . S
C1439 H1415 0.950 . S
C1439 C1438 1.524 . S
C1439 C1440 1.415 . S
C1440 H1416 0.950 . S
C1440 C1435 1.363 . S
C1440 C1439 1.415 . S
C1441 H1417 0.951 . S
C1441 C1442 1.366 . S
C1441 C1443 1.388 . S
C1442 C1441 1.366 . S
C1442 C1446 1.385 . S
C1443 H1418 0.951 . S
C1443 C1441 1.388 . S
C1443 C1444 1.366 . S
C1444 C1443 1.366 . S
C1444 C1445 1.414 . S
C1444 C1447 1.499 . S
C1445 H1419 0.950 . S
C1445 C1444 1.414 . S
C1445 C1446 1.374 . S
C1446 H1420 0.950 . S
C1446 C1442 1.385 . S
C1446 C1445 1.374 . S
C1447 C1444 1.499 . S
C1447 C1448 1.373 . S
C1447 C1449 1.389 . S
C1448 H1421 0.950 . S
C1448 C1434 1.377 . S
C1448 C1447 1.373 . S
C1449 C1433 1.377 . S
C1449 C1447 1.389 . S
C1449 C1450 1.524 . S
C1450 C1449 1.524 . S
C1450 C1451 1.397 . S
C1450 C1455 1.363 . S
C1451 H1422 0.950 . S
C1451 C1450 1.397 . S
C1451 C1452 1.334 . S
C1452 H1423 0.950 . S
C1452 C1451 1.334 . S
C1452 C1453 1.287 . S
C1453 C1452 1.287 . S
C1453 C1454 1.524 . S
C1453 H1456 0.999 . S
C1454 H1424 0.950 . S
C1454 C1453 1.524 . S
C1454 C1455 1.415 . S
C1455 H1425 0.950 . S
C1455 C1450 1.363 . S
C1455 C1454 1.415 . S
H1456 C1453 0.999 . S
H1457 C1438 0.913 . S
H1458 C1476 0.951 . S
H1459 C1478 0.951 . S
H1460 C1480 0.950 . S
H1461 C1481 0.950 . S
H1462 C1483 0.950 . S
H1463 C1486 0.950 . S
H1464 C1487 0.950 . S
H1465 C1489 0.950 . S
H1466 C1490 0.950 . S
H1467 C1491 0.951 . S
H1468 C1493 0.951 . S
H1469 C1495 0.950 . S
H1470 C1496 0.950 . S
H1471 C1498 0.950 . S
H1472 C1501 0.950 . S
H1473 C1502 0.950 . S
H1474 C1504 0.950 . S
H1475 C1505 0.950 . S
C1476 H1458 0.951 . S
C1476 C1477 1.366 . S
C1476 C1478 1.388 . S
C1477 C1476 1.366 . S
C1477 C1481 1.385 . S
C1478 H1459 0.951 . S
C1478 C1476 1.388 . S
C1478 C1479 1.366 . S
C1479 C1478 1.366 . S
C1479 C1480 1.414 . S
C1479 C1482 1.499 . S
C1480 H1460 0.950 . S
C1480 C1479 1.414 . S
C1480 C1481 1.374 . S
C1481 H1461 0.950 . S
C1481 C1477 1.385 . S
C1481 C1480 1.374 . S
C1482 C1479 1.499 . S
C1482 C1483 1.373 . S
C1482 C1484 1.389 . S
C1483 H1462 0.950 . S
C1483 C1482 1.373 . S
C1483 C1499 1.377 . S
C1484 C1482 1.389 . S
C1484 C1485 1.524 . S
C1484 C1498 1.377 . S
C1485 C1484 1.524 . S
C1485 C1486 1.397 . S
C1485 C1490 1.363 . S
C1486 H1463 0.950 . S
C1486 C1485 1.397 . S
C1486 C1487 1.334 . S
C1487 H1464 0.950 . S
C1487 C1486 1.334 . S
C1487 C1488 1.287 . S
C1488 C1487 1.287 . S
C1488 C1489 1.524 . S
C1488 H1507 0.913 . S
C1489 H1465 0.950 . S
C1489 C1488 1.524 . S
C1489 C1490 1.415 . S
C1490 H1466 0.950 . S
C1490 C1485 1.363 . S
C1490 C1489 1.415 . S
C1491 H1467 0.951 . S
C1491 C1492 1.366 . S
C1491 C1493 1.388 . S
C1492 C1491 1.366 . S
C1492 C1496 1.385 . S
C1493 H1468 0.951 . S
C1493 C1491 1.388 . S
C1493 C1494 1.366 . S
C1494 C1493 1.366 . S
C1494 C1495 1.414 . S
C1494 C1497 1.499 . S
C1495 H1469 0.950 . S
C1495 C1494 1.414 . S
C1495 C1496 1.374 . S
C1496 H1470 0.950 . S
C1496 C1492 1.385 . S
C1496 C1495 1.374 . S
C1497 C1494 1.499 . S
C1497 C1498 1.373 . S
C1497 C1499 1.389 . S
C1498 H1471 0.950 . S
C1498 C1484 1.377 . S
C1498 C1497 1.373 . S
C1499 C1483 1.377 . S
C1499 C1497 1.389 . S
C1499 C1500 1.524 . S
C1500 C1499 1.524 . S
C1500 C1501 1.397 . S
C1500 C1505 1.363 . S
C1501 H1472 0.950 . S
C1501 C1500 1.397 . S
C1501 C1502 1.334 . S
C1502 H1473 0.950 . S
C1502 C1501 1.334 . S
C1502 C1503 1.287 . S
C1503 C1502 1.287 . S
C1503 C1504 1.524 . S
C1503 H1506 0.999 . S
C1504 H1474 0.950 . S
C1504 C1503 1.524 . S
C1504 C1505 1.415 . S
C1505 H1475 0.950 . S
C1505 C1500 1.363 . S
C1505 C1504 1.415 . S
H1506 C1503 0.999 . S
H1507 C1488 0.913 . S
H1508 C1526 0.951 . S
H1509 C1528 0.951 . S
H1510 C1530 0.950 . S
H1511 C1531 0.950 . S
H1512 C1533 0.950 . S
H1513 C1536 0.950 . S
H1514 C1537 0.950 . S
H1515 C1539 0.950 . S
H1516 C1540 0.950 . S
H1517 C1541 0.951 . S
H1518 C1543 0.951 . S
H1519 C1545 0.950 . S
H1520 C1546 0.950 . S
H1521 C1548 0.950 . S
H1522 C1551 0.950 . S
H1523 C1552 0.950 . S
H1524 C1554 0.950 . S
H1525 C1555 0.950 . S
C1526 H1508 0.951 . S
C1526 C1527 1.366 . S
C1526 C1528 1.388 . S
C1527 C1526 1.366 . S
C1527 C1531 1.385 . S
C1528 H1509 0.951 . S
C1528 C1526 1.388 . S
C1528 C1529 1.366 . S
C1529 C1528 1.366 . S
C1529 C1530 1.414 . S
C1529 C1532 1.499 . S
C1530 H1510 0.950 . S
C1530 C1529 1.414 . S
C1530 C1531 1.374 . S
C1531 H1511 0.950 . S
C1531 C1527 1.385 . S
C1531 C1530 1.374 . S
C1532 C1529 1.499 . S
C1532 C1533 1.373 . S
C1532 C1534 1.389 . S
C1533 H1512 0.950 . S
C1533 C1532 1.373 . S
C1533 C1549 1.377 . S
C1534 C1532 1.389 . S
C1534 C1535 1.524 . S
C1534 C1548 1.377 . S
C1535 C1534 1.524 . S
C1535 C1536 1.397 . S
C1535 C1540 1.363 . S
C1536 H1513 0.950 . S
C1536 C1535 1.397 . S
C1536 C1537 1.334 . S
C1537 H1514 0.950 . S
C1537 C1536 1.334 . S
C1537 C1538 1.287 . S
C1538 C1537 1.287 . S
C1538 C1539 1.524 . S
C1538 H1557 0.913 . S
C1539 H1515 0.950 . S
C1539 C1538 1.524 . S
C1539 C1540 1.415 . S
C1540 H1516 0.950 . S
C1540 C1535 1.363 . S
C1540 C1539 1.415 . S
C1541 H1517 0.951 . S
C1541 C1542 1.366 . S
C1541 C1543 1.388 . S
C1542 C1541 1.366 . S
C1542 C1546 1.385 . S
C1543 H1518 0.951 . S
C1543 C1541 1.388 . S
C1543 C1544 1.366 . S
C1544 C1543 1.366 . S
C1544 C1545 1.414 . S
C1544 C1547 1.499 . S
C1545 H1519 0.950 . S
C1545 C1544 1.414 . S
C1545 C1546 1.374 . S
C1546 H1520 0.950 . S
C1546 C1542 1.385 . S
C1546 C1545 1.374 . S
C1547 C1544 1.499 . S
C1547 C1548 1.373 . S
C1547 C1549 1.389 . S
C1548 H1521 0.950 . S
C1548 C1534 1.377 . S
C1548 C1547 1.373 . S
C1549 C1533 1.377 . S
C1549 C1547 1.389 . S
C1549 C1550 1.524 . S
C1550 C1549 1.524 . S
C1550 C1551 1.397 . S
C1550 C1555 1.363 . S
C1551 H1522 0.950 . S
C1551 C1550 1.397 . S
C1551 C1552 1.334 . S
C1552 H1523 0.950 . S
C1552 C1551 1.334 . S
C1552 C1553 1.287 . S
C1553 C1552 1.287 . S
C1553 C1554 1.524 . S
C1553 H1556 0.999 . S
C1554 H1524 0.950 . S
C1554 C1553 1.524 . S
C1554 C1555 1.415 . S
C1555 H1525 0.950 . S
C1555 C1550 1.363 . S
C1555 C1554 1.415 . S
H1556 C1553 0.999 . S
H1557 C1538 0.913 . S
H1558 C1576 0.951 . S
H1559 C1578 0.951 . S
H1560 C1580 0.950 . S
H1561 C1581 0.950 . S
H1562 C1583 0.950 . S
H1563 C1586 0.950 . S
H1564 C1587 0.950 . S
H1565 C1589 0.950 . S
H1566 C1590 0.950 . S
H1567 C1591 0.951 . S
H1568 C1593 0.951 . S
H1569 C1595 0.950 . S
H1570 C1596 0.950 . S
H1571 C1598 0.950 . S
H1572 C1601 0.950 . S
H1573 C1602 0.950 . S
H1574 C1604 0.950 . S
H1575 C1605 0.950 . S
C1576 H1558 0.951 . S
C1576 C1577 1.366 . S
C1576 C1578 1.388 . S
C1577 C1576 1.366 . S
C1577 C1581 1.385 . S
C1578 H1559 0.951 . S
C1578 C1576 1.388 . S
C1578 C1579 1.366 . S
C1579 C1578 1.366 . S
C1579 C1580 1.414 . S
C1579 C1582 1.499 . S
C1580 H1560 0.950 . S
C1580 C1579 1.414 . S
C1580 C1581 1.374 . S
C1581 H1561 0.950 . S
C1581 C1577 1.385 . S
C1581 C1580 1.374 . S
C1582 C1579 1.499 . S
C1582 C1583 1.373 . S
C1582 C1584 1.389 . S
C1583 H1562 0.950 . S
C1583 C1582 1.373 . S
C1583 C1599 1.377 . S
C1584 C1582 1.389 . S
C1584 C1585 1.524 . S
C1584 C1598 1.377 . S
C1585 C1584 1.524 . S
C1585 C1586 1.397 . S
C1585 C1590 1.363 . S
C1586 H1563 0.950 . S
C1586 C1585 1.397 . S
C1586 C1587 1.334 . S
C1587 H1564 0.950 . S
C1587 C1586 1.334 . S
C1587 C1588 1.287 . S
C1588 C1587 1.287 . S
C1588 C1589 1.524 . S
C1588 H1607 0.913 . S
C1589 H1565 0.950 . S
C1589 C1588 1.524 . S
C1589 C1590 1.415 . S
C1590 H1566 0.950 . S
C1590 C1585 1.363 . S
C1590 C1589 1.415 . S
C1591 H1567 0.951 . S
C1591 C1592 1.366 . S
C1591 C1593 1.388 . S
C1592 C1591 1.366 . S
C1592 C1596 1.385 . S
C1593 H1568 0.951 . S
C1593 C1591 1.388 . S
C1593 C1594 1.366 . S
C1594 C1593 1.366 . S
C1594 C1595 1.414 . S
C1594 C1597 1.499 . S
C1595 H1569 0.950 . S
C1595 C1594 1.414 . S
C1595 C1596 1.374 . S
C1596 H1570 0.950 . S
C1596 C1592 1.385 . S
C1596 C1595 1.374 . S
C1597 C1594 1.499 . S
C1597 C1598 1.373 . S
C1597 C1599 1.389 . S
C1598 H1571 0.950 . S
C1598 C1584 1.377 . S
C1598 C1597 1.373 . S
C1599 C1583 1.377 . S
C1599 C1597 1.389 . S
C1599 C1600 1.524 . S
C1600 C1599 1.524 . S
C1600 C1601 1.397 . S
C1600 C1605 1.363 . S
C1601 H1572 0.950 . S
C1601 C1600 1.397 . S
C1601 C1602 1.334 . S
C1602 H1573 0.950 . S
C1602 C1601 1.334 . S
C1602 C1603 1.287 . S
C1603 C1602 1.287 . S
C1603 C1604 1.524 . S
C1603 H1606 0.999 . S
C1604 H1574 0.950 . S
C1604 C1603 1.524 . S
C1604 C1605 1.415 . S
C1605 H1575 0.950 . S
C1605 C1600 1.363 . S
C1605 C1604 1.415 . S
H1606 C1603 0.999 . S
H1607 C1588 0.913 . S
H1608 C1626 0.951 . S
H1609 C1628 0.951 . S
H1610 C1630 0.950 . S
H1611 C1631 0.950 . S
H1612 C1633 0.950 . S
H1613 C1636 0.950 . S
H1614 C1637 0.950 . S
H1615 C1639 0.950 . S
H1616 C1640 0.950 . S
H1617 C1641 0.951 . S
H1618 C1643 0.951 . S
H1619 C1645 0.950 . S
H1620 C1646 0.950 . S
H1621 C1648 0.950 . S
H1622 C1651 0.950 . S
H1623 C1652 0.950 . S
H1624 C1654 0.950 . S
H1625 C1655 0.950 . S
C1626 H1608 0.951 . S
C1626 C1627 1.366 . S
C1626 C1628 1.388 . S
C1627 C1626 1.366 . S
C1627 C1631 1.385 . S
C1628 H1609 0.951 . S
C1628 C1626 1.388 . S
C1628 C1629 1.366 . S
C1629 C1628 1.366 . S
C1629 C1630 1.414 . S
C1629 C1632 1.499 . S
C1630 H1610 0.950 . S
C1630 C1629 1.414 . S
C1630 C1631 1.374 . S
C1631 H1611 0.950 . S
C1631 C1627 1.385 . S
C1631 C1630 1.374 . S
C1632 C1629 1.499 . S
C1632 C1633 1.373 . S
C1632 C1634 1.389 . S
C1633 H1612 0.950 . S
C1633 C1632 1.373 . S
C1633 C1649 1.377 . S
C1634 C1632 1.389 . S
C1634 C1635 1.524 . S
C1634 C1648 1.377 . S
C1635 C1634 1.524 . S
C1635 C1636 1.397 . S
C1635 C1640 1.363 . S
C1636 H1613 0.950 . S
C1636 C1635 1.397 . S
C1636 C1637 1.334 . S
C1637 H1614 0.950 . S
C1637 C1636 1.334 . S
C1637 C1638 1.287 . S
C1638 C1637 1.287 . S
C1638 C1639 1.524 . S
C1638 H1657 0.913 . S
C1639 H1615 0.950 . S
C1639 C1638 1.524 . S
C1639 C1640 1.415 . S
C1640 H1616 0.950 . S
C1640 C1635 1.363 . S
C1640 C1639 1.415 . S
C1641 H1617 0.951 . S
C1641 C1642 1.366 . S
C1641 C1643 1.388 . S
C1642 C1641 1.366 . S
C1642 C1646 1.385 . S
C1643 H1618 0.951 . S
C1643 C1641 1.388 . S
C1643 C1644 1.366 . S
C1644 C1643 1.366 . S
C1644 C1645 1.414 . S
C1644 C1647 1.499 . S
C1645 H1619 0.950 . S
C1645 C1644 1.414 . S
C1645 C1646 1.374 . S
C1646 H1620 0.950 . S
C1646 C1642 1.385 . S
C1646 C1645 1.374 . S
C1647 C1644 1.499 . S
C1647 C1648 1.373 . S
C1647 C1649 1.389 . S
C1648 H1621 0.950 . S
C1648 C1634 1.377 . S
C1648 C1647 1.373 . S
C1649 C1633 1.377 . S
C1649 C1647 1.389 . S
C1649 C1650 1.524 . S
C1650 C1649 1.524 . S
C1650 C1651 1.397 . S
C1650 C1655 1.363 . S
C1651 H1622 0.950 . S
C1651 C1650 1.397 . S
C1651 C1652 1.334 . S
C1652 H1623 0.950 . S
C1652 C1651 1.334 . S
C1652 C1653 1.287 . S
C1653 C1652 1.287 . S
C1653 C1654 1.524 . S
C1653 H1656 0.999 . S
C1654 H1624 0.950 . S
C1654 C1653 1.524 . S
C1654 C1655 1.415 . S
C1655 H1625 0.950 . S
C1655 C1650 1.363 . S
C1655 C1654 1.415 . S
H1656 C1653 0.999 . S
H1657 C1638 0.913 . S
H1658 C1676 0.951 . S
H1659 C1678 0.951 . S
H1660 C1680 0.950 . S
H1661 C1681 0.950 . S
H1662 C1683 0.950 . S
H1663 C1686 0.950 . S
H1664 C1687 0.950 1_565 S
H1665 C1689 0.950 . S
H1666 C1690 0.950 . S
H1667 C1691 0.951 . S
H1668 C1693 0.951 . S
H1669 C1695 0.950 . S
H1670 C1696 0.950 . S
H1671 C1698 0.950 . S
H1672 C1701 0.950 . S
H1673 C1702 0.950 . S
H1674 C1704 0.950 . S
H1675 C1705 0.950 . S
C1676 H1658 0.951 . S
C1676 C1677 1.366 . S
C1676 C1678 1.388 . S
C1677 C1676 1.366 . S
C1677 C1681 1.385 . S
C1678 H1659 0.951 . S
C1678 C1676 1.388 . S
C1678 C1679 1.366 . S
C1679 C1678 1.366 . S
C1679 C1680 1.414 . S
C1679 C1682 1.499 . S
C1680 H1660 0.950 . S
C1680 C1679 1.414 . S
C1680 C1681 1.374 . S
C1681 H1661 0.950 . S
C1681 C1677 1.385 . S
C1681 C1680 1.374 . S
C1682 C1679 1.499 . S
C1682 C1683 1.373 . S
C1682 C1684 1.389 . S
C1683 H1662 0.950 . S
C1683 C1682 1.373 . S
C1683 C1699 1.377 . S
C1684 C1682 1.389 . S
C1684 C1685 1.524 . S
C1684 C1698 1.377 . S
C1685 C1684 1.524 . S
C1685 C1686 1.397 . S
C1685 C1690 1.363 . S
C1686 H1663 0.950 . S
C1686 C1685 1.397 . S
C1686 C1687 1.334 . S
C1687 H1664 0.950 1_545 S
C1687 C1686 1.334 . S
C1687 C1688 1.287 . S
C1688 C1687 1.287 . S
C1688 C1689 1.524 . S
C1688 H1707 0.913 . S
C1689 H1665 0.950 . S
C1689 C1688 1.524 . S
C1689 C1690 1.415 . S
C1690 H1666 0.950 . S
C1690 C1685 1.363 . S
C1690 C1689 1.415 . S
C1691 H1667 0.951 . S
C1691 C1692 1.366 . S
C1691 C1693 1.388 . S
C1692 C1691 1.366 . S
C1692 C1696 1.385 . S
C1693 H1668 0.951 . S
C1693 C1691 1.388 . S
C1693 C1694 1.366 . S
C1694 C1693 1.366 . S
C1694 C1695 1.414 . S
C1694 C1697 1.499 . S
C1695 H1669 0.950 . S
C1695 C1694 1.414 . S
C1695 C1696 1.374 . S
C1696 H1670 0.950 . S
C1696 C1692 1.385 . S
C1696 C1695 1.374 . S
C1697 C1694 1.499 . S
C1697 C1698 1.373 . S
C1697 C1699 1.389 . S
C1698 H1671 0.950 . S
C1698 C1684 1.377 . S
C1698 C1697 1.373 . S
C1699 C1683 1.377 . S
C1699 C1697 1.389 . S
C1699 C1700 1.524 . S
C1700 C1699 1.524 . S
C1700 C1701 1.397 . S
C1700 C1705 1.363 . S
C1701 H1672 0.950 . S
C1701 C1700 1.397 . S
C1701 C1702 1.334 . S
C1702 H1673 0.950 . S
C1702 C1701 1.334 . S
C1702 C1703 1.287 . S
C1703 C1702 1.287 . S
C1703 C1704 1.524 . S
C1703 H1706 0.999 . S
C1704 H1674 0.950 . S
C1704 C1703 1.524 . S
C1704 C1705 1.415 . S
C1705 H1675 0.950 . S
C1705 C1700 1.363 . S
C1705 C1704 1.415 . S
H1706 C1703 0.999 . S
H1707 C1688 0.913 . S
H1708 C1726 0.951 . S
H1709 C1728 0.951 . S
H1710 C1730 0.950 . S
H1711 C1731 0.950 . S
H1712 C1733 0.950 . S
H1713 C1736 0.950 . S
H1714 C1737 0.950 1_455 S
H1715 C1739 0.950 . S
H1716 C1740 0.950 . S
H1717 C1741 0.951 . S
H1718 C1743 0.951 . S
H1719 C1745 0.950 . S
H1720 C1746 0.950 . S
H1721 C1748 0.950 . S
H1722 C1751 0.950 . S
H1723 C1752 0.950 . S
H1724 C1754 0.950 . S
H1725 C1755 0.950 . S
C1726 H1708 0.951 . S
C1726 C1727 1.366 . S
C1726 C1728 1.388 . S
C1727 C1726 1.366 . S
C1727 C1731 1.385 . S
C1728 H1709 0.951 . S
C1728 C1726 1.388 . S
C1728 C1729 1.366 . S
C1729 C1728 1.366 . S
C1729 C1730 1.414 . S
C1729 C1732 1.499 . S
C1730 H1710 0.950 . S
C1730 C1729 1.414 . S
C1730 C1731 1.374 . S
C1731 H1711 0.950 . S
C1731 C1727 1.385 . S
C1731 C1730 1.374 . S
C1732 C1729 1.499 . S
C1732 C1733 1.373 . S
C1732 C1734 1.389 . S
C1733 H1712 0.950 . S
C1733 C1732 1.373 . S
C1733 C1749 1.377 . S
C1734 C1732 1.389 . S
C1734 C1735 1.524 . S
C1734 C1748 1.377 . S
C1735 C1734 1.524 . S
C1735 C1736 1.397 . S
C1735 C1740 1.363 . S
C1736 H1713 0.950 . S
C1736 C1735 1.397 . S
C1736 C1737 1.334 . S
C1737 H1714 0.950 1_655 S
C1737 C1736 1.334 . S
C1737 C1738 1.287 . S
C1738 C1737 1.287 . S
C1738 C1739 1.524 . S
C1738 H1757 0.913 . S
C1739 H1715 0.950 . S
C1739 C1738 1.524 . S
C1739 C1740 1.415 . S
C1740 H1716 0.950 . S
C1740 C1735 1.363 . S
C1740 C1739 1.415 . S
C1741 H1717 0.951 . S
C1741 C1742 1.366 . S
C1741 C1743 1.388 . S
C1742 C1741 1.366 . S
C1742 C1746 1.385 . S
C1743 H1718 0.951 . S
C1743 C1741 1.388 . S
C1743 C1744 1.366 . S
C1744 C1743 1.366 . S
C1744 C1745 1.414 . S
C1744 C1747 1.499 . S
C1745 H1719 0.950 . S
C1745 C1744 1.414 . S
C1745 C1746 1.374 . S
C1746 H1720 0.950 . S
C1746 C1742 1.385 . S
C1746 C1745 1.374 . S
C1747 C1744 1.499 . S
C1747 C1748 1.373 . S
C1747 C1749 1.389 . S
C1748 H1721 0.950 . S
C1748 C1734 1.377 . S
C1748 C1747 1.373 . S
C1749 C1733 1.377 . S
C1749 C1747 1.389 . S
C1749 C1750 1.524 . S
C1750 C1749 1.524 . S
C1750 C1751 1.397 . S
C1750 C1755 1.363 . S
C1751 H1722 0.950 . S
C1751 C1750 1.397 . S
C1751 C1752 1.334 . S
C1752 H1723 0.950 . S
C1752 C1751 1.334 . S
C1752 C1753 1.287 . S
C1753 C1752 1.287 . S
C1753 C1754 1.524 . S
C1753 H1756 0.999 . S
C1754 H1724 0.950 . S
C1754 C1753 1.524 . S
C1754 C1755 1.415 . S
C1755 H1725 0.950 . S
C1755 C1750 1.363 . S
C1755 C1754 1.415 . S
H1756 C1753 0.999 . S
H1757 C1738 0.913 . S
H1758 C1776 0.951 . S
H1759 C1778 0.951 . S
H1760 C1780 0.950 . S
H1761 C1781 0.950 . S
H1762 C1783 0.950 . S
H1763 C1786 0.950 . S
H1764 C1787 0.950 . S
H1765 C1789 0.950 . S
H1766 C1790 0.950 . S
H1767 C1791 0.951 . S
H1768 C1793 0.951 . S
H1769 C1795 0.950 . S
H1770 C1796 0.950 . S
H1771 C1798 0.950 . S
H1772 C1801 0.950 . S
H1773 C1802 0.950 . S
H1774 C1804 0.950 . S
H1775 C1805 0.950 . S
C1776 H1758 0.951 . S
C1776 C1777 1.366 . S
C1776 C1778 1.388 . S
C1777 C1776 1.366 . S
C1777 C1781 1.385 . S
C1778 H1759 0.951 . S
C1778 C1776 1.388 . S
C1778 C1779 1.366 . S
C1779 C1778 1.366 . S
C1779 C1780 1.414 . S
C1779 C1782 1.499 . S
C1780 H1760 0.950 . S
C1780 C1779 1.414 . S
C1780 C1781 1.374 . S
C1781 H1761 0.950 . S
C1781 C1777 1.385 . S
C1781 C1780 1.374 . S
C1782 C1779 1.499 . S
C1782 C1783 1.373 . S
C1782 C1784 1.389 . S
C1783 H1762 0.950 . S
C1783 C1782 1.373 . S
C1783 C1799 1.377 . S
C1784 C1782 1.389 . S
C1784 C1785 1.524 . S
C1784 C1798 1.377 . S
C1785 C1784 1.524 . S
C1785 C1786 1.397 . S
C1785 C1790 1.363 . S
C1786 H1763 0.950 . S
C1786 C1785 1.397 . S
C1786 C1787 1.334 . S
C1787 H1764 0.950 . S
C1787 C1786 1.334 . S
C1787 C1788 1.287 . S
C1788 C1787 1.287 . S
C1788 C1789 1.524 . S
C1788 H1807 0.913 . S
C1789 H1765 0.950 . S
C1789 C1788 1.524 . S
C1789 C1790 1.415 . S
C1790 H1766 0.950 . S
C1790 C1785 1.363 . S
C1790 C1789 1.415 . S
C1791 H1767 0.951 . S
C1791 C1792 1.366 . S
C1791 C1793 1.388 . S
C1792 C1791 1.366 . S
C1792 C1796 1.385 . S
C1793 H1768 0.951 . S
C1793 C1791 1.388 . S
C1793 C1794 1.366 . S
C1794 C1793 1.366 . S
C1794 C1795 1.414 . S
C1794 C1797 1.499 . S
C1795 H1769 0.950 . S
C1795 C1794 1.414 . S
C1795 C1796 1.374 . S
C1796 H1770 0.950 . S
C1796 C1792 1.385 . S
C1796 C1795 1.374 . S
C1797 C1794 1.499 . S
C1797 C1798 1.373 . S
C1797 C1799 1.389 . S
C1798 H1771 0.950 . S
C1798 C1784 1.377 . S
C1798 C1797 1.373 . S
C1799 C1783 1.377 . S
C1799 C1797 1.389 . S
C1799 C1800 1.524 . S
C1800 C1799 1.524 . S
C1800 C1801 1.397 . S
C1800 C1805 1.363 . S
C1801 H1772 0.950 . S
C1801 C1800 1.397 . S
C1801 C1802 1.334 . S
C1802 H1773 0.950 . S
C1802 C1801 1.334 . S
C1802 C1803 1.287 . S
C1803 C1802 1.287 . S
C1803 C1804 1.524 . S
C1803 H1806 0.999 . S
C1804 H1774 0.950 . S
C1804 C1803 1.524 . S
C1804 C1805 1.415 . S
C1805 H1775 0.950 . S
C1805 C1800 1.363 . S
C1805 C1804 1.415 . S
H1806 C1803 0.999 . S
H1807 C1788 0.913 . S
C242 C117 1.142 . S
C227 C5 1.168 . S
C292 C135 1.086 . S
C277 C18 1.153 . S
C342 C143 1.142 . S
C327 C31 1.171 . S
C377 C42 1.148 . S
C392 C109 1.091 . S
C427 C57 1.170 . S
C442 C104 1.137 1_556 S
C477 C70 1.155 . S
C492 C122 1.086 . S
C542 C130 1.140 . S
C527 C81 1.168 . S
C592 C148 1.087 . S
C577 C96 1.156 . S
C627 C29 1.166 . S
C642 C169 1.142 . S
C692 C187 1.087 . S
C677 C44 1.152 . S
C727 C3 1.165 . S
C742 C195 1.145 . S
C792 C161 1.085 . S
C777 C16 1.151 . S
C827 C83 1.170 . S
C842 C156 1.140 . S
C877 C94 1.148 . S
C892 C174 1.084 . S
C942 C182 1.141 1_556 S
C927 C55 1.168 . S
C977 C68 1.148 . S
C992 C200 1.088 . S
C1042 C138 1.272 . S
C1027 C1 1.249 . S
C1092 C153 1.249 . S
C1077 C14 1.254 . S
C1127 C27 1.250 . S
C1142 C112 1.272 . S
C1177 C49 1.275 . S
C1192 C127 1.250 . S
C1227 C53 1.250 . S
C1242 C151 1.270 . S
C1292 C114 1.248 . S
C1277 C66 1.256 . S
C1342 C125 1.272 . S
C1327 C88 1.270 . S
C1392 C140 1.249 . S
C1377 C92 1.256 . S
C1442 C190 1.272 . S
C1427 C36 1.268 . S
C1492 C205 1.249 . S
C1477 C40 1.253 . S
C1527 C10 1.267 . S
C1542 C164 1.271 . S
C1592 C179 1.249 . S
C1577 C23 1.277 . S
C1642 C203 1.272 . S
C1627 C79 1.249 . S
C1677 C101 1.275 . S
C1692 C166 1.249 . S
C1742 C177 1.272 . S
C1727 C62 1.270 . S
C1792 C192 1.249 . S
C1777 C75 1.274 . S
