# Generated by pormake.
# Topology nia, (6,6)-cn, num edge types: 1
# Building blocks:
#     Node 0, Type 0, BuildingBlock: KUMBUR_clean_sbu_0, # of connection points: 6
#     Node 1, Type 0, BuildingBlock: KUMBUR_clean_sbu_0, # of connection points: 6
#     Node 2, Type 1, BuildingBlock: MIDCAF_clean_sbu_0, # of connection points: 6
#     Node 3, Type 1, BuildingBlock: MIDCAF_clean_sbu_0, # of connection points: 6
#     Edge 4, Type (0, 1), BuildingBlock: TEMPAE_clean_linker_10, # of connection points: 2
#     Edge 5, Type (0, 1), BuildingBlock: TEMPAE_clean_linker_10, # of connection points: 2
#     Edge 6, Type (0, 1), BuildingBlock: TEMPAE_clean_linker_10, # of connection points: 2
#     Edge 7, Type (0, 1), BuildingBlock: TEMPAE_clean_linker_10, # of connection points: 2
#     Edge 8, Type (0, 1), BuildingBlock: TEMPAE_clean_linker_10, # of connection points: 2
#     Edge 9, Type (0, 1), BuildingBlock: TEMPAE_clean_linker_10, # of connection points: 2
#     Edge 10, Type (0, 1), BuildingBlock: TEMPAE_clean_linker_10, # of connection points: 2
#     Edge 11, Type (0, 1), BuildingBlock: TEMPAE_clean_linker_10, # of connection points: 2
#     Edge 12, Type (0, 1), BuildingBlock: TEMPAE_clean_linker_10, # of connection points: 2
#     Edge 13, Type (0, 1), BuildingBlock: TEMPAE_clean_linker_10, # of connection points: 2
#     Edge 14, Type (0, 1), BuildingBlock: TEMPAE_clean_linker_10, # of connection points: 2
#     Edge 15, Type (0, 1), BuildingBlock: TEMPAE_clean_linker_10, # of connection points: 2
# Relax obj value: 0.169
# Max RMSD: 0.286
# Mean RMSD: 0.205
data_MOF--net-nia--node1-KUMBUR_clean_sbu_0--node2-MIDCAF_clean_sbu_0--edge1-TEMPAE_clean_linker_10
_symmetry_space_group_name_H-M    P1
_symmetry_Int_Tables_number       1
_symmetry_cell_setting            triclinic
loop_
_symmetry_equiv_pos_as_xyz
'x, y, z'
_cell_length_a     28.514554
_cell_length_b     28.526173
_cell_length_c     32.908177
_cell_angle_alpha  90.030896
_cell_angle_beta   90.254662
_cell_angle_gamma 138.92025
loop_
_atom_site_label
_atom_site_type_symbol
_atom_site_fract_x
_atom_site_fract_y
_atom_site_fract_z
_atom_type_partial_charge
Tb0 Tb 0.03626 0.00035 0.05833 0.0
C1 C 0.98785 0.99291 0.87531 0.0
C2 C 0.09897 0.10911 0.85084 0.0
C3 C 0.02601 0.00568 0.80617 0.0
C4 C 0.04892 0.06501 0.88218 0.0
C5 C 0.97516 0.96254 0.83703 0.0
C6 C 0.08773 0.07887 0.81303 0.0
C7 C 0.86157 0.84984 0.86194 0.0
N8 N 0.94052 0.95265 0.90613 0.0
C9 C 0.8765 0.88218 0.89942 0.0
C10 C 0.91145 0.88993 0.83075 0.0
Tb11 Tb 0.9728 0.0119 0.96673 0.0
N12 N 0.05895 0.09211 0.91944 0.0
C13 C 0.1158 0.1641 0.92638 0.0
C14 C 0.15857 0.18231 0.85836 0.0
C15 C 0.16665 0.20997 0.89618 0.0
H16 H 0.83783 0.85007 0.92341 0.0
H17 H 0.21221 0.26664 0.90215 0.0
H18 H 0.12605 0.11174 0.78877 0.0
H19 H 0.8116 0.7939 0.85722 0.0
H20 H 0.12321 0.18657 0.95542 0.0
H21 H 0.80506 0.74221 0.12353 0.0
H22 H 0.19804 0.21801 0.83505 0.0
H23 H 0.16368 0.16103 0.10097 0.0
H24 H 0.89384 0.82475 0.0705 0.0
H25 H 0.18604 0.21697 0.16678 0.0
H26 H 0.01761 0.98315 0.77672 0.0
H27 H 0.81181 0.78922 0.18923 0.0
H28 H 0.87534 0.89525 0.23416 0.0
H29 H 0.8998 0.86462 0.80179 0.0
H30 H 0.97809 0.02498 0.24561 0.0
N31 N 0.9497 0.9185 0.10507 0.0
C32 C 0.89755 0.84636 0.09887 0.0
C33 C 0.85068 0.82592 0.1659 0.0
C34 C 0.90556 0.89962 0.17269 0.0
C35 C 0.84692 0.79919 0.12892 0.0
C36 C 0.95505 0.94499 0.14138 0.0
H37 H 0.09479 0.14554 0.22076 0.0
N38 N 0.0601 0.05887 0.11725 0.0
C39 C 0.13616 0.16129 0.16151 0.0
C40 C 0.01184 0.01778 0.14761 0.0
C41 C 0.12359 0.12939 0.12437 0.0
C42 C 0.08462 0.12065 0.19194 0.0
C43 C 0.02214 0.04762 0.18554 0.0
O44 O 0.13412 0.04452 0.07671 0.0
O45 O 0.05671 0.03624 0.99658 0.0
O46 O 0.97842 0.94217 0.95261 0.0
O47 O 0.97915 0.90749 0.01712 0.0
O48 O 0.14234 0.09837 0.03388 0.0
O49 O 0.03894 0.93045 0.07334 0.0
O50 O 0.8782 0.98009 0.96974 0.0
O51 O 0.95198 0.97411 0.02799 0.0
O52 O 0.02045 0.06222 0.07079 0.0
O53 O 0.03583 0.10682 1.00691 0.0
O54 O 0.86809 0.90909 0.98864 0.0
O55 O 0.97023 0.07791 0.9407 0.0
C56 C 0.12328 0.09163 0.99689 0.0
C57 C 0.12076 0.97535 0.12669 0.0
C58 C 0.1513 0.93315 0.17171 0.0
C59 C 0.13618 0.93916 0.13238 0.0
C60 C 0.14629 0.95964 0.20531 0.0
C61 C 0.12174 0.00587 0.16067 0.0
C62 C 0.13219 -0.00368 0.19967 0.0
C63 C 0.97087 0.89991 0.97682 0.0
C64 C 0.10532 0.98246 0.08553 0.0
C65 C 0.97154 0.00309 0.21634 0.0
C66 C 0.91324 0.92918 0.20989 0.0
C67 C 0.88637 0.91536 0.02593 0.0
C68 C 0.85697 0.01147 0.91235 0.0
C69 C 0.85977 0.0594 0.89658 0.0
C70 C 0.81505 0.03888 0.86381 0.0
C71 C 0.76874 0.97046 0.84663 0.0
C72 C 0.80831 0.94264 0.8954 0.0
C73 C 0.76547 0.92281 0.86241 0.0
C74 C 0.03499 0.10913 0.04717 0.0
C75 C 0.90241 0.03206 0.94736 0.0
H76 H 0.13914 0.91841 0.10622 0.0
H77 H 0.15539 0.95383 0.23594 0.0
H78 H 0.11615 0.03858 0.15748 0.0
H79 H 0.13111 0.01899 0.22552 0.0
H80 H 0.89594 0.11203 0.91005 0.0
H81 H 0.73293 0.95269 0.82191 0.0
H82 H 0.80198 0.90335 0.90815 0.0
H83 H 0.72834 0.86966 0.84963 0.0
Tb84 Tb 0.97027 0.0185 0.54238 0.0
C85 C 0.0215 0.96431 0.3798 0.0
C86 C 0.90149 0.85057 0.36067 0.0
C87 C 0.98735 0.93517 0.30842 0.0
C88 C 0.95336 0.89919 0.39089 0.0
C89 C 0.03985 0.98188 0.33844 0.0
C90 C 0.91818 0.86983 0.31952 0.0
C91 C 0.16242 0.08628 0.35933 0.0
N92 N 0.07114 0.00828 0.40955 0.0
C93 C 0.14175 0.06656 0.39993 0.0
C94 C 0.11104 0.04455 0.32846 0.0
Tb95 Tb 0.02972 0.97226 0.47456 0.0
N96 N 0.93919 0.88196 0.43104 0.0
C97 C 0.87654 0.81391 0.44236 0.0
C98 C 0.83515 0.78315 0.3726 0.0
C99 C 0.82324 0.76429 0.41349 0.0
H100 H 0.18189 0.09899 0.42355 0.0
H101 H 0.77282 0.71146 0.42288 0.0
H102 H 0.8787 0.8335 0.29597 0.0
H103 H 0.21794 0.13365 0.35186 0.0
H104 H 0.86536 0.79745 0.47361 0.0
H105 H 0.22085 0.29035 0.58219 0.0
H106 H 0.79372 0.74449 0.35037 0.0
H107 H 0.8362 0.8785 0.59939 0.0
H108 H 0.12648 0.19228 0.53553 0.0
H109 H 0.81124 0.84974 0.67262 0.0
H110 H 0.00036 0.94803 0.27652 0.0
H111 H 0.20863 0.26943 0.65626 0.0
H112 H 0.13398 0.18569 0.71468 0.0
H113 H 0.12723 0.05993 0.29704 0.0
H114 H 0.02189 0.06684 0.73912 0.0
N115 N 0.0612 0.11491 0.58242 0.0
C116 C 0.11986 0.18187 0.5677 0.0
C117 C 0.16675 0.22589 0.63589 0.0
C118 C 0.10512 0.15817 0.65095 0.0
C119 C 0.1738 0.23791 0.59411 0.0
C120 C 0.0525 0.10313 0.62311 0.0
H121 H 0.90228 0.94093 0.72384 0.0
N122 N 0.94113 0.9842 0.60917 0.0
C123 C 0.86188 0.90218 0.663 0.0
C124 C 0.99032 0.03574 0.63694 0.0
C125 C 0.87616 0.9186 0.62164 0.0
C126 C 0.9134 0.95379 0.69181 0.0
C127 C 0.97821 0.02177 0.67897 0.0
O128 O 0.87331 0.98198 0.53992 0.0
O129 O 0.9523 0.96829 0.48583 0.0
O130 O 0.05525 0.05684 0.44349 0.0
O131 O 0.02963 0.09574 0.49179 0.0
O132 O 0.86563 0.91504 0.52098 0.0
O133 O 0.97208 0.09398 0.54736 0.0
O134 O 0.07788 0.95747 0.51208 0.0
O135 O 0.05156 0.02934 0.52791 0.0
O136 O 0.969 0.95056 0.57344 0.0
O137 O 0.95297 0.88708 0.51938 0.0
O138 O 0.13634 0.0779 0.4925 0.0
O139 O 0.05708 0.9271 0.44946 0.0
C140 C 0.88539 0.91466 0.48594 0.0
C141 C 0.86944 0.04685 0.58102 0.0
C142 C 0.84725 0.10446 0.61545 0.0
C143 C 0.88018 0.10372 0.58408 0.0
C144 C 0.8054 0.04952 0.64418 0.0
C145 C 0.8233 0.99015 0.60874 0.0
C146 C 0.7932 0.99246 0.64064 0.0
C147 C 0.05358 0.09983 0.45574 0.0
C148 C 0.90257 0.04441 0.54779 0.0
C149 C 0.03057 0.07629 0.70677 0.0
C150 C 0.09417 0.14413 0.69282 0.0
C151 C 0.11851 0.08367 0.52652 0.0
C152 C 0.1612 0.97185 0.47797 0.0
C153 C 0.17164 0.93908 0.4545 0.0
C154 C 0.24015 0.9708 0.45069 0.0
C155 C 0.2983 0.0364 0.47026 0.0
C156 C 0.22019 0.03719 0.49745 0.0
C157 C 0.28825 0.0693 0.49336 0.0
C158 C 0.95109 0.89562 0.55879 0.0
C159 C 0.08846 0.93643 0.48241 0.0
H160 H 0.91245 0.1461 0.56182 0.0
H161 H 0.77937 0.04916 0.6683 0.0
H162 H 0.80844 0.94276 0.60528 0.0
H163 H 0.75852 0.94877 0.66196 0.0
H164 H 0.12615 0.88811 0.43996 0.0
H165 H 0.35169 0.06245 0.46753 0.0
H166 H 0.21394 0.06341 0.51606 0.0
H167 H 0.33337 0.11974 0.50835 0.0
Zn168 Zn 0.35813 0.67766 0.18468 0.0
Zn169 Zn 0.37613 0.67434 0.33271 0.0
Zn170 Zn 0.37123 0.67296 0.25774 0.0
C171 C 0.51499 0.76518 0.30899 0.0
C172 C 0.29693 0.53719 0.30947 0.0
O173 O 0.34139 0.72514 0.24311 0.0
O174 O 0.35945 0.74593 0.17713 0.0
C175 C 0.48926 0.73431 0.19343 0.0
O176 O 0.4824 0.73503 0.27464 0.0
O177 O 0.48125 0.7553 0.33919 0.0
O178 O 0.33209 0.5788 0.33955 0.0
O179 O 0.29816 0.56039 0.27547 0.0
O180 O 0.44366 0.71008 0.16653 0.0
O181 O 0.47501 0.72982 0.2313 0.0
O182 O 0.2877 0.56172 0.23403 0.0
O183 O 0.26642 0.57732 0.17396 0.0
C184 C 0.25139 0.53594 0.20061 0.0
O185 O 0.34288 0.72154 0.28558 0.0
O186 O 0.32173 0.68914 0.34995 0.0
C187 C 0.34307 0.75179 0.21059 0.0
C188 C 0.32198 0.71858 0.32127 0.0
Zn189 Zn 0.64304 0.31542 0.8362 0.0
Zn190 Zn 0.63452 0.34739 0.68866 0.0
Zn191 Zn 0.63444 0.33415 0.76175 0.0
C192 C 0.70763 0.47676 0.72027 0.0
C193 C 0.4944 0.2464 0.70708 0.0
O194 O 0.66758 0.28309 0.76893 0.0
O195 O 0.66052 0.26125 0.83451 0.0
C196 C 0.73996 0.46075 0.82809 0.0
O197 O 0.7076 0.44875 0.75092 0.0
O198 O 0.67065 0.43955 0.68918 0.0
O199 O 0.53187 0.26266 0.67716 0.0
O200 O 0.52349 0.27179 0.74266 0.0
O201 O 0.72329 0.41672 0.85321 0.0
O202 O 0.71074 0.43956 0.79252 0.0
O203 O 0.52674 0.26849 0.78625 0.0
O204 O 0.54617 0.26283 0.85021 0.0
C205 C 0.50511 0.24839 0.82321 0.0
O206 O 0.67315 0.2999 0.72812 0.0
O207 O 0.69975 0.34811 0.66759 0.0
C208 C 0.67293 0.25769 0.79869 0.0
C209 C 0.70077 0.3154 0.69252 0.0
C210 C 0.14662 0.84299 0.15779 0.0
C211 C 0.17751 0.90445 0.17812 0.0
C212 C 0.17221 0.81656 0.16424 0.0
C213 C 0.22941 0.85217 0.19191 0.0
C214 C 0.26068 0.91427 0.21241 0.0
C215 C 0.23476 0.93983 0.20499 0.0
C216 C 0.1388 0.75122 0.14111 0.0
C217 C 0.32316 0.95616 0.24129 0.0
C218 C 0.25859 0.75056 0.23189 0.0
C219 C 0.3192 0.78283 0.21028 0.0
C220 C 0.22805 0.77196 0.22619 0.0
C221 C 0.25903 0.82676 0.19797 0.0
C222 C 0.32051 0.85954 0.17618 0.0
C223 C 0.35003 0.83739 0.18278 0.0
C224 C 0.16076 0.73251 0.24914 0.0
C225 C 0.35401 0.91665 0.14502 0.0
H226 H 0.10226 0.81539 0.13708 0.0
H227 H 0.2604 0.98861 0.21997 0.0
H228 H 0.18062 0.76263 0.1249 0.0
H229 H 0.11272 0.70724 0.16269 0.0
H230 H 0.09827 0.73276 0.11863 0.0
H231 H 0.31696 0.97527 0.26779 0.0
H232 H 0.32991 0.92495 0.25253 0.0
H233 H 0.37276 0.00407 0.22552 0.0
H234 H 0.23288 0.70619 0.25181 0.0
H235 H 0.39629 0.86142 0.16552 0.0
H236 H 0.14681 0.75974 0.24868 0.0
H237 H 0.16595 0.72461 0.28119 0.0
H238 H 0.11575 0.67866 0.23544 0.0
H239 H 0.31274 0.89874 0.1235 0.0
H240 H 0.39637 0.93064 0.12739 0.0
H241 H 0.37806 0.96559 0.16043 0.0
C242 C 0.13981 0.07729 0.59968 0.0
C243 C 0.16633 0.11359 0.56248 0.0
C244 C 0.18547 0.09798 0.63148 0.0
C245 C 0.26002 0.1544 0.62534 0.0
C246 C 0.28751 0.19333 0.5885 0.0
C247 C 0.24033 0.17278 0.5577 0.0
C248 C 0.15316 0.05576 0.67041 0.0
C249 C 0.36668 0.25351 0.58037 0.0
C250 C 0.40272 0.24062 0.70616 0.0
C251 C 0.42152 0.20821 0.69778 0.0
C252 C 0.34611 0.21984 0.68505 0.0
C253 C 0.30875 0.16654 0.65444 0.0
C254 C 0.32378 0.1297 0.64847 0.0
C255 C 0.37994 0.15102 0.67022 0.0
C256 C 0.32994 0.25861 0.69317 0.0
C257 C 0.28478 0.07194 0.61653 0.0
H258 H 0.08338 0.03067 0.60378 0.0
H259 H 0.26135 0.20063 0.52891 0.0
H260 H 0.14856 0.01356 0.66886 0.0
H261 H 0.18682 0.09009 0.69718 0.0
H262 H 0.09883 0.02939 0.67508 0.0
H263 H 0.37984 0.28287 0.55216 0.0
H264 H 0.39596 0.29177 0.60621 0.0
H265 H 0.38618 0.23164 0.57723 0.0
H266 H 0.43629 0.28657 0.72623 0.0
H267 H 0.39509 0.12663 0.6633 0.0
H268 H 0.27167 0.21988 0.69703 0.0
H269 H 0.34653 0.29257 0.66677 0.0
H270 H 0.35814 0.29303 0.7207 0.0
H271 H 0.22625 0.03118 0.62036 0.0
H272 H 0.2992 0.04505 0.61767 0.0
H273 H 0.29794 0.09553 0.58593 0.0
C274 C 0.11126 0.23784 0.05628 0.0
C275 C 0.05343 0.16689 0.06848 0.0
C276 C 0.13714 0.29355 0.08143 0.0
C277 C 0.10325 0.27739 0.11906 0.0
C278 C 0.04275 0.20556 0.13043 0.0
C279 C 0.01916 0.15142 0.1052 0.0
C280 C 0.20252 0.36975 0.06858 0.0
C281 C 0.00424 0.18549 0.16986 0.0
C282 C 0.21689 0.42598 0.19803 0.0
C283 C 0.20079 0.46061 0.18913 0.0
C284 C 0.1833 0.36416 0.17661 0.0
C285 C 0.1315 0.33592 0.1464 0.0
C286 C 0.10999 0.36674 0.14048 0.0
C287 C 0.14549 0.42926 0.16164 0.0
C288 C 0.2064 0.33179 0.18459 0.0
C289 C 0.0525 0.33618 0.11006 0.0
H290 H 0.13859 0.24987 0.02832 0.0
H291 H 0.9748 0.09668 0.11494 0.0
H292 H 0.19028 0.39853 0.06702 0.0
H293 H 0.24564 0.39757 0.09155 0.0
H294 H 0.22263 0.37334 0.03853 0.0
H295 H 0.95045 0.12858 0.17001 0.0
H296 H 0.03556 0.19402 0.19541 0.0
H297 H -0.00167 0.21917 0.17561 0.0
H298 H 0.25988 0.45043 0.21917 0.0
H299 H 0.13274 0.45594 0.155 0.0
H300 H 0.22426 0.32864 0.1559 0.0
H301 H 0.16052 0.27681 0.19611 0.0
H302 H 0.25042 0.36277 0.20731 0.0
H303 H 0.072 0.34427 0.07882 0.0
H304 H 0.03658 0.3616 0.11239 0.0
H305 H 0.00459 0.27786 0.11458 0.0
C306 C 0.88402 0.20638 0.649 0.0
C307 C 0.84874 0.15715 0.61695 0.0
C308 C 0.86892 0.24197 0.65835 0.0
C309 C 0.81647 0.22678 0.63534 0.0
C310 C 0.78545 0.18169 0.60075 0.0
C311 C 0.80194 0.14723 0.59198 0.0
C312 C 0.90739 0.2935 0.69378 0.0
C313 C 0.73067 0.16546 0.57488 0.0
C314 C 0.69949 0.22715 0.69002 0.0
C315 C 0.73243 0.29427 0.67991 0.0
C316 C 0.72567 0.2041 0.6753 0.0
C317 C 0.78729 0.25008 0.65036 0.0
C318 C 0.82058 0.31799 0.63999 0.0
C319 C 0.79254 0.33915 0.65478 0.0
C320 C 0.68404 0.12894 0.68528 0.0
C321 C 0.88482 0.36765 0.61262 0.0
H322 H 0.92029 0.21383 0.66818 0.0
H323 H 0.77421 0.10843 0.56744 0.0
H324 H 0.95368 0.34844 0.68223 0.0
H325 H 0.87258 0.292 0.71044 0.0
H326 H 0.92816 0.28249 0.71544 0.0
H327 H 0.72089 0.1397 0.54559 0.0
H328 H 0.67953 0.12882 0.59159 0.0
H329 H 0.74802 0.21498 0.56848 0.0
H330 H 0.65143 0.19135 0.70817 0.0
H331 H 0.81754 0.39089 0.64657 0.0
H332 H 0.71202 0.11709 0.67749 0.0
H333 H 0.63261 0.09093 0.66833 0.0
H334 H 0.67082 0.11845 0.71809 0.0
H335 H 0.93098 0.38594 0.62828 0.0
H336 H 0.89983 0.41529 0.60405 0.0
H337 H 0.87419 0.33922 0.5845 0.0
C338 C 0.85074 0.92804 0.09039 0.0
C339 C 0.8347 0.88463 0.05887 0.0
C340 C 0.80055 0.90176 0.11991 0.0
C341 C 0.73037 0.83156 0.116 0.0
C342 C 0.71354 0.78654 0.08462 0.0
C343 C 0.76621 0.81364 0.05644 0.0
C344 C 0.82157 0.95103 0.15354 0.0
C345 C 0.63875 0.71156 0.07907 0.0
C346 C 0.58892 0.75094 0.19542 0.0
C347 C 0.55818 0.76837 0.17915 0.0
C348 C 0.64664 0.77258 0.1759 0.0
C349 C 0.67246 0.81101 0.13902 0.0
C350 C 0.6426 0.83035 0.1233 0.0
C351 C 0.58639 0.80935 0.1438 0.0
C352 C 0.67921 0.75368 0.1944 0.0
C353 C 0.6681 0.87094 0.08394 0.0
H354 H 0.90184 0.9833 0.09164 0.0
H355 H 0.7532 0.78022 0.03165 0.0
H356 H 0.80462 0.9743 0.14531 0.0
H357 H 0.79533 0.92174 0.1825 0.0
H358 H 0.8802 -0.00448 0.1586 0.0
H359 H 0.63627 0.68085 0.05641 0.0
H360 H 0.6176 0.68266 0.10839 0.0
H361 H 0.60327 0.71363 0.06861 0.0
H362 H 0.56529 0.71705 0.22179 0.0
H363 H 0.56219 0.82249 0.13114 0.0
H364 H 0.73202 0.80248 0.20775 0.0
H365 H 0.68798 0.73297 0.17096 0.0
H366 H 0.64533 0.71326 0.21873 0.0
H367 H 0.72518 0.9238 0.08668 0.0
H368 H 0.63725 0.87947 0.07529 0.0
H369 H 0.66342 0.84145 0.05894 0.0
C370 C 0.94441 0.86143 0.63009 0.0
C371 C 0.9287 0.84298 0.58861 0.0
C372 C 0.91774 0.81099 0.65976 0.0
C373 C 0.87535 0.74053 0.64759 0.0
C374 C 0.8629 0.7226 0.60561 0.0
C375 C 0.88965 0.77411 0.57657 0.0
C376 C 0.93196 0.8325 0.70404 0.0
C377 C 0.8188 0.6481 0.59142 0.0
C378 C 0.82863 0.60018 0.71199 0.0
C379 C 0.75576 0.55329 0.71774 0.0
C380 C 0.87086 0.66542 0.69208 0.0
C381 C 0.83901 0.68363 0.67833 0.0
C382 C 0.76774 0.64042 0.68901 0.0
C383 C 0.72658 0.57507 0.7082 0.0
C384 C 0.947 0.71066 0.68183 0.0
C385 C 0.73257 0.65925 0.67625 0.0
H386 H 0.97634 0.91519 0.6397 0.0
H387 H 0.87802 0.75976 0.54462 0.0
H388 H 0.88347 0.81175 0.71753 0.0
H389 H 0.94431 0.80943 0.72138 0.0
H390 H 0.97674 0.89141 0.70806 0.0
H391 H 0.8187 0.6443 0.55781 0.0
H392 H 0.83952 0.63081 0.60506 0.0
H393 H 0.76286 0.61028 0.60161 0.0
H394 H 0.85071 0.58257 0.71899 0.0
H395 H 0.66993 0.53823 0.71253 0.0
H396 H 0.98249 0.76814 0.6862 0.0
H397 H 0.94988 0.70247 0.64937 0.0
H398 H 0.96736 0.69648 0.70062 0.0
H399 H 0.76838 0.71645 0.68228 0.0
H400 H 0.68136 0.6265 0.69229 0.0
H401 H 0.72152 0.65 0.64307 0.0
C402 C 0.21945 0.90537 0.38875 0.0
C403 C 0.251 0.93502 0.42718 0.0
C404 C 0.22933 0.8713 0.36645 0.0
C405 C 0.27066 0.86552 0.38325 0.0
C406 C 0.30311 0.89598 0.42192 0.0
C407 C 0.29308 0.93048 0.44331 0.0
C408 C 0.19446 0.84059 0.32526 0.0
C409 C 0.3475 0.89104 0.44109 0.0
C410 C 0.24243 0.71672 0.35439 0.0
C411 C 0.30222 0.75268 0.33035 0.0
C412 C 0.22911 0.7518 0.3696 0.0
C413 C 0.27793 0.82526 0.36154 0.0
C414 C 0.33698 0.8611 0.33584 0.0
C415 C 0.34801 0.82407 0.32018 0.0
C416 C 0.16495 0.7112 0.39626 0.0
C417 C 0.39184 0.93981 0.32739 0.0
H418 H 0.18752 0.9094 0.37591 0.0
H419 H 0.31705 0.9527 0.47318 0.0
H420 H 0.23075 0.85033 0.30368 0.0
H421 H 0.14564 0.78207 0.32793 0.0
H422 H 0.17898 0.86356 0.31253 0.0
H423 H 0.37042 0.91891 0.47094 0.0
H424 H 0.31422 0.83423 0.44555 0.0
H425 H 0.39183 0.91462 0.42062 0.0
H426 H 0.2071 0.66145 0.36228 0.0
H427 H 0.39487 0.85218 0.30206 0.0
H428 H 0.13378 0.7183 0.38527 0.0
H429 H 0.18286 0.73261 0.42774 0.0
H430 H 0.1293 0.65324 0.39704 0.0
H431 H 0.36724 0.95657 0.32547 0.0
H432 H 0.42097 0.95451 0.29878 0.0
H433 H 0.43144 0.97026 0.35261 0.0
C434 C 0.1494 0.07145 0.93054 0.0
C435 C 0.17197 0.117 0.96283 0.0
C436 C 0.19647 0.09209 0.90027 0.0
C437 C 0.26949 0.15876 0.90357 0.0
C438 C 0.29285 0.20607 0.93561 0.0
C439 C 0.24372 0.18464 0.96481 0.0
C440 C 0.16839 0.0402 0.86636 0.0
C441 C 0.37055 0.27743 0.94056 0.0
C442 C 0.4042 0.16919 0.87108 0.0
C443 C 0.43515 0.2134 0.83691 0.0
C444 C 0.34887 0.1494 0.89212 0.0
C445 C 0.32273 0.17348 0.87835 0.0
C446 C 0.34982 0.21351 0.842 0.0
C447 C 0.40636 0.23358 0.82179 0.0
C448 C 0.32122 0.10599 0.93047 0.0
C449 C 0.32054 0.2368 0.82527 0.0
H450 H 0.09531 0.01871 0.92918 0.0
H451 H 0.26185 0.21985 0.99 0.0
H452 H 0.19718 0.06827 0.83755 0.0
H453 H 0.17575 0.0084 0.87475 0.0
H454 H 0.11058 0.00263 0.86092 0.0
H455 H 0.37902 0.31089 0.96439 0.0
H456 H 0.40153 0.26903 0.94902 0.0
H457 H 0.39223 0.30696 0.91145 0.0
H458 H 0.42607 0.15308 0.88274 0.0
H459 H 0.43093 0.26871 0.7959 0.0
H460 H 0.26274 0.05652 0.92809 0.0
H461 H 0.33122 0.13697 0.95682 0.0
H462 H 0.34683 0.09088 0.93673 0.0
H463 H 0.26323 0.18906 0.81751 0.0
H464 H 0.3492 0.26999 0.79762 0.0
H465 H 0.32417 0.26759 0.84855 0.0
C466 C 0.08842 0.15094 0.38553 0.0
C467 C 0.07832 0.15462 0.42668 0.0
C468 C 0.11602 0.20463 0.3581 0.0
C469 C 0.1335 0.26328 0.3721 0.0
C470 C 0.11905 0.26492 0.41294 0.0
C471 C 0.09186 0.21073 0.43974 0.0
C472 C 0.13003 0.20015 0.31488 0.0
C473 C 0.13572 0.32592 0.42895 0.0
C474 C 0.29042 0.45138 0.33505 0.0
C475 C 0.25669 0.46308 0.31481 0.0
C476 C 0.25108 0.38426 0.3506 0.0
C477 C 0.17588 0.32775 0.34645 0.0
C478 C 0.14216 0.33755 0.32267 0.0
C479 C 0.18329 0.40556 0.30688 0.0
C480 C 0.28958 0.37568 0.37452 0.0
C481 C 0.0623 0.27817 0.31679 0.0
H482 H 0.07563 0.10651 0.37467 0.0
H483 H 0.08315 0.21355 0.47124 0.0
H484 H 0.11944 0.22105 0.29309 0.0
H485 H 0.18699 0.23306 0.31201 0.0
H486 H 0.09697 0.14446 0.3061 0.0
H487 H 0.1142 0.31541 0.45993 0.0
H488 H 0.19443 0.37524 0.43011 0.0
H489 H 0.11324 0.33607 0.40834 0.0
H490 H 0.34747 0.49604 0.34075 0.0
H491 H 0.15738 0.41486 0.29116 0.0
H492 H 0.27085 0.32628 0.36512 0.0
H493 H 0.27775 0.3709 0.40732 0.0
H494 H 0.34836 0.42173 0.37055 0.0
H495 H 0.0414 0.22667 0.3108 0.0
H496 H 0.04619 0.2894 0.29133 0.0
H497 H 0.03694 0.27202 0.34502 0.0
C498 C 0.80568 0.1182 0.8765 0.0
C499 C 0.81178 0.08556 0.84896 0.0
C500 C 0.78979 0.15178 0.86293 0.0
C501 C 0.77984 0.15275 0.82081 0.0
C502 C 0.79068 0.12398 0.79278 0.0
C503 C 0.80638 0.0907 0.80719 0.0
C504 C 0.77957 0.18253 0.89388 0.0
C505 C 0.78154 0.12388 0.74768 0.0
C506 C 0.6516 0.15615 0.79961 0.0
C507 C 0.69848 0.22875 0.79293 0.0
C508 C 0.67745 0.13002 0.80601 0.0
C509 C 0.75206 0.17815 0.80687 0.0
C510 C 0.79941 0.25107 0.79785 0.0
C511 C 0.7719 0.27549 0.79076 0.0
C512 C 0.62505 0.05153 0.81412 0.0
C513 C 0.87923 0.30446 0.79899 0.0
H514 H 0.80933 0.11404 0.90884 0.0
H515 H 0.81206 0.06643 0.78566 0.0
H516 H 0.81168 0.23794 0.88565 0.0
H517 H 0.72271 0.15057 0.89411 0.0
H518 H 0.79497 0.18286 0.92504 0.0
H519 H 0.72583 0.073 0.73901 0.0
H520 H 0.7922 0.16852 0.7385 0.0
H521 H 0.81757 0.1274 0.73053 0.0
H522 H 0.59487 0.1204 0.80184 0.0
H523 H 0.80813 0.332 0.78649 0.0
H524 H 0.63146 0.04396 0.8459 0.0
H525 H 0.63593 0.02956 0.7938 0.0
H526 H 0.56885 0.02051 0.80947 0.0
H527 H 0.89809 0.32037 0.831 0.0
H528 H 0.90719 0.35328 0.78159 0.0
H529 H 0.89449 0.28119 0.78671 0.0
C530 C 0.86984 0.92955 0.4135 0.0
C531 C 0.84008 0.89069 0.44985 0.0
C532 C 0.82637 0.9123 0.38121 0.0
C533 C 0.75145 0.85744 0.38629 0.0
C534 C 0.72114 0.81677 0.42254 0.0
C535 C 0.76581 0.83345 0.4536 0.0
C536 C 0.8611 0.95517 0.3426 0.0
C537 C 0.64159 0.75832 0.42964 0.0
C538 C 0.63304 0.8628 0.34231 0.0
C539 C 0.58808 0.8028 0.31674 0.0
C540 C 0.69099 0.88544 0.36245 0.0
C541 C 0.70466 0.84737 0.3566 0.0
C542 C 0.66409 0.79149 0.32747 0.0
C543 C 0.60537 0.76903 0.30832 0.0
C544 C 0.73253 0.94517 0.3933 0.0
C545 C 0.67903 0.75164 0.31925 0.0
H546 H 0.92719 0.97477 0.41054 0.0
H547 H 0.74268 0.80364 0.48174 0.0
H548 H 0.82968 0.92053 0.31551 0.0
H549 H 0.86363 -0.00408 0.34266 0.0
H550 H 0.91639 0.98315 0.33972 0.0
H551 H 0.62641 0.72992 0.45871 0.0
H552 H 0.62323 0.78147 0.43028 0.0
H553 H 0.61276 0.71878 0.40446 0.0
H554 H 0.61922 0.88844 0.34923 0.0
H555 H 0.56908 0.7208 0.29012 0.0
H556 H 0.79071 0.98401 0.38922 0.0
H557 H 0.71914 0.9229 0.42437 0.0
H558 H 0.72035 0.97403 0.39118 0.0
H559 H 0.73614 0.78982 0.31155 0.0
H560 H 0.64556 0.71243 0.29405 0.0
H561 H 0.66862 0.72277 0.34693 0.0
C562 C 0.97727 0.8504 0.91821 0.0
C563 C 0.9489 0.83967 0.95644 0.0
C564 C 0.95027 0.79312 0.89472 0.0
C565 C 0.89153 0.72287 0.90923 0.0
C566 C 0.86311 0.71162 0.94815 0.0
C567 C 0.89295 0.77046 0.97163 0.0
C568 C 0.98343 0.80821 0.8539 0.0
C569 C 0.79918 0.63731 0.96417 0.0
C570 C 0.77053 0.56849 0.83384 0.0
C571 C 0.78751 0.53445 0.84209 0.0
C572 C 0.80511 0.63104 0.85485 0.0
C573 C 0.85921 0.66097 0.88371 0.0
C574 C 0.88036 0.62977 0.88951 0.0
C575 C 0.84334 0.56611 0.86916 0.0
C576 C 0.78138 0.66305 0.8476 0.0
C577 C 0.9405 0.66234 0.91824 0.0
H578 H 0.01987 0.90376 0.90613 0.0
H579 H 0.86994 0.7621 1.00075 0.0
H580 H 0.98637 0.7722 0.84788 0.0
H581 H 0.95027 0.79935 0.8296 0.0
H582 H 0.03801 0.86432 0.85177 0.0
H583 H 0.78301 0.63764 0.99472 0.0
H584 H 0.7534 0.60712 0.94289 0.0
H585 H 0.81106 0.60823 0.96605 0.0
H586 H 0.72697 0.54361 0.81309 0.0
H587 H 0.85671 0.53986 0.87528 0.0
H588 H 0.8261 0.71736 0.83491 0.0
H589 H 0.7661 0.66818 0.87678 0.0
H590 H 0.73543 0.63062 0.82616 0.0
H591 H 0.9885 0.71984 0.91145 0.0
H592 H 0.95492 0.6355 0.91627 0.0
H593 H 0.92481 0.65841 0.94995 0.0
loop_
_geom_bond_atom_site_label_1
_geom_bond_atom_site_label_2
_geom_bond_distance
_geom_bond_site_symmetry_2
_ccdc_geom_bond_type
Tb0 N31 2.660 1_455 S
Tb0 N38 2.600 . S
Tb0 O44 2.546 1_565 S
Tb0 O45 2.610 1_564 S
Tb0 O47 2.318 1_455 S
Tb0 O48 2.552 1_565 S
Tb0 O49 2.413 . S
Tb0 O51 2.362 1_455 S
Tb0 O52 2.421 1_565 S
Tb0 C64 2.833 . S
C1 C4 1.432 . S
C1 C5 1.414 . S
C1 N8 1.359 1_455 S
C2 C4 1.417 . S
C2 C6 1.432 . S
C2 C14 1.410 . S
C3 C5 1.444 . S
C3 C6 1.317 . S
C3 H26 0.929 . S
C4 C1 1.432 . S
C4 C2 1.417 . S
C4 N12 1.360 . S
C5 C1 1.414 . S
C5 C3 1.444 . S
C5 C10 1.385 1_455 S
C6 C2 1.432 . S
C6 C3 1.317 . S
C6 H18 0.930 . S
C7 C9 1.392 . S
C7 C10 1.370 1_565 S
C7 H19 0.931 . S
N8 C1 1.359 1_655 S
N8 C9 1.327 1_545 S
N8 Tb11 2.600 . S
C9 C7 1.392 . S
C9 N8 1.327 1_565 S
C9 H16 0.930 . S
C10 C5 1.385 1_655 S
C10 C7 1.370 1_545 S
C10 H29 0.930 . S
Tb11 N8 2.600 . S
Tb11 N12 2.660 1_655 S
Tb11 O45 2.362 1_655 S
Tb11 O46 2.421 1_545 S
Tb11 O50 2.546 1_545 S
Tb11 O51 2.610 1_546 S
Tb11 O53 2.320 1_656 S
Tb11 O54 2.551 1_546 S
Tb11 O55 2.413 . S
Tb11 C75 2.833 . S
N12 C4 1.360 . S
N12 Tb11 2.660 1_455 S
N12 C13 1.305 . S
C13 N12 1.305 . S
C13 C15 1.407 . S
C13 H20 0.930 . S
C14 C2 1.410 . S
C14 C15 1.345 . S
C14 H22 0.930 . S
C15 C13 1.407 . S
C15 C14 1.345 . S
C15 H17 0.930 . S
H16 C9 0.930 . S
H17 C15 0.930 . S
H18 C6 0.930 . S
H19 C7 0.931 . S
H20 C13 0.930 . S
H21 C35 0.930 . S
H22 C14 0.930 . S
H23 C41 0.930 . S
H24 C32 0.930 . S
H25 C39 0.931 . S
H26 C3 0.929 . S
H27 C33 0.930 . S
H28 C66 0.930 . S
H29 C10 0.930 . S
H30 C65 0.929 . S
N31 Tb0 2.660 1_655 S
N31 C32 1.305 . S
N31 C36 1.360 . S
C32 H24 0.930 . S
C32 N31 1.305 . S
C32 C35 1.407 . S
C33 H27 0.930 . S
C33 C34 1.410 . S
C33 C35 1.345 . S
C34 C33 1.410 . S
C34 C36 1.417 . S
C34 C66 1.432 . S
C35 H21 0.930 . S
C35 C32 1.407 . S
C35 C33 1.345 . S
C36 N31 1.360 . S
C36 C34 1.417 . S
C36 C40 1.432 . S
H37 C42 0.930 1_545 S
N38 Tb0 2.600 . S
N38 C40 1.359 1_455 S
N38 C41 1.327 1_565 S
C39 H25 0.931 . S
C39 C41 1.392 . S
C39 C42 1.370 1_545 S
C40 C36 1.432 . S
C40 N38 1.359 1_655 S
C40 C43 1.414 . S
C41 H23 0.930 . S
C41 N38 1.327 1_545 S
C41 C39 1.392 . S
C42 H37 0.930 1_565 S
C42 C39 1.370 1_565 S
C42 C43 1.385 1_455 S
C43 C40 1.414 . S
C43 C42 1.385 1_655 S
C43 C65 1.444 . S
O44 Tb0 2.546 1_545 S
O44 C64 1.251 1_545 S
O45 Tb0 2.610 1_546 S
O45 Tb11 2.362 1_455 S
O45 C56 1.283 . S
O46 Tb11 2.421 1_565 S
O46 C63 1.262 . S
O47 Tb0 2.318 1_655 S
O47 C63 1.262 1_554 S
O48 Tb0 2.552 1_545 S
O48 C56 1.243 1_554 S
O49 Tb0 2.413 . S
O49 C64 1.256 . S
O50 Tb11 2.546 1_565 S
O50 C75 1.251 1_565 S
O51 Tb0 2.362 1_655 S
O51 Tb11 2.610 1_564 S
O51 C67 1.283 . S
O52 Tb0 2.421 1_545 S
O52 C74 1.262 . S
O53 Tb11 2.320 1_454 S
O53 C74 1.260 . S
O54 Tb11 2.551 1_564 S
O54 C67 1.244 . S
O55 Tb11 2.413 . S
O55 C75 1.256 . S
C56 O45 1.283 . S
C56 O48 1.243 1_556 S
C57 C59 1.382 . S
C57 C61 1.393 . S
C57 C64 1.500 . S
C58 C59 1.400 . S
C58 C60 1.384 . S
C59 C57 1.382 . S
C59 C58 1.400 . S
C59 H76 0.930 . S
C60 C58 1.384 . S
C60 C62 1.392 . S
C60 H77 0.931 . S
C61 C57 1.393 . S
C61 C62 1.401 . S
C61 H78 0.930 . S
C62 C60 1.392 . S
C62 C61 1.401 . S
C62 H79 0.930 . S
C63 O46 1.262 . S
C63 O47 1.262 1_556 S
C64 Tb0 2.833 . S
C64 O44 1.251 1_565 S
C64 O49 1.256 . S
C64 C57 1.500 . S
C65 H30 0.929 . S
C65 C43 1.444 . S
C65 C66 1.317 . S
C66 H28 0.930 . S
C66 C34 1.432 . S
C66 C65 1.317 . S
C67 O51 1.283 . S
C67 O54 1.244 . S
C68 C69 1.382 . S
C68 C72 1.393 . S
C68 C75 1.500 . S
C69 C68 1.382 . S
C69 C70 1.400 . S
C69 H80 0.930 . S
C70 C69 1.400 . S
C70 C71 1.384 . S
C71 C70 1.384 . S
C71 C73 1.392 . S
C71 H81 0.931 . S
C72 C68 1.393 . S
C72 C73 1.401 . S
C72 H82 0.930 . S
C73 C71 1.392 . S
C73 C72 1.401 . S
C73 H83 0.930 . S
C74 O52 1.262 . S
C74 O53 1.260 . S
C75 Tb11 2.833 . S
C75 O50 1.251 1_545 S
C75 O55 1.256 . S
C75 C68 1.500 . S
H76 C59 0.930 . S
H77 C60 0.931 . S
H78 C61 0.930 . S
H79 C62 0.930 . S
H80 C69 0.930 . S
H81 C71 0.931 . S
H82 C72 0.930 . S
H83 C73 0.930 . S
Tb84 N115 2.660 1_655 S
Tb84 N122 2.600 1_655 S
Tb84 O128 2.546 . S
Tb84 O129 2.610 1_545 S
Tb84 O131 2.320 1_655 S
Tb84 O132 2.552 1_545 S
Tb84 O133 2.413 . S
Tb84 O135 2.362 1_655 S
Tb84 O136 2.421 1_545 S
Tb84 C148 2.833 . S
C85 C88 1.432 . S
C85 C89 1.414 . S
C85 N92 1.359 1_665 S
C86 C88 1.417 . S
C86 C90 1.432 . S
C86 C98 1.410 . S
C87 C89 1.444 . S
C87 C90 1.317 . S
C87 H110 0.929 . S
C88 C85 1.432 . S
C88 C86 1.417 . S
C88 N96 1.360 . S
C89 C85 1.414 . S
C89 C87 1.444 . S
C89 C94 1.385 1_665 S
C90 C86 1.432 . S
C90 C87 1.317 . S
C90 H102 0.930 . S
C91 C93 1.392 . S
C91 C94 1.370 . S
C91 H103 0.931 . S
N92 C85 1.359 1_445 S
N92 C93 1.327 . S
N92 Tb95 2.600 1_545 S
C93 C91 1.392 . S
C93 N92 1.327 . S
C93 H100 0.930 . S
C94 C89 1.385 1_445 S
C94 C91 1.370 . S
C94 H113 0.930 . S
Tb95 N92 2.600 1_565 S
Tb95 N96 2.660 1_455 S
Tb95 O129 2.362 1_455 S
Tb95 O130 2.421 1_565 S
Tb95 O134 2.546 1_565 S
Tb95 O135 2.610 1_565 S
Tb95 O137 2.320 1_455 S
Tb95 O138 2.552 1_565 S
Tb95 O139 2.413 . S
Tb95 C159 2.833 . S
N96 C88 1.360 . S
N96 Tb95 2.660 1_655 S
N96 C97 1.305 . S
C97 N96 1.305 . S
C97 C99 1.407 . S
C97 H104 0.930 . S
C98 C86 1.410 . S
C98 C99 1.345 . S
C98 H106 0.930 . S
C99 C97 1.407 . S
C99 C98 1.345 . S
C99 H101 0.930 . S
H100 C93 0.930 . S
H101 C99 0.930 . S
H102 C90 0.930 . S
H103 C91 0.931 . S
H104 C97 0.930 . S
H105 C119 0.930 . S
H106 C98 0.930 . S
H107 C125 0.930 . S
H108 C116 0.930 . S
H109 C123 0.931 . S
H110 C87 0.929 . S
H111 C117 0.930 . S
H112 C150 0.930 . S
H113 C94 0.930 . S
H114 C149 0.929 . S
N115 Tb84 2.660 1_455 S
N115 C116 1.305 . S
N115 C120 1.360 . S
C116 H108 0.930 . S
C116 N115 1.305 . S
C116 C119 1.407 . S
C117 H111 0.930 . S
C117 C118 1.410 . S
C117 C119 1.345 . S
C118 C117 1.410 . S
C118 C120 1.417 . S
C118 C150 1.432 . S
C119 H105 0.930 . S
C119 C116 1.407 . S
C119 C117 1.345 . S
C120 N115 1.360 . S
C120 C118 1.417 . S
C120 C124 1.432 . S
H121 C126 0.930 . S
N122 Tb84 2.600 1_455 S
N122 C124 1.359 . S
N122 C125 1.327 1_445 S
C123 H109 0.931 . S
C123 C125 1.392 . S
C123 C126 1.370 1_665 S
C124 C120 1.432 . S
C124 N122 1.359 . S
C124 C127 1.414 . S
C125 H107 0.930 . S
C125 N122 1.327 1_665 S
C125 C123 1.392 . S
C126 H121 0.930 . S
C126 C123 1.370 1_445 S
C126 C127 1.385 . S
C127 C124 1.414 . S
C127 C126 1.385 . S
C127 C149 1.444 . S
O128 Tb84 2.546 . S
O128 C148 1.251 . S
O129 Tb84 2.610 1_565 S
O129 Tb95 2.362 1_655 S
O129 C140 1.283 . S
O130 Tb95 2.421 1_545 S
O130 C147 1.262 . S
O131 Tb84 2.320 1_455 S
O131 C147 1.260 . S
O132 Tb84 2.552 1_565 S
O132 C140 1.243 . S
O133 Tb84 2.413 . S
O133 C148 1.256 . S
O134 Tb95 2.546 1_545 S
O134 C159 1.251 1_545 S
O135 Tb84 2.362 1_455 S
O135 Tb95 2.610 1_545 S
O135 C151 1.283 . S
O136 Tb84 2.421 1_565 S
O136 C158 1.262 . S
O137 Tb95 2.320 1_655 S
O137 C158 1.260 . S
O138 Tb95 2.552 1_545 S
O138 C151 1.243 . S
O139 Tb95 2.413 . S
O139 C159 1.256 . S
C140 O129 1.283 . S
C140 O132 1.243 . S
C141 C143 1.382 . S
C141 C145 1.393 . S
C141 C148 1.500 . S
C142 C143 1.400 . S
C142 C144 1.384 . S
C143 C141 1.382 . S
C143 C142 1.400 . S
C143 H160 0.930 . S
C144 C142 1.384 . S
C144 C146 1.392 . S
C144 H161 0.931 . S
C145 C141 1.393 . S
C145 C146 1.401 . S
C145 H162 0.930 . S
C146 C144 1.392 . S
C146 C145 1.401 . S
C146 H163 0.930 . S
C147 O130 1.262 . S
C147 O131 1.260 . S
C148 Tb84 2.833 . S
C148 O128 1.251 . S
C148 O133 1.256 . S
C148 C141 1.500 . S
C149 H114 0.929 . S
C149 C127 1.444 . S
C149 C150 1.317 . S
C150 H112 0.930 . S
C150 C118 1.432 . S
C150 C149 1.317 . S
C151 O135 1.283 . S
C151 O138 1.243 . S
C152 C153 1.382 . S
C152 C156 1.393 . S
C152 C159 1.500 . S
C153 C152 1.382 . S
C153 C154 1.400 . S
C153 H164 0.930 . S
C154 C153 1.400 . S
C154 C155 1.384 . S
C155 C154 1.384 . S
C155 C157 1.392 . S
C155 H165 0.931 . S
C156 C152 1.393 . S
C156 C157 1.401 . S
C156 H166 0.930 1_565 S
C157 C155 1.392 . S
C157 C156 1.401 . S
C157 H167 0.930 . S
C158 O136 1.262 . S
C158 O137 1.260 . S
C159 Tb95 2.833 . S
C159 O134 1.251 1_565 S
C159 O139 1.256 . S
C159 C152 1.500 . S
H160 C143 0.930 . S
H161 C144 0.931 . S
H162 C145 0.930 . S
H163 C146 0.930 . S
H164 C153 0.930 . S
H165 C155 0.931 . S
H166 C156 0.930 1_545 S
H167 C157 0.930 . S
Zn168 O174 1.920 . S
Zn168 O180 1.898 . S
Zn168 O183 1.905 . S
Zn169 O177 1.905 . S
Zn169 O178 1.898 . S
Zn169 O186 1.920 . S
Zn170 O173 2.080 . S
Zn170 O176 2.114 . S
Zn170 O179 2.120 . S
Zn170 O181 2.120 . S
Zn170 O182 2.114 . S
Zn170 O185 2.080 . S
C171 O176 1.166 . S
C171 O177 1.182 . S
C172 O178 1.167 . S
C172 O179 1.299 . S
O173 Zn170 2.080 . S
O173 C187 1.305 . S
O174 Zn168 1.920 . S
O174 C187 1.234 . S
C175 O180 1.167 . S
C175 O181 1.299 . S
O176 Zn170 2.114 . S
O176 C171 1.166 . S
O177 Zn169 1.905 . S
O177 C171 1.182 . S
O178 Zn169 1.898 . S
O178 C172 1.167 . S
O179 Zn170 2.120 . S
O179 C172 1.299 . S
O180 Zn168 1.898 . S
O180 C175 1.167 . S
O181 Zn170 2.120 . S
O181 C175 1.299 . S
O182 Zn170 2.114 . S
O182 C184 1.166 . S
O183 Zn168 1.905 . S
O183 C184 1.182 . S
C184 O182 1.166 . S
C184 O183 1.182 . S
O185 Zn170 2.080 . S
O185 C188 1.305 . S
O186 Zn169 1.920 . S
O186 C188 1.234 . S
C187 O173 1.305 . S
C187 O174 1.234 . S
C188 O185 1.305 . S
C188 O186 1.234 . S
Zn189 O195 1.920 . S
Zn189 O201 1.898 . S
Zn189 O204 1.905 . S
Zn190 O198 1.905 . S
Zn190 O199 1.898 . S
Zn190 O207 1.920 . S
Zn191 O194 2.080 . S
Zn191 O197 2.114 . S
Zn191 O200 2.120 . S
Zn191 O202 2.120 . S
Zn191 O203 2.114 . S
Zn191 O206 2.080 . S
C192 O197 1.166 . S
C192 O198 1.182 . S
C193 O199 1.167 . S
C193 O200 1.299 . S
O194 Zn191 2.080 . S
O194 C208 1.305 . S
O195 Zn189 1.920 . S
O195 C208 1.234 . S
C196 O201 1.167 . S
C196 O202 1.299 . S
O197 Zn191 2.114 . S
O197 C192 1.166 . S
O198 Zn190 1.905 . S
O198 C192 1.182 . S
O199 Zn190 1.898 . S
O199 C193 1.167 . S
O200 Zn191 2.120 . S
O200 C193 1.299 . S
O201 Zn189 1.898 . S
O201 C196 1.167 . S
O202 Zn191 2.120 . S
O202 C196 1.299 . S
O203 Zn191 2.114 . S
O203 C205 1.166 . S
O204 Zn189 1.905 . S
O204 C205 1.182 . S
C205 O203 1.166 . S
C205 O204 1.182 . S
O206 Zn191 2.080 . S
O206 C209 1.305 . S
O207 Zn190 1.920 . S
O207 C209 1.234 . S
C208 O194 1.305 . S
C208 O195 1.234 . S
C209 O206 1.305 . S
C209 O207 1.234 . S
C210 C211 1.391 . S
C210 C212 1.394 . S
C210 H226 0.931 . S
C211 C210 1.391 . S
C211 C215 1.376 . S
C212 C210 1.394 . S
C212 C213 1.369 . S
C212 C216 1.531 . S
C213 C212 1.369 . S
C213 C214 1.410 . S
C213 C221 1.503 . S
C214 C213 1.410 . S
C214 C215 1.392 . S
C214 C217 1.511 . S
C215 C211 1.376 . S
C215 C214 1.392 . S
C215 H227 0.929 . S
C216 C212 1.531 . S
C216 H228 0.960 . S
C216 H229 0.962 . S
C216 H230 0.960 . S
C217 C214 1.511 . S
C217 H231 0.961 . S
C217 H232 0.961 . S
C217 H233 0.961 . S
C218 C219 1.370 . S
C218 C220 1.363 . S
C218 H234 0.931 . S
C219 C218 1.370 . S
C219 C223 1.408 . S
C220 C218 1.363 . S
C220 C221 1.370 . S
C220 C224 1.524 . S
C221 C213 1.503 . S
C221 C220 1.370 . S
C221 C222 1.403 . S
C222 C221 1.403 . S
C222 C223 1.404 . S
C222 C225 1.539 . S
C223 C219 1.408 . S
C223 C222 1.404 . S
C223 H235 0.930 . S
C224 C220 1.524 . S
C224 H236 0.956 . S
C224 H237 0.961 . S
C224 H238 0.961 . S
C225 C222 1.539 . S
C225 H239 0.958 . S
C225 H240 0.961 . S
C225 H241 0.960 . S
H226 C210 0.931 . S
H227 C215 0.929 . S
H228 C216 0.960 . S
H229 C216 0.962 . S
H230 C216 0.960 . S
H231 C217 0.961 . S
H232 C217 0.961 . S
H233 C217 0.961 . S
H234 C218 0.931 . S
H235 C223 0.930 . S
H236 C224 0.956 . S
H237 C224 0.961 . S
H238 C224 0.961 . S
H239 C225 0.958 . S
H240 C225 0.961 . S
H241 C225 0.960 . S
C242 C243 1.391 . S
C242 C244 1.394 . S
C242 H258 0.931 . S
C243 C242 1.391 . S
C243 C247 1.376 . S
C244 C242 1.394 . S
C244 C245 1.369 . S
C244 C248 1.531 . S
C245 C244 1.369 . S
C245 C246 1.410 . S
C245 C253 1.503 . S
C246 C245 1.410 . S
C246 C247 1.392 . S
C246 C249 1.511 . S
C247 C243 1.376 . S
C247 C246 1.392 . S
C247 H259 0.929 . S
C248 C244 1.531 . S
C248 H260 0.960 . S
C248 H261 0.962 . S
C248 H262 0.960 . S
C249 C246 1.511 . S
C249 H263 0.961 . S
C249 H264 0.961 . S
C249 H265 0.961 . S
C250 C251 1.370 . S
C250 C252 1.363 . S
C250 H266 0.931 . S
C251 C250 1.370 . S
C251 C255 1.408 . S
C252 C250 1.363 . S
C252 C253 1.370 . S
C252 C256 1.524 . S
C253 C245 1.503 . S
C253 C252 1.370 . S
C253 C254 1.403 . S
C254 C253 1.403 . S
C254 C255 1.404 . S
C254 C257 1.539 . S
C255 C251 1.408 . S
C255 C254 1.404 . S
C255 H267 0.930 . S
C256 C252 1.524 . S
C256 H268 0.956 . S
C256 H269 0.961 . S
C256 H270 0.961 . S
C257 C254 1.539 . S
C257 H271 0.958 . S
C257 H272 0.961 1_545 S
C257 H273 0.960 . S
H258 C242 0.931 . S
H259 C247 0.929 . S
H260 C248 0.960 . S
H261 C248 0.962 . S
H262 C248 0.960 . S
H263 C249 0.961 . S
H264 C249 0.961 . S
H265 C249 0.961 . S
H266 C250 0.931 . S
H267 C255 0.930 . S
H268 C256 0.956 . S
H269 C256 0.961 . S
H270 C256 0.961 . S
H271 C257 0.958 . S
H272 C257 0.961 1_565 S
H273 C257 0.960 . S
C274 C275 1.391 . S
C274 C276 1.394 . S
C274 H290 0.931 . S
C275 C274 1.391 . S
C275 C279 1.376 . S
C276 C274 1.394 . S
C276 C277 1.369 . S
C276 C280 1.531 . S
C277 C276 1.369 . S
C277 C278 1.410 . S
C277 C285 1.503 . S
C278 C277 1.410 . S
C278 C279 1.392 . S
C278 C281 1.511 . S
C279 C275 1.376 . S
C279 C278 1.392 . S
C279 H291 0.929 . S
C280 C276 1.531 . S
C280 H292 0.960 . S
C280 H293 0.962 . S
C280 H294 0.960 . S
C281 C278 1.511 . S
C281 H295 0.961 . S
C281 H296 0.961 . S
C281 H297 0.961 . S
C282 C283 1.370 . S
C282 C284 1.363 . S
C282 H298 0.931 . S
C283 C282 1.370 . S
C283 C287 1.408 . S
C284 C282 1.363 . S
C284 C285 1.370 . S
C284 C288 1.524 . S
C285 C277 1.503 . S
C285 C284 1.370 . S
C285 C286 1.403 . S
C286 C285 1.403 . S
C286 C287 1.404 . S
C286 C289 1.539 . S
C287 C283 1.408 . S
C287 C286 1.404 . S
C287 H299 0.930 . S
C288 C284 1.524 . S
C288 H300 0.956 . S
C288 H301 0.961 . S
C288 H302 0.961 . S
C289 C286 1.539 . S
C289 H303 0.958 . S
C289 H304 0.961 . S
C289 H305 0.960 . S
H290 C274 0.931 . S
H291 C279 0.929 . S
H292 C280 0.960 . S
H293 C280 0.962 . S
H294 C280 0.960 . S
H295 C281 0.961 . S
H296 C281 0.961 . S
H297 C281 0.961 . S
H298 C282 0.931 . S
H299 C287 0.930 . S
H300 C288 0.956 . S
H301 C288 0.961 . S
H302 C288 0.961 . S
H303 C289 0.958 . S
H304 C289 0.961 . S
H305 C289 0.960 . S
C306 C307 1.391 . S
C306 C308 1.394 . S
C306 H322 0.931 . S
C307 C306 1.391 . S
C307 C311 1.376 . S
C308 C306 1.394 . S
C308 C309 1.369 . S
C308 C312 1.531 . S
C309 C308 1.369 . S
C309 C310 1.410 . S
C309 C317 1.503 . S
C310 C309 1.410 . S
C310 C311 1.392 . S
C310 C313 1.511 . S
C311 C307 1.376 . S
C311 C310 1.392 . S
C311 H323 0.929 . S
C312 C308 1.531 . S
C312 H324 0.960 . S
C312 H325 0.962 . S
C312 H326 0.960 . S
C313 C310 1.511 . S
C313 H327 0.961 . S
C313 H328 0.961 . S
C313 H329 0.961 . S
C314 C315 1.370 . S
C314 C316 1.363 . S
C314 H330 0.931 . S
C315 C314 1.370 . S
C315 C319 1.408 . S
C316 C314 1.363 . S
C316 C317 1.370 . S
C316 C320 1.524 . S
C317 C309 1.503 . S
C317 C316 1.370 . S
C317 C318 1.403 . S
C318 C317 1.403 . S
C318 C319 1.404 . S
C318 C321 1.539 . S
C319 C315 1.408 . S
C319 C318 1.404 . S
C319 H331 0.930 . S
C320 C316 1.524 . S
C320 H332 0.956 . S
C320 H333 0.961 . S
C320 H334 0.961 . S
C321 C318 1.539 . S
C321 H335 0.958 . S
C321 H336 0.961 . S
C321 H337 0.960 . S
H322 C306 0.931 . S
H323 C311 0.929 . S
H324 C312 0.960 . S
H325 C312 0.962 . S
H326 C312 0.960 . S
H327 C313 0.961 . S
H328 C313 0.961 . S
H329 C313 0.961 . S
H330 C314 0.931 . S
H331 C319 0.930 . S
H332 C320 0.956 . S
H333 C320 0.961 . S
H334 C320 0.961 . S
H335 C321 0.958 . S
H336 C321 0.961 . S
H337 C321 0.960 . S
C338 C339 1.391 . S
C338 C340 1.394 . S
C338 H354 0.931 1_565 S
C339 C338 1.391 . S
C339 C343 1.376 . S
C340 C338 1.394 . S
C340 C341 1.369 . S
C340 C344 1.531 1_565 S
C341 C340 1.369 . S
C341 C342 1.410 . S
C341 C349 1.503 . S
C342 C341 1.410 . S
C342 C343 1.392 . S
C342 C345 1.511 . S
C343 C339 1.376 . S
C343 C342 1.392 . S
C343 H355 0.929 . S
C344 C340 1.531 1_545 S
C344 H356 0.960 . S
C344 H357 0.962 1_545 S
C344 H358 0.960 . S
C345 C342 1.511 . S
C345 H359 0.961 . S
C345 H360 0.961 . S
C345 H361 0.961 . S
C346 C347 1.370 . S
C346 C348 1.363 . S
C346 H362 0.931 . S
C347 C346 1.370 . S
C347 C351 1.408 . S
C348 C346 1.363 . S
C348 C349 1.370 . S
C348 C352 1.524 . S
C349 C341 1.503 . S
C349 C348 1.370 . S
C349 C350 1.403 . S
C350 C349 1.403 . S
C350 C351 1.404 . S
C350 C353 1.539 . S
C351 C347 1.408 . S
C351 C350 1.404 . S
C351 H363 0.930 . S
C352 C348 1.524 . S
C352 H364 0.956 . S
C352 H365 0.961 . S
C352 H366 0.961 . S
C353 C350 1.539 . S
C353 H367 0.958 . S
C353 H368 0.961 . S
C353 H369 0.960 . S
H354 C338 0.931 1_545 S
H355 C343 0.929 . S
H356 C344 0.960 . S
H357 C344 0.962 1_565 S
H358 C344 0.960 . S
H359 C345 0.961 . S
H360 C345 0.961 . S
H361 C345 0.961 . S
H362 C346 0.931 . S
H363 C351 0.930 . S
H364 C352 0.956 . S
H365 C352 0.961 . S
H366 C352 0.961 . S
H367 C353 0.958 . S
H368 C353 0.961 . S
H369 C353 0.960 . S
C370 C371 1.391 . S
C370 C372 1.394 . S
C370 H386 0.931 . S
C371 C370 1.391 . S
C371 C375 1.376 . S
C372 C370 1.394 . S
C372 C373 1.369 . S
C372 C376 1.531 . S
C373 C372 1.369 . S
C373 C374 1.410 . S
C373 C381 1.503 . S
C374 C373 1.410 . S
C374 C375 1.392 . S
C374 C377 1.511 . S
C375 C371 1.376 . S
C375 C374 1.392 . S
C375 H387 0.929 . S
C376 C372 1.531 . S
C376 H388 0.960 . S
C376 H389 0.962 . S
C376 H390 0.960 . S
C377 C374 1.511 . S
C377 H391 0.961 . S
C377 H392 0.961 . S
C377 H393 0.961 . S
C378 C379 1.370 . S
C378 C380 1.363 . S
C378 H394 0.931 . S
C379 C378 1.370 . S
C379 C383 1.408 . S
C380 C378 1.363 . S
C380 C381 1.370 . S
C380 C384 1.524 . S
C381 C373 1.503 . S
C381 C380 1.370 . S
C381 C382 1.403 . S
C382 C381 1.403 . S
C382 C383 1.404 . S
C382 C385 1.539 . S
C383 C379 1.408 . S
C383 C382 1.404 . S
C383 H395 0.930 . S
C384 C380 1.524 . S
C384 H396 0.956 . S
C384 H397 0.961 . S
C384 H398 0.961 . S
C385 C382 1.539 . S
C385 H399 0.958 . S
C385 H400 0.961 . S
C385 H401 0.960 . S
H386 C370 0.931 . S
H387 C375 0.929 . S
H388 C376 0.960 . S
H389 C376 0.962 . S
H390 C376 0.960 . S
H391 C377 0.961 . S
H392 C377 0.961 . S
H393 C377 0.961 . S
H394 C378 0.931 . S
H395 C383 0.930 . S
H396 C384 0.956 . S
H397 C384 0.961 . S
H398 C384 0.961 . S
H399 C385 0.958 . S
H400 C385 0.961 . S
H401 C385 0.960 . S
C402 C403 1.391 . S
C402 C404 1.394 . S
C402 H418 0.931 . S
C403 C402 1.391 . S
C403 C407 1.376 . S
C404 C402 1.394 . S
C404 C405 1.369 . S
C404 C408 1.531 . S
C405 C404 1.369 . S
C405 C406 1.410 . S
C405 C413 1.503 . S
C406 C405 1.410 . S
C406 C407 1.392 . S
C406 C409 1.511 . S
C407 C403 1.376 . S
C407 C406 1.392 . S
C407 H419 0.929 . S
C408 C404 1.531 . S
C408 H420 0.960 . S
C408 H421 0.962 . S
C408 H422 0.960 . S
C409 C406 1.511 . S
C409 H423 0.961 . S
C409 H424 0.961 . S
C409 H425 0.961 . S
C410 C411 1.370 . S
C410 C412 1.363 . S
C410 H426 0.931 . S
C411 C410 1.370 . S
C411 C415 1.408 . S
C412 C410 1.363 . S
C412 C413 1.370 . S
C412 C416 1.524 . S
C413 C405 1.503 . S
C413 C412 1.370 . S
C413 C414 1.403 . S
C414 C413 1.403 . S
C414 C415 1.404 . S
C414 C417 1.539 . S
C415 C411 1.408 . S
C415 C414 1.404 . S
C415 H427 0.930 . S
C416 C412 1.524 . S
C416 H428 0.956 . S
C416 H429 0.961 . S
C416 H430 0.961 . S
C417 C414 1.539 . S
C417 H431 0.958 . S
C417 H432 0.961 . S
C417 H433 0.960 . S
H418 C402 0.931 . S
H419 C407 0.929 . S
H420 C408 0.960 . S
H421 C408 0.962 . S
H422 C408 0.960 . S
H423 C409 0.961 . S
H424 C409 0.961 . S
H425 C409 0.961 . S
H426 C410 0.931 . S
H427 C415 0.930 . S
H428 C416 0.956 . S
H429 C416 0.961 . S
H430 C416 0.961 . S
H431 C417 0.958 . S
H432 C417 0.961 . S
H433 C417 0.960 . S
C434 C435 1.391 . S
C434 C436 1.394 . S
C434 H450 0.931 . S
C435 C434 1.391 . S
C435 C439 1.376 . S
C436 C434 1.394 . S
C436 C437 1.369 . S
C436 C440 1.531 . S
C437 C436 1.369 . S
C437 C438 1.410 . S
C437 C445 1.503 . S
C438 C437 1.410 . S
C438 C439 1.392 . S
C438 C441 1.511 . S
C439 C435 1.376 . S
C439 C438 1.392 . S
C439 H451 0.929 . S
C440 C436 1.531 . S
C440 H452 0.960 . S
C440 H453 0.962 . S
C440 H454 0.960 . S
C441 C438 1.511 . S
C441 H455 0.961 . S
C441 H456 0.961 . S
C441 H457 0.961 . S
C442 C443 1.370 . S
C442 C444 1.363 . S
C442 H458 0.931 . S
C443 C442 1.370 . S
C443 C447 1.408 . S
C444 C442 1.363 . S
C444 C445 1.370 . S
C444 C448 1.524 . S
C445 C437 1.503 . S
C445 C444 1.370 . S
C445 C446 1.403 . S
C446 C445 1.403 . S
C446 C447 1.404 . S
C446 C449 1.539 . S
C447 C443 1.408 . S
C447 C446 1.404 . S
C447 H459 0.930 . S
C448 C444 1.524 . S
C448 H460 0.956 . S
C448 H461 0.961 . S
C448 H462 0.961 . S
C449 C446 1.539 . S
C449 H463 0.958 . S
C449 H464 0.961 . S
C449 H465 0.960 . S
H450 C434 0.931 . S
H451 C439 0.929 . S
H452 C440 0.960 . S
H453 C440 0.962 . S
H454 C440 0.960 . S
H455 C441 0.961 . S
H456 C441 0.961 . S
H457 C441 0.961 . S
H458 C442 0.931 . S
H459 C447 0.930 . S
H460 C448 0.956 . S
H461 C448 0.961 . S
H462 C448 0.961 . S
H463 C449 0.958 . S
H464 C449 0.961 . S
H465 C449 0.960 . S
C466 C467 1.391 . S
C466 C468 1.394 . S
C466 H482 0.931 . S
C467 C466 1.391 . S
C467 C471 1.376 . S
C468 C466 1.394 . S
C468 C469 1.369 . S
C468 C472 1.531 . S
C469 C468 1.369 . S
C469 C470 1.410 . S
C469 C477 1.503 . S
C470 C469 1.410 . S
C470 C471 1.392 . S
C470 C473 1.511 . S
C471 C467 1.376 . S
C471 C470 1.392 . S
C471 H483 0.929 . S
C472 C468 1.531 . S
C472 H484 0.960 . S
C472 H485 0.962 . S
C472 H486 0.960 . S
C473 C470 1.511 . S
C473 H487 0.961 1_455 S
C473 H488 0.961 . S
C473 H489 0.961 1_455 S
C474 C475 1.370 . S
C474 C476 1.363 . S
C474 H490 0.931 . S
C475 C474 1.370 . S
C475 C479 1.408 . S
C476 C474 1.363 . S
C476 C477 1.370 . S
C476 C480 1.524 . S
C477 C469 1.503 . S
C477 C476 1.370 . S
C477 C478 1.403 . S
C478 C477 1.403 . S
C478 C479 1.404 . S
C478 C481 1.539 . S
C479 C475 1.408 . S
C479 C478 1.404 . S
C479 H491 0.930 . S
C480 C476 1.524 . S
C480 H492 0.956 . S
C480 H493 0.961 . S
C480 H494 0.961 . S
C481 C478 1.539 . S
C481 H495 0.958 . S
C481 H496 0.961 . S
C481 H497 0.960 . S
H482 C466 0.931 . S
H483 C471 0.929 . S
H484 C472 0.960 . S
H485 C472 0.962 . S
H486 C472 0.960 . S
H487 C473 0.961 1_655 S
H488 C473 0.961 . S
H489 C473 0.961 1_655 S
H490 C474 0.931 . S
H491 C479 0.930 . S
H492 C480 0.956 . S
H493 C480 0.961 . S
H494 C480 0.961 . S
H495 C481 0.958 . S
H496 C481 0.961 . S
H497 C481 0.960 . S
C498 C499 1.391 . S
C498 C500 1.394 . S
C498 H514 0.931 . S
C499 C498 1.391 . S
C499 C503 1.376 . S
C500 C498 1.394 . S
C500 C501 1.369 . S
C500 C504 1.531 . S
C501 C500 1.369 . S
C501 C502 1.410 . S
C501 C509 1.503 . S
C502 C501 1.410 . S
C502 C503 1.392 . S
C502 C505 1.511 . S
C503 C499 1.376 . S
C503 C502 1.392 . S
C503 H515 0.929 . S
C504 C500 1.531 . S
C504 H516 0.960 . S
C504 H517 0.962 . S
C504 H518 0.960 . S
C505 C502 1.511 . S
C505 H519 0.961 . S
C505 H520 0.961 . S
C505 H521 0.961 . S
C506 C507 1.370 . S
C506 C508 1.363 . S
C506 H522 0.931 . S
C507 C506 1.370 . S
C507 C511 1.408 . S
C508 C506 1.363 . S
C508 C509 1.370 . S
C508 C512 1.524 . S
C509 C501 1.503 . S
C509 C508 1.370 . S
C509 C510 1.403 . S
C510 C509 1.403 . S
C510 C511 1.404 . S
C510 C513 1.539 . S
C511 C507 1.408 . S
C511 C510 1.404 . S
C511 H523 0.930 . S
C512 C508 1.524 . S
C512 H524 0.956 . S
C512 H525 0.961 . S
C512 H526 0.961 . S
C513 C510 1.539 . S
C513 H527 0.958 . S
C513 H528 0.961 . S
C513 H529 0.960 . S
H514 C498 0.931 . S
H515 C503 0.929 . S
H516 C504 0.960 . S
H517 C504 0.962 . S
H518 C504 0.960 . S
H519 C505 0.961 . S
H520 C505 0.961 . S
H521 C505 0.961 . S
H522 C506 0.931 . S
H523 C511 0.930 . S
H524 C512 0.956 . S
H525 C512 0.961 . S
H526 C512 0.961 . S
H527 C513 0.958 . S
H528 C513 0.961 . S
H529 C513 0.960 . S
C530 C531 1.391 . S
C530 C532 1.394 . S
C530 H546 0.931 . S
C531 C530 1.391 . S
C531 C535 1.376 . S
C532 C530 1.394 . S
C532 C533 1.369 . S
C532 C536 1.531 . S
C533 C532 1.369 . S
C533 C534 1.410 . S
C533 C541 1.503 . S
C534 C533 1.410 . S
C534 C535 1.392 . S
C534 C537 1.511 . S
C535 C531 1.376 . S
C535 C534 1.392 . S
C535 H547 0.929 . S
C536 C532 1.531 . S
C536 H548 0.960 . S
C536 H549 0.962 . S
C536 H550 0.960 . S
C537 C534 1.511 . S
C537 H551 0.961 . S
C537 H552 0.961 . S
C537 H553 0.961 . S
C538 C539 1.370 . S
C538 C540 1.363 . S
C538 H554 0.931 . S
C539 C538 1.370 . S
C539 C543 1.408 . S
C540 C538 1.363 . S
C540 C541 1.370 . S
C540 C544 1.524 . S
C541 C533 1.503 . S
C541 C540 1.370 . S
C541 C542 1.403 . S
C542 C541 1.403 . S
C542 C543 1.404 . S
C542 C545 1.539 . S
C543 C539 1.408 . S
C543 C542 1.404 . S
C543 H555 0.930 . S
C544 C540 1.524 . S
C544 H556 0.956 . S
C544 H557 0.961 . S
C544 H558 0.961 . S
C545 C542 1.539 . S
C545 H559 0.958 . S
C545 H560 0.961 . S
C545 H561 0.960 . S
H546 C530 0.931 . S
H547 C535 0.929 . S
H548 C536 0.960 . S
H549 C536 0.962 . S
H550 C536 0.960 . S
H551 C537 0.961 . S
H552 C537 0.961 . S
H553 C537 0.961 . S
H554 C538 0.931 . S
H555 C543 0.930 . S
H556 C544 0.956 . S
H557 C544 0.961 . S
H558 C544 0.961 . S
H559 C545 0.958 . S
H560 C545 0.961 . S
H561 C545 0.960 . S
C562 C563 1.391 . S
C562 C564 1.394 . S
C562 H578 0.931 . S
C563 C562 1.391 . S
C563 C567 1.376 . S
C564 C562 1.394 . S
C564 C565 1.369 . S
C564 C568 1.531 . S
C565 C564 1.369 . S
C565 C566 1.410 . S
C565 C573 1.503 . S
C566 C565 1.410 . S
C566 C567 1.392 . S
C566 C569 1.511 . S
C567 C563 1.376 . S
C567 C566 1.392 . S
C567 H579 0.929 . S
C568 C564 1.531 . S
C568 H580 0.960 . S
C568 H581 0.962 . S
C568 H582 0.960 . S
C569 C566 1.511 . S
C569 H583 0.961 . S
C569 H584 0.961 . S
C569 H585 0.961 . S
C570 C571 1.370 . S
C570 C572 1.363 . S
C570 H586 0.931 . S
C571 C570 1.370 . S
C571 C575 1.408 . S
C572 C570 1.363 . S
C572 C573 1.370 . S
C572 C576 1.524 . S
C573 C565 1.503 . S
C573 C572 1.370 . S
C573 C574 1.403 . S
C574 C573 1.403 . S
C574 C575 1.404 . S
C574 C577 1.539 . S
C575 C571 1.408 . S
C575 C574 1.404 . S
C575 H587 0.930 . S
C576 C572 1.524 . S
C576 H588 0.956 . S
C576 H589 0.961 . S
C576 H590 0.961 . S
C577 C574 1.539 . S
C577 H591 0.958 1_655 S
C577 H592 0.961 1_655 S
C577 H593 0.960 1_655 S
H578 C562 0.931 . S
H579 C567 0.929 . S
H580 C568 0.960 . S
H581 C568 0.962 . S
H582 C568 0.960 . S
H583 C569 0.961 . S
H584 C569 0.961 . S
H585 C569 0.961 . S
H586 C570 0.931 . S
H587 C575 0.930 . S
H588 C576 0.956 . S
H589 C576 0.961 . S
H590 C576 0.961 . S
H591 C577 0.958 1_455 S
H592 C577 0.961 1_455 S
H593 C577 0.960 1_455 S
C211 C58 1.218 . S
C219 C187 1.243 . S
C243 C151 1.574 . S
C251 C193 1.463 . S
C275 C74 1.549 . S
C283 C184 1.453 . S
C307 C142 1.210 . S
C315 C209 1.253 . S
C339 C67 1.545 . S
C347 C175 1.440 . S
C379 C192 1.472 . S
C371 C158 1.520 . S
C403 C154 1.100 . S
C411 C188 1.284 . S
C443 C205 1.497 . S
C435 C56 1.599 . S
C475 C172 1.436 . S
C467 C147 1.570 . S
C507 C208 1.260 . S
C499 C70 1.191 . S
C539 C171 1.487 . S
C531 C140 1.585 . S
C571 C196 1.429 . S
C563 C63 1.581 . S
