# Generated by pormake.
# Topology hwx, (6,3)-cn, num edge types: 1
# Building blocks:
#     Node 0, Type 0, BuildingBlock: IZENUY_clean_sbu_0, # of connection points: 6
#     Node 1, Type 0, BuildingBlock: IZENUY_clean_sbu_0, # of connection points: 6
#     Node 2, Type 0, BuildingBlock: IZENUY_clean_sbu_0, # of connection points: 6
#     Node 3, Type 0, BuildingBlock: IZENUY_clean_sbu_0, # of connection points: 6
#     Node 4, Type 1, BuildingBlock: WUSLED_clean_sbu_0, # of connection points: 3
#     Node 5, Type 1, BuildingBlock: WUSLED_clean_sbu_0, # of connection points: 3
#     Node 6, Type 1, BuildingBlock: WUSLED_clean_sbu_0, # of connection points: 3
#     Node 7, Type 1, BuildingBlock: WUSLED_clean_sbu_0, # of connection points: 3
#     Node 8, Type 1, BuildingBlock: WUSLED_clean_sbu_0, # of connection points: 3
#     Node 9, Type 1, BuildingBlock: WUSLED_clean_sbu_0, # of connection points: 3
#     Node 10, Type 1, BuildingBlock: WUSLED_clean_sbu_0, # of connection points: 3
#     Node 11, Type 1, BuildingBlock: WUSLED_clean_sbu_0, # of connection points: 3
#     Edge 12, Type (0, 1), BuildingBlock: UVAHIK_clean_linker_0, # of connection points: 2
#     Edge 13, Type (0, 1), BuildingBlock: UVAHIK_clean_linker_0, # of connection points: 2
#     Edge 14, Type (0, 1), BuildingBlock: UVAHIK_clean_linker_0, # of connection points: 2
#     Edge 15, Type (0, 1), BuildingBlock: UVAHIK_clean_linker_0, # of connection points: 2
#     Edge 16, Type (0, 1), BuildingBlock: UVAHIK_clean_linker_0, # of connection points: 2
#     Edge 17, Type (0, 1), BuildingBlock: UVAHIK_clean_linker_0, # of connection points: 2
#     Edge 18, Type (0, 1), BuildingBlock: UVAHIK_clean_linker_0, # of connection points: 2
#     Edge 19, Type (0, 1), BuildingBlock: UVAHIK_clean_linker_0, # of connection points: 2
#     Edge 20, Type (0, 1), BuildingBlock: UVAHIK_clean_linker_0, # of connection points: 2
#     Edge 21, Type (0, 1), BuildingBlock: UVAHIK_clean_linker_0, # of connection points: 2
#     Edge 22, Type (0, 1), BuildingBlock: UVAHIK_clean_linker_0, # of connection points: 2
#     Edge 23, Type (0, 1), BuildingBlock: UVAHIK_clean_linker_0, # of connection points: 2
#     Edge 24, Type (0, 1), BuildingBlock: UVAHIK_clean_linker_0, # of connection points: 2
#     Edge 25, Type (0, 1), BuildingBlock: UVAHIK_clean_linker_0, # of connection points: 2
#     Edge 26, Type (0, 1), BuildingBlock: UVAHIK_clean_linker_0, # of connection points: 2
#     Edge 27, Type (0, 1), BuildingBlock: UVAHIK_clean_linker_0, # of connection points: 2
#     Edge 28, Type (0, 1), BuildingBlock: UVAHIK_clean_linker_0, # of connection points: 2
#     Edge 29, Type (0, 1), BuildingBlock: UVAHIK_clean_linker_0, # of connection points: 2
#     Edge 30, Type (0, 1), BuildingBlock: UVAHIK_clean_linker_0, # of connection points: 2
#     Edge 31, Type (0, 1), BuildingBlock: UVAHIK_clean_linker_0, # of connection points: 2
#     Edge 32, Type (0, 1), BuildingBlock: UVAHIK_clean_linker_0, # of connection points: 2
#     Edge 33, Type (0, 1), BuildingBlock: UVAHIK_clean_linker_0, # of connection points: 2
#     Edge 34, Type (0, 1), BuildingBlock: UVAHIK_clean_linker_0, # of connection points: 2
#     Edge 35, Type (0, 1), BuildingBlock: UVAHIK_clean_linker_0, # of connection points: 2
# Relax obj value: 0.049
# Max RMSD: 0.074
# Mean RMSD: 0.065
data_MOF--net-hwx--node1-IZENUY_clean_sbu_0--node2-WUSLED_clean_sbu_0--edge1-UVAHIK_clean_linker_0
_symmetry_space_group_name_H-M    P1
_symmetry_Int_Tables_number       1
_symmetry_cell_setting            triclinic
loop_
_symmetry_equiv_pos_as_xyz
'x, y, z'
_cell_length_a     75.481591
_cell_length_b     75.678094
_cell_length_c     36.305627
_cell_angle_alpha  90.421892
_cell_angle_beta   90.398658
_cell_angle_gamma 90.002072
loop_
_atom_site_label
_atom_site_type_symbol
_atom_site_fract_x
_atom_site_fract_y
_atom_site_fract_z
_atom_type_partial_charge
Fe0 Fe 0.24175 0.21581 0.04922 0.0
Fe1 Fe 0.24207 0.21583 0.96471 0.0
O2 O 0.23568 0.20585 0.00662 0.0
Fe3 Fe 0.22325 0.18596 0.00595 0.0
O4 O 0.21068 0.19117 0.04788 0.0
O5 O 0.21878 0.21823 0.06265 0.0
O6 O 0.24063 0.23858 0.03218 0.0
C7 C 0.23274 0.24514 0.00456 0.0
C8 C 0.24591 0.17913 0.06317 0.0
O9 O 0.23018 0.23601 0.97579 0.0
C10 C 0.2478 0.18106 0.94763 0.0
O11 O 0.26517 0.21408 0.03878 0.0
O12 O 0.26304 0.22478 0.98285 0.0
O13 O 0.24022 0.17432 0.03191 0.0
O14 O 0.2439 0.19491 0.07419 0.0
C15 C 0.20721 0.20361 0.9493 0.0
O16 O 0.25436 0.19634 0.95057 0.0
O17 O 0.23353 0.17717 0.9639 0.0
C18 C 0.27232 0.22062 0.01067 0.0
O19 O 0.22232 0.20872 0.93886 0.0
O20 O 0.20534 0.1961 0.97994 0.0
C21 C 0.20786 0.20565 0.06462 0.0
Fe22 Fe 0.26404 0.71573 0.54639 0.0
Fe23 Fe 0.28296 0.68604 0.50388 0.0
O24 O 0.27029 0.70582 0.50404 0.0
Fe25 Fe 0.26388 0.71567 0.46183 0.0
O26 O 0.26505 0.73852 0.47921 0.0
O27 O 0.27553 0.73606 0.53552 0.0
O28 O 0.28415 0.70902 0.57116 0.0
C29 C 0.29925 0.70418 0.55996 0.0
C30 C 0.23348 0.72033 0.50135 0.0
O31 O 0.30102 0.69645 0.52927 0.0
C32 C 0.2595 0.67893 0.44799 0.0
O33 O 0.25213 0.69602 0.56047 0.0
O34 O 0.27336 0.67737 0.54635 0.0
O35 O 0.24054 0.71393 0.47284 0.0
O36 O 0.24281 0.72438 0.52926 0.0
C37 C 0.29761 0.70551 0.44483 0.0
O38 O 0.26581 0.67417 0.47864 0.0
O39 O 0.26146 0.69462 0.4368 0.0
C40 C 0.25915 0.68095 0.56315 0.0
O41 O 0.29492 0.69107 0.46133 0.0
O42 O 0.28677 0.71812 0.4477 0.0
C43 C 0.27282 0.74516 0.50709 0.0
Fe44 Fe 0.76577 0.79735 0.96248 0.0
Fe45 Fe 0.76585 0.79654 0.04696 0.0
O46 O 0.77157 0.80719 0.00541 0.0
Fe47 Fe 0.78313 0.82761 0.00688 0.0
O48 O 0.7727 0.83639 0.96502 0.0
O49 O 0.75282 0.81649 0.94893 0.0
O50 O 0.74504 0.78749 0.97902 0.0
C51 C 0.73558 0.79099 0.00684 0.0
C52 C 0.8002 0.81108 0.94988 0.0
O53 O 0.74242 0.79748 0.03571 0.0
C54 C 0.79913 0.80803 0.06483 0.0
O55 O 0.77834 0.77748 0.97273 0.0
O56 O 0.76784 0.77402 0.02842 0.0
O57 O 0.80154 0.81848 0.98104 0.0
O58 O 0.78539 0.80541 0.93821 0.0
C59 C 0.75993 0.83279 0.06342 0.0
O60 O 0.7889 0.79493 0.06114 0.0
O61 O 0.79567 0.82252 0.04904 0.0
C62 C 0.77594 0.76797 1.00065 0.0
O63 O 0.76275 0.81703 0.0733 0.0
O64 O 0.76558 0.8383 0.03295 0.0
C65 C 0.75871 0.83208 0.94766 0.0
Fe66 Fe 0.72361 0.32874 0.50885 0.0
Fe67 Fe 0.74174 0.29825 0.54982 0.0
O68 O 0.73586 0.30875 0.50798 0.0
Fe69 Fe 0.74222 0.29921 0.46534 0.0
O70 O 0.74505 0.32043 0.44171 0.0
O71 O 0.74092 0.34052 0.48481 0.0
O72 O 0.73359 0.33689 0.55205 0.0
C73 C 0.74779 0.33275 0.56871 0.0
C74 C 0.70867 0.31007 0.4479 0.0
O75 O 0.7542 0.31742 0.56552 0.0
C76 C 0.73239 0.2695 0.50806 0.0
O77 O 0.70537 0.31844 0.533 0.0
O78 O 0.72189 0.3054 0.57476 0.0
O79 O 0.71936 0.29731 0.45007 0.0
O80 O 0.71147 0.32426 0.46575 0.0
C81 C 0.77231 0.29338 0.50568 0.0
O82 O 0.72967 0.27838 0.53703 0.0
O83 O 0.74052 0.27625 0.48115 0.0
C84 C 0.7069 0.31071 0.56353 0.0
O85 O 0.7627 0.28912 0.53266 0.0
O86 O 0.76557 0.30043 0.47752 0.0
C87 C 0.747 0.33605 0.45384 0.0
C88 C 0.20947 0.52954 0.89801 0.0
C89 C 0.22368 0.54154 0.89998 0.0
C90 C 0.21433 0.5549 0.84227 0.0
C91 C 0.22613 0.55399 0.8723 0.0
C92 C 0.19993 0.54313 0.84061 0.0
C93 C 0.19759 0.53049 0.86816 0.0
U94 U 0.2058 0.51791 0.99909 0.0
O95 O 0.18873 0.49886 0.02783 0.0
O96 O 0.21769 0.49657 0.03152 0.0
C97 C 0.2023 0.48937 0.03904 0.0
C98 C 0.20681 0.5162 0.92702 0.0
C99 C 0.20115 0.47022 0.0322 0.0
C100 C 0.2074 0.44435 0.99438 0.0
C101 C 0.20704 0.46273 0.99899 0.0
C102 C 0.19534 0.44084 0.05557 0.0
C103 C 0.20186 0.43316 0.02291 0.0
C104 C 0.19503 0.45919 0.06016 0.0
C105 C 0.2102 0.55659 0.06793 0.0
C106 C 0.20878 0.55371 0.13448 0.0
C107 C 0.21525 0.58213 0.10733 0.0
C108 C 0.21403 0.57457 0.07223 0.0
C109 C 0.21261 0.57182 0.13894 0.0
C110 C 0.20758 0.54614 0.09919 0.0
C111 C 0.2093 0.54907 0.03057 0.0
O112 O 0.22061 0.51294 0.94823 0.0
O113 O 0.19192 0.51751 0.94541 0.0
O114 O 0.19392 0.54246 0.02036 0.0
O115 O 0.22281 0.53916 0.02095 0.0
H116 H 0.23294 0.54132 0.92289 0.0
H117 H 0.2372 0.56306 0.87456 0.0
H118 H 0.19069 0.54348 0.81767 0.0
H119 H 0.18651 0.52143 0.86613 0.0
H120 H 0.21263 0.43891 0.96902 0.0
H121 H 0.2118 0.47108 0.97705 0.0
H122 H 0.19067 0.43264 0.07782 0.0
H123 H 0.19037 0.46475 0.08591 0.0
H124 H 0.20656 0.54543 0.15821 0.0
H125 H 0.21857 0.59601 0.10969 0.0
H126 H 0.21621 0.58279 0.04835 0.0
H127 H 0.20463 0.53219 0.09628 0.0
C128 C 0.96224 0.80537 0.61918 0.0
C129 C 0.94468 0.81066 0.61279 0.0
C130 C 0.93845 0.80873 0.67842 0.0
C131 C 0.93289 0.81238 0.64217 0.0
C132 C 0.95616 0.80368 0.68463 0.0
C133 C 0.96794 0.80201 0.65524 0.0
U134 U 0.97056 0.80248 0.51638 0.0
O135 O 0.9932 0.81132 0.48324 0.0
O136 O 0.98584 0.78326 0.484 0.0
C137 C 0.99738 0.79513 0.47324 0.0
C138 C 0.97442 0.80257 0.58828 0.0
C139 C 0.01611 0.79023 0.47784 0.0
C140 C 0.04024 0.77817 0.51449 0.0
C141 C 0.02257 0.7836 0.51133 0.0
C142 C 0.04523 0.7864 0.45102 0.0
C143 C 0.05175 0.77934 0.48423 0.0
C144 C 0.02757 0.79176 0.44789 0.0
C145 C 0.93175 0.80967 0.44978 0.0
C146 C 0.92835 0.79735 0.38807 0.0
C147 C 0.91089 0.82272 0.4066 0.0
C148 C 0.919 0.8225 0.44133 0.0
C149 C 0.9153 0.81 0.37976 0.0
C150 C 0.93658 0.79724 0.4227 0.0
C151 C 0.9394 0.80914 0.48723 0.0
O152 O 0.97143 0.78816 0.56882 0.0
O153 O 0.97749 0.8165 0.56784 0.0
O154 O 0.95095 0.82159 0.4954 0.0
O155 O 0.94414 0.79345 0.49911 0.0
H156 H 0.94002 0.81319 0.58502 0.0
H157 H 0.9193 0.81607 0.63636 0.0
H158 H 0.96092 0.80098 0.71224 0.0
H159 H 0.98146 0.7979 0.66061 0.0
H160 H 0.04476 0.77267 0.54035 0.0
H161 H 0.01388 0.78236 0.5348 0.0
H162 H 0.05379 0.78779 0.4274 0.0
H163 H 0.02282 0.79694 0.42189 0.0
H164 H 0.93216 0.78752 0.36779 0.0
H165 H 0.90078 0.83254 0.40111 0.0
H166 H 0.9151 0.8322 0.46183 0.0
H167 H 0.94653 0.78731 0.42845 0.0
C168 C 0.79655 0.48731 0.11915 0.0
C169 C 0.79083 0.46993 0.11256 0.0
C170 C 0.7926 0.46358 0.17821 0.0
C171 C 0.78881 0.4582 0.14178 0.0
C172 C 0.79856 0.48099 0.18454 0.0
C173 C 0.80049 0.49275 0.15524 0.0
U174 U 0.79945 0.49548 0.01678 0.0
O175 O 0.78636 0.51521 0.9817 0.0
O176 O 0.81539 0.51414 0.98471 0.0
C177 C 0.80139 0.52267 0.97247 0.0
C178 C 0.79829 0.49978 0.08849 0.0
C179 C 0.80189 0.54202 0.9763 0.0
C180 C 0.80561 0.56864 0.01341 0.0
C181 C 0.80565 0.55018 0.01028 0.0
C182 C 0.79802 0.5709 0.94866 0.0
C183 C 0.80172 0.57924 0.98264 0.0
C184 C 0.79813 0.55248 0.94557 0.0
C185 C 0.79768 0.45497 0.95298 0.0
C186 C 0.79639 0.45701 0.88627 0.0
C187 C 0.79598 0.42833 0.91553 0.0
C188 C 0.79706 0.43653 0.95008 0.0
C189 C 0.7955 0.43847 0.88319 0.0
C190 C 0.79748 0.4652 0.92093 0.0
C191 C 0.79797 0.46325 0.98967 0.0
O192 O 0.81321 0.49874 0.07014 0.0
O193 O 0.78427 0.501 0.06697 0.0
O194 O 0.78385 0.47257 0.99805 0.0
O195 O 0.81288 0.47104 0.99929 0.0
H196 H 0.78776 0.46548 0.0848 0.0
H197 H 0.78394 0.44502 0.13585 0.0
H198 H 0.80185 0.48551 0.21211 0.0
H199 H 0.80503 0.50609 0.16079 0.0
H200 H 0.80871 0.5746 0.03989 0.0
H201 H 0.80854 0.54229 0.03436 0.0
H202 H 0.79466 0.57858 0.92456 0.0
H203 H 0.79507 0.54638 0.91918 0.0
H204 H 0.79623 0.46519 0.86192 0.0
H205 H 0.79503 0.41406 0.91425 0.0
H206 H 0.79713 0.42845 0.9746 0.0
H207 H 0.79798 0.47949 0.92275 0.0
C208 C 0.04737 0.2144 0.40044 0.0
C209 C 0.06555 0.21375 0.40864 0.0
C210 C 0.07238 0.21169 0.34323 0.0
C211 C 0.07794 0.21244 0.38031 0.0
C212 C 0.0541 0.21209 0.33528 0.0
C213 C 0.04171 0.21345 0.36366 0.0
U214 U 0.03623 0.21417 0.50206 0.0
O215 O 0.02004 0.23247 0.53501 0.0
O216 O 0.01284 0.2044 0.53143 0.0
C217 C 0.0083 0.22028 0.54289 0.0
C218 C 0.03432 0.21637 0.43005 0.0
C219 C 0.98973 0.22527 0.53644 0.0
C220 C 0.96465 0.23009 0.49536 0.0
C221 C 0.98234 0.22513 0.50086 0.0
C222 C 0.96167 0.23548 0.5609 0.0
C223 C 0.95408 0.23531 0.52536 0.0
C224 C 0.97931 0.23049 0.56634 0.0
C225 C 0.07363 0.20424 0.57071 0.0
C226 C 0.0709 0.20817 0.63693 0.0
C227 C 0.09793 0.19614 0.61129 0.0
C228 C 0.09071 0.19744 0.57589 0.0
C229 C 0.08818 0.20163 0.64225 0.0
C230 C 0.06366 0.20944 0.60142 0.0
C231 C 0.06672 0.20629 0.53306 0.0
O232 O 0.03059 0.20185 0.44807 0.0
O233 O 0.03679 0.23013 0.45179 0.0
O234 O 0.06215 0.22244 0.52396 0.0
O235 O 0.05524 0.19428 0.522 0.0
H236 H 0.07015 0.21446 0.43696 0.0
H237 H 0.09189 0.2124 0.38747 0.0
H238 H 0.04933 0.21125 0.30712 0.0
H239 H 0.02772 0.21386 0.35688 0.0
H240 H 0.9592 0.22964 0.4677 0.0
H241 H 0.99025 0.22116 0.47742 0.0
H242 H 0.95404 0.23971 0.58454 0.0
H243 H 0.98485 0.2308 0.59395 0.0
H244 H 0.06298 0.21234 0.66019 0.0
H245 H 0.11136 0.19129 0.61429 0.0
H246 H 0.09859 0.19342 0.55245 0.0
H247 H 0.0504 0.21466 0.59786 0.0
C248 C 0.70688 0.98415 0.61559 0.0
C249 C 0.70883 0.96618 0.60682 0.0
C250 C 0.71032 0.95894 0.67209 0.0
C251 C 0.71052 0.95367 0.63482 0.0
C252 C 0.70812 0.97698 0.68062 0.0
C253 C 0.70642 0.98947 0.65259 0.0
U254 U 0.70583 0.99576 0.51412 0.0
O255 O 0.69038 0.01577 0.48396 0.0
O256 O 0.71946 0.01666 0.4837 0.0
C257 C 0.70461 0.02458 0.47439 0.0
C258 C 0.70579 0.99745 0.58635 0.0
C259 C 0.70411 0.0438 0.48076 0.0
C260 C 0.71088 0.06977 0.51809 0.0
C261 C 0.71036 0.05137 0.51379 0.0
C262 C 0.69836 0.07314 0.45691 0.0
C263 C 0.70513 0.08088 0.48943 0.0
C264 C 0.69789 0.05478 0.45263 0.0
C265 C 0.70847 0.95775 0.44328 0.0
C266 C 0.72299 0.95532 0.38378 0.0
C267 C 0.69835 0.93612 0.398 0.0
C268 C 0.69681 0.94421 0.43256 0.0
C269 C 0.71172 0.94129 0.37348 0.0
C270 C 0.72136 0.9635 0.41829 0.0
C271 C 0.7076 0.96482 0.48128 0.0
O272 O 0.7202 0.99913 0.56656 0.0
O273 O 0.69121 0.9971 0.56634 0.0
O274 O 0.69253 0.97218 0.49095 0.0
O275 O 0.72159 0.97349 0.49338 0.0
H276 H 0.70926 0.96186 0.57832 0.0
H277 H 0.71241 0.93993 0.62725 0.0
H278 H 0.70765 0.98147 0.70899 0.0
H279 H 0.70488 0.0033 0.65982 0.0
H280 H 0.71629 0.07528 0.54337 0.0
H281 H 0.71518 0.04307 0.5359 0.0
H282 H 0.69352 0.08127 0.43458 0.0
H283 H 0.69292 0.04915 0.42704 0.0
H284 H 0.73353 0.95956 0.3658 0.0
H285 H 0.68922 0.9256 0.39074 0.0
H286 H 0.68673 0.9396 0.45129 0.0
H287 H 0.73051 0.97398 0.42573 0.0
C288 C 0.54527 0.3055 0.89593 0.0
C289 C 0.56307 0.30924 0.90403 0.0
C290 C 0.57014 0.30852 0.83864 0.0
C291 C 0.5754 0.31075 0.87566 0.0
C292 C 0.55216 0.30514 0.83068 0.0
C293 C 0.53984 0.30361 0.85913 0.0
U294 U 0.53565 0.30272 0.99784 0.0
O295 O 0.51279 0.31173 0.0304 0.0
O296 O 0.52001 0.28363 0.02921 0.0
C297 C 0.50848 0.29558 0.03998 0.0
C298 C 0.53253 0.30279 0.9258 0.0
C299 C 0.48974 0.29075 0.03513 0.0
C300 C 0.46569 0.27814 0.99862 0.0
C301 C 0.48337 0.28357 1.00183 0.0
C302 C 0.4605 0.28744 0.06163 0.0
C303 C 0.45408 0.27984 0.02866 0.0
C304 C 0.47816 0.29281 0.06481 0.0
C305 C 0.57423 0.30991 0.06564 0.0
C306 C 0.57826 0.29736 0.12662 0.0
C307 C 0.59462 0.32355 0.10944 0.0
C308 C 0.58645 0.32321 0.07477 0.0
C309 C 0.5908 0.31049 0.13557 0.0
C310 C 0.56997 0.29713 0.09203 0.0
C311 C 0.56665 0.30926 0.0281 0.0
O312 O 0.53512 0.28835 0.94501 0.0
O313 O 0.52929 0.31674 0.94648 0.0
O314 O 0.55522 0.32176 0.01991 0.0
O315 O 0.56188 0.29357 0.01583 0.0
H316 H 0.56748 0.31076 0.93236 0.0
H317 H 0.58907 0.31361 0.88273 0.0
H318 H 0.5477 0.30316 0.80254 0.0
H319 H 0.52615 0.30065 0.85243 0.0
H320 H 0.46125 0.27221 0.97294 0.0
H321 H 0.49215 0.2819 0.97856 0.0
H322 H 0.45186 0.28925 0.08506 0.0
H323 H 0.48283 0.29841 0.09066 0.0
H324 H 0.5749 0.28725 0.14635 0.0
H325 H 0.60434 0.33373 0.1154 0.0
H326 H 0.58993 0.33318 0.0548 0.0
H327 H 0.56045 0.28681 0.08578 0.0
C328 C 0.29554 0.02631 0.3979 0.0
C329 C 0.30302 0.04326 0.40041 0.0
C330 C 0.29114 0.05059 0.33976 0.0
C331 C 0.30094 0.05523 0.37155 0.0
C332 C 0.28384 0.03349 0.3373 0.0
C333 C 0.28605 0.02148 0.36608 0.0
U334 U 0.29808 0.01785 0.50072 0.0
O335 O 0.28424 0.99831 0.53466 0.0
O336 O 0.31329 0.99849 0.53289 0.0
C337 C 0.29899 0.99026 0.54411 0.0
C338 C 0.29672 0.01391 0.42891 0.0
C339 C 0.29892 0.97097 0.53902 0.0
C340 C 0.30152 0.94489 0.49996 0.0
C341 C 0.30194 0.96328 0.50434 0.0
C342 C 0.29501 0.94174 0.56484 0.0
C343 C 0.298 0.93388 0.53016 0.0
C344 C 0.29548 0.9601 0.56918 0.0
C345 C 0.29756 0.05811 0.56548 0.0
C346 C 0.29543 0.05592 0.63204 0.0
C347 C 0.29661 0.08468 0.60325 0.0
C348 C 0.29774 0.07656 0.56867 0.0
C349 C 0.29528 0.07448 0.63537 0.0
C350 C 0.29656 0.0478 0.59734 0.0
C351 C 0.2977 0.04996 0.52864 0.0
O352 O 0.31166 0.01413 0.44781 0.0
O353 O 0.28262 0.01336 0.44988 0.0
O354 O 0.28328 0.04119 0.51952 0.0
O355 O 0.31235 0.04171 0.5194 0.0
H356 H 0.31031 0.04732 0.42485 0.0
H357 H 0.30698 0.06816 0.37424 0.0
H358 H 0.27598 0.02952 0.31359 0.0
H359 H 0.28004 0.00851 0.36379 0.0
H360 H 0.30407 0.93931 0.47297 0.0
H361 H 0.30458 0.97151 0.4807 0.0
H362 H 0.29196 0.93373 0.58856 0.0
H363 H 0.29301 0.96584 0.5961 0.0
H364 H 0.29461 0.04767 0.65622 0.0
H365 H 0.29626 0.09897 0.60468 0.0
H366 H 0.29842 0.08471 0.54429 0.0
H367 H 0.29643 0.03351 0.59532 0.0
C368 C 0.45979 0.71336 0.11285 0.0
C369 C 0.44551 0.70151 0.10984 0.0
C370 C 0.43423 0.71161 0.16908 0.0
C371 C 0.43291 0.70056 0.13785 0.0
C372 C 0.44859 0.72339 0.17201 0.0
C373 C 0.46127 0.72421 0.14419 0.0
U374 U 0.47096 0.71361 0.01079 0.0
O375 O 0.48723 0.73226 0.97941 0.0
O376 O 0.49436 0.70415 0.98081 0.0
C377 C 0.49892 0.72012 0.97049 0.0
C378 C 0.47271 0.71527 0.08291 0.0
C379 C 0.51752 0.72498 0.97698 0.0
C380 C 0.54287 0.72909 0.01778 0.0
C381 C 0.52509 0.72441 0.01236 0.0
C382 C 0.54556 0.73506 0.95257 0.0
C383 C 0.55334 0.73443 0.98789 0.0
C384 C 0.52784 0.73036 0.94721 0.0
C385 C 0.43403 0.70523 0.93988 0.0
C386 C 0.42968 0.71813 0.87932 0.0
C387 C 0.41569 0.69027 0.89397 0.0
C388 C 0.42333 0.6909 0.92918 0.0
C389 C 0.41849 0.70408 0.86898 0.0
C390 C 0.43747 0.71866 0.91435 0.0
C391 C 0.44068 0.70638 0.97818 0.0
O392 O 0.47644 0.70087 0.06396 0.0
O393 O 0.47035 0.72922 0.06212 0.0
O394 O 0.44504 0.72226 0.99007 0.0
O395 O 0.45194 0.69408 0.98839 0.0
H396 H 0.44396 0.69317 0.08566 0.0
H397 H 0.42189 0.6915 0.13465 0.0
H398 H 0.45004 0.73194 0.19589 0.0
H399 H 0.47214 0.73349 0.14692 0.0
H400 H 0.54847 0.7283 0.04526 0.0
H401 H 0.51726 0.7203 0.03569 0.0
H402 H 0.55312 0.73941 0.92906 0.0
H403 H 0.52216 0.73098 0.91975 0.0
H404 H 0.43221 0.72885 0.86045 0.0
H405 H 0.40701 0.67935 0.88683 0.0
H406 H 0.42051 0.6804 0.94841 0.0
H407 H 0.44583 0.72979 0.92168 0.0
C408 C 0.19085 0.22171 0.11386 0.0
C409 C 0.19271 0.20699 0.09031 0.0
C410 C 0.1772 0.22237 0.1397 0.0
C411 C 0.14658 0.19322 0.19033 0.0
H412 H 0.1227 0.23719 0.21385 0.0
C413 C 0.10106 0.2005 0.31678 0.0
C414 C 0.08562 0.21076 0.31302 0.0
C415 C 0.11368 0.19998 0.2888 0.0
C416 C 0.12911 0.22475 0.20739 0.0
H417 H 0.18123 0.1817 0.07471 0.0
H418 H 0.1573 0.18302 0.11925 0.0
H419 H 0.14495 0.23656 0.16555 0.0
H420 H 0.07146 0.22858 0.27668 0.0
H421 H 0.09322 0.22728 0.2275 0.0
H422 H 0.13049 0.18132 0.23161 0.0
C423 C 0.16663 0.19388 0.11833 0.0
C424 C 0.14204 0.22445 0.17998 0.0
C425 C 0.1803 0.19318 0.09259 0.0
C426 C 0.08308 0.22037 0.28039 0.0
C427 C 0.09569 0.21982 0.25235 0.0
C428 C 0.13363 0.19352 0.21767 0.0
C429 C 0.16502 0.20838 0.14253 0.0
C430 C 0.15098 0.20868 0.17116 0.0
C431 C 0.11119 0.20967 0.25625 0.0
C432 C 0.12477 0.2093 0.22666 0.0
H433 H 0.20017 0.23257 0.11292 0.0
H434 H 0.17649 0.23366 0.15813 0.0
H435 H 0.15333 0.18089 0.18463 0.0
H436 H 0.10337 0.19277 0.34133 0.0
H437 H 0.12554 0.19217 0.29295 0.0
C438 C 0.26292 0.65364 0.60065 0.0
C439 C 0.25234 0.6681 0.59028 0.0
C440 C 0.25735 0.64208 0.62795 0.0
C441 C 0.21923 0.62406 0.67527 0.0
H442 H 0.25327 0.61453 0.75314 0.0
C443 C 0.20343 0.57861 0.79952 0.0
C444 C 0.21732 0.56796 0.81267 0.0
C445 C 0.20661 0.59145 0.77273 0.0
C446 C 0.24366 0.61682 0.7314 0.0
H447 H 0.22727 0.68136 0.5997 0.0
H448 H 0.21737 0.66075 0.64729 0.0
H449 H 0.26054 0.63561 0.70531 0.0
H450 H 0.2452 0.56184 0.80703 0.0
H451 H 0.25068 0.58375 0.75982 0.0
H452 H 0.20256 0.6048 0.70065 0.0
C453 C 0.23006 0.65859 0.63426 0.0
C454 C 0.24781 0.629 0.70413 0.0
C455 C 0.23576 0.67039 0.60716 0.0
C456 C 0.23431 0.57008 0.79789 0.0
C457 C 0.23745 0.58273 0.77093 0.0
C458 C 0.21513 0.61165 0.7024 0.0
C459 C 0.24098 0.64452 0.64531 0.0
C460 C 0.23577 0.63256 0.67552 0.0
C461 C 0.22371 0.59377 0.75832 0.0
C462 C 0.22743 0.60767 0.73051 0.0
H463 H 0.27575 0.65142 0.58828 0.0
H464 H 0.26592 0.63121 0.63564 0.0
H465 H 0.20974 0.62654 0.65339 0.0
H466 H 0.19021 0.57733 0.81063 0.0
H467 H 0.19574 0.59979 0.76397 0.0
C468 C 0.81754 0.79186 0.11179 0.0
C469 C 0.8138 0.80741 0.09221 0.0
C470 C 0.83031 0.79187 0.13995 0.0
C471 C 0.85119 0.8221 0.20656 0.0
H472 H 0.88479 0.78406 0.22173 0.0
C473 C 0.90262 0.82524 0.32432 0.0
C474 C 0.90584 0.80957 0.34376 0.0
C475 C 0.89287 0.82492 0.29143 0.0
C476 C 0.87537 0.79471 0.21811 0.0
H477 H 0.82114 0.83497 0.08594 0.0
H478 H 0.8433 0.83493 0.13495 0.0
H479 H 0.86506 0.78332 0.1681 0.0
H480 H 0.90147 0.78127 0.34388 0.0
H481 H 0.88418 0.78072 0.28695 0.0
H482 H 0.86102 0.8333 0.25685 0.0
C483 C 0.83622 0.8228 0.12881 0.0
C484 C 0.86411 0.79429 0.18733 0.0
C485 C 0.82357 0.82277 0.10057 0.0
C486 C 0.89938 0.79354 0.32928 0.0
C487 C 0.8895 0.79323 0.29656 0.0
C488 C 0.86233 0.82246 0.23742 0.0
C489 C 0.83952 0.80745 0.14924 0.0
C490 C 0.85188 0.80798 0.18126 0.0
C491 C 0.88596 0.80894 0.27738 0.0
C492 C 0.87455 0.80876 0.2437 0.0
H493 H 0.81032 0.77978 0.10601 0.0
H494 H 0.83251 0.77985 0.15534 0.0
H495 H 0.84169 0.83269 0.203 0.0
H496 H 0.90765 0.83776 0.33456 0.0
H497 H 0.89073 0.83723 0.27706 0.0
C498 C 0.74851 0.36247 0.5995 0.0
C499 C 0.75547 0.34531 0.59602 0.0
C500 C 0.75456 0.37387 0.62726 0.0
C501 C 0.79065 0.38129 0.69558 0.0
H502 H 0.75404 0.40651 0.74886 0.0
C503 C 0.8021 0.4137 0.83876 0.0
C504 C 0.79331 0.42966 0.84665 0.0
C505 C 0.79889 0.40466 0.80565 0.0
C506 C 0.76449 0.39981 0.73396 0.0
H507 H 0.77483 0.32696 0.6182 0.0
H508 H 0.78523 0.34683 0.66697 0.0
H509 H 0.74605 0.38848 0.69563 0.0
H510 H 0.77459 0.44885 0.82534 0.0
H511 H 0.76929 0.43329 0.76731 0.0
H512 H 0.80906 0.39248 0.73446 0.0
C513 C 0.77517 0.3515 0.64799 0.0
C514 C 0.7599 0.38945 0.70339 0.0
C515 C 0.76914 0.34008 0.62012 0.0
C516 C 0.78168 0.43666 0.82009 0.0
C517 C 0.77848 0.42763 0.78698 0.0
C518 C 0.79526 0.39169 0.72624 0.0
C519 C 0.76771 0.36842 0.65232 0.0
C520 C 0.77289 0.37999 0.68391 0.0
C521 C 0.78681 0.41137 0.77963 0.0
C522 C 0.7822 0.401 0.74591 0.0
H523 H 0.73812 0.36703 0.58117 0.0
H524 H 0.74877 0.38694 0.62935 0.0
H525 H 0.80101 0.37433 0.68094 0.0
H526 H 0.81132 0.40806 0.85841 0.0
H527 H 0.80545 0.39212 0.80102 0.0
C528 C 0.68386 0.32459 0.41323 0.0
C529 C 0.69402 0.3094 0.42046 0.0
C530 C 0.67106 0.32451 0.38526 0.0
C531 C 0.64353 0.29554 0.32598 0.0
H532 H 0.64482 0.33504 0.25862 0.0
C533 C 0.60752 0.29433 0.18487 0.0
C534 C 0.6004 0.31019 0.17141 0.0
C535 C 0.61757 0.2942 0.21737 0.0
C536 C 0.64402 0.32405 0.27746 0.0
H537 H 0.69812 0.28198 0.4048 0.0
H538 H 0.67571 0.28187 0.35597 0.0
H539 H 0.66455 0.33476 0.31186 0.0
H540 H 0.5976 0.33824 0.18224 0.0
H541 H 0.61483 0.33801 0.23933 0.0
H542 H 0.62297 0.28483 0.2916 0.0
C543 C 0.67769 0.29383 0.37204 0.0
C544 C 0.65539 0.32388 0.30798 0.0
C545 C 0.69059 0.29393 0.3999 0.0
C546 C 0.60314 0.32586 0.19167 0.0
C547 C 0.61306 0.32571 0.22433 0.0
C548 C 0.63205 0.29577 0.29556 0.0
C549 C 0.66801 0.30921 0.36399 0.0
C550 C 0.65536 0.30958 0.33246 0.0
C551 C 0.62063 0.30993 0.23734 0.0
C552 C 0.63223 0.30997 0.27074 0.0
H553 H 0.68606 0.33672 0.42861 0.0
H554 H 0.66364 0.33649 0.38006 0.0
H555 H 0.64308 0.28443 0.34459 0.0
H556 H 0.60582 0.28208 0.16962 0.0
H557 H 0.6234 0.28184 0.22617 0.0
C558 C 0.24795 0.15131 0.91682 0.0
C559 C 0.25539 0.16826 0.92088 0.0
C560 C 0.25388 0.13976 0.88935 0.0
C561 C 0.2903 0.13135 0.82333 0.0
H562 H 0.25343 0.10743 0.76726 0.0
C563 C 0.30223 0.09888 0.68071 0.0
C564 C 0.29297 0.08327 0.67186 0.0
C565 C 0.29895 0.10794 0.71367 0.0
C566 C 0.26394 0.11375 0.78295 0.0
H567 H 0.27547 0.18604 0.90006 0.0
H568 H 0.28568 0.16593 0.85185 0.0
H569 H 0.24551 0.12555 0.82019 0.0
H570 H 0.27329 0.06472 0.69138 0.0
H571 H 0.26786 0.0803 0.74918 0.0
H572 H 0.3087 0.11969 0.7856 0.0
C573 C 0.27533 0.16153 0.87014 0.0
C574 C 0.25939 0.12417 0.81335 0.0
C575 C 0.26941 0.1731 0.89769 0.0
C576 C 0.28077 0.07663 0.69738 0.0
C577 C 0.27749 0.08569 0.73035 0.0
C578 C 0.29486 0.12089 0.79287 0.0
C579 C 0.26739 0.14486 0.86518 0.0
C580 C 0.27249 0.13318 0.83382 0.0
C581 C 0.28632 0.10162 0.73862 0.0
C582 C 0.28171 0.11204 0.77217 0.0
H583 H 0.23726 0.14704 0.93441 0.0
H584 H 0.2477 0.12689 0.88676 0.0
H585 H 0.30073 0.13795 0.83876 0.0
H586 H 0.3119 0.10423 0.66192 0.0
H587 H 0.3059 0.12022 0.719 0.0
C588 C 0.31694 0.72288 0.40206 0.0
C589 C 0.31243 0.7067 0.41836 0.0
C590 C 0.33047 0.7237 0.37593 0.0
C591 C 0.35384 0.69623 0.3082 0.0
H592 H 0.38982 0.73276 0.31231 0.0
C593 C 0.41424 0.69493 0.21153 0.0
C594 C 0.4205 0.71112 0.19816 0.0
C595 C 0.40127 0.69451 0.23884 0.0
C596 C 0.37974 0.72261 0.3104 0.0
H597 H 0.31882 0.67873 0.42023 0.0
H598 H 0.34225 0.68021 0.37458 0.0
H599 H 0.36674 0.73209 0.359 0.0
H600 H 0.41785 0.73957 0.20241 0.0
H601 H 0.39497 0.7389 0.24941 0.0
H602 H 0.36652 0.68689 0.25932 0.0
C603 C 0.33527 0.69222 0.3819 0.0
C604 C 0.36655 0.72222 0.33726 0.0
C605 C 0.32191 0.69143 0.40825 0.0
C606 C 0.41346 0.72689 0.21256 0.0
C607 C 0.40038 0.72649 0.23961 0.0
C608 C 0.36692 0.69671 0.28116 0.0
C609 C 0.33963 0.70833 0.36529 0.0
C610 C 0.35351 0.70897 0.33654 0.0
C611 C 0.3941 0.71029 0.25317 0.0
C612 C 0.3801 0.70986 0.28195 0.0
H613 H 0.30994 0.73489 0.40927 0.0
H614 H 0.33349 0.73629 0.36343 0.0
H615 H 0.34381 0.68601 0.30663 0.0
H616 H 0.41956 0.68256 0.20126 0.0
H617 H 0.39703 0.6818 0.24903 0.0
C618 C 0.75626 0.86273 0.92258 0.0
C619 C 0.75051 0.84505 0.92224 0.0
C620 C 0.74956 0.87479 0.89712 0.0
C621 C 0.72937 0.877 0.80494 0.0
H622 H 0.7202 0.9257 0.83272 0.0
C623 C 0.7049 0.92897 0.69966 0.0
C624 C 0.71288 0.94574 0.70191 0.0
C625 C 0.70768 0.91648 0.72738 0.0
C626 C 0.72283 0.91218 0.82444 0.0
H627 H 0.7328 0.82634 0.89531 0.0
H628 H 0.72107 0.8475 0.85078 0.0
H629 H 0.72791 0.90428 0.88001 0.0
H630 H 0.73022 0.96242 0.73499 0.0
H631 H 0.73507 0.94073 0.78315 0.0
H632 H 0.72463 0.88498 0.74927 0.0
C633 C 0.73091 0.85193 0.87065 0.0
C634 C 0.72722 0.89989 0.85157 0.0
C635 C 0.73755 0.83984 0.89632 0.0
C636 C 0.72361 0.94976 0.73266 0.0
C637 C 0.72639 0.9373 0.76032 0.0
C638 C 0.725 0.88931 0.77776 0.0
C639 C 0.73697 0.86951 0.87056 0.0
C640 C 0.7308 0.88221 0.8421 0.0
C641 C 0.7185 0.92049 0.75802 0.0
C642 C 0.72194 0.90712 0.78712 0.0
H643 H 0.76619 0.86723 0.94218 0.0
H644 H 0.75467 0.88817 0.89759 0.0
H645 H 0.73225 0.86353 0.79665 0.0
H646 H 0.69636 0.92552 0.67661 0.0
H647 H 0.70122 0.90375 0.72495 0.0
C648 C 0.81472 0.80073 0.8918 0.0
C649 C 0.81569 0.8104 0.92498 0.0
C650 C 0.82896 0.80047 0.86748 0.0
C651 C 0.86828 0.82574 0.84044 0.0
H652 H 0.88128 0.7821 0.79091 0.0
C653 C 0.91317 0.82335 0.71169 0.0
C654 C 0.92566 0.80961 0.70939 0.0
C655 C 0.90072 0.82373 0.74004 0.0
C656 C 0.87794 0.79437 0.80473 0.0
H657 H 0.83258 0.82724 0.95874 0.0
H658 H 0.85751 0.82679 0.91608 0.0
H659 H 0.85806 0.78186 0.83723 0.0
H660 H 0.93487 0.78551 0.73525 0.0
H661 H 0.91329 0.78629 0.78489 0.0
H662 H 0.88819 0.83824 0.80784 0.0
C663 C 0.84561 0.81951 0.90889 0.0
C664 C 0.8645 0.79427 0.83101 0.0
C665 C 0.83137 0.81967 0.93342 0.0
C666 C 0.92555 0.79638 0.73639 0.0
C667 C 0.91306 0.79672 0.76463 0.0
C668 C 0.88167 0.82587 0.81396 0.0
C669 C 0.84454 0.80993 0.8756 0.0
C670 C 0.85943 0.80996 0.84899 0.0
C671 C 0.90041 0.81032 0.76664 0.0
C672 C 0.88659 0.81019 0.79566 0.0
H673 H 0.80287 0.7934 0.8844 0.0
H674 H 0.82763 0.79313 0.84188 0.0
H675 H 0.86458 0.83808 0.8536 0.0
H676 H 0.91301 0.83383 0.69152 0.0
H677 H 0.89106 0.83431 0.74062 0.0
C678 C 0.76207 0.34487 0.39542 0.0
C679 C 0.75447 0.34972 0.42929 0.0
C680 C 0.76792 0.35774 0.37091 0.0
C681 C 0.76007 0.40393 0.34561 0.0
H682 H 0.80334 0.39851 0.28969 0.0
C683 C 0.78301 0.45712 0.24306 0.0
C684 C 0.79002 0.45115 0.20939 0.0
C685 C 0.77996 0.44531 0.2718 0.0
C686 C 0.79112 0.40015 0.3048 0.0
H687 H 0.74757 0.372 0.46434 0.0
H688 H 0.75776 0.39446 0.42146 0.0
H689 H 0.79589 0.37686 0.33658 0.0
H690 H 0.7998 0.42806 0.18015 0.0
H691 H 0.79396 0.40744 0.22969 0.0
H692 H 0.75502 0.42694 0.31335 0.0
C693 C 0.75904 0.38066 0.41381 0.0
C694 C 0.78689 0.38776 0.33175 0.0
C695 C 0.7533 0.36777 0.43846 0.0
C696 C 0.79415 0.43311 0.20546 0.0
C697 C 0.79103 0.4213 0.23413 0.0
C698 C 0.76424 0.41627 0.31852 0.0
C699 C 0.76623 0.37579 0.37957 0.0
C700 C 0.77126 0.38944 0.35229 0.0
C701 C 0.78378 0.42722 0.26761 0.0
C702 C 0.77976 0.41448 0.29756 0.0
H703 H 0.76324 0.33109 0.38748 0.0
H704 H 0.77325 0.35356 0.34464 0.0
H705 H 0.7478 0.40547 0.36056 0.0
H706 H 0.7795 0.47087 0.24701 0.0
H707 H 0.77459 0.4504 0.29734 0.0
C708 C 0.1759 0.19616 0.93027 0.0
C709 C 0.19205 0.20473 0.92318 0.0
C710 C 0.16214 0.19638 0.90416 0.0
C711 C 0.1463 0.21996 0.82089 0.0
H712 H 0.12296 0.17567 0.79695 0.0
C713 C 0.09435 0.21548 0.7042 0.0
C714 C 0.09643 0.2012 0.6796 0.0
C715 C 0.10347 0.21584 0.73787 0.0
C716 C 0.12935 0.18814 0.80332 0.0
H717 H 0.20615 0.22068 0.88349 0.0
H718 H 0.18234 0.22096 0.83822 0.0
H719 H 0.14395 0.17705 0.84837 0.0
H720 H 0.10899 0.17566 0.67207 0.0
H721 H 0.12516 0.17646 0.73035 0.0
H722 H 0.13234 0.2309 0.775 0.0
C723 C 0.1802 0.21418 0.86398 0.0
C724 C 0.14123 0.18898 0.83305 0.0
C725 C 0.19393 0.2139 0.88989 0.0
C726 C 0.10728 0.18698 0.69014 0.0
C727 C 0.11639 0.18734 0.7238 0.0
C728 C 0.13443 0.21913 0.79124 0.0
C729 C 0.1642 0.20529 0.87059 0.0
C730 C 0.15012 0.20482 0.8417 0.0
C731 C 0.11486 0.20194 0.74777 0.0
C732 C 0.12605 0.20314 0.78164 0.0
H733 H 0.17399 0.189 0.95566 0.0
H734 H 0.14991 0.18954 0.91021 0.0
H735 H 0.15275 0.23243 0.82712 0.0
H736 H 0.08618 0.2267 0.69688 0.0
H737 H 0.10181 0.22718 0.75589 0.0
C738 C 0.25453 0.64747 0.42759 0.0
C739 C 0.25153 0.66565 0.42269 0.0
C740 C 0.24817 0.63517 0.40168 0.0
C741 C 0.21588 0.62924 0.32557 0.0
H742 H 0.25022 0.59621 0.28594 0.0
C743 C 0.20759 0.59716 0.18263 0.0
C744 C 0.21417 0.58005 0.17619 0.0
C745 C 0.21026 0.60556 0.21657 0.0
C746 C 0.24031 0.60506 0.29712 0.0
H747 H 0.23886 0.68508 0.38766 0.0
H748 H 0.22769 0.66368 0.34282 0.0
H749 H 0.2581 0.61453 0.33908 0.0
H750 H 0.22826 0.55813 0.20102 0.0
H751 H 0.23255 0.57265 0.2607 0.0
H752 H 0.19815 0.61998 0.28346 0.0
C753 C 0.23497 0.65891 0.36657 0.0
C754 C 0.24486 0.61559 0.32758 0.0
C755 C 0.24149 0.67119 0.39214 0.0
C756 C 0.22294 0.57128 0.20508 0.0
C757 C 0.22557 0.57969 0.23917 0.0
C758 C 0.21128 0.61862 0.29532 0.0
C759 C 0.23847 0.6408 0.37071 0.0
C760 C 0.23284 0.62809 0.34155 0.0
C761 C 0.2195 0.59705 0.24515 0.0
C762 C 0.22359 0.60672 0.2801 0.0
H763 H 0.26222 0.64277 0.45084 0.0
H764 H 0.25097 0.62128 0.40568 0.0
H765 H 0.20626 0.63857 0.33611 0.0
H766 H 0.20053 0.6042 0.16121 0.0
H767 H 0.20556 0.619 0.21991 0.0
C768 C 0.31477 0.71931 0.61196 0.0
C769 C 0.31439 0.70559 0.58577 0.0
C770 C 0.32773 0.71971 0.63951 0.0
C771 C 0.37036 0.69937 0.67061 0.0
H772 H 0.35375 0.71534 0.76607 0.0
C773 C 0.40764 0.68937 0.81065 0.0
C774 C 0.40876 0.70447 0.83334 0.0
C775 C 0.39751 0.68963 0.77818 0.0
C776 C 0.35861 0.71097 0.73952 0.0
H777 H 0.32763 0.68182 0.567 0.0
H778 H 0.34999 0.68209 0.61605 0.0
H779 H 0.33365 0.71557 0.71359 0.0
H780 H 0.40025 0.73168 0.83978 0.0
H781 H 0.38242 0.73204 0.78345 0.0
H782 H 0.39525 0.6942 0.69758 0.0
C783 C 0.34051 0.69281 0.61488 0.0
C784 C 0.34713 0.71119 0.70928 0.0
C785 C 0.32768 0.69261 0.58678 0.0
C786 C 0.39977 0.71989 0.82268 0.0
C787 C 0.38947 0.72007 0.79061 0.0
C788 C 0.38181 0.6989 0.70116 0.0
C789 C 0.34044 0.70616 0.64214 0.0
C790 C 0.35287 0.70561 0.67426 0.0
C791 C 0.38808 0.7049 0.76825 0.0
C792 C 0.37606 0.70488 0.73579 0.0
H793 H 0.30481 0.72963 0.61149 0.0
H794 H 0.32756 0.73053 0.65918 0.0
H795 H 0.37532 0.69509 0.64409 0.0
H796 H 0.4145 0.67734 0.81816 0.0
H797 H 0.39658 0.67774 0.76148 0.0
C798 C 0.74436 0.83857 0.12269 0.0
C799 C 0.75214 0.84524 0.09057 0.0
C800 C 0.7388 0.84994 0.15066 0.0
C801 C 0.72738 0.896 0.17443 0.0
H802 H 0.7416 0.88123 0.27235 0.0
C803 C 0.7198 0.93997 0.30609 0.0
C804 C 0.71464 0.93131 0.3385 0.0
C805 C 0.72364 0.93029 0.27407 0.0
C806 C 0.73731 0.88547 0.24529 0.0
H807 H 0.75928 0.86922 0.06188 0.0
H808 H 0.74955 0.8892 0.11121 0.0
H809 H 0.74925 0.86306 0.21943 0.0
H810 H 0.70932 0.90563 0.36226 0.0
H811 H 0.71547 0.88893 0.30651 0.0
H812 H 0.71537 0.91846 0.20067 0.0
C813 C 0.74779 0.8751 0.11451 0.0
C814 C 0.74172 0.87505 0.2149 0.0
C815 C 0.75339 0.86366 0.08632 0.0
C816 C 0.71303 0.9128 0.3378 0.0
C817 C 0.71682 0.90318 0.3059 0.0
C818 C 0.7229 0.90647 0.20501 0.0
C819 C 0.74087 0.86831 0.14739 0.0
C820 C 0.73662 0.88003 0.17916 0.0
C821 C 0.72245 0.91175 0.27381 0.0
C822 C 0.72763 0.90118 0.24086 0.0
H823 H 0.74292 0.82448 0.12668 0.0
H824 H 0.73311 0.84431 0.17525 0.0
H825 H 0.72323 0.90016 0.14723 0.0
H826 H 0.72098 0.95423 0.30552 0.0
H827 H 0.72799 0.9373 0.24987 0.0
C828 C 0.6932 0.30082 0.62251 0.0
C829 C 0.6915 0.30957 0.58862 0.0
C830 C 0.67912 0.30035 0.64721 0.0
C831 C 0.63813 0.32378 0.67257 0.0
H832 H 0.62925 0.28135 0.72877 0.0
C833 C 0.57967 0.31738 0.775 0.0
C834 C 0.58346 0.30903 0.80863 0.0
C835 C 0.59214 0.31744 0.74661 0.0
C836 C 0.63165 0.29336 0.71354 0.0
H837 H 0.67344 0.32444 0.55393 0.0
H838 H 0.64875 0.3235 0.59712 0.0
H839 H 0.65195 0.28112 0.68142 0.0
H840 H 0.60332 0.29408 0.83861 0.0
H841 H 0.6251 0.29445 0.78951 0.0
H842 H 0.61788 0.33605 0.70502 0.0
C843 C 0.66111 0.31718 0.60466 0.0
C844 C 0.64466 0.29322 0.68636 0.0
C845 C 0.67523 0.31761 0.57981 0.0
C846 C 0.60003 0.30081 0.81324 0.0
C847 C 0.61244 0.30082 0.78489 0.0
C848 C 0.62508 0.32392 0.6998 0.0
C849 C 0.66293 0.3086 0.63873 0.0
C850 C 0.64823 0.30849 0.66586 0.0
C851 C 0.60863 0.30906 0.75115 0.0
C852 C 0.62185 0.30877 0.72093 0.0
H853 H 0.70552 0.29448 0.63028 0.0
H854 H 0.68108 0.29384 0.67339 0.0
H855 H 0.64068 0.33583 0.65757 0.0
H856 H 0.5671 0.32396 0.77067 0.0
H857 H 0.58875 0.32382 0.7209 0.0
C858 C 0.25486 0.14797 0.07884 0.0
C859 C 0.2528 0.16578 0.08939 0.0
C860 C 0.26014 0.13531 0.10465 0.0
C861 C 0.25928 0.12717 0.20415 0.0
H862 H 0.29453 0.09118 0.18405 0.0
C863 C 0.28494 0.08158 0.31869 0.0
C864 C 0.28801 0.06371 0.30997 0.0
C865 C 0.28142 0.09384 0.291 0.0
C866 C 0.28449 0.101 0.18996 0.0
H867 H 0.25531 0.18427 0.13518 0.0
H868 H 0.26443 0.16225 0.17987 0.0
H869 H 0.28705 0.11279 0.13666 0.0
H870 H 0.29015 0.04488 0.26485 0.0
H871 H 0.2834 0.06614 0.21666 0.0
H872 H 0.2564 0.11537 0.25702 0.0
C873 C 0.26177 0.15804 0.15179 0.0
C874 C 0.28025 0.1134 0.16282 0.0
C875 C 0.25663 0.17068 0.12604 0.0
C876 C 0.28763 0.05847 0.27269 0.0
C877 C 0.28398 0.07073 0.24496 0.0
C878 C 0.2634 0.11474 0.23111 0.0
C879 C 0.26334 0.14018 0.14155 0.0
C880 C 0.2677 0.1267 0.16977 0.0
C881 C 0.28069 0.08856 0.25379 0.0
C882 C 0.27617 0.10157 0.22455 0.0
H883 H 0.25207 0.14375 0.05082 0.0
H884 H 0.26119 0.12162 0.09599 0.0
H885 H 0.2493 0.13706 0.21009 0.0
H886 H 0.2849 0.08611 0.34705 0.0
H887 H 0.27925 0.10749 0.29886 0.0
C888 C 0.22142 0.27261 0.9734 0.0
C889 C 0.22819 0.26422 0.00497 0.0
C890 C 0.21792 0.29079 0.97378 0.0
C891 C 0.23036 0.33166 0.02406 0.0
H892 H 0.18833 0.35151 0.97838 0.0
C893 C 0.20989 0.40373 0.04968 0.0
C894 C 0.20377 0.41363 0.01954 0.0
C895 C 0.2124 0.38551 0.04648 0.0
C896 C 0.20023 0.34618 0.9909 0.0
H897 H 0.23603 0.26835 0.06204 0.0
H898 H 0.22978 0.29983 0.06274 0.0
H899 H 0.19347 0.31962 0.97531 0.0
H900 H 0.19517 0.41197 0.96249 0.0
H901 H 0.19981 0.38009 0.95675 0.0
H902 H 0.23715 0.35809 0.03975 0.0
C903 C 0.2275 0.29247 0.03745 0.0
C904 C 0.20317 0.32792 0.98913 0.0
C905 C 0.231 0.27436 0.03708 0.0
C906 C 0.20004 0.40477 0.98616 0.0
C907 C 0.20253 0.38648 0.98297 0.0
C908 C 0.22742 0.34985 0.02582 0.0
C909 C 0.22113 0.30097 0.00572 0.0
C910 C 0.21818 0.32042 0.00608 0.0
C911 C 0.20891 0.37667 0.01303 0.0
C912 C 0.21223 0.35734 0.00965 0.0
H913 H 0.21907 0.26519 0.94821 0.0
H914 H 0.2131 0.29695 0.94881 0.0
H915 H 0.24226 0.32639 0.03667 0.0
H916 H 0.21312 0.41011 0.07566 0.0
H917 H 0.21708 0.37833 0.07034 0.0
C918 C 0.20386 0.72184 0.46934 0.0
C919 C 0.21438 0.725 0.50083 0.0
C920 C 0.18609 0.72709 0.46842 0.0
C921 C 0.15508 0.75844 0.51224 0.0
H922 H 0.11895 0.72876 0.4673 0.0
C923 C 0.08053 0.77585 0.51896 0.0
C924 C 0.07035 0.77289 0.48692 0.0
C925 C 0.09798 0.76971 0.52135 0.0
C926 C 0.12891 0.7373 0.47961 0.0
H927 H 0.21424 0.73577 0.55641 0.0
H928 H 0.18329 0.74477 0.55486 0.0
H929 H 0.14951 0.71838 0.47015 0.0
H930 H 0.07053 0.76087 0.43247 0.0
H931 H 0.10102 0.75057 0.4363 0.0
H932 H 0.13453 0.77742 0.52146 0.0
C933 C 0.18886 0.73848 0.53065 0.0
C934 C 0.14643 0.73134 0.48125 0.0
C935 C 0.2066 0.73322 0.53161 0.0
C936 C 0.07804 0.7636 0.45739 0.0
C937 C 0.09547 0.75747 0.45977 0.0
C938 C 0.13757 0.76442 0.51054 0.0
C939 C 0.17843 0.73564 0.49895 0.0
C940 C 0.15973 0.74185 0.49754 0.0
C941 C 0.10567 0.76043 0.49177 0.0
C942 C 0.12427 0.75395 0.49412 0.0
H943 H 0.20941 0.71554 0.44512 0.0
H944 H 0.17847 0.72484 0.44345 0.0
H945 H 0.16505 0.76699 0.52446 0.0
H946 H 0.07509 0.78309 0.5421 0.0
H947 H 0.1054 0.77207 0.54655 0.0
C948 C 0.78857 0.74125 0.96835 0.0
C949 C 0.78073 0.74895 0.99964 0.0
C950 C 0.79211 0.72307 0.96711 0.0
C951 C 0.77755 0.68124 0.00854 0.0
H952 H 0.82094 0.6621 0.968 0.0
C953 C 0.79363 0.60698 0.01727 0.0
C954 C 0.80104 0.59887 0.98601 0.0
C955 C 0.79217 0.62538 0.01963 0.0
C956 C 0.80867 0.66722 0.97907 0.0
H957 H 0.77105 0.74358 0.05464 0.0
H958 H 0.77727 0.71209 0.05243 0.0
H959 H 0.81655 0.69408 0.97028 0.0
H960 H 0.81331 0.60389 0.93323 0.0
H961 H 0.81033 0.63591 0.9369 0.0
H962 H 0.76949 0.65451 0.01692 0.0
C963 C 0.78043 0.72002 0.02863 0.0
C964 C 0.80617 0.68555 0.98038 0.0
C965 C 0.77695 0.73812 0.02993 0.0
C966 C 0.80729 0.60966 0.95749 0.0
C967 C 0.80579 0.62806 0.9598 0.0
C968 C 0.78 0.66296 0.0071 0.0
C969 C 0.78784 0.71222 0.99707 0.0
C970 C 0.7906 0.69277 0.99526 0.0
C971 C 0.79804 0.63615 0.99074 0.0
C972 C 0.79561 0.65569 0.99246 0.0
H973 H 0.7917 0.74918 0.94457 0.0
H974 H 0.79775 0.71745 0.9423 0.0
H975 H 0.76525 0.68635 0.01954 0.0
H976 H 0.78853 0.59912 0.03963 0.0
H977 H 0.78638 0.63115 0.04413 0.0
C978 C 0.80243 0.29243 0.47623 0.0
C979 C 0.79125 0.28807 0.50566 0.0
C980 C 0.82008 0.28671 0.47587 0.0
C981 C 0.8493 0.25243 0.5149 0.0
H982 H 0.88754 0.2841 0.48905 0.0
C983 C 0.92227 0.2356 0.54534 0.0
C984 C 0.93525 0.24061 0.51984 0.0
C985 C 0.9047 0.24103 0.54104 0.0
C986 C 0.87701 0.27499 0.49579 0.0
H987 H 0.79004 0.27453 0.55811 0.0
H988 H 0.82068 0.26465 0.55743 0.0
H989 H 0.85694 0.29453 0.48626 0.0
H990 H 0.93978 0.2552 0.46958 0.0
H991 H 0.90899 0.26434 0.4616 0.0
H992 H 0.86924 0.23289 0.52444 0.0
C993 C 0.81577 0.2723 0.53442 0.0
C994 C 0.85947 0.28099 0.49425 0.0
C995 C 0.79821 0.27808 0.5349 0.0
C996 C 0.93012 0.25098 0.48958 0.0
C997 C 0.9125 0.2564 0.48525 0.0
C998 C 0.86678 0.24641 0.51627 0.0
C999 C 0.82688 0.27641 0.5048 0.0
C1000 C 0.84544 0.26985 0.50431 0.0
C1001 C 0.89958 0.25156 0.51104 0.0
C1002 C 0.8809 0.25768 0.50725 0.0
H1003 H 0.79752 0.30013 0.45329 0.0
H1004 H 0.8283 0.29003 0.45259 0.0
H1005 H 0.83876 0.24341 0.52212 0.0
H1006 H 0.92568 0.22742 0.5687 0.0
H1007 H 0.89518 0.23722 0.56171 0.0
C1008 C 0.72126 0.24178 0.53812 0.0
C1009 C 0.72791 0.25041 0.50691 0.0
C1010 C 0.71805 0.22355 0.53733 0.0
C1011 C 0.73128 0.18311 0.48689 0.0
H1012 H 0.69006 0.1622 0.5325 0.0
C1013 C 0.71268 0.11034 0.4624 0.0
C1014 C 0.7069 0.10044 0.49265 0.0
C1015 C 0.71479 0.12862 0.46529 0.0
C1016 C 0.70174 0.16783 0.52 0.0
H1017 H 0.73575 0.24666 0.44997 0.0
H1018 H 0.72997 0.21507 0.44851 0.0
H1019 H 0.69431 0.19422 0.53525 0.0
H1020 H 0.69855 0.10213 0.54961 0.0
H1021 H 0.70251 0.13412 0.55483 0.0
H1022 H 0.73874 0.15683 0.47158 0.0
C1023 C 0.72759 0.22229 0.47386 0.0
C1024 C 0.70417 0.18617 0.52156 0.0
C1025 C 0.73081 0.24046 0.47465 0.0
C1026 C 0.70317 0.10933 0.52587 0.0
C1027 C 0.70526 0.12769 0.52875 0.0
C1028 C 0.72885 0.16483 0.48532 0.0
C1029 C 0.7214 0.21355 0.50531 0.0
C1030 C 0.7189 0.19404 0.50471 0.0
C1031 C 0.71122 0.13753 0.49854 0.0
C1032 C 0.71398 0.15696 0.50154 0.0
H1033 H 0.71886 0.24904 0.56342 0.0
H1034 H 0.71339 0.21723 0.5621 0.0
H1035 H 0.74298 0.18867 0.47435 0.0
H1036 H 0.71589 0.10393 0.43653 0.0
H1037 H 0.71918 0.13581 0.44133 0.0
C1038 C 0.29932 0.23327 0.98087 0.0
C1039 C 0.2914 0.22537 0.01161 0.0
C1040 C 0.31705 0.23858 0.98209 0.0
C1041 C 0.35927 0.23205 0.03249 0.0
H1042 H 0.37138 0.27749 0.99083 0.0
C1043 C 0.4277 0.26456 0.05583 0.0
C1044 C 0.43548 0.27335 0.02601 0.0
C1045 C 0.41027 0.25842 0.05354 0.0
C1046 C 0.36828 0.26467 1.00218 0.0
H1047 H 0.29611 0.21654 0.06755 0.0
H1048 H 0.32704 0.22592 0.06973 0.0
H1049 H 0.34085 0.2671 0.98786 0.0
H1050 H 0.43089 0.28263 0.97039 0.0
H1051 H 0.40056 0.27161 0.9661 0.0
H1052 H 0.38671 0.22964 0.04686 0.0
C1053 C 0.31953 0.22789 0.04457 0.0
C1054 C 0.35076 0.25871 1.00049 0.0
C1055 C 0.30177 0.22258 0.04337 0.0
C1056 C 0.42538 0.27579 0.99376 0.0
C1057 C 0.40791 0.26965 0.99146 0.0
C1058 C 0.3768 0.23801 0.03415 0.0
C1059 C 0.32733 0.2361 0.01405 0.0
C1060 C 0.34603 0.24233 0.01566 0.0
C1061 C 0.40014 0.26088 0.02134 0.0
C1062 C 0.38153 0.25441 0.01908 0.0
H1063 H 0.29179 0.23553 0.95584 0.0
H1064 H 0.32271 0.24458 0.95788 0.0
H1065 H 0.35613 0.21927 0.04398 0.0
H1066 H 0.43516 0.26223 0.08092 0.0
H1067 H 0.40465 0.25191 0.07722 0.0
C1068 C 0.27244 0.77504 0.47759 0.0
C1069 C 0.27714 0.7643 0.50755 0.0
C1070 C 0.27577 0.79321 0.47856 0.0
C1071 C 0.30266 0.82768 0.52513 0.0
H1072 H 0.26513 0.85893 0.49224 0.0
C1073 C 0.30386 0.90307 0.55293 0.0
C1074 C 0.2971 0.91432 0.52554 0.0
C1075 C 0.30233 0.88472 0.54937 0.0
C1076 C 0.27587 0.85042 0.50101 0.0
H1077 H 0.28949 0.76426 0.56171 0.0
H1078 H 0.29524 0.79599 0.56343 0.0
H1079 H 0.26096 0.82707 0.48847 0.0
H1080 H 0.28358 0.91495 0.47264 0.0
H1081 H 0.28134 0.88298 0.46596 0.0
H1082 H 0.31758 0.85106 0.5377 0.0
C1083 C 0.28903 0.79031 0.53909 0.0
C1084 C 0.27346 0.83213 0.4989 0.0
C1085 C 0.28564 0.77212 0.5382 0.0
C1086 C 0.28908 0.90671 0.49414 0.0
C1087 C 0.28759 0.88836 0.49053 0.0
C1088 C 0.30511 0.846 0.52712 0.0
C1089 C 0.28397 0.80109 0.50944 0.0
C1090 C 0.28679 0.82054 0.51104 0.0
C1091 C 0.29404 0.87712 0.51826 0.0
C1092 C 0.29171 0.85761 0.51522 0.0
H1093 H 0.26597 0.76947 0.45342 0.0
H1094 H 0.27194 0.80109 0.45504 0.0
H1095 H 0.31328 0.81911 0.53427 0.0
H1096 H 0.31034 0.90844 0.57726 0.0
H1097 H 0.30731 0.8765 0.57143 0.0
C1098 C 0.70564 0.78968 0.03673 0.0
C1099 C 0.71669 0.78558 0.00681 0.0
C1100 C 0.68799 0.784 0.037 0.0
C1101 C 0.65837 0.75029 0.99624 0.0
H1102 H 0.62058 0.78208 0.02514 0.0
C1103 C 0.58501 0.73437 0.9671 0.0
C1104 C 0.57228 0.73937 0.99327 0.0
C1105 C 0.60268 0.73954 0.9712 0.0
C1106 C 0.63099 0.77294 0.01754 0.0
H1107 H 0.7177 0.77247 0.95347 0.0
H1108 H 0.68701 0.76263 0.95399 0.0
H1109 H 0.65127 0.79224 0.02767 0.0
H1110 H 0.56827 0.75363 0.04458 0.0
H1111 H 0.59923 0.76232 0.05221 0.0
H1112 H 0.6382 0.73098 0.98611 0.0
C1113 C 0.69204 0.77007 0.97742 0.0
C1114 C 0.64857 0.77878 0.01892 0.0
C1115 C 0.70962 0.77583 0.97703 0.0
C1116 C 0.57775 0.74943 0.02404 0.0
C1117 C 0.59546 0.75459 0.02819 0.0
C1118 C 0.64083 0.74442 0.99503 0.0
C1119 C 0.68105 0.774 0.00747 0.0
C1120 C 0.66244 0.76759 0.00783 0.0
C1121 C 0.60813 0.7498 1.00168 0.0
C1122 C 0.62688 0.75574 0.0052 0.0
H1123 H 0.71064 0.79719 0.06011 0.0
H1124 H 0.67987 0.78715 0.06063 0.0
H1125 H 0.66879 0.74124 0.98818 0.0
H1126 H 0.58133 0.72642 0.94332 0.0
H1127 H 0.612 0.73577 0.95001 0.0
loop_
_geom_bond_atom_site_label_1
_geom_bond_atom_site_label_2
_geom_bond_distance
_geom_bond_site_symmetry_2
_ccdc_geom_bond_type
Fe0 O2 1.918 . S
Fe0 O5 1.997 . S
Fe0 O6 2.002 . S
Fe0 O11 1.976 . S
Fe0 O14 1.996 . S
Fe1 O2 1.918 1_556 S
Fe1 O9 1.997 . S
Fe1 O12 1.996 . S
Fe1 O16 1.976 . S
Fe1 O19 2.002 . S
O2 Fe0 1.918 . S
O2 Fe1 1.918 1_554 S
O2 Fe3 1.918 . S
Fe3 O2 1.918 . S
Fe3 O4 2.002 . S
Fe3 O13 1.976 . S
Fe3 O17 1.996 1_554 S
Fe3 O20 1.997 1_554 S
O4 Fe3 2.002 . S
O4 C21 1.295 . S
O5 Fe0 1.997 . S
O5 C21 1.235 . S
O6 Fe0 2.002 . S
O6 C7 1.295 . S
C7 O6 1.295 . S
C7 O9 1.235 1_554 S
C8 O13 1.287 . S
C8 O14 1.255 . S
O9 Fe1 1.997 . S
O9 C7 1.235 1_556 S
C10 O16 1.287 . S
C10 O17 1.255 . S
O11 Fe0 1.976 . S
O11 C18 1.287 . S
O12 Fe1 1.996 . S
O12 C18 1.255 1_556 S
O13 Fe3 1.976 . S
O13 C8 1.287 . S
O14 Fe0 1.996 . S
O14 C8 1.255 . S
C15 O19 1.295 . S
C15 O20 1.235 . S
O16 Fe1 1.976 . S
O16 C10 1.287 . S
O17 Fe3 1.996 1_556 S
O17 C10 1.255 . S
C18 O11 1.287 . S
C18 O12 1.255 1_554 S
O19 Fe1 2.002 . S
O19 C15 1.295 . S
O20 Fe3 1.997 1_556 S
O20 C15 1.235 . S
C21 O4 1.295 . S
C21 O5 1.235 . S
Fe22 O24 1.918 . S
Fe22 O27 1.997 . S
Fe22 O28 2.002 . S
Fe22 O33 1.976 . S
Fe22 O36 1.996 . S
Fe23 O24 1.918 . S
Fe23 O31 1.997 . S
Fe23 O34 1.996 . S
Fe23 O38 1.976 . S
Fe23 O41 2.002 . S
O24 Fe22 1.918 . S
O24 Fe23 1.918 . S
O24 Fe25 1.918 . S
Fe25 O24 1.918 . S
Fe25 O26 2.002 . S
Fe25 O35 1.976 . S
Fe25 O39 1.996 . S
Fe25 O42 1.997 . S
O26 Fe25 2.002 . S
O26 C43 1.295 . S
O27 Fe22 1.997 . S
O27 C43 1.235 . S
O28 Fe22 2.002 . S
O28 C29 1.295 . S
C29 O28 1.295 . S
C29 O31 1.235 . S
C30 O35 1.287 . S
C30 O36 1.255 . S
O31 Fe23 1.997 . S
O31 C29 1.235 . S
C32 O38 1.287 . S
C32 O39 1.255 . S
O33 Fe22 1.976 . S
O33 C40 1.287 . S
O34 Fe23 1.996 . S
O34 C40 1.255 . S
O35 Fe25 1.976 . S
O35 C30 1.287 . S
O36 Fe22 1.996 . S
O36 C30 1.255 . S
C37 O41 1.295 . S
C37 O42 1.235 . S
O38 Fe23 1.976 . S
O38 C32 1.287 . S
O39 Fe25 1.996 . S
O39 C32 1.255 . S
C40 O33 1.287 . S
C40 O34 1.255 . S
O41 Fe23 2.002 . S
O41 C37 1.295 . S
O42 Fe25 1.997 . S
O42 C37 1.235 . S
C43 O26 1.295 . S
C43 O27 1.235 . S
Fe44 O46 1.918 1_556 S
Fe44 O49 1.997 . S
Fe44 O50 2.002 . S
Fe44 O55 1.976 . S
Fe44 O58 1.996 . S
Fe45 O46 1.918 . S
Fe45 O53 1.997 . S
Fe45 O56 1.996 . S
Fe45 O60 1.976 . S
Fe45 O63 2.002 . S
O46 Fe44 1.918 1_554 S
O46 Fe45 1.918 . S
O46 Fe47 1.918 . S
Fe47 O46 1.918 . S
Fe47 O48 2.002 1_554 S
Fe47 O57 1.976 1_554 S
Fe47 O61 1.996 . S
Fe47 O64 1.997 . S
O48 Fe47 2.002 1_556 S
O48 C65 1.295 . S
O49 Fe44 1.997 . S
O49 C65 1.235 . S
O50 Fe44 2.002 . S
O50 C51 1.295 1_556 S
C51 O50 1.295 1_554 S
C51 O53 1.235 . S
C52 O57 1.287 . S
C52 O58 1.255 . S
O53 Fe45 1.997 . S
O53 C51 1.235 . S
C54 O60 1.287 . S
C54 O61 1.255 . S
O55 Fe44 1.976 . S
O55 C62 1.287 1_556 S
O56 Fe45 1.996 . S
O56 C62 1.255 . S
O57 Fe47 1.976 1_556 S
O57 C52 1.287 . S
O58 Fe44 1.996 . S
O58 C52 1.255 . S
C59 O63 1.295 . S
C59 O64 1.235 . S
O60 Fe45 1.976 . S
O60 C54 1.287 . S
O61 Fe47 1.996 . S
O61 C54 1.255 . S
C62 O55 1.287 1_554 S
C62 O56 1.255 . S
O63 Fe45 2.002 . S
O63 C59 1.295 . S
O64 Fe47 1.997 . S
O64 C59 1.235 . S
C65 O48 1.295 . S
C65 O49 1.235 . S
Fe66 O68 1.918 . S
Fe66 O71 1.997 . S
Fe66 O72 2.002 . S
Fe66 O77 1.976 . S
Fe66 O80 1.996 . S
Fe67 O68 1.918 . S
Fe67 O75 1.997 . S
Fe67 O78 1.996 . S
Fe67 O82 1.976 . S
Fe67 O85 2.002 . S
O68 Fe66 1.918 . S
O68 Fe67 1.918 . S
O68 Fe69 1.918 . S
Fe69 O68 1.918 . S
Fe69 O70 2.002 . S
Fe69 O79 1.976 . S
Fe69 O83 1.996 . S
Fe69 O86 1.997 . S
O70 Fe69 2.002 . S
O70 C87 1.295 . S
O71 Fe66 1.997 . S
O71 C87 1.235 . S
O72 Fe66 2.002 . S
O72 C73 1.295 . S
C73 O72 1.295 . S
C73 O75 1.235 . S
C74 O79 1.287 . S
C74 O80 1.255 . S
O75 Fe67 1.997 . S
O75 C73 1.235 . S
C76 O82 1.287 . S
C76 O83 1.255 . S
O77 Fe66 1.976 . S
O77 C84 1.287 . S
O78 Fe67 1.996 . S
O78 C84 1.255 . S
O79 Fe69 1.976 . S
O79 C74 1.287 . S
O80 Fe66 1.996 . S
O80 C74 1.255 . S
C81 O85 1.295 . S
C81 O86 1.235 . S
O82 Fe67 1.976 . S
O82 C76 1.287 . S
O83 Fe69 1.996 . S
O83 C76 1.255 . S
C84 O77 1.287 . S
C84 O78 1.255 . S
O85 Fe67 2.002 . S
O85 C81 1.295 . S
O86 Fe69 1.997 . S
O86 C81 1.235 . S
C87 O70 1.295 . S
C87 O71 1.235 . S
C88 C89 1.264 . S
C88 C93 1.479 . S
C88 C98 1.465 . S
C89 C88 1.264 . S
C89 C91 1.339 . S
C89 H116 0.931 . S
C90 C91 1.395 . S
C90 C92 1.320 . S
C91 C89 1.339 . S
C91 C90 1.395 . S
C91 H117 0.929 . S
C92 C90 1.320 . S
C92 C93 1.405 . S
C92 H118 0.930 . S
C93 C88 1.479 . S
C93 C92 1.405 . S
C93 H119 0.931 . S
U94 O95 2.454 . S
U94 O96 2.458 1_556 S
U94 C97 2.984 . S
U94 C98 2.847 . S
U94 C111 2.882 1_556 S
U94 O112 2.441 . S
U94 O113 2.420 . S
U94 O114 2.455 1_556 S
U94 O115 2.449 1_556 S
O95 U94 2.454 . S
O95 C97 1.353 . S
O96 U94 2.458 1_554 S
O96 C97 1.286 1_554 S
C97 U94 2.984 . S
C97 O95 1.353 . S
C97 O96 1.286 1_556 S
C97 C99 1.363 . S
C98 C88 1.465 . S
C98 U94 2.847 . S
C98 O112 1.249 . S
C98 O113 1.202 . S
C99 C97 1.363 . S
C99 C101 1.410 . S
C99 C104 1.340 1_556 S
C100 C101 1.310 . S
C100 C103 1.461 1_556 S
C100 H120 0.932 . S
C101 C99 1.410 . S
C101 C100 1.310 . S
C101 H121 0.930 . S
C102 C103 1.474 . S
C102 C104 1.285 . S
C102 H122 0.929 . S
C103 C100 1.461 1_554 S
C103 C102 1.474 . S
C104 C99 1.340 1_554 S
C104 C102 1.285 . S
C104 H123 0.930 . S
C105 C108 1.424 . S
C105 C110 1.245 . S
C105 C111 1.428 . S
C106 C109 1.260 . S
C106 C110 1.477 . S
C106 H124 0.932 . S
C107 C108 1.384 . S
C107 C109 1.479 . S
C107 H125 0.929 . S
C108 C105 1.424 . S
C108 C107 1.384 . S
C108 H126 0.928 . S
C109 C106 1.260 . S
C109 C107 1.479 . S
C110 C105 1.245 . S
C110 C106 1.477 . S
C110 H127 0.932 . S
C111 U94 2.882 1_554 S
C111 C105 1.428 . S
C111 O114 1.301 . S
C111 O115 1.282 . S
O112 U94 2.441 . S
O112 C98 1.249 . S
O113 U94 2.420 . S
O113 C98 1.202 . S
O114 U94 2.455 1_554 S
O114 C111 1.301 . S
O115 U94 2.449 1_554 S
O115 C111 1.282 . S
H116 C89 0.931 . S
H117 C91 0.929 . S
H118 C92 0.930 . S
H119 C93 0.931 . S
H120 C100 0.932 . S
H121 C101 0.930 . S
H122 C102 0.929 . S
H123 C104 0.930 . S
H124 C106 0.932 . S
H125 C107 0.929 . S
H126 C108 0.928 . S
H127 C110 0.932 . S
C128 C129 1.264 . S
C128 C133 1.479 . S
C128 C138 1.465 . S
C129 C128 1.264 . S
C129 C131 1.339 . S
C129 H156 0.931 . S
C130 C131 1.395 . S
C130 C132 1.320 . S
C131 C129 1.339 . S
C131 C130 1.395 . S
C131 H157 0.929 . S
C132 C130 1.320 . S
C132 C133 1.405 . S
C132 H158 0.930 . S
C133 C128 1.479 . S
C133 C132 1.405 . S
C133 H159 0.931 . S
U134 O135 2.454 1_655 S
U134 O136 2.458 1_655 S
U134 C137 2.984 1_655 S
U134 C138 2.847 . S
U134 C151 2.882 . S
U134 O152 2.441 . S
U134 O153 2.420 . S
U134 O154 2.455 . S
U134 O155 2.449 . S
O135 U134 2.454 1_455 S
O135 C137 1.353 . S
O136 U134 2.458 1_455 S
O136 C137 1.286 . S
C137 U134 2.984 1_455 S
C137 O135 1.353 . S
C137 O136 1.286 . S
C137 C139 1.363 . S
C138 C128 1.465 . S
C138 U134 2.847 . S
C138 O152 1.249 . S
C138 O153 1.202 . S
C139 C137 1.363 . S
C139 C141 1.408 . S
C139 C144 1.342 . S
C140 C141 1.310 . S
C140 C143 1.461 . S
C140 H160 0.932 . S
C141 C139 1.408 . S
C141 C140 1.310 . S
C141 H161 0.930 . S
C142 C143 1.474 . S
C142 C144 1.285 . S
C142 H162 0.929 . S
C143 C140 1.461 . S
C143 C142 1.474 . S
C144 C139 1.342 . S
C144 C142 1.285 . S
C144 H163 0.930 . S
C145 C148 1.424 . S
C145 C150 1.245 . S
C145 C151 1.428 . S
C146 C149 1.260 . S
C146 C150 1.477 . S
C146 H164 0.932 . S
C147 C148 1.384 . S
C147 C149 1.479 . S
C147 H165 0.929 . S
C148 C145 1.424 . S
C148 C147 1.384 . S
C148 H166 0.928 . S
C149 C146 1.260 . S
C149 C147 1.479 . S
C150 C145 1.245 . S
C150 C146 1.477 . S
C150 H167 0.932 . S
C151 U134 2.882 . S
C151 C145 1.428 . S
C151 O154 1.301 . S
C151 O155 1.282 . S
O152 U134 2.441 . S
O152 C138 1.249 . S
O153 U134 2.420 . S
O153 C138 1.202 . S
O154 U134 2.455 . S
O154 C151 1.301 . S
O155 U134 2.449 . S
O155 C151 1.282 . S
H156 C129 0.931 . S
H157 C131 0.929 . S
H158 C132 0.930 . S
H159 C133 0.931 . S
H160 C140 0.932 . S
H161 C141 0.930 . S
H162 C142 0.929 . S
H163 C144 0.930 . S
H164 C146 0.932 . S
H165 C147 0.929 . S
H166 C148 0.928 . S
H167 C150 0.932 . S
C168 C169 1.264 . S
C168 C173 1.479 . S
C168 C178 1.465 . S
C169 C168 1.264 . S
C169 C171 1.339 . S
C169 H196 0.931 . S
C170 C171 1.395 . S
C170 C172 1.320 . S
C171 C169 1.339 . S
C171 C170 1.395 . S
C171 H197 0.929 . S
C172 C170 1.320 . S
C172 C173 1.405 . S
C172 H198 0.930 . S
C173 C168 1.479 . S
C173 C172 1.405 . S
C173 H199 0.931 . S
U174 O175 2.454 . S
U174 O176 2.458 1_554 S
U174 C177 2.984 . S
U174 C178 2.847 . S
U174 C191 2.882 1_554 S
U174 O192 2.441 . S
U174 O193 2.420 . S
U174 O194 2.455 1_554 S
U174 O195 2.449 1_554 S
O175 U174 2.454 . S
O175 C177 1.353 . S
O176 U174 2.458 1_556 S
O176 C177 1.286 1_556 S
C177 U174 2.984 . S
C177 O175 1.353 . S
C177 O176 1.286 1_554 S
C177 C179 1.363 . S
C178 C168 1.465 . S
C178 U174 2.847 . S
C178 O192 1.249 . S
C178 O193 1.202 . S
C179 C177 1.363 . S
C179 C181 1.408 . S
C179 C184 1.342 1_554 S
C180 C181 1.310 . S
C180 C183 1.461 . S
C180 H200 0.932 . S
C181 C179 1.408 . S
C181 C180 1.310 . S
C181 H201 0.930 . S
C182 C183 1.474 1_556 S
C182 C184 1.285 . S
C182 H202 0.929 . S
C183 C180 1.461 . S
C183 C182 1.474 1_554 S
C184 C179 1.342 1_556 S
C184 C182 1.285 . S
C184 H203 0.930 . S
C185 C188 1.424 . S
C185 C190 1.245 . S
C185 C191 1.428 . S
C186 C189 1.260 . S
C186 C190 1.477 . S
C186 H204 0.932 . S
C187 C188 1.384 . S
C187 C189 1.479 . S
C187 H205 0.929 . S
C188 C185 1.424 . S
C188 C187 1.384 . S
C188 H206 0.928 . S
C189 C186 1.260 . S
C189 C187 1.479 . S
C190 C185 1.245 . S
C190 C186 1.477 . S
C190 H207 0.932 . S
C191 U174 2.882 1_556 S
C191 C185 1.428 . S
C191 O194 1.301 . S
C191 O195 1.282 . S
O192 U174 2.441 . S
O192 C178 1.249 . S
O193 U174 2.420 . S
O193 C178 1.202 . S
O194 U174 2.455 1_556 S
O194 C191 1.301 . S
O195 U174 2.449 1_556 S
O195 C191 1.282 . S
H196 C169 0.931 . S
H197 C171 0.929 . S
H198 C172 0.930 . S
H199 C173 0.931 . S
H200 C180 0.932 . S
H201 C181 0.930 . S
H202 C182 0.929 . S
H203 C184 0.930 . S
H204 C186 0.932 . S
H205 C187 0.929 . S
H206 C188 0.928 . S
H207 C190 0.932 . S
C208 C209 1.264 . S
C208 C213 1.479 . S
C208 C218 1.465 . S
C209 C208 1.264 . S
C209 C211 1.339 . S
C209 H236 0.931 . S
C210 C211 1.395 . S
C210 C212 1.320 . S
C211 C209 1.339 . S
C211 C210 1.395 . S
C211 H237 0.929 . S
C212 C210 1.320 . S
C212 C213 1.405 . S
C212 H238 0.930 . S
C213 C208 1.479 . S
C213 C212 1.405 . S
C213 H239 0.931 . S
U214 O215 2.454 1_455 S
U214 O216 2.458 1_455 S
U214 C217 2.984 1_455 S
U214 C218 2.847 . S
U214 C231 2.882 . S
U214 O232 2.441 . S
U214 O233 2.420 . S
U214 O234 2.455 . S
U214 O235 2.449 . S
O215 U214 2.454 1_655 S
O215 C217 1.353 . S
O216 U214 2.458 1_655 S
O216 C217 1.286 . S
C217 U214 2.984 1_655 S
C217 O215 1.353 . S
C217 O216 1.286 . S
C217 C219 1.363 . S
C218 C208 1.465 . S
C218 U214 2.847 . S
C218 O232 1.249 . S
C218 O233 1.202 . S
C219 C217 1.363 . S
C219 C221 1.408 . S
C219 C224 1.342 . S
C220 C221 1.310 . S
C220 C223 1.461 . S
C220 H240 0.932 . S
C221 C219 1.408 . S
C221 C220 1.310 . S
C221 H241 0.930 . S
C222 C223 1.474 . S
C222 C224 1.285 . S
C222 H242 0.929 . S
C223 C220 1.461 . S
C223 C222 1.474 . S
C224 C219 1.342 . S
C224 C222 1.285 . S
C224 H243 0.930 . S
C225 C228 1.424 . S
C225 C230 1.245 . S
C225 C231 1.428 . S
C226 C229 1.260 . S
C226 C230 1.477 . S
C226 H244 0.932 . S
C227 C228 1.384 . S
C227 C229 1.479 . S
C227 H245 0.929 . S
C228 C225 1.424 . S
C228 C227 1.384 . S
C228 H246 0.928 . S
C229 C226 1.260 . S
C229 C227 1.479 . S
C230 C225 1.245 . S
C230 C226 1.477 . S
C230 H247 0.932 . S
C231 U214 2.882 . S
C231 C225 1.428 . S
C231 O234 1.301 . S
C231 O235 1.282 . S
O232 U214 2.441 . S
O232 C218 1.249 . S
O233 U214 2.420 . S
O233 C218 1.202 . S
O234 U214 2.455 . S
O234 C231 1.301 . S
O235 U214 2.449 . S
O235 C231 1.282 . S
H236 C209 0.931 . S
H237 C211 0.929 . S
H238 C212 0.930 . S
H239 C213 0.931 . S
H240 C220 0.932 . S
H241 C221 0.930 . S
H242 C222 0.929 . S
H243 C224 0.930 . S
H244 C226 0.932 . S
H245 C227 0.929 . S
H246 C228 0.928 . S
H247 C230 0.932 . S
C248 C249 1.264 . S
C248 C253 1.479 . S
C248 C258 1.465 . S
C249 C248 1.264 . S
C249 C251 1.339 . S
C249 H276 0.931 . S
C250 C251 1.395 . S
C250 C252 1.320 . S
C251 C249 1.339 . S
C251 C250 1.395 . S
C251 H277 0.929 . S
C252 C250 1.320 . S
C252 C253 1.405 . S
C252 H278 0.930 . S
C253 C248 1.479 . S
C253 C252 1.405 . S
C253 H279 0.931 . S
U254 O255 2.454 1_565 S
U254 O256 2.458 1_565 S
U254 C257 2.984 1_565 S
U254 C258 2.847 . S
U254 C271 2.882 . S
U254 O272 2.441 . S
U254 O273 2.420 . S
U254 O274 2.455 . S
U254 O275 2.449 . S
O255 U254 2.454 1_545 S
O255 C257 1.353 . S
O256 U254 2.458 1_545 S
O256 C257 1.286 . S
C257 U254 2.984 1_545 S
C257 O255 1.353 . S
C257 O256 1.286 . S
C257 C259 1.363 . S
C258 C248 1.465 . S
C258 U254 2.847 . S
C258 O272 1.249 . S
C258 O273 1.202 . S
C259 C257 1.363 . S
C259 C261 1.408 . S
C259 C264 1.342 . S
C260 C261 1.310 . S
C260 C263 1.461 . S
C260 H280 0.932 . S
C261 C259 1.408 . S
C261 C260 1.310 . S
C261 H281 0.930 . S
C262 C263 1.474 . S
C262 C264 1.285 . S
C262 H282 0.929 . S
C263 C260 1.461 . S
C263 C262 1.474 . S
C264 C259 1.342 . S
C264 C262 1.285 . S
C264 H283 0.930 . S
C265 C268 1.424 . S
C265 C270 1.245 . S
C265 C271 1.428 . S
C266 C269 1.260 . S
C266 C270 1.477 . S
C266 H284 0.932 . S
C267 C268 1.384 . S
C267 C269 1.479 . S
C267 H285 0.929 . S
C268 C265 1.424 . S
C268 C267 1.384 . S
C268 H286 0.928 . S
C269 C266 1.260 . S
C269 C267 1.479 . S
C270 C265 1.245 . S
C270 C266 1.477 . S
C270 H287 0.932 . S
C271 U254 2.882 . S
C271 C265 1.428 . S
C271 O274 1.301 . S
C271 O275 1.282 . S
O272 U254 2.441 . S
O272 C258 1.249 . S
O273 U254 2.420 . S
O273 C258 1.202 . S
O274 U254 2.455 . S
O274 C271 1.301 . S
O275 U254 2.449 . S
O275 C271 1.282 . S
H276 C249 0.931 . S
H277 C251 0.929 . S
H278 C252 0.930 . S
H279 C253 0.931 . S
H280 C260 0.932 . S
H281 C261 0.930 . S
H282 C262 0.929 . S
H283 C264 0.930 . S
H284 C266 0.932 . S
H285 C267 0.929 . S
H286 C268 0.928 . S
H287 C270 0.932 . S
C288 C289 1.264 . S
C288 C293 1.479 . S
C288 C298 1.465 . S
C289 C288 1.264 . S
C289 C291 1.339 . S
C289 H316 0.931 . S
C290 C291 1.395 . S
C290 C292 1.320 . S
C291 C289 1.339 . S
C291 C290 1.395 . S
C291 H317 0.929 . S
C292 C290 1.320 . S
C292 C293 1.405 . S
C292 H318 0.930 . S
C293 C288 1.479 . S
C293 C292 1.405 . S
C293 H319 0.931 . S
U294 O295 2.453 1_554 S
U294 O296 2.459 . S
U294 C297 2.984 . S
U294 C298 2.845 1_554 S
U294 C311 2.884 . S
U294 O312 2.438 1_554 S
U294 O313 2.419 1_554 S
U294 O314 2.457 . S
U294 O315 2.450 . S
O295 U294 2.453 1_556 S
O295 C297 1.353 1_556 S
O296 U294 2.459 . S
O296 C297 1.286 . S
C297 U294 2.984 . S
C297 O295 1.353 1_554 S
C297 O296 1.286 . S
C297 C299 1.363 . S
C298 C288 1.465 . S
C298 U294 2.845 1_556 S
C298 O312 1.249 . S
C298 O313 1.202 . S
C299 C297 1.363 . S
C299 C301 1.408 1_554 S
C299 C304 1.342 . S
C300 C301 1.310 . S
C300 C303 1.461 1_556 S
C300 H320 0.932 . S
C301 C299 1.408 1_556 S
C301 C300 1.310 . S
C301 H321 0.930 . S
C302 C303 1.474 . S
C302 C304 1.285 . S
C302 H322 0.929 . S
C303 C300 1.461 1_554 S
C303 C302 1.474 . S
C304 C299 1.342 . S
C304 C302 1.285 . S
C304 H323 0.930 . S
C305 C308 1.424 . S
C305 C310 1.245 . S
C305 C311 1.428 . S
C306 C309 1.260 . S
C306 C310 1.477 . S
C306 H324 0.932 . S
C307 C308 1.384 . S
C307 C309 1.479 . S
C307 H325 0.929 . S
C308 C305 1.424 . S
C308 C307 1.384 . S
C308 H326 0.928 . S
C309 C306 1.260 . S
C309 C307 1.479 . S
C310 C305 1.245 . S
C310 C306 1.477 . S
C310 H327 0.932 . S
C311 U294 2.884 . S
C311 C305 1.428 . S
C311 O314 1.301 . S
C311 O315 1.282 . S
O312 U294 2.438 1_556 S
O312 C298 1.249 . S
O313 U294 2.419 1_556 S
O313 C298 1.202 . S
O314 U294 2.457 . S
O314 C311 1.301 . S
O315 U294 2.450 . S
O315 C311 1.282 . S
H316 C289 0.931 . S
H317 C291 0.929 . S
H318 C292 0.930 . S
H319 C293 0.931 . S
H320 C300 0.932 . S
H321 C301 0.930 . S
H322 C302 0.929 . S
H323 C304 0.930 . S
H324 C306 0.932 . S
H325 C307 0.929 . S
H326 C308 0.928 . S
H327 C310 0.932 . S
C328 C329 1.264 . S
C328 C333 1.479 . S
C328 C338 1.465 . S
C329 C328 1.264 . S
C329 C331 1.339 . S
C329 H356 0.931 . S
C330 C331 1.395 . S
C330 C332 1.320 . S
C331 C329 1.339 . S
C331 C330 1.395 . S
C331 H357 0.929 . S
C332 C330 1.320 . S
C332 C333 1.405 . S
C332 H358 0.930 . S
C333 C328 1.479 . S
C333 C332 1.405 . S
C333 H359 0.931 . S
U334 O335 2.454 1_545 S
U334 O336 2.458 1_545 S
U334 C337 2.984 1_545 S
U334 C338 2.847 . S
U334 C351 2.882 . S
U334 O352 2.441 . S
U334 O353 2.420 . S
U334 O354 2.455 . S
U334 O355 2.449 . S
O335 U334 2.454 1_565 S
O335 C337 1.353 . S
O336 U334 2.458 1_565 S
O336 C337 1.286 . S
C337 U334 2.984 1_565 S
C337 O335 1.353 . S
C337 O336 1.286 . S
C337 C339 1.363 . S
C338 C328 1.465 . S
C338 U334 2.847 . S
C338 O352 1.249 . S
C338 O353 1.202 . S
C339 C337 1.363 . S
C339 C341 1.408 . S
C339 C344 1.342 . S
C340 C341 1.310 . S
C340 C343 1.461 . S
C340 H360 0.932 . S
C341 C339 1.408 . S
C341 C340 1.310 . S
C341 H361 0.930 . S
C342 C343 1.474 . S
C342 C344 1.285 . S
C342 H362 0.929 . S
C343 C340 1.461 . S
C343 C342 1.474 . S
C344 C339 1.342 . S
C344 C342 1.285 . S
C344 H363 0.930 . S
C345 C348 1.424 . S
C345 C350 1.245 . S
C345 C351 1.428 . S
C346 C349 1.260 . S
C346 C350 1.477 . S
C346 H364 0.932 . S
C347 C348 1.384 . S
C347 C349 1.479 . S
C347 H365 0.929 . S
C348 C345 1.424 . S
C348 C347 1.384 . S
C348 H366 0.928 . S
C349 C346 1.260 . S
C349 C347 1.479 . S
C350 C345 1.245 . S
C350 C346 1.477 . S
C350 H367 0.932 . S
C351 U334 2.882 . S
C351 C345 1.428 . S
C351 O354 1.301 . S
C351 O355 1.282 . S
O352 U334 2.441 . S
O352 C338 1.249 . S
O353 U334 2.420 . S
O353 C338 1.202 . S
O354 U334 2.455 . S
O354 C351 1.301 . S
O355 U334 2.449 . S
O355 C351 1.282 . S
H356 C329 0.931 . S
H357 C331 0.929 . S
H358 C332 0.930 . S
H359 C333 0.931 . S
H360 C340 0.932 . S
H361 C341 0.930 . S
H362 C342 0.929 . S
H363 C344 0.930 . S
H364 C346 0.932 . S
H365 C347 0.929 . S
H366 C348 0.928 . S
H367 C350 0.932 . S
C368 C369 1.264 . S
C368 C373 1.479 . S
C368 C378 1.465 . S
C369 C368 1.264 . S
C369 C371 1.339 . S
C369 H396 0.931 . S
C370 C371 1.395 . S
C370 C372 1.320 . S
C371 C369 1.339 . S
C371 C370 1.395 . S
C371 H397 0.929 . S
C372 C370 1.320 . S
C372 C373 1.405 . S
C372 H398 0.930 . S
C373 C368 1.479 . S
C373 C372 1.405 . S
C373 H399 0.931 . S
U374 O375 2.454 . S
U374 O376 2.458 1_554 S
U374 C377 2.984 . S
U374 C378 2.847 . S
U374 C391 2.882 1_554 S
U374 O392 2.441 . S
U374 O393 2.420 . S
U374 O394 2.455 1_554 S
U374 O395 2.449 1_554 S
O375 U374 2.454 . S
O375 C377 1.353 . S
O376 U374 2.458 1_556 S
O376 C377 1.286 1_556 S
C377 U374 2.984 . S
C377 O375 1.353 . S
C377 O376 1.286 1_554 S
C377 C379 1.363 . S
C378 C368 1.465 . S
C378 U374 2.847 . S
C378 O392 1.249 . S
C378 O393 1.202 . S
C379 C377 1.363 . S
C379 C381 1.408 . S
C379 C384 1.342 1_554 S
C380 C381 1.310 . S
C380 C383 1.461 . S
C380 H400 0.932 . S
C381 C379 1.408 . S
C381 C380 1.310 . S
C381 H401 0.930 . S
C382 C383 1.474 1_556 S
C382 C384 1.285 . S
C382 H402 0.929 . S
C383 C380 1.461 . S
C383 C382 1.474 1_554 S
C384 C379 1.342 1_556 S
C384 C382 1.285 . S
C384 H403 0.930 . S
C385 C388 1.424 . S
C385 C390 1.245 . S
C385 C391 1.428 . S
C386 C389 1.260 . S
C386 C390 1.477 . S
C386 H404 0.932 . S
C387 C388 1.384 . S
C387 C389 1.479 . S
C387 H405 0.929 . S
C388 C385 1.424 . S
C388 C387 1.384 . S
C388 H406 0.928 . S
C389 C386 1.260 . S
C389 C387 1.479 . S
C390 C385 1.245 . S
C390 C386 1.477 . S
C390 H407 0.932 . S
C391 U374 2.882 1_556 S
C391 C385 1.428 . S
C391 O394 1.301 . S
C391 O395 1.282 . S
O392 U374 2.441 . S
O392 C378 1.249 . S
O393 U374 2.420 . S
O393 C378 1.202 . S
O394 U374 2.455 1_556 S
O394 C391 1.301 . S
O395 U374 2.449 1_556 S
O395 C391 1.282 . S
H396 C369 0.931 . S
H397 C371 0.929 . S
H398 C372 0.930 . S
H399 C373 0.931 . S
H400 C380 0.932 . S
H401 C381 0.930 . S
H402 C382 0.929 . S
H403 C384 0.930 . S
H404 C386 0.932 . S
H405 C387 0.929 . S
H406 C388 0.928 . S
H407 C390 0.932 . S
C408 C409 1.349 . S
C408 C410 1.327 . S
C408 H433 0.950 . S
C409 C408 1.349 . S
C409 C425 1.349 . S
C410 C408 1.327 . S
C410 C429 1.429 . S
C410 H434 0.950 . S
C411 C428 1.574 . S
C411 C430 1.368 . S
C411 H435 0.949 . S
H412 C416 0.949 . S
C413 C414 1.349 . S
C413 C415 1.327 . S
C413 H436 0.950 . S
C414 C413 1.349 . S
C414 C426 1.349 . S
C415 C413 1.327 . S
C415 C431 1.429 . S
C415 H437 0.950 . S
C416 H412 0.949 . S
C416 C424 1.574 . S
C416 C432 1.368 . S
H417 C425 0.950 . S
H418 C423 0.950 . S
H419 C424 0.949 . S
H420 C426 0.950 . S
H421 C427 0.950 . S
H422 C428 0.949 . S
C423 H418 0.950 . S
C423 C425 1.327 . S
C423 C429 1.429 . S
C424 C416 1.574 . S
C424 H419 0.949 . S
C424 C430 1.368 . S
C425 C409 1.349 . S
C425 H417 0.950 . S
C425 C423 1.327 . S
C426 C414 1.349 . S
C426 H420 0.950 . S
C426 C427 1.327 . S
C427 H421 0.950 . S
C427 C426 1.327 . S
C427 C431 1.429 . S
C428 C411 1.574 . S
C428 H422 0.949 . S
C428 C432 1.368 . S
C429 C410 1.429 . S
C429 C423 1.429 . S
C429 C430 1.523 . S
C430 C411 1.368 . S
C430 C424 1.368 . S
C430 C429 1.523 . S
C431 C415 1.429 . S
C431 C427 1.429 . S
C431 C432 1.523 . S
C432 C416 1.368 . S
C432 C428 1.368 . S
C432 C431 1.523 . S
H433 C408 0.950 . S
H434 C410 0.950 . S
H435 C411 0.949 . S
H436 C413 0.950 . S
H437 C415 0.950 . S
C438 C439 1.349 . S
C438 C440 1.327 . S
C438 H463 0.950 . S
C439 C438 1.349 . S
C439 C455 1.349 . S
C440 C438 1.327 . S
C440 C459 1.429 . S
C440 H464 0.950 . S
C441 C458 1.574 . S
C441 C460 1.368 . S
C441 H465 0.949 . S
H442 C446 0.949 . S
C443 C444 1.349 . S
C443 C445 1.327 . S
C443 H466 0.950 . S
C444 C443 1.349 . S
C444 C456 1.349 . S
C445 C443 1.327 . S
C445 C461 1.429 . S
C445 H467 0.950 . S
C446 H442 0.949 . S
C446 C454 1.574 . S
C446 C462 1.368 . S
H447 C455 0.950 . S
H448 C453 0.950 . S
H449 C454 0.949 . S
H450 C456 0.950 . S
H451 C457 0.950 . S
H452 C458 0.949 . S
C453 H448 0.950 . S
C453 C455 1.327 . S
C453 C459 1.429 . S
C454 C446 1.574 . S
C454 H449 0.949 . S
C454 C460 1.368 . S
C455 C439 1.349 . S
C455 H447 0.950 . S
C455 C453 1.327 . S
C456 C444 1.349 . S
C456 H450 0.950 . S
C456 C457 1.327 . S
C457 H451 0.950 . S
C457 C456 1.327 . S
C457 C461 1.429 . S
C458 C441 1.574 . S
C458 H452 0.949 . S
C458 C462 1.368 . S
C459 C440 1.429 . S
C459 C453 1.429 . S
C459 C460 1.523 . S
C460 C441 1.368 . S
C460 C454 1.368 . S
C460 C459 1.523 . S
C461 C445 1.429 . S
C461 C457 1.429 . S
C461 C462 1.523 . S
C462 C446 1.368 . S
C462 C458 1.368 . S
C462 C461 1.523 . S
H463 C438 0.950 . S
H464 C440 0.950 . S
H465 C441 0.949 . S
H466 C443 0.950 . S
H467 C445 0.950 . S
C468 C469 1.349 . S
C468 C470 1.327 . S
C468 H493 0.950 . S
C469 C468 1.349 . S
C469 C485 1.349 . S
C470 C468 1.327 . S
C470 C489 1.429 . S
C470 H494 0.950 . S
C471 C488 1.574 . S
C471 C490 1.368 . S
C471 H495 0.949 . S
H472 C476 0.949 . S
C473 C474 1.349 . S
C473 C475 1.327 . S
C473 H496 0.950 . S
C474 C473 1.349 . S
C474 C486 1.349 . S
C475 C473 1.327 . S
C475 C491 1.429 . S
C475 H497 0.950 . S
C476 H472 0.949 . S
C476 C484 1.574 . S
C476 C492 1.368 . S
H477 C485 0.950 . S
H478 C483 0.950 . S
H479 C484 0.949 . S
H480 C486 0.950 . S
H481 C487 0.950 . S
H482 C488 0.949 . S
C483 H478 0.950 . S
C483 C485 1.327 . S
C483 C489 1.429 . S
C484 C476 1.574 . S
C484 H479 0.949 . S
C484 C490 1.368 . S
C485 C469 1.349 . S
C485 H477 0.950 . S
C485 C483 1.327 . S
C486 C474 1.349 . S
C486 H480 0.950 . S
C486 C487 1.327 . S
C487 H481 0.950 . S
C487 C486 1.327 . S
C487 C491 1.429 . S
C488 C471 1.574 . S
C488 H482 0.949 . S
C488 C492 1.368 . S
C489 C470 1.429 . S
C489 C483 1.429 . S
C489 C490 1.523 . S
C490 C471 1.368 . S
C490 C484 1.368 . S
C490 C489 1.523 . S
C491 C475 1.429 . S
C491 C487 1.429 . S
C491 C492 1.523 . S
C492 C476 1.368 . S
C492 C488 1.368 . S
C492 C491 1.523 . S
H493 C468 0.950 . S
H494 C470 0.950 . S
H495 C471 0.949 . S
H496 C473 0.950 . S
H497 C475 0.950 . S
C498 C499 1.349 . S
C498 C500 1.327 . S
C498 H523 0.950 . S
C499 C498 1.349 . S
C499 C515 1.349 . S
C500 C498 1.327 . S
C500 C519 1.429 . S
C500 H524 0.950 . S
C501 C518 1.574 . S
C501 C520 1.368 . S
C501 H525 0.949 . S
H502 C506 0.949 . S
C503 C504 1.349 . S
C503 C505 1.327 . S
C503 H526 0.950 . S
C504 C503 1.349 . S
C504 C516 1.349 . S
C505 C503 1.327 . S
C505 C521 1.429 . S
C505 H527 0.950 . S
C506 H502 0.949 . S
C506 C514 1.574 . S
C506 C522 1.368 . S
H507 C515 0.950 . S
H508 C513 0.950 . S
H509 C514 0.949 . S
H510 C516 0.950 . S
H511 C517 0.950 . S
H512 C518 0.949 . S
C513 H508 0.950 . S
C513 C515 1.327 . S
C513 C519 1.429 . S
C514 C506 1.574 . S
C514 H509 0.949 . S
C514 C520 1.368 . S
C515 C499 1.349 . S
C515 H507 0.950 . S
C515 C513 1.327 . S
C516 C504 1.349 . S
C516 H510 0.950 . S
C516 C517 1.327 . S
C517 H511 0.950 . S
C517 C516 1.327 . S
C517 C521 1.429 . S
C518 C501 1.574 . S
C518 H512 0.949 . S
C518 C522 1.368 . S
C519 C500 1.429 . S
C519 C513 1.429 . S
C519 C520 1.523 . S
C520 C501 1.368 . S
C520 C514 1.368 . S
C520 C519 1.523 . S
C521 C505 1.429 . S
C521 C517 1.429 . S
C521 C522 1.523 . S
C522 C506 1.368 . S
C522 C518 1.368 . S
C522 C521 1.523 . S
H523 C498 0.950 . S
H524 C500 0.950 . S
H525 C501 0.949 . S
H526 C503 0.950 . S
H527 C505 0.950 . S
C528 C529 1.349 . S
C528 C530 1.327 . S
C528 H553 0.950 . S
C529 C528 1.349 . S
C529 C545 1.349 . S
C530 C528 1.327 . S
C530 C549 1.429 . S
C530 H554 0.950 . S
C531 C548 1.574 . S
C531 C550 1.368 . S
C531 H555 0.949 . S
H532 C536 0.949 . S
C533 C534 1.349 . S
C533 C535 1.327 . S
C533 H556 0.950 . S
C534 C533 1.349 . S
C534 C546 1.349 . S
C535 C533 1.327 . S
C535 C551 1.429 . S
C535 H557 0.950 . S
C536 H532 0.949 . S
C536 C544 1.574 . S
C536 C552 1.368 . S
H537 C545 0.950 . S
H538 C543 0.950 . S
H539 C544 0.949 . S
H540 C546 0.950 . S
H541 C547 0.950 . S
H542 C548 0.949 . S
C543 H538 0.950 . S
C543 C545 1.327 . S
C543 C549 1.429 . S
C544 C536 1.574 . S
C544 H539 0.949 . S
C544 C550 1.368 . S
C545 C529 1.349 . S
C545 H537 0.950 . S
C545 C543 1.327 . S
C546 C534 1.349 . S
C546 H540 0.950 . S
C546 C547 1.327 . S
C547 H541 0.950 . S
C547 C546 1.327 . S
C547 C551 1.429 . S
C548 C531 1.574 . S
C548 H542 0.949 . S
C548 C552 1.368 . S
C549 C530 1.429 . S
C549 C543 1.429 . S
C549 C550 1.523 . S
C550 C531 1.368 . S
C550 C544 1.368 . S
C550 C549 1.523 . S
C551 C535 1.429 . S
C551 C547 1.429 . S
C551 C552 1.523 . S
C552 C536 1.368 . S
C552 C548 1.368 . S
C552 C551 1.523 . S
H553 C528 0.950 . S
H554 C530 0.950 . S
H555 C531 0.949 . S
H556 C533 0.950 . S
H557 C535 0.950 . S
C558 C559 1.349 . S
C558 C560 1.327 . S
C558 H583 0.950 . S
C559 C558 1.349 . S
C559 C575 1.349 . S
C560 C558 1.327 . S
C560 C579 1.429 . S
C560 H584 0.950 . S
C561 C578 1.574 . S
C561 C580 1.368 . S
C561 H585 0.949 . S
H562 C566 0.949 . S
C563 C564 1.349 . S
C563 C565 1.327 . S
C563 H586 0.950 . S
C564 C563 1.349 . S
C564 C576 1.349 . S
C565 C563 1.327 . S
C565 C581 1.429 . S
C565 H587 0.950 . S
C566 H562 0.949 . S
C566 C574 1.574 . S
C566 C582 1.368 . S
H567 C575 0.950 . S
H568 C573 0.950 . S
H569 C574 0.949 . S
H570 C576 0.950 . S
H571 C577 0.950 . S
H572 C578 0.949 . S
C573 H568 0.950 . S
C573 C575 1.327 . S
C573 C579 1.429 . S
C574 C566 1.574 . S
C574 H569 0.949 . S
C574 C580 1.368 . S
C575 C559 1.349 . S
C575 H567 0.950 . S
C575 C573 1.327 . S
C576 C564 1.349 . S
C576 H570 0.950 . S
C576 C577 1.327 . S
C577 H571 0.950 . S
C577 C576 1.327 . S
C577 C581 1.429 . S
C578 C561 1.574 . S
C578 H572 0.949 . S
C578 C582 1.368 . S
C579 C560 1.429 . S
C579 C573 1.429 . S
C579 C580 1.523 . S
C580 C561 1.368 . S
C580 C574 1.368 . S
C580 C579 1.523 . S
C581 C565 1.429 . S
C581 C577 1.429 . S
C581 C582 1.523 . S
C582 C566 1.368 . S
C582 C578 1.368 . S
C582 C581 1.523 . S
H583 C558 0.950 . S
H584 C560 0.950 . S
H585 C561 0.949 . S
H586 C563 0.950 . S
H587 C565 0.950 . S
C588 C589 1.349 . S
C588 C590 1.327 . S
C588 H613 0.950 . S
C589 C588 1.349 . S
C589 C605 1.349 . S
C590 C588 1.327 . S
C590 C609 1.429 . S
C590 H614 0.950 . S
C591 C608 1.574 . S
C591 C610 1.368 . S
C591 H615 0.949 . S
H592 C596 0.949 . S
C593 C594 1.349 . S
C593 C595 1.327 . S
C593 H616 0.950 . S
C594 C593 1.349 . S
C594 C606 1.349 . S
C595 C593 1.327 . S
C595 C611 1.429 . S
C595 H617 0.950 . S
C596 H592 0.949 . S
C596 C604 1.574 . S
C596 C612 1.368 . S
H597 C605 0.950 . S
H598 C603 0.950 . S
H599 C604 0.949 . S
H600 C606 0.950 . S
H601 C607 0.950 . S
H602 C608 0.949 . S
C603 H598 0.950 . S
C603 C605 1.327 . S
C603 C609 1.429 . S
C604 C596 1.574 . S
C604 H599 0.949 . S
C604 C610 1.368 . S
C605 C589 1.349 . S
C605 H597 0.950 . S
C605 C603 1.327 . S
C606 C594 1.349 . S
C606 H600 0.950 . S
C606 C607 1.327 . S
C607 H601 0.950 . S
C607 C606 1.327 . S
C607 C611 1.429 . S
C608 C591 1.574 . S
C608 H602 0.949 . S
C608 C612 1.368 . S
C609 C590 1.429 . S
C609 C603 1.429 . S
C609 C610 1.523 . S
C610 C591 1.368 . S
C610 C604 1.368 . S
C610 C609 1.523 . S
C611 C595 1.429 . S
C611 C607 1.429 . S
C611 C612 1.523 . S
C612 C596 1.368 . S
C612 C608 1.368 . S
C612 C611 1.523 . S
H613 C588 0.950 . S
H614 C590 0.950 . S
H615 C591 0.949 . S
H616 C593 0.950 . S
H617 C595 0.950 . S
C618 C619 1.349 . S
C618 C620 1.327 . S
C618 H643 0.950 . S
C619 C618 1.349 . S
C619 C635 1.349 . S
C620 C618 1.327 . S
C620 C639 1.429 . S
C620 H644 0.950 . S
C621 C638 1.574 . S
C621 C640 1.368 . S
C621 H645 0.949 . S
H622 C626 0.949 . S
C623 C624 1.349 . S
C623 C625 1.327 . S
C623 H646 0.950 . S
C624 C623 1.349 . S
C624 C636 1.349 . S
C625 C623 1.327 . S
C625 C641 1.429 . S
C625 H647 0.950 . S
C626 H622 0.949 . S
C626 C634 1.574 . S
C626 C642 1.368 . S
H627 C635 0.950 . S
H628 C633 0.950 . S
H629 C634 0.949 . S
H630 C636 0.950 . S
H631 C637 0.950 . S
H632 C638 0.949 . S
C633 H628 0.950 . S
C633 C635 1.327 . S
C633 C639 1.429 . S
C634 C626 1.574 . S
C634 H629 0.949 . S
C634 C640 1.368 . S
C635 C619 1.349 . S
C635 H627 0.950 . S
C635 C633 1.327 . S
C636 C624 1.349 . S
C636 H630 0.950 . S
C636 C637 1.327 . S
C637 H631 0.950 . S
C637 C636 1.327 . S
C637 C641 1.429 . S
C638 C621 1.574 . S
C638 H632 0.949 . S
C638 C642 1.368 . S
C639 C620 1.429 . S
C639 C633 1.429 . S
C639 C640 1.523 . S
C640 C621 1.368 . S
C640 C634 1.368 . S
C640 C639 1.523 . S
C641 C625 1.429 . S
C641 C637 1.429 . S
C641 C642 1.523 . S
C642 C626 1.368 . S
C642 C638 1.368 . S
C642 C641 1.523 . S
H643 C618 0.950 . S
H644 C620 0.950 . S
H645 C621 0.949 . S
H646 C623 0.950 . S
H647 C625 0.950 . S
C648 C649 1.349 . S
C648 C650 1.327 . S
C648 H673 0.950 . S
C649 C648 1.349 . S
C649 C665 1.349 . S
C650 C648 1.327 . S
C650 C669 1.429 . S
C650 H674 0.950 . S
C651 C668 1.574 . S
C651 C670 1.368 . S
C651 H675 0.949 . S
H652 C656 0.949 . S
C653 C654 1.349 . S
C653 C655 1.327 . S
C653 H676 0.950 . S
C654 C653 1.349 . S
C654 C666 1.349 . S
C655 C653 1.327 . S
C655 C671 1.429 . S
C655 H677 0.950 . S
C656 H652 0.949 . S
C656 C664 1.574 . S
C656 C672 1.368 . S
H657 C665 0.950 . S
H658 C663 0.950 . S
H659 C664 0.949 . S
H660 C666 0.950 . S
H661 C667 0.950 . S
H662 C668 0.949 . S
C663 H658 0.950 . S
C663 C665 1.327 . S
C663 C669 1.429 . S
C664 C656 1.574 . S
C664 H659 0.949 . S
C664 C670 1.368 . S
C665 C649 1.349 . S
C665 H657 0.950 . S
C665 C663 1.327 . S
C666 C654 1.349 . S
C666 H660 0.950 . S
C666 C667 1.327 . S
C667 H661 0.950 . S
C667 C666 1.327 . S
C667 C671 1.429 . S
C668 C651 1.574 . S
C668 H662 0.949 . S
C668 C672 1.368 . S
C669 C650 1.429 . S
C669 C663 1.429 . S
C669 C670 1.523 . S
C670 C651 1.368 . S
C670 C664 1.368 . S
C670 C669 1.523 . S
C671 C655 1.429 . S
C671 C667 1.429 . S
C671 C672 1.523 . S
C672 C656 1.368 . S
C672 C668 1.368 . S
C672 C671 1.523 . S
H673 C648 0.950 . S
H674 C650 0.950 . S
H675 C651 0.949 . S
H676 C653 0.950 . S
H677 C655 0.950 . S
C678 C679 1.349 . S
C678 C680 1.327 . S
C678 H703 0.950 . S
C679 C678 1.349 . S
C679 C695 1.349 . S
C680 C678 1.327 . S
C680 C699 1.429 . S
C680 H704 0.950 . S
C681 C698 1.574 . S
C681 C700 1.368 . S
C681 H705 0.949 . S
H682 C686 0.949 . S
C683 C684 1.349 . S
C683 C685 1.327 . S
C683 H706 0.950 . S
C684 C683 1.349 . S
C684 C696 1.349 . S
C685 C683 1.327 . S
C685 C701 1.429 . S
C685 H707 0.950 . S
C686 H682 0.949 . S
C686 C694 1.574 . S
C686 C702 1.368 . S
H687 C695 0.950 . S
H688 C693 0.950 . S
H689 C694 0.949 . S
H690 C696 0.950 . S
H691 C697 0.950 . S
H692 C698 0.949 . S
C693 H688 0.950 . S
C693 C695 1.327 . S
C693 C699 1.429 . S
C694 C686 1.574 . S
C694 H689 0.949 . S
C694 C700 1.368 . S
C695 C679 1.349 . S
C695 H687 0.950 . S
C695 C693 1.327 . S
C696 C684 1.349 . S
C696 H690 0.950 . S
C696 C697 1.327 . S
C697 H691 0.950 . S
C697 C696 1.327 . S
C697 C701 1.429 . S
C698 C681 1.574 . S
C698 H692 0.949 . S
C698 C702 1.368 . S
C699 C680 1.429 . S
C699 C693 1.429 . S
C699 C700 1.523 . S
C700 C681 1.368 . S
C700 C694 1.368 . S
C700 C699 1.523 . S
C701 C685 1.429 . S
C701 C697 1.429 . S
C701 C702 1.523 . S
C702 C686 1.368 . S
C702 C698 1.368 . S
C702 C701 1.523 . S
H703 C678 0.950 . S
H704 C680 0.950 . S
H705 C681 0.949 . S
H706 C683 0.950 . S
H707 C685 0.950 . S
C708 C709 1.349 . S
C708 C710 1.327 . S
C708 H733 0.950 . S
C709 C708 1.349 . S
C709 C725 1.349 . S
C710 C708 1.327 . S
C710 C729 1.429 . S
C710 H734 0.950 . S
C711 C728 1.574 . S
C711 C730 1.368 . S
C711 H735 0.949 . S
H712 C716 0.949 . S
C713 C714 1.349 . S
C713 C715 1.327 . S
C713 H736 0.950 . S
C714 C713 1.349 . S
C714 C726 1.349 . S
C715 C713 1.327 . S
C715 C731 1.429 . S
C715 H737 0.950 . S
C716 H712 0.949 . S
C716 C724 1.574 . S
C716 C732 1.368 . S
H717 C725 0.950 . S
H718 C723 0.950 . S
H719 C724 0.949 . S
H720 C726 0.950 . S
H721 C727 0.950 . S
H722 C728 0.949 . S
C723 H718 0.950 . S
C723 C725 1.327 . S
C723 C729 1.429 . S
C724 C716 1.574 . S
C724 H719 0.949 . S
C724 C730 1.368 . S
C725 C709 1.349 . S
C725 H717 0.950 . S
C725 C723 1.327 . S
C726 C714 1.349 . S
C726 H720 0.950 . S
C726 C727 1.327 . S
C727 H721 0.950 . S
C727 C726 1.327 . S
C727 C731 1.429 . S
C728 C711 1.574 . S
C728 H722 0.949 . S
C728 C732 1.368 . S
C729 C710 1.429 . S
C729 C723 1.429 . S
C729 C730 1.523 . S
C730 C711 1.368 . S
C730 C724 1.368 . S
C730 C729 1.523 . S
C731 C715 1.429 . S
C731 C727 1.429 . S
C731 C732 1.523 . S
C732 C716 1.368 . S
C732 C728 1.368 . S
C732 C731 1.523 . S
H733 C708 0.950 . S
H734 C710 0.950 . S
H735 C711 0.949 . S
H736 C713 0.950 . S
H737 C715 0.950 . S
C738 C739 1.349 . S
C738 C740 1.327 . S
C738 H763 0.950 . S
C739 C738 1.349 . S
C739 C755 1.349 . S
C740 C738 1.327 . S
C740 C759 1.429 . S
C740 H764 0.950 . S
C741 C758 1.574 . S
C741 C760 1.368 . S
C741 H765 0.949 . S
H742 C746 0.949 . S
C743 C744 1.349 . S
C743 C745 1.327 . S
C743 H766 0.950 . S
C744 C743 1.349 . S
C744 C756 1.349 . S
C745 C743 1.327 . S
C745 C761 1.429 . S
C745 H767 0.950 . S
C746 H742 0.949 . S
C746 C754 1.574 . S
C746 C762 1.368 . S
H747 C755 0.950 . S
H748 C753 0.950 . S
H749 C754 0.949 . S
H750 C756 0.950 . S
H751 C757 0.950 . S
H752 C758 0.949 . S
C753 H748 0.950 . S
C753 C755 1.327 . S
C753 C759 1.429 . S
C754 C746 1.574 . S
C754 H749 0.949 . S
C754 C760 1.368 . S
C755 C739 1.349 . S
C755 H747 0.950 . S
C755 C753 1.327 . S
C756 C744 1.349 . S
C756 H750 0.950 . S
C756 C757 1.327 . S
C757 H751 0.950 . S
C757 C756 1.327 . S
C757 C761 1.429 . S
C758 C741 1.574 . S
C758 H752 0.949 . S
C758 C762 1.368 . S
C759 C740 1.429 . S
C759 C753 1.429 . S
C759 C760 1.523 . S
C760 C741 1.368 . S
C760 C754 1.368 . S
C760 C759 1.523 . S
C761 C745 1.429 . S
C761 C757 1.429 . S
C761 C762 1.523 . S
C762 C746 1.368 . S
C762 C758 1.368 . S
C762 C761 1.523 . S
H763 C738 0.950 . S
H764 C740 0.950 . S
H765 C741 0.949 . S
H766 C743 0.950 . S
H767 C745 0.950 . S
C768 C769 1.349 . S
C768 C770 1.327 . S
C768 H793 0.950 . S
C769 C768 1.349 . S
C769 C785 1.349 . S
C770 C768 1.327 . S
C770 C789 1.429 . S
C770 H794 0.950 . S
C771 C788 1.574 . S
C771 C790 1.368 . S
C771 H795 0.949 . S
H772 C776 0.949 . S
C773 C774 1.349 . S
C773 C775 1.327 . S
C773 H796 0.950 . S
C774 C773 1.349 . S
C774 C786 1.349 . S
C775 C773 1.327 . S
C775 C791 1.429 . S
C775 H797 0.950 . S
C776 H772 0.949 . S
C776 C784 1.574 . S
C776 C792 1.368 . S
H777 C785 0.950 . S
H778 C783 0.950 . S
H779 C784 0.949 . S
H780 C786 0.950 . S
H781 C787 0.950 . S
H782 C788 0.949 . S
C783 H778 0.950 . S
C783 C785 1.327 . S
C783 C789 1.429 . S
C784 C776 1.574 . S
C784 H779 0.949 . S
C784 C790 1.368 . S
C785 C769 1.349 . S
C785 H777 0.950 . S
C785 C783 1.327 . S
C786 C774 1.349 . S
C786 H780 0.950 . S
C786 C787 1.327 . S
C787 H781 0.950 . S
C787 C786 1.327 . S
C787 C791 1.429 . S
C788 C771 1.574 . S
C788 H782 0.949 . S
C788 C792 1.368 . S
C789 C770 1.429 . S
C789 C783 1.429 . S
C789 C790 1.523 . S
C790 C771 1.368 . S
C790 C784 1.368 . S
C790 C789 1.523 . S
C791 C775 1.429 . S
C791 C787 1.429 . S
C791 C792 1.523 . S
C792 C776 1.368 . S
C792 C788 1.368 . S
C792 C791 1.523 . S
H793 C768 0.950 . S
H794 C770 0.950 . S
H795 C771 0.949 . S
H796 C773 0.950 . S
H797 C775 0.950 . S
C798 C799 1.349 . S
C798 C800 1.327 . S
C798 H823 0.950 . S
C799 C798 1.349 . S
C799 C815 1.349 . S
C800 C798 1.327 . S
C800 C819 1.429 . S
C800 H824 0.950 . S
C801 C818 1.574 . S
C801 C820 1.368 . S
C801 H825 0.949 . S
H802 C806 0.949 . S
C803 C804 1.349 . S
C803 C805 1.327 . S
C803 H826 0.950 . S
C804 C803 1.349 . S
C804 C816 1.349 . S
C805 C803 1.327 . S
C805 C821 1.429 . S
C805 H827 0.950 . S
C806 H802 0.949 . S
C806 C814 1.574 . S
C806 C822 1.368 . S
H807 C815 0.950 . S
H808 C813 0.950 . S
H809 C814 0.949 . S
H810 C816 0.950 . S
H811 C817 0.950 . S
H812 C818 0.949 . S
C813 H808 0.950 . S
C813 C815 1.327 . S
C813 C819 1.429 . S
C814 C806 1.574 . S
C814 H809 0.949 . S
C814 C820 1.368 . S
C815 C799 1.349 . S
C815 H807 0.950 . S
C815 C813 1.327 . S
C816 C804 1.349 . S
C816 H810 0.950 . S
C816 C817 1.327 . S
C817 H811 0.950 . S
C817 C816 1.327 . S
C817 C821 1.429 . S
C818 C801 1.574 . S
C818 H812 0.949 . S
C818 C822 1.368 . S
C819 C800 1.429 . S
C819 C813 1.429 . S
C819 C820 1.523 . S
C820 C801 1.368 . S
C820 C814 1.368 . S
C820 C819 1.523 . S
C821 C805 1.429 . S
C821 C817 1.429 . S
C821 C822 1.523 . S
C822 C806 1.368 . S
C822 C818 1.368 . S
C822 C821 1.523 . S
H823 C798 0.950 . S
H824 C800 0.950 . S
H825 C801 0.949 . S
H826 C803 0.950 . S
H827 C805 0.950 . S
C828 C829 1.349 . S
C828 C830 1.327 . S
C828 H853 0.950 . S
C829 C828 1.349 . S
C829 C845 1.349 . S
C830 C828 1.327 . S
C830 C849 1.429 . S
C830 H854 0.950 . S
C831 C848 1.574 . S
C831 C850 1.368 . S
C831 H855 0.949 . S
H832 C836 0.949 . S
C833 C834 1.349 . S
C833 C835 1.327 . S
C833 H856 0.950 . S
C834 C833 1.349 . S
C834 C846 1.349 . S
C835 C833 1.327 . S
C835 C851 1.429 . S
C835 H857 0.950 . S
C836 H832 0.949 . S
C836 C844 1.574 . S
C836 C852 1.368 . S
H837 C845 0.950 . S
H838 C843 0.950 . S
H839 C844 0.949 . S
H840 C846 0.950 . S
H841 C847 0.950 . S
H842 C848 0.949 . S
C843 H838 0.950 . S
C843 C845 1.327 . S
C843 C849 1.429 . S
C844 C836 1.574 . S
C844 H839 0.949 . S
C844 C850 1.368 . S
C845 C829 1.349 . S
C845 H837 0.950 . S
C845 C843 1.327 . S
C846 C834 1.349 . S
C846 H840 0.950 . S
C846 C847 1.327 . S
C847 H841 0.950 . S
C847 C846 1.327 . S
C847 C851 1.429 . S
C848 C831 1.574 . S
C848 H842 0.949 . S
C848 C852 1.368 . S
C849 C830 1.429 . S
C849 C843 1.429 . S
C849 C850 1.523 . S
C850 C831 1.368 . S
C850 C844 1.368 . S
C850 C849 1.523 . S
C851 C835 1.429 . S
C851 C847 1.429 . S
C851 C852 1.523 . S
C852 C836 1.368 . S
C852 C848 1.368 . S
C852 C851 1.523 . S
H853 C828 0.950 . S
H854 C830 0.950 . S
H855 C831 0.949 . S
H856 C833 0.950 . S
H857 C835 0.950 . S
C858 C859 1.349 . S
C858 C860 1.327 . S
C858 H883 0.950 . S
C859 C858 1.349 . S
C859 C875 1.349 . S
C860 C858 1.327 . S
C860 C879 1.429 . S
C860 H884 0.950 . S
C861 C878 1.574 . S
C861 C880 1.368 . S
C861 H885 0.949 . S
H862 C866 0.949 . S
C863 C864 1.349 . S
C863 C865 1.327 . S
C863 H886 0.950 . S
C864 C863 1.349 . S
C864 C876 1.349 . S
C865 C863 1.327 . S
C865 C881 1.429 . S
C865 H887 0.950 . S
C866 H862 0.949 . S
C866 C874 1.574 . S
C866 C882 1.368 . S
H867 C875 0.950 . S
H868 C873 0.950 . S
H869 C874 0.949 . S
H870 C876 0.950 . S
H871 C877 0.950 . S
H872 C878 0.949 . S
C873 H868 0.950 . S
C873 C875 1.327 . S
C873 C879 1.429 . S
C874 C866 1.574 . S
C874 H869 0.949 . S
C874 C880 1.368 . S
C875 C859 1.349 . S
C875 H867 0.950 . S
C875 C873 1.327 . S
C876 C864 1.349 . S
C876 H870 0.950 . S
C876 C877 1.327 . S
C877 H871 0.950 . S
C877 C876 1.327 . S
C877 C881 1.429 . S
C878 C861 1.574 . S
C878 H872 0.949 . S
C878 C882 1.368 . S
C879 C860 1.429 . S
C879 C873 1.429 . S
C879 C880 1.523 . S
C880 C861 1.368 . S
C880 C874 1.368 . S
C880 C879 1.523 . S
C881 C865 1.429 . S
C881 C877 1.429 . S
C881 C882 1.523 . S
C882 C866 1.368 . S
C882 C878 1.368 . S
C882 C881 1.523 . S
H883 C858 0.950 . S
H884 C860 0.950 . S
H885 C861 0.949 . S
H886 C863 0.950 . S
H887 C865 0.950 . S
C888 C889 1.349 1_556 S
C888 C890 1.327 . S
C888 H913 0.950 . S
C889 C888 1.349 1_554 S
C889 C905 1.349 . S
C890 C888 1.327 . S
C890 C909 1.429 1_556 S
C890 H914 0.950 . S
C891 C908 1.574 . S
C891 C910 1.368 . S
C891 H915 0.949 . S
H892 C896 0.949 . S
C893 C894 1.349 . S
C893 C895 1.327 . S
C893 H916 0.950 . S
C894 C893 1.349 . S
C894 C906 1.349 1_554 S
C895 C893 1.327 . S
C895 C911 1.429 . S
C895 H917 0.950 . S
C896 H892 0.949 . S
C896 C904 1.574 . S
C896 C912 1.368 1_556 S
H897 C905 0.950 . S
H898 C903 0.950 . S
H899 C904 0.949 . S
H900 C906 0.950 . S
H901 C907 0.950 . S
H902 C908 0.949 . S
C903 H898 0.950 . S
C903 C905 1.327 . S
C903 C909 1.429 . S
C904 C896 1.574 . S
C904 H899 0.949 . S
C904 C910 1.368 1_556 S
C905 C889 1.349 . S
C905 H897 0.950 . S
C905 C903 1.327 . S
C906 C894 1.349 1_556 S
C906 H900 0.950 . S
C906 C907 1.327 . S
C907 H901 0.950 . S
C907 C906 1.327 . S
C907 C911 1.429 1_556 S
C908 C891 1.574 . S
C908 H902 0.949 . S
C908 C912 1.368 . S
C909 C890 1.429 1_554 S
C909 C903 1.429 . S
C909 C910 1.523 . S
C910 C891 1.368 . S
C910 C904 1.368 1_554 S
C910 C909 1.523 . S
C911 C895 1.429 . S
C911 C907 1.429 1_554 S
C911 C912 1.523 . S
C912 C896 1.368 1_554 S
C912 C908 1.368 . S
C912 C911 1.523 . S
H913 C888 0.950 . S
H914 C890 0.950 . S
H915 C891 0.949 . S
H916 C893 0.950 . S
H917 C895 0.950 . S
C918 C919 1.349 . S
C918 C920 1.327 . S
C918 H943 0.950 . S
C919 C918 1.349 . S
C919 C935 1.349 . S
C920 C918 1.327 . S
C920 C939 1.429 . S
C920 H944 0.950 . S
C921 C938 1.574 . S
C921 C940 1.368 . S
C921 H945 0.949 . S
H922 C926 0.949 . S
C923 C924 1.349 . S
C923 C925 1.327 . S
C923 H946 0.950 . S
C924 C923 1.349 . S
C924 C936 1.349 . S
C925 C923 1.327 . S
C925 C941 1.429 . S
C925 H947 0.950 . S
C926 H922 0.949 . S
C926 C934 1.574 . S
C926 C942 1.368 . S
H927 C935 0.950 . S
H928 C933 0.950 . S
H929 C934 0.949 . S
H930 C936 0.950 . S
H931 C937 0.950 . S
H932 C938 0.949 . S
C933 H928 0.950 . S
C933 C935 1.327 . S
C933 C939 1.429 . S
C934 C926 1.574 . S
C934 H929 0.949 . S
C934 C940 1.368 . S
C935 C919 1.349 . S
C935 H927 0.950 . S
C935 C933 1.327 . S
C936 C924 1.349 . S
C936 H930 0.950 . S
C936 C937 1.327 . S
C937 H931 0.950 . S
C937 C936 1.327 . S
C937 C941 1.429 . S
C938 C921 1.574 . S
C938 H932 0.949 . S
C938 C942 1.368 . S
C939 C920 1.429 . S
C939 C933 1.429 . S
C939 C940 1.523 . S
C940 C921 1.368 . S
C940 C934 1.368 . S
C940 C939 1.523 . S
C941 C925 1.429 . S
C941 C937 1.429 . S
C941 C942 1.523 . S
C942 C926 1.368 . S
C942 C938 1.368 . S
C942 C941 1.523 . S
H943 C918 0.950 . S
H944 C920 0.950 . S
H945 C921 0.949 . S
H946 C923 0.950 . S
H947 C925 0.950 . S
C948 C949 1.349 1_556 S
C948 C950 1.327 . S
C948 H973 0.950 . S
C949 C948 1.349 1_554 S
C949 C965 1.349 . S
C950 C948 1.327 . S
C950 C969 1.429 1_556 S
C950 H974 0.950 . S
C951 C968 1.574 . S
C951 C970 1.368 . S
C951 H975 0.949 . S
H952 C956 0.949 . S
C953 C954 1.349 . S
C953 C955 1.327 . S
C953 H976 0.950 . S
C954 C953 1.349 . S
C954 C966 1.349 1_554 S
C955 C953 1.327 . S
C955 C971 1.429 . S
C955 H977 0.950 . S
C956 H952 0.949 . S
C956 C964 1.574 . S
C956 C972 1.368 1_556 S
H957 C965 0.950 . S
H958 C963 0.950 . S
H959 C964 0.949 . S
H960 C966 0.950 . S
H961 C967 0.950 . S
H962 C968 0.949 . S
C963 H958 0.950 . S
C963 C965 1.327 . S
C963 C969 1.429 . S
C964 C956 1.574 . S
C964 H959 0.949 . S
C964 C970 1.368 1_556 S
C965 C949 1.349 . S
C965 H957 0.950 . S
C965 C963 1.327 . S
C966 C954 1.349 1_556 S
C966 H960 0.950 . S
C966 C967 1.327 . S
C967 H961 0.950 . S
C967 C966 1.327 . S
C967 C971 1.429 1_556 S
C968 C951 1.574 . S
C968 H962 0.949 . S
C968 C972 1.368 . S
C969 C950 1.429 1_554 S
C969 C963 1.429 . S
C969 C970 1.523 . S
C970 C951 1.368 . S
C970 C964 1.368 1_554 S
C970 C969 1.523 . S
C971 C955 1.429 . S
C971 C967 1.429 1_554 S
C971 C972 1.523 . S
C972 C956 1.368 1_554 S
C972 C968 1.368 . S
C972 C971 1.523 . S
H973 C948 0.950 . S
H974 C950 0.950 . S
H975 C951 0.949 . S
H976 C953 0.950 . S
H977 C955 0.950 . S
C978 C979 1.349 . S
C978 C980 1.327 . S
C978 H1003 0.950 . S
C979 C978 1.349 . S
C979 C995 1.349 . S
C980 C978 1.327 . S
C980 C999 1.429 . S
C980 H1004 0.950 . S
C981 C998 1.574 . S
C981 C1000 1.368 . S
C981 H1005 0.949 . S
H982 C986 0.949 . S
C983 C984 1.349 . S
C983 C985 1.327 . S
C983 H1006 0.950 . S
C984 C983 1.349 . S
C984 C996 1.349 . S
C985 C983 1.327 . S
C985 C1001 1.429 . S
C985 H1007 0.950 . S
C986 H982 0.949 . S
C986 C994 1.574 . S
C986 C1002 1.368 . S
H987 C995 0.950 . S
H988 C993 0.950 . S
H989 C994 0.949 . S
H990 C996 0.950 . S
H991 C997 0.950 . S
H992 C998 0.949 . S
C993 H988 0.950 . S
C993 C995 1.327 . S
C993 C999 1.429 . S
C994 C986 1.574 . S
C994 H989 0.949 . S
C994 C1000 1.368 . S
C995 C979 1.349 . S
C995 H987 0.950 . S
C995 C993 1.327 . S
C996 C984 1.349 . S
C996 H990 0.950 . S
C996 C997 1.327 . S
C997 H991 0.950 . S
C997 C996 1.327 . S
C997 C1001 1.429 . S
C998 C981 1.574 . S
C998 H992 0.949 . S
C998 C1002 1.368 . S
C999 C980 1.429 . S
C999 C993 1.429 . S
C999 C1000 1.523 . S
C1000 C981 1.368 . S
C1000 C994 1.368 . S
C1000 C999 1.523 . S
C1001 C985 1.429 . S
C1001 C997 1.429 . S
C1001 C1002 1.523 . S
C1002 C986 1.368 . S
C1002 C998 1.368 . S
C1002 C1001 1.523 . S
H1003 C978 0.950 . S
H1004 C980 0.950 . S
H1005 C981 0.949 . S
H1006 C983 0.950 . S
H1007 C985 0.950 . S
C1008 C1009 1.349 . S
C1008 C1010 1.327 . S
C1008 H1033 0.950 . S
C1009 C1008 1.349 . S
C1009 C1025 1.349 . S
C1010 C1008 1.327 . S
C1010 C1029 1.429 . S
C1010 H1034 0.950 . S
C1011 C1028 1.574 . S
C1011 C1030 1.368 . S
C1011 H1035 0.949 . S
H1012 C1016 0.949 . S
C1013 C1014 1.349 . S
C1013 C1015 1.327 . S
C1013 H1036 0.950 . S
C1014 C1013 1.349 . S
C1014 C1026 1.349 . S
C1015 C1013 1.327 . S
C1015 C1031 1.429 . S
C1015 H1037 0.950 . S
C1016 H1012 0.949 . S
C1016 C1024 1.574 . S
C1016 C1032 1.368 . S
H1017 C1025 0.950 . S
H1018 C1023 0.950 . S
H1019 C1024 0.949 . S
H1020 C1026 0.950 . S
H1021 C1027 0.950 . S
H1022 C1028 0.949 . S
C1023 H1018 0.950 . S
C1023 C1025 1.327 . S
C1023 C1029 1.429 . S
C1024 C1016 1.574 . S
C1024 H1019 0.949 . S
C1024 C1030 1.368 . S
C1025 C1009 1.349 . S
C1025 H1017 0.950 . S
C1025 C1023 1.327 . S
C1026 C1014 1.349 . S
C1026 H1020 0.950 . S
C1026 C1027 1.327 . S
C1027 H1021 0.950 . S
C1027 C1026 1.327 . S
C1027 C1031 1.429 . S
C1028 C1011 1.574 . S
C1028 H1022 0.949 . S
C1028 C1032 1.368 . S
C1029 C1010 1.429 . S
C1029 C1023 1.429 . S
C1029 C1030 1.523 . S
C1030 C1011 1.368 . S
C1030 C1024 1.368 . S
C1030 C1029 1.523 . S
C1031 C1015 1.429 . S
C1031 C1027 1.429 . S
C1031 C1032 1.523 . S
C1032 C1016 1.368 . S
C1032 C1028 1.368 . S
C1032 C1031 1.523 . S
H1033 C1008 0.950 . S
H1034 C1010 0.950 . S
H1035 C1011 0.949 . S
H1036 C1013 0.950 . S
H1037 C1015 0.950 . S
C1038 C1039 1.349 1_556 S
C1038 C1040 1.327 . S
C1038 H1063 0.950 . S
C1039 C1038 1.349 1_554 S
C1039 C1055 1.349 . S
C1040 C1038 1.327 . S
C1040 C1059 1.429 1_556 S
C1040 H1064 0.950 . S
C1041 C1058 1.574 . S
C1041 C1060 1.368 . S
C1041 H1065 0.949 . S
H1042 C1046 0.949 . S
C1043 C1044 1.349 . S
C1043 C1045 1.327 . S
C1043 H1066 0.950 . S
C1044 C1043 1.349 . S
C1044 C1056 1.349 1_554 S
C1045 C1043 1.327 . S
C1045 C1061 1.429 . S
C1045 H1067 0.950 . S
C1046 H1042 0.949 . S
C1046 C1054 1.574 . S
C1046 C1062 1.368 1_556 S
H1047 C1055 0.950 . S
H1048 C1053 0.950 . S
H1049 C1054 0.949 . S
H1050 C1056 0.950 . S
H1051 C1057 0.950 . S
H1052 C1058 0.949 . S
C1053 H1048 0.950 . S
C1053 C1055 1.327 . S
C1053 C1059 1.429 . S
C1054 C1046 1.574 . S
C1054 H1049 0.949 . S
C1054 C1060 1.368 1_556 S
C1055 C1039 1.349 . S
C1055 H1047 0.950 . S
C1055 C1053 1.327 . S
C1056 C1044 1.349 1_556 S
C1056 H1050 0.950 . S
C1056 C1057 1.327 . S
C1057 H1051 0.950 . S
C1057 C1056 1.327 . S
C1057 C1061 1.429 1_556 S
C1058 C1041 1.574 . S
C1058 H1052 0.949 . S
C1058 C1062 1.368 . S
C1059 C1040 1.429 1_554 S
C1059 C1053 1.429 . S
C1059 C1060 1.523 . S
C1060 C1041 1.368 . S
C1060 C1054 1.368 1_554 S
C1060 C1059 1.523 . S
C1061 C1045 1.429 . S
C1061 C1057 1.429 1_554 S
C1061 C1062 1.523 . S
C1062 C1046 1.368 1_554 S
C1062 C1058 1.368 . S
C1062 C1061 1.523 . S
H1063 C1038 0.950 . S
H1064 C1040 0.950 . S
H1065 C1041 0.949 . S
H1066 C1043 0.950 . S
H1067 C1045 0.950 . S
C1068 C1069 1.349 . S
C1068 C1070 1.327 . S
C1068 H1093 0.950 . S
C1069 C1068 1.349 . S
C1069 C1085 1.349 . S
C1070 C1068 1.327 . S
C1070 C1089 1.429 . S
C1070 H1094 0.950 . S
C1071 C1088 1.574 . S
C1071 C1090 1.368 . S
C1071 H1095 0.949 . S
H1072 C1076 0.949 . S
C1073 C1074 1.349 . S
C1073 C1075 1.327 . S
C1073 H1096 0.950 . S
C1074 C1073 1.349 . S
C1074 C1086 1.349 . S
C1075 C1073 1.327 . S
C1075 C1091 1.429 . S
C1075 H1097 0.950 . S
C1076 H1072 0.949 . S
C1076 C1084 1.574 . S
C1076 C1092 1.368 . S
H1077 C1085 0.950 . S
H1078 C1083 0.950 . S
H1079 C1084 0.949 . S
H1080 C1086 0.950 . S
H1081 C1087 0.950 . S
H1082 C1088 0.949 . S
C1083 H1078 0.950 . S
C1083 C1085 1.327 . S
C1083 C1089 1.429 . S
C1084 C1076 1.574 . S
C1084 H1079 0.949 . S
C1084 C1090 1.368 . S
C1085 C1069 1.349 . S
C1085 H1077 0.950 . S
C1085 C1083 1.327 . S
C1086 C1074 1.349 . S
C1086 H1080 0.950 . S
C1086 C1087 1.327 . S
C1087 H1081 0.950 . S
C1087 C1086 1.327 . S
C1087 C1091 1.429 . S
C1088 C1071 1.574 . S
C1088 H1082 0.949 . S
C1088 C1092 1.368 . S
C1089 C1070 1.429 . S
C1089 C1083 1.429 . S
C1089 C1090 1.523 . S
C1090 C1071 1.368 . S
C1090 C1084 1.368 . S
C1090 C1089 1.523 . S
C1091 C1075 1.429 . S
C1091 C1087 1.429 . S
C1091 C1092 1.523 . S
C1092 C1076 1.368 . S
C1092 C1088 1.368 . S
C1092 C1091 1.523 . S
H1093 C1068 0.950 . S
H1094 C1070 0.950 . S
H1095 C1071 0.949 . S
H1096 C1073 0.950 . S
H1097 C1075 0.950 . S
C1098 C1099 1.349 . S
C1098 C1100 1.327 . S
C1098 H1123 0.950 . S
C1099 C1098 1.349 . S
C1099 C1115 1.349 1_554 S
C1100 C1098 1.327 . S
C1100 C1119 1.429 . S
C1100 H1124 0.950 . S
C1101 C1118 1.574 . S
C1101 C1120 1.368 1_556 S
C1101 H1125 0.949 . S
H1102 C1106 0.949 . S
C1103 C1104 1.349 1_556 S
C1103 C1105 1.327 . S
C1103 H1126 0.950 . S
C1104 C1103 1.349 1_554 S
C1104 C1116 1.349 . S
C1105 C1103 1.327 . S
C1105 C1121 1.429 1_556 S
C1105 H1127 0.950 . S
C1106 H1102 0.949 . S
C1106 C1114 1.574 . S
C1106 C1122 1.368 . S
H1107 C1115 0.950 . S
H1108 C1113 0.950 . S
H1109 C1114 0.949 . S
H1110 C1116 0.950 . S
H1111 C1117 0.950 . S
H1112 C1118 0.949 . S
C1113 H1108 0.950 . S
C1113 C1115 1.327 . S
C1113 C1119 1.429 1_556 S
C1114 C1106 1.574 . S
C1114 H1109 0.949 . S
C1114 C1120 1.368 . S
C1115 C1099 1.349 1_556 S
C1115 H1107 0.950 . S
C1115 C1113 1.327 . S
C1116 C1104 1.349 . S
C1116 H1110 0.950 . S
C1116 C1117 1.327 . S
C1117 H1111 0.950 . S
C1117 C1116 1.327 . S
C1117 C1121 1.429 . S
C1118 C1101 1.574 . S
C1118 H1112 0.949 . S
C1118 C1122 1.368 1_556 S
C1119 C1100 1.429 . S
C1119 C1113 1.429 1_554 S
C1119 C1120 1.523 . S
C1120 C1101 1.368 1_554 S
C1120 C1114 1.368 . S
C1120 C1119 1.523 . S
C1121 C1105 1.429 1_554 S
C1121 C1117 1.429 . S
C1121 C1122 1.523 . S
C1122 C1106 1.368 . S
C1122 C1118 1.368 1_554 S
C1122 C1121 1.523 . S
H1123 C1098 0.950 . S
H1124 C1100 0.950 . S
H1125 C1101 0.949 . S
H1126 C1103 0.950 . S
H1127 C1105 0.950 . S
C409 C21 1.619 . S
C414 C210 1.577 . S
C439 C40 1.757 . S
C444 C90 1.746 . S
C474 C149 1.594 . S
C469 C54 1.599 . S
C499 C73 1.807 . S
C504 C189 1.695 . S
C534 C309 1.590 . S
C529 C74 1.595 . S
C564 C349 1.650 . S
C559 C10 1.765 . S
C594 C370 1.581 . S
C589 C37 1.623 . S
C624 C250 1.793 . S
C619 C65 1.799 . S
C649 C52 1.587 . S
C654 C130 1.590 . S
C679 C87 1.801 . S
C684 C170 1.705 . S
C709 C15 1.637 . S
C714 C229 1.576 . S
C744 C109 1.740 . S
C739 C32 1.756 . S
C769 C29 1.633 . S
C774 C389 1.572 . S
C804 C269 1.798 . S
C799 C59 1.809 . S
C834 C290 1.593 . S
C829 C84 1.591 . S
C859 C8 1.748 . S
C864 C330 1.651 . S
C894 C103 1.860 . S
C889 C7 1.902 . S
C924 C143 1.698 . S
C919 C30 1.711 . S
C949 C62 1.924 . S
C954 C183 1.871 . S
C979 C81 1.693 . S
C984 C223 1.693 . S
C1014 C263 1.880 . S
C1009 C76 1.924 . S
C1039 C18 1.711 . S
C1044 C303 1.698 . S
C1069 C43 1.901 . S
C1074 C343 1.851 . S
C1099 C51 1.693 . S
C1104 C383 1.693 . S
