# Generated by pormake.
# Topology csq, (4,8)-cn, num edge types: 1
# Building blocks:
#     Node 0, Type 0, BuildingBlock: NAWXER_clean_sbu_0, # of connection points: 4
#     Node 1, Type 0, BuildingBlock: NAWXER_clean_sbu_0, # of connection points: 4
#     Node 2, Type 0, BuildingBlock: NAWXER_clean_sbu_0, # of connection points: 4
#     Node 3, Type 0, BuildingBlock: NAWXER_clean_sbu_0, # of connection points: 4
#     Node 4, Type 0, BuildingBlock: NAWXER_clean_sbu_0, # of connection points: 4
#     Node 5, Type 0, BuildingBlock: NAWXER_clean_sbu_0, # of connection points: 4
#     Node 6, Type 1, BuildingBlock: TAGTUT_clean_sbu_3, # of connection points: 8
#     Node 7, Type 1, BuildingBlock: TAGTUT_clean_sbu_3, # of connection points: 8
#     Node 8, Type 1, BuildingBlock: TAGTUT_clean_sbu_3, # of connection points: 8
#     Edge 9, Type (0, 1), BuildingBlock: XUDNAN_clean_linker_2, # of connection points: 2
#     Edge 10, Type (0, 1), BuildingBlock: XUDNAN_clean_linker_2, # of connection points: 2
#     Edge 11, Type (0, 1), BuildingBlock: XUDNAN_clean_linker_2, # of connection points: 2
#     Edge 12, Type (0, 1), BuildingBlock: XUDNAN_clean_linker_2, # of connection points: 2
#     Edge 13, Type (0, 1), BuildingBlock: XUDNAN_clean_linker_2, # of connection points: 2
#     Edge 14, Type (0, 1), BuildingBlock: XUDNAN_clean_linker_2, # of connection points: 2
#     Edge 15, Type (0, 1), BuildingBlock: XUDNAN_clean_linker_2, # of connection points: 2
#     Edge 16, Type (0, 1), BuildingBlock: XUDNAN_clean_linker_2, # of connection points: 2
#     Edge 17, Type (0, 1), BuildingBlock: XUDNAN_clean_linker_2, # of connection points: 2
#     Edge 18, Type (0, 1), BuildingBlock: XUDNAN_clean_linker_2, # of connection points: 2
#     Edge 19, Type (0, 1), BuildingBlock: XUDNAN_clean_linker_2, # of connection points: 2
#     Edge 20, Type (0, 1), BuildingBlock: XUDNAN_clean_linker_2, # of connection points: 2
#     Edge 21, Type (0, 1), BuildingBlock: XUDNAN_clean_linker_2, # of connection points: 2
#     Edge 22, Type (0, 1), BuildingBlock: XUDNAN_clean_linker_2, # of connection points: 2
#     Edge 23, Type (0, 1), BuildingBlock: XUDNAN_clean_linker_2, # of connection points: 2
#     Edge 24, Type (0, 1), BuildingBlock: XUDNAN_clean_linker_2, # of connection points: 2
#     Edge 25, Type (0, 1), BuildingBlock: XUDNAN_clean_linker_2, # of connection points: 2
#     Edge 26, Type (0, 1), BuildingBlock: XUDNAN_clean_linker_2, # of connection points: 2
#     Edge 27, Type (0, 1), BuildingBlock: XUDNAN_clean_linker_2, # of connection points: 2
#     Edge 28, Type (0, 1), BuildingBlock: XUDNAN_clean_linker_2, # of connection points: 2
#     Edge 29, Type (0, 1), BuildingBlock: XUDNAN_clean_linker_2, # of connection points: 2
#     Edge 30, Type (0, 1), BuildingBlock: XUDNAN_clean_linker_2, # of connection points: 2
#     Edge 31, Type (0, 1), BuildingBlock: XUDNAN_clean_linker_2, # of connection points: 2
#     Edge 32, Type (0, 1), BuildingBlock: XUDNAN_clean_linker_2, # of connection points: 2
# Relax obj value: 0.043
# Max RMSD: 0.117
# Mean RMSD: 0.077
data_MOF--net-csq--node1-NAWXER_clean_sbu_0--node2-TAGTUT_clean_sbu_3--edge1-XUDNAN_clean_linker_2
_symmetry_space_group_name_H-M    P1
_symmetry_Int_Tables_number       1
_symmetry_cell_setting            triclinic
loop_
_symmetry_equiv_pos_as_xyz
'x, y, z'
_cell_length_a     50.253446
_cell_length_b     49.584631
_cell_length_c     19.189636
_cell_angle_alpha  92.67634
_cell_angle_beta   92.505517
_cell_angle_gamma 119.97589
loop_
_atom_site_label
_atom_site_type_symbol
_atom_site_fract_x
_atom_site_fract_y
_atom_site_fract_z
_atom_type_partial_charge
C0 C 0.29559 0.49579 0.11142 0.0
C1 C 0.20962 0.48231 0.24696 0.0
O2 O 0.29191 0.51743 0.13916 0.0
Zn3 Zn 0.2537 0.48997 0.18127 0.0
O4 O 0.27517 0.46718 0.11691 0.0
Zn5 Zn 0.23299 0.44059 0.16628 0.0
O6 O 0.20451 0.41668 0.08768 0.0
O7 O 0.22089 0.46727 0.09097 0.0
O8 O 0.20693 0.45639 0.22319 0.0
O9 O 0.23411 0.50775 0.23875 0.0
O10 O 0.27139 0.46966 0.25219 0.0
O11 O 0.24461 0.41852 0.22951 0.0
C12 C 0.20386 0.43947 0.0617 0.0
C13 C 0.26634 0.44239 0.26426 0.0
C14 C 0.70595 0.21472 0.05081 0.0
C15 C 0.78699 0.29613 0.21459 0.0
O16 O 0.73104 0.21396 0.0558 0.0
Zn17 Zn 0.77623 0.23947 0.10713 0.0
O18 O 0.70455 0.23722 0.08178 0.0
Zn19 Zn 0.74612 0.25784 0.12905 0.0
O20 O 0.77555 0.27866 0.04763 0.0
O21 O 0.80308 0.25578 0.0316 0.0
O22 O 0.76015 0.29211 0.20142 0.0
O23 O 0.79504 0.27841 0.18261 0.0
O24 O 0.77514 0.20664 0.16215 0.0
O25 O 0.74168 0.22127 0.18944 0.0
C26 C 0.79611 0.27619 0.01531 0.0
C27 C 0.75289 0.20333 0.19729 0.0
C28 C 0.55612 0.79934 0.18378 0.0
C29 C 0.56342 0.74328 0.97672 0.0
O30 O 0.58017 0.79997 0.16356 0.0
Zn31 Zn 0.56059 0.77058 0.0823 0.0
O32 O 0.53009 0.78195 0.14893 0.0
Zn33 Zn 0.51204 0.74971 0.05792 0.0
O34 O 0.48442 0.70966 0.09513 0.0
O35 O 0.53323 0.7281 0.12971 0.0
O36 O 0.53601 0.73781 0.98441 0.0
O37 O 0.58504 0.76011 0.02337 0.0
O38 O 0.54683 0.79512 0.01271 0.0
O39 O 0.49595 0.76973 0.99861 0.0
C40 C 0.50484 0.7071 0.13087 0.0
C41 C 0.52184 0.79235 0.98471 0.0
C42 C 0.82263 0.54037 0.99774 0.0
C43 C 0.7638 0.56094 0.16934 0.0
O44 O 0.82672 0.56801 0.9994 0.0
Zn45 Zn 0.81206 0.59598 0.05408 0.0
O46 O 0.80381 0.52094 0.03738 0.0
Zn47 Zn 0.79207 0.54896 0.08419 0.0
O48 O 0.76596 0.55581 0.00437 0.0
O49 O 0.79159 0.60528 0.97976 0.0
O50 O 0.76326 0.53525 0.15651 0.0
O51 O 0.78114 0.58468 0.13604 0.0
O52 O 0.85144 0.62844 0.0972 0.0
O53 O 0.83489 0.58221 0.13879 0.0
C54 C 0.76811 0.57809 0.96954 0.0
C55 C 0.85533 0.61112 0.13834 0.0
C56 C 0.21862 0.72239 0.18309 0.0
C57 C 0.26952 0.78471 0.98546 0.0
O58 O 0.21554 0.74613 0.17475 0.0
Zn59 Zn 0.22787 0.78277 0.10957 0.0
O60 O 0.2337 0.71579 0.14042 0.0
Zn61 Zn 0.2448 0.75051 0.07973 0.0
O62 O 0.27497 0.78924 0.14863 0.0
O63 O 0.25565 0.81957 0.17405 0.0
O64 O 0.26969 0.75968 0.9976 0.0
O65 O 0.25494 0.79397 0.02347 0.0
O66 O 0.18754 0.77291 0.06455 0.0
O67 O 0.20253 0.73986 0.02916 0.0
C68 C 0.27767 0.81378 0.18057 0.0
C69 C 0.18308 0.74927 0.02549 0.0
C70 C 0.43694 0.25045 0.2867 0.0
C71 C 0.46491 0.19313 0.12125 0.0
O72 O 0.46595 0.26303 0.28122 0.0
Zn73 Zn 0.49711 0.25639 0.22207 0.0
O74 O 0.418 0.22657 0.24694 0.0
Zn75 Zn 0.44886 0.22173 0.19863 0.0
O76 O 0.47213 0.21237 0.28227 0.0
O77 O 0.52113 0.24978 0.29536 0.0
O78 O 0.43744 0.186 0.13248 0.0
O79 O 0.48776 0.21819 0.15085 0.0
O80 O 0.51499 0.29238 0.16393 0.0
O81 O 0.46645 0.25845 0.13052 0.0
C82 C 0.49908 0.22423 0.31353 0.0
C83 C 0.49142 0.28369 0.12164 0.0
C84 C 0.05365 0.48875 0.5202 0.0
C85 C 0.04629 0.44565 0.76286 0.0
C86 C 0.95421 0.4332 0.75181 0.0
Mg87 Mg 0.02584 0.53031 0.46132 0.0
Mg88 Mg 0.01698 0.5776 0.57386 0.0
O89 O 0.00496 0.53597 0.5437 0.0
Mg90 Mg 0.01501 0.51283 0.61238 0.0
O91 O 0.02534 0.48812 0.67552 0.0
Mg92 Mg 0.00243 0.44514 0.62439 0.0
Mg93 Mg 0.01914 0.48998 0.77043 0.0
C94 C 0.97691 0.54034 0.69826 0.0
O95 O 0.05042 0.55812 0.68001 0.0
O96 O 0.00283 0.55415 0.39932 0.0
O97 O 0.03814 0.54023 0.787 0.0
O98 O 0.06891 0.57741 0.48229 0.0
O99 O 0.99652 0.58432 0.4814 0.0
O100 O 0.06697 0.60798 0.56843 0.0
O101 O 0.97841 0.46626 0.55513 0.0
O102 O 0.98284 0.48112 0.44587 0.0
C103 C 0.96968 0.4604 0.48968 0.0
C104 C 0.99373 0.57338 0.41798 0.0
O105 O 0.98109 0.51721 0.68269 0.0
O106 O 0.03158 0.43293 0.70277 0.0
O107 O 0.99058 0.56614 0.66823 0.0
O108 O 0.96239 0.42519 0.69632 0.0
O109 O 0.04473 0.46774 0.79644 0.0
O110 O 0.97181 0.45889 0.78765 0.0
O111 O 0.04792 0.51062 0.53572 0.0
O112 O 0.04055 0.46312 0.54956 0.0
C113 C 0.08163 0.60249 0.52219 0.0
C114 C 0.05068 0.56269 0.74683 0.0
C115 C 0.50405 0.05075 0.51991 0.0
C116 C 0.60127 0.04002 0.4629 0.0
C117 C 0.54524 0.94641 0.51583 0.0
Mg118 Mg 0.45056 0.01036 0.62789 0.0
Mg119 Mg 0.47012 0.98452 0.76274 0.0
O120 O 0.4669 0.98394 0.66551 0.0
Mg121 Mg 0.5059 1.00033 0.61925 0.0
O122 O 0.54375 0.01703 0.56778 0.0
Mg123 Mg 0.52389 0.99897 0.47143 0.0
Mg124 Mg 0.57511 0.00942 0.60013 0.0
C125 C 0.50579 0.94933 0.72665 0.0
O126 O 0.53707 0.03167 0.7147 0.0
O127 O 0.40502 0.97502 0.67882 0.0
O128 O 0.5806 0.02917 0.70783 0.0
O129 O 0.46703 0.04472 0.72797 0.0
O130 O 0.42215 0.96131 0.77383 0.0
O131 O 0.49111 0.03108 0.80686 0.0
O132 O 0.47688 0.97061 0.5196 0.0
O133 O 0.43674 0.97797 0.53001 0.0
C134 C 0.45061 0.96646 0.49611 0.0
C135 C 0.4003 0.95955 0.73359 0.0
O136 O 0.51183 0.96046 0.66622 0.0
O137 O 0.57361 0.02923 0.43554 0.0
O138 O 0.49261 0.95769 0.77146 0.0
O139 O 0.53245 0.95738 0.47601 0.0
O140 O 0.60718 0.03545 0.52546 0.0
O141 O 0.56085 0.96136 0.57279 0.0
O142 O 0.49814 0.03929 0.57984 0.0
O143 O 0.51482 0.04014 0.47335 0.0
C144 C 0.48297 0.05005 0.78607 0.0
C145 C 0.5639 0.03803 0.73945 0.0
C146 C 0.53864 0.56985 0.71206 0.0
C147 C 0.4579 0.48806 0.86346 0.0
C148 C 0.49146 0.4274 0.78729 0.0
Mg149 Mg 0.56193 0.56226 0.56468 0.0
Mg150 Mg 0.52303 0.5021 0.45025 0.0
O151 O 0.53856 0.51563 0.54351 0.0
Mg152 Mg 0.51267 0.5025 0.6259 0.0
O153 O 0.4897 0.493 0.71197 0.0
Mg154 Mg 0.52395 0.50659 0.78728 0.0
Mg155 Mg 0.45448 0.45422 0.71919 0.0
C156 C 0.48707 0.43786 0.52494 0.0
O157 O 0.46798 0.49205 0.56381 0.0
O158 O 0.59337 0.56376 0.47748 0.0
O159 O 0.43116 0.45252 0.61921 0.0
O160 O 0.53217 0.57146 0.48383 0.0
O161 O 0.56744 0.51942 0.40718 0.0
O162 O 0.50218 0.52842 0.41407 0.0
O163 O 0.55502 0.50962 0.69546 0.0
O164 O 0.58924 0.55144 0.64337 0.0
C165 C 0.58284 0.5312 0.68836 0.0
C166 C 0.59208 0.54539 0.42617 0.0
O167 O 0.49545 0.45082 0.58798 0.0
O168 O 0.48759 0.50359 0.86552 0.0
O169 O 0.49377 0.45348 0.47036 0.0
O170 O 0.51156 0.45572 0.8072 0.0
O171 O 0.44127 0.46809 0.81263 0.0
O172 O 0.46828 0.42085 0.74512 0.0
O173 O 0.52946 0.55455 0.65204 0.0
O174 O 0.53705 0.55625 0.76794 0.0
C175 C 0.51138 0.55686 0.43352 0.0
C176 C 0.4399 0.47035 0.5684 0.0
H177 H 0.20825 0.52355 0.34816 0.0
H178 H 0.14981 0.44033 0.21027 0.0
H179 H 0.10375 0.43829 0.25468 0.0
H180 H 0.16267 0.49708 0.49301 0.0
H181 H 0.16856 0.53474 0.52358 0.0
H182 H 0.19726 0.53221 0.47537 0.0
H183 H 0.19389 0.56824 0.38608 0.0
H184 H 0.16488 0.57041 0.43409 0.0
H185 H 0.15709 0.55759 0.34229 0.0
H186 H 0.06422 0.44236 0.31733 0.0
H187 H 0.03308 0.44936 0.40442 0.0
H188 H 0.11532 0.52914 0.50622 0.0
C189 C 0.18571 0.5052 0.32688 0.0
C190 C 0.18261 0.48211 0.27561 0.0
C191 C 0.15277 0.45813 0.24984 0.0
C192 C 0.12642 0.45694 0.27422 0.0
C193 C 0.13012 0.47979 0.32491 0.0
C194 C 0.15891 0.50331 0.35174 0.0
C195 C 0.15603 0.52298 0.41095 0.0
C196 C 0.17208 0.52165 0.4798 0.0
C197 C 0.16874 0.55682 0.39215 0.0
C198 C 0.12123 0.50637 0.41392 0.0
C199 C 0.10686 0.48189 0.36269 0.0
C200 C 0.07511 0.4617 0.35705 0.0
C201 C 0.0576 0.4659 0.4065 0.0
C202 C 0.07178 0.49008 0.46084 0.0
C203 C 0.1039 0.51109 0.46374 0.0
H204 H 0.69303 0.17677 0.22206 0.0
H205 H 0.77413 0.16871 0.2655 0.0
H206 H 0.74339 0.12357 0.33551 0.0
H207 H 0.66121 0.15835 0.38343 0.0
H208 H 0.62199 0.13627 0.34588 0.0
H209 H 0.65067 0.16737 0.30037 0.0
H210 H 0.63748 0.12901 0.19109 0.0
H211 H 0.60889 0.09754 0.23618 0.0
H212 H 0.63935 0.0939 0.19878 0.0
H213 H 0.70361 0.08207 0.40874 0.0
H214 H 0.65846 0.04589 0.47047 0.0
H215 H 0.6035 0.07939 0.36624 0.0
C216 C 0.70454 0.16562 0.24615 0.0
C217 C 0.73607 0.17641 0.23918 0.0
C218 C 0.75001 0.16083 0.27065 0.0
C219 C 0.73272 0.13524 0.31024 0.0
C220 C 0.70153 0.12528 0.31581 0.0
C221 C 0.6876 0.13983 0.28352 0.0
C222 C 0.65379 0.12474 0.29555 0.0
C223 C 0.64651 0.14807 0.33359 0.0
C224 C 0.6337 0.11044 0.22629 0.0
C225 C 0.65079 0.09979 0.34186 0.0
C226 C 0.67853 0.10045 0.3534 0.0
C227 C 0.68173 0.08102 0.39899 0.0
C228 C 0.65603 0.06065 0.4339 0.0
C229 C 0.62748 0.05965 0.42222 0.0
C230 C 0.62484 0.07916 0.37484 0.0
H231 H 0.53825 0.70632 0.24516 0.0
H232 H 0.45353 0.64796 0.11527 0.0
H233 H 0.44321 0.60312 0.18468 0.0
H234 H 0.56085 0.65066 0.26298 0.0
H235 H 0.57628 0.66334 0.35259 0.0
H236 H 0.57543 0.69066 0.29541 0.0
H237 H 0.54467 0.70357 0.38272 0.0
H238 H 0.54537 0.67619 0.44024 0.0
H239 H 0.50912 0.67245 0.41004 0.0
H240 H 0.4456 0.5634 0.26266 0.0
H241 H 0.4591 0.53376 0.34356 0.0
H242 H 0.54068 0.61992 0.42502 0.0
C243 C 0.51733 0.68419 0.23162 0.0
C244 C 0.49673 0.68056 0.17465 0.0
C245 C 0.46955 0.65128 0.15893 0.0
C246 C 0.46355 0.62571 0.19805 0.0
C247 C 0.48467 0.63007 0.25347 0.0
C248 C 0.5108 0.65878 0.27063 0.0
C249 C 0.5304 0.65752 0.3311 0.0
C250 C 0.56263 0.66604 0.30917 0.0
C251 C 0.5325 0.67869 0.39479 0.0
C252 C 0.51169 0.6234 0.34457 0.0
C253 C 0.48538 0.60781 0.29942 0.0
C254 C 0.46586 0.57555 0.29899 0.0
C255 C 0.47371 0.5589 0.3451 0.0
C256 C 0.50073 0.57455 0.39139 0.0
C257 C 0.51949 0.6073 0.39162 0.0
H258 H 0.86608 0.60962 0.27657 0.0
H259 H 0.90979 0.63115 0.08162 0.0
H260 H 0.95357 0.62758 0.13488 0.0
H261 H 0.94094 0.65068 0.39635 0.0
H262 H 0.92403 0.62085 0.45687 0.0
H263 H 0.90024 0.63204 0.40742 0.0
H264 H 0.86453 0.57413 0.36191 0.0
H265 H 0.8887 0.56283 0.40868 0.0
H266 H 0.88047 0.55369 0.31545 0.0
H267 H 0.98546 0.60899 0.20101 0.0
H268 H 0.00877 0.58787 0.28329 0.0
H269 H 0.94532 0.58171 0.43607 0.0
C270 C 0.88582 0.61545 0.24673 0.0
C271 C 0.88518 0.62139 0.17593 0.0
C272 C 0.91056 0.6276 0.1368 0.0
C273 C 0.93528 0.62522 0.16638 0.0
C274 C 0.93438 0.61737 0.23543 0.0
C275 C 0.91083 0.61376 0.27593 0.0
C276 C 0.9138 0.60298 0.34669 0.0
C277 C 0.92015 0.62814 0.4053 0.0
C278 C 0.88518 0.57155 0.3588 0.0
C279 C 0.94166 0.59945 0.33839 0.0
C280 C 0.95329 0.60775 0.27399 0.0
C281 C 0.97714 0.60332 0.2524 0.0
C282 C 0.98994 0.59095 0.29884 0.0
C283 C 0.97893 0.58351 0.36586 0.0
C284 C 0.95449 0.58776 0.38544 0.0
H285 H 0.298 0.87269 0.24592 0.0
H286 H 0.32483 0.80279 0.20795 0.0
H287 H 0.37503 0.83733 0.27158 0.0
H288 H 0.37474 0.94092 0.23171 0.0
H289 H 0.37053 0.96389 0.30131 0.0
H290 H 0.33707 0.93464 0.24805 0.0
H291 H 0.31158 0.90807 0.35907 0.0
H292 H 0.34469 0.9375 0.41248 0.0
H293 H 0.33217 0.8968 0.41926 0.0
H294 H 0.42157 0.87794 0.34552 0.0
H295 H 0.45849 0.92008 0.4328 0.0
H296 H 0.40231 0.96385 0.42056 0.0
C297 C 0.31447 0.86474 0.2508 0.0
C298 C 0.30731 0.83502 0.2216 0.0
C299 C 0.32961 0.82549 0.22946 0.0
C300 C 0.35841 0.84502 0.26527 0.0
C301 C 0.36488 0.87421 0.29291 0.0
C302 C 0.34354 0.88404 0.28646 0.0
C303 C 0.35577 0.91584 0.32472 0.0
C304 C 0.35976 0.94026 0.27337 0.0
C305 C 0.33481 0.91445 0.3823 0.0
C306 C 0.3867 0.9217 0.35535 0.0
C307 C 0.39182 0.89769 0.33552 0.0
C308 C 0.41803 0.89712 0.36092 0.0
C309 C 0.43898 0.9212 0.41012 0.0
C310 C 0.43327 0.94517 0.43356 0.0
C311 C 0.40738 0.94586 0.40363 0.0
H312 H 0.41636 0.29031 0.26538 0.0
H313 H 0.4401 0.24614 0.42602 0.0
H314 H 0.44366 0.28546 0.51553 0.0
H315 H 0.46963 0.36033 0.31361 0.0
H316 H 0.44955 0.38121 0.29611 0.0
H317 H 0.43696 0.34414 0.24981 0.0
H318 H 0.3822 0.32243 0.29196 0.0
H319 H 0.39438 0.35988 0.33752 0.0
H320 H 0.37731 0.32504 0.38407 0.0
H321 H 0.45902 0.33657 0.57978 0.0
H322 H 0.48309 0.39333 0.61189 0.0
H323 H 0.45032 0.4049 0.40889 0.0
C324 C 0.42002 0.28778 0.32016 0.0
C325 C 0.42681 0.2648 0.33971 0.0
C326 C 0.4337 0.26305 0.41094 0.0
C327 C 0.43589 0.28539 0.46199 0.0
C328 C 0.43115 0.30927 0.44068 0.0
C329 C 0.42271 0.31024 0.37138 0.0
C330 C 0.42492 0.34119 0.35916 0.0
C331 C 0.44656 0.35766 0.30135 0.0
C332 C 0.39279 0.33687 0.3422 0.0
C333 C 0.43845 0.35835 0.43037 0.0
C334 C 0.44097 0.33939 0.47754 0.0
C335 C 0.45635 0.3514 0.54391 0.0
C336 C 0.47009 0.38368 0.56169 0.0
C337 C 0.46882 0.40348 0.51259 0.0
C338 C 0.45178 0.39032 0.44744 0.0
H339 H 0.47803 0.80801 0.94889 0.0
H340 H 0.57026 0.82831 0.90873 0.0
H341 H 0.57451 0.86724 0.82749 0.0
H342 H 0.45477 0.81857 0.77301 0.0
H343 H 0.43437 0.83719 0.80592 0.0
H344 H 0.4374 0.80863 0.85512 0.0
H345 H 0.46139 0.84876 0.96338 0.0
H346 H 0.45826 0.87729 0.91464 0.0
H347 H 0.4951 0.8862 0.95502 0.0
H348 H 0.56946 0.90606 0.75382 0.0
H349 H 0.55703 0.94422 0.70416 0.0
H350 H 0.46925 0.89936 0.79636 0.0
C351 C 0.49891 0.82032 0.92216 0.0
C352 C 0.52372 0.81501 0.93479 0.0
C353 C 0.55095 0.83205 0.89991 0.0
C354 C 0.55352 0.85407 0.85327 0.0
C355 C 0.52873 0.85897 0.84231 0.0
C356 C 0.50204 0.84272 0.87626 0.0
C357 C 0.47979 0.85414 0.86015 0.0
C358 C 0.44981 0.82807 0.82122 0.0
C359 C 0.47328 0.86739 0.92728 0.0
C360 C 0.49829 0.87962 0.81286 0.0
C361 C 0.52624 0.88178 0.80196 0.0
C362 C 0.54751 0.90442 0.76158 0.0
C363 C 0.54025 0.92584 0.73311 0.0
C364 C 0.51221 0.92458 0.74623 0.0
C365 C 0.49089 0.90081 0.78548 0.0
H366 H 0.70843 0.5582 0.99263 0.0
H367 H 0.77198 0.58211 0.82992 0.0
H368 H 0.72866 0.565 0.73985 0.0
H369 H 0.64237 0.49077 0.89993 0.0
H370 H 0.61461 0.50024 0.93205 0.0
H371 H 0.64993 0.51194 0.9842 0.0
H372 H 0.66293 0.56961 0.99089 0.0
H373 H 0.6274 0.55801 0.94007 0.0
H374 H 0.66342 0.58763 0.91113 0.0
H375 H 0.67987 0.54553 0.66922 0.0
H376 H 0.62933 0.53459 0.61927 0.0
H377 H 0.59659 0.52657 0.82707 0.0
C378 C 0.71301 0.55983 0.93787 0.0
C379 C 0.74319 0.57133 0.91726 0.0
C380 C 0.74886 0.57353 0.84589 0.0
C381 C 0.72443 0.56353 0.79473 0.0
C382 C 0.69477 0.55185 0.81645 0.0
C383 C 0.68896 0.55065 0.88623 0.0
C384 C 0.65533 0.53992 0.89522 0.0
C385 C 0.63964 0.50887 0.9299 0.0
C386 C 0.65209 0.56531 0.93676 0.0
C387 C 0.64321 0.53564 0.81939 0.0
C388 C 0.66636 0.5419 0.77519 0.0
C389 C 0.66156 0.54063 0.7031 0.0
C390 C 0.63279 0.53435 0.67535 0.0
C391 C 0.60929 0.52986 0.71957 0.0
C392 C 0.6141 0.52943 0.79235 0.0
H393 H 0.18337 0.72879 0.89359 0.0
H394 H 0.12221 0.7268 0.04776 0.0
H395 H 0.07809 0.68282 0.97702 0.0
H396 H 0.12424 0.70045 0.73245 0.0
H397 H 0.14048 0.67823 0.69593 0.0
H398 H 0.16494 0.71469 0.74717 0.0
H399 H 0.1839 0.6864 0.82806 0.0
H400 H 0.15918 0.64985 0.7785 0.0
H401 H 0.15617 0.65346 0.87136 0.0
H402 H 0.04464 0.63187 0.90797 0.0
H403 H 0.02311 0.58078 0.84086 0.0
H404 H 0.1055 0.61585 0.72832 0.0
C405 C 0.16036 0.72011 0.91037 0.0
C406 C 0.15593 0.73132 0.97538 0.0
C407 C 0.12585 0.719 0.99725 0.0
C408 C 0.10076 0.69391 0.95748 0.0
C409 C 0.10624 0.68201 0.89559 0.0
C410 C 0.13525 0.69529 0.87113 0.0
C411 C 0.13608 0.67578 0.80876 0.0
C412 C 0.14176 0.69333 0.74212 0.0
C413 C 0.16024 0.66578 0.82258 0.0
C414 C 0.10363 0.64816 0.80511 0.0
C415 C 0.08662 0.65251 0.8548 0.0
C416 C 0.05741 0.62866 0.86761 0.0
C417 C 0.0455 0.59964 0.82967 0.0
C418 C 0.06268 0.5946 0.77931 0.0
C419 C 0.09172 0.61942 0.76545 0.0
H420 H 0.43345 0.15736 0.99933 0.0
H421 H 0.51223 0.183 0.14565 0.0
H422 H 0.52737 0.15188 0.0712 0.0
H423 H 0.41559 0.07834 0.95273 0.0
H424 H 0.40543 0.07901 0.86183 0.0
H425 H 0.40045 0.10294 0.92745 0.0
H426 H 0.43418 0.15185 0.8615 0.0
H427 H 0.43965 0.12808 0.79628 0.0
H428 H 0.47258 0.16105 0.84314 0.0
H429 H 0.53309 0.117 0.985 0.0
H430 H 0.52903 0.07954 0.89006 0.0
H431 H 0.44838 0.07836 0.79514 0.0
C432 C 0.45366 0.15607 0.01569 0.0
C433 C 0.47169 0.17242 0.07798 0.0
C434 C 0.49825 0.17068 0.09772 0.0
C435 C 0.50706 0.15314 0.05587 0.0
C436 C 0.48928 0.13782 0.99399 0.0
C437 C 0.46316 0.13903 0.97371 0.0
C438 C 0.44842 0.1204 0.90424 0.0
C439 C 0.41553 0.09358 0.91206 0.0
C440 C 0.44874 0.14162 0.84797 0.0
C441 C 0.4701 0.10825 0.88952 0.0
C442 C 0.49348 0.11862 0.94208 0.0
C443 C 0.51525 0.10908 0.94275 0.0
C444 C 0.51276 0.08784 0.8887 0.0
C445 C 0.48865 0.07643 0.83497 0.0
C446 C 0.4675 0.08734 0.83462 0.0
H447 H 0.30528 0.45469 0.03384 0.0
H448 H 0.351 0.55162 0.11634 0.0
H449 H 0.39982 0.55989 0.07062 0.0
H450 H 0.3679 0.44167 0.07292 0.0
H451 H 0.35986 0.41668 0.99425 0.0
H452 H 0.32902 0.41884 0.03361 0.0
H453 H 0.31408 0.43426 0.91713 0.0
H454 H 0.34442 0.43153 0.87701 0.0
H455 H 0.34302 0.46713 0.87589 0.0
H456 H 0.44415 0.55647 0.0142 0.0
H457 H 0.47694 0.54327 0.94354 0.0
H458 H 0.40053 0.44858 0.90166 0.0
C459 C 0.32544 0.47779 0.04216 0.0
C460 C 0.32425 0.50253 0.07856 0.0
C461 C 0.35127 0.53235 0.08804 0.0
C462 C 0.37915 0.53717 0.0628 0.0
C463 C 0.37954 0.51193 0.02826 0.0
C464 C 0.35317 0.48293 0.01752 0.0
C465 C 0.35893 0.4596 0.97763 0.0
C466 C 0.35361 0.43261 0.02228 0.0
C467 C 0.33894 0.44744 0.90778 0.0
C468 C 0.39263 0.47998 0.96635 0.0
C469 C 0.40443 0.51001 0.99649 0.0
C470 C 0.43507 0.53297 0.99069 0.0
C471 C 0.45363 0.52522 0.95101 0.0
C472 C 0.4413 0.49489 0.91723 0.0
C473 C 0.41068 0.47196 0.92692 0.0
H474 H 0.84495 0.28239 0.94323 0.0
H475 H 0.78605 0.32225 0.97246 0.0
H476 H 0.8176 0.36436 0.89867 0.0
H477 H 0.91429 0.35249 0.9547 0.0
H478 H 0.93195 0.34123 0.88833 0.0
H479 H 0.90274 0.31194 0.93657 0.0
H480 H 0.87059 0.28247 0.82065 0.0
H481 H 0.89986 0.31162 0.7719 0.0
H482 H 0.86052 0.30292 0.75915 0.0
H483 H 0.85895 0.40575 0.83502 0.0
H484 H 0.90609 0.4418 0.77902 0.0
H485 H 0.93722 0.37476 0.78678 0.0
C486 C 0.83827 0.29955 0.93276 0.0
C487 C 0.81298 0.29893 0.9637 0.0
C488 C 0.80526 0.32211 0.94937 0.0
C489 C 0.82302 0.34617 0.90735 0.0
C490 C 0.84824 0.34658 0.87919 0.0
C491 C 0.85567 0.32369 0.89043 0.0
C492 C 0.88502 0.33065 0.85719 0.0
C493 C 0.90997 0.33431 0.91251 0.0
C494 C 0.8786 0.30541 0.79874 0.0
C495 C 0.89339 0.36149 0.82762 0.0
C496 C 0.87179 0.37021 0.84068 0.0
C497 C 0.87575 0.39894 0.82337 0.0
C498 C 0.90262 0.41938 0.79227 0.0
C499 C 0.92492 0.41084 0.77871 0.0
C500 C 0.92003 0.38139 0.79552 0.0
H501 H 0.85897 0.57482 0.89711 0.0
H502 H 0.83138 0.48984 1.00119 0.0
H503 H 0.86882 0.48147 0.93768 0.0
H504 H 0.86992 0.54649 0.72894 0.0
H505 H 0.90263 0.58367 0.71375 0.0
H506 H 0.87299 0.58215 0.76573 0.0
H507 H 0.9142 0.61455 0.86755 0.0
H508 H 0.94392 0.61581 0.81628 0.0
H509 H 0.93887 0.60071 0.90133 0.0
H510 H 0.91143 0.48432 0.86827 0.0
H511 H 0.95185 0.49456 0.78826 0.0
H512 H 0.95115 0.57726 0.72773 0.0
C513 C 0.8605 0.55422 0.90615 0.0
C514 C 0.84216 0.53292 0.95423 0.0
C515 C 0.84497 0.50633 0.96436 0.0
C516 C 0.86633 0.50152 0.92885 0.0
C517 C 0.88453 0.52342 0.88319 0.0
C518 C 0.88153 0.54902 0.87105 0.0
C519 C 0.90379 0.56905 0.81928 0.0
C520 C 0.88628 0.5704 0.75299 0.0
C521 C 0.92654 0.60198 0.85316 0.0
C522 C 0.91993 0.55077 0.80415 0.0
C523 C 0.9086 0.52469 0.842 0.0
C524 C 0.92013 0.50442 0.83767 0.0
C525 C 0.94316 0.51043 0.79201 0.0
C526 C 0.95455 0.53638 0.75085 0.0
C527 C 0.94301 0.55712 0.75816 0.0
H528 H 0.30418 0.84679 0.00533 0.0
H529 H 0.27425 0.77022 0.84666 0.0
H530 H 0.29783 0.80858 0.75685 0.0
H531 H 0.29074 0.8975 0.90193 0.0
H532 H 0.32435 0.93241 0.94061 0.0
H533 H 0.30494 0.89892 0.99074 0.0
H534 H 0.35559 0.89771 0.01405 0.0
H535 H 0.37529 0.9319 0.9666 0.0
H536 H 0.37687 0.8973 0.94115 0.0
H537 H 0.32547 0.85699 0.68558 0.0
H538 H 0.36233 0.90859 0.64552 0.0
H539 H 0.37228 0.95174 0.8534 0.0
C540 C 0.30278 0.83803 0.95166 0.0
C541 C 0.28757 0.80568 0.93258 0.0
C542 C 0.28625 0.795 0.8622 0.0
C543 C 0.29911 0.81662 0.81096 0.0
C544 C 0.31301 0.84856 0.83148 0.0
C545 C 0.31534 0.85904 0.90066 0.0
C546 C 0.3327 0.89424 0.91124 0.0
C547 C 0.31193 0.90647 0.93769 0.0
C548 C 0.36184 0.90597 0.96114 0.0
C549 C 0.34048 0.90234 0.83723 0.0
C550 C 0.32847 0.87583 0.79138 0.0
C551 C 0.3346 0.87781 0.72096 0.0
C552 C 0.35511 0.9073 0.69824 0.0
C553 C 0.36945 0.93414 0.74614 0.0
C554 C 0.36078 0.93172 0.81535 0.0
H555 H 0.52566 0.34745 0.10582 0.0
H556 H 0.45819 0.25859 0.99752 0.0
H557 H 0.45542 0.28553 0.89537 0.0
H558 H 0.48947 0.38876 0.04865 0.0
H559 H 0.52452 0.42485 0.03899 0.0
H560 H 0.52427 0.39857 0.10089 0.0
H561 H 0.56891 0.39702 0.04185 0.0
H562 H 0.5692 0.42327 0.97955 0.0
H563 H 0.56466 0.38612 0.94934 0.0
H564 H 0.45644 0.32158 0.80841 0.0
H565 H 0.45967 0.365 0.74438 0.0
H566 H 0.52582 0.43134 0.90739 0.0
C567 C 0.51085 0.33372 0.05997 0.0
C568 C 0.49227 0.30087 0.05958 0.0
C569 C 0.4726 0.28376 0.99918 0.0
C570 C 0.47097 0.29883 0.9406 0.0
C571 C 0.48908 0.33119 0.94284 0.0
C572 C 0.50861 0.34855 1.00087 0.0
C573 C 0.52353 0.38327 0.99137 0.0
C574 C 0.51492 0.39983 0.04835 0.0
C575 C 0.55866 0.3983 0.99047 0.0
C576 C 0.50886 0.38256 0.91974 0.0
C577 C 0.48936 0.35223 0.89245 0.0
C578 C 0.4719 0.34547 0.82885 0.0
C579 C 0.47387 0.37031 0.7928 0.0
C580 C 0.49311 0.40165 0.82037 0.0
C581 C 0.51129 0.40772 0.88411 0.0
H582 H 0.19219 0.48237 0.00694 0.0
H583 H 0.16427 0.38408 0.98413 0.0
H584 H 0.12286 0.37486 0.89485 0.0
H585 H 0.11902 0.47138 0.00354 0.0
H586 H 0.12756 0.5052 0.95696 0.0
H587 H 0.15756 0.50459 0.01012 0.0
H588 H 0.19062 0.51592 0.90353 0.0
H589 H 0.16078 0.51687 0.84999 0.0
H590 H 0.17451 0.49087 0.82377 0.0
H591 H 0.0813 0.37636 0.81403 0.0
H592 H 0.04382 0.38845 0.75475 0.0
H593 H 0.09952 0.48498 0.83797 0.0
C594 C 0.17793 0.45899 0.9821 0.0
C595 C 0.18161 0.434 0.00217 0.0
C596 C 0.16199 0.40366 0.96917 0.0
C597 C 0.13843 0.39821 0.91837 0.0
C598 C 0.13493 0.42336 0.90127 0.0
C599 C 0.15432 0.45316 0.93224 0.0
C600 C 0.14443 0.47583 0.91045 0.0
C601 C 0.13667 0.49006 0.97404 0.0
C602 C 0.16905 0.50137 0.86948 0.0
C603 C 0.11596 0.45409 0.86365 0.0
C604 C 0.11091 0.42399 0.85763 0.0
C605 C 0.0852 0.39993 0.81812 0.0
C606 C 0.06406 0.40692 0.78471 0.0
C607 C 0.06866 0.4375 0.79264 0.0
C608 C 0.09517 0.46125 0.83173 0.0
H609 H 0.66413 0.20523 0.93989 0.0
H610 H 0.68664 0.15861 0.09774 0.0
H611 H 0.6456 0.1076 0.04543 0.0
H612 H 0.57914 0.14748 0.91741 0.0
H613 H 0.57664 0.14835 0.8236 0.0
H614 H 0.60412 0.18281 0.87775 0.0
H615 H 0.64945 0.18703 0.81261 0.0
H616 H 0.62285 0.15375 0.7549 0.0
H617 H 0.65457 0.15361 0.80223 0.0
H618 H 0.61083 0.0623 0.96513 0.0
H619 H 0.58154 0.02491 0.86296 0.0
H620 H 0.57872 0.09867 0.75664 0.0
C621 C 0.65943 0.18426 0.96461 0.0
C622 C 0.67795 0.18571 0.0237 0.0
C623 C 0.67219 0.15787 0.05334 0.0
C624 C 0.64894 0.12877 0.02394 0.0
C625 C 0.63163 0.12779 0.96439 0.0
C626 C 0.63631 0.15471 0.93508 0.0
C627 C 0.61685 0.14666 0.86634 0.0
C628 C 0.59273 0.15692 0.87153 0.0
C629 C 0.63715 0.16111 0.80546 0.0
C630 C 0.6018 0.1113 0.8604 0.0
C631 C 0.61047 0.10095 0.91799 0.0
C632 C 0.60298 0.06986 0.92071 0.0
C633 C 0.58651 0.04883 0.86262 0.0
C634 C 0.57747 0.05897 0.8034 0.0
C635 C 0.58462 0.09035 0.80273 0.0
H636 H 0.59805 0.71524 0.96999 0.0
H637 H 0.53855 0.73701 0.84476 0.0
H638 H 0.53776 0.70312 0.74548 0.0
H639 H 0.63826 0.69992 0.81733 0.0
H640 H 0.63712 0.66773 0.85977 0.0
H641 H 0.64196 0.70142 0.9115 0.0
H642 H 0.59458 0.66553 0.97824 0.0
H643 H 0.58966 0.63201 0.92701 0.0
H644 H 0.55824 0.63973 0.92941 0.0
H645 H 0.53301 0.65845 0.67169 0.0
H646 H 0.52185 0.60503 0.63531 0.0
H647 H 0.5828 0.61052 0.80901 0.0
C648 C 0.58627 0.71404 0.92031 0.0
C649 C 0.56879 0.72893 0.91419 0.0
C650 C 0.55234 0.7259 0.84983 0.0
C651 C 0.55196 0.7069 0.79303 0.0
C652 C 0.56809 0.69102 0.80154 0.0
C653 C 0.58513 0.69453 0.86362 0.0
C654 C 0.59506 0.67034 0.86486 0.0
C655 C 0.63019 0.68578 0.86324 0.0
C656 C 0.58367 0.65076 0.92857 0.0
C657 C 0.5788 0.65119 0.79679 0.0
C658 C 0.56445 0.66417 0.75945 0.0
C659 C 0.54482 0.64847 0.6994 0.0
C660 C 0.53859 0.61816 0.67896 0.0
C661 C 0.55144 0.60387 0.71963 0.0
C662 C 0.57289 0.62118 0.77691 0.0
H663 H 0.53165 0.1943 0.30121 0.0
H664 H 0.47386 0.21011 0.43826 0.0
H665 H 0.47165 0.16962 0.51277 0.0
H666 H 0.49019 0.11404 0.29967 0.0
H667 H 0.5226 0.10793 0.29638 0.0
H668 H 0.52465 0.14197 0.26186 0.0
H669 H 0.57393 0.17781 0.34288 0.0
H670 H 0.57232 0.1438 0.37684 0.0
H671 H 0.57346 0.17381 0.43579 0.0
H672 H 0.47195 0.12363 0.56605 0.0
H673 H 0.47453 0.07642 0.59222 0.0
H674 H 0.52919 0.08902 0.41464 0.0
C675 C 0.5198 0.19019 0.3488 0.0
C676 C 0.50395 0.20605 0.36594 0.0
C677 C 0.48699 0.19883 0.42598 0.0
C678 C 0.48548 0.17577 0.46822 0.0
C679 C 0.50065 0.15979 0.44893 0.0
C680 C 0.51758 0.1668 0.39066 0.0
C681 C 0.52883 0.144 0.37659 0.0
C682 C 0.51578 0.12592 0.30437 0.0
C683 C 0.56424 0.16087 0.38347 0.0
C684 C 0.51523 0.12284 0.43523 0.0
C685 C 0.49939 0.13246 0.47708 0.0
C686 C 0.48447 0.11601 0.53379 0.0
C687 C 0.48596 0.08917 0.54819 0.0
C688 C 0.50184 0.07879 0.50536 0.0
C689 C 0.51661 0.09605 0.44829 0.0
H690 H 0.27616 0.43497 0.40276 0.0
H691 H 0.31466 0.44778 0.20108 0.0
H692 H 0.36293 0.45412 0.25628 0.0
H693 H 0.34296 0.49059 0.50054 0.0
H694 H 0.3376 0.46881 0.57641 0.0
H695 H 0.3047 0.46198 0.52081 0.0
H696 H 0.28711 0.40313 0.50291 0.0
H697 H 0.31976 0.4097 0.55935 0.0
H698 H 0.31356 0.39152 0.47205 0.0
H699 H 0.40872 0.46566 0.33394 0.0
H700 H 0.44797 0.47567 0.42936 0.0
H701 H 0.37958 0.45279 0.58068 0.0
C702 C 0.29449 0.43813 0.37044 0.0
C703 C 0.29187 0.44042 0.29792 0.0
C704 C 0.31638 0.44545 0.25676 0.0
C705 C 0.34383 0.4492 0.28758 0.0
C706 C 0.34618 0.44751 0.35952 0.0
C707 C 0.32205 0.44151 0.40042 0.0
C708 C 0.33123 0.44199 0.47691 0.0
C709 C 0.32899 0.46736 0.52124 0.0
C710 C 0.31176 0.40966 0.50441 0.0
C711 C 0.36442 0.45012 0.47256 0.0
C712 C 0.37258 0.4533 0.40436 0.0
C713 C 0.40253 0.46272 0.38751 0.0
C714 C 0.42471 0.46867 0.44192 0.0
C715 C 0.41667 0.46494 0.51193 0.0
C716 C 0.38614 0.45541 0.52731 0.0
H717 H 0.84765 0.33416 0.20018 0.0
H718 H 0.77728 0.31314 0.34507 0.0
H719 H 0.8174 0.35035 0.4359 0.0
H720 H 0.90753 0.34278 0.32116 0.0
H721 H 0.93777 0.3752 0.28144 0.0
H722 H 0.90368 0.34673 0.22889 0.0
H723 H 0.89394 0.39039 0.1882 0.0
H724 H 0.92833 0.41905 0.23945 0.0
H725 H 0.89204 0.41688 0.25272 0.0
H726 H 0.86651 0.38777 0.51257 0.0
H727 H 0.91825 0.42928 0.56151 0.0
H728 H 0.95502 0.42808 0.36187 0.0
C729 C 0.8407 0.3376 0.25095 0.0
C730 C 0.80955 0.32087 0.26615 0.0
C731 C 0.8011 0.32603 0.33263 0.0
C732 C 0.82374 0.34682 0.38452 0.0
C733 C 0.85448 0.36251 0.36827 0.0
C734 C 0.86279 0.35867 0.30242 0.0
C735 C 0.897 0.37938 0.29654 0.0
C736 C 0.91239 0.35985 0.2811 0.0
C737 C 0.90318 0.40282 0.24096 0.0
C738 C 0.90684 0.3955 0.36951 0.0
C739 C 0.88216 0.38504 0.4107 0.0
C740 C 0.8859 0.39628 0.48056 0.0
C741 C 0.9154 0.41961 0.50808 0.0
C742 C 0.94052 0.43182 0.4653 0.0
C743 C 0.93618 0.41914 0.39564 0.0
H744 H 0.51596 0.81922 0.21341 0.0
H745 H 0.59977 0.82317 0.2953 0.0
H746 H 0.60148 0.85526 0.40022 0.0
H747 H 0.53985 0.89725 0.26197 0.0
H748 H 0.5022 0.88992 0.28195 0.0
H749 H 0.50576 0.86418 0.21884 0.0
H750 H 0.47164 0.81717 0.28969 0.0
H751 H 0.46835 0.84297 0.35355 0.0
H752 H 0.48262 0.81791 0.38078 0.0
H753 H 0.59514 0.88906 0.49324 0.0
H754 H 0.58598 0.92765 0.55731 0.0
H755 H 0.50754 0.90301 0.41073 0.0
C756 C 0.53442 0.82639 0.25397 0.0
C757 C 0.55758 0.81848 0.24674 0.0
C758 C 0.58177 0.82896 0.3 0.0
C759 C 0.58275 0.84693 0.35997 0.0
C760 C 0.55946 0.85429 0.36546 0.0
C761 C 0.53596 0.84464 0.31336 0.0
C762 C 0.5156 0.85834 0.32789 0.0
C763 C 0.5159 0.87863 0.26921 0.0
C764 C 0.4826 0.83255 0.33863 0.0
C765 C 0.53172 0.8779 0.39551 0.0
C766 C 0.5565 0.87467 0.41736 0.0
C767 C 0.57568 0.89161 0.47686 0.0
C768 C 0.57017 0.91337 0.51317 0.0
C769 C 0.54608 0.91841 0.48892 0.0
C770 C 0.52605 0.8996 0.43076 0.0
H771 H 0.70636 0.51499 0.19985 0.0
H772 H 0.77396 0.61311 0.2463 0.0
H773 H 0.73756 0.61957 0.31779 0.0
H774 H 0.64191 0.52588 0.17877 0.0
H775 H 0.61551 0.49068 0.21743 0.0
H776 H 0.64766 0.49277 0.17491 0.0
H777 H 0.66619 0.47828 0.28782 0.0
H778 H 0.63386 0.47575 0.33046 0.0
H779 H 0.6725 0.5011 0.36917 0.0
H780 H 0.69358 0.61595 0.38103 0.0
H781 H 0.64482 0.60245 0.4329 0.0
H782 H 0.60444 0.50715 0.34128 0.0
C783 C 0.71369 0.53763 0.22643 0.0
C784 C 0.74312 0.56349 0.21837 0.0
C785 C 0.75159 0.59298 0.25222 0.0
C786 C 0.73107 0.59688 0.29284 0.0
C787 C 0.70199 0.57114 0.29849 0.0
C788 C 0.69323 0.54207 0.26633 0.0
C789 C 0.66002 0.5187 0.27797 0.0
C790 C 0.64011 0.50629 0.20811 0.0
C791 C 0.65804 0.49188 0.3188 0.0
C792 C 0.65154 0.53919 0.32171 0.0
C793 C 0.67616 0.5693 0.33315 0.0
C794 C 0.67412 0.59244 0.37248 0.0
C795 C 0.64627 0.58453 0.40166 0.0
C796 C 0.62067 0.55378 0.39101 0.0
C797 C 0.62342 0.53094 0.3499 0.0
H798 H 0.17519 0.72387 0.26042 0.0
H799 H 0.23 0.6789 0.24247 0.0
H800 H 0.20703 0.65014 0.34643 0.0
H801 H 0.1771 0.73096 0.45162 0.0
H802 H 0.1377 0.72225 0.4506 0.0
H803 H 0.1607 0.74147 0.37974 0.0
H804 H 0.11994 0.69806 0.29002 0.0
H805 H 0.09661 0.67929 0.36036 0.0
H806 H 0.10783 0.6578 0.30208 0.0
H807 H 0.17524 0.62391 0.4471 0.0
H808 H 0.13202 0.59611 0.52139 0.0
H809 H 0.09869 0.65902 0.4741 0.0
C810 C 0.18278 0.7083 0.27869 0.0
C811 C 0.20467 0.70386 0.24355 0.0
C812 C 0.21334 0.68272 0.26851 0.0
C813 C 0.20064 0.66658 0.32796 0.0
C814 C 0.1794 0.67192 0.3618 0.0
C815 C 0.17031 0.69202 0.33733 0.0
C816 C 0.14493 0.6915 0.37819 0.0
C817 C 0.15577 0.72345 0.41736 0.0
C818 C 0.11561 0.68102 0.3298 0.0
C819 C 0.14042 0.66726 0.42872 0.0
C820 C 0.16099 0.65672 0.41944 0.0
C821 C 0.15937 0.63227 0.4555 0.0
C822 C 0.13503 0.61694 0.49847 0.0
C823 C 0.1127 0.62617 0.50534 0.0
C824 C 0.11628 0.65252 0.47248 0.0
loop_
_geom_bond_atom_site_label_1
_geom_bond_atom_site_label_2
_geom_bond_distance
_geom_bond_site_symmetry_2
_ccdc_geom_bond_type
C0 O2 1.247 . S
C0 O4 1.258 . S
C1 O8 1.247 . S
C1 O9 1.258 . S
O2 C0 1.247 . S
O2 Zn3 2.028 . S
Zn3 O2 2.028 . S
Zn3 O7 2.035 . S
Zn3 O9 2.035 . S
Zn3 O10 2.028 . S
O4 C0 1.258 . S
O4 Zn5 2.035 . S
Zn5 O4 2.035 . S
Zn5 O6 2.028 . S
Zn5 O8 2.028 . S
Zn5 O11 2.035 . S
O6 Zn5 2.028 . S
O6 C12 1.247 . S
O7 Zn3 2.035 . S
O7 C12 1.258 . S
O8 C1 1.247 . S
O8 Zn5 2.028 . S
O9 C1 1.258 . S
O9 Zn3 2.035 . S
O10 Zn3 2.028 . S
O10 C13 1.247 . S
O11 Zn5 2.035 . S
O11 C13 1.258 . S
C12 O6 1.247 . S
C12 O7 1.258 . S
C13 O10 1.247 . S
C13 O11 1.258 . S
C14 O16 1.247 . S
C14 O18 1.258 . S
C15 O22 1.247 . S
C15 O23 1.258 . S
O16 C14 1.247 . S
O16 Zn17 2.028 . S
Zn17 O16 2.028 . S
Zn17 O21 2.035 . S
Zn17 O23 2.035 . S
Zn17 O24 2.028 . S
O18 C14 1.258 . S
O18 Zn19 2.035 . S
Zn19 O18 2.035 . S
Zn19 O20 2.028 . S
Zn19 O22 2.028 . S
Zn19 O25 2.035 . S
O20 Zn19 2.028 . S
O20 C26 1.247 . S
O21 Zn17 2.035 . S
O21 C26 1.258 . S
O22 C15 1.247 . S
O22 Zn19 2.028 . S
O23 C15 1.258 . S
O23 Zn17 2.035 . S
O24 Zn17 2.028 . S
O24 C27 1.247 . S
O25 Zn19 2.035 . S
O25 C27 1.258 . S
C26 O20 1.247 . S
C26 O21 1.258 . S
C27 O24 1.247 . S
C27 O25 1.258 . S
C28 O30 1.247 . S
C28 O32 1.258 . S
C29 O36 1.247 . S
C29 O37 1.258 . S
O30 C28 1.247 . S
O30 Zn31 2.028 . S
Zn31 O30 2.028 . S
Zn31 O35 2.035 . S
Zn31 O37 2.035 1_554 S
Zn31 O38 2.028 1_554 S
O32 C28 1.258 . S
O32 Zn33 2.035 . S
Zn33 O32 2.035 . S
Zn33 O34 2.028 . S
Zn33 O36 2.028 1_554 S
Zn33 O39 2.035 1_554 S
O34 Zn33 2.028 . S
O34 C40 1.247 . S
O35 Zn31 2.035 . S
O35 C40 1.258 . S
O36 C29 1.247 . S
O36 Zn33 2.028 1_556 S
O37 C29 1.258 . S
O37 Zn31 2.035 1_556 S
O38 Zn31 2.028 1_556 S
O38 C41 1.247 . S
O39 Zn33 2.035 1_556 S
O39 C41 1.258 . S
C40 O34 1.247 . S
C40 O35 1.258 . S
C41 O38 1.247 . S
C41 O39 1.258 . S
C42 O44 1.247 . S
C42 O46 1.258 . S
C43 O50 1.247 . S
C43 O51 1.258 . S
O44 C42 1.247 . S
O44 Zn45 2.028 1_556 S
Zn45 O44 2.028 1_554 S
Zn45 O49 2.035 1_554 S
Zn45 O51 2.035 . S
Zn45 O52 2.028 . S
O46 C42 1.258 . S
O46 Zn47 2.035 1_556 S
Zn47 O46 2.035 1_554 S
Zn47 O48 2.028 1_554 S
Zn47 O50 2.028 . S
Zn47 O53 2.035 . S
O48 Zn47 2.028 1_556 S
O48 C54 1.247 . S
O49 Zn45 2.035 1_556 S
O49 C54 1.258 . S
O50 C43 1.247 . S
O50 Zn47 2.028 . S
O51 C43 1.258 . S
O51 Zn45 2.035 . S
O52 Zn45 2.028 . S
O52 C55 1.247 . S
O53 Zn47 2.035 . S
O53 C55 1.258 . S
C54 O48 1.247 . S
C54 O49 1.258 . S
C55 O52 1.247 . S
C55 O53 1.258 . S
C56 O58 1.247 . S
C56 O60 1.258 . S
C57 O64 1.247 . S
C57 O65 1.258 . S
O58 C56 1.247 . S
O58 Zn59 2.028 . S
Zn59 O58 2.028 . S
Zn59 O63 2.035 . S
Zn59 O65 2.035 . S
Zn59 O66 2.028 . S
O60 C56 1.258 . S
O60 Zn61 2.035 . S
Zn61 O60 2.035 . S
Zn61 O62 2.028 . S
Zn61 O64 2.028 . S
Zn61 O67 2.035 . S
O62 Zn61 2.028 . S
O62 C68 1.247 . S
O63 Zn59 2.035 . S
O63 C68 1.258 . S
O64 C57 1.247 . S
O64 Zn61 2.028 . S
O65 C57 1.258 . S
O65 Zn59 2.035 . S
O66 Zn59 2.028 . S
O66 C69 1.247 . S
O67 Zn61 2.035 . S
O67 C69 1.258 . S
C68 O62 1.247 . S
C68 O63 1.258 . S
C69 O66 1.247 . S
C69 O67 1.258 . S
C70 O72 1.247 . S
C70 O74 1.258 . S
C71 O78 1.247 . S
C71 O79 1.258 . S
O72 C70 1.247 . S
O72 Zn73 2.028 . S
Zn73 O72 2.028 . S
Zn73 O77 2.035 . S
Zn73 O79 2.035 . S
Zn73 O80 2.028 . S
O74 C70 1.258 . S
O74 Zn75 2.035 . S
Zn75 O74 2.035 . S
Zn75 O76 2.028 . S
Zn75 O78 2.028 . S
Zn75 O81 2.035 . S
O76 Zn75 2.028 . S
O76 C82 1.247 . S
O77 Zn73 2.035 . S
O77 C82 1.258 . S
O78 C71 1.247 . S
O78 Zn75 2.028 . S
O79 C71 1.258 . S
O79 Zn73 2.035 . S
O80 Zn73 2.028 . S
O80 C83 1.247 . S
O81 Zn75 2.035 . S
O81 C83 1.258 . S
C82 O76 1.247 . S
C82 O77 1.258 . S
C83 O80 1.247 . S
C83 O81 1.258 . S
C84 O111 1.312 . S
C84 O112 1.208 . S
C85 O106 1.331 . S
C85 O109 1.244 . S
C86 O108 1.264 . S
C86 O110 1.273 . S
Mg87 O89 1.936 1_455 S
Mg87 O96 2.081 1_455 S
Mg87 O98 2.023 . S
Mg87 O102 2.031 1_455 S
Mg87 O111 2.291 . S
Mg88 O89 1.963 . S
Mg88 O99 1.942 . S
Mg88 O100 1.955 1_655 S
Mg88 O107 1.986 . S
O89 Mg87 1.936 1_655 S
O89 Mg88 1.963 . S
O89 Mg90 1.915 1_655 S
Mg90 O89 1.915 1_455 S
Mg90 O91 1.915 . S
Mg90 O95 2.013 . S
Mg90 O101 2.114 1_455 S
Mg90 O105 2.013 1_455 S
Mg90 O111 2.114 . S
O91 Mg90 1.915 . S
O91 Mg92 1.936 . S
O91 Mg93 1.963 . S
Mg92 O91 1.936 . S
Mg92 O101 2.291 1_455 S
Mg92 O106 2.081 . S
Mg92 O108 2.023 1_455 S
Mg92 O112 2.031 . S
Mg93 O91 1.963 . S
Mg93 O97 1.986 . S
Mg93 O109 1.942 . S
Mg93 O110 1.955 1_455 S
C94 O105 1.191 . S
C94 O107 1.307 . S
O95 Mg90 2.013 . S
O95 C114 1.191 . S
O96 Mg87 2.081 1_655 S
O96 C104 1.331 . S
O97 Mg93 1.986 . S
O97 C114 1.307 . S
O98 Mg87 2.023 . S
O98 C113 1.264 . S
O99 Mg88 1.942 . S
O99 C104 1.244 . S
O100 Mg88 1.955 1_455 S
O100 C113 1.273 . S
O101 Mg90 2.114 1_655 S
O101 Mg92 2.291 1_655 S
O101 C103 1.312 . S
O102 Mg87 2.031 1_655 S
O102 C103 1.208 . S
C103 O101 1.312 . S
C103 O102 1.208 . S
C104 O96 1.331 . S
C104 O99 1.244 . S
O105 Mg90 2.013 1_655 S
O105 C94 1.191 . S
O106 C85 1.331 . S
O106 Mg92 2.081 . S
O107 Mg88 1.986 . S
O107 C94 1.307 . S
O108 C86 1.264 . S
O108 Mg92 2.023 1_655 S
O109 C85 1.244 . S
O109 Mg93 1.942 . S
O110 C86 1.273 . S
O110 Mg93 1.955 1_655 S
O111 C84 1.312 . S
O111 Mg87 2.291 . S
O111 Mg90 2.114 . S
O112 C84 1.208 . S
O112 Mg92 2.031 . S
C113 O98 1.264 . S
C113 O100 1.273 . S
C114 O95 1.191 . S
C114 O97 1.307 . S
C115 O142 1.312 . S
C115 O143 1.208 . S
C116 O137 1.331 . S
C116 O140 1.244 . S
C117 O139 1.264 . S
C117 O141 1.273 . S
Mg118 O120 1.936 1_545 S
Mg118 O127 2.081 1_545 S
Mg118 O129 2.023 . S
Mg118 O133 2.031 1_545 S
Mg118 O142 2.291 . S
Mg119 O120 1.963 . S
Mg119 O130 1.942 . S
Mg119 O131 1.955 1_565 S
Mg119 O138 1.986 . S
O120 Mg118 1.936 1_565 S
O120 Mg119 1.963 . S
O120 Mg121 1.915 1_565 S
Mg121 O120 1.915 1_545 S
Mg121 O122 1.915 . S
Mg121 O126 2.013 . S
Mg121 O132 2.114 1_545 S
Mg121 O136 2.013 1_545 S
Mg121 O142 2.114 . S
O122 Mg121 1.915 . S
O122 Mg123 1.936 . S
O122 Mg124 1.963 . S
Mg123 O122 1.936 . S
Mg123 O132 2.291 1_545 S
Mg123 O137 2.081 . S
Mg123 O139 2.023 1_545 S
Mg123 O143 2.031 . S
Mg124 O122 1.963 . S
Mg124 O128 1.986 . S
Mg124 O140 1.942 . S
Mg124 O141 1.955 1_545 S
C125 O136 1.191 . S
C125 O138 1.307 . S
O126 Mg121 2.013 . S
O126 C145 1.191 . S
O127 Mg118 2.081 1_565 S
O127 C135 1.331 . S
O128 Mg124 1.986 . S
O128 C145 1.307 . S
O129 Mg118 2.023 . S
O129 C144 1.264 . S
O130 Mg119 1.942 . S
O130 C135 1.244 . S
O131 Mg119 1.955 1_545 S
O131 C144 1.273 . S
O132 Mg121 2.114 1_565 S
O132 Mg123 2.291 1_565 S
O132 C134 1.312 . S
O133 Mg118 2.031 1_565 S
O133 C134 1.208 . S
C134 O132 1.312 . S
C134 O133 1.208 . S
C135 O127 1.331 . S
C135 O130 1.244 . S
O136 Mg121 2.013 1_565 S
O136 C125 1.191 . S
O137 C116 1.331 . S
O137 Mg123 2.081 . S
O138 Mg119 1.986 . S
O138 C125 1.307 . S
O139 C117 1.264 . S
O139 Mg123 2.023 1_565 S
O140 C116 1.244 . S
O140 Mg124 1.942 . S
O141 C117 1.273 . S
O141 Mg124 1.955 1_565 S
O142 C115 1.312 . S
O142 Mg118 2.291 . S
O142 Mg121 2.114 . S
O143 C115 1.208 . S
O143 Mg123 2.031 . S
C144 O129 1.264 . S
C144 O131 1.273 . S
C145 O126 1.191 . S
C145 O128 1.307 . S
C146 O173 1.312 . S
C146 O174 1.208 . S
C147 O168 1.331 . S
C147 O171 1.244 . S
C148 O170 1.264 . S
C148 O172 1.273 . S
Mg149 O151 1.936 . S
Mg149 O158 2.081 . S
Mg149 O160 2.023 . S
Mg149 O164 2.031 . S
Mg149 O173 2.291 . S
Mg150 O151 1.963 . S
Mg150 O161 1.942 . S
Mg150 O162 1.955 . S
Mg150 O169 1.986 . S
O151 Mg149 1.936 . S
O151 Mg150 1.963 . S
O151 Mg152 1.915 . S
Mg152 O151 1.915 . S
Mg152 O153 1.915 . S
Mg152 O157 2.013 . S
Mg152 O163 2.114 . S
Mg152 O167 2.013 . S
Mg152 O173 2.114 . S
O153 Mg152 1.915 . S
O153 Mg154 1.936 . S
O153 Mg155 1.963 . S
Mg154 O153 1.936 . S
Mg154 O163 2.291 . S
Mg154 O168 2.081 . S
Mg154 O170 2.023 . S
Mg154 O174 2.031 . S
Mg155 O153 1.963 . S
Mg155 O159 1.986 . S
Mg155 O171 1.942 . S
Mg155 O172 1.955 . S
C156 O167 1.191 . S
C156 O169 1.307 . S
O157 Mg152 2.013 . S
O157 C176 1.191 . S
O158 Mg149 2.081 . S
O158 C166 1.331 . S
O159 Mg155 1.986 . S
O159 C176 1.307 . S
O160 Mg149 2.023 . S
O160 C175 1.264 . S
O161 Mg150 1.942 . S
O161 C166 1.244 . S
O162 Mg150 1.955 . S
O162 C175 1.273 . S
O163 Mg152 2.114 . S
O163 Mg154 2.291 . S
O163 C165 1.312 . S
O164 Mg149 2.031 . S
O164 C165 1.208 . S
C165 O163 1.312 . S
C165 O164 1.208 . S
C166 O158 1.331 . S
C166 O161 1.244 . S
O167 Mg152 2.013 . S
O167 C156 1.191 . S
O168 C147 1.331 . S
O168 Mg154 2.081 . S
O169 Mg150 1.986 . S
O169 C156 1.307 . S
O170 C148 1.264 . S
O170 Mg154 2.023 . S
O171 C147 1.244 . S
O171 Mg155 1.942 . S
O172 C148 1.273 . S
O172 Mg155 1.955 . S
O173 C146 1.312 . S
O173 Mg149 2.291 . S
O173 Mg152 2.114 . S
O174 C146 1.208 . S
O174 Mg154 2.031 . S
C175 O160 1.264 . S
C175 O162 1.273 . S
C176 O157 1.191 . S
C176 O159 1.307 . S
H177 C189 0.930 . S
H178 C191 0.930 . S
H179 C192 0.930 . S
H180 C196 0.959 . S
H181 C196 0.959 . S
H182 C196 0.961 . S
H183 C197 0.960 . S
H184 C197 0.961 . S
H185 C197 0.959 . S
H186 C200 0.929 . S
H187 C201 0.931 . S
H188 C203 0.930 . S
C189 H177 0.930 . S
C189 C190 1.399 . S
C189 C194 1.399 . S
C190 C189 1.399 . S
C190 C191 1.376 . S
C191 H178 0.930 . S
C191 C190 1.376 . S
C191 C192 1.388 . S
C192 H179 0.930 . S
C192 C191 1.388 . S
C192 C193 1.390 . S
C193 C192 1.390 . S
C193 C194 1.394 . S
C193 C199 1.465 . S
C194 C189 1.399 . S
C194 C193 1.394 . S
C194 C195 1.516 . S
C195 C194 1.516 . S
C195 C196 1.502 . S
C195 C197 1.561 . S
C195 C198 1.526 . S
C196 H180 0.959 . S
C196 H181 0.959 . S
C196 H182 0.961 . S
C196 C195 1.502 . S
C197 H183 0.960 . S
C197 H184 0.961 . S
C197 H185 0.959 . S
C197 C195 1.561 . S
C198 C195 1.526 . S
C198 C199 1.396 . S
C198 C203 1.390 . S
C199 C193 1.465 . S
C199 C198 1.396 . S
C199 C200 1.399 . S
C200 H186 0.929 . S
C200 C199 1.399 . S
C200 C201 1.385 . S
C201 H187 0.931 . S
C201 C200 1.385 . S
C201 C202 1.389 . S
C202 C201 1.389 . S
C202 C203 1.387 . S
C203 H188 0.930 . S
C203 C198 1.390 . S
C203 C202 1.387 . S
H204 C216 0.930 . S
H205 C218 0.930 . S
H206 C219 0.930 . S
H207 C223 0.959 . S
H208 C223 0.959 . S
H209 C223 0.961 . S
H210 C224 0.960 . S
H211 C224 0.961 . S
H212 C224 0.959 . S
H213 C227 0.929 . S
H214 C228 0.931 . S
H215 C230 0.930 . S
C216 H204 0.930 . S
C216 C217 1.399 . S
C216 C221 1.399 . S
C217 C216 1.399 . S
C217 C218 1.376 . S
C218 H205 0.930 . S
C218 C217 1.376 . S
C218 C219 1.388 . S
C219 H206 0.930 . S
C219 C218 1.388 . S
C219 C220 1.390 . S
C220 C219 1.390 . S
C220 C221 1.394 . S
C220 C226 1.465 . S
C221 C216 1.399 . S
C221 C220 1.394 . S
C221 C222 1.516 . S
C222 C221 1.516 . S
C222 C223 1.502 . S
C222 C224 1.561 . S
C222 C225 1.526 . S
C223 H207 0.959 . S
C223 H208 0.959 . S
C223 H209 0.961 . S
C223 C222 1.502 . S
C224 H210 0.960 . S
C224 H211 0.961 . S
C224 H212 0.959 . S
C224 C222 1.561 . S
C225 C222 1.526 . S
C225 C226 1.396 . S
C225 C230 1.390 . S
C226 C220 1.465 . S
C226 C225 1.396 . S
C226 C227 1.399 . S
C227 H213 0.929 . S
C227 C226 1.399 . S
C227 C228 1.385 . S
C228 H214 0.931 . S
C228 C227 1.385 . S
C228 C229 1.389 . S
C229 C228 1.389 . S
C229 C230 1.387 . S
C230 H215 0.930 . S
C230 C225 1.390 . S
C230 C229 1.387 . S
H231 C243 0.930 . S
H232 C245 0.930 . S
H233 C246 0.930 . S
H234 C250 0.959 . S
H235 C250 0.959 . S
H236 C250 0.961 . S
H237 C251 0.960 . S
H238 C251 0.961 . S
H239 C251 0.959 . S
H240 C254 0.929 . S
H241 C255 0.931 . S
H242 C257 0.930 . S
C243 H231 0.930 . S
C243 C244 1.399 . S
C243 C248 1.399 . S
C244 C243 1.399 . S
C244 C245 1.376 . S
C245 H232 0.930 . S
C245 C244 1.376 . S
C245 C246 1.388 . S
C246 H233 0.930 . S
C246 C245 1.388 . S
C246 C247 1.390 . S
C247 C246 1.390 . S
C247 C248 1.394 . S
C247 C253 1.465 . S
C248 C243 1.399 . S
C248 C247 1.394 . S
C248 C249 1.516 . S
C249 C248 1.516 . S
C249 C250 1.502 . S
C249 C251 1.561 . S
C249 C252 1.526 . S
C250 H234 0.959 . S
C250 H235 0.959 . S
C250 H236 0.961 . S
C250 C249 1.502 . S
C251 H237 0.960 . S
C251 H238 0.961 . S
C251 H239 0.959 . S
C251 C249 1.561 . S
C252 C249 1.526 . S
C252 C253 1.396 . S
C252 C257 1.390 . S
C253 C247 1.465 . S
C253 C252 1.396 . S
C253 C254 1.399 . S
C254 H240 0.929 . S
C254 C253 1.399 . S
C254 C255 1.385 . S
C255 H241 0.931 . S
C255 C254 1.385 . S
C255 C256 1.389 . S
C256 C255 1.389 . S
C256 C257 1.387 . S
C257 H242 0.930 . S
C257 C252 1.390 . S
C257 C256 1.387 . S
H258 C270 0.930 . S
H259 C272 0.930 . S
H260 C273 0.930 . S
H261 C277 0.959 . S
H262 C277 0.959 . S
H263 C277 0.961 . S
H264 C278 0.960 . S
H265 C278 0.961 . S
H266 C278 0.959 . S
H267 C281 0.929 . S
H268 C282 0.931 . S
H269 C284 0.930 . S
C270 H258 0.930 . S
C270 C271 1.399 . S
C270 C275 1.399 . S
C271 C270 1.399 . S
C271 C272 1.376 . S
C272 H259 0.930 . S
C272 C271 1.376 . S
C272 C273 1.388 . S
C273 H260 0.930 . S
C273 C272 1.388 . S
C273 C274 1.390 . S
C274 C273 1.390 . S
C274 C275 1.394 . S
C274 C280 1.465 . S
C275 C270 1.399 . S
C275 C274 1.394 . S
C275 C276 1.516 . S
C276 C275 1.516 . S
C276 C277 1.502 . S
C276 C278 1.561 . S
C276 C279 1.526 . S
C277 H261 0.959 . S
C277 H262 0.959 . S
C277 H263 0.961 . S
C277 C276 1.502 . S
C278 H264 0.960 . S
C278 H265 0.961 . S
C278 H266 0.959 . S
C278 C276 1.561 . S
C279 C276 1.526 . S
C279 C280 1.396 . S
C279 C284 1.390 . S
C280 C274 1.465 . S
C280 C279 1.396 . S
C280 C281 1.399 . S
C281 H267 0.929 . S
C281 C280 1.399 . S
C281 C282 1.385 . S
C282 H268 0.931 . S
C282 C281 1.385 . S
C282 C283 1.389 . S
C283 C282 1.389 . S
C283 C284 1.387 . S
C284 H269 0.930 . S
C284 C279 1.390 . S
C284 C283 1.387 . S
H285 C297 0.930 . S
H286 C299 0.930 . S
H287 C300 0.930 . S
H288 C304 0.959 . S
H289 C304 0.959 . S
H290 C304 0.961 . S
H291 C305 0.960 . S
H292 C305 0.961 . S
H293 C305 0.959 . S
H294 C308 0.929 . S
H295 C309 0.931 . S
H296 C311 0.930 . S
C297 H285 0.930 . S
C297 C298 1.399 . S
C297 C302 1.399 . S
C298 C297 1.399 . S
C298 C299 1.376 . S
C299 H286 0.930 . S
C299 C298 1.376 . S
C299 C300 1.388 . S
C300 H287 0.930 . S
C300 C299 1.388 . S
C300 C301 1.390 . S
C301 C300 1.390 . S
C301 C302 1.394 . S
C301 C307 1.465 . S
C302 C297 1.399 . S
C302 C301 1.394 . S
C302 C303 1.516 . S
C303 C302 1.516 . S
C303 C304 1.502 . S
C303 C305 1.561 . S
C303 C306 1.526 . S
C304 H288 0.959 . S
C304 H289 0.959 . S
C304 H290 0.961 . S
C304 C303 1.502 . S
C305 H291 0.960 . S
C305 H292 0.961 . S
C305 H293 0.959 . S
C305 C303 1.561 . S
C306 C303 1.526 . S
C306 C307 1.396 . S
C306 C311 1.390 . S
C307 C301 1.465 . S
C307 C306 1.396 . S
C307 C308 1.399 . S
C308 H294 0.929 . S
C308 C307 1.399 . S
C308 C309 1.385 . S
C309 H295 0.931 . S
C309 C308 1.385 . S
C309 C310 1.389 . S
C310 C309 1.389 . S
C310 C311 1.387 . S
C311 H296 0.930 . S
C311 C306 1.390 . S
C311 C310 1.387 . S
H312 C324 0.930 . S
H313 C326 0.930 . S
H314 C327 0.930 . S
H315 C331 0.959 . S
H316 C331 0.959 . S
H317 C331 0.961 . S
H318 C332 0.960 . S
H319 C332 0.961 . S
H320 C332 0.959 . S
H321 C335 0.929 . S
H322 C336 0.931 . S
H323 C338 0.930 . S
C324 H312 0.930 . S
C324 C325 1.399 . S
C324 C329 1.399 . S
C325 C324 1.399 . S
C325 C326 1.376 . S
C326 H313 0.930 . S
C326 C325 1.376 . S
C326 C327 1.388 . S
C327 H314 0.930 . S
C327 C326 1.388 . S
C327 C328 1.390 . S
C328 C327 1.390 . S
C328 C329 1.394 . S
C328 C334 1.465 . S
C329 C324 1.399 . S
C329 C328 1.394 . S
C329 C330 1.516 . S
C330 C329 1.516 . S
C330 C331 1.502 . S
C330 C332 1.561 . S
C330 C333 1.526 . S
C331 H315 0.959 . S
C331 H316 0.959 . S
C331 H317 0.961 . S
C331 C330 1.502 . S
C332 H318 0.960 . S
C332 H319 0.961 . S
C332 H320 0.959 . S
C332 C330 1.561 . S
C333 C330 1.526 . S
C333 C334 1.396 . S
C333 C338 1.390 . S
C334 C328 1.465 . S
C334 C333 1.396 . S
C334 C335 1.399 . S
C335 H321 0.929 . S
C335 C334 1.399 . S
C335 C336 1.385 . S
C336 H322 0.931 . S
C336 C335 1.385 . S
C336 C337 1.389 . S
C337 C336 1.389 . S
C337 C338 1.387 . S
C338 H323 0.930 . S
C338 C333 1.390 . S
C338 C337 1.387 . S
H339 C351 0.930 . S
H340 C353 0.930 . S
H341 C354 0.930 . S
H342 C358 0.959 . S
H343 C358 0.959 . S
H344 C358 0.961 . S
H345 C359 0.960 . S
H346 C359 0.961 . S
H347 C359 0.959 . S
H348 C362 0.929 . S
H349 C363 0.931 . S
H350 C365 0.930 . S
C351 H339 0.930 . S
C351 C352 1.399 . S
C351 C356 1.399 . S
C352 C351 1.399 . S
C352 C353 1.376 . S
C353 H340 0.930 . S
C353 C352 1.376 . S
C353 C354 1.388 . S
C354 H341 0.930 . S
C354 C353 1.388 . S
C354 C355 1.390 . S
C355 C354 1.390 . S
C355 C356 1.394 . S
C355 C361 1.465 . S
C356 C351 1.399 . S
C356 C355 1.394 . S
C356 C357 1.516 . S
C357 C356 1.516 . S
C357 C358 1.502 . S
C357 C359 1.561 . S
C357 C360 1.526 . S
C358 H342 0.959 . S
C358 H343 0.959 . S
C358 H344 0.961 . S
C358 C357 1.502 . S
C359 H345 0.960 . S
C359 H346 0.961 . S
C359 H347 0.959 . S
C359 C357 1.561 . S
C360 C357 1.526 . S
C360 C361 1.396 . S
C360 C365 1.390 . S
C361 C355 1.465 . S
C361 C360 1.396 . S
C361 C362 1.399 . S
C362 H348 0.929 . S
C362 C361 1.399 . S
C362 C363 1.385 . S
C363 H349 0.931 . S
C363 C362 1.385 . S
C363 C364 1.389 . S
C364 C363 1.389 . S
C364 C365 1.387 . S
C365 H350 0.930 . S
C365 C360 1.390 . S
C365 C364 1.387 . S
H366 C378 0.930 . S
H367 C380 0.930 . S
H368 C381 0.930 . S
H369 C385 0.959 . S
H370 C385 0.959 . S
H371 C385 0.961 . S
H372 C386 0.960 . S
H373 C386 0.961 . S
H374 C386 0.959 . S
H375 C389 0.929 . S
H376 C390 0.931 . S
H377 C392 0.930 . S
C378 H366 0.930 . S
C378 C379 1.399 . S
C378 C383 1.399 . S
C379 C378 1.399 . S
C379 C380 1.376 . S
C380 H367 0.930 . S
C380 C379 1.376 . S
C380 C381 1.388 . S
C381 H368 0.930 . S
C381 C380 1.388 . S
C381 C382 1.390 . S
C382 C381 1.390 . S
C382 C383 1.394 . S
C382 C388 1.465 . S
C383 C378 1.399 . S
C383 C382 1.394 . S
C383 C384 1.516 . S
C384 C383 1.516 . S
C384 C385 1.502 . S
C384 C386 1.561 . S
C384 C387 1.526 . S
C385 H369 0.959 . S
C385 H370 0.959 . S
C385 H371 0.961 . S
C385 C384 1.502 . S
C386 H372 0.960 . S
C386 H373 0.961 . S
C386 H374 0.959 . S
C386 C384 1.561 . S
C387 C384 1.526 . S
C387 C388 1.396 . S
C387 C392 1.390 . S
C388 C382 1.465 . S
C388 C387 1.396 . S
C388 C389 1.399 . S
C389 H375 0.929 . S
C389 C388 1.399 . S
C389 C390 1.385 . S
C390 H376 0.931 . S
C390 C389 1.385 . S
C390 C391 1.389 . S
C391 C390 1.389 . S
C391 C392 1.387 . S
C392 H377 0.930 . S
C392 C387 1.390 . S
C392 C391 1.387 . S
H393 C405 0.930 . S
H394 C407 0.930 . S
H395 C408 0.930 . S
H396 C412 0.959 . S
H397 C412 0.959 . S
H398 C412 0.961 . S
H399 C413 0.960 . S
H400 C413 0.961 . S
H401 C413 0.959 . S
H402 C416 0.929 . S
H403 C417 0.931 . S
H404 C419 0.930 . S
C405 H393 0.930 . S
C405 C406 1.399 . S
C405 C410 1.399 . S
C406 C405 1.399 . S
C406 C407 1.376 1_556 S
C407 H394 0.930 . S
C407 C406 1.376 1_554 S
C407 C408 1.388 1_554 S
C408 H395 0.930 . S
C408 C407 1.388 1_556 S
C408 C409 1.390 . S
C409 C408 1.390 . S
C409 C410 1.394 . S
C409 C415 1.465 . S
C410 C405 1.399 . S
C410 C409 1.394 . S
C410 C411 1.516 . S
C411 C410 1.516 . S
C411 C412 1.502 . S
C411 C413 1.561 . S
C411 C414 1.526 . S
C412 H396 0.959 . S
C412 H397 0.959 . S
C412 H398 0.961 . S
C412 C411 1.502 . S
C413 H399 0.960 . S
C413 H400 0.961 . S
C413 H401 0.959 . S
C413 C411 1.561 . S
C414 C411 1.526 . S
C414 C415 1.396 . S
C414 C419 1.390 . S
C415 C409 1.465 . S
C415 C414 1.396 . S
C415 C416 1.399 . S
C416 H402 0.929 . S
C416 C415 1.399 . S
C416 C417 1.385 . S
C417 H403 0.931 . S
C417 C416 1.385 . S
C417 C418 1.389 . S
C418 C417 1.389 . S
C418 C419 1.387 . S
C419 H404 0.930 . S
C419 C414 1.390 . S
C419 C418 1.387 . S
H420 C432 0.930 . S
H421 C434 0.930 . S
H422 C435 0.930 . S
H423 C439 0.959 . S
H424 C439 0.959 . S
H425 C439 0.961 . S
H426 C440 0.960 . S
H427 C440 0.961 . S
H428 C440 0.959 . S
H429 C443 0.929 . S
H430 C444 0.931 . S
H431 C446 0.930 . S
C432 H420 0.930 . S
C432 C433 1.399 1_556 S
C432 C437 1.399 . S
C433 C432 1.399 1_554 S
C433 C434 1.376 . S
C434 H421 0.930 . S
C434 C433 1.376 . S
C434 C435 1.388 . S
C435 H422 0.930 . S
C435 C434 1.388 . S
C435 C436 1.390 1_554 S
C436 C435 1.390 1_556 S
C436 C437 1.394 . S
C436 C442 1.465 . S
C437 C432 1.399 . S
C437 C436 1.394 . S
C437 C438 1.516 . S
C438 C437 1.516 . S
C438 C439 1.502 . S
C438 C440 1.561 . S
C438 C441 1.526 . S
C439 H423 0.959 . S
C439 H424 0.959 . S
C439 H425 0.961 . S
C439 C438 1.502 . S
C440 H426 0.960 . S
C440 H427 0.961 . S
C440 H428 0.959 . S
C440 C438 1.561 . S
C441 C438 1.526 . S
C441 C442 1.396 . S
C441 C446 1.390 . S
C442 C436 1.465 . S
C442 C441 1.396 . S
C442 C443 1.399 . S
C443 H429 0.929 . S
C443 C442 1.399 . S
C443 C444 1.385 . S
C444 H430 0.931 . S
C444 C443 1.385 . S
C444 C445 1.389 . S
C445 C444 1.389 . S
C445 C446 1.387 . S
C446 H431 0.930 . S
C446 C441 1.390 . S
C446 C445 1.387 . S
H447 C459 0.930 . S
H448 C461 0.930 . S
H449 C462 0.930 . S
H450 C466 0.959 . S
H451 C466 0.959 . S
H452 C466 0.961 . S
H453 C467 0.960 . S
H454 C467 0.961 . S
H455 C467 0.959 . S
H456 C470 0.929 . S
H457 C471 0.931 . S
H458 C473 0.930 . S
C459 H447 0.930 . S
C459 C460 1.399 . S
C459 C464 1.399 . S
C460 C459 1.399 . S
C460 C461 1.376 . S
C461 H448 0.930 . S
C461 C460 1.376 . S
C461 C462 1.388 1_554 S
C462 H449 0.930 . S
C462 C461 1.388 1_556 S
C462 C463 1.390 . S
C463 C462 1.390 . S
C463 C464 1.394 1_556 S
C463 C469 1.465 . S
C464 C459 1.399 . S
C464 C463 1.394 1_554 S
C464 C465 1.516 1_554 S
C465 C464 1.516 1_556 S
C465 C466 1.502 1_556 S
C465 C467 1.561 . S
C465 C468 1.526 . S
C466 H450 0.959 . S
C466 H451 0.959 . S
C466 H452 0.961 . S
C466 C465 1.502 1_554 S
C467 H453 0.960 . S
C467 H454 0.961 . S
C467 H455 0.959 . S
C467 C465 1.561 . S
C468 C465 1.526 . S
C468 C469 1.396 . S
C468 C473 1.390 . S
C469 C463 1.465 . S
C469 C468 1.396 . S
C469 C470 1.399 . S
C470 H456 0.929 . S
C470 C469 1.399 . S
C470 C471 1.385 . S
C471 H457 0.931 . S
C471 C470 1.385 . S
C471 C472 1.389 . S
C472 C471 1.389 . S
C472 C473 1.387 . S
C473 H458 0.930 . S
C473 C468 1.390 . S
C473 C472 1.387 . S
H474 C486 0.930 . S
H475 C488 0.930 . S
H476 C489 0.930 . S
H477 C493 0.959 . S
H478 C493 0.959 . S
H479 C493 0.961 . S
H480 C494 0.960 . S
H481 C494 0.961 . S
H482 C494 0.959 . S
H483 C497 0.929 . S
H484 C498 0.931 . S
H485 C500 0.930 . S
C486 H474 0.930 . S
C486 C487 1.399 . S
C486 C491 1.399 . S
C487 C486 1.399 . S
C487 C488 1.376 1_556 S
C488 H475 0.930 . S
C488 C487 1.376 1_554 S
C488 C489 1.388 . S
C489 H476 0.930 . S
C489 C488 1.388 . S
C489 C490 1.390 1_554 S
C490 C489 1.390 1_556 S
C490 C491 1.394 . S
C490 C496 1.465 . S
C491 C486 1.399 . S
C491 C490 1.394 . S
C491 C492 1.516 . S
C492 C491 1.516 . S
C492 C493 1.502 . S
C492 C494 1.561 . S
C492 C495 1.526 . S
C493 H477 0.959 . S
C493 H478 0.959 . S
C493 H479 0.961 . S
C493 C492 1.502 . S
C494 H480 0.960 . S
C494 H481 0.961 . S
C494 H482 0.959 . S
C494 C492 1.561 . S
C495 C492 1.526 . S
C495 C496 1.396 . S
C495 C500 1.390 . S
C496 C490 1.465 . S
C496 C495 1.396 . S
C496 C497 1.399 . S
C497 H483 0.929 . S
C497 C496 1.399 . S
C497 C498 1.385 . S
C498 H484 0.931 . S
C498 C497 1.385 . S
C498 C499 1.389 . S
C499 C498 1.389 . S
C499 C500 1.387 . S
C500 H485 0.930 . S
C500 C495 1.390 . S
C500 C499 1.387 . S
H501 C513 0.930 . S
H502 C515 0.944 . S
H503 C516 0.930 . S
H504 C520 0.959 . S
H505 C520 0.959 . S
H506 C520 0.961 . S
H507 C521 0.960 . S
H508 C521 0.961 . S
H509 C521 0.959 . S
H510 C524 0.929 . S
H511 C525 0.931 . S
H512 C527 0.930 . S
C513 H501 0.930 . S
C513 C514 1.399 . S
C513 C518 1.399 . S
C514 C513 1.399 . S
C514 C515 1.376 . S
C515 H502 0.944 . S
C515 C514 1.376 . S
C515 C516 1.388 . S
C516 H503 0.930 . S
C516 C515 1.388 . S
C516 C517 1.390 . S
C517 C516 1.390 . S
C517 C518 1.394 . S
C517 C523 1.465 . S
C518 C513 1.399 . S
C518 C517 1.394 . S
C518 C519 1.516 . S
C519 C518 1.516 . S
C519 C520 1.502 . S
C519 C521 1.561 . S
C519 C522 1.526 . S
C520 H504 0.959 . S
C520 H505 0.959 . S
C520 H506 0.961 . S
C520 C519 1.502 . S
C521 H507 0.960 . S
C521 H508 0.961 . S
C521 H509 0.959 . S
C521 C519 1.561 . S
C522 C519 1.526 . S
C522 C523 1.396 . S
C522 C527 1.390 . S
C523 C517 1.465 . S
C523 C522 1.396 . S
C523 C524 1.399 . S
C524 H510 0.929 . S
C524 C523 1.399 . S
C524 C525 1.385 . S
C525 H511 0.931 . S
C525 C524 1.385 . S
C525 C526 1.389 . S
C526 C525 1.389 . S
C526 C527 1.387 . S
C527 H512 0.930 . S
C527 C522 1.390 . S
C527 C526 1.387 . S
H528 C540 0.930 . S
H529 C542 0.930 . S
H530 C543 0.930 . S
H531 C547 0.959 . S
H532 C547 0.959 . S
H533 C547 0.961 . S
H534 C548 0.960 . S
H535 C548 0.961 . S
H536 C548 0.959 . S
H537 C551 0.929 . S
H538 C552 0.931 . S
H539 C554 0.930 . S
C540 H528 0.930 . S
C540 C541 1.399 1_554 S
C540 C545 1.399 1_554 S
C541 C540 1.399 1_556 S
C541 C542 1.376 . S
C542 H529 0.930 . S
C542 C541 1.376 . S
C542 C543 1.388 . S
C543 H530 0.930 . S
C543 C542 1.388 . S
C543 C544 1.390 . S
C544 C543 1.390 . S
C544 C545 1.394 . S
C544 C550 1.465 . S
C545 C540 1.399 1_556 S
C545 C544 1.394 . S
C545 C546 1.516 . S
C546 C545 1.516 . S
C546 C547 1.502 . S
C546 C548 1.561 1_556 S
C546 C549 1.526 . S
C547 H531 0.959 . S
C547 H532 0.959 . S
C547 H533 0.961 . S
C547 C546 1.502 . S
C548 H534 0.960 . S
C548 H535 0.961 . S
C548 H536 0.959 . S
C548 C546 1.561 1_554 S
C549 C546 1.526 . S
C549 C550 1.396 . S
C549 C554 1.390 . S
C550 C544 1.465 . S
C550 C549 1.396 . S
C550 C551 1.399 . S
C551 H537 0.929 . S
C551 C550 1.399 . S
C551 C552 1.385 . S
C552 H538 0.931 . S
C552 C551 1.385 . S
C552 C553 1.389 . S
C553 C552 1.389 . S
C553 C554 1.387 . S
C554 H539 0.930 . S
C554 C549 1.390 . S
C554 C553 1.387 . S
H555 C567 0.930 . S
H556 C569 0.930 . S
H557 C570 0.930 . S
H558 C574 0.959 . S
H559 C574 0.959 . S
H560 C574 0.961 . S
H561 C575 0.960 . S
H562 C575 0.961 . S
H563 C575 0.959 1_556 S
H564 C578 0.929 . S
H565 C579 0.931 . S
H566 C581 0.930 . S
C567 H555 0.930 . S
C567 C568 1.399 . S
C567 C572 1.399 1_554 S
C568 C567 1.399 . S
C568 C569 1.376 1_554 S
C569 H556 0.930 . S
C569 C568 1.376 1_556 S
C569 C570 1.388 . S
C570 H557 0.930 . S
C570 C569 1.388 . S
C570 C571 1.390 . S
C571 C570 1.390 . S
C571 C572 1.394 . S
C571 C577 1.465 . S
C572 C567 1.399 1_556 S
C572 C571 1.394 . S
C572 C573 1.516 . S
C573 C572 1.516 . S
C573 C574 1.502 1_556 S
C573 C575 1.561 1_556 S
C573 C576 1.526 . S
C574 H558 0.959 . S
C574 H559 0.959 . S
C574 H560 0.961 . S
C574 C573 1.502 1_554 S
C575 H561 0.960 . S
C575 H562 0.961 . S
C575 H563 0.959 1_554 S
C575 C573 1.561 1_554 S
C576 C573 1.526 . S
C576 C577 1.396 . S
C576 C581 1.390 . S
C577 C571 1.465 . S
C577 C576 1.396 . S
C577 C578 1.399 . S
C578 H564 0.929 . S
C578 C577 1.399 . S
C578 C579 1.385 . S
C579 H565 0.931 . S
C579 C578 1.385 . S
C579 C580 1.389 . S
C580 C579 1.389 . S
C580 C581 1.387 . S
C581 H566 0.930 . S
C581 C576 1.390 . S
C581 C580 1.387 . S
H582 C594 0.930 . S
H583 C596 0.930 . S
H584 C597 0.930 . S
H585 C601 0.959 . S
H586 C601 0.959 . S
H587 C601 0.961 . S
H588 C602 0.960 . S
H589 C602 0.961 . S
H590 C602 0.959 . S
H591 C605 0.929 . S
H592 C606 0.931 . S
H593 C608 0.930 . S
C594 H582 0.930 . S
C594 C595 1.399 . S
C594 C599 1.399 1_554 S
C595 C594 1.399 . S
C595 C596 1.376 . S
C596 H583 0.930 . S
C596 C595 1.376 . S
C596 C597 1.388 1_554 S
C597 H584 0.930 . S
C597 C596 1.388 1_556 S
C597 C598 1.390 . S
C598 C597 1.390 . S
C598 C599 1.394 . S
C598 C604 1.465 . S
C599 C594 1.399 1_556 S
C599 C598 1.394 . S
C599 C600 1.516 . S
C600 C599 1.516 . S
C600 C601 1.502 1_556 S
C600 C602 1.561 . S
C600 C603 1.526 . S
C601 H585 0.959 . S
C601 H586 0.959 . S
C601 H587 0.961 . S
C601 C600 1.502 1_554 S
C602 H588 0.960 . S
C602 H589 0.961 . S
C602 H590 0.959 . S
C602 C600 1.561 . S
C603 C600 1.526 . S
C603 C604 1.396 . S
C603 C608 1.390 . S
C604 C598 1.465 . S
C604 C603 1.396 . S
C604 C605 1.399 . S
C605 H591 0.929 . S
C605 C604 1.399 . S
C605 C606 1.385 . S
C606 H592 0.931 . S
C606 C605 1.385 . S
C606 C607 1.389 . S
C607 C606 1.389 . S
C607 C608 1.387 . S
C608 H593 0.930 . S
C608 C603 1.390 . S
C608 C607 1.387 . S
H609 C621 0.930 . S
H610 C623 0.930 1_554 S
H611 C624 0.930 . S
H612 C628 0.959 . S
H613 C628 0.959 . S
H614 C628 0.961 . S
H615 C629 0.960 . S
H616 C629 0.961 . S
H617 C629 0.959 . S
H618 C632 0.929 . S
H619 C633 0.931 . S
H620 C635 0.930 . S
C621 H609 0.930 . S
C621 C622 1.399 . S
C621 C626 1.399 . S
C622 C621 1.399 . S
C622 C623 1.376 . S
C623 H610 0.930 1_556 S
C623 C622 1.376 . S
C623 C624 1.388 . S
C624 H611 0.930 . S
C624 C623 1.388 . S
C624 C625 1.390 . S
C625 C624 1.390 . S
C625 C626 1.394 . S
C625 C631 1.465 . S
C626 C621 1.399 . S
C626 C625 1.394 . S
C626 C627 1.516 . S
C627 C626 1.516 . S
C627 C628 1.502 . S
C627 C629 1.561 . S
C627 C630 1.526 . S
C628 H612 0.959 . S
C628 H613 0.959 . S
C628 H614 0.961 . S
C628 C627 1.502 . S
C629 H615 0.960 . S
C629 H616 0.961 . S
C629 H617 0.959 . S
C629 C627 1.561 . S
C630 C627 1.526 . S
C630 C631 1.396 . S
C630 C635 1.390 . S
C631 C625 1.465 . S
C631 C630 1.396 . S
C631 C632 1.399 . S
C632 H618 0.929 . S
C632 C631 1.399 . S
C632 C633 1.385 . S
C633 H619 0.931 . S
C633 C632 1.385 . S
C633 C634 1.389 . S
C634 C633 1.389 . S
C634 C635 1.387 . S
C635 H620 0.930 . S
C635 C630 1.390 . S
C635 C634 1.387 . S
H636 C648 0.930 . S
H637 C650 0.930 . S
H638 C651 0.930 . S
H639 C655 0.959 . S
H640 C655 0.959 . S
H641 C655 0.961 . S
H642 C656 0.960 . S
H643 C656 0.961 . S
H644 C656 0.959 . S
H645 C659 0.929 . S
H646 C660 0.931 . S
H647 C662 0.930 . S
C648 H636 0.930 . S
C648 C649 1.399 . S
C648 C653 1.399 . S
C649 C648 1.399 . S
C649 C650 1.376 . S
C650 H637 0.930 . S
C650 C649 1.376 . S
C650 C651 1.388 . S
C651 H638 0.930 . S
C651 C650 1.388 . S
C651 C652 1.390 . S
C652 C651 1.390 . S
C652 C653 1.394 . S
C652 C658 1.465 . S
C653 C648 1.399 . S
C653 C652 1.394 . S
C653 C654 1.516 . S
C654 C653 1.516 . S
C654 C655 1.502 . S
C654 C656 1.561 . S
C654 C657 1.526 . S
C655 H639 0.959 . S
C655 H640 0.959 . S
C655 H641 0.961 . S
C655 C654 1.502 . S
C656 H642 0.960 . S
C656 H643 0.961 . S
C656 H644 0.959 . S
C656 C654 1.561 . S
C657 C654 1.526 . S
C657 C658 1.396 . S
C657 C662 1.390 . S
C658 C652 1.465 . S
C658 C657 1.396 . S
C658 C659 1.399 . S
C659 H645 0.929 . S
C659 C658 1.399 . S
C659 C660 1.385 . S
C660 H646 0.931 . S
C660 C659 1.385 . S
C660 C661 1.389 . S
C661 C660 1.389 . S
C661 C662 1.387 . S
C662 H647 0.930 . S
C662 C657 1.390 . S
C662 C661 1.387 . S
H663 C675 0.930 . S
H664 C677 0.930 . S
H665 C678 0.930 . S
H666 C682 0.959 . S
H667 C682 0.959 . S
H668 C682 0.961 . S
H669 C683 0.960 . S
H670 C683 0.961 . S
H671 C683 0.959 . S
H672 C686 0.929 . S
H673 C687 0.931 . S
H674 C689 0.930 . S
C675 H663 0.930 . S
C675 C676 1.399 . S
C675 C680 1.399 . S
C676 C675 1.399 . S
C676 C677 1.376 . S
C677 H664 0.930 . S
C677 C676 1.376 . S
C677 C678 1.388 . S
C678 H665 0.930 . S
C678 C677 1.388 . S
C678 C679 1.390 . S
C679 C678 1.390 . S
C679 C680 1.394 . S
C679 C685 1.465 . S
C680 C675 1.399 . S
C680 C679 1.394 . S
C680 C681 1.516 . S
C681 C680 1.516 . S
C681 C682 1.502 . S
C681 C683 1.561 . S
C681 C684 1.526 . S
C682 H666 0.959 . S
C682 H667 0.959 . S
C682 H668 0.961 . S
C682 C681 1.502 . S
C683 H669 0.960 . S
C683 H670 0.961 . S
C683 H671 0.959 . S
C683 C681 1.561 . S
C684 C681 1.526 . S
C684 C685 1.396 . S
C684 C689 1.390 . S
C685 C679 1.465 . S
C685 C684 1.396 . S
C685 C686 1.399 . S
C686 H672 0.929 . S
C686 C685 1.399 . S
C686 C687 1.385 . S
C687 H673 0.931 . S
C687 C686 1.385 . S
C687 C688 1.389 . S
C688 C687 1.389 . S
C688 C689 1.387 . S
C689 H674 0.930 . S
C689 C684 1.390 . S
C689 C688 1.387 . S
H690 C702 0.930 . S
H691 C704 0.930 . S
H692 C705 0.930 . S
H693 C709 0.959 . S
H694 C709 0.959 . S
H695 C709 0.961 . S
H696 C710 0.960 . S
H697 C710 0.961 . S
H698 C710 0.959 . S
H699 C713 0.929 . S
H700 C714 0.931 . S
H701 C716 0.930 . S
C702 H690 0.930 . S
C702 C703 1.399 . S
C702 C707 1.399 . S
C703 C702 1.399 . S
C703 C704 1.376 . S
C704 H691 0.930 . S
C704 C703 1.376 . S
C704 C705 1.388 . S
C705 H692 0.930 . S
C705 C704 1.388 . S
C705 C706 1.390 . S
C706 C705 1.390 . S
C706 C707 1.394 . S
C706 C712 1.465 . S
C707 C702 1.399 . S
C707 C706 1.394 . S
C707 C708 1.516 . S
C708 C707 1.516 . S
C708 C709 1.502 . S
C708 C710 1.561 . S
C708 C711 1.526 . S
C709 H693 0.959 . S
C709 H694 0.959 . S
C709 H695 0.961 . S
C709 C708 1.502 . S
C710 H696 0.960 . S
C710 H697 0.961 . S
C710 H698 0.959 . S
C710 C708 1.561 . S
C711 C708 1.526 . S
C711 C712 1.396 . S
C711 C716 1.390 . S
C712 C706 1.465 . S
C712 C711 1.396 . S
C712 C713 1.399 . S
C713 H699 0.929 . S
C713 C712 1.399 . S
C713 C714 1.385 . S
C714 H700 0.931 . S
C714 C713 1.385 . S
C714 C715 1.389 . S
C715 C714 1.389 . S
C715 C716 1.387 . S
C716 H701 0.930 . S
C716 C711 1.390 . S
C716 C715 1.387 . S
H717 C729 0.930 . S
H718 C731 0.930 . S
H719 C732 0.930 . S
H720 C736 0.959 . S
H721 C736 0.959 . S
H722 C736 0.961 . S
H723 C737 0.960 . S
H724 C737 0.961 . S
H725 C737 0.959 . S
H726 C740 0.929 . S
H727 C741 0.931 . S
H728 C743 0.930 . S
C729 H717 0.930 . S
C729 C730 1.399 . S
C729 C734 1.399 . S
C730 C729 1.399 . S
C730 C731 1.376 . S
C731 H718 0.930 . S
C731 C730 1.376 . S
C731 C732 1.388 . S
C732 H719 0.930 . S
C732 C731 1.388 . S
C732 C733 1.390 . S
C733 C732 1.390 . S
C733 C734 1.394 . S
C733 C739 1.465 . S
C734 C729 1.399 . S
C734 C733 1.394 . S
C734 C735 1.516 . S
C735 C734 1.516 . S
C735 C736 1.502 . S
C735 C737 1.561 . S
C735 C738 1.526 . S
C736 H720 0.959 . S
C736 H721 0.959 . S
C736 H722 0.961 . S
C736 C735 1.502 . S
C737 H723 0.960 . S
C737 H724 0.961 . S
C737 H725 0.959 . S
C737 C735 1.561 . S
C738 C735 1.526 . S
C738 C739 1.396 . S
C738 C743 1.390 . S
C739 C733 1.465 . S
C739 C738 1.396 . S
C739 C740 1.399 . S
C740 H726 0.929 . S
C740 C739 1.399 . S
C740 C741 1.385 . S
C741 H727 0.931 . S
C741 C740 1.385 . S
C741 C742 1.389 . S
C742 C741 1.389 . S
C742 C743 1.387 . S
C743 H728 0.930 . S
C743 C738 1.390 . S
C743 C742 1.387 . S
H744 C756 0.930 . S
H745 C758 0.930 . S
H746 C759 0.930 . S
H747 C763 0.959 . S
H748 C763 0.959 . S
H749 C763 0.961 . S
H750 C764 0.960 . S
H751 C764 0.961 . S
H752 C764 0.959 . S
H753 C767 0.929 . S
H754 C768 0.931 . S
H755 C770 0.930 . S
C756 H744 0.930 . S
C756 C757 1.399 . S
C756 C761 1.399 . S
C757 C756 1.399 . S
C757 C758 1.376 . S
C758 H745 0.930 . S
C758 C757 1.376 . S
C758 C759 1.388 . S
C759 H746 0.930 . S
C759 C758 1.388 . S
C759 C760 1.390 . S
C760 C759 1.390 . S
C760 C761 1.394 . S
C760 C766 1.465 . S
C761 C756 1.399 . S
C761 C760 1.394 . S
C761 C762 1.516 . S
C762 C761 1.516 . S
C762 C763 1.502 . S
C762 C764 1.561 . S
C762 C765 1.526 . S
C763 H747 0.959 . S
C763 H748 0.959 . S
C763 H749 0.961 . S
C763 C762 1.502 . S
C764 H750 0.960 . S
C764 H751 0.961 . S
C764 H752 0.959 . S
C764 C762 1.561 . S
C765 C762 1.526 . S
C765 C766 1.396 . S
C765 C770 1.390 . S
C766 C760 1.465 . S
C766 C765 1.396 . S
C766 C767 1.399 . S
C767 H753 0.929 . S
C767 C766 1.399 . S
C767 C768 1.385 . S
C768 H754 0.931 . S
C768 C767 1.385 . S
C768 C769 1.389 . S
C769 C768 1.389 . S
C769 C770 1.387 . S
C770 H755 0.930 . S
C770 C765 1.390 . S
C770 C769 1.387 . S
H771 C783 0.930 . S
H772 C785 0.930 . S
H773 C786 0.930 . S
H774 C790 0.959 . S
H775 C790 0.959 . S
H776 C790 0.961 . S
H777 C791 0.960 . S
H778 C791 0.961 . S
H779 C791 0.959 . S
H780 C794 0.929 . S
H781 C795 0.931 . S
H782 C797 0.930 . S
C783 H771 0.930 . S
C783 C784 1.399 . S
C783 C788 1.399 . S
C784 C783 1.399 . S
C784 C785 1.376 . S
C785 H772 0.930 . S
C785 C784 1.376 . S
C785 C786 1.388 . S
C786 H773 0.930 . S
C786 C785 1.388 . S
C786 C787 1.390 . S
C787 C786 1.390 . S
C787 C788 1.394 . S
C787 C793 1.465 . S
C788 C783 1.399 . S
C788 C787 1.394 . S
C788 C789 1.516 . S
C789 C788 1.516 . S
C789 C790 1.502 . S
C789 C791 1.561 . S
C789 C792 1.526 . S
C790 H774 0.959 . S
C790 H775 0.959 . S
C790 H776 0.961 . S
C790 C789 1.502 . S
C791 H777 0.960 . S
C791 H778 0.961 . S
C791 H779 0.959 . S
C791 C789 1.561 . S
C792 C789 1.526 . S
C792 C793 1.396 . S
C792 C797 1.390 . S
C793 C787 1.465 . S
C793 C792 1.396 . S
C793 C794 1.399 . S
C794 H780 0.929 . S
C794 C793 1.399 . S
C794 C795 1.385 . S
C795 H781 0.931 . S
C795 C794 1.385 . S
C795 C796 1.389 . S
C796 C795 1.389 . S
C796 C797 1.387 . S
C797 H782 0.930 . S
C797 C792 1.390 . S
C797 C796 1.387 . S
H798 C810 0.930 . S
H799 C812 0.930 . S
H800 C813 0.930 . S
H801 C817 0.959 . S
H802 C817 0.959 . S
H803 C817 0.961 . S
H804 C818 0.960 . S
H805 C818 0.961 . S
H806 C818 0.959 . S
H807 C821 0.929 . S
H808 C822 0.931 . S
H809 C824 0.930 . S
C810 H798 0.930 . S
C810 C811 1.399 . S
C810 C815 1.399 . S
C811 C810 1.399 . S
C811 C812 1.376 . S
C812 H799 0.930 . S
C812 C811 1.376 . S
C812 C813 1.388 . S
C813 H800 0.930 . S
C813 C812 1.388 . S
C813 C814 1.390 . S
C814 C813 1.390 . S
C814 C815 1.394 . S
C814 C820 1.465 . S
C815 C810 1.399 . S
C815 C814 1.394 . S
C815 C816 1.516 . S
C816 C815 1.516 . S
C816 C817 1.502 . S
C816 C818 1.561 . S
C816 C819 1.526 . S
C817 H801 0.959 . S
C817 H802 0.959 . S
C817 H803 0.961 . S
C817 C816 1.502 . S
C818 H804 0.960 . S
C818 H805 0.961 . S
C818 H806 0.959 . S
C818 C816 1.561 . S
C819 C816 1.526 . S
C819 C820 1.396 . S
C819 C824 1.390 . S
C820 C814 1.465 . S
C820 C819 1.396 . S
C820 C821 1.399 . S
C821 H807 0.929 . S
C821 C820 1.399 . S
C821 C822 1.385 . S
C822 H808 0.931 . S
C822 C821 1.385 . S
C822 C823 1.389 . S
C823 C822 1.389 . S
C823 C824 1.387 . S
C824 H809 0.930 . S
C824 C819 1.390 . S
C824 C823 1.387 . S
C190 C1 1.694 . S
C202 C84 1.563 . S
C217 C27 1.479 . S
C229 C116 1.433 . S
C256 C175 1.753 . S
C244 C40 1.822 . S
C283 C104 1.386 . S
C271 C55 1.365 . S
C298 C68 1.624 . S
C310 C134 1.488 . S
C337 C156 1.180 . S
C325 C70 1.216 . S
C364 C125 1.607 . S
C352 C41 1.643 . S
C379 C54 1.278 . S
C391 C165 1.150 . S
C418 C114 1.510 . S
C406 C69 1.530 1_556 S
C433 C71 1.435 . S
C445 C144 1.426 . S
C460 C0 1.735 . S
C472 C147 1.731 . S
C499 C86 1.507 . S
C487 C26 1.513 1_556 S
C526 C94 1.569 . S
C514 C42 1.598 . S
C553 C135 1.465 . S
C541 C57 1.450 1_556 S
C580 C148 1.819 . S
C568 C83 1.834 . S
C607 C85 1.387 . S
C595 C12 1.417 . S
C634 C145 1.473 . S
C622 C14 1.555 1_556 S
C649 C29 1.188 . S
C661 C146 1.198 . S
C688 C115 1.564 . S
C676 C82 1.629 . S
C715 C176 1.208 . S
C703 C13 1.190 . S
C742 C103 1.538 . S
C730 C15 1.547 . S
C769 C117 1.428 . S
C757 C28 1.505 . S
C784 C43 1.773 . S
C796 C166 1.685 . S
C811 C56 1.537 . S
C823 C113 1.549 . S
