# Generated by pormake.
# Topology zzz, (3,6)-cn, num edge types: 1
# Building blocks:
#     Node 0, Type 0, BuildingBlock: OLANEW_clean_sbu_2, # of connection points: 3
#     Node 1, Type 0, BuildingBlock: OLANEW_clean_sbu_2, # of connection points: 3
#     Node 2, Type 0, BuildingBlock: OLANEW_clean_sbu_2, # of connection points: 3
#     Node 3, Type 0, BuildingBlock: OLANEW_clean_sbu_2, # of connection points: 3
#     Node 4, Type 0, BuildingBlock: OLANEW_clean_sbu_2, # of connection points: 3
#     Node 5, Type 0, BuildingBlock: OLANEW_clean_sbu_2, # of connection points: 3
#     Node 6, Type 0, BuildingBlock: OLANEW_clean_sbu_2, # of connection points: 3
#     Node 7, Type 0, BuildingBlock: OLANEW_clean_sbu_2, # of connection points: 3
#     Node 8, Type 1, BuildingBlock: CUKXOW_clean_sbu_0, # of connection points: 6
#     Node 9, Type 1, BuildingBlock: CUKXOW_clean_sbu_0, # of connection points: 6
#     Node 10, Type 1, BuildingBlock: CUKXOW_clean_sbu_0, # of connection points: 6
#     Node 11, Type 1, BuildingBlock: CUKXOW_clean_sbu_0, # of connection points: 6
#     Edge 12, Type (0, 1), BuildingBlock: KIFKEQ_clean_linker_1, # of connection points: 2
#     Edge 13, Type (0, 1), BuildingBlock: KIFKEQ_clean_linker_1, # of connection points: 2
#     Edge 14, Type (0, 1), BuildingBlock: KIFKEQ_clean_linker_1, # of connection points: 2
#     Edge 15, Type (0, 1), BuildingBlock: KIFKEQ_clean_linker_1, # of connection points: 2
#     Edge 16, Type (0, 1), BuildingBlock: KIFKEQ_clean_linker_1, # of connection points: 2
#     Edge 17, Type (0, 1), BuildingBlock: KIFKEQ_clean_linker_1, # of connection points: 2
#     Edge 18, Type (0, 1), BuildingBlock: KIFKEQ_clean_linker_1, # of connection points: 2
#     Edge 19, Type (0, 1), BuildingBlock: KIFKEQ_clean_linker_1, # of connection points: 2
#     Edge 20, Type (0, 1), BuildingBlock: KIFKEQ_clean_linker_1, # of connection points: 2
#     Edge 21, Type (0, 1), BuildingBlock: KIFKEQ_clean_linker_1, # of connection points: 2
#     Edge 22, Type (0, 1), BuildingBlock: KIFKEQ_clean_linker_1, # of connection points: 2
#     Edge 23, Type (0, 1), BuildingBlock: KIFKEQ_clean_linker_1, # of connection points: 2
#     Edge 24, Type (0, 1), BuildingBlock: KIFKEQ_clean_linker_1, # of connection points: 2
#     Edge 25, Type (0, 1), BuildingBlock: KIFKEQ_clean_linker_1, # of connection points: 2
#     Edge 26, Type (0, 1), BuildingBlock: KIFKEQ_clean_linker_1, # of connection points: 2
#     Edge 27, Type (0, 1), BuildingBlock: KIFKEQ_clean_linker_1, # of connection points: 2
#     Edge 28, Type (0, 1), BuildingBlock: KIFKEQ_clean_linker_1, # of connection points: 2
#     Edge 29, Type (0, 1), BuildingBlock: KIFKEQ_clean_linker_1, # of connection points: 2
#     Edge 30, Type (0, 1), BuildingBlock: KIFKEQ_clean_linker_1, # of connection points: 2
#     Edge 31, Type (0, 1), BuildingBlock: KIFKEQ_clean_linker_1, # of connection points: 2
#     Edge 32, Type (0, 1), BuildingBlock: KIFKEQ_clean_linker_1, # of connection points: 2
#     Edge 33, Type (0, 1), BuildingBlock: KIFKEQ_clean_linker_1, # of connection points: 2
#     Edge 34, Type (0, 1), BuildingBlock: KIFKEQ_clean_linker_1, # of connection points: 2
#     Edge 35, Type (0, 1), BuildingBlock: KIFKEQ_clean_linker_1, # of connection points: 2
# Relax obj value: 0.076
# Max RMSD: 0.134
# Mean RMSD: 0.094
data_MOF--net-zzz--node1-OLANEW_clean_sbu_2--node2-CUKXOW_clean_sbu_0--edge1-KIFKEQ_clean_linker_1
_symmetry_space_group_name_H-M    P1
_symmetry_Int_Tables_number       1
_symmetry_cell_setting            triclinic
loop_
_symmetry_equiv_pos_as_xyz
'x, y, z'
_cell_length_a     54.380367
_cell_length_b     55.936144
_cell_length_c     17.691028
_cell_angle_alpha  93.125364
_cell_angle_beta   86.923859
_cell_angle_gamma 94.240741
loop_
_atom_site_label
_atom_site_type_symbol
_atom_site_fract_x
_atom_site_fract_y
_atom_site_fract_z
_atom_type_partial_charge
O0 O 0.7945 0.57137 0.92081 0.0
Cd1 Cd 0.75589 0.59024 0.94543 0.0
O2 O 0.78449 0.54628 0.01015 0.0
Cd3 Cd 0.79379 0.5208 0.09113 0.0
O4 O 0.81339 0.50841 0.18374 0.0
C5 C 0.83111 0.49496 0.17072 0.0
O6 O 0.83642 0.48723 0.10072 0.0
C7 C 0.79986 0.55406 0.95894 0.0
C8 C 0.71565 0.55937 0.90691 0.0
O9 O 0.7283 0.57143 0.85689 0.0
O10 O 0.72209 0.5618 0.9757 0.0
O11 O 0.93639 0.78805 0.79354 0.0
Cd12 Cd 0.91417 0.74891 0.80526 0.0
O13 O 0.94543 0.78434 0.91101 0.0
Cd14 Cd 0.96085 0.79419 0.02137 0.0
O15 O 0.96979 0.81333 0.12844 0.0
C16 C 0.95572 0.82957 0.15223 0.0
O17 O 0.93654 0.83321 0.11335 0.0
C18 C 0.94646 0.79693 0.85282 0.0
C19 C 0.94454 0.71086 0.78968 0.0
O20 O 0.93371 0.71776 0.7329 0.0
O21 O 0.94131 0.72224 0.8539 0.0
O22 O 0.70753 0.9284 0.92759 0.0
Cd23 Cd 0.74085 0.90957 0.98389 0.0
O24 O 0.7114 0.95465 0.02323 0.0
Cd25 Cd 0.69565 0.98199 0.09935 0.0
O26 O 0.66809 0.99177 0.18672 0.0
C27 C 0.65224 0.97487 0.20418 0.0
O28 O 0.65358 0.95377 0.16827 0.0
C29 C 0.70035 0.94695 0.96431 0.0
C30 C 0.78788 0.93003 0.94614 0.0
O31 O 0.7785 0.91176 0.90804 0.0
O32 O 0.77485 0.93893 0.00179 0.0
O33 O 0.60974 0.70871 0.80668 0.0
Cd34 Cd 0.6341 0.74721 0.80861 0.0
O35 O 0.60276 0.71394 0.92942 0.0
Cd36 Cd 0.59016 0.70051 0.03941 0.0
O37 O 0.58299 0.68035 0.14113 0.0
C38 C 0.56365 0.6824 0.18385 0.0
O39 O 0.5475 0.69737 0.16694 0.0
C40 C 0.59988 0.70118 0.86843 0.0
C41 C 0.60511 0.78648 0.8221 0.0
O42 O 0.61137 0.77696 0.75702 0.0
O43 O 0.61239 0.77729 0.88108 0.0
O44 O 0.2181 0.52484 0.43682 0.0
Cd45 Cd 0.255 0.52799 0.35339 0.0
O46 O 0.21918 0.48583 0.44313 0.0
Cd47 Cd 0.23888 0.48524 0.33279 0.0
O48 O 0.21658 0.48912 0.23577 0.0
C49 C 0.19563 0.47748 0.24111 0.0
O50 O 0.19079 0.46364 0.29855 0.0
C51 C 0.21036 0.50542 0.46714 0.0
C52 C 0.29434 0.52559 0.4459 0.0
O53 O 0.28548 0.54566 0.43511 0.0
O54 O 0.28513 0.50666 0.4107 0.0
O55 O 0.03457 0.20833 0.49913 0.0
Cd56 Cd 0.04427 0.244 0.42698 0.0
O57 O 0.07333 0.20073 0.50827 0.0
Cd58 Cd 0.08375 0.22195 0.41046 0.0
O59 O 0.07968 0.20498 0.29725 0.0
C60 C 0.05785 0.19726 0.28181 0.0
O61 O 0.03956 0.20241 0.33006 0.0
C62 C 0.05057 0.19619 0.52619 0.0
C63 C 0.03238 0.28489 0.51391 0.0
O64 O 0.01621 0.27276 0.47461 0.0
O65 O 0.05428 0.27774 0.51171 0.0
O66 O 0.30872 0.04422 0.48872 0.0
Cd67 Cd 0.27707 0.05512 0.40659 0.0
O68 O 0.32459 0.08141 0.50023 0.0
Cd69 Cd 0.30986 0.08845 0.39254 0.0
O70 O 0.33382 0.07662 0.29695 0.0
C71 C 0.35663 0.07962 0.31021 0.0
O72 O 0.36301 0.09047 0.37472 0.0
C73 C 0.32358 0.05986 0.52014 0.0
C74 C 0.23026 0.04488 0.47396 0.0
O75 O 0.23985 0.03003 0.42524 0.0
O76 O 0.2427 0.06468 0.49023 0.0
O77 O 0.43289 0.30404 0.49292 0.0
Cd78 Cd 0.43038 0.26625 0.4165 0.0
O79 O 0.40901 0.32042 0.41681 0.0
Cd80 Cd 0.40754 0.2919 0.32799 0.0
O81 O 0.41636 0.30669 0.21747 0.0
C82 C 0.40318 0.32357 0.20319 0.0
O83 O 0.38436 0.32821 0.25007 0.0
C84 C 0.42153 0.32189 0.47573 0.0
C85 C 0.4439 0.22738 0.49316 0.0
O86 O 0.46021 0.24162 0.46064 0.0
O87 O 0.42114 0.2316 0.48999 0.0
Tb88 Tb 0.00781 0.98186 0.68846 0.0
C89 C 0.06029 0.00586 0.71292 0.0
Tb90 Tb 0.01517 0.01588 0.83164 0.0
O91 O 0.01394 0.01154 0.61204 0.0
O92 O 0.00085 0.01753 0.72386 0.0
O93 O 0.04769 0.9869 0.68215 0.0
C94 C 0.02351 0.05438 0.92486 0.0
O95 O 0.05043 0.02077 0.7654 0.0
C96 C 0.01394 0.96988 0.85412 0.0
C97 C 0.96289 0.9902 0.80715 0.0
O98 O 0.03625 0.03555 0.92032 0.0
O99 O 0.00587 0.05132 0.87794 0.0
O100 O 0.00823 0.98596 0.9068 0.0
O101 O 0.0224 0.98038 0.79623 0.0
O102 O 0.97511 0.00899 0.84055 0.0
O103 O 0.97326 0.97573 0.75479 0.0
C104 C 0.99637 0.94553 0.58998 0.0
O105 O 0.9835 0.96391 0.60561 0.0
O106 O 0.01594 0.94757 0.62951 0.0
C107 C 0.00921 0.02769 0.66522 0.0
Tb108 Tb 0.50937 0.03676 0.76409 0.0
C109 C 0.5333 0.99997 0.65237 0.0
Tb110 Tb 0.50789 0.9842 0.8095 0.0
O111 O 0.54902 0.04251 0.78156 0.0
O112 O 0.52718 0.0171 0.84136 0.0
O113 O 0.52002 0.01896 0.65683 0.0
C114 C 0.51962 0.94009 0.83735 0.0
O115 O 0.53375 0.98568 0.7098 0.0
C116 C 0.46826 0.99699 0.75024 0.0
C117 C 0.48314 0.02162 0.9226 0.0
O118 O 0.5052 0.94531 0.78548 0.0
O119 O 0.52706 0.95968 0.87458 0.0
O120 O 0.46793 0.98014 0.79813 0.0
O121 O 0.49025 0.0039 0.7323 0.0
O122 O 0.49085 0.99952 0.91386 0.0
O123 O 0.48792 0.03823 0.87179 0.0
C124 C 0.49625 0.07893 0.72175 0.0
O125 O 0.48157 0.06267 0.75348 0.0
O126 O 0.51837 0.07159 0.71471 0.0
C127 C 0.54909 0.02491 0.82641 0.0
Tb128 Tb 0.50335 0.53022 0.67915 0.0
C129 C 0.44807 0.52045 0.72581 0.0
Tb130 Tb 0.49019 0.4962 0.80908 0.0
O131 O 0.4847 0.50423 0.60058 0.0
O132 O 0.50182 0.49285 0.69373 0.0
O133 O 0.46479 0.53634 0.69708 0.0
C134 C 0.47266 0.45871 0.88743 0.0
O135 O 0.45406 0.50213 0.76463 0.0
C136 C 0.50411 0.54056 0.85047 0.0
C137 C 0.54593 0.50847 0.76553 0.0
O138 O 0.47009 0.48108 0.90806 0.0
O139 O 0.48534 0.45751 0.82329 0.0
O140 O 0.50725 0.52239 0.89095 0.0
O141 O 0.49168 0.53342 0.79462 0.0
O142 O 0.52988 0.4927 0.79852 0.0
O143 O 0.53918 0.52562 0.72355 0.0
C144 C 0.52046 0.56451 0.58728 0.0
O145 O 0.50879 0.56812 0.6524 0.0
O146 O 0.52251 0.54169 0.57422 0.0
C147 C 0.48866 0.48597 0.63933 0.0
Tb148 Tb 0.9892 0.49881 0.67307 0.0
C149 C 0.00048 0.44857 0.73513 0.0
Tb150 Tb 0.01733 0.49772 0.81896 0.0
O151 O 0.02274 0.51185 0.61092 0.0
O152 O 0.02441 0.48983 0.70226 0.0
O153 O 0.98652 0.46044 0.69288 0.0
C154 C 0.05421 0.5011 0.91345 0.0
O155 O 0.01614 0.45972 0.7828 0.0
C156 C 0.96896 0.49646 0.83711 0.0
C157 C 0.00625 0.54812 0.75388 0.0
O158 O 0.05597 0.50698 0.8434 0.0
O159 O 0.03152 0.49368 0.9309 0.0
O160 O 0.98288 0.48756 0.88453 0.0
O161 O 0.98267 0.50739 0.78916 0.0
O162 O 0.01869 0.53665 0.8021 0.0
O163 O 0.99135 0.53688 0.70418 0.0
C164 C 0.95493 0.49384 0.57013 0.0
O165 O 0.97849 0.49748 0.55551 0.0
O166 O 0.9506 0.49312 0.64284 0.0
C167 C 0.03709 0.50257 0.65601 0.0
H168 H 0.19486 0.01084 0.42841 0.0
H169 H 0.2101 0.06615 0.60294 0.0
H170 H 0.15422 0.00165 0.48844 0.0
H171 H 0.16994 0.05621 0.66552 0.0
H172 H 0.08639 0.04942 0.71413 0.0
H173 H 0.12745 0.05896 0.65709 0.0
H174 H 0.13353 0.98385 0.59229 0.0
H175 H 0.09201 0.97463 0.64603 0.0
C176 C 0.18959 0.02088 0.4801 0.0
C177 C 0.20564 0.03924 0.51086 0.0
C178 C 0.16633 0.0155 0.51501 0.0
C179 C 0.15871 0.02807 0.58231 0.0
C180 C 0.17492 0.04638 0.61319 0.0
C181 C 0.19803 0.05202 0.57755 0.0
C182 C 0.09663 0.03495 0.68821 0.0
C183 C 0.08599 0.01129 0.68434 0.0
C184 C 0.12024 0.04039 0.65565 0.0
C185 C 0.1339 0.02222 0.61951 0.0
C186 C 0.12342 0.99843 0.61789 0.0
C187 C 0.09967 0.99308 0.64928 0.0
H188 H 0.41508 0.18726 0.53036 0.0
H189 H 0.4892 0.22018 0.54308 0.0
H190 H 0.42769 0.15177 0.58756 0.0
H191 H 0.50161 0.18534 0.60408 0.0
H192 H 0.52339 0.10963 0.63113 0.0
H193 H 0.5104 0.1456 0.57798 0.0
H194 H 0.43923 0.13531 0.69783 0.0
H195 H 0.45199 0.09853 0.74739 0.0
C196 C 0.434 0.18703 0.54645 0.0
C197 C 0.45119 0.20642 0.53186 0.0
C198 C 0.44124 0.16673 0.57977 0.0
C199 C 0.46575 0.16552 0.60045 0.0
C200 C 0.48273 0.18529 0.58745 0.0
C201 C 0.47559 0.20539 0.55294 0.0
C202 C 0.50501 0.11516 0.64619 0.0
C203 C 0.4887 0.1014 0.69336 0.0
C204 C 0.49756 0.1359 0.61619 0.0
C205 C 0.47373 0.14357 0.63365 0.0
C206 C 0.45756 0.12984 0.68198 0.0
C207 C 0.46491 0.10887 0.71102 0.0
H208 H 0.31143 0.56045 0.54748 0.0
H209 H 0.32232 0.4878 0.4636 0.0
H210 H 0.34512 0.55895 0.63187 0.0
H211 H 0.35668 0.48659 0.54601 0.0
H212 H 0.41011 0.48531 0.72994 0.0
H213 H 0.37006 0.48622 0.67397 0.0
H214 H 0.38871 0.55964 0.61565 0.0
H215 H 0.42799 0.55898 0.67332 0.0
C216 C 0.32109 0.54417 0.54689 0.0
C217 C 0.31444 0.52435 0.49822 0.0
C218 C 0.34042 0.54332 0.59525 0.0
C219 C 0.35374 0.52271 0.59543 0.0
C220 C 0.34662 0.50263 0.54816 0.0
C221 C 0.32709 0.50341 0.50029 0.0
C222 C 0.4053 0.50182 0.70703 0.0
C223 C 0.42227 0.52202 0.70557 0.0
C224 C 0.3825 0.50226 0.67416 0.0
C225 C 0.37626 0.52292 0.63957 0.0
C226 C 0.39271 0.54349 0.64234 0.0
C227 C 0.41539 0.54306 0.67505 0.0
H228 H 0.98656 0.30073 0.54723 0.0
H229 H 0.06388 0.31854 0.58285 0.0
H230 H 0.97627 0.33797 0.61543 0.0
H231 H 0.05374 0.35619 0.64852 0.0
H232 H 0.02914 0.4175 0.79916 0.0
H233 H 0.03487 0.37588 0.7578 0.0
H234 H 0.9803 0.37928 0.59053 0.0
H235 H 0.97396 0.42031 0.63336 0.0
C236 C 0.00137 0.3126 0.56969 0.0
C237 C 0.02605 0.30681 0.55905 0.0
C238 C 0.99548 0.334 0.6086 0.0
C239 C 0.01417 0.35022 0.63707 0.0
C240 C 0.03881 0.34402 0.62838 0.0
C241 C 0.04467 0.32251 0.59009 0.0
C242 C 0.01801 0.4092 0.75461 0.0
C243 C 0.00128 0.42237 0.7191 0.0
C244 C 0.02145 0.38539 0.73045 0.0
C245 C 0.00829 0.37428 0.67015 0.0
C246 C 0.99061 0.38709 0.6376 0.0
C247 C 0.98708 0.41078 0.66196 0.0
H248 H 0.81034 0.97289 0.99772 0.0
H249 H 0.82275 0.90996 0.85214 0.0
H250 H 0.85213 0.9895 0.96451 0.0
H251 H 0.86458 0.92591 0.82155 0.0
H252 H 0.92851 0.96839 0.71708 0.0
H253 H 0.88592 0.95579 0.75085 0.0
H254 H 0.89521 0.9853 0.97944 0.0
H255 H 0.93795 0.99895 0.94396 0.0
C256 C 0.82204 0.96256 0.95896 0.0
C257 C 0.81319 0.9402 0.92702 0.0
C258 C 0.84604 0.972 0.9403 0.0
C259 C 0.86173 0.95917 0.88981 0.0
C260 C 0.85288 0.93662 0.85908 0.0
C261 C 0.82889 0.92736 0.87698 0.0
C262 C 0.92143 0.97233 0.7745 0.0
C263 C 0.93658 0.98446 0.82813 0.0
C264 C 0.89702 0.96494 0.79408 0.0
C265 C 0.88718 0.96906 0.86833 0.0
C266 C 0.90212 0.98192 0.9216 0.0
C267 C 0.9266 0.9897 0.90148 0.0
H268 H 0.58639 0.80926 0.70769 0.0
H269 H 0.5906 0.81202 0.95128 0.0
H270 H 0.56378 0.84534 0.71743 0.0
H271 H 0.56755 0.84802 0.96108 0.0
H272 H 0.55517 0.92849 0.92904 0.0
H273 H 0.57418 0.89024 0.92936 0.0
H274 H 0.52423 0.85997 0.76171 0.0
H275 H 0.50562 0.89834 0.76052 0.0
C276 C 0.58231 0.81745 0.76341 0.0
C277 C 0.59037 0.80779 0.82868 0.0
C278 C 0.56918 0.83806 0.76904 0.0
C279 C 0.5638 0.84954 0.84007 0.0
C280 C 0.5716 0.83973 0.90549 0.0
C281 C 0.5847 0.81904 0.89987 0.0
C282 C 0.54805 0.91352 0.89319 0.0
C283 C 0.529 0.91632 0.84462 0.0
C284 C 0.55887 0.8916 0.89347 0.0
C285 C 0.55083 0.8721 0.84512 0.0
C286 C 0.53111 0.87475 0.79868 0.0
C287 C 0.52033 0.89665 0.79838 0.0
H288 H 0.70427 0.54095 0.76658 0.0
H289 H 0.67674 0.54392 0.00021 0.0
H290 H 0.66507 0.52127 0.72882 0.0
H291 H 0.63706 0.52521 0.96221 0.0
H292 H 0.56795 0.48632 0.87668 0.0
H293 H 0.61131 0.49199 0.90903 0.0
H294 H 0.62646 0.5376 0.72 0.0
H295 H 0.58394 0.53138 0.68676 0.0
C296 C 0.68987 0.5372 0.80993 0.0
C297 C 0.69336 0.54434 0.8861 0.0
C298 C 0.66739 0.52598 0.78833 0.0
C299 C 0.64773 0.5221 0.84225 0.0
C300 C 0.65182 0.52777 0.91922 0.0
C301 C 0.67451 0.53867 0.94099 0.0
C302 C 0.58075 0.49706 0.84116 0.0
C303 C 0.57247 0.50857 0.7796 0.0
C304 C 0.60552 0.50046 0.85999 0.0
C305 C 0.62238 0.51531 0.81731 0.0
C306 C 0.6142 0.52574 0.75357 0.0
C307 C 0.58963 0.52236 0.7349 0.0
H308 H 0.94544 0.67721 0.67296 0.0
H309 H 0.97653 0.69626 0.88947 0.0
H310 H 0.96587 0.6401 0.66517 0.0
H311 H 0.99825 0.65947 0.88013 0.0
H312 H 0.00039 0.57629 0.88291 0.0
H313 H 0.98988 0.61805 0.89071 0.0
H314 H 0.00203 0.6208 0.64744 0.0
H315 H 0.01079 0.57864 0.64008 0.0
C316 C 0.95712 0.67369 0.71822 0.0
C317 C 0.95922 0.68958 0.78205 0.0
C318 C 0.9691 0.65242 0.71352 0.0
C319 C 0.98388 0.64664 0.77197 0.0
C320 C 0.98674 0.66307 0.83459 0.0
C321 C 0.9744 0.68423 0.8398 0.0
C322 C 0.00137 0.58612 0.8316 0.0
C323 C 0.00616 0.57439 0.7609 0.0
C324 C 0.99538 0.61008 0.83585 0.0
C325 C 0.99455 0.62279 0.76945 0.0
C326 C 0.00163 0.61144 0.69951 0.0
C327 C 0.00696 0.58738 0.6952 0.0
H328 H 0.07919 0.16755 0.59989 0.0
H329 H 0.0038 0.17543 0.54472 0.0
H330 H 0.06696 0.12771 0.64516 0.0
H331 H 0.99179 0.13558 0.58939 0.0
H332 H 0.99672 0.05204 0.54701 0.0
H333 H 0.0046 0.09501 0.52799 0.0
H334 H 0.03885 0.10445 0.74328 0.0
H335 H 0.03113 0.06151 0.76142 0.0
C336 C 0.05995 0.16104 0.59898 0.0
C337 C 0.04254 0.17454 0.56791 0.0
C338 C 0.05296 0.13826 0.62504 0.0
C339 C 0.02851 0.12854 0.61972 0.0
C340 C 0.01081 0.14262 0.59319 0.0
C341 C 0.01771 0.16548 0.56806 0.0
C342 C 0.0056 0.06343 0.5906 0.0
C343 C 0.01273 0.0537 0.65665 0.0
C344 C 0.00997 0.08796 0.58004 0.0
C345 C 0.02206 0.10304 0.63469 0.0
C346 C 0.02929 0.09324 0.7007 0.0
C347 C 0.02454 0.06875 0.71166 0.0
H348 H 0.36275 0.08707 0.57772 0.0
H349 H 0.32656 0.01557 0.57565 0.0
H350 H 0.397 0.07296 0.64229 0.0
H351 H 0.36096 0.00149 0.63945 0.0
H352 H 0.42059 0.98769 0.80046 0.0
H353 H 0.38391 0.00458 0.75717 0.0
H354 H 0.42985 0.04621 0.59816 0.0
H355 H 0.46642 0.02924 0.64132 0.0
C356 C 0.36186 0.06845 0.59223 0.0
C357 C 0.34201 0.05238 0.57095 0.0
C358 C 0.38159 0.06035 0.62865 0.0
C359 C 0.38179 0.03607 0.64497 0.0
C360 C 0.36127 0.02033 0.62789 0.0
C361 C 0.34159 0.02839 0.59112 0.0
C362 C 0.42278 0.00046 0.75629 0.0
C363 C 0.44626 0.00724 0.72422 0.0
C364 C 0.40183 0.01012 0.73159 0.0
C365 C 0.40403 0.0268 0.67459 0.0
C366 C 0.42761 0.0337 0.64308 0.0
C367 C 0.44852 0.02391 0.66743 0.0
H368 H 0.44351 0.33245 0.61131 0.0
H369 H 0.40963 0.36508 0.43102 0.0
H370 H 0.45603 0.37227 0.66581 0.0
H371 H 0.42334 0.40434 0.48156 0.0
H372 H 0.44275 0.47524 0.58939 0.0
H373 H 0.42176 0.43566 0.56873 0.0
H374 H 0.48562 0.40325 0.64315 0.0
H375 H 0.50554 0.44313 0.66925 0.0
C376 C 0.43852 0.3481 0.58378 0.0
C377 C 0.42571 0.34556 0.51659 0.0
C378 C 0.44593 0.37096 0.61448 0.0
C379 C 0.44108 0.39175 0.5778 0.0
C380 C 0.42717 0.38902 0.51266 0.0
C381 C 0.41939 0.36631 0.48305 0.0
C382 C 0.45211 0.45957 0.60181 0.0
C383 C 0.47582 0.46204 0.62972 0.0
C384 C 0.44017 0.43683 0.58968 0.0
C385 C 0.45208 0.41599 0.60263 0.0
C386 C 0.47561 0.4187 0.63315 0.0
C387 C 0.48723 0.44154 0.64735 0.0
H388 H 0.18174 0.46659 0.51713 0.0
H389 H 0.19027 0.54405 0.5403 0.0
H390 H 0.14124 0.4672 0.58284 0.0
H391 H 0.14999 0.54457 0.60728 0.0
H392 H 0.06551 0.53418 0.57361 0.0
H393 H 0.11003 0.53579 0.54991 0.0
H394 H 0.11442 0.47715 0.69685 0.0
H395 H 0.06945 0.47535 0.71964 0.0
C396 C 0.17532 0.48369 0.53828 0.0
C397 C 0.18893 0.50531 0.52204 0.0
C398 C 0.15214 0.48403 0.57627 0.0
C399 C 0.14228 0.50597 0.59886 0.0
C400 C 0.15694 0.52743 0.58902 0.0
C401 C 0.18003 0.52711 0.55083 0.0
C402 C 0.07602 0.52182 0.60147 0.0
C403 C 0.06416 0.50457 0.64797 0.0
C404 C 0.10155 0.52289 0.58864 0.0
C405 C 0.11574 0.50665 0.62183 0.0
C406 C 0.10391 0.48982 0.67037 0.0
C407 C 0.07827 0.48884 0.68354 0.0
H408 H 0.95128 0.82913 0.97364 0.0
H409 H 0.96644 0.82146 0.73241 0.0
H410 H 0.97027 0.86962 0.97576 0.0
H411 H 0.98333 0.86309 0.73239 0.0
H412 H 0.03119 0.93292 0.76488 0.0
H413 H 0.01637 0.89058 0.765 0.0
H414 H 0.962 0.90761 0.94374 0.0
H415 H 0.97771 0.94943 0.94551 0.0
C416 C 0.95928 0.83585 0.92138 0.0
C417 C 0.95827 0.82166 0.85371 0.0
C418 C 0.96954 0.85946 0.92195 0.0
C419 C 0.97838 0.86983 0.85416 0.0
C420 C 0.97719 0.85566 0.786 0.0
C421 C 0.96728 0.83184 0.78585 0.0
C422 C 0.01617 0.92742 0.80429 0.0
C423 C 0.00566 0.94427 0.85545 0.0
C424 C 0.00755 0.90322 0.80416 0.0
C425 C 0.98799 0.8955 0.85459 0.0
C426 C 0.97748 0.91262 0.90539 0.0
C427 C 0.98638 0.93667 0.90628 0.0
H428 H 0.657 0.92507 0.9171 0.0
H429 H 0.69452 0.99471 0.96185 0.0
H430 H 0.61996 0.94441 0.88602 0.0
H431 H 0.65774 0.01401 0.92941 0.0
H432 H 0.59609 0.03332 0.76896 0.0
H433 H 0.633 0.01448 0.80237 0.0
H434 H 0.58931 0.97354 0.96766 0.0
H435 H 0.55265 0.99349 0.93738 0.0
C436 C 0.65733 0.94449 0.91974 0.0
C437 C 0.67845 0.95846 0.9423 0.0
C438 C 0.63618 0.9555 0.90249 0.0
C439 C 0.63608 0.98065 0.90563 0.0
C440 C 0.65741 0.99459 0.92655 0.0
C441 C 0.67833 0.98358 0.94539 0.0
C442 C 0.59443 0.02045 0.81286 0.0
C443 C 0.57142 0.01434 0.84933 0.0
C444 C 0.61549 0.00967 0.83177 0.0
C445 C 0.61385 0.99237 0.88678 0.0
C446 C 0.59092 0.98651 0.92404 0.0
C447 C 0.56995 0.99771 0.90626 0.0
H448 H 0.61148 0.66 0.79015 0.0
H449 H 0.55662 0.68933 0.94708 0.0
H450 H 0.58809 0.62072 0.79039 0.0
H451 H 0.53301 0.65017 0.94578 0.0
H452 H 0.49043 0.58282 0.80356 0.0
H453 H 0.51377 0.62211 0.8116 0.0
H454 H 0.57193 0.59062 0.91972 0.0
H455 H 0.5483 0.55146 0.9138 0.0
C456 C 0.59445 0.658 0.82465 0.0
C457 C 0.58595 0.67753 0.86928 0.0
C458 C 0.58119 0.6356 0.82494 0.0
C459 C 0.55891 0.6326 0.86829 0.0
C460 C 0.55022 0.65216 0.9122 0.0
C461 C 0.56377 0.67442 0.91327 0.0
C462 C 0.50809 0.58441 0.82965 0.0
C463 C 0.51757 0.56429 0.85846 0.0
C464 C 0.52135 0.60678 0.83432 0.0
C465 C 0.54451 0.6092 0.86632 0.0
C466 C 0.55405 0.58907 0.89496 0.0
C467 C 0.54052 0.56681 0.89192 0.0
H468 H 0.81183 0.50755 0.96877 0.0
H469 H 0.84279 0.57835 0.91606 0.0
H470 H 0.85223 0.49157 0.94034 0.0
H471 H 0.88295 0.56252 0.88784 0.0
H472 H 0.94206 0.52418 0.75759 0.0
H473 H 0.90063 0.53622 0.78805 0.0
H474 H 0.89559 0.49365 0.9856 0.0
H475 H 0.93731 0.4809 0.95337 0.0
C476 C 0.82738 0.51977 0.95288 0.0
C477 C 0.82428 0.54426 0.94571 0.0
C478 C 0.85044 0.51061 0.93618 0.0
C479 C 0.87072 0.52576 0.91156 0.0
C480 C 0.8676 0.5503 0.9055 0.0
C481 C 0.84463 0.5594 0.92195 0.0
C482 C 0.93201 0.51695 0.80669 0.0
C483 C 0.94289 0.50153 0.853 0.0
C484 C 0.90834 0.52412 0.8247 0.0
C485 C 0.89499 0.5162 0.88986 0.0
C486 C 0.90545 0.50001 0.9349 0.0
C487 C 0.92929 0.49276 0.91665 0.0
H488 H 0.01345 0.17834 0.23359 0.0
H489 H 0.09205 0.17559 0.1869 0.0
H490 H 0.00583 0.1449 0.1422 0.0
H491 H 0.08434 0.14226 0.09417 0.0
H492 H 0.0603 0.06321 0.02345 0.0
H493 H 0.06935 0.09986 0.10165 0.0
H494 H 0.00865 0.13217 0.00837 0.0
H495 H -0.00059 0.09536 0.9313 0.0
C496 C 0.02911 0.17088 0.20284 0.0
C497 C 0.05337 0.17952 0.21798 0.0
C498 C 0.02472 0.15174 0.15015 0.0
C499 C 0.04449 0.14077 0.1114 0.0
C500 C 0.06874 0.15009 0.12405 0.0
C501 C 0.07314 0.16932 0.17667 0.0
C502 C 0.04893 0.07817 0.01983 0.0
C503 C 0.02904 0.07644 0.97203 0.0
C504 C 0.05424 0.09923 0.06398 0.0
C505 C 0.03974 0.11895 0.06113 0.0
C506 C 0.01999 0.11722 0.01249 0.0
C507 C 0.01472 0.09617 0.96834 0.0
H508 H 0.40638 0.08903 0.31386 0.0
H509 H 0.35032 0.04853 0.18624 0.0
H510 H 0.43836 0.07313 0.22764 0.0
H511 H 0.38254 0.03256 0.09983 0.0
H512 H 0.44977 0.99267 0.0032 0.0
H513 H 0.41927 0.00559 0.10152 0.0
H514 H 0.45029 0.07868 0.08919 0.0
H515 H 0.48045 0.0659 0.99134 0.0
C516 C 0.40087 0.07672 0.26742 0.0
C517 C 0.3758 0.07016 0.25655 0.0
C518 C 0.4192 0.06763 0.21813 0.0
C519 C 0.41291 0.05157 0.15731 0.0
C520 C 0.38789 0.04471 0.14685 0.0
C521 C 0.36947 0.05404 0.19578 0.0
C522 C 0.45034 0.01138 0.02284 0.0
C523 C 0.46746 0.02829 0.9899 0.0
C524 C 0.43276 0.0188 0.07832 0.0
C525 C 0.43238 0.04314 0.10255 0.0
C526 C 0.45024 0.05979 0.07192 0.0
C527 C 0.46748 0.05248 0.01584 0.0
H528 H 0.44589 0.32464 0.11321 0.0
H529 H 0.37898 0.36113 0.15981 0.0
H530 H 0.46197 0.35654 0.03137 0.0
H531 H 0.39488 0.39271 0.07721 0.0
H532 H 0.44552 0.4593 0.02094 0.0
H533 H 0.42742 0.42496 0.08892 0.0
H534 H 0.45707 0.3768 0.91352 0.0
H535 H 0.4755 0.41131 0.84604 0.0
C536 C 0.43441 0.33919 0.1048 0.0
C537 C 0.41128 0.34049 0.14374 0.0
C538 C 0.44361 0.35746 0.05779 0.0
C539 C 0.42985 0.37735 0.04879 0.0
C540 C 0.40615 0.3779 0.08434 0.0
C541 C 0.39697 0.35969 0.13126 0.0
C542 C 0.44816 0.44137 0.99702 0.0
C543 C 0.46195 0.43791 0.92856 0.0
C544 C 0.43764 0.4217 0.03555 0.0
C545 C 0.44068 0.39813 0.00635 0.0
C546 C 0.45455 0.39471 0.93774 0.0
C547 C 0.46505 0.41443 0.8991 0.0
H548 H 0.19537 0.51114 0.13394 0.0
H549 H 0.15143 0.45171 0.23019 0.0
H550 H 0.16131 0.5186 0.05573 0.0
H551 H 0.11784 0.45865 0.15086 0.0
H552 H 0.05263 0.49143 0.06275 0.0
H553 H 0.08745 0.48674 0.14077 0.0
H554 H 0.13802 0.50275 0.95022 0.0
H555 H 0.1031 0.50822 0.87324 0.0
C556 C 0.17858 0.49948 0.13767 0.0
C557 C 0.17607 0.4809 0.18849 0.0
C558 C 0.15906 0.50373 0.09278 0.0
C559 C 0.13669 0.4894 0.09756 0.0
C560 C 0.13454 0.47042 0.14697 0.0
C561 C 0.15393 0.46629 0.19203 0.0
C562 C 0.07121 0.49419 0.03798 0.0
C563 C 0.07522 0.50015 0.96216 0.0
C564 C 0.09117 0.4913 0.08235 0.0
C565 C 0.11558 0.49408 0.05156 0.0
C566 C 0.11952 0.50068 0.97602 0.0
C567 C 0.09953 0.50374 0.93183 0.0
H568 H 0.93791 0.87274 0.19287 0.0
H569 H 0.98639 0.82151 0.26477 0.0
H570 H 0.9478 0.89917 0.30179 0.0
H571 H 0.99547 0.84754 0.37674 0.0
H572 H 0.02666 0.91331 0.52052 0.0
H573 H 0.01667 0.884 0.41709 0.0
H574 H 0.94122 0.90423 0.4325 0.0
H575 H 0.95173 0.93427 0.53233 0.0
C576 C 0.95043 0.86696 0.23272 0.0
C577 C 0.96134 0.84503 0.22036 0.0
C578 C 0.95599 0.88207 0.2957 0.0
C579 C 0.97228 0.87546 0.34883 0.0
C580 C 0.98308 0.85337 0.33666 0.0
C581 C 0.97778 0.83838 0.27277 0.0
C582 C 0.00795 0.91129 0.50174 0.0
C583 C 0.99002 0.92615 0.53338 0.0
C584 C 0.00215 0.89443 0.44283 0.0
C585 C 0.97818 0.89191 0.41549 0.0
C586 C 0.96003 0.9061 0.45031 0.0
C587 C 0.96597 0.9232 0.50799 0.0
H588 H 0.61894 0.94115 0.26355 0.0
H589 H 0.64267 0.01659 0.28463 0.0
H590 H 0.58862 0.9466 0.36855 0.0
H591 H 0.61246 0.02194 0.39007 0.0
H592 H 0.53965 0.02697 0.52776 0.0
H593 H 0.56706 0.02052 0.41623 0.0
H594 H 0.58952 0.95593 0.50751 0.0
H595 H 0.56194 0.96218 0.61901 0.0
C596 C 0.61764 0.95891 0.29039 0.0
C597 C 0.63326 0.97844 0.26592 0.0
C598 C 0.60036 0.96198 0.35077 0.0
C599 C 0.59822 0.98467 0.38757 0.0
C600 C 0.61353 0.00428 0.36227 0.0
C601 C 0.63092 0.00119 0.30217 0.0
C602 C 0.55026 0.01127 0.52391 0.0
C603 C 0.54864 0.99511 0.58245 0.0
C604 C 0.56607 0.00768 0.46017 0.0
C605 C 0.58051 0.98781 0.45337 0.0
C606 C 0.57845 0.97131 0.51093 0.0
C607 C 0.56272 0.97496 0.57494 0.0
H608 H 0.5232 0.68033 0.28302 0.0
H609 H 0.59342 0.6499 0.23343 0.0
H610 H 0.51431 0.65307 0.3857 0.0
H611 H 0.5847 0.62303 0.33671 0.0
H612 H 0.54455 0.55806 0.45046 0.0
H613 H 0.55623 0.58806 0.35788 0.0
H614 H 0.52699 0.64297 0.51131 0.0
H615 H 0.51495 0.61267 0.60386 0.0
C616 C 0.53685 0.66802 0.2945 0.0
C617 C 0.55891 0.66714 0.24958 0.0
C618 C 0.53182 0.65251 0.35365 0.0
C619 C 0.54874 0.63579 0.369 0.0
C620 C 0.57112 0.63544 0.32552 0.0
C621 C 0.57615 0.65093 0.2665 0.0
C622 C 0.54078 0.57657 0.46458 0.0
C623 C 0.5288 0.58309 0.53401 0.0
C624 C 0.5476 0.59379 0.41177 0.0
C625 C 0.54255 0.6179 0.42728 0.0
C626 C 0.53089 0.62448 0.49746 0.0
C627 C 0.52412 0.60721 0.5505 0.0
H628 H 0.8725 0.46977 0.161 0.0
H629 H 0.82659 0.51058 0.3194 0.0
H630 H 0.90159 0.4664 0.25947 0.0
H631 H 0.85592 0.50774 0.41692 0.0
H632 H 0.90529 0.48492 0.59385 0.0
H633 H 0.87405 0.48139 0.49872 0.0
H634 H 0.93123 0.49381 0.32302 0.0
H635 H 0.96235 0.49668 0.41788 0.0
C636 C 0.86849 0.47783 0.21695 0.0
C637 C 0.84732 0.49059 0.23221 0.0
C638 C 0.88525 0.47604 0.27321 0.0
C639 C 0.88119 0.48699 0.34583 0.0
C640 C 0.8595 0.49889 0.36185 0.0
C641 C 0.84274 0.50064 0.30572 0.0
C642 C 0.9111 0.48673 0.53477 0.0
C643 C 0.93613 0.49115 0.51299 0.0
C644 C 0.89325 0.4848 0.48038 0.0
C645 C 0.90015 0.48732 0.40327 0.0
C646 C 0.92531 0.49139 0.38171 0.0
C647 C 0.94312 0.49324 0.43604 0.0
loop_
_geom_bond_atom_site_label_1
_geom_bond_atom_site_label_2
_geom_bond_distance
_geom_bond_site_symmetry_2
_ccdc_geom_bond_type
O0 Cd1 2.300 1_556 S
O0 C7 1.275 . S
Cd1 O0 2.300 1_554 S
Cd1 O9 2.381 1_554 S
Cd1 O10 2.378 . S
O2 Cd3 2.385 . S
O2 C7 1.255 1_554 S
Cd3 O2 2.385 . S
Cd3 O4 2.317 . S
O4 Cd3 2.317 . S
O4 C5 1.232 . S
C5 O4 1.232 . S
C5 O6 1.218 . S
O6 C5 1.218 . S
C7 O0 1.275 . S
C7 O2 1.255 1_556 S
C8 O9 1.258 1_554 S
C8 O10 1.256 . S
O9 Cd1 2.381 1_556 S
O9 C8 1.258 1_556 S
O10 Cd1 2.378 . S
O10 C8 1.256 . S
O11 Cd12 2.300 . S
O11 C18 1.275 . S
Cd12 O11 2.300 . S
Cd12 O20 2.381 . S
Cd12 O21 2.378 1_556 S
O13 Cd14 2.385 . S
O13 C18 1.255 1_554 S
Cd14 O13 2.385 . S
Cd14 O15 2.317 . S
O15 Cd14 2.317 . S
O15 C16 1.232 . S
C16 O15 1.232 . S
C16 O17 1.218 . S
O17 C16 1.218 . S
C18 O11 1.275 . S
C18 O13 1.255 1_556 S
C19 O20 1.258 . S
C19 O21 1.256 1_556 S
O20 Cd12 2.381 . S
O20 C19 1.258 . S
O21 Cd12 2.378 1_554 S
O21 C19 1.256 1_554 S
O22 Cd23 2.300 1_556 S
O22 C29 1.274 1_556 S
Cd23 O22 2.300 1_554 S
Cd23 O31 2.381 1_554 S
Cd23 O32 2.378 . S
O24 Cd25 2.385 1_565 S
O24 C29 1.258 . S
Cd25 O24 2.385 1_545 S
Cd25 O26 2.317 1_545 S
O26 Cd25 2.317 1_565 S
O26 C27 1.232 . S
C27 O26 1.232 . S
C27 O28 1.218 . S
O28 C27 1.218 . S
C29 O22 1.274 1_554 S
C29 O24 1.258 . S
C30 O31 1.258 1_554 S
C30 O32 1.256 . S
O31 Cd23 2.381 1_556 S
O31 C30 1.258 1_556 S
O32 Cd23 2.378 . S
O32 C30 1.256 . S
O33 Cd34 2.300 1_556 S
O33 C40 1.275 1_556 S
Cd34 O33 2.300 1_554 S
Cd34 O42 2.381 1_554 S
Cd34 O43 2.378 . S
O35 Cd36 2.385 . S
O35 C40 1.255 . S
Cd36 O35 2.385 . S
Cd36 O37 2.317 . S
O37 Cd36 2.317 . S
O37 C38 1.232 . S
C38 O37 1.232 . S
C38 O39 1.218 . S
O39 C38 1.218 . S
C40 O33 1.275 1_554 S
C40 O35 1.255 . S
C41 O42 1.258 1_554 S
C41 O43 1.256 . S
O42 Cd34 2.381 1_556 S
O42 C41 1.258 1_556 S
O43 Cd34 2.378 . S
O43 C41 1.256 . S
O44 Cd45 2.300 . S
O44 C51 1.275 . S
Cd45 O44 2.300 . S
Cd45 O53 2.381 . S
Cd45 O54 2.378 . S
O46 Cd47 2.385 . S
O46 C51 1.255 . S
Cd47 O46 2.385 . S
Cd47 O48 2.317 . S
O48 Cd47 2.317 . S
O48 C49 1.232 . S
C49 O48 1.232 . S
C49 O50 1.218 . S
O50 C49 1.218 . S
C51 O44 1.275 . S
C51 O46 1.255 . S
C52 O53 1.258 . S
C52 O54 1.256 . S
O53 Cd45 2.381 . S
O53 C52 1.258 . S
O54 Cd45 2.378 . S
O54 C52 1.256 . S
O55 Cd56 2.300 . S
O55 C62 1.275 . S
Cd56 O55 2.300 . S
Cd56 O64 2.381 . S
Cd56 O65 2.378 . S
O57 Cd58 2.385 . S
O57 C62 1.255 . S
Cd58 O57 2.385 . S
Cd58 O59 2.317 . S
O59 Cd58 2.317 . S
O59 C60 1.232 . S
C60 O59 1.232 . S
C60 O61 1.218 . S
O61 C60 1.218 . S
C62 O55 1.275 . S
C62 O57 1.255 . S
C63 O64 1.258 . S
C63 O65 1.256 . S
O64 Cd56 2.381 . S
O64 C63 1.258 . S
O65 Cd56 2.378 . S
O65 C63 1.256 . S
O66 Cd67 2.300 . S
O66 C73 1.275 . S
Cd67 O66 2.300 . S
Cd67 O75 2.381 . S
Cd67 O76 2.378 . S
O68 Cd69 2.385 . S
O68 C73 1.255 . S
Cd69 O68 2.385 . S
Cd69 O70 2.317 . S
O70 Cd69 2.317 . S
O70 C71 1.232 . S
C71 O70 1.232 . S
C71 O72 1.218 . S
O72 C71 1.218 . S
C73 O66 1.275 . S
C73 O68 1.255 . S
C74 O75 1.258 . S
C74 O76 1.256 . S
O75 Cd67 2.381 . S
O75 C74 1.258 . S
O76 Cd67 2.378 . S
O76 C74 1.256 . S
O77 Cd78 2.300 . S
O77 C84 1.275 . S
Cd78 O77 2.300 . S
Cd78 O86 2.381 . S
Cd78 O87 2.378 . S
O79 Cd80 2.385 . S
O79 C84 1.255 . S
Cd80 O79 2.385 . S
Cd80 O81 2.317 . S
O81 Cd80 2.317 . S
O81 C82 1.232 . S
C82 O81 1.232 . S
C82 O83 1.218 . S
O83 C82 1.218 . S
C84 O77 1.275 . S
C84 O79 1.255 . S
C85 O86 1.258 . S
C85 O87 1.256 . S
O86 Cd78 2.381 . S
O86 C85 1.258 . S
O87 Cd78 2.378 . S
O87 C85 1.256 . S
Tb88 O91 2.420 1_565 S
Tb88 O92 2.573 1_665 S
Tb88 O93 2.375 1_665 S
Tb88 O101 2.360 1_655 S
Tb88 O103 2.348 1_565 S
Tb88 O105 2.453 . S
Tb88 O106 2.543 1_655 S
C89 O93 1.251 . S
C89 O95 1.263 . S
Tb90 O92 2.343 . S
Tb90 O95 2.353 . S
Tb90 O98 2.427 . S
Tb90 O99 2.513 . S
Tb90 O100 2.453 1_545 S
Tb90 O101 2.596 1_545 S
Tb90 O102 2.374 1_455 S
O91 Tb88 2.420 1_545 S
O91 C107 1.245 1_655 S
O92 Tb88 2.573 1_445 S
O92 Tb90 2.343 . S
O92 C107 1.259 . S
O93 Tb88 2.375 1_445 S
O93 C89 1.251 . S
C94 O98 1.275 . S
C94 O99 1.246 . S
O95 C89 1.263 . S
O95 Tb90 2.353 . S
C96 O100 1.245 . S
C96 O101 1.259 . S
C97 O102 1.250 . S
C97 O103 1.263 . S
O98 Tb90 2.427 . S
O98 C94 1.275 . S
O99 Tb90 2.513 . S
O99 C94 1.246 . S
O100 Tb90 2.453 1_565 S
O100 C96 1.245 . S
O101 Tb88 2.360 1_455 S
O101 Tb90 2.596 1_565 S
O101 C96 1.259 . S
O102 Tb90 2.374 1_655 S
O102 C97 1.250 . S
O103 Tb88 2.348 1_545 S
O103 C97 1.263 . S
C104 O105 1.275 . S
C104 O106 1.246 1_655 S
O105 Tb88 2.453 . S
O105 C104 1.275 . S
O106 Tb88 2.543 1_455 S
O106 C104 1.246 1_455 S
C107 O91 1.245 1_455 S
C107 O92 1.259 . S
Tb108 O111 2.453 . S
Tb108 O112 2.596 1_545 S
Tb108 O113 2.374 . S
Tb108 O121 2.343 . S
Tb108 O123 2.353 . S
Tb108 O125 2.427 . S
Tb108 O126 2.513 . S
C109 O113 1.231 1_565 S
C109 O115 1.278 . S
Tb110 O112 2.343 . S
Tb110 O115 2.353 . S
Tb110 O118 2.427 . S
Tb110 O119 2.513 . S
Tb110 O120 2.453 . S
Tb110 O121 2.596 1_565 S
Tb110 O122 2.374 . S
O111 Tb108 2.453 . S
O111 C127 1.245 . S
O112 Tb108 2.596 1_565 S
O112 Tb110 2.343 . S
O112 C127 1.259 1_565 S
O113 Tb108 2.374 . S
O113 C109 1.231 1_545 S
C114 O118 1.275 . S
C114 O119 1.246 . S
O115 C109 1.278 . S
O115 Tb110 2.353 . S
C116 O120 1.245 1_545 S
C116 O121 1.259 . S
C117 O122 1.250 1_545 S
C117 O123 1.263 . S
O118 Tb110 2.427 . S
O118 C114 1.275 . S
O119 Tb110 2.513 . S
O119 C114 1.246 . S
O120 Tb110 2.453 . S
O120 C116 1.245 1_565 S
O121 Tb108 2.343 . S
O121 Tb110 2.596 1_545 S
O121 C116 1.259 . S
O122 Tb110 2.374 . S
O122 C117 1.250 1_565 S
O123 Tb108 2.353 . S
O123 C117 1.263 . S
C124 O125 1.275 . S
C124 O126 1.246 . S
O125 Tb108 2.427 . S
O125 C124 1.275 . S
O126 Tb108 2.513 . S
O126 C124 1.246 . S
C127 O111 1.245 . S
C127 O112 1.259 1_545 S
Tb128 O131 2.453 . S
Tb128 O132 2.596 . S
Tb128 O133 2.374 . S
Tb128 O141 2.343 . S
Tb128 O143 2.353 . S
Tb128 O145 2.427 . S
Tb128 O146 2.513 . S
C129 O133 1.251 . S
C129 O135 1.263 . S
Tb130 O132 2.343 . S
Tb130 O135 2.353 . S
Tb130 O138 2.427 . S
Tb130 O139 2.513 . S
Tb130 O140 2.453 . S
Tb130 O141 2.596 . S
Tb130 O142 2.374 . S
O131 Tb128 2.453 . S
O131 C147 1.245 . S
O132 Tb128 2.596 . S
O132 Tb130 2.343 . S
O132 C147 1.259 . S
O133 Tb128 2.374 . S
O133 C129 1.251 . S
C134 O138 1.275 . S
C134 O139 1.246 . S
O135 C129 1.263 . S
O135 Tb130 2.353 . S
C136 O140 1.245 . S
C136 O141 1.259 . S
C137 O142 1.250 . S
C137 O143 1.263 . S
O138 Tb130 2.427 . S
O138 C134 1.275 . S
O139 Tb130 2.513 . S
O139 C134 1.246 . S
O140 Tb130 2.453 . S
O140 C136 1.245 . S
O141 Tb128 2.343 . S
O141 Tb130 2.596 . S
O141 C136 1.259 . S
O142 Tb130 2.374 . S
O142 C137 1.250 . S
O143 Tb128 2.353 . S
O143 C137 1.263 . S
C144 O145 1.275 . S
C144 O146 1.246 . S
O145 Tb128 2.427 . S
O145 C144 1.275 . S
O146 Tb128 2.513 . S
O146 C144 1.246 . S
C147 O131 1.245 . S
C147 O132 1.259 . S
Tb148 O151 2.453 1_655 S
Tb148 O152 2.596 1_655 S
Tb148 O153 2.374 1_655 S
Tb148 O161 2.343 . S
Tb148 O163 2.353 1_655 S
Tb148 O165 2.427 . S
Tb148 O166 2.513 . S
C149 O153 1.251 . S
C149 O155 1.263 . S
Tb150 O152 2.343 . S
Tb150 O155 2.353 . S
Tb150 O158 2.427 . S
Tb150 O159 2.513 . S
Tb150 O160 2.453 1_455 S
Tb150 O161 2.596 1_455 S
Tb150 O162 2.374 . S
O151 Tb148 2.453 1_455 S
O151 C167 1.245 . S
O152 Tb148 2.596 1_455 S
O152 Tb150 2.343 . S
O152 C167 1.259 . S
O153 Tb148 2.374 1_455 S
O153 C149 1.251 . S
C154 O158 1.275 . S
C154 O159 1.246 . S
O155 C149 1.263 . S
O155 Tb150 2.353 . S
C156 O160 1.245 . S
C156 O161 1.259 . S
C157 O162 1.250 . S
C157 O163 1.263 . S
O158 Tb150 2.427 . S
O158 C154 1.275 . S
O159 Tb150 2.513 . S
O159 C154 1.246 . S
O160 Tb150 2.453 1_655 S
O160 C156 1.245 . S
O161 Tb148 2.343 . S
O161 Tb150 2.596 1_655 S
O161 C156 1.259 . S
O162 Tb150 2.374 . S
O162 C157 1.250 . S
O163 Tb148 2.353 1_455 S
O163 C157 1.263 . S
C164 O165 1.275 . S
C164 O166 1.246 . S
O165 Tb148 2.427 . S
O165 C164 1.275 . S
O166 Tb148 2.513 . S
O166 C164 1.246 . S
C167 O151 1.245 . S
C167 O152 1.259 . S
H168 C176 0.950 . S
H169 C181 0.950 . S
H170 C178 0.950 . S
H171 C180 0.950 . S
H172 C182 0.950 . S
H173 C184 0.950 . S
H174 C186 0.950 . S
H175 C187 0.950 . S
C176 H168 0.950 . S
C176 C177 1.386 . S
C176 C178 1.391 . S
C177 C176 1.386 . S
C177 C181 1.393 . S
C178 H170 0.950 . S
C178 C176 1.391 . S
C178 C179 1.400 . S
C179 C178 1.400 . S
C179 C180 1.398 . S
C179 C185 1.491 . S
C180 H171 0.950 . S
C180 C179 1.398 . S
C180 C181 1.391 . S
C181 H169 0.950 . S
C181 C177 1.393 . S
C181 C180 1.391 . S
C182 H172 0.950 . S
C182 C183 1.386 . S
C182 C184 1.391 . S
C183 C182 1.386 . S
C183 C187 1.393 . S
C184 H173 0.950 . S
C184 C182 1.391 . S
C184 C185 1.400 . S
C185 C179 1.491 . S
C185 C184 1.400 . S
C185 C186 1.398 . S
C186 H174 0.950 . S
C186 C185 1.398 . S
C186 C187 1.391 . S
C187 H175 0.950 . S
C187 C183 1.393 . S
C187 C186 1.391 . S
H188 C196 0.950 . S
H189 C201 0.950 . S
H190 C198 0.950 . S
H191 C200 0.950 . S
H192 C202 0.950 . S
H193 C204 0.950 . S
H194 C206 0.950 . S
H195 C207 0.950 . S
C196 H188 0.950 . S
C196 C197 1.386 . S
C196 C198 1.391 . S
C197 C196 1.386 . S
C197 C201 1.393 . S
C198 H190 0.950 . S
C198 C196 1.391 . S
C198 C199 1.400 . S
C199 C198 1.400 . S
C199 C200 1.398 . S
C199 C205 1.491 . S
C200 H191 0.950 . S
C200 C199 1.398 . S
C200 C201 1.391 . S
C201 H189 0.950 . S
C201 C197 1.393 . S
C201 C200 1.391 . S
C202 H192 0.950 . S
C202 C203 1.386 . S
C202 C204 1.391 . S
C203 C202 1.386 . S
C203 C207 1.393 . S
C204 H193 0.950 . S
C204 C202 1.391 . S
C204 C205 1.400 . S
C205 C199 1.491 . S
C205 C204 1.400 . S
C205 C206 1.398 . S
C206 H194 0.950 . S
C206 C205 1.398 . S
C206 C207 1.391 . S
C207 H195 0.950 . S
C207 C203 1.393 . S
C207 C206 1.391 . S
H208 C216 0.950 . S
H209 C221 0.950 . S
H210 C218 0.950 . S
H211 C220 0.950 . S
H212 C222 0.950 . S
H213 C224 0.950 . S
H214 C226 0.950 . S
H215 C227 0.950 . S
C216 H208 0.950 . S
C216 C217 1.386 . S
C216 C218 1.391 . S
C217 C216 1.386 . S
C217 C221 1.393 . S
C218 H210 0.950 . S
C218 C216 1.391 . S
C218 C219 1.400 . S
C219 C218 1.400 . S
C219 C220 1.398 . S
C219 C225 1.491 . S
C220 H211 0.950 . S
C220 C219 1.398 . S
C220 C221 1.391 . S
C221 H209 0.950 . S
C221 C217 1.393 . S
C221 C220 1.391 . S
C222 H212 0.950 . S
C222 C223 1.386 . S
C222 C224 1.391 . S
C223 C222 1.386 . S
C223 C227 1.393 . S
C224 H213 0.950 . S
C224 C222 1.391 . S
C224 C225 1.400 . S
C225 C219 1.491 . S
C225 C224 1.400 . S
C225 C226 1.398 . S
C226 H214 0.950 . S
C226 C225 1.398 . S
C226 C227 1.391 . S
C227 H215 0.950 . S
C227 C223 1.393 . S
C227 C226 1.391 . S
H228 C236 0.950 . S
H229 C241 0.950 . S
H230 C238 0.950 . S
H231 C240 0.950 . S
H232 C242 0.950 . S
H233 C244 0.950 . S
H234 C246 0.936 1_655 S
H235 C247 0.950 1_655 S
C236 H228 0.950 . S
C236 C237 1.386 . S
C236 C238 1.391 . S
C237 C236 1.386 . S
C237 C241 1.393 . S
C238 H230 0.950 . S
C238 C236 1.391 . S
C238 C239 1.400 . S
C239 C238 1.400 . S
C239 C240 1.398 . S
C239 C245 1.491 . S
C240 H231 0.950 . S
C240 C239 1.398 . S
C240 C241 1.391 . S
C241 H229 0.950 . S
C241 C237 1.393 . S
C241 C240 1.391 . S
C242 H232 0.950 . S
C242 C243 1.386 . S
C242 C244 1.391 . S
C243 C242 1.386 . S
C243 C247 1.393 . S
C244 H233 0.950 . S
C244 C242 1.391 . S
C244 C245 1.400 . S
C245 C239 1.491 . S
C245 C244 1.400 . S
C245 C246 1.398 . S
C246 H234 0.936 1_455 S
C246 C245 1.398 . S
C246 C247 1.391 . S
C247 H235 0.950 1_455 S
C247 C243 1.393 . S
C247 C246 1.391 . S
H248 C256 0.950 . S
H249 C261 0.950 . S
H250 C258 0.950 1_554 S
H251 C260 0.950 . S
H252 C262 0.950 . S
H253 C264 0.950 . S
H254 C266 0.950 . S
H255 C267 0.950 1_545 S
C256 H248 0.950 . S
C256 C257 1.386 1_554 S
C256 C258 1.391 1_554 S
C257 C256 1.386 1_556 S
C257 C261 1.393 . S
C258 H250 0.950 1_556 S
C258 C256 1.391 1_556 S
C258 C259 1.400 . S
C259 C258 1.400 . S
C259 C260 1.398 . S
C259 C265 1.491 . S
C260 H251 0.950 . S
C260 C259 1.398 . S
C260 C261 1.391 . S
C261 H249 0.950 . S
C261 C257 1.393 . S
C261 C260 1.391 . S
C262 H252 0.950 . S
C262 C263 1.386 . S
C262 C264 1.391 . S
C263 C262 1.386 . S
C263 C267 1.393 . S
C264 H253 0.950 . S
C264 C262 1.391 . S
C264 C265 1.400 . S
C265 C259 1.491 . S
C265 C264 1.400 . S
C265 C266 1.398 . S
C266 H254 0.950 . S
C266 C265 1.398 . S
C266 C267 1.391 . S
C267 H255 0.950 1_565 S
C267 C263 1.393 . S
C267 C266 1.391 . S
H268 C276 0.950 . S
H269 C281 0.950 . S
H270 C278 0.950 . S
H271 C280 0.950 1_554 S
H272 C282 0.950 . S
H273 C284 0.950 . S
H274 C286 0.950 . S
H275 C287 0.950 . S
C276 H268 0.950 . S
C276 C277 1.386 . S
C276 C278 1.391 . S
C277 C276 1.386 . S
C277 C281 1.393 1_556 S
C278 H270 0.950 . S
C278 C276 1.391 . S
C278 C279 1.400 . S
C279 C278 1.400 . S
C279 C280 1.398 . S
C279 C285 1.491 . S
C280 H271 0.950 1_556 S
C280 C279 1.398 . S
C280 C281 1.391 1_556 S
C281 H269 0.950 . S
C281 C277 1.393 1_554 S
C281 C280 1.391 1_554 S
C282 H272 0.950 . S
C282 C283 1.386 . S
C282 C284 1.391 . S
C283 C282 1.386 . S
C283 C287 1.393 . S
C284 H273 0.950 . S
C284 C282 1.391 . S
C284 C285 1.400 . S
C285 C279 1.491 . S
C285 C284 1.400 . S
C285 C286 1.398 . S
C286 H274 0.950 . S
C286 C285 1.398 . S
C286 C287 1.391 . S
C287 H275 0.950 . S
C287 C283 1.393 . S
C287 C286 1.391 . S
H288 C296 0.950 . S
H289 C301 0.950 . S
H290 C298 0.950 . S
H291 C300 0.950 1_554 S
H292 C302 0.950 . S
H293 C304 0.950 . S
H294 C306 0.950 . S
H295 C307 0.950 . S
C296 H288 0.950 . S
C296 C297 1.386 . S
C296 C298 1.391 . S
C297 C296 1.386 . S
C297 C301 1.393 1_556 S
C298 H290 0.950 . S
C298 C296 1.391 . S
C298 C299 1.400 . S
C299 C298 1.400 . S
C299 C300 1.398 . S
C299 C305 1.491 . S
C300 H291 0.950 1_556 S
C300 C299 1.398 . S
C300 C301 1.391 1_556 S
C301 H289 0.950 . S
C301 C297 1.393 1_554 S
C301 C300 1.391 1_554 S
C302 H292 0.950 . S
C302 C303 1.386 . S
C302 C304 1.391 . S
C303 C302 1.386 . S
C303 C307 1.393 . S
C304 H293 0.950 . S
C304 C302 1.391 . S
C304 C305 1.400 . S
C305 C299 1.491 . S
C305 C304 1.400 . S
C305 C306 1.398 . S
C306 H294 0.950 . S
C306 C305 1.398 . S
C306 C307 1.391 . S
C307 H295 0.950 . S
C307 C303 1.393 . S
C307 C306 1.391 . S
H308 C316 0.950 . S
H309 C321 0.950 . S
H310 C318 0.950 . S
H311 C320 0.950 . S
H312 C322 0.950 . S
H313 C324 0.950 1_455 S
H314 C326 0.950 . S
H315 C327 0.950 . S
C316 H308 0.950 . S
C316 C317 1.386 . S
C316 C318 1.391 . S
C317 C316 1.386 . S
C317 C321 1.393 . S
C318 H310 0.950 . S
C318 C316 1.391 . S
C318 C319 1.400 . S
C319 C318 1.400 . S
C319 C320 1.398 . S
C319 C325 1.491 . S
C320 H311 0.950 . S
C320 C319 1.398 . S
C320 C321 1.391 . S
C321 H309 0.950 . S
C321 C317 1.393 . S
C321 C320 1.391 . S
C322 H312 0.950 . S
C322 C323 1.386 1_455 S
C322 C324 1.391 1_455 S
C323 C322 1.386 1_655 S
C323 C327 1.393 . S
C324 H313 0.950 1_655 S
C324 C322 1.391 1_655 S
C324 C325 1.400 . S
C325 C319 1.491 . S
C325 C324 1.400 . S
C325 C326 1.398 . S
C326 H314 0.950 . S
C326 C325 1.398 . S
C326 C327 1.391 . S
C327 H315 0.950 . S
C327 C323 1.393 . S
C327 C326 1.391 . S
H328 C336 0.950 . S
H329 C341 0.950 . S
H330 C338 0.950 . S
H331 C340 0.950 . S
H332 C342 0.950 1_655 S
H333 C344 0.950 . S
H334 C346 0.950 . S
H335 C347 0.950 . S
C336 H328 0.950 . S
C336 C337 1.386 . S
C336 C338 1.391 . S
C337 C336 1.386 . S
C337 C341 1.393 . S
C338 H330 0.950 . S
C338 C336 1.391 . S
C338 C339 1.400 . S
C339 C338 1.400 . S
C339 C340 1.398 . S
C339 C345 1.491 . S
C340 H331 0.950 . S
C340 C339 1.398 . S
C340 C341 1.391 . S
C341 H329 0.950 . S
C341 C337 1.393 . S
C341 C340 1.391 . S
C342 H332 0.950 1_455 S
C342 C343 1.386 . S
C342 C344 1.391 . S
C343 C342 1.386 . S
C343 C347 1.393 . S
C344 H333 0.950 . S
C344 C342 1.391 . S
C344 C345 1.400 . S
C345 C339 1.491 . S
C345 C344 1.400 . S
C345 C346 1.398 . S
C346 H334 0.950 . S
C346 C345 1.398 . S
C346 C347 1.391 . S
C347 H335 0.950 . S
C347 C343 1.393 . S
C347 C346 1.391 . S
H348 C356 0.950 . S
H349 C361 0.950 . S
H350 C358 0.950 . S
H351 C360 0.950 . S
H352 C362 0.950 . S
H353 C364 0.950 . S
H354 C366 0.950 . S
H355 C367 0.950 . S
C356 H348 0.950 . S
C356 C357 1.386 . S
C356 C358 1.391 . S
C357 C356 1.386 . S
C357 C361 1.393 . S
C358 H350 0.950 . S
C358 C356 1.391 . S
C358 C359 1.400 . S
C359 C358 1.400 . S
C359 C360 1.398 . S
C359 C365 1.491 . S
C360 H351 0.950 . S
C360 C359 1.398 . S
C360 C361 1.391 . S
C361 H349 0.950 . S
C361 C357 1.393 . S
C361 C360 1.391 . S
C362 H352 0.950 . S
C362 C363 1.386 . S
C362 C364 1.391 . S
C363 C362 1.386 . S
C363 C367 1.393 . S
C364 H353 0.950 . S
C364 C362 1.391 . S
C364 C365 1.400 . S
C365 C359 1.491 . S
C365 C364 1.400 . S
C365 C366 1.398 . S
C366 H354 0.950 . S
C366 C365 1.398 . S
C366 C367 1.391 . S
C367 H355 0.950 . S
C367 C363 1.393 . S
C367 C366 1.391 . S
H368 C376 0.950 . S
H369 C381 0.950 . S
H370 C378 0.950 . S
H371 C380 0.950 . S
H372 C382 0.950 . S
H373 C384 0.950 . S
H374 C386 0.950 . S
H375 C387 0.950 . S
C376 H368 0.950 . S
C376 C377 1.386 . S
C376 C378 1.391 . S
C377 C376 1.386 . S
C377 C381 1.393 . S
C378 H370 0.950 . S
C378 C376 1.391 . S
C378 C379 1.400 . S
C379 C378 1.400 . S
C379 C380 1.398 . S
C379 C385 1.491 . S
C380 H371 0.950 . S
C380 C379 1.398 . S
C380 C381 1.391 . S
C381 H369 0.950 . S
C381 C377 1.393 . S
C381 C380 1.391 . S
C382 H372 0.950 . S
C382 C383 1.386 . S
C382 C384 1.391 . S
C383 C382 1.386 . S
C383 C387 1.393 . S
C384 H373 0.950 . S
C384 C382 1.391 . S
C384 C385 1.400 . S
C385 C379 1.491 . S
C385 C384 1.400 . S
C385 C386 1.398 . S
C386 H374 0.950 . S
C386 C385 1.398 . S
C386 C387 1.391 . S
C387 H375 0.950 . S
C387 C383 1.393 . S
C387 C386 1.391 . S
H388 C396 0.950 . S
H389 C401 0.950 . S
H390 C398 0.950 . S
H391 C400 0.950 . S
H392 C402 0.950 . S
H393 C404 0.950 . S
H394 C406 0.950 . S
H395 C407 0.950 . S
C396 H388 0.950 . S
C396 C397 1.386 . S
C396 C398 1.391 . S
C397 C396 1.386 . S
C397 C401 1.393 . S
C398 H390 0.950 . S
C398 C396 1.391 . S
C398 C399 1.400 . S
C399 C398 1.400 . S
C399 C400 1.398 . S
C399 C405 1.491 . S
C400 H391 0.950 . S
C400 C399 1.398 . S
C400 C401 1.391 . S
C401 H389 0.950 . S
C401 C397 1.393 . S
C401 C400 1.391 . S
C402 H392 0.950 . S
C402 C403 1.386 . S
C402 C404 1.391 . S
C403 C402 1.386 . S
C403 C407 1.393 . S
C404 H393 0.950 . S
C404 C402 1.391 . S
C404 C405 1.400 . S
C405 C399 1.491 . S
C405 C404 1.400 . S
C405 C406 1.398 . S
C406 H394 0.950 . S
C406 C405 1.398 . S
C406 C407 1.391 . S
C407 H395 0.950 . S
C407 C403 1.393 . S
C407 C406 1.391 . S
H408 C416 0.950 1_554 S
H409 C421 0.950 . S
H410 C418 0.950 . S
H411 C420 0.950 . S
H412 C422 0.924 1_455 S
H413 C424 0.950 . S
H414 C426 0.950 . S
H415 C427 0.950 . S
C416 H408 0.950 1_556 S
C416 C417 1.386 . S
C416 C418 1.391 . S
C417 C416 1.386 . S
C417 C421 1.393 . S
C418 H410 0.950 . S
C418 C416 1.391 . S
C418 C419 1.400 . S
C419 C418 1.400 . S
C419 C420 1.398 . S
C419 C425 1.491 . S
C420 H411 0.950 . S
C420 C419 1.398 . S
C420 C421 1.391 . S
C421 H409 0.950 . S
C421 C417 1.393 . S
C421 C420 1.391 . S
C422 H412 0.924 1_655 S
C422 C423 1.401 . S
C422 C424 1.403 . S
C423 C422 1.401 . S
C423 C427 1.393 . S
C424 H413 0.950 . S
C424 C422 1.403 . S
C424 C425 1.400 . S
C425 C419 1.491 . S
C425 C424 1.400 . S
C425 C426 1.398 . S
C426 H414 0.950 . S
C426 C425 1.398 . S
C426 C427 1.391 . S
C427 H415 0.950 . S
C427 C423 1.393 . S
C427 C426 1.391 . S
H428 C436 0.950 . S
H429 C441 0.983 . S
H430 C438 0.950 . S
H431 C440 0.950 1_545 S
H432 C442 0.950 . S
H433 C444 0.950 . S
H434 C446 0.950 . S
H435 C447 0.950 . S
C436 H428 0.950 . S
C436 C437 1.386 . S
C436 C438 1.391 . S
C437 C436 1.386 . S
C437 C441 1.390 1_556 S
C438 H430 0.950 . S
C438 C436 1.391 . S
C438 C439 1.400 . S
C439 C438 1.400 . S
C439 C440 1.398 . S
C439 C445 1.491 . S
C440 H431 0.950 1_565 S
C440 C439 1.398 . S
C440 C441 1.384 1_556 S
C441 H429 0.983 . S
C441 C437 1.390 1_554 S
C441 C440 1.384 1_554 S
C442 H432 0.950 . S
C442 C443 1.386 1_545 S
C442 C444 1.391 . S
C443 C442 1.386 1_565 S
C443 C447 1.393 . S
C444 H433 0.950 . S
C444 C442 1.391 . S
C444 C445 1.400 1_545 S
C445 C439 1.491 . S
C445 C444 1.400 1_565 S
C445 C446 1.398 . S
C446 H434 0.950 . S
C446 C445 1.398 . S
C446 C447 1.391 . S
C447 H435 0.950 . S
C447 C443 1.393 . S
C447 C446 1.391 . S
H448 C456 0.950 1_554 S
H449 C461 0.950 . S
H450 C458 0.950 . S
H451 C460 0.950 . S
H452 C462 0.950 . S
H453 C464 0.950 . S
H454 C466 0.950 . S
H455 C467 0.950 . S
C456 H448 0.950 1_556 S
C456 C457 1.386 . S
C456 C458 1.391 . S
C457 C456 1.386 . S
C457 C461 1.393 . S
C458 H450 0.950 . S
C458 C456 1.391 . S
C458 C459 1.400 . S
C459 C458 1.400 . S
C459 C460 1.398 . S
C459 C465 1.491 . S
C460 H451 0.950 . S
C460 C459 1.398 . S
C460 C461 1.391 . S
C461 H449 0.950 . S
C461 C457 1.393 . S
C461 C460 1.391 . S
C462 H452 0.950 . S
C462 C463 1.386 . S
C462 C464 1.391 . S
C463 C462 1.386 . S
C463 C467 1.393 . S
C464 H453 0.950 . S
C464 C462 1.391 . S
C464 C465 1.400 . S
C465 C459 1.491 . S
C465 C464 1.400 . S
C465 C466 1.398 . S
C466 H454 0.950 . S
C466 C465 1.398 . S
C466 C467 1.391 . S
C467 H455 0.950 . S
C467 C463 1.393 . S
C467 C466 1.391 . S
H468 C476 0.950 . S
H469 C481 0.950 . S
H470 C478 0.950 1_554 S
H471 C480 0.950 . S
H472 C482 0.950 . S
H473 C484 0.950 . S
H474 C486 0.950 . S
H475 C487 0.950 . S
C476 H468 0.950 . S
C476 C477 1.386 1_554 S
C476 C478 1.391 1_554 S
C477 C476 1.386 1_556 S
C477 C481 1.393 . S
C478 H470 0.950 1_556 S
C478 C476 1.391 1_556 S
C478 C479 1.400 . S
C479 C478 1.400 . S
C479 C480 1.398 . S
C479 C485 1.491 . S
C480 H471 0.950 . S
C480 C479 1.398 . S
C480 C481 1.391 . S
C481 H469 0.950 . S
C481 C477 1.393 . S
C481 C480 1.391 . S
C482 H472 0.950 . S
C482 C483 1.386 . S
C482 C484 1.391 . S
C483 C482 1.386 . S
C483 C487 1.393 . S
C484 H473 0.950 . S
C484 C482 1.391 . S
C484 C485 1.400 . S
C485 C479 1.491 . S
C485 C484 1.400 . S
C485 C486 1.398 . S
C486 H474 0.950 . S
C486 C485 1.398 . S
C486 C487 1.391 . S
C487 H475 0.950 . S
C487 C483 1.393 . S
C487 C486 1.391 . S
H488 C496 0.950 . S
H489 C501 0.950 . S
H490 C498 0.950 . S
H491 C500 0.950 . S
H492 C502 0.950 . S
H493 C504 0.950 . S
H494 C506 0.950 . S
H495 C507 0.950 . S
C496 H488 0.950 . S
C496 C497 1.386 . S
C496 C498 1.391 . S
C497 C496 1.386 . S
C497 C501 1.393 . S
C498 H490 0.950 . S
C498 C496 1.391 . S
C498 C499 1.400 . S
C499 C498 1.400 . S
C499 C500 1.398 . S
C499 C505 1.491 . S
C500 H491 0.950 . S
C500 C499 1.398 . S
C500 C501 1.391 . S
C501 H489 0.950 . S
C501 C497 1.393 . S
C501 C500 1.391 . S
C502 H492 0.950 . S
C502 C503 1.386 . S
C502 C504 1.391 . S
C503 C502 1.386 . S
C503 C507 1.393 1_556 S
C504 H493 0.950 . S
C504 C502 1.391 . S
C504 C505 1.400 1_556 S
C505 C499 1.491 . S
C505 C504 1.400 1_554 S
C505 C506 1.398 . S
C506 H494 0.950 . S
C506 C505 1.398 . S
C506 C507 1.391 . S
C507 H495 0.950 . S
C507 C503 1.393 1_554 S
C507 C506 1.391 . S
H508 C516 0.950 . S
H509 C521 0.950 . S
H510 C518 0.950 . S
H511 C520 0.950 1_556 S
H512 C522 0.950 . S
H513 C524 0.950 . S
H514 C526 0.950 . S
H515 C527 0.950 . S
C516 H508 0.950 . S
C516 C517 1.386 . S
C516 C518 1.391 . S
C517 C516 1.386 . S
C517 C521 1.393 . S
C518 H510 0.950 . S
C518 C516 1.391 . S
C518 C519 1.400 . S
C519 C518 1.400 . S
C519 C520 1.398 . S
C519 C525 1.491 . S
C520 H511 0.950 1_554 S
C520 C519 1.398 . S
C520 C521 1.391 . S
C521 H509 0.950 . S
C521 C517 1.393 . S
C521 C520 1.391 . S
C522 H512 0.950 . S
C522 C523 1.386 . S
C522 C524 1.391 . S
C523 C522 1.386 . S
C523 C527 1.393 . S
C524 H513 0.950 . S
C524 C522 1.391 . S
C524 C525 1.400 1_556 S
C525 C519 1.491 . S
C525 C524 1.400 1_554 S
C525 C526 1.398 . S
C526 H514 0.950 . S
C526 C525 1.398 . S
C526 C527 1.391 1_554 S
C527 H515 0.950 . S
C527 C523 1.393 . S
C527 C526 1.391 1_556 S
H528 C536 0.950 . S
H529 C541 0.950 . S
H530 C538 0.950 . S
H531 C540 0.950 . S
H532 C542 0.950 . S
H533 C544 0.955 . S
H534 C546 0.950 . S
H535 C547 0.950 . S
C536 H528 0.950 . S
C536 C537 1.386 . S
C536 C538 1.391 . S
C537 C536 1.386 . S
C537 C541 1.393 . S
C538 H530 0.950 . S
C538 C536 1.391 . S
C538 C539 1.400 . S
C539 C538 1.400 . S
C539 C540 1.398 . S
C539 C545 1.491 . S
C540 H531 0.950 . S
C540 C539 1.398 . S
C540 C541 1.391 . S
C541 H529 0.950 . S
C541 C537 1.393 . S
C541 C540 1.391 . S
C542 H532 0.950 . S
C542 C543 1.386 . S
C542 C544 1.384 1_556 S
C543 C542 1.386 . S
C543 C547 1.393 . S
C544 H533 0.955 . S
C544 C542 1.384 1_554 S
C544 C545 1.403 . S
C545 C539 1.491 . S
C545 C544 1.403 . S
C545 C546 1.398 1_554 S
C546 H534 0.950 . S
C546 C545 1.398 1_556 S
C546 C547 1.391 . S
C547 H535 0.950 . S
C547 C543 1.393 . S
C547 C546 1.391 . S
H548 C556 0.950 . S
H549 C561 0.950 . S
H550 C558 0.936 1_556 S
H551 C560 0.950 . S
H552 C562 0.950 1_554 S
H553 C564 0.950 . S
H554 C566 0.950 . S
H555 C567 0.950 . S
C556 H548 0.950 . S
C556 C557 1.386 . S
C556 C558 1.391 . S
C557 C556 1.386 . S
C557 C561 1.393 . S
C558 H550 0.936 1_554 S
C558 C556 1.391 . S
C558 C559 1.400 . S
C559 C558 1.400 . S
C559 C560 1.398 . S
C559 C565 1.491 . S
C560 H551 0.950 . S
C560 C559 1.398 . S
C560 C561 1.391 . S
C561 H549 0.950 . S
C561 C557 1.393 . S
C561 C560 1.391 . S
C562 H552 0.950 1_556 S
C562 C563 1.386 . S
C562 C564 1.391 1_556 S
C563 C562 1.386 . S
C563 C567 1.393 . S
C564 H553 0.950 . S
C564 C562 1.391 1_554 S
C564 C565 1.400 . S
C565 C559 1.491 . S
C565 C564 1.400 . S
C565 C566 1.398 1_554 S
C566 H554 0.950 . S
C566 C565 1.398 1_556 S
C566 C567 1.391 . S
C567 H555 0.950 . S
C567 C563 1.393 . S
C567 C566 1.391 . S
H568 C576 0.950 . S
H569 C581 0.950 . S
H570 C578 0.950 . S
H571 C580 0.950 . S
H572 C582 0.950 1_455 S
H573 C584 0.950 1_455 S
H574 C586 0.950 . S
H575 C587 0.950 . S
C576 H568 0.950 . S
C576 C577 1.386 . S
C576 C578 1.391 . S
C577 C576 1.386 . S
C577 C581 1.393 . S
C578 H570 0.950 . S
C578 C576 1.391 . S
C578 C579 1.400 . S
C579 C578 1.400 . S
C579 C580 1.398 . S
C579 C585 1.491 . S
C580 H571 0.950 . S
C580 C579 1.398 . S
C580 C581 1.391 . S
C581 H569 0.950 . S
C581 C577 1.393 . S
C581 C580 1.391 . S
C582 H572 0.950 1_655 S
C582 C583 1.386 . S
C582 C584 1.391 . S
C583 C582 1.386 . S
C583 C587 1.393 . S
C584 H573 0.950 1_655 S
C584 C582 1.391 . S
C584 C585 1.400 . S
C585 C579 1.491 . S
C585 C584 1.400 . S
C585 C586 1.398 . S
C586 H574 0.950 . S
C586 C585 1.398 . S
C586 C587 1.391 . S
C587 H575 0.950 . S
C587 C583 1.393 . S
C587 C586 1.391 . S
H588 C596 0.950 . S
H589 C601 0.950 . S
H590 C598 0.950 . S
H591 C600 0.950 1_545 S
H592 C602 0.950 . S
H593 C604 0.950 . S
H594 C606 0.950 . S
H595 C607 0.950 . S
C596 H588 0.950 . S
C596 C597 1.386 . S
C596 C598 1.391 . S
C597 C596 1.386 . S
C597 C601 1.393 . S
C598 H590 0.950 . S
C598 C596 1.391 . S
C598 C599 1.400 . S
C599 C598 1.400 . S
C599 C600 1.398 . S
C599 C605 1.491 . S
C600 H591 0.950 1_565 S
C600 C599 1.398 . S
C600 C601 1.391 . S
C601 H589 0.950 . S
C601 C597 1.393 . S
C601 C600 1.391 . S
C602 H592 0.950 . S
C602 C603 1.386 1_545 S
C602 C604 1.391 . S
C603 C602 1.386 1_565 S
C603 C607 1.393 . S
C604 H593 0.950 . S
C604 C602 1.391 . S
C604 C605 1.400 1_545 S
C605 C599 1.491 . S
C605 C604 1.400 1_565 S
C605 C606 1.398 . S
C606 H594 0.950 . S
C606 C605 1.398 . S
C606 C607 1.391 . S
C607 H595 0.950 . S
C607 C603 1.393 . S
C607 C606 1.391 . S
H608 C616 0.950 . S
H609 C621 0.950 . S
H610 C618 0.950 . S
H611 C620 0.950 . S
H612 C622 0.950 . S
H613 C624 0.950 . S
H614 C626 0.950 . S
H615 C627 0.950 . S
C616 H608 0.950 . S
C616 C617 1.386 . S
C616 C618 1.391 . S
C617 C616 1.386 . S
C617 C621 1.393 . S
C618 H610 0.950 . S
C618 C616 1.391 . S
C618 C619 1.400 . S
C619 C618 1.400 . S
C619 C620 1.398 . S
C619 C625 1.491 . S
C620 H611 0.950 . S
C620 C619 1.398 . S
C620 C621 1.391 . S
C621 H609 0.950 . S
C621 C617 1.393 . S
C621 C620 1.391 . S
C622 H612 0.950 . S
C622 C623 1.386 . S
C622 C624 1.391 . S
C623 C622 1.386 . S
C623 C627 1.393 . S
C624 H613 0.950 . S
C624 C622 1.391 . S
C624 C625 1.400 . S
C625 C619 1.491 . S
C625 C624 1.400 . S
C625 C626 1.398 . S
C626 H614 0.950 . S
C626 C625 1.398 . S
C626 C627 1.391 . S
C627 H615 0.950 . S
C627 C623 1.393 . S
C627 C626 1.391 . S
H628 C636 0.950 . S
H629 C641 0.950 . S
H630 C638 0.950 . S
H631 C640 0.950 . S
H632 C642 0.950 . S
H633 C644 0.950 . S
H634 C646 0.950 . S
H635 C647 0.950 . S
C636 H628 0.950 . S
C636 C637 1.386 . S
C636 C638 1.391 . S
C637 C636 1.386 . S
C637 C641 1.393 . S
C638 H630 0.950 . S
C638 C636 1.391 . S
C638 C639 1.400 . S
C639 C638 1.400 . S
C639 C640 1.398 . S
C639 C645 1.491 . S
C640 H631 0.950 . S
C640 C639 1.398 . S
C640 C641 1.391 . S
C641 H629 0.950 . S
C641 C637 1.393 . S
C641 C640 1.391 . S
C642 H632 0.950 . S
C642 C643 1.386 . S
C642 C644 1.391 . S
C643 C642 1.386 . S
C643 C647 1.393 . S
C644 H633 0.950 . S
C644 C642 1.391 . S
C644 C645 1.400 . S
C645 C639 1.491 . S
C645 C644 1.400 . S
C645 C646 1.398 . S
C646 H634 0.950 . S
C646 C645 1.398 . S
C646 C647 1.391 . S
C647 H635 0.950 . S
C647 C643 1.393 . S
C647 C646 1.391 . S
C177 C74 1.572 . S
C183 C89 1.578 . S
C203 C124 1.652 . S
C197 C85 1.647 . S
C223 C129 1.269 . S
C217 C52 1.263 . S
C243 C149 1.485 . S
C237 C63 1.482 . S
C263 C97 1.574 1_565 S
C257 C30 1.546 1_556 S
C277 C41 1.559 1_556 S
C283 C114 1.657 . S
C297 C8 1.245 1_556 S
C303 C137 1.273 . S
C317 C19 1.423 . S
C323 C157 1.486 1_655 S
C343 C107 1.321 . S
C337 C62 1.371 . S
C363 C116 1.015 . S
C357 C73 1.043 . S
C383 C147 1.443 . S
C377 C84 1.474 . S
C397 C51 1.036 . S
C403 C167 0.999 . S
C417 C18 1.280 . S
C423 C96 1.337 1_655 S
C443 C127 1.027 1_565 S
C437 C29 1.017 1_556 S
C463 C136 1.447 . S
C457 C40 1.350 1_556 S
C477 C7 1.013 . S
C483 C156 1.014 . S
C497 C60 1.400 . S
C503 C94 1.509 . S
C517 C71 1.335 . S
C523 C117 1.506 . S
C543 C134 1.630 . S
C537 C82 1.497 . S
C563 C154 1.592 . S
C557 C49 1.338 . S
C577 C16 1.214 . S
C583 C104 1.506 . S
C603 C109 1.507 . S
C597 C27 1.192 . S
C623 C144 1.635 . S
C617 C38 1.211 . S
C637 C5 1.320 . S
C643 C164 1.579 . S
