# Generated by pormake.
# Topology gar, (4,6)-cn, num edge types: 1
# Building blocks:
#     Node 0, Type 0, BuildingBlock: AZAVOO_clean_sbu_0, # of connection points: 4
#     Node 1, Type 0, BuildingBlock: AZAVOO_clean_sbu_0, # of connection points: 4
#     Node 2, Type 0, BuildingBlock: AZAVOO_clean_sbu_0, # of connection points: 4
#     Node 3, Type 0, BuildingBlock: AZAVOO_clean_sbu_0, # of connection points: 4
#     Node 4, Type 0, BuildingBlock: AZAVOO_clean_sbu_0, # of connection points: 4
#     Node 5, Type 0, BuildingBlock: AZAVOO_clean_sbu_0, # of connection points: 4
#     Node 6, Type 0, BuildingBlock: AZAVOO_clean_sbu_0, # of connection points: 4
#     Node 7, Type 0, BuildingBlock: AZAVOO_clean_sbu_0, # of connection points: 4
#     Node 8, Type 0, BuildingBlock: AZAVOO_clean_sbu_0, # of connection points: 4
#     Node 9, Type 0, BuildingBlock: AZAVOO_clean_sbu_0, # of connection points: 4
#     Node 10, Type 0, BuildingBlock: AZAVOO_clean_sbu_0, # of connection points: 4
#     Node 11, Type 0, BuildingBlock: AZAVOO_clean_sbu_0, # of connection points: 4
#     Node 12, Type 0, BuildingBlock: AZAVOO_clean_sbu_0, # of connection points: 4
#     Node 13, Type 0, BuildingBlock: AZAVOO_clean_sbu_0, # of connection points: 4
#     Node 14, Type 0, BuildingBlock: AZAVOO_clean_sbu_0, # of connection points: 4
#     Node 15, Type 0, BuildingBlock: AZAVOO_clean_sbu_0, # of connection points: 4
#     Node 16, Type 0, BuildingBlock: AZAVOO_clean_sbu_0, # of connection points: 4
#     Node 17, Type 0, BuildingBlock: AZAVOO_clean_sbu_0, # of connection points: 4
#     Node 18, Type 0, BuildingBlock: AZAVOO_clean_sbu_0, # of connection points: 4
#     Node 19, Type 0, BuildingBlock: AZAVOO_clean_sbu_0, # of connection points: 4
#     Node 20, Type 0, BuildingBlock: AZAVOO_clean_sbu_0, # of connection points: 4
#     Node 21, Type 0, BuildingBlock: AZAVOO_clean_sbu_0, # of connection points: 4
#     Node 22, Type 0, BuildingBlock: AZAVOO_clean_sbu_0, # of connection points: 4
#     Node 23, Type 0, BuildingBlock: AZAVOO_clean_sbu_0, # of connection points: 4
#     Node 24, Type 1, BuildingBlock: BETDEL_clean_sbu_0, # of connection points: 6
#     Node 25, Type 1, BuildingBlock: BETDEL_clean_sbu_0, # of connection points: 6
#     Node 26, Type 1, BuildingBlock: BETDEL_clean_sbu_0, # of connection points: 6
#     Node 27, Type 1, BuildingBlock: BETDEL_clean_sbu_0, # of connection points: 6
#     Node 28, Type 1, BuildingBlock: BETDEL_clean_sbu_0, # of connection points: 6
#     Node 29, Type 1, BuildingBlock: BETDEL_clean_sbu_0, # of connection points: 6
#     Node 30, Type 1, BuildingBlock: BETDEL_clean_sbu_0, # of connection points: 6
#     Node 31, Type 1, BuildingBlock: BETDEL_clean_sbu_0, # of connection points: 6
#     Node 32, Type 1, BuildingBlock: BETDEL_clean_sbu_0, # of connection points: 6
#     Node 33, Type 1, BuildingBlock: BETDEL_clean_sbu_0, # of connection points: 6
#     Node 34, Type 1, BuildingBlock: BETDEL_clean_sbu_0, # of connection points: 6
#     Node 35, Type 1, BuildingBlock: BETDEL_clean_sbu_0, # of connection points: 6
#     Node 36, Type 1, BuildingBlock: BETDEL_clean_sbu_0, # of connection points: 6
#     Node 37, Type 1, BuildingBlock: BETDEL_clean_sbu_0, # of connection points: 6
#     Node 38, Type 1, BuildingBlock: BETDEL_clean_sbu_0, # of connection points: 6
#     Node 39, Type 1, BuildingBlock: BETDEL_clean_sbu_0, # of connection points: 6
#     Edge 40, Type (0, 1), BuildingBlock: AJUNOK_clean_linker_0, # of connection points: 2
#     Edge 41, Type (0, 1), BuildingBlock: AJUNOK_clean_linker_0, # of connection points: 2
#     Edge 42, Type (0, 1), BuildingBlock: AJUNOK_clean_linker_0, # of connection points: 2
#     Edge 43, Type (0, 1), BuildingBlock: AJUNOK_clean_linker_0, # of connection points: 2
#     Edge 44, Type (0, 1), BuildingBlock: AJUNOK_clean_linker_0, # of connection points: 2
#     Edge 45, Type (0, 1), BuildingBlock: AJUNOK_clean_linker_0, # of connection points: 2
#     Edge 46, Type (0, 1), BuildingBlock: AJUNOK_clean_linker_0, # of connection points: 2
#     Edge 47, Type (0, 1), BuildingBlock: AJUNOK_clean_linker_0, # of connection points: 2
#     Edge 48, Type (0, 1), BuildingBlock: AJUNOK_clean_linker_0, # of connection points: 2
#     Edge 49, Type (0, 1), BuildingBlock: AJUNOK_clean_linker_0, # of connection points: 2
#     Edge 50, Type (0, 1), BuildingBlock: AJUNOK_clean_linker_0, # of connection points: 2
#     Edge 51, Type (0, 1), BuildingBlock: AJUNOK_clean_linker_0, # of connection points: 2
#     Edge 52, Type (0, 1), BuildingBlock: AJUNOK_clean_linker_0, # of connection points: 2
#     Edge 53, Type (0, 1), BuildingBlock: AJUNOK_clean_linker_0, # of connection points: 2
#     Edge 54, Type (0, 1), BuildingBlock: AJUNOK_clean_linker_0, # of connection points: 2
#     Edge 55, Type (0, 1), BuildingBlock: AJUNOK_clean_linker_0, # of connection points: 2
#     Edge 56, Type (0, 1), BuildingBlock: AJUNOK_clean_linker_0, # of connection points: 2
#     Edge 57, Type (0, 1), BuildingBlock: AJUNOK_clean_linker_0, # of connection points: 2
#     Edge 58, Type (0, 1), BuildingBlock: AJUNOK_clean_linker_0, # of connection points: 2
#     Edge 59, Type (0, 1), BuildingBlock: AJUNOK_clean_linker_0, # of connection points: 2
#     Edge 60, Type (0, 1), BuildingBlock: AJUNOK_clean_linker_0, # of connection points: 2
#     Edge 61, Type (0, 1), BuildingBlock: AJUNOK_clean_linker_0, # of connection points: 2
#     Edge 62, Type (0, 1), BuildingBlock: AJUNOK_clean_linker_0, # of connection points: 2
#     Edge 63, Type (0, 1), BuildingBlock: AJUNOK_clean_linker_0, # of connection points: 2
#     Edge 64, Type (0, 1), BuildingBlock: AJUNOK_clean_linker_0, # of connection points: 2
#     Edge 65, Type (0, 1), BuildingBlock: AJUNOK_clean_linker_0, # of connection points: 2
#     Edge 66, Type (0, 1), BuildingBlock: AJUNOK_clean_linker_0, # of connection points: 2
#     Edge 67, Type (0, 1), BuildingBlock: AJUNOK_clean_linker_0, # of connection points: 2
#     Edge 68, Type (0, 1), BuildingBlock: AJUNOK_clean_linker_0, # of connection points: 2
#     Edge 69, Type (0, 1), BuildingBlock: AJUNOK_clean_linker_0, # of connection points: 2
#     Edge 70, Type (0, 1), BuildingBlock: AJUNOK_clean_linker_0, # of connection points: 2
#     Edge 71, Type (0, 1), BuildingBlock: AJUNOK_clean_linker_0, # of connection points: 2
#     Edge 72, Type (0, 1), BuildingBlock: AJUNOK_clean_linker_0, # of connection points: 2
#     Edge 73, Type (0, 1), BuildingBlock: AJUNOK_clean_linker_0, # of connection points: 2
#     Edge 74, Type (0, 1), BuildingBlock: AJUNOK_clean_linker_0, # of connection points: 2
#     Edge 75, Type (0, 1), BuildingBlock: AJUNOK_clean_linker_0, # of connection points: 2
#     Edge 76, Type (0, 1), BuildingBlock: AJUNOK_clean_linker_0, # of connection points: 2
#     Edge 77, Type (0, 1), BuildingBlock: AJUNOK_clean_linker_0, # of connection points: 2
#     Edge 78, Type (0, 1), BuildingBlock: AJUNOK_clean_linker_0, # of connection points: 2
#     Edge 79, Type (0, 1), BuildingBlock: AJUNOK_clean_linker_0, # of connection points: 2
#     Edge 80, Type (0, 1), BuildingBlock: AJUNOK_clean_linker_0, # of connection points: 2
#     Edge 81, Type (0, 1), BuildingBlock: AJUNOK_clean_linker_0, # of connection points: 2
#     Edge 82, Type (0, 1), BuildingBlock: AJUNOK_clean_linker_0, # of connection points: 2
#     Edge 83, Type (0, 1), BuildingBlock: AJUNOK_clean_linker_0, # of connection points: 2
#     Edge 84, Type (0, 1), BuildingBlock: AJUNOK_clean_linker_0, # of connection points: 2
#     Edge 85, Type (0, 1), BuildingBlock: AJUNOK_clean_linker_0, # of connection points: 2
#     Edge 86, Type (0, 1), BuildingBlock: AJUNOK_clean_linker_0, # of connection points: 2
#     Edge 87, Type (0, 1), BuildingBlock: AJUNOK_clean_linker_0, # of connection points: 2
#     Edge 88, Type (0, 1), BuildingBlock: AJUNOK_clean_linker_0, # of connection points: 2
#     Edge 89, Type (0, 1), BuildingBlock: AJUNOK_clean_linker_0, # of connection points: 2
#     Edge 90, Type (0, 1), BuildingBlock: AJUNOK_clean_linker_0, # of connection points: 2
#     Edge 91, Type (0, 1), BuildingBlock: AJUNOK_clean_linker_0, # of connection points: 2
#     Edge 92, Type (0, 1), BuildingBlock: AJUNOK_clean_linker_0, # of connection points: 2
#     Edge 93, Type (0, 1), BuildingBlock: AJUNOK_clean_linker_0, # of connection points: 2
#     Edge 94, Type (0, 1), BuildingBlock: AJUNOK_clean_linker_0, # of connection points: 2
#     Edge 95, Type (0, 1), BuildingBlock: AJUNOK_clean_linker_0, # of connection points: 2
#     Edge 96, Type (0, 1), BuildingBlock: AJUNOK_clean_linker_0, # of connection points: 2
#     Edge 97, Type (0, 1), BuildingBlock: AJUNOK_clean_linker_0, # of connection points: 2
#     Edge 98, Type (0, 1), BuildingBlock: AJUNOK_clean_linker_0, # of connection points: 2
#     Edge 99, Type (0, 1), BuildingBlock: AJUNOK_clean_linker_0, # of connection points: 2
#     Edge 100, Type (0, 1), BuildingBlock: AJUNOK_clean_linker_0, # of connection points: 2
#     Edge 101, Type (0, 1), BuildingBlock: AJUNOK_clean_linker_0, # of connection points: 2
#     Edge 102, Type (0, 1), BuildingBlock: AJUNOK_clean_linker_0, # of connection points: 2
#     Edge 103, Type (0, 1), BuildingBlock: AJUNOK_clean_linker_0, # of connection points: 2
#     Edge 104, Type (0, 1), BuildingBlock: AJUNOK_clean_linker_0, # of connection points: 2
#     Edge 105, Type (0, 1), BuildingBlock: AJUNOK_clean_linker_0, # of connection points: 2
#     Edge 106, Type (0, 1), BuildingBlock: AJUNOK_clean_linker_0, # of connection points: 2
#     Edge 107, Type (0, 1), BuildingBlock: AJUNOK_clean_linker_0, # of connection points: 2
#     Edge 108, Type (0, 1), BuildingBlock: AJUNOK_clean_linker_0, # of connection points: 2
#     Edge 109, Type (0, 1), BuildingBlock: AJUNOK_clean_linker_0, # of connection points: 2
#     Edge 110, Type (0, 1), BuildingBlock: AJUNOK_clean_linker_0, # of connection points: 2
#     Edge 111, Type (0, 1), BuildingBlock: AJUNOK_clean_linker_0, # of connection points: 2
#     Edge 112, Type (0, 1), BuildingBlock: AJUNOK_clean_linker_0, # of connection points: 2
#     Edge 113, Type (0, 1), BuildingBlock: AJUNOK_clean_linker_0, # of connection points: 2
#     Edge 114, Type (0, 1), BuildingBlock: AJUNOK_clean_linker_0, # of connection points: 2
#     Edge 115, Type (0, 1), BuildingBlock: AJUNOK_clean_linker_0, # of connection points: 2
#     Edge 116, Type (0, 1), BuildingBlock: AJUNOK_clean_linker_0, # of connection points: 2
#     Edge 117, Type (0, 1), BuildingBlock: AJUNOK_clean_linker_0, # of connection points: 2
#     Edge 118, Type (0, 1), BuildingBlock: AJUNOK_clean_linker_0, # of connection points: 2
#     Edge 119, Type (0, 1), BuildingBlock: AJUNOK_clean_linker_0, # of connection points: 2
#     Edge 120, Type (0, 1), BuildingBlock: AJUNOK_clean_linker_0, # of connection points: 2
#     Edge 121, Type (0, 1), BuildingBlock: AJUNOK_clean_linker_0, # of connection points: 2
#     Edge 122, Type (0, 1), BuildingBlock: AJUNOK_clean_linker_0, # of connection points: 2
#     Edge 123, Type (0, 1), BuildingBlock: AJUNOK_clean_linker_0, # of connection points: 2
#     Edge 124, Type (0, 1), BuildingBlock: AJUNOK_clean_linker_0, # of connection points: 2
#     Edge 125, Type (0, 1), BuildingBlock: AJUNOK_clean_linker_0, # of connection points: 2
#     Edge 126, Type (0, 1), BuildingBlock: AJUNOK_clean_linker_0, # of connection points: 2
#     Edge 127, Type (0, 1), BuildingBlock: AJUNOK_clean_linker_0, # of connection points: 2
#     Edge 128, Type (0, 1), BuildingBlock: AJUNOK_clean_linker_0, # of connection points: 2
#     Edge 129, Type (0, 1), BuildingBlock: AJUNOK_clean_linker_0, # of connection points: 2
#     Edge 130, Type (0, 1), BuildingBlock: AJUNOK_clean_linker_0, # of connection points: 2
#     Edge 131, Type (0, 1), BuildingBlock: AJUNOK_clean_linker_0, # of connection points: 2
#     Edge 132, Type (0, 1), BuildingBlock: AJUNOK_clean_linker_0, # of connection points: 2
#     Edge 133, Type (0, 1), BuildingBlock: AJUNOK_clean_linker_0, # of connection points: 2
#     Edge 134, Type (0, 1), BuildingBlock: AJUNOK_clean_linker_0, # of connection points: 2
#     Edge 135, Type (0, 1), BuildingBlock: AJUNOK_clean_linker_0, # of connection points: 2
# Relax obj value: 0.178
# Max RMSD: 0.280
# Mean RMSD: 0.192
data_MOF--net-gar--node1-AZAVOO_clean_sbu_0--node2-BETDEL_clean_sbu_0--edge1-AJUNOK_clean_linker_0
_symmetry_space_group_name_H-M    P1
_symmetry_Int_Tables_number       1
_symmetry_cell_setting            triclinic
loop_
_symmetry_equiv_pos_as_xyz
'x, y, z'
_cell_length_a     42.977345
_cell_length_b     38.525036
_cell_length_c     40.872945
_cell_angle_alpha  98.688791
_cell_angle_beta   91.981242
_cell_angle_gamma 102.35519
loop_
_atom_site_label
_atom_site_type_symbol
_atom_site_fract_x
_atom_site_fract_y
_atom_site_fract_z
_atom_type_partial_charge
Mg0 Mg 0.02341 0.25256 0.36634 0.0
O1 O 0.02624 0.30788 0.39985 0.0
O2 O 0.97818 0.30151 0.42034 0.0
Mg3 Mg 0.94681 0.24584 0.40386 0.0
C4 C 0.00563 0.32074 0.41689 0.0
C5 C 0.08209 0.25135 0.33073 0.0
O6 O 0.05738 0.23621 0.30969 0.0
O7 O 0.02809 0.22283 0.41002 0.0
O8 O 0.97975 0.21701 0.42984 0.0
O9 O 0.00383 0.27503 0.32518 0.0
O10 O 0.97426 0.24523 0.35949 0.0
C11 C 0.00783 0.21109 0.43014 0.0
C12 C 0.97603 0.26444 0.33609 0.0
O13 O 0.07691 0.26373 0.36018 0.0
Mg14 Mg 0.00176 0.79145 0.65144 0.0
O15 O 0.99595 0.73614 0.62033 0.0
O16 O 0.95056 0.72135 0.58865 0.0
Mg17 Mg 0.92735 0.77011 0.60067 0.0
C18 C 0.97648 0.71416 0.59879 0.0
C19 C 0.06584 0.79478 0.68995 0.0
O20 O 0.05123 0.80926 0.71436 0.0
O21 O 0.01446 0.81905 0.60726 0.0
O22 O 0.96749 0.80778 0.57782 0.0
O23 O 0.97455 0.76809 0.69155 0.0
O24 O 0.95298 0.78887 0.65073 0.0
C25 C -0.00275 0.82271 0.58252 0.0
C26 C 0.94957 0.77499 0.6775 0.0
O27 O 0.05241 0.78745 0.66096 0.0
Mg28 Mg 0.52272 0.74867 0.86603 0.0
O29 O 0.52472 0.80266 0.90137 0.0
O30 O 0.47523 0.79559 0.91892 0.0
Mg31 Mg 0.44269 0.74199 0.89613 0.0
C32 C 0.50352 0.81434 0.91839 0.0
C33 C 0.58065 0.74521 0.83119 0.0
O34 O 0.5553 0.72785 0.81184 0.0
O35 O 0.52357 0.7168 0.91006 0.0
O36 O 0.47273 0.71116 0.92285 0.0
O37 O 0.50602 0.77419 0.82479 0.0
O38 O 0.47433 0.74221 0.85599 0.0
C39 C 0.50026 0.70429 0.92684 0.0
C40 C 0.47756 0.76245 0.83356 0.0
O41 O 0.57646 0.75924 0.86054 0.0
Mg42 Mg 0.50122 0.28876 0.14616 0.0
O43 O 0.4936 0.23184 0.11561 0.0
O44 O 0.45026 0.22392 0.08161 0.0
Mg45 Mg 0.42652 0.27171 0.09591 0.0
C46 C 0.47415 0.21302 0.09215 0.0
C47 C 0.5552 0.26982 0.18473 0.0
O48 O 0.53208 0.26591 0.20489 0.0
O49 O 0.51526 0.31568 0.10089 0.0
O50 O 0.46734 0.3083 0.07412 0.0
O51 O 0.4728 0.26849 0.1867 0.0
O52 O 0.45279 0.2896 0.14522 0.0
C53 C 0.49748 0.32126 0.07734 0.0
C54 C 0.44874 0.2767 0.17235 0.0
O55 O 0.55115 0.28249 0.15835 0.0
Mg56 Mg 0.0328 0.7971 0.14702 0.0
O57 O 0.03262 0.74362 0.11437 0.0
O58 O 0.98647 0.72679 0.08347 0.0
Mg59 Mg 0.95326 0.7632 0.10132 0.0
C60 C 0.01441 0.72288 0.09091 0.0
C61 C 0.09338 0.80212 0.1909 0.0
O62 O 0.07015 0.80406 0.21067 0.0
O63 O 0.036 0.82557 0.09989 0.0
O64 O 0.98525 0.80635 0.07884 0.0
O65 O 0.00789 0.77159 0.18914 0.0
O66 O 0.98284 0.78579 0.14747 0.0
C67 C 0.0132 0.82587 0.07862 0.0
C68 C 0.98124 0.77413 0.17515 0.0
O69 O 0.08726 0.80183 0.16006 0.0
Mg70 Mg 0.48968 0.74182 0.36363 0.0
O71 O 0.48805 0.78947 0.40474 0.0
O72 O 0.4416 0.77558 0.42834 0.0
Mg73 Mg 0.41637 0.71843 0.40564 0.0
C74 C 0.46801 0.79723 0.4256 0.0
C75 C 0.54854 0.76091 0.32488 0.0
O76 O 0.52431 0.75216 0.30249 0.0
O77 O 0.50337 0.71087 0.40251 0.0
O78 O 0.45804 0.69682 0.42729 0.0
O79 O 0.46448 0.76547 0.32798 0.0
O80 O 0.43901 0.72805 0.35899 0.0
C81 C 0.48744 0.69602 0.42431 0.0
C82 C 0.43759 0.74904 0.33733 0.0
O83 O 0.54265 0.76191 0.3553 0.0
Mg84 Mg 0.53967 0.30264 0.64999 0.0
O85 O 0.5348 0.24989 0.61537 0.0
O86 O 0.48652 0.23363 0.5883 0.0
Mg87 Mg 0.4589 0.27639 0.60624 0.0
C88 C 0.51445 0.22877 0.59411 0.0
C89 C 0.60279 0.31381 0.69033 0.0
O90 O 0.58437 0.33025 0.7091 0.0
O91 O 0.54471 0.33314 0.60519 0.0
O92 O 0.49401 0.3167 0.58312 0.0
O93 O 0.51448 0.27576 0.69107 0.0
O94 O 0.49021 0.29528 0.65181 0.0
C95 C 0.52275 0.33438 0.58353 0.0
C96 C 0.48831 0.28103 0.67817 0.0
O97 O 0.59313 0.30199 0.66013 0.0
Mg98 Mg 0.98871 0.24627 0.86672 0.0
O99 O 0.98524 0.29343 0.90792 0.0
O100 O 0.93736 0.2778 0.92849 0.0
Mg101 Mg 0.91353 0.22043 0.90456 0.0
C102 C 0.96377 0.30013 0.92739 0.0
C103 C 0.04692 0.2665 0.82901 0.0
O104 O 0.02227 0.25806 0.80719 0.0
O105 O 0.00099 0.21446 0.90542 0.0
O106 O 0.95454 0.19835 0.92777 0.0
O107 O 0.9649 0.27003 0.83019 0.0
O108 O 0.93823 0.23124 0.85935 0.0
C109 C 0.98423 0.19824 0.92591 0.0
C110 C 0.93772 0.25207 0.83738 0.0
O111 O 0.04183 0.26667 0.85956 0.0
Mg112 Mg 0.4244 0.05435 0.28849 0.0
O113 O 0.39193 -0.00127 0.28394 0.0
O114 O 0.36283 -0.00111 0.32829 0.0
Mg115 Mg 0.37717 0.05365 0.3601 0.0
C116 C 0.37022 0.98344 0.30077 0.0
C117 C 0.45018 0.01735 0.22856 0.0
O118 O 0.45267 0.9945 0.2488 0.0
O119 O 0.38231 0.07324 0.27252 0.0
O120 O 0.35276 0.07171 0.31645 0.0
O121 O 0.46149 0.0372 0.31429 0.0
O122 O 0.4243 0.06209 0.33919 0.0
C123 C 0.35698 0.07653 0.28652 0.0
C124 C 0.44812 0.04672 0.34103 0.0
O125 O 0.43601 0.04257 0.23689 0.0
Mg126 Mg 0.26622 0.14092 0.47893 0.0
O127 O 0.26443 0.17633 0.52958 0.0
O128 O 0.3116 0.2143 0.54143 0.0
Mg129 Mg 0.3425 0.20424 0.49694 0.0
C130 C 0.28332 0.20161 0.549 0.0
C131 C 0.2019 0.08742 0.4768 0.0
O132 O 0.22296 0.0674 0.47137 0.0
O133 O 0.2625 0.18438 0.4462 0.0
O134 O 0.31112 0.22057 0.45675 0.0
O135 O 0.28765 0.10289 0.50501 0.0
O136 O 0.31677 0.14663 0.48305 0.0
C137 C 0.28373 0.21135 0.44073 0.0
C138 C 0.31558 0.1194 0.49821 0.0
O139 O 0.21173 0.1214 0.47988 0.0
Mg140 Mg 0.12993 0.99131 0.77935 0.0
O141 O 0.1628 0.04773 0.78349 0.0
O142 O 0.1961 0.05662 0.8283 0.0
Mg143 Mg 0.1785 0.00902 0.85635 0.0
C144 C 0.18648 0.06678 0.80223 0.0
C145 C 0.0963 0.97865 0.70721 0.0
O146 O 0.07789 0.95085 0.71703 0.0
O147 O 0.17081 0.96283 0.76645 0.0
O148 O 0.19691 0.97083 0.81621 0.0
O149 O 0.09249 0.01321 0.80643 0.0
O150 O 0.12921 0.99201 0.83131 0.0
C151 C 0.19287 0.95717 0.78542 0.0
C152 C 0.10446 0.00599 0.83342 0.0
O153 O 0.11965 -0.0023 0.72617 0.0
Mg154 Mg 0.25952 0.90304 0.0114 0.0
O155 O 0.25838 0.86306 0.96249 0.0
O156 O 0.30686 0.84944 0.95939 0.0
Mg157 Mg 0.337 0.87092 0.00778 0.0
C158 C 0.27856 0.8474 0.94732 0.0
C159 C 0.21057 0.94004 0.0262 0.0
O160 O 0.23538 0.95179 0.04777 0.0
O161 O 0.24388 0.85697 0.04043 0.0
O162 O 0.29265 0.85288 0.03124 0.0
O163 O 0.28748 0.94818 0.98889 0.0
O164 O 0.30901 0.91205 0.01543 0.0
C165 C 0.26726 0.84244 0.04476 0.0
C166 C 0.31244 0.93864 -0.00032 0.0
O167 O 0.21029 0.91248 0.00451 0.0
Mg168 Mg 0.27057 0.39187 0.03296 0.0
O169 O 0.26804 0.35274 0.98251 0.0
O170 O 0.31151 0.32969 0.98506 0.0
Mg171 Mg 0.33982 0.35003 0.03544 0.0
C172 C 0.2863 0.33293 0.96946 0.0
C173 C 0.21843 0.43237 0.0175 0.0
O174 O 0.24564 0.45534 0.01668 0.0
O175 O 0.25504 0.3465 0.06478 0.0
O176 O 0.29979 0.32588 0.06744 0.0
O177 O 0.30172 0.43618 0.01112 0.0
O178 O 0.32106 0.39905 0.03759 0.0
C179 C 0.27146 0.32608 0.07587 0.0
C180 C 0.32635 0.42579 0.02156 0.0
O181 O 0.21915 0.40098 0.02361 0.0
Mg182 Mg 0.77468 0.12336 0.00651 0.0
O183 O 0.78509 0.15938 0.0564 0.0
O184 O 0.83093 0.19884 0.05539 0.0
Mg185 Mg 0.85218 0.18227 0.00647 0.0
C186 C 0.80597 0.18691 0.06983 0.0
C187 C 0.71241 0.07523 0.00726 0.0
O188 O 0.72806 0.0562 0.98726 0.0
O189 O 0.76422 0.16908 0.98383 0.0
O190 O 0.81296 0.20255 0.97974 0.0
O191 O 0.79562 0.08197 0.0226 0.0
O192 O 0.82184 0.12679 -0.00158 0.0
C193 C 0.78256 0.19589 0.97467 0.0
C194 C 0.82158 0.098 0.01113 0.0
O195 O 0.72539 0.10732 0.01973 0.0
Mg196 Mg 0.1061 0.4912 0.24063 0.0
O197 O 0.14245 0.54397 0.24629 0.0
O198 O 0.16155 0.55763 0.29955 0.0
Mg199 Mg 0.13668 0.51482 0.32792 0.0
C200 C 0.16112 0.56399 0.26982 0.0
C201 C 0.07729 0.46917 0.17394 0.0
O202 O 0.05907 0.45165 0.194 0.0
O203 O 0.14729 0.46535 0.24363 0.0
O204 O 0.16455 0.47885 0.2975 0.0
O205 O 0.06682 0.51863 0.25249 0.0
O206 O 0.09748 0.50165 0.2893 0.0
C207 C 0.16639 0.46407 0.26773 0.0
C208 C 0.07557 0.51833 0.28301 0.0
O209 O 0.10469 0.48732 0.18539 0.0
Mg210 Mg 0.77116 0.8954 0.53953 0.0
O211 O 0.76727 0.85945 0.4872 0.0
O212 O 0.80862 0.83257 0.48697 0.0
Mg213 Mg 0.83887 0.85097 0.53647 0.0
C214 C 0.78371 0.83827 0.47272 0.0
C215 C 0.71537 0.92745 0.5134 0.0
O216 O 0.73824 0.9388 0.49448 0.0
O217 O 0.75546 0.84756 0.56849 0.0
O218 O 0.79925 0.82488 0.56796 0.0
O219 O 0.80216 0.94182 0.52056 0.0
O220 O 0.82128 0.9011 0.54224 0.0
C221 C 0.77132 0.82553 0.57749 0.0
C222 C 0.82664 0.92965 0.52862 0.0
O223 O 0.7202 0.90611 0.53312 0.0
Mg224 Mg 0.90281 0.0426 0.24004 0.0
O225 O 0.86744 0.98675 0.23636 0.0
O226 O 0.84806 0.98769 0.28671 0.0
Mg227 Mg 0.86673 0.04095 0.32056 0.0
C228 C 0.85006 0.97173 0.25742 0.0
C229 C 0.94375 0.04799 0.18412 0.0
O230 O 0.95905 0.06567 0.2121 0.0
O231 O 0.8615 0.0723 0.23499 0.0
O232 O 0.84527 0.07257 0.28649 0.0
O233 O 0.94089 0.01928 0.26146 0.0
O234 O 0.90872 0.04591 0.29171 0.0
C235 C 0.84378 0.08162 0.25784 0.0
C236 C 0.93068 0.02781 0.29025 0.0
O237 O 0.91395 0.0345 0.18466 0.0
Mg238 Mg 0.27745 0.63025 0.5014 0.0
O239 O 0.28427 0.66376 0.55293 0.0
O240 O 0.33197 0.70117 0.55647 0.0
Mg241 Mg 0.35731 0.68518 0.50986 0.0
C242 C 0.30539 0.68987 0.56853 0.0
C243 C 0.2171 0.58005 0.50068 0.0
O244 O 0.23552 0.56107 0.48479 0.0
O245 O 0.27209 0.67865 0.47857 0.0
O246 O 0.32292 0.70824 0.47925 0.0
O247 O 0.29458 0.5865 0.51875 0.0
O248 O 0.32488 0.63136 0.4981 0.0
C249 C 0.29325 0.70429 0.47092 0.0
C250 C 0.32201 0.60146 0.50958 0.0
O251 O 0.22672 0.61375 0.5093 0.0
Mg252 Mg 0.40325 0.54368 0.73981 0.0
O253 O 0.36938 0.48635 0.73536 0.0
O254 O 0.34974 0.48497 0.7854 0.0
Mg255 Mg 0.36838 0.53717 0.82066 0.0
C256 C 0.3523 0.47003 0.75593 0.0
C257 C 0.44407 0.54535 0.68253 0.0
O258 O 0.46202 0.55841 0.71013 0.0
O259 O 0.36064 0.57266 0.73692 0.0
O260 O 0.34585 0.56962 0.78856 0.0
O261 O 0.44301 0.52211 0.76087 0.0
O262 O 0.4096 0.54661 0.79107 0.0
C263 C 0.34365 0.58086 0.76097 0.0
C264 C 0.43308 0.53093 0.78974 0.0
O265 O 0.4138 0.53714 0.68419 0.0
Mg266 Mg 0.61195 0.98843 0.73887 0.0
O267 O 0.64697 0.04205 0.74403 0.0
O268 O 0.66845 0.05625 0.79642 0.0
Mg269 Mg 0.64677 0.01174 0.8247 0.0
C270 C 0.66612 0.0628 0.76682 0.0
C271 C 0.57671 0.97252 0.675 0.0
O272 O 0.55862 0.95724 0.69646 0.0
O273 O 0.65538 0.96359 0.7381 0.0
O274 O 0.67404 0.97897 0.79127 0.0
O275 O 0.57299 0.01576 0.75383 0.0
O276 O 0.60568 -0.0011 0.78836 0.0
C277 C 0.67601 0.9642 0.76161 0.0
C278 C 0.58351 0.01593 0.78383 0.0
O279 O 0.606 0.98586 0.68368 0.0
Mg280 Mg 0.76948 0.64404 0.98009 0.0
O281 O 0.76704 0.68022 0.03045 0.0
O282 O 0.81516 0.71659 0.04188 0.0
Mg283 Mg 0.84688 0.70634 -0.00173 0.0
C284 C 0.7868 0.70476 0.04984 0.0
C285 C 0.70503 0.59487 0.9913 0.0
O286 O 0.72671 0.57886 0.00149 0.0
O287 O 0.76733 0.68735 0.94609 0.0
O288 O 0.81684 0.72112 0.95577 0.0
O289 O 0.78917 0.60649 0.00794 0.0
O290 O 0.8202 0.64939 0.98703 0.0
C291 C 0.78964 0.71268 0.9393 0.0
C292 C 0.81776 0.62302 0.00352 0.0
O293 O 0.71445 0.62379 0.97934 0.0
Mg294 Mg 0.9245 0.55269 0.78206 0.0
O295 O 0.89041 0.49906 0.78386 0.0
O296 O 0.8696 0.50203 0.83344 0.0
Mg297 Mg 0.88954 0.55788 0.86216 0.0
C298 C 0.87213 0.48538 0.80463 0.0
C299 C 0.936 0.50701 0.7188 0.0
O300 O 0.93932 0.48609 0.74066 0.0
O301 O 0.88157 0.57504 0.77276 0.0
O302 O 0.8633 0.57977 0.82349 0.0
O303 O 0.96489 0.53483 0.8041 0.0
O304 O 0.93201 0.56221 0.83306 0.0
C305 C 0.8618 0.58383 0.79313 0.0
C306 C 0.95563 0.54641 0.83268 0.0
O307 O 0.92765 0.53634 0.72818 0.0
Mg308 Mg 0.76705 0.40804 0.50843 0.0
O309 O 0.76151 0.37373 0.45684 0.0
O310 O 0.80236 0.34571 0.45588 0.0
Mg311 Mg 0.83522 0.36507 0.50246 0.0
C312 C 0.77694 0.35138 0.44281 0.0
C313 C 0.71989 0.44961 0.52386 0.0
O314 O 0.74669 0.46587 0.54129 0.0
O315 O 0.75098 0.35763 0.52995 0.0
O316 O 0.79607 0.33725 0.53159 0.0
O317 O 0.79684 0.45551 0.49116 0.0
O318 O 0.81418 0.41185 0.51049 0.0
C319 C 0.76717 0.33593 0.53857 0.0
C320 C 0.82035 0.44138 0.4987 0.0
O321 O 0.7186 0.41954 0.50546 0.0
Mg322 Mg 0.62992 0.49186 0.2797 0.0
O323 O 0.66293 0.54802 0.28466 0.0
O324 O 0.69304 0.55767 0.33173 0.0
Mg325 Mg 0.67633 0.50829 0.35768 0.0
C326 C 0.68513 0.5678 0.30492 0.0
C327 C 0.58994 0.48614 0.21674 0.0
O328 O 0.57018 0.46885 0.23573 0.0
O329 O 0.67081 0.46439 0.26767 0.0
O330 O 0.69625 0.47066 0.31751 0.0
O331 O 0.59196 0.5135 0.30446 0.0
O332 O 0.6277 0.4924 0.3313 0.0
C333 C 0.69236 0.45771 0.2865 0.0
C334 C 0.60267 0.50605 0.33193 0.0
O335 O 0.61919 0.49699 0.2267 0.0
Dy336 Dy 0.98379 0.01034 0.99338 0.0
C337 C 0.11493 0.02344 0.01507 0.0
C338 C 0.92632 0.02722 0.0001 0.0
Dy339 Dy 0.05397 0.03218 0.01509 0.0
O340 O 0.93108 0.001 0.97783 0.0
O341 O 0.95216 0.04203 0.01844 0.0
O342 O 0.99329 0.98308 0.94293 0.0
O343 O 0.02672 0.0274 0.96862 0.0
C344 C 0.02218 0.0028 0.9438 0.0
C345 C 0.01537 0.03989 0.06485 0.0
O346 O 0.05111 0.0844 -0.00154 0.0
O347 O 0.99581 0.07017 0.99389 0.0
O348 O 0.10301 0.03997 0.04013 0.0
O349 O 0.09416 0.01432 0.98984 0.0
O350 O 0.04356 0.0606 0.06418 0.0
O351 O 0.01067 0.0146 0.0404 0.0
O352 O 0.98742 0.95851 0.0101 0.0
O353 O 0.04272 0.97197 0.01236 0.0
C354 C 0.02334 0.09349 0.99419 0.0
C355 C 0.01517 0.94901 0.01334 0.0
Dy356 Dy 0.27637 0.76202 0.21716 0.0
C357 C 0.2638 0.76991 0.36039 0.0
C358 C 0.28075 0.76628 0.15193 0.0
Dy359 Dy 0.26132 0.77472 0.29491 0.0
O360 O 0.3028 0.78148 0.17514 0.0
O361 O 0.25617 0.74825 0.16454 0.0
O362 O 0.32485 0.74864 0.22626 0.0
O363 O 0.29713 0.75943 0.26458 0.0
C364 C 0.32365 0.75256 0.25829 0.0
C365 C 0.21224 0.78489 0.25619 0.0
O366 O 0.2913 0.82756 0.29049 0.0
O367 O 0.28726 0.82193 0.23243 0.0
O368 O 0.28481 0.7916 0.3464 0.0
O369 O 0.24114 0.7518 0.33863 0.0
O370 O 0.2136 0.78855 0.28842 0.0
O371 O 0.23802 0.77677 0.24679 0.0
O372 O 0.24629 0.70832 0.22165 0.0
O373 O 0.25607 0.71598 0.27912 0.0
C374 C 0.29587 0.84066 0.26253 0.0
C375 C 0.24379 0.69628 0.2504 0.0
Dy376 Dy 0.55028 0.01916 0.50884 0.0
C377 C 0.42102 0.04552 0.50588 0.0
C378 C 0.60617 0.99623 0.51544 0.0
Dy379 Dy 0.47658 0.02141 0.51281 0.0
O380 O 0.59936 0.01456 0.49294 0.0
O381 O 0.58302 0.992 0.53509 0.0
O382 O 0.55024 0.042 0.46123 0.0
O383 O 0.50853 0.00929 0.47509 0.0
C384 C 0.51978 0.02888 0.45469 0.0
C385 C 0.50707 0.01102 0.56735 0.0
O386 O 0.47017 0.96303 0.49159 0.0
O387 O 0.52345 0.96129 0.50264 0.0
O388 O 0.43169 0.03628 0.53272 0.0
O389 O 0.43987 0.0396 0.48241 0.0
O390 O 0.47655 -0.00163 0.56024 0.0
O391 O 0.51843 0.03069 0.54688 0.0
O392 O 0.55527 0.07642 0.53269 0.0
O393 O 0.50372 0.07853 0.51485 0.0
C394 C 0.49326 0.94498 0.49332 0.0
C395 C 0.53294 0.0945 0.52769 0.0
Dy396 Dy 0.23087 0.26572 0.75705 0.0
C397 C 0.36778 0.27009 0.74089 0.0
C398 C 0.17045 0.2626 0.77703 0.0
Dy399 Dy 0.30601 0.25968 0.75813 0.0
O400 O 0.17794 0.26141 0.74624 0.0
O401 O 0.19549 0.26371 0.796 0.0
O402 O 0.24015 0.32386 0.74918 0.0
O403 O 0.2775 0.29974 0.75602 0.0
C404 C 0.27105 0.32889 0.75072 0.0
C405 C 0.26487 0.19621 0.76384 0.0
O406 O 0.30367 0.28638 0.81037 0.0
O407 O 0.24795 0.27095 0.81097 0.0
O408 O 0.35638 0.25106 0.76331 0.0
O409 O 0.3459 0.28464 0.72957 0.0
O410 O 0.2958 0.2006 0.7646 0.0
O411 O 0.2589 0.22577 0.75924 0.0
O412 O 0.23376 0.23873 0.70384 0.0
O413 O 0.28968 0.24853 0.70447 0.0
C414 C 0.27695 0.28311 0.82633 0.0
C415 C 0.26091 0.23831 0.6887 0.0
Dy416 Dy 0.00411 -0.00174 0.47132 0.0
C417 C 0.05331 0.04502 0.60174 0.0
C418 C 0.97244 0.98285 0.41019 0.0
Dy419 Dy 0.0217 0.03434 0.54066 0.0
O420 O 0.0018 0.98063 0.41604 0.0
O421 O 0.96009 0.99109 0.43802 0.0
O422 O 0.05409 0.99207 0.46467 0.0
O423 O 0.04618 0.03807 0.49496 0.0
C424 C 0.06725 0.02151 0.48468 0.0
C425 C 0.95834 0.00874 0.52671 0.0
O426 O 0.02411 0.08569 0.52051 0.0
O427 O 0.99665 0.05445 0.47159 0.0
O428 O 0.02323 0.0447 0.59655 0.0
O429 O 0.06631 0.04325 0.57358 0.0
O430 O 0.97066 0.03863 0.54663 0.0
O431 O 0.98034 0.99358 0.51689 0.0
O432 O 0.00272 0.94776 0.49212 0.0
O433 O 0.03255 0.97949 0.53932 0.0
C434 C 0.00974 0.08518 0.49117 0.0
C435 C 0.01966 0.9486 0.51999 0.0
Dy436 Dy 0.3026 0.78777 0.76266 0.0
C437 C 0.17328 0.73455 0.71986 0.0
C438 C 0.36236 0.80353 0.79351 0.0
Dy439 Dy 0.23387 0.74968 0.74792 0.0
O440 O 0.35571 0.81082 0.76436 0.0
O441 O 0.33616 0.78956 0.80593 0.0
O442 O 0.30684 0.79518 0.70969 0.0
O443 O 0.27665 0.74895 0.72093 0.0
C444 C 0.28615 0.76569 0.69763 0.0
C445 C 0.25135 0.77147 0.8126 0.0
O446 O 0.25276 0.69944 0.74487 0.0
O447 O 0.30162 0.73087 0.77081 0.0
O448 O 0.18099 0.73136 0.7501 0.0
O449 O 0.19899 0.74299 0.7044 0.0
O450 O 0.22977 0.7424 0.80155 0.0
O451 O 0.26007 0.78791 0.78906 0.0
O452 O 0.2826 0.83716 0.76751 0.0
O453 O 0.23428 0.80694 0.74009 0.0
C454 C 0.281 0.70014 0.75937 0.0
C455 C 0.25451 0.83748 0.7532 0.0
Dy456 Dy 0.51222 0.0156 0.03967 0.0
C457 C 0.52709 0.03409 0.90382 0.0
C458 C 0.50336 0.01686 0.10397 0.0
Dy459 Dy 0.50963 0.03053 0.96569 0.0
O460 O 0.52834 0.00886 0.09051 0.0
O461 O 0.48423 0.02546 0.08297 0.0
O462 O 0.51476 0.95746 0.03007 0.0
O463 O 0.51279 0.98509 0.9905 0.0
C464 C 0.51451 0.95492 -0.00189 0.0
C465 C 0.50611 0.09062 0.00851 0.0
O466 O 0.46043 -0.0019 0.96638 0.0
O467 O 0.46087 0.00685 0.02408 0.0
O468 O 0.49897 0.03735 0.91288 0.0
O469 O 0.54377 0.02634 0.92751 0.0
O470 O 0.50477 0.08827 0.97653 0.0
O471 O 0.5093 0.06055 0.01487 0.0
O472 O 0.5618 0.04568 0.03788 0.0
O473 O 0.56099 0.03685 0.98043 0.0
C474 C 0.44573 0.99672 0.99423 0.0
C475 C 0.57643 0.0454 0.01005 0.0
Dy476 Dy 0.27488 0.31166 0.26876 0.0
C477 C 0.27802 0.16202 0.25087 0.0
C478 C 0.24994 0.36716 0.25805 0.0
Dy479 Dy 0.26318 0.22548 0.24834 0.0
O480 O 0.27775 0.37148 0.2742 0.0
O481 O 0.2374 0.33349 0.24786 0.0
O482 O 0.28799 0.31571 0.32353 0.0
O483 O 0.27568 0.26598 0.29271 0.0
C484 C 0.2824 0.28084 0.32274 0.0
C485 C 0.25646 0.25786 0.19451 0.0
O486 O 0.2178 0.22753 0.2722 0.0
O487 O 0.22473 0.29041 0.28206 0.0
O488 O 0.25206 0.16499 0.23515 0.0
O489 O 0.29436 0.19292 0.26582 0.0
O490 O 0.25129 0.22307 0.19306 0.0
O491 O 0.26307 0.2714 0.22474 0.0
O492 O 0.32065 0.30847 0.24493 0.0
O493 O 0.31484 0.24612 0.24121 0.0
C494 C 0.20792 0.25735 0.28258 0.0
C495 C 0.33147 0.27848 0.23778 0.0
Dy496 Dy 0.50852 0.50051 0.96971 0.0
C497 C 0.54097 0.53965 0.10544 0.0
C498 C 0.4799 0.48638 0.90727 0.0
Dy499 Dy 0.51969 0.53065 0.04047 0.0
O500 O 0.51034 0.49073 0.91417 0.0
O501 O 0.46535 0.48762 0.9345 0.0
O502 O 0.55978 0.4973 0.96678 0.0
O503 O 0.54791 0.54037 -0.00182 0.0
C504 C 0.57041 0.52573 0.98901 0.0
C505 C 0.45771 0.50475 0.02013 0.0
O506 O 0.52211 0.58383 0.02388 0.0
O507 O 0.4976 0.55566 0.97262 0.0
O508 O 0.51131 0.53225 0.09437 0.0
O509 O 0.55907 0.54516 0.08114 0.0
O510 O 0.46818 0.53431 0.04105 0.0
O511 O 0.48067 0.49042 0.01197 0.0
O512 O 0.50744 0.44832 0.98688 0.0
O513 O 0.5334 0.47675 0.03706 0.0
C514 C 0.50816 0.5851 0.99483 0.0
C515 C 0.52233 0.44703 0.01533 0.0
Dy516 Dy 0.80271 0.29022 0.26149 0.0
C517 C 0.67411 0.23119 0.21463 0.0
C518 C 0.86184 0.30696 0.29351 0.0
Dy519 Dy 0.73382 0.2499 0.24514 0.0
O520 O 0.85595 0.31113 0.26309 0.0
O521 O 0.83518 0.29612 0.30669 0.0
O522 O 0.80774 0.29738 0.20856 0.0
O523 O 0.77763 0.25104 0.21983 0.0
C524 C 0.78723 0.2677 0.19655 0.0
C525 C 0.75009 0.27323 0.30979 0.0
O526 O 0.75478 0.2011 0.24243 0.0
O527 O 0.80238 0.23366 0.27013 0.0
O528 O 0.68153 0.22479 0.2439 0.0
O529 O 0.69974 0.24582 0.20153 0.0
O530 O 0.72869 0.2439 0.29908 0.0
O531 O 0.75897 0.28879 0.28588 0.0
O532 O 0.78214 0.33904 0.26469 0.0
O533 O 0.73338 0.30741 0.23854 0.0
C534 C 0.78288 0.20245 0.25762 0.0
C535 C 0.75364 0.33837 0.25074 0.0
Dy536 Dy 0.01867 0.51502 0.54076 0.0
C537 C 0.02602 0.55161 0.40595 0.0
C538 C 0.00637 0.50418 0.6029 0.0
Dy539 Dy 0.01661 0.54176 0.46888 0.0
O540 O 0.99671 0.48063 0.57646 0.0
O541 O 0.02327 0.53393 0.59538 0.0
O542 O 0.02599 0.45937 0.52192 0.0
O543 O 0.02185 0.49462 0.48938 0.0
C544 C 0.0254 0.46333 0.49095 0.0
C545 C 0.00833 0.59264 0.51877 0.0
O546 O 0.9667 0.51228 0.469 0.0
O547 O 0.96772 0.51275 0.52645 0.0
O548 O 0.00296 0.52741 0.41448 0.0
O549 O 0.04362 0.57007 0.43183 0.0
O550 O 0.00806 0.5971 0.48796 0.0
O551 O 0.01302 0.56184 0.52011 0.0
O552 O 0.06971 0.53926 0.53886 0.0
O553 O 0.06702 0.53933 0.48151 0.0
C554 C 0.95263 0.5071 0.49662 0.0
C555 C 0.08319 0.54197 0.51046 0.0
Dy556 Dy 0.73519 0.76541 0.25741 0.0
C557 C 0.86636 0.76815 0.24739 0.0
C558 C 0.67347 0.76034 0.27442 0.0
Dy559 Dy 0.80432 0.76078 0.26366 0.0
O560 O 0.68588 0.77668 0.25075 0.0
O561 O 0.69411 0.74521 0.28712 0.0
O562 O 0.74815 0.8155 0.23402 0.0
O563 O 0.78022 0.80522 0.26883 0.0
C564 C 0.77688 0.82552 0.24814 0.0
C565 C 0.76291 0.70232 0.27578 0.0
O566 O 0.80302 0.78876 0.31554 0.0
O567 O 0.74765 0.77667 0.31326 0.0
O568 O 0.8508 0.74178 0.26094 0.0
O569 O 0.84858 0.79096 0.24476 0.0
O570 O 0.79115 0.71428 0.29095 0.0
O571 O 0.75898 0.72035 0.25308 0.0
O572 O 0.73747 0.73836 0.20455 0.0
O573 O 0.79269 0.75122 0.20862 0.0
C574 C 0.77588 0.78773 0.33026 0.0
C575 C 0.76518 0.73987 0.19065 0.0
Dy576 Dy 0.77377 0.26774 0.72099 0.0
C577 C 0.75567 0.25489 0.8612 0.0
C578 C 0.76369 0.28236 0.65988 0.0
Dy579 Dy 0.76019 0.26932 0.79873 0.0
O580 O 0.76844 0.25138 0.66546 0.0
O581 O 0.76553 0.30465 0.6873 0.0
O582 O 0.82418 0.25889 0.72488 0.0
O583 O 0.798 0.26273 0.76629 0.0
C584 C 0.82478 0.25877 0.75685 0.0
C585 C 0.70961 0.27947 0.76179 0.0
O586 O 0.79215 0.32308 0.80062 0.0
O587 O 0.78963 0.32588 0.74359 0.0
O588 O 0.77315 0.28423 0.85354 0.0
O589 O 0.74151 0.23366 0.83476 0.0
O590 O 0.71052 0.28066 0.79371 0.0
O591 O 0.73602 0.27391 0.75302 0.0
O592 O 0.74356 0.21344 0.72261 0.0
O593 O 0.76024 0.21289 0.77708 0.0
C594 C 0.79792 0.34044 0.77507 0.0
C595 C 0.74611 0.19626 0.74795 0.0
Dy596 Dy 0.77296 0.80867 0.76416 0.0
C597 C 0.76753 0.65391 0.74863 0.0
C598 C 0.76664 0.87603 0.75681 0.0
Dy599 Dy 0.75995 0.72136 0.74552 0.0
O600 O 0.768 0.86444 0.78494 0.0
O601 O 0.77058 0.85133 0.73307 0.0
O602 O 0.7907 0.81251 0.81825 0.0
O603 O 0.77561 0.7632 0.78802 0.0
C604 C 0.7847 0.77771 0.81765 0.0
C605 C 0.74885 0.75118 0.69169 0.0
O606 O 0.71347 0.72651 0.76576 0.0
O607 O 0.72098 0.78963 0.77245 0.0
O608 O 0.77817 0.67287 0.72612 0.0
O609 O 0.7505 0.67114 0.76798 0.0
O610 O 0.74452 0.71661 0.69118 0.0
O611 O 0.75646 0.76629 0.72152 0.0
O612 O 0.81932 0.80292 0.74417 0.0
O613 O 0.81335 0.74148 0.74629 0.0
C614 C 0.7038 0.75693 0.77431 0.0
C615 C 0.83038 0.77303 0.74097 0.0
Dy616 Dy 0.48273 0.5108 0.49205 0.0
C617 C 0.61176 0.51471 0.51415 0.0
C618 C 0.42639 0.53036 0.49671 0.0
Dy619 Dy 0.5528 0.52865 0.51348 0.0
O620 O 0.42924 0.49982 0.47947 0.0
O621 O 0.45346 0.54823 0.51096 0.0
O622 O 0.49068 0.48391 0.44096 0.0
O623 O 0.526 0.5259 0.46701 0.0
C624 C 0.52019 0.50182 0.44183 0.0
C625 C 0.51434 0.53865 0.56332 0.0
O626 O 0.55219 0.57991 0.49407 0.0
O627 O 0.49764 0.57112 0.49717 0.0
O628 O 0.60413 0.5409 0.53407 0.0
O629 O 0.5879 0.49804 0.49355 0.0
O630 O 0.54384 0.55626 0.56399 0.0
O631 O 0.50908 0.5137 0.53878 0.0
O632 O 0.48504 0.46067 0.51275 0.0
O633 O 0.53915 0.46831 0.50722 0.0
C634 C 0.52559 0.59207 0.49365 0.0
C635 C 0.51142 0.44802 0.51209 0.0
Dy636 Dy 0.0487 0.51529 0.00829 0.0
C637 C 0.92669 0.55779 0.01975 0.0
C638 C 0.10422 0.49139 0.01329 0.0
Dy639 Dy 0.97879 0.52639 0.01678 0.0
O640 O 0.09948 0.5156 0.99584 0.0
O641 O 0.07895 0.48128 0.02905 0.0
O642 O 0.04929 0.53085 0.95734 0.0
O643 O 0.00571 0.50893 0.9756 0.0
C644 C 0.01841 0.52429 0.95283 0.0
C645 C 0.00967 0.51461 0.07045 0.0
O646 O 0.96816 0.4679 0.99344 0.0
O647 O 0.01894 0.45951 0.00633 0.0
O648 O 0.92519 0.52323 0.01414 0.0
O649 O 0.95635 0.5747 0.02296 0.0
O650 O 0.97883 0.50609 0.06552 0.0
O651 O 0.02153 0.53245 0.049 0.0
O652 O 0.05735 0.57375 0.03064 0.0
O653 O 0.00928 0.57789 0.00679 0.0
C654 C 0.98833 0.44648 0.99666 0.0
C655 C 0.03775 0.59336 0.0214 0.0
C656 C 0.98656 0.1693 0.97671 0.0
C657 C -0.00088 0.17665 0.94653 0.0
C658 C -0.00268 0.14501 0.99426 0.0
C659 C 0.02112 0.12727 0.98243 0.0
H660 H 0.96735 0.18123 0.98617 0.0
H661 H 0.98546 0.13828 0.01619 0.0
S662 S 0.06219 0.13723 0.90513 0.0
N663 N 0.03751 0.16481 0.90615 0.0
N664 N 0.05744 0.11921 0.93928 0.0
C665 C 0.03516 0.13582 0.95337 0.0
C666 C 0.0242 0.16047 0.93536 0.0
C667 C 0.12846 0.79807 0.23958 0.0
C668 C 0.12479 0.79806 0.20525 0.0
C669 C 0.15665 0.79346 0.25471 0.0
C670 C 0.18312 0.78848 0.23662 0.0
H671 H 0.10925 0.80159 0.25534 0.0
H672 H 0.15748 0.7938 0.28128 0.0
S673 S 0.18487 0.78258 0.14522 0.0
N674 N 0.14944 0.79055 0.15295 0.0
N675 N 0.20278 0.78153 0.18147 0.0
C676 C 0.17975 0.78752 0.20199 0.0
C677 C 0.15063 0.79243 0.18639 0.0
C678 C 0.44953 0.85112 0.45256 0.0
C679 C 0.47462 0.83338 0.44602 0.0
C680 C 0.45548 0.88678 0.4691 0.0
C681 C 0.48669 0.90579 0.48022 0.0
H682 H 0.42524 0.83788 0.4436 0.0
H683 H 0.43554 0.89977 0.47232 0.0
S684 S 0.56011 0.869 0.47353 0.0
N685 N 0.53127 0.83588 0.45454 0.0
N686 N 0.54269 0.90229 0.48651 0.0
C687 C 0.51175 0.88731 0.47567 0.0
C688 C 0.50567 0.85129 0.45828 0.0
C689 C 0.43607 0.29685 0.68763 0.0
C690 C 0.45766 0.27562 0.69439 0.0
C691 C 0.40765 0.29516 0.70345 0.0
C692 C 0.39922 0.27192 0.7266 0.0
H693 H 0.44137 0.3157 0.67034 0.0
H694 H 0.3921 0.31233 0.69732 0.0
S695 S 0.44563 0.20774 0.75077 0.0
N696 N 0.46784 0.22896 0.72451 0.0
N697 N 0.41368 0.22516 0.75398 0.0
C698 C 0.42007 0.24972 0.73316 0.0
C699 C 0.44946 0.25173 0.71713 0.0
C700 C 0.02159 0.88681 0.58304 0.0
C701 C 0.00964 0.85248 0.56444 0.0
C702 C 0.02665 0.91753 0.56794 0.0
C703 C 0.02005 0.91511 0.53353 0.0
H704 H 0.02495 0.89027 0.60985 0.0
H705 H 0.03397 0.94344 0.58386 0.0
S706 S 0.99602 0.83053 0.47303 0.0
N707 N 0.9963 0.817 0.50952 0.0
N708 N 0.00646 0.87499 0.48067 0.0
C709 C 0.01095 0.88063 0.51426 0.0
C710 C 0.00551 0.84923 0.52984 0.0
C711 C 0.4195 0.75053 0.82041 0.0
C712 C 0.44952 0.77387 0.82102 0.0
C713 C 0.39171 0.76103 0.81174 0.0
C714 C 0.39278 0.79522 0.80324 0.0
H715 H 0.41737 0.7239 0.82689 0.0
H716 H 0.36914 0.74193 0.81136 0.0
S717 S 0.46524 0.86685 0.80183 0.0
N718 N 0.47887 0.83309 0.81305 0.0
N719 N 0.42602 0.85261 0.79595 0.0
C720 C 0.42256 0.81878 0.80315 0.0
C721 C 0.45113 0.80813 0.81227 0.0
C722 C 0.48598 0.15064 0.08506 0.0
C723 C 0.4832 0.18181 0.07203 0.0
C724 C 0.49409 0.12109 0.06488 0.0
C725 C 0.50017 0.1222 0.03132 0.0
H726 H 0.4812 0.14883 0.11066 0.0
H727 H 0.49509 0.09717 0.07541 0.0
S728 S 0.5003 0.19998 0.98732 0.0
N729 N 0.48974 0.21315 0.02479 0.0
N730 N 0.50565 0.15883 0.98733 0.0
C731 C 0.49885 0.15406 0.01881 0.0
C732 C 0.4902 0.18355 0.03904 0.0
C733 C 0.11887 0.24467 0.28549 0.0
C734 C 0.11482 0.25307 0.31967 0.0
C735 C 0.14913 0.24521 0.27373 0.0
C736 C 0.17638 0.25421 0.29568 0.0
H737 H 0.09853 0.23784 0.26749 0.0
H738 H 0.15128 0.23915 0.24724 0.0
S739 S 0.17963 0.27733 0.38715 0.0
N740 N 0.14127 0.2699 0.37535 0.0
N741 N 0.19823 0.27121 0.35276 0.0
C742 C 0.17304 0.26256 0.32976 0.0
C743 C 0.1422 0.26192 0.34191 0.0
C744 C 0.94617 0.03067 0.12199 0.0
C745 C 0.96186 0.04351 0.15372 0.0
C746 C 0.96352 0.02796 0.09336 0.0
C747 C 0.99709 0.03925 0.09521 0.0
H748 H 0.92034 0.02291 0.11918 0.0
H749 H 0.95038 0.01735 0.06973 0.0
S750 S 0.04995 0.06686 0.17259 0.0
N751 N 0.01348 0.0614 0.18536 0.0
N752 N 0.04541 0.05806 0.13173 0.0
C753 C 0.01304 0.05006 0.12685 0.0
C754 C 0.9956 0.05188 0.15598 0.0
C755 C 0.25363 0.71577 0.43002 0.0
C756 C 0.28363 0.72699 0.44789 0.0
C757 C 0.24642 0.73191 0.40314 0.0
C758 C 0.26884 0.75998 0.39325 0.0
H759 H 0.23624 0.69284 0.43537 0.0
H760 H 0.22383 0.7208 0.38884 0.0
S761 S 0.3485 0.80362 0.43515 0.0
N762 N 0.33421 0.77125 0.45642 0.0
N763 N 0.32051 0.80149 0.40577 0.0
C764 C 0.29772 0.77364 0.4126 0.0
C765 C 0.30517 0.75714 0.43996 0.0
C766 C 0.5297 0.96224 0.63476 0.0
C767 C 0.56134 0.98049 0.64496 0.0
C768 C 0.51245 0.97233 0.60957 0.0
C769 C 0.52615 0.00111 0.59363 0.0
H770 H 0.51782 0.94033 0.6468 0.0
H771 H 0.4881 0.95758 0.60272 0.0
S772 S 0.60812 0.05827 0.61121 0.0
N773 N 0.60582 0.02883 0.63696 0.0
N774 N 0.57313 0.04824 0.58996 0.0
C775 C 0.55788 0.01952 0.60327 0.0
C776 C 0.57561 0.00901 0.62878 0.0
C777 C 0.30568 0.33469 0.91295 0.0
C778 C 0.28246 0.3194 0.93322 0.0
C779 C 0.30405 0.32243 0.87862 0.0
C780 C 0.27908 0.29427 0.86308 0.0
H781 H 0.32528 0.35661 0.92377 0.0
H782 H 0.32222 0.33559 0.86408 0.0
S783 S 0.21395 0.24259 0.9056 0.0
N784 N 0.2348 0.27312 0.93569 0.0
N785 N 0.23165 0.24975 0.87122 0.0
C786 C 0.25597 0.27821 0.88323 0.0
C787 C 0.25765 0.29083 0.91827 0.0
C788 C 0.92902 0.02428 0.35057 0.0
C789 C 0.94128 0.01442 0.31993 0.0
C790 C 0.93765 0.01165 0.37901 0.0
C791 C 0.95982 0.98961 0.37838 0.0
H792 H 0.91313 0.04262 0.35307 0.0
H793 H 0.92797 0.0208 0.40206 0.0
S794 S 0.00023 0.95691 0.30515 0.0
N795 N 0.97701 0.98106 0.29079 0.0
N796 N 0.99444 0.95875 0.34506 0.0
C797 C 0.97263 0.97968 0.34818 0.0
C798 C 0.96321 0.99187 0.31881 0.0
C799 C 0.31387 0.74507 0.61148 0.0
C800 C 0.29823 0.70892 0.60076 0.0
C801 C 0.30827 0.76381 0.64201 0.0
C802 C 0.28712 0.74705 0.66333 0.0
H803 H 0.33078 0.75909 0.59623 0.0
H804 H 0.32153 0.79134 0.64939 0.0
S805 S 0.23797 0.65357 0.64584 0.0
N806 N 0.25892 0.65765 0.61297 0.0
N807 N 0.24861 0.69283 0.67055 0.0
C808 C 0.27022 0.71133 0.65237 0.0
C809 C 0.27575 0.69227 0.62107 0.0
C810 C 0.58847 0.04342 0.84256 0.0
C811 C 0.56996 0.03351 0.81243 0.0
C812 C 0.57408 0.04627 0.87229 0.0
C813 C 0.54078 0.04058 0.87267 0.0
H814 H 0.61401 0.04688 0.8435 0.0
H815 H 0.58913 0.05083 0.89506 0.0
S816 S 0.48375 0.03186 0.8005 0.0
N817 N 0.5182 0.03005 0.78429 0.0
N818 N 0.49083 0.03694 0.84117 0.0
C819 C 0.52262 0.038 0.84296 0.0
C820 C 0.53741 0.03436 0.81235 0.0
C821 C 0.25309 0.27167 0.10362 0.0
C822 C 0.26164 0.30926 0.10547 0.0
C823 C 0.25024 0.2557 0.13262 0.0
C824 C 0.25703 0.27652 0.16468 0.0
H825 H 0.24941 0.25446 0.07964 0.0
H826 H 0.24377 0.22659 0.12978 0.0
S827 S 0.28331 0.37619 0.18232 0.0
N828 N 0.27713 0.36689 0.14157 0.0
N829 N 0.27501 0.33699 0.19552 0.0
C830 C 0.26605 0.31415 0.16656 0.0
C831 C 0.26758 0.33041 0.13713 0.0
C832 C 0.16658 0.95667 0.99519 0.0
C833 C 0.18642 0.96185 0.02432 0.0
C834 C 0.14493 0.97845 0.99184 0.0
C835 C 0.14193 0.00592 0.01766 0.0
H836 H 0.16788 0.93581 0.97463 0.0
H837 H 0.12974 0.97287 0.9691 0.0
S838 S 0.18852 0.03089 0.09899 0.0
N839 N 0.20215 0.99705 0.07942 0.0
N840 N 0.16079 0.03756 0.07315 0.0
C841 C 0.16178 0.01174 0.04683 0.0
C842 C 0.18414 0.98974 0.05018 0.0
C843 C 0.64659 0.59398 0.98061 0.0
C844 C 0.67047 0.57852 0.99317 0.0
C845 C 0.614 0.57753 0.98051 0.0
C846 C 0.60422 0.54489 0.9926 0.0
H847 H 0.65307 0.61858 0.97022 0.0
H848 H 0.5964 0.58976 0.96988 0.0
S849 S 0.65608 0.49541 0.03182 0.0
N850 N 0.6811 0.53005 0.02108 0.0
N851 N 0.62007 0.49922 0.01979 0.0
C852 C 0.62745 0.52987 0.0063 0.0
C853 C 0.66052 0.54668 0.00689 0.0
C854 C 0.73934 0.42891 0.28992 0.0
C855 C 0.71071 0.43063 0.27306 0.0
C856 C 0.75443 0.40028 0.28089 0.0
C857 C 0.74125 0.37187 0.25495 0.0
H858 H 0.74963 0.44919 0.31104 0.0
H859 H 0.77558 0.39945 0.2957 0.0
S860 S 0.66801 0.36472 0.20113 0.0
N861 N 0.67098 0.40242 0.22749 0.0
N862 N 0.6991 0.34863 0.21093 0.0
C863 C 0.71354 0.37417 0.23678 0.0
C864 C 0.69837 0.40353 0.2457 0.0
C865 C 0.87707 0.44744 0.51384 0.0
C866 C 0.85362 0.45851 0.49573 0.0
C867 C 0.90905 0.46335 0.51338 0.0
C868 C 0.91881 0.49082 0.49471 0.0
H869 H 0.87081 0.42677 0.52923 0.0
H870 H 0.92629 0.45404 0.52787 0.0
S871 S 0.86728 0.53028 0.44343 0.0
N872 N 0.84219 0.49904 0.45889 0.0
N873 N 0.9034 0.52905 0.45779 0.0
C874 C 0.89599 0.5022 0.47615 0.0
C875 C 0.86301 0.4861 0.47686 0.0
C876 C 0.34456 0.11694 0.2493 0.0
C877 C 0.33347 0.09022 0.26854 0.0
C878 C 0.32416 0.13715 0.23875 0.0
C879 C 0.29225 0.13096 0.24699 0.0
H880 H 0.36969 0.12468 0.2451 0.0
H881 H 0.33428 0.16028 0.22729 0.0
S882 S 0.24956 0.05638 0.28672 0.0
N883 N 0.28718 0.05259 0.28813 0.0
N884 N 0.24859 0.09141 0.26812 0.0
C885 C 0.27975 0.10097 0.26162 0.0
C886 C 0.3006 0.08038 0.27266 0.0
C887 C 0.34872 0.08561 0.52834 0.0
C888 C 0.34381 0.10299 0.50127 0.0
C889 C 0.37374 0.06722 0.52977 0.0
C890 C 0.39422 0.06448 0.50369 0.0
H891 H 0.33312 0.08625 0.54857 0.0
H892 H 0.37682 0.0547 0.55131 0.0
S893 S 0.39099 0.10471 0.42696 0.0
N894 N 0.36164 0.11631 0.4479 0.0
N895 N 0.40764 0.08099 0.44999 0.0
C896 C 0.3894 0.08167 0.47648 0.0
C897 C 0.36451 0.10108 0.47544 0.0
C898 C 0.72215 0.62855 0.32174 0.0
C899 C 0.70287 0.60299 0.29678 0.0
C900 C 0.7407 0.66088 0.31463 0.0
C901 C 0.74063 0.66934 0.28236 0.0
H902 H 0.7233 0.62342 0.34704 0.0
H903 H 0.75549 0.67935 0.33465 0.0
S904 S 0.69495 0.61199 0.20767 0.0
N905 N 0.68524 0.58866 0.23799 0.0
N906 N 0.7198 0.64973 0.22503 0.0
C907 C 0.72103 0.64465 0.25719 0.0
C908 C 0.70226 0.61143 0.2643 0.0
C909 C 0.86265 0.42118 0.8097 0.0
C910 C 0.85355 0.44864 0.7954 0.0
C911 C 0.84425 0.38603 0.80302 0.0
C912 C 0.81635 0.37754 0.78181 0.0
H913 H 0.88401 0.427 0.82627 0.0
H914 H 0.852 0.36531 0.81429 0.0
S915 S 0.78184 0.4404 0.73932 0.0
N916 N 0.81475 0.4657 0.75985 0.0
N917 N 0.78007 0.39915 0.74702 0.0
C918 C 0.80711 0.40474 0.76715 0.0
C919 C 0.82579 0.44058 0.77407 0.0
C920 C 0.04285 0.88281 0.06101 0.0
C921 C 0.01684 0.85305 0.05585 0.0
C922 C 0.04279 0.91284 0.04545 0.0
C923 C 0.01656 0.91449 0.02444 0.0
H924 H 0.06255 0.88396 0.07869 0.0
H925 H 0.0627 0.93583 0.05163 0.0
S926 S 0.94563 0.84082 0.99693 0.0
N927 N 0.96652 0.82472 0.0233 0.0
N928 N 0.96619 0.88192 0.99541 0.0
C929 C 0.99162 0.88391 0.01689 0.0
C930 C 0.99189 0.85297 0.03214 0.0
C931 C 0.87851 0.25103 0.83114 0.0
C932 C 0.90831 0.25266 0.81744 0.0
C933 C 0.85134 0.25319 0.81164 0.0
C934 C 0.85307 0.25631 0.77774 0.0
H935 H 0.87633 0.24884 0.85711 0.0
H936 H 0.82892 0.25237 0.82314 0.0
S937 S 0.92525 0.25931 0.72984 0.0
N938 N 0.9375 0.25619 0.76774 0.0
N939 N 0.88703 0.25971 0.73143 0.0
C940 C 0.88266 0.25718 0.76386 0.0
C941 C 0.91011 0.25547 0.78361 0.0
C942 C 0.51072 0.16383 0.59013 0.0
C943 C 0.52257 0.19579 0.57802 0.0
C944 C 0.51706 0.13147 0.57492 0.0
C945 C 0.53511 0.13005 0.54694 0.0
H946 H 0.49595 0.16377 0.6111 0.0
H947 H 0.50636 0.10695 0.58407 0.0
S948 S 0.57206 0.20683 0.5063 0.0
N949 N 0.55418 0.22497 0.53753 0.0
N950 N 0.56519 0.16321 0.5079 0.0
C951 C 0.5478 0.16196 0.53498 0.0
C952 C 0.54171 0.19521 0.55086 0.0
C953 C 0.58697 0.76728 0.28033 0.0
C954 C 0.58159 0.76474 0.31386 0.0
C955 C 0.61689 0.76661 0.26782 0.0
C956 C 0.64243 0.76265 0.28817 0.0
H957 H 0.56773 0.76917 0.26333 0.0
H958 H 0.61977 0.76815 0.24181 0.0
S959 S 0.64256 0.75941 0.3785 0.0
N960 N 0.60568 0.76161 0.36785 0.0
N961 N 0.66161 0.75964 0.34411 0.0
C962 C 0.63793 0.76158 0.32199 0.0
C963 C 0.60762 0.76287 0.33491 0.0
C964 C 0.01075 0.18254 0.48143 0.0
C965 C 0.01317 0.18143 0.44703 0.0
C966 C 0.01082 0.15171 0.4962 0.0
C967 C 0.01195 0.11864 0.4767 0.0
H968 H 0.00822 0.20712 0.49682 0.0
H969 H 0.0087 0.1534 0.52269 0.0
S970 S 0.01773 0.10199 0.38528 0.0
N971 N 0.01691 0.145 0.3941 0.0
N972 N 0.01613 0.0872 0.42114 0.0
C973 C 0.01466 0.11759 0.44229 0.0
C974 C 0.01544 0.14895 0.42762 0.0
C975 C 0.61098 0.26643 0.17265 0.0
C976 C 0.5845 0.25712 0.19132 0.0
C977 C 0.63923 0.25537 0.17873 0.0
C978 C 0.64211 0.23473 0.20379 0.0
H979 H 0.61024 0.2832 0.15373 0.0
H980 H 0.65945 0.26461 0.1647 0.0
S981 S 0.57863 0.19961 0.2571 0.0
N982 N 0.562 0.22324 0.23399 0.0
N983 N 0.61542 0.20277 0.24553 0.0
C984 C 0.61539 0.22368 0.22156 0.0
C985 C 0.58653 0.23493 0.21538 0.0
C986 C 0.49903 0.85463 0.9702 0.0
C987 C 0.5108 0.85073 0.93859 0.0
C988 C 0.50063 0.88858 0.98869 0.0
C989 C 0.51346 0.92031 0.97622 0.0
H990 H 0.48792 0.83111 0.98059 0.0
H991 H 0.491 0.88988 0.01289 0.0
S992 S 0.5494 0.92514 0.89543 0.0
N993 N 0.53735 0.88147 0.89595 0.0
N994 N 0.5399 0.94584 0.9309 0.0
C995 C 0.52607 0.91707 0.9449 0.0
C996 C 0.52496 0.88212 0.92609 0.0
C997 C 0.90153 0.79901 0.69073 0.0
C998 C 0.91943 0.77304 0.69421 0.0
C999 C 0.87368 0.7997 0.70727 0.0
C1000 C 0.86211 0.77397 0.72749 0.0
H1001 H 0.90931 0.81939 0.67536 0.0
H1002 H 0.86062 0.82001 0.70327 0.0
S1003 S 0.90035 0.70035 0.74515 0.0
N1004 N 0.9242 0.72143 0.72005 0.0
N1005 N 0.8711 0.7219 0.75049 0.0
C1006 C 0.87988 0.74788 0.7314 0.0
C1007 C 0.90873 0.74764 0.71497 0.0
C1008 C 0.09132 0.03127 0.89035 0.0
C1009 C 0.085 0.00397 0.86252 0.0
C1010 C 0.07115 0.03031 0.9168 0.0
C1011 C 0.04393 0.00211 0.91625 0.0
H1012 H 0.11156 0.05377 0.89141 0.0
H1013 H 0.0767 0.05216 0.9376 0.0
S1014 S 0.01866 0.92288 0.84975 0.0
N1015 N 0.05084 0.94715 0.83652 0.0
N1016 N 0.01307 0.94527 0.88604 0.0
C1017 C 0.03801 0.97422 0.88885 0.0
C1018 C 0.0585 0.97521 0.86203 0.0
C1019 C 0.76265 0.2834 0.56784 0.0
C1020 C 0.75679 0.31763 0.56624 0.0
C1021 C 0.76286 0.27069 0.59817 0.0
C1022 C 0.75801 0.29242 0.62751 0.0
H1023 H 0.76903 0.26744 0.54598 0.0
H1024 H 0.76882 0.24487 0.59895 0.0
S1025 S 0.74128 0.38391 0.63596 0.0
N1026 N 0.74497 0.37236 0.59602 0.0
N1027 N 0.74572 0.34892 0.6529 0.0
C1028 C 0.75048 0.32588 0.6258 0.0
C1029 C 0.74973 0.33841 0.59507 0.0
C1030 C 0.46849 0.00806 0.37525 0.0
C1031 C 0.46162 0.04156 0.37252 0.0
C1032 C 0.48731 0.00416 0.40237 0.0
C1033 C 0.50072 0.03399 0.42656 0.0
H1034 H 0.45986 0.98504 0.35593 0.0
H1035 H 0.49217 0.97796 0.40398 0.0
S1036 S 0.4887 0.12681 0.43122 0.0
N1037 N 0.46799 0.10442 0.39683 0.0
N1038 N 0.50489 0.09739 0.44727 0.0
C1039 C 0.49352 0.06737 0.4245 0.0
C1040 C 0.47346 0.07107 0.3975 0.0
C1041 C 0.75328 0.72741 0.09533 0.0
C1042 C 0.77969 0.71302 0.08532 0.0
C1043 C 0.7474 0.73486 0.12939 0.0
C1044 C 0.76744 0.72756 0.15439 0.0
H1045 H 0.73761 0.73372 0.07687 0.0
H1046 H 0.72776 0.74739 0.13618 0.0
S1047 S 0.83659 0.68465 0.14041 0.0
N1048 N 0.82394 0.68876 0.10291 0.0
N1049 N 0.8126 0.70145 0.16588 0.0
C1050 C 0.79279 0.71144 0.14419 0.0
C1051 C 0.79898 0.70452 0.10999 0.0
C1052 C 0.09891 0.99327 0.64997 0.0
C1053 C 0.08468 0.99476 0.6803 0.0
C1054 C 0.08969 0.0114 0.6253 0.0
C1055 C 0.06605 0.03171 0.63028 0.0
H1056 H 0.11716 0.97796 0.64527 0.0
H1057 H 0.10055 0.00855 0.6018 0.0
S1058 S 0.02348 0.04568 0.70681 0.0
N1059 N 0.04732 0.01921 0.71502 0.0
N1060 N 0.02963 0.05311 0.66853 0.0
C1061 C 0.05212 0.03379 0.66086 0.0
C1062 C 0.06155 0.01534 0.68592 0.0
C1063 C 0.77916 0.34763 0.38245 0.0
C1064 C 0.76648 0.33236 0.40937 0.0
C1065 C 0.77375 0.32794 0.35043 0.0
C1066 C 0.7554 0.29232 0.34426 0.0
H1067 H 0.7941 0.37461 0.38631 0.0
H1068 H 0.78434 0.3408 0.33045 0.0
S1069 S 0.71717 0.24056 0.40724 0.0
N1070 N 0.73517 0.28008 0.42869 0.0
N1071 N 0.72443 0.2428 0.36807 0.0
C1072 C 0.74229 0.27692 0.37114 0.0
C1073 C 0.748 0.29706 0.40388 0.0
C1074 C 0.47282 0.98532 0.18093 0.0
C1075 C 0.46768 0.01758 0.19864 0.0
C1076 C 0.48729 0.98531 0.15081 0.0
C1077 C 0.49708 0.01761 0.13836 0.0
H1078 H 0.46429 0.95994 0.18955 0.0
H1079 H 0.48904 0.95989 0.13632 0.0
S1080 S 0.49309 0.10933 0.17708 0.0
N1081 N 0.47669 0.08297 0.20305 0.0
N1082 N 0.50353 0.08229 0.14622 0.0
C1083 C 0.49388 0.05001 0.15662 0.0
C1084 C 0.47921 0.05019 0.18697 0.0
C1085 C 0.80802 0.76163 0.90459 0.0
C1086 C 0.786 0.72996 0.90894 0.0
C1087 C 0.80749 0.77647 0.87506 0.0
C1088 C 0.78542 0.76003 0.84796 0.0
H1089 H 0.82611 0.77512 0.92417 0.0
H1090 H 0.82487 0.80093 0.87332 0.0
S1091 S 0.72128 0.67813 0.84646 0.0
N1092 N 0.74048 0.68351 0.88322 0.0
N1093 N 0.73953 0.71167 0.82837 0.0
C1094 C 0.76284 0.72892 0.85209 0.0
C1095 C 0.76312 0.71388 0.88229 0.0
C1096 C 0.87683 0.09491 0.02569 0.0
C1097 C 0.84789 0.07993 0.00736 0.0
C1098 C 0.90165 0.07679 0.02338 0.0
C1099 C 0.89844 0.0435 0.00216 0.0
H1100 H 0.88011 0.12039 0.04224 0.0
H1101 H 0.92368 0.08935 0.03821 0.0
S1102 S 0.8273 0.99496 0.94713 0.0
N1103 N 0.81694 0.03118 0.96656 0.0
N1104 N 0.86433 -0.00265 0.96132 0.0
C1105 C 0.86967 0.02874 0.98304 0.0
C1106 C 0.84414 0.04698 0.98588 0.0
C1107 C 0.38447 0.42772 0.01384 0.0
C1108 C 0.35924 0.4457 0.01751 0.0
C1109 C 0.41616 0.44687 0.01302 0.0
C1110 C 0.42385 0.48477 0.01681 0.0
H1111 H 0.37977 0.39871 0.0119 0.0
H1112 H 0.43489 0.43194 0.01074 0.0
S1113 S 0.36648 0.54446 0.02582 0.0
N1114 N 0.344 0.50348 0.02332 0.0
N1115 N 0.40353 0.53934 0.02293 0.0
C1116 C 0.39878 0.50293 0.01967 0.0
C1117 C 0.36649 0.48343 0.01971 0.0
C1118 C 0.30666 0.61207 0.73228 0.0
C1119 C 0.32527 0.60946 0.76047 0.0
C1120 C 0.2901 0.6401 0.73262 0.0
C1121 C 0.2922 0.66664 0.76093 0.0
H1122 H 0.3051 0.59259 0.70987 0.0
H1123 H 0.27692 0.64201 0.71015 0.0
S1124 S 0.33739 0.67187 0.84108 0.0
N1125 N 0.34427 0.63592 0.81758 0.0
N1126 N 0.31344 0.68791 0.81789 0.0
C1127 C 0.31011 0.66378 0.78932 0.0
C1128 C 0.3266 0.63542 0.78916 0.0
C1129 C 0.16381 0.55021 0.47616 0.0
C1130 C 0.18429 0.5637 0.50456 0.0
C1131 C 0.13101 0.54187 0.47868 0.0
C1132 C 0.11788 0.54662 0.50975 0.0
H1133 H 0.17305 0.54824 0.45177 0.0
H1134 H 0.11596 0.53285 0.45586 0.0
S1135 S 0.16325 0.57459 0.59191 0.0
N1136 N 0.19082 0.57702 0.56466 0.0
N1137 N 0.12861 0.56069 0.56993 0.0
C1138 C 0.13859 0.55713 0.53865 0.0
C1139 C 0.17208 0.56597 0.53589 0.0
C1140 C 0.7292 0.95469 0.77907 0.0
C1141 C 0.70292 0.94661 0.7554 0.0
C1142 C 0.75199 0.93362 0.77761 0.0
C1143 C 0.74963 0.90435 0.75207 0.0
H1144 H 0.73126 0.97615 0.80001 0.0
H1145 H 0.77038 0.93886 0.79768 0.0
S1146 S 0.68787 0.87506 0.68163 0.0
N1147 N 0.67764 0.90964 0.70403 0.0
N1148 N 0.721 0.87087 0.70067 0.0
C1149 C 0.72531 0.89832 0.72652 0.0
C1150 C 0.70177 0.91932 0.7283 0.0
C1151 C 0.68062 0.96352 0.48947 0.0
C1152 C 0.68621 0.94286 0.51389 0.0
C1153 C 0.65501 0.98097 0.49042 0.0
C1154 C 0.63384 0.97866 0.51586 0.0
H1155 H 0.6963 0.96654 0.46942 0.0
H1156 H 0.65178 0.99633 0.47094 0.0
S1157 S 0.6373 0.92799 0.5858 0.0
N1158 N 0.66785 0.92104 0.56428 0.0
N1159 N 0.61987 0.9538 0.56599 0.0
C1160 C 0.63883 0.95789 0.5403 0.0
C1161 C 0.66489 0.93997 0.5393 0.0
C1162 C 0.3462 0.40339 0.75191 0.0
C1163 C 0.33338 0.43285 0.74612 0.0
C1164 C 0.32628 0.36911 0.75199 0.0
C1165 C 0.29291 0.36335 0.74649 0.0
H1166 H 0.37152 0.40739 0.75834 0.0
H1167 H 0.3369 0.34765 0.75808 0.0
S1168 S 0.24804 0.43211 0.72971 0.0
N1169 N 0.28577 0.45404 0.73436 0.0
N1170 N 0.24835 0.39026 0.73398 0.0
C1171 C 0.28017 0.39252 0.73945 0.0
C1172 C 0.30038 0.42711 0.73944 0.0
C1173 C 0.18499 0.62826 0.28609 0.0
C1174 C 0.18204 0.59682 0.26304 0.0
C1175 C 0.20483 0.66015 0.28103 0.0
C1176 C 0.2228 0.6617 0.25294 0.0
H1177 H 0.17159 0.62832 0.30808 0.0
H1178 H 0.20593 0.68391 0.29938 0.0
S1179 S 0.22486 0.58588 0.18627 0.0
N1180 N 0.19912 0.56818 0.21164 0.0
N1181 N 0.2372 0.62898 0.20221 0.0
C1182 C 0.22017 0.63047 0.22956 0.0
C1183 C 0.19961 0.59771 0.23466 0.0
C1184 C 0.48964 0.66793 0.47542 0.0
C1185 C 0.50279 0.67542 0.44555 0.0
C1186 C 0.50015 0.64383 0.49326 0.0
C1187 C 0.52409 0.62608 0.4819 0.0
H1188 H 0.47001 0.67945 0.48433 0.0
H1189 H 0.48781 0.63706 0.51491 0.0
S1190 S 0.56859 0.63874 0.40702 0.0
N1191 N 0.54332 0.66557 0.40707 0.0
N1192 N 0.56251 0.61971 0.44052 0.0
C1193 C 0.53927 0.63539 0.45361 0.0
C1194 C 0.52868 0.66015 0.4354 0.0
C1195 C 0.65909 0.30249 0.69195 0.0
C1196 C 0.62975 0.30236 0.70644 0.0
C1197 C 0.6849 0.29398 0.70923 0.0
C1198 C 0.68211 0.28494 0.74136 0.0
H1199 H 0.66244 0.31027 0.66771 0.0
H1200 H 0.70725 0.29542 0.69773 0.0
S1201 S 0.60832 0.2738 0.787 0.0
N1202 N 0.59833 0.28767 0.7527 0.0
N1203 N 0.64613 0.27172 0.78462 0.0
C1204 C 0.65222 0.28254 0.75487 0.0
C1205 C 0.62628 0.29126 0.73757 0.0
C1206 C 0.94766 0.35845 0.94261 0.0
C1207 C 0.9685 0.33593 0.94787 0.0
C1208 C 0.95287 0.39371 0.96009 0.0
C1209 C 0.97887 0.40735 0.98374 0.0
H1210 H 0.92796 0.34923 0.92386 0.0
H1211 H 0.93733 0.41083 0.95384 0.0
S1212 S 0.03668 0.35623 0.0108 0.0
N1213 N 0.01374 0.32787 0.98068 0.0
N1214 N 0.02294 0.39341 0.01472 0.0
C1215 C -0.00163 0.38387 0.99094 0.0
C1216 C 0.99342 0.34835 0.97262 0.0
C1217 C 0.94835 0.75531 0.22219 0.0
C1218 C 0.95063 0.76853 0.19178 0.0
C1219 C 0.92078 0.75434 0.2401 0.0
C1220 C 0.89497 0.76729 0.2285 0.0
H1221 H 0.96822 0.74639 0.23259 0.0
H1222 H 0.92005 0.74446 0.26357 0.0
S1223 S 0.88717 0.8013 0.1491 0.0
N1224 N 0.9231 0.79263 0.15019 0.0
N1225 N 0.87199 0.79057 0.18364 0.0
C1226 C 0.89641 0.77922 0.19769 0.0
C1227 C 0.92405 0.7799 0.17938 0.0
C1228 C 0.53297 0.37996 0.07131 0.0
C1229 C 0.51051 0.34877 0.05675 0.0
C1230 C 0.53861 0.41094 0.0563 0.0
C1231 C 0.52222 0.41179 0.02603 0.0
H1232 H 0.54429 0.38157 0.09576 0.0
H1233 H 0.55446 0.43503 0.06965 0.0
S1234 S 0.46597 0.3344 0.97473 0.0
N1235 N 0.47549 0.31867 0.00821 0.0
N1236 N 0.48623 0.37661 0.97971 0.0
C1237 C 0.50225 0.3795 0.00961 0.0
C1238 C 0.49634 0.34808 0.02507 0.0
C1239 C 0.91844 0.26537 0.3383 0.0
C1240 C 0.94784 0.27706 0.32496 0.0
C1241 C 0.89145 0.27742 0.32955 0.0
C1242 C 0.89233 0.30078 0.30619 0.0
H1243 H 0.91581 0.24612 0.35523 0.0
H1244 H 0.86931 0.26685 0.34014 0.0
S1245 S 0.96286 0.33878 0.26281 0.0
N1246 N 0.97623 0.31373 0.28703 0.0
N1247 N 0.92465 0.33504 0.26936 0.0
C1248 C 0.92135 0.31264 0.2923 0.0
C1249 C 0.94926 0.30098 0.30185 0.0
C1250 C 0.9633 0.64835 0.57441 0.0
C1251 C 0.98597 0.68114 0.58295 0.0
C1252 C 0.9716 0.61794 0.55634 0.0
C1253 C 0.00265 0.61963 0.54596 0.0
H1254 H 0.93885 0.6465 0.58093 0.0
H1255 H 0.95315 0.59373 0.54865 0.0
S1256 S 0.07067 0.69867 0.56201 0.0
N1257 N 0.04104 0.71286 0.58044 0.0
N1258 N 0.05607 0.65611 0.54568 0.0
C1259 C 0.02567 0.65175 0.55522 0.0
C1260 C 0.01748 0.68243 0.574 0.0
C1261 C 0.61549 0.73013 0.78586 0.0
C1262 C 0.61274 0.74852 0.81789 0.0
C1263 C 0.64504 0.73283 0.77185 0.0
C1264 C 0.67284 0.75461 0.78903 0.0
H1265 H 0.59465 0.71332 0.77133 0.0
H1266 H 0.64609 0.71814 0.74726 0.0
S1267 S 0.67974 0.8067 0.87393 0.0
N1268 N 0.64125 0.78804 0.86684 0.0
N1269 N 0.69667 0.79357 0.83997 0.0
C1270 C 0.67077 0.77293 0.82102 0.0
C1271 C 0.64075 0.76978 0.8356 0.0
C1272 C 0.44774 0.54762 0.62138 0.0
C1273 C 0.45997 0.53974 0.65106 0.0
C1274 C 0.46527 0.54683 0.59286 0.0
C1275 C 0.49542 0.53792 0.59297 0.0
H1276 H 0.4252 0.55586 0.62058 0.0
H1277 H 0.45552 0.55449 0.57109 0.0
S1278 S 0.53583 0.51021 0.66293 0.0
N1279 N 0.50274 0.51942 0.67779 0.0
N1280 N 0.53524 0.5179 0.62427 0.0
C1281 C 0.50714 0.52848 0.622 0.0
C1282 C 0.4895 0.52935 0.65098 0.0
C1283 C 0.74881 0.1931 0.92414 0.0
C1284 C 0.76897 0.21431 0.95084 0.0
C1285 C 0.74253 0.20751 0.896 0.0
C1286 C 0.75608 0.2436 0.89384 0.0
H1287 H 0.74005 0.16447 0.92373 0.0
H1288 H 0.72887 0.18951 0.87498 0.0
S1289 S 0.80239 0.31246 0.96112 0.0
N1290 N 0.79697 0.27443 0.97641 0.0
N1291 N 0.7846 0.30201 0.92332 0.0
C1292 C 0.77296 0.26611 0.92193 0.0
C1293 C 0.77963 0.25127 0.95056 0.0
C1294 C 0.07629 0.50725 0.12976 0.0
C1295 C 0.06267 0.47628 0.14315 0.0
C1296 C 0.0593 0.51902 0.10537 0.0
C1297 C 0.02816 0.50035 0.0939 0.0
H1298 H 0.09948 0.52361 0.13935 0.0
H1299 H 0.07005 0.54367 0.0965 0.0
S1300 S 0.98431 0.41428 0.11603 0.0
N1301 N 0.01808 0.42452 0.13949 0.0
N1302 N 0.98611 0.44707 0.09396 0.0
C1303 C 0.01521 0.46812 0.10524 0.0
C1304 C 0.03255 0.45592 0.12977 0.0
C1305 C 0.76023 0.79243 0.42217 0.0
C1306 C 0.77873 0.8265 0.43629 0.0
C1307 C 0.7589 0.78018 0.38766 0.0
C1308 C 0.77679 0.80117 0.36642 0.0
H1309 H 0.74716 0.77499 0.43789 0.0
H1310 H 0.74449 0.75375 0.37765 0.0
S1311 S 0.82761 0.89286 0.39124 0.0
N1312 N 0.81402 0.88146 0.42632 0.0
N1313 N 0.81225 0.8582 0.36204 0.0
C1314 C 0.79499 0.83533 0.38035 0.0
C1315 C 0.79579 0.84802 0.41515 0.0
C1316 C 0.46486 0.49458 0.8173 0.0
C1317 C 0.44582 0.52031 0.81979 0.0
C1318 C 0.4756 0.48294 0.8457 0.0
C1319 C 0.46681 0.49594 0.87716 0.0
H1320 H 0.47139 0.48325 0.7933 0.0
H1321 H 0.49064 0.46356 0.84304 0.0
S1322 S 0.42165 0.56745 0.89771 0.0
N1323 N 0.42273 0.56208 0.85701 0.0
N1324 N 0.44051 0.53803 0.90972 0.0
C1325 C 0.44844 0.52219 0.88006 0.0
C1326 C 0.43858 0.53498 0.8515 0.0
C1327 C 0.81825 0.24216 0.11304 0.0
C1328 C 0.79974 0.20725 0.10183 0.0
C1329 C 0.81275 0.2624 0.14281 0.0
C1330 C 0.78874 0.24843 0.16277 0.0
H1331 H 0.83731 0.25407 0.0988 0.0
H1332 H 0.82822 0.28873 0.15072 0.0
S1333 S 0.73155 0.15979 0.14356 0.0
N1334 N 0.75479 0.16053 0.11225 0.0
N1335 N 0.74472 0.19865 0.16831 0.0
C1336 C 0.7692 0.21415 0.1514 0.0
C1337 C 0.77467 0.19352 0.12096 0.0
C1338 C 0.02865 0.52062 0.31509 0.0
C1339 C 0.06051 0.53552 0.31021 0.0
C1340 C 0.01635 0.52862 0.3458 0.0
C1341 C 0.03566 0.55189 0.37205 0.0
H1342 H 0.01412 0.50034 0.29615 0.0
H1343 H 0.99247 0.51447 0.34971 0.0
S1344 S 0.11875 0.60327 0.36867 0.0
N1345 N 0.10953 0.57846 0.3316 0.0
N1346 N 0.08654 0.5941 0.38945 0.0
C1347 C 0.06645 0.57001 0.36608 0.0
C1348 C 0.07896 0.56152 0.33499 0.0
C1349 C 0.75038 0.82081 0.6338 0.0
C1350 C 0.75995 0.80401 0.60394 0.0
C1351 C 0.74609 0.80314 0.66171 0.0
C1352 C 0.75101 0.76834 0.66112 0.0
H1353 H 0.74763 0.84836 0.63611 0.0
H1354 H 0.73882 0.81636 0.68412 0.0
S1355 S 0.77213 0.71069 0.58768 0.0
N1356 N 0.77155 0.74911 0.57463 0.0
N1357 N 0.76292 0.71613 0.62674 0.0
C1358 C 0.75866 0.75042 0.63078 0.0
C1359 C 0.7634 0.76833 0.60243 0.0
C1360 C 0.66274 0.44665 0.51015 0.0
C1361 C 0.69264 0.46708 0.5238 0.0
C1362 C 0.6369 0.46271 0.50736 0.0
C1363 C 0.63991 0.49974 0.51828 0.0
H1364 H 0.65925 0.41804 0.50124 0.0
H1365 H 0.6143 0.44579 0.4966 0.0
S1366 S 0.71271 0.56524 0.5564 0.0
N1367 N 0.72378 0.52646 0.54881 0.0
N1368 N 0.67447 0.55644 0.54385 0.0
C1369 C 0.66927 0.52047 0.53279 0.0
C1370 C 0.69586 0.50415 0.53547 0.0
C1371 C 0.14523 0.09175 0.48798 0.0
C1372 C 0.16772 0.07044 0.48011 0.0
C1373 C 0.11288 0.07595 0.49076 0.0
C1374 C 0.10177 0.03826 0.48545 0.0
H1375 H 0.15256 0.12085 0.49175 0.0
H1376 H 0.09633 0.09335 0.49614 0.0
S1377 S 0.15077 0.97033 0.46706 0.0
N1378 N 0.17632 0.00935 0.46911 0.0
N1379 N 0.11586 0.9802 0.47415 0.0
C1380 C 0.12402 0.01677 0.47858 0.0
C1381 C 0.15686 0.03269 0.47593 0.0
C1382 C 0.19851 0.90114 0.74802 0.0
C1383 C 0.212 0.93064 0.77278 0.0
C1384 C 0.2134 0.87206 0.74043 0.0
C1385 C 0.2426 0.87144 0.75698 0.0
H1386 H 0.17533 0.8994 0.73579 0.0
H1387 H 0.20114 0.8492 0.72241 0.0
S1388 S 0.28995 0.94467 0.82057 0.0
N1389 N 0.2578 0.95921 0.81136 0.0
N1390 N 0.28589 0.90498 0.79703 0.0
C1391 C 0.25743 0.90204 0.78006 0.0
C1392 C 0.2421 0.93146 0.78799 0.0
C1393 C 0.36491 0.96732 0.02539 0.0
C1394 C 0.34464 0.95788 0.9965 0.0
C1395 C 0.39733 0.9801 0.02399 0.0
C1396 C 0.41091 0.98378 0.99349 0.0
H1397 H 0.35569 0.96384 0.04935 0.0
H1398 H 0.41175 0.98636 0.04727 0.0
S1399 S 0.36694 0.96167 0.91047 0.0
N1400 N 0.33908 0.95219 0.93663 0.0
N1401 N 0.401 0.97689 0.93339 0.0
C1402 C 0.3906 0.97477 0.96418 0.0
C1403 C 0.35714 0.96171 0.96583 0.0
C1404 C 0.81915 0.58699 0.75151 0.0
C1405 C 0.83691 0.60067 0.782 0.0
C1406 C 0.79489 0.60302 0.74134 0.0
C1407 C 0.78776 0.63266 0.76165 0.0
H1408 H 0.82407 0.56394 0.73554 0.0
H1409 H 0.78216 0.59278 0.71729 0.0
S1410 S 0.83134 0.6818 0.84081 0.0
N1411 N 0.84824 0.64746 0.83045 0.0
N1412 N 0.8028 0.67757 0.81147 0.0
C1413 C 0.80596 0.64694 0.79175 0.0
C1414 C 0.83056 0.63087 0.80192 0.0
C1415 C 0.87687 0.62545 0.00525 0.0
C1416 C 0.84607 0.60893 0.01294 0.0
C1417 C 0.90305 0.60954 0.00916 0.0
C1418 C 0.89931 0.57577 0.01962 0.0
H1419 H 0.88071 0.65039 0.99525 0.0
H1420 H 0.92617 0.62319 0.00264 0.0
S1421 S 0.8256 0.52496 0.04971 0.0
N1422 N 0.81486 0.55977 0.03721 0.0
N1423 N 0.86371 0.52915 0.04256 0.0
C1424 C 0.86927 0.5601 0.02946 0.0
C1425 C 0.84278 0.57684 0.02657 0.0
C1426 C 0.23617 0.10082 0.78168 0.0
C1427 C 0.20511 0.09987 0.79168 0.0
C1428 C 0.25456 0.13177 0.77173 0.0
C1429 C 0.2428 0.16323 0.77152 0.0
H1430 H 0.24636 0.0774 0.78156 0.0
H1431 H 0.27847 0.13112 0.76452 0.0
S1432 S 0.16248 0.17413 0.79536 0.0
N1433 N 0.16298 0.13251 0.80037 0.0
N1434 N 0.19751 0.19078 0.78185 0.0
C1435 C 0.21143 0.16227 0.78085 0.0
C1436 C 0.19262 0.13059 0.79089 0.0
C1437 C 0.31834 0.93948 0.29258 0.0
C1438 C 0.351 0.94771 0.28689 0.0
C1439 C 0.29973 0.90491 0.28223 0.0
C1440 C 0.3132 0.87783 0.26563 0.0
H1441 H 0.30727 0.95965 0.30587 0.0
H1442 H 0.27504 0.89892 0.28843 0.0
S1443 S 0.39694 0.88567 0.24362 0.0
N1444 N 0.39567 0.92637 0.26248 0.0
N1445 N 0.36032 0.86097 0.24295 0.0
C1446 C 0.34529 0.88593 0.25828 0.0
C1447 C 0.36434 0.92115 0.2689 0.0
C1448 C 0.5239 0.39758 0.58103 0.0
C1449 C 0.52689 0.36396 0.56435 0.0
C1450 C 0.51714 0.42384 0.5635 0.0
C1451 C 0.5135 0.4175 0.52872 0.0
H1452 H 0.52502 0.4029 0.60791 0.0
H1453 H 0.51494 0.44945 0.57727 0.0
S1454 S 0.52113 0.33486 0.47332 0.0
N1455 N 0.52627 0.32581 0.51116 0.0
N1456 N 0.51557 0.37645 0.47797 0.0
C1457 C 0.51774 0.38466 0.51159 0.0
C1458 C 0.52385 0.35747 0.52951 0.0
C1459 C 0.40891 0.77044 0.29312 0.0
C1460 C 0.40712 0.75275 0.32101 0.0
C1461 C 0.38158 0.77093 0.27381 0.0
C1462 C 0.35106 0.75463 0.28191 0.0
H1463 H 0.43179 0.78295 0.28511 0.0
H1464 H 0.38446 0.78379 0.25194 0.0
S1465 S 0.3321 0.70814 0.35413 0.0
N1466 N 0.37151 0.72039 0.35689 0.0
N1467 N 0.31993 0.72266 0.32095 0.0
C1468 C 0.34839 0.73877 0.31075 0.0
C1469 C 0.37647 0.73747 0.3302 0.0
C1470 C 0.04686 0.67577 0.08533 0.0
C1471 C 0.02641 0.69409 0.07075 0.0
C1472 C 0.05449 0.64491 0.06754 0.0
C1473 C 0.04218 0.63194 0.03461 0.0
H1474 H 0.05511 0.68376 0.11128 0.0
H1475 H 0.06748 0.62938 0.08061 0.0
S1476 S 0.99456 0.67571 0.98282 0.0
N1477 N -0.00114 0.70086 0.01986 0.0
N1478 N 0.01395 0.64365 0.98627 0.0
C1479 C 0.02516 0.65275 0.01866 0.0
C1480 C 0.01688 0.68355 0.03684 0.0
C1481 C 0.10338 0.25948 0.83527 0.0
C1482 C 0.07944 0.2697 0.81707 0.0
C1483 C 0.1327 0.25726 0.82196 0.0
C1484 C 0.13908 0.26492 0.7899 0.0
H1485 H 0.09909 0.25193 0.85948 0.0
H1486 H 0.15031 0.24883 0.83672 0.0
S1487 S 0.08634 0.29842 0.7344 0.0
N1488 N 0.06549 0.29148 0.76691 0.0
N1489 N 0.12046 0.28693 0.74189 0.0
C1490 C 0.11596 0.27671 0.77208 0.0
C1491 C 0.0862 0.27922 0.7857 0.0
C1492 C 0.47566 0.65064 0.95178 0.0
C1493 C 0.50306 0.67729 0.94863 0.0
C1494 C 0.47724 0.62224 0.96896 0.0
C1495 C 0.50608 0.61963 0.98444 0.0
H1496 H 0.45292 0.6506 0.93945 0.0
H1497 H 0.45591 0.60134 0.96909 0.0
S1498 S 0.58404 0.6841 0.98713 0.0
N1499 N 0.5596 0.70048 0.96471 0.0
N1500 N 0.56228 0.64724 0.99788 0.0
C1501 C 0.5333 0.6471 0.98343 0.0
C1502 C 0.53189 0.67583 0.96522 0.0
C1503 C 0.09977 0.77234 0.72879 0.0
C1504 C 0.09371 0.77971 0.69684 0.0
C1505 C 0.12404 0.75481 0.73538 0.0
C1506 C 0.14348 0.74455 0.71038 0.0
H1507 H 0.08547 0.77979 0.74888 0.0
H1508 H 0.12839 0.75066 0.76062 0.0
S1509 S 0.1378 0.75798 0.62265 0.0
N1510 N 0.10919 0.77539 0.63983 0.0
N1511 N 0.15507 0.74266 0.65246 0.0
C1512 C 0.13754 0.75141 0.67826 0.0
C1513 C 0.1127 0.7691 0.67145 0.0
C1514 C 0.98592 0.37402 0.44321 0.0
C1515 C 0.01182 0.3597 0.43142 0.0
C1516 C 0.99028 0.40957 0.45923 0.0
C1517 C 0.02063 0.43249 0.46407 0.0
H1518 H 0.96197 0.35736 0.4411 0.0
H1519 H 0.96998 0.41846 0.46987 0.0
S1520 S 0.09594 0.4109 0.43498 0.0
N1521 N 0.06877 0.37317 0.42297 0.0
N1522 N 0.07677 0.44012 0.45408 0.0
C1523 C 0.04653 0.41969 0.4509 0.0
C1524 C 0.04216 0.3833 0.43422 0.0
C1525 C 0.39648 0.24598 0.18939 0.0
C1526 C 0.41955 0.27761 0.18954 0.0
C1527 C 0.36839 0.24681 0.2055 0.0
C1528 C 0.36244 0.27931 0.22252 0.0
H1529 H 0.39998 0.22056 0.17643 0.0
H1530 H 0.35099 0.22163 0.20401 0.0
S1531 S 0.4177 0.36913 0.23194 0.0
N1532 N 0.43626 0.34191 0.20897 0.0
N1533 N 0.38346 0.34371 0.23965 0.0
C1534 C 0.38596 0.3111 0.2233 0.0
C1535 C 0.41455 0.31015 0.20672 0.0
C1536 C 0.59372 0.52062 0.39238 0.0
C1537 C 0.58195 0.50437 0.36 0.0
C1538 C 0.57346 0.51966 0.41868 0.0
C1539 C 0.54108 0.50133 0.4137 0.0
H1540 H 0.61847 0.53485 0.39723 0.0
H1541 H 0.58326 0.53355 0.44309 0.0
S1542 S 0.49937 0.45272 0.33354 0.0
N1543 N 0.53622 0.46884 0.3243 0.0
N1544 N 0.49864 0.46574 0.37384 0.0
C1545 C 0.52935 0.48419 0.3815 0.0
C1546 C 0.54969 0.48602 0.35464 0.0
C1547 C 0.25336 0.82626 0.09916 0.0
C1548 C 0.2683 0.81942 0.06976 0.0
C1549 C 0.25864 0.80921 0.1258 0.0
C1550 C 0.27713 0.78322 0.12314 0.0
H1551 H 0.23909 0.8464 0.10234 0.0
H1552 H 0.24908 0.81731 0.14914 0.0
S1553 S 0.3265 0.76112 0.05413 0.0
N1554 N 0.30663 0.78936 0.04127 0.0
N1555 N 0.31464 0.75553 0.09141 0.0
C1556 C 0.29348 0.77725 0.09467 0.0
C1557 C 0.28913 0.79554 0.06775 0.0
C1558 C 0.99497 0.52042 0.86224 0.0
C1559 C 0.97086 0.54022 0.8636 0.0
C1560 C 0.01026 0.51511 0.89134 0.0
C1561 C 0.00107 0.52821 0.92259 0.0
H1562 H 0.00246 0.5094 0.8386 0.0
H1563 H 0.02921 0.50049 0.88939 0.0
S1564 S 0.94044 0.58245 0.9399 0.0
N1565 N 0.94077 0.57531 0.89923 0.0
N1566 N 0.96641 0.56105 0.95335 0.0
C1567 C 0.97657 0.54701 0.9243 0.0
C1568 C 0.96227 0.55415 0.89491 0.0
C1569 C 0.25252 0.23019 0.59384 0.0
C1570 C 0.27523 0.20972 0.58408 0.0
C1571 C 0.24584 0.23775 0.62764 0.0
C1572 C 0.2613 0.22448 0.65254 0.0
H1573 H 0.24059 0.24124 0.57544 0.0
H1574 H 0.22967 0.25526 0.63444 0.0
S1575 S 0.31997 0.16643 0.639 0.0
N1576 N 0.31135 0.17464 0.60166 0.0
N1577 N 0.29834 0.18757 0.66418 0.0
C1578 C 0.28276 0.20258 0.64247 0.0
C1579 C 0.28986 0.19555 0.60857 0.0
C1580 C 0.59411 0.53052 0.17764 0.0
C1581 C 0.57738 0.49869 0.18771 0.0
C1582 C 0.58162 0.54455 0.15169 0.0
C1583 C 0.55185 0.5275 0.13532 0.0
H1584 H 0.61688 0.54499 0.1901 0.0
H1585 H 0.5954 0.56876 0.14428 0.0
S1586 S 0.50033 0.44126 0.14951 0.0
N1587 N 0.53067 0.44908 0.17753 0.0
N1588 N 0.50705 0.47561 0.12899 0.0
C1589 C 0.53506 0.49538 0.14477 0.0
C1590 C 0.54789 0.48092 0.17093 0.0
C1591 C 0.28958 0.83793 0.88818 0.0
C1592 C 0.27006 0.82779 0.91345 0.0
C1593 C 0.28327 0.81922 0.85577 0.0
C1594 C 0.25776 0.78901 0.84762 0.0
H1595 H 0.30971 0.86081 0.89345 0.0
H1596 H 0.29852 0.82867 0.83694 0.0
S1597 S 0.2003 0.75088 0.90558 0.0
N1598 N 0.22445 0.78574 0.92881 0.0
N1599 N 0.21305 0.74949 0.86781 0.0
C1600 C 0.23829 0.7782 0.87289 0.0
C1601 C 0.24432 0.79791 0.90587 0.0
C1602 C 0.97121 0.47888 0.68112 0.0
C1603 C 0.94974 0.50184 0.68653 0.0
C1604 C 0.98993 0.47956 0.6538 0.0
C1605 C 0.98788 0.5036 0.63178 0.0
H1606 H 0.97464 0.46146 0.69876 0.0
H1607 H 0.00658 0.46201 0.65036 0.0
S1608 S 0.93092 0.5631 0.63047 0.0
N1609 N 0.92399 0.54472 0.66423 0.0
N1610 N 0.95991 0.54636 0.61342 0.0
C1611 C 0.96503 0.52458 0.63538 0.0
C1612 C 0.94567 0.52356 0.66268 0.0
C1613 C 0.27426 0.2086 0.37915 0.0
C1614 C 0.27912 0.22898 0.41136 0.0
C1615 C 0.27521 0.22526 0.35055 0.0
C1616 C 0.28102 0.26299 0.35301 0.0
H1617 H 0.27091 0.17958 0.37599 0.0
H1618 H 0.27179 0.20847 0.32639 0.0
S1619 S 0.29143 0.32813 0.43184 0.0
N1620 N 0.28767 0.28855 0.44399 0.0
N1621 N 0.28881 0.31991 0.39087 0.0
C1622 C 0.28458 0.28347 0.38523 0.0
C1623 C 0.28387 0.2665 0.41419 0.0
C1624 C 0.37926 0.60161 0.5122 0.0
C1625 C 0.34769 0.58206 0.50733 0.0
C1626 C 0.40424 0.58406 0.50814 0.0
C1627 C 0.39854 0.54643 0.49851 0.0
H1628 H 0.38472 0.63062 0.51934 0.0
H1629 H 0.42834 0.60039 0.51249 0.0
S1630 S 0.31978 0.48342 0.48002 0.0
N1631 N 0.31148 0.52337 0.49084 0.0
N1632 N 0.35915 0.49029 0.48267 0.0
C1633 C 0.36708 0.52652 0.49266 0.0
C1634 C 0.34141 0.54441 0.49734 0.0
C1635 C 0.88293 0.93336 0.51186 0.0
C1636 C 0.85951 0.95027 0.5259 0.0
C1637 C 0.91459 0.95281 0.51104 0.0
C1638 C 0.92412 0.98962 0.52504 0.0
H1639 H 0.87677 0.90497 0.50151 0.0
H1640 H 0.93188 0.93862 0.50013 0.0
S1641 S 0.87158 0.04574 0.56549 0.0
N1642 N 0.84774 0.00567 0.55391 0.0
N1643 N 0.9071 0.04187 0.55332 0.0
C1644 C 0.90069 0.0067 0.53891 0.0
C1645 C 0.86845 0.98711 0.53912 0.0
C1646 C 0.83859 0.14349 0.27728 0.0
C1647 C 0.82731 0.1111 0.25536 0.0
C1648 C 0.82322 0.17203 0.27846 0.0
C1649 C 0.79561 0.16949 0.25787 0.0
H1650 H 0.8597 0.14686 0.29378 0.0
H1651 H 0.83343 0.19648 0.29563 0.0
S1652 S 0.75482 0.0889 0.19781 0.0
N1653 N 0.78599 0.07684 0.21381 0.0
N1654 N 0.7566 0.13075 0.21586 0.0
C1655 C 0.78341 0.1367 0.23635 0.0
C1656 C 0.79943 0.10747 0.23504 0.0
C1657 C 0.65889 0.04957 0.98056 0.0
C1658 C 0.67841 0.06295 0.0097 0.0
C1659 C 0.62593 0.04425 0.98118 0.0
C1660 C 0.6114 0.05164 0.01109 0.0
H1661 H 0.66918 0.0449 0.95689 0.0
H1662 H 0.61189 0.03458 0.95778 0.0
S1663 S 0.65322 0.08345 0.0948 0.0
N1664 N 0.68206 0.0812 0.06944 0.0
N1665 N 0.61952 0.07046 0.07113 0.0
C1666 C 0.6309 0.06347 0.04078 0.0
C1667 C 0.66462 0.06929 0.03995 0.0
C1668 C 0.22052 0.45258 0.27692 0.0
C1669 C 0.18947 0.44166 0.26148 0.0
C1670 C 0.24148 0.42922 0.27377 0.0
C1671 C 0.23156 0.39448 0.25541 0.0
H1672 H 0.22824 0.47885 0.29217 0.0
H1673 H 0.26477 0.43766 0.28709 0.0
S1674 S 0.15251 0.35398 0.20989 0.0
N1675 N 0.14997 0.39478 0.22694 0.0
N1676 N 0.18914 0.351 0.22027 0.0
C1677 C 0.20099 0.38412 0.23857 0.0
C1678 C 0.17989 0.40773 0.24187 0.0
C1679 C 0.16123 0.43153 0.03046 0.0
C1680 C 0.18816 0.4448 0.01363 0.0
C1681 C 0.13418 0.44677 0.03032 0.0
C1682 C 0.13295 0.4756 0.01311 0.0
H1683 H 0.16146 0.41009 0.04477 0.0
H1684 H 0.1142 0.43607 0.04405 0.0
S1685 S 0.19578 0.51749 0.96215 0.0
N1686 N 0.2108 0.48672 0.97725 0.0
N1687 N 0.16022 0.51495 0.97686 0.0
C1688 C 0.15919 0.48807 0.99513 0.0
C1689 C 0.18669 0.47278 0.99542 0.0
C1690 C 0.80819 0.91962 0.22787 0.0
C1691 C 0.83502 0.93299 0.25036 0.0
C1692 C 0.79016 0.88422 0.2264 0.0
C1693 C 0.79841 0.86116 0.24737 0.0
H1694 H 0.80021 0.93711 0.21258 0.0
H1695 H 0.76897 0.87531 0.20955 0.0
S1696 S 0.86915 0.88295 0.30782 0.0
N1697 N 0.87064 0.92016 0.29197 0.0
N1698 N 0.83721 0.85388 0.28923 0.0
C1699 C 0.82635 0.87389 0.26861 0.0
C1700 C 0.8445 0.90979 0.27012 0.0
C1701 C 0.71718 0.10817 0.77672 0.0
C1702 C 0.6878 0.09455 0.75827 0.0
C1703 C 0.73751 0.13955 0.77079 0.0
C1704 C 0.72898 0.15874 0.74652 0.0
H1705 H 0.7243 0.09494 0.79641 0.0
H1706 H 0.75933 0.14983 0.78658 0.0
S1707 S 0.65624 0.13194 0.68889 0.0
N1708 N 0.65244 0.10036 0.71256 0.0
N1709 N 0.69067 0.16009 0.70168 0.0
C1710 C 0.70076 0.14406 0.72623 0.0
C1711 C 0.68005 0.11182 0.73216 0.0
loop_
_geom_bond_atom_site_label_1
_geom_bond_atom_site_label_2
_geom_bond_distance
_geom_bond_site_symmetry_2
_ccdc_geom_bond_type
Mg0 O1 2.028 . S
Mg0 O7 1.986 . S
Mg0 O9 2.113 . S
Mg0 O10 2.251 1_455 S
Mg0 O13 2.010 . S
O1 Mg0 2.028 . S
O1 C4 1.250 . S
O2 Mg3 2.009 1_455 S
O2 C4 1.280 . S
Mg3 O2 2.009 1_655 S
Mg3 O8 2.032 . S
Mg3 O10 2.079 . S
C4 O1 1.250 . S
C4 O2 1.280 . S
C5 O6 1.264 . S
C5 O13 1.249 . S
O6 C5 1.264 . S
O7 Mg0 1.986 . S
O7 C11 1.246 . S
O8 Mg3 2.032 . S
O8 C11 1.259 1_655 S
O9 Mg0 2.113 . S
O9 C12 1.253 1_455 S
O10 Mg0 2.251 1_655 S
O10 Mg3 2.079 . S
O10 C12 1.273 . S
C11 O7 1.246 . S
C11 O8 1.259 1_455 S
C12 O9 1.253 1_655 S
C12 O10 1.273 . S
O13 Mg0 2.010 . S
O13 C5 1.249 . S
Mg14 O15 2.028 . S
Mg14 O21 1.986 . S
Mg14 O23 2.114 1_455 S
Mg14 O24 2.251 1_455 S
Mg14 O27 2.010 . S
O15 Mg14 2.028 . S
O15 C18 1.250 1_455 S
O16 Mg17 2.028 . S
O16 C18 1.248 . S
Mg17 O16 2.028 . S
Mg17 O22 2.032 . S
Mg17 O24 2.079 . S
C18 O15 1.250 1_655 S
C18 O16 1.248 . S
C19 O20 1.264 . S
C19 O27 1.249 . S
O20 C19 1.264 . S
O21 Mg14 1.986 . S
O21 C25 1.246 . S
O22 Mg17 2.032 . S
O22 C25 1.259 1_655 S
O23 Mg14 2.114 1_655 S
O23 C26 1.252 . S
O24 Mg14 2.251 1_655 S
O24 Mg17 2.079 . S
O24 C26 1.273 . S
C25 O21 1.246 . S
C25 O22 1.259 1_455 S
C26 O23 1.252 . S
C26 O24 1.273 . S
O27 Mg14 2.010 . S
O27 C19 1.249 . S
Mg28 O29 2.028 . S
Mg28 O35 1.986 . S
Mg28 O37 2.114 . S
Mg28 O38 2.251 . S
Mg28 O41 2.010 . S
O29 Mg28 2.028 . S
O29 C32 1.250 . S
O30 Mg31 2.028 . S
O30 C32 1.248 . S
Mg31 O30 2.028 . S
Mg31 O36 2.032 . S
Mg31 O38 2.079 . S
C32 O29 1.250 . S
C32 O30 1.248 . S
C33 O34 1.264 . S
C33 O41 1.249 . S
O34 C33 1.264 . S
O35 Mg28 1.986 . S
O35 C39 1.246 . S
O36 Mg31 2.032 . S
O36 C39 1.259 . S
O37 Mg28 2.114 . S
O37 C40 1.252 . S
O38 Mg28 2.251 . S
O38 Mg31 2.079 . S
O38 C40 1.273 . S
C39 O35 1.246 . S
C39 O36 1.259 . S
C40 O37 1.252 . S
C40 O38 1.273 . S
O41 Mg28 2.010 . S
O41 C33 1.249 . S
Mg42 O43 2.028 . S
Mg42 O49 1.986 . S
Mg42 O51 2.114 . S
Mg42 O52 2.251 . S
Mg42 O55 2.010 . S
O43 Mg42 2.028 . S
O43 C46 1.250 . S
O44 Mg45 2.028 . S
O44 C46 1.248 . S
Mg45 O44 2.028 . S
Mg45 O50 2.032 . S
Mg45 O52 2.079 . S
C46 O43 1.250 . S
C46 O44 1.248 . S
C47 O48 1.264 . S
C47 O55 1.249 . S
O48 C47 1.264 . S
O49 Mg42 1.986 . S
O49 C53 1.246 . S
O50 Mg45 2.032 . S
O50 C53 1.259 . S
O51 Mg42 2.114 . S
O51 C54 1.252 . S
O52 Mg42 2.251 . S
O52 Mg45 2.079 . S
O52 C54 1.273 . S
C53 O49 1.246 . S
C53 O50 1.259 . S
C54 O51 1.252 . S
C54 O52 1.273 . S
O55 Mg42 2.010 . S
O55 C47 1.249 . S
Mg56 O57 2.028 . S
Mg56 O63 1.986 . S
Mg56 O65 2.114 . S
Mg56 O66 2.251 1_455 S
Mg56 O69 2.010 . S
O57 Mg56 2.028 . S
O57 C60 1.250 . S
O58 Mg59 2.028 . S
O58 C60 1.248 1_655 S
Mg59 O58 2.028 . S
Mg59 O64 2.032 1_655 S
Mg59 O66 2.079 . S
C60 O57 1.250 . S
C60 O58 1.248 1_455 S
C61 O62 1.264 . S
C61 O69 1.249 . S
O62 C61 1.264 . S
O63 Mg56 1.986 . S
O63 C67 1.246 . S
O64 Mg59 2.032 1_455 S
O64 C67 1.259 . S
O65 Mg56 2.114 . S
O65 C68 1.252 1_455 S
O66 Mg56 2.251 1_655 S
O66 Mg59 2.079 . S
O66 C68 1.273 . S
C67 O63 1.246 . S
C67 O64 1.259 . S
C68 O65 1.252 1_655 S
C68 O66 1.273 . S
O69 Mg56 2.010 . S
O69 C61 1.249 . S
Mg70 O71 2.028 . S
Mg70 O77 1.986 . S
Mg70 O79 2.114 . S
Mg70 O80 2.251 . S
Mg70 O83 2.010 . S
O71 Mg70 2.028 . S
O71 C74 1.250 . S
O72 Mg73 2.028 . S
O72 C74 1.248 . S
Mg73 O72 2.028 . S
Mg73 O78 2.032 . S
Mg73 O80 2.079 . S
C74 O71 1.250 . S
C74 O72 1.248 . S
C75 O76 1.264 . S
C75 O83 1.249 . S
O76 C75 1.264 . S
O77 Mg70 1.986 . S
O77 C81 1.246 . S
O78 Mg73 2.032 . S
O78 C81 1.259 . S
O79 Mg70 2.114 . S
O79 C82 1.252 . S
O80 Mg70 2.251 . S
O80 Mg73 2.079 . S
O80 C82 1.273 . S
C81 O77 1.246 . S
C81 O78 1.259 . S
C82 O79 1.252 . S
C82 O80 1.273 . S
O83 Mg70 2.010 . S
O83 C75 1.249 . S
Mg84 O85 2.028 . S
Mg84 O91 1.986 . S
Mg84 O93 2.114 . S
Mg84 O94 2.251 . S
Mg84 O97 2.010 . S
O85 Mg84 2.028 . S
O85 C88 1.250 . S
O86 Mg87 2.028 . S
O86 C88 1.248 . S
Mg87 O86 2.028 . S
Mg87 O92 2.032 . S
Mg87 O94 2.079 . S
C88 O85 1.250 . S
C88 O86 1.248 . S
C89 O90 1.264 . S
C89 O97 1.249 . S
O90 C89 1.264 . S
O91 Mg84 1.986 . S
O91 C95 1.246 . S
O92 Mg87 2.032 . S
O92 C95 1.259 . S
O93 Mg84 2.114 . S
O93 C96 1.252 . S
O94 Mg84 2.251 . S
O94 Mg87 2.079 . S
O94 C96 1.273 . S
C95 O91 1.246 . S
C95 O92 1.259 . S
C96 O93 1.252 . S
C96 O94 1.273 . S
O97 Mg84 2.010 . S
O97 C89 1.249 . S
Mg98 O99 2.027 1_655 S
Mg98 O105 1.979 1_655 S
Mg98 O107 2.131 . S
Mg98 O108 2.281 . S
Mg98 O111 1.984 1_655 S
O99 Mg98 2.027 1_455 S
O99 C102 1.248 . S
O100 Mg101 2.028 . S
O100 C102 1.251 1_655 S
Mg101 O100 2.028 . S
Mg101 O106 2.032 . S
Mg101 O108 2.079 . S
C102 O99 1.248 . S
C102 O100 1.251 1_455 S
C103 O104 1.264 . S
C103 O111 1.249 . S
O104 C103 1.264 . S
O105 Mg98 1.979 1_455 S
O105 C109 1.246 1_455 S
O106 Mg101 2.032 . S
O106 C109 1.259 . S
O107 Mg98 2.131 . S
O107 C110 1.252 . S
O108 Mg98 2.281 . S
O108 Mg101 2.079 . S
O108 C110 1.273 . S
C109 O105 1.246 1_655 S
C109 O106 1.259 . S
C110 O107 1.252 . S
C110 O108 1.273 . S
O111 Mg98 1.984 1_455 S
O111 C103 1.249 . S
Mg112 O113 2.028 1_545 S
Mg112 O119 1.986 . S
Mg112 O121 2.114 . S
Mg112 O122 2.251 . S
Mg112 O125 2.010 . S
O113 Mg112 2.028 1_565 S
O113 C116 1.250 . S
O114 Mg115 2.028 1_565 S
O114 C116 1.248 . S
Mg115 O114 2.028 1_545 S
Mg115 O120 2.032 . S
Mg115 O122 2.079 . S
C116 O113 1.250 . S
C116 O114 1.248 . S
C117 O118 1.264 . S
C117 O125 1.249 . S
O118 C117 1.264 . S
O119 Mg112 1.986 . S
O119 C123 1.246 . S
O120 Mg115 2.032 . S
O120 C123 1.259 . S
O121 Mg112 2.114 . S
O121 C124 1.252 . S
O122 Mg112 2.251 . S
O122 Mg115 2.079 . S
O122 C124 1.273 . S
C123 O119 1.246 . S
C123 O120 1.259 . S
C124 O121 1.252 . S
C124 O122 1.273 . S
O125 Mg112 2.010 . S
O125 C117 1.249 . S
Mg126 O127 2.028 . S
Mg126 O133 1.986 . S
Mg126 O135 2.114 . S
Mg126 O136 2.251 . S
Mg126 O139 2.010 . S
O127 Mg126 2.028 . S
O127 C130 1.250 . S
O128 Mg129 2.028 . S
O128 C130 1.248 . S
Mg129 O128 2.028 . S
Mg129 O134 2.032 . S
Mg129 O136 2.079 . S
C130 O127 1.250 . S
C130 O128 1.248 . S
C131 O132 1.264 . S
C131 O139 1.249 . S
O132 C131 1.264 . S
O133 Mg126 1.986 . S
O133 C137 1.246 . S
O134 Mg129 2.032 . S
O134 C137 1.259 . S
O135 Mg126 2.114 . S
O135 C138 1.252 . S
O136 Mg126 2.251 . S
O136 Mg129 2.079 . S
O136 C138 1.273 . S
C137 O133 1.246 . S
C137 O134 1.259 . S
C138 O135 1.252 . S
C138 O136 1.273 . S
O139 Mg126 2.010 . S
O139 C131 1.249 . S
Mg140 O141 2.028 1_565 S
Mg140 O147 1.986 . S
Mg140 O149 2.114 1_565 S
Mg140 O150 2.251 . S
Mg140 O153 2.010 . S
O141 Mg140 2.028 1_545 S
O141 C144 1.250 . S
O142 Mg143 2.028 . S
O142 C144 1.248 . S
Mg143 O142 2.028 . S
Mg143 O148 2.032 1_545 S
Mg143 O150 2.079 1_545 S
C144 O141 1.250 . S
C144 O142 1.248 . S
C145 O146 1.264 . S
C145 O153 1.249 . S
O146 C145 1.264 . S
O147 Mg140 1.986 . S
O147 C151 1.246 . S
O148 Mg143 2.032 1_565 S
O148 C151 1.259 . S
O149 Mg140 2.114 1_545 S
O149 C152 1.252 . S
O150 Mg140 2.251 . S
O150 Mg143 2.079 1_565 S
O150 C152 1.273 1_565 S
C151 O147 1.246 . S
C151 O148 1.259 . S
C152 O149 1.252 . S
C152 O150 1.273 1_545 S
O153 Mg140 2.010 . S
O153 C145 1.249 . S
Mg154 O155 2.028 1_554 S
Mg154 O161 1.986 . S
Mg154 O163 2.114 . S
Mg154 O164 2.251 . S
Mg154 O167 2.010 . S
O155 Mg154 2.028 1_556 S
O155 C158 1.250 . S
O156 Mg157 2.028 1_556 S
O156 C158 1.248 . S
Mg157 O156 2.028 1_554 S
Mg157 O162 2.032 . S
Mg157 O164 2.079 . S
C158 O155 1.250 . S
C158 O156 1.248 . S
C159 O160 1.264 . S
C159 O167 1.249 . S
O160 C159 1.264 . S
O161 Mg154 1.986 . S
O161 C165 1.246 . S
O162 Mg157 2.032 . S
O162 C165 1.259 . S
O163 Mg154 2.114 . S
O163 C166 1.252 . S
O164 Mg154 2.251 . S
O164 Mg157 2.079 . S
O164 C166 1.273 . S
C165 O161 1.246 . S
C165 O162 1.259 . S
C166 O163 1.252 . S
C166 O164 1.273 . S
O167 Mg154 2.010 . S
O167 C159 1.249 . S
Mg168 O169 2.028 1_554 S
Mg168 O175 1.986 . S
Mg168 O177 2.114 . S
Mg168 O178 2.251 . S
Mg168 O181 2.010 . S
O169 Mg168 2.028 1_556 S
O169 C172 1.250 . S
O170 Mg171 2.028 1_556 S
O170 C172 1.248 . S
Mg171 O170 2.028 1_554 S
Mg171 O176 2.032 . S
Mg171 O178 2.079 . S
C172 O169 1.250 . S
C172 O170 1.248 . S
C173 O174 1.264 . S
C173 O181 1.249 . S
O174 C173 1.264 . S
O175 Mg168 1.986 . S
O175 C179 1.246 . S
O176 Mg171 2.032 . S
O176 C179 1.259 . S
O177 Mg168 2.114 . S
O177 C180 1.252 . S
O178 Mg168 2.251 . S
O178 Mg171 2.079 . S
O178 C180 1.273 . S
C179 O175 1.246 . S
C179 O176 1.259 . S
C180 O177 1.252 . S
C180 O178 1.273 . S
O181 Mg168 2.010 . S
O181 C173 1.249 . S
Mg182 O183 2.028 1_556 S
Mg182 O189 1.986 . S
Mg182 O191 2.114 1_556 S
Mg182 O192 2.251 . S
Mg182 O195 2.010 . S
O183 Mg182 2.028 1_554 S
O183 C186 1.250 . S
O184 Mg185 2.028 . S
O184 C186 1.248 . S
Mg185 O184 2.028 . S
Mg185 O190 2.032 1_554 S
Mg185 O192 2.079 1_554 S
C186 O183 1.250 . S
C186 O184 1.248 . S
C187 O188 1.264 . S
C187 O195 1.249 . S
O188 C187 1.264 . S
O189 Mg182 1.986 . S
O189 C193 1.246 . S
O190 Mg185 2.032 1_556 S
O190 C193 1.259 . S
O191 Mg182 2.114 1_554 S
O191 C194 1.252 . S
O192 Mg182 2.251 . S
O192 Mg185 2.079 1_556 S
O192 C194 1.273 1_556 S
C193 O189 1.246 . S
C193 O190 1.259 . S
C194 O191 1.252 . S
C194 O192 1.273 1_554 S
O195 Mg182 2.010 . S
O195 C187 1.249 . S
Mg196 O197 2.028 . S
Mg196 O203 1.986 . S
Mg196 O205 2.114 . S
Mg196 O206 2.251 . S
Mg196 O209 2.010 . S
O197 Mg196 2.028 . S
O197 C200 1.250 . S
O198 Mg199 2.028 . S
O198 C200 1.248 . S
Mg199 O198 2.028 . S
Mg199 O204 2.032 . S
Mg199 O206 2.079 . S
C200 O197 1.250 . S
C200 O198 1.248 . S
C201 O202 1.264 . S
C201 O209 1.249 . S
O202 C201 1.264 . S
O203 Mg196 1.986 . S
O203 C207 1.246 . S
O204 Mg199 2.032 . S
O204 C207 1.259 . S
O205 Mg196 2.114 . S
O205 C208 1.252 . S
O206 Mg196 2.251 . S
O206 Mg199 2.079 . S
O206 C208 1.273 . S
C207 O203 1.246 . S
C207 O204 1.259 . S
C208 O205 1.252 . S
C208 O206 1.273 . S
O209 Mg196 2.010 . S
O209 C201 1.249 . S
Mg210 O211 2.028 . S
Mg210 O217 1.986 . S
Mg210 O219 2.114 . S
Mg210 O220 2.251 . S
Mg210 O223 2.010 . S
O211 Mg210 2.028 . S
O211 C214 1.250 . S
O212 Mg213 2.028 . S
O212 C214 1.248 . S
Mg213 O212 2.028 . S
Mg213 O218 2.032 . S
Mg213 O220 2.079 . S
C214 O211 1.250 . S
C214 O212 1.248 . S
C215 O216 1.264 . S
C215 O223 1.249 . S
O216 C215 1.264 . S
O217 Mg210 1.986 . S
O217 C221 1.246 . S
O218 Mg213 2.032 . S
O218 C221 1.259 . S
O219 Mg210 2.114 . S
O219 C222 1.252 . S
O220 Mg210 2.251 . S
O220 Mg213 2.079 . S
O220 C222 1.273 . S
C221 O217 1.246 . S
C221 O218 1.259 . S
C222 O219 1.252 . S
C222 O220 1.273 . S
O223 Mg210 2.010 . S
O223 C215 1.249 . S
Mg224 O225 2.028 . S
Mg224 O231 1.986 . S
Mg224 O233 2.114 . S
Mg224 O234 2.251 . S
Mg224 O237 2.010 . S
O225 Mg224 2.028 . S
O225 C228 1.250 1_545 S
O226 Mg227 2.022 1_565 S
O226 C228 1.250 . S
Mg227 O226 2.022 1_545 S
Mg227 O232 2.032 . S
Mg227 O234 2.079 . S
C228 O225 1.250 1_565 S
C228 O226 1.250 . S
C229 O230 1.264 . S
C229 O237 1.249 . S
O230 C229 1.264 . S
O231 Mg224 1.986 . S
O231 C235 1.246 . S
O232 Mg227 2.032 . S
O232 C235 1.259 . S
O233 Mg224 2.114 . S
O233 C236 1.252 . S
O234 Mg224 2.251 . S
O234 Mg227 2.079 . S
O234 C236 1.273 . S
C235 O231 1.246 . S
C235 O232 1.259 . S
C236 O233 1.252 . S
C236 O234 1.273 . S
O237 Mg224 2.010 . S
O237 C229 1.249 . S
Mg238 O239 2.028 . S
Mg238 O245 1.986 . S
Mg238 O247 2.114 . S
Mg238 O248 2.251 . S
Mg238 O251 2.010 . S
O239 Mg238 2.028 . S
O239 C242 1.250 . S
O240 Mg241 2.028 . S
O240 C242 1.248 . S
Mg241 O240 2.028 . S
Mg241 O246 2.032 . S
Mg241 O248 2.079 . S
C242 O239 1.250 . S
C242 O240 1.248 . S
C243 O244 1.264 . S
C243 O251 1.249 . S
O244 C243 1.264 . S
O245 Mg238 1.986 . S
O245 C249 1.246 . S
O246 Mg241 2.032 . S
O246 C249 1.259 . S
O247 Mg238 2.114 . S
O247 C250 1.252 . S
O248 Mg238 2.251 . S
O248 Mg241 2.079 . S
O248 C250 1.273 . S
C249 O245 1.246 . S
C249 O246 1.259 . S
C250 O247 1.252 . S
C250 O248 1.273 . S
O251 Mg238 2.010 . S
O251 C243 1.249 . S
Mg252 O253 2.028 . S
Mg252 O259 1.986 . S
Mg252 O261 2.114 . S
Mg252 O262 2.251 . S
Mg252 O265 2.010 . S
O253 Mg252 2.028 . S
O253 C256 1.250 . S
O254 Mg255 2.028 . S
O254 C256 1.248 . S
Mg255 O254 2.028 . S
Mg255 O260 2.032 . S
Mg255 O262 2.079 . S
C256 O253 1.250 . S
C256 O254 1.248 . S
C257 O258 1.264 . S
C257 O265 1.249 . S
O258 C257 1.264 . S
O259 Mg252 1.986 . S
O259 C263 1.246 . S
O260 Mg255 2.032 . S
O260 C263 1.259 . S
O261 Mg252 2.114 . S
O261 C264 1.252 . S
O262 Mg252 2.251 . S
O262 Mg255 2.079 . S
O262 C264 1.273 . S
C263 O259 1.246 . S
C263 O260 1.259 . S
C264 O261 1.252 . S
C264 O262 1.273 . S
O265 Mg252 2.010 . S
O265 C257 1.249 . S
Mg266 O267 2.028 . S
Mg266 O273 1.986 1_545 S
Mg266 O275 2.114 . S
Mg266 O276 2.251 . S
Mg266 O279 2.010 . S
O267 Mg266 2.028 . S
O267 C270 1.250 . S
O268 Mg269 2.028 . S
O268 C270 1.248 . S
Mg269 O268 2.028 . S
Mg269 O274 2.032 1_545 S
Mg269 O276 2.079 . S
C270 O267 1.250 . S
C270 O268 1.248 . S
C271 O272 1.264 1_545 S
C271 O279 1.249 . S
O272 C271 1.264 1_565 S
O273 Mg266 1.986 1_565 S
O273 C277 1.246 . S
O274 Mg269 2.032 1_565 S
O274 C277 1.259 . S
O275 Mg266 2.114 . S
O275 C278 1.252 . S
O276 Mg266 2.251 . S
O276 Mg269 2.079 . S
O276 C278 1.273 . S
C277 O273 1.246 . S
C277 O274 1.259 . S
C278 O275 1.252 . S
C278 O276 1.273 . S
O279 Mg266 2.010 . S
O279 C271 1.249 . S
Mg280 O281 2.028 1_556 S
Mg280 O287 1.986 . S
Mg280 O289 2.114 1_556 S
Mg280 O290 2.251 1_556 S
Mg280 O293 2.010 . S
O281 Mg280 2.028 1_554 S
O281 C284 1.250 . S
O282 Mg283 2.028 . S
O282 C284 1.248 . S
Mg283 O282 2.028 . S
Mg283 O288 2.032 1_554 S
Mg283 O290 2.080 . S
C284 O281 1.250 . S
C284 O282 1.248 . S
C285 O286 1.264 . S
C285 O293 1.249 . S
O286 C285 1.264 . S
O287 Mg280 1.986 . S
O287 C291 1.246 . S
O288 Mg283 2.032 1_556 S
O288 C291 1.259 . S
O289 Mg280 2.114 1_554 S
O289 C292 1.252 . S
O290 Mg280 2.251 1_554 S
O290 Mg283 2.080 . S
O290 C292 1.279 . S
C291 O287 1.246 . S
C291 O288 1.259 . S
C292 O289 1.252 . S
C292 O290 1.279 . S
O293 Mg280 2.010 . S
O293 C285 1.249 . S
Mg294 O295 2.028 . S
Mg294 O301 1.986 . S
Mg294 O303 2.114 . S
Mg294 O304 2.251 . S
Mg294 O307 2.010 . S
O295 Mg294 2.028 . S
O295 C298 1.250 . S
O296 Mg297 2.028 . S
O296 C298 1.248 . S
Mg297 O296 2.028 . S
Mg297 O302 2.032 . S
Mg297 O304 2.079 . S
C298 O295 1.250 . S
C298 O296 1.248 . S
C299 O300 1.264 . S
C299 O307 1.249 . S
O300 C299 1.264 . S
O301 Mg294 1.986 . S
O301 C305 1.246 . S
O302 Mg297 2.032 . S
O302 C305 1.259 . S
O303 Mg294 2.114 . S
O303 C306 1.252 . S
O304 Mg294 2.251 . S
O304 Mg297 2.079 . S
O304 C306 1.273 . S
C305 O301 1.246 . S
C305 O302 1.259 . S
C306 O303 1.252 . S
C306 O304 1.273 . S
O307 Mg294 2.010 . S
O307 C299 1.249 . S
Mg308 O309 2.028 . S
Mg308 O315 1.986 . S
Mg308 O317 2.114 . S
Mg308 O318 2.251 . S
Mg308 O321 2.010 . S
O309 Mg308 2.028 . S
O309 C312 1.250 . S
O310 Mg311 2.028 . S
O310 C312 1.248 . S
Mg311 O310 2.028 . S
Mg311 O316 2.032 . S
Mg311 O318 2.079 . S
C312 O309 1.250 . S
C312 O310 1.248 . S
C313 O314 1.264 . S
C313 O321 1.249 . S
O314 C313 1.264 . S
O315 Mg308 1.986 . S
O315 C319 1.246 . S
O316 Mg311 2.032 . S
O316 C319 1.259 . S
O317 Mg308 2.114 . S
O317 C320 1.252 . S
O318 Mg308 2.251 . S
O318 Mg311 2.079 . S
O318 C320 1.273 . S
C319 O315 1.246 . S
C319 O316 1.259 . S
C320 O317 1.252 . S
C320 O318 1.273 . S
O321 Mg308 2.010 . S
O321 C313 1.249 . S
Mg322 O323 2.028 . S
Mg322 O329 1.986 . S
Mg322 O331 2.114 . S
Mg322 O332 2.251 . S
Mg322 O335 2.010 . S
O323 Mg322 2.028 . S
O323 C326 1.250 . S
O324 Mg325 2.028 . S
O324 C326 1.248 . S
Mg325 O324 2.028 . S
Mg325 O330 2.032 . S
Mg325 O332 2.079 . S
C326 O323 1.250 . S
C326 O324 1.248 . S
C327 O328 1.264 . S
C327 O335 1.249 . S
O328 C327 1.264 . S
O329 Mg322 1.986 . S
O329 C333 1.246 . S
O330 Mg325 2.032 . S
O330 C333 1.259 . S
O331 Mg322 2.114 . S
O331 C334 1.252 . S
O332 Mg322 2.251 . S
O332 Mg325 2.079 . S
O332 C334 1.273 . S
C333 O329 1.246 . S
C333 O330 1.259 . S
C334 O331 1.252 . S
C334 O332 1.273 . S
O335 Mg322 2.010 . S
O335 C327 1.249 . S
Dy336 O340 2.398 . S
Dy336 O341 2.491 1_556 S
Dy336 O342 2.403 1_545 S
Dy336 O343 2.664 1_655 S
Dy336 O347 2.326 . S
Dy336 O351 2.324 1_556 S
Dy336 O352 2.351 1_546 S
C337 O348 1.185 . S
C337 O349 1.355 1_545 S
C338 O340 1.185 . S
C338 O341 1.355 1_556 S
Dy339 O343 2.310 1_554 S
Dy339 O346 2.351 . S
Dy339 O348 2.398 . S
Dy339 O349 2.491 1_545 S
Dy339 O350 2.403 . S
Dy339 O351 2.629 1_455 S
Dy339 O353 2.326 1_545 S
O340 Dy336 2.398 . S
O340 C338 1.185 . S
O341 Dy336 2.491 1_554 S
O341 C338 1.355 1_554 S
O342 Dy336 2.403 1_565 S
O342 C344 1.254 1_655 S
O343 Dy336 2.664 1_455 S
O343 Dy339 2.310 1_556 S
O343 C344 1.268 1_545 S
C344 O342 1.254 1_455 S
C344 O343 1.268 1_565 S
C345 O350 1.254 . S
C345 O351 1.261 1_455 S
O346 Dy339 2.351 . S
O346 C354 1.249 1_554 S
O347 Dy336 2.326 . S
O347 C354 1.267 1_655 S
O348 C337 1.185 . S
O348 Dy339 2.398 . S
O349 C337 1.355 1_565 S
O349 Dy339 2.491 1_565 S
O350 Dy339 2.403 . S
O350 C345 1.254 . S
O351 Dy336 2.324 1_554 S
O351 Dy339 2.629 1_655 S
O351 C345 1.261 1_655 S
O352 Dy336 2.351 1_564 S
O352 C355 1.249 1_655 S
O353 Dy339 2.326 1_565 S
O353 C355 1.267 . S
C354 O346 1.249 1_556 S
C354 O347 1.267 1_455 S
C355 O352 1.249 1_455 S
C355 O353 1.267 . S
Dy356 O360 2.398 . S
Dy356 O361 2.491 . S
Dy356 O362 2.403 . S
Dy356 O363 2.664 . S
Dy356 O367 2.326 . S
Dy356 O371 2.310 . S
Dy356 O372 2.351 . S
C357 O368 1.185 . S
C357 O369 1.355 . S
C358 O360 1.185 . S
C358 O361 1.355 . S
Dy359 O363 2.310 . S
Dy359 O366 2.351 . S
Dy359 O368 2.398 . S
Dy359 O369 2.491 . S
Dy359 O370 2.403 . S
Dy359 O371 2.664 . S
Dy359 O373 2.326 . S
O360 Dy356 2.398 . S
O360 C358 1.185 . S
O361 Dy356 2.491 . S
O361 C358 1.355 . S
O362 Dy356 2.403 . S
O362 C364 1.254 . S
O363 Dy356 2.664 . S
O363 Dy359 2.310 . S
O363 C364 1.268 . S
C364 O362 1.254 . S
C364 O363 1.268 . S
C365 O370 1.254 . S
C365 O371 1.268 . S
O366 Dy359 2.351 . S
O366 C374 1.249 . S
O367 Dy356 2.326 . S
O367 C374 1.267 . S
O368 C357 1.185 . S
O368 Dy359 2.398 . S
O369 C357 1.355 . S
O369 Dy359 2.491 . S
O370 Dy359 2.403 . S
O370 C365 1.254 . S
O371 Dy356 2.310 . S
O371 Dy359 2.664 . S
O371 C365 1.268 . S
O372 Dy356 2.351 . S
O372 C375 1.249 . S
O373 Dy359 2.326 . S
O373 C375 1.267 . S
C374 O366 1.249 . S
C374 O367 1.267 . S
C375 O372 1.249 . S
C375 O373 1.267 . S
Dy376 O380 2.398 . S
Dy376 O381 2.491 1_545 S
Dy376 O382 2.403 . S
Dy376 O383 2.664 . S
Dy376 O387 2.326 1_545 S
Dy376 O391 2.310 . S
Dy376 O392 2.351 . S
C377 O388 1.185 . S
C377 O389 1.355 . S
C378 O380 1.185 1_565 S
C378 O381 1.355 . S
Dy379 O383 2.310 . S
Dy379 O386 2.351 1_545 S
Dy379 O388 2.398 . S
Dy379 O389 2.491 . S
Dy379 O390 2.403 . S
Dy379 O391 2.664 . S
Dy379 O393 2.326 . S
O380 Dy376 2.398 . S
O380 C378 1.185 1_545 S
O381 Dy376 2.491 1_565 S
O381 C378 1.355 . S
O382 Dy376 2.403 . S
O382 C384 1.254 . S
O383 Dy376 2.664 . S
O383 Dy379 2.310 . S
O383 C384 1.268 . S
C384 O382 1.254 . S
C384 O383 1.268 . S
C385 O390 1.254 . S
C385 O391 1.268 . S
O386 Dy379 2.351 1_565 S
O386 C394 1.249 . S
O387 Dy376 2.326 1_565 S
O387 C394 1.267 . S
O388 C377 1.185 . S
O388 Dy379 2.398 . S
O389 C377 1.355 . S
O389 Dy379 2.491 . S
O390 Dy379 2.403 . S
O390 C385 1.254 . S
O391 Dy376 2.310 . S
O391 Dy379 2.664 . S
O391 C385 1.268 . S
O392 Dy376 2.351 . S
O392 C395 1.249 . S
O393 Dy379 2.326 . S
O393 C395 1.267 . S
C394 O386 1.249 . S
C394 O387 1.267 . S
C395 O392 1.249 . S
C395 O393 1.267 . S
Dy396 O400 2.398 . S
Dy396 O401 2.491 . S
Dy396 O402 2.403 . S
Dy396 O403 2.664 . S
Dy396 O407 2.326 . S
Dy396 O411 2.310 . S
Dy396 O412 2.351 . S
C397 O408 1.185 . S
C397 O409 1.355 . S
C398 O400 1.185 . S
C398 O401 1.355 . S
Dy399 O403 2.310 . S
Dy399 O406 2.351 . S
Dy399 O408 2.398 . S
Dy399 O409 2.491 . S
Dy399 O410 2.403 . S
Dy399 O411 2.664 . S
Dy399 O413 2.326 . S
O400 Dy396 2.398 . S
O400 C398 1.185 . S
O401 Dy396 2.491 . S
O401 C398 1.355 . S
O402 Dy396 2.403 . S
O402 C404 1.254 . S
O403 Dy396 2.664 . S
O403 Dy399 2.310 . S
O403 C404 1.268 . S
C404 O402 1.254 . S
C404 O403 1.268 . S
C405 O410 1.254 . S
C405 O411 1.268 . S
O406 Dy399 2.351 . S
O406 C414 1.249 . S
O407 Dy396 2.326 . S
O407 C414 1.267 . S
O408 C397 1.185 . S
O408 Dy399 2.398 . S
O409 C397 1.355 . S
O409 Dy399 2.491 . S
O410 Dy399 2.403 . S
O410 C405 1.254 . S
O411 Dy396 2.310 . S
O411 Dy399 2.664 . S
O411 C405 1.268 . S
O412 Dy396 2.351 . S
O412 C415 1.249 . S
O413 Dy399 2.326 . S
O413 C415 1.267 . S
C414 O406 1.249 . S
C414 O407 1.267 . S
C415 O412 1.249 . S
C415 O413 1.267 . S
Dy416 O420 2.398 1_565 S
Dy416 O421 2.491 1_465 S
Dy416 O422 2.403 1_565 S
Dy416 O423 2.664 1_565 S
Dy416 O427 2.326 1_565 S
Dy416 O431 2.310 1_465 S
Dy416 O432 2.351 . S
C417 O428 1.185 . S
C417 O429 1.355 . S
C418 O420 1.185 1_655 S
C418 O421 1.355 . S
Dy419 O423 2.310 . S
Dy419 O426 2.351 . S
Dy419 O428 2.398 . S
Dy419 O429 2.491 . S
Dy419 O430 2.403 1_455 S
Dy419 O431 2.664 1_455 S
Dy419 O433 2.326 1_545 S
O420 Dy416 2.398 1_545 S
O420 C418 1.185 1_455 S
O421 Dy416 2.491 1_645 S
O421 C418 1.355 . S
O422 Dy416 2.403 1_545 S
O422 C424 1.254 . S
O423 Dy416 2.664 1_545 S
O423 Dy419 2.310 . S
O423 C424 1.268 . S
C424 O422 1.254 . S
C424 O423 1.268 . S
C425 O430 1.254 . S
C425 O431 1.268 . S
O426 Dy419 2.351 . S
O426 C434 1.249 . S
O427 Dy416 2.326 1_545 S
O427 C434 1.267 . S
O428 C417 1.185 . S
O428 Dy419 2.398 . S
O429 C417 1.355 . S
O429 Dy419 2.491 . S
O430 Dy419 2.403 1_655 S
O430 C425 1.254 . S
O431 Dy416 2.310 1_645 S
O431 Dy419 2.664 1_655 S
O431 C425 1.268 . S
O432 Dy416 2.351 . S
O432 C435 1.249 . S
O433 Dy419 2.326 1_565 S
O433 C435 1.267 . S
C434 O426 1.249 . S
C434 O427 1.267 . S
C435 O432 1.249 . S
C435 O433 1.267 . S
Dy436 O440 2.398 . S
Dy436 O441 2.491 . S
Dy436 O442 2.403 . S
Dy436 O443 2.664 . S
Dy436 O447 2.326 . S
Dy436 O451 2.310 . S
Dy436 O452 2.351 . S
C437 O448 1.185 . S
C437 O449 1.355 . S
C438 O440 1.185 . S
C438 O441 1.355 . S
Dy439 O443 2.310 . S
Dy439 O446 2.351 . S
Dy439 O448 2.398 . S
Dy439 O449 2.491 . S
Dy439 O450 2.403 . S
Dy439 O451 2.664 . S
Dy439 O453 2.326 . S
O440 Dy436 2.398 . S
O440 C438 1.185 . S
O441 Dy436 2.491 . S
O441 C438 1.355 . S
O442 Dy436 2.403 . S
O442 C444 1.254 . S
O443 Dy436 2.664 . S
O443 Dy439 2.310 . S
O443 C444 1.268 . S
C444 O442 1.254 . S
C444 O443 1.268 . S
C445 O450 1.254 . S
C445 O451 1.268 . S
O446 Dy439 2.351 . S
O446 C454 1.249 . S
O447 Dy436 2.326 . S
O447 C454 1.267 . S
O448 C437 1.185 . S
O448 Dy439 2.398 . S
O449 C437 1.355 . S
O449 Dy439 2.491 . S
O450 Dy439 2.403 . S
O450 C445 1.254 . S
O451 Dy436 2.310 . S
O451 Dy439 2.664 . S
O451 C445 1.268 . S
O452 Dy436 2.351 . S
O452 C455 1.249 . S
O453 Dy439 2.326 . S
O453 C455 1.267 . S
C454 O446 1.249 . S
C454 O447 1.267 . S
C455 O452 1.249 . S
C455 O453 1.267 . S
Dy456 O460 2.398 1_545 S
Dy456 O461 2.491 . S
Dy456 O462 2.403 1_545 S
Dy456 O463 2.664 1_544 S
Dy456 O467 2.326 1_545 S
Dy456 O471 2.310 . S
Dy456 O472 2.351 . S
C457 O468 1.185 . S
C457 O469 1.355 . S
C458 O460 1.185 . S
C458 O461 1.355 1_565 S
Dy459 O463 2.310 1_545 S
Dy459 O466 2.351 . S
Dy459 O468 2.398 . S
Dy459 O469 2.491 . S
Dy459 O470 2.403 . S
Dy459 O471 2.664 1_556 S
Dy459 O473 2.326 . S
O460 Dy456 2.398 1_565 S
O460 C458 1.185 . S
O461 Dy456 2.491 . S
O461 C458 1.355 1_545 S
O462 Dy456 2.403 1_565 S
O462 C464 1.254 1_554 S
O463 Dy456 2.664 1_566 S
O463 Dy459 2.310 1_565 S
O463 C464 1.268 . S
C464 O462 1.254 1_556 S
C464 O463 1.268 . S
C465 O470 1.254 1_554 S
C465 O471 1.268 . S
O466 Dy459 2.351 . S
O466 C474 1.249 1_546 S
O467 Dy456 2.326 1_565 S
O467 C474 1.267 . S
O468 C457 1.185 . S
O468 Dy459 2.398 . S
O469 C457 1.355 . S
O469 Dy459 2.491 . S
O470 Dy459 2.403 . S
O470 C465 1.254 1_556 S
O471 Dy456 2.310 . S
O471 Dy459 2.664 1_554 S
O471 C465 1.268 . S
O472 Dy456 2.351 . S
O472 C475 1.249 . S
O473 Dy459 2.326 . S
O473 C475 1.267 1_556 S
C474 O466 1.249 1_564 S
C474 O467 1.267 . S
C475 O472 1.249 . S
C475 O473 1.267 1_554 S
Dy476 O480 2.398 . S
Dy476 O481 2.491 . S
Dy476 O482 2.403 . S
Dy476 O483 2.664 . S
Dy476 O487 2.326 . S
Dy476 O491 2.310 . S
Dy476 O492 2.351 . S
C477 O488 1.185 . S
C477 O489 1.355 . S
C478 O480 1.185 . S
C478 O481 1.355 . S
Dy479 O483 2.310 . S
Dy479 O486 2.351 . S
Dy479 O488 2.398 . S
Dy479 O489 2.491 . S
Dy479 O490 2.403 . S
Dy479 O491 2.664 . S
Dy479 O493 2.326 . S
O480 Dy476 2.398 . S
O480 C478 1.185 . S
O481 Dy476 2.491 . S
O481 C478 1.355 . S
O482 Dy476 2.403 . S
O482 C484 1.254 . S
O483 Dy476 2.664 . S
O483 Dy479 2.310 . S
O483 C484 1.268 . S
C484 O482 1.254 . S
C484 O483 1.268 . S
C485 O490 1.254 . S
C485 O491 1.268 . S
O486 Dy479 2.351 . S
O486 C494 1.249 . S
O487 Dy476 2.326 . S
O487 C494 1.267 . S
O488 C477 1.185 . S
O488 Dy479 2.398 . S
O489 C477 1.355 . S
O489 Dy479 2.491 . S
O490 Dy479 2.403 . S
O490 C485 1.254 . S
O491 Dy476 2.310 . S
O491 Dy479 2.664 . S
O491 C485 1.268 . S
O492 Dy476 2.351 . S
O492 C495 1.249 . S
O493 Dy479 2.326 . S
O493 C495 1.267 . S
C494 O486 1.249 . S
C494 O487 1.267 . S
C495 O492 1.249 . S
C495 O493 1.267 . S
Dy496 O500 2.398 . S
Dy496 O501 2.491 . S
Dy496 O502 2.403 . S
Dy496 O503 2.664 1_556 S
Dy496 O507 2.326 . S
Dy496 O511 2.310 1_556 S
Dy496 O512 2.351 . S
C497 O508 1.185 . S
C497 O509 1.355 . S
C498 O500 1.185 . S
C498 O501 1.355 . S
Dy499 O503 2.310 . S
Dy499 O506 2.351 . S
Dy499 O508 2.398 . S
Dy499 O509 2.491 . S
Dy499 O510 2.403 . S
Dy499 O511 2.664 . S
Dy499 O513 2.326 . S
O500 Dy496 2.398 . S
O500 C498 1.185 . S
O501 Dy496 2.491 . S
O501 C498 1.355 . S
O502 Dy496 2.403 . S
O502 C504 1.254 . S
O503 Dy496 2.664 1_554 S
O503 Dy499 2.310 . S
O503 C504 1.268 1_554 S
C504 O502 1.254 . S
C504 O503 1.268 1_556 S
C505 O510 1.254 . S
C505 O511 1.268 . S
O506 Dy499 2.351 . S
O506 C514 1.249 1_554 S
O507 Dy496 2.326 . S
O507 C514 1.267 . S
O508 C497 1.185 . S
O508 Dy499 2.398 . S
O509 C497 1.355 . S
O509 Dy499 2.491 . S
O510 Dy499 2.403 . S
O510 C505 1.254 . S
O511 Dy496 2.310 1_554 S
O511 Dy499 2.664 . S
O511 C505 1.268 . S
O512 Dy496 2.351 . S
O512 C515 1.249 1_556 S
O513 Dy499 2.326 . S
O513 C515 1.267 . S
C514 O506 1.249 1_556 S
C514 O507 1.267 . S
C515 O512 1.249 1_554 S
C515 O513 1.267 . S
Dy516 O520 2.398 . S
Dy516 O521 2.491 . S
Dy516 O522 2.403 . S
Dy516 O523 2.664 . S
Dy516 O527 2.326 . S
Dy516 O531 2.310 . S
Dy516 O532 2.351 . S
C517 O528 1.185 . S
C517 O529 1.355 . S
C518 O520 1.185 . S
C518 O521 1.355 . S
Dy519 O523 2.310 . S
Dy519 O526 2.351 . S
Dy519 O528 2.398 . S
Dy519 O529 2.491 . S
Dy519 O530 2.403 . S
Dy519 O531 2.664 . S
Dy519 O533 2.326 . S
O520 Dy516 2.398 . S
O520 C518 1.185 . S
O521 Dy516 2.491 . S
O521 C518 1.355 . S
O522 Dy516 2.403 . S
O522 C524 1.254 . S
O523 Dy516 2.664 . S
O523 Dy519 2.310 . S
O523 C524 1.268 . S
C524 O522 1.254 . S
C524 O523 1.268 . S
C525 O530 1.254 . S
C525 O531 1.268 . S
O526 Dy519 2.351 . S
O526 C534 1.249 . S
O527 Dy516 2.326 . S
O527 C534 1.267 . S
O528 C517 1.185 . S
O528 Dy519 2.398 . S
O529 C517 1.355 . S
O529 Dy519 2.491 . S
O530 Dy519 2.403 . S
O530 C525 1.254 . S
O531 Dy516 2.310 . S
O531 Dy519 2.664 . S
O531 C525 1.268 . S
O532 Dy516 2.351 . S
O532 C535 1.249 . S
O533 Dy519 2.326 . S
O533 C535 1.267 . S
C534 O526 1.249 . S
C534 O527 1.267 . S
C535 O532 1.249 . S
C535 O533 1.267 . S
Dy536 O540 2.398 1_455 S
Dy536 O541 2.491 1_455 S
Dy536 O542 2.403 . S
Dy536 O543 2.664 . S
Dy536 O547 2.326 1_455 S
Dy536 O551 2.310 . S
Dy536 O552 2.351 . S
C537 O548 1.185 . S
C537 O549 1.355 . S
C538 O540 1.185 . S
C538 O541 1.355 . S
Dy539 O543 2.310 . S
Dy539 O546 2.351 1_455 S
Dy539 O548 2.398 . S
Dy539 O549 2.491 . S
Dy539 O550 2.403 . S
Dy539 O551 2.664 . S
Dy539 O553 2.326 . S
O540 Dy536 2.398 1_655 S
O540 C538 1.185 . S
O541 Dy536 2.491 1_655 S
O541 C538 1.355 . S
O542 Dy536 2.403 . S
O542 C544 1.254 . S
O543 Dy536 2.664 . S
O543 Dy539 2.310 . S
O543 C544 1.268 . S
C544 O542 1.254 . S
C544 O543 1.268 . S
C545 O550 1.254 . S
C545 O551 1.268 . S
O546 Dy539 2.351 1_655 S
O546 C554 1.249 . S
O547 Dy536 2.326 1_655 S
O547 C554 1.267 . S
O548 C537 1.185 . S
O548 Dy539 2.398 . S
O549 C537 1.355 . S
O549 Dy539 2.491 . S
O550 Dy539 2.403 . S
O550 C545 1.254 . S
O551 Dy536 2.310 . S
O551 Dy539 2.664 . S
O551 C545 1.268 . S
O552 Dy536 2.351 . S
O552 C555 1.249 . S
O553 Dy539 2.326 . S
O553 C555 1.267 . S
C554 O546 1.249 . S
C554 O547 1.267 . S
C555 O552 1.249 . S
C555 O553 1.267 . S
Dy556 O560 2.398 . S
Dy556 O561 2.491 . S
Dy556 O562 2.403 . S
Dy556 O563 2.664 . S
Dy556 O567 2.326 . S
Dy556 O571 2.310 . S
Dy556 O572 2.351 . S
C557 O568 1.185 . S
C557 O569 1.355 . S
C558 O560 1.185 . S
C558 O561 1.355 . S
Dy559 O563 2.310 . S
Dy559 O566 2.351 . S
Dy559 O568 2.398 . S
Dy559 O569 2.491 . S
Dy559 O570 2.403 . S
Dy559 O571 2.664 . S
Dy559 O573 2.326 . S
O560 Dy556 2.398 . S
O560 C558 1.185 . S
O561 Dy556 2.491 . S
O561 C558 1.355 . S
O562 Dy556 2.403 . S
O562 C564 1.254 . S
O563 Dy556 2.664 . S
O563 Dy559 2.310 . S
O563 C564 1.268 . S
C564 O562 1.254 . S
C564 O563 1.268 . S
C565 O570 1.254 . S
C565 O571 1.268 . S
O566 Dy559 2.351 . S
O566 C574 1.249 . S
O567 Dy556 2.326 . S
O567 C574 1.267 . S
O568 C557 1.185 . S
O568 Dy559 2.398 . S
O569 C557 1.355 . S
O569 Dy559 2.491 . S
O570 Dy559 2.403 . S
O570 C565 1.254 . S
O571 Dy556 2.310 . S
O571 Dy559 2.664 . S
O571 C565 1.268 . S
O572 Dy556 2.351 . S
O572 C575 1.249 . S
O573 Dy559 2.326 . S
O573 C575 1.267 . S
C574 O566 1.249 . S
C574 O567 1.267 . S
C575 O572 1.249 . S
C575 O573 1.267 . S
Dy576 O580 2.398 . S
Dy576 O581 2.491 . S
Dy576 O582 2.403 . S
Dy576 O583 2.664 . S
Dy576 O587 2.326 . S
Dy576 O591 2.310 . S
Dy576 O592 2.351 . S
C577 O588 1.185 . S
C577 O589 1.355 . S
C578 O580 1.185 . S
C578 O581 1.355 . S
Dy579 O583 2.310 . S
Dy579 O586 2.351 . S
Dy579 O588 2.398 . S
Dy579 O589 2.491 . S
Dy579 O590 2.403 . S
Dy579 O591 2.664 . S
Dy579 O593 2.326 . S
O580 Dy576 2.398 . S
O580 C578 1.185 . S
O581 Dy576 2.491 . S
O581 C578 1.355 . S
O582 Dy576 2.403 . S
O582 C584 1.254 . S
O583 Dy576 2.664 . S
O583 Dy579 2.310 . S
O583 C584 1.268 . S
C584 O582 1.254 . S
C584 O583 1.268 . S
C585 O590 1.254 . S
C585 O591 1.268 . S
O586 Dy579 2.351 . S
O586 C594 1.249 . S
O587 Dy576 2.326 . S
O587 C594 1.267 . S
O588 C577 1.185 . S
O588 Dy579 2.398 . S
O589 C577 1.355 . S
O589 Dy579 2.491 . S
O590 Dy579 2.403 . S
O590 C585 1.254 . S
O591 Dy576 2.310 . S
O591 Dy579 2.664 . S
O591 C585 1.268 . S
O592 Dy576 2.351 . S
O592 C595 1.249 . S
O593 Dy579 2.326 . S
O593 C595 1.267 . S
C594 O586 1.249 . S
C594 O587 1.267 . S
C595 O592 1.249 . S
C595 O593 1.267 . S
Dy596 O600 2.398 . S
Dy596 O601 2.491 . S
Dy596 O602 2.403 . S
Dy596 O603 2.664 . S
Dy596 O607 2.326 . S
Dy596 O611 2.310 . S
Dy596 O612 2.351 . S
C597 O608 1.185 . S
C597 O609 1.355 . S
C598 O600 1.185 . S
C598 O601 1.355 . S
Dy599 O603 2.310 . S
Dy599 O606 2.351 . S
Dy599 O608 2.398 . S
Dy599 O609 2.491 . S
Dy599 O610 2.403 . S
Dy599 O611 2.664 . S
Dy599 O613 2.326 . S
O600 Dy596 2.398 . S
O600 C598 1.185 . S
O601 Dy596 2.491 . S
O601 C598 1.355 . S
O602 Dy596 2.403 . S
O602 C604 1.254 . S
O603 Dy596 2.664 . S
O603 Dy599 2.310 . S
O603 C604 1.268 . S
C604 O602 1.254 . S
C604 O603 1.268 . S
C605 O610 1.254 . S
C605 O611 1.268 . S
O606 Dy599 2.351 . S
O606 C614 1.249 . S
O607 Dy596 2.326 . S
O607 C614 1.267 . S
O608 C597 1.185 . S
O608 Dy599 2.398 . S
O609 C597 1.355 . S
O609 Dy599 2.491 . S
O610 Dy599 2.403 . S
O610 C605 1.254 . S
O611 Dy596 2.310 . S
O611 Dy599 2.664 . S
O611 C605 1.268 . S
O612 Dy596 2.351 . S
O612 C615 1.249 . S
O613 Dy599 2.326 . S
O613 C615 1.267 . S
C614 O606 1.249 . S
C614 O607 1.267 . S
C615 O612 1.249 . S
C615 O613 1.267 . S
Dy616 O620 2.398 . S
Dy616 O621 2.491 . S
Dy616 O622 2.403 . S
Dy616 O623 2.664 . S
Dy616 O627 2.326 . S
Dy616 O631 2.310 . S
Dy616 O632 2.351 . S
C617 O628 1.185 . S
C617 O629 1.355 . S
C618 O620 1.185 . S
C618 O621 1.355 . S
Dy619 O623 2.310 . S
Dy619 O626 2.351 . S
Dy619 O628 2.398 . S
Dy619 O629 2.491 . S
Dy619 O630 2.403 . S
Dy619 O631 2.664 . S
Dy619 O633 2.326 . S
O620 Dy616 2.398 . S
O620 C618 1.185 . S
O621 Dy616 2.491 . S
O621 C618 1.355 . S
O622 Dy616 2.403 . S
O622 C624 1.254 . S
O623 Dy616 2.664 . S
O623 Dy619 2.310 . S
O623 C624 1.268 . S
C624 O622 1.254 . S
C624 O623 1.268 . S
C625 O630 1.254 . S
C625 O631 1.268 . S
O626 Dy619 2.351 . S
O626 C634 1.249 . S
O627 Dy616 2.326 . S
O627 C634 1.267 . S
O628 C617 1.185 . S
O628 Dy619 2.398 . S
O629 C617 1.355 . S
O629 Dy619 2.491 . S
O630 Dy619 2.403 . S
O630 C625 1.254 . S
O631 Dy616 2.310 . S
O631 Dy619 2.664 . S
O631 C625 1.268 . S
O632 Dy616 2.351 . S
O632 C635 1.249 . S
O633 Dy619 2.326 . S
O633 C635 1.267 . S
C634 O626 1.249 . S
C634 O627 1.267 . S
C635 O632 1.249 . S
C635 O633 1.267 . S
Dy636 O640 2.398 . S
Dy636 O641 2.491 1_556 S
Dy636 O642 2.403 . S
Dy636 O643 2.671 . S
Dy636 O647 2.326 . S
Dy636 O651 2.310 1_556 S
Dy636 O652 2.351 1_556 S
C637 O648 1.185 . S
C637 O649 1.355 . S
C638 O640 1.185 . S
C638 O641 1.355 1_556 S
Dy639 O643 2.306 1_654 S
Dy639 O646 2.357 . S
Dy639 O648 2.398 . S
Dy639 O649 2.491 . S
Dy639 O650 2.403 . S
Dy639 O651 2.664 1_655 S
Dy639 O653 2.327 1_655 S
O640 Dy636 2.398 . S
O640 C638 1.185 . S
O641 Dy636 2.491 1_554 S
O641 C638 1.355 1_554 S
O642 Dy636 2.403 . S
O642 C644 1.254 . S
O643 Dy636 2.671 . S
O643 Dy639 2.306 1_456 S
O643 C644 1.270 . S
C644 O642 1.254 . S
C644 O643 1.270 . S
C645 O650 1.254 1_455 S
C645 O651 1.268 . S
O646 Dy639 2.357 . S
O646 C654 1.239 1_654 S
O647 Dy636 2.326 . S
O647 C654 1.267 . S
O648 C637 1.185 . S
O648 Dy639 2.398 . S
O649 C637 1.355 . S
O649 Dy639 2.491 . S
O650 Dy639 2.403 . S
O650 C645 1.254 1_655 S
O651 Dy636 2.310 1_554 S
O651 Dy639 2.664 1_455 S
O651 C645 1.268 . S
O652 Dy636 2.351 1_554 S
O652 C655 1.249 . S
O653 Dy639 2.327 1_455 S
O653 C655 1.266 . S
C654 O646 1.239 1_456 S
C654 O647 1.267 . S
C655 O652 1.249 . S
C655 O653 1.266 . S
C656 C657 1.369 . S
C656 C658 1.422 . S
C656 H660 0.930 . S
C657 C656 1.369 . S
C657 C666 1.429 1_655 S
C658 C656 1.422 . S
C658 C659 1.366 1_655 S
C658 H661 0.922 1_556 S
C659 C658 1.366 1_455 S
C659 C665 1.428 . S
H660 C656 0.930 . S
H661 C658 0.922 1_554 S
S662 N663 1.613 . S
S662 N664 1.610 . S
N663 S662 1.613 . S
N663 C666 1.350 . S
N664 S662 1.610 . S
N664 C665 1.351 . S
C665 C659 1.428 . S
C665 N664 1.351 . S
C665 C666 1.434 . S
C666 C657 1.429 1_455 S
C666 N663 1.350 . S
C666 C665 1.434 . S
C667 C668 1.369 . S
C667 C669 1.419 . S
C667 H671 0.930 . S
C668 C667 1.369 . S
C668 C677 1.429 . S
C669 C667 1.419 . S
C669 C670 1.363 . S
C669 H672 0.929 . S
C670 C669 1.363 . S
C670 C676 1.428 . S
H671 C667 0.930 . S
H672 C669 0.929 . S
S673 N674 1.613 . S
S673 N675 1.610 . S
N674 S673 1.613 . S
N674 C677 1.350 . S
N675 S673 1.610 . S
N675 C676 1.351 . S
C676 C670 1.428 . S
C676 N675 1.351 . S
C676 C677 1.434 . S
C677 C668 1.429 . S
C677 N674 1.350 . S
C677 C676 1.434 . S
C678 C679 1.369 . S
C678 C680 1.419 . S
C678 H682 0.930 . S
C679 C678 1.369 . S
C679 C688 1.429 . S
C680 C678 1.419 . S
C680 C681 1.363 . S
C680 H683 0.929 . S
C681 C680 1.363 . S
C681 C687 1.428 . S
H682 C678 0.930 . S
H683 C680 0.929 . S
S684 N685 1.613 . S
S684 N686 1.610 . S
N685 S684 1.613 . S
N685 C688 1.350 . S
N686 S684 1.610 . S
N686 C687 1.351 . S
C687 C681 1.428 . S
C687 N686 1.351 . S
C687 C688 1.434 . S
C688 C679 1.429 . S
C688 N685 1.350 . S
C688 C687 1.434 . S
C689 C690 1.369 . S
C689 C691 1.419 . S
C689 H693 0.930 . S
C690 C689 1.369 . S
C690 C699 1.429 . S
C691 C689 1.419 . S
C691 C692 1.363 . S
C691 H694 0.929 . S
C692 C691 1.363 . S
C692 C698 1.428 . S
H693 C689 0.930 . S
H694 C691 0.929 . S
S695 N696 1.613 . S
S695 N697 1.610 . S
N696 S695 1.613 . S
N696 C699 1.350 . S
N697 S695 1.610 . S
N697 C698 1.351 . S
C698 C692 1.428 . S
C698 N697 1.351 . S
C698 C699 1.434 . S
C699 C690 1.429 . S
C699 N696 1.350 . S
C699 C698 1.434 . S
C700 C701 1.369 . S
C700 C702 1.419 . S
C700 H704 0.930 . S
C701 C700 1.369 . S
C701 C710 1.429 . S
C702 C700 1.419 . S
C702 C703 1.363 . S
C702 H705 0.929 . S
C703 C702 1.363 . S
C703 C709 1.428 . S
H704 C700 0.930 . S
H705 C702 0.929 . S
S706 N707 1.613 . S
S706 N708 1.610 . S
N707 S706 1.613 . S
N707 C710 1.350 . S
N708 S706 1.610 . S
N708 C709 1.351 . S
C709 C703 1.428 . S
C709 N708 1.351 . S
C709 C710 1.434 . S
C710 C701 1.429 . S
C710 N707 1.350 . S
C710 C709 1.434 . S
C711 C712 1.369 . S
C711 C713 1.419 . S
C711 H715 0.930 . S
C712 C711 1.369 . S
C712 C721 1.429 . S
C713 C711 1.419 . S
C713 C714 1.363 . S
C713 H716 0.929 . S
C714 C713 1.363 . S
C714 C720 1.428 . S
H715 C711 0.930 . S
H716 C713 0.929 . S
S717 N718 1.613 . S
S717 N719 1.610 . S
N718 S717 1.613 . S
N718 C721 1.350 . S
N719 S717 1.610 . S
N719 C720 1.351 . S
C720 C714 1.428 . S
C720 N719 1.351 . S
C720 C721 1.434 . S
C721 C712 1.429 . S
C721 N718 1.350 . S
C721 C720 1.434 . S
C722 C723 1.369 . S
C722 C724 1.419 . S
C722 H726 0.930 . S
C723 C722 1.369 . S
C723 C732 1.429 . S
C724 C722 1.419 . S
C724 C725 1.363 . S
C724 H727 0.929 . S
C725 C724 1.363 . S
C725 C731 1.428 . S
H726 C722 0.930 . S
H727 C724 0.929 . S
S728 N729 1.613 1_556 S
S728 N730 1.610 . S
N729 S728 1.613 1_554 S
N729 C732 1.350 . S
N730 S728 1.610 . S
N730 C731 1.351 1_556 S
C731 C725 1.428 . S
C731 N730 1.351 1_554 S
C731 C732 1.434 . S
C732 C723 1.429 . S
C732 N729 1.350 . S
C732 C731 1.434 . S
C733 C734 1.369 . S
C733 C735 1.419 . S
C733 H737 0.930 . S
C734 C733 1.369 . S
C734 C743 1.429 . S
C735 C733 1.419 . S
C735 C736 1.363 . S
C735 H738 0.929 . S
C736 C735 1.363 . S
C736 C742 1.428 . S
H737 C733 0.930 . S
H738 C735 0.929 . S
S739 N740 1.613 . S
S739 N741 1.610 . S
N740 S739 1.613 . S
N740 C743 1.350 . S
N741 S739 1.610 . S
N741 C742 1.351 . S
C742 C736 1.428 . S
C742 N741 1.351 . S
C742 C743 1.434 . S
C743 C734 1.429 . S
C743 N740 1.350 . S
C743 C742 1.434 . S
C744 C745 1.369 . S
C744 C746 1.419 . S
C744 H748 0.930 . S
C745 C744 1.369 . S
C745 C754 1.429 . S
C746 C744 1.419 . S
C746 C747 1.363 . S
C746 H749 0.929 . S
C747 C746 1.363 . S
C747 C753 1.428 1_655 S
H748 C744 0.930 . S
H749 C746 0.929 . S
S750 N751 1.613 . S
S750 N752 1.610 . S
N751 S750 1.613 . S
N751 C754 1.350 1_455 S
N752 S750 1.610 . S
N752 C753 1.351 . S
C753 C747 1.428 1_455 S
C753 N752 1.351 . S
C753 C754 1.434 1_455 S
C754 C745 1.429 . S
C754 N751 1.350 1_655 S
C754 C753 1.434 1_655 S
C755 C756 1.369 . S
C755 C757 1.419 . S
C755 H759 0.930 . S
C756 C755 1.369 . S
C756 C765 1.429 . S
C757 C755 1.419 . S
C757 C758 1.363 . S
C757 H760 0.929 . S
C758 C757 1.363 . S
C758 C764 1.428 . S
H759 C755 0.930 . S
H760 C757 0.929 . S
S761 N762 1.613 . S
S761 N763 1.610 . S
N762 S761 1.613 . S
N762 C765 1.350 . S
N763 S761 1.610 . S
N763 C764 1.351 . S
C764 C758 1.428 . S
C764 N763 1.351 . S
C764 C765 1.434 . S
C765 C756 1.429 . S
C765 N762 1.350 . S
C765 C764 1.434 . S
C766 C767 1.369 . S
C766 C768 1.419 1_545 S
C766 H770 0.930 1_545 S
C767 C766 1.369 . S
C767 C776 1.429 . S
C768 C766 1.419 1_565 S
C768 C769 1.363 1_565 S
C768 H771 0.929 . S
C769 C768 1.363 1_545 S
C769 C775 1.428 . S
H770 C766 0.930 1_565 S
H771 C768 0.929 . S
S772 N773 1.613 . S
S772 N774 1.610 . S
N773 S772 1.613 . S
N773 C776 1.350 . S
N774 S772 1.610 . S
N774 C775 1.351 . S
C775 C769 1.428 . S
C775 N774 1.351 . S
C775 C776 1.434 . S
C776 C767 1.429 . S
C776 N773 1.350 . S
C776 C775 1.434 . S
C777 C778 1.369 . S
C777 C779 1.419 . S
C777 H781 0.930 . S
C778 C777 1.369 . S
C778 C787 1.429 . S
C779 C777 1.419 . S
C779 C780 1.363 . S
C779 H782 0.929 . S
C780 C779 1.363 . S
C780 C786 1.428 . S
H781 C777 0.930 . S
H782 C779 0.929 . S
S783 N784 1.613 . S
S783 N785 1.610 . S
N784 S783 1.613 . S
N784 C787 1.350 . S
N785 S783 1.610 . S
N785 C786 1.351 . S
C786 C780 1.428 . S
C786 N785 1.351 . S
C786 C787 1.434 . S
C787 C778 1.429 . S
C787 N784 1.350 . S
C787 C786 1.434 . S
C788 C789 1.369 . S
C788 C790 1.419 . S
C788 H792 0.930 . S
C789 C788 1.369 . S
C789 C798 1.429 . S
C790 C788 1.419 . S
C790 C791 1.363 . S
C790 H793 0.929 . S
C791 C790 1.363 . S
C791 C797 1.428 . S
H792 C788 0.930 . S
H793 C790 0.929 . S
S794 N795 1.613 1_565 S
S794 N796 1.610 . S
N795 S794 1.613 1_545 S
N795 C798 1.350 . S
N796 S794 1.610 . S
N796 C797 1.351 1_565 S
C797 C791 1.428 . S
C797 N796 1.351 1_545 S
C797 C798 1.434 . S
C798 C789 1.429 . S
C798 N795 1.350 . S
C798 C797 1.434 . S
C799 C800 1.369 . S
C799 C801 1.419 . S
C799 H803 0.930 . S
C800 C799 1.369 . S
C800 C809 1.429 . S
C801 C799 1.419 . S
C801 C802 1.363 . S
C801 H804 0.929 . S
C802 C801 1.363 . S
C802 C808 1.428 . S
H803 C799 0.930 . S
H804 C801 0.929 . S
S805 N806 1.613 . S
S805 N807 1.610 . S
N806 S805 1.613 . S
N806 C809 1.350 . S
N807 S805 1.610 . S
N807 C808 1.351 . S
C808 C802 1.428 . S
C808 N807 1.351 . S
C808 C809 1.434 . S
C809 C800 1.429 . S
C809 N806 1.350 . S
C809 C808 1.434 . S
C810 C811 1.369 . S
C810 C812 1.419 . S
C810 H814 0.930 . S
C811 C810 1.369 . S
C811 C820 1.429 . S
C812 C810 1.419 . S
C812 C813 1.363 . S
C812 H815 0.929 . S
C813 C812 1.363 . S
C813 C819 1.428 . S
H814 C810 0.930 . S
H815 C812 0.929 . S
S816 N817 1.613 . S
S816 N818 1.610 . S
N817 S816 1.613 . S
N817 C820 1.350 . S
N818 S816 1.610 . S
N818 C819 1.351 . S
C819 C813 1.428 . S
C819 N818 1.351 . S
C819 C820 1.434 . S
C820 C811 1.429 . S
C820 N817 1.350 . S
C820 C819 1.434 . S
C821 C822 1.369 . S
C821 C823 1.419 . S
C821 H825 0.930 . S
C822 C821 1.369 . S
C822 C831 1.429 . S
C823 C821 1.419 . S
C823 C824 1.363 . S
C823 H826 0.929 . S
C824 C823 1.363 . S
C824 C830 1.428 . S
H825 C821 0.930 . S
H826 C823 0.929 . S
S827 N828 1.613 . S
S827 N829 1.610 . S
N828 S827 1.613 . S
N828 C831 1.350 . S
N829 S827 1.610 . S
N829 C830 1.351 . S
C830 C824 1.428 . S
C830 N829 1.351 . S
C830 C831 1.434 . S
C831 C822 1.429 . S
C831 N828 1.350 . S
C831 C830 1.434 . S
C832 C833 1.380 . S
C832 C834 1.425 . S
C832 H836 0.912 1_554 S
C833 C832 1.380 . S
C833 C842 1.429 . S
C834 C832 1.425 . S
C834 C835 1.363 . S
C834 H837 0.929 1_554 S
C835 C834 1.363 . S
C835 C841 1.428 . S
H836 C832 0.912 1_556 S
H837 C834 0.929 1_556 S
S838 N839 1.613 1_545 S
S838 N840 1.610 . S
N839 S838 1.613 1_565 S
N839 C842 1.350 . S
N840 S838 1.610 . S
N840 C841 1.351 1_545 S
C841 C835 1.428 . S
C841 N840 1.351 1_565 S
C841 C842 1.434 . S
C842 C833 1.429 . S
C842 N839 1.350 . S
C842 C841 1.434 . S
C843 C844 1.369 1_556 S
C843 C845 1.419 . S
C843 H847 0.930 . S
C844 C843 1.369 1_554 S
C844 C853 1.429 . S
C845 C843 1.419 . S
C845 C846 1.363 1_556 S
C845 H848 0.929 . S
C846 C845 1.363 1_554 S
C846 C852 1.428 . S
H847 C843 0.930 . S
H848 C845 0.929 . S
S849 N850 1.613 . S
S849 N851 1.610 . S
N850 S849 1.613 . S
N850 C853 1.350 . S
N851 S849 1.610 . S
N851 C852 1.351 . S
C852 C846 1.428 . S
C852 N851 1.351 . S
C852 C853 1.434 . S
C853 C844 1.429 . S
C853 N850 1.350 . S
C853 C852 1.434 . S
C854 C855 1.369 . S
C854 C856 1.419 . S
C854 H858 0.930 . S
C855 C854 1.369 . S
C855 C864 1.429 . S
C856 C854 1.419 . S
C856 C857 1.363 . S
C856 H859 0.929 . S
C857 C856 1.363 . S
C857 C863 1.428 . S
H858 C854 0.930 . S
H859 C856 0.929 . S
S860 N861 1.613 . S
S860 N862 1.610 . S
N861 S860 1.613 . S
N861 C864 1.350 . S
N862 S860 1.610 . S
N862 C863 1.351 . S
C863 C857 1.428 . S
C863 N862 1.351 . S
C863 C864 1.434 . S
C864 C855 1.429 . S
C864 N861 1.350 . S
C864 C863 1.434 . S
C865 C866 1.369 . S
C865 C867 1.419 . S
C865 H869 0.930 . S
C866 C865 1.369 . S
C866 C875 1.429 . S
C867 C865 1.419 . S
C867 C868 1.363 . S
C867 H870 0.929 . S
C868 C867 1.363 . S
C868 C874 1.428 . S
H869 C865 0.930 . S
H870 C867 0.929 . S
S871 N872 1.613 . S
S871 N873 1.610 . S
N872 S871 1.613 . S
N872 C875 1.350 . S
N873 S871 1.610 . S
N873 C874 1.351 . S
C874 C868 1.428 . S
C874 N873 1.351 . S
C874 C875 1.434 . S
C875 C866 1.429 . S
C875 N872 1.350 . S
C875 C874 1.434 . S
C876 C877 1.369 . S
C876 C878 1.419 . S
C876 H880 0.930 . S
C877 C876 1.369 . S
C877 C886 1.429 . S
C878 C876 1.419 . S
C878 C879 1.363 . S
C878 H881 0.929 . S
C879 C878 1.363 . S
C879 C885 1.428 . S
H880 C876 0.930 . S
H881 C878 0.929 . S
S882 N883 1.613 . S
S882 N884 1.610 . S
N883 S882 1.613 . S
N883 C886 1.350 . S
N884 S882 1.610 . S
N884 C885 1.351 . S
C885 C879 1.428 . S
C885 N884 1.351 . S
C885 C886 1.434 . S
C886 C877 1.429 . S
C886 N883 1.350 . S
C886 C885 1.434 . S
C887 C888 1.369 . S
C887 C889 1.419 . S
C887 H891 0.930 . S
C888 C887 1.369 . S
C888 C897 1.429 . S
C889 C887 1.419 . S
C889 C890 1.363 . S
C889 H892 0.929 . S
C890 C889 1.363 . S
C890 C896 1.428 . S
H891 C887 0.930 . S
H892 C889 0.929 . S
S893 N894 1.613 . S
S893 N895 1.610 . S
N894 S893 1.613 . S
N894 C897 1.350 . S
N895 S893 1.610 . S
N895 C896 1.351 . S
C896 C890 1.428 . S
C896 N895 1.351 . S
C896 C897 1.434 . S
C897 C888 1.429 . S
C897 N894 1.350 . S
C897 C896 1.434 . S
C898 C899 1.369 . S
C898 C900 1.419 . S
C898 H902 0.930 . S
C899 C898 1.369 . S
C899 C908 1.429 . S
C900 C898 1.419 . S
C900 C901 1.363 . S
C900 H903 0.929 . S
C901 C900 1.363 . S
C901 C907 1.428 . S
H902 C898 0.930 . S
H903 C900 0.929 . S
S904 N905 1.613 . S
S904 N906 1.610 . S
N905 S904 1.613 . S
N905 C908 1.350 . S
N906 S904 1.610 . S
N906 C907 1.351 . S
C907 C901 1.428 . S
C907 N906 1.351 . S
C907 C908 1.434 . S
C908 C899 1.429 . S
C908 N905 1.350 . S
C908 C907 1.434 . S
C909 C910 1.369 . S
C909 C911 1.419 . S
C909 H913 0.930 . S
C910 C909 1.369 . S
C910 C919 1.429 . S
C911 C909 1.419 . S
C911 C912 1.363 . S
C911 H914 0.929 . S
C912 C911 1.363 . S
C912 C918 1.428 . S
H913 C909 0.930 . S
H914 C911 0.929 . S
S915 N916 1.613 . S
S915 N917 1.610 . S
N916 S915 1.613 . S
N916 C919 1.350 . S
N917 S915 1.610 . S
N917 C918 1.351 . S
C918 C912 1.428 . S
C918 N917 1.351 . S
C918 C919 1.434 . S
C919 C910 1.429 . S
C919 N916 1.350 . S
C919 C918 1.434 . S
C920 C921 1.369 . S
C920 C922 1.419 . S
C920 H924 0.930 . S
C921 C920 1.369 . S
C921 C930 1.429 . S
C922 C920 1.419 . S
C922 C923 1.363 . S
C922 H925 0.929 . S
C923 C922 1.363 . S
C923 C929 1.428 1_455 S
H924 C920 0.930 . S
H925 C922 0.929 . S
S926 N927 1.613 . S
S926 N928 1.610 . S
N927 S926 1.613 . S
N927 C930 1.350 1_655 S
N928 S926 1.610 . S
N928 C929 1.351 . S
C929 C923 1.428 1_655 S
C929 N928 1.351 . S
C929 C930 1.434 1_655 S
C930 C921 1.429 . S
C930 N927 1.350 1_455 S
C930 C929 1.434 1_455 S
C931 C932 1.369 . S
C931 C933 1.419 . S
C931 H935 0.930 . S
C932 C931 1.369 . S
C932 C941 1.429 . S
C933 C931 1.419 . S
C933 C934 1.363 . S
C933 H936 0.929 . S
C934 C933 1.363 . S
C934 C940 1.428 . S
H935 C931 0.930 . S
H936 C933 0.929 . S
S937 N938 1.613 . S
S937 N939 1.610 . S
N938 S937 1.613 . S
N938 C941 1.350 . S
N939 S937 1.610 . S
N939 C940 1.351 . S
C940 C934 1.428 . S
C940 N939 1.351 . S
C940 C941 1.434 . S
C941 C932 1.429 . S
C941 N938 1.350 . S
C941 C940 1.434 . S
C942 C943 1.369 . S
C942 C944 1.419 . S
C942 H946 0.930 . S
C943 C942 1.369 . S
C943 C952 1.429 . S
C944 C942 1.419 . S
C944 C945 1.363 . S
C944 H947 0.929 . S
C945 C944 1.363 . S
C945 C951 1.428 . S
H946 C942 0.930 . S
H947 C944 0.929 . S
S948 N949 1.613 . S
S948 N950 1.610 . S
N949 S948 1.613 . S
N949 C952 1.350 . S
N950 S948 1.610 . S
N950 C951 1.351 . S
C951 C945 1.428 . S
C951 N950 1.351 . S
C951 C952 1.434 . S
C952 C943 1.429 . S
C952 N949 1.350 . S
C952 C951 1.434 . S
C953 C954 1.369 . S
C953 C955 1.419 . S
C953 H957 0.930 . S
C954 C953 1.369 . S
C954 C963 1.429 . S
C955 C953 1.419 . S
C955 C956 1.363 . S
C955 H958 0.929 . S
C956 C955 1.363 . S
C956 C962 1.428 . S
H957 C953 0.930 . S
H958 C955 0.929 . S
S959 N960 1.613 . S
S959 N961 1.610 . S
N960 S959 1.613 . S
N960 C963 1.350 . S
N961 S959 1.610 . S
N961 C962 1.351 . S
C962 C956 1.428 . S
C962 N961 1.351 . S
C962 C963 1.434 . S
C963 C954 1.429 . S
C963 N960 1.350 . S
C963 C962 1.434 . S
C964 C965 1.369 . S
C964 C966 1.419 . S
C964 H968 0.930 . S
C965 C964 1.369 . S
C965 C974 1.429 . S
C966 C964 1.419 . S
C966 C967 1.365 . S
C966 H969 0.929 . S
C967 C966 1.365 . S
C967 C973 1.427 1_455 S
H968 C964 0.930 . S
H969 C966 0.929 . S
S970 N971 1.613 . S
S970 N972 1.610 . S
N971 S970 1.613 . S
N971 C974 1.350 1_655 S
N972 S970 1.610 . S
N972 C973 1.351 . S
C973 C967 1.427 1_655 S
C973 N972 1.351 . S
C973 C974 1.434 1_655 S
C974 C965 1.429 . S
C974 N971 1.350 1_455 S
C974 C973 1.434 1_455 S
C975 C976 1.369 . S
C975 C977 1.419 . S
C975 H979 0.930 . S
C976 C975 1.369 . S
C976 C985 1.429 . S
C977 C975 1.419 . S
C977 C978 1.363 . S
C977 H980 0.929 . S
C978 C977 1.363 . S
C978 C984 1.428 . S
H979 C975 0.930 . S
H980 C977 0.929 . S
S981 N982 1.613 . S
S981 N983 1.610 . S
N982 S981 1.613 . S
N982 C985 1.350 . S
N983 S981 1.610 . S
N983 C984 1.351 . S
C984 C978 1.428 . S
C984 N983 1.351 . S
C984 C985 1.434 . S
C985 C976 1.429 . S
C985 N982 1.350 . S
C985 C984 1.434 . S
C986 C987 1.369 . S
C986 C988 1.419 . S
C986 H990 0.930 . S
C987 C986 1.369 . S
C987 C996 1.429 . S
C988 C986 1.419 . S
C988 C989 1.363 . S
C988 H991 0.929 1_556 S
C989 C988 1.363 . S
C989 C995 1.428 . S
H990 C986 0.930 . S
H991 C988 0.929 1_554 S
S992 N993 1.613 . S
S992 N994 1.610 . S
N993 S992 1.613 . S
N993 C996 1.350 . S
N994 S992 1.610 . S
N994 C995 1.351 . S
C995 C989 1.428 . S
C995 N994 1.351 . S
C995 C996 1.434 . S
C996 C987 1.429 . S
C996 N993 1.350 . S
C996 C995 1.434 . S
C997 C998 1.369 . S
C997 C999 1.419 . S
C997 H1001 0.930 . S
C998 C997 1.369 . S
C998 C1007 1.429 . S
C999 C997 1.419 . S
C999 C1000 1.363 . S
C999 H1002 0.929 . S
C1000 C999 1.363 . S
C1000 C1006 1.428 . S
H1001 C997 0.930 . S
H1002 C999 0.929 . S
S1003 N1004 1.613 . S
S1003 N1005 1.610 . S
N1004 S1003 1.613 . S
N1004 C1007 1.350 . S
N1005 S1003 1.610 . S
N1005 C1006 1.351 . S
C1006 C1000 1.428 . S
C1006 N1005 1.351 . S
C1006 C1007 1.434 . S
C1007 C998 1.429 . S
C1007 N1004 1.350 . S
C1007 C1006 1.434 . S
C1008 C1009 1.369 . S
C1008 C1010 1.419 . S
C1008 H1012 0.930 . S
C1009 C1008 1.369 . S
C1009 C1018 1.429 1_545 S
C1010 C1008 1.419 . S
C1010 C1011 1.363 1_545 S
C1010 H1013 0.929 . S
C1011 C1010 1.363 1_565 S
C1011 C1017 1.428 . S
H1012 C1008 0.930 . S
H1013 C1010 0.929 . S
S1014 N1015 1.613 . S
S1014 N1016 1.610 . S
N1015 S1014 1.613 . S
N1015 C1018 1.350 . S
N1016 S1014 1.610 . S
N1016 C1017 1.351 . S
C1017 C1011 1.428 . S
C1017 N1016 1.351 . S
C1017 C1018 1.434 . S
C1018 C1009 1.429 1_565 S
C1018 N1015 1.350 . S
C1018 C1017 1.434 . S
C1019 C1020 1.369 . S
C1019 C1021 1.419 . S
C1019 H1023 0.930 . S
C1020 C1019 1.369 . S
C1020 C1029 1.429 . S
C1021 C1019 1.419 . S
C1021 C1022 1.363 . S
C1021 H1024 0.929 . S
C1022 C1021 1.363 . S
C1022 C1028 1.428 . S
H1023 C1019 0.930 . S
H1024 C1021 0.929 . S
S1025 N1026 1.613 . S
S1025 N1027 1.610 . S
N1026 S1025 1.613 . S
N1026 C1029 1.350 . S
N1027 S1025 1.610 . S
N1027 C1028 1.351 . S
C1028 C1022 1.428 . S
C1028 N1027 1.351 . S
C1028 C1029 1.434 . S
C1029 C1020 1.429 . S
C1029 N1026 1.350 . S
C1029 C1028 1.434 . S
C1030 C1031 1.369 1_565 S
C1030 C1032 1.416 . S
C1030 H1034 0.930 . S
C1031 C1030 1.369 1_545 S
C1031 C1040 1.429 . S
C1032 C1030 1.416 . S
C1032 C1033 1.349 1_565 S
C1032 H1035 0.947 . S
C1033 C1032 1.349 1_545 S
C1033 C1039 1.428 . S
H1034 C1030 0.930 . S
H1035 C1032 0.947 . S
S1036 N1037 1.613 . S
S1036 N1038 1.610 . S
N1037 S1036 1.613 . S
N1037 C1040 1.350 . S
N1038 S1036 1.610 . S
N1038 C1039 1.351 . S
C1039 C1033 1.428 . S
C1039 N1038 1.351 . S
C1039 C1040 1.434 . S
C1040 C1031 1.429 . S
C1040 N1037 1.350 . S
C1040 C1039 1.434 . S
C1041 C1042 1.369 . S
C1041 C1043 1.419 . S
C1041 H1045 0.930 . S
C1042 C1041 1.369 . S
C1042 C1051 1.429 . S
C1043 C1041 1.419 . S
C1043 C1044 1.363 . S
C1043 H1046 0.929 . S
C1044 C1043 1.363 . S
C1044 C1050 1.428 . S
H1045 C1041 0.930 . S
H1046 C1043 0.929 . S
S1047 N1048 1.613 . S
S1047 N1049 1.610 . S
N1048 S1047 1.613 . S
N1048 C1051 1.350 . S
N1049 S1047 1.610 . S
N1049 C1050 1.351 . S
C1050 C1044 1.428 . S
C1050 N1049 1.351 . S
C1050 C1051 1.434 . S
C1051 C1042 1.429 . S
C1051 N1048 1.350 . S
C1051 C1050 1.434 . S
C1052 C1053 1.369 . S
C1052 C1054 1.408 1_565 S
C1052 H1056 0.930 . S
C1053 C1052 1.369 . S
C1053 C1062 1.429 1_565 S
C1054 C1052 1.408 1_545 S
C1054 C1055 1.376 . S
C1054 H1057 0.926 1_545 S
C1055 C1054 1.376 . S
C1055 C1061 1.428 . S
H1056 C1052 0.930 . S
H1057 C1054 0.926 1_565 S
S1058 N1059 1.613 . S
S1058 N1060 1.610 . S
N1059 S1058 1.613 . S
N1059 C1062 1.350 . S
N1060 S1058 1.610 . S
N1060 C1061 1.351 . S
C1061 C1055 1.428 . S
C1061 N1060 1.351 . S
C1061 C1062 1.434 . S
C1062 C1053 1.429 1_545 S
C1062 N1059 1.350 . S
C1062 C1061 1.434 . S
C1063 C1064 1.369 . S
C1063 C1065 1.419 . S
C1063 H1067 0.930 . S
C1064 C1063 1.369 . S
C1064 C1073 1.429 . S
C1065 C1063 1.419 . S
C1065 C1066 1.363 . S
C1065 H1068 0.929 . S
C1066 C1065 1.363 . S
C1066 C1072 1.428 . S
H1067 C1063 0.930 . S
H1068 C1065 0.929 . S
S1069 N1070 1.613 . S
S1069 N1071 1.610 . S
N1070 S1069 1.613 . S
N1070 C1073 1.350 . S
N1071 S1069 1.610 . S
N1071 C1072 1.351 . S
C1072 C1066 1.428 . S
C1072 N1071 1.351 . S
C1072 C1073 1.434 . S
C1073 C1064 1.429 . S
C1073 N1070 1.350 . S
C1073 C1072 1.434 . S
C1074 C1075 1.369 1_565 S
C1074 C1076 1.419 . S
C1074 H1078 0.930 . S
C1075 C1074 1.369 1_545 S
C1075 C1084 1.429 . S
C1076 C1074 1.419 . S
C1076 C1077 1.363 . S
C1076 H1079 0.929 . S
C1077 C1076 1.363 . S
C1077 C1083 1.428 1_565 S
H1078 C1074 0.930 . S
H1079 C1076 0.929 . S
S1080 N1081 1.613 . S
S1080 N1082 1.610 . S
N1081 S1080 1.613 . S
N1081 C1084 1.350 . S
N1082 S1080 1.610 . S
N1082 C1083 1.351 . S
C1083 C1077 1.428 1_545 S
C1083 N1082 1.351 . S
C1083 C1084 1.434 . S
C1084 C1075 1.429 . S
C1084 N1081 1.350 . S
C1084 C1083 1.434 . S
C1085 C1086 1.369 . S
C1085 C1087 1.419 . S
C1085 H1089 0.930 . S
C1086 C1085 1.369 . S
C1086 C1095 1.429 . S
C1087 C1085 1.419 . S
C1087 C1088 1.363 . S
C1087 H1090 0.929 . S
C1088 C1087 1.363 . S
C1088 C1094 1.428 . S
H1089 C1085 0.930 . S
H1090 C1087 0.929 . S
S1091 N1092 1.613 . S
S1091 N1093 1.610 . S
N1092 S1091 1.613 . S
N1092 C1095 1.350 . S
N1093 S1091 1.610 . S
N1093 C1094 1.351 . S
C1094 C1088 1.428 . S
C1094 N1093 1.351 . S
C1094 C1095 1.434 . S
C1095 C1086 1.429 . S
C1095 N1092 1.350 . S
C1095 C1094 1.434 . S
C1096 C1097 1.364 1_554 S
C1096 C1098 1.419 . S
C1096 H1100 0.930 . S
C1097 C1096 1.364 1_556 S
C1097 C1106 1.439 . S
C1098 C1096 1.419 . S
C1098 C1099 1.363 1_554 S
C1098 H1101 0.929 . S
C1099 C1098 1.363 1_556 S
C1099 C1105 1.428 . S
H1100 C1096 0.930 . S
H1101 C1098 0.929 . S
S1102 N1103 1.613 . S
S1102 N1104 1.610 . S
N1103 S1102 1.613 . S
N1103 C1106 1.350 . S
N1104 S1102 1.610 . S
N1104 C1105 1.351 . S
C1105 C1099 1.428 . S
C1105 N1104 1.351 . S
C1105 C1106 1.434 . S
C1106 C1097 1.439 . S
C1106 N1103 1.350 . S
C1106 C1105 1.434 . S
C1107 C1108 1.369 . S
C1107 C1109 1.419 . S
C1107 H1111 0.930 . S
C1108 C1107 1.369 . S
C1108 C1117 1.429 . S
C1109 C1107 1.419 . S
C1109 C1110 1.363 . S
C1109 H1112 0.929 . S
C1110 C1109 1.363 . S
C1110 C1116 1.428 . S
H1111 C1107 0.930 . S
H1112 C1109 0.929 . S
S1113 N1114 1.613 . S
S1113 N1115 1.610 . S
N1114 S1113 1.613 . S
N1114 C1117 1.350 . S
N1115 S1113 1.610 . S
N1115 C1116 1.351 . S
C1116 C1110 1.428 . S
C1116 N1115 1.351 . S
C1116 C1117 1.434 . S
C1117 C1108 1.429 . S
C1117 N1114 1.350 . S
C1117 C1116 1.434 . S
C1118 C1119 1.369 . S
C1118 C1120 1.419 . S
C1118 H1122 0.930 . S
C1119 C1118 1.369 . S
C1119 C1128 1.429 . S
C1120 C1118 1.419 . S
C1120 C1121 1.363 . S
C1120 H1123 0.929 . S
C1121 C1120 1.363 . S
C1121 C1127 1.428 . S
H1122 C1118 0.930 . S
H1123 C1120 0.929 . S
S1124 N1125 1.613 . S
S1124 N1126 1.610 . S
N1125 S1124 1.613 . S
N1125 C1128 1.350 . S
N1126 S1124 1.610 . S
N1126 C1127 1.351 . S
C1127 C1121 1.428 . S
C1127 N1126 1.351 . S
C1127 C1128 1.434 . S
C1128 C1119 1.429 . S
C1128 N1125 1.350 . S
C1128 C1127 1.434 . S
C1129 C1130 1.369 . S
C1129 C1131 1.419 . S
C1129 H1133 0.930 . S
C1130 C1129 1.369 . S
C1130 C1139 1.429 . S
C1131 C1129 1.419 . S
C1131 C1132 1.363 . S
C1131 H1134 0.929 . S
C1132 C1131 1.363 . S
C1132 C1138 1.428 . S
H1133 C1129 0.930 . S
H1134 C1131 0.929 . S
S1135 N1136 1.613 . S
S1135 N1137 1.610 . S
N1136 S1135 1.613 . S
N1136 C1139 1.350 . S
N1137 S1135 1.610 . S
N1137 C1138 1.351 . S
C1138 C1132 1.428 . S
C1138 N1137 1.351 . S
C1138 C1139 1.434 . S
C1139 C1130 1.429 . S
C1139 N1136 1.350 . S
C1139 C1138 1.434 . S
C1140 C1141 1.369 . S
C1140 C1142 1.419 . S
C1140 H1144 0.930 . S
C1141 C1140 1.369 . S
C1141 C1150 1.429 . S
C1142 C1140 1.419 . S
C1142 C1143 1.363 . S
C1142 H1145 0.929 . S
C1143 C1142 1.363 . S
C1143 C1149 1.428 . S
H1144 C1140 0.930 . S
H1145 C1142 0.929 . S
S1146 N1147 1.613 . S
S1146 N1148 1.610 . S
N1147 S1146 1.613 . S
N1147 C1150 1.350 . S
N1148 S1146 1.610 . S
N1148 C1149 1.351 . S
C1149 C1143 1.428 . S
C1149 N1148 1.351 . S
C1149 C1150 1.434 . S
C1150 C1141 1.429 . S
C1150 N1147 1.350 . S
C1150 C1149 1.434 . S
C1151 C1152 1.369 . S
C1151 C1153 1.419 . S
C1151 H1155 0.930 . S
C1152 C1151 1.369 . S
C1152 C1161 1.429 . S
C1153 C1151 1.419 . S
C1153 C1154 1.363 . S
C1153 H1156 0.929 . S
C1154 C1153 1.363 . S
C1154 C1160 1.428 . S
H1155 C1151 0.930 . S
H1156 C1153 0.929 . S
S1157 N1158 1.613 . S
S1157 N1159 1.610 . S
N1158 S1157 1.613 . S
N1158 C1161 1.350 . S
N1159 S1157 1.610 . S
N1159 C1160 1.351 . S
C1160 C1154 1.428 . S
C1160 N1159 1.351 . S
C1160 C1161 1.434 . S
C1161 C1152 1.429 . S
C1161 N1158 1.350 . S
C1161 C1160 1.434 . S
C1162 C1163 1.369 . S
C1162 C1164 1.419 . S
C1162 H1166 0.930 . S
C1163 C1162 1.369 . S
C1163 C1172 1.429 . S
C1164 C1162 1.419 . S
C1164 C1165 1.363 . S
C1164 H1167 0.929 . S
C1165 C1164 1.363 . S
C1165 C1171 1.428 . S
H1166 C1162 0.930 . S
H1167 C1164 0.929 . S
S1168 N1169 1.613 . S
S1168 N1170 1.610 . S
N1169 S1168 1.613 . S
N1169 C1172 1.350 . S
N1170 S1168 1.610 . S
N1170 C1171 1.351 . S
C1171 C1165 1.428 . S
C1171 N1170 1.351 . S
C1171 C1172 1.434 . S
C1172 C1163 1.429 . S
C1172 N1169 1.350 . S
C1172 C1171 1.434 . S
C1173 C1174 1.369 . S
C1173 C1175 1.419 . S
C1173 H1177 0.930 . S
C1174 C1173 1.369 . S
C1174 C1183 1.429 . S
C1175 C1173 1.419 . S
C1175 C1176 1.363 . S
C1175 H1178 0.929 . S
C1176 C1175 1.363 . S
C1176 C1182 1.428 . S
H1177 C1173 0.930 . S
H1178 C1175 0.929 . S
S1179 N1180 1.613 . S
S1179 N1181 1.610 . S
N1180 S1179 1.613 . S
N1180 C1183 1.350 . S
N1181 S1179 1.610 . S
N1181 C1182 1.351 . S
C1182 C1176 1.428 . S
C1182 N1181 1.351 . S
C1182 C1183 1.434 . S
C1183 C1174 1.429 . S
C1183 N1180 1.350 . S
C1183 C1182 1.434 . S
C1184 C1185 1.369 . S
C1184 C1186 1.419 . S
C1184 H1188 0.930 . S
C1185 C1184 1.369 . S
C1185 C1194 1.429 . S
C1186 C1184 1.419 . S
C1186 C1187 1.363 . S
C1186 H1189 0.929 . S
C1187 C1186 1.363 . S
C1187 C1193 1.428 . S
H1188 C1184 0.930 . S
H1189 C1186 0.929 . S
S1190 N1191 1.613 . S
S1190 N1192 1.610 . S
N1191 S1190 1.613 . S
N1191 C1194 1.350 . S
N1192 S1190 1.610 . S
N1192 C1193 1.351 . S
C1193 C1187 1.428 . S
C1193 N1192 1.351 . S
C1193 C1194 1.434 . S
C1194 C1185 1.429 . S
C1194 N1191 1.350 . S
C1194 C1193 1.434 . S
C1195 C1196 1.369 . S
C1195 C1197 1.419 . S
C1195 H1199 0.930 . S
C1196 C1195 1.369 . S
C1196 C1205 1.429 . S
C1197 C1195 1.419 . S
C1197 C1198 1.363 . S
C1197 H1200 0.929 . S
C1198 C1197 1.363 . S
C1198 C1204 1.428 . S
H1199 C1195 0.930 . S
H1200 C1197 0.929 . S
S1201 N1202 1.613 . S
S1201 N1203 1.610 . S
N1202 S1201 1.613 . S
N1202 C1205 1.350 . S
N1203 S1201 1.610 . S
N1203 C1204 1.351 . S
C1204 C1198 1.428 . S
C1204 N1203 1.351 . S
C1204 C1205 1.434 . S
C1205 C1196 1.429 . S
C1205 N1202 1.350 . S
C1205 C1204 1.434 . S
C1206 C1207 1.369 1_655 S
C1206 C1208 1.419 . S
C1206 H1210 0.930 . S
C1207 C1206 1.369 1_455 S
C1207 C1216 1.429 . S
C1208 C1206 1.419 . S
C1208 C1209 1.363 1_655 S
C1208 H1211 0.929 . S
C1209 C1208 1.363 1_455 S
C1209 C1215 1.428 . S
H1210 C1206 0.930 . S
H1211 C1208 0.929 . S
S1212 N1213 1.613 1_554 S
S1212 N1214 1.610 . S
N1213 S1212 1.613 1_556 S
N1213 C1216 1.350 . S
N1214 S1212 1.610 . S
N1214 C1215 1.351 1_554 S
C1215 C1209 1.428 . S
C1215 N1214 1.351 1_556 S
C1215 C1216 1.434 . S
C1216 C1207 1.429 . S
C1216 N1213 1.350 . S
C1216 C1215 1.434 . S
C1217 C1218 1.369 . S
C1217 C1219 1.419 . S
C1217 H1221 0.930 . S
C1218 C1217 1.369 . S
C1218 C1227 1.429 . S
C1219 C1217 1.419 . S
C1219 C1220 1.363 . S
C1219 H1222 0.929 . S
C1220 C1219 1.363 . S
C1220 C1226 1.428 . S
H1221 C1217 0.930 . S
H1222 C1219 0.929 . S
S1223 N1224 1.613 . S
S1223 N1225 1.610 . S
N1224 S1223 1.613 . S
N1224 C1227 1.350 . S
N1225 S1223 1.610 . S
N1225 C1226 1.351 . S
C1226 C1220 1.428 . S
C1226 N1225 1.351 . S
C1226 C1227 1.434 . S
C1227 C1218 1.429 . S
C1227 N1224 1.350 . S
C1227 C1226 1.434 . S
C1228 C1229 1.369 . S
C1228 C1230 1.419 . S
C1228 H1232 0.930 . S
C1229 C1228 1.369 . S
C1229 C1238 1.429 . S
C1230 C1228 1.419 . S
C1230 C1231 1.363 . S
C1230 H1233 0.929 . S
C1231 C1230 1.363 . S
C1231 C1237 1.428 . S
H1232 C1228 0.930 . S
H1233 C1230 0.929 . S
S1234 N1235 1.613 1_556 S
S1234 N1236 1.610 . S
N1235 S1234 1.613 1_554 S
N1235 C1238 1.350 . S
N1236 S1234 1.610 . S
N1236 C1237 1.351 1_556 S
C1237 C1231 1.428 . S
C1237 N1236 1.351 1_554 S
C1237 C1238 1.434 . S
C1238 C1229 1.429 . S
C1238 N1235 1.350 . S
C1238 C1237 1.434 . S
C1239 C1240 1.369 . S
C1239 C1241 1.419 . S
C1239 H1243 0.930 . S
C1240 C1239 1.369 . S
C1240 C1249 1.429 . S
C1241 C1239 1.419 . S
C1241 C1242 1.363 . S
C1241 H1244 0.929 . S
C1242 C1241 1.363 . S
C1242 C1248 1.428 . S
H1243 C1239 0.930 . S
H1244 C1241 0.929 . S
S1245 N1246 1.613 . S
S1245 N1247 1.610 . S
N1246 S1245 1.613 . S
N1246 C1249 1.350 . S
N1247 S1245 1.610 . S
N1247 C1248 1.351 . S
C1248 C1242 1.428 . S
C1248 N1247 1.351 . S
C1248 C1249 1.434 . S
C1249 C1240 1.429 . S
C1249 N1246 1.350 . S
C1249 C1248 1.434 . S
C1250 C1251 1.368 1_655 S
C1250 C1252 1.419 . S
C1250 H1254 0.930 . S
C1251 C1250 1.368 1_455 S
C1251 C1260 1.431 . S
C1252 C1250 1.419 . S
C1252 C1253 1.363 1_655 S
C1252 H1255 0.929 . S
C1253 C1252 1.363 1_455 S
C1253 C1259 1.428 . S
H1254 C1250 0.930 . S
H1255 C1252 0.929 . S
S1256 N1257 1.613 . S
S1256 N1258 1.610 . S
N1257 S1256 1.613 . S
N1257 C1260 1.350 . S
N1258 S1256 1.610 . S
N1258 C1259 1.351 . S
C1259 C1253 1.428 . S
C1259 N1258 1.351 . S
C1259 C1260 1.434 . S
C1260 C1251 1.431 . S
C1260 N1257 1.350 . S
C1260 C1259 1.434 . S
C1261 C1262 1.369 . S
C1261 C1263 1.419 . S
C1261 H1265 0.930 . S
C1262 C1261 1.369 . S
C1262 C1271 1.429 . S
C1263 C1261 1.419 . S
C1263 C1264 1.363 . S
C1263 H1266 0.929 . S
C1264 C1263 1.363 . S
C1264 C1270 1.428 . S
H1265 C1261 0.930 . S
H1266 C1263 0.929 . S
S1267 N1268 1.613 . S
S1267 N1269 1.610 . S
N1268 S1267 1.613 . S
N1268 C1271 1.350 . S
N1269 S1267 1.610 . S
N1269 C1270 1.351 . S
C1270 C1264 1.428 . S
C1270 N1269 1.351 . S
C1270 C1271 1.434 . S
C1271 C1262 1.429 . S
C1271 N1268 1.350 . S
C1271 C1270 1.434 . S
C1272 C1273 1.369 . S
C1272 C1274 1.419 . S
C1272 H1276 0.930 . S
C1273 C1272 1.369 . S
C1273 C1282 1.429 . S
C1274 C1272 1.419 . S
C1274 C1275 1.363 . S
C1274 H1277 0.929 . S
C1275 C1274 1.363 . S
C1275 C1281 1.428 . S
H1276 C1272 0.930 . S
H1277 C1274 0.929 . S
S1278 N1279 1.613 . S
S1278 N1280 1.610 . S
N1279 S1278 1.613 . S
N1279 C1282 1.350 . S
N1280 S1278 1.610 . S
N1280 C1281 1.351 . S
C1281 C1275 1.428 . S
C1281 N1280 1.351 . S
C1281 C1282 1.434 . S
C1282 C1273 1.429 . S
C1282 N1279 1.350 . S
C1282 C1281 1.434 . S
C1283 C1284 1.369 . S
C1283 C1285 1.419 . S
C1283 H1287 0.930 . S
C1284 C1283 1.369 . S
C1284 C1293 1.429 . S
C1285 C1283 1.419 . S
C1285 C1286 1.363 . S
C1285 H1288 0.929 . S
C1286 C1285 1.363 . S
C1286 C1292 1.428 . S
H1287 C1283 0.930 . S
H1288 C1285 0.929 . S
S1289 N1290 1.613 . S
S1289 N1291 1.610 . S
N1290 S1289 1.613 . S
N1290 C1293 1.350 . S
N1291 S1289 1.610 . S
N1291 C1292 1.351 . S
C1292 C1286 1.428 . S
C1292 N1291 1.351 . S
C1292 C1293 1.434 . S
C1293 C1284 1.429 . S
C1293 N1290 1.350 . S
C1293 C1292 1.434 . S
C1294 C1295 1.369 . S
C1294 C1296 1.419 . S
C1294 H1298 0.930 . S
C1295 C1294 1.369 . S
C1295 C1304 1.429 . S
C1296 C1294 1.419 . S
C1296 C1297 1.363 . S
C1296 H1299 0.929 . S
C1297 C1296 1.363 . S
C1297 C1303 1.428 . S
H1298 C1294 0.930 . S
H1299 C1296 0.929 . S
S1300 N1301 1.613 . S
S1300 N1302 1.610 . S
N1301 S1300 1.613 . S
N1301 C1304 1.350 . S
N1302 S1300 1.610 . S
N1302 C1303 1.351 . S
C1303 C1297 1.428 . S
C1303 N1302 1.351 . S
C1303 C1304 1.434 . S
C1304 C1295 1.429 . S
C1304 N1301 1.350 . S
C1304 C1303 1.434 . S
C1305 C1306 1.369 . S
C1305 C1307 1.419 . S
C1305 H1309 0.930 . S
C1306 C1305 1.369 . S
C1306 C1315 1.429 . S
C1307 C1305 1.419 . S
C1307 C1308 1.363 . S
C1307 H1310 0.929 . S
C1308 C1307 1.363 . S
C1308 C1314 1.428 . S
H1309 C1305 0.930 . S
H1310 C1307 0.929 . S
S1311 N1312 1.613 . S
S1311 N1313 1.610 . S
N1312 S1311 1.613 . S
N1312 C1315 1.350 . S
N1313 S1311 1.610 . S
N1313 C1314 1.351 . S
C1314 C1308 1.428 . S
C1314 N1313 1.351 . S
C1314 C1315 1.434 . S
C1315 C1306 1.429 . S
C1315 N1312 1.350 . S
C1315 C1314 1.434 . S
C1316 C1317 1.369 . S
C1316 C1318 1.419 . S
C1316 H1320 0.930 . S
C1317 C1316 1.369 . S
C1317 C1326 1.429 . S
C1318 C1316 1.419 . S
C1318 C1319 1.363 . S
C1318 H1321 0.929 . S
C1319 C1318 1.363 . S
C1319 C1325 1.428 . S
H1320 C1316 0.930 . S
H1321 C1318 0.929 . S
S1322 N1323 1.613 . S
S1322 N1324 1.610 . S
N1323 S1322 1.613 . S
N1323 C1326 1.350 . S
N1324 S1322 1.610 . S
N1324 C1325 1.351 . S
C1325 C1319 1.428 . S
C1325 N1324 1.351 . S
C1325 C1326 1.434 . S
C1326 C1317 1.429 . S
C1326 N1323 1.350 . S
C1326 C1325 1.434 . S
C1327 C1328 1.369 . S
C1327 C1329 1.419 . S
C1327 H1331 0.930 . S
C1328 C1327 1.369 . S
C1328 C1337 1.429 . S
C1329 C1327 1.419 . S
C1329 C1330 1.363 . S
C1329 H1332 0.929 . S
C1330 C1329 1.363 . S
C1330 C1336 1.428 . S
H1331 C1327 0.930 . S
H1332 C1329 0.929 . S
S1333 N1334 1.613 . S
S1333 N1335 1.610 . S
N1334 S1333 1.613 . S
N1334 C1337 1.350 . S
N1335 S1333 1.610 . S
N1335 C1336 1.351 . S
C1336 C1330 1.428 . S
C1336 N1335 1.351 . S
C1336 C1337 1.434 . S
C1337 C1328 1.429 . S
C1337 N1334 1.350 . S
C1337 C1336 1.434 . S
C1338 C1339 1.369 . S
C1338 C1340 1.419 . S
C1338 H1342 0.930 . S
C1339 C1338 1.369 . S
C1339 C1348 1.429 . S
C1340 C1338 1.419 . S
C1340 C1341 1.363 . S
C1340 H1343 0.929 . S
C1341 C1340 1.363 . S
C1341 C1347 1.428 . S
H1342 C1338 0.930 . S
H1343 C1340 0.929 . S
S1344 N1345 1.613 . S
S1344 N1346 1.610 . S
N1345 S1344 1.613 . S
N1345 C1348 1.350 . S
N1346 S1344 1.610 . S
N1346 C1347 1.351 . S
C1347 C1341 1.428 . S
C1347 N1346 1.351 . S
C1347 C1348 1.434 . S
C1348 C1339 1.429 . S
C1348 N1345 1.350 . S
C1348 C1347 1.434 . S
C1349 C1350 1.369 . S
C1349 C1351 1.419 . S
C1349 H1353 0.930 . S
C1350 C1349 1.369 . S
C1350 C1359 1.429 . S
C1351 C1349 1.419 . S
C1351 C1352 1.363 . S
C1351 H1354 0.929 . S
C1352 C1351 1.363 . S
C1352 C1358 1.428 . S
H1353 C1349 0.930 . S
H1354 C1351 0.929 . S
S1355 N1356 1.613 . S
S1355 N1357 1.610 . S
N1356 S1355 1.613 . S
N1356 C1359 1.350 . S
N1357 S1355 1.610 . S
N1357 C1358 1.351 . S
C1358 C1352 1.428 . S
C1358 N1357 1.351 . S
C1358 C1359 1.434 . S
C1359 C1350 1.429 . S
C1359 N1356 1.350 . S
C1359 C1358 1.434 . S
C1360 C1361 1.369 . S
C1360 C1362 1.419 . S
C1360 H1364 0.930 . S
C1361 C1360 1.369 . S
C1361 C1370 1.429 . S
C1362 C1360 1.419 . S
C1362 C1363 1.363 . S
C1362 H1365 0.929 . S
C1363 C1362 1.363 . S
C1363 C1369 1.428 . S
H1364 C1360 0.930 . S
H1365 C1362 0.929 . S
S1366 N1367 1.613 . S
S1366 N1368 1.610 . S
N1367 S1366 1.613 . S
N1367 C1370 1.350 . S
N1368 S1366 1.610 . S
N1368 C1369 1.351 . S
C1369 C1363 1.428 . S
C1369 N1368 1.351 . S
C1369 C1370 1.434 . S
C1370 C1361 1.429 . S
C1370 N1367 1.350 . S
C1370 C1369 1.434 . S
C1371 C1372 1.369 . S
C1371 C1373 1.419 . S
C1371 H1375 0.930 . S
C1372 C1371 1.369 . S
C1372 C1381 1.429 . S
C1373 C1371 1.419 . S
C1373 C1374 1.363 . S
C1373 H1376 0.929 . S
C1374 C1373 1.363 . S
C1374 C1380 1.428 . S
H1375 C1371 0.930 . S
H1376 C1373 0.929 . S
S1377 N1378 1.613 . S
S1377 N1379 1.610 . S
N1378 S1377 1.613 . S
N1378 C1381 1.350 . S
N1379 S1377 1.610 . S
N1379 C1380 1.351 . S
C1380 C1374 1.428 . S
C1380 N1379 1.351 . S
C1380 C1381 1.434 . S
C1381 C1372 1.429 . S
C1381 N1378 1.350 . S
C1381 C1380 1.434 . S
C1382 C1383 1.369 . S
C1382 C1384 1.419 . S
C1382 H1386 0.930 . S
C1383 C1382 1.369 . S
C1383 C1392 1.429 . S
C1384 C1382 1.419 . S
C1384 C1385 1.363 . S
C1384 H1387 0.929 . S
C1385 C1384 1.363 . S
C1385 C1391 1.428 . S
H1386 C1382 0.930 . S
H1387 C1384 0.929 . S
S1388 N1389 1.613 . S
S1388 N1390 1.610 . S
N1389 S1388 1.613 . S
N1389 C1392 1.350 . S
N1390 S1388 1.610 . S
N1390 C1391 1.351 . S
C1391 C1385 1.428 . S
C1391 N1390 1.351 . S
C1391 C1392 1.434 . S
C1392 C1383 1.429 . S
C1392 N1389 1.350 . S
C1392 C1391 1.434 . S
C1393 C1394 1.369 . S
C1393 C1395 1.419 . S
C1393 H1397 0.930 . S
C1394 C1393 1.369 . S
C1394 C1403 1.429 1_554 S
C1395 C1393 1.419 . S
C1395 C1396 1.363 . S
C1395 H1398 0.929 . S
C1396 C1395 1.363 . S
C1396 C1402 1.428 1_554 S
H1397 C1393 0.930 . S
H1398 C1395 0.929 . S
S1399 N1400 1.613 . S
S1399 N1401 1.610 . S
N1400 S1399 1.613 . S
N1400 C1403 1.350 . S
N1401 S1399 1.610 . S
N1401 C1402 1.351 . S
C1402 C1396 1.428 1_556 S
C1402 N1401 1.351 . S
C1402 C1403 1.434 . S
C1403 C1394 1.429 1_556 S
C1403 N1400 1.350 . S
C1403 C1402 1.434 . S
C1404 C1405 1.369 . S
C1404 C1406 1.419 . S
C1404 H1408 0.930 . S
C1405 C1404 1.369 . S
C1405 C1414 1.429 . S
C1406 C1404 1.419 . S
C1406 C1407 1.363 . S
C1406 H1409 0.929 . S
C1407 C1406 1.363 . S
C1407 C1413 1.428 . S
H1408 C1404 0.930 . S
H1409 C1406 0.929 . S
S1410 N1411 1.613 . S
S1410 N1412 1.610 . S
N1411 S1410 1.613 . S
N1411 C1414 1.350 . S
N1412 S1410 1.610 . S
N1412 C1413 1.351 . S
C1413 C1407 1.428 . S
C1413 N1412 1.351 . S
C1413 C1414 1.434 . S
C1414 C1405 1.429 . S
C1414 N1411 1.350 . S
C1414 C1413 1.434 . S
C1415 C1416 1.369 . S
C1415 C1417 1.419 . S
C1415 H1419 0.930 1_554 S
C1416 C1415 1.369 . S
C1416 C1425 1.429 . S
C1417 C1415 1.419 . S
C1417 C1418 1.363 . S
C1417 H1420 0.929 . S
C1418 C1417 1.363 . S
C1418 C1424 1.428 . S
H1419 C1415 0.930 1_556 S
H1420 C1417 0.929 . S
S1421 N1422 1.613 . S
S1421 N1423 1.610 . S
N1422 S1421 1.613 . S
N1422 C1425 1.350 . S
N1423 S1421 1.610 . S
N1423 C1424 1.351 . S
C1424 C1418 1.428 . S
C1424 N1423 1.351 . S
C1424 C1425 1.434 . S
C1425 C1416 1.429 . S
C1425 N1422 1.350 . S
C1425 C1424 1.434 . S
C1426 C1427 1.369 . S
C1426 C1428 1.419 . S
C1426 H1430 0.930 . S
C1427 C1426 1.369 . S
C1427 C1436 1.429 . S
C1428 C1426 1.419 . S
C1428 C1429 1.363 . S
C1428 H1431 0.929 . S
C1429 C1428 1.363 . S
C1429 C1435 1.428 . S
H1430 C1426 0.930 . S
H1431 C1428 0.929 . S
S1432 N1433 1.613 . S
S1432 N1434 1.610 . S
N1433 S1432 1.613 . S
N1433 C1436 1.350 . S
N1434 S1432 1.610 . S
N1434 C1435 1.351 . S
C1435 C1429 1.428 . S
C1435 N1434 1.351 . S
C1435 C1436 1.434 . S
C1436 C1427 1.429 . S
C1436 N1433 1.350 . S
C1436 C1435 1.434 . S
C1437 C1438 1.369 . S
C1437 C1439 1.419 . S
C1437 H1441 0.930 . S
C1438 C1437 1.369 . S
C1438 C1447 1.429 . S
C1439 C1437 1.419 . S
C1439 C1440 1.363 . S
C1439 H1442 0.929 . S
C1440 C1439 1.363 . S
C1440 C1446 1.428 . S
H1441 C1437 0.930 . S
H1442 C1439 0.929 . S
S1443 N1444 1.613 . S
S1443 N1445 1.610 . S
N1444 S1443 1.613 . S
N1444 C1447 1.350 . S
N1445 S1443 1.610 . S
N1445 C1446 1.351 . S
C1446 C1440 1.428 . S
C1446 N1445 1.351 . S
C1446 C1447 1.434 . S
C1447 C1438 1.429 . S
C1447 N1444 1.350 . S
C1447 C1446 1.434 . S
C1448 C1449 1.369 . S
C1448 C1450 1.419 . S
C1448 H1452 0.930 . S
C1449 C1448 1.369 . S
C1449 C1458 1.429 . S
C1450 C1448 1.419 . S
C1450 C1451 1.363 . S
C1450 H1453 0.929 . S
C1451 C1450 1.363 . S
C1451 C1457 1.428 . S
H1452 C1448 0.930 . S
H1453 C1450 0.929 . S
S1454 N1455 1.613 . S
S1454 N1456 1.610 . S
N1455 S1454 1.613 . S
N1455 C1458 1.350 . S
N1456 S1454 1.610 . S
N1456 C1457 1.351 . S
C1457 C1451 1.428 . S
C1457 N1456 1.351 . S
C1457 C1458 1.434 . S
C1458 C1449 1.429 . S
C1458 N1455 1.350 . S
C1458 C1457 1.434 . S
C1459 C1460 1.369 . S
C1459 C1461 1.419 . S
C1459 H1463 0.930 . S
C1460 C1459 1.369 . S
C1460 C1469 1.429 . S
C1461 C1459 1.419 . S
C1461 C1462 1.363 . S
C1461 H1464 0.929 . S
C1462 C1461 1.363 . S
C1462 C1468 1.428 . S
H1463 C1459 0.930 . S
H1464 C1461 0.929 . S
S1465 N1466 1.613 . S
S1465 N1467 1.610 . S
N1466 S1465 1.613 . S
N1466 C1469 1.350 . S
N1467 S1465 1.610 . S
N1467 C1468 1.351 . S
C1468 C1462 1.428 . S
C1468 N1467 1.351 . S
C1468 C1469 1.434 . S
C1469 C1460 1.429 . S
C1469 N1466 1.350 . S
C1469 C1468 1.434 . S
C1470 C1471 1.369 . S
C1470 C1472 1.419 . S
C1470 H1474 0.930 . S
C1471 C1470 1.369 . S
C1471 C1480 1.429 . S
C1472 C1470 1.419 . S
C1472 C1473 1.363 . S
C1472 H1475 0.929 . S
C1473 C1472 1.363 . S
C1473 C1479 1.428 . S
H1474 C1470 0.930 . S
H1475 C1472 0.929 . S
S1476 N1477 1.613 1_556 S
S1476 N1478 1.610 . S
N1477 S1476 1.613 1_554 S
N1477 C1480 1.350 1_655 S
N1478 S1476 1.610 . S
N1478 C1479 1.351 1_656 S
C1479 C1473 1.428 . S
C1479 N1478 1.351 1_454 S
C1479 C1480 1.434 . S
C1480 C1471 1.429 . S
C1480 N1477 1.350 1_455 S
C1480 C1479 1.434 . S
C1481 C1482 1.369 . S
C1481 C1483 1.419 . S
C1481 H1485 0.930 . S
C1482 C1481 1.369 . S
C1482 C1491 1.429 . S
C1483 C1481 1.419 . S
C1483 C1484 1.363 . S
C1483 H1486 0.929 . S
C1484 C1483 1.363 . S
C1484 C1490 1.428 . S
H1485 C1481 0.930 . S
H1486 C1483 0.929 . S
S1487 N1488 1.613 . S
S1487 N1489 1.610 . S
N1488 S1487 1.613 . S
N1488 C1491 1.350 . S
N1489 S1487 1.610 . S
N1489 C1490 1.351 . S
C1490 C1484 1.428 . S
C1490 N1489 1.351 . S
C1490 C1491 1.434 . S
C1491 C1482 1.429 . S
C1491 N1488 1.350 . S
C1491 C1490 1.434 . S
C1492 C1493 1.369 . S
C1492 C1494 1.419 . S
C1492 H1496 0.930 . S
C1493 C1492 1.369 . S
C1493 C1502 1.429 . S
C1494 C1492 1.419 . S
C1494 C1495 1.363 . S
C1494 H1497 0.929 . S
C1495 C1494 1.363 . S
C1495 C1501 1.428 . S
H1496 C1492 0.930 . S
H1497 C1494 0.929 . S
S1498 N1499 1.613 . S
S1498 N1500 1.610 1_556 S
N1499 S1498 1.613 . S
N1499 C1502 1.350 . S
N1500 S1498 1.610 1_554 S
N1500 C1501 1.351 1_554 S
C1501 C1495 1.428 . S
C1501 N1500 1.351 1_556 S
C1501 C1502 1.434 . S
C1502 C1493 1.429 . S
C1502 N1499 1.350 . S
C1502 C1501 1.434 . S
C1503 C1504 1.369 . S
C1503 C1505 1.419 . S
C1503 H1507 0.930 . S
C1504 C1503 1.369 . S
C1504 C1513 1.429 . S
C1505 C1503 1.419 . S
C1505 C1506 1.363 . S
C1505 H1508 0.929 . S
C1506 C1505 1.363 . S
C1506 C1512 1.428 . S
H1507 C1503 0.930 . S
H1508 C1505 0.929 . S
S1509 N1510 1.613 . S
S1509 N1511 1.610 . S
N1510 S1509 1.613 . S
N1510 C1513 1.350 . S
N1511 S1509 1.610 . S
N1511 C1512 1.351 . S
C1512 C1506 1.428 . S
C1512 N1511 1.351 . S
C1512 C1513 1.434 . S
C1513 C1504 1.429 . S
C1513 N1510 1.350 . S
C1513 C1512 1.434 . S
C1514 C1515 1.369 . S
C1514 C1516 1.419 . S
C1514 H1518 0.930 1_455 S
C1515 C1514 1.369 . S
C1515 C1524 1.429 . S
C1516 C1514 1.419 . S
C1516 C1517 1.363 . S
C1516 H1519 0.929 1_455 S
C1517 C1516 1.363 . S
C1517 C1523 1.428 . S
H1518 C1514 0.930 1_655 S
H1519 C1516 0.929 1_655 S
S1520 N1521 1.613 . S
S1520 N1522 1.610 . S
N1521 S1520 1.613 . S
N1521 C1524 1.350 . S
N1522 S1520 1.610 . S
N1522 C1523 1.351 . S
C1523 C1517 1.428 . S
C1523 N1522 1.351 . S
C1523 C1524 1.434 . S
C1524 C1515 1.429 . S
C1524 N1521 1.350 . S
C1524 C1523 1.434 . S
C1525 C1526 1.369 . S
C1525 C1527 1.419 . S
C1525 H1529 0.930 . S
C1526 C1525 1.369 . S
C1526 C1535 1.429 . S
C1527 C1525 1.419 . S
C1527 C1528 1.363 . S
C1527 H1530 0.929 . S
C1528 C1527 1.363 . S
C1528 C1534 1.428 . S
H1529 C1525 0.930 . S
H1530 C1527 0.929 . S
S1531 N1532 1.613 . S
S1531 N1533 1.610 . S
N1532 S1531 1.613 . S
N1532 C1535 1.350 . S
N1533 S1531 1.610 . S
N1533 C1534 1.351 . S
C1534 C1528 1.428 . S
C1534 N1533 1.351 . S
C1534 C1535 1.434 . S
C1535 C1526 1.429 . S
C1535 N1532 1.350 . S
C1535 C1534 1.434 . S
C1536 C1537 1.369 . S
C1536 C1538 1.419 . S
C1536 H1540 0.930 . S
C1537 C1536 1.369 . S
C1537 C1546 1.429 . S
C1538 C1536 1.419 . S
C1538 C1539 1.363 . S
C1538 H1541 0.929 . S
C1539 C1538 1.363 . S
C1539 C1545 1.428 . S
H1540 C1536 0.930 . S
H1541 C1538 0.929 . S
S1542 N1543 1.613 . S
S1542 N1544 1.610 . S
N1543 S1542 1.613 . S
N1543 C1546 1.350 . S
N1544 S1542 1.610 . S
N1544 C1545 1.351 . S
C1545 C1539 1.428 . S
C1545 N1544 1.351 . S
C1545 C1546 1.434 . S
C1546 C1537 1.429 . S
C1546 N1543 1.350 . S
C1546 C1545 1.434 . S
C1547 C1548 1.369 . S
C1547 C1549 1.419 . S
C1547 H1551 0.930 . S
C1548 C1547 1.369 . S
C1548 C1557 1.429 . S
C1549 C1547 1.419 . S
C1549 C1550 1.363 . S
C1549 H1552 0.929 . S
C1550 C1549 1.363 . S
C1550 C1556 1.428 . S
H1551 C1547 0.930 . S
H1552 C1549 0.929 . S
S1553 N1554 1.613 . S
S1553 N1555 1.610 . S
N1554 S1553 1.613 . S
N1554 C1557 1.350 . S
N1555 S1553 1.610 . S
N1555 C1556 1.351 . S
C1556 C1550 1.428 . S
C1556 N1555 1.351 . S
C1556 C1557 1.434 . S
C1557 C1548 1.429 . S
C1557 N1554 1.350 . S
C1557 C1556 1.434 . S
C1558 C1559 1.369 . S
C1558 C1560 1.410 1_655 S
C1558 H1562 0.930 . S
C1559 C1558 1.369 . S
C1559 C1568 1.429 . S
C1560 C1558 1.410 1_455 S
C1560 C1561 1.354 1_455 S
C1560 H1563 0.948 . S
C1561 C1560 1.354 1_655 S
C1561 C1567 1.428 . S
H1562 C1558 0.930 . S
H1563 C1560 0.948 . S
S1564 N1565 1.613 . S
S1564 N1566 1.610 . S
N1565 S1564 1.613 . S
N1565 C1568 1.350 . S
N1566 S1564 1.610 . S
N1566 C1567 1.351 . S
C1567 C1561 1.428 . S
C1567 N1566 1.351 . S
C1567 C1568 1.434 . S
C1568 C1559 1.429 . S
C1568 N1565 1.350 . S
C1568 C1567 1.434 . S
C1569 C1570 1.369 . S
C1569 C1571 1.419 . S
C1569 H1573 0.930 . S
C1570 C1569 1.369 . S
C1570 C1579 1.429 . S
C1571 C1569 1.419 . S
C1571 C1572 1.363 . S
C1571 H1574 0.929 . S
C1572 C1571 1.363 . S
C1572 C1578 1.428 . S
H1573 C1569 0.930 . S
H1574 C1571 0.929 . S
S1575 N1576 1.613 . S
S1575 N1577 1.610 . S
N1576 S1575 1.613 . S
N1576 C1579 1.350 . S
N1577 S1575 1.610 . S
N1577 C1578 1.351 . S
C1578 C1572 1.428 . S
C1578 N1577 1.351 . S
C1578 C1579 1.434 . S
C1579 C1570 1.429 . S
C1579 N1576 1.350 . S
C1579 C1578 1.434 . S
C1580 C1581 1.369 . S
C1580 C1582 1.419 . S
C1580 H1584 0.930 . S
C1581 C1580 1.369 . S
C1581 C1590 1.429 . S
C1582 C1580 1.419 . S
C1582 C1583 1.363 . S
C1582 H1585 0.929 . S
C1583 C1582 1.363 . S
C1583 C1589 1.428 . S
H1584 C1580 0.930 . S
H1585 C1582 0.929 . S
S1586 N1587 1.613 . S
S1586 N1588 1.610 . S
N1587 S1586 1.613 . S
N1587 C1590 1.350 . S
N1588 S1586 1.610 . S
N1588 C1589 1.351 . S
C1589 C1583 1.428 . S
C1589 N1588 1.351 . S
C1589 C1590 1.434 . S
C1590 C1581 1.429 . S
C1590 N1587 1.350 . S
C1590 C1589 1.434 . S
C1591 C1592 1.369 . S
C1591 C1593 1.419 . S
C1591 H1595 0.930 . S
C1592 C1591 1.369 . S
C1592 C1601 1.429 . S
C1593 C1591 1.419 . S
C1593 C1594 1.363 . S
C1593 H1596 0.929 . S
C1594 C1593 1.363 . S
C1594 C1600 1.428 . S
H1595 C1591 0.930 . S
H1596 C1593 0.929 . S
S1597 N1598 1.613 . S
S1597 N1599 1.610 . S
N1598 S1597 1.613 . S
N1598 C1601 1.350 . S
N1599 S1597 1.610 . S
N1599 C1600 1.351 . S
C1600 C1594 1.428 . S
C1600 N1599 1.351 . S
C1600 C1601 1.434 . S
C1601 C1592 1.429 . S
C1601 N1598 1.350 . S
C1601 C1600 1.434 . S
C1602 C1603 1.369 . S
C1602 C1604 1.419 . S
C1602 H1606 0.930 . S
C1603 C1602 1.369 . S
C1603 C1612 1.429 . S
C1604 C1602 1.419 . S
C1604 C1605 1.363 . S
C1604 H1607 0.929 . S
C1605 C1604 1.363 . S
C1605 C1611 1.428 . S
H1606 C1602 0.930 . S
H1607 C1604 0.929 . S
S1608 N1609 1.613 . S
S1608 N1610 1.610 . S
N1609 S1608 1.613 . S
N1609 C1612 1.350 . S
N1610 S1608 1.610 . S
N1610 C1611 1.351 . S
C1611 C1605 1.428 . S
C1611 N1610 1.351 . S
C1611 C1612 1.434 . S
C1612 C1603 1.429 . S
C1612 N1609 1.350 . S
C1612 C1611 1.434 . S
C1613 C1614 1.369 . S
C1613 C1615 1.419 . S
C1613 H1617 0.930 . S
C1614 C1613 1.369 . S
C1614 C1623 1.429 . S
C1615 C1613 1.419 . S
C1615 C1616 1.363 . S
C1615 H1618 0.929 . S
C1616 C1615 1.363 . S
C1616 C1622 1.428 . S
H1617 C1613 0.930 . S
H1618 C1615 0.929 . S
S1619 N1620 1.613 . S
S1619 N1621 1.610 . S
N1620 S1619 1.613 . S
N1620 C1623 1.350 . S
N1621 S1619 1.610 . S
N1621 C1622 1.351 . S
C1622 C1616 1.428 . S
C1622 N1621 1.351 . S
C1622 C1623 1.434 . S
C1623 C1614 1.429 . S
C1623 N1620 1.350 . S
C1623 C1622 1.434 . S
C1624 C1625 1.369 . S
C1624 C1626 1.419 . S
C1624 H1628 0.930 . S
C1625 C1624 1.369 . S
C1625 C1634 1.429 . S
C1626 C1624 1.419 . S
C1626 C1627 1.363 . S
C1626 H1629 0.929 . S
C1627 C1626 1.363 . S
C1627 C1633 1.428 . S
H1628 C1624 0.930 . S
H1629 C1626 0.929 . S
S1630 N1631 1.613 . S
S1630 N1632 1.610 . S
N1631 S1630 1.613 . S
N1631 C1634 1.350 . S
N1632 S1630 1.610 . S
N1632 C1633 1.351 . S
C1633 C1627 1.428 . S
C1633 N1632 1.351 . S
C1633 C1634 1.434 . S
C1634 C1625 1.429 . S
C1634 N1631 1.350 . S
C1634 C1633 1.434 . S
C1635 C1636 1.369 . S
C1635 C1637 1.419 . S
C1635 H1639 0.930 . S
C1636 C1635 1.369 . S
C1636 C1645 1.429 . S
C1637 C1635 1.419 . S
C1637 C1638 1.363 . S
C1637 H1640 0.929 . S
C1638 C1637 1.363 . S
C1638 C1644 1.428 . S
H1639 C1635 0.930 . S
H1640 C1637 0.929 . S
S1641 N1642 1.613 1_545 S
S1641 N1643 1.610 . S
N1642 S1641 1.613 1_565 S
N1642 C1645 1.350 . S
N1643 S1641 1.610 . S
N1643 C1644 1.351 1_545 S
C1644 C1638 1.428 . S
C1644 N1643 1.351 1_565 S
C1644 C1645 1.434 . S
C1645 C1636 1.429 . S
C1645 N1642 1.350 . S
C1645 C1644 1.434 . S
C1646 C1647 1.369 . S
C1646 C1648 1.419 . S
C1646 H1650 0.930 . S
C1647 C1646 1.369 . S
C1647 C1656 1.429 . S
C1648 C1646 1.419 . S
C1648 C1649 1.363 . S
C1648 H1651 0.929 . S
C1649 C1648 1.363 . S
C1649 C1655 1.428 . S
H1650 C1646 0.930 . S
H1651 C1648 0.929 . S
S1652 N1653 1.613 . S
S1652 N1654 1.610 . S
N1653 S1652 1.613 . S
N1653 C1656 1.350 . S
N1654 S1652 1.610 . S
N1654 C1655 1.351 . S
C1655 C1649 1.428 . S
C1655 N1654 1.351 . S
C1655 C1656 1.434 . S
C1656 C1647 1.429 . S
C1656 N1653 1.350 . S
C1656 C1655 1.434 . S
C1657 C1658 1.369 1_556 S
C1657 C1659 1.419 . S
C1657 H1661 0.930 . S
C1658 C1657 1.369 1_554 S
C1658 C1667 1.429 . S
C1659 C1657 1.419 . S
C1659 C1660 1.363 1_556 S
C1659 H1662 0.929 . S
C1660 C1659 1.363 1_554 S
C1660 C1666 1.428 . S
H1661 C1657 0.930 . S
H1662 C1659 0.929 . S
S1663 N1664 1.613 . S
S1663 N1665 1.610 . S
N1664 S1663 1.613 . S
N1664 C1667 1.350 . S
N1665 S1663 1.610 . S
N1665 C1666 1.351 . S
C1666 C1660 1.428 . S
C1666 N1665 1.351 . S
C1666 C1667 1.434 . S
C1667 C1658 1.429 . S
C1667 N1664 1.350 . S
C1667 C1666 1.434 . S
C1668 C1669 1.369 . S
C1668 C1670 1.419 . S
C1668 H1672 0.930 . S
C1669 C1668 1.369 . S
C1669 C1678 1.429 . S
C1670 C1668 1.419 . S
C1670 C1671 1.363 . S
C1670 H1673 0.929 . S
C1671 C1670 1.363 . S
C1671 C1677 1.428 . S
H1672 C1668 0.930 . S
H1673 C1670 0.929 . S
S1674 N1675 1.613 . S
S1674 N1676 1.610 . S
N1675 S1674 1.613 . S
N1675 C1678 1.350 . S
N1676 S1674 1.610 . S
N1676 C1677 1.351 . S
C1677 C1671 1.428 . S
C1677 N1676 1.351 . S
C1677 C1678 1.434 . S
C1678 C1669 1.429 . S
C1678 N1675 1.350 . S
C1678 C1677 1.434 . S
C1679 C1680 1.369 . S
C1679 C1681 1.421 . S
C1679 H1683 0.930 . S
C1680 C1679 1.369 . S
C1680 C1689 1.429 1_554 S
C1681 C1679 1.421 . S
C1681 C1682 1.358 1_554 S
C1681 H1684 0.932 . S
C1682 C1681 1.358 1_556 S
C1682 C1688 1.428 . S
H1683 C1679 0.930 . S
H1684 C1681 0.932 . S
S1685 N1686 1.613 . S
S1685 N1687 1.610 . S
N1686 S1685 1.613 . S
N1686 C1689 1.350 . S
N1687 S1685 1.610 . S
N1687 C1688 1.351 . S
C1688 C1682 1.428 . S
C1688 N1687 1.351 . S
C1688 C1689 1.434 . S
C1689 C1680 1.429 1_556 S
C1689 N1686 1.350 . S
C1689 C1688 1.434 . S
C1690 C1691 1.369 . S
C1690 C1692 1.419 . S
C1690 H1694 0.930 . S
C1691 C1690 1.369 . S
C1691 C1700 1.429 . S
C1692 C1690 1.419 . S
C1692 C1693 1.363 . S
C1692 H1695 0.929 . S
C1693 C1692 1.363 . S
C1693 C1699 1.428 . S
H1694 C1690 0.930 . S
H1695 C1692 0.929 . S
S1696 N1697 1.613 . S
S1696 N1698 1.610 . S
N1697 S1696 1.613 . S
N1697 C1700 1.350 . S
N1698 S1696 1.610 . S
N1698 C1699 1.351 . S
C1699 C1693 1.428 . S
C1699 N1698 1.351 . S
C1699 C1700 1.434 . S
C1700 C1691 1.429 . S
C1700 N1697 1.350 . S
C1700 C1699 1.434 . S
C1701 C1702 1.369 . S
C1701 C1703 1.419 . S
C1701 H1705 0.930 . S
C1702 C1701 1.369 . S
C1702 C1711 1.429 . S
C1703 C1701 1.419 . S
C1703 C1704 1.363 . S
C1703 H1706 0.929 . S
C1704 C1703 1.363 . S
C1704 C1710 1.428 . S
H1705 C1701 0.930 . S
H1706 C1703 0.929 . S
S1707 N1708 1.613 . S
S1707 N1709 1.610 . S
N1708 S1707 1.613 . S
N1708 C1711 1.350 . S
N1709 S1707 1.610 . S
N1709 C1710 1.351 . S
C1710 C1704 1.428 . S
C1710 N1709 1.351 . S
C1710 C1711 1.434 . S
C1711 C1702 1.429 . S
C1711 N1708 1.350 . S
C1711 C1710 1.434 . S
C657 C109 1.589 . S
C659 C354 1.546 . S
C668 C61 1.369 . S
C670 C365 1.588 . S
C679 C74 1.157 . S
C681 C394 1.163 . S
C692 C397 1.447 . S
C690 C96 1.467 . S
C701 C25 1.572 . S
C703 C435 1.510 . S
C714 C438 1.125 . S
C712 C40 1.109 . S
C725 C465 1.571 . S
C723 C46 1.581 . S
C734 C5 1.341 . S
C736 C494 1.583 . S
C747 C345 1.476 1_655 S
C745 C229 1.208 . S
C756 C249 1.097 . S
C758 C357 1.037 . S
C769 C385 1.447 . S
C767 C271 1.247 . S
C780 C414 1.414 . S
C778 C172 1.349 . S
C789 C236 1.125 . S
C791 C418 1.148 . S
C802 C444 1.707 . S
C800 C242 1.709 . S
C813 C457 0.841 . S
C811 C278 0.848 . S
C824 C485 1.695 . S
C822 C179 1.699 . S
C835 C337 1.507 1_565 S
C833 C159 1.201 . S
C844 C285 1.386 1_554 S
C846 C504 1.620 1_554 S
C857 C535 1.478 . S
C855 C333 1.564 . S
C868 C554 1.059 . S
C866 C320 1.060 . S
C877 C123 1.419 . S
C879 C477 1.360 . S
C888 C138 1.564 . S
C890 C377 1.533 . S
C899 C326 1.678 . S
C901 C565 1.661 . S
C912 C594 1.024 . S
C910 C298 1.011 . S
C923 C355 1.530 . S
C921 C67 1.520 . S
C934 C584 1.563 . S
C932 C110 1.563 . S
C943 C88 1.179 . S
C945 C395 1.162 . S
C954 C75 1.215 . S
C956 C558 1.384 . S
C967 C434 1.475 . S
C965 C11 1.516 . S
C976 C47 1.041 . S
C978 C517 1.130 . S
C989 C464 1.492 . S
C987 C32 1.440 . S
C1000 C615 1.621 . S
C998 C26 1.705 . S
C1011 C344 1.602 . S
C1009 C152 1.597 . S
C1022 C578 1.047 . S
C1020 C319 1.042 . S
C1031 C124 1.446 . S
C1033 C384 1.435 . S
C1042 C284 1.405 . S
C1044 C575 1.413 . S
C1053 C145 1.049 . S
C1055 C417 1.147 . S
C1066 C525 1.632 . S
C1064 C312 1.616 . S
C1075 C117 0.747 . S
C1077 C458 0.756 . S
C1086 C291 1.637 . S
C1088 C604 1.636 . S
C1097 C194 1.593 1_556 S
C1099 C338 1.558 . S
C1108 C180 1.634 . S
C1110 C505 1.612 . S
C1119 C263 1.433 . S
C1121 C454 1.404 . S
C1130 C243 0.928 . S
C1132 C555 1.008 . S
C1143 C598 1.381 . S
C1141 C277 1.355 . S
C1152 C215 1.364 . S
C1154 C378 1.511 . S
C1165 C404 1.580 . S
C1163 C256 1.536 . S
C1176 C375 1.086 . S
C1174 C200 1.109 . S
C1185 C81 1.589 . S
C1187 C634 1.546 . S
C1198 C585 1.586 . S
C1196 C89 1.357 . S
C1207 C102 1.154 . S
C1209 C654 1.165 . S
C1218 C68 1.467 . S
C1220 C557 1.446 . S
C1229 C53 1.571 . S
C1231 C515 1.507 . S
C1242 C518 1.125 . S
C1240 C12 1.109 . S
C1253 C545 1.573 . S
C1251 C18 1.582 1_455 S
C1264 C614 1.584 . S
C1262 C33 1.343 . S
C1275 C625 1.476 . S
C1273 C257 1.211 . S
C1284 C193 1.095 . S
C1286 C577 1.041 . S
C1297 C645 1.446 . S
C1295 C201 1.228 . S
C1308 C574 1.412 . S
C1306 C214 1.343 . S
C1319 C498 1.145 . S
C1317 C264 1.132 . S
C1328 C186 1.709 . S
C1330 C524 1.707 . S
C1341 C537 0.846 . S
C1339 C208 0.846 . S
C1350 C221 1.702 . S
C1352 C605 1.691 . S
C1363 C617 1.505 . S
C1361 C313 1.203 . S
C1372 C131 1.381 . S
C1374 C424 1.618 . S
C1385 C455 1.477 . S
C1383 C151 1.565 . S
C1396 C474 1.057 . S
C1394 C166 1.057 . S
C1407 C597 1.358 . S
C1405 C305 1.421 . S
C1416 C292 1.561 . S
C1418 C637 1.538 . S
C1429 C405 1.663 . S
C1427 C144 1.674 . S
C1440 C374 1.016 . S
C1438 C116 1.019 . S
C1449 C95 1.525 . S
C1451 C635 1.531 . S
C1462 C364 1.565 . S
C1460 C82 1.565 . S
C1471 C60 1.175 . S
C1473 C655 1.161 . S
C1482 C103 1.205 . S
C1484 C398 1.379 . S
C1493 C39 1.521 . S
C1495 C514 1.466 . S
C1506 C437 1.126 . S
C1504 C19 1.049 . S
C1515 C4 1.440 . S
C1517 C544 1.491 . S
C1526 C54 1.702 . S
C1528 C495 1.623 . S
C1539 C624 1.601 . S
C1537 C334 1.597 . S
C1548 C165 1.037 . S
C1550 C358 1.048 . S
C1561 C644 1.436 1_655 S
C1559 C306 1.446 . S
C1570 C130 1.405 . S
C1572 C415 1.413 . S
C1581 C327 1.050 . S
C1583 C497 1.145 . S
C1594 C445 1.632 . S
C1592 C158 1.617 . S
C1603 C299 0.753 . S
C1605 C538 0.759 . S
C1616 C484 1.633 . S
C1614 C137 1.640 . S
C1627 C618 1.556 . S
C1625 C250 1.596 . S
C1638 C425 1.611 1_565 S
C1636 C222 1.634 . S
C1647 C235 1.440 . S
C1649 C534 1.396 . S
C1660 C475 1.007 . S
C1658 C187 0.930 1_554 S
C1669 C207 1.351 . S
C1671 C478 1.384 . S
C1680 C173 1.362 . S
C1682 C638 1.512 . S
C1693 C564 1.584 . S
C1691 C228 1.535 . S
C1704 C595 1.079 . S
C1702 C270 1.114 . S
