# Generated by pormake.
# Topology gar, (4,6)-cn, num edge types: 1
# Building blocks:
#     Node 0, Type 0, BuildingBlock: NAHDIM_clean_sbu_0, # of connection points: 4
#     Node 1, Type 0, BuildingBlock: NAHDIM_clean_sbu_0, # of connection points: 4
#     Node 2, Type 0, BuildingBlock: NAHDIM_clean_sbu_0, # of connection points: 4
#     Node 3, Type 0, BuildingBlock: NAHDIM_clean_sbu_0, # of connection points: 4
#     Node 4, Type 0, BuildingBlock: NAHDIM_clean_sbu_0, # of connection points: 4
#     Node 5, Type 0, BuildingBlock: NAHDIM_clean_sbu_0, # of connection points: 4
#     Node 6, Type 0, BuildingBlock: NAHDIM_clean_sbu_0, # of connection points: 4
#     Node 7, Type 0, BuildingBlock: NAHDIM_clean_sbu_0, # of connection points: 4
#     Node 8, Type 0, BuildingBlock: NAHDIM_clean_sbu_0, # of connection points: 4
#     Node 9, Type 0, BuildingBlock: NAHDIM_clean_sbu_0, # of connection points: 4
#     Node 10, Type 0, BuildingBlock: NAHDIM_clean_sbu_0, # of connection points: 4
#     Node 11, Type 0, BuildingBlock: NAHDIM_clean_sbu_0, # of connection points: 4
#     Node 12, Type 0, BuildingBlock: NAHDIM_clean_sbu_0, # of connection points: 4
#     Node 13, Type 0, BuildingBlock: NAHDIM_clean_sbu_0, # of connection points: 4
#     Node 14, Type 0, BuildingBlock: NAHDIM_clean_sbu_0, # of connection points: 4
#     Node 15, Type 0, BuildingBlock: NAHDIM_clean_sbu_0, # of connection points: 4
#     Node 16, Type 0, BuildingBlock: NAHDIM_clean_sbu_0, # of connection points: 4
#     Node 17, Type 0, BuildingBlock: NAHDIM_clean_sbu_0, # of connection points: 4
#     Node 18, Type 0, BuildingBlock: NAHDIM_clean_sbu_0, # of connection points: 4
#     Node 19, Type 0, BuildingBlock: NAHDIM_clean_sbu_0, # of connection points: 4
#     Node 20, Type 0, BuildingBlock: NAHDIM_clean_sbu_0, # of connection points: 4
#     Node 21, Type 0, BuildingBlock: NAHDIM_clean_sbu_0, # of connection points: 4
#     Node 22, Type 0, BuildingBlock: NAHDIM_clean_sbu_0, # of connection points: 4
#     Node 23, Type 0, BuildingBlock: NAHDIM_clean_sbu_0, # of connection points: 4
#     Node 24, Type 1, BuildingBlock: BETGAK_clean_sbu_0, # of connection points: 6
#     Node 25, Type 1, BuildingBlock: BETGAK_clean_sbu_0, # of connection points: 6
#     Node 26, Type 1, BuildingBlock: BETGAK_clean_sbu_0, # of connection points: 6
#     Node 27, Type 1, BuildingBlock: BETGAK_clean_sbu_0, # of connection points: 6
#     Node 28, Type 1, BuildingBlock: BETGAK_clean_sbu_0, # of connection points: 6
#     Node 29, Type 1, BuildingBlock: BETGAK_clean_sbu_0, # of connection points: 6
#     Node 30, Type 1, BuildingBlock: BETGAK_clean_sbu_0, # of connection points: 6
#     Node 31, Type 1, BuildingBlock: BETGAK_clean_sbu_0, # of connection points: 6
#     Node 32, Type 1, BuildingBlock: BETGAK_clean_sbu_0, # of connection points: 6
#     Node 33, Type 1, BuildingBlock: BETGAK_clean_sbu_0, # of connection points: 6
#     Node 34, Type 1, BuildingBlock: BETGAK_clean_sbu_0, # of connection points: 6
#     Node 35, Type 1, BuildingBlock: BETGAK_clean_sbu_0, # of connection points: 6
#     Node 36, Type 1, BuildingBlock: BETGAK_clean_sbu_0, # of connection points: 6
#     Node 37, Type 1, BuildingBlock: BETGAK_clean_sbu_0, # of connection points: 6
#     Node 38, Type 1, BuildingBlock: BETGAK_clean_sbu_0, # of connection points: 6
#     Node 39, Type 1, BuildingBlock: BETGAK_clean_sbu_0, # of connection points: 6
#     Edge 40, Type (0, 1), BuildingBlock: MIFKUJ_clean_linker_0, # of connection points: 2
#     Edge 41, Type (0, 1), BuildingBlock: MIFKUJ_clean_linker_0, # of connection points: 2
#     Edge 42, Type (0, 1), BuildingBlock: MIFKUJ_clean_linker_0, # of connection points: 2
#     Edge 43, Type (0, 1), BuildingBlock: MIFKUJ_clean_linker_0, # of connection points: 2
#     Edge 44, Type (0, 1), BuildingBlock: MIFKUJ_clean_linker_0, # of connection points: 2
#     Edge 45, Type (0, 1), BuildingBlock: MIFKUJ_clean_linker_0, # of connection points: 2
#     Edge 46, Type (0, 1), BuildingBlock: MIFKUJ_clean_linker_0, # of connection points: 2
#     Edge 47, Type (0, 1), BuildingBlock: MIFKUJ_clean_linker_0, # of connection points: 2
#     Edge 48, Type (0, 1), BuildingBlock: MIFKUJ_clean_linker_0, # of connection points: 2
#     Edge 49, Type (0, 1), BuildingBlock: MIFKUJ_clean_linker_0, # of connection points: 2
#     Edge 50, Type (0, 1), BuildingBlock: MIFKUJ_clean_linker_0, # of connection points: 2
#     Edge 51, Type (0, 1), BuildingBlock: MIFKUJ_clean_linker_0, # of connection points: 2
#     Edge 52, Type (0, 1), BuildingBlock: MIFKUJ_clean_linker_0, # of connection points: 2
#     Edge 53, Type (0, 1), BuildingBlock: MIFKUJ_clean_linker_0, # of connection points: 2
#     Edge 54, Type (0, 1), BuildingBlock: MIFKUJ_clean_linker_0, # of connection points: 2
#     Edge 55, Type (0, 1), BuildingBlock: MIFKUJ_clean_linker_0, # of connection points: 2
#     Edge 56, Type (0, 1), BuildingBlock: MIFKUJ_clean_linker_0, # of connection points: 2
#     Edge 57, Type (0, 1), BuildingBlock: MIFKUJ_clean_linker_0, # of connection points: 2
#     Edge 58, Type (0, 1), BuildingBlock: MIFKUJ_clean_linker_0, # of connection points: 2
#     Edge 59, Type (0, 1), BuildingBlock: MIFKUJ_clean_linker_0, # of connection points: 2
#     Edge 60, Type (0, 1), BuildingBlock: MIFKUJ_clean_linker_0, # of connection points: 2
#     Edge 61, Type (0, 1), BuildingBlock: MIFKUJ_clean_linker_0, # of connection points: 2
#     Edge 62, Type (0, 1), BuildingBlock: MIFKUJ_clean_linker_0, # of connection points: 2
#     Edge 63, Type (0, 1), BuildingBlock: MIFKUJ_clean_linker_0, # of connection points: 2
#     Edge 64, Type (0, 1), BuildingBlock: MIFKUJ_clean_linker_0, # of connection points: 2
#     Edge 65, Type (0, 1), BuildingBlock: MIFKUJ_clean_linker_0, # of connection points: 2
#     Edge 66, Type (0, 1), BuildingBlock: MIFKUJ_clean_linker_0, # of connection points: 2
#     Edge 67, Type (0, 1), BuildingBlock: MIFKUJ_clean_linker_0, # of connection points: 2
#     Edge 68, Type (0, 1), BuildingBlock: MIFKUJ_clean_linker_0, # of connection points: 2
#     Edge 69, Type (0, 1), BuildingBlock: MIFKUJ_clean_linker_0, # of connection points: 2
#     Edge 70, Type (0, 1), BuildingBlock: MIFKUJ_clean_linker_0, # of connection points: 2
#     Edge 71, Type (0, 1), BuildingBlock: MIFKUJ_clean_linker_0, # of connection points: 2
#     Edge 72, Type (0, 1), BuildingBlock: MIFKUJ_clean_linker_0, # of connection points: 2
#     Edge 73, Type (0, 1), BuildingBlock: MIFKUJ_clean_linker_0, # of connection points: 2
#     Edge 74, Type (0, 1), BuildingBlock: MIFKUJ_clean_linker_0, # of connection points: 2
#     Edge 75, Type (0, 1), BuildingBlock: MIFKUJ_clean_linker_0, # of connection points: 2
#     Edge 76, Type (0, 1), BuildingBlock: MIFKUJ_clean_linker_0, # of connection points: 2
#     Edge 77, Type (0, 1), BuildingBlock: MIFKUJ_clean_linker_0, # of connection points: 2
#     Edge 78, Type (0, 1), BuildingBlock: MIFKUJ_clean_linker_0, # of connection points: 2
#     Edge 79, Type (0, 1), BuildingBlock: MIFKUJ_clean_linker_0, # of connection points: 2
#     Edge 80, Type (0, 1), BuildingBlock: MIFKUJ_clean_linker_0, # of connection points: 2
#     Edge 81, Type (0, 1), BuildingBlock: MIFKUJ_clean_linker_0, # of connection points: 2
#     Edge 82, Type (0, 1), BuildingBlock: MIFKUJ_clean_linker_0, # of connection points: 2
#     Edge 83, Type (0, 1), BuildingBlock: MIFKUJ_clean_linker_0, # of connection points: 2
#     Edge 84, Type (0, 1), BuildingBlock: MIFKUJ_clean_linker_0, # of connection points: 2
#     Edge 85, Type (0, 1), BuildingBlock: MIFKUJ_clean_linker_0, # of connection points: 2
#     Edge 86, Type (0, 1), BuildingBlock: MIFKUJ_clean_linker_0, # of connection points: 2
#     Edge 87, Type (0, 1), BuildingBlock: MIFKUJ_clean_linker_0, # of connection points: 2
#     Edge 88, Type (0, 1), BuildingBlock: MIFKUJ_clean_linker_0, # of connection points: 2
#     Edge 89, Type (0, 1), BuildingBlock: MIFKUJ_clean_linker_0, # of connection points: 2
#     Edge 90, Type (0, 1), BuildingBlock: MIFKUJ_clean_linker_0, # of connection points: 2
#     Edge 91, Type (0, 1), BuildingBlock: MIFKUJ_clean_linker_0, # of connection points: 2
#     Edge 92, Type (0, 1), BuildingBlock: MIFKUJ_clean_linker_0, # of connection points: 2
#     Edge 93, Type (0, 1), BuildingBlock: MIFKUJ_clean_linker_0, # of connection points: 2
#     Edge 94, Type (0, 1), BuildingBlock: MIFKUJ_clean_linker_0, # of connection points: 2
#     Edge 95, Type (0, 1), BuildingBlock: MIFKUJ_clean_linker_0, # of connection points: 2
#     Edge 96, Type (0, 1), BuildingBlock: MIFKUJ_clean_linker_0, # of connection points: 2
#     Edge 97, Type (0, 1), BuildingBlock: MIFKUJ_clean_linker_0, # of connection points: 2
#     Edge 98, Type (0, 1), BuildingBlock: MIFKUJ_clean_linker_0, # of connection points: 2
#     Edge 99, Type (0, 1), BuildingBlock: MIFKUJ_clean_linker_0, # of connection points: 2
#     Edge 100, Type (0, 1), BuildingBlock: MIFKUJ_clean_linker_0, # of connection points: 2
#     Edge 101, Type (0, 1), BuildingBlock: MIFKUJ_clean_linker_0, # of connection points: 2
#     Edge 102, Type (0, 1), BuildingBlock: MIFKUJ_clean_linker_0, # of connection points: 2
#     Edge 103, Type (0, 1), BuildingBlock: MIFKUJ_clean_linker_0, # of connection points: 2
#     Edge 104, Type (0, 1), BuildingBlock: MIFKUJ_clean_linker_0, # of connection points: 2
#     Edge 105, Type (0, 1), BuildingBlock: MIFKUJ_clean_linker_0, # of connection points: 2
#     Edge 106, Type (0, 1), BuildingBlock: MIFKUJ_clean_linker_0, # of connection points: 2
#     Edge 107, Type (0, 1), BuildingBlock: MIFKUJ_clean_linker_0, # of connection points: 2
#     Edge 108, Type (0, 1), BuildingBlock: MIFKUJ_clean_linker_0, # of connection points: 2
#     Edge 109, Type (0, 1), BuildingBlock: MIFKUJ_clean_linker_0, # of connection points: 2
#     Edge 110, Type (0, 1), BuildingBlock: MIFKUJ_clean_linker_0, # of connection points: 2
#     Edge 111, Type (0, 1), BuildingBlock: MIFKUJ_clean_linker_0, # of connection points: 2
#     Edge 112, Type (0, 1), BuildingBlock: MIFKUJ_clean_linker_0, # of connection points: 2
#     Edge 113, Type (0, 1), BuildingBlock: MIFKUJ_clean_linker_0, # of connection points: 2
#     Edge 114, Type (0, 1), BuildingBlock: MIFKUJ_clean_linker_0, # of connection points: 2
#     Edge 115, Type (0, 1), BuildingBlock: MIFKUJ_clean_linker_0, # of connection points: 2
#     Edge 116, Type (0, 1), BuildingBlock: MIFKUJ_clean_linker_0, # of connection points: 2
#     Edge 117, Type (0, 1), BuildingBlock: MIFKUJ_clean_linker_0, # of connection points: 2
#     Edge 118, Type (0, 1), BuildingBlock: MIFKUJ_clean_linker_0, # of connection points: 2
#     Edge 119, Type (0, 1), BuildingBlock: MIFKUJ_clean_linker_0, # of connection points: 2
#     Edge 120, Type (0, 1), BuildingBlock: MIFKUJ_clean_linker_0, # of connection points: 2
#     Edge 121, Type (0, 1), BuildingBlock: MIFKUJ_clean_linker_0, # of connection points: 2
#     Edge 122, Type (0, 1), BuildingBlock: MIFKUJ_clean_linker_0, # of connection points: 2
#     Edge 123, Type (0, 1), BuildingBlock: MIFKUJ_clean_linker_0, # of connection points: 2
#     Edge 124, Type (0, 1), BuildingBlock: MIFKUJ_clean_linker_0, # of connection points: 2
#     Edge 125, Type (0, 1), BuildingBlock: MIFKUJ_clean_linker_0, # of connection points: 2
#     Edge 126, Type (0, 1), BuildingBlock: MIFKUJ_clean_linker_0, # of connection points: 2
#     Edge 127, Type (0, 1), BuildingBlock: MIFKUJ_clean_linker_0, # of connection points: 2
#     Edge 128, Type (0, 1), BuildingBlock: MIFKUJ_clean_linker_0, # of connection points: 2
#     Edge 129, Type (0, 1), BuildingBlock: MIFKUJ_clean_linker_0, # of connection points: 2
#     Edge 130, Type (0, 1), BuildingBlock: MIFKUJ_clean_linker_0, # of connection points: 2
#     Edge 131, Type (0, 1), BuildingBlock: MIFKUJ_clean_linker_0, # of connection points: 2
#     Edge 132, Type (0, 1), BuildingBlock: MIFKUJ_clean_linker_0, # of connection points: 2
#     Edge 133, Type (0, 1), BuildingBlock: MIFKUJ_clean_linker_0, # of connection points: 2
#     Edge 134, Type (0, 1), BuildingBlock: MIFKUJ_clean_linker_0, # of connection points: 2
#     Edge 135, Type (0, 1), BuildingBlock: MIFKUJ_clean_linker_0, # of connection points: 2
# Relax obj value: 0.180
# Max RMSD: 0.282
# Mean RMSD: 0.177
data_MOF--net-gar--node1-NAHDIM_clean_sbu_0--node2-BETGAK_clean_sbu_0--edge1-MIFKUJ_clean_linker_0
_symmetry_space_group_name_H-M    P1
_symmetry_Int_Tables_number       1
_symmetry_cell_setting            triclinic
loop_
_symmetry_equiv_pos_as_xyz
'x, y, z'
_cell_length_a     79.721775
_cell_length_b     73.242612
_cell_length_c     71.975559
_cell_angle_alpha  98.605868
_cell_angle_beta   95.232861
_cell_angle_gamma 103.03882
loop_
_atom_site_label
_atom_site_type_symbol
_atom_site_fract_x
_atom_site_fract_y
_atom_site_fract_z
_atom_type_partial_charge
C0 C 0.1275 0.32661 0.36913 0.0
O1 O 0.13097 0.32785 0.38754 0.0
O2 O 0.09696 0.29629 0.39377 0.0
Zn3 Zn 0.09283 0.31543 0.37748 0.0
O4 O 0.09193 0.33996 0.39338 0.0
C5 C 0.05658 0.2982 0.36796 0.0
O6 O 0.05799 0.29764 0.38618 0.0
O7 O 0.11183 0.32114 0.36141 0.0
C8 C 0.0886 0.35313 0.38511 0.0
O9 O 0.08595 0.35023 0.3665 0.0
C10 C 0.09393 0.29794 0.41091 0.0
O11 O 0.08853 0.31275 0.41832 0.0
O12 O 0.07005 0.30506 0.36073 0.0
C13 C 0.95379 0.73256 0.66073 0.0
O14 O 0.95368 0.72687 0.64251 0.0
O15 O 0.99181 0.728 0.64005 0.0
Zn16 Zn 0.98947 0.75026 0.65877 0.0
O17 O 0.98935 0.77254 0.64538 0.0
C18 C 0.01412 0.74297 0.68591 0.0
O19 O 1.00417 0.72567 0.68061 0.0
O20 O 0.96766 0.74293 0.6705 0.0
C21 C 0.99727 0.78947 0.65301 0.0
O22 O 0.00537 0.79267 0.67035 0.0
C23 C 0.0066 0.72794 0.63483 0.0
O24 O 0.01967 0.74274 0.6412 0.0
O25 O 0.01004 0.75653 0.67888 0.0
C26 C 0.61927 0.83039 0.87047 0.0
O27 O 0.6186 0.84497 0.88319 0.0
O28 O 0.58933 0.78864 0.89771 0.0
Zn29 Zn 0.58755 0.80957 0.88311 0.0
O30 O 0.58574 0.83262 0.90094 0.0
C31 C 0.55166 0.79356 0.87047 0.0
O32 O 0.55198 0.79053 0.88802 0.0
O33 O 0.60772 0.81488 0.86853 0.0
C34 C 0.59548 0.83935 0.91656 0.0
O35 O 0.6081 0.83148 0.92141 0.0
C36 C 0.60358 0.78611 0.90501 0.0
O37 O 0.61831 0.7975 0.9029 0.0
O38 O 0.56571 0.80137 0.8648 0.0
C39 C 0.46417 0.23152 0.17619 0.0
O40 O 0.47128 0.21697 0.17348 0.0
O41 O 0.4903 0.22192 0.13995 0.0
Zn42 Zn 0.48944 0.24784 0.15307 0.0
O43 O 0.48847 0.26665 0.13544 0.0
C44 C 0.52515 0.2588 0.16053 0.0
O45 O 0.52231 0.25501 0.14192 0.0
O46 O 0.46984 0.24607 0.16883 0.0
C47 C 0.48424 0.26317 0.11758 0.0
O48 O 0.47919 0.24544 0.10871 0.0
C49 C 0.47829 0.20859 0.13024 0.0
O50 O 0.46264 0.21125 0.12671 0.0
O51 O 0.5122 0.25737 0.16975 0.0
C52 C 0.0422 0.80838 0.14103 0.0
O53 O 0.04043 0.81326 0.12425 0.0
O54 O 0.07377 0.78111 0.11388 0.0
Zn55 Zn 0.07671 0.8076 0.13035 0.0
O56 O 0.07481 0.82859 0.11399 0.0
C57 C 0.11387 0.80928 0.13973 0.0
O58 O 0.1122 0.80341 0.12134 0.0
O59 O 0.05676 0.80549 0.14715 0.0
C60 C 0.08479 0.84534 0.11689 0.0
O61 O 0.09791 0.84973 0.13052 0.0
C62 C 0.05929 0.76975 0.10656 0.0
O63 O 0.04493 0.77539 0.10836 0.0
O64 O 0.10069 0.81293 0.14702 0.0
C65 C 0.54391 0.75861 0.39183 0.0
O66 O 0.54578 0.75693 0.40977 0.0
O67 O 0.50601 0.73423 0.41304 0.0
Zn68 Zn 0.50838 0.75827 0.39985 0.0
O69 O 0.51416 0.78392 0.41865 0.0
C70 C 0.47043 0.75032 0.38398 0.0
O71 O 0.46762 0.7414 0.39835 0.0
O72 O 0.52903 0.75932 0.38418 0.0
C73 C 0.50257 0.79287 0.42257 0.0
O74 O 0.4863 0.78469 0.41584 0.0
C75 C 0.5141 0.73445 0.4293 0.0
O76 O 0.52343 0.75084 0.4389 0.0
O77 O 0.4861 0.75761 0.38173 0.0
C78 C 0.54194 0.30809 0.64015 0.0
O79 O 0.5402 0.31184 0.62289 0.0
O80 O 0.573 0.28231 0.61155 0.0
Zn81 Zn 0.57678 0.30784 0.63048 0.0
O82 O 0.57738 0.33199 0.61778 0.0
C83 C 0.61214 0.3035 0.64155 0.0
O84 O 0.60974 0.29487 0.62381 0.0
O85 O 0.55656 0.3058 0.64687 0.0
C86 C 0.57278 0.33236 0.60037 0.0
O87 O 0.56779 0.31617 0.5884 0.0
C88 C 0.55979 0.26838 0.61048 0.0
O89 O 0.54728 0.27071 0.62056 0.0
O90 O 0.60012 0.31074 0.64778 0.0
C91 C 0.0399 0.2497 0.88563 0.0
O92 O 0.03659 0.23533 0.89477 0.0
O93 O 0.00574 0.23471 0.91419 0.0
Zn94 Zn 0.00874 0.25895 0.90128 0.0
O95 O 0.01413 0.28412 0.92058 0.0
C96 C 0.97459 0.24625 0.874 0.0
O97 O 0.97582 0.22857 0.87324 0.0
O98 O 0.02971 0.26089 0.88589 0.0
C99 C 1.00199 0.29218 0.92473 0.0
O100 O 0.98587 0.28309 0.91823 0.0
C101 C 0.01626 0.23404 0.92845 0.0
O102 O 0.02859 0.24937 0.93557 0.0
O103 O 0.98651 0.25962 0.88406 0.0
C104 C 0.38866 0.09375 0.32066 0.0
O105 O 0.40493 0.10157 0.32768 0.0
O106 O 0.41082 0.06274 0.28904 0.0
Zn107 Zn 0.40035 0.05926 0.313 0.0
O108 O 0.41919 0.06538 0.335 0.0
C109 C 0.37824 0.02404 0.29437 0.0
O110 O 0.37779 0.03376 0.28048 0.0
O111 O 0.38382 0.07586 0.31528 0.0
C112 C 0.43322 0.06063 0.33202 0.0
O113 O 0.43465 0.0522 0.315 0.0
C114 C 0.42231 0.07755 0.28795 0.0
O115 O 0.42779 0.09094 0.30296 0.0
O116 O 0.38715 0.03215 0.31019 0.0
C117 C 0.30943 0.15672 0.48967 0.0
O118 O 0.31239 0.17311 0.48369 0.0
O119 O 0.27663 0.18354 0.5164 0.0
Zn120 Zn 0.27495 0.1643 0.49174 0.0
O121 O 0.27618 0.1761 0.46728 0.0
C122 C 0.23727 0.15096 0.48624 0.0
O123 O 0.23857 0.16834 0.48287 0.0
O124 O 0.29437 0.14995 0.49397 0.0
C125 C 0.27706 0.19346 0.46598 0.0
O126 O 0.27721 0.20563 0.48142 0.0
C127 C 0.28956 0.18802 0.52942 0.0
O128 O 0.30332 0.18151 0.52646 0.0
O129 O 0.25116 0.14555 0.48986 0.0
C130 C 0.17911 0.97168 0.77185 0.0
O131 O 0.16228 0.9646 0.76758 0.0
O132 O 0.15206 0.00863 0.74798 0.0
Zn133 Zn 0.16797 0.01243 0.77612 0.0
O134 O 0.15422 0.0134 0.80252 0.0
C135 C 0.19674 0.04866 0.77009 0.0
O136 O 0.2032 0.03652 0.75936 0.0
O137 O 0.18438 0.99021 0.77569 0.0
C138 C 0.13811 0.00889 0.80558 0.0
O139 O 0.12636 1.00175 0.79071 0.0
C140 C 0.1392 0.01575 0.743 0.0
O141 O 0.1331 0.02558 0.75644 0.0
O142 O 0.18354 0.04188 0.77829 0.0
C143 C 0.26774 0.96033 0.98005 0.0
O144 O 0.26335 0.94383 0.96855 0.0
O145 O 0.28434 0.93081 0.01813 0.0
Zn146 Zn 0.29342 0.94372 0.99714 0.0
O147 O 0.29118 0.92447 0.97339 0.0
C148 C 0.32518 0.96206 0.02215 0.0
O149 O 0.31474 0.96213 0.03526 0.0
O150 O 0.28047 0.96357 0.99305 0.0
C151 C 0.29277 0.90774 0.97432 0.0
O152 O 0.29554 0.90292 0.99098 0.0
C153 C 0.27012 0.91833 0.01669 0.0
O154 O 0.25998 0.91321 1.00041 0.0
O155 O 0.31881 0.95555 0.00496 0.0
C156 C 0.26826 0.4064 0.03645 0.0
O157 O 0.26446 0.38846 0.03852 0.0
O158 O 0.29927 0.38358 0.057 0.0
Zn159 Zn 0.30219 0.39823 0.03444 0.0
O160 O 0.29769 0.38111 0.00801 0.0
C161 C 0.33984 0.40984 0.03249 0.0
O162 O 0.33739 0.39168 0.02559 0.0
O163 O 0.28388 0.41418 0.03455 0.0
C164 C 0.3021 0.36557 1.00312 0.0
O165 O 0.30972 0.35822 0.01609 0.0
C166 C 0.3101 0.37533 0.06426 0.0
O167 O 0.32446 0.37516 0.05672 0.0
O168 O 0.32688 0.41605 0.03741 0.0
C169 C 0.82098 0.13289 0.02454 0.0
O170 O 0.82494 0.15091 0.02287 0.0
O171 O 0.79115 0.15788 0.05217 0.0
Zn172 Zn 0.78743 0.14016 0.02705 0.0
O173 O 0.78761 0.15433 0.00507 0.0
C174 C 0.75128 0.13137 0.02473 0.0
O175 O 0.75514 0.15003 0.02729 0.0
O176 O 0.80543 0.12492 0.02622 0.0
C177 C 0.7844 0.17066 0.00623 0.0
O178 O 0.78199 0.17953 0.02265 0.0
C179 C 0.8026 0.17353 0.05684 0.0
O180 O 0.81343 0.179 0.04492 0.0
O181 O 0.76353 0.12288 0.02439 0.0
C182 C 0.18503 0.48758 0.21984 0.0
O183 O 0.18208 0.48728 0.20152 0.0
O184 O 0.154 0.50913 0.19724 0.0
Zn185 Zn 0.16617 0.5172 0.22369 0.0
O186 O 0.14881 0.51932 0.24163 0.0
C187 C 0.19176 0.54814 0.2141 0.0
O188 O 0.18997 0.53698 0.19759 0.0
O189 O 0.17921 0.49882 0.23125 0.0
C190 C 0.14367 0.5345 0.24537 0.0
O191 O 0.14942 0.54881 0.23672 0.0
C192 C 0.14207 0.49388 0.19281 0.0
O193 O 0.13834 0.48311 0.20564 0.0
O194 O 0.18289 0.54252 0.22684 0.0
C195 C 0.77233 0.90656 0.53059 0.0
O196 O 0.76863 0.88819 0.52398 0.0
O197 O 0.80392 0.88602 0.56168 0.0
Zn198 Zn 0.80664 0.89955 0.53841 0.0
O199 O 0.80237 0.88095 0.51296 0.0
C200 C 0.84501 0.91463 0.54793 0.0
O201 O 0.844 0.89955 0.55597 0.0
O202 O 0.78795 0.91494 0.53757 0.0
C203 C 0.81469 0.87632 0.50474 0.0
O204 O 0.83063 0.88245 0.51348 0.0
C205 C 0.81007 0.8721 0.56529 0.0
O206 O 0.81909 0.86466 0.55314 0.0
O207 O 0.83104 0.91774 0.54034 0.0
C208 C 0.90668 0.09726 0.25779 0.0
O209 O 0.92332 0.10383 0.2571 0.0
O210 O 0.93162 0.05741 0.22959 0.0
Zn211 Zn 0.91715 0.05619 0.25542 0.0
O212 O 0.93364 0.05919 0.28303 0.0
C213 C 0.89616 0.01825 0.26589 0.0
O214 O 0.90113 0.02783 0.28321 0.0
O215 O 0.90134 0.07897 0.25733 0.0
C216 C 0.9408 0.04635 0.28852 0.0
O217 O 0.93937 0.03074 0.27619 0.0
C218 C 0.9411 0.04651 0.22247 0.0
O219 O 0.9435 0.03289 0.23162 0.0
O220 O 0.90043 0.02705 0.25209 0.0
C221 C 0.32098 0.61698 0.54235 0.0
O222 O 0.32851 0.63527 0.54588 0.0
O223 O 0.29316 0.65011 0.55577 0.0
Zn224 Zn 0.29252 0.63177 0.53174 0.0
O225 O 0.30384 0.64547 0.51237 0.0
C226 C 0.25864 0.63132 0.51653 0.0
O227 O 0.26598 0.64962 0.51897 0.0
O228 O 0.30483 0.61167 0.5365 0.0
C229 C 0.30125 0.63715 0.49521 0.0
O230 O 0.29167 0.61961 0.49075 0.0
C231 C 0.29774 0.66803 0.55652 0.0
O232 O 0.3028 0.67476 0.5415 0.0
O233 O 0.26765 0.62005 0.52116 0.0
C234 C 0.4046 0.59583 0.75797 0.0
O235 O 0.42142 0.60287 0.75913 0.0
O236 O 0.42966 0.55537 0.72901 0.0
Zn237 Zn 0.41517 0.55458 0.7549 0.0
O238 O 0.43049 0.55704 0.78332 0.0
C239 C 0.40175 0.51224 0.759 0.0
O240 O 0.41728 0.51581 0.76861 0.0
O241 O 0.39934 0.57738 0.75628 0.0
C242 C 0.44482 0.55243 0.78827 0.0
O243 O 0.45324 0.54645 0.77468 0.0
C244 C 0.4408 0.5462 0.72277 0.0
O245 O 0.44557 0.53448 0.73314 0.0
O246 O 0.39765 0.5259 0.75152 0.0
C247 C 0.69608 0.01928 0.7578 0.0
O248 O 0.69685 0.03294 0.77217 0.0
O249 O 0.64699 0.0201 0.72349 0.0
Zn250 Zn 0.66573 0.03075 0.74544 0.0
O251 O 0.65561 0.03048 0.76999 0.0
C252 C 0.66975 0.07051 0.74237 0.0
O253 O 0.65276 0.06652 0.74152 0.0
O254 O 0.68354 0.01544 0.7445 0.0
C255 C 0.66078 0.04421 0.78387 0.0
O256 O 0.67328 0.05882 0.78235 0.0
C257 C 0.63162 0.02206 0.72427 0.0
O258 O 0.62773 0.03086 0.73997 0.0
O259 O 0.67767 0.05744 0.74367 0.0
C260 C 0.80498 0.65849 0.98919 0.0
O261 O 0.8077 0.6743 0.98215 0.0
O262 O 0.77301 0.6849 0.01932 0.0
Zn263 Zn 0.77129 0.66747 0.99363 0.0
O264 O 0.77397 0.68264 0.97153 0.0
C265 C 0.7333 0.65475 0.98773 0.0
O266 O 0.7346 0.67263 0.98608 0.0
O267 O 0.79036 0.65257 0.9949 0.0
C268 C 0.76566 0.67601 0.95499 0.0
O269 O 0.75472 0.6592 0.95203 0.0
C270 C 0.78658 0.69024 0.0315 0.0
O271 O 0.80087 0.68553 0.02712 0.0
O272 O 0.74716 0.64902 0.99033 0.0
C273 C 0.90652 0.60143 0.79087 0.0
O274 O 0.9235 0.6074 0.79269 0.0
O275 O 0.92883 0.56831 0.77271 0.0
Zn276 Zn 0.9143 0.56564 0.79386 0.0
O277 O 0.92948 0.56888 0.81865 0.0
C278 C 0.90223 0.52611 0.77681 0.0
O279 O 0.91682 0.52968 0.76939 0.0
O280 O 0.8998 0.58449 0.79285 0.0
C281 C 0.94152 0.56007 0.8182 0.0
O282 O 0.94309 0.5498 0.80216 0.0
C283 C 0.94417 0.57846 0.77374 0.0
O284 O 0.95205 0.58876 0.79004 0.0
O285 O 0.89843 0.5393 0.788 0.0
C286 C 0.76877 0.45907 0.48132 0.0
O287 O 0.76332 0.44056 0.48006 0.0
O288 O 0.79146 0.44312 0.52086 0.0
Zn289 Zn 0.79883 0.44999 0.49648 0.0
O290 O 0.79557 0.4264 0.47699 0.0
C291 C 0.83334 0.45463 0.51161 0.0
O292 O 0.82583 0.43848 0.51653 0.0
O293 O 0.78454 0.46701 0.48762 0.0
C294 C 0.80011 0.42823 0.46079 0.0
O295 O 0.80672 0.44537 0.45746 0.0
C296 C 0.78078 0.42779 0.5222 0.0
O297 O 0.77327 0.4157 0.50673 0.0
O298 O 0.82416 0.46296 0.50206 0.0
C299 C 0.67915 0.4714 0.27112 0.0
O300 O 0.66231 0.46421 0.26744 0.0
O301 O 0.65046 0.50925 0.24944 0.0
Zn302 Zn 0.66871 0.51286 0.2761 0.0
O303 O 0.65562 0.51322 0.30293 0.0
C304 C 0.68136 0.55696 0.2778 0.0
O305 O 0.6647 0.55592 0.27795 0.0
O306 O 0.68439 0.48993 0.27469 0.0
C307 C 0.6418 0.51869 0.30718 0.0
O308 O 0.6333 0.52493 0.29396 0.0
C309 C 0.65358 0.51928 0.23616 0.0
O310 O 0.6686 0.53181 0.23847 0.0
O311 O 0.68633 0.54129 0.27756 0.0
La312 La 0.02487 0.02048 1.00465 0.0
La313 La 0.05902 0.04505 0.02657 0.0
C314 C 0.99313 1.00411 0.99736 0.0
C315 C 0.97785 0.00958 1.00411 0.0
C316 C 0.9625 0.00611 0.99163 0.0
C317 C 0.94897 0.0142 0.99686 0.0
C318 C 0.95069 0.02597 0.01462 0.0
C319 C 0.96579 0.02865 0.02741 0.0
C320 C 0.97925 0.0205 0.02219 0.0
C321 C 0.04945 0.02086 0.98053 0.0
C322 C 0.03417 0.06484 1.00436 0.0
C323 C 0.09038 0.06307 0.03495 0.0
C324 C 0.10675 0.06246 0.02713 0.0
C325 C 0.12045 0.05893 0.03857 0.0
C326 C 0.13554 0.05665 0.03112 0.0
C327 C 0.13719 0.05778 0.01202 0.0
C328 C 0.12372 0.06193 1.00069 0.0
C329 C 0.1087 0.0645 0.00827 0.0
C330 C 0.03377 0.04424 0.05019 0.0
C331 C 0.05022 1.00042 0.02586 0.0
O332 O 1.00134 0.0154 0.9869 0.0
O333 O 1.0038 0.99985 0.01004 0.0
O334 O 0.03334 0.01155 0.97712 0.0
O335 O 0.05143 0.02911 0.99793 0.0
O336 O 0.02162 0.04918 1.00283 0.0
O337 O 0.0502 0.06571 0.01167 0.0
O338 O 0.08338 0.04823 0.04218 0.0
O339 O 0.07878 0.06887 0.02483 0.0
O340 O 0.05002 0.05281 0.05452 0.0
O341 O 0.03267 0.03659 0.03282 0.0
O342 O 0.06255 0.01635 0.02778 0.0
O343 O 0.03417 0.99922 0.01826 0.0
H344 H 0.9613 0.99788 0.97754 0.0
H345 H 0.93757 0.01205 0.98661 0.0
H346 H 0.96741 0.03747 0.04125 0.0
H347 H 0.99104 0.02335 0.03196 0.0
H348 H 0.11928 0.05743 0.05319 0.0
H349 H 0.14565 0.05325 0.04011 0.0
H350 H 0.12474 0.06298 0.98597 0.0
H351 H 0.09847 0.0676 0.99921 0.0
La352 La 0.29956 0.78277 0.23972 0.0
La353 La 0.29036 0.78517 0.28089 0.0
C354 C 0.2974 0.77816 0.20416 0.0
C355 C 0.29207 0.78895 0.19008 0.0
C356 C 0.28792 0.78041 0.17097 0.0
C357 C 0.28264 0.79057 0.15751 0.0
C358 C 0.28141 0.80943 0.16304 0.0
C359 C 0.28528 0.81778 0.18231 0.0
C360 C 0.29058 0.80763 0.19572 0.0
C361 C 0.32495 0.78202 0.26603 0.0
C362 C 0.30587 0.82248 0.265 0.0
C363 C 0.2941 0.78647 0.3161 0.0
C364 C 0.29954 0.77438 0.32875 0.0
C365 C 0.30466 0.78174 0.34802 0.0
C366 C 0.30959 0.77025 0.36028 0.0
C367 C 0.30963 0.75123 0.35338 0.0
C368 C 0.30479 0.74405 0.3339 0.0
C369 C 0.29966 0.75549 0.32172 0.0
C370 C 0.26556 0.79327 0.25795 0.0
C371 C 0.28131 0.7449 0.25416 0.0
O372 O 0.31177 0.78653 0.21548 0.0
O373 O 0.28501 0.77035 0.21329 0.0
O374 O 0.32725 0.78879 0.25056 0.0
O375 O 0.30896 0.77452 0.26544 0.0
O376 O 0.30102 0.81289 0.24753 0.0
O377 O 0.30517 0.81392 0.27997 0.0
O378 O 0.27927 0.77905 0.30518 0.0
O379 O 0.30621 0.79503 0.30699 0.0
O380 O 0.26516 0.79308 0.27589 0.0
O381 O 0.27953 0.78918 0.25441 0.0
O382 O 0.28196 0.75446 0.27147 0.0
O383 O 0.28751 0.75306 0.24016 0.0
H384 H 0.28889 0.76593 0.16645 0.0
H385 H 0.27992 0.78383 0.14275 0.0
H386 H 0.28421 0.83218 0.18703 0.0
H387 H 0.2935 0.81435 0.21047 0.0
H388 H 0.3046 0.7963 0.35365 0.0
H389 H 0.31293 0.77615 0.37524 0.0
H390 H 0.30488 0.72957 0.32807 0.0
H391 H 0.29571 0.74957 0.30684 0.0
La392 La 0.5606 0.03475 0.52071 0.0
La393 La 0.52094 0.02881 0.51733 0.0
C394 C 0.59166 0.03341 0.52992 0.0
C395 C 0.60471 0.02213 0.52638 0.0
C396 C 0.62186 0.03186 0.52562 0.0
C397 C 0.63505 0.02213 0.52436 0.0
C398 C 0.6315 1.00234 0.52401 0.0
C399 C 0.61411 0.99246 0.52395 0.0
C400 C 0.60085 1.00225 0.52515 0.0
C401 C 0.54564 0.04073 0.48897 0.0
C402 C 0.53532 0.99285 0.5049 0.0
C403 C 0.48962 0.03014 0.50959 0.0
C404 C 0.47772 0.04322 0.51022 0.0
C405 C 0.46605 0.04286 0.52375 0.0
C406 C 0.45318 0.05309 0.52301 0.0
C407 C 0.4515 0.06389 0.50862 0.0
C408 C 0.46353 0.06469 0.49539 0.0
C409 C 0.4764 0.05442 0.49615 0.0
C410 C 0.53617 0.02219 0.54862 0.0
C411 C 0.546 0.07063 0.53207 0.0
O412 O 0.58689 0.04195 0.51635 0.0
O413 O 0.57866 0.02646 0.53877 0.0
O414 O 0.5613 0.04966 0.49644 0.0
O415 O 0.53971 0.02812 0.49831 0.0
O416 O 0.5512 1.0035 0.51168 0.0
O417 O 0.52158 1.00026 0.50387 0.0
O418 O 0.49603 0.02661 0.5257 0.0
O419 O 0.50099 0.03157 0.49751 0.0
O420 O 0.52078 0.01277 0.54066 0.0
O421 O 0.54187 0.03537 0.5398 0.0
O422 O 0.53045 0.06008 0.52411 0.0
O423 O 0.55948 0.06303 0.53466 0.0
H424 H 0.62517 0.04718 0.52646 0.0
H425 H 0.64812 0.03024 0.52392 0.0
H426 H 0.6108 0.97727 0.52383 0.0
H427 H 0.58772 0.99437 0.52575 0.0
H428 H 0.46655 0.03422 0.53466 0.0
H429 H 0.44439 0.05234 0.53365 0.0
H430 H 0.46261 0.07266 0.48398 0.0
H431 H 0.48499 0.05478 0.48534 0.0
La432 La 0.27267 0.28564 0.76118 0.0
La433 La 0.31061 0.28217 0.76606 0.0
C434 C 0.24069 0.28353 0.76302 0.0
C435 C 0.22713 0.28141 0.77607 0.0
C436 C 0.22207 0.29751 0.78469 0.0
C437 C 0.20779 0.29561 0.79488 0.0
C438 C 0.19802 0.27751 0.79668 0.0
C439 C 0.20339 0.2614 0.78851 0.0
C440 C 0.21769 0.26332 0.77828 0.0
C441 C 0.29663 0.31614 0.75596 0.0
C442 C 0.29377 0.29274 0.80288 0.0
C443 C 0.34305 0.29235 0.76517 0.0
C444 C 0.35725 0.28969 0.75362 0.0
C445 C 0.36861 0.27848 0.75845 0.0
C446 C 0.38334 0.27811 0.74915 0.0
C447 C 0.38719 0.28907 0.73486 0.0
C448 C 0.37562 0.30002 0.72987 0.0
C449 C 0.36093 0.30034 0.73909 0.0
C450 C 0.28888 0.24769 0.76574 0.0
C451 C 0.28822 0.27066 0.72495 0.0
O452 O 0.25269 0.29952 0.76607 0.0
O453 O 0.24699 0.26886 0.75748 0.0
O454 O 0.28118 0.30983 0.74654 0.0
O455 O 0.29796 0.30544 0.76816 0.0
O456 O 0.27863 0.2894 0.79207 0.0
O457 O 0.30839 0.29179 0.79576 0.0
O458 O 0.33584 0.27876 0.77404 0.0
O459 O 0.33166 0.30071 0.75815 0.0
O460 O 0.30574 0.25127 0.76724 0.0
O461 O 0.2853 0.26352 0.76426 0.0
O462 O 0.30373 0.27578 0.73523 0.0
O463 O 0.2738 0.27168 0.73246 0.0
H464 H 0.22888 0.31166 0.78312 0.0
H465 H 0.20428 0.30837 0.80119 0.0
H466 H 0.19613 0.24722 0.78938 0.0
H467 H 0.221 0.25056 0.77162 0.0
H468 H 0.36636 0.27034 0.76975 0.0
H469 H 0.39177 0.26932 0.75329 0.0
H470 H 0.3782 0.30896 0.71926 0.0
H471 H 0.35275 0.30949 0.7352 0.0
La472 La 0.04277 0.05256 0.52209 0.0
La473 La 0.03938 0.01147 0.50924 0.0
C474 C 0.05503 0.0879 0.53247 0.0
C475 C 0.05854 0.10429 0.52265 0.0
C476 C 0.063 0.12277 0.53317 0.0
C477 C 0.06677 0.13849 0.52403 0.0
C478 C 0.06614 0.13598 0.50417 0.0
C479 C 0.06146 0.11735 0.49368 0.0
C480 C 0.05768 0.10165 0.50284 0.0
C481 C 0.01287 0.03055 0.52646 0.0
C482 C 0.02519 0.0359 0.47952 0.0
C483 C 0.02748 0.97614 0.50006 0.0
C484 C 0.02514 0.96096 0.5116 0.0
C485 C 0.03852 0.96011 0.52533 0.0
C486 C 0.0357 0.9466 0.53721 0.0
C487 C 0.01938 0.9338 0.53579 0.0
C488 C 0.00602 0.93469 0.52199 0.0
C489 C 0.0089 0.94813 0.51 0.0
C490 C 0.06933 0.03361 0.50516 0.0
C491 C 0.05671 0.02775 0.55183 0.0
O492 O 0.03867 0.07945 0.53214 0.0
O493 O 0.06456 0.07569 0.52901 0.0
O494 O 0.01472 0.04756 0.52263 0.0
O495 O 0.02762 0.02711 0.52921 0.0
O496 O 0.03251 0.05158 0.49214 0.0
O497 O 0.02597 0.01888 0.48358 0.0
O498 O 0.0435 0.98476 0.49869 0.0
O499 O 0.01769 0.98814 0.50315 0.0
O500 O 0.06752 0.01668 0.50924 0.0
O501 O 0.05457 0.03692 0.50215 0.0
O502 O 0.0492 0.01218 0.5392 0.0
O503 O 0.05621 0.04485 0.54771 0.0
H504 H 0.06379 0.12504 0.54848 0.0
H505 H 0.07058 0.15259 0.53259 0.0
H506 H 0.06054 0.11488 0.47836 0.0
H507 H 0.05409 0.08747 0.49447 0.0
H508 H 0.05112 0.97003 0.52709 0.0
H509 H 0.04635 0.94618 0.54748 0.0
H510 H 0.99322 0.92527 0.5207 0.0
H511 H 0.99831 0.94876 0.49974 0.0
La512 La 0.30869 0.79759 0.76803 0.0
La513 La 0.27464 0.76963 0.76454 0.0
C514 C 0.33928 0.81559 0.78077 0.0
C515 C 0.35588 0.80999 0.78259 0.0
C516 C 0.36029 0.79756 0.76801 0.0
C517 C 0.37554 0.79132 0.77068 0.0
C518 C 0.38641 0.79714 0.78805 0.0
C519 C 0.38197 0.80959 0.80255 0.0
C520 C 0.36687 0.816 0.79981 0.0
C521 C 0.29444 0.78335 0.73312 0.0
C522 C 0.30782 0.75186 0.76625 0.0
C523 C 0.2442 0.75053 0.75252 0.0
C524 C 0.22674 0.75427 0.75075 0.0
C525 C 0.21413 0.74532 0.76103 0.0
C526 C 0.19729 0.74794 0.75886 0.0
C527 C 0.19271 0.75937 0.74618 0.0
C528 C 0.2054 0.76861 0.73616 0.0
C529 C 0.22229 0.76616 0.73847 0.0
C530 C 0.28901 0.78452 0.79945 0.0
C531 C 0.27545 0.81536 0.76625 0.0
O532 O 0.33208 0.81532 0.76357 0.0
O533 O 0.32802 0.80809 0.79135 0.0
O534 O 0.30391 0.80063 0.73843 0.0
O535 O 0.29443 0.77462 0.74691 0.0
O536 O 0.31697 0.77007 0.76958 0.0
O537 O 0.29055 0.7481 0.76261 0.0
O538 O 0.25168 0.75166 0.76977 0.0
O539 O 0.25508 0.75825 0.74164 0.0
O540 O 0.27958 0.76721 0.79449 0.0
O541 O 0.28883 0.79271 0.78536 0.0
O542 O 0.26628 0.79711 0.76252 0.0
O543 O 0.29272 0.81911 0.77026 0.0
H544 H 0.35184 0.79243 0.7547 0.0
H545 H 0.37866 0.78165 0.75933 0.0
H546 H 0.39024 0.81447 0.81601 0.0
H547 H 0.36361 0.82543 0.81127 0.0
H548 H 0.21723 0.73604 0.77052 0.0
H549 H 0.18768 0.74051 0.7666 0.0
H550 H 0.20221 0.77761 0.7264 0.0
H551 H 0.23173 0.77337 0.73042 0.0
La552 La 0.54801 0.02108 0.06095 0.0
La553 La 0.53623 0.01802 0.01931 0.0
C554 C 0.55168 0.02725 0.09657 0.0
C555 C 0.5408 0.03248 0.11069 0.0
C556 C 0.54691 0.03518 0.12998 0.0
C557 C 0.53693 0.04123 0.1435 0.0
C558 C 0.5207 0.04458 0.13782 0.0
C559 C 0.5146 0.04163 0.11842 0.0
C560 C 0.52462 0.03574 0.10495 0.0
C561 C 0.5566 0.99388 0.03853 0.0
C562 C 0.50892 1.0009 0.04334 0.0
C563 C 0.53369 0.01255 0.98368 0.0
C564 C 0.54562 0.01857 0.97016 0.0
C565 C 0.53896 0.02125 0.95237 0.0
C566 C 0.55019 0.02742 0.93954 0.0
C567 C 0.56828 0.03112 0.94442 0.0
C568 C 0.57491 0.02887 0.96247 0.0
C569 C 0.56367 0.02242 0.97514 0.0
C570 C 0.52685 0.04467 0.04163 0.0
C571 C 0.5751 0.04008 0.03714 0.0
O572 O 0.54611 0.01022 0.08628 0.0
O573 O 0.55687 0.04028 0.08635 0.0
O574 O 0.56583 1.00304 0.05426 0.0
O575 O 0.54256 0.99891 0.03672 0.0
O576 O 0.5196 0.01131 0.05827 0.0
O577 O 0.51395 0.99864 0.02632 0.0
O578 O 0.52871 0.02628 0.99375 0.0
O579 O 0.53783 1.00053 0.99397 0.0
O580 O 0.51779 0.03519 0.02588 0.0
O581 O 0.54119 0.04015 0.04367 0.0
O582 O 0.56382 0.03213 0.0219 0.0
O583 O 0.57123 0.03917 0.05443 0.0
H584 H 0.55945 0.03279 0.13457 0.0
H585 H 0.54185 0.04318 0.15838 0.0
H586 H 0.50225 0.04421 0.11364 0.0
H587 H 0.51985 0.03402 0.09007 0.0
H588 H 0.52506 0.01843 0.94834 0.0
H589 H 0.54472 0.0288 0.92563 0.0
H590 H 0.58879 0.03175 0.96665 0.0
H591 H 0.56912 0.02026 0.98871 0.0
La592 La 0.30096 0.29817 0.2714 0.0
La593 La 0.27895 0.26172 0.25285 0.0
C594 C 0.32078 0.33082 0.28065 0.0
C595 C 0.31555 0.34882 0.2849 0.0
C596 C 0.30126 0.34953 0.29486 0.0
C597 C 0.29301 0.36434 0.29437 0.0
C598 C 0.29886 0.3786 0.28384 0.0
C599 C 0.31398 0.37873 0.27518 0.0
C600 C 0.32227 0.3639 0.27568 0.0
C601 C 0.28885 0.27601 0.29552 0.0
C602 C 0.26191 0.29486 0.26861 0.0
C603 C 0.25801 0.22997 0.24107 0.0
C604 C 0.26168 0.21245 0.23141 0.0
C605 C 0.27343 0.21344 0.21794 0.0
C606 C 0.28198 0.19896 0.21398 0.0
C607 C 0.27909 0.18347 0.22365 0.0
C608 C 0.26561 0.18132 0.23509 0.0
C609 C 0.25696 0.19575 0.23894 0.0
C610 C 0.29127 0.28455 0.22935 0.0
C611 C 0.31824 0.26454 0.25663 0.0
O612 O 0.31734 0.31909 0.29258 0.0
O613 O 0.31621 0.32215 0.26305 0.0
O614 O 0.29074 0.29425 0.29798 0.0
O615 O 0.29424 0.27069 0.2801 0.0
O616 O 0.27688 0.30688 0.26853 0.0
O617 O 0.26044 0.27631 0.26532 0.0
O618 O 0.25968 0.24415 0.23176 0.0
O619 O 0.26554 0.23547 0.25857 0.0
O620 O 0.29031 0.26648 0.22687 0.0
O621 O 0.2853 0.28922 0.2445 0.0
O622 O 0.30291 0.25251 0.25467 0.0
O623 O 0.32007 0.2831 0.26134 0.0
H624 H 0.29559 0.33792 0.30183 0.0
H625 H 0.28123 0.36376 0.3009 0.0
H626 H 0.31878 0.38972 0.26712 0.0
H627 H 0.33313 0.3635 0.26774 0.0
H628 H 0.27729 0.22616 0.21183 0.0
H629 H 0.29207 0.2008 0.20483 0.0
H630 H 0.26307 0.16959 0.24281 0.0
H631 H 0.24796 0.19475 0.24937 0.0
La632 La 0.54078 0.55052 0.02262 0.0
La633 La 0.53747 0.50982 0.00896 0.0
C634 C 0.55387 0.58542 0.03483 0.0
C635 C 0.56017 0.602 0.02602 0.0
C636 C 0.56977 0.6191 0.03727 0.0
C637 C 0.5761 0.6349 0.02893 0.0
C638 C 0.57285 0.63377 0.00921 0.0
C639 C 0.56344 0.61646 0.99798 0.0
C640 C 0.55716 0.60069 0.00632 0.0
C641 C 0.5106 0.52869 0.02659 0.0
C642 C 0.52373 0.53525 0.97986 0.0
C643 C 0.52668 0.47452 0.99684 0.0
C644 C 0.52299 0.45756 0.00582 0.0
C645 C 0.52074 0.43948 0.99489 0.0
C646 C 0.51715 0.42324 1.0033 0.0
C647 C 0.51559 0.4248 0.02278 0.0
C648 C 0.51792 0.44306 0.03365 0.0
C649 C 0.52175 0.45928 0.02528 0.0
C650 C 0.56734 0.53258 0.00507 0.0
C651 C 0.55435 0.52504 0.05172 0.0
O652 O 0.53714 0.57781 0.0316 0.0
O653 O 0.56291 0.57256 0.03299 0.0
O654 O 0.5129 0.54606 0.02369 0.0
O655 O 0.52519 0.52476 0.02911 0.0
O656 O 0.53197 0.55062 0.99245 0.0
O657 O 0.52348 0.51801 0.98403 0.0
O658 O 0.54299 0.48369 0.99868 0.0
O659 O 0.51648 0.48608 0.99978 0.0
O660 O 0.56577 0.51571 0.00913 0.0
O661 O 0.55248 0.53554 1.00219 0.0
O662 O 0.54623 0.50962 0.03913 0.0
O663 O 0.55444 0.54221 0.04756 0.0
H664 H 0.57232 0.62024 0.0525 0.0
H665 H 0.58318 0.6481 0.03795 0.0
H666 H 0.56097 0.61508 0.98272 0.0
H667 H 0.54996 0.5875 0.99741 0.0
H668 H 0.52181 0.43792 0.97987 0.0
H669 H 0.5158 0.40949 0.99453 0.0
H670 H 0.51659 0.44488 0.04861 0.0
H671 H 0.52369 0.47315 0.03401 0.0
La672 La 0.81139 0.30027 0.27089 0.0
La673 La 0.77732 0.2714 0.26414 0.0
C674 C 0.841 0.31885 0.28651 0.0
C675 C 0.85788 0.31403 0.28848 0.0
C676 C 0.86175 0.30015 0.27497 0.0
C677 C 0.87716 0.29435 0.27794 0.0
C678 C 0.88881 0.30218 0.29455 0.0
C679 C 0.88496 0.31622 0.30792 0.0
C680 C 0.8696 0.32209 0.30489 0.0
C681 C 0.79983 0.28668 0.23521 0.0
C682 C 0.8111 0.25455 0.26829 0.0
C683 C 0.74815 0.2512 0.24854 0.0
C684 C 0.73049 0.25358 0.24481 0.0
C685 C 0.71849 0.23989 0.23146 0.0
C686 C 0.70192 0.24239 0.22668 0.0
C687 C 0.6971 0.25872 0.23512 0.0
C688 C 0.7091 0.27228 0.24881 0.0
C689 C 0.72571 0.26973 0.25361 0.0
C690 C 0.78885 0.2861 0.2999 0.0
C691 C 0.7776 0.31708 0.26651 0.0
O692 O 0.83464 0.31991 0.26935 0.0
O693 O 0.82935 0.30939 0.2955 0.0
O694 O 0.80909 0.30394 0.24132 0.0
O695 O 0.7987 0.2776 0.24876 0.0
O696 O 0.82001 0.27287 0.27221 0.0
O697 O 0.79389 0.2505 0.26372 0.0
O698 O 0.75411 0.25196 0.26629 0.0
O699 O 0.75961 0.26084 0.23948 0.0
O700 O 0.77943 0.26884 0.29435 0.0
O701 O 0.78993 0.29427 0.28582 0.0
O702 O 0.76876 0.29873 0.26179 0.0
O703 O 0.79471 0.32112 0.27202 0.0
H704 H 0.85269 0.29353 0.26233 0.0
H705 H 0.87977 0.2834 0.2675 0.0
H706 H 0.89383 0.32266 0.32073 0.0
H707 H 0.86673 0.33267 0.31553 0.0
H708 H 0.72202 0.22736 0.22454 0.0
H709 H 0.69288 0.23153 0.21633 0.0
H710 H 0.7058 0.28506 0.25544 0.0
H711 H 0.73489 0.28046 0.26395 0.0
La712 La 0.05575 0.54084 0.53227 0.0
La713 La 0.03809 0.53571 0.49227 0.0
C714 C 0.06414 0.54743 0.56755 0.0
C715 C 0.05433 0.54735 0.58374 0.0
C716 C 0.06151 0.54342 0.60073 0.0
C717 C 0.0522 0.5431 0.61623 0.0
C718 C 0.03557 0.54668 0.61489 0.0
C719 C 0.02833 0.55034 0.59769 0.0
C720 C 0.03763 0.55065 0.58222 0.0
C721 C 0.06103 0.51267 0.50827 0.0
C722 C 0.01594 0.51908 0.52117 0.0
C723 C 0.0294 0.52904 0.45692 0.0
C724 C 0.03829 0.53285 0.44047 0.0
C725 C 0.03041 0.5235 0.42233 0.0
C726 C 0.03874 0.52699 0.40653 0.0
C727 C 0.05512 0.5398 0.40872 0.0
C728 C 0.06299 0.54914 0.42694 0.0
C729 C 0.05458 0.54576 0.44271 0.0
C730 C 0.0327 0.56384 0.51642 0.0
C731 C 0.07794 0.55772 0.50336 0.0
O732 O 0.06243 0.53077 0.55702 0.0
O733 O 0.06317 0.56071 0.55745 0.0
O734 O 0.07272 0.52298 0.52174 0.0
O735 O 0.04704 0.51768 0.50919 0.0
O736 O 0.02794 0.53043 0.53446 0.0
O737 O 0.01842 0.51635 0.50319 0.0
O738 O 0.02753 0.54404 0.46811 0.0
O739 O 0.03452 0.51692 0.46637 0.0
O740 O 0.02108 0.55353 0.50289 0.0
O741 O 0.04671 0.55889 0.5154 0.0
O742 O 0.06566 0.54715 0.48996 0.0
O743 O 0.076 0.55962 0.52148 0.0
H744 H 0.07431 0.54064 0.60201 0.0
H745 H 0.05801 0.54004 0.62925 0.0
H746 H 0.01566 0.55343 0.59633 0.0
H747 H 0.03186 0.55365 0.56914 0.0
H748 H 0.01784 0.51348 0.42039 0.0
H749 H 0.03251 0.51943 0.39262 0.0
H750 H 0.07558 0.55914 0.42898 0.0
H751 H 0.06078 0.55331 0.45657 0.0
La752 La 0.77472 0.78803 0.26449 0.0
La753 La 0.81208 0.78325 0.26893 0.0
C754 C 0.74301 0.78774 0.26597 0.0
C755 C 0.72875 0.78557 0.27802 0.0
C756 C 0.71802 0.79837 0.27824 0.0
C757 C 0.70335 0.79587 0.28779 0.0
C758 C 0.69894 0.78043 0.29741 0.0
C759 C 0.71 0.76786 0.29765 0.0
C760 C 0.72471 0.77036 0.288 0.0
C761 C 0.79937 0.8179 0.25898 0.0
C762 C 0.79589 0.79427 0.30594 0.0
C763 C 0.84452 0.79199 0.26758 0.0
C764 C 0.85836 0.78833 0.25588 0.0
C765 C 0.87057 0.77869 0.26221 0.0
C766 C 0.88512 0.77772 0.25277 0.0
C767 C 0.88799 0.78655 0.23682 0.0
C768 C 0.8755 0.79578 0.23027 0.0
C769 C 0.86094 0.79664 0.23961 0.0
C770 C 0.78969 0.74925 0.26913 0.0
C771 C 0.78937 0.77195 0.22812 0.0
O772 O 0.75568 0.80312 0.2705 0.0
O773 O 0.74856 0.77269 0.2598 0.0
O774 O 0.78401 0.81173 0.24938 0.0
O775 O 0.80033 0.80729 0.27133 0.0
O776 O 0.78059 0.79063 0.29534 0.0
O777 O 0.8104 0.79369 0.29848 0.0
O778 O 0.83698 0.77889 0.2768 0.0
O779 O 0.8335 0.8008 0.26054 0.0
O780 O 0.80652 0.75242 0.27062 0.0
O781 O 0.78647 0.76521 0.2675 0.0
O782 O 0.80496 0.77685 0.23817 0.0
O783 O 0.77518 0.77346 0.23585 0.0
H784 H 0.72079 0.81018 0.27063 0.0
H785 H 0.69541 0.80605 0.28755 0.0
H786 H 0.70699 0.75576 0.3048 0.0
H787 H 0.73269 0.76019 0.28803 0.0
H788 H 0.86913 0.77234 0.27481 0.0
H789 H 0.89422 0.77021 0.25816 0.0
H790 H 0.87725 0.80307 0.21831 0.0
H791 H 0.85203 0.80447 0.2344 0.0
La792 La 0.80239 0.28871 0.74139 0.0
La793 La 0.79693 0.29913 0.78328 0.0
C794 C 0.80607 0.28921 0.70729 0.0
C795 C 0.80407 0.30323 0.69519 0.0
C796 C 0.81624 0.30805 0.6828 0.0
C797 C 0.81495 0.32206 0.67193 0.0
C798 C 0.80134 0.33137 0.67314 0.0
C799 C 0.78928 0.3266 0.68578 0.0
C800 C 0.79072 0.3128 0.69682 0.0
C801 C 0.82429 0.2805 0.76709 0.0
C802 C 0.81297 0.33149 0.76272 0.0
C803 C 0.80078 0.30151 0.81854 0.0
C804 C 0.79016 0.29239 0.83165 0.0
C805 C 0.77489 0.27828 0.82466 0.0
C806 C 0.76642 0.26719 0.83677 0.0
C807 C 0.77304 0.27026 0.85604 0.0
C808 C 0.78773 0.28525 0.86315 0.0
C809 C 0.79628 0.29618 0.85099 0.0
C810 C 0.76961 0.30189 0.7602 0.0
C811 C 0.77863 0.2581 0.75917 0.0
O812 O 0.81901 0.29507 0.72105 0.0
O813 O 0.7918 0.28005 0.71286 0.0
O814 O 0.81855 0.27028 0.75048 0.0
O815 O 0.81834 0.29515 0.76845 0.0
O816 O 0.80655 0.31973 0.74656 0.0
O817 O 0.81311 0.32572 0.77921 0.0
O818 O 0.79447 0.31358 0.80996 0.0
O819 O 0.80689 0.28976 0.80694 0.0
O820 O 0.77111 0.30561 0.77856 0.0
O821 O 0.78327 0.29724 0.75624 0.0
O822 O 0.78456 0.26866 0.77615 0.0
O823 O 0.78257 0.2638 0.74318 0.0
H824 H 0.82684 0.3011 0.68168 0.0
H825 H 0.8247 0.32568 0.66266 0.0
H826 H 0.77852 0.33329 0.68695 0.0
H827 H 0.78141 0.30966 0.70663 0.0
H828 H 0.77 0.27529 0.80971 0.0
H829 H 0.75509 0.25579 0.83097 0.0
H830 H 0.79325 0.28775 0.87789 0.0
H831 H 0.80811 0.30698 0.85653 0.0
La832 La 0.79955 0.79904 0.77287 0.0
La833 La 0.7746 0.76275 0.75528 0.0
C834 C 0.81464 0.83392 0.77992 0.0
C835 C 0.80818 0.85084 0.7778 0.0
C836 C 0.81786 0.86902 0.7866 0.0
C837 C 0.81141 0.88501 0.78472 0.0
C838 C 0.79508 0.88283 0.77432 0.0
C839 C 0.78554 0.86465 0.76538 0.0
C840 C 0.79213 0.84881 0.76691 0.0
C841 C 0.79551 0.77333 0.79527 0.0
C842 C 0.75897 0.79379 0.77447 0.0
C843 C 0.75927 0.72827 0.74429 0.0
C844 C 0.7649 0.71244 0.73361 0.0
C845 C 0.77274 0.71452 0.71708 0.0
C846 C 0.78141 0.70114 0.7095 0.0
C847 C 0.78269 0.68565 0.7185 0.0
C848 C 0.7736 0.68287 0.73416 0.0
C849 C 0.76474 0.6961 0.74156 0.0
C850 C 0.77978 0.78905 0.73332 0.0
C851 C 0.8155 0.76698 0.75493 0.0
O852 O 0.80828 0.82442 0.79275 0.0
O853 O 0.81467 0.82268 0.76401 0.0
O854 O 0.80987 0.78592 0.79522 0.0
O855 O 0.78373 0.77639 0.78399 0.0
O856 O 0.77393 0.80555 0.77329 0.0
O857 O 0.75685 0.77522 0.77055 0.0
O858 O 0.75694 0.74185 0.73518 0.0
O859 O 0.76789 0.73503 0.76121 0.0
O860 O 0.76492 0.77752 0.73365 0.0
O861 O 0.79094 0.78498 0.74442 0.0
O862 O 0.79966 0.75571 0.75235 0.0
O863 O 0.81865 0.7853 0.76182 0.0
H864 H 0.83033 0.87083 0.79493 0.0
H865 H 0.81895 0.89899 0.79167 0.0
H866 H 0.77305 0.86274 0.75703 0.0
H867 H 0.78468 0.83499 0.75953 0.0
H868 H 0.77308 0.72702 0.71063 0.0
H869 H 0.788 0.70357 0.69726 0.0
H870 H 0.77447 0.67135 0.74173 0.0
H871 H 0.75883 0.69426 0.75435 0.0
La872 La 0.52547 0.52117 0.50378 0.0
La873 La 0.55858 0.54582 0.5273 0.0
C874 C 0.49444 0.50274 0.49365 0.0
C875 C 0.47738 0.5046 0.49868 0.0
C876 C 0.46404 0.50344 0.48414 0.0
C877 C 0.44831 0.50719 0.48841 0.0
C878 C 0.44564 0.51214 0.50735 0.0
C879 C 0.45874 0.51248 0.52196 0.0
C880 C 0.47452 0.50878 0.51766 0.0
C881 C 0.55147 0.52306 0.48108 0.0
C882 C 0.53313 0.56605 0.50633 0.0
C883 C 0.58986 0.56376 0.53613 0.0
C884 C 0.60582 0.55942 0.53034 0.0
C885 C 0.6219 0.57247 0.53613 0.0
C886 C 0.63707 0.56784 0.53076 0.0
C887 C 0.63624 0.5501 0.51957 0.0
C888 C 0.61998 0.53729 0.51354 0.0
C889 C 0.60493 0.54188 0.51897 0.0
C890 C 0.53301 0.54399 0.55024 0.0
C891 C 0.55013 0.50116 0.52616 0.0
O892 O 0.50247 0.51609 0.48514 0.0
O893 O 0.50492 0.49853 0.50654 0.0
O894 O 0.53539 0.51396 0.47644 0.0
O895 O 0.55225 0.53047 0.49854 0.0
O896 O 0.52127 0.54964 0.50278 0.0
O897 O 0.5489 0.56757 0.51491 0.0
O898 O 0.58155 0.55204 0.54615 0.0
O899 O 0.57945 0.56711 0.5226 0.0
O900 O 0.5491 0.55317 0.55466 0.0
O901 O 0.53179 0.53637 0.53274 0.0
O902 O 0.56238 0.51723 0.5288 0.0
O903 O 0.53434 0.49995 0.51784 0.0
H904 H 0.46599 0.50016 0.46942 0.0
H905 H 0.43834 0.50661 0.4769 0.0
H906 H 0.45708 0.51641 0.53668 0.0
H907 H 0.48462 0.50973 0.52914 0.0
H908 H 0.62273 0.58608 0.54493 0.0
H909 H 0.64944 0.57793 0.53567 0.0
H910 H 0.61888 0.52368 0.5046 0.0
H911 H 0.59257 0.53169 0.51441 0.0
La912 La 0.05558 0.53423 0.01814 0.0
La913 La 0.01582 0.52919 0.01308 0.0
C914 C 0.08644 0.53211 0.02766 0.0
C915 C 0.09872 0.51946 0.02629 0.0
C916 C 0.11142 0.52198 0.01394 0.0
C917 C 0.12467 0.51224 0.01442 0.0
C918 C 0.12577 0.4998 0.02739 0.0
C919 C 0.11269 0.4968 0.03932 0.0
C920 C 0.09942 0.50656 0.03885 0.0
C921 C 0.04166 0.54066 0.98602 0.0
C922 C 0.0299 0.49274 1.00231 0.0
C923 C 0.98519 0.53161 1.00306 0.0
C924 C 0.97338 0.54478 1.00418 0.0
C925 C 0.96467 0.54775 0.0201 0.0
C926 C 0.9518 0.55804 0.01996 0.0
C927 C 0.94722 0.56559 1.00388 0.0
C928 C 0.95629 0.56304 0.98816 0.0
C929 C 0.96913 0.55273 0.98829 0.0
C930 C 0.02946 0.52218 0.04498 0.0
C931 C 0.04159 0.57056 0.02957 0.0
O932 O 0.0815 0.53825 0.01238 0.0
O933 O 0.07379 0.52827 0.03792 0.0
O934 O 0.05708 0.54969 0.99424 0.0
O935 O 0.0353 0.52797 0.99505 0.0
O936 O 0.04558 0.50304 0.01023 0.0
O937 O 0.01654 0.50057 0.99978 0.0
O938 O 0.9899 0.5256 0.01851 0.0
O939 O 0.99791 0.53495 0.99276 0.0
O940 O 0.01403 0.51335 0.03662 0.0
O941 O 0.03597 0.53505 0.03615 0.0
O942 O 0.02594 0.56036 0.02143 0.0
O943 O 0.0549 0.56267 0.03195 0.0
H944 H 0.11142 0.53194 1.00423 0.0
H945 H 0.13418 0.51467 1.00467 0.0
H946 H 0.11299 0.4874 0.04953 0.0
H947 H 0.09001 0.50442 0.04875 0.0
H948 H 0.96744 0.54171 0.03254 0.0
H949 H 0.94531 0.55992 0.03244 0.0
H950 H 0.95302 0.5684 0.97542 0.0
H951 H 0.97535 0.55045 0.97567 0.0
H952 H 0.99265 0.1988 0.91829 0.0
H953 H 0.99345 0.16932 0.93054 0.0
H954 H 0.03992 0.19894 0.96823 0.0
H955 H 0.0392 0.22816 0.95622 0.0
H956 H 0.04381 0.16577 0.9502 0.0
H957 H 0.99973 0.18656 0.98345 0.0
H958 H 0.97194 0.19531 0.987 0.0
H959 H 0.94404 0.14003 0.95703 0.0
H960 H 0.97167 0.13108 0.95297 0.0
H961 H 0.05451 0.10136 0.01102 0.0
H962 H 0.04947 0.12878 0.99792 0.0
H963 H 1.00072 0.09461 0.96743 0.0
H964 H 0.00542 0.06717 0.98114 0.0
H965 H 0.99654 0.12829 0.9792 0.0
H966 H 0.03956 0.1068 0.94601 0.0
H967 H 0.06691 0.09702 0.94247 0.0
H968 H 0.09615 0.15236 0.97082 0.0
H969 H 0.06898 0.16239 0.97488 0.0
C970 C 1.00297 0.19906 0.92928 0.0
C971 C 0.01585 0.216 0.9362 0.0
C972 C 1.00339 0.18216 0.93634 0.0
C973 C 0.01674 0.18176 0.95043 0.0
C974 C 0.02949 0.1987 0.95737 0.0
C975 C 0.02901 0.21552 0.95047 0.0
C976 C 0.01801 0.16377 0.95765 0.0
C977 C 0.0335 0.15771 0.9567 0.0
C978 C 1.0044 0.15269 0.96559 0.0
C979 C 0.9878 0.15826 0.96763 0.0
C980 C 0.98768 0.17636 0.97737 0.0
C981 C 0.97195 0.18134 0.97952 0.0
C982 C 0.95623 0.16827 0.97217 0.0
C983 C 0.95622 0.15018 0.96265 0.0
C984 C 0.97191 0.14515 0.9604 0.0
C985 C 0.04265 0.09962 1.00159 0.0
C986 C 0.03045 0.08188 0.99709 0.0
C987 C 0.03982 0.11538 0.99395 0.0
C988 C 0.02489 0.11386 0.98118 0.0
C989 C 0.01241 0.0963 0.9771 0.0
C990 C 0.01513 0.08054 0.98497 0.0
C991 C 0.02248 0.13052 0.97206 0.0
C992 C 0.0068 0.13627 0.97258 0.0
C993 C 0.03583 0.14124 0.96349 0.0
C994 C 0.05221 0.1353 0.96089 0.0
C995 C 0.05181 0.11685 0.9516 0.0
C996 C 0.06728 0.11126 0.94949 0.0
C997 C 0.08324 0.12405 0.95642 0.0
C998 C 0.08377 0.14247 0.96547 0.0
C999 C 0.06835 0.14812 0.96767 0.0
H1000 H 0.0952 0.11969 0.95477 0.0
H1001 H 0.94407 0.17213 0.9739 0.0
H1002 H 0.12133 0.81561 0.17879 0.0
H1003 H 0.14832 0.81493 0.19766 0.0
H1004 H 0.17149 0.80456 0.14647 0.0
H1005 H 0.14452 0.80482 0.12761 0.0
H1006 H 0.17954 0.78217 0.16848 0.0
H1007 H 0.18323 0.84864 0.17757 0.0
H1008 H 0.17361 0.87826 0.18549 0.0
H1009 H 0.16923 0.86804 0.24227 0.0
H1010 H 0.17862 0.83821 0.23461 0.0
H1011 H 0.26429 0.7941 0.21956 0.0
H1012 H 0.2405 0.79943 0.19839 0.0
H1013 H 0.21149 0.80599 0.24567 0.0
H1014 H 0.23524 0.80101 0.26669 0.0
H1015 H 0.2081 0.8318 0.22393 0.0
H1016 H 0.20387 0.76391 0.21294 0.0
H1017 H 0.21602 0.73615 0.20458 0.0
H1018 H 0.22319 0.75073 0.14975 0.0
H1019 H 0.21153 0.77896 0.15802 0.0
C1020 C 0.13221 0.81335 0.17155 0.0
C1021 C 0.13063 0.81029 0.15162 0.0
C1022 C 0.14773 0.81301 0.18238 0.0
C1023 C 0.16219 0.80982 0.17361 0.0
C1024 C 0.16064 0.80698 0.15371 0.0
C1025 C 0.14514 0.80722 0.1429 0.0
C1026 C 0.1787 0.80895 0.18505 0.0
C1027 C 0.18587 0.79321 0.18042 0.0
C1028 C 0.18714 0.8232 0.20078 0.0
C1029 C 0.18145 0.84109 0.20546 0.0
C1030 C 0.18008 0.85263 0.1917 0.0
C1031 C 0.17469 0.86947 0.19615 0.0
C1032 C 0.17076 0.875 0.21436 0.0
C1033 C 0.17226 0.86372 0.22816 0.0
C1034 C 0.17762 0.84685 0.22378 0.0
C1035 C 0.25286 0.79673 0.22538 0.0
C1036 C 0.25164 0.79697 0.24477 0.0
C1037 C 0.23921 0.79975 0.21328 0.0
C1038 C 0.22396 0.80292 0.22031 0.0
C1039 C 0.223 0.8036 0.23979 0.0
C1040 C 0.23661 0.80064 0.25181 0.0
C1041 C 0.20869 0.8049 0.20753 0.0
C1042 C 0.20177 0.82084 0.21191 0.0
C1043 C 0.20063 0.79098 0.19143 0.0
C1044 C 0.20696 0.77361 0.18615 0.0
C1045 C 0.20808 0.76123 0.19912 0.0
C1046 C 0.2149 0.74541 0.1944 0.0
C1047 C 0.22035 0.74163 0.17662 0.0
C1048 C 0.21896 0.75367 0.16351 0.0
C1049 C 0.21227 0.7696 0.16822 0.0
H1050 H 0.22564 0.72938 0.17301 0.0
H1051 H 0.1666 0.88805 0.21778 0.0
H1052 H 0.53507 0.8161 0.43668 0.0
H1053 H 0.54217 0.84985 0.45147 0.0
H1054 H 0.48766 0.84889 0.44654 0.0
H1055 H 0.48051 0.81545 0.43176 0.0
H1056 H 0.50542 0.87924 0.43428 0.0
H1057 H 0.51147 0.85002 0.48946 0.0
H1058 H 0.52322 0.82992 0.50925 0.0
H1059 H 0.57481 0.86418 0.5104 0.0
H1060 H 0.56338 0.88435 0.4904 0.0
H1061 H 0.50489 0.96606 0.4914 0.0
H1062 H 0.50098 0.93241 0.47845 0.0
H1063 H 0.55635 0.9388 0.48785 0.0
H1064 H 0.56037 0.97251 0.50124 0.0
H1065 H 0.54026 0.90614 0.49707 0.0
H1066 H 0.5346 0.93603 0.44306 0.0
H1067 H 0.52332 0.95631 0.42312 0.0
H1068 H 0.47179 0.92087 0.41906 0.0
H1069 H 0.48273 0.90053 0.43921 0.0
C1070 C 0.52459 0.82303 0.43892 0.0
C1071 C 0.5072 0.81295 0.43298 0.0
C1072 C 0.52867 0.84236 0.44742 0.0
C1073 C 0.51546 0.85203 0.4502 0.0
C1074 C 0.49812 0.84188 0.44452 0.0
C1075 C 0.49405 0.82264 0.4361 0.0
C1076 C 0.5195 0.87282 0.45845 0.0
C1077 C 0.51288 0.88505 0.44811 0.0
C1078 C 0.5297 0.88066 0.47624 0.0
C1079 C 0.53659 0.86856 0.48826 0.0
C1080 C 0.52533 0.85317 0.4938 0.0
C1081 C 0.53194 0.84178 0.50508 0.0
C1082 C 0.54976 0.84573 0.51103 0.0
C1083 C 0.56101 0.86112 0.50575 0.0
C1084 C 0.55448 0.87254 0.49446 0.0
C1085 C 0.51629 0.96038 0.49075 0.0
C1086 C 0.53298 0.97217 0.49729 0.0
C1087 C 0.51402 0.94106 0.48323 0.0
C1088 C 0.52837 0.93299 0.4818 0.0
C1089 C 0.54504 0.94461 0.48869 0.0
C1090 C 0.54732 0.96396 0.49631 0.0
C1091 C 0.52592 0.9125 0.47302 0.0
C1092 C 0.53286 0.90035 0.4832 0.0
C1093 C 0.51609 0.90471 0.45501 0.0
C1094 C 0.50947 0.91685 0.44279 0.0
C1095 C 0.52085 0.93264 0.43802 0.0
C1096 C 0.51451 0.94413 0.42667 0.0
C1097 C 0.49684 0.93991 0.41986 0.0
C1098 C 0.48548 0.92414 0.42436 0.0
C1099 C 0.49174 0.91261 0.43573 0.0
H1100 H 0.49197 0.94883 0.41108 0.0
H1101 H 0.55485 0.83691 0.51977 0.0
H1102 H 0.5087 0.30874 0.62779 0.0
H1103 H 0.48359 0.30515 0.64501 0.0
H1104 H 0.51515 0.29906 0.69456 0.0
H1105 H 0.54046 0.3022 0.67711 0.0
H1106 H 0.48449 0.27428 0.69033 0.0
H1107 H 0.50233 0.34111 0.69103 0.0
H1108 H 0.51094 0.37042 0.67766 0.0
H1109 H 0.46138 0.3568 0.64326 0.0
H1110 H 0.45255 0.32726 0.65623 0.0
H1111 H 0.41981 0.28843 0.75096 0.0
H1112 H 0.44645 0.29096 0.73611 0.0
H1113 H 0.41842 0.29425 0.68309 0.0
H1114 H 0.39167 0.29135 0.69768 0.0
H1115 H 0.44847 0.3214 0.69114 0.0
H1116 H 0.43124 0.25387 0.69017 0.0
H1117 H 0.42289 0.22488 0.70411 0.0
H1118 H 0.47173 0.24057 0.74009 0.0
H1119 H 0.48028 0.26981 0.72654 0.0
C1120 C 0.51041 0.30668 0.64237 0.0
C1121 C 0.52673 0.30591 0.65106 0.0
C1122 C 0.49596 0.30471 0.65228 0.0
C1123 C 0.49741 0.30218 0.67128 0.0
C1124 C 0.51364 0.30109 0.67996 0.0
C1125 C 0.52814 0.30295 0.66997 0.0
C1126 C 0.48193 0.30062 0.68188 0.0
C1127 C 0.4768 0.28477 0.69077 0.0
C1128 C 0.4716 0.31408 0.68228 0.0
C1129 C 0.47684 0.33188 0.67449 0.0
C1130 C 0.49331 0.34429 0.68052 0.0
C1131 C 0.49822 0.36096 0.67302 0.0
C1132 C 0.48673 0.36545 0.65959 0.0
C1133 C 0.47028 0.3533 0.65366 0.0
C1134 C 0.4653 0.3366 0.66109 0.0
C1135 C 0.41918 0.28935 0.73605 0.0
C1136 C 0.40343 0.28969 0.7256 0.0
C1137 C 0.43451 0.29088 0.72757 0.0
C1138 C 0.43453 0.29274 0.7084 0.0
C1139 C 0.41884 0.29294 0.69791 0.0
C1140 C 0.40351 0.29134 0.70634 0.0
C1141 C 0.4509 0.29495 0.69935 0.0
C1142 C 0.45621 0.31096 0.69078 0.0
C1143 C 0.46142 0.28171 0.69936 0.0
C1144 C 0.45632 0.26413 0.70749 0.0
C1145 C 0.44014 0.25122 0.70117 0.0
C1146 C 0.43539 0.23473 0.70898 0.0
C1147 C 0.44675 0.23091 0.72301 0.0
C1148 C 0.46293 0.24356 0.72924 0.0
C1149 C 0.46774 0.26009 0.72149 0.0
H1150 H 0.44305 0.21813 0.72904 0.0
H1151 H 0.49056 0.37836 0.65381 0.0
H1152 H 0.9814 0.78784 0.61727 0.0
H1153 H 0.9844 0.8133 0.59854 0.0
H1154 H 0.01845 0.852 0.64496 0.0
H1155 H 0.01531 0.82667 0.66396 0.0
H1156 H 0.99601 0.86929 0.628 0.0
H1157 H 0.03516 0.83133 0.60831 0.0
H1158 H 0.04363 0.80166 0.59691 0.0
H1159 H 0.00794 0.79209 0.54601 0.0
H1160 H 0.99908 0.82158 0.55723 0.0
H1161 H 0.03154 0.93858 0.57358 0.0
H1162 H 0.02744 0.91481 0.59422 0.0
H1163 H 0.99557 0.8734 0.54816 0.0
H1164 H 1.00044 0.89675 0.52712 0.0
H1165 H 0.0175 0.85804 0.56575 0.0
H1166 H 0.97792 0.89589 0.58585 0.0
H1167 H 0.97 0.92594 0.59713 0.0
H1168 H 0.00712 0.93621 0.64696 0.0
H1169 H 0.01535 0.90628 0.6359 0.0
C1170 C 0.98945 0.80179 0.62357 0.0
C1171 C 0.99823 0.80518 0.64207 0.0
C1172 C 0.99118 0.81632 0.61281 0.0
C1173 C 1.00186 0.83447 0.62025 0.0
C1174 C 0.01018 0.83809 0.63893 0.0
C1175 C 0.00841 0.82357 0.64974 0.0
C1176 C 1.0048 0.84943 0.60828 0.0
C1177 C 1.00089 0.86692 0.61448 0.0
C1178 C 0.01095 0.84626 0.59053 0.0
C1179 C 0.01634 0.82857 0.58369 0.0
C1180 C 0.02903 0.82283 0.59475 0.0
C1181 C 0.03391 0.80605 0.58831 0.0
C1182 C 0.0263 0.79497 0.57076 0.0
C1183 C 0.01381 0.80068 0.5596 0.0
C1184 C 0.00886 0.81743 0.56599 0.0
C1185 C 0.0238 0.92437 0.56776 0.0
C1186 C 0.01635 0.91959 0.54864 0.0
C1187 C 0.02127 0.91085 0.57968 0.0
C1188 C 0.011 0.89237 0.57282 0.0
C1189 C 1.00349 0.88759 0.55379 0.0
C1190 C 0.00615 0.90103 0.54182 0.0
C1191 C 0.00845 0.87781 0.58528 0.0
C1192 C 0.01255 0.8604 0.57922 0.0
C1193 C 1.00249 0.8811 0.60314 0.0
C1194 C 0.99731 0.8989 0.61 0.0
C1195 C 0.98442 0.90459 0.59919 0.0
C1196 C 0.97987 0.92159 0.60555 0.0
C1197 C 0.98805 0.93297 0.62275 0.0
C1198 C 1.00077 0.92735 0.63366 0.0
C1199 C 0.00536 0.91036 0.62737 0.0
H1200 H 0.98454 0.94615 0.62763 0.0
H1201 H 0.0301 0.78199 0.5658 0.0
H1202 H 0.54633 0.80011 0.83422 0.0
H1203 H 0.5185 0.79583 0.81472 0.0
H1204 H 0.49156 0.77364 0.85895 0.0
H1205 H 0.5193 0.77767 0.87847 0.0
H1206 H 0.47696 0.7538 0.82365 0.0
H1207 H 0.4964 0.81957 0.85497 0.0
H1208 H 0.51707 0.85105 0.86341 0.0
H1209 H 0.51553 0.85592 0.80459 0.0
H1210 H 0.49502 0.82433 0.79579 0.0
H1211 H 0.39718 0.78214 0.81805 0.0
H1212 H 0.42546 0.77525 0.82537 0.0
H1213 H 0.44047 0.79097 0.77277 0.0
H1214 H 0.41203 0.79768 0.76526 0.0
H1215 H 0.46227 0.81202 0.80662 0.0
H1216 H 0.44101 0.74796 0.77524 0.0
H1217 H 0.4227 0.71527 0.76579 0.0
H1218 H 0.42775 0.70697 0.82364 0.0
H1219 H 0.44619 0.73959 0.83343 0.0
C1220 C 0.53449 0.79413 0.83973 0.0
C1221 C 0.535 0.7894 0.85798 0.0
C1222 C 0.51862 0.79173 0.82858 0.0
C1223 C 0.503 0.78465 0.83551 0.0
C1224 C 0.50349 0.77915 0.85336 0.0
C1225 C 0.51935 0.78154 0.86452 0.0
C1226 C 0.4861 0.78397 0.82471 0.0
C1227 C 0.47366 0.76653 0.82003 0.0
C1228 C 0.48208 0.80049 0.81943 0.0
C1229 C 0.49436 0.8195 0.82471 0.0
C1230 C 0.50059 0.82729 0.84383 0.0
C1231 C 0.51225 0.84516 0.84868 0.0
C1232 C 0.51765 0.85545 0.83454 0.0
C1233 C 0.51136 0.84791 0.81552 0.0
C1234 C 0.49972 0.83003 0.8106 0.0
C1235 C 0.40641 0.78379 0.8079 0.0
C1236 C 0.40252 0.79057 0.79117 0.0
C1237 C 0.42247 0.7797 0.81201 0.0
C1238 C 0.43496 0.78246 0.79953 0.0
C1239 C 0.43089 0.78854 0.78245 0.0
C1240 C 0.41469 0.79237 0.7782 0.0
C1241 C 0.45296 0.78189 0.80587 0.0
C1242 C 0.46562 0.79919 0.8099 0.0
C1243 C 0.45714 0.76525 0.81056 0.0
C1244 C 0.44488 0.74627 0.80508 0.0
C1245 C 0.43804 0.73925 0.78598 0.0
C1246 C 0.42779 0.72066 0.78053 0.0
C1247 C 0.42417 0.70901 0.79409 0.0
C1248 C 0.43066 0.71597 0.81314 0.0
C1249 C 0.44104 0.73449 0.81864 0.0
H1250 H 0.4162 0.69463 0.78984 0.0
H1251 H 0.52668 0.86929 0.83832 0.0
H1252 H 0.50551 0.19558 0.14376 0.0
H1253 H 0.51257 0.16546 0.13278 0.0
H1254 H 0.467 0.1494 0.09106 0.0
H1255 H 0.45947 0.17943 0.10252 0.0
H1256 H 0.47161 0.11935 0.10618 0.0
H1257 H 0.50786 0.16858 0.07987 0.0
H1258 H 0.52888 0.19931 0.08129 0.0
H1259 H 0.56662 0.18115 0.11581 0.0
H1260 H 0.54571 0.15048 0.11496 0.0
H1261 H 0.49585 0.05383 0.03801 0.0
H1262 H 0.48669 0.07898 0.05752 0.0
H1263 H 0.53515 0.09226 0.0946 0.0
H1264 H 0.54474 0.06759 0.07436 0.0
H1265 H 0.52955 0.12295 0.08489 0.0
H1266 H 0.49324 0.07394 0.11181 0.0
H1267 H 0.47189 0.04341 0.11098 0.0
H1268 H 0.43479 0.06082 0.07495 0.0
H1269 H 0.45579 0.09147 0.07572 0.0
C1270 C 0.49694 0.18564 0.13227 0.0
C1271 C 0.48205 0.18998 0.1238 0.0
C1272 C 0.50101 0.16841 0.12601 0.0
C1273 C 0.49052 0.15534 0.11084 0.0
C1274 C 0.47532 0.15933 0.10275 0.0
C1275 C 0.47107 0.1765 0.10923 0.0
C1276 C 0.49586 0.13795 0.10291 0.0
C1277 C 0.48423 0.12013 0.10139 0.0
C1278 C 0.5125 0.13891 0.09712 0.0
C1279 C 0.52515 0.1573 0.0975 0.0
C1280 C 0.5206 0.1712 0.08789 0.0
C1281 C 0.53249 0.18862 0.08861 0.0
C1282 C 0.54905 0.19223 0.09873 0.0
C1283 C 0.55377 0.17839 0.10808 0.0
C1284 C 0.5419 0.16098 0.10748 0.0
C1285 C 0.5045 0.06199 0.05043 0.0
C1286 C 0.52105 0.05884 0.05465 0.0
C1287 C 0.49913 0.07621 0.06176 0.0
C1288 C 0.51007 0.08738 0.07777 0.0
C1289 C 0.52642 0.08377 0.08239 0.0
C1290 C 0.53189 0.06966 0.07087 0.0
C1291 C 0.50531 0.10423 0.08811 0.0
C1292 C 0.51704 0.12206 0.08997 0.0
C1293 C 0.48877 0.10325 0.0942 0.0
C1294 C 0.47615 0.08485 0.09364 0.0
C1295 C 0.48058 0.07115 0.10359 0.0
C1296 C 0.46854 0.05389 0.1032 0.0
C1297 C 0.4521 0.05015 0.09283 0.0
C1298 C 0.44756 0.06372 0.08295 0.0
C1299 C 0.45948 0.08107 0.08344 0.0
H1300 H 0.44287 0.03676 0.09254 0.0
H1301 H 0.55825 0.20571 0.09926 0.0
H1302 H 0.12541 0.33514 0.33351 0.0
H1303 H 0.14821 0.33826 0.31281 0.0
H1304 H 0.18397 0.32909 0.35721 0.0
H1305 H 0.16148 0.32682 0.3782 0.0
H1306 H 0.20102 0.353 0.33774 0.0
H1307 H 0.15842 0.29176 0.32233 0.0
H1308 H 0.12893 0.27105 0.31267 0.0
H1309 H 0.12507 0.29406 0.26139 0.0
H1310 H 0.15449 0.31506 0.27088 0.0
H1311 H 0.23171 0.27487 0.27784 0.0
H1312 H 0.20868 0.28743 0.29065 0.0
H1313 H 0.23521 0.34405 0.28426 0.0
H1314 H 0.25863 0.33157 0.27196 0.0
H1315 H 0.18591 0.30355 0.27969 0.0
H1316 H 0.22465 0.37644 0.31688 0.0
H1317 H 0.25497 0.39418 0.32798 0.0
H1318 H 0.26803 0.34271 0.33905 0.0
H1319 H 0.23772 0.32471 0.32814 0.0
C1320 C 0.13823 0.33407 0.33892 0.0
C1321 C 0.14163 0.33042 0.35734 0.0
C1322 C 0.15123 0.33589 0.3271 0.0
C1323 C 0.16769 0.33353 0.33333 0.0
C1324 C 0.17137 0.33096 0.35209 0.0
C1325 C 0.15847 0.32954 0.36404 0.0
C1326 C 0.18049 0.33155 0.31992 0.0
C1327 C 0.1977 0.34231 0.32494 0.0
C1328 C 0.17616 0.31773 0.30313 0.0
C1329 C 0.15851 0.30513 0.29742 0.0
C1330 C 0.15122 0.29248 0.30906 0.0
C1331 C 0.13453 0.28068 0.30361 0.0
C1332 C 0.1251 0.28129 0.28646 0.0
C1333 C 0.13237 0.29365 0.27469 0.0
C1334 C 0.14904 0.3055 0.2801 0.0
C1335 C 0.23253 0.28997 0.2789 0.0
C1336 C 0.24702 0.30225 0.27403 0.0
C1337 C 0.2193 0.29716 0.28618 0.0
C1338 C 0.22014 0.31675 0.28854 0.0
C1339 C 0.23422 0.32893 0.28275 0.0
C1340 C 0.24763 0.32176 0.2757 0.0
C1341 C 0.20668 0.32406 0.29817 0.0
C1342 C 0.18922 0.31455 0.29225 0.0
C1343 C 0.2109 0.33856 0.31444 0.0
C1344 C 0.229 0.34924 0.32155 0.0
C1345 C 0.23399 0.36894 0.32177 0.0
C1346 C 0.25116 0.37903 0.32801 0.0
C1347 C 0.26342 0.36957 0.33423 0.0
C1348 C 0.25851 0.35001 0.33425 0.0
C1349 C 0.24135 0.33986 0.32804 0.0
H1350 H 0.27672 0.3774 0.33898 0.0
H1351 H 0.11219 0.27215 0.28226 0.0
H1352 H 0.96635 0.02942 0.20977 0.0
H1353 H 0.97972 0.02961 0.18072 0.0
H1354 H 0.94925 0.06686 0.16268 0.0
H1355 H 0.93559 0.06671 0.19226 0.0
H1356 H 0.9513 0.0403 0.1314 0.0
H1357 H 0.99452 0.08259 0.17852 0.0
H1358 H 0.01375 0.09272 0.20894 0.0
H1359 H 0.038 0.04664 0.19484 0.0
H1360 H 0.01876 0.03609 0.16443 0.0
H1361 H 1.00251 0.05574 0.05302 0.0
H1362 H 0.98586 0.05706 0.08015 0.0
H1363 H 0.02041 0.03032 0.10971 0.0
H1364 H 0.03716 0.0296 0.08288 0.0
H1365 H 0.01536 0.05372 0.13504 0.0
H1366 H 0.97163 0.00971 0.08942 0.0
H1367 H 0.95161 0.99762 0.05968 0.0
H1368 H 0.92829 0.04491 0.07058 0.0
H1369 H 0.94824 0.05735 0.10039 0.0
C1370 C 0.96237 0.03785 0.19984 0.0
C1371 C 0.94969 0.04816 0.20406 0.0
C1372 C 0.97025 0.03798 0.18291 0.0
C1373 C 0.96598 0.04839 0.16891 0.0
C1374 C 0.95314 0.05862 0.17286 0.0
C1375 C 0.94529 0.05865 0.19007 0.0
C1376 C 0.97506 0.04845 0.15062 0.0
C1377 C 0.96534 0.04356 0.13233 0.0
C1378 C 0.99347 0.05212 0.15104 0.0
C1379 C 1.0051 0.05846 0.16927 0.0
C1380 C 1.00387 0.07454 0.18197 0.0
C1381 C 0.01479 0.08037 0.1992 0.0
C1382 C 0.02706 0.07031 0.20384 0.0
C1383 C 0.02848 0.05441 0.19123 0.0
C1384 C 0.01758 0.04851 0.17399 0.0
C1385 C 0.00625 0.04953 0.06501 0.0
C1386 C 0.02103 0.04182 0.06503 0.0
C1387 C 0.99664 0.05037 0.08087 0.0
C1388 C 1.0013 0.04357 0.09766 0.0
C1389 C 0.01605 0.0358 0.09747 0.0
C1390 C 0.02567 0.03512 0.08175 0.0
C1391 C 0.99167 0.04517 0.1156 0.0
C1392 C 1.00132 0.05042 0.13394 0.0
C1393 C 0.97321 0.04164 0.11516 0.0
C1394 C 0.96151 0.03452 0.09706 0.0
C1395 C 0.96231 0.0176 0.08541 0.0
C1396 C 0.95094 0.01065 0.06859 0.0
C1397 C 0.93863 0.02044 0.06332 0.0
C1398 C 0.93778 0.0373 0.07476 0.0
C1399 C 0.9491 0.0443 0.09162 0.0
H1400 H 0.92976 0.01494 0.05037 0.0
H1401 H 0.0355 0.07484 0.21719 0.0
H1402 H 0.29195 0.62667 0.457 0.0
H1403 H 0.2994 0.64591 0.43272 0.0
H1404 H 0.33214 0.69077 0.47523 0.0
H1405 H 0.32428 0.67179 0.49972 0.0
H1406 H 0.31137 0.70467 0.45491 0.0
H1407 H 0.34913 0.66419 0.44035 0.0
H1408 H 0.35779 0.6339 0.4333 0.0
H1409 H 0.32095 0.61711 0.3828 0.0
H1410 H 0.31187 0.64719 0.38968 0.0
H1411 H 0.33461 0.76026 0.38436 0.0
H1412 H 0.33883 0.74057 0.40818 0.0
H1413 H 0.29857 0.69411 0.37605 0.0
H1414 H 0.29384 0.71379 0.35252 0.0
H1415 H 0.32784 0.68275 0.39207 0.0
H1416 H 0.28762 0.72115 0.40982 0.0
H1417 H 0.27886 0.75139 0.41695 0.0
H1418 H 0.32122 0.77197 0.46201 0.0
H1419 H 0.3304 0.74193 0.45493 0.0
C1420 C 0.30096 0.6405 0.46115 0.0
C1421 C 0.30744 0.64777 0.48028 0.0
C1422 C 0.30531 0.65145 0.44722 0.0
C1423 C 0.31648 0.66973 0.45212 0.0
C1424 C 0.32351 0.6767 0.47113 0.0
C1425 C 0.31901 0.66584 0.4851 0.0
C1426 C 0.31938 0.68221 0.43771 0.0
C1427 C 0.31541 0.70003 0.44136 0.0
C1428 C 0.32429 0.67603 0.41986 0.0
C1429 C 0.32974 0.65792 0.41561 0.0
C1430 C 0.34278 0.65399 0.42781 0.0
C1431 C 0.34778 0.63686 0.42383 0.0
C1432 C 0.33991 0.62358 0.40763 0.0
C1433 C 0.32704 0.62741 0.39535 0.0
C1434 C 0.32198 0.64452 0.39926 0.0
C1435 C 0.32668 0.74584 0.38234 0.0
C1436 C 0.31375 0.73869 0.36664 0.0
C1437 C 0.32922 0.73458 0.39586 0.0
C1438 C 0.31894 0.71597 0.39386 0.0
C1439 C 0.3067 0.70842 0.37774 0.0
C1440 C 0.30404 0.71971 0.36429 0.0
C1441 C 0.3197 0.70494 0.40935 0.0
C1442 C 0.32423 0.68744 0.40583 0.0
C1443 C 0.31538 0.71139 0.42738 0.0
C1444 C 0.30983 0.72941 0.43169 0.0
C1445 C 0.29516 0.73219 0.42113 0.0
C1446 C 0.2901 0.74928 0.42518 0.0
C1447 C 0.29951 0.76362 0.43988 0.0
C1448 C 0.31397 0.76087 0.4506 0.0
C1449 C 0.31911 0.74382 0.44657 0.0
H1450 H 0.29557 0.77684 0.44301 0.0
H1451 H 0.3438 0.61032 0.40457 0.0
H1452 H 0.60326 0.03585 0.71631 0.0
H1453 H 0.58486 0.02998 0.68598 0.0
H1454 H 0.61266 0.9894 0.663 0.0
H1455 H 0.63163 0.99593 0.69308 0.0
H1456 H 0.61122 0.01196 0.64017 0.0
H1457 H 0.56863 0.97622 0.67107 0.0
H1458 H 0.55038 0.96917 0.69621 0.0
H1459 H 0.52674 0.01497 0.68773 0.0
H1460 H 0.54502 0.02248 0.66271 0.0
H1461 H 0.52736 0.99152 0.56602 0.0
H1462 H 0.54232 0.98578 0.59509 0.0
H1463 H 0.57991 0.03937 0.5994 0.0
H1464 H 0.56521 0.04493 0.57023 0.0
H1465 H 0.54742 1.0039 0.6299 0.0
H1466 H 0.61807 0.0383 0.61843 0.0
H1467 H 0.63656 0.04 0.59272 0.0
H1468 H 0.60352 0.98789 0.56115 0.0
H1469 H 0.58477 0.98603 0.58649 0.0
C1470 C 0.60524 0.02543 0.70489 0.0
C1471 C 0.61894 0.01645 0.70697 0.0
C1472 C 0.59464 0.02199 0.68757 0.0
C1473 C 0.59728 0.00914 0.6722 0.0
C1474 C 0.61042 0.99944 0.67462 0.0
C1475 C 0.62123 1.00316 0.69181 0.0
C1476 C 0.58762 0.00737 0.65313 0.0
C1477 C 0.59724 0.01003 0.63795 0.0
C1478 C 0.56934 1.00445 0.65004 0.0
C1479 C 0.55829 0.99999 0.66508 0.0
C1480 C 0.55963 0.98488 0.67465 0.0
C1481 C 0.54926 0.98078 0.68887 0.0
C1482 C 0.53743 0.99163 0.69359 0.0
C1483 C 0.53592 0.00658 0.68407 0.0
C1484 C 0.54626 0.01075 0.66984 0.0
C1485 C 0.53888 1.00199 0.57316 0.0
C1486 C 0.54524 0.0186 0.56591 0.0
C1487 C 0.54739 0.99871 0.58974 0.0
C1488 C 0.56235 0.01202 0.59929 0.0
C1489 C 0.56861 0.02869 0.59206 0.0
C1490 C 0.56018 0.03191 0.57545 0.0
C1491 C 0.57112 0.00894 0.61721 0.0
C1492 C 0.56135 1.00552 0.63215 0.0
C1493 C 0.58921 0.01054 0.61999 0.0
C1494 C 0.59997 0.0121 0.60429 0.0
C1495 C 0.61472 0.02727 0.60593 0.0
C1496 C 0.62522 0.02829 0.5914 0.0
C1497 C 0.62119 0.01412 0.57526 0.0
C1498 C 0.60656 0.99898 0.57354 0.0
C1499 C 0.59594 0.99798 0.58794 0.0
H1500 H 0.62947 0.01484 0.56418 0.0
H1501 H 0.52942 0.98844 0.7046 0.0
H1502 H 0.2813 0.37172 0.97319 0.0
H1503 H 0.27914 0.358 0.93951 0.0
H1504 H 0.3166 0.32625 0.9531 0.0
H1505 H 0.31858 0.33954 0.98675 0.0
H1506 H 0.32366 0.34719 0.92269 0.0
H1507 H 0.2766 0.30329 0.9424 0.0
H1508 H 0.24936 0.29387 0.95608 0.0
H1509 H 0.22249 0.31692 0.91435 0.0
H1510 H 0.24966 0.32683 0.90064 0.0
H1511 H 0.31849 0.29155 0.83171 0.0
H1512 H 0.31936 0.30241 0.86573 0.0
H1513 H 0.27164 0.31978 0.85499 0.0
H1514 H 0.27026 0.308 0.82123 0.0
H1515 H 0.2698 0.306 0.8846 0.0
H1516 H 0.31475 0.35188 0.86566 0.0
H1517 H 0.34117 0.36359 0.85133 0.0
H1518 H 0.371 0.34063 0.89051 0.0
H1519 H 0.3447 0.32856 0.90493 0.0
C1520 C 0.28899 0.36171 0.96903 0.0
C1521 C 0.30009 0.35671 0.98273 0.0
C1522 C 0.28771 0.35385 0.94976 0.0
C1523 C 0.29769 0.34105 0.94375 0.0
C1524 C 0.30877 0.33607 0.95738 0.0
C1525 C 0.30982 0.34364 0.97665 0.0
C1526 C 0.29695 0.33323 0.92322 0.0
C1527 C 0.31194 0.33798 0.91439 0.0
C1528 C 0.28152 0.32175 0.91221 0.0
C1529 C 0.26523 0.31602 0.92064 0.0
C1530 C 0.26494 0.30658 0.93629 0.0
C1531 C 0.2495 0.3011 0.94402 0.0
C1532 C 0.23422 0.30485 0.93613 0.0
C1533 C 0.23435 0.31407 0.92048 0.0
C1534 C 0.24977 0.31962 0.91273 0.0
C1535 C 0.30816 0.29762 0.83663 0.0
C1536 C 0.29433 0.2989 0.82368 0.0
C1537 C 0.30872 0.304 0.85613 0.0
C1538 C 0.29575 0.31237 0.86313 0.0
C1539 C 0.28184 0.31342 0.85016 0.0
C1540 C 0.28108 0.30668 0.83076 0.0
C1541 C 0.29655 0.31999 0.88385 0.0
C1542 C 0.28156 0.31522 0.89278 0.0
C1543 C 0.31187 0.33189 0.89485 0.0
C1544 C 0.32772 0.33914 0.88624 0.0
C1545 C 0.32692 0.34921 0.87113 0.0
C1546 C 0.34187 0.35592 0.86301 0.0
C1547 C 0.35774 0.3528 0.86997 0.0
C1548 C 0.35869 0.343 0.88511 0.0
C1549 C 0.34377 0.33623 0.89328 0.0
H1550 H 0.3693 0.35802 0.86366 0.0
H1551 H 0.22227 0.30056 0.94211 0.0
H1552 H 0.95852 0.02158 0.30128 0.0
H1553 H 0.97205 0.02114 0.33279 0.0
H1554 H 0.95776 0.0728 0.3543 0.0
H1555 H 0.9442 0.07348 0.32216 0.0
H1556 H 0.9893 0.07418 0.37249 0.0
H1557 H 0.93596 0.02629 0.36227 0.0
H1558 H 0.91397 0.99818 0.34484 0.0
H1559 H 0.95123 0.96415 0.3472 0.0
H1560 H 0.97352 0.99214 0.36445 0.0
H1561 H 0.01221 0.06559 0.46914 0.0
H1562 H 0.99728 0.06805 0.43878 0.0
H1563 H 1.00337 0.0128 0.41464 0.0
H1564 H 0.01719 0.00977 0.44557 0.0
H1565 H 0.97498 0.01415 0.39812 0.0
H1566 H 0.02909 0.06287 0.4054 0.0
H1567 H 0.05067 0.09048 0.42447 0.0
H1568 H 0.01147 0.12209 0.42875 0.0
H1569 H 0.98983 0.09486 0.40945 0.0
C1570 C 0.95815 0.03301 0.31255 0.0
C1571 C 0.94995 0.04755 0.30863 0.0
C1572 C 0.96593 0.03263 0.33092 0.0
C1573 C 0.96586 0.04665 0.34665 0.0
C1574 C 0.95812 0.06158 0.3428 0.0
C1575 C 0.95026 0.06199 0.32422 0.0
C1576 C 0.9737 0.04536 0.36675 0.0
C1577 C 0.98591 0.06104 0.37804 0.0
C1578 C 0.9699 0.0283 0.37456 0.0
C1579 C 0.95645 0.01135 0.36453 0.0
C1580 C 0.93949 0.01283 0.359 0.0
C1581 C 0.92697 0.99692 0.34916 0.0
C1582 C 0.93122 0.97941 0.34488 0.0
C1583 C 0.94797 0.97774 0.35051 0.0
C1584 C 0.96055 0.99362 0.36035 0.0
C1585 C 0.01047 0.05391 0.45741 0.0
C1586 C 0.01625 0.03752 0.4602 0.0
C1587 C 1.00198 0.05543 0.43966 0.0
C1588 C 0.9994 0.04096 0.42346 0.0
C1589 C 1.00502 0.02445 0.42637 0.0
C1590 C 0.01312 0.02272 0.44429 0.0
C1591 C 0.99083 0.04286 0.40382 0.0
C1592 C 0.97846 0.02727 0.39257 0.0
C1593 C 0.99452 0.05995 0.39601 0.0
C1594 C 0.00787 0.07686 0.40607 0.0
C1595 C 0.02517 0.07582 0.41025 0.0
C1596 C 0.03741 0.0914 0.4211 0.0
C1597 C 0.03247 0.10805 0.42783 0.0
C1598 C 0.01536 0.10927 0.42344 0.0
C1599 C 1.00312 0.09382 0.41244 0.0
H1600 H 0.04191 0.12 0.43645 0.0
H1601 H 0.92151 0.96712 0.33725 0.0
H1602 H 0.2846 0.65885 0.58862 0.0
H1603 H 0.2818 0.68063 0.61673 0.0
H1604 H 0.30504 0.72859 0.59163 0.0
H1605 H 0.308 0.7069 0.56345 0.0
H1606 H 0.31869 0.73203 0.62853 0.0
H1607 H 0.26232 0.71817 0.5931 0.0
H1608 H 0.23512 0.69774 0.57498 0.0
H1609 H 0.22316 0.67222 0.62363 0.0
H1610 H 0.25043 0.69231 0.642 0.0
H1611 H 0.30113 0.79845 0.70133 0.0
H1612 H 0.29892 0.78084 0.66908 0.0
H1613 H 0.27723 0.72842 0.6881 0.0
H1614 H 0.2794 0.74588 0.72026 0.0
H1615 H 0.26188 0.72967 0.65238 0.0
H1616 H 0.31935 0.74076 0.68642 0.0
H1617 H 0.34658 0.76078 0.70488 0.0
H1618 H 0.35646 0.79101 0.65874 0.0
H1619 H 0.32912 0.77133 0.64011 0.0
C1620 C 0.28915 0.67403 0.58907 0.0
C1621 C 0.2965 0.68115 0.57378 0.0
C1622 C 0.28744 0.68645 0.6051 0.0
C1623 C 0.293 0.70622 0.60613 0.0
C1624 C 0.3006 0.71338 0.59105 0.0
C1625 C 0.30226 0.70096 0.57497 0.0
C1626 C 0.29118 0.71935 0.62316 0.0
C1627 C 0.30623 0.73179 0.63354 0.0
C1628 C 0.27494 0.71874 0.62985 0.0
C1629 C 0.25849 0.70666 0.61889 0.0
C1630 C 0.25396 0.7081 0.5999 0.0
C1631 C 0.23852 0.6966 0.58959 0.0
C1632 C 0.22743 0.68368 0.59814 0.0
C1633 C 0.23176 0.68223 0.61703 0.0
C1634 C 0.2472 0.69369 0.6274 0.0
C1635 C 0.29558 0.78323 0.69853 0.0
C1636 C 0.29059 0.77348 0.71328 0.0
C1637 C 0.29436 0.7732 0.68014 0.0
C1638 C 0.28813 0.75331 0.6763 0.0
C1639 C 0.28208 0.74375 0.69078 0.0
C1640 C 0.28336 0.75375 0.70914 0.0
C1641 C 0.2894 0.7422 0.65777 0.0
C1642 C 0.27428 0.7301 0.64717 0.0
C1643 C 0.30558 0.74305 0.65088 0.0
C1644 C 0.32211 0.75473 0.66197 0.0
C1645 C 0.32727 0.75177 0.68027 0.0
C1646 C 0.34273 0.76304 0.69075 0.0
C1647 C 0.35322 0.7772 0.68301 0.0
C1648 C 0.3483 0.78007 0.66473 0.0
C1649 C 0.33283 0.76886 0.65421 0.0
H1650 H 0.36518 0.78591 0.69114 0.0
H1651 H 0.21546 0.67485 0.59015 0.0
H1652 H 0.6663 0.07268 0.81463 0.0
H1653 H 0.65196 0.07242 0.84322 0.0
H1654 H 0.62253 0.01485 0.82146 0.0
H1655 H 0.63651 0.01513 0.79268 0.0
H1656 H 0.60211 0.03557 0.83529 0.0
H1657 H 0.65731 0.02469 0.85633 0.0
H1658 H 0.68927 0.03145 0.86171 0.0
H1659 H 0.69131 0.08481 0.89706 0.0
H1660 H 0.65935 0.07848 0.89168 0.0
H1661 H 0.59556 0.01608 0.93629 0.0
H1662 H 0.61309 0.02108 0.91061 0.0
H1663 H 0.58516 0.06158 0.89457 0.0
H1664 H 0.56747 0.05653 0.9203 0.0
H1665 H 0.63463 0.05015 0.90003 0.0
H1666 H 0.57786 0.05454 0.8464 0.0
H1667 H 0.54585 0.04434 0.84092 0.0
H1668 H 0.54705 0.99769 0.87034 0.0
H1669 H 0.57905 0.00745 0.87574 0.0
C1670 C 0.65682 0.05994 0.81596 0.0
C1671 C 0.65254 0.04391 0.80141 0.0
C1672 C 0.64869 0.0598 0.83233 0.0
C1673 C 0.63629 0.04356 0.83451 0.0
C1674 C 0.63204 0.02754 0.82003 0.0
C1675 C 0.64008 0.02771 0.80362 0.0
C1676 C 0.62744 0.04332 0.85171 0.0
C1677 C 0.60923 0.03883 0.84944 0.0
C1678 C 0.63674 0.04738 0.87016 0.0
C1679 C 0.65595 0.0512 0.87343 0.0
C1680 C 0.66458 0.03794 0.86512 0.0
C1681 C 0.6827 0.04168 0.86819 0.0
C1682 C 0.69232 0.05857 0.87967 0.0
C1683 C 0.68384 0.07174 0.88814 0.0
C1684 C 0.66573 0.06808 0.8851 0.0
C1685 C 0.59339 0.02634 0.92755 0.0
C1686 C 0.58008 0.03583 0.9302 0.0
C1687 C 0.60341 0.02917 0.91286 0.0
C1688 C 0.60026 0.0415 0.90055 0.0
C1689 C 0.58759 0.05177 0.90376 0.0
C1690 C 0.57749 0.04885 0.9184 0.0
C1691 C 0.60933 0.04245 0.88356 0.0
C1692 C 0.62755 0.04709 0.88587 0.0
C1693 C 0.60005 0.03806 0.86509 0.0
C1694 C 0.58082 0.03187 0.86165 0.0
C1695 C 0.57128 0.04207 0.85163 0.0
C1696 C 0.55314 0.03637 0.84855 0.0
C1697 C 0.54442 0.02042 0.85534 0.0
C1698 C 0.55382 0.01008 0.86515 0.0
C1699 C 0.57195 0.0157 0.86823 0.0
H1700 H 0.53038 0.01605 0.85296 0.0
H1701 H 0.70634 0.06144 0.88203 0.0
H1702 H 0.32723 0.35118 0.07882 0.0
H1703 H 0.32285 0.33712 0.10726 0.0
H1704 H 0.28188 0.36549 0.11756 0.0
H1705 H 0.28607 0.37952 0.08884 0.0
H1706 H 0.30574 0.36818 0.15074 0.0
H1707 H 0.27057 0.32014 0.10108 0.0
H1708 H 0.26436 0.29848 0.07025 0.0
H1709 H 0.30369 0.27087 0.08787 0.0
H1710 H 0.31032 0.29256 0.11873 0.0
H1711 H 0.27879 0.31571 0.2241 0.0
H1712 H 0.28062 0.33206 0.19675 0.0
H1713 H 0.31199 0.29586 0.17288 0.0
H1714 H 0.30916 0.2788 0.19957 0.0
H1715 H 0.29071 0.29804 0.14626 0.0
H1716 H 0.32735 0.34679 0.19516 0.0
H1717 H 0.33434 0.36869 0.2259 0.0
H1718 H 0.2936 0.39515 0.21008 0.0
H1719 H 0.28622 0.37326 0.17933 0.0
C1720 C 0.31723 0.35443 0.08706 0.0
C1721 C 0.30696 0.36646 0.08143 0.0
C1722 C 0.31474 0.34635 0.10336 0.0
C1723 C 0.302 0.35017 0.1146 0.0
C1724 C 0.29181 0.36233 0.10916 0.0
C1725 C 0.29415 0.37025 0.09266 0.0
C1726 C 0.29931 0.34122 0.13183 0.0
C1727 C 0.30222 0.35284 0.14978 0.0
C1728 C 0.29505 0.32121 0.13068 0.0
C1729 C 0.29105 0.30809 0.11216 0.0
C1730 C 0.278 0.30956 0.09833 0.0
C1731 C 0.27438 0.29725 0.08085 0.0
C1732 C 0.28365 0.28334 0.07708 0.0
C1733 C 0.29653 0.28167 0.0908 0.0
C1734 C 0.30022 0.29395 0.1083 0.0
C1735 C 0.28619 0.31139 0.21307 0.0
C1736 C 0.29384 0.29597 0.21397 0.0
C1737 C 0.28734 0.32083 0.19743 0.0
C1738 C 0.29665 0.31548 0.18262 0.0
C1739 C 0.30463 0.30033 0.1839 0.0
C1740 C 0.30312 0.29062 0.19926 0.0
C1741 C 0.2976 0.32495 0.16545 0.0
C1742 C 0.29427 0.3134 0.14739 0.0
C1743 C 0.30165 0.34504 0.16657 0.0
C1744 C 0.30615 0.35829 0.185 0.0
C1745 C 0.31983 0.35721 0.19828 0.0
C1746 C 0.32386 0.36963 0.21569 0.0
C1747 C 0.31443 0.38331 0.21992 0.0
C1748 C 0.30091 0.38457 0.20676 0.0
C1749 C 0.2968 0.37217 0.18934 0.0
H1750 H 0.31763 0.39298 0.23335 0.0
H1751 H 0.28083 0.27383 0.06355 0.0
H1752 H 0.23839 0.95704 0.95563 0.0
H1753 H 0.21851 0.97806 0.95717 0.0
H1754 H 0.25251 0.01582 1.00423 0.0
H1755 H 0.27238 0.99485 1.00291 0.0
H1756 H 0.21955 1.0047 0.01208 0.0
H1757 H 0.24725 0.03121 0.9619 0.0
H1758 H 0.2582 0.02957 0.93087 0.0
H1759 H 0.20695 1.00131 0.90304 0.0
H1760 H 0.1958 1.0025 0.93402 0.0
H1761 H 0.17127 0.07165 0.02645 0.0
H1762 H 0.19577 0.05944 0.01654 0.0
H1763 H 0.16198 0.0211 0.96967 0.0
H1764 H 0.13743 0.0335 0.97939 0.0
H1765 H 0.19536 0.03345 0.96078 0.0
H1766 H 0.16768 1.00589 0.00991 0.0
H1767 H 0.15593 0.00641 0.04046 0.0
H1768 H 0.20664 0.03431 0.07 0.0
H1769 H 0.21863 0.03426 0.03957 0.0
C1770 C 0.24179 0.96998 0.96611 0.0
C1771 C 0.25687 0.97417 0.97928 0.0
C1772 C 0.23046 0.98203 0.96689 0.0
C1773 C 0.23408 0.99852 0.98078 0.0
C1774 C 0.2495 1.00316 0.9934 0.0
C1775 C 0.26083 0.99114 0.99262 0.0
C1776 C 0.22097 0.00979 0.98348 0.0
C1777 C 0.21454 0.01133 1.00099 0.0
C1778 C 0.21398 0.01778 0.96877 0.0
C1779 C 0.22067 0.01699 0.95021 0.0
C1780 C 0.23834 0.02458 0.94916 0.0
C1781 C 0.24458 0.02372 0.9316 0.0
C1782 C 0.23327 0.01536 0.91499 0.0
C1783 C 0.21568 0.00783 0.91591 0.0
C1784 C 0.20939 0.00863 0.93345 0.0
C1785 C 0.16917 0.06091 0.0138 0.0
C1786 C 0.15245 0.05327 1.00387 0.0
C1787 C 0.18315 0.05398 0.00813 0.0
C1788 C 0.18058 0.03907 0.99264 0.0
C1789 C 0.1642 0.03255 0.98171 0.0
C1790 C 0.1502 0.03963 0.98729 0.0
C1791 C 0.19428 0.02869 0.98952 0.0
C1792 C 0.20061 0.02708 0.97193 0.0
C1793 C 0.20113 0.02041 1.00411 0.0
C1794 C 0.19401 0.02025 0.02246 0.0
C1795 C 0.1763 0.01226 0.02291 0.0
C1796 C 0.1696 0.01246 0.04021 0.0
C1797 C 0.18052 0.02044 0.05716 0.0
C1798 C 0.19818 0.02817 0.05686 0.0
C1799 C 0.20494 0.02806 0.03959 0.0
H1800 H 0.17531 0.02058 0.07054 0.0
H1801 H 0.23812 0.01471 0.90141 0.0
H1802 H 0.70145 0.66036 0.9761 0.0
H1803 H 0.67282 0.6401 0.97731 0.0
H1804 H 0.6969 0.60016 1.00113 0.0
H1805 H 0.7256 0.62005 0.99924 0.0
H1806 H 0.67066 0.58135 0.9766 0.0
H1807 H 0.67822 0.63502 0.02776 0.0
H1808 H 0.68333 0.66904 0.04151 0.0
H1809 H 0.63826 0.67296 0.00632 0.0
H1810 H 0.63296 0.63902 0.99222 0.0
H1811 H 0.60015 0.52867 0.0137 0.0
H1812 H 0.62752 0.54979 0.00957 0.0
H1813 H 0.5993 0.5869 0.98651 0.0
H1814 H 0.57187 0.56596 0.99116 0.0
H1815 H 0.62656 0.60768 0.00862 0.0
H1816 H 0.61794 0.55532 0.95794 0.0
H1817 H 0.61202 0.52164 0.94269 0.0
H1818 H 0.65801 0.51567 0.97474 0.0
H1819 H 0.66409 0.54925 0.99038 0.0
C1820 C 0.70067 0.64722 0.98153 0.0
C1821 C 0.71588 0.6419 0.98765 0.0
C1822 C 0.68423 0.63568 0.98235 0.0
C1823 C 0.68255 0.61872 0.98972 0.0
C1824 C 0.69774 0.61318 0.99545 0.0
C1825 C 0.7142 0.62459 0.99438 0.0
C1826 C 0.66506 0.60665 0.99141 0.0
C1827 C 0.66114 0.58711 0.98385 0.0
C1828 C 0.65221 0.61416 1.00016 0.0
C1829 C 0.65533 0.63453 0.00878 0.0
C1830 C 0.66946 0.64317 0.02287 0.0
C1831 C 0.67238 0.66243 0.03074 0.0
C1832 C 0.66115 0.67317 0.02475 0.0
C1833 C 0.64694 0.66464 0.01094 0.0
C1834 C 0.64398 0.64539 1.00301 0.0
C1835 C 0.59979 0.54132 0.00773 0.0
C1836 C 0.58387 0.54559 1.00263 0.0
C1837 C 0.61546 0.55336 0.00526 0.0
C1838 C 0.61559 0.56981 0.99732 0.0
C1839 C 0.59964 0.57428 0.99255 0.0
C1840 C 0.58395 0.56228 0.99518 0.0
C1841 C 0.63235 0.58234 0.99417 0.0
C1842 C 0.63609 0.60194 1.00137 0.0
C1843 C 0.64496 0.57496 0.98487 0.0
C1844 C 0.64139 0.55476 0.97545 0.0
C1845 C 0.62673 0.54679 0.96184 0.0
C1846 C 0.62336 0.52772 0.95311 0.0
C1847 C 0.63461 0.51651 0.95778 0.0
C1848 C 0.64929 0.52436 0.97116 0.0
C1849 C 0.65272 0.54342 0.97994 0.0
H1850 H 0.63198 0.50175 0.95101 0.0
H1851 H 0.66344 0.68808 0.03085 0.0
H1852 H 0.6695 0.43225 0.26129 0.0
H1853 H 0.68626 0.40838 0.26085 0.0
H1854 H 0.73305 0.45232 0.28018 0.0
H1855 H 0.71604 0.47677 0.28025 0.0
H1856 H 0.74227 0.42593 0.25715 0.0
H1857 H 0.7093 0.41875 0.30864 0.0
H1858 H 0.68334 0.41406 0.32523 0.0
H1859 H 0.66192 0.36005 0.28891 0.0
H1860 H 0.68769 0.36453 0.27198 0.0
H1861 H 0.79084 0.35651 0.27717 0.0
H1862 H 0.77595 0.38243 0.27847 0.0
H1863 H 0.72728 0.34175 0.25822 0.0
H1864 H 0.74217 0.3157 0.25718 0.0
H1865 H 0.72014 0.36745 0.28313 0.0
H1866 H 0.75254 0.37561 0.23071 0.0
H1867 H 0.77875 0.38018 0.21451 0.0
H1868 H 0.80166 0.43209 0.25362 0.0
H1869 H 0.77566 0.4277 0.27021 0.0
C1870 C 0.68337 0.43719 0.26556 0.0
C1871 C 0.69099 0.45705 0.27094 0.0
C1872 C 0.69314 0.42314 0.26544 0.0
C1873 C 0.71131 0.42779 0.27093 0.0
C1874 C 0.71916 0.44768 0.27595 0.0
C1875 C 0.70928 0.46192 0.27603 0.0
C1876 C 0.72166 0.41196 0.27121 0.0
C1877 C 0.73739 0.41335 0.26315 0.0
C1878 C 0.71576 0.39483 0.27859 0.0
C1879 C 0.70029 0.39212 0.28881 0.0
C1880 C 0.69898 0.40595 0.30406 0.0
C1881 C 0.68432 0.40332 0.31357 0.0
C1882 C 0.67095 0.38681 0.30807 0.0
C1883 C 0.67225 0.37287 0.29311 0.0
C1884 C 0.68687 0.37545 0.28356 0.0
C1885 C 0.77697 0.35288 0.27282 0.0
C1886 C 0.76805 0.33347 0.26689 0.0
C1887 C 0.7683 0.36803 0.27346 0.0
C1888 C 0.75014 0.36478 0.26813 0.0
C1889 C 0.74118 0.34533 0.26241 0.0
C1890 C 0.74986 0.33016 0.26175 0.0
C1891 C 0.74055 0.38129 0.26883 0.0
C1892 C 0.72498 0.38003 0.27712 0.0
C1893 C 0.74663 0.39854 0.26175 0.0
C1894 C 0.76224 0.40122 0.25181 0.0
C1895 C 0.76322 0.38793 0.23593 0.0
C1896 C 0.77803 0.3905 0.22667 0.0
C1897 C 0.79188 0.40639 0.23306 0.0
C1898 C 0.79093 0.41977 0.2487 0.0
C1899 C 0.77616 0.41726 0.25803 0.0
H1900 H 0.80333 0.40835 0.22587 0.0
H1901 H 0.65961 0.3848 0.31545 0.0
H1902 H 0.85302 0.48781 0.5041 0.0
H1903 H 0.88458 0.4996 0.51072 0.0
H1904 H 0.8879 0.45118 0.53711 0.0
H1905 H 0.85637 0.43943 0.53083 0.0
H1906 H 0.91124 0.48386 0.55602 0.0
H1907 H 0.89386 0.44938 0.49203 0.0
H1908 H 0.8773 0.44213 0.46006 0.0
H1909 H 0.90001 0.49854 0.45089 0.0
H1910 H 0.91653 0.5062 0.48293 0.0
H1911 H 0.99476 0.48505 0.50489 0.0
H1912 H 0.96424 0.47336 0.50837 0.0
H1913 H 0.96732 0.52314 0.55038 0.0
H1914 H 0.99819 0.53441 0.54752 0.0
H1915 H 0.94055 0.48966 0.49852 0.0
H1916 H 0.93383 0.51482 0.57685 0.0
H1917 H 0.95089 0.52013 0.60841 0.0
H1918 H 0.97742 0.47759 0.58844 0.0
H1919 H 0.96039 0.47188 0.55685 0.0
C1920 C 0.86045 0.47977 0.51148 0.0
C1921 C 0.85223 0.46255 0.5167 0.0
C1922 C 0.87846 0.48655 0.5153 0.0
C1923 C 0.88855 0.47614 0.52424 0.0
C1924 C 0.88033 0.45943 0.53024 0.0
C1925 C 0.86232 0.45267 0.52649 0.0
C1926 C 0.90771 0.48166 0.52565 0.0
C1927 C 0.91772 0.48518 0.5435 0.0
C1928 C 0.91609 0.48305 0.50926 0.0
C1929 C 0.90629 0.47842 0.48993 0.0
C1930 C 0.89523 0.46028 0.48324 0.0
C1931 C 0.88586 0.45609 0.4651 0.0
C1932 C 0.88757 0.46988 0.45347 0.0
C1933 C 0.89868 0.48788 0.45993 0.0
C1934 C 0.90806 0.49215 0.47807 0.0
C1935 C 0.98901 0.49322 0.51522 0.0
C1936 C 0.9987 0.51061 0.5259 0.0
C1937 C 0.97158 0.48659 0.51716 0.0
C1938 C 0.96343 0.49741 0.52955 0.0
C1939 C 0.97335 0.5144 0.54093 0.0
C1940 C 0.99097 0.52084 0.53928 0.0
C1941 C 0.9443 0.49181 0.52891 0.0
C1942 C 0.93421 0.48837 0.51114 0.0
C1943 C 0.93596 0.49014 0.54534 0.0
C1944 C 0.94593 0.49305 0.56444 0.0
C1945 C 0.94323 0.50653 0.57923 0.0
C1946 C 0.95292 0.50963 0.59711 0.0
C1947 C 0.96526 0.49924 0.60041 0.0
C1948 C 0.96789 0.48567 0.58585 0.0
C1949 C 0.95825 0.48252 0.56795 0.0
H1950 H 0.97276 0.50169 0.61425 0.0
H1951 H 0.8803 0.46662 0.43943 0.0
H1952 H 0.39795 0.13114 0.31681 0.0
H1953 H 0.38074 0.14761 0.29847 0.0
H1954 H 0.3368 0.09917 0.29078 0.0
H1955 H 0.35394 0.08253 0.30888 0.0
H1956 H 0.34523 0.10934 0.25718 0.0
H1957 H 0.33608 0.14091 0.31848 0.0
H1958 H 0.34595 0.15961 0.35065 0.0
H1959 H 0.37543 0.20544 0.32738 0.0
H1960 H 0.36574 0.187 0.29508 0.0
H1961 H 0.27442 0.14531 0.22451 0.0
H1962 H 0.2961 0.13048 0.23813 0.0
H1963 H 0.33562 0.18236 0.24181 0.0
H1964 H 0.3141 0.19743 0.22875 0.0
H1965 H 0.33246 0.17225 0.27591 0.0
H1966 H 0.33974 0.14328 0.21496 0.0
H1967 H 0.33099 0.1254 0.18238 0.0
H1968 H 0.30702 0.07559 0.20388 0.0
H1969 H 0.31537 0.09328 0.23662 0.0
C1970 C 0.38448 0.12422 0.3117 0.0
C1971 C 0.37733 0.10548 0.3141 0.0
C1972 C 0.37468 0.13362 0.30116 0.0
C1973 C 0.35758 0.12448 0.29313 0.0
C1974 C 0.35005 0.10634 0.2967 0.0
C1975 C 0.35982 0.09692 0.30714 0.0
C1976 C 0.34793 0.13312 0.27982 0.0
C1977 C 0.34223 0.12299 0.2613 0.0
C1978 C 0.34477 0.15128 0.28502 0.0
C1979 C 0.35033 0.1625 0.3044 0.0
C1980 C 0.34474 0.15494 0.32024 0.0
C1981 C 0.35028 0.1655 0.33849 0.0
C1982 C 0.36137 0.18367 0.34106 0.0
C1983 C 0.36688 0.19135 0.32538 0.0
C1984 C 0.36131 0.18088 0.30709 0.0
C1985 C 0.28783 0.15335 0.22769 0.0
C1986 C 0.29248 0.17259 0.22578 0.0
C1987 C 0.30021 0.14486 0.2354 0.0
C1988 C 0.31738 0.15549 0.24117 0.0
C1989 C 0.32238 0.17407 0.23758 0.0
C1990 C 0.31005 0.18255 0.22991 0.0
C1991 C 0.32933 0.14824 0.25337 0.0
C1992 C 0.33554 0.15865 0.27169 0.0
C1993 C 0.3331 0.13044 0.24791 0.0
C1994 C 0.32805 0.11967 0.22826 0.0
C1995 C 0.33246 0.12856 0.21275 0.0
C1996 C 0.3276 0.11845 0.19424 0.0
C1997 C 0.31842 0.09938 0.19106 0.0
C1998 C 0.31412 0.09037 0.20637 0.0
C1999 C 0.31893 0.10043 0.22491 0.0
H2000 H 0.31468 0.09156 0.17672 0.0
H2001 H 0.36563 0.19184 0.3552 0.0
H2002 H 0.34315 0.16879 0.4834 0.0
H2003 H 0.36668 0.15279 0.48674 0.0
H2004 H 0.33187 0.10582 0.50369 0.0
H2005 H 0.3082 0.12201 0.50072 0.0
H2006 H 0.36228 0.11453 0.52558 0.0
H2007 H 0.34486 0.10285 0.45859 0.0
H2008 H 0.33787 0.1112 0.42734 0.0
H2009 H 0.38971 0.14582 0.43122 0.0
H2010 H 0.39695 0.13788 0.46263 0.0
H2011 H 0.41767 0.0508 0.51469 0.0
H2012 H 0.39373 0.06632 0.51182 0.0
H2013 H 0.42779 0.11431 0.49561 0.0
H2014 H 0.45191 0.09889 0.49856 0.0
H2015 H 0.39742 0.10455 0.47322 0.0
H2016 H 0.41469 0.11635 0.54039 0.0
H2017 H 0.42163 0.10782 0.57157 0.0
H2018 H 0.36993 0.07268 0.56718 0.0
H2019 H 0.36276 0.0808 0.53585 0.0
C2020 C 0.34041 0.15503 0.4878 0.0
C2021 C 0.32367 0.14668 0.49169 0.0
C2022 C 0.35393 0.14582 0.48963 0.0
C2023 C 0.35109 0.12789 0.49518 0.0
C2024 C 0.33444 0.11959 0.49931 0.0
C2025 C 0.32088 0.12885 0.49755 0.0
C2026 C 0.36555 0.11799 0.49684 0.0
C2027 C 0.36977 0.1121 0.51401 0.0
C2028 C 0.37569 0.11514 0.48195 0.0
C2029 C 0.37139 0.11991 0.46304 0.0
C2030 C 0.35473 0.11236 0.45285 0.0
C2031 C 0.35073 0.117 0.43509 0.0
C2032 C 0.36332 0.12907 0.42732 0.0
C2033 C 0.37996 0.13649 0.43727 0.0
C2034 C 0.38402 0.13191 0.45504 0.0
C2035 C 0.4202 0.06478 0.51077 0.0
C2036 C 0.43687 0.0736 0.50702 0.0
C2037 C 0.40642 0.07365 0.50909 0.0
C2038 C 0.4089 0.09165 0.50372 0.0
C2039 C 0.42547 0.10043 0.49977 0.0
C2040 C 0.43928 0.09155 0.50143 0.0
C2041 C 0.39419 0.10116 0.50197 0.0
C2042 C 0.38991 0.10697 0.48478 0.0
C2043 C 0.38398 0.10389 0.51682 0.0
C2044 C 0.38825 0.09904 0.53569 0.0
C2045 C 0.40484 0.10669 0.54601 0.0
C2046 C 0.40881 0.10195 0.56372 0.0
C2047 C 0.39624 0.08968 0.57133 0.0
C2048 C 0.37966 0.08216 0.56126 0.0
C2049 C 0.37564 0.08684 0.54353 0.0
H2050 H 0.39934 0.08602 0.58505 0.0
H2051 H 0.3602 0.13265 0.41358 0.0
H2052 H 0.71745 0.56754 0.27565 0.0
H2053 H 0.7355 0.59923 0.27392 0.0
H2054 H 0.69064 0.62257 0.27683 0.0
H2055 H 0.67275 0.59128 0.27823 0.0
H2056 H 0.7074 0.63884 0.25297 0.0
H2057 H 0.72648 0.62986 0.3155 0.0
H2058 H 0.73846 0.61364 0.33932 0.0
H2059 H 0.78525 0.6181 0.31328 0.0
H2060 H 0.77345 0.63415 0.28916 0.0
H2061 H 0.75345 0.73866 0.27017 0.0
H2062 H 0.73536 0.70698 0.27186 0.0
H2063 H 0.78053 0.68396 0.27061 0.0
H2064 H 0.79845 0.7154 0.26948 0.0
H2065 H 0.76355 0.66746 0.29357 0.0
H2066 H 0.74453 0.67637 0.23098 0.0
H2067 H 0.73267 0.69276 0.20724 0.0
H2068 H 0.68588 0.68845 0.23327 0.0
H2069 H 0.69756 0.67223 0.2573 0.0
C2070 C 0.7114 0.5794 0.276 0.0
C2071 C 0.6934 0.57639 0.27718 0.0
C2072 C 0.72184 0.59777 0.27509 0.0
C2073 C 0.71476 0.61395 0.27541 0.0
C2074 C 0.69679 0.61079 0.27647 0.0
C2075 C 0.68644 0.59259 0.27738 0.0
C2076 C 0.72567 0.63403 0.27454 0.0
C2077 C 0.71958 0.64504 0.26209 0.0
C2078 C 0.7419 0.64265 0.28596 0.0
C2079 C 0.74901 0.63301 0.30041 0.0
C2080 C 0.73927 0.62725 0.31478 0.0
C2081 C 0.74604 0.61811 0.32834 0.0
C2082 C 0.76258 0.61479 0.32778 0.0
C2083 C 0.77242 0.62065 0.31367 0.0
C2084 C 0.76571 0.62978 0.30006 0.0
C2085 C 0.75952 0.72685 0.27015 0.0
C2086 C 0.77759 0.72992 0.26957 0.0
C2087 C 0.74907 0.70848 0.27104 0.0
C2088 C 0.75622 0.69237 0.27115 0.0
C2089 C 0.77429 0.69565 0.27063 0.0
C2090 C 0.78466 0.71389 0.26987 0.0
C2091 C 0.74531 0.67227 0.27196 0.0
C2092 C 0.75139 0.66126 0.28442 0.0
C2093 C 0.72908 0.66364 0.26052 0.0
C2094 C 0.72199 0.67326 0.24604 0.0
C2095 C 0.73175 0.67902 0.2317 0.0
C2096 C 0.72506 0.68827 0.21819 0.0
C2097 C 0.70855 0.69169 0.21878 0.0
C2098 C 0.69868 0.68581 0.23285 0.0
C2099 C 0.70532 0.67658 0.24641 0.0
H2100 H 0.70339 0.69885 0.20831 0.0
H2101 H 0.7678 0.60772 0.33829 0.0
H2102 H 0.86914 0.51482 0.78536 0.0
H2103 H 0.85067 0.48246 0.77969 0.0
H2104 H 0.89072 0.46142 0.75333 0.0
H2105 H 0.90903 0.49375 0.75841 0.0
H2106 H 0.85964 0.44274 0.73502 0.0
H2107 H 0.88646 0.46037 0.80029 0.0
H2108 H 0.89353 0.48034 0.83209 0.0
H2109 H 0.83926 0.4709 0.83791 0.0
H2110 H 0.83187 0.45106 0.80603 0.0
H2111 H 0.84004 0.35522 0.78626 0.0
H2112 H 0.8526 0.38871 0.78582 0.0
H2113 H 0.81404 0.38714 0.73895 0.0
H2114 H 0.80224 0.35313 0.73854 0.0
H2115 H 0.84152 0.4181 0.79251 0.0
H2116 H 0.82805 0.42101 0.71394 0.0
H2117 H 0.82252 0.39957 0.68302 0.0
H2118 H 0.85464 0.36575 0.70476 0.0
H2119 H 0.86036 0.38704 0.73587 0.0
C2120 C 0.87396 0.50331 0.77822 0.0
C2121 C 0.89063 0.50678 0.77255 0.0
C2122 C 0.86338 0.48484 0.77498 0.0
C2123 C 0.86943 0.4695 0.76633 0.0
C2124 C 0.88579 0.47305 0.76 0.0
C2125 C 0.89629 0.49153 0.76304 0.0
C2126 C 0.85937 0.44962 0.76517 0.0
C2127 C 0.85562 0.43733 0.74757 0.0
C2128 C 0.85419 0.44256 0.78153 0.0
C2129 C 0.85861 0.45443 0.80071 0.0
C2130 C 0.87604 0.46267 0.80831 0.0
C2131 C 0.8801 0.47394 0.82635 0.0
C2132 C 0.86685 0.47693 0.83699 0.0
C2133 C 0.8495 0.46861 0.82964 0.0
C2134 C 0.84537 0.45734 0.81159 0.0
C2135 C 0.83433 0.36203 0.7758 0.0
C2136 C 0.82026 0.35169 0.76239 0.0
C2137 C 0.84146 0.38118 0.77559 0.0
C2138 C 0.8344 0.39049 0.76225 0.0
C2139 C 0.82003 0.38021 0.74907 0.0
C2140 C 0.81322 0.36084 0.74891 0.0
C2141 C 0.84221 0.41094 0.76246 0.0
C2142 C 0.84541 0.42345 0.77989 0.0
C2143 C 0.84727 0.41802 0.74602 0.0
C2144 C 0.84455 0.40555 0.72723 0.0
C2145 C 0.83403 0.40908 0.71207 0.0
C2146 C 0.83083 0.39692 0.69453 0.0
C2147 C 0.83823 0.38131 0.6919 0.0
C2148 C 0.8489 0.37784 0.70682 0.0
C2149 C 0.85211 0.38993 0.72442 0.0
H2150 H 0.83573 0.37192 0.67829 0.0
H2151 H 0.87002 0.48566 0.85096 0.0
H2152 H 0.10586 0.88049 0.11681 0.0
H2153 H 0.10006 0.90557 0.10024 0.0
H2154 H 0.04992 0.86972 0.07565 0.0
H2155 H 0.0559 0.84422 0.09189 0.0
H2156 H 0.06331 0.88836 0.04995 0.0
H2157 H 0.05559 0.90773 0.11437 0.0
H2158 H 0.06342 0.91518 0.14908 0.0
H2159 H 0.10734 0.95924 0.14317 0.0
H2160 H 0.0999 0.95187 0.1084 0.0
H2161 H 0.02891 0.96458 0.02325 0.0
H2162 H 0.03481 0.93788 0.03725 0.0
H2163 H 0.08646 0.97112 0.05967 0.0
H2164 H 0.08062 0.99797 0.0458 0.0
H2165 H 0.07166 0.95356 0.0863 0.0
H2166 H 0.07869 0.93389 0.02137 0.0
H2167 H 0.06999 0.92642 0.98679 0.0
H2168 H 0.02611 0.88292 0.99393 0.0
H2169 H 0.03443 0.89031 0.02859 0.0
C2170 C 0.09359 0.87783 0.10784 0.0
C2171 C 0.08133 0.86024 0.10584 0.0
C2172 C 0.09022 0.89233 0.09841 0.0
C2173 C 0.07435 0.8899 0.0869 0.0
C2174 C 0.06224 0.87215 0.08447 0.0
C2175 C 0.06567 0.85752 0.09381 0.0
C2176 C 0.07046 0.90589 0.07762 0.0
C2177 C 0.06491 0.90253 0.058 0.0
C2178 C 0.07278 0.92463 0.08786 0.0
C2179 C 0.07728 0.92912 0.10877 0.0
C2180 C 0.06699 0.91891 0.12047 0.0
C2181 C 0.07134 0.92313 0.14015 0.0
C2182 C 0.08589 0.93764 0.14832 0.0
C2183 C 0.09609 0.94799 0.13682 0.0
C2184 C 0.0918 0.94381 0.11713 0.0
C2185 C 0.04161 0.96623 0.03099 0.0
C2186 C 0.05428 0.98357 0.03325 0.0
C2187 C 0.04499 0.95083 0.03899 0.0
C2188 C 0.06117 0.95226 0.04949 0.0
C2189 C 0.07388 0.96952 0.05168 0.0
C2190 C 0.07053 0.9849 0.04361 0.0
C2191 C 0.06465 0.93605 0.05865 0.0
C2192 C 0.07008 0.93938 0.07826 0.0
C2193 C 0.06208 0.91729 0.04842 0.0
C2194 C 0.05709 0.91278 0.02759 0.0
C2195 C 0.06711 0.92283 0.01557 0.0
C2196 C 0.06226 0.91859 0.99596 0.0
C2197 C 0.04748 0.90424 0.98817 0.0
C2198 C 0.03755 0.89405 0.99998 0.0
C2199 C 0.04233 0.89825 0.01961 0.0
H2200 H 0.04375 0.90098 0.97298 0.0
H2201 H 0.08925 0.94089 0.16356 0.0
H2202 H 0.96576 0.28068 0.87534 0.0
H2203 H 0.94036 0.28739 0.85838 0.0
H2204 H 0.92303 0.22835 0.83201 0.0
H2205 H 0.94838 0.22155 0.84883 0.0
H2206 H 0.92023 0.25129 0.80636 0.0
H2207 H 0.90379 0.24744 0.8688 0.0
H2208 H 0.90739 0.25618 0.90363 0.0
H2209 H 0.90764 0.31402 0.89902 0.0
H2210 H 0.90426 0.30567 0.86415 0.0
H2211 H 0.83545 0.24804 0.76692 0.0
H2212 H 0.8604 0.24312 0.7861 0.0
H2213 H 0.87153 0.30132 0.81512 0.0
H2214 H 0.84596 0.30601 0.79635 0.0
H2215 H 0.87838 0.28054 0.83963 0.0
H2216 H 0.89468 0.28544 0.77807 0.0
H2217 H 0.89201 0.27801 0.7432 0.0
H2218 H 0.89349 0.22021 0.74591 0.0
H2219 H 0.89593 0.22723 0.7808 0.0
C2220 C 0.95656 0.2691 0.86593 0.0
C2221 C 0.95921 0.25054 0.86352 0.0
C2222 C 0.94194 0.27295 0.85628 0.0
C2223 C 0.92956 0.25837 0.84397 0.0
C2224 C 0.9323 0.23989 0.8414 0.0
C2225 C 0.94684 0.23601 0.8511 0.0
C2226 C 0.9139 0.26229 0.83355 0.0
C2227 C 0.91098 0.25746 0.81369 0.0
C2228 C 0.90203 0.27097 0.84292 0.0
C2229 C 0.90395 0.27597 0.86387 0.0
C2230 C 0.90474 0.26205 0.87521 0.0
C2231 C 0.90672 0.26693 0.89496 0.0
C2232 C 0.90779 0.28565 0.90353 0.0
C2233 C 0.90683 0.29952 0.89237 0.0
C2234 C 0.90487 0.29473 0.87261 0.0
C2235 C 0.84313 0.25977 0.77748 0.0
C2236 C 0.83878 0.27747 0.77997 0.0
C2237 C 0.85754 0.25699 0.78838 0.0
C2238 C 0.86833 0.27197 0.80181 0.0
C2239 C 0.86361 0.28951 0.80481 0.0
C2240 C 0.84898 0.29222 0.79405 0.0
C2241 C 0.88456 0.2693 0.81239 0.0
C2242 C 0.88763 0.2744 0.83227 0.0
C2243 C 0.89672 0.26108 0.80302 0.0
C2244 C 0.89534 0.25682 0.78204 0.0
C2245 C 0.89432 0.27111 0.77122 0.0
C2246 C 0.89287 0.26698 0.75146 0.0
C2247 C 0.89254 0.24864 0.74235 0.0
C2248 C 0.89372 0.23441 0.75299 0.0
C2249 C 0.89516 0.23846 0.77276 0.0
H2250 H 0.89141 0.24547 0.72704 0.0
H2251 H 0.90932 0.2894 0.91882 0.0
H2252 H 0.53138 0.23848 0.60044 0.0
H2253 H 0.53004 0.2059 0.58573 0.0
H2254 H 0.58489 0.22128 0.58162 0.0
H2255 H 0.58623 0.2543 0.59601 0.0
H2256 H 0.56855 0.1964 0.55083 0.0
H2257 H 0.56872 0.19805 0.61736 0.0
H2258 H 0.55929 0.20517 0.64876 0.0
H2259 H 0.50846 0.1695 0.6279 0.0
H2260 H 0.51752 0.16237 0.59628 0.0
H2261 H 0.57618 0.09886 0.54204 0.0
H2262 H 0.57926 0.13288 0.55358 0.0
H2263 H 0.52361 0.12344 0.54958 0.0
H2264 H 0.52038 0.08956 0.53773 0.0
H2265 H 0.54185 0.14529 0.58482 0.0
H2266 H 0.54256 0.14382 0.51788 0.0
H2267 H 0.55309 0.1363 0.48716 0.0
H2268 H 0.60378 0.17125 0.50986 0.0
H2269 H 0.59365 0.17871 0.54085 0.0
C2270 C 0.54318 0.23505 0.59628 0.0
C2271 C 0.55895 0.24907 0.59959 0.0
C2272 C 0.5424 0.2163 0.58792 0.0
C2273 C 0.55744 0.21085 0.58292 0.0
C2274 C 0.5731 0.22499 0.58543 0.0
C2275 C 0.57386 0.24391 0.59367 0.0
C2276 C 0.55674 0.19033 0.57569 0.0
C2277 C 0.56294 0.18528 0.55844 0.0
C2278 C 0.54925 0.17561 0.58539 0.0
C2279 C 0.54376 0.17981 0.6044 0.0
C2280 C 0.55549 0.19183 0.61943 0.0
C2281 C 0.55022 0.19585 0.63727 0.0
C2282 C 0.53328 0.18783 0.64031 0.0
C2283 C 0.52158 0.17572 0.62552 0.0
C2284 C 0.52678 0.17167 0.60764 0.0
C2285 C 0.56458 0.10401 0.54357 0.0
C2286 C 0.54803 0.09138 0.53897 0.0
C2287 C 0.56637 0.1235 0.55012 0.0
C2288 C 0.55167 0.13078 0.55244 0.0
C2289 C 0.53515 0.1182 0.54793 0.0
C2290 C 0.53334 0.0988 0.5411 0.0
C2291 C 0.55345 0.15141 0.55993 0.0
C2292 C 0.54749 0.15644 0.57727 0.0
C2293 C 0.56132 0.16605 0.55041 0.0
C2294 C 0.5674 0.16165 0.53176 0.0
C2295 C 0.556 0.14976 0.51639 0.0
C2296 C 0.56188 0.14554 0.49891 0.0
C2297 C 0.5791 0.15326 0.49657 0.0
C2298 C 0.59046 0.16525 0.5117 0.0
C2299 C 0.58465 0.16949 0.52923 0.0
H2300 H 0.58362 0.14998 0.48303 0.0
H2301 H 0.52922 0.19095 0.65414 0.0
H2302 H 0.57591 0.75374 0.40359 0.0
H2303 H 0.60141 0.75694 0.38696 0.0
H2304 H 0.57265 0.77034 0.33926 0.0
H2305 H 0.54677 0.7667 0.35578 0.0
H2306 H 0.5923 0.74745 0.32695 0.0
H2307 H 0.60294 0.80531 0.37169 0.0
H2308 H 0.60547 0.82529 0.40308 0.0
H2309 H 0.6459 0.80082 0.42419 0.0
H2310 H 0.64345 0.78049 0.39299 0.0
H2311 H 0.66693 0.78488 0.28421 0.0
H2312 H 0.6406 0.7808 0.29961 0.0
H2313 H 0.66731 0.76449 0.34689 0.0
H2314 H 0.69392 0.76902 0.33174 0.0
H2315 H 0.64853 0.78933 0.35898 0.0
H2316 H 0.63758 0.73141 0.31371 0.0
H2317 H 0.63503 0.71198 0.28203 0.0
H2318 H 0.59514 0.7375 0.26151 0.0
H2319 H 0.59762 0.75728 0.29303 0.0
C2320 C 0.57492 0.75736 0.38955 0.0
C2321 C 0.55922 0.76008 0.38111 0.0
C2322 C 0.58962 0.75929 0.38006 0.0
C2323 C 0.58919 0.76428 0.36194 0.0
C2324 C 0.57342 0.76659 0.35326 0.0
C2325 C 0.55861 0.76453 0.36273 0.0
C2326 C 0.60521 0.76705 0.35221 0.0
C2327 C 0.60451 0.75684 0.33387 0.0
C2328 C 0.62135 0.779 0.36127 0.0
C2329 C 0.6229 0.79124 0.38004 0.0
C2330 C 0.61228 0.80408 0.38307 0.0
C2331 C 0.61372 0.81549 0.40082 0.0
C2332 C 0.62581 0.81429 0.41563 0.0
C2333 C 0.63652 0.80171 0.41271 0.0
C2334 C 0.63513 0.79026 0.39499 0.0
C2335 C 0.6673 0.78054 0.29795 0.0
C2336 C 0.68267 0.77735 0.30672 0.0
C2337 C 0.65211 0.77802 0.30667 0.0
C2338 C 0.65181 0.77214 0.32438 0.0
C2339 C 0.66713 0.76898 0.33322 0.0
C2340 C 0.68234 0.77144 0.32446 0.0
C2341 C 0.63563 0.76965 0.33379 0.0
C2342 C 0.6363 0.77995 0.35207 0.0
C2343 C 0.61947 0.75788 0.32462 0.0
C2344 C 0.61791 0.74596 0.30569 0.0
C2345 C 0.62836 0.73299 0.30241 0.0
C2346 C 0.62691 0.72189 0.28449 0.0
C2347 C 0.61496 0.72354 0.26975 0.0
C2348 C 0.6044 0.73626 0.27293 0.0
C2349 C 0.60582 0.7474 0.29082 0.0
H2350 H 0.61385 0.71494 0.25589 0.0
H2351 H 0.62689 0.82314 0.42936 0.0
H2352 H 0.08322 0.29424 0.44543 0.0
H2353 H 0.08203 0.26725 0.46184 0.0
H2354 H 0.10564 0.23974 0.41762 0.0
H2355 H 0.10646 0.26652 0.40084 0.0
H2356 H 0.07808 0.21605 0.42443 0.0
H2357 H 0.12761 0.25791 0.46329 0.0
H2358 H 0.14474 0.28778 0.48331 0.0
H2359 H 0.10786 0.28276 0.5233 0.0
H2360 H 0.09037 0.25298 0.50339 0.0
H2361 H 0.08445 0.13974 0.4739 0.0
H2362 H 0.09152 0.16736 0.45816 0.0
H2363 H 0.06514 0.19794 0.49706 0.0
H2364 H 0.05764 0.17026 0.51258 0.0
H2365 H 0.09687 0.21968 0.49278 0.0
H2366 H 0.04531 0.18238 0.4517 0.0
H2367 H 0.02611 0.15453 0.43053 0.0
H2368 H 0.06637 0.15163 0.3952 0.0
H2369 H 0.08571 0.17981 0.41604 0.0
C2370 C 0.08838 0.28257 0.4393 0.0
C2371 C 0.09486 0.28249 0.42177 0.0
C2372 C 0.08779 0.26718 0.44878 0.0
C2373 C 0.09391 0.25152 0.44108 0.0
C2374 C 0.10086 0.25166 0.42385 0.0
C2375 C 0.10133 0.26699 0.41428 0.0
C2376 C 0.09169 0.23436 0.45019 0.0
C2377 C 0.08258 0.21681 0.43928 0.0
C2378 C 0.09709 0.23539 0.4697 0.0
C2379 C 0.10761 0.25327 0.48176 0.0
C2380 C 0.12309 0.26324 0.47628 0.0
C2381 C 0.13287 0.28015 0.48763 0.0
C2382 C 0.12738 0.28719 0.50455 0.0
C2383 C 0.1121 0.2773 0.51018 0.0
C2384 C 0.10226 0.26039 0.49889 0.0
C2385 C 0.07993 0.15223 0.47895 0.0
C2386 C 0.07043 0.15273 0.4945 0.0
C2387 C 0.08405 0.16804 0.46998 0.0
C2388 C 0.07879 0.18467 0.4764 0.0
C2389 C 0.0694 0.18527 0.49194 0.0
C2390 C 0.06519 0.16945 0.50085 0.0
C2391 C 0.08317 0.20153 0.46701 0.0
C2392 C 0.09267 0.21896 0.47787 0.0
C2393 C 0.07813 0.20047 0.44747 0.0
C2394 C 0.06698 0.18299 0.43551 0.0
C2395 C 0.05011 0.17566 0.43953 0.0
C2396 C 0.03918 0.15988 0.42753 0.0
C2397 C 0.04504 0.1512 0.41157 0.0
C2398 C 0.06186 0.15834 0.40757 0.0
C2399 C 0.07278 0.17427 0.41942 0.0
H2400 H 0.03653 0.13901 0.40227 0.0
H2401 H 0.13497 0.30028 0.51331 0.0
H2402 H 0.55458 0.25798 0.14441 0.0
H2403 H 0.58352 0.26056 0.16039 0.0
H2404 H 0.5653 0.2706 0.2147 0.0
H2405 H 0.53605 0.2679 0.19879 0.0
H2406 H 0.59976 0.29436 0.21088 0.0
H2407 H 0.56748 0.22905 0.20138 0.0
H2408 H 0.54864 0.19943 0.18255 0.0
H2409 H 0.5874 0.19606 0.14533 0.0
H2410 H 0.60627 0.22592 0.16364 0.0
H2411 H 0.67475 0.27166 0.25766 0.0
H2412 H 0.64534 0.27454 0.24772 0.0
H2413 H 0.65089 0.2551 0.18951 0.0
H2414 H 0.6802 0.25239 0.19926 0.0
H2415 H 0.62125 0.23567 0.19911 0.0
H2416 H 0.65212 0.30105 0.20524 0.0
H2417 H 0.67062 0.33227 0.22088 0.0
H2418 H 0.63534 0.33643 0.26208 0.0
H2419 H 0.61673 0.30507 0.24683 0.0
C2420 C 0.55671 0.26097 0.15975 0.0
C2421 C 0.54298 0.26255 0.17035 0.0
C2422 C 0.57326 0.26243 0.16884 0.0
C2423 C 0.57642 0.26555 0.18867 0.0
C2424 C 0.56303 0.26814 0.19936 0.0
C2425 C 0.54636 0.26653 0.19026 0.0
C2426 C 0.59346 0.26479 0.19797 0.0
C2427 C 0.60441 0.28148 0.20869 0.0
C2428 C 0.59949 0.24801 0.19467 0.0
C2429 C 0.58824 0.22984 0.1838 0.0
C2430 C 0.57192 0.2221 0.18908 0.0
C2431 C 0.56123 0.20525 0.17849 0.0
C2432 C 0.56678 0.1959 0.16269 0.0
C2433 C 0.58306 0.20335 0.15751 0.0
C2434 C 0.59377 0.22023 0.16799 0.0
C2435 C 0.66976 0.26826 0.24273 0.0
C2436 C 0.6797 0.2616 0.22926 0.0
C2437 C 0.65298 0.26989 0.23708 0.0
C2438 C 0.64595 0.26499 0.21789 0.0
C2439 C 0.65603 0.2588 0.20441 0.0
C2440 C 0.67274 0.25717 0.21002 0.0
C2441 C 0.62784 0.2654 0.21173 0.0
C2442 C 0.6166 0.24855 0.20161 0.0
C2443 C 0.62166 0.28208 0.21543 0.0
C2444 C 0.63314 0.3006 0.22503 0.0
C2445 C 0.64843 0.30849 0.21779 0.0
C2446 C 0.65891 0.32624 0.22654 0.0
C2447 C 0.65416 0.3363 0.24247 0.0
C2448 C 0.639 0.32859 0.24975 0.0
C2449 C 0.62848 0.31083 0.24106 0.0
H2450 H 0.66216 0.35014 0.24906 0.0
H2451 H 0.55848 0.18286 0.15451 0.0
H2452 H 0.6158 0.86032 0.94881 0.0
H2453 H 0.60997 0.887 0.96989 0.0
H2454 H 0.56172 0.88122 0.93448 0.0
H2455 H 0.56766 0.85499 0.91313 0.0
H2456 H 0.57802 0.91706 0.94365 0.0
H2457 H 0.56328 0.86519 0.97745 0.0
H2458 H 0.56824 0.83835 0.99238 0.0
H2459 H 0.61047 0.87608 0.0308 0.0
H2460 H 0.60593 0.90312 0.01591 0.0
H2461 H 0.53609 0.96929 0.00851 0.0
H2462 H 0.54395 0.94381 0.98757 0.0
H2463 H 0.5949 0.95775 0.01976 0.0
H2464 H 0.58726 0.98358 0.04042 0.0
H2465 H 0.57826 0.91845 0.01281 0.0
H2466 H 0.59292 0.96997 0.97814 0.0
H2467 H 0.58829 0.9962 0.96223 0.0
H2468 H 0.54499 0.95832 0.92542 0.0
H2469 H 0.54941 0.93174 0.94116 0.0
C2470 C 0.60396 0.86476 0.94552 0.0
C2471 C 0.59219 0.85555 0.92932 0.0
C2472 C 0.6006 0.87993 0.95763 0.0
C2473 C 0.5853 0.88594 0.95389 0.0
C2474 C 0.57361 0.87683 0.93765 0.0
C2475 C 0.57702 0.86181 0.92547 0.0
C2476 C 0.58151 0.90194 0.96664 0.0
C2477 C 0.57784 0.9172 0.95873 0.0
C2478 C 0.58167 0.90236 0.98639 0.0
C2479 C 0.58438 0.88614 0.99544 0.0
C2480 C 0.57371 0.86774 0.98899 0.0
C2481 C 0.57643 0.85249 0.99746 0.0
C2482 C 0.58969 0.8555 0.01249 0.0
C2483 C 0.60022 0.87377 0.01913 0.0
C2484 C 0.59757 0.88906 0.01069 0.0
C2485 C 0.54905 0.9671 0.01091 0.0
C2486 C 0.56116 0.97852 0.02589 0.0
C2487 C 0.55349 0.95252 0.99902 0.0
C2488 C 0.57003 0.94902 1.00209 0.0
C2489 C 0.58207 0.96027 0.01718 0.0
C2490 C 0.5777 0.97499 0.02893 0.0
C2491 C 0.57463 0.93337 0.98972 0.0
C2492 C 0.57845 0.91822 0.99772 0.0
C2493 C 0.57444 0.93292 0.97002 0.0
C2494 C 0.57139 0.94894 0.96094 0.0
C2495 C 0.5823 0.96727 0.96679 0.0
C2496 C 0.57974 0.98219 0.95774 0.0
C2497 C 0.56631 0.97897 0.94284 0.0
C2498 C 0.55538 0.9608 0.93697 0.0
C2499 C 0.55794 0.94578 0.94591 0.0
H2500 H 0.56439 0.99049 0.93574 0.0
H2501 H 0.59178 0.84367 0.01903 0.0
H2502 H 0.95074 0.73647 0.69845 0.0
H2503 H 0.92405 0.73326 0.71309 0.0
H2504 H 0.89376 0.71566 0.65785 0.0
H2505 H 0.92048 0.71876 0.64305 0.0
H2506 H 0.88575 0.74558 0.67708 0.0
H2507 H 0.88816 0.685 0.68807 0.0
H2508 H 0.89851 0.65801 0.69747 0.0
H2509 H 0.91037 0.68705 0.75522 0.0
H2510 H 0.90031 0.71431 0.74616 0.0
H2511 H 0.81591 0.72959 0.74483 0.0
H2512 H 0.83801 0.7173 0.72902 0.0
H2513 H 0.86858 0.77443 0.73216 0.0
H2514 H 0.84709 0.78696 0.74866 0.0
H2515 H 0.87066 0.71758 0.73374 0.0
H2516 H 0.88298 0.77961 0.69025 0.0
H2517 H 0.8668 0.80139 0.67826 0.0
H2518 H 0.81853 0.76168 0.67999 0.0
H2519 H 0.83439 0.73949 0.69162 0.0
C2520 C 0.9384 0.73158 0.68942 0.0
C2521 C 0.9377 0.72815 0.66959 0.0
C2522 C 0.92315 0.72954 0.69782 0.0
C2523 C 0.90693 0.72416 0.68656 0.0
C2524 C 0.90616 0.71977 0.66679 0.0
C2525 C 0.92144 0.7216 0.65836 0.0
C2526 C 0.89124 0.72624 0.69532 0.0
C2527 C 0.88236 0.73929 0.68937 0.0
C2528 C 0.88643 0.71759 0.71098 0.0
C2529 C 0.89363 0.70182 0.71637 0.0
C2530 C 0.89323 0.68578 0.70272 0.0
C2531 C 0.89897 0.67037 0.70801 0.0
C2532 C 0.90513 0.67083 0.72692 0.0
C2533 C 0.90562 0.68672 0.74057 0.0
C2534 C 0.89989 0.70215 0.73536 0.0
C2535 C 0.82744 0.73954 0.74235 0.0
C2536 C 0.82965 0.75927 0.74773 0.0
C2537 C 0.83992 0.73247 0.73317 0.0
C2538 C 0.85441 0.74495 0.72864 0.0
C2539 C 0.8572 0.76457 0.73509 0.0
C2540 C 0.84494 0.77168 0.7446 0.0
C2541 C 0.86606 0.73766 0.71618 0.0
C2542 C 0.87403 0.72365 0.72138 0.0
C2543 C 0.86955 0.74483 0.69939 0.0
C2544 C 0.85991 0.75795 0.69196 0.0
C2545 C 0.86892 0.77546 0.68795 0.0
C2546 C 0.8598 0.78789 0.68123 0.0
C2547 C 0.84165 0.78293 0.6784 0.0
C2548 C 0.83258 0.76551 0.68223 0.0
C2549 C 0.84164 0.75301 0.68888 0.0
H2550 H 0.83462 0.79257 0.67321 0.0
H2551 H 0.90951 0.65887 0.73098 0.0
H2552 H 0.15631 0.02524 0.84255 0.0
H2553 H 0.14447 0.02932 0.87303 0.0
H2554 H 0.09311 1.00212 0.84437 0.0
H2555 H 0.1047 0.99849 0.81433 0.0
H2556 H 0.08819 0.02799 0.8681 0.0
H2557 H 0.12234 0.98262 0.87771 0.0
H2558 H 0.14903 0.97098 0.88054 0.0
H2559 H 0.17247 0.01802 0.9254 0.0
H2560 H 0.14601 0.03001 0.92269 0.0
H2561 H 0.04031 1.00587 0.94307 0.0
H2562 H 0.05709 1.00558 0.91662 0.0
H2563 H 0.10313 0.03686 0.95402 0.0
H2564 H 0.08601 0.03648 0.98118 0.0
H2565 H 0.11312 0.01276 0.92779 0.0
H2566 H 0.07888 0.05716 0.91977 0.0
H2567 H 0.05236 0.06916 0.9175 0.0
H2568 H 0.02959 0.02507 0.86977 0.0
H2569 H 0.05585 0.0126 0.8719 0.0
C2570 C 0.1425 0.02004 0.84267 0.0
C2571 C 0.13172 0.01144 0.82536 0.0
C2572 C 0.13559 0.02228 0.8604 0.0
C2573 C 0.11755 0.01593 0.8618 0.0
C2574 C 0.10695 0.00739 0.84445 0.0
C2575 C 0.11377 1.00521 0.8269 0.0
C2576 C 0.10937 0.0183 0.88067 0.0
C2577 C 0.0937 0.02433 0.88096 0.0
C2578 C 0.11636 0.01446 0.89831 0.0
C2579 C 0.1323 0.00734 0.89982 0.0
C2580 C 0.13325 0.99055 0.88806 0.0
C2581 C 0.14833 0.98387 0.88967 0.0
C2582 C 0.16246 0.99377 0.90309 0.0
C2583 C 0.16155 0.01036 0.91497 0.0
C2584 C 0.14651 0.01711 0.91341 0.0
C2585 C 0.05401 0.01285 0.94597 0.0
C2586 C 0.06144 0.02158 0.96475 0.0
C2587 C 0.06376 0.01279 0.93045 0.0
C2588 C 0.08166 0.02165 0.93251 0.0
C2589 C 0.08939 0.03004 0.9514 0.0
C2590 C 0.0795 0.03004 0.96715 0.0
C2591 C 0.09173 0.02189 0.91492 0.0
C2592 C 0.10767 0.01641 0.91489 0.0
C2593 C 0.08508 0.02634 0.89747 0.0
C2594 C 0.06929 0.03385 0.89609 0.0
C2595 C 0.06818 0.04995 0.90886 0.0
C2596 C 0.0532 0.05684 0.90759 0.0
C2597 C 0.03931 0.04787 0.89353 0.0
C2598 C 0.04037 0.032 0.88067 0.0
C2599 C 0.0553 0.02502 0.88189 0.0
H2600 H 0.02773 0.05324 0.89258 0.0
H2601 H 0.17409 0.98852 0.90431 0.0
H2602 H 0.76243 0.39431 0.5305 0.0
H2603 H 0.76375 0.38389 0.56118 0.0
H2604 H 0.79649 0.4388 0.58717 0.0
H2605 H 0.79537 0.44931 0.55659 0.0
H2606 H 0.81123 0.41062 0.59351 0.0
H2607 H 0.75651 0.42486 0.59974 0.0
H2608 H 0.72601 0.42471 0.59003 0.0
H2609 H 0.71144 0.36388 0.58495 0.0
H2610 H 0.7419 0.36361 0.59436 0.0
H2611 H 0.79071 0.36445 0.68206 0.0
H2612 H 0.7858 0.3865 0.66088 0.0
H2613 H 0.80306 0.3527 0.6156 0.0
H2614 H 0.80729 0.3302 0.63624 0.0
H2615 H 0.76344 0.37716 0.62488 0.0
H2616 H 0.82834 0.38349 0.59358 0.0
H2617 H 0.8588 0.38401 0.60416 0.0
H2618 H 0.85285 0.40638 0.66117 0.0
H2619 H 0.82243 0.40625 0.65084 0.0
C2620 C 0.7696 0.40431 0.54281 0.0
C2621 C 0.77899 0.42253 0.54107 0.0
C2622 C 0.77026 0.39837 0.56036 0.0
C2623 C 0.78023 0.41059 0.57642 0.0
C2624 C 0.78876 0.42916 0.57492 0.0
C2625 C 0.7881 0.43511 0.55742 0.0
C2626 C 0.78353 0.40319 0.59406 0.0
C2627 C 0.80077 0.40354 0.60051 0.0
C2628 C 0.7699 0.39415 0.60332 0.0
C2629 C 0.75154 0.39422 0.59766 0.0
C2630 C 0.74684 0.41143 0.59642 0.0
C2631 C 0.72954 0.41142 0.59099 0.0
C2632 C 0.7168 0.3943 0.58685 0.0
C2633 C 0.72133 0.37714 0.58816 0.0
C2634 C 0.7386 0.37706 0.59357 0.0
C2635 C 0.79329 0.36159 0.66754 0.0
C2636 C 0.79935 0.34549 0.66084 0.0
C2637 C 0.79057 0.37426 0.65553 0.0
C2638 C 0.79415 0.3712 0.63679 0.0
C2639 C 0.80042 0.35537 0.63013 0.0
C2640 C 0.80294 0.34259 0.64201 0.0
C2641 C 0.79101 0.38416 0.62377 0.0
C2642 C 0.77385 0.38469 0.61811 0.0
C2643 C 0.80468 0.39417 0.61531 0.0
C2644 C 0.82308 0.39469 0.62148 0.0
C2645 C 0.83357 0.38861 0.60835 0.0
C2646 C 0.85081 0.38881 0.6143 0.0
C2647 C 0.85774 0.39515 0.63334 0.0
C2648 C 0.84745 0.40138 0.64645 0.0
C2649 C 0.83021 0.40121 0.64056 0.0
H2650 H 0.87108 0.39528 0.63792 0.0
H2651 H 0.70342 0.39432 0.58265 0.0
H2652 H 0.46627 0.0571 0.32944 0.0
H2653 H 0.48848 0.05775 0.35541 0.0
H2654 H 0.45402 0.07002 0.39587 0.0
H2655 H 0.4319 0.06991 0.36998 0.0
H2656 H 0.48662 0.0885 0.4094 0.0
H2657 H 0.45622 0.02454 0.38094 0.0
H2658 H 0.44502 0.99738 0.35472 0.0
H2659 H 0.49705 0.99784 0.34336 0.0
H2660 H 0.50855 0.02519 0.36939 0.0
H2661 H 0.51595 0.01837 0.46858 0.0
H2662 H 0.49921 0.02504 0.44141 0.0
H2663 H 0.53813 0.07705 0.44272 0.0
H2664 H 0.5545 0.07083 0.47067 0.0
H2665 H 0.50514 0.028 0.40741 0.0
H2666 H 0.5194 0.10977 0.42761 0.0
H2667 H 0.52675 0.1345 0.45644 0.0
H2668 H 0.50036 0.09451 0.48847 0.0
H2669 H 0.49272 0.06968 0.45971 0.0
C2670 C 0.46351 0.06019 0.34388 0.0
C2671 C 0.44726 0.06316 0.34769 0.0
C2672 C 0.47621 0.06057 0.35869 0.0
C2673 C 0.47277 0.06359 0.37753 0.0
C2674 C 0.45693 0.06764 0.38141 0.0
C2675 C 0.44427 0.06747 0.36661 0.0
C2676 C 0.48494 0.06083 0.39304 0.0
C2677 C 0.49081 0.07535 0.40891 0.0
C2678 C 0.49009 0.04351 0.39257 0.0
C2679 C 0.48323 0.02704 0.37695 0.0
C2680 C 0.46526 0.01893 0.37276 0.0
C2681 C 0.45886 1.0035 0.35795 0.0
C2682 C 0.47031 0.99593 0.34734 0.0
C2683 C 0.48819 1.00375 0.35156 0.0
C2684 C 0.49466 0.01921 0.36634 0.0
C2685 C 0.52081 0.03134 0.4632 0.0
C2686 C 0.53628 0.0443 0.47188 0.0
C2687 C 0.51135 0.03505 0.44757 0.0
C2688 C 0.5173 0.05166 0.44016 0.0
C2689 C 0.53312 0.06433 0.44843 0.0
C2690 C 0.54251 0.06071 0.46427 0.0
C2691 C 0.50676 0.0556 0.42389 0.0
C2692 C 0.50123 0.0413 0.4078 0.0
C2693 C 0.50142 0.07283 0.42449 0.0
C2694 C 0.5057 0.08784 0.44165 0.0
C2695 C 0.51514 0.1063 0.4408 0.0
C2696 C 0.51935 0.12033 0.45711 0.0
C2697 C 0.51408 0.11606 0.47429 0.0
C2698 C 0.50451 0.09779 0.47518 0.0
C2699 C 0.50026 0.08374 0.45891 0.0
H2700 H 0.51738 0.12693 0.48689 0.0
H2701 H 0.46533 0.98398 0.33589 0.0
H2702 H 0.81362 0.70489 0.05994 0.0
H2703 H 0.81262 0.71921 0.09255 0.0
H2704 H 0.75736 0.71228 0.0803 0.0
H2705 H 0.7583 0.69819 0.04739 0.0
H2706 H 0.7718 0.74591 0.1028 0.0
H2707 H 0.77396 0.68141 0.10388 0.0
H2708 H 0.7852 0.65268 0.09743 0.0
H2709 H 0.83404 0.6826 0.13013 0.0
H2710 H 0.82317 0.71161 0.13656 0.0
H2711 H 0.7601 0.76029 0.20159 0.0
H2712 H 0.75822 0.74698 0.1679 0.0
H2713 H 0.81359 0.75287 0.17419 0.0
H2714 H 0.81559 0.76598 0.20771 0.0
H2715 H 0.79697 0.71857 0.15458 0.0
H2716 H 0.79476 0.78345 0.15257 0.0
H2717 H 0.78315 0.81192 0.15909 0.0
H2718 H 0.73376 0.78076 0.1284 0.0
H2719 H 0.74502 0.75201 0.12191 0.0
C2720 C 0.80124 0.70649 0.06408 0.0
C2721 C 0.78602 0.70023 0.05099 0.0
C2722 C 0.80067 0.71462 0.08283 0.0
C2723 C 0.78486 0.71653 0.08909 0.0
C2724 C 0.76972 0.7109 0.0759 0.0
C2725 C 0.77028 0.70282 0.05706 0.0
C2726 C 0.78418 0.724 0.10946 0.0
C2727 C 0.77707 0.73974 0.1141 0.0
C2728 C 0.79124 0.71617 0.12433 0.0
C2729 C 0.7978 0.69873 0.12056 0.0
C2730 C 0.78714 0.6819 0.10958 0.0
C2731 C 0.79344 0.66556 0.10595 0.0
C2732 C 0.81034 0.66583 0.11333 0.0
C2733 C 0.82096 0.68243 0.1244 0.0
C2734 C 0.81473 0.69881 0.12806 0.0
C2735 C 0.77189 0.75882 0.19581 0.0
C2736 C 0.78799 0.76426 0.20748 0.0
C2737 C 0.7708 0.75125 0.17649 0.0
C2738 C 0.78579 0.749 0.16839 0.0
C2739 C 0.80183 0.75441 0.18003 0.0
C2740 C 0.80294 0.76199 0.19927 0.0
C2741 C 0.78487 0.74068 0.14794 0.0
C2742 C 0.79164 0.7247 0.14327 0.0
C2743 C 0.77744 0.74825 0.1331 0.0
C2744 C 0.77067 0.76553 0.13694 0.0
C2745 C 0.78138 0.78263 0.14735 0.0
C2746 C 0.77487 0.79882 0.15101 0.0
C2747 C 0.75771 0.79813 0.14421 0.0
C2748 C 0.74704 0.78126 0.13369 0.0
C2749 C 0.75348 0.76502 0.13 0.0
H2750 H 0.7527 0.81068 0.14706 0.0
H2751 H 0.81519 0.65316 0.1105 0.0
H2752 H 0.15358 0.01118 0.70864 0.0
H2753 H 0.1405 0.01225 0.67646 0.0
H2754 H 0.09308 0.01807 0.69816 0.0
H2755 H 0.10611 0.0174 0.73009 0.0
H2756 H 0.08484 0.99416 0.66411 0.0
H2757 H 0.12233 0.05647 0.68706 0.0
H2758 H 0.15009 0.0797 0.6995 0.0
H2759 H 0.17233 0.06066 0.65023 0.0
H2760 H 0.14473 0.03714 0.63761 0.0
H2761 H 0.07218 0.05585 0.58329 0.0
H2762 H 0.08588 0.05248 0.61416 0.0
H2763 H 0.07571 0.9919 0.59547 0.0
H2764 H 0.06159 0.99517 0.56492 0.0
H2765 H 0.11269 0.04285 0.62822 0.0
H2766 H 0.075 0.96716 0.63209 0.0
H2767 H 0.04664 0.94495 0.61964 0.0
H2768 H 0.02354 0.99213 0.61626 0.0
H2769 H 0.05171 0.01461 0.6289 0.0
C2770 C 0.14029 0.01245 0.70659 0.0
C2771 C 0.13106 0.01409 0.7224 0.0
C2772 C 0.13276 0.01323 0.68801 0.0
C2773 C 0.11557 0.01538 0.68434 0.0
C2774 C 0.10625 0.01639 0.70006 0.0
C2775 C 0.11384 0.01601 0.71858 0.0
C2776 C 0.10731 0.01699 0.66455 0.0
C2777 C 0.09111 1.00476 0.6563 0.0
C2778 C 0.11493 0.03087 0.65389 0.0
C2779 C 0.13153 0.04491 0.6615 0.0
C2780 C 0.13319 0.05713 0.67896 0.0
C2781 C 0.14889 0.07037 0.68603 0.0
C2782 C 0.16299 0.07163 0.67568 0.0
C2783 C 0.1614 0.05965 0.65824 0.0
C2784 C 0.14574 0.04637 0.65112 0.0
C2785 C 0.07271 0.04174 0.58569 0.0
C2786 C 0.06542 0.02583 0.5712 0.0
C2787 C 0.08073 0.03979 0.60357 0.0
C2788 C 0.08186 0.02183 0.60794 0.0
C2789 C 0.07485 0.00597 0.59327 0.0
C2790 C 0.06676 0.0079 0.57546 0.0
C2791 C 0.0903 0.0198 0.62755 0.0
C2792 C 0.10649 0.03206 0.63586 0.0
C2793 C 0.08265 0.0059 0.63826 0.0
C2794 C 0.06551 0.99256 0.63126 0.0
C2795 C 0.06385 0.97279 0.6288 0.0
C2796 C 0.04782 0.96015 0.62168 0.0
C2797 C 0.03333 0.96713 0.61708 0.0
C2798 C 0.0348 0.98675 0.61976 0.0
C2799 C 0.05079 0.99944 0.62689 0.0
H2800 H 0.02097 0.95733 0.61144 0.0
H2801 H 0.17513 0.0819 0.68113 0.0
H2802 H 0.7871 0.39077 0.46308 0.0
H2803 H 0.78342 0.36298 0.43811 0.0
H2804 H 0.80455 0.39971 0.39999 0.0
H2805 H 0.80811 0.42749 0.42471 0.0
H2806 H 0.77544 0.37363 0.38324 0.0
H2807 H 0.82882 0.37436 0.42181 0.0
H2808 H 0.8466 0.37385 0.45154 0.0
H2809 H 0.81371 0.3198 0.45566 0.0
H2810 H 0.7956 0.32013 0.42606 0.0
H2811 H 0.80515 0.32311 0.3113 0.0
H2812 H 0.80545 0.34303 0.34152 0.0
H2813 H 0.77772 0.29431 0.36262 0.0
H2814 H 0.7776 0.2739 0.33204 0.0
H2815 H 0.80525 0.32186 0.38987 0.0
H2816 H 0.75416 0.31952 0.34859 0.0
H2817 H 0.73725 0.32017 0.31837 0.0
H2818 H 0.76614 0.37737 0.31906 0.0
H2819 H 0.78345 0.37698 0.34917 0.0
C2820 C 0.79097 0.39292 0.44937 0.0
C2821 C 0.79792 0.41134 0.44587 0.0
C2822 C 0.7889 0.37702 0.43516 0.0
C2823 C 0.7938 0.37929 0.41725 0.0
C2824 C 0.80065 0.39766 0.41371 0.0
C2825 C 0.80273 0.41352 0.42788 0.0
C2826 C 0.79178 0.36266 0.40199 0.0
C2827 C 0.78198 0.36234 0.38469 0.0
C2828 C 0.79984 0.34759 0.40411 0.0
C2829 C 0.81074 0.34738 0.42186 0.0
C2830 C 0.8253 0.36245 0.42914 0.0
C2831 C 0.83545 0.36218 0.44595 0.0
C2832 C 0.83125 0.34683 0.45551 0.0
C2833 C 0.81692 0.3317 0.44826 0.0
C2834 C 0.80671 0.33192 0.43147 0.0
C2835 C 0.7995 0.31645 0.32246 0.0
C2836 C 0.79131 0.29695 0.31931 0.0
C2837 C 0.7996 0.3279 0.33971 0.0
C2838 C 0.79136 0.32018 0.35412 0.0
C2839 C 0.78408 0.30049 0.35156 0.0
C2840 C 0.78402 0.28889 0.33416 0.0
C2841 C 0.78939 0.33325 0.37105 0.0
C2842 C 0.79839 0.33293 0.38861 0.0
C2843 C 0.7806 0.34779 0.36921 0.0
C2844 C 0.77015 0.34818 0.35114 0.0
C2845 C 0.757 0.3322 0.34225 0.0
C2846 C 0.74733 0.33252 0.32514 0.0
C2847 C 0.75061 0.34881 0.31683 0.0
C2848 C 0.76361 0.36478 0.32555 0.0
C2849 C 0.77333 0.36453 0.34266 0.0
H2850 H 0.74301 0.34907 0.30368 0.0
H2851 H 0.83913 0.34665 0.46852 0.0
H2852 H 0.4115 0.05498 0.25323 0.0
H2853 H 0.4274 0.05421 0.22573 0.0
H2854 H 0.46787 0.10162 0.25591 0.0
H2855 H 0.45204 0.10261 0.28344 0.0
H2856 H 0.44252 0.08169 0.20266 0.0
H2857 H 0.50568 0.08696 0.25065 0.0
H2858 H 0.51509 0.08121 0.28245 0.0
H2859 H 0.46797 0.03802 0.27935 0.0
H2860 H 0.45847 0.04327 0.24742 0.0
H2861 H 0.53179 0.0723 0.16912 0.0
H2862 H 0.51448 0.0826 0.19319 0.0
H2863 H 0.46873 0.04212 0.16268 0.0
H2864 H 0.48597 0.03171 0.13867 0.0
H2865 H 0.49731 0.06179 0.21607 0.0
H2866 H 0.43331 0.05897 0.16894 0.0
H2867 H 0.42417 0.06456 0.137 0.0
H2868 H 0.47365 0.10315 0.13778 0.0
H2869 H 0.48302 0.09795 0.16974 0.0
C2870 C 0.42364 0.06545 0.25389 0.0
C2871 C 0.43067 0.07868 0.27057 0.0
C2872 C 0.43261 0.06509 0.23813 0.0
C2873 C 0.4488 0.07777 0.23892 0.0
C2874 C 0.45537 0.0917 0.25512 0.0
C2875 C 0.44634 0.0922 0.27083 0.0
C2876 C 0.45979 0.07483 0.22388 0.0
C2877 C 0.45446 0.07727 0.20549 0.0
C2878 C 0.47548 0.06937 0.22778 0.0
C2879 C 0.48128 0.06571 0.24677 0.0
C2880 C 0.49738 0.07619 0.25674 0.0
C2881 C 0.50272 0.07301 0.27478 0.0
C2882 C 0.4921 0.05932 0.28295 0.0
C2883 C 0.47616 0.04868 0.27304 0.0
C2884 C 0.47078 0.05176 0.25498 0.0
C2885 C 0.51804 0.06561 0.16759 0.0
C2886 C 0.5102 0.05121 0.15207 0.0
C2887 C 0.50818 0.07156 0.18126 0.0
C2888 C 0.49032 0.06326 0.17959 0.0
C2889 C 0.48243 0.04898 0.16402 0.0
C2890 C 0.49228 0.04304 0.15034 0.0
C2891 C 0.48013 0.06866 0.19472 0.0
C2892 C 0.48553 0.06653 0.21319 0.0
C2893 C 0.46457 0.07444 0.19082 0.0
C2894 C 0.45888 0.07798 0.17173 0.0
C2895 C 0.4422 0.06874 0.16235 0.0
C2896 C 0.43699 0.07182 0.14422 0.0
C2897 C 0.44832 0.08421 0.13538 0.0
C2898 C 0.46489 0.09354 0.14463 0.0
C2899 C 0.47016 0.0905 0.16274 0.0
H2900 H 0.44425 0.08662 0.12138 0.0
H2901 H 0.49624 0.05691 0.29693 0.0
H2902 H 0.74534 0.66948 0.92085 0.0
H2903 H 0.75014 0.68585 0.89398 0.0
H2904 H 0.79745 0.72261 0.92531 0.0
H2905 H 0.79231 0.70665 0.95263 0.0
H2906 H 0.78206 0.74289 0.90663 0.0
H2907 H 0.79639 0.68342 0.88865 0.0
H2908 H 0.79209 0.64853 0.883 0.0
H2909 H 0.74803 0.64273 0.8416 0.0
H2910 H 0.75193 0.67759 0.84718 0.0
H2911 H 0.81819 0.7737 0.82615 0.0
H2912 H 0.81268 0.75718 0.85295 0.0
H2913 H 0.76027 0.7311 0.82659 0.0
H2914 H 0.7656 0.748 0.79982 0.0
H2915 H 0.77833 0.70548 0.8423 0.0
H2916 H 0.76532 0.76618 0.86084 0.0
H2917 H 0.7715 0.80123 0.86628 0.0
H2918 H 0.8157 0.80461 0.90665 0.0
H2919 H 0.80993 0.76956 0.90123 0.0
C2920 C 0.75677 0.68108 0.92209 0.0
C2921 C 0.76849 0.68665 0.93893 0.0
C2922 C 0.75958 0.69038 0.90659 0.0
C2923 C 0.7744 0.70527 0.90728 0.0
C2924 C 0.78595 0.71114 0.92426 0.0
C2925 C 0.78301 0.70198 0.93991 0.0
C2926 C 0.77774 0.71467 0.89035 0.0
C2927 C 0.78147 0.73465 0.89265 0.0
C2928 C 0.77674 0.70407 0.87188 0.0
C2929 C 0.77435 0.68311 0.86847 0.0
C2930 C 0.78571 0.6747 0.87844 0.0
C2931 C 0.78335 0.65493 0.87524 0.0
C2932 C 0.76976 0.64342 0.86199 0.0
C2933 C 0.75853 0.65166 0.85188 0.0
C2934 C 0.76082 0.67143 0.85504 0.0
C2935 C 0.80549 0.7644 0.82599 0.0
C2936 C 0.79231 0.76221 0.81084 0.0
C2937 C 0.80235 0.75499 0.84137 0.0
C2938 C 0.78602 0.74298 0.8419 0.0
C2939 C 0.77297 0.7403 0.82653 0.0
C2940 C 0.77602 0.74996 0.81123 0.0
C2941 C 0.78258 0.73355 0.85868 0.0
C2942 C 0.77888 0.71362 0.85632 0.0
C2943 C 0.78387 0.74418 0.87711 0.0
C2944 C 0.78729 0.76525 0.88049 0.0
C2945 C 0.77645 0.7744 0.87076 0.0
C2946 C 0.77986 0.79426 0.87386 0.0
C2947 C 0.79401 0.80514 0.88677 0.0
C2948 C 0.80475 0.79617 0.89664 0.0
C2949 C 0.80141 0.7763 0.89357 0.0
H2950 H 0.79663 0.82052 0.88915 0.0
H2951 H 0.76796 0.62812 0.85952 0.0
H2952 H 0.81659 0.09432 0.01889 0.0
H2953 H 0.83916 0.07667 0.01953 0.0
H2954 H 0.87855 0.12958 0.03258 0.0
H2955 H 0.85604 0.14728 0.03114 0.0
H2956 H 0.88819 0.10679 0.00769 0.0
H2957 H 0.8667 0.1007 0.06666 0.0
H2958 H 0.84481 0.09341 0.08829 0.0
H2959 H 0.83012 0.03502 0.06038 0.0
H2960 H 0.85176 0.04202 0.03839 0.0
H2961 H 0.95621 0.06323 0.0311 0.0
H2962 H 0.93454 0.08178 0.03566 0.0
H2963 H 0.89371 0.03181 0.01231 0.0
H2964 H 0.91531 0.01301 0.00801 0.0
H2965 H 0.88599 0.05414 0.04421 0.0
H2966 H 0.90836 0.06227 0.98466 0.0
H2967 H 0.93145 0.07096 0.96472 0.0
H2968 H 0.94613 0.12784 0.9966 0.0
H2969 H 0.9233 0.11939 0.01695 0.0
C2970 C 0.83006 0.10218 0.02192 0.0
C2971 C 0.83456 0.12217 0.02499 0.0
C2972 C 0.84296 0.09208 0.02241 0.0
C2973 C 0.86057 0.10179 0.02645 0.0
C2974 C 0.86506 0.12177 0.02946 0.0
C2975 C 0.85218 0.13187 0.02865 0.0
C2976 C 0.87431 0.09112 0.02697 0.0
C2977 C 0.88783 0.0955 0.01595 0.0
C2978 C 0.87378 0.07622 0.03756 0.0
C2979 C 0.86075 0.07193 0.05076 0.0
C2980 C 0.85871 0.08634 0.06504 0.0
C2981 C 0.84636 0.08225 0.07738 0.0
C2982 C 0.83605 0.06378 0.07568 0.0
C2983 C 0.8381 0.04933 0.06166 0.0
C2984 C 0.85042 0.05335 0.04927 0.0
C2985 C 0.9426 0.05609 0.02727 0.0
C2986 C 0.93744 0.03669 0.01905 0.0
C2987 C 0.93026 0.06675 0.02976 0.0
C2988 C 0.91259 0.05819 0.02406 0.0
C2989 C 0.90732 0.03865 0.01669 0.0
C2990 C 0.91966 0.02799 0.0141 0.0
C2991 C 0.89965 0.06979 0.02487 0.0
C2992 C 0.88632 0.06555 0.03611 0.0
C2993 C 0.90053 0.08505 0.01476 0.0
C2994 C 0.91424 0.09012 1.00247 0.0
C2995 C 0.91661 0.07658 0.98754 0.0
C2996 C 0.92964 0.08147 0.97614 0.0
C2997 C 0.94029 0.09993 0.97942 0.0
C2998 C 0.9379 0.11354 0.99409 0.0
C2999 C 0.92491 0.1087 0.00556 0.0
H3000 H 0.95036 0.10369 0.97058 0.0
H3001 H 0.8265 0.06064 0.08525 0.0
H3002 H 0.34936 0.44912 0.03849 0.0
H3003 H 0.37847 0.46963 0.039 0.0
H3004 H 0.39938 0.42007 0.03033 0.0
H3005 H 0.37048 0.39959 0.02971 0.0
H3006 H 0.42052 0.4488 0.05728 0.0
H3007 H 0.39171 0.44142 0.99383 0.0
H3008 H 0.36823 0.44291 0.96974 0.0
H3009 H 0.37717 0.5031 0.98904 0.0
H3010 H 0.40056 0.50191 0.01344 0.0
H3011 H 0.50269 0.49131 0.03143 0.0
H3012 H 0.47404 0.47111 0.03301 0.0
H3013 H 0.45142 0.51905 0.02999 0.0
H3014 H 0.47979 0.53869 0.02689 0.0
H3015 H 0.43079 0.49098 0.0095 0.0
H3016 H 0.45952 0.49893 0.07312 0.0
H3017 H 0.48306 0.49774 0.09733 0.0
H3018 H 0.47432 0.43748 0.07858 0.0
H3019 H 0.45083 0.43835 0.05415 0.0
C3020 C 0.36017 0.44261 0.03682 0.0
C3021 C 0.35751 0.42267 0.03396 0.0
C3022 C 0.37681 0.45434 0.03704 0.0
C3023 C 0.39116 0.4464 0.03457 0.0
C3024 C 0.38858 0.42656 0.03228 0.0
C3025 C 0.37198 0.41485 0.03184 0.0
C3026 C 0.40876 0.45861 0.03378 0.0
C3027 C 0.4228 0.45795 0.04676 0.0
C3028 C 0.41177 0.47079 0.02028 0.0
C3029 C 0.39775 0.47154 0.00559 0.0
C3030 C 0.38857 0.45494 0.99304 0.0
C3031 C 0.3753 0.45574 0.97931 0.0
C3032 C 0.37117 0.47308 0.9779 0.0
C3033 C 0.38035 0.48967 0.99018 0.0
C3034 C 0.39363 0.48895 1.00395 0.0
C3035 C 0.49157 0.49743 0.03094 0.0
C3036 C 0.49352 0.51652 0.02884 0.0
C3037 C 0.47516 0.48595 0.03212 0.0
C3038 C 0.46037 0.49351 0.03195 0.0
C3039 C 0.46245 0.51271 0.03011 0.0
C3040 C 0.47875 0.52401 0.02845 0.0
C3041 C 0.4427 0.48148 0.03321 0.0
C3042 C 0.42859 0.48205 0.02021 0.0
C3043 C 0.43962 0.46935 0.04682 0.0
C3044 C 0.45351 0.46873 0.06172 0.0
C3045 C 0.46267 0.48544 0.07412 0.0
C3046 C 0.47599 0.48482 0.08788 0.0
C3047 C 0.4802 0.46755 0.08946 0.0
C3048 C 0.47105 0.45085 0.07733 0.0
C3049 C 0.4577 0.45139 0.06355 0.0
H3050 H 0.49054 0.46711 0.1001 0.0
H3051 H 0.36089 0.47367 0.96726 0.0
H3052 H 0.36758 0.59067 0.75589 0.0
H3053 H 0.35059 0.61509 0.75747 0.0
H3054 H 0.39781 0.65894 0.76316 0.0
H3055 H 0.41455 0.63499 0.762 0.0
H3056 H 0.38008 0.67441 0.78398 0.0
H3057 H 0.36268 0.64071 0.72002 0.0
H3058 H 0.3504 0.6129 0.69474 0.0
H3059 H 0.302 0.60354 0.71785 0.0
H3060 H 0.31408 0.63118 0.7434 0.0
H3061 H 0.34335 0.75288 0.76815 0.0
H3062 H 0.35803 0.72684 0.76622 0.0
H3063 H 0.30875 0.68633 0.76116 0.0
H3064 H 0.29397 0.71244 0.76228 0.0
H3065 H 0.32639 0.66845 0.74076 0.0
H3066 H 0.34477 0.7006 0.80618 0.0
H3067 H 0.35717 0.72876 0.83115 0.0
H3068 H 0.40334 0.74109 0.80424 0.0
H3069 H 0.39095 0.71329 0.77894 0.0
C3070 C 0.37443 0.60548 0.75745 0.0
C3071 C 0.39282 0.61027 0.75874 0.0
C3072 C 0.36455 0.61973 0.75823 0.0
C3073 C 0.37247 0.63959 0.76023 0.0
C3074 C 0.3908 0.64419 0.76166 0.0
C3075 C 0.40057 0.63009 0.76089 0.0
C3076 C 0.36223 0.65561 0.76109 0.0
C3077 C 0.36844 0.67288 0.77425 0.0
C3078 C 0.3466 0.65449 0.749 0.0
C3079 C 0.33934 0.63787 0.73373 0.0
C3080 C 0.34946 0.63263 0.71978 0.0
C3081 C 0.34253 0.61692 0.7054 0.0
C3082 C 0.32545 0.60642 0.70472 0.0
C3083 C 0.31524 0.61165 0.71841 0.0
C3084 C 0.32212 0.62735 0.73284 0.0
C3085 C 0.33549 0.73849 0.76673 0.0
C3086 C 0.31718 0.73533 0.76557 0.0
C3087 C 0.34407 0.72326 0.76581 0.0
C3088 C 0.33495 0.70387 0.76404 0.0
C3089 C 0.3166 0.70072 0.76262 0.0
C3090 C 0.308 0.71595 0.76337 0.0
C3091 C 0.34434 0.68718 0.76356 0.0
C3092 C 0.33798 0.66985 0.75051 0.0
C3093 C 0.35982 0.68816 0.77574 0.0
C3094 C 0.36711 0.70483 0.79087 0.0
C3095 C 0.35757 0.70936 0.80564 0.0
C3096 C 0.36455 0.72529 0.8198 0.0
C3097 C 0.38107 0.73671 0.81932 0.0
C3098 C 0.39059 0.73226 0.80465 0.0
C3099 C 0.38364 0.7164 0.79046 0.0
H3100 H 0.38648 0.74901 0.8303 0.0
H3101 H 0.3201 0.59426 0.69357 0.0
H3102 H 0.23442 0.65208 0.51398 0.0
H3103 H 0.20301 0.64003 0.50587 0.0
H3104 H 0.20912 0.58253 0.49531 0.0
H3105 H 0.24063 0.59442 0.50368 0.0
H3106 H 0.18229 0.59313 0.4683 0.0
H3107 H 0.20077 0.59321 0.53476 0.0
H3108 H 0.21661 0.60829 0.56636 0.0
H3109 H 0.18798 0.65154 0.56895 0.0
H3110 H 0.17219 0.63688 0.53719 0.0
H3111 H 0.09817 0.54105 0.48151 0.0
H3112 H 0.1286 0.55453 0.47844 0.0
H3113 H 0.12552 0.60843 0.51014 0.0
H3114 H 0.09559 0.59438 0.51446 0.0
H3115 H 0.15145 0.60006 0.52481 0.0
H3116 H 0.13071 0.59927 0.45994 0.0
H3117 H 0.11471 0.585 0.42822 0.0
H3118 H 0.14653 0.54494 0.42166 0.0
H3119 H 0.16256 0.55876 0.45346 0.0
C3120 C 0.22913 0.63689 0.50965 0.0
C3121 C 0.23995 0.62416 0.50968 0.0
C3122 C 0.21121 0.63006 0.50495 0.0
C3123 C 0.20385 0.61044 0.50001 0.0
C3124 C 0.21465 0.59774 0.49898 0.0
C3125 C 0.23259 0.60454 0.50393 0.0
C3126 C 0.18486 0.60317 0.49833 0.0
C3127 C 0.17543 0.59448 0.48059 0.0
C3128 C 0.17607 0.60535 0.51436 0.0
C3129 C 0.18546 0.61408 0.53352 0.0
C3130 C 0.19798 0.60604 0.54199 0.0
C3131 C 0.20693 0.61449 0.55994 0.0
C3132 C 0.20335 0.6309 0.56963 0.0
C3133 C 0.19078 0.63886 0.56141 0.0
C3134 C 0.18182 0.63048 0.54344 0.0
C3135 C 0.10399 0.55589 0.48743 0.0
C3136 C 0.09477 0.56677 0.49825 0.0
C3137 C 0.12133 0.56364 0.48559 0.0
C3138 C 0.12942 0.58259 0.49396 0.0
C3139 C 0.11967 0.59376 0.50368 0.0
C3140 C 0.10258 0.58581 0.50608 0.0
C3141 C 0.14842 0.59019 0.49458 0.0
C3142 C 0.15802 0.59885 0.5123 0.0
C3143 C 0.15723 0.58814 0.47843 0.0
C3144 C 0.14779 0.58 0.45915 0.0
C3145 C 0.13425 0.58736 0.45178 0.0
C3146 C 0.12518 0.57936 0.43377 0.0
C3147 C 0.12963 0.56411 0.42293 0.0
C3148 C 0.14314 0.5568 0.43006 0.0
C3149 C 0.15223 0.56472 0.44807 0.0
H3150 H 0.1226 0.55794 0.409 0.0
H3151 H 0.21027 0.6374 0.58354 0.0
H3152 H 0.7192 0.01695 0.78719 0.0
H3153 H 0.73954 0.99653 0.78684 0.0
H3154 H 0.72374 0.97664 0.72686 0.0
H3155 H 0.70288 0.99648 0.7273 0.0
H3156 H 0.72303 0.9482 0.74299 0.0
H3157 H 0.76523 1.00553 0.7451 0.0
H3158 H 0.78077 0.03912 0.75614 0.0
H3159 H 0.79552 0.02658 0.81081 0.0
H3160 H 0.77987 0.99296 0.8002 0.0
H3161 H 0.80878 0.91424 0.75956 0.0
H3162 H 0.79455 0.93963 0.75345 0.0
H3163 H 0.75101 0.91406 0.78015 0.0
H3164 H 0.76481 0.88824 0.78541 0.0
H3165 H 0.78383 0.96609 0.7745 0.0
H3166 H 0.71231 0.91893 0.75583 0.0
H3167 H 0.69662 0.88632 0.74095 0.0
H3168 H 0.74114 0.87851 0.71449 0.0
H3169 H 0.75691 0.91149 0.72832 0.0
C3170 C 0.7202 0.00838 0.77389 0.0
C3171 C 0.70935 0.00816 0.75731 0.0
C3172 C 0.73195 0.99683 0.77367 0.0
C3173 C 0.73332 0.98518 0.75677 0.0
C3174 C 0.7229 0.98549 0.74006 0.0
C3175 C 0.71096 0.99679 0.74034 0.0
C3176 C 0.74426 0.9713 0.75698 0.0
C3177 C 0.73636 0.9521 0.7498 0.0
C3178 C 0.76179 0.97651 0.7654 0.0
C3179 C 0.77127 0.99673 0.77187 0.0
C3180 C 0.77168 0.00996 0.75952 0.0
C3181 C 0.78053 0.029 0.76569 0.0
C3182 C 0.7891 0.03499 0.78417 0.0
C3183 C 0.78888 0.02193 0.7965 0.0
C3184 C 0.78004 1.00286 0.7904 0.0
C3185 C 0.79623 0.91422 0.76422 0.0
C3186 C 0.78772 0.89932 0.77273 0.0
C3187 C 0.78811 0.92863 0.76071 0.0
C3188 C 0.77149 0.92837 0.76588 0.0
C3189 C 0.76353 0.91409 0.77544 0.0
C3190 C 0.77145 0.89951 0.77859 0.0
C3191 C 0.76231 0.94289 0.76124 0.0
C3192 C 0.77055 0.9622 0.76755 0.0
C3193 C 0.74512 0.93778 0.75166 0.0
C3194 C 0.73592 0.91774 0.74336 0.0
C3195 C 0.71876 0.91038 0.74668 0.0
C3196 C 0.70979 0.89186 0.7383 0.0
C3197 C 0.71789 0.8804 0.72674 0.0
C3198 C 0.73493 0.88747 0.72343 0.0
C3199 C 0.74388 0.90611 0.73149 0.0
H3200 H 0.71099 0.866 0.72041 0.0
H3201 H 0.79595 0.04974 0.78892 0.0
H3202 H 0.73868 0.89284 0.51399 0.0
H3203 H 0.71542 0.90946 0.51292 0.0
H3204 H 0.75049 0.96061 0.54449 0.0
H3205 H 0.77398 0.94396 0.54571 0.0
H3206 H 0.71889 0.95373 0.5579 0.0
H3207 H 0.73884 0.95653 0.49722 0.0
H3208 H 0.74682 0.94348 0.46658 0.0
H3209 H 0.69499 0.90846 0.45064 0.0
H3210 H 0.68677 0.92111 0.48131 0.0
H3211 H 0.66448 0.01578 0.54327 0.0
H3212 H 0.68831 1.00006 0.54393 0.0
H3213 H 0.65541 0.95011 0.50784 0.0
H3214 H 0.63166 0.96621 0.50622 0.0
H3215 H 0.68626 0.95661 0.49676 0.0
H3216 H 0.66603 0.95299 0.55696 0.0
H3217 H 0.65756 0.96533 0.58758 0.0
H3218 H 0.70912 1.0007 0.60462 0.0
H3219 H 0.71784 0.98878 0.57397 0.0
C3220 C 0.74154 0.90764 0.5207 0.0
C3221 C 0.7583 0.91704 0.5299 0.0
C3222 C 0.72817 0.91717 0.52 0.0
C3223 C 0.73117 0.93639 0.52844 0.0
C3224 C 0.74783 0.9458 0.53782 0.0
C3225 C 0.76128 0.93628 0.53845 0.0
C3226 C 0.71683 0.94649 0.52755 0.0
C3227 C 0.71193 0.95462 0.54452 0.0
C3228 C 0.70735 0.9472 0.51013 0.0
C3229 C 0.71224 0.93964 0.49164 0.0
C3230 C 0.72918 0.94594 0.48724 0.0
C3231 C 0.73374 0.93863 0.46986 0.0
C3232 C 0.72143 0.92512 0.45669 0.0
C3233 C 0.70452 0.91892 0.46086 0.0
C3234 C 0.6999 0.92616 0.47824 0.0
C3235 C 0.66229 1.00155 0.5352 0.0
C3236 C 0.64603 0.99238 0.52458 0.0
C3237 C 0.67595 0.99243 0.53584 0.0
C3238 C 0.6737 0.97371 0.52619 0.0
C3239 C 0.65753 0.96451 0.5155 0.0
C3240 C 0.64386 0.9737 0.51473 0.0
C3241 C 0.68826 0.96387 0.52714 0.0
C3242 C 0.6932 0.95577 0.51017 0.0
C3243 C 0.69769 0.96305 0.54458 0.0
C3244 C 0.69254 0.97012 0.56309 0.0
C3245 C 0.67553 0.96349 0.56718 0.0
C3246 C 0.67069 0.9704 0.58455 0.0
C3247 C 0.68279 0.98383 0.59802 0.0
C3248 C 0.69976 0.99032 0.59417 0.0
C3249 C 0.70467 0.98349 0.5768 0.0
H3250 H 0.67901 0.98916 0.61146 0.0
H3251 H 0.72499 0.91948 0.44324 0.0
H3252 H 0.36888 0.4949 0.73762 0.0
H3253 H 0.35112 0.46229 0.73602 0.0
H3254 H 0.38966 0.45175 0.77633 0.0
H3255 H 0.4074 0.48365 0.77749 0.0
H3256 H 0.37981 0.42117 0.75339 0.0
H3257 H 0.34624 0.45973 0.7856 0.0
H3258 H 0.33001 0.4847 0.7899 0.0
H3259 H 0.29492 0.45677 0.73967 0.0
H3260 H 0.31107 0.43174 0.73496 0.0
H3261 H 0.32787 0.33588 0.77847 0.0
H3262 H 0.34505 0.36837 0.77843 0.0
H3263 H 0.30806 0.37432 0.73363 0.0
H3264 H 0.29101 0.34203 0.73363 0.0
H3265 H 0.3167 0.40679 0.75787 0.0
H3266 H 0.3501 0.36764 0.72655 0.0
H3267 H 0.36591 0.34227 0.72325 0.0
H3268 H 0.40122 0.37123 0.77299 0.0
H3269 H 0.38549 0.3967 0.77671 0.0
C3270 C 0.37357 0.48568 0.74618 0.0
C3271 C 0.3898 0.49238 0.7577 0.0
C3272 C 0.36327 0.46684 0.74537 0.0
C3273 C 0.36866 0.45399 0.75622 0.0
C3274 C 0.38487 0.46082 0.76764 0.0
C3275 C 0.39512 0.47942 0.76834 0.0
C3276 C 0.35786 0.43359 0.75585 0.0
C3277 C 0.36605 0.41827 0.75463 0.0
C3278 C 0.33968 0.42898 0.75705 0.0
C3279 C 0.32998 0.444 0.75981 0.0
C3280 C 0.33513 0.459 0.7754 0.0
C3281 C 0.32594 0.47314 0.77792 0.0
C3282 C 0.31147 0.47235 0.76503 0.0
C3283 C 0.30615 0.45738 0.74962 0.0
C3284 C 0.31531 0.44321 0.74702 0.0
C3285 C 0.32344 0.34401 0.76849 0.0
C3286 C 0.30795 0.33595 0.75597 0.0
C3287 C 0.33336 0.36277 0.76844 0.0
C3288 C 0.32817 0.37428 0.75591 0.0
C3289 C 0.31262 0.36619 0.74354 0.0
C3290 C 0.30282 0.34747 0.74349 0.0
C3291 C 0.33872 0.39455 0.7556 0.0
C3292 C 0.33047 0.40979 0.75665 0.0
C3293 C 0.35686 0.39911 0.75436 0.0
C3294 C 0.36651 0.38399 0.75201 0.0
C3295 C 0.36118 0.36855 0.73685 0.0
C3296 C 0.37013 0.35415 0.73489 0.0
C3297 C 0.38452 0.35509 0.74794 0.0
C3298 C 0.39005 0.3705 0.76292 0.0
C3299 C 0.38113 0.38493 0.76494 0.0
H3300 H 0.39142 0.34392 0.74643 0.0
H3301 H 0.30437 0.48331 0.76701 0.0
H3302 H 0.20902 0.5673 0.18889 0.0
H3303 H 0.22715 0.59994 0.1952 0.0
H3304 H 0.21904 0.60488 0.25401 0.0
H3305 H 0.20104 0.57243 0.2479 0.0
H3306 H 0.21646 0.632 0.20826 0.0
H3307 H 0.25528 0.6343 0.28115 0.0
H3308 H 0.26811 0.61289 0.2982 0.0
H3309 H 0.27254 0.57965 0.24524 0.0
H3310 H 0.25999 0.60102 0.22787 0.0
H3311 H 0.26871 0.72182 0.27901 0.0
H3312 H 0.25523 0.68762 0.27176 0.0
H3313 H 0.2636 0.68684 0.2133 0.0
H3314 H 0.27682 0.72088 0.22026 0.0
H3315 H 0.26739 0.65717 0.25783 0.0
H3316 H 0.22916 0.65598 0.18505 0.0
H3317 H 0.21443 0.67635 0.16851 0.0
H3318 H 0.20738 0.70662 0.22197 0.0
H3319 H 0.22192 0.68633 0.23881 0.0
C3320 C 0.21126 0.57528 0.20319 0.0
C3321 C 0.20355 0.56733 0.21787 0.0
C3322 C 0.22159 0.5939 0.20676 0.0
C3323 C 0.22453 0.60472 0.22509 0.0
C3324 C 0.21714 0.59667 0.23983 0.0
C3325 C 0.20675 0.57815 0.23626 0.0
C3326 C 0.23428 0.62488 0.22867 0.0
C3327 C 0.22783 0.63746 0.21881 0.0
C3328 C 0.24874 0.63199 0.24289 0.0
C3329 C 0.25653 0.61918 0.25321 0.0
C3330 C 0.25906 0.62248 0.27314 0.0
C3331 C 0.26628 0.61034 0.28286 0.0
C3332 C 0.27109 0.59488 0.27281 0.0
C3333 C 0.26875 0.59158 0.25301 0.0
C3334 C 0.26156 0.60369 0.24322 0.0
C3335 C 0.2677 0.71437 0.26461 0.0
C3336 C 0.27376 0.72412 0.2502 0.0
C3337 C 0.26005 0.69483 0.26052 0.0
C3338 C 0.25824 0.68479 0.24196 0.0
C3339 C 0.26463 0.6944 0.22766 0.0
C3340 C 0.27226 0.71387 0.23171 0.0
C3341 C 0.24952 0.66428 0.23742 0.0
C3342 C 0.25614 0.65166 0.24714 0.0
C3343 C 0.23513 0.65711 0.22312 0.0
C3344 C 0.2268 0.66976 0.21317 0.0
C3345 C 0.22449 0.667 0.19327 0.0
C3346 C 0.21617 0.67853 0.18384 0.0
C3347 C 0.21 0.69278 0.19418 0.0
C3348 C 0.21223 0.69562 0.21397 0.0
C3349 C 0.22055 0.68414 0.22347 0.0
H3350 H 0.20341 0.70154 0.18684 0.0
H3351 H 0.27665 0.58549 0.28036 0.0
H3352 H 0.4948 0.69753 0.41538 0.0
H3353 H 0.49624 0.66845 0.42807 0.0
H3354 H 0.53536 0.7016 0.47326 0.0
H3355 H 0.53395 0.73049 0.46082 0.0
H3356 H 0.54461 0.6699 0.45755 0.0
H3357 H 0.49338 0.68434 0.48101 0.0
H3358 H 0.4642 0.69055 0.47802 0.0
H3359 H 0.44367 0.63568 0.44297 0.0
H3360 H 0.4728 0.62925 0.44555 0.0
H3361 H 0.55024 0.60366 0.5179 0.0
H3362 H 0.54504 0.63134 0.50528 0.0
H3363 H 0.50199 0.59517 0.46628 0.0
H3364 H 0.50669 0.56748 0.47949 0.0
H3365 H 0.49399 0.62727 0.47684 0.0
H3366 H 0.54402 0.61141 0.45463 0.0
H3367 H 0.57258 0.604 0.45811 0.0
H3368 H 0.59556 0.66073 0.48805 0.0
H3369 H 0.56685 0.66819 0.48574 0.0
C3370 C 0.50364 0.69864 0.42807 0.0
C3371 C 0.51421 0.7165 0.43703 0.0
C3372 C 0.50443 0.68196 0.43537 0.0
C3373 C 0.51588 0.68268 0.45175 0.0
C3374 C 0.52642 0.7005 0.46063 0.0
C3375 C 0.52553 0.71712 0.45348 0.0
C3376 C 0.51726 0.66504 0.4596 0.0
C3377 C 0.53355 0.66072 0.46195 0.0
C3378 C 0.5028 0.65256 0.46484 0.0
C3379 C 0.4853 0.6564 0.4633 0.0
C3380 C 0.48267 0.67367 0.47253 0.0
C3381 C 0.46614 0.67722 0.47094 0.0
C3382 C 0.4521 0.66355 0.46026 0.0
C3383 C 0.45456 0.64627 0.4512 0.0
C3384 C 0.47108 0.64266 0.45274 0.0
C3385 C 0.53954 0.60156 0.50676 0.0
C3386 C 0.52898 0.58319 0.49968 0.0
C3387 C 0.53662 0.61748 0.49943 0.0
C3388 C 0.52336 0.61551 0.48437 0.0
C3389 C 0.51237 0.59726 0.47777 0.0
C3390 C 0.5151 0.58135 0.48535 0.0
C3391 C 0.52145 0.63227 0.47513 0.0
C3392 C 0.50506 0.63639 0.47242 0.0
C3393 C 0.5358 0.64448 0.46931 0.0
C3394 C 0.55322 0.6403 0.47017 0.0
C3395 C 0.55513 0.62229 0.46207 0.0
C3396 C 0.57136 0.61807 0.46386 0.0
C3397 C 0.58594 0.63192 0.47316 0.0
C3398 C 0.58426 0.65001 0.48083 0.0
C3399 C 0.56798 0.65421 0.47939 0.0
H3400 H 0.59852 0.62862 0.47446 0.0
H3401 H 0.43931 0.66632 0.45905 0.0
H3402 H 0.62233 0.31949 0.67947 0.0
H3403 H 0.6491 0.31945 0.69926 0.0
H3404 H 0.66586 0.28871 0.65142 0.0
H3405 H 0.63922 0.28849 0.63176 0.0
H3406 H 0.67245 0.27384 0.68165 0.0
H3407 H 0.68329 0.33733 0.66788 0.0
H3408 H 0.67741 0.3688 0.66659 0.0
H3409 H 0.67882 0.37941 0.72709 0.0
H3410 H 0.6845 0.34789 0.72872 0.0
H3411 H 0.76116 0.28764 0.72186 0.0
H3412 H 0.73503 0.28839 0.70124 0.0
H3413 H 0.71692 0.31797 0.74883 0.0
H3414 H 0.74302 0.31751 0.76921 0.0
H3415 H 0.71127 0.33344 0.7184 0.0
H3416 H 0.70054 0.27009 0.73229 0.0
H3417 H 0.70685 0.23885 0.73377 0.0
H3418 H 0.70531 0.22793 0.67327 0.0
H3419 H 0.69928 0.25927 0.67145 0.0
C3420 C 0.63173 0.31277 0.67314 0.0
C3421 C 0.62852 0.30406 0.65392 0.0
C3422 C 0.64712 0.3128 0.68448 0.0
C3423 C 0.65974 0.3042 0.67689 0.0
C3424 C 0.65645 0.29542 0.65775 0.0
C3425 C 0.64114 0.29539 0.64645 0.0
C3426 C 0.67634 0.30428 0.68873 0.0
C3427 C 0.68102 0.28694 0.68948 0.0
C3428 C 0.68754 0.32123 0.69933 0.0
C3429 C 0.68413 0.34018 0.69839 0.0
C3430 C 0.68221 0.34632 0.68089 0.0
C3431 C 0.67894 0.36417 0.6801 0.0
C3432 C 0.67769 0.37607 0.69674 0.0
C3433 C 0.67976 0.37016 0.71421 0.0
C3434 C 0.68302 0.35231 0.71508 0.0
C3435 C 0.75171 0.29451 0.72781 0.0
C3436 C 0.75425 0.30264 0.74713 0.0
C3437 C 0.73666 0.29479 0.71606 0.0
C3438 C 0.72379 0.30313 0.72343 0.0
C3439 C 0.72655 0.31148 0.74269 0.0
C3440 C 0.7415 0.31115 0.75437 0.0
C3441 C 0.70735 0.30303 0.71133 0.0
C3442 C 0.70271 0.32035 0.71054 0.0
C3443 C 0.69619 0.28606 0.70073 0.0
C3444 C 0.69964 0.26713 0.70176 0.0
C3445 C 0.70168 0.2611 0.71931 0.0
C3446 C 0.70519 0.24336 0.72021 0.0
C3447 C 0.70652 0.23143 0.70363 0.0
C3448 C 0.7043 0.2372 0.68611 0.0
C3449 C 0.70084 0.25495 0.68513 0.0
H3450 H 0.70924 0.21771 0.70436 0.0
H3451 H 0.67516 0.38989 0.6961 0.0
H3452 H 0.0338 0.31675 0.93914 0.0
H3453 H 0.03954 0.35056 0.95334 0.0
H3454 H 0.98455 0.34707 0.94705 0.0
H3455 H 0.97873 0.31351 0.93293 0.0
H3456 H 1.00201 0.37777 0.93425 0.0
H3457 H 0.00741 0.34981 0.9904 0.0
H3458 H 0.01931 0.33061 0.01115 0.0
H3459 H 0.07047 0.36635 0.01353 0.0
H3460 H 0.0589 0.38563 0.99257 0.0
H3461 H 0.99959 0.46593 0.98805 0.0
H3462 H 0.99585 0.43203 0.97617 0.0
H3463 H 0.05106 0.43841 0.98835 0.0
H3464 H 0.05484 0.47224 1.00076 0.0
H3465 H 0.03493 0.40647 0.99767 0.0
H3466 H 0.03032 0.43486 0.94254 0.0
H3467 H 0.01923 0.4545 0.92173 0.0
H3468 H 0.96794 0.41821 0.9164 0.0
H3469 H 0.97867 0.39854 0.9375 0.0
C3470 C 0.02292 0.32313 0.94097 0.0
C3471 C 0.00579 0.3123 0.93486 0.0
C3472 C 0.02622 0.34249 0.94912 0.0
C3473 C 0.01247 0.35146 0.95133 0.0
C3474 C 0.9954 0.34059 0.94547 0.0
C3475 C 0.99209 0.32129 0.93745 0.0
C3476 C 0.01572 0.37225 0.95918 0.0
C3477 C 0.00904 0.38398 0.94822 0.0
C3478 C 0.02536 0.3806 0.97715 0.0
C3479 C 0.03232 0.36903 0.98975 0.0
C3480 C 0.02122 0.35348 0.99522 0.0
C3481 C 0.0279 0.3426 0.00704 0.0
C3482 C 0.04564 0.34722 0.01361 0.0
C3483 C 0.05673 0.36276 0.0084 0.0
C3484 C 0.05012 0.37368 0.99657 0.0
C3485 C 0.01096 0.46016 0.98823 0.0
C3486 C 0.02754 0.47196 0.99527 0.0
C3487 C 0.00881 0.44072 0.98133 0.0
C3488 C 0.0232 0.43257 0.981 0.0
C3489 C 0.03972 0.44425 0.98836 0.0
C3490 C 0.04187 0.46368 0.99541 0.0
C3491 C 0.02102 0.41197 0.97283 0.0
C3492 C 0.02794 0.40029 0.98368 0.0
C3493 C 0.01174 0.40367 0.95465 0.0
C3494 C 1.00527 0.41532 0.94175 0.0
C3495 C 0.01665 0.43113 0.93703 0.0
C3496 C 0.01043 0.44227 0.92517 0.0
C3497 C 0.99289 0.43763 0.91776 0.0
C3498 C 0.98153 0.4218 0.92217 0.0
C3499 C 0.98767 0.41065 0.93408 0.0
H3500 H 0.98809 0.44627 0.90859 0.0
H3501 H 0.05078 0.33878 0.02276 0.0
H3502 H 0.04099 0.80137 0.17767 0.0
H3503 H 0.01575 0.79712 0.19516 0.0
H3504 H 0.98379 0.8044 0.14646 0.0
H3505 H 0.00889 0.80918 0.12926 0.0
H3506 H 0.97578 0.82315 0.17582 0.0
H3507 H 0.98294 0.75956 0.16048 0.0
H3508 H 0.99854 0.734 0.15955 0.0
H3509 H 0.00648 0.74318 0.22037 0.0
H3510 H 0.9911 0.76897 0.22166 0.0
H3511 H 0.89181 0.78529 0.19892 0.0
H3512 H 0.91851 0.78856 0.18425 0.0
H3513 H 0.94781 0.7913 0.23835 0.0
H3514 H 0.92125 0.78871 0.25338 0.0
H3515 H 0.95789 0.76804 0.20826 0.0
H3516 H 0.94899 0.83119 0.2225 0.0
H3517 H 0.93222 0.85564 0.22211 0.0
H3518 H 0.92639 0.84578 0.16128 0.0
H3519 H 0.94291 0.82106 0.1613 0.0
C3520 C 0.02858 0.80207 0.17071 0.0
C3521 C 0.02706 0.80564 0.15202 0.0
C3522 C 0.01408 0.79952 0.1807 0.0
C3523 C 0.99766 0.80021 0.17215 0.0
C3524 C 0.99621 0.80383 0.15351 0.0
C3525 C 0.01066 0.80653 0.14362 0.0
C3526 C 0.98197 0.7975 0.18248 0.0
C3527 C 0.97183 0.81095 0.1827 0.0
C3528 C 0.97681 0.78183 0.1919 0.0
C3529 C 0.98605 0.76634 0.19117 0.0
C3530 C 0.98814 0.75623 0.17366 0.0
C3531 C 0.99691 0.74168 0.17306 0.0
C3532 C 1.00354 0.73701 0.18989 0.0
C3533 C 1.00136 0.74684 0.20735 0.0
C3534 C 0.99261 0.76142 0.20802 0.0
C3535 C 0.9039 0.78673 0.20784 0.0
C3536 C 0.9042 0.78691 0.22749 0.0
C3537 C 0.9192 0.78849 0.19934 0.0
C3538 C 0.93526 0.79036 0.21019 0.0
C3539 C 0.9356 0.78984 0.22965 0.0
C3540 C 0.9203 0.78826 0.23821 0.0
C3541 C 0.9517 0.79353 0.20128 0.0
C3542 C 0.96195 0.78023 0.20139 0.0
C3543 C 0.95687 0.80919 0.19194 0.0
C3544 C 0.94706 0.82416 0.1919 0.0
C3545 C 0.94402 0.83414 0.20904 0.0
C3546 C 0.93458 0.84806 0.20889 0.0
C3547 C 0.92821 0.85223 0.19169 0.0
C3548 C 0.93131 0.84252 0.1746 0.0
C3549 C 0.94073 0.82857 0.17467 0.0
H3550 H 0.9209 0.86301 0.1916 0.0
H3551 H 0.01033 0.72575 0.1894 0.0
H3552 H 0.49908 0.30074 0.13105 0.0
H3553 H 0.50264 0.32707 0.11359 0.0
H3554 H 0.47659 0.28848 0.06262 0.0
H3555 H 0.47338 0.2618 0.07998 0.0
H3556 H 0.5041 0.31214 0.05486 0.0
H3557 H 0.45623 0.31952 0.08777 0.0
H3558 H 0.43985 0.32206 0.11509 0.0
H3559 H 0.47809 0.3725 0.14227 0.0
H3560 H 0.49485 0.37011 0.11522 0.0
H3561 H 0.49412 0.3897 0.00759 0.0
H3562 H 0.48778 0.36139 0.02238 0.0
H3563 H 0.5209 0.39242 0.07324 0.0
H3564 H 0.52797 0.42056 0.05837 0.0
H3565 H 0.48746 0.37173 0.07923 0.0
H3566 H 0.53581 0.3626 0.04614 0.0
H3567 H 0.55129 0.35983 0.01811 0.0
H3568 H 0.51029 0.31221 0.99023 0.0
H3569 H 0.49444 0.31488 0.01802 0.0
C3570 C 0.49399 0.2978 0.11615 0.0
C3571 C 0.48585 0.27915 0.10693 0.0
C3572 C 0.49598 0.31293 0.10619 0.0
C3573 C 0.48961 0.30984 0.08685 0.0
C3574 C 0.48154 0.29122 0.07755 0.0
C3575 C 0.47968 0.276 0.0875 0.0
C3576 C 0.49183 0.32607 0.07638 0.0
C3577 C 0.50016 0.32503 0.06001 0.0
C3578 C 0.48692 0.34302 0.08321 0.0
C3579 C 0.47687 0.34454 0.09951 0.0
C3580 C 0.46122 0.33107 0.09963 0.0
C3581 C 0.45185 0.3325 0.11506 0.0
C3582 C 0.45794 0.34741 0.13043 0.0
C3583 C 0.4734 0.36095 0.13037 0.0
C3584 C 0.48283 0.35958 0.11497 0.0
C3585 C 0.5003 0.39048 0.02181 0.0
C3586 C 0.5116 0.4075 0.03174 0.0
C3587 C 0.49655 0.3743 0.03027 0.0
C3588 C 0.5039 0.37485 0.04886 0.0
C3589 C 0.51504 0.39177 0.05889 0.0
C3590 C 0.51897 0.40788 0.05038 0.0
C3591 C 0.4999 0.35782 0.05798 0.0
C3592 C 0.49123 0.35874 0.07405 0.0
C3593 C 0.50431 0.34072 0.05076 0.0
C3594 C 0.51384 0.33908 0.03407 0.0
C3595 C 0.53002 0.35165 0.03396 0.0
C3596 C 0.53887 0.35008 0.01814 0.0
C3597 C 0.53175 0.33589 1.00238 0.0
C3598 C 0.51578 0.32322 1.00244 0.0
C3599 C 0.50686 0.32475 0.01822 0.0
H3600 H 0.53864 0.33469 0.99014 0.0
H3601 H 0.45067 0.34849 0.14236 0.0
H3602 H 0.02513 0.28531 0.3797 0.0
H3603 H 0.9965 0.27932 0.36157 0.0
H3604 H 0.0202 0.29198 0.31194 0.0
H3605 H 0.04898 0.29837 0.33012 0.0
H3606 H 0.99713 0.3118 0.31821 0.0
H3607 H 0.99693 0.24662 0.31382 0.0
H3608 H 1.00051 0.2172 0.32466 0.0
H3609 H 0.96046 0.21991 0.36028 0.0
H3610 H 0.9568 0.24952 0.34989 0.0
H3611 H 0.91228 0.29743 0.26996 0.0
H3612 H 0.94043 0.29001 0.277 0.0
H3613 H 0.92983 0.28524 0.33402 0.0
H3614 H 0.90171 0.29253 0.32705 0.0
H3615 H 0.94671 0.25772 0.31793 0.0
H3616 H 0.95174 0.32602 0.32653 0.0
H3617 H 0.94824 0.35554 0.3158 0.0
H3618 H 0.97971 0.3462 0.27164 0.0
H3619 H 0.98319 0.31645 0.28197 0.0
C3620 C 0.02428 0.28656 0.36486 0.0
C3621 C 0.03933 0.29247 0.3564 0.0
C3622 C 0.00788 0.28297 0.35445 0.0
C3623 C 0.00619 0.28503 0.33534 0.0
C3624 C 0.0212 0.29026 0.32666 0.0
C3625 C 0.03764 0.29391 0.33708 0.0
C3626 C 0.98883 0.28379 0.32517 0.0
C3627 C 0.98622 0.29972 0.3177 0.0
C3628 C 0.9745 0.26819 0.32478 0.0
C3629 C 0.97668 0.25039 0.33116 0.0
C3630 C 0.98898 0.24104 0.32409 0.0
C3631 C 0.991 0.22431 0.33013 0.0
C3632 C 0.98074 0.21671 0.34318 0.0
C3633 C 0.9684 0.22581 0.35018 0.0
C3634 C 0.96633 0.24257 0.3442 0.0
C3635 C 0.91584 0.29444 0.28387 0.0
C3636 C 0.90497 0.29581 0.29806 0.0
C3637 C 0.9319 0.29024 0.28787 0.0
C3638 C 0.93722 0.28725 0.30607 0.0
C3639 C 0.92595 0.28753 0.3199 0.0
C3640 C 0.90999 0.29189 0.31597 0.0
C3641 C 0.95515 0.28581 0.31142 0.0
C3642 C 0.95779 0.26949 0.31803 0.0
C3643 C 0.96956 0.30101 0.311 0.0
C3644 C 0.96753 0.31891 0.30485 0.0
C3645 C 0.95779 0.33018 0.31443 0.0
C3646 C 0.95583 0.34696 0.30844 0.0
C3647 C 0.96369 0.35271 0.29301 0.0
C3648 C 0.97358 0.34171 0.28356 0.0
C3649 C 0.97556 0.32489 0.28948 0.0
H3650 H 0.96217 0.36572 0.2884 0.0
H3651 H 0.98232 0.20374 0.34783 0.0
H3652 H 0.98203 0.69629 0.61682 0.0
H3653 H 0.9868 0.66767 0.59801 0.0
H3654 H 0.04207 0.69222 0.60742 0.0
H3655 H 0.03739 0.72105 0.62584 0.0
H3656 H 0.03235 0.67579 0.57183 0.0
H3657 H 0.02204 0.65912 0.63192 0.0
H3658 H 0.00617 0.65529 0.65943 0.0
H3659 H 0.96408 0.61415 0.62397 0.0
H3660 H 0.9794 0.61825 0.59606 0.0
H3661 H 0.05747 0.59099 0.54027 0.0
H3662 H 0.05317 0.61785 0.56244 0.0
H3663 H 0.99774 0.59831 0.54662 0.0
H3664 H 1.00199 0.57135 0.52442 0.0
H3665 H 0.0083 0.61166 0.58648 0.0
H3666 H 0.01798 0.63142 0.52625 0.0
H3667 H 0.03425 0.63551 0.49901 0.0
H3668 H 0.07871 0.67042 0.53634 0.0
H3669 H 0.06277 0.6663 0.56385 0.0
C3670 C 0.9952 0.69562 0.61483 0.0
C3671 C 0.00934 0.71091 0.62285 0.0
C3672 C 0.99791 0.67922 0.60416 0.0
C3673 C 0.01482 0.67769 0.60156 0.0
C3674 C 0.02892 0.69308 0.60928 0.0
C3675 C 0.02622 0.70954 0.61982 0.0
C3676 C 0.01782 0.66013 0.59066 0.0
C3677 C 0.02728 0.66182 0.57524 0.0
C3678 C 0.011 0.64184 0.59495 0.0
C3679 C 1.0018 0.63921 0.61179 0.0
C3680 C 0.00929 0.64947 0.6299 0.0
C3681 C 1.00036 0.64728 0.64557 0.0
C3682 C 0.98409 0.63456 0.64343 0.0
C3683 C 0.97668 0.62404 0.62559 0.0
C3684 C 0.98545 0.62634 0.60982 0.0
C3685 C 0.04437 0.59231 0.54171 0.0
C3686 C 0.03005 0.57926 0.53058 0.0
C3687 C 0.04194 0.60764 0.55434 0.0
C3688 C 0.02515 0.6101 0.55602 0.0
C3689 C 0.01079 0.59662 0.54549 0.0
C3690 C 0.01323 0.58135 0.53275 0.0
C3691 C 0.02268 0.62746 0.56771 0.0
C3692 C 0.01336 0.6257 0.58323 0.0
C3693 C 0.02972 0.64573 0.56366 0.0
C3694 C 0.03924 0.64839 0.54712 0.0
C3695 C 0.03127 0.63985 0.52866 0.0
C3696 C 0.04042 0.64219 0.51317 0.0
C3697 C 0.05752 0.65318 0.51595 0.0
C3698 C 0.06548 0.66189 0.53422 0.0
C3699 C 0.05639 0.65957 0.54976 0.0
H3700 H 0.06459 0.65497 0.50394 0.0
H3701 H 0.97727 0.63276 0.65562 0.0
H3702 H 0.62161 0.80492 0.83986 0.0
H3703 H 0.64689 0.80387 0.82357 0.0
H3704 H 0.67549 0.85641 0.85918 0.0
H3705 H 0.64999 0.85772 0.87563 0.0
H3706 H 0.68209 0.85243 0.81981 0.0
H3707 H 0.68227 0.81925 0.87222 0.0
H3708 H 0.66935 0.79711 0.89262 0.0
H3709 H 0.65911 0.75058 0.84582 0.0
H3710 H 0.67169 0.7725 0.82504 0.0
H3711 H 0.76153 0.8291 0.79501 0.0
H3712 H 0.73915 0.83963 0.8119 0.0
H3713 H 0.70265 0.78616 0.78844 0.0
H3714 H 0.72503 0.77535 0.77206 0.0
H3715 H 0.70311 0.79443 0.82579 0.0
H3716 H 0.7005 0.82844 0.77284 0.0
H3717 H 0.71557 0.84991 0.75302 0.0
H3718 H 0.73174 0.89471 0.80147 0.0
H3719 H 0.71698 0.87339 0.82165 0.0
C3720 C 0.63318 0.81641 0.84413 0.0
C3721 C 0.63392 0.83125 0.85925 0.0
C3722 C 0.64759 0.8158 0.83475 0.0
C3723 C 0.66307 0.82991 0.84041 0.0
C3724 C 0.66361 0.84539 0.85469 0.0
C3725 C 0.64909 0.84606 0.86409 0.0
C3726 C 0.67894 0.8272 0.83248 0.0
C3727 C 0.6869 0.83993 0.82132 0.0
C3728 C 0.68513 0.81087 0.8345 0.0
C3729 C 0.67782 0.79756 0.84704 0.0
C3730 C 0.67716 0.80432 0.86624 0.0
C3731 C 0.6699 0.79181 0.87788 0.0
C3732 C 0.66339 0.77246 0.87052 0.0
C3733 C 0.66415 0.76557 0.85151 0.0
C3734 C 0.67136 0.77803 0.8398 0.0
C3735 C 0.74865 0.81972 0.79324 0.0
C3736 C 0.74501 0.80136 0.78232 0.0
C3737 C 0.73589 0.82575 0.8029 0.0
C3738 C 0.71925 0.81365 0.80143 0.0
C3739 C 0.71546 0.79564 0.78989 0.0
C3740 C 0.72822 0.78953 0.78047 0.0
C3741 C 0.70586 0.8192 0.81244 0.0
C3742 C 0.69843 0.80703 0.82435 0.0
C3743 C 0.70026 0.83603 0.81113 0.0
C3744 C 0.70777 0.8493 0.79876 0.0
C3745 C 0.70722 0.8429 0.77924 0.0
C3746 C 0.71574 0.85501 0.76796 0.0
C3747 C 0.72469 0.8736 0.77603 0.0
C3748 C 0.72485 0.88027 0.79528 0.0
C3749 C 0.71639 0.86819 0.80664 0.0
H3750 H 0.73156 0.88279 0.76736 0.0
H3751 H 0.65777 0.7628 0.87955 0.0
H3752 H 0.47163 0.53859 0.71375 0.0
H3753 H 0.48458 0.53851 0.68431 0.0
H3754 H 0.4417 0.55652 0.65846 0.0
H3755 H 0.42865 0.55693 0.68844 0.0
H3756 H 0.45133 0.52758 0.6325 0.0
H3757 H 0.48175 0.58751 0.67041 0.0
H3758 H 0.49863 0.60888 0.69902 0.0
H3759 H 0.53902 0.57888 0.69541 0.0
H3760 H 0.52227 0.55716 0.66692 0.0
H3761 H 0.49663 0.54201 0.54904 0.0
H3762 H 0.47947 0.54295 0.57593 0.0
H3763 H 0.52442 0.54226 0.61366 0.0
H3764 H 0.54136 0.54197 0.58723 0.0
H3765 H 0.51178 0.56414 0.63297 0.0
H3766 H 0.4822 0.50322 0.59703 0.0
H3767 H 0.46564 0.47994 0.56948 0.0
H3768 H 0.42437 0.50883 0.57018 0.0
H3769 H 0.44088 0.53258 0.59742 0.0
C3770 C 0.46483 0.54275 0.70198 0.0
C3771 C 0.44891 0.54794 0.70412 0.0
C3772 C 0.47241 0.54268 0.68484 0.0
C3773 C 0.46445 0.54752 0.66852 0.0
C3774 C 0.44843 0.55263 0.67045 0.0
C3775 C 0.44093 0.55305 0.68788 0.0
C3776 C 0.47312 0.54736 0.64998 0.0
C3777 C 0.46446 0.53587 0.63264 0.0
C3778 C 0.49055 0.55754 0.64954 0.0
C3779 C 0.50068 0.57061 0.66662 0.0
C3780 C 0.49417 0.58538 0.6758 0.0
C3781 C 0.50373 0.59757 0.69198 0.0
C3782 C 0.51987 0.59521 0.69905 0.0
C3783 C 0.52651 0.58068 0.68993 0.0
C3784 C 0.51699 0.56844 0.67375 0.0
C3785 C 0.50276 0.54157 0.56296 0.0
C3786 C 0.52059 0.54152 0.56546 0.0
C3787 C 0.49285 0.5422 0.57866 0.0
C3788 C 0.5002 0.5426 0.59761 0.0
C3789 C 0.51792 0.54218 0.59976 0.0
C3790 C 0.52775 0.5418 0.58429 0.0
C3791 C 0.49019 0.54403 0.61529 0.0
C3792 C 0.49863 0.5558 0.63261 0.0
C3793 C 0.47268 0.53384 0.61571 0.0
C3794 C 0.46287 0.51982 0.59912 0.0
C3795 C 0.46968 0.50474 0.59117 0.0
C3796 C 0.4603 0.49145 0.5756 0.0
C3797 C 0.44399 0.49293 0.56804 0.0
C3798 C 0.43704 0.50774 0.57599 0.0
C3799 C 0.44642 0.52114 0.59147 0.0
H3800 H 0.43672 0.48256 0.55605 0.0
H3801 H 0.52725 0.60467 0.71158 0.0
H3802 H 0.78236 0.1534 0.96939 0.0
H3803 H 0.77526 0.16599 0.94087 0.0
H3804 H 0.77251 0.21844 0.97547 0.0
H3805 H 0.77924 0.20584 1.00403 0.0
H3806 H 0.74559 0.20641 0.94779 0.0
H3807 H 0.80795 0.21495 0.95297 0.0
H3808 H 0.83525 0.20446 0.95527 0.0
H3809 H 0.81794 0.16629 0.90214 0.0
H3810 H 0.79042 0.1764 0.89966 0.0
H3811 H 0.76591 0.27803 0.89234 0.0
H3812 H 0.76139 0.25577 0.91457 0.0
H3813 H 0.76075 0.20933 0.86965 0.0
H3814 H 0.76554 0.2316 0.84742 0.0
H3815 H 0.7855 0.21265 0.89887 0.0
H3816 H 0.72509 0.20918 0.89142 0.0
H3817 H 0.69856 0.2211 0.88928 0.0
H3818 H 0.7126 0.25104 0.94661 0.0
H3819 H 0.73936 0.23953 0.94904 0.0
C3820 C 0.78036 0.16766 0.97092 0.0
C3821 C 0.78141 0.17866 0.98895 0.0
C3822 C 0.77628 0.17481 0.95461 0.0
C3823 C 0.7734 0.19315 0.95608 0.0
C3824 C 0.77457 0.20419 0.97406 0.0
C3825 C 0.77854 0.19702 0.99035 0.0
C3826 C 0.76941 0.20108 0.93895 0.0
C3827 C 0.75433 0.20788 0.9371 0.0
C3828 C 0.78054 0.20236 0.92474 0.0
C3829 C 0.79705 0.19625 0.92625 0.0
C3830 C 0.80991 0.2042 0.94187 0.0
C3831 C 0.82543 0.19835 0.94319 0.0
C3832 C 0.8283 0.18467 0.9289 0.0
C3833 C 0.81567 0.17685 0.91323 0.0
C3834 C 0.80012 0.18264 0.91185 0.0
C3835 C 0.76435 0.263 0.88713 0.0
C3836 C 0.76623 0.25654 0.86825 0.0
C3837 C 0.76163 0.25028 0.89978 0.0
C3838 C 0.76073 0.23091 0.89372 0.0
C3839 C 0.76136 0.22422 0.87455 0.0
C3840 C 0.764 0.23694 0.86187 0.0
C3841 C 0.76191 0.2185 0.90793 0.0
C3842 C 0.77651 0.21083 0.90928 0.0
C3843 C 0.75041 0.21658 0.92172 0.0
C3844 C 0.73431 0.22355 0.92037 0.0
C3845 C 0.7226 0.21842 0.90353 0.0
C3846 C 0.7075 0.22509 0.90228 0.0
C3847 C 0.70391 0.23684 0.91779 0.0
C3848 C 0.7154 0.24193 0.93461 0.0
C3849 C 0.73052 0.23531 0.93594 0.0
H3850 H 0.69221 0.24198 0.91679 0.0
H3851 H 0.84033 0.18016 0.92994 0.0
H3852 H 0.11235 0.46578 0.18061 0.0
H3853 H 0.092 0.46246 0.15202 0.0
H3854 H 0.12647 0.50974 0.13501 0.0
H3855 H 0.14688 0.51293 0.16322 0.0
H3856 H 0.07518 0.48781 0.14539 0.0
H3857 H 0.12143 0.50841 0.08843 0.0
H3858 H 0.14698 0.49974 0.07607 0.0
H3859 H 0.13562 0.44768 0.09822 0.0
H3860 H 0.10991 0.45587 0.1105 0.0
H3861 H 0.05898 0.54235 0.06735 0.0
H3862 H 0.07691 0.53074 0.09015 0.0
H3863 H 0.03901 0.47687 0.08065 0.0
H3864 H 0.02132 0.48815 0.05714 0.0
H3865 H 0.08896 0.49388 0.08044 0.0
H3866 H 0.04049 0.46781 0.12943 0.0
H3867 H 0.01306 0.47303 0.13995 0.0
H3868 H 0.02753 0.53126 0.13219 0.0
H3869 H 0.05512 0.52644 0.1219 0.0
C3870 C 0.11577 0.47517 0.17054 0.0
C3871 C 0.13112 0.48978 0.17428 0.0
C3872 C 0.10412 0.47326 0.15423 0.0
C3873 C 0.10772 0.48581 0.14135 0.0
C3874 C 0.12351 0.49968 0.14455 0.0
C3875 C 0.13513 0.5016 0.16082 0.0
C3876 C 0.09419 0.48633 0.12604 0.0
C3877 C 0.07807 0.48862 0.13106 0.0
C3878 C 0.09793 0.48748 0.10733 0.0
C3879 C 0.11377 0.48284 0.10052 0.0
C3880 C 0.12438 0.49512 0.0907 0.0
C3881 C 0.1389 0.49029 0.0837 0.0
C3882 C 0.14291 0.47318 0.08639 0.0
C3883 C 0.13251 0.46094 0.09619 0.0
C3884 C 0.118 0.4657 0.10323 0.0
C3885 C 0.05452 0.52801 0.07009 0.0
C3886 C 0.03903 0.51597 0.06027 0.0
C3887 C 0.06474 0.52143 0.08305 0.0
C3888 C 0.0593 0.50293 0.08681 0.0
C3889 C 0.04339 0.49116 0.07775 0.0
C3890 C 0.03331 0.49764 0.06448 0.0
C3891 C 0.07051 0.49607 0.10017 0.0
C3892 C 0.08609 0.49262 0.0947 0.0
C3893 C 0.06617 0.49349 0.11831 0.0
C3894 C 0.04972 0.49666 0.12463 0.0
C3895 C 0.0378 0.48172 0.12999 0.0
C3896 C 0.02224 0.48462 0.13592 0.0
C3897 C 0.01851 0.50244 0.13665 0.0
C3898 C 0.03038 0.51743 0.13152 0.0
C3899 C 0.04597 0.51461 0.1256 0.0
H3900 H 0.00646 0.50466 0.14124 0.0
H3901 H 0.154 0.46932 0.08081 0.0
H3902 H 0.78383 0.86357 0.48076 0.0
H3903 H 0.77951 0.84815 0.44742 0.0
H3904 H 0.83408 0.84962 0.45044 0.0
H3905 H 0.83852 0.86512 0.48355 0.0
H3906 H 0.82362 0.86202 0.41949 0.0
H3907 H 0.80291 0.80791 0.44909 0.0
H3908 H 0.78469 0.78944 0.46906 0.0
H3909 H 0.73873 0.79089 0.4338 0.0
H3910 H 0.75668 0.8096 0.41376 0.0
H3911 H 0.82462 0.80314 0.33278 0.0
H3912 H 0.82659 0.81536 0.36659 0.0
H3913 H 0.77162 0.81201 0.36043 0.0
H3914 H 0.76945 0.79946 0.32661 0.0
H3915 H 0.7812 0.80086 0.39271 0.0
H3916 H 0.80137 0.85446 0.36299 0.0
H3917 H 0.81916 0.87306 0.34278 0.0
H3918 H 0.86555 0.87322 0.37822 0.0
H3919 H 0.84805 0.85435 0.39848 0.0
C3920 C 0.79489 0.86044 0.47438 0.0
C3921 C 0.81153 0.86562 0.48491 0.0
C3922 C 0.79239 0.85158 0.45529 0.0
C3923 C 0.80646 0.84761 0.44634 0.0
C3924 C 0.82301 0.85255 0.45693 0.0
C3925 C 0.82551 0.86137 0.47595 0.0
C3926 C 0.8042 0.83893 0.42581 0.0
C3927 C 0.81449 0.84851 0.41372 0.0
C3928 C 0.79194 0.82159 0.41803 0.0
C3929 C 0.78113 0.81032 0.43005 0.0
C3930 C 0.78891 0.80442 0.44569 0.0
C3931 C 0.77864 0.79389 0.457 0.0
C3932 C 0.76056 0.78904 0.45273 0.0
C3933 C 0.75273 0.79468 0.43711 0.0
C3934 C 0.76295 0.80524 0.42576 0.0
C3935 C 0.81289 0.80485 0.33858 0.0
C3936 C 0.79689 0.80039 0.32683 0.0
C3937 C 0.81406 0.81195 0.35797 0.0
C3938 C 0.79931 0.81496 0.3661 0.0
C3939 C 0.78321 0.80991 0.35455 0.0
C3940 C 0.78201 0.80275 0.33514 0.0
C3941 C 0.8008 0.82383 0.38648 0.0
C3942 C 0.79032 0.81436 0.3985 0.0
C3943 C 0.81283 0.84135 0.39421 0.0
C3944 C 0.8234 0.85283 0.38215 0.0
C3945 C 0.81537 0.85834 0.3664 0.0
C3946 C 0.8254 0.86895 0.35494 0.0
C3947 C 0.84348 0.87428 0.35919 0.0
C3948 C 0.85155 0.86906 0.37494 0.0
C3949 C 0.84158 0.85842 0.38642 0.0
H3950 H 0.85122 0.88249 0.3503 0.0
H3951 H 0.75263 0.78088 0.46151 0.0
H3952 H 0.42953 0.556 0.8223 0.0
H3953 H 0.44154 0.55342 0.85435 0.0
H3954 H 0.489 0.5463 0.8334 0.0
H3955 H 0.47695 0.54829 0.80168 0.0
H3956 H 0.48493 0.52427 0.85612 0.0
H3957 H 0.48213 0.58956 0.8649 0.0
H3958 H 0.46835 0.61649 0.86456 0.0
H3959 H 0.43383 0.59449 0.90278 0.0
H3960 H 0.44729 0.5673 0.90317 0.0
H3961 H 0.52371 0.56805 0.96442 0.0
H3962 H 0.51019 0.57128 0.93342 0.0
H3963 H 0.48978 0.51052 0.91999 0.0
H3964 H 0.50369 0.50725 0.95068 0.0
H3965 H 0.48053 0.56701 0.91471 0.0
H3966 H 0.48123 0.49338 0.87286 0.0
H3967 H 0.49883 0.46963 0.87261 0.0
H3968 H 0.54358 0.51337 0.89937 0.0
H3969 H 0.5263 0.5374 0.89956 0.0
C3970 C 0.44259 0.55406 0.8245 0.0
C3971 C 0.45209 0.55247 0.80889 0.0
C3972 C 0.44961 0.55262 0.8431 0.0
C3973 C 0.46655 0.54975 0.84705 0.0
C3974 C 0.47596 0.54835 0.8314 0.0
C3975 C 0.46896 0.54964 0.81295 0.0
C3976 C 0.47453 0.54783 0.86696 0.0
C3977 C 0.48377 0.53367 0.86882 0.0
C3978 C 0.47371 0.56004 0.88413 0.0
C3979 C 0.46558 0.5763 0.88389 0.0
C3980 C 0.47152 0.5904 0.87312 0.0
C3981 C 0.46378 0.60572 0.87294 0.0
C3982 C 0.45019 0.60717 0.8836 0.0
C3983 C 0.44434 0.59333 0.8945 0.0
C3984 C 0.45202 0.57797 0.89472 0.0
C3985 C 0.51643 0.55528 0.9549 0.0
C3986 C 0.51514 0.53732 0.96047 0.0
C3987 C 0.50851 0.55717 0.93694 0.0
C3988 C 0.4989 0.5412 0.92355 0.0
C3989 C 0.49734 0.52327 0.92932 0.0
C3990 C 0.50533 0.52137 0.94721 0.0
C3991 C 0.4907 0.54328 0.90382 0.0
C3992 C 0.48151 0.55751 0.90199 0.0
C3993 C 0.4919 0.53143 0.88659 0.0
C3994 C 0.50242 0.51713 0.88641 0.0
C3995 C 0.49484 0.49792 0.87864 0.0
C3996 C 0.50475 0.48442 0.87852 0.0
C3997 C 0.52229 0.48998 0.88603 0.0
C3998 C 0.52997 0.50907 0.89362 0.0
C3999 C 0.52012 0.52263 0.89375 0.0
H4000 H 0.52994 0.4795 0.88594 0.0
H4001 H 0.44422 0.61904 0.88344 0.0
H4002 H 0.81864 0.21133 0.06699 0.0
H4003 H 0.81682 0.23279 0.09578 0.0
H4004 H 0.78459 0.18601 0.1159 0.0
H4005 H 0.78587 0.16463 0.08687 0.0
H4006 H 0.77166 0.21566 0.12192 0.0
H4007 H 0.82849 0.20444 0.13329 0.0
H4008 H 0.85805 0.20334 0.12652 0.0
H4009 H 0.87058 0.26347 0.12624 0.0
H4010 H 0.841 0.26488 0.13277 0.0
H4011 H 0.78484 0.24948 0.22104 0.0
H4012 H 0.78347 0.2329 0.18869 0.0
H4013 H 0.80807 0.28572 0.17215 0.0
H4014 H 0.80927 0.30253 0.20459 0.0
H4015 H 0.82438 0.25601 0.16286 0.0
H4016 H 0.76718 0.26658 0.15559 0.0
H4017 H 0.73806 0.26626 0.16469 0.0
H4018 H 0.72656 0.20541 0.15946 0.0
H4019 H 0.75572 0.20538 0.15061 0.0
C4020 C 0.81127 0.2056 0.07761 0.0
C4021 C 0.80245 0.18629 0.07472 0.0
C4022 C 0.81025 0.21787 0.09407 0.0
C4023 C 0.8007 0.21098 0.10809 0.0
C4024 C 0.79198 0.19166 0.10526 0.0
C4025 C 0.7928 0.17944 0.0887 0.0
C4026 C 0.79965 0.22385 0.12569 0.0
C4027 C 0.7832 0.22436 0.13094 0.0
C4028 C 0.81469 0.23554 0.13726 0.0
C4029 C 0.83247 0.23472 0.13329 0.0
C4030 C 0.8375 0.21739 0.13162 0.0
C4031 C 0.85427 0.21672 0.12786 0.0
C4032 C 0.86617 0.23331 0.12589 0.0
C4033 C 0.86134 0.25062 0.12773 0.0
C4034 C 0.84458 0.25137 0.13147 0.0
C4035 C 0.78958 0.25765 0.21043 0.0
C4036 C 0.79712 0.27729 0.21527 0.0
C4037 C 0.7888 0.24816 0.19197 0.0
C4038 C 0.7956 0.25813 0.17807 0.0
C4039 C 0.80272 0.27784 0.18272 0.0
C4040 C 0.80336 0.28739 0.20119 0.0
C4041 C 0.79644 0.24759 0.15914 0.0
C4042 C 0.81285 0.2475 0.15367 0.0
C4043 C 0.78139 0.23607 0.14756 0.0
C4044 C 0.7637 0.236 0.15255 0.0
C4045 C 0.75849 0.25313 0.15649 0.0
C4046 C 0.74196 0.25301 0.1616 0.0
C4047 C 0.73048 0.23583 0.1627 0.0
C4048 C 0.73547 0.21871 0.15862 0.0
C4049 C 0.75199 0.21876 0.15353 0.0
H4050 H 0.7177 0.23577 0.16668 0.0
H4051 H 0.87915 0.23276 0.12299 0.0
H4052 H 0.13365 0.56636 0.26042 0.0
H4053 H 0.11721 0.56999 0.2873 0.0
H4054 H 0.1125 0.51094 0.29147 0.0
H4055 H 0.12866 0.50711 0.26459 0.0
H4056 H 0.08267 0.52074 0.29613 0.0
H4057 H 0.14326 0.54522 0.32008 0.0
H4058 H 0.17264 0.56589 0.32185 0.0
H4059 H 0.15275 0.61544 0.3352 0.0
H4060 H 0.12319 0.59505 0.33325 0.0
H4061 H 0.08873 0.53965 0.40477 0.0
H4062 H 0.10286 0.54191 0.37616 0.0
H4063 H 0.05614 0.54993 0.3467 0.0
H4064 H 0.04181 0.54715 0.37517 0.0
H4065 H 0.1109 0.56739 0.35398 0.0
H4066 H 0.05038 0.52651 0.3015 0.0
H4067 H 0.02265 0.5031 0.30116 0.0
H4068 H 0.04533 0.48155 0.34708 0.0
H4069 H 0.07323 0.50464 0.34752 0.0
C4070 C 0.12894 0.55411 0.26694 0.0
C4071 C 0.13255 0.53648 0.26048 0.0
C4072 C 0.11963 0.55623 0.28232 0.0
C4073 C 0.11383 0.54078 0.29146 0.0
C4074 C 0.11687 0.52303 0.28459 0.0
C4075 C 0.12617 0.5209 0.26927 0.0
C4076 C 0.10514 0.54309 0.30863 0.0
C4077 C 0.08876 0.53106 0.30872 0.0
C4078 C 0.11325 0.55634 0.32513 0.0
C4079 C 0.13099 0.56863 0.32628 0.0
C4080 C 0.14513 0.56053 0.32322 0.0
C4081 C 0.16182 0.57219 0.32429 0.0
C4082 C 0.16455 0.59197 0.32857 0.0
C4083 C 0.15061 0.60012 0.33184 0.0
C4084 C 0.13389 0.58852 0.33076 0.0
C4085 C 0.08157 0.5421 0.39224 0.0
C4086 C 0.06413 0.54296 0.39203 0.0
C4087 C 0.08965 0.54345 0.37594 0.0
C4088 C 0.08046 0.54581 0.35925 0.0
C4089 C 0.06334 0.54772 0.35934 0.0
C4090 C 0.05518 0.54611 0.37555 0.0
C4091 C 0.08845 0.545 0.34148 0.0
C4092 C 0.10467 0.55731 0.34127 0.0
C4093 C 0.08043 0.53162 0.32502 0.0
C4094 C 0.06381 0.51744 0.32467 0.0
C4095 C 0.04945 0.51672 0.31147 0.0
C4096 C 0.03371 0.50352 0.31127 0.0
C4097 C 0.03221 0.49089 0.32414 0.0
C4098 C 0.04648 0.49138 0.33717 0.0
C4099 C 0.06226 0.50453 0.33741 0.0
H4100 H 0.02001 0.48071 0.32398 0.0
H4101 H 0.17748 0.60098 0.3294 0.0
H4102 H 0.82976 0.85218 0.58319 0.0
H4103 H 0.82588 0.83995 0.61265 0.0
H4104 H 0.78028 0.86196 0.61725 0.0
H4105 H 0.78478 0.87521 0.58828 0.0
H4106 H 0.79596 0.86726 0.65032 0.0
H4107 H 0.78016 0.81197 0.60151 0.0
H4108 H 0.78381 0.78946 0.57394 0.0
H4109 H 0.8279 0.77884 0.60556 0.0
H4110 H 0.82465 0.80148 0.63324 0.0
H4111 H 0.7578 0.80335 0.71146 0.0
H4112 H 0.76413 0.81946 0.68437 0.0
H4113 H 0.81705 0.81447 0.6924 0.0
H4114 H 0.81094 0.79892 0.71982 0.0
H4115 H 0.79844 0.80083 0.65393 0.0
H4116 H 0.81066 0.85451 0.70439 0.0
H4117 H 0.80446 0.87574 0.73143 0.0
H4118 H 0.76419 0.88864 0.69562 0.0
H4119 H 0.76953 0.86677 0.66859 0.0
C4120 C 0.81889 0.85441 0.59046 0.0
C4121 C 0.80751 0.86458 0.58325 0.0
C4122 C 0.81659 0.84727 0.60732 0.0
C4123 C 0.8025 0.84952 0.61716 0.0
C4124 C 0.79124 0.85989 0.61005 0.0
C4125 C 0.79378 0.86744 0.5934 0.0
C4126 C 0.79956 0.84118 0.63482 0.0
C4127 C 0.79624 0.85263 0.65094 0.0
C4128 C 0.80026 0.82217 0.63601 0.0
C4129 C 0.80228 0.80859 0.61937 0.0
C4130 C 0.79072 0.80495 0.60253 0.0
C4131 C 0.7927 0.79215 0.58689 0.0
C4132 C 0.80612 0.78278 0.58798 0.0
C4133 C 0.81754 0.78614 0.60472 0.0
C4134 C 0.81563 0.79895 0.62039 0.0
C4135 C 0.77083 0.8059 0.70756 0.0
C4136 C 0.78387 0.7999 0.71776 0.0
C4137 C 0.77444 0.81511 0.6921 0.0
C4138 C 0.79107 0.81818 0.68633 0.0
C4139 C 0.80413 0.81227 0.69658 0.0
C4140 C 0.80064 0.80346 0.7123 0.0
C4141 C 0.79464 0.82684 0.66915 0.0
C4142 C 0.79812 0.81544 0.6532 0.0
C4143 C 0.79371 0.84574 0.66802 0.0
C4144 C 0.79031 0.85868 0.68447 0.0
C4145 C 0.80023 0.86153 0.70234 0.0
C4146 C 0.79685 0.87369 0.7177 0.0
C4147 C 0.78378 0.88334 0.71531 0.0
C4148 C 0.77414 0.88094 0.69754 0.0
C4149 C 0.7773 0.86861 0.6822 0.0
H4150 H 0.78119 0.89277 0.72718 0.0
H4151 H 0.80763 0.77287 0.57586 0.0
H4152 H 0.77546 0.49658 0.47745 0.0
H4153 H 0.75471 0.51666 0.47745 0.0
H4154 H 0.71322 0.46797 0.47978 0.0
H4155 H 0.73362 0.44781 0.47884 0.0
H4156 H 0.70083 0.48954 0.46034 0.0
H4157 H 0.73722 0.49981 0.52069 0.0
H4158 H 0.76503 0.50867 0.5418 0.0
H4159 H 0.77612 0.56424 0.52654 0.0
H4160 H 0.74844 0.5556 0.50516 0.0
H4161 H 0.64403 0.51595 0.52028 0.0
H4162 H 0.66878 0.50554 0.50886 0.0
H4163 H 0.6895 0.56129 0.49611 0.0
H4164 H 0.66441 0.57182 0.50724 0.0
H4165 H 0.71424 0.54266 0.51525 0.0
H4166 H 0.67053 0.53116 0.46147 0.0
H4167 H 0.64002 0.51976 0.44682 0.0
H4168 H 0.64063 0.46282 0.45416 0.0
H4169 H 0.67094 0.47396 0.46949 0.0
C4170 C 0.76184 0.49013 0.47757 0.0
C4171 C 0.75619 0.4707 0.47843 0.0
C4172 C 0.75002 0.50162 0.47763 0.0
C4173 C 0.73247 0.49393 0.47908 0.0
C4174 C 0.72668 0.47428 0.47869 0.0
C4175 C 0.7384 0.46275 0.47824 0.0
C4176 C 0.72035 0.50631 0.48292 0.0
C4177 C 0.70383 0.50125 0.47225 0.0
C4178 C 0.72429 0.52177 0.49834 0.0
C4179 C 0.74091 0.52698 0.51115 0.0
C4180 C 0.74566 0.51387 0.52175 0.0
C4181 C 0.76138 0.51885 0.53377 0.0
C4182 C 0.77237 0.53699 0.53546 0.0
C4183 C 0.76762 0.55019 0.52517 0.0
C4184 C 0.75193 0.54525 0.5131 0.0
C4185 C 0.65381 0.52601 0.51501 0.0
C4186 C 0.65215 0.5446 0.51434 0.0
C4187 C 0.66796 0.52007 0.5086 0.0
C4188 C 0.68073 0.53259 0.50141 0.0
C4189 C 0.67966 0.55145 0.50156 0.0
C4190 C 0.66539 0.55743 0.50794 0.0
C4191 C 0.69471 0.52539 0.4931 0.0
C4192 C 0.71152 0.53143 0.50291 0.0
C4193 C 0.69086 0.51045 0.47727 0.0
C4194 C 0.67304 0.50345 0.46675 0.0
C4195 C 0.66415 0.51622 0.46004 0.0
C4196 C 0.64685 0.50982 0.45172 0.0
C4197 C 0.63837 0.4906 0.44968 0.0
C4198 C 0.64721 0.47771 0.45581 0.0
C4199 C 0.66445 0.48407 0.46434 0.0
H4200 H 0.62497 0.48568 0.44323 0.0
H4201 H 0.78453 0.54083 0.54478 0.0
H4202 H 0.22942 0.11643 0.49828 0.0
H4203 H 0.20065 0.09685 0.50049 0.0
H4204 H 0.17679 0.13729 0.47732 0.0
H4205 H 0.20547 0.15714 0.47558 0.0
H4206 H 0.16093 0.12729 0.50543 0.0
H4207 H 0.17712 0.09264 0.451 0.0
H4208 H 0.19577 0.07622 0.43269 0.0
H4209 H 0.19313 0.03609 0.47079 0.0
H4210 H 0.17465 0.05243 0.48948 0.0
H4211 H 0.07488 0.06664 0.49043 0.0
H4212 H 0.1028 0.0868 0.48602 0.0
H4213 H 0.12955 0.04896 0.50998 0.0
H4214 H 0.1017 0.0287 0.51403 0.0
H4215 H 0.14329 0.05804 0.48001 0.0
H4216 H 0.12796 0.09391 0.53509 0.0
H4217 H 0.10957 0.11081 0.55332 0.0
H4218 H 0.11005 0.14854 0.513 0.0
H4219 H 0.12833 0.13175 0.49441 0.0
C4220 C 0.21805 0.1211 0.49353 0.0
C4221 C 0.21982 0.13837 0.4867 0.0
C4222 C 0.20155 0.10983 0.49474 0.0
C4223 C 0.1864 0.1154 0.48887 0.0
C4224 C 0.18819 0.13261 0.48198 0.0
C4225 C 0.20466 0.14394 0.48092 0.0
C4226 C 0.16874 0.10355 0.49026 0.0
C4227 C 0.15702 0.1122 0.4996 0.0
C4228 C 0.16356 0.08376 0.48296 0.0
C4229 C 0.17464 0.07387 0.47173 0.0
C4230 C 0.18062 0.0804 0.45555 0.0
C4231 C 0.19114 0.07109 0.44509 0.0
C4232 C 0.19567 0.05515 0.4506 0.0
C4233 C 0.18964 0.04846 0.46655 0.0
C4234 C 0.17913 0.05772 0.47707 0.0
C4235 C 0.08674 0.06272 0.49482 0.0
C4236 C 0.08611 0.04613 0.50264 0.0
C4237 C 0.10273 0.07427 0.49236 0.0
C4238 C 0.11842 0.06958 0.49784 0.0
C4239 C 0.11771 0.05294 0.50558 0.0
C4240 C 0.10176 0.04137 0.50795 0.0
C4241 C 0.13561 0.08173 0.49538 0.0
C4242 C 0.14721 0.07314 0.48578 0.0
C4243 C 0.14063 0.10159 0.50234 0.0
C4244 C 0.12945 0.11152 0.51333 0.0
C4245 C 0.12405 0.10573 0.53004 0.0
C4246 C 0.11368 0.1153 0.54045 0.0
C4247 C 0.10873 0.13078 0.53437 0.0
C4248 C 0.11397 0.1366 0.51773 0.0
C4249 C 0.12435 0.12707 0.50727 0.0
H4250 H 0.10093 0.13833 0.54261 0.0
H4251 H 0.20381 0.04796 0.44248 0.0
H4252 H 0.16907 0.93251 0.76297 0.0
H4253 H 0.18555 0.90841 0.76251 0.0
H4254 H 0.2328 0.952 0.78036 0.0
H4255 H 0.21605 0.97671 0.78048 0.0
H4256 H 0.24114 0.9248 0.75696 0.0
H4257 H 0.21045 0.91918 0.81045 0.0
H4258 H 0.18522 0.91565 0.82821 0.0
H4259 H 0.16109 0.86223 0.79201 0.0
H4260 H 0.18609 0.86556 0.77387 0.0
H4261 H 0.28938 0.85482 0.77546 0.0
H4262 H 0.2749 0.88108 0.77723 0.0
H4263 H 0.22539 0.84087 0.76073 0.0
H4264 H 0.23989 0.8145 0.75934 0.0
H4265 H 0.21926 0.8674 0.78473 0.0
H4266 H 0.24982 0.87359 0.73073 0.0
H4267 H 0.27527 0.87719 0.71328 0.0
H4268 H 0.29992 0.92954 0.75097 0.0
H4269 H 0.2747 0.92614 0.76879 0.0
C4270 C 0.18298 0.93735 0.76693 0.0
C4271 C 0.1908 0.95719 0.7719 0.0
C4272 C 0.19259 0.92315 0.76679 0.0
C4273 C 0.21081 0.92763 0.77183 0.0
C4274 C 0.21887 0.9475 0.77648 0.0
C4275 C 0.20914 0.96189 0.7766 0.0
C4276 C 0.22096 0.91161 0.77201 0.0
C4277 C 0.23634 0.91247 0.76337 0.0
C4278 C 0.21513 0.89477 0.77985 0.0
C4279 C 0.20007 0.89272 0.79069 0.0
C4280 C 0.19971 0.90675 0.80619 0.0
C4281 C 0.18546 0.90477 0.81634 0.0
C4282 C 0.17154 0.88875 0.81121 0.0
C4283 C 0.17187 0.87465 0.79595 0.0
C4284 C 0.18608 0.87656 0.78574 0.0
C4285 C 0.2754 0.85137 0.77206 0.0
C4286 C 0.26614 0.83198 0.76704 0.0
C4287 C 0.26695 0.86671 0.77296 0.0
C4288 C 0.24867 0.86372 0.76875 0.0
C4289 C 0.23938 0.84429 0.76403 0.0
C4290 C 0.24784 0.82893 0.76314 0.0
C4291 C 0.23933 0.88046 0.7695 0.0
C4292 C 0.22407 0.87973 0.77833 0.0
C4293 C 0.24531 0.89741 0.76187 0.0
C4294 C 0.26046 0.89951 0.7512 0.0
C4295 C 0.26073 0.88581 0.73537 0.0
C4296 C 0.2751 0.88782 0.7254 0.0
C4297 C 0.28922 0.90355 0.73105 0.0
C4298 C 0.28898 0.91734 0.74664 0.0
C4299 C 0.27465 0.91539 0.75666 0.0
H4300 H 0.30034 0.90509 0.72331 0.0
H4301 H 0.16052 0.88725 0.81909 0.0
H4302 H 0.34349 0.97491 0.05767 0.0
H4303 H 0.37496 0.98094 0.06634 0.0
H4304 H 0.38127 0.9674 0.00737 0.0
H4305 H 0.35001 0.96132 0.99859 0.0
H4306 H 0.39751 0.94766 0.03026 0.0
H4307 H 0.39327 0.01347 0.0302 0.0
H4308 H 0.38283 0.04202 0.0411 0.0
H4309 H 0.40285 0.04192 0.09853 0.0
H4310 H 0.41315 0.01319 0.08797 0.0
H4311 H 0.48294 0.9812 0.01544 0.0
H4312 H 0.45195 0.97334 0.01734 0.0
H4313 H 0.46158 0.9967 0.07712 0.0
H4314 H 0.4928 1.00516 0.07524 0.0
H4315 H 0.437 0.00948 0.06096 0.0
H4316 H 0.4462 0.94803 0.06105 0.0
H4317 H 0.45737 0.91979 0.05124 0.0
H4318 H 0.42795 0.91033 0.99619 0.0
H4319 H 0.41679 0.93867 0.00555 0.0
C4320 C 0.35161 0.97343 0.04654 0.0
C4321 C 0.34423 0.96754 0.02744 0.0
C4322 C 0.36957 0.9769 0.05153 0.0
C4323 C 0.38039 0.97455 0.03749 0.0
C4324 C 0.3731 0.96918 0.01842 0.0
C4325 C 0.35523 0.96578 0.01343 0.0
C4326 C 0.39925 0.97682 0.04245 0.0
C4327 C 0.4062 0.96118 0.03689 0.0
C4328 C 0.41041 0.99418 0.05199 0.0
C4329 C 0.40386 0.01115 0.05833 0.0
C4330 C 0.39529 0.01945 0.04517 0.0
C4331 C 0.38942 0.03567 0.05128 0.0
C4332 C 0.39213 0.04375 0.0705 0.0
C4333 C 0.4007 0.03561 0.08366 0.0
C4334 C 0.40656 0.01938 0.07762 0.0
C4335 C 0.47855 0.98442 0.02909 0.0
C4336 C 0.49038 0.9938 0.04519 0.0
C4337 C 0.46078 0.97981 0.03018 0.0
C4338 C 0.45442 0.98417 0.04744 0.0
C4339 C 0.4662 0.99311 0.06368 0.0
C4340 C 0.48404 0.99785 0.06258 0.0
C4341 C 0.43541 0.98052 0.04796 0.0
C4342 C 0.42838 0.99581 0.05466 0.0
C4343 C 0.42412 0.96272 0.03972 0.0
C4344 C 0.43071 0.94555 0.034 0.0
C4345 C 0.44219 0.94 0.04681 0.0
C4346 C 0.44851 0.92396 0.04134 0.0
C4347 C 0.44339 0.91329 0.0231 0.0
C4348 C 0.4319 0.91861 0.01031 0.0
C4349 C 0.42555 0.93464 0.01571 0.0
H4350 H 0.44831 0.90088 0.01888 0.0
H4351 H 0.38763 0.05633 0.0752 0.0
H4352 H 0.87162 0.59036 0.77959 0.0
H4353 H 0.8542 0.60623 0.76098 0.0
H4354 H 0.89866 0.65321 0.76393 0.0
H4355 H 0.9164 0.63731 0.7825 0.0
H4356 H 0.86769 0.66406 0.76997 0.0
H4357 H 0.88821 0.62414 0.72394 0.0
H4358 H 0.89507 0.59449 0.70935 0.0
H4359 H 0.84098 0.5658 0.70131 0.0
H4360 H 0.83381 0.59521 0.71613 0.0
H4361 H 0.81479 0.69868 0.7081 0.0
H4362 H 0.83965 0.68499 0.71345 0.0
H4363 H 0.80563 0.63403 0.72421 0.0
H4364 H 0.78068 0.6477 0.71914 0.0
H4365 H 0.83675 0.62889 0.70734 0.0
H4366 H 0.8172 0.66798 0.75752 0.0
H4367 H 0.81069 0.69722 0.77357 0.0
H4368 H 0.86389 0.72738 0.77581 0.0
H4369 H 0.8706 0.69838 0.75928 0.0
C4370 C 0.87771 0.60416 0.77651 0.0
C4371 C 0.89545 0.6125 0.7824 0.0
C4372 C 0.86776 0.61313 0.76571 0.0
C4373 C 0.8753 0.63061 0.76069 0.0
C4374 C 0.89272 0.63956 0.76743 0.0
C4375 C 0.90278 0.6305 0.77812 0.0
C4376 C 0.86473 0.6394 0.74845 0.0
C4377 C 0.86126 0.65668 0.75605 0.0
C4378 C 0.8563 0.62957 0.73039 0.0
C4379 C 0.86049 0.61187 0.72125 0.0
C4380 C 0.87778 0.61148 0.71917 0.0
C4381 C 0.88173 0.59472 0.71085 0.0
C4382 C 0.86847 0.57826 0.70443 0.0
C4383 C 0.85124 0.57856 0.70629 0.0
C4384 C 0.84722 0.59528 0.71462 0.0
C4385 C 0.81247 0.68434 0.71104 0.0
C4386 C 0.79589 0.6747 0.71425 0.0
C4387 C 0.82672 0.67655 0.71406 0.0
C4388 C 0.82445 0.65885 0.71987 0.0
C4389 C 0.80761 0.64789 0.72004 0.0
C4390 C 0.79339 0.65579 0.71729 0.0
C4391 C 0.83935 0.65329 0.72911 0.0
C4392 C 0.84358 0.63659 0.72098 0.0
C4393 C 0.84848 0.66368 0.74675 0.0
C4394 C 0.84429 0.68115 0.75652 0.0
C4395 C 0.82744 0.68093 0.76101 0.0
C4396 C 0.82373 0.69743 0.77035 0.0
C4397 C 0.83686 0.71416 0.77568 0.0
C4398 C 0.85372 0.71441 0.77166 0.0
C4399 C 0.85745 0.69797 0.76222 0.0
H4400 H 0.83397 0.72692 0.78293 0.0
H4401 H 0.87156 0.56529 0.698 0.0
H4402 H 0.83692 0.66724 0.97716 0.0
H4403 H 0.86028 0.65093 0.98 0.0
H4404 H 0.82869 0.61001 0.00768 0.0
H4405 H 0.80516 0.62647 0.00505 0.0
H4406 H 0.86169 0.62147 0.02559 0.0
H4407 H 0.83516 0.59831 0.96146 0.0
H4408 H 0.82367 0.6008 0.92919 0.0
H4409 H 0.87407 0.63199 0.92081 0.0
H4410 H 0.88581 0.62991 0.95314 0.0
H4411 H 0.91599 0.55609 0.01778 0.0
H4412 H 0.89182 0.57141 0.01582 0.0
H4413 H 0.92077 0.6124 0.98615 0.0
H4414 H 0.94506 0.59716 0.98811 0.0
H4415 H 0.88837 0.59998 0.96927 0.0
H4416 H 0.91482 0.62387 0.03345 0.0
H4417 H 0.92644 0.62175 0.06579 0.0
H4418 H 0.87643 0.58954 0.07414 0.0
H4419 H 0.86456 0.59125 0.04174 0.0
C4420 C 0.83484 0.65474 0.98382 0.0
C4421 C 0.81905 0.64816 0.9908 0.0
C4422 C 0.84826 0.64536 0.98537 0.0
C4423 C 0.84625 0.62905 0.99385 0.0
C4424 C 0.83057 0.62252 1.00103 0.0
C4425 C 0.81709 0.63191 0.99945 0.0
C4426 C 0.86061 0.61901 0.9953 0.0
C4427 C 0.86733 0.6165 0.01322 0.0
C4428 C 0.86833 0.61289 0.97927 0.0
C4429 C 0.86133 0.6141 0.95979 0.0
C4430 C 0.84376 0.60583 0.95279 0.0
C4431 C 0.83721 0.60714 0.93448 0.0
C4432 C 0.84812 0.61659 0.92297 0.0
C4433 C 0.86563 0.62469 0.92974 0.0
C4434 C 0.87224 0.62344 0.94805 0.0
C4435 C 0.91737 0.56854 0.01108 0.0
C4436 C 0.93261 0.57539 1.00319 0.0
C4437 C 0.90346 0.57729 0.00993 0.0
C4438 C 0.90444 0.59325 1.00101 0.0
C4439 C 0.91961 0.60011 0.99309 0.0
C4440 C 0.93352 0.59133 0.99419 0.0
C4441 C 0.88955 0.60253 0.99958 0.0
C4442 C 0.88271 0.6049 0.98164 0.0
C4443 C 0.88175 0.60854 0.0156 0.0
C4444 C 0.88885 0.60752 0.0351 0.0
C4445 C 0.90633 0.6162 0.04213 0.0
C4446 C 0.91296 0.6151 0.06048 0.0
C4447 C 0.90219 0.60547 0.072 0.0
C4448 C 0.88476 0.59697 0.0652 0.0
C4449 C 0.87807 0.59801 0.04684 0.0
H4450 H 0.90735 0.60464 0.0862 0.0
H4451 H 0.84302 0.61759 0.9088 0.0
H4452 H 0.18334 0.08047 0.78141 0.0
H4453 H 0.1967 0.11439 0.78155 0.0
H4454 H 0.24222 0.09939 0.76239 0.0
H4455 H 0.22898 0.06583 0.76202 0.0
H4456 H 0.25229 0.13062 0.78925 0.0
H4457 H 0.21084 0.11198 0.7328 0.0
H4458 H 0.18168 0.0994 0.71475 0.0
H4459 H 0.16372 0.14433 0.746 0.0
H4460 H 0.19274 0.15698 0.76453 0.0
H4461 H 0.29763 0.21366 0.76042 0.0
H4462 H 0.28079 0.18186 0.76178 0.0
H4463 H 0.23659 0.20434 0.77332 0.0
H4464 H 0.25353 0.23655 0.77119 0.0
H4465 H 0.22413 0.17043 0.75286 0.0
H4466 H 0.26471 0.18982 0.80889 0.0
H4467 H 0.29325 0.20245 0.8284 0.0
H4468 H 0.31193 0.15652 0.80014 0.0
H4469 H 0.28357 0.14374 0.78028 0.0
C4470 C 0.19624 0.08436 0.77734 0.0
C4471 C 0.20492 0.06999 0.77173 0.0
C4472 C 0.20391 0.10393 0.77728 0.0
C4473 C 0.22065 0.10995 0.77182 0.0
C4474 C 0.22939 0.0956 0.76668 0.0
C4475 C 0.22168 0.07615 0.76646 0.0
C4476 C 0.22925 0.1309 0.77142 0.0
C4477 C 0.24609 0.13916 0.7811 0.0
C4478 C 0.22131 0.14279 0.76139 0.0
C4479 C 0.20391 0.13529 0.75021 0.0
C4480 C 0.20064 0.11908 0.73594 0.0
C4481 C 0.18413 0.11196 0.7256 0.0
C4482 C 0.17083 0.12103 0.72923 0.0
C4483 C 0.17402 0.13729 0.74321 0.0
C4484 C 0.1905 0.14444 0.75365 0.0
C4485 C 0.28429 0.212 0.76319 0.0
C4486 C 0.27717 0.22806 0.76575 0.0
C4487 C 0.27458 0.19355 0.76417 0.0
C4488 C 0.25727 0.19014 0.76826 0.0
C4489 C 0.24986 0.20613 0.7703 0.0
C4490 C 0.25962 0.22473 0.76906 0.0
C4491 C 0.24735 0.17007 0.77047 0.0
C4492 C 0.2303 0.16197 0.76113 0.0
C4493 C 0.25499 0.15833 0.78105 0.0
C4494 C 0.27205 0.16591 0.79299 0.0
C4495 C 0.27494 0.18248 0.80676 0.0
C4496 C 0.29108 0.18965 0.81788 0.0
C4497 C 0.30441 0.18032 0.81548 0.0
C4498 C 0.3016 0.16375 0.80197 0.0
C4499 C 0.28549 0.15652 0.79079 0.0
H4500 H 0.31689 0.1859 0.82411 0.0
H4501 H 0.15806 0.11549 0.72119 0.0
H4502 H 0.37315 1.0012 0.32106 0.0
H4503 H 0.35943 0.96719 0.31589 0.0
H4504 H 0.34951 0.96677 0.25586 0.0
H4505 H 0.36281 1.00093 0.26097 0.0
H4506 H 0.32233 0.94534 0.26778 0.0
H4507 H 0.38388 0.95147 0.27445 0.0
H4508 H 0.41406 0.96364 0.29005 0.0
H4509 H 0.40031 0.93873 0.33858 0.0
H4510 H 0.36998 0.92663 0.32337 0.0
H4511 H 0.30883 0.84533 0.23807 0.0
H4512 H 0.32001 0.87984 0.24307 0.0
H4513 H 0.32829 0.88147 0.30343 0.0
H4514 H 0.31737 0.84697 0.29861 0.0
H4515 H 0.35615 0.90222 0.29096 0.0
H4516 H 0.29434 0.89575 0.28355 0.0
H4517 H 0.26442 0.88334 0.26726 0.0
H4518 H 0.27907 0.90854 0.21915 0.0
H4519 H 0.30915 0.92087 0.23505 0.0
C4520 C 0.36798 0.9939 0.30677 0.0
C4521 C 0.36919 1.0037 0.2914 0.0
C4522 C 0.36019 0.97446 0.30383 0.0
C4523 C 0.35374 0.9644 0.28545 0.0
C4524 C 0.35446 0.97426 0.27015 0.0
C4525 C 0.3621 0.99376 0.27309 0.0
C4526 C 0.34667 0.94352 0.28215 0.0
C4527 C 0.32979 0.93588 0.27264 0.0
C4528 C 0.35633 0.93124 0.28876 0.0
C4529 C 0.37462 0.9383 0.29784 0.0
C4530 C 0.38727 0.94869 0.2885 0.0
C4531 C 0.4044 0.95556 0.29726 0.0
C4532 C 0.40909 0.952 0.31531 0.0
C4533 C 0.39665 0.9415 0.32461 0.0
C4534 C 0.37949 0.93461 0.31592 0.0
C4535 C 0.31297 0.85302 0.25242 0.0
C4536 C 0.3122 0.84339 0.26795 0.0
C4537 C 0.31929 0.87275 0.25525 0.0
C4538 C 0.32482 0.88319 0.27363 0.0
C4539 C 0.32407 0.87364 0.28913 0.0
C4540 C 0.31777 0.85392 0.28634 0.0
C4541 C 0.33179 0.90406 0.27671 0.0
C4542 C 0.34868 0.91169 0.28613 0.0
C4543 C 0.32217 0.91629 0.26992 0.0
C4544 C 0.30404 0.90909 0.26043 0.0
C4545 C 0.29121 0.89853 0.26944 0.0
C4546 C 0.27422 0.89153 0.26029 0.0
C4547 C 0.26986 0.89511 0.24216 0.0
C4548 C 0.28247 0.90576 0.23318 0.0
C4549 C 0.29949 0.91278 0.24227 0.0
H4550 H 0.2567 0.88967 0.23509 0.0
H4551 H 0.42235 0.95736 0.32209 0.0
H4552 H 0.56738 0.33817 0.56373 0.0
H4553 H 0.56528 0.36749 0.55238 0.0
H4554 H 0.57442 0.39766 0.60996 0.0
H4555 H 0.57655 0.36822 0.62147 0.0
H4556 H 0.54821 0.40735 0.58999 0.0
H4557 H 0.60614 0.4041 0.58108 0.0
H4558 H 0.62915 0.38937 0.5699 0.0
H4559 H 0.6061 0.3829 0.51227 0.0
H4560 H 0.5828 0.39736 0.52312 0.0
H4561 H 0.58133 0.4964 0.54243 0.0
H4562 H 0.58668 0.46904 0.55589 0.0
H4563 H 0.53278 0.43982 0.54006 0.0
H4564 H 0.52733 0.46699 0.52669 0.0
H4565 H 0.58367 0.43181 0.54176 0.0
H4566 H 0.51908 0.41343 0.57358 0.0
H4567 H 0.49755 0.42977 0.58621 0.0
H4568 H 0.53676 0.48226 0.60119 0.0
H4569 H 0.55857 0.46618 0.58893 0.0
C4570 C 0.56905 0.35102 0.57406 0.0
C4571 C 0.57221 0.35069 0.59359 0.0
C4572 C 0.56789 0.36789 0.56749 0.0
C4573 C 0.56981 0.38502 0.58022 0.0
C4574 C 0.57289 0.38474 0.59976 0.0
C4575 C 0.5742 0.36786 0.60635 0.0
C4576 C 0.56836 0.40301 0.57308 0.0
C4577 C 0.55598 0.41264 0.57944 0.0
C4578 C 0.57864 0.41033 0.55951 0.0
C4579 C 0.59264 0.40166 0.55293 0.0
C4580 C 0.6059 0.3994 0.56603 0.0
C4581 C 0.61901 0.39112 0.55975 0.0
C4582 C 0.61907 0.38516 0.54039 0.0
C4583 C 0.60603 0.38751 0.52726 0.0
C4584 C 0.59288 0.39576 0.53347 0.0
C4585 C 0.57061 0.48413 0.54171 0.0
C4586 C 0.55386 0.48409 0.53344 0.0
C4587 C 0.5737 0.46841 0.54942 0.0
C4588 C 0.56012 0.45229 0.54929 0.0
C4589 C 0.54349 0.45209 0.54068 0.0
C4590 C 0.54041 0.4677 0.5329 0.0
C4591 C 0.56319 0.43581 0.55827 0.0
C4592 C 0.57588 0.42649 0.55228 0.0
C4593 C 0.55334 0.4289 0.57234 0.0
C4594 C 0.54041 0.43861 0.58016 0.0
C4595 C 0.52312 0.42843 0.57966 0.0
C4596 C 0.51087 0.43765 0.58674 0.0
C4597 C 0.51577 0.45705 0.59444 0.0
C4598 C 0.53296 0.46725 0.59517 0.0
C4599 C 0.54527 0.45809 0.58814 0.0
H4600 H 0.50626 0.46417 0.59987 0.0
H4601 H 0.62923 0.37876 0.53556 0.0
H4602 H 0.43566 0.73594 0.38487 0.0
H4603 H 0.41095 0.74131 0.36567 0.0
H4604 H 0.44592 0.77627 0.33552 0.0
H4605 H 0.47082 0.77112 0.35492 0.0
H4606 H 0.42018 0.79286 0.34447 0.0
H4607 H 0.42266 0.73009 0.31542 0.0
H4608 H 0.42342 0.69651 0.31468 0.0
H4609 H 0.37413 0.68532 0.33583 0.0
H4610 H 0.37318 0.7189 0.33693 0.0
H4611 H 0.35967 0.79713 0.26753 0.0
H4612 H 0.38359 0.79179 0.28809 0.0
H4613 H 0.34687 0.75552 0.31545 0.0
H4614 H 0.32288 0.76048 0.29432 0.0
H4615 H 0.37291 0.73957 0.3089 0.0
H4616 H 0.36959 0.80136 0.33751 0.0
H4617 H 0.36826 0.83483 0.33886 0.0
H4618 H 0.41838 0.84798 0.31979 0.0
H4619 H 0.41991 0.8145 0.31805 0.0
C4620 C 0.43818 0.7447 0.3741 0.0
C4621 C 0.45536 0.753 0.37147 0.0
C4622 C 0.42394 0.74771 0.36302 0.0
C4623 C 0.4264 0.75905 0.34889 0.0
C4624 C 0.44355 0.76743 0.34626 0.0
C4625 C 0.45783 0.76438 0.35733 0.0
C4626 C 0.41114 0.76239 0.33711 0.0
C4627 C 0.41 0.78118 0.33648 0.0
C4628 C 0.39741 0.74725 0.32711 0.0
C4629 C 0.39794 0.72705 0.32643 0.0
C4630 C 0.41205 0.7205 0.32005 0.0
C4631 C 0.4125 0.70146 0.31954 0.0
C4632 C 0.39885 0.6888 0.32525 0.0
C4633 C 0.3847 0.69515 0.33144 0.0
C4634 C 0.38419 0.71418 0.33199 0.0
C4635 C 0.35666 0.7881 0.278 0.0
C4636 C 0.33931 0.77937 0.27941 0.0
C4637 C 0.3704 0.78511 0.28987 0.0
C4638 C 0.36721 0.77343 0.30364 0.0
C4639 C 0.34982 0.76466 0.30506 0.0
C4640 C 0.33605 0.76763 0.2931 0.0
C4641 C 0.38203 0.77006 0.31611 0.0
C4642 C 0.38308 0.75127 0.3169 0.0
C4643 C 0.39561 0.7852 0.32638 0.0
C4644 C 0.39479 0.80537 0.32749 0.0
C4645 C 0.38028 0.81135 0.33347 0.0
C4646 C 0.37949 0.83033 0.33432 0.0
C4647 C 0.39321 0.84351 0.32937 0.0
C4648 C 0.40776 0.83775 0.3236 0.0
C4649 C 0.4086 0.81877 0.32269 0.0
H4650 H 0.39258 0.8582 0.33005 0.0
H4651 H 0.39923 0.67407 0.32485 0.0
H4652 H 0.03066 0.74291 0.08799 0.0
H4653 H 0.02854 0.70973 0.07454 0.0
H4654 H 0.08345 0.71776 0.09099 0.0
H4655 H 0.08575 0.75124 0.10418 0.0
H4656 H 0.07406 0.69608 0.05675 0.0
H4657 H 0.05275 0.69538 0.11675 0.0
H4658 H 0.03455 0.70297 0.14132 0.0
H4659 H 0.98857 0.67323 0.10336 0.0
H4660 H 0.00649 0.66568 0.07845 0.0
H4661 H 0.07153 0.59677 0.04653 0.0
H4662 H 0.07518 0.63057 0.05905 0.0
H4663 H 0.02079 0.6253 0.04205 0.0
H4664 H 0.01698 0.59147 0.02964 0.0
H4665 H 0.03065 0.64556 0.07719 0.0
H4666 H 0.05222 0.64661 0.01709 0.0
H4667 H 0.07061 0.63914 0.99268 0.0
H4668 H 0.1164 0.66812 0.03129 0.0
H4669 H 0.09827 0.67554 0.05603 0.0
C4670 C 0.04235 0.73771 0.08869 0.0
C4671 C 0.05837 0.74982 0.09731 0.0
C4672 C 0.04109 0.71862 0.08106 0.0
C4673 C 0.05576 0.711 0.08203 0.0
C4674 C 0.0719 0.72319 0.09011 0.0
C4675 C 0.07319 0.74237 0.09768 0.0
C4676 C 0.05415 0.69031 0.07486 0.0
C4677 C 0.06473 0.68505 0.06145 0.0
C4678 C 0.04178 0.67577 0.08066 0.0
C4679 C 0.03097 0.68012 0.09567 0.0
C4680 C 0.03876 0.69056 0.11359 0.0
C4681 C 0.02849 0.69484 0.12759 0.0
C4682 C 0.01042 0.68863 0.12389 0.0
C4683 C 1.00257 0.67805 0.1062 0.0
C4684 C 0.01278 0.67376 0.09214 0.0
C4685 C 0.06033 0.60276 0.0454 0.0
C4686 C 0.04395 0.59128 0.03701 0.0
C4687 C 0.06246 0.62218 0.05252 0.0
C4688 C 0.0483 0.63065 0.05138 0.0
C4689 C 0.03193 0.61918 0.04312 0.0
C4690 C 0.02979 0.59979 0.03596 0.0
C4691 C 0.05046 0.65135 0.05898 0.0
C4692 C 0.03999 0.6566 0.07252 0.0
C4693 C 0.06297 0.66584 0.05335 0.0
C4694 C 0.07389 0.66146 0.03848 0.0
C4695 C 0.06621 0.65126 0.02043 0.0
C4696 C 0.07659 0.64706 0.00652 0.0
C4697 C 0.09466 0.6531 0.01045 0.0
C4698 C 0.10239 0.66342 0.02828 0.0
C4699 C 0.09208 0.66764 0.04224 0.0
H4700 H 0.10267 0.64984 0.99966 0.0
H4701 H 1.00249 0.69197 0.13474 0.0
H4702 H 0.05104 0.27733 0.86421 0.0
H4703 H 0.0778 0.28306 0.84931 0.0
H4704 H 0.09177 0.23573 0.87046 0.0
H4705 H 0.06524 0.22999 0.88538 0.0
H4706 H 0.11939 0.26583 0.87597 0.0
H4707 H 0.07585 0.23211 0.82385 0.0
H4708 H 0.04856 0.22644 0.80239 0.0
H4709 H 0.06642 0.28031 0.78496 0.0
H4710 H 0.09375 0.28642 0.80652 0.0
H4711 H 0.1862 0.25214 0.82007 0.0
H4712 H 0.1596 0.24843 0.83509 0.0
H4713 H 0.14692 0.29469 0.81069 0.0
H4714 H 0.17317 0.29807 0.79513 0.0
H4715 H 0.11878 0.26658 0.80713 0.0
H4716 H 0.16253 0.30021 0.85816 0.0
H4717 H 0.18985 0.30653 0.87972 0.0
H4718 H 0.17181 0.25397 0.89952 0.0
H4719 H 0.14446 0.2472 0.87787 0.0
C4720 C 0.05977 0.2681 0.86563 0.0
C4721 C 0.05587 0.25315 0.87598 0.0
C4722 C 0.07509 0.27136 0.85706 0.0
C4723 C 0.08685 0.25976 0.85863 0.0
C4724 C 0.08299 0.24492 0.86903 0.0
C4725 C 0.0677 0.2416 0.8775 0.0
C4726 C 0.10321 0.26301 0.84955 0.0
C4727 C 0.11922 0.26577 0.86088 0.0
C4728 C 0.10316 0.26347 0.82993 0.0
C4729 C 0.08676 0.25981 0.81695 0.0
C4730 C 0.0739 0.24282 0.81556 0.0
C4731 C 0.05843 0.23951 0.80335 0.0
C4732 C 0.05573 0.25303 0.79236 0.0
C4733 C 0.06852 0.26986 0.79351 0.0
C4734 C 0.084 0.27325 0.80571 0.0
C4735 C 0.17773 0.26148 0.81779 0.0
C4736 C 0.18198 0.27548 0.80639 0.0
C4737 C 0.16255 0.25946 0.82657 0.0
C4738 C 0.15125 0.27142 0.82427 0.0
C4739 C 0.1554 0.28531 0.8128 0.0
C4740 C 0.17056 0.28735 0.80404 0.0
C4741 C 0.13498 0.26927 0.83352 0.0
C4742 C 0.11899 0.26671 0.82224 0.0
C4743 C 0.13506 0.2691 0.85321 0.0
C4744 C 0.1515 0.27311 0.86625 0.0
C4745 C 0.16444 0.28992 0.86699 0.0
C4746 C 0.17993 0.2936 0.87925 0.0
C4747 C 0.18259 0.28064 0.89095 0.0
C4748 C 0.16974 0.26399 0.89043 0.0
C4749 C 0.15424 0.26023 0.87818 0.0
H4750 H 0.19458 0.28351 0.90043 0.0
H4751 H 0.04375 0.25044 0.78292 0.0
H4752 H 0.57613 0.75724 0.90758 0.0
H4753 H 0.57496 0.73356 0.92812 0.0
H4754 H 0.62905 0.7573 0.9497 0.0
H4755 H 0.63046 0.78093 0.92867 0.0
H4756 H 0.62145 0.71899 0.94467 0.0
H4757 H 0.59851 0.76742 0.9762 0.0
H4758 H 0.58064 0.79083 0.9799 0.0
H4759 H 0.53422 0.74569 0.96618 0.0
H4760 H 0.55181 0.722 0.96211 0.0
H4761 H 0.60436 0.65991 0.01647 0.0
H4762 H 0.61331 0.68834 1.00204 0.0
H4763 H 0.56343 0.67408 0.9676 0.0
H4764 H 0.55426 0.64613 0.98223 0.0
H4765 H 0.57374 0.71189 0.9848 0.0
H4766 H 0.59885 0.6642 0.94975 0.0
H4767 H 0.61787 0.64185 0.94797 0.0
H4768 H 0.66202 0.68771 0.97163 0.0
H4769 H 0.64321 0.7103 0.97381 0.0
C4770 C 0.58782 0.75742 0.91661 0.0
C4771 C 0.60334 0.77109 0.91665 0.0
C4772 C 0.58712 0.74391 0.92841 0.0
C4773 C 0.60182 0.74395 0.94076 0.0
C4774 C 0.61753 0.75712 0.94037 0.0
C4775 C 0.6183 0.7706 0.92838 0.0
C4776 C 0.6004 0.73037 0.95421 0.0
C4777 C 0.61124 0.71766 0.95373 0.0
C4778 C 0.58719 0.72875 0.96618 0.0
C4779 C 0.5765 0.74293 0.96875 0.0
C4780 C 0.58449 0.76248 0.97385 0.0
C4781 C 0.57441 0.77581 0.97603 0.0
C4782 C 0.5563 0.76975 0.97325 0.0
C4783 C 0.54825 0.75036 0.96833 0.0
C4784 C 0.55827 0.73697 0.96612 0.0
C4785 C 0.5953 0.66294 0.0059 0.0
C4786 C 0.57863 0.65077 1.0004 0.0
C4787 C 0.60047 0.67906 0.9976 0.0
C4788 C 0.58906 0.68318 0.98369 0.0
C4789 C 0.57242 0.67112 0.9783 0.0
C4790 C 0.56726 0.65506 0.98654 0.0
C4791 C 0.5942 0.70001 0.97453 0.0
C4792 C 0.58412 0.71343 0.97596 0.0
C4793 C 0.60829 0.70244 0.96377 0.0
C4794 C 0.6196 0.6889 0.96209 0.0
C4795 C 0.6126 0.6695 0.95466 0.0
C4796 C 0.62334 0.65679 0.95356 0.0
C4797 C 0.64114 0.66336 0.95967 0.0
C4798 C 0.64824 0.68265 0.96687 0.0
C4799 C 0.63754 0.69541 0.96804 0.0
H4800 H 0.64942 0.65349 0.95885 0.0
H4801 H 0.54852 0.78009 0.97494 0.0
H4802 H 0.03559 0.77688 0.70371 0.0
H4803 H 0.06544 0.78224 0.71888 0.0
H4804 H 0.06119 0.72168 0.70833 0.0
H4805 H 0.03121 0.71621 0.69385 0.0
H4806 H 0.08045 0.73648 0.74054 0.0
H4807 H 0.07829 0.75093 0.67749 0.0
H4808 H 0.06982 0.76714 0.65177 0.0
H4809 H 0.09674 0.82131 0.68497 0.0
H4810 H 0.10515 0.80541 0.71101 0.0
H4811 H 0.17332 0.7543 0.71196 0.0
H4812 H 0.14266 0.75403 0.7056 0.0
H4813 H 0.14042 0.76742 0.76568 0.0
H4814 H 0.17108 0.76708 0.77209 0.0
H4815 H 0.12433 0.77841 0.71107 0.0
H4816 H 0.10028 0.74663 0.77546 0.0
H4817 H 0.10843 0.72623 0.79735 0.0
H4818 H 0.13396 0.69961 0.75486 0.0
H4819 H 0.12577 0.71966 0.73265 0.0
C4820 C 0.04093 0.7647 0.70495 0.0
C4821 C 0.03115 0.74614 0.69741 0.0
C4822 C 0.05799 0.76779 0.71356 0.0
C4823 C 0.06567 0.75239 0.71437 0.0
C4824 C 0.05556 0.73379 0.70784 0.0
C4825 C 0.03843 0.73068 0.69951 0.0
C4826 C 0.08453 0.75561 0.72048 0.0
C4827 C 0.09005 0.74577 0.73423 0.0
C4828 C 0.09708 0.76743 0.71196 0.0
C4829 C 0.09218 0.77701 0.69627 0.0
C4830 C 0.0823 0.76631 0.67934 0.0
C4831 C 0.07753 0.77543 0.66471 0.0
C4832 C 0.0827 0.79525 0.66675 0.0
C4833 C 0.09271 0.80597 0.68342 0.0
C4834 C 0.09749 0.79691 0.69812 0.0
C4835 C 0.16632 0.75737 0.72379 0.0
C4836 C 0.1745 0.76065 0.74251 0.0
C4837 C 0.1488 0.75722 0.72016 0.0
C4838 C 0.13916 0.7605 0.73516 0.0
C4839 C 0.14749 0.76448 0.75389 0.0
C4840 C 0.16499 0.76433 0.75754 0.0
C4841 C 0.12029 0.75911 0.73101 0.0
C4842 C 0.11476 0.76935 0.71764 0.0
C4843 C 0.10774 0.74708 0.73934 0.0
C4844 C 0.1126 0.73481 0.75251 0.0
C4845 C 0.1076 0.73639 0.77079 0.0
C4846 C 0.11223 0.72489 0.78325 0.0
C4847 C 0.12177 0.71169 0.77753 0.0
C4848 C 0.12663 0.70989 0.7593 0.0
C4849 C 0.12202 0.72133 0.74678 0.0
H4850 H 0.12535 0.70281 0.7872 0.0
H4851 H 0.07899 0.80229 0.65541 0.0
H4852 H 0.09553 0.36448 0.42346 0.0
H4853 H 0.09101 0.39321 0.44216 0.0
H4854 H 0.07314 0.41104 0.39101 0.0
H4855 H 0.07796 0.38245 0.3721 0.0
H4856 H 0.09298 0.44111 0.41613 0.0
H4857 H 0.044 0.38987 0.41635 0.0
H4858 H 0.02875 0.35765 0.42014 0.0
H4859 H 0.05004 0.36959 0.47889 0.0
H4860 H 0.06563 0.40181 0.47538 0.0
H4861 H 0.03617 0.48591 0.48429 0.0
H4862 H 0.04036 0.46021 0.46059 0.0
H4863 H 0.09582 0.47914 0.47662 0.0
H4864 H 0.09168 0.50505 0.5002 0.0
H4865 H 0.05442 0.43114 0.466 0.0
H4866 H 0.11548 0.47131 0.43703 0.0
H4867 H 0.1279 0.5039 0.43173 0.0
H4868 H 0.077 0.51445 0.42651 0.0
H4869 H 0.06426 0.48193 0.43149 0.0
C4870 C 0.09076 0.37457 0.41616 0.0
C4871 C 0.08692 0.3711 0.39632 0.0
C4872 C 0.08817 0.39097 0.42687 0.0
C4873 C 0.08149 0.40409 0.41797 0.0
C4874 C 0.07828 0.40106 0.39813 0.0
C4875 C 0.08097 0.38468 0.38737 0.0
C4876 C 0.07699 0.42037 0.42951 0.0
C4877 C 0.08456 0.43896 0.42702 0.0
C4878 C 0.06557 0.41751 0.44333 0.0
C4879 C 0.05609 0.3982 0.44556 0.0
C4880 C 0.04552 0.38558 0.43005 0.0
C4881 C 0.0368 0.36733 0.43215 0.0
C4882 C 0.03845 0.36156 0.44974 0.0
C4883 C 0.04879 0.37407 0.46527 0.0
C4884 C 0.05755 0.39234 0.46324 0.0
C4885 C 0.04925 0.48466 0.48261 0.0
C4886 C 0.06362 0.4974 0.49396 0.0
C4887 C 0.05162 0.46997 0.46916 0.0
C4888 C 0.06839 0.46789 0.4668 0.0
C4889 C 0.08278 0.48067 0.47809 0.0
C4890 C 0.08041 0.49534 0.49161 0.0
C4891 C 0.07082 0.45188 0.45302 0.0
C4892 C 0.06282 0.43331 0.45507 0.0
C4893 C 0.08141 0.45481 0.43848 0.0
C4894 C 0.08895 0.47421 0.43481 0.0
C4895 C 0.10693 0.48054 0.43462 0.0
C4896 C 0.11403 0.49903 0.4317 0.0
C4897 C 0.10326 0.51126 0.42885 0.0
C4898 C 0.08535 0.50501 0.42879 0.0
C4899 C 0.07819 0.48656 0.43168 0.0
H4900 H 0.10877 0.52556 0.42667 0.0
H4901 H 0.0317 0.34742 0.45134 0.0
H4902 H 0.45044 0.26108 0.18916 0.0
H4903 H 0.42638 0.26054 0.20781 0.0
H4904 H 0.42087 0.20061 0.20791 0.0
H4905 H 0.44515 0.201 0.18916 0.0
H4906 H 0.38927 0.21043 0.19863 0.0
H4907 H 0.43661 0.22872 0.24783 0.0
H4908 H 0.46553 0.24643 0.26412 0.0
H4909 H 0.44964 0.29892 0.26701 0.0
H4910 H 0.4207 0.28157 0.25048 0.0
H4911 H 0.32186 0.22787 0.25387 0.0
H4912 H 0.34728 0.21627 0.2456 0.0
H4913 H 0.37433 0.27337 0.24172 0.0
H4914 H 0.34947 0.28508 0.25053 0.0
H4915 H 0.3956 0.25646 0.25838 0.0
H4916 H 0.35085 0.2385 0.20305 0.0
H4917 H 0.32228 0.22107 0.18559 0.0
H4918 H 0.33365 0.16793 0.19337 0.0
H4919 H 0.36211 0.18509 0.21135 0.0
C4920 C 0.44419 0.24777 0.19317 0.0
C4921 C 0.44972 0.23109 0.18771 0.0
C4922 C 0.43049 0.24751 0.20392 0.0
C4923 C 0.42202 0.23058 0.20941 0.0
C4924 C 0.42735 0.21382 0.20389 0.0
C4925 C 0.44122 0.2141 0.19323 0.0
C4926 C 0.40723 0.23064 0.2204 0.0
C4927 C 0.39063 0.22011 0.21196 0.0
C4928 C 0.40911 0.24328 0.23775 0.0
C4929 C 0.42647 0.25382 0.24785 0.0
C4930 C 0.4393 0.24405 0.25184 0.0
C4931 C 0.45571 0.25403 0.26113 0.0
C4932 C 0.45943 0.27379 0.26659 0.0
C4933 C 0.44674 0.28361 0.26279 0.0
C4934 C 0.43031 0.2737 0.25349 0.0
C4935 C 0.33331 0.23792 0.25137 0.0
C4936 C 0.33366 0.25737 0.25273 0.0
C4937 C 0.34777 0.23126 0.24663 0.0
C4938 C 0.36261 0.24389 0.24281 0.0
C4939 C 0.36306 0.26335 0.24467 0.0
C4940 C 0.34879 0.27003 0.24965 0.0
C4941 C 0.37753 0.23717 0.23601 0.0
C4942 C 0.39421 0.24635 0.24534 0.0
C4943 C 0.37569 0.22334 0.21944 0.0
C4944 C 0.35851 0.21309 0.20877 0.0
C4945 C 0.34718 0.22311 0.20121 0.0
C4946 C 0.33102 0.21328 0.1912 0.0
C4947 C 0.32616 0.19341 0.18838 0.0
C4948 C 0.33745 0.18332 0.19556 0.0
C4949 C 0.35357 0.1931 0.20573 0.0
H4950 H 0.31363 0.18582 0.18065 0.0
H4951 H 0.47213 0.28149 0.27377 0.0
H4952 H 0.65535 0.51021 0.34218 0.0
H4953 H 0.64324 0.51175 0.37256 0.0
H4954 H 0.59934 0.52829 0.34686 0.0
H4955 H 0.61151 0.52729 0.31708 0.0
H4956 H 0.60526 0.54785 0.37901 0.0
H4957 H 0.59794 0.47863 0.36424 0.0
H4958 H 0.60878 0.44981 0.35586 0.0
H4959 H 0.6486 0.46908 0.4037 0.0
H4960 H 0.63815 0.49817 0.41198 0.0
H4961 H 0.54481 0.53067 0.44555 0.0
H4962 H 0.56184 0.53052 0.41904 0.0
H4963 H 0.6039 0.51987 0.45431 0.0
H4964 H 0.58652 0.51989 0.48111 0.0
H4965 H 0.60196 0.49859 0.4197 0.0
H4966 H 0.60677 0.56505 0.43697 0.0
H4967 H 0.59798 0.59514 0.44499 0.0
H4968 H 0.56454 0.5826 0.39208 0.0
H4969 H 0.57328 0.55247 0.38368 0.0
C4970 C 0.64307 0.51407 0.34289 0.0
C4971 C 0.63466 0.51856 0.32655 0.0
C4972 C 0.63591 0.51483 0.36052 0.0
C4973 C 0.61988 0.51994 0.36272 0.0
C4974 C 0.61161 0.52435 0.34633 0.0
C4975 C 0.61873 0.52367 0.32891 0.0
C4976 C 0.61176 0.52132 0.38169 0.0
C4977 C 0.60439 0.53676 0.38757 0.0
C4978 C 0.61081 0.50763 0.39402 0.0
C4979 C 0.61717 0.49036 0.3889 0.0
C4980 C 0.609 0.47667 0.37294 0.0
C4981 C 0.6151 0.46033 0.36816 0.0
C4982 C 0.62933 0.45757 0.37928 0.0
C4983 C 0.63752 0.47117 0.39515 0.0
C4984 C 0.63148 0.48753 0.39994 0.0
C4985 C 0.55786 0.52876 0.448 0.0
C4986 C 0.5642 0.52601 0.46617 0.0
C4987 C 0.56777 0.52864 0.43254 0.0
C4988 C 0.58467 0.52546 0.43404 0.0
C4989 C 0.59111 0.52256 0.45221 0.0
C4990 C 0.58117 0.52292 0.4679 0.0
C4991 C 0.59499 0.52485 0.41662 0.0
C4992 C 0.60277 0.5096 0.41107 0.0
C4993 C 0.59638 0.53878 0.40454 0.0
C4994 C 0.59054 0.55644 0.40979 0.0
C4995 C 0.59741 0.56863 0.42713 0.0
C4996 C 0.59249 0.58573 0.43171 0.0
C4997 C 0.58064 0.59075 0.41909 0.0
C4998 C 0.5737 0.57868 0.40185 0.0
C4999 C 0.57869 0.56163 0.39714 0.0
H5000 H 0.57687 0.60402 0.42261 0.0
H5001 H 0.63404 0.44492 0.37556 0.0
H5002 H 0.28538 0.92906 0.05325 0.0
H5003 H 0.28283 0.91008 0.07837 0.0
H5004 H 0.24432 0.86534 0.04143 0.0
H5005 H 0.2466 0.88445 0.01611 0.0
H5006 H 0.23807 0.87007 0.08029 0.0
H5007 H 0.28358 0.86129 0.04318 0.0
H5008 H 0.30922 0.872 0.02726 0.0
H5009 H 0.33856 0.90046 0.08084 0.0
H5010 H 0.31298 0.89019 0.09705 0.0
H5011 H 0.25621 0.79804 0.13224 0.0
H5012 H 0.2505 0.81627 0.10744 0.0
H5013 H 0.29075 0.86439 0.13679 0.0
H5014 H 0.29682 0.84619 0.16125 0.0
H5015 H 0.2943 0.85553 0.09976 0.0
H5016 H 0.24845 0.86449 0.13687 0.0
H5017 H 0.22274 0.85361 0.15265 0.0
H5018 H 0.19403 0.82404 0.09912 0.0
H5019 H 0.21966 0.83451 0.08304 0.0
C5020 C 0.27613 0.91533 0.05053 0.0
C5021 C 0.26639 0.9081 0.0326 0.0
C5022 C 0.27466 0.90453 0.06492 0.0
C5023 C 0.26361 0.8862 0.06161 0.0
C5024 C 0.25294 0.87945 0.0442 0.0
C5025 C 0.25431 0.89035 0.02976 0.0
C5026 C 0.26482 0.87353 0.07559 0.0
C5027 C 0.25027 0.86663 0.08441 0.0
C5028 C 0.28079 0.86919 0.08097 0.0
C5029 C 0.29631 0.8751 0.07131 0.0
C5030 C 0.29546 0.86994 0.05155 0.0
C5031 C 0.30999 0.87592 0.04248 0.0
C5032 C 0.3255 0.88694 0.05303 0.0
C5033 C 0.32653 0.89194 0.07269 0.0
C5034 C 0.31203 0.88603 0.08183 0.0
C5035 C 0.26381 0.81252 0.13338 0.0
C5036 C 0.27698 0.82069 0.14866 0.0
C5037 C 0.26043 0.82295 0.11932 0.0
C5038 C 0.27016 0.84169 0.12036 0.0
C5039 C 0.28308 0.84995 0.13576 0.0
C5040 C 0.28644 0.83958 0.14979 0.0
C5041 C 0.26769 0.85245 0.10492 0.0
C5042 C 0.28205 0.85887 0.09566 0.0
C5043 C 0.25153 0.85622 0.09916 0.0
C5044 C 0.23604 0.85012 0.10878 0.0
C5045 C 0.2367 0.85554 0.12848 0.0
C5046 C 0.22213 0.84947 0.13747 0.0
C5047 C 0.20678 0.83809 0.1269 0.0
C5048 C 0.20594 0.83283 0.10729 0.0
C5049 C 0.22048 0.83884 0.09823 0.0
H5050 H 0.19552 0.83339 0.1339 0.0
H5051 H 0.33673 0.89157 0.04598 0.0
H5052 H 0.93687 0.56975 0.85527 0.0
H5053 H 0.95619 0.56891 0.88343 0.0
H5054 H 0.99294 0.55254 0.84776 0.0
H5055 H 0.97338 0.55257 0.81968 0.0
H5056 H 0.98907 0.53101 0.87225 0.0
H5057 H 0.99997 0.59826 0.87574 0.0
H5058 H 0.99274 0.62934 0.87642 0.0
H5059 H 0.96936 0.62303 0.92726 0.0
H5060 H 0.97624 0.59178 0.92675 0.0
H5061 H 0.0516 0.57047 0.96755 0.0
H5062 H 0.03691 0.57589 0.93811 0.0
H5063 H 0.99747 0.5241 0.93582 0.0
H5064 H 0.01247 0.51826 0.9646 0.0
H5065 H 0.00593 0.58169 0.92926 0.0
H5066 H 0.98297 0.50276 0.89099 0.0
H5067 H 0.99298 0.4731 0.88873 0.0
H5068 H 0.04571 0.50548 0.90481 0.0
H5069 H 0.03608 0.53534 0.90683 0.0
C5070 C 0.94914 0.56614 0.8535 0.0
C5071 C 0.9536 0.56111 0.83532 0.0
C5072 C 0.96023 0.56576 0.86958 0.0
C5073 C 0.97612 0.56081 0.86774 0.0
C5074 C 0.98073 0.55631 0.84956 0.0
C5075 C 0.96955 0.55635 0.83352 0.0
C5076 C 0.98747 0.55916 0.88463 0.0
C5077 C 0.9928 0.54215 0.88467 0.0
C5078 C 0.99264 0.5738 0.90073 0.0
C5079 C 0.9885 0.5926 0.90111 0.0
C5080 C 0.99318 0.60344 0.88699 0.0
C5081 C 0.98916 0.6211 0.88736 0.0
C5082 C 0.98057 0.62814 0.90185 0.0
C5083 C 0.976 0.61755 0.91603 0.0
C5084 C 0.97998 0.59988 0.91572 0.0
C5085 C 0.03986 0.56022 0.96063 0.0
C5086 C 0.03307 0.54402 0.96833 0.0
C5087 C 0.03144 0.56337 0.94392 0.0
C5088 C 0.01618 0.55032 0.93468 0.0
C5089 C 0.00937 0.53421 0.94252 0.0
C5090 C 0.01786 0.53098 0.95905 0.0
C5091 C 0.00724 0.55346 0.9169 0.0
C5092 C 1.0023 0.57066 0.91674 0.0
C5093 C 1.00282 0.53921 0.90046 0.0
C5094 C 0.00877 0.5213 0.89922 0.0
C5095 C 0.99671 0.50356 0.89398 0.0
C5096 C 1.00232 0.4867 0.89275 0.0
C5097 C 0.01996 0.4874 0.89668 0.0
C5098 C 0.03204 0.50496 0.90183 0.0
C5099 C 0.02651 0.52185 0.90303 0.0
H5100 H 0.02428 0.47434 0.89566 0.0
H5101 H 0.97747 0.64181 0.90211 0.0
H5102 H 0.26104 0.19717 0.54386 0.0
H5103 H 0.25937 0.21191 0.57632 0.0
H5104 H 0.3143 0.2179 0.59063 0.0
H5105 H 0.31595 0.20281 0.55848 0.0
H5106 H 0.29824 0.20415 0.61705 0.0
H5107 H 0.29546 0.25659 0.58477 0.0
H5108 H 0.28382 0.27278 0.56072 0.0
H5109 H 0.2344 0.26213 0.58161 0.0
H5110 H 0.24568 0.24566 0.60564 0.0
H5111 H 0.31502 0.26637 0.70476 0.0
H5112 H 0.3136 0.25329 0.67133 0.0
H5113 H 0.25794 0.24476 0.66441 0.0
H5114 H 0.25922 0.25806 0.69804 0.0
H5115 H 0.2722 0.25878 0.63438 0.0
H5116 H 0.27563 0.20746 0.66751 0.0
H5117 H 0.28768 0.19194 0.6919 0.0
H5118 H 0.33635 0.20091 0.66934 0.0
H5119 H 0.32466 0.21675 0.64497 0.0
C5120 C 0.27281 0.20184 0.55385 0.0
C5121 C 0.28863 0.19876 0.54849 0.0
C5122 C 0.27184 0.21033 0.57246 0.0
C5123 C 0.28673 0.21618 0.58607 0.0
C5124 C 0.30259 0.21348 0.58054 0.0
C5125 C 0.30353 0.20489 0.56205 0.0
C5126 C 0.28582 0.22436 0.60624 0.0
C5127 C 0.29273 0.21626 0.62077 0.0
C5128 C 0.27816 0.2398 0.61129 0.0
C5129 C 0.27136 0.24971 0.59687 0.0
C5130 C 0.28207 0.25756 0.58414 0.0
C5131 C 0.27554 0.26682 0.57053 0.0
C5132 C 0.25836 0.26843 0.5696 0.0
C5133 C 0.24769 0.26084 0.58232 0.0
C5134 C 0.25415 0.25156 0.59595 0.0
C5135 C 0.30242 0.26178 0.69622 0.0
C5136 C 0.2872 0.26321 0.70427 0.0
C5137 C 0.30165 0.25422 0.67702 0.0
C5138 C 0.28565 0.24775 0.66531 0.0
C5139 C 0.27045 0.24958 0.67313 0.0
C5140 C 0.2712 0.25715 0.69241 0.0
C5141 C 0.28492 0.23877 0.64506 0.0
C5142 C 0.27765 0.24665 0.63058 0.0
C5143 C 0.2923 0.22314 0.64 0.0
C5144 C 0.29931 0.21343 0.65451 0.0
C5145 C 0.28894 0.20624 0.66783 0.0
C5146 C 0.2957 0.19737 0.68164 0.0
C5147 C 0.31278 0.19547 0.68219 0.0
C5148 C 0.32312 0.2024 0.6689 0.0
C5149 C 0.31643 0.21131 0.65507 0.0
H5150 H 0.318 0.18861 0.6929 0.0
H5151 H 0.25334 0.27561 0.55905 0.0
H5152 H 0.654 0.54616 0.21344 0.0
H5153 H 0.63626 0.54537 0.18385 0.0
H5154 H 0.60675 0.48914 0.18677 0.0
H5155 H 0.62472 0.48992 0.21699 0.0
H5156 H 0.61371 0.49154 0.14936 0.0
H5157 H 0.58922 0.52855 0.19506 0.0
H5158 H 0.58949 0.55421 0.2216 0.0
H5159 H 0.6116 0.5961 0.18913 0.0
H5160 H 0.61168 0.57067 0.16248 0.0
H5161 H 0.55284 0.49294 0.06886 0.0
H5162 H 0.56723 0.49036 0.09962 0.0
H5163 H 0.59164 0.55036 0.10935 0.0
H5164 H 0.57662 0.55307 0.07903 0.0
H5165 H 0.58578 0.54431 0.14127 0.0
H5166 H 0.61263 0.5085 0.09673 0.0
H5167 H 0.61375 0.48356 0.07005 0.0
H5168 H 0.58894 0.44041 0.09974 0.0
H5169 H 0.58751 0.46511 0.12652 0.0
C5170 C 0.6437 0.53352 0.20805 0.0
C5171 C 0.64104 0.51814 0.21817 0.0
C5172 C 0.63337 0.53314 0.19085 0.0
C5173 C 0.61976 0.51728 0.18256 0.0
C5174 C 0.61702 0.50171 0.19249 0.0
C5175 C 0.62731 0.5022 0.21004 0.0
C5176 C 0.60876 0.51732 0.16372 0.0
C5177 C 0.60737 0.50295 0.1478 0.0
C5178 C 0.60067 0.53236 0.16087 0.0
C5179 C 0.60059 0.54769 0.17683 0.0
C5180 C 0.59425 0.54323 0.19363 0.0
C5181 C 0.59433 0.55773 0.20868 0.0
C5182 C 0.60059 0.57677 0.20707 0.0
C5183 C 0.60676 0.58134 0.19037 0.0
C5184 C 0.60674 0.56689 0.17527 0.0
C5185 C 0.56126 0.50566 0.07748 0.0
C5186 C 0.56337 0.52325 0.07098 0.0
C5187 C 0.56978 0.50414 0.09528 0.0
C5188 C 0.58119 0.52005 0.10736 0.0
C5189 C 0.58313 0.53764 0.10085 0.0
C5190 C 0.57444 0.5392 0.0832 0.0
C5191 C 0.59083 0.51862 0.12664 0.0
C5192 C 0.59203 0.5328 0.14272 0.0
C5193 C 0.59891 0.50352 0.12954 0.0
C5194 C 0.5998 0.48866 0.11353 0.0
C5195 C 0.60732 0.49369 0.09751 0.0
C5196 C 0.60802 0.47961 0.08238 0.0
C5197 C 0.60137 0.46042 0.08318 0.0
C5198 C 0.59406 0.45528 0.09913 0.0
C5199 C 0.59331 0.46931 0.1143 0.0
H5200 H 0.60192 0.44953 0.07145 0.0
H5201 H 0.60064 0.58798 0.21874 0.0
H5202 H 0.28715 0.86911 0.97028 0.0
H5203 H 0.28683 0.84658 0.94146 0.0
H5204 H 0.29756 0.89305 0.91036 0.0
H5205 H 0.29707 0.9155 0.93892 0.0
H5206 H 0.27513 0.86557 0.88953 0.0
H5207 H 0.3295 0.87007 0.92643 0.0
H5208 H 0.34905 0.86895 0.95461 0.0
H5209 H 0.32417 0.80999 0.95192 0.0
H5210 H 0.30431 0.81083 0.92385 0.0
H5211 H 0.30444 0.82196 0.81061 0.0
H5212 H 0.30643 0.8411 0.84183 0.0
H5213 H 0.2835 0.79077 0.86362 0.0
H5214 H 0.28169 0.7713 0.83221 0.0
H5215 H 0.31113 0.81838 0.88927 0.0
H5216 H 0.25752 0.81536 0.8499 0.0
H5217 H 0.24112 0.81792 0.82003 0.0
H5218 H 0.26815 0.87667 0.8262 0.0
H5219 H 0.28492 0.8744 0.85599 0.0
C5220 C 0.28939 0.87449 0.95727 0.0
C5221 C 0.2922 0.89406 0.95685 0.0
C5222 C 0.28931 0.86162 0.94083 0.0
C5223 C 0.2925 0.86812 0.92378 0.0
C5224 C 0.29508 0.88766 0.92332 0.0
C5225 C 0.29483 0.90049 0.93966 0.0
C5226 C 0.29311 0.85465 0.90638 0.0
C5227 C 0.28314 0.8554 0.88951 0.0
C5228 C 0.30337 0.84113 0.9063 0.0
C5229 C 0.31529 0.84057 0.92317 0.0
C5230 C 0.32811 0.85691 0.93194 0.0
C5231 C 0.33926 0.85632 0.94787 0.0
C5232 C 0.33782 0.83943 0.95509 0.0
C5233 C 0.32525 0.82307 0.94634 0.0
C5234 C 0.31405 0.82359 0.93041 0.0
C5235 C 0.3002 0.81485 0.82212 0.0
C5236 C 0.29278 0.79517 0.81899 0.0
C5237 C 0.30129 0.82584 0.83993 0.0
C5238 C 0.29483 0.81736 0.85487 0.0
C5239 C 0.28848 0.79753 0.85217 0.0
C5240 C 0.28743 0.78646 0.83428 0.0
C5241 C 0.29332 0.82954 0.87264 0.0
C5242 C 0.30306 0.8285 0.88948 0.0
C5243 C 0.28315 0.84307 0.87263 0.0
C5244 C 0.27254 0.84467 0.85514 0.0
C5245 C 0.26001 0.82882 0.84487 0.0
C5246 C 0.25065 0.83021 0.82794 0.0
C5247 C 0.25361 0.84744 0.82121 0.0
C5248 C 0.26588 0.86334 0.83144 0.0
C5249 C 0.27529 0.86201 0.84836 0.0
H5250 H 0.24637 0.84849 0.8081 0.0
H5251 H 0.34646 0.839 0.96742 0.0
H5252 H 0.93045 0.56108 0.73774 0.0
H5253 H 0.94597 0.55606 0.71053 0.0
H5254 H 0.99416 0.58752 0.74433 0.0
H5255 H 0.97865 0.59286 0.77174 0.0
H5256 H 0.99111 0.59567 0.70795 0.0
H5257 H 0.98424 0.54037 0.73797 0.0
H5258 H 0.96751 0.5139 0.75129 0.0
H5259 H 0.93711 0.49074 0.69704 0.0
H5260 H 0.95349 0.51725 0.68345 0.0
H5261 H 0.0489 0.56356 0.65118 0.0
H5262 H 0.03302 0.56787 0.67828 0.0
H5263 H 0.98512 0.53704 0.6435 0.0
H5264 H 1.00103 0.53216 0.61636 0.0
H5265 H 0.98771 0.52846 0.68004 0.0
H5266 H 0.99518 0.58305 0.64964 0.0
H5267 H 0.01272 0.60864 0.63594 0.0
H5268 H 0.04165 0.63338 0.69065 0.0
H5269 H 0.02473 0.60747 0.70458 0.0
C5270 C 0.94433 0.5671 0.73939 0.0
C5271 C 0.95339 0.57717 0.75695 0.0
C5272 C 0.95316 0.56418 0.72382 0.0
C5273 C 0.97121 0.57113 0.72557 0.0
C5274 C 0.98021 0.58199 0.74279 0.0
C5275 C 0.97135 0.58499 0.75841 0.0
C5276 C 0.98074 0.56624 0.70966 0.0
C5277 C 0.99055 0.58101 0.70198 0.0
C5278 C 0.97964 0.54706 0.70168 0.0
C5279 C 0.96999 0.5309 0.70974 0.0
C5280 C 0.97391 0.5297 0.72891 0.0
C5281 C 0.9645 0.51469 0.7365 0.0
C5282 C 0.95122 0.50068 0.72503 0.0
C5283 C 0.94738 0.50162 0.70591 0.0
C5284 C 0.95673 0.51663 0.69825 0.0
C5285 C 0.03505 0.55732 0.64939 0.0
C5286 C 0.02617 0.54765 0.63164 0.0
C5287 C 0.026 0.5599 0.66484 0.0
C5288 C 0.00792 0.55301 0.66274 0.0
C5289 C 0.99909 0.54253 0.64531 0.0
C5290 C 0.00815 0.53991 0.62982 0.0
C5291 C 0.99815 0.55789 0.67842 0.0
C5292 C 0.98826 0.54313 0.68602 0.0
C5293 C 0.99914 0.57707 0.68628 0.0
C5294 C 0.00881 0.59317 0.67812 0.0
C5295 C 0.00538 0.59385 0.65874 0.0
C5296 C 0.01525 0.60838 0.65091 0.0
C5297 C 0.02833 0.6226 0.66241 0.0
C5298 C 0.03154 0.62232 0.68176 0.0
C5299 C 0.02185 0.60768 0.68962 0.0
H5300 H 0.03593 0.63388 0.65633 0.0
H5301 H 0.94393 0.48907 0.73095 0.0
H5302 H 0.27804 0.22925 0.45848 0.0
H5303 H 0.27891 0.24009 0.42805 0.0
H5304 H 0.27857 0.18358 0.40033 0.0
H5305 H 0.27788 0.17261 0.43093 0.0
H5306 H 0.30129 0.21002 0.38638 0.0
H5307 H 0.24189 0.20011 0.39656 0.0
H5308 H 0.2172 0.203 0.41412 0.0
H5309 H 0.23102 0.26365 0.4174 0.0
H5310 H 0.25595 0.26116 0.40008 0.0
H5311 H 0.288 0.23805 0.29543 0.0
H5312 H 0.28433 0.22081 0.32219 0.0
H5313 H 0.28028 0.2721 0.35787 0.0
H5314 H 0.28324 0.28897 0.33118 0.0
H5315 H 0.25776 0.2441 0.36558 0.0
H5316 H 0.31918 0.25395 0.35867 0.0
H5317 H 0.34318 0.25096 0.33997 0.0
H5318 H 0.32472 0.1901 0.32952 0.0
H5319 H 0.30061 0.19274 0.34817 0.0
C5320 C 0.27815 0.21906 0.44596 0.0
C5321 C 0.27778 0.19998 0.44726 0.0
C5322 C 0.27858 0.2253 0.42848 0.0
C5323 C 0.27856 0.21264 0.41171 0.0
C5324 C 0.27854 0.19366 0.41298 0.0
C5325 C 0.27808 0.18737 0.43051 0.0
C5326 C 0.27842 0.21935 0.39299 0.0
C5327 C 0.29161 0.21722 0.38172 0.0
C5328 C 0.2659 0.22889 0.38679 0.0
C5329 C 0.25088 0.23046 0.39715 0.0
C5330 C 0.23974 0.21408 0.40115 0.0
C5331 C 0.22569 0.21564 0.41104 0.0
C5332 C 0.22256 0.2335 0.41691 0.0
C5333 C 0.23346 0.24983 0.41286 0.0
C5334 C 0.24755 0.24835 0.40298 0.0
C5335 C 0.28622 0.24555 0.30897 0.0
C5336 C 0.28601 0.26491 0.31118 0.0
C5337 C 0.28425 0.23574 0.32435 0.0
C5338 C 0.2823 0.24516 0.34232 0.0
C5339 C 0.28176 0.26439 0.34429 0.0
C5340 C 0.28353 0.27409 0.32896 0.0
C5341 C 0.28095 0.23536 0.35925 0.0
C5342 C 0.26741 0.23683 0.37017 0.0
C5343 C 0.29312 0.22522 0.36509 0.0
C5344 C 0.30804 0.22355 0.35466 0.0
C5345 C 0.32027 0.23994 0.3524 0.0
C5346 C 0.33389 0.2383 0.34183 0.0
C5347 C 0.33545 0.22036 0.33354 0.0
C5348 C 0.32351 0.20398 0.33598 0.0
C5349 C 0.30989 0.20554 0.34659 0.0
H5350 H 0.3459 0.21916 0.3252 0.0
H5351 H 0.21167 0.23468 0.42456 0.0
H5352 H 0.30961 0.57816 0.53469 0.0
H5353 H 0.32739 0.55492 0.53255 0.0
H5354 H 0.37371 0.60045 0.54888 0.0
H5355 H 0.35608 0.6237 0.55136 0.0
H5356 H 0.35004 0.55173 0.50857 0.0
H5357 H 0.40558 0.58561 0.57088 0.0
H5358 H 0.4091 0.6029 0.60368 0.0
H5359 H 0.35581 0.57772 0.60813 0.0
H5360 H 0.35203 0.56007 0.57545 0.0
H5361 H 0.43092 0.53664 0.49062 0.0
H5362 H 0.40598 0.54864 0.49907 0.0
H5363 H 0.39986 0.51411 0.54275 0.0
H5364 H 0.42485 0.50184 0.53411 0.0
H5365 H 0.39883 0.55016 0.55584 0.0
H5366 H 0.37051 0.50234 0.50338 0.0
H5367 H 0.3664 0.48401 0.47096 0.0
H5368 H 0.36329 0.53414 0.44798 0.0
H5369 H 0.36763 0.55285 0.48025 0.0
C5370 C 0.32357 0.5832 0.53814 0.0
C5371 C 0.33145 0.60278 0.54311 0.0
C5372 C 0.33369 0.5699 0.53688 0.0
C5373 C 0.35185 0.57594 0.54067 0.0
C5374 C 0.3597 0.59543 0.54622 0.0
C5375 C 0.3496 0.60873 0.54752 0.0
C5376 C 0.36274 0.56217 0.53717 0.0
C5377 C 0.36059 0.55121 0.51898 0.0
C5378 C 0.37628 0.56122 0.55087 0.0
C5379 C 0.3785 0.57159 0.57065 0.0
C5380 C 0.39464 0.58367 0.57889 0.0
C5381 C 0.39667 0.59355 0.59746 0.0
C5382 C 0.38268 0.59144 0.60797 0.0
C5383 C 0.36663 0.57939 0.59995 0.0
C5384 C 0.36453 0.56946 0.58139 0.0
C5385 C 0.42407 0.53132 0.50179 0.0
C5386 C 0.4298 0.51832 0.51176 0.0
C5387 C 0.40983 0.5382 0.50661 0.0
C5388 C 0.40096 0.5321 0.5214 0.0
C5389 C 0.40653 0.51896 0.53128 0.0
C5390 C 0.42082 0.51206 0.52643 0.0
C5391 C 0.38651 0.54038 0.52705 0.0
C5392 C 0.38804 0.55035 0.5456 0.0
C5393 C 0.37226 0.54024 0.51375 0.0
C5394 C 0.36947 0.52901 0.49427 0.0
C5395 C 0.36905 0.50948 0.49142 0.0
C5396 C 0.36666 0.49902 0.47306 0.0
C5397 C 0.3646 0.50791 0.45742 0.0
C5398 C 0.36488 0.52727 0.46011 0.0
C5399 C 0.36727 0.5378 0.47844 0.0
H5400 H 0.36276 0.49979 0.44322 0.0
H5401 H 0.38428 0.59912 0.62234 0.0
H5402 H 0.87689 0.90843 0.55803 0.0
H5403 H 0.90539 0.92737 0.55451 0.0
H5404 H 0.88141 0.96766 0.53125 0.0
H5405 H 0.85266 0.94834 0.5342 0.0
H5406 H 0.90585 0.96096 0.51122 0.0
H5407 H 0.9036 0.97613 0.57831 0.0
H5408 H 0.90006 0.96936 0.61047 0.0
H5409 H 0.94243 0.94213 0.6093 0.0
H5410 H 0.94607 0.94848 0.57702 0.0
H5411 H 0.98066 0.03648 0.51928 0.0
H5412 H 0.95275 0.01616 0.52304 0.0
H5413 H 0.97897 0.97573 0.54255 0.0
H5414 H 0.00707 0.9963 0.53909 0.0
H5415 H 0.95404 0.98152 0.56428 0.0
H5416 H 0.95702 0.96665 0.49813 0.0
H5417 H 0.96134 0.97344 0.46615 0.0
H5418 H 0.91821 0.99954 0.46547 0.0
H5419 H 0.9138 0.99317 0.49761 0.0
C5420 C 0.87761 0.92138 0.55226 0.0
C5421 C 0.86239 0.92687 0.54649 0.0
C5422 C 0.89402 0.93229 0.55034 0.0
C5423 C 0.89572 0.9492 0.54289 0.0
C5424 C 0.88053 0.95472 0.53709 0.0
C5425 C 0.86407 0.94369 0.53885 0.0
C5426 C 0.91327 0.96083 0.54073 0.0
C5427 C 0.91627 0.96568 0.52294 0.0
C5428 C 0.92721 0.9665 0.55577 0.0
C5429 C 0.92498 0.96261 0.57516 0.0
C5430 C 0.91207 0.96855 0.58484 0.0
C5431 C 0.91006 0.96481 0.60311 0.0
C5432 C 0.92098 0.95527 0.6119 0.0
C5433 C 0.93396 0.94948 0.60246 0.0
C5434 C 0.93601 0.95316 0.58419 0.0
C5435 C 0.9805 0.02326 0.52438 0.0
C5436 C 0.99606 0.01795 0.5288 0.0
C5437 C 0.9645 0.01159 0.52643 0.0
C5438 C 0.96365 0.99424 0.53287 0.0
C5439 C 0.97923 0.989 0.53752 0.0
C5440 C 0.99529 1.00071 0.53546 0.0
C5441 C 0.94648 0.98181 0.53489 0.0
C5442 C 0.94359 0.97678 0.5526 0.0
C5443 C 0.93267 0.97588 0.51977 0.0
C5444 C 0.93517 0.97958 0.50036 0.0
C5445 C 0.94853 0.97396 0.49123 0.0
C5446 C 0.95099 0.97772 0.47306 0.0
C5447 C 0.94008 0.98695 0.4638 0.0
C5448 C 0.92666 0.9924 0.47267 0.0
C5449 C 0.92417 0.98871 0.49086 0.0
H5450 H 0.94201 0.98986 0.44974 0.0
H5451 H 0.9194 0.9524 0.62604 0.0
H5452 H 0.87013 0.09315 0.25952 0.0
H5453 H 0.85366 0.11806 0.26176 0.0
H5454 H 0.90064 0.16048 0.26101 0.0
H5455 H 0.9169 0.13608 0.25919 0.0
H5456 H 0.8851 0.17765 0.28336 0.0
H5457 H 0.86243 0.14088 0.22152 0.0
H5458 H 0.84811 0.11206 0.19817 0.0
H5459 H 0.80252 0.10557 0.22645 0.0
H5460 H 0.81666 0.13425 0.25011 0.0
H5461 H 0.84667 0.25583 0.26914 0.0
H5462 H 0.86158 0.22996 0.2671 0.0
H5463 H 0.8127 0.18939 0.26474 0.0
H5464 H 0.7977 0.21526 0.26573 0.0
H5465 H 0.82864 0.17073 0.24478 0.0
H5466 H 0.8515 0.20767 0.30675 0.0
H5467 H 0.86598 0.23652 0.33002 0.0
H5468 H 0.91142 0.24276 0.30148 0.0
H5469 H 0.89715 0.214 0.27795 0.0
C5470 C 0.87703 0.10774 0.2598 0.0
C5471 C 0.89521 0.112 0.25909 0.0
C5472 C 0.86744 0.12227 0.26096 0.0
C5473 C 0.87546 0.14188 0.26138 0.0
C5474 C 0.89359 0.14595 0.26082 0.0
C5475 C 0.90307 0.13159 0.25967 0.0
C5476 C 0.86554 0.15818 0.26258 0.0
C5477 C 0.87284 0.17596 0.27464 0.0
C5478 C 0.84917 0.1568 0.25183 0.0
C5479 C 0.84067 0.13957 0.2377 0.0
C5480 C 0.8494 0.13322 0.22283 0.0
C5481 C 0.84131 0.11693 0.20953 0.0
C5482 C 0.82444 0.10696 0.21086 0.0
C5483 C 0.81561 0.11329 0.22547 0.0
C5484 C 0.82364 0.12956 0.23882 0.0
C5485 C 0.83896 0.24145 0.2683 0.0
C5486 C 0.82069 0.2382 0.26779 0.0
C5487 C 0.84768 0.22632 0.2673 0.0
C5488 C 0.83877 0.20694 0.26625 0.0
C5489 C 0.82045 0.20374 0.26559 0.0
C5490 C 0.8117 0.21885 0.26628 0.0
C5491 C 0.84821 0.19024 0.26555 0.0
C5492 C 0.84087 0.1724 0.25356 0.0
C5493 C 0.86457 0.19155 0.27639 0.0
C5494 C 0.8732 0.20878 0.29051 0.0
C5495 C 0.86455 0.21524 0.30539 0.0
C5496 C 0.87272 0.23156 0.31863 0.0
C5497 C 0.8896 0.24146 0.31721 0.0
C5498 C 0.89835 0.23506 0.30255 0.0
C5499 C 0.89023 0.21874 0.28928 0.0
H5500 H 0.89591 0.25404 0.32752 0.0
H5501 H 0.8182 0.09435 0.20055 0.0
H5502 H 0.72274 0.14571 0.02165 0.0
H5503 H 0.69253 0.12893 0.02086 0.0
H5504 H 0.70791 0.07635 0.02266 0.0
H5505 H 0.73837 0.09305 0.02324 0.0
H5506 H 0.67686 0.0718 0.99834 0.0
H5507 H 0.70202 0.10016 0.06254 0.0
H5508 H 0.71807 0.12649 0.08784 0.0
H5509 H 0.67987 0.15806 0.07761 0.0
H5510 H 0.66372 0.13201 0.05205 0.0
H5511 H 0.60417 0.04739 0.06259 0.0
H5512 H 0.63392 0.06152 0.05804 0.0
H5513 H 0.61601 0.06887 1.00182 0.0
H5514 H 0.58619 0.05416 0.0061 0.0
H5515 H 0.64879 0.09507 0.05287 0.0
H5516 H 0.64819 0.06693 0.97345 0.0
H5517 H 0.63272 0.03966 0.9488 0.0
H5518 H 0.62226 1.0048 0.99134 0.0
H5519 H 0.63795 0.03176 0.01622 0.0
C5520 C 0.71974 0.13054 0.02173 0.0
C5521 C 0.73296 0.12074 0.0228 0.0
C5522 C 0.70245 0.12098 0.02122 0.0
C5523 C 0.69807 0.10149 0.02194 0.0
C5524 C 0.7111 0.09143 0.0221 0.0
C5525 C 0.72846 0.10099 0.02255 0.0
C5526 C 0.6801 0.09211 0.02413 0.0
C5527 C 0.67066 0.07681 0.01024 0.0
C5528 C 0.67217 0.09862 0.03977 0.0
C5529 C 0.68175 0.11421 0.05528 0.0
C5530 C 0.69711 0.11277 0.0656 0.0
C5531 C 0.70621 0.12764 0.08 0.0
C5532 C 0.70001 0.14396 0.0843 0.0
C5533 C 0.68466 0.14542 0.07425 0.0
C5534 C 0.67552 0.1306 0.05982 0.0
C5535 C 0.60655 0.05207 0.04928 0.0
C5536 C 0.59289 0.04962 0.03467 0.0
C5537 C 0.62355 0.06012 0.04668 0.0
C5538 C 0.62722 0.06603 0.02951 0.0
C5539 C 0.61353 0.06402 0.01503 0.0
C5540 C 0.59651 0.0557 0.01753 0.0
C5541 C 0.64537 0.07464 0.02709 0.0
C5542 C 0.65488 0.08994 0.04093 0.0
C5543 C 0.65337 0.06789 0.01155 0.0
C5544 C 0.64415 0.05143 0.99671 0.0
C5545 C 0.64268 0.05342 0.97754 0.0
C5546 C 0.63386 0.03802 0.96353 0.0
C5547 C 0.62652 0.02052 0.96851 0.0
C5548 C 0.62796 0.01838 0.98752 0.0
C5549 C 0.63681 0.03372 1.00158 0.0
H5550 H 0.61978 0.0086 0.95764 0.0
H5551 H 0.70708 0.15545 0.09544 0.0
H5552 H 0.19696 0.48897 0.25681 0.0
H5553 H 0.2158 0.47056 0.2695 0.0
H5554 H 0.2164 0.44117 0.21306 0.0
H5555 H 0.19749 0.45964 0.20011 0.0
H5556 H 0.21096 0.41718 0.24073 0.0
H5557 H 0.24994 0.47528 0.23186 0.0
H5558 H 0.26067 0.51013 0.23585 0.0
H5559 H 0.2686 0.51394 0.29626 0.0
H5560 H 0.25766 0.47911 0.29263 0.0
H5561 H 0.2883 0.38512 0.2492 0.0
H5562 H 0.2676 0.40364 0.24119 0.0
H5563 H 0.26274 0.41858 0.30038 0.0
H5564 H 0.28356 0.39989 0.30858 0.0
H5565 H 0.2697 0.45008 0.27427 0.0
H5566 H 0.22482 0.39516 0.28415 0.0
H5567 H 0.21132 0.36093 0.28171 0.0
H5568 H 0.21519 0.35186 0.22208 0.0
H5569 H 0.22806 0.38625 0.22407 0.0
C5570 C 0.20102 0.47855 0.24706 0.0
C5571 C 0.19581 0.4758 0.22742 0.0
C5572 C 0.21181 0.4681 0.25435 0.0
C5573 C 0.21756 0.45471 0.24218 0.0
C5574 C 0.21208 0.45154 0.22263 0.0
C5575 C 0.20135 0.4621 0.21527 0.0
C5576 C 0.22951 0.44419 0.24988 0.0
C5577 C 0.22386 0.42437 0.24789 0.0
C5578 C 0.24608 0.4537 0.2598 0.0
C5579 C 0.25281 0.47461 0.26198 0.0
C5580 C 0.25383 0.48356 0.246 0.0
C5581 C 0.25998 0.50331 0.24819 0.0
C5582 C 0.26526 0.51425 0.2663 0.0
C5583 C 0.26447 0.50545 0.28224 0.0
C5584 C 0.25831 0.48571 0.28013 0.0
C5585 C 0.2831 0.39265 0.26055 0.0
C5586 C 0.2877 0.39138 0.27953 0.0
C5587 C 0.27115 0.403 0.25593 0.0
C5588 C 0.2637 0.41232 0.27022 0.0
C5589 C 0.26842 0.4114 0.28923 0.0
C5590 C 0.28027 0.40082 0.29387 0.0
C5591 C 0.25115 0.42316 0.26493 0.0
C5592 C 0.25673 0.44301 0.26726 0.0
C5593 C 0.23445 0.4138 0.25553 0.0
C5594 C 0.22749 0.39312 0.25428 0.0
C5595 C 0.22285 0.38581 0.27055 0.0
C5596 C 0.21521 0.36644 0.26923 0.0
C5597 C 0.21255 0.35419 0.2518 0.0
C5598 C 0.21731 0.36135 0.23559 0.0
C5599 C 0.22463 0.3808 0.23676 0.0
H5600 H 0.20675 0.33916 0.25085 0.0
H5601 H 0.27001 0.52954 0.26797 0.0
H5602 H 0.23451 0.39385 0.04227 0.0
H5603 H 0.21125 0.41041 0.04094 0.0
H5604 H 0.24659 0.45941 0.02806 0.0
H5605 H 0.27019 0.44294 0.02972 0.0
H5606 H 0.22629 0.47053 0.0528 0.0
H5607 H 0.2161 0.42819 0.99338 0.0
H5608 H 0.21194 0.39747 0.97196 0.0
H5609 H 0.16684 0.37419 0.99706 0.0
H5610 H 0.17087 0.4047 0.01882 0.0
H5611 H 0.15992 0.51475 0.0234 0.0
H5612 H 0.18417 0.49964 0.02497 0.0
H5613 H 0.15052 0.44917 0.0373 0.0
H5614 H 0.12591 0.46386 0.03483 0.0
H5615 H 0.17048 0.43942 0.01211 0.0
H5616 H 0.18134 0.48163 0.07206 0.0
H5617 H 0.18528 0.51248 0.0932 0.0
H5618 H 0.22935 0.5362 0.06673 0.0
H5619 H 0.2254 0.50553 0.04522 0.0
C5620 C 0.23742 0.40816 0.03915 0.0
C5621 C 0.25428 0.41698 0.03599 0.0
C5622 C 0.22401 0.41762 0.0383 0.0
C5623 C 0.22698 0.4361 0.03406 0.0
C5624 C 0.24389 0.44514 0.03127 0.0
C5625 C 0.25739 0.43568 0.03219 0.0
C5626 C 0.21239 0.44584 0.03255 0.0
C5627 C 0.21419 0.46383 0.04367 0.0
C5628 C 0.19638 0.43704 0.02095 0.0
C5629 C 0.19388 0.41869 0.00785 0.0
C5630 C 0.20537 0.41648 0.99443 0.0
C5631 C 0.20302 0.39911 0.98221 0.0
C5632 C 0.18916 0.38388 0.98318 0.0
C5633 C 0.17758 0.386 0.99634 0.0
C5634 C 0.17988 0.40333 0.00861 0.0
C5635 C 0.15752 0.50033 0.0262 0.0
C5636 C 0.14076 0.49055 0.02882 0.0
C5637 C 0.17156 0.49178 0.02738 0.0
C5638 C 0.16934 0.47327 0.03147 0.0
C5639 C 0.15265 0.46346 0.03414 0.0
C5640 C 0.13857 0.47198 0.03287 0.0
C5641 C 0.1843 0.46402 0.03251 0.0
C5642 C 0.18258 0.44613 0.02124 0.0
C5643 C 0.20038 0.47295 0.04392 0.0
C5644 C 0.20291 0.49136 0.0569 0.0
C5645 C 0.19174 0.49349 0.07065 0.0
C5646 C 0.194 0.51092 0.08272 0.0
C5647 C 0.20753 0.52632 0.08128 0.0
C5648 C 0.21885 0.52427 0.06781 0.0
C5649 C 0.2166 0.50686 0.05568 0.0
H5650 H 0.20928 0.53982 0.09063 0.0
H5651 H 0.18736 0.37044 0.97371 0.0
H5652 H 0.89041 0.99636 0.29355 0.0
H5653 H 0.87513 0.96322 0.29127 0.0
H5654 H 0.8639 0.9581 0.23082 0.0
H5655 H 0.87941 0.99181 0.23303 0.0
H5656 H 0.83512 0.93949 0.24553 0.0
H5657 H 0.89551 0.93822 0.25221 0.0
H5658 H 0.92586 0.94837 0.26756 0.0
H5659 H 0.90977 0.93112 0.31892 0.0
H5660 H 0.87928 0.92116 0.30398 0.0
H5661 H 0.80084 0.83898 0.23044 0.0
H5662 H 0.81757 0.87129 0.23026 0.0
H5663 H 0.84 0.87521 0.28796 0.0
H5664 H 0.82393 0.84221 0.28764 0.0
H5665 H 0.86353 0.89473 0.27395 0.0
H5666 H 0.80444 0.89828 0.27058 0.0
H5667 H 0.77326 0.89011 0.25835 0.0
H5668 H 0.78553 0.90485 0.2048 0.0
H5669 H 0.8168 0.9129 0.21664 0.0
C5670 C 0.88477 0.98838 0.27963 0.0
C5671 C 0.88639 0.99727 0.26347 0.0
C5672 C 0.87599 0.96909 0.27835 0.0
C5673 C 0.86831 0.95752 0.26085 0.0
C5674 C 0.86963 0.96634 0.24461 0.0
C5675 C 0.87862 0.98578 0.24586 0.0
C5676 C 0.85896 0.93651 0.25979 0.0
C5677 C 0.84151 0.92968 0.25145 0.0
C5678 C 0.86671 0.92343 0.26814 0.0
C5679 C 0.88508 0.92908 0.27701 0.0
C5680 C 0.89843 0.9367 0.26681 0.0
C5681 C 0.91566 0.94242 0.27544 0.0
C5682 C 0.91973 0.94045 0.29422 0.0
C5683 C 0.90659 0.93267 0.30438 0.0
C5684 C 0.88934 0.92697 0.29584 0.0
C5685 C 0.80942 0.84663 0.24311 0.0
C5686 C 0.81083 0.83767 0.25906 0.0
C5687 C 0.81894 0.86546 0.24311 0.0
C5688 C 0.82995 0.87663 0.25931 0.0
C5689 C 0.83169 0.86746 0.27516 0.0
C5690 C 0.8224 0.84838 0.27501 0.0
C5691 C 0.83956 0.89754 0.25963 0.0
C5692 C 0.85707 0.90442 0.2679 0.0
C5693 C 0.83173 0.91082 0.25162 0.0
C5694 C 0.81296 0.90599 0.24443 0.0
C5695 C 0.80049 0.89965 0.25615 0.0
C5696 C 0.7828 0.89506 0.2493 0.0
C5697 C 0.77742 0.89691 0.23079 0.0
C5698 C 0.78972 0.9034 0.21912 0.0
C5699 C 0.80742 0.90799 0.2259 0.0
H5700 H 0.76372 0.89335 0.22551 0.0
H5701 H 0.93308 0.94493 0.3009 0.0
H5702 H 0.65734 0.10223 0.74042 0.0
H5703 H 0.67435 0.13515 0.74378 0.0
H5704 H 0.72172 0.11629 0.7502 0.0
H5705 H 0.70494 0.08351 0.747 0.0
H5706 H 0.72217 0.14691 0.77696 0.0
H5707 H 0.70793 0.12735 0.7091 0.0
H5708 H 0.6883 0.11511 0.67913 0.0
H5709 H 0.66405 0.1617 0.68983 0.0
H5710 H 0.68338 0.17407 0.72003 0.0
H5711 H 0.77223 0.22783 0.73037 0.0
H5712 H 0.75211 0.19684 0.72825 0.0
H5713 H 0.73689 0.21564 0.78254 0.0
H5714 H 0.75756 0.24639 0.78508 0.0
H5715 H 0.71863 0.18585 0.72661 0.0
H5716 H 0.7252 0.17854 0.80487 0.0
H5717 H 0.74611 0.19073 0.83397 0.0
H5718 H 0.78842 0.19657 0.80066 0.0
H5719 H 0.76777 0.18426 0.77139 0.0
C5720 C 0.67138 0.1051 0.74247 0.0
C5721 C 0.6798 0.09028 0.74344 0.0
C5722 C 0.68105 0.12389 0.74437 0.0
C5723 C 0.69926 0.12809 0.74723 0.0
C5724 C 0.70767 0.11332 0.7481 0.0
C5725 C 0.69804 0.09458 0.74616 0.0
C5726 C 0.70971 0.14785 0.74938 0.0
C5727 C 0.72137 0.15548 0.76599 0.0
C5728 C 0.70861 0.15895 0.73505 0.0
C5729 C 0.69694 0.15148 0.71694 0.0
C5730 C 0.69829 0.13487 0.70516 0.0
C5731 C 0.68724 0.12794 0.68811 0.0
C5732 C 0.67489 0.13758 0.68261 0.0
C5733 C 0.67359 0.15422 0.69413 0.0
C5734 C 0.68459 0.1612 0.71121 0.0
C5735 C 0.76465 0.22531 0.74189 0.0
C5736 C 0.76659 0.23939 0.75799 0.0
C5737 C 0.7531 0.20765 0.74063 0.0
C5738 C 0.74314 0.20385 0.75533 0.0
C5739 C 0.74472 0.21811 0.77122 0.0
C5740 C 0.75654 0.23566 0.77266 0.0
C5741 C 0.73138 0.18481 0.75403 0.0
C5742 C 0.71936 0.17737 0.73766 0.0
C5743 C 0.73233 0.17376 0.76846 0.0
C5744 C 0.74493 0.18063 0.78596 0.0
C5745 C 0.73898 0.18233 0.80378 0.0
C5746 C 0.75077 0.18929 0.82029 0.0
C5747 C 0.76858 0.19447 0.81916 0.0
C5748 C 0.77463 0.19261 0.80152 0.0
C5749 C 0.76288 0.18565 0.78496 0.0
H5750 H 0.77768 0.1999 0.83196 0.0
H5751 H 0.66635 0.1322 0.6694 0.0
loop_
_geom_bond_atom_site_label_1
_geom_bond_atom_site_label_2
_geom_bond_distance
_geom_bond_site_symmetry_2
_ccdc_geom_bond_type
C0 O1 1.160 . S
C0 O7 1.185 . S
O1 C0 1.160 . S
O2 Zn3 1.899 . S
O2 C10 1.284 . S
Zn3 O2 1.899 . S
Zn3 O4 2.032 . S
Zn3 O7 2.086 . S
Zn3 O12 1.977 . S
O4 Zn3 2.032 . S
O4 C8 1.278 . S
C5 O6 1.203 . S
C5 O12 1.267 . S
O6 C5 1.203 . S
O7 C0 1.185 . S
O7 Zn3 2.086 . S
C8 O4 1.278 . S
C8 O9 1.211 . S
O9 C8 1.211 . S
C10 O2 1.284 . S
C10 O11 1.273 . S
O11 C10 1.273 . S
O12 Zn3 1.977 . S
O12 C5 1.267 . S
C13 O14 1.160 . S
C13 O20 1.185 . S
O14 C13 1.160 . S
O15 Zn16 1.899 . S
O15 C23 1.284 . S
Zn16 O15 1.899 . S
Zn16 O17 2.032 . S
Zn16 O20 2.086 . S
Zn16 O25 1.977 1_655 S
O17 Zn16 2.032 . S
O17 C21 1.278 1_655 S
C18 O19 1.203 . S
C18 O25 1.267 . S
O19 C18 1.203 . S
O20 C13 1.185 . S
O20 Zn16 2.086 . S
C21 O17 1.278 1_455 S
C21 O22 1.211 . S
O22 C21 1.211 . S
C23 O15 1.284 . S
C23 O24 1.273 1_655 S
O24 C23 1.273 1_455 S
O25 Zn16 1.977 1_455 S
O25 C18 1.267 . S
C26 O27 1.160 . S
C26 O33 1.185 . S
O27 C26 1.160 . S
O28 Zn29 1.899 . S
O28 C36 1.284 . S
Zn29 O28 1.899 . S
Zn29 O30 2.032 . S
Zn29 O33 2.086 . S
Zn29 O38 1.977 . S
O30 Zn29 2.032 . S
O30 C34 1.278 . S
C31 O32 1.203 . S
C31 O38 1.267 . S
O32 C31 1.203 . S
O33 C26 1.185 . S
O33 Zn29 2.086 . S
C34 O30 1.278 . S
C34 O35 1.211 . S
O35 C34 1.211 . S
C36 O28 1.284 . S
C36 O37 1.273 . S
O37 C36 1.273 . S
O38 Zn29 1.977 . S
O38 C31 1.267 . S
C39 O40 1.160 . S
C39 O46 1.185 . S
O40 C39 1.160 . S
O41 Zn42 1.899 . S
O41 C49 1.284 . S
Zn42 O41 1.899 . S
Zn42 O43 2.032 . S
Zn42 O46 2.086 . S
Zn42 O51 1.977 . S
O43 Zn42 2.032 . S
O43 C47 1.278 . S
C44 O45 1.203 . S
C44 O51 1.267 . S
O45 C44 1.203 . S
O46 C39 1.185 . S
O46 Zn42 2.086 . S
C47 O43 1.278 . S
C47 O48 1.211 . S
O48 C47 1.211 . S
C49 O41 1.284 . S
C49 O50 1.273 . S
O50 C49 1.273 . S
O51 Zn42 1.977 . S
O51 C44 1.267 . S
C52 O53 1.160 . S
C52 O59 1.185 . S
O53 C52 1.160 . S
O54 Zn55 1.899 . S
O54 C62 1.284 . S
Zn55 O54 1.899 . S
Zn55 O56 2.032 . S
Zn55 O59 2.086 . S
Zn55 O64 1.977 . S
O56 Zn55 2.032 . S
O56 C60 1.278 . S
C57 O58 1.203 . S
C57 O64 1.267 . S
O58 C57 1.203 . S
O59 C52 1.185 . S
O59 Zn55 2.086 . S
C60 O56 1.278 . S
C60 O61 1.211 . S
O61 C60 1.211 . S
C62 O54 1.284 . S
C62 O63 1.273 . S
O63 C62 1.273 . S
O64 Zn55 1.977 . S
O64 C57 1.267 . S
C65 O66 1.160 . S
C65 O72 1.185 . S
O66 C65 1.160 . S
O67 Zn68 1.899 . S
O67 C75 1.284 . S
Zn68 O67 1.899 . S
Zn68 O69 2.032 . S
Zn68 O72 2.086 . S
Zn68 O77 1.977 . S
O69 Zn68 2.032 . S
O69 C73 1.278 . S
C70 O71 1.203 . S
C70 O77 1.267 . S
O71 C70 1.203 . S
O72 C65 1.185 . S
O72 Zn68 2.086 . S
C73 O69 1.278 . S
C73 O74 1.211 . S
O74 C73 1.211 . S
C75 O67 1.284 . S
C75 O76 1.273 . S
O76 C75 1.273 . S
O77 Zn68 1.977 . S
O77 C70 1.267 . S
C78 O79 1.160 . S
C78 O85 1.185 . S
O79 C78 1.160 . S
O80 Zn81 1.899 . S
O80 C88 1.284 . S
Zn81 O80 1.899 . S
Zn81 O82 2.032 . S
Zn81 O85 2.086 . S
Zn81 O90 1.977 . S
O82 Zn81 2.032 . S
O82 C86 1.278 . S
C83 O84 1.203 . S
C83 O90 1.267 . S
O84 C83 1.203 . S
O85 C78 1.185 . S
O85 Zn81 2.086 . S
C86 O82 1.278 . S
C86 O87 1.211 . S
O87 C86 1.211 . S
C88 O80 1.284 . S
C88 O89 1.273 . S
O89 C88 1.273 . S
O90 Zn81 1.977 . S
O90 C83 1.267 . S
C91 O92 1.160 . S
C91 O98 1.185 . S
O92 C91 1.160 . S
O93 Zn94 1.899 . S
O93 C101 1.284 . S
Zn94 O93 1.899 . S
Zn94 O95 2.032 . S
Zn94 O98 2.086 . S
Zn94 O103 1.977 1_455 S
O95 Zn94 2.032 . S
O95 C99 1.278 . S
C96 O97 1.203 . S
C96 O103 1.267 . S
O97 C96 1.203 . S
O98 C91 1.185 . S
O98 Zn94 2.086 . S
C99 O95 1.278 . S
C99 O100 1.168 1_455 S
O100 C99 1.168 1_655 S
C101 O93 1.284 . S
C101 O102 1.273 . S
O102 C101 1.273 . S
O103 Zn94 1.977 1_655 S
O103 C96 1.267 . S
C104 O105 1.160 . S
C104 O111 1.185 . S
O105 C104 1.160 . S
O106 Zn107 1.899 . S
O106 C114 1.284 . S
Zn107 O106 1.899 . S
Zn107 O108 2.032 . S
Zn107 O111 2.086 . S
Zn107 O116 1.977 1_545 S
O108 Zn107 2.032 . S
O108 C112 1.278 . S
C109 O110 1.203 . S
C109 O116 1.267 . S
O110 C109 1.203 . S
O111 C104 1.185 . S
O111 Zn107 2.086 . S
C112 O108 1.278 . S
C112 O113 1.211 1_545 S
O113 C112 1.211 1_565 S
C114 O106 1.284 . S
C114 O115 1.250 1_545 S
O115 C114 1.250 1_565 S
O116 Zn107 1.977 1_565 S
O116 C109 1.267 . S
C117 O118 1.160 . S
C117 O124 1.185 . S
O118 C117 1.160 . S
O119 Zn120 1.899 . S
O119 C127 1.284 . S
Zn120 O119 1.899 . S
Zn120 O121 2.032 . S
Zn120 O124 2.086 . S
Zn120 O129 1.977 . S
O121 Zn120 2.032 . S
O121 C125 1.278 . S
C122 O123 1.203 . S
C122 O129 1.267 . S
O123 C122 1.203 . S
O124 C117 1.185 . S
O124 Zn120 2.086 . S
C125 O121 1.278 . S
C125 O126 1.211 . S
O126 C125 1.211 . S
C127 O119 1.284 . S
C127 O128 1.273 . S
O128 C127 1.273 . S
O129 Zn120 1.977 . S
O129 C122 1.267 . S
C130 O131 1.160 . S
C130 O137 1.185 . S
O131 C130 1.160 . S
O132 Zn133 1.899 . S
O132 C140 1.284 . S
Zn133 O132 1.899 . S
Zn133 O134 2.032 . S
Zn133 O137 2.086 . S
Zn133 O142 1.977 1_565 S
O134 Zn133 2.032 . S
O134 C138 1.278 1_565 S
C135 O136 1.203 . S
C135 O142 1.267 . S
O136 C135 1.203 . S
O137 C130 1.185 . S
O137 Zn133 2.086 . S
C138 O134 1.278 1_545 S
C138 O139 1.211 . S
O139 C138 1.211 . S
C140 O132 1.284 . S
C140 O141 1.273 1_565 S
O141 C140 1.273 1_545 S
O142 Zn133 1.977 1_545 S
O142 C135 1.267 . S
C143 O144 1.160 . S
C143 O150 1.185 . S
O144 C143 1.160 . S
O145 Zn146 1.899 . S
O145 C153 1.284 . S
Zn146 O145 1.899 . S
Zn146 O147 2.032 1_554 S
Zn146 O150 2.086 . S
Zn146 O155 1.977 . S
O147 Zn146 2.032 1_556 S
O147 C151 1.278 . S
C148 O149 1.203 . S
C148 O155 1.267 . S
O149 C148 1.203 . S
O150 C143 1.185 . S
O150 Zn146 2.086 . S
C151 O147 1.278 . S
C151 O152 1.211 . S
O152 C151 1.211 . S
C153 O145 1.284 . S
C153 O154 1.273 . S
O154 C153 1.273 . S
O155 Zn146 1.977 . S
O155 C148 1.267 . S
C156 O157 1.160 . S
C156 O163 1.185 . S
O157 C156 1.160 . S
O158 Zn159 1.899 . S
O158 C166 1.284 . S
Zn159 O158 1.899 . S
Zn159 O160 2.032 1_554 S
Zn159 O163 2.086 . S
Zn159 O168 1.977 . S
O160 Zn159 2.032 1_556 S
O160 C164 1.278 . S
C161 O162 1.203 . S
C161 O168 1.267 . S
O162 C161 1.203 . S
O163 C156 1.185 . S
O163 Zn159 2.086 . S
C164 O160 1.278 . S
C164 O165 1.211 . S
O165 C164 1.211 . S
C166 O158 1.284 . S
C166 O167 1.273 . S
O167 C166 1.273 . S
O168 Zn159 1.977 . S
O168 C161 1.267 . S
C169 O170 1.160 . S
C169 O176 1.185 . S
O170 C169 1.160 . S
O171 Zn172 1.899 . S
O171 C179 1.284 . S
Zn172 O171 1.899 . S
Zn172 O173 2.032 1_554 S
Zn172 O176 2.086 . S
Zn172 O181 1.977 . S
O173 Zn172 2.032 1_556 S
O173 C177 1.278 . S
C174 O175 1.203 . S
C174 O181 1.267 . S
O175 C174 1.203 . S
O176 C169 1.185 . S
O176 Zn172 2.086 . S
C177 O173 1.278 . S
C177 O178 1.211 . S
O178 C177 1.211 . S
C179 O171 1.284 . S
C179 O180 1.273 . S
O180 C179 1.273 . S
O181 Zn172 1.977 . S
O181 C174 1.267 . S
C182 O183 1.160 . S
C182 O189 1.185 . S
O183 C182 1.160 . S
O184 Zn185 1.899 . S
O184 C192 1.284 . S
Zn185 O184 1.899 . S
Zn185 O186 2.032 . S
Zn185 O189 2.086 . S
Zn185 O194 1.977 . S
O186 Zn185 2.032 . S
O186 C190 1.278 . S
C187 O188 1.203 . S
C187 O194 1.267 . S
O188 C187 1.203 . S
O189 C182 1.185 . S
O189 Zn185 2.086 . S
C190 O186 1.278 . S
C190 O191 1.211 . S
O191 C190 1.211 . S
C192 O184 1.284 . S
C192 O193 1.273 . S
O193 C192 1.273 . S
O194 Zn185 1.977 . S
O194 C187 1.267 . S
C195 O196 1.160 . S
C195 O202 1.185 . S
O196 C195 1.160 . S
O197 Zn198 1.899 . S
O197 C205 1.284 . S
Zn198 O197 1.899 . S
Zn198 O199 2.032 . S
Zn198 O202 2.086 . S
Zn198 O207 1.977 . S
O199 Zn198 2.032 . S
O199 C203 1.278 . S
C200 O201 1.203 . S
C200 O207 1.267 . S
O201 C200 1.203 . S
O202 C195 1.185 . S
O202 Zn198 2.086 . S
C203 O199 1.278 . S
C203 O204 1.211 . S
O204 C203 1.211 . S
C205 O197 1.284 . S
C205 O206 1.273 . S
O206 C205 1.273 . S
O207 Zn198 1.977 . S
O207 C200 1.267 . S
C208 O209 1.160 . S
C208 O215 1.185 . S
O209 C208 1.160 . S
O210 Zn211 1.899 . S
O210 C218 1.284 . S
Zn211 O210 1.899 . S
Zn211 O212 2.032 . S
Zn211 O215 2.086 . S
Zn211 O220 1.977 . S
O212 Zn211 2.032 . S
O212 C216 1.278 . S
C213 O214 1.203 . S
C213 O220 1.267 . S
O214 C213 1.203 . S
O215 C208 1.185 . S
O215 Zn211 2.086 . S
C216 O212 1.278 . S
C216 O217 1.211 . S
O217 C216 1.211 . S
C218 O210 1.284 . S
C218 O219 1.273 . S
O219 C218 1.273 . S
O220 Zn211 1.977 . S
O220 C213 1.267 . S
C221 O222 1.160 . S
C221 O228 1.185 . S
O222 C221 1.160 . S
O223 Zn224 1.899 . S
O223 C231 1.284 . S
Zn224 O223 1.899 . S
Zn224 O225 2.032 . S
Zn224 O228 2.086 . S
Zn224 O233 1.977 . S
O225 Zn224 2.032 . S
O225 C229 1.278 . S
C226 O227 1.203 . S
C226 O233 1.267 . S
O227 C226 1.203 . S
O228 C221 1.185 . S
O228 Zn224 2.086 . S
C229 O225 1.278 . S
C229 O230 1.211 . S
O230 C229 1.211 . S
C231 O223 1.284 . S
C231 O232 1.273 . S
O232 C231 1.273 . S
O233 Zn224 1.977 . S
O233 C226 1.267 . S
C234 O235 1.160 . S
C234 O241 1.185 . S
O235 C234 1.160 . S
O236 Zn237 1.899 . S
O236 C244 1.284 . S
Zn237 O236 1.899 . S
Zn237 O238 2.032 . S
Zn237 O241 2.086 . S
Zn237 O246 1.977 . S
O238 Zn237 2.032 . S
O238 C242 1.278 . S
C239 O240 1.203 . S
C239 O246 1.267 . S
O240 C239 1.203 . S
O241 C234 1.185 . S
O241 Zn237 2.086 . S
C242 O238 1.278 . S
C242 O243 1.211 . S
O243 C242 1.211 . S
C244 O236 1.284 . S
C244 O245 1.273 . S
O245 C244 1.273 . S
O246 Zn237 1.977 . S
O246 C239 1.267 . S
C247 O248 1.160 . S
C247 O254 1.185 . S
O248 C247 1.160 . S
O249 Zn250 1.899 . S
O249 C257 1.284 . S
Zn250 O249 1.899 . S
Zn250 O251 2.032 . S
Zn250 O254 2.086 . S
Zn250 O259 1.977 . S
O251 Zn250 2.032 . S
O251 C255 1.278 . S
C252 O253 1.203 . S
C252 O259 1.267 . S
O253 C252 1.203 . S
O254 C247 1.185 . S
O254 Zn250 2.086 . S
C255 O251 1.278 . S
C255 O256 1.211 . S
O256 C255 1.211 . S
C257 O249 1.284 . S
C257 O258 1.273 . S
O258 C257 1.273 . S
O259 Zn250 1.977 . S
O259 C252 1.267 . S
C260 O261 1.160 . S
C260 O267 1.185 . S
O261 C260 1.160 . S
O262 Zn263 1.899 . S
O262 C270 1.284 . S
Zn263 O262 1.899 . S
Zn263 O264 2.032 1_554 S
Zn263 O267 2.086 . S
Zn263 O272 1.981 . S
O264 Zn263 2.032 1_556 S
O264 C268 1.278 . S
C265 O266 1.203 . S
C265 O272 1.279 . S
O266 C265 1.203 . S
O267 C260 1.185 . S
O267 Zn263 2.086 . S
C268 O264 1.278 . S
C268 O269 1.211 . S
O269 C268 1.211 . S
C270 O262 1.284 . S
C270 O271 1.273 . S
O271 C270 1.273 . S
O272 Zn263 1.981 . S
O272 C265 1.279 . S
C273 O274 1.160 . S
C273 O280 1.185 . S
O274 C273 1.160 . S
O275 Zn276 1.899 . S
O275 C283 1.284 . S
Zn276 O275 1.899 . S
Zn276 O277 2.032 . S
Zn276 O280 2.086 . S
Zn276 O285 1.977 . S
O277 Zn276 2.032 . S
O277 C281 1.278 . S
C278 O279 1.203 . S
C278 O285 1.267 . S
O279 C278 1.203 . S
O280 C273 1.185 . S
O280 Zn276 2.086 . S
C281 O277 1.278 . S
C281 O282 1.211 . S
O282 C281 1.211 . S
C283 O275 1.284 . S
C283 O284 1.273 . S
O284 C283 1.273 . S
O285 Zn276 1.977 . S
O285 C278 1.267 . S
C286 O287 1.160 . S
C286 O293 1.185 . S
O287 C286 1.160 . S
O288 Zn289 1.899 . S
O288 C296 1.284 . S
Zn289 O288 1.899 . S
Zn289 O290 2.032 . S
Zn289 O293 2.086 . S
Zn289 O298 1.977 . S
O290 Zn289 2.032 . S
O290 C294 1.278 . S
C291 O292 1.203 . S
C291 O298 1.267 . S
O292 C291 1.203 . S
O293 C286 1.185 . S
O293 Zn289 2.086 . S
C294 O290 1.278 . S
C294 O295 1.211 . S
O295 C294 1.211 . S
C296 O288 1.284 . S
C296 O297 1.273 . S
O297 C296 1.273 . S
O298 Zn289 1.977 . S
O298 C291 1.267 . S
C299 O300 1.160 . S
C299 O306 1.185 . S
O300 C299 1.160 . S
O301 Zn302 1.899 . S
O301 C309 1.284 . S
Zn302 O301 1.899 . S
Zn302 O303 2.032 . S
Zn302 O306 2.086 . S
Zn302 O311 1.977 . S
O303 Zn302 2.032 . S
O303 C307 1.278 . S
C304 O305 1.203 . S
C304 O311 1.267 . S
O305 C304 1.203 . S
O306 C299 1.185 . S
O306 Zn302 2.086 . S
C307 O303 1.278 . S
C307 O308 1.211 . S
O308 C307 1.211 . S
C309 O301 1.284 . S
C309 O310 1.273 . S
O310 C309 1.273 . S
O311 Zn302 1.977 . S
O311 C304 1.267 . S
La312 C314 2.928 1_455 S
La312 O332 2.521 1_455 S
La312 O333 2.628 1_456 S
La312 O334 2.554 . S
La312 O335 2.757 . S
La312 O336 2.470 . S
La312 O341 2.482 1_556 S
La312 O343 2.503 1_546 S
La313 C323 2.928 . S
La313 O335 2.482 1_554 S
La313 O337 2.503 . S
La313 O338 2.521 . S
La313 O339 2.628 . S
La313 O340 2.554 . S
La313 O341 2.757 . S
La313 O342 2.470 . S
C314 La312 2.928 1_655 S
C314 C315 1.503 . S
C314 O332 1.261 . S
C314 O333 1.243 1_556 S
C315 C314 1.503 . S
C315 C316 1.394 . S
C315 C320 1.373 . S
C316 C315 1.394 . S
C316 C317 1.380 . S
C316 H344 0.930 . S
C317 C316 1.380 . S
C317 C318 1.376 . S
C317 H345 0.930 . S
C318 C317 1.376 . S
C318 C319 1.370 . S
C319 C318 1.370 . S
C319 C320 1.396 . S
C319 H346 0.929 1_556 S
C320 C315 1.373 . S
C320 C319 1.396 . S
C320 H347 0.929 1_556 S
C321 O334 1.240 . S
C321 O335 1.289 . S
C322 O336 1.258 1_554 S
C322 O337 1.256 . S
C323 La313 2.928 . S
C323 C324 1.503 . S
C323 O338 1.261 . S
C323 O339 1.243 . S
C324 C323 1.503 . S
C324 C325 1.394 . S
C324 C329 1.390 . S
C325 C324 1.394 . S
C325 C326 1.380 . S
C325 H348 0.930 . S
C326 C325 1.380 . S
C326 C327 1.339 1_545 S
C326 H349 0.930 . S
C327 C326 1.339 1_565 S
C327 C328 1.374 . S
C328 C327 1.374 . S
C328 C329 1.381 1_565 S
C328 H350 0.929 . S
C329 C324 1.390 . S
C329 C328 1.381 1_545 S
C329 H351 0.928 1_545 S
C330 O340 1.240 . S
C330 O341 1.289 . S
C331 O342 1.258 1_565 S
C331 O343 1.256 . S
O332 La312 2.521 1_655 S
O332 C314 1.261 . S
O333 La312 2.628 1_654 S
O333 C314 1.243 1_554 S
O334 La312 2.554 . S
O334 C321 1.240 . S
O335 La312 2.757 . S
O335 La313 2.482 1_556 S
O335 C321 1.289 . S
O336 La312 2.470 . S
O336 C322 1.258 1_556 S
O337 La313 2.503 . S
O337 C322 1.256 . S
O338 La313 2.521 . S
O338 C323 1.261 . S
O339 La313 2.628 . S
O339 C323 1.243 . S
O340 La313 2.554 . S
O340 C330 1.240 . S
O341 La312 2.482 1_554 S
O341 La313 2.757 . S
O341 C330 1.289 . S
O342 La313 2.470 . S
O342 C331 1.258 1_545 S
O343 La312 2.503 1_564 S
O343 C331 1.256 . S
H344 C316 0.930 . S
H345 C317 0.930 . S
H346 C319 0.929 1_554 S
H347 C320 0.929 1_554 S
H348 C325 0.930 . S
H349 C326 0.930 . S
H350 C328 0.929 . S
H351 C329 0.928 1_565 S
La352 C354 2.928 . S
La352 O372 2.521 . S
La352 O373 2.628 . S
La352 O374 2.554 . S
La352 O375 2.757 . S
La352 O376 2.470 . S
La352 O381 2.482 . S
La352 O383 2.503 . S
La353 C363 2.928 . S
La353 O375 2.482 . S
La353 O377 2.503 . S
La353 O378 2.521 . S
La353 O379 2.628 . S
La353 O380 2.554 . S
La353 O381 2.757 . S
La353 O382 2.470 . S
C354 La352 2.928 . S
C354 C355 1.503 . S
C354 O372 1.261 . S
C354 O373 1.243 . S
C355 C354 1.503 . S
C355 C356 1.394 . S
C355 C360 1.373 . S
C356 C355 1.394 . S
C356 C357 1.380 . S
C356 H384 0.930 . S
C357 C356 1.380 . S
C357 C358 1.376 . S
C357 H385 0.930 . S
C358 C357 1.376 . S
C358 C359 1.370 . S
C359 C358 1.370 . S
C359 C360 1.396 . S
C359 H386 0.929 . S
C360 C355 1.373 . S
C360 C359 1.396 . S
C360 H387 0.929 . S
C361 O374 1.240 . S
C361 O375 1.289 . S
C362 O376 1.258 . S
C362 O377 1.256 . S
C363 La353 2.928 . S
C363 C364 1.503 . S
C363 O378 1.261 . S
C363 O379 1.243 . S
C364 C363 1.503 . S
C364 C365 1.394 . S
C364 C369 1.373 . S
C365 C364 1.394 . S
C365 C366 1.380 . S
C365 H388 0.930 . S
C366 C365 1.380 . S
C366 C367 1.376 . S
C366 H389 0.930 . S
C367 C366 1.376 . S
C367 C368 1.370 . S
C368 C367 1.370 . S
C368 C369 1.396 . S
C368 H390 0.929 . S
C369 C364 1.373 . S
C369 C368 1.396 . S
C369 H391 0.929 . S
C370 O380 1.240 . S
C370 O381 1.289 . S
C371 O382 1.258 . S
C371 O383 1.256 . S
O372 La352 2.521 . S
O372 C354 1.261 . S
O373 La352 2.628 . S
O373 C354 1.243 . S
O374 La352 2.554 . S
O374 C361 1.240 . S
O375 La352 2.757 . S
O375 La353 2.482 . S
O375 C361 1.289 . S
O376 La352 2.470 . S
O376 C362 1.258 . S
O377 La353 2.503 . S
O377 C362 1.256 . S
O378 La353 2.521 . S
O378 C363 1.261 . S
O379 La353 2.628 . S
O379 C363 1.243 . S
O380 La353 2.554 . S
O380 C370 1.240 . S
O381 La352 2.482 . S
O381 La353 2.757 . S
O381 C370 1.289 . S
O382 La353 2.470 . S
O382 C371 1.258 . S
O383 La352 2.503 . S
O383 C371 1.256 . S
H384 C356 0.930 . S
H385 C357 0.930 . S
H386 C359 0.929 . S
H387 C360 0.929 . S
H388 C365 0.930 . S
H389 C366 0.930 . S
H390 C368 0.929 . S
H391 C369 0.929 . S
La392 C394 2.928 . S
La392 O412 2.521 . S
La392 O413 2.628 . S
La392 O414 2.554 . S
La392 O415 2.757 . S
La392 O416 2.470 . S
La392 O421 2.482 . S
La392 O423 2.503 . S
La393 C403 2.928 . S
La393 O415 2.482 . S
La393 O417 2.503 1_545 S
La393 O418 2.521 . S
La393 O419 2.628 . S
La393 O420 2.554 . S
La393 O421 2.757 . S
La393 O422 2.470 . S
C394 La392 2.928 . S
C394 C395 1.503 . S
C394 O412 1.261 . S
C394 O413 1.243 . S
C395 C394 1.503 . S
C395 C396 1.393 . S
C395 C400 1.373 1_545 S
C396 C395 1.393 . S
C396 C397 1.341 1_545 S
C396 H424 0.972 . S
C397 C396 1.341 1_565 S
C397 C398 1.376 . S
C397 H425 0.930 . S
C398 C397 1.376 . S
C398 C399 1.370 . S
C399 C398 1.370 . S
C399 C400 1.396 . S
C399 H426 0.929 . S
C400 C395 1.373 1_565 S
C400 C399 1.396 . S
C400 H427 0.929 . S
C401 O414 1.240 . S
C401 O415 1.289 . S
C402 O416 1.258 1_565 S
C402 O417 1.256 . S
C403 La393 2.928 . S
C403 C404 1.503 . S
C403 O418 1.261 . S
C403 O419 1.243 . S
C404 C403 1.503 . S
C404 C405 1.394 . S
C404 C409 1.373 . S
C405 C404 1.394 . S
C405 C406 1.380 . S
C405 H428 0.930 . S
C406 C405 1.380 . S
C406 C407 1.376 . S
C406 H429 0.930 . S
C407 C406 1.376 . S
C407 C408 1.370 . S
C408 C407 1.370 . S
C408 C409 1.396 . S
C408 H430 0.929 . S
C409 C404 1.373 . S
C409 C408 1.396 . S
C409 H431 0.929 . S
C410 O420 1.240 . S
C410 O421 1.289 . S
C411 O422 1.258 . S
C411 O423 1.256 . S
O412 La392 2.521 . S
O412 C394 1.261 . S
O413 La392 2.628 . S
O413 C394 1.243 . S
O414 La392 2.554 . S
O414 C401 1.240 . S
O415 La392 2.757 . S
O415 La393 2.482 . S
O415 C401 1.289 . S
O416 La392 2.470 . S
O416 C402 1.258 1_545 S
O417 La393 2.503 1_565 S
O417 C402 1.256 . S
O418 La393 2.521 . S
O418 C403 1.261 . S
O419 La393 2.628 . S
O419 C403 1.243 . S
O420 La393 2.554 . S
O420 C410 1.240 . S
O421 La392 2.482 . S
O421 La393 2.757 . S
O421 C410 1.289 . S
O422 La393 2.470 . S
O422 C411 1.258 . S
O423 La392 2.503 . S
O423 C411 1.256 . S
H424 C396 0.972 . S
H425 C397 0.930 . S
H426 C399 0.929 . S
H427 C400 0.929 . S
H428 C405 0.930 . S
H429 C406 0.930 . S
H430 C408 0.929 . S
H431 C409 0.929 . S
La432 C434 2.928 . S
La432 O452 2.521 . S
La432 O453 2.628 . S
La432 O454 2.554 . S
La432 O455 2.757 . S
La432 O456 2.470 . S
La432 O461 2.482 . S
La432 O463 2.503 . S
La433 C443 2.928 . S
La433 O455 2.482 . S
La433 O457 2.503 . S
La433 O458 2.521 . S
La433 O459 2.628 . S
La433 O460 2.554 . S
La433 O461 2.757 . S
La433 O462 2.470 . S
C434 La432 2.928 . S
C434 C435 1.503 . S
C434 O452 1.261 . S
C434 O453 1.243 . S
C435 C434 1.503 . S
C435 C436 1.394 . S
C435 C440 1.373 . S
C436 C435 1.394 . S
C436 C437 1.380 . S
C436 H464 0.930 . S
C437 C436 1.380 . S
C437 C438 1.376 . S
C437 H465 0.930 . S
C438 C437 1.376 . S
C438 C439 1.370 . S
C439 C438 1.370 . S
C439 C440 1.396 . S
C439 H466 0.929 . S
C440 C435 1.373 . S
C440 C439 1.396 . S
C440 H467 0.929 . S
C441 O454 1.240 . S
C441 O455 1.289 . S
C442 O456 1.258 . S
C442 O457 1.256 . S
C443 La433 2.928 . S
C443 C444 1.503 . S
C443 O458 1.261 . S
C443 O459 1.243 . S
C444 C443 1.503 . S
C444 C445 1.394 . S
C444 C449 1.373 . S
C445 C444 1.394 . S
C445 C446 1.380 . S
C445 H468 0.930 . S
C446 C445 1.380 . S
C446 C447 1.376 . S
C446 H469 0.930 . S
C447 C446 1.376 . S
C447 C448 1.370 . S
C448 C447 1.370 . S
C448 C449 1.396 . S
C448 H470 0.929 . S
C449 C444 1.373 . S
C449 C448 1.396 . S
C449 H471 0.929 . S
C450 O460 1.240 . S
C450 O461 1.289 . S
C451 O462 1.258 . S
C451 O463 1.256 . S
O452 La432 2.521 . S
O452 C434 1.261 . S
O453 La432 2.628 . S
O453 C434 1.243 . S
O454 La432 2.554 . S
O454 C441 1.240 . S
O455 La432 2.757 . S
O455 La433 2.482 . S
O455 C441 1.289 . S
O456 La432 2.470 . S
O456 C442 1.258 . S
O457 La433 2.503 . S
O457 C442 1.256 . S
O458 La433 2.521 . S
O458 C443 1.261 . S
O459 La433 2.628 . S
O459 C443 1.243 . S
O460 La433 2.554 . S
O460 C450 1.240 . S
O461 La432 2.482 . S
O461 La433 2.757 . S
O461 C450 1.289 . S
O462 La433 2.470 . S
O462 C451 1.258 . S
O463 La432 2.503 . S
O463 C451 1.256 . S
H464 C436 0.930 . S
H465 C437 0.930 . S
H466 C439 0.929 . S
H467 C440 0.929 . S
H468 C445 0.930 . S
H469 C446 0.930 . S
H470 C448 0.929 . S
H471 C449 0.929 . S
La472 C474 2.928 . S
La472 O492 2.521 . S
La472 O493 2.628 . S
La472 O494 2.494 1_455 S
La472 O495 2.757 . S
La472 O496 2.470 . S
La472 O501 2.482 . S
La472 O503 2.503 . S
La473 C483 2.928 1_545 S
La473 O495 2.482 . S
La473 O497 2.503 . S
La473 O498 2.521 1_545 S
La473 O499 2.628 1_545 S
La473 O500 2.554 . S
La473 O501 2.757 . S
La473 O502 2.470 . S
C474 La472 2.928 . S
C474 C475 1.503 . S
C474 O492 1.261 . S
C474 O493 1.243 . S
C475 C474 1.503 . S
C475 C476 1.394 . S
C475 C480 1.373 . S
C476 C475 1.394 . S
C476 C477 1.380 . S
C476 H504 0.930 . S
C477 C476 1.380 . S
C477 C478 1.376 . S
C477 H505 0.930 1_455 S
C478 C477 1.376 . S
C478 C479 1.370 . S
C479 C478 1.370 . S
C479 C480 1.396 . S
C479 H506 0.929 . S
C480 C475 1.373 . S
C480 C479 1.396 . S
C480 H507 0.929 . S
C481 O494 1.202 1_455 S
C481 O495 1.344 . S
C482 O496 1.258 . S
C482 O497 1.256 . S
C483 La473 2.928 1_565 S
C483 C484 1.503 . S
C483 O498 1.261 . S
C483 O499 1.243 . S
C484 C483 1.503 . S
C484 C485 1.394 . S
C484 C489 1.373 . S
C485 C484 1.394 . S
C485 C486 1.380 . S
C485 H508 0.930 . S
C486 C485 1.380 . S
C486 C487 1.376 . S
C486 H509 0.930 . S
C487 C486 1.376 . S
C487 C488 1.370 . S
C488 C487 1.370 . S
C488 C489 1.396 . S
C488 H510 0.929 . S
C489 C484 1.373 . S
C489 C488 1.396 . S
C489 H511 0.929 . S
C490 O500 1.240 . S
C490 O501 1.289 . S
C491 O502 1.258 . S
C491 O503 1.256 . S
O492 La472 2.521 . S
O492 C474 1.261 . S
O493 La472 2.628 . S
O493 C474 1.243 . S
O494 La472 2.494 1_655 S
O494 C481 1.202 1_655 S
O495 La472 2.757 . S
O495 La473 2.482 . S
O495 C481 1.344 . S
O496 La472 2.470 . S
O496 C482 1.258 . S
O497 La473 2.503 . S
O497 C482 1.256 . S
O498 La473 2.521 1_565 S
O498 C483 1.261 . S
O499 La473 2.628 1_565 S
O499 C483 1.243 . S
O500 La473 2.554 . S
O500 C490 1.240 . S
O501 La472 2.482 . S
O501 La473 2.757 . S
O501 C490 1.289 . S
O502 La473 2.470 . S
O502 C491 1.258 . S
O503 La472 2.503 . S
O503 C491 1.256 . S
H504 C476 0.930 . S
H505 C477 0.930 1_655 S
H506 C479 0.929 . S
H507 C480 0.929 . S
H508 C485 0.930 . S
H509 C486 0.930 . S
H510 C488 0.929 . S
H511 C489 0.929 . S
La512 C514 2.928 . S
La512 O532 2.521 . S
La512 O533 2.628 . S
La512 O534 2.554 . S
La512 O535 2.757 . S
La512 O536 2.470 . S
La512 O541 2.482 . S
La512 O543 2.503 . S
La513 C523 2.928 . S
La513 O535 2.482 . S
La513 O537 2.503 . S
La513 O538 2.521 . S
La513 O539 2.628 . S
La513 O540 2.554 . S
La513 O541 2.757 . S
La513 O542 2.470 . S
C514 La512 2.928 . S
C514 C515 1.503 . S
C514 O532 1.261 . S
C514 O533 1.243 . S
C515 C514 1.503 . S
C515 C516 1.394 . S
C515 C520 1.373 . S
C516 C515 1.394 . S
C516 C517 1.380 . S
C516 H544 0.930 . S
C517 C516 1.380 . S
C517 C518 1.376 . S
C517 H545 0.930 . S
C518 C517 1.376 . S
C518 C519 1.370 . S
C519 C518 1.370 . S
C519 C520 1.396 . S
C519 H546 0.929 . S
C520 C515 1.373 . S
C520 C519 1.396 . S
C520 H547 0.929 . S
C521 O534 1.240 . S
C521 O535 1.289 . S
C522 O536 1.258 . S
C522 O537 1.256 . S
C523 La513 2.928 . S
C523 C524 1.503 . S
C523 O538 1.261 . S
C523 O539 1.243 . S
C524 C523 1.503 . S
C524 C525 1.394 . S
C524 C529 1.373 . S
C525 C524 1.394 . S
C525 C526 1.380 . S
C525 H548 0.930 . S
C526 C525 1.380 . S
C526 C527 1.376 . S
C526 H549 0.930 . S
C527 C526 1.376 . S
C527 C528 1.370 . S
C528 C527 1.370 . S
C528 C529 1.396 . S
C528 H550 0.929 . S
C529 C524 1.373 . S
C529 C528 1.396 . S
C529 H551 0.929 . S
C530 O540 1.240 . S
C530 O541 1.289 . S
C531 O542 1.258 . S
C531 O543 1.256 . S
O532 La512 2.521 . S
O532 C514 1.261 . S
O533 La512 2.628 . S
O533 C514 1.243 . S
O534 La512 2.554 . S
O534 C521 1.240 . S
O535 La512 2.757 . S
O535 La513 2.482 . S
O535 C521 1.289 . S
O536 La512 2.470 . S
O536 C522 1.258 . S
O537 La513 2.503 . S
O537 C522 1.256 . S
O538 La513 2.521 . S
O538 C523 1.261 . S
O539 La513 2.628 . S
O539 C523 1.243 . S
O540 La513 2.554 . S
O540 C530 1.240 . S
O541 La512 2.482 . S
O541 La513 2.757 . S
O541 C530 1.289 . S
O542 La513 2.470 . S
O542 C531 1.258 . S
O543 La512 2.503 . S
O543 C531 1.256 . S
H544 C516 0.930 . S
H545 C517 0.930 . S
H546 C519 0.929 . S
H547 C520 0.929 . S
H548 C525 0.930 . S
H549 C526 0.930 . S
H550 C528 0.929 . S
H551 C529 0.929 . S
La552 C554 2.928 . S
La552 O572 2.521 1_545 S
La552 O573 2.628 . S
La552 O574 2.554 1_545 S
La552 O575 2.757 . S
La552 O576 2.470 . S
La552 O581 2.482 . S
La552 O583 2.503 . S
La553 C563 2.928 . S
La553 O575 2.482 1_556 S
La553 O577 2.503 . S
La553 O578 2.521 . S
La553 O579 2.628 . S
La553 O580 2.554 1_556 S
La553 O581 2.757 1_556 S
La553 O582 2.470 1_556 S
C554 La552 2.928 . S
C554 C555 1.503 . S
C554 O572 1.261 1_545 S
C554 O573 1.243 . S
C555 C554 1.503 . S
C555 C556 1.394 1_545 S
C555 C560 1.373 . S
C556 C555 1.394 1_565 S
C556 C557 1.380 . S
C556 H584 0.930 . S
C557 C556 1.380 . S
C557 C558 1.376 . S
C557 H585 0.930 . S
C558 C557 1.376 . S
C558 C559 1.370 1_565 S
C559 C558 1.370 1_545 S
C559 C560 1.396 . S
C559 H586 0.929 . S
C560 C555 1.373 . S
C560 C559 1.396 . S
C560 H587 0.929 . S
C561 O574 1.240 . S
C561 O575 1.289 1_565 S
C562 O576 1.258 . S
C562 O577 1.256 1_554 S
C563 La553 2.928 . S
C563 C564 1.503 . S
C563 O578 1.261 . S
C563 O579 1.243 . S
C564 C563 1.503 . S
C564 C565 1.394 . S
C564 C569 1.373 . S
C565 C564 1.394 . S
C565 C566 1.380 . S
C565 H588 0.930 . S
C566 C565 1.380 . S
C566 C567 1.376 . S
C566 H589 0.930 . S
C567 C566 1.376 . S
C567 C568 1.370 . S
C568 C567 1.370 . S
C568 C569 1.396 . S
C568 H590 0.929 . S
C569 C564 1.373 . S
C569 C568 1.396 . S
C569 H591 0.929 . S
C570 O580 1.240 . S
C570 O581 1.289 . S
C571 O582 1.258 . S
C571 O583 1.256 . S
O572 La552 2.521 1_565 S
O572 C554 1.261 1_565 S
O573 La552 2.628 . S
O573 C554 1.243 . S
O574 La552 2.554 1_565 S
O574 C561 1.240 . S
O575 La552 2.757 . S
O575 La553 2.482 1_554 S
O575 C561 1.289 1_545 S
O576 La552 2.470 . S
O576 C562 1.258 . S
O577 La553 2.503 . S
O577 C562 1.256 1_556 S
O578 La553 2.521 . S
O578 C563 1.261 . S
O579 La553 2.628 . S
O579 C563 1.243 . S
O580 La553 2.554 1_554 S
O580 C570 1.240 . S
O581 La552 2.482 . S
O581 La553 2.757 1_554 S
O581 C570 1.289 . S
O582 La553 2.470 1_554 S
O582 C571 1.258 . S
O583 La552 2.503 . S
O583 C571 1.256 . S
H584 C556 0.930 . S
H585 C557 0.930 . S
H586 C559 0.929 . S
H587 C560 0.929 . S
H588 C565 0.930 . S
H589 C566 0.930 . S
H590 C568 0.929 . S
H591 C569 0.929 . S
La592 C594 2.928 . S
La592 O612 2.521 . S
La592 O613 2.628 . S
La592 O614 2.554 . S
La592 O615 2.757 . S
La592 O616 2.470 . S
La592 O621 2.482 . S
La592 O623 2.503 . S
La593 C603 2.928 . S
La593 O615 2.482 . S
La593 O617 2.503 . S
La593 O618 2.521 . S
La593 O619 2.628 . S
La593 O620 2.554 . S
La593 O621 2.757 . S
La593 O622 2.470 . S
C594 La592 2.928 . S
C594 C595 1.503 . S
C594 O612 1.261 . S
C594 O613 1.243 . S
C595 C594 1.503 . S
C595 C596 1.394 . S
C595 C600 1.373 . S
C596 C595 1.394 . S
C596 C597 1.380 . S
C596 H624 0.930 . S
C597 C596 1.380 . S
C597 C598 1.376 . S
C597 H625 0.930 . S
C598 C597 1.376 . S
C598 C599 1.370 . S
C599 C598 1.370 . S
C599 C600 1.396 . S
C599 H626 0.929 . S
C600 C595 1.373 . S
C600 C599 1.396 . S
C600 H627 0.929 . S
C601 O614 1.240 . S
C601 O615 1.289 . S
C602 O616 1.258 . S
C602 O617 1.256 . S
C603 La593 2.928 . S
C603 C604 1.503 . S
C603 O618 1.261 . S
C603 O619 1.243 . S
C604 C603 1.503 . S
C604 C605 1.394 . S
C604 C609 1.373 . S
C605 C604 1.394 . S
C605 C606 1.380 . S
C605 H628 0.930 . S
C606 C605 1.380 . S
C606 C607 1.376 . S
C606 H629 0.930 . S
C607 C606 1.376 . S
C607 C608 1.370 . S
C608 C607 1.370 . S
C608 C609 1.396 . S
C608 H630 0.929 . S
C609 C604 1.373 . S
C609 C608 1.396 . S
C609 H631 0.929 . S
C610 O620 1.240 . S
C610 O621 1.289 . S
C611 O622 1.258 . S
C611 O623 1.256 . S
O612 La592 2.521 . S
O612 C594 1.261 . S
O613 La592 2.628 . S
O613 C594 1.243 . S
O614 La592 2.554 . S
O614 C601 1.240 . S
O615 La592 2.757 . S
O615 La593 2.482 . S
O615 C601 1.289 . S
O616 La592 2.470 . S
O616 C602 1.258 . S
O617 La593 2.503 . S
O617 C602 1.256 . S
O618 La593 2.521 . S
O618 C603 1.261 . S
O619 La593 2.628 . S
O619 C603 1.243 . S
O620 La593 2.554 . S
O620 C610 1.240 . S
O621 La592 2.482 . S
O621 La593 2.757 . S
O621 C610 1.289 . S
O622 La593 2.470 . S
O622 C611 1.258 . S
O623 La592 2.503 . S
O623 C611 1.256 . S
H624 C596 0.930 . S
H625 C597 0.930 . S
H626 C599 0.929 . S
H627 C600 0.929 . S
H628 C605 0.930 . S
H629 C606 0.930 . S
H630 C608 0.929 . S
H631 C609 0.929 . S
La632 C634 2.928 . S
La632 O652 2.521 . S
La632 O653 2.652 . S
La632 O654 2.554 . S
La632 O655 2.757 . S
La632 O656 2.470 1_554 S
La632 O661 2.482 . S
La632 O663 2.503 . S
La633 C643 2.928 . S
La633 O655 2.482 . S
La633 O657 2.503 1_554 S
La633 O658 2.521 . S
La633 O659 2.628 . S
La633 O660 2.554 . S
La633 O661 2.757 . S
La633 O662 2.470 . S
C634 La632 2.928 . S
C634 C635 1.503 1_554 S
C634 O652 1.261 . S
C634 O653 1.248 . S
C635 C634 1.503 1_556 S
C635 C636 1.394 . S
C635 C640 1.373 . S
C636 C635 1.394 . S
C636 C637 1.380 . S
C636 H664 0.930 1_556 S
C637 C636 1.380 . S
C637 C638 1.376 . S
C637 H665 0.930 . S
C638 C637 1.376 . S
C638 C639 1.370 . S
C639 C638 1.370 . S
C639 C640 1.396 . S
C639 H666 0.929 . S
C640 C635 1.373 . S
C640 C639 1.396 . S
C640 H667 0.929 . S
C641 O654 1.240 . S
C641 O655 1.289 . S
C642 O656 1.258 . S
C642 O657 1.256 . S
C643 La633 2.928 . S
C643 C644 1.503 . S
C643 O658 1.261 . S
C643 O659 1.243 . S
C644 C643 1.503 . S
C644 C645 1.394 . S
C644 C649 1.373 . S
C645 C644 1.394 . S
C645 C646 1.380 . S
C645 H668 0.930 . S
C646 C645 1.380 . S
C646 C647 1.376 . S
C646 H669 0.930 . S
C647 C646 1.376 . S
C647 C648 1.370 . S
C648 C647 1.370 . S
C648 C649 1.396 . S
C648 H670 0.929 . S
C649 C644 1.373 . S
C649 C648 1.396 . S
C649 H671 0.929 . S
C650 O660 1.240 . S
C650 O661 1.289 . S
C651 O662 1.258 . S
C651 O663 1.256 . S
O652 La632 2.521 . S
O652 C634 1.261 . S
O653 La632 2.652 . S
O653 C634 1.248 . S
O654 La632 2.554 . S
O654 C641 1.240 . S
O655 La632 2.757 . S
O655 La633 2.482 . S
O655 C641 1.289 . S
O656 La632 2.470 1_556 S
O656 C642 1.258 . S
O657 La633 2.503 1_556 S
O657 C642 1.256 . S
O658 La633 2.521 . S
O658 C643 1.261 . S
O659 La633 2.628 . S
O659 C643 1.243 . S
O660 La633 2.554 . S
O660 C650 1.240 . S
O661 La632 2.482 . S
O661 La633 2.757 . S
O661 C650 1.289 . S
O662 La633 2.470 . S
O662 C651 1.258 . S
O663 La632 2.503 . S
O663 C651 1.256 . S
H664 C636 0.930 1_554 S
H665 C637 0.930 . S
H666 C639 0.929 . S
H667 C640 0.929 . S
H668 C645 0.930 . S
H669 C646 0.930 . S
H670 C648 0.929 . S
H671 C649 0.929 . S
La672 C674 2.928 . S
La672 O692 2.521 . S
La672 O693 2.628 . S
La672 O694 2.554 . S
La672 O695 2.757 . S
La672 O696 2.470 . S
La672 O701 2.482 . S
La672 O703 2.503 . S
La673 C683 2.928 . S
La673 O695 2.482 . S
La673 O697 2.503 . S
La673 O698 2.521 . S
La673 O699 2.628 . S
La673 O700 2.554 . S
La673 O701 2.757 . S
La673 O702 2.470 . S
C674 La672 2.928 . S
C674 C675 1.503 . S
C674 O692 1.261 . S
C674 O693 1.243 . S
C675 C674 1.503 . S
C675 C676 1.394 . S
C675 C680 1.373 . S
C676 C675 1.394 . S
C676 C677 1.380 . S
C676 H704 0.930 . S
C677 C676 1.380 . S
C677 C678 1.376 . S
C677 H705 0.930 . S
C678 C677 1.376 . S
C678 C679 1.370 . S
C679 C678 1.370 . S
C679 C680 1.396 . S
C679 H706 0.929 . S
C680 C675 1.373 . S
C680 C679 1.396 . S
C680 H707 0.929 . S
C681 O694 1.240 . S
C681 O695 1.289 . S
C682 O696 1.258 . S
C682 O697 1.256 . S
C683 La673 2.928 . S
C683 C684 1.503 . S
C683 O698 1.261 . S
C683 O699 1.243 . S
C684 C683 1.503 . S
C684 C685 1.394 . S
C684 C689 1.373 . S
C685 C684 1.394 . S
C685 C686 1.380 . S
C685 H708 0.930 . S
C686 C685 1.380 . S
C686 C687 1.376 . S
C686 H709 0.930 . S
C687 C686 1.376 . S
C687 C688 1.370 . S
C688 C687 1.370 . S
C688 C689 1.396 . S
C688 H710 0.929 . S
C689 C684 1.373 . S
C689 C688 1.396 . S
C689 H711 0.929 . S
C690 O700 1.240 . S
C690 O701 1.289 . S
C691 O702 1.258 . S
C691 O703 1.256 . S
O692 La672 2.521 . S
O692 C674 1.261 . S
O693 La672 2.628 . S
O693 C674 1.243 . S
O694 La672 2.554 . S
O694 C681 1.240 . S
O695 La672 2.757 . S
O695 La673 2.482 . S
O695 C681 1.289 . S
O696 La672 2.470 . S
O696 C682 1.258 . S
O697 La673 2.503 . S
O697 C682 1.256 . S
O698 La673 2.521 . S
O698 C683 1.261 . S
O699 La673 2.628 . S
O699 C683 1.243 . S
O700 La673 2.554 . S
O700 C690 1.240 . S
O701 La672 2.482 . S
O701 La673 2.757 . S
O701 C690 1.289 . S
O702 La673 2.470 . S
O702 C691 1.258 . S
O703 La672 2.503 . S
O703 C691 1.256 . S
H704 C676 0.930 . S
H705 C677 0.930 . S
H706 C679 0.929 . S
H707 C680 0.929 . S
H708 C685 0.930 . S
H709 C686 0.930 . S
H710 C688 0.929 . S
H711 C689 0.929 . S
La712 C714 2.928 . S
La712 O732 2.521 . S
La712 O733 2.628 . S
La712 O734 2.554 . S
La712 O735 2.757 . S
La712 O736 2.470 . S
La712 O741 2.482 . S
La712 O743 2.503 . S
La713 C723 2.928 . S
La713 O735 2.482 . S
La713 O737 2.503 . S
La713 O738 2.521 . S
La713 O739 2.628 . S
La713 O740 2.554 . S
La713 O741 2.757 . S
La713 O742 2.470 . S
C714 La712 2.928 . S
C714 C715 1.503 . S
C714 O732 1.261 . S
C714 O733 1.243 . S
C715 C714 1.503 . S
C715 C716 1.394 . S
C715 C720 1.373 . S
C716 C715 1.394 . S
C716 C717 1.380 . S
C716 H744 0.930 . S
C717 C716 1.380 . S
C717 C718 1.376 1_455 S
C717 H745 0.930 . S
C718 C717 1.376 1_655 S
C718 C719 1.370 . S
C719 C718 1.370 . S
C719 C720 1.396 1_655 S
C719 H746 0.929 . S
C720 C715 1.373 . S
C720 C719 1.396 1_455 S
C720 H747 0.932 . S
C721 O734 1.240 . S
C721 O735 1.289 . S
C722 O736 1.258 . S
C722 O737 1.256 . S
C723 La713 2.928 . S
C723 C724 1.503 . S
C723 O738 1.261 . S
C723 O739 1.243 . S
C724 C723 1.503 . S
C724 C725 1.394 . S
C724 C729 1.373 . S
C725 C724 1.394 . S
C725 C726 1.380 . S
C725 H748 0.930 . S
C726 C725 1.380 . S
C726 C727 1.376 . S
C726 H749 0.930 . S
C727 C726 1.376 . S
C727 C728 1.370 . S
C728 C727 1.370 . S
C728 C729 1.396 . S
C728 H750 0.929 . S
C729 C724 1.373 . S
C729 C728 1.396 . S
C729 H751 0.929 . S
C730 O740 1.240 . S
C730 O741 1.289 . S
C731 O742 1.258 . S
C731 O743 1.256 . S
O732 La712 2.521 . S
O732 C714 1.261 . S
O733 La712 2.628 . S
O733 C714 1.243 . S
O734 La712 2.554 . S
O734 C721 1.240 . S
O735 La712 2.757 . S
O735 La713 2.482 . S
O735 C721 1.289 . S
O736 La712 2.470 . S
O736 C722 1.258 . S
O737 La713 2.503 . S
O737 C722 1.256 . S
O738 La713 2.521 . S
O738 C723 1.261 . S
O739 La713 2.628 . S
O739 C723 1.243 . S
O740 La713 2.554 . S
O740 C730 1.240 . S
O741 La712 2.482 . S
O741 La713 2.757 . S
O741 C730 1.289 . S
O742 La713 2.470 . S
O742 C731 1.258 . S
O743 La712 2.503 . S
O743 C731 1.256 . S
H744 C716 0.930 . S
H745 C717 0.930 . S
H746 C719 0.929 . S
H747 C720 0.932 . S
H748 C725 0.930 . S
H749 C726 0.930 . S
H750 C728 0.929 . S
H751 C729 0.929 . S
La752 C754 2.928 . S
La752 O772 2.521 . S
La752 O773 2.628 . S
La752 O774 2.554 . S
La752 O775 2.757 . S
La752 O776 2.470 . S
La752 O781 2.482 . S
La752 O783 2.503 . S
La753 C763 2.928 . S
La753 O775 2.482 . S
La753 O777 2.503 . S
La753 O778 2.521 . S
La753 O779 2.628 . S
La753 O780 2.554 . S
La753 O781 2.757 . S
La753 O782 2.470 . S
C754 La752 2.928 . S
C754 C755 1.503 . S
C754 O772 1.261 . S
C754 O773 1.243 . S
C755 C754 1.503 . S
C755 C756 1.394 . S
C755 C760 1.373 . S
C756 C755 1.394 . S
C756 C757 1.380 . S
C756 H784 0.930 . S
C757 C756 1.380 . S
C757 C758 1.376 . S
C757 H785 0.930 . S
C758 C757 1.376 . S
C758 C759 1.370 . S
C759 C758 1.370 . S
C759 C760 1.396 . S
C759 H786 0.929 . S
C760 C755 1.373 . S
C760 C759 1.396 . S
C760 H787 0.929 . S
C761 O774 1.240 . S
C761 O775 1.289 . S
C762 O776 1.258 . S
C762 O777 1.256 . S
C763 La753 2.928 . S
C763 C764 1.503 . S
C763 O778 1.261 . S
C763 O779 1.243 . S
C764 C763 1.503 . S
C764 C765 1.394 . S
C764 C769 1.373 . S
C765 C764 1.394 . S
C765 C766 1.380 . S
C765 H788 0.930 . S
C766 C765 1.380 . S
C766 C767 1.376 . S
C766 H789 0.930 . S
C767 C766 1.376 . S
C767 C768 1.370 . S
C768 C767 1.370 . S
C768 C769 1.396 . S
C768 H790 0.929 . S
C769 C764 1.373 . S
C769 C768 1.396 . S
C769 H791 0.929 . S
C770 O780 1.240 . S
C770 O781 1.289 . S
C771 O782 1.258 . S
C771 O783 1.256 . S
O772 La752 2.521 . S
O772 C754 1.261 . S
O773 La752 2.628 . S
O773 C754 1.243 . S
O774 La752 2.554 . S
O774 C761 1.240 . S
O775 La752 2.757 . S
O775 La753 2.482 . S
O775 C761 1.289 . S
O776 La752 2.470 . S
O776 C762 1.258 . S
O777 La753 2.503 . S
O777 C762 1.256 . S
O778 La753 2.521 . S
O778 C763 1.261 . S
O779 La753 2.628 . S
O779 C763 1.243 . S
O780 La753 2.554 . S
O780 C770 1.240 . S
O781 La752 2.482 . S
O781 La753 2.757 . S
O781 C770 1.289 . S
O782 La753 2.470 . S
O782 C771 1.258 . S
O783 La752 2.503 . S
O783 C771 1.256 . S
H784 C756 0.930 . S
H785 C757 0.930 . S
H786 C759 0.929 . S
H787 C760 0.929 . S
H788 C765 0.930 . S
H789 C766 0.930 . S
H790 C768 0.929 . S
H791 C769 0.929 . S
La792 C794 2.928 . S
La792 O812 2.521 . S
La792 O813 2.628 . S
La792 O814 2.554 . S
La792 O815 2.757 . S
La792 O816 2.470 . S
La792 O821 2.482 . S
La792 O823 2.503 . S
La793 C803 2.928 . S
La793 O815 2.482 . S
La793 O817 2.503 . S
La793 O818 2.521 . S
La793 O819 2.628 . S
La793 O820 2.554 . S
La793 O821 2.757 . S
La793 O822 2.470 . S
C794 La792 2.928 . S
C794 C795 1.503 . S
C794 O812 1.261 . S
C794 O813 1.243 . S
C795 C794 1.503 . S
C795 C796 1.394 . S
C795 C800 1.373 . S
C796 C795 1.394 . S
C796 C797 1.380 . S
C796 H824 0.930 . S
C797 C796 1.380 . S
C797 C798 1.376 . S
C797 H825 0.930 . S
C798 C797 1.376 . S
C798 C799 1.370 . S
C799 C798 1.370 . S
C799 C800 1.396 . S
C799 H826 0.929 . S
C800 C795 1.373 . S
C800 C799 1.396 . S
C800 H827 0.929 . S
C801 O814 1.240 . S
C801 O815 1.289 . S
C802 O816 1.258 . S
C802 O817 1.256 . S
C803 La793 2.928 . S
C803 C804 1.503 . S
C803 O818 1.261 . S
C803 O819 1.243 . S
C804 C803 1.503 . S
C804 C805 1.394 . S
C804 C809 1.373 . S
C805 C804 1.394 . S
C805 C806 1.380 . S
C805 H828 0.930 . S
C806 C805 1.380 . S
C806 C807 1.376 . S
C806 H829 0.930 . S
C807 C806 1.376 . S
C807 C808 1.370 . S
C808 C807 1.370 . S
C808 C809 1.396 . S
C808 H830 0.929 . S
C809 C804 1.373 . S
C809 C808 1.396 . S
C809 H831 0.929 . S
C810 O820 1.240 . S
C810 O821 1.289 . S
C811 O822 1.258 . S
C811 O823 1.256 . S
O812 La792 2.521 . S
O812 C794 1.261 . S
O813 La792 2.628 . S
O813 C794 1.243 . S
O814 La792 2.554 . S
O814 C801 1.240 . S
O815 La792 2.757 . S
O815 La793 2.482 . S
O815 C801 1.289 . S
O816 La792 2.470 . S
O816 C802 1.258 . S
O817 La793 2.503 . S
O817 C802 1.256 . S
O818 La793 2.521 . S
O818 C803 1.261 . S
O819 La793 2.628 . S
O819 C803 1.243 . S
O820 La793 2.554 . S
O820 C810 1.240 . S
O821 La792 2.482 . S
O821 La793 2.757 . S
O821 C810 1.289 . S
O822 La793 2.470 . S
O822 C811 1.258 . S
O823 La792 2.503 . S
O823 C811 1.256 . S
H824 C796 0.930 . S
H825 C797 0.930 . S
H826 C799 0.929 . S
H827 C800 0.929 . S
H828 C805 0.930 . S
H829 C806 0.930 . S
H830 C808 0.929 . S
H831 C809 0.929 . S
La832 C834 2.928 . S
La832 O852 2.521 . S
La832 O853 2.628 . S
La832 O854 2.554 . S
La832 O855 2.757 . S
La832 O856 2.470 . S
La832 O861 2.482 . S
La832 O863 2.503 . S
La833 C843 2.928 . S
La833 O855 2.482 . S
La833 O857 2.503 . S
La833 O858 2.521 . S
La833 O859 2.628 . S
La833 O860 2.554 . S
La833 O861 2.757 . S
La833 O862 2.470 . S
C834 La832 2.928 . S
C834 C835 1.503 . S
C834 O852 1.261 . S
C834 O853 1.243 . S
C835 C834 1.503 . S
C835 C836 1.394 . S
C835 C840 1.373 . S
C836 C835 1.394 . S
C836 C837 1.380 . S
C836 H864 0.930 . S
C837 C836 1.380 . S
C837 C838 1.376 . S
C837 H865 0.930 . S
C838 C837 1.376 . S
C838 C839 1.370 . S
C839 C838 1.370 . S
C839 C840 1.396 . S
C839 H866 0.929 . S
C840 C835 1.373 . S
C840 C839 1.396 . S
C840 H867 0.929 . S
C841 O854 1.240 . S
C841 O855 1.289 . S
C842 O856 1.258 . S
C842 O857 1.256 . S
C843 La833 2.928 . S
C843 C844 1.503 . S
C843 O858 1.261 . S
C843 O859 1.243 . S
C844 C843 1.503 . S
C844 C845 1.394 . S
C844 C849 1.373 . S
C845 C844 1.394 . S
C845 C846 1.380 . S
C845 H868 0.930 . S
C846 C845 1.380 . S
C846 C847 1.376 . S
C846 H869 0.930 . S
C847 C846 1.376 . S
C847 C848 1.370 . S
C848 C847 1.370 . S
C848 C849 1.396 . S
C848 H870 0.929 . S
C849 C844 1.373 . S
C849 C848 1.396 . S
C849 H871 0.929 . S
C850 O860 1.240 . S
C850 O861 1.289 . S
C851 O862 1.258 . S
C851 O863 1.256 . S
O852 La832 2.521 . S
O852 C834 1.261 . S
O853 La832 2.628 . S
O853 C834 1.243 . S
O854 La832 2.554 . S
O854 C841 1.240 . S
O855 La832 2.757 . S
O855 La833 2.482 . S
O855 C841 1.289 . S
O856 La832 2.470 . S
O856 C842 1.258 . S
O857 La833 2.503 . S
O857 C842 1.256 . S
O858 La833 2.521 . S
O858 C843 1.261 . S
O859 La833 2.628 . S
O859 C843 1.243 . S
O860 La833 2.554 . S
O860 C850 1.240 . S
O861 La832 2.482 . S
O861 La833 2.757 . S
O861 C850 1.289 . S
O862 La833 2.470 . S
O862 C851 1.258 . S
O863 La832 2.503 . S
O863 C851 1.256 . S
H864 C836 0.930 . S
H865 C837 0.930 . S
H866 C839 0.929 . S
H867 C840 0.929 . S
H868 C845 0.930 . S
H869 C846 0.930 . S
H870 C848 0.929 . S
H871 C849 0.929 . S
La872 C874 2.928 . S
La872 O892 2.521 . S
La872 O893 2.628 . S
La872 O894 2.554 . S
La872 O895 2.757 . S
La872 O896 2.470 . S
La872 O901 2.482 . S
La872 O903 2.503 . S
La873 C883 2.928 . S
La873 O895 2.482 . S
La873 O897 2.503 . S
La873 O898 2.521 . S
La873 O899 2.628 . S
La873 O900 2.554 . S
La873 O901 2.757 . S
La873 O902 2.470 . S
C874 La872 2.928 . S
C874 C875 1.503 . S
C874 O892 1.261 . S
C874 O893 1.243 . S
C875 C874 1.503 . S
C875 C876 1.394 . S
C875 C880 1.373 . S
C876 C875 1.394 . S
C876 C877 1.380 . S
C876 H904 0.930 . S
C877 C876 1.380 . S
C877 C878 1.376 . S
C877 H905 0.930 . S
C878 C877 1.376 . S
C878 C879 1.370 . S
C879 C878 1.370 . S
C879 C880 1.396 . S
C879 H906 0.929 . S
C880 C875 1.373 . S
C880 C879 1.396 . S
C880 H907 0.929 . S
C881 O894 1.240 . S
C881 O895 1.289 . S
C882 O896 1.258 . S
C882 O897 1.256 . S
C883 La873 2.928 . S
C883 C884 1.503 . S
C883 O898 1.261 . S
C883 O899 1.243 . S
C884 C883 1.503 . S
C884 C885 1.394 . S
C884 C889 1.373 . S
C885 C884 1.394 . S
C885 C886 1.380 . S
C885 H908 0.930 . S
C886 C885 1.380 . S
C886 C887 1.376 . S
C886 H909 0.930 . S
C887 C886 1.376 . S
C887 C888 1.370 . S
C888 C887 1.370 . S
C888 C889 1.396 . S
C888 H910 0.929 . S
C889 C884 1.373 . S
C889 C888 1.396 . S
C889 H911 0.929 . S
C890 O900 1.240 . S
C890 O901 1.289 . S
C891 O902 1.258 . S
C891 O903 1.256 . S
O892 La872 2.521 . S
O892 C874 1.261 . S
O893 La872 2.628 . S
O893 C874 1.243 . S
O894 La872 2.554 . S
O894 C881 1.240 . S
O895 La872 2.757 . S
O895 La873 2.482 . S
O895 C881 1.289 . S
O896 La872 2.470 . S
O896 C882 1.258 . S
O897 La873 2.503 . S
O897 C882 1.256 . S
O898 La873 2.521 . S
O898 C883 1.261 . S
O899 La873 2.628 . S
O899 C883 1.243 . S
O900 La873 2.554 . S
O900 C890 1.240 . S
O901 La872 2.482 . S
O901 La873 2.757 . S
O901 C890 1.289 . S
O902 La873 2.470 . S
O902 C891 1.258 . S
O903 La872 2.503 . S
O903 C891 1.256 . S
H904 C876 0.930 . S
H905 C877 0.930 . S
H906 C879 0.929 . S
H907 C880 0.929 . S
H908 C885 0.930 . S
H909 C886 0.930 . S
H910 C888 0.929 . S
H911 C889 0.929 . S
La912 C914 2.928 . S
La912 O932 2.521 . S
La912 O933 2.628 1_556 S
La912 O934 2.554 . S
La912 O935 2.757 . S
La912 O936 2.470 . S
La912 O941 2.482 1_556 S
La912 O943 2.503 1_556 S
La913 C923 2.928 1_455 S
La913 O935 2.482 1_554 S
La913 O937 2.503 . S
La913 O938 2.521 1_455 S
La913 O939 2.628 1_455 S
La913 O940 2.554 . S
La913 O941 2.757 . S
La913 O942 2.470 . S
C914 La912 2.928 . S
C914 C915 1.503 . S
C914 O932 1.261 . S
C914 O933 1.243 1_556 S
C915 C914 1.503 . S
C915 C916 1.394 . S
C915 C920 1.331 1_556 S
C916 C915 1.394 . S
C916 C917 1.380 . S
C916 H944 0.930 . S
C917 C916 1.380 . S
C917 C918 1.376 . S
C917 H945 0.930 . S
C918 C917 1.376 . S
C918 C919 1.370 . S
C919 C918 1.370 . S
C919 C920 1.386 1_556 S
C919 H946 0.929 1_556 S
C920 C915 1.331 1_554 S
C920 C919 1.386 1_554 S
C920 H947 0.984 . S
C921 O934 1.240 . S
C921 O935 1.289 . S
C922 O936 1.258 . S
C922 O937 1.256 1_556 S
C923 La913 2.928 1_655 S
C923 C924 1.503 . S
C923 O938 1.261 . S
C923 O939 1.243 . S
C924 C923 1.503 . S
C924 C925 1.394 . S
C924 C929 1.373 . S
C925 C924 1.394 . S
C925 C926 1.380 . S
C925 H948 0.930 . S
C926 C925 1.380 . S
C926 C927 1.376 . S
C926 H949 0.930 . S
C927 C926 1.376 . S
C927 C928 1.370 . S
C928 C927 1.370 . S
C928 C929 1.396 . S
C928 H950 0.929 . S
C929 C924 1.373 . S
C929 C928 1.396 . S
C929 H951 0.929 . S
C930 O940 1.240 . S
C930 O941 1.289 . S
C931 O942 1.258 . S
C931 O943 1.256 . S
O932 La912 2.521 . S
O932 C914 1.261 . S
O933 La912 2.628 1_554 S
O933 C914 1.243 1_554 S
O934 La912 2.554 . S
O934 C921 1.240 . S
O935 La912 2.757 . S
O935 La913 2.482 1_556 S
O935 C921 1.289 . S
O936 La912 2.470 . S
O936 C922 1.258 . S
O937 La913 2.503 . S
O937 C922 1.256 1_554 S
O938 La913 2.521 1_655 S
O938 C923 1.261 . S
O939 La913 2.628 1_655 S
O939 C923 1.243 . S
O940 La913 2.554 . S
O940 C930 1.240 . S
O941 La912 2.482 1_554 S
O941 La913 2.757 . S
O941 C930 1.289 . S
O942 La913 2.470 . S
O942 C931 1.258 . S
O943 La912 2.503 1_554 S
O943 C931 1.256 . S
H944 C916 0.930 . S
H945 C917 0.930 . S
H946 C919 0.929 1_554 S
H947 C920 0.984 . S
H948 C925 0.930 . S
H949 C926 0.930 . S
H950 C928 0.929 . S
H951 C929 0.929 . S
H952 C970 0.995 . S
H953 C972 0.920 1_655 S
H954 C974 0.950 . S
H955 C975 0.950 . S
H956 C977 0.950 . S
H957 C980 0.950 . S
H958 C981 0.950 . S
H959 C983 0.950 . S
H960 C984 0.950 . S
H961 C985 0.951 . S
H962 C987 0.948 1_554 S
H963 C989 0.950 . S
H964 C990 0.950 . S
H965 C992 0.950 1_655 S
H966 C995 0.950 . S
H967 C996 0.950 . S
H968 C998 0.950 . S
H969 C999 0.950 . S
C970 H952 0.995 . S
C970 C971 1.340 1_655 S
C970 C972 1.358 1_655 S
C971 C970 1.340 1_455 S
C971 C975 1.385 . S
C972 H953 0.920 1_455 S
C972 C970 1.358 1_455 S
C972 C973 1.418 . S
C973 C972 1.418 . S
C973 C974 1.414 . S
C973 C976 1.499 . S
C974 H954 0.950 . S
C974 C973 1.414 . S
C974 C975 1.374 . S
C975 H955 0.950 . S
C975 C971 1.385 . S
C975 C974 1.374 . S
C976 C973 1.499 . S
C976 C977 1.373 . S
C976 C978 1.389 . S
C977 H956 0.950 . S
C977 C976 1.373 . S
C977 C993 1.377 . S
C978 C976 1.389 . S
C978 C979 1.524 1_455 S
C978 C992 1.377 . S
C979 C978 1.524 1_655 S
C979 C980 1.397 . S
C979 C984 1.363 . S
C980 H957 0.950 . S
C980 C979 1.397 . S
C980 C981 1.334 . S
C981 H958 0.950 . S
C981 C980 1.334 . S
C981 C982 1.287 . S
C982 C981 1.287 . S
C982 C983 1.524 . S
C982 H1001 0.913 . S
C983 H959 0.950 . S
C983 C982 1.524 . S
C983 C984 1.415 . S
C984 H960 0.950 . S
C984 C979 1.363 . S
C984 C983 1.415 . S
C985 H961 0.951 . S
C985 C986 1.366 1_554 S
C985 C987 1.388 1_554 S
C986 C985 1.366 1_556 S
C986 C990 1.385 . S
C987 H962 0.948 1_556 S
C987 C985 1.388 1_556 S
C987 C988 1.366 . S
C988 C987 1.366 . S
C988 C989 1.414 . S
C988 C991 1.499 . S
C989 H963 0.950 . S
C989 C988 1.414 . S
C989 C990 1.374 . S
C990 H964 0.950 . S
C990 C986 1.385 . S
C990 C989 1.374 . S
C991 C988 1.499 . S
C991 C992 1.373 . S
C991 C993 1.389 . S
C992 H965 0.950 1_455 S
C992 C978 1.377 . S
C992 C991 1.373 . S
C993 C977 1.377 . S
C993 C991 1.389 . S
C993 C994 1.524 . S
C994 C993 1.524 . S
C994 C995 1.397 . S
C994 C999 1.363 . S
C995 H966 0.950 . S
C995 C994 1.397 . S
C995 C996 1.334 . S
C996 H967 0.950 . S
C996 C995 1.334 . S
C996 C997 1.287 . S
C997 C996 1.287 . S
C997 C998 1.524 . S
C997 H1000 0.999 . S
C998 H968 0.950 . S
C998 C997 1.524 . S
C998 C999 1.415 . S
C999 H969 0.950 . S
C999 C994 1.363 . S
C999 C998 1.415 . S
H1000 C997 0.999 . S
H1001 C982 0.913 . S
H1002 C1020 0.951 . S
H1003 C1022 0.951 . S
H1004 C1024 0.950 . S
H1005 C1025 0.950 . S
H1006 C1027 0.950 . S
H1007 C1030 0.950 . S
H1008 C1031 0.950 . S
H1009 C1033 0.950 . S
H1010 C1034 0.950 . S
H1011 C1035 0.951 . S
H1012 C1037 0.951 . S
H1013 C1039 0.950 . S
H1014 C1040 0.950 . S
H1015 C1042 0.950 . S
H1016 C1045 0.950 . S
H1017 C1046 0.950 . S
H1018 C1048 0.950 . S
H1019 C1049 0.950 . S
C1020 H1002 0.951 . S
C1020 C1021 1.366 . S
C1020 C1022 1.388 . S
C1021 C1020 1.366 . S
C1021 C1025 1.385 . S
C1022 H1003 0.951 . S
C1022 C1020 1.388 . S
C1022 C1023 1.366 . S
C1023 C1022 1.366 . S
C1023 C1024 1.414 . S
C1023 C1026 1.499 . S
C1024 H1004 0.950 . S
C1024 C1023 1.414 . S
C1024 C1025 1.374 . S
C1025 H1005 0.950 . S
C1025 C1021 1.385 . S
C1025 C1024 1.374 . S
C1026 C1023 1.499 . S
C1026 C1027 1.373 . S
C1026 C1028 1.389 . S
C1027 H1006 0.950 . S
C1027 C1026 1.373 . S
C1027 C1043 1.377 . S
C1028 C1026 1.389 . S
C1028 C1029 1.524 . S
C1028 C1042 1.377 . S
C1029 C1028 1.524 . S
C1029 C1030 1.397 . S
C1029 C1034 1.363 . S
C1030 H1007 0.950 . S
C1030 C1029 1.397 . S
C1030 C1031 1.334 . S
C1031 H1008 0.950 . S
C1031 C1030 1.334 . S
C1031 C1032 1.287 . S
C1032 C1031 1.287 . S
C1032 C1033 1.524 . S
C1032 H1051 0.913 . S
C1033 H1009 0.950 . S
C1033 C1032 1.524 . S
C1033 C1034 1.415 . S
C1034 H1010 0.950 . S
C1034 C1029 1.363 . S
C1034 C1033 1.415 . S
C1035 H1011 0.951 . S
C1035 C1036 1.366 . S
C1035 C1037 1.388 . S
C1036 C1035 1.366 . S
C1036 C1040 1.385 . S
C1037 H1012 0.951 . S
C1037 C1035 1.388 . S
C1037 C1038 1.366 . S
C1038 C1037 1.366 . S
C1038 C1039 1.414 . S
C1038 C1041 1.499 . S
C1039 H1013 0.950 . S
C1039 C1038 1.414 . S
C1039 C1040 1.374 . S
C1040 H1014 0.950 . S
C1040 C1036 1.385 . S
C1040 C1039 1.374 . S
C1041 C1038 1.499 . S
C1041 C1042 1.373 . S
C1041 C1043 1.389 . S
C1042 H1015 0.950 . S
C1042 C1028 1.377 . S
C1042 C1041 1.373 . S
C1043 C1027 1.377 . S
C1043 C1041 1.389 . S
C1043 C1044 1.524 . S
C1044 C1043 1.524 . S
C1044 C1045 1.397 . S
C1044 C1049 1.363 . S
C1045 H1016 0.950 . S
C1045 C1044 1.397 . S
C1045 C1046 1.334 . S
C1046 H1017 0.950 . S
C1046 C1045 1.334 . S
C1046 C1047 1.287 . S
C1047 C1046 1.287 . S
C1047 C1048 1.524 . S
C1047 H1050 0.999 . S
C1048 H1018 0.950 . S
C1048 C1047 1.524 . S
C1048 C1049 1.415 . S
C1049 H1019 0.950 . S
C1049 C1044 1.363 . S
C1049 C1048 1.415 . S
H1050 C1047 0.999 . S
H1051 C1032 0.913 . S
H1052 C1070 0.951 . S
H1053 C1072 0.951 . S
H1054 C1074 0.950 . S
H1055 C1075 0.950 . S
H1056 C1077 0.950 . S
H1057 C1080 0.950 . S
H1058 C1081 0.950 . S
H1059 C1083 0.950 . S
H1060 C1084 0.950 . S
H1061 C1085 0.951 . S
H1062 C1087 0.951 . S
H1063 C1089 0.950 . S
H1064 C1090 0.950 . S
H1065 C1092 0.950 . S
H1066 C1095 0.950 . S
H1067 C1096 0.950 . S
H1068 C1098 0.950 . S
H1069 C1099 0.950 . S
C1070 H1052 0.951 . S
C1070 C1071 1.366 . S
C1070 C1072 1.388 . S
C1071 C1070 1.366 . S
C1071 C1075 1.385 . S
C1072 H1053 0.951 . S
C1072 C1070 1.388 . S
C1072 C1073 1.366 . S
C1073 C1072 1.366 . S
C1073 C1074 1.414 . S
C1073 C1076 1.499 . S
C1074 H1054 0.950 . S
C1074 C1073 1.414 . S
C1074 C1075 1.374 . S
C1075 H1055 0.950 . S
C1075 C1071 1.385 . S
C1075 C1074 1.374 . S
C1076 C1073 1.499 . S
C1076 C1077 1.373 . S
C1076 C1078 1.389 . S
C1077 H1056 0.950 . S
C1077 C1076 1.373 . S
C1077 C1093 1.377 . S
C1078 C1076 1.389 . S
C1078 C1079 1.524 . S
C1078 C1092 1.377 . S
C1079 C1078 1.524 . S
C1079 C1080 1.397 . S
C1079 C1084 1.363 . S
C1080 H1057 0.950 . S
C1080 C1079 1.397 . S
C1080 C1081 1.334 . S
C1081 H1058 0.950 . S
C1081 C1080 1.334 . S
C1081 C1082 1.287 . S
C1082 C1081 1.287 . S
C1082 C1083 1.524 . S
C1082 H1101 0.913 . S
C1083 H1059 0.950 . S
C1083 C1082 1.524 . S
C1083 C1084 1.415 . S
C1084 H1060 0.950 . S
C1084 C1079 1.363 . S
C1084 C1083 1.415 . S
C1085 H1061 0.951 . S
C1085 C1086 1.366 . S
C1085 C1087 1.388 . S
C1086 C1085 1.366 . S
C1086 C1090 1.385 . S
C1087 H1062 0.951 . S
C1087 C1085 1.388 . S
C1087 C1088 1.366 . S
C1088 C1087 1.366 . S
C1088 C1089 1.414 . S
C1088 C1091 1.499 . S
C1089 H1063 0.950 . S
C1089 C1088 1.414 . S
C1089 C1090 1.374 . S
C1090 H1064 0.950 . S
C1090 C1086 1.385 . S
C1090 C1089 1.374 . S
C1091 C1088 1.499 . S
C1091 C1092 1.373 . S
C1091 C1093 1.389 . S
C1092 H1065 0.950 . S
C1092 C1078 1.377 . S
C1092 C1091 1.373 . S
C1093 C1077 1.377 . S
C1093 C1091 1.389 . S
C1093 C1094 1.524 . S
C1094 C1093 1.524 . S
C1094 C1095 1.397 . S
C1094 C1099 1.363 . S
C1095 H1066 0.950 . S
C1095 C1094 1.397 . S
C1095 C1096 1.334 . S
C1096 H1067 0.950 . S
C1096 C1095 1.334 . S
C1096 C1097 1.287 . S
C1097 C1096 1.287 . S
C1097 C1098 1.524 . S
C1097 H1100 0.999 . S
C1098 H1068 0.950 . S
C1098 C1097 1.524 . S
C1098 C1099 1.415 . S
C1099 H1069 0.950 . S
C1099 C1094 1.363 . S
C1099 C1098 1.415 . S
H1100 C1097 0.999 . S
H1101 C1082 0.913 . S
H1102 C1120 0.951 . S
H1103 C1122 0.951 . S
H1104 C1124 0.950 . S
H1105 C1125 0.950 . S
H1106 C1127 0.950 . S
H1107 C1130 0.950 . S
H1108 C1131 0.950 . S
H1109 C1133 0.950 . S
H1110 C1134 0.950 . S
H1111 C1135 0.951 . S
H1112 C1137 0.951 . S
H1113 C1139 0.950 . S
H1114 C1140 0.950 . S
H1115 C1142 0.950 . S
H1116 C1145 0.950 . S
H1117 C1146 0.950 . S
H1118 C1148 0.950 . S
H1119 C1149 0.950 . S
C1120 H1102 0.951 . S
C1120 C1121 1.366 . S
C1120 C1122 1.388 . S
C1121 C1120 1.366 . S
C1121 C1125 1.385 . S
C1122 H1103 0.951 . S
C1122 C1120 1.388 . S
C1122 C1123 1.366 . S
C1123 C1122 1.366 . S
C1123 C1124 1.414 . S
C1123 C1126 1.499 . S
C1124 H1104 0.950 . S
C1124 C1123 1.414 . S
C1124 C1125 1.374 . S
C1125 H1105 0.950 . S
C1125 C1121 1.385 . S
C1125 C1124 1.374 . S
C1126 C1123 1.499 . S
C1126 C1127 1.373 . S
C1126 C1128 1.389 . S
C1127 H1106 0.950 . S
C1127 C1126 1.373 . S
C1127 C1143 1.377 . S
C1128 C1126 1.389 . S
C1128 C1129 1.524 . S
C1128 C1142 1.377 . S
C1129 C1128 1.524 . S
C1129 C1130 1.397 . S
C1129 C1134 1.363 . S
C1130 H1107 0.950 . S
C1130 C1129 1.397 . S
C1130 C1131 1.334 . S
C1131 H1108 0.950 . S
C1131 C1130 1.334 . S
C1131 C1132 1.287 . S
C1132 C1131 1.287 . S
C1132 C1133 1.524 . S
C1132 H1151 0.913 . S
C1133 H1109 0.950 . S
C1133 C1132 1.524 . S
C1133 C1134 1.415 . S
C1134 H1110 0.950 . S
C1134 C1129 1.363 . S
C1134 C1133 1.415 . S
C1135 H1111 0.951 . S
C1135 C1136 1.366 . S
C1135 C1137 1.388 . S
C1136 C1135 1.366 . S
C1136 C1140 1.385 . S
C1137 H1112 0.951 . S
C1137 C1135 1.388 . S
C1137 C1138 1.366 . S
C1138 C1137 1.366 . S
C1138 C1139 1.414 . S
C1138 C1141 1.499 . S
C1139 H1113 0.950 . S
C1139 C1138 1.414 . S
C1139 C1140 1.374 . S
C1140 H1114 0.950 . S
C1140 C1136 1.385 . S
C1140 C1139 1.374 . S
C1141 C1138 1.499 . S
C1141 C1142 1.373 . S
C1141 C1143 1.389 . S
C1142 H1115 0.950 . S
C1142 C1128 1.377 . S
C1142 C1141 1.373 . S
C1143 C1127 1.377 . S
C1143 C1141 1.389 . S
C1143 C1144 1.524 . S
C1144 C1143 1.524 . S
C1144 C1145 1.397 . S
C1144 C1149 1.363 . S
C1145 H1116 0.950 . S
C1145 C1144 1.397 . S
C1145 C1146 1.334 . S
C1146 H1117 0.950 . S
C1146 C1145 1.334 . S
C1146 C1147 1.287 . S
C1147 C1146 1.287 . S
C1147 C1148 1.524 . S
C1147 H1150 0.999 . S
C1148 H1118 0.950 . S
C1148 C1147 1.524 . S
C1148 C1149 1.415 . S
C1149 H1119 0.950 . S
C1149 C1144 1.363 . S
C1149 C1148 1.415 . S
H1150 C1147 0.999 . S
H1151 C1132 0.913 . S
H1152 C1170 0.951 . S
H1153 C1172 0.951 . S
H1154 C1174 0.950 . S
H1155 C1175 0.950 . S
H1156 C1177 0.950 . S
H1157 C1180 0.950 . S
H1158 C1181 0.950 . S
H1159 C1183 0.950 . S
H1160 C1184 0.950 . S
H1161 C1185 0.951 . S
H1162 C1187 0.951 . S
H1163 C1189 0.950 . S
H1164 C1190 0.950 . S
H1165 C1192 0.950 . S
H1166 C1195 0.950 . S
H1167 C1196 0.950 . S
H1168 C1198 0.950 . S
H1169 C1199 0.950 . S
C1170 H1152 0.951 . S
C1170 C1171 1.366 1_655 S
C1170 C1172 1.388 . S
C1171 C1170 1.366 1_455 S
C1171 C1175 1.385 . S
C1172 H1153 0.951 . S
C1172 C1170 1.388 . S
C1172 C1173 1.366 1_655 S
C1173 C1172 1.366 1_455 S
C1173 C1174 1.414 . S
C1173 C1176 1.499 . S
C1174 H1154 0.950 . S
C1174 C1173 1.414 . S
C1174 C1175 1.374 . S
C1175 H1155 0.950 . S
C1175 C1171 1.385 . S
C1175 C1174 1.374 . S
C1176 C1173 1.499 . S
C1176 C1177 1.373 . S
C1176 C1178 1.389 . S
C1177 H1156 0.950 . S
C1177 C1176 1.373 . S
C1177 C1193 1.377 . S
C1178 C1176 1.389 . S
C1178 C1179 1.524 . S
C1178 C1192 1.377 . S
C1179 C1178 1.524 . S
C1179 C1180 1.397 . S
C1179 C1184 1.363 1_455 S
C1180 H1157 0.950 . S
C1180 C1179 1.397 . S
C1180 C1181 1.334 . S
C1181 H1158 0.950 . S
C1181 C1180 1.334 . S
C1181 C1182 1.287 . S
C1182 C1181 1.287 . S
C1182 C1183 1.524 1_455 S
C1182 H1201 0.913 1_455 S
C1183 H1159 0.950 . S
C1183 C1182 1.524 1_655 S
C1183 C1184 1.415 . S
C1184 H1160 0.950 . S
C1184 C1179 1.363 1_655 S
C1184 C1183 1.415 . S
C1185 H1161 0.951 . S
C1185 C1186 1.366 . S
C1185 C1187 1.388 . S
C1186 C1185 1.366 . S
C1186 C1190 1.385 . S
C1187 H1162 0.951 . S
C1187 C1185 1.388 . S
C1187 C1188 1.366 . S
C1188 C1187 1.366 . S
C1188 C1189 1.414 . S
C1188 C1191 1.499 . S
C1189 H1163 0.950 . S
C1189 C1188 1.414 . S
C1189 C1190 1.374 . S
C1190 H1164 0.950 . S
C1190 C1186 1.385 . S
C1190 C1189 1.374 . S
C1191 C1188 1.499 . S
C1191 C1192 1.373 . S
C1191 C1193 1.389 . S
C1192 H1165 0.950 . S
C1192 C1178 1.377 . S
C1192 C1191 1.373 . S
C1193 C1177 1.377 . S
C1193 C1191 1.389 . S
C1193 C1194 1.524 . S
C1194 C1193 1.524 . S
C1194 C1195 1.397 . S
C1194 C1199 1.363 . S
C1195 H1166 0.950 . S
C1195 C1194 1.397 . S
C1195 C1196 1.334 . S
C1196 H1167 0.950 . S
C1196 C1195 1.334 . S
C1196 C1197 1.287 . S
C1197 C1196 1.287 . S
C1197 C1198 1.524 . S
C1197 H1200 0.999 . S
C1198 H1168 0.950 . S
C1198 C1197 1.524 . S
C1198 C1199 1.415 . S
C1199 H1169 0.950 . S
C1199 C1194 1.363 . S
C1199 C1198 1.415 . S
H1200 C1197 0.999 . S
H1201 C1182 0.913 1_655 S
H1202 C1220 0.951 . S
H1203 C1222 0.951 . S
H1204 C1224 0.950 . S
H1205 C1225 0.950 . S
H1206 C1227 0.950 . S
H1207 C1230 0.950 . S
H1208 C1231 0.950 . S
H1209 C1233 0.950 . S
H1210 C1234 0.950 . S
H1211 C1235 0.951 . S
H1212 C1237 0.951 . S
H1213 C1239 0.950 . S
H1214 C1240 0.950 . S
H1215 C1242 0.950 . S
H1216 C1245 0.950 . S
H1217 C1246 0.950 . S
H1218 C1248 0.950 . S
H1219 C1249 0.950 . S
C1220 H1202 0.951 . S
C1220 C1221 1.366 . S
C1220 C1222 1.388 . S
C1221 C1220 1.366 . S
C1221 C1225 1.385 . S
C1222 H1203 0.951 . S
C1222 C1220 1.388 . S
C1222 C1223 1.366 . S
C1223 C1222 1.366 . S
C1223 C1224 1.414 . S
C1223 C1226 1.499 . S
C1224 H1204 0.950 . S
C1224 C1223 1.414 . S
C1224 C1225 1.374 . S
C1225 H1205 0.950 . S
C1225 C1221 1.385 . S
C1225 C1224 1.374 . S
C1226 C1223 1.499 . S
C1226 C1227 1.373 . S
C1226 C1228 1.389 . S
C1227 H1206 0.950 . S
C1227 C1226 1.373 . S
C1227 C1243 1.377 . S
C1228 C1226 1.389 . S
C1228 C1229 1.524 . S
C1228 C1242 1.377 . S
C1229 C1228 1.524 . S
C1229 C1230 1.397 . S
C1229 C1234 1.363 . S
C1230 H1207 0.950 . S
C1230 C1229 1.397 . S
C1230 C1231 1.334 . S
C1231 H1208 0.950 . S
C1231 C1230 1.334 . S
C1231 C1232 1.287 . S
C1232 C1231 1.287 . S
C1232 C1233 1.524 . S
C1232 H1251 0.913 . S
C1233 H1209 0.950 . S
C1233 C1232 1.524 . S
C1233 C1234 1.415 . S
C1234 H1210 0.950 . S
C1234 C1229 1.363 . S
C1234 C1233 1.415 . S
C1235 H1211 0.951 . S
C1235 C1236 1.366 . S
C1235 C1237 1.388 . S
C1236 C1235 1.366 . S
C1236 C1240 1.385 . S
C1237 H1212 0.951 . S
C1237 C1235 1.388 . S
C1237 C1238 1.366 . S
C1238 C1237 1.366 . S
C1238 C1239 1.414 . S
C1238 C1241 1.499 . S
C1239 H1213 0.950 . S
C1239 C1238 1.414 . S
C1239 C1240 1.374 . S
C1240 H1214 0.950 . S
C1240 C1236 1.385 . S
C1240 C1239 1.374 . S
C1241 C1238 1.499 . S
C1241 C1242 1.373 . S
C1241 C1243 1.389 . S
C1242 H1215 0.950 . S
C1242 C1228 1.377 . S
C1242 C1241 1.373 . S
C1243 C1227 1.377 . S
C1243 C1241 1.389 . S
C1243 C1244 1.524 . S
C1244 C1243 1.524 . S
C1244 C1245 1.397 . S
C1244 C1249 1.363 . S
C1245 H1216 0.950 . S
C1245 C1244 1.397 . S
C1245 C1246 1.334 . S
C1246 H1217 0.950 . S
C1246 C1245 1.334 . S
C1246 C1247 1.287 . S
C1247 C1246 1.287 . S
C1247 C1248 1.524 . S
C1247 H1250 0.999 . S
C1248 H1218 0.950 . S
C1248 C1247 1.524 . S
C1248 C1249 1.415 . S
C1249 H1219 0.950 . S
C1249 C1244 1.363 . S
C1249 C1248 1.415 . S
H1250 C1247 0.999 . S
H1251 C1232 0.913 . S
H1252 C1270 0.951 . S
H1253 C1272 0.951 . S
H1254 C1274 0.950 . S
H1255 C1275 0.950 . S
H1256 C1277 0.950 . S
H1257 C1280 0.950 . S
H1258 C1281 0.950 . S
H1259 C1283 0.950 . S
H1260 C1284 0.950 . S
H1261 C1285 0.951 . S
H1262 C1287 0.951 . S
H1263 C1289 0.950 . S
H1264 C1290 0.950 . S
H1265 C1292 0.950 . S
H1266 C1295 0.950 . S
H1267 C1296 0.950 . S
H1268 C1298 0.950 . S
H1269 C1299 0.950 . S
C1270 H1252 0.951 . S
C1270 C1271 1.366 . S
C1270 C1272 1.388 . S
C1271 C1270 1.366 . S
C1271 C1275 1.385 . S
C1272 H1253 0.951 . S
C1272 C1270 1.388 . S
C1272 C1273 1.366 . S
C1273 C1272 1.366 . S
C1273 C1274 1.414 . S
C1273 C1276 1.499 . S
C1274 H1254 0.950 . S
C1274 C1273 1.414 . S
C1274 C1275 1.374 . S
C1275 H1255 0.950 . S
C1275 C1271 1.385 . S
C1275 C1274 1.374 . S
C1276 C1273 1.499 . S
C1276 C1277 1.373 . S
C1276 C1278 1.389 . S
C1277 H1256 0.950 . S
C1277 C1276 1.373 . S
C1277 C1293 1.377 . S
C1278 C1276 1.389 . S
C1278 C1279 1.524 . S
C1278 C1292 1.377 . S
C1279 C1278 1.524 . S
C1279 C1280 1.397 . S
C1279 C1284 1.363 . S
C1280 H1257 0.950 . S
C1280 C1279 1.397 . S
C1280 C1281 1.334 . S
C1281 H1258 0.950 . S
C1281 C1280 1.334 . S
C1281 C1282 1.287 . S
C1282 C1281 1.287 . S
C1282 C1283 1.524 . S
C1282 H1301 0.913 . S
C1283 H1259 0.950 . S
C1283 C1282 1.524 . S
C1283 C1284 1.415 . S
C1284 H1260 0.950 . S
C1284 C1279 1.363 . S
C1284 C1283 1.415 . S
C1285 H1261 0.951 . S
C1285 C1286 1.366 . S
C1285 C1287 1.388 . S
C1286 C1285 1.366 . S
C1286 C1290 1.385 . S
C1287 H1262 0.951 . S
C1287 C1285 1.388 . S
C1287 C1288 1.366 . S
C1288 C1287 1.366 . S
C1288 C1289 1.414 . S
C1288 C1291 1.499 . S
C1289 H1263 0.950 . S
C1289 C1288 1.414 . S
C1289 C1290 1.374 . S
C1290 H1264 0.950 . S
C1290 C1286 1.385 . S
C1290 C1289 1.374 . S
C1291 C1288 1.499 . S
C1291 C1292 1.373 . S
C1291 C1293 1.389 . S
C1292 H1265 0.950 . S
C1292 C1278 1.377 . S
C1292 C1291 1.373 . S
C1293 C1277 1.377 . S
C1293 C1291 1.389 . S
C1293 C1294 1.524 . S
C1294 C1293 1.524 . S
C1294 C1295 1.397 . S
C1294 C1299 1.363 . S
C1295 H1266 0.950 . S
C1295 C1294 1.397 . S
C1295 C1296 1.334 . S
C1296 H1267 0.950 . S
C1296 C1295 1.334 . S
C1296 C1297 1.287 . S
C1297 C1296 1.287 . S
C1297 C1298 1.524 . S
C1297 H1300 0.999 . S
C1298 H1268 0.950 . S
C1298 C1297 1.524 . S
C1298 C1299 1.415 . S
C1299 H1269 0.950 . S
C1299 C1294 1.363 . S
C1299 C1298 1.415 . S
H1300 C1297 0.999 . S
H1301 C1282 0.913 . S
H1302 C1320 0.951 . S
H1303 C1322 0.951 . S
H1304 C1324 0.950 . S
H1305 C1325 0.950 . S
H1306 C1327 0.950 . S
H1307 C1330 0.950 . S
H1308 C1331 0.950 . S
H1309 C1333 0.950 . S
H1310 C1334 0.950 . S
H1311 C1335 0.951 . S
H1312 C1337 0.951 . S
H1313 C1339 0.950 . S
H1314 C1340 0.950 . S
H1315 C1342 0.950 . S
H1316 C1345 0.950 . S
H1317 C1346 0.950 . S
H1318 C1348 0.950 . S
H1319 C1349 0.950 . S
C1320 H1302 0.951 . S
C1320 C1321 1.366 . S
C1320 C1322 1.388 . S
C1321 C1320 1.366 . S
C1321 C1325 1.385 . S
C1322 H1303 0.951 . S
C1322 C1320 1.388 . S
C1322 C1323 1.366 . S
C1323 C1322 1.366 . S
C1323 C1324 1.414 . S
C1323 C1326 1.499 . S
C1324 H1304 0.950 . S
C1324 C1323 1.414 . S
C1324 C1325 1.374 . S
C1325 H1305 0.950 . S
C1325 C1321 1.385 . S
C1325 C1324 1.374 . S
C1326 C1323 1.499 . S
C1326 C1327 1.373 . S
C1326 C1328 1.389 . S
C1327 H1306 0.950 . S
C1327 C1326 1.373 . S
C1327 C1343 1.377 . S
C1328 C1326 1.389 . S
C1328 C1329 1.524 . S
C1328 C1342 1.377 . S
C1329 C1328 1.524 . S
C1329 C1330 1.397 . S
C1329 C1334 1.363 . S
C1330 H1307 0.950 . S
C1330 C1329 1.397 . S
C1330 C1331 1.334 . S
C1331 H1308 0.950 . S
C1331 C1330 1.334 . S
C1331 C1332 1.287 . S
C1332 C1331 1.287 . S
C1332 C1333 1.524 . S
C1332 H1351 0.913 . S
C1333 H1309 0.950 . S
C1333 C1332 1.524 . S
C1333 C1334 1.415 . S
C1334 H1310 0.950 . S
C1334 C1329 1.363 . S
C1334 C1333 1.415 . S
C1335 H1311 0.951 . S
C1335 C1336 1.366 . S
C1335 C1337 1.388 . S
C1336 C1335 1.366 . S
C1336 C1340 1.385 . S
C1337 H1312 0.951 . S
C1337 C1335 1.388 . S
C1337 C1338 1.366 . S
C1338 C1337 1.366 . S
C1338 C1339 1.414 . S
C1338 C1341 1.499 . S
C1339 H1313 0.950 . S
C1339 C1338 1.414 . S
C1339 C1340 1.374 . S
C1340 H1314 0.950 . S
C1340 C1336 1.385 . S
C1340 C1339 1.374 . S
C1341 C1338 1.499 . S
C1341 C1342 1.373 . S
C1341 C1343 1.389 . S
C1342 H1315 0.950 . S
C1342 C1328 1.377 . S
C1342 C1341 1.373 . S
C1343 C1327 1.377 . S
C1343 C1341 1.389 . S
C1343 C1344 1.524 . S
C1344 C1343 1.524 . S
C1344 C1345 1.397 . S
C1344 C1349 1.363 . S
C1345 H1316 0.950 . S
C1345 C1344 1.397 . S
C1345 C1346 1.334 . S
C1346 H1317 0.950 . S
C1346 C1345 1.334 . S
C1346 C1347 1.287 . S
C1347 C1346 1.287 . S
C1347 C1348 1.524 . S
C1347 H1350 0.999 . S
C1348 H1318 0.950 . S
C1348 C1347 1.524 . S
C1348 C1349 1.415 . S
C1349 H1319 0.950 . S
C1349 C1344 1.363 . S
C1349 C1348 1.415 . S
H1350 C1347 0.999 . S
H1351 C1332 0.913 . S
H1352 C1370 0.951 . S
H1353 C1372 0.951 . S
H1354 C1374 0.950 . S
H1355 C1375 0.950 . S
H1356 C1377 0.950 . S
H1357 C1380 0.950 1_655 S
H1358 C1381 0.950 . S
H1359 C1383 0.950 . S
H1360 C1384 0.950 . S
H1361 C1385 0.951 1_655 S
H1362 C1387 0.951 . S
H1363 C1389 0.950 . S
H1364 C1390 0.950 . S
H1365 C1392 0.950 . S
H1366 C1395 0.950 . S
H1367 C1396 0.950 . S
H1368 C1398 0.950 . S
H1369 C1399 0.950 . S
C1370 H1352 0.951 . S
C1370 C1371 1.366 . S
C1370 C1372 1.388 . S
C1371 C1370 1.366 . S
C1371 C1375 1.385 . S
C1372 H1353 0.951 . S
C1372 C1370 1.388 . S
C1372 C1373 1.366 . S
C1373 C1372 1.366 . S
C1373 C1374 1.414 . S
C1373 C1376 1.499 . S
C1374 H1354 0.950 . S
C1374 C1373 1.414 . S
C1374 C1375 1.374 . S
C1375 H1355 0.950 . S
C1375 C1371 1.385 . S
C1375 C1374 1.374 . S
C1376 C1373 1.499 . S
C1376 C1377 1.373 . S
C1376 C1378 1.389 . S
C1377 H1356 0.950 . S
C1377 C1376 1.373 . S
C1377 C1393 1.377 . S
C1378 C1376 1.389 . S
C1378 C1379 1.524 1_655 S
C1378 C1392 1.377 1_655 S
C1379 C1378 1.524 1_455 S
C1379 C1380 1.397 . S
C1379 C1384 1.363 . S
C1380 H1357 0.950 1_455 S
C1380 C1379 1.397 . S
C1380 C1381 1.334 . S
C1381 H1358 0.950 . S
C1381 C1380 1.334 . S
C1381 C1382 1.287 . S
C1382 C1381 1.287 . S
C1382 C1383 1.524 . S
C1382 H1401 0.913 . S
C1383 H1359 0.950 . S
C1383 C1382 1.524 . S
C1383 C1384 1.415 . S
C1384 H1360 0.950 . S
C1384 C1379 1.363 . S
C1384 C1383 1.415 . S
C1385 H1361 0.951 1_455 S
C1385 C1386 1.366 . S
C1385 C1387 1.388 1_455 S
C1386 C1385 1.366 . S
C1386 C1390 1.385 . S
C1387 H1362 0.951 . S
C1387 C1385 1.388 1_655 S
C1387 C1388 1.366 1_655 S
C1388 C1387 1.366 1_455 S
C1388 C1389 1.414 . S
C1388 C1391 1.499 1_455 S
C1389 H1363 0.950 . S
C1389 C1388 1.414 . S
C1389 C1390 1.374 . S
C1390 H1364 0.950 . S
C1390 C1386 1.385 . S
C1390 C1389 1.374 . S
C1391 C1388 1.499 1_655 S
C1391 C1392 1.373 1_655 S
C1391 C1393 1.389 . S
C1392 H1365 0.950 . S
C1392 C1378 1.377 1_455 S
C1392 C1391 1.373 1_455 S
C1393 C1377 1.377 . S
C1393 C1391 1.389 . S
C1393 C1394 1.524 . S
C1394 C1393 1.524 . S
C1394 C1395 1.397 . S
C1394 C1399 1.363 . S
C1395 H1366 0.950 . S
C1395 C1394 1.397 . S
C1395 C1396 1.334 1_545 S
C1396 H1367 0.950 . S
C1396 C1395 1.334 1_565 S
C1396 C1397 1.287 . S
C1397 C1396 1.287 . S
C1397 C1398 1.524 1_565 S
C1397 H1400 0.999 . S
C1398 H1368 0.950 . S
C1398 C1397 1.524 1_545 S
C1398 C1399 1.415 . S
C1399 H1369 0.950 . S
C1399 C1394 1.363 . S
C1399 C1398 1.415 . S
H1400 C1397 0.999 . S
H1401 C1382 0.913 . S
H1402 C1420 0.951 . S
H1403 C1422 0.951 . S
H1404 C1424 0.950 . S
H1405 C1425 0.950 . S
H1406 C1427 0.950 . S
H1407 C1430 0.950 . S
H1408 C1431 0.950 . S
H1409 C1433 0.950 . S
H1410 C1434 0.950 . S
H1411 C1435 0.951 . S
H1412 C1437 0.951 . S
H1413 C1439 0.950 . S
H1414 C1440 0.950 . S
H1415 C1442 0.950 . S
H1416 C1445 0.950 . S
H1417 C1446 0.950 . S
H1418 C1448 0.950 . S
H1419 C1449 0.950 . S
C1420 H1402 0.951 . S
C1420 C1421 1.366 . S
C1420 C1422 1.388 . S
C1421 C1420 1.366 . S
C1421 C1425 1.385 . S
C1422 H1403 0.951 . S
C1422 C1420 1.388 . S
C1422 C1423 1.366 . S
C1423 C1422 1.366 . S
C1423 C1424 1.414 . S
C1423 C1426 1.499 . S
C1424 H1404 0.950 . S
C1424 C1423 1.414 . S
C1424 C1425 1.374 . S
C1425 H1405 0.950 . S
C1425 C1421 1.385 . S
C1425 C1424 1.374 . S
C1426 C1423 1.499 . S
C1426 C1427 1.373 . S
C1426 C1428 1.389 . S
C1427 H1406 0.950 . S
C1427 C1426 1.373 . S
C1427 C1443 1.377 . S
C1428 C1426 1.389 . S
C1428 C1429 1.524 . S
C1428 C1442 1.377 . S
C1429 C1428 1.524 . S
C1429 C1430 1.397 . S
C1429 C1434 1.363 . S
C1430 H1407 0.950 . S
C1430 C1429 1.397 . S
C1430 C1431 1.334 . S
C1431 H1408 0.950 . S
C1431 C1430 1.334 . S
C1431 C1432 1.287 . S
C1432 C1431 1.287 . S
C1432 C1433 1.524 . S
C1432 H1451 0.913 . S
C1433 H1409 0.950 . S
C1433 C1432 1.524 . S
C1433 C1434 1.415 . S
C1434 H1410 0.950 . S
C1434 C1429 1.363 . S
C1434 C1433 1.415 . S
C1435 H1411 0.951 . S
C1435 C1436 1.366 . S
C1435 C1437 1.388 . S
C1436 C1435 1.366 . S
C1436 C1440 1.385 . S
C1437 H1412 0.951 . S
C1437 C1435 1.388 . S
C1437 C1438 1.366 . S
C1438 C1437 1.366 . S
C1438 C1439 1.414 . S
C1438 C1441 1.499 . S
C1439 H1413 0.950 . S
C1439 C1438 1.414 . S
C1439 C1440 1.374 . S
C1440 H1414 0.950 . S
C1440 C1436 1.385 . S
C1440 C1439 1.374 . S
C1441 C1438 1.499 . S
C1441 C1442 1.373 . S
C1441 C1443 1.389 . S
C1442 H1415 0.950 . S
C1442 C1428 1.377 . S
C1442 C1441 1.373 . S
C1443 C1427 1.377 . S
C1443 C1441 1.389 . S
C1443 C1444 1.524 . S
C1444 C1443 1.524 . S
C1444 C1445 1.397 . S
C1444 C1449 1.363 . S
C1445 H1416 0.950 . S
C1445 C1444 1.397 . S
C1445 C1446 1.334 . S
C1446 H1417 0.950 . S
C1446 C1445 1.334 . S
C1446 C1447 1.287 . S
C1447 C1446 1.287 . S
C1447 C1448 1.524 . S
C1447 H1450 0.999 . S
C1448 H1418 0.950 . S
C1448 C1447 1.524 . S
C1448 C1449 1.415 . S
C1449 H1419 0.950 . S
C1449 C1444 1.363 . S
C1449 C1448 1.415 . S
H1450 C1447 0.999 . S
H1451 C1432 0.913 . S
H1452 C1470 0.951 . S
H1453 C1472 0.951 . S
H1454 C1474 0.950 . S
H1455 C1475 0.950 . S
H1456 C1477 0.950 . S
H1457 C1480 0.950 . S
H1458 C1481 0.950 . S
H1459 C1483 0.950 . S
H1460 C1484 0.950 . S
H1461 C1485 0.951 . S
H1462 C1487 0.951 . S
H1463 C1489 0.950 . S
H1464 C1490 0.950 . S
H1465 C1492 0.950 . S
H1466 C1495 0.950 . S
H1467 C1496 0.950 . S
H1468 C1498 0.950 . S
H1469 C1499 0.950 . S
C1470 H1452 0.951 . S
C1470 C1471 1.366 . S
C1470 C1472 1.388 . S
C1471 C1470 1.366 . S
C1471 C1475 1.385 . S
C1472 H1453 0.951 . S
C1472 C1470 1.388 . S
C1472 C1473 1.366 . S
C1473 C1472 1.366 . S
C1473 C1474 1.414 . S
C1473 C1476 1.499 . S
C1474 H1454 0.950 . S
C1474 C1473 1.414 . S
C1474 C1475 1.374 . S
C1475 H1455 0.950 . S
C1475 C1471 1.385 . S
C1475 C1474 1.374 . S
C1476 C1473 1.499 . S
C1476 C1477 1.373 . S
C1476 C1478 1.389 . S
C1477 H1456 0.950 . S
C1477 C1476 1.373 . S
C1477 C1493 1.377 . S
C1478 C1476 1.389 . S
C1478 C1479 1.524 . S
C1478 C1492 1.377 . S
C1479 C1478 1.524 . S
C1479 C1480 1.397 . S
C1479 C1484 1.363 . S
C1480 H1457 0.950 . S
C1480 C1479 1.397 . S
C1480 C1481 1.334 . S
C1481 H1458 0.950 . S
C1481 C1480 1.334 . S
C1481 C1482 1.287 . S
C1482 C1481 1.287 . S
C1482 C1483 1.524 . S
C1482 H1501 0.913 . S
C1483 H1459 0.950 . S
C1483 C1482 1.524 . S
C1483 C1484 1.415 . S
C1484 H1460 0.950 . S
C1484 C1479 1.363 . S
C1484 C1483 1.415 . S
C1485 H1461 0.951 . S
C1485 C1486 1.366 . S
C1485 C1487 1.388 . S
C1486 C1485 1.366 . S
C1486 C1490 1.385 . S
C1487 H1462 0.951 . S
C1487 C1485 1.388 . S
C1487 C1488 1.366 . S
C1488 C1487 1.366 . S
C1488 C1489 1.414 . S
C1488 C1491 1.499 . S
C1489 H1463 0.950 . S
C1489 C1488 1.414 . S
C1489 C1490 1.374 . S
C1490 H1464 0.950 . S
C1490 C1486 1.385 . S
C1490 C1489 1.374 . S
C1491 C1488 1.499 . S
C1491 C1492 1.373 . S
C1491 C1493 1.389 . S
C1492 H1465 0.950 . S
C1492 C1478 1.377 . S
C1492 C1491 1.373 . S
C1493 C1477 1.377 . S
C1493 C1491 1.389 . S
C1493 C1494 1.524 . S
C1494 C1493 1.524 . S
C1494 C1495 1.397 . S
C1494 C1499 1.363 . S
C1495 H1466 0.950 . S
C1495 C1494 1.397 . S
C1495 C1496 1.334 . S
C1496 H1467 0.950 . S
C1496 C1495 1.334 . S
C1496 C1497 1.287 . S
C1497 C1496 1.287 . S
C1497 C1498 1.524 . S
C1497 H1500 0.999 . S
C1498 H1468 0.950 . S
C1498 C1497 1.524 . S
C1498 C1499 1.415 . S
C1499 H1469 0.950 . S
C1499 C1494 1.363 . S
C1499 C1498 1.415 . S
H1500 C1497 0.999 . S
H1501 C1482 0.913 . S
H1502 C1520 0.951 . S
H1503 C1522 0.951 . S
H1504 C1524 0.950 . S
H1505 C1525 0.950 . S
H1506 C1527 0.950 . S
H1507 C1530 0.950 . S
H1508 C1531 0.950 . S
H1509 C1533 0.950 . S
H1510 C1534 0.950 . S
H1511 C1535 0.951 . S
H1512 C1537 0.951 . S
H1513 C1539 0.950 . S
H1514 C1540 0.950 . S
H1515 C1542 0.950 . S
H1516 C1545 0.950 . S
H1517 C1546 0.950 . S
H1518 C1548 0.950 . S
H1519 C1549 0.950 . S
C1520 H1502 0.951 . S
C1520 C1521 1.366 . S
C1520 C1522 1.388 . S
C1521 C1520 1.366 . S
C1521 C1525 1.385 . S
C1522 H1503 0.951 . S
C1522 C1520 1.388 . S
C1522 C1523 1.366 . S
C1523 C1522 1.366 . S
C1523 C1524 1.414 . S
C1523 C1526 1.499 . S
C1524 H1504 0.950 . S
C1524 C1523 1.414 . S
C1524 C1525 1.374 . S
C1525 H1505 0.950 . S
C1525 C1521 1.385 . S
C1525 C1524 1.374 . S
C1526 C1523 1.499 . S
C1526 C1527 1.373 . S
C1526 C1528 1.389 . S
C1527 H1506 0.950 . S
C1527 C1526 1.373 . S
C1527 C1543 1.377 . S
C1528 C1526 1.389 . S
C1528 C1529 1.524 . S
C1528 C1542 1.377 . S
C1529 C1528 1.524 . S
C1529 C1530 1.397 . S
C1529 C1534 1.363 . S
C1530 H1507 0.950 . S
C1530 C1529 1.397 . S
C1530 C1531 1.334 . S
C1531 H1508 0.950 . S
C1531 C1530 1.334 . S
C1531 C1532 1.287 . S
C1532 C1531 1.287 . S
C1532 C1533 1.524 . S
C1532 H1551 0.913 . S
C1533 H1509 0.950 . S
C1533 C1532 1.524 . S
C1533 C1534 1.415 . S
C1534 H1510 0.950 . S
C1534 C1529 1.363 . S
C1534 C1533 1.415 . S
C1535 H1511 0.951 . S
C1535 C1536 1.366 . S
C1535 C1537 1.388 . S
C1536 C1535 1.366 . S
C1536 C1540 1.385 . S
C1537 H1512 0.951 . S
C1537 C1535 1.388 . S
C1537 C1538 1.366 . S
C1538 C1537 1.366 . S
C1538 C1539 1.414 . S
C1538 C1541 1.499 . S
C1539 H1513 0.950 . S
C1539 C1538 1.414 . S
C1539 C1540 1.374 . S
C1540 H1514 0.950 . S
C1540 C1536 1.385 . S
C1540 C1539 1.374 . S
C1541 C1538 1.499 . S
C1541 C1542 1.373 . S
C1541 C1543 1.389 . S
C1542 H1515 0.950 . S
C1542 C1528 1.377 . S
C1542 C1541 1.373 . S
C1543 C1527 1.377 . S
C1543 C1541 1.389 . S
C1543 C1544 1.524 . S
C1544 C1543 1.524 . S
C1544 C1545 1.397 . S
C1544 C1549 1.363 . S
C1545 H1516 0.950 . S
C1545 C1544 1.397 . S
C1545 C1546 1.334 . S
C1546 H1517 0.950 . S
C1546 C1545 1.334 . S
C1546 C1547 1.287 . S
C1547 C1546 1.287 . S
C1547 C1548 1.524 . S
C1547 H1550 0.999 . S
C1548 H1518 0.950 . S
C1548 C1547 1.524 . S
C1548 C1549 1.415 . S
C1549 H1519 0.950 . S
C1549 C1544 1.363 . S
C1549 C1548 1.415 . S
H1550 C1547 0.999 . S
H1551 C1532 0.913 . S
H1552 C1570 0.951 . S
H1553 C1572 0.951 . S
H1554 C1574 0.950 . S
H1555 C1575 0.950 . S
H1556 C1577 0.950 . S
H1557 C1580 0.950 . S
H1558 C1581 0.950 . S
H1559 C1583 0.909 1_455 S
H1560 C1584 0.950 1_455 S
H1561 C1585 0.951 1_655 S
H1562 C1587 0.951 . S
H1563 C1589 0.950 . S
H1564 C1590 0.950 . S
H1565 C1592 0.950 . S
H1566 C1595 0.950 . S
H1567 C1596 0.950 . S
H1568 C1598 0.950 . S
H1569 C1599 0.950 . S
C1570 H1552 0.951 . S
C1570 C1571 1.366 . S
C1570 C1572 1.388 . S
C1571 C1570 1.366 . S
C1571 C1575 1.385 . S
C1572 H1553 0.951 . S
C1572 C1570 1.388 . S
C1572 C1573 1.366 . S
C1573 C1572 1.366 . S
C1573 C1574 1.414 . S
C1573 C1576 1.499 . S
C1574 H1554 0.950 . S
C1574 C1573 1.414 . S
C1574 C1575 1.374 . S
C1575 H1555 0.950 . S
C1575 C1571 1.385 . S
C1575 C1574 1.374 . S
C1576 C1573 1.499 . S
C1576 C1577 1.373 . S
C1576 C1578 1.389 . S
C1577 H1556 0.950 . S
C1577 C1576 1.373 . S
C1577 C1593 1.377 . S
C1578 C1576 1.389 . S
C1578 C1579 1.524 . S
C1578 C1592 1.377 . S
C1579 C1578 1.524 . S
C1579 C1580 1.397 . S
C1579 C1584 1.363 . S
C1580 H1557 0.950 . S
C1580 C1579 1.397 . S
C1580 C1581 1.334 1_545 S
C1581 H1558 0.950 . S
C1581 C1580 1.334 1_565 S
C1581 C1582 1.287 . S
C1582 C1581 1.287 . S
C1582 C1583 1.524 . S
C1582 H1601 0.913 . S
C1583 H1559 0.909 1_655 S
C1583 C1582 1.524 . S
C1583 C1584 1.415 1_565 S
C1584 H1560 0.950 1_655 S
C1584 C1579 1.363 . S
C1584 C1583 1.415 1_545 S
C1585 H1561 0.951 1_455 S
C1585 C1586 1.366 . S
C1585 C1587 1.388 1_455 S
C1586 C1585 1.366 . S
C1586 C1590 1.385 . S
C1587 H1562 0.951 . S
C1587 C1585 1.388 1_655 S
C1587 C1588 1.366 1_655 S
C1588 C1587 1.366 1_455 S
C1588 C1589 1.414 . S
C1588 C1591 1.499 1_455 S
C1589 H1563 0.950 . S
C1589 C1588 1.414 . S
C1589 C1590 1.374 . S
C1590 H1564 0.950 . S
C1590 C1586 1.385 . S
C1590 C1589 1.374 . S
C1591 C1588 1.499 1_655 S
C1591 C1592 1.373 . S
C1591 C1593 1.389 . S
C1592 H1565 0.950 . S
C1592 C1578 1.377 . S
C1592 C1591 1.373 . S
C1593 C1577 1.377 . S
C1593 C1591 1.389 . S
C1593 C1594 1.524 . S
C1594 C1593 1.524 . S
C1594 C1595 1.397 1_655 S
C1594 C1599 1.363 . S
C1595 H1566 0.950 . S
C1595 C1594 1.397 1_455 S
C1595 C1596 1.334 . S
C1596 H1567 0.950 . S
C1596 C1595 1.334 . S
C1596 C1597 1.287 . S
C1597 C1596 1.287 . S
C1597 C1598 1.524 1_455 S
C1597 H1600 0.999 . S
C1598 H1568 0.950 . S
C1598 C1597 1.524 1_655 S
C1598 C1599 1.415 . S
C1599 H1569 0.950 . S
C1599 C1594 1.363 . S
C1599 C1598 1.415 . S
H1600 C1597 0.999 . S
H1601 C1582 0.913 . S
H1602 C1620 0.951 . S
H1603 C1622 0.951 . S
H1604 C1624 0.950 . S
H1605 C1625 0.950 . S
H1606 C1627 0.950 . S
H1607 C1630 0.950 . S
H1608 C1631 0.950 . S
H1609 C1633 0.950 . S
H1610 C1634 0.950 . S
H1611 C1635 0.951 . S
H1612 C1637 0.951 . S
H1613 C1639 0.950 . S
H1614 C1640 0.950 . S
H1615 C1642 0.950 . S
H1616 C1645 0.950 . S
H1617 C1646 0.950 . S
H1618 C1648 0.950 . S
H1619 C1649 0.950 . S
C1620 H1602 0.951 . S
C1620 C1621 1.366 . S
C1620 C1622 1.388 . S
C1621 C1620 1.366 . S
C1621 C1625 1.385 . S
C1622 H1603 0.951 . S
C1622 C1620 1.388 . S
C1622 C1623 1.366 . S
C1623 C1622 1.366 . S
C1623 C1624 1.414 . S
C1623 C1626 1.499 . S
C1624 H1604 0.950 . S
C1624 C1623 1.414 . S
C1624 C1625 1.374 . S
C1625 H1605 0.950 . S
C1625 C1621 1.385 . S
C1625 C1624 1.374 . S
C1626 C1623 1.499 . S
C1626 C1627 1.373 . S
C1626 C1628 1.389 . S
C1627 H1606 0.950 . S
C1627 C1626 1.373 . S
C1627 C1643 1.377 . S
C1628 C1626 1.389 . S
C1628 C1629 1.524 . S
C1628 C1642 1.377 . S
C1629 C1628 1.524 . S
C1629 C1630 1.397 . S
C1629 C1634 1.363 . S
C1630 H1607 0.950 . S
C1630 C1629 1.397 . S
C1630 C1631 1.334 . S
C1631 H1608 0.950 . S
C1631 C1630 1.334 . S
C1631 C1632 1.287 . S
C1632 C1631 1.287 . S
C1632 C1633 1.524 . S
C1632 H1651 0.913 . S
C1633 H1609 0.950 . S
C1633 C1632 1.524 . S
C1633 C1634 1.415 . S
C1634 H1610 0.950 . S
C1634 C1629 1.363 . S
C1634 C1633 1.415 . S
C1635 H1611 0.951 . S
C1635 C1636 1.366 . S
C1635 C1637 1.388 . S
C1636 C1635 1.366 . S
C1636 C1640 1.385 . S
C1637 H1612 0.951 . S
C1637 C1635 1.388 . S
C1637 C1638 1.366 . S
C1638 C1637 1.366 . S
C1638 C1639 1.414 . S
C1638 C1641 1.499 . S
C1639 H1613 0.950 . S
C1639 C1638 1.414 . S
C1639 C1640 1.374 . S
C1640 H1614 0.950 . S
C1640 C1636 1.385 . S
C1640 C1639 1.374 . S
C1641 C1638 1.499 . S
C1641 C1642 1.373 . S
C1641 C1643 1.389 . S
C1642 H1615 0.950 . S
C1642 C1628 1.377 . S
C1642 C1641 1.373 . S
C1643 C1627 1.377 . S
C1643 C1641 1.389 . S
C1643 C1644 1.524 . S
C1644 C1643 1.524 . S
C1644 C1645 1.397 . S
C1644 C1649 1.363 . S
C1645 H1616 0.950 . S
C1645 C1644 1.397 . S
C1645 C1646 1.334 . S
C1646 H1617 0.950 . S
C1646 C1645 1.334 . S
C1646 C1647 1.287 . S
C1647 C1646 1.287 . S
C1647 C1648 1.524 . S
C1647 H1650 0.999 . S
C1648 H1618 0.950 . S
C1648 C1647 1.524 . S
C1648 C1649 1.415 . S
C1649 H1619 0.950 . S
C1649 C1644 1.363 . S
C1649 C1648 1.415 . S
H1650 C1647 0.999 . S
H1651 C1632 0.913 . S
H1652 C1670 0.951 . S
H1653 C1672 0.951 . S
H1654 C1674 0.950 . S
H1655 C1675 0.950 . S
H1656 C1677 0.950 . S
H1657 C1680 0.950 . S
H1658 C1681 0.950 . S
H1659 C1683 0.950 . S
H1660 C1684 0.950 . S
H1661 C1685 0.951 . S
H1662 C1687 0.951 . S
H1663 C1689 0.950 . S
H1664 C1690 0.950 . S
H1665 C1692 0.950 . S
H1666 C1695 0.950 . S
H1667 C1696 0.950 . S
H1668 C1698 0.950 . S
H1669 C1699 0.950 . S
C1670 H1652 0.951 . S
C1670 C1671 1.366 . S
C1670 C1672 1.388 . S
C1671 C1670 1.366 . S
C1671 C1675 1.385 . S
C1672 H1653 0.951 . S
C1672 C1670 1.388 . S
C1672 C1673 1.366 . S
C1673 C1672 1.366 . S
C1673 C1674 1.414 . S
C1673 C1676 1.499 . S
C1674 H1654 0.950 . S
C1674 C1673 1.414 . S
C1674 C1675 1.374 . S
C1675 H1655 0.950 . S
C1675 C1671 1.385 . S
C1675 C1674 1.374 . S
C1676 C1673 1.499 . S
C1676 C1677 1.373 . S
C1676 C1678 1.389 . S
C1677 H1656 0.950 . S
C1677 C1676 1.373 . S
C1677 C1693 1.377 . S
C1678 C1676 1.389 . S
C1678 C1679 1.524 . S
C1678 C1692 1.377 . S
C1679 C1678 1.524 . S
C1679 C1680 1.397 . S
C1679 C1684 1.363 . S
C1680 H1657 0.950 . S
C1680 C1679 1.397 . S
C1680 C1681 1.334 . S
C1681 H1658 0.950 . S
C1681 C1680 1.334 . S
C1681 C1682 1.287 . S
C1682 C1681 1.287 . S
C1682 C1683 1.524 . S
C1682 H1701 0.913 . S
C1683 H1659 0.950 . S
C1683 C1682 1.524 . S
C1683 C1684 1.415 . S
C1684 H1660 0.950 . S
C1684 C1679 1.363 . S
C1684 C1683 1.415 . S
C1685 H1661 0.951 . S
C1685 C1686 1.366 . S
C1685 C1687 1.388 . S
C1686 C1685 1.366 . S
C1686 C1690 1.385 . S
C1687 H1662 0.951 . S
C1687 C1685 1.388 . S
C1687 C1688 1.366 . S
C1688 C1687 1.366 . S
C1688 C1689 1.414 . S
C1688 C1691 1.499 . S
C1689 H1663 0.950 . S
C1689 C1688 1.414 . S
C1689 C1690 1.374 . S
C1690 H1664 0.950 . S
C1690 C1686 1.385 . S
C1690 C1689 1.374 . S
C1691 C1688 1.499 . S
C1691 C1692 1.373 . S
C1691 C1693 1.389 . S
C1692 H1665 0.950 . S
C1692 C1678 1.377 . S
C1692 C1691 1.373 . S
C1693 C1677 1.377 . S
C1693 C1691 1.389 . S
C1693 C1694 1.524 . S
C1694 C1693 1.524 . S
C1694 C1695 1.397 . S
C1694 C1699 1.363 . S
C1695 H1666 0.950 . S
C1695 C1694 1.397 . S
C1695 C1696 1.334 . S
C1696 H1667 0.950 . S
C1696 C1695 1.334 . S
C1696 C1697 1.287 . S
C1697 C1696 1.287 . S
C1697 C1698 1.524 . S
C1697 H1700 0.999 . S
C1698 H1668 0.950 . S
C1698 C1697 1.524 . S
C1698 C1699 1.415 . S
C1699 H1669 0.950 . S
C1699 C1694 1.363 . S
C1699 C1698 1.415 . S
H1700 C1697 0.999 . S
H1701 C1682 0.913 . S
H1702 C1720 0.951 . S
H1703 C1722 0.951 . S
H1704 C1724 0.950 . S
H1705 C1725 0.950 . S
H1706 C1727 0.950 . S
H1707 C1730 0.950 . S
H1708 C1731 0.950 . S
H1709 C1733 0.950 . S
H1710 C1734 0.950 . S
H1711 C1735 0.951 . S
H1712 C1737 0.951 . S
H1713 C1739 0.950 . S
H1714 C1740 0.950 . S
H1715 C1742 0.950 . S
H1716 C1745 0.950 . S
H1717 C1746 0.950 . S
H1718 C1748 0.950 . S
H1719 C1749 0.950 . S
C1720 H1702 0.951 . S
C1720 C1721 1.366 . S
C1720 C1722 1.388 . S
C1721 C1720 1.366 . S
C1721 C1725 1.385 . S
C1722 H1703 0.951 . S
C1722 C1720 1.388 . S
C1722 C1723 1.366 . S
C1723 C1722 1.366 . S
C1723 C1724 1.414 . S
C1723 C1726 1.499 . S
C1724 H1704 0.950 . S
C1724 C1723 1.414 . S
C1724 C1725 1.374 . S
C1725 H1705 0.950 . S
C1725 C1721 1.385 . S
C1725 C1724 1.374 . S
C1726 C1723 1.499 . S
C1726 C1727 1.373 . S
C1726 C1728 1.389 . S
C1727 H1706 0.950 . S
C1727 C1726 1.373 . S
C1727 C1743 1.377 . S
C1728 C1726 1.389 . S
C1728 C1729 1.524 . S
C1728 C1742 1.377 . S
C1729 C1728 1.524 . S
C1729 C1730 1.397 . S
C1729 C1734 1.363 . S
C1730 H1707 0.950 . S
C1730 C1729 1.397 . S
C1730 C1731 1.334 . S
C1731 H1708 0.950 . S
C1731 C1730 1.334 . S
C1731 C1732 1.287 . S
C1732 C1731 1.287 . S
C1732 C1733 1.524 . S
C1732 H1751 0.913 . S
C1733 H1709 0.950 . S
C1733 C1732 1.524 . S
C1733 C1734 1.415 . S
C1734 H1710 0.950 . S
C1734 C1729 1.363 . S
C1734 C1733 1.415 . S
C1735 H1711 0.951 . S
C1735 C1736 1.366 . S
C1735 C1737 1.388 . S
C1736 C1735 1.366 . S
C1736 C1740 1.385 . S
C1737 H1712 0.951 . S
C1737 C1735 1.388 . S
C1737 C1738 1.366 . S
C1738 C1737 1.366 . S
C1738 C1739 1.414 . S
C1738 C1741 1.499 . S
C1739 H1713 0.950 . S
C1739 C1738 1.414 . S
C1739 C1740 1.374 . S
C1740 H1714 0.950 . S
C1740 C1736 1.385 . S
C1740 C1739 1.374 . S
C1741 C1738 1.499 . S
C1741 C1742 1.373 . S
C1741 C1743 1.389 . S
C1742 H1715 0.950 . S
C1742 C1728 1.377 . S
C1742 C1741 1.373 . S
C1743 C1727 1.377 . S
C1743 C1741 1.389 . S
C1743 C1744 1.524 . S
C1744 C1743 1.524 . S
C1744 C1745 1.397 . S
C1744 C1749 1.363 . S
C1745 H1716 0.950 . S
C1745 C1744 1.397 . S
C1745 C1746 1.334 . S
C1746 H1717 0.950 . S
C1746 C1745 1.334 . S
C1746 C1747 1.287 . S
C1747 C1746 1.287 . S
C1747 C1748 1.524 . S
C1747 H1750 0.999 . S
C1748 H1718 0.950 . S
C1748 C1747 1.524 . S
C1748 C1749 1.415 . S
C1749 H1719 0.950 . S
C1749 C1744 1.363 . S
C1749 C1748 1.415 . S
H1750 C1747 0.999 . S
H1751 C1732 0.913 . S
H1752 C1770 0.961 . S
H1753 C1772 0.951 1_556 S
H1754 C1774 0.950 . S
H1755 C1775 0.950 . S
H1756 C1777 0.950 . S
H1757 C1780 0.950 1_554 S
H1758 C1781 0.950 1_545 S
H1759 C1783 0.950 . S
H1760 C1784 0.950 . S
H1761 C1785 0.951 1_545 S
H1762 C1787 0.951 . S
H1763 C1789 0.950 . S
H1764 C1790 0.950 . S
H1765 C1792 0.950 . S
H1766 C1795 0.950 . S
H1767 C1796 0.950 . S
H1768 C1798 0.950 . S
H1769 C1799 0.950 . S
C1770 H1752 0.961 . S
C1770 C1771 1.359 1_556 S
C1770 C1772 1.385 1_556 S
C1771 C1770 1.359 1_554 S
C1771 C1775 1.385 . S
C1772 H1753 0.951 1_554 S
C1772 C1770 1.385 1_554 S
C1772 C1773 1.366 . S
C1773 C1772 1.366 . S
C1773 C1774 1.414 . S
C1773 C1776 1.499 . S
C1774 H1754 0.950 . S
C1774 C1773 1.414 . S
C1774 C1775 1.374 . S
C1775 H1755 0.950 . S
C1775 C1771 1.385 . S
C1775 C1774 1.374 . S
C1776 C1773 1.499 . S
C1776 C1777 1.373 . S
C1776 C1778 1.389 . S
C1777 H1756 0.950 . S
C1777 C1776 1.373 . S
C1777 C1793 1.377 . S
C1778 C1776 1.389 . S
C1778 C1779 1.524 1_554 S
C1778 C1792 1.377 . S
C1779 C1778 1.524 1_556 S
C1779 C1780 1.397 . S
C1779 C1784 1.363 . S
C1780 H1757 0.950 1_556 S
C1780 C1779 1.397 . S
C1780 C1781 1.334 . S
C1781 H1758 0.950 1_565 S
C1781 C1780 1.334 . S
C1781 C1782 1.287 . S
C1782 C1781 1.287 . S
C1782 C1783 1.524 . S
C1782 H1801 0.913 . S
C1783 H1759 0.950 . S
C1783 C1782 1.524 . S
C1783 C1784 1.415 . S
C1784 H1760 0.950 . S
C1784 C1779 1.363 . S
C1784 C1783 1.415 . S
C1785 H1761 0.951 1_565 S
C1785 C1786 1.366 . S
C1785 C1787 1.388 . S
C1786 C1785 1.366 . S
C1786 C1790 1.385 . S
C1787 H1762 0.951 . S
C1787 C1785 1.388 . S
C1787 C1788 1.366 . S
C1788 C1787 1.366 . S
C1788 C1789 1.414 . S
C1788 C1791 1.499 . S
C1789 H1763 0.950 . S
C1789 C1788 1.414 . S
C1789 C1790 1.374 . S
C1790 H1764 0.950 . S
C1790 C1786 1.385 . S
C1790 C1789 1.374 . S
C1791 C1788 1.499 . S
C1791 C1792 1.373 . S
C1791 C1793 1.389 . S
C1792 H1765 0.950 . S
C1792 C1778 1.377 . S
C1792 C1791 1.373 . S
C1793 C1777 1.377 . S
C1793 C1791 1.389 . S
C1793 C1794 1.524 . S
C1794 C1793 1.524 . S
C1794 C1795 1.397 . S
C1794 C1799 1.363 . S
C1795 H1766 0.950 . S
C1795 C1794 1.397 . S
C1795 C1796 1.334 . S
C1796 H1767 0.950 . S
C1796 C1795 1.334 . S
C1796 C1797 1.287 . S
C1797 C1796 1.287 . S
C1797 C1798 1.524 . S
C1797 H1800 0.999 . S
C1798 H1768 0.950 . S
C1798 C1797 1.524 . S
C1798 C1799 1.415 . S
C1799 H1769 0.950 . S
C1799 C1794 1.363 . S
C1799 C1798 1.415 . S
H1800 C1797 0.999 . S
H1801 C1782 0.913 . S
H1802 C1820 0.951 . S
H1803 C1822 0.951 . S
H1804 C1824 0.950 . S
H1805 C1825 0.950 . S
H1806 C1827 0.950 . S
H1807 C1830 0.950 . S
H1808 C1831 0.950 . S
H1809 C1833 0.950 . S
H1810 C1834 0.950 . S
H1811 C1835 0.951 . S
H1812 C1837 0.951 . S
H1813 C1839 0.950 . S
H1814 C1840 0.950 . S
H1815 C1842 0.950 . S
H1816 C1845 0.950 . S
H1817 C1846 0.950 . S
H1818 C1848 0.950 . S
H1819 C1849 0.950 . S
C1820 H1802 0.951 . S
C1820 C1821 1.366 . S
C1820 C1822 1.388 . S
C1821 C1820 1.366 . S
C1821 C1825 1.385 . S
C1822 H1803 0.951 . S
C1822 C1820 1.388 . S
C1822 C1823 1.366 . S
C1823 C1822 1.366 . S
C1823 C1824 1.414 . S
C1823 C1826 1.499 . S
C1824 H1804 0.950 . S
C1824 C1823 1.414 . S
C1824 C1825 1.374 . S
C1825 H1805 0.950 . S
C1825 C1821 1.385 . S
C1825 C1824 1.374 . S
C1826 C1823 1.499 . S
C1826 C1827 1.373 1_554 S
C1826 C1828 1.389 . S
C1827 H1806 0.950 . S
C1827 C1826 1.373 1_556 S
C1827 C1843 1.377 . S
C1828 C1826 1.389 . S
C1828 C1829 1.524 . S
C1828 C1842 1.377 . S
C1829 C1828 1.524 . S
C1829 C1830 1.397 . S
C1829 C1834 1.363 . S
C1830 H1807 0.950 . S
C1830 C1829 1.397 . S
C1830 C1831 1.334 . S
C1831 H1808 0.950 . S
C1831 C1830 1.334 . S
C1831 C1832 1.287 . S
C1832 C1831 1.287 . S
C1832 C1833 1.524 . S
C1832 H1851 0.913 . S
C1833 H1809 0.950 . S
C1833 C1832 1.524 . S
C1833 C1834 1.415 . S
C1834 H1810 0.950 . S
C1834 C1829 1.363 . S
C1834 C1833 1.415 . S
C1835 H1811 0.951 . S
C1835 C1836 1.366 . S
C1835 C1837 1.388 . S
C1836 C1835 1.366 . S
C1836 C1840 1.385 . S
C1837 H1812 0.951 . S
C1837 C1835 1.388 . S
C1837 C1838 1.366 . S
C1838 C1837 1.366 . S
C1838 C1839 1.414 . S
C1838 C1841 1.499 . S
C1839 H1813 0.950 . S
C1839 C1838 1.414 . S
C1839 C1840 1.374 . S
C1840 H1814 0.950 . S
C1840 C1836 1.385 . S
C1840 C1839 1.374 . S
C1841 C1838 1.499 . S
C1841 C1842 1.373 . S
C1841 C1843 1.389 1_554 S
C1842 H1815 0.950 . S
C1842 C1828 1.377 . S
C1842 C1841 1.373 . S
C1843 C1827 1.377 . S
C1843 C1841 1.389 1_556 S
C1843 C1844 1.524 . S
C1844 C1843 1.524 . S
C1844 C1845 1.397 . S
C1844 C1849 1.363 . S
C1845 H1816 0.950 . S
C1845 C1844 1.397 . S
C1845 C1846 1.334 . S
C1846 H1817 0.950 . S
C1846 C1845 1.334 . S
C1846 C1847 1.287 . S
C1847 C1846 1.287 . S
C1847 C1848 1.524 . S
C1847 H1850 0.999 . S
C1848 H1818 0.950 . S
C1848 C1847 1.524 . S
C1848 C1849 1.415 . S
C1849 H1819 0.950 . S
C1849 C1844 1.363 . S
C1849 C1848 1.415 . S
H1850 C1847 0.999 . S
H1851 C1832 0.913 . S
H1852 C1870 0.951 . S
H1853 C1872 0.951 . S
H1854 C1874 0.950 . S
H1855 C1875 0.950 . S
H1856 C1877 0.950 . S
H1857 C1880 0.950 . S
H1858 C1881 0.950 . S
H1859 C1883 0.950 . S
H1860 C1884 0.950 . S
H1861 C1885 0.951 . S
H1862 C1887 0.951 . S
H1863 C1889 0.950 . S
H1864 C1890 0.950 . S
H1865 C1892 0.950 . S
H1866 C1895 0.950 . S
H1867 C1896 0.950 . S
H1868 C1898 0.950 . S
H1869 C1899 0.950 . S
C1870 H1852 0.951 . S
C1870 C1871 1.366 . S
C1870 C1872 1.388 . S
C1871 C1870 1.366 . S
C1871 C1875 1.385 . S
C1872 H1853 0.951 . S
C1872 C1870 1.388 . S
C1872 C1873 1.366 . S
C1873 C1872 1.366 . S
C1873 C1874 1.414 . S
C1873 C1876 1.499 . S
C1874 H1854 0.950 . S
C1874 C1873 1.414 . S
C1874 C1875 1.374 . S
C1875 H1855 0.950 . S
C1875 C1871 1.385 . S
C1875 C1874 1.374 . S
C1876 C1873 1.499 . S
C1876 C1877 1.373 . S
C1876 C1878 1.389 . S
C1877 H1856 0.950 . S
C1877 C1876 1.373 . S
C1877 C1893 1.377 . S
C1878 C1876 1.389 . S
C1878 C1879 1.524 . S
C1878 C1892 1.377 . S
C1879 C1878 1.524 . S
C1879 C1880 1.397 . S
C1879 C1884 1.363 . S
C1880 H1857 0.950 . S
C1880 C1879 1.397 . S
C1880 C1881 1.334 . S
C1881 H1858 0.950 . S
C1881 C1880 1.334 . S
C1881 C1882 1.287 . S
C1882 C1881 1.287 . S
C1882 C1883 1.524 . S
C1882 H1901 0.913 . S
C1883 H1859 0.950 . S
C1883 C1882 1.524 . S
C1883 C1884 1.415 . S
C1884 H1860 0.950 . S
C1884 C1879 1.363 . S
C1884 C1883 1.415 . S
C1885 H1861 0.951 . S
C1885 C1886 1.366 . S
C1885 C1887 1.388 . S
C1886 C1885 1.366 . S
C1886 C1890 1.385 . S
C1887 H1862 0.951 . S
C1887 C1885 1.388 . S
C1887 C1888 1.366 . S
C1888 C1887 1.366 . S
C1888 C1889 1.414 . S
C1888 C1891 1.499 . S
C1889 H1863 0.950 . S
C1889 C1888 1.414 . S
C1889 C1890 1.374 . S
C1890 H1864 0.950 . S
C1890 C1886 1.385 . S
C1890 C1889 1.374 . S
C1891 C1888 1.499 . S
C1891 C1892 1.373 . S
C1891 C1893 1.389 . S
C1892 H1865 0.950 . S
C1892 C1878 1.377 . S
C1892 C1891 1.373 . S
C1893 C1877 1.377 . S
C1893 C1891 1.389 . S
C1893 C1894 1.524 . S
C1894 C1893 1.524 . S
C1894 C1895 1.397 . S
C1894 C1899 1.363 . S
C1895 H1866 0.950 . S
C1895 C1894 1.397 . S
C1895 C1896 1.334 . S
C1896 H1867 0.950 . S
C1896 C1895 1.334 . S
C1896 C1897 1.287 . S
C1897 C1896 1.287 . S
C1897 C1898 1.524 . S
C1897 H1900 0.999 . S
C1898 H1868 0.950 . S
C1898 C1897 1.524 . S
C1898 C1899 1.415 . S
C1899 H1869 0.950 . S
C1899 C1894 1.363 . S
C1899 C1898 1.415 . S
H1900 C1897 0.999 . S
H1901 C1882 0.913 . S
H1902 C1920 0.951 . S
H1903 C1922 0.951 . S
H1904 C1924 0.950 . S
H1905 C1925 0.950 . S
H1906 C1927 0.950 . S
H1907 C1930 0.950 . S
H1908 C1931 0.950 . S
H1909 C1933 0.950 . S
H1910 C1934 0.950 . S
H1911 C1935 0.951 . S
H1912 C1937 0.951 . S
H1913 C1939 0.950 . S
H1914 C1940 0.950 . S
H1915 C1942 0.950 . S
H1916 C1945 0.950 . S
H1917 C1946 0.950 . S
H1918 C1948 0.950 . S
H1919 C1949 0.950 . S
C1920 H1902 0.951 . S
C1920 C1921 1.366 . S
C1920 C1922 1.388 . S
C1921 C1920 1.366 . S
C1921 C1925 1.385 . S
C1922 H1903 0.951 . S
C1922 C1920 1.388 . S
C1922 C1923 1.366 . S
C1923 C1922 1.366 . S
C1923 C1924 1.414 . S
C1923 C1926 1.499 . S
C1924 H1904 0.950 . S
C1924 C1923 1.414 . S
C1924 C1925 1.374 . S
C1925 H1905 0.950 . S
C1925 C1921 1.385 . S
C1925 C1924 1.374 . S
C1926 C1923 1.499 . S
C1926 C1927 1.373 . S
C1926 C1928 1.389 . S
C1927 H1906 0.950 . S
C1927 C1926 1.373 . S
C1927 C1943 1.377 . S
C1928 C1926 1.389 . S
C1928 C1929 1.524 . S
C1928 C1942 1.377 . S
C1929 C1928 1.524 . S
C1929 C1930 1.397 . S
C1929 C1934 1.363 . S
C1930 H1907 0.950 . S
C1930 C1929 1.397 . S
C1930 C1931 1.334 . S
C1931 H1908 0.950 . S
C1931 C1930 1.334 . S
C1931 C1932 1.287 . S
C1932 C1931 1.287 . S
C1932 C1933 1.524 . S
C1932 H1951 0.913 . S
C1933 H1909 0.950 . S
C1933 C1932 1.524 . S
C1933 C1934 1.415 . S
C1934 H1910 0.950 . S
C1934 C1929 1.363 . S
C1934 C1933 1.415 . S
C1935 H1911 0.951 . S
C1935 C1936 1.366 . S
C1935 C1937 1.388 . S
C1936 C1935 1.366 . S
C1936 C1940 1.385 . S
C1937 H1912 0.951 . S
C1937 C1935 1.388 . S
C1937 C1938 1.366 . S
C1938 C1937 1.366 . S
C1938 C1939 1.414 . S
C1938 C1941 1.499 . S
C1939 H1913 0.950 . S
C1939 C1938 1.414 . S
C1939 C1940 1.374 . S
C1940 H1914 0.950 . S
C1940 C1936 1.385 . S
C1940 C1939 1.374 . S
C1941 C1938 1.499 . S
C1941 C1942 1.373 . S
C1941 C1943 1.389 . S
C1942 H1915 0.950 . S
C1942 C1928 1.377 . S
C1942 C1941 1.373 . S
C1943 C1927 1.377 . S
C1943 C1941 1.389 . S
C1943 C1944 1.524 . S
C1944 C1943 1.524 . S
C1944 C1945 1.397 . S
C1944 C1949 1.363 . S
C1945 H1916 0.950 . S
C1945 C1944 1.397 . S
C1945 C1946 1.334 . S
C1946 H1917 0.950 . S
C1946 C1945 1.334 . S
C1946 C1947 1.287 . S
C1947 C1946 1.287 . S
C1947 C1948 1.524 . S
C1947 H1950 0.999 . S
C1948 H1918 0.950 . S
C1948 C1947 1.524 . S
C1948 C1949 1.415 . S
C1949 H1919 0.950 . S
C1949 C1944 1.363 . S
C1949 C1948 1.415 . S
H1950 C1947 0.999 . S
H1951 C1932 0.913 . S
H1952 C1970 0.951 . S
H1953 C1972 0.951 . S
H1954 C1974 0.950 . S
H1955 C1975 0.950 . S
H1956 C1977 0.950 . S
H1957 C1980 0.950 . S
H1958 C1981 0.950 . S
H1959 C1983 0.950 . S
H1960 C1984 0.950 . S
H1961 C1985 0.951 . S
H1962 C1987 0.951 . S
H1963 C1989 0.950 . S
H1964 C1990 0.950 . S
H1965 C1992 0.950 . S
H1966 C1995 0.950 . S
H1967 C1996 0.950 . S
H1968 C1998 0.950 . S
H1969 C1999 0.950 . S
C1970 H1952 0.951 . S
C1970 C1971 1.366 . S
C1970 C1972 1.388 . S
C1971 C1970 1.366 . S
C1971 C1975 1.385 . S
C1972 H1953 0.951 . S
C1972 C1970 1.388 . S
C1972 C1973 1.366 . S
C1973 C1972 1.366 . S
C1973 C1974 1.414 . S
C1973 C1976 1.499 . S
C1974 H1954 0.950 . S
C1974 C1973 1.414 . S
C1974 C1975 1.374 . S
C1975 H1955 0.950 . S
C1975 C1971 1.385 . S
C1975 C1974 1.374 . S
C1976 C1973 1.499 . S
C1976 C1977 1.373 . S
C1976 C1978 1.389 . S
C1977 H1956 0.950 . S
C1977 C1976 1.373 . S
C1977 C1993 1.377 . S
C1978 C1976 1.389 . S
C1978 C1979 1.524 . S
C1978 C1992 1.377 . S
C1979 C1978 1.524 . S
C1979 C1980 1.397 . S
C1979 C1984 1.363 . S
C1980 H1957 0.950 . S
C1980 C1979 1.397 . S
C1980 C1981 1.334 . S
C1981 H1958 0.950 . S
C1981 C1980 1.334 . S
C1981 C1982 1.287 . S
C1982 C1981 1.287 . S
C1982 C1983 1.524 . S
C1982 H2001 0.913 . S
C1983 H1959 0.950 . S
C1983 C1982 1.524 . S
C1983 C1984 1.415 . S
C1984 H1960 0.950 . S
C1984 C1979 1.363 . S
C1984 C1983 1.415 . S
C1985 H1961 0.951 . S
C1985 C1986 1.366 . S
C1985 C1987 1.388 . S
C1986 C1985 1.366 . S
C1986 C1990 1.385 . S
C1987 H1962 0.951 . S
C1987 C1985 1.388 . S
C1987 C1988 1.366 . S
C1988 C1987 1.366 . S
C1988 C1989 1.414 . S
C1988 C1991 1.499 . S
C1989 H1963 0.950 . S
C1989 C1988 1.414 . S
C1989 C1990 1.374 . S
C1990 H1964 0.950 . S
C1990 C1986 1.385 . S
C1990 C1989 1.374 . S
C1991 C1988 1.499 . S
C1991 C1992 1.373 . S
C1991 C1993 1.389 . S
C1992 H1965 0.950 . S
C1992 C1978 1.377 . S
C1992 C1991 1.373 . S
C1993 C1977 1.377 . S
C1993 C1991 1.389 . S
C1993 C1994 1.524 . S
C1994 C1993 1.524 . S
C1994 C1995 1.397 . S
C1994 C1999 1.363 . S
C1995 H1966 0.950 . S
C1995 C1994 1.397 . S
C1995 C1996 1.334 . S
C1996 H1967 0.950 . S
C1996 C1995 1.334 . S
C1996 C1997 1.287 . S
C1997 C1996 1.287 . S
C1997 C1998 1.524 . S
C1997 H2000 0.999 . S
C1998 H1968 0.950 . S
C1998 C1997 1.524 . S
C1998 C1999 1.415 . S
C1999 H1969 0.950 . S
C1999 C1994 1.363 . S
C1999 C1998 1.415 . S
H2000 C1997 0.999 . S
H2001 C1982 0.913 . S
H2002 C2020 0.951 . S
H2003 C2022 0.951 . S
H2004 C2024 0.950 . S
H2005 C2025 0.950 . S
H2006 C2027 0.950 . S
H2007 C2030 0.950 . S
H2008 C2031 0.950 . S
H2009 C2033 0.950 . S
H2010 C2034 0.950 . S
H2011 C2035 0.951 . S
H2012 C2037 0.951 . S
H2013 C2039 0.950 . S
H2014 C2040 0.950 . S
H2015 C2042 0.950 . S
H2016 C2045 0.950 . S
H2017 C2046 0.950 . S
H2018 C2048 0.950 . S
H2019 C2049 0.950 . S
C2020 H2002 0.951 . S
C2020 C2021 1.366 . S
C2020 C2022 1.388 . S
C2021 C2020 1.366 . S
C2021 C2025 1.385 . S
C2022 H2003 0.951 . S
C2022 C2020 1.388 . S
C2022 C2023 1.366 . S
C2023 C2022 1.366 . S
C2023 C2024 1.414 . S
C2023 C2026 1.499 . S
C2024 H2004 0.950 . S
C2024 C2023 1.414 . S
C2024 C2025 1.374 . S
C2025 H2005 0.950 . S
C2025 C2021 1.385 . S
C2025 C2024 1.374 . S
C2026 C2023 1.499 . S
C2026 C2027 1.373 . S
C2026 C2028 1.389 . S
C2027 H2006 0.950 . S
C2027 C2026 1.373 . S
C2027 C2043 1.377 . S
C2028 C2026 1.389 . S
C2028 C2029 1.524 . S
C2028 C2042 1.377 . S
C2029 C2028 1.524 . S
C2029 C2030 1.397 . S
C2029 C2034 1.363 . S
C2030 H2007 0.950 . S
C2030 C2029 1.397 . S
C2030 C2031 1.334 . S
C2031 H2008 0.950 . S
C2031 C2030 1.334 . S
C2031 C2032 1.287 . S
C2032 C2031 1.287 . S
C2032 C2033 1.524 . S
C2032 H2051 0.913 . S
C2033 H2009 0.950 . S
C2033 C2032 1.524 . S
C2033 C2034 1.415 . S
C2034 H2010 0.950 . S
C2034 C2029 1.363 . S
C2034 C2033 1.415 . S
C2035 H2011 0.951 . S
C2035 C2036 1.366 . S
C2035 C2037 1.388 . S
C2036 C2035 1.366 . S
C2036 C2040 1.385 . S
C2037 H2012 0.951 . S
C2037 C2035 1.388 . S
C2037 C2038 1.366 . S
C2038 C2037 1.366 . S
C2038 C2039 1.414 . S
C2038 C2041 1.499 . S
C2039 H2013 0.950 . S
C2039 C2038 1.414 . S
C2039 C2040 1.374 . S
C2040 H2014 0.950 . S
C2040 C2036 1.385 . S
C2040 C2039 1.374 . S
C2041 C2038 1.499 . S
C2041 C2042 1.373 . S
C2041 C2043 1.389 . S
C2042 H2015 0.950 . S
C2042 C2028 1.377 . S
C2042 C2041 1.373 . S
C2043 C2027 1.377 . S
C2043 C2041 1.389 . S
C2043 C2044 1.524 . S
C2044 C2043 1.524 . S
C2044 C2045 1.397 . S
C2044 C2049 1.363 . S
C2045 H2016 0.950 . S
C2045 C2044 1.397 . S
C2045 C2046 1.334 . S
C2046 H2017 0.950 . S
C2046 C2045 1.334 . S
C2046 C2047 1.287 . S
C2047 C2046 1.287 . S
C2047 C2048 1.524 . S
C2047 H2050 0.999 . S
C2048 H2018 0.950 . S
C2048 C2047 1.524 . S
C2048 C2049 1.415 . S
C2049 H2019 0.950 . S
C2049 C2044 1.363 . S
C2049 C2048 1.415 . S
H2050 C2047 0.999 . S
H2051 C2032 0.913 . S
H2052 C2070 0.951 . S
H2053 C2072 0.951 . S
H2054 C2074 0.950 . S
H2055 C2075 0.950 . S
H2056 C2077 0.950 . S
H2057 C2080 0.950 . S
H2058 C2081 0.950 . S
H2059 C2083 0.950 . S
H2060 C2084 0.950 . S
H2061 C2085 0.951 . S
H2062 C2087 0.951 . S
H2063 C2089 0.950 . S
H2064 C2090 0.950 . S
H2065 C2092 0.950 . S
H2066 C2095 0.950 . S
H2067 C2096 0.950 . S
H2068 C2098 0.950 . S
H2069 C2099 0.950 . S
C2070 H2052 0.951 . S
C2070 C2071 1.366 . S
C2070 C2072 1.388 . S
C2071 C2070 1.366 . S
C2071 C2075 1.385 . S
C2072 H2053 0.951 . S
C2072 C2070 1.388 . S
C2072 C2073 1.366 . S
C2073 C2072 1.366 . S
C2073 C2074 1.414 . S
C2073 C2076 1.499 . S
C2074 H2054 0.950 . S
C2074 C2073 1.414 . S
C2074 C2075 1.374 . S
C2075 H2055 0.950 . S
C2075 C2071 1.385 . S
C2075 C2074 1.374 . S
C2076 C2073 1.499 . S
C2076 C2077 1.373 . S
C2076 C2078 1.389 . S
C2077 H2056 0.950 . S
C2077 C2076 1.373 . S
C2077 C2093 1.377 . S
C2078 C2076 1.389 . S
C2078 C2079 1.524 . S
C2078 C2092 1.377 . S
C2079 C2078 1.524 . S
C2079 C2080 1.397 . S
C2079 C2084 1.363 . S
C2080 H2057 0.950 . S
C2080 C2079 1.397 . S
C2080 C2081 1.334 . S
C2081 H2058 0.950 . S
C2081 C2080 1.334 . S
C2081 C2082 1.287 . S
C2082 C2081 1.287 . S
C2082 C2083 1.524 . S
C2082 H2101 0.913 . S
C2083 H2059 0.950 . S
C2083 C2082 1.524 . S
C2083 C2084 1.415 . S
C2084 H2060 0.950 . S
C2084 C2079 1.363 . S
C2084 C2083 1.415 . S
C2085 H2061 0.951 . S
C2085 C2086 1.366 . S
C2085 C2087 1.388 . S
C2086 C2085 1.366 . S
C2086 C2090 1.385 . S
C2087 H2062 0.951 . S
C2087 C2085 1.388 . S
C2087 C2088 1.366 . S
C2088 C2087 1.366 . S
C2088 C2089 1.414 . S
C2088 C2091 1.499 . S
C2089 H2063 0.950 . S
C2089 C2088 1.414 . S
C2089 C2090 1.374 . S
C2090 H2064 0.950 . S
C2090 C2086 1.385 . S
C2090 C2089 1.374 . S
C2091 C2088 1.499 . S
C2091 C2092 1.373 . S
C2091 C2093 1.389 . S
C2092 H2065 0.950 . S
C2092 C2078 1.377 . S
C2092 C2091 1.373 . S
C2093 C2077 1.377 . S
C2093 C2091 1.389 . S
C2093 C2094 1.524 . S
C2094 C2093 1.524 . S
C2094 C2095 1.397 . S
C2094 C2099 1.363 . S
C2095 H2066 0.950 . S
C2095 C2094 1.397 . S
C2095 C2096 1.334 . S
C2096 H2067 0.950 . S
C2096 C2095 1.334 . S
C2096 C2097 1.287 . S
C2097 C2096 1.287 . S
C2097 C2098 1.524 . S
C2097 H2100 0.999 . S
C2098 H2068 0.950 . S
C2098 C2097 1.524 . S
C2098 C2099 1.415 . S
C2099 H2069 0.950 . S
C2099 C2094 1.363 . S
C2099 C2098 1.415 . S
H2100 C2097 0.999 . S
H2101 C2082 0.913 . S
H2102 C2120 0.951 . S
H2103 C2122 0.951 . S
H2104 C2124 0.950 . S
H2105 C2125 0.950 . S
H2106 C2127 0.950 . S
H2107 C2130 0.950 . S
H2108 C2131 0.950 . S
H2109 C2133 0.950 . S
H2110 C2134 0.950 . S
H2111 C2135 0.951 . S
H2112 C2137 0.951 . S
H2113 C2139 0.950 . S
H2114 C2140 0.950 . S
H2115 C2142 0.950 . S
H2116 C2145 0.950 . S
H2117 C2146 0.950 . S
H2118 C2148 0.950 . S
H2119 C2149 0.950 . S
C2120 H2102 0.951 . S
C2120 C2121 1.366 . S
C2120 C2122 1.388 . S
C2121 C2120 1.366 . S
C2121 C2125 1.385 . S
C2122 H2103 0.951 . S
C2122 C2120 1.388 . S
C2122 C2123 1.366 . S
C2123 C2122 1.366 . S
C2123 C2124 1.414 . S
C2123 C2126 1.499 . S
C2124 H2104 0.950 . S
C2124 C2123 1.414 . S
C2124 C2125 1.374 . S
C2125 H2105 0.950 . S
C2125 C2121 1.385 . S
C2125 C2124 1.374 . S
C2126 C2123 1.499 . S
C2126 C2127 1.373 . S
C2126 C2128 1.389 . S
C2127 H2106 0.950 . S
C2127 C2126 1.373 . S
C2127 C2143 1.377 . S
C2128 C2126 1.389 . S
C2128 C2129 1.524 . S
C2128 C2142 1.377 . S
C2129 C2128 1.524 . S
C2129 C2130 1.397 . S
C2129 C2134 1.363 . S
C2130 H2107 0.950 . S
C2130 C2129 1.397 . S
C2130 C2131 1.334 . S
C2131 H2108 0.950 . S
C2131 C2130 1.334 . S
C2131 C2132 1.287 . S
C2132 C2131 1.287 . S
C2132 C2133 1.524 . S
C2132 H2151 0.913 . S
C2133 H2109 0.950 . S
C2133 C2132 1.524 . S
C2133 C2134 1.415 . S
C2134 H2110 0.950 . S
C2134 C2129 1.363 . S
C2134 C2133 1.415 . S
C2135 H2111 0.951 . S
C2135 C2136 1.366 . S
C2135 C2137 1.388 . S
C2136 C2135 1.366 . S
C2136 C2140 1.385 . S
C2137 H2112 0.951 . S
C2137 C2135 1.388 . S
C2137 C2138 1.366 . S
C2138 C2137 1.366 . S
C2138 C2139 1.414 . S
C2138 C2141 1.499 . S
C2139 H2113 0.950 . S
C2139 C2138 1.414 . S
C2139 C2140 1.374 . S
C2140 H2114 0.950 . S
C2140 C2136 1.385 . S
C2140 C2139 1.374 . S
C2141 C2138 1.499 . S
C2141 C2142 1.373 . S
C2141 C2143 1.389 . S
C2142 H2115 0.950 . S
C2142 C2128 1.377 . S
C2142 C2141 1.373 . S
C2143 C2127 1.377 . S
C2143 C2141 1.389 . S
C2143 C2144 1.524 . S
C2144 C2143 1.524 . S
C2144 C2145 1.397 . S
C2144 C2149 1.363 . S
C2145 H2116 0.950 . S
C2145 C2144 1.397 . S
C2145 C2146 1.334 . S
C2146 H2117 0.950 . S
C2146 C2145 1.334 . S
C2146 C2147 1.287 . S
C2147 C2146 1.287 . S
C2147 C2148 1.524 . S
C2147 H2150 0.999 . S
C2148 H2118 0.950 . S
C2148 C2147 1.524 . S
C2148 C2149 1.415 . S
C2149 H2119 0.950 . S
C2149 C2144 1.363 . S
C2149 C2148 1.415 . S
H2150 C2147 0.999 . S
H2151 C2132 0.913 . S
H2152 C2170 0.951 . S
H2153 C2172 0.951 . S
H2154 C2174 0.950 . S
H2155 C2175 0.950 . S
H2156 C2177 0.950 . S
H2157 C2180 0.950 . S
H2158 C2181 0.950 . S
H2159 C2183 0.950 . S
H2160 C2184 0.950 . S
H2161 C2185 0.951 . S
H2162 C2187 0.951 . S
H2163 C2189 0.950 . S
H2164 C2190 0.950 . S
H2165 C2192 0.950 . S
H2166 C2195 0.950 . S
H2167 C2196 0.950 . S
H2168 C2198 0.950 . S
H2169 C2199 0.950 . S
C2170 H2152 0.951 . S
C2170 C2171 1.366 . S
C2170 C2172 1.388 . S
C2171 C2170 1.366 . S
C2171 C2175 1.385 . S
C2172 H2153 0.951 . S
C2172 C2170 1.388 . S
C2172 C2173 1.366 . S
C2173 C2172 1.366 . S
C2173 C2174 1.414 . S
C2173 C2176 1.499 . S
C2174 H2154 0.950 . S
C2174 C2173 1.414 . S
C2174 C2175 1.374 . S
C2175 H2155 0.950 . S
C2175 C2171 1.385 . S
C2175 C2174 1.374 . S
C2176 C2173 1.499 . S
C2176 C2177 1.373 . S
C2176 C2178 1.389 . S
C2177 H2156 0.950 . S
C2177 C2176 1.373 . S
C2177 C2193 1.377 . S
C2178 C2176 1.389 . S
C2178 C2179 1.524 . S
C2178 C2192 1.377 . S
C2179 C2178 1.524 . S
C2179 C2180 1.397 . S
C2179 C2184 1.363 . S
C2180 H2157 0.950 . S
C2180 C2179 1.397 . S
C2180 C2181 1.334 . S
C2181 H2158 0.950 . S
C2181 C2180 1.334 . S
C2181 C2182 1.287 . S
C2182 C2181 1.287 . S
C2182 C2183 1.524 . S
C2182 H2201 0.913 . S
C2183 H2159 0.950 . S
C2183 C2182 1.524 . S
C2183 C2184 1.415 . S
C2184 H2160 0.950 . S
C2184 C2179 1.363 . S
C2184 C2183 1.415 . S
C2185 H2161 0.951 . S
C2185 C2186 1.366 . S
C2185 C2187 1.388 . S
C2186 C2185 1.366 . S
C2186 C2190 1.385 . S
C2187 H2162 0.951 . S
C2187 C2185 1.388 . S
C2187 C2188 1.366 . S
C2188 C2187 1.366 . S
C2188 C2189 1.414 . S
C2188 C2191 1.499 . S
C2189 H2163 0.950 . S
C2189 C2188 1.414 . S
C2189 C2190 1.374 . S
C2190 H2164 0.950 . S
C2190 C2186 1.385 . S
C2190 C2189 1.374 . S
C2191 C2188 1.499 . S
C2191 C2192 1.373 . S
C2191 C2193 1.389 . S
C2192 H2165 0.950 . S
C2192 C2178 1.377 . S
C2192 C2191 1.373 . S
C2193 C2177 1.377 . S
C2193 C2191 1.389 . S
C2193 C2194 1.524 . S
C2194 C2193 1.524 . S
C2194 C2195 1.397 . S
C2194 C2199 1.363 . S
C2195 H2166 0.950 . S
C2195 C2194 1.397 . S
C2195 C2196 1.334 1_455 S
C2196 H2167 0.950 . S
C2196 C2195 1.334 1_655 S
C2196 C2197 1.287 . S
C2197 C2196 1.287 . S
C2197 C2198 1.524 . S
C2197 H2200 0.999 . S
C2198 H2168 0.950 . S
C2198 C2197 1.524 . S
C2198 C2199 1.415 1_655 S
C2199 H2169 0.950 . S
C2199 C2194 1.363 . S
C2199 C2198 1.415 1_455 S
H2200 C2197 0.999 . S
H2201 C2182 0.913 . S
H2202 C2220 0.951 . S
H2203 C2222 0.951 . S
H2204 C2224 0.950 . S
H2205 C2225 0.950 . S
H2206 C2227 0.950 . S
H2207 C2230 0.950 . S
H2208 C2231 0.950 . S
H2209 C2233 0.950 . S
H2210 C2234 0.950 . S
H2211 C2235 0.951 . S
H2212 C2237 0.951 . S
H2213 C2239 0.950 . S
H2214 C2240 0.950 . S
H2215 C2242 0.950 . S
H2216 C2245 0.950 . S
H2217 C2246 0.950 . S
H2218 C2248 0.950 . S
H2219 C2249 0.950 . S
C2220 H2202 0.951 . S
C2220 C2221 1.366 . S
C2220 C2222 1.388 . S
C2221 C2220 1.366 . S
C2221 C2225 1.385 . S
C2222 H2203 0.951 . S
C2222 C2220 1.388 . S
C2222 C2223 1.366 . S
C2223 C2222 1.366 . S
C2223 C2224 1.414 . S
C2223 C2226 1.499 . S
C2224 H2204 0.950 . S
C2224 C2223 1.414 . S
C2224 C2225 1.374 . S
C2225 H2205 0.950 . S
C2225 C2221 1.385 . S
C2225 C2224 1.374 . S
C2226 C2223 1.499 . S
C2226 C2227 1.373 . S
C2226 C2228 1.389 . S
C2227 H2206 0.950 . S
C2227 C2226 1.373 . S
C2227 C2243 1.377 . S
C2228 C2226 1.389 . S
C2228 C2229 1.524 . S
C2228 C2242 1.377 . S
C2229 C2228 1.524 . S
C2229 C2230 1.397 . S
C2229 C2234 1.363 . S
C2230 H2207 0.950 . S
C2230 C2229 1.397 . S
C2230 C2231 1.334 . S
C2231 H2208 0.950 . S
C2231 C2230 1.334 . S
C2231 C2232 1.287 . S
C2232 C2231 1.287 . S
C2232 C2233 1.524 . S
C2232 H2251 0.913 . S
C2233 H2209 0.950 . S
C2233 C2232 1.524 . S
C2233 C2234 1.415 . S
C2234 H2210 0.950 . S
C2234 C2229 1.363 . S
C2234 C2233 1.415 . S
C2235 H2211 0.951 . S
C2235 C2236 1.366 . S
C2235 C2237 1.388 . S
C2236 C2235 1.366 . S
C2236 C2240 1.385 . S
C2237 H2212 0.951 . S
C2237 C2235 1.388 . S
C2237 C2238 1.366 . S
C2238 C2237 1.366 . S
C2238 C2239 1.414 . S
C2238 C2241 1.499 . S
C2239 H2213 0.950 . S
C2239 C2238 1.414 . S
C2239 C2240 1.374 . S
C2240 H2214 0.950 . S
C2240 C2236 1.385 . S
C2240 C2239 1.374 . S
C2241 C2238 1.499 . S
C2241 C2242 1.373 . S
C2241 C2243 1.389 . S
C2242 H2215 0.950 . S
C2242 C2228 1.377 . S
C2242 C2241 1.373 . S
C2243 C2227 1.377 . S
C2243 C2241 1.389 . S
C2243 C2244 1.524 . S
C2244 C2243 1.524 . S
C2244 C2245 1.397 . S
C2244 C2249 1.363 . S
C2245 H2216 0.950 . S
C2245 C2244 1.397 . S
C2245 C2246 1.334 . S
C2246 H2217 0.950 . S
C2246 C2245 1.334 . S
C2246 C2247 1.287 . S
C2247 C2246 1.287 . S
C2247 C2248 1.524 . S
C2247 H2250 0.999 . S
C2248 H2218 0.950 . S
C2248 C2247 1.524 . S
C2248 C2249 1.415 . S
C2249 H2219 0.950 . S
C2249 C2244 1.363 . S
C2249 C2248 1.415 . S
H2250 C2247 0.999 . S
H2251 C2232 0.913 . S
H2252 C2270 0.951 . S
H2253 C2272 0.951 . S
H2254 C2274 0.950 . S
H2255 C2275 0.950 . S
H2256 C2277 0.950 . S
H2257 C2280 0.950 . S
H2258 C2281 0.950 . S
H2259 C2283 0.950 . S
H2260 C2284 0.950 . S
H2261 C2285 0.951 . S
H2262 C2287 0.951 . S
H2263 C2289 0.950 . S
H2264 C2290 0.950 . S
H2265 C2292 0.950 . S
H2266 C2295 0.950 . S
H2267 C2296 0.950 . S
H2268 C2298 0.950 . S
H2269 C2299 0.950 . S
C2270 H2252 0.951 . S
C2270 C2271 1.366 . S
C2270 C2272 1.388 . S
C2271 C2270 1.366 . S
C2271 C2275 1.385 . S
C2272 H2253 0.951 . S
C2272 C2270 1.388 . S
C2272 C2273 1.366 . S
C2273 C2272 1.366 . S
C2273 C2274 1.414 . S
C2273 C2276 1.499 . S
C2274 H2254 0.950 . S
C2274 C2273 1.414 . S
C2274 C2275 1.374 . S
C2275 H2255 0.950 . S
C2275 C2271 1.385 . S
C2275 C2274 1.374 . S
C2276 C2273 1.499 . S
C2276 C2277 1.373 . S
C2276 C2278 1.389 . S
C2277 H2256 0.950 . S
C2277 C2276 1.373 . S
C2277 C2293 1.377 . S
C2278 C2276 1.389 . S
C2278 C2279 1.524 . S
C2278 C2292 1.377 . S
C2279 C2278 1.524 . S
C2279 C2280 1.397 . S
C2279 C2284 1.363 . S
C2280 H2257 0.950 . S
C2280 C2279 1.397 . S
C2280 C2281 1.334 . S
C2281 H2258 0.950 . S
C2281 C2280 1.334 . S
C2281 C2282 1.287 . S
C2282 C2281 1.287 . S
C2282 C2283 1.524 . S
C2282 H2301 0.913 . S
C2283 H2259 0.950 . S
C2283 C2282 1.524 . S
C2283 C2284 1.415 . S
C2284 H2260 0.950 . S
C2284 C2279 1.363 . S
C2284 C2283 1.415 . S
C2285 H2261 0.951 . S
C2285 C2286 1.366 . S
C2285 C2287 1.388 . S
C2286 C2285 1.366 . S
C2286 C2290 1.385 . S
C2287 H2262 0.951 . S
C2287 C2285 1.388 . S
C2287 C2288 1.366 . S
C2288 C2287 1.366 . S
C2288 C2289 1.414 . S
C2288 C2291 1.499 . S
C2289 H2263 0.950 . S
C2289 C2288 1.414 . S
C2289 C2290 1.374 . S
C2290 H2264 0.950 . S
C2290 C2286 1.385 . S
C2290 C2289 1.374 . S
C2291 C2288 1.499 . S
C2291 C2292 1.373 . S
C2291 C2293 1.389 . S
C2292 H2265 0.950 . S
C2292 C2278 1.377 . S
C2292 C2291 1.373 . S
C2293 C2277 1.377 . S
C2293 C2291 1.389 . S
C2293 C2294 1.524 . S
C2294 C2293 1.524 . S
C2294 C2295 1.397 . S
C2294 C2299 1.363 . S
C2295 H2266 0.950 . S
C2295 C2294 1.397 . S
C2295 C2296 1.334 . S
C2296 H2267 0.950 . S
C2296 C2295 1.334 . S
C2296 C2297 1.287 . S
C2297 C2296 1.287 . S
C2297 C2298 1.524 . S
C2297 H2300 0.999 . S
C2298 H2268 0.950 . S
C2298 C2297 1.524 . S
C2298 C2299 1.415 . S
C2299 H2269 0.950 . S
C2299 C2294 1.363 . S
C2299 C2298 1.415 . S
H2300 C2297 0.999 . S
H2301 C2282 0.913 . S
H2302 C2320 0.951 . S
H2303 C2322 0.951 . S
H2304 C2324 0.950 . S
H2305 C2325 0.950 . S
H2306 C2327 0.950 . S
H2307 C2330 0.950 . S
H2308 C2331 0.950 . S
H2309 C2333 0.950 . S
H2310 C2334 0.950 . S
H2311 C2335 0.951 . S
H2312 C2337 0.951 . S
H2313 C2339 0.950 . S
H2314 C2340 0.950 . S
H2315 C2342 0.950 . S
H2316 C2345 0.950 . S
H2317 C2346 0.950 . S
H2318 C2348 0.950 . S
H2319 C2349 0.950 . S
C2320 H2302 0.951 . S
C2320 C2321 1.366 . S
C2320 C2322 1.388 . S
C2321 C2320 1.366 . S
C2321 C2325 1.385 . S
C2322 H2303 0.951 . S
C2322 C2320 1.388 . S
C2322 C2323 1.366 . S
C2323 C2322 1.366 . S
C2323 C2324 1.414 . S
C2323 C2326 1.499 . S
C2324 H2304 0.950 . S
C2324 C2323 1.414 . S
C2324 C2325 1.374 . S
C2325 H2305 0.950 . S
C2325 C2321 1.385 . S
C2325 C2324 1.374 . S
C2326 C2323 1.499 . S
C2326 C2327 1.373 . S
C2326 C2328 1.389 . S
C2327 H2306 0.950 . S
C2327 C2326 1.373 . S
C2327 C2343 1.377 . S
C2328 C2326 1.389 . S
C2328 C2329 1.524 . S
C2328 C2342 1.377 . S
C2329 C2328 1.524 . S
C2329 C2330 1.397 . S
C2329 C2334 1.363 . S
C2330 H2307 0.950 . S
C2330 C2329 1.397 . S
C2330 C2331 1.334 . S
C2331 H2308 0.950 . S
C2331 C2330 1.334 . S
C2331 C2332 1.287 . S
C2332 C2331 1.287 . S
C2332 C2333 1.524 . S
C2332 H2351 0.913 . S
C2333 H2309 0.950 . S
C2333 C2332 1.524 . S
C2333 C2334 1.415 . S
C2334 H2310 0.950 . S
C2334 C2329 1.363 . S
C2334 C2333 1.415 . S
C2335 H2311 0.951 . S
C2335 C2336 1.366 . S
C2335 C2337 1.388 . S
C2336 C2335 1.366 . S
C2336 C2340 1.385 . S
C2337 H2312 0.951 . S
C2337 C2335 1.388 . S
C2337 C2338 1.366 . S
C2338 C2337 1.366 . S
C2338 C2339 1.414 . S
C2338 C2341 1.499 . S
C2339 H2313 0.950 . S
C2339 C2338 1.414 . S
C2339 C2340 1.374 . S
C2340 H2314 0.950 . S
C2340 C2336 1.385 . S
C2340 C2339 1.374 . S
C2341 C2338 1.499 . S
C2341 C2342 1.373 . S
C2341 C2343 1.389 . S
C2342 H2315 0.950 . S
C2342 C2328 1.377 . S
C2342 C2341 1.373 . S
C2343 C2327 1.377 . S
C2343 C2341 1.389 . S
C2343 C2344 1.524 . S
C2344 C2343 1.524 . S
C2344 C2345 1.397 . S
C2344 C2349 1.363 . S
C2345 H2316 0.950 . S
C2345 C2344 1.397 . S
C2345 C2346 1.334 . S
C2346 H2317 0.950 . S
C2346 C2345 1.334 . S
C2346 C2347 1.287 . S
C2347 C2346 1.287 . S
C2347 C2348 1.524 . S
C2347 H2350 0.999 . S
C2348 H2318 0.950 . S
C2348 C2347 1.524 . S
C2348 C2349 1.415 . S
C2349 H2319 0.950 . S
C2349 C2344 1.363 . S
C2349 C2348 1.415 . S
H2350 C2347 0.999 . S
H2351 C2332 0.913 . S
H2352 C2370 0.951 . S
H2353 C2372 0.951 . S
H2354 C2374 0.950 . S
H2355 C2375 0.950 . S
H2356 C2377 0.950 . S
H2357 C2380 0.950 . S
H2358 C2381 0.950 . S
H2359 C2383 0.950 . S
H2360 C2384 0.950 . S
H2361 C2385 0.951 . S
H2362 C2387 0.951 . S
H2363 C2389 0.950 . S
H2364 C2390 0.950 1_655 S
H2365 C2392 0.950 . S
H2366 C2395 0.950 . S
H2367 C2396 0.950 . S
H2368 C2398 0.950 . S
H2369 C2399 0.950 . S
C2370 H2352 0.951 . S
C2370 C2371 1.366 . S
C2370 C2372 1.388 . S
C2371 C2370 1.366 . S
C2371 C2375 1.385 . S
C2372 H2353 0.951 . S
C2372 C2370 1.388 . S
C2372 C2373 1.366 . S
C2373 C2372 1.366 . S
C2373 C2374 1.414 . S
C2373 C2376 1.499 . S
C2374 H2354 0.950 . S
C2374 C2373 1.414 . S
C2374 C2375 1.374 . S
C2375 H2355 0.950 . S
C2375 C2371 1.385 . S
C2375 C2374 1.374 . S
C2376 C2373 1.499 . S
C2376 C2377 1.373 . S
C2376 C2378 1.389 . S
C2377 H2356 0.950 . S
C2377 C2376 1.373 . S
C2377 C2393 1.377 . S
C2378 C2376 1.389 . S
C2378 C2379 1.524 . S
C2378 C2392 1.377 . S
C2379 C2378 1.524 . S
C2379 C2380 1.397 . S
C2379 C2384 1.363 . S
C2380 H2357 0.950 . S
C2380 C2379 1.397 . S
C2380 C2381 1.334 . S
C2381 H2358 0.950 . S
C2381 C2380 1.334 . S
C2381 C2382 1.287 . S
C2382 C2381 1.287 . S
C2382 C2383 1.524 . S
C2382 H2401 0.913 . S
C2383 H2359 0.950 . S
C2383 C2382 1.524 . S
C2383 C2384 1.415 . S
C2384 H2360 0.950 . S
C2384 C2379 1.363 . S
C2384 C2383 1.415 . S
C2385 H2361 0.951 . S
C2385 C2386 1.366 . S
C2385 C2387 1.388 . S
C2386 C2385 1.366 . S
C2386 C2390 1.385 . S
C2387 H2362 0.951 . S
C2387 C2385 1.388 . S
C2387 C2388 1.366 . S
C2388 C2387 1.366 . S
C2388 C2389 1.414 . S
C2388 C2391 1.499 . S
C2389 H2363 0.950 . S
C2389 C2388 1.414 . S
C2389 C2390 1.374 . S
C2390 H2364 0.950 1_455 S
C2390 C2386 1.385 . S
C2390 C2389 1.374 . S
C2391 C2388 1.499 . S
C2391 C2392 1.373 . S
C2391 C2393 1.389 . S
C2392 H2365 0.950 . S
C2392 C2378 1.377 . S
C2392 C2391 1.373 . S
C2393 C2377 1.377 . S
C2393 C2391 1.389 . S
C2393 C2394 1.524 . S
C2394 C2393 1.524 . S
C2394 C2395 1.397 . S
C2394 C2399 1.363 . S
C2395 H2366 0.950 . S
C2395 C2394 1.397 . S
C2395 C2396 1.334 . S
C2396 H2367 0.950 . S
C2396 C2395 1.334 . S
C2396 C2397 1.287 . S
C2397 C2396 1.287 . S
C2397 C2398 1.524 . S
C2397 H2400 0.999 . S
C2398 H2368 0.950 . S
C2398 C2397 1.524 . S
C2398 C2399 1.415 . S
C2399 H2369 0.950 . S
C2399 C2394 1.363 . S
C2399 C2398 1.415 . S
H2400 C2397 0.999 . S
H2401 C2382 0.913 . S
H2402 C2420 0.951 . S
H2403 C2422 0.951 . S
H2404 C2424 0.950 . S
H2405 C2425 0.950 . S
H2406 C2427 0.950 . S
H2407 C2430 0.950 . S
H2408 C2431 0.950 . S
H2409 C2433 0.950 . S
H2410 C2434 0.950 . S
H2411 C2435 0.951 . S
H2412 C2437 0.951 . S
H2413 C2439 0.950 . S
H2414 C2440 0.950 . S
H2415 C2442 0.950 . S
H2416 C2445 0.950 . S
H2417 C2446 0.950 . S
H2418 C2448 0.950 . S
H2419 C2449 0.950 . S
C2420 H2402 0.951 . S
C2420 C2421 1.366 . S
C2420 C2422 1.388 . S
C2421 C2420 1.366 . S
C2421 C2425 1.385 . S
C2422 H2403 0.951 . S
C2422 C2420 1.388 . S
C2422 C2423 1.366 . S
C2423 C2422 1.366 . S
C2423 C2424 1.414 . S
C2423 C2426 1.499 . S
C2424 H2404 0.950 . S
C2424 C2423 1.414 . S
C2424 C2425 1.374 . S
C2425 H2405 0.950 . S
C2425 C2421 1.385 . S
C2425 C2424 1.374 . S
C2426 C2423 1.499 . S
C2426 C2427 1.373 . S
C2426 C2428 1.389 . S
C2427 H2406 0.950 . S
C2427 C2426 1.373 . S
C2427 C2443 1.377 . S
C2428 C2426 1.389 . S
C2428 C2429 1.524 . S
C2428 C2442 1.377 . S
C2429 C2428 1.524 . S
C2429 C2430 1.397 . S
C2429 C2434 1.363 . S
C2430 H2407 0.950 . S
C2430 C2429 1.397 . S
C2430 C2431 1.334 . S
C2431 H2408 0.950 . S
C2431 C2430 1.334 . S
C2431 C2432 1.287 . S
C2432 C2431 1.287 . S
C2432 C2433 1.524 . S
C2432 H2451 0.913 . S
C2433 H2409 0.950 . S
C2433 C2432 1.524 . S
C2433 C2434 1.415 . S
C2434 H2410 0.950 . S
C2434 C2429 1.363 . S
C2434 C2433 1.415 . S
C2435 H2411 0.951 . S
C2435 C2436 1.366 . S
C2435 C2437 1.388 . S
C2436 C2435 1.366 . S
C2436 C2440 1.385 . S
C2437 H2412 0.951 . S
C2437 C2435 1.388 . S
C2437 C2438 1.366 . S
C2438 C2437 1.366 . S
C2438 C2439 1.414 . S
C2438 C2441 1.499 . S
C2439 H2413 0.950 . S
C2439 C2438 1.414 . S
C2439 C2440 1.374 . S
C2440 H2414 0.950 . S
C2440 C2436 1.385 . S
C2440 C2439 1.374 . S
C2441 C2438 1.499 . S
C2441 C2442 1.373 . S
C2441 C2443 1.389 . S
C2442 H2415 0.950 . S
C2442 C2428 1.377 . S
C2442 C2441 1.373 . S
C2443 C2427 1.377 . S
C2443 C2441 1.389 . S
C2443 C2444 1.524 . S
C2444 C2443 1.524 . S
C2444 C2445 1.397 . S
C2444 C2449 1.363 . S
C2445 H2416 0.950 . S
C2445 C2444 1.397 . S
C2445 C2446 1.334 . S
C2446 H2417 0.950 . S
C2446 C2445 1.334 . S
C2446 C2447 1.287 . S
C2447 C2446 1.287 . S
C2447 C2448 1.524 . S
C2447 H2450 0.999 . S
C2448 H2418 0.950 . S
C2448 C2447 1.524 . S
C2448 C2449 1.415 . S
C2449 H2419 0.950 . S
C2449 C2444 1.363 . S
C2449 C2448 1.415 . S
H2450 C2447 0.999 . S
H2451 C2432 0.913 . S
H2452 C2470 0.951 . S
H2453 C2472 0.951 . S
H2454 C2474 0.950 . S
H2455 C2475 0.950 . S
H2456 C2477 0.950 . S
H2457 C2480 0.950 . S
H2458 C2481 0.950 . S
H2459 C2483 0.950 . S
H2460 C2484 0.950 . S
H2461 C2485 0.951 . S
H2462 C2487 0.951 . S
H2463 C2489 0.950 . S
H2464 C2490 1.005 . S
H2465 C2492 0.950 . S
H2466 C2495 0.950 . S
H2467 C2496 0.950 . S
H2468 C2498 0.950 . S
H2469 C2499 0.950 . S
C2470 H2452 0.951 . S
C2470 C2471 1.366 . S
C2470 C2472 1.388 . S
C2471 C2470 1.366 . S
C2471 C2475 1.385 . S
C2472 H2453 0.951 . S
C2472 C2470 1.388 . S
C2472 C2473 1.366 . S
C2473 C2472 1.366 . S
C2473 C2474 1.414 . S
C2473 C2476 1.499 . S
C2474 H2454 0.950 . S
C2474 C2473 1.414 . S
C2474 C2475 1.374 . S
C2475 H2455 0.950 . S
C2475 C2471 1.385 . S
C2475 C2474 1.374 . S
C2476 C2473 1.499 . S
C2476 C2477 1.373 . S
C2476 C2478 1.389 . S
C2477 H2456 0.950 . S
C2477 C2476 1.373 . S
C2477 C2493 1.377 . S
C2478 C2476 1.389 . S
C2478 C2479 1.524 . S
C2478 C2492 1.377 . S
C2479 C2478 1.524 . S
C2479 C2480 1.397 . S
C2479 C2484 1.363 . S
C2480 H2457 0.950 . S
C2480 C2479 1.397 . S
C2480 C2481 1.334 . S
C2481 H2458 0.950 . S
C2481 C2480 1.334 . S
C2481 C2482 1.287 . S
C2482 C2481 1.287 . S
C2482 C2483 1.524 . S
C2482 H2501 0.913 . S
C2483 H2459 0.950 . S
C2483 C2482 1.524 . S
C2483 C2484 1.415 . S
C2484 H2460 0.950 . S
C2484 C2479 1.363 . S
C2484 C2483 1.415 . S
C2485 H2461 0.951 . S
C2485 C2486 1.366 . S
C2485 C2487 1.388 . S
C2486 C2485 1.366 . S
C2486 C2490 1.356 1_556 S
C2487 H2462 0.951 . S
C2487 C2485 1.388 . S
C2487 C2488 1.366 . S
C2488 C2487 1.366 . S
C2488 C2489 1.414 . S
C2488 C2491 1.499 . S
C2489 H2463 0.950 . S
C2489 C2488 1.414 . S
C2489 C2490 1.349 1_556 S
C2490 H2464 1.005 . S
C2490 C2486 1.356 1_554 S
C2490 C2489 1.349 1_554 S
C2491 C2488 1.499 . S
C2491 C2492 1.373 . S
C2491 C2493 1.389 . S
C2492 H2465 0.950 . S
C2492 C2478 1.377 . S
C2492 C2491 1.373 . S
C2493 C2477 1.377 . S
C2493 C2491 1.389 . S
C2493 C2494 1.524 . S
C2494 C2493 1.524 . S
C2494 C2495 1.397 . S
C2494 C2499 1.363 . S
C2495 H2466 0.950 . S
C2495 C2494 1.397 . S
C2495 C2496 1.334 . S
C2496 H2467 0.950 . S
C2496 C2495 1.334 . S
C2496 C2497 1.287 . S
C2497 C2496 1.287 . S
C2497 C2498 1.524 . S
C2497 H2500 0.999 . S
C2498 H2468 0.950 . S
C2498 C2497 1.524 . S
C2498 C2499 1.415 . S
C2499 H2469 0.950 . S
C2499 C2494 1.363 . S
C2499 C2498 1.415 . S
H2500 C2497 0.999 . S
H2501 C2482 0.913 . S
H2502 C2520 0.951 . S
H2503 C2522 0.951 . S
H2504 C2524 0.950 . S
H2505 C2525 0.950 . S
H2506 C2527 0.950 . S
H2507 C2530 0.950 . S
H2508 C2531 0.950 . S
H2509 C2533 0.950 . S
H2510 C2534 0.950 . S
H2511 C2535 0.951 . S
H2512 C2537 0.951 . S
H2513 C2539 0.950 . S
H2514 C2540 0.950 . S
H2515 C2542 0.950 . S
H2516 C2545 0.950 . S
H2517 C2546 0.950 . S
H2518 C2548 0.950 . S
H2519 C2549 0.950 . S
C2520 H2502 0.951 . S
C2520 C2521 1.366 . S
C2520 C2522 1.388 . S
C2521 C2520 1.366 . S
C2521 C2525 1.385 . S
C2522 H2503 0.951 . S
C2522 C2520 1.388 . S
C2522 C2523 1.366 . S
C2523 C2522 1.366 . S
C2523 C2524 1.414 . S
C2523 C2526 1.499 . S
C2524 H2504 0.950 . S
C2524 C2523 1.414 . S
C2524 C2525 1.374 . S
C2525 H2505 0.950 . S
C2525 C2521 1.385 . S
C2525 C2524 1.374 . S
C2526 C2523 1.499 . S
C2526 C2527 1.373 . S
C2526 C2528 1.389 . S
C2527 H2506 0.950 . S
C2527 C2526 1.373 . S
C2527 C2543 1.377 . S
C2528 C2526 1.389 . S
C2528 C2529 1.524 . S
C2528 C2542 1.377 . S
C2529 C2528 1.524 . S
C2529 C2530 1.397 . S
C2529 C2534 1.363 . S
C2530 H2507 0.950 . S
C2530 C2529 1.397 . S
C2530 C2531 1.334 . S
C2531 H2508 0.950 . S
C2531 C2530 1.334 . S
C2531 C2532 1.287 . S
C2532 C2531 1.287 . S
C2532 C2533 1.524 . S
C2532 H2551 0.913 . S
C2533 H2509 0.950 . S
C2533 C2532 1.524 . S
C2533 C2534 1.415 . S
C2534 H2510 0.950 . S
C2534 C2529 1.363 . S
C2534 C2533 1.415 . S
C2535 H2511 0.951 . S
C2535 C2536 1.366 . S
C2535 C2537 1.388 . S
C2536 C2535 1.366 . S
C2536 C2540 1.385 . S
C2537 H2512 0.951 . S
C2537 C2535 1.388 . S
C2537 C2538 1.366 . S
C2538 C2537 1.366 . S
C2538 C2539 1.414 . S
C2538 C2541 1.499 . S
C2539 H2513 0.950 . S
C2539 C2538 1.414 . S
C2539 C2540 1.374 . S
C2540 H2514 0.950 . S
C2540 C2536 1.385 . S
C2540 C2539 1.374 . S
C2541 C2538 1.499 . S
C2541 C2542 1.373 . S
C2541 C2543 1.389 . S
C2542 H2515 0.950 . S
C2542 C2528 1.377 . S
C2542 C2541 1.373 . S
C2543 C2527 1.377 . S
C2543 C2541 1.389 . S
C2543 C2544 1.524 . S
C2544 C2543 1.524 . S
C2544 C2545 1.397 . S
C2544 C2549 1.363 . S
C2545 H2516 0.950 . S
C2545 C2544 1.397 . S
C2545 C2546 1.334 . S
C2546 H2517 0.950 . S
C2546 C2545 1.334 . S
C2546 C2547 1.287 . S
C2547 C2546 1.287 . S
C2547 C2548 1.524 . S
C2547 H2550 0.999 . S
C2548 H2518 0.950 . S
C2548 C2547 1.524 . S
C2548 C2549 1.415 . S
C2549 H2519 0.950 . S
C2549 C2544 1.363 . S
C2549 C2548 1.415 . S
H2550 C2547 0.999 . S
H2551 C2532 0.913 . S
H2552 C2570 0.951 . S
H2553 C2572 0.951 . S
H2554 C2574 0.950 . S
H2555 C2575 0.950 . S
H2556 C2577 0.950 . S
H2557 C2580 0.950 . S
H2558 C2581 0.950 . S
H2559 C2583 0.950 . S
H2560 C2584 0.950 1_545 S
H2561 C2585 0.946 1_565 S
H2562 C2587 0.951 1_565 S
H2563 C2589 0.950 . S
H2564 C2590 0.950 . S
H2565 C2592 0.949 1_565 S
H2566 C2595 0.950 . S
H2567 C2596 0.950 . S
H2568 C2598 0.950 . S
H2569 C2599 0.950 . S
C2570 H2552 0.951 . S
C2570 C2571 1.366 . S
C2570 C2572 1.388 . S
C2571 C2570 1.366 . S
C2571 C2575 1.385 1_545 S
C2572 H2553 0.951 . S
C2572 C2570 1.388 . S
C2572 C2573 1.366 . S
C2573 C2572 1.366 . S
C2573 C2574 1.414 1_545 S
C2573 C2576 1.499 . S
C2574 H2554 0.950 . S
C2574 C2573 1.414 1_565 S
C2574 C2575 1.374 . S
C2575 H2555 0.950 . S
C2575 C2571 1.385 1_565 S
C2575 C2574 1.374 . S
C2576 C2573 1.499 . S
C2576 C2577 1.373 . S
C2576 C2578 1.387 . S
C2577 H2556 0.950 . S
C2577 C2576 1.373 . S
C2577 C2593 1.377 . S
C2578 C2576 1.387 . S
C2578 C2579 1.528 1_545 S
C2578 C2592 1.376 . S
C2579 C2578 1.528 1_565 S
C2579 C2580 1.397 . S
C2579 C2584 1.363 . S
C2580 H2557 0.950 . S
C2580 C2579 1.397 . S
C2580 C2581 1.334 . S
C2581 H2558 0.950 . S
C2581 C2580 1.334 . S
C2581 C2582 1.287 . S
C2582 C2581 1.287 . S
C2582 C2583 1.524 . S
C2582 H2601 0.913 . S
C2583 H2559 0.950 . S
C2583 C2582 1.524 . S
C2583 C2584 1.415 . S
C2584 H2560 0.950 1_565 S
C2584 C2579 1.363 . S
C2584 C2583 1.415 . S
C2585 H2561 0.946 1_545 S
C2585 C2586 1.366 . S
C2585 C2587 1.388 . S
C2586 C2585 1.366 . S
C2586 C2590 1.385 . S
C2587 H2562 0.951 1_545 S
C2587 C2585 1.388 . S
C2587 C2588 1.366 . S
C2588 C2587 1.366 . S
C2588 C2589 1.414 . S
C2588 C2591 1.499 . S
C2589 H2563 0.950 . S
C2589 C2588 1.414 . S
C2589 C2590 1.374 . S
C2590 H2564 0.950 . S
C2590 C2586 1.385 . S
C2590 C2589 1.374 . S
C2591 C2588 1.499 . S
C2591 C2592 1.373 . S
C2591 C2593 1.389 . S
C2592 H2565 0.949 1_545 S
C2592 C2578 1.376 . S
C2592 C2591 1.373 . S
C2593 C2577 1.377 . S
C2593 C2591 1.389 . S
C2593 C2594 1.524 . S
C2594 C2593 1.524 . S
C2594 C2595 1.397 . S
C2594 C2599 1.363 . S
C2595 H2566 0.950 . S
C2595 C2594 1.397 . S
C2595 C2596 1.334 . S
C2596 H2567 0.950 . S
C2596 C2595 1.334 . S
C2596 C2597 1.287 . S
C2597 C2596 1.287 . S
C2597 C2598 1.524 . S
C2597 H2600 0.999 . S
C2598 H2568 0.950 . S
C2598 C2597 1.524 . S
C2598 C2599 1.415 . S
C2599 H2569 0.950 . S
C2599 C2594 1.363 . S
C2599 C2598 1.415 . S
H2600 C2597 0.999 . S
H2601 C2582 0.913 . S
H2602 C2620 0.951 . S
H2603 C2622 0.951 . S
H2604 C2624 0.950 . S
H2605 C2625 0.950 . S
H2606 C2627 0.950 . S
H2607 C2630 0.950 . S
H2608 C2631 0.950 . S
H2609 C2633 0.950 . S
H2610 C2634 0.950 . S
H2611 C2635 0.951 . S
H2612 C2637 0.951 . S
H2613 C2639 0.950 . S
H2614 C2640 0.950 . S
H2615 C2642 0.950 . S
H2616 C2645 0.950 . S
H2617 C2646 0.950 . S
H2618 C2648 0.950 . S
H2619 C2649 0.950 . S
C2620 H2602 0.951 . S
C2620 C2621 1.366 . S
C2620 C2622 1.388 . S
C2621 C2620 1.366 . S
C2621 C2625 1.385 . S
C2622 H2603 0.951 . S
C2622 C2620 1.388 . S
C2622 C2623 1.366 . S
C2623 C2622 1.366 . S
C2623 C2624 1.414 . S
C2623 C2626 1.499 . S
C2624 H2604 0.950 . S
C2624 C2623 1.414 . S
C2624 C2625 1.374 . S
C2625 H2605 0.950 . S
C2625 C2621 1.385 . S
C2625 C2624 1.374 . S
C2626 C2623 1.499 . S
C2626 C2627 1.373 . S
C2626 C2628 1.389 . S
C2627 H2606 0.950 . S
C2627 C2626 1.373 . S
C2627 C2643 1.377 . S
C2628 C2626 1.389 . S
C2628 C2629 1.524 . S
C2628 C2642 1.377 . S
C2629 C2628 1.524 . S
C2629 C2630 1.397 . S
C2629 C2634 1.363 . S
C2630 H2607 0.950 . S
C2630 C2629 1.397 . S
C2630 C2631 1.334 . S
C2631 H2608 0.950 . S
C2631 C2630 1.334 . S
C2631 C2632 1.287 . S
C2632 C2631 1.287 . S
C2632 C2633 1.524 . S
C2632 H2651 0.913 . S
C2633 H2609 0.950 . S
C2633 C2632 1.524 . S
C2633 C2634 1.415 . S
C2634 H2610 0.950 . S
C2634 C2629 1.363 . S
C2634 C2633 1.415 . S
C2635 H2611 0.951 . S
C2635 C2636 1.366 . S
C2635 C2637 1.388 . S
C2636 C2635 1.366 . S
C2636 C2640 1.385 . S
C2637 H2612 0.951 . S
C2637 C2635 1.388 . S
C2637 C2638 1.366 . S
C2638 C2637 1.366 . S
C2638 C2639 1.414 . S
C2638 C2641 1.499 . S
C2639 H2613 0.950 . S
C2639 C2638 1.414 . S
C2639 C2640 1.374 . S
C2640 H2614 0.950 . S
C2640 C2636 1.385 . S
C2640 C2639 1.374 . S
C2641 C2638 1.499 . S
C2641 C2642 1.373 . S
C2641 C2643 1.389 . S
C2642 H2615 0.950 . S
C2642 C2628 1.377 . S
C2642 C2641 1.373 . S
C2643 C2627 1.377 . S
C2643 C2641 1.389 . S
C2643 C2644 1.524 . S
C2644 C2643 1.524 . S
C2644 C2645 1.397 . S
C2644 C2649 1.363 . S
C2645 H2616 0.950 . S
C2645 C2644 1.397 . S
C2645 C2646 1.334 . S
C2646 H2617 0.950 . S
C2646 C2645 1.334 . S
C2646 C2647 1.287 . S
C2647 C2646 1.287 . S
C2647 C2648 1.524 . S
C2647 H2650 0.999 . S
C2648 H2618 0.950 . S
C2648 C2647 1.524 . S
C2648 C2649 1.415 . S
C2649 H2619 0.950 . S
C2649 C2644 1.363 . S
C2649 C2648 1.415 . S
H2650 C2647 0.999 . S
H2651 C2632 0.913 . S
H2652 C2670 0.951 . S
H2653 C2672 0.951 . S
H2654 C2674 0.950 . S
H2655 C2675 0.950 . S
H2656 C2677 0.950 . S
H2657 C2680 0.950 . S
H2658 C2681 0.950 . S
H2659 C2683 0.950 . S
H2660 C2684 0.950 . S
H2661 C2685 0.951 . S
H2662 C2687 0.951 . S
H2663 C2689 0.950 . S
H2664 C2690 0.950 . S
H2665 C2692 0.950 . S
H2666 C2695 0.950 . S
H2667 C2696 0.950 . S
H2668 C2698 0.950 . S
H2669 C2699 0.950 . S
C2670 H2652 0.951 . S
C2670 C2671 1.366 . S
C2670 C2672 1.388 . S
C2671 C2670 1.366 . S
C2671 C2675 1.385 . S
C2672 H2653 0.951 . S
C2672 C2670 1.388 . S
C2672 C2673 1.366 . S
C2673 C2672 1.366 . S
C2673 C2674 1.414 . S
C2673 C2676 1.499 . S
C2674 H2654 0.950 . S
C2674 C2673 1.414 . S
C2674 C2675 1.374 . S
C2675 H2655 0.950 . S
C2675 C2671 1.385 . S
C2675 C2674 1.374 . S
C2676 C2673 1.499 . S
C2676 C2677 1.373 . S
C2676 C2678 1.389 . S
C2677 H2656 0.950 . S
C2677 C2676 1.373 . S
C2677 C2693 1.377 . S
C2678 C2676 1.389 . S
C2678 C2679 1.524 1_545 S
C2678 C2692 1.377 . S
C2679 C2678 1.524 1_565 S
C2679 C2680 1.397 . S
C2679 C2684 1.363 . S
C2680 H2657 0.950 . S
C2680 C2679 1.397 . S
C2680 C2681 1.334 . S
C2681 H2658 0.950 . S
C2681 C2680 1.334 . S
C2681 C2682 1.287 . S
C2682 C2681 1.287 . S
C2682 C2683 1.524 . S
C2682 H2701 0.913 . S
C2683 H2659 0.950 . S
C2683 C2682 1.524 . S
C2683 C2684 1.415 . S
C2684 H2660 0.950 . S
C2684 C2679 1.363 . S
C2684 C2683 1.415 . S
C2685 H2661 0.951 . S
C2685 C2686 1.366 . S
C2685 C2687 1.388 . S
C2686 C2685 1.366 . S
C2686 C2690 1.385 . S
C2687 H2662 0.951 . S
C2687 C2685 1.388 . S
C2687 C2688 1.366 . S
C2688 C2687 1.366 . S
C2688 C2689 1.414 . S
C2688 C2691 1.499 . S
C2689 H2663 0.950 . S
C2689 C2688 1.414 . S
C2689 C2690 1.374 . S
C2690 H2664 0.950 . S
C2690 C2686 1.385 . S
C2690 C2689 1.374 . S
C2691 C2688 1.499 . S
C2691 C2692 1.373 . S
C2691 C2693 1.389 . S
C2692 H2665 0.950 . S
C2692 C2678 1.377 . S
C2692 C2691 1.373 . S
C2693 C2677 1.377 . S
C2693 C2691 1.389 . S
C2693 C2694 1.524 . S
C2694 C2693 1.524 . S
C2694 C2695 1.397 . S
C2694 C2699 1.363 . S
C2695 H2666 0.950 . S
C2695 C2694 1.397 . S
C2695 C2696 1.334 . S
C2696 H2667 0.950 . S
C2696 C2695 1.334 . S
C2696 C2697 1.287 . S
C2697 C2696 1.287 . S
C2697 C2698 1.524 . S
C2697 H2700 0.999 . S
C2698 H2668 0.950 . S
C2698 C2697 1.524 . S
C2698 C2699 1.415 . S
C2699 H2669 0.950 . S
C2699 C2694 1.363 . S
C2699 C2698 1.415 . S
H2700 C2697 0.999 . S
H2701 C2682 0.913 . S
H2702 C2720 0.951 . S
H2703 C2722 0.951 . S
H2704 C2724 0.950 . S
H2705 C2725 0.950 . S
H2706 C2727 0.950 . S
H2707 C2730 0.950 . S
H2708 C2731 0.950 . S
H2709 C2733 0.950 . S
H2710 C2734 0.950 . S
H2711 C2735 0.951 . S
H2712 C2737 0.951 . S
H2713 C2739 0.950 . S
H2714 C2740 0.950 . S
H2715 C2742 0.950 . S
H2716 C2745 0.950 . S
H2717 C2746 0.950 . S
H2718 C2748 0.950 . S
H2719 C2749 0.950 . S
C2720 H2702 0.951 . S
C2720 C2721 1.366 . S
C2720 C2722 1.388 . S
C2721 C2720 1.366 . S
C2721 C2725 1.385 . S
C2722 H2703 0.951 . S
C2722 C2720 1.388 . S
C2722 C2723 1.366 . S
C2723 C2722 1.366 . S
C2723 C2724 1.414 . S
C2723 C2726 1.499 . S
C2724 H2704 0.950 . S
C2724 C2723 1.414 . S
C2724 C2725 1.374 . S
C2725 H2705 0.950 . S
C2725 C2721 1.385 . S
C2725 C2724 1.374 . S
C2726 C2723 1.499 . S
C2726 C2727 1.373 . S
C2726 C2728 1.389 . S
C2727 H2706 0.950 . S
C2727 C2726 1.373 . S
C2727 C2743 1.377 . S
C2728 C2726 1.389 . S
C2728 C2729 1.524 . S
C2728 C2742 1.377 . S
C2729 C2728 1.524 . S
C2729 C2730 1.397 . S
C2729 C2734 1.363 . S
C2730 H2707 0.950 . S
C2730 C2729 1.397 . S
C2730 C2731 1.334 . S
C2731 H2708 0.950 . S
C2731 C2730 1.334 . S
C2731 C2732 1.287 . S
C2732 C2731 1.287 . S
C2732 C2733 1.524 . S
C2732 H2751 0.913 . S
C2733 H2709 0.950 . S
C2733 C2732 1.524 . S
C2733 C2734 1.415 . S
C2734 H2710 0.950 . S
C2734 C2729 1.363 . S
C2734 C2733 1.415 . S
C2735 H2711 0.951 . S
C2735 C2736 1.366 . S
C2735 C2737 1.388 . S
C2736 C2735 1.366 . S
C2736 C2740 1.385 . S
C2737 H2712 0.951 . S
C2737 C2735 1.388 . S
C2737 C2738 1.366 . S
C2738 C2737 1.366 . S
C2738 C2739 1.414 . S
C2738 C2741 1.499 . S
C2739 H2713 0.950 . S
C2739 C2738 1.414 . S
C2739 C2740 1.374 . S
C2740 H2714 0.950 . S
C2740 C2736 1.385 . S
C2740 C2739 1.374 . S
C2741 C2738 1.499 . S
C2741 C2742 1.373 . S
C2741 C2743 1.389 . S
C2742 H2715 0.950 . S
C2742 C2728 1.377 . S
C2742 C2741 1.373 . S
C2743 C2727 1.377 . S
C2743 C2741 1.389 . S
C2743 C2744 1.524 . S
C2744 C2743 1.524 . S
C2744 C2745 1.397 . S
C2744 C2749 1.363 . S
C2745 H2716 0.950 . S
C2745 C2744 1.397 . S
C2745 C2746 1.334 . S
C2746 H2717 0.950 . S
C2746 C2745 1.334 . S
C2746 C2747 1.287 . S
C2747 C2746 1.287 . S
C2747 C2748 1.524 . S
C2747 H2750 0.999 . S
C2748 H2718 0.950 . S
C2748 C2747 1.524 . S
C2748 C2749 1.415 . S
C2749 H2719 0.950 . S
C2749 C2744 1.363 . S
C2749 C2748 1.415 . S
H2750 C2747 0.999 . S
H2751 C2732 0.913 . S
H2752 C2770 0.951 . S
H2753 C2772 0.951 . S
H2754 C2774 0.950 . S
H2755 C2775 0.955 . S
H2756 C2777 0.950 . S
H2757 C2780 0.950 . S
H2758 C2781 0.950 . S
H2759 C2783 0.950 . S
H2760 C2784 0.950 . S
H2761 C2785 0.951 . S
H2762 C2787 0.951 . S
H2763 C2789 0.950 . S
H2764 C2790 0.950 . S
H2765 C2792 0.950 . S
H2766 C2795 0.950 . S
H2767 C2796 0.950 . S
H2768 C2798 0.950 . S
H2769 C2799 0.950 . S
C2770 H2752 0.951 . S
C2770 C2771 1.366 . S
C2770 C2772 1.388 1_565 S
C2771 C2770 1.366 . S
C2771 C2775 1.403 . S
C2772 H2753 0.951 . S
C2772 C2770 1.388 1_545 S
C2772 C2773 1.366 . S
C2773 C2772 1.366 . S
C2773 C2774 1.414 . S
C2773 C2776 1.499 . S
C2774 H2754 0.950 . S
C2774 C2773 1.414 . S
C2774 C2775 1.353 1_545 S
C2775 H2755 0.955 . S
C2775 C2771 1.403 . S
C2775 C2774 1.353 1_565 S
C2776 C2773 1.499 . S
C2776 C2777 1.373 1_545 S
C2776 C2778 1.389 . S
C2777 H2756 0.950 . S
C2777 C2776 1.373 1_565 S
C2777 C2793 1.389 . S
C2778 C2776 1.389 . S
C2778 C2779 1.524 . S
C2778 C2792 1.377 . S
C2779 C2778 1.524 . S
C2779 C2780 1.397 . S
C2779 C2784 1.363 . S
C2780 H2757 0.950 . S
C2780 C2779 1.397 . S
C2780 C2781 1.334 . S
C2781 H2758 0.950 . S
C2781 C2780 1.334 . S
C2781 C2782 1.287 . S
C2782 C2781 1.287 . S
C2782 C2783 1.524 . S
C2782 H2801 0.913 . S
C2783 H2759 0.950 . S
C2783 C2782 1.524 . S
C2783 C2784 1.415 . S
C2784 H2760 0.950 . S
C2784 C2779 1.363 . S
C2784 C2783 1.415 . S
C2785 H2761 0.951 . S
C2785 C2786 1.366 . S
C2785 C2787 1.388 . S
C2786 C2785 1.366 . S
C2786 C2790 1.385 . S
C2787 H2762 0.951 . S
C2787 C2785 1.388 . S
C2787 C2788 1.366 . S
C2788 C2787 1.366 . S
C2788 C2789 1.414 . S
C2788 C2791 1.499 . S
C2789 H2763 0.950 . S
C2789 C2788 1.414 . S
C2789 C2790 1.374 . S
C2790 H2764 0.950 . S
C2790 C2786 1.385 . S
C2790 C2789 1.374 . S
C2791 C2788 1.499 . S
C2791 C2792 1.373 . S
C2791 C2793 1.366 1_545 S
C2792 H2765 0.950 . S
C2792 C2778 1.377 . S
C2792 C2791 1.373 . S
C2793 C2777 1.389 . S
C2793 C2791 1.366 1_565 S
C2793 C2794 1.539 . S
C2794 C2793 1.539 . S
C2794 C2795 1.397 . S
C2794 C2799 1.363 . S
C2795 H2766 0.950 . S
C2795 C2794 1.397 . S
C2795 C2796 1.334 . S
C2796 H2767 0.950 . S
C2796 C2795 1.334 . S
C2796 C2797 1.287 . S
C2797 C2796 1.287 . S
C2797 C2798 1.524 . S
C2797 H2800 0.999 . S
C2798 H2768 0.950 . S
C2798 C2797 1.524 . S
C2798 C2799 1.415 . S
C2799 H2769 0.950 . S
C2799 C2794 1.363 . S
C2799 C2798 1.415 . S
H2800 C2797 0.999 . S
H2801 C2782 0.913 . S
H2802 C2820 0.951 . S
H2803 C2822 0.951 . S
H2804 C2824 0.950 . S
H2805 C2825 0.950 . S
H2806 C2827 0.950 . S
H2807 C2830 0.950 . S
H2808 C2831 0.950 . S
H2809 C2833 0.950 . S
H2810 C2834 0.950 . S
H2811 C2835 0.951 . S
H2812 C2837 0.951 . S
H2813 C2839 0.950 . S
H2814 C2840 0.950 . S
H2815 C2842 0.950 . S
H2816 C2845 0.950 . S
H2817 C2846 0.950 . S
H2818 C2848 0.950 . S
H2819 C2849 0.950 . S
C2820 H2802 0.951 . S
C2820 C2821 1.366 . S
C2820 C2822 1.388 . S
C2821 C2820 1.366 . S
C2821 C2825 1.385 . S
C2822 H2803 0.951 . S
C2822 C2820 1.388 . S
C2822 C2823 1.366 . S
C2823 C2822 1.366 . S
C2823 C2824 1.414 . S
C2823 C2826 1.499 . S
C2824 H2804 0.950 . S
C2824 C2823 1.414 . S
C2824 C2825 1.374 . S
C2825 H2805 0.950 . S
C2825 C2821 1.385 . S
C2825 C2824 1.374 . S
C2826 C2823 1.499 . S
C2826 C2827 1.373 . S
C2826 C2828 1.389 . S
C2827 H2806 0.950 . S
C2827 C2826 1.373 . S
C2827 C2843 1.377 . S
C2828 C2826 1.389 . S
C2828 C2829 1.524 . S
C2828 C2842 1.377 . S
C2829 C2828 1.524 . S
C2829 C2830 1.397 . S
C2829 C2834 1.363 . S
C2830 H2807 0.950 . S
C2830 C2829 1.397 . S
C2830 C2831 1.334 . S
C2831 H2808 0.950 . S
C2831 C2830 1.334 . S
C2831 C2832 1.287 . S
C2832 C2831 1.287 . S
C2832 C2833 1.524 . S
C2832 H2851 0.913 . S
C2833 H2809 0.950 . S
C2833 C2832 1.524 . S
C2833 C2834 1.415 . S
C2834 H2810 0.950 . S
C2834 C2829 1.363 . S
C2834 C2833 1.415 . S
C2835 H2811 0.951 . S
C2835 C2836 1.366 . S
C2835 C2837 1.388 . S
C2836 C2835 1.366 . S
C2836 C2840 1.385 . S
C2837 H2812 0.951 . S
C2837 C2835 1.388 . S
C2837 C2838 1.366 . S
C2838 C2837 1.366 . S
C2838 C2839 1.414 . S
C2838 C2841 1.499 . S
C2839 H2813 0.950 . S
C2839 C2838 1.414 . S
C2839 C2840 1.374 . S
C2840 H2814 0.950 . S
C2840 C2836 1.385 . S
C2840 C2839 1.374 . S
C2841 C2838 1.499 . S
C2841 C2842 1.373 . S
C2841 C2843 1.389 . S
C2842 H2815 0.950 . S
C2842 C2828 1.377 . S
C2842 C2841 1.373 . S
C2843 C2827 1.377 . S
C2843 C2841 1.389 . S
C2843 C2844 1.524 . S
C2844 C2843 1.524 . S
C2844 C2845 1.397 . S
C2844 C2849 1.363 . S
C2845 H2816 0.950 . S
C2845 C2844 1.397 . S
C2845 C2846 1.334 . S
C2846 H2817 0.950 . S
C2846 C2845 1.334 . S
C2846 C2847 1.287 . S
C2847 C2846 1.287 . S
C2847 C2848 1.524 . S
C2847 H2850 0.999 . S
C2848 H2818 0.950 . S
C2848 C2847 1.524 . S
C2848 C2849 1.415 . S
C2849 H2819 0.950 . S
C2849 C2844 1.363 . S
C2849 C2848 1.415 . S
H2850 C2847 0.999 . S
H2851 C2832 0.913 . S
H2852 C2870 0.951 . S
H2853 C2872 0.951 . S
H2854 C2874 0.950 . S
H2855 C2875 0.950 . S
H2856 C2877 0.950 . S
H2857 C2880 0.950 . S
H2858 C2881 0.950 . S
H2859 C2883 0.950 . S
H2860 C2884 0.950 . S
H2861 C2885 0.951 . S
H2862 C2887 0.951 . S
H2863 C2889 0.950 . S
H2864 C2890 0.950 . S
H2865 C2892 0.950 . S
H2866 C2895 0.950 . S
H2867 C2896 0.950 . S
H2868 C2898 0.950 . S
H2869 C2899 0.950 . S
C2870 H2852 0.951 . S
C2870 C2871 1.366 1_565 S
C2870 C2872 1.388 . S
C2871 C2870 1.366 1_545 S
C2871 C2875 1.385 . S
C2872 H2853 0.951 . S
C2872 C2870 1.388 . S
C2872 C2873 1.366 . S
C2873 C2872 1.366 . S
C2873 C2874 1.414 1_565 S
C2873 C2876 1.499 . S
C2874 H2854 0.950 . S
C2874 C2873 1.414 1_545 S
C2874 C2875 1.374 . S
C2875 H2855 0.950 . S
C2875 C2871 1.385 . S
C2875 C2874 1.374 . S
C2876 C2873 1.499 . S
C2876 C2877 1.373 1_565 S
C2876 C2878 1.389 . S
C2877 H2856 0.950 . S
C2877 C2876 1.373 1_545 S
C2877 C2893 1.377 . S
C2878 C2876 1.389 . S
C2878 C2879 1.524 . S
C2878 C2892 1.377 . S
C2879 C2878 1.524 . S
C2879 C2880 1.397 . S
C2879 C2884 1.363 . S
C2880 H2857 0.950 . S
C2880 C2879 1.397 . S
C2880 C2881 1.334 . S
C2881 H2858 0.950 . S
C2881 C2880 1.334 . S
C2881 C2882 1.287 . S
C2882 C2881 1.287 . S
C2882 C2883 1.524 . S
C2882 H2901 0.913 . S
C2883 H2859 0.950 . S
C2883 C2882 1.524 . S
C2883 C2884 1.415 . S
C2884 H2860 0.950 . S
C2884 C2879 1.363 . S
C2884 C2883 1.415 . S
C2885 H2861 0.951 . S
C2885 C2886 1.366 1_545 S
C2885 C2887 1.388 . S
C2886 C2885 1.366 1_565 S
C2886 C2890 1.385 . S
C2887 H2862 0.951 . S
C2887 C2885 1.388 . S
C2887 C2888 1.366 1_545 S
C2888 C2887 1.366 1_565 S
C2888 C2889 1.414 . S
C2888 C2891 1.499 . S
C2889 H2863 0.950 . S
C2889 C2888 1.414 . S
C2889 C2890 1.374 . S
C2890 H2864 0.950 . S
C2890 C2886 1.385 . S
C2890 C2889 1.374 . S
C2891 C2888 1.499 . S
C2891 C2892 1.373 . S
C2891 C2893 1.389 1_565 S
C2892 H2865 0.950 . S
C2892 C2878 1.377 . S
C2892 C2891 1.373 . S
C2893 C2877 1.377 . S
C2893 C2891 1.389 1_545 S
C2893 C2894 1.524 . S
C2894 C2893 1.524 . S
C2894 C2895 1.397 . S
C2894 C2899 1.363 . S
C2895 H2866 0.950 . S
C2895 C2894 1.397 . S
C2895 C2896 1.334 . S
C2896 H2867 0.950 . S
C2896 C2895 1.334 . S
C2896 C2897 1.287 . S
C2897 C2896 1.287 . S
C2897 C2898 1.524 . S
C2897 H2900 0.999 . S
C2898 H2868 0.950 . S
C2898 C2897 1.524 . S
C2898 C2899 1.415 . S
C2899 H2869 0.950 . S
C2899 C2894 1.363 . S
C2899 C2898 1.415 . S
H2900 C2897 0.999 . S
H2901 C2882 0.913 . S
H2902 C2920 0.951 . S
H2903 C2922 0.951 . S
H2904 C2924 0.950 . S
H2905 C2925 0.950 . S
H2906 C2927 0.950 . S
H2907 C2930 0.950 . S
H2908 C2931 0.950 . S
H2909 C2933 0.950 . S
H2910 C2934 0.950 . S
H2911 C2935 0.951 . S
H2912 C2937 0.951 . S
H2913 C2939 0.950 . S
H2914 C2940 0.950 . S
H2915 C2942 0.950 . S
H2916 C2945 0.950 . S
H2917 C2946 0.950 . S
H2918 C2948 0.950 . S
H2919 C2949 0.950 . S
C2920 H2902 0.951 . S
C2920 C2921 1.366 . S
C2920 C2922 1.388 . S
C2921 C2920 1.366 . S
C2921 C2925 1.385 . S
C2922 H2903 0.951 . S
C2922 C2920 1.388 . S
C2922 C2923 1.366 . S
C2923 C2922 1.366 . S
C2923 C2924 1.414 . S
C2923 C2926 1.499 . S
C2924 H2904 0.950 . S
C2924 C2923 1.414 . S
C2924 C2925 1.374 . S
C2925 H2905 0.950 . S
C2925 C2921 1.385 . S
C2925 C2924 1.374 . S
C2926 C2923 1.499 . S
C2926 C2927 1.373 . S
C2926 C2928 1.389 . S
C2927 H2906 0.950 . S
C2927 C2926 1.373 . S
C2927 C2943 1.377 . S
C2928 C2926 1.389 . S
C2928 C2929 1.524 . S
C2928 C2942 1.377 . S
C2929 C2928 1.524 . S
C2929 C2930 1.397 . S
C2929 C2934 1.363 . S
C2930 H2907 0.950 . S
C2930 C2929 1.397 . S
C2930 C2931 1.334 . S
C2931 H2908 0.950 . S
C2931 C2930 1.334 . S
C2931 C2932 1.287 . S
C2932 C2931 1.287 . S
C2932 C2933 1.524 . S
C2932 H2951 0.913 . S
C2933 H2909 0.950 . S
C2933 C2932 1.524 . S
C2933 C2934 1.415 . S
C2934 H2910 0.950 . S
C2934 C2929 1.363 . S
C2934 C2933 1.415 . S
C2935 H2911 0.951 . S
C2935 C2936 1.366 . S
C2935 C2937 1.388 . S
C2936 C2935 1.366 . S
C2936 C2940 1.385 . S
C2937 H2912 0.951 . S
C2937 C2935 1.388 . S
C2937 C2938 1.366 . S
C2938 C2937 1.366 . S
C2938 C2939 1.414 . S
C2938 C2941 1.499 . S
C2939 H2913 0.950 . S
C2939 C2938 1.414 . S
C2939 C2940 1.374 . S
C2940 H2914 0.950 . S
C2940 C2936 1.385 . S
C2940 C2939 1.374 . S
C2941 C2938 1.499 . S
C2941 C2942 1.373 . S
C2941 C2943 1.389 . S
C2942 H2915 0.950 . S
C2942 C2928 1.377 . S
C2942 C2941 1.373 . S
C2943 C2927 1.377 . S
C2943 C2941 1.389 . S
C2943 C2944 1.524 . S
C2944 C2943 1.524 . S
C2944 C2945 1.397 . S
C2944 C2949 1.363 . S
C2945 H2916 0.950 . S
C2945 C2944 1.397 . S
C2945 C2946 1.334 . S
C2946 H2917 0.950 . S
C2946 C2945 1.334 . S
C2946 C2947 1.287 . S
C2947 C2946 1.287 . S
C2947 C2948 1.524 . S
C2947 H2950 0.999 . S
C2948 H2918 0.950 . S
C2948 C2947 1.524 . S
C2948 C2949 1.415 . S
C2949 H2919 0.950 . S
C2949 C2944 1.363 . S
C2949 C2948 1.415 . S
H2950 C2947 0.999 . S
H2951 C2932 0.913 . S
H2952 C2970 0.951 . S
H2953 C2972 0.951 . S
H2954 C2974 0.950 . S
H2955 C2975 0.950 . S
H2956 C2977 0.950 . S
H2957 C2980 0.950 . S
H2958 C2981 0.950 . S
H2959 C2983 0.950 . S
H2960 C2984 0.950 . S
H2961 C2985 0.951 . S
H2962 C2987 0.974 . S
H2963 C2989 0.950 . S
H2964 C2990 0.950 . S
H2965 C2992 0.950 . S
H2966 C2995 0.950 . S
H2967 C2996 0.950 . S
H2968 C2998 0.950 . S
H2969 C2999 0.950 1_554 S
C2970 H2952 0.951 . S
C2970 C2971 1.366 1_556 S
C2970 C2972 1.388 . S
C2971 C2970 1.366 1_554 S
C2971 C2975 1.385 . S
C2972 H2953 0.951 . S
C2972 C2970 1.388 . S
C2972 C2973 1.375 . S
C2973 C2972 1.375 . S
C2973 C2974 1.399 1_556 S
C2973 C2976 1.505 . S
C2974 H2954 0.950 . S
C2974 C2973 1.399 1_554 S
C2974 C2975 1.374 . S
C2975 H2955 0.950 . S
C2975 C2971 1.385 . S
C2975 C2974 1.374 . S
C2976 C2973 1.505 . S
C2976 C2977 1.373 . S
C2976 C2978 1.389 . S
C2977 H2956 0.950 . S
C2977 C2976 1.373 . S
C2977 C2993 1.377 . S
C2978 C2976 1.389 . S
C2978 C2979 1.524 1_556 S
C2978 C2992 1.377 . S
C2979 C2978 1.524 1_554 S
C2979 C2980 1.397 . S
C2979 C2984 1.363 1_554 S
C2980 H2957 0.950 . S
C2980 C2979 1.397 . S
C2980 C2981 1.334 . S
C2981 H2958 0.950 . S
C2981 C2980 1.334 . S
C2981 C2982 1.287 . S
C2982 C2981 1.287 . S
C2982 C2983 1.524 1_554 S
C2982 H3001 0.913 . S
C2983 H2959 0.950 . S
C2983 C2982 1.524 1_556 S
C2983 C2984 1.415 . S
C2984 H2960 0.950 . S
C2984 C2979 1.363 1_556 S
C2984 C2983 1.415 . S
C2985 H2961 0.951 . S
C2985 C2986 1.366 . S
C2985 C2987 1.388 . S
C2986 C2985 1.366 . S
C2986 C2990 1.385 . S
C2987 H2962 0.974 . S
C2987 C2985 1.388 . S
C2987 C2988 1.366 . S
C2988 C2987 1.366 . S
C2988 C2989 1.414 . S
C2988 C2991 1.499 . S
C2989 H2963 0.950 . S
C2989 C2988 1.414 . S
C2989 C2990 1.374 . S
C2990 H2964 0.950 . S
C2990 C2986 1.385 . S
C2990 C2989 1.374 . S
C2991 C2988 1.499 . S
C2991 C2992 1.373 . S
C2991 C2993 1.389 . S
C2992 H2965 0.950 . S
C2992 C2978 1.377 . S
C2992 C2991 1.373 . S
C2993 C2977 1.377 . S
C2993 C2991 1.389 . S
C2993 C2994 1.524 . S
C2994 C2993 1.524 . S
C2994 C2995 1.397 . S
C2994 C2999 1.363 . S
C2995 H2966 0.950 . S
C2995 C2994 1.397 . S
C2995 C2996 1.334 . S
C2996 H2967 0.950 . S
C2996 C2995 1.334 . S
C2996 C2997 1.287 . S
C2997 C2996 1.287 . S
C2997 C2998 1.524 . S
C2997 H3000 0.999 . S
C2998 H2968 0.950 . S
C2998 C2997 1.524 . S
C2998 C2999 1.415 . S
C2999 H2969 0.950 1_556 S
C2999 C2994 1.363 . S
C2999 C2998 1.415 . S
H3000 C2997 0.999 . S
H3001 C2982 0.913 . S
H3002 C3020 0.951 . S
H3003 C3022 0.951 . S
H3004 C3024 0.950 . S
H3005 C3025 0.950 . S
H3006 C3027 0.950 . S
H3007 C3030 0.950 . S
H3008 C3031 0.950 . S
H3009 C3033 0.950 . S
H3010 C3034 0.950 1_554 S
H3011 C3035 0.951 . S
H3012 C3037 0.951 . S
H3013 C3039 0.950 . S
H3014 C3040 0.950 . S
H3015 C3042 0.950 . S
H3016 C3045 0.950 . S
H3017 C3046 0.950 . S
H3018 C3048 0.950 . S
H3019 C3049 0.950 . S
C3020 H3002 0.951 . S
C3020 C3021 1.366 . S
C3020 C3022 1.388 . S
C3021 C3020 1.366 . S
C3021 C3025 1.385 . S
C3022 H3003 0.951 . S
C3022 C3020 1.388 . S
C3022 C3023 1.366 . S
C3023 C3022 1.366 . S
C3023 C3024 1.414 . S
C3023 C3026 1.499 . S
C3024 H3004 0.950 . S
C3024 C3023 1.414 . S
C3024 C3025 1.374 . S
C3025 H3005 0.950 . S
C3025 C3021 1.385 . S
C3025 C3024 1.374 . S
C3026 C3023 1.499 . S
C3026 C3027 1.373 . S
C3026 C3028 1.389 . S
C3027 H3006 0.950 . S
C3027 C3026 1.373 . S
C3027 C3043 1.377 . S
C3028 C3026 1.389 . S
C3028 C3029 1.524 1_554 S
C3028 C3042 1.377 . S
C3029 C3028 1.524 1_556 S
C3029 C3030 1.397 . S
C3029 C3034 1.363 . S
C3030 H3007 0.950 . S
C3030 C3029 1.397 . S
C3030 C3031 1.334 . S
C3031 H3008 0.950 . S
C3031 C3030 1.334 . S
C3031 C3032 1.287 . S
C3032 C3031 1.287 . S
C3032 C3033 1.524 . S
C3032 H3051 0.913 . S
C3033 H3009 0.950 . S
C3033 C3032 1.524 . S
C3033 C3034 1.415 . S
C3034 H3010 0.950 1_556 S
C3034 C3029 1.363 . S
C3034 C3033 1.415 . S
C3035 H3011 0.951 . S
C3035 C3036 1.366 . S
C3035 C3037 1.388 . S
C3036 C3035 1.366 . S
C3036 C3040 1.385 . S
C3037 H3012 0.951 . S
C3037 C3035 1.388 . S
C3037 C3038 1.366 . S
C3038 C3037 1.366 . S
C3038 C3039 1.414 . S
C3038 C3041 1.499 . S
C3039 H3013 0.950 . S
C3039 C3038 1.414 . S
C3039 C3040 1.374 . S
C3040 H3014 0.950 . S
C3040 C3036 1.385 . S
C3040 C3039 1.374 . S
C3041 C3038 1.499 . S
C3041 C3042 1.373 . S
C3041 C3043 1.389 . S
C3042 H3015 0.950 . S
C3042 C3028 1.377 . S
C3042 C3041 1.373 . S
C3043 C3027 1.377 . S
C3043 C3041 1.389 . S
C3043 C3044 1.524 . S
C3044 C3043 1.524 . S
C3044 C3045 1.397 . S
C3044 C3049 1.363 . S
C3045 H3016 0.950 . S
C3045 C3044 1.397 . S
C3045 C3046 1.334 . S
C3046 H3017 0.950 . S
C3046 C3045 1.334 . S
C3046 C3047 1.287 . S
C3047 C3046 1.287 . S
C3047 C3048 1.524 . S
C3047 H3050 0.999 . S
C3048 H3018 0.950 . S
C3048 C3047 1.524 . S
C3048 C3049 1.415 . S
C3049 H3019 0.950 . S
C3049 C3044 1.363 . S
C3049 C3048 1.415 . S
H3050 C3047 0.999 . S
H3051 C3032 0.913 . S
H3052 C3070 0.951 . S
H3053 C3072 0.951 . S
H3054 C3074 0.950 . S
H3055 C3075 0.950 . S
H3056 C3077 0.950 . S
H3057 C3080 0.950 . S
H3058 C3081 0.950 . S
H3059 C3083 0.950 . S
H3060 C3084 0.950 . S
H3061 C3085 0.951 . S
H3062 C3087 0.951 . S
H3063 C3089 0.950 . S
H3064 C3090 0.950 . S
H3065 C3092 0.950 . S
H3066 C3095 0.950 . S
H3067 C3096 0.950 . S
H3068 C3098 0.950 . S
H3069 C3099 0.950 . S
C3070 H3052 0.951 . S
C3070 C3071 1.366 . S
C3070 C3072 1.388 . S
C3071 C3070 1.366 . S
C3071 C3075 1.385 . S
C3072 H3053 0.951 . S
C3072 C3070 1.388 . S
C3072 C3073 1.366 . S
C3073 C3072 1.366 . S
C3073 C3074 1.414 . S
C3073 C3076 1.499 . S
C3074 H3054 0.950 . S
C3074 C3073 1.414 . S
C3074 C3075 1.374 . S
C3075 H3055 0.950 . S
C3075 C3071 1.385 . S
C3075 C3074 1.374 . S
C3076 C3073 1.499 . S
C3076 C3077 1.373 . S
C3076 C3078 1.389 . S
C3077 H3056 0.950 . S
C3077 C3076 1.373 . S
C3077 C3093 1.377 . S
C3078 C3076 1.389 . S
C3078 C3079 1.524 . S
C3078 C3092 1.377 . S
C3079 C3078 1.524 . S
C3079 C3080 1.397 . S
C3079 C3084 1.363 . S
C3080 H3057 0.950 . S
C3080 C3079 1.397 . S
C3080 C3081 1.334 . S
C3081 H3058 0.950 . S
C3081 C3080 1.334 . S
C3081 C3082 1.287 . S
C3082 C3081 1.287 . S
C3082 C3083 1.524 . S
C3082 H3101 0.913 . S
C3083 H3059 0.950 . S
C3083 C3082 1.524 . S
C3083 C3084 1.415 . S
C3084 H3060 0.950 . S
C3084 C3079 1.363 . S
C3084 C3083 1.415 . S
C3085 H3061 0.951 . S
C3085 C3086 1.366 . S
C3085 C3087 1.388 . S
C3086 C3085 1.366 . S
C3086 C3090 1.385 . S
C3087 H3062 0.951 . S
C3087 C3085 1.388 . S
C3087 C3088 1.366 . S
C3088 C3087 1.366 . S
C3088 C3089 1.414 . S
C3088 C3091 1.499 . S
C3089 H3063 0.950 . S
C3089 C3088 1.414 . S
C3089 C3090 1.374 . S
C3090 H3064 0.950 . S
C3090 C3086 1.385 . S
C3090 C3089 1.374 . S
C3091 C3088 1.499 . S
C3091 C3092 1.373 . S
C3091 C3093 1.389 . S
C3092 H3065 0.950 . S
C3092 C3078 1.377 . S
C3092 C3091 1.373 . S
C3093 C3077 1.377 . S
C3093 C3091 1.389 . S
C3093 C3094 1.524 . S
C3094 C3093 1.524 . S
C3094 C3095 1.397 . S
C3094 C3099 1.363 . S
C3095 H3066 0.950 . S
C3095 C3094 1.397 . S
C3095 C3096 1.334 . S
C3096 H3067 0.950 . S
C3096 C3095 1.334 . S
C3096 C3097 1.287 . S
C3097 C3096 1.287 . S
C3097 C3098 1.524 . S
C3097 H3100 0.999 . S
C3098 H3068 0.950 . S
C3098 C3097 1.524 . S
C3098 C3099 1.415 . S
C3099 H3069 0.950 . S
C3099 C3094 1.363 . S
C3099 C3098 1.415 . S
H3100 C3097 0.999 . S
H3101 C3082 0.913 . S
H3102 C3120 0.951 . S
H3103 C3122 0.951 . S
H3104 C3124 0.950 . S
H3105 C3125 0.950 . S
H3106 C3127 0.950 . S
H3107 C3130 0.950 . S
H3108 C3131 0.950 . S
H3109 C3133 0.950 . S
H3110 C3134 0.950 . S
H3111 C3135 0.951 . S
H3112 C3137 0.951 . S
H3113 C3139 0.950 . S
H3114 C3140 0.950 . S
H3115 C3142 0.950 . S
H3116 C3145 0.950 . S
H3117 C3146 0.950 . S
H3118 C3148 0.950 . S
H3119 C3149 0.950 . S
C3120 H3102 0.951 . S
C3120 C3121 1.366 . S
C3120 C3122 1.388 . S
C3121 C3120 1.366 . S
C3121 C3125 1.385 . S
C3122 H3103 0.951 . S
C3122 C3120 1.388 . S
C3122 C3123 1.366 . S
C3123 C3122 1.366 . S
C3123 C3124 1.414 . S
C3123 C3126 1.499 . S
C3124 H3104 0.950 . S
C3124 C3123 1.414 . S
C3124 C3125 1.374 . S
C3125 H3105 0.950 . S
C3125 C3121 1.385 . S
C3125 C3124 1.374 . S
C3126 C3123 1.499 . S
C3126 C3127 1.373 . S
C3126 C3128 1.389 . S
C3127 H3106 0.950 . S
C3127 C3126 1.373 . S
C3127 C3143 1.377 . S
C3128 C3126 1.389 . S
C3128 C3129 1.524 . S
C3128 C3142 1.377 . S
C3129 C3128 1.524 . S
C3129 C3130 1.397 . S
C3129 C3134 1.363 . S
C3130 H3107 0.950 . S
C3130 C3129 1.397 . S
C3130 C3131 1.334 . S
C3131 H3108 0.950 . S
C3131 C3130 1.334 . S
C3131 C3132 1.287 . S
C3132 C3131 1.287 . S
C3132 C3133 1.524 . S
C3132 H3151 0.913 . S
C3133 H3109 0.950 . S
C3133 C3132 1.524 . S
C3133 C3134 1.415 . S
C3134 H3110 0.950 . S
C3134 C3129 1.363 . S
C3134 C3133 1.415 . S
C3135 H3111 0.951 . S
C3135 C3136 1.366 . S
C3135 C3137 1.388 . S
C3136 C3135 1.366 . S
C3136 C3140 1.385 . S
C3137 H3112 0.951 . S
C3137 C3135 1.388 . S
C3137 C3138 1.366 . S
C3138 C3137 1.366 . S
C3138 C3139 1.414 . S
C3138 C3141 1.499 . S
C3139 H3113 0.950 . S
C3139 C3138 1.414 . S
C3139 C3140 1.374 . S
C3140 H3114 0.950 . S
C3140 C3136 1.385 . S
C3140 C3139 1.374 . S
C3141 C3138 1.499 . S
C3141 C3142 1.373 . S
C3141 C3143 1.389 . S
C3142 H3115 0.950 . S
C3142 C3128 1.377 . S
C3142 C3141 1.373 . S
C3143 C3127 1.377 . S
C3143 C3141 1.389 . S
C3143 C3144 1.524 . S
C3144 C3143 1.524 . S
C3144 C3145 1.397 . S
C3144 C3149 1.363 . S
C3145 H3116 0.950 . S
C3145 C3144 1.397 . S
C3145 C3146 1.334 . S
C3146 H3117 0.950 . S
C3146 C3145 1.334 . S
C3146 C3147 1.287 . S
C3147 C3146 1.287 . S
C3147 C3148 1.524 . S
C3147 H3150 0.999 . S
C3148 H3118 0.950 . S
C3148 C3147 1.524 . S
C3148 C3149 1.415 . S
C3149 H3119 0.950 . S
C3149 C3144 1.363 . S
C3149 C3148 1.415 . S
H3150 C3147 0.999 . S
H3151 C3132 0.913 . S
H3152 C3170 0.951 . S
H3153 C3172 0.951 . S
H3154 C3174 0.950 . S
H3155 C3175 0.950 . S
H3156 C3177 0.950 . S
H3157 C3180 0.950 . S
H3158 C3181 0.950 . S
H3159 C3183 0.950 . S
H3160 C3184 0.907 1_565 S
H3161 C3185 0.951 . S
H3162 C3187 0.951 . S
H3163 C3189 0.950 . S
H3164 C3190 0.950 . S
H3165 C3192 0.950 . S
H3166 C3195 0.950 . S
H3167 C3196 0.950 . S
H3168 C3198 0.950 . S
H3169 C3199 0.950 . S
C3170 H3152 0.951 . S
C3170 C3171 1.366 . S
C3170 C3172 1.388 1_545 S
C3171 C3170 1.366 . S
C3171 C3175 1.385 1_545 S
C3172 H3153 0.951 . S
C3172 C3170 1.388 1_565 S
C3172 C3173 1.366 . S
C3173 C3172 1.366 . S
C3173 C3174 1.414 . S
C3173 C3176 1.499 . S
C3174 H3154 0.950 . S
C3174 C3173 1.414 . S
C3174 C3175 1.374 . S
C3175 H3155 0.950 . S
C3175 C3171 1.385 1_565 S
C3175 C3174 1.374 . S
C3176 C3173 1.499 . S
C3176 C3177 1.373 . S
C3176 C3178 1.389 . S
C3177 H3156 0.950 . S
C3177 C3176 1.373 . S
C3177 C3193 1.377 . S
C3178 C3176 1.389 . S
C3178 C3179 1.524 . S
C3178 C3192 1.377 . S
C3179 C3178 1.524 . S
C3179 C3180 1.397 1_565 S
C3179 C3184 1.357 1_565 S
C3180 H3157 0.950 . S
C3180 C3179 1.397 1_545 S
C3180 C3181 1.334 . S
C3181 H3158 0.950 . S
C3181 C3180 1.334 . S
C3181 C3182 1.287 . S
C3182 C3181 1.287 . S
C3182 C3183 1.524 . S
C3182 H3201 0.913 . S
C3183 H3159 0.950 . S
C3183 C3182 1.524 . S
C3183 C3184 1.467 . S
C3184 H3160 0.907 1_545 S
C3184 C3179 1.357 1_545 S
C3184 C3183 1.467 . S
C3185 H3161 0.951 . S
C3185 C3186 1.366 . S
C3185 C3187 1.388 . S
C3186 C3185 1.366 . S
C3186 C3190 1.385 . S
C3187 H3162 0.951 . S
C3187 C3185 1.388 . S
C3187 C3188 1.366 . S
C3188 C3187 1.366 . S
C3188 C3189 1.414 . S
C3188 C3191 1.499 . S
C3189 H3163 0.950 . S
C3189 C3188 1.414 . S
C3189 C3190 1.374 . S
C3190 H3164 0.950 . S
C3190 C3186 1.385 . S
C3190 C3189 1.374 . S
C3191 C3188 1.499 . S
C3191 C3192 1.373 . S
C3191 C3193 1.389 . S
C3192 H3165 0.950 . S
C3192 C3178 1.377 . S
C3192 C3191 1.373 . S
C3193 C3177 1.377 . S
C3193 C3191 1.389 . S
C3193 C3194 1.524 . S
C3194 C3193 1.524 . S
C3194 C3195 1.397 . S
C3194 C3199 1.363 . S
C3195 H3166 0.950 . S
C3195 C3194 1.397 . S
C3195 C3196 1.334 . S
C3196 H3167 0.950 . S
C3196 C3195 1.334 . S
C3196 C3197 1.287 . S
C3197 C3196 1.287 . S
C3197 C3198 1.524 . S
C3197 H3200 0.999 . S
C3198 H3168 0.950 . S
C3198 C3197 1.524 . S
C3198 C3199 1.415 . S
C3199 H3169 0.950 . S
C3199 C3194 1.363 . S
C3199 C3198 1.415 . S
H3200 C3197 0.999 . S
H3201 C3182 0.913 . S
H3202 C3220 0.951 . S
H3203 C3222 0.951 . S
H3204 C3224 0.950 . S
H3205 C3225 0.950 . S
H3206 C3227 0.950 . S
H3207 C3230 0.950 . S
H3208 C3231 0.950 . S
H3209 C3233 0.950 . S
H3210 C3234 0.950 . S
H3211 C3235 0.951 . S
H3212 C3237 0.951 . S
H3213 C3239 0.950 . S
H3214 C3240 0.950 . S
H3215 C3242 0.950 . S
H3216 C3245 0.950 . S
H3217 C3246 0.950 . S
H3218 C3248 0.942 1_545 S
H3219 C3249 0.950 . S
C3220 H3202 0.951 . S
C3220 C3221 1.366 . S
C3220 C3222 1.388 . S
C3221 C3220 1.366 . S
C3221 C3225 1.385 . S
C3222 H3203 0.951 . S
C3222 C3220 1.388 . S
C3222 C3223 1.366 . S
C3223 C3222 1.366 . S
C3223 C3224 1.414 . S
C3223 C3226 1.499 . S
C3224 H3204 0.950 . S
C3224 C3223 1.414 . S
C3224 C3225 1.374 . S
C3225 H3205 0.950 . S
C3225 C3221 1.385 . S
C3225 C3224 1.374 . S
C3226 C3223 1.499 . S
C3226 C3227 1.373 . S
C3226 C3228 1.389 . S
C3227 H3206 0.950 . S
C3227 C3226 1.373 . S
C3227 C3243 1.377 . S
C3228 C3226 1.389 . S
C3228 C3229 1.524 . S
C3228 C3242 1.377 . S
C3229 C3228 1.524 . S
C3229 C3230 1.397 . S
C3229 C3234 1.363 . S
C3230 H3207 0.950 . S
C3230 C3229 1.397 . S
C3230 C3231 1.334 . S
C3231 H3208 0.950 . S
C3231 C3230 1.334 . S
C3231 C3232 1.287 . S
C3232 C3231 1.287 . S
C3232 C3233 1.524 . S
C3232 H3251 0.913 . S
C3233 H3209 0.950 . S
C3233 C3232 1.524 . S
C3233 C3234 1.415 . S
C3234 H3210 0.950 . S
C3234 C3229 1.363 . S
C3234 C3233 1.415 . S
C3235 H3211 0.951 . S
C3235 C3236 1.366 . S
C3235 C3237 1.388 . S
C3236 C3235 1.366 . S
C3236 C3240 1.385 . S
C3237 H3212 0.951 . S
C3237 C3235 1.388 . S
C3237 C3238 1.366 . S
C3238 C3237 1.366 . S
C3238 C3239 1.414 . S
C3238 C3241 1.499 . S
C3239 H3213 0.950 . S
C3239 C3238 1.414 . S
C3239 C3240 1.374 . S
C3240 H3214 0.950 . S
C3240 C3236 1.385 . S
C3240 C3239 1.374 . S
C3241 C3238 1.499 . S
C3241 C3242 1.373 . S
C3241 C3243 1.389 . S
C3242 H3215 0.950 . S
C3242 C3228 1.377 . S
C3242 C3241 1.373 . S
C3243 C3227 1.377 . S
C3243 C3241 1.389 . S
C3243 C3244 1.524 . S
C3244 C3243 1.524 . S
C3244 C3245 1.397 . S
C3244 C3249 1.363 . S
C3245 H3216 0.950 . S
C3245 C3244 1.397 . S
C3245 C3246 1.334 1_565 S
C3246 H3217 0.950 . S
C3246 C3245 1.334 1_545 S
C3246 C3247 1.287 . S
C3247 C3246 1.287 . S
C3247 C3248 1.524 1_545 S
C3247 H3250 0.999 . S
C3248 H3218 0.942 1_565 S
C3248 C3247 1.524 1_565 S
C3248 C3249 1.415 . S
C3249 H3219 0.950 . S
C3249 C3244 1.363 . S
C3249 C3248 1.415 . S
H3250 C3247 0.999 . S
H3251 C3232 0.913 . S
H3252 C3270 0.951 . S
H3253 C3272 0.951 . S
H3254 C3274 0.950 . S
H3255 C3275 0.950 . S
H3256 C3277 0.950 . S
H3257 C3280 0.950 . S
H3258 C3281 0.950 . S
H3259 C3283 0.950 . S
H3260 C3284 0.950 . S
H3261 C3285 0.951 . S
H3262 C3287 0.951 . S
H3263 C3289 0.950 . S
H3264 C3290 0.950 . S
H3265 C3292 0.950 . S
H3266 C3295 0.950 . S
H3267 C3296 0.950 . S
H3268 C3298 0.950 . S
H3269 C3299 0.950 . S
C3270 H3252 0.951 . S
C3270 C3271 1.366 . S
C3270 C3272 1.388 . S
C3271 C3270 1.366 . S
C3271 C3275 1.385 . S
C3272 H3253 0.951 . S
C3272 C3270 1.388 . S
C3272 C3273 1.366 . S
C3273 C3272 1.366 . S
C3273 C3274 1.414 . S
C3273 C3276 1.499 . S
C3274 H3254 0.950 . S
C3274 C3273 1.414 . S
C3274 C3275 1.374 . S
C3275 H3255 0.950 . S
C3275 C3271 1.385 . S
C3275 C3274 1.374 . S
C3276 C3273 1.499 . S
C3276 C3277 1.373 . S
C3276 C3278 1.389 . S
C3277 H3256 0.950 . S
C3277 C3276 1.373 . S
C3277 C3293 1.377 . S
C3278 C3276 1.389 . S
C3278 C3279 1.524 . S
C3278 C3292 1.377 . S
C3279 C3278 1.524 . S
C3279 C3280 1.397 . S
C3279 C3284 1.363 . S
C3280 H3257 0.950 . S
C3280 C3279 1.397 . S
C3280 C3281 1.334 . S
C3281 H3258 0.950 . S
C3281 C3280 1.334 . S
C3281 C3282 1.287 . S
C3282 C3281 1.287 . S
C3282 C3283 1.524 . S
C3282 H3301 0.913 . S
C3283 H3259 0.950 . S
C3283 C3282 1.524 . S
C3283 C3284 1.415 . S
C3284 H3260 0.950 . S
C3284 C3279 1.363 . S
C3284 C3283 1.415 . S
C3285 H3261 0.951 . S
C3285 C3286 1.366 . S
C3285 C3287 1.388 . S
C3286 C3285 1.366 . S
C3286 C3290 1.385 . S
C3287 H3262 0.951 . S
C3287 C3285 1.388 . S
C3287 C3288 1.366 . S
C3288 C3287 1.366 . S
C3288 C3289 1.414 . S
C3288 C3291 1.499 . S
C3289 H3263 0.950 . S
C3289 C3288 1.414 . S
C3289 C3290 1.374 . S
C3290 H3264 0.950 . S
C3290 C3286 1.385 . S
C3290 C3289 1.374 . S
C3291 C3288 1.499 . S
C3291 C3292 1.373 . S
C3291 C3293 1.389 . S
C3292 H3265 0.950 . S
C3292 C3278 1.377 . S
C3292 C3291 1.373 . S
C3293 C3277 1.377 . S
C3293 C3291 1.389 . S
C3293 C3294 1.524 . S
C3294 C3293 1.524 . S
C3294 C3295 1.397 . S
C3294 C3299 1.363 . S
C3295 H3266 0.950 . S
C3295 C3294 1.397 . S
C3295 C3296 1.334 . S
C3296 H3267 0.950 . S
C3296 C3295 1.334 . S
C3296 C3297 1.287 . S
C3297 C3296 1.287 . S
C3297 C3298 1.524 . S
C3297 H3300 0.999 . S
C3298 H3268 0.950 . S
C3298 C3297 1.524 . S
C3298 C3299 1.415 . S
C3299 H3269 0.950 . S
C3299 C3294 1.363 . S
C3299 C3298 1.415 . S
H3300 C3297 0.999 . S
H3301 C3282 0.913 . S
H3302 C3320 0.951 . S
H3303 C3322 0.951 . S
H3304 C3324 0.950 . S
H3305 C3325 0.950 . S
H3306 C3327 0.950 . S
H3307 C3330 0.950 . S
H3308 C3331 0.950 . S
H3309 C3333 0.950 . S
H3310 C3334 0.950 . S
H3311 C3335 0.951 . S
H3312 C3337 0.951 . S
H3313 C3339 0.950 . S
H3314 C3340 0.950 . S
H3315 C3342 0.950 . S
H3316 C3345 0.950 . S
H3317 C3346 0.950 . S
H3318 C3348 0.950 . S
H3319 C3349 0.950 . S
C3320 H3302 0.951 . S
C3320 C3321 1.366 . S
C3320 C3322 1.388 . S
C3321 C3320 1.366 . S
C3321 C3325 1.385 . S
C3322 H3303 0.951 . S
C3322 C3320 1.388 . S
C3322 C3323 1.366 . S
C3323 C3322 1.366 . S
C3323 C3324 1.414 . S
C3323 C3326 1.499 . S
C3324 H3304 0.950 . S
C3324 C3323 1.414 . S
C3324 C3325 1.374 . S
C3325 H3305 0.950 . S
C3325 C3321 1.385 . S
C3325 C3324 1.374 . S
C3326 C3323 1.499 . S
C3326 C3327 1.373 . S
C3326 C3328 1.389 . S
C3327 H3306 0.950 . S
C3327 C3326 1.373 . S
C3327 C3343 1.377 . S
C3328 C3326 1.389 . S
C3328 C3329 1.524 . S
C3328 C3342 1.377 . S
C3329 C3328 1.524 . S
C3329 C3330 1.397 . S
C3329 C3334 1.363 . S
C3330 H3307 0.950 . S
C3330 C3329 1.397 . S
C3330 C3331 1.334 . S
C3331 H3308 0.950 . S
C3331 C3330 1.334 . S
C3331 C3332 1.287 . S
C3332 C3331 1.287 . S
C3332 C3333 1.524 . S
C3332 H3351 0.913 . S
C3333 H3309 0.950 . S
C3333 C3332 1.524 . S
C3333 C3334 1.415 . S
C3334 H3310 0.950 . S
C3334 C3329 1.363 . S
C3334 C3333 1.415 . S
C3335 H3311 0.951 . S
C3335 C3336 1.366 . S
C3335 C3337 1.388 . S
C3336 C3335 1.366 . S
C3336 C3340 1.385 . S
C3337 H3312 0.951 . S
C3337 C3335 1.388 . S
C3337 C3338 1.366 . S
C3338 C3337 1.366 . S
C3338 C3339 1.414 . S
C3338 C3341 1.499 . S
C3339 H3313 0.950 . S
C3339 C3338 1.414 . S
C3339 C3340 1.374 . S
C3340 H3314 0.950 . S
C3340 C3336 1.385 . S
C3340 C3339 1.374 . S
C3341 C3338 1.499 . S
C3341 C3342 1.373 . S
C3341 C3343 1.389 . S
C3342 H3315 0.950 . S
C3342 C3328 1.377 . S
C3342 C3341 1.373 . S
C3343 C3327 1.377 . S
C3343 C3341 1.389 . S
C3343 C3344 1.524 . S
C3344 C3343 1.524 . S
C3344 C3345 1.397 . S
C3344 C3349 1.363 . S
C3345 H3316 0.950 . S
C3345 C3344 1.397 . S
C3345 C3346 1.334 . S
C3346 H3317 0.950 . S
C3346 C3345 1.334 . S
C3346 C3347 1.287 . S
C3347 C3346 1.287 . S
C3347 C3348 1.524 . S
C3347 H3350 0.999 . S
C3348 H3318 0.950 . S
C3348 C3347 1.524 . S
C3348 C3349 1.415 . S
C3349 H3319 0.950 . S
C3349 C3344 1.363 . S
C3349 C3348 1.415 . S
H3350 C3347 0.999 . S
H3351 C3332 0.913 . S
H3352 C3370 0.951 . S
H3353 C3372 0.951 . S
H3354 C3374 0.950 . S
H3355 C3375 0.950 . S
H3356 C3377 0.950 . S
H3357 C3380 0.950 . S
H3358 C3381 0.950 . S
H3359 C3383 0.950 . S
H3360 C3384 0.950 . S
H3361 C3385 0.951 . S
H3362 C3387 0.951 . S
H3363 C3389 0.950 . S
H3364 C3390 0.950 . S
H3365 C3392 0.950 . S
H3366 C3395 0.950 . S
H3367 C3396 0.950 . S
H3368 C3398 0.950 . S
H3369 C3399 0.950 . S
C3370 H3352 0.951 . S
C3370 C3371 1.366 . S
C3370 C3372 1.388 . S
C3371 C3370 1.366 . S
C3371 C3375 1.385 . S
C3372 H3353 0.951 . S
C3372 C3370 1.388 . S
C3372 C3373 1.366 . S
C3373 C3372 1.366 . S
C3373 C3374 1.414 . S
C3373 C3376 1.499 . S
C3374 H3354 0.950 . S
C3374 C3373 1.414 . S
C3374 C3375 1.374 . S
C3375 H3355 0.950 . S
C3375 C3371 1.385 . S
C3375 C3374 1.374 . S
C3376 C3373 1.499 . S
C3376 C3377 1.373 . S
C3376 C3378 1.389 . S
C3377 H3356 0.950 . S
C3377 C3376 1.373 . S
C3377 C3393 1.377 . S
C3378 C3376 1.389 . S
C3378 C3379 1.524 . S
C3378 C3392 1.377 . S
C3379 C3378 1.524 . S
C3379 C3380 1.397 . S
C3379 C3384 1.363 . S
C3380 H3357 0.950 . S
C3380 C3379 1.397 . S
C3380 C3381 1.334 . S
C3381 H3358 0.950 . S
C3381 C3380 1.334 . S
C3381 C3382 1.287 . S
C3382 C3381 1.287 . S
C3382 C3383 1.524 . S
C3382 H3401 0.913 . S
C3383 H3359 0.950 . S
C3383 C3382 1.524 . S
C3383 C3384 1.415 . S
C3384 H3360 0.950 . S
C3384 C3379 1.363 . S
C3384 C3383 1.415 . S
C3385 H3361 0.951 . S
C3385 C3386 1.366 . S
C3385 C3387 1.388 . S
C3386 C3385 1.366 . S
C3386 C3390 1.385 . S
C3387 H3362 0.951 . S
C3387 C3385 1.388 . S
C3387 C3388 1.366 . S
C3388 C3387 1.366 . S
C3388 C3389 1.414 . S
C3388 C3391 1.499 . S
C3389 H3363 0.950 . S
C3389 C3388 1.414 . S
C3389 C3390 1.374 . S
C3390 H3364 0.950 . S
C3390 C3386 1.385 . S
C3390 C3389 1.374 . S
C3391 C3388 1.499 . S
C3391 C3392 1.373 . S
C3391 C3393 1.389 . S
C3392 H3365 0.950 . S
C3392 C3378 1.377 . S
C3392 C3391 1.373 . S
C3393 C3377 1.377 . S
C3393 C3391 1.389 . S
C3393 C3394 1.524 . S
C3394 C3393 1.524 . S
C3394 C3395 1.397 . S
C3394 C3399 1.363 . S
C3395 H3366 0.950 . S
C3395 C3394 1.397 . S
C3395 C3396 1.334 . S
C3396 H3367 0.950 . S
C3396 C3395 1.334 . S
C3396 C3397 1.287 . S
C3397 C3396 1.287 . S
C3397 C3398 1.524 . S
C3397 H3400 0.999 . S
C3398 H3368 0.950 . S
C3398 C3397 1.524 . S
C3398 C3399 1.415 . S
C3399 H3369 0.950 . S
C3399 C3394 1.363 . S
C3399 C3398 1.415 . S
H3400 C3397 0.999 . S
H3401 C3382 0.913 . S
H3402 C3420 0.951 . S
H3403 C3422 0.951 . S
H3404 C3424 0.950 . S
H3405 C3425 0.950 . S
H3406 C3427 0.950 . S
H3407 C3430 0.950 . S
H3408 C3431 0.950 . S
H3409 C3433 0.950 . S
H3410 C3434 0.950 . S
H3411 C3435 0.951 . S
H3412 C3437 0.951 . S
H3413 C3439 0.950 . S
H3414 C3440 0.950 . S
H3415 C3442 0.950 . S
H3416 C3445 0.950 . S
H3417 C3446 0.950 . S
H3418 C3448 0.950 . S
H3419 C3449 0.950 . S
C3420 H3402 0.951 . S
C3420 C3421 1.366 . S
C3420 C3422 1.388 . S
C3421 C3420 1.366 . S
C3421 C3425 1.385 . S
C3422 H3403 0.951 . S
C3422 C3420 1.388 . S
C3422 C3423 1.366 . S
C3423 C3422 1.366 . S
C3423 C3424 1.414 . S
C3423 C3426 1.499 . S
C3424 H3404 0.950 . S
C3424 C3423 1.414 . S
C3424 C3425 1.374 . S
C3425 H3405 0.950 . S
C3425 C3421 1.385 . S
C3425 C3424 1.374 . S
C3426 C3423 1.499 . S
C3426 C3427 1.373 . S
C3426 C3428 1.389 . S
C3427 H3406 0.950 . S
C3427 C3426 1.373 . S
C3427 C3443 1.377 . S
C3428 C3426 1.389 . S
C3428 C3429 1.524 . S
C3428 C3442 1.377 . S
C3429 C3428 1.524 . S
C3429 C3430 1.397 . S
C3429 C3434 1.363 . S
C3430 H3407 0.950 . S
C3430 C3429 1.397 . S
C3430 C3431 1.334 . S
C3431 H3408 0.950 . S
C3431 C3430 1.334 . S
C3431 C3432 1.287 . S
C3432 C3431 1.287 . S
C3432 C3433 1.524 . S
C3432 H3451 0.913 . S
C3433 H3409 0.950 . S
C3433 C3432 1.524 . S
C3433 C3434 1.415 . S
C3434 H3410 0.950 . S
C3434 C3429 1.363 . S
C3434 C3433 1.415 . S
C3435 H3411 0.951 . S
C3435 C3436 1.366 . S
C3435 C3437 1.388 . S
C3436 C3435 1.366 . S
C3436 C3440 1.385 . S
C3437 H3412 0.951 . S
C3437 C3435 1.388 . S
C3437 C3438 1.366 . S
C3438 C3437 1.366 . S
C3438 C3439 1.414 . S
C3438 C3441 1.499 . S
C3439 H3413 0.950 . S
C3439 C3438 1.414 . S
C3439 C3440 1.374 . S
C3440 H3414 0.950 . S
C3440 C3436 1.385 . S
C3440 C3439 1.374 . S
C3441 C3438 1.499 . S
C3441 C3442 1.373 . S
C3441 C3443 1.389 . S
C3442 H3415 0.950 . S
C3442 C3428 1.377 . S
C3442 C3441 1.373 . S
C3443 C3427 1.377 . S
C3443 C3441 1.389 . S
C3443 C3444 1.524 . S
C3444 C3443 1.524 . S
C3444 C3445 1.397 . S
C3444 C3449 1.363 . S
C3445 H3416 0.950 . S
C3445 C3444 1.397 . S
C3445 C3446 1.334 . S
C3446 H3417 0.950 . S
C3446 C3445 1.334 . S
C3446 C3447 1.287 . S
C3447 C3446 1.287 . S
C3447 C3448 1.524 . S
C3447 H3450 0.999 . S
C3448 H3418 0.950 . S
C3448 C3447 1.524 . S
C3448 C3449 1.415 . S
C3449 H3419 0.950 . S
C3449 C3444 1.363 . S
C3449 C3448 1.415 . S
H3450 C3447 0.999 . S
H3451 C3432 0.913 . S
H3452 C3470 0.951 . S
H3453 C3472 0.951 . S
H3454 C3474 0.893 1_655 S
H3455 C3475 0.950 1_655 S
H3456 C3477 0.950 . S
H3457 C3480 0.950 1_556 S
H3458 C3481 0.950 . S
H3459 C3483 0.950 . S
H3460 C3484 0.950 . S
H3461 C3485 0.951 . S
H3462 C3487 0.951 . S
H3463 C3489 0.950 . S
H3464 C3490 0.950 . S
H3465 C3492 0.950 1_554 S
H3466 C3495 0.950 . S
H3467 C3496 0.950 . S
H3468 C3498 0.950 1_655 S
H3469 C3499 0.950 1_655 S
C3470 H3452 0.951 . S
C3470 C3471 1.366 . S
C3470 C3472 1.388 . S
C3471 C3470 1.366 . S
C3471 C3475 1.385 . S
C3472 H3453 0.951 . S
C3472 C3470 1.388 . S
C3472 C3473 1.366 . S
C3473 C3472 1.366 . S
C3473 C3474 1.414 . S
C3473 C3476 1.499 . S
C3474 H3454 0.893 1_455 S
C3474 C3473 1.414 . S
C3474 C3475 1.374 . S
C3475 H3455 0.950 1_455 S
C3475 C3471 1.385 . S
C3475 C3474 1.374 . S
C3476 C3473 1.499 . S
C3476 C3477 1.373 . S
C3476 C3478 1.389 . S
C3477 H3456 0.950 . S
C3477 C3476 1.373 . S
C3477 C3493 1.377 . S
C3478 C3476 1.389 . S
C3478 C3479 1.546 . S
C3478 C3492 1.377 . S
C3479 C3478 1.546 . S
C3479 C3480 1.389 1_556 S
C3479 C3484 1.349 1_556 S
C3480 H3457 0.950 1_554 S
C3480 C3479 1.389 1_554 S
C3480 C3481 1.334 . S
C3481 H3458 0.950 . S
C3481 C3480 1.334 . S
C3481 C3482 1.287 . S
C3482 C3481 1.287 . S
C3482 C3483 1.524 . S
C3482 H3501 0.913 . S
C3483 H3459 0.950 . S
C3483 C3482 1.524 . S
C3483 C3484 1.415 . S
C3484 H3460 0.950 . S
C3484 C3479 1.349 1_554 S
C3484 C3483 1.415 . S
C3485 H3461 0.951 . S
C3485 C3486 1.366 . S
C3485 C3487 1.388 . S
C3486 C3485 1.366 . S
C3486 C3490 1.385 1_556 S
C3487 H3462 0.951 . S
C3487 C3485 1.388 . S
C3487 C3488 1.366 . S
C3488 C3487 1.366 . S
C3488 C3489 1.414 . S
C3488 C3491 1.499 . S
C3489 H3463 0.950 . S
C3489 C3488 1.414 . S
C3489 C3490 1.374 1_556 S
C3490 H3464 0.950 . S
C3490 C3486 1.385 1_554 S
C3490 C3489 1.374 1_554 S
C3491 C3488 1.499 . S
C3491 C3492 1.373 . S
C3491 C3493 1.389 . S
C3492 H3465 0.950 1_556 S
C3492 C3478 1.377 . S
C3492 C3491 1.373 . S
C3493 C3477 1.377 . S
C3493 C3491 1.389 . S
C3493 C3494 1.524 . S
C3494 C3493 1.524 . S
C3494 C3495 1.397 . S
C3494 C3499 1.363 . S
C3495 H3466 0.950 . S
C3495 C3494 1.397 . S
C3495 C3496 1.334 . S
C3496 H3467 0.950 . S
C3496 C3495 1.334 . S
C3496 C3497 1.287 . S
C3497 C3496 1.287 . S
C3497 C3498 1.524 . S
C3497 H3500 0.999 . S
C3498 H3468 0.950 1_455 S
C3498 C3497 1.524 . S
C3498 C3499 1.415 . S
C3499 H3469 0.950 1_455 S
C3499 C3494 1.363 . S
C3499 C3498 1.415 . S
H3500 C3497 0.999 . S
H3501 C3482 0.913 . S
H3502 C3520 0.951 . S
H3503 C3522 0.951 . S
H3504 C3524 0.950 . S
H3505 C3525 0.955 . S
H3506 C3527 0.950 . S
H3507 C3530 0.950 . S
H3508 C3531 0.950 . S
H3509 C3533 0.950 . S
H3510 C3534 0.950 . S
H3511 C3535 0.951 . S
H3512 C3537 0.951 . S
H3513 C3539 0.950 . S
H3514 C3540 0.950 . S
H3515 C3542 0.950 . S
H3516 C3545 0.950 . S
H3517 C3546 0.950 . S
H3518 C3548 0.950 . S
H3519 C3549 0.950 . S
C3520 H3502 0.951 . S
C3520 C3521 1.366 . S
C3520 C3522 1.388 1_455 S
C3521 C3520 1.366 . S
C3521 C3525 1.385 1_455 S
C3522 H3503 0.951 . S
C3522 C3520 1.388 1_655 S
C3522 C3523 1.366 . S
C3523 C3522 1.366 . S
C3523 C3524 1.414 . S
C3523 C3526 1.499 . S
C3524 H3504 0.950 . S
C3524 C3523 1.414 . S
C3524 C3525 1.374 . S
C3525 H3505 0.955 . S
C3525 C3521 1.385 1_655 S
C3525 C3524 1.374 . S
C3526 C3523 1.499 . S
C3526 C3527 1.373 . S
C3526 C3528 1.389 . S
C3527 H3506 0.950 . S
C3527 C3526 1.373 . S
C3527 C3543 1.377 . S
C3528 C3526 1.389 . S
C3528 C3529 1.524 . S
C3528 C3542 1.377 . S
C3529 C3528 1.524 . S
C3529 C3530 1.397 . S
C3529 C3534 1.363 . S
C3530 H3507 0.950 . S
C3530 C3529 1.397 . S
C3530 C3531 1.334 . S
C3531 H3508 0.950 . S
C3531 C3530 1.334 . S
C3531 C3532 1.287 . S
C3532 C3531 1.287 . S
C3532 C3533 1.524 . S
C3532 H3551 0.913 . S
C3533 H3509 0.950 . S
C3533 C3532 1.524 . S
C3533 C3534 1.415 . S
C3534 H3510 0.950 . S
C3534 C3529 1.363 . S
C3534 C3533 1.415 . S
C3535 H3511 0.951 . S
C3535 C3536 1.366 . S
C3535 C3537 1.388 . S
C3536 C3535 1.366 . S
C3536 C3540 1.385 . S
C3537 H3512 0.951 . S
C3537 C3535 1.388 . S
C3537 C3538 1.366 . S
C3538 C3537 1.366 . S
C3538 C3539 1.414 . S
C3538 C3541 1.499 . S
C3539 H3513 0.950 . S
C3539 C3538 1.414 . S
C3539 C3540 1.374 . S
C3540 H3514 0.950 . S
C3540 C3536 1.385 . S
C3540 C3539 1.374 . S
C3541 C3538 1.499 . S
C3541 C3542 1.373 . S
C3541 C3543 1.389 . S
C3542 H3515 0.950 . S
C3542 C3528 1.377 . S
C3542 C3541 1.373 . S
C3543 C3527 1.377 . S
C3543 C3541 1.389 . S
C3543 C3544 1.524 . S
C3544 C3543 1.524 . S
C3544 C3545 1.397 . S
C3544 C3549 1.363 . S
C3545 H3516 0.950 . S
C3545 C3544 1.397 . S
C3545 C3546 1.334 . S
C3546 H3517 0.950 . S
C3546 C3545 1.334 . S
C3546 C3547 1.287 . S
C3547 C3546 1.287 . S
C3547 C3548 1.524 . S
C3547 H3550 0.999 . S
C3548 H3518 0.950 . S
C3548 C3547 1.524 . S
C3548 C3549 1.415 . S
C3549 H3519 0.950 . S
C3549 C3544 1.363 . S
C3549 C3548 1.415 . S
H3550 C3547 0.999 . S
H3551 C3532 0.913 . S
H3552 C3570 0.951 . S
H3553 C3572 0.951 . S
H3554 C3574 0.950 . S
H3555 C3575 0.950 . S
H3556 C3577 0.950 . S
H3557 C3580 0.950 . S
H3558 C3581 0.950 . S
H3559 C3583 0.950 . S
H3560 C3584 0.950 . S
H3561 C3585 0.951 . S
H3562 C3587 0.951 . S
H3563 C3589 0.950 . S
H3564 C3590 0.950 . S
H3565 C3592 0.950 . S
H3566 C3595 0.950 . S
H3567 C3596 0.950 . S
H3568 C3598 0.950 . S
H3569 C3599 0.950 . S
C3570 H3552 0.951 . S
C3570 C3571 1.366 . S
C3570 C3572 1.388 . S
C3571 C3570 1.366 . S
C3571 C3575 1.385 . S
C3572 H3553 0.951 . S
C3572 C3570 1.388 . S
C3572 C3573 1.366 . S
C3573 C3572 1.366 . S
C3573 C3574 1.414 . S
C3573 C3576 1.499 . S
C3574 H3554 0.950 . S
C3574 C3573 1.414 . S
C3574 C3575 1.374 . S
C3575 H3555 0.950 . S
C3575 C3571 1.385 . S
C3575 C3574 1.374 . S
C3576 C3573 1.499 . S
C3576 C3577 1.373 . S
C3576 C3578 1.389 . S
C3577 H3556 0.950 . S
C3577 C3576 1.373 . S
C3577 C3593 1.377 . S
C3578 C3576 1.389 . S
C3578 C3579 1.524 . S
C3578 C3592 1.377 . S
C3579 C3578 1.524 . S
C3579 C3580 1.397 . S
C3579 C3584 1.363 . S
C3580 H3557 0.950 . S
C3580 C3579 1.397 . S
C3580 C3581 1.334 . S
C3581 H3558 0.950 . S
C3581 C3580 1.334 . S
C3581 C3582 1.287 . S
C3582 C3581 1.287 . S
C3582 C3583 1.524 . S
C3582 H3601 0.913 . S
C3583 H3559 0.950 . S
C3583 C3582 1.524 . S
C3583 C3584 1.415 . S
C3584 H3560 0.950 . S
C3584 C3579 1.363 . S
C3584 C3583 1.415 . S
C3585 H3561 0.951 . S
C3585 C3586 1.366 . S
C3585 C3587 1.388 . S
C3586 C3585 1.366 . S
C3586 C3590 1.385 . S
C3587 H3562 0.951 . S
C3587 C3585 1.388 . S
C3587 C3588 1.366 . S
C3588 C3587 1.366 . S
C3588 C3589 1.414 . S
C3588 C3591 1.499 . S
C3589 H3563 0.950 . S
C3589 C3588 1.414 . S
C3589 C3590 1.374 . S
C3590 H3564 0.950 . S
C3590 C3586 1.385 . S
C3590 C3589 1.374 . S
C3591 C3588 1.499 . S
C3591 C3592 1.373 . S
C3591 C3593 1.389 . S
C3592 H3565 0.950 . S
C3592 C3578 1.377 . S
C3592 C3591 1.373 . S
C3593 C3577 1.377 . S
C3593 C3591 1.389 . S
C3593 C3594 1.524 . S
C3594 C3593 1.524 . S
C3594 C3595 1.397 . S
C3594 C3599 1.363 . S
C3595 H3566 0.950 . S
C3595 C3594 1.397 . S
C3595 C3596 1.334 . S
C3596 H3567 0.950 . S
C3596 C3595 1.334 . S
C3596 C3597 1.287 . S
C3597 C3596 1.287 . S
C3597 C3598 1.524 . S
C3597 H3600 0.999 . S
C3598 H3568 0.950 . S
C3598 C3597 1.524 . S
C3598 C3599 1.415 . S
C3599 H3569 0.950 . S
C3599 C3594 1.363 . S
C3599 C3598 1.415 . S
H3600 C3597 0.999 . S
H3601 C3582 0.913 . S
H3602 C3620 0.951 . S
H3603 C3622 0.951 1_655 S
H3604 C3624 0.950 . S
H3605 C3625 0.950 . S
H3606 C3627 0.950 . S
H3607 C3630 0.950 . S
H3608 C3631 0.950 1_455 S
H3609 C3633 0.950 . S
H3610 C3634 0.950 . S
H3611 C3635 0.951 . S
H3612 C3637 0.951 . S
H3613 C3639 0.950 . S
H3614 C3640 0.950 . S
H3615 C3642 0.950 . S
H3616 C3645 0.950 . S
H3617 C3646 0.950 . S
H3618 C3648 0.950 . S
H3619 C3649 0.950 . S
C3620 H3602 0.951 . S
C3620 C3621 1.366 . S
C3620 C3622 1.388 . S
C3621 C3620 1.366 . S
C3621 C3625 1.385 . S
C3622 H3603 0.951 1_455 S
C3622 C3620 1.388 . S
C3622 C3623 1.366 . S
C3623 C3622 1.366 . S
C3623 C3624 1.414 . S
C3623 C3626 1.499 1_455 S
C3624 H3604 0.950 . S
C3624 C3623 1.414 . S
C3624 C3625 1.374 . S
C3625 H3605 0.950 . S
C3625 C3621 1.385 . S
C3625 C3624 1.374 . S
C3626 C3623 1.499 1_655 S
C3626 C3627 1.373 . S
C3626 C3628 1.389 . S
C3627 H3606 0.950 . S
C3627 C3626 1.373 . S
C3627 C3643 1.377 . S
C3628 C3626 1.389 . S
C3628 C3629 1.524 . S
C3628 C3642 1.377 . S
C3629 C3628 1.524 . S
C3629 C3630 1.397 . S
C3629 C3634 1.363 . S
C3630 H3607 0.950 . S
C3630 C3629 1.397 . S
C3630 C3631 1.334 . S
C3631 H3608 0.950 1_655 S
C3631 C3630 1.334 . S
C3631 C3632 1.287 . S
C3632 C3631 1.287 . S
C3632 C3633 1.524 . S
C3632 H3651 0.913 . S
C3633 H3609 0.950 . S
C3633 C3632 1.524 . S
C3633 C3634 1.415 . S
C3634 H3610 0.950 . S
C3634 C3629 1.363 . S
C3634 C3633 1.415 . S
C3635 H3611 0.951 . S
C3635 C3636 1.366 . S
C3635 C3637 1.388 . S
C3636 C3635 1.366 . S
C3636 C3640 1.385 . S
C3637 H3612 0.951 . S
C3637 C3635 1.388 . S
C3637 C3638 1.366 . S
C3638 C3637 1.366 . S
C3638 C3639 1.414 . S
C3638 C3641 1.499 . S
C3639 H3613 0.950 . S
C3639 C3638 1.414 . S
C3639 C3640 1.374 . S
C3640 H3614 0.950 . S
C3640 C3636 1.385 . S
C3640 C3639 1.374 . S
C3641 C3638 1.499 . S
C3641 C3642 1.373 . S
C3641 C3643 1.389 . S
C3642 H3615 0.950 . S
C3642 C3628 1.377 . S
C3642 C3641 1.373 . S
C3643 C3627 1.377 . S
C3643 C3641 1.389 . S
C3643 C3644 1.524 . S
C3644 C3643 1.524 . S
C3644 C3645 1.397 . S
C3644 C3649 1.363 . S
C3645 H3616 0.950 . S
C3645 C3644 1.397 . S
C3645 C3646 1.334 . S
C3646 H3617 0.950 . S
C3646 C3645 1.334 . S
C3646 C3647 1.287 . S
C3647 C3646 1.287 . S
C3647 C3648 1.524 . S
C3647 H3650 0.999 . S
C3648 H3618 0.950 . S
C3648 C3647 1.524 . S
C3648 C3649 1.415 . S
C3649 H3619 0.950 . S
C3649 C3644 1.363 . S
C3649 C3648 1.415 . S
H3650 C3647 0.999 . S
H3651 C3632 0.913 . S
H3652 C3670 0.951 . S
H3653 C3672 0.951 . S
H3654 C3674 0.950 . S
H3655 C3675 0.950 . S
H3656 C3677 0.950 . S
H3657 C3680 0.950 . S
H3658 C3681 0.950 . S
H3659 C3683 0.950 . S
H3660 C3684 0.950 . S
H3661 C3685 0.951 . S
H3662 C3687 0.951 . S
H3663 C3689 0.977 . S
H3664 C3690 0.950 . S
H3665 C3692 0.950 . S
H3666 C3695 0.950 . S
H3667 C3696 0.950 . S
H3668 C3698 0.950 . S
H3669 C3699 0.950 . S
C3670 H3652 0.951 . S
C3670 C3671 1.366 . S
C3670 C3672 1.388 . S
C3671 C3670 1.366 . S
C3671 C3675 1.385 1_655 S
C3672 H3653 0.951 . S
C3672 C3670 1.388 . S
C3672 C3673 1.366 1_655 S
C3673 C3672 1.366 1_455 S
C3673 C3674 1.414 . S
C3673 C3676 1.499 . S
C3674 H3654 0.950 . S
C3674 C3673 1.414 . S
C3674 C3675 1.374 . S
C3675 H3655 0.950 . S
C3675 C3671 1.385 1_455 S
C3675 C3674 1.374 . S
C3676 C3673 1.499 . S
C3676 C3677 1.373 . S
C3676 C3678 1.389 . S
C3677 H3656 0.950 . S
C3677 C3676 1.373 . S
C3677 C3693 1.377 . S
C3678 C3676 1.389 . S
C3678 C3679 1.524 . S
C3678 C3692 1.377 . S
C3679 C3678 1.524 . S
C3679 C3680 1.397 . S
C3679 C3684 1.363 1_455 S
C3680 H3657 0.950 . S
C3680 C3679 1.397 . S
C3680 C3681 1.334 . S
C3681 H3658 0.950 . S
C3681 C3680 1.334 . S
C3681 C3682 1.287 1_455 S
C3682 C3681 1.287 1_655 S
C3682 C3683 1.524 . S
C3682 H3701 0.913 . S
C3683 H3659 0.950 . S
C3683 C3682 1.524 . S
C3683 C3684 1.415 . S
C3684 H3660 0.950 . S
C3684 C3679 1.363 1_655 S
C3684 C3683 1.415 . S
C3685 H3661 0.951 . S
C3685 C3686 1.366 . S
C3685 C3687 1.388 . S
C3686 C3685 1.366 . S
C3686 C3690 1.385 . S
C3687 H3662 0.951 . S
C3687 C3685 1.388 . S
C3687 C3688 1.366 . S
C3688 C3687 1.366 . S
C3688 C3689 1.414 . S
C3688 C3691 1.499 . S
C3689 H3663 0.977 . S
C3689 C3688 1.414 . S
C3689 C3690 1.374 . S
C3690 H3664 0.950 . S
C3690 C3686 1.385 . S
C3690 C3689 1.374 . S
C3691 C3688 1.499 . S
C3691 C3692 1.373 . S
C3691 C3693 1.389 . S
C3692 H3665 0.950 . S
C3692 C3678 1.377 . S
C3692 C3691 1.373 . S
C3693 C3677 1.377 . S
C3693 C3691 1.389 . S
C3693 C3694 1.524 . S
C3694 C3693 1.524 . S
C3694 C3695 1.397 . S
C3694 C3699 1.363 . S
C3695 H3666 0.950 . S
C3695 C3694 1.397 . S
C3695 C3696 1.334 . S
C3696 H3667 0.950 . S
C3696 C3695 1.334 . S
C3696 C3697 1.287 . S
C3697 C3696 1.287 . S
C3697 C3698 1.524 . S
C3697 H3700 0.999 . S
C3698 H3668 0.950 . S
C3698 C3697 1.524 . S
C3698 C3699 1.415 . S
C3699 H3669 0.950 . S
C3699 C3694 1.363 . S
C3699 C3698 1.415 . S
H3700 C3697 0.999 . S
H3701 C3682 0.913 . S
H3702 C3720 0.951 . S
H3703 C3722 0.951 . S
H3704 C3724 0.950 . S
H3705 C3725 0.950 . S
H3706 C3727 0.950 . S
H3707 C3730 0.950 . S
H3708 C3731 0.950 . S
H3709 C3733 0.950 . S
H3710 C3734 0.950 . S
H3711 C3735 0.951 . S
H3712 C3737 0.951 . S
H3713 C3739 0.950 . S
H3714 C3740 0.950 . S
H3715 C3742 0.950 . S
H3716 C3745 0.950 . S
H3717 C3746 0.950 . S
H3718 C3748 0.950 . S
H3719 C3749 0.950 . S
C3720 H3702 0.951 . S
C3720 C3721 1.366 . S
C3720 C3722 1.388 . S
C3721 C3720 1.366 . S
C3721 C3725 1.385 . S
C3722 H3703 0.951 . S
C3722 C3720 1.388 . S
C3722 C3723 1.366 . S
C3723 C3722 1.366 . S
C3723 C3724 1.414 . S
C3723 C3726 1.499 . S
C3724 H3704 0.950 . S
C3724 C3723 1.414 . S
C3724 C3725 1.374 . S
C3725 H3705 0.950 . S
C3725 C3721 1.385 . S
C3725 C3724 1.374 . S
C3726 C3723 1.499 . S
C3726 C3727 1.373 . S
C3726 C3728 1.389 . S
C3727 H3706 0.950 . S
C3727 C3726 1.373 . S
C3727 C3743 1.377 . S
C3728 C3726 1.389 . S
C3728 C3729 1.524 . S
C3728 C3742 1.377 . S
C3729 C3728 1.524 . S
C3729 C3730 1.397 . S
C3729 C3734 1.363 . S
C3730 H3707 0.950 . S
C3730 C3729 1.397 . S
C3730 C3731 1.334 . S
C3731 H3708 0.950 . S
C3731 C3730 1.334 . S
C3731 C3732 1.287 . S
C3732 C3731 1.287 . S
C3732 C3733 1.524 . S
C3732 H3751 0.913 . S
C3733 H3709 0.950 . S
C3733 C3732 1.524 . S
C3733 C3734 1.415 . S
C3734 H3710 0.950 . S
C3734 C3729 1.363 . S
C3734 C3733 1.415 . S
C3735 H3711 0.951 . S
C3735 C3736 1.366 . S
C3735 C3737 1.388 . S
C3736 C3735 1.366 . S
C3736 C3740 1.385 . S
C3737 H3712 0.951 . S
C3737 C3735 1.388 . S
C3737 C3738 1.366 . S
C3738 C3737 1.366 . S
C3738 C3739 1.414 . S
C3738 C3741 1.499 . S
C3739 H3713 0.950 . S
C3739 C3738 1.414 . S
C3739 C3740 1.374 . S
C3740 H3714 0.950 . S
C3740 C3736 1.385 . S
C3740 C3739 1.374 . S
C3741 C3738 1.499 . S
C3741 C3742 1.373 . S
C3741 C3743 1.389 . S
C3742 H3715 0.950 . S
C3742 C3728 1.377 . S
C3742 C3741 1.373 . S
C3743 C3727 1.377 . S
C3743 C3741 1.389 . S
C3743 C3744 1.524 . S
C3744 C3743 1.524 . S
C3744 C3745 1.397 . S
C3744 C3749 1.363 . S
C3745 H3716 0.950 . S
C3745 C3744 1.397 . S
C3745 C3746 1.334 . S
C3746 H3717 0.950 . S
C3746 C3745 1.334 . S
C3746 C3747 1.287 . S
C3747 C3746 1.287 . S
C3747 C3748 1.524 . S
C3747 H3750 0.999 . S
C3748 H3718 0.950 . S
C3748 C3747 1.524 . S
C3748 C3749 1.415 . S
C3749 H3719 0.950 . S
C3749 C3744 1.363 . S
C3749 C3748 1.415 . S
H3750 C3747 0.999 . S
H3751 C3732 0.913 . S
H3752 C3770 0.951 . S
H3753 C3772 0.951 . S
H3754 C3774 0.950 . S
H3755 C3775 0.950 . S
H3756 C3777 0.950 . S
H3757 C3780 0.950 . S
H3758 C3781 0.950 . S
H3759 C3783 0.950 . S
H3760 C3784 0.950 . S
H3761 C3785 0.951 . S
H3762 C3787 0.951 . S
H3763 C3789 0.950 . S
H3764 C3790 0.950 . S
H3765 C3792 0.950 . S
H3766 C3795 0.950 . S
H3767 C3796 0.950 . S
H3768 C3798 0.950 . S
H3769 C3799 0.950 . S
C3770 H3752 0.951 . S
C3770 C3771 1.366 . S
C3770 C3772 1.388 . S
C3771 C3770 1.366 . S
C3771 C3775 1.385 . S
C3772 H3753 0.951 . S
C3772 C3770 1.388 . S
C3772 C3773 1.366 . S
C3773 C3772 1.366 . S
C3773 C3774 1.414 . S
C3773 C3776 1.499 . S
C3774 H3754 0.950 . S
C3774 C3773 1.414 . S
C3774 C3775 1.374 . S
C3775 H3755 0.950 . S
C3775 C3771 1.385 . S
C3775 C3774 1.374 . S
C3776 C3773 1.499 . S
C3776 C3777 1.373 . S
C3776 C3778 1.389 . S
C3777 H3756 0.950 . S
C3777 C3776 1.373 . S
C3777 C3793 1.377 . S
C3778 C3776 1.389 . S
C3778 C3779 1.524 . S
C3778 C3792 1.377 . S
C3779 C3778 1.524 . S
C3779 C3780 1.397 . S
C3779 C3784 1.363 . S
C3780 H3757 0.950 . S
C3780 C3779 1.397 . S
C3780 C3781 1.334 . S
C3781 H3758 0.950 . S
C3781 C3780 1.334 . S
C3781 C3782 1.287 . S
C3782 C3781 1.287 . S
C3782 C3783 1.524 . S
C3782 H3801 0.913 . S
C3783 H3759 0.950 . S
C3783 C3782 1.524 . S
C3783 C3784 1.415 . S
C3784 H3760 0.950 . S
C3784 C3779 1.363 . S
C3784 C3783 1.415 . S
C3785 H3761 0.951 . S
C3785 C3786 1.366 . S
C3785 C3787 1.388 . S
C3786 C3785 1.366 . S
C3786 C3790 1.385 . S
C3787 H3762 0.951 . S
C3787 C3785 1.388 . S
C3787 C3788 1.366 . S
C3788 C3787 1.366 . S
C3788 C3789 1.414 . S
C3788 C3791 1.499 . S
C3789 H3763 0.950 . S
C3789 C3788 1.414 . S
C3789 C3790 1.374 . S
C3790 H3764 0.950 . S
C3790 C3786 1.385 . S
C3790 C3789 1.374 . S
C3791 C3788 1.499 . S
C3791 C3792 1.373 . S
C3791 C3793 1.389 . S
C3792 H3765 0.950 . S
C3792 C3778 1.377 . S
C3792 C3791 1.373 . S
C3793 C3777 1.377 . S
C3793 C3791 1.389 . S
C3793 C3794 1.524 . S
C3794 C3793 1.524 . S
C3794 C3795 1.397 . S
C3794 C3799 1.363 . S
C3795 H3766 0.950 . S
C3795 C3794 1.397 . S
C3795 C3796 1.334 . S
C3796 H3767 0.950 . S
C3796 C3795 1.334 . S
C3796 C3797 1.287 . S
C3797 C3796 1.287 . S
C3797 C3798 1.524 . S
C3797 H3800 0.999 . S
C3798 H3768 0.950 . S
C3798 C3797 1.524 . S
C3798 C3799 1.415 . S
C3799 H3769 0.950 . S
C3799 C3794 1.363 . S
C3799 C3798 1.415 . S
H3800 C3797 0.999 . S
H3801 C3782 0.913 . S
H3802 C3820 0.951 . S
H3803 C3822 0.951 . S
H3804 C3824 0.950 . S
H3805 C3825 0.950 . S
H3806 C3827 0.950 . S
H3807 C3830 0.950 . S
H3808 C3831 0.950 . S
H3809 C3833 0.950 . S
H3810 C3834 0.950 . S
H3811 C3835 0.951 . S
H3812 C3837 0.951 . S
H3813 C3839 0.950 . S
H3814 C3840 0.950 . S
H3815 C3842 0.950 . S
H3816 C3845 0.950 . S
H3817 C3846 0.950 . S
H3818 C3848 0.950 . S
H3819 C3849 0.950 . S
C3820 H3802 0.951 . S
C3820 C3821 1.366 . S
C3820 C3822 1.388 . S
C3821 C3820 1.366 . S
C3821 C3825 1.385 . S
C3822 H3803 0.951 . S
C3822 C3820 1.388 . S
C3822 C3823 1.366 . S
C3823 C3822 1.366 . S
C3823 C3824 1.414 . S
C3823 C3826 1.499 . S
C3824 H3804 0.950 . S
C3824 C3823 1.414 . S
C3824 C3825 1.374 . S
C3825 H3805 0.950 . S
C3825 C3821 1.385 . S
C3825 C3824 1.374 . S
C3826 C3823 1.499 . S
C3826 C3827 1.373 . S
C3826 C3828 1.389 . S
C3827 H3806 0.950 . S
C3827 C3826 1.373 . S
C3827 C3843 1.377 . S
C3828 C3826 1.389 . S
C3828 C3829 1.524 . S
C3828 C3842 1.377 . S
C3829 C3828 1.524 . S
C3829 C3830 1.397 . S
C3829 C3834 1.363 . S
C3830 H3807 0.950 . S
C3830 C3829 1.397 . S
C3830 C3831 1.334 . S
C3831 H3808 0.950 . S
C3831 C3830 1.334 . S
C3831 C3832 1.287 . S
C3832 C3831 1.287 . S
C3832 C3833 1.524 . S
C3832 H3851 0.913 . S
C3833 H3809 0.950 . S
C3833 C3832 1.524 . S
C3833 C3834 1.415 . S
C3834 H3810 0.950 . S
C3834 C3829 1.363 . S
C3834 C3833 1.415 . S
C3835 H3811 0.951 . S
C3835 C3836 1.366 . S
C3835 C3837 1.388 . S
C3836 C3835 1.366 . S
C3836 C3840 1.385 . S
C3837 H3812 0.951 . S
C3837 C3835 1.388 . S
C3837 C3838 1.366 . S
C3838 C3837 1.366 . S
C3838 C3839 1.414 . S
C3838 C3841 1.499 . S
C3839 H3813 0.950 . S
C3839 C3838 1.414 . S
C3839 C3840 1.374 . S
C3840 H3814 0.950 . S
C3840 C3836 1.385 . S
C3840 C3839 1.374 . S
C3841 C3838 1.499 . S
C3841 C3842 1.373 . S
C3841 C3843 1.389 . S
C3842 H3815 0.950 . S
C3842 C3828 1.377 . S
C3842 C3841 1.373 . S
C3843 C3827 1.377 . S
C3843 C3841 1.389 . S
C3843 C3844 1.524 . S
C3844 C3843 1.524 . S
C3844 C3845 1.397 . S
C3844 C3849 1.363 . S
C3845 H3816 0.950 . S
C3845 C3844 1.397 . S
C3845 C3846 1.334 . S
C3846 H3817 0.950 . S
C3846 C3845 1.334 . S
C3846 C3847 1.287 . S
C3847 C3846 1.287 . S
C3847 C3848 1.524 . S
C3847 H3850 0.999 . S
C3848 H3818 0.950 . S
C3848 C3847 1.524 . S
C3848 C3849 1.415 . S
C3849 H3819 0.950 . S
C3849 C3844 1.363 . S
C3849 C3848 1.415 . S
H3850 C3847 0.999 . S
H3851 C3832 0.913 . S
H3852 C3870 0.951 . S
H3853 C3872 0.951 . S
H3854 C3874 0.950 . S
H3855 C3875 0.950 . S
H3856 C3877 0.950 . S
H3857 C3880 0.950 . S
H3858 C3881 0.950 . S
H3859 C3883 0.950 . S
H3860 C3884 0.950 . S
H3861 C3885 0.951 . S
H3862 C3887 0.951 . S
H3863 C3889 0.950 . S
H3864 C3890 0.950 . S
H3865 C3892 0.950 . S
H3866 C3895 0.950 . S
H3867 C3896 0.950 . S
H3868 C3898 0.950 . S
H3869 C3899 0.950 . S
C3870 H3852 0.951 . S
C3870 C3871 1.366 . S
C3870 C3872 1.388 . S
C3871 C3870 1.366 . S
C3871 C3875 1.385 . S
C3872 H3853 0.951 . S
C3872 C3870 1.388 . S
C3872 C3873 1.366 . S
C3873 C3872 1.366 . S
C3873 C3874 1.414 . S
C3873 C3876 1.499 . S
C3874 H3854 0.950 . S
C3874 C3873 1.414 . S
C3874 C3875 1.374 . S
C3875 H3855 0.950 . S
C3875 C3871 1.385 . S
C3875 C3874 1.374 . S
C3876 C3873 1.499 . S
C3876 C3877 1.373 . S
C3876 C3878 1.389 . S
C3877 H3856 0.950 . S
C3877 C3876 1.373 . S
C3877 C3893 1.377 . S
C3878 C3876 1.389 . S
C3878 C3879 1.524 . S
C3878 C3892 1.377 . S
C3879 C3878 1.524 . S
C3879 C3880 1.397 . S
C3879 C3884 1.363 . S
C3880 H3857 0.950 . S
C3880 C3879 1.397 . S
C3880 C3881 1.334 . S
C3881 H3858 0.950 . S
C3881 C3880 1.334 . S
C3881 C3882 1.287 . S
C3882 C3881 1.287 . S
C3882 C3883 1.524 . S
C3882 H3901 0.913 . S
C3883 H3859 0.950 . S
C3883 C3882 1.524 . S
C3883 C3884 1.415 . S
C3884 H3860 0.950 . S
C3884 C3879 1.363 . S
C3884 C3883 1.415 . S
C3885 H3861 0.951 . S
C3885 C3886 1.366 . S
C3885 C3887 1.388 . S
C3886 C3885 1.366 . S
C3886 C3890 1.385 . S
C3887 H3862 0.951 . S
C3887 C3885 1.388 . S
C3887 C3888 1.366 . S
C3888 C3887 1.366 . S
C3888 C3889 1.414 . S
C3888 C3891 1.499 . S
C3889 H3863 0.950 . S
C3889 C3888 1.414 . S
C3889 C3890 1.374 . S
C3890 H3864 0.950 . S
C3890 C3886 1.385 . S
C3890 C3889 1.374 . S
C3891 C3888 1.499 . S
C3891 C3892 1.373 . S
C3891 C3893 1.389 . S
C3892 H3865 0.950 . S
C3892 C3878 1.377 . S
C3892 C3891 1.373 . S
C3893 C3877 1.377 . S
C3893 C3891 1.389 . S
C3893 C3894 1.524 . S
C3894 C3893 1.524 . S
C3894 C3895 1.397 . S
C3894 C3899 1.363 . S
C3895 H3866 0.950 . S
C3895 C3894 1.397 . S
C3895 C3896 1.334 . S
C3896 H3867 0.950 . S
C3896 C3895 1.334 . S
C3896 C3897 1.287 . S
C3897 C3896 1.287 . S
C3897 C3898 1.524 . S
C3897 H3900 0.999 . S
C3898 H3868 0.950 . S
C3898 C3897 1.524 . S
C3898 C3899 1.415 . S
C3899 H3869 0.950 . S
C3899 C3894 1.363 . S
C3899 C3898 1.415 . S
H3900 C3897 0.999 . S
H3901 C3882 0.913 . S
H3902 C3920 0.951 . S
H3903 C3922 0.951 . S
H3904 C3924 0.950 . S
H3905 C3925 0.950 . S
H3906 C3927 0.950 . S
H3907 C3930 0.950 . S
H3908 C3931 0.950 . S
H3909 C3933 0.950 . S
H3910 C3934 0.950 . S
H3911 C3935 0.951 . S
H3912 C3937 0.951 . S
H3913 C3939 0.950 . S
H3914 C3940 0.950 . S
H3915 C3942 0.950 . S
H3916 C3945 0.950 . S
H3917 C3946 0.950 . S
H3918 C3948 0.950 . S
H3919 C3949 0.950 . S
C3920 H3902 0.951 . S
C3920 C3921 1.366 . S
C3920 C3922 1.388 . S
C3921 C3920 1.366 . S
C3921 C3925 1.385 . S
C3922 H3903 0.951 . S
C3922 C3920 1.388 . S
C3922 C3923 1.366 . S
C3923 C3922 1.366 . S
C3923 C3924 1.414 . S
C3923 C3926 1.499 . S
C3924 H3904 0.950 . S
C3924 C3923 1.414 . S
C3924 C3925 1.374 . S
C3925 H3905 0.950 . S
C3925 C3921 1.385 . S
C3925 C3924 1.374 . S
C3926 C3923 1.499 . S
C3926 C3927 1.373 . S
C3926 C3928 1.389 . S
C3927 H3906 0.950 . S
C3927 C3926 1.373 . S
C3927 C3943 1.377 . S
C3928 C3926 1.389 . S
C3928 C3929 1.524 . S
C3928 C3942 1.377 . S
C3929 C3928 1.524 . S
C3929 C3930 1.397 . S
C3929 C3934 1.363 . S
C3930 H3907 0.950 . S
C3930 C3929 1.397 . S
C3930 C3931 1.334 . S
C3931 H3908 0.950 . S
C3931 C3930 1.334 . S
C3931 C3932 1.287 . S
C3932 C3931 1.287 . S
C3932 C3933 1.524 . S
C3932 H3951 0.913 . S
C3933 H3909 0.950 . S
C3933 C3932 1.524 . S
C3933 C3934 1.415 . S
C3934 H3910 0.950 . S
C3934 C3929 1.363 . S
C3934 C3933 1.415 . S
C3935 H3911 0.951 . S
C3935 C3936 1.366 . S
C3935 C3937 1.388 . S
C3936 C3935 1.366 . S
C3936 C3940 1.385 . S
C3937 H3912 0.951 . S
C3937 C3935 1.388 . S
C3937 C3938 1.366 . S
C3938 C3937 1.366 . S
C3938 C3939 1.414 . S
C3938 C3941 1.499 . S
C3939 H3913 0.950 . S
C3939 C3938 1.414 . S
C3939 C3940 1.374 . S
C3940 H3914 0.950 . S
C3940 C3936 1.385 . S
C3940 C3939 1.374 . S
C3941 C3938 1.499 . S
C3941 C3942 1.373 . S
C3941 C3943 1.389 . S
C3942 H3915 0.950 . S
C3942 C3928 1.377 . S
C3942 C3941 1.373 . S
C3943 C3927 1.377 . S
C3943 C3941 1.389 . S
C3943 C3944 1.524 . S
C3944 C3943 1.524 . S
C3944 C3945 1.397 . S
C3944 C3949 1.363 . S
C3945 H3916 0.950 . S
C3945 C3944 1.397 . S
C3945 C3946 1.334 . S
C3946 H3917 0.950 . S
C3946 C3945 1.334 . S
C3946 C3947 1.287 . S
C3947 C3946 1.287 . S
C3947 C3948 1.524 . S
C3947 H3950 0.999 . S
C3948 H3918 0.950 . S
C3948 C3947 1.524 . S
C3948 C3949 1.415 . S
C3949 H3919 0.950 . S
C3949 C3944 1.363 . S
C3949 C3948 1.415 . S
H3950 C3947 0.999 . S
H3951 C3932 0.913 . S
H3952 C3970 0.951 . S
H3953 C3972 0.951 . S
H3954 C3974 0.950 . S
H3955 C3975 0.950 . S
H3956 C3977 0.950 . S
H3957 C3980 0.950 . S
H3958 C3981 0.950 . S
H3959 C3983 0.950 . S
H3960 C3984 0.950 . S
H3961 C3985 0.951 . S
H3962 C3987 0.951 . S
H3963 C3989 0.950 . S
H3964 C3990 0.950 . S
H3965 C3992 0.950 . S
H3966 C3995 0.950 . S
H3967 C3996 0.950 . S
H3968 C3998 0.950 . S
H3969 C3999 0.950 . S
C3970 H3952 0.951 . S
C3970 C3971 1.366 . S
C3970 C3972 1.388 . S
C3971 C3970 1.366 . S
C3971 C3975 1.385 . S
C3972 H3953 0.951 . S
C3972 C3970 1.388 . S
C3972 C3973 1.366 . S
C3973 C3972 1.366 . S
C3973 C3974 1.414 . S
C3973 C3976 1.499 . S
C3974 H3954 0.950 . S
C3974 C3973 1.414 . S
C3974 C3975 1.374 . S
C3975 H3955 0.950 . S
C3975 C3971 1.385 . S
C3975 C3974 1.374 . S
C3976 C3973 1.499 . S
C3976 C3977 1.373 . S
C3976 C3978 1.389 . S
C3977 H3956 0.950 . S
C3977 C3976 1.373 . S
C3977 C3993 1.377 . S
C3978 C3976 1.389 . S
C3978 C3979 1.524 . S
C3978 C3992 1.377 . S
C3979 C3978 1.524 . S
C3979 C3980 1.397 . S
C3979 C3984 1.363 . S
C3980 H3957 0.950 . S
C3980 C3979 1.397 . S
C3980 C3981 1.334 . S
C3981 H3958 0.950 . S
C3981 C3980 1.334 . S
C3981 C3982 1.287 . S
C3982 C3981 1.287 . S
C3982 C3983 1.524 . S
C3982 H4001 0.913 . S
C3983 H3959 0.950 . S
C3983 C3982 1.524 . S
C3983 C3984 1.415 . S
C3984 H3960 0.950 . S
C3984 C3979 1.363 . S
C3984 C3983 1.415 . S
C3985 H3961 0.951 . S
C3985 C3986 1.366 . S
C3985 C3987 1.388 . S
C3986 C3985 1.366 . S
C3986 C3990 1.385 . S
C3987 H3962 0.951 . S
C3987 C3985 1.388 . S
C3987 C3988 1.366 . S
C3988 C3987 1.366 . S
C3988 C3989 1.414 . S
C3988 C3991 1.499 . S
C3989 H3963 0.950 . S
C3989 C3988 1.414 . S
C3989 C3990 1.374 . S
C3990 H3964 0.950 . S
C3990 C3986 1.385 . S
C3990 C3989 1.374 . S
C3991 C3988 1.499 . S
C3991 C3992 1.373 . S
C3991 C3993 1.389 . S
C3992 H3965 0.950 . S
C3992 C3978 1.377 . S
C3992 C3991 1.373 . S
C3993 C3977 1.377 . S
C3993 C3991 1.389 . S
C3993 C3994 1.524 . S
C3994 C3993 1.524 . S
C3994 C3995 1.397 . S
C3994 C3999 1.363 . S
C3995 H3966 0.950 . S
C3995 C3994 1.397 . S
C3995 C3996 1.334 . S
C3996 H3967 0.950 . S
C3996 C3995 1.334 . S
C3996 C3997 1.287 . S
C3997 C3996 1.287 . S
C3997 C3998 1.524 . S
C3997 H4000 0.999 . S
C3998 H3968 0.950 . S
C3998 C3997 1.524 . S
C3998 C3999 1.415 . S
C3999 H3969 0.950 . S
C3999 C3994 1.363 . S
C3999 C3998 1.415 . S
H4000 C3997 0.999 . S
H4001 C3982 0.913 . S
H4002 C4020 0.951 . S
H4003 C4022 0.951 . S
H4004 C4024 0.950 . S
H4005 C4025 0.950 . S
H4006 C4027 0.950 . S
H4007 C4030 0.950 . S
H4008 C4031 0.950 . S
H4009 C4033 0.950 . S
H4010 C4034 0.950 . S
H4011 C4035 0.951 . S
H4012 C4037 0.951 . S
H4013 C4039 0.950 . S
H4014 C4040 0.950 . S
H4015 C4042 0.950 . S
H4016 C4045 0.950 . S
H4017 C4046 0.950 . S
H4018 C4048 0.950 . S
H4019 C4049 0.950 . S
C4020 H4002 0.951 . S
C4020 C4021 1.366 . S
C4020 C4022 1.388 . S
C4021 C4020 1.366 . S
C4021 C4025 1.385 . S
C4022 H4003 0.951 . S
C4022 C4020 1.388 . S
C4022 C4023 1.366 . S
C4023 C4022 1.366 . S
C4023 C4024 1.414 . S
C4023 C4026 1.499 . S
C4024 H4004 0.950 . S
C4024 C4023 1.414 . S
C4024 C4025 1.374 . S
C4025 H4005 0.950 . S
C4025 C4021 1.385 . S
C4025 C4024 1.374 . S
C4026 C4023 1.499 . S
C4026 C4027 1.373 . S
C4026 C4028 1.389 . S
C4027 H4006 0.950 . S
C4027 C4026 1.373 . S
C4027 C4043 1.377 . S
C4028 C4026 1.389 . S
C4028 C4029 1.524 . S
C4028 C4042 1.377 . S
C4029 C4028 1.524 . S
C4029 C4030 1.397 . S
C4029 C4034 1.363 . S
C4030 H4007 0.950 . S
C4030 C4029 1.397 . S
C4030 C4031 1.334 . S
C4031 H4008 0.950 . S
C4031 C4030 1.334 . S
C4031 C4032 1.287 . S
C4032 C4031 1.287 . S
C4032 C4033 1.524 . S
C4032 H4051 0.913 . S
C4033 H4009 0.950 . S
C4033 C4032 1.524 . S
C4033 C4034 1.415 . S
C4034 H4010 0.950 . S
C4034 C4029 1.363 . S
C4034 C4033 1.415 . S
C4035 H4011 0.951 . S
C4035 C4036 1.366 . S
C4035 C4037 1.388 . S
C4036 C4035 1.366 . S
C4036 C4040 1.385 . S
C4037 H4012 0.951 . S
C4037 C4035 1.388 . S
C4037 C4038 1.366 . S
C4038 C4037 1.366 . S
C4038 C4039 1.414 . S
C4038 C4041 1.499 . S
C4039 H4013 0.950 . S
C4039 C4038 1.414 . S
C4039 C4040 1.374 . S
C4040 H4014 0.950 . S
C4040 C4036 1.385 . S
C4040 C4039 1.374 . S
C4041 C4038 1.499 . S
C4041 C4042 1.373 . S
C4041 C4043 1.389 . S
C4042 H4015 0.950 . S
C4042 C4028 1.377 . S
C4042 C4041 1.373 . S
C4043 C4027 1.377 . S
C4043 C4041 1.389 . S
C4043 C4044 1.524 . S
C4044 C4043 1.524 . S
C4044 C4045 1.397 . S
C4044 C4049 1.363 . S
C4045 H4016 0.950 . S
C4045 C4044 1.397 . S
C4045 C4046 1.334 . S
C4046 H4017 0.950 . S
C4046 C4045 1.334 . S
C4046 C4047 1.287 . S
C4047 C4046 1.287 . S
C4047 C4048 1.524 . S
C4047 H4050 0.999 . S
C4048 H4018 0.950 . S
C4048 C4047 1.524 . S
C4048 C4049 1.415 . S
C4049 H4019 0.950 . S
C4049 C4044 1.363 . S
C4049 C4048 1.415 . S
H4050 C4047 0.999 . S
H4051 C4032 0.913 . S
H4052 C4070 0.951 . S
H4053 C4072 0.951 . S
H4054 C4074 0.950 . S
H4055 C4075 0.950 . S
H4056 C4077 0.950 . S
H4057 C4080 0.950 . S
H4058 C4081 0.950 . S
H4059 C4083 0.950 . S
H4060 C4084 0.950 . S
H4061 C4085 0.951 . S
H4062 C4087 0.951 . S
H4063 C4089 0.950 . S
H4064 C4090 0.950 . S
H4065 C4092 0.950 . S
H4066 C4095 0.950 . S
H4067 C4096 0.950 . S
H4068 C4098 0.950 . S
H4069 C4099 0.950 . S
C4070 H4052 0.951 . S
C4070 C4071 1.366 . S
C4070 C4072 1.388 . S
C4071 C4070 1.366 . S
C4071 C4075 1.385 . S
C4072 H4053 0.951 . S
C4072 C4070 1.388 . S
C4072 C4073 1.366 . S
C4073 C4072 1.366 . S
C4073 C4074 1.414 . S
C4073 C4076 1.499 . S
C4074 H4054 0.950 . S
C4074 C4073 1.414 . S
C4074 C4075 1.374 . S
C4075 H4055 0.950 . S
C4075 C4071 1.385 . S
C4075 C4074 1.374 . S
C4076 C4073 1.499 . S
C4076 C4077 1.373 . S
C4076 C4078 1.389 . S
C4077 H4056 0.950 . S
C4077 C4076 1.373 . S
C4077 C4093 1.377 . S
C4078 C4076 1.389 . S
C4078 C4079 1.524 . S
C4078 C4092 1.377 . S
C4079 C4078 1.524 . S
C4079 C4080 1.397 . S
C4079 C4084 1.363 . S
C4080 H4057 0.950 . S
C4080 C4079 1.397 . S
C4080 C4081 1.334 . S
C4081 H4058 0.950 . S
C4081 C4080 1.334 . S
C4081 C4082 1.287 . S
C4082 C4081 1.287 . S
C4082 C4083 1.524 . S
C4082 H4101 0.913 . S
C4083 H4059 0.950 . S
C4083 C4082 1.524 . S
C4083 C4084 1.415 . S
C4084 H4060 0.950 . S
C4084 C4079 1.363 . S
C4084 C4083 1.415 . S
C4085 H4061 0.951 . S
C4085 C4086 1.366 . S
C4085 C4087 1.388 . S
C4086 C4085 1.366 . S
C4086 C4090 1.385 . S
C4087 H4062 0.951 . S
C4087 C4085 1.388 . S
C4087 C4088 1.366 . S
C4088 C4087 1.366 . S
C4088 C4089 1.414 . S
C4088 C4091 1.499 . S
C4089 H4063 0.950 . S
C4089 C4088 1.414 . S
C4089 C4090 1.374 . S
C4090 H4064 0.950 . S
C4090 C4086 1.385 . S
C4090 C4089 1.374 . S
C4091 C4088 1.499 . S
C4091 C4092 1.373 . S
C4091 C4093 1.389 . S
C4092 H4065 0.950 . S
C4092 C4078 1.377 . S
C4092 C4091 1.373 . S
C4093 C4077 1.377 . S
C4093 C4091 1.389 . S
C4093 C4094 1.524 . S
C4094 C4093 1.524 . S
C4094 C4095 1.397 . S
C4094 C4099 1.363 . S
C4095 H4066 0.950 . S
C4095 C4094 1.397 . S
C4095 C4096 1.334 . S
C4096 H4067 0.950 . S
C4096 C4095 1.334 . S
C4096 C4097 1.287 . S
C4097 C4096 1.287 . S
C4097 C4098 1.524 . S
C4097 H4100 0.999 . S
C4098 H4068 0.950 . S
C4098 C4097 1.524 . S
C4098 C4099 1.415 . S
C4099 H4069 0.950 . S
C4099 C4094 1.363 . S
C4099 C4098 1.415 . S
H4100 C4097 0.999 . S
H4101 C4082 0.913 . S
H4102 C4120 0.951 . S
H4103 C4122 0.951 . S
H4104 C4124 0.950 . S
H4105 C4125 0.950 . S
H4106 C4127 0.950 . S
H4107 C4130 0.950 . S
H4108 C4131 0.950 . S
H4109 C4133 0.950 . S
H4110 C4134 0.950 . S
H4111 C4135 0.951 . S
H4112 C4137 0.951 . S
H4113 C4139 0.950 . S
H4114 C4140 0.950 . S
H4115 C4142 0.950 . S
H4116 C4145 0.950 . S
H4117 C4146 0.950 . S
H4118 C4148 0.950 . S
H4119 C4149 0.950 . S
C4120 H4102 0.951 . S
C4120 C4121 1.366 . S
C4120 C4122 1.388 . S
C4121 C4120 1.366 . S
C4121 C4125 1.385 . S
C4122 H4103 0.951 . S
C4122 C4120 1.388 . S
C4122 C4123 1.366 . S
C4123 C4122 1.366 . S
C4123 C4124 1.414 . S
C4123 C4126 1.499 . S
C4124 H4104 0.950 . S
C4124 C4123 1.414 . S
C4124 C4125 1.374 . S
C4125 H4105 0.950 . S
C4125 C4121 1.385 . S
C4125 C4124 1.374 . S
C4126 C4123 1.499 . S
C4126 C4127 1.373 . S
C4126 C4128 1.389 . S
C4127 H4106 0.950 . S
C4127 C4126 1.373 . S
C4127 C4143 1.377 . S
C4128 C4126 1.389 . S
C4128 C4129 1.524 . S
C4128 C4142 1.377 . S
C4129 C4128 1.524 . S
C4129 C4130 1.397 . S
C4129 C4134 1.363 . S
C4130 H4107 0.950 . S
C4130 C4129 1.397 . S
C4130 C4131 1.334 . S
C4131 H4108 0.950 . S
C4131 C4130 1.334 . S
C4131 C4132 1.287 . S
C4132 C4131 1.287 . S
C4132 C4133 1.524 . S
C4132 H4151 0.913 . S
C4133 H4109 0.950 . S
C4133 C4132 1.524 . S
C4133 C4134 1.415 . S
C4134 H4110 0.950 . S
C4134 C4129 1.363 . S
C4134 C4133 1.415 . S
C4135 H4111 0.951 . S
C4135 C4136 1.366 . S
C4135 C4137 1.388 . S
C4136 C4135 1.366 . S
C4136 C4140 1.385 . S
C4137 H4112 0.951 . S
C4137 C4135 1.388 . S
C4137 C4138 1.366 . S
C4138 C4137 1.366 . S
C4138 C4139 1.414 . S
C4138 C4141 1.499 . S
C4139 H4113 0.950 . S
C4139 C4138 1.414 . S
C4139 C4140 1.374 . S
C4140 H4114 0.950 . S
C4140 C4136 1.385 . S
C4140 C4139 1.374 . S
C4141 C4138 1.499 . S
C4141 C4142 1.373 . S
C4141 C4143 1.389 . S
C4142 H4115 0.950 . S
C4142 C4128 1.377 . S
C4142 C4141 1.373 . S
C4143 C4127 1.377 . S
C4143 C4141 1.389 . S
C4143 C4144 1.524 . S
C4144 C4143 1.524 . S
C4144 C4145 1.397 . S
C4144 C4149 1.363 . S
C4145 H4116 0.950 . S
C4145 C4144 1.397 . S
C4145 C4146 1.334 . S
C4146 H4117 0.950 . S
C4146 C4145 1.334 . S
C4146 C4147 1.287 . S
C4147 C4146 1.287 . S
C4147 C4148 1.524 . S
C4147 H4150 0.999 . S
C4148 H4118 0.950 . S
C4148 C4147 1.524 . S
C4148 C4149 1.415 . S
C4149 H4119 0.950 . S
C4149 C4144 1.363 . S
C4149 C4148 1.415 . S
H4150 C4147 0.999 . S
H4151 C4132 0.913 . S
H4152 C4170 0.951 . S
H4153 C4172 0.951 . S
H4154 C4174 0.950 . S
H4155 C4175 0.950 . S
H4156 C4177 0.950 . S
H4157 C4180 0.950 . S
H4158 C4181 0.950 . S
H4159 C4183 0.950 . S
H4160 C4184 0.950 . S
H4161 C4185 0.951 . S
H4162 C4187 0.951 . S
H4163 C4189 0.950 . S
H4164 C4190 0.950 . S
H4165 C4192 0.950 . S
H4166 C4195 0.950 . S
H4167 C4196 0.950 . S
H4168 C4198 0.950 . S
H4169 C4199 0.950 . S
C4170 H4152 0.951 . S
C4170 C4171 1.366 . S
C4170 C4172 1.388 . S
C4171 C4170 1.366 . S
C4171 C4175 1.385 . S
C4172 H4153 0.951 . S
C4172 C4170 1.388 . S
C4172 C4173 1.366 . S
C4173 C4172 1.366 . S
C4173 C4174 1.414 . S
C4173 C4176 1.499 . S
C4174 H4154 0.950 . S
C4174 C4173 1.414 . S
C4174 C4175 1.374 . S
C4175 H4155 0.950 . S
C4175 C4171 1.385 . S
C4175 C4174 1.374 . S
C4176 C4173 1.499 . S
C4176 C4177 1.373 . S
C4176 C4178 1.389 . S
C4177 H4156 0.950 . S
C4177 C4176 1.373 . S
C4177 C4193 1.377 . S
C4178 C4176 1.389 . S
C4178 C4179 1.524 . S
C4178 C4192 1.377 . S
C4179 C4178 1.524 . S
C4179 C4180 1.397 . S
C4179 C4184 1.363 . S
C4180 H4157 0.950 . S
C4180 C4179 1.397 . S
C4180 C4181 1.334 . S
C4181 H4158 0.950 . S
C4181 C4180 1.334 . S
C4181 C4182 1.287 . S
C4182 C4181 1.287 . S
C4182 C4183 1.524 . S
C4182 H4201 0.913 . S
C4183 H4159 0.950 . S
C4183 C4182 1.524 . S
C4183 C4184 1.415 . S
C4184 H4160 0.950 . S
C4184 C4179 1.363 . S
C4184 C4183 1.415 . S
C4185 H4161 0.951 . S
C4185 C4186 1.366 . S
C4185 C4187 1.388 . S
C4186 C4185 1.366 . S
C4186 C4190 1.385 . S
C4187 H4162 0.951 . S
C4187 C4185 1.388 . S
C4187 C4188 1.366 . S
C4188 C4187 1.366 . S
C4188 C4189 1.414 . S
C4188 C4191 1.499 . S
C4189 H4163 0.950 . S
C4189 C4188 1.414 . S
C4189 C4190 1.374 . S
C4190 H4164 0.950 . S
C4190 C4186 1.385 . S
C4190 C4189 1.374 . S
C4191 C4188 1.499 . S
C4191 C4192 1.373 . S
C4191 C4193 1.389 . S
C4192 H4165 0.950 . S
C4192 C4178 1.377 . S
C4192 C4191 1.373 . S
C4193 C4177 1.377 . S
C4193 C4191 1.389 . S
C4193 C4194 1.524 . S
C4194 C4193 1.524 . S
C4194 C4195 1.397 . S
C4194 C4199 1.363 . S
C4195 H4166 0.950 . S
C4195 C4194 1.397 . S
C4195 C4196 1.334 . S
C4196 H4167 0.950 . S
C4196 C4195 1.334 . S
C4196 C4197 1.287 . S
C4197 C4196 1.287 . S
C4197 C4198 1.524 . S
C4197 H4200 0.999 . S
C4198 H4168 0.950 . S
C4198 C4197 1.524 . S
C4198 C4199 1.415 . S
C4199 H4169 0.950 . S
C4199 C4194 1.363 . S
C4199 C4198 1.415 . S
H4200 C4197 0.999 . S
H4201 C4182 0.913 . S
H4202 C4220 0.951 . S
H4203 C4222 0.951 . S
H4204 C4224 0.950 . S
H4205 C4225 0.950 . S
H4206 C4227 0.950 . S
H4207 C4230 0.950 . S
H4208 C4231 0.950 . S
H4209 C4233 0.950 . S
H4210 C4234 0.950 . S
H4211 C4235 0.951 . S
H4212 C4237 0.951 . S
H4213 C4239 0.950 . S
H4214 C4240 0.950 . S
H4215 C4242 0.950 . S
H4216 C4245 0.950 . S
H4217 C4246 0.950 . S
H4218 C4248 0.950 . S
H4219 C4249 0.950 . S
C4220 H4202 0.951 . S
C4220 C4221 1.366 . S
C4220 C4222 1.388 . S
C4221 C4220 1.366 . S
C4221 C4225 1.385 . S
C4222 H4203 0.951 . S
C4222 C4220 1.388 . S
C4222 C4223 1.366 . S
C4223 C4222 1.366 . S
C4223 C4224 1.414 . S
C4223 C4226 1.499 . S
C4224 H4204 0.950 . S
C4224 C4223 1.414 . S
C4224 C4225 1.374 . S
C4225 H4205 0.950 . S
C4225 C4221 1.385 . S
C4225 C4224 1.374 . S
C4226 C4223 1.499 . S
C4226 C4227 1.373 . S
C4226 C4228 1.389 . S
C4227 H4206 0.950 . S
C4227 C4226 1.373 . S
C4227 C4243 1.377 . S
C4228 C4226 1.389 . S
C4228 C4229 1.524 . S
C4228 C4242 1.377 . S
C4229 C4228 1.524 . S
C4229 C4230 1.397 . S
C4229 C4234 1.363 . S
C4230 H4207 0.950 . S
C4230 C4229 1.397 . S
C4230 C4231 1.334 . S
C4231 H4208 0.950 . S
C4231 C4230 1.334 . S
C4231 C4232 1.287 . S
C4232 C4231 1.287 . S
C4232 C4233 1.524 . S
C4232 H4251 0.913 . S
C4233 H4209 0.950 . S
C4233 C4232 1.524 . S
C4233 C4234 1.415 . S
C4234 H4210 0.950 . S
C4234 C4229 1.363 . S
C4234 C4233 1.415 . S
C4235 H4211 0.951 . S
C4235 C4236 1.366 . S
C4235 C4237 1.388 . S
C4236 C4235 1.366 . S
C4236 C4240 1.385 . S
C4237 H4212 0.951 . S
C4237 C4235 1.388 . S
C4237 C4238 1.366 . S
C4238 C4237 1.366 . S
C4238 C4239 1.414 . S
C4238 C4241 1.499 . S
C4239 H4213 0.950 . S
C4239 C4238 1.414 . S
C4239 C4240 1.374 . S
C4240 H4214 0.950 . S
C4240 C4236 1.385 . S
C4240 C4239 1.374 . S
C4241 C4238 1.499 . S
C4241 C4242 1.373 . S
C4241 C4243 1.389 . S
C4242 H4215 0.950 . S
C4242 C4228 1.377 . S
C4242 C4241 1.373 . S
C4243 C4227 1.377 . S
C4243 C4241 1.389 . S
C4243 C4244 1.524 . S
C4244 C4243 1.524 . S
C4244 C4245 1.397 . S
C4244 C4249 1.363 . S
C4245 H4216 0.950 . S
C4245 C4244 1.397 . S
C4245 C4246 1.334 . S
C4246 H4217 0.950 . S
C4246 C4245 1.334 . S
C4246 C4247 1.287 . S
C4247 C4246 1.287 . S
C4247 C4248 1.524 . S
C4247 H4250 0.999 . S
C4248 H4218 0.950 . S
C4248 C4247 1.524 . S
C4248 C4249 1.415 . S
C4249 H4219 0.950 . S
C4249 C4244 1.363 . S
C4249 C4248 1.415 . S
H4250 C4247 0.999 . S
H4251 C4232 0.913 . S
H4252 C4270 0.951 . S
H4253 C4272 0.951 . S
H4254 C4274 0.950 . S
H4255 C4275 0.950 . S
H4256 C4277 0.950 . S
H4257 C4280 0.950 . S
H4258 C4281 0.950 . S
H4259 C4283 0.950 . S
H4260 C4284 0.950 . S
H4261 C4285 0.951 . S
H4262 C4287 0.951 . S
H4263 C4289 0.950 . S
H4264 C4290 0.950 . S
H4265 C4292 0.950 . S
H4266 C4295 0.950 . S
H4267 C4296 0.950 . S
H4268 C4298 0.950 . S
H4269 C4299 0.950 . S
C4270 H4252 0.951 . S
C4270 C4271 1.366 . S
C4270 C4272 1.388 . S
C4271 C4270 1.366 . S
C4271 C4275 1.385 . S
C4272 H4253 0.951 . S
C4272 C4270 1.388 . S
C4272 C4273 1.366 . S
C4273 C4272 1.366 . S
C4273 C4274 1.414 . S
C4273 C4276 1.499 . S
C4274 H4254 0.950 . S
C4274 C4273 1.414 . S
C4274 C4275 1.374 . S
C4275 H4255 0.950 . S
C4275 C4271 1.385 . S
C4275 C4274 1.374 . S
C4276 C4273 1.499 . S
C4276 C4277 1.373 . S
C4276 C4278 1.389 . S
C4277 H4256 0.950 . S
C4277 C4276 1.373 . S
C4277 C4293 1.377 . S
C4278 C4276 1.389 . S
C4278 C4279 1.524 . S
C4278 C4292 1.377 . S
C4279 C4278 1.524 . S
C4279 C4280 1.397 . S
C4279 C4284 1.363 . S
C4280 H4257 0.950 . S
C4280 C4279 1.397 . S
C4280 C4281 1.334 . S
C4281 H4258 0.950 . S
C4281 C4280 1.334 . S
C4281 C4282 1.287 . S
C4282 C4281 1.287 . S
C4282 C4283 1.524 . S
C4282 H4301 0.913 . S
C4283 H4259 0.950 . S
C4283 C4282 1.524 . S
C4283 C4284 1.415 . S
C4284 H4260 0.950 . S
C4284 C4279 1.363 . S
C4284 C4283 1.415 . S
C4285 H4261 0.951 . S
C4285 C4286 1.366 . S
C4285 C4287 1.388 . S
C4286 C4285 1.366 . S
C4286 C4290 1.385 . S
C4287 H4262 0.951 . S
C4287 C4285 1.388 . S
C4287 C4288 1.366 . S
C4288 C4287 1.366 . S
C4288 C4289 1.414 . S
C4288 C4291 1.499 . S
C4289 H4263 0.950 . S
C4289 C4288 1.414 . S
C4289 C4290 1.374 . S
C4290 H4264 0.950 . S
C4290 C4286 1.385 . S
C4290 C4289 1.374 . S
C4291 C4288 1.499 . S
C4291 C4292 1.373 . S
C4291 C4293 1.389 . S
C4292 H4265 0.950 . S
C4292 C4278 1.377 . S
C4292 C4291 1.373 . S
C4293 C4277 1.377 . S
C4293 C4291 1.389 . S
C4293 C4294 1.524 . S
C4294 C4293 1.524 . S
C4294 C4295 1.397 . S
C4294 C4299 1.363 . S
C4295 H4266 0.950 . S
C4295 C4294 1.397 . S
C4295 C4296 1.334 . S
C4296 H4267 0.950 . S
C4296 C4295 1.334 . S
C4296 C4297 1.287 . S
C4297 C4296 1.287 . S
C4297 C4298 1.524 . S
C4297 H4300 0.999 . S
C4298 H4268 0.950 . S
C4298 C4297 1.524 . S
C4298 C4299 1.415 . S
C4299 H4269 0.950 . S
C4299 C4294 1.363 . S
C4299 C4298 1.415 . S
H4300 C4297 0.999 . S
H4301 C4282 0.913 . S
H4302 C4320 0.951 . S
H4303 C4322 0.951 . S
H4304 C4324 0.950 . S
H4305 C4325 0.950 . S
H4306 C4327 0.950 . S
H4307 C4330 0.950 . S
H4308 C4331 0.950 . S
H4309 C4333 0.950 . S
H4310 C4334 0.950 . S
H4311 C4335 0.951 . S
H4312 C4337 0.951 . S
H4313 C4339 0.950 . S
H4314 C4340 0.950 . S
H4315 C4342 0.950 1_545 S
H4316 C4345 0.950 . S
H4317 C4346 0.950 . S
H4318 C4348 0.950 . S
H4319 C4349 0.950 . S
C4320 H4302 0.951 . S
C4320 C4321 1.366 . S
C4320 C4322 1.388 . S
C4321 C4320 1.366 . S
C4321 C4325 1.385 . S
C4322 H4303 0.951 . S
C4322 C4320 1.388 . S
C4322 C4323 1.366 . S
C4323 C4322 1.366 . S
C4323 C4324 1.414 . S
C4323 C4326 1.499 . S
C4324 H4304 0.950 . S
C4324 C4323 1.414 . S
C4324 C4325 1.374 . S
C4325 H4305 0.950 . S
C4325 C4321 1.385 . S
C4325 C4324 1.374 . S
C4326 C4323 1.499 . S
C4326 C4327 1.373 . S
C4326 C4328 1.389 . S
C4327 H4306 0.950 . S
C4327 C4326 1.373 . S
C4327 C4343 1.377 . S
C4328 C4326 1.389 . S
C4328 C4329 1.524 1_554 S
C4328 C4342 1.377 . S
C4329 C4328 1.524 1_556 S
C4329 C4330 1.397 . S
C4329 C4334 1.363 1_566 S
C4330 H4307 0.950 . S
C4330 C4329 1.397 . S
C4330 C4331 1.334 . S
C4331 H4308 0.950 . S
C4331 C4330 1.334 . S
C4331 C4332 1.287 1_565 S
C4332 C4331 1.287 1_545 S
C4332 C4333 1.524 . S
C4332 H4351 0.913 . S
C4333 H4309 0.950 . S
C4333 C4332 1.524 . S
C4333 C4334 1.415 1_556 S
C4334 H4310 0.950 . S
C4334 C4329 1.363 1_544 S
C4334 C4333 1.415 1_554 S
C4335 H4311 0.951 . S
C4335 C4336 1.366 1_565 S
C4335 C4337 1.388 . S
C4336 C4335 1.366 1_545 S
C4336 C4340 1.385 . S
C4337 H4312 0.951 . S
C4337 C4335 1.388 . S
C4337 C4338 1.366 . S
C4338 C4337 1.366 . S
C4338 C4339 1.414 1_565 S
C4338 C4341 1.499 . S
C4339 H4313 0.950 . S
C4339 C4338 1.414 1_545 S
C4339 C4340 1.374 . S
C4340 H4314 0.950 . S
C4340 C4336 1.385 . S
C4340 C4339 1.374 . S
C4341 C4338 1.499 . S
C4341 C4342 1.373 . S
C4341 C4343 1.389 . S
C4342 H4315 0.950 1_565 S
C4342 C4328 1.377 . S
C4342 C4341 1.373 . S
C4343 C4327 1.377 . S
C4343 C4341 1.389 . S
C4343 C4344 1.524 . S
C4344 C4343 1.524 . S
C4344 C4345 1.397 . S
C4344 C4349 1.363 . S
C4345 H4316 0.950 . S
C4345 C4344 1.397 . S
C4345 C4346 1.334 . S
C4346 H4317 0.950 . S
C4346 C4345 1.334 . S
C4346 C4347 1.287 . S
C4347 C4346 1.287 . S
C4347 C4348 1.524 . S
C4347 H4350 0.999 . S
C4348 H4318 0.950 . S
C4348 C4347 1.524 . S
C4348 C4349 1.415 . S
C4349 H4319 0.950 . S
C4349 C4344 1.363 . S
C4349 C4348 1.415 . S
H4350 C4347 0.999 . S
H4351 C4332 0.913 . S
H4352 C4370 0.951 . S
H4353 C4372 0.951 . S
H4354 C4374 0.950 . S
H4355 C4375 0.950 . S
H4356 C4377 0.950 . S
H4357 C4380 0.950 . S
H4358 C4381 0.950 . S
H4359 C4383 0.950 . S
H4360 C4384 0.950 . S
H4361 C4385 0.951 . S
H4362 C4387 0.951 . S
H4363 C4389 0.950 . S
H4364 C4390 0.950 . S
H4365 C4392 0.950 . S
H4366 C4395 0.950 . S
H4367 C4396 0.950 . S
H4368 C4398 0.950 . S
H4369 C4399 0.950 . S
C4370 H4352 0.951 . S
C4370 C4371 1.366 . S
C4370 C4372 1.388 . S
C4371 C4370 1.366 . S
C4371 C4375 1.385 . S
C4372 H4353 0.951 . S
C4372 C4370 1.388 . S
C4372 C4373 1.366 . S
C4373 C4372 1.366 . S
C4373 C4374 1.414 . S
C4373 C4376 1.499 . S
C4374 H4354 0.950 . S
C4374 C4373 1.414 . S
C4374 C4375 1.374 . S
C4375 H4355 0.950 . S
C4375 C4371 1.385 . S
C4375 C4374 1.374 . S
C4376 C4373 1.499 . S
C4376 C4377 1.373 . S
C4376 C4378 1.389 . S
C4377 H4356 0.950 . S
C4377 C4376 1.373 . S
C4377 C4393 1.377 . S
C4378 C4376 1.389 . S
C4378 C4379 1.524 . S
C4378 C4392 1.377 . S
C4379 C4378 1.524 . S
C4379 C4380 1.397 . S
C4379 C4384 1.363 . S
C4380 H4357 0.950 . S
C4380 C4379 1.397 . S
C4380 C4381 1.334 . S
C4381 H4358 0.950 . S
C4381 C4380 1.334 . S
C4381 C4382 1.287 . S
C4382 C4381 1.287 . S
C4382 C4383 1.524 . S
C4382 H4401 0.913 . S
C4383 H4359 0.950 . S
C4383 C4382 1.524 . S
C4383 C4384 1.415 . S
C4384 H4360 0.950 . S
C4384 C4379 1.363 . S
C4384 C4383 1.415 . S
C4385 H4361 0.951 . S
C4385 C4386 1.366 . S
C4385 C4387 1.388 . S
C4386 C4385 1.366 . S
C4386 C4390 1.385 . S
C4387 H4362 0.951 . S
C4387 C4385 1.388 . S
C4387 C4388 1.366 . S
C4388 C4387 1.366 . S
C4388 C4389 1.414 . S
C4388 C4391 1.499 . S
C4389 H4363 0.950 . S
C4389 C4388 1.414 . S
C4389 C4390 1.374 . S
C4390 H4364 0.950 . S
C4390 C4386 1.385 . S
C4390 C4389 1.374 . S
C4391 C4388 1.499 . S
C4391 C4392 1.373 . S
C4391 C4393 1.389 . S
C4392 H4365 0.950 . S
C4392 C4378 1.377 . S
C4392 C4391 1.373 . S
C4393 C4377 1.377 . S
C4393 C4391 1.389 . S
C4393 C4394 1.524 . S
C4394 C4393 1.524 . S
C4394 C4395 1.397 . S
C4394 C4399 1.363 . S
C4395 H4366 0.950 . S
C4395 C4394 1.397 . S
C4395 C4396 1.334 . S
C4396 H4367 0.950 . S
C4396 C4395 1.334 . S
C4396 C4397 1.287 . S
C4397 C4396 1.287 . S
C4397 C4398 1.524 . S
C4397 H4400 0.999 . S
C4398 H4368 0.950 . S
C4398 C4397 1.524 . S
C4398 C4399 1.415 . S
C4399 H4369 0.950 . S
C4399 C4394 1.363 . S
C4399 C4398 1.415 . S
H4400 C4397 0.999 . S
H4401 C4382 0.913 . S
H4402 C4420 0.951 . S
H4403 C4422 0.955 . S
H4404 C4424 0.950 . S
H4405 C4425 0.950 . S
H4406 C4427 0.950 . S
H4407 C4430 0.950 . S
H4408 C4431 0.950 . S
H4409 C4433 0.950 . S
H4410 C4434 0.950 . S
H4411 C4435 0.951 . S
H4412 C4437 0.951 . S
H4413 C4439 0.950 . S
H4414 C4440 0.950 . S
H4415 C4442 0.950 1_556 S
H4416 C4445 0.950 . S
H4417 C4446 0.950 . S
H4418 C4448 0.950 . S
H4419 C4449 0.950 . S
C4420 H4402 0.951 . S
C4420 C4421 1.366 1_556 S
C4420 C4422 1.389 . S
C4421 C4420 1.366 1_554 S
C4421 C4425 1.385 . S
C4422 H4403 0.955 . S
C4422 C4420 1.389 . S
C4422 C4423 1.361 1_556 S
C4423 C4422 1.361 1_554 S
C4423 C4424 1.414 . S
C4423 C4426 1.499 . S
C4424 H4404 0.950 . S
C4424 C4423 1.414 . S
C4424 C4425 1.374 . S
C4425 H4405 0.950 . S
C4425 C4421 1.385 . S
C4425 C4424 1.374 . S
C4426 C4423 1.499 . S
C4426 C4427 1.373 . S
C4426 C4428 1.389 . S
C4427 H4406 0.950 . S
C4427 C4426 1.373 . S
C4427 C4443 1.377 . S
C4428 C4426 1.389 . S
C4428 C4429 1.524 1_554 S
C4428 C4442 1.377 . S
C4429 C4428 1.524 1_556 S
C4429 C4430 1.397 . S
C4429 C4434 1.363 . S
C4430 H4407 0.950 . S
C4430 C4429 1.397 . S
C4430 C4431 1.334 . S
C4431 H4408 0.950 . S
C4431 C4430 1.334 . S
C4431 C4432 1.287 . S
C4432 C4431 1.287 . S
C4432 C4433 1.524 . S
C4432 H4451 0.913 . S
C4433 H4409 0.950 . S
C4433 C4432 1.524 . S
C4433 C4434 1.415 . S
C4434 H4410 0.950 . S
C4434 C4429 1.363 . S
C4434 C4433 1.415 . S
C4435 H4411 0.951 . S
C4435 C4436 1.366 . S
C4435 C4437 1.388 . S
C4436 C4435 1.366 . S
C4436 C4440 1.385 . S
C4437 H4412 0.951 . S
C4437 C4435 1.388 . S
C4437 C4438 1.366 . S
C4438 C4437 1.366 . S
C4438 C4439 1.414 . S
C4438 C4441 1.499 . S
C4439 H4413 0.950 . S
C4439 C4438 1.414 . S
C4439 C4440 1.374 . S
C4440 H4414 0.950 . S
C4440 C4436 1.385 . S
C4440 C4439 1.374 . S
C4441 C4438 1.499 . S
C4441 C4442 1.373 . S
C4441 C4443 1.389 . S
C4442 H4415 0.950 1_554 S
C4442 C4428 1.377 . S
C4442 C4441 1.373 . S
C4443 C4427 1.377 . S
C4443 C4441 1.389 . S
C4443 C4444 1.524 . S
C4444 C4443 1.524 . S
C4444 C4445 1.397 . S
C4444 C4449 1.363 . S
C4445 H4416 0.950 . S
C4445 C4444 1.397 . S
C4445 C4446 1.334 . S
C4446 H4417 0.950 . S
C4446 C4445 1.334 . S
C4446 C4447 1.287 . S
C4447 C4446 1.287 . S
C4447 C4448 1.524 . S
C4447 H4450 0.999 . S
C4448 H4418 0.950 . S
C4448 C4447 1.524 . S
C4448 C4449 1.415 . S
C4449 H4419 0.950 . S
C4449 C4444 1.363 . S
C4449 C4448 1.415 . S
H4450 C4447 0.999 . S
H4451 C4432 0.913 . S
H4452 C4470 0.951 . S
H4453 C4472 0.951 . S
H4454 C4474 0.950 . S
H4455 C4475 0.950 . S
H4456 C4477 0.950 . S
H4457 C4480 0.950 . S
H4458 C4481 0.950 . S
H4459 C4483 0.950 . S
H4460 C4484 0.950 . S
H4461 C4485 0.951 . S
H4462 C4487 0.951 . S
H4463 C4489 0.950 . S
H4464 C4490 0.950 . S
H4465 C4492 0.950 . S
H4466 C4495 0.950 . S
H4467 C4496 0.950 . S
H4468 C4498 0.950 . S
H4469 C4499 0.950 . S
C4470 H4452 0.951 . S
C4470 C4471 1.366 . S
C4470 C4472 1.388 . S
C4471 C4470 1.366 . S
C4471 C4475 1.385 . S
C4472 H4453 0.951 . S
C4472 C4470 1.388 . S
C4472 C4473 1.366 . S
C4473 C4472 1.366 . S
C4473 C4474 1.414 . S
C4473 C4476 1.499 . S
C4474 H4454 0.950 . S
C4474 C4473 1.414 . S
C4474 C4475 1.374 . S
C4475 H4455 0.950 . S
C4475 C4471 1.385 . S
C4475 C4474 1.374 . S
C4476 C4473 1.499 . S
C4476 C4477 1.373 . S
C4476 C4478 1.389 . S
C4477 H4456 0.950 . S
C4477 C4476 1.373 . S
C4477 C4493 1.377 . S
C4478 C4476 1.389 . S
C4478 C4479 1.524 . S
C4478 C4492 1.377 . S
C4479 C4478 1.524 . S
C4479 C4480 1.397 . S
C4479 C4484 1.363 . S
C4480 H4457 0.950 . S
C4480 C4479 1.397 . S
C4480 C4481 1.334 . S
C4481 H4458 0.950 . S
C4481 C4480 1.334 . S
C4481 C4482 1.287 . S
C4482 C4481 1.287 . S
C4482 C4483 1.524 . S
C4482 H4501 0.913 . S
C4483 H4459 0.950 . S
C4483 C4482 1.524 . S
C4483 C4484 1.415 . S
C4484 H4460 0.950 . S
C4484 C4479 1.363 . S
C4484 C4483 1.415 . S
C4485 H4461 0.951 . S
C4485 C4486 1.366 . S
C4485 C4487 1.388 . S
C4486 C4485 1.366 . S
C4486 C4490 1.385 . S
C4487 H4462 0.951 . S
C4487 C4485 1.388 . S
C4487 C4488 1.366 . S
C4488 C4487 1.366 . S
C4488 C4489 1.414 . S
C4488 C4491 1.499 . S
C4489 H4463 0.950 . S
C4489 C4488 1.414 . S
C4489 C4490 1.374 . S
C4490 H4464 0.950 . S
C4490 C4486 1.385 . S
C4490 C4489 1.374 . S
C4491 C4488 1.499 . S
C4491 C4492 1.373 . S
C4491 C4493 1.389 . S
C4492 H4465 0.950 . S
C4492 C4478 1.377 . S
C4492 C4491 1.373 . S
C4493 C4477 1.377 . S
C4493 C4491 1.389 . S
C4493 C4494 1.524 . S
C4494 C4493 1.524 . S
C4494 C4495 1.397 . S
C4494 C4499 1.363 . S
C4495 H4466 0.950 . S
C4495 C4494 1.397 . S
C4495 C4496 1.334 . S
C4496 H4467 0.950 . S
C4496 C4495 1.334 . S
C4496 C4497 1.287 . S
C4497 C4496 1.287 . S
C4497 C4498 1.524 . S
C4497 H4500 0.999 . S
C4498 H4468 0.950 . S
C4498 C4497 1.524 . S
C4498 C4499 1.415 . S
C4499 H4469 0.950 . S
C4499 C4494 1.363 . S
C4499 C4498 1.415 . S
H4500 C4497 0.999 . S
H4501 C4482 0.913 . S
H4502 C4520 0.951 . S
H4503 C4522 0.951 . S
H4504 C4524 0.950 . S
H4505 C4525 0.950 . S
H4506 C4527 0.950 . S
H4507 C4530 0.950 . S
H4508 C4531 0.950 . S
H4509 C4533 0.950 . S
H4510 C4534 0.950 . S
H4511 C4535 0.951 . S
H4512 C4537 0.951 . S
H4513 C4539 0.950 . S
H4514 C4540 0.950 . S
H4515 C4542 0.950 . S
H4516 C4545 0.950 . S
H4517 C4546 0.950 . S
H4518 C4548 0.950 . S
H4519 C4549 0.950 . S
C4520 H4502 0.951 . S
C4520 C4521 1.366 . S
C4520 C4522 1.388 . S
C4521 C4520 1.366 . S
C4521 C4525 1.385 . S
C4522 H4503 0.951 . S
C4522 C4520 1.388 . S
C4522 C4523 1.366 . S
C4523 C4522 1.366 . S
C4523 C4524 1.414 . S
C4523 C4526 1.499 . S
C4524 H4504 0.950 . S
C4524 C4523 1.414 . S
C4524 C4525 1.374 . S
C4525 H4505 0.950 . S
C4525 C4521 1.385 . S
C4525 C4524 1.374 . S
C4526 C4523 1.499 . S
C4526 C4527 1.373 . S
C4526 C4528 1.389 . S
C4527 H4506 0.950 . S
C4527 C4526 1.373 . S
C4527 C4543 1.377 . S
C4528 C4526 1.389 . S
C4528 C4529 1.524 . S
C4528 C4542 1.377 . S
C4529 C4528 1.524 . S
C4529 C4530 1.397 . S
C4529 C4534 1.363 . S
C4530 H4507 0.950 . S
C4530 C4529 1.397 . S
C4530 C4531 1.334 . S
C4531 H4508 0.950 . S
C4531 C4530 1.334 . S
C4531 C4532 1.287 . S
C4532 C4531 1.287 . S
C4532 C4533 1.524 . S
C4532 H4551 0.913 . S
C4533 H4509 0.950 . S
C4533 C4532 1.524 . S
C4533 C4534 1.415 . S
C4534 H4510 0.950 . S
C4534 C4529 1.363 . S
C4534 C4533 1.415 . S
C4535 H4511 0.951 . S
C4535 C4536 1.366 . S
C4535 C4537 1.388 . S
C4536 C4535 1.366 . S
C4536 C4540 1.385 . S
C4537 H4512 0.951 . S
C4537 C4535 1.388 . S
C4537 C4538 1.366 . S
C4538 C4537 1.366 . S
C4538 C4539 1.414 . S
C4538 C4541 1.499 . S
C4539 H4513 0.950 . S
C4539 C4538 1.414 . S
C4539 C4540 1.374 . S
C4540 H4514 0.950 . S
C4540 C4536 1.385 . S
C4540 C4539 1.374 . S
C4541 C4538 1.499 . S
C4541 C4542 1.373 . S
C4541 C4543 1.389 . S
C4542 H4515 0.950 . S
C4542 C4528 1.377 . S
C4542 C4541 1.373 . S
C4543 C4527 1.377 . S
C4543 C4541 1.389 . S
C4543 C4544 1.524 . S
C4544 C4543 1.524 . S
C4544 C4545 1.397 . S
C4544 C4549 1.363 . S
C4545 H4516 0.950 . S
C4545 C4544 1.397 . S
C4545 C4546 1.334 . S
C4546 H4517 0.950 . S
C4546 C4545 1.334 . S
C4546 C4547 1.287 . S
C4547 C4546 1.287 . S
C4547 C4548 1.524 . S
C4547 H4550 0.999 . S
C4548 H4518 0.950 . S
C4548 C4547 1.524 . S
C4548 C4549 1.415 . S
C4549 H4519 0.950 . S
C4549 C4544 1.363 . S
C4549 C4548 1.415 . S
H4550 C4547 0.999 . S
H4551 C4532 0.913 . S
H4552 C4570 0.951 . S
H4553 C4572 0.951 . S
H4554 C4574 0.950 . S
H4555 C4575 0.950 . S
H4556 C4577 0.950 . S
H4557 C4580 0.950 . S
H4558 C4581 0.950 . S
H4559 C4583 0.950 . S
H4560 C4584 0.950 . S
H4561 C4585 0.951 . S
H4562 C4587 0.951 . S
H4563 C4589 0.950 . S
H4564 C4590 0.950 . S
H4565 C4592 0.950 . S
H4566 C4595 0.950 . S
H4567 C4596 0.950 . S
H4568 C4598 0.950 . S
H4569 C4599 0.950 . S
C4570 H4552 0.951 . S
C4570 C4571 1.366 . S
C4570 C4572 1.388 . S
C4571 C4570 1.366 . S
C4571 C4575 1.385 . S
C4572 H4553 0.951 . S
C4572 C4570 1.388 . S
C4572 C4573 1.366 . S
C4573 C4572 1.366 . S
C4573 C4574 1.414 . S
C4573 C4576 1.499 . S
C4574 H4554 0.950 . S
C4574 C4573 1.414 . S
C4574 C4575 1.374 . S
C4575 H4555 0.950 . S
C4575 C4571 1.385 . S
C4575 C4574 1.374 . S
C4576 C4573 1.499 . S
C4576 C4577 1.373 . S
C4576 C4578 1.389 . S
C4577 H4556 0.950 . S
C4577 C4576 1.373 . S
C4577 C4593 1.377 . S
C4578 C4576 1.389 . S
C4578 C4579 1.524 . S
C4578 C4592 1.377 . S
C4579 C4578 1.524 . S
C4579 C4580 1.397 . S
C4579 C4584 1.363 . S
C4580 H4557 0.950 . S
C4580 C4579 1.397 . S
C4580 C4581 1.334 . S
C4581 H4558 0.950 . S
C4581 C4580 1.334 . S
C4581 C4582 1.287 . S
C4582 C4581 1.287 . S
C4582 C4583 1.524 . S
C4582 H4601 0.913 . S
C4583 H4559 0.950 . S
C4583 C4582 1.524 . S
C4583 C4584 1.415 . S
C4584 H4560 0.950 . S
C4584 C4579 1.363 . S
C4584 C4583 1.415 . S
C4585 H4561 0.951 . S
C4585 C4586 1.366 . S
C4585 C4587 1.388 . S
C4586 C4585 1.366 . S
C4586 C4590 1.385 . S
C4587 H4562 0.951 . S
C4587 C4585 1.388 . S
C4587 C4588 1.366 . S
C4588 C4587 1.366 . S
C4588 C4589 1.414 . S
C4588 C4591 1.499 . S
C4589 H4563 0.950 . S
C4589 C4588 1.414 . S
C4589 C4590 1.374 . S
C4590 H4564 0.950 . S
C4590 C4586 1.385 . S
C4590 C4589 1.374 . S
C4591 C4588 1.499 . S
C4591 C4592 1.373 . S
C4591 C4593 1.389 . S
C4592 H4565 0.950 . S
C4592 C4578 1.377 . S
C4592 C4591 1.373 . S
C4593 C4577 1.377 . S
C4593 C4591 1.389 . S
C4593 C4594 1.524 . S
C4594 C4593 1.524 . S
C4594 C4595 1.397 . S
C4594 C4599 1.363 . S
C4595 H4566 0.950 . S
C4595 C4594 1.397 . S
C4595 C4596 1.334 . S
C4596 H4567 0.950 . S
C4596 C4595 1.334 . S
C4596 C4597 1.287 . S
C4597 C4596 1.287 . S
C4597 C4598 1.524 . S
C4597 H4600 0.999 . S
C4598 H4568 0.950 . S
C4598 C4597 1.524 . S
C4598 C4599 1.415 . S
C4599 H4569 0.950 . S
C4599 C4594 1.363 . S
C4599 C4598 1.415 . S
H4600 C4597 0.999 . S
H4601 C4582 0.913 . S
H4602 C4620 0.951 . S
H4603 C4622 0.951 . S
H4604 C4624 0.950 . S
H4605 C4625 0.950 . S
H4606 C4627 0.950 . S
H4607 C4630 0.950 . S
H4608 C4631 0.950 . S
H4609 C4633 0.950 . S
H4610 C4634 0.950 . S
H4611 C4635 0.951 . S
H4612 C4637 0.951 . S
H4613 C4639 0.950 . S
H4614 C4640 0.950 . S
H4615 C4642 0.950 . S
H4616 C4645 0.950 . S
H4617 C4646 0.950 . S
H4618 C4648 0.950 . S
H4619 C4649 0.950 . S
C4620 H4602 0.951 . S
C4620 C4621 1.366 . S
C4620 C4622 1.388 . S
C4621 C4620 1.366 . S
C4621 C4625 1.385 . S
C4622 H4603 0.951 . S
C4622 C4620 1.388 . S
C4622 C4623 1.366 . S
C4623 C4622 1.366 . S
C4623 C4624 1.414 . S
C4623 C4626 1.499 . S
C4624 H4604 0.950 . S
C4624 C4623 1.414 . S
C4624 C4625 1.374 . S
C4625 H4605 0.950 . S
C4625 C4621 1.385 . S
C4625 C4624 1.374 . S
C4626 C4623 1.499 . S
C4626 C4627 1.373 . S
C4626 C4628 1.389 . S
C4627 H4606 0.950 . S
C4627 C4626 1.373 . S
C4627 C4643 1.377 . S
C4628 C4626 1.389 . S
C4628 C4629 1.524 . S
C4628 C4642 1.377 . S
C4629 C4628 1.524 . S
C4629 C4630 1.397 . S
C4629 C4634 1.363 . S
C4630 H4607 0.950 . S
C4630 C4629 1.397 . S
C4630 C4631 1.334 . S
C4631 H4608 0.950 . S
C4631 C4630 1.334 . S
C4631 C4632 1.287 . S
C4632 C4631 1.287 . S
C4632 C4633 1.524 . S
C4632 H4651 0.913 . S
C4633 H4609 0.950 . S
C4633 C4632 1.524 . S
C4633 C4634 1.415 . S
C4634 H4610 0.950 . S
C4634 C4629 1.363 . S
C4634 C4633 1.415 . S
C4635 H4611 0.951 . S
C4635 C4636 1.366 . S
C4635 C4637 1.388 . S
C4636 C4635 1.366 . S
C4636 C4640 1.385 . S
C4637 H4612 0.951 . S
C4637 C4635 1.388 . S
C4637 C4638 1.366 . S
C4638 C4637 1.366 . S
C4638 C4639 1.414 . S
C4638 C4641 1.499 . S
C4639 H4613 0.950 . S
C4639 C4638 1.414 . S
C4639 C4640 1.374 . S
C4640 H4614 0.950 . S
C4640 C4636 1.385 . S
C4640 C4639 1.374 . S
C4641 C4638 1.499 . S
C4641 C4642 1.373 . S
C4641 C4643 1.389 . S
C4642 H4615 0.950 . S
C4642 C4628 1.377 . S
C4642 C4641 1.373 . S
C4643 C4627 1.377 . S
C4643 C4641 1.389 . S
C4643 C4644 1.524 . S
C4644 C4643 1.524 . S
C4644 C4645 1.397 . S
C4644 C4649 1.363 . S
C4645 H4616 0.950 . S
C4645 C4644 1.397 . S
C4645 C4646 1.334 . S
C4646 H4617 0.950 . S
C4646 C4645 1.334 . S
C4646 C4647 1.287 . S
C4647 C4646 1.287 . S
C4647 C4648 1.524 . S
C4647 H4650 0.999 . S
C4648 H4618 0.950 . S
C4648 C4647 1.524 . S
C4648 C4649 1.415 . S
C4649 H4619 0.950 . S
C4649 C4644 1.363 . S
C4649 C4648 1.415 . S
H4650 C4647 0.999 . S
H4651 C4632 0.913 . S
H4652 C4670 0.951 . S
H4653 C4672 0.951 . S
H4654 C4674 0.950 . S
H4655 C4675 0.950 . S
H4656 C4677 0.950 . S
H4657 C4680 0.950 . S
H4658 C4681 0.950 . S
H4659 C4683 0.950 1_656 S
H4660 C4684 0.950 . S
H4661 C4685 0.951 . S
H4662 C4687 0.951 . S
H4663 C4689 0.950 . S
H4664 C4690 0.950 1_556 S
H4665 C4692 0.950 . S
H4666 C4695 0.950 . S
H4667 C4696 0.950 . S
H4668 C4698 0.950 . S
H4669 C4699 0.950 . S
C4670 H4652 0.951 . S
C4670 C4671 1.366 . S
C4670 C4672 1.388 . S
C4671 C4670 1.366 . S
C4671 C4675 1.385 . S
C4672 H4653 0.951 . S
C4672 C4670 1.388 . S
C4672 C4673 1.366 . S
C4673 C4672 1.366 . S
C4673 C4674 1.414 . S
C4673 C4676 1.499 . S
C4674 H4654 0.950 . S
C4674 C4673 1.414 . S
C4674 C4675 1.374 . S
C4675 H4655 0.950 . S
C4675 C4671 1.385 . S
C4675 C4674 1.374 . S
C4676 C4673 1.499 . S
C4676 C4677 1.373 . S
C4676 C4678 1.389 . S
C4677 H4656 0.950 . S
C4677 C4676 1.373 . S
C4677 C4693 1.377 . S
C4678 C4676 1.389 . S
C4678 C4679 1.524 . S
C4678 C4692 1.377 . S
C4679 C4678 1.524 . S
C4679 C4680 1.397 . S
C4679 C4684 1.363 . S
C4680 H4657 0.950 . S
C4680 C4679 1.397 . S
C4680 C4681 1.334 1_455 S
C4681 H4658 0.950 . S
C4681 C4680 1.334 1_655 S
C4681 C4682 1.287 . S
C4682 C4681 1.287 . S
C4682 C4683 1.524 1_655 S
C4682 H4701 0.913 . S
C4683 H4659 0.950 1_454 S
C4683 C4682 1.524 1_455 S
C4683 C4684 1.415 . S
C4684 H4660 0.950 . S
C4684 C4679 1.363 . S
C4684 C4683 1.415 . S
C4685 H4661 0.951 . S
C4685 C4686 1.366 . S
C4685 C4687 1.388 . S
C4686 C4685 1.366 . S
C4686 C4690 1.385 . S
C4687 H4662 0.951 . S
C4687 C4685 1.388 . S
C4687 C4688 1.366 . S
C4688 C4687 1.366 . S
C4688 C4689 1.414 . S
C4688 C4691 1.499 . S
C4689 H4663 0.950 . S
C4689 C4688 1.414 . S
C4689 C4690 1.374 . S
C4690 H4664 0.950 1_554 S
C4690 C4686 1.385 . S
C4690 C4689 1.374 . S
C4691 C4688 1.499 . S
C4691 C4692 1.373 . S
C4691 C4693 1.389 . S
C4692 H4665 0.950 . S
C4692 C4678 1.377 . S
C4692 C4691 1.373 . S
C4693 C4677 1.377 . S
C4693 C4691 1.389 . S
C4693 C4694 1.524 . S
C4694 C4693 1.524 . S
C4694 C4695 1.397 . S
C4694 C4699 1.363 . S
C4695 H4666 0.950 . S
C4695 C4694 1.397 . S
C4695 C4696 1.334 . S
C4696 H4667 0.950 . S
C4696 C4695 1.334 . S
C4696 C4697 1.287 . S
C4697 C4696 1.287 . S
C4697 C4698 1.524 . S
C4697 H4700 0.999 . S
C4698 H4668 0.950 . S
C4698 C4697 1.524 . S
C4698 C4699 1.415 . S
C4699 H4669 0.950 . S
C4699 C4694 1.363 . S
C4699 C4698 1.415 . S
H4700 C4697 0.999 . S
H4701 C4682 0.913 . S
H4702 C4720 0.951 . S
H4703 C4722 0.951 . S
H4704 C4724 0.950 . S
H4705 C4725 0.950 . S
H4706 C4727 0.950 . S
H4707 C4730 0.950 . S
H4708 C4731 0.950 . S
H4709 C4733 0.950 . S
H4710 C4734 0.950 . S
H4711 C4735 0.951 . S
H4712 C4737 0.951 . S
H4713 C4739 0.950 . S
H4714 C4740 0.950 . S
H4715 C4742 0.950 . S
H4716 C4745 0.950 . S
H4717 C4746 0.950 . S
H4718 C4748 0.950 . S
H4719 C4749 0.950 . S
C4720 H4702 0.951 . S
C4720 C4721 1.366 . S
C4720 C4722 1.388 . S
C4721 C4720 1.366 . S
C4721 C4725 1.385 . S
C4722 H4703 0.951 . S
C4722 C4720 1.388 . S
C4722 C4723 1.366 . S
C4723 C4722 1.366 . S
C4723 C4724 1.414 . S
C4723 C4726 1.499 . S
C4724 H4704 0.950 . S
C4724 C4723 1.414 . S
C4724 C4725 1.374 . S
C4725 H4705 0.950 . S
C4725 C4721 1.385 . S
C4725 C4724 1.374 . S
C4726 C4723 1.499 . S
C4726 C4727 1.373 . S
C4726 C4728 1.389 . S
C4727 H4706 0.950 . S
C4727 C4726 1.373 . S
C4727 C4743 1.377 . S
C4728 C4726 1.389 . S
C4728 C4729 1.524 . S
C4728 C4742 1.377 . S
C4729 C4728 1.524 . S
C4729 C4730 1.397 . S
C4729 C4734 1.363 . S
C4730 H4707 0.950 . S
C4730 C4729 1.397 . S
C4730 C4731 1.334 . S
C4731 H4708 0.950 . S
C4731 C4730 1.334 . S
C4731 C4732 1.287 . S
C4732 C4731 1.287 . S
C4732 C4733 1.524 . S
C4732 H4751 0.913 . S
C4733 H4709 0.950 . S
C4733 C4732 1.524 . S
C4733 C4734 1.415 . S
C4734 H4710 0.950 . S
C4734 C4729 1.363 . S
C4734 C4733 1.415 . S
C4735 H4711 0.951 . S
C4735 C4736 1.366 . S
C4735 C4737 1.388 . S
C4736 C4735 1.366 . S
C4736 C4740 1.385 . S
C4737 H4712 0.951 . S
C4737 C4735 1.388 . S
C4737 C4738 1.366 . S
C4738 C4737 1.366 . S
C4738 C4739 1.414 . S
C4738 C4741 1.499 . S
C4739 H4713 0.950 . S
C4739 C4738 1.414 . S
C4739 C4740 1.374 . S
C4740 H4714 0.950 . S
C4740 C4736 1.385 . S
C4740 C4739 1.374 . S
C4741 C4738 1.499 . S
C4741 C4742 1.373 . S
C4741 C4743 1.389 . S
C4742 H4715 0.950 . S
C4742 C4728 1.377 . S
C4742 C4741 1.373 . S
C4743 C4727 1.377 . S
C4743 C4741 1.389 . S
C4743 C4744 1.524 . S
C4744 C4743 1.524 . S
C4744 C4745 1.397 . S
C4744 C4749 1.363 . S
C4745 H4716 0.950 . S
C4745 C4744 1.397 . S
C4745 C4746 1.334 . S
C4746 H4717 0.950 . S
C4746 C4745 1.334 . S
C4746 C4747 1.287 . S
C4747 C4746 1.287 . S
C4747 C4748 1.524 . S
C4747 H4750 0.999 . S
C4748 H4718 0.950 . S
C4748 C4747 1.524 . S
C4748 C4749 1.415 . S
C4749 H4719 0.950 . S
C4749 C4744 1.363 . S
C4749 C4748 1.415 . S
H4750 C4747 0.999 . S
H4751 C4732 0.913 . S
H4752 C4770 0.951 . S
H4753 C4772 0.951 . S
H4754 C4774 0.950 . S
H4755 C4775 0.950 . S
H4756 C4777 0.950 . S
H4757 C4780 0.950 . S
H4758 C4781 0.950 . S
H4759 C4783 0.950 . S
H4760 C4784 0.950 . S
H4761 C4785 0.951 . S
H4762 C4787 0.951 . S
H4763 C4789 0.950 . S
H4764 C4790 0.950 . S
H4765 C4792 0.950 . S
H4766 C4795 0.950 . S
H4767 C4796 0.950 . S
H4768 C4798 0.944 1_554 S
H4769 C4799 0.950 . S
C4770 H4752 0.951 . S
C4770 C4771 1.366 . S
C4770 C4772 1.388 . S
C4771 C4770 1.366 . S
C4771 C4775 1.385 . S
C4772 H4753 0.951 . S
C4772 C4770 1.388 . S
C4772 C4773 1.366 . S
C4773 C4772 1.366 . S
C4773 C4774 1.414 . S
C4773 C4776 1.499 . S
C4774 H4754 0.950 . S
C4774 C4773 1.414 . S
C4774 C4775 1.374 . S
C4775 H4755 0.950 . S
C4775 C4771 1.385 . S
C4775 C4774 1.374 . S
C4776 C4773 1.499 . S
C4776 C4777 1.373 . S
C4776 C4778 1.389 . S
C4777 H4756 0.950 . S
C4777 C4776 1.373 . S
C4777 C4793 1.377 . S
C4778 C4776 1.389 . S
C4778 C4779 1.524 . S
C4778 C4792 1.377 . S
C4779 C4778 1.524 . S
C4779 C4780 1.397 . S
C4779 C4784 1.363 . S
C4780 H4757 0.950 . S
C4780 C4779 1.397 . S
C4780 C4781 1.334 . S
C4781 H4758 0.950 . S
C4781 C4780 1.334 . S
C4781 C4782 1.287 . S
C4782 C4781 1.287 . S
C4782 C4783 1.524 . S
C4782 H4801 0.913 . S
C4783 H4759 0.950 . S
C4783 C4782 1.524 . S
C4783 C4784 1.415 . S
C4784 H4760 0.950 . S
C4784 C4779 1.363 . S
C4784 C4783 1.415 . S
C4785 H4761 0.951 . S
C4785 C4786 1.366 . S
C4785 C4787 1.388 . S
C4786 C4785 1.366 . S
C4786 C4790 1.385 . S
C4787 H4762 0.951 . S
C4787 C4785 1.388 . S
C4787 C4788 1.366 . S
C4788 C4787 1.366 . S
C4788 C4789 1.414 . S
C4788 C4791 1.499 . S
C4789 H4763 0.950 . S
C4789 C4788 1.414 . S
C4789 C4790 1.374 . S
C4790 H4764 0.950 . S
C4790 C4786 1.385 . S
C4790 C4789 1.374 . S
C4791 C4788 1.499 . S
C4791 C4792 1.373 . S
C4791 C4793 1.389 . S
C4792 H4765 0.950 . S
C4792 C4778 1.377 . S
C4792 C4791 1.373 . S
C4793 C4777 1.377 . S
C4793 C4791 1.389 . S
C4793 C4794 1.524 . S
C4794 C4793 1.524 . S
C4794 C4795 1.397 . S
C4794 C4799 1.363 . S
C4795 H4766 0.950 . S
C4795 C4794 1.397 . S
C4795 C4796 1.334 . S
C4796 H4767 0.950 . S
C4796 C4795 1.334 . S
C4796 C4797 1.287 . S
C4797 C4796 1.287 . S
C4797 C4798 1.524 . S
C4797 H4800 0.999 1_556 S
C4798 H4768 0.944 1_556 S
C4798 C4797 1.524 . S
C4798 C4799 1.422 . S
C4799 H4769 0.950 . S
C4799 C4794 1.363 . S
C4799 C4798 1.422 . S
H4800 C4797 0.999 1_554 S
H4801 C4782 0.913 . S
H4802 C4820 0.951 . S
H4803 C4822 0.951 . S
H4804 C4824 0.950 . S
H4805 C4825 0.950 . S
H4806 C4827 0.950 . S
H4807 C4830 0.950 . S
H4808 C4831 0.950 . S
H4809 C4833 0.950 . S
H4810 C4834 0.950 . S
H4811 C4835 0.951 . S
H4812 C4837 0.951 . S
H4813 C4839 0.950 . S
H4814 C4840 0.950 . S
H4815 C4842 0.950 . S
H4816 C4845 0.950 . S
H4817 C4846 0.950 . S
H4818 C4848 0.950 . S
H4819 C4849 0.950 . S
C4820 H4802 0.951 . S
C4820 C4821 1.366 . S
C4820 C4822 1.388 . S
C4821 C4820 1.366 . S
C4821 C4825 1.385 . S
C4822 H4803 0.951 . S
C4822 C4820 1.388 . S
C4822 C4823 1.366 . S
C4823 C4822 1.366 . S
C4823 C4824 1.414 . S
C4823 C4826 1.499 . S
C4824 H4804 0.950 . S
C4824 C4823 1.414 . S
C4824 C4825 1.374 . S
C4825 H4805 0.950 . S
C4825 C4821 1.385 . S
C4825 C4824 1.374 . S
C4826 C4823 1.499 . S
C4826 C4827 1.373 . S
C4826 C4828 1.389 . S
C4827 H4806 0.950 . S
C4827 C4826 1.373 . S
C4827 C4843 1.377 . S
C4828 C4826 1.389 . S
C4828 C4829 1.524 . S
C4828 C4842 1.377 . S
C4829 C4828 1.524 . S
C4829 C4830 1.397 . S
C4829 C4834 1.363 . S
C4830 H4807 0.950 . S
C4830 C4829 1.397 . S
C4830 C4831 1.334 . S
C4831 H4808 0.950 . S
C4831 C4830 1.334 . S
C4831 C4832 1.287 . S
C4832 C4831 1.287 . S
C4832 C4833 1.524 . S
C4832 H4851 0.913 . S
C4833 H4809 0.950 . S
C4833 C4832 1.524 . S
C4833 C4834 1.415 . S
C4834 H4810 0.950 . S
C4834 C4829 1.363 . S
C4834 C4833 1.415 . S
C4835 H4811 0.951 . S
C4835 C4836 1.366 . S
C4835 C4837 1.388 . S
C4836 C4835 1.366 . S
C4836 C4840 1.385 . S
C4837 H4812 0.951 . S
C4837 C4835 1.388 . S
C4837 C4838 1.366 . S
C4838 C4837 1.366 . S
C4838 C4839 1.414 . S
C4838 C4841 1.499 . S
C4839 H4813 0.950 . S
C4839 C4838 1.414 . S
C4839 C4840 1.374 . S
C4840 H4814 0.950 . S
C4840 C4836 1.385 . S
C4840 C4839 1.374 . S
C4841 C4838 1.499 . S
C4841 C4842 1.373 . S
C4841 C4843 1.389 . S
C4842 H4815 0.950 . S
C4842 C4828 1.377 . S
C4842 C4841 1.373 . S
C4843 C4827 1.377 . S
C4843 C4841 1.389 . S
C4843 C4844 1.524 . S
C4844 C4843 1.524 . S
C4844 C4845 1.397 . S
C4844 C4849 1.363 . S
C4845 H4816 0.950 . S
C4845 C4844 1.397 . S
C4845 C4846 1.334 . S
C4846 H4817 0.950 . S
C4846 C4845 1.334 . S
C4846 C4847 1.287 . S
C4847 C4846 1.287 . S
C4847 C4848 1.524 . S
C4847 H4850 0.999 . S
C4848 H4818 0.950 . S
C4848 C4847 1.524 . S
C4848 C4849 1.415 . S
C4849 H4819 0.950 . S
C4849 C4844 1.363 . S
C4849 C4848 1.415 . S
H4850 C4847 0.999 . S
H4851 C4832 0.913 . S
H4852 C4870 0.951 . S
H4853 C4872 0.951 . S
H4854 C4874 0.950 . S
H4855 C4875 0.950 . S
H4856 C4877 0.950 . S
H4857 C4880 0.950 . S
H4858 C4881 0.950 . S
H4859 C4883 0.950 . S
H4860 C4884 0.950 . S
H4861 C4885 0.951 . S
H4862 C4887 0.951 . S
H4863 C4889 0.950 . S
H4864 C4890 0.950 . S
H4865 C4892 0.950 . S
H4866 C4895 0.950 . S
H4867 C4896 0.950 . S
H4868 C4898 0.950 . S
H4869 C4899 0.950 . S
C4870 H4852 0.951 . S
C4870 C4871 1.366 . S
C4870 C4872 1.388 . S
C4871 C4870 1.366 . S
C4871 C4875 1.385 . S
C4872 H4853 0.951 . S
C4872 C4870 1.388 . S
C4872 C4873 1.366 . S
C4873 C4872 1.366 . S
C4873 C4874 1.414 . S
C4873 C4876 1.499 . S
C4874 H4854 0.950 . S
C4874 C4873 1.414 . S
C4874 C4875 1.374 . S
C4875 H4855 0.950 . S
C4875 C4871 1.385 . S
C4875 C4874 1.374 . S
C4876 C4873 1.499 . S
C4876 C4877 1.373 . S
C4876 C4878 1.389 . S
C4877 H4856 0.950 . S
C4877 C4876 1.373 . S
C4877 C4893 1.377 . S
C4878 C4876 1.389 . S
C4878 C4879 1.524 . S
C4878 C4892 1.377 . S
C4879 C4878 1.524 . S
C4879 C4880 1.397 . S
C4879 C4884 1.363 . S
C4880 H4857 0.950 . S
C4880 C4879 1.397 . S
C4880 C4881 1.334 . S
C4881 H4858 0.950 . S
C4881 C4880 1.334 . S
C4881 C4882 1.287 . S
C4882 C4881 1.287 . S
C4882 C4883 1.524 . S
C4882 H4901 0.913 1_455 S
C4883 H4859 0.950 . S
C4883 C4882 1.524 . S
C4883 C4884 1.415 . S
C4884 H4860 0.950 . S
C4884 C4879 1.363 . S
C4884 C4883 1.415 . S
C4885 H4861 0.951 . S
C4885 C4886 1.366 . S
C4885 C4887 1.388 . S
C4886 C4885 1.366 . S
C4886 C4890 1.385 . S
C4887 H4862 0.951 . S
C4887 C4885 1.388 . S
C4887 C4888 1.366 . S
C4888 C4887 1.366 . S
C4888 C4889 1.414 . S
C4888 C4891 1.499 . S
C4889 H4863 0.950 . S
C4889 C4888 1.414 . S
C4889 C4890 1.374 . S
C4890 H4864 0.950 . S
C4890 C4886 1.385 . S
C4890 C4889 1.374 . S
C4891 C4888 1.499 . S
C4891 C4892 1.373 . S
C4891 C4893 1.389 . S
C4892 H4865 0.950 . S
C4892 C4878 1.377 . S
C4892 C4891 1.373 . S
C4893 C4877 1.377 . S
C4893 C4891 1.389 . S
C4893 C4894 1.524 . S
C4894 C4893 1.524 . S
C4894 C4895 1.397 . S
C4894 C4899 1.363 . S
C4895 H4866 0.950 . S
C4895 C4894 1.397 . S
C4895 C4896 1.334 . S
C4896 H4867 0.950 . S
C4896 C4895 1.334 . S
C4896 C4897 1.287 . S
C4897 C4896 1.287 . S
C4897 C4898 1.524 . S
C4897 H4900 0.999 . S
C4898 H4868 0.950 . S
C4898 C4897 1.524 . S
C4898 C4899 1.415 . S
C4899 H4869 0.950 . S
C4899 C4894 1.363 . S
C4899 C4898 1.415 . S
H4900 C4897 0.999 . S
H4901 C4882 0.913 1_655 S
H4902 C4920 0.951 . S
H4903 C4922 0.951 . S
H4904 C4924 0.950 . S
H4905 C4925 0.950 . S
H4906 C4927 0.950 . S
H4907 C4930 0.950 . S
H4908 C4931 0.950 . S
H4909 C4933 0.950 . S
H4910 C4934 0.950 . S
H4911 C4935 0.951 . S
H4912 C4937 0.951 . S
H4913 C4939 0.950 . S
H4914 C4940 0.950 . S
H4915 C4942 0.950 . S
H4916 C4945 0.950 . S
H4917 C4946 0.950 . S
H4918 C4948 0.950 . S
H4919 C4949 0.950 . S
C4920 H4902 0.951 . S
C4920 C4921 1.366 . S
C4920 C4922 1.388 . S
C4921 C4920 1.366 . S
C4921 C4925 1.385 . S
C4922 H4903 0.951 . S
C4922 C4920 1.388 . S
C4922 C4923 1.366 . S
C4923 C4922 1.366 . S
C4923 C4924 1.414 . S
C4923 C4926 1.499 . S
C4924 H4904 0.950 . S
C4924 C4923 1.414 . S
C4924 C4925 1.374 . S
C4925 H4905 0.950 . S
C4925 C4921 1.385 . S
C4925 C4924 1.374 . S
C4926 C4923 1.499 . S
C4926 C4927 1.373 . S
C4926 C4928 1.389 . S
C4927 H4906 0.950 . S
C4927 C4926 1.373 . S
C4927 C4943 1.377 . S
C4928 C4926 1.389 . S
C4928 C4929 1.524 . S
C4928 C4942 1.377 . S
C4929 C4928 1.524 . S
C4929 C4930 1.397 . S
C4929 C4934 1.363 . S
C4930 H4907 0.950 . S
C4930 C4929 1.397 . S
C4930 C4931 1.334 . S
C4931 H4908 0.950 . S
C4931 C4930 1.334 . S
C4931 C4932 1.287 . S
C4932 C4931 1.287 . S
C4932 C4933 1.524 . S
C4932 H4951 0.913 . S
C4933 H4909 0.950 . S
C4933 C4932 1.524 . S
C4933 C4934 1.415 . S
C4934 H4910 0.950 . S
C4934 C4929 1.363 . S
C4934 C4933 1.415 . S
C4935 H4911 0.951 . S
C4935 C4936 1.366 . S
C4935 C4937 1.388 . S
C4936 C4935 1.366 . S
C4936 C4940 1.385 . S
C4937 H4912 0.951 . S
C4937 C4935 1.388 . S
C4937 C4938 1.366 . S
C4938 C4937 1.366 . S
C4938 C4939 1.414 . S
C4938 C4941 1.499 . S
C4939 H4913 0.950 . S
C4939 C4938 1.414 . S
C4939 C4940 1.374 . S
C4940 H4914 0.950 . S
C4940 C4936 1.385 . S
C4940 C4939 1.374 . S
C4941 C4938 1.499 . S
C4941 C4942 1.373 . S
C4941 C4943 1.389 . S
C4942 H4915 0.950 . S
C4942 C4928 1.377 . S
C4942 C4941 1.373 . S
C4943 C4927 1.377 . S
C4943 C4941 1.389 . S
C4943 C4944 1.524 . S
C4944 C4943 1.524 . S
C4944 C4945 1.397 . S
C4944 C4949 1.363 . S
C4945 H4916 0.950 . S
C4945 C4944 1.397 . S
C4945 C4946 1.334 . S
C4946 H4917 0.950 . S
C4946 C4945 1.334 . S
C4946 C4947 1.287 . S
C4947 C4946 1.287 . S
C4947 C4948 1.524 . S
C4947 H4950 0.999 . S
C4948 H4918 0.950 . S
C4948 C4947 1.524 . S
C4948 C4949 1.415 . S
C4949 H4919 0.950 . S
C4949 C4944 1.363 . S
C4949 C4948 1.415 . S
H4950 C4947 0.999 . S
H4951 C4932 0.913 . S
H4952 C4970 0.951 . S
H4953 C4972 0.951 . S
H4954 C4974 0.950 . S
H4955 C4975 0.950 . S
H4956 C4977 0.950 . S
H4957 C4980 0.950 . S
H4958 C4981 0.950 . S
H4959 C4983 0.950 . S
H4960 C4984 0.950 . S
H4961 C4985 0.951 . S
H4962 C4987 0.951 . S
H4963 C4989 0.950 . S
H4964 C4990 0.950 . S
H4965 C4992 0.950 . S
H4966 C4995 0.950 . S
H4967 C4996 0.950 . S
H4968 C4998 0.950 . S
H4969 C4999 0.950 . S
C4970 H4952 0.951 . S
C4970 C4971 1.366 . S
C4970 C4972 1.388 . S
C4971 C4970 1.366 . S
C4971 C4975 1.385 . S
C4972 H4953 0.951 . S
C4972 C4970 1.388 . S
C4972 C4973 1.366 . S
C4973 C4972 1.366 . S
C4973 C4974 1.414 . S
C4973 C4976 1.499 . S
C4974 H4954 0.950 . S
C4974 C4973 1.414 . S
C4974 C4975 1.374 . S
C4975 H4955 0.950 . S
C4975 C4971 1.385 . S
C4975 C4974 1.374 . S
C4976 C4973 1.499 . S
C4976 C4977 1.373 . S
C4976 C4978 1.389 . S
C4977 H4956 0.950 . S
C4977 C4976 1.373 . S
C4977 C4993 1.377 . S
C4978 C4976 1.389 . S
C4978 C4979 1.524 . S
C4978 C4992 1.377 . S
C4979 C4978 1.524 . S
C4979 C4980 1.397 . S
C4979 C4984 1.363 . S
C4980 H4957 0.950 . S
C4980 C4979 1.397 . S
C4980 C4981 1.334 . S
C4981 H4958 0.950 . S
C4981 C4980 1.334 . S
C4981 C4982 1.287 . S
C4982 C4981 1.287 . S
C4982 C4983 1.524 . S
C4982 H5001 0.913 . S
C4983 H4959 0.950 . S
C4983 C4982 1.524 . S
C4983 C4984 1.415 . S
C4984 H4960 0.950 . S
C4984 C4979 1.363 . S
C4984 C4983 1.415 . S
C4985 H4961 0.951 . S
C4985 C4986 1.366 . S
C4985 C4987 1.388 . S
C4986 C4985 1.366 . S
C4986 C4990 1.385 . S
C4987 H4962 0.951 . S
C4987 C4985 1.388 . S
C4987 C4988 1.366 . S
C4988 C4987 1.366 . S
C4988 C4989 1.414 . S
C4988 C4991 1.499 . S
C4989 H4963 0.950 . S
C4989 C4988 1.414 . S
C4989 C4990 1.374 . S
C4990 H4964 0.950 . S
C4990 C4986 1.385 . S
C4990 C4989 1.374 . S
C4991 C4988 1.499 . S
C4991 C4992 1.373 . S
C4991 C4993 1.389 . S
C4992 H4965 0.950 . S
C4992 C4978 1.377 . S
C4992 C4991 1.373 . S
C4993 C4977 1.377 . S
C4993 C4991 1.389 . S
C4993 C4994 1.524 . S
C4994 C4993 1.524 . S
C4994 C4995 1.397 . S
C4994 C4999 1.363 . S
C4995 H4966 0.950 . S
C4995 C4994 1.397 . S
C4995 C4996 1.334 . S
C4996 H4967 0.950 . S
C4996 C4995 1.334 . S
C4996 C4997 1.287 . S
C4997 C4996 1.287 . S
C4997 C4998 1.524 . S
C4997 H5000 0.999 . S
C4998 H4968 0.950 . S
C4998 C4997 1.524 . S
C4998 C4999 1.415 . S
C4999 H4969 0.950 . S
C4999 C4994 1.363 . S
C4999 C4998 1.415 . S
H5000 C4997 0.999 . S
H5001 C4982 0.913 . S
H5002 C5020 0.951 . S
H5003 C5022 0.951 . S
H5004 C5024 0.950 . S
H5005 C5025 0.950 . S
H5006 C5027 0.950 . S
H5007 C5030 0.950 . S
H5008 C5031 0.950 . S
H5009 C5033 0.950 . S
H5010 C5034 0.950 . S
H5011 C5035 0.951 . S
H5012 C5037 0.951 . S
H5013 C5039 0.950 . S
H5014 C5040 0.950 . S
H5015 C5042 0.950 . S
H5016 C5045 0.950 . S
H5017 C5046 0.950 . S
H5018 C5048 0.950 . S
H5019 C5049 0.950 . S
C5020 H5002 0.951 . S
C5020 C5021 1.366 . S
C5020 C5022 1.388 . S
C5021 C5020 1.366 . S
C5021 C5025 1.385 . S
C5022 H5003 0.951 . S
C5022 C5020 1.388 . S
C5022 C5023 1.366 . S
C5023 C5022 1.366 . S
C5023 C5024 1.414 . S
C5023 C5026 1.499 . S
C5024 H5004 0.950 . S
C5024 C5023 1.414 . S
C5024 C5025 1.374 . S
C5025 H5005 0.950 . S
C5025 C5021 1.385 . S
C5025 C5024 1.374 . S
C5026 C5023 1.499 . S
C5026 C5027 1.373 . S
C5026 C5028 1.389 . S
C5027 H5006 0.950 . S
C5027 C5026 1.373 . S
C5027 C5043 1.377 . S
C5028 C5026 1.389 . S
C5028 C5029 1.524 . S
C5028 C5042 1.377 . S
C5029 C5028 1.524 . S
C5029 C5030 1.397 . S
C5029 C5034 1.363 . S
C5030 H5007 0.950 . S
C5030 C5029 1.397 . S
C5030 C5031 1.334 . S
C5031 H5008 0.950 . S
C5031 C5030 1.334 . S
C5031 C5032 1.287 . S
C5032 C5031 1.287 . S
C5032 C5033 1.524 . S
C5032 H5051 0.913 . S
C5033 H5009 0.950 . S
C5033 C5032 1.524 . S
C5033 C5034 1.415 . S
C5034 H5010 0.950 . S
C5034 C5029 1.363 . S
C5034 C5033 1.415 . S
C5035 H5011 0.951 . S
C5035 C5036 1.366 . S
C5035 C5037 1.388 . S
C5036 C5035 1.366 . S
C5036 C5040 1.385 . S
C5037 H5012 0.951 . S
C5037 C5035 1.388 . S
C5037 C5038 1.366 . S
C5038 C5037 1.366 . S
C5038 C5039 1.414 . S
C5038 C5041 1.499 . S
C5039 H5013 0.950 . S
C5039 C5038 1.414 . S
C5039 C5040 1.374 . S
C5040 H5014 0.950 . S
C5040 C5036 1.385 . S
C5040 C5039 1.374 . S
C5041 C5038 1.499 . S
C5041 C5042 1.373 . S
C5041 C5043 1.389 . S
C5042 H5015 0.950 . S
C5042 C5028 1.377 . S
C5042 C5041 1.373 . S
C5043 C5027 1.377 . S
C5043 C5041 1.389 . S
C5043 C5044 1.524 . S
C5044 C5043 1.524 . S
C5044 C5045 1.397 . S
C5044 C5049 1.363 . S
C5045 H5016 0.950 . S
C5045 C5044 1.397 . S
C5045 C5046 1.334 . S
C5046 H5017 0.950 . S
C5046 C5045 1.334 . S
C5046 C5047 1.287 . S
C5047 C5046 1.287 . S
C5047 C5048 1.524 . S
C5047 H5050 0.999 . S
C5048 H5018 0.950 . S
C5048 C5047 1.524 . S
C5048 C5049 1.415 . S
C5049 H5019 0.950 . S
C5049 C5044 1.363 . S
C5049 C5048 1.415 . S
H5050 C5047 0.999 . S
H5051 C5032 0.913 . S
H5052 C5070 0.951 . S
H5053 C5072 0.951 . S
H5054 C5074 0.950 . S
H5055 C5075 0.950 . S
H5056 C5077 0.950 . S
H5057 C5080 0.950 . S
H5058 C5081 0.950 . S
H5059 C5083 0.950 . S
H5060 C5084 0.950 . S
H5061 C5085 0.951 . S
H5062 C5087 0.951 . S
H5063 C5089 0.950 . S
H5064 C5090 0.950 1_655 S
H5065 C5092 0.950 . S
H5066 C5095 0.950 1_655 S
H5067 C5096 0.950 . S
H5068 C5098 0.950 . S
H5069 C5099 0.950 . S
C5070 H5052 0.951 . S
C5070 C5071 1.366 . S
C5070 C5072 1.388 . S
C5071 C5070 1.366 . S
C5071 C5075 1.385 . S
C5072 H5053 0.951 . S
C5072 C5070 1.388 . S
C5072 C5073 1.366 . S
C5073 C5072 1.366 . S
C5073 C5074 1.414 . S
C5073 C5076 1.499 . S
C5074 H5054 0.950 . S
C5074 C5073 1.414 . S
C5074 C5075 1.374 . S
C5075 H5055 0.950 . S
C5075 C5071 1.385 . S
C5075 C5074 1.374 . S
C5076 C5073 1.499 . S
C5076 C5077 1.373 . S
C5076 C5078 1.389 . S
C5077 H5056 0.950 . S
C5077 C5076 1.373 . S
C5077 C5093 1.377 . S
C5078 C5076 1.389 . S
C5078 C5079 1.524 . S
C5078 C5092 1.377 . S
C5079 C5078 1.524 . S
C5079 C5080 1.397 . S
C5079 C5084 1.363 . S
C5080 H5057 0.950 . S
C5080 C5079 1.397 . S
C5080 C5081 1.334 . S
C5081 H5058 0.950 . S
C5081 C5080 1.334 . S
C5081 C5082 1.287 . S
C5082 C5081 1.287 . S
C5082 C5083 1.524 . S
C5082 H5101 0.913 . S
C5083 H5059 0.950 . S
C5083 C5082 1.524 . S
C5083 C5084 1.415 . S
C5084 H5060 0.950 . S
C5084 C5079 1.363 . S
C5084 C5083 1.415 . S
C5085 H5061 0.951 . S
C5085 C5086 1.366 . S
C5085 C5087 1.388 . S
C5086 C5085 1.366 . S
C5086 C5090 1.385 . S
C5087 H5062 0.951 . S
C5087 C5085 1.388 . S
C5087 C5088 1.416 . S
C5088 C5087 1.416 . S
C5088 C5089 1.389 1_455 S
C5088 C5091 1.474 1_455 S
C5089 H5063 0.950 . S
C5089 C5088 1.389 1_655 S
C5089 C5090 1.374 1_655 S
C5090 H5064 0.950 1_455 S
C5090 C5086 1.385 . S
C5090 C5089 1.374 1_455 S
C5091 C5088 1.474 1_655 S
C5091 C5092 1.373 . S
C5091 C5093 1.389 . S
C5092 H5065 0.950 . S
C5092 C5078 1.377 . S
C5092 C5091 1.373 . S
C5093 C5077 1.377 . S
C5093 C5091 1.389 . S
C5093 C5094 1.524 1_655 S
C5094 C5093 1.524 1_455 S
C5094 C5095 1.397 . S
C5094 C5099 1.363 . S
C5095 H5066 0.950 1_455 S
C5095 C5094 1.397 . S
C5095 C5096 1.334 . S
C5096 H5067 0.950 . S
C5096 C5095 1.334 . S
C5096 C5097 1.287 . S
C5097 C5096 1.287 . S
C5097 C5098 1.524 . S
C5097 H5100 0.999 . S
C5098 H5068 0.950 . S
C5098 C5097 1.524 . S
C5098 C5099 1.415 . S
C5099 H5069 0.950 . S
C5099 C5094 1.363 . S
C5099 C5098 1.415 . S
H5100 C5097 0.999 . S
H5101 C5082 0.913 . S
H5102 C5120 0.951 . S
H5103 C5122 0.951 . S
H5104 C5124 0.950 . S
H5105 C5125 0.950 . S
H5106 C5127 0.950 . S
H5107 C5130 0.950 . S
H5108 C5131 0.950 . S
H5109 C5133 0.950 . S
H5110 C5134 0.950 . S
H5111 C5135 0.951 . S
H5112 C5137 0.951 . S
H5113 C5139 0.950 . S
H5114 C5140 0.950 . S
H5115 C5142 0.950 . S
H5116 C5145 0.950 . S
H5117 C5146 0.950 . S
H5118 C5148 0.950 . S
H5119 C5149 0.950 . S
C5120 H5102 0.951 . S
C5120 C5121 1.366 . S
C5120 C5122 1.388 . S
C5121 C5120 1.366 . S
C5121 C5125 1.385 . S
C5122 H5103 0.951 . S
C5122 C5120 1.388 . S
C5122 C5123 1.366 . S
C5123 C5122 1.366 . S
C5123 C5124 1.414 . S
C5123 C5126 1.499 . S
C5124 H5104 0.950 . S
C5124 C5123 1.414 . S
C5124 C5125 1.374 . S
C5125 H5105 0.950 . S
C5125 C5121 1.385 . S
C5125 C5124 1.374 . S
C5126 C5123 1.499 . S
C5126 C5127 1.373 . S
C5126 C5128 1.389 . S
C5127 H5106 0.950 . S
C5127 C5126 1.373 . S
C5127 C5143 1.377 . S
C5128 C5126 1.389 . S
C5128 C5129 1.524 . S
C5128 C5142 1.377 . S
C5129 C5128 1.524 . S
C5129 C5130 1.397 . S
C5129 C5134 1.363 . S
C5130 H5107 0.950 . S
C5130 C5129 1.397 . S
C5130 C5131 1.334 . S
C5131 H5108 0.950 . S
C5131 C5130 1.334 . S
C5131 C5132 1.287 . S
C5132 C5131 1.287 . S
C5132 C5133 1.524 . S
C5132 H5151 0.913 . S
C5133 H5109 0.950 . S
C5133 C5132 1.524 . S
C5133 C5134 1.415 . S
C5134 H5110 0.950 . S
C5134 C5129 1.363 . S
C5134 C5133 1.415 . S
C5135 H5111 0.951 . S
C5135 C5136 1.366 . S
C5135 C5137 1.388 . S
C5136 C5135 1.366 . S
C5136 C5140 1.385 . S
C5137 H5112 0.951 . S
C5137 C5135 1.388 . S
C5137 C5138 1.366 . S
C5138 C5137 1.366 . S
C5138 C5139 1.414 . S
C5138 C5141 1.499 . S
C5139 H5113 0.950 . S
C5139 C5138 1.414 . S
C5139 C5140 1.374 . S
C5140 H5114 0.950 . S
C5140 C5136 1.385 . S
C5140 C5139 1.374 . S
C5141 C5138 1.499 . S
C5141 C5142 1.373 . S
C5141 C5143 1.389 . S
C5142 H5115 0.950 . S
C5142 C5128 1.377 . S
C5142 C5141 1.373 . S
C5143 C5127 1.377 . S
C5143 C5141 1.389 . S
C5143 C5144 1.524 . S
C5144 C5143 1.524 . S
C5144 C5145 1.397 . S
C5144 C5149 1.363 . S
C5145 H5116 0.950 . S
C5145 C5144 1.397 . S
C5145 C5146 1.334 . S
C5146 H5117 0.950 . S
C5146 C5145 1.334 . S
C5146 C5147 1.287 . S
C5147 C5146 1.287 . S
C5147 C5148 1.524 . S
C5147 H5150 0.999 . S
C5148 H5118 0.950 . S
C5148 C5147 1.524 . S
C5148 C5149 1.415 . S
C5149 H5119 0.950 . S
C5149 C5144 1.363 . S
C5149 C5148 1.415 . S
H5150 C5147 0.999 . S
H5151 C5132 0.913 . S
H5152 C5170 0.951 . S
H5153 C5172 0.951 . S
H5154 C5174 0.950 . S
H5155 C5175 0.950 . S
H5156 C5177 0.950 . S
H5157 C5180 0.950 . S
H5158 C5181 0.950 . S
H5159 C5183 0.950 . S
H5160 C5184 0.950 . S
H5161 C5185 0.951 . S
H5162 C5187 0.951 . S
H5163 C5189 0.950 . S
H5164 C5190 0.950 . S
H5165 C5192 0.950 . S
H5166 C5195 0.950 . S
H5167 C5196 0.950 . S
H5168 C5198 0.950 . S
H5169 C5199 0.950 . S
C5170 H5152 0.951 . S
C5170 C5171 1.366 . S
C5170 C5172 1.388 . S
C5171 C5170 1.366 . S
C5171 C5175 1.385 . S
C5172 H5153 0.951 . S
C5172 C5170 1.388 . S
C5172 C5173 1.366 . S
C5173 C5172 1.366 . S
C5173 C5174 1.414 . S
C5173 C5176 1.499 . S
C5174 H5154 0.950 . S
C5174 C5173 1.414 . S
C5174 C5175 1.374 . S
C5175 H5155 0.950 . S
C5175 C5171 1.385 . S
C5175 C5174 1.374 . S
C5176 C5173 1.499 . S
C5176 C5177 1.373 . S
C5176 C5178 1.389 . S
C5177 H5156 0.950 . S
C5177 C5176 1.373 . S
C5177 C5193 1.377 . S
C5178 C5176 1.389 . S
C5178 C5179 1.524 . S
C5178 C5192 1.377 . S
C5179 C5178 1.524 . S
C5179 C5180 1.397 . S
C5179 C5184 1.363 . S
C5180 H5157 0.950 . S
C5180 C5179 1.397 . S
C5180 C5181 1.334 . S
C5181 H5158 0.950 . S
C5181 C5180 1.334 . S
C5181 C5182 1.287 . S
C5182 C5181 1.287 . S
C5182 C5183 1.524 . S
C5182 H5201 0.913 . S
C5183 H5159 0.950 . S
C5183 C5182 1.524 . S
C5183 C5184 1.415 . S
C5184 H5160 0.950 . S
C5184 C5179 1.363 . S
C5184 C5183 1.415 . S
C5185 H5161 0.951 . S
C5185 C5186 1.366 . S
C5185 C5187 1.388 . S
C5186 C5185 1.366 . S
C5186 C5190 1.385 . S
C5187 H5162 0.951 . S
C5187 C5185 1.388 . S
C5187 C5188 1.366 . S
C5188 C5187 1.366 . S
C5188 C5189 1.414 . S
C5188 C5191 1.499 . S
C5189 H5163 0.950 . S
C5189 C5188 1.414 . S
C5189 C5190 1.374 . S
C5190 H5164 0.950 . S
C5190 C5186 1.385 . S
C5190 C5189 1.374 . S
C5191 C5188 1.499 . S
C5191 C5192 1.373 . S
C5191 C5193 1.389 . S
C5192 H5165 0.950 . S
C5192 C5178 1.377 . S
C5192 C5191 1.373 . S
C5193 C5177 1.377 . S
C5193 C5191 1.389 . S
C5193 C5194 1.524 . S
C5194 C5193 1.524 . S
C5194 C5195 1.397 . S
C5194 C5199 1.363 . S
C5195 H5166 0.950 . S
C5195 C5194 1.397 . S
C5195 C5196 1.334 . S
C5196 H5167 0.950 . S
C5196 C5195 1.334 . S
C5196 C5197 1.287 . S
C5197 C5196 1.287 . S
C5197 C5198 1.524 . S
C5197 H5200 0.999 . S
C5198 H5168 0.950 . S
C5198 C5197 1.524 . S
C5198 C5199 1.415 . S
C5199 H5169 0.950 . S
C5199 C5194 1.363 . S
C5199 C5198 1.415 . S
H5200 C5197 0.999 . S
H5201 C5182 0.913 . S
H5202 C5220 0.951 . S
H5203 C5222 0.951 . S
H5204 C5224 0.950 . S
H5205 C5225 0.950 . S
H5206 C5227 0.950 . S
H5207 C5230 0.950 . S
H5208 C5231 0.950 . S
H5209 C5233 0.950 . S
H5210 C5234 0.950 . S
H5211 C5235 0.951 . S
H5212 C5237 0.951 . S
H5213 C5239 0.950 . S
H5214 C5240 0.950 . S
H5215 C5242 0.950 . S
H5216 C5245 0.950 . S
H5217 C5246 0.950 . S
H5218 C5248 0.950 . S
H5219 C5249 0.950 . S
C5220 H5202 0.951 . S
C5220 C5221 1.366 . S
C5220 C5222 1.388 . S
C5221 C5220 1.366 . S
C5221 C5225 1.385 . S
C5222 H5203 0.951 . S
C5222 C5220 1.388 . S
C5222 C5223 1.366 . S
C5223 C5222 1.366 . S
C5223 C5224 1.414 . S
C5223 C5226 1.499 . S
C5224 H5204 0.950 . S
C5224 C5223 1.414 . S
C5224 C5225 1.374 . S
C5225 H5205 0.950 . S
C5225 C5221 1.385 . S
C5225 C5224 1.374 . S
C5226 C5223 1.499 . S
C5226 C5227 1.373 . S
C5226 C5228 1.389 . S
C5227 H5206 0.950 . S
C5227 C5226 1.373 . S
C5227 C5243 1.377 . S
C5228 C5226 1.389 . S
C5228 C5229 1.524 . S
C5228 C5242 1.377 . S
C5229 C5228 1.524 . S
C5229 C5230 1.397 . S
C5229 C5234 1.363 . S
C5230 H5207 0.950 . S
C5230 C5229 1.397 . S
C5230 C5231 1.334 . S
C5231 H5208 0.950 . S
C5231 C5230 1.334 . S
C5231 C5232 1.287 . S
C5232 C5231 1.287 . S
C5232 C5233 1.524 . S
C5232 H5251 0.913 . S
C5233 H5209 0.950 . S
C5233 C5232 1.524 . S
C5233 C5234 1.415 . S
C5234 H5210 0.950 . S
C5234 C5229 1.363 . S
C5234 C5233 1.415 . S
C5235 H5211 0.951 . S
C5235 C5236 1.366 . S
C5235 C5237 1.388 . S
C5236 C5235 1.366 . S
C5236 C5240 1.385 . S
C5237 H5212 0.951 . S
C5237 C5235 1.388 . S
C5237 C5238 1.366 . S
C5238 C5237 1.366 . S
C5238 C5239 1.414 . S
C5238 C5241 1.499 . S
C5239 H5213 0.950 . S
C5239 C5238 1.414 . S
C5239 C5240 1.374 . S
C5240 H5214 0.950 . S
C5240 C5236 1.385 . S
C5240 C5239 1.374 . S
C5241 C5238 1.499 . S
C5241 C5242 1.373 . S
C5241 C5243 1.389 . S
C5242 H5215 0.950 . S
C5242 C5228 1.377 . S
C5242 C5241 1.373 . S
C5243 C5227 1.377 . S
C5243 C5241 1.389 . S
C5243 C5244 1.524 . S
C5244 C5243 1.524 . S
C5244 C5245 1.397 . S
C5244 C5249 1.363 . S
C5245 H5216 0.950 . S
C5245 C5244 1.397 . S
C5245 C5246 1.334 . S
C5246 H5217 0.950 . S
C5246 C5245 1.334 . S
C5246 C5247 1.287 . S
C5247 C5246 1.287 . S
C5247 C5248 1.524 . S
C5247 H5250 0.999 . S
C5248 H5218 0.950 . S
C5248 C5247 1.524 . S
C5248 C5249 1.415 . S
C5249 H5219 0.950 . S
C5249 C5244 1.363 . S
C5249 C5248 1.415 . S
H5250 C5247 0.999 . S
H5251 C5232 0.913 . S
H5252 C5270 0.951 . S
H5253 C5272 0.951 . S
H5254 C5274 0.950 . S
H5255 C5275 0.950 . S
H5256 C5277 0.950 . S
H5257 C5280 0.950 . S
H5258 C5281 0.950 . S
H5259 C5283 0.950 . S
H5260 C5284 0.950 . S
H5261 C5285 0.951 1_455 S
H5262 C5287 0.951 . S
H5263 C5289 0.950 . S
H5264 C5290 0.950 . S
H5265 C5292 0.950 . S
H5266 C5295 0.950 1_655 S
H5267 C5296 0.950 . S
H5268 C5298 0.950 . S
H5269 C5299 0.950 . S
C5270 H5252 0.951 . S
C5270 C5271 1.366 . S
C5270 C5272 1.388 . S
C5271 C5270 1.366 . S
C5271 C5275 1.385 . S
C5272 H5253 0.951 . S
C5272 C5270 1.388 . S
C5272 C5273 1.366 . S
C5273 C5272 1.366 . S
C5273 C5274 1.414 . S
C5273 C5276 1.499 . S
C5274 H5254 0.950 . S
C5274 C5273 1.414 . S
C5274 C5275 1.374 . S
C5275 H5255 0.950 . S
C5275 C5271 1.385 . S
C5275 C5274 1.374 . S
C5276 C5273 1.499 . S
C5276 C5277 1.373 . S
C5276 C5278 1.389 . S
C5277 H5256 0.950 . S
C5277 C5276 1.373 . S
C5277 C5293 1.377 . S
C5278 C5276 1.389 . S
C5278 C5279 1.524 . S
C5278 C5292 1.377 . S
C5279 C5278 1.524 . S
C5279 C5280 1.397 . S
C5279 C5284 1.363 . S
C5280 H5257 0.950 . S
C5280 C5279 1.397 . S
C5280 C5281 1.334 . S
C5281 H5258 0.950 . S
C5281 C5280 1.334 . S
C5281 C5282 1.287 . S
C5282 C5281 1.287 . S
C5282 C5283 1.524 . S
C5282 H5301 0.913 . S
C5283 H5259 0.950 . S
C5283 C5282 1.524 . S
C5283 C5284 1.415 . S
C5284 H5260 0.950 . S
C5284 C5279 1.363 . S
C5284 C5283 1.415 . S
C5285 H5261 0.951 1_655 S
C5285 C5286 1.366 . S
C5285 C5287 1.388 . S
C5286 C5285 1.366 . S
C5286 C5290 1.385 . S
C5287 H5262 0.951 . S
C5287 C5285 1.388 . S
C5287 C5288 1.366 . S
C5288 C5287 1.366 . S
C5288 C5289 1.414 . S
C5288 C5291 1.499 . S
C5289 H5263 0.950 . S
C5289 C5288 1.414 . S
C5289 C5290 1.374 . S
C5290 H5264 0.950 . S
C5290 C5286 1.385 . S
C5290 C5289 1.374 . S
C5291 C5288 1.499 . S
C5291 C5292 1.373 . S
C5291 C5293 1.389 . S
C5292 H5265 0.950 . S
C5292 C5278 1.377 . S
C5292 C5291 1.373 . S
C5293 C5277 1.377 . S
C5293 C5291 1.389 . S
C5293 C5294 1.524 . S
C5294 C5293 1.524 . S
C5294 C5295 1.397 1_655 S
C5294 C5299 1.363 1_655 S
C5295 H5266 0.950 1_455 S
C5295 C5294 1.397 1_455 S
C5295 C5296 1.334 . S
C5296 H5267 0.950 . S
C5296 C5295 1.334 . S
C5296 C5297 1.287 . S
C5297 C5296 1.287 . S
C5297 C5298 1.524 . S
C5297 H5300 0.999 . S
C5298 H5268 0.950 . S
C5298 C5297 1.524 . S
C5298 C5299 1.415 . S
C5299 H5269 0.950 . S
C5299 C5294 1.363 1_455 S
C5299 C5298 1.415 . S
H5300 C5297 0.999 . S
H5301 C5282 0.913 . S
H5302 C5320 0.951 . S
H5303 C5322 0.951 . S
H5304 C5324 0.950 . S
H5305 C5325 0.950 . S
H5306 C5327 0.950 . S
H5307 C5330 0.950 . S
H5308 C5331 0.950 . S
H5309 C5333 0.950 . S
H5310 C5334 0.950 . S
H5311 C5335 0.951 . S
H5312 C5337 0.951 . S
H5313 C5339 0.950 . S
H5314 C5340 0.950 . S
H5315 C5342 0.950 . S
H5316 C5345 0.950 . S
H5317 C5346 0.950 . S
H5318 C5348 0.950 . S
H5319 C5349 0.950 . S
C5320 H5302 0.951 . S
C5320 C5321 1.366 . S
C5320 C5322 1.388 . S
C5321 C5320 1.366 . S
C5321 C5325 1.385 . S
C5322 H5303 0.951 . S
C5322 C5320 1.388 . S
C5322 C5323 1.366 . S
C5323 C5322 1.366 . S
C5323 C5324 1.414 . S
C5323 C5326 1.499 . S
C5324 H5304 0.950 . S
C5324 C5323 1.414 . S
C5324 C5325 1.374 . S
C5325 H5305 0.950 . S
C5325 C5321 1.385 . S
C5325 C5324 1.374 . S
C5326 C5323 1.499 . S
C5326 C5327 1.373 . S
C5326 C5328 1.389 . S
C5327 H5306 0.950 . S
C5327 C5326 1.373 . S
C5327 C5343 1.377 . S
C5328 C5326 1.389 . S
C5328 C5329 1.524 . S
C5328 C5342 1.377 . S
C5329 C5328 1.524 . S
C5329 C5330 1.397 . S
C5329 C5334 1.363 . S
C5330 H5307 0.950 . S
C5330 C5329 1.397 . S
C5330 C5331 1.334 . S
C5331 H5308 0.950 . S
C5331 C5330 1.334 . S
C5331 C5332 1.287 . S
C5332 C5331 1.287 . S
C5332 C5333 1.524 . S
C5332 H5351 0.913 . S
C5333 H5309 0.950 . S
C5333 C5332 1.524 . S
C5333 C5334 1.415 . S
C5334 H5310 0.950 . S
C5334 C5329 1.363 . S
C5334 C5333 1.415 . S
C5335 H5311 0.951 . S
C5335 C5336 1.366 . S
C5335 C5337 1.388 . S
C5336 C5335 1.366 . S
C5336 C5340 1.385 . S
C5337 H5312 0.951 . S
C5337 C5335 1.388 . S
C5337 C5338 1.366 . S
C5338 C5337 1.366 . S
C5338 C5339 1.414 . S
C5338 C5341 1.499 . S
C5339 H5313 0.950 . S
C5339 C5338 1.414 . S
C5339 C5340 1.374 . S
C5340 H5314 0.950 . S
C5340 C5336 1.385 . S
C5340 C5339 1.374 . S
C5341 C5338 1.499 . S
C5341 C5342 1.373 . S
C5341 C5343 1.389 . S
C5342 H5315 0.950 . S
C5342 C5328 1.377 . S
C5342 C5341 1.373 . S
C5343 C5327 1.377 . S
C5343 C5341 1.389 . S
C5343 C5344 1.524 . S
C5344 C5343 1.524 . S
C5344 C5345 1.397 . S
C5344 C5349 1.363 . S
C5345 H5316 0.950 . S
C5345 C5344 1.397 . S
C5345 C5346 1.334 . S
C5346 H5317 0.950 . S
C5346 C5345 1.334 . S
C5346 C5347 1.287 . S
C5347 C5346 1.287 . S
C5347 C5348 1.524 . S
C5347 H5350 0.999 . S
C5348 H5318 0.950 . S
C5348 C5347 1.524 . S
C5348 C5349 1.415 . S
C5349 H5319 0.950 . S
C5349 C5344 1.363 . S
C5349 C5348 1.415 . S
H5350 C5347 0.999 . S
H5351 C5332 0.913 . S
H5352 C5370 0.951 . S
H5353 C5372 0.951 . S
H5354 C5374 0.950 . S
H5355 C5375 0.950 . S
H5356 C5377 0.950 . S
H5357 C5380 0.950 . S
H5358 C5381 0.950 . S
H5359 C5383 0.950 . S
H5360 C5384 0.950 . S
H5361 C5385 0.951 . S
H5362 C5387 0.951 . S
H5363 C5389 0.950 . S
H5364 C5390 0.950 . S
H5365 C5392 0.950 . S
H5366 C5395 0.950 . S
H5367 C5396 0.950 . S
H5368 C5398 0.950 . S
H5369 C5399 0.950 . S
C5370 H5352 0.951 . S
C5370 C5371 1.366 . S
C5370 C5372 1.388 . S
C5371 C5370 1.366 . S
C5371 C5375 1.385 . S
C5372 H5353 0.951 . S
C5372 C5370 1.388 . S
C5372 C5373 1.366 . S
C5373 C5372 1.366 . S
C5373 C5374 1.414 . S
C5373 C5376 1.499 . S
C5374 H5354 0.950 . S
C5374 C5373 1.414 . S
C5374 C5375 1.374 . S
C5375 H5355 0.950 . S
C5375 C5371 1.385 . S
C5375 C5374 1.374 . S
C5376 C5373 1.499 . S
C5376 C5377 1.373 . S
C5376 C5378 1.389 . S
C5377 H5356 0.950 . S
C5377 C5376 1.373 . S
C5377 C5393 1.377 . S
C5378 C5376 1.389 . S
C5378 C5379 1.524 . S
C5378 C5392 1.377 . S
C5379 C5378 1.524 . S
C5379 C5380 1.397 . S
C5379 C5384 1.363 . S
C5380 H5357 0.950 . S
C5380 C5379 1.397 . S
C5380 C5381 1.334 . S
C5381 H5358 0.950 . S
C5381 C5380 1.334 . S
C5381 C5382 1.287 . S
C5382 C5381 1.287 . S
C5382 C5383 1.524 . S
C5382 H5401 0.913 . S
C5383 H5359 0.950 . S
C5383 C5382 1.524 . S
C5383 C5384 1.415 . S
C5384 H5360 0.950 . S
C5384 C5379 1.363 . S
C5384 C5383 1.415 . S
C5385 H5361 0.951 . S
C5385 C5386 1.366 . S
C5385 C5387 1.388 . S
C5386 C5385 1.366 . S
C5386 C5390 1.385 . S
C5387 H5362 0.951 . S
C5387 C5385 1.388 . S
C5387 C5388 1.366 . S
C5388 C5387 1.366 . S
C5388 C5389 1.414 . S
C5388 C5391 1.499 . S
C5389 H5363 0.950 . S
C5389 C5388 1.414 . S
C5389 C5390 1.374 . S
C5390 H5364 0.950 . S
C5390 C5386 1.385 . S
C5390 C5389 1.374 . S
C5391 C5388 1.499 . S
C5391 C5392 1.373 . S
C5391 C5393 1.389 . S
C5392 H5365 0.950 . S
C5392 C5378 1.377 . S
C5392 C5391 1.373 . S
C5393 C5377 1.377 . S
C5393 C5391 1.389 . S
C5393 C5394 1.524 . S
C5394 C5393 1.524 . S
C5394 C5395 1.397 . S
C5394 C5399 1.363 . S
C5395 H5366 0.950 . S
C5395 C5394 1.397 . S
C5395 C5396 1.334 . S
C5396 H5367 0.950 . S
C5396 C5395 1.334 . S
C5396 C5397 1.287 . S
C5397 C5396 1.287 . S
C5397 C5398 1.524 . S
C5397 H5400 0.999 . S
C5398 H5368 0.950 . S
C5398 C5397 1.524 . S
C5398 C5399 1.415 . S
C5399 H5369 0.950 . S
C5399 C5394 1.363 . S
C5399 C5398 1.415 . S
H5400 C5397 0.999 . S
H5401 C5382 0.913 . S
H5402 C5420 0.951 . S
H5403 C5422 0.951 . S
H5404 C5424 0.950 . S
H5405 C5425 0.950 . S
H5406 C5427 0.950 . S
H5407 C5430 0.950 . S
H5408 C5431 0.950 . S
H5409 C5433 0.950 . S
H5410 C5434 0.950 . S
H5411 C5435 0.951 . S
H5412 C5437 0.931 1_545 S
H5413 C5439 0.950 . S
H5414 C5440 0.950 . S
H5415 C5442 0.950 . S
H5416 C5445 0.950 . S
H5417 C5446 0.950 . S
H5418 C5448 0.950 . S
H5419 C5449 0.950 . S
C5420 H5402 0.951 . S
C5420 C5421 1.366 . S
C5420 C5422 1.388 . S
C5421 C5420 1.366 . S
C5421 C5425 1.385 . S
C5422 H5403 0.951 . S
C5422 C5420 1.388 . S
C5422 C5423 1.366 . S
C5423 C5422 1.366 . S
C5423 C5424 1.414 . S
C5423 C5426 1.499 . S
C5424 H5404 0.950 . S
C5424 C5423 1.414 . S
C5424 C5425 1.374 . S
C5425 H5405 0.950 . S
C5425 C5421 1.385 . S
C5425 C5424 1.374 . S
C5426 C5423 1.499 . S
C5426 C5427 1.373 . S
C5426 C5428 1.389 . S
C5427 H5406 0.950 . S
C5427 C5426 1.373 . S
C5427 C5443 1.377 . S
C5428 C5426 1.389 . S
C5428 C5429 1.524 . S
C5428 C5442 1.377 . S
C5429 C5428 1.524 . S
C5429 C5430 1.397 . S
C5429 C5434 1.363 . S
C5430 H5407 0.950 . S
C5430 C5429 1.397 . S
C5430 C5431 1.334 . S
C5431 H5408 0.950 . S
C5431 C5430 1.334 . S
C5431 C5432 1.287 . S
C5432 C5431 1.287 . S
C5432 C5433 1.524 . S
C5432 H5451 0.913 . S
C5433 H5409 0.950 . S
C5433 C5432 1.524 . S
C5433 C5434 1.415 . S
C5434 H5410 0.950 . S
C5434 C5429 1.363 . S
C5434 C5433 1.415 . S
C5435 H5411 0.951 . S
C5435 C5436 1.366 . S
C5435 C5437 1.375 1_545 S
C5436 C5435 1.366 . S
C5436 C5440 1.385 1_545 S
C5437 H5412 0.931 1_565 S
C5437 C5435 1.375 1_565 S
C5437 C5438 1.399 . S
C5438 C5437 1.399 . S
C5438 C5439 1.414 . S
C5438 C5441 1.499 . S
C5439 H5413 0.950 . S
C5439 C5438 1.414 . S
C5439 C5440 1.374 . S
C5440 H5414 0.950 . S
C5440 C5436 1.385 1_565 S
C5440 C5439 1.374 . S
C5441 C5438 1.499 . S
C5441 C5442 1.373 . S
C5441 C5443 1.389 . S
C5442 H5415 0.950 . S
C5442 C5428 1.377 . S
C5442 C5441 1.373 . S
C5443 C5427 1.377 . S
C5443 C5441 1.389 . S
C5443 C5444 1.524 . S
C5444 C5443 1.524 . S
C5444 C5445 1.397 . S
C5444 C5449 1.363 . S
C5445 H5416 0.950 . S
C5445 C5444 1.397 . S
C5445 C5446 1.334 . S
C5446 H5417 0.950 . S
C5446 C5445 1.334 . S
C5446 C5447 1.287 . S
C5447 C5446 1.287 . S
C5447 C5448 1.524 . S
C5447 H5450 0.999 . S
C5448 H5418 0.950 . S
C5448 C5447 1.524 . S
C5448 C5449 1.415 . S
C5449 H5419 0.950 . S
C5449 C5444 1.363 . S
C5449 C5448 1.415 . S
H5450 C5447 0.999 . S
H5451 C5432 0.913 . S
H5452 C5470 0.951 . S
H5453 C5472 0.951 . S
H5454 C5474 0.950 . S
H5455 C5475 0.950 . S
H5456 C5477 0.950 . S
H5457 C5480 0.950 . S
H5458 C5481 0.950 . S
H5459 C5483 0.950 . S
H5460 C5484 0.950 . S
H5461 C5485 0.951 . S
H5462 C5487 0.951 . S
H5463 C5489 0.950 . S
H5464 C5490 0.950 . S
H5465 C5492 0.950 . S
H5466 C5495 0.950 . S
H5467 C5496 0.950 . S
H5468 C5498 0.950 . S
H5469 C5499 0.950 . S
C5470 H5452 0.951 . S
C5470 C5471 1.366 . S
C5470 C5472 1.388 . S
C5471 C5470 1.366 . S
C5471 C5475 1.385 . S
C5472 H5453 0.951 . S
C5472 C5470 1.388 . S
C5472 C5473 1.366 . S
C5473 C5472 1.366 . S
C5473 C5474 1.414 . S
C5473 C5476 1.499 . S
C5474 H5454 0.950 . S
C5474 C5473 1.414 . S
C5474 C5475 1.374 . S
C5475 H5455 0.950 . S
C5475 C5471 1.385 . S
C5475 C5474 1.374 . S
C5476 C5473 1.499 . S
C5476 C5477 1.373 . S
C5476 C5478 1.389 . S
C5477 H5456 0.950 . S
C5477 C5476 1.373 . S
C5477 C5493 1.377 . S
C5478 C5476 1.389 . S
C5478 C5479 1.524 . S
C5478 C5492 1.377 . S
C5479 C5478 1.524 . S
C5479 C5480 1.397 . S
C5479 C5484 1.363 . S
C5480 H5457 0.950 . S
C5480 C5479 1.397 . S
C5480 C5481 1.334 . S
C5481 H5458 0.950 . S
C5481 C5480 1.334 . S
C5481 C5482 1.287 . S
C5482 C5481 1.287 . S
C5482 C5483 1.524 . S
C5482 H5501 0.913 . S
C5483 H5459 0.950 . S
C5483 C5482 1.524 . S
C5483 C5484 1.415 . S
C5484 H5460 0.950 . S
C5484 C5479 1.363 . S
C5484 C5483 1.415 . S
C5485 H5461 0.951 . S
C5485 C5486 1.366 . S
C5485 C5487 1.388 . S
C5486 C5485 1.366 . S
C5486 C5490 1.385 . S
C5487 H5462 0.951 . S
C5487 C5485 1.388 . S
C5487 C5488 1.366 . S
C5488 C5487 1.366 . S
C5488 C5489 1.414 . S
C5488 C5491 1.499 . S
C5489 H5463 0.950 . S
C5489 C5488 1.414 . S
C5489 C5490 1.374 . S
C5490 H5464 0.950 . S
C5490 C5486 1.385 . S
C5490 C5489 1.374 . S
C5491 C5488 1.499 . S
C5491 C5492 1.373 . S
C5491 C5493 1.389 . S
C5492 H5465 0.950 . S
C5492 C5478 1.377 . S
C5492 C5491 1.373 . S
C5493 C5477 1.377 . S
C5493 C5491 1.389 . S
C5493 C5494 1.524 . S
C5494 C5493 1.524 . S
C5494 C5495 1.397 . S
C5494 C5499 1.363 . S
C5495 H5466 0.950 . S
C5495 C5494 1.397 . S
C5495 C5496 1.334 . S
C5496 H5467 0.950 . S
C5496 C5495 1.334 . S
C5496 C5497 1.287 . S
C5497 C5496 1.287 . S
C5497 C5498 1.524 . S
C5497 H5500 0.999 . S
C5498 H5468 0.950 . S
C5498 C5497 1.524 . S
C5498 C5499 1.415 . S
C5499 H5469 0.950 . S
C5499 C5494 1.363 . S
C5499 C5498 1.415 . S
H5500 C5497 0.999 . S
H5501 C5482 0.913 . S
H5502 C5520 0.923 1_556 S
H5503 C5522 0.951 1_556 S
H5504 C5524 0.950 . S
H5505 C5525 0.950 . S
H5506 C5527 0.950 1_556 S
H5507 C5530 0.950 . S
H5508 C5531 0.950 . S
H5509 C5533 0.950 . S
H5510 C5534 0.950 . S
H5511 C5535 0.951 . S
H5512 C5537 0.951 . S
H5513 C5539 0.978 . S
H5514 C5540 0.950 . S
H5515 C5542 0.950 . S
H5516 C5545 0.950 . S
H5517 C5546 0.950 . S
H5518 C5548 0.950 1_565 S
H5519 C5549 0.950 1_554 S
C5520 H5502 0.923 1_554 S
C5520 C5521 1.383 . S
C5520 C5522 1.402 . S
C5521 C5520 1.383 . S
C5521 C5525 1.385 . S
C5522 H5503 0.951 1_554 S
C5522 C5520 1.402 . S
C5522 C5523 1.366 . S
C5523 C5522 1.366 . S
C5523 C5524 1.414 . S
C5523 C5526 1.499 . S
C5524 H5504 0.950 . S
C5524 C5523 1.414 . S
C5524 C5525 1.374 . S
C5525 H5505 0.950 . S
C5525 C5521 1.385 . S
C5525 C5524 1.374 . S
C5526 C5523 1.499 . S
C5526 C5527 1.373 . S
C5526 C5528 1.389 . S
C5527 H5506 0.950 1_554 S
C5527 C5526 1.373 . S
C5527 C5543 1.377 . S
C5528 C5526 1.389 . S
C5528 C5529 1.524 . S
C5528 C5542 1.377 . S
C5529 C5528 1.524 . S
C5529 C5530 1.397 . S
C5529 C5534 1.363 . S
C5530 H5507 0.950 . S
C5530 C5529 1.397 . S
C5530 C5531 1.334 . S
C5531 H5508 0.950 . S
C5531 C5530 1.334 . S
C5531 C5532 1.287 . S
C5532 C5531 1.287 . S
C5532 C5533 1.524 . S
C5532 H5551 0.913 . S
C5533 H5509 0.950 . S
C5533 C5532 1.524 . S
C5533 C5534 1.415 . S
C5534 H5510 0.950 . S
C5534 C5529 1.363 . S
C5534 C5533 1.415 . S
C5535 H5511 0.951 . S
C5535 C5536 1.366 . S
C5535 C5537 1.388 . S
C5536 C5535 1.366 . S
C5536 C5540 1.385 . S
C5537 H5512 0.951 . S
C5537 C5535 1.388 . S
C5537 C5538 1.366 . S
C5538 C5537 1.366 . S
C5538 C5539 1.414 . S
C5538 C5541 1.499 . S
C5539 H5513 0.978 . S
C5539 C5538 1.414 . S
C5539 C5540 1.374 . S
C5540 H5514 0.950 . S
C5540 C5536 1.385 . S
C5540 C5539 1.374 . S
C5541 C5538 1.499 . S
C5541 C5542 1.373 . S
C5541 C5543 1.389 . S
C5542 H5515 0.950 . S
C5542 C5528 1.377 . S
C5542 C5541 1.373 . S
C5543 C5527 1.377 . S
C5543 C5541 1.389 . S
C5543 C5544 1.524 1_554 S
C5544 C5543 1.524 1_556 S
C5544 C5545 1.397 . S
C5544 C5549 1.363 . S
C5545 H5516 0.950 . S
C5545 C5544 1.397 . S
C5545 C5546 1.334 . S
C5546 H5517 0.950 . S
C5546 C5545 1.334 . S
C5546 C5547 1.287 . S
C5547 C5546 1.287 . S
C5547 C5548 1.524 . S
C5547 H5550 0.999 1_545 S
C5548 H5518 0.950 1_545 S
C5548 C5547 1.524 . S
C5548 C5549 1.415 . S
C5549 H5519 0.950 1_556 S
C5549 C5544 1.363 . S
C5549 C5548 1.415 . S
H5550 C5547 0.999 1_565 S
H5551 C5532 0.913 . S
H5552 C5570 0.951 . S
H5553 C5572 0.951 . S
H5554 C5574 0.950 . S
H5555 C5575 0.950 . S
H5556 C5577 0.950 . S
H5557 C5580 0.950 . S
H5558 C5581 0.950 . S
H5559 C5583 0.950 . S
H5560 C5584 0.950 . S
H5561 C5585 0.951 . S
H5562 C5587 0.951 . S
H5563 C5589 0.950 . S
H5564 C5590 0.950 . S
H5565 C5592 0.950 . S
H5566 C5595 0.950 . S
H5567 C5596 0.950 . S
H5568 C5598 0.950 . S
H5569 C5599 0.950 . S
C5570 H5552 0.951 . S
C5570 C5571 1.366 . S
C5570 C5572 1.388 . S
C5571 C5570 1.366 . S
C5571 C5575 1.385 . S
C5572 H5553 0.951 . S
C5572 C5570 1.388 . S
C5572 C5573 1.366 . S
C5573 C5572 1.366 . S
C5573 C5574 1.414 . S
C5573 C5576 1.499 . S
C5574 H5554 0.950 . S
C5574 C5573 1.414 . S
C5574 C5575 1.374 . S
C5575 H5555 0.950 . S
C5575 C5571 1.385 . S
C5575 C5574 1.374 . S
C5576 C5573 1.499 . S
C5576 C5577 1.373 . S
C5576 C5578 1.389 . S
C5577 H5556 0.950 . S
C5577 C5576 1.373 . S
C5577 C5593 1.377 . S
C5578 C5576 1.389 . S
C5578 C5579 1.524 . S
C5578 C5592 1.377 . S
C5579 C5578 1.524 . S
C5579 C5580 1.397 . S
C5579 C5584 1.363 . S
C5580 H5557 0.950 . S
C5580 C5579 1.397 . S
C5580 C5581 1.334 . S
C5581 H5558 0.950 . S
C5581 C5580 1.334 . S
C5581 C5582 1.287 . S
C5582 C5581 1.287 . S
C5582 C5583 1.524 . S
C5582 H5601 0.913 . S
C5583 H5559 0.950 . S
C5583 C5582 1.524 . S
C5583 C5584 1.415 . S
C5584 H5560 0.950 . S
C5584 C5579 1.363 . S
C5584 C5583 1.415 . S
C5585 H5561 0.951 . S
C5585 C5586 1.366 . S
C5585 C5587 1.388 . S
C5586 C5585 1.366 . S
C5586 C5590 1.385 . S
C5587 H5562 0.951 . S
C5587 C5585 1.388 . S
C5587 C5588 1.366 . S
C5588 C5587 1.366 . S
C5588 C5589 1.414 . S
C5588 C5591 1.499 . S
C5589 H5563 0.950 . S
C5589 C5588 1.414 . S
C5589 C5590 1.374 . S
C5590 H5564 0.950 . S
C5590 C5586 1.385 . S
C5590 C5589 1.374 . S
C5591 C5588 1.499 . S
C5591 C5592 1.373 . S
C5591 C5593 1.389 . S
C5592 H5565 0.950 . S
C5592 C5578 1.377 . S
C5592 C5591 1.373 . S
C5593 C5577 1.377 . S
C5593 C5591 1.389 . S
C5593 C5594 1.524 . S
C5594 C5593 1.524 . S
C5594 C5595 1.397 . S
C5594 C5599 1.363 . S
C5595 H5566 0.950 . S
C5595 C5594 1.397 . S
C5595 C5596 1.334 . S
C5596 H5567 0.950 . S
C5596 C5595 1.334 . S
C5596 C5597 1.287 . S
C5597 C5596 1.287 . S
C5597 C5598 1.524 . S
C5597 H5600 0.999 . S
C5598 H5568 0.950 . S
C5598 C5597 1.524 . S
C5598 C5599 1.415 . S
C5599 H5569 0.950 . S
C5599 C5594 1.363 . S
C5599 C5598 1.415 . S
H5600 C5597 0.999 . S
H5601 C5582 0.913 . S
H5602 C5620 0.951 . S
H5603 C5622 0.951 . S
H5604 C5624 0.950 . S
H5605 C5625 0.961 . S
H5606 C5627 0.950 . S
H5607 C5630 0.950 . S
H5608 C5631 0.950 . S
H5609 C5633 0.950 1_554 S
H5610 C5634 0.950 . S
H5611 C5635 0.951 . S
H5612 C5637 0.951 . S
H5613 C5639 0.950 1_554 S
H5614 C5640 0.988 . S
H5615 C5642 0.950 . S
H5616 C5645 0.950 . S
H5617 C5646 0.950 . S
H5618 C5648 0.950 . S
H5619 C5649 0.950 . S
C5620 H5602 0.951 . S
C5620 C5621 1.366 . S
C5620 C5622 1.388 . S
C5621 C5620 1.366 . S
C5621 C5625 1.369 1_554 S
C5622 H5603 0.951 . S
C5622 C5620 1.388 . S
C5622 C5623 1.366 . S
C5623 C5622 1.366 . S
C5623 C5624 1.414 1_554 S
C5623 C5626 1.486 1_554 S
C5624 H5604 0.950 . S
C5624 C5623 1.414 1_556 S
C5624 C5625 1.378 . S
C5625 H5605 0.961 . S
C5625 C5621 1.369 1_556 S
C5625 C5624 1.378 . S
C5626 C5623 1.486 1_556 S
C5626 C5627 1.381 1_556 S
C5626 C5628 1.392 . S
C5627 H5606 0.950 . S
C5627 C5626 1.381 1_554 S
C5627 C5643 1.377 1_554 S
C5628 C5626 1.392 . S
C5628 C5629 1.524 . S
C5628 C5642 1.377 . S
C5629 C5628 1.524 . S
C5629 C5630 1.397 . S
C5629 C5634 1.363 1_556 S
C5630 H5607 0.950 . S
C5630 C5629 1.397 . S
C5630 C5631 1.334 . S
C5631 H5608 0.950 . S
C5631 C5630 1.334 . S
C5631 C5632 1.287 . S
C5632 C5631 1.287 . S
C5632 C5633 1.524 . S
C5632 H5651 0.913 . S
C5633 H5609 0.950 1_556 S
C5633 C5632 1.524 . S
C5633 C5634 1.415 1_556 S
C5634 H5610 0.950 . S
C5634 C5629 1.363 1_554 S
C5634 C5633 1.415 1_554 S
C5635 H5611 0.951 . S
C5635 C5636 1.366 . S
C5635 C5637 1.388 . S
C5636 C5635 1.366 . S
C5636 C5640 1.385 . S
C5637 H5612 0.951 . S
C5637 C5635 1.388 . S
C5637 C5638 1.366 . S
C5638 C5637 1.366 . S
C5638 C5639 1.414 . S
C5638 C5641 1.499 . S
C5639 H5613 0.950 1_556 S
C5639 C5638 1.414 . S
C5639 C5640 1.374 . S
C5640 H5614 0.988 . S
C5640 C5636 1.385 . S
C5640 C5639 1.374 . S
C5641 C5638 1.499 . S
C5641 C5642 1.373 . S
C5641 C5643 1.389 . S
C5642 H5615 0.950 . S
C5642 C5628 1.377 . S
C5642 C5641 1.373 . S
C5643 C5627 1.377 1_556 S
C5643 C5641 1.389 . S
C5643 C5644 1.525 1_556 S
C5644 C5643 1.525 1_554 S
C5644 C5645 1.406 . S
C5644 C5649 1.354 1_554 S
C5645 H5616 0.950 . S
C5645 C5644 1.406 . S
C5645 C5646 1.334 . S
C5646 H5617 0.950 . S
C5646 C5645 1.334 . S
C5646 C5647 1.287 . S
C5647 C5646 1.287 . S
C5647 C5648 1.524 1_554 S
C5647 H5650 0.999 . S
C5648 H5618 0.950 . S
C5648 C5647 1.524 1_556 S
C5648 C5649 1.415 . S
C5649 H5619 0.950 . S
C5649 C5644 1.354 1_556 S
C5649 C5648 1.415 . S
H5650 C5647 0.999 . S
H5651 C5632 0.913 . S
H5652 C5670 0.951 . S
H5653 C5672 0.951 . S
H5654 C5674 0.950 . S
H5655 C5675 0.950 . S
H5656 C5677 0.950 . S
H5657 C5680 0.950 . S
H5658 C5681 0.950 . S
H5659 C5683 0.950 . S
H5660 C5684 0.950 . S
H5661 C5685 0.951 . S
H5662 C5687 0.951 . S
H5663 C5689 0.950 . S
H5664 C5690 0.950 . S
H5665 C5692 0.950 . S
H5666 C5695 0.950 . S
H5667 C5696 0.950 . S
H5668 C5698 0.950 . S
H5669 C5699 0.950 . S
C5670 H5652 0.951 . S
C5670 C5671 1.366 . S
C5670 C5672 1.388 . S
C5671 C5670 1.366 . S
C5671 C5675 1.385 . S
C5672 H5653 0.951 . S
C5672 C5670 1.388 . S
C5672 C5673 1.366 . S
C5673 C5672 1.366 . S
C5673 C5674 1.414 . S
C5673 C5676 1.499 . S
C5674 H5654 0.950 . S
C5674 C5673 1.414 . S
C5674 C5675 1.374 . S
C5675 H5655 0.950 . S
C5675 C5671 1.385 . S
C5675 C5674 1.374 . S
C5676 C5673 1.499 . S
C5676 C5677 1.373 . S
C5676 C5678 1.389 . S
C5677 H5656 0.950 . S
C5677 C5676 1.373 . S
C5677 C5693 1.377 . S
C5678 C5676 1.389 . S
C5678 C5679 1.524 . S
C5678 C5692 1.377 . S
C5679 C5678 1.524 . S
C5679 C5680 1.397 . S
C5679 C5684 1.363 . S
C5680 H5657 0.950 . S
C5680 C5679 1.397 . S
C5680 C5681 1.334 . S
C5681 H5658 0.950 . S
C5681 C5680 1.334 . S
C5681 C5682 1.287 . S
C5682 C5681 1.287 . S
C5682 C5683 1.524 . S
C5682 H5701 0.913 . S
C5683 H5659 0.950 . S
C5683 C5682 1.524 . S
C5683 C5684 1.415 . S
C5684 H5660 0.950 . S
C5684 C5679 1.363 . S
C5684 C5683 1.415 . S
C5685 H5661 0.951 . S
C5685 C5686 1.366 . S
C5685 C5687 1.388 . S
C5686 C5685 1.366 . S
C5686 C5690 1.385 . S
C5687 H5662 0.951 . S
C5687 C5685 1.388 . S
C5687 C5688 1.366 . S
C5688 C5687 1.366 . S
C5688 C5689 1.414 . S
C5688 C5691 1.499 . S
C5689 H5663 0.950 . S
C5689 C5688 1.414 . S
C5689 C5690 1.374 . S
C5690 H5664 0.950 . S
C5690 C5686 1.385 . S
C5690 C5689 1.374 . S
C5691 C5688 1.499 . S
C5691 C5692 1.373 . S
C5691 C5693 1.389 . S
C5692 H5665 0.950 . S
C5692 C5678 1.377 . S
C5692 C5691 1.373 . S
C5693 C5677 1.377 . S
C5693 C5691 1.389 . S
C5693 C5694 1.524 . S
C5694 C5693 1.524 . S
C5694 C5695 1.397 . S
C5694 C5699 1.363 . S
C5695 H5666 0.950 . S
C5695 C5694 1.397 . S
C5695 C5696 1.334 . S
C5696 H5667 0.950 . S
C5696 C5695 1.334 . S
C5696 C5697 1.287 . S
C5697 C5696 1.287 . S
C5697 C5698 1.524 . S
C5697 H5700 0.999 . S
C5698 H5668 0.950 . S
C5698 C5697 1.524 . S
C5698 C5699 1.415 . S
C5699 H5669 0.950 . S
C5699 C5694 1.363 . S
C5699 C5698 1.415 . S
H5700 C5697 0.999 . S
H5701 C5682 0.913 . S
H5702 C5720 0.951 . S
H5703 C5722 0.951 . S
H5704 C5724 0.950 . S
H5705 C5725 0.950 . S
H5706 C5727 0.950 . S
H5707 C5730 0.950 . S
H5708 C5731 0.950 . S
H5709 C5733 0.950 . S
H5710 C5734 0.950 . S
H5711 C5735 0.951 . S
H5712 C5737 0.951 . S
H5713 C5739 0.950 . S
H5714 C5740 0.950 . S
H5715 C5742 0.950 . S
H5716 C5745 0.950 . S
H5717 C5746 0.950 . S
H5718 C5748 0.950 . S
H5719 C5749 0.950 . S
C5720 H5702 0.951 . S
C5720 C5721 1.366 . S
C5720 C5722 1.388 . S
C5721 C5720 1.366 . S
C5721 C5725 1.385 . S
C5722 H5703 0.951 . S
C5722 C5720 1.388 . S
C5722 C5723 1.366 . S
C5723 C5722 1.366 . S
C5723 C5724 1.414 . S
C5723 C5726 1.499 . S
C5724 H5704 0.950 . S
C5724 C5723 1.414 . S
C5724 C5725 1.374 . S
C5725 H5705 0.950 . S
C5725 C5721 1.385 . S
C5725 C5724 1.374 . S
C5726 C5723 1.499 . S
C5726 C5727 1.373 . S
C5726 C5728 1.389 . S
C5727 H5706 0.950 . S
C5727 C5726 1.373 . S
C5727 C5743 1.377 . S
C5728 C5726 1.389 . S
C5728 C5729 1.524 . S
C5728 C5742 1.377 . S
C5729 C5728 1.524 . S
C5729 C5730 1.397 . S
C5729 C5734 1.363 . S
C5730 H5707 0.950 . S
C5730 C5729 1.397 . S
C5730 C5731 1.334 . S
C5731 H5708 0.950 . S
C5731 C5730 1.334 . S
C5731 C5732 1.287 . S
C5732 C5731 1.287 . S
C5732 C5733 1.524 . S
C5732 H5751 0.913 . S
C5733 H5709 0.950 . S
C5733 C5732 1.524 . S
C5733 C5734 1.415 . S
C5734 H5710 0.950 . S
C5734 C5729 1.363 . S
C5734 C5733 1.415 . S
C5735 H5711 0.951 . S
C5735 C5736 1.366 . S
C5735 C5737 1.388 . S
C5736 C5735 1.366 . S
C5736 C5740 1.385 . S
C5737 H5712 0.951 . S
C5737 C5735 1.388 . S
C5737 C5738 1.366 . S
C5738 C5737 1.366 . S
C5738 C5739 1.414 . S
C5738 C5741 1.499 . S
C5739 H5713 0.950 . S
C5739 C5738 1.414 . S
C5739 C5740 1.374 . S
C5740 H5714 0.950 . S
C5740 C5736 1.385 . S
C5740 C5739 1.374 . S
C5741 C5738 1.499 . S
C5741 C5742 1.373 . S
C5741 C5743 1.389 . S
C5742 H5715 0.950 . S
C5742 C5728 1.377 . S
C5742 C5741 1.373 . S
C5743 C5727 1.377 . S
C5743 C5741 1.389 . S
C5743 C5744 1.524 . S
C5744 C5743 1.524 . S
C5744 C5745 1.397 . S
C5744 C5749 1.363 . S
C5745 H5716 0.950 . S
C5745 C5744 1.397 . S
C5745 C5746 1.334 . S
C5746 H5717 0.950 . S
C5746 C5745 1.334 . S
C5746 C5747 1.287 . S
C5747 C5746 1.287 . S
C5747 C5748 1.524 . S
C5747 H5750 0.999 . S
C5748 H5718 0.950 . S
C5748 C5747 1.524 . S
C5748 C5749 1.415 . S
C5749 H5719 0.950 . S
C5749 C5744 1.363 . S
C5749 C5748 1.415 . S
H5750 C5747 0.999 . S
H5751 C5732 0.913 . S
C971 C101 2.257 . S
C986 C322 2.217 1_556 S
C1021 C57 2.048 . S
C1036 C370 2.076 . S
C1071 C73 1.064 . S
C1086 C402 1.086 . S
C1136 C447 1.360 . S
C1121 C78 1.330 . S
C1171 C21 1.162 . S
C1186 C487 1.193 . S
C1236 C518 0.269 . S
C1221 C31 0.383 . S
C1286 C570 1.225 . S
C1271 C49 1.220 . S
C1321 C0 1.595 . S
C1336 C602 1.611 . S
C1386 C330 2.436 . S
C1371 C218 2.456 . S
C1421 C229 0.387 . S
C1436 C367 0.333 . S
C1486 C410 1.345 . S
C1471 C257 1.361 . S
C1536 C442 1.156 . S
C1521 C164 1.118 . S
C1571 C216 1.629 . S
C1586 C482 1.701 . S
C1636 C521 1.458 . S
C1621 C231 1.486 . S
C1686 C567 0.271 . S
C1671 C255 0.369 . S
C1736 C610 1.967 . S
C1721 C166 1.996 . S
C1786 C327 1.411 . S
C1771 C143 1.335 . S
C1821 C265 1.986 . S
C1836 C650 2.013 . S
C1886 C691 2.487 . S
C1871 C299 2.529 . S
C1936 C722 0.583 1_655 S
C1921 C291 0.605 . S
C1971 C104 1.140 . S
C1986 C607 1.172 . S
C2021 C117 1.427 . S
C2036 C407 1.465 . S
C2071 C304 2.226 . S
C2086 C770 2.247 . S
C2136 C802 0.415 . S
C2121 C278 0.340 . S
C2186 C331 2.174 . S
C2171 C60 2.204 . S
C2236 C801 1.967 . S
C2221 C96 1.968 . S
C2271 C88 0.969 . S
C2286 C411 0.950 . S
C2321 C65 1.274 . S
C2336 C758 1.281 . S
C2386 C478 1.142 . S
C2371 C10 1.160 . S
C2421 C44 0.369 . S
C2436 C687 0.237 . S
C2486 C561 1.086 1_556 S
C2471 C34 1.033 . S
C2536 C851 1.565 . S
C2521 C13 1.636 . S
C2586 C321 2.366 . S
C2571 C138 2.324 . S
C2636 C798 0.342 . S
C2621 C296 0.232 . S
C2671 C112 1.236 . S
C2686 C401 1.252 . S
C2721 C270 1.052 . S
C2736 C771 1.035 . S
C2771 C140 1.623 . S
C2786 C491 1.598 . S
C2836 C690 1.404 . S
C2821 C294 1.401 . S
C2871 C114 0.162 . S
C2886 C558 0.317 . S
C2921 C268 1.882 . S
C2936 C841 1.898 . S
C2971 C169 1.357 . S
C2986 C318 1.342 . S
C3021 C161 1.912 . S
C3036 C641 1.918 . S
C3071 C234 2.471 . S
C3086 C522 2.422 . S
C3121 C226 0.489 . S
C3136 C731 0.430 . S
C3186 C838 1.172 . S
C3171 C247 1.206 . S
C3221 C195 1.452 . S
C3236 C398 1.430 . S
C3286 C441 2.145 . S
C3271 C239 2.141 . S
C3336 C371 0.413 . S
C3321 C187 0.280 . S
C3371 C75 2.257 . S
C3386 C882 2.217 . S
C3436 C810 2.076 . S
C3421 C83 2.048 . S
C3471 C99 1.064 . S
C3486 C922 1.085 . S
C3521 C52 1.331 . S
C3536 C767 1.361 . S
C3571 C47 1.162 . S
C3586 C647 1.191 . S
C3636 C678 0.269 . S
C3621 C5 0.383 . S
C3686 C730 1.225 . S
C3671 C23 1.216 . S
C3736 C842 1.611 . S
C3721 C26 1.595 . S
C3786 C890 2.436 . S
C3771 C244 2.456 . S
C3821 C177 0.388 . S
C3836 C807 0.333 . S
C3886 C930 1.346 . S
C3871 C192 1.361 . S
C3936 C762 1.156 . S
C3921 C203 1.118 . S
C3986 C642 1.701 . S
C3971 C242 1.628 . S
C4021 C179 1.486 . S
C4036 C681 1.457 . S
C4086 C727 0.270 . S
C4071 C190 0.368 . S
C4121 C205 1.996 . S
C4136 C850 1.967 . S
C4186 C887 1.381 . S
C4171 C286 1.337 . S
C4221 C122 1.985 . S
C4236 C490 2.013 . S
C4286 C531 2.488 . S
C4271 C130 2.529 . S
C4336 C562 0.583 . S
C4321 C148 0.605 . S
C4386 C847 1.173 . S
C4371 C273 1.142 . S
C4421 C260 1.427 . S
C4436 C927 1.465 . S
C4486 C450 2.248 . S
C4471 C135 2.226 . S
C4536 C362 0.413 . S
C4521 C109 0.343 . S
C4571 C86 2.204 . S
C4586 C891 2.174 . S
C4636 C361 1.966 . S
C4621 C70 1.967 . S
C4671 C62 0.969 . S
C4686 C931 0.951 . S
C4721 C91 1.274 . S
C4736 C438 1.280 . S
C4771 C36 1.160 . S
C4786 C638 1.142 . S
C4836 C527 0.235 . S
C4821 C18 0.372 . S
C4871 C8 1.033 . S
C4886 C721 1.086 . S
C4921 C39 1.629 . S
C4936 C611 1.564 . S
C4986 C881 2.366 . S
C4971 C307 2.324 . S
C5021 C153 0.235 . S
C5036 C358 0.346 . S
C5086 C921 1.253 . S
C5071 C281 1.235 . S
C5121 C127 1.052 . S
C5136 C451 1.035 . S
C5171 C309 1.623 . S
C5186 C651 1.598 . S
C5236 C530 1.404 . S
C5221 C151 1.401 . S
C5271 C283 0.159 . S
C5286 C718 0.317 . S
C5336 C601 1.897 . S
C5321 C125 1.882 . S
C5386 C878 1.342 . S
C5371 C221 1.358 . S
C5436 C481 1.878 1_655 S
C5421 C200 1.912 . S
C5471 C208 2.472 . S
C5486 C682 2.422 . S
C5536 C571 0.429 . S
C5521 C174 0.491 . S
C5571 C182 1.206 . S
C5586 C598 1.171 . S
C5621 C156 1.452 . S
C5636 C918 1.430 . S
C5686 C761 2.146 . S
C5671 C213 2.142 1_565 S
C5736 C811 0.410 . S
C5721 C252 0.284 . S
