# Generated by pormake.
# Topology iac, (4,6)-cn, num edge types: 1
# Building blocks:
#     Node 0, Type 0, BuildingBlock: NAHDIM_clean_sbu_0, # of connection points: 4
#     Node 1, Type 0, BuildingBlock: NAHDIM_clean_sbu_0, # of connection points: 4
#     Node 2, Type 0, BuildingBlock: NAHDIM_clean_sbu_0, # of connection points: 4
#     Node 3, Type 0, BuildingBlock: NAHDIM_clean_sbu_0, # of connection points: 4
#     Node 4, Type 0, BuildingBlock: NAHDIM_clean_sbu_0, # of connection points: 4
#     Node 5, Type 0, BuildingBlock: NAHDIM_clean_sbu_0, # of connection points: 4
#     Node 6, Type 0, BuildingBlock: NAHDIM_clean_sbu_0, # of connection points: 4
#     Node 7, Type 0, BuildingBlock: NAHDIM_clean_sbu_0, # of connection points: 4
#     Node 8, Type 0, BuildingBlock: NAHDIM_clean_sbu_0, # of connection points: 4
#     Node 9, Type 0, BuildingBlock: NAHDIM_clean_sbu_0, # of connection points: 4
#     Node 10, Type 0, BuildingBlock: NAHDIM_clean_sbu_0, # of connection points: 4
#     Node 11, Type 0, BuildingBlock: NAHDIM_clean_sbu_0, # of connection points: 4
#     Node 12, Type 0, BuildingBlock: NAHDIM_clean_sbu_0, # of connection points: 4
#     Node 13, Type 0, BuildingBlock: NAHDIM_clean_sbu_0, # of connection points: 4
#     Node 14, Type 0, BuildingBlock: NAHDIM_clean_sbu_0, # of connection points: 4
#     Node 15, Type 0, BuildingBlock: NAHDIM_clean_sbu_0, # of connection points: 4
#     Node 16, Type 0, BuildingBlock: NAHDIM_clean_sbu_0, # of connection points: 4
#     Node 17, Type 0, BuildingBlock: NAHDIM_clean_sbu_0, # of connection points: 4
#     Node 18, Type 0, BuildingBlock: NAHDIM_clean_sbu_0, # of connection points: 4
#     Node 19, Type 0, BuildingBlock: NAHDIM_clean_sbu_0, # of connection points: 4
#     Node 20, Type 0, BuildingBlock: NAHDIM_clean_sbu_0, # of connection points: 4
#     Node 21, Type 0, BuildingBlock: NAHDIM_clean_sbu_0, # of connection points: 4
#     Node 22, Type 0, BuildingBlock: NAHDIM_clean_sbu_0, # of connection points: 4
#     Node 23, Type 0, BuildingBlock: NAHDIM_clean_sbu_0, # of connection points: 4
#     Node 24, Type 1, BuildingBlock: LEVNOQ01_clean_sbu_1, # of connection points: 6
#     Node 25, Type 1, BuildingBlock: LEVNOQ01_clean_sbu_1, # of connection points: 6
#     Node 26, Type 1, BuildingBlock: LEVNOQ01_clean_sbu_1, # of connection points: 6
#     Node 27, Type 1, BuildingBlock: LEVNOQ01_clean_sbu_1, # of connection points: 6
#     Node 28, Type 1, BuildingBlock: LEVNOQ01_clean_sbu_1, # of connection points: 6
#     Node 29, Type 1, BuildingBlock: LEVNOQ01_clean_sbu_1, # of connection points: 6
#     Node 30, Type 1, BuildingBlock: LEVNOQ01_clean_sbu_1, # of connection points: 6
#     Node 31, Type 1, BuildingBlock: LEVNOQ01_clean_sbu_1, # of connection points: 6
#     Node 32, Type 1, BuildingBlock: LEVNOQ01_clean_sbu_1, # of connection points: 6
#     Node 33, Type 1, BuildingBlock: LEVNOQ01_clean_sbu_1, # of connection points: 6
#     Node 34, Type 1, BuildingBlock: LEVNOQ01_clean_sbu_1, # of connection points: 6
#     Node 35, Type 1, BuildingBlock: LEVNOQ01_clean_sbu_1, # of connection points: 6
#     Node 36, Type 1, BuildingBlock: LEVNOQ01_clean_sbu_1, # of connection points: 6
#     Node 37, Type 1, BuildingBlock: LEVNOQ01_clean_sbu_1, # of connection points: 6
#     Node 38, Type 1, BuildingBlock: LEVNOQ01_clean_sbu_1, # of connection points: 6
#     Node 39, Type 1, BuildingBlock: LEVNOQ01_clean_sbu_1, # of connection points: 6
#     Edge 40, Type (0, 1), BuildingBlock: EZIPEK_clean_linker_0, # of connection points: 2
#     Edge 41, Type (0, 1), BuildingBlock: EZIPEK_clean_linker_0, # of connection points: 2
#     Edge 42, Type (0, 1), BuildingBlock: EZIPEK_clean_linker_0, # of connection points: 2
#     Edge 43, Type (0, 1), BuildingBlock: EZIPEK_clean_linker_0, # of connection points: 2
#     Edge 44, Type (0, 1), BuildingBlock: EZIPEK_clean_linker_0, # of connection points: 2
#     Edge 45, Type (0, 1), BuildingBlock: EZIPEK_clean_linker_0, # of connection points: 2
#     Edge 46, Type (0, 1), BuildingBlock: EZIPEK_clean_linker_0, # of connection points: 2
#     Edge 47, Type (0, 1), BuildingBlock: EZIPEK_clean_linker_0, # of connection points: 2
#     Edge 48, Type (0, 1), BuildingBlock: EZIPEK_clean_linker_0, # of connection points: 2
#     Edge 49, Type (0, 1), BuildingBlock: EZIPEK_clean_linker_0, # of connection points: 2
#     Edge 50, Type (0, 1), BuildingBlock: EZIPEK_clean_linker_0, # of connection points: 2
#     Edge 51, Type (0, 1), BuildingBlock: EZIPEK_clean_linker_0, # of connection points: 2
#     Edge 52, Type (0, 1), BuildingBlock: EZIPEK_clean_linker_0, # of connection points: 2
#     Edge 53, Type (0, 1), BuildingBlock: EZIPEK_clean_linker_0, # of connection points: 2
#     Edge 54, Type (0, 1), BuildingBlock: EZIPEK_clean_linker_0, # of connection points: 2
#     Edge 55, Type (0, 1), BuildingBlock: EZIPEK_clean_linker_0, # of connection points: 2
#     Edge 56, Type (0, 1), BuildingBlock: EZIPEK_clean_linker_0, # of connection points: 2
#     Edge 57, Type (0, 1), BuildingBlock: EZIPEK_clean_linker_0, # of connection points: 2
#     Edge 58, Type (0, 1), BuildingBlock: EZIPEK_clean_linker_0, # of connection points: 2
#     Edge 59, Type (0, 1), BuildingBlock: EZIPEK_clean_linker_0, # of connection points: 2
#     Edge 60, Type (0, 1), BuildingBlock: EZIPEK_clean_linker_0, # of connection points: 2
#     Edge 61, Type (0, 1), BuildingBlock: EZIPEK_clean_linker_0, # of connection points: 2
#     Edge 62, Type (0, 1), BuildingBlock: EZIPEK_clean_linker_0, # of connection points: 2
#     Edge 63, Type (0, 1), BuildingBlock: EZIPEK_clean_linker_0, # of connection points: 2
#     Edge 64, Type (0, 1), BuildingBlock: EZIPEK_clean_linker_0, # of connection points: 2
#     Edge 65, Type (0, 1), BuildingBlock: EZIPEK_clean_linker_0, # of connection points: 2
#     Edge 66, Type (0, 1), BuildingBlock: EZIPEK_clean_linker_0, # of connection points: 2
#     Edge 67, Type (0, 1), BuildingBlock: EZIPEK_clean_linker_0, # of connection points: 2
#     Edge 68, Type (0, 1), BuildingBlock: EZIPEK_clean_linker_0, # of connection points: 2
#     Edge 69, Type (0, 1), BuildingBlock: EZIPEK_clean_linker_0, # of connection points: 2
#     Edge 70, Type (0, 1), BuildingBlock: EZIPEK_clean_linker_0, # of connection points: 2
#     Edge 71, Type (0, 1), BuildingBlock: EZIPEK_clean_linker_0, # of connection points: 2
#     Edge 72, Type (0, 1), BuildingBlock: EZIPEK_clean_linker_0, # of connection points: 2
#     Edge 73, Type (0, 1), BuildingBlock: EZIPEK_clean_linker_0, # of connection points: 2
#     Edge 74, Type (0, 1), BuildingBlock: EZIPEK_clean_linker_0, # of connection points: 2
#     Edge 75, Type (0, 1), BuildingBlock: EZIPEK_clean_linker_0, # of connection points: 2
#     Edge 76, Type (0, 1), BuildingBlock: EZIPEK_clean_linker_0, # of connection points: 2
#     Edge 77, Type (0, 1), BuildingBlock: EZIPEK_clean_linker_0, # of connection points: 2
#     Edge 78, Type (0, 1), BuildingBlock: EZIPEK_clean_linker_0, # of connection points: 2
#     Edge 79, Type (0, 1), BuildingBlock: EZIPEK_clean_linker_0, # of connection points: 2
#     Edge 80, Type (0, 1), BuildingBlock: EZIPEK_clean_linker_0, # of connection points: 2
#     Edge 81, Type (0, 1), BuildingBlock: EZIPEK_clean_linker_0, # of connection points: 2
#     Edge 82, Type (0, 1), BuildingBlock: EZIPEK_clean_linker_0, # of connection points: 2
#     Edge 83, Type (0, 1), BuildingBlock: EZIPEK_clean_linker_0, # of connection points: 2
#     Edge 84, Type (0, 1), BuildingBlock: EZIPEK_clean_linker_0, # of connection points: 2
#     Edge 85, Type (0, 1), BuildingBlock: EZIPEK_clean_linker_0, # of connection points: 2
#     Edge 86, Type (0, 1), BuildingBlock: EZIPEK_clean_linker_0, # of connection points: 2
#     Edge 87, Type (0, 1), BuildingBlock: EZIPEK_clean_linker_0, # of connection points: 2
#     Edge 88, Type (0, 1), BuildingBlock: EZIPEK_clean_linker_0, # of connection points: 2
#     Edge 89, Type (0, 1), BuildingBlock: EZIPEK_clean_linker_0, # of connection points: 2
#     Edge 90, Type (0, 1), BuildingBlock: EZIPEK_clean_linker_0, # of connection points: 2
#     Edge 91, Type (0, 1), BuildingBlock: EZIPEK_clean_linker_0, # of connection points: 2
#     Edge 92, Type (0, 1), BuildingBlock: EZIPEK_clean_linker_0, # of connection points: 2
#     Edge 93, Type (0, 1), BuildingBlock: EZIPEK_clean_linker_0, # of connection points: 2
#     Edge 94, Type (0, 1), BuildingBlock: EZIPEK_clean_linker_0, # of connection points: 2
#     Edge 95, Type (0, 1), BuildingBlock: EZIPEK_clean_linker_0, # of connection points: 2
#     Edge 96, Type (0, 1), BuildingBlock: EZIPEK_clean_linker_0, # of connection points: 2
#     Edge 97, Type (0, 1), BuildingBlock: EZIPEK_clean_linker_0, # of connection points: 2
#     Edge 98, Type (0, 1), BuildingBlock: EZIPEK_clean_linker_0, # of connection points: 2
#     Edge 99, Type (0, 1), BuildingBlock: EZIPEK_clean_linker_0, # of connection points: 2
#     Edge 100, Type (0, 1), BuildingBlock: EZIPEK_clean_linker_0, # of connection points: 2
#     Edge 101, Type (0, 1), BuildingBlock: EZIPEK_clean_linker_0, # of connection points: 2
#     Edge 102, Type (0, 1), BuildingBlock: EZIPEK_clean_linker_0, # of connection points: 2
#     Edge 103, Type (0, 1), BuildingBlock: EZIPEK_clean_linker_0, # of connection points: 2
#     Edge 104, Type (0, 1), BuildingBlock: EZIPEK_clean_linker_0, # of connection points: 2
#     Edge 105, Type (0, 1), BuildingBlock: EZIPEK_clean_linker_0, # of connection points: 2
#     Edge 106, Type (0, 1), BuildingBlock: EZIPEK_clean_linker_0, # of connection points: 2
#     Edge 107, Type (0, 1), BuildingBlock: EZIPEK_clean_linker_0, # of connection points: 2
#     Edge 108, Type (0, 1), BuildingBlock: EZIPEK_clean_linker_0, # of connection points: 2
#     Edge 109, Type (0, 1), BuildingBlock: EZIPEK_clean_linker_0, # of connection points: 2
#     Edge 110, Type (0, 1), BuildingBlock: EZIPEK_clean_linker_0, # of connection points: 2
#     Edge 111, Type (0, 1), BuildingBlock: EZIPEK_clean_linker_0, # of connection points: 2
#     Edge 112, Type (0, 1), BuildingBlock: EZIPEK_clean_linker_0, # of connection points: 2
#     Edge 113, Type (0, 1), BuildingBlock: EZIPEK_clean_linker_0, # of connection points: 2
#     Edge 114, Type (0, 1), BuildingBlock: EZIPEK_clean_linker_0, # of connection points: 2
#     Edge 115, Type (0, 1), BuildingBlock: EZIPEK_clean_linker_0, # of connection points: 2
#     Edge 116, Type (0, 1), BuildingBlock: EZIPEK_clean_linker_0, # of connection points: 2
#     Edge 117, Type (0, 1), BuildingBlock: EZIPEK_clean_linker_0, # of connection points: 2
#     Edge 118, Type (0, 1), BuildingBlock: EZIPEK_clean_linker_0, # of connection points: 2
#     Edge 119, Type (0, 1), BuildingBlock: EZIPEK_clean_linker_0, # of connection points: 2
#     Edge 120, Type (0, 1), BuildingBlock: EZIPEK_clean_linker_0, # of connection points: 2
#     Edge 121, Type (0, 1), BuildingBlock: EZIPEK_clean_linker_0, # of connection points: 2
#     Edge 122, Type (0, 1), BuildingBlock: EZIPEK_clean_linker_0, # of connection points: 2
#     Edge 123, Type (0, 1), BuildingBlock: EZIPEK_clean_linker_0, # of connection points: 2
#     Edge 124, Type (0, 1), BuildingBlock: EZIPEK_clean_linker_0, # of connection points: 2
#     Edge 125, Type (0, 1), BuildingBlock: EZIPEK_clean_linker_0, # of connection points: 2
#     Edge 126, Type (0, 1), BuildingBlock: EZIPEK_clean_linker_0, # of connection points: 2
#     Edge 127, Type (0, 1), BuildingBlock: EZIPEK_clean_linker_0, # of connection points: 2
#     Edge 128, Type (0, 1), BuildingBlock: EZIPEK_clean_linker_0, # of connection points: 2
#     Edge 129, Type (0, 1), BuildingBlock: EZIPEK_clean_linker_0, # of connection points: 2
#     Edge 130, Type (0, 1), BuildingBlock: EZIPEK_clean_linker_0, # of connection points: 2
#     Edge 131, Type (0, 1), BuildingBlock: EZIPEK_clean_linker_0, # of connection points: 2
#     Edge 132, Type (0, 1), BuildingBlock: EZIPEK_clean_linker_0, # of connection points: 2
#     Edge 133, Type (0, 1), BuildingBlock: EZIPEK_clean_linker_0, # of connection points: 2
#     Edge 134, Type (0, 1), BuildingBlock: EZIPEK_clean_linker_0, # of connection points: 2
#     Edge 135, Type (0, 1), BuildingBlock: EZIPEK_clean_linker_0, # of connection points: 2
# Relax obj value: 0.107
# Max RMSD: 0.166
# Mean RMSD: 0.130
data_MOF--net-iac--node1-NAHDIM_clean_sbu_0--node2-LEVNOQ01_clean_sbu_1--edge1-EZIPEK_clean_linker_0
_symmetry_space_group_name_H-M    P1
_symmetry_Int_Tables_number       1
_symmetry_cell_setting            triclinic
loop_
_symmetry_equiv_pos_as_xyz
'x, y, z'
_cell_length_a     41.472921
_cell_length_b     39.990533
_cell_length_c     39.064684
_cell_angle_alpha  89.872785
_cell_angle_beta   90.27941
_cell_angle_gamma 90.746971
loop_
_atom_site_label
_atom_site_type_symbol
_atom_site_fract_x
_atom_site_fract_y
_atom_site_fract_z
_atom_type_partial_charge
C0 C 0.91409 0.26781 0.12668 0.0
O1 O 0.91954 0.28544 0.09888 0.0
O2 O 0.98607 0.19967 0.10005 0.0
Zn3 Zn 0.9807 0.2452 0.12098 0.0
O4 O 0.98321 0.27921 0.08378 0.0
C5 C 0.04171 0.24386 0.15696 0.0
O6 O 0.05051 0.22908 0.12864 0.0
O7 O 0.93599 0.24956 0.13961 0.0
C8 C 0.00166 0.30455 0.08526 0.0
O9 O 0.02201 0.30784 0.11087 0.0
C10 C 0.00544 0.19438 0.07555 0.0
O11 O 0.02418 0.21871 0.0643 0.0
O12 O 0.01271 0.25318 0.16004 0.0
C13 C 0.0572 0.75366 0.32266 0.0
O14 O 0.05964 0.78234 0.33885 0.0
O15 O -0.00029 0.70086 0.39476 0.0
Zn16 Zn -0.00122 0.73973 0.36244 0.0
O17 O 0.0028 0.78326 0.38761 0.0
C18 C 0.93133 0.7308 0.34955 0.0
O19 O 0.93093 0.72 0.38122 0.0
O20 O 0.03402 0.73365 0.329 0.0
C21 C 0.97693 0.79625 0.39829 0.0
O22 O 0.94958 0.78022 0.39464 0.0
C23 C -0.01114 0.70114 0.42509 0.0
O24 O 0.97663 0.72852 0.43776 0.0
O25 O 0.95767 0.73951 0.33561 0.0
C26 C 0.41714 0.75752 0.63118 0.0
O27 O 0.42124 0.76275 0.59829 0.0
O28 O 0.49375 0.70847 0.61053 0.0
Zn29 Zn 0.485 0.75415 0.62974 0.0
O30 O 0.48223 0.79065 0.595 0.0
C31 C 0.54808 0.75602 0.6552 0.0
O32 O 0.552 0.74038 0.62607 0.0
O33 O 0.44137 0.75311 0.65072 0.0
C34 C 0.50418 0.79983 0.57458 0.0
O35 O 0.53094 0.78281 0.57258 0.0
C36 C 0.48626 0.70007 0.58024 0.0
O37 O 0.47389 0.72232 0.55937 0.0
O38 O 0.52013 0.76542 0.66383 0.0
C39 C 0.53501 0.23071 0.80388 0.0
O40 O 0.50833 0.22056 0.78868 0.0
O41 O 0.49704 0.20583 0.8998 0.0
Zn42 Zn 0.49415 0.24066 0.86306 0.0
O43 O 0.48902 0.28566 0.88354 0.0
C44 C 0.43025 0.21693 0.84549 0.0
O45 O 0.4321 0.19708 0.87218 0.0
O46 O 0.53421 0.24063 0.83471 0.0
C47 C 0.46639 0.30526 0.87519 0.0
O48 O 0.44532 0.29693 0.85143 0.0
C49 C 0.48595 0.20897 0.92987 0.0
O50 O 0.47205 0.23682 0.93913 0.0
O51 O 0.45494 0.23296 0.83517 0.0
C52 C 0.14177 0.92756 0.25662 0.0
O53 O 0.11355 0.92989 0.27131 0.0
O54 O 0.09466 0.99034 0.2102 0.0
Zn55 Zn 0.12904 -0.00633 0.24652 0.0
O56 O 0.11359 0.99068 0.29411 0.0
C57 C 0.14223 0.06116 0.22563 0.0
O58 O 0.11468 0.05804 0.20924 0.0
O59 O 0.15509 0.95306 0.2429 0.0
C60 C 0.08864 0.00482 0.30459 0.0
O61 O 0.07245 0.02471 0.28422 0.0
C62 C 0.06518 0.98142 0.21153 0.0
O63 O 0.05161 0.97394 0.2408 0.0
O64 O 0.15399 0.03636 0.24154 0.0
C65 C 0.19167 0.92941 0.51774 0.0
O66 O 0.19413 0.91419 0.54741 0.0
O67 O 0.2356 0.86105 0.54312 0.0
Zn68 Zn 0.24115 0.88499 0.49871 0.0
O69 O 0.23118 0.85441 0.45981 0.0
C70 C 0.3099 0.88751 0.50309 0.0
O71 O 0.30712 0.85742 0.51623 0.0
O72 O 0.21104 0.9226 0.49395 0.0
C73 C 0.25384 0.84013 0.44417 0.0
O74 O 0.28322 0.84212 0.45615 0.0
C75 C 0.24034 0.82993 0.54645 0.0
O76 O 0.2495 0.81208 0.52016 0.0
O77 O 0.28519 0.90388 0.49459 0.0
C78 C 0.33181 0.05488 0.75636 0.0
O79 O 0.34167 0.04738 0.7874 0.0
O80 O 0.4049 0.004 0.69931 0.0
Zn81 Zn 0.37204 0.00025 0.73602 0.0
O82 O 0.3937 0.00207 0.78095 0.0
C83 C 0.36259 0.92891 0.72674 0.0
O84 O 0.39041 0.92843 0.7109 0.0
O85 O 0.34027 0.037 0.73121 0.0
C86 C 0.41425 0.97938 0.78606 0.0
O87 O 0.42215 0.95952 0.76095 0.0
C88 C 0.43112 0.02011 0.70405 0.0
O89 O 0.4372 0.03454 0.73359 0.0
O90 O 0.35004 0.95623 0.73584 0.0
C91 C 0.31321 0.10349 0.97639 0.0
O92 O 0.3098 0.136 0.97463 0.0
O93 O 0.25216 0.12033 0.04333 0.0
Zn94 Zn 0.24834 0.10699 -0.00514 0.0
O95 O 0.245 0.14489 0.96309 0.0
C96 C 0.18255 0.09525 0.99084 0.0
O97 O 0.1834 0.12693 -0.00047 0.0
O98 O 0.28894 0.08498 0.98353 0.0
C99 C 0.24389 0.13511 0.9323 0.0
O100 O 0.24418 0.10301 0.92531 0.0
C101 C 0.25042 0.15078 0.05154 0.0
O102 O 0.24614 0.17366 0.02787 0.0
O103 O 0.20868 0.0792 0.98839 0.0
C104 C 0.69485 0.44175 0.00664 0.0
O105 O 0.72198 0.45034 0.02191 0.0
O106 O 0.72686 0.36064 0.0381 0.0
Zn107 Zn 0.73011 0.38364 -0.00711 0.0
O108 O 0.72876 0.35151 0.95435 0.0
C109 C 0.79693 0.39863 0.00279 0.0
O110 O 0.79617 0.37064 0.02029 0.0
O111 O 0.69294 0.41427 0.99058 0.0
C112 C 0.75496 0.33841 0.94482 0.0
O113 O 0.78121 0.34281 0.96288 0.0
C114 C 0.73542 0.33089 0.04416 0.0
O115 O 0.74637 0.31214 0.01939 0.0
O116 O 0.77138 0.41001 0.98942 0.0
C117 C 0.82293 0.55019 0.23888 0.0
O118 O 0.84588 0.56024 0.25985 0.0
O119 O 0.89857 0.50652 0.20675 0.0
Zn120 Zn 0.8623 0.49461 0.23779 0.0
O121 O 0.87431 0.50205 0.28646 0.0
C122 C 0.86899 0.42361 0.22261 0.0
O123 O 0.89851 0.42909 0.21184 0.0
O124 O 0.82404 0.52134 0.22575 0.0
C125 C 0.89095 0.47953 0.30061 0.0
O126 O 0.89692 0.45189 0.28402 0.0
C127 C 0.92844 0.50387 0.21337 0.0
O128 O 0.93829 0.49391 0.24362 0.0
O129 O 0.85133 0.44742 0.23231 0.0
C130 C 0.81961 0.59428 0.46579 0.0
O131 O 0.81821 0.62404 0.45167 0.0
O132 O 0.76533 0.62631 0.54255 0.0
Zn133 Zn 0.75793 0.61083 0.49487 0.0
O134 O 0.75981 0.65073 0.4646 0.0
C135 C 0.68836 0.5955 0.50141 0.0
O136 O 0.68756 0.62189 0.5212 0.0
O137 O 0.79603 0.58296 0.48325 0.0
C138 C 0.74095 0.65113 0.43916 0.0
O139 O 0.72032 0.62638 0.43454 0.0
C140 C 0.75165 0.65301 0.55142 0.0
O141 O 0.73293 0.66832 0.52934 0.0
O142 O 0.71512 0.58564 0.48938 0.0
C143 C 0.64032 0.43056 0.74984 0.0
O144 O 0.61018 0.4308 0.75987 0.0
O145 O 0.58951 0.48948 0.70657 0.0
Zn146 Zn 0.6239 0.49458 0.74205 0.0
O147 O 0.60956 0.48954 0.78977 0.0
C148 C 0.62738 0.5638 0.72697 0.0
O149 O 0.5975 0.55887 0.71676 0.0
O150 O 0.65359 0.45701 0.73814 0.0
C151 C 0.58345 0.50068 0.80091 0.0
O152 O 0.56439 0.51783 0.78073 0.0
C153 C 0.56134 0.47687 0.70802 0.0
O154 O 0.55004 0.46435 0.73664 0.0
O155 O 0.64422 0.53939 0.73724 0.0
C156 C 0.05969 0.74762 0.84889 0.0
O157 O 0.06112 0.75116 0.8823 0.0
O158 O -0.00325 0.70326 0.88665 0.0
Zn159 Zn -0.00618 0.74638 0.86171 0.0
O160 O -0.00749 0.78794 0.89126 0.0
C161 C 0.93198 0.73061 0.83774 0.0
O162 O 0.93007 0.71707 0.86828 0.0
O163 O 0.03254 0.74563 0.8342 0.0
C164 C 0.9672 0.79987 0.90463 0.0
O165 O 0.93932 0.78441 0.90078 0.0
C166 C 0.98665 0.69757 0.91654 0.0
O167 O 0.9745 0.72202 0.93456 0.0
O168 O 0.95743 0.74585 0.82873 0.0
C169 C 0.9381 0.252 0.66116 0.0
O170 O 0.93531 0.25307 0.62764 0.0
O171 O -0.00652 0.19969 0.61923 0.0
Zn172 Zn -0.00044 0.24475 0.63883 0.0
O173 O -0.00459 0.28149 0.60396 0.0
C174 C 0.0662 0.23315 0.64679 0.0
O175 O 0.06377 0.21851 0.61688 0.0
O176 O 0.96583 0.24896 0.67436 0.0
C177 C 0.01578 0.29147 0.58177 0.0
O178 O 0.04396 0.27715 0.57936 0.0
C179 C -0.00188 0.19524 0.58768 0.0
O180 O 0.00438 0.22073 0.56756 0.0
O181 O 0.04211 0.24687 0.66043 0.0
C182 C 0.56523 0.25075 0.34592 0.0
O183 O 0.56651 0.25586 0.37912 0.0
O184 O 0.49908 0.20188 0.3814 0.0
Zn185 Zn 0.49867 0.24677 0.35934 0.0
O186 O 0.49855 0.28659 0.39158 0.0
C187 C 0.43431 0.23865 0.33781 0.0
O188 O 0.43216 0.22526 0.36841 0.0
O189 O 0.53809 0.2465 0.33152 0.0
C190 C 0.47463 0.29634 0.40912 0.0
O191 O 0.44742 0.27926 0.40878 0.0
C192 C 0.49254 0.1948 0.41216 0.0
O193 O 0.48615 0.21884 0.43384 0.0
O194 O 0.46109 0.25019 0.3274 0.0
C195 C 0.43968 0.76067 0.15835 0.0
O196 O 0.43583 0.75956 0.12497 0.0
O197 O 0.48861 0.69957 0.11831 0.0
Zn198 Zn 0.49842 0.74547 0.13447 0.0
O199 O 0.49438 0.77889 0.09676 0.0
C200 C 0.56269 0.73258 0.13141 0.0
O201 O 0.55468 0.72645 0.09949 0.0
O202 O 0.46732 0.75567 0.17108 0.0
C203 C 0.51442 0.80225 0.09036 0.0
O204 O 0.54151 0.8044 0.10777 0.0
C205 C 0.48989 0.69392 0.08652 0.0
O206 O 0.49403 0.71875 0.06489 0.0
O207 O 0.54219 0.74399 0.1521 0.0
C208 C 0.84759 0.06907 0.73027 0.0
O209 O 0.87845 0.07634 0.72893 0.0
O210 O 0.89229 -0.00224 0.69883 0.0
Zn211 Zn 0.86699 0.00183 0.74091 0.0
O212 O 0.89507 0.00845 0.78156 0.0
C213 C 0.84636 0.93406 0.73741 0.0
O214 O 0.87407 0.93016 0.72189 0.0
O215 O 0.83801 0.03927 0.73487 0.0
C216 C 0.91982 0.99065 0.78597 0.0
O217 O 0.92733 0.96788 0.76331 0.0
C218 C 0.91741 0.01559 0.69444 0.0
O219 O 0.9277 0.03598 0.71851 0.0
O220 O 0.83879 0.96246 0.74874 0.0
C221 C 0.79473 0.07771 0.48685 0.0
O222 O 0.79982 0.11012 0.48934 0.0
O223 O 0.74827 0.12352 0.5418 0.0
Zn224 Zn 0.73765 0.10454 0.49654 0.0
O225 O 0.74577 0.13665 0.45852 0.0
C226 C 0.67296 0.11105 0.5138 0.0
O227 O 0.6836 0.13868 0.52821 0.0
O228 O 0.76629 0.06609 0.4895 0.0
C229 C 0.72899 0.16098 0.44814 0.0
O230 O 0.70184 0.16834 0.46327 0.0
C231 C 0.75349 0.15453 0.54451 0.0
O232 O 0.75528 0.17291 0.51673 0.0
O233 O 0.69192 0.09197 0.49787 0.0
C234 C 0.65462 0.94266 0.25572 0.0
O235 O 0.62404 0.9366 0.26202 0.0
O236 O 0.60865 0.00703 0.19887 0.0
Zn237 Zn 0.62897 0.00561 0.24512 0.0
O238 O 0.59614 -0.00194 0.28215 0.0
C239 C 0.63405 0.07568 0.24813 0.0
O240 O 0.60279 0.07474 0.24323 0.0
O241 O 0.66353 0.97168 0.24671 0.0
C242 C 0.56701 0.00751 0.28107 0.0
O243 O 0.55594 0.02385 0.25443 0.0
C244 C 0.58424 0.98867 0.1928 0.0
O245 O 0.57536 0.96599 0.21532 0.0
O246 O 0.64977 0.04897 0.25148 0.0
C247 C 0.6725 0.90725 0.00385 0.0
O248 O 0.67006 0.8748 0.00876 0.0
O249 O 0.72338 0.86617 0.05326 0.0
Zn250 Zn 0.73349 0.88832 0.0096 0.0
O251 O 0.72993 0.85572 0.97146 0.0
C252 C 0.80112 0.88997 0.02065 0.0
O253 O 0.79613 0.8581 0.02689 0.0
O254 O 0.70005 0.92132 0.00329 0.0
C255 C 0.73887 0.86297 0.94135 0.0
O256 O 0.75158 0.89252 0.93473 0.0
C257 C 0.7306 0.83585 0.05717 0.0
O258 O 0.74062 0.81859 0.03079 0.0
O259 O 0.77775 0.90854 0.0122 0.0
C260 C 0.29549 0.57082 0.98125 0.0
O261 O 0.29961 0.60343 0.98264 0.0
O262 O 0.24951 0.61205 0.04179 0.0
Zn263 Zn 0.23759 0.59522 -0.00429 0.0
O264 O 0.24347 0.63096 0.96074 0.0
C265 C 0.1738 0.60206 0.01273 0.0
O266 O 0.18466 0.63198 0.02072 0.0
O267 O 0.26753 0.55839 0.98556 0.0
C268 C 0.22273 0.64561 0.94234 0.0
O269 O 0.19206 0.63744 0.94453 0.0
C270 C 0.25084 0.64339 0.04567 0.0
O271 O 0.24868 0.66319 0.01897 0.0
O272 O 0.19231 0.58098 -0.00102 0.0
C273 C 0.15739 0.44751 0.76027 0.0
O274 O 0.12823 0.43504 0.75566 0.0
O275 O 0.10519 0.49373 0.70532 0.0
Zn276 Zn 0.12206 0.50458 0.75163 0.0
O277 O 0.08964 0.49705 0.78903 0.0
C278 C 0.1377 0.56779 0.72237 0.0
O279 O 0.12572 0.55524 0.69395 0.0
O280 O 0.1616 0.4788 0.75997 0.0
C281 C 0.06556 0.51605 0.79229 0.0
O282 O 0.06146 0.54099 0.77089 0.0
C283 C 0.07632 0.48431 0.70094 0.0
O284 O 0.05809 0.47765 0.72735 0.0
O285 O 0.13633 0.55151 0.75023 0.0
C286 C 0.16714 0.40246 0.52752 0.0
O287 O 0.16843 0.37113 0.53725 0.0
O288 O 0.23731 0.35814 0.54608 0.0
Zn289 Zn 0.23166 0.38963 0.50803 0.0
O290 O 0.22262 0.36277 0.46658 0.0
C291 C 0.29904 0.39781 0.50955 0.0
O292 O 0.29634 0.36523 0.5131 0.0
O293 O 0.19224 0.41705 0.51586 0.0
C294 C 0.23881 0.36189 0.43921 0.0
O295 O 0.26482 0.38061 0.43569 0.0
C296 C 0.22605 0.32868 0.54923 0.0
O297 O 0.20651 0.31608 0.5259 0.0
O298 O 0.27376 0.41523 0.50558 0.0
C299 C 0.35331 0.56654 0.24905 0.0
O300 O 0.38297 0.56886 0.26074 0.0
O301 O 0.39401 0.49569 0.19605 0.0
Zn302 Zn 0.36988 0.49896 0.2393 0.0
O303 O 0.39964 0.50309 0.27886 0.0
C304 C 0.34865 0.43004 0.23713 0.0
O305 O 0.37739 0.42477 0.2244 0.0
O306 O 0.34273 0.53905 0.23713 0.0
C307 C 0.42555 0.4869 0.28171 0.0
O308 O 0.43378 0.46535 0.25811 0.0
C309 C 0.41525 0.51739 0.18809 0.0
O310 O 0.42202 0.54238 0.20873 0.0
O311 O 0.34096 0.45932 0.24612 0.0
O312 O 0.93593 0.03006 0.93719 0.0
Mg313 Mg 0.92869 0.03521 0.99031 0.0
O314 O 0.97792 -0.00382 0.94214 0.0
Mg315 Mg -0.00752 0.99086 -0.00108 0.0
O316 O 0.97279 0.04271 0.01229 0.0
O317 O 0.93416 0.08087 0.01356 0.0
O318 O 0.00726 0.98459 0.05534 0.0
O319 O 0.04117 0.01847 0.98966 0.0
Mg320 Mg 0.05608 0.94161 0.00538 0.0
O321 O 0.01165 0.9401 0.98482 0.0
O322 O 0.04806 0.9487 0.05876 0.0
O323 O 0.08006 0.98172 0.98055 0.0
O324 O 0.044 0.89697 0.98034 0.0
C325 C 0.91543 0.96659 0.01557 0.0
C326 C 0.95725 0.01167 0.92402 0.0
C327 C 0.96342 0.07246 0.02039 0.0
C328 C 0.02782 0.96803 0.07263 0.0
C329 C 0.07026 0.01163 0.98212 0.0
C330 C 0.01644 0.91015 0.97402 0.0
O331 O 0.9033 -0.00461 0.0131 0.0
O332 O 0.94532 0.96184 0.01058 0.0
O333 O 0.21806 0.74373 0.32379 0.0
Mg334 Mg 0.22204 0.705 0.28849 0.0
O335 O 0.24778 0.77616 0.29059 0.0
Mg336 Mg 0.24297 0.7496 0.2392 0.0
O337 O 0.26138 0.69827 0.25968 0.0
O338 O 0.24951 0.66847 0.30716 0.0
O339 O 0.24055 0.72504 0.18705 0.0
O340 O 0.29695 0.75907 0.22994 0.0
Mg341 Mg 0.25542 0.80195 0.17282 0.0
O342 O 0.23156 0.79945 0.21721 0.0
O343 O 0.23507 0.76204 0.14465 0.0
O344 O 0.30429 0.79499 0.1867 0.0
O345 O 0.22929 0.84441 0.18437 0.0
C346 C 0.16838 0.71431 0.25207 0.0
C347 C 0.23371 0.77047 0.31877 0.0
C348 C 0.26613 0.67267 0.27959 0.0
C349 C 0.23647 0.73217 0.15559 0.0
C350 C 0.31521 0.77575 0.20983 0.0
C351 C 0.22048 0.82872 0.21167 0.0
O352 O 0.18208 0.68825 0.26217 0.0
O353 O 0.1859 0.74047 0.24656 0.0
O354 O 0.55017 0.96979 0.42645 0.0
Mg355 Mg 0.56271 0.95992 0.47818 0.0
O356 O 0.50208 -0.00685 0.43425 0.0
Mg357 Mg 0.4937 -0.00258 0.49246 0.0
O358 O 0.52011 0.94853 0.50065 0.0
O359 O 0.55933 0.91187 0.49873 0.0
O360 O 0.48713 0.00495 0.5512 0.0
O361 O 0.44945 0.96433 0.48805 0.0
Mg362 Mg 0.42573 0.038 0.50812 0.0
O363 O 0.46665 0.0448 0.48198 0.0
O364 O 0.44307 0.03532 0.55876 0.0
O365 O 0.40472 -0.00549 0.48799 0.0
O366 O 0.42853 0.08296 0.48147 0.0
C367 C 0.56726 0.02894 0.50527 0.0
C368 C 0.52476 0.98331 0.41485 0.0
C369 C 0.53006 0.91865 0.50685 0.0
C370 C 0.46812 0.02119 0.57052 0.0
C371 C 0.41914 0.96693 0.48512 0.0
C372 C 0.45692 0.07381 0.47251 0.0
O373 O 0.58228 0.00154 0.50416 0.0
O374 O 0.53733 0.03078 0.49911 0.0
O375 O 0.32698 0.29623 0.7521 0.0
Mg376 Mg 0.31048 0.25813 0.71805 0.0
O377 O 0.29864 0.25954 0.77997 0.0
Mg378 Mg 0.24962 0.25628 0.75253 0.0
O379 O 0.267 0.26899 0.69799 0.0
O380 O 0.31273 0.26864 0.6672 0.0
O381 O 0.19942 0.25094 0.72921 0.0
O382 O 0.24343 0.31319 0.75877 0.0
Mg383 Mg 0.19282 0.27475 0.80809 0.0
O384 O 0.22847 0.24015 0.80332 0.0
O385 O 0.16228 0.25177 0.77081 0.0
O386 O 0.20354 0.32374 0.79437 0.0
O387 O 0.2184 0.26266 0.85263 0.0
C388 C 0.28573 0.18805 0.73923 0.0
C389 C 0.32388 0.27755 0.7778 0.0
C390 C 0.2822 0.27394 0.6695 0.0
C391 C 0.17052 0.24731 0.73978 0.0
C392 C 0.22513 0.33356 0.77397 0.0
C393 C 0.23367 0.24049 0.83569 0.0
O394 O 0.3104 0.20643 0.73317 0.0
O395 O 0.25805 0.20086 0.74296 0.0
O396 O -0.0087 0.90717 0.49978 0.0
Mg397 Mg 0.00757 0.93835 0.53848 0.0
O398 O 0.98301 0.94849 0.46294 0.0
Mg399 Mg -0.00923 -0.00112 0.48964 0.0
O400 O 0.9805 0.97926 0.54413 0.0
O401 O 0.98448 0.93867 0.58365 0.0
O402 O -0.00399 0.05057 0.51321 0.0
O403 O 0.93671 0.00882 0.4841 0.0
Mg404 Mg 0.97645 0.06202 0.43334 0.0
O405 O 0.00011 0.01942 0.43805 0.0
O406 O -0.00157 0.09014 0.47266 0.0
O407 O 0.92821 0.04756 0.44367 0.0
O408 O 0.00256 0.0484 0.39014 0.0
C409 C 0.06528 0.97429 0.51391 0.0
C410 C 0.98389 0.91758 0.47027 0.0
C411 C 0.9748 0.96802 0.57475 0.0
C412 C -0.0004 0.08093 0.5038 0.0
C413 C 0.91801 0.02699 0.46614 0.0
C414 C 0.01183 0.02321 0.40807 0.0
O415 O 0.05537 0.9543 0.53682 0.0
O416 O 0.04585 0.98978 0.49426 0.0
O417 O 0.30463 0.70966 0.81634 0.0
Mg418 Mg 0.30017 0.69065 0.76568 0.0
O419 O 0.25638 0.73122 0.80973 0.0
Mg420 Mg 0.24856 0.75061 0.75457 0.0
O421 O 0.29538 0.73058 0.73513 0.0
O422 O 0.33712 0.69708 0.7305 0.0
O423 O 0.23871 0.76642 0.70022 0.0
O424 O 0.27623 0.80029 0.76246 0.0
Mg425 Mg 0.20803 0.81737 0.75587 0.0
O426 O 0.20049 0.7701 0.77278 0.0
O427 O 0.21002 0.81305 0.7014 0.0
O428 O 0.24644 0.84116 0.78201 0.0
O429 O 0.1654 0.81111 0.78041 0.0
C430 C 0.23008 0.67127 0.74486 0.0
C431 C 0.27765 0.71765 0.82865 0.0
C432 C 0.3219 0.72314 0.72019 0.0
C433 C 0.22405 0.78995 0.68516 0.0
C434 C 0.27352 0.83016 0.77302 0.0
C435 C 0.17278 0.77997 0.78341 0.0
O436 O 0.25801 0.66107 0.75325 0.0
O437 O 0.22307 0.70207 0.74347 0.0
O438 O 0.42968 0.92528 0.03139 0.0
Mg439 Mg 0.42606 0.97239 0.05591 0.0
O440 O 0.47931 0.94058 0.01775 0.0
Mg441 Mg 0.48136 -0.00366 0.00052 0.0
O442 O 0.43083 0.00534 0.01758 0.0
O443 O 0.38562 0.00192 0.04712 0.0
O444 O 0.48237 0.05502 0.98795 0.0
O445 O 0.46015 0.97907 0.94807 0.0
Mg446 Mg 0.52006 0.01885 0.95153 0.0
O447 O 0.53513 0.98493 0.98718 0.0
O448 O 0.52832 0.06824 0.96324 0.0
O449 O 0.48752 0.01089 0.91261 0.0
O450 O 0.55885 -0.00631 0.93649 0.0
C451 C 0.49291 -0.00098 0.08305 0.0
C452 C 0.45888 0.91797 0.02635 0.0
C453 C 0.40185 0.01508 0.02239 0.0
C454 C 0.50215 0.07718 0.97646 0.0
C455 C 0.46555 0.98968 0.91796 0.0
C456 C 0.55924 0.98066 0.96663 0.0
O457 O 0.46596 0.98468 0.0895 0.0
O458 O 0.50104 0.00816 0.05305 0.0
O459 O 0.24204 0.24774 0.16124 0.0
Mg460 Mg 0.22168 0.28469 0.19119 0.0
O461 O 0.24751 0.21503 0.20661 0.0
Mg462 Mg 0.23487 0.24442 0.25577 0.0
O463 O 0.24896 0.297 0.23299 0.0
O464 O 0.24186 0.33046 0.18744 0.0
O465 O 0.22249 0.27081 0.30658 0.0
O466 O 0.28856 0.24201 0.27137 0.0
Mg467 Mg 0.24842 0.19458 0.32408 0.0
O468 O 0.22506 0.19407 0.27887 0.0
O469 O 0.2264 0.23477 0.34967 0.0
O470 O 0.29747 0.20363 0.31175 0.0
O471 O 0.22347 0.14985 0.31253 0.0
C472 C 0.16071 0.26107 0.22067 0.0
C473 C 0.24951 0.22007 0.1745 0.0
C474 C 0.25468 0.3252 0.21714 0.0
C475 C 0.21872 0.26341 0.33818 0.0
C476 C 0.30753 0.22566 0.29076 0.0
C477 C 0.21497 0.16407 0.28436 0.0
O478 O 0.17202 0.28148 0.19896 0.0
O479 O 0.17935 0.24579 0.2415 0.0
O480 O 0.43101 0.5431 0.94717 0.0
Mg481 Mg 0.47964 0.55765 0.93967 0.0
O482 O 0.43793 0.50066 0.98372 0.0
Mg483 Mg 0.49229 0.49255 -0.00764 0.0
O484 O 0.50379 0.51519 0.94149 0.0
O485 O 0.50558 0.54791 0.8958 0.0
O486 O 0.54752 0.48627 0.00443 0.0
O487 O 0.48742 0.44321 0.96249 0.0
Mg488 Mg 0.50376 0.42451 0.03828 0.0
O489 O 0.48028 0.46823 0.04305 0.0
O490 O 0.55225 0.44095 0.0371 0.0
O491 O 0.48522 0.39832 -0.00402 0.0
O492 O 0.47859 0.42945 0.0836 0.0
C493 C 0.49826 0.57435 0.01105 0.0
C494 C 0.41987 0.52032 0.96669 0.0
C495 C 0.51493 0.52137 0.91153 0.0
C496 C 0.56455 0.46695 0.02329 0.0
C497 C 0.48336 0.4119 0.96676 0.0
C498 C 0.47178 0.45923 0.07341 0.0
O499 O 0.501 0.58396 0.98022 0.0
O500 O 0.49341 0.54377 0.01931 0.0
O501 O 0.80743 0.20018 0.31179 0.0
Mg502 Mg 0.80543 0.18462 0.25927 0.0
O503 O 0.76407 0.23208 0.30702 0.0
Mg504 Mg 0.7555 0.25066 0.25261 0.0
O505 O 0.80024 0.22801 0.23447 0.0
O506 O 0.84196 0.19717 0.22316 0.0
O507 O 0.74566 0.2662 0.19815 0.0
O508 O 0.78577 0.29827 0.25958 0.0
Mg509 Mg 0.72045 0.31884 0.25727 0.0
O510 O 0.70793 0.27184 0.27117 0.0
O511 O 0.72455 0.31691 0.20265 0.0
O512 O 0.75963 0.33716 0.28696 0.0
O513 O 0.67604 0.3155 0.27925 0.0
C514 C 0.73299 0.17241 0.2419 0.0
C515 C 0.78336 0.21471 0.32497 0.0
C516 C 0.82608 0.22403 0.21742 0.0
C517 C 0.73433 0.29251 0.1848 0.0
C518 C 0.78533 0.32672 0.27383 0.0
C519 C 0.68095 0.28379 0.2817 0.0
O520 O 0.76078 0.15955 0.24561 0.0
O521 O 0.72803 0.20358 0.24355 0.0
O522 O 0.94114 0.41962 0.53254 0.0
Mg523 Mg 0.93208 0.4667 0.55606 0.0
O524 O -0.01153 0.43582 0.51106 0.0
Mg525 Mg 0.9882 0.49277 0.49902 0.0
O526 O 0.93804 0.49758 0.51678 0.0
O527 O 0.89131 0.49554 0.54259 0.0
O528 O -0.01139 0.54951 0.49101 0.0
O529 O 0.96759 0.4858 0.44557 0.0
Mg530 Mg 0.04062 0.51813 0.43866 0.0
O531 O 0.03865 0.48857 0.48029 0.0
O532 O 0.0289 0.56608 0.45714 0.0
O533 O 0.00459 0.49765 0.40583 0.0
O534 O 0.0835 0.49347 0.4507 0.0
C535 C -0.00161 0.49499 0.58233 0.0
C536 C 0.96948 0.41301 0.52254 0.0
C537 C 0.90908 0.50792 0.51871 0.0
C538 C 0.00514 0.57242 0.47636 0.0
C539 C 0.97634 0.48823 0.41449 0.0
C540 C 0.06815 0.48038 0.47608 0.0
O541 O 0.97028 0.48391 0.5896 0.0
O542 O 0.00795 0.49997 0.5519 0.0
O543 O 0.68471 0.80217 0.28581 0.0
Mg544 Mg 0.67322 0.75079 0.29026 0.0
O545 O 0.72996 0.79922 0.25501 0.0
Mg546 Mg 0.74255 0.7433 0.24703 0.0
O547 O 0.71689 0.73045 0.29607 0.0
O548 O 0.68058 0.72629 0.33681 0.0
O549 O 0.75253 0.68753 0.23536 0.0
O550 O 0.78808 0.74831 0.27956 0.0
Mg551 Mg 0.81076 0.73421 0.2 0.0
O552 O 0.76879 0.75725 0.19988 0.0
O553 O 0.79431 0.6841 0.19996 0.0
O554 O 0.8314 0.75131 0.24577 0.0
O555 O 0.80255 0.76413 0.15704 0.0
C556 C 0.66836 0.72956 0.21645 0.0
C557 C 0.7081 0.81598 0.27004 0.0
C558 C 0.70974 0.7216 0.32683 0.0
C559 C 0.77078 0.67059 0.21587 0.0
C560 C 0.81827 0.75216 0.27502 0.0
C561 C 0.7748 0.7696 0.17037 0.0
O562 O 0.65387 0.72978 0.24504 0.0
O563 O 0.69833 0.73565 0.21386 0.0
O564 O 0.73546 0.23486 0.83593 0.0
Mg565 Mg 0.72893 0.19502 0.80393 0.0
O566 O 0.74735 0.26862 0.79302 0.0
Mg567 Mg 0.73803 0.24701 0.73998 0.0
O568 O 0.74534 0.19209 0.75364 0.0
O569 O 0.77673 0.18162 0.79697 0.0
O570 O 0.73237 0.23077 0.6844 0.0
O571 O 0.79313 0.25065 0.72983 0.0
Mg572 Mg 0.75634 0.30581 0.68158 0.0
O573 O 0.73234 0.30084 0.72563 0.0
O574 O 0.73015 0.27388 0.64824 0.0
O575 O 0.8042 0.29171 0.69271 0.0
O576 O 0.73646 0.34962 0.69896 0.0
C577 C 0.66638 0.21551 0.76655 0.0
C578 C 0.74497 0.26268 0.82473 0.0
C579 C 0.77087 0.17825 0.76508 0.0
C580 C 0.72962 0.2427 0.65425 0.0
C581 C 0.81309 0.26816 0.71231 0.0
C582 C 0.7247 0.33179 0.72354 0.0
O583 O 0.68121 0.19636 0.78704 0.0
O584 O 0.68171 0.23859 0.74994 0.0
O585 O 0.78168 0.74282 0.68563 0.0
Mg586 Mg 0.74353 0.77189 0.70406 0.0
O587 O 0.74141 0.71271 0.70355 0.0
Mg588 Mg 0.73625 0.74108 0.7574 0.0
O589 O 0.75559 0.79682 0.74622 0.0
O590 O 0.75512 0.81928 0.69315 0.0
O591 O 0.7317 0.76433 0.81104 0.0
O592 O 0.78896 0.73 0.76882 0.0
Mg593 Mg 0.74507 0.68702 0.82045 0.0
O594 O 0.71926 0.69018 0.77607 0.0
O595 O 0.72993 0.72632 0.85272 0.0
O596 O 0.79483 0.69017 0.8081 0.0
O597 O 0.71566 0.64583 0.81009 0.0
C598 C 0.67348 0.75923 0.71492 0.0
C599 C 0.76451 0.71699 0.68254 0.0
C600 C 0.76191 0.8214 0.72531 0.0
C601 C 0.72931 0.75653 0.84261 0.0
C602 C 0.80662 0.71142 0.78729 0.0
C603 C 0.70674 0.66118 0.78266 0.0
O604 O 0.69387 0.76367 0.69125 0.0
O605 O 0.68319 0.75373 0.74535 0.0
O606 O 0.57828 0.48554 0.46704 0.0
Mg607 Mg 0.55523 0.45065 0.49966 0.0
O608 O 0.5458 0.52214 0.49001 0.0
Mg609 Mg 0.49421 0.4962 0.49557 0.0
O610 O 0.50997 0.44286 0.48273 0.0
O611 O 0.54692 0.40291 0.48198 0.0
O612 O 0.44417 0.47049 0.50515 0.0
O613 O 0.48394 0.5008 0.43762 0.0
Mg614 Mg 0.43465 0.54302 0.47957 0.0
O615 O 0.47627 0.54918 0.50781 0.0
O616 O 0.4039 0.50595 0.50048 0.0
O617 O 0.44443 0.5364 0.42718 0.0
O618 O 0.43922 0.58892 0.50231 0.0
C619 C 0.52854 0.47609 0.56838 0.0
C620 C 0.5732 0.51493 0.47726 0.0
C621 C 0.51807 0.41262 0.47516 0.0
C622 C 0.41416 0.47684 0.50674 0.0
C623 C 0.46533 0.51595 0.41688 0.0
C624 C 0.46633 0.57903 0.51481 0.0
O625 O 0.55117 0.46113 0.55305 0.0
O626 O 0.50505 0.48922 0.55235 0.0
O627 O 0.04302 0.47441 0.93517 0.0
Mg628 Mg 0.05358 0.46159 0.98625 0.0
O629 O -0.00352 0.50055 0.94379 0.0
Mg630 Mg 0.98726 0.50121 0.002 0.0
O631 O 0.01057 0.44994 0.00785 0.0
O632 O 0.04966 0.41297 0.00337 0.0
O633 O 0.98078 0.5048 0.06081 0.0
O634 O 0.94005 0.4715 -0.00521 0.0
Mg635 Mg 0.9234 0.54635 0.02192 0.0
O636 O 0.96347 0.55109 -0.00607 0.0
O637 O 0.9416 0.5405 0.07194 0.0
O638 O 0.89839 0.50566 0.00064 0.0
O639 O 0.9281 0.59196 -0.003 0.0
C640 C 0.06281 0.52779 0.01802 0.0
C641 C 0.01873 0.4902 0.92414 0.0
C642 C 0.02056 0.41973 0.01232 0.0
C643 C 0.9648 0.52234 0.08187 0.0
C644 C 0.90994 0.47725 -0.00613 0.0
C645 C 0.95512 0.58099 0.9858 0.0
O646 O 0.07616 0.49967 0.0146 0.0
O647 O 0.03301 0.53154 0.01201 0.0
C648 C 0.00883 0.13215 0.07838 0.0
C649 C 0.0047 0.16146 0.05838 0.0
C650 C -0.01018 0.12677 0.00926 0.0
C651 C 0.98604 0.09907 0.0315 0.0
N652 N -0.00748 0.07431 0.08719 0.0
N653 N -0.01014 0.18695 0.00431 0.0
C654 C -0.00354 0.10115 0.06593 0.0
C655 C -0.00435 0.15891 0.02335 0.0
N656 N 0.02456 0.13413 0.10911 0.0
N657 N 0.98678 0.12226 0.97473 0.0
H658 H -0.00704 0.21117 0.01355 0.0
H659 H 0.97943 0.1862 0.98 0.0
H660 H 0.98251 0.09868 0.96403 0.0
H661 H -0.00823 0.14097 0.95686 0.0
H662 H 0.03071 0.1132 0.12352 0.0
H663 H 0.03427 0.15659 0.11837 0.0
H664 H -0.0039 0.07553 0.11357 0.0
H665 H 0.9843 0.05109 0.07837 0.0
C666 C 0.09191 0.75928 0.2701 0.0
C667 C 0.08344 0.74185 0.30062 0.0
C668 C 0.11957 0.69684 0.28526 0.0
C669 C 0.13337 0.7176 0.25972 0.0
N670 N 0.1229 0.75892 0.21727 0.0
N671 N 0.0931 0.69602 0.33989 0.0
C672 C 0.11668 0.74625 0.24898 0.0
C673 C 0.09806 0.71096 0.30879 0.0
N674 N 0.07713 0.7886 0.26198 0.0
N675 N 0.12569 0.66339 0.286 0.0
H676 H 0.07901 0.70645 0.35905 0.0
H677 H 0.10592 0.67517 0.34799 0.0
H678 H 0.13798 0.65157 0.26626 0.0
H679 H 0.11446 0.64692 0.30305 0.0
H680 H 0.08471 0.80432 0.24225 0.0
H681 H 0.05798 0.79803 0.27603 0.0
H682 H 0.10869 0.77686 0.20545 0.0
H683 H 0.14004 0.74818 0.2013 0.0
C684 C 0.50355 0.82995 0.51856 0.0
C685 C 0.5004 0.83093 0.55465 0.0
C686 C 0.49644 0.89181 0.55223 0.0
C687 C 0.50884 0.89098 0.51881 0.0
N688 N 0.51611 0.86088 0.46644 0.0
N689 N 0.49257 0.86323 0.60647 0.0
C690 C 0.50929 0.8604 0.50061 0.0
C691 C 0.49546 0.86189 0.57164 0.0
N692 N 0.50094 0.80004 0.50182 0.0
N693 N 0.48573 0.9211 0.56526 0.0
H694 H 0.49285 0.84226 0.62229 0.0
H695 H 0.49249 0.8856 0.62008 0.0
H696 H 0.48587 0.94291 0.55074 0.0
H697 H 0.47298 0.92256 0.58812 0.0
H698 H 0.50113 0.79757 0.47533 0.0
H699 H 0.49605 0.77761 0.51461 0.0
H700 H 0.51999 0.83964 0.45179 0.0
H701 H 0.51809 0.8833 0.45278 0.0
C702 C 0.3971 0.22536 0.79431 0.0
C703 C 0.39911 0.22623 0.83025 0.0
C704 C 0.35116 0.26133 0.83217 0.0
C705 C 0.35253 0.2648 0.79597 0.0
N706 N 0.38172 0.25408 0.74297 0.0
N707 N 0.37897 0.24619 0.88443 0.0
C708 C 0.37689 0.24808 0.77707 0.0
C709 C 0.37614 0.24414 0.84962 0.0
N710 N 0.41453 0.20235 0.77667 0.0
N711 N 0.3259 0.27443 0.84986 0.0
H712 H 0.39632 0.23358 0.89856 0.0
H713 H 0.36517 0.26201 0.8994 0.0
H714 H 0.30868 0.28974 0.8385 0.0
H715 H 0.32098 0.26862 0.87532 0.0
H716 H 0.4115 0.19792 0.75056 0.0
H717 H 0.42927 0.18507 0.78902 0.0
H718 H 0.40142 0.24486 0.7297 0.0
H719 H 0.36899 0.27101 0.72823 0.0
C720 C -0.00488 0.85611 0.3991 0.0
C721 C 0.97665 0.82959 0.41365 0.0
C722 C 0.95237 0.86874 0.45307 0.0
C723 C 0.97637 0.89241 0.44449 0.0
N724 N 0.02275 0.90831 0.41066 0.0
N725 N 0.94157 0.81001 0.45942 0.0
C726 C -0.00182 0.88633 0.41753 0.0
C727 C 0.95587 0.83569 0.44172 0.0
N728 N 0.00867 0.85308 0.36746 0.0
N729 N 0.92709 0.87771 0.47319 0.0
H730 H 0.94614 0.78492 0.45466 0.0
H731 H 0.92834 0.81369 0.48169 0.0
H732 H 0.9243 0.90224 0.48171 0.0
H733 H 0.90752 0.86179 0.47808 0.0
H734 H 0.02014 0.87298 0.35501 0.0
H735 H 0.00518 0.83214 0.35199 0.0
H736 H 0.04152 0.90284 0.39401 0.0
H737 H 0.02522 0.93127 0.42296 0.0
C738 C 0.37702 0.77978 0.67172 0.0
C739 C 0.38457 0.7565 0.64582 0.0
C740 C 0.33614 0.72417 0.65951 0.0
C741 C 0.3344 0.74177 0.69067 0.0
N742 N 0.35023 0.78845 0.7259 0.0
N743 N 0.37036 0.70737 0.61279 0.0
C744 C 0.35326 0.77096 0.69616 0.0
C745 C 0.36328 0.72946 0.63822 0.0
N746 N 0.39308 0.80979 0.67308 0.0
N747 N 0.31243 0.70151 0.65138 0.0
H748 H 0.39008 0.71042 0.59658 0.0
H749 H 0.3577 0.68504 0.60889 0.0
H750 H 0.29252 0.69759 0.66725 0.0
H751 H 0.31093 0.68932 0.62788 0.0
H752 H 0.38696 0.82897 0.68973 0.0
H753 H 0.41056 0.81652 0.6551 0.0
H754 H 0.36578 0.80783 0.7332 0.0
H755 H 0.33279 0.78233 0.74405 0.0
C756 C 0.45948 0.15782 0.95283 0.0
C757 C 0.48648 0.17968 0.95279 0.0
C758 C 0.51815 0.13721 0.98212 0.0
C759 C 0.49375 0.11305 0.97443 0.0
N760 N 0.44216 0.10042 0.94723 0.0
N761 N 0.54195 0.19104 0.96742 0.0
C762 C 0.46425 0.12333 0.9591 0.0
C763 C 0.5159 0.16979 0.9679 0.0
N764 N 0.42953 0.16983 0.94572 0.0
N765 N 0.5434 0.12887 0.0029 0.0
H766 H 0.54047 0.21564 0.95861 0.0
H767 H 0.56517 0.18375 0.97415 0.0
H768 H 0.54506 0.10539 0.01447 0.0
H769 H 0.56071 0.14609 0.01137 0.0
H770 H 0.40858 0.15531 0.94772 0.0
H771 H 0.42547 0.19519 0.94146 0.0
H772 H 0.42217 0.10702 0.93255 0.0
H773 H 0.44488 0.07467 0.94902 0.0
C774 C 0.08247 0.21811 0.19516 0.0
C775 C 0.0655 0.24708 0.18533 0.0
C776 C 0.10452 0.28138 0.21732 0.0
C777 C 0.12554 0.25375 0.2187 0.0
N778 N 0.13411 0.19474 0.20965 0.0
N779 N 0.0587 0.30684 0.18933 0.0
C780 C 0.11409 0.22153 0.20884 0.0
C781 C 0.0755 0.27887 0.19786 0.0
N782 N 0.0683 0.18735 0.19096 0.0
N783 N 0.11292 0.31012 0.23415 0.0
H784 H 0.03669 0.30594 0.17645 0.0
H785 H 0.06722 0.33105 0.19383 0.0
H786 H 0.13407 0.31204 0.24869 0.0
H787 H 0.09772 0.33051 0.23647 0.0
H788 H 0.07825 0.16534 0.20033 0.0
H789 H 0.04491 0.18446 0.18131 0.0
H790 H 0.1284 0.17179 0.19843 0.0
H791 H 0.15718 0.19583 0.22005 0.0
C792 C 0.03559 0.9481 0.16661 0.0
C793 C 0.04683 0.97943 0.17922 0.0
C794 C 0.04153 0.00448 0.12257 0.0
C795 C 0.03022 0.97328 0.1098 0.0
N796 N 0.00861 0.91809 0.12049 0.0
N797 N 0.04977 0.03917 0.1726 0.0
C798 C 0.02455 0.94595 0.1322 0.0
C799 C 0.04616 0.00824 0.15823 0.0
N800 N 0.03733 0.92011 0.18664 0.0
N801 N 0.05001 0.02977 0.10066 0.0
H802 H 0.052 0.04245 0.19902 0.0
H803 H 0.04696 0.06133 0.15889 0.0
H804 H 0.04696 0.02831 0.07421 0.0
H805 H 0.06214 0.0514 0.10861 0.0
H806 H 0.03332 0.89601 0.17738 0.0
H807 H 0.04464 0.92065 0.21217 0.0
H808 H 0.0011 0.89854 0.13634 0.0
H809 H 0.00024 0.91597 0.09533 0.0
C810 C 0.26523 0.79329 0.40467 0.0
C811 C 0.24806 0.82295 0.41157 0.0
C812 C 0.2208 0.81853 0.35627 0.0
C813 C 0.24076 0.79134 0.34828 0.0
N814 N 0.28757 0.75819 0.36085 0.0
N815 N 0.21632 0.86896 0.38947 0.0
C816 C 0.26501 0.78064 0.3711 0.0
C817 C 0.22764 0.83718 0.38618 0.0
N818 N 0.28004 0.77596 0.43042 0.0
N819 N 0.19516 0.82617 0.33574 0.0
H820 H 0.22308 0.88497 0.40931 0.0
H821 H 0.20317 0.88087 0.37032 0.0
H822 H 0.18995 0.81324 0.31316 0.0
H823 H 0.17791 0.84366 0.34248 0.0
H824 H 0.29067 0.75279 0.4267 0.0
H825 H 0.27822 0.78248 0.45615 0.0
H826 H 0.30761 0.75219 0.37575 0.0
H827 H 0.288 0.74819 0.33619 0.0
C828 C 0.45208 0.05524 0.65635 0.0
C829 C 0.45302 0.02484 0.67499 0.0
C830 C 0.48307 -0.00154 0.62884 0.0
C831 C 0.47466 0.02565 0.60765 0.0
N832 N 0.4673 0.08495 0.60444 0.0
N833 N 0.47287 0.96891 0.6821 0.0
C834 C 0.46462 0.05589 0.62272 0.0
C835 C 0.47023 -0.00296 0.66245 0.0
N836 N 0.43691 0.08239 0.66965 0.0
N837 N 0.50441 0.97536 0.61759 0.0
H838 H 0.46518 0.96803 0.70749 0.0
H839 H 0.48157 0.94632 0.67299 0.0
H840 H 0.51659 0.97816 0.59448 0.0
H841 H 0.51309 0.95598 0.63273 0.0
H842 H 0.43154 0.10377 0.65561 0.0
H843 H 0.42861 0.08312 0.69477 0.0
H844 H 0.46244 0.10848 0.61434 0.0
H845 H 0.47757 0.08552 0.58007 0.0
C846 C 0.26765 0.16501 0.88213 0.0
C847 C 0.24132 0.15951 0.90465 0.0
C848 C 0.20823 0.19677 0.87102 0.0
C849 C 0.23605 0.20807 0.85352 0.0
N850 N 0.29138 0.20022 0.83817 0.0
N851 N 0.18805 0.17462 0.92387 0.0
C852 C 0.2656 0.19118 0.85761 0.0
C853 C 0.21196 0.17652 0.90003 0.0
N854 N 0.29446 0.14556 0.88447 0.0
N855 N 0.17821 0.20527 0.85965 0.0
H856 H 0.19004 0.16081 0.9463 0.0
H857 H 0.16761 0.18951 0.92293 0.0
H858 H 0.17464 0.21897 0.83722 0.0
H859 H 0.15706 0.19536 0.87012 0.0
H860 H 0.31315 0.14619 0.8668 0.0
H861 H 0.29733 0.12726 0.90323 0.0
H862 H 0.31477 0.19189 0.84211 0.0
H863 H 0.28872 0.21634 0.81765 0.0
C864 C 0.08832 0.01278 0.36771 0.0
C865 C 0.07612 -0.00382 0.33841 0.0
C866 C 0.02715 0.9799 0.36791 0.0
C867 C 0.03657 0.0017 0.39447 0.0
N868 N 0.07877 0.02837 0.42691 0.0
N869 N 0.04309 0.95127 0.31632 0.0
C870 C 0.0686 0.01379 0.39716 0.0
C871 C 0.04856 0.9752 0.34051 0.0
N872 N 0.11729 0.02935 0.36633 0.0
N873 N -0.00321 0.96631 0.36774 0.0
H874 H 0.05983 0.94666 0.2972 0.0
H875 H 0.02426 0.93383 0.31755 0.0
H876 H 0.98131 0.96903 0.38855 0.0
H877 H 0.98695 0.95316 0.34713 0.0
H878 H 0.12628 0.04455 0.38583 0.0
H879 H 0.13227 0.02819 0.34499 0.0
H880 H 0.10245 0.03604 0.43163 0.0
H881 H 0.06343 0.03065 0.44784 0.0
C882 C 0.26156 0.82479 0.606 0.0
C883 C 0.23859 0.81493 0.58078 0.0
C884 C 0.20716 0.78462 0.62394 0.0
C885 C 0.23017 0.79484 0.64877 0.0
N886 N 0.2836 0.81568 0.66255 0.0
N887 N 0.19345 0.78002 0.56361 0.0
C888 C 0.25887 0.81188 0.63945 0.0
C889 C 0.21272 0.7928 0.58902 0.0
N890 N 0.28525 0.84756 0.59841 0.0
N891 N 0.17976 0.76802 0.63396 0.0
H892 H 0.19621 0.78645 0.5379 0.0
H893 H 0.17619 0.76131 0.56757 0.0
H894 H 0.17579 0.7607 0.65927 0.0
H895 H 0.16037 0.76287 0.61772 0.0
H896 H 0.30028 0.8587 0.61662 0.0
H897 H 0.28843 0.85721 0.57404 0.0
H898 H 0.30651 0.82444 0.65596 0.0
H899 H 0.28237 0.80737 0.68782 0.0
C900 C 0.40437 0.97371 0.84844 0.0
C901 C 0.42639 0.9733 0.82077 0.0
C902 C 0.47033 0.96485 0.86102 0.0
C903 C 0.44985 0.97503 0.88777 0.0
N904 N 0.39695 0.98969 0.90731 0.0
N905 N 0.48164 0.97065 0.80089 0.0
C906 C 0.41653 0.97887 0.88187 0.0
C907 C 0.45975 0.96862 0.82689 0.0
N908 N 0.37211 0.96879 0.84281 0.0
N909 N 0.50023 0.95283 0.86847 0.0
H910 H 0.47543 0.97565 0.77556 0.0
H911 H 0.50648 0.97068 0.80508 0.0
H912 H 0.50822 0.94975 0.89367 0.0
H913 H 0.51534 0.94276 0.85002 0.0
H914 H 0.35546 0.96641 0.86259 0.0
H915 H 0.36264 0.9632 0.81865 0.0
H916 H 0.37321 -0.00325 0.90295 0.0
H917 H 0.40528 -0.00635 0.93216 0.0
C918 C 0.22983 0.153 0.11128 0.0
C919 C 0.25451 0.16068 0.08744 0.0
C920 C 0.2831 0.19431 0.13027 0.0
C921 C 0.25538 0.19235 0.15101 0.0
N922 N 0.20263 0.16939 0.16312 0.0
N923 N 0.30643 0.18517 0.07425 0.0
C924 C 0.22924 0.17065 0.14263 0.0
C925 C 0.28201 0.17993 0.09713 0.0
N926 N 0.20643 0.12982 0.10347 0.0
N927 N 0.31005 0.2104 0.14244 0.0
H928 H 0.30714 0.1733 0.0505 0.0
H929 H 0.32551 0.20189 0.07819 0.0
H930 H 0.31092 0.22066 0.16701 0.0
H931 H 0.33205 0.21121 0.12975 0.0
H932 H 0.18991 0.1205 0.12118 0.0
H933 H 0.20482 0.11801 0.07981 0.0
H934 H 0.18095 0.15774 0.15633 0.0
H935 H 0.20178 0.18132 0.18674 0.0
C936 C 0.14352 0.0563 0.01815 0.0
C937 C 0.15151 0.07717 0.99012 0.0
C938 C 0.10045 0.06254 0.96159 0.0
C939 C 0.09533 0.03763 0.98675 0.0
N940 N 0.10992 0.01167 0.04052 0.0
N941 N 0.13888 0.10038 0.93468 0.0
C942 C 0.11611 0.03505 0.0157 0.0
C943 C 0.13006 0.08087 0.96191 0.0
N944 N 0.16176 0.05745 0.04744 0.0
N945 N 0.07719 0.06839 0.93751 0.0
H946 H 0.16094 0.11303 0.93367 0.0
H947 H 0.12567 0.10201 0.91204 0.0
H948 H 0.05559 0.05474 0.93654 0.0
H949 H 0.078 0.08839 0.92041 0.0
H950 H 0.15519 0.04588 0.07029 0.0
H951 H 0.18256 0.07216 0.04987 0.0
H952 H 0.12637 0.00496 0.05944 0.0
H953 H 0.08848 -0.00212 0.04162 0.0
C954 C 0.64849 0.44341 0.04648 0.0
C955 C 0.66464 0.45703 0.01762 0.0
C956 C 0.61848 0.49252 0.00552 0.0
C957 C 0.60004 0.47247 0.02809 0.0
N958 N 0.602 0.44642 0.0836 0.0
N959 N 0.667 0.49704 0.97141 0.0
C960 C 0.6165 0.45332 0.05304 0.0
C961 C 0.6505 0.48287 -0.00199 0.0
N962 N 0.66299 0.41969 0.06635 0.0
N963 N 0.60674 0.52226 -0.00567 0.0
H964 H 0.6909 0.49116 0.96607 0.0
H965 H 0.65638 0.51325 0.95387 0.0
H966 H 0.58491 0.53154 0.00312 0.0
H967 H 0.62068 0.53963 0.98086 0.0
H968 H 0.65081 0.40574 0.08488 0.0
H969 H 0.68694 0.41274 0.0632 0.0
H970 H 0.61356 0.43475 0.10401 0.0
H971 H 0.57964 0.45636 0.08987 0.0
C972 C 0.86463 0.37151 0.25655 0.0
C973 C 0.85553 0.39001 0.22718 0.0
C974 C 0.8004 0.37017 0.2314 0.0
C975 C 0.80893 0.35121 0.26091 0.0
N976 N 0.84944 0.33009 0.29941 0.0
N977 N 0.81941 0.39858 0.18035 0.0
C978 C 0.84131 0.35048 0.27269 0.0
C979 C 0.82503 0.38559 0.21216 0.0
N980 N 0.89497 0.37549 0.26971 0.0
N981 N 0.76885 0.37498 0.22259 0.0
H982 H 0.83782 0.41001 0.16618 0.0
H983 H 0.79777 0.39556 0.1671 0.0
H984 H 0.74951 0.36638 0.23698 0.0
H985 H 0.76153 0.39098 0.20308 0.0
H986 H 0.90224 0.36615 0.29337 0.0
H987 H 0.91291 0.38891 0.25681 0.0
H988 H 0.87307 0.326 0.30728 0.0
H989 H 0.83238 0.31595 0.31288 0.0
C990 C 0.85695 0.54818 0.45215 0.0
C991 C 0.85094 0.57807 0.47015 0.0
C992 C 0.89583 0.56704 0.509 0.0
C993 C 0.89643 0.53409 0.49624 0.0
N994 N 0.88274 0.49386 0.45277 0.0
N995 N 0.86605 0.61849 0.51339 0.0
C996 C 0.87906 0.52503 0.46632 0.0
C997 C 0.87146 0.58878 0.49728 0.0
N998 N 0.841 0.54205 0.4221 0.0
N999 N 0.91846 0.57711 0.53248 0.0
H1000 H 0.84898 0.63555 0.50488 0.0
H1001 H 0.87751 0.62575 0.53599 0.0
H1002 H 0.93654 0.56122 0.54117 0.0
H1003 H 0.92128 0.6017 0.54075 0.0
H1004 H 0.84536 0.52164 0.4064 0.0
H1005 H 0.82491 0.55918 0.41158 0.0
H1006 H 0.86891 0.48428 0.4327 0.0
H1007 H 0.89978 0.47719 0.46227 0.0
C1008 C 0.14237 0.11599 0.25597 0.0
C1009 C 0.15662 0.09443 0.23167 0.0
C1010 C 0.20719 0.12624 0.23437 0.0
C1011 C 0.19369 0.1461 0.26043 0.0
N1012 N 0.14695 0.16747 0.28859 0.0
N1013 N 0.19785 0.08457 0.19008 0.0
C1014 C 0.16062 0.14354 0.2686 0.0
C1015 C 0.18753 0.10158 0.21817 0.0
N1016 N 0.11243 0.10879 0.26874 0.0
N1017 N 0.23909 0.12997 0.2264 0.0
H1018 H 0.18341 0.06664 0.1778 0.0
H1019 H 0.21914 0.09026 0.17717 0.0
H1020 H 0.25361 0.14881 0.237 0.0
H1021 H 0.25138 0.11395 0.21022 0.0
H1022 H 0.10252 0.12107 0.28959 0.0
H1023 H 0.0979 0.08928 0.25964 0.0
H1024 H 0.12228 0.1689 0.29303 0.0
H1025 H 0.16011 0.18798 0.2979 0.0
C1026 C 0.35922 0.91316 0.52779 0.0
C1027 C 0.34172 0.90253 0.4984 0.0
C1028 C 0.38421 0.92332 0.46067 0.0
C1029 C 0.39936 0.93722 0.48955 0.0
N1030 N 0.4075 0.94001 0.55049 0.0
N1031 N 0.33503 0.90061 0.4367 0.0
C1032 C 0.38907 0.92984 0.52319 0.0
C1033 C 0.35372 0.90783 0.4647 0.0
N1034 N 0.34572 0.91044 0.55961 0.0
N1035 N 0.3991 0.92541 0.42961 0.0
H1036 H 0.31165 0.89124 0.43837 0.0
H1037 H 0.34139 0.90683 0.41173 0.0
H1038 H 0.42172 0.93687 0.4268 0.0
H1039 H 0.39084 0.91314 0.40772 0.0
H1040 H 0.35574 0.9204 0.58185 0.0
H1041 H 0.32287 0.90024 0.56375 0.0
H1042 H 0.40318 0.93315 0.57576 0.0
H1043 H 0.42885 0.95374 0.54765 0.0
C1044 C 0.80134 0.58841 0.19413 0.0
C1045 C 0.79866 0.57407 0.22731 0.0
C1046 C 0.75787 0.61487 0.24248 0.0
C1047 C 0.76758 0.63367 0.21373 0.0
N1048 N 0.782 0.6308 0.1546 0.0
N1049 N 0.7714 0.57003 0.28163 0.0
C1050 C 0.78362 0.61755 0.18677 0.0
C1051 C 0.77543 0.58577 0.25086 0.0
N1052 N 0.82289 0.57623 0.17104 0.0
N1053 N 0.7312 0.62392 0.26031 0.0
H1054 H 0.78306 0.54781 0.28775 0.0
H1055 H 0.75749 0.57962 0.30135 0.0
H1056 H 0.71662 0.64349 0.25217 0.0
H1057 H 0.72158 0.60989 0.28039 0.0
H1058 H 0.82859 0.5882 0.14813 0.0
H1059 H 0.83645 0.55488 0.17542 0.0
H1060 H 0.7913 0.61929 0.13298 0.0
H1061 H 0.76824 0.65196 0.14945 0.0
C1062 C 0.68643 0.39833 0.77259 0.0
C1063 C 0.65835 0.39957 0.75182 0.0
C1064 C 0.66828 0.34356 0.73086 0.0
C1065 C 0.69968 0.34618 0.7445 0.0
N1066 N 0.73872 0.37282 0.78113 0.0
N1067 N 0.62221 0.37408 0.71038 0.0
C1068 C 0.70854 0.37228 0.76699 0.0
C1069 C 0.64853 0.37196 0.73148 0.0
N1070 N 0.69183 0.42206 0.79714 0.0
N1071 N 0.65855 0.31473 0.71509 0.0
H1072 H 0.60766 0.39506 0.70908 0.0
H1073 H 0.61618 0.35621 0.69202 0.0
H1074 H 0.67339 0.29395 0.71358 0.0
H1075 H 0.63513 0.31056 0.70631 0.0
H1076 H 0.71089 0.4213 0.81454 0.0
H1077 H 0.67556 0.4412 0.80187 0.0
H1078 H 0.74821 0.39284 0.79504 0.0
H1079 H 0.75446 0.35285 0.77813 0.0
C1080 C 0.96651 0.83418 0.95846 0.0
C1081 C 0.9692 0.83254 0.92231 0.0
C1082 C -0.00995 0.89011 0.92034 0.0
C1083 C -0.00849 0.88984 0.95649 0.0
N1084 N 0.97155 0.86846 0.00974 0.0
N1085 N 0.97298 0.86138 0.86833 0.0
C1086 C 0.97624 0.86408 0.97546 0.0
C1087 C 0.97736 0.86153 0.90303 0.0
N1088 N 0.95667 0.80661 0.9765 0.0
N1089 N 0.0023 0.91701 0.90289 0.0
H1090 H 0.96328 0.84074 0.85538 0.0
H1091 H 0.97644 0.88221 0.85272 0.0
H1092 H 0.01036 0.93861 0.91543 0.0
H1093 H 0.00499 0.91794 0.87645 0.0
H1094 H 0.9574 0.80495 0.00308 0.0
H1095 H 0.94874 0.78461 0.96471 0.0
H1096 H 0.95845 0.85194 0.02507 0.0
H1097 H 0.9784 0.89057 0.02214 0.0
C1098 C 0.9031 0.27265 0.70928 0.0
C1099 C 0.90875 0.24977 0.68222 0.0
C1100 C 0.85223 0.23287 0.68158 0.0
C1101 C 0.84619 0.25638 0.70779 0.0
N1102 N 0.86622 0.29088 0.75354 0.0
N1103 N 0.89192 0.19964 0.65257 0.0
C1104 C 0.87191 0.27349 0.7242 0.0
C1105 C 0.88434 0.22691 0.67184 0.0
N1106 N 0.92649 0.2951 0.71897 0.0
N1107 N 0.82726 0.21814 0.66416 0.0
H1108 H 0.9156 0.19418 0.64583 0.0
H1109 H 0.87534 0.18071 0.64659 0.0
H1110 H 0.80323 0.22226 0.67028 0.0
H1111 H 0.83034 0.20396 0.6421 0.0
H1112 H 0.92243 0.31465 0.7359 0.0
H1113 H 0.94953 0.29563 0.70849 0.0
H1114 H 0.88445 0.3016 0.76847 0.0
H1115 H 0.84334 0.29164 0.76455 0.0
C1116 C 0.47218 0.1354 0.4047 0.0
C1117 C 0.49107 0.1594 0.42325 0.0
C1118 C 0.49759 0.11976 0.47045 0.0
C1119 C 0.47701 0.09715 0.45285 0.0
N1120 N 0.4546 0.07741 0.39998 0.0
N1121 N 0.53103 0.16982 0.4672 0.0
C1122 C 0.46797 0.10295 0.41864 0.0
C1123 C 0.5069 0.15003 0.45406 0.0
N1124 N 0.45601 0.144 0.37546 0.0
N1125 N 0.50679 0.11299 0.50334 0.0
H1126 H 0.53896 0.19167 0.45505 0.0
H1127 H 0.5453 0.16286 0.48797 0.0
H1128 H 0.50141 0.09022 0.51525 0.0
H1129 H 0.51865 0.13023 0.51906 0.0
H1130 H 0.43887 0.12854 0.36374 0.0
H1131 H 0.45758 0.1673 0.36382 0.0
H1132 H 0.45026 0.07888 0.37374 0.0
H1133 H 0.45134 0.05347 0.41027 0.0
C1134 C 0.62083 0.74491 0.1358 0.0
C1135 C 0.59443 0.72402 0.14439 0.0
C1136 C 0.62687 0.69598 0.18735 0.0
C1137 C 0.64916 0.72279 0.1856 0.0
N1138 N 0.66783 0.77358 0.15759 0.0
N1139 N 0.57114 0.6802 0.17984 0.0
C1140 C 0.64703 0.74695 0.15895 0.0
C1141 C 0.59723 0.69908 0.17007 0.0
N1142 N 0.62011 0.76403 0.10678 0.0
N1143 N 0.63366 0.66847 0.20672 0.0
H1144 H 0.54837 0.68259 0.16885 0.0
H1145 H 0.57146 0.66422 0.20094 0.0
H1146 H 0.65568 0.66603 0.21953 0.0
H1147 H 0.61908 0.64704 0.20699 0.0
H1148 H 0.63983 0.77797 0.09814 0.0
H1149 H 0.60075 0.76369 0.08967 0.0
H1150 H 0.66411 0.79445 0.14212 0.0
H1151 H 0.6881 0.77585 0.17308 0.0
C1152 C 0.96883 0.15672 0.54942 0.0
C1153 C -0.00567 0.16198 0.57284 0.0
C1154 C 0.01965 0.10961 0.55651 0.0
C1155 C -0.00331 0.10695 0.52967 0.0
N1156 N 0.94657 0.12386 0.5029 0.0
N1157 N 0.04008 0.14198 0.60464 0.0
C1158 C 0.97019 0.12915 0.52702 0.0
C1159 C 0.01829 0.13759 0.57865 0.0
N1160 N 0.94298 0.1777 0.54965 0.0
N1161 N 0.04297 0.0859 0.5601 0.0
H1162 H 0.03783 0.16081 0.62269 0.0
H1163 H 0.05985 0.12691 0.60928 0.0
H1164 H 0.04562 0.06609 0.54312 0.0
H1165 H 0.05963 0.08506 0.58001 0.0
H1166 H 0.92229 0.17451 0.53485 0.0
H1167 H 0.94113 0.19748 0.56689 0.0
H1168 H 0.92909 0.14115 0.49634 0.0
H1169 H 0.94427 0.10186 0.48881 0.0
C1170 C 0.62358 0.23644 0.3385 0.0
C1171 C 0.59503 0.25123 0.32529 0.0
C1172 C 0.62466 0.26737 0.2741 0.0
C1173 C 0.65374 0.26224 0.2919 0.0
N1174 N 0.682 0.23971 0.34054 0.0
N1175 N 0.57018 0.28538 0.2809 0.0
C1176 C 0.65369 0.24543 0.32373 0.0
C1177 C 0.59566 0.26724 0.29271 0.0
N1178 N 0.62187 0.21358 0.36447 0.0
N1179 N 0.6252 0.27437 0.2399 0.0
H1180 H 0.54961 0.29014 0.29512 0.0
H1181 H 0.57123 0.29949 0.25845 0.0
H1182 H 0.64672 0.27476 0.22609 0.0
H1183 H 0.6043 0.27603 0.22508 0.0
H1184 H 0.64178 0.20029 0.37312 0.0
H1185 H 0.59997 0.20518 0.37458 0.0
H1186 H 0.68313 0.23074 0.36558 0.0
H1187 H 0.70435 0.24532 0.3297 0.0
C1188 C 0.47801 0.85062 0.09196 0.0
C1189 C 0.5015 0.83234 0.074 0.0
C1190 C 0.49338 0.867 0.02307 0.0
C1191 C 0.47145 0.88685 0.04176 0.0
N1192 N 0.44922 0.90191 0.09721 0.0
N1193 N 0.53583 0.82568 0.02511 0.0
C1194 C 0.46506 0.87965 0.07693 0.0
C1195 C 0.51057 0.84134 0.04032 0.0
N1196 N 0.46838 0.84063 0.12392 0.0
N1197 N 0.497 0.8721 0.98868 0.0
H1198 H 0.54846 0.80647 0.03708 0.0
H1199 H 0.54589 0.83344 0.00201 0.0
H1200 H 0.48428 0.89029 0.97524 0.0
H1201 H 0.51048 0.85667 0.97298 0.0
H1202 H 0.44749 0.84918 0.13553 0.0
H1203 H 0.48023 0.82254 0.13833 0.0
H1204 H 0.44786 0.89978 0.12374 0.0
H1205 H 0.44048 0.92468 0.08892 0.0
C1206 C 0.89626 0.70183 0.79543 0.0
C1207 C 0.90354 0.7304 0.81548 0.0
C1208 C 0.84876 0.75038 0.80984 0.0
C1209 C 0.84071 0.72075 0.7914 0.0
N1210 N 0.85741 0.67347 0.75837 0.0
N1211 N 0.89125 0.78682 0.83148 0.0
C1212 C 0.86481 0.69815 0.78132 0.0
C1213 C 0.88128 0.75648 0.81901 0.0
N1214 N 0.91907 0.67789 0.79106 0.0
N1215 N 0.8252 0.77142 0.82079 0.0
H1216 H 0.91526 0.79194 0.83784 0.0
H1217 H 0.87665 0.80779 0.83211 0.0
H1218 H 0.8009 0.76841 0.81457 0.0
H1219 H 0.82938 0.79087 0.83799 0.0
H1220 H 0.91443 0.65477 0.77976 0.0
H1221 H 0.94273 0.6809 0.79989 0.0
H1222 H 0.87442 0.65765 0.74781 0.0
H1223 H 0.8344 0.67074 0.74769 0.0
C1224 C 0.92085 0.97073 0.84584 0.0
C1225 C 0.93508 0.99068 0.8199 0.0
C1226 C 0.97031 0.01818 0.86198 0.0
C1227 C 0.95265 0.00185 0.88818 0.0
N1228 N 0.91077 0.96328 0.90633 0.0
N1229 N 0.97357 0.03244 0.80154 0.0
C1230 C 0.92815 0.97789 0.88047 0.0
C1231 C 0.96027 0.01386 0.8274 0.0
N1232 N 0.90018 0.94514 0.83721 0.0
N1233 N -0.00365 0.03787 0.87037 0.0
H1234 H 0.96761 0.02856 0.77587 0.0
H1235 H -0.01041 0.05233 0.80538 0.0
H1236 H 0.00373 0.04171 0.89565 0.0
H1237 H 0.01192 0.04854 0.85251 0.0
H1238 H 0.89151 0.92743 0.85454 0.0
H1239 H 0.89367 0.93989 0.81197 0.0
H1240 H 0.89003 0.94883 0.90247 0.0
H1241 H 0.91594 0.96718 0.93216 0.0
C1242 C 0.72789 0.16429 0.60166 0.0
C1243 C 0.75289 0.17133 0.57798 0.0
C1244 C 0.76447 0.22458 0.60589 0.0
C1245 C 0.73609 0.21975 0.62602 0.0
N1246 N 0.68855 0.18736 0.64016 0.0
N1247 N 0.80184 0.20095 0.56509 0.0
C1248 C 0.71724 0.19017 0.6232 0.0
C1249 C 0.77311 0.19961 0.58218 0.0
N1250 N 0.71581 0.13258 0.60533 0.0
N1251 N 0.78323 0.25281 0.6093 0.0
H1252 H 0.80935 0.18152 0.54932 0.0
H1253 H 0.81962 0.21916 0.56882 0.0
H1254 H 0.78191 0.2693 0.62974 0.0
H1255 H 0.80047 0.26035 0.59154 0.0
H1256 H 0.6992 0.12585 0.62412 0.0
H1257 H 0.72589 0.11194 0.59355 0.0
H1258 H 0.67211 0.16784 0.63608 0.0
H1259 H 0.67967 0.20628 0.65574 0.0
C1260 C 0.53405 0.97162 0.31988 0.0
C1261 C 0.54712 0.00355 0.31184 0.0
C1262 C 0.53151 0.02465 0.36789 0.0
C1263 C 0.52418 0.99135 0.37806 0.0
N1264 N 0.51608 0.93323 0.36437 0.0
N1265 N 0.5586 0.06087 0.32705 0.0
C1266 C 0.52422 0.96489 0.35401 0.0
C1267 C 0.54525 0.03044 0.33523 0.0
N1268 N 0.5312 0.94797 0.29481 0.0
N1269 N 0.52614 0.05056 0.38978 0.0
H1270 H 0.56792 0.06638 0.30292 0.0
H1271 H 0.56213 0.08018 0.34455 0.0
H1272 H 0.51654 0.04719 0.4141 0.0
H1273 H 0.52834 0.07564 0.3829 0.0
H1274 H 0.51974 0.9249 0.29815 0.0
H1275 H 0.53804 0.95266 0.26957 0.0
H1276 H 0.51911 0.912 0.34944 0.0
H1277 H 0.50706 0.92816 0.38877 0.0
C1278 C 0.72247 0.78721 0.09573 0.0
C1279 C 0.73206 0.82116 0.09167 0.0
C1280 C 0.75192 0.82186 0.15057 0.0
C1281 C 0.75062 0.78687 0.15038 0.0
N1282 N 0.73215 0.73507 0.12567 0.0
N1283 N 0.75946 0.87043 0.1155 0.0
C1284 C 0.73468 0.76913 0.12397 0.0
C1285 C 0.74682 0.83893 0.11947 0.0
N1286 N 0.70186 0.77256 0.07269 0.0
N1287 N 0.76001 0.83841 0.17995 0.0
H1288 H 0.75895 0.88395 0.09287 0.0
H1289 H 0.77365 0.88215 0.13413 0.0
H1290 H 0.76474 0.82568 0.20275 0.0
H1291 H 0.75863 0.86431 0.18238 0.0
H1292 H 0.69235 0.7485 0.07568 0.0
H1293 H 0.69157 0.78587 0.05248 0.0
H1294 H 0.72393 0.72024 0.10548 0.0
H1295 H 0.73928 0.72169 0.14736 0.0
C1296 C 0.91863 0.01673 0.63111 0.0
C1297 C 0.93524 0.01207 0.66253 0.0
C1298 C 0.98201 -0.00763 0.63189 0.0
C1299 C 0.96283 0.98971 0.60188 0.0
N1300 N 0.9122 -0.00217 0.57265 0.0
N1301 N 0.9818 -0.00797 0.69357 0.0
C1302 C 0.9311 0.00213 0.60104 0.0
C1303 C 0.96696 -0.00042 0.66323 0.0
N1304 N 0.89099 0.03492 0.63024 0.0
N1305 N 0.01452 0.98745 0.63035 0.0
H1306 H 0.97155 -0.00364 0.7174 0.0
H1307 H 0.00326 0.97882 0.69501 0.0
H1308 H 0.02635 0.98278 0.60735 0.0
H1309 H 0.02998 0.99155 0.65108 0.0
H1310 H 0.87929 0.04131 0.60758 0.0
H1311 H 0.88166 0.04632 0.652 0.0
H1312 H 0.88761 0.00287 0.57221 0.0
H1313 H 0.92071 0.98728 0.5501 0.0
C1314 C 0.74747 0.21092 0.41431 0.0
C1315 C 0.73812 0.17671 0.41551 0.0
C1316 C 0.75908 0.16746 0.35802 0.0
C1317 C 0.7703 0.2014 0.35736 0.0
N1318 N 0.76974 0.25703 0.38098 0.0
N1319 N 0.73173 0.12282 0.38885 0.0
C1320 C 0.76276 0.22366 0.38437 0.0
C1321 C 0.74273 0.15527 0.38724 0.0
N1322 N 0.74337 0.23064 0.44247 0.0
N1323 N 0.7619 0.1475 0.32975 0.0
H1324 H 0.71563 0.1144 0.40752 0.0
H1325 H 0.73892 0.10383 0.37255 0.0
H1326 H 0.77395 0.15437 0.30762 0.0
H1327 H 0.75054 0.12439 0.3267 0.0
H1328 H 0.7528 0.25475 0.44491 0.0
H1329 H 0.73159 0.22235 0.46448 0.0
H1330 H 0.76128 0.27532 0.39744 0.0
H1331 H 0.78284 0.26683 0.36047 0.0
C1332 C 0.55216 0.02487 0.15233 0.0
C1333 C 0.56507 -0.0069 0.16122 0.0
C1334 C 0.53225 0.96608 0.11701 0.0
C1335 C 0.51857 -0.00242 0.10901 0.0
N1336 N 0.52137 0.05766 0.11163 0.0
N1337 N 0.57493 0.93592 0.14567 0.0
C1338 C 0.53059 0.02726 0.12416 0.0
C1339 C 0.55728 0.96436 0.14167 0.0
N1340 N 0.55869 0.05238 0.17197 0.0
N1341 N 0.5215 0.93781 0.10074 0.0
H1342 H 0.59448 0.93442 0.16249 0.0
H1343 H 0.57253 0.91492 0.13012 0.0
H1344 H 0.50599 0.93844 0.07976 0.0
H1345 H 0.527 0.91367 0.10866 0.0
H1346 H 0.54699 0.07509 0.16913 0.0
H1347 H 0.57414 0.05216 0.19287 0.0
H1348 H 0.53243 0.08018 0.11861 0.0
H1349 H 0.50432 0.06028 0.09213 0.0
C1350 C 0.75758 0.80854 0.91841 0.0
C1351 C 0.73755 0.83681 0.91493 0.0
C1352 C 0.70959 0.81067 0.86637 0.0
C1353 C 0.73123 0.78355 0.86824 0.0
N1354 N 0.78111 0.76101 0.89058 0.0
N1355 N 0.69833 0.86782 0.88242 0.0
C1356 C 0.75663 0.78353 0.89284 0.0
C1357 C 0.71484 0.83891 0.88777 0.0
N1358 N 0.77765 0.80552 0.94611 0.0
N1359 N 0.68323 0.80875 0.84526 0.0
H1360 H 0.70084 0.88869 0.89818 0.0
H1361 H 0.68413 0.87209 0.86082 0.0
H1362 H 0.67813 0.78799 0.82995 0.0
H1363 H 0.66484 0.82623 0.84526 0.0
H1364 H 0.78944 0.78345 0.95227 0.0
H1365 H 0.78099 0.82429 0.96429 0.0
H1366 H 0.80202 0.76249 0.9054 0.0
H1367 H 0.78249 0.7429 0.87155 0.0
C1368 C 0.8561 0.89765 -0.00406 0.0
C1369 C 0.83398 0.90405 0.02273 0.0
C1370 C 0.87347 0.94033 0.05133 0.0
C1371 C 0.89326 0.93828 0.02221 0.0
N1372 N 0.90862 0.90928 0.97086 0.0
N1373 N 0.82041 0.93195 0.07539 0.0
C1374 C 0.88641 0.91474 -0.00409 0.0
C1375 C 0.84252 0.92507 0.05063 0.0
N1376 N 0.84704 0.8771 0.96949 0.0
N1377 N 0.88475 0.95677 0.07968 0.0
H1378 H 0.79745 0.92117 0.07579 0.0
H1379 H 0.82391 0.95005 0.0942 0.0
H1380 H 0.90782 0.96753 0.08056 0.0
H1381 H 0.87289 0.95684 0.1031 0.0
H1382 H 0.86061 0.87301 0.94765 0.0
H1383 H 0.82487 0.86457 0.96861 0.0
H1384 H 0.90631 0.89138 0.95175 0.0
H1385 H 0.93091 0.92144 0.97013 0.0
C1386 C 0.34658 0.55491 0.00894 0.0
C1387 C 0.32406 0.5496 0.9821 0.0
C1388 C 0.36171 0.51282 0.95311 0.0
C1389 C 0.38595 0.52339 0.97636 0.0
N1390 N 0.40253 0.55483 0.02637 0.0
N1391 N 0.30903 0.52376 0.92855 0.0
C1392 C 0.37857 0.54399 0.00474 0.0
C1393 C 0.33095 0.52796 0.95447 0.0
N1394 N 0.33719 0.57055 0.03831 0.0
N1395 N 0.3685 0.48869 0.92964 0.0
H1396 H 0.2862 0.53437 0.92893 0.0
H1397 H 0.31401 0.51131 0.90584 0.0
H1398 H 0.39106 0.47745 0.92856 0.0
H1399 H 0.35126 0.4778 0.91356 0.0
H1400 H 0.35189 0.57356 0.05976 0.0
H1401 H 0.31351 0.57801 0.04245 0.0
H1402 H 0.39958 0.57359 0.04448 0.0
H1403 H 0.4261 0.5462 0.02523 0.0
C1404 C 0.15038 0.6244 0.74333 0.0
C1405 C 0.15828 0.59764 0.72156 0.0
C1406 C 0.21051 0.62356 0.70942 0.0
C1407 C 0.20487 0.64681 0.73593 0.0
N1408 N 0.17096 0.66706 0.78151 0.0
N1409 N 0.19737 0.56904 0.68665 0.0
C1410 C 0.17504 0.64699 0.7536 0.0
C1411 C 0.18858 0.59658 0.7049 0.0
N1412 N 0.11937 0.62793 0.75429 0.0
N1413 N 0.23636 0.62761 0.68814 0.0
H1414 H 0.18226 0.5484 0.68261 0.0
H1415 H 0.22072 0.56552 0.67772 0.0
H1416 H 0.25269 0.64757 0.69023 0.0
H1417 H 0.23972 0.61313 0.66634 0.0
H1418 H 0.11154 0.64873 0.76778 0.0
H1419 H 0.1008 0.61159 0.74682 0.0
H1420 H 0.15077 0.66566 0.79723 0.0
H1421 H 0.18905 0.68285 0.79105 0.0
C1422 C 0.11887 0.40691 0.48986 0.0
C1423 C 0.13553 0.41689 0.52006 0.0
C1424 C 0.09864 0.46319 0.52823 0.0
C1425 C 0.08378 0.45459 0.49673 0.0
N1426 N 0.07105 0.41298 0.45448 0.0
N1427 N 0.13601 0.44702 0.57329 0.0
C1428 C 0.09087 0.42436 0.48009 0.0
C1429 C 0.12348 0.44251 0.54121 0.0
N1430 N 0.13098 0.38247 0.46932 0.0
N1431 N 0.0903 0.49202 0.54442 0.0
H1432 H 0.15422 0.43192 0.58311 0.0
H1433 H 0.12665 0.46361 0.59105 0.0
H1434 H 0.07158 0.50701 0.53563 0.0
H1435 H 0.1024 0.5016 0.56572 0.0
H1436 H 0.12199 0.37715 0.44497 0.0
H1437 H 0.15141 0.36878 0.47556 0.0
H1438 H 0.07335 0.38965 0.44303 0.0
H1439 H 0.05025 0.4257 0.44723 0.0
C1440 C 0.79158 0.90978 0.72514 0.0
C1441 C 0.82294 0.90619 0.73937 0.0
C1442 C 0.81264 0.8468 0.74935 0.0
C1443 C 0.78071 0.85076 0.73672 0.0
N1444 N 0.73722 0.88719 0.72129 0.0
N1445 N 0.85996 0.87391 0.77344 0.0
C1446 C 0.7693 0.88279 0.72774 0.0
C1447 C 0.83233 0.87556 0.75436 0.0
N1448 N 0.78376 0.93783 0.70697 0.0
N1449 N 0.8253 0.81569 0.75381 0.0
H1450 H 0.87513 0.89452 0.7775 0.0
H1451 H 0.8661 0.85296 0.78785 0.0
H1452 H 0.81246 0.79357 0.74945 0.0
H1453 H 0.84964 0.81178 0.75897 0.0
H1454 H 0.7624 0.93997 0.69304 0.0
H1455 H 0.79978 0.95769 0.70281 0.0
H1456 H 0.72706 0.91059 0.71741 0.0
H1457 H 0.72035 0.86769 0.72335 0.0
C1458 C 0.61812 0.10503 0.49006 0.0
C1459 C 0.63951 0.10045 0.51793 0.0
C1460 C 0.60281 0.0603 0.5443 0.0
C1461 C 0.58547 0.05939 0.5132 0.0
N1462 N 0.57029 0.08543 0.45977 0.0
N1463 N 0.65265 0.07597 0.57262 0.0
C1464 C 0.59071 0.08373 0.48729 0.0
C1465 C 0.63151 0.07951 0.54596 0.0
N1466 N 0.62542 0.12837 0.46556 0.0
N1467 N 0.59178 0.04238 0.57177 0.0
H1468 H 0.67373 0.09026 0.57467 0.0
H1469 H 0.65015 0.05796 0.59173 0.0
H1470 H 0.57032 0.02843 0.57072 0.0
H1471 H 0.60195 0.04385 0.59615 0.0
H1472 H 0.61238 0.13215 0.44315 0.0
H1473 H 0.64477 0.14504 0.46829 0.0
H1474 H 0.57229 0.10263 0.43991 0.0
H1475 H 0.54997 0.07019 0.45713 0.0
C1476 C 0.20501 0.42071 0.78841 0.0
C1477 C 0.18526 0.42533 0.75912 0.0
C1478 C 0.20677 0.37567 0.73221 0.0
C1479 C 0.22336 0.36862 0.76317 0.0
N1480 N 0.24738 0.38805 0.81537 0.0
N1481 N 0.17617 0.41573 0.69907 0.0
C1482 C 0.22598 0.39293 0.78923 0.0
C1483 C 0.18943 0.40575 0.72948 0.0
N1484 N 0.20202 0.44132 0.81604 0.0
N1485 N 0.20466 0.35214 0.70702 0.0
H1486 H 0.16341 0.43795 0.6966 0.0
H1487 H 0.18034 0.40389 0.67585 0.0
H1488 H 0.21723 0.3298 0.70779 0.0
H1489 H 0.18897 0.35381 0.68626 0.0
H1490 H 0.21341 0.43735 0.83945 0.0
H1491 H 0.18705 0.46207 0.8159 0.0
H1492 H 0.25202 0.40539 0.83466 0.0
H1493 H 0.26245 0.36731 0.81585 0.0
C1494 C 0.33848 0.6268 0.24417 0.0
C1495 C 0.33076 0.59385 0.25503 0.0
C1496 C 0.27829 0.61228 0.27406 0.0
C1497 C 0.28827 0.64604 0.26932 0.0
N1498 N 0.3311 0.68551 0.25553 0.0
N1499 N 0.29631 0.5572 0.28874 0.0
C1500 C 0.31922 0.6535 0.25569 0.0
C1501 C 0.30151 0.58704 0.2724 0.0
N1502 N 0.36357 0.63253 0.22234 0.0
N1503 N 0.24652 0.60399 0.27874 0.0
H1504 H 0.3135 0.53847 0.29023 0.0
H1505 H 0.27631 0.55277 0.30428 0.0
H1506 H 0.22802 0.62132 0.27694 0.0
H1507 H 0.23828 0.57926 0.27985 0.0
H1508 H 0.36817 0.65585 0.21134 0.0
H1509 H 0.37765 0.61332 0.21265 0.0
H1510 H 0.35473 0.69142 0.24858 0.0
H1511 H 0.31873 0.70556 0.2659 0.0
C1512 C 0.50771 0.65916 0.53804 0.0
C1513 C 0.49033 0.66513 0.56859 0.0
C1514 C 0.47461 0.60591 0.57078 0.0
C1515 C 0.48471 0.60257 0.53659 0.0
N1516 N 0.51415 0.62353 0.48825 0.0
N1517 N 0.45696 0.64382 0.61477 0.0
C1518 C 0.50299 0.62826 0.52068 0.0
C1519 C 0.47449 0.63819 0.58584 0.0
N1520 N 0.5286 0.68302 0.52588 0.0
N1521 N 0.46403 0.57823 0.58811 0.0
H1522 H 0.45506 0.66717 0.62625 0.0
H1523 H 0.44215 0.62575 0.62607 0.0
H1524 H 0.46381 0.55455 0.57686 0.0
H1525 H 0.45886 0.57818 0.61418 0.0
H1526 H 0.54382 0.67929 0.50516 0.0
H1527 H 0.5328 0.7056 0.53859 0.0
H1528 H 0.52453 0.64239 0.47337 0.0
H1529 H 0.51198 0.60046 0.47592 0.0
C1530 C 0.5851 0.19721 0.80396 0.0
C1531 C 0.56652 0.22276 0.78873 0.0
C1532 C 0.61002 0.23392 0.74748 0.0
C1533 C 0.63015 0.21254 0.76675 0.0
N1534 N 0.62851 0.15891 0.79547 0.0
N1535 N 0.55936 0.26381 0.74409 0.0
C1536 C 0.61531 0.18958 0.78981 0.0
C1537 C 0.57813 0.24022 0.7594 0.0
N1538 N 0.57416 0.18019 0.83211 0.0
N1539 N 0.62015 0.24513 0.71631 0.0
H1540 H 0.5358 0.26845 0.75183 0.0
H1541 H 0.5676 0.27994 0.72501 0.0
H1542 H 0.64188 0.23755 0.70568 0.0
H1543 H 0.60549 0.25797 0.6992 0.0
H1544 H 0.58902 0.16501 0.84692 0.0
H1545 H 0.55092 0.18244 0.8418 0.0
H1546 H 0.61752 0.14041 0.81038 0.0
H1547 H 0.6476 0.15008 0.78087 0.0
C1548 C 0.98452 0.36353 0.07708 0.0
C1549 C -0.00457 0.33318 0.06254 0.0
C1550 C 0.00268 0.36087 0.00742 0.0
C1551 C -0.00024 0.39184 0.02437 0.0
N1552 N 0.97221 0.42214 0.06784 0.0
N1553 N 0.00899 0.30078 0.01264 0.0
C1554 C 0.98552 0.39311 0.05697 0.0
C1555 C 0.00176 0.33092 0.02697 0.0
N1556 N 0.9742 0.36403 0.11026 0.0
N1557 N 0.00666 0.36078 0.97273 0.0
H1558 H 0.00835 0.2784 0.02634 0.0
H1559 H 0.01652 0.29782 0.98749 0.0
H1560 H 0.00662 0.383 0.95859 0.0
H1561 H 0.00723 0.33929 0.95782 0.0
H1562 H 0.96943 0.38581 0.12371 0.0
H1563 H 0.9709 0.34228 0.12472 0.0
H1564 H 0.95918 0.42444 0.09038 0.0
H1565 H 0.97106 0.44301 0.05199 0.0
C1566 C 0.88122 0.70796 0.32381 0.0
C1567 C 0.90067 0.73619 0.33212 0.0
C1568 C 0.85705 0.7738 0.31679 0.0
C1569 C 0.83999 0.74622 0.30352 0.0
N1570 N 0.83401 0.68694 0.29375 0.0
N1571 N 0.90933 0.79634 0.33183 0.0
C1572 C 0.85114 0.71309 0.30768 0.0
C1573 C 0.8892 0.76932 0.32768 0.0
N1574 N 0.89205 0.67637 0.33022 0.0
N1575 N 0.84252 0.80422 0.31811 0.0
H1576 H 0.93391 0.79425 0.3365 0.0
H1577 H 0.90257 0.82083 0.32667 0.0
H1578 H 0.81872 0.80739 0.30995 0.0
H1579 H 0.85264 0.82499 0.33033 0.0
H1580 H 0.87763 0.65495 0.32844 0.0
H1581 H 0.91542 0.67149 0.33861 0.0
H1582 H 0.84253 0.66267 0.29187 0.0
H1583 H 0.81141 0.68986 0.28245 0.0
C1584 C 0.44149 0.34436 0.91675 0.0
C1585 C 0.46512 0.33806 0.89163 0.0
C1586 C 0.4979 0.38526 0.91123 0.0
C1587 C 0.47498 0.39073 0.93736 0.0
N1588 N 0.42088 0.38329 0.95852 0.0
N1589 N 0.50932 0.35801 0.85731 0.0
C1590 C 0.44527 0.37287 0.93786 0.0
C1591 C 0.49111 0.3606 0.88622 0.0
N1592 N 0.4167 0.32209 0.92183 0.0
N1593 N 0.52695 0.40181 0.91166 0.0
H1594 H 0.50438 0.34013 0.83849 0.0
H1595 H 0.52708 0.37537 0.85047 0.0
H1596 H 0.53292 0.42015 0.9296 0.0
H1597 H 0.5459 0.39604 0.89541 0.0
H1598 H 0.401 0.32321 0.94251 0.0
H1599 H 0.41295 0.30127 0.90627 0.0
H1600 H 0.3977 0.37298 0.95792 0.0
H1601 H 0.42304 0.40451 0.97394 0.0
C1602 C 0.85639 0.25059 0.13316 0.0
C1603 C 0.88311 0.26999 0.14458 0.0
C1604 C 0.86152 0.27211 0.20228 0.0
C1605 C 0.83778 0.24844 0.19214 0.0
N1606 N 0.8046 0.22503 0.14763 0.0
N1607 N 0.90459 0.31003 0.18453 0.0
C1608 C 0.83227 0.24143 0.15719 0.0
C1609 C 0.88318 0.28476 0.17736 0.0
N1610 N 0.8555 0.23901 0.10031 0.0
N1611 N 0.86484 0.28022 0.23603 0.0
H1612 H 0.92052 0.31934 0.16608 0.0
H1613 H 0.90453 0.32359 0.20725 0.0
H1614 H 0.84847 0.27184 0.25447 0.0
H1615 H 0.88417 0.29413 0.24579 0.0
H1616 H 0.83851 0.22174 0.09131 0.0
H1617 H 0.87258 0.24629 0.08214 0.0
H1618 H 0.79788 0.2209 0.12227 0.0
H1619 H 0.78701 0.21818 0.16546 0.0
C1620 C 0.00802 0.66581 0.4739 0.0
C1621 C 0.98772 0.66976 0.44481 0.0
C1622 C 0.96744 0.61263 0.45181 0.0
C1623 C -0.00718 0.60657 0.47508 0.0
N1624 N 0.03585 0.62662 0.51109 0.0
N1625 N 0.95056 0.6452 0.40351 0.0
C1626 C 0.01231 0.63317 0.48754 0.0
C1627 C 0.96761 0.64294 0.4334 0.0
N1628 N 0.02398 0.69281 0.48752 0.0
N1629 N 0.94421 0.5888 0.44583 0.0
H1630 H 0.95155 0.66594 0.38766 0.0
H1631 H 0.93822 0.62511 0.39238 0.0
H1632 H 0.94441 0.56528 0.45718 0.0
H1633 H 0.92321 0.59346 0.43196 0.0
H1634 H 0.0369 0.69196 0.51042 0.0
H1635 H 0.02269 0.71677 0.47708 0.0
H1636 H 0.05356 0.64385 0.51849 0.0
H1637 H 0.03805 0.6031 0.52249 0.0
C1638 C 0.59811 0.78836 0.66992 0.0
C1639 C 0.5764 0.76178 0.67743 0.0
C1640 C 0.61673 0.73534 0.71399 0.0
C1641 C 0.63868 0.76192 0.7065 0.0
N1642 N 0.64705 0.8183 0.68596 0.0
N1643 N 0.56123 0.71535 0.7134 0.0
C1644 C 0.62828 0.78996 0.68719 0.0
C1645 C 0.58441 0.73722 0.70202 0.0
N1646 N 0.59031 0.81141 0.64545 0.0
N1647 N 0.62724 0.70709 0.72997 0.0
H1648 H 0.53743 0.71594 0.70462 0.0
H1649 H 0.56481 0.69892 0.73376 0.0
H1650 H 0.65085 0.70421 0.73841 0.0
H1651 H 0.61323 0.6854 0.73217 0.0
H1652 H 0.60674 0.82884 0.63567 0.0
H1653 H 0.56771 0.81192 0.63359 0.0
H1654 H 0.63963 0.8405 0.67461 0.0
H1655 H 0.66875 0.82069 0.69943 0.0
C1656 C 0.53444 0.50589 0.66026 0.0
C1657 C 0.54251 0.47534 0.67619 0.0
C1658 C 0.53027 0.44515 0.62347 0.0
C1659 C 0.52891 0.47624 0.60599 0.0
N1660 N 0.5309 0.53671 0.60705 0.0
N1661 N 0.54776 0.41543 0.67417 0.0
C1662 C 0.53059 0.50687 0.62422 0.0
C1663 C 0.53969 0.44468 0.65836 0.0
N1664 N 0.53081 0.53387 0.6798 0.0
N1665 N 0.52226 0.41621 0.60668 0.0
H1666 H 0.55299 0.41393 0.70024 0.0
H1667 H 0.55067 0.39295 0.66121 0.0
H1668 H 0.51461 0.41584 0.58119 0.0
H1669 H 0.52019 0.39306 0.61875 0.0
H1670 H 0.52232 0.55643 0.67019 0.0
H1671 H 0.53323 0.53331 0.70642 0.0
H1672 H 0.53559 0.5596 0.61884 0.0
H1673 H 0.52877 0.53857 0.58052 0.0
C1674 C 0.73988 0.33612 0.8833 0.0
C1675 C 0.75697 0.32227 0.91139 0.0
C1676 C 0.77778 0.27933 0.87397 0.0
C1677 C 0.75399 0.28788 0.84968 0.0
N1678 N 0.70942 0.32252 0.83252 0.0
N1679 N 0.78998 0.27749 0.93417 0.0
C1680 C 0.73443 0.31606 0.85429 0.0
C1681 C 0.77596 0.29331 0.90694 0.0
N1682 N 0.72974 0.36847 0.88381 0.0
N1683 N 0.8012 0.25708 0.86574 0.0
H1684 H 0.78684 0.28475 0.95949 0.0
H1685 H 0.80174 0.25473 0.93191 0.0
H1686 H 0.80279 0.24662 0.84134 0.0
H1687 H 0.82069 0.252 0.88182 0.0
H1688 H 0.71905 0.37984 0.86265 0.0
H1689 H 0.7357 0.38501 0.90353 0.0
H1690 H 0.6924 0.34083 0.83749 0.0
H1691 H 0.70447 0.30821 0.8108 0.0
C1692 C 0.95136 0.54482 0.17239 0.0
C1693 C 0.95153 0.51205 0.18616 0.0
C1694 C 0.98065 0.49204 0.13617 0.0
C1695 C 0.97198 0.52185 0.11918 0.0
N1696 N 0.96597 0.58118 0.12479 0.0
N1697 N 0.96983 0.45501 0.18398 0.0
C1698 C 0.96299 0.54994 0.13874 0.0
C1699 C 0.96812 0.48599 0.16938 0.0
N1700 N 0.93827 0.57027 0.19079 0.0
N1701 N 0.00178 0.4706 0.12144 0.0
H1702 H 0.96218 0.45006 0.20887 0.0
H1703 H 0.97765 0.43394 0.17096 0.0
H1704 H 0.01393 0.47644 0.09889 0.0
H1705 H 0.01053 0.4494 0.13368 0.0
H1706 H 0.93388 0.59398 0.18095 0.0
H1707 H 0.93114 0.5672 0.21623 0.0
H1708 H 0.96136 0.6032 0.1379 0.0
H1709 H 0.97611 0.58492 0.10063 0.0
C1710 C 0.73898 0.70871 0.41448 0.0
C1711 C 0.74692 0.67458 0.41099 0.0
C1712 C 0.74926 0.68011 0.34898 0.0
C1713 C 0.73384 0.71109 0.35239 0.0
N1714 N 0.72779 0.76113 0.38515 0.0
N1715 N 0.76865 0.62998 0.37728 0.0
C1716 C 0.7337 0.72763 0.3843 0.0
C1717 C 0.75573 0.66123 0.37887 0.0
N1718 N 0.73417 0.72199 0.44621 0.0
N1719 N 0.7572 0.66902 0.31732 0.0
H1720 H 0.77482 0.61651 0.39922 0.0
H1721 H 0.7735 0.61729 0.35474 0.0
H1722 H 0.75328 0.68372 0.29587 0.0
H1723 H 0.76997 0.64737 0.31251 0.0
H1724 H 0.72532 0.74584 0.45044 0.0
H1725 H 0.73855 0.70864 0.46868 0.0
H1726 H 0.72892 0.7756 0.40723 0.0
H1727 H 0.72436 0.77487 0.36266 0.0
C1728 C 0.58854 0.50999 0.86363 0.0
C1729 C 0.57376 0.49288 0.83598 0.0
C1730 C 0.52757 0.47734 0.87066 0.0
C1731 C 0.53883 0.50054 0.89521 0.0
N1732 N 0.58131 0.53339 0.9204 0.0
N1733 N 0.53865 0.44817 0.81769 0.0
C1734 C 0.57051 0.5139 0.894 0.0
C1735 C 0.54634 0.47225 0.84112 0.0
N1736 N 0.61881 0.52345 0.86011 0.0
N1737 N 0.49773 0.46299 0.87429 0.0
H1738 H 0.55377 0.44318 0.79713 0.0
H1739 H 0.51961 0.4312 0.82041 0.0
H1740 H 0.4841 0.46634 0.89639 0.0
H1741 H 0.48639 0.44849 0.85558 0.0
H1742 H 0.63162 0.53522 0.87969 0.0
H1743 H 0.63214 0.52109 0.83772 0.0
H1744 H 0.60304 0.54663 0.92057 0.0
H1745 H 0.5676 0.53649 0.94248 0.0
C1746 C 0.75843 0.33288 0.10329 0.0
C1747 C 0.73595 0.3187 0.07973 0.0
C1748 C 0.71365 0.28331 0.12525 0.0
C1749 C 0.73706 0.297 0.14784 0.0
N1750 N 0.78868 0.32415 0.15542 0.0
N1751 N 0.69586 0.27622 0.06639 0.0
C1752 C 0.76184 0.3182 0.13581 0.0
C1753 C 0.71488 0.29226 0.09002 0.0
N1754 N 0.77528 0.36142 0.09563 0.0
N1755 N 0.68983 0.26279 0.13769 0.0
H1756 H 0.69484 0.28338 0.04073 0.0
H1757 H 0.68257 0.25459 0.07177 0.0
H1758 H 0.6891 0.25506 0.16321 0.0
H1759 H 0.67002 0.2548 0.12326 0.0
H1760 H 0.79083 0.37336 0.11279 0.0
H1761 H 0.77061 0.37569 0.07408 0.0
H1762 H 0.80917 0.33632 0.14597 0.0
H1763 H 0.79187 0.31349 0.1796 0.0
C1764 C 0.92783 0.51397 0.3377 0.0
C1765 C 0.90742 0.48549 0.33335 0.0
C1766 C 0.93111 0.45884 0.38368 0.0
C1767 C 0.95124 0.48738 0.38801 0.0
N1768 N 0.96035 0.54634 0.37707 0.0
N1769 N 0.88257 0.43602 0.35747 0.0
C1770 C 0.94688 0.51633 0.36758 0.0
C1771 C 0.90673 0.45959 0.35819 0.0
N1772 N 0.93099 0.53773 0.31263 0.0
N1773 N 0.93621 0.43064 0.40267 0.0
H1774 H 0.86392 0.43655 0.33943 0.0
H1775 H 0.87919 0.4182 0.37665 0.0
H1776 H 0.9542 0.42907 0.42133 0.0
H1777 H 0.92431 0.40799 0.39807 0.0
H1778 H 0.94888 0.55627 0.31317 0.0
H1779 H 0.91791 0.53786 0.28989 0.0
H1780 H 0.95491 0.56883 0.36496 0.0
H1781 H 0.97418 0.5495 0.3992 0.0
C1782 C 0.7615 0.70371 0.58684 0.0
C1783 C 0.75854 0.66845 0.58503 0.0
C1784 C 0.7688 0.6654 0.64665 0.0
C1785 C 0.76397 0.70019 0.64905 0.0
N1786 N 0.74943 0.75199 0.62051 0.0
N1787 N 0.75425 0.6155 0.61541 0.0
C1788 C 0.75859 0.71933 0.61891 0.0
C1789 C 0.76106 0.649 0.61548 0.0
N1790 N 0.76833 0.7223 0.55832 0.0
N1791 N 0.78169 0.64825 0.67354 0.0
H1792 H 0.74595 0.60265 0.59389 0.0
H1793 H 0.75343 0.6013 0.63782 0.0
H1794 H 0.7883 0.65995 0.69644 0.0
H1795 H 0.78837 0.62327 0.67175 0.0
H1796 H 0.7731 0.74795 0.55932 0.0
H1797 H 0.7735 0.7116 0.53468 0.0
H1798 H 0.7425 0.7655 0.59889 0.0
H1799 H 0.74521 0.76451 0.6433 0.0
C1800 C 0.63159 0.59001 0.47866 0.0
C1801 C 0.65849 0.57555 0.49568 0.0
C1802 C 0.62818 0.52318 0.50359 0.0
C1803 C 0.60185 0.53674 0.48457 0.0
N1804 N 0.579 0.58177 0.45185 0.0
N1805 N 0.68068 0.53143 0.53021 0.0
C1806 C 0.60349 0.57003 0.47196 0.0
C1807 C 0.6565 0.54277 0.50929 0.0
N1808 N 0.63289 0.62296 0.46921 0.0
N1809 N 0.62601 0.49148 0.51668 0.0
H1810 H 0.70138 0.54537 0.53608 0.0
H1811 H 0.67965 0.50925 0.54409 0.0
H1812 H 0.60423 0.4788 0.52008 0.0
H1813 H 0.64577 0.47741 0.52412 0.0
H1814 H 0.61299 0.6364 0.46094 0.0
H1815 H 0.65371 0.63772 0.47126 0.0
H1816 H 0.57973 0.60454 0.43896 0.0
H1817 H 0.55836 0.56768 0.4461 0.0
C1818 C 0.15461 0.97796 0.52178 0.0
C1819 C 0.16133 0.94571 0.50878 0.0
C1820 C 0.10625 0.9393 0.4875 0.0
C1821 C 0.09879 0.96995 0.50354 0.0
N1822 N 0.11535 0.02244 0.52759 0.0
N1823 N 0.14636 0.89846 0.47302 0.0
C1824 C 0.12302 0.99081 0.51772 0.0
C1825 C 0.13818 0.92752 0.48912 0.0
N1826 N 0.17817 -0.00447 0.5388 0.0
N1827 N 0.08199 0.92022 0.47339 0.0
H1828 H 0.16849 0.88682 0.47606 0.0
H1829 H 0.13182 0.88645 0.45495 0.0
H1830 H 0.05851 0.92884 0.47078 0.0
H1831 H 0.08442 0.89553 0.46561 0.0
H1832 H 0.17443 0.018 0.55143 0.0
H1833 H 0.2018 0.98705 0.54093 0.0
H1834 H 0.13195 0.04003 0.5367 0.0
H1835 H 0.09219 0.03184 0.52411 0.0
C1836 C 0.31702 0.89133 0.71526 0.0
C1837 C 0.34499 0.89797 0.73458 0.0
C1838 C 0.3282 0.85698 0.77782 0.0
C1839 C 0.29791 0.85444 0.76113 0.0
N1840 N 0.26182 0.87258 0.71565 0.0
N1841 N 0.37826 0.88833 0.78425 0.0
C1842 C 0.29184 0.87245 0.73023 0.0
C1843 C 0.35114 0.88082 0.76572 0.0
N1844 N 0.31468 0.90329 0.68253 0.0
N1845 N 0.33495 0.83665 0.80502 0.0
H1846 H 0.39656 0.90376 0.77475 0.0
H1847 H 0.38212 0.88023 0.80927 0.0
H1848 H 0.31806 0.81991 0.81531 0.0
H1849 H 0.35777 0.83488 0.81605 0.0
H1850 H 0.29602 0.89686 0.66579 0.0
H1851 H 0.33328 0.91701 0.67098 0.0
H1852 H 0.25543 0.88828 0.6955 0.0
H1853 H 0.24225 0.85933 0.72527 0.0
C1854 C 0.37114 0.09863 -0.005 0.0
C1855 C 0.34504 0.08762 0.97398 0.0
C1856 C 0.36278 0.03023 0.97705 0.0
C1857 C 0.387 0.04032 0.00061 0.0
N1858 N 0.42015 0.08384 0.02557 0.0
N1859 N 0.32537 0.0478 0.93294 0.0
C1860 C 0.39344 0.07458 0.00707 0.0
C1861 C 0.34466 0.05503 0.96042 0.0
N1862 N 0.37342 0.13119 0.00524 0.0
N1863 N 0.35551 -0.00289 0.97247 0.0
H1864 H 0.31203 0.06634 0.92066 0.0
H1865 H 0.32498 0.02467 0.92073 0.0
H1866 H 0.36898 0.978 0.98352 0.0
H1867 H 0.33537 0.98872 0.95876 0.0
H1868 H 0.38854 0.13952 0.02487 0.0
H1869 H 0.36048 0.15027 -0.00631 0.0
H1870 H 0.42791 0.10852 0.02856 0.0
H1871 H 0.43613 0.06653 0.03584 0.0
C1872 C 0.66713 0.60832 0.7142 0.0
C1873 C 0.63994 0.59772 0.73303 0.0
C1874 C 0.65061 0.64108 0.77556 0.0
C1875 C 0.68153 0.64588 0.76109 0.0
N1876 N 0.71991 0.63441 0.71675 0.0
N1877 N 0.60359 0.60489 0.78043 0.0
C1878 C 0.6897 0.63042 0.72982 0.0
C1879 C 0.63045 0.615 0.7629 0.0
N1880 N 0.67154 0.59647 0.68183 0.0
N1881 N 0.64088 0.66141 0.8015 0.0
H1882 H 0.58762 0.58666 0.77126 0.0
H1883 H 0.5978 0.61356 0.80472 0.0
H1884 H 0.65539 0.68092 0.81084 0.0
H1885 H 0.61759 0.66115 0.81133 0.0
H1886 H 0.68957 0.60531 0.66554 0.0
H1887 H 0.65496 0.58012 0.67027 0.0
H1888 H 0.72842 0.62004 0.69663 0.0
H1889 H 0.73712 0.65034 0.72775 0.0
C1890 C 0.84391 0.41804 0.96765 0.0
C1891 C 0.82752 0.41681 -0.0004 0.0
C1892 C 0.873 0.4437 0.02818 0.0
C1893 C 0.88717 0.4493 -0.00415 0.0
N1894 N 0.89014 0.43934 0.93552 0.0
N1895 N 0.8238 0.43263 0.05904 0.0
C1896 C 0.87406 0.43524 0.96572 0.0
C1897 C 0.84151 0.43033 0.02969 0.0
N1898 N 0.83046 0.4032 0.93941 0.0
N1899 N 0.88967 0.45189 0.05735 0.0
H1900 H 0.79979 0.42479 0.06058 0.0
H1901 H 0.83167 0.44542 0.08077 0.0
H1902 H 0.91296 0.46209 0.05681 0.0
H1903 H 0.88184 0.44564 0.08185 0.0
H1904 H 0.84219 0.40038 0.91616 0.0
H1905 H 0.80718 0.39322 0.93919 0.0
H1906 H 0.88132 0.43185 0.91175 0.0
H1907 H 0.91297 0.45062 0.93443 0.0
C1908 C 0.2886 0.09681 0.76867 0.0
C1909 C 0.31614 0.08725 0.74976 0.0
C1910 C 0.31241 0.13827 0.71603 0.0
C1911 C 0.29019 0.15132 0.73971 0.0
N1912 N 0.25645 0.14242 0.78962 0.0
N1913 N 0.35861 0.1033 0.71029 0.0
C1914 C 0.2776 0.13034 0.76612 0.0
C1915 C 0.32912 0.10898 0.72448 0.0
N1916 N 0.27267 0.07377 0.78844 0.0
N1917 N 0.31761 0.15399 0.68542 0.0
H1918 H 0.3735 0.08385 0.7179 0.0
H1919 H 0.36998 0.12043 0.69403 0.0
H1920 H 0.30447 0.17483 0.67775 0.0
H1921 H 0.332 0.14391 0.66631 0.0
H1922 H 0.25062 0.07837 0.80008 0.0
H1923 H 0.27991 0.04896 0.79045 0.0
H1924 H 0.24981 0.12931 0.81161 0.0
H1925 H 0.24677 0.16622 0.78854 0.0
C1926 C 0.18639 0.88991 0.27199 0.0
C1927 C 0.1571 0.8951 0.25417 0.0
C1928 C 0.16471 0.84518 0.22002 0.0
C1929 C 0.19631 0.84352 0.23353 0.0
N1930 N 0.23693 0.85977 0.27448 0.0
N1931 N 0.11385 0.8743 0.21814 0.0
C1932 C 0.20678 0.86398 0.26095 0.0
C1933 C 0.1445 0.87124 0.2308 0.0
N1934 N 0.19447 0.91012 0.29898 0.0
N1935 N 0.15559 0.82366 0.19449 0.0
H1936 H 0.09886 0.89405 0.22433 0.0
H1937 H 0.1023 0.85653 0.20287 0.0
H1938 H 0.16969 0.80339 0.18738 0.0
H1939 H 0.13474 0.82591 0.17984 0.0
H1940 H 0.21504 0.90741 0.31397 0.0
H1941 H 0.1792 0.92877 0.30776 0.0
H1942 H 0.24743 0.87524 0.29287 0.0
H1943 H 0.25177 0.84029 0.2669 0.0
C1944 C 0.47686 0.33041 0.46314 0.0
C1945 C 0.47659 0.32894 0.42685 0.0
C1946 C 0.49215 0.38809 0.42321 0.0
C1947 C 0.49546 0.38854 0.45924 0.0
N1948 N 0.48137 0.36542 0.51389 0.0
N1949 N 0.47297 0.35812 0.37297 0.0
C1950 C 0.48434 0.36137 0.47934 0.0
C1951 C 0.48054 0.35849 0.40706 0.0
N1952 N 0.47192 0.30196 0.48194 0.0
N1953 N 0.50196 0.41523 0.40447 0.0
H1954 H 0.46434 0.33669 0.36059 0.0
H1955 H 0.47241 0.37949 0.35773 0.0
H1956 H 0.50928 0.43767 0.41585 0.0
H1957 H 0.50377 0.41529 0.3779 0.0
H1958 H 0.47526 0.30062 0.50832 0.0
H1959 H 0.46593 0.279 0.47087 0.0
H1960 H 0.4711 0.34758 0.53009 0.0
H1961 H 0.48655 0.38823 0.52582 0.0
C1962 C 0.38847 0.73366 0.17553 0.0
C1963 C 0.41102 0.76013 0.18018 0.0
C1964 C 0.3734 0.7893 0.21721 0.0
C1965 C 0.3491 0.76634 0.20688 0.0
N1966 N 0.33264 0.71563 0.17767 0.0
N1967 N 0.42694 0.81222 0.20666 0.0
C1968 C 0.35652 0.73776 0.18706 0.0
C1969 C 0.40439 0.78738 0.20208 0.0
N1970 N 0.39786 0.70473 0.16001 0.0
N1971 N 0.36648 0.81287 0.24124 0.0
H1972 H 0.45008 0.8111 0.19646 0.0
H1973 H 0.42242 0.83455 0.21929 0.0
H1974 H 0.34376 0.81426 0.25254 0.0
H1975 H 0.38362 0.82892 0.25207 0.0
H1976 H 0.38324 0.68354 0.1575 0.0
H1977 H 0.42151 0.70081 0.15211 0.0
H1978 H 0.33553 0.69689 0.15956 0.0
H1979 H 0.30915 0.71678 0.18688 0.0
C1980 C 0.97427 0.63559 0.91278 0.0
C1981 C 0.98795 0.66339 0.93084 0.0
C1982 C -0.00819 0.62997 0.98294 0.0
C1983 C 0.97565 0.60358 0.96574 0.0
N1984 N 0.96202 0.57599 0.91319 0.0
N1985 N 0.02089 0.68268 0.97799 0.0
C1986 C 0.97088 0.60455 0.93007 0.0
C1987 C 0.00048 0.6591 0.96434 0.0
N1988 N 0.96198 0.63926 0.88046 0.0
N1989 N -0.00244 0.62754 0.01732 0.0
H1990 H 0.02835 0.70383 0.9643 0.0
H1991 H 0.03293 0.67962 0.00122 0.0
H1992 H -0.00693 0.6055 0.03098 0.0
H1993 H 0.00576 0.64745 0.03228 0.0
H1994 H 0.94832 0.62084 0.86812 0.0
H1995 H 0.96334 0.66126 0.86634 0.0
H1996 H 0.96123 0.57406 0.88661 0.0
H1997 H 0.95881 0.55325 0.92596 0.0
C1998 C 0.10497 0.20651 0.68669 0.0
C1999 C 0.09666 0.23385 0.6654 0.0
C2000 C 0.13544 0.26989 0.69436 0.0
C2001 C 0.14532 0.24218 0.71419 0.0
N2002 N 0.1443 0.18289 0.72559 0.0
N2003 N 0.10892 0.28857 0.64271 0.0
C2004 C 0.1317 0.20996 0.70912 0.0
C2005 C 0.11369 0.26455 0.66709 0.0
N2006 N 0.08633 0.17808 0.68685 0.0
N2007 N 0.14524 0.30153 0.70294 0.0
H2008 H 0.09311 0.28506 0.62215 0.0
H2009 H 0.12296 0.31031 0.64104 0.0
H2010 H 0.16017 0.30654 0.72392 0.0
H2011 H 0.13588 0.32291 0.69153 0.0
H2012 H 0.08904 0.15891 0.70467 0.0
H2013 H 0.06661 0.1747 0.67058 0.0
H2014 H 0.13734 0.15833 0.7202 0.0
H2015 H 0.16354 0.18486 0.74283 0.0
C2016 C 0.46308 0.65141 0.05046 0.0
C2017 C 0.48808 0.65959 0.07364 0.0
C2018 C 0.5135 0.60554 0.06385 0.0
C2019 C 0.49209 0.60053 0.03613 0.0
N2020 N 0.44523 0.61715 0.00316 0.0
N2021 N 0.53768 0.64544 0.10269 0.0
C2022 C 0.46622 0.62282 0.02973 0.0
C2023 C 0.51307 0.6366 0.08112 0.0
N2024 N 0.43614 0.67076 0.04883 0.0
N2025 N 0.5347 0.58115 0.073 0.0
H2026 H 0.53816 0.6679 0.11579 0.0
H2027 H 0.55862 0.63169 0.10592 0.0
H2028 H 0.53671 0.5587 0.05972 0.0
H2029 H 0.54847 0.58192 0.09535 0.0
H2030 H 0.4156 0.66443 0.03473 0.0
H2031 H 0.43307 0.69172 0.0643 0.0
H2032 H 0.42921 0.63492 -0.00602 0.0
H2033 H 0.44448 0.59496 0.98927 0.0
C2034 C 0.11753 0.73181 0.84062 0.0
C2035 C 0.0892 0.74752 0.82812 0.0
C2036 C 0.11769 0.76147 0.77586 0.0
C2037 C 0.14701 0.75657 0.79312 0.0
N2038 N 0.17593 0.7342 0.8413 0.0
N2039 N 0.06504 0.78342 0.78467 0.0
C2040 C 0.14742 0.74015 0.82511 0.0
C2041 C 0.08953 0.76333 0.79546 0.0
N2042 N 0.11586 0.70887 0.86649 0.0
N2043 N 0.11752 0.76786 0.74155 0.0
H2044 H 0.04591 0.79043 0.80011 0.0
H2045 H 0.06617 0.79706 0.76192 0.0
H2046 H 0.13872 0.76736 0.72721 0.0
H2047 H 0.09624 0.77008 0.72742 0.0
H2048 H 0.1357 0.69515 0.8746 0.0
H2049 H 0.094 0.70083 0.87697 0.0
H2050 H 0.17734 0.7254 0.86638 0.0
H2051 H 0.19801 0.73946 0.82978 0.0
C2052 C 0.00345 0.35113 0.58629 0.0
C2053 C 0.01002 0.32379 0.56492 0.0
C2054 C -0.00315 0.35759 0.5144 0.0
C2055 C 0.98419 0.38231 0.53643 0.0
N2056 N 0.97374 0.4013 0.59452 0.0
N2057 N 0.0138 0.29991 0.50853 0.0
C2058 C 0.987 0.37872 0.57268 0.0
C2059 C 0.00748 0.3268 0.5288 0.0
N2060 N 0.01403 0.35118 0.61954 0.0
N2061 N -0.00154 0.36346 0.47998 0.0
H2062 H 0.02211 0.27732 0.51836 0.0
H2063 H 0.00922 0.29936 0.48231 0.0
H2064 H -0.01034 0.38518 0.46865 0.0
H2065 H 0.01048 0.34795 0.46303 0.0
H2066 H 0.01302 0.37207 0.63538 0.0
H2067 H 0.02729 0.33164 0.63009 0.0
H2068 H 0.97109 0.39687 0.62066 0.0
H2069 H 0.96369 0.42363 0.58677 0.0
C2070 C 0.39717 0.21648 0.29264 0.0
C2071 C 0.40507 0.24168 0.31679 0.0
C2072 C 0.35025 0.26288 0.31495 0.0
C2073 C 0.34161 0.23583 0.2932 0.0
N2074 N 0.35706 0.19349 0.25326 0.0
N2075 N 0.39334 0.29468 0.34247 0.0
C2076 C 0.36532 0.21487 0.27918 0.0
C2077 C 0.38293 0.26698 0.32499 0.0
N2078 N 0.41965 0.19328 0.28408 0.0
N2079 N 0.32694 0.28327 0.32761 0.0
H2080 H 0.4174 0.29817 0.34966 0.0
H2081 H 0.37909 0.31543 0.34699 0.0
H2082 H 0.30288 0.28176 0.3198 0.0
H2083 H 0.33103 0.30078 0.34687 0.0
H2084 H 0.41458 0.17212 0.26946 0.0
H2085 H 0.44347 0.19469 0.29273 0.0
H2086 H 0.37358 0.17914 0.23998 0.0
H2087 H 0.33374 0.19236 0.2431 0.0
C2088 C 0.46447 0.51637 0.32018 0.0
C2089 C 0.44314 0.48892 0.31436 0.0
C2090 C 0.4438 0.47447 0.37516 0.0
C2091 C 0.46242 0.50393 0.38145 0.0
N2092 N 0.49532 0.54967 0.36139 0.0
N2093 N 0.4121 0.44164 0.33469 0.0
C2094 C 0.47445 0.52382 0.35426 0.0
C2095 C 0.43334 0.46738 0.34131 0.0
N2096 N 0.47384 0.53593 0.29314 0.0
N2097 N 0.43578 0.45363 0.40171 0.0
H2098 H 0.40494 0.43497 0.30997 0.0
H2099 H 0.40043 0.42757 0.35342 0.0
H2100 H 0.44169 0.45874 0.42712 0.0
H2101 H 0.42523 0.43008 0.39872 0.0
H2102 H 0.48761 0.55772 0.29519 0.0
H2103 H 0.46743 0.53032 0.26793 0.0
H2104 H 0.50615 0.56493 0.34309 0.0
H2105 H 0.50317 0.55502 0.38624 0.0
C2106 C 0.27596 0.68264 0.0859 0.0
C2107 C 0.25178 0.65835 0.07982 0.0
C2108 C 0.22106 0.67778 0.12905 0.0
C2109 C 0.24215 0.70581 0.13072 0.0
N2110 N 0.2912 0.73461 0.11299 0.0
N2111 N 0.2027 0.62972 0.0968 0.0
C2112 C 0.27023 0.70805 0.10999 0.0
C2113 C 0.22509 0.65445 0.10226 0.0
N2114 N 0.30465 0.68069 0.06894 0.0
N2115 N 0.19712 0.6737 0.15275 0.0
H2116 H 0.20641 0.61028 0.07986 0.0
H2117 H 0.18024 0.62861 0.10853 0.0
H2118 H 0.19189 0.69157 0.17125 0.0
H2119 H 0.1835 0.65182 0.15549 0.0
H2120 H 0.32468 0.69576 0.07428 0.0
H2121 H 0.30941 0.66149 0.05167 0.0
H2122 H 0.30918 0.74008 0.09526 0.0
H2123 H 0.29035 0.75202 0.13273 0.0
C2124 C 0.05155 0.53734 0.85011 0.0
C2125 C 0.04609 0.51372 0.82362 0.0
C2126 C 0.01344 0.47872 0.86192 0.0
C2127 C 0.02011 0.50164 0.88853 0.0
N2128 N 0.03721 0.55657 0.90669 0.0
N2129 N 0.01546 0.46705 0.80111 0.0
C2130 C 0.0361 0.53245 0.88198 0.0
C2131 C 0.02486 0.486 0.82849 0.0
N2132 N 0.07336 0.56296 0.84574 0.0
N2133 N -0.00284 0.44961 0.86909 0.0
H2134 H 0.02246 0.47291 0.77628 0.0
H2135 H -0.00153 0.44771 0.80237 0.0
H2136 H 0.98707 0.44485 0.89308 0.0
H2137 H -0.00549 0.4299 0.85192 0.0
H2138 H 0.08143 0.57834 0.86556 0.0
H2139 H 0.08529 0.56763 0.82277 0.0
H2140 H 0.04578 0.58081 0.90249 0.0
H2141 H 0.02651 0.55328 0.93055 0.0
C2142 C 0.23439 0.32973 0.61162 0.0
C2143 C 0.2337 0.31066 0.58107 0.0
C2144 C 0.25888 0.26428 0.61144 0.0
C2145 C 0.26455 0.28587 0.63957 0.0
N2146 N 0.26406 0.34141 0.66352 0.0
N2147 N 0.24894 0.2606 0.55056 0.0
C2148 C 0.25398 0.31924 0.63901 0.0
C2149 C 0.24646 0.27786 0.58056 0.0
N2150 N 0.2163 0.3579 0.61432 0.0
N2151 N 0.26538 0.23096 0.61423 0.0
H2152 H 0.24065 0.26954 0.52715 0.0
H2153 H 0.26156 0.23835 0.54843 0.0
H2154 H 0.27492 0.22036 0.63645 0.0
H2155 H 0.25874 0.2135 0.59565 0.0
H2156 H 0.2153 0.37227 0.63646 0.0
H2157 H 0.1998 0.36497 0.59551 0.0
H2158 H 0.25997 0.36703 0.66181 0.0
H2159 H 0.27867 0.33467 0.68417 0.0
C2160 C 0.41702 0.5144 0.12494 0.0
C2161 C 0.43359 0.51251 0.15661 0.0
C2162 C 0.47985 0.48835 0.12828 0.0
C2163 C 0.46052 0.4834 0.09869 0.0
N2164 N 0.4104 0.49063 0.06833 0.0
N2165 N 0.48034 0.49647 0.18951 0.0
C2166 C 0.42922 0.49681 0.09644 0.0
C2167 C 0.46522 0.49983 0.15856 0.0
N2168 N 0.38952 0.53265 0.12246 0.0
N2169 N 0.51207 0.48169 0.12736 0.0
H2170 H 0.4706 0.50515 0.2123 0.0
H2171 H 0.50156 0.48316 0.19287 0.0
H2172 H 0.52349 0.47375 0.10511 0.0
H2173 H 0.52789 0.48726 0.1474 0.0
H2174 H 0.37761 0.53698 0.0994 0.0
H2175 H 0.38044 0.54603 0.14315 0.0
H2176 H 0.38598 0.49629 0.06712 0.0
H2177 H 0.41884 0.47805 0.04688 0.0
C2178 C 0.23174 0.69938 0.9106 0.0
C2179 C 0.23485 0.6642 0.91256 0.0
C2180 C 0.26609 0.66385 0.85988 0.0
C2181 C 0.26584 0.6996 0.85936 0.0
N2182 N 0.25135 0.7516 0.88587 0.0
N2183 N 0.25719 0.61275 0.89144 0.0
C2184 C 0.24938 0.71745 0.88522 0.0
C2185 C 0.25283 0.64651 0.88804 0.0
N2186 N 0.21178 0.71533 0.93283 0.0
N2187 N 0.27652 0.64587 0.8324 0.0
H2188 H 0.24427 0.59773 0.90854 0.0
H2189 H 0.27491 0.59979 0.87831 0.0
H2190 H 0.28702 0.65598 0.81076 0.0
H2191 H 0.27223 0.6203 0.82952 0.0
H2192 H 0.20582 0.74045 0.93073 0.0
H2193 H 0.19913 0.70272 0.95205 0.0
H2194 H 0.2422 0.76616 0.90552 0.0
H2195 H 0.2645 0.76541 0.86791 0.0
C2196 C 0.06258 0.46413 0.64267 0.0
C2197 C 0.06127 0.48963 0.66753 0.0
C2198 C 0.02559 0.52288 0.63136 0.0
C2199 C 0.02283 0.49513 0.60929 0.0
N2200 N 0.04061 0.44105 0.59002 0.0
N2201 N 0.04576 0.54491 0.6852 0.0
C2202 C 0.04231 0.46639 0.61349 0.0
C2203 C 0.0443 0.51975 0.66157 0.0
N2204 N 0.08316 0.43799 0.64723 0.0
N2205 N 0.0108 0.55217 0.62285 0.0
H2206 H 0.06127 0.54439 0.70622 0.0
H2207 H 0.03143 0.56604 0.68457 0.0
H2208 H -0.0029 0.55488 0.60056 0.0
H2209 H 0.01372 0.57443 0.63628 0.0
H2210 H 0.08711 0.41939 0.62925 0.0
H2211 H 0.09815 0.43586 0.66864 0.0
H2212 H 0.05181 0.4181 0.59277 0.0
H2213 H 0.02721 0.44256 0.56747 0.0
C2214 C 0.22046 0.3486 0.37924 0.0
C2215 C 0.22904 0.33763 0.41271 0.0
C2216 C 0.2111 0.28116 0.39861 0.0
C2217 C 0.21088 0.28993 0.3636 0.0
N2218 N 0.20034 0.3333 0.3225 0.0
N2219 N 0.23593 0.29225 0.45317 0.0
C2220 C 0.21102 0.32426 0.35429 0.0
C2221 C 0.22487 0.30365 0.42231 0.0
N2222 N 0.2209 0.38203 0.37177 0.0
N2223 N 0.1973 0.25176 0.40917 0.0
H2224 H 0.24838 0.30739 0.47061 0.0
H2225 H 0.23587 0.26695 0.45969 0.0
H2226 H 0.18452 0.23627 0.39226 0.0
H2227 H 0.19487 0.2453 0.43492 0.0
H2228 H 0.21569 0.3921 0.34787 0.0
H2229 H 0.22631 0.40033 0.38995 0.0
H2230 H 0.20112 0.35746 0.3127 0.0
H2231 H 0.18798 0.31647 0.30665 0.0
C2232 C 0.33738 0.43662 0.53995 0.0
C2233 C 0.33116 0.41408 0.51264 0.0
C2234 C 0.38645 0.42234 0.49214 0.0
C2235 C 0.38996 0.45015 0.51446 0.0
N2236 N 0.37118 0.48135 0.56289 0.0
N2237 N 0.34936 0.38539 0.4621 0.0
C2238 C 0.36618 0.45632 0.53961 0.0
C2239 C 0.35577 0.40642 0.48892 0.0
N2240 N 0.31622 0.43832 0.56663 0.0
N2241 N 0.41224 0.41091 0.47418 0.0
H2242 H 0.32728 0.37309 0.45872 0.0
H2243 H 0.36501 0.38217 0.44164 0.0
H2244 H 0.4353 0.42114 0.47632 0.0
H2245 H 0.41173 0.38879 0.46016 0.0
H2246 H 0.32063 0.45195 0.58886 0.0
H2247 H 0.29524 0.42369 0.56792 0.0
H2248 H 0.35345 0.49015 0.57921 0.0
H2249 H 0.39327 0.49398 0.56523 0.0
C2250 C 0.84562 0.05894 0.51248 0.0
C2251 C 0.82261 0.05566 0.48587 0.0
C2252 C 0.85967 0.02143 0.45311 0.0
C2253 C 0.88438 0.03034 0.47655 0.0
N2254 N 0.90205 0.0598 0.52758 0.0
N2255 N 0.80681 0.03454 0.43039 0.0
C2256 C 0.87763 0.0491 0.50643 0.0
C2257 C 0.82902 0.03644 0.4563 0.0
N2258 N 0.83676 0.07196 0.54333 0.0
N2259 N 0.86587 -0.00092 0.42766 0.0
H2260 H 0.78397 0.045 0.43207 0.0
H2261 H 0.81159 0.02425 0.40652 0.0
H2262 H 0.88835 0.98791 0.42506 0.0
H2263 H 0.84822 0.98941 0.41127 0.0
H2264 H 0.8519 0.07292 0.56463 0.0
H2265 H 0.81312 0.07893 0.54857 0.0
H2266 H 0.89899 0.07739 0.54687 0.0
H2267 H 0.92599 0.05279 0.52476 0.0
C2268 C 0.67243 0.10763 0.21244 0.0
C2269 C 0.65247 0.10626 0.24179 0.0
C2270 C 0.68342 0.15038 0.26945 0.0
C2271 C 0.70456 0.15069 0.24085 0.0
N2272 N 0.71597 0.13606 0.1824 0.0
N2273 N 0.63213 0.13181 0.29274 0.0
C2274 C 0.69803 0.13133 0.21134 0.0
C2275 C 0.65558 0.12973 0.26841 0.0
N2276 N 0.66724 0.08547 0.18629 0.0
N2277 N 0.69101 0.16813 0.29837 0.0
H2278 H 0.61157 0.11649 0.29244 0.0
H2279 H 0.63144 0.15063 0.3111 0.0
H2280 H 0.71133 0.18359 0.30052 0.0
H2281 H 0.67856 0.16568 0.32133 0.0
H2282 H 0.68305 0.08215 0.16602 0.0
H2283 H 0.64708 0.06959 0.1854 0.0
H2284 H 0.71076 0.12478 0.15901 0.0
H2285 H 0.73508 0.15324 0.18108 0.0
C2286 C 0.6438 0.94725 0.96637 0.0
C2287 C 0.64378 0.92644 -0.00442 0.0
C2288 C 0.58695 0.9375 0.00417 0.0
C2289 C 0.58837 0.9625 0.97808 0.0
N2290 N 0.62393 -0.00083 0.94506 0.0
N2291 N 0.61757 0.90904 0.04794 0.0
C2292 C 0.61846 0.96984 0.96219 0.0
C2293 C 0.6161 0.92392 0.01647 0.0
N2294 N 0.66733 0.94514 0.94215 0.0
N2295 N 0.55828 0.9248 0.01557 0.0
H2296 H 0.63887 0.89949 0.05811 0.0
H2297 H 0.59847 0.90955 0.06519 0.0
H2298 H 0.53651 0.92968 0.00347 0.0
H2299 H 0.55672 0.90547 0.03347 0.0
H2300 H 0.66619 0.95826 0.91907 0.0
H2301 H 0.68574 0.92768 0.94329 0.0
H2302 H 0.64636 0.00542 0.9347 0.0
H2303 H 0.60819 0.01925 0.94593 0.0
C2304 C 0.33057 0.37086 0.24944 0.0
C2305 C 0.32374 0.4032 0.23652 0.0
C2306 C 0.26845 0.3851 0.22485 0.0
C2307 C 0.27706 0.35138 0.23061 0.0
N2308 N 0.3195 0.31185 0.24285 0.0
N2309 N 0.28765 0.43813 0.20352 0.0
C2310 C 0.30887 0.34399 0.24195 0.0
C2311 C 0.29299 0.40972 0.22215 0.0
N2312 N 0.35752 0.36574 0.26889 0.0
N2313 N 0.2368 0.39356 0.22143 0.0
H2314 H 0.30564 0.45572 0.19796 0.0
H2315 H 0.2663 0.44205 0.18998 0.0
H2316 H 0.21804 0.37616 0.22457 0.0
H2317 H 0.22934 0.4183 0.21944 0.0
H2318 H 0.36192 0.34318 0.28141 0.0
H2319 H 0.37361 0.385 0.27536 0.0
H2320 H 0.34342 0.30582 0.24795 0.0
H2321 H 0.30553 0.29155 0.23487 0.0
C2322 C 0.11437 0.60448 0.00631 0.0
C2323 C 0.1416 0.59131 0.02327 0.0
C2324 C 0.10742 0.55046 0.05215 0.0
C2325 C 0.08333 0.55658 0.02749 0.0
N2326 N 0.06171 0.59223 0.98287 0.0
N2327 N 0.16451 0.55206 0.06368 0.0
C2328 C 0.08555 0.58516 0.00586 0.0
C2329 C 0.13822 0.56486 0.04728 0.0
N2330 N 0.11634 0.63453 0.98968 0.0
N2331 N 0.10096 0.52966 0.07908 0.0
H2332 H 0.18778 0.56157 0.06049 0.0
H2333 H 0.16353 0.53041 0.07854 0.0
H2334 H 0.07807 0.51899 0.08257 0.0
H2335 H 0.11697 0.52599 0.09934 0.0
H2336 H 0.0963 0.64675 0.9798 0.0
H2337 H 0.13749 0.64881 0.98853 0.0
H2338 H 0.0644 0.60946 0.96303 0.0
H2339 H 0.03934 0.58038 0.98288 0.0
C2340 C 0.67116 0.8907 0.22776 0.0
C2341 C 0.67692 0.91459 0.25359 0.0
C2342 C 0.71477 0.87699 0.28191 0.0
C2343 C 0.70334 0.85103 0.26036 0.0
N2344 N 0.66868 0.83209 0.21419 0.0
N2345 N 0.70569 0.93289 0.304 0.0
C2346 C 0.68158 0.85771 0.2331 0.0
C2347 C 0.69979 0.90878 0.27997 0.0
N2348 N 0.65527 0.89958 0.19846 0.0
N2349 N 0.73923 0.87083 0.30449 0.0
H2350 H 0.69562 0.95663 0.30248 0.0
H2351 H 0.71951 0.92912 0.32594 0.0
H2352 H 0.75012 0.84748 0.30615 0.0
H2353 H 0.75035 0.88921 0.31942 0.0
H2354 H 0.65282 0.88384 0.17736 0.0
H2355 H 0.64757 0.92397 0.19401 0.0
H2356 H 0.64972 0.83508 0.19691 0.0
H2357 H 0.67505 0.80728 0.21795 0.0
C2358 C 0.81686 0.11861 0.70984 0.0
C2359 C 0.82451 0.09547 0.73616 0.0
C2360 C 0.78398 0.11902 0.77292 0.0
C2361 C 0.78178 0.14647 0.75033 0.0
N2362 N 0.78258 0.16416 0.69171 0.0
N2363 N 0.81863 0.07644 0.79486 0.0
C2364 C 0.79425 0.14406 0.71689 0.0
C2365 C 0.80864 0.09601 0.76815 0.0
N2366 N 0.83199 0.1169 0.6789 0.0
N2367 N 0.76196 0.11485 0.79853 0.0
H2368 H 0.83821 0.06042 0.79347 0.0
H2369 H 0.80964 0.07886 0.8196 0.0
H2370 H 0.74219 0.13055 0.80102 0.0
H2371 H 0.76112 0.09377 0.81426 0.0
H2372 H 0.82993 0.135 0.65986 0.0
H2373 H 0.84792 0.09786 0.67279 0.0
H2374 H 0.78741 0.16094 0.66581 0.0
H2375 H 0.76511 0.18184 0.6966 0.0
loop_
_geom_bond_atom_site_label_1
_geom_bond_atom_site_label_2
_geom_bond_distance
_geom_bond_site_symmetry_2
_ccdc_geom_bond_type
C0 O1 1.160 . S
C0 O7 1.185 . S
O1 C0 1.160 . S
O2 Zn3 1.899 . S
O2 C10 1.284 1_655 S
Zn3 O2 1.899 . S
Zn3 O4 2.032 . S
Zn3 O7 2.086 . S
Zn3 O12 1.977 1_655 S
O4 Zn3 2.032 . S
O4 C8 1.278 1_655 S
C5 O6 1.203 . S
C5 O12 1.267 . S
O6 C5 1.203 . S
O7 C0 1.185 . S
O7 Zn3 2.086 . S
C8 O4 1.278 1_455 S
C8 O9 1.211 . S
O9 C8 1.211 . S
C10 O2 1.284 1_455 S
C10 O11 1.273 . S
O11 C10 1.273 . S
O12 Zn3 1.977 1_455 S
O12 C5 1.267 . S
C13 O14 1.160 . S
C13 O20 1.185 . S
O14 C13 1.160 . S
O15 Zn16 1.899 . S
O15 C23 1.285 . S
Zn16 O15 1.899 . S
Zn16 O17 2.032 . S
Zn16 O20 2.086 . S
Zn16 O25 1.977 1_455 S
O17 Zn16 2.032 . S
O17 C21 1.278 1_455 S
C18 O19 1.203 . S
C18 O25 1.267 . S
O19 C18 1.203 . S
O20 C13 1.185 . S
O20 Zn16 2.086 . S
C21 O17 1.278 1_655 S
C21 O22 1.211 . S
O22 C21 1.211 . S
C23 O15 1.285 . S
C23 O24 1.273 1_455 S
O24 C23 1.273 1_655 S
O25 Zn16 1.977 1_655 S
O25 C18 1.267 . S
C26 O27 1.160 . S
C26 O33 1.185 . S
O27 C26 1.160 . S
O28 Zn29 1.899 . S
O28 C36 1.284 . S
Zn29 O28 1.899 . S
Zn29 O30 2.032 . S
Zn29 O33 2.086 . S
Zn29 O38 1.977 . S
O30 Zn29 2.032 . S
O30 C34 1.278 . S
C31 O32 1.203 . S
C31 O38 1.267 . S
O32 C31 1.203 . S
O33 C26 1.185 . S
O33 Zn29 2.086 . S
C34 O30 1.278 . S
C34 O35 1.211 . S
O35 C34 1.211 . S
C36 O28 1.284 . S
C36 O37 1.273 . S
O37 C36 1.273 . S
O38 Zn29 1.977 . S
O38 C31 1.267 . S
C39 O40 1.160 . S
C39 O46 1.185 . S
O40 C39 1.160 . S
O41 Zn42 1.899 . S
O41 C49 1.284 . S
Zn42 O41 1.899 . S
Zn42 O43 2.032 . S
Zn42 O46 2.086 . S
Zn42 O51 1.977 . S
O43 Zn42 2.032 . S
O43 C47 1.278 . S
C44 O45 1.203 . S
C44 O51 1.267 . S
O45 C44 1.203 . S
O46 C39 1.185 . S
O46 Zn42 2.086 . S
C47 O43 1.278 . S
C47 O48 1.211 . S
O48 C47 1.211 . S
C49 O41 1.284 . S
C49 O50 1.273 . S
O50 C49 1.273 . S
O51 Zn42 1.977 . S
O51 C44 1.267 . S
C52 O53 1.160 . S
C52 O59 1.185 . S
O53 C52 1.160 . S
O54 Zn55 1.899 1_565 S
O54 C62 1.282 1_565 S
Zn55 O54 1.899 1_545 S
Zn55 O56 2.023 1_545 S
Zn55 O59 2.062 1_545 S
Zn55 O64 2.004 . S
O56 Zn55 2.023 1_565 S
O56 C60 1.278 1_565 S
C57 O58 1.203 . S
C57 O64 1.267 . S
O58 C57 1.203 . S
O59 C52 1.185 . S
O59 Zn55 2.062 1_565 S
C60 O56 1.278 1_545 S
C60 O61 1.211 . S
O61 C60 1.211 . S
C62 O54 1.282 1_545 S
C62 O63 1.273 . S
O63 C62 1.273 . S
O64 Zn55 2.004 . S
O64 C57 1.267 . S
C65 O66 1.160 . S
C65 O72 1.185 . S
O66 C65 1.160 . S
O67 Zn68 1.899 . S
O67 C75 1.284 . S
Zn68 O67 1.899 . S
Zn68 O69 2.032 . S
Zn68 O72 2.086 . S
Zn68 O77 1.977 . S
O69 Zn68 2.032 . S
O69 C73 1.278 . S
C70 O71 1.203 . S
C70 O77 1.267 . S
O71 C70 1.203 . S
O72 C65 1.185 . S
O72 Zn68 2.086 . S
C73 O69 1.278 . S
C73 O74 1.211 . S
O74 C73 1.211 . S
C75 O67 1.284 . S
C75 O76 1.273 . S
O76 C75 1.273 . S
O77 Zn68 1.977 . S
O77 C70 1.267 . S
C78 O79 1.160 . S
C78 O85 1.185 . S
O79 C78 1.160 . S
O80 Zn81 1.899 . S
O80 C88 1.284 . S
Zn81 O80 1.899 . S
Zn81 O82 2.032 . S
Zn81 O85 2.086 . S
Zn81 O90 1.977 1_545 S
O82 Zn81 2.032 . S
O82 C86 1.274 1_545 S
C83 O84 1.203 . S
C83 O90 1.267 . S
O84 C83 1.203 . S
O85 C78 1.185 . S
O85 Zn81 2.086 . S
C86 O82 1.274 1_565 S
C86 O87 1.216 . S
O87 C86 1.216 . S
C88 O80 1.284 . S
C88 O89 1.273 1_545 S
O89 C88 1.273 1_565 S
O90 Zn81 1.977 1_565 S
O90 C83 1.267 . S
C91 O92 1.160 . S
C91 O98 1.192 . S
O92 C91 1.160 . S
O93 Zn94 1.899 . S
O93 C101 1.284 . S
Zn94 O93 1.899 . S
Zn94 O95 2.032 1_554 S
Zn94 O98 2.090 . S
Zn94 O103 1.978 . S
O95 Zn94 2.032 1_556 S
O95 C99 1.278 . S
C96 O97 1.203 . S
C96 O103 1.268 . S
O97 C96 1.203 . S
O98 C91 1.192 . S
O98 Zn94 2.090 . S
C99 O95 1.278 . S
C99 O100 1.211 . S
O100 C99 1.211 . S
C101 O93 1.284 . S
C101 O102 1.273 . S
O102 C101 1.273 . S
O103 Zn94 1.978 . S
O103 C96 1.268 . S
C104 O105 1.160 . S
C104 O111 1.181 1_554 S
O105 C104 1.160 . S
O106 Zn107 1.899 . S
O106 C114 1.284 . S
Zn107 O106 1.899 . S
Zn107 O108 2.032 1_554 S
Zn107 O111 2.084 1_554 S
Zn107 O116 1.976 1_554 S
O108 Zn107 2.032 1_556 S
O108 C112 1.278 . S
C109 O110 1.203 . S
C109 O116 1.264 1_554 S
O110 C109 1.203 . S
O111 C104 1.181 1_556 S
O111 Zn107 2.084 1_556 S
C112 O108 1.278 . S
C112 O113 1.211 . S
O113 C112 1.211 . S
C114 O106 1.284 . S
C114 O115 1.273 . S
O115 C114 1.273 . S
O116 Zn107 1.976 1_556 S
O116 C109 1.264 1_556 S
C117 O118 1.160 . S
C117 O124 1.185 . S
O118 C117 1.160 . S
O119 Zn120 1.899 . S
O119 C127 1.284 . S
Zn120 O119 1.899 . S
Zn120 O121 2.032 . S
Zn120 O124 2.086 . S
Zn120 O129 1.977 . S
O121 Zn120 2.032 . S
O121 C125 1.278 . S
C122 O123 1.203 . S
C122 O129 1.267 . S
O123 C122 1.203 . S
O124 C117 1.185 . S
O124 Zn120 2.086 . S
C125 O121 1.278 . S
C125 O126 1.211 . S
O126 C125 1.211 . S
C127 O119 1.284 . S
C127 O128 1.273 . S
O128 C127 1.273 . S
O129 Zn120 1.977 . S
O129 C122 1.267 . S
C130 O131 1.160 . S
C130 O137 1.185 . S
O131 C130 1.160 . S
O132 Zn133 1.899 . S
O132 C140 1.284 . S
Zn133 O132 1.899 . S
Zn133 O134 2.032 . S
Zn133 O137 2.086 . S
Zn133 O142 1.977 . S
O134 Zn133 2.032 . S
O134 C138 1.278 . S
C135 O136 1.203 . S
C135 O142 1.267 . S
O136 C135 1.203 . S
O137 C130 1.185 . S
O137 Zn133 2.086 . S
C138 O134 1.278 . S
C138 O139 1.211 . S
O139 C138 1.211 . S
C140 O132 1.284 . S
C140 O141 1.273 . S
O141 C140 1.273 . S
O142 Zn133 1.977 . S
O142 C135 1.267 . S
C143 O144 1.160 . S
C143 O150 1.185 . S
O144 C143 1.160 . S
O145 Zn146 1.899 . S
O145 C153 1.284 . S
Zn146 O145 1.899 . S
Zn146 O147 2.032 . S
Zn146 O150 2.086 . S
Zn146 O155 1.977 . S
O147 Zn146 2.032 . S
O147 C151 1.278 . S
C148 O149 1.203 . S
C148 O155 1.267 . S
O149 C148 1.203 . S
O150 C143 1.185 . S
O150 Zn146 2.086 . S
C151 O147 1.278 . S
C151 O152 1.211 . S
O152 C151 1.211 . S
C153 O145 1.284 . S
C153 O154 1.273 . S
O154 C153 1.273 . S
O155 Zn146 1.977 . S
O155 C148 1.267 . S
C156 O157 1.160 . S
C156 O163 1.185 . S
O157 C156 1.160 . S
O158 Zn159 1.899 . S
O158 C166 1.284 . S
Zn159 O158 1.899 . S
Zn159 O160 2.032 . S
Zn159 O163 2.086 . S
Zn159 O168 1.977 1_455 S
O160 Zn159 2.032 . S
O160 C164 1.275 . S
C161 O162 1.203 . S
C161 O168 1.267 . S
O162 C161 1.203 . S
O163 C156 1.185 . S
O163 Zn159 2.086 . S
C164 O160 1.275 . S
C164 O165 1.215 1_455 S
O165 C164 1.215 1_655 S
C166 O158 1.284 . S
C166 O167 1.273 1_455 S
O167 C166 1.273 1_655 S
O168 Zn159 1.977 1_655 S
O168 C161 1.267 . S
C169 O170 1.160 . S
C169 O176 1.185 . S
O170 C169 1.160 . S
O171 Zn172 1.899 1_655 S
O171 C179 1.284 1_655 S
Zn172 O171 1.899 1_455 S
Zn172 O173 2.030 1_455 S
Zn172 O176 2.083 1_455 S
Zn172 O181 1.981 . S
O173 Zn172 2.030 1_655 S
O173 C177 1.278 1_655 S
C174 O175 1.203 . S
C174 O181 1.267 . S
O175 C174 1.203 . S
O176 C169 1.185 . S
O176 Zn172 2.083 1_655 S
C177 O173 1.278 1_455 S
C177 O178 1.211 . S
O178 C177 1.211 . S
C179 O171 1.284 1_455 S
C179 O180 1.273 . S
O180 C179 1.273 . S
O181 Zn172 1.981 . S
O181 C174 1.267 . S
C182 O183 1.160 . S
C182 O189 1.185 . S
O183 C182 1.160 . S
O184 Zn185 1.899 . S
O184 C192 1.284 . S
Zn185 O184 1.899 . S
Zn185 O186 2.032 . S
Zn185 O189 2.086 . S
Zn185 O194 1.977 . S
O186 Zn185 2.032 . S
O186 C190 1.278 . S
C187 O188 1.203 . S
C187 O194 1.267 . S
O188 C187 1.203 . S
O189 C182 1.185 . S
O189 Zn185 2.086 . S
C190 O186 1.278 . S
C190 O191 1.211 . S
O191 C190 1.211 . S
C192 O184 1.284 . S
C192 O193 1.273 . S
O193 C192 1.273 . S
O194 Zn185 1.977 . S
O194 C187 1.267 . S
C195 O196 1.160 . S
C195 O202 1.185 . S
O196 C195 1.160 . S
O197 Zn198 1.899 . S
O197 C205 1.284 . S
Zn198 O197 1.899 . S
Zn198 O199 2.032 . S
Zn198 O202 2.086 . S
Zn198 O207 1.977 . S
O199 Zn198 2.032 . S
O199 C203 1.278 . S
C200 O201 1.203 . S
C200 O207 1.267 . S
O201 C200 1.203 . S
O202 C195 1.185 . S
O202 Zn198 2.086 . S
C203 O199 1.278 . S
C203 O204 1.211 . S
O204 C203 1.211 . S
C205 O197 1.284 . S
C205 O206 1.273 . S
O206 C205 1.273 . S
O207 Zn198 1.977 . S
O207 C200 1.267 . S
C208 O209 1.160 . S
C208 O215 1.185 . S
O209 C208 1.160 . S
O210 Zn211 1.899 . S
O210 C218 1.278 1_545 S
Zn211 O210 1.899 . S
Zn211 O212 2.032 . S
Zn211 O215 2.086 . S
Zn211 O220 1.977 1_545 S
O212 Zn211 2.032 . S
O212 C216 1.278 1_545 S
C213 O214 1.203 . S
C213 O220 1.267 . S
O214 C213 1.203 . S
O215 C208 1.185 . S
O215 Zn211 2.086 . S
C216 O212 1.278 1_565 S
C216 O217 1.211 . S
O217 C216 1.211 . S
C218 O210 1.278 1_565 S
C218 O219 1.284 . S
O219 C218 1.284 . S
O220 Zn211 1.977 1_565 S
O220 C213 1.267 . S
C221 O222 1.160 . S
C221 O228 1.185 . S
O222 C221 1.160 . S
O223 Zn224 1.899 . S
O223 C231 1.284 . S
Zn224 O223 1.899 . S
Zn224 O225 2.032 . S
Zn224 O228 2.086 . S
Zn224 O233 1.977 . S
O225 Zn224 2.032 . S
O225 C229 1.278 . S
C226 O227 1.203 . S
C226 O233 1.267 . S
O227 C226 1.203 . S
O228 C221 1.185 . S
O228 Zn224 2.086 . S
C229 O225 1.278 . S
C229 O230 1.211 . S
O230 C229 1.211 . S
C231 O223 1.284 . S
C231 O232 1.273 . S
O232 C231 1.273 . S
O233 Zn224 1.977 . S
O233 C226 1.267 . S
C234 O235 1.160 . S
C234 O241 1.185 . S
O235 C234 1.160 . S
O236 Zn237 1.899 1_565 S
O236 C244 1.277 1_565 S
Zn237 O236 1.899 1_545 S
Zn237 O238 2.025 1_545 S
Zn237 O241 2.069 1_545 S
Zn237 O246 1.996 . S
O238 Zn237 2.025 1_565 S
O238 C242 1.278 1_565 S
C239 O240 1.203 . S
C239 O246 1.267 . S
O240 C239 1.203 . S
O241 C234 1.185 . S
O241 Zn237 2.069 1_565 S
C242 O238 1.278 1_545 S
C242 O243 1.211 . S
O243 C242 1.211 . S
C244 O236 1.277 1_545 S
C244 O245 1.273 . S
O245 C244 1.273 . S
O246 Zn237 1.996 . S
O246 C239 1.267 . S
C247 O248 1.160 . S
C247 O254 1.185 . S
O248 C247 1.160 . S
O249 Zn250 1.899 . S
O249 C257 1.284 . S
Zn250 O249 1.899 . S
Zn250 O251 2.032 1_554 S
Zn250 O254 2.086 . S
Zn250 O259 1.977 . S
O251 Zn250 2.032 1_556 S
O251 C255 1.278 . S
C252 O253 1.203 . S
C252 O259 1.267 . S
O253 C252 1.203 . S
O254 C247 1.185 . S
O254 Zn250 2.086 . S
C255 O251 1.278 . S
C255 O256 1.211 . S
O256 C255 1.211 . S
C257 O249 1.284 . S
C257 O258 1.273 . S
O258 C257 1.273 . S
O259 Zn250 1.977 . S
O259 C252 1.267 . S
C260 O261 1.160 . S
C260 O267 1.185 1_554 S
O261 C260 1.160 . S
O262 Zn263 1.899 . S
O262 C270 1.284 . S
Zn263 O262 1.899 . S
Zn263 O264 2.032 1_554 S
Zn263 O267 2.086 1_554 S
Zn263 O272 1.977 1_554 S
O264 Zn263 2.032 1_556 S
O264 C268 1.278 . S
C265 O266 1.203 . S
C265 O272 1.267 1_554 S
O266 C265 1.203 . S
O267 C260 1.185 1_556 S
O267 Zn263 2.086 1_556 S
C268 O264 1.278 . S
C268 O269 1.211 . S
O269 C268 1.211 . S
C270 O262 1.284 . S
C270 O271 1.273 . S
O271 C270 1.273 . S
O272 Zn263 1.977 1_556 S
O272 C265 1.267 1_556 S
C273 O274 1.160 . S
C273 O280 1.185 . S
O274 C273 1.160 . S
O275 Zn276 1.899 . S
O275 C283 1.284 . S
Zn276 O275 1.899 . S
Zn276 O277 2.032 . S
Zn276 O280 2.086 . S
Zn276 O285 1.977 . S
O277 Zn276 2.032 . S
O277 C281 1.278 . S
C278 O279 1.203 . S
C278 O285 1.267 . S
O279 C278 1.203 . S
O280 C273 1.185 . S
O280 Zn276 2.086 . S
C281 O277 1.278 . S
C281 O282 1.211 . S
O282 C281 1.211 . S
C283 O275 1.284 . S
C283 O284 1.273 . S
O284 C283 1.273 . S
O285 Zn276 1.977 . S
O285 C278 1.267 . S
C286 O287 1.160 . S
C286 O293 1.185 . S
O287 C286 1.160 . S
O288 Zn289 1.899 . S
O288 C296 1.284 . S
Zn289 O288 1.899 . S
Zn289 O290 2.032 . S
Zn289 O293 2.086 . S
Zn289 O298 1.977 . S
O290 Zn289 2.032 . S
O290 C294 1.278 . S
C291 O292 1.203 . S
C291 O298 1.267 . S
O292 C291 1.203 . S
O293 C286 1.185 . S
O293 Zn289 2.086 . S
C294 O290 1.278 . S
C294 O295 1.211 . S
O295 C294 1.211 . S
C296 O288 1.284 . S
C296 O297 1.273 . S
O297 C296 1.273 . S
O298 Zn289 1.977 . S
O298 C291 1.267 . S
C299 O300 1.160 . S
C299 O306 1.185 . S
O300 C299 1.160 . S
O301 Zn302 1.899 . S
O301 C309 1.284 . S
Zn302 O301 1.899 . S
Zn302 O303 2.032 . S
Zn302 O306 2.086 . S
Zn302 O311 1.977 . S
O303 Zn302 2.032 . S
O303 C307 1.278 . S
C304 O305 1.203 . S
C304 O311 1.267 . S
O305 C304 1.203 . S
O306 C299 1.185 . S
O306 Zn302 2.086 . S
C307 O303 1.278 . S
C307 O308 1.211 . S
O308 C307 1.211 . S
C309 O301 1.284 . S
C309 O310 1.273 . S
O310 C309 1.273 . S
O311 Zn302 1.977 . S
O311 C304 1.267 . S
O312 Mg313 1.990 . S
O312 C326 1.253 . S
Mg313 O312 1.990 . S
Mg313 O316 2.180 1_556 S
Mg313 O317 2.117 1_556 S
Mg313 O331 2.033 . S
O314 Mg315 2.072 1_656 S
O314 C326 1.260 . S
Mg315 O314 2.072 1_454 S
Mg315 O316 2.099 1_455 S
Mg315 O318 2.079 1_545 S
Mg315 O319 2.068 1_554 S
Mg315 O321 2.094 1_544 S
Mg315 O332 2.079 1_445 S
O316 Mg313 2.180 1_554 S
O316 Mg315 2.099 1_655 S
O316 C327 1.279 . S
O317 Mg313 2.117 1_554 S
O317 C327 1.250 . S
O318 Mg315 2.079 1_565 S
O318 C328 1.264 . S
O319 Mg315 2.068 1_556 S
O319 C329 1.263 . S
Mg320 O321 2.172 1_554 S
Mg320 O322 2.030 . S
Mg320 O323 1.990 1_554 S
Mg320 O324 2.117 1_554 S
O321 Mg315 2.094 1_566 S
O321 Mg320 2.172 1_556 S
O321 C330 1.299 . S
O322 Mg320 2.030 . S
O322 C328 1.248 . S
O323 Mg320 1.990 1_556 S
O323 C329 1.253 1_565 S
O324 Mg320 2.117 1_556 S
O324 C330 1.250 . S
C325 O331 1.234 1_564 S
C325 O332 1.264 . S
C326 O312 1.253 . S
C326 O314 1.260 . S
C327 O316 1.279 . S
C327 O317 1.250 . S
C328 O318 1.264 . S
C328 O322 1.248 . S
C329 O319 1.263 . S
C329 O323 1.253 1_545 S
C330 O321 1.299 . S
C330 O324 1.250 . S
O331 Mg313 2.033 . S
O331 C325 1.234 1_546 S
O332 Mg315 2.079 1_665 S
O332 C325 1.264 . S
O333 Mg334 1.990 . S
O333 C347 1.253 . S
Mg334 O333 1.990 . S
Mg334 O337 2.180 . S
Mg334 O338 2.117 . S
Mg334 O352 2.030 . S
O335 Mg336 2.072 . S
O335 C347 1.260 . S
Mg336 O335 2.072 . S
Mg336 O337 2.099 . S
Mg336 O339 2.079 . S
Mg336 O340 2.072 . S
Mg336 O342 2.099 . S
Mg336 O353 2.079 . S
O337 Mg334 2.180 . S
O337 Mg336 2.099 . S
O337 C348 1.279 . S
O338 Mg334 2.117 . S
O338 C348 1.250 . S
O339 Mg336 2.079 . S
O339 C349 1.264 . S
O340 Mg336 2.072 . S
O340 C350 1.260 . S
Mg341 O342 2.180 . S
Mg341 O343 2.030 . S
Mg341 O344 1.990 . S
Mg341 O345 2.117 . S
O342 Mg336 2.099 . S
O342 Mg341 2.180 . S
O342 C351 1.279 . S
O343 Mg341 2.030 . S
O343 C349 1.248 . S
O344 Mg341 1.990 . S
O344 C350 1.253 . S
O345 Mg341 2.117 . S
O345 C351 1.250 . S
C346 O352 1.248 . S
C346 O353 1.264 . S
C347 O333 1.253 . S
C347 O335 1.260 . S
C348 O337 1.279 . S
C348 O338 1.250 . S
C349 O339 1.264 . S
C349 O343 1.248 . S
C350 O340 1.260 . S
C350 O344 1.253 . S
C351 O342 1.279 . S
C351 O345 1.250 . S
O352 Mg334 2.030 . S
O352 C346 1.248 . S
O353 Mg336 2.079 . S
O353 C346 1.264 . S
O354 Mg355 1.990 . S
O354 C368 1.253 . S
Mg355 O354 1.990 . S
Mg355 O358 2.180 . S
Mg355 O359 2.117 . S
Mg355 O373 2.030 1_565 S
O356 Mg357 2.072 . S
O356 C368 1.260 1_545 S
Mg357 O356 2.072 . S
Mg357 O358 2.099 1_545 S
Mg357 O360 2.079 . S
Mg357 O361 2.072 1_545 S
Mg357 O363 2.099 . S
Mg357 O374 2.079 . S
O358 Mg355 2.180 . S
O358 Mg357 2.099 1_565 S
O358 C369 1.279 . S
O359 Mg355 2.117 . S
O359 C369 1.250 . S
O360 Mg357 2.079 . S
O360 C370 1.264 . S
O361 Mg357 2.072 1_565 S
O361 C371 1.260 . S
Mg362 O363 2.180 . S
Mg362 O364 2.030 . S
Mg362 O365 1.990 . S
Mg362 O366 2.117 . S
O363 Mg357 2.099 . S
O363 Mg362 2.180 . S
O363 C372 1.279 . S
O364 Mg362 2.030 . S
O364 C370 1.248 . S
O365 Mg362 1.990 . S
O365 C371 1.253 1_545 S
O366 Mg362 2.117 . S
O366 C372 1.250 . S
C367 O373 1.248 . S
C367 O374 1.264 . S
C368 O354 1.253 . S
C368 O356 1.260 1_565 S
C369 O358 1.279 . S
C369 O359 1.250 . S
C370 O360 1.264 . S
C370 O364 1.248 . S
C371 O361 1.260 . S
C371 O365 1.253 1_565 S
C372 O363 1.279 . S
C372 O366 1.250 . S
O373 Mg355 2.030 1_545 S
O373 C367 1.248 . S
O374 Mg357 2.079 . S
O374 C367 1.264 . S
O375 Mg376 1.990 . S
O375 C389 1.253 . S
Mg376 O375 1.990 . S
Mg376 O379 2.180 . S
Mg376 O380 2.117 . S
Mg376 O394 2.030 . S
O377 Mg378 2.072 . S
O377 C389 1.260 . S
Mg378 O377 2.072 . S
Mg378 O379 2.099 . S
Mg378 O381 2.079 . S
Mg378 O382 2.072 . S
Mg378 O384 2.099 . S
Mg378 O395 2.079 . S
O379 Mg376 2.180 . S
O379 Mg378 2.099 . S
O379 C390 1.279 . S
O380 Mg376 2.117 . S
O380 C390 1.250 . S
O381 Mg378 2.079 . S
O381 C391 1.264 . S
O382 Mg378 2.072 . S
O382 C392 1.260 . S
Mg383 O384 2.180 . S
Mg383 O385 2.030 . S
Mg383 O386 1.990 . S
Mg383 O387 2.117 . S
O384 Mg378 2.099 . S
O384 Mg383 2.180 . S
O384 C393 1.279 . S
O385 Mg383 2.030 . S
O385 C391 1.248 . S
O386 Mg383 1.990 . S
O386 C392 1.253 . S
O387 Mg383 2.117 . S
O387 C393 1.250 . S
C388 O394 1.248 . S
C388 O395 1.264 . S
C389 O375 1.253 . S
C389 O377 1.260 . S
C390 O379 1.279 . S
C390 O380 1.250 . S
C391 O381 1.264 . S
C391 O385 1.248 . S
C392 O382 1.260 . S
C392 O386 1.253 . S
C393 O384 1.279 . S
C393 O387 1.250 . S
O394 Mg376 2.030 . S
O394 C388 1.248 . S
O395 Mg378 2.079 . S
O395 C388 1.264 . S
O396 Mg397 1.990 1_655 S
O396 C410 1.253 . S
Mg397 O396 1.990 1_455 S
Mg397 O400 2.173 1_455 S
Mg397 O401 2.117 1_455 S
Mg397 O415 2.030 . S
O398 Mg399 2.072 1_565 S
O398 C410 1.260 1_455 S
Mg399 O398 2.072 1_545 S
Mg399 O400 2.094 1_445 S
Mg399 O402 2.079 . S
Mg399 O403 2.072 1_455 S
Mg399 O405 2.099 . S
Mg399 O416 2.079 1_545 S
O400 Mg397 2.173 1_655 S
O400 Mg399 2.094 1_665 S
O400 C411 1.296 . S
O401 Mg397 2.117 1_655 S
O401 C411 1.250 . S
O402 Mg399 2.079 . S
O402 C412 1.264 . S
O403 Mg399 2.072 1_655 S
O403 C413 1.260 . S
Mg404 O405 2.180 1_655 S
Mg404 O406 2.029 1_655 S
Mg404 O407 1.990 . S
Mg404 O408 2.117 1_655 S
O405 Mg399 2.099 . S
O405 Mg404 2.180 1_455 S
O405 C414 1.279 . S
O406 Mg404 2.029 1_455 S
O406 C412 1.252 . S
O407 Mg404 1.990 . S
O407 C413 1.253 . S
O408 Mg404 2.117 1_455 S
O408 C414 1.250 . S
C409 O415 1.248 . S
C409 O416 1.264 . S
C410 O396 1.253 . S
C410 O398 1.260 1_655 S
C411 O400 1.296 . S
C411 O401 1.250 . S
C412 O402 1.264 . S
C412 O406 1.252 . S
C413 O403 1.260 . S
C413 O407 1.253 . S
C414 O405 1.279 . S
C414 O408 1.250 . S
O415 Mg397 2.030 . S
O415 C409 1.248 . S
O416 Mg399 2.079 1_565 S
O416 C409 1.264 . S
O417 Mg418 1.990 . S
O417 C431 1.253 . S
Mg418 O417 1.990 . S
Mg418 O421 2.180 . S
Mg418 O422 2.117 . S
Mg418 O436 2.030 . S
O419 Mg420 2.072 . S
O419 C431 1.260 . S
Mg420 O419 2.072 . S
Mg420 O421 2.099 . S
Mg420 O423 2.079 . S
Mg420 O424 2.072 . S
Mg420 O426 2.099 . S
Mg420 O437 2.079 . S
O421 Mg418 2.180 . S
O421 Mg420 2.099 . S
O421 C432 1.279 . S
O422 Mg418 2.117 . S
O422 C432 1.250 . S
O423 Mg420 2.079 . S
O423 C433 1.264 . S
O424 Mg420 2.072 . S
O424 C434 1.260 . S
Mg425 O426 2.180 . S
Mg425 O427 2.030 . S
Mg425 O428 1.990 . S
Mg425 O429 2.117 . S
O426 Mg420 2.099 . S
O426 Mg425 2.180 . S
O426 C435 1.279 . S
O427 Mg425 2.030 . S
O427 C433 1.248 . S
O428 Mg425 1.990 . S
O428 C434 1.253 . S
O429 Mg425 2.117 . S
O429 C435 1.250 . S
C430 O436 1.248 . S
C430 O437 1.264 . S
C431 O417 1.253 . S
C431 O419 1.260 . S
C432 O421 1.279 . S
C432 O422 1.250 . S
C433 O423 1.264 . S
C433 O427 1.248 . S
C434 O424 1.260 . S
C434 O428 1.253 . S
C435 O426 1.279 . S
C435 O429 1.250 . S
O436 Mg418 2.030 . S
O436 C430 1.248 . S
O437 Mg420 2.079 . S
O437 C430 1.264 . S
O438 Mg439 1.990 . S
O438 C452 1.253 . S
Mg439 O438 1.990 . S
Mg439 O442 2.180 1_565 S
Mg439 O443 2.117 1_565 S
Mg439 O457 2.030 . S
O440 Mg441 2.072 1_565 S
O440 C452 1.260 . S
Mg441 O440 2.072 1_545 S
Mg441 O442 2.099 . S
Mg441 O444 2.079 1_554 S
Mg441 O445 2.072 1_544 S
Mg441 O447 2.098 1_544 S
Mg441 O458 2.079 . S
O442 Mg439 2.180 1_545 S
O442 Mg441 2.099 . S
O442 C453 1.279 . S
O443 Mg439 2.117 1_545 S
O443 C453 1.250 . S
O444 Mg441 2.079 1_556 S
O444 C454 1.264 . S
O445 Mg441 2.072 1_566 S
O445 C455 1.260 . S
Mg446 O447 2.179 1_545 S
Mg446 O448 2.030 . S
Mg446 O449 1.990 1_545 S
Mg446 O450 2.117 1_545 S
O447 Mg441 2.098 1_566 S
O447 Mg446 2.179 1_565 S
O447 C456 1.282 . S
O448 Mg446 2.030 . S
O448 C454 1.248 . S
O449 Mg446 1.990 1_565 S
O449 C455 1.253 . S
O450 Mg446 2.117 1_565 S
O450 C456 1.250 . S
C451 O457 1.248 1_545 S
C451 O458 1.264 . S
C452 O438 1.253 . S
C452 O440 1.260 . S
C453 O442 1.279 . S
C453 O443 1.250 . S
C454 O444 1.264 . S
C454 O448 1.248 . S
C455 O445 1.260 . S
C455 O449 1.253 . S
C456 O447 1.282 . S
C456 O450 1.250 . S
O457 Mg439 2.030 . S
O457 C451 1.248 1_565 S
O458 Mg441 2.079 . S
O458 C451 1.264 . S
O459 Mg460 1.990 . S
O459 C473 1.253 . S
Mg460 O459 1.990 . S
Mg460 O463 2.180 . S
Mg460 O464 2.117 . S
Mg460 O478 2.030 . S
O461 Mg462 2.072 . S
O461 C473 1.260 . S
Mg462 O461 2.072 . S
Mg462 O463 2.099 . S
Mg462 O465 2.079 . S
Mg462 O466 2.072 . S
Mg462 O468 2.099 . S
Mg462 O479 2.079 . S
O463 Mg460 2.180 . S
O463 Mg462 2.099 . S
O463 C474 1.279 . S
O464 Mg460 2.117 . S
O464 C474 1.250 . S
O465 Mg462 2.079 . S
O465 C475 1.264 . S
O466 Mg462 2.072 . S
O466 C476 1.260 . S
Mg467 O468 2.180 . S
Mg467 O469 2.030 . S
Mg467 O470 1.990 . S
Mg467 O471 2.117 . S
O468 Mg462 2.099 . S
O468 Mg467 2.180 . S
O468 C477 1.279 . S
O469 Mg467 2.030 . S
O469 C475 1.248 . S
O470 Mg467 1.990 . S
O470 C476 1.253 . S
O471 Mg467 2.117 . S
O471 C477 1.250 . S
C472 O478 1.248 . S
C472 O479 1.264 . S
C473 O459 1.253 . S
C473 O461 1.260 . S
C474 O463 1.279 . S
C474 O464 1.250 . S
C475 O465 1.264 . S
C475 O469 1.248 . S
C476 O466 1.260 . S
C476 O470 1.253 . S
C477 O468 1.279 . S
C477 O471 1.250 . S
O478 Mg460 2.030 . S
O478 C472 1.248 . S
O479 Mg462 2.079 . S
O479 C472 1.264 . S
O480 Mg481 1.990 . S
O480 C494 1.253 . S
Mg481 O480 1.990 . S
Mg481 O484 2.180 . S
Mg481 O485 2.117 . S
Mg481 O499 2.030 . S
O482 Mg483 2.073 1_556 S
O482 C494 1.258 . S
Mg483 O482 2.073 1_554 S
Mg483 O484 2.099 1_554 S
Mg483 O486 2.079 . S
Mg483 O487 2.072 1_554 S
Mg483 O489 2.099 . S
Mg483 O500 2.079 . S
O484 Mg481 2.180 . S
O484 Mg483 2.099 1_556 S
O484 C495 1.279 . S
O485 Mg481 2.117 . S
O485 C495 1.250 . S
O486 Mg483 2.079 . S
O486 C496 1.264 . S
O487 Mg483 2.072 1_556 S
O487 C497 1.260 . S
Mg488 O489 2.180 . S
Mg488 O490 2.030 . S
Mg488 O491 1.990 . S
Mg488 O492 2.117 . S
O489 Mg483 2.099 . S
O489 Mg488 2.180 . S
O489 C498 1.279 . S
O490 Mg488 2.030 . S
O490 C496 1.248 . S
O491 Mg488 1.990 . S
O491 C497 1.253 1_554 S
O492 Mg488 2.117 . S
O492 C498 1.250 . S
C493 O499 1.248 1_554 S
C493 O500 1.264 . S
C494 O480 1.253 . S
C494 O482 1.258 . S
C495 O484 1.279 . S
C495 O485 1.250 . S
C496 O486 1.264 . S
C496 O490 1.248 . S
C497 O487 1.260 . S
C497 O491 1.253 1_556 S
C498 O489 1.279 . S
C498 O492 1.250 . S
O499 Mg481 2.030 . S
O499 C493 1.248 1_556 S
O500 Mg483 2.079 . S
O500 C493 1.264 . S
O501 Mg502 1.990 . S
O501 C515 1.253 . S
Mg502 O501 1.990 . S
Mg502 O505 2.180 . S
Mg502 O506 2.117 . S
Mg502 O520 2.030 . S
O503 Mg504 2.072 . S
O503 C515 1.260 . S
Mg504 O503 2.072 . S
Mg504 O505 2.099 . S
Mg504 O507 2.079 . S
Mg504 O508 2.072 . S
Mg504 O510 2.099 . S
Mg504 O521 2.079 . S
O505 Mg502 2.180 . S
O505 Mg504 2.099 . S
O505 C516 1.279 . S
O506 Mg502 2.117 . S
O506 C516 1.250 . S
O507 Mg504 2.079 . S
O507 C517 1.264 . S
O508 Mg504 2.072 . S
O508 C518 1.260 . S
Mg509 O510 2.180 . S
Mg509 O511 2.030 . S
Mg509 O512 1.990 . S
Mg509 O513 2.117 . S
O510 Mg504 2.099 . S
O510 Mg509 2.180 . S
O510 C519 1.279 . S
O511 Mg509 2.030 . S
O511 C517 1.248 . S
O512 Mg509 1.990 . S
O512 C518 1.253 . S
O513 Mg509 2.117 . S
O513 C519 1.250 . S
C514 O520 1.248 . S
C514 O521 1.264 . S
C515 O501 1.253 . S
C515 O503 1.260 . S
C516 O505 1.279 . S
C516 O506 1.250 . S
C517 O507 1.264 . S
C517 O511 1.248 . S
C518 O508 1.260 . S
C518 O512 1.253 . S
C519 O510 1.279 . S
C519 O513 1.250 . S
O520 Mg502 2.030 . S
O520 C514 1.248 . S
O521 Mg504 2.079 . S
O521 C514 1.264 . S
O522 Mg523 1.990 . S
O522 C536 1.253 . S
Mg523 O522 1.990 . S
Mg523 O526 2.180 . S
Mg523 O527 2.117 . S
Mg523 O541 2.030 . S
O524 Mg525 2.073 . S
O524 C536 1.244 1_455 S
Mg525 O524 2.073 . S
Mg525 O526 2.099 1_455 S
Mg525 O528 2.079 . S
Mg525 O529 2.072 1_455 S
Mg525 O531 2.099 . S
Mg525 O542 2.079 . S
O526 Mg523 2.180 . S
O526 Mg525 2.099 1_655 S
O526 C537 1.279 . S
O527 Mg523 2.117 . S
O527 C537 1.250 . S
O528 Mg525 2.079 . S
O528 C538 1.264 . S
O529 Mg525 2.072 1_655 S
O529 C539 1.260 . S
Mg530 O531 2.180 . S
Mg530 O532 2.030 . S
Mg530 O533 1.990 . S
Mg530 O534 2.117 . S
O531 Mg525 2.099 . S
O531 Mg530 2.180 . S
O531 C540 1.279 . S
O532 Mg530 2.030 . S
O532 C538 1.248 . S
O533 Mg530 1.990 . S
O533 C539 1.253 1_455 S
O534 Mg530 2.117 . S
O534 C540 1.250 . S
C535 O541 1.248 1_455 S
C535 O542 1.264 . S
C536 O522 1.253 . S
C536 O524 1.244 1_655 S
C537 O526 1.279 . S
C537 O527 1.250 . S
C538 O528 1.264 . S
C538 O532 1.248 . S
C539 O529 1.260 . S
C539 O533 1.253 1_655 S
C540 O531 1.279 . S
C540 O534 1.250 . S
O541 Mg523 2.030 . S
O541 C535 1.248 1_655 S
O542 Mg525 2.079 . S
O542 C535 1.264 . S
O543 Mg544 1.990 . S
O543 C557 1.253 . S
Mg544 O543 1.990 . S
Mg544 O547 2.180 . S
Mg544 O548 2.117 . S
Mg544 O562 2.030 . S
O545 Mg546 2.072 . S
O545 C557 1.260 . S
Mg546 O545 2.072 . S
Mg546 O547 2.099 . S
Mg546 O549 2.079 . S
Mg546 O550 2.072 . S
Mg546 O552 2.099 . S
Mg546 O563 2.079 . S
O547 Mg544 2.180 . S
O547 Mg546 2.099 . S
O547 C558 1.279 . S
O548 Mg544 2.117 . S
O548 C558 1.250 . S
O549 Mg546 2.079 . S
O549 C559 1.264 . S
O550 Mg546 2.072 . S
O550 C560 1.260 . S
Mg551 O552 2.180 . S
Mg551 O553 2.030 . S
Mg551 O554 1.990 . S
Mg551 O555 2.117 . S
O552 Mg546 2.099 . S
O552 Mg551 2.180 . S
O552 C561 1.279 . S
O553 Mg551 2.030 . S
O553 C559 1.248 . S
O554 Mg551 1.990 . S
O554 C560 1.253 . S
O555 Mg551 2.117 . S
O555 C561 1.250 . S
C556 O562 1.248 . S
C556 O563 1.264 . S
C557 O543 1.253 . S
C557 O545 1.260 . S
C558 O547 1.279 . S
C558 O548 1.250 . S
C559 O549 1.264 . S
C559 O553 1.248 . S
C560 O550 1.260 . S
C560 O554 1.253 . S
C561 O552 1.279 . S
C561 O555 1.250 . S
O562 Mg544 2.030 . S
O562 C556 1.248 . S
O563 Mg546 2.079 . S
O563 C556 1.264 . S
O564 Mg565 1.990 . S
O564 C578 1.253 . S
Mg565 O564 1.990 . S
Mg565 O568 2.180 . S
Mg565 O569 2.117 . S
Mg565 O583 2.030 . S
O566 Mg567 2.072 . S
O566 C578 1.260 . S
Mg567 O566 2.072 . S
Mg567 O568 2.099 . S
Mg567 O570 2.079 . S
Mg567 O571 2.072 . S
Mg567 O573 2.099 . S
Mg567 O584 2.079 . S
O568 Mg565 2.180 . S
O568 Mg567 2.099 . S
O568 C579 1.279 . S
O569 Mg565 2.117 . S
O569 C579 1.250 . S
O570 Mg567 2.079 . S
O570 C580 1.264 . S
O571 Mg567 2.072 . S
O571 C581 1.260 . S
Mg572 O573 2.180 . S
Mg572 O574 2.030 . S
Mg572 O575 1.990 . S
Mg572 O576 2.117 . S
O573 Mg567 2.099 . S
O573 Mg572 2.180 . S
O573 C582 1.279 . S
O574 Mg572 2.030 . S
O574 C580 1.248 . S
O575 Mg572 1.990 . S
O575 C581 1.253 . S
O576 Mg572 2.117 . S
O576 C582 1.250 . S
C577 O583 1.248 . S
C577 O584 1.264 . S
C578 O564 1.253 . S
C578 O566 1.260 . S
C579 O568 1.279 . S
C579 O569 1.250 . S
C580 O570 1.264 . S
C580 O574 1.248 . S
C581 O571 1.260 . S
C581 O575 1.253 . S
C582 O573 1.279 . S
C582 O576 1.250 . S
O583 Mg565 2.030 . S
O583 C577 1.248 . S
O584 Mg567 2.079 . S
O584 C577 1.264 . S
O585 Mg586 1.990 . S
O585 C599 1.253 . S
Mg586 O585 1.990 . S
Mg586 O589 2.180 . S
Mg586 O590 2.117 . S
Mg586 O604 2.030 . S
O587 Mg588 2.072 . S
O587 C599 1.260 . S
Mg588 O587 2.072 . S
Mg588 O589 2.099 . S
Mg588 O591 2.079 . S
Mg588 O592 2.072 . S
Mg588 O594 2.099 . S
Mg588 O605 2.079 . S
O589 Mg586 2.180 . S
O589 Mg588 2.099 . S
O589 C600 1.279 . S
O590 Mg586 2.117 . S
O590 C600 1.250 . S
O591 Mg588 2.079 . S
O591 C601 1.264 . S
O592 Mg588 2.072 . S
O592 C602 1.260 . S
Mg593 O594 2.180 . S
Mg593 O595 2.030 . S
Mg593 O596 1.990 . S
Mg593 O597 2.117 . S
O594 Mg588 2.099 . S
O594 Mg593 2.180 . S
O594 C603 1.279 . S
O595 Mg593 2.030 . S
O595 C601 1.248 . S
O596 Mg593 1.990 . S
O596 C602 1.253 . S
O597 Mg593 2.117 . S
O597 C603 1.250 . S
C598 O604 1.248 . S
C598 O605 1.264 . S
C599 O585 1.253 . S
C599 O587 1.260 . S
C600 O589 1.279 . S
C600 O590 1.250 . S
C601 O591 1.264 . S
C601 O595 1.248 . S
C602 O592 1.260 . S
C602 O596 1.253 . S
C603 O594 1.279 . S
C603 O597 1.250 . S
O604 Mg586 2.030 . S
O604 C598 1.248 . S
O605 Mg588 2.079 . S
O605 C598 1.264 . S
O606 Mg607 1.990 . S
O606 C620 1.253 . S
Mg607 O606 1.990 . S
Mg607 O610 2.180 . S
Mg607 O611 2.117 . S
Mg607 O625 2.030 . S
O608 Mg609 2.072 . S
O608 C620 1.260 . S
Mg609 O608 2.072 . S
Mg609 O610 2.099 . S
Mg609 O612 2.079 . S
Mg609 O613 2.072 . S
Mg609 O615 2.099 . S
Mg609 O626 2.079 . S
O610 Mg607 2.180 . S
O610 Mg609 2.099 . S
O610 C621 1.279 . S
O611 Mg607 2.117 . S
O611 C621 1.250 . S
O612 Mg609 2.079 . S
O612 C622 1.264 . S
O613 Mg609 2.072 . S
O613 C623 1.260 . S
Mg614 O615 2.180 . S
Mg614 O616 2.030 . S
Mg614 O617 1.990 . S
Mg614 O618 2.117 . S
O615 Mg609 2.099 . S
O615 Mg614 2.180 . S
O615 C624 1.279 . S
O616 Mg614 2.030 . S
O616 C622 1.248 . S
O617 Mg614 1.990 . S
O617 C623 1.253 . S
O618 Mg614 2.117 . S
O618 C624 1.250 . S
C619 O625 1.248 . S
C619 O626 1.264 . S
C620 O606 1.253 . S
C620 O608 1.260 . S
C621 O610 1.279 . S
C621 O611 1.250 . S
C622 O612 1.264 . S
C622 O616 1.248 . S
C623 O613 1.260 . S
C623 O617 1.253 . S
C624 O615 1.279 . S
C624 O618 1.250 . S
O625 Mg607 2.030 . S
O625 C619 1.248 . S
O626 Mg609 2.079 . S
O626 C619 1.264 . S
O627 Mg628 1.990 . S
O627 C641 1.253 . S
Mg628 O627 1.990 . S
Mg628 O631 2.180 1_556 S
Mg628 O632 2.117 1_556 S
Mg628 O646 2.030 . S
O629 Mg630 2.072 1_556 S
O629 C641 1.260 . S
Mg630 O629 2.072 1_554 S
Mg630 O631 2.099 . S
Mg630 O633 2.079 1_455 S
Mg630 O634 2.072 1_454 S
Mg630 O636 2.099 1_454 S
Mg630 O647 2.079 . S
O631 Mg628 2.180 1_554 S
O631 Mg630 2.099 . S
O631 C642 1.279 . S
O632 Mg628 2.117 1_554 S
O632 C642 1.250 . S
O633 Mg630 2.079 1_655 S
O633 C643 1.264 . S
O634 Mg630 2.072 1_656 S
O634 C644 1.260 . S
Mg635 O636 2.180 1_554 S
Mg635 O637 2.030 . S
Mg635 O638 1.990 1_554 S
Mg635 O639 2.117 1_554 S
O636 Mg630 2.099 1_656 S
O636 Mg635 2.180 1_556 S
O636 C645 1.279 . S
O637 Mg635 2.030 . S
O637 C643 1.248 . S
O638 Mg635 1.990 1_556 S
O638 C644 1.253 . S
O639 Mg635 2.117 1_556 S
O639 C645 1.250 . S
C640 O646 1.248 1_554 S
C640 O647 1.264 . S
C641 O627 1.253 . S
C641 O629 1.260 . S
C642 O631 1.279 . S
C642 O632 1.250 . S
C643 O633 1.264 . S
C643 O637 1.248 . S
C644 O634 1.260 . S
C644 O638 1.253 . S
C645 O636 1.279 . S
C645 O639 1.250 . S
O646 Mg628 2.030 . S
O646 C640 1.248 1_556 S
O647 Mg630 2.079 . S
O647 C640 1.264 . S
C648 C649 1.363 . S
C648 C654 1.379 . S
C648 N656 1.356 . S
C649 C648 1.363 . S
C649 C655 1.363 1_455 S
C650 C651 1.363 . S
C650 C655 1.379 . S
C650 N657 1.360 . S
C651 C650 1.363 . S
C651 C654 1.363 1_655 S
N652 C654 1.356 . S
N652 H664 0.984 . S
N652 H665 0.985 . S
N653 C655 1.356 . S
N653 H658 0.984 . S
N653 H659 0.985 . S
C654 C648 1.379 . S
C654 C651 1.363 1_455 S
C654 N652 1.356 . S
C655 C649 1.363 1_655 S
C655 C650 1.379 . S
C655 N653 1.356 . S
N656 C648 1.356 . S
N656 H662 0.984 . S
N656 H663 0.984 . S
N657 C650 1.360 . S
N657 H660 0.984 1_554 S
N657 H661 0.981 1_554 S
H658 N653 0.984 . S
H659 N653 0.985 . S
H660 N657 0.984 1_556 S
H661 N657 0.981 1_556 S
H662 N656 0.984 . S
H663 N656 0.984 . S
H664 N652 0.984 . S
H665 N652 0.985 . S
C666 C667 1.363 . S
C666 C672 1.379 . S
C666 N674 1.356 . S
C667 C666 1.363 . S
C667 C673 1.363 . S
C668 C669 1.363 . S
C668 C673 1.379 . S
C668 N675 1.356 . S
C669 C668 1.363 . S
C669 C672 1.363 . S
N670 C672 1.356 . S
N670 H682 0.984 . S
N670 H683 0.985 . S
N671 C673 1.356 . S
N671 H676 0.984 . S
N671 H677 0.985 . S
C672 C666 1.379 . S
C672 C669 1.363 . S
C672 N670 1.356 . S
C673 C667 1.363 . S
C673 C668 1.379 . S
C673 N671 1.356 . S
N674 C666 1.356 . S
N674 H680 0.984 . S
N674 H681 0.984 . S
N675 C668 1.356 . S
N675 H678 0.984 . S
N675 H679 0.985 . S
H676 N671 0.984 . S
H677 N671 0.985 . S
H678 N675 0.984 . S
H679 N675 0.985 . S
H680 N674 0.984 . S
H681 N674 0.984 . S
H682 N670 0.984 . S
H683 N670 0.985 . S
C684 C685 1.363 . S
C684 C690 1.379 . S
C684 N692 1.356 . S
C685 C684 1.363 . S
C685 C691 1.363 . S
C686 C687 1.363 . S
C686 C691 1.379 . S
C686 N693 1.356 . S
C687 C686 1.363 . S
C687 C690 1.363 . S
N688 C690 1.356 . S
N688 H700 0.984 . S
N688 H701 0.985 . S
N689 C691 1.356 . S
N689 H694 0.984 . S
N689 H695 0.985 . S
C690 C684 1.379 . S
C690 C687 1.363 . S
C690 N688 1.356 . S
C691 C685 1.363 . S
C691 C686 1.379 . S
C691 N689 1.356 . S
N692 C684 1.356 . S
N692 H698 0.984 . S
N692 H699 0.984 . S
N693 C686 1.356 . S
N693 H696 0.984 . S
N693 H697 0.985 . S
H694 N689 0.984 . S
H695 N689 0.985 . S
H696 N693 0.984 . S
H697 N693 0.985 . S
H698 N692 0.984 . S
H699 N692 0.984 . S
H700 N688 0.984 . S
H701 N688 0.985 . S
C702 C703 1.363 . S
C702 C708 1.379 . S
C702 N710 1.356 . S
C703 C702 1.363 . S
C703 C709 1.363 . S
C704 C705 1.363 . S
C704 C709 1.379 . S
C704 N711 1.356 . S
C705 C704 1.363 . S
C705 C708 1.363 . S
N706 C708 1.356 . S
N706 H718 0.984 . S
N706 H719 0.985 . S
N707 C709 1.356 . S
N707 H712 0.984 . S
N707 H713 0.985 . S
C708 C702 1.379 . S
C708 C705 1.363 . S
C708 N706 1.356 . S
C709 C703 1.363 . S
C709 C704 1.379 . S
C709 N707 1.356 . S
N710 C702 1.356 . S
N710 H716 0.984 . S
N710 H717 0.984 . S
N711 C704 1.356 . S
N711 H714 0.984 . S
N711 H715 0.985 . S
H712 N707 0.984 . S
H713 N707 0.985 . S
H714 N711 0.984 . S
H715 N711 0.985 . S
H716 N710 0.984 . S
H717 N710 0.984 . S
H718 N706 0.984 . S
H719 N706 0.985 . S
C720 C721 1.363 . S
C720 C726 1.379 . S
C720 N728 1.356 . S
C721 C720 1.363 . S
C721 C727 1.363 1_455 S
C722 C723 1.363 . S
C722 C727 1.379 . S
C722 N729 1.356 . S
C723 C722 1.363 . S
C723 C726 1.363 1_655 S
N724 C726 1.356 . S
N724 H736 0.984 . S
N724 H737 0.985 . S
N725 C727 1.356 . S
N725 H730 0.984 . S
N725 H731 0.985 . S
C726 C720 1.379 . S
C726 C723 1.363 1_455 S
C726 N724 1.356 . S
C727 C721 1.363 1_655 S
C727 C722 1.379 . S
C727 N725 1.356 . S
N728 C720 1.356 . S
N728 H734 0.984 . S
N728 H735 0.984 . S
N729 C722 1.356 . S
N729 H732 0.984 . S
N729 H733 0.985 . S
H730 N725 0.984 . S
H731 N725 0.985 . S
H732 N729 0.984 . S
H733 N729 0.985 . S
H734 N728 0.984 . S
H735 N728 0.984 . S
H736 N724 0.984 . S
H737 N724 0.985 . S
C738 C739 1.363 . S
C738 C744 1.379 . S
C738 N746 1.356 . S
C739 C738 1.363 . S
C739 C745 1.363 . S
C740 C741 1.363 . S
C740 C745 1.379 . S
C740 N747 1.356 . S
C741 C740 1.363 . S
C741 C744 1.363 . S
N742 C744 1.356 . S
N742 H754 0.984 . S
N742 H755 0.985 . S
N743 C745 1.356 . S
N743 H748 0.984 . S
N743 H749 0.985 . S
C744 C738 1.379 . S
C744 C741 1.363 . S
C744 N742 1.356 . S
C745 C739 1.363 . S
C745 C740 1.379 . S
C745 N743 1.356 . S
N746 C738 1.356 . S
N746 H752 0.984 . S
N746 H753 0.984 . S
N747 C740 1.356 . S
N747 H750 0.984 . S
N747 H751 0.985 . S
H748 N743 0.984 . S
H749 N743 0.985 . S
H750 N747 0.984 . S
H751 N747 0.985 . S
H752 N746 0.984 . S
H753 N746 0.984 . S
H754 N742 0.984 . S
H755 N742 0.985 . S
C756 C757 1.363 . S
C756 C762 1.379 . S
C756 N764 1.356 . S
C757 C756 1.363 . S
C757 C763 1.363 . S
C758 C759 1.363 . S
C758 C763 1.379 . S
C758 N765 1.356 . S
C759 C758 1.363 . S
C759 C762 1.363 . S
N760 C762 1.356 . S
N760 H772 0.984 . S
N760 H773 0.985 . S
N761 C763 1.356 . S
N761 H766 0.984 . S
N761 H767 0.985 . S
C762 C756 1.379 . S
C762 C759 1.363 . S
C762 N760 1.356 . S
C763 C757 1.363 . S
C763 C758 1.379 . S
C763 N761 1.356 . S
N764 C756 1.356 . S
N764 H770 0.984 . S
N764 H771 0.984 . S
N765 C758 1.356 . S
N765 H768 0.984 . S
N765 H769 0.985 . S
H766 N761 0.984 . S
H767 N761 0.985 . S
H768 N765 0.984 . S
H769 N765 0.985 . S
H770 N764 0.984 . S
H771 N764 0.984 . S
H772 N760 0.984 . S
H773 N760 0.985 . S
C774 C775 1.363 . S
C774 C780 1.379 . S
C774 N782 1.356 . S
C775 C774 1.363 . S
C775 C781 1.363 . S
C776 C777 1.363 . S
C776 C781 1.379 . S
C776 N783 1.356 . S
C777 C776 1.363 . S
C777 C780 1.363 . S
N778 C780 1.356 . S
N778 H790 0.984 . S
N778 H791 0.985 . S
N779 C781 1.356 . S
N779 H784 0.984 . S
N779 H785 0.985 . S
C780 C774 1.379 . S
C780 C777 1.363 . S
C780 N778 1.356 . S
C781 C775 1.363 . S
C781 C776 1.379 . S
C781 N779 1.356 . S
N782 C774 1.356 . S
N782 H788 0.984 . S
N782 H789 0.984 . S
N783 C776 1.356 . S
N783 H786 0.984 . S
N783 H787 0.985 . S
H784 N779 0.984 . S
H785 N779 0.985 . S
H786 N783 0.984 . S
H787 N783 0.985 . S
H788 N782 0.984 . S
H789 N782 0.984 . S
H790 N778 0.984 . S
H791 N778 0.985 . S
C792 C793 1.363 1_565 S
C792 C798 1.379 . S
C792 N800 1.356 . S
C793 C792 1.363 1_545 S
C793 C799 1.363 . S
C794 C795 1.363 1_545 S
C794 C799 1.379 . S
C794 N801 1.356 . S
C795 C794 1.363 1_565 S
C795 C798 1.363 . S
N796 C798 1.356 . S
N796 H808 0.984 . S
N796 H809 0.985 . S
N797 C799 1.356 . S
N797 H802 0.984 . S
N797 H803 0.985 . S
C798 C792 1.379 . S
C798 C795 1.363 . S
C798 N796 1.356 . S
C799 C793 1.363 . S
C799 C794 1.379 . S
C799 N797 1.356 . S
N800 C792 1.356 . S
N800 H806 0.984 . S
N800 H807 0.984 . S
N801 C794 1.356 . S
N801 H804 0.984 . S
N801 H805 0.985 . S
H802 N797 0.984 . S
H803 N797 0.985 . S
H804 N801 0.984 . S
H805 N801 0.985 . S
H806 N800 0.984 . S
H807 N800 0.984 . S
H808 N796 0.984 . S
H809 N796 0.985 . S
C810 C811 1.363 . S
C810 C816 1.379 . S
C810 N818 1.356 . S
C811 C810 1.363 . S
C811 C817 1.363 . S
C812 C813 1.363 . S
C812 C817 1.379 . S
C812 N819 1.356 . S
C813 C812 1.363 . S
C813 C816 1.363 . S
N814 C816 1.356 . S
N814 H826 0.984 . S
N814 H827 0.985 . S
N815 C817 1.356 . S
N815 H820 0.984 . S
N815 H821 0.985 . S
C816 C810 1.379 . S
C816 C813 1.363 . S
C816 N814 1.356 . S
C817 C811 1.363 . S
C817 C812 1.379 . S
C817 N815 1.356 . S
N818 C810 1.356 . S
N818 H824 0.984 . S
N818 H825 0.984 . S
N819 C812 1.356 . S
N819 H822 0.984 . S
N819 H823 0.985 . S
H820 N815 0.984 . S
H821 N815 0.985 . S
H822 N819 0.984 . S
H823 N819 0.985 . S
H824 N818 0.984 . S
H825 N818 0.984 . S
H826 N814 0.984 . S
H827 N814 0.985 . S
C828 C829 1.363 . S
C828 C834 1.379 . S
C828 N836 1.356 . S
C829 C828 1.363 . S
C829 C835 1.363 1_545 S
C830 C831 1.363 1_565 S
C830 C835 1.379 . S
C830 N837 1.356 . S
C831 C830 1.363 1_545 S
C831 C834 1.363 . S
N832 C834 1.356 . S
N832 H844 0.984 . S
N832 H845 0.985 . S
N833 C835 1.356 . S
N833 H838 0.984 . S
N833 H839 0.985 . S
C834 C828 1.379 . S
C834 C831 1.363 . S
C834 N832 1.356 . S
C835 C829 1.363 1_565 S
C835 C830 1.379 . S
C835 N833 1.356 . S
N836 C828 1.356 . S
N836 H842 0.984 . S
N836 H843 0.984 . S
N837 C830 1.356 . S
N837 H840 0.984 . S
N837 H841 0.985 . S
H838 N833 0.984 . S
H839 N833 0.985 . S
H840 N837 0.984 . S
H841 N837 0.985 . S
H842 N836 0.984 . S
H843 N836 0.984 . S
H844 N832 0.984 . S
H845 N832 0.985 . S
C846 C847 1.363 . S
C846 C852 1.379 . S
C846 N854 1.356 . S
C847 C846 1.363 . S
C847 C853 1.363 . S
C848 C849 1.363 . S
C848 C853 1.379 . S
C848 N855 1.356 . S
C849 C848 1.363 . S
C849 C852 1.363 . S
N850 C852 1.356 . S
N850 H862 0.984 . S
N850 H863 0.985 . S
N851 C853 1.356 . S
N851 H856 0.984 . S
N851 H857 0.985 . S
C852 C846 1.379 . S
C852 C849 1.363 . S
C852 N850 1.356 . S
C853 C847 1.363 . S
C853 C848 1.379 . S
C853 N851 1.356 . S
N854 C846 1.356 . S
N854 H860 0.984 . S
N854 H861 0.984 . S
N855 C848 1.356 . S
N855 H858 0.984 . S
N855 H859 0.985 . S
H856 N851 0.984 . S
H857 N851 0.985 . S
H858 N855 0.984 . S
H859 N855 0.985 . S
H860 N854 0.984 . S
H861 N854 0.984 . S
H862 N850 0.984 . S
H863 N850 0.985 . S
C864 C865 1.363 . S
C864 C870 1.379 . S
C864 N872 1.356 . S
C865 C864 1.363 . S
C865 C871 1.363 1_545 S
C866 C867 1.363 1_565 S
C866 C871 1.379 . S
C866 N873 1.356 . S
C867 C866 1.363 1_545 S
C867 C870 1.363 . S
N868 C870 1.356 . S
N868 H880 0.984 . S
N868 H881 0.985 . S
N869 C871 1.356 . S
N869 H874 0.984 . S
N869 H875 0.985 . S
C870 C864 1.379 . S
C870 C867 1.363 . S
C870 N868 1.356 . S
C871 C865 1.363 1_565 S
C871 C866 1.379 . S
C871 N869 1.356 . S
N872 C864 1.356 . S
N872 H878 0.984 . S
N872 H879 0.984 . S
N873 C866 1.356 . S
N873 H876 0.984 . S
N873 H877 0.985 . S
H874 N869 0.984 . S
H875 N869 0.985 . S
H876 N873 0.984 . S
H877 N873 0.985 . S
H878 N872 0.984 . S
H879 N872 0.984 . S
H880 N868 0.984 . S
H881 N868 0.985 . S
C882 C883 1.363 . S
C882 C888 1.379 . S
C882 N890 1.356 . S
C883 C882 1.363 . S
C883 C889 1.363 . S
C884 C885 1.363 . S
C884 C889 1.379 . S
C884 N891 1.356 . S
C885 C884 1.363 . S
C885 C888 1.363 . S
N886 C888 1.356 . S
N886 H898 0.984 . S
N886 H899 0.985 . S
N887 C889 1.356 . S
N887 H892 0.984 . S
N887 H893 0.985 . S
C888 C882 1.379 . S
C888 C885 1.363 . S
C888 N886 1.356 . S
C889 C883 1.363 . S
C889 C884 1.379 . S
C889 N887 1.356 . S
N890 C882 1.356 . S
N890 H896 0.984 . S
N890 H897 0.984 . S
N891 C884 1.356 . S
N891 H894 0.984 . S
N891 H895 0.985 . S
H892 N887 0.984 . S
H893 N887 0.985 . S
H894 N891 0.984 . S
H895 N891 0.985 . S
H896 N890 0.984 . S
H897 N890 0.984 . S
H898 N886 0.984 . S
H899 N886 0.985 . S
C900 C901 1.363 . S
C900 C906 1.378 1_545 S
C900 N908 1.356 . S
C901 C900 1.363 . S
C901 C907 1.363 . S
C902 C903 1.363 . S
C902 C907 1.379 1_565 S
C902 N909 1.356 . S
C903 C902 1.363 . S
C903 C906 1.364 . S
N904 C906 1.357 . S
N904 H916 0.984 . S
N904 H917 0.985 . S
N905 C907 1.356 . S
N905 H910 0.984 . S
N905 H911 0.985 . S
C906 C900 1.378 1_565 S
C906 C903 1.364 . S
C906 N904 1.357 . S
C907 C901 1.363 . S
C907 C902 1.379 1_545 S
C907 N905 1.356 . S
N908 C900 1.356 . S
N908 H914 0.984 . S
N908 H915 0.984 . S
N909 C902 1.356 . S
N909 H912 0.984 . S
N909 H913 0.985 . S
H910 N905 0.984 . S
H911 N905 0.985 . S
H912 N909 0.984 . S
H913 N909 0.985 . S
H914 N908 0.984 . S
H915 N908 0.984 . S
H916 N904 0.984 . S
H917 N904 0.985 . S
C918 C919 1.363 . S
C918 C924 1.379 . S
C918 N926 1.356 . S
C919 C918 1.363 . S
C919 C925 1.363 . S
C920 C921 1.363 . S
C920 C925 1.379 . S
C920 N927 1.356 . S
C921 C920 1.363 . S
C921 C924 1.363 . S
N922 C924 1.356 . S
N922 H934 0.984 . S
N922 H935 0.985 . S
N923 C925 1.356 . S
N923 H928 0.984 . S
N923 H929 0.985 . S
C924 C918 1.379 . S
C924 C921 1.363 . S
C924 N922 1.356 . S
C925 C919 1.363 . S
C925 C920 1.379 . S
C925 N923 1.356 . S
N926 C918 1.356 . S
N926 H932 0.984 . S
N926 H933 0.984 . S
N927 C920 1.356 . S
N927 H930 0.984 . S
N927 H931 0.985 . S
H928 N923 0.984 . S
H929 N923 0.985 . S
H930 N927 0.984 . S
H931 N927 0.985 . S
H932 N926 0.984 . S
H933 N926 0.984 . S
H934 N922 0.984 . S
H935 N922 0.985 . S
C936 C937 1.363 . S
C936 C942 1.379 . S
C936 N944 1.356 . S
C937 C936 1.363 . S
C937 C943 1.363 1_554 S
C938 C939 1.363 . S
C938 C943 1.379 . S
C938 N945 1.356 . S
C939 C938 1.363 . S
C939 C942 1.363 1_556 S
N940 C942 1.356 . S
N940 H952 0.984 1_545 S
N940 H953 0.985 . S
N941 C943 1.356 . S
N941 H946 0.984 . S
N941 H947 0.985 . S
C942 C936 1.379 . S
C942 C939 1.363 1_554 S
C942 N940 1.356 . S
C943 C937 1.363 1_556 S
C943 C938 1.379 . S
C943 N941 1.356 . S
N944 C936 1.356 . S
N944 H950 0.984 . S
N944 H951 0.984 . S
N945 C938 1.356 . S
N945 H948 0.984 . S
N945 H949 0.985 . S
H946 N941 0.984 . S
H947 N941 0.985 . S
H948 N945 0.984 . S
H949 N945 0.985 . S
H950 N944 0.984 . S
H951 N944 0.984 . S
H952 N940 0.984 1_565 S
H953 N940 0.985 . S
C954 C955 1.363 . S
C954 C960 1.379 . S
C954 N962 1.356 . S
C955 C954 1.363 . S
C955 C961 1.363 1_554 S
C956 C957 1.363 1_556 S
C956 C961 1.379 . S
C956 N963 1.356 . S
C957 C956 1.363 1_554 S
C957 C960 1.363 . S
N958 C960 1.356 . S
N958 H970 0.984 . S
N958 H971 0.985 . S
N959 C961 1.356 . S
N959 H964 0.984 . S
N959 H965 0.985 . S
C960 C954 1.379 . S
C960 C957 1.363 . S
C960 N958 1.356 . S
C961 C955 1.363 1_556 S
C961 C956 1.379 . S
C961 N959 1.356 . S
N962 C954 1.356 . S
N962 H968 0.984 . S
N962 H969 0.984 . S
N963 C956 1.356 . S
N963 H966 0.984 . S
N963 H967 0.985 . S
H964 N959 0.984 . S
H965 N959 0.985 . S
H966 N963 0.984 . S
H967 N963 0.985 . S
H968 N962 0.984 . S
H969 N962 0.984 . S
H970 N958 0.984 . S
H971 N958 0.985 . S
C972 C973 1.363 . S
C972 C978 1.379 . S
C972 N980 1.356 . S
C973 C972 1.363 . S
C973 C979 1.363 . S
C974 C975 1.363 . S
C974 C979 1.379 . S
C974 N981 1.356 . S
C975 C974 1.363 . S
C975 C978 1.363 . S
N976 C978 1.356 . S
N976 H988 0.984 . S
N976 H989 0.985 . S
N977 C979 1.356 . S
N977 H982 0.984 . S
N977 H983 0.985 . S
C978 C972 1.379 . S
C978 C975 1.363 . S
C978 N976 1.356 . S
C979 C973 1.363 . S
C979 C974 1.379 . S
C979 N977 1.356 . S
N980 C972 1.356 . S
N980 H986 0.984 . S
N980 H987 0.984 . S
N981 C974 1.356 . S
N981 H984 0.984 . S
N981 H985 0.985 . S
H982 N977 0.984 . S
H983 N977 0.985 . S
H984 N981 0.984 . S
H985 N981 0.985 . S
H986 N980 0.984 . S
H987 N980 0.984 . S
H988 N976 0.984 . S
H989 N976 0.985 . S
C990 C991 1.363 . S
C990 C996 1.379 . S
C990 N998 1.356 . S
C991 C990 1.363 . S
C991 C997 1.363 . S
C992 C993 1.363 . S
C992 C997 1.379 . S
C992 N999 1.356 . S
C993 C992 1.363 . S
C993 C996 1.363 . S
N994 C996 1.356 . S
N994 H1006 0.984 . S
N994 H1007 0.985 . S
N995 C997 1.356 . S
N995 H1000 0.984 . S
N995 H1001 0.985 . S
C996 C990 1.379 . S
C996 C993 1.363 . S
C996 N994 1.356 . S
C997 C991 1.363 . S
C997 C992 1.379 . S
C997 N995 1.356 . S
N998 C990 1.356 . S
N998 H1004 0.984 . S
N998 H1005 0.984 . S
N999 C992 1.356 . S
N999 H1002 0.984 . S
N999 H1003 0.985 . S
H1000 N995 0.984 . S
H1001 N995 0.985 . S
H1002 N999 0.984 . S
H1003 N999 0.985 . S
H1004 N998 0.984 . S
H1005 N998 0.984 . S
H1006 N994 0.984 . S
H1007 N994 0.985 . S
C1008 C1009 1.363 . S
C1008 C1014 1.379 . S
C1008 N1016 1.356 . S
C1009 C1008 1.363 . S
C1009 C1015 1.363 . S
C1010 C1011 1.363 . S
C1010 C1015 1.379 . S
C1010 N1017 1.356 . S
C1011 C1010 1.363 . S
C1011 C1014 1.363 . S
N1012 C1014 1.356 . S
N1012 H1024 0.984 . S
N1012 H1025 0.985 . S
N1013 C1015 1.356 . S
N1013 H1018 0.984 . S
N1013 H1019 0.985 . S
C1014 C1008 1.379 . S
C1014 C1011 1.363 . S
C1014 N1012 1.356 . S
C1015 C1009 1.363 . S
C1015 C1010 1.379 . S
C1015 N1013 1.356 . S
N1016 C1008 1.356 . S
N1016 H1022 0.984 . S
N1016 H1023 0.984 . S
N1017 C1010 1.356 . S
N1017 H1020 0.984 . S
N1017 H1021 0.985 . S
H1018 N1013 0.984 . S
H1019 N1013 0.985 . S
H1020 N1017 0.984 . S
H1021 N1017 0.985 . S
H1022 N1016 0.984 . S
H1023 N1016 0.984 . S
H1024 N1012 0.984 . S
H1025 N1012 0.985 . S
C1026 C1027 1.363 . S
C1026 C1032 1.379 . S
C1026 N1034 1.356 . S
C1027 C1026 1.363 . S
C1027 C1033 1.363 . S
C1028 C1029 1.363 . S
C1028 C1033 1.379 . S
C1028 N1035 1.356 . S
C1029 C1028 1.363 . S
C1029 C1032 1.363 . S
N1030 C1032 1.356 . S
N1030 H1042 0.984 . S
N1030 H1043 0.985 . S
N1031 C1033 1.356 . S
N1031 H1036 0.984 . S
N1031 H1037 0.985 . S
C1032 C1026 1.379 . S
C1032 C1029 1.363 . S
C1032 N1030 1.356 . S
C1033 C1027 1.363 . S
C1033 C1028 1.379 . S
C1033 N1031 1.356 . S
N1034 C1026 1.356 . S
N1034 H1040 0.984 . S
N1034 H1041 0.984 . S
N1035 C1028 1.356 . S
N1035 H1038 0.984 . S
N1035 H1039 0.985 . S
H1036 N1031 0.984 . S
H1037 N1031 0.985 . S
H1038 N1035 0.984 . S
H1039 N1035 0.985 . S
H1040 N1034 0.984 . S
H1041 N1034 0.984 . S
H1042 N1030 0.984 . S
H1043 N1030 0.985 . S
C1044 C1045 1.363 . S
C1044 C1050 1.379 . S
C1044 N1052 1.356 . S
C1045 C1044 1.363 . S
C1045 C1051 1.363 . S
C1046 C1047 1.363 . S
C1046 C1051 1.379 . S
C1046 N1053 1.356 . S
C1047 C1046 1.363 . S
C1047 C1050 1.363 . S
N1048 C1050 1.356 . S
N1048 H1060 0.984 . S
N1048 H1061 0.985 . S
N1049 C1051 1.356 . S
N1049 H1054 0.984 . S
N1049 H1055 0.985 . S
C1050 C1044 1.379 . S
C1050 C1047 1.363 . S
C1050 N1048 1.356 . S
C1051 C1045 1.363 . S
C1051 C1046 1.379 . S
C1051 N1049 1.356 . S
N1052 C1044 1.356 . S
N1052 H1058 0.984 . S
N1052 H1059 0.984 . S
N1053 C1046 1.356 . S
N1053 H1056 0.984 . S
N1053 H1057 0.985 . S
H1054 N1049 0.984 . S
H1055 N1049 0.985 . S
H1056 N1053 0.984 . S
H1057 N1053 0.985 . S
H1058 N1052 0.984 . S
H1059 N1052 0.984 . S
H1060 N1048 0.984 . S
H1061 N1048 0.985 . S
C1062 C1063 1.363 . S
C1062 C1068 1.379 . S
C1062 N1070 1.356 . S
C1063 C1062 1.363 . S
C1063 C1069 1.363 . S
C1064 C1065 1.363 . S
C1064 C1069 1.379 . S
C1064 N1071 1.356 . S
C1065 C1064 1.363 . S
C1065 C1068 1.363 . S
N1066 C1068 1.356 . S
N1066 H1078 0.984 . S
N1066 H1079 0.985 . S
N1067 C1069 1.356 . S
N1067 H1072 0.984 . S
N1067 H1073 0.985 . S
C1068 C1062 1.379 . S
C1068 C1065 1.363 . S
C1068 N1066 1.356 . S
C1069 C1063 1.363 . S
C1069 C1064 1.379 . S
C1069 N1067 1.356 . S
N1070 C1062 1.356 . S
N1070 H1076 0.984 . S
N1070 H1077 0.984 . S
N1071 C1064 1.356 . S
N1071 H1074 0.984 . S
N1071 H1075 0.985 . S
H1072 N1067 0.984 . S
H1073 N1067 0.985 . S
H1074 N1071 0.984 . S
H1075 N1071 0.985 . S
H1076 N1070 0.984 . S
H1077 N1070 0.984 . S
H1078 N1066 0.984 . S
H1079 N1066 0.985 . S
C1080 C1081 1.361 1_655 S
C1080 C1086 1.378 1_655 S
C1080 N1088 1.359 . S
C1081 C1080 1.361 1_455 S
C1081 C1087 1.363 . S
C1082 C1083 1.363 . S
C1082 C1087 1.379 . S
C1082 N1089 1.356 . S
C1083 C1082 1.363 . S
C1083 C1086 1.363 . S
N1084 C1086 1.356 1_654 S
N1084 H1096 0.984 . S
N1084 H1097 0.985 1_655 S
N1085 C1087 1.356 . S
N1085 H1090 0.984 . S
N1085 H1091 0.985 . S
C1086 C1080 1.378 1_455 S
C1086 C1083 1.363 . S
C1086 N1084 1.356 1_456 S
C1087 C1081 1.363 . S
C1087 C1082 1.379 . S
C1087 N1085 1.356 . S
N1088 C1080 1.359 . S
N1088 H1094 0.984 1_556 S
N1088 H1095 0.984 . S
N1089 C1082 1.356 . S
N1089 H1092 0.984 . S
N1089 H1093 0.985 . S
H1090 N1085 0.984 . S
H1091 N1085 0.985 . S
H1092 N1089 0.984 . S
H1093 N1089 0.985 . S
H1094 N1088 0.984 1_554 S
H1095 N1088 0.984 . S
H1096 N1084 0.984 . S
H1097 N1084 0.985 1_455 S
C1098 C1099 1.363 . S
C1098 C1104 1.379 . S
C1098 N1106 1.356 . S
C1099 C1098 1.363 . S
C1099 C1105 1.363 . S
C1100 C1101 1.363 . S
C1100 C1105 1.379 . S
C1100 N1107 1.356 . S
C1101 C1100 1.363 . S
C1101 C1104 1.363 . S
N1102 C1104 1.356 . S
N1102 H1114 0.984 . S
N1102 H1115 0.985 . S
N1103 C1105 1.356 . S
N1103 H1108 0.984 . S
N1103 H1109 0.985 . S
C1104 C1098 1.379 . S
C1104 C1101 1.363 . S
C1104 N1102 1.356 . S
C1105 C1099 1.363 . S
C1105 C1100 1.379 . S
C1105 N1103 1.356 . S
N1106 C1098 1.356 . S
N1106 H1112 0.984 . S
N1106 H1113 0.984 . S
N1107 C1100 1.356 . S
N1107 H1110 0.984 . S
N1107 H1111 0.985 . S
H1108 N1103 0.984 . S
H1109 N1103 0.985 . S
H1110 N1107 0.984 . S
H1111 N1107 0.985 . S
H1112 N1106 0.984 . S
H1113 N1106 0.984 . S
H1114 N1102 0.984 . S
H1115 N1102 0.985 . S
C1116 C1117 1.363 . S
C1116 C1122 1.379 . S
C1116 N1124 1.356 . S
C1117 C1116 1.363 . S
C1117 C1123 1.363 . S
C1118 C1119 1.363 . S
C1118 C1123 1.379 . S
C1118 N1125 1.356 . S
C1119 C1118 1.363 . S
C1119 C1122 1.363 . S
N1120 C1122 1.356 . S
N1120 H1132 0.984 . S
N1120 H1133 0.985 . S
N1121 C1123 1.356 . S
N1121 H1126 0.984 . S
N1121 H1127 0.985 . S
C1122 C1116 1.379 . S
C1122 C1119 1.363 . S
C1122 N1120 1.356 . S
C1123 C1117 1.363 . S
C1123 C1118 1.379 . S
C1123 N1121 1.356 . S
N1124 C1116 1.356 . S
N1124 H1130 0.984 . S
N1124 H1131 0.984 . S
N1125 C1118 1.356 . S
N1125 H1128 0.984 . S
N1125 H1129 0.985 . S
H1126 N1121 0.984 . S
H1127 N1121 0.985 . S
H1128 N1125 0.984 . S
H1129 N1125 0.985 . S
H1130 N1124 0.984 . S
H1131 N1124 0.984 . S
H1132 N1120 0.984 . S
H1133 N1120 0.985 . S
C1134 C1135 1.363 . S
C1134 C1140 1.379 . S
C1134 N1142 1.356 . S
C1135 C1134 1.363 . S
C1135 C1141 1.363 . S
C1136 C1137 1.363 . S
C1136 C1141 1.379 . S
C1136 N1143 1.356 . S
C1137 C1136 1.363 . S
C1137 C1140 1.363 . S
N1138 C1140 1.356 . S
N1138 H1150 0.984 . S
N1138 H1151 0.985 . S
N1139 C1141 1.356 . S
N1139 H1144 0.984 . S
N1139 H1145 0.985 . S
C1140 C1134 1.379 . S
C1140 C1137 1.363 . S
C1140 N1138 1.356 . S
C1141 C1135 1.363 . S
C1141 C1136 1.379 . S
C1141 N1139 1.356 . S
N1142 C1134 1.356 . S
N1142 H1148 0.984 . S
N1142 H1149 0.984 . S
N1143 C1136 1.356 . S
N1143 H1146 0.984 . S
N1143 H1147 0.985 . S
H1144 N1139 0.984 . S
H1145 N1139 0.985 . S
H1146 N1143 0.984 . S
H1147 N1143 0.985 . S
H1148 N1142 0.984 . S
H1149 N1142 0.984 . S
H1150 N1138 0.984 . S
H1151 N1138 0.985 . S
C1152 C1153 1.363 1_655 S
C1152 C1158 1.379 . S
C1152 N1160 1.356 . S
C1153 C1152 1.363 1_455 S
C1153 C1159 1.363 . S
C1154 C1155 1.363 . S
C1154 C1159 1.379 . S
C1154 N1161 1.356 . S
C1155 C1154 1.363 . S
C1155 C1158 1.363 1_455 S
N1156 C1158 1.356 . S
N1156 H1168 0.984 . S
N1156 H1169 0.985 . S
N1157 C1159 1.356 . S
N1157 H1162 0.984 . S
N1157 H1163 0.985 . S
C1158 C1152 1.379 . S
C1158 C1155 1.363 1_655 S
C1158 N1156 1.356 . S
C1159 C1153 1.363 . S
C1159 C1154 1.379 . S
C1159 N1157 1.356 . S
N1160 C1152 1.356 . S
N1160 H1166 0.984 . S
N1160 H1167 0.984 . S
N1161 C1154 1.356 . S
N1161 H1164 0.984 . S
N1161 H1165 0.985 . S
H1162 N1157 0.984 . S
H1163 N1157 0.985 . S
H1164 N1161 0.984 . S
H1165 N1161 0.985 . S
H1166 N1160 0.984 . S
H1167 N1160 0.984 . S
H1168 N1156 0.984 . S
H1169 N1156 0.985 . S
C1170 C1171 1.363 . S
C1170 C1176 1.379 . S
C1170 N1178 1.356 . S
C1171 C1170 1.363 . S
C1171 C1177 1.363 . S
C1172 C1173 1.363 . S
C1172 C1177 1.379 . S
C1172 N1179 1.356 . S
C1173 C1172 1.363 . S
C1173 C1176 1.363 . S
N1174 C1176 1.356 . S
N1174 H1186 0.984 . S
N1174 H1187 0.985 . S
N1175 C1177 1.356 . S
N1175 H1180 0.984 . S
N1175 H1181 0.985 . S
C1176 C1170 1.379 . S
C1176 C1173 1.363 . S
C1176 N1174 1.356 . S
C1177 C1171 1.363 . S
C1177 C1172 1.379 . S
C1177 N1175 1.356 . S
N1178 C1170 1.356 . S
N1178 H1184 0.984 . S
N1178 H1185 0.984 . S
N1179 C1172 1.356 . S
N1179 H1182 0.984 . S
N1179 H1183 0.985 . S
H1180 N1175 0.984 . S
H1181 N1175 0.985 . S
H1182 N1179 0.984 . S
H1183 N1179 0.985 . S
H1184 N1178 0.984 . S
H1185 N1178 0.984 . S
H1186 N1174 0.984 . S
H1187 N1174 0.985 . S
C1188 C1189 1.363 . S
C1188 C1194 1.379 . S
C1188 N1196 1.356 . S
C1189 C1188 1.363 . S
C1189 C1195 1.363 . S
C1190 C1191 1.363 . S
C1190 C1195 1.379 . S
C1190 N1197 1.356 . S
C1191 C1190 1.363 . S
C1191 C1194 1.363 . S
N1192 C1194 1.356 . S
N1192 H1204 0.984 . S
N1192 H1205 0.985 . S
N1193 C1195 1.356 . S
N1193 H1198 0.984 . S
N1193 H1199 0.985 . S
C1194 C1188 1.379 . S
C1194 C1191 1.363 . S
C1194 N1192 1.356 . S
C1195 C1189 1.363 . S
C1195 C1190 1.379 . S
C1195 N1193 1.356 . S
N1196 C1188 1.356 . S
N1196 H1202 0.984 . S
N1196 H1203 0.984 . S
N1197 C1190 1.356 . S
N1197 H1200 0.984 . S
N1197 H1201 0.985 1_554 S
H1198 N1193 0.984 . S
H1199 N1193 0.985 . S
H1200 N1197 0.984 . S
H1201 N1197 0.985 1_556 S
H1202 N1196 0.984 . S
H1203 N1196 0.984 . S
H1204 N1192 0.984 . S
H1205 N1192 0.985 . S
C1206 C1207 1.363 . S
C1206 C1212 1.379 . S
C1206 N1214 1.356 . S
C1207 C1206 1.363 . S
C1207 C1213 1.363 . S
C1208 C1209 1.363 . S
C1208 C1213 1.379 . S
C1208 N1215 1.356 . S
C1209 C1208 1.363 . S
C1209 C1212 1.363 . S
N1210 C1212 1.356 . S
N1210 H1222 0.984 . S
N1210 H1223 0.985 . S
N1211 C1213 1.356 . S
N1211 H1216 0.984 . S
N1211 H1217 0.985 . S
C1212 C1206 1.379 . S
C1212 C1209 1.363 . S
C1212 N1210 1.356 . S
C1213 C1207 1.363 . S
C1213 C1208 1.379 . S
C1213 N1211 1.356 . S
N1214 C1206 1.356 . S
N1214 H1220 0.984 . S
N1214 H1221 0.984 . S
N1215 C1208 1.356 . S
N1215 H1218 0.984 . S
N1215 H1219 0.985 . S
H1216 N1211 0.984 . S
H1217 N1211 0.985 . S
H1218 N1215 0.984 . S
H1219 N1215 0.985 . S
H1220 N1214 0.984 . S
H1221 N1214 0.984 . S
H1222 N1210 0.984 . S
H1223 N1210 0.985 . S
C1224 C1225 1.363 1_565 S
C1224 C1230 1.379 . S
C1224 N1232 1.356 . S
C1225 C1224 1.363 1_545 S
C1225 C1231 1.363 . S
C1226 C1227 1.363 . S
C1226 C1231 1.379 . S
C1226 N1233 1.356 . S
C1227 C1226 1.363 . S
C1227 C1230 1.363 1_545 S
N1228 C1230 1.356 . S
N1228 H1240 0.984 . S
N1228 H1241 0.985 . S
N1229 C1231 1.356 . S
N1229 H1234 0.984 . S
N1229 H1235 0.985 . S
C1230 C1224 1.379 . S
C1230 C1227 1.363 1_565 S
C1230 N1228 1.356 . S
C1231 C1225 1.363 . S
C1231 C1226 1.379 . S
C1231 N1229 1.356 . S
N1232 C1224 1.356 . S
N1232 H1238 0.984 . S
N1232 H1239 0.984 . S
N1233 C1226 1.356 . S
N1233 H1236 0.992 . S
N1233 H1237 0.985 1_655 S
H1234 N1229 0.984 . S
H1235 N1229 0.985 . S
H1236 N1233 0.992 . S
H1237 N1233 0.985 1_455 S
H1238 N1232 0.984 . S
H1239 N1232 0.984 . S
H1240 N1228 0.984 . S
H1241 N1228 0.985 . S
C1242 C1243 1.363 . S
C1242 C1248 1.379 . S
C1242 N1250 1.356 . S
C1243 C1242 1.363 . S
C1243 C1249 1.363 . S
C1244 C1245 1.363 . S
C1244 C1249 1.379 . S
C1244 N1251 1.356 . S
C1245 C1244 1.363 . S
C1245 C1248 1.363 . S
N1246 C1248 1.356 . S
N1246 H1258 0.984 . S
N1246 H1259 0.985 . S
N1247 C1249 1.356 . S
N1247 H1252 0.984 . S
N1247 H1253 0.985 . S
C1248 C1242 1.379 . S
C1248 C1245 1.363 . S
C1248 N1246 1.356 . S
C1249 C1243 1.363 . S
C1249 C1244 1.379 . S
C1249 N1247 1.356 . S
N1250 C1242 1.356 . S
N1250 H1256 0.984 . S
N1250 H1257 0.984 . S
N1251 C1244 1.356 . S
N1251 H1254 0.984 . S
N1251 H1255 0.985 . S
H1252 N1247 0.984 . S
H1253 N1247 0.985 . S
H1254 N1251 0.984 . S
H1255 N1251 0.985 . S
H1256 N1250 0.984 . S
H1257 N1250 0.984 . S
H1258 N1246 0.984 . S
H1259 N1246 0.985 . S
C1260 C1261 1.363 1_565 S
C1260 C1266 1.379 . S
C1260 N1268 1.356 . S
C1261 C1260 1.363 1_545 S
C1261 C1267 1.363 . S
C1262 C1263 1.363 1_545 S
C1262 C1267 1.379 . S
C1262 N1269 1.356 . S
C1263 C1262 1.363 1_565 S
C1263 C1266 1.363 . S
N1264 C1266 1.356 . S
N1264 H1276 0.984 . S
N1264 H1277 0.985 . S
N1265 C1267 1.356 . S
N1265 H1270 0.984 . S
N1265 H1271 0.985 . S
C1266 C1260 1.379 . S
C1266 C1263 1.363 . S
C1266 N1264 1.356 . S
C1267 C1261 1.363 . S
C1267 C1262 1.379 . S
C1267 N1265 1.356 . S
N1268 C1260 1.356 . S
N1268 H1274 0.984 . S
N1268 H1275 0.984 . S
N1269 C1262 1.356 . S
N1269 H1272 0.984 . S
N1269 H1273 0.985 . S
H1270 N1265 0.984 . S
H1271 N1265 0.985 . S
H1272 N1269 0.984 . S
H1273 N1269 0.985 . S
H1274 N1268 0.984 . S
H1275 N1268 0.984 . S
H1276 N1264 0.984 . S
H1277 N1264 0.985 . S
C1278 C1279 1.363 . S
C1278 C1284 1.379 . S
C1278 N1286 1.356 . S
C1279 C1278 1.363 . S
C1279 C1285 1.363 . S
C1280 C1281 1.363 . S
C1280 C1285 1.379 . S
C1280 N1287 1.356 . S
C1281 C1280 1.363 . S
C1281 C1284 1.363 . S
N1282 C1284 1.356 . S
N1282 H1294 0.984 . S
N1282 H1295 0.985 . S
N1283 C1285 1.356 . S
N1283 H1288 0.984 . S
N1283 H1289 0.985 . S
C1284 C1278 1.379 . S
C1284 C1281 1.363 . S
C1284 N1282 1.356 . S
C1285 C1279 1.363 . S
C1285 C1280 1.379 . S
C1285 N1283 1.356 . S
N1286 C1278 1.356 . S
N1286 H1292 0.984 . S
N1286 H1293 0.984 . S
N1287 C1280 1.356 . S
N1287 H1290 0.984 . S
N1287 H1291 0.985 . S
H1288 N1283 0.984 . S
H1289 N1283 0.985 . S
H1290 N1287 0.984 . S
H1291 N1287 0.985 . S
H1292 N1286 0.984 . S
H1293 N1286 0.984 . S
H1294 N1282 0.984 . S
H1295 N1282 0.985 . S
C1296 C1297 1.363 1_545 S
C1296 C1302 1.379 . S
C1296 N1304 1.356 . S
C1297 C1296 1.363 1_565 S
C1297 C1303 1.363 . S
C1298 C1299 1.363 . S
C1298 C1303 1.379 . S
C1298 N1305 1.356 . S
C1299 C1298 1.363 . S
C1299 C1302 1.363 1_565 S
N1300 C1302 1.356 . S
N1300 H1312 0.984 . S
N1300 H1313 0.985 . S
N1301 C1303 1.356 . S
N1301 H1306 0.984 . S
N1301 H1307 0.985 . S
C1302 C1296 1.379 . S
C1302 C1299 1.363 1_545 S
C1302 N1300 1.356 . S
C1303 C1297 1.363 . S
C1303 C1298 1.379 . S
C1303 N1301 1.356 . S
N1304 C1296 1.356 . S
N1304 H1310 0.984 . S
N1304 H1311 0.984 . S
N1305 C1298 1.356 . S
N1305 H1308 0.984 . S
N1305 H1309 0.985 . S
H1306 N1301 0.984 . S
H1307 N1301 0.985 . S
H1308 N1305 0.984 . S
H1309 N1305 0.985 . S
H1310 N1304 0.984 . S
H1311 N1304 0.984 . S
H1312 N1300 0.984 . S
H1313 N1300 0.985 . S
C1314 C1315 1.363 . S
C1314 C1320 1.379 . S
C1314 N1322 1.356 . S
C1315 C1314 1.363 . S
C1315 C1321 1.363 . S
C1316 C1317 1.363 . S
C1316 C1321 1.379 . S
C1316 N1323 1.356 . S
C1317 C1316 1.363 . S
C1317 C1320 1.363 . S
N1318 C1320 1.356 . S
N1318 H1330 0.984 . S
N1318 H1331 0.985 . S
N1319 C1321 1.356 . S
N1319 H1324 0.984 . S
N1319 H1325 0.985 . S
C1320 C1314 1.379 . S
C1320 C1317 1.363 . S
C1320 N1318 1.356 . S
C1321 C1315 1.363 . S
C1321 C1316 1.379 . S
C1321 N1319 1.356 . S
N1322 C1314 1.356 . S
N1322 H1328 0.984 . S
N1322 H1329 0.984 . S
N1323 C1316 1.356 . S
N1323 H1326 0.984 . S
N1323 H1327 0.985 . S
H1324 N1319 0.984 . S
H1325 N1319 0.985 . S
H1326 N1323 0.984 . S
H1327 N1323 0.985 . S
H1328 N1322 0.984 . S
H1329 N1322 0.984 . S
H1330 N1318 0.984 . S
H1331 N1318 0.985 . S
C1332 C1333 1.363 . S
C1332 C1338 1.379 . S
C1332 N1340 1.356 . S
C1333 C1332 1.363 . S
C1333 C1339 1.363 1_545 S
C1334 C1335 1.363 1_565 S
C1334 C1339 1.379 . S
C1334 N1341 1.356 . S
C1335 C1334 1.363 1_545 S
C1335 C1338 1.363 . S
N1336 C1338 1.356 . S
N1336 H1348 0.984 . S
N1336 H1349 0.985 . S
N1337 C1339 1.356 . S
N1337 H1342 0.984 . S
N1337 H1343 0.985 . S
C1338 C1332 1.379 . S
C1338 C1335 1.363 . S
C1338 N1336 1.356 . S
C1339 C1333 1.363 1_565 S
C1339 C1334 1.379 . S
C1339 N1337 1.356 . S
N1340 C1332 1.356 . S
N1340 H1346 0.984 . S
N1340 H1347 0.984 . S
N1341 C1334 1.356 . S
N1341 H1344 0.984 . S
N1341 H1345 0.985 . S
H1342 N1337 0.984 . S
H1343 N1337 0.985 . S
H1344 N1341 0.984 . S
H1345 N1341 0.985 . S
H1346 N1340 0.984 . S
H1347 N1340 0.984 . S
H1348 N1336 0.984 . S
H1349 N1336 0.985 . S
C1350 C1351 1.363 . S
C1350 C1356 1.379 . S
C1350 N1358 1.356 . S
C1351 C1350 1.363 . S
C1351 C1357 1.363 . S
C1352 C1353 1.363 . S
C1352 C1357 1.379 . S
C1352 N1359 1.356 . S
C1353 C1352 1.363 . S
C1353 C1356 1.363 . S
N1354 C1356 1.356 . S
N1354 H1366 0.984 . S
N1354 H1367 0.985 . S
N1355 C1357 1.356 . S
N1355 H1360 0.984 . S
N1355 H1361 0.985 . S
C1356 C1350 1.379 . S
C1356 C1353 1.363 . S
C1356 N1354 1.356 . S
C1357 C1351 1.363 . S
C1357 C1352 1.379 . S
C1357 N1355 1.356 . S
N1358 C1350 1.356 . S
N1358 H1364 0.984 . S
N1358 H1365 0.984 . S
N1359 C1352 1.356 . S
N1359 H1362 0.984 . S
N1359 H1363 0.985 . S
H1360 N1355 0.984 . S
H1361 N1355 0.985 . S
H1362 N1359 0.984 . S
H1363 N1359 0.985 . S
H1364 N1358 0.984 . S
H1365 N1358 0.984 . S
H1366 N1354 0.984 . S
H1367 N1354 0.985 . S
C1368 C1369 1.363 1_556 S
C1368 C1374 1.379 . S
C1368 N1376 1.356 . S
C1369 C1368 1.363 1_554 S
C1369 C1375 1.363 . S
C1370 C1371 1.363 . S
C1370 C1375 1.379 . S
C1370 N1377 1.356 . S
C1371 C1370 1.363 . S
C1371 C1374 1.363 1_554 S
N1372 C1374 1.356 . S
N1372 H1384 0.984 . S
N1372 H1385 0.985 . S
N1373 C1375 1.356 . S
N1373 H1378 0.984 . S
N1373 H1379 0.985 . S
C1374 C1368 1.379 . S
C1374 C1371 1.363 1_556 S
C1374 N1372 1.356 . S
C1375 C1369 1.363 . S
C1375 C1370 1.379 . S
C1375 N1373 1.356 . S
N1376 C1368 1.356 . S
N1376 H1382 0.984 . S
N1376 H1383 0.984 . S
N1377 C1370 1.356 . S
N1377 H1380 0.984 . S
N1377 H1381 0.985 . S
H1378 N1373 0.984 . S
H1379 N1373 0.985 . S
H1380 N1377 0.984 . S
H1381 N1377 0.985 . S
H1382 N1376 0.984 . S
H1383 N1376 0.984 . S
H1384 N1372 0.984 . S
H1385 N1372 0.985 . S
C1386 C1387 1.363 1_554 S
C1386 C1392 1.379 . S
C1386 N1394 1.356 . S
C1387 C1386 1.363 1_556 S
C1387 C1393 1.363 . S
C1388 C1389 1.363 . S
C1388 C1393 1.379 . S
C1388 N1395 1.356 . S
C1389 C1388 1.363 . S
C1389 C1392 1.363 1_556 S
N1390 C1392 1.356 . S
N1390 H1402 0.984 . S
N1390 H1403 0.985 . S
N1391 C1393 1.356 . S
N1391 H1396 0.984 . S
N1391 H1397 0.985 . S
C1392 C1386 1.379 . S
C1392 C1389 1.363 1_554 S
C1392 N1390 1.356 . S
C1393 C1387 1.363 . S
C1393 C1388 1.379 . S
C1393 N1391 1.356 . S
N1394 C1386 1.356 . S
N1394 H1400 0.984 . S
N1394 H1401 0.984 . S
N1395 C1388 1.356 . S
N1395 H1398 0.984 . S
N1395 H1399 0.985 . S
H1396 N1391 0.984 . S
H1397 N1391 0.985 . S
H1398 N1395 0.984 . S
H1399 N1395 0.985 . S
H1400 N1394 0.984 . S
H1401 N1394 0.984 . S
H1402 N1390 0.984 . S
H1403 N1390 0.985 . S
C1404 C1405 1.363 . S
C1404 C1410 1.379 . S
C1404 N1412 1.356 . S
C1405 C1404 1.363 . S
C1405 C1411 1.363 . S
C1406 C1407 1.363 . S
C1406 C1411 1.379 . S
C1406 N1413 1.356 . S
C1407 C1406 1.363 . S
C1407 C1410 1.363 . S
N1408 C1410 1.356 . S
N1408 H1420 0.984 . S
N1408 H1421 0.985 . S
N1409 C1411 1.356 . S
N1409 H1414 0.984 . S
N1409 H1415 0.985 . S
C1410 C1404 1.379 . S
C1410 C1407 1.363 . S
C1410 N1408 1.356 . S
C1411 C1405 1.363 . S
C1411 C1406 1.379 . S
C1411 N1409 1.356 . S
N1412 C1404 1.356 . S
N1412 H1418 0.984 . S
N1412 H1419 0.984 . S
N1413 C1406 1.356 . S
N1413 H1416 0.984 . S
N1413 H1417 0.985 . S
H1414 N1409 0.984 . S
H1415 N1409 0.985 . S
H1416 N1413 0.984 . S
H1417 N1413 0.985 . S
H1418 N1412 0.984 . S
H1419 N1412 0.984 . S
H1420 N1408 0.984 . S
H1421 N1408 0.985 . S
C1422 C1423 1.363 . S
C1422 C1428 1.379 . S
C1422 N1430 1.356 . S
C1423 C1422 1.363 . S
C1423 C1429 1.363 . S
C1424 C1425 1.363 . S
C1424 C1429 1.379 . S
C1424 N1431 1.356 . S
C1425 C1424 1.363 . S
C1425 C1428 1.363 . S
N1426 C1428 1.356 . S
N1426 H1438 0.984 . S
N1426 H1439 0.985 . S
N1427 C1429 1.356 . S
N1427 H1432 0.984 . S
N1427 H1433 0.985 . S
C1428 C1422 1.379 . S
C1428 C1425 1.363 . S
C1428 N1426 1.356 . S
C1429 C1423 1.363 . S
C1429 C1424 1.379 . S
C1429 N1427 1.356 . S
N1430 C1422 1.356 . S
N1430 H1436 0.984 . S
N1430 H1437 0.984 . S
N1431 C1424 1.356 . S
N1431 H1434 0.984 . S
N1431 H1435 0.985 . S
H1432 N1427 0.984 . S
H1433 N1427 0.985 . S
H1434 N1431 0.984 . S
H1435 N1431 0.985 . S
H1436 N1430 0.984 . S
H1437 N1430 0.984 . S
H1438 N1426 0.984 . S
H1439 N1426 0.985 . S
C1440 C1441 1.363 . S
C1440 C1446 1.379 . S
C1440 N1448 1.356 . S
C1441 C1440 1.363 . S
C1441 C1447 1.363 . S
C1442 C1443 1.363 . S
C1442 C1447 1.379 . S
C1442 N1449 1.356 . S
C1443 C1442 1.363 . S
C1443 C1446 1.363 . S
N1444 C1446 1.356 . S
N1444 H1456 0.984 . S
N1444 H1457 0.985 . S
N1445 C1447 1.356 . S
N1445 H1450 0.984 . S
N1445 H1451 0.985 . S
C1446 C1440 1.379 . S
C1446 C1443 1.363 . S
C1446 N1444 1.356 . S
C1447 C1441 1.363 . S
C1447 C1442 1.379 . S
C1447 N1445 1.356 . S
N1448 C1440 1.356 . S
N1448 H1454 0.984 . S
N1448 H1455 0.984 . S
N1449 C1442 1.356 . S
N1449 H1452 0.984 . S
N1449 H1453 0.985 . S
H1450 N1445 0.984 . S
H1451 N1445 0.985 . S
H1452 N1449 0.984 . S
H1453 N1449 0.985 . S
H1454 N1448 0.984 . S
H1455 N1448 0.984 . S
H1456 N1444 0.984 . S
H1457 N1444 0.985 . S
C1458 C1459 1.363 . S
C1458 C1464 1.379 . S
C1458 N1466 1.356 . S
C1459 C1458 1.363 . S
C1459 C1465 1.363 . S
C1460 C1461 1.363 . S
C1460 C1465 1.379 . S
C1460 N1467 1.356 . S
C1461 C1460 1.363 . S
C1461 C1464 1.363 . S
N1462 C1464 1.356 . S
N1462 H1474 0.984 . S
N1462 H1475 0.985 . S
N1463 C1465 1.356 . S
N1463 H1468 0.984 . S
N1463 H1469 0.985 . S
C1464 C1458 1.379 . S
C1464 C1461 1.363 . S
C1464 N1462 1.356 . S
C1465 C1459 1.363 . S
C1465 C1460 1.379 . S
C1465 N1463 1.356 . S
N1466 C1458 1.356 . S
N1466 H1472 0.984 . S
N1466 H1473 0.984 . S
N1467 C1460 1.356 . S
N1467 H1470 0.984 . S
N1467 H1471 0.985 . S
H1468 N1463 0.984 . S
H1469 N1463 0.985 . S
H1470 N1467 0.984 . S
H1471 N1467 0.985 . S
H1472 N1466 0.984 . S
H1473 N1466 0.984 . S
H1474 N1462 0.984 . S
H1475 N1462 0.985 . S
C1476 C1477 1.363 . S
C1476 C1482 1.379 . S
C1476 N1484 1.356 . S
C1477 C1476 1.363 . S
C1477 C1483 1.363 . S
C1478 C1479 1.363 . S
C1478 C1483 1.379 . S
C1478 N1485 1.356 . S
C1479 C1478 1.363 . S
C1479 C1482 1.363 . S
N1480 C1482 1.356 . S
N1480 H1492 0.984 . S
N1480 H1493 0.985 . S
N1481 C1483 1.356 . S
N1481 H1486 0.984 . S
N1481 H1487 0.985 . S
C1482 C1476 1.379 . S
C1482 C1479 1.363 . S
C1482 N1480 1.356 . S
C1483 C1477 1.363 . S
C1483 C1478 1.379 . S
C1483 N1481 1.356 . S
N1484 C1476 1.356 . S
N1484 H1490 0.984 . S
N1484 H1491 0.984 . S
N1485 C1478 1.356 . S
N1485 H1488 0.984 . S
N1485 H1489 0.985 . S
H1486 N1481 0.984 . S
H1487 N1481 0.985 . S
H1488 N1485 0.984 . S
H1489 N1485 0.985 . S
H1490 N1484 0.984 . S
H1491 N1484 0.984 . S
H1492 N1480 0.984 . S
H1493 N1480 0.985 . S
C1494 C1495 1.363 . S
C1494 C1500 1.379 . S
C1494 N1502 1.356 . S
C1495 C1494 1.363 . S
C1495 C1501 1.363 . S
C1496 C1497 1.363 . S
C1496 C1501 1.379 . S
C1496 N1503 1.356 . S
C1497 C1496 1.363 . S
C1497 C1500 1.363 . S
N1498 C1500 1.356 . S
N1498 H1510 0.984 . S
N1498 H1511 0.985 . S
N1499 C1501 1.356 . S
N1499 H1504 0.984 . S
N1499 H1505 0.985 . S
C1500 C1494 1.379 . S
C1500 C1497 1.363 . S
C1500 N1498 1.356 . S
C1501 C1495 1.363 . S
C1501 C1496 1.379 . S
C1501 N1499 1.356 . S
N1502 C1494 1.356 . S
N1502 H1508 0.984 . S
N1502 H1509 0.984 . S
N1503 C1496 1.356 . S
N1503 H1506 0.984 . S
N1503 H1507 0.985 . S
H1504 N1499 0.984 . S
H1505 N1499 0.985 . S
H1506 N1503 0.984 . S
H1507 N1503 0.985 . S
H1508 N1502 0.984 . S
H1509 N1502 0.984 . S
H1510 N1498 0.984 . S
H1511 N1498 0.985 . S
C1512 C1513 1.363 . S
C1512 C1518 1.379 . S
C1512 N1520 1.356 . S
C1513 C1512 1.363 . S
C1513 C1519 1.363 . S
C1514 C1515 1.363 . S
C1514 C1519 1.379 . S
C1514 N1521 1.356 . S
C1515 C1514 1.363 . S
C1515 C1518 1.363 . S
N1516 C1518 1.356 . S
N1516 H1528 0.984 . S
N1516 H1529 0.985 . S
N1517 C1519 1.356 . S
N1517 H1522 0.984 . S
N1517 H1523 0.985 . S
C1518 C1512 1.379 . S
C1518 C1515 1.363 . S
C1518 N1516 1.356 . S
C1519 C1513 1.363 . S
C1519 C1514 1.379 . S
C1519 N1517 1.356 . S
N1520 C1512 1.356 . S
N1520 H1526 0.984 . S
N1520 H1527 0.984 . S
N1521 C1514 1.356 . S
N1521 H1524 0.984 . S
N1521 H1525 0.985 . S
H1522 N1517 0.984 . S
H1523 N1517 0.985 . S
H1524 N1521 0.984 . S
H1525 N1521 0.985 . S
H1526 N1520 0.984 . S
H1527 N1520 0.984 . S
H1528 N1516 0.984 . S
H1529 N1516 0.985 . S
C1530 C1531 1.363 . S
C1530 C1536 1.379 . S
C1530 N1538 1.356 . S
C1531 C1530 1.363 . S
C1531 C1537 1.363 . S
C1532 C1533 1.363 . S
C1532 C1537 1.379 . S
C1532 N1539 1.356 . S
C1533 C1532 1.363 . S
C1533 C1536 1.363 . S
N1534 C1536 1.356 . S
N1534 H1546 0.984 . S
N1534 H1547 0.985 . S
N1535 C1537 1.356 . S
N1535 H1540 0.984 . S
N1535 H1541 0.985 . S
C1536 C1530 1.379 . S
C1536 C1533 1.363 . S
C1536 N1534 1.356 . S
C1537 C1531 1.363 . S
C1537 C1532 1.379 . S
C1537 N1535 1.356 . S
N1538 C1530 1.356 . S
N1538 H1544 0.984 . S
N1538 H1545 0.984 . S
N1539 C1532 1.356 . S
N1539 H1542 0.984 . S
N1539 H1543 0.985 . S
H1540 N1535 0.984 . S
H1541 N1535 0.985 . S
H1542 N1539 0.984 . S
H1543 N1539 0.985 . S
H1544 N1538 0.984 . S
H1545 N1538 0.984 . S
H1546 N1534 0.984 . S
H1547 N1534 0.985 . S
C1548 C1549 1.363 1_655 S
C1548 C1554 1.379 . S
C1548 N1556 1.356 . S
C1549 C1548 1.363 1_455 S
C1549 C1555 1.363 . S
C1550 C1551 1.363 . S
C1550 C1555 1.379 . S
C1550 N1557 1.356 1_554 S
C1551 C1550 1.363 . S
C1551 C1554 1.363 1_455 S
N1552 C1554 1.356 . S
N1552 H1564 0.984 . S
N1552 H1565 0.985 . S
N1553 C1555 1.356 . S
N1553 H1558 0.984 . S
N1553 H1559 0.985 . S
C1554 C1548 1.379 . S
C1554 C1551 1.363 1_655 S
C1554 N1552 1.356 . S
C1555 C1549 1.363 . S
C1555 C1550 1.379 . S
C1555 N1553 1.356 . S
N1556 C1548 1.356 . S
N1556 H1562 0.984 . S
N1556 H1563 0.984 . S
N1557 C1550 1.356 1_556 S
N1557 H1560 0.984 . S
N1557 H1561 0.985 . S
H1558 N1553 0.984 . S
H1559 N1553 0.985 . S
H1560 N1557 0.984 . S
H1561 N1557 0.985 . S
H1562 N1556 0.984 . S
H1563 N1556 0.984 . S
H1564 N1552 0.984 . S
H1565 N1552 0.985 . S
C1566 C1567 1.363 . S
C1566 C1572 1.379 . S
C1566 N1574 1.356 . S
C1567 C1566 1.363 . S
C1567 C1573 1.363 . S
C1568 C1569 1.363 . S
C1568 C1573 1.379 . S
C1568 N1575 1.356 . S
C1569 C1568 1.363 . S
C1569 C1572 1.363 . S
N1570 C1572 1.356 . S
N1570 H1582 0.984 . S
N1570 H1583 0.985 . S
N1571 C1573 1.356 . S
N1571 H1576 0.984 . S
N1571 H1577 0.985 . S
C1572 C1566 1.379 . S
C1572 C1569 1.363 . S
C1572 N1570 1.356 . S
C1573 C1567 1.363 . S
C1573 C1568 1.379 . S
C1573 N1571 1.356 . S
N1574 C1566 1.356 . S
N1574 H1580 0.984 . S
N1574 H1581 0.984 . S
N1575 C1568 1.356 . S
N1575 H1578 0.984 . S
N1575 H1579 0.985 . S
H1576 N1571 0.984 . S
H1577 N1571 0.985 . S
H1578 N1575 0.984 . S
H1579 N1575 0.985 . S
H1580 N1574 0.984 . S
H1581 N1574 0.984 . S
H1582 N1570 0.984 . S
H1583 N1570 0.985 . S
C1584 C1585 1.363 . S
C1584 C1590 1.379 . S
C1584 N1592 1.356 . S
C1585 C1584 1.363 . S
C1585 C1591 1.363 . S
C1586 C1587 1.363 . S
C1586 C1591 1.379 . S
C1586 N1593 1.356 . S
C1587 C1586 1.363 . S
C1587 C1590 1.363 . S
N1588 C1590 1.356 . S
N1588 H1600 0.984 1_556 S
N1588 H1601 0.985 1_556 S
N1589 C1591 1.356 . S
N1589 H1594 0.984 . S
N1589 H1595 0.985 . S
C1590 C1584 1.379 . S
C1590 C1587 1.363 . S
C1590 N1588 1.356 . S
C1591 C1585 1.363 . S
C1591 C1586 1.379 . S
C1591 N1589 1.356 . S
N1592 C1584 1.356 . S
N1592 H1598 0.984 . S
N1592 H1599 0.984 . S
N1593 C1586 1.356 . S
N1593 H1596 0.984 . S
N1593 H1597 0.985 . S
H1594 N1589 0.984 . S
H1595 N1589 0.985 . S
H1596 N1593 0.984 . S
H1597 N1593 0.985 . S
H1598 N1592 0.984 . S
H1599 N1592 0.984 . S
H1600 N1588 0.984 1_554 S
H1601 N1588 0.985 1_554 S
C1602 C1603 1.363 . S
C1602 C1608 1.379 . S
C1602 N1610 1.356 . S
C1603 C1602 1.363 . S
C1603 C1609 1.363 . S
C1604 C1605 1.363 . S
C1604 C1609 1.379 . S
C1604 N1611 1.356 . S
C1605 C1604 1.363 . S
C1605 C1608 1.363 . S
N1606 C1608 1.356 . S
N1606 H1618 0.984 . S
N1606 H1619 0.985 . S
N1607 C1609 1.356 . S
N1607 H1612 0.984 . S
N1607 H1613 0.985 . S
C1608 C1602 1.379 . S
C1608 C1605 1.363 . S
C1608 N1606 1.356 . S
C1609 C1603 1.363 . S
C1609 C1604 1.379 . S
C1609 N1607 1.356 . S
N1610 C1602 1.356 . S
N1610 H1616 0.984 . S
N1610 H1617 0.984 . S
N1611 C1604 1.356 . S
N1611 H1614 0.984 . S
N1611 H1615 0.985 . S
H1612 N1607 0.984 . S
H1613 N1607 0.985 . S
H1614 N1611 0.984 . S
H1615 N1611 0.985 . S
H1616 N1610 0.984 . S
H1617 N1610 0.984 . S
H1618 N1606 0.984 . S
H1619 N1606 0.985 . S
C1620 C1621 1.363 . S
C1620 C1626 1.379 . S
C1620 N1628 1.356 . S
C1621 C1620 1.363 . S
C1621 C1627 1.363 1_455 S
C1622 C1623 1.363 1_655 S
C1622 C1627 1.379 . S
C1622 N1629 1.356 . S
C1623 C1622 1.363 1_455 S
C1623 C1626 1.363 . S
N1624 C1626 1.356 . S
N1624 H1636 0.984 . S
N1624 H1637 0.985 . S
N1625 C1627 1.356 . S
N1625 H1630 0.984 . S
N1625 H1631 0.985 . S
C1626 C1620 1.379 . S
C1626 C1623 1.363 . S
C1626 N1624 1.356 . S
C1627 C1621 1.363 1_655 S
C1627 C1622 1.379 . S
C1627 N1625 1.356 . S
N1628 C1620 1.356 . S
N1628 H1634 0.984 . S
N1628 H1635 0.984 . S
N1629 C1622 1.356 . S
N1629 H1632 0.984 . S
N1629 H1633 0.985 . S
H1630 N1625 0.984 . S
H1631 N1625 0.985 . S
H1632 N1629 0.984 . S
H1633 N1629 0.985 . S
H1634 N1628 0.984 . S
H1635 N1628 0.984 . S
H1636 N1624 0.984 . S
H1637 N1624 0.985 . S
C1638 C1639 1.363 . S
C1638 C1644 1.379 . S
C1638 N1646 1.356 . S
C1639 C1638 1.363 . S
C1639 C1645 1.363 . S
C1640 C1641 1.363 . S
C1640 C1645 1.379 . S
C1640 N1647 1.356 . S
C1641 C1640 1.363 . S
C1641 C1644 1.363 . S
N1642 C1644 1.356 . S
N1642 H1654 0.984 . S
N1642 H1655 0.985 . S
N1643 C1645 1.356 . S
N1643 H1648 0.984 . S
N1643 H1649 0.985 . S
C1644 C1638 1.379 . S
C1644 C1641 1.363 . S
C1644 N1642 1.356 . S
C1645 C1639 1.363 . S
C1645 C1640 1.379 . S
C1645 N1643 1.356 . S
N1646 C1638 1.356 . S
N1646 H1652 0.984 . S
N1646 H1653 0.984 . S
N1647 C1640 1.356 . S
N1647 H1650 0.984 . S
N1647 H1651 0.985 . S
H1648 N1643 0.984 . S
H1649 N1643 0.985 . S
H1650 N1647 0.984 . S
H1651 N1647 0.985 . S
H1652 N1646 0.984 . S
H1653 N1646 0.984 . S
H1654 N1642 0.984 . S
H1655 N1642 0.985 . S
C1656 C1657 1.363 . S
C1656 C1662 1.379 . S
C1656 N1664 1.356 . S
C1657 C1656 1.363 . S
C1657 C1663 1.363 . S
C1658 C1659 1.363 . S
C1658 C1663 1.379 . S
C1658 N1665 1.356 . S
C1659 C1658 1.363 . S
C1659 C1662 1.363 . S
N1660 C1662 1.356 . S
N1660 H1672 0.984 . S
N1660 H1673 0.985 . S
N1661 C1663 1.356 . S
N1661 H1666 0.984 . S
N1661 H1667 0.985 . S
C1662 C1656 1.379 . S
C1662 C1659 1.363 . S
C1662 N1660 1.356 . S
C1663 C1657 1.363 . S
C1663 C1658 1.379 . S
C1663 N1661 1.356 . S
N1664 C1656 1.356 . S
N1664 H1670 0.984 . S
N1664 H1671 0.984 . S
N1665 C1658 1.356 . S
N1665 H1668 0.984 . S
N1665 H1669 0.985 . S
H1666 N1661 0.984 . S
H1667 N1661 0.985 . S
H1668 N1665 0.984 . S
H1669 N1665 0.985 . S
H1670 N1664 0.984 . S
H1671 N1664 0.984 . S
H1672 N1660 0.984 . S
H1673 N1660 0.985 . S
C1674 C1675 1.363 . S
C1674 C1680 1.379 . S
C1674 N1682 1.356 . S
C1675 C1674 1.363 . S
C1675 C1681 1.363 . S
C1676 C1677 1.363 . S
C1676 C1681 1.379 . S
C1676 N1683 1.356 . S
C1677 C1676 1.363 . S
C1677 C1680 1.363 . S
N1678 C1680 1.356 . S
N1678 H1690 0.984 . S
N1678 H1691 0.985 . S
N1679 C1681 1.356 . S
N1679 H1684 0.984 . S
N1679 H1685 0.985 . S
C1680 C1674 1.379 . S
C1680 C1677 1.363 . S
C1680 N1678 1.356 . S
C1681 C1675 1.363 . S
C1681 C1676 1.379 . S
C1681 N1679 1.356 . S
N1682 C1674 1.356 . S
N1682 H1688 0.984 . S
N1682 H1689 0.984 . S
N1683 C1676 1.356 . S
N1683 H1686 0.984 . S
N1683 H1687 0.985 . S
H1684 N1679 0.984 . S
H1685 N1679 0.985 . S
H1686 N1683 0.984 . S
H1687 N1683 0.985 . S
H1688 N1682 0.984 . S
H1689 N1682 0.984 . S
H1690 N1678 0.984 . S
H1691 N1678 0.985 . S
C1692 C1693 1.363 . S
C1692 C1698 1.379 . S
C1692 N1700 1.356 . S
C1693 C1692 1.363 . S
C1693 C1699 1.363 . S
C1694 C1695 1.363 . S
C1694 C1699 1.379 . S
C1694 N1701 1.356 . S
C1695 C1694 1.363 . S
C1695 C1698 1.363 . S
N1696 C1698 1.356 . S
N1696 H1708 0.984 . S
N1696 H1709 0.985 . S
N1697 C1699 1.356 . S
N1697 H1702 0.984 . S
N1697 H1703 0.985 . S
C1698 C1692 1.379 . S
C1698 C1695 1.363 . S
C1698 N1696 1.356 . S
C1699 C1693 1.363 . S
C1699 C1694 1.379 . S
C1699 N1697 1.356 . S
N1700 C1692 1.356 . S
N1700 H1706 0.984 . S
N1700 H1707 0.984 . S
N1701 C1694 1.356 . S
N1701 H1704 0.984 . S
N1701 H1705 0.985 . S
H1702 N1697 0.984 . S
H1703 N1697 0.985 . S
H1704 N1701 0.984 . S
H1705 N1701 0.985 . S
H1706 N1700 0.984 . S
H1707 N1700 0.984 . S
H1708 N1696 0.984 . S
H1709 N1696 0.985 . S
C1710 C1711 1.363 . S
C1710 C1716 1.379 . S
C1710 N1718 1.356 . S
C1711 C1710 1.363 . S
C1711 C1717 1.363 . S
C1712 C1713 1.363 . S
C1712 C1717 1.379 . S
C1712 N1719 1.356 . S
C1713 C1712 1.363 . S
C1713 C1716 1.363 . S
N1714 C1716 1.356 . S
N1714 H1726 0.984 . S
N1714 H1727 0.985 . S
N1715 C1717 1.356 . S
N1715 H1720 0.984 . S
N1715 H1721 0.985 . S
C1716 C1710 1.379 . S
C1716 C1713 1.363 . S
C1716 N1714 1.356 . S
C1717 C1711 1.363 . S
C1717 C1712 1.379 . S
C1717 N1715 1.356 . S
N1718 C1710 1.356 . S
N1718 H1724 0.984 . S
N1718 H1725 0.984 . S
N1719 C1712 1.356 . S
N1719 H1722 0.984 . S
N1719 H1723 0.985 . S
H1720 N1715 0.984 . S
H1721 N1715 0.985 . S
H1722 N1719 0.984 . S
H1723 N1719 0.985 . S
H1724 N1718 0.984 . S
H1725 N1718 0.984 . S
H1726 N1714 0.984 . S
H1727 N1714 0.985 . S
C1728 C1729 1.363 . S
C1728 C1734 1.379 . S
C1728 N1736 1.356 . S
C1729 C1728 1.363 . S
C1729 C1735 1.363 . S
C1730 C1731 1.363 . S
C1730 C1735 1.379 . S
C1730 N1737 1.356 . S
C1731 C1730 1.363 . S
C1731 C1734 1.363 . S
N1732 C1734 1.356 . S
N1732 H1744 0.984 . S
N1732 H1745 0.985 . S
N1733 C1735 1.356 . S
N1733 H1738 0.984 . S
N1733 H1739 0.985 . S
C1734 C1728 1.379 . S
C1734 C1731 1.363 . S
C1734 N1732 1.356 . S
C1735 C1729 1.363 . S
C1735 C1730 1.379 . S
C1735 N1733 1.356 . S
N1736 C1728 1.356 . S
N1736 H1742 0.984 . S
N1736 H1743 0.984 . S
N1737 C1730 1.356 . S
N1737 H1740 0.984 . S
N1737 H1741 0.985 . S
H1738 N1733 0.984 . S
H1739 N1733 0.985 . S
H1740 N1737 0.984 . S
H1741 N1737 0.985 . S
H1742 N1736 0.984 . S
H1743 N1736 0.984 . S
H1744 N1732 0.984 . S
H1745 N1732 0.985 . S
C1746 C1747 1.363 . S
C1746 C1752 1.379 . S
C1746 N1754 1.356 . S
C1747 C1746 1.363 . S
C1747 C1753 1.363 . S
C1748 C1749 1.363 . S
C1748 C1753 1.379 . S
C1748 N1755 1.356 . S
C1749 C1748 1.363 . S
C1749 C1752 1.363 . S
N1750 C1752 1.356 . S
N1750 H1762 0.984 . S
N1750 H1763 0.985 . S
N1751 C1753 1.356 . S
N1751 H1756 0.984 . S
N1751 H1757 0.985 . S
C1752 C1746 1.379 . S
C1752 C1749 1.363 . S
C1752 N1750 1.356 . S
C1753 C1747 1.363 . S
C1753 C1748 1.379 . S
C1753 N1751 1.356 . S
N1754 C1746 1.356 . S
N1754 H1760 0.984 . S
N1754 H1761 0.984 . S
N1755 C1748 1.356 . S
N1755 H1758 0.984 . S
N1755 H1759 0.985 . S
H1756 N1751 0.984 . S
H1757 N1751 0.985 . S
H1758 N1755 0.984 . S
H1759 N1755 0.985 . S
H1760 N1754 0.984 . S
H1761 N1754 0.984 . S
H1762 N1750 0.984 . S
H1763 N1750 0.985 . S
C1764 C1765 1.363 . S
C1764 C1770 1.379 . S
C1764 N1772 1.356 . S
C1765 C1764 1.363 . S
C1765 C1771 1.363 . S
C1766 C1767 1.363 . S
C1766 C1771 1.379 . S
C1766 N1773 1.356 . S
C1767 C1766 1.363 . S
C1767 C1770 1.363 . S
N1768 C1770 1.356 . S
N1768 H1780 0.975 1_655 S
N1768 H1781 0.985 . S
N1769 C1771 1.356 . S
N1769 H1774 0.984 . S
N1769 H1775 0.985 . S
C1770 C1764 1.379 . S
C1770 C1767 1.363 . S
C1770 N1768 1.356 . S
C1771 C1765 1.363 . S
C1771 C1766 1.379 . S
C1771 N1769 1.356 . S
N1772 C1764 1.356 . S
N1772 H1778 0.984 . S
N1772 H1779 0.984 . S
N1773 C1766 1.356 . S
N1773 H1776 0.984 . S
N1773 H1777 0.985 . S
H1774 N1769 0.984 . S
H1775 N1769 0.985 . S
H1776 N1773 0.984 . S
H1777 N1773 0.985 . S
H1778 N1772 0.984 . S
H1779 N1772 0.984 . S
H1780 N1768 0.975 1_455 S
H1781 N1768 0.985 . S
C1782 C1783 1.363 . S
C1782 C1788 1.379 . S
C1782 N1790 1.356 . S
C1783 C1782 1.363 . S
C1783 C1789 1.363 . S
C1784 C1785 1.363 . S
C1784 C1789 1.379 . S
C1784 N1791 1.356 . S
C1785 C1784 1.363 . S
C1785 C1788 1.363 . S
N1786 C1788 1.356 . S
N1786 H1798 0.984 . S
N1786 H1799 0.985 . S
N1787 C1789 1.356 . S
N1787 H1792 0.984 . S
N1787 H1793 0.985 . S
C1788 C1782 1.379 . S
C1788 C1785 1.363 . S
C1788 N1786 1.356 . S
C1789 C1783 1.363 . S
C1789 C1784 1.379 . S
C1789 N1787 1.356 . S
N1790 C1782 1.356 . S
N1790 H1796 0.984 . S
N1790 H1797 0.984 . S
N1791 C1784 1.356 . S
N1791 H1794 0.984 . S
N1791 H1795 0.985 . S
H1792 N1787 0.984 . S
H1793 N1787 0.985 . S
H1794 N1791 0.984 . S
H1795 N1791 0.985 . S
H1796 N1790 0.984 . S
H1797 N1790 0.984 . S
H1798 N1786 0.984 . S
H1799 N1786 0.985 . S
C1800 C1801 1.363 . S
C1800 C1806 1.379 . S
C1800 N1808 1.356 . S
C1801 C1800 1.363 . S
C1801 C1807 1.363 . S
C1802 C1803 1.363 . S
C1802 C1807 1.379 . S
C1802 N1809 1.356 . S
C1803 C1802 1.363 . S
C1803 C1806 1.363 . S
N1804 C1806 1.356 . S
N1804 H1816 0.984 . S
N1804 H1817 0.985 . S
N1805 C1807 1.356 . S
N1805 H1810 0.984 . S
N1805 H1811 0.985 . S
C1806 C1800 1.379 . S
C1806 C1803 1.363 . S
C1806 N1804 1.356 . S
C1807 C1801 1.363 . S
C1807 C1802 1.379 . S
C1807 N1805 1.356 . S
N1808 C1800 1.356 . S
N1808 H1814 0.984 . S
N1808 H1815 0.984 . S
N1809 C1802 1.356 . S
N1809 H1812 0.984 . S
N1809 H1813 0.985 . S
H1810 N1805 0.984 . S
H1811 N1805 0.985 . S
H1812 N1809 0.984 . S
H1813 N1809 0.985 . S
H1814 N1808 0.984 . S
H1815 N1808 0.984 . S
H1816 N1804 0.984 . S
H1817 N1804 0.985 . S
C1818 C1819 1.363 . S
C1818 C1824 1.379 . S
C1818 N1826 1.356 . S
C1819 C1818 1.363 . S
C1819 C1825 1.363 . S
C1820 C1821 1.363 . S
C1820 C1825 1.379 . S
C1820 N1827 1.356 . S
C1821 C1820 1.363 . S
C1821 C1824 1.363 . S
N1822 C1824 1.356 1_545 S
N1822 H1834 0.984 . S
N1822 H1835 0.985 . S
N1823 C1825 1.356 . S
N1823 H1828 0.984 . S
N1823 H1829 0.985 . S
C1824 C1818 1.379 . S
C1824 C1821 1.363 . S
C1824 N1822 1.356 1_565 S
C1825 C1819 1.363 . S
C1825 C1820 1.379 . S
C1825 N1823 1.356 . S
N1826 C1818 1.356 . S
N1826 H1832 0.984 1_565 S
N1826 H1833 0.984 . S
N1827 C1820 1.356 . S
N1827 H1830 0.984 . S
N1827 H1831 0.985 . S
H1828 N1823 0.984 . S
H1829 N1823 0.985 . S
H1830 N1827 0.984 . S
H1831 N1827 0.985 . S
H1832 N1826 0.984 1_545 S
H1833 N1826 0.984 . S
H1834 N1822 0.984 . S
H1835 N1822 0.985 . S
C1836 C1837 1.363 . S
C1836 C1842 1.379 . S
C1836 N1844 1.356 . S
C1837 C1836 1.363 . S
C1837 C1843 1.363 . S
C1838 C1839 1.363 . S
C1838 C1843 1.379 . S
C1838 N1845 1.356 . S
C1839 C1838 1.363 . S
C1839 C1842 1.363 . S
N1840 C1842 1.356 . S
N1840 H1852 0.984 . S
N1840 H1853 0.985 . S
N1841 C1843 1.356 . S
N1841 H1846 0.984 . S
N1841 H1847 0.985 . S
C1842 C1836 1.379 . S
C1842 C1839 1.363 . S
C1842 N1840 1.356 . S
C1843 C1837 1.363 . S
C1843 C1838 1.379 . S
C1843 N1841 1.356 . S
N1844 C1836 1.356 . S
N1844 H1850 0.984 . S
N1844 H1851 0.984 . S
N1845 C1838 1.356 . S
N1845 H1848 0.984 . S
N1845 H1849 0.985 . S
H1846 N1841 0.984 . S
H1847 N1841 0.985 . S
H1848 N1845 0.984 . S
H1849 N1845 0.985 . S
H1850 N1844 0.984 . S
H1851 N1844 0.984 . S
H1852 N1840 0.984 . S
H1853 N1840 0.985 . S
C1854 C1855 1.363 . S
C1854 C1860 1.379 . S
C1854 N1862 1.356 . S
C1855 C1854 1.363 . S
C1855 C1861 1.363 1_554 S
C1856 C1857 1.363 1_556 S
C1856 C1861 1.379 . S
C1856 N1863 1.356 . S
C1857 C1856 1.363 1_554 S
C1857 C1860 1.363 . S
N1858 C1860 1.356 . S
N1858 H1870 0.984 . S
N1858 H1871 0.985 . S
N1859 C1861 1.356 . S
N1859 H1864 0.984 . S
N1859 H1865 0.985 . S
C1860 C1854 1.379 . S
C1860 C1857 1.363 . S
C1860 N1858 1.356 . S
C1861 C1855 1.363 1_556 S
C1861 C1856 1.379 . S
C1861 N1859 1.356 . S
N1862 C1854 1.356 . S
N1862 H1868 0.984 . S
N1862 H1869 0.984 . S
N1863 C1856 1.356 . S
N1863 H1866 0.984 1_545 S
N1863 H1867 0.985 1_545 S
H1864 N1859 0.984 . S
H1865 N1859 0.985 . S
H1866 N1863 0.984 1_565 S
H1867 N1863 0.985 1_565 S
H1868 N1862 0.984 . S
H1869 N1862 0.984 . S
H1870 N1858 0.984 . S
H1871 N1858 0.985 . S
C1872 C1873 1.363 . S
C1872 C1878 1.379 . S
C1872 N1880 1.356 . S
C1873 C1872 1.363 . S
C1873 C1879 1.363 . S
C1874 C1875 1.363 . S
C1874 C1879 1.379 . S
C1874 N1881 1.356 . S
C1875 C1874 1.363 . S
C1875 C1878 1.363 . S
N1876 C1878 1.356 . S
N1876 H1888 0.984 . S
N1876 H1889 0.985 . S
N1877 C1879 1.356 . S
N1877 H1882 0.984 . S
N1877 H1883 0.985 . S
C1878 C1872 1.379 . S
C1878 C1875 1.363 . S
C1878 N1876 1.356 . S
C1879 C1873 1.363 . S
C1879 C1874 1.379 . S
C1879 N1877 1.356 . S
N1880 C1872 1.356 . S
N1880 H1886 0.984 . S
N1880 H1887 0.984 . S
N1881 C1874 1.356 . S
N1881 H1884 0.984 . S
N1881 H1885 0.985 . S
H1882 N1877 0.984 . S
H1883 N1877 0.985 . S
H1884 N1881 0.984 . S
H1885 N1881 0.985 . S
H1886 N1880 0.984 . S
H1887 N1880 0.984 . S
H1888 N1876 0.984 . S
H1889 N1876 0.985 . S
C1890 C1891 1.363 1_556 S
C1890 C1896 1.379 . S
C1890 N1898 1.356 . S
C1891 C1890 1.363 1_554 S
C1891 C1897 1.363 . S
C1892 C1893 1.363 1_554 S
C1892 C1897 1.379 . S
C1892 N1899 1.356 . S
C1893 C1892 1.363 1_556 S
C1893 C1896 1.363 . S
N1894 C1896 1.356 . S
N1894 H1906 0.984 . S
N1894 H1907 0.985 . S
N1895 C1897 1.356 . S
N1895 H1900 0.984 . S
N1895 H1901 0.985 . S
C1896 C1890 1.379 . S
C1896 C1893 1.363 . S
C1896 N1894 1.356 . S
C1897 C1891 1.363 . S
C1897 C1892 1.379 . S
C1897 N1895 1.356 . S
N1898 C1890 1.356 . S
N1898 H1904 0.984 . S
N1898 H1905 0.984 . S
N1899 C1892 1.356 . S
N1899 H1902 0.984 . S
N1899 H1903 0.985 . S
H1900 N1895 0.984 . S
H1901 N1895 0.985 . S
H1902 N1899 0.984 . S
H1903 N1899 0.985 . S
H1904 N1898 0.984 . S
H1905 N1898 0.984 . S
H1906 N1894 0.984 . S
H1907 N1894 0.985 . S
C1908 C1909 1.363 . S
C1908 C1914 1.379 . S
C1908 N1916 1.356 . S
C1909 C1908 1.363 . S
C1909 C1915 1.363 . S
C1910 C1911 1.363 . S
C1910 C1915 1.379 . S
C1910 N1917 1.356 . S
C1911 C1910 1.363 . S
C1911 C1914 1.363 . S
N1912 C1914 1.356 . S
N1912 H1924 0.984 . S
N1912 H1925 0.985 . S
N1913 C1915 1.356 . S
N1913 H1918 0.984 . S
N1913 H1919 0.985 . S
C1914 C1908 1.379 . S
C1914 C1911 1.363 . S
C1914 N1912 1.356 . S
C1915 C1909 1.363 . S
C1915 C1910 1.379 . S
C1915 N1913 1.356 . S
N1916 C1908 1.356 . S
N1916 H1922 0.984 . S
N1916 H1923 0.984 . S
N1917 C1910 1.356 . S
N1917 H1920 0.984 . S
N1917 H1921 0.985 . S
H1918 N1913 0.984 . S
H1919 N1913 0.985 . S
H1920 N1917 0.984 . S
H1921 N1917 0.985 . S
H1922 N1916 0.984 . S
H1923 N1916 0.984 . S
H1924 N1912 0.984 . S
H1925 N1912 0.985 . S
C1926 C1927 1.363 . S
C1926 C1932 1.379 . S
C1926 N1934 1.356 . S
C1927 C1926 1.363 . S
C1927 C1933 1.363 . S
C1928 C1929 1.363 . S
C1928 C1933 1.379 . S
C1928 N1935 1.356 . S
C1929 C1928 1.363 . S
C1929 C1932 1.363 . S
N1930 C1932 1.356 . S
N1930 H1942 0.984 . S
N1930 H1943 0.985 . S
N1931 C1933 1.356 . S
N1931 H1936 0.984 . S
N1931 H1937 0.985 . S
C1932 C1926 1.379 . S
C1932 C1929 1.363 . S
C1932 N1930 1.356 . S
C1933 C1927 1.363 . S
C1933 C1928 1.379 . S
C1933 N1931 1.356 . S
N1934 C1926 1.356 . S
N1934 H1940 0.984 . S
N1934 H1941 0.984 . S
N1935 C1928 1.356 . S
N1935 H1938 0.984 . S
N1935 H1939 0.985 . S
H1936 N1931 0.984 . S
H1937 N1931 0.985 . S
H1938 N1935 0.984 . S
H1939 N1935 0.985 . S
H1940 N1934 0.984 . S
H1941 N1934 0.984 . S
H1942 N1930 0.984 . S
H1943 N1930 0.985 . S
C1944 C1945 1.363 . S
C1944 C1950 1.379 . S
C1944 N1952 1.356 . S
C1945 C1944 1.363 . S
C1945 C1951 1.363 . S
C1946 C1947 1.363 . S
C1946 C1951 1.379 . S
C1946 N1953 1.356 . S
C1947 C1946 1.363 . S
C1947 C1950 1.363 . S
N1948 C1950 1.356 . S
N1948 H1960 0.984 . S
N1948 H1961 0.985 . S
N1949 C1951 1.356 . S
N1949 H1954 0.984 . S
N1949 H1955 0.985 . S
C1950 C1944 1.379 . S
C1950 C1947 1.363 . S
C1950 N1948 1.356 . S
C1951 C1945 1.363 . S
C1951 C1946 1.379 . S
C1951 N1949 1.356 . S
N1952 C1944 1.356 . S
N1952 H1958 0.984 . S
N1952 H1959 0.984 . S
N1953 C1946 1.356 . S
N1953 H1956 0.984 . S
N1953 H1957 0.985 . S
H1954 N1949 0.984 . S
H1955 N1949 0.985 . S
H1956 N1953 0.984 . S
H1957 N1953 0.985 . S
H1958 N1952 0.984 . S
H1959 N1952 0.984 . S
H1960 N1948 0.984 . S
H1961 N1948 0.985 . S
C1962 C1963 1.363 . S
C1962 C1968 1.379 . S
C1962 N1970 1.356 . S
C1963 C1962 1.363 . S
C1963 C1969 1.363 . S
C1964 C1965 1.363 . S
C1964 C1969 1.379 . S
C1964 N1971 1.356 . S
C1965 C1964 1.363 . S
C1965 C1968 1.363 . S
N1966 C1968 1.356 . S
N1966 H1978 0.984 . S
N1966 H1979 0.985 . S
N1967 C1969 1.356 . S
N1967 H1972 0.984 . S
N1967 H1973 0.985 . S
C1968 C1962 1.379 . S
C1968 C1965 1.363 . S
C1968 N1966 1.356 . S
C1969 C1963 1.363 . S
C1969 C1964 1.379 . S
C1969 N1967 1.356 . S
N1970 C1962 1.356 . S
N1970 H1976 0.984 . S
N1970 H1977 0.984 . S
N1971 C1964 1.356 . S
N1971 H1974 0.984 . S
N1971 H1975 0.985 . S
H1972 N1967 0.984 . S
H1973 N1967 0.985 . S
H1974 N1971 0.984 . S
H1975 N1971 0.985 . S
H1976 N1970 0.984 . S
H1977 N1970 0.984 . S
H1978 N1966 0.984 . S
H1979 N1966 0.985 . S
C1980 C1981 1.371 . S
C1980 C1986 1.379 . S
C1980 N1988 1.356 . S
C1981 C1980 1.371 . S
C1981 C1987 1.357 1_655 S
C1982 C1983 1.363 1_455 S
C1982 C1987 1.379 . S
C1982 N1989 1.356 1_556 S
C1983 C1982 1.363 1_655 S
C1983 C1986 1.363 . S
N1984 C1986 1.356 . S
N1984 H1996 0.984 . S
N1984 H1997 0.985 . S
N1985 C1987 1.356 . S
N1985 H1990 0.984 . S
N1985 H1991 1.001 . S
C1986 C1980 1.379 . S
C1986 C1983 1.363 . S
C1986 N1984 1.356 . S
C1987 C1981 1.357 1_455 S
C1987 C1982 1.379 . S
C1987 N1985 1.356 . S
N1988 C1980 1.356 . S
N1988 H1994 0.984 . S
N1988 H1995 0.984 . S
N1989 C1982 1.356 1_554 S
N1989 H1992 0.984 . S
N1989 H1993 0.985 . S
H1990 N1985 0.984 . S
H1991 N1985 1.001 . S
H1992 N1989 0.984 . S
H1993 N1989 0.985 . S
H1994 N1988 0.984 . S
H1995 N1988 0.984 . S
H1996 N1984 0.984 . S
H1997 N1984 0.985 . S
C1998 C1999 1.363 . S
C1998 C2004 1.379 . S
C1998 N2006 1.356 . S
C1999 C1998 1.363 . S
C1999 C2005 1.363 . S
C2000 C2001 1.363 . S
C2000 C2005 1.379 . S
C2000 N2007 1.356 . S
C2001 C2000 1.363 . S
C2001 C2004 1.363 . S
N2002 C2004 1.356 . S
N2002 H2014 0.984 . S
N2002 H2015 0.985 . S
N2003 C2005 1.356 . S
N2003 H2008 0.984 . S
N2003 H2009 0.985 . S
C2004 C1998 1.379 . S
C2004 C2001 1.363 . S
C2004 N2002 1.356 . S
C2005 C1999 1.363 . S
C2005 C2000 1.379 . S
C2005 N2003 1.356 . S
N2006 C1998 1.356 . S
N2006 H2012 0.984 . S
N2006 H2013 0.984 . S
N2007 C2000 1.356 . S
N2007 H2010 0.984 . S
N2007 H2011 0.985 . S
H2008 N2003 0.984 . S
H2009 N2003 0.985 . S
H2010 N2007 0.984 . S
H2011 N2007 0.985 . S
H2012 N2006 0.984 . S
H2013 N2006 0.984 . S
H2014 N2002 0.984 . S
H2015 N2002 0.985 . S
C2016 C2017 1.363 . S
C2016 C2022 1.379 . S
C2016 N2024 1.356 . S
C2017 C2016 1.363 . S
C2017 C2023 1.363 . S
C2018 C2019 1.363 . S
C2018 C2023 1.379 . S
C2018 N2025 1.356 . S
C2019 C2018 1.363 . S
C2019 C2022 1.363 . S
N2020 C2022 1.375 . S
N2020 H2032 0.970 1_554 S
N2020 H2033 0.981 1_554 S
N2021 C2023 1.356 . S
N2021 H2026 0.984 . S
N2021 H2027 0.985 . S
C2022 C2016 1.379 . S
C2022 C2019 1.363 . S
C2022 N2020 1.375 . S
C2023 C2017 1.363 . S
C2023 C2018 1.379 . S
C2023 N2021 1.356 . S
N2024 C2016 1.356 . S
N2024 H2030 0.984 . S
N2024 H2031 0.984 . S
N2025 C2018 1.356 . S
N2025 H2028 0.984 . S
N2025 H2029 0.985 . S
H2026 N2021 0.984 . S
H2027 N2021 0.985 . S
H2028 N2025 0.984 . S
H2029 N2025 0.985 . S
H2030 N2024 0.984 . S
H2031 N2024 0.984 . S
H2032 N2020 0.970 1_556 S
H2033 N2020 0.981 1_556 S
C2034 C2035 1.363 . S
C2034 C2040 1.379 . S
C2034 N2042 1.356 . S
C2035 C2034 1.363 . S
C2035 C2041 1.363 . S
C2036 C2037 1.363 . S
C2036 C2041 1.379 . S
C2036 N2043 1.356 . S
C2037 C2036 1.363 . S
C2037 C2040 1.363 . S
N2038 C2040 1.356 . S
N2038 H2050 0.984 . S
N2038 H2051 0.985 . S
N2039 C2041 1.356 . S
N2039 H2044 0.984 . S
N2039 H2045 0.985 . S
C2040 C2034 1.379 . S
C2040 C2037 1.363 . S
C2040 N2038 1.356 . S
C2041 C2035 1.363 . S
C2041 C2036 1.379 . S
C2041 N2039 1.356 . S
N2042 C2034 1.356 . S
N2042 H2048 0.984 . S
N2042 H2049 0.984 . S
N2043 C2036 1.356 . S
N2043 H2046 0.984 . S
N2043 H2047 0.985 . S
H2044 N2039 0.984 . S
H2045 N2039 0.985 . S
H2046 N2043 0.984 . S
H2047 N2043 0.985 . S
H2048 N2042 0.984 . S
H2049 N2042 0.984 . S
H2050 N2038 0.984 . S
H2051 N2038 0.985 . S
C2052 C2053 1.352 1_655 S
C2052 C2058 1.379 . S
C2052 N2060 1.356 . S
C2053 C2052 1.352 1_455 S
C2053 C2059 1.371 . S
C2054 C2055 1.363 1_455 S
C2054 C2059 1.379 . S
C2054 N2061 1.356 . S
C2055 C2054 1.363 1_655 S
C2055 C2058 1.363 . S
N2056 C2058 1.356 . S
N2056 H2068 0.984 . S
N2056 H2069 0.985 . S
N2057 C2059 1.356 . S
N2057 H2062 0.984 . S
N2057 H2063 0.985 . S
C2058 C2052 1.379 . S
C2058 C2055 1.363 . S
C2058 N2056 1.356 . S
C2059 C2053 1.371 . S
C2059 C2054 1.379 . S
C2059 N2057 1.356 . S
N2060 C2052 1.356 . S
N2060 H2066 0.984 . S
N2060 H2067 0.984 . S
N2061 C2054 1.356 . S
N2061 H2064 0.984 . S
N2061 H2065 0.985 . S
H2062 N2057 0.984 . S
H2063 N2057 0.985 . S
H2064 N2061 0.984 . S
H2065 N2061 0.985 . S
H2066 N2060 0.984 . S
H2067 N2060 0.984 . S
H2068 N2056 0.984 . S
H2069 N2056 0.985 . S
C2070 C2071 1.363 . S
C2070 C2076 1.379 . S
C2070 N2078 1.356 . S
C2071 C2070 1.363 . S
C2071 C2077 1.363 . S
C2072 C2073 1.363 . S
C2072 C2077 1.379 . S
C2072 N2079 1.356 . S
C2073 C2072 1.363 . S
C2073 C2076 1.363 . S
N2074 C2076 1.356 . S
N2074 H2086 0.984 . S
N2074 H2087 0.985 . S
N2075 C2077 1.356 . S
N2075 H2080 0.984 . S
N2075 H2081 0.985 . S
C2076 C2070 1.379 . S
C2076 C2073 1.363 . S
C2076 N2074 1.356 . S
C2077 C2071 1.363 . S
C2077 C2072 1.379 . S
C2077 N2075 1.356 . S
N2078 C2070 1.356 . S
N2078 H2084 0.984 . S
N2078 H2085 0.984 . S
N2079 C2072 1.356 . S
N2079 H2082 0.984 . S
N2079 H2083 0.985 . S
H2080 N2075 0.984 . S
H2081 N2075 0.985 . S
H2082 N2079 0.984 . S
H2083 N2079 0.985 . S
H2084 N2078 0.984 . S
H2085 N2078 0.984 . S
H2086 N2074 0.984 . S
H2087 N2074 0.985 . S
C2088 C2089 1.363 . S
C2088 C2094 1.379 . S
C2088 N2096 1.356 . S
C2089 C2088 1.363 . S
C2089 C2095 1.363 . S
C2090 C2091 1.363 . S
C2090 C2095 1.379 . S
C2090 N2097 1.356 . S
C2091 C2090 1.363 . S
C2091 C2094 1.363 . S
N2092 C2094 1.356 . S
N2092 H2104 0.984 . S
N2092 H2105 0.985 . S
N2093 C2095 1.356 . S
N2093 H2098 0.984 . S
N2093 H2099 0.985 . S
C2094 C2088 1.379 . S
C2094 C2091 1.363 . S
C2094 N2092 1.356 . S
C2095 C2089 1.363 . S
C2095 C2090 1.379 . S
C2095 N2093 1.356 . S
N2096 C2088 1.356 . S
N2096 H2102 0.984 . S
N2096 H2103 0.984 . S
N2097 C2090 1.356 . S
N2097 H2100 0.984 . S
N2097 H2101 0.985 . S
H2098 N2093 0.984 . S
H2099 N2093 0.985 . S
H2100 N2097 0.984 . S
H2101 N2097 0.985 . S
H2102 N2096 0.984 . S
H2103 N2096 0.984 . S
H2104 N2092 0.984 . S
H2105 N2092 0.985 . S
C2106 C2107 1.363 . S
C2106 C2112 1.379 . S
C2106 N2114 1.356 . S
C2107 C2106 1.363 . S
C2107 C2113 1.363 . S
C2108 C2109 1.363 . S
C2108 C2113 1.379 . S
C2108 N2115 1.356 . S
C2109 C2108 1.363 . S
C2109 C2112 1.363 . S
N2110 C2112 1.356 . S
N2110 H2122 0.984 . S
N2110 H2123 0.985 . S
N2111 C2113 1.356 . S
N2111 H2116 0.984 . S
N2111 H2117 0.985 . S
C2112 C2106 1.379 . S
C2112 C2109 1.363 . S
C2112 N2110 1.356 . S
C2113 C2107 1.363 . S
C2113 C2108 1.379 . S
C2113 N2111 1.356 . S
N2114 C2106 1.356 . S
N2114 H2120 0.984 . S
N2114 H2121 0.984 . S
N2115 C2108 1.356 . S
N2115 H2118 0.984 . S
N2115 H2119 0.985 . S
H2116 N2111 0.984 . S
H2117 N2111 0.985 . S
H2118 N2115 0.984 . S
H2119 N2115 0.985 . S
H2120 N2114 0.984 . S
H2121 N2114 0.984 . S
H2122 N2110 0.984 . S
H2123 N2110 0.985 . S
C2124 C2125 1.363 . S
C2124 C2130 1.379 . S
C2124 N2132 1.356 . S
C2125 C2124 1.363 . S
C2125 C2131 1.363 . S
C2126 C2127 1.363 . S
C2126 C2131 1.379 . S
C2126 N2133 1.356 . S
C2127 C2126 1.363 . S
C2127 C2130 1.363 . S
N2128 C2130 1.356 . S
N2128 H2140 0.984 . S
N2128 H2141 0.985 . S
N2129 C2131 1.356 . S
N2129 H2134 0.984 . S
N2129 H2135 0.985 . S
C2130 C2124 1.379 . S
C2130 C2127 1.363 . S
C2130 N2128 1.356 . S
C2131 C2125 1.363 . S
C2131 C2126 1.379 . S
C2131 N2129 1.356 . S
N2132 C2124 1.356 . S
N2132 H2138 0.984 . S
N2132 H2139 0.984 . S
N2133 C2126 1.356 . S
N2133 H2136 0.984 . S
N2133 H2137 0.985 . S
H2134 N2129 0.984 . S
H2135 N2129 0.985 . S
H2136 N2133 0.984 . S
H2137 N2133 0.985 . S
H2138 N2132 0.984 . S
H2139 N2132 0.984 . S
H2140 N2128 0.984 . S
H2141 N2128 0.985 . S
C2142 C2143 1.363 . S
C2142 C2148 1.379 . S
C2142 N2150 1.356 . S
C2143 C2142 1.363 . S
C2143 C2149 1.363 . S
C2144 C2145 1.363 . S
C2144 C2149 1.379 . S
C2144 N2151 1.356 . S
C2145 C2144 1.363 . S
C2145 C2148 1.363 . S
N2146 C2148 1.356 . S
N2146 H2158 0.984 . S
N2146 H2159 0.985 . S
N2147 C2149 1.356 . S
N2147 H2152 0.984 . S
N2147 H2153 0.985 . S
C2148 C2142 1.379 . S
C2148 C2145 1.363 . S
C2148 N2146 1.356 . S
C2149 C2143 1.363 . S
C2149 C2144 1.379 . S
C2149 N2147 1.356 . S
N2150 C2142 1.356 . S
N2150 H2156 0.984 . S
N2150 H2157 0.984 . S
N2151 C2144 1.356 . S
N2151 H2154 0.984 . S
N2151 H2155 0.985 . S
H2152 N2147 0.984 . S
H2153 N2147 0.985 . S
H2154 N2151 0.984 . S
H2155 N2151 0.985 . S
H2156 N2150 0.984 . S
H2157 N2150 0.984 . S
H2158 N2146 0.984 . S
H2159 N2146 0.985 . S
C2160 C2161 1.363 . S
C2160 C2166 1.379 . S
C2160 N2168 1.356 . S
C2161 C2160 1.363 . S
C2161 C2167 1.363 . S
C2162 C2163 1.363 . S
C2162 C2167 1.379 . S
C2162 N2169 1.356 . S
C2163 C2162 1.363 . S
C2163 C2166 1.363 . S
N2164 C2166 1.356 . S
N2164 H2176 0.984 . S
N2164 H2177 0.985 . S
N2165 C2167 1.356 . S
N2165 H2170 0.984 . S
N2165 H2171 0.985 . S
C2166 C2160 1.379 . S
C2166 C2163 1.363 . S
C2166 N2164 1.356 . S
C2167 C2161 1.363 . S
C2167 C2162 1.379 . S
C2167 N2165 1.356 . S
N2168 C2160 1.356 . S
N2168 H2174 0.984 . S
N2168 H2175 0.984 . S
N2169 C2162 1.356 . S
N2169 H2172 0.984 . S
N2169 H2173 0.985 . S
H2170 N2165 0.984 . S
H2171 N2165 0.985 . S
H2172 N2169 0.984 . S
H2173 N2169 0.985 . S
H2174 N2168 0.984 . S
H2175 N2168 0.984 . S
H2176 N2164 0.984 . S
H2177 N2164 0.985 . S
C2178 C2179 1.363 . S
C2178 C2184 1.379 . S
C2178 N2186 1.356 . S
C2179 C2178 1.363 . S
C2179 C2185 1.363 . S
C2180 C2181 1.363 . S
C2180 C2185 1.379 . S
C2180 N2187 1.356 . S
C2181 C2180 1.363 . S
C2181 C2184 1.363 . S
N2182 C2184 1.356 . S
N2182 H2194 0.984 . S
N2182 H2195 0.985 . S
N2183 C2185 1.356 . S
N2183 H2188 0.984 . S
N2183 H2189 0.985 . S
C2184 C2178 1.379 . S
C2184 C2181 1.363 . S
C2184 N2182 1.356 . S
C2185 C2179 1.363 . S
C2185 C2180 1.379 . S
C2185 N2183 1.356 . S
N2186 C2178 1.356 . S
N2186 H2192 0.984 . S
N2186 H2193 0.984 . S
N2187 C2180 1.356 . S
N2187 H2190 0.984 . S
N2187 H2191 0.985 . S
H2188 N2183 0.984 . S
H2189 N2183 0.985 . S
H2190 N2187 0.984 . S
H2191 N2187 0.985 . S
H2192 N2186 0.984 . S
H2193 N2186 0.984 . S
H2194 N2182 0.984 . S
H2195 N2182 0.985 . S
C2196 C2197 1.363 . S
C2196 C2202 1.379 . S
C2196 N2204 1.356 . S
C2197 C2196 1.363 . S
C2197 C2203 1.363 . S
C2198 C2199 1.363 . S
C2198 C2203 1.379 . S
C2198 N2205 1.356 . S
C2199 C2198 1.363 . S
C2199 C2202 1.363 . S
N2200 C2202 1.356 . S
N2200 H2212 0.984 . S
N2200 H2213 0.985 . S
N2201 C2203 1.356 . S
N2201 H2206 0.984 . S
N2201 H2207 0.985 . S
C2202 C2196 1.379 . S
C2202 C2199 1.363 . S
C2202 N2200 1.356 . S
C2203 C2197 1.363 . S
C2203 C2198 1.379 . S
C2203 N2201 1.356 . S
N2204 C2196 1.356 . S
N2204 H2210 0.984 . S
N2204 H2211 0.984 . S
N2205 C2198 1.356 . S
N2205 H2208 0.984 . S
N2205 H2209 0.985 . S
H2206 N2201 0.984 . S
H2207 N2201 0.985 . S
H2208 N2205 0.984 . S
H2209 N2205 0.985 . S
H2210 N2204 0.984 . S
H2211 N2204 0.984 . S
H2212 N2200 0.984 . S
H2213 N2200 0.985 . S
C2214 C2215 1.363 . S
C2214 C2220 1.379 . S
C2214 N2222 1.356 . S
C2215 C2214 1.363 . S
C2215 C2221 1.363 . S
C2216 C2217 1.363 . S
C2216 C2221 1.379 . S
C2216 N2223 1.356 . S
C2217 C2216 1.363 . S
C2217 C2220 1.363 . S
N2218 C2220 1.356 . S
N2218 H2230 0.984 . S
N2218 H2231 0.985 . S
N2219 C2221 1.356 . S
N2219 H2224 0.984 . S
N2219 H2225 0.985 . S
C2220 C2214 1.379 . S
C2220 C2217 1.363 . S
C2220 N2218 1.356 . S
C2221 C2215 1.363 . S
C2221 C2216 1.379 . S
C2221 N2219 1.356 . S
N2222 C2214 1.356 . S
N2222 H2228 0.984 . S
N2222 H2229 0.984 . S
N2223 C2216 1.356 . S
N2223 H2226 0.984 . S
N2223 H2227 0.985 . S
H2224 N2219 0.984 . S
H2225 N2219 0.985 . S
H2226 N2223 0.984 . S
H2227 N2223 0.985 . S
H2228 N2222 0.984 . S
H2229 N2222 0.984 . S
H2230 N2218 0.984 . S
H2231 N2218 0.985 . S
C2232 C2233 1.363 . S
C2232 C2238 1.379 . S
C2232 N2240 1.356 . S
C2233 C2232 1.363 . S
C2233 C2239 1.363 . S
C2234 C2235 1.363 . S
C2234 C2239 1.379 . S
C2234 N2241 1.356 . S
C2235 C2234 1.363 . S
C2235 C2238 1.363 . S
N2236 C2238 1.356 . S
N2236 H2248 0.984 . S
N2236 H2249 0.985 . S
N2237 C2239 1.356 . S
N2237 H2242 0.984 . S
N2237 H2243 0.985 . S
C2238 C2232 1.379 . S
C2238 C2235 1.363 . S
C2238 N2236 1.356 . S
C2239 C2233 1.363 . S
C2239 C2234 1.379 . S
C2239 N2237 1.356 . S
N2240 C2232 1.356 . S
N2240 H2246 0.984 . S
N2240 H2247 0.984 . S
N2241 C2234 1.356 . S
N2241 H2244 0.984 . S
N2241 H2245 0.985 . S
H2242 N2237 0.984 . S
H2243 N2237 0.985 . S
H2244 N2241 0.984 . S
H2245 N2241 0.985 . S
H2246 N2240 0.984 . S
H2247 N2240 0.984 . S
H2248 N2236 0.984 . S
H2249 N2236 0.985 . S
C2250 C2251 1.363 . S
C2250 C2256 1.379 . S
C2250 N2258 1.356 . S
C2251 C2250 1.363 . S
C2251 C2257 1.363 . S
C2252 C2253 1.363 . S
C2252 C2257 1.379 . S
C2252 N2259 1.356 . S
C2253 C2252 1.363 . S
C2253 C2256 1.363 . S
N2254 C2256 1.356 . S
N2254 H2266 0.984 . S
N2254 H2267 0.985 . S
N2255 C2257 1.356 . S
N2255 H2260 0.984 . S
N2255 H2261 0.985 . S
C2256 C2250 1.379 . S
C2256 C2253 1.363 . S
C2256 N2254 1.356 . S
C2257 C2251 1.363 . S
C2257 C2252 1.379 . S
C2257 N2255 1.356 . S
N2258 C2250 1.356 . S
N2258 H2264 0.984 . S
N2258 H2265 0.984 . S
N2259 C2252 1.356 . S
N2259 H2262 0.984 . S
N2259 H2263 0.985 . S
H2260 N2255 0.984 . S
H2261 N2255 0.985 . S
H2262 N2259 0.984 . S
H2263 N2259 0.985 . S
H2264 N2258 0.984 . S
H2265 N2258 0.984 . S
H2266 N2254 0.984 . S
H2267 N2254 0.985 . S
C2268 C2269 1.363 . S
C2268 C2274 1.379 . S
C2268 N2276 1.356 . S
C2269 C2268 1.363 . S
C2269 C2275 1.363 . S
C2270 C2271 1.363 . S
C2270 C2275 1.379 . S
C2270 N2277 1.356 . S
C2271 C2270 1.363 . S
C2271 C2274 1.363 . S
N2272 C2274 1.356 . S
N2272 H2284 0.984 . S
N2272 H2285 0.985 . S
N2273 C2275 1.356 . S
N2273 H2278 0.984 . S
N2273 H2279 0.985 . S
C2274 C2268 1.379 . S
C2274 C2271 1.363 . S
C2274 N2272 1.356 . S
C2275 C2269 1.363 . S
C2275 C2270 1.379 . S
C2275 N2273 1.356 . S
N2276 C2268 1.356 . S
N2276 H2282 0.984 . S
N2276 H2283 0.984 . S
N2277 C2270 1.356 . S
N2277 H2280 0.984 . S
N2277 H2281 0.985 . S
H2278 N2273 0.984 . S
H2279 N2273 0.985 . S
H2280 N2277 0.984 . S
H2281 N2277 0.985 . S
H2282 N2276 0.984 . S
H2283 N2276 0.984 . S
H2284 N2272 0.984 . S
H2285 N2272 0.985 . S
C2286 C2287 1.363 1_556 S
C2286 C2292 1.379 . S
C2286 N2294 1.356 . S
C2287 C2286 1.363 1_554 S
C2287 C2293 1.363 . S
C2288 C2289 1.363 1_554 S
C2288 C2293 1.379 . S
C2288 N2295 1.356 . S
C2289 C2288 1.363 1_556 S
C2289 C2292 1.363 . S
N2290 C2292 1.356 . S
N2290 H2302 0.984 . S
N2290 H2303 0.985 . S
N2291 C2293 1.356 . S
N2291 H2296 0.984 . S
N2291 H2297 0.985 . S
C2292 C2286 1.379 . S
C2292 C2289 1.363 . S
C2292 N2290 1.356 . S
C2293 C2287 1.363 . S
C2293 C2288 1.379 . S
C2293 N2291 1.356 . S
N2294 C2286 1.356 . S
N2294 H2300 0.984 . S
N2294 H2301 0.984 . S
N2295 C2288 1.356 . S
N2295 H2298 0.984 . S
N2295 H2299 0.985 . S
H2296 N2291 0.984 . S
H2297 N2291 0.985 . S
H2298 N2295 0.984 . S
H2299 N2295 0.985 . S
H2300 N2294 0.984 . S
H2301 N2294 0.984 . S
H2302 N2290 0.984 . S
H2303 N2290 0.985 . S
C2304 C2305 1.363 . S
C2304 C2310 1.379 . S
C2304 N2312 1.356 . S
C2305 C2304 1.363 . S
C2305 C2311 1.363 . S
C2306 C2307 1.363 . S
C2306 C2311 1.379 . S
C2306 N2313 1.356 . S
C2307 C2306 1.363 . S
C2307 C2310 1.363 . S
N2308 C2310 1.356 . S
N2308 H2320 0.984 . S
N2308 H2321 0.985 . S
N2309 C2311 1.356 . S
N2309 H2314 0.984 . S
N2309 H2315 0.985 . S
C2310 C2304 1.379 . S
C2310 C2307 1.363 . S
C2310 N2308 1.356 . S
C2311 C2305 1.363 . S
C2311 C2306 1.379 . S
C2311 N2309 1.356 . S
N2312 C2304 1.356 . S
N2312 H2318 0.984 . S
N2312 H2319 0.984 . S
N2313 C2306 1.356 . S
N2313 H2316 0.984 . S
N2313 H2317 0.985 . S
H2314 N2309 0.984 . S
H2315 N2309 0.985 . S
H2316 N2313 0.984 . S
H2317 N2313 0.985 . S
H2318 N2312 0.984 . S
H2319 N2312 0.984 . S
H2320 N2308 0.984 . S
H2321 N2308 0.985 . S
C2322 C2323 1.363 1_556 S
C2322 C2328 1.384 . S
C2322 N2330 1.356 . S
C2323 C2322 1.363 1_554 S
C2323 C2329 1.363 . S
C2324 C2325 1.363 . S
C2324 C2329 1.379 . S
C2324 N2331 1.356 . S
C2325 C2324 1.363 . S
C2325 C2328 1.350 1_554 S
N2326 C2328 1.362 . S
N2326 H2338 0.984 . S
N2326 H2339 0.984 . S
N2327 C2329 1.356 . S
N2327 H2332 0.984 . S
N2327 H2333 0.985 . S
C2328 C2322 1.384 . S
C2328 C2325 1.350 1_556 S
C2328 N2326 1.362 . S
C2329 C2323 1.363 . S
C2329 C2324 1.379 . S
C2329 N2327 1.356 . S
N2330 C2322 1.356 . S
N2330 H2336 0.984 . S
N2330 H2337 0.984 . S
N2331 C2324 1.356 . S
N2331 H2334 0.984 . S
N2331 H2335 0.985 . S
H2332 N2327 0.984 . S
H2333 N2327 0.985 . S
H2334 N2331 0.984 . S
H2335 N2331 0.985 . S
H2336 N2330 0.984 . S
H2337 N2330 0.984 . S
H2338 N2326 0.984 . S
H2339 N2326 0.984 . S
C2340 C2341 1.363 . S
C2340 C2346 1.379 . S
C2340 N2348 1.356 . S
C2341 C2340 1.363 . S
C2341 C2347 1.363 . S
C2342 C2343 1.363 . S
C2342 C2347 1.379 . S
C2342 N2349 1.356 . S
C2343 C2342 1.363 . S
C2343 C2346 1.363 . S
N2344 C2346 1.356 . S
N2344 H2356 0.984 . S
N2344 H2357 0.985 . S
N2345 C2347 1.356 . S
N2345 H2350 0.984 . S
N2345 H2351 0.985 . S
C2346 C2340 1.379 . S
C2346 C2343 1.363 . S
C2346 N2344 1.356 . S
C2347 C2341 1.363 . S
C2347 C2342 1.379 . S
C2347 N2345 1.356 . S
N2348 C2340 1.356 . S
N2348 H2354 0.984 . S
N2348 H2355 0.984 . S
N2349 C2342 1.356 . S
N2349 H2352 0.984 . S
N2349 H2353 0.985 . S
H2350 N2345 0.984 . S
H2351 N2345 0.985 . S
H2352 N2349 0.984 . S
H2353 N2349 0.985 . S
H2354 N2348 0.984 . S
H2355 N2348 0.984 . S
H2356 N2344 0.984 . S
H2357 N2344 0.985 . S
C2358 C2359 1.363 . S
C2358 C2364 1.379 . S
C2358 N2366 1.356 . S
C2359 C2358 1.363 . S
C2359 C2365 1.363 . S
C2360 C2361 1.363 . S
C2360 C2365 1.379 . S
C2360 N2367 1.356 . S
C2361 C2360 1.363 . S
C2361 C2364 1.363 . S
N2362 C2364 1.356 . S
N2362 H2374 0.984 . S
N2362 H2375 0.985 . S
N2363 C2365 1.356 . S
N2363 H2368 0.984 . S
N2363 H2369 0.985 . S
C2364 C2358 1.379 . S
C2364 C2361 1.363 . S
C2364 N2362 1.356 . S
C2365 C2359 1.363 . S
C2365 C2360 1.379 . S
C2365 N2363 1.356 . S
N2366 C2358 1.356 . S
N2366 H2372 0.984 . S
N2366 H2373 0.984 . S
N2367 C2360 1.356 . S
N2367 H2370 0.984 . S
N2367 H2371 0.985 . S
H2368 N2363 0.984 . S
H2369 N2363 0.985 . S
H2370 N2367 0.984 . S
H2371 N2367 0.985 . S
H2372 N2366 0.984 . S
H2373 N2366 0.984 . S
H2374 N2362 0.984 . S
H2375 N2362 0.985 . S
C651 C327 1.282 . S
C649 C10 1.398 . S
C667 C13 1.166 . S
C669 C346 1.207 . S
C685 C34 1.354 . S
C687 C369 1.292 . S
C705 C389 1.310 . S
C703 C44 1.328 . S
C721 C21 1.335 1_455 S
C723 C410 1.337 . S
C741 C432 1.280 . S
C739 C26 1.323 . S
C759 C454 1.265 . S
C757 C49 1.285 . S
C775 C5 1.319 . S
C777 C472 1.307 . S
C793 C62 1.317 . S
C795 C328 1.286 . S
C811 C73 1.296 . S
C813 C347 1.304 . S
C831 C370 1.218 . S
C829 C88 1.242 . S
C849 C393 1.286 . S
C847 C99 1.346 . S
C865 C60 1.364 . S
C867 C414 1.315 . S
C885 C433 1.189 . S
C883 C75 1.209 . S
C903 C455 1.293 . S
C901 C86 1.287 1_545 S
C921 C473 1.284 . S
C919 C101 1.324 . S
C939 C329 1.289 . S
C937 C96 1.306 . S
C957 C496 1.194 . S
C955 C104 1.157 . S
C973 C122 1.257 . S
C975 C518 1.240 . S
C993 C537 1.281 . S
C991 C130 1.324 . S
C1009 C57 1.269 . S
C1011 C477 1.201 . S
C1029 C371 1.314 . S
C1027 C70 1.330 . S
C1045 C117 1.119 . S
C1047 C559 1.131 . S
C1065 C582 1.201 . S
C1063 C143 1.227 . S
C1081 C164 1.422 . S
C1083 C330 1.334 . S
C1101 C581 1.282 . S
C1099 C169 1.275 . S
C1117 C192 1.528 . S
C1119 C372 1.392 . S
C1135 C200 1.292 . S
C1137 C556 1.277 . S
C1155 C412 1.301 . S
C1153 C179 1.358 . S
C1173 C519 1.302 . S
C1171 C182 1.383 . S
C1191 C452 1.405 . S
C1189 C203 1.396 . S
C1209 C602 1.433 . S
C1207 C161 1.403 . S
C1227 C326 1.406 . S
C1225 C216 1.402 1_545 S
C1243 C231 1.309 . S
C1245 C580 1.260 . S
C1263 C368 1.306 . S
C1261 C242 1.311 . S
C1279 C257 1.418 . S
C1281 C561 1.314 . S
C1297 C218 1.464 . S
C1299 C411 1.347 . S
C1315 C229 1.324 . S
C1317 C515 1.323 . S
C1335 C451 1.243 . S
C1333 C244 1.287 . S
C1351 C255 1.305 . S
C1353 C601 1.278 . S
C1369 C252 1.300 . S
C1371 C325 1.285 . S
C1387 C260 1.310 1_556 S
C1389 C494 1.319 . S
C1405 C278 1.233 . S
C1407 C430 1.216 . S
C1423 C286 1.381 . S
C1425 C540 1.311 . S
C1443 C600 1.244 . S
C1441 C213 1.301 . S
C1461 C367 1.271 . S
C1459 C226 1.287 . S
C1479 C392 1.243 . S
C1477 C273 1.247 . S
C1497 C348 1.306 . S
C1495 C299 1.375 . S
C1513 C36 1.398 . S
C1515 C624 1.282 . S
C1533 C577 1.207 . S
C1531 C39 1.167 . S
C1551 C642 1.292 . S
C1549 C8 1.354 . S
C1567 C18 1.328 . S
C1569 C560 1.310 . S
C1585 C47 1.335 . S
C1587 C497 1.337 . S
C1605 C516 1.280 . S
C1603 C0 1.323 . S
C1623 C538 1.265 . S
C1621 C23 1.285 . S
C1641 C598 1.307 . S
C1639 C31 1.319 . S
C1659 C619 1.286 . S
C1657 C153 1.317 . S
C1675 C112 1.296 . S
C1677 C578 1.304 . S
C1693 C127 1.242 . S
C1695 C643 1.218 . S
C1713 C558 1.286 . S
C1711 C138 1.345 . S
C1731 C495 1.315 . S
C1729 C151 1.364 . S
C1747 C114 1.209 . S
C1749 C517 1.189 . S
C1767 C539 1.293 . S
C1765 C125 1.288 . S
C1783 C140 1.324 . S
C1785 C599 1.284 . S
C1803 C620 1.289 . S
C1801 C135 1.306 . S
C1821 C409 1.194 . S
C1819 C65 1.157 . S
C1839 C434 1.240 . S
C1837 C83 1.257 . S
C1855 C91 1.324 . S
C1857 C453 1.281 . S
C1875 C603 1.201 . S
C1873 C148 1.269 . S
C1891 C109 1.330 . S
C1893 C644 1.314 . S
C1911 C388 1.131 . S
C1909 C78 1.119 . S
C1929 C351 1.201 . S
C1927 C52 1.227 . S
C1945 C190 1.423 . S
C1947 C621 1.334 . S
C1965 C350 1.282 . S
C1963 C195 1.275 . S
C1983 C645 1.392 . S
C1981 C166 1.527 1_655 S
C1999 C174 1.292 . S
C2001 C391 1.277 . S
C2017 C205 1.358 . S
C2019 C493 1.301 . S
C2035 C156 1.383 . S
C2037 C435 1.302 . S
C2053 C177 1.403 . S
C2055 C536 1.405 . S
C2071 C187 1.403 . S
C2073 C476 1.433 . S
C2091 C623 1.406 . S
C2089 C307 1.402 . S
C2107 C270 1.309 . S
C2109 C349 1.260 . S
C2127 C641 1.306 . S
C2125 C281 1.311 . S
C2143 C296 1.418 . S
C2145 C390 1.314 . S
C2161 C309 1.461 . S
C2163 C498 1.347 . S
C2181 C431 1.323 . S
C2179 C268 1.324 . S
C2197 C283 1.287 . S
C2199 C535 1.243 . S
C2217 C475 1.278 . S
C2215 C294 1.305 . S
C2235 C622 1.285 . S
C2233 C291 1.300 . S
C2253 C413 1.319 . S
C2251 C221 1.310 . S
C2269 C239 1.233 . S
C2271 C514 1.216 . S
C2289 C456 1.311 . S
C2287 C247 1.381 . S
C2307 C474 1.244 . S
C2305 C304 1.301 . S
C2323 C265 1.287 . S
C2325 C640 1.271 . S
C2343 C557 1.243 . S
C2341 C234 1.247 . S
C2361 C579 1.306 . S
C2359 C208 1.375 . S
