# Generated by pormake.
# Topology ssb, (4,4)-cn, num edge types: 1
# Building blocks:
#     Node 0, Type 0, BuildingBlock: ESEHIV_clean_sbu_0, # of connection points: 4
#     Node 1, Type 0, BuildingBlock: ESEHIV_clean_sbu_0, # of connection points: 4
#     Node 2, Type 0, BuildingBlock: ESEHIV_clean_sbu_0, # of connection points: 4
#     Node 3, Type 0, BuildingBlock: ESEHIV_clean_sbu_0, # of connection points: 4
#     Node 4, Type 0, BuildingBlock: ESEHIV_clean_sbu_0, # of connection points: 4
#     Node 5, Type 0, BuildingBlock: ESEHIV_clean_sbu_0, # of connection points: 4
#     Node 6, Type 0, BuildingBlock: ESEHIV_clean_sbu_0, # of connection points: 4
#     Node 7, Type 0, BuildingBlock: ESEHIV_clean_sbu_0, # of connection points: 4
#     Node 8, Type 1, BuildingBlock: NAWXER_clean_sbu_0, # of connection points: 4
#     Node 9, Type 1, BuildingBlock: NAWXER_clean_sbu_0, # of connection points: 4
#     Node 10, Type 1, BuildingBlock: NAWXER_clean_sbu_0, # of connection points: 4
#     Node 11, Type 1, BuildingBlock: NAWXER_clean_sbu_0, # of connection points: 4
#     Node 12, Type 1, BuildingBlock: NAWXER_clean_sbu_0, # of connection points: 4
#     Node 13, Type 1, BuildingBlock: NAWXER_clean_sbu_0, # of connection points: 4
#     Node 14, Type 1, BuildingBlock: NAWXER_clean_sbu_0, # of connection points: 4
#     Node 15, Type 1, BuildingBlock: NAWXER_clean_sbu_0, # of connection points: 4
#     Edge 16, Type (0, 1), BuildingBlock: TEMPAE_clean_linker_10, # of connection points: 2
#     Edge 17, Type (0, 1), BuildingBlock: TEMPAE_clean_linker_10, # of connection points: 2
#     Edge 18, Type (0, 1), BuildingBlock: TEMPAE_clean_linker_10, # of connection points: 2
#     Edge 19, Type (0, 1), BuildingBlock: TEMPAE_clean_linker_10, # of connection points: 2
#     Edge 20, Type (0, 1), BuildingBlock: TEMPAE_clean_linker_10, # of connection points: 2
#     Edge 21, Type (0, 1), BuildingBlock: TEMPAE_clean_linker_10, # of connection points: 2
#     Edge 22, Type (0, 1), BuildingBlock: TEMPAE_clean_linker_10, # of connection points: 2
#     Edge 23, Type (0, 1), BuildingBlock: TEMPAE_clean_linker_10, # of connection points: 2
#     Edge 24, Type (0, 1), BuildingBlock: TEMPAE_clean_linker_10, # of connection points: 2
#     Edge 25, Type (0, 1), BuildingBlock: TEMPAE_clean_linker_10, # of connection points: 2
#     Edge 26, Type (0, 1), BuildingBlock: TEMPAE_clean_linker_10, # of connection points: 2
#     Edge 27, Type (0, 1), BuildingBlock: TEMPAE_clean_linker_10, # of connection points: 2
#     Edge 28, Type (0, 1), BuildingBlock: TEMPAE_clean_linker_10, # of connection points: 2
#     Edge 29, Type (0, 1), BuildingBlock: TEMPAE_clean_linker_10, # of connection points: 2
#     Edge 30, Type (0, 1), BuildingBlock: TEMPAE_clean_linker_10, # of connection points: 2
#     Edge 31, Type (0, 1), BuildingBlock: TEMPAE_clean_linker_10, # of connection points: 2
#     Edge 32, Type (0, 1), BuildingBlock: TEMPAE_clean_linker_10, # of connection points: 2
#     Edge 33, Type (0, 1), BuildingBlock: TEMPAE_clean_linker_10, # of connection points: 2
#     Edge 34, Type (0, 1), BuildingBlock: TEMPAE_clean_linker_10, # of connection points: 2
#     Edge 35, Type (0, 1), BuildingBlock: TEMPAE_clean_linker_10, # of connection points: 2
#     Edge 36, Type (0, 1), BuildingBlock: TEMPAE_clean_linker_10, # of connection points: 2
#     Edge 37, Type (0, 1), BuildingBlock: TEMPAE_clean_linker_10, # of connection points: 2
#     Edge 38, Type (0, 1), BuildingBlock: TEMPAE_clean_linker_10, # of connection points: 2
#     Edge 39, Type (0, 1), BuildingBlock: TEMPAE_clean_linker_10, # of connection points: 2
#     Edge 40, Type (0, 1), BuildingBlock: TEMPAE_clean_linker_10, # of connection points: 2
#     Edge 41, Type (0, 1), BuildingBlock: TEMPAE_clean_linker_10, # of connection points: 2
#     Edge 42, Type (0, 1), BuildingBlock: TEMPAE_clean_linker_10, # of connection points: 2
#     Edge 43, Type (0, 1), BuildingBlock: TEMPAE_clean_linker_10, # of connection points: 2
#     Edge 44, Type (0, 1), BuildingBlock: TEMPAE_clean_linker_10, # of connection points: 2
#     Edge 45, Type (0, 1), BuildingBlock: TEMPAE_clean_linker_10, # of connection points: 2
#     Edge 46, Type (0, 1), BuildingBlock: TEMPAE_clean_linker_10, # of connection points: 2
#     Edge 47, Type (0, 1), BuildingBlock: TEMPAE_clean_linker_10, # of connection points: 2
# Relax obj value: 0.002
# Max RMSD: 0.102
# Mean RMSD: 0.051
data_MOF--net-ssb--node1-ESEHIV_clean_sbu_0--node2-NAWXER_clean_sbu_0--edge1-TEMPAE_clean_linker_10
_symmetry_space_group_name_H-M    P1
_symmetry_Int_Tables_number       1
_symmetry_cell_setting            triclinic
loop_
_symmetry_equiv_pos_as_xyz
'x, y, z'
_cell_length_a     46.776376
_cell_length_b     46.49564
_cell_length_c     40.213156
_cell_angle_alpha  89.494771
_cell_angle_beta   90.203719
_cell_angle_gamma 90.091027
loop_
_atom_site_label
_atom_site_type_symbol
_atom_site_fract_x
_atom_site_fract_y
_atom_site_fract_z
_atom_type_partial_charge
Cu0 Cu 0.27838 0.28603 0.26382 0.0
N1 N 0.26992 0.24666 0.26727 0.0
N2 N 0.26323 0.20354 0.29161 0.0
C3 C 0.26892 0.2318 0.29616 0.0
C4 C 0.2604 0.20075 0.2583 0.0
C5 C 0.26443 0.2273 0.24344 0.0
O6 O 0.25907 0.3043 0.30086 0.0
C7 C 0.33046 0.27994 0.23637 0.0
O8 O 0.31447 0.26222 0.21913 0.0
H9 H 0.27232 0.24182 0.32001 0.0
H10 H 0.26397 0.23195 0.21706 0.0
N11 N 0.26633 0.30302 0.22377 0.0
N12 N 0.2707 0.33249 0.1797 0.0
C13 C 0.27927 0.32652 0.21107 0.0
C14 C 0.24851 0.29382 0.19976 0.0
C15 C 0.25105 0.31208 0.17257 0.0
C16 C 0.23189 0.30469 0.2987 0.0
O17 O 0.21987 0.29494 0.27145 0.0
H18 H 0.29543 0.33844 0.22447 0.0
H19 H 0.23546 0.27465 0.20135 0.0
O20 O 0.31964 0.29178 0.26186 0.0
H21 H 0.25642 0.18088 0.24528 0.0
H22 H 0.24015 0.30974 0.14896 0.0
Cu23 Cu 0.77569 0.25457 0.27673 0.0
N24 N 0.76042 0.2312 0.24354 0.0
N25 N 0.72925 0.21632 0.20526 0.0
C26 C 0.73416 0.2346 0.23048 0.0
C27 C 0.75337 0.20069 0.20234 0.0
C28 C 0.77256 0.20982 0.22619 0.0
O29 O 0.76674 0.29434 0.26348 0.0
C30 C 0.76433 0.21415 0.32465 0.0
O31 O 0.7782 0.1994 0.30214 0.0
H32 H 0.71942 0.25109 0.2384 0.0
H33 H 0.79396 0.20174 0.23019 0.0
N34 N 0.81536 0.25058 0.27948 0.0
N35 N 0.85906 0.24864 0.30221 0.0
C36 C 0.83088 0.25296 0.30755 0.0
C37 C 0.83428 0.24469 0.25538 0.0
C38 C 0.86123 0.24344 0.2693 0.0
C39 C 0.77382 0.30075 0.23366 0.0
O40 O 0.78686 0.2811 0.21603 0.0
H41 H 0.82155 0.25816 0.33132 0.0
H42 H 0.82892 0.24147 0.22951 0.0
O43 O 0.76008 0.2409 0.31918 0.0
H44 H 0.75695 0.18409 0.18412 0.0
H45 H 0.88079 0.23872 0.25617 0.0
Cu46 Cu 0.80108 0.80981 0.2822 0.0
N47 N 0.80233 0.76971 0.27801 0.0
N48 N 0.80424 0.7257 0.25576 0.0
C49 C 0.80337 0.75439 0.24972 0.0
C50 C 0.8037 0.72309 0.28926 0.0
C51 C 0.80263 0.75015 0.30282 0.0
O52 O 0.77524 0.82628 0.24909 0.0
C53 C 0.86137 0.81183 0.29109 0.0
O54 O 0.86065 0.78406 0.28551 0.0
H55 H 0.80393 0.76419 0.22529 0.0
H56 H 0.80225 0.75521 0.329 0.0
N57 N 0.78602 0.81995 0.32315 0.0
N58 N 0.78079 0.84746 0.36799 0.0
C59 C 0.79318 0.84468 0.338 0.0
C60 C 0.76807 0.80645 0.34418 0.0
C61 C 0.76487 0.82339 0.37204 0.0
C62 C 0.77862 0.82724 0.21772 0.0
O63 O 0.80274 0.81821 0.20488 0.0
H64 H 0.80758 0.86017 0.32691 0.0
H65 H 0.75811 0.78584 0.33969 0.0
O66 O 0.83923 0.82684 0.28465 0.0
H67 H 0.8037 0.70309 0.3032 0.0
H68 H 0.7516 0.81847 0.39333 0.0
Cu69 Cu 0.28157 0.78867 0.25421 0.0
N70 N 0.30067 0.80697 0.21894 0.0
N71 N 0.33647 0.81454 0.18312 0.0
C72 C 0.32747 0.79985 0.21021 0.0
C73 C 0.31433 0.83169 0.17443 0.0
C74 C 0.29226 0.82702 0.19664 0.0
O75 O 0.2828 0.74784 0.243 0.0
C76 C 0.29879 0.82969 0.29694 0.0
O77 O 0.28794 0.84406 0.27162 0.0
H78 H 0.33982 0.7835 0.22308 0.0
H79 H 0.27161 0.83738 0.19635 0.0
N80 N 0.24292 0.7977 0.25913 0.0
N81 N 0.2008 0.79753 0.28533 0.0
C82 C 0.2288 0.79082 0.28714 0.0
C83 C 0.2232 0.80923 0.23854 0.0
C84 C 0.19712 0.80914 0.25468 0.0
C85 C 0.27123 0.74373 0.21459 0.0
O86 O 0.25965 0.76581 0.19907 0.0
H87 H 0.23893 0.78026 0.30817 0.0
H88 H 0.22724 0.81661 0.21344 0.0
O89 O 0.29935 0.80225 0.29538 0.0
H90 H 0.31414 0.84665 0.15365 0.0
H91 H 0.1771 0.81705 0.24465 0.0
Cu92 Cu 0.30075 0.81278 0.77763 0.0
N93 N 0.34009 0.82043 0.77844 0.0
N94 N 0.38351 0.82888 0.80035 0.0
C95 C 0.35579 0.82233 0.80648 0.0
C96 C 0.38506 0.83112 0.7668 0.0
C97 C 0.3583 0.82602 0.75344 0.0
O98 O 0.29376 0.78378 0.81207 0.0
C99 C 0.29072 0.87286 0.77715 0.0
O100 O 0.31779 0.87604 0.78505 0.0
H101 H 0.34658 0.81951 0.8309 0.0
H102 H 0.35253 0.82674 0.72739 0.0
N103 N 0.28746 0.79924 0.73669 0.0
N104 N 0.25581 0.79604 0.69486 0.0
C105 C 0.26003 0.80255 0.72716 0.0
C106 C 0.30125 0.78983 0.7096 0.0
C107 C 0.28176 0.78781 0.68374 0.0
C108 C 0.30468 0.75911 0.80685 0.0
O109 O 0.3181 0.75489 0.77866 0.0
H110 H 0.24383 0.81126 0.74332 0.0
H111 H 0.32397 0.78576 0.70831 0.0
O112 O 0.27905 0.84834 0.78143 0.0
H113 H 0.40407 0.83602 0.75262 0.0
H114 H 0.28654 0.78134 0.65858 0.0
Cu115 Cu 0.29583 0.28531 0.75246 0.0
N116 N 0.29429 0.32537 0.75657 0.0
N117 N 0.2858 0.36773 0.78074 0.0
C118 C 0.28761 0.33892 0.78497 0.0
C119 C 0.29162 0.37242 0.74825 0.0
C120 C 0.29681 0.34626 0.73341 0.0
O121 O 0.31227 0.27058 0.79364 0.0
C122 C 0.2503 0.27897 0.71184 0.0
O123 O 0.26821 0.29437 0.69393 0.0
H124 H 0.28334 0.32766 0.80809 0.0
H125 H 0.30153 0.34276 0.70746 0.0
N126 N 0.31923 0.27222 0.71793 0.0
N127 N 0.33595 0.24092 0.68081 0.0
C128 C 0.31908 0.24479 0.70754 0.0
C129 C 0.33701 0.28635 0.69719 0.0
C130 C 0.34728 0.26707 0.67413 0.0
C131 C 0.33835 0.27796 0.79713 0.0
O132 O 0.35016 0.29394 0.77381 0.0
H133 H 0.30576 0.22825 0.7186 0.0
H134 H 0.34174 0.30908 0.69831 0.0
O135 O 0.25744 0.27211 0.74148 0.0
H136 H 0.2922 0.39325 0.73604 0.0
H137 H 0.36171 0.27198 0.65387 0.0
Cu138 Cu 0.78295 0.31849 0.77143 0.0
N139 N 0.7989 0.33875 0.73557 0.0
N140 N 0.83093 0.35044 0.69664 0.0
C141 C 0.82512 0.33369 0.72333 0.0
C142 C 0.80741 0.36676 0.69188 0.0
C143 C 0.7877 0.35959 0.71607 0.0
O144 O 0.7888 0.27783 0.76234 0.0
C145 C 0.80069 0.35938 0.8151 0.0
O146 O 0.78925 0.37496 0.79112 0.0
H147 H 0.83931 0.31737 0.73331 0.0
H148 H 0.76673 0.3689 0.71912 0.0
N149 N 0.74375 0.32523 0.77609 0.0
N150 N 0.70116 0.32874 0.80109 0.0
C151 C 0.72939 0.3234 0.80501 0.0
C152 C 0.72399 0.33185 0.7529 0.0
C153 C 0.69775 0.3341 0.76822 0.0
C154 C 0.78015 0.27001 0.73372 0.0
O155 O 0.76748 0.28914 0.7145 0.0
H156 H 0.73954 0.31753 0.82831 0.0
H157 H 0.72823 0.33451 0.72664 0.0
O158 O 0.80107 0.33214 0.81196 0.0
H159 H 0.8047 0.38276 0.67242 0.0
H160 H 0.67778 0.33933 0.75595 0.0
Cu161 Cu 0.77403 0.7468 0.75246 0.0
N162 N 0.76321 0.70863 0.76154 0.0
N163 N 0.75291 0.67063 0.79417 0.0
C164 C 0.76226 0.69808 0.79284 0.0
C165 C 0.74804 0.66342 0.76216 0.0
C166 C 0.75429 0.68697 0.74207 0.0
O167 O 0.76481 0.76594 0.79392 0.0
C168 C 0.81864 0.73846 0.7093 0.0
O169 O 0.79743 0.72571 0.69378 0.0
H170 H 0.76861 0.71041 0.81434 0.0
H171 H 0.75226 0.68819 0.7153 0.0
N172 N 0.75263 0.7657 0.71924 0.0
N173 N 0.73569 0.80315 0.68989 0.0
C174 C 0.75113 0.79456 0.71657 0.0
C175 C 0.73751 0.75553 0.69332 0.0
C176 C 0.72715 0.77864 0.67503 0.0
C177 C 0.73786 0.76702 0.79861 0.0
O178 O 0.7207 0.75753 0.7752 0.0
H179 H 0.76196 0.80898 0.73346 0.0
H180 H 0.73463 0.73301 0.68774 0.0
O181 O 0.81396 0.74874 0.7381 0.0
H182 H 0.74008 0.64282 0.75386 0.0
H183 H 0.71444 0.77749 0.65254 0.0
C184 C 1.00567 0.32111 0.55651 0.0
C185 C 0.08822 0.31331 0.4829 0.0
O186 O 0.02049 0.34136 0.54391 0.0
Zn187 Zn 0.04716 0.31743 0.52033 0.0
O188 O 0.0126 0.2949 0.55086 0.0
Zn189 Zn 0.04499 0.27208 0.52353 0.0
O190 O 0.06549 0.25139 0.55799 0.0
O191 O 0.07155 0.29835 0.56018 0.0
O192 O 0.07865 0.28866 0.49229 0.0
O193 O 0.07615 0.33595 0.49332 0.0
O194 O 0.01977 0.29708 0.4841 0.0
O195 O 0.02232 0.25021 0.49263 0.0
C196 C 0.07668 0.27311 0.57189 0.0
C197 C 0.01221 0.27143 0.47633 0.0
C198 C 0.7854 0.08216 0.61673 0.0
C199 C 0.78628 0.01426 0.52436 0.0
O200 O 0.80707 0.07071 0.60325 0.0
Zn201 Zn 0.78692 0.04822 0.57019 0.0
O202 O 0.7603 0.07585 0.6061 0.0
Zn203 Zn 0.74118 0.04977 0.56844 0.0
O204 O 0.71907 0.02104 0.59329 0.0
O205 O 0.76564 0.01517 0.59816 0.0
O206 O 0.76122 0.02249 0.53282 0.0
O207 O 0.80808 0.02433 0.53938 0.0
O208 O 0.76949 0.08052 0.53757 0.0
O209 O 0.72247 0.07813 0.53949 0.0
C210 C 0.74017 1.0066 0.60452 0.0
C211 C 0.74501 0.08983 0.52792 0.0
C212 C 0.99263 0.77365 0.56619 0.0
C213 C 0.06038 0.77993 0.47303 0.0
O214 O 1.00066 0.7995 0.55963 0.0
Zn215 Zn 0.02998 0.82102 0.52655 0.0
O216 O 1.00347 0.75298 0.55002 0.0
Zn217 Zn 0.02785 0.77535 0.52042 0.0
O218 O 0.06174 0.78951 0.55207 0.0
O219 O 0.05983 0.83666 0.55567 0.0
O220 O 0.04946 0.75691 0.48485 0.0
O221 O 0.05475 0.80402 0.48675 0.0
O222 O 1.005 0.8462 0.50037 0.0
O223 O 0.99768 0.79992 0.49141 0.0
C224 C 0.07198 0.81306 0.56341 0.0
C225 C 0.99146 0.82632 0.48541 0.0
C226 C 0.31804 0.05889 0.54978 0.0
C227 C 0.30913 0.97221 0.48136 0.0
O228 O 0.3382 0.04345 0.53859 0.0
Zn229 Zn 0.31423 0.01512 0.51622 0.0
O230 O 0.29208 0.05149 0.54409 0.0
Zn231 Zn 0.269 0.01822 0.51881 0.0
O232 O 0.24851 0.99972 0.55521 0.0
O233 O 0.29504 0.99232 0.55721 0.0
O234 O 0.28483 0.98272 0.48975 0.0
O235 O 0.33192 0.98435 0.49139 0.0
O236 O 0.29445 0.04098 0.47765 0.0
O237 O 0.24791 0.0409 0.4863 0.0
C238 C 0.27004 0.98831 0.56942 0.0
C239 C 0.26926 0.04929 0.46927 0.0
C240 C 0.52549 0.80165 0.06486 0.0
C241 C 0.60816 0.79116 0.99107 0.0
O242 O 0.53619 0.82568 0.05518 0.0
Zn243 Zn 0.56995 0.841 0.02406 0.0
O244 O 0.53688 0.77829 0.0554 0.0
Zn245 Zn 0.56698 0.79503 0.02797 0.0
O246 O 0.59544 0.81486 0.06285 0.0
O247 O 0.59501 0.8618 0.05451 0.0
O248 O 0.59354 0.77076 1.00383 0.0
O249 O 0.60111 0.81731 0.99663 0.0
O250 O 0.54846 0.86086 0.9888 0.0
O251 O 0.5431 0.81374 0.98795 0.0
C252 C 0.6047 0.83999 0.07024 0.0
C253 C 0.53753 0.8386 0.97558 0.0
C254 C 0.26932 0.57751 0.05884 0.0
C255 C 0.26748 0.51572 0.95952 0.0
O256 O 0.29384 0.57166 0.04655 0.0
Zn257 Zn 0.31231 0.54882 1.0063 0.0
O258 O 0.24684 0.56799 0.04467 0.0
Zn259 Zn 0.266 0.54709 1.00892 0.0
O260 O 0.28785 0.51484 0.03682 0.0
O261 O 0.33453 0.51892 0.02955 0.0
O262 O 0.24559 0.52363 0.97583 0.0
O263 O 0.2923 0.52408 0.96882 0.0
O264 O 0.32985 0.58005 0.98035 0.0
O265 O 0.28274 0.5815 0.97934 0.0
C266 C 0.31328 0.50603 0.04269 0.0
C267 C 0.30686 0.59204 0.97032 0.0
C268 C 0.55281 0.30298 0.98021 0.0
C269 C 0.48898 0.2974 0.07639 0.0
O270 O 0.54295 0.32358 0.99727 0.0
Zn271 Zn 0.52022 0.30064 0.02777 0.0
O272 O 0.54506 0.27712 0.98713 0.0
Zn273 Zn 0.51781 0.25549 0.02262 0.0
O274 O 0.48871 0.23819 0.99537 0.0
O275 O 0.48581 0.28548 0.99658 0.0
O276 O 0.49386 0.27281 0.06334 0.0
O277 O 0.50025 0.31977 0.06361 0.0
O278 O 0.55253 0.27622 0.0541 0.0
O279 O 0.54417 0.23021 0.04502 0.0
C280 C 0.47622 0.26121 0.98637 0.0
C281 C 0.55918 0.24968 0.05858 0.0
C282 C 0.79915 0.56167 0.09331 0.0
C283 C 0.80497 0.4809 1.0162 0.0
O284 O 0.82151 0.55042 0.08117 0.0
Zn285 Zn 0.80291 0.52122 0.05464 0.0
O286 O 0.77453 0.55172 0.08513 0.0
Zn287 Zn 0.75735 0.51867 0.0538 0.0
O288 O 0.7377 0.49327 0.08529 0.0
O289 O 0.78456 0.49267 0.09123 0.0
O290 O 0.77933 0.48799 0.02374 0.0
O291 O 0.82584 0.4947 0.02876 0.0
O292 O 0.78268 0.54604 1.01587 0.0
O293 O 0.73607 0.54032 0.0198 0.0
C294 C 0.75979 0.48369 0.10025 0.0
C295 C 0.75744 0.55147 1.00496 0.0
C296 C 0.1839 0.31502 0.32245 0.0
C297 C 0.21351 0.31233 0.3273 0.0
C298 C 0.16525 0.31811 0.34938 0.0
C299 C 0.17638 0.31861 0.38213 0.0
C300 C 0.20638 0.3175 0.38716 0.0
C301 C 0.22464 0.31436 0.35964 0.0
C302 C 0.13344 0.31932 0.34279 0.0
C303 C 0.21909 0.31821 0.42168 0.0
C304 C 0.12318 0.34167 0.4482 0.0
C305 C 0.11255 0.31501 0.45928 0.0
C306 C 0.14498 0.34326 0.42421 0.0
C307 C 0.15628 0.31761 0.41085 0.0
C308 C 0.14634 0.29067 0.42282 0.0
C309 C 0.12469 0.28971 0.44687 0.0
C310 C 0.15516 0.37238 0.41229 0.0
C311 C 0.15774 0.26277 0.40922 0.0
H312 H 0.17509 0.31377 0.29754 0.0
H313 H 0.24748 0.31231 0.36361 0.0
H314 H 0.12309 0.29968 0.35305 0.0
H315 H 0.12386 0.33806 0.35546 0.0
H316 H 0.12837 0.32085 0.31582 0.0
H317 H 0.24269 0.32084 0.42121 0.0
H318 H 0.20969 0.33602 0.43619 0.0
H319 H 0.21396 0.29784 0.43497 0.0
H320 H 0.1141 0.36135 0.45778 0.0
H321 H 0.11681 0.26899 0.45536 0.0
H322 H 0.14827 0.3759 0.38615 0.0
H323 H 0.17886 0.3734 0.41275 0.0
H324 H 0.14658 0.39012 0.42763 0.0
H325 H 0.15183 0.26094 0.38257 0.0
H326 H 0.14923 0.24368 0.42275 0.0
H327 H 0.18142 0.26242 0.41078 0.0
C328 C 0.75557 0.16906 0.35687 0.0
C329 C 0.75536 0.19925 0.35579 0.0
C330 C 0.75037 0.15383 0.38646 0.0
C331 C 0.74476 0.16903 0.41605 0.0
C332 C 0.74313 0.19951 0.41493 0.0
C333 C 0.74843 0.21432 0.38474 0.0
C334 C 0.75227 0.12138 0.38629 0.0
C335 C 0.73704 0.21651 0.44587 0.0
C336 C 0.71797 0.12048 0.48628 0.0
C337 C 0.74371 0.11309 0.50224 0.0
C338 C 0.71758 0.14021 0.45944 0.0
C339 C 0.74351 0.15278 0.44827 0.0
C340 C 0.76923 0.14662 0.46556 0.0
C341 C 0.76901 0.12693 0.49222 0.0
C342 C 0.68966 0.14639 0.44191 0.0
C343 C 0.7974 0.15947 0.45465 0.0
H344 H 0.76052 0.15715 0.33457 0.0
H345 H 0.74818 0.23762 0.38413 0.0
H346 H 0.7708 0.1143 0.40157 0.0
H347 H 0.7328 0.11176 0.39748 0.0
H348 H 0.75483 0.11272 0.36081 0.0
H349 H 0.73261 0.2395 0.44013 0.0
H350 H 0.7185 0.20724 0.45937 0.0
H351 H 0.75575 0.21535 0.46285 0.0
H352 H 0.69828 0.11009 0.49392 0.0
H353 H 0.789 0.12173 0.50457 0.0
H354 H 0.6895 0.13564 0.41739 0.0
H355 H 0.68722 0.16981 0.43726 0.0
H356 H 0.671 0.13855 0.45642 0.0
H357 H 0.80347 0.15053 0.43018 0.0
H358 H 0.81491 0.15488 0.47266 0.0
H359 H 0.79547 0.18311 0.45152 0.0
C360 C 0.90951 0.80841 0.31812 0.0
C361 C 0.8836 0.82316 0.31406 0.0
C362 C 0.92787 0.81431 0.34497 0.0
C363 C 0.9198 0.83494 0.36892 0.0
C364 C 0.89463 0.85129 0.36372 0.0
C365 C 0.87709 0.84551 0.33606 0.0
C366 C 0.95493 0.79694 0.34895 0.0
C367 C 0.88486 0.87317 0.38876 0.0
C368 C 0.94651 0.81472 0.45521 0.0
C369 C 0.97034 0.8327 0.45889 0.0
C370 C 0.92886 0.81661 0.42699 0.0
C371 C 0.93568 0.83642 0.40121 0.0
C372 C 0.95903 0.85554 0.40545 0.0
C373 C 0.97594 0.85366 0.43449 0.0
C374 C 0.90373 0.79633 0.42404 0.0
C375 C 0.96731 0.87665 0.37844 0.0
H376 H 0.91484 0.79127 0.30112 0.0
H377 H 0.85723 0.85715 0.33316 0.0
H378 H 0.97321 0.81113 0.35529 0.0
H379 H 0.95232 0.78125 0.36968 0.0
H380 H 0.96022 0.78488 0.32605 0.0
H381 H 0.86737 0.88697 0.37883 0.0
H382 H 0.87688 0.86182 0.41129 0.0
H383 H 0.90289 0.8871 0.39661 0.0
H384 H 0.94214 0.7985 0.47408 0.0
H385 H 0.99462 0.86731 0.43706 0.0
H386 H 0.908 0.78038 0.40432 0.0
H387 H 0.88418 0.80834 0.41676 0.0
H388 H 0.89949 0.78453 0.44766 0.0
H389 H 0.97634 0.86476 0.35712 0.0
H390 H 0.9835 0.89241 0.38715 0.0
H391 H 0.94829 0.88852 0.36917 0.0
C392 C 0.313 0.87563 0.3233 0.0
C393 C 0.30733 0.84611 0.3269 0.0
C394 C 0.31608 0.89349 0.35096 0.0
C395 C 0.3136 0.88164 0.38334 0.0
C396 C 0.30973 0.8515 0.38731 0.0
C397 C 0.3066 0.83402 0.35896 0.0
C398 C 0.32024 0.92541 0.34534 0.0
C399 C 0.30739 0.83797 0.42141 0.0
C400 C 0.33647 0.93396 0.45087 0.0
C401 C 0.3103 0.94681 0.45908 0.0
C402 C 0.33776 0.91132 0.42785 0.0
C403 C 0.31235 0.9015 0.41236 0.0
C404 C 0.28578 0.91357 0.42165 0.0
C405 C 0.28508 0.93592 0.44491 0.0
C406 C 0.36647 0.8988 0.41904 0.0
C407 C 0.25815 0.90396 0.40565 0.0
H408 H 0.31396 0.88512 0.29861 0.0
H409 H 0.30215 0.81126 0.36195 0.0
H410 H 0.30113 0.93717 0.35416 0.0
H411 H 0.33886 0.93325 0.35982 0.0
H412 H 0.32364 0.93092 0.31871 0.0
H413 H 0.30895 0.81415 0.42052 0.0
H414 H 0.32438 0.84629 0.43811 0.0
H415 H 0.28651 0.84371 0.43252 0.0
H416 H 0.35607 0.94197 0.46189 0.0
H417 H 0.26471 0.9455 0.45116 0.0
H418 H 0.37251 0.90589 0.3936 0.0
H419 H 0.36543 0.87496 0.41902 0.0
H420 H 0.38353 0.90566 0.43656 0.0
H421 H 0.25814 0.91021 0.37895 0.0
H422 H 0.23912 0.91366 0.41759 0.0
H423 H 0.25614 0.88021 0.40699 0.0
C424 C 0.20298 0.79933 0.69229 0.0
C425 C 0.22954 0.79968 0.67607 0.0
C426 C 0.17727 0.80332 0.67466 0.0
C427 C 0.17792 0.80755 0.63977 0.0
C428 C 0.20462 0.80822 0.62321 0.0
C429 C 0.23005 0.80433 0.64152 0.0
C430 C 0.14933 0.80244 0.69335 0.0
C431 C 0.20628 0.81265 0.58604 0.0
C432 C 0.11184 0.78564 0.59066 0.0
C433 C 0.0986 0.81218 0.58392 0.0
C434 C 0.13758 0.78394 0.60862 0.0
C435 C 0.1506 0.8094 0.62042 0.0
C436 C 0.13733 0.8363 0.61401 0.0
C437 C 0.11151 0.83739 0.5958 0.0
C438 C 0.15094 0.75481 0.6148 0.0
C439 C 0.15048 0.86391 0.62634 0.0
H440 H 0.20217 0.79545 0.71885 0.0
H441 H 0.25036 0.8052 0.62874 0.0
H442 H 0.13672 0.82212 0.68787 0.0
H443 H 0.13642 0.78379 0.68503 0.0
H444 H 0.15253 0.80067 0.72067 0.0
H445 H 0.22869 0.81367 0.57703 0.0
H446 H 0.19516 0.79478 0.57323 0.0
H447 H 0.19524 0.83286 0.57877 0.0
H448 H 0.1022 0.76597 0.58162 0.0
H449 H 0.10155 0.858 0.5907 0.0
H450 H 0.15307 0.75077 0.64192 0.0
H451 H 0.17276 0.75429 0.6041 0.0
H452 H 0.13821 0.73706 0.60379 0.0
H453 H 0.15269 0.86307 0.65382 0.0
H454 H 0.13755 0.88308 0.61939 0.0
H455 H 0.17228 0.86657 0.61598 0.0
C456 C 0.34249 0.21569 0.62742 0.0
C457 C 0.33883 0.21475 0.66202 0.0
C458 C 0.34218 0.19036 0.60853 0.0
C459 C 0.33829 0.16341 0.62465 0.0
C460 C 0.336 0.16226 0.65974 0.0
C461 C 0.33622 0.1879 0.67794 0.0
C462 C 0.34455 0.19258 0.57117 0.0
C463 C 0.33207 0.13402 0.67799 0.0
C464 C 0.30101 0.10357 0.57755 0.0
C465 C 0.32384 0.08563 0.56872 0.0
C466 C 0.30557 0.129 0.59531 0.0
C467 C 0.33367 0.13682 0.60477 0.0
C468 C 0.3569 0.11894 0.59589 0.0
C469 C 0.35173 0.09358 0.57788 0.0
C470 C 0.28017 0.14745 0.60412 0.0
C471 C 0.38715 0.12651 0.60566 0.0
H472 H 0.34432 0.23633 0.61491 0.0
H473 H 0.33391 0.18698 0.70472 0.0
H474 H 0.3608 0.17729 0.5619 0.0
H475 H 0.32379 0.18666 0.55965 0.0
H476 H 0.35036 0.21463 0.56273 0.0
H477 H 0.33336 0.1365 0.70541 0.0
H478 H 0.31087 0.12477 0.67167 0.0
H479 H 0.34851 0.11833 0.67015 0.0
H480 H 0.27938 0.0978 0.5705 0.0
H481 H 0.3695 0.07991 0.57116 0.0
H482 H 0.28314 0.16956 0.59412 0.0
H483 H 0.27837 0.1491 0.63153 0.0
H484 H 0.25976 0.13871 0.59421 0.0
H485 H 0.3928 0.14812 0.59576 0.0
H486 H 0.40291 0.11068 0.59636 0.0
H487 H 0.38895 0.12748 0.63315 0.0
C488 C 0.855 0.35451 0.64223 0.0
C489 C 0.85644 0.34972 0.67667 0.0
C490 C 0.87938 0.35173 0.62222 0.0
C491 C 0.90589 0.34428 0.63709 0.0
C492 C 0.90765 0.34043 0.67199 0.0
C493 C 0.88289 0.34305 0.69131 0.0
C494 C 0.87657 0.35572 0.58505 0.0
C495 C 0.93556 0.33281 0.68886 0.0
C496 C 0.96114 0.30517 0.58551 0.0
C497 C 0.98019 0.32738 0.57704 0.0
C498 C 0.93676 0.3105 0.60468 0.0
C499 C 0.93136 0.3387 0.61601 0.0
C500 C 0.95048 0.36125 0.60762 0.0
C501 C 0.97461 0.35536 0.58807 0.0
C502 C 0.91678 0.28589 0.61283 0.0
C503 C 0.94556 0.39154 0.61953 0.0
H504 H 0.83457 0.35941 0.63078 0.0
H505 H 0.88417 0.33979 0.71798 0.0
H506 H 0.8925 0.3716 0.57594 0.0
H507 H 0.88104 0.33507 0.57248 0.0
H508 H 0.85488 0.3631 0.57759 0.0
H509 H 0.93374 0.33249 0.7164 0.0
H510 H 0.94271 0.31128 0.68064 0.0
H511 H 0.95242 0.34845 0.68164 0.0
H512 H 0.96515 0.28351 0.57694 0.0
H513 H 0.98923 0.37263 0.58169 0.0
H514 H 0.89486 0.29098 0.60396 0.0
H515 H 0.91564 0.28273 0.64017 0.0
H516 H 0.92366 0.26537 0.60142 0.0
H517 H 0.92446 0.39941 0.61069 0.0
H518 H 0.96235 0.40669 0.61073 0.0
H519 H 0.94517 0.39181 0.64711 0.0
C520 C 0.73033 0.83933 0.64479 0.0
C521 C 0.73119 0.83246 0.67881 0.0
C522 C 0.72883 0.86811 0.63379 0.0
C523 C 0.7278 0.89058 0.65737 0.0
C524 C 0.72726 0.88365 0.69173 0.0
C525 C 0.72914 0.85473 0.70201 0.0
C526 C 0.7298 0.87451 0.59694 0.0
C527 C 0.7258 0.90684 0.7177 0.0
C528 C 0.76028 0.96211 0.63089 0.0
C529 C 0.73616 0.97825 0.62144 0.0
C530 C 0.75772 0.93384 0.64299 0.0
C531 C 0.7303 0.92123 0.6462 0.0
C532 C 0.70573 0.93768 0.63796 0.0
C533 C 0.70894 0.96596 0.62552 0.0
C534 C 0.78453 0.91715 0.65135 0.0
C535 C 0.67612 0.92514 0.64146 0.0
H536 H 0.73211 0.82226 0.62676 0.0
H537 H 0.72932 0.84952 0.72831 0.0
H538 H 0.7121 0.88915 0.5897 0.0
H539 H 0.75014 0.88564 0.59079 0.0
H540 H 0.72829 0.85469 0.58179 0.0
H541 H 0.72245 0.89785 0.74308 0.0
H542 H 0.74601 0.91935 0.71766 0.0
H543 H 0.7082 0.92206 0.71186 0.0
H544 H 0.78145 0.97126 0.62791 0.0
H545 H 0.69017 0.97816 0.61825 0.0
H546 H 0.78603 0.89799 0.63519 0.0
H547 H 0.78374 0.9093 0.67746 0.0
H548 H 0.80423 0.93024 0.64807 0.0
H549 H 0.67343 0.90703 0.62394 0.0
H550 H 0.65916 0.9413 0.63632 0.0
H551 H 0.67309 0.91633 0.66695 0.0
C552 C 0.87131 0.75093 0.70818 0.0
C553 C 0.84618 0.74285 0.69152 0.0
C554 C 0.89705 0.75536 0.6906 0.0
C555 C 0.89747 0.75224 0.65552 0.0
C556 C 0.87211 0.74416 0.63872 0.0
C557 C 0.84699 0.73932 0.65688 0.0
C558 C 0.92375 0.76344 0.70949 0.0
C559 C 0.87131 0.74112 0.60134 0.0
C560 C 0.95224 0.79105 0.60149 0.0
C561 C 0.96987 0.76837 0.59131 0.0
C562 C 0.92926 0.78629 0.62331 0.0
C563 C 0.92397 0.75822 0.63586 0.0
C564 C 0.94244 0.73546 0.62683 0.0
C565 C 0.96496 0.74073 0.60441 0.0
C566 C 0.90982 0.81108 0.63165 0.0
C567 C 0.93789 0.70533 0.64007 0.0
H568 H 0.8709 0.75361 0.73492 0.0
H569 H 0.82769 0.73331 0.64365 0.0
H570 H 0.94116 0.74806 0.70388 0.0
H571 H 0.93115 0.78508 0.70144 0.0
H572 H 0.92028 0.76365 0.73681 0.0
H573 H 0.84983 0.73482 0.59202 0.0
H574 H 0.87747 0.76179 0.58932 0.0
H575 H 0.88698 0.72471 0.59338 0.0
H576 H 0.95576 0.81248 0.59147 0.0
H577 H 0.9786 0.72312 0.59694 0.0
H578 H 0.90743 0.8129 0.65898 0.0
H579 H 0.88822 0.80712 0.62113 0.0
H580 H 0.91787 0.83191 0.62166 0.0
H581 H 0.93537 0.70561 0.66749 0.0
H582 H 0.95586 0.6908 0.63376 0.0
H583 H 0.91791 0.6963 0.62945 0.0
C584 C 0.25768 0.88373 0.72939 0.0
C585 C 0.27802 0.89331 0.75261 0.0
C586 C 0.25155 0.89977 0.70043 0.0
C587 C 0.26548 0.92648 0.69505 0.0
C588 C 0.28363 0.93763 0.72015 0.0
C589 C 0.28992 0.92079 0.74842 0.0
C590 C 0.23232 0.88671 0.67433 0.0
C591 C 0.29826 0.96639 0.71594 0.0
C592 C 0.28727 0.94983 0.60806 0.0
C593 C 0.26691 0.97095 0.6003 0.0
C594 C 0.28618 0.93441 0.63817 0.0
C595 C 0.26461 0.94072 0.66164 0.0
C596 C 0.24356 0.96159 0.65367 0.0
C597 C 0.24477 0.97626 0.62288 0.0
C598 C 0.30862 0.91179 0.64519 0.0
C599 C 0.22043 0.96915 0.67813 0.0
H600 H 0.24811 0.86268 0.73243 0.0
H601 H 0.3054 0.92853 0.76638 0.0
H602 H 0.21838 0.90321 0.66259 0.0
H603 H 0.24569 0.8773 0.65447 0.0
H604 H 0.21865 0.86932 0.68485 0.0
H605 H 0.30795 0.97397 0.73957 0.0
H606 H 0.31546 0.96457 0.69714 0.0
H607 H 0.28291 0.98285 0.7068 0.0
H608 H 0.30425 0.94541 0.59055 0.0
H609 H 0.22905 0.99267 0.61705 0.0
H610 H 0.29829 0.89117 0.65241 0.0
H611 H 0.32225 0.9186 0.66635 0.0
H612 H 0.32258 0.90795 0.62339 0.0
H613 H 0.20903 0.94946 0.68651 0.0
H614 H 0.20461 0.98445 0.6674 0.0
H615 H 0.23022 0.979 0.70048 0.0
C616 C 0.19818 0.26561 0.71553 0.0
C617 C 0.22286 0.27034 0.69659 0.0
C618 C 0.17144 0.26183 0.69986 0.0
C619 C 0.16965 0.26276 0.66464 0.0
C620 C 0.19491 0.26551 0.64563 0.0
C621 C 0.2211 0.26928 0.66183 0.0
C622 C 0.14502 0.25854 0.72094 0.0
C623 C 0.19415 0.26635 0.60803 0.0
C624 C 0.10694 0.24236 0.60977 0.0
C625 C 0.09694 0.26964 0.60008 0.0
C626 C 0.12913 0.23946 0.63325 0.0
C627 C 0.1416 0.26441 0.64715 0.0
C628 C 0.13004 0.29178 0.63937 0.0
C629 C 0.10788 0.29405 0.61597 0.0
C630 C 0.14056 0.20987 0.6413 0.0
C631 C 0.14259 0.31897 0.6537 0.0
H632 H 0.19951 0.2663 0.74243 0.0
H633 H 0.24023 0.27236 0.64706 0.0
H634 H 0.13311 0.27915 0.72099 0.0
H635 H 0.13057 0.24189 0.7106 0.0
H636 H 0.15039 0.2527 0.74708 0.0
H637 H 0.2159 0.26635 0.59702 0.0
H638 H 0.18219 0.24759 0.59831 0.0
H639 H 0.18287 0.28605 0.59942 0.0
H640 H 0.09838 0.22333 0.59793 0.0
H641 H 0.09998 0.3152 0.6091 0.0
H642 H 0.14528 0.20766 0.66826 0.0
H643 H 0.16086 0.2065 0.6277 0.0
H644 H 0.12529 0.19271 0.63397 0.0
H645 H 0.14539 0.31676 0.681 0.0
H646 H 0.12901 0.33807 0.64847 0.0
H647 H 0.16402 0.32286 0.64278 0.0
C648 C 0.77934 0.23493 0.68736 0.0
C649 C 0.78463 0.24048 0.72107 0.0
C650 C 0.78235 0.2073 0.67433 0.0
C651 C 0.79074 0.18433 0.69551 0.0
C652 C 0.79675 0.18976 0.72947 0.0
C653 C 0.7937 0.21786 0.74188 0.0
C654 C 0.77592 0.20261 0.6379 0.0
C655 C 0.80571 0.1658 0.75278 0.0
C656 C 0.76484 0.11373 0.66047 0.0
C657 C 0.7887 0.1048 0.64224 0.0
C658 C 0.76597 0.13834 0.68036 0.0
C659 C 0.79153 0.15463 0.68187 0.0
C660 C 0.81632 0.14451 0.66556 0.0
C661 C 0.81464 0.11962 0.64601 0.0
C662 C 0.73911 0.14812 0.69761 0.0
C663 C 0.84401 0.1612 0.66655 0.0
H664 H 0.77263 0.25227 0.67094 0.0
H665 H 0.7979 0.22199 0.76793 0.0
H666 H 0.79445 0.19238 0.62561 0.0
H667 H 0.75742 0.18782 0.63529 0.0
H668 H 0.77088 0.22299 0.62451 0.0
H669 H 0.81172 0.17386 0.77777 0.0
H670 H 0.7879 0.1502 0.75564 0.0
H671 H 0.8241 0.15392 0.7423 0.0
H672 H 0.7448 0.10217 0.6581 0.0
H673 H 0.83322 0.11281 0.63211 0.0
H674 H 0.73028 0.16718 0.68434 0.0
H675 H 0.74388 0.15465 0.72351 0.0
H676 H 0.72244 0.13108 0.69814 0.0
H677 H 0.84205 0.18061 0.65046 0.0
H678 H 0.86231 0.14823 0.65758 0.0
H679 H 0.84873 0.16858 0.69215 0.0
C680 C 0.91021 0.25515 0.31657 0.0
C681 C 0.88191 0.24984 0.32649 0.0
C682 C 0.93241 0.25729 0.34003 0.0
C683 C 0.92618 0.25437 0.37431 0.0
C684 C 0.89782 0.24856 0.38451 0.0
C685 C 0.8761 0.24618 0.36051 0.0
C686 C 0.96245 0.26328 0.32817 0.0
C687 C 0.89027 0.24541 0.42086 0.0
C688 C 0.98566 0.23938 0.43689 0.0
C689 C 0.99102 0.26695 0.44937 0.0
C690 C 0.96498 0.23498 0.412 0.0
C691 C 0.94905 0.25868 0.39964 0.0
C692 C 0.95449 0.28657 0.41201 0.0
C693 C 0.97551 0.29038 0.43654 0.0
C694 C 0.96001 0.20499 0.39909 0.0
C695 C 0.93776 0.31234 0.39974 0.0
H696 H 0.91501 0.25829 0.29049 0.0
H697 H 0.85454 0.24146 0.36853 0.0
H698 H 0.96959 0.28461 0.33718 0.0
H699 H 0.97741 0.24701 0.33859 0.0
H700 H 0.96408 0.26312 0.30062 0.0
H701 H 0.86731 0.24022 0.42465 0.0
H702 H 0.90335 0.2282 0.43258 0.0
H703 H 0.89523 0.2657 0.43404 0.0
H704 H 0.99764 0.22118 0.44656 0.0
H705 H 0.97939 0.31176 0.44613 0.0
H706 H 0.96268 0.20473 0.37169 0.0
H707 H 0.93775 0.19814 0.40444 0.0
H708 H 0.97489 0.18905 0.41041 0.0
H709 H 0.9401 0.31474 0.37242 0.0
H710 H 0.94482 0.33263 0.41165 0.0
H711 H 0.91468 0.30915 0.40491 0.0
C712 C 0.77939 0.86783 0.42467 0.0
C713 C 0.78427 0.87129 0.39046 0.0
C714 C 0.78239 0.89106 0.44653 0.0
C715 C 0.79056 0.91839 0.43389 0.0
C716 C 0.79627 0.92186 0.3996 0.0
C717 C 0.79288 0.89838 0.37833 0.0
C718 C 0.77607 0.88657 0.483 0.0
C719 C 0.80499 0.95065 0.38514 0.0
C720 C 0.76447 0.98343 0.48081 0.0
C721 C 0.78881 0.99146 0.49905 0.0
C722 C 0.76495 0.95991 0.45937 0.0
C723 C 0.79044 0.94393 0.45588 0.0
C724 C 0.8154 0.95236 0.47336 0.0
C725 C 0.81431 0.9761 0.4948 0.0
C726 C 0.73792 0.95179 0.44098 0.0
C727 C 0.84301 0.93589 0.46997 0.0
H728 H 0.77322 0.84696 0.43441 0.0
H729 H 0.79633 0.90159 0.35198 0.0
H730 H 0.79429 0.89418 0.49833 0.0
H731 H 0.7571 0.89944 0.49002 0.0
H732 H 0.77181 0.86364 0.48925 0.0
H733 H 0.81122 0.94915 0.35857 0.0
H734 H 0.78697 0.96601 0.38711 0.0
H735 H 0.82321 0.95972 0.39936 0.0
H736 H 0.7447 0.99526 0.48373 0.0
H737 H 0.83315 0.98209 0.50891 0.0
H738 H 0.7312 0.92975 0.44834 0.0
H739 H 0.74187 0.95166 0.4138 0.0
H740 H 0.72001 0.96678 0.44602 0.0
H741 H 0.84008 0.9136 0.47943 0.0
H742 H 0.86087 0.94605 0.48389 0.0
H743 H 0.84908 0.93438 0.4434 0.0
C744 C 0.15074 0.78877 0.30281 0.0
C745 C 0.17967 0.79276 0.31093 0.0
C746 C 0.13015 0.78413 0.32772 0.0
C747 C 0.13867 0.78353 0.36156 0.0
C748 C 0.16788 0.7871 0.36986 0.0
C749 C 0.18794 0.79174 0.34452 0.0
C750 C 0.09919 0.78046 0.31788 0.0
C751 C 0.17789 0.78689 0.40562 0.0
C752 C 0.08686 0.80629 0.42853 0.0
C753 C 0.07925 0.77993 0.4434 0.0
C754 C 0.10546 0.80758 0.40135 0.0
C755 C 0.11695 0.78186 0.38855 0.0
C756 C 0.1089 0.75505 0.40282 0.0
C757 C 0.09005 0.75438 0.4301 0.0
C758 C 0.11335 0.83662 0.38687 0.0
C759 C 0.12075 0.72719 0.38981 0.0
H760 H 0.1442 0.78913 0.27695 0.0
H761 H 0.21011 0.79524 0.35117 0.0
H762 H 0.09036 0.76051 0.32921 0.0
H763 H 0.08647 0.79871 0.32746 0.0
H764 H 0.09629 0.77949 0.29048 0.0
H765 H 0.20155 0.78795 0.40779 0.0
H766 H 0.16867 0.80555 0.41882 0.0
H767 H 0.1703 0.76714 0.41854 0.0
H768 H 0.07844 0.8262 0.43831 0.0
H769 H 0.08422 0.73394 0.44135 0.0
H770 H 0.10896 0.83712 0.35975 0.0
H771 H 0.13658 0.84053 0.3903 0.0
H772 H 0.10144 0.85448 0.39865 0.0
H773 H 0.11707 0.72575 0.36261 0.0
H774 H 0.11099 0.7081 0.40212 0.0
H775 H 0.14421 0.72655 0.39396 0.0
C776 C 0.27247 0.18554 0.34904 0.0
C777 C 0.26169 0.18101 0.3168 0.0
C778 C 0.27181 0.16371 0.37342 0.0
C779 C 0.26048 0.13636 0.36547 0.0
C780 C 0.24928 0.13161 0.33324 0.0
C781 C 0.24984 0.15397 0.30944 0.0
C782 C 0.28377 0.16979 0.40759 0.0
C783 C 0.23719 0.10269 0.32368 0.0
C784 C 0.2881 0.07408 0.41838 0.0
C785 C 0.26571 0.06982 0.44104 0.0
C786 C 0.28625 0.09501 0.39307 0.0
C787 C 0.26155 0.11248 0.39053 0.0
C788 C 0.23858 0.10788 0.41285 0.0
C789 C 0.24084 0.08647 0.4377 0.0
C790 C 0.31107 0.09888 0.36951 0.0
C791 C 0.21202 0.12624 0.41122 0.0
H792 H 0.282 0.20598 0.3553 0.0
H793 H 0.24098 0.15008 0.28501 0.0
H794 H 0.26768 0.16444 0.4269 0.0
H795 H 0.30272 0.15602 0.41236 0.0
H796 H 0.29022 0.19264 0.41047 0.0
H797 H 0.22863 0.10263 0.29788 0.0
H798 H 0.25407 0.08603 0.32581 0.0
H799 H 0.21979 0.09642 0.34097 0.0
H800 H 0.30732 0.06121 0.42062 0.0
H801 H 0.22351 0.08344 0.4552 0.0
H802 H 0.32072 0.12046 0.37292 0.0
H803 H 0.30351 0.09768 0.34338 0.0
H804 H 0.32794 0.0824 0.37348 0.0
H805 H 0.21766 0.14892 0.41663 0.0
H806 H 0.19548 0.11902 0.42922 0.0
H807 H 0.20272 0.12584 0.38582 0.0
C808 C 0.69745 0.78614 0.83079 0.0
C809 C 0.72507 0.77458 0.8308 0.0
C810 C 0.68174 0.78826 0.86017 0.0
C811 C 0.6939 0.77842 0.89048 0.0
C812 C 0.72229 0.76776 0.89095 0.0
C813 C 0.73769 0.76609 0.86098 0.0
C814 C 0.65164 0.79997 0.85848 0.0
C815 C 0.73599 0.75735 0.92287 0.0
C816 C 0.65296 0.80764 0.96348 0.0
C817 C 0.63299 0.78559 0.96932 0.0
C818 C 0.67461 0.80462 0.93978 0.0
C819 C 0.67619 0.77904 0.92114 0.0
C820 C 0.65739 0.7559 0.92856 0.0
C821 C 0.63603 0.75941 0.95273 0.0
C822 C 0.69442 0.82966 0.93304 0.0
C823 C 0.6585 0.7282 0.9093 0.0
H824 H 0.68769 0.79266 0.80741 0.0
H825 H 0.7589 0.75672 0.86089 0.0
H826 H 0.63624 0.78312 0.86648 0.0
H827 H 0.64933 0.81834 0.87568 0.0
H828 H 0.64566 0.80733 0.83303 0.0
H829 H 0.75763 0.74825 0.91876 0.0
H830 H 0.7378 0.77544 0.94055 0.0
H831 H 0.72241 0.74067 0.93484 0.0
H832 H 0.65112 0.82776 0.97672 0.0
H833 H 0.62082 0.74223 0.95732 0.0
H834 H 0.68818 0.84029 0.9093 0.0
H835 H 0.71679 0.82218 0.93037 0.0
H836 H 0.69361 0.8459 0.95311 0.0
H837 H 0.65042 0.73209 0.88367 0.0
H838 H 0.64531 0.71102 0.92101 0.0
H839 H 0.68084 0.72045 0.90725 0.0
C840 C 0.29904 0.74132 0.86588 0.0
C841 C 0.30398 0.73565 0.83218 0.0
C842 C 0.3003 0.71911 0.88996 0.0
C843 C 0.30618 0.69053 0.88002 0.0
C844 C 0.31079 0.68472 0.84596 0.0
C845 C 0.30984 0.70731 0.82259 0.0
C846 C 0.29553 0.72625 0.92605 0.0
C847 C 0.31656 0.65454 0.83411 0.0
C848 C 0.33246 0.63295 0.94122 0.0
C849 C 0.30715 0.6178 0.94804 0.0
C850 C 0.33237 0.65723 0.91995 0.0
C851 C 0.30644 0.66636 0.90481 0.0
C852 C 0.28085 0.65127 0.91185 0.0
C853 C 0.2815 0.62738 0.9334 0.0
C854 C 0.36006 0.67291 0.91332 0.0
C855 C 0.2528 0.65994 0.89596 0.0
H856 H 0.29479 0.76319 0.87353 0.0
H857 H 0.31359 0.70268 0.7966 0.0
H858 H 0.27672 0.71427 0.93564 0.0
H859 H 0.31429 0.71938 0.94109 0.0
H860 H 0.29198 0.7496 0.92987 0.0
H861 H 0.31974 0.65362 0.80677 0.0
H862 H 0.33592 0.64582 0.84658 0.0
H863 H 0.29842 0.64026 0.84084 0.0
H864 H 0.35233 0.62588 0.95253 0.0
H865 H 0.26177 0.61588 0.93837 0.0
H866 H 0.35757 0.69614 0.91864 0.0
H867 H 0.36575 0.67105 0.88667 0.0
H868 H 0.37801 0.66429 0.92856 0.0
H869 H 0.24809 0.68281 0.90129 0.0
H870 H 0.23463 0.64657 0.90488 0.0
H871 H 0.25428 0.65787 0.86855 0.0
C872 C 0.34282 0.26254 0.85711 0.0
C873 C 0.35555 0.27 0.82673 0.0
C874 C 0.35965 0.25824 0.88586 0.0
C875 C 0.38977 0.2613 0.88388 0.0
C876 C 0.40266 0.2675 0.85287 0.0
C877 C 0.38542 0.27183 0.8248 0.0
C878 C 0.34518 0.25162 0.91851 0.0
C879 C 0.43469 0.2707 0.84951 0.0
C880 C 0.43676 0.2857 0.95505 0.0
C881 C 0.45146 0.26033 0.96326 0.0
C882 C 0.41513 0.28588 0.93081 0.0
C883 C 0.40807 0.26007 0.91421 0.0
C884 C 0.42167 0.23407 0.9237 0.0
C885 C 0.44321 0.2345 0.94815 0.0
C886 C 0.40104 0.31406 0.92157 0.0
C887 C 0.41471 0.20611 0.90666 0.0
H888 H 0.31973 0.26114 0.85871 0.0
H889 H 0.39544 0.27723 0.80128 0.0
H890 H 0.35564 0.23307 0.93109 0.0
H891 H 0.34732 0.27035 0.93524 0.0
H892 H 0.32209 0.24675 0.91526 0.0
H893 H 0.44142 0.27387 0.82326 0.0
H894 H 0.44213 0.28943 0.86412 0.0
H895 H 0.44565 0.25137 0.85965 0.0
H896 H 0.4427 0.30571 0.96688 0.0
H897 H 0.45428 0.21473 0.95451 0.0
H898 H 0.37747 0.31152 0.92062 0.0
H899 H 0.40817 0.32091 0.89643 0.0
H900 H 0.40639 0.3314 0.93938 0.0
H901 H 0.39123 0.20313 0.90465 0.0
H902 H 0.42398 0.18729 0.92002 0.0
H903 H 0.42338 0.20662 0.88101 0.0
C904 C 0.81468 0.35821 0.87566 0.0
C905 C 0.80983 0.37375 0.84612 0.0
C906 C 0.81895 0.37257 0.90599 0.0
C907 C 0.81811 0.40304 0.90663 0.0
C908 C 0.81521 0.4187 0.87648 0.0
C909 C 0.81124 0.40388 0.84668 0.0
C910 C 0.82257 0.35513 0.93752 0.0
C911 C 0.81415 0.45119 0.87591 0.0
C912 C 0.78564 0.44352 0.97815 0.0
C913 C 0.80945 0.45782 0.99149 0.0
C914 C 0.78849 0.42421 0.95187 0.0
C915 C 0.81592 0.41873 0.93864 0.0
C916 C 0.84032 0.4315 0.95343 0.0
C917 C 0.83679 0.45108 0.97963 0.0
C918 C 0.76184 0.41117 0.93684 0.0
C919 C 0.86996 0.4257 0.94048 0.0
H920 H 0.81383 0.33492 0.8754 0.0
H921 H 0.808 0.41609 0.82389 0.0
H922 H 0.83923 0.36472 0.95372 0.0
H923 H 0.80221 0.3551 0.95158 0.0
H924 H 0.82842 0.33247 0.93227 0.0
H925 H 0.81436 0.46013 0.8502 0.0
H926 H 0.79435 0.45854 0.88836 0.0
H927 H 0.83254 0.46027 0.88978 0.0
H928 H 0.76442 0.44822 0.98737 0.0
H929 H 0.85535 0.46178 0.99 0.0
H930 H 0.76417 0.38753 0.93472 0.0
H931 H 0.75857 0.41996 0.91136 0.0
H932 H 0.74242 0.41573 0.95171 0.0
H933 H 0.87284 0.40244 0.93555 0.0
H934 H 0.88677 0.43283 0.95818 0.0
H935 H 0.87304 0.4374 0.9166 0.0
C936 C 0.67744 0.22224 0.19738 0.0
C937 C 0.70437 0.21596 0.18416 0.0
C938 C 0.65338 0.22498 0.17675 0.0
C939 C 0.65642 0.22166 0.14199 0.0
C940 C 0.68335 0.21421 0.12861 0.0
C941 C 0.70702 0.21129 0.14993 0.0
C942 C 0.62495 0.23256 0.19202 0.0
C943 C 0.68746 0.21074 0.09164 0.0
C944 C 0.58902 0.21362 0.08976 0.0
C945 C 0.58433 0.24209 0.07925 0.0
C946 C 0.61256 0.20651 0.10998 0.0
C947 C 0.63197 0.22834 0.11956 0.0
C948 C 0.6276 0.257 0.10854 0.0
C949 C 0.60378 0.26354 0.08868 0.0
C950 C 0.61644 0.17578 0.12154 0.0
C951 C 0.64797 0.28085 0.11798 0.0
H952 H 0.67533 0.22543 0.22391 0.0
H953 H 0.72787 0.20668 0.13965 0.0
H954 H 0.6186 0.25454 0.18398 0.0
H955 H 0.6081 0.21756 0.18333 0.0
H956 H 0.62566 0.23187 0.21963 0.0
H957 H 0.7091 0.20255 0.08551 0.0
H958 H 0.67125 0.19576 0.08141 0.0
H959 H 0.68443 0.23182 0.07897 0.0
H960 H 0.57405 0.19695 0.0826 0.0
H961 H 0.60044 0.28555 0.08046 0.0
H962 H 0.61546 0.17466 0.14908 0.0
H963 H 0.6378 0.1678 0.11412 0.0
H964 H 0.59986 0.16121 0.11119 0.0
H965 H 0.64815 0.28347 0.14538 0.0
H966 H 0.64211 0.30178 0.1063 0.0
H967 H 0.67005 0.27528 0.11039 0.0
C968 C 0.79726 0.70752 0.19839 0.0
C969 C 0.80526 0.70268 0.2317 0.0
C970 C 0.79753 0.68518 0.17506 0.0
C971 C 0.80563 0.65712 0.18524 0.0
C972 C 0.81401 0.65207 0.21863 0.0
C973 C 0.81394 0.67488 0.24131 0.0
C974 C 0.78867 0.69151 0.1396 0.0
C975 C 0.82258 0.62242 0.23058 0.0
C976 C 0.77715 0.59403 0.13546 0.0
C977 C 0.80113 0.58605 0.11681 0.0
C978 C 0.7784 0.61701 0.15783 0.0
C979 C 0.80414 0.63275 0.16139 0.0
C980 C 0.82839 0.62498 0.14247 0.0
C981 C 0.82667 0.60159 0.12059 0.0
C982 C 0.75216 0.62432 0.17784 0.0
C983 C 0.85611 0.64147 0.14525 0.0
H984 H 0.79021 0.72866 0.19051 0.0
H985 H 0.82072 0.67078 0.26664 0.0
H986 H 0.80548 0.68421 0.12221 0.0
H987 H 0.76887 0.67945 0.13356 0.0
H988 H 0.78471 0.71478 0.13513 0.0
H989 H 0.82901 0.62213 0.2572 0.0
H990 H 0.80447 0.60725 0.22724 0.0
H991 H 0.84064 0.6143 0.21555 0.0
H992 H 0.75736 0.58209 0.13286 0.0
H993 H 0.84524 0.59568 0.10615 0.0
H994 H 0.74554 0.6468 0.17255 0.0
H995 H 0.75713 0.62279 0.2048 0.0
H996 H 0.73387 0.60984 0.17235 0.0
H997 H 0.85244 0.6645 0.13916 0.0
H998 H 0.87285 0.63304 0.12843 0.0
H999 H 0.86422 0.64039 0.17119 0.0
C1000 C 0.38822 0.80392 0.18517 0.0
C1001 C 0.3638 0.81177 0.16684 0.0
C1002 C 0.41494 0.80089 0.16977 0.0
C1003 C 0.41739 0.80572 0.13509 0.0
C1004 C 0.3928 0.81342 0.11636 0.0
C1005 C 0.36635 0.81646 0.13247 0.0
C1006 C 0.44066 0.79298 0.19071 0.0
C1007 C 0.39446 0.81858 0.0793 0.0
C1008 C 0.48929 0.82753 0.09899 0.0
C1009 C 0.49896 0.80173 0.08508 0.0
C1010 C 0.46309 0.82894 0.11578 0.0
C1011 C 0.44589 0.80399 0.11863 0.0
C1012 C 0.45573 0.77769 0.10529 0.0
C1013 C 0.48222 0.77684 0.08879 0.0
C1014 C 0.45359 0.85734 0.12995 0.0
C1015 C 0.43797 0.75064 0.10776 0.0
H1016 H 0.38653 0.80062 0.21178 0.0
H1017 H 0.34755 0.82214 0.11807 0.0
H1018 H 0.45093 0.77336 0.18083 0.0
H1019 H 0.45673 0.81053 0.18952 0.0
H1020 H 0.43501 0.78906 0.21718 0.0
H1021 H 0.37323 0.82345 0.06814 0.0
H1022 H 0.40907 0.83686 0.07397 0.0
H1023 H 0.40343 0.79939 0.06692 0.0
H1024 H 0.50209 0.84687 0.09642 0.0
H1025 H 0.48943 0.75685 0.07799 0.0
H1026 H 0.44892 0.85486 0.15685 0.0
H1027 H 0.43355 0.86443 0.11755 0.0
H1028 H 0.46994 0.87449 0.12674 0.0
H1029 H 0.43284 0.74583 0.13414 0.0
H1030 H 0.44899 0.73174 0.09702 0.0
H1031 H 0.41738 0.75381 0.09445 0.0
C1032 C 0.30882 0.36691 0.16341 0.0
C1033 C 0.28148 0.35512 0.15817 0.0
C1034 C 0.31887 0.39015 0.14416 0.0
C1035 C 0.30115 0.40208 0.11902 0.0
C1036 C 0.27411 0.38945 0.11253 0.0
C1037 C 0.26461 0.36619 0.13217 0.0
C1038 C 0.34794 0.40267 0.15175 0.0
C1039 C 0.25467 0.40125 0.08566 0.0
C1040 C 0.30319 0.48124 0.09592 0.0
C1041 C 0.31663 0.48087 0.06489 0.0
C1042 C 0.29977 0.45596 0.11475 0.0
C1043 C 0.30934 0.42945 0.10179 0.0
C1044 C 0.3243 0.42918 0.07116 0.0
C1045 C 0.32793 0.45505 0.05308 0.0
C1046 C 0.2843 0.45742 0.14759 0.0
C1047 C 0.33467 0.4014 0.05635 0.0
H1048 H 0.32241 0.35818 0.18283 0.0
H1049 H 0.24351 0.35734 0.12788 0.0
H1050 H 0.36019 0.40636 0.12853 0.0
H1051 H 0.34529 0.42384 0.16389 0.0
H1052 H 0.36067 0.3885 0.16853 0.0
H1053 H 0.23562 0.3874 0.08159 0.0
H1054 H 0.24725 0.42303 0.09262 0.0
H1055 H 0.26645 0.4034 0.06186 0.0
H1056 H 0.29424 0.50124 0.10484 0.0
H1057 H 0.33781 0.45472 0.02873 0.0
H1058 H 0.29658 0.44586 0.16721 0.0
H1059 H 0.26318 0.44668 0.14539 0.0
H1060 H 0.28082 0.47992 0.15569 0.0
H1061 H 0.34568 0.38799 0.0754 0.0
H1062 H 0.34946 0.40519 0.0352 0.0
H1063 H 0.31605 0.3889 0.04721 0.0
C1064 C 0.35263 0.30128 0.18658 0.0
C1065 C 0.35573 0.29213 0.21966 0.0
C1066 C 0.37643 0.30756 0.16686 0.0
C1067 C 0.40417 0.30402 0.18041 0.0
C1068 C 0.40739 0.29717 0.21471 0.0
C1069 C 0.38296 0.29129 0.2341 0.0
C1070 C 0.37177 0.31538 0.1307 0.0
C1071 C 0.4366 0.29391 0.23024 0.0
C1072 C 0.45563 0.27438 0.11699 0.0
C1073 C 0.46948 0.29927 0.10538 0.0
C1074 C 0.4354 0.27558 0.14253 0.0
C1075 C 0.42892 0.30233 0.15728 0.0
C1076 C 0.44382 0.32738 0.14691 0.0
C1077 C 0.46382 0.32561 0.12089 0.0
C1078 C 0.41987 0.24832 0.15251 0.0
C1079 C 0.43785 0.35623 0.16231 0.0
H1080 H 0.33145 0.30217 0.17554 0.0
H1081 H 0.38529 0.28425 0.25974 0.0
H1082 H 0.38518 0.33409 0.12351 0.0
H1083 H 0.37816 0.29703 0.11491 0.0
H1084 H 0.34907 0.32066 0.12521 0.0
H1085 H 0.4356 0.29417 0.25784 0.0
H1086 H 0.44605 0.27314 0.22253 0.0
H1087 H 0.45111 0.31132 0.22161 0.0
H1088 H 0.45992 0.25388 0.1054 0.0
H1089 H 0.47458 0.34494 0.11231 0.0
H1090 H 0.39689 0.25025 0.14593 0.0
H1091 H 0.42127 0.24494 0.1798 0.0
H1092 H 0.42862 0.22902 0.14006 0.0
H1093 H 0.41737 0.36481 0.15244 0.0
H1094 H 0.45498 0.37209 0.15666 0.0
H1095 H 0.43566 0.35416 0.1897 0.0
C1096 C 0.77213 0.3327 0.18358 0.0
C1097 C 0.76757 0.32918 0.21789 0.0
C1098 C 0.76791 0.35925 0.16755 0.0
C1099 C 0.7589 0.38327 0.18614 0.0
C1100 C 0.75348 0.37984 0.22066 0.0
C1101 C 0.75783 0.35279 0.23617 0.0
C1102 C 0.77389 0.36172 0.13071 0.0
C1103 C 0.74378 0.40489 0.24132 0.0
C1104 C 0.78205 0.45324 0.14499 0.0
C1105 C 0.75773 0.46077 0.12629 0.0
C1106 C 0.78203 0.42922 0.16643 0.0
C1107 C 0.75711 0.41206 0.1693 0.0
C1108 C 0.73193 0.42054 0.1521 0.0
C1109 C 0.73252 0.44482 0.13083 0.0
C1110 C 0.80935 0.42117 0.18432 0.0
C1111 C 0.70488 0.40295 0.15448 0.0
H1112 H 0.77935 0.31462 0.16901 0.0
H1113 H 0.75416 0.35029 0.26263 0.0
H1114 H 0.75495 0.3705 0.11745 0.0
H1115 H 0.79188 0.37687 0.12641 0.0
H1116 H 0.77948 0.3407 0.11954 0.0
H1117 H 0.73819 0.39827 0.2671 0.0
H1118 H 0.76104 0.42125 0.24247 0.0
H1119 H 0.72492 0.41537 0.22963 0.0
H1120 H 0.80158 0.46557 0.14203 0.0
H1121 H 0.71358 0.45047 0.11663 0.0
H1122 H 0.81838 0.40145 0.17312 0.0
H1123 H 0.80506 0.41632 0.21089 0.0
H1124 H 0.82569 0.4385 0.1828 0.0
H1125 H 0.70765 0.38259 0.14068 0.0
H1126 H 0.68616 0.41454 0.14386 0.0
H1127 H 0.70027 0.39717 0.18075 0.0
C1128 C 0.72854 0.84551 0.20991 0.0
C1129 C 0.75404 0.83529 0.19595 0.0
C1130 C 0.70398 0.85 0.1903 0.0
C1131 C 0.70479 0.84402 0.15586 0.0
C1132 C 0.73082 0.83503 0.14133 0.0
C1133 C 0.75513 0.83083 0.16151 0.0
C1134 C 0.67677 0.85977 0.2068 0.0
C1135 C 0.73263 0.82841 0.10471 0.0
C1136 C 0.63688 0.81826 0.11333 0.0
C1137 C 0.62845 0.84255 0.09477 0.0
C1138 C 0.66127 0.81875 0.13371 0.0
C1139 C 0.67784 0.84418 0.13578 0.0
C1140 C 0.66897 0.86913 0.11806 0.0
C1141 C 0.64436 0.86804 0.09775 0.0
C1142 C 0.66977 0.79168 0.1523 0.0
C1143 C 0.68596 0.89669 0.11976 0.0
H1144 H 0.72747 0.84925 0.23644 0.0
H1145 H 0.77468 0.823 0.15042 0.0
H1146 H 0.66711 0.87794 0.19269 0.0
H1147 H 0.66101 0.84192 0.20689 0.0
H1148 H 0.68043 0.8666 0.23288 0.0
H1149 H 0.75493 0.82427 0.09665 0.0
H1150 H 0.71952 0.8091 0.0992 0.0
H1151 H 0.72384 0.84649 0.08971 0.0
H1152 H 0.62473 0.79848 0.11139 0.0
H1153 H 0.63812 0.88687 0.08343 0.0
H1154 H 0.67178 0.7961 0.17927 0.0
H1155 H 0.69097 0.78426 0.14356 0.0
H1156 H 0.6541 0.77397 0.14888 0.0
H1157 H 0.6894 0.90291 0.14604 0.0
H1158 H 0.67522 0.91471 0.10641 0.0
H1159 H 0.70735 0.89339 0.1086 0.0
C1160 C 0.27038 0.68938 0.21339 0.0
C1161 C 0.27229 0.71598 0.19688 0.0
C1162 C 0.26855 0.66358 0.19519 0.0
C1163 C 0.26921 0.6646 0.1599 0.0
C1164 C 0.27192 0.69146 0.1434 0.0
C1165 C 0.27322 0.71667 0.16203 0.0
C1166 C 0.26538 0.63536 0.2136 0.0
C1167 C 0.27344 0.69366 0.1059 0.0
C1168 C 0.29367 0.60421 0.10455 0.0
C1169 C 0.2681 0.59632 0.08854 0.0
C1170 C 0.29404 0.62482 0.12978 0.0
C1171 C 0.26817 0.63792 0.13955 0.0
C1172 C 0.24201 0.62854 0.1253 0.0
C1173 C 0.24227 0.60788 0.09986 0.0
C1174 C 0.32246 0.63419 0.14403 0.0
C1175 C 0.21391 0.6417 0.13536 0.0
H1176 H 0.26938 0.68882 0.24031 0.0
H1177 H 0.27498 0.73718 0.14913 0.0
H1178 H 0.24485 0.62506 0.20655 0.0
H1179 H 0.28273 0.62041 0.20647 0.0
H1180 H 0.26587 0.6381 0.24101 0.0
H1181 H 0.27584 0.71622 0.097 0.0
H1182 H 0.29182 0.68101 0.09666 0.0
H1183 H 0.25378 0.68452 0.09466 0.0
H1184 H 0.31377 0.5951 0.09647 0.0
H1185 H 0.22239 0.60173 0.08794 0.0
H1186 H 0.32137 0.63564 0.17151 0.0
H1187 H 0.32788 0.65592 0.13429 0.0
H1188 H 0.34001 0.61926 0.13738 0.0
H1189 H 0.2126 0.64342 0.16282 0.0
H1190 H 0.19536 0.62902 0.12628 0.0
H1191 H 0.21234 0.66379 0.12485 0.0
C1192 C 0.40252 0.82479 0.85805 0.0
C1193 C 0.40634 0.83282 0.82454 0.0
C1194 C 0.42442 0.82822 0.8817 0.0
C1195 C 0.45121 0.83953 0.87177 0.0
C1196 C 0.45531 0.84788 0.83819 0.0
C1197 C 0.43286 0.84463 0.81511 0.0
C1198 C 0.41904 0.81915 0.91731 0.0
C1199 C 0.48367 0.85969 0.82648 0.0
C1200 C 0.50118 0.86527 0.94077 0.0
C1201 C 0.51761 0.84056 0.94681 0.0
C1202 C 0.4799 0.86559 0.91584 0.0
C1203 C 0.47533 0.84079 0.8962 0.0
C1204 C 0.49283 0.81632 0.90124 0.0
C1205 C 0.51353 0.81644 0.92658 0.0
C1206 C 0.46151 0.89199 0.91149 0.0
C1207 C 0.48909 0.78959 0.88058 0.0
H1208 H 0.38256 0.81534 0.86604 0.0
H1209 H 0.43632 0.85134 0.78963 0.0
H1210 H 0.43303 0.80072 0.92398 0.0
H1211 H 0.42443 0.83699 0.93439 0.0
H1212 H 0.39646 0.8127 0.92158 0.0
H1213 H 0.48315 0.86625 0.79986 0.0
H1214 H 0.48991 0.87854 0.84159 0.0
H1215 H 0.50053 0.84316 0.82995 0.0
H1216 H 0.50412 0.88392 0.95642 0.0
H1217 H 0.52633 0.79733 0.93087 0.0
H1218 H 0.43914 0.88678 0.91845 0.0
H1219 H 0.46126 0.89901 0.88506 0.0
H1220 H 0.46901 0.91017 0.92701 0.0
H1221 H 0.46791 0.77978 0.8857 0.0
H1222 H 0.50586 0.77327 0.88585 0.0
H1223 H 0.48968 0.79517 0.85371 0.0
C1224 C 0.28513 0.38341 0.83939 0.0
C1225 C 0.27899 0.38885 0.80571 0.0
C1226 C 0.27976 0.40412 0.86382 0.0
C1227 C 0.26792 0.43105 0.85448 0.0
C1228 C 0.2608 0.43636 0.82072 0.0
C1229 C 0.26647 0.41525 0.79676 0.0
C1230 C 0.28789 0.3976 0.89947 0.0
C1231 C 0.24804 0.4647 0.80973 0.0
C1232 C 0.24139 0.47888 0.92482 0.0
C1233 C 0.26553 0.49609 0.9306 0.0
C1234 C 0.2414 0.45809 0.89945 0.0
C1235 C 0.26606 0.45458 0.87944 0.0
C1236 C 0.28996 0.47274 0.88439 0.0
C1237 C 0.28938 0.49316 0.90978 0.0
C1238 C 0.21545 0.43921 0.89483 0.0
C1239 C 0.31665 0.46995 0.86361 0.0
H1240 H 0.29504 0.36327 0.8466 0.0
H1241 H 0.26116 0.41949 0.77096 0.0
H1242 H 0.3058 0.4118 0.90711 0.0
H1243 H 0.26966 0.40205 0.91621 0.0
H1244 H 0.29461 0.37488 0.90313 0.0
H1245 H 0.24115 0.46446 0.78326 0.0
H1246 H 0.22937 0.4701 0.8254 0.0
H1247 H 0.26405 0.4821 0.81292 0.0
H1248 H 0.22291 0.48096 0.94079 0.0
H1249 H 0.30807 0.50654 0.91374 0.0
H1250 H 0.22084 0.41671 0.90177 0.0
H1251 H 0.20876 0.43921 0.86833 0.0
H1252 H 0.19714 0.44627 0.91025 0.0
H1253 H 0.3264 0.44847 0.86785 0.0
H1254 H 0.33286 0.48664 0.86955 0.0
H1255 H 0.31125 0.47165 0.83679 0.0
C1256 C 0.68651 0.33026 0.86026 0.0
C1257 C 0.67926 0.32766 0.82647 0.0
C1258 C 0.66573 0.32772 0.88527 0.0
C1259 C 0.63683 0.32279 0.87641 0.0
C1260 C 0.62916 0.32102 0.8424 0.0
C1261 C 0.65043 0.32332 0.8179 0.0
C1262 C 0.67485 0.32964 0.92125 0.0
C1263 C 0.59855 0.31599 0.83188 0.0
C1264 C 0.58881 0.28523 0.93939 0.0
C1265 C 0.57382 0.30833 0.95322 0.0
C1266 C 0.60936 0.28969 0.9145 0.0
C1267 C 0.6149 0.31794 0.90275 0.0
C1268 C 0.59964 0.34136 0.91631 0.0
C1269 C 0.57941 0.3363 0.94153 0.0
C1270 C 0.62535 0.26414 0.90101 0.0
C1271 C 0.6047 0.37175 0.90416 0.0
H1272 H 0.7085 0.33421 0.8673 0.0
H1273 H 0.64446 0.321 0.79205 0.0
H1274 H 0.66238 0.3465 0.93404 0.0
H1275 H 0.67036 0.30894 0.93416 0.0
H1276 H 0.69797 0.33461 0.92399 0.0
H1277 H 0.59576 0.31717 0.80446 0.0
H1278 H 0.59141 0.29447 0.84065 0.0
H1279 H 0.58435 0.33212 0.84346 0.0
H1280 H 0.58481 0.26354 0.94835 0.0
H1281 H 0.56789 0.35427 0.95199 0.0
H1282 H 0.64865 0.26701 0.90508 0.0
H1283 H 0.62183 0.26254 0.87379 0.0
H1284 H 0.61862 0.24358 0.9129 0.0
H1285 H 0.62733 0.3779 0.90845 0.0
H1286 H 0.59073 0.38753 0.91679 0.0
H1287 H 0.60075 0.37316 0.87697 0.0
C1288 C 0.74352 0.6661 0.85457 0.0
C1289 C 0.74932 0.65315 0.82387 0.0
C1290 C 0.74215 0.64981 0.88416 0.0
C1291 C 0.74669 0.61971 0.88324 0.0
C1292 C 0.75144 0.60634 0.85218 0.0
C1293 C 0.75264 0.62318 0.82291 0.0
C1294 C 0.73682 0.66504 0.91656 0.0
C1295 C 0.75635 0.57433 0.85 0.0
C1296 C 0.77793 0.58321 0.96031 0.0
C1297 C 0.75393 0.56977 0.97455 0.0
C1298 C 0.77574 0.59957 0.93088 0.0
C1299 C 0.74887 0.60267 0.91494 0.0
C1300 C 0.72444 0.58945 0.92927 0.0
C1301 C 0.72723 0.5732 0.95892 0.0
C1302 C 0.80233 0.6134 0.9167 0.0
C1303 C 0.69541 0.59221 0.91308 0.0
H1304 H 0.74024 0.68913 0.85555 0.0
H1305 H 0.75722 0.61299 0.79942 0.0
H1306 H 0.71921 0.65439 0.9304 0.0
H1307 H 0.75625 0.66378 0.93241 0.0
H1308 H 0.73127 0.68806 0.91273 0.0
H1309 H 0.75738 0.56687 0.82386 0.0
H1310 H 0.77673 0.56868 0.86263 0.0
H1311 H 0.73901 0.56246 0.86297 0.0
H1312 H 0.79867 0.58084 0.9721 0.0
H1313 H 0.70857 0.56288 0.96959 0.0
H1314 H 0.79931 0.637 0.91449 0.0
H1315 H 0.80633 0.60517 0.89132 0.0
H1316 H 0.82157 0.60919 0.93226 0.0
H1317 H 0.68962 0.61524 0.91031 0.0
H1318 H 0.67843 0.5811 0.92757 0.0
H1319 H 0.69599 0.58298 0.88774 0.0
loop_
_geom_bond_atom_site_label_1
_geom_bond_atom_site_label_2
_geom_bond_distance
_geom_bond_site_symmetry_2
_ccdc_geom_bond_type
Cu0 N1 1.999 . S
Cu0 O6 1.974 . S
Cu0 N11 1.985 . S
Cu0 O20 1.959 . S
N1 Cu0 1.999 . S
N1 C3 1.263 . S
N1 C5 1.389 . S
N2 C3 1.358 . S
N2 C4 1.400 . S
C3 N1 1.263 . S
C3 N2 1.358 . S
C3 H9 0.930 . S
C4 N2 1.400 . S
C4 C5 1.351 . S
C4 H21 0.930 . S
C5 N1 1.389 . S
C5 C4 1.351 . S
C5 H10 0.930 . S
O6 Cu0 1.974 . S
O6 C16 1.282 . S
C7 O8 1.261 . S
C7 O20 1.251 . S
O8 C7 1.261 . S
H9 C3 0.930 . S
H10 C5 0.930 . S
N11 Cu0 1.985 . S
N11 C13 1.335 . S
N11 C14 1.390 . S
N12 C13 1.345 . S
N12 C15 1.336 . S
C13 N11 1.335 . S
C13 N12 1.345 . S
C13 H18 0.930 . S
C14 N11 1.390 . S
C14 C15 1.346 . S
C14 H19 0.930 . S
C15 N12 1.336 . S
C15 C14 1.346 . S
C15 H22 0.929 . S
C16 O6 1.282 . S
C16 O17 1.216 . S
O17 C16 1.216 . S
H18 C13 0.930 . S
H19 C14 0.930 . S
O20 Cu0 1.959 . S
O20 C7 1.251 . S
H21 C4 0.930 . S
H22 C15 0.929 . S
Cu23 N24 1.999 . S
Cu23 O29 1.974 . S
Cu23 N34 1.985 . S
Cu23 O43 1.959 . S
N24 Cu23 1.999 . S
N24 C26 1.263 . S
N24 C28 1.389 . S
N25 C26 1.358 . S
N25 C27 1.400 . S
C26 N24 1.263 . S
C26 N25 1.358 . S
C26 H32 0.930 . S
C27 N25 1.400 . S
C27 C28 1.351 . S
C27 H44 0.930 . S
C28 N24 1.389 . S
C28 C27 1.351 . S
C28 H33 0.930 . S
O29 Cu23 1.974 . S
O29 C39 1.282 . S
C30 O31 1.261 . S
C30 O43 1.251 . S
O31 C30 1.261 . S
H32 C26 0.930 . S
H33 C28 0.930 . S
N34 Cu23 1.985 . S
N34 C36 1.335 . S
N34 C37 1.390 . S
N35 C36 1.345 . S
N35 C38 1.336 . S
C36 N34 1.335 . S
C36 N35 1.345 . S
C36 H41 0.930 . S
C37 N34 1.390 . S
C37 C38 1.346 . S
C37 H42 0.930 . S
C38 N35 1.336 . S
C38 C37 1.346 . S
C38 H45 0.929 . S
C39 O29 1.282 . S
C39 O40 1.216 . S
O40 C39 1.216 . S
H41 C36 0.930 . S
H42 C37 0.930 . S
O43 Cu23 1.959 . S
O43 C30 1.251 . S
H44 C27 0.930 . S
H45 C38 0.929 . S
Cu46 N47 1.999 . S
Cu46 O52 1.974 . S
Cu46 N57 1.985 . S
Cu46 O66 1.959 . S
N47 Cu46 1.999 . S
N47 C49 1.263 . S
N47 C51 1.389 . S
N48 C49 1.358 . S
N48 C50 1.400 . S
C49 N47 1.263 . S
C49 N48 1.358 . S
C49 H55 0.930 . S
C50 N48 1.400 . S
C50 C51 1.351 . S
C50 H67 0.930 . S
C51 N47 1.389 . S
C51 C50 1.351 . S
C51 H56 0.930 . S
O52 Cu46 1.974 . S
O52 C62 1.282 . S
C53 O54 1.261 . S
C53 O66 1.251 . S
O54 C53 1.261 . S
H55 C49 0.930 . S
H56 C51 0.930 . S
N57 Cu46 1.985 . S
N57 C59 1.335 . S
N57 C60 1.390 . S
N58 C59 1.345 . S
N58 C61 1.336 . S
C59 N57 1.335 . S
C59 N58 1.345 . S
C59 H64 0.930 . S
C60 N57 1.390 . S
C60 C61 1.346 . S
C60 H65 0.930 . S
C61 N58 1.336 . S
C61 C60 1.346 . S
C61 H68 0.929 . S
C62 O52 1.282 . S
C62 O63 1.216 . S
O63 C62 1.216 . S
H64 C59 0.930 . S
H65 C60 0.930 . S
O66 Cu46 1.959 . S
O66 C53 1.251 . S
H67 C50 0.930 . S
H68 C61 0.929 . S
Cu69 N70 1.999 . S
Cu69 O75 1.974 . S
Cu69 N80 1.985 . S
Cu69 O89 1.959 . S
N70 Cu69 1.999 . S
N70 C72 1.263 . S
N70 C74 1.389 . S
N71 C72 1.358 . S
N71 C73 1.400 . S
C72 N70 1.263 . S
C72 N71 1.358 . S
C72 H78 0.930 . S
C73 N71 1.400 . S
C73 C74 1.351 . S
C73 H90 0.930 . S
C74 N70 1.389 . S
C74 C73 1.351 . S
C74 H79 0.930 . S
O75 Cu69 1.974 . S
O75 C85 1.282 . S
C76 O77 1.261 . S
C76 O89 1.251 . S
O77 C76 1.261 . S
H78 C72 0.930 . S
H79 C74 0.930 . S
N80 Cu69 1.985 . S
N80 C82 1.335 . S
N80 C83 1.390 . S
N81 C82 1.345 . S
N81 C84 1.336 . S
C82 N80 1.335 . S
C82 N81 1.345 . S
C82 H87 0.930 . S
C83 N80 1.390 . S
C83 C84 1.346 . S
C83 H88 0.930 . S
C84 N81 1.336 . S
C84 C83 1.346 . S
C84 H91 0.929 . S
C85 O75 1.282 . S
C85 O86 1.216 . S
O86 C85 1.216 . S
H87 C82 0.930 . S
H88 C83 0.930 . S
O89 Cu69 1.959 . S
O89 C76 1.251 . S
H90 C73 0.930 . S
H91 C84 0.929 . S
Cu92 N93 1.999 . S
Cu92 O98 1.974 . S
Cu92 N103 1.985 . S
Cu92 O112 1.959 . S
N93 Cu92 1.999 . S
N93 C95 1.263 . S
N93 C97 1.389 . S
N94 C95 1.358 . S
N94 C96 1.400 . S
C95 N93 1.263 . S
C95 N94 1.358 . S
C95 H101 0.930 . S
C96 N94 1.400 . S
C96 C97 1.351 . S
C96 H113 0.930 . S
C97 N93 1.389 . S
C97 C96 1.351 . S
C97 H102 0.930 . S
O98 Cu92 1.974 . S
O98 C108 1.282 . S
C99 O100 1.261 . S
C99 O112 1.251 . S
O100 C99 1.261 . S
H101 C95 0.930 . S
H102 C97 0.930 . S
N103 Cu92 1.985 . S
N103 C105 1.335 . S
N103 C106 1.390 . S
N104 C105 1.345 . S
N104 C107 1.336 . S
C105 N103 1.335 . S
C105 N104 1.345 . S
C105 H110 0.930 . S
C106 N103 1.390 . S
C106 C107 1.346 . S
C106 H111 0.930 . S
C107 N104 1.336 . S
C107 C106 1.346 . S
C107 H114 0.929 . S
C108 O98 1.282 . S
C108 O109 1.216 . S
O109 C108 1.216 . S
H110 C105 0.930 . S
H111 C106 0.930 . S
O112 Cu92 1.959 . S
O112 C99 1.251 . S
H113 C96 0.930 . S
H114 C107 0.929 . S
Cu115 N116 1.999 . S
Cu115 O121 1.974 . S
Cu115 N126 1.985 . S
Cu115 O135 1.959 . S
N116 Cu115 1.999 . S
N116 C118 1.263 . S
N116 C120 1.389 . S
N117 C118 1.358 . S
N117 C119 1.400 . S
C118 N116 1.263 . S
C118 N117 1.358 . S
C118 H124 0.930 . S
C119 N117 1.400 . S
C119 C120 1.351 . S
C119 H136 0.930 . S
C120 N116 1.389 . S
C120 C119 1.351 . S
C120 H125 0.930 . S
O121 Cu115 1.974 . S
O121 C131 1.282 . S
C122 O123 1.261 . S
C122 O135 1.251 . S
O123 C122 1.261 . S
H124 C118 0.930 . S
H125 C120 0.930 . S
N126 Cu115 1.985 . S
N126 C128 1.335 . S
N126 C129 1.390 . S
N127 C128 1.345 . S
N127 C130 1.336 . S
C128 N126 1.335 . S
C128 N127 1.345 . S
C128 H133 0.930 . S
C129 N126 1.390 . S
C129 C130 1.346 . S
C129 H134 0.930 . S
C130 N127 1.336 . S
C130 C129 1.346 . S
C130 H137 0.929 . S
C131 O121 1.282 . S
C131 O132 1.216 . S
O132 C131 1.216 . S
H133 C128 0.930 . S
H134 C129 0.930 . S
O135 Cu115 1.959 . S
O135 C122 1.251 . S
H136 C119 0.930 . S
H137 C130 0.929 . S
Cu138 N139 1.999 . S
Cu138 O144 1.974 . S
Cu138 N149 1.985 . S
Cu138 O158 1.959 . S
N139 Cu138 1.999 . S
N139 C141 1.263 . S
N139 C143 1.389 . S
N140 C141 1.358 . S
N140 C142 1.400 . S
C141 N139 1.263 . S
C141 N140 1.358 . S
C141 H147 0.930 . S
C142 N140 1.400 . S
C142 C143 1.351 . S
C142 H159 0.930 . S
C143 N139 1.389 . S
C143 C142 1.351 . S
C143 H148 0.930 . S
O144 Cu138 1.974 . S
O144 C154 1.282 . S
C145 O146 1.261 . S
C145 O158 1.251 . S
O146 C145 1.261 . S
H147 C141 0.930 . S
H148 C143 0.930 . S
N149 Cu138 1.985 . S
N149 C151 1.335 . S
N149 C152 1.390 . S
N150 C151 1.345 . S
N150 C153 1.336 . S
C151 N149 1.335 . S
C151 N150 1.345 . S
C151 H156 0.930 . S
C152 N149 1.390 . S
C152 C153 1.346 . S
C152 H157 0.930 . S
C153 N150 1.336 . S
C153 C152 1.346 . S
C153 H160 0.929 . S
C154 O144 1.282 . S
C154 O155 1.216 . S
O155 C154 1.216 . S
H156 C151 0.930 . S
H157 C152 0.930 . S
O158 Cu138 1.959 . S
O158 C145 1.251 . S
H159 C142 0.930 . S
H160 C153 0.929 . S
Cu161 N162 1.999 . S
Cu161 O167 1.974 . S
Cu161 N172 1.985 . S
Cu161 O181 1.959 . S
N162 Cu161 1.999 . S
N162 C164 1.263 . S
N162 C166 1.389 . S
N163 C164 1.358 . S
N163 C165 1.400 . S
C164 N162 1.263 . S
C164 N163 1.358 . S
C164 H170 0.930 . S
C165 N163 1.400 . S
C165 C166 1.351 . S
C165 H182 0.930 . S
C166 N162 1.389 . S
C166 C165 1.351 . S
C166 H171 0.930 . S
O167 Cu161 1.974 . S
O167 C177 1.282 . S
C168 O169 1.261 . S
C168 O181 1.251 . S
O169 C168 1.261 . S
H170 C164 0.930 . S
H171 C166 0.930 . S
N172 Cu161 1.985 . S
N172 C174 1.335 . S
N172 C175 1.390 . S
N173 C174 1.345 . S
N173 C176 1.336 . S
C174 N172 1.335 . S
C174 N173 1.345 . S
C174 H179 0.930 . S
C175 N172 1.390 . S
C175 C176 1.346 . S
C175 H180 0.930 . S
C176 N173 1.336 . S
C176 C175 1.346 . S
C176 H183 0.929 . S
C177 O167 1.282 . S
C177 O178 1.216 . S
O178 C177 1.216 . S
H179 C174 0.930 . S
H180 C175 0.930 . S
O181 Cu161 1.959 . S
O181 C168 1.251 . S
H182 C165 0.930 . S
H183 C176 0.929 . S
C184 O186 1.247 . S
C184 O188 1.258 . S
C185 O192 1.247 . S
C185 O193 1.258 . S
O186 C184 1.247 . S
O186 Zn187 2.028 . S
Zn187 O186 2.028 . S
Zn187 O191 2.035 . S
Zn187 O193 2.035 . S
Zn187 O194 2.028 . S
O188 C184 1.258 . S
O188 Zn189 2.035 . S
Zn189 O188 2.035 . S
Zn189 O190 2.028 . S
Zn189 O192 2.028 . S
Zn189 O195 2.035 . S
O190 Zn189 2.028 . S
O190 C196 1.247 . S
O191 Zn187 2.035 . S
O191 C196 1.258 . S
O192 C185 1.247 . S
O192 Zn189 2.028 . S
O193 C185 1.258 . S
O193 Zn187 2.035 . S
O194 Zn187 2.028 . S
O194 C197 1.247 . S
O195 Zn189 2.035 . S
O195 C197 1.258 . S
C196 O190 1.247 . S
C196 O191 1.258 . S
C197 O194 1.247 . S
C197 O195 1.258 . S
C198 O200 1.247 . S
C198 O202 1.258 . S
C199 O206 1.247 . S
C199 O207 1.258 . S
O200 C198 1.247 . S
O200 Zn201 2.028 . S
Zn201 O200 2.028 . S
Zn201 O205 2.035 . S
Zn201 O207 2.035 . S
Zn201 O208 2.028 . S
O202 C198 1.258 . S
O202 Zn203 2.035 . S
Zn203 O202 2.035 . S
Zn203 O204 2.028 . S
Zn203 O206 2.028 . S
Zn203 O209 2.035 . S
O204 Zn203 2.028 . S
O204 C210 1.247 . S
O205 Zn201 2.035 . S
O205 C210 1.258 . S
O206 C199 1.247 . S
O206 Zn203 2.028 . S
O207 C199 1.258 . S
O207 Zn201 2.035 . S
O208 Zn201 2.028 . S
O208 C211 1.247 . S
O209 Zn203 2.035 . S
O209 C211 1.258 . S
C210 O204 1.247 . S
C210 O205 1.258 . S
C211 O208 1.247 . S
C211 O209 1.258 . S
C212 O214 1.247 . S
C212 O216 1.258 . S
C213 O220 1.247 . S
C213 O221 1.258 . S
O214 C212 1.247 . S
O214 Zn215 2.028 1_655 S
Zn215 O214 2.028 1_455 S
Zn215 O219 2.035 . S
Zn215 O221 2.035 . S
Zn215 O222 2.028 1_455 S
O216 C212 1.258 . S
O216 Zn217 2.035 1_655 S
Zn217 O216 2.035 1_455 S
Zn217 O218 2.028 . S
Zn217 O220 2.028 . S
Zn217 O223 2.035 1_455 S
O218 Zn217 2.028 . S
O218 C224 1.247 . S
O219 Zn215 2.035 . S
O219 C224 1.258 . S
O220 C213 1.247 . S
O220 Zn217 2.028 . S
O221 C213 1.258 . S
O221 Zn215 2.035 . S
O222 Zn215 2.028 1_655 S
O222 C225 1.247 . S
O223 Zn217 2.035 1_655 S
O223 C225 1.258 . S
C224 O218 1.247 . S
C224 O219 1.258 . S
C225 O222 1.247 . S
C225 O223 1.258 . S
C226 O228 1.247 . S
C226 O230 1.258 . S
C227 O234 1.247 . S
C227 O235 1.258 . S
O228 C226 1.247 . S
O228 Zn229 2.028 . S
Zn229 O228 2.028 . S
Zn229 O233 2.035 1_545 S
Zn229 O235 2.035 1_545 S
Zn229 O236 2.028 . S
O230 C226 1.258 . S
O230 Zn231 2.035 . S
Zn231 O230 2.035 . S
Zn231 O232 2.028 1_545 S
Zn231 O234 2.028 1_545 S
Zn231 O237 2.035 . S
O232 Zn231 2.028 1_565 S
O232 C238 1.247 . S
O233 Zn229 2.035 1_565 S
O233 C238 1.258 . S
O234 C227 1.247 . S
O234 Zn231 2.028 1_565 S
O235 C227 1.258 . S
O235 Zn229 2.035 1_565 S
O236 Zn229 2.028 . S
O236 C239 1.247 . S
O237 Zn231 2.035 . S
O237 C239 1.258 . S
C238 O232 1.247 . S
C238 O233 1.258 . S
C239 O236 1.247 . S
C239 O237 1.258 . S
C240 O242 1.247 . S
C240 O244 1.258 . S
C241 O248 1.247 . S
C241 O249 1.258 . S
O242 C240 1.247 . S
O242 Zn243 2.028 . S
Zn243 O242 2.028 . S
Zn243 O247 2.035 . S
Zn243 O249 2.035 1_554 S
Zn243 O250 2.028 1_554 S
O244 C240 1.258 . S
O244 Zn245 2.035 . S
Zn245 O244 2.035 . S
Zn245 O246 2.028 . S
Zn245 O248 2.028 1_554 S
Zn245 O251 2.035 1_554 S
O246 Zn245 2.028 . S
O246 C252 1.247 . S
O247 Zn243 2.035 . S
O247 C252 1.258 . S
O248 C241 1.247 . S
O248 Zn245 2.028 1_556 S
O249 C241 1.258 . S
O249 Zn243 2.035 1_556 S
O250 Zn243 2.028 1_556 S
O250 C253 1.247 . S
O251 Zn245 2.035 1_556 S
O251 C253 1.258 . S
C252 O246 1.247 . S
C252 O247 1.258 . S
C253 O250 1.247 . S
C253 O251 1.258 . S
C254 O256 1.247 . S
C254 O258 1.258 . S
C255 O262 1.247 . S
C255 O263 1.258 . S
O256 C254 1.247 . S
O256 Zn257 2.028 . S
Zn257 O256 2.028 . S
Zn257 O261 2.035 . S
Zn257 O263 2.035 1_554 S
Zn257 O264 2.028 1_554 S
O258 C254 1.258 . S
O258 Zn259 2.035 . S
Zn259 O258 2.035 . S
Zn259 O260 2.028 . S
Zn259 O262 2.028 1_554 S
Zn259 O265 2.035 1_554 S
O260 Zn259 2.028 . S
O260 C266 1.247 . S
O261 Zn257 2.035 . S
O261 C266 1.258 . S
O262 C255 1.247 . S
O262 Zn259 2.028 1_556 S
O263 C255 1.258 . S
O263 Zn257 2.035 1_556 S
O264 Zn257 2.028 1_556 S
O264 C267 1.247 . S
O265 Zn259 2.035 1_556 S
O265 C267 1.258 . S
C266 O260 1.247 . S
C266 O261 1.258 . S
C267 O264 1.247 . S
C267 O265 1.258 . S
C268 O270 1.247 . S
C268 O272 1.258 . S
C269 O276 1.247 . S
C269 O277 1.258 . S
O270 C268 1.247 . S
O270 Zn271 2.028 1_556 S
Zn271 O270 2.028 1_554 S
Zn271 O275 2.035 1_554 S
Zn271 O277 2.035 . S
Zn271 O278 2.028 . S
O272 C268 1.258 . S
O272 Zn273 2.035 1_556 S
Zn273 O272 2.035 1_554 S
Zn273 O274 2.028 1_554 S
Zn273 O276 2.028 . S
Zn273 O279 2.035 . S
O274 Zn273 2.028 1_556 S
O274 C280 1.247 . S
O275 Zn271 2.035 1_556 S
O275 C280 1.258 . S
O276 C269 1.247 . S
O276 Zn273 2.028 . S
O277 C269 1.258 . S
O277 Zn271 2.035 . S
O278 Zn271 2.028 . S
O278 C281 1.247 . S
O279 Zn273 2.035 . S
O279 C281 1.258 . S
C280 O274 1.247 . S
C280 O275 1.258 . S
C281 O278 1.247 . S
C281 O279 1.258 . S
C282 O284 1.247 . S
C282 O286 1.258 . S
C283 O290 1.247 . S
C283 O291 1.258 . S
O284 C282 1.247 . S
O284 Zn285 2.028 . S
Zn285 O284 2.028 . S
Zn285 O289 2.035 . S
Zn285 O291 2.035 1_554 S
Zn285 O292 2.028 1_554 S
O286 C282 1.258 . S
O286 Zn287 2.035 . S
Zn287 O286 2.035 . S
Zn287 O288 2.028 . S
Zn287 O290 2.028 1_554 S
Zn287 O293 2.035 1_554 S
O288 Zn287 2.028 . S
O288 C294 1.247 . S
O289 Zn285 2.035 . S
O289 C294 1.258 . S
O290 C283 1.247 . S
O290 Zn287 2.028 1_556 S
O291 C283 1.258 . S
O291 Zn285 2.035 1_556 S
O292 Zn285 2.028 1_556 S
O292 C295 1.247 . S
O293 Zn287 2.035 1_556 S
O293 C295 1.258 . S
C294 O288 1.247 . S
C294 O289 1.258 . S
C295 O292 1.247 . S
C295 O293 1.258 . S
C296 C297 1.391 . S
C296 C298 1.394 . S
C296 H312 0.931 . S
C297 C296 1.391 . S
C297 C301 1.376 . S
C298 C296 1.394 . S
C298 C299 1.369 . S
C298 C302 1.531 . S
C299 C298 1.369 . S
C299 C300 1.410 . S
C299 C307 1.503 . S
C300 C299 1.410 . S
C300 C301 1.392 . S
C300 C303 1.511 . S
C301 C297 1.376 . S
C301 C300 1.392 . S
C301 H313 0.929 . S
C302 C298 1.531 . S
C302 H314 0.960 . S
C302 H315 0.962 . S
C302 H316 0.960 . S
C303 C300 1.511 . S
C303 H317 0.961 . S
C303 H318 0.961 . S
C303 H319 0.961 . S
C304 C305 1.370 . S
C304 C306 1.363 . S
C304 H320 0.931 . S
C305 C304 1.370 . S
C305 C309 1.408 . S
C306 C304 1.363 . S
C306 C307 1.370 . S
C306 C310 1.524 . S
C307 C299 1.503 . S
C307 C306 1.370 . S
C307 C308 1.403 . S
C308 C307 1.403 . S
C308 C309 1.404 . S
C308 C311 1.539 . S
C309 C305 1.408 . S
C309 C308 1.404 . S
C309 H321 0.930 . S
C310 C306 1.524 . S
C310 H322 0.956 . S
C310 H323 0.961 . S
C310 H324 0.961 . S
C311 C308 1.539 . S
C311 H325 0.958 . S
C311 H326 0.961 . S
C311 H327 0.960 . S
H312 C296 0.931 . S
H313 C301 0.929 . S
H314 C302 0.960 . S
H315 C302 0.962 . S
H316 C302 0.960 . S
H317 C303 0.961 . S
H318 C303 0.961 . S
H319 C303 0.961 . S
H320 C304 0.931 . S
H321 C309 0.930 . S
H322 C310 0.956 . S
H323 C310 0.961 . S
H324 C310 0.961 . S
H325 C311 0.958 . S
H326 C311 0.961 . S
H327 C311 0.960 . S
C328 C329 1.391 . S
C328 C330 1.394 . S
C328 H344 0.931 . S
C329 C328 1.391 . S
C329 C333 1.376 . S
C330 C328 1.394 . S
C330 C331 1.369 . S
C330 C334 1.531 . S
C331 C330 1.369 . S
C331 C332 1.410 . S
C331 C339 1.503 . S
C332 C331 1.410 . S
C332 C333 1.392 . S
C332 C335 1.511 . S
C333 C329 1.376 . S
C333 C332 1.392 . S
C333 H345 0.929 . S
C334 C330 1.531 . S
C334 H346 0.960 . S
C334 H347 0.962 . S
C334 H348 0.960 . S
C335 C332 1.511 . S
C335 H349 0.961 . S
C335 H350 0.961 . S
C335 H351 0.961 . S
C336 C337 1.370 . S
C336 C338 1.363 . S
C336 H352 0.931 . S
C337 C336 1.370 . S
C337 C341 1.408 . S
C338 C336 1.363 . S
C338 C339 1.370 . S
C338 C342 1.524 . S
C339 C331 1.503 . S
C339 C338 1.370 . S
C339 C340 1.403 . S
C340 C339 1.403 . S
C340 C341 1.404 . S
C340 C343 1.539 . S
C341 C337 1.408 . S
C341 C340 1.404 . S
C341 H353 0.930 . S
C342 C338 1.524 . S
C342 H354 0.956 . S
C342 H355 0.961 . S
C342 H356 0.961 . S
C343 C340 1.539 . S
C343 H357 0.958 . S
C343 H358 0.961 . S
C343 H359 0.960 . S
H344 C328 0.931 . S
H345 C333 0.929 . S
H346 C334 0.960 . S
H347 C334 0.962 . S
H348 C334 0.960 . S
H349 C335 0.961 . S
H350 C335 0.961 . S
H351 C335 0.961 . S
H352 C336 0.931 . S
H353 C341 0.930 . S
H354 C342 0.956 . S
H355 C342 0.961 . S
H356 C342 0.961 . S
H357 C343 0.958 . S
H358 C343 0.961 . S
H359 C343 0.960 . S
C360 C361 1.391 . S
C360 C362 1.394 . S
C360 H376 0.931 . S
C361 C360 1.391 . S
C361 C365 1.376 . S
C362 C360 1.394 . S
C362 C363 1.369 . S
C362 C366 1.531 . S
C363 C362 1.369 . S
C363 C364 1.410 . S
C363 C371 1.503 . S
C364 C363 1.410 . S
C364 C365 1.392 . S
C364 C367 1.511 . S
C365 C361 1.376 . S
C365 C364 1.392 . S
C365 H377 0.929 . S
C366 C362 1.531 . S
C366 H378 0.960 . S
C366 H379 0.962 . S
C366 H380 0.960 . S
C367 C364 1.511 . S
C367 H381 0.961 . S
C367 H382 0.961 . S
C367 H383 0.961 . S
C368 C369 1.370 . S
C368 C370 1.363 . S
C368 H384 0.931 . S
C369 C368 1.370 . S
C369 C373 1.408 . S
C370 C368 1.363 . S
C370 C371 1.370 . S
C370 C374 1.524 . S
C371 C363 1.503 . S
C371 C370 1.370 . S
C371 C372 1.403 . S
C372 C371 1.403 . S
C372 C373 1.404 . S
C372 C375 1.539 . S
C373 C369 1.408 . S
C373 C372 1.404 . S
C373 H385 0.930 . S
C374 C370 1.524 . S
C374 H386 0.956 . S
C374 H387 0.961 . S
C374 H388 0.961 . S
C375 C372 1.539 . S
C375 H389 0.958 . S
C375 H390 0.961 . S
C375 H391 0.960 . S
H376 C360 0.931 . S
H377 C365 0.929 . S
H378 C366 0.960 . S
H379 C366 0.962 . S
H380 C366 0.960 . S
H381 C367 0.961 . S
H382 C367 0.961 . S
H383 C367 0.961 . S
H384 C368 0.931 . S
H385 C373 0.930 . S
H386 C374 0.956 . S
H387 C374 0.961 . S
H388 C374 0.961 . S
H389 C375 0.958 . S
H390 C375 0.961 . S
H391 C375 0.960 . S
C392 C393 1.391 . S
C392 C394 1.394 . S
C392 H408 0.931 . S
C393 C392 1.391 . S
C393 C397 1.376 . S
C394 C392 1.394 . S
C394 C395 1.369 . S
C394 C398 1.531 . S
C395 C394 1.369 . S
C395 C396 1.410 . S
C395 C403 1.503 . S
C396 C395 1.410 . S
C396 C397 1.392 . S
C396 C399 1.511 . S
C397 C393 1.376 . S
C397 C396 1.392 . S
C397 H409 0.929 . S
C398 C394 1.531 . S
C398 H410 0.960 . S
C398 H411 0.962 . S
C398 H412 0.960 . S
C399 C396 1.511 . S
C399 H413 0.961 . S
C399 H414 0.961 . S
C399 H415 0.961 . S
C400 C401 1.370 . S
C400 C402 1.363 . S
C400 H416 0.931 . S
C401 C400 1.370 . S
C401 C405 1.408 . S
C402 C400 1.363 . S
C402 C403 1.370 . S
C402 C406 1.524 . S
C403 C395 1.503 . S
C403 C402 1.370 . S
C403 C404 1.403 . S
C404 C403 1.403 . S
C404 C405 1.404 . S
C404 C407 1.539 . S
C405 C401 1.408 . S
C405 C404 1.404 . S
C405 H417 0.930 . S
C406 C402 1.524 . S
C406 H418 0.956 . S
C406 H419 0.961 . S
C406 H420 0.961 . S
C407 C404 1.539 . S
C407 H421 0.958 . S
C407 H422 0.961 . S
C407 H423 0.960 . S
H408 C392 0.931 . S
H409 C397 0.929 . S
H410 C398 0.960 . S
H411 C398 0.962 . S
H412 C398 0.960 . S
H413 C399 0.961 . S
H414 C399 0.961 . S
H415 C399 0.961 . S
H416 C400 0.931 . S
H417 C405 0.930 . S
H418 C406 0.956 . S
H419 C406 0.961 . S
H420 C406 0.961 . S
H421 C407 0.958 . S
H422 C407 0.961 . S
H423 C407 0.960 . S
C424 C425 1.391 . S
C424 C426 1.394 . S
C424 H440 0.931 . S
C425 C424 1.391 . S
C425 C429 1.376 . S
C426 C424 1.394 . S
C426 C427 1.369 . S
C426 C430 1.531 . S
C427 C426 1.369 . S
C427 C428 1.410 . S
C427 C435 1.503 . S
C428 C427 1.410 . S
C428 C429 1.392 . S
C428 C431 1.511 . S
C429 C425 1.376 . S
C429 C428 1.392 . S
C429 H441 0.929 . S
C430 C426 1.531 . S
C430 H442 0.960 . S
C430 H443 0.962 . S
C430 H444 0.960 . S
C431 C428 1.511 . S
C431 H445 0.961 . S
C431 H446 0.961 . S
C431 H447 0.961 . S
C432 C433 1.370 . S
C432 C434 1.363 . S
C432 H448 0.931 . S
C433 C432 1.370 . S
C433 C437 1.408 . S
C434 C432 1.363 . S
C434 C435 1.370 . S
C434 C438 1.524 . S
C435 C427 1.503 . S
C435 C434 1.370 . S
C435 C436 1.403 . S
C436 C435 1.403 . S
C436 C437 1.404 . S
C436 C439 1.539 . S
C437 C433 1.408 . S
C437 C436 1.404 . S
C437 H449 0.930 . S
C438 C434 1.524 . S
C438 H450 0.956 . S
C438 H451 0.961 . S
C438 H452 0.961 . S
C439 C436 1.539 . S
C439 H453 0.958 . S
C439 H454 0.961 . S
C439 H455 0.960 . S
H440 C424 0.931 . S
H441 C429 0.929 . S
H442 C430 0.960 . S
H443 C430 0.962 . S
H444 C430 0.960 . S
H445 C431 0.961 . S
H446 C431 0.961 . S
H447 C431 0.961 . S
H448 C432 0.931 . S
H449 C437 0.930 . S
H450 C438 0.956 . S
H451 C438 0.961 . S
H452 C438 0.961 . S
H453 C439 0.958 . S
H454 C439 0.961 . S
H455 C439 0.960 . S
C456 C457 1.391 . S
C456 C458 1.394 . S
C456 H472 0.931 . S
C457 C456 1.391 . S
C457 C461 1.376 . S
C458 C456 1.394 . S
C458 C459 1.369 . S
C458 C462 1.531 . S
C459 C458 1.369 . S
C459 C460 1.410 . S
C459 C467 1.503 . S
C460 C459 1.410 . S
C460 C461 1.392 . S
C460 C463 1.511 . S
C461 C457 1.376 . S
C461 C460 1.392 . S
C461 H473 0.929 . S
C462 C458 1.531 . S
C462 H474 0.960 . S
C462 H475 0.962 . S
C462 H476 0.960 . S
C463 C460 1.511 . S
C463 H477 0.961 . S
C463 H478 0.961 . S
C463 H479 0.961 . S
C464 C465 1.370 . S
C464 C466 1.363 . S
C464 H480 0.931 . S
C465 C464 1.370 . S
C465 C469 1.408 . S
C466 C464 1.363 . S
C466 C467 1.370 . S
C466 C470 1.524 . S
C467 C459 1.503 . S
C467 C466 1.370 . S
C467 C468 1.403 . S
C468 C467 1.403 . S
C468 C469 1.404 . S
C468 C471 1.539 . S
C469 C465 1.408 . S
C469 C468 1.404 . S
C469 H481 0.930 . S
C470 C466 1.524 . S
C470 H482 0.956 . S
C470 H483 0.961 . S
C470 H484 0.961 . S
C471 C468 1.539 . S
C471 H485 0.958 . S
C471 H486 0.961 . S
C471 H487 0.960 . S
H472 C456 0.931 . S
H473 C461 0.929 . S
H474 C462 0.960 . S
H475 C462 0.962 . S
H476 C462 0.960 . S
H477 C463 0.961 . S
H478 C463 0.961 . S
H479 C463 0.961 . S
H480 C464 0.931 . S
H481 C469 0.930 . S
H482 C470 0.956 . S
H483 C470 0.961 . S
H484 C470 0.961 . S
H485 C471 0.958 . S
H486 C471 0.961 . S
H487 C471 0.960 . S
C488 C489 1.391 . S
C488 C490 1.394 . S
C488 H504 0.931 . S
C489 C488 1.391 . S
C489 C493 1.376 . S
C490 C488 1.394 . S
C490 C491 1.369 . S
C490 C494 1.531 . S
C491 C490 1.369 . S
C491 C492 1.410 . S
C491 C499 1.503 . S
C492 C491 1.410 . S
C492 C493 1.392 . S
C492 C495 1.511 . S
C493 C489 1.376 . S
C493 C492 1.392 . S
C493 H505 0.929 . S
C494 C490 1.531 . S
C494 H506 0.960 . S
C494 H507 0.962 . S
C494 H508 0.960 . S
C495 C492 1.511 . S
C495 H509 0.961 . S
C495 H510 0.961 . S
C495 H511 0.961 . S
C496 C497 1.370 . S
C496 C498 1.363 . S
C496 H512 0.931 . S
C497 C496 1.370 . S
C497 C501 1.408 . S
C498 C496 1.363 . S
C498 C499 1.370 . S
C498 C502 1.524 . S
C499 C491 1.503 . S
C499 C498 1.370 . S
C499 C500 1.403 . S
C500 C499 1.403 . S
C500 C501 1.404 . S
C500 C503 1.539 . S
C501 C497 1.408 . S
C501 C500 1.404 . S
C501 H513 0.930 . S
C502 C498 1.524 . S
C502 H514 0.956 . S
C502 H515 0.961 . S
C502 H516 0.961 . S
C503 C500 1.539 . S
C503 H517 0.958 . S
C503 H518 0.961 . S
C503 H519 0.960 . S
H504 C488 0.931 . S
H505 C493 0.929 . S
H506 C494 0.960 . S
H507 C494 0.962 . S
H508 C494 0.960 . S
H509 C495 0.961 . S
H510 C495 0.961 . S
H511 C495 0.961 . S
H512 C496 0.931 . S
H513 C501 0.930 . S
H514 C502 0.956 . S
H515 C502 0.961 . S
H516 C502 0.961 . S
H517 C503 0.958 . S
H518 C503 0.961 . S
H519 C503 0.960 . S
C520 C521 1.391 . S
C520 C522 1.394 . S
C520 H536 0.931 . S
C521 C520 1.391 . S
C521 C525 1.376 . S
C522 C520 1.394 . S
C522 C523 1.369 . S
C522 C526 1.531 . S
C523 C522 1.369 . S
C523 C524 1.410 . S
C523 C531 1.503 . S
C524 C523 1.410 . S
C524 C525 1.392 . S
C524 C527 1.511 . S
C525 C521 1.376 . S
C525 C524 1.392 . S
C525 H537 0.929 . S
C526 C522 1.531 . S
C526 H538 0.960 . S
C526 H539 0.962 . S
C526 H540 0.960 . S
C527 C524 1.511 . S
C527 H541 0.961 . S
C527 H542 0.961 . S
C527 H543 0.961 . S
C528 C529 1.370 . S
C528 C530 1.363 . S
C528 H544 0.925 1_565 S
C529 C528 1.370 . S
C529 C533 1.408 . S
C530 C528 1.363 . S
C530 C531 1.370 . S
C530 C534 1.524 . S
C531 C523 1.503 . S
C531 C530 1.370 . S
C531 C532 1.403 . S
C532 C531 1.403 . S
C532 C533 1.404 . S
C532 C535 1.539 . S
C533 C529 1.408 . S
C533 C532 1.404 . S
C533 H545 0.930 . S
C534 C530 1.524 . S
C534 H546 0.956 . S
C534 H547 0.961 . S
C534 H548 0.961 . S
C535 C532 1.539 . S
C535 H549 0.958 . S
C535 H550 0.961 . S
C535 H551 0.960 . S
H536 C520 0.931 . S
H537 C525 0.929 . S
H538 C526 0.960 . S
H539 C526 0.962 . S
H540 C526 0.960 . S
H541 C527 0.961 . S
H542 C527 0.961 . S
H543 C527 0.961 . S
H544 C528 0.925 1_545 S
H545 C533 0.930 . S
H546 C534 0.956 . S
H547 C534 0.961 . S
H548 C534 0.961 . S
H549 C535 0.958 . S
H550 C535 0.961 . S
H551 C535 0.960 . S
C552 C553 1.391 . S
C552 C554 1.394 . S
C552 H568 0.931 . S
C553 C552 1.391 . S
C553 C557 1.376 . S
C554 C552 1.394 . S
C554 C555 1.369 . S
C554 C558 1.531 . S
C555 C554 1.369 . S
C555 C556 1.410 . S
C555 C563 1.503 . S
C556 C555 1.410 . S
C556 C557 1.392 . S
C556 C559 1.511 . S
C557 C553 1.376 . S
C557 C556 1.392 . S
C557 H569 0.929 . S
C558 C554 1.531 . S
C558 H570 0.960 . S
C558 H571 0.962 . S
C558 H572 0.960 . S
C559 C556 1.511 . S
C559 H573 0.961 . S
C559 H574 0.961 . S
C559 H575 0.961 . S
C560 C561 1.370 . S
C560 C562 1.363 . S
C560 H576 0.931 . S
C561 C560 1.370 . S
C561 C565 1.408 . S
C562 C560 1.363 . S
C562 C563 1.370 . S
C562 C566 1.524 . S
C563 C555 1.503 . S
C563 C562 1.370 . S
C563 C564 1.403 . S
C564 C563 1.403 . S
C564 C565 1.404 . S
C564 C567 1.539 . S
C565 C561 1.408 . S
C565 C564 1.404 . S
C565 H577 0.930 . S
C566 C562 1.524 . S
C566 H578 0.956 . S
C566 H579 0.961 . S
C566 H580 0.961 . S
C567 C564 1.539 . S
C567 H581 0.958 . S
C567 H582 0.961 . S
C567 H583 0.960 . S
H568 C552 0.931 . S
H569 C557 0.929 . S
H570 C558 0.960 . S
H571 C558 0.962 . S
H572 C558 0.960 . S
H573 C559 0.961 . S
H574 C559 0.961 . S
H575 C559 0.961 . S
H576 C560 0.931 . S
H577 C565 0.930 . S
H578 C566 0.956 . S
H579 C566 0.961 . S
H580 C566 0.961 . S
H581 C567 0.958 . S
H582 C567 0.961 . S
H583 C567 0.960 . S
C584 C585 1.391 . S
C584 C586 1.394 . S
C584 H600 0.931 . S
C585 C584 1.391 . S
C585 C589 1.376 . S
C586 C584 1.394 . S
C586 C587 1.369 . S
C586 C590 1.531 . S
C587 C586 1.369 . S
C587 C588 1.410 . S
C587 C595 1.503 . S
C588 C587 1.410 . S
C588 C589 1.392 . S
C588 C591 1.511 . S
C589 C585 1.376 . S
C589 C588 1.392 . S
C589 H601 0.929 . S
C590 C586 1.531 . S
C590 H602 0.960 . S
C590 H603 0.962 . S
C590 H604 0.960 . S
C591 C588 1.511 . S
C591 H605 0.961 . S
C591 H606 0.961 . S
C591 H607 0.961 . S
C592 C593 1.370 . S
C592 C594 1.363 . S
C592 H608 0.931 . S
C593 C592 1.370 . S
C593 C597 1.408 . S
C594 C592 1.363 . S
C594 C595 1.370 . S
C594 C598 1.524 . S
C595 C587 1.503 . S
C595 C594 1.370 . S
C595 C596 1.403 . S
C596 C595 1.403 . S
C596 C597 1.404 . S
C596 C599 1.539 . S
C597 C593 1.408 . S
C597 C596 1.404 . S
C597 H609 0.930 . S
C598 C594 1.524 . S
C598 H610 0.956 . S
C598 H611 0.961 . S
C598 H612 0.961 . S
C599 C596 1.539 . S
C599 H613 0.958 . S
C599 H614 0.961 . S
C599 H615 0.960 . S
H600 C584 0.931 . S
H601 C589 0.929 . S
H602 C590 0.960 . S
H603 C590 0.962 . S
H604 C590 0.960 . S
H605 C591 0.961 . S
H606 C591 0.961 . S
H607 C591 0.961 . S
H608 C592 0.931 . S
H609 C597 0.930 . S
H610 C598 0.956 . S
H611 C598 0.961 . S
H612 C598 0.961 . S
H613 C599 0.958 . S
H614 C599 0.961 . S
H615 C599 0.960 . S
C616 C617 1.391 . S
C616 C618 1.394 . S
C616 H632 0.931 . S
C617 C616 1.391 . S
C617 C621 1.376 . S
C618 C616 1.394 . S
C618 C619 1.369 . S
C618 C622 1.531 . S
C619 C618 1.369 . S
C619 C620 1.410 . S
C619 C627 1.503 . S
C620 C619 1.410 . S
C620 C621 1.392 . S
C620 C623 1.511 . S
C621 C617 1.376 . S
C621 C620 1.392 . S
C621 H633 0.929 . S
C622 C618 1.531 . S
C622 H634 0.960 . S
C622 H635 0.962 . S
C622 H636 0.960 . S
C623 C620 1.511 . S
C623 H637 0.961 . S
C623 H638 0.961 . S
C623 H639 0.961 . S
C624 C625 1.370 . S
C624 C626 1.363 . S
C624 H640 0.931 . S
C625 C624 1.370 . S
C625 C629 1.408 . S
C626 C624 1.363 . S
C626 C627 1.370 . S
C626 C630 1.524 . S
C627 C619 1.503 . S
C627 C626 1.370 . S
C627 C628 1.403 . S
C628 C627 1.403 . S
C628 C629 1.404 . S
C628 C631 1.539 . S
C629 C625 1.408 . S
C629 C628 1.404 . S
C629 H641 0.930 . S
C630 C626 1.524 . S
C630 H642 0.956 . S
C630 H643 0.961 . S
C630 H644 0.961 . S
C631 C628 1.539 . S
C631 H645 0.958 . S
C631 H646 0.961 . S
C631 H647 0.960 . S
H632 C616 0.931 . S
H633 C621 0.929 . S
H634 C622 0.960 . S
H635 C622 0.962 . S
H636 C622 0.960 . S
H637 C623 0.961 . S
H638 C623 0.961 . S
H639 C623 0.961 . S
H640 C624 0.931 . S
H641 C629 0.930 . S
H642 C630 0.956 . S
H643 C630 0.961 . S
H644 C630 0.961 . S
H645 C631 0.958 . S
H646 C631 0.961 . S
H647 C631 0.960 . S
C648 C649 1.391 . S
C648 C650 1.394 . S
C648 H664 0.931 . S
C649 C648 1.391 . S
C649 C653 1.376 . S
C650 C648 1.394 . S
C650 C651 1.369 . S
C650 C654 1.531 . S
C651 C650 1.369 . S
C651 C652 1.410 . S
C651 C659 1.503 . S
C652 C651 1.410 . S
C652 C653 1.392 . S
C652 C655 1.511 . S
C653 C649 1.376 . S
C653 C652 1.392 . S
C653 H665 0.929 . S
C654 C650 1.531 . S
C654 H666 0.960 . S
C654 H667 0.962 . S
C654 H668 0.960 . S
C655 C652 1.511 . S
C655 H669 0.961 . S
C655 H670 0.961 . S
C655 H671 0.961 . S
C656 C657 1.370 . S
C656 C658 1.363 . S
C656 H672 0.931 . S
C657 C656 1.370 . S
C657 C661 1.408 . S
C658 C656 1.363 . S
C658 C659 1.370 . S
C658 C662 1.524 . S
C659 C651 1.503 . S
C659 C658 1.370 . S
C659 C660 1.403 . S
C660 C659 1.403 . S
C660 C661 1.404 . S
C660 C663 1.539 . S
C661 C657 1.408 . S
C661 C660 1.404 . S
C661 H673 0.930 . S
C662 C658 1.524 . S
C662 H674 0.956 . S
C662 H675 0.961 . S
C662 H676 0.961 . S
C663 C660 1.539 . S
C663 H677 0.958 . S
C663 H678 0.961 . S
C663 H679 0.960 . S
H664 C648 0.931 . S
H665 C653 0.929 . S
H666 C654 0.960 . S
H667 C654 0.962 . S
H668 C654 0.960 . S
H669 C655 0.961 . S
H670 C655 0.961 . S
H671 C655 0.961 . S
H672 C656 0.931 . S
H673 C661 0.930 . S
H674 C662 0.956 . S
H675 C662 0.961 . S
H676 C662 0.961 . S
H677 C663 0.958 . S
H678 C663 0.961 . S
H679 C663 0.960 . S
C680 C681 1.391 . S
C680 C682 1.394 . S
C680 H696 0.931 . S
C681 C680 1.391 . S
C681 C685 1.376 . S
C682 C680 1.394 . S
C682 C683 1.369 . S
C682 C686 1.531 . S
C683 C682 1.369 . S
C683 C684 1.410 . S
C683 C691 1.503 . S
C684 C683 1.410 . S
C684 C685 1.392 . S
C684 C687 1.511 . S
C685 C681 1.376 . S
C685 C684 1.392 . S
C685 H697 0.929 . S
C686 C682 1.531 . S
C686 H698 0.960 . S
C686 H699 0.962 . S
C686 H700 0.960 . S
C687 C684 1.511 . S
C687 H701 0.961 . S
C687 H702 0.961 . S
C687 H703 0.961 . S
C688 C689 1.370 . S
C688 C690 1.363 . S
C688 H704 0.931 . S
C689 C688 1.370 . S
C689 C693 1.408 . S
C690 C688 1.363 . S
C690 C691 1.370 . S
C690 C694 1.524 . S
C691 C683 1.503 . S
C691 C690 1.370 . S
C691 C692 1.403 . S
C692 C691 1.403 . S
C692 C693 1.404 . S
C692 C695 1.539 . S
C693 C689 1.408 . S
C693 C692 1.404 . S
C693 H705 0.930 . S
C694 C690 1.524 . S
C694 H706 0.956 . S
C694 H707 0.961 . S
C694 H708 0.961 . S
C695 C692 1.539 . S
C695 H709 0.958 . S
C695 H710 0.961 . S
C695 H711 0.960 . S
H696 C680 0.931 . S
H697 C685 0.929 . S
H698 C686 0.960 . S
H699 C686 0.962 . S
H700 C686 0.960 . S
H701 C687 0.961 . S
H702 C687 0.961 . S
H703 C687 0.961 . S
H704 C688 0.931 . S
H705 C693 0.930 . S
H706 C694 0.956 . S
H707 C694 0.961 . S
H708 C694 0.961 . S
H709 C695 0.958 . S
H710 C695 0.961 . S
H711 C695 0.960 . S
C712 C713 1.391 . S
C712 C714 1.394 . S
C712 H728 0.931 . S
C713 C712 1.391 . S
C713 C717 1.376 . S
C714 C712 1.394 . S
C714 C715 1.369 . S
C714 C718 1.531 . S
C715 C714 1.369 . S
C715 C716 1.410 . S
C715 C723 1.503 . S
C716 C715 1.410 . S
C716 C717 1.392 . S
C716 C719 1.511 . S
C717 C713 1.376 . S
C717 C716 1.392 . S
C717 H729 0.929 . S
C718 C714 1.531 . S
C718 H730 0.960 . S
C718 H731 0.962 . S
C718 H732 0.960 . S
C719 C716 1.511 . S
C719 H733 0.961 . S
C719 H734 0.961 . S
C719 H735 0.961 . S
C720 C721 1.370 . S
C720 C722 1.363 . S
C720 H736 0.931 . S
C721 C720 1.370 . S
C721 C725 1.408 . S
C722 C720 1.363 . S
C722 C723 1.370 . S
C722 C726 1.524 . S
C723 C715 1.503 . S
C723 C722 1.370 . S
C723 C724 1.403 . S
C724 C723 1.403 . S
C724 C725 1.404 . S
C724 C727 1.539 . S
C725 C721 1.408 . S
C725 C724 1.404 . S
C725 H737 0.930 . S
C726 C722 1.524 . S
C726 H738 0.956 . S
C726 H739 0.961 . S
C726 H740 0.961 . S
C727 C724 1.539 . S
C727 H741 0.958 . S
C727 H742 0.961 . S
C727 H743 0.960 . S
H728 C712 0.931 . S
H729 C717 0.929 . S
H730 C718 0.960 . S
H731 C718 0.962 . S
H732 C718 0.960 . S
H733 C719 0.961 . S
H734 C719 0.961 . S
H735 C719 0.961 . S
H736 C720 0.931 . S
H737 C725 0.930 . S
H738 C726 0.956 . S
H739 C726 0.961 . S
H740 C726 0.961 . S
H741 C727 0.958 . S
H742 C727 0.961 . S
H743 C727 0.960 . S
C744 C745 1.391 . S
C744 C746 1.394 . S
C744 H760 0.931 . S
C745 C744 1.391 . S
C745 C749 1.376 . S
C746 C744 1.394 . S
C746 C747 1.369 . S
C746 C750 1.531 . S
C747 C746 1.369 . S
C747 C748 1.410 . S
C747 C755 1.503 . S
C748 C747 1.410 . S
C748 C749 1.392 . S
C748 C751 1.511 . S
C749 C745 1.376 . S
C749 C748 1.392 . S
C749 H761 0.929 . S
C750 C746 1.531 . S
C750 H762 0.960 . S
C750 H763 0.962 . S
C750 H764 0.960 . S
C751 C748 1.511 . S
C751 H765 0.961 . S
C751 H766 0.961 . S
C751 H767 0.961 . S
C752 C753 1.370 . S
C752 C754 1.363 . S
C752 H768 0.931 . S
C753 C752 1.370 . S
C753 C757 1.408 . S
C754 C752 1.363 . S
C754 C755 1.370 . S
C754 C758 1.524 . S
C755 C747 1.503 . S
C755 C754 1.370 . S
C755 C756 1.403 . S
C756 C755 1.403 . S
C756 C757 1.404 . S
C756 C759 1.539 . S
C757 C753 1.408 . S
C757 C756 1.404 . S
C757 H769 0.930 . S
C758 C754 1.524 . S
C758 H770 0.956 . S
C758 H771 0.961 . S
C758 H772 0.961 . S
C759 C756 1.539 . S
C759 H773 0.958 . S
C759 H774 0.961 . S
C759 H775 0.960 . S
H760 C744 0.931 . S
H761 C749 0.929 . S
H762 C750 0.960 . S
H763 C750 0.962 . S
H764 C750 0.960 . S
H765 C751 0.961 . S
H766 C751 0.961 . S
H767 C751 0.961 . S
H768 C752 0.931 . S
H769 C757 0.930 . S
H770 C758 0.956 . S
H771 C758 0.961 . S
H772 C758 0.961 . S
H773 C759 0.958 . S
H774 C759 0.961 . S
H775 C759 0.960 . S
C776 C777 1.391 . S
C776 C778 1.394 . S
C776 H792 0.931 . S
C777 C776 1.391 . S
C777 C781 1.376 . S
C778 C776 1.394 . S
C778 C779 1.369 . S
C778 C782 1.531 . S
C779 C778 1.369 . S
C779 C780 1.410 . S
C779 C787 1.503 . S
C780 C779 1.410 . S
C780 C781 1.392 . S
C780 C783 1.511 . S
C781 C777 1.376 . S
C781 C780 1.392 . S
C781 H793 0.929 . S
C782 C778 1.531 . S
C782 H794 0.960 . S
C782 H795 0.962 . S
C782 H796 0.960 . S
C783 C780 1.511 . S
C783 H797 0.961 . S
C783 H798 0.961 . S
C783 H799 0.961 . S
C784 C785 1.370 . S
C784 C786 1.363 . S
C784 H800 0.931 . S
C785 C784 1.370 . S
C785 C789 1.408 . S
C786 C784 1.363 . S
C786 C787 1.370 . S
C786 C790 1.524 . S
C787 C779 1.503 . S
C787 C786 1.370 . S
C787 C788 1.403 . S
C788 C787 1.403 . S
C788 C789 1.404 . S
C788 C791 1.539 . S
C789 C785 1.408 . S
C789 C788 1.404 . S
C789 H801 0.930 . S
C790 C786 1.524 . S
C790 H802 0.956 . S
C790 H803 0.961 . S
C790 H804 0.961 . S
C791 C788 1.539 . S
C791 H805 0.958 . S
C791 H806 0.961 . S
C791 H807 0.960 . S
H792 C776 0.931 . S
H793 C781 0.929 . S
H794 C782 0.960 . S
H795 C782 0.962 . S
H796 C782 0.960 . S
H797 C783 0.961 . S
H798 C783 0.961 . S
H799 C783 0.961 . S
H800 C784 0.931 . S
H801 C789 0.930 . S
H802 C790 0.956 . S
H803 C790 0.961 . S
H804 C790 0.961 . S
H805 C791 0.958 . S
H806 C791 0.961 . S
H807 C791 0.960 . S
C808 C809 1.391 . S
C808 C810 1.394 . S
C808 H824 0.931 . S
C809 C808 1.391 . S
C809 C813 1.376 . S
C810 C808 1.394 . S
C810 C811 1.369 . S
C810 C814 1.531 . S
C811 C810 1.369 . S
C811 C812 1.410 . S
C811 C819 1.503 . S
C812 C811 1.410 . S
C812 C813 1.392 . S
C812 C815 1.511 . S
C813 C809 1.376 . S
C813 C812 1.392 . S
C813 H825 0.929 . S
C814 C810 1.531 . S
C814 H826 0.960 . S
C814 H827 0.962 . S
C814 H828 0.960 . S
C815 C812 1.511 . S
C815 H829 0.961 . S
C815 H830 0.961 . S
C815 H831 0.961 . S
C816 C817 1.370 . S
C816 C818 1.363 . S
C816 H832 0.931 . S
C817 C816 1.370 . S
C817 C821 1.408 . S
C818 C816 1.363 . S
C818 C819 1.370 . S
C818 C822 1.524 . S
C819 C811 1.503 . S
C819 C818 1.370 . S
C819 C820 1.403 . S
C820 C819 1.403 . S
C820 C821 1.404 . S
C820 C823 1.539 . S
C821 C817 1.408 . S
C821 C820 1.404 . S
C821 H833 0.930 . S
C822 C818 1.524 . S
C822 H834 0.956 . S
C822 H835 0.961 . S
C822 H836 0.961 . S
C823 C820 1.539 . S
C823 H837 0.958 . S
C823 H838 0.961 . S
C823 H839 0.960 . S
H824 C808 0.931 . S
H825 C813 0.929 . S
H826 C814 0.960 . S
H827 C814 0.962 . S
H828 C814 0.960 . S
H829 C815 0.961 . S
H830 C815 0.961 . S
H831 C815 0.961 . S
H832 C816 0.931 . S
H833 C821 0.930 . S
H834 C822 0.956 . S
H835 C822 0.961 . S
H836 C822 0.961 . S
H837 C823 0.958 . S
H838 C823 0.961 . S
H839 C823 0.960 . S
C840 C841 1.391 . S
C840 C842 1.394 . S
C840 H856 0.931 . S
C841 C840 1.391 . S
C841 C845 1.376 . S
C842 C840 1.394 . S
C842 C843 1.369 . S
C842 C846 1.531 . S
C843 C842 1.369 . S
C843 C844 1.410 . S
C843 C851 1.503 . S
C844 C843 1.410 . S
C844 C845 1.392 . S
C844 C847 1.511 . S
C845 C841 1.376 . S
C845 C844 1.392 . S
C845 H857 0.929 . S
C846 C842 1.531 . S
C846 H858 0.960 . S
C846 H859 0.962 . S
C846 H860 0.960 . S
C847 C844 1.511 . S
C847 H861 0.961 . S
C847 H862 0.961 . S
C847 H863 0.961 . S
C848 C849 1.370 . S
C848 C850 1.363 . S
C848 H864 0.931 . S
C849 C848 1.370 . S
C849 C853 1.408 . S
C850 C848 1.363 . S
C850 C851 1.370 . S
C850 C854 1.524 . S
C851 C843 1.503 . S
C851 C850 1.370 . S
C851 C852 1.403 . S
C852 C851 1.403 . S
C852 C853 1.404 . S
C852 C855 1.539 . S
C853 C849 1.408 . S
C853 C852 1.404 . S
C853 H865 0.930 . S
C854 C850 1.524 . S
C854 H866 0.956 . S
C854 H867 0.961 . S
C854 H868 0.961 . S
C855 C852 1.539 . S
C855 H869 0.958 . S
C855 H870 0.961 . S
C855 H871 0.960 . S
H856 C840 0.931 . S
H857 C845 0.929 . S
H858 C846 0.960 . S
H859 C846 0.962 . S
H860 C846 0.960 . S
H861 C847 0.961 . S
H862 C847 0.961 . S
H863 C847 0.961 . S
H864 C848 0.931 . S
H865 C853 0.930 . S
H866 C854 0.956 . S
H867 C854 0.961 . S
H868 C854 0.961 . S
H869 C855 0.958 . S
H870 C855 0.961 . S
H871 C855 0.960 . S
C872 C873 1.391 . S
C872 C874 1.394 . S
C872 H888 0.931 . S
C873 C872 1.391 . S
C873 C877 1.376 . S
C874 C872 1.394 . S
C874 C875 1.369 . S
C874 C878 1.531 . S
C875 C874 1.369 . S
C875 C876 1.410 . S
C875 C883 1.503 . S
C876 C875 1.410 . S
C876 C877 1.392 . S
C876 C879 1.511 . S
C877 C873 1.376 . S
C877 C876 1.392 . S
C877 H889 0.929 . S
C878 C874 1.531 . S
C878 H890 0.960 . S
C878 H891 0.962 . S
C878 H892 0.960 . S
C879 C876 1.511 . S
C879 H893 0.961 . S
C879 H894 0.961 . S
C879 H895 0.961 . S
C880 C881 1.370 . S
C880 C882 1.363 . S
C880 H896 0.931 . S
C881 C880 1.370 . S
C881 C885 1.408 . S
C882 C880 1.363 . S
C882 C883 1.370 . S
C882 C886 1.524 . S
C883 C875 1.503 . S
C883 C882 1.370 . S
C883 C884 1.403 . S
C884 C883 1.403 . S
C884 C885 1.404 . S
C884 C887 1.539 . S
C885 C881 1.408 . S
C885 C884 1.404 . S
C885 H897 0.930 . S
C886 C882 1.524 . S
C886 H898 0.956 . S
C886 H899 0.961 . S
C886 H900 0.961 . S
C887 C884 1.539 . S
C887 H901 0.958 . S
C887 H902 0.961 . S
C887 H903 0.960 . S
H888 C872 0.931 . S
H889 C877 0.929 . S
H890 C878 0.960 . S
H891 C878 0.962 . S
H892 C878 0.960 . S
H893 C879 0.961 . S
H894 C879 0.961 . S
H895 C879 0.961 . S
H896 C880 0.931 . S
H897 C885 0.930 . S
H898 C886 0.956 . S
H899 C886 0.961 . S
H900 C886 0.961 . S
H901 C887 0.958 . S
H902 C887 0.961 . S
H903 C887 0.960 . S
C904 C905 1.391 . S
C904 C906 1.394 . S
C904 H920 0.931 . S
C905 C904 1.391 . S
C905 C909 1.376 . S
C906 C904 1.394 . S
C906 C907 1.369 . S
C906 C910 1.531 . S
C907 C906 1.369 . S
C907 C908 1.410 . S
C907 C915 1.503 . S
C908 C907 1.410 . S
C908 C909 1.392 . S
C908 C911 1.511 . S
C909 C905 1.376 . S
C909 C908 1.392 . S
C909 H921 0.929 . S
C910 C906 1.531 . S
C910 H922 0.960 . S
C910 H923 0.962 . S
C910 H924 0.960 . S
C911 C908 1.511 . S
C911 H925 0.961 . S
C911 H926 0.961 . S
C911 H927 0.961 . S
C912 C913 1.370 . S
C912 C914 1.363 . S
C912 H928 0.931 . S
C913 C912 1.370 . S
C913 C917 1.408 . S
C914 C912 1.363 . S
C914 C915 1.370 . S
C914 C918 1.524 . S
C915 C907 1.503 . S
C915 C914 1.370 . S
C915 C916 1.403 . S
C916 C915 1.403 . S
C916 C917 1.404 . S
C916 C919 1.539 . S
C917 C913 1.408 . S
C917 C916 1.404 . S
C917 H929 0.930 . S
C918 C914 1.524 . S
C918 H930 0.956 . S
C918 H931 0.961 . S
C918 H932 0.961 . S
C919 C916 1.539 . S
C919 H933 0.958 . S
C919 H934 0.961 . S
C919 H935 0.960 . S
H920 C904 0.931 . S
H921 C909 0.929 . S
H922 C910 0.960 . S
H923 C910 0.962 . S
H924 C910 0.960 . S
H925 C911 0.961 . S
H926 C911 0.961 . S
H927 C911 0.961 . S
H928 C912 0.931 . S
H929 C917 0.930 . S
H930 C918 0.956 . S
H931 C918 0.961 . S
H932 C918 0.961 . S
H933 C919 0.958 . S
H934 C919 0.961 . S
H935 C919 0.960 . S
C936 C937 1.391 . S
C936 C938 1.394 . S
C936 H952 0.931 . S
C937 C936 1.391 . S
C937 C941 1.376 . S
C938 C936 1.394 . S
C938 C939 1.369 . S
C938 C942 1.531 . S
C939 C938 1.369 . S
C939 C940 1.410 . S
C939 C947 1.503 . S
C940 C939 1.410 . S
C940 C941 1.392 . S
C940 C943 1.511 . S
C941 C937 1.376 . S
C941 C940 1.392 . S
C941 H953 0.929 . S
C942 C938 1.531 . S
C942 H954 0.960 . S
C942 H955 0.962 . S
C942 H956 0.960 . S
C943 C940 1.511 . S
C943 H957 0.961 . S
C943 H958 0.961 . S
C943 H959 0.961 . S
C944 C945 1.370 . S
C944 C946 1.363 . S
C944 H960 0.931 . S
C945 C944 1.370 . S
C945 C949 1.408 . S
C946 C944 1.363 . S
C946 C947 1.370 . S
C946 C950 1.524 . S
C947 C939 1.503 . S
C947 C946 1.370 . S
C947 C948 1.403 . S
C948 C947 1.403 . S
C948 C949 1.404 . S
C948 C951 1.539 . S
C949 C945 1.408 . S
C949 C948 1.404 . S
C949 H961 0.930 . S
C950 C946 1.524 . S
C950 H962 0.956 . S
C950 H963 0.961 . S
C950 H964 0.961 . S
C951 C948 1.539 . S
C951 H965 0.958 . S
C951 H966 0.961 . S
C951 H967 0.960 . S
H952 C936 0.931 . S
H953 C941 0.929 . S
H954 C942 0.960 . S
H955 C942 0.962 . S
H956 C942 0.960 . S
H957 C943 0.961 . S
H958 C943 0.961 . S
H959 C943 0.961 . S
H960 C944 0.931 . S
H961 C949 0.930 . S
H962 C950 0.956 . S
H963 C950 0.961 . S
H964 C950 0.961 . S
H965 C951 0.958 . S
H966 C951 0.961 . S
H967 C951 0.960 . S
C968 C969 1.391 . S
C968 C970 1.394 . S
C968 H984 0.931 . S
C969 C968 1.391 . S
C969 C973 1.376 . S
C970 C968 1.394 . S
C970 C971 1.369 . S
C970 C974 1.531 . S
C971 C970 1.369 . S
C971 C972 1.410 . S
C971 C979 1.503 . S
C972 C971 1.410 . S
C972 C973 1.392 . S
C972 C975 1.511 . S
C973 C969 1.376 . S
C973 C972 1.392 . S
C973 H985 0.929 . S
C974 C970 1.531 . S
C974 H986 0.960 . S
C974 H987 0.962 . S
C974 H988 0.960 . S
C975 C972 1.511 . S
C975 H989 0.961 . S
C975 H990 0.961 . S
C975 H991 0.961 . S
C976 C977 1.370 . S
C976 C978 1.363 . S
C976 H992 0.931 . S
C977 C976 1.370 . S
C977 C981 1.408 . S
C978 C976 1.363 . S
C978 C979 1.370 . S
C978 C982 1.524 . S
C979 C971 1.503 . S
C979 C978 1.370 . S
C979 C980 1.403 . S
C980 C979 1.403 . S
C980 C981 1.404 . S
C980 C983 1.539 . S
C981 C977 1.408 . S
C981 C980 1.404 . S
C981 H993 0.930 . S
C982 C978 1.524 . S
C982 H994 0.956 . S
C982 H995 0.961 . S
C982 H996 0.961 . S
C983 C980 1.539 . S
C983 H997 0.958 . S
C983 H998 0.961 . S
C983 H999 0.960 . S
H984 C968 0.931 . S
H985 C973 0.929 . S
H986 C974 0.960 . S
H987 C974 0.962 . S
H988 C974 0.960 . S
H989 C975 0.961 . S
H990 C975 0.961 . S
H991 C975 0.961 . S
H992 C976 0.931 . S
H993 C981 0.930 . S
H994 C982 0.956 . S
H995 C982 0.961 . S
H996 C982 0.961 . S
H997 C983 0.958 . S
H998 C983 0.961 . S
H999 C983 0.960 . S
C1000 C1001 1.391 . S
C1000 C1002 1.394 . S
C1000 H1016 0.931 . S
C1001 C1000 1.391 . S
C1001 C1005 1.376 . S
C1002 C1000 1.394 . S
C1002 C1003 1.369 . S
C1002 C1006 1.531 . S
C1003 C1002 1.369 . S
C1003 C1004 1.410 . S
C1003 C1011 1.503 . S
C1004 C1003 1.410 . S
C1004 C1005 1.392 . S
C1004 C1007 1.511 . S
C1005 C1001 1.376 . S
C1005 C1004 1.392 . S
C1005 H1017 0.929 . S
C1006 C1002 1.531 . S
C1006 H1018 0.960 . S
C1006 H1019 0.962 . S
C1006 H1020 0.960 . S
C1007 C1004 1.511 . S
C1007 H1021 0.961 . S
C1007 H1022 0.961 . S
C1007 H1023 0.961 . S
C1008 C1009 1.370 . S
C1008 C1010 1.363 . S
C1008 H1024 0.931 . S
C1009 C1008 1.370 . S
C1009 C1013 1.408 . S
C1010 C1008 1.363 . S
C1010 C1011 1.370 . S
C1010 C1014 1.524 . S
C1011 C1003 1.503 . S
C1011 C1010 1.370 . S
C1011 C1012 1.403 . S
C1012 C1011 1.403 . S
C1012 C1013 1.404 . S
C1012 C1015 1.539 . S
C1013 C1009 1.408 . S
C1013 C1012 1.404 . S
C1013 H1025 0.930 . S
C1014 C1010 1.524 . S
C1014 H1026 0.956 . S
C1014 H1027 0.961 . S
C1014 H1028 0.961 . S
C1015 C1012 1.539 . S
C1015 H1029 0.958 . S
C1015 H1030 0.961 . S
C1015 H1031 0.960 . S
H1016 C1000 0.931 . S
H1017 C1005 0.929 . S
H1018 C1006 0.960 . S
H1019 C1006 0.962 . S
H1020 C1006 0.960 . S
H1021 C1007 0.961 . S
H1022 C1007 0.961 . S
H1023 C1007 0.961 . S
H1024 C1008 0.931 . S
H1025 C1013 0.930 . S
H1026 C1014 0.956 . S
H1027 C1014 0.961 . S
H1028 C1014 0.961 . S
H1029 C1015 0.958 . S
H1030 C1015 0.961 . S
H1031 C1015 0.960 . S
C1032 C1033 1.391 . S
C1032 C1034 1.394 . S
C1032 H1048 0.931 . S
C1033 C1032 1.391 . S
C1033 C1037 1.376 . S
C1034 C1032 1.394 . S
C1034 C1035 1.369 . S
C1034 C1038 1.531 . S
C1035 C1034 1.369 . S
C1035 C1036 1.410 . S
C1035 C1043 1.503 . S
C1036 C1035 1.410 . S
C1036 C1037 1.392 . S
C1036 C1039 1.511 . S
C1037 C1033 1.376 . S
C1037 C1036 1.392 . S
C1037 H1049 0.929 . S
C1038 C1034 1.531 . S
C1038 H1050 0.960 . S
C1038 H1051 0.962 . S
C1038 H1052 0.960 . S
C1039 C1036 1.511 . S
C1039 H1053 0.961 . S
C1039 H1054 0.961 . S
C1039 H1055 0.961 . S
C1040 C1041 1.370 . S
C1040 C1042 1.363 . S
C1040 H1056 0.931 . S
C1041 C1040 1.370 . S
C1041 C1045 1.408 . S
C1042 C1040 1.363 . S
C1042 C1043 1.370 . S
C1042 C1046 1.524 . S
C1043 C1035 1.503 . S
C1043 C1042 1.370 . S
C1043 C1044 1.403 . S
C1044 C1043 1.403 . S
C1044 C1045 1.404 . S
C1044 C1047 1.539 . S
C1045 C1041 1.408 . S
C1045 C1044 1.404 . S
C1045 H1057 0.930 . S
C1046 C1042 1.524 . S
C1046 H1058 0.956 . S
C1046 H1059 0.961 . S
C1046 H1060 0.961 . S
C1047 C1044 1.539 . S
C1047 H1061 0.958 . S
C1047 H1062 0.961 . S
C1047 H1063 0.960 . S
H1048 C1032 0.931 . S
H1049 C1037 0.929 . S
H1050 C1038 0.960 . S
H1051 C1038 0.962 . S
H1052 C1038 0.960 . S
H1053 C1039 0.961 . S
H1054 C1039 0.961 . S
H1055 C1039 0.961 . S
H1056 C1040 0.931 . S
H1057 C1045 0.930 . S
H1058 C1046 0.956 . S
H1059 C1046 0.961 . S
H1060 C1046 0.961 . S
H1061 C1047 0.958 . S
H1062 C1047 0.961 . S
H1063 C1047 0.960 . S
C1064 C1065 1.391 . S
C1064 C1066 1.394 . S
C1064 H1080 0.931 . S
C1065 C1064 1.391 . S
C1065 C1069 1.376 . S
C1066 C1064 1.394 . S
C1066 C1067 1.369 . S
C1066 C1070 1.531 . S
C1067 C1066 1.369 . S
C1067 C1068 1.410 . S
C1067 C1075 1.503 . S
C1068 C1067 1.410 . S
C1068 C1069 1.392 . S
C1068 C1071 1.511 . S
C1069 C1065 1.376 . S
C1069 C1068 1.392 . S
C1069 H1081 0.929 . S
C1070 C1066 1.531 . S
C1070 H1082 0.960 . S
C1070 H1083 0.962 . S
C1070 H1084 0.960 . S
C1071 C1068 1.511 . S
C1071 H1085 0.961 . S
C1071 H1086 0.961 . S
C1071 H1087 0.961 . S
C1072 C1073 1.370 . S
C1072 C1074 1.363 . S
C1072 H1088 0.931 . S
C1073 C1072 1.370 . S
C1073 C1077 1.408 . S
C1074 C1072 1.363 . S
C1074 C1075 1.370 . S
C1074 C1078 1.524 . S
C1075 C1067 1.503 . S
C1075 C1074 1.370 . S
C1075 C1076 1.403 . S
C1076 C1075 1.403 . S
C1076 C1077 1.404 . S
C1076 C1079 1.539 . S
C1077 C1073 1.408 . S
C1077 C1076 1.404 . S
C1077 H1089 0.930 . S
C1078 C1074 1.524 . S
C1078 H1090 0.956 . S
C1078 H1091 0.961 . S
C1078 H1092 0.961 . S
C1079 C1076 1.539 . S
C1079 H1093 0.958 . S
C1079 H1094 0.961 . S
C1079 H1095 0.960 . S
H1080 C1064 0.931 . S
H1081 C1069 0.929 . S
H1082 C1070 0.960 . S
H1083 C1070 0.962 . S
H1084 C1070 0.960 . S
H1085 C1071 0.961 . S
H1086 C1071 0.961 . S
H1087 C1071 0.961 . S
H1088 C1072 0.931 . S
H1089 C1077 0.930 . S
H1090 C1078 0.956 . S
H1091 C1078 0.961 . S
H1092 C1078 0.961 . S
H1093 C1079 0.958 . S
H1094 C1079 0.961 . S
H1095 C1079 0.960 . S
C1096 C1097 1.391 . S
C1096 C1098 1.394 . S
C1096 H1112 0.931 . S
C1097 C1096 1.391 . S
C1097 C1101 1.376 . S
C1098 C1096 1.394 . S
C1098 C1099 1.369 . S
C1098 C1102 1.531 . S
C1099 C1098 1.369 . S
C1099 C1100 1.410 . S
C1099 C1107 1.503 . S
C1100 C1099 1.410 . S
C1100 C1101 1.392 . S
C1100 C1103 1.511 . S
C1101 C1097 1.376 . S
C1101 C1100 1.392 . S
C1101 H1113 0.929 . S
C1102 C1098 1.531 . S
C1102 H1114 0.960 . S
C1102 H1115 0.962 . S
C1102 H1116 0.960 . S
C1103 C1100 1.511 . S
C1103 H1117 0.961 . S
C1103 H1118 0.961 . S
C1103 H1119 0.961 . S
C1104 C1105 1.370 . S
C1104 C1106 1.363 . S
C1104 H1120 0.931 . S
C1105 C1104 1.370 . S
C1105 C1109 1.408 . S
C1106 C1104 1.363 . S
C1106 C1107 1.370 . S
C1106 C1110 1.524 . S
C1107 C1099 1.503 . S
C1107 C1106 1.370 . S
C1107 C1108 1.403 . S
C1108 C1107 1.403 . S
C1108 C1109 1.404 . S
C1108 C1111 1.539 . S
C1109 C1105 1.408 . S
C1109 C1108 1.404 . S
C1109 H1121 0.930 . S
C1110 C1106 1.524 . S
C1110 H1122 0.956 . S
C1110 H1123 0.961 . S
C1110 H1124 0.961 . S
C1111 C1108 1.539 . S
C1111 H1125 0.958 . S
C1111 H1126 0.961 . S
C1111 H1127 0.960 . S
H1112 C1096 0.931 . S
H1113 C1101 0.929 . S
H1114 C1102 0.960 . S
H1115 C1102 0.962 . S
H1116 C1102 0.960 . S
H1117 C1103 0.961 . S
H1118 C1103 0.961 . S
H1119 C1103 0.961 . S
H1120 C1104 0.931 . S
H1121 C1109 0.930 . S
H1122 C1110 0.956 . S
H1123 C1110 0.961 . S
H1124 C1110 0.961 . S
H1125 C1111 0.958 . S
H1126 C1111 0.961 . S
H1127 C1111 0.960 . S
C1128 C1129 1.391 . S
C1128 C1130 1.394 . S
C1128 H1144 0.931 . S
C1129 C1128 1.391 . S
C1129 C1133 1.376 . S
C1130 C1128 1.394 . S
C1130 C1131 1.369 . S
C1130 C1134 1.531 . S
C1131 C1130 1.369 . S
C1131 C1132 1.410 . S
C1131 C1139 1.503 . S
C1132 C1131 1.410 . S
C1132 C1133 1.392 . S
C1132 C1135 1.511 . S
C1133 C1129 1.376 . S
C1133 C1132 1.392 . S
C1133 H1145 0.929 . S
C1134 C1130 1.531 . S
C1134 H1146 0.960 . S
C1134 H1147 0.962 . S
C1134 H1148 0.960 . S
C1135 C1132 1.511 . S
C1135 H1149 0.961 . S
C1135 H1150 0.961 . S
C1135 H1151 0.961 . S
C1136 C1137 1.370 . S
C1136 C1138 1.363 . S
C1136 H1152 0.931 . S
C1137 C1136 1.370 . S
C1137 C1141 1.408 . S
C1138 C1136 1.363 . S
C1138 C1139 1.370 . S
C1138 C1142 1.524 . S
C1139 C1131 1.503 . S
C1139 C1138 1.370 . S
C1139 C1140 1.403 . S
C1140 C1139 1.403 . S
C1140 C1141 1.404 . S
C1140 C1143 1.539 . S
C1141 C1137 1.408 . S
C1141 C1140 1.404 . S
C1141 H1153 0.930 . S
C1142 C1138 1.524 . S
C1142 H1154 0.956 . S
C1142 H1155 0.961 . S
C1142 H1156 0.961 . S
C1143 C1140 1.539 . S
C1143 H1157 0.958 . S
C1143 H1158 0.961 . S
C1143 H1159 0.960 . S
H1144 C1128 0.931 . S
H1145 C1133 0.929 . S
H1146 C1134 0.960 . S
H1147 C1134 0.962 . S
H1148 C1134 0.960 . S
H1149 C1135 0.961 . S
H1150 C1135 0.961 . S
H1151 C1135 0.961 . S
H1152 C1136 0.931 . S
H1153 C1141 0.930 . S
H1154 C1142 0.956 . S
H1155 C1142 0.961 . S
H1156 C1142 0.961 . S
H1157 C1143 0.958 . S
H1158 C1143 0.961 . S
H1159 C1143 0.960 . S
C1160 C1161 1.391 . S
C1160 C1162 1.394 . S
C1160 H1176 0.931 . S
C1161 C1160 1.391 . S
C1161 C1165 1.376 . S
C1162 C1160 1.394 . S
C1162 C1163 1.369 . S
C1162 C1166 1.531 . S
C1163 C1162 1.369 . S
C1163 C1164 1.410 . S
C1163 C1171 1.503 . S
C1164 C1163 1.410 . S
C1164 C1165 1.392 . S
C1164 C1167 1.511 . S
C1165 C1161 1.376 . S
C1165 C1164 1.392 . S
C1165 H1177 0.929 . S
C1166 C1162 1.531 . S
C1166 H1178 0.960 . S
C1166 H1179 0.962 . S
C1166 H1180 0.960 . S
C1167 C1164 1.511 . S
C1167 H1181 0.961 . S
C1167 H1182 0.961 . S
C1167 H1183 0.961 . S
C1168 C1169 1.370 . S
C1168 C1170 1.363 . S
C1168 H1184 0.931 . S
C1169 C1168 1.370 . S
C1169 C1173 1.408 . S
C1170 C1168 1.363 . S
C1170 C1171 1.370 . S
C1170 C1174 1.524 . S
C1171 C1163 1.503 . S
C1171 C1170 1.370 . S
C1171 C1172 1.403 . S
C1172 C1171 1.403 . S
C1172 C1173 1.404 . S
C1172 C1175 1.539 . S
C1173 C1169 1.408 . S
C1173 C1172 1.404 . S
C1173 H1185 0.930 . S
C1174 C1170 1.524 . S
C1174 H1186 0.956 . S
C1174 H1187 0.961 . S
C1174 H1188 0.961 . S
C1175 C1172 1.539 . S
C1175 H1189 0.958 . S
C1175 H1190 0.961 . S
C1175 H1191 0.960 . S
H1176 C1160 0.931 . S
H1177 C1165 0.929 . S
H1178 C1166 0.960 . S
H1179 C1166 0.962 . S
H1180 C1166 0.960 . S
H1181 C1167 0.961 . S
H1182 C1167 0.961 . S
H1183 C1167 0.961 . S
H1184 C1168 0.931 . S
H1185 C1173 0.930 . S
H1186 C1174 0.956 . S
H1187 C1174 0.961 . S
H1188 C1174 0.961 . S
H1189 C1175 0.958 . S
H1190 C1175 0.961 . S
H1191 C1175 0.960 . S
C1192 C1193 1.391 . S
C1192 C1194 1.394 . S
C1192 H1208 0.931 . S
C1193 C1192 1.391 . S
C1193 C1197 1.376 . S
C1194 C1192 1.394 . S
C1194 C1195 1.369 . S
C1194 C1198 1.531 . S
C1195 C1194 1.369 . S
C1195 C1196 1.410 . S
C1195 C1203 1.503 . S
C1196 C1195 1.410 . S
C1196 C1197 1.392 . S
C1196 C1199 1.511 . S
C1197 C1193 1.376 . S
C1197 C1196 1.392 . S
C1197 H1209 0.929 . S
C1198 C1194 1.531 . S
C1198 H1210 0.960 . S
C1198 H1211 0.962 . S
C1198 H1212 0.960 . S
C1199 C1196 1.511 . S
C1199 H1213 0.961 . S
C1199 H1214 0.961 . S
C1199 H1215 0.961 . S
C1200 C1201 1.370 . S
C1200 C1202 1.363 . S
C1200 H1216 0.931 . S
C1201 C1200 1.370 . S
C1201 C1205 1.408 . S
C1202 C1200 1.363 . S
C1202 C1203 1.370 . S
C1202 C1206 1.524 . S
C1203 C1195 1.503 . S
C1203 C1202 1.370 . S
C1203 C1204 1.403 . S
C1204 C1203 1.403 . S
C1204 C1205 1.404 . S
C1204 C1207 1.539 . S
C1205 C1201 1.408 . S
C1205 C1204 1.404 . S
C1205 H1217 0.930 . S
C1206 C1202 1.524 . S
C1206 H1218 0.956 . S
C1206 H1219 0.961 . S
C1206 H1220 0.961 . S
C1207 C1204 1.539 . S
C1207 H1221 0.958 . S
C1207 H1222 0.961 . S
C1207 H1223 0.960 . S
H1208 C1192 0.931 . S
H1209 C1197 0.929 . S
H1210 C1198 0.960 . S
H1211 C1198 0.962 . S
H1212 C1198 0.960 . S
H1213 C1199 0.961 . S
H1214 C1199 0.961 . S
H1215 C1199 0.961 . S
H1216 C1200 0.931 . S
H1217 C1205 0.930 . S
H1218 C1206 0.956 . S
H1219 C1206 0.961 . S
H1220 C1206 0.961 . S
H1221 C1207 0.958 . S
H1222 C1207 0.961 . S
H1223 C1207 0.960 . S
C1224 C1225 1.391 . S
C1224 C1226 1.394 . S
C1224 H1240 0.931 . S
C1225 C1224 1.391 . S
C1225 C1229 1.376 . S
C1226 C1224 1.394 . S
C1226 C1227 1.369 . S
C1226 C1230 1.531 . S
C1227 C1226 1.369 . S
C1227 C1228 1.410 . S
C1227 C1235 1.503 . S
C1228 C1227 1.410 . S
C1228 C1229 1.392 . S
C1228 C1231 1.511 . S
C1229 C1225 1.376 . S
C1229 C1228 1.392 . S
C1229 H1241 0.929 . S
C1230 C1226 1.531 . S
C1230 H1242 0.960 . S
C1230 H1243 0.962 . S
C1230 H1244 0.960 . S
C1231 C1228 1.511 . S
C1231 H1245 0.961 . S
C1231 H1246 0.961 . S
C1231 H1247 0.961 . S
C1232 C1233 1.370 . S
C1232 C1234 1.363 . S
C1232 H1248 0.931 . S
C1233 C1232 1.370 . S
C1233 C1237 1.408 . S
C1234 C1232 1.363 . S
C1234 C1235 1.370 . S
C1234 C1238 1.524 . S
C1235 C1227 1.503 . S
C1235 C1234 1.370 . S
C1235 C1236 1.403 . S
C1236 C1235 1.403 . S
C1236 C1237 1.404 . S
C1236 C1239 1.539 . S
C1237 C1233 1.408 . S
C1237 C1236 1.404 . S
C1237 H1249 0.930 . S
C1238 C1234 1.524 . S
C1238 H1250 0.956 . S
C1238 H1251 0.961 . S
C1238 H1252 0.961 . S
C1239 C1236 1.539 . S
C1239 H1253 0.958 . S
C1239 H1254 0.961 . S
C1239 H1255 0.960 . S
H1240 C1224 0.931 . S
H1241 C1229 0.929 . S
H1242 C1230 0.960 . S
H1243 C1230 0.962 . S
H1244 C1230 0.960 . S
H1245 C1231 0.961 . S
H1246 C1231 0.961 . S
H1247 C1231 0.961 . S
H1248 C1232 0.931 . S
H1249 C1237 0.930 . S
H1250 C1238 0.956 . S
H1251 C1238 0.961 . S
H1252 C1238 0.961 . S
H1253 C1239 0.958 . S
H1254 C1239 0.961 . S
H1255 C1239 0.960 . S
C1256 C1257 1.391 . S
C1256 C1258 1.394 . S
C1256 H1272 0.931 . S
C1257 C1256 1.391 . S
C1257 C1261 1.376 . S
C1258 C1256 1.394 . S
C1258 C1259 1.369 . S
C1258 C1262 1.531 . S
C1259 C1258 1.369 . S
C1259 C1260 1.410 . S
C1259 C1267 1.503 . S
C1260 C1259 1.410 . S
C1260 C1261 1.392 . S
C1260 C1263 1.511 . S
C1261 C1257 1.376 . S
C1261 C1260 1.392 . S
C1261 H1273 0.929 . S
C1262 C1258 1.531 . S
C1262 H1274 0.960 . S
C1262 H1275 0.962 . S
C1262 H1276 0.960 . S
C1263 C1260 1.511 . S
C1263 H1277 0.961 . S
C1263 H1278 0.961 . S
C1263 H1279 0.961 . S
C1264 C1265 1.370 . S
C1264 C1266 1.363 . S
C1264 H1280 0.931 . S
C1265 C1264 1.370 . S
C1265 C1269 1.408 . S
C1266 C1264 1.363 . S
C1266 C1267 1.370 . S
C1266 C1270 1.524 . S
C1267 C1259 1.503 . S
C1267 C1266 1.370 . S
C1267 C1268 1.403 . S
C1268 C1267 1.403 . S
C1268 C1269 1.404 . S
C1268 C1271 1.539 . S
C1269 C1265 1.408 . S
C1269 C1268 1.404 . S
C1269 H1281 0.930 . S
C1270 C1266 1.524 . S
C1270 H1282 0.956 . S
C1270 H1283 0.961 . S
C1270 H1284 0.961 . S
C1271 C1268 1.539 . S
C1271 H1285 0.958 . S
C1271 H1286 0.961 . S
C1271 H1287 0.960 . S
H1272 C1256 0.931 . S
H1273 C1261 0.929 . S
H1274 C1262 0.960 . S
H1275 C1262 0.962 . S
H1276 C1262 0.960 . S
H1277 C1263 0.961 . S
H1278 C1263 0.961 . S
H1279 C1263 0.961 . S
H1280 C1264 0.931 . S
H1281 C1269 0.930 . S
H1282 C1270 0.956 . S
H1283 C1270 0.961 . S
H1284 C1270 0.961 . S
H1285 C1271 0.958 . S
H1286 C1271 0.961 . S
H1287 C1271 0.960 . S
C1288 C1289 1.391 . S
C1288 C1290 1.394 . S
C1288 H1304 0.931 . S
C1289 C1288 1.391 . S
C1289 C1293 1.376 . S
C1290 C1288 1.394 . S
C1290 C1291 1.369 . S
C1290 C1294 1.531 . S
C1291 C1290 1.369 . S
C1291 C1292 1.410 . S
C1291 C1299 1.503 . S
C1292 C1291 1.410 . S
C1292 C1293 1.392 . S
C1292 C1295 1.511 . S
C1293 C1289 1.376 . S
C1293 C1292 1.392 . S
C1293 H1305 0.929 . S
C1294 C1290 1.531 . S
C1294 H1306 0.960 . S
C1294 H1307 0.962 . S
C1294 H1308 0.960 . S
C1295 C1292 1.511 . S
C1295 H1309 0.961 . S
C1295 H1310 0.961 . S
C1295 H1311 0.961 . S
C1296 C1297 1.370 . S
C1296 C1298 1.363 . S
C1296 H1312 0.931 . S
C1297 C1296 1.370 . S
C1297 C1301 1.408 . S
C1298 C1296 1.363 . S
C1298 C1299 1.370 . S
C1298 C1302 1.524 . S
C1299 C1291 1.503 . S
C1299 C1298 1.370 . S
C1299 C1300 1.403 . S
C1300 C1299 1.403 . S
C1300 C1301 1.404 . S
C1300 C1303 1.539 . S
C1301 C1297 1.408 . S
C1301 C1300 1.404 . S
C1301 H1313 0.930 . S
C1302 C1298 1.524 . S
C1302 H1314 0.956 . S
C1302 H1315 0.961 . S
C1302 H1316 0.961 . S
C1303 C1300 1.539 . S
C1303 H1317 0.958 . S
C1303 H1318 0.961 . S
C1303 H1319 0.960 . S
H1304 C1288 0.931 . S
H1305 C1293 0.929 . S
H1306 C1294 0.960 . S
H1307 C1294 0.962 . S
H1308 C1294 0.960 . S
H1309 C1295 0.961 . S
H1310 C1295 0.961 . S
H1311 C1295 0.961 . S
H1312 C1296 0.931 . S
H1313 C1301 0.930 . S
H1314 C1302 0.956 . S
H1315 C1302 0.961 . S
H1316 C1302 0.961 . S
H1317 C1303 0.958 . S
H1318 C1303 0.961 . S
H1319 C1303 0.960 . S
C305 C185 1.564 . S
C297 C16 1.563 . S
C337 C211 1.570 . S
C329 C30 1.588 . S
C369 C225 1.575 . S
C361 C53 1.591 . S
C401 C227 1.606 . S
C393 C76 1.627 . S
C425 N104 1.453 . S
C433 C224 1.461 . S
C465 C226 1.501 . S
C457 N127 1.427 . S
C497 C184 1.471 1_655 S
C489 N140 1.424 . S
C529 C210 1.468 1_565 S
C521 N173 1.413 . S
C561 C212 1.586 . S
C553 C168 1.582 . S
C593 C238 1.586 . S
C585 C99 1.593 . S
C625 C196 1.578 . S
C617 C122 1.576 . S
C657 C198 1.558 . S
C649 C154 1.557 . S
C689 C197 1.478 1_655 S
C681 N35 1.414 . S
C721 C199 1.462 1_565 S
C713 N58 1.449 . S
C753 C213 1.473 . S
C745 N81 1.405 . S
C785 C239 1.487 . S
C777 N2 1.459 . S
C817 C241 1.565 . S
C809 C177 1.574 . S
C841 C108 1.588 . S
C849 C267 1.580 . S
C873 C131 1.576 . S
C881 C280 1.578 . S
C905 C145 1.598 . S
C913 C283 1.602 . S
C937 N25 1.446 . S
C945 C281 1.465 . S
C969 N48 1.462 . S
C977 C282 1.500 . S
C1001 N71 1.452 . S
C1009 C240 1.470 . S
C1041 C266 1.484 . S
C1033 N12 1.442 . S
C1073 C269 1.577 . S
C1065 C7 1.585 . S
C1097 C39 1.576 . S
C1105 C294 1.581 . S
C1129 C62 1.559 . S
C1137 C252 1.574 . S
C1161 C85 1.550 . S
C1169 C254 1.567 . S
C1201 C253 1.472 . S
C1193 N94 1.458 . S
C1233 C255 1.468 . S
C1225 N117 1.432 . S
C1257 N150 1.429 . S
C1265 C268 1.469 . S
C1297 C295 1.480 . S
C1289 N163 1.467 . S
