# Generated by pormake.
# Topology ctn, (3,4)-cn, num edge types: 1
# Building blocks:
#     Node 0, Type 0, BuildingBlock: WUSLED_clean_sbu_0, # of connection points: 3
#     Node 1, Type 0, BuildingBlock: WUSLED_clean_sbu_0, # of connection points: 3
#     Node 2, Type 0, BuildingBlock: WUSLED_clean_sbu_0, # of connection points: 3
#     Node 3, Type 0, BuildingBlock: WUSLED_clean_sbu_0, # of connection points: 3
#     Node 4, Type 0, BuildingBlock: WUSLED_clean_sbu_0, # of connection points: 3
#     Node 5, Type 0, BuildingBlock: WUSLED_clean_sbu_0, # of connection points: 3
#     Node 6, Type 0, BuildingBlock: WUSLED_clean_sbu_0, # of connection points: 3
#     Node 7, Type 0, BuildingBlock: WUSLED_clean_sbu_0, # of connection points: 3
#     Node 8, Type 0, BuildingBlock: WUSLED_clean_sbu_0, # of connection points: 3
#     Node 9, Type 0, BuildingBlock: WUSLED_clean_sbu_0, # of connection points: 3
#     Node 10, Type 0, BuildingBlock: WUSLED_clean_sbu_0, # of connection points: 3
#     Node 11, Type 0, BuildingBlock: WUSLED_clean_sbu_0, # of connection points: 3
#     Node 12, Type 0, BuildingBlock: WUSLED_clean_sbu_0, # of connection points: 3
#     Node 13, Type 0, BuildingBlock: WUSLED_clean_sbu_0, # of connection points: 3
#     Node 14, Type 0, BuildingBlock: WUSLED_clean_sbu_0, # of connection points: 3
#     Node 15, Type 0, BuildingBlock: WUSLED_clean_sbu_0, # of connection points: 3
#     Node 16, Type 1, BuildingBlock: NAHDIM_clean_sbu_0, # of connection points: 4
#     Node 17, Type 1, BuildingBlock: NAHDIM_clean_sbu_0, # of connection points: 4
#     Node 18, Type 1, BuildingBlock: NAHDIM_clean_sbu_0, # of connection points: 4
#     Node 19, Type 1, BuildingBlock: NAHDIM_clean_sbu_0, # of connection points: 4
#     Node 20, Type 1, BuildingBlock: NAHDIM_clean_sbu_0, # of connection points: 4
#     Node 21, Type 1, BuildingBlock: NAHDIM_clean_sbu_0, # of connection points: 4
#     Node 22, Type 1, BuildingBlock: NAHDIM_clean_sbu_0, # of connection points: 4
#     Node 23, Type 1, BuildingBlock: NAHDIM_clean_sbu_0, # of connection points: 4
#     Node 24, Type 1, BuildingBlock: NAHDIM_clean_sbu_0, # of connection points: 4
#     Node 25, Type 1, BuildingBlock: NAHDIM_clean_sbu_0, # of connection points: 4
#     Node 26, Type 1, BuildingBlock: NAHDIM_clean_sbu_0, # of connection points: 4
#     Node 27, Type 1, BuildingBlock: NAHDIM_clean_sbu_0, # of connection points: 4
#     Edge 28, Type (0, 1), BuildingBlock: CIFDUS_clean_linker_0, # of connection points: 2
#     Edge 29, Type (0, 1), BuildingBlock: CIFDUS_clean_linker_0, # of connection points: 2
#     Edge 30, Type (0, 1), BuildingBlock: CIFDUS_clean_linker_0, # of connection points: 2
#     Edge 31, Type (0, 1), BuildingBlock: CIFDUS_clean_linker_0, # of connection points: 2
#     Edge 32, Type (0, 1), BuildingBlock: CIFDUS_clean_linker_0, # of connection points: 2
#     Edge 33, Type (0, 1), BuildingBlock: CIFDUS_clean_linker_0, # of connection points: 2
#     Edge 34, Type (0, 1), BuildingBlock: CIFDUS_clean_linker_0, # of connection points: 2
#     Edge 35, Type (0, 1), BuildingBlock: CIFDUS_clean_linker_0, # of connection points: 2
#     Edge 36, Type (0, 1), BuildingBlock: CIFDUS_clean_linker_0, # of connection points: 2
#     Edge 37, Type (0, 1), BuildingBlock: CIFDUS_clean_linker_0, # of connection points: 2
#     Edge 38, Type (0, 1), BuildingBlock: CIFDUS_clean_linker_0, # of connection points: 2
#     Edge 39, Type (0, 1), BuildingBlock: CIFDUS_clean_linker_0, # of connection points: 2
#     Edge 40, Type (0, 1), BuildingBlock: CIFDUS_clean_linker_0, # of connection points: 2
#     Edge 41, Type (0, 1), BuildingBlock: CIFDUS_clean_linker_0, # of connection points: 2
#     Edge 42, Type (0, 1), BuildingBlock: CIFDUS_clean_linker_0, # of connection points: 2
#     Edge 43, Type (0, 1), BuildingBlock: CIFDUS_clean_linker_0, # of connection points: 2
#     Edge 44, Type (0, 1), BuildingBlock: CIFDUS_clean_linker_0, # of connection points: 2
#     Edge 45, Type (0, 1), BuildingBlock: CIFDUS_clean_linker_0, # of connection points: 2
#     Edge 46, Type (0, 1), BuildingBlock: CIFDUS_clean_linker_0, # of connection points: 2
#     Edge 47, Type (0, 1), BuildingBlock: CIFDUS_clean_linker_0, # of connection points: 2
#     Edge 48, Type (0, 1), BuildingBlock: CIFDUS_clean_linker_0, # of connection points: 2
#     Edge 49, Type (0, 1), BuildingBlock: CIFDUS_clean_linker_0, # of connection points: 2
#     Edge 50, Type (0, 1), BuildingBlock: CIFDUS_clean_linker_0, # of connection points: 2
#     Edge 51, Type (0, 1), BuildingBlock: CIFDUS_clean_linker_0, # of connection points: 2
#     Edge 52, Type (0, 1), BuildingBlock: CIFDUS_clean_linker_0, # of connection points: 2
#     Edge 53, Type (0, 1), BuildingBlock: CIFDUS_clean_linker_0, # of connection points: 2
#     Edge 54, Type (0, 1), BuildingBlock: CIFDUS_clean_linker_0, # of connection points: 2
#     Edge 55, Type (0, 1), BuildingBlock: CIFDUS_clean_linker_0, # of connection points: 2
#     Edge 56, Type (0, 1), BuildingBlock: CIFDUS_clean_linker_0, # of connection points: 2
#     Edge 57, Type (0, 1), BuildingBlock: CIFDUS_clean_linker_0, # of connection points: 2
#     Edge 58, Type (0, 1), BuildingBlock: CIFDUS_clean_linker_0, # of connection points: 2
#     Edge 59, Type (0, 1), BuildingBlock: CIFDUS_clean_linker_0, # of connection points: 2
#     Edge 60, Type (0, 1), BuildingBlock: CIFDUS_clean_linker_0, # of connection points: 2
#     Edge 61, Type (0, 1), BuildingBlock: CIFDUS_clean_linker_0, # of connection points: 2
#     Edge 62, Type (0, 1), BuildingBlock: CIFDUS_clean_linker_0, # of connection points: 2
#     Edge 63, Type (0, 1), BuildingBlock: CIFDUS_clean_linker_0, # of connection points: 2
#     Edge 64, Type (0, 1), BuildingBlock: CIFDUS_clean_linker_0, # of connection points: 2
#     Edge 65, Type (0, 1), BuildingBlock: CIFDUS_clean_linker_0, # of connection points: 2
#     Edge 66, Type (0, 1), BuildingBlock: CIFDUS_clean_linker_0, # of connection points: 2
#     Edge 67, Type (0, 1), BuildingBlock: CIFDUS_clean_linker_0, # of connection points: 2
#     Edge 68, Type (0, 1), BuildingBlock: CIFDUS_clean_linker_0, # of connection points: 2
#     Edge 69, Type (0, 1), BuildingBlock: CIFDUS_clean_linker_0, # of connection points: 2
#     Edge 70, Type (0, 1), BuildingBlock: CIFDUS_clean_linker_0, # of connection points: 2
#     Edge 71, Type (0, 1), BuildingBlock: CIFDUS_clean_linker_0, # of connection points: 2
#     Edge 72, Type (0, 1), BuildingBlock: CIFDUS_clean_linker_0, # of connection points: 2
#     Edge 73, Type (0, 1), BuildingBlock: CIFDUS_clean_linker_0, # of connection points: 2
#     Edge 74, Type (0, 1), BuildingBlock: CIFDUS_clean_linker_0, # of connection points: 2
#     Edge 75, Type (0, 1), BuildingBlock: CIFDUS_clean_linker_0, # of connection points: 2
# Relax obj value: 0.002
# Max RMSD: 0.033
# Mean RMSD: 0.019
data_MOF--net-ctn--node1-WUSLED_clean_sbu_0--node2-NAHDIM_clean_sbu_0--edge1-CIFDUS_clean_linker_0
_symmetry_space_group_name_H-M    P1
_symmetry_Int_Tables_number       1
_symmetry_cell_setting            triclinic
loop_
_symmetry_equiv_pos_as_xyz
'x, y, z'
_cell_length_a     63.577526
_cell_length_b     64.067319
_cell_length_c     63.421203
_cell_angle_alpha  91.661364
_cell_angle_beta   90.00584
_cell_angle_gamma 91.9341
loop_
_atom_site_label
_atom_site_type_symbol
_atom_site_fract_x
_atom_site_fract_y
_atom_site_fract_z
_atom_type_partial_charge
C0 C 0.0196 0.07552 0.10732 0.0
C1 C 0.02978 0.06336 0.12202 0.0
C2 C 0.99918 0.06454 0.14518 0.0
C3 C 0.01969 0.05798 0.14082 0.0
C4 C 0.98895 0.07639 0.13018 0.0
C5 C 0.99909 0.08184 0.11146 0.0
U6 U 0.06171 0.06956 0.06446 0.0
O7 O 0.05937 0.07395 0.03025 0.0
O8 O 0.08145 0.09363 0.04928 0.0
C9 C 0.07258 0.09019 0.03073 0.0
C10 C 0.03019 0.08211 0.08784 0.0
C11 C 0.06531 0.1089 0.02035 0.0
C12 C 0.0424 0.13846 0.01905 0.0
C13 C 0.04872 0.12036 0.0288 0.0
C14 C 0.06903 0.13367 0.99219 0.0
C15 C 0.05254 0.1454 1.00066 0.0
C16 C 0.07534 0.11561 1.00197 0.0
C17 C 0.10012 0.02471 0.06689 0.0
C18 C 0.1285 0.01972 0.04174 0.0
C19 C 0.12256 0.99494 0.06943 0.0
C20 C 0.10571 1.0065 0.07691 0.0
C21 C 0.1342 1.00139 0.05175 0.0
C22 C 0.1116 0.03129 0.04926 0.0
C23 C 0.08228 0.03653 0.07507 0.0
O24 O 0.04959 0.08959 0.0901 0.0
O25 O 0.02773 0.06933 0.07138 0.0
O26 O 0.06519 0.03548 0.06337 0.0
O27 O 0.08691 0.0555 0.08248 0.0
H28 H 0.04559 0.05819 0.11903 0.0
H29 H 0.02791 0.04863 0.15193 0.0
H30 H 0.97327 0.0819 0.13314 0.0
H31 H 0.99099 0.09124 0.1003 0.0
H32 H 0.02949 0.14696 0.02586 0.0
H33 H 0.04076 0.11536 0.04299 0.0
H34 H 0.07739 0.1387 0.97825 0.0
H35 H 0.08823 0.10698 0.99527 0.0
H36 H 0.13723 0.02526 0.02824 0.0
H37 H 0.12625 0.98075 0.07732 0.0
H38 H 0.09695 1.00115 0.0905 0.0
H39 H 0.1075 0.04536 0.04135 0.0
C40 C 0.28429 0.76193 0.1853 0.0
C41 C 0.30246 0.7738 0.18021 0.0
C42 C 0.28245 0.79325 0.15494 0.0
C43 C 0.30156 0.7893 0.16509 0.0
C44 C 0.26433 0.78133 0.16025 0.0
C45 C 0.26526 0.76585 0.17526 0.0
U46 U 0.30817 0.73442 0.2325 0.0
O47 O 0.29186 0.72002 0.25932 0.0
O48 O 0.31055 0.70077 0.23772 0.0
C49 C 0.29736 0.70108 0.25369 0.0
C50 C 0.28468 0.74527 0.2008 0.0
C51 C 0.28012 0.68515 0.25281 0.0
C52 C 0.25009 0.66805 0.23497 0.0
C53 C 0.26649 0.68322 0.23541 0.0
C54 C 0.26074 0.6567 0.26935 0.0
C55 C 0.24701 0.65458 0.25195 0.0
C56 C 0.27713 0.67182 0.26975 0.0
C57 C 0.35858 0.75627 0.25996 0.0
C58 C 0.38756 0.73934 0.27697 0.0
C59 C 0.37805 0.77406 0.28866 0.0
C60 C 0.36205 0.77377 0.2735 0.0
C61 C 0.39109 0.7569 0.29049 0.0
C62 C 0.37143 0.73898 0.26191 0.0
C63 C 0.34197 0.75677 0.2436 0.0
O64 O 0.30001 0.73208 0.1988 0.0
O65 O 0.28112 0.75108 0.22048 0.0
O66 O 0.32301 0.76099 0.25041 0.0
O67 O 0.34194 0.74197 0.22878 0.0
H68 H 0.3173 0.77106 0.18788 0.0
H69 H 0.31576 0.79832 0.16151 0.0
H70 H 0.24943 0.78373 0.15255 0.0
H71 H 0.25109 0.75681 0.17894 0.0
H72 H 0.23998 0.66673 0.22122 0.0
H73 H 0.26855 0.69343 0.22218 0.0
H74 H 0.25865 0.64687 0.28285 0.0
H75 H 0.28743 0.67319 0.28337 0.0
H76 H 0.39721 0.7258 0.27813 0.0
H77 H 0.3805 0.78793 0.29865 0.0
H78 H 0.35246 0.78734 0.27223 0.0
H79 H 0.36914 0.72521 0.25175 0.0
C80 C 0.96866 0.43912 1.01185 0.0
C81 C 0.98374 0.42614 0.02019 0.0
C82 C 0.98118 0.40327 0.98877 0.0
C83 C 0.98993 0.40833 1.00876 0.0
C84 C 0.96606 0.41639 0.98058 0.0
C85 C 0.95988 0.43412 0.99202 0.0
U86 U 0.97235 0.47881 0.05838 0.0
O87 O 0.96914 0.51292 0.05849 0.0
O88 O 0.9469 0.49343 0.07638 0.0
C89 C 0.95167 0.51219 0.06956 0.0
C90 C 0.96177 0.45785 0.02353 0.0
C91 C 0.93406 0.52356 0.06085 0.0
C92 C 0.90506 0.52599 0.03614 0.0
C93 C 0.92171 0.5149 0.04426 0.0
C94 C 0.91305 0.55456 0.06102 0.0
C95 C 0.9005 0.54597 0.04443 0.0
C96 C 0.92965 0.54344 0.06914 0.0
C97 C 1.01404 0.47312 0.10176 0.0
C98 C 1.01303 0.48443 0.13872 0.0
C99 C 0.04638 0.47681 0.12226 0.0
C100 C 0.03598 0.47195 0.10321 0.0
C101 C 0.035 0.48282 0.14032 0.0
C102 C 1.00265 0.47971 0.1196 0.0
C103 C 1.00342 0.46654 0.08182 0.0
O104 O 0.9528 0.45453 0.04186 0.0
O105 O 0.97518 0.47392 0.02401 0.0
O106 O 1.00624 0.47902 0.06591 0.0
O107 O 0.98395 0.45913 0.08338 0.0
H108 H 0.99072 0.42981 0.0355 0.0
H109 H 1.00175 0.39868 0.01544 0.0
H110 H 0.95876 0.41281 0.96542 0.0
H111 H 0.94816 0.44393 0.98538 0.0
H112 H 0.89561 0.51878 0.02354 0.0
H113 H 0.92492 0.49956 0.03764 0.0
H114 H 0.91025 0.57001 0.06756 0.0
H115 H 0.93911 0.55042 0.08187 0.0
H116 H 1.00385 0.48925 0.15229 0.0
H117 H 0.06327 0.47521 0.123 0.0
H118 H 0.04506 0.46687 0.08966 0.0
H119 H 0.98572 0.48091 0.11888 0.0
C120 C 0.7226 0.77198 0.18681 0.0
C121 C 0.71871 0.75044 0.1839 0.0
C122 C 0.73856 0.75054 0.151 0.0
C123 C 0.72662 0.73981 0.16621 0.0
C124 C 0.74247 0.7722 0.15405 0.0
C125 C 0.73461 0.78281 0.17182 0.0
U126 U 0.72396 0.81715 0.2276 0.0
O127 O 0.69819 0.83439 0.24224 0.0
O128 O 0.71907 0.81658 0.262 0.0
C129 C 0.70179 0.82721 0.26107 0.0
C130 C 0.71426 0.78277 0.20568 0.0
C131 C 0.68338 0.81822 0.27223 0.0
C132 C 0.66521 0.81172 0.30526 0.0
C133 C 0.68264 0.81975 0.29431 0.0
C134 C 0.64896 0.8004 0.27216 0.0
C135 C 0.64805 0.80206 0.29433 0.0
C136 C 0.66647 0.80833 0.26122 0.0
C137 C 0.7669 0.86063 0.22276 0.0
C138 C 0.77726 0.88636 0.2501 0.0
C139 C 0.78985 0.8903 0.21434 0.0
C140 C 0.77874 0.87197 0.20809 0.0
C141 C 0.78936 0.89768 0.23544 0.0
C142 C 0.76606 0.86801 0.2438 0.0
C143 C 0.75601 0.84099 0.21577 0.0
O144 O 0.72656 0.78321 0.22235 0.0
O145 O 0.70548 0.80071 0.20253 0.0
O146 O 0.73684 0.84271 0.20842 0.0
O147 O 0.75788 0.82504 0.22815 0.0
H148 H 0.70961 0.7418 0.1954 0.0
H149 H 0.72361 0.7231 0.16462 0.0
H150 H 0.7514 0.78101 0.14258 0.0
H151 H 0.73787 0.79945 0.17385 0.0
H152 H 0.66528 0.81295 0.32233 0.0
H153 H 0.69558 0.82721 0.30311 0.0
H154 H 0.63598 0.7933 0.26317 0.0
H155 H 0.6667 0.80686 0.24417 0.0
H156 H 0.77638 0.89173 0.26641 0.0
H157 H 0.79922 0.89845 0.2027 0.0
H158 H 0.7796 0.86648 0.1918 0.0
H159 H 0.75689 0.85952 0.25535 0.0
C160 C 1.00512 0.97476 0.43765 0.0
C161 C 0.0152 0.9781 0.41824 0.0
C162 C 0.98215 0.98836 0.4027 0.0
C163 C 1.00379 0.98475 0.40091 0.0
C164 C 0.9722 0.98522 0.42221 0.0
C165 C 0.98356 0.97843 0.43945 0.0
U166 U 0.05119 0.97704 0.47708 0.0
O167 O 0.05065 0.97298 0.51149 0.0
O168 O 0.06846 0.95171 0.49108 0.0
C169 C 0.06145 0.95586 0.5102 0.0
C170 C 0.0165 0.96709 0.45609 0.0
C171 C 0.05271 0.93791 0.52179 0.0
C172 C 0.03358 0.9044 0.52275 0.0
C173 C 0.04111 0.92159 0.51149 0.0
C174 C 0.04875 0.91984 0.55482 0.0
C175 C 0.0374 0.90323 0.54457 0.0
C176 C 0.05634 0.93694 0.54353 0.0
C177 C 0.09534 0.01965 0.47158 0.0
C178 C 0.11474 0.04485 0.49435 0.0
C179 C 0.13178 0.02963 0.46374 0.0
C180 C 0.11332 0.01799 0.45883 0.0
C181 C 0.13263 0.0434 0.48141 0.0
C182 C 0.09631 0.03312 0.48951 0.0
C183 C 0.07542 1.00855 0.46506 0.0
O184 O 0.03453 0.95819 0.45237 0.0
O185 O 0.01697 0.97959 0.4729 0.0
O186 O 0.05907 1.01072 0.47755 0.0
O187 O 0.077 0.98939 0.45733 0.0
H188 H 0.03186 0.97552 0.4164 0.0
H189 H 1.01195 0.98723 0.38616 0.0
H190 H 0.95551 0.98763 0.42404 0.0
H191 H 0.97543 0.97589 0.45422 0.0
H192 H 0.02511 0.89184 0.51427 0.0
H193 H 0.03804 0.92203 0.49471 0.0
H194 H 0.05166 0.91972 0.57164 0.0
H195 H 0.06516 0.94944 0.55179 0.0
H196 H 0.11495 0.05515 0.5082 0.0
H197 H 0.14519 0.02833 0.4533 0.0
H198 H 0.11297 1.00797 0.44476 0.0
H199 H 0.08275 0.03491 0.49965 0.0
C200 C 0.22164 0.77404 0.85596 0.0
C201 C 0.23874 0.76698 0.86743 0.0
C202 C 0.23706 0.79724 0.89157 0.0
C203 C 0.24637 0.77847 0.88509 0.0
C204 C 0.21985 0.80414 0.88 0.0
C205 C 0.21223 0.79263 0.86237 0.0
U206 U 0.22505 0.72939 0.81497 0.0
O207 O 0.19979 0.70925 0.80071 0.0
O208 O 0.21953 0.72928 0.78074 0.0
C209 C 0.20269 0.71686 0.78187 0.0
C210 C 0.2136 0.76233 0.83721 0.0
C211 C 0.1837 0.7244 0.77165 0.0
C212 C 0.15869 0.75163 0.76632 0.0
C213 C 0.17679 0.74463 0.77605 0.0
C214 C 0.15407 0.7182 0.74779 0.0
C215 C 0.14704 0.7385 0.75209 0.0
C216 C 0.17224 0.71124 0.75748 0.0
C217 C 0.27116 0.69184 0.81895 0.0
C218 C 0.27382 0.65643 0.80445 0.0
C219 C 0.30527 0.676 0.81582 0.0
C220 C 0.29306 0.69296 0.82161 0.0
C221 C 0.29581 0.65747 0.80726 0.0
C222 C 0.2616 0.6735 0.81018 0.0
C223 C 0.25881 0.70982 0.82603 0.0
O224 O 0.22554 0.76349 0.82035 0.0
O225 O 0.20622 0.7433 0.84051 0.0
O226 O 0.23996 0.70558 0.83367 0.0
O227 O 0.2594 0.72597 0.81372 0.0
H228 H 0.24618 0.75262 0.86269 0.0
H229 H 0.25947 0.77256 0.89376 0.0
H230 H 0.2125 0.81865 0.88433 0.0
H231 H 0.19906 0.79834 0.85363 0.0
H232 H 0.15395 0.76744 0.76981 0.0
H233 H 0.18542 0.75502 0.78699 0.0
H234 H 0.14536 0.70754 0.73719 0.0
H235 H 0.17729 0.69553 0.75398 0.0
H236 H 0.26609 0.64247 0.7977 0.0
H237 H 0.3221 0.67726 0.81845 0.0
H238 H 0.30073 0.70695 0.82842 0.0
H239 H 0.24471 0.67231 0.80787 0.0
C240 C 0.9728 0.60433 0.52025 0.0
C241 C 0.95923 0.62053 0.52538 0.0
C242 C 0.98802 0.64093 0.54216 0.0
C243 C 0.96674 0.63865 0.53614 0.0
C244 C 1.00162 0.62467 0.53691 0.0
C245 C 0.99412 0.60661 0.52603 0.0
U246 U 0.9737 0.56257 0.47559 0.0
O247 O 0.9677 0.52853 0.47651 0.0
O248 O 0.94757 0.54771 0.45733 0.0
C249 C 0.95065 0.52914 0.46485 0.0
C250 C 0.96428 0.58518 0.50926 0.0
C251 C 0.93194 0.51769 0.47291 0.0
C252 C 0.89747 0.51677 0.48966 0.0
C253 C 0.91525 0.52809 0.48265 0.0
C254 C 0.91303 0.48454 0.47766 0.0
C255 C 0.89616 0.49485 0.48722 0.0
C256 C 0.9307 0.49586 0.47056 0.0
C257 C 0.01691 0.5663 0.43319 0.0
C258 C 0.01564 0.55164 0.39736 0.0
C259 C 0.04897 0.56386 0.41248 0.0
C260 C 0.03875 0.56941 0.43125 0.0
C261 C 0.0375 0.55518 0.3952 0.0
C262 C 1.00544 0.55707 0.41621 0.0
C263 C 1.0064 0.57363 0.45264 0.0
O264 O 0.95581 0.58783 0.49066 0.0
O265 O 0.9758 0.56853 0.50985 0.0
O266 O 1.00773 0.56162 0.469 0.0
O267 O 0.98759 0.58118 0.45026 0.0
H268 H 0.94274 0.61915 0.52106 0.0
H269 H 0.95586 0.65094 0.53957 0.0
H270 H 0.01803 0.62572 0.54152 0.0
H271 H 1.00501 0.5944 0.52229 0.0
H272 H 0.88484 0.52514 0.49714 0.0
H273 H 0.91592 0.54494 0.48479 0.0
H274 H 0.91242 0.46772 0.47531 0.0
H275 H 0.94338 0.48755 0.46306 0.0
H276 H 1.00641 0.54474 0.38444 0.0
H277 H 0.06577 0.56698 0.41127 0.0
H278 H 0.04787 0.57653 0.44415 0.0
H279 H 0.98858 0.55436 0.4174 0.0
C280 C 0.78404 0.79231 0.86825 0.0
C281 C 0.78704 0.77083 0.86489 0.0
C282 C 0.77838 0.76443 0.9017 0.0
C283 C 0.78426 0.757 0.8815 0.0
C284 C 0.77628 0.78606 0.90508 0.0
C285 C 0.77903 0.7998 0.88854 0.0
U286 U 0.80527 0.8153 0.81608 0.0
O287 O 0.78693 0.82759 0.78995 0.0
O288 O 0.80916 0.84827 0.80776 0.0
C289 C 0.79393 0.84688 0.79369 0.0
C290 C 0.78448 0.80712 0.85084 0.0
C291 C 0.77771 0.86291 0.79531 0.0
C292 C 0.74903 0.88099 0.77913 0.0
C293 C 0.76428 0.86573 0.77814 0.0
C294 C 0.76044 0.89099 0.81451 0.0
C295 C 0.74695 0.8939 0.7973 0.0
C296 C 0.77558 0.87564 0.81357 0.0
C297 C 0.85185 0.79233 0.78623 0.0
C298 C 0.86298 0.80379 0.75162 0.0
C299 C 0.88398 0.77956 0.77048 0.0
C300 C 0.86962 0.78004 0.78718 0.0
C301 C 0.88082 0.79138 0.75245 0.0
C302 C 0.84865 0.8043 0.7684 0.0
C303 C 0.8369 0.79249 0.80396 0.0
O304 O 0.80068 0.82039 0.85029 0.0
O305 O 0.77877 0.79962 0.8321 0.0
O306 O 0.81718 0.7877 0.7991 0.0
O307 O 0.83897 0.80854 0.81726 0.0
H308 H 0.79097 0.76467 0.84935 0.0
H309 H 0.78592 0.74043 0.87834 0.0
H310 H 0.77218 0.79237 0.92051 0.0
H311 H 0.77672 0.81631 0.8915 0.0
H312 H 0.73874 0.88251 0.7657 0.0
H313 H 0.76558 0.85609 0.76391 0.0
H314 H 0.75955 0.9008 0.82866 0.0
H315 H 0.78569 0.87386 0.8271 0.0
H316 H 0.86019 0.81324 0.73809 0.0
H317 H 0.89737 0.76964 0.77154 0.0
H318 H 0.87233 0.77069 0.80083 0.0
H319 H 0.83507 0.81401 0.76745 0.0
C320 C 0.28644 0.28142 0.36004 0.0
C321 C 0.30447 0.27815 0.37223 0.0
C322 C 0.28567 0.25081 0.39137 0.0
C323 C 0.30405 0.26305 0.38778 0.0
C324 C 0.26778 0.25393 0.37895 0.0
C325 C 0.26816 0.26911 0.36353 0.0
U326 U 0.30699 0.30925 0.3106 0.0
O327 O 0.28903 0.32286 0.28497 0.0
O328 O 0.31046 0.34279 0.30452 0.0
C329 C 0.29601 0.34198 0.28966 0.0
C330 C 0.28594 0.29802 0.34429 0.0
C331 C 0.27991 0.35791 0.29145 0.0
C332 C 0.25362 0.37658 0.31165 0.0
C333 C 0.26825 0.36073 0.31004 0.0
C334 C 0.26189 0.3866 0.27597 0.0
C335 C 0.25036 0.38979 0.29466 0.0
C336 C 0.27653 0.37082 0.27441 0.0
C337 C 0.35428 0.28889 0.28003 0.0
C338 C 0.36581 0.30317 0.24668 0.0
C339 C 0.38622 0.27691 0.26327 0.0
C340 C 0.37179 0.27619 0.27989 0.0
C341 C 0.3834 0.29037 0.24642 0.0
C342 C 0.3514 0.30247 0.26338 0.0
C343 C 0.33916 0.28768 0.29756 0.0
O344 O 0.30151 0.31208 0.34478 0.0
O345 O 0.28042 0.29194 0.32505 0.0
O346 O 0.31959 0.28289 0.29217 0.0
O347 O 0.34079 0.30292 0.31184 0.0
H348 H 0.31884 0.28734 0.3699 0.0
H349 H 0.31814 0.26088 0.39694 0.0
H350 H 0.2533 0.24496 0.38148 0.0
H351 H 0.25402 0.27143 0.35447 0.0
H352 H 0.24485 0.37846 0.32617 0.0
H353 H 0.27059 0.35082 0.32333 0.0
H354 H 0.26 0.39664 0.26271 0.0
H355 H 0.28543 0.36888 0.25996 0.0
H356 H 0.36329 0.31386 0.23408 0.0
H357 H 0.3994 0.26664 0.26344 0.0
H358 H 0.37423 0.26559 0.29261 0.0
H359 H 0.338 0.31247 0.26328 0.0
C360 C 0.46626 0.94685 0.51565 0.0
C361 C 0.48208 0.93438 0.52341 0.0
C362 C 0.47804 0.91059 0.49281 0.0
C363 C 0.4879 0.91636 0.5121 0.0
C364 C 0.46218 0.92321 0.48519 0.0
C365 C 0.45637 0.94115 0.49651 0.0
U366 U 0.47277 0.9878 0.56067 0.0
O367 O 0.46945 0.0219 0.56005 0.0
O368 O 0.44869 1.00295 0.5801 0.0
C369 C 0.4529 0.02149 0.57245 0.0
C370 C 0.45987 0.96584 0.5272 0.0
C371 C 0.43465 0.03278 0.56498 0.0
C372 C 0.4022 0.03402 0.5448 0.0
C373 C 0.41961 0.02306 0.55142 0.0
C374 C 0.41491 0.06461 0.56492 0.0
C375 C 0.39963 0.05493 0.55151 0.0
C376 C 0.43223 0.05362 0.57159 0.0
C377 C 0.51786 0.98353 0.60103 0.0
C378 C 0.52156 0.98882 0.63908 0.0
C379 C 0.55153 0.99519 0.61636 0.0
C380 C 0.53915 0.98959 0.59872 0.0
C381 C 0.54294 0.99468 0.63678 0.0
C382 C 0.50914 0.98333 0.62142 0.0
C383 C 0.50554 0.97631 0.58217 0.0
O384 O 0.45224 0.96303 0.54621 0.0
O385 O 0.47309 0.982 0.52629 0.0
O386 O 0.5071 0.98812 0.56559 0.0
O387 O 0.48628 0.96894 0.58538 0.0
H388 H 0.48994 0.93861 0.53815 0.0
H389 H 0.50031 0.90713 0.5183 0.0
H390 H 0.45404 0.91908 0.47057 0.0
H391 H 0.44408 0.95058 0.49032 0.0
H392 H 0.39085 0.02618 0.53429 0.0
H393 H 0.4213 1.00701 0.54602 0.0
H394 H 0.41329 0.08058 0.57058 0.0
H395 H 0.44368 0.06137 0.58206 0.0
H396 H 0.51441 0.98847 0.65458 0.0
H397 H 0.568 0.99937 0.61403 0.0
H398 H 0.54635 0.98966 0.58323 0.0
H399 H 0.49279 0.9787 0.6238 0.0
C400 C 0.22797 0.26971 0.68469 0.0
C401 C 0.23931 0.28029 0.66903 0.0
C402 C 0.24336 0.24755 0.64904 0.0
C403 C 0.24685 0.26933 0.65134 0.0
C404 C 0.23217 0.23705 0.66494 0.0
C405 C 0.22453 0.24804 0.68255 0.0
U406 U 0.23051 0.31553 0.7245 0.0
O407 O 0.20519 0.33411 0.73831 0.0
O408 O 0.22528 0.31627 0.7588 0.0
C409 C 0.20845 0.32752 0.75743 0.0
C410 C 0.21976 0.28099 0.70334 0.0
C411 C 0.18962 0.31934 0.76835 0.0
C412 C 0.16335 0.29164 0.77407 0.0
C413 C 0.18145 0.2991 0.76378 0.0
C414 C 0.16139 0.3246 0.79356 0.0
C415 C 0.15304 0.30432 0.78906 0.0
C416 C 0.17951 0.33201 0.7833 0.0
C417 C 0.27516 0.35704 0.71888 0.0
C418 C 0.27972 0.38792 0.74182 0.0
C419 C 0.30521 0.38086 0.71435 0.0
C420 C 0.29367 0.36275 0.70824 0.0
C421 C 0.29845 0.39364 0.73127 0.0
C422 C 0.26818 0.36972 0.7357 0.0
C423 C 0.26358 0.3377 0.71226 0.0
O424 O 0.23188 0.28136 0.72014 0.0
O425 O 0.21155 0.29913 0.6998 0.0
O426 O 0.24455 0.34 0.70476 0.0
O427 O 0.26469 0.32211 0.72519 0.0
H428 H 0.24224 0.29703 0.67043 0.0
H429 H 0.25517 0.278 0.63933 0.0
H430 H 0.2295 0.22027 0.66392 0.0
H431 H 0.21596 0.23959 0.69456 0.0
H432 H 0.15754 0.27587 0.77039 0.0
H433 H 0.18906 0.28909 0.75224 0.0
H434 H 0.15371 0.33491 0.80474 0.0
H435 H 0.18555 0.34772 0.78693 0.0
H436 H 0.27419 0.39732 0.75503 0.0
H437 H 0.31936 0.38495 0.70567 0.0
H438 H 0.29923 0.35315 0.69517 0.0
H439 H 0.25392 0.36548 0.74413 0.0
C440 C 0.78762 0.25599 0.67842 0.0
C441 C 0.80676 0.26074 0.66823 0.0
C442 C 0.78883 0.28298 0.64389 0.0
C443 C 0.80733 0.27403 0.65108 0.0
C444 C 0.76981 0.27856 0.65444 0.0
C445 C 0.76922 0.26515 0.67147 0.0
U446 U 0.80705 0.23401 0.7305 0.0
O447 O 0.78876 0.22237 0.75749 0.0
O448 O 0.80957 0.20145 0.73995 0.0
C449 C 0.79534 0.20325 0.75488 0.0
C450 C 0.78628 0.24108 0.69577 0.0
C451 C 0.77905 0.1864 0.75544 0.0
C452 C 0.75249 0.16349 0.73837 0.0
C453 C 0.76722 0.18024 0.7375 0.0
C454 C 0.76105 0.15926 0.77519 0.0
C455 C 0.74942 0.15264 0.75719 0.0
C456 C 0.77571 0.17594 0.77429 0.0
C457 C 0.85504 0.25919 0.75933 0.0
C458 C 0.88234 0.24433 0.78071 0.0
C459 C 0.87146 0.27962 0.78821 0.0
C460 C 0.85707 0.27778 0.77153 0.0
C461 C 0.88431 0.26294 0.79298 0.0
C462 C 0.86781 0.24243 0.76411 0.0
C463 C 0.83983 0.25785 0.7416 0.0
O464 O 0.80133 0.22754 0.69673 0.0
O465 O 0.78101 0.24891 0.71434 0.0
O466 O 0.82039 0.26253 0.74634 0.0
O467 O 0.84097 0.24163 0.7285 0.0
H468 H 0.82125 0.25404 0.67336 0.0
H469 H 0.82226 0.27732 0.64344 0.0
H470 H 0.75526 0.28502 0.64916 0.0
H471 H 0.75428 0.26168 0.67904 0.0
H472 H 0.7439 0.15871 0.72419 0.0
H473 H 0.76958 0.18818 0.72279 0.0
H474 H 0.75882 0.15153 0.79003 0.0
H475 H 0.78463 0.18056 0.78833 0.0
H476 H 0.89187 0.23114 0.78412 0.0
H477 H 0.87277 0.29425 0.79719 0.0
H478 H 0.84754 0.29097 0.76809 0.0
H479 H 0.86661 0.22785 0.75505 0.0
C480 C 0.51703 0.57227 0.60311 0.0
C481 C 0.52875 0.56384 0.61939 0.0
C482 C 0.49667 0.55743 0.63971 0.0
C483 C 0.51869 0.55658 0.63753 0.0
C484 C 0.48502 0.56564 0.62317 0.0
C485 C 0.49512 0.57301 0.60511 0.0
U486 U 0.56038 0.57129 0.5612 0.0
O487 O 0.5589 0.57639 0.52707 0.0
O488 O 0.57877 0.59722 0.54736 0.0
C489 C 0.57076 0.59362 0.52843 0.0
C490 C 0.52734 0.58052 0.58407 0.0
C491 C 0.5633 0.61211 0.51743 0.0
C492 C 0.53766 0.62923 0.49582 0.0
C493 C 0.54368 0.61194 0.50715 0.0
C494 C 0.57057 0.64727 0.50508 0.0
C495 C 0.55108 0.64708 0.49458 0.0
C496 C 0.57663 0.62997 0.51628 0.0
C497 C 0.60212 0.5293 0.56418 0.0
C498 C 0.62817 0.52221 0.53705 0.0
C499 C 0.62998 0.50525 0.57061 0.0
C500 C 0.61212 0.51563 0.57745 0.0
C501 C 0.63821 0.50831 0.55028 0.0
C502 C 0.61028 0.53264 0.54395 0.0
C503 C 0.58314 0.53972 0.57176 0.0
O504 O 0.54602 0.58961 0.5869 0.0
O505 O 0.52624 0.56825 0.56711 0.0
O506 O 0.56652 0.53771 0.55944 0.0
O507 O 0.58616 0.55876 0.5797 0.0
H508 H 0.5457 0.56302 0.61818 0.0
H509 H 0.52823 0.55061 0.65 0.0
H510 H 0.46804 0.5662 0.62406 0.0
H511 H 0.48577 0.57934 0.59266 0.0
H512 H 0.52245 0.62865 0.48808 0.0
H513 H 0.53302 0.59841 0.50766 0.0
H514 H 0.58142 0.66062 0.50421 0.0
H515 H 0.59193 0.63044 0.52383 0.0
H516 H 0.63395 0.52481 0.52125 0.0
H517 H 0.63748 0.49499 0.58138 0.0
H518 H 0.60609 0.51295 0.59316 0.0
H519 H 0.60275 0.54318 0.53347 0.0
C520 C 0.50912 0.47289 0.93749 0.0
C521 C 0.51899 0.4783 0.91848 0.0
C522 C 0.48517 0.48674 0.90322 0.0
C523 C 0.50714 0.48506 0.90152 0.0
C524 C 0.47543 0.4816 0.92242 0.0
C525 C 0.48727 0.47469 0.9393 0.0
U526 U 0.55636 0.4769 0.97491 0.0
O527 O 0.55823 0.47293 1.00917 0.0
O528 O 0.57591 0.45248 0.98775 0.0
C529 C 0.57018 0.45662 1.00729 0.0
C530 C 0.5212 0.46535 0.95553 0.0
C531 C 0.56416 0.43845 0.02001 0.0
C532 C 0.53792 0.41542 0.03613 0.0
C533 C 0.54304 0.43212 0.02304 0.0
C534 C 0.57496 0.41097 0.0429 0.0
C535 C 0.55383 0.40476 0.04641 0.0
C536 C 0.58003 0.42763 0.02988 0.0
C537 C 0.59731 0.52159 0.96739 0.0
C538 C 0.6309 0.52506 0.98575 0.0
C539 C 0.61856 0.55368 0.96544 0.0
C540 C 0.60042 0.54183 0.95997 0.0
C541 C 0.634 0.54549 0.97846 0.0
C542 C 0.61265 0.51323 0.98032 0.0
C543 C 0.57788 0.50968 0.96157 0.0
O544 O 0.53944 0.45716 0.95111 0.0
O545 O 0.5218 0.4777 0.97245 0.0
O546 O 0.56239 0.51095 0.97521 0.0
O547 O 0.58025 0.49063 0.95387 0.0
H548 H 0.53586 0.47718 0.91665 0.0
H549 H 0.51519 0.48863 0.88696 0.0
H550 H 0.45864 0.48306 0.92452 0.0
H551 H 0.47933 0.47074 0.95384 0.0
H552 H 0.52149 0.41117 0.03858 0.0
H553 H 0.53052 0.44024 0.01553 0.0
H554 H 0.58764 0.4029 0.05019 0.0
H555 H 0.59643 0.43221 0.02767 0.0
H556 H 0.64239 0.51838 0.99596 0.0
H557 H 0.62058 0.56923 0.95932 0.0
H558 H 0.58877 0.54852 0.94994 0.0
H559 H 0.61045 0.49763 0.98629 0.0
C560 C 0.71704 0.27969 0.35221 0.0
C561 C 0.73618 0.27671 0.36254 0.0
C562 C 0.72739 0.30292 0.38954 0.0
C563 C 0.74135 0.28828 0.38103 0.0
C564 C 0.70822 0.30574 0.37907 0.0
C565 C 0.70313 0.29425 0.3606 0.0
U566 U 0.72316 0.23388 0.31247 0.0
O567 O 0.6985 0.21428 0.2965 0.0
O568 O 0.72067 0.2332 0.27788 0.0
C569 C 0.70353 0.22111 0.27776 0.0
C570 C 0.71111 0.26773 0.33282 0.0
C571 C 0.68585 0.22795 0.2649 0.0
C572 C 0.66428 0.25516 0.25118 0.0
C573 C 0.68108 0.24913 0.2637 0.0
C574 C 0.6567 0.2189 0.24121 0.0
C575 C 0.65186 0.24009 0.23984 0.0
C576 C 0.67354 0.21292 0.25359 0.0
C577 C 0.76479 0.19311 0.32057 0.0
C578 C 0.79467 0.17066 0.32341 0.0
C579 C 0.76482 0.15957 0.30161 0.0
C580 C 0.75496 0.17824 0.30682 0.0
C581 C 0.78474 0.15549 0.30996 0.0
C582 C 0.78475 0.18926 0.32869 0.0
C583 C 0.75428 0.21243 0.32696 0.0
O584 O 0.725 0.26803 0.31746 0.0
O585 O 0.70248 0.2491 0.33565 0.0
O586 O 0.7347 0.20996 0.33332 0.0
O587 O 0.75712 0.22824 0.3144 0.0
H588 H 0.74707 0.26542 0.35635 0.0
H589 H 0.75613 0.28557 0.38882 0.0
H590 H 0.69725 0.31706 0.385 0.0
H591 H 0.68828 0.29675 0.35282 0.0
H592 H 0.66082 0.27157 0.25064 0.0
H593 H 0.6903 0.261 0.27243 0.0
H594 H 0.64761 0.20693 0.23249 0.0
H595 H 0.67699 0.19651 0.25429 0.0
H596 H 0.80989 0.16793 0.33028 0.0
H597 H 0.75687 0.14835 0.291 0.0
H598 H 0.73959 0.181 0.30027 0.0
H599 H 0.79256 0.20056 0.33933 0.0
C600 C 0.47071 0.10644 0.02423 0.0
C601 C 0.49151 0.11452 0.02412 0.0
C602 C 0.48176 0.14317 0.048 0.0
C603 C 0.497 0.13274 0.03593 0.0
C604 C 0.46087 0.13519 0.04759 0.0
C605 C 0.45544 0.11701 0.03587 0.0
U606 U 0.47588 0.06434 0.97978 0.0
O607 O 0.47181 0.03018 0.98184 0.0
O608 O 0.45063 0.04745 0.96195 0.0
C609 C 0.45459 0.02948 0.97035 0.0
C610 C 0.4645 0.08677 1.01293 0.0
C611 C 0.43637 0.01834 0.97968 0.0
C612 C 0.40572 0.01783 1.00261 0.0
C613 C 0.42293 0.02862 0.99379 0.0
C614 C 0.41534 0.98629 0.9835 0.0
C615 C 0.4017 0.9965 0.9976 0.0
C616 C 0.43249 0.99713 0.97463 0.0
C617 C 0.51826 0.06901 0.93696 0.0
C618 C 0.51735 0.0502 0.90308 0.0
C619 C 0.54913 0.06928 0.91432 0.0
C620 C 0.5392 0.07532 0.93311 0.0
C621 C 0.53824 0.05687 0.89894 0.0
C622 C 0.50747 0.05615 0.92195 0.0
C623 C 0.50777 0.07659 0.95631 0.0
O624 O 0.45626 0.08864 0.99411 0.0
O625 O 0.47775 0.0715 1.01385 0.0
O626 O 0.50993 0.06523 0.97305 0.0
O627 O 0.48851 0.08299 0.95386 0.0
H628 H 0.50354 0.1066 0.01518 0.0
H629 H 0.51325 0.13836 0.03599 0.0
H630 H 0.44864 0.14302 0.05633 0.0
H631 H 0.43927 0.11108 0.03605 0.0
H632 H 0.39544 0.02628 1.01318 0.0
H633 H 0.42571 0.04501 0.99794 0.0
H634 H 0.41296 0.96983 0.97954 0.0
H635 H 0.44279 0.9889 0.96388 0.0
H636 H 0.50862 0.04042 0.89168 0.0
H637 H 0.56513 0.07486 0.91155 0.0
H638 H 0.54777 0.08526 0.9445 0.0
H639 H 0.49133 0.05097 0.92468 0.0
C640 C 0.23084 0.92728 0.02708 0.0
O641 O 0.23333 0.92378 1.00673 0.0
O642 O 0.25238 0.87901 1.0064 0.0
Zn643 Zn 0.26423 0.89739 0.03042 0.0
O644 O 0.29028 0.913 0.02 0.0
C645 C 0.28751 0.86884 0.05646 0.0
O646 O 0.30173 0.87022 0.04149 0.0
O647 O 0.24237 0.91794 0.03995 0.0
C648 C 0.30094 0.9264 0.03111 0.0
O649 O 0.29514 0.93043 0.05065 0.0
C650 C 0.26462 0.86973 0.99361 0.0
O651 O 0.28506 0.87218 0.99627 0.0
O652 O 0.27085 0.87916 0.05505 0.0
C653 C 0.17176 0.48406 0.28429 0.0
O654 O 0.17314 0.49701 0.30071 0.0
O655 O 0.12806 0.51957 0.29499 0.0
Zn656 Zn 0.14542 0.51612 0.26829 0.0
O657 O 0.1678 0.53937 0.26739 0.0
C658 C 0.11046 0.50477 0.24022 0.0
O659 O 0.10445 0.49335 0.25615 0.0
O660 O 0.16046 0.48877 0.26868 0.0
C661 C 0.16484 0.55737 0.26019 0.0
O662 O 0.14616 0.56159 0.25288 0.0
C663 C 0.11134 0.52993 0.29594 0.0
O664 O 0.10464 0.5388 0.27889 0.0
O665 O 0.12727 0.51605 0.24194 0.0
C666 C 0.80288 0.61622 0.01594 0.0
O667 O 0.79877 0.61563 0.99563 0.0
O668 O 0.77562 0.66243 0.99423 0.0
Zn669 Zn 0.76706 0.64392 0.01858 0.0
O670 O 0.74256 0.62432 1.00969 0.0
C671 C 0.76817 0.67697 0.05173 0.0
O672 O 0.78693 0.68163 0.04416 0.0
O673 O 0.79159 0.62715 0.02826 0.0
C674 C 0.72394 0.63086 1.01152 0.0
O675 O 0.72132 0.65 0.01881 0.0
C676 C 0.76502 0.67843 0.99054 0.0
O677 O 0.74891 0.68262 1.00273 0.0
O678 O 0.7574 0.66182 0.04338 0.0
C679 C 0.85538 0.05661 0.28429 0.0
O680 O 0.84451 0.03895 0.28611 0.0
O681 O 0.90864 0.02248 0.29633 0.0
Zn682 Zn 0.8897 0.02926 0.27188 0.0
O683 O 0.86876 1.00509 0.26659 0.0
C684 C 0.92578 0.03998 0.24475 0.0
O685 O 0.93552 0.04461 0.26264 0.0
O686 O 0.8746 0.05611 0.2787 0.0
C687 C 0.85723 1.00472 0.25019 0.0
O688 O 0.85891 0.02034 0.23725 0.0
C689 C 0.92129 1.00755 0.29469 0.0
O690 O 0.92205 0.99671 0.2768 0.0
O691 O 0.90672 0.03328 0.24512 0.0
C692 C 0.31105 0.13364 0.51768 0.0
O693 O 0.31345 0.15296 0.51148 0.0
O694 O 0.27196 0.16254 0.4901 0.0
Zn695 Zn 0.26667 0.14258 0.51403 0.0
O696 O 0.2419 0.12285 0.5068 0.0
C697 C 0.26919 0.1749 0.54789 0.0
O698 O 0.28648 0.1812 0.53831 0.0
O699 O 0.29253 0.12581 0.51971 0.0
C700 C 0.22353 0.13012 0.50722 0.0
O701 O 0.22147 0.15007 0.51187 0.0
C702 C 0.26726 0.15719 0.47116 0.0
O703 O 0.25929 0.1383 0.46716 0.0
O704 O 0.25878 0.15906 0.54044 0.0
C705 C 0.35501 0.54997 0.78863 0.0
O706 O 0.3482 0.53081 0.79219 0.0
O707 O 0.41071 0.52208 0.79728 0.0
Zn708 Zn 0.39215 0.52909 0.77244 0.0
O709 O 0.37414 0.50349 0.76367 0.0
C710 C 0.42697 0.53066 0.74153 0.0
O711 O 0.43473 0.51545 0.75225 0.0
O712 O 0.37321 0.55288 0.78067 0.0
C713 C 0.38244 0.48581 0.76111 0.0
O714 O 0.4028 0.48447 0.76401 0.0
C715 C 0.40305 0.51041 0.81147 0.0
O716 O 0.38337 0.50364 0.80972 0.0
O717 O 0.40973 0.53847 0.74744 0.0
C718 C 0.73451 0.43396 0.5247 0.0
O719 O 0.74938 0.44335 0.51372 0.0
O720 O 0.75761 0.37969 0.49918 0.0
Zn721 Zn 0.76311 0.39854 0.52511 0.0
O722 O 0.78864 0.41801 0.52036 0.0
C723 C 0.77538 0.36301 0.55041 0.0
O724 O 0.78245 0.35535 0.53243 0.0
O725 O 0.73717 0.41546 0.53075 0.0
C726 C 0.807 0.4135 0.52636 0.0
O727 O 0.80949 0.396 0.5362 0.0
C728 C 0.77186 0.37532 0.48583 0.0
O729 O 0.79102 0.38316 0.48882 0.0
O730 O 0.7671 0.38083 0.55085 0.0
C731 C 0.66691 0.98701 0.78522 0.0
O732 O 0.65816 0.9922 0.80331 0.0
O733 O 0.62797 0.02517 0.7965 0.0
Zn734 Zn 0.64383 0.0222 0.76875 0.0
O735 O 0.6626 0.04803 0.76509 0.0
C736 C 0.61053 1.00274 0.74356 0.0
O737 O 0.61043 0.98971 0.75918 0.0
O738 O 0.66279 0.99731 0.76895 0.0
C739 C 0.65733 0.06396 0.75506 0.0
O740 O 0.63854 0.0641 0.74644 0.0
C741 C 0.60947 0.03213 0.79761 0.0
O742 O 0.60005 0.03739 0.78021 0.0
O743 O 0.62353 0.01828 0.74413 0.0
C744 C 0.02664 0.24319 0.9301 0.0
O745 O 0.02361 0.26012 0.94175 0.0
O746 O 0.99948 0.26587 0.87205 0.0
Zn747 Zn 0.0222 0.27102 0.8943 0.0
O748 O 1.01425 0.2951 0.91393 0.0
C749 C 0.05353 0.27374 0.86085 0.0
O750 O 0.03954 0.26207 0.85027 0.0
O751 O 0.02644 0.24435 0.9101 0.0
C752 C 1.01269 0.31287 0.90575 0.0
O753 O 0.01608 0.31447 0.88541 0.0
C754 C 0.98024 0.26991 0.87511 0.0
O755 O 0.97448 0.27753 0.8936 0.0
O756 O 0.04959 0.27927 0.87984 0.0
C757 C 0.51772 0.7323 0.41177 0.0
O758 O 0.51005 0.72923 0.39265 0.0
O759 O 0.4922 0.77003 0.38006 0.0
Zn760 Zn 0.51632 0.77604 0.40064 0.0
O761 O 0.50923 0.80094 0.4195 0.0
C762 C 0.54899 0.77437 0.36799 0.0
O763 O 0.53818 0.75778 0.36093 0.0
O764 O 0.52156 0.75092 0.41856 0.0
C765 C 0.50658 0.81828 0.41077 0.0
O766 O 0.50844 0.81913 0.39017 0.0
C767 C 0.47331 0.77282 0.38585 0.0
O768 O 0.46972 0.77901 0.40541 0.0
O769 O 0.54271 0.78409 0.38446 0.0
C770 C 1.01306 0.80558 0.61827 0.0
O771 O 0.99532 0.79561 0.61312 0.0
O772 O 0.99481 0.78012 0.67284 0.0
Zn773 Zn 0.01622 0.77333 0.65011 0.0
O774 O 1.00436 0.74991 0.63104 0.0
C775 C 0.04795 0.76939 0.68268 0.0
O776 O 0.03593 0.78238 0.69312 0.0
O777 O 0.02403 0.79896 0.63332 0.0
C778 C 0.01546 0.74144 0.61668 0.0
O779 O 0.03486 0.74852 0.61384 0.0
C780 C 0.97511 0.78056 0.6694 0.0
O781 O 0.96806 0.77705 0.6501 0.0
O782 O 0.04269 0.7634 0.66405 0.0
C783 C 0.51513 0.30432 0.11047 0.0
O784 O 0.50051 0.29012 0.10523 0.0
O785 O 0.49777 0.28265 0.16729 0.0
Zn786 Zn 0.52044 0.27686 0.14552 0.0
O787 O 0.5122 0.2514 0.12691 0.0
C788 C 0.54524 0.25695 0.17598 0.0
O789 O 0.52675 0.24779 0.1791 0.0
O790 O 0.52572 0.3021 0.12725 0.0
C791 C 0.49931 0.23721 0.13305 0.0
O792 O 0.49085 0.23913 0.15187 0.0
C793 C 0.47837 0.28515 0.16355 0.0
O794 O 0.47171 0.28455 0.14392 0.0
O795 O 0.54696 0.27056 0.1618 0.0
H796 H 0.21487 0.81757 0.92231 0.0
H797 H 0.27827 0.80518 0.90236 0.0
H798 H 0.29226 0.82604 0.93229 0.0
H799 H 0.28661 0.84834 0.96373 0.0
H800 H 0.22327 0.8614 0.98339 0.0
H801 H 0.20921 0.83996 0.95383 0.0
C802 C 0.23176 0.81956 0.92441 0.0
C803 C 0.24547 0.80976 0.91006 0.0
C804 C 0.23974 0.83175 0.94158 0.0
C805 C 0.26731 0.81226 0.91327 0.0
C806 C 0.27535 0.82432 0.93033 0.0
C807 C 0.26972 0.84651 0.96159 0.0
C808 C 0.25605 0.85652 0.97579 0.0
C809 C 0.26172 0.83418 0.94454 0.0
C810 C 0.23419 0.85391 0.97273 0.0
C811 C 0.22612 0.84164 0.95581 0.0
H812 H 0.07502 0.53649 0.38873 0.0
H813 H 0.02403 0.56401 0.35567 0.0
H814 H 0.04209 0.55828 0.32213 0.0
H815 H 0.07286 0.54647 0.30224 0.0
H816 H 0.12383 0.51874 0.3352 0.0
H817 H 0.10538 0.52367 0.36865 0.0
C818 C 0.0679 0.54127 0.37418 0.0
C819 C 0.0482 0.55069 0.37475 0.0
C820 C 0.07841 0.53798 0.35491 0.0
C821 C 0.03905 0.55652 0.3557 0.0
C822 C 0.04944 0.55338 0.33651 0.0
C823 C 0.07994 0.54148 0.31673 0.0
C824 C 0.09978 0.53235 0.31617 0.0
C825 C 0.06919 0.54426 0.33593 0.0
C826 C 0.10861 0.52582 0.33512 0.0
C827 C 0.09807 0.52866 0.35429 0.0
H828 H 0.79944 0.7297 0.91295 0.0
H829 H 0.74551 0.76608 0.92911 0.0
H830 H 0.73689 0.74292 0.95785 0.0
H831 H 0.74448 0.71253 0.97851 0.0
H832 H 0.79795 0.67545 0.96265 0.0
H833 H 0.80678 0.69855 0.93363 0.0
C834 C 0.78574 0.73246 0.92269 0.0
C835 C 0.77329 0.74978 0.91896 0.0
C836 C 0.78075 0.71896 0.93926 0.0
C837 C 0.75564 0.75317 0.93184 0.0
C838 C 0.75059 0.73984 0.94823 0.0
C839 C 0.75809 0.70944 0.96875 0.0
C840 C 0.77053 0.69226 0.97283 0.0
C841 C 0.76306 0.72275 0.95213 0.0
C842 C 0.78808 0.68855 0.95991 0.0
C843 C 0.79315 0.70177 0.94329 0.0
H844 H 0.98354 0.97306 0.36221 0.0
H845 H 0.95296 0.01869 0.40184 0.0
H846 H 0.93172 0.02891 0.37197 0.0
H847 H 0.92136 0.02448 0.3347 0.0
H848 H 0.95172 0.9785 0.29519 0.0
H849 H 0.97359 0.96901 0.32481 0.0
C850 C 0.9724 0.9854 0.36424 0.0
C851 C 0.96984 0.99507 0.38425 0.0
C852 C 0.96014 0.99113 0.34701 0.0
C853 C 0.95508 1.01083 0.38668 0.0
C854 C 0.94298 0.01674 0.36958 0.0
C855 C 0.9328 1.01243 0.33253 0.0
C856 C 0.93483 1.00222 0.3127 0.0
C857 C 0.94527 1.00691 0.3497 0.0
C858 C 0.94974 0.9866 0.31025 0.0
C859 C 0.96229 0.98115 0.32719 0.0
H860 H 0.22377 0.21519 0.62701 0.0
H861 H 0.28091 0.25358 0.62843 0.0
H862 H 0.29375 0.2348 0.59725 0.0
H863 H 0.28892 0.2073 0.56964 0.0
H864 H 0.23223 0.16823 0.569 0.0
H865 H 0.21931 0.18721 0.60001 0.0
C866 C 0.23915 0.21932 0.62069 0.0
C867 C 0.25129 0.23586 0.63013 0.0
C868 C 0.24659 0.20828 0.60289 0.0
C869 C 0.27103 0.24117 0.62138 0.0
C870 C 0.27848 0.23033 0.6036 0.0
C871 C 0.27374 0.20291 0.57628 0.0
C872 C 0.26159 0.18634 0.56694 0.0
C873 C 0.26639 0.21386 0.5942 0.0
C874 C 0.24197 0.18087 0.57584 0.0
C875 C 0.23452 0.19175 0.59358 0.0
H876 H 0.46335 0.57437 0.6605 0.0
H877 H 0.50578 0.52326 0.66273 0.0
H878 H 0.4885 0.51094 0.6946 0.0
H879 H 0.46097 0.51428 0.72162 0.0
H880 H 0.4177 0.5646 0.71853 0.0
H881 H 0.43547 0.57734 0.68708 0.0
C882 C 0.4687 0.56039 0.66778 0.0
C883 C 0.48593 0.54983 0.65912 0.0
C884 C 0.45849 0.55318 0.68598 0.0
C885 C 0.49281 0.53195 0.66912 0.0
C886 C 0.48283 0.52478 0.68732 0.0
C887 C 0.45544 0.52806 0.71412 0.0
C888 C 0.43801 0.53845 0.72251 0.0
C889 C 0.46565 0.53525 0.69589 0.0
C890 C 0.43104 0.55625 0.71246 0.0
C891 C 0.44121 0.56358 0.69444 0.0
H892 H 0.76955 0.31991 0.63887 0.0
H893 H 0.80891 0.27584 0.60645 0.0
H894 H 0.80858 0.29681 0.57489 0.0
H895 H 0.79631 0.32716 0.55613 0.0
H896 H 0.7572 0.37147 0.58865 0.0
H897 H 0.75815 0.35089 0.62042 0.0
C898 C 0.778 0.31488 0.62487 0.0
C899 C 0.7892 0.2963 0.62503 0.0
C900 C 0.77774 0.32703 0.60675 0.0
C901 C 0.80034 0.29016 0.60684 0.0
C902 C 0.80005 0.30209 0.58874 0.0
C903 C 0.78801 0.33235 0.57016 0.0
C904 C 0.77662 0.35081 0.56991 0.0
C905 C 0.7887 0.32049 0.58846 0.0
C906 C 0.7661 0.35734 0.58834 0.0
C907 C 0.7666 0.34555 0.60654 0.0
H908 H 0.54413 0.97379 0.67352 0.0
H909 H 0.57227 0.02667 0.64218 0.0
H910 H 0.59541 0.03406 0.67246 0.0
H911 H 0.60809 0.02514 0.70766 0.0
H912 H 0.57997 0.97204 0.73876 0.0
H913 H 0.5563 0.96529 0.7089 0.0
C914 C 0.55514 0.98709 0.67342 0.0
C915 C 0.55643 0.99965 0.65558 0.0
C916 C 0.56847 0.99121 0.69085 0.0
C917 C 0.57108 1.01661 0.6556 0.0
C918 C 0.58427 0.0209 0.67295 0.0
C919 C 0.59675 1.01213 0.70795 0.0
C920 C 0.59589 0.99912 0.72547 0.0
C921 C 0.5832 1.00822 0.69062 0.0
C922 C 0.58106 0.98231 0.72551 0.0
C923 C 0.56748 0.97842 0.70842 0.0
H924 H 0.92513 0.25118 0.79318 0.0
H925 H 0.87802 0.27955 0.83252 0.0
H926 H 0.90335 0.28393 0.8614 0.0
H927 H 0.93898 0.28011 0.87539 0.0
H928 H 0.98632 0.25212 0.83593 0.0
H929 H 0.96078 0.24704 0.80733 0.0
C930 C 0.92037 0.25814 0.80815 0.0
C931 C 0.8997 0.26505 0.81066 0.0
C932 C 0.93507 0.2607 0.82468 0.0
C933 C 0.89387 0.27431 0.83007 0.0
C934 C 0.90833 0.27674 0.84663 0.0
C935 C 0.94373 0.27283 0.86057 0.0
C936 C 0.96458 0.26651 0.85788 0.0
C937 C 0.929 0.27009 0.84409 0.0
C938 C 0.97041 0.25717 0.83849 0.0
C939 C 0.9558 0.25425 0.82209 0.0
H940 H 0.48346 0.90618 0.45035 0.0
H941 H 0.48647 0.87207 0.50787 0.0
H942 H 0.4958 0.8406 0.48774 0.0
H943 H 0.50246 0.82254 0.45363 0.0
H944 H 0.49901 0.85693 0.39624 0.0
H945 H 0.49025 0.88834 0.41647 0.0
C946 C 0.48599 0.89183 0.45849 0.0
C947 C 0.48418 0.89152 0.48061 0.0
C948 C 0.49122 0.87376 0.44682 0.0
C949 C 0.48794 0.87284 0.4909 0.0
C950 C 0.49316 0.85479 0.47938 0.0
C951 C 0.4998 0.8369 0.44555 0.0
C952 C 0.50137 0.83729 0.4234 0.0
C953 C 0.49477 0.85503 0.45731 0.0
C954 C 0.4979 0.85609 0.41323 0.0
C955 C 0.49288 0.87412 0.4248 0.0
H956 H 0.1417 0.31024 0.83032 0.0
H957 H 0.12022 0.28103 0.77164 0.0
H958 H 0.088 0.26859 0.78875 0.0
H959 H 0.06552 0.26655 0.82013 0.0
H960 H 0.08648 0.29656 0.87861 0.0
H961 H 0.11911 0.30834 0.86172 0.0
C962 C 0.1299 0.30131 0.8212 0.0
C963 C 0.13348 0.29659 0.79969 0.0
C964 C 0.11125 0.29437 0.83109 0.0
C965 C 0.11811 0.28467 0.78827 0.0
C966 C 0.09957 0.27765 0.79802 0.0
C967 C 0.07722 0.27564 0.82923 0.0
C968 C 0.07349 0.28065 0.85064 0.0
C969 C 0.09594 0.28245 0.81939 0.0
C970 C 0.08888 0.29247 0.86212 0.0
C971 C 0.10757 0.29923 0.85246 0.0
H972 H 0.53287 0.64658 0.45561 0.0
H973 H 0.55593 0.68861 0.5054 0.0
H974 H 0.54754 0.7186 0.48439 0.0
H975 H 0.53417 0.73295 0.45161 0.0
H976 H 0.51113 0.69082 0.40181 0.0
H977 H 0.5188 0.66093 0.42315 0.0
C978 C 0.53582 0.6623 0.46197 0.0
C979 C 0.54506 0.6653 0.48206 0.0
C980 C 0.53101 0.67951 0.44977 0.0
C981 C 0.54907 0.68582 0.4899 0.0
C982 C 0.5442 0.70299 0.47792 0.0
C983 C 0.53077 0.71724 0.44542 0.0
C984 C 0.5221 0.71422 0.42508 0.0
C985 C 0.53529 0.70004 0.45777 0.0
C986 C 0.51782 0.69369 0.41738 0.0
C987 C 0.5222 0.67654 0.42958 0.0
H988 H 0.92372 0.79178 0.75414 0.0
H989 H 0.87175 0.78873 0.71027 0.0
H990 H 0.89627 0.78587 0.68075 0.0
H991 H 0.93241 0.78301 0.66742 0.0
H992 H 0.98436 0.78573 0.71138 0.0
H993 H 0.9599 0.78978 0.74076 0.0
C994 C 0.91774 0.79039 0.73813 0.0
C995 C 0.89589 0.7904 0.73448 0.0
C996 C 0.93193 0.78862 0.72121 0.0
C997 C 0.88847 0.78896 0.71357 0.0
C998 C 0.90249 0.7872 0.69666 0.0
C999 C 0.93841 0.78456 0.68341 0.0
C1000 C 0.96023 0.78397 0.68713 0.0
C1001 C 0.92425 0.78686 0.7003 0.0
C1002 C 0.96767 0.78609 0.708 0.0
C1003 C 0.95369 0.78839 0.72485 0.0
H1004 H 0.05759 0.8836 0.57604 0.0
H1005 H 0.99982 0.88118 0.54014 0.0
H1006 H 0.98738 0.85077 0.55945 0.0
H1007 H 0.99273 0.82493 0.58675 0.0
H1008 H 0.05012 0.82808 0.62327 0.0
H1009 H 0.06262 0.85831 0.60376 0.0
C1010 C 0.04216 0.87661 0.57257 0.0
C1011 C 0.02971 0.88476 0.55657 0.0
C1012 C 0.03497 0.85924 0.58392 0.0
C1013 C 1.00992 0.87514 0.55211 0.0
C1014 C 1.0027 0.8578 0.56327 0.0
C1015 C 1.00797 0.83222 0.59047 0.0
C1016 C 0.02044 0.82416 0.60649 0.0
C1017 C 0.01509 0.84969 0.5792 0.0
C1018 C 0.04015 0.83389 0.61107 0.0
C1019 C 0.04734 0.85121 0.59989 0.0
H1020 H 0.13352 0.73129 0.71148 0.0
H1021 H 0.11651 0.76231 0.77006 0.0
H1022 H 0.0848 0.77483 0.7537 0.0
H1023 H 0.06165 0.7768 0.72294 0.0
H1024 H 0.07795 0.74497 0.66459 0.0
H1025 H 0.10996 0.73271 0.68081 0.0
C1026 C 0.12279 0.7406 0.72076 0.0
C1027 C 0.12755 0.74588 0.742 0.0
C1028 C 0.10438 0.74759 0.71131 0.0
C1029 C 0.11352 0.75827 0.75361 0.0
C1030 C 0.09526 0.76533 0.74431 0.0
C1031 C 0.07219 0.76719 0.71373 0.0
C1032 C 0.06736 0.76186 0.69254 0.0
C1033 C 0.09054 0.76011 0.72317 0.0
C1034 C 0.08122 0.74932 0.68092 0.0
C1035 C 0.09956 0.7423 0.69019 0.0
H1036 H 0.96816 0.66311 0.57332 0.0
H1037 H 0.02591 0.66204 0.53753 0.0
H1038 H 0.03938 0.69287 0.5573 0.0
H1039 H 0.03491 0.72011 0.58485 0.0
H1040 H 0.9768 0.72173 0.61999 0.0
H1041 H 0.96322 0.69102 0.60004 0.0
C1042 C 0.98359 0.66975 0.56961 0.0
C1043 C 0.99598 0.66011 0.55394 0.0
C1044 C 0.99119 0.68767 0.58089 0.0
C1045 C 0.0161 0.66883 0.5497 0.0
C1046 C 0.02379 0.68659 0.56091 0.0
C1047 C 0.01925 0.71381 0.58813 0.0
C1048 C 1.00695 0.72324 0.60397 0.0
C1049 C 1.0115 0.6961 0.57659 0.0
C1050 C 0.98666 0.71483 0.60792 0.0
C1051 C 0.97887 0.69722 0.59652 0.0
H1052 H 0.79373 0.93423 0.21472 0.0
H1053 H 0.81326 0.90411 0.27111 0.0
H1054 H 0.83534 0.93478 0.28109 0.0
H1055 H 0.85031 0.96961 0.27304 0.0
H1056 H 0.83104 0.99933 0.21625 0.0
H1057 H 0.80787 0.96932 0.20717 0.0
C1058 C 0.80288 0.93433 0.22916 0.0
C1059 C 0.80188 0.91683 0.24208 0.0
C1060 C 0.8157 0.95193 0.23471 0.0
C1061 C 0.81355 0.91742 0.26095 0.0
C1062 C 0.82631 0.93491 0.26661 0.0
C1063 C 0.84099 0.96957 0.25871 0.0
C1064 C 0.84255 0.98671 0.24531 0.0
C1065 C 0.82767 0.95218 0.25351 0.0
C1066 C 0.83026 0.98637 0.22685 0.0
C1067 C 0.81698 0.96919 0.22161 0.0
H1068 H 0.82595 0.14913 0.30036 0.0
H1069 H 0.76628 0.11635 0.30881 0.0
H1070 H 0.78277 0.08303 0.30155 0.0
H1071 H 0.81418 0.06311 0.29326 0.0
H1072 H 0.87392 0.09581 0.28476 0.0
H1073 H 0.8574 0.12916 0.29178 0.0
C1074 C 0.81658 0.13469 0.30073 0.0
C1075 C 0.79489 0.13528 0.30511 0.0
C1076 C 0.82619 0.11553 0.29659 0.0
C1077 C 0.78294 0.1164 0.30523 0.0
C1078 C 0.79239 0.09731 0.3012 0.0
C1079 C 0.82362 0.07751 0.29296 0.0
C1080 C 0.8453 0.07688 0.28854 0.0
C1081 C 0.814 0.09668 0.29691 0.0
C1082 C 0.85722 0.09577 0.28813 0.0
C1083 C 0.84778 0.11489 0.29215 0.0
H1084 H 0.37532 0.96717 0.97852 0.0
H1085 H 0.3869 0.99981 0.03811 0.0
H1086 H 0.35681 0.98125 0.05361 0.0
H1087 H 0.32725 0.9556 0.05038 0.0
H1088 H 0.31624 0.92239 0.99098 0.0
H1089 H 0.34625 0.94106 0.97548 0.0
C1090 C 0.37144 0.97008 0.99497 0.0
C1091 C 0.38342 0.98495 1.00707 0.0
C1092 C 0.35421 0.95919 1.00388 0.0
C1093 C 0.37783 0.98872 0.02828 0.0
C1094 C 0.36068 0.97799 0.03723 0.0
C1095 C 0.33141 0.95241 0.03405 0.0
C1096 C 0.31943 0.93759 0.0219 0.0
C1097 C 0.34874 0.96321 0.02518 0.0
C1098 C 0.32513 0.93369 1.00075 0.0
C1099 C 0.3423 0.94438 0.99183 0.0
H1100 H 0.22236 0.4023 0.26535 0.0
H1101 H 0.24521 0.41676 0.32834 0.0
H1102 H 0.22233 0.44657 0.33102 0.0
H1103 H 0.19696 0.46946 0.31495 0.0
H1104 H 0.17445 0.4553 0.25174 0.0
H1105 H 0.19616 0.4246 0.24966 0.0
C1106 C 0.22238 0.41201 0.27964 0.0
C1107 C 0.23556 0.40729 0.29659 0.0
C1108 C 0.2093 0.42927 0.28102 0.0
C1109 C 0.23509 0.41985 0.31513 0.0
C1110 C 0.22211 0.43701 0.31663 0.0
C1111 C 0.19671 0.45963 0.30073 0.0
C1112 C 0.18413 0.4648 0.28349 0.0
C1113 C 0.20929 0.44199 0.2996 0.0
C1114 C 0.18399 0.45177 0.26525 0.0
C1115 C 0.19643 0.43419 0.26402 0.0
H1116 H 0.13471 0.08467 0.4928 0.0
H1117 H 0.17379 0.03207 0.47985 0.0
H1118 H 0.20536 0.05416 0.4865 0.0
H1119 H 0.2219 0.08852 0.49605 0.0
H1120 H 0.18247 0.14097 0.50886 0.0
H1121 H 0.15111 0.11881 0.50237 0.0
C1122 C 0.15013 0.07797 0.49166 0.0
C1123 C 0.15185 0.05672 0.48591 0.0
C1124 C 0.1682 0.09076 0.49544 0.0
C1125 C 0.17199 0.04841 0.48409 0.0
C1126 C 0.19006 0.06102 0.48796 0.0
C1127 C 0.20645 0.0951 0.49742 0.0
C1128 C 0.20462 0.11642 0.50296 0.0
C1129 C 0.18837 0.08224 0.49362 0.0
C1130 C 0.18443 0.12466 0.50462 0.0
C1131 C 0.16643 0.11198 0.50093 0.0
H1132 H 0.71002 0.14786 0.73994 0.0
H1133 H 0.7555 0.1158 0.77648 0.0
H1134 H 0.73114 0.08579 0.77911 0.0
H1135 H 0.69692 0.06861 0.77128 0.0
H1136 H 0.65133 0.10028 0.73448 0.0
H1137 H 0.67579 0.13029 0.73154 0.0
C1138 C 0.71467 0.13423 0.74831 0.0
C1139 C 0.73455 0.1342 0.75811 0.0
C1140 C 0.70055 0.11691 0.74973 0.0
C1141 C 0.74019 0.11645 0.76908 0.0
C1142 C 0.72631 0.0992 0.7705 0.0
C1143 C 0.69229 0.08205 0.76259 0.0
C1144 C 0.67226 0.08214 0.75316 0.0
C1145 C 0.70642 0.09928 0.76098 0.0
C1146 C 0.66661 0.09974 0.74195 0.0
C1147 C 0.68061 0.11694 0.74024 0.0
H1148 H 0.39866 0.09512 0.53866 0.0
H1149 H 0.35855 0.04083 0.54943 0.0
H1150 H 0.32771 0.06013 0.53955 0.0
H1151 H 0.31198 0.09275 0.52872 0.0
H1152 H 0.35227 0.14703 0.51807 0.0
H1153 H 0.38307 0.12747 0.52721 0.0
C1154 C 0.38316 0.08754 0.53896 0.0
C1155 C 0.38095 0.06656 0.54485 0.0
C1156 C 0.36547 0.09876 0.53334 0.0
C1157 C 0.36076 0.05688 0.54477 0.0
C1158 C 0.34308 0.06796 0.53925 0.0
C1159 C 0.3275 0.10031 0.52836 0.0
C1160 C 0.32973 0.12139 0.52277 0.0
C1161 C 0.34523 0.08894 0.53361 0.0
C1162 C 0.35001 0.13085 0.52232 0.0
C1163 C 0.36768 0.11968 0.52757 0.0
H1164 H 0.64764 0.46782 0.55703 0.0
H1165 H 0.67158 0.52348 0.52724 0.0
H1166 H 0.70307 0.50531 0.51618 0.0
H1167 H 0.72435 0.47387 0.51582 0.0
H1168 H 0.70058 0.41856 0.54643 0.0
H1169 H 0.6687 0.43646 0.55652 0.0
C1170 C 0.65981 0.47607 0.54827 0.0
C1171 C 0.6572 0.49705 0.54307 0.0
C1172 C 0.678 0.4656 0.54215 0.0
C1173 C 0.673 0.50729 0.5313 0.0
C1174 C 0.69111 0.49694 0.52507 0.0
C1175 C 0.71219 0.4657 0.52466 0.0
C1176 C 0.71496 0.44488 0.53038 0.0
C1177 C 0.69385 0.47612 0.53051 0.0
C1178 C 0.69896 0.43458 0.54183 0.0
C1179 C 0.68069 0.4448 0.54762 0.0
H1180 H 0.76515 0.32163 0.40063 0.0
H1181 H 0.70146 0.31204 0.4227 0.0
H1182 H 0.70951 0.33346 0.45432 0.0
H1183 H 0.7345 0.35533 0.47556 0.0
H1184 H 0.79831 0.36466 0.45363 0.0
H1185 H 0.79039 0.3428 0.42231 0.0
C1186 C 0.7531 0.32403 0.41247 0.0
C1187 C 0.7327 0.31529 0.4092 0.0
C1188 C 0.75784 0.33636 0.43067 0.0
C1189 C 0.7172 0.31881 0.42462 0.0
C1190 C 0.72182 0.33099 0.44278 0.0
C1191 C 0.74669 0.35257 0.46396 0.0
C1192 C 0.76696 0.36171 0.46699 0.0
C1193 C 0.74204 0.33996 0.44592 0.0
C1194 C 0.78256 0.35787 0.45176 0.0
C1195 C 0.77805 0.34535 0.4338 0.0
H1196 H 0.57826 0.04407 0.89185 0.0
H1197 H 0.5209 0.05821 0.85965 0.0
H1198 H 0.53764 0.05131 0.82564 0.0
H1199 H 0.56887 0.0424 0.80493 0.0
H1200 H 0.62629 0.02809 0.83697 0.0
H1201 H 0.60927 0.03403 0.87107 0.0
C1202 C 0.56945 0.04569 0.87738 0.0
C1203 C 0.54835 0.05168 0.87834 0.0
C1204 C 0.57921 0.04174 0.85781 0.0
C1205 C 0.53707 0.0534 0.85942 0.0
C1206 C 0.54668 0.04959 0.83993 0.0
C1207 C 0.57768 0.04054 0.81935 0.0
C1208 C 0.59888 0.03492 0.81833 0.0
C1209 C 0.56778 0.0439 0.83893 0.0
C1210 C 0.60997 0.03243 0.83724 0.0
C1211 C 0.60025 0.03585 0.85677 0.0
H1212 H 0.26878 0.21117 0.38923 0.0
H1213 H 0.30083 0.25543 0.43166 0.0
H1214 H 0.29841 0.23036 0.45997 0.0
H1215 H 0.28624 0.19615 0.473 0.0
H1216 H 0.25431 0.15194 0.4303 0.0
H1217 H 0.25751 0.17671 0.40192 0.0
C1218 C 0.27516 0.21535 0.4047 0.0
C1219 C 0.28491 0.23519 0.40832 0.0
C1220 C 0.27368 0.20087 0.42092 0.0
C1221 C 0.29342 0.24022 0.42837 0.0
C1222 C 0.29193 0.22593 0.44462 0.0
C1223 C 0.28001 0.19191 0.45748 0.0
C1224 C 0.26996 0.1722 0.45387 0.0
C1225 C 0.28197 0.20624 0.44112 0.0
C1226 C 0.26211 0.16697 0.43359 0.0
C1227 C 0.26391 0.18115 0.41731 0.0
H1228 H 0.44608 0.47231 0.89076 0.0
H1229 H 0.49556 0.51677 0.87455 0.0
H1230 H 0.47494 0.52767 0.84457 0.0
H1231 H 0.44255 0.52486 0.82303 0.0
H1232 H 0.39268 0.48132 0.84048 0.0
H1233 H 0.41359 0.47015 0.87003 0.0
C1234 C 0.4523 0.48459 0.88089 0.0
C1235 C 0.47243 0.49364 0.88503 0.0
C1236 C 0.44022 0.49103 0.86384 0.0
C1237 C 0.48029 0.50924 0.87166 0.0
C1238 C 0.46843 0.51561 0.85455 0.0
C1239 C 0.43627 0.51293 0.8333 0.0
C1240 C 0.41604 0.50397 0.82947 0.0
C1241 C 0.44836 0.50662 0.85047 0.0
C1242 C 0.40814 0.48857 0.84302 0.0
C1243 C 0.42012 0.48212 0.85995 0.0
H1244 H 0.71903 0.71939 0.12729 0.0
H1245 H 0.77717 0.75598 0.13228 0.0
H1246 H 0.79121 0.73694 0.1018 0.0
H1247 H 0.78734 0.70927 0.07419 0.0
H1248 H 0.72946 0.67213 0.06995 0.0
H1249 H 0.71517 0.69179 0.09985 0.0
C1250 C 0.73485 0.72309 0.12187 0.0
C1251 C 0.74699 0.73912 0.13217 0.0
C1252 C 0.74295 0.7119 0.10448 0.0
C1253 C 0.76733 0.74393 0.12456 0.0
C1254 C 0.77545 0.73293 0.10719 0.0
C1255 C 0.7716 0.70547 0.07978 0.0
C1256 C 0.75955 0.68918 0.06981 0.0
C1257 C 0.76344 0.71682 0.09708 0.0
C1258 C 0.73915 0.68453 0.0773 0.0
C1259 C 0.73093 0.69579 0.09442 0.0
H1260 H 0.95842 0.05153 0.15144 0.0
H1261 H 0.0164 0.06659 0.18471 0.0
H1262 H 0.99902 0.0599 0.21831 0.0
H1263 H 0.96709 0.05081 0.23837 0.0
H1264 H 0.90906 0.03577 0.20507 0.0
H1265 H 0.92668 0.04158 0.17145 0.0
C1266 C 0.96723 0.05343 0.16605 0.0
C1267 C 0.98869 0.0596 0.16552 0.0
C1268 C 0.9571 0.04964 0.18535 0.0
C1269 C 0.99994 0.06164 0.1846 0.0
C1270 C 0.98997 0.05795 0.20385 0.0
C1271 C 0.95828 0.04877 0.22377 0.0
C1272 C 0.93673 0.04296 0.22432 0.0
C1273 C 0.96853 0.05208 0.20444 0.0
C1274 C 0.92564 0.04027 0.20518 0.0
C1275 C 0.9357 0.04361 0.18591 0.0
H1276 H 0.31034 0.80162 0.12324 0.0
H1277 H 0.25177 0.8216 0.15019 0.0
H1278 H 0.2484 0.84693 0.12249 0.0
H1279 H 0.26146 0.86273 0.09002 0.0
H1280 H 0.32011 0.84297 0.06303 0.0
H1281 H 0.32416 0.81851 0.09145 0.0
C1282 C 0.29698 0.81171 0.12322 0.0
C1283 C 0.28127 0.80957 0.13873 0.0
C1284 C 0.29511 0.82628 0.10719 0.0
C1285 C 0.26394 0.82264 0.13828 0.0
C1286 C 0.26203 0.83722 0.12249 0.0
C1287 C 0.27519 0.85315 0.09037 0.0
C1288 C 0.2904 0.85468 0.07431 0.0
C1289 C 0.2774 0.83903 0.10673 0.0
C1290 C 0.30811 0.84214 0.07512 0.0
C1291 C 0.31045 0.8281 0.09138 0.0
H1292 H 0.07195 0.50464 0.14819 0.0
H1293 H 0.02261 0.46896 0.17881 0.0
H1294 H 0.04119 0.47315 0.21244 0.0
H1295 H 0.0721 0.48575 0.23292 0.0
H1296 H 0.12145 0.5216 0.20245 0.0
H1297 H 0.10228 0.51847 0.16906 0.0
C1298 C 0.06529 0.49776 0.16223 0.0
C1299 C 0.04592 0.48646 0.16094 0.0
C1300 C 0.0761 0.5002 0.18155 0.0
C1301 C 0.03736 0.47791 0.17937 0.0
C1302 C 0.04805 0.48019 0.1986 0.0
C1303 C 0.07866 0.49294 0.21901 0.0
C1304 C 0.09828 0.50378 0.22021 0.0
C1305 C 0.06752 0.49114 0.19984 0.0
C1306 C 0.10641 0.51314 0.20201 0.0
C1307 C 0.09547 0.51133 0.18287 0.0
H1308 H 0.3898 0.77039 0.33157 0.0
H1309 H 0.43159 0.74489 0.28463 0.0
H1310 H 0.46062 0.74708 0.30999 0.0
H1311 H 0.47441 0.75721 0.34528 0.0
H1312 H 0.43232 0.7825 0.39217 0.0
H1313 H 0.40328 0.77952 0.36705 0.0
C1314 C 0.40529 0.76539 0.32687 0.0
C1315 C 0.40852 0.75756 0.3062 0.0
C1316 C 0.42191 0.7667 0.34152 0.0
C1317 C 0.42861 0.75081 0.30048 0.0
C1318 C 0.44526 0.75217 0.31494 0.0
C1319 C 0.45887 0.76202 0.35003 0.0
C1320 C 0.45563 0.77015 0.3706 0.0
C1321 C 0.44213 0.76021 0.33548 0.0
C1322 C 0.43534 0.77619 0.37647 0.0
C1323 C 0.41868 0.77453 0.36209 0.0
H1324 H 0.98908 0.40004 0.94666 0.0
H1325 H 0.98803 0.36409 1.00314 0.0
H1326 H 0.99789 0.333 0.98264 0.0
H1327 H 1.00613 0.31582 0.94841 0.0
H1328 H 1.00671 0.35214 0.89209 0.0
H1329 H 0.99744 0.3831 0.91275 0.0
C1330 C 0.99083 0.38537 0.95449 0.0
C1331 C 0.98772 0.38443 0.97642 0.0
C1332 C 0.99635 0.36754 0.9426 0.0
C1333 C 0.99051 0.36535 0.98633 0.0
C1334 C 0.99602 0.34751 0.97458 0.0
C1335 C 1.00422 0.3305 0.94066 0.0
C1336 C 1.00709 0.33156 0.91868 0.0
C1337 C 0.9989 0.3484 0.95268 0.0
C1338 C 1.00461 0.35078 0.90894 0.0
C1339 C 0.9993 0.36855 0.92075 0.0
H1340 H 0.62927 0.81952 0.32901 0.0
H1341 H 0.6244 0.76615 0.28593 0.0
H1342 H 0.59336 0.75306 0.30466 0.0
H1343 H 0.56762 0.75661 0.33341 0.0
H1344 H 0.57324 0.80951 0.37703 0.0
H1345 H 0.60416 0.82264 0.35818 0.0
C1346 C 0.62162 0.80488 0.32384 0.0
C1347 C 0.62926 0.79391 0.30601 0.0
C1348 C 0.6039 0.79728 0.33484 0.0
C1349 C 0.61877 0.77515 0.29938 0.0
C1350 C 0.60107 0.76754 0.31018 0.0
C1351 C 0.57561 0.771 0.33883 0.0
C1352 C 0.56804 0.78203 0.35664 0.0
C1353 C 0.59347 0.77849 0.32792 0.0
C1354 C 0.57867 0.80065 0.36341 0.0
C1355 C 0.59638 0.80821 0.35261 0.0
H1356 H 0.04859 0.15264 0.95864 0.0
H1357 H 0.04261 0.18246 0.02014 0.0
H1358 H 0.03346 0.215 1.00384 0.0
H1359 H 0.02819 0.23537 0.97213 0.0
H1360 H 0.03475 0.20568 0.9106 0.0
H1361 H 0.04283 0.17286 0.92693 0.0
C1362 C 0.04541 0.16628 0.96849 0.0
C1363 C 0.04634 0.16504 0.99061 0.0
C1364 C 0.04032 0.18504 0.95901 0.0
C1365 C 0.04178 0.18283 1.0031 0.0
C1366 C 0.03668 0.20152 0.99378 0.0
C1367 C 0.03134 0.22173 0.96226 0.0
C1368 C 0.03091 0.22309 0.94014 0.0
C1369 C 0.03602 0.20285 0.97175 0.0
C1370 C 0.03498 0.20516 0.92765 0.0
C1371 C 0.03963 0.18635 0.93698 0.0
H1372 H 0.42621 0.28969 0.24833 0.0
H1373 H 0.37473 0.29188 0.2042 0.0
H1374 H 0.3995 0.2913 0.17476 0.0
H1375 H 0.43575 0.28891 0.16145 0.0
H1376 H 0.48709 0.28612 0.20575 0.0
H1377 H 0.46241 0.28803 0.2351 0.0
C1378 C 0.42038 0.28992 0.23227 0.0
C1379 C 0.3986 0.29075 0.22853 0.0
C1380 C 0.43471 0.28942 0.21539 0.0
C1381 C 0.3914 0.29145 0.20759 0.0
C1382 C 0.40556 0.29099 0.19072 0.0
C1383 C 0.44157 0.28881 0.17752 0.0
C1384 C 0.46329 0.28731 0.18131 0.0
C1385 C 0.42725 0.28983 0.19441 0.0
C1386 C 0.47049 0.28723 0.20228 0.0
C1387 C 0.45637 0.2883 0.21913 0.0
H1388 H 0.52361 0.37356 0.0415 0.0
H1389 H 0.57223 0.39705 0.08427 0.0
H1390 H 0.56464 0.36828 0.10775 0.0
H1391 H 0.54442 0.3362 0.11614 0.0
H1392 H 0.49545 0.31297 0.07361 0.0
H1393 H 0.50276 0.34197 0.05033 0.0
C1394 C 0.5324 0.37253 0.05606 0.0
C1395 C 0.54857 0.38745 0.06097 0.0
C1396 C 0.52788 0.35596 0.06962 0.0
C1397 C 0.55995 0.38564 0.07984 0.0
C1398 C 0.55553 0.36924 0.09339 0.0
C1399 C 0.5353 0.33749 0.10181 0.0
C1400 C 0.51943 0.32233 0.09667 0.0
C1401 C 0.53961 0.35424 0.0884 0.0
C1402 C 0.50778 0.32434 0.07801 0.0
C1403 C 0.51196 0.34095 0.06464 0.0
H1404 H 0.61275 0.22172 0.23749 0.0
H1405 H 0.65048 0.27253 0.21268 0.0
H1406 H 0.62101 0.28228 0.1906 0.0
H1407 H 0.58446 0.27606 0.17803 0.0
H1408 H 0.54702 0.22523 0.20343 0.0
H1409 H 0.57646 0.21571 0.22531 0.0
C1410 C 0.61459 0.23484 0.22713 0.0
C1411 C 0.63383 0.24631 0.22669 0.0
C1412 C 0.59761 0.24033 0.2145 0.0
C1413 C 0.63579 0.26352 0.21347 0.0
C1414 C 0.61897 0.26904 0.20074 0.0
C1415 C 0.58277 0.26288 0.18831 0.0
C1416 C 0.56351 0.25137 0.189 0.0
C1417 C 0.5998 0.25752 0.20108 0.0
C1418 C 0.5616 0.2344 0.20254 0.0
C1419 C 0.57845 0.22891 0.21509 0.0
H1420 H 0.4681 0.15278 0.08765 0.0
H1421 H 0.50863 0.17601 0.03842 0.0
H1422 H 0.51782 0.20703 0.06033 0.0
H1423 H 0.51395 0.22782 0.09341 0.0
H1424 H 0.47277 0.20443 0.14213 0.0
H1425 H 0.46401 0.17346 0.12031 0.0
C1426 C 0.47877 0.16472 0.08157 0.0
C1427 C 0.48757 0.16205 0.06134 0.0
C1428 C 0.48384 0.18257 0.09416 0.0
C1429 C 0.50176 0.17752 0.05399 0.0
C1430 C 0.50693 0.19534 0.06647 0.0
C1431 C 0.50305 0.21596 0.09925 0.0
C1432 C 0.49404 0.21853 0.11942 0.0
C1433 C 0.49803 0.19806 0.08658 0.0
C1434 C 0.47995 0.20295 0.1267 0.0
C1435 C 0.47492 0.18518 0.11423 0.0
H1436 H 0.34099 0.39786 0.73512 0.0
H1437 H 0.2842 0.43237 0.74228 0.0
H1438 H 0.30505 0.46392 0.75222 0.0
H1439 H 0.33956 0.48186 0.75829 0.0
H1440 H 0.39617 0.44699 0.75092 0.0
H1441 H 0.37524 0.41557 0.74139 0.0
C1442 C 0.33316 0.41232 0.73869 0.0
C1443 C 0.31106 0.41274 0.73785 0.0
C1444 C 0.34523 0.43039 0.74429 0.0
C1445 C 0.30117 0.43153 0.74296 0.0
C1446 C 0.3131 0.44962 0.74853 0.0
C1447 C 0.34732 0.4674 0.75456 0.0
C1448 C 0.36944 0.46686 0.75527 0.0
C1449 C 0.33516 0.44926 0.74916 0.0
C1450 C 0.3792 0.44792 0.75051 0.0
C1451 C 0.36724 0.4299 0.74505 0.0
H1452 H 0.28749 0.61629 0.81483 0.0
H1453 H 0.33379 0.6579 0.78704 0.0
H1454 H 0.35622 0.62851 0.77909 0.0
H1455 H 0.36289 0.59102 0.78025 0.0
H1456 H 0.31645 0.54929 0.8077 0.0
H1457 H 0.29389 0.57863 0.81539 0.0
C1458 C 0.30238 0.61889 0.80681 0.0
C1459 C 0.30894 0.63931 0.80161 0.0
C1460 C 0.31524 0.60189 0.80227 0.0
C1461 C 0.32844 0.64241 0.79149 0.0
C1462 C 0.34126 0.62559 0.78685 0.0
C1463 C 0.34785 0.58832 0.78793 0.0
C1464 C 0.34144 0.56793 0.79341 0.0
C1465 C 0.33489 0.60528 0.79228 0.0
C1466 C 0.32183 0.56478 0.8033 0.0
C1467 C 0.30888 0.58157 0.8077 0.0
H1468 H 0.8949 0.45855 0.5085 0.0
H1469 H 0.85475 0.50387 0.48178 0.0
H1470 H 0.82359 0.48312 0.49199 0.0
H1471 H 0.80775 0.45138 0.50745 0.0
H1472 H 0.84825 0.40619 0.53408 0.0
H1473 H 0.87915 0.42751 0.52483 0.0
C1474 C 0.87933 0.46385 0.50484 0.0
C1475 C 0.87719 0.48269 0.4943 0.0
C1476 C 0.8615 0.45181 0.51067 0.0
C1477 C 0.85687 0.48952 0.49002 0.0
C1478 C 0.83903 0.47759 0.49575 0.0
C1479 C 0.82333 0.44623 0.51129 0.0
C1480 C 0.8256 0.42712 0.52137 0.0
C1481 C 0.84115 0.45861 0.50594 0.0
C1482 C 0.84595 0.42077 0.5263 0.0
C1483 C 0.86369 0.43296 0.521 0.0
H1484 H 0.73496 0.91932 0.76586 0.0
H1485 H 0.72266 0.90566 0.83107 0.0
H1486 H 0.69707 0.93315 0.83309 0.0
H1487 H 0.67814 0.96118 0.81645 0.0
H1488 H 0.68968 0.97411 0.75095 0.0
H1489 H 0.71522 0.94654 0.7489 0.0
C1490 C 0.7265 0.92213 0.78046 0.0
C1491 C 0.7309 0.91039 0.7983 0.0
C1492 C 0.71157 0.93783 0.78148 0.0
C1493 C 0.71995 0.91461 0.81716 0.0
C1494 C 0.70517 0.93027 0.81831 0.0
C1495 C 0.6862 0.95796 0.8017 0.0
C1496 C 0.68198 0.96979 0.78391 0.0
C1497 C 0.70089 0.94202 0.80059 0.0
C1498 C 0.69257 0.9653 0.76492 0.0
C1499 C 0.70723 0.94953 0.76373 0.0
H1500 H 0.63591 0.58646 0.99076 0.0
H1501 H 0.67498 0.53349 0.97985 0.0
H1502 H 0.70633 0.55508 0.98905 0.0
H1503 H 0.7227 0.58931 0.99977 0.0
H1504 H 0.68305 0.64199 1.01057 0.0
H1505 H 0.65202 0.62028 1.00158 0.0
C1506 C 0.6513 0.57966 0.99022 0.0
C1507 C 0.65308 0.55841 0.98451 0.0
C1508 C 0.66922 0.59215 0.99546 0.0
C1509 C 0.67313 0.54976 0.98434 0.0
C1510 C 0.69108 0.56213 0.98949 0.0
C1511 C 0.70728 0.59604 1.00011 0.0
C1512 C 0.70529 0.6173 1.0058 0.0
C1513 C 0.68933 0.58339 0.99501 0.0
C1514 C 0.68513 0.62571 1.00626 0.0
C1515 C 0.66731 0.6133 1.00112 0.0
H1516 H 0.24783 0.61452 0.2654 0.0
H1517 H 0.20662 0.65844 0.23781 0.0
H1518 H 0.17777 0.63229 0.23762 0.0
H1519 H 0.16402 0.59709 0.2458 0.0
H1520 H 0.20518 0.55348 0.27406 0.0
H1521 H 0.23409 0.57948 0.27376 0.0
C1522 C 0.2325 0.61847 0.25952 0.0
C1523 C 0.22947 0.63849 0.25165 0.0
C1524 C 0.21589 0.60342 0.25964 0.0
C1525 C 0.20954 0.64312 0.24372 0.0
C1526 C 0.19296 0.6282 0.24374 0.0
C1527 C 0.17931 0.59325 0.25191 0.0
C1528 C 0.18235 0.57331 0.25996 0.0
C1529 C 0.19594 0.60831 0.2517 0.0
C1530 C 0.20231 0.56867 0.26777 0.0
C1531 C 0.2189 0.58354 0.26761 0.0
H1532 H 0.87254 0.56984 0.06615 0.0
H1533 H 0.8887 0.54897 1.00308 0.0
H1534 H 0.85991 0.56851 0.98879 0.0
H1535 H 0.83035 0.5919 0.99409 0.0
H1536 H 0.81475 0.61335 0.05716 0.0
H1537 H 0.84329 0.59349 0.07143 0.0
C1538 C 0.86992 0.56971 0.04925 0.0
C1539 C 0.88284 0.55789 0.03576 0.0
C1540 C 0.85344 0.58116 0.04109 0.0
C1541 C 0.87889 0.55766 1.01391 0.0
C1542 C 0.86249 0.56896 1.00569 0.0
C1543 C 0.83317 0.59226 1.01096 0.0
C1544 C 0.82036 0.60415 0.02449 0.0
C1545 C 0.84967 0.58079 0.01912 0.0
C1546 C 0.82432 0.60437 0.04633 0.0
C1547 C 0.84066 0.593 0.05454 0.0
H1548 H 0.16409 0.98243 0.07465 0.0
H1549 H 0.14432 0.99202 1.01065 0.0
H1550 H 0.17279 0.97062 0.9974 0.0
H1551 H 0.20264 0.94825 1.00396 0.0
H1552 H 0.22187 0.93807 0.06805 0.0
H1553 H 0.19414 0.96041 0.08121 0.0
C1554 C 0.16589 0.97974 0.0578 0.0
C1555 C 0.15199 0.98883 0.0437 0.0
C1556 C 0.18218 0.96722 0.05027 0.0
C1557 C 0.15489 0.98546 0.02189 0.0
C1558 C 0.1711 0.97309 1.01428 0.0
C1559 C 0.20083 0.95095 0.02082 0.0
C1560 C 0.21434 0.9414 0.03497 0.0
C1561 C 0.18477 0.96378 0.02832 0.0
C1562 C 0.21171 0.94515 0.05676 0.0
C1563 C 0.19583 0.95793 0.06433 0.0
loop_
_geom_bond_atom_site_label_1
_geom_bond_atom_site_label_2
_geom_bond_distance
_geom_bond_site_symmetry_2
_ccdc_geom_bond_type
C0 C1 1.264 . S
C0 C5 1.479 . S
C0 C10 1.465 1_655 S
C1 C0 1.264 . S
C1 C3 1.339 . S
C1 H28 0.931 1_655 S
C2 C3 1.395 . S
C2 C4 1.320 . S
C3 C1 1.339 . S
C3 C2 1.395 . S
C3 H29 0.929 . S
C4 C2 1.320 . S
C4 C5 1.405 . S
C4 H30 0.930 . S
C5 C0 1.479 . S
C5 C4 1.405 . S
C5 H31 0.931 . S
U6 O7 2.454 . S
U6 O8 2.458 . S
U6 C9 2.984 . S
U6 C10 2.847 . S
U6 C23 2.882 . S
U6 O24 2.441 . S
U6 O25 2.420 . S
U6 O26 2.455 . S
U6 O27 2.449 . S
O7 U6 2.454 . S
O7 C9 1.353 . S
O8 U6 2.458 . S
O8 C9 1.286 . S
C9 U6 2.984 . S
C9 O7 1.353 . S
C9 O8 1.286 . S
C9 C11 1.363 . S
C10 C0 1.465 1_455 S
C10 U6 2.847 . S
C10 O24 1.249 . S
C10 O25 1.202 . S
C11 C9 1.363 . S
C11 C13 1.408 . S
C11 C16 1.342 1_554 S
C12 C13 1.310 1_556 S
C12 C15 1.461 . S
C12 H32 0.960 . S
C13 C11 1.408 . S
C13 C12 1.310 1_554 S
C13 H33 0.930 . S
C14 C15 1.474 . S
C14 C16 1.285 . S
C14 H34 0.929 . S
C15 C12 1.461 . S
C15 C14 1.474 . S
C16 C11 1.342 1_556 S
C16 C14 1.285 . S
C16 H35 0.930 . S
C17 C20 1.424 1_545 S
C17 C22 1.245 . S
C17 C23 1.428 . S
C18 C21 1.260 . S
C18 C22 1.477 1_565 S
C18 H36 0.932 . S
C19 C20 1.384 . S
C19 C21 1.479 . S
C19 H37 0.929 . S
C20 C17 1.424 1_565 S
C20 C19 1.384 . S
C20 H38 0.928 . S
C21 C18 1.260 . S
C21 C19 1.479 . S
C22 C17 1.245 . S
C22 C18 1.477 1_545 S
C22 H39 0.932 . S
C23 U6 2.882 . S
C23 C17 1.428 . S
C23 O26 1.301 . S
C23 O27 1.282 . S
O24 U6 2.441 . S
O24 C10 1.249 . S
O25 U6 2.420 . S
O25 C10 1.202 . S
O26 U6 2.455 . S
O26 C23 1.301 . S
O27 U6 2.449 . S
O27 C23 1.282 . S
H28 C1 0.931 1_455 S
H29 C3 0.929 . S
H30 C4 0.930 . S
H31 C5 0.931 . S
H32 C12 0.960 . S
H33 C13 0.930 . S
H34 C14 0.929 . S
H35 C16 0.930 . S
H36 C18 0.932 . S
H37 C19 0.929 . S
H38 C20 0.928 . S
H39 C22 0.932 . S
C40 C41 1.264 . S
C40 C45 1.479 . S
C40 C50 1.465 . S
C41 C40 1.264 . S
C41 C43 1.339 . S
C41 H68 0.931 . S
C42 C43 1.395 . S
C42 C44 1.320 . S
C43 C41 1.339 . S
C43 C42 1.395 . S
C43 H69 0.929 . S
C44 C42 1.320 . S
C44 C45 1.405 . S
C44 H70 0.930 . S
C45 C40 1.479 . S
C45 C44 1.405 . S
C45 H71 0.931 . S
U46 O47 2.454 . S
U46 O48 2.458 . S
U46 C49 2.984 . S
U46 C50 2.847 . S
U46 C63 2.882 . S
U46 O64 2.441 . S
U46 O65 2.420 . S
U46 O66 2.455 . S
U46 O67 2.449 . S
O47 U46 2.454 . S
O47 C49 1.353 . S
O48 U46 2.458 . S
O48 C49 1.286 . S
C49 U46 2.984 . S
C49 O47 1.353 . S
C49 O48 1.286 . S
C49 C51 1.363 . S
C50 C40 1.465 . S
C50 U46 2.847 . S
C50 O64 1.249 . S
C50 O65 1.202 . S
C51 C49 1.363 . S
C51 C53 1.408 . S
C51 C56 1.342 . S
C52 C53 1.310 . S
C52 C55 1.461 . S
C52 H72 0.932 . S
C53 C51 1.408 . S
C53 C52 1.310 . S
C53 H73 0.930 . S
C54 C55 1.474 . S
C54 C56 1.285 . S
C54 H74 0.929 . S
C55 C52 1.461 . S
C55 C54 1.474 . S
C56 C51 1.342 . S
C56 C54 1.285 . S
C56 H75 0.930 . S
C57 C60 1.424 . S
C57 C62 1.245 . S
C57 C63 1.428 . S
C58 C61 1.260 . S
C58 C62 1.477 . S
C58 H76 0.932 . S
C59 C60 1.384 . S
C59 C61 1.479 . S
C59 H77 0.929 . S
C60 C57 1.424 . S
C60 C59 1.384 . S
C60 H78 0.928 . S
C61 C58 1.260 . S
C61 C59 1.479 . S
C62 C57 1.245 . S
C62 C58 1.477 . S
C62 H79 0.932 . S
C63 U46 2.882 . S
C63 C57 1.428 . S
C63 O66 1.301 . S
C63 O67 1.282 . S
O64 U46 2.441 . S
O64 C50 1.249 . S
O65 U46 2.420 . S
O65 C50 1.202 . S
O66 U46 2.455 . S
O66 C63 1.301 . S
O67 U46 2.449 . S
O67 C63 1.282 . S
H68 C41 0.931 . S
H69 C43 0.929 . S
H70 C44 0.930 . S
H71 C45 0.931 . S
H72 C52 0.932 . S
H73 C53 0.930 . S
H74 C54 0.929 . S
H75 C56 0.930 . S
H76 C58 0.932 . S
H77 C59 0.929 . S
H78 C60 0.928 . S
H79 C62 0.932 . S
C80 C81 1.264 . S
C80 C85 1.479 . S
C80 C90 1.465 1_556 S
C81 C80 1.264 . S
C81 C83 1.339 . S
C81 H108 0.931 1_656 S
C82 C83 1.395 . S
C82 C84 1.320 . S
C83 C81 1.339 . S
C83 C82 1.395 . S
C83 H109 0.929 1_655 S
C84 C82 1.320 . S
C84 C85 1.405 . S
C84 H110 0.930 . S
C85 C80 1.479 . S
C85 C84 1.405 . S
C85 H111 0.931 . S
U86 O87 2.454 . S
U86 O88 2.458 . S
U86 C89 2.984 . S
U86 C90 2.847 . S
U86 C103 2.867 1_655 S
U86 O104 2.447 . S
U86 O105 2.420 . S
U86 O106 2.455 . S
U86 O107 2.449 1_655 S
O87 U86 2.454 . S
O87 C89 1.353 . S
O88 U86 2.458 . S
O88 C89 1.286 . S
C89 U86 2.984 . S
C89 O87 1.353 . S
C89 O88 1.286 . S
C89 C91 1.363 . S
C90 C80 1.465 1_554 S
C90 U86 2.847 . S
C90 O104 1.250 . S
C90 O105 1.202 . S
C91 C89 1.363 . S
C91 C93 1.408 . S
C91 C96 1.342 . S
C92 C93 1.310 . S
C92 C95 1.461 . S
C92 H112 0.932 1_554 S
C93 C91 1.408 . S
C93 C92 1.310 . S
C93 H113 0.930 1_554 S
C94 C95 1.474 . S
C94 C96 1.285 . S
C94 H114 0.929 . S
C95 C92 1.461 . S
C95 C94 1.474 . S
C96 C91 1.342 . S
C96 C94 1.285 . S
C96 H115 0.930 . S
C97 C100 1.424 . S
C97 C102 1.245 . S
C97 C103 1.441 . S
C98 C101 1.260 . S
C98 C102 1.477 . S
C98 H116 0.932 . S
C99 C100 1.384 . S
C99 C101 1.479 . S
C99 H117 0.929 . S
C100 C97 1.424 . S
C100 C99 1.384 . S
C100 H118 0.928 . S
C101 C98 1.260 . S
C101 C99 1.479 . S
C102 C97 1.245 . S
C102 C98 1.477 . S
C102 H119 0.932 1_455 S
C103 U86 2.867 1_455 S
C103 C97 1.441 . S
C103 O106 1.282 1_455 S
C103 O107 1.288 . S
O104 U86 2.447 . S
O104 C90 1.250 . S
O105 U86 2.420 . S
O105 C90 1.202 . S
O106 U86 2.455 . S
O106 C103 1.282 1_655 S
O107 U86 2.449 1_455 S
O107 C103 1.288 . S
H108 C81 0.931 1_454 S
H109 C83 0.929 1_455 S
H110 C84 0.930 . S
H111 C85 0.931 . S
H112 C92 0.932 1_556 S
H113 C93 0.930 1_556 S
H114 C94 0.929 . S
H115 C96 0.930 . S
H116 C98 0.932 . S
H117 C99 0.929 . S
H118 C100 0.928 . S
H119 C102 0.932 1_655 S
C120 C121 1.264 . S
C120 C125 1.479 . S
C120 C130 1.465 . S
C121 C120 1.264 . S
C121 C123 1.339 . S
C121 H148 0.931 . S
C122 C123 1.395 . S
C122 C124 1.320 . S
C123 C121 1.339 . S
C123 C122 1.395 . S
C123 H149 0.929 . S
C124 C122 1.320 . S
C124 C125 1.405 . S
C124 H150 0.930 . S
C125 C120 1.479 . S
C125 C124 1.405 . S
C125 H151 0.931 . S
U126 O127 2.454 . S
U126 O128 2.458 . S
U126 C129 2.984 . S
U126 C130 2.847 . S
U126 C143 2.882 . S
U126 O144 2.441 . S
U126 O145 2.420 . S
U126 O146 2.455 . S
U126 O147 2.449 . S
O127 U126 2.454 . S
O127 C129 1.353 . S
O128 U126 2.458 . S
O128 C129 1.286 . S
C129 U126 2.984 . S
C129 O127 1.353 . S
C129 O128 1.286 . S
C129 C131 1.363 . S
C130 C120 1.465 . S
C130 U126 2.847 . S
C130 O144 1.249 . S
C130 O145 1.202 . S
C131 C129 1.363 . S
C131 C133 1.408 . S
C131 C136 1.342 . S
C132 C133 1.310 . S
C132 C135 1.461 . S
C132 H152 0.932 . S
C133 C131 1.408 . S
C133 C132 1.310 . S
C133 H153 0.930 . S
C134 C135 1.474 . S
C134 C136 1.285 . S
C134 H154 0.929 . S
C135 C132 1.461 . S
C135 C134 1.474 . S
C136 C131 1.342 . S
C136 C134 1.285 . S
C136 H155 0.930 . S
C137 C140 1.424 . S
C137 C142 1.245 . S
C137 C143 1.428 . S
C138 C141 1.260 . S
C138 C142 1.477 . S
C138 H156 0.932 . S
C139 C140 1.384 . S
C139 C141 1.479 . S
C139 H157 0.929 . S
C140 C137 1.424 . S
C140 C139 1.384 . S
C140 H158 0.928 . S
C141 C138 1.260 . S
C141 C139 1.479 . S
C142 C137 1.245 . S
C142 C138 1.477 . S
C142 H159 0.932 . S
C143 U126 2.882 . S
C143 C137 1.428 . S
C143 O146 1.301 . S
C143 O147 1.282 . S
O144 U126 2.441 . S
O144 C130 1.249 . S
O145 U126 2.420 . S
O145 C130 1.202 . S
O146 U126 2.455 . S
O146 C143 1.301 . S
O147 U126 2.449 . S
O147 C143 1.282 . S
H148 C121 0.931 . S
H149 C123 0.929 . S
H150 C124 0.930 . S
H151 C125 0.931 . S
H152 C132 0.932 . S
H153 C133 0.930 . S
H154 C134 0.929 . S
H155 C136 0.930 . S
H156 C138 0.932 . S
H157 C139 0.929 . S
H158 C140 0.928 . S
H159 C142 0.932 . S
C160 C161 1.264 1_565 S
C160 C165 1.479 . S
C160 C170 1.465 1_655 S
C161 C160 1.264 1_545 S
C161 C163 1.339 . S
C161 H188 0.931 1_655 S
C162 C163 1.395 1_565 S
C162 C164 1.320 . S
C163 C161 1.339 . S
C163 C162 1.395 1_545 S
C163 H189 0.929 . S
C164 C162 1.320 . S
C164 C165 1.405 . S
C164 H190 0.930 . S
C165 C160 1.479 . S
C165 C164 1.405 . S
C165 H191 0.931 . S
U166 O167 2.454 . S
U166 O168 2.458 . S
U166 C169 2.984 . S
U166 C170 2.847 . S
U166 C183 2.882 1_565 S
U166 O184 2.441 . S
U166 O185 2.420 . S
U166 O186 2.455 . S
U166 O187 2.449 1_565 S
O167 U166 2.454 . S
O167 C169 1.353 . S
O168 U166 2.458 . S
O168 C169 1.286 . S
C169 U166 2.984 . S
C169 O167 1.353 . S
C169 O168 1.286 . S
C169 C171 1.363 . S
C170 C160 1.465 1_455 S
C170 U166 2.847 . S
C170 O184 1.249 . S
C170 O185 1.202 . S
C171 C169 1.363 . S
C171 C173 1.408 . S
C171 C176 1.342 . S
C172 C173 1.310 . S
C172 C175 1.461 . S
C172 H192 0.932 1_455 S
C173 C171 1.408 . S
C173 C172 1.310 . S
C173 H193 0.930 . S
C174 C175 1.474 . S
C174 C176 1.285 . S
C174 H194 0.929 . S
C175 C172 1.461 . S
C175 C174 1.474 . S
C176 C171 1.342 . S
C176 C174 1.285 . S
C176 H195 0.930 . S
C177 C180 1.424 . S
C177 C182 1.245 . S
C177 C183 1.428 . S
C178 C181 1.260 . S
C178 C182 1.477 . S
C178 H196 0.932 . S
C179 C180 1.384 . S
C179 C181 1.479 . S
C179 H197 0.929 . S
C180 C177 1.424 . S
C180 C179 1.384 . S
C180 H198 0.928 . S
C181 C178 1.260 . S
C181 C179 1.479 . S
C182 C177 1.245 . S
C182 C178 1.477 . S
C182 H199 0.932 . S
C183 U166 2.882 1_545 S
C183 C177 1.428 . S
C183 O186 1.301 1_545 S
C183 O187 1.282 . S
O184 U166 2.441 . S
O184 C170 1.249 . S
O185 U166 2.420 . S
O185 C170 1.202 . S
O186 U166 2.455 . S
O186 C183 1.301 1_565 S
O187 U166 2.449 1_545 S
O187 C183 1.282 . S
H188 C161 0.931 1_455 S
H189 C163 0.929 . S
H190 C164 0.930 . S
H191 C165 0.931 . S
H192 C172 0.932 1_655 S
H193 C173 0.930 . S
H194 C174 0.929 . S
H195 C176 0.930 . S
H196 C178 0.932 . S
H197 C179 0.929 . S
H198 C180 0.928 . S
H199 C182 0.932 . S
C200 C201 1.264 . S
C200 C205 1.479 . S
C200 C210 1.465 . S
C201 C200 1.264 . S
C201 C203 1.339 . S
C201 H228 0.931 . S
C202 C203 1.395 . S
C202 C204 1.320 . S
C203 C201 1.339 . S
C203 C202 1.395 . S
C203 H229 0.929 . S
C204 C202 1.320 . S
C204 C205 1.405 . S
C204 H230 0.930 . S
C205 C200 1.479 . S
C205 C204 1.405 . S
C205 H231 0.931 . S
U206 O207 2.454 . S
U206 O208 2.458 . S
U206 C209 2.984 . S
U206 C210 2.847 . S
U206 C223 2.882 . S
U206 O224 2.441 . S
U206 O225 2.420 . S
U206 O226 2.455 . S
U206 O227 2.449 . S
O207 U206 2.454 . S
O207 C209 1.353 . S
O208 U206 2.458 . S
O208 C209 1.286 . S
C209 U206 2.984 . S
C209 O207 1.353 . S
C209 O208 1.286 . S
C209 C211 1.363 . S
C210 C200 1.465 . S
C210 U206 2.847 . S
C210 O224 1.249 . S
C210 O225 1.202 . S
C211 C209 1.363 . S
C211 C213 1.408 . S
C211 C216 1.342 . S
C212 C213 1.310 . S
C212 C215 1.461 . S
C212 H232 0.932 . S
C213 C211 1.408 . S
C213 C212 1.310 . S
C213 H233 0.930 . S
C214 C215 1.474 . S
C214 C216 1.285 . S
C214 H234 0.929 . S
C215 C212 1.461 . S
C215 C214 1.474 . S
C216 C211 1.342 . S
C216 C214 1.285 . S
C216 H235 0.930 . S
C217 C220 1.424 . S
C217 C222 1.245 . S
C217 C223 1.428 . S
C218 C221 1.260 . S
C218 C222 1.477 . S
C218 H236 0.932 . S
C219 C220 1.384 . S
C219 C221 1.479 . S
C219 H237 0.929 . S
C220 C217 1.424 . S
C220 C219 1.384 . S
C220 H238 0.928 . S
C221 C218 1.260 . S
C221 C219 1.479 . S
C222 C217 1.245 . S
C222 C218 1.477 . S
C222 H239 0.932 . S
C223 U206 2.882 . S
C223 C217 1.428 . S
C223 O226 1.301 . S
C223 O227 1.282 . S
O224 U206 2.441 . S
O224 C210 1.249 . S
O225 U206 2.420 . S
O225 C210 1.202 . S
O226 U206 2.455 . S
O226 C223 1.301 . S
O227 U206 2.449 . S
O227 C223 1.282 . S
H228 C201 0.931 . S
H229 C203 0.929 . S
H230 C204 0.930 . S
H231 C205 0.931 . S
H232 C212 0.932 . S
H233 C213 0.930 . S
H234 C214 0.929 . S
H235 C216 0.930 . S
H236 C218 0.932 . S
H237 C219 0.929 . S
H238 C220 0.928 . S
H239 C222 0.932 . S
C240 C241 1.264 . S
C240 C245 1.479 . S
C240 C250 1.465 . S
C241 C240 1.264 . S
C241 C243 1.338 1_655 S
C241 H268 0.931 1_655 S
C242 C243 1.389 1_655 S
C242 C244 1.320 . S
C243 C241 1.338 1_455 S
C243 C242 1.389 1_455 S
C243 H269 0.935 . S
C244 C242 1.320 . S
C244 C245 1.405 . S
C244 H270 0.930 . S
C245 C240 1.479 . S
C245 C244 1.405 . S
C245 H271 0.931 . S
U246 O247 2.454 . S
U246 O248 2.458 . S
U246 C249 2.984 . S
U246 C250 2.847 . S
U246 C263 2.882 . S
U246 O264 2.441 . S
U246 O265 2.420 . S
U246 O266 2.455 . S
U246 O267 2.449 1_655 S
O247 U246 2.454 . S
O247 C249 1.353 . S
O248 U246 2.458 . S
O248 C249 1.286 . S
C249 U246 2.984 . S
C249 O247 1.353 . S
C249 O248 1.286 . S
C249 C251 1.363 . S
C250 C240 1.465 . S
C250 U246 2.847 . S
C250 O264 1.249 . S
C250 O265 1.202 . S
C251 C249 1.363 . S
C251 C253 1.408 . S
C251 C256 1.342 . S
C252 C253 1.310 . S
C252 C255 1.461 . S
C252 H272 0.932 . S
C253 C251 1.408 . S
C253 C252 1.310 . S
C253 H273 0.930 . S
C254 C255 1.474 . S
C254 C256 1.285 . S
C254 H274 0.929 . S
C255 C252 1.461 . S
C255 C254 1.474 . S
C256 C251 1.342 . S
C256 C254 1.285 . S
C256 H275 0.930 . S
C257 C260 1.424 . S
C257 C262 1.245 . S
C257 C263 1.428 1_455 S
C258 C261 1.260 . S
C258 C262 1.477 . S
C258 H276 0.932 . S
C259 C260 1.384 . S
C259 C261 1.479 . S
C259 H277 0.929 . S
C260 C257 1.424 . S
C260 C259 1.384 . S
C260 H278 0.928 . S
C261 C258 1.260 . S
C261 C259 1.479 . S
C262 C257 1.245 . S
C262 C258 1.477 . S
C262 H279 0.932 1_455 S
C263 U246 2.882 . S
C263 C257 1.428 1_655 S
C263 O266 1.301 . S
C263 O267 1.282 1_655 S
O264 U246 2.441 . S
O264 C250 1.249 . S
O265 U246 2.420 . S
O265 C250 1.202 . S
O266 U246 2.455 . S
O266 C263 1.301 . S
O267 U246 2.449 1_455 S
O267 C263 1.282 1_455 S
H268 C241 0.931 1_455 S
H269 C243 0.935 . S
H270 C244 0.930 . S
H271 C245 0.931 . S
H272 C252 0.932 . S
H273 C253 0.930 . S
H274 C254 0.929 . S
H275 C256 0.930 . S
H276 C258 0.932 . S
H277 C259 0.929 . S
H278 C260 0.928 . S
H279 C262 0.932 1_655 S
C280 C281 1.264 . S
C280 C285 1.479 . S
C280 C290 1.465 . S
C281 C280 1.264 . S
C281 C283 1.339 . S
C281 H308 0.931 . S
C282 C283 1.395 . S
C282 C284 1.320 . S
C283 C281 1.339 . S
C283 C282 1.395 . S
C283 H309 0.929 . S
C284 C282 1.320 . S
C284 C285 1.405 . S
C284 H310 0.930 . S
C285 C280 1.479 . S
C285 C284 1.405 . S
C285 H311 0.931 . S
U286 O287 2.454 . S
U286 O288 2.458 . S
U286 C289 2.984 . S
U286 C290 2.847 . S
U286 C303 2.882 . S
U286 O304 2.441 . S
U286 O305 2.420 . S
U286 O306 2.455 . S
U286 O307 2.449 . S
O287 U286 2.454 . S
O287 C289 1.353 . S
O288 U286 2.458 . S
O288 C289 1.286 . S
C289 U286 2.984 . S
C289 O287 1.353 . S
C289 O288 1.286 . S
C289 C291 1.363 . S
C290 C280 1.465 . S
C290 U286 2.847 . S
C290 O304 1.249 . S
C290 O305 1.202 . S
C291 C289 1.363 . S
C291 C293 1.408 . S
C291 C296 1.342 . S
C292 C293 1.310 . S
C292 C295 1.461 . S
C292 H312 0.932 . S
C293 C291 1.408 . S
C293 C292 1.310 . S
C293 H313 0.930 . S
C294 C295 1.474 . S
C294 C296 1.285 . S
C294 H314 0.929 . S
C295 C292 1.461 . S
C295 C294 1.474 . S
C296 C291 1.342 . S
C296 C294 1.285 . S
C296 H315 0.930 . S
C297 C300 1.424 . S
C297 C302 1.245 . S
C297 C303 1.428 . S
C298 C301 1.260 . S
C298 C302 1.477 . S
C298 H316 0.932 . S
C299 C300 1.384 . S
C299 C301 1.479 . S
C299 H317 0.929 . S
C300 C297 1.424 . S
C300 C299 1.384 . S
C300 H318 0.928 . S
C301 C298 1.260 . S
C301 C299 1.479 . S
C302 C297 1.245 . S
C302 C298 1.477 . S
C302 H319 0.932 . S
C303 U286 2.882 . S
C303 C297 1.428 . S
C303 O306 1.301 . S
C303 O307 1.282 . S
O304 U286 2.441 . S
O304 C290 1.249 . S
O305 U286 2.420 . S
O305 C290 1.202 . S
O306 U286 2.455 . S
O306 C303 1.301 . S
O307 U286 2.449 . S
O307 C303 1.282 . S
H308 C281 0.931 . S
H309 C283 0.929 . S
H310 C284 0.930 . S
H311 C285 0.931 . S
H312 C292 0.932 . S
H313 C293 0.930 . S
H314 C294 0.929 . S
H315 C296 0.930 . S
H316 C298 0.932 . S
H317 C299 0.929 . S
H318 C300 0.928 . S
H319 C302 0.932 . S
C320 C321 1.264 . S
C320 C325 1.479 . S
C320 C330 1.465 . S
C321 C320 1.264 . S
C321 C323 1.339 . S
C321 H348 0.931 . S
C322 C323 1.395 . S
C322 C324 1.320 . S
C323 C321 1.339 . S
C323 C322 1.395 . S
C323 H349 0.929 . S
C324 C322 1.320 . S
C324 C325 1.405 . S
C324 H350 0.930 . S
C325 C320 1.479 . S
C325 C324 1.405 . S
C325 H351 0.931 . S
U326 O327 2.454 . S
U326 O328 2.458 . S
U326 C329 2.984 . S
U326 C330 2.847 . S
U326 C343 2.882 . S
U326 O344 2.441 . S
U326 O345 2.420 . S
U326 O346 2.455 . S
U326 O347 2.449 . S
O327 U326 2.454 . S
O327 C329 1.353 . S
O328 U326 2.458 . S
O328 C329 1.286 . S
C329 U326 2.984 . S
C329 O327 1.353 . S
C329 O328 1.286 . S
C329 C331 1.363 . S
C330 C320 1.465 . S
C330 U326 2.847 . S
C330 O344 1.249 . S
C330 O345 1.202 . S
C331 C329 1.363 . S
C331 C333 1.408 . S
C331 C336 1.342 . S
C332 C333 1.310 . S
C332 C335 1.461 . S
C332 H352 0.932 . S
C333 C331 1.408 . S
C333 C332 1.310 . S
C333 H353 0.930 . S
C334 C335 1.474 . S
C334 C336 1.285 . S
C334 H354 0.929 . S
C335 C332 1.461 . S
C335 C334 1.474 . S
C336 C331 1.342 . S
C336 C334 1.285 . S
C336 H355 0.930 . S
C337 C340 1.424 . S
C337 C342 1.245 . S
C337 C343 1.428 . S
C338 C341 1.260 . S
C338 C342 1.477 . S
C338 H356 0.932 . S
C339 C340 1.384 . S
C339 C341 1.479 . S
C339 H357 0.929 . S
C340 C337 1.424 . S
C340 C339 1.384 . S
C340 H358 0.928 . S
C341 C338 1.260 . S
C341 C339 1.479 . S
C342 C337 1.245 . S
C342 C338 1.477 . S
C342 H359 0.932 . S
C343 U326 2.882 . S
C343 C337 1.428 . S
C343 O346 1.301 . S
C343 O347 1.282 . S
O344 U326 2.441 . S
O344 C330 1.249 . S
O345 U326 2.420 . S
O345 C330 1.202 . S
O346 U326 2.455 . S
O346 C343 1.301 . S
O347 U326 2.449 . S
O347 C343 1.282 . S
H348 C321 0.931 . S
H349 C323 0.929 . S
H350 C324 0.930 . S
H351 C325 0.931 . S
H352 C332 0.932 . S
H353 C333 0.930 . S
H354 C334 0.929 . S
H355 C336 0.930 . S
H356 C338 0.932 . S
H357 C339 0.929 . S
H358 C340 0.928 . S
H359 C342 0.932 . S
C360 C361 1.264 . S
C360 C365 1.479 . S
C360 C370 1.465 . S
C361 C360 1.264 . S
C361 C363 1.339 . S
C361 H388 0.931 . S
C362 C363 1.395 . S
C362 C364 1.320 . S
C363 C361 1.339 . S
C363 C362 1.395 . S
C363 H389 0.929 . S
C364 C362 1.320 . S
C364 C365 1.405 . S
C364 H390 0.930 . S
C365 C360 1.479 . S
C365 C364 1.405 . S
C365 H391 0.931 . S
U366 O367 2.454 . S
U366 O368 2.432 1_565 S
U366 C369 3.004 . S
U366 C370 2.847 . S
U366 C383 2.882 . S
U366 O384 2.441 . S
U366 O385 2.420 . S
U366 O386 2.455 . S
U366 O387 2.449 . S
O367 U366 2.454 . S
O367 C369 1.380 . S
O368 U366 2.432 1_545 S
O368 C369 1.287 1_545 S
C369 U366 3.004 . S
C369 O367 1.380 . S
C369 O368 1.287 1_565 S
C369 C371 1.343 1_565 S
C370 C360 1.465 . S
C370 U366 2.847 . S
C370 O384 1.249 . S
C370 O385 1.202 . S
C371 C369 1.343 1_545 S
C371 C373 1.408 . S
C371 C376 1.342 . S
C372 C373 1.310 . S
C372 C375 1.461 . S
C372 H392 0.932 . S
C373 C371 1.408 . S
C373 C372 1.310 . S
C373 H393 0.930 1_545 S
C374 C375 1.474 . S
C374 C376 1.285 . S
C374 H394 0.929 . S
C375 C372 1.461 . S
C375 C374 1.474 . S
C376 C371 1.342 . S
C376 C374 1.285 . S
C376 H395 0.930 . S
C377 C380 1.424 . S
C377 C382 1.245 . S
C377 C383 1.428 . S
C378 C381 1.260 . S
C378 C382 1.477 . S
C378 H396 0.932 1_565 S
C379 C380 1.384 . S
C379 C381 1.479 . S
C379 H397 0.929 . S
C380 C377 1.424 . S
C380 C379 1.384 . S
C380 H398 0.928 . S
C381 C378 1.260 . S
C381 C379 1.479 . S
C382 C377 1.245 . S
C382 C378 1.477 . S
C382 H399 0.932 1_565 S
C383 U366 2.882 . S
C383 C377 1.428 . S
C383 O386 1.301 . S
C383 O387 1.282 . S
O384 U366 2.441 . S
O384 C370 1.249 . S
O385 U366 2.420 . S
O385 C370 1.202 . S
O386 U366 2.455 . S
O386 C383 1.301 . S
O387 U366 2.449 . S
O387 C383 1.282 . S
H388 C361 0.931 . S
H389 C363 0.929 . S
H390 C364 0.930 . S
H391 C365 0.931 . S
H392 C372 0.932 . S
H393 C373 0.930 1_565 S
H394 C374 0.929 . S
H395 C376 0.930 . S
H396 C378 0.932 1_545 S
H397 C379 0.929 . S
H398 C380 0.928 . S
H399 C382 0.932 1_545 S
C400 C401 1.264 . S
C400 C405 1.479 . S
C400 C410 1.465 . S
C401 C400 1.264 . S
C401 C403 1.339 . S
C401 H428 0.931 . S
C402 C403 1.395 . S
C402 C404 1.320 . S
C403 C401 1.339 . S
C403 C402 1.395 . S
C403 H429 0.929 . S
C404 C402 1.320 . S
C404 C405 1.405 . S
C404 H430 0.930 . S
C405 C400 1.479 . S
C405 C404 1.405 . S
C405 H431 0.931 . S
U406 O407 2.454 . S
U406 O408 2.458 . S
U406 C409 2.984 . S
U406 C410 2.847 . S
U406 C423 2.882 . S
U406 O424 2.441 . S
U406 O425 2.420 . S
U406 O426 2.455 . S
U406 O427 2.449 . S
O407 U406 2.454 . S
O407 C409 1.353 . S
O408 U406 2.458 . S
O408 C409 1.286 . S
C409 U406 2.984 . S
C409 O407 1.353 . S
C409 O408 1.286 . S
C409 C411 1.363 . S
C410 C400 1.465 . S
C410 U406 2.847 . S
C410 O424 1.249 . S
C410 O425 1.202 . S
C411 C409 1.363 . S
C411 C413 1.408 . S
C411 C416 1.342 . S
C412 C413 1.310 . S
C412 C415 1.461 . S
C412 H432 0.932 . S
C413 C411 1.408 . S
C413 C412 1.310 . S
C413 H433 0.930 . S
C414 C415 1.474 . S
C414 C416 1.285 . S
C414 H434 0.929 . S
C415 C412 1.461 . S
C415 C414 1.474 . S
C416 C411 1.342 . S
C416 C414 1.285 . S
C416 H435 0.930 . S
C417 C420 1.424 . S
C417 C422 1.245 . S
C417 C423 1.428 . S
C418 C421 1.260 . S
C418 C422 1.477 . S
C418 H436 0.932 . S
C419 C420 1.384 . S
C419 C421 1.479 . S
C419 H437 0.929 . S
C420 C417 1.424 . S
C420 C419 1.384 . S
C420 H438 0.928 . S
C421 C418 1.260 . S
C421 C419 1.479 . S
C422 C417 1.245 . S
C422 C418 1.477 . S
C422 H439 0.932 . S
C423 U406 2.882 . S
C423 C417 1.428 . S
C423 O426 1.301 . S
C423 O427 1.282 . S
O424 U406 2.441 . S
O424 C410 1.249 . S
O425 U406 2.420 . S
O425 C410 1.202 . S
O426 U406 2.455 . S
O426 C423 1.301 . S
O427 U406 2.449 . S
O427 C423 1.282 . S
H428 C401 0.931 . S
H429 C403 0.929 . S
H430 C404 0.930 . S
H431 C405 0.931 . S
H432 C412 0.932 . S
H433 C413 0.930 . S
H434 C414 0.929 . S
H435 C416 0.930 . S
H436 C418 0.932 . S
H437 C419 0.929 . S
H438 C420 0.928 . S
H439 C422 0.932 . S
C440 C441 1.264 . S
C440 C445 1.479 . S
C440 C450 1.465 . S
C441 C440 1.264 . S
C441 C443 1.339 . S
C441 H468 0.931 . S
C442 C443 1.395 . S
C442 C444 1.320 . S
C443 C441 1.339 . S
C443 C442 1.395 . S
C443 H469 0.929 . S
C444 C442 1.320 . S
C444 C445 1.405 . S
C444 H470 0.930 . S
C445 C440 1.479 . S
C445 C444 1.405 . S
C445 H471 0.931 . S
U446 O447 2.454 . S
U446 O448 2.458 . S
U446 C449 2.984 . S
U446 C450 2.847 . S
U446 C463 2.882 . S
U446 O464 2.441 . S
U446 O465 2.420 . S
U446 O466 2.455 . S
U446 O467 2.449 . S
O447 U446 2.454 . S
O447 C449 1.353 . S
O448 U446 2.458 . S
O448 C449 1.286 . S
C449 U446 2.984 . S
C449 O447 1.353 . S
C449 O448 1.286 . S
C449 C451 1.363 . S
C450 C440 1.465 . S
C450 U446 2.847 . S
C450 O464 1.249 . S
C450 O465 1.202 . S
C451 C449 1.363 . S
C451 C453 1.408 . S
C451 C456 1.342 . S
C452 C453 1.310 . S
C452 C455 1.461 . S
C452 H472 0.932 . S
C453 C451 1.408 . S
C453 C452 1.310 . S
C453 H473 0.930 . S
C454 C455 1.474 . S
C454 C456 1.285 . S
C454 H474 0.929 . S
C455 C452 1.461 . S
C455 C454 1.474 . S
C456 C451 1.342 . S
C456 C454 1.285 . S
C456 H475 0.930 . S
C457 C460 1.424 . S
C457 C462 1.245 . S
C457 C463 1.428 . S
C458 C461 1.260 . S
C458 C462 1.477 . S
C458 H476 0.932 . S
C459 C460 1.384 . S
C459 C461 1.479 . S
C459 H477 0.929 . S
C460 C457 1.424 . S
C460 C459 1.384 . S
C460 H478 0.928 . S
C461 C458 1.260 . S
C461 C459 1.479 . S
C462 C457 1.245 . S
C462 C458 1.477 . S
C462 H479 0.932 . S
C463 U446 2.882 . S
C463 C457 1.428 . S
C463 O466 1.301 . S
C463 O467 1.282 . S
O464 U446 2.441 . S
O464 C450 1.249 . S
O465 U446 2.420 . S
O465 C450 1.202 . S
O466 U446 2.455 . S
O466 C463 1.301 . S
O467 U446 2.449 . S
O467 C463 1.282 . S
H468 C441 0.931 . S
H469 C443 0.929 . S
H470 C444 0.930 . S
H471 C445 0.931 . S
H472 C452 0.932 . S
H473 C453 0.930 . S
H474 C454 0.929 . S
H475 C456 0.930 . S
H476 C458 0.932 . S
H477 C459 0.929 . S
H478 C460 0.928 . S
H479 C462 0.932 . S
C480 C481 1.264 . S
C480 C485 1.479 . S
C480 C490 1.465 . S
C481 C480 1.264 . S
C481 C483 1.339 . S
C481 H508 0.931 . S
C482 C483 1.395 . S
C482 C484 1.320 . S
C483 C481 1.339 . S
C483 C482 1.395 . S
C483 H509 0.929 . S
C484 C482 1.320 . S
C484 C485 1.405 . S
C484 H510 0.930 . S
C485 C480 1.479 . S
C485 C484 1.405 . S
C485 H511 0.931 . S
U486 O487 2.454 . S
U486 O488 2.458 . S
U486 C489 2.984 . S
U486 C490 2.847 . S
U486 C503 2.882 . S
U486 O504 2.441 . S
U486 O505 2.420 . S
U486 O506 2.455 . S
U486 O507 2.449 . S
O487 U486 2.454 . S
O487 C489 1.353 . S
O488 U486 2.458 . S
O488 C489 1.286 . S
C489 U486 2.984 . S
C489 O487 1.353 . S
C489 O488 1.286 . S
C489 C491 1.363 . S
C490 C480 1.465 . S
C490 U486 2.847 . S
C490 O504 1.249 . S
C490 O505 1.202 . S
C491 C489 1.363 . S
C491 C493 1.408 . S
C491 C496 1.342 . S
C492 C493 1.310 . S
C492 C495 1.461 . S
C492 H512 0.932 . S
C493 C491 1.408 . S
C493 C492 1.310 . S
C493 H513 0.930 . S
C494 C495 1.474 . S
C494 C496 1.285 . S
C494 H514 0.929 . S
C495 C492 1.461 . S
C495 C494 1.474 . S
C496 C491 1.342 . S
C496 C494 1.285 . S
C496 H515 0.930 . S
C497 C500 1.424 . S
C497 C502 1.245 . S
C497 C503 1.428 . S
C498 C501 1.260 . S
C498 C502 1.477 . S
C498 H516 0.932 . S
C499 C500 1.384 . S
C499 C501 1.479 . S
C499 H517 0.929 . S
C500 C497 1.424 . S
C500 C499 1.384 . S
C500 H518 0.928 . S
C501 C498 1.260 . S
C501 C499 1.479 . S
C502 C497 1.245 . S
C502 C498 1.477 . S
C502 H519 0.932 . S
C503 U486 2.882 . S
C503 C497 1.428 . S
C503 O506 1.301 . S
C503 O507 1.282 . S
O504 U486 2.441 . S
O504 C490 1.249 . S
O505 U486 2.420 . S
O505 C490 1.202 . S
O506 U486 2.455 . S
O506 C503 1.301 . S
O507 U486 2.449 . S
O507 C503 1.282 . S
H508 C481 0.931 . S
H509 C483 0.929 . S
H510 C484 0.930 . S
H511 C485 0.931 . S
H512 C492 0.932 . S
H513 C493 0.930 . S
H514 C494 0.929 . S
H515 C496 0.930 . S
H516 C498 0.932 . S
H517 C499 0.929 . S
H518 C500 0.928 . S
H519 C502 0.932 . S
C520 C521 1.264 . S
C520 C525 1.479 . S
C520 C530 1.465 . S
C521 C520 1.264 . S
C521 C523 1.339 . S
C521 H548 0.931 . S
C522 C523 1.395 . S
C522 C524 1.320 . S
C523 C521 1.339 . S
C523 C522 1.395 . S
C523 H549 0.929 . S
C524 C522 1.320 . S
C524 C525 1.405 . S
C524 H550 0.930 . S
C525 C520 1.479 . S
C525 C524 1.405 . S
C525 H551 0.931 . S
U526 O527 2.454 . S
U526 O528 2.458 . S
U526 C529 2.984 . S
U526 C530 2.847 . S
U526 C543 2.882 . S
U526 O544 2.441 . S
U526 O545 2.420 . S
U526 O546 2.455 . S
U526 O547 2.449 . S
O527 U526 2.454 . S
O527 C529 1.353 . S
O528 U526 2.458 . S
O528 C529 1.286 . S
C529 U526 2.984 . S
C529 O527 1.353 . S
C529 O528 1.286 . S
C529 C531 1.363 1_556 S
C530 C520 1.465 . S
C530 U526 2.847 . S
C530 O544 1.249 . S
C530 O545 1.202 . S
C531 C529 1.363 1_554 S
C531 C533 1.408 . S
C531 C536 1.342 . S
C532 C533 1.310 . S
C532 C535 1.461 . S
C532 H552 0.932 . S
C533 C531 1.408 . S
C533 C532 1.310 . S
C533 H553 0.930 1_554 S
C534 C535 1.474 . S
C534 C536 1.285 . S
C534 H554 0.929 . S
C535 C532 1.461 . S
C535 C534 1.474 . S
C536 C531 1.342 . S
C536 C534 1.285 . S
C536 H555 0.930 . S
C537 C540 1.424 . S
C537 C542 1.245 . S
C537 C543 1.428 . S
C538 C541 1.260 . S
C538 C542 1.477 . S
C538 H556 0.932 1_556 S
C539 C540 1.384 . S
C539 C541 1.479 . S
C539 H557 0.929 . S
C540 C537 1.424 . S
C540 C539 1.384 . S
C540 H558 0.928 . S
C541 C538 1.260 . S
C541 C539 1.479 . S
C542 C537 1.245 . S
C542 C538 1.477 . S
C542 H559 0.922 1_556 S
C543 U526 2.882 . S
C543 C537 1.428 . S
C543 O546 1.301 . S
C543 O547 1.282 . S
O544 U526 2.441 . S
O544 C530 1.249 . S
O545 U526 2.420 . S
O545 C530 1.202 . S
O546 U526 2.455 . S
O546 C543 1.301 . S
O547 U526 2.449 . S
O547 C543 1.282 . S
H548 C521 0.931 . S
H549 C523 0.929 . S
H550 C524 0.930 . S
H551 C525 0.931 . S
H552 C532 0.932 . S
H553 C533 0.930 1_556 S
H554 C534 0.929 . S
H555 C536 0.930 . S
H556 C538 0.932 1_554 S
H557 C539 0.929 . S
H558 C540 0.928 . S
H559 C542 0.922 1_554 S
C560 C561 1.264 . S
C560 C565 1.479 . S
C560 C570 1.465 . S
C561 C560 1.264 . S
C561 C563 1.339 . S
C561 H588 0.931 . S
C562 C563 1.395 . S
C562 C564 1.320 . S
C563 C561 1.339 . S
C563 C562 1.395 . S
C563 H589 0.929 . S
C564 C562 1.320 . S
C564 C565 1.405 . S
C564 H590 0.930 . S
C565 C560 1.479 . S
C565 C564 1.405 . S
C565 H591 0.931 . S
U566 O567 2.454 . S
U566 O568 2.458 . S
U566 C569 2.984 . S
U566 C570 2.847 . S
U566 C583 2.882 . S
U566 O584 2.441 . S
U566 O585 2.420 . S
U566 O586 2.455 . S
U566 O587 2.449 . S
O567 U566 2.454 . S
O567 C569 1.353 . S
O568 U566 2.458 . S
O568 C569 1.286 . S
C569 U566 2.984 . S
C569 O567 1.353 . S
C569 O568 1.286 . S
C569 C571 1.363 . S
C570 C560 1.465 . S
C570 U566 2.847 . S
C570 O584 1.249 . S
C570 O585 1.202 . S
C571 C569 1.363 . S
C571 C573 1.408 . S
C571 C576 1.342 . S
C572 C573 1.310 . S
C572 C575 1.461 . S
C572 H592 0.932 . S
C573 C571 1.408 . S
C573 C572 1.310 . S
C573 H593 0.930 . S
C574 C575 1.474 . S
C574 C576 1.285 . S
C574 H594 0.929 . S
C575 C572 1.461 . S
C575 C574 1.474 . S
C576 C571 1.342 . S
C576 C574 1.285 . S
C576 H595 0.930 . S
C577 C580 1.424 . S
C577 C582 1.245 . S
C577 C583 1.428 . S
C578 C581 1.260 . S
C578 C582 1.477 . S
C578 H596 0.932 . S
C579 C580 1.384 . S
C579 C581 1.479 . S
C579 H597 0.929 . S
C580 C577 1.424 . S
C580 C579 1.384 . S
C580 H598 0.928 . S
C581 C578 1.260 . S
C581 C579 1.479 . S
C582 C577 1.245 . S
C582 C578 1.477 . S
C582 H599 0.932 . S
C583 U566 2.882 . S
C583 C577 1.428 . S
C583 O586 1.301 . S
C583 O587 1.282 . S
O584 U566 2.441 . S
O584 C570 1.249 . S
O585 U566 2.420 . S
O585 C570 1.202 . S
O586 U566 2.455 . S
O586 C583 1.301 . S
O587 U566 2.449 . S
O587 C583 1.282 . S
H588 C561 0.931 . S
H589 C563 0.929 . S
H590 C564 0.930 . S
H591 C565 0.931 . S
H592 C572 0.932 . S
H593 C573 0.930 . S
H594 C574 0.929 . S
H595 C576 0.930 . S
H596 C578 0.932 . S
H597 C579 0.929 . S
H598 C580 0.928 . S
H599 C582 0.932 . S
C600 C601 1.264 . S
C600 C605 1.479 . S
C600 C610 1.465 . S
C601 C600 1.264 . S
C601 C603 1.339 . S
C601 H628 0.931 . S
C602 C603 1.395 . S
C602 C604 1.320 . S
C603 C601 1.339 . S
C603 C602 1.395 . S
C603 H629 0.929 . S
C604 C602 1.320 . S
C604 C605 1.405 . S
C604 H630 0.930 . S
C605 C600 1.479 . S
C605 C604 1.405 . S
C605 H631 0.931 . S
U606 O607 2.454 . S
U606 O608 2.458 . S
U606 C609 2.984 . S
U606 C610 2.847 1_556 S
U606 C623 2.882 . S
U606 O624 2.441 1_556 S
U606 O625 2.420 . S
U606 O626 2.455 . S
U606 O627 2.449 . S
O607 U606 2.454 . S
O607 C609 1.353 . S
O608 U606 2.458 . S
O608 C609 1.286 . S
C609 U606 2.984 . S
C609 O607 1.353 . S
C609 O608 1.286 . S
C609 C611 1.363 1_545 S
C610 C600 1.465 . S
C610 U606 2.847 1_554 S
C610 O624 1.249 . S
C610 O625 1.202 1_554 S
C611 C609 1.363 1_565 S
C611 C613 1.421 1_565 S
C611 C616 1.342 . S
C612 C613 1.308 1_564 S
C612 C615 1.461 1_554 S
C612 H632 0.932 . S
C613 C611 1.421 1_545 S
C613 C612 1.308 1_546 S
C613 H633 0.919 1_556 S
C614 C615 1.474 . S
C614 C616 1.285 . S
C614 H634 0.929 . S
C615 C612 1.461 1_556 S
C615 C614 1.474 . S
C616 C611 1.342 . S
C616 C614 1.285 . S
C616 H635 0.930 . S
C617 C620 1.424 . S
C617 C622 1.245 . S
C617 C623 1.428 . S
C618 C621 1.260 . S
C618 C622 1.477 . S
C618 H636 0.932 1_545 S
C619 C620 1.384 . S
C619 C621 1.479 . S
C619 H637 0.929 . S
C620 C617 1.424 . S
C620 C619 1.384 . S
C620 H638 0.928 . S
C621 C618 1.260 . S
C621 C619 1.479 . S
C622 C617 1.245 . S
C622 C618 1.477 . S
C622 H639 0.965 . S
C623 U606 2.882 . S
C623 C617 1.428 . S
C623 O626 1.301 . S
C623 O627 1.282 . S
O624 U606 2.441 1_554 S
O624 C610 1.249 . S
O625 U606 2.420 . S
O625 C610 1.202 1_556 S
O626 U606 2.455 . S
O626 C623 1.301 . S
O627 U606 2.449 . S
O627 C623 1.282 . S
H628 C601 0.931 . S
H629 C603 0.929 . S
H630 C604 0.930 . S
H631 C605 0.931 . S
H632 C612 0.932 . S
H633 C613 0.919 1_554 S
H634 C614 0.929 . S
H635 C616 0.930 . S
H636 C618 0.932 1_565 S
H637 C619 0.929 . S
H638 C620 0.928 . S
H639 C622 0.965 . S
C640 O641 1.125 1_554 S
C640 O647 1.185 . S
O641 C640 1.125 1_556 S
O642 Zn643 1.899 1_556 S
O642 C650 1.284 . S
Zn643 O642 1.899 1_554 S
Zn643 O644 2.032 . S
Zn643 O647 2.086 . S
Zn643 O652 1.977 . S
O644 Zn643 2.032 . S
O644 C648 1.278 . S
C645 O646 1.203 . S
C645 O652 1.267 . S
O646 C645 1.203 . S
O647 C640 1.185 . S
O647 Zn643 2.086 . S
C648 O644 1.278 . S
C648 O649 1.211 . S
O649 C648 1.211 . S
C650 O642 1.284 . S
C650 O651 1.273 . S
O651 C650 1.273 . S
O652 Zn643 1.977 . S
O652 C645 1.267 . S
C653 O654 1.160 . S
C653 O660 1.185 . S
O654 C653 1.160 . S
O655 Zn656 1.899 . S
O655 C663 1.284 . S
Zn656 O655 1.899 . S
Zn656 O657 2.032 . S
Zn656 O660 2.086 . S
Zn656 O665 1.977 . S
O657 Zn656 2.032 . S
O657 C661 1.278 . S
C658 O659 1.203 . S
C658 O665 1.267 . S
O659 C658 1.203 . S
O660 C653 1.185 . S
O660 Zn656 2.086 . S
C661 O657 1.278 . S
C661 O662 1.211 . S
O662 C661 1.211 . S
C663 O655 1.284 . S
C663 O664 1.273 . S
O664 C663 1.273 . S
O665 Zn656 1.977 . S
O665 C658 1.267 . S
C666 O667 1.160 1_554 S
C666 O673 1.185 . S
O667 C666 1.160 1_556 S
O668 Zn669 1.899 1_556 S
O668 C676 1.284 . S
Zn669 O668 1.899 1_554 S
Zn669 O670 2.032 1_554 S
Zn669 O673 2.086 . S
Zn669 O678 1.977 . S
O670 Zn669 2.032 1_556 S
O670 C674 1.278 . S
C671 O672 1.203 . S
C671 O678 1.267 . S
O672 C671 1.203 . S
O673 C666 1.185 . S
O673 Zn669 2.086 . S
C674 O670 1.278 . S
C674 O675 1.211 1_556 S
O675 C674 1.211 1_554 S
C676 O668 1.284 . S
C676 O677 1.273 . S
O677 C676 1.273 . S
O678 Zn669 1.977 . S
O678 C671 1.267 . S
C679 O680 1.160 . S
C679 O686 1.185 . S
O680 C679 1.160 . S
O681 Zn682 1.899 . S
O681 C689 1.284 . S
Zn682 O681 1.899 . S
Zn682 O683 2.032 1_545 S
Zn682 O686 2.086 . S
Zn682 O691 1.977 . S
O683 Zn682 2.032 1_565 S
O683 C687 1.278 . S
C684 O685 1.203 . S
C684 O691 1.267 . S
O685 C684 1.203 . S
O686 C679 1.185 . S
O686 Zn682 2.086 . S
C687 O683 1.278 . S
C687 O688 1.211 . S
O688 C687 1.211 . S
C689 O681 1.284 . S
C689 O690 1.273 1_545 S
O690 C689 1.273 1_565 S
O691 Zn682 1.977 . S
O691 C684 1.267 . S
C692 O693 1.160 . S
C692 O699 1.185 . S
O693 C692 1.160 . S
O694 Zn695 1.899 . S
O694 C702 1.284 . S
Zn695 O694 1.899 . S
Zn695 O696 2.032 . S
Zn695 O699 2.086 . S
Zn695 O704 1.977 . S
O696 Zn695 2.032 . S
O696 C700 1.278 . S
C697 O698 1.203 . S
C697 O704 1.267 . S
O698 C697 1.203 . S
O699 C692 1.185 . S
O699 Zn695 2.086 . S
C700 O696 1.278 . S
C700 O701 1.211 . S
O701 C700 1.211 . S
C702 O694 1.284 . S
C702 O703 1.273 . S
O703 C702 1.273 . S
O704 Zn695 1.977 . S
O704 C697 1.267 . S
C705 O706 1.160 . S
C705 O712 1.185 . S
O706 C705 1.160 . S
O707 Zn708 1.899 . S
O707 C715 1.284 . S
Zn708 O707 1.899 . S
Zn708 O709 2.032 . S
Zn708 O712 2.086 . S
Zn708 O717 1.977 . S
O709 Zn708 2.032 . S
O709 C713 1.278 . S
C710 O711 1.203 . S
C710 O717 1.267 . S
O711 C710 1.203 . S
O712 C705 1.185 . S
O712 Zn708 2.086 . S
C713 O709 1.278 . S
C713 O714 1.211 . S
O714 C713 1.211 . S
C715 O707 1.284 . S
C715 O716 1.273 . S
O716 C715 1.273 . S
O717 Zn708 1.977 . S
O717 C710 1.267 . S
C718 O719 1.160 . S
C718 O725 1.185 . S
O719 C718 1.160 . S
O720 Zn721 1.899 . S
O720 C728 1.284 . S
Zn721 O720 1.899 . S
Zn721 O722 2.032 . S
Zn721 O725 2.086 . S
Zn721 O730 1.977 . S
O722 Zn721 2.032 . S
O722 C726 1.278 . S
C723 O724 1.203 . S
C723 O730 1.267 . S
O724 C723 1.203 . S
O725 C718 1.185 . S
O725 Zn721 2.086 . S
C726 O722 1.278 . S
C726 O727 1.211 . S
O727 C726 1.211 . S
C728 O720 1.284 . S
C728 O729 1.273 . S
O729 C728 1.273 . S
O730 Zn721 1.977 . S
O730 C723 1.267 . S
C731 O732 1.160 . S
C731 O738 1.185 . S
O732 C731 1.160 . S
O733 Zn734 1.899 . S
O733 C741 1.284 1_565 S
Zn734 O733 1.899 . S
Zn734 O735 2.032 1_565 S
Zn734 O738 2.086 . S
Zn734 O743 1.977 . S
O735 Zn734 2.032 1_545 S
O735 C739 1.278 . S
C736 O737 1.203 1_565 S
C736 O743 1.267 . S
O737 C736 1.203 1_545 S
O738 C731 1.185 . S
O738 Zn734 2.086 . S
C739 O735 1.278 . S
C739 O740 1.211 . S
O740 C739 1.211 . S
C741 O733 1.284 1_545 S
C741 O742 1.273 . S
O742 C741 1.273 . S
O743 Zn734 1.977 . S
O743 C736 1.267 . S
C744 O745 1.160 1_455 S
C744 O751 1.185 . S
O745 C744 1.160 1_655 S
O746 Zn747 1.899 1_655 S
O746 C754 1.284 . S
Zn747 O746 1.899 1_455 S
Zn747 O748 2.032 . S
Zn747 O751 2.086 . S
Zn747 O756 1.977 . S
O748 Zn747 2.032 . S
O748 C752 1.278 . S
C749 O750 1.203 . S
C749 O756 1.267 . S
O750 C749 1.203 . S
O751 C744 1.185 . S
O751 Zn747 2.086 . S
C752 O748 1.278 . S
C752 O753 1.211 . S
O753 C752 1.211 . S
C754 O746 1.284 . S
C754 O755 1.273 . S
O755 C754 1.273 . S
O756 Zn747 1.977 . S
O756 C749 1.267 . S
C757 O758 1.160 . S
C757 O764 1.185 . S
O758 C757 1.160 . S
O759 Zn760 1.899 . S
O759 C767 1.284 . S
Zn760 O759 1.899 . S
Zn760 O761 2.032 . S
Zn760 O764 2.086 . S
Zn760 O769 1.977 . S
O761 Zn760 2.032 . S
O761 C765 1.278 . S
C762 O763 1.203 . S
C762 O769 1.267 . S
O763 C762 1.203 . S
O764 C757 1.185 . S
O764 Zn760 2.086 . S
C765 O761 1.278 . S
C765 O766 1.211 . S
O766 C765 1.211 . S
C767 O759 1.284 . S
C767 O768 1.273 . S
O768 C767 1.273 . S
O769 Zn760 1.977 . S
O769 C762 1.267 . S
C770 O771 1.160 1_455 S
C770 O777 1.185 . S
O771 C770 1.160 1_655 S
O772 Zn773 1.899 1_655 S
O772 C780 1.284 . S
Zn773 O772 1.899 1_455 S
Zn773 O774 2.033 1_455 S
Zn773 O777 2.086 . S
Zn773 O782 1.977 . S
O774 Zn773 2.033 1_655 S
O774 C778 1.278 1_655 S
C775 O776 1.203 . S
C775 O782 1.267 . S
O776 C775 1.203 . S
O777 C770 1.185 . S
O777 Zn773 2.086 . S
C778 O774 1.278 1_455 S
C778 O779 1.211 . S
O779 C778 1.211 . S
C780 O772 1.284 . S
C780 O781 1.273 . S
O781 C780 1.273 . S
O782 Zn773 1.977 . S
O782 C775 1.267 . S
C783 O784 1.160 . S
C783 O790 1.185 . S
O784 C783 1.160 . S
O785 Zn786 1.899 . S
O785 C793 1.284 . S
Zn786 O785 1.899 . S
Zn786 O787 2.032 . S
Zn786 O790 2.086 . S
Zn786 O795 1.977 . S
O787 Zn786 2.032 . S
O787 C791 1.278 . S
C788 O789 1.203 . S
C788 O795 1.267 . S
O789 C788 1.203 . S
O790 C783 1.185 . S
O790 Zn786 2.086 . S
C791 O787 1.278 . S
C791 O792 1.211 . S
O792 C791 1.211 . S
C793 O785 1.284 . S
C793 O794 1.273 . S
O794 C793 1.273 . S
O795 Zn786 1.977 . S
O795 C788 1.267 . S
H796 C802 0.930 . S
H797 C805 0.930 . S
H798 C806 0.930 . S
H799 C807 0.930 . S
H800 C810 0.930 . S
H801 C811 0.930 . S
C802 H796 0.930 . S
C802 C803 1.355 . S
C802 C804 1.415 . S
C803 C802 1.355 . S
C803 C805 1.419 . S
C804 C802 1.415 . S
C804 C809 1.425 . S
C804 C811 1.409 . S
C805 H797 0.930 . S
C805 C803 1.419 . S
C805 C806 1.362 . S
C806 H798 0.930 . S
C806 C805 1.362 . S
C806 C809 1.409 . S
C807 H799 0.930 . S
C807 C808 1.355 . S
C807 C809 1.415 . S
C808 C807 1.355 . S
C808 C810 1.419 . S
C809 C804 1.425 . S
C809 C806 1.409 . S
C809 C807 1.415 . S
C810 H800 0.930 . S
C810 C808 1.419 . S
C810 C811 1.362 . S
C811 H801 0.930 . S
C811 C804 1.409 . S
C811 C810 1.362 . S
H812 C818 0.930 . S
H813 C821 0.930 . S
H814 C822 0.930 . S
H815 C823 0.930 . S
H816 C826 0.930 . S
H817 C827 0.930 . S
C818 H812 0.930 . S
C818 C819 1.355 . S
C818 C820 1.415 . S
C819 C818 1.355 . S
C819 C821 1.419 . S
C820 C818 1.415 . S
C820 C825 1.425 . S
C820 C827 1.409 . S
C821 H813 0.930 . S
C821 C819 1.419 . S
C821 C822 1.362 . S
C822 H814 0.930 . S
C822 C821 1.362 . S
C822 C825 1.409 . S
C823 H815 0.930 . S
C823 C824 1.355 . S
C823 C825 1.415 . S
C824 C823 1.355 . S
C824 C826 1.419 . S
C825 C820 1.425 . S
C825 C822 1.409 . S
C825 C823 1.415 . S
C826 H816 0.930 . S
C826 C824 1.419 . S
C826 C827 1.362 . S
C827 H817 0.930 . S
C827 C820 1.409 . S
C827 C826 1.362 . S
H828 C834 0.930 . S
H829 C837 0.930 . S
H830 C838 0.930 . S
H831 C839 0.930 . S
H832 C842 0.930 . S
H833 C843 0.930 . S
C834 H828 0.930 . S
C834 C835 1.355 . S
C834 C836 1.415 . S
C835 C834 1.355 . S
C835 C837 1.419 . S
C836 C834 1.415 . S
C836 C841 1.425 . S
C836 C843 1.409 . S
C837 H829 0.930 . S
C837 C835 1.419 . S
C837 C838 1.362 . S
C838 H830 0.930 . S
C838 C837 1.362 . S
C838 C841 1.409 . S
C839 H831 0.930 . S
C839 C840 1.355 . S
C839 C841 1.415 . S
C840 C839 1.355 . S
C840 C842 1.419 . S
C841 C836 1.425 . S
C841 C838 1.409 . S
C841 C839 1.415 . S
C842 H832 0.930 . S
C842 C840 1.419 . S
C842 C843 1.362 . S
C843 H833 0.930 . S
C843 C836 1.409 . S
C843 C842 1.362 . S
H844 C850 0.930 . S
H845 C853 0.930 . S
H846 C854 0.930 . S
H847 C855 0.930 . S
H848 C858 0.930 . S
H849 C859 0.930 . S
C850 H844 0.930 . S
C850 C851 1.355 . S
C850 C852 1.415 . S
C851 C850 1.355 . S
C851 C853 1.430 . S
C852 C850 1.415 . S
C852 C857 1.425 1_565 S
C852 C859 1.409 . S
C853 H845 0.930 . S
C853 C851 1.430 . S
C853 C854 1.353 1_565 S
C854 H846 0.930 . S
C854 C853 1.353 1_545 S
C854 C857 1.409 . S
C855 H847 0.930 . S
C855 C856 1.355 . S
C855 C857 1.415 . S
C856 C855 1.355 . S
C856 C858 1.417 1_545 S
C857 C852 1.425 1_545 S
C857 C854 1.409 . S
C857 C855 1.415 . S
C858 H848 0.930 . S
C858 C856 1.417 1_565 S
C858 C859 1.364 . S
C859 H849 0.930 . S
C859 C852 1.409 . S
C859 C858 1.364 . S
H860 C866 0.930 . S
H861 C869 0.930 . S
H862 C870 0.930 . S
H863 C871 0.930 . S
H864 C874 0.930 . S
H865 C875 0.930 . S
C866 H860 0.930 . S
C866 C867 1.355 . S
C866 C868 1.415 . S
C867 C866 1.355 . S
C867 C869 1.419 . S
C868 C866 1.415 . S
C868 C873 1.425 . S
C868 C875 1.409 . S
C869 H861 0.930 . S
C869 C867 1.419 . S
C869 C870 1.362 . S
C870 H862 0.930 . S
C870 C869 1.362 . S
C870 C873 1.409 . S
C871 H863 0.930 . S
C871 C872 1.355 . S
C871 C873 1.415 . S
C872 C871 1.355 . S
C872 C874 1.419 . S
C873 C868 1.425 . S
C873 C870 1.409 . S
C873 C871 1.415 . S
C874 H864 0.930 . S
C874 C872 1.419 . S
C874 C875 1.362 . S
C875 H865 0.930 . S
C875 C868 1.409 . S
C875 C874 1.362 . S
H876 C882 0.930 . S
H877 C885 0.930 . S
H878 C886 0.930 . S
H879 C887 0.930 . S
H880 C890 0.930 . S
H881 C891 0.930 . S
C882 H876 0.930 . S
C882 C883 1.355 . S
C882 C884 1.415 . S
C883 C882 1.355 . S
C883 C885 1.419 . S
C884 C882 1.415 . S
C884 C889 1.425 . S
C884 C891 1.409 . S
C885 H877 0.930 . S
C885 C883 1.419 . S
C885 C886 1.362 . S
C886 H878 0.930 . S
C886 C885 1.362 . S
C886 C889 1.409 . S
C887 H879 0.930 . S
C887 C888 1.355 . S
C887 C889 1.415 . S
C888 C887 1.355 . S
C888 C890 1.419 . S
C889 C884 1.425 . S
C889 C886 1.409 . S
C889 C887 1.415 . S
C890 H880 0.930 . S
C890 C888 1.419 . S
C890 C891 1.362 . S
C891 H881 0.930 . S
C891 C884 1.409 . S
C891 C890 1.362 . S
H892 C898 0.930 . S
H893 C901 0.930 . S
H894 C902 0.930 . S
H895 C903 0.930 . S
H896 C906 0.930 . S
H897 C907 0.930 . S
C898 H892 0.930 . S
C898 C899 1.355 . S
C898 C900 1.415 . S
C899 C898 1.355 . S
C899 C901 1.419 . S
C900 C898 1.415 . S
C900 C905 1.425 . S
C900 C907 1.409 . S
C901 H893 0.930 . S
C901 C899 1.419 . S
C901 C902 1.362 . S
C902 H894 0.930 . S
C902 C901 1.362 . S
C902 C905 1.409 . S
C903 H895 0.930 . S
C903 C904 1.355 . S
C903 C905 1.415 . S
C904 C903 1.355 . S
C904 C906 1.419 . S
C905 C900 1.425 . S
C905 C902 1.409 . S
C905 C903 1.415 . S
C906 H896 0.930 . S
C906 C904 1.419 . S
C906 C907 1.362 . S
C907 H897 0.930 . S
C907 C900 1.409 . S
C907 C906 1.362 . S
H908 C914 0.930 . S
H909 C917 0.930 . S
H910 C918 0.930 . S
H911 C919 0.930 . S
H912 C922 0.930 1_545 S
H913 C923 0.919 1_545 S
C914 H908 0.930 . S
C914 C915 1.355 . S
C914 C916 1.415 . S
C915 C914 1.355 . S
C915 C917 1.419 . S
C916 C914 1.415 . S
C916 C921 1.425 . S
C916 C923 1.409 . S
C917 H909 0.930 . S
C917 C915 1.419 . S
C917 C918 1.362 . S
C918 H910 0.930 . S
C918 C917 1.362 . S
C918 C921 1.409 . S
C919 H911 0.930 . S
C919 C920 1.355 . S
C919 C921 1.415 . S
C920 C919 1.355 . S
C920 C922 1.419 . S
C921 C916 1.425 . S
C921 C918 1.409 . S
C921 C919 1.415 . S
C922 H912 0.930 1_565 S
C922 C920 1.419 . S
C922 C923 1.362 . S
C923 H913 0.919 1_565 S
C923 C916 1.409 . S
C923 C922 1.362 . S
H924 C930 0.930 . S
H925 C933 0.930 . S
H926 C934 0.930 . S
H927 C935 0.930 . S
H928 C938 0.930 . S
H929 C939 0.930 . S
C930 H924 0.930 . S
C930 C931 1.355 . S
C930 C932 1.415 . S
C931 C930 1.355 . S
C931 C933 1.419 . S
C932 C930 1.415 . S
C932 C937 1.425 . S
C932 C939 1.409 . S
C933 H925 0.930 . S
C933 C931 1.419 . S
C933 C934 1.362 . S
C934 H926 0.930 . S
C934 C933 1.362 . S
C934 C937 1.409 . S
C935 H927 0.930 . S
C935 C936 1.355 . S
C935 C937 1.415 . S
C936 C935 1.355 . S
C936 C938 1.419 . S
C937 C932 1.425 . S
C937 C934 1.409 . S
C937 C935 1.415 . S
C938 H928 0.930 . S
C938 C936 1.419 . S
C938 C939 1.362 . S
C939 H929 0.930 . S
C939 C932 1.409 . S
C939 C938 1.362 . S
H940 C946 0.930 . S
H941 C949 0.930 . S
H942 C950 0.930 . S
H943 C951 0.930 . S
H944 C954 0.930 . S
H945 C955 0.930 . S
C946 H940 0.930 . S
C946 C947 1.355 . S
C946 C948 1.415 . S
C947 C946 1.355 . S
C947 C949 1.419 . S
C948 C946 1.415 . S
C948 C953 1.425 . S
C948 C955 1.409 . S
C949 H941 0.930 . S
C949 C947 1.419 . S
C949 C950 1.362 . S
C950 H942 0.930 . S
C950 C949 1.362 . S
C950 C953 1.409 . S
C951 H943 0.930 . S
C951 C952 1.355 . S
C951 C953 1.415 . S
C952 C951 1.355 . S
C952 C954 1.419 . S
C953 C948 1.425 . S
C953 C950 1.409 . S
C953 C951 1.415 . S
C954 H944 0.930 . S
C954 C952 1.419 . S
C954 C955 1.362 . S
C955 H945 0.930 . S
C955 C948 1.409 . S
C955 C954 1.362 . S
H956 C962 0.930 . S
H957 C965 0.930 . S
H958 C966 0.930 . S
H959 C967 0.930 . S
H960 C970 0.930 . S
H961 C971 0.930 . S
C962 H956 0.930 . S
C962 C963 1.355 . S
C962 C964 1.415 . S
C963 C962 1.355 . S
C963 C965 1.419 . S
C964 C962 1.415 . S
C964 C969 1.425 . S
C964 C971 1.409 . S
C965 H957 0.930 . S
C965 C963 1.419 . S
C965 C966 1.362 . S
C966 H958 0.930 . S
C966 C965 1.362 . S
C966 C969 1.409 . S
C967 H959 0.930 . S
C967 C968 1.355 . S
C967 C969 1.415 . S
C968 C967 1.355 . S
C968 C970 1.419 . S
C969 C964 1.425 . S
C969 C966 1.409 . S
C969 C967 1.415 . S
C970 H960 0.930 . S
C970 C968 1.419 . S
C970 C971 1.362 . S
C971 H961 0.930 . S
C971 C964 1.409 . S
C971 C970 1.362 . S
H972 C978 0.930 . S
H973 C981 0.930 . S
H974 C982 0.930 . S
H975 C983 0.930 . S
H976 C986 0.930 . S
H977 C987 0.930 . S
C978 H972 0.930 . S
C978 C979 1.355 . S
C978 C980 1.415 . S
C979 C978 1.355 . S
C979 C981 1.419 . S
C980 C978 1.415 . S
C980 C985 1.425 . S
C980 C987 1.409 . S
C981 H973 0.930 . S
C981 C979 1.419 . S
C981 C982 1.362 . S
C982 H974 0.930 . S
C982 C981 1.362 . S
C982 C985 1.409 . S
C983 H975 0.930 . S
C983 C984 1.355 . S
C983 C985 1.415 . S
C984 C983 1.355 . S
C984 C986 1.419 . S
C985 C980 1.425 . S
C985 C982 1.409 . S
C985 C983 1.415 . S
C986 H976 0.930 . S
C986 C984 1.419 . S
C986 C987 1.362 . S
C987 H977 0.930 . S
C987 C980 1.409 . S
C987 C986 1.362 . S
H988 C994 0.930 . S
H989 C997 0.930 . S
H990 C998 0.930 . S
H991 C999 0.930 . S
H992 C1002 0.930 . S
H993 C1003 0.930 . S
C994 H988 0.930 . S
C994 C995 1.355 . S
C994 C996 1.415 . S
C995 C994 1.355 . S
C995 C997 1.419 . S
C996 C994 1.415 . S
C996 C1001 1.425 . S
C996 C1003 1.409 . S
C997 H989 0.930 . S
C997 C995 1.419 . S
C997 C998 1.362 . S
C998 H990 0.930 . S
C998 C997 1.362 . S
C998 C1001 1.409 . S
C999 H991 0.930 . S
C999 C1000 1.355 . S
C999 C1001 1.415 . S
C1000 C999 1.355 . S
C1000 C1002 1.419 . S
C1001 C996 1.425 . S
C1001 C998 1.409 . S
C1001 C999 1.415 . S
C1002 H992 0.930 . S
C1002 C1000 1.419 . S
C1002 C1003 1.362 . S
C1003 H993 0.930 . S
C1003 C996 1.409 . S
C1003 C1002 1.362 . S
H1004 C1010 0.930 . S
H1005 C1013 0.930 1_655 S
H1006 C1014 0.930 . S
H1007 C1015 0.930 1_655 S
H1008 C1018 0.930 . S
H1009 C1019 0.930 . S
C1010 H1004 0.930 . S
C1010 C1011 1.355 . S
C1010 C1012 1.415 . S
C1011 C1010 1.355 . S
C1011 C1013 1.419 . S
C1012 C1010 1.415 . S
C1012 C1017 1.425 . S
C1012 C1019 1.409 . S
C1013 H1005 0.930 1_455 S
C1013 C1011 1.419 . S
C1013 C1014 1.362 1_455 S
C1014 H1006 0.930 . S
C1014 C1013 1.362 1_655 S
C1014 C1017 1.409 1_655 S
C1015 H1007 0.930 1_455 S
C1015 C1016 1.355 . S
C1015 C1017 1.415 . S
C1016 C1015 1.355 . S
C1016 C1018 1.419 . S
C1017 C1012 1.425 . S
C1017 C1014 1.409 1_455 S
C1017 C1015 1.415 . S
C1018 H1008 0.930 . S
C1018 C1016 1.419 . S
C1018 C1019 1.362 . S
C1019 H1009 0.930 . S
C1019 C1012 1.409 . S
C1019 C1018 1.362 . S
H1020 C1026 0.930 . S
H1021 C1029 0.930 . S
H1022 C1030 0.930 . S
H1023 C1031 0.930 . S
H1024 C1034 0.930 . S
H1025 C1035 0.930 . S
C1026 H1020 0.930 . S
C1026 C1027 1.355 . S
C1026 C1028 1.415 . S
C1027 C1026 1.355 . S
C1027 C1029 1.419 . S
C1028 C1026 1.415 . S
C1028 C1033 1.425 . S
C1028 C1035 1.409 . S
C1029 H1021 0.930 . S
C1029 C1027 1.419 . S
C1029 C1030 1.362 . S
C1030 H1022 0.930 . S
C1030 C1029 1.362 . S
C1030 C1033 1.409 . S
C1031 H1023 0.930 . S
C1031 C1032 1.355 . S
C1031 C1033 1.415 . S
C1032 C1031 1.355 . S
C1032 C1034 1.419 . S
C1033 C1028 1.425 . S
C1033 C1030 1.409 . S
C1033 C1031 1.415 . S
C1034 H1024 0.930 . S
C1034 C1032 1.419 . S
C1034 C1035 1.362 . S
C1035 H1025 0.930 . S
C1035 C1028 1.409 . S
C1035 C1034 1.362 . S
H1036 C1042 0.930 1_455 S
H1037 C1045 0.930 . S
H1038 C1046 0.930 . S
H1039 C1047 0.930 . S
H1040 C1050 0.930 . S
H1041 C1051 0.930 . S
C1042 H1036 0.930 1_655 S
C1042 C1043 1.355 . S
C1042 C1044 1.415 . S
C1043 C1042 1.355 . S
C1043 C1045 1.419 . S
C1044 C1042 1.415 . S
C1044 C1049 1.425 . S
C1044 C1051 1.409 1_655 S
C1045 H1037 0.930 . S
C1045 C1043 1.419 . S
C1045 C1046 1.362 . S
C1046 H1038 0.930 . S
C1046 C1045 1.362 . S
C1046 C1049 1.409 . S
C1047 H1039 0.930 . S
C1047 C1048 1.355 . S
C1047 C1049 1.415 . S
C1048 C1047 1.355 . S
C1048 C1050 1.419 1_655 S
C1049 C1044 1.425 . S
C1049 C1046 1.409 . S
C1049 C1047 1.415 . S
C1050 H1040 0.930 . S
C1050 C1048 1.419 1_455 S
C1050 C1051 1.362 . S
C1051 H1041 0.930 . S
C1051 C1044 1.409 1_455 S
C1051 C1050 1.362 . S
H1052 C1058 0.930 . S
H1053 C1061 0.930 . S
H1054 C1062 0.930 . S
H1055 C1063 0.930 . S
H1056 C1066 0.930 . S
H1057 C1067 0.930 . S
C1058 H1052 0.930 . S
C1058 C1059 1.355 . S
C1058 C1060 1.415 . S
C1059 C1058 1.355 . S
C1059 C1061 1.419 . S
C1060 C1058 1.415 . S
C1060 C1065 1.425 . S
C1060 C1067 1.409 . S
C1061 H1053 0.930 . S
C1061 C1059 1.419 . S
C1061 C1062 1.362 . S
C1062 H1054 0.930 . S
C1062 C1061 1.362 . S
C1062 C1065 1.409 . S
C1063 H1055 0.930 . S
C1063 C1064 1.355 . S
C1063 C1065 1.415 . S
C1064 C1063 1.355 . S
C1064 C1066 1.419 . S
C1065 C1060 1.425 . S
C1065 C1062 1.409 . S
C1065 C1063 1.415 . S
C1066 H1056 0.930 . S
C1066 C1064 1.419 . S
C1066 C1067 1.362 . S
C1067 H1057 0.930 . S
C1067 C1060 1.409 . S
C1067 C1066 1.362 . S
H1068 C1074 0.930 . S
H1069 C1077 0.930 . S
H1070 C1078 0.930 . S
H1071 C1079 0.930 . S
H1072 C1082 0.930 . S
H1073 C1083 0.930 . S
C1074 H1068 0.930 . S
C1074 C1075 1.355 . S
C1074 C1076 1.415 . S
C1075 C1074 1.355 . S
C1075 C1077 1.419 . S
C1076 C1074 1.415 . S
C1076 C1081 1.425 . S
C1076 C1083 1.409 . S
C1077 H1069 0.930 . S
C1077 C1075 1.419 . S
C1077 C1078 1.362 . S
C1078 H1070 0.930 . S
C1078 C1077 1.362 . S
C1078 C1081 1.409 . S
C1079 H1071 0.930 . S
C1079 C1080 1.355 . S
C1079 C1081 1.415 . S
C1080 C1079 1.355 . S
C1080 C1082 1.419 . S
C1081 C1076 1.425 . S
C1081 C1078 1.409 . S
C1081 C1079 1.415 . S
C1082 H1072 0.930 . S
C1082 C1080 1.419 . S
C1082 C1083 1.362 . S
C1083 H1073 0.930 . S
C1083 C1076 1.409 . S
C1083 C1082 1.362 . S
H1084 C1090 0.930 . S
H1085 C1093 0.930 . S
H1086 C1094 0.930 . S
H1087 C1095 0.930 . S
H1088 C1098 0.930 . S
H1089 C1099 0.930 . S
C1090 H1084 0.930 . S
C1090 C1091 1.355 . S
C1090 C1092 1.415 . S
C1091 C1090 1.355 . S
C1091 C1093 1.419 1_556 S
C1092 C1090 1.415 . S
C1092 C1097 1.425 1_556 S
C1092 C1099 1.409 . S
C1093 H1085 0.930 . S
C1093 C1091 1.419 1_554 S
C1093 C1094 1.362 . S
C1094 H1086 0.930 . S
C1094 C1093 1.362 . S
C1094 C1097 1.409 . S
C1095 H1087 0.930 . S
C1095 C1096 1.355 . S
C1095 C1097 1.415 . S
C1096 C1095 1.355 . S
C1096 C1098 1.419 1_554 S
C1097 C1092 1.425 1_554 S
C1097 C1094 1.409 . S
C1097 C1095 1.415 . S
C1098 H1088 0.930 . S
C1098 C1096 1.419 1_556 S
C1098 C1099 1.362 . S
C1099 H1089 0.930 . S
C1099 C1092 1.409 . S
C1099 C1098 1.362 . S
H1100 C1106 0.930 . S
H1101 C1109 0.930 . S
H1102 C1110 0.930 . S
H1103 C1111 0.930 . S
H1104 C1114 0.930 . S
H1105 C1115 0.930 . S
C1106 H1100 0.930 . S
C1106 C1107 1.355 . S
C1106 C1108 1.415 . S
C1107 C1106 1.355 . S
C1107 C1109 1.419 . S
C1108 C1106 1.415 . S
C1108 C1113 1.425 . S
C1108 C1115 1.409 . S
C1109 H1101 0.930 . S
C1109 C1107 1.419 . S
C1109 C1110 1.362 . S
C1110 H1102 0.930 . S
C1110 C1109 1.362 . S
C1110 C1113 1.409 . S
C1111 H1103 0.930 . S
C1111 C1112 1.355 . S
C1111 C1113 1.415 . S
C1112 C1111 1.355 . S
C1112 C1114 1.419 . S
C1113 C1108 1.425 . S
C1113 C1110 1.409 . S
C1113 C1111 1.415 . S
C1114 H1104 0.930 . S
C1114 C1112 1.419 . S
C1114 C1115 1.362 . S
C1115 H1105 0.930 . S
C1115 C1108 1.409 . S
C1115 C1114 1.362 . S
H1116 C1122 0.930 . S
H1117 C1125 0.930 . S
H1118 C1126 0.930 . S
H1119 C1127 0.930 . S
H1120 C1130 0.930 . S
H1121 C1131 0.930 . S
C1122 H1116 0.930 . S
C1122 C1123 1.355 . S
C1122 C1124 1.415 . S
C1123 C1122 1.355 . S
C1123 C1125 1.419 . S
C1124 C1122 1.415 . S
C1124 C1129 1.425 . S
C1124 C1131 1.409 . S
C1125 H1117 0.930 . S
C1125 C1123 1.419 . S
C1125 C1126 1.362 . S
C1126 H1118 0.930 . S
C1126 C1125 1.362 . S
C1126 C1129 1.409 . S
C1127 H1119 0.930 . S
C1127 C1128 1.355 . S
C1127 C1129 1.415 . S
C1128 C1127 1.355 . S
C1128 C1130 1.419 . S
C1129 C1124 1.425 . S
C1129 C1126 1.409 . S
C1129 C1127 1.415 . S
C1130 H1120 0.930 . S
C1130 C1128 1.419 . S
C1130 C1131 1.362 . S
C1131 H1121 0.930 . S
C1131 C1124 1.409 . S
C1131 C1130 1.362 . S
H1132 C1138 0.930 . S
H1133 C1141 0.930 . S
H1134 C1142 0.930 . S
H1135 C1143 0.930 . S
H1136 C1146 0.930 . S
H1137 C1147 0.930 . S
C1138 H1132 0.930 . S
C1138 C1139 1.355 . S
C1138 C1140 1.415 . S
C1139 C1138 1.355 . S
C1139 C1141 1.419 . S
C1140 C1138 1.415 . S
C1140 C1145 1.425 . S
C1140 C1147 1.409 . S
C1141 H1133 0.930 . S
C1141 C1139 1.419 . S
C1141 C1142 1.362 . S
C1142 H1134 0.930 . S
C1142 C1141 1.362 . S
C1142 C1145 1.409 . S
C1143 H1135 0.930 . S
C1143 C1144 1.355 . S
C1143 C1145 1.415 . S
C1144 C1143 1.355 . S
C1144 C1146 1.419 . S
C1145 C1140 1.425 . S
C1145 C1142 1.409 . S
C1145 C1143 1.415 . S
C1146 H1136 0.930 . S
C1146 C1144 1.419 . S
C1146 C1147 1.362 . S
C1147 H1137 0.930 . S
C1147 C1140 1.409 . S
C1147 C1146 1.362 . S
H1148 C1154 0.930 . S
H1149 C1157 0.930 . S
H1150 C1158 0.930 . S
H1151 C1159 0.930 . S
H1152 C1162 0.930 . S
H1153 C1163 0.930 . S
C1154 H1148 0.930 . S
C1154 C1155 1.355 . S
C1154 C1156 1.415 . S
C1155 C1154 1.355 . S
C1155 C1157 1.419 . S
C1156 C1154 1.415 . S
C1156 C1161 1.425 . S
C1156 C1163 1.409 . S
C1157 H1149 0.930 . S
C1157 C1155 1.419 . S
C1157 C1158 1.362 . S
C1158 H1150 0.930 . S
C1158 C1157 1.362 . S
C1158 C1161 1.409 . S
C1159 H1151 0.930 . S
C1159 C1160 1.355 . S
C1159 C1161 1.415 . S
C1160 C1159 1.355 . S
C1160 C1162 1.419 . S
C1161 C1156 1.425 . S
C1161 C1158 1.409 . S
C1161 C1159 1.415 . S
C1162 H1152 0.930 . S
C1162 C1160 1.419 . S
C1162 C1163 1.362 . S
C1163 H1153 0.930 . S
C1163 C1156 1.409 . S
C1163 C1162 1.362 . S
H1164 C1170 0.930 . S
H1165 C1173 0.930 . S
H1166 C1174 0.930 . S
H1167 C1175 0.930 . S
H1168 C1178 0.930 . S
H1169 C1179 0.930 . S
C1170 H1164 0.930 . S
C1170 C1171 1.355 . S
C1170 C1172 1.415 . S
C1171 C1170 1.355 . S
C1171 C1173 1.419 . S
C1172 C1170 1.415 . S
C1172 C1177 1.425 . S
C1172 C1179 1.409 . S
C1173 H1165 0.930 . S
C1173 C1171 1.419 . S
C1173 C1174 1.362 . S
C1174 H1166 0.930 . S
C1174 C1173 1.362 . S
C1174 C1177 1.409 . S
C1175 H1167 0.930 . S
C1175 C1176 1.355 . S
C1175 C1177 1.415 . S
C1176 C1175 1.355 . S
C1176 C1178 1.419 . S
C1177 C1172 1.425 . S
C1177 C1174 1.409 . S
C1177 C1175 1.415 . S
C1178 H1168 0.930 . S
C1178 C1176 1.419 . S
C1178 C1179 1.362 . S
C1179 H1169 0.930 . S
C1179 C1172 1.409 . S
C1179 C1178 1.362 . S
H1180 C1186 0.930 . S
H1181 C1189 0.930 . S
H1182 C1190 0.930 . S
H1183 C1191 0.930 . S
H1184 C1194 0.930 . S
H1185 C1195 0.930 . S
C1186 H1180 0.930 . S
C1186 C1187 1.355 . S
C1186 C1188 1.415 . S
C1187 C1186 1.355 . S
C1187 C1189 1.419 . S
C1188 C1186 1.415 . S
C1188 C1193 1.425 . S
C1188 C1195 1.409 . S
C1189 H1181 0.930 . S
C1189 C1187 1.419 . S
C1189 C1190 1.362 . S
C1190 H1182 0.930 . S
C1190 C1189 1.362 . S
C1190 C1193 1.409 . S
C1191 H1183 0.930 . S
C1191 C1192 1.355 . S
C1191 C1193 1.415 . S
C1192 C1191 1.355 . S
C1192 C1194 1.419 . S
C1193 C1188 1.425 . S
C1193 C1190 1.409 . S
C1193 C1191 1.415 . S
C1194 H1184 0.930 . S
C1194 C1192 1.419 . S
C1194 C1195 1.362 . S
C1195 H1185 0.930 . S
C1195 C1188 1.409 . S
C1195 C1194 1.362 . S
H1196 C1202 0.930 . S
H1197 C1205 0.930 . S
H1198 C1206 0.930 . S
H1199 C1207 0.930 . S
H1200 C1210 0.930 . S
H1201 C1211 0.930 . S
C1202 H1196 0.930 . S
C1202 C1203 1.355 . S
C1202 C1204 1.415 . S
C1203 C1202 1.355 . S
C1203 C1205 1.419 . S
C1204 C1202 1.415 . S
C1204 C1209 1.425 . S
C1204 C1211 1.409 . S
C1205 H1197 0.930 . S
C1205 C1203 1.419 . S
C1205 C1206 1.362 . S
C1206 H1198 0.930 . S
C1206 C1205 1.362 . S
C1206 C1209 1.409 . S
C1207 H1199 0.930 . S
C1207 C1208 1.355 . S
C1207 C1209 1.415 . S
C1208 C1207 1.355 . S
C1208 C1210 1.419 . S
C1209 C1204 1.425 . S
C1209 C1206 1.409 . S
C1209 C1207 1.415 . S
C1210 H1200 0.930 . S
C1210 C1208 1.419 . S
C1210 C1211 1.362 . S
C1211 H1201 0.930 . S
C1211 C1204 1.409 . S
C1211 C1210 1.362 . S
H1212 C1218 0.930 . S
H1213 C1221 0.930 . S
H1214 C1222 0.930 . S
H1215 C1223 0.930 . S
H1216 C1226 0.930 . S
H1217 C1227 0.930 . S
C1218 H1212 0.930 . S
C1218 C1219 1.355 . S
C1218 C1220 1.415 . S
C1219 C1218 1.355 . S
C1219 C1221 1.419 . S
C1220 C1218 1.415 . S
C1220 C1225 1.425 . S
C1220 C1227 1.409 . S
C1221 H1213 0.930 . S
C1221 C1219 1.419 . S
C1221 C1222 1.362 . S
C1222 H1214 0.930 . S
C1222 C1221 1.362 . S
C1222 C1225 1.409 . S
C1223 H1215 0.930 . S
C1223 C1224 1.355 . S
C1223 C1225 1.415 . S
C1224 C1223 1.355 . S
C1224 C1226 1.419 . S
C1225 C1220 1.425 . S
C1225 C1222 1.409 . S
C1225 C1223 1.415 . S
C1226 H1216 0.930 . S
C1226 C1224 1.419 . S
C1226 C1227 1.362 . S
C1227 H1217 0.930 . S
C1227 C1220 1.409 . S
C1227 C1226 1.362 . S
H1228 C1234 0.930 . S
H1229 C1237 0.930 . S
H1230 C1238 0.930 . S
H1231 C1239 0.930 . S
H1232 C1242 0.930 . S
H1233 C1243 0.930 . S
C1234 H1228 0.930 . S
C1234 C1235 1.355 . S
C1234 C1236 1.415 . S
C1235 C1234 1.355 . S
C1235 C1237 1.419 . S
C1236 C1234 1.415 . S
C1236 C1241 1.425 . S
C1236 C1243 1.409 . S
C1237 H1229 0.930 . S
C1237 C1235 1.419 . S
C1237 C1238 1.362 . S
C1238 H1230 0.930 . S
C1238 C1237 1.362 . S
C1238 C1241 1.409 . S
C1239 H1231 0.930 . S
C1239 C1240 1.355 . S
C1239 C1241 1.415 . S
C1240 C1239 1.355 . S
C1240 C1242 1.419 . S
C1241 C1236 1.425 . S
C1241 C1238 1.409 . S
C1241 C1239 1.415 . S
C1242 H1232 0.930 . S
C1242 C1240 1.419 . S
C1242 C1243 1.362 . S
C1243 H1233 0.930 . S
C1243 C1236 1.409 . S
C1243 C1242 1.362 . S
H1244 C1250 0.930 . S
H1245 C1253 0.930 . S
H1246 C1254 0.930 . S
H1247 C1255 0.930 . S
H1248 C1258 0.930 . S
H1249 C1259 0.930 . S
C1250 H1244 0.930 . S
C1250 C1251 1.355 . S
C1250 C1252 1.415 . S
C1251 C1250 1.355 . S
C1251 C1253 1.419 . S
C1252 C1250 1.415 . S
C1252 C1257 1.425 . S
C1252 C1259 1.409 . S
C1253 H1245 0.930 . S
C1253 C1251 1.419 . S
C1253 C1254 1.362 . S
C1254 H1246 0.930 . S
C1254 C1253 1.362 . S
C1254 C1257 1.409 . S
C1255 H1247 0.930 . S
C1255 C1256 1.355 . S
C1255 C1257 1.415 . S
C1256 C1255 1.355 . S
C1256 C1258 1.419 . S
C1257 C1252 1.425 . S
C1257 C1254 1.409 . S
C1257 C1255 1.415 . S
C1258 H1248 0.930 . S
C1258 C1256 1.419 . S
C1258 C1259 1.362 . S
C1259 H1249 0.930 . S
C1259 C1252 1.409 . S
C1259 C1258 1.362 . S
H1260 C1266 0.930 . S
H1261 C1269 0.930 . S
H1262 C1270 0.930 . S
H1263 C1271 0.930 . S
H1264 C1274 0.930 . S
H1265 C1275 0.930 . S
C1266 H1260 0.930 . S
C1266 C1267 1.355 . S
C1266 C1268 1.415 . S
C1267 C1266 1.355 . S
C1267 C1269 1.419 . S
C1268 C1266 1.415 . S
C1268 C1273 1.425 . S
C1268 C1275 1.409 . S
C1269 H1261 0.930 . S
C1269 C1267 1.419 . S
C1269 C1270 1.362 . S
C1270 H1262 0.930 . S
C1270 C1269 1.362 . S
C1270 C1273 1.409 . S
C1271 H1263 0.930 . S
C1271 C1272 1.355 . S
C1271 C1273 1.415 . S
C1272 C1271 1.355 . S
C1272 C1274 1.419 . S
C1273 C1268 1.425 . S
C1273 C1270 1.409 . S
C1273 C1271 1.415 . S
C1274 H1264 0.930 . S
C1274 C1272 1.419 . S
C1274 C1275 1.362 . S
C1275 H1265 0.930 . S
C1275 C1268 1.409 . S
C1275 C1274 1.362 . S
H1276 C1282 0.930 . S
H1277 C1285 0.930 . S
H1278 C1286 0.930 . S
H1279 C1287 0.930 . S
H1280 C1290 0.930 . S
H1281 C1291 0.930 . S
C1282 H1276 0.930 . S
C1282 C1283 1.355 . S
C1282 C1284 1.415 . S
C1283 C1282 1.355 . S
C1283 C1285 1.419 . S
C1284 C1282 1.415 . S
C1284 C1289 1.425 . S
C1284 C1291 1.409 . S
C1285 H1277 0.930 . S
C1285 C1283 1.419 . S
C1285 C1286 1.362 . S
C1286 H1278 0.930 . S
C1286 C1285 1.362 . S
C1286 C1289 1.409 . S
C1287 H1279 0.930 . S
C1287 C1288 1.355 . S
C1287 C1289 1.415 . S
C1288 C1287 1.355 . S
C1288 C1290 1.419 . S
C1289 C1284 1.425 . S
C1289 C1286 1.409 . S
C1289 C1287 1.415 . S
C1290 H1280 0.930 . S
C1290 C1288 1.419 . S
C1290 C1291 1.362 . S
C1291 H1281 0.930 . S
C1291 C1284 1.409 . S
C1291 C1290 1.362 . S
H1292 C1298 0.930 . S
H1293 C1301 0.930 . S
H1294 C1302 0.930 . S
H1295 C1303 0.930 . S
H1296 C1306 0.930 . S
H1297 C1307 0.930 . S
C1298 H1292 0.930 . S
C1298 C1299 1.355 . S
C1298 C1300 1.415 . S
C1299 C1298 1.355 . S
C1299 C1301 1.419 . S
C1300 C1298 1.415 . S
C1300 C1305 1.425 . S
C1300 C1307 1.409 . S
C1301 H1293 0.930 . S
C1301 C1299 1.419 . S
C1301 C1302 1.362 . S
C1302 H1294 0.930 . S
C1302 C1301 1.362 . S
C1302 C1305 1.409 . S
C1303 H1295 0.930 . S
C1303 C1304 1.355 . S
C1303 C1305 1.415 . S
C1304 C1303 1.355 . S
C1304 C1306 1.419 . S
C1305 C1300 1.425 . S
C1305 C1302 1.409 . S
C1305 C1303 1.415 . S
C1306 H1296 0.930 . S
C1306 C1304 1.419 . S
C1306 C1307 1.362 . S
C1307 H1297 0.930 . S
C1307 C1300 1.409 . S
C1307 C1306 1.362 . S
H1308 C1314 0.930 . S
H1309 C1317 0.930 . S
H1310 C1318 0.930 . S
H1311 C1319 0.930 . S
H1312 C1322 0.930 . S
H1313 C1323 0.930 . S
C1314 H1308 0.930 . S
C1314 C1315 1.355 . S
C1314 C1316 1.415 . S
C1315 C1314 1.355 . S
C1315 C1317 1.419 . S
C1316 C1314 1.415 . S
C1316 C1321 1.425 . S
C1316 C1323 1.409 . S
C1317 H1309 0.930 . S
C1317 C1315 1.419 . S
C1317 C1318 1.362 . S
C1318 H1310 0.930 . S
C1318 C1317 1.362 . S
C1318 C1321 1.409 . S
C1319 H1311 0.930 . S
C1319 C1320 1.355 . S
C1319 C1321 1.415 . S
C1320 C1319 1.355 . S
C1320 C1322 1.419 . S
C1321 C1316 1.425 . S
C1321 C1318 1.409 . S
C1321 C1319 1.415 . S
C1322 H1312 0.930 . S
C1322 C1320 1.419 . S
C1322 C1323 1.362 . S
C1323 H1313 0.930 . S
C1323 C1316 1.409 . S
C1323 C1322 1.362 . S
H1324 C1330 0.930 . S
H1325 C1333 0.930 . S
H1326 C1334 0.930 . S
H1327 C1335 0.930 . S
H1328 C1338 0.930 . S
H1329 C1339 0.930 . S
C1330 H1324 0.930 . S
C1330 C1331 1.355 . S
C1330 C1332 1.415 . S
C1331 C1330 1.355 . S
C1331 C1333 1.419 . S
C1332 C1330 1.415 . S
C1332 C1337 1.425 . S
C1332 C1339 1.409 1_655 S
C1333 H1325 0.930 . S
C1333 C1331 1.419 . S
C1333 C1334 1.362 . S
C1334 H1326 0.930 . S
C1334 C1333 1.362 . S
C1334 C1337 1.409 . S
C1335 H1327 0.930 . S
C1335 C1336 1.355 . S
C1335 C1337 1.415 . S
C1336 C1335 1.355 . S
C1336 C1338 1.419 1_655 S
C1337 C1332 1.425 . S
C1337 C1334 1.409 . S
C1337 C1335 1.415 . S
C1338 H1328 0.930 . S
C1338 C1336 1.419 1_455 S
C1338 C1339 1.362 . S
C1339 H1329 0.930 . S
C1339 C1332 1.409 1_455 S
C1339 C1338 1.362 . S
H1340 C1346 0.930 . S
H1341 C1349 0.930 . S
H1342 C1350 0.930 . S
H1343 C1351 0.930 . S
H1344 C1354 0.930 . S
H1345 C1355 0.930 . S
C1346 H1340 0.930 . S
C1346 C1347 1.355 . S
C1346 C1348 1.415 . S
C1347 C1346 1.355 . S
C1347 C1349 1.419 . S
C1348 C1346 1.415 . S
C1348 C1353 1.425 . S
C1348 C1355 1.409 . S
C1349 H1341 0.930 . S
C1349 C1347 1.419 . S
C1349 C1350 1.362 . S
C1350 H1342 0.930 . S
C1350 C1349 1.362 . S
C1350 C1353 1.409 . S
C1351 H1343 0.930 . S
C1351 C1352 1.355 . S
C1351 C1353 1.415 . S
C1352 C1351 1.355 . S
C1352 C1354 1.419 . S
C1353 C1348 1.425 . S
C1353 C1350 1.409 . S
C1353 C1351 1.415 . S
C1354 H1344 0.930 . S
C1354 C1352 1.419 . S
C1354 C1355 1.362 . S
C1355 H1345 0.930 . S
C1355 C1348 1.409 . S
C1355 C1354 1.362 . S
H1356 C1362 0.930 . S
H1357 C1365 0.930 . S
H1358 C1366 0.930 . S
H1359 C1367 0.930 . S
H1360 C1370 0.930 . S
H1361 C1371 0.930 . S
C1362 H1356 0.930 . S
C1362 C1363 1.355 . S
C1362 C1364 1.415 . S
C1363 C1362 1.355 . S
C1363 C1365 1.419 . S
C1364 C1362 1.415 . S
C1364 C1369 1.425 . S
C1364 C1371 1.409 . S
C1365 H1357 0.930 . S
C1365 C1363 1.419 . S
C1365 C1366 1.362 . S
C1366 H1358 0.930 . S
C1366 C1365 1.362 . S
C1366 C1369 1.409 . S
C1367 H1359 0.930 . S
C1367 C1368 1.355 . S
C1367 C1369 1.415 . S
C1368 C1367 1.355 . S
C1368 C1370 1.419 . S
C1369 C1364 1.425 . S
C1369 C1366 1.409 . S
C1369 C1367 1.415 . S
C1370 H1360 0.930 . S
C1370 C1368 1.419 . S
C1370 C1371 1.362 . S
C1371 H1361 0.930 . S
C1371 C1364 1.409 . S
C1371 C1370 1.362 . S
H1372 C1378 0.930 . S
H1373 C1381 0.930 . S
H1374 C1382 0.930 . S
H1375 C1383 0.930 . S
H1376 C1386 0.930 . S
H1377 C1387 0.930 . S
C1378 H1372 0.930 . S
C1378 C1379 1.355 . S
C1378 C1380 1.415 . S
C1379 C1378 1.355 . S
C1379 C1381 1.419 . S
C1380 C1378 1.415 . S
C1380 C1385 1.425 . S
C1380 C1387 1.409 . S
C1381 H1373 0.930 . S
C1381 C1379 1.419 . S
C1381 C1382 1.362 . S
C1382 H1374 0.930 . S
C1382 C1381 1.362 . S
C1382 C1385 1.409 . S
C1383 H1375 0.930 . S
C1383 C1384 1.355 . S
C1383 C1385 1.415 . S
C1384 C1383 1.355 . S
C1384 C1386 1.419 . S
C1385 C1380 1.425 . S
C1385 C1382 1.409 . S
C1385 C1383 1.415 . S
C1386 H1376 0.930 . S
C1386 C1384 1.419 . S
C1386 C1387 1.362 . S
C1387 H1377 0.930 . S
C1387 C1380 1.409 . S
C1387 C1386 1.362 . S
H1388 C1394 0.930 . S
H1389 C1397 0.930 . S
H1390 C1398 0.930 . S
H1391 C1399 0.930 . S
H1392 C1402 0.930 . S
H1393 C1403 0.930 . S
C1394 H1388 0.930 . S
C1394 C1395 1.355 . S
C1394 C1396 1.415 . S
C1395 C1394 1.355 . S
C1395 C1397 1.419 . S
C1396 C1394 1.415 . S
C1396 C1401 1.425 . S
C1396 C1403 1.409 . S
C1397 H1389 0.930 . S
C1397 C1395 1.419 . S
C1397 C1398 1.362 . S
C1398 H1390 0.930 . S
C1398 C1397 1.362 . S
C1398 C1401 1.409 . S
C1399 H1391 0.930 . S
C1399 C1400 1.355 . S
C1399 C1401 1.415 . S
C1400 C1399 1.355 . S
C1400 C1402 1.419 . S
C1401 C1396 1.425 . S
C1401 C1398 1.409 . S
C1401 C1399 1.415 . S
C1402 H1392 0.930 . S
C1402 C1400 1.419 . S
C1402 C1403 1.362 . S
C1403 H1393 0.930 . S
C1403 C1396 1.409 . S
C1403 C1402 1.362 . S
H1404 C1410 0.930 . S
H1405 C1413 0.930 . S
H1406 C1414 0.930 . S
H1407 C1415 0.930 . S
H1408 C1418 0.930 . S
H1409 C1419 0.930 . S
C1410 H1404 0.930 . S
C1410 C1411 1.355 . S
C1410 C1412 1.415 . S
C1411 C1410 1.355 . S
C1411 C1413 1.419 . S
C1412 C1410 1.415 . S
C1412 C1417 1.425 . S
C1412 C1419 1.409 . S
C1413 H1405 0.930 . S
C1413 C1411 1.419 . S
C1413 C1414 1.362 . S
C1414 H1406 0.930 . S
C1414 C1413 1.362 . S
C1414 C1417 1.409 . S
C1415 H1407 0.930 . S
C1415 C1416 1.355 . S
C1415 C1417 1.415 . S
C1416 C1415 1.355 . S
C1416 C1418 1.419 . S
C1417 C1412 1.425 . S
C1417 C1414 1.409 . S
C1417 C1415 1.415 . S
C1418 H1408 0.930 . S
C1418 C1416 1.419 . S
C1418 C1419 1.362 . S
C1419 H1409 0.930 . S
C1419 C1412 1.409 . S
C1419 C1418 1.362 . S
H1420 C1426 0.930 . S
H1421 C1429 0.930 . S
H1422 C1430 0.930 . S
H1423 C1431 0.930 . S
H1424 C1434 0.930 . S
H1425 C1435 0.930 . S
C1426 H1420 0.930 . S
C1426 C1427 1.355 . S
C1426 C1428 1.415 . S
C1427 C1426 1.355 . S
C1427 C1429 1.419 . S
C1428 C1426 1.415 . S
C1428 C1433 1.425 . S
C1428 C1435 1.409 . S
C1429 H1421 0.930 . S
C1429 C1427 1.419 . S
C1429 C1430 1.362 . S
C1430 H1422 0.930 . S
C1430 C1429 1.362 . S
C1430 C1433 1.409 . S
C1431 H1423 0.930 . S
C1431 C1432 1.355 . S
C1431 C1433 1.415 . S
C1432 C1431 1.355 . S
C1432 C1434 1.419 . S
C1433 C1428 1.425 . S
C1433 C1430 1.409 . S
C1433 C1431 1.415 . S
C1434 H1424 0.930 . S
C1434 C1432 1.419 . S
C1434 C1435 1.362 . S
C1435 H1425 0.930 . S
C1435 C1428 1.409 . S
C1435 C1434 1.362 . S
H1436 C1442 0.930 . S
H1437 C1445 0.930 . S
H1438 C1446 0.930 . S
H1439 C1447 0.930 . S
H1440 C1450 0.930 . S
H1441 C1451 0.930 . S
C1442 H1436 0.930 . S
C1442 C1443 1.355 . S
C1442 C1444 1.415 . S
C1443 C1442 1.355 . S
C1443 C1445 1.419 . S
C1444 C1442 1.415 . S
C1444 C1449 1.425 . S
C1444 C1451 1.409 . S
C1445 H1437 0.930 . S
C1445 C1443 1.419 . S
C1445 C1446 1.362 . S
C1446 H1438 0.930 . S
C1446 C1445 1.362 . S
C1446 C1449 1.409 . S
C1447 H1439 0.930 . S
C1447 C1448 1.355 . S
C1447 C1449 1.415 . S
C1448 C1447 1.355 . S
C1448 C1450 1.419 . S
C1449 C1444 1.425 . S
C1449 C1446 1.409 . S
C1449 C1447 1.415 . S
C1450 H1440 0.930 . S
C1450 C1448 1.419 . S
C1450 C1451 1.362 . S
C1451 H1441 0.930 . S
C1451 C1444 1.409 . S
C1451 C1450 1.362 . S
H1452 C1458 0.930 . S
H1453 C1461 0.930 . S
H1454 C1462 0.930 . S
H1455 C1463 0.930 . S
H1456 C1466 0.930 . S
H1457 C1467 0.930 . S
C1458 H1452 0.930 . S
C1458 C1459 1.355 . S
C1458 C1460 1.415 . S
C1459 C1458 1.355 . S
C1459 C1461 1.419 . S
C1460 C1458 1.415 . S
C1460 C1465 1.425 . S
C1460 C1467 1.409 . S
C1461 H1453 0.930 . S
C1461 C1459 1.419 . S
C1461 C1462 1.362 . S
C1462 H1454 0.930 . S
C1462 C1461 1.362 . S
C1462 C1465 1.409 . S
C1463 H1455 0.930 . S
C1463 C1464 1.355 . S
C1463 C1465 1.415 . S
C1464 C1463 1.355 . S
C1464 C1466 1.419 . S
C1465 C1460 1.425 . S
C1465 C1462 1.409 . S
C1465 C1463 1.415 . S
C1466 H1456 0.930 . S
C1466 C1464 1.419 . S
C1466 C1467 1.362 . S
C1467 H1457 0.930 . S
C1467 C1460 1.409 . S
C1467 C1466 1.362 . S
H1468 C1474 0.930 . S
H1469 C1477 0.930 . S
H1470 C1478 0.930 . S
H1471 C1479 0.930 . S
H1472 C1482 0.930 . S
H1473 C1483 0.930 . S
C1474 H1468 0.930 . S
C1474 C1475 1.355 . S
C1474 C1476 1.415 . S
C1475 C1474 1.355 . S
C1475 C1477 1.419 . S
C1476 C1474 1.415 . S
C1476 C1481 1.425 . S
C1476 C1483 1.409 . S
C1477 H1469 0.930 . S
C1477 C1475 1.419 . S
C1477 C1478 1.362 . S
C1478 H1470 0.930 . S
C1478 C1477 1.362 . S
C1478 C1481 1.409 . S
C1479 H1471 0.930 . S
C1479 C1480 1.355 . S
C1479 C1481 1.415 . S
C1480 C1479 1.355 . S
C1480 C1482 1.419 . S
C1481 C1476 1.425 . S
C1481 C1478 1.409 . S
C1481 C1479 1.415 . S
C1482 H1472 0.930 . S
C1482 C1480 1.419 . S
C1482 C1483 1.362 . S
C1483 H1473 0.930 . S
C1483 C1476 1.409 . S
C1483 C1482 1.362 . S
H1484 C1490 0.930 . S
H1485 C1493 0.930 . S
H1486 C1494 0.930 . S
H1487 C1495 0.930 . S
H1488 C1498 0.930 . S
H1489 C1499 0.930 . S
C1490 H1484 0.930 . S
C1490 C1491 1.355 . S
C1490 C1492 1.415 . S
C1491 C1490 1.355 . S
C1491 C1493 1.419 . S
C1492 C1490 1.415 . S
C1492 C1497 1.425 . S
C1492 C1499 1.409 . S
C1493 H1485 0.930 . S
C1493 C1491 1.419 . S
C1493 C1494 1.362 . S
C1494 H1486 0.930 . S
C1494 C1493 1.362 . S
C1494 C1497 1.409 . S
C1495 H1487 0.930 . S
C1495 C1496 1.355 . S
C1495 C1497 1.415 . S
C1496 C1495 1.355 . S
C1496 C1498 1.419 . S
C1497 C1492 1.425 . S
C1497 C1494 1.409 . S
C1497 C1495 1.415 . S
C1498 H1488 0.930 . S
C1498 C1496 1.419 . S
C1498 C1499 1.362 . S
C1499 H1489 0.930 . S
C1499 C1492 1.409 . S
C1499 C1498 1.362 . S
H1500 C1506 0.930 . S
H1501 C1509 0.930 . S
H1502 C1510 0.930 . S
H1503 C1511 0.930 . S
H1504 C1514 0.930 . S
H1505 C1515 0.930 . S
C1506 H1500 0.930 . S
C1506 C1507 1.355 . S
C1506 C1508 1.415 . S
C1507 C1506 1.355 . S
C1507 C1509 1.419 . S
C1508 C1506 1.415 . S
C1508 C1513 1.425 . S
C1508 C1515 1.409 . S
C1509 H1501 0.930 . S
C1509 C1507 1.419 . S
C1509 C1510 1.362 . S
C1510 H1502 0.930 . S
C1510 C1509 1.362 . S
C1510 C1513 1.409 . S
C1511 H1503 0.930 . S
C1511 C1512 1.355 . S
C1511 C1513 1.415 . S
C1512 C1511 1.355 . S
C1512 C1514 1.419 . S
C1513 C1508 1.425 . S
C1513 C1510 1.409 . S
C1513 C1511 1.415 . S
C1514 H1504 0.930 . S
C1514 C1512 1.419 . S
C1514 C1515 1.362 . S
C1515 H1505 0.930 . S
C1515 C1508 1.409 . S
C1515 C1514 1.362 . S
H1516 C1522 0.930 . S
H1517 C1525 0.930 . S
H1518 C1526 0.930 . S
H1519 C1527 0.930 . S
H1520 C1530 0.930 . S
H1521 C1531 0.930 . S
C1522 H1516 0.930 . S
C1522 C1523 1.355 . S
C1522 C1524 1.415 . S
C1523 C1522 1.355 . S
C1523 C1525 1.419 . S
C1524 C1522 1.415 . S
C1524 C1529 1.425 . S
C1524 C1531 1.409 . S
C1525 H1517 0.930 . S
C1525 C1523 1.419 . S
C1525 C1526 1.362 . S
C1526 H1518 0.930 . S
C1526 C1525 1.362 . S
C1526 C1529 1.409 . S
C1527 H1519 0.930 . S
C1527 C1528 1.355 . S
C1527 C1529 1.415 . S
C1528 C1527 1.355 . S
C1528 C1530 1.419 . S
C1529 C1524 1.425 . S
C1529 C1526 1.409 . S
C1529 C1527 1.415 . S
C1530 H1520 0.930 . S
C1530 C1528 1.419 . S
C1530 C1531 1.362 . S
C1531 H1521 0.930 . S
C1531 C1524 1.409 . S
C1531 C1530 1.362 . S
H1532 C1538 0.930 . S
H1533 C1541 0.930 1_556 S
H1534 C1542 0.930 . S
H1535 C1543 0.930 1_556 S
H1536 C1546 0.930 . S
H1537 C1547 0.930 . S
C1538 H1532 0.930 . S
C1538 C1539 1.355 . S
C1538 C1540 1.415 . S
C1539 C1538 1.355 . S
C1539 C1541 1.419 . S
C1540 C1538 1.415 . S
C1540 C1545 1.425 . S
C1540 C1547 1.409 . S
C1541 H1533 0.930 1_554 S
C1541 C1539 1.419 . S
C1541 C1542 1.362 1_554 S
C1542 H1534 0.930 . S
C1542 C1541 1.362 1_556 S
C1542 C1545 1.409 1_556 S
C1543 H1535 0.930 1_554 S
C1543 C1544 1.355 . S
C1543 C1545 1.415 . S
C1544 C1543 1.355 . S
C1544 C1546 1.419 . S
C1545 C1540 1.425 . S
C1545 C1542 1.409 1_554 S
C1545 C1543 1.415 . S
C1546 H1536 0.930 . S
C1546 C1544 1.419 . S
C1546 C1547 1.362 . S
C1547 H1537 0.930 . S
C1547 C1540 1.409 . S
C1547 C1546 1.362 . S
H1548 C1554 0.930 . S
H1549 C1557 0.930 . S
H1550 C1558 0.930 . S
H1551 C1559 0.930 . S
H1552 C1562 0.930 . S
H1553 C1563 0.930 . S
C1554 H1548 0.930 . S
C1554 C1555 1.355 . S
C1554 C1556 1.415 . S
C1555 C1554 1.355 . S
C1555 C1557 1.419 . S
C1556 C1554 1.415 . S
C1556 C1561 1.425 . S
C1556 C1563 1.409 . S
C1557 H1549 0.930 . S
C1557 C1555 1.419 . S
C1557 C1558 1.362 . S
C1558 H1550 0.930 . S
C1558 C1557 1.362 . S
C1558 C1561 1.409 . S
C1559 H1551 0.930 . S
C1559 C1560 1.355 . S
C1559 C1561 1.415 . S
C1560 C1559 1.355 . S
C1560 C1562 1.419 . S
C1561 C1556 1.425 . S
C1561 C1558 1.409 . S
C1561 C1559 1.415 . S
C1562 H1552 0.930 . S
C1562 C1560 1.419 . S
C1562 C1563 1.362 . S
C1563 H1553 0.930 . S
C1563 C1556 1.409 . S
C1563 C1562 1.362 . S
C808 C650 1.415 . S
C803 C202 1.418 . S
C824 C663 1.605 . S
C819 C261 1.625 . S
C835 C282 1.425 . S
C840 C676 1.461 . S
C856 C689 1.516 . S
C851 C162 1.504 . S
C872 C697 1.446 . S
C867 C402 1.485 . S
C888 C710 1.435 . S
C883 C482 1.433 . S
C899 C442 1.525 . S
C904 C723 1.503 . S
C920 C736 1.493 . S
C915 C381 1.507 . S
C931 C461 1.449 . S
C936 C754 1.480 . S
C952 C765 1.448 . S
C947 C362 1.513 . S
C963 C415 1.420 . S
C968 C749 1.415 . S
C984 C757 1.447 . S
C979 C495 1.500 . S
C995 C301 1.515 . S
C1000 C780 1.519 . S
C1011 C175 1.529 . S
C1016 C770 1.519 . S
C1027 C215 1.469 . S
C1032 C775 1.458 . S
C1043 C242 1.515 . S
C1048 C778 1.527 1_655 S
C1059 C141 1.493 . S
C1064 C687 1.450 . S
C1075 C581 1.452 . S
C1080 C679 1.459 . S
C1096 C648 1.510 . S
C1091 C615 1.520 . S
C1112 C653 1.495 . S
C1107 C335 1.493 . S
C1123 C181 1.590 . S
C1128 C700 1.537 . S
C1144 C739 1.460 . S
C1139 C455 1.510 . S
C1160 C692 1.406 . S
C1155 C375 1.458 . S
C1176 C718 1.466 . S
C1171 C501 1.531 . S
C1192 C728 1.390 . S
C1187 C562 1.392 . S
C1203 C621 1.625 . S
C1208 C741 1.601 . S
C1219 C322 1.455 . S
C1224 C702 1.431 . S
C1240 C715 1.503 . S
C1235 C522 1.527 . S
C1251 C122 1.454 . S
C1256 C671 1.462 . S
C1272 C684 1.419 . S
C1267 C2 1.437 . S
C1288 C645 1.480 . S
C1283 C42 1.490 . S
C1304 C658 1.499 . S
C1299 C101 1.526 . S
C1315 C61 1.481 . S
C1320 C767 1.448 . S
C1331 C82 1.511 . S
C1336 C752 1.448 1_655 S
C1347 C135 1.422 . S
C1352 C762 1.415 . S
C1363 C15 1.496 . S
C1368 C744 1.445 . S
C1384 C793 1.520 . S
C1379 C341 1.514 . S
C1400 C783 1.497 . S
C1395 C535 1.528 . S
C1416 C788 1.405 . S
C1411 C575 1.464 . S
C1427 C602 1.548 . S
C1432 C791 1.489 . S
C1443 C421 1.480 . S
C1448 C713 1.440 . S
C1464 C705 1.455 . S
C1459 C221 1.455 . S
C1480 C726 1.472 . S
C1475 C255 1.522 . S
C1496 C731 1.464 . S
C1491 C295 1.500 . S
C1507 C541 1.594 . S
C1512 C674 1.530 . S
C1528 C661 1.486 . S
C1523 C55 1.510 . S
C1539 C95 1.462 . S
C1544 C666 1.458 . S
C1560 C640 1.517 . S
C1555 C21 1.505 . S
