# Generated by pormake.
# Topology gar, (4,6)-cn, num edge types: 1
# Building blocks:
#     Node 0, Type 0, BuildingBlock: NAHDIM_clean_sbu_0, # of connection points: 4
#     Node 1, Type 0, BuildingBlock: NAHDIM_clean_sbu_0, # of connection points: 4
#     Node 2, Type 0, BuildingBlock: NAHDIM_clean_sbu_0, # of connection points: 4
#     Node 3, Type 0, BuildingBlock: NAHDIM_clean_sbu_0, # of connection points: 4
#     Node 4, Type 0, BuildingBlock: NAHDIM_clean_sbu_0, # of connection points: 4
#     Node 5, Type 0, BuildingBlock: NAHDIM_clean_sbu_0, # of connection points: 4
#     Node 6, Type 0, BuildingBlock: NAHDIM_clean_sbu_0, # of connection points: 4
#     Node 7, Type 0, BuildingBlock: NAHDIM_clean_sbu_0, # of connection points: 4
#     Node 8, Type 0, BuildingBlock: NAHDIM_clean_sbu_0, # of connection points: 4
#     Node 9, Type 0, BuildingBlock: NAHDIM_clean_sbu_0, # of connection points: 4
#     Node 10, Type 0, BuildingBlock: NAHDIM_clean_sbu_0, # of connection points: 4
#     Node 11, Type 0, BuildingBlock: NAHDIM_clean_sbu_0, # of connection points: 4
#     Node 12, Type 0, BuildingBlock: NAHDIM_clean_sbu_0, # of connection points: 4
#     Node 13, Type 0, BuildingBlock: NAHDIM_clean_sbu_0, # of connection points: 4
#     Node 14, Type 0, BuildingBlock: NAHDIM_clean_sbu_0, # of connection points: 4
#     Node 15, Type 0, BuildingBlock: NAHDIM_clean_sbu_0, # of connection points: 4
#     Node 16, Type 0, BuildingBlock: NAHDIM_clean_sbu_0, # of connection points: 4
#     Node 17, Type 0, BuildingBlock: NAHDIM_clean_sbu_0, # of connection points: 4
#     Node 18, Type 0, BuildingBlock: NAHDIM_clean_sbu_0, # of connection points: 4
#     Node 19, Type 0, BuildingBlock: NAHDIM_clean_sbu_0, # of connection points: 4
#     Node 20, Type 0, BuildingBlock: NAHDIM_clean_sbu_0, # of connection points: 4
#     Node 21, Type 0, BuildingBlock: NAHDIM_clean_sbu_0, # of connection points: 4
#     Node 22, Type 0, BuildingBlock: NAHDIM_clean_sbu_0, # of connection points: 4
#     Node 23, Type 0, BuildingBlock: NAHDIM_clean_sbu_0, # of connection points: 4
#     Node 24, Type 1, BuildingBlock: PAMTUU_clean_sbu_0, # of connection points: 6
#     Node 25, Type 1, BuildingBlock: PAMTUU_clean_sbu_0, # of connection points: 6
#     Node 26, Type 1, BuildingBlock: PAMTUU_clean_sbu_0, # of connection points: 6
#     Node 27, Type 1, BuildingBlock: PAMTUU_clean_sbu_0, # of connection points: 6
#     Node 28, Type 1, BuildingBlock: PAMTUU_clean_sbu_0, # of connection points: 6
#     Node 29, Type 1, BuildingBlock: PAMTUU_clean_sbu_0, # of connection points: 6
#     Node 30, Type 1, BuildingBlock: PAMTUU_clean_sbu_0, # of connection points: 6
#     Node 31, Type 1, BuildingBlock: PAMTUU_clean_sbu_0, # of connection points: 6
#     Node 32, Type 1, BuildingBlock: PAMTUU_clean_sbu_0, # of connection points: 6
#     Node 33, Type 1, BuildingBlock: PAMTUU_clean_sbu_0, # of connection points: 6
#     Node 34, Type 1, BuildingBlock: PAMTUU_clean_sbu_0, # of connection points: 6
#     Node 35, Type 1, BuildingBlock: PAMTUU_clean_sbu_0, # of connection points: 6
#     Node 36, Type 1, BuildingBlock: PAMTUU_clean_sbu_0, # of connection points: 6
#     Node 37, Type 1, BuildingBlock: PAMTUU_clean_sbu_0, # of connection points: 6
#     Node 38, Type 1, BuildingBlock: PAMTUU_clean_sbu_0, # of connection points: 6
#     Node 39, Type 1, BuildingBlock: PAMTUU_clean_sbu_0, # of connection points: 6
#     Edge 40, Type (0, 1), None
#     Edge 41, Type (0, 1), None
#     Edge 42, Type (0, 1), None
#     Edge 43, Type (0, 1), None
#     Edge 44, Type (0, 1), None
#     Edge 45, Type (0, 1), None
#     Edge 46, Type (0, 1), None
#     Edge 47, Type (0, 1), None
#     Edge 48, Type (0, 1), None
#     Edge 49, Type (0, 1), None
#     Edge 50, Type (0, 1), None
#     Edge 51, Type (0, 1), None
#     Edge 52, Type (0, 1), None
#     Edge 53, Type (0, 1), None
#     Edge 54, Type (0, 1), None
#     Edge 55, Type (0, 1), None
#     Edge 56, Type (0, 1), None
#     Edge 57, Type (0, 1), None
#     Edge 58, Type (0, 1), None
#     Edge 59, Type (0, 1), None
#     Edge 60, Type (0, 1), None
#     Edge 61, Type (0, 1), None
#     Edge 62, Type (0, 1), None
#     Edge 63, Type (0, 1), None
#     Edge 64, Type (0, 1), None
#     Edge 65, Type (0, 1), None
#     Edge 66, Type (0, 1), None
#     Edge 67, Type (0, 1), None
#     Edge 68, Type (0, 1), None
#     Edge 69, Type (0, 1), None
#     Edge 70, Type (0, 1), None
#     Edge 71, Type (0, 1), None
#     Edge 72, Type (0, 1), None
#     Edge 73, Type (0, 1), None
#     Edge 74, Type (0, 1), None
#     Edge 75, Type (0, 1), None
#     Edge 76, Type (0, 1), None
#     Edge 77, Type (0, 1), None
#     Edge 78, Type (0, 1), None
#     Edge 79, Type (0, 1), None
#     Edge 80, Type (0, 1), None
#     Edge 81, Type (0, 1), None
#     Edge 82, Type (0, 1), None
#     Edge 83, Type (0, 1), None
#     Edge 84, Type (0, 1), None
#     Edge 85, Type (0, 1), None
#     Edge 86, Type (0, 1), None
#     Edge 87, Type (0, 1), None
#     Edge 88, Type (0, 1), None
#     Edge 89, Type (0, 1), None
#     Edge 90, Type (0, 1), None
#     Edge 91, Type (0, 1), None
#     Edge 92, Type (0, 1), None
#     Edge 93, Type (0, 1), None
#     Edge 94, Type (0, 1), None
#     Edge 95, Type (0, 1), None
#     Edge 96, Type (0, 1), None
#     Edge 97, Type (0, 1), None
#     Edge 98, Type (0, 1), None
#     Edge 99, Type (0, 1), None
#     Edge 100, Type (0, 1), None
#     Edge 101, Type (0, 1), None
#     Edge 102, Type (0, 1), None
#     Edge 103, Type (0, 1), None
#     Edge 104, Type (0, 1), None
#     Edge 105, Type (0, 1), None
#     Edge 106, Type (0, 1), None
#     Edge 107, Type (0, 1), None
#     Edge 108, Type (0, 1), None
#     Edge 109, Type (0, 1), None
#     Edge 110, Type (0, 1), None
#     Edge 111, Type (0, 1), None
#     Edge 112, Type (0, 1), None
#     Edge 113, Type (0, 1), None
#     Edge 114, Type (0, 1), None
#     Edge 115, Type (0, 1), None
#     Edge 116, Type (0, 1), None
#     Edge 117, Type (0, 1), None
#     Edge 118, Type (0, 1), None
#     Edge 119, Type (0, 1), None
#     Edge 120, Type (0, 1), None
#     Edge 121, Type (0, 1), None
#     Edge 122, Type (0, 1), None
#     Edge 123, Type (0, 1), None
#     Edge 124, Type (0, 1), None
#     Edge 125, Type (0, 1), None
#     Edge 126, Type (0, 1), None
#     Edge 127, Type (0, 1), None
#     Edge 128, Type (0, 1), None
#     Edge 129, Type (0, 1), None
#     Edge 130, Type (0, 1), None
#     Edge 131, Type (0, 1), None
#     Edge 132, Type (0, 1), None
#     Edge 133, Type (0, 1), None
#     Edge 134, Type (0, 1), None
#     Edge 135, Type (0, 1), None
# Relax obj value: 0.425
# Max RMSD: 0.473
# Mean RMSD: 0.233
data_MOF--net-gar--node1-NAHDIM_clean_sbu_0--node2-PAMTUU_clean_sbu_0--edge1-none
_symmetry_space_group_name_H-M    P1
_symmetry_Int_Tables_number       1
_symmetry_cell_setting            triclinic
loop_
_symmetry_equiv_pos_as_xyz
'x, y, z'
_cell_length_a     30.269286
_cell_length_b     26.522158
_cell_length_c     28.753106
_cell_angle_alpha  94.42527
_cell_angle_beta   95.989274
_cell_angle_gamma 111.82022
loop_
_atom_site_label
_atom_site_type_symbol
_atom_site_fract_x
_atom_site_fract_y
_atom_site_fract_z
_atom_type_partial_charge
C0 C 0.22834 0.34417 0.38306 0.0
O1 O 0.19906 0.29377 0.36706 0.0
O2 O 0.12548 0.28659 0.50015 0.0
Zn3 Zn 0.1333 0.35948 0.4512 0.0
O4 O 0.14111 0.43618 0.50318 0.0
C5 C 1.031 0.38405 0.40209 0.0
O6 O 1.05871 0.43613 0.41221 0.0
O7 O 0.20997 0.37229 0.41129 0.0
C8 C 0.14971 0.4878 0.49894 0.0
O9 O 0.16167 0.50468 0.4586 0.0
C10 C 0.1259 0.23676 0.49426 0.0
O11 O 0.13103 0.2195 0.45189 0.0
O12 O 1.05229 0.34897 0.41085 0.0
C13 C 1.03041 0.89469 0.79686 0.0
O14 O 1.05765 0.947 0.80618 0.0
O15 O 0.12166 0.79817 0.68299 0.0
Zn16 Zn 0.12859 0.87569 0.73609 0.0
O17 O 0.13811 0.952 0.69043 0.0
C18 C 0.23125 0.85038 0.78426 0.0
O19 O 0.20502 0.79872 0.76958 0.0
O20 O 1.05055 0.86388 0.7741 0.0
C21 C 0.14229 1.00365 0.69853 0.0
O22 O 0.14275 1.02209 0.74235 0.0
C23 C 0.11754 0.74778 0.68861 0.0
O24 O 0.11013 0.7327 0.73048 0.0
O25 O 0.20914 0.88528 0.77803 0.0
C26 C 0.7319 0.84556 0.8821 0.0
O27 O 0.70328 0.79457 0.86735 0.0
O28 O 0.62829 0.7765 0.9858 0.0
Zn29 Zn 0.63528 0.85802 0.94799 0.0
O30 O 0.64133 0.93287 1.00335 0.0
C31 C 0.53264 0.88182 0.89854 0.0
O32 O 0.55934 0.93399 0.91036 0.0
O33 O 0.71284 0.87404 0.90908 0.0
C34 C 0.6493 0.98479 1.0001 0.0
O35 O 0.66139 1.0027 0.96012 0.0
C36 C 0.61463 0.75561 0.02475 0.0
O37 O 0.59922 0.78454 0.05319 0.0
O38 O 0.55466 0.84729 0.90662 0.0
C39 C 0.52586 0.39477 0.29441 0.0
O40 O 0.55139 0.44762 0.29915 0.0
O41 O 0.61942 0.29665 0.18363 0.0
Zn42 Zn 0.62516 0.37447 0.23607 0.0
O43 O 0.63098 0.4514 0.19283 0.0
C44 C 0.73076 0.35538 0.28553 0.0
O45 O 0.70688 0.30387 0.26835 0.0
O46 O 0.54708 0.36309 0.2746 0.0
C47 C 0.65022 0.4754 0.15702 0.0
O48 O 0.67623 0.45373 0.13533 0.0
C49 C 0.61602 0.2465 0.18963 0.0
O50 O 0.60934 0.23188 0.23176 0.0
O51 O 0.70655 0.38832 0.27982 0.0
C52 C 0.11583 0.87434 0.20818 0.0
O53 O 0.10597 0.8509 0.16436 0.0
O54 O 0.19855 0.86223 0.13836 0.0
Zn55 Zn 0.21235 0.93521 0.18596 0.0
O56 O 0.20815 1.00941 0.15704 0.0
C57 C 0.31537 0.96407 0.24818 0.0
O58 O 0.33719 0.98841 0.21418 0.0
O59 O 0.15683 0.91183 0.22273 0.0
C60 C 0.17486 1.01155 0.12582 0.0
O61 O 0.14137 0.96506 0.10559 0.0
C62 C 0.19132 0.81631 0.15473 0.0
O63 O 0.19437 0.81587 0.20056 0.0
O64 O 0.26919 0.94363 0.2423 0.0
C65 C 0.65394 0.94857 0.45779 0.0
O66 O 0.63973 0.98723 0.47264 0.0
O67 O 0.5862 0.80857 0.54136 0.0
Zn68 Zn 0.58447 0.88452 0.51305 0.0
O69 O 0.60991 0.95963 0.55963 0.0
C70 C 0.48151 0.85655 0.44562 0.0
O71 O 0.45858 0.80935 0.4603 0.0
O72 O 0.63593 0.90138 0.47118 0.0
C73 C 0.59259 0.99691 0.55557 0.0
O74 O 0.55367 0.986 0.52533 0.0
C75 C 0.62504 0.80499 0.56191 0.0
O76 O 0.66432 0.84968 0.56903 0.0
O77 O 0.52557 0.88454 0.46342 0.0
C78 C 0.64513 0.37392 0.74897 0.0
O79 O 0.66349 0.33801 0.73664 0.0
O80 O 0.69596 0.36696 0.64992 0.0
Zn81 Zn 0.71442 0.44278 0.69513 0.0
O82 O 0.70629 0.51534 0.66553 0.0
C83 C 0.81979 0.46883 0.75242 0.0
O84 O 0.84015 0.48579 0.71535 0.0
O85 O 0.66072 0.42092 0.73481 0.0
C86 C 0.67471 0.51705 0.63202 0.0
O87 O 0.64496 0.47053 0.60798 0.0
C88 C 0.7206 0.33656 0.64763 0.0
O89 O 0.76496 0.35582 0.6695 0.0
O90 O 0.77386 0.45329 0.74951 0.0
C91 C 0.16669 0.43355 0.96316 0.0
O92 O 0.17932 0.47171 0.99935 0.0
O93 O 0.0833 0.30036 0.03768 0.0
Zn94 Zn 0.08119 0.37444 1.0077 0.0
O95 O 0.10074 0.4492 0.0526 0.0
C96 C 0.97564 0.34855 0.94626 0.0
O97 O 0.95032 0.30288 0.96193 0.0
O98 O 0.12988 0.38962 0.96195 0.0
C99 C 0.09995 0.49013 0.03171 0.0
O100 O 0.08686 0.48207 0.98592 0.0
C101 C 0.12316 0.29698 0.05526 0.0
O102 O 0.16271 0.34088 0.05798 0.0
O103 O 1.02054 0.37278 0.96199 0.0
C104 C 0.46807 0.12773 0.34655 0.0
O105 O 0.5086 0.13802 0.32927 0.0
O106 O 0.56493 0.09789 0.39116 0.0
Zn107 Zn 0.52225 0.1174 0.43144 0.0
O108 O 0.56064 0.18978 0.4695 0.0
C109 C 0.46057 1.02374 0.47556 0.0
O110 O 0.44767 1.00117 0.51364 0.0
O111 O 0.46639 0.11973 0.38943 0.0
C112 C 0.60589 0.20338 0.47633 0.0
O113 O 0.62811 0.20103 0.43986 0.0
C114 C 0.58608 0.06459 0.39069 0.0
O115 O 0.58006 1.03032 0.42225 0.0
O116 O 0.49695 0.06837 0.48 0.0
C117 C 0.4466 0.30402 0.614 0.0
O118 O 0.46426 0.35703 0.62746 0.0
O119 O 0.37004 0.36249 0.65388 0.0
Zn120 Zn 0.35953 0.31797 0.58365 0.0
O121 O 0.37082 0.35179 0.51515 0.0
C122 C 0.26746 0.25057 0.61164 0.0
O123 O 0.27518 0.29546 0.63948 0.0
O124 O 0.40452 0.28088 0.59159 0.0
C125 C 0.384 0.32964 0.47996 0.0
O126 O 0.39129 0.28447 0.48515 0.0
C127 C 0.37396 0.33683 0.6897 0.0
O128 O 0.37363 0.28732 0.68139 0.0
O129 O 0.29523 0.2518 0.58086 0.0
C130 C 0.29261 0.10853 0.82721 0.0
O131 O 0.2841 0.14386 0.80177 0.0
O132 O 0.1712 0.12391 0.84315 0.0
Zn133 Zn 0.2337 0.13758 0.88415 0.0
O134 O 0.22319 0.12858 0.95064 0.0
C135 C 0.27131 0.24911 0.85826 0.0
O136 O 0.22793 0.23897 0.83668 0.0
O137 O 0.26977 0.09388 0.86175 0.0
C138 C 0.20482 0.16089 0.96657 0.0
O139 O 0.19656 0.19513 0.93962 0.0
C140 C 0.12862 0.10807 0.85355 0.0
O141 O 0.11985 0.09356 0.89528 0.0
O142 O 0.27946 0.21397 0.88153 0.0
C143 C 0.39776 0.12198 0.08642 0.0
O144 O 0.43368 0.11882 0.11421 0.0
O145 O 0.36954 0.96548 0.08772 0.0
Zn146 Zn 0.39263 1.01834 0.04214 0.0
O147 O 0.37648 0.98317 0.97589 0.0
C148 C 0.49468 0.0747 0.03936 0.0
O149 O 0.48249 0.09992 1.00578 0.0
O150 O 0.37487 0.08368 0.05301 0.0
C151 C 0.35373 0.93204 0.96477 0.0
O152 O 0.33256 0.90148 0.99603 0.0
C153 C 0.39828 0.94116 0.09527 0.0
O154 O 0.41433 0.92387 0.05909 0.0
O155 O 0.46279 0.04103 0.05877 0.0
C156 C 0.32831 0.48761 0.05619 0.0
O157 O 0.31246 0.44725 0.02153 0.0
O158 O 0.38267 0.39761 0.15941 0.0
Zn159 Zn 0.39516 0.43749 0.09234 0.0
O160 O 0.385 0.39834 0.01884 0.0
C161 C 0.49389 0.49338 0.07187 0.0
O162 O 0.48456 0.44787 0.04419 0.0
O163 O 0.35852 0.48767 0.09044 0.0
C164 C 0.39308 0.42893 0.98497 0.0
O165 O 0.40569 0.48185 0.99605 0.0
C166 C 0.37253 0.4197 0.19683 0.0
O167 O 0.36812 0.46687 0.19431 0.0
O168 O 0.46393 0.49593 0.09914 0.0
C169 C 0.88097 0.12512 0.10448 0.0
O170 O 0.84462 0.12809 0.07717 0.0
O171 O 0.88893 0.25161 0.21852 0.0
Zn172 Zn 0.86618 0.20765 0.15582 0.0
O173 O 0.86445 0.25257 0.10303 0.0
C174 C 0.76991 0.17755 0.16966 0.0
O175 O 0.78645 0.22389 0.19777 0.0
O176 O 0.89923 0.15809 0.14209 0.0
C177 C 0.84047 0.28316 0.10159 0.0
O178 O 0.82177 0.29302 0.13865 0.0
C179 C 0.90548 0.30348 0.22385 0.0
O180 O 0.91549 0.33046 0.18743 0.0
O181 O 0.79857 0.15908 0.1529 0.0
C182 C 0.40805 0.69565 0.28614 0.0
O183 O 0.4199 0.74771 0.30087 0.0
O184 O 0.2627 0.64869 0.20494 0.0
Zn185 Zn 0.31737 0.70045 0.25098 0.0
O186 O 0.29111 0.71487 0.30987 0.0
C187 C 0.36635 0.81627 0.23173 0.0
O188 O 0.38102 0.85058 0.2009 0.0
O189 O 0.3664 0.66807 0.26377 0.0
C190 C 0.27777 0.67686 0.33593 0.0
O191 O 0.28658 0.63248 0.32681 0.0
C192 C 0.22013 0.64431 0.20902 0.0
O193 O 0.21146 0.66632 0.24766 0.0
O194 O 0.34413 0.76584 0.21714 0.0
C195 C 0.83423 0.97872 0.55664 0.0
O196 O 0.81734 0.93788 0.52237 0.0
O197 O 0.8891 0.8924 0.65881 0.0
Zn198 Zn 0.9035 0.93066 0.59042 0.0
O199 O 0.89353 0.89508 0.51497 0.0
C200 C 1.00283 0.99532 0.56994 0.0
O201 O 0.99448 0.95824 0.53371 0.0
O202 O 0.86691 0.98052 0.58904 0.0
C203 C 0.90135 0.92875 0.4833 0.0
O204 O 0.91298 0.98078 0.49803 0.0
C205 C 0.88139 0.9173 0.69632 0.0
O206 O 0.88076 0.96618 0.69323 0.0
O207 O 0.97279 0.9883 0.59938 0.0
C208 C 0.95208 0.10664 0.32221 0.0
O209 O 0.98039 0.09902 0.35638 0.0
O210 O 1.05116 0.13039 0.21314 0.0
Zn211 Zn 1.01976 0.09143 0.2653 0.0
O212 O 1.06725 0.10282 0.32153 0.0
C213 C 0.98291 0.97177 0.26643 0.0
O214 O 0.98796 0.92591 0.25342 0.0
O215 O 0.962 0.10574 0.28037 0.0
C216 C 0.10002 0.08437 0.3171 0.0
O217 O 0.10685 0.06863 0.27494 0.0
C218 C 0.09419 0.16432 0.21436 0.0
O219 O 0.12209 0.1849 0.2549 0.0
O220 O 1.00225 1.01245 0.24466 0.0
C221 C 0.397 0.64592 0.58204 0.0
O222 O 0.40622 0.64993 0.62797 0.0
O223 O 0.39253 0.74319 0.71364 0.0
Zn224 Zn 0.3689 0.70234 0.64946 0.0
O225 O 0.36643 0.75001 0.5992 0.0
C226 C 0.27375 0.67564 0.66062 0.0
O227 O 0.29179 0.72245 0.68808 0.0
O228 O 0.40414 0.65222 0.62695 0.0
C229 C 0.34535 0.78352 0.59795 0.0
O230 O 0.32956 0.79761 0.63561 0.0
C231 C 0.40971 0.79508 0.71979 0.0
O232 O 0.42129 0.82266 0.68396 0.0
O233 O 0.30115 0.65392 0.6457 0.0
C234 C 0.45308 0.59791 0.82687 0.0
O235 O 0.48513 0.59692 0.86092 0.0
O236 O 0.53725 0.61671 0.70678 0.0
Zn237 Zn 0.51857 0.58385 0.76535 0.0
O238 O 0.57687 0.61662 0.81344 0.0
C239 C 0.48825 0.46451 0.77651 0.0
O240 O 0.49282 0.41794 0.76544 0.0
O241 O 0.46021 0.59329 0.78432 0.0
C242 C 0.61376 0.60914 0.80209 0.0
O243 O 0.61137 0.58432 0.75999 0.0
C244 C 0.57283 0.6617 0.70758 0.0
O245 O 0.59243 0.69364 0.74753 0.0
O246 O 0.50915 0.50461 0.75462 0.0
C247 C 0.92033 0.20258 0.80225 0.0
O248 O 0.92621 0.25051 0.82406 0.0
O249 O 0.77383 0.14896 0.7169 0.0
Zn250 Zn 0.8296 0.20385 0.76077 0.0
O251 O 0.8053 0.21858 0.82092 0.0
C252 C 0.86339 0.31841 0.73728 0.0
O253 O 0.87263 0.35269 0.7057 0.0
O254 O 0.88262 0.17671 0.77285 0.0
C255 C 0.79354 0.18185 0.84836 0.0
O256 O 0.80366 0.13814 0.84068 0.0
C257 C 0.73263 0.14936 0.72128 0.0
O258 O 0.72663 0.17399 0.75998 0.0
O259 O 0.84875 0.2676 0.72387 0.0
C260 C 0.90269 0.74561 0.12422 0.0
O261 O 0.88816 0.75957 0.16278 0.0
O262 O 0.87723 0.85544 0.15585 0.0
Zn263 Zn 0.85741 0.81273 0.08438 0.0
O264 O 0.87192 0.84928 0.01657 0.0
C265 C 0.76884 0.72907 0.11451 0.0
O266 O 0.79409 0.73806 0.15635 0.0
O267 O 0.89493 0.76485 0.08649 0.0
C268 C 0.88559 0.82795 0.98115 0.0
O269 O 0.89238 0.78237 0.98565 0.0
C270 C 0.84787 0.85936 0.18403 0.0
O271 O 0.80316 0.84877 0.16618 0.0
O272 O 0.78718 0.75594 0.08122 0.0
C273 C 0.96501 0.62118 0.84473 0.0
O274 O 1.00567 0.63283 0.82747 0.0
O275 O 1.06184 0.59601 0.89121 0.0
Zn276 Zn 1.02236 0.62058 0.93107 0.0
O277 O 1.05985 0.70095 0.95254 0.0
C278 C 0.96509 0.5304 0.97979 0.0
O279 O 0.95215 0.50949 0.01851 0.0
O280 O 0.96405 0.61484 0.88802 0.0
C281 C 0.09739 0.72442 0.9827 0.0
O282 O 0.11956 0.77782 0.98626 0.0
C283 C 0.09578 0.57883 0.89277 0.0
O284 O 0.11472 0.56963 0.93271 0.0
O285 O 0.99967 0.57674 0.98345 0.0
C286 C 0.86657 0.59148 0.6142 0.0
O287 O 0.87804 0.56148 0.64367 0.0
O288 O 0.8847 0.469 0.5968 0.0
Zn289 Zn 0.895 0.52505 0.55261 0.0
O290 O 0.87883 0.49043 0.48527 0.0
C291 C 0.99611 0.5699 0.54034 0.0
O292 O 0.98212 0.55853 0.49468 0.0
O293 O 0.868 0.58176 0.57047 0.0
C294 C 0.85813 0.43886 0.47446 0.0
O295 O 0.84029 0.40773 0.50669 0.0
C296 C 0.91681 0.44869 0.5987 0.0
O297 O 0.9356 0.44302 0.56046 0.0
O298 O 0.96561 0.56237 0.56852 0.0
C299 C 0.85789 0.67082 0.38202 0.0
O300 O 0.83854 0.69447 0.35218 0.0
O301 O 0.73141 0.63308 0.37829 0.0
Zn302 Zn 0.78499 0.68078 0.42731 0.0
O303 O 0.76359 0.67344 0.48966 0.0
C304 C 0.77994 0.7701 0.37645 0.0
O305 O 0.73921 0.73404 0.35379 0.0
O306 O 0.84108 0.66064 0.4205 0.0
C307 C 0.72786 0.6872 0.49052 0.0
O308 O 0.71439 0.70888 0.45489 0.0
C309 C 0.68691 0.60632 0.37903 0.0
O310 O 0.67008 0.59802 0.41921 0.0
O311 O 0.80237 0.75714 0.41044 0.0
Tb312 Tb 0.20395 0.19287 0.11545 0.0
Tb313 Tb 0.09758 0.11565 0.06271 0.0
C314 C 0.11495 0.16688 0.17035 0.0
C315 C 0.32997 0.23193 0.12252 0.0
C316 C 0.38004 0.16581 0.0972 0.0
C317 C 0.39061 0.19468 0.14275 0.0
C318 C 0.36558 0.22754 0.15524 0.0
C319 C 0.32401 0.20857 0.0755 0.0
C320 C 0.34845 0.1754 0.06308 0.0
C321 C 0.29209 0.24836 0.1389 0.0
O322 O 0.19612 0.11225 0.1376 0.0
O323 O 0.1378 0.06146 0.07666 0.0
O324 O 0.13923 0.14787 1.00824 0.0
O325 O 0.20847 0.15127 0.04892 0.0
O326 O 1.04468 0.03599 0.05482 0.0
O327 O 1.03659 0.09538 1.01167 0.0
O328 O 0.09222 0.1971 0.0643 0.0
O329 O 0.17296 0.24932 0.08546 0.0
O330 O 0.1603 0.19816 0.16975 0.0
O331 O 0.08746 0.13165 0.13456 0.0
C332 C 0.17015 0.06448 0.11287 0.0
O333 O 0.26547 0.26004 0.10629 0.0
O334 O 0.26584 0.21608 0.16609 0.0
C335 C 0.18354 0.15262 1.0096 0.0
C336 C 0.96996 0.04503 0.04598 0.0
C337 C 0.90674 0.08474 0.08825 0.0
C338 C 0.90358 0.07607 0.03606 0.0
C339 C 0.93561 0.05694 0.0171 0.0
C340 C 0.96813 0.04229 0.09472 0.0
C341 C 0.93923 0.06163 0.11907 0.0
C342 C 1.01464 0.04931 0.02772 0.0
C343 C 0.12873 0.24504 0.06969 0.0
H344 H 0.41557 0.18888 0.16958 0.0
H345 H 0.37151 0.24648 0.19111 0.0
H346 H 0.29785 0.21244 0.04886 0.0
H347 H 0.3406 0.15492 0.02734 0.0
H348 H 0.88096 0.08996 0.01305 0.0
H349 H 0.93725 0.0573 0.97978 0.0
H350 H 0.99304 1.02968 0.11583 0.0
H351 H 0.9204 0.07634 0.10928 0.0
Tb352 Tb 0.35326 0.88578 0.37255 0.0
Tb353 Tb 0.44817 0.94985 0.33014 0.0
C354 C 0.34504 0.95283 0.28873 0.0
C355 C 0.29884 0.81827 0.46303 0.0
C356 C 0.3316 0.79867 0.55221 0.0
C357 C 0.302 0.8288 0.54798 0.0
C358 C 0.2857 0.83853 0.50357 0.0
C359 C 0.32867 0.78847 0.4676 0.0
C360 C 0.34473 0.77872 0.51157 0.0
C361 C 0.28847 0.83517 0.41706 0.0
O362 O 0.34157 0.84544 0.30123 0.0
O363 O 0.42052 0.86466 0.3001 0.0
O364 O 0.47863 0.92214 0.39097 0.0
O365 O 0.40769 0.85265 0.3985 0.0
O366 O 0.50363 0.9457 0.29387 0.0
O367 O 0.49236 1.0213 0.30567 0.0
O368 O 0.45619 1.0069 0.39154 0.0
O369 O 0.39896 0.94801 0.42904 0.0
O370 O 0.32654 0.93393 0.32632 0.0
O371 O 0.3889 0.95725 0.28322 0.0
C372 C 0.3758 0.83769 0.28158 0.0
O373 O 0.3025 0.88804 0.41662 0.0
O374 O 0.30033 0.81165 0.38152 0.0
C375 C 0.45495 0.87815 0.41006 0.0
C376 C 0.49107 0.98744 0.22737 0.0
C377 C 0.43028 0.95693 0.14054 0.0
C378 C 0.45834 0.92708 0.15349 0.0
C379 C 0.48792 0.94165 0.19695 0.0
C380 C 0.46684 1.02049 0.21185 0.0
C381 C 0.43606 1.00479 0.16935 0.0
C382 C 0.50771 0.99188 0.27806 0.0
C383 C 0.43596 0.99361 0.42923 0.0
H384 H 0.29098 0.84429 0.5788 0.0
H385 H 0.26359 0.86255 0.50092 0.0
H386 H 0.34034 0.77298 0.43725 0.0
H387 H 0.36725 0.75512 0.5135 0.0
H388 H 0.45563 0.89097 0.1311 0.0
H389 H 0.50633 0.91549 0.2078 0.0
H390 H 0.4687 0.05634 0.23407 0.0
H391 H 0.41628 1.02987 0.15947 0.0
Tb392 Tb 0.61429 0.16315 0.6251 0.0
Tb393 Tb 0.7085 0.16953 0.57772 0.0
C394 C 0.69975 0.14363 0.67879 0.0
C395 C 0.51861 0.20129 0.65822 0.0
C396 C 0.47167 0.26959 0.63061 0.0
C397 C 0.44531 0.21364 0.63237 0.0
C398 C 0.46864 0.17981 0.64632 0.0
C399 C 0.54486 0.25764 0.65827 0.0
C400 C 0.52142 0.29173 0.64504 0.0
C401 C 0.54342 0.16365 0.66269 0.0
O402 O 0.65148 0.25107 0.62106 0.0
O403 O 0.72677 0.25035 0.61938 0.0
O404 O 0.67316 0.20576 0.52916 0.0
O405 O 0.59768 0.17103 0.55135 0.0
O406 O 0.78348 0.19353 0.58689 0.0
O407 O 0.74038 0.15184 0.52033 0.0
O408 O 0.65407 0.08668 0.55349 0.0
O409 O 0.60462 0.07683 0.61023 0.0
O410 O 0.67045 0.16921 0.6805 0.0
O411 O 0.70888 0.1267 0.63856 0.0
C412 C 0.69846 0.27722 0.62665 0.0
O413 O 0.53949 0.1326 0.62382 0.0
O414 O 0.58741 0.18486 0.68445 0.0
C415 C 0.62691 0.19489 0.52182 0.0
C416 C 0.80028 0.12139 0.54954 0.0
C417 C 0.82124 1.02676 0.55405 0.0
C418 C 0.81092 0.04305 0.51022 0.0
C419 C 0.80111 0.09042 0.50804 0.0
C420 C 0.81142 0.10538 0.59337 0.0
C421 C 0.8223 0.05886 0.59555 0.0
C422 C 0.78174 0.16548 0.54689 0.0
C423 C 0.6203 0.05538 0.57595 0.0
H424 H 0.40665 0.19573 0.62233 0.0
H425 H 0.44796 0.13643 0.64573 0.0
H426 H 0.58366 0.27509 0.66678 0.0
H427 H 0.54236 0.3348 0.64442 0.0
H428 H 0.81106 1.0196 0.4777 0.0
H429 H 0.79297 0.1022 0.47395 0.0
H430 H 0.81076 0.12799 0.62613 0.0
H431 H 0.83067 0.0474 0.62974 0.0
Tb432 Tb 0.42264 0.35665 0.85015 0.0
Tb433 Tb 0.35086 0.42128 0.82517 0.0
C434 C 0.31205 0.29782 0.85148 0.0
C435 C 0.53296 0.33545 0.83619 0.0
C436 C 0.60731 0.36027 0.77978 0.0
C437 C 0.59898 0.40227 0.8053 0.0
C438 C 0.56256 0.39013 0.83353 0.0
C439 C 0.54192 0.29322 0.81159 0.0
C440 C 0.57908 0.30551 0.78388 0.0
C441 C 0.48996 0.32261 0.86017 0.0
O442 O 0.40046 0.33934 0.7726 0.0
O443 O 0.35774 0.39296 0.75308 0.0
O444 O 0.41435 0.46594 0.79398 0.0
O445 O 0.45868 0.44399 0.84916 0.0
O446 O 0.28681 0.42462 0.79288 0.0
O447 O 0.33579 0.49079 0.84424 0.0
O448 O 0.38051 0.43995 0.90174 0.0
O449 O 0.3999 0.3673 0.91942 0.0
O450 O 0.3551 0.29735 0.86188 0.0
O451 O 0.30372 0.33855 0.83447 0.0
C452 C 0.37826 0.35888 0.74074 0.0
O453 O 0.4879 0.3627 0.88801 0.0
O454 O 0.44903 0.29547 0.83331 0.0
C455 C 0.45637 0.46707 0.81102 0.0
C456 C 0.25375 0.45888 0.85219 0.0
C457 C 0.19452 0.44221 0.92341 0.0
C458 C 0.19559 0.39732 0.89522 0.0
C459 C 0.22505 0.40553 0.8601 0.0
C460 C 0.2504 0.50378 0.87844 0.0
C461 C 0.22072 0.49543 0.91365 0.0
C462 C 0.29186 0.46714 0.82214 0.0
C463 C 0.38844 0.40881 0.93306 0.0
H464 H 0.62041 0.44465 0.80314 0.0
H465 H 0.55658 0.42377 0.85184 0.0
H466 H 0.51939 0.25078 0.81285 0.0
H467 H 0.5848 0.27222 0.76466 0.0
H468 H 0.17521 0.35584 0.90158 0.0
H469 H 0.22679 0.36989 0.8406 0.0
H470 H 0.27214 0.54518 0.87309 0.0
H471 H 0.21888 0.53059 0.93384 0.0
Tb472 Tb 0.11755 0.15408 0.63688 0.0
Tb473 Tb 0.15391 0.09033 0.55933 0.0
C474 C 1.04779 0.04411 0.57727 0.0
C475 C 0.07243 0.16851 0.74494 0.0
C476 C 0.09409 0.12233 0.82364 0.0
C477 C 0.07034 0.08849 0.78162 0.0
C478 C 1.05884 0.11143 0.7424 0.0
C479 C 0.088 0.20041 0.78909 0.0
C480 C 0.09873 0.17722 0.82853 0.0
C481 C 0.08911 0.1946 0.70348 0.0
O482 O 0.13889 0.09242 0.67525 0.0
O483 O 0.14937 0.03586 0.61673 0.0
O484 O 0.21919 0.15279 0.59864 0.0
O485 O 0.18665 0.21225 0.62602 0.0
O486 O 0.14943 1.01845 0.51901 0.0
O487 O 0.20257 0.09652 0.51088 0.0
O488 O 0.14054 0.1563 0.52159 0.0
O489 O 0.11076 0.20018 0.57461 0.0
O490 O 1.05924 0.07542 0.61729 0.0
O491 O 0.07588 0.05465 0.54456 0.0
C492 C 0.1434 0.04518 0.66118 0.0
O493 O 0.13432 0.20351 0.70148 0.0
O494 O 1.06208 0.17265 0.66284 0.0
C495 C 0.2228 0.20271 0.6122 0.0
C496 C 0.15787 0.04171 0.44233 0.0
C497 C 0.12031 0.06728 0.3584 0.0
C498 C 0.16897 0.07469 0.36618 0.0
C499 C 0.18789 0.06256 0.40845 0.0
C500 C 0.10833 1.02956 0.43198 0.0
C501 C 0.08987 0.04272 0.39064 0.0
C502 C 0.1786 0.04635 0.49164 0.0
C503 C 0.12569 0.19679 0.53279 0.0
H504 H 1.06652 0.04609 0.77725 0.0
H505 H 1.04643 0.08586 0.70873 0.0
H506 H 0.09877 0.24445 0.79179 0.0
H507 H 0.11725 0.20394 0.86086 0.0
H508 H 0.1927 0.09274 0.34104 0.0
H509 H 0.22628 0.07286 0.41604 0.0
H510 H 0.08416 1.01356 0.45727 0.0
H511 H 1.05185 1.03509 0.38451 0.0
Tb512 Tb 0.40289 0.9239 0.82404 0.0
Tb513 Tb 0.35996 0.80469 0.85751 0.0
C514 C 0.40393 0.82203 0.76337 0.0
C515 C 0.40834 0.05635 0.81004 0.0
C516 C 0.33371 0.09312 0.82109 0.0
C517 C 0.35037 0.09233 0.77733 0.0
C518 C 0.38727 0.07355 0.77173 0.0
C519 C 0.39467 0.06255 0.85472 0.0
C520 C 0.35742 0.08012 0.86003 0.0
C521 C 0.43299 1.01871 0.80146 0.0
O522 O 0.32299 0.90792 0.80794 0.0
O523 O 0.2949 0.81805 0.8204 0.0
O524 O 0.35171 0.85451 0.91605 0.0
O525 O 0.37991 0.93924 0.89022 0.0
O526 O 0.31107 0.72415 0.83615 0.0
O527 O 0.35064 0.74778 0.90637 0.0
O528 O 0.43995 0.82634 0.88261 0.0
O529 O 0.46964 0.9096 0.85486 0.0
O530 O 0.39973 0.86918 0.76321 0.0
O531 O 0.39617 0.7942 0.7991 0.0
C532 C 0.28551 0.861 0.80683 0.0
O533 O 0.4524 1.00551 0.8389 0.0
O534 O 0.40768 0.97564 0.77138 0.0
C535 C 0.3605 0.90683 0.92077 0.0
C536 C 0.34534 0.66425 0.86531 0.0
C537 C 0.40702 0.61143 0.83794 0.0
C538 C 0.41209 0.63579 0.88766 0.0
C539 C 0.38119 0.66119 0.89925 0.0
C540 C 0.33375 0.6338 0.82008 0.0
C541 C 0.3619 0.60748 0.80289 0.0
C542 C 0.32544 0.70688 0.87394 0.0
C543 C 0.47812 0.86986 0.87606 0.0
H544 H 0.33321 0.10336 0.747 0.0
H545 H 0.3969 0.06872 0.73688 0.0
H546 H 0.41019 0.05003 0.88518 0.0
H547 H 0.34641 0.0822 0.89457 0.0
H548 H 0.44146 0.63813 0.9138 0.0
H549 H 0.38799 0.68273 0.93446 0.0
H550 H 0.30389 0.63367 0.79571 0.0
H551 H 0.38745 0.60585 0.8157 0.0
Tb552 Tb 0.62125 0.0742 0.13356 0.0
Tb553 Tb 0.65394 0.15883 0.06063 0.0
C554 C 0.72133 0.15692 0.14544 0.0
C555 C 0.61757 1.03525 0.25402 0.0
C556 C 0.60838 0.05831 0.34846 0.0
C557 C 0.61102 1.00812 0.33267 0.0
C558 C 0.61531 0.99651 0.28529 0.0
C559 C 0.62228 0.08796 0.27164 0.0
C560 C 0.61787 0.09948 0.31853 0.0
C561 C 0.61005 1.01956 0.20286 0.0
O562 O 0.61978 0.15471 0.16721 0.0
O563 O 0.63217 0.2125 0.10986 0.0
O564 O 0.57709 0.13184 0.04613 0.0
O565 O 0.55512 0.05643 0.08655 0.0
O566 O 0.71258 0.21869 0.03863 0.0
O567 O 0.64369 0.18493 0.9944 0.0
O568 O 0.66254 0.08088 0.03182 0.0
O569 O 0.62096 1.0141 0.07441 0.0
O570 O 0.69771 0.10489 0.13488 0.0
O571 O 0.70596 0.18978 0.1241 0.0
C572 C 0.62208 0.20281 0.15298 0.0
O573 O 0.5761 1.02996 0.17893 0.0
O574 O 0.64867 1.03466 0.18294 0.0
C575 C 0.54485 0.08785 0.05761 0.0
C576 C 0.71256 0.20032 0.95739 0.0
C577 C 0.76388 0.18534 0.88502 0.0
C578 C 0.73033 0.21003 0.87759 0.0
C579 C 0.705 0.21768 0.91361 0.0
C580 C 0.74324 0.17167 0.96363 0.0
C581 C 0.76869 0.16417 0.92762 0.0
C582 C 0.68951 0.21348 0.99658 0.0
C583 C 0.64451 1.02784 0.03814 0.0
H584 H 0.60455 0.97595 0.35518 0.0
H585 H 0.61276 0.95593 0.27232 0.0
H586 H 0.62566 0.11897 0.24841 0.0
H587 H 0.61758 0.1392 0.33014 0.0
H588 H 0.72484 0.22518 0.84446 0.0
H589 H 0.68081 0.23887 0.90782 0.0
H590 H 0.74885 0.15673 0.99687 0.0
H591 H 0.79353 0.14389 0.93378 0.0
Tb592 Tb 0.35959 0.31183 0.31959 0.0
Tb593 Tb 0.39457 0.43315 0.35738 0.0
C594 C 0.37003 0.39864 0.24541 0.0
C595 C 0.35628 0.17505 0.29172 0.0
C596 C 0.42751 0.13559 0.3199 0.0
C597 C 0.38091 0.11033 0.33126 0.0
C598 C 0.34528 0.12964 0.31679 0.0
C599 C 0.4012 0.19579 0.27572 0.0
C600 C 0.43638 0.17555 0.28911 0.0
C601 C 0.32819 0.20959 0.29573 0.0
O602 O 0.43767 0.33059 0.30728 0.0
O603 O 0.4613 0.4216 0.33096 0.0
O604 O 0.38752 0.3977 0.42453 0.0
O605 O 0.38873 0.31669 0.39488 0.0
O606 O 0.45484 0.50491 0.3857 0.0
O607 O 0.38388 0.50574 0.37014 0.0
O608 O 0.31931 0.40747 0.38014 0.0
O609 O 0.2906 0.32304 0.33811 0.0
O610 O 0.36875 0.34962 0.25238 0.0
O611 O 0.36935 0.43175 0.2819 0.0
C612 C 0.47266 0.38022 0.31188 0.0
O613 O 0.33265 0.23239 0.33842 0.0
O614 O 0.33192 0.24475 0.26577 0.0
C615 C 0.3868 0.3492 0.43127 0.0
C616 C 0.44625 0.58329 0.35733 0.0
C617 C 0.43461 0.66514 0.3078 0.0
C618 C 0.43331 0.61668 0.28313 0.0
C619 C 0.43992 0.57614 0.30786 0.0
C620 C 0.45374 0.63441 0.38128 0.0
C621 C 0.44904 0.67571 0.35662 0.0
C622 C 0.42941 0.5352 0.38248 0.0
C623 C 0.28188 0.3603 0.36671 0.0
H624 H 0.37313 0.07869 0.35441 0.0
H625 H 0.31099 0.11323 0.32974 0.0
H626 H 0.41122 0.23148 0.25728 0.0
H627 H 0.47199 0.19547 0.27968 0.0
H628 H 0.4223 0.60788 0.24532 0.0
H629 H 0.43392 0.53686 0.28865 0.0
H630 H 0.45686 0.64033 0.41903 0.0
H631 H 0.44983 0.71258 0.37644 0.0
Tb632 Tb 0.6185 0.63484 0.13658 0.0
Tb633 Tb 0.64268 0.59065 0.04176 0.0
C634 C 0.54021 0.53941 0.07275 0.0
C635 C 0.62055 0.64367 0.25874 0.0
C636 C 0.6554 0.60499 0.33643 0.0
C637 C 0.61751 0.62329 0.33928 0.0
C638 C 0.59982 0.64231 0.30021 0.0
C639 C 0.65592 0.62181 0.25532 0.0
C640 C 0.67247 0.60167 0.2934 0.0
C641 C 0.60434 0.66356 0.2169 0.0
O642 O 0.62096 0.55439 0.15494 0.0
O643 O 0.66239 0.54199 0.0964 0.0
O644 O 0.69945 0.66973 0.06255 0.0
O645 O 0.69722 0.66412 0.14022 0.0
O646 O 0.6211 0.54739 0.97429 0.0
O647 O 0.69576 0.57756 1.0066 0.0
O648 O 0.62296 0.66111 0.0179 0.0
O649 O 0.61609 0.69889 0.09009 0.0
O650 O 0.54884 0.5871 0.09604 0.0
O651 O 0.5735 0.53059 0.05198 0.0
C652 C 0.64386 0.52614 0.1357 0.0
O653 O 0.63872 0.69457 0.19577 0.0
O654 O 0.57161 0.6252 0.18722 0.0
C655 C 0.71975 0.68661 0.10579 0.0
C656 C 0.6783 0.58305 0.926 0.0
C657 C 0.65077 0.6111 0.83996 0.0
C658 C 0.6644 0.56602 0.84112 0.0
C659 C 0.67692 0.55102 0.88447 0.0
C660 C 0.67583 0.63462 0.9238 0.0
C661 C 0.66085 0.6481 0.88079 0.0
C662 C 0.66543 0.55645 0.96785 0.0
C663 C 0.61857 0.70255 0.04418 0.0
H664 H 0.60428 0.62693 0.37245 0.0
H665 H 0.57156 0.65773 0.3029 0.0
H666 H 0.67234 0.62226 0.22363 0.0
H667 H 0.70188 0.58816 0.29048 0.0
H668 H 0.65841 0.53809 0.8095 0.0
H669 H 0.67941 0.51141 0.88562 0.0
H670 H 0.67824 0.66053 0.9557 0.0
H671 H 0.65148 0.68374 0.88038 0.0
Tb672 Tb 0.90245 0.43099 0.33106 0.0
Tb673 Tb 0.85869 0.31148 0.36258 0.0
C674 C 0.90142 0.33081 0.26793 0.0
C675 C 0.9339 0.57621 0.33307 0.0
C676 C 0.8912 0.64637 0.3669 0.0
C677 C 0.89814 0.6426 0.31932 0.0
C678 C 0.9191 0.60734 0.30246 0.0
C679 C 0.93182 0.58481 0.38154 0.0
C680 C 0.91067 0.61965 0.39832 0.0
C681 C 0.94202 0.528 0.31375 0.0
O682 O 0.82234 0.41497 0.31262 0.0
O683 O 0.79412 0.32497 0.32483 0.0
O684 O 0.85214 0.36119 0.42263 0.0
O685 O 0.8821 0.4469 0.39866 0.0
O686 O 0.80836 0.23207 0.33933 0.0
O687 O 0.84901 0.25178 0.40894 0.0
O688 O 0.93798 0.33018 0.38774 0.0
O689 O 0.96803 0.41279 0.35956 0.0
O690 O 0.8969 0.37779 0.26846 0.0
O691 O 0.89563 0.3034 0.30403 0.0
C692 C 0.78475 0.36763 0.3106 0.0
O693 O 0.96174 0.50582 0.34404 0.0
O694 O 0.90531 0.49116 0.28649 0.0
C695 C 0.86292 0.41406 0.42906 0.0
C696 C 0.84344 0.17077 0.36328 0.0
C697 C 0.90629 0.12094 0.33291 0.0
C698 C 0.90886 0.13964 0.38376 0.0
C699 C 0.87748 0.16369 0.3968 0.0
C700 C 0.83438 0.14598 0.31605 0.0
C701 C 0.86332 0.12164 0.29741 0.0
C702 C 0.82342 0.21256 0.37527 0.0
C703 C 0.97633 0.37297 0.38072 0.0
H704 H 0.88399 0.66335 0.29435 0.0
H705 H 0.92017 0.60109 0.26503 0.0
H706 H 0.94303 0.56147 0.4061 0.0
H707 H 0.90655 0.62251 0.4353 0.0
H708 H 0.93669 0.13861 0.41012 0.0
H709 H 0.88245 0.18101 0.43326 0.0
H710 H 0.80598 0.1489 0.29156 0.0
H711 H 0.88806 0.11818 0.31028 0.0
Tb712 Tb 0.12636 0.57801 0.63397 0.0
Tb713 Tb 0.15416 0.66049 0.5583 0.0
C714 C 0.22491 0.65616 0.63715 0.0
C715 C 0.12148 0.54197 0.75461 0.0
C716 C 0.11278 0.57028 0.84807 0.0
C717 C 0.12471 0.52494 0.83654 0.0
C718 C 0.12911 0.51082 0.78969 0.0
C719 C 0.11335 0.58943 0.76712 0.0
C720 C 0.1093 0.60363 0.8134 0.0
C721 C 0.12448 0.52748 0.70531 0.0
O722 O 0.1262 0.65871 0.66775 0.0
O723 O 0.12949 0.71165 0.6074 0.0
O724 O 0.07894 0.61345 0.53453 0.0
O725 O 1.05704 0.57393 0.60157 0.0
O726 O 0.21412 0.71538 0.53419 0.0
O727 O 0.14312 0.69419 0.49596 0.0
O728 O 0.16502 0.58414 0.53024 0.0
O729 O 0.12206 0.518 0.57292 0.0
O730 O 0.20057 0.60465 0.62477 0.0
O731 O 0.20707 0.68995 0.62133 0.0
C732 C 0.12412 0.70444 0.65209 0.0
O733 O 0.08667 0.51888 0.67454 0.0
O734 O 0.16343 0.55987 0.69153 0.0
C735 C 1.04647 0.58672 0.55973 0.0
C736 C 0.20635 0.6995 0.45191 0.0
C737 C 0.25041 0.68119 0.37446 0.0
C738 C 0.21895 0.70904 0.3706 0.0
C739 C 0.19718 0.71835 0.40921 0.0
C740 C 0.23446 0.66747 0.4543 0.0
C741 C 0.25626 0.65837 0.41585 0.0
C742 C 0.18925 0.71575 0.49454 0.0
C743 C 0.14572 0.53125 0.53655 0.0
H744 H 0.12743 0.49865 0.86279 0.0
H745 H 0.13675 0.47479 0.78061 0.0
H746 H 0.10837 0.61453 0.74083 0.0
H747 H 0.10087 0.63933 0.8216 0.0
H748 H 0.21279 0.72562 0.33839 0.0
H749 H 0.17502 0.74231 0.40637 0.0
H750 H 0.24137 0.65137 0.48655 0.0
H751 H 0.27953 0.63576 0.41933 0.0
Tb752 Tb 0.91516 0.86018 0.33587 0.0
Tb753 Tb 0.8521 0.93619 0.33104 0.0
C754 C 0.80919 0.81348 0.35195 0.0
C755 C 1.01245 0.82319 0.30411 0.0
C756 C 0.08062 0.8557 0.24131 0.0
C757 C 0.09113 0.88195 0.28781 0.0
C758 C 1.0575 0.86578 0.3189 0.0
C759 C 1.00293 0.79509 0.25836 0.0
C760 C 1.03662 0.81128 0.22719 0.0
C761 C 0.97357 0.81346 0.33364 0.0
O762 O 0.89838 0.86446 0.25916 0.0
O763 O 0.83302 0.88815 0.26109 0.0
O764 O 0.91322 0.97682 0.29415 0.0
O765 O 0.95912 0.9464 0.3401 0.0
O766 O 0.79094 0.94831 0.30222 0.0
O767 O 0.84171 1.00662 0.35783 0.0
O768 O 0.8913 0.95075 0.40335 0.0
O769 O 0.90038 0.86965 0.41008 0.0
O770 O 0.84223 0.8034 0.33182 0.0
O771 O 0.8108 0.86327 0.36153 0.0
C772 C 0.86128 0.87219 0.23702 0.0
O773 O 0.97891 0.85377 0.36557 0.0
O774 O 0.92981 0.79223 0.31115 0.0
C775 C 0.95515 0.97388 0.30536 0.0
C776 C 0.75935 0.97926 0.36379 0.0
C777 C 0.68979 0.95951 0.42506 0.0
C778 C 0.70023 0.91632 0.40474 0.0
C779 C 0.73433 0.92604 0.37425 0.0
C780 C 0.74854 1.02258 0.38329 0.0
C781 C 0.7136 1.0127 0.41351 0.0
C782 C 0.79819 0.98863 0.33477 0.0
C783 C 0.8962 0.91405 0.43009 0.0
H784 H 0.12497 0.91588 0.30003 0.0
H785 H 1.06615 0.88818 0.35395 0.0
H786 H 0.96868 0.76194 0.24605 0.0
H787 H 1.02778 0.78962 0.19184 0.0
H788 H 0.68208 0.8748 0.41231 0.0
H789 H 0.74116 0.89159 0.35906 0.0
H790 H 0.76742 0.06389 0.3757 0.0
H791 H 0.70587 0.04678 0.4284 0.0
Tb792 Tb 0.85439 0.39194 0.87822 0.0
Tb793 Tb 0.95053 0.44963 0.83502 0.0
C794 C 0.8497 0.45875 0.7935 0.0
C795 C 0.7982 0.32638 0.96878 0.0
C796 C 0.82813 0.30105 0.05667 0.0
C797 C 0.79823 0.33096 0.05329 0.0
C798 C 0.78335 0.34354 1.00952 0.0
C799 C 0.82855 0.29712 0.97258 0.0
C800 C 0.84321 0.28451 0.0159 0.0
C801 C 0.7887 0.34546 0.92361 0.0
O802 O 0.84072 0.35142 0.8066 0.0
O803 O 0.91854 0.36431 0.80524 0.0
O804 O 0.9769 0.41882 0.89593 0.0
O805 O 0.90402 0.35164 0.90084 0.0
O806 O 1.00649 0.43995 0.80263 0.0
O807 O 0.99736 0.51715 0.80817 0.0
O808 O 0.96112 0.50902 0.89578 0.0
O809 O 0.90318 0.45304 0.93438 0.0
O810 O 0.83127 0.44249 0.83185 0.0
O811 O 0.89268 0.45979 0.78751 0.0
C812 C 0.87349 0.34018 0.78697 0.0
O813 O 0.80639 0.39859 0.92414 0.0
O814 O 0.79778 0.32064 0.88702 0.0
C815 C 0.95124 0.37403 0.91275 0.0
C816 C 1.00245 0.48062 0.7331 0.0
C817 C 0.94811 0.45951 0.64367 0.0
C818 C 0.9632 0.41956 0.66043 0.0
C819 C 0.9899 0.42983 0.70526 0.0
C820 C 0.99236 0.52255 0.71335 0.0
C821 C 0.96491 0.51182 0.66932 0.0
C822 C 1.014 0.48563 0.78468 0.0
C823 C 0.94096 0.49778 0.93385 0.0
H824 H 0.78587 0.34406 0.08428 0.0
H825 H 0.76091 0.36722 1.00756 0.0
H826 H 0.84121 0.28367 0.94204 0.0
H827 H 0.86591 0.26111 0.01717 0.0
H828 H 0.952 0.3796 0.64018 0.0
H829 H 0.99775 0.39683 0.71927 0.0
H830 H 1.00238 0.56243 0.73343 0.0
H831 H 0.95595 0.54429 0.65588 0.0
Tb832 Tb 0.86384 0.8122 0.82155 0.0
Tb833 Tb 0.89895 0.93271 0.85841 0.0
C834 C 0.8773 0.89735 0.74553 0.0
C835 C 0.85528 0.67222 0.79378 0.0
C836 C 0.92405 0.62839 0.81824 0.0
C837 C 0.87843 0.60617 0.83246 0.0
C838 C 0.84399 0.62775 0.81992 0.0
C839 C 0.89813 0.68881 0.77383 0.0
C840 C 0.93222 0.66646 0.78562 0.0
C841 C 0.83014 0.70954 0.79954 0.0
O842 O 0.94138 0.83045 0.80744 0.0
O843 O 0.96595 0.921 0.83346 0.0
O844 O 0.88852 0.89624 0.92534 0.0
O845 O 0.8939 0.81756 0.89658 0.0
O846 O 0.95942 1.00209 0.8909 0.0
O847 O 0.89058 1.00677 0.8692 0.0
O848 O 0.82288 0.9091 0.87897 0.0
O849 O 0.79478 0.82375 0.83904 0.0
O850 O 0.87331 0.84762 0.75331 0.0
O851 O 0.87818 0.93222 0.78162 0.0
C852 C 0.97681 0.87991 0.81317 0.0
O853 O 0.83774 0.73358 0.84228 0.0
O854 O 0.83396 0.74435 0.7693 0.0
C855 C 0.88957 0.8486 0.93268 0.0
C856 C 0.95726 0.0844 0.86465 0.0
C857 C 0.94753 0.17114 0.82155 0.0
C858 C 0.94715 0.12492 0.79382 0.0
C859 C 0.95238 0.08171 0.81537 0.0
C860 C 0.96648 0.13425 0.89198 0.0
C861 C 0.962 0.17786 0.87042 0.0
C862 C 0.93573 1.03408 0.88587 0.0
C863 C 0.78562 0.86165 0.86624 0.0
H864 H 0.87104 0.57586 0.85686 0.0
H865 H 0.81095 0.6142 0.83532 0.0
H866 H 0.90747 0.72279 0.75316 0.0
H867 H 0.96691 0.68366 0.7736 0.0
H868 H 0.93707 0.11938 0.75593 0.0
H869 H 0.94571 0.04361 0.79372 0.0
H870 H 0.97062 0.1371 0.9301 0.0
H871 H 0.96318 0.21342 0.89258 0.0
Tb872 Tb 0.69817 0.69797 0.63094 0.0
Tb873 Tb 0.60224 0.62271 0.56277 0.0
C874 C 0.5997 0.6678 0.66771 0.0
C875 C 0.81392 0.71227 0.66395 0.0
C876 C 0.85045 0.63422 0.63208 0.0
C877 C 0.82249 0.6249 0.66868 0.0
C878 C 0.80356 0.66278 0.68364 0.0
C879 C 0.8449 0.72318 0.62947 0.0
C880 C 0.86238 0.68403 0.61309 0.0
C881 C 0.78235 0.74321 0.66917 0.0
O882 O 0.68639 0.6149 0.64963 0.0
O883 O 0.64184 0.56852 0.57973 0.0
O884 O 0.65299 0.66582 0.51848 0.0
O885 O 0.71461 0.66363 0.56769 0.0
O886 O 0.5402 0.5507 0.55425 0.0
O887 O 0.55872 0.5977 0.49652 0.0
O888 O 0.59465 0.70348 0.5653 0.0
O889 O 0.67287 0.75719 0.59731 0.0
O890 O 0.64437 0.70308 0.67301 0.0
O891 O 0.58009 0.63078 0.63089 0.0
C892 C 0.66831 0.56951 0.61994 0.0
O893 O 0.76738 0.75723 0.62983 0.0
O894 O 0.74722 0.72259 0.69377 0.0
C895 C 0.69772 0.67213 0.52702 0.0
C896 C 0.47994 0.57267 0.51531 0.0
C897 C 0.41877 0.61632 0.55365 0.0
C898 C 0.44899 0.64476 0.52295 0.0
C899 C 0.48032 0.62375 0.50493 0.0
C900 C 0.44459 0.54089 0.54074 0.0
C901 C 0.41487 0.56325 0.56092 0.0
C902 C 0.52415 0.56201 0.51425 0.0
C903 C 0.63002 0.75241 0.57603 0.0
H904 H 0.81299 0.58687 0.68405 0.0
H905 H 0.77863 0.6516 0.70902 0.0
H906 H 0.85277 0.76021 0.61279 0.0
H907 H 0.88452 0.69227 0.58513 0.0
H908 H 0.45211 0.68575 0.51697 0.0
H909 H 0.50788 0.6501 0.48672 0.0
H910 H 0.44384 0.50165 0.54968 0.0
H911 H 0.39105 0.54065 0.58431 0.0
Tb912 Tb 0.09738 0.63948 0.10796 0.0
Tb913 Tb 0.19769 0.66776 0.06711 0.0
C914 C 0.18658 0.63399 0.16619 0.0
C915 C 0.98299 0.6435 0.12972 0.0
C916 C 0.92858 0.70863 0.12508 0.0
C917 C 0.9285 0.67842 0.16317 0.0
C918 C 0.95573 0.64611 0.16548 0.0
C919 C 0.98198 0.67225 0.09091 0.0
C920 C 0.95467 0.70435 0.08845 0.0
C921 C 1.01707 0.61681 0.13581 0.0
O922 O 0.12932 0.72992 0.11841 0.0
O923 O 0.20826 0.74329 0.11316 0.0
O924 O 0.16253 0.71121 0.02679 0.0
O925 O 0.08561 0.65638 0.03534 0.0
O926 O 0.27312 0.69952 0.07888 0.0
O927 O 0.23415 0.65677 1.01106 0.0
O928 O 0.14584 0.58719 0.03315 0.0
O929 O 0.10436 0.56041 0.09393 0.0
O930 O 0.15092 0.65013 0.16739 0.0
O931 O 0.19969 0.62263 0.12622 0.0
C932 C 0.17548 0.7622 0.12437 0.0
O933 O 1.02337 0.59241 0.09744 0.0
O934 O 1.05769 0.64697 0.16175 0.0
C935 C 0.11595 0.69397 0.01445 0.0
C936 C 0.29603 0.63105 0.04406 0.0
C937 C 0.31727 0.53686 0.05209 0.0
C938 C 0.30943 0.55314 1.00762 0.0
C939 C 0.29923 0.60009 1.00365 0.0
C940 C 0.30618 0.616 0.08868 0.0
C941 C 0.31704 0.56964 0.09261 0.0
C942 C 0.27475 0.67277 0.03947 0.0
C943 C 0.11941 0.5477 0.05538 0.0
H944 H 0.90817 0.68052 0.19161 0.0
H945 H 0.95684 0.62462 0.19581 0.0
H946 H 1.00353 0.67137 0.06328 0.0
H947 H 0.95532 0.72719 0.0587 0.0
H948 H 0.3113 0.52959 0.97593 0.0
H949 H 0.29204 0.61106 0.96895 0.0
H950 H 0.3041 0.63883 0.12069 0.0
H951 H 0.32389 0.55854 0.12734 0.0
loop_
_geom_bond_atom_site_label_1
_geom_bond_atom_site_label_2
_geom_bond_distance
_geom_bond_site_symmetry_2
_ccdc_geom_bond_type
C0 O1 1.160 . S
C0 O7 1.185 . S
O1 C0 1.160 . S
O2 Zn3 1.899 . S
O2 C10 1.284 . S
Zn3 O2 1.899 . S
Zn3 O4 2.032 . S
Zn3 O7 2.086 . S
Zn3 O12 1.977 . S
O4 Zn3 2.032 . S
O4 C8 1.278 . S
C5 O6 1.203 . S
C5 O12 1.267 1_655 S
O6 C5 1.203 . S
O7 C0 1.185 . S
O7 Zn3 2.086 . S
C8 O4 1.278 . S
C8 O9 1.211 . S
O9 C8 1.211 . S
C10 O2 1.284 . S
C10 O11 1.273 . S
O11 C10 1.273 . S
O12 Zn3 1.977 . S
O12 C5 1.267 1_455 S
C13 O14 1.160 . S
C13 O20 1.185 1_655 S
O14 C13 1.160 . S
O15 Zn16 1.899 . S
O15 C23 1.284 . S
Zn16 O15 1.899 . S
Zn16 O17 2.032 . S
Zn16 O20 2.086 . S
Zn16 O25 1.977 . S
O17 Zn16 2.032 . S
O17 C21 1.278 . S
C18 O19 1.203 . S
C18 O25 1.267 . S
O19 C18 1.203 . S
O20 C13 1.185 1_455 S
O20 Zn16 2.086 . S
C21 O17 1.278 . S
C21 O22 1.211 . S
O22 C21 1.211 . S
C23 O15 1.284 . S
C23 O24 1.273 . S
O24 C23 1.273 . S
O25 Zn16 1.977 . S
O25 C18 1.267 . S
C26 O27 1.160 . S
C26 O33 1.185 . S
O27 C26 1.160 . S
O28 Zn29 1.899 . S
O28 C36 1.284 . S
Zn29 O28 1.899 . S
Zn29 O30 2.032 . S
Zn29 O33 2.086 . S
Zn29 O38 1.977 . S
O30 Zn29 2.032 . S
O30 C34 1.278 . S
C31 O32 1.203 . S
C31 O38 1.267 . S
O32 C31 1.203 . S
O33 C26 1.185 . S
O33 Zn29 2.086 . S
C34 O30 1.278 . S
C34 O35 1.211 . S
O35 C34 1.211 . S
C36 O28 1.284 . S
C36 O37 1.273 1_556 S
O37 C36 1.273 1_554 S
O38 Zn29 1.977 . S
O38 C31 1.267 . S
C39 O40 1.160 . S
C39 O46 1.185 . S
O40 C39 1.160 . S
O41 Zn42 1.899 . S
O41 C49 1.284 . S
Zn42 O41 1.899 . S
Zn42 O43 2.032 . S
Zn42 O46 2.086 . S
Zn42 O51 1.977 . S
O43 Zn42 2.032 . S
O43 C47 1.278 . S
C44 O45 1.203 . S
C44 O51 1.267 . S
O45 C44 1.203 . S
O46 C39 1.185 . S
O46 Zn42 2.086 . S
C47 O43 1.278 . S
C47 O48 1.211 . S
O48 C47 1.211 . S
C49 O41 1.284 . S
C49 O50 1.273 . S
O50 C49 1.273 . S
O51 Zn42 1.977 . S
O51 C44 1.267 . S
C52 O53 1.160 . S
C52 O59 1.185 . S
O53 C52 1.160 . S
O54 Zn55 1.899 . S
O54 C62 1.284 . S
Zn55 O54 1.899 . S
Zn55 O56 2.032 . S
Zn55 O59 2.086 . S
Zn55 O64 1.977 . S
O56 Zn55 2.032 . S
O56 C60 1.278 . S
C57 O58 1.203 . S
C57 O64 1.267 . S
O58 C57 1.203 . S
O59 C52 1.185 . S
O59 Zn55 2.086 . S
C60 O56 1.278 . S
C60 O61 1.211 . S
O61 C60 1.211 . S
C62 O54 1.284 . S
C62 O63 1.273 . S
O63 C62 1.273 . S
O64 Zn55 1.977 . S
O64 C57 1.267 . S
C65 O66 1.160 . S
C65 O72 1.185 . S
O66 C65 1.160 . S
O67 Zn68 1.899 . S
O67 C75 1.284 . S
Zn68 O67 1.899 . S
Zn68 O69 2.032 . S
Zn68 O72 2.086 . S
Zn68 O77 1.977 . S
O69 Zn68 2.032 . S
O69 C73 1.278 . S
C70 O71 1.203 . S
C70 O77 1.267 . S
O71 C70 1.203 . S
O72 C65 1.185 . S
O72 Zn68 2.086 . S
C73 O69 1.278 . S
C73 O74 1.211 . S
O74 C73 1.211 . S
C75 O67 1.284 . S
C75 O76 1.273 . S
O76 C75 1.273 . S
O77 Zn68 1.977 . S
O77 C70 1.267 . S
C78 O79 1.160 . S
C78 O85 1.185 . S
O79 C78 1.160 . S
O80 Zn81 1.899 . S
O80 C88 1.284 . S
Zn81 O80 1.899 . S
Zn81 O82 2.032 . S
Zn81 O85 2.086 . S
Zn81 O90 1.977 . S
O82 Zn81 2.032 . S
O82 C86 1.278 . S
C83 O84 1.203 . S
C83 O90 1.267 . S
O84 C83 1.203 . S
O85 C78 1.185 . S
O85 Zn81 2.086 . S
C86 O82 1.278 . S
C86 O87 1.211 . S
O87 C86 1.211 . S
C88 O80 1.284 . S
C88 O89 1.273 . S
O89 C88 1.273 . S
O90 Zn81 1.977 . S
O90 C83 1.267 . S
C91 O92 1.160 . S
C91 O98 1.185 . S
O92 C91 1.160 . S
O93 Zn94 1.899 1_655 S
O93 C101 1.284 1_556 S
Zn94 O93 1.899 1_455 S
Zn94 O95 2.032 1_556 S
Zn94 O98 2.086 . S
Zn94 O103 1.977 1_455 S
O95 Zn94 2.032 1_554 S
O95 C99 1.278 . S
C96 O97 1.203 . S
C96 O103 1.267 . S
O97 C96 1.203 . S
O98 C91 1.185 . S
O98 Zn94 2.086 . S
C99 O95 1.278 . S
C99 O100 1.211 1_455 S
O100 C99 1.211 1_655 S
C101 O93 1.284 1_554 S
C101 O102 1.273 . S
O102 C101 1.273 . S
O103 Zn94 1.977 1_655 S
O103 C96 1.267 . S
C104 O105 1.160 . S
C104 O111 1.185 . S
O105 C104 1.160 . S
O106 Zn107 1.899 . S
O106 C114 1.284 . S
Zn107 O106 1.899 . S
Zn107 O108 2.032 . S
Zn107 O111 2.086 . S
Zn107 O116 1.977 1_545 S
O108 Zn107 2.032 . S
O108 C112 1.278 . S
C109 O110 1.203 . S
C109 O116 1.267 . S
O110 C109 1.203 . S
O111 C104 1.185 . S
O111 Zn107 2.086 . S
C112 O108 1.278 . S
C112 O113 1.211 . S
O113 C112 1.211 . S
C114 O106 1.284 . S
C114 O115 1.273 . S
O115 C114 1.273 . S
O116 Zn107 1.977 1_565 S
O116 C109 1.267 . S
C117 O118 1.160 . S
C117 O124 1.185 . S
O118 C117 1.160 . S
O119 Zn120 1.899 . S
O119 C127 1.284 . S
Zn120 O119 1.899 . S
Zn120 O121 2.032 . S
Zn120 O124 2.086 . S
Zn120 O129 1.977 . S
O121 Zn120 2.032 . S
O121 C125 1.278 . S
C122 O123 1.203 . S
C122 O129 1.267 . S
O123 C122 1.203 . S
O124 C117 1.185 . S
O124 Zn120 2.086 . S
C125 O121 1.278 . S
C125 O126 1.211 . S
O126 C125 1.211 . S
C127 O119 1.284 . S
C127 O128 1.273 . S
O128 C127 1.273 . S
O129 Zn120 1.977 . S
O129 C122 1.267 . S
C130 O131 1.160 . S
C130 O137 1.185 . S
O131 C130 1.160 . S
O132 Zn133 1.899 . S
O132 C140 1.284 . S
Zn133 O132 1.899 . S
Zn133 O134 2.029 1_556 S
Zn133 O137 2.086 . S
Zn133 O142 1.977 . S
O134 Zn133 2.029 1_554 S
O134 C138 1.279 . S
C135 O136 1.203 . S
C135 O142 1.267 . S
O136 C135 1.203 . S
O137 C130 1.185 . S
O137 Zn133 2.086 . S
C138 O134 1.279 . S
C138 O139 1.211 . S
O139 C138 1.211 . S
C140 O132 1.284 . S
C140 O141 1.273 . S
O141 C140 1.273 . S
O142 Zn133 1.977 . S
O142 C135 1.267 . S
C143 O144 1.160 . S
C143 O150 1.185 1_554 S
O144 C143 1.160 . S
O145 Zn146 1.899 1_565 S
O145 C153 1.284 . S
Zn146 O145 1.899 1_545 S
Zn146 O147 2.032 1_544 S
Zn146 O150 2.086 1_554 S
Zn146 O155 1.977 . S
O147 Zn146 2.032 1_566 S
O147 C151 1.278 . S
C148 O149 1.203 . S
C148 O155 1.267 . S
O149 C148 1.203 . S
O150 C143 1.185 1_556 S
O150 Zn146 2.086 1_556 S
C151 O147 1.278 . S
C151 O152 1.211 . S
O152 C151 1.211 . S
C153 O145 1.284 . S
C153 O154 1.273 . S
O154 C153 1.273 . S
O155 Zn146 1.977 . S
O155 C148 1.267 . S
C156 O157 1.160 . S
C156 O163 1.185 . S
O157 C156 1.160 . S
O158 Zn159 1.899 . S
O158 C166 1.284 . S
Zn159 O158 1.899 . S
Zn159 O160 2.032 . S
Zn159 O163 2.086 . S
Zn159 O168 1.977 . S
O160 Zn159 2.032 . S
O160 C164 1.278 . S
C161 O162 1.203 . S
C161 O168 1.267 . S
O162 C161 1.203 . S
O163 C156 1.185 . S
O163 Zn159 2.086 . S
C164 O160 1.278 . S
C164 O165 1.211 . S
O165 C164 1.211 . S
C166 O158 1.284 . S
C166 O167 1.273 . S
O167 C166 1.273 . S
O168 Zn159 1.977 . S
O168 C161 1.267 . S
C169 O170 1.160 . S
C169 O176 1.185 . S
O170 C169 1.160 . S
O171 Zn172 1.899 . S
O171 C179 1.284 . S
Zn172 O171 1.899 . S
Zn172 O173 2.032 . S
Zn172 O176 2.086 . S
Zn172 O181 1.977 . S
O173 Zn172 2.032 . S
O173 C177 1.278 . S
C174 O175 1.203 . S
C174 O181 1.267 . S
O175 C174 1.203 . S
O176 C169 1.185 . S
O176 Zn172 2.086 . S
C177 O173 1.278 . S
C177 O178 1.211 . S
O178 C177 1.211 . S
C179 O171 1.284 . S
C179 O180 1.273 . S
O180 C179 1.273 . S
O181 Zn172 1.977 . S
O181 C174 1.267 . S
C182 O183 1.160 . S
C182 O189 1.185 . S
O183 C182 1.160 . S
O184 Zn185 1.899 . S
O184 C192 1.284 . S
Zn185 O184 1.899 . S
Zn185 O186 2.032 . S
Zn185 O189 2.086 . S
Zn185 O194 1.977 . S
O186 Zn185 2.032 . S
O186 C190 1.278 . S
C187 O188 1.203 . S
C187 O194 1.267 . S
O188 C187 1.203 . S
O189 C182 1.185 . S
O189 Zn185 2.086 . S
C190 O186 1.278 . S
C190 O191 1.211 . S
O191 C190 1.211 . S
C192 O184 1.284 . S
C192 O193 1.273 . S
O193 C192 1.273 . S
O194 Zn185 1.977 . S
O194 C187 1.267 . S
C195 O196 1.160 . S
C195 O202 1.185 . S
O196 C195 1.160 . S
O197 Zn198 1.899 . S
O197 C205 1.284 . S
Zn198 O197 1.899 . S
Zn198 O199 2.032 . S
Zn198 O202 2.086 . S
Zn198 O207 1.977 . S
O199 Zn198 2.032 . S
O199 C203 1.278 . S
C200 O201 1.203 . S
C200 O207 1.267 . S
O201 C200 1.203 . S
O202 C195 1.185 . S
O202 Zn198 2.086 . S
C203 O199 1.278 . S
C203 O204 1.211 . S
O204 C203 1.211 . S
C205 O197 1.284 . S
C205 O206 1.273 . S
O206 C205 1.273 . S
O207 Zn198 1.977 . S
O207 C200 1.267 . S
C208 O209 1.160 . S
C208 O215 1.185 . S
O209 C208 1.160 . S
O210 Zn211 1.900 . S
O210 C218 1.284 . S
Zn211 O210 1.900 . S
Zn211 O212 2.033 . S
Zn211 O215 2.097 . S
Zn211 O220 1.969 1_545 S
O212 Zn211 2.033 . S
O212 C216 1.278 . S
C213 O214 1.203 . S
C213 O220 1.267 . S
O214 C213 1.203 . S
O215 C208 1.185 . S
O215 Zn211 2.097 . S
C216 O212 1.278 . S
C216 O217 1.211 1_545 S
O217 C216 1.211 1_565 S
C218 O210 1.284 . S
C218 O219 1.273 1_545 S
O219 C218 1.273 1_565 S
O220 Zn211 1.969 1_565 S
O220 C213 1.267 . S
C221 O222 1.160 . S
C221 O228 1.185 . S
O222 C221 1.160 . S
O223 Zn224 1.899 . S
O223 C231 1.284 . S
Zn224 O223 1.899 . S
Zn224 O225 2.032 . S
Zn224 O228 2.086 . S
Zn224 O233 1.977 . S
O225 Zn224 2.032 . S
O225 C229 1.278 . S
C226 O227 1.203 . S
C226 O233 1.267 . S
O227 C226 1.203 . S
O228 C221 1.185 . S
O228 Zn224 2.086 . S
C229 O225 1.278 . S
C229 O230 1.211 . S
O230 C229 1.211 . S
C231 O223 1.284 . S
C231 O232 1.273 . S
O232 C231 1.273 . S
O233 Zn224 1.977 . S
O233 C226 1.267 . S
C234 O235 1.160 . S
C234 O241 1.185 . S
O235 C234 1.160 . S
O236 Zn237 1.899 . S
O236 C244 1.284 . S
Zn237 O236 1.899 . S
Zn237 O238 2.032 . S
Zn237 O241 2.086 . S
Zn237 O246 1.977 . S
O238 Zn237 2.032 . S
O238 C242 1.278 . S
C239 O240 1.203 . S
C239 O246 1.267 . S
O240 C239 1.203 . S
O241 C234 1.185 . S
O241 Zn237 2.086 . S
C242 O238 1.278 . S
C242 O243 1.211 . S
O243 C242 1.211 . S
C244 O236 1.284 . S
C244 O245 1.273 . S
O245 C244 1.273 . S
O246 Zn237 1.977 . S
O246 C239 1.267 . S
C247 O248 1.160 . S
C247 O254 1.185 . S
O248 C247 1.160 . S
O249 Zn250 1.899 . S
O249 C257 1.284 . S
Zn250 O249 1.899 . S
Zn250 O251 2.032 . S
Zn250 O254 2.086 . S
Zn250 O259 1.977 . S
O251 Zn250 2.032 . S
O251 C255 1.278 . S
C252 O253 1.203 . S
C252 O259 1.267 . S
O253 C252 1.203 . S
O254 C247 1.185 . S
O254 Zn250 2.086 . S
C255 O251 1.278 . S
C255 O256 1.211 . S
O256 C255 1.211 . S
C257 O249 1.284 . S
C257 O258 1.273 . S
O258 C257 1.273 . S
O259 Zn250 1.977 . S
O259 C252 1.267 . S
C260 O261 1.160 . S
C260 O267 1.185 . S
O261 C260 1.160 . S
O262 Zn263 1.899 . S
O262 C270 1.284 . S
Zn263 O262 1.899 . S
Zn263 O264 2.032 . S
Zn263 O267 2.086 . S
Zn263 O272 1.977 . S
O264 Zn263 2.032 . S
O264 C268 1.278 . S
C265 O266 1.203 . S
C265 O272 1.267 . S
O266 C265 1.203 . S
O267 C260 1.185 . S
O267 Zn263 2.086 . S
C268 O264 1.278 . S
C268 O269 1.211 . S
O269 C268 1.211 . S
C270 O262 1.284 . S
C270 O271 1.273 . S
O271 C270 1.273 . S
O272 Zn263 1.977 . S
O272 C265 1.267 . S
C273 O274 1.160 . S
C273 O280 1.185 . S
O274 C273 1.160 . S
O275 Zn276 1.899 . S
O275 C283 1.284 1_655 S
Zn276 O275 1.899 . S
Zn276 O277 2.032 . S
Zn276 O280 2.086 . S
Zn276 O285 1.977 . S
O277 Zn276 2.032 . S
O277 C281 1.278 1_655 S
C278 O279 1.203 . S
C278 O285 1.267 . S
O279 C278 1.203 . S
O280 C273 1.185 . S
O280 Zn276 2.086 . S
C281 O277 1.278 1_455 S
C281 O282 1.211 1_455 S
O282 C281 1.211 1_655 S
C283 O275 1.284 1_455 S
C283 O284 1.273 . S
O284 C283 1.273 . S
O285 Zn276 1.977 . S
O285 C278 1.267 . S
C286 O287 1.160 . S
C286 O293 1.185 . S
O287 C286 1.160 . S
O288 Zn289 1.899 . S
O288 C296 1.284 . S
Zn289 O288 1.899 . S
Zn289 O290 2.032 . S
Zn289 O293 2.086 . S
Zn289 O298 1.977 . S
O290 Zn289 2.032 . S
O290 C294 1.278 . S
C291 O292 1.203 . S
C291 O298 1.267 . S
O292 C291 1.203 . S
O293 C286 1.185 . S
O293 Zn289 2.086 . S
C294 O290 1.278 . S
C294 O295 1.211 . S
O295 C294 1.211 . S
C296 O288 1.284 . S
C296 O297 1.273 . S
O297 C296 1.273 . S
O298 Zn289 1.977 . S
O298 C291 1.267 . S
C299 O300 1.160 . S
C299 O306 1.185 . S
O300 C299 1.160 . S
O301 Zn302 1.899 . S
O301 C309 1.284 . S
Zn302 O301 1.899 . S
Zn302 O303 2.032 . S
Zn302 O306 2.086 . S
Zn302 O311 1.977 . S
O303 Zn302 2.032 . S
O303 C307 1.278 . S
C304 O305 1.203 . S
C304 O311 1.267 . S
O305 C304 1.203 . S
O306 C299 1.185 . S
O306 Zn302 2.086 . S
C307 O303 1.278 . S
C307 O308 1.211 . S
O308 C307 1.211 . S
C309 O301 1.284 . S
C309 O310 1.273 . S
O310 C309 1.273 . S
O311 Zn302 1.977 . S
O311 C304 1.267 . S
Tb312 C321 2.764 . S
Tb312 O322 2.325 . S
Tb312 O325 2.303 . S
Tb312 O329 2.322 . S
Tb312 O330 2.349 . S
Tb312 O333 2.415 . S
Tb312 O334 2.399 . S
Tb313 O323 2.322 . S
Tb313 O324 2.349 1_554 S
Tb313 O326 2.415 1_455 S
Tb313 O327 2.399 1_454 S
Tb313 O328 2.325 . S
Tb313 O331 2.303 . S
Tb313 C342 2.764 1_455 S
C314 O330 1.261 . S
C314 O331 1.257 . S
C315 C318 1.358 . S
C315 C319 1.332 . S
C315 C321 1.504 . S
C316 C317 1.373 . S
C316 C320 1.308 . S
C317 C316 1.373 . S
C317 C318 1.429 . S
C317 H344 0.932 . S
C318 C315 1.358 . S
C318 C317 1.429 . S
C318 H345 0.930 . S
C319 C315 1.332 . S
C319 C320 1.394 . S
C319 H346 0.932 . S
C320 C316 1.308 . S
C320 C319 1.394 . S
C320 H347 0.929 . S
C321 Tb312 2.764 . S
C321 C315 1.504 . S
C321 O333 1.239 . S
C321 O334 1.263 . S
O322 Tb312 2.325 . S
O322 C332 1.236 . S
O323 Tb313 2.322 . S
O323 C332 1.257 . S
O324 Tb313 2.349 1_556 S
O324 C335 1.261 . S
O325 Tb312 2.303 . S
O325 C335 1.257 1_554 S
O326 Tb313 2.415 1_655 S
O326 C342 1.239 . S
O327 Tb313 2.399 1_656 S
O327 C342 1.263 1_556 S
O328 Tb313 2.325 . S
O328 C343 1.236 . S
O329 Tb312 2.322 . S
O329 C343 1.257 . S
O330 Tb312 2.349 . S
O330 C314 1.261 . S
O331 Tb313 2.303 . S
O331 C314 1.257 . S
C332 O322 1.236 . S
C332 O323 1.257 . S
O333 Tb312 2.415 . S
O333 C321 1.239 . S
O334 Tb312 2.399 . S
O334 C321 1.263 . S
C335 O324 1.261 . S
C335 O325 1.257 1_556 S
C336 C339 1.358 . S
C336 C340 1.332 1_556 S
C336 C342 1.504 1_556 S
C337 C338 1.373 . S
C337 C341 1.308 1_556 S
C338 C337 1.373 . S
C338 C339 1.429 . S
C338 H348 0.932 . S
C339 C336 1.358 . S
C339 C338 1.429 . S
C339 H349 0.930 . S
C340 C336 1.332 1_554 S
C340 C341 1.394 . S
C340 H350 0.932 . S
C341 C337 1.308 1_554 S
C341 C340 1.394 . S
C341 H351 0.929 . S
C342 Tb313 2.764 1_655 S
C342 O326 1.239 . S
C342 O327 1.263 1_554 S
C342 C336 1.504 1_554 S
C343 O328 1.236 . S
C343 O329 1.257 . S
H344 C317 0.932 . S
H345 C318 0.930 . S
H346 C319 0.932 . S
H347 C320 0.929 . S
H348 C338 0.932 . S
H349 C339 0.930 . S
H350 C340 0.932 . S
H351 C341 0.929 . S
Tb352 C361 2.764 . S
Tb352 O362 2.325 . S
Tb352 O365 2.303 . S
Tb352 O369 2.322 . S
Tb352 O370 2.349 . S
Tb352 O373 2.415 . S
Tb352 O374 2.399 . S
Tb353 O363 2.322 . S
Tb353 O364 2.349 . S
Tb353 O366 2.415 . S
Tb353 O367 2.399 . S
Tb353 O368 2.325 . S
Tb353 O371 2.303 . S
Tb353 C382 2.764 . S
C354 O370 1.261 . S
C354 O371 1.257 . S
C355 C358 1.358 . S
C355 C359 1.332 . S
C355 C361 1.504 . S
C356 C357 1.373 . S
C356 C360 1.308 . S
C357 C356 1.373 . S
C357 C358 1.429 . S
C357 H384 0.932 . S
C358 C355 1.358 . S
C358 C357 1.429 . S
C358 H385 0.930 . S
C359 C355 1.332 . S
C359 C360 1.394 . S
C359 H386 0.932 . S
C360 C356 1.308 . S
C360 C359 1.394 . S
C360 H387 0.929 . S
C361 Tb352 2.764 . S
C361 C355 1.504 . S
C361 O373 1.239 . S
C361 O374 1.263 . S
O362 Tb352 2.325 . S
O362 C372 1.236 . S
O363 Tb353 2.322 . S
O363 C372 1.257 . S
O364 Tb353 2.349 . S
O364 C375 1.261 . S
O365 Tb352 2.303 . S
O365 C375 1.257 . S
O366 Tb353 2.415 . S
O366 C382 1.239 . S
O367 Tb353 2.399 . S
O367 C382 1.263 . S
O368 Tb353 2.325 . S
O368 C383 1.236 . S
O369 Tb352 2.322 . S
O369 C383 1.257 . S
O370 Tb352 2.349 . S
O370 C354 1.261 . S
O371 Tb353 2.303 . S
O371 C354 1.257 . S
C372 O362 1.236 . S
C372 O363 1.257 . S
O373 Tb352 2.415 . S
O373 C361 1.239 . S
O374 Tb352 2.399 . S
O374 C361 1.263 . S
C375 O364 1.261 . S
C375 O365 1.257 . S
C376 C379 1.358 . S
C376 C380 1.332 . S
C376 C382 1.504 . S
C377 C378 1.376 . S
C377 C381 1.306 1_565 S
C378 C377 1.376 . S
C378 C379 1.429 . S
C378 H388 0.932 . S
C379 C376 1.358 . S
C379 C378 1.429 . S
C379 H389 0.930 . S
C380 C376 1.332 . S
C380 C381 1.394 1_565 S
C380 H390 0.932 . S
C381 C377 1.306 1_545 S
C381 C380 1.394 1_545 S
C381 H391 0.929 . S
C382 Tb353 2.764 . S
C382 O366 1.239 . S
C382 O367 1.263 . S
C382 C376 1.504 . S
C383 O368 1.236 . S
C383 O369 1.257 . S
H384 C357 0.932 . S
H385 C358 0.930 . S
H386 C359 0.932 . S
H387 C360 0.929 . S
H388 C378 0.932 . S
H389 C379 0.930 . S
H390 C380 0.932 . S
H391 C381 0.929 . S
Tb392 C401 2.764 . S
Tb392 O402 2.325 . S
Tb392 O405 2.303 . S
Tb392 O409 2.322 . S
Tb392 O410 2.349 . S
Tb392 O413 2.415 . S
Tb392 O414 2.399 . S
Tb393 O403 2.322 . S
Tb393 O404 2.349 . S
Tb393 O406 2.415 . S
Tb393 O407 2.399 . S
Tb393 O408 2.325 . S
Tb393 O411 2.303 . S
Tb393 C422 2.764 . S
C394 O410 1.261 . S
C394 O411 1.257 . S
C395 C398 1.358 . S
C395 C399 1.332 . S
C395 C401 1.504 . S
C396 C397 1.373 . S
C396 C400 1.308 . S
C397 C396 1.373 . S
C397 C398 1.429 . S
C397 H424 0.932 . S
C398 C395 1.358 . S
C398 C397 1.429 . S
C398 H425 0.930 . S
C399 C395 1.332 . S
C399 C400 1.394 . S
C399 H426 0.932 . S
C400 C396 1.308 . S
C400 C399 1.394 . S
C400 H427 0.929 . S
C401 Tb392 2.764 . S
C401 C395 1.504 . S
C401 O413 1.239 . S
C401 O414 1.263 . S
O402 Tb392 2.325 . S
O402 C412 1.236 . S
O403 Tb393 2.322 . S
O403 C412 1.257 . S
O404 Tb393 2.349 . S
O404 C415 1.261 . S
O405 Tb392 2.303 . S
O405 C415 1.257 . S
O406 Tb393 2.415 . S
O406 C422 1.239 . S
O407 Tb393 2.399 . S
O407 C422 1.263 . S
O408 Tb393 2.325 . S
O408 C423 1.236 . S
O409 Tb392 2.322 . S
O409 C423 1.257 . S
O410 Tb392 2.349 . S
O410 C394 1.261 . S
O411 Tb393 2.303 . S
O411 C394 1.257 . S
C412 O402 1.236 . S
C412 O403 1.257 . S
O413 Tb392 2.415 . S
O413 C401 1.239 . S
O414 Tb392 2.399 . S
O414 C401 1.263 . S
C415 O404 1.261 . S
C415 O405 1.257 . S
C416 C419 1.358 . S
C416 C420 1.332 . S
C416 C422 1.504 . S
C417 C418 1.373 1_565 S
C417 C421 1.308 . S
C418 C417 1.373 1_545 S
C418 C419 1.429 . S
C418 H428 0.932 . S
C419 C416 1.358 . S
C419 C418 1.429 . S
C419 H429 0.930 . S
C420 C416 1.332 . S
C420 C421 1.394 1_545 S
C420 H430 0.932 . S
C421 C417 1.308 . S
C421 C420 1.394 1_565 S
C421 H431 0.929 . S
C422 Tb393 2.764 . S
C422 O406 1.239 . S
C422 O407 1.263 . S
C422 C416 1.504 . S
C423 O408 1.236 . S
C423 O409 1.257 . S
H424 C397 0.932 . S
H425 C398 0.930 . S
H426 C399 0.932 . S
H427 C400 0.929 . S
H428 C418 0.932 . S
H429 C419 0.930 . S
H430 C420 0.932 . S
H431 C421 0.929 . S
Tb432 C441 2.764 . S
Tb432 O442 2.325 . S
Tb432 O445 2.303 . S
Tb432 O449 2.322 . S
Tb432 O450 2.349 . S
Tb432 O453 2.415 . S
Tb432 O454 2.399 . S
Tb433 O443 2.322 . S
Tb433 O444 2.349 . S
Tb433 O446 2.415 . S
Tb433 O447 2.399 . S
Tb433 O448 2.325 . S
Tb433 O451 2.303 . S
Tb433 C462 2.764 . S
C434 O450 1.261 . S
C434 O451 1.257 . S
C435 C438 1.358 . S
C435 C439 1.332 . S
C435 C441 1.504 . S
C436 C437 1.373 . S
C436 C440 1.308 . S
C437 C436 1.373 . S
C437 C438 1.429 . S
C437 H464 0.932 . S
C438 C435 1.358 . S
C438 C437 1.429 . S
C438 H465 0.930 . S
C439 C435 1.332 . S
C439 C440 1.394 . S
C439 H466 0.932 . S
C440 C436 1.308 . S
C440 C439 1.394 . S
C440 H467 0.929 . S
C441 Tb432 2.764 . S
C441 C435 1.504 . S
C441 O453 1.239 . S
C441 O454 1.263 . S
O442 Tb432 2.325 . S
O442 C452 1.236 . S
O443 Tb433 2.322 . S
O443 C452 1.257 . S
O444 Tb433 2.349 . S
O444 C455 1.261 . S
O445 Tb432 2.303 . S
O445 C455 1.257 . S
O446 Tb433 2.415 . S
O446 C462 1.239 . S
O447 Tb433 2.399 . S
O447 C462 1.263 . S
O448 Tb433 2.325 . S
O448 C463 1.236 . S
O449 Tb432 2.322 . S
O449 C463 1.257 . S
O450 Tb432 2.349 . S
O450 C434 1.261 . S
O451 Tb433 2.303 . S
O451 C434 1.257 . S
C452 O442 1.236 . S
C452 O443 1.257 . S
O453 Tb432 2.415 . S
O453 C441 1.239 . S
O454 Tb432 2.399 . S
O454 C441 1.263 . S
C455 O444 1.261 . S
C455 O445 1.257 . S
C456 C459 1.358 . S
C456 C460 1.332 . S
C456 C462 1.504 . S
C457 C458 1.373 . S
C457 C461 1.308 . S
C458 C457 1.373 . S
C458 C459 1.429 . S
C458 H468 0.932 . S
C459 C456 1.358 . S
C459 C458 1.429 . S
C459 H469 0.930 . S
C460 C456 1.332 . S
C460 C461 1.394 . S
C460 H470 0.932 . S
C461 C457 1.308 . S
C461 C460 1.394 . S
C461 H471 0.929 . S
C462 Tb433 2.764 . S
C462 O446 1.239 . S
C462 O447 1.263 . S
C462 C456 1.504 . S
C463 O448 1.236 . S
C463 O449 1.257 . S
H464 C437 0.932 . S
H465 C438 0.930 . S
H466 C439 0.932 . S
H467 C440 0.929 . S
H468 C458 0.932 . S
H469 C459 0.930 . S
H470 C460 0.932 . S
H471 C461 0.929 . S
Tb472 C481 2.764 . S
Tb472 O482 2.325 . S
Tb472 O485 2.303 . S
Tb472 O489 2.322 . S
Tb472 O490 2.349 . S
Tb472 O493 2.415 . S
Tb472 O494 2.399 . S
Tb473 O483 2.322 . S
Tb473 O484 2.349 . S
Tb473 O486 2.415 . S
Tb473 O487 2.399 . S
Tb473 O488 2.325 . S
Tb473 O491 2.303 . S
Tb473 C502 2.764 . S
C474 O490 1.261 1_655 S
C474 O491 1.257 1_655 S
C475 C478 1.358 . S
C475 C479 1.332 . S
C475 C481 1.504 . S
C476 C477 1.373 . S
C476 C480 1.308 . S
C477 C476 1.373 . S
C477 C478 1.429 . S
C477 H504 0.932 . S
C478 C475 1.358 . S
C478 C477 1.429 . S
C478 H505 0.930 . S
C479 C475 1.332 . S
C479 C480 1.394 . S
C479 H506 0.932 . S
C480 C476 1.308 . S
C480 C479 1.394 . S
C480 H507 0.929 . S
C481 Tb472 2.764 . S
C481 C475 1.504 . S
C481 O493 1.239 . S
C481 O494 1.263 . S
O482 Tb472 2.325 . S
O482 C492 1.236 . S
O483 Tb473 2.322 . S
O483 C492 1.257 . S
O484 Tb473 2.349 . S
O484 C495 1.261 . S
O485 Tb472 2.303 . S
O485 C495 1.257 . S
O486 Tb473 2.415 . S
O486 C502 1.239 . S
O487 Tb473 2.399 . S
O487 C502 1.263 . S
O488 Tb473 2.325 . S
O488 C503 1.236 . S
O489 Tb472 2.322 . S
O489 C503 1.257 . S
O490 Tb472 2.349 . S
O490 C474 1.261 1_455 S
O491 Tb473 2.303 . S
O491 C474 1.257 1_455 S
C492 O482 1.236 . S
C492 O483 1.257 . S
O493 Tb472 2.415 . S
O493 C481 1.239 . S
O494 Tb472 2.399 . S
O494 C481 1.263 . S
C495 O484 1.261 . S
C495 O485 1.257 . S
C496 C499 1.358 . S
C496 C500 1.332 1_455 S
C496 C502 1.504 . S
C497 C498 1.373 1_655 S
C497 C501 1.308 . S
C498 C497 1.373 1_455 S
C498 C499 1.429 . S
C498 H508 0.932 . S
C499 C496 1.358 . S
C499 C498 1.429 . S
C499 H509 0.930 . S
C500 C496 1.332 1_655 S
C500 C501 1.394 . S
C500 H510 0.932 . S
C501 C497 1.308 . S
C501 C500 1.394 . S
C501 H511 0.929 . S
C502 Tb473 2.764 . S
C502 O486 1.239 . S
C502 O487 1.263 . S
C502 C496 1.504 . S
C503 O488 1.236 . S
C503 O489 1.257 . S
H504 C477 0.932 . S
H505 C478 0.930 . S
H506 C479 0.932 . S
H507 C480 0.929 . S
H508 C498 0.932 . S
H509 C499 0.930 . S
H510 C500 0.932 . S
H511 C501 0.929 . S
Tb512 C521 2.764 . S
Tb512 O522 2.325 . S
Tb512 O525 2.303 . S
Tb512 O529 2.322 . S
Tb512 O530 2.349 . S
Tb512 O533 2.415 . S
Tb512 O534 2.399 . S
Tb513 O523 2.322 . S
Tb513 O524 2.349 . S
Tb513 O526 2.415 . S
Tb513 O527 2.399 . S
Tb513 O528 2.325 . S
Tb513 O531 2.303 . S
Tb513 C542 2.764 . S
C514 O530 1.261 . S
C514 O531 1.257 . S
C515 C518 1.358 . S
C515 C519 1.332 . S
C515 C521 1.504 1_545 S
C516 C517 1.373 . S
C516 C520 1.308 . S
C517 C516 1.373 . S
C517 C518 1.429 . S
C517 H544 0.932 . S
C518 C515 1.358 . S
C518 C517 1.429 . S
C518 H545 0.930 . S
C519 C515 1.332 . S
C519 C520 1.394 . S
C519 H546 0.932 . S
C520 C516 1.308 . S
C520 C519 1.394 . S
C520 H547 0.929 . S
C521 Tb512 2.764 . S
C521 C515 1.504 1_565 S
C521 O533 1.239 . S
C521 O534 1.263 . S
O522 Tb512 2.325 . S
O522 C532 1.236 . S
O523 Tb513 2.322 . S
O523 C532 1.257 . S
O524 Tb513 2.349 . S
O524 C535 1.261 . S
O525 Tb512 2.303 . S
O525 C535 1.257 . S
O526 Tb513 2.415 . S
O526 C542 1.239 . S
O527 Tb513 2.399 . S
O527 C542 1.263 . S
O528 Tb513 2.325 . S
O528 C543 1.236 . S
O529 Tb512 2.322 . S
O529 C543 1.257 . S
O530 Tb512 2.349 . S
O530 C514 1.261 . S
O531 Tb513 2.303 . S
O531 C514 1.257 . S
C532 O522 1.236 . S
C532 O523 1.257 . S
O533 Tb512 2.415 . S
O533 C521 1.239 . S
O534 Tb512 2.399 . S
O534 C521 1.263 . S
C535 O524 1.261 . S
C535 O525 1.257 . S
C536 C539 1.358 . S
C536 C540 1.332 . S
C536 C542 1.504 . S
C537 C538 1.373 . S
C537 C541 1.308 . S
C538 C537 1.373 . S
C538 C539 1.429 . S
C538 H548 0.932 . S
C539 C536 1.358 . S
C539 C538 1.429 . S
C539 H549 0.930 . S
C540 C536 1.332 . S
C540 C541 1.394 . S
C540 H550 0.932 . S
C541 C537 1.308 . S
C541 C540 1.394 . S
C541 H551 0.929 . S
C542 Tb513 2.764 . S
C542 O526 1.239 . S
C542 O527 1.263 . S
C542 C536 1.504 . S
C543 O528 1.236 . S
C543 O529 1.257 . S
H544 C517 0.932 . S
H545 C518 0.930 . S
H546 C519 0.932 . S
H547 C520 0.929 . S
H548 C538 0.932 . S
H549 C539 0.930 . S
H550 C540 0.932 . S
H551 C541 0.929 . S
Tb552 C561 2.764 . S
Tb552 O562 2.325 . S
Tb552 O565 2.303 . S
Tb552 O569 2.322 . S
Tb552 O570 2.349 . S
Tb552 O573 2.415 . S
Tb552 O574 2.399 . S
Tb553 O563 2.322 . S
Tb553 O564 2.349 . S
Tb553 O566 2.415 1_554 S
Tb553 O567 2.399 1_554 S
Tb553 O568 2.325 . S
Tb553 O571 2.303 . S
Tb553 C582 2.764 1_554 S
C554 O570 1.261 . S
C554 O571 1.257 . S
C555 C558 1.358 . S
C555 C559 1.332 . S
C555 C561 1.504 . S
C556 C557 1.373 . S
C556 C560 1.308 . S
C557 C556 1.373 . S
C557 C558 1.429 . S
C557 H584 0.932 . S
C558 C555 1.358 . S
C558 C557 1.429 . S
C558 H585 0.930 . S
C559 C555 1.332 . S
C559 C560 1.394 . S
C559 H586 0.932 . S
C560 C556 1.308 . S
C560 C559 1.394 . S
C560 H587 0.929 . S
C561 Tb552 2.764 . S
C561 C555 1.504 . S
C561 O573 1.239 . S
C561 O574 1.263 . S
O562 Tb552 2.325 . S
O562 C572 1.236 . S
O563 Tb553 2.322 . S
O563 C572 1.257 . S
O564 Tb553 2.349 . S
O564 C575 1.261 . S
O565 Tb552 2.303 . S
O565 C575 1.257 . S
O566 Tb553 2.415 1_556 S
O566 C582 1.239 . S
O567 Tb553 2.399 1_556 S
O567 C582 1.263 . S
O568 Tb553 2.325 . S
O568 C583 1.236 . S
O569 Tb552 2.322 . S
O569 C583 1.257 . S
O570 Tb552 2.349 . S
O570 C554 1.261 . S
O571 Tb553 2.303 . S
O571 C554 1.257 . S
C572 O562 1.236 . S
C572 O563 1.257 . S
O573 Tb552 2.415 . S
O573 C561 1.239 . S
O574 Tb552 2.399 . S
O574 C561 1.263 . S
C575 O564 1.261 . S
C575 O565 1.257 . S
C576 C579 1.358 . S
C576 C580 1.332 . S
C576 C582 1.504 . S
C577 C578 1.373 . S
C577 C581 1.308 . S
C578 C577 1.373 . S
C578 C579 1.429 . S
C578 H588 0.932 . S
C579 C576 1.358 . S
C579 C578 1.429 . S
C579 H589 0.930 . S
C580 C576 1.332 . S
C580 C581 1.394 . S
C580 H590 0.932 . S
C581 C577 1.308 . S
C581 C580 1.394 . S
C581 H591 0.929 . S
C582 Tb553 2.764 1_556 S
C582 O566 1.239 . S
C582 O567 1.263 . S
C582 C576 1.504 . S
C583 O568 1.236 . S
C583 O569 1.257 . S
H584 C557 0.932 . S
H585 C558 0.930 . S
H586 C559 0.932 . S
H587 C560 0.929 . S
H588 C578 0.932 . S
H589 C579 0.930 . S
H590 C580 0.932 . S
H591 C581 0.929 . S
Tb592 C601 2.764 . S
Tb592 O602 2.325 . S
Tb592 O605 2.303 . S
Tb592 O609 2.322 . S
Tb592 O610 2.349 . S
Tb592 O613 2.415 . S
Tb592 O614 2.399 . S
Tb593 O603 2.322 . S
Tb593 O604 2.349 . S
Tb593 O606 2.415 . S
Tb593 O607 2.399 . S
Tb593 O608 2.325 . S
Tb593 O611 2.303 . S
Tb593 C622 2.764 . S
C594 O610 1.261 . S
C594 O611 1.257 . S
C595 C598 1.358 . S
C595 C599 1.332 . S
C595 C601 1.504 . S
C596 C597 1.373 . S
C596 C600 1.308 . S
C597 C596 1.373 . S
C597 C598 1.429 . S
C597 H624 0.932 . S
C598 C595 1.358 . S
C598 C597 1.429 . S
C598 H625 0.930 . S
C599 C595 1.332 . S
C599 C600 1.394 . S
C599 H626 0.932 . S
C600 C596 1.308 . S
C600 C599 1.394 . S
C600 H627 0.929 . S
C601 Tb592 2.764 . S
C601 C595 1.504 . S
C601 O613 1.239 . S
C601 O614 1.263 . S
O602 Tb592 2.325 . S
O602 C612 1.236 . S
O603 Tb593 2.322 . S
O603 C612 1.257 . S
O604 Tb593 2.349 . S
O604 C615 1.261 . S
O605 Tb592 2.303 . S
O605 C615 1.257 . S
O606 Tb593 2.415 . S
O606 C622 1.239 . S
O607 Tb593 2.399 . S
O607 C622 1.263 . S
O608 Tb593 2.325 . S
O608 C623 1.236 . S
O609 Tb592 2.322 . S
O609 C623 1.257 . S
O610 Tb592 2.349 . S
O610 C594 1.261 . S
O611 Tb593 2.303 . S
O611 C594 1.257 . S
C612 O602 1.236 . S
C612 O603 1.257 . S
O613 Tb592 2.415 . S
O613 C601 1.239 . S
O614 Tb592 2.399 . S
O614 C601 1.263 . S
C615 O604 1.261 . S
C615 O605 1.257 . S
C616 C619 1.358 . S
C616 C620 1.332 . S
C616 C622 1.504 . S
C617 C618 1.373 . S
C617 C621 1.308 . S
C618 C617 1.373 . S
C618 C619 1.429 . S
C618 H628 0.932 . S
C619 C616 1.358 . S
C619 C618 1.429 . S
C619 H629 0.930 . S
C620 C616 1.332 . S
C620 C621 1.394 . S
C620 H630 0.932 . S
C621 C617 1.308 . S
C621 C620 1.394 . S
C621 H631 0.929 . S
C622 Tb593 2.764 . S
C622 O606 1.239 . S
C622 O607 1.263 . S
C622 C616 1.504 . S
C623 O608 1.236 . S
C623 O609 1.257 . S
H624 C597 0.932 . S
H625 C598 0.930 . S
H626 C599 0.932 . S
H627 C600 0.929 . S
H628 C618 0.932 . S
H629 C619 0.930 . S
H630 C620 0.932 . S
H631 C621 0.929 . S
Tb632 C641 2.764 . S
Tb632 O642 2.325 . S
Tb632 O645 2.303 . S
Tb632 O649 2.322 . S
Tb632 O650 2.349 . S
Tb632 O653 2.415 . S
Tb632 O654 2.399 . S
Tb633 O643 2.322 . S
Tb633 O644 2.349 . S
Tb633 O646 2.415 1_554 S
Tb633 O647 2.399 1_554 S
Tb633 O648 2.325 . S
Tb633 O651 2.303 . S
Tb633 C662 2.764 1_554 S
C634 O650 1.261 . S
C634 O651 1.257 . S
C635 C638 1.358 . S
C635 C639 1.332 . S
C635 C641 1.504 . S
C636 C637 1.373 . S
C636 C640 1.308 . S
C637 C636 1.373 . S
C637 C638 1.429 . S
C637 H664 0.932 . S
C638 C635 1.358 . S
C638 C637 1.429 . S
C638 H665 0.930 . S
C639 C635 1.332 . S
C639 C640 1.394 . S
C639 H666 0.932 . S
C640 C636 1.308 . S
C640 C639 1.394 . S
C640 H667 0.929 . S
C641 Tb632 2.764 . S
C641 C635 1.504 . S
C641 O653 1.239 . S
C641 O654 1.263 . S
O642 Tb632 2.325 . S
O642 C652 1.236 . S
O643 Tb633 2.322 . S
O643 C652 1.257 . S
O644 Tb633 2.349 . S
O644 C655 1.261 . S
O645 Tb632 2.303 . S
O645 C655 1.257 . S
O646 Tb633 2.415 1_556 S
O646 C662 1.239 . S
O647 Tb633 2.399 1_556 S
O647 C662 1.263 . S
O648 Tb633 2.325 . S
O648 C663 1.236 . S
O649 Tb632 2.322 . S
O649 C663 1.257 . S
O650 Tb632 2.349 . S
O650 C634 1.261 . S
O651 Tb633 2.303 . S
O651 C634 1.257 . S
C652 O642 1.236 . S
C652 O643 1.257 . S
O653 Tb632 2.415 . S
O653 C641 1.239 . S
O654 Tb632 2.399 . S
O654 C641 1.263 . S
C655 O644 1.261 . S
C655 O645 1.257 . S
C656 C659 1.358 . S
C656 C660 1.332 . S
C656 C662 1.504 . S
C657 C658 1.373 . S
C657 C661 1.308 . S
C658 C657 1.373 . S
C658 C659 1.429 . S
C658 H668 0.932 . S
C659 C656 1.358 . S
C659 C658 1.429 . S
C659 H669 0.930 . S
C660 C656 1.332 . S
C660 C661 1.394 . S
C660 H670 0.932 . S
C661 C657 1.308 . S
C661 C660 1.394 . S
C661 H671 0.929 . S
C662 Tb633 2.764 1_556 S
C662 O646 1.239 . S
C662 O647 1.263 . S
C662 C656 1.504 . S
C663 O648 1.236 . S
C663 O649 1.257 . S
H664 C637 0.932 . S
H665 C638 0.930 . S
H666 C639 0.932 . S
H667 C640 0.929 . S
H668 C658 0.932 . S
H669 C659 0.930 . S
H670 C660 0.932 . S
H671 C661 0.929 . S
Tb672 C681 2.764 . S
Tb672 O682 2.325 . S
Tb672 O685 2.303 . S
Tb672 O689 2.322 . S
Tb672 O690 2.349 . S
Tb672 O693 2.415 . S
Tb672 O694 2.399 . S
Tb673 O683 2.322 . S
Tb673 O684 2.349 . S
Tb673 O686 2.415 . S
Tb673 O687 2.399 . S
Tb673 O688 2.325 . S
Tb673 O691 2.303 . S
Tb673 C702 2.764 . S
C674 O690 1.261 . S
C674 O691 1.257 . S
C675 C678 1.358 . S
C675 C679 1.332 . S
C675 C681 1.504 . S
C676 C677 1.373 . S
C676 C680 1.308 . S
C677 C676 1.373 . S
C677 C678 1.429 . S
C677 H704 0.932 . S
C678 C675 1.358 . S
C678 C677 1.429 . S
C678 H705 0.930 . S
C679 C675 1.332 . S
C679 C680 1.394 . S
C679 H706 0.932 . S
C680 C676 1.308 . S
C680 C679 1.394 . S
C680 H707 0.929 . S
C681 Tb672 2.764 . S
C681 C675 1.504 . S
C681 O693 1.239 . S
C681 O694 1.263 . S
O682 Tb672 2.325 . S
O682 C692 1.236 . S
O683 Tb673 2.322 . S
O683 C692 1.257 . S
O684 Tb673 2.349 . S
O684 C695 1.261 . S
O685 Tb672 2.303 . S
O685 C695 1.257 . S
O686 Tb673 2.415 . S
O686 C702 1.239 . S
O687 Tb673 2.399 . S
O687 C702 1.263 . S
O688 Tb673 2.325 . S
O688 C703 1.236 . S
O689 Tb672 2.322 . S
O689 C703 1.257 . S
O690 Tb672 2.349 . S
O690 C674 1.261 . S
O691 Tb673 2.303 . S
O691 C674 1.257 . S
C692 O682 1.236 . S
C692 O683 1.257 . S
O693 Tb672 2.415 . S
O693 C681 1.239 . S
O694 Tb672 2.399 . S
O694 C681 1.263 . S
C695 O684 1.261 . S
C695 O685 1.257 . S
C696 C699 1.358 . S
C696 C700 1.332 . S
C696 C702 1.504 . S
C697 C698 1.373 . S
C697 C701 1.308 . S
C698 C697 1.373 . S
C698 C699 1.429 . S
C698 H708 0.932 . S
C699 C696 1.358 . S
C699 C698 1.429 . S
C699 H709 0.930 . S
C700 C696 1.332 . S
C700 C701 1.394 . S
C700 H710 0.932 . S
C701 C697 1.308 . S
C701 C700 1.394 . S
C701 H711 0.929 . S
C702 Tb673 2.764 . S
C702 O686 1.239 . S
C702 O687 1.263 . S
C702 C696 1.504 . S
C703 O688 1.236 . S
C703 O689 1.257 . S
H704 C677 0.932 . S
H705 C678 0.930 . S
H706 C679 0.932 . S
H707 C680 0.929 . S
H708 C698 0.932 . S
H709 C699 0.930 . S
H710 C700 0.932 . S
H711 C701 0.929 . S
Tb712 C721 2.764 . S
Tb712 O722 2.325 . S
Tb712 O725 2.303 . S
Tb712 O729 2.322 . S
Tb712 O730 2.349 . S
Tb712 O733 2.415 . S
Tb712 O734 2.399 . S
Tb713 O723 2.322 . S
Tb713 O724 2.349 . S
Tb713 O726 2.415 . S
Tb713 O727 2.399 . S
Tb713 O728 2.325 . S
Tb713 O731 2.303 . S
Tb713 C742 2.764 . S
C714 O730 1.261 . S
C714 O731 1.257 . S
C715 C718 1.358 . S
C715 C719 1.332 1_455 S
C715 C721 1.504 . S
C716 C717 1.373 1_655 S
C716 C720 1.308 . S
C717 C716 1.373 1_455 S
C717 C718 1.429 . S
C717 H744 0.932 . S
C718 C715 1.358 . S
C718 C717 1.429 . S
C718 H745 0.930 . S
C719 C715 1.332 1_655 S
C719 C720 1.394 . S
C719 H746 0.932 . S
C720 C716 1.308 . S
C720 C719 1.394 . S
C720 H747 0.929 . S
C721 Tb712 2.764 . S
C721 C715 1.504 . S
C721 O733 1.239 . S
C721 O734 1.263 . S
O722 Tb712 2.325 . S
O722 C732 1.236 . S
O723 Tb713 2.322 . S
O723 C732 1.257 . S
O724 Tb713 2.349 . S
O724 C735 1.261 1_455 S
O725 Tb712 2.303 . S
O725 C735 1.257 1_455 S
O726 Tb713 2.415 . S
O726 C742 1.239 . S
O727 Tb713 2.399 . S
O727 C742 1.263 . S
O728 Tb713 2.325 . S
O728 C743 1.236 . S
O729 Tb712 2.322 . S
O729 C743 1.257 . S
O730 Tb712 2.349 . S
O730 C714 1.261 . S
O731 Tb713 2.303 . S
O731 C714 1.257 . S
C732 O722 1.236 . S
C732 O723 1.257 . S
O733 Tb712 2.415 . S
O733 C721 1.239 . S
O734 Tb712 2.399 . S
O734 C721 1.263 . S
C735 O724 1.261 1_655 S
C735 O725 1.257 1_655 S
C736 C739 1.358 . S
C736 C740 1.332 . S
C736 C742 1.504 . S
C737 C738 1.373 . S
C737 C741 1.308 . S
C738 C737 1.373 . S
C738 C739 1.429 . S
C738 H748 0.932 . S
C739 C736 1.358 . S
C739 C738 1.429 . S
C739 H749 0.930 . S
C740 C736 1.332 . S
C740 C741 1.394 . S
C740 H750 0.932 . S
C741 C737 1.308 . S
C741 C740 1.394 . S
C741 H751 0.929 . S
C742 Tb713 2.764 . S
C742 O726 1.239 . S
C742 O727 1.263 . S
C742 C736 1.504 . S
C743 O728 1.236 . S
C743 O729 1.257 . S
H744 C717 0.932 . S
H745 C718 0.930 . S
H746 C719 0.932 . S
H747 C720 0.929 . S
H748 C738 0.932 . S
H749 C739 0.930 . S
H750 C740 0.932 . S
H751 C741 0.929 . S
Tb752 C761 2.764 . S
Tb752 O762 2.325 . S
Tb752 O765 2.303 . S
Tb752 O769 2.322 . S
Tb752 O770 2.349 . S
Tb752 O773 2.415 . S
Tb752 O774 2.399 . S
Tb753 O763 2.322 . S
Tb753 O764 2.349 . S
Tb753 O766 2.415 . S
Tb753 O767 2.399 . S
Tb753 O768 2.325 . S
Tb753 O771 2.303 . S
Tb753 C782 2.764 . S
C754 O770 1.261 . S
C754 O771 1.257 . S
C755 C758 1.358 . S
C755 C759 1.332 . S
C755 C761 1.504 . S
C756 C757 1.373 . S
C756 C760 1.308 . S
C757 C756 1.373 . S
C757 C758 1.429 1_455 S
C757 H784 0.932 . S
C758 C755 1.358 . S
C758 C757 1.429 1_655 S
C758 H785 0.930 . S
C759 C755 1.332 . S
C759 C760 1.394 1_655 S
C759 H786 0.932 . S
C760 C756 1.308 . S
C760 C759 1.394 1_455 S
C760 H787 0.929 . S
C761 Tb752 2.764 . S
C761 C755 1.504 . S
C761 O773 1.239 . S
C761 O774 1.263 . S
O762 Tb752 2.325 . S
O762 C772 1.236 . S
O763 Tb753 2.322 . S
O763 C772 1.257 . S
O764 Tb753 2.349 . S
O764 C775 1.261 . S
O765 Tb752 2.303 . S
O765 C775 1.257 . S
O766 Tb753 2.415 . S
O766 C782 1.239 . S
O767 Tb753 2.399 . S
O767 C782 1.263 . S
O768 Tb753 2.325 . S
O768 C783 1.236 . S
O769 Tb752 2.322 . S
O769 C783 1.257 . S
O770 Tb752 2.349 . S
O770 C754 1.261 . S
O771 Tb753 2.303 . S
O771 C754 1.257 . S
C772 O762 1.236 . S
C772 O763 1.257 . S
O773 Tb752 2.415 . S
O773 C761 1.239 . S
O774 Tb752 2.399 . S
O774 C761 1.263 . S
C775 O764 1.261 . S
C775 O765 1.257 . S
C776 C779 1.358 . S
C776 C780 1.332 . S
C776 C782 1.504 . S
C777 C778 1.373 . S
C777 C781 1.308 . S
C778 C777 1.373 . S
C778 C779 1.429 . S
C778 H788 0.932 . S
C779 C776 1.358 . S
C779 C778 1.429 . S
C779 H789 0.930 . S
C780 C776 1.332 . S
C780 C781 1.394 . S
C780 H790 0.932 . S
C781 C777 1.308 . S
C781 C780 1.394 . S
C781 H791 0.929 . S
C782 Tb753 2.764 . S
C782 O766 1.239 . S
C782 O767 1.263 . S
C782 C776 1.504 . S
C783 O768 1.236 . S
C783 O769 1.257 . S
H784 C757 0.932 . S
H785 C758 0.930 . S
H786 C759 0.932 . S
H787 C760 0.929 . S
H788 C778 0.932 . S
H789 C779 0.930 . S
H790 C780 0.932 . S
H791 C781 0.929 . S
Tb792 C801 2.764 . S
Tb792 O802 2.325 . S
Tb792 O805 2.303 . S
Tb792 O809 2.322 . S
Tb792 O810 2.349 . S
Tb792 O813 2.415 . S
Tb792 O814 2.399 . S
Tb793 O803 2.322 . S
Tb793 O804 2.349 . S
Tb793 O806 2.415 . S
Tb793 O807 2.399 . S
Tb793 O808 2.325 . S
Tb793 O811 2.303 . S
Tb793 C822 2.764 . S
C794 O810 1.261 . S
C794 O811 1.257 . S
C795 C798 1.358 . S
C795 C799 1.332 . S
C795 C801 1.504 . S
C796 C797 1.373 . S
C796 C800 1.308 . S
C797 C796 1.373 . S
C797 C798 1.429 1_554 S
C797 H824 0.932 . S
C798 C795 1.358 . S
C798 C797 1.429 1_556 S
C798 H825 0.930 . S
C799 C795 1.332 . S
C799 C800 1.394 1_556 S
C799 H826 0.932 . S
C800 C796 1.308 . S
C800 C799 1.394 1_554 S
C800 H827 0.929 . S
C801 Tb792 2.764 . S
C801 C795 1.504 . S
C801 O813 1.239 . S
C801 O814 1.263 . S
O802 Tb792 2.325 . S
O802 C812 1.236 . S
O803 Tb793 2.322 . S
O803 C812 1.257 . S
O804 Tb793 2.349 . S
O804 C815 1.261 . S
O805 Tb792 2.303 . S
O805 C815 1.257 . S
O806 Tb793 2.415 . S
O806 C822 1.239 . S
O807 Tb793 2.399 . S
O807 C822 1.263 . S
O808 Tb793 2.325 . S
O808 C823 1.236 . S
O809 Tb792 2.322 . S
O809 C823 1.257 . S
O810 Tb792 2.349 . S
O810 C794 1.261 . S
O811 Tb793 2.303 . S
O811 C794 1.257 . S
C812 O802 1.236 . S
C812 O803 1.257 . S
O813 Tb792 2.415 . S
O813 C801 1.239 . S
O814 Tb792 2.399 . S
O814 C801 1.263 . S
C815 O804 1.261 . S
C815 O805 1.257 . S
C816 C819 1.358 . S
C816 C820 1.332 . S
C816 C822 1.504 . S
C817 C818 1.373 . S
C817 C821 1.308 . S
C818 C817 1.373 . S
C818 C819 1.429 . S
C818 H828 0.932 . S
C819 C816 1.358 . S
C819 C818 1.429 . S
C819 H829 0.930 . S
C820 C816 1.332 . S
C820 C821 1.394 . S
C820 H830 0.932 . S
C821 C817 1.308 . S
C821 C820 1.394 . S
C821 H831 0.929 . S
C822 Tb793 2.764 . S
C822 O806 1.239 . S
C822 O807 1.263 . S
C822 C816 1.504 . S
C823 O808 1.236 . S
C823 O809 1.257 . S
H824 C797 0.932 . S
H825 C798 0.930 . S
H826 C799 0.932 . S
H827 C800 0.929 . S
H828 C818 0.932 . S
H829 C819 0.930 . S
H830 C820 0.932 . S
H831 C821 0.929 . S
Tb832 C841 2.764 . S
Tb832 O842 2.325 . S
Tb832 O845 2.303 . S
Tb832 O849 2.322 . S
Tb832 O850 2.349 . S
Tb832 O853 2.415 . S
Tb832 O854 2.399 . S
Tb833 O843 2.322 . S
Tb833 O844 2.349 . S
Tb833 O846 2.415 . S
Tb833 O847 2.399 . S
Tb833 O848 2.325 . S
Tb833 O851 2.303 . S
Tb833 C862 2.764 1_565 S
C834 O850 1.261 . S
C834 O851 1.257 . S
C835 C838 1.358 . S
C835 C839 1.332 . S
C835 C841 1.504 . S
C836 C837 1.373 . S
C836 C840 1.308 . S
C837 C836 1.373 . S
C837 C838 1.429 . S
C837 H864 0.932 . S
C838 C835 1.358 . S
C838 C837 1.429 . S
C838 H865 0.930 . S
C839 C835 1.332 . S
C839 C840 1.394 . S
C839 H866 0.932 . S
C840 C836 1.308 . S
C840 C839 1.394 . S
C840 H867 0.929 . S
C841 Tb832 2.764 . S
C841 C835 1.504 . S
C841 O853 1.239 . S
C841 O854 1.263 . S
O842 Tb832 2.325 . S
O842 C852 1.236 . S
O843 Tb833 2.322 . S
O843 C852 1.257 . S
O844 Tb833 2.349 . S
O844 C855 1.261 . S
O845 Tb832 2.303 . S
O845 C855 1.257 . S
O846 Tb833 2.415 . S
O846 C862 1.239 1_565 S
O847 Tb833 2.399 . S
O847 C862 1.263 1_565 S
O848 Tb833 2.325 . S
O848 C863 1.236 . S
O849 Tb832 2.322 . S
O849 C863 1.257 . S
O850 Tb832 2.349 . S
O850 C834 1.261 . S
O851 Tb833 2.303 . S
O851 C834 1.257 . S
C852 O842 1.236 . S
C852 O843 1.257 . S
O853 Tb832 2.415 . S
O853 C841 1.239 . S
O854 Tb832 2.399 . S
O854 C841 1.263 . S
C855 O844 1.261 . S
C855 O845 1.257 . S
C856 C859 1.358 . S
C856 C860 1.332 . S
C856 C862 1.504 . S
C857 C858 1.373 . S
C857 C861 1.308 . S
C858 C857 1.373 . S
C858 C859 1.429 . S
C858 H868 0.932 . S
C859 C856 1.358 . S
C859 C858 1.429 . S
C859 H869 0.930 . S
C860 C856 1.332 . S
C860 C861 1.394 . S
C860 H870 0.932 . S
C861 C857 1.308 . S
C861 C860 1.394 . S
C861 H871 0.929 . S
C862 Tb833 2.764 1_545 S
C862 O846 1.239 1_545 S
C862 O847 1.263 1_545 S
C862 C856 1.504 . S
C863 O848 1.236 . S
C863 O849 1.257 . S
H864 C837 0.932 . S
H865 C838 0.930 . S
H866 C839 0.932 . S
H867 C840 0.929 . S
H868 C858 0.932 . S
H869 C859 0.930 . S
H870 C860 0.932 . S
H871 C861 0.929 . S
Tb872 C881 2.764 . S
Tb872 O882 2.325 . S
Tb872 O885 2.303 . S
Tb872 O889 2.322 . S
Tb872 O890 2.349 . S
Tb872 O893 2.415 . S
Tb872 O894 2.399 . S
Tb873 O883 2.322 . S
Tb873 O884 2.349 . S
Tb873 O886 2.415 . S
Tb873 O887 2.399 . S
Tb873 O888 2.325 . S
Tb873 O891 2.303 . S
Tb873 C902 2.764 . S
C874 O890 1.261 . S
C874 O891 1.257 . S
C875 C878 1.358 . S
C875 C879 1.332 . S
C875 C881 1.504 . S
C876 C877 1.373 . S
C876 C880 1.308 . S
C877 C876 1.373 . S
C877 C878 1.429 . S
C877 H904 0.932 . S
C878 C875 1.358 . S
C878 C877 1.429 . S
C878 H905 0.930 . S
C879 C875 1.332 . S
C879 C880 1.394 . S
C879 H906 0.932 . S
C880 C876 1.308 . S
C880 C879 1.394 . S
C880 H907 0.929 . S
C881 Tb872 2.764 . S
C881 C875 1.504 . S
C881 O893 1.239 . S
C881 O894 1.263 . S
O882 Tb872 2.325 . S
O882 C892 1.236 . S
O883 Tb873 2.322 . S
O883 C892 1.257 . S
O884 Tb873 2.349 . S
O884 C895 1.261 . S
O885 Tb872 2.303 . S
O885 C895 1.257 . S
O886 Tb873 2.415 . S
O886 C902 1.239 . S
O887 Tb873 2.399 . S
O887 C902 1.263 . S
O888 Tb873 2.325 . S
O888 C903 1.236 . S
O889 Tb872 2.322 . S
O889 C903 1.257 . S
O890 Tb872 2.349 . S
O890 C874 1.261 . S
O891 Tb873 2.303 . S
O891 C874 1.257 . S
C892 O882 1.236 . S
C892 O883 1.257 . S
O893 Tb872 2.415 . S
O893 C881 1.239 . S
O894 Tb872 2.399 . S
O894 C881 1.263 . S
C895 O884 1.261 . S
C895 O885 1.257 . S
C896 C899 1.358 . S
C896 C900 1.332 . S
C896 C902 1.504 . S
C897 C898 1.373 . S
C897 C901 1.308 . S
C898 C897 1.373 . S
C898 C899 1.429 . S
C898 H908 0.932 . S
C899 C896 1.358 . S
C899 C898 1.429 . S
C899 H909 0.930 . S
C900 C896 1.332 . S
C900 C901 1.394 . S
C900 H910 0.932 . S
C901 C897 1.308 . S
C901 C900 1.394 . S
C901 H911 0.929 . S
C902 Tb873 2.764 . S
C902 O886 1.239 . S
C902 O887 1.263 . S
C902 C896 1.504 . S
C903 O888 1.236 . S
C903 O889 1.257 . S
H904 C877 0.932 . S
H905 C878 0.930 . S
H906 C879 0.932 . S
H907 C880 0.929 . S
H908 C898 0.932 . S
H909 C899 0.930 . S
H910 C900 0.932 . S
H911 C901 0.929 . S
Tb912 C921 2.764 1_455 S
Tb912 O922 2.325 . S
Tb912 O925 2.303 . S
Tb912 O929 2.322 . S
Tb912 O930 2.349 . S
Tb912 O933 2.415 1_455 S
Tb912 O934 2.399 1_455 S
Tb913 O923 2.322 . S
Tb913 O924 2.349 1_554 S
Tb913 O926 2.415 . S
Tb913 O927 2.397 1_554 S
Tb913 O928 2.325 . S
Tb913 O931 2.303 . S
Tb913 C942 2.764 . S
C914 O930 1.261 . S
C914 O931 1.257 . S
C915 C918 1.358 . S
C915 C919 1.332 . S
C915 C921 1.504 . S
C916 C917 1.373 . S
C916 C920 1.308 . S
C917 C916 1.373 . S
C917 C918 1.429 . S
C917 H944 0.932 . S
C918 C915 1.358 . S
C918 C917 1.429 . S
C918 H945 0.930 . S
C919 C915 1.332 . S
C919 C920 1.394 . S
C919 H946 0.932 . S
C920 C916 1.308 . S
C920 C919 1.394 . S
C920 H947 0.929 . S
C921 Tb912 2.764 1_655 S
C921 C915 1.504 . S
C921 O933 1.239 . S
C921 O934 1.263 . S
O922 Tb912 2.325 . S
O922 C932 1.236 . S
O923 Tb913 2.322 . S
O923 C932 1.257 . S
O924 Tb913 2.349 1_556 S
O924 C935 1.261 . S
O925 Tb912 2.303 . S
O925 C935 1.257 1_554 S
O926 Tb913 2.415 . S
O926 C942 1.239 . S
O927 Tb913 2.397 1_556 S
O927 C942 1.260 1_556 S
O928 Tb913 2.325 . S
O928 C943 1.236 . S
O929 Tb912 2.322 . S
O929 C943 1.257 . S
O930 Tb912 2.349 . S
O930 C914 1.261 . S
O931 Tb913 2.303 . S
O931 C914 1.257 . S
C932 O922 1.236 . S
C932 O923 1.257 . S
O933 Tb912 2.415 1_655 S
O933 C921 1.239 . S
O934 Tb912 2.399 1_655 S
O934 C921 1.263 . S
C935 O924 1.261 . S
C935 O925 1.257 1_556 S
C936 C939 1.358 1_554 S
C936 C940 1.332 . S
C936 C942 1.504 . S
C937 C938 1.373 1_554 S
C937 C941 1.308 . S
C938 C937 1.373 1_556 S
C938 C939 1.429 . S
C938 H948 0.932 . S
C939 C936 1.358 1_556 S
C939 C938 1.429 . S
C939 H949 0.930 . S
C940 C936 1.332 . S
C940 C941 1.394 . S
C940 H950 0.932 . S
C941 C937 1.308 . S
C941 C940 1.394 . S
C941 H951 0.929 . S
C942 Tb913 2.764 . S
C942 O926 1.239 . S
C942 O927 1.260 1_554 S
C942 C936 1.504 . S
C943 O928 1.236 . S
C943 O929 1.257 . S
H944 C917 0.932 . S
H945 C918 0.930 . S
H946 C919 0.932 . S
H947 C920 0.929 . S
H948 C938 0.932 . S
H949 C939 0.930 . S
H950 C940 0.932 . S
H951 C941 0.929 . S
C101 C343 3.988 1_655 S
C57 C354 2.921 . S
C73 C423 2.606 1_565 S
C436 C78 1.154 . S
C21 C492 3.732 1_565 S
C543 C31 3.623 . S
C572 C49 3.321 . S
C0 C623 3.717 . S
C314 C218 2.771 1_455 S
C229 C356 2.132 . S
C394 C257 1.061 . S
C463 C164 3.067 1_556 S
C216 C497 0.371 . S
C514 C231 1.633 . S
C577 C255 1.183 . S
C594 C166 3.317 . S
C316 C143 5.356 . S
C265 C655 2.140 . S
C676 C299 4.434 . S
C735 C291 0.673 . S
C104 C596 2.500 . S
C117 C396 2.056 . S
C304 C754 3.106 . S
C823 C278 1.541 . S
C332 C60 4.183 1_545 S
C815 C96 2.978 . S
C88 C412 2.569 . S
C65 C777 1.704 . S
C503 C10 3.544 . S
C44 C692 3.515 . S
C583 C34 3.006 1_544 S
C852 C13 3.864 . S
C335 C138 3.403 1_556 S
C817 C296 2.449 . S
C112 C415 1.479 . S
C270 C772 3.105 . S
C140 C476 0.203 . S
C695 C294 2.115 . S
C114 C556 1.001 . S
C268 C855 3.170 1_554 S
C169 C337 5.869 1_554 S
C161 C634 2.233 . S
C234 C537 5.070 . S
C226 C714 0.926 . S
C857 C247 3.134 . S
C195 C417 2.705 . S
C455 C239 3.514 . S
C372 C187 1.954 . S
C75 C903 3.977 . S
C794 C83 2.930 . S
C99 C943 2.609 . S
C52 C756 1.136 . S
C47 C652 3.719 . S
C703 C5 3.641 . S
C732 C23 3.293 . S
C863 C26 3.711 . S
C874 C244 2.891 . S
C177 C796 2.147 . S
C914 C192 1.066 . S
C783 C203 3.072 . S
C657 C242 0.440 . S
C179 C674 1.697 . S
C737 C190 1.192 . S
C205 C834 3.317 . S
C876 C286 5.258 . S
C122 C495 2.122 . S
C516 C130 4.400 . S
C575 C148 0.689 . S
C836 C273 2.551 . S
C260 C916 2.078 . S
C434 C135 3.096 . S
C383 C109 1.529 . S
C86 C892 4.183 . S
C375 C70 2.968 . S
C62 C932 2.566 . S
C91 C457 1.640 . S
C36 C663 3.549 1_556 S
C532 C18 3.513 . S
C8 C743 3.004 . S
C39 C612 3.865 . S
C895 C307 3.376 . S
C153 C377 2.549 . S
C935 C281 1.452 . S
C127 C452 3.131 . S
C309 C636 0.173 . S
C535 C151 1.987 . S
C283 C716 1.031 1_455 S
C615 C125 3.175 . S
C897 C221 5.904 . S
C474 C200 2.258 1_545 S
C208 C697 5.110 . S
C554 C174 0.949 . S
C182 C617 3.148 . S
C156 C937 2.699 . S
C775 C213 3.459 . S
C812 C252 1.945 . S
