# Generated by pormake.
# Topology pth, (4,4)-cn, num edge types: 1
# Building blocks:
#     Node 0, Type 0, BuildingBlock: CEKHIL_clean_sbu_0, # of connection points: 4
#     Node 1, Type 0, BuildingBlock: CEKHIL_clean_sbu_0, # of connection points: 4
#     Node 2, Type 0, BuildingBlock: CEKHIL_clean_sbu_0, # of connection points: 4
#     Node 3, Type 1, BuildingBlock: KOZSID_clean_sbu_0, # of connection points: 4
#     Node 4, Type 1, BuildingBlock: KOZSID_clean_sbu_0, # of connection points: 4
#     Node 5, Type 1, BuildingBlock: KOZSID_clean_sbu_0, # of connection points: 4
#     Edge 6, Type (0, 1), BuildingBlock: AJUNOK_clean_linker_0, # of connection points: 2
#     Edge 7, Type (0, 1), BuildingBlock: AJUNOK_clean_linker_0, # of connection points: 2
#     Edge 8, Type (0, 1), BuildingBlock: AJUNOK_clean_linker_0, # of connection points: 2
#     Edge 9, Type (0, 1), BuildingBlock: AJUNOK_clean_linker_0, # of connection points: 2
#     Edge 10, Type (0, 1), BuildingBlock: AJUNOK_clean_linker_0, # of connection points: 2
#     Edge 11, Type (0, 1), BuildingBlock: AJUNOK_clean_linker_0, # of connection points: 2
#     Edge 12, Type (0, 1), BuildingBlock: AJUNOK_clean_linker_0, # of connection points: 2
#     Edge 13, Type (0, 1), BuildingBlock: AJUNOK_clean_linker_0, # of connection points: 2
#     Edge 14, Type (0, 1), BuildingBlock: AJUNOK_clean_linker_0, # of connection points: 2
#     Edge 15, Type (0, 1), BuildingBlock: AJUNOK_clean_linker_0, # of connection points: 2
#     Edge 16, Type (0, 1), BuildingBlock: AJUNOK_clean_linker_0, # of connection points: 2
#     Edge 17, Type (0, 1), BuildingBlock: AJUNOK_clean_linker_0, # of connection points: 2
# Relax obj value: 0.006
# Max RMSD: 0.062
# Mean RMSD: 0.042
data_MOF--net-pth--node1-CEKHIL_clean_sbu_0--node2-KOZSID_clean_sbu_0--edge1-AJUNOK_clean_linker_0
_symmetry_space_group_name_H-M    P1
_symmetry_Int_Tables_number       1
_symmetry_cell_setting            triclinic
loop_
_symmetry_equiv_pos_as_xyz
'x, y, z'
_cell_length_a     19.901199
_cell_length_b     19.974478
_cell_length_c     45.8898
_cell_angle_alpha  87.826965
_cell_angle_beta   86.59764
_cell_angle_gamma 120.3163
loop_
_atom_site_label
_atom_site_type_symbol
_atom_site_fract_x
_atom_site_fract_y
_atom_site_fract_z
_atom_type_partial_charge
Co0 Co 0.09342 0.06889 0.07016 0.0
O1 O 0.04216 0.98757 0.10162 0.0
O2 O 0.14459 0.00808 0.07271 0.0
C3 C 0.09747 0.16463 0.09631 0.0
O4 O 0.16636 0.14938 0.03692 0.0
Co5 Co 0.01531 0.15553 0.04486 0.0
O6 O 0.1181 0.22466 0.02275 0.0
C7 C 0.96708 0.99778 0.02729 0.0
C8 C 0.09387 0.96806 0.09485 0.0
C9 C 0.17168 0.20753 0.02155 0.0
O10 O 0.02082 0.99699 0.04149 0.0
O11 O 0.95283 0.05349 0.0276 0.0
O12 O 0.15021 0.145 0.09822 0.0
O13 O 0.04114 0.12262 0.08068 0.0
Co14 Co 0.06329 0.11024 0.37975 0.0
O15 O 0.01712 0.14014 0.34985 0.0
O16 O 0.11365 0.22302 0.37428 0.0
C17 C 0.07458 0.02133 0.35365 0.0
O18 O 0.12993 0.10175 0.41074 0.0
Co19 Co 0.97902 0.94269 0.40893 0.0
O20 O 0.07928 0.9756 0.4257 0.0
C21 C 0.92872 0.05097 0.42827 0.0
C22 C 0.06717 0.21188 0.35387 0.0
C23 C 0.13257 0.04679 0.42545 0.0
O24 O 0.98407 0.10614 0.41097 0.0
O25 O 0.91468 0.98091 0.42967 0.0
O26 O 0.12649 0.09492 0.34958 0.0
O27 O 0.01467 0.00438 0.37167 0.0
Co28 Co 0.08314 0.06816 0.71368 0.0
O29 O 0.16671 0.12284 0.68277 0.0
O30 O 0.14638 0.01956 0.70994 0.0
C31 C 0.98809 0.06446 0.68761 0.0
O32 O 1.0011 0.99226 0.74611 0.0
Co33 Co 0.99161 0.14081 0.74082 0.0
O34 O 0.92403 0.03782 0.76238 0.0
C35 C 0.14896 0.18982 0.75878 0.0
C36 C 0.18745 0.07209 0.68857 0.0
C37 C 0.94235 0.9853 0.7623 0.0
O38 O 0.1523 0.13853 0.74347 0.0
O39 O 0.09244 0.20311 0.7588 0.0
O40 O 0.0095 0.01334 0.68468 0.0
O41 O 0.02804 0.11921 0.70423 0.0
C42 C 0.1726 0.73308 0.17711 0.0
C43 C 0.2461 0.79211 0.16563 0.0
C44 C 0.29925 0.7829 0.18004 0.0
C45 C 0.25559 0.71943 0.1996 0.0
N46 N 0.17758 0.68693 0.19841 0.0
Co47 Co 0.0932 0.59697 0.22454 0.0
N48 N 0.17166 0.58897 0.24791 0.0
C49 C 0.25035 0.63507 0.24395 0.0
C50 C 0.28933 0.61376 0.26229 0.0
C51 C 0.2323 0.54965 0.27881 0.0
C52 C 0.16137 0.53563 0.26965 0.0
N53 N 0.00879 0.50671 0.25042 0.0
C54 C 0.01381 0.46175 0.27213 0.0
C55 C 0.94041 0.40445 0.28443 0.0
C56 C 0.88714 0.41206 0.26947 0.0
C57 C 0.93078 0.47361 0.24911 0.0
N58 N 0.01468 0.60546 0.20146 0.0
C59 C 0.93595 0.55969 0.2055 0.0
C60 C 0.89707 0.5797 0.1866 0.0
C61 C 0.95423 0.64295 0.16975 0.0
C62 C 0.02498 0.65823 0.17953 0.0
N63 N 0.09638 0.52264 0.19735 0.0
C64 C 0.09988 0.41147 0.1615 0.0
C65 C 0.0302 0.41067 0.16898 0.0
C66 C 0.02962 0.46556 0.18694 0.0
C67 C 0.16787 0.46979 0.17218 0.0
C68 C 0.16508 0.52498 0.18933 0.0
N69 N 0.09014 0.67123 0.25171 0.0
C70 C 0.01797 0.71954 0.2794 0.0
C71 C 0.08717 0.78324 0.28691 0.0
C72 C 0.15761 0.78799 0.27744 0.0
C73 C 0.15779 0.7323 0.25992 0.0
C74 C 0.02073 0.6646 0.26203 0.0
H75 H 0.21359 0.7405 0.25305 0.0
H76 H 0.96598 0.61791 0.25689 0.0
H77 H 0.97418 0.45999 0.19234 0.0
H78 H 0.21931 0.56824 0.19622 0.0
C79 C 0.28593 0.69368 0.22111 0.0
C80 C 0.0999 0.72533 0.16798 0.0
C81 C 0.0862 0.46852 0.28103 0.0
C82 C 0.90027 0.49985 0.22785 0.0
H83 H 0.26012 0.8384 0.1491 0.0
H84 H 0.36222 0.81991 0.17736 0.0
H85 H 0.3519 0.63998 0.26285 0.0
H86 H 0.24225 0.51591 0.29515 0.0
H87 H 0.92685 0.36062 0.302 0.0
H88 H 0.82411 0.37604 0.27267 0.0
H89 H 0.83456 0.55242 0.18555 0.0
H90 H 0.94483 0.6751 0.15253 0.0
H91 H 0.97575 0.36746 0.16117 0.0
H92 H 0.2232 0.47227 0.16801 0.0
H93 H 0.9618 0.71295 0.2863 0.0
H94 H 0.21276 0.83476 0.28342 0.0
C95 C 0.42933 1.00166 0.6045 0.0
C96 C 0.36835 0.92867 0.61524 0.0
C97 C 0.3776 0.87552 0.60048 0.0
C98 C 0.44293 0.91862 0.58141 0.0
N99 N 0.47665 0.99634 0.58324 0.0
Co100 Co 0.56891 0.08004 0.55764 0.0
N101 N 0.57835 1.00149 0.5344 0.0
C102 C 0.53173 0.9232 0.53797 0.0
C103 C 0.55277 0.88428 0.51897 0.0
C104 C 0.61767 0.94096 0.5026 0.0
C105 C 0.63289 0.01147 0.51278 0.0
N106 N 0.66103 0.16365 0.53199 0.0
C107 C 0.7089 0.15825 0.51101 0.0
C108 C 0.76874 0.23113 0.4997 0.0
C109 C 0.75862 0.28441 0.51405 0.0
C110 C 0.69372 0.24135 0.53335 0.0
N111 N 0.55959 0.15852 0.58099 0.0
C112 C 0.60613 0.23679 0.57729 0.0
C113 C 0.58563 0.27582 0.59644 0.0
C114 C 0.52135 0.21922 0.61314 0.0
C115 C 0.50593 0.14862 0.60302 0.0
N116 N 0.64164 0.07665 0.585 0.0
C117 C 0.75324 0.07279 0.61954 0.0
C118 C 0.75743 0.143 0.61117 0.0
C119 C 0.70205 0.14368 0.5939 0.0
C120 C 0.68999 0.00427 0.61133 0.0
C121 C 0.63514 0.00746 0.59443 0.0
N122 N 0.49619 0.08334 0.53017 0.0
C123 C 0.44625 0.15398 0.50347 0.0
C124 C 0.38534 0.08486 0.49451 0.0
C125 C 0.38262 0.01556 0.50304 0.0
C126 C 0.43759 0.01606 0.5207 0.0
C127 C 0.50092 0.15195 0.52096 0.0
H128 H 0.43051 0.96087 0.52671 0.0
H129 H 0.54567 0.20653 0.52716 0.0
H130 H 0.70988 0.19927 0.58777 0.0
H131 H 0.58861 0.95313 0.5889 0.0
C132 C 0.47046 0.88795 0.56014 0.0
C133 C 0.43789 0.07423 0.61435 0.0
C134 C 0.70227 0.08568 0.50228 0.0
C135 C 0.66655 0.27193 0.55479 0.0
H136 H 0.32079 0.91495 0.63155 0.0
H137 H 0.33964 0.81293 0.60268 0.0
H138 H 0.52525 0.82204 0.51764 0.0
H139 H 0.65122 0.93138 0.48557 0.0
H140 H 0.81616 0.24462 0.48335 0.0
H141 H 0.79595 0.34706 0.51153 0.0
H142 H 0.6132 0.33808 0.59772 0.0
H143 H 0.48863 0.22889 0.63047 0.0
H144 H 0.80338 0.19764 0.61785 0.0
H145 H 0.68352 0.94823 0.61737 0.0
H146 H 0.45068 0.20925 0.49777 0.0
H147 H 0.33746 0.96045 0.49634 0.0
C148 C 0.72282 0.64317 0.8458 0.0
C149 C 0.78242 0.63164 0.83485 0.0
C150 C 0.77103 0.56524 0.84929 0.0
C151 C 0.70564 0.54019 0.86828 0.0
N152 N 0.67389 0.58604 0.86664 0.0
Co153 Co 0.58134 0.57333 0.89177 0.0
N154 N 0.56959 0.48031 0.91515 0.0
C155 C 0.61571 0.44896 0.91188 0.0
C156 C 0.59128 0.38314 0.92996 0.0
C157 C 0.525 0.37107 0.94554 0.0
C158 C 0.51294 0.4307 0.93611 0.0
N159 N 0.48845 0.56053 0.91663 0.0
C160 C 0.44072 0.50455 0.9379 0.0
C161 C 0.38301 0.51785 0.94975 0.0
C162 C 0.39293 0.58295 0.9348 0.0
C163 C 0.45624 0.60606 0.91494 0.0
N164 N 0.59317 0.66666 0.86866 0.0
C165 C 0.54746 0.69855 0.87203 0.0
C166 C 0.56979 0.76223 0.85302 0.0
C167 C 0.63455 0.77272 0.83686 0.0
C168 C 0.64847 0.71493 0.84717 0.0
N169 N 0.50947 0.50312 0.86383 0.0
C170 C 0.39729 0.39603 0.82882 0.0
C171 C 0.39514 0.46146 0.83719 0.0
C172 C 0.45094 0.51348 0.85452 0.0
C173 C 0.45909 0.38719 0.837 0.0
C174 C 0.51421 0.44109 0.85437 0.0
N175 N 0.65309 0.64347 0.91978 0.0
C176 C 0.69382 0.75344 0.94918 0.0
C177 C 0.75975 0.75085 0.95639 0.0
C178 C 0.7702 0.69187 0.94556 0.0
C179 C 0.7163 0.6389 0.92759 0.0
C180 C 0.64216 0.70017 0.93103 0.0
H181 H 0.72775 0.59564 0.91987 0.0
H182 H 0.59439 0.707 0.9261 0.0
H183 H 0.44449 0.56091 0.86049 0.0
H184 H 0.55923 0.43056 0.86034 0.0
C185 C 0.67704 0.47836 0.88974 0.0
C186 C 0.7174 0.71122 0.83691 0.0
C187 C 0.44478 0.43557 0.94652 0.0
C188 C 0.48532 0.66876 0.89385 0.0
H189 H 0.83048 0.66845 0.81869 0.0
H190 H 0.80782 0.53991 0.84704 0.0
H191 H 0.61687 0.34654 0.9309 0.0
H192 H 0.48861 0.32255 0.96141 0.0
H193 H 0.33723 0.48296 0.96697 0.0
H194 H 0.35728 0.60938 0.93767 0.0
H195 H 0.54305 0.79771 0.85149 0.0
H196 H 0.66881 0.81886 0.81985 0.0
H197 H 0.34977 0.4722 0.83066 0.0
H198 H 0.46364 0.33777 0.83076 0.0
H199 H 0.68226 0.79721 0.95731 0.0
H200 H 0.82078 0.68776 0.95016 0.0
C201 C 0.037 0.21307 0.13255 0.0
C202 C 0.0994 0.22849 0.11213 0.0
C203 C 0.03796 0.27233 0.14836 0.0
C204 C 0.10049 0.35 0.14383 0.0
H205 H 0.98779 0.15432 0.13681 0.0
H206 H 0.98962 0.25661 0.16461 0.0
S207 S 0.27403 0.42092 0.08985 0.0
N208 N 0.2235 0.32612 0.08697 0.0
N209 N 0.22379 0.43895 0.1151 0.0
C210 C 0.16227 0.36616 0.1226 0.0
C211 C 0.16203 0.30513 0.10712 0.0
C212 C 0.84052 0.10571 0.43668 0.0
C213 C 0.8784 0.06821 0.44789 0.0
C214 C 0.78507 0.1134 0.4545 0.0
C215 C 0.76736 0.08567 0.48425 0.0
H216 H 0.85117 0.12599 0.41372 0.0
H217 H 0.75428 0.13922 0.44481 0.0
S218 S 0.85677 0.99108 0.52482 0.0
N219 N 0.89773 0.00744 0.49094 0.0
N220 N 0.79629 0.02491 0.52455 0.0
C221 C 0.80779 0.05174 0.49596 0.0
C222 C 0.86264 0.0423 0.47776 0.0
C223 C 0.85583 0.8404 0.77113 0.0
C224 C 0.89372 0.91425 0.78216 0.0
C225 C 0.80063 0.77405 0.78913 0.0
C226 C 0.78312 0.77931 0.81885 0.0
H227 H 0.86602 0.83454 0.74816 0.0
H228 H 0.76962 0.71879 0.77956 0.0
S229 S 0.87245 0.95781 0.85885 0.0
N230 N 0.9132 0.98791 0.82492 0.0
N231 N 0.81227 0.86304 0.85888 0.0
C232 C 0.82373 0.85215 0.83037 0.0
C233 C 0.87833 0.91966 0.81199 0.0
C234 C 0.06716 0.88946 0.14236 0.0
C235 C 0.09659 0.90586 0.11267 0.0
C236 C 0.06985 0.83214 0.16008 0.0
C237 C 0.10094 0.78807 0.14872 0.0
H238 H 0.04268 0.92189 0.15216 0.0
H239 H 0.04702 0.82181 0.18286 0.0
S240 S 0.18053 0.80392 0.07206 0.0
N241 N 0.15597 0.87153 0.07256 0.0
N242 N 0.1581 0.7617 0.10568 0.0
C243 C 0.1292 0.80266 0.119 0.0
C244 C 0.12785 0.86211 0.10104 0.0
C245 C 0.18363 0.01579 0.46915 0.0
C246 C 0.19807 0.06478 0.44381 0.0
C247 C 0.24411 0.02482 0.48571 0.0
C248 C 0.32234 0.08276 0.47761 0.0
H249 H 0.12482 0.9691 0.47618 0.0
H250 H 0.22936 0.98511 0.50492 0.0
S251 S 0.39183 0.22777 0.41345 0.0
N252 N 0.29625 0.17541 0.41189 0.0
N253 N 0.41077 0.19147 0.44269 0.0
C254 C 0.33764 0.13394 0.4528 0.0
C255 C 0.27542 0.12514 0.43599 0.0
C256 C 0.29075 0.26082 0.76952 0.0
C257 C 0.21183 0.23551 0.77801 0.0
C258 C 0.35075 0.31095 0.78642 0.0
C259 C 0.33375 0.33709 0.81243 0.0
H260 H 0.30648 0.24423 0.74917 0.0
H261 H 0.41091 0.3315 0.77857 0.0
S262 S 0.13585 0.27669 0.84674 0.0
N263 N 0.11977 0.23325 0.81591 0.0
N264 N 0.23168 0.32588 0.84756 0.0
C265 C 0.25481 0.30833 0.82192 0.0
C266 C 0.19415 0.258 0.80477 0.0
C267 C 0.84923 0.0116 0.67644 0.0
C268 C 0.92907 0.06623 0.67008 0.0
C269 C 0.79275 0.01414 0.6601 0.0
C270 C 0.81425 0.0709 0.63659 0.0
H271 H 0.83027 0.96741 0.69442 0.0
H272 H 0.73172 0.97188 0.66619 0.0
S273 S 0.01768 0.22203 0.60966 0.0
N274 N 0.02769 0.17601 0.63823 0.0
N275 N 0.92275 0.17926 0.6067 0.0
C276 C 0.89461 0.12451 0.62969 0.0
C277 C 0.95167 0.1225 0.64663 0.0
C278 C 0.88885 0.94925 0.98436 0.0
C279 C 0.91997 0.93341 1.0087 0.0
C280 C 0.83952 0.89029 0.96729 0.0
C281 C 0.81801 0.81222 0.97385 0.0
H282 H 0.90233 0.00803 0.97842 0.0
H283 H 0.81741 0.90613 0.94886 0.0
S284 S 0.8847 0.73931 0.03484 0.0
N285 N 0.92786 0.834 0.03795 0.0
N286 N 0.83329 0.72234 1.00621 0.0
C287 C 0.85032 0.79549 0.99764 0.0
C288 C 0.90159 0.85615 0.01497 0.0
C289 C 0.02985 0.88192 0.34505 0.0
C290 C 0.08061 0.96173 0.337 0.0
C291 C 0.03254 0.82467 0.32893 0.0
C292 C 0.08596 0.84487 0.30404 0.0
H293 H 0.98757 0.86337 0.36397 0.0
H294 H 0.99269 0.76406 0.33613 0.0
S295 S 0.2282 0.04559 0.27257 0.0
N296 N 0.18448 0.0578 0.30187 0.0
N297 N 0.18823 0.95064 0.27136 0.0
C298 C 0.1366 0.92449 0.29563 0.0
C299 C 0.13425 0.98271 0.31214 0.0
C300 C 0.27151 0.10522 0.64138 0.0
C301 C 0.25239 0.0726 0.67056 0.0
C302 C 0.331 0.10494 0.62342 0.0
C303 C 0.37465 0.07325 0.63406 0.0
H304 H 0.23931 0.13003 0.63212 0.0
H305 H 0.34298 0.12963 0.60098 0.0
S306 S 0.3524 0.98613 0.70932 0.0
N307 N 0.28401 0.00994 0.70948 0.0
N308 N 0.39797 0.01246 0.676 0.0
C309 C 0.35768 0.04227 0.66335 0.0
C310 C 0.29598 0.04108 0.68151 0.0
C311 C 0.31697 0.29447 1.01176 0.0
C312 C 0.2424 0.25726 1.00136 0.0
C313 C 0.3831 0.35037 0.99367 0.0
C314 C 0.37689 0.36932 0.96447 0.0
H315 H 0.32356 0.28313 0.03437 0.0
H316 H 0.43894 0.38074 1.00283 0.0
S317 S 0.19615 0.28282 0.92614 0.0
N318 N 0.16697 0.24033 0.95972 0.0
N319 N 0.29144 0.34264 0.92552 0.0
C320 C 0.3033 0.32961 0.95352 0.0
C321 C 0.236 0.27427 0.97202 0.0
C322 C 0.10122 0.35131 0.3456 0.0
C323 C 0.07248 0.27712 0.33515 0.0
C324 C 0.10545 0.41308 0.32814 0.0
C325 C 0.08289 0.40326 0.29939 0.0
H326 H 0.11931 0.36138 0.36759 0.0
H327 H 0.1264 0.46887 0.33715 0.0
S328 S 0.00838 0.2227 0.26092 0.0
N329 N 0.02307 0.19852 0.29376 0.0
N330 N 0.03363 0.31515 0.26091 0.0
C331 C 0.05547 0.33003 0.28853 0.0
C332 C 0.04972 0.26689 0.30639 0.0
loop_
_geom_bond_atom_site_label_1
_geom_bond_atom_site_label_2
_geom_bond_distance
_geom_bond_site_symmetry_2
_ccdc_geom_bond_type
Co0 O1 2.216 1_545 S
Co0 O2 2.091 . S
Co0 O4 2.004 . S
Co0 O10 2.021 1_545 S
Co0 O12 2.137 . S
Co0 O13 2.244 . S
O1 Co0 2.216 1_565 S
O1 C8 1.247 . S
O2 Co0 2.091 . S
O2 C8 1.261 1_545 S
C3 O12 1.247 . S
C3 O13 1.272 . S
O4 Co0 2.004 . S
O4 C9 1.259 . S
Co5 O6 2.062 1_554 S
Co5 O11 2.052 1_455 S
Co5 O13 2.135 . S
O6 Co5 2.062 1_556 S
O6 C9 1.236 1_556 S
C7 O10 1.238 1_655 S
C7 O11 1.241 1_565 S
C8 O1 1.247 . S
C8 O2 1.261 1_565 S
C9 O4 1.259 . S
C9 O6 1.236 1_554 S
O10 Co0 2.021 1_565 S
O10 C7 1.238 1_455 S
O11 Co5 2.052 1_655 S
O11 C7 1.241 1_545 S
O12 Co0 2.137 . S
O12 C3 1.247 . S
O13 Co0 2.244 . S
O13 C3 1.272 . S
O13 Co5 2.135 . S
Co14 O15 2.216 . S
Co14 O16 2.091 . S
Co14 O18 2.004 . S
Co14 O24 2.021 . S
Co14 O26 2.137 . S
Co14 O27 2.247 . S
O15 Co14 2.216 . S
O15 C22 1.247 . S
O16 Co14 2.091 . S
O16 C22 1.261 . S
C17 O26 1.247 . S
C17 O27 1.271 . S
O18 Co14 2.004 . S
O18 C23 1.259 . S
Co19 O20 2.061 1_665 S
Co19 O25 2.052 1_565 S
Co19 O27 2.134 1_665 S
O20 Co19 2.061 1_445 S
O20 C23 1.235 . S
C21 O24 1.238 1_655 S
C21 O25 1.241 . S
C22 O15 1.247 . S
C22 O16 1.261 . S
C23 O18 1.259 . S
C23 O20 1.235 . S
O24 Co14 2.021 . S
O24 C21 1.238 1_455 S
O25 Co19 2.052 1_545 S
O25 C21 1.241 . S
O26 Co14 2.137 . S
O26 C17 1.247 . S
O27 Co14 2.247 . S
O27 C17 1.271 . S
O27 Co19 2.134 1_445 S
Co28 O29 2.216 . S
Co28 O30 2.091 1_545 S
Co28 O32 2.004 1_545 S
Co28 O38 2.021 . S
Co28 O40 2.137 . S
Co28 O41 2.244 . S
O29 Co28 2.216 . S
O29 C36 1.247 . S
O30 Co28 2.091 1_565 S
O30 C36 1.261 1_565 S
C31 O40 1.247 1_655 S
C31 O41 1.272 1_655 S
O32 Co28 2.004 1_565 S
O32 C37 1.259 1_455 S
Co33 O34 2.061 . S
Co33 O39 2.052 1_655 S
Co33 O41 2.135 1_655 S
O34 Co33 2.061 . S
O34 C37 1.235 1_545 S
C35 O38 1.238 . S
C35 O39 1.241 . S
C36 O29 1.247 . S
C36 O30 1.261 1_545 S
C37 O32 1.259 1_655 S
C37 O34 1.235 1_565 S
O38 Co28 2.021 . S
O38 C35 1.238 . S
O39 Co33 2.052 1_455 S
O39 C35 1.241 . S
O40 Co28 2.137 . S
O40 C31 1.247 1_455 S
O41 Co28 2.244 . S
O41 C31 1.272 1_455 S
O41 Co33 2.135 1_455 S
C42 C43 1.443 . S
C42 N46 1.376 . S
C42 C80 1.389 . S
C43 C42 1.443 . S
C43 C44 1.340 . S
C43 H83 0.951 . S
C44 C43 1.340 . S
C44 C45 1.439 . S
C44 H84 0.950 . S
C45 C44 1.439 . S
C45 N46 1.374 . S
C45 C79 1.395 . S
N46 C42 1.376 . S
N46 C45 1.374 . S
N46 Co47 2.008 . S
Co47 N46 2.008 . S
Co47 N48 1.995 . S
Co47 N53 2.008 1_455 S
Co47 N58 1.995 1_455 S
Co47 N63 2.282 . S
Co47 N69 2.282 . S
N48 Co47 1.995 . S
N48 C49 1.376 . S
N48 C52 1.383 . S
C49 N48 1.376 . S
C49 C50 1.446 . S
C49 C79 1.391 . S
C50 C49 1.446 . S
C50 C51 1.339 . S
C50 H85 0.949 . S
C51 C50 1.339 . S
C51 C52 1.439 . S
C51 H86 0.950 . S
C52 N48 1.383 . S
C52 C51 1.439 . S
C52 C81 1.392 . S
N53 Co47 2.008 1_655 S
N53 C54 1.376 . S
N53 C57 1.374 . S
C54 N53 1.376 . S
C54 C55 1.443 . S
C54 C81 1.389 1_655 S
C55 C54 1.443 . S
C55 C56 1.340 . S
C55 H87 0.951 . S
C56 C55 1.340 . S
C56 C57 1.439 . S
C56 H88 0.950 . S
C57 N53 1.374 . S
C57 C56 1.439 . S
C57 C82 1.395 . S
N58 Co47 1.995 1_655 S
N58 C59 1.376 . S
N58 C62 1.383 . S
C59 N58 1.376 . S
C59 C60 1.446 . S
C59 C82 1.391 . S
C60 C59 1.446 . S
C60 C61 1.339 . S
C60 H89 0.949 . S
C61 C60 1.339 . S
C61 C62 1.439 . S
C61 H90 0.950 . S
C62 N58 1.383 . S
C62 C61 1.439 . S
C62 C80 1.392 1_655 S
N63 Co47 2.282 . S
N63 C66 1.332 1_455 S
N63 C68 1.332 . S
C64 C65 1.386 1_455 S
C64 C67 1.388 . S
C65 C64 1.386 1_655 S
C65 C66 1.382 . S
C65 H91 0.950 . S
C66 N63 1.332 1_655 S
C66 C65 1.382 . S
C66 H77 0.952 . S
C67 C64 1.388 . S
C67 C68 1.382 . S
C67 H92 0.950 . S
C68 N63 1.332 . S
C68 C67 1.382 . S
C68 H78 0.948 . S
N69 Co47 2.282 . S
N69 C73 1.332 . S
N69 C74 1.332 1_455 S
C70 C71 1.388 1_655 S
C70 C74 1.382 . S
C70 H93 0.950 . S
C71 C70 1.388 1_455 S
C71 C72 1.386 . S
C72 C71 1.386 . S
C72 C73 1.382 . S
C72 H94 0.950 . S
C73 N69 1.332 . S
C73 C72 1.382 . S
C73 H75 0.952 . S
C74 N69 1.332 1_655 S
C74 C70 1.382 . S
C74 H76 0.948 . S
H75 C73 0.952 . S
H76 C74 0.948 . S
H77 C66 0.952 . S
H78 C68 0.948 . S
C79 C45 1.395 . S
C79 C49 1.391 . S
C80 C42 1.389 . S
C80 C62 1.392 1_455 S
C81 C52 1.392 . S
C81 C54 1.389 1_455 S
C82 C57 1.395 . S
C82 C59 1.391 . S
H83 C43 0.951 . S
H84 C44 0.950 . S
H85 C50 0.949 . S
H86 C51 0.950 . S
H87 C55 0.951 . S
H88 C56 0.950 . S
H89 C60 0.949 . S
H90 C61 0.950 . S
H91 C65 0.950 . S
H92 C67 0.950 . S
H93 C70 0.950 . S
H94 C72 0.950 . S
C95 C96 1.443 1_545 S
C95 N99 1.376 . S
C95 C133 1.389 . S
C96 C95 1.443 1_565 S
C96 C97 1.340 . S
C96 H136 0.951 . S
C97 C96 1.340 . S
C97 C98 1.439 . S
C97 H137 0.950 . S
C98 C97 1.439 . S
C98 N99 1.374 1_565 S
C98 C132 1.395 . S
N99 C95 1.376 . S
N99 C98 1.374 1_545 S
N99 Co100 2.008 . S
Co100 N99 2.008 . S
Co100 N101 1.995 . S
Co100 N106 2.008 . S
Co100 N111 1.995 . S
Co100 N116 2.282 . S
Co100 N122 2.282 . S
N101 Co100 1.995 . S
N101 C102 1.376 1_545 S
N101 C105 1.383 . S
C102 N101 1.376 1_565 S
C102 C103 1.446 . S
C102 C132 1.391 . S
C103 C102 1.446 . S
C103 C104 1.339 . S
C103 H138 0.949 . S
C104 C103 1.339 . S
C104 C105 1.439 1_565 S
C104 H139 0.950 . S
C105 N101 1.383 . S
C105 C104 1.439 1_545 S
C105 C134 1.392 . S
N106 Co100 2.008 . S
N106 C107 1.376 . S
N106 C110 1.374 . S
C107 N106 1.376 . S
C107 C108 1.443 . S
C107 C134 1.389 . S
C108 C107 1.443 . S
C108 C109 1.340 . S
C108 H140 0.951 . S
C109 C108 1.340 . S
C109 C110 1.439 . S
C109 H141 0.950 . S
C110 N106 1.374 . S
C110 C109 1.439 . S
C110 C135 1.395 . S
N111 Co100 1.995 . S
N111 C112 1.376 . S
N111 C115 1.383 . S
C112 N111 1.376 . S
C112 C113 1.446 . S
C112 C135 1.391 . S
C113 C112 1.446 . S
C113 C114 1.339 . S
C113 H142 0.949 . S
C114 C113 1.339 . S
C114 C115 1.439 . S
C114 H143 0.950 . S
C115 N111 1.383 . S
C115 C114 1.439 . S
C115 C133 1.392 . S
N116 Co100 2.282 . S
N116 C119 1.332 . S
N116 C121 1.332 . S
C117 C118 1.386 . S
C117 C120 1.388 . S
C118 C117 1.386 . S
C118 C119 1.382 . S
C118 H144 0.950 . S
C119 N116 1.332 . S
C119 C118 1.382 . S
C119 H130 0.952 . S
C120 C117 1.388 . S
C120 C121 1.382 . S
C120 H145 0.950 1_545 S
C121 N116 1.332 . S
C121 C120 1.382 . S
C121 H131 0.948 1_545 S
N122 Co100 2.282 . S
N122 C126 1.332 . S
N122 C127 1.332 . S
C123 C124 1.388 . S
C123 C127 1.382 . S
C123 H146 0.950 . S
C124 C123 1.388 . S
C124 C125 1.386 . S
C125 C124 1.386 . S
C125 C126 1.382 . S
C125 H147 0.950 1_545 S
C126 N122 1.332 . S
C126 C125 1.382 . S
C126 H128 0.952 1_545 S
C127 N122 1.332 . S
C127 C123 1.382 . S
C127 H129 0.948 . S
H128 C126 0.952 1_565 S
H129 C127 0.948 . S
H130 C119 0.952 . S
H131 C121 0.948 1_565 S
C132 C98 1.395 . S
C132 C102 1.391 . S
C133 C95 1.389 . S
C133 C115 1.392 . S
C134 C105 1.392 . S
C134 C107 1.389 . S
C135 C110 1.395 . S
C135 C112 1.391 . S
H136 C96 0.951 . S
H137 C97 0.950 . S
H138 C103 0.949 . S
H139 C104 0.950 . S
H140 C108 0.951 . S
H141 C109 0.950 . S
H142 C113 0.949 . S
H143 C114 0.950 . S
H144 C118 0.950 . S
H145 C120 0.950 1_565 S
H146 C123 0.950 . S
H147 C125 0.950 1_565 S
C148 C149 1.443 . S
C148 N152 1.376 . S
C148 C186 1.389 . S
C149 C148 1.443 . S
C149 C150 1.340 . S
C149 H189 0.951 . S
C150 C149 1.340 . S
C150 C151 1.439 . S
C150 H190 0.950 . S
C151 C150 1.439 . S
C151 N152 1.374 . S
C151 C185 1.395 . S
N152 C148 1.376 . S
N152 C151 1.374 . S
N152 Co153 2.008 . S
Co153 N152 2.008 . S
Co153 N154 1.995 . S
Co153 N159 2.008 . S
Co153 N164 1.995 . S
Co153 N169 2.282 . S
Co153 N175 2.282 . S
N154 Co153 1.995 . S
N154 C155 1.376 . S
N154 C158 1.383 . S
C155 N154 1.376 . S
C155 C156 1.446 . S
C155 C185 1.391 . S
C156 C155 1.446 . S
C156 C157 1.339 . S
C156 H191 0.949 . S
C157 C156 1.339 . S
C157 C158 1.439 . S
C157 H192 0.950 . S
C158 N154 1.383 . S
C158 C157 1.439 . S
C158 C187 1.392 . S
N159 Co153 2.008 . S
N159 C160 1.376 . S
N159 C163 1.374 . S
C160 N159 1.376 . S
C160 C161 1.443 . S
C160 C187 1.389 . S
C161 C160 1.443 . S
C161 C162 1.340 . S
C161 H193 0.951 . S
C162 C161 1.340 . S
C162 C163 1.439 . S
C162 H194 0.950 . S
C163 N159 1.374 . S
C163 C162 1.439 . S
C163 C188 1.395 . S
N164 Co153 1.995 . S
N164 C165 1.376 . S
N164 C168 1.383 . S
C165 N164 1.376 . S
C165 C166 1.446 . S
C165 C188 1.391 . S
C166 C165 1.446 . S
C166 C167 1.339 . S
C166 H195 0.949 . S
C167 C166 1.339 . S
C167 C168 1.439 . S
C167 H196 0.950 . S
C168 N164 1.383 . S
C168 C167 1.439 . S
C168 C186 1.392 . S
N169 Co153 2.282 . S
N169 C172 1.332 . S
N169 C174 1.332 . S
C170 C171 1.386 . S
C170 C173 1.388 . S
C171 C170 1.386 . S
C171 C172 1.382 . S
C171 H197 0.950 . S
C172 N169 1.332 . S
C172 C171 1.382 . S
C172 H183 0.952 . S
C173 C170 1.388 . S
C173 C174 1.382 . S
C173 H198 0.950 . S
C174 N169 1.332 . S
C174 C173 1.382 . S
C174 H184 0.948 . S
N175 Co153 2.282 . S
N175 C179 1.332 . S
N175 C180 1.332 . S
C176 C177 1.388 . S
C176 C180 1.382 . S
C176 H199 0.950 . S
C177 C176 1.388 . S
C177 C178 1.386 . S
C178 C177 1.386 . S
C178 C179 1.382 . S
C178 H200 0.950 . S
C179 N175 1.332 . S
C179 C178 1.382 . S
C179 H181 0.952 . S
C180 N175 1.332 . S
C180 C176 1.382 . S
C180 H182 0.948 . S
H181 C179 0.952 . S
H182 C180 0.948 . S
H183 C172 0.952 . S
H184 C174 0.948 . S
C185 C151 1.395 . S
C185 C155 1.391 . S
C186 C148 1.389 . S
C186 C168 1.392 . S
C187 C158 1.392 . S
C187 C160 1.389 . S
C188 C163 1.395 . S
C188 C165 1.391 . S
H189 C149 0.951 . S
H190 C150 0.950 . S
H191 C156 0.949 . S
H192 C157 0.950 . S
H193 C161 0.951 . S
H194 C162 0.950 . S
H195 C166 0.949 . S
H196 C167 0.950 . S
H197 C171 0.950 . S
H198 C173 0.950 . S
H199 C176 0.950 . S
H200 C178 0.950 . S
C201 C202 1.369 . S
C201 C203 1.419 1_455 S
C201 H205 0.930 1_455 S
C202 C201 1.369 . S
C202 C211 1.429 . S
C203 C201 1.419 1_655 S
C203 C204 1.363 1_655 S
C203 H206 0.929 . S
C204 C203 1.363 1_455 S
C204 C210 1.428 . S
H205 C201 0.930 1_655 S
H206 C203 0.929 . S
S207 N208 1.613 . S
S207 N209 1.610 . S
N208 S207 1.613 . S
N208 C211 1.350 . S
N209 S207 1.610 . S
N209 C210 1.351 . S
C210 C204 1.428 . S
C210 N209 1.351 . S
C210 C211 1.434 . S
C211 C202 1.429 . S
C211 N208 1.350 . S
C211 C210 1.434 . S
C212 C213 1.369 . S
C212 C214 1.419 . S
C212 H216 0.930 . S
C213 C212 1.369 . S
C213 C222 1.429 . S
C214 C212 1.419 . S
C214 C215 1.363 . S
C214 H217 0.929 . S
C215 C214 1.363 . S
C215 C221 1.428 . S
H216 C212 0.930 . S
H217 C214 0.929 . S
S218 N219 1.613 . S
S218 N220 1.610 . S
N219 S218 1.613 . S
N219 C222 1.350 . S
N220 S218 1.610 . S
N220 C221 1.351 . S
C221 C215 1.428 . S
C221 N220 1.351 . S
C221 C222 1.434 . S
C222 C213 1.429 . S
C222 N219 1.350 . S
C222 C221 1.434 . S
C223 C224 1.369 . S
C223 C225 1.419 . S
C223 H227 0.930 . S
C224 C223 1.369 . S
C224 C233 1.429 . S
C225 C223 1.419 . S
C225 C226 1.363 . S
C225 H228 0.929 . S
C226 C225 1.363 . S
C226 C232 1.428 . S
H227 C223 0.930 . S
H228 C225 0.929 . S
S229 N230 1.613 . S
S229 N231 1.610 . S
N230 S229 1.613 . S
N230 C233 1.350 . S
N231 S229 1.610 . S
N231 C232 1.351 . S
C232 C226 1.428 . S
C232 N231 1.351 . S
C232 C233 1.434 . S
C233 C224 1.429 . S
C233 N230 1.350 . S
C233 C232 1.434 . S
C234 C235 1.369 . S
C234 C236 1.419 . S
C234 H238 0.930 . S
C235 C234 1.369 . S
C235 C244 1.429 . S
C236 C234 1.419 . S
C236 C237 1.363 . S
C236 H239 0.929 . S
C237 C236 1.363 . S
C237 C243 1.428 . S
H238 C234 0.930 . S
H239 C236 0.929 . S
S240 N241 1.613 . S
S240 N242 1.610 . S
N241 S240 1.613 . S
N241 C244 1.350 1_655 S
N242 S240 1.610 . S
N242 C243 1.351 1_655 S
C243 C237 1.428 . S
C243 N242 1.351 1_455 S
C243 C244 1.434 . S
C244 C235 1.429 . S
C244 N241 1.350 1_455 S
C244 C243 1.434 . S
C245 C246 1.369 . S
C245 C247 1.419 . S
C245 H249 0.930 1_545 S
C246 C245 1.369 . S
C246 C255 1.429 . S
C247 C245 1.419 . S
C247 C248 1.363 . S
C247 H250 0.929 1_545 S
C248 C247 1.363 . S
C248 C254 1.428 . S
H249 C245 0.930 1_565 S
H250 C247 0.929 1_565 S
S251 N252 1.613 . S
S251 N253 1.610 . S
N252 S251 1.613 . S
N252 C255 1.350 . S
N253 S251 1.610 . S
N253 C254 1.351 . S
C254 C248 1.428 . S
C254 N253 1.351 . S
C254 C255 1.434 . S
C255 C246 1.429 . S
C255 N252 1.350 . S
C255 C254 1.434 . S
C256 C257 1.369 . S
C256 C258 1.419 . S
C256 H260 0.930 . S
C257 C256 1.369 . S
C257 C266 1.429 . S
C258 C256 1.419 . S
C258 C259 1.363 . S
C258 H261 0.929 . S
C259 C258 1.363 . S
C259 C265 1.428 . S
H260 C256 0.930 . S
H261 C258 0.929 . S
S262 N263 1.613 . S
S262 N264 1.610 . S
N263 S262 1.613 . S
N263 C266 1.350 . S
N264 S262 1.610 . S
N264 C265 1.351 . S
C265 C259 1.428 . S
C265 N264 1.351 . S
C265 C266 1.434 . S
C266 C257 1.429 . S
C266 N263 1.350 . S
C266 C265 1.434 . S
C267 C268 1.369 . S
C267 C269 1.419 . S
C267 H271 0.930 . S
C268 C267 1.369 . S
C268 C277 1.429 . S
C269 C267 1.419 . S
C269 C270 1.363 . S
C269 H272 0.929 . S
C270 C269 1.363 . S
C270 C276 1.428 . S
H271 C267 0.930 . S
H272 C269 0.929 . S
S273 N274 1.613 . S
S273 N275 1.610 1_455 S
N274 S273 1.613 . S
N274 C277 1.350 1_455 S
N275 S273 1.610 1_655 S
N275 C276 1.351 . S
C276 C270 1.428 . S
C276 N275 1.351 . S
C276 C277 1.434 . S
C277 C268 1.429 . S
C277 N274 1.350 1_655 S
C277 C276 1.434 . S
C278 C279 1.369 . S
C278 C280 1.419 . S
C278 H282 0.930 . S
C279 C278 1.369 . S
C279 C288 1.429 . S
C280 C278 1.419 . S
C280 C281 1.363 . S
C280 H283 0.929 . S
C281 C280 1.363 . S
C281 C287 1.428 . S
H282 C278 0.930 . S
H283 C280 0.929 . S
S284 N285 1.613 1_556 S
S284 N286 1.610 . S
N285 S284 1.613 1_554 S
N285 C288 1.350 1_554 S
N286 S284 1.610 . S
N286 C287 1.351 . S
C287 C281 1.428 . S
C287 N286 1.351 . S
C287 C288 1.434 . S
C288 C279 1.429 . S
C288 N285 1.350 1_556 S
C288 C287 1.434 . S
C289 C290 1.369 1_655 S
C289 C291 1.419 . S
C289 H293 0.930 . S
C290 C289 1.369 1_455 S
C290 C299 1.429 . S
C291 C289 1.419 . S
C291 C292 1.363 1_655 S
C291 H294 0.929 . S
C292 C291 1.363 1_455 S
C292 C298 1.428 . S
H293 C289 0.930 . S
H294 C291 0.929 . S
S295 N296 1.613 . S
S295 N297 1.610 1_545 S
N296 S295 1.613 . S
N296 C299 1.350 1_545 S
N297 S295 1.610 1_565 S
N297 C298 1.351 . S
C298 C292 1.428 . S
C298 N297 1.351 . S
C298 C299 1.434 . S
C299 C290 1.429 . S
C299 N296 1.350 1_565 S
C299 C298 1.434 . S
C300 C301 1.369 . S
C300 C302 1.419 . S
C300 H304 0.930 . S
C301 C300 1.369 . S
C301 C310 1.429 . S
C302 C300 1.419 . S
C302 C303 1.363 . S
C302 H305 0.929 . S
C303 C302 1.363 . S
C303 C309 1.428 . S
H304 C300 0.930 . S
H305 C302 0.929 . S
S306 N307 1.613 . S
S306 N308 1.610 . S
N307 S306 1.613 . S
N307 C310 1.350 1_565 S
N308 S306 1.610 . S
N308 C309 1.351 1_565 S
C309 C303 1.428 . S
C309 N308 1.351 1_545 S
C309 C310 1.434 . S
C310 C301 1.429 . S
C310 N307 1.350 1_545 S
C310 C309 1.434 . S
C311 C312 1.369 . S
C311 C313 1.419 . S
C311 H315 0.930 1_556 S
C312 C311 1.369 . S
C312 C321 1.429 . S
C313 C311 1.419 . S
C313 C314 1.363 . S
C313 H316 0.929 . S
C314 C313 1.363 . S
C314 C320 1.428 . S
H315 C311 0.930 1_554 S
H316 C313 0.929 . S
S317 N318 1.613 . S
S317 N319 1.610 . S
N318 S317 1.613 . S
N318 C321 1.350 . S
N319 S317 1.610 . S
N319 C320 1.351 . S
C320 C314 1.428 . S
C320 N319 1.351 . S
C320 C321 1.434 . S
C321 C312 1.429 . S
C321 N318 1.350 . S
C321 C320 1.434 . S
C322 C323 1.369 1_655 S
C322 C324 1.419 . S
C322 H326 0.930 . S
C323 C322 1.369 1_455 S
C323 C332 1.429 . S
C324 C322 1.419 . S
C324 C325 1.363 1_655 S
C324 H327 0.929 . S
C325 C324 1.363 1_455 S
C325 C331 1.428 . S
H326 C322 0.930 . S
H327 C324 0.929 . S
S328 N329 1.613 . S
S328 N330 1.610 . S
N329 S328 1.613 . S
N329 C332 1.350 . S
N330 S328 1.610 . S
N330 C331 1.351 . S
C331 C325 1.428 . S
C331 N330 1.351 . S
C331 C332 1.434 . S
C332 C323 1.429 . S
C332 N329 1.350 . S
C332 C331 1.434 . S
C204 C64 1.497 . S
C202 C3 1.497 . S
C213 C21 1.509 . S
C215 C134 1.526 . S
C224 C37 1.484 . S
C226 C186 1.506 . S
C235 C8 1.507 . S
C237 C80 1.503 . S
C248 C124 1.504 . S
C246 C23 1.488 . S
C257 C35 1.476 . S
C259 C170 1.501 . S
C270 C117 1.493 . S
C268 C31 1.490 . S
C279 C7 1.482 1_556 S
C281 C177 1.501 . S
C292 C71 1.498 . S
C290 C17 1.496 1_565 S
C303 C133 1.477 . S
C301 C36 1.480 . S
C314 C187 1.507 . S
C312 C9 1.484 1_556 S
C323 C22 1.508 . S
C325 C81 1.505 . S
