# Generated by pormake.
# Topology the, (3,8)-cn, num edge types: 1
# Building blocks:
#     Node 0, Type 0, BuildingBlock: OLANEW_clean_sbu_2, # of connection points: 3
#     Node 1, Type 0, BuildingBlock: OLANEW_clean_sbu_2, # of connection points: 3
#     Node 2, Type 0, BuildingBlock: OLANEW_clean_sbu_2, # of connection points: 3
#     Node 3, Type 0, BuildingBlock: OLANEW_clean_sbu_2, # of connection points: 3
#     Node 4, Type 0, BuildingBlock: OLANEW_clean_sbu_2, # of connection points: 3
#     Node 5, Type 0, BuildingBlock: OLANEW_clean_sbu_2, # of connection points: 3
#     Node 6, Type 0, BuildingBlock: OLANEW_clean_sbu_2, # of connection points: 3
#     Node 7, Type 0, BuildingBlock: OLANEW_clean_sbu_2, # of connection points: 3
#     Node 8, Type 1, BuildingBlock: GIZVER_clean_sbu_0, # of connection points: 8
#     Node 9, Type 1, BuildingBlock: GIZVER_clean_sbu_0, # of connection points: 8
#     Node 10, Type 1, BuildingBlock: GIZVER_clean_sbu_0, # of connection points: 8
#     Edge 11, Type (0, 1), BuildingBlock: ZUJKAS_clean_linker_0, # of connection points: 2
#     Edge 12, Type (0, 1), BuildingBlock: ZUJKAS_clean_linker_0, # of connection points: 2
#     Edge 13, Type (0, 1), BuildingBlock: ZUJKAS_clean_linker_0, # of connection points: 2
#     Edge 14, Type (0, 1), BuildingBlock: ZUJKAS_clean_linker_0, # of connection points: 2
#     Edge 15, Type (0, 1), BuildingBlock: ZUJKAS_clean_linker_0, # of connection points: 2
#     Edge 16, Type (0, 1), BuildingBlock: ZUJKAS_clean_linker_0, # of connection points: 2
#     Edge 17, Type (0, 1), BuildingBlock: ZUJKAS_clean_linker_0, # of connection points: 2
#     Edge 18, Type (0, 1), BuildingBlock: ZUJKAS_clean_linker_0, # of connection points: 2
#     Edge 19, Type (0, 1), BuildingBlock: ZUJKAS_clean_linker_0, # of connection points: 2
#     Edge 20, Type (0, 1), BuildingBlock: ZUJKAS_clean_linker_0, # of connection points: 2
#     Edge 21, Type (0, 1), BuildingBlock: ZUJKAS_clean_linker_0, # of connection points: 2
#     Edge 22, Type (0, 1), BuildingBlock: ZUJKAS_clean_linker_0, # of connection points: 2
#     Edge 23, Type (0, 1), BuildingBlock: ZUJKAS_clean_linker_0, # of connection points: 2
#     Edge 24, Type (0, 1), BuildingBlock: ZUJKAS_clean_linker_0, # of connection points: 2
#     Edge 25, Type (0, 1), BuildingBlock: ZUJKAS_clean_linker_0, # of connection points: 2
#     Edge 26, Type (0, 1), BuildingBlock: ZUJKAS_clean_linker_0, # of connection points: 2
#     Edge 27, Type (0, 1), BuildingBlock: ZUJKAS_clean_linker_0, # of connection points: 2
#     Edge 28, Type (0, 1), BuildingBlock: ZUJKAS_clean_linker_0, # of connection points: 2
#     Edge 29, Type (0, 1), BuildingBlock: ZUJKAS_clean_linker_0, # of connection points: 2
#     Edge 30, Type (0, 1), BuildingBlock: ZUJKAS_clean_linker_0, # of connection points: 2
#     Edge 31, Type (0, 1), BuildingBlock: ZUJKAS_clean_linker_0, # of connection points: 2
#     Edge 32, Type (0, 1), BuildingBlock: ZUJKAS_clean_linker_0, # of connection points: 2
#     Edge 33, Type (0, 1), BuildingBlock: ZUJKAS_clean_linker_0, # of connection points: 2
#     Edge 34, Type (0, 1), BuildingBlock: ZUJKAS_clean_linker_0, # of connection points: 2
# Relax obj value: 0.072
# Max RMSD: 0.200
# Mean RMSD: 0.136
data_MOF--net-the--node1-OLANEW_clean_sbu_2--node2-GIZVER_clean_sbu_0--edge1-ZUJKAS_clean_linker_0
_symmetry_space_group_name_H-M    P1
_symmetry_Int_Tables_number       1
_symmetry_cell_setting            triclinic
loop_
_symmetry_equiv_pos_as_xyz
'x, y, z'
_cell_length_a     55.388861
_cell_length_b     53.006178
_cell_length_c     47.784655
_cell_angle_alpha  91.28312
_cell_angle_beta   92.189881
_cell_angle_gamma 105.53288
loop_
_atom_site_label
_atom_site_type_symbol
_atom_site_fract_x
_atom_site_fract_y
_atom_site_fract_z
_atom_type_partial_charge
O0 O 0.33574 0.34801 0.33773 0.0
Cd1 Cd 0.31719 0.32869 0.38076 0.0
O2 O 0.32165 0.38278 0.34357 0.0
Cd3 Cd 0.30056 0.37079 0.38101 0.0
O4 O 0.27257 0.37521 0.41047 0.0
C5 C 0.24991 0.36158 0.40725 0.0
O6 O 0.24389 0.34336 0.38716 0.0
C7 C 0.33397 0.37017 0.32959 0.0
C8 C 0.33675 0.28844 0.40021 0.0
O9 O 0.31741 0.28352 0.3833 0.0
O10 O 0.34699 0.3124 0.40775 0.0
O11 O 0.73559 0.36941 0.29165 0.0
Cd12 Cd 0.69638 0.34368 0.26766 0.0
O13 O 0.74284 0.33409 0.30967 0.0
Cd14 Cd 0.70739 0.30585 0.29639 0.0
O15 O 0.67768 0.27068 0.30517 0.0
C16 C 0.6844 0.25462 0.32107 0.0
O17 O 0.70807 0.25985 0.3298 0.0
C18 C 0.74961 0.35867 0.30617 0.0
C19 C 0.67462 0.37039 0.22823 0.0
O20 O 0.69101 0.35863 0.22118 0.0
O21 O 0.66892 0.37001 0.254 0.0
O22 O 0.71601 0.71463 0.28086 0.0
Cd23 Cd 0.73691 0.74076 0.32229 0.0
O24 O 0.6969 0.74443 0.26861 0.0
Cd25 Cd 0.70911 0.77079 0.30541 0.0
O26 O 0.70207 0.79764 0.33771 0.0
C27 C 0.67902 0.79443 0.34241 0.0
O28 O 0.66231 0.77551 0.32855 0.0
C29 C 0.70155 0.72252 0.26387 0.0
C30 C 0.77364 0.72098 0.34864 0.0
O31 O 0.75055 0.71297 0.35472 0.0
O32 O 0.7794 0.73822 0.32987 0.0
O33 O 0.33024 0.78647 0.26573 0.0
Cd34 Cd 0.30385 0.75435 0.23199 0.0
O35 O 0.31122 0.76069 0.29771 0.0
Cd36 Cd 0.29795 0.74783 0.33882 0.0
O37 O 0.26921 0.72399 0.3643 0.0
C38 C 0.25141 0.73298 0.37223 0.0
O39 O 0.25184 0.75726 0.36671 0.0
C40 C 0.32697 0.78181 0.29147 0.0
C41 C 0.32662 0.71734 0.21095 0.0
O42 O 0.32789 0.73877 0.19842 0.0
O43 O 0.31485 0.71355 0.23372 0.0
O44 O 0.36701 0.76754 0.7397 0.0
Cd45 Cd 0.34365 0.72669 0.76079 0.0
O46 O 0.33237 0.77588 0.72301 0.0
Cd47 Cd 0.30504 0.73922 0.73235 0.0
O48 O 0.26963 0.71112 0.71835 0.0
C49 C 0.25223 0.72078 0.70933 0.0
O50 O 0.25612 0.74636 0.71045 0.0
C51 C 0.35612 0.78253 0.72681 0.0
C52 C 0.37135 0.70389 0.79829 0.0
O53 O 0.36908 0.69751 0.77209 0.0
O54 O 0.36102 0.72146 0.80672 0.0
O55 O 0.32509 0.32816 0.73387 0.0
Cd56 Cd 0.2986 0.30379 0.69445 0.0
O57 O 0.29728 0.34882 0.74609 0.0
Cd58 Cd 0.26968 0.33457 0.71122 0.0
O59 O 0.23873 0.33773 0.68257 0.0
C60 C 0.22698 0.354 0.69059 0.0
O61 O 0.23384 0.36662 0.71481 0.0
C62 C 0.31842 0.34402 0.75033 0.0
C63 C 0.31847 0.26575 0.66967 0.0
O64 O 0.32346 0.28912 0.6607 0.0
O65 O 0.3042 0.26038 0.69043 0.0
O66 O 0.69446 0.36642 0.73075 0.0
Cd67 Cd 0.70608 0.33628 0.69778 0.0
O68 O 0.71165 0.35308 0.76788 0.0
Cd69 Cd 0.71753 0.32013 0.74342 0.0
O70 O 0.70537 0.28577 0.71504 0.0
C71 C 0.69031 0.26539 0.72404 0.0
O72 O 0.68423 0.26531 0.75035 0.0
C73 C 0.70037 0.36866 0.75687 0.0
C74 C 0.7533 0.35988 0.67834 0.0
O75 O 0.73329 0.36165 0.66508 0.0
O76 O 0.75095 0.34651 0.70056 0.0
O77 O 0.76774 0.75091 0.59262 0.0
Cd78 Cd 0.74267 0.77747 0.61337 0.0
O79 O 0.75042 0.72374 0.62428 0.0
Cd80 Cd 0.73982 0.68962 0.65081 0.0
O81 O 0.72289 0.66507 0.68493 0.0
C82 C 0.72002 0.67711 0.70733 0.0
O83 O 0.72785 0.70283 0.70865 0.0
C84 C 0.7659 0.72946 0.60485 0.0
C85 C 0.71647 0.80326 0.57823 0.0
O86 O 0.73903 0.81438 0.58715 0.0
O87 O 0.70674 0.77951 0.5849 0.0
Co88 Co 0.04609 0.50177 0.52946 0.0
Co89 Co 0.02578 0.49419 0.47821 0.0
Co90 Co 1.00123 0.53276 0.51291 0.0
O91 O 0.01358 0.50057 0.51305 0.0
H92 H 1.00082 0.48534 0.51839 0.0
O93 O 0.98897 0.5649 0.51252 0.0
Co94 Co 0.95546 0.56348 0.4993 0.0
Co95 Co 0.97979 0.57175 0.54851 0.0
H96 H 1.00128 0.57996 0.50605 0.0
O97 O 0.03116 0.46173 0.46775 0.0
O98 O 0.05769 0.49492 0.49225 0.0
O99 O 0.03107 0.52224 0.45228 0.0
O100 O 0.02529 0.55092 0.48436 0.0
O101 O 0.97567 0.51548 0.48271 0.0
O102 O 0.92549 0.56537 0.48656 0.0
O103 O 0.96122 0.59794 0.49206 0.0
O104 O 0.94533 0.52697 0.5037 0.0
O105 O 0.97733 0.51486 0.54182 0.0
O106 O 0.97856 0.54486 0.57547 0.0
O107 O 0.94668 0.56977 0.53811 0.0
O108 O 0.97472 0.60405 0.55947 0.0
C109 C 0.06274 0.47528 0.54698 0.0
C110 C 0.04995 0.55319 0.54085 0.0
C111 C 0.03373 0.54565 0.46104 0.0
C112 C 0.05312 0.47203 0.47972 0.0
C113 C 0.93746 0.58991 0.48428 0.0
C114 C 0.95231 0.51298 0.48538 0.0
C115 C 0.973 0.52112 0.56677 0.0
C116 C 0.9519 0.59285 0.55036 0.0
O117 O 0.07486 0.49983 0.54533 0.0
O118 O 0.03947 0.46729 0.53727 0.0
O119 O 0.02655 0.55031 0.54321 0.0
O120 O 0.05736 0.53812 0.52423 0.0
Co121 Co 0.52809 0.97746 0.49528 0.0
Co122 Co 0.54029 0.00182 0.54448 0.0
Co123 Co 0.50004 0.02498 0.51381 0.0
O124 O 0.53036 0.01197 0.50987 0.0
H125 H 0.54413 0.02498 0.50242 0.0
O126 O 0.46995 0.03866 0.51744 0.0
Co127 Co 0.47312 0.07389 0.53138 0.0
Co128 Co 0.46081 0.04946 0.48257 0.0
H129 H 0.45601 0.02595 0.52498 0.0
O130 O 0.57226 0.99777 0.55179 0.0
O131 O 0.53857 0.96772 0.53284 0.0
O132 O 0.51762 1.00011 0.57423 0.0
O133 O 0.48562 1.00014 0.54462 0.0
O134 O 0.51957 0.05135 0.5422 0.0
O135 O 0.47307 0.1051 0.5453 0.0
O136 O 0.44091 0.06858 0.54137 0.0
O137 O 0.50777 0.08423 0.52397 0.0
O138 O 0.51465 0.04956 0.48319 0.0
O139 O 0.48355 0.05042 0.45281 0.0
O140 O 0.46411 0.08415 0.49346 0.0
O141 O 0.42963 0.05528 0.47446 0.0
C142 C 0.55204 0.95934 0.47669 0.0
C143 C 0.47827 0.97384 0.4879 0.0
C144 C 0.49423 0.99495 0.56847 0.0
C145 C 0.56181 0.97401 0.54245 0.0
C146 C 0.44971 0.09325 0.54916 0.0
C147 C 0.52291 0.07586 0.5395 0.0
C148 C 0.50679 0.05484 0.45909 0.0
C149 C 0.44135 0.07911 0.48254 0.0
O150 O 0.52893 0.94663 0.48076 0.0
O151 O 0.5601 0.98406 0.48446 0.0
O152 O 0.48059 0.99828 0.48546 0.0
O153 O 0.49377 0.96617 0.50364 0.0
Co154 Co 0.48223 0.53269 0.06657 0.0
Co155 Co 0.4732 0.48582 0.04493 0.0
Co156 Co 0.51491 0.52494 0.00977 0.0
O157 O 0.48298 0.5186 0.02965 0.0
H158 H 0.46949 0.52113 0.01748 0.0
O159 O 0.54686 0.53107 0.99008 0.0
Co160 Co 0.54754 0.51935 0.95222 0.0
Co161 Co 0.55741 0.56531 0.97821 0.0
H162 H 0.56005 0.52738 1.00175 0.0
O163 O 0.44043 0.46997 0.05436 0.0
O164 O 0.47098 0.49702 0.08162 0.0
O165 O 0.49765 0.46616 0.04574 0.0
O166 O 0.52861 0.49931 0.03229 0.0
O167 O 0.49728 0.49653 0.98191 0.0
O168 O 0.55134 0.50824 0.91783 0.0
O169 O 0.57962 0.5176 0.95434 0.0
O170 O 0.51351 0.51849 0.94536 0.0
O171 O 0.50153 0.55083 0.98708 0.0
O172 O 0.5336 0.58571 0.98088 0.0
O173 O 0.55799 0.55609 0.94057 0.0
O174 O 0.59017 0.58077 0.96734 0.0
C175 C 0.45663 0.54578 0.0882 0.0
C176 C 0.53351 0.54999 0.06369 0.0
C177 C 0.5208 0.47681 0.04302 0.0
C178 C 0.44879 0.4806 0.07881 0.0
C179 C 0.57363 0.50939 0.9284 0.0
C180 C 0.49668 0.50029 0.95565 0.0
C181 C 0.51021 0.5747 0.98015 0.0
C182 C 0.58085 0.57093 0.94291 0.0
O183 O 0.47852 0.54662 0.09973 0.0
O184 O 0.4505 0.53517 0.06313 0.0
O185 O 0.53262 0.55342 0.03741 0.0
O186 O 0.51606 0.53298 0.07466 0.0
H187 H 0.25546 0.40157 0.44626 0.0
H188 H 0.22227 0.4173 0.46692 0.0
H189 H 0.16634 0.35415 0.42442 0.0
H190 H 0.19938 0.33816 0.40371 0.0
H191 H 0.18719 0.43307 0.43218 0.0
H192 H 0.13963 0.35646 0.504 0.0
H193 H 0.171 0.35944 0.49266 0.0
H194 H 0.14431 0.3443 0.46977 0.0
C195 C 0.23613 0.39066 0.44175 0.0
C196 C 0.23008 0.36871 0.42313 0.0
C197 C 0.21718 0.39968 0.45362 0.0
C198 C 0.19187 0.38678 0.44737 0.0
C199 C 0.18576 0.36413 0.42991 0.0
H200 H 0.05001 0.42346 0.45646 0.0
H201 H 0.08409 0.40244 0.45175 0.0
C202 C 0.2047 0.35512 0.41794 0.0
C203 C 0.17201 0.39892 0.45602 0.0
H204 H 0.11805 0.38834 0.49161 0.0
C205 C 0.17223 0.42345 0.44545 0.0
C206 C 0.15246 0.38619 0.47315 0.0
C207 C 0.15185 0.36023 0.48579 0.0
C208 C 0.15302 0.43529 0.45082 0.0
C209 C 0.13329 0.42247 0.46771 0.0
C210 C 0.13321 0.39809 0.47866 0.0
C211 C 0.11223 0.4339 0.4733 0.0
C212 C 0.15357 0.461 0.43752 0.0
C213 C 0.11667 0.45822 0.48757 0.0
C214 C 0.09739 0.47044 0.48993 0.0
C215 C 0.07315 0.45834 0.47848 0.0
C216 C 0.06849 0.43339 0.46532 0.0
C217 C 0.08789 0.42128 0.46276 0.0
H218 H 0.16664 0.46509 0.42009 0.0
H219 H 0.13458 0.46114 0.42928 0.0
H220 H 0.15995 0.47716 0.45353 0.0
H221 H 0.13524 0.46808 0.49627 0.0
H222 H 0.10165 0.48958 0.50032 0.0
H223 H 0.63362 0.23826 0.30868 0.0
H224 H 0.60302 0.20139 0.32857 0.0
H225 H 0.66266 0.18165 0.37625 0.0
H226 H 0.69326 0.21828 0.35668 0.0
H227 H 0.60155 0.14487 0.32947 0.0
H228 H 0.61244 0.194 0.43496 0.0
H229 H 0.62234 0.2116 0.40365 0.0
H230 H 0.6412 0.19258 0.41961 0.0
C231 C 0.64023 0.22596 0.32325 0.0
C232 C 0.66587 0.23136 0.33127 0.0
C233 C 0.62274 0.2049 0.33454 0.0
C234 C 0.6306 0.18906 0.35411 0.0
C235 C 0.65621 0.19388 0.36144 0.0
H236 H 0.55803 0.06815 0.46499 0.0
H237 H 0.58797 0.09857 0.43706 0.0
C238 C 0.67367 0.21482 0.35016 0.0
C239 C 0.61206 0.16803 0.36777 0.0
H240 H 0.58829 0.14986 0.43132 0.0
C241 C 0.59851 0.14593 0.3517 0.0
C242 C 0.60822 0.16955 0.39676 0.0
C243 C 0.62163 0.19328 0.4148 0.0
C244 C 0.58159 0.12495 0.36408 0.0
C245 C 0.57787 0.12642 0.39315 0.0
C246 C 0.5913 0.14867 0.40909 0.0
C247 C 0.5599 0.10542 0.40765 0.0
C248 C 0.56834 0.10116 0.34609 0.0
C249 C 0.53418 0.09879 0.40012 0.0
C250 C 0.51698 0.08127 0.41598 0.0
C251 C 0.52515 0.07028 0.4399 0.0
C252 C 0.55104 0.07625 0.44676 0.0
C253 C 0.5682 0.09368 0.43083 0.0
H254 H 0.57826 0.09993 0.32654 0.0
H255 H 0.56667 0.08288 0.35765 0.0
H256 H 0.54915 0.1024 0.34007 0.0
H257 H 0.52727 0.10799 0.38268 0.0
H258 H 0.49719 0.07725 0.41014 0.0
H259 H 0.8247 0.73818 0.34532 0.0
H260 H 0.85658 0.72162 0.36998 0.0
H261 H 0.79843 0.66402 0.40892 0.0
H262 H 0.76653 0.68086 0.38497 0.0
H263 H 0.83609 0.68841 0.44635 0.0
H264 H 0.8759 0.65492 0.35183 0.0
H265 H 0.87633 0.68892 0.35259 0.0
H266 H 0.84684 0.66419 0.3503 0.0
C267 C 0.8187 0.72191 0.35905 0.0
C268 C 0.79306 0.71076 0.36308 0.0
C269 C 0.83696 0.71238 0.37302 0.0
C270 C 0.8299 0.6913 0.39097 0.0
C271 C 0.80432 0.68026 0.39512 0.0
H272 H 0.88707 0.58342 0.48291 0.0
H273 H 0.86357 0.61191 0.46244 0.0
C274 C 0.7861 0.68988 0.38135 0.0
C275 C 0.84898 0.68079 0.40585 0.0
H276 H 0.89491 0.6499 0.39559 0.0
C277 C 0.84908 0.68018 0.43522 0.0
C278 C 0.866 0.67012 0.39136 0.0
C279 C 0.86622 0.66931 0.35978 0.0
C280 C 0.86525 0.66863 0.45043 0.0
C281 C 0.88168 0.65724 0.43591 0.0
C282 C 0.88235 0.65876 0.40666 0.0
C283 C 0.89641 0.64136 0.45031 0.0
C284 C 0.86406 0.66805 0.48187 0.0
C285 C 0.92273 0.64849 0.45035 0.0
C286 C 0.9363 0.63224 0.46224 0.0
C287 C 0.92367 0.60836 0.47368 0.0
C288 C 0.89735 0.60157 0.47401 0.0
C289 C 0.88387 0.61793 0.46251 0.0
H290 H 0.85719 0.68441 0.49036 0.0
H291 H 0.85066 0.64942 0.48734 0.0
H292 H 0.88263 0.66902 0.49214 0.0
H293 H 0.93272 0.66646 0.4409 0.0
H294 H 0.95657 0.63796 0.46169 0.0
H295 H 0.34196 0.77298 0.34486 0.0
H296 H 0.36511 0.80555 0.38018 0.0
H297 H 0.36587 0.86711 0.32239 0.0
H298 H 0.34317 0.83458 0.2869 0.0
H299 H 0.41104 0.87264 0.34645 0.0
H300 H 0.34145 0.85594 0.42914 0.0
H301 H 0.34995 0.82685 0.41878 0.0
H302 H 0.33374 0.8423 0.39396 0.0
C303 C 0.34661 0.79349 0.33992 0.0
C304 C 0.34039 0.80128 0.31329 0.0
C305 C 0.35984 0.81211 0.36012 0.0
C306 C 0.36676 0.83888 0.35418 0.0
C307 C 0.3606 0.84662 0.32754 0.0
H308 H 0.44805 0.98285 0.44463 0.0
H309 H 0.4198 0.95019 0.41283 0.0
C310 C 0.34765 0.82801 0.30727 0.0
C311 C 0.38159 0.85877 0.37506 0.0
H312 H 0.38228 0.88332 0.44198 0.0
C313 C 0.40462 0.87508 0.36725 0.0
C314 C 0.37324 0.86195 0.40225 0.0
C315 C 0.34813 0.84601 0.41148 0.0
C316 C 0.41964 0.8942 0.38593 0.0
C317 C 0.4114 0.89717 0.41311 0.0
C318 C 0.38846 0.88092 0.42106 0.0
C319 C 0.42675 0.91683 0.43363 0.0
C320 C 0.44445 0.91086 0.3767 0.0
C321 C 0.43948 0.90877 0.45616 0.0
C322 C 0.45571 0.92733 0.47427 0.0
C323 C 0.45932 0.9543 0.47028 0.0
C324 C 0.44573 0.96226 0.44828 0.0
C325 C 0.42963 0.94366 0.43006 0.0
H326 H 0.44985 0.90347 0.35659 0.0
H327 H 0.44318 0.93121 0.37391 0.0
H328 H 0.45952 0.91156 0.39296 0.0
H329 H 0.43742 0.88813 0.45924 0.0
H330 H 0.46579 0.92051 0.49108 0.0
H331 H 0.23951 0.66756 0.69928 0.0
H332 H 0.20258 0.64076 0.67248 0.0
H333 H 0.17523 0.70891 0.66128 0.0
H334 H 0.2121 0.73588 0.68774 0.0
H335 H 0.15009 0.63204 0.68005 0.0
H336 H 0.1795 0.68135 0.58068 0.0
H337 H 0.20054 0.68466 0.61115 0.0
H338 H 0.17746 0.70286 0.60956 0.0
C339 C 0.22555 0.67682 0.6913 0.0
C340 C 0.2289 0.70392 0.69542 0.0
C341 C 0.20446 0.66147 0.67602 0.0
C342 C 0.18641 0.67295 0.66452 0.0
C343 C 0.18918 0.69977 0.66954 0.0
H344 H 0.04196 0.5848 0.58401 0.0
H345 H 0.07386 0.61516 0.61464 0.0
C346 C 0.21024 0.71512 0.68478 0.0
C347 C 0.16513 0.65705 0.64648 0.0
H348 H 0.14019 0.64985 0.57936 0.0
C349 C 0.14782 0.63596 0.65807 0.0
C350 C 0.16241 0.66211 0.61775 0.0
C351 C 0.18104 0.68382 0.60389 0.0
C352 C 0.12784 0.61972 0.64162 0.0
C353 C 0.125 0.62493 0.61295 0.0
C354 C 0.14227 0.64609 0.60142 0.0
C355 C 0.10542 0.60752 0.59401 0.0
C356 C 0.11041 0.59662 0.65482 0.0
C357 C 0.1126 0.59381 0.5718 0.0
C358 C 0.09453 0.57663 0.55428 0.0
C359 C 0.06881 0.57285 0.55848 0.0
C360 C 0.0616 0.58718 0.58028 0.0
C361 C 0.07978 0.60439 0.59791 0.0
H362 H 0.11805 0.59234 0.67548 0.0
H363 H 0.09216 0.60093 0.65802 0.0
H364 H 0.10686 0.57883 0.64089 0.0
H365 H 0.13227 0.59605 0.56833 0.0
H366 H 0.10079 0.56606 0.53762 0.0
H367 H 0.31373 0.21551 0.68597 0.0
H368 H 0.33225 0.18286 0.66505 0.0
H369 H 0.3655 0.23764 0.6029 0.0
H370 H 0.34701 0.2704 0.62357 0.0
H371 H 0.3416 0.18435 0.58165 0.0
H372 H 0.40885 0.18911 0.67244 0.0
H373 H 0.37639 0.18315 0.68047 0.0
H374 H 0.39264 0.21403 0.66676 0.0
C375 C 0.32492 0.22061 0.6678 0.0
C376 C 0.32904 0.24565 0.65657 0.0
C377 C 0.33551 0.20193 0.65591 0.0
C378 C 0.35041 0.20793 0.63259 0.0
C379 C 0.35407 0.23264 0.62091 0.0
H380 H 0.46356 0.14414 0.56789 0.0
H381 H 0.43739 0.16976 0.58746 0.0
C382 C 0.34357 0.25137 0.63284 0.0
C383 C 0.36295 0.18882 0.62091 0.0
H384 H 0.40926 0.15901 0.63562 0.0
C385 C 0.35629 0.17864 0.59345 0.0
C386 C 0.3822 0.18159 0.63634 0.0
C387 C 0.39067 0.19263 0.66556 0.0
C388 C 0.36857 0.16154 0.58093 0.0
C389 C 0.38788 0.15439 0.59638 0.0
C390 C 0.39432 0.16438 0.62392 0.0
C391 C 0.40313 0.13835 0.58374 0.0
C392 C 0.36129 0.15182 0.55108 0.0
C393 C 0.39253 0.11205 0.5751 0.0
C394 C 0.40755 0.09718 0.56384 0.0
C395 C 0.43338 0.1084 0.56114 0.0
C396 C 0.44378 0.13477 0.56974 0.0
C397 C 0.42884 0.14951 0.58097 0.0
H398 H 0.35024 0.16362 0.54013 0.0
H399 H 0.37815 0.15221 0.5391 0.0
H400 H 0.34965 0.13121 0.55106 0.0
H401 H 0.37274 0.10298 0.57733 0.0
H402 H 0.39896 0.07696 0.55732 0.0
H403 H 0.79903 0.36403 0.70467 0.0
H404 H 0.84015 0.38962 0.69038 0.0
H405 H 0.80539 0.41213 0.61618 0.0
H406 H 0.76424 0.38705 0.63049 0.0
H407 H 0.86658 0.38714 0.6424 0.0
H408 H 0.84375 0.48239 0.653 0.0
H409 H 0.82457 0.45267 0.66692 0.0
H410 H 0.82163 0.45918 0.63033 0.0
C411 C 0.80015 0.37435 0.68525 0.0
C412 C 0.77835 0.37373 0.66884 0.0
C413 C 0.82365 0.38893 0.67713 0.0
C414 C 0.82572 0.40315 0.65252 0.0
C415 C 0.80411 0.40177 0.63559 0.0
H416 H 0.94782 0.47085 0.55063 0.0
H417 H 0.91499 0.4409 0.57538 0.0
C418 C 0.78063 0.38732 0.64373 0.0
C419 C 0.85037 0.41977 0.64463 0.0
H420 H 0.88042 0.48232 0.62842 0.0
C421 C 0.86976 0.40801 0.6396 0.0
C422 C 0.85463 0.44707 0.64161 0.0
C423 C 0.83514 0.46115 0.64852 0.0
C424 C 0.89297 0.42268 0.6304 0.0
C425 C 0.89663 0.44968 0.62568 0.0
C426 C 0.87758 0.46158 0.63185 0.0
C427 C 0.91932 0.46582 0.61278 0.0
C428 C 0.91328 0.40913 0.62581 0.0
C429 C 0.93289 0.48977 0.62561 0.0
C430 C 0.9515 0.50717 0.61132 0.0
C431 C 0.95687 0.50095 0.58389 0.0
C432 C 0.94428 0.47626 0.57177 0.0
C433 C 0.92555 0.45898 0.58599 0.0
H434 H 0.91093 0.39174 0.63904 0.0
H435 H 0.91214 0.40222 0.60358 0.0
H436 H 0.93221 0.42258 0.63052 0.0
H437 H 0.92835 0.49547 0.64625 0.0
H438 H 0.9609 0.52596 0.62133 0.0
H439 H 0.66829 0.78525 0.55654 0.0
H440 H 0.64088 0.81152 0.53974 0.0
H441 H 0.70227 0.88146 0.55054 0.0
H442 H 0.72988 0.85534 0.56676 0.0
H443 H 0.6301 0.84744 0.57388 0.0
H444 H 0.66909 0.89614 0.47803 0.0
H445 H 0.67681 0.86729 0.49074 0.0
H446 H 0.69261 0.89919 0.50571 0.0
C447 C 0.67614 0.80613 0.5546 0.0
C448 C 0.70122 0.81823 0.56322 0.0
C449 C 0.66045 0.82112 0.54496 0.0
C450 C 0.66953 0.84845 0.54367 0.0
C451 C 0.69494 0.86037 0.55072 0.0
H452 H 0.6125 0.98314 0.55108 0.0
H453 H 0.6373 0.9514 0.5484 0.0
C454 C 0.71068 0.84539 0.56025 0.0
C455 C 0.65183 0.86479 0.53937 0.0
H456 H 0.64226 0.91653 0.50346 0.0
C457 C 0.63245 0.86219 0.5581 0.0
C458 C 0.655 0.88415 0.5189 0.0
C459 C 0.67434 0.88671 0.49701 0.0
C460 C 0.61686 0.87911 0.55775 0.0
C461 C 0.62059 0.89903 0.53794 0.0
C462 C 0.63959 0.90133 0.51875 0.0
C463 C 0.60553 0.91827 0.5377 0.0
C464 C 0.59727 0.87625 0.57945 0.0
C465 C 0.57948 0.91017 0.53226 0.0
C466 C 0.56519 0.9282 0.53408 0.0
C467 C 0.57677 0.95471 0.54106 0.0
C468 C 0.60295 0.96282 0.54595 0.0
C469 C 0.6172 0.94477 0.54418 0.0
H470 H 0.60046 0.86377 0.59682 0.0
H471 H 0.59707 0.8957 0.58843 0.0
H472 H 0.57849 0.867 0.5694 0.0
H473 H 0.57017 0.88985 0.52682 0.0
H474 H 0.5451 0.92136 0.52997 0.0
H475 H 0.31771 0.23567 0.39026 0.0
H476 H 0.33453 0.20046 0.40763 0.0
H477 H 0.39575 0.25749 0.45086 0.0
H478 H 0.37881 0.2928 0.43404 0.0
H479 H 0.3799 0.19191 0.39795 0.0
H480 H 0.37159 0.20628 0.51221 0.0
H481 H 0.3558 0.22128 0.48634 0.0
H482 H 0.38856 0.23523 0.49544 0.0
C483 C 0.33467 0.24074 0.40361 0.0
C484 C 0.34688 0.26706 0.41082 0.0
C485 C 0.34425 0.22058 0.41355 0.0
C486 C 0.36617 0.22629 0.43095 0.0
C487 C 0.37847 0.25255 0.43806 0.0
H488 H 0.46058 0.13147 0.49588 0.0
H489 H 0.44185 0.16716 0.48462 0.0
C490 C 0.36886 0.27274 0.42822 0.0
C491 C 0.37679 0.20481 0.44038 0.0
H492 H 0.39492 0.17672 0.4984 0.0
C493 C 0.38297 0.18846 0.41993 0.0
C494 C 0.38094 0.20041 0.46908 0.0
C495 C 0.37367 0.21655 0.49207 0.0
C496 C 0.39343 0.16804 0.42732 0.0
C497 C 0.39752 0.16361 0.45598 0.0
C498 C 0.39158 0.18006 0.47648 0.0
C499 C 0.4079 0.14187 0.4649 0.0
C500 C 0.40051 0.15171 0.40436 0.0
C501 C 0.39466 0.11579 0.45836 0.0
C502 C 0.40526 0.09536 0.46477 0.0
C503 C 0.42932 0.10062 0.47793 0.0
C504 C 0.4421 0.12673 0.48554 0.0
C505 C 0.43142 0.14716 0.47917 0.0
H506 H 0.40192 0.16154 0.38396 0.0
H507 H 0.41871 0.14753 0.40976 0.0
H508 H 0.38593 0.13274 0.40173 0.0
H509 H 0.37625 0.11126 0.44784 0.0
H510 H 0.39477 0.07549 0.45886 0.0
H511 H 0.78591 0.34108 0.33333 0.0
H512 H 0.82257 0.36672 0.36096 0.0
H513 H 0.80344 0.43788 0.34001 0.0
H514 H 0.76673 0.41235 0.3118 0.0
H515 H 0.85541 0.44202 0.33894 0.0
H516 H 0.81533 0.39945 0.43756 0.0
H517 H 0.81771 0.37556 0.41133 0.0
H518 H 0.79696 0.39594 0.40501 0.0
C519 C 0.78953 0.36221 0.33436 0.0
C520 C 0.77317 0.37463 0.32057 0.0
C521 C 0.81048 0.37682 0.35029 0.0
C522 C 0.81544 0.40414 0.35303 0.0
C523 C 0.79985 0.41677 0.3383 0.0
H524 H 0.90166 0.50559 0.48483 0.0
H525 H 0.86994 0.47913 0.45174 0.0
C526 C 0.77888 0.40215 0.3222 0.0
C527 C 0.83624 0.41933 0.3722 0.0
H528 H 0.85701 0.42641 0.4409 0.0
C529 C 0.85582 0.43864 0.36123 0.0
C530 C 0.83656 0.41506 0.40133 0.0
C531 C 0.81542 0.39556 0.41462 0.0
C532 C 0.87579 0.45371 0.37863 0.0
C533 C 0.87634 0.44904 0.40767 0.0
C534 C 0.85671 0.42977 0.41859 0.0
C535 C 0.89616 0.46501 0.42752 0.0
C536 C 0.89574 0.47499 0.36591 0.0
C537 C 0.92153 0.46562 0.4252 0.0
C538 C 0.93989 0.48089 0.44417 0.0
C539 C 0.93313 0.49566 0.46589 0.0
C540 C 0.90762 0.49453 0.46838 0.0
C541 C 0.88939 0.47939 0.44944 0.0
H542 H 0.8896 0.48002 0.34484 0.0
H543 H 0.90079 0.493 0.37961 0.0
H544 H 0.91285 0.46816 0.36363 0.0
H545 H 0.92712 0.45423 0.40879 0.0
H546 H 0.95933 0.48124 0.44172 0.0
H547 H 0.63107 0.79312 0.35437 0.0
H548 H 0.61674 0.82368 0.38395 0.0
H549 H 0.69341 0.86662 0.40469 0.0
H550 H 0.70806 0.8362 0.37445 0.0
H551 H 0.62573 0.83689 0.44069 0.0
H552 H 0.66247 0.9234 0.37534 0.0
H553 H 0.66064 0.89047 0.3631 0.0
H554 H 0.68477 0.9069 0.38851 0.0
C555 C 0.64498 0.80899 0.36522 0.0
C556 C 0.67073 0.81232 0.36183 0.0
C557 C 0.63672 0.82643 0.38222 0.0
C558 C 0.65397 0.84762 0.39625 0.0
C559 C 0.67976 0.85067 0.39364 0.0
H560 H 0.60359 0.97447 0.47823 0.0
H561 H 0.63157 0.94827 0.46333 0.0
C562 C 0.68809 0.8332 0.37647 0.0
C563 C 0.64442 0.86657 0.4129 0.0
H564 H 0.63747 0.92866 0.41227 0.0
C565 C 0.62856 0.85707 0.43472 0.0
C566 C 0.64833 0.89297 0.4053 0.0
C567 C 0.66483 0.90414 0.38169 0.0
C568 C 0.61545 0.87277 0.44815 0.0
C569 C 0.61815 0.89869 0.43937 0.0
C570 C 0.63533 0.90877 0.41888 0.0
C571 C 0.60153 0.91465 0.44897 0.0
C572 C 0.59832 0.86093 0.47099 0.0
C573 C 0.57542 0.90474 0.44519 0.0
C574 C 0.55949 0.91955 0.45369 0.0
C575 C 0.56929 0.94485 0.46571 0.0
C576 C 0.59548 0.95513 0.46879 0.0
C577 C 0.61147 0.94013 0.46048 0.0
H578 H 0.60662 0.84777 0.48367 0.0
H579 H 0.59436 0.876 0.4852 0.0
H580 H 0.58028 0.84888 0.46128 0.0
H581 H 0.5673 0.88547 0.4356 0.0
H582 H 0.53943 0.91108 0.45089 0.0
H583 H 0.24188 0.68027 0.37979 0.0
H584 H 0.20294 0.6505 0.3944 0.0
H585 H 0.17143 0.71583 0.40656 0.0
H586 H 0.21018 0.74577 0.39151 0.0
H587 H 0.17702 0.64836 0.44345 0.0
H588 H 0.12028 0.66713 0.3517 0.0
H589 H 0.15413 0.67736 0.35349 0.0
H590 H 0.13668 0.69586 0.37218 0.0
C591 C 0.22676 0.68838 0.38577 0.0
C592 C 0.22903 0.71538 0.38418 0.0
C593 C 0.20451 0.67132 0.39409 0.0
C594 C 0.18414 0.68091 0.40094 0.0
C595 C 0.18674 0.70797 0.40067 0.0
H596 H 0.0462 0.59799 0.47517 0.0
H597 H 0.08154 0.63189 0.45884 0.0
C598 C 0.20896 0.72506 0.39225 0.0
C599 C 0.16008 0.66246 0.40789 0.0
H600 H 0.09835 0.63958 0.38611 0.0
C601 C 0.15983 0.64647 0.43095 0.0
C602 C 0.13772 0.6599 0.39135 0.0
C603 C 0.13713 0.67579 0.36564 0.0
C604 C 0.13773 0.62813 0.43805 0.0
C605 C 0.11542 0.62579 0.42167 0.0
C606 C 0.11557 0.64165 0.39861 0.0
C607 C 0.09191 0.6065 0.42825 0.0
C608 C 0.13825 0.61114 0.46287 0.0
C609 C 0.08564 0.58134 0.41562 0.0
C610 C 0.06544 0.56184 0.42485 0.0
C611 C 0.05128 0.56725 0.44695 0.0
C612 C 0.05671 0.59306 0.45819 0.0
C613 C 0.07691 0.61249 0.44895 0.0
H614 H 0.15735 0.61477 0.47292 0.0
H615 H 0.12538 0.61494 0.47869 0.0
H616 H 0.13149 0.59015 0.45613 0.0
H617 H 0.0971 0.57649 0.39956 0.0
H618 H 0.06183 0.54223 0.41572 0.0
H619 H 0.33839 0.82186 0.70566 0.0
H620 H 0.36155 0.86053 0.68177 0.0
H621 H 0.4301 0.83803 0.69621 0.0
H622 H 0.40703 0.79907 0.72028 0.0
H623 H 0.40536 0.90285 0.70073 0.0
H624 H 0.42168 0.84393 0.60904 0.0
H625 H 0.39831 0.83081 0.63405 0.0
H626 H 0.43088 0.83452 0.6429 0.0
C627 C 0.35844 0.82516 0.70399 0.0
C628 C 0.37082 0.80721 0.71473 0.0
C629 C 0.37164 0.84734 0.69037 0.0
C630 C 0.39745 0.85197 0.68694 0.0
C631 C 0.4101 0.83462 0.69839 0.0
H632 H 0.50401 0.98676 0.62351 0.0
H633 H 0.4789 0.95372 0.65317 0.0
C634 C 0.39691 0.81245 0.71225 0.0
C635 C 0.41078 0.87442 0.67043 0.0
H636 H 0.43962 0.88963 0.60875 0.0
C637 C 0.41292 0.90001 0.68065 0.0
C638 C 0.42022 0.87061 0.64404 0.0
C639 C 0.41757 0.84352 0.63162 0.0
C640 C 0.42466 0.92193 0.66533 0.0
C641 C 0.4345 0.91809 0.63918 0.0
C642 C 0.43204 0.8925 0.62882 0.0
C643 C 0.44811 0.94029 0.6225 0.0
C644 C 0.42619 0.949 0.67701 0.0
C645 C 0.43898 0.94396 0.59549 0.0
C646 C 0.45325 0.96296 0.57846 0.0
C647 C 0.47711 0.97834 0.58801 0.0
C648 C 0.48572 0.97527 0.6155 0.0
C649 C 0.47136 0.95644 0.63255 0.0
H650 H 0.41282 0.94852 0.69387 0.0
H651 H 0.44544 0.958 0.68599 0.0
H652 H 0.42228 0.96172 0.66023 0.0
H653 H 0.42111 0.93159 0.58731 0.0
H654 H 0.44614 0.96464 0.55735 0.0
H655 H 0.20732 0.33164 0.63921 0.0
H656 H 0.17478 0.3429 0.60957 0.0
H657 H 0.16874 0.40077 0.67187 0.0
H658 H 0.2006 0.38936 0.70166 0.0
H659 H 0.1227 0.37149 0.65084 0.0
H660 H 0.18592 0.40893 0.56436 0.0
H661 H 0.18278 0.37557 0.57359 0.0
H662 H 0.19773 0.40177 0.59813 0.0
C663 C 0.19897 0.34669 0.6466 0.0
C664 C 0.2067 0.35971 0.67274 0.0
C665 C 0.18046 0.35318 0.62958 0.0
C666 C 0.16955 0.37294 0.63833 0.0
C667 C 0.17688 0.38548 0.66465 0.0
H668 H 0.11054 0.48708 0.56902 0.0
H669 H 0.13348 0.4574 0.58735 0.0
C670 C 0.1952 0.37896 0.68165 0.0
C671 C 0.15093 0.38137 0.62021 0.0
H672 H 0.14538 0.4145 0.56084 0.0
C673 C 0.12746 0.38052 0.63092 0.0
C674 C 0.15721 0.39313 0.59421 0.0
C675 C 0.18231 0.39515 0.58186 0.0
C676 C 0.11071 0.39241 0.6172 0.0
C677 C 0.11747 0.40514 0.59185 0.0
C678 C 0.14027 0.40466 0.58028 0.0
C679 C 0.10308 0.42235 0.57933 0.0
C680 C 0.08666 0.39274 0.63083 0.0
C681 C 0.07829 0.41248 0.5685 0.0
C682 C 0.06491 0.42957 0.55805 0.0
C683 C 0.07619 0.45673 0.55826 0.0
C684 C 0.10114 0.46633 0.56872 0.0
C685 C 0.11439 0.44935 0.57908 0.0
H686 H 0.08587 0.38507 0.65232 0.0
H687 H 0.08453 0.41297 0.63198 0.0
H688 H 0.07049 0.38041 0.61802 0.0
H689 H 0.06932 0.39164 0.56814 0.0
H690 H 0.04584 0.42153 0.54978 0.0
H691 H 0.65734 0.21922 0.73678 0.0
H692 H 0.63259 0.18507 0.70417 0.0
H693 H 0.66867 0.22781 0.6346 0.0
H694 H 0.69381 0.26194 0.66709 0.0
H695 H 0.59924 0.19352 0.6637 0.0
H696 H 0.67097 0.15285 0.6155 0.0
H697 H 0.67722 0.1726 0.6476 0.0
H698 H 0.6774 0.18787 0.61437 0.0
C699 C 0.66035 0.22118 0.71458 0.0
C700 C 0.67751 0.24335 0.70454 0.0
C701 C 0.64617 0.20163 0.69597 0.0
C702 C 0.64893 0.20379 0.66699 0.0
C703 C 0.66658 0.2255 0.65691 0.0
H704 H 0.53483 0.12939 0.53957 0.0
H705 H 0.56655 0.16039 0.56936 0.0
C706 C 0.68084 0.24506 0.67553 0.0
C707 C 0.63177 0.18452 0.64735 0.0
H708 H 0.6298 0.13997 0.59395 0.0
C709 C 0.60592 0.18174 0.64853 0.0
C710 C 0.64054 0.16908 0.6277 0.0
C711 C 0.66803 0.1705 0.62629 0.0
C712 C 0.58857 0.16412 0.63041 0.0
C713 C 0.59736 0.14921 0.61022 0.0
C714 C 0.62318 0.15167 0.60926 0.0
C715 C 0.57982 0.13059 0.59038 0.0
C716 C 0.56094 0.16135 0.63332 0.0
C717 C 0.57744 0.10363 0.59162 0.0
C718 C 0.5594 0.08582 0.57453 0.0
C719 C 0.54347 0.09472 0.55584 0.0
C720 C 0.54663 0.12185 0.55388 0.0
C721 C 0.56469 0.13961 0.57095 0.0
H722 H 0.55711 0.16929 0.65389 0.0
H723 H 0.55419 0.17237 0.61664 0.0
H724 H 0.54998 0.14049 0.63095 0.0
H725 H 0.58905 0.09632 0.60641 0.0
H726 H 0.55756 0.06508 0.57646 0.0
H727 H 0.79046 0.72932 0.55646 0.0
H728 H 0.82031 0.70435 0.54529 0.0
H729 H 0.80834 0.66667 0.62457 0.0
H730 H 0.7798 0.69262 0.63651 0.0
H731 H 0.85678 0.68474 0.61614 0.0
H732 H 0.81001 0.62886 0.52057 0.0
H733 H 0.81449 0.66354 0.51836 0.0
H734 H 0.79405 0.64569 0.54378 0.0
C735 C 0.79394 0.71546 0.57138 0.0
C736 C 0.78215 0.7125 0.59713 0.0
C737 C 0.81085 0.70102 0.56483 0.0
C738 C 0.81615 0.68317 0.58381 0.0
C739 C 0.80427 0.68005 0.60941 0.0
H740 H 0.90132 0.57085 0.54814 0.0
H741 H 0.86837 0.59265 0.55621 0.0
C742 C 0.78755 0.69464 0.61606 0.0
C743 C 0.83545 0.6692 0.57802 0.0
H744 H 0.85224 0.62826 0.53093 0.0
C745 C 0.85575 0.67237 0.5975 0.0
C746 C 0.83392 0.65273 0.55394 0.0
C747 C 0.81182 0.64724 0.5331 0.0
C748 C 0.87473 0.65985 0.59342 0.0
C749 C 0.87385 0.64437 0.56866 0.0
C750 C 0.85324 0.64069 0.5495 0.0
C751 C 0.89385 0.63141 0.56258 0.0
C752 C 0.89508 0.66279 0.61616 0.0
C753 C 0.9191 0.64599 0.56269 0.0
C754 C 0.938 0.63348 0.5587 0.0
C755 C 0.93193 0.60624 0.55374 0.0
C756 C 0.90658 0.59184 0.55219 0.0
C757 C 0.88773 0.6043 0.55672 0.0
H758 H 0.88874 0.66783 0.63682 0.0
H759 H 0.90115 0.64454 0.6181 0.0
H760 H 0.91154 0.67894 0.61105 0.0
H761 H 0.92425 0.66705 0.56609 0.0
H762 H 0.95734 0.64515 0.5594 0.0
H763 H 0.33716 0.41874 0.30953 0.0
H764 H 0.35569 0.43716 0.26653 0.0
H765 H 0.37577 0.36571 0.24746 0.0
H766 H 0.35764 0.34717 0.29092 0.0
H767 H 0.41401 0.40947 0.23904 0.0
H768 H 0.32579 0.41916 0.18746 0.0
H769 H 0.33223 0.43524 0.22143 0.0
H770 H 0.32621 0.40018 0.21828 0.0
C771 C 0.34546 0.40684 0.29622 0.0
C772 C 0.34576 0.38137 0.30364 0.0
C773 C 0.35591 0.41739 0.27151 0.0
C774 C 0.36663 0.40262 0.25346 0.0
C775 C 0.3674 0.37737 0.26098 0.0
H776 H 0.40639 0.44005 0.08206 0.0
H777 H 0.38635 0.42142 0.12441 0.0
C778 C 0.35704 0.36681 0.28583 0.0
C779 C 0.37752 0.41385 0.22708 0.0
H780 H 0.36375 0.44111 0.16643 0.0
C781 C 0.403 0.41627 0.22309 0.0
C782 C 0.36305 0.42239 0.2061 0.0
C783 C 0.33525 0.41889 0.20834 0.0
C784 C 0.41454 0.4275 0.19898 0.0
C785 C 0.40032 0.43708 0.17859 0.0
C786 C 0.37471 0.43413 0.18228 0.0
C787 C 0.41157 0.44958 0.15292 0.0
C788 C 0.44175 0.42857 0.19538 0.0
C789 C 0.43187 0.47215 0.1548 0.0
C790 C 0.44345 0.48281 0.13063 0.0
C791 C 0.43477 0.47123 0.10407 0.0
C792 C 0.41363 0.44941 0.10217 0.0
C793 C 0.40215 0.4387 0.12637 0.0
H794 H 0.44787 0.41431 0.20872 0.0
H795 H 0.44517 0.42447 0.17321 0.0
H796 H 0.45357 0.44847 0.20162 0.0
H797 H 0.43902 0.48131 0.17502 0.0
H798 H 0.45951 0.49979 0.13285 0.0
H799 H 0.39139 0.66294 0.78751 0.0
H800 H 0.41268 0.64068 0.82068 0.0
H801 H 0.40397 0.69334 0.8873 0.0
H802 H 0.38213 0.71533 0.85437 0.0
H803 H 0.45552 0.65898 0.85167 0.0
H804 H 0.37741 0.62312 0.92227 0.0
H805 H 0.37296 0.63622 0.88851 0.0
H806 H 0.38527 0.65791 0.91823 0.0
C807 C 0.39393 0.66976 0.80923 0.0
C808 C 0.38494 0.69087 0.81828 0.0
C809 C 0.40609 0.65699 0.8282 0.0
C810 C 0.40954 0.66498 0.85663 0.0
C811 C 0.40096 0.68633 0.86565 0.0
H812 H 0.52002 0.62701 0.97029 0.0
H813 H 0.49465 0.64897 0.94196 0.0
C814 C 0.38866 0.69904 0.84672 0.0
C815 C 0.4229 0.65152 0.87653 0.0
H816 H 0.4175 0.61904 0.93803 0.0
C817 C 0.44715 0.6502 0.8705 0.0
C818 C 0.41188 0.63969 0.90094 0.0
C819 C 0.38536 0.63903 0.90778 0.0
C820 C 0.4608 0.63776 0.88831 0.0
C821 C 0.45019 0.62685 0.91329 0.0
C822 C 0.42576 0.62773 0.91911 0.0
C823 C 0.46413 0.61413 0.93327 0.0
C824 C 0.4863 0.63599 0.87987 0.0
C825 C 0.45479 0.58753 0.93921 0.0
C826 C 0.46915 0.57492 0.95579 0.0
C827 C 0.49315 0.58871 0.96669 0.0
C828 C 0.50177 0.6157 0.96198 0.0
C829 C 0.48735 0.62828 0.94561 0.0
H830 H 0.48865 0.63866 0.85704 0.0
H831 H 0.501 0.65167 0.89121 0.0
H832 H 0.48941 0.6168 0.88526 0.0
H833 H 0.43682 0.57626 0.93011 0.0
H834 H 0.46192 0.55413 0.95895 0.0
H835 H 0.30807 0.37501 0.79225 0.0
H836 H 0.33663 0.39957 0.82961 0.0
H837 H 0.39602 0.36926 0.7993 0.0
H838 H 0.36738 0.3441 0.7621 0.0
H839 H 0.39487 0.3698 0.85715 0.0
H840 H 0.39125 0.46608 0.81666 0.0
H841 H 0.36105 0.44501 0.8238 0.0
H842 H 0.37894 0.4358 0.79661 0.0
C843 C 0.32718 0.37345 0.79353 0.0
C844 C 0.33547 0.35774 0.77395 0.0
C845 C 0.34352 0.38763 0.81486 0.0
C846 C 0.36861 0.3867 0.81692 0.0
C847 C 0.37677 0.3704 0.79801 0.0
H848 H 0.49383 0.49994 0.89856 0.0
H849 H 0.4623 0.47151 0.86668 0.0
C850 C 0.36037 0.35605 0.77673 0.0
C851 C 0.38646 0.40319 0.83837 0.0
H852 H 0.41281 0.46669 0.86048 0.0
C853 C 0.39881 0.39099 0.85792 0.0
C854 C 0.3918 0.43086 0.83914 0.0
C855 C 0.38027 0.44527 0.81779 0.0
C856 C 0.41631 0.40571 0.87824 0.0
C857 C 0.42123 0.43335 0.87936 0.0
C858 C 0.40885 0.44549 0.85981 0.0
C859 C 0.44031 0.45028 0.89938 0.0
C860 C 0.4299 0.39157 0.89774 0.0
C861 C 0.43839 0.44804 0.92853 0.0
C862 C 0.4566 0.46428 0.94698 0.0
C863 C 0.47689 0.48324 0.93658 0.0
C864 C 0.47848 0.48562 0.90738 0.0
C865 C 0.46043 0.46934 0.88906 0.0
H866 H 0.4286 0.37138 0.88975 0.0
H867 H 0.45001 0.40239 0.9008 0.0
H868 H 0.42134 0.39011 0.91846 0.0
H869 H 0.42274 0.43388 0.93703 0.0
H870 H 0.45474 0.46204 0.96934 0.0
H871 H 0.70887 0.37841 0.81353 0.0
H872 H 0.6923 0.40776 0.84299 0.0
H873 H 0.65815 0.43253 0.76977 0.0
H874 H 0.67454 0.40339 0.74014 0.0
H875 H 0.69513 0.46712 0.83729 0.0
H876 H 0.60053 0.39635 0.82496 0.0
H877 H 0.629 0.38693 0.81911 0.0
H878 H 0.6171 0.40527 0.79345 0.0
C879 C 0.69812 0.39035 0.80363 0.0
C880 C 0.6928 0.38833 0.7745 0.0
C881 C 0.68878 0.40716 0.82049 0.0
C882 C 0.67394 0.4221 0.80848 0.0
C883 C 0.66952 0.42103 0.77936 0.0
H884 H 0.57133 0.50344 0.8716 0.0
H885 H 0.59858 0.48567 0.84259 0.0
C886 C 0.67888 0.40432 0.76249 0.0
C887 C 0.66117 0.43703 0.82646 0.0
H888 H 0.6034 0.43624 0.84916 0.0
C889 C 0.6751 0.46045 0.84002 0.0
C890 C 0.63508 0.42813 0.82988 0.0
C891 C 0.61946 0.40271 0.81628 0.0
C892 C 0.66336 0.47558 0.85655 0.0
C893 C 0.6372 0.46667 0.85987 0.0
C894 C 0.62343 0.4431 0.84645 0.0
C895 C 0.62338 0.4812 0.87711 0.0
C896 C 0.6789 0.50117 0.86975 0.0
C897 C 0.62863 0.48517 0.90611 0.0
C898 C 0.6131 0.49547 0.9228 0.0
C899 C 0.59188 0.50155 0.91074 0.0
C900 C 0.58733 0.49859 0.88156 0.0
C901 C 0.60294 0.48854 0.86493 0.0
H902 H 0.69681 0.50859 0.85915 0.0
H903 H 0.66842 0.51632 0.8691 0.0
H904 H 0.68348 0.49819 0.89203 0.0
H905 H 0.64405 0.47922 0.91601 0.0
H906 H 0.61705 0.49755 0.94523 0.0
H907 H 0.70076 0.62397 0.71172 0.0
H908 H 0.67697 0.60097 0.75017 0.0
H909 H 0.68594 0.67471 0.79482 0.0
H910 H 0.70954 0.69782 0.75669 0.0
H911 H 0.69063 0.60151 0.80978 0.0
H912 H 0.6089 0.64098 0.78769 0.0
H913 H 0.63263 0.64164 0.76262 0.0
H914 H 0.63841 0.66558 0.79106 0.0
C915 C 0.69775 0.63527 0.72978 0.0
C916 C 0.70687 0.66276 0.73103 0.0
C917 C 0.6842 0.62209 0.75172 0.0
C918 C 0.67942 0.63621 0.77509 0.0
C919 C 0.68911 0.66352 0.77674 0.0
H920 H 0.63012 0.59853 0.94038 0.0
H921 H 0.65395 0.61057 0.89838 0.0
C922 C 0.70266 0.67668 0.75493 0.0
C923 C 0.6639 0.62266 0.79766 0.0
H924 H 0.61025 0.62058 0.8314 0.0
C925 C 0.67294 0.60544 0.8144 0.0
C926 C 0.64064 0.62751 0.80329 0.0
C927 C 0.62939 0.64474 0.78508 0.0
C928 C 0.65976 0.59381 0.83745 0.0
C929 C 0.63721 0.59986 0.84397 0.0
C930 C 0.62769 0.61619 0.82651 0.0
C931 C 0.62359 0.59037 0.8694 0.0
C932 C 0.67004 0.5752 0.85466 0.0
C933 C 0.59859 0.57516 0.86701 0.0
C934 C 0.58487 0.5684 0.89093 0.0
C935 C 0.59587 0.57691 0.91772 0.0
C936 C 0.62109 0.59171 0.92007 0.0
C937 C 0.63481 0.59842 0.89611 0.0
H938 H 0.6832 0.56701 0.84272 0.0
H939 H 0.68044 0.58588 0.87356 0.0
H940 H 0.65466 0.55877 0.86165 0.0
H941 H 0.58956 0.56887 0.84657 0.0
H942 H 0.5655 0.55695 0.88835 0.0
H943 H 0.70099 0.67156 0.25105 0.0
H944 H 0.67595 0.64275 0.21371 0.0
H945 H 0.64805 0.70644 0.18435 0.0
H946 H 0.6726 0.7352 0.22176 0.0
H947 H 0.61058 0.66269 0.1926 0.0
H948 H 0.68312 0.63719 0.12935 0.0
H949 H 0.68617 0.63135 0.16602 0.0
H950 H 0.69034 0.66429 0.15465 0.0
C951 C 0.68984 0.67956 0.23638 0.0
C952 C 0.68875 0.70569 0.23951 0.0
C953 C 0.67564 0.66308 0.21492 0.0
C954 C 0.66029 0.67249 0.19604 0.0
C955 C 0.65979 0.69876 0.19863 0.0
H956 H 0.57204 0.59149 0.04904 0.0
H957 H 0.60373 0.62111 0.08046 0.0
C958 C 0.67387 0.71519 0.22007 0.0
C959 C 0.64309 0.65454 0.17516 0.0
H960 H 0.64082 0.61194 0.11971 0.0
C961 C 0.61724 0.65172 0.17658 0.0
C962 C 0.65178 0.64041 0.15408 0.0
C963 C 0.67938 0.64359 0.15067 0.0
C964 C 0.59981 0.63484 0.15787 0.0
C965 C 0.6084 0.61997 0.13746 0.0
C966 C 0.63428 0.62316 0.13558 0.0
C967 C 0.59061 0.60092 0.11812 0.0
C968 C 0.57232 0.63327 0.15997 0.0
C969 C 0.5732 0.57939 0.12879 0.0
C970 C 0.55507 0.56254 0.11098 0.0
C971 C 0.55406 0.56676 0.08204 0.0
C972 C 0.5722 0.58775 0.07122 0.0
C973 C 0.59035 0.60466 0.08913 0.0
H974 H 0.56947 0.65059 0.17154 0.0
H975 H 0.56286 0.6318 0.13885 0.0
H976 H 0.56312 0.61554 0.17143 0.0
H977 H 0.57337 0.57587 0.15103 0.0
H978 H 0.54158 0.54644 0.12004 0.0
H979 H 0.34881 0.7179 0.16086 0.0
H980 H 0.36773 0.68513 0.1413 0.0
H981 H 0.35003 0.63939 0.21496 0.0
H982 H 0.33056 0.67186 0.23448 0.0
H983 H 0.40759 0.67 0.16275 0.0
H984 H 0.32362 0.58459 0.15216 0.0
H985 H 0.32149 0.61762 0.15845 0.0
H986 H 0.32977 0.59935 0.1868 0.0
C987 C 0.34882 0.70082 0.17287 0.0
C988 C 0.33815 0.69747 0.19921 0.0
C989 C 0.35961 0.68208 0.16164 0.0
C990 C 0.35996 0.65962 0.17647 0.0
C991 C 0.34945 0.65626 0.20286 0.0
H992 H 0.46195 0.56486 0.14225 0.0
H993 H 0.43697 0.59034 0.16495 0.0
C994 C 0.33851 0.67495 0.21407 0.0
C995 C 0.37245 0.64049 0.16477 0.0
H996 H 0.3629 0.57642 0.14349 0.0
C997 C 0.3978 0.64955 0.15853 0.0
C998 C 0.35957 0.61385 0.15906 0.0
C999 C 0.33205 0.60326 0.1642 0.0
C1000 C 0.41068 0.63274 0.14683 0.0
C1001 C 0.398 0.60599 0.14173 0.0
C1002 C 0.3726 0.59689 0.14774 0.0
C1003 C 0.41087 0.58751 0.12944 0.0
C1004 C 0.43765 0.64388 0.1395 0.0
C1005 C 0.4037 0.57642 0.10245 0.0
C1006 C 0.41788 0.5617 0.0894 0.0
C1007 C 0.43944 0.55788 0.1032 0.0
C1008 C 0.44564 0.56772 0.13089 0.0
C1009 C 0.43143 0.58234 0.1439 0.0
H1010 H 0.44274 0.66559 0.13864 0.0
H1011 H 0.45015 0.63856 0.15569 0.0
H1012 H 0.44127 0.63573 0.11895 0.0
H1013 H 0.38778 0.5801 0.09102 0.0
H1014 H 0.41255 0.55428 0.06812 0.0
H1015 H 0.68324 0.37538 0.17226 0.0
H1016 H 0.6611 0.39498 0.13717 0.0
H1017 H 0.61481 0.41319 0.20099 0.0
H1018 H 0.6371 0.39411 0.23622 0.0
H1019 H 0.61158 0.38038 0.12075 0.0
H1020 H 0.63744 0.48262 0.16302 0.0
H1021 H 0.65326 0.45879 0.17467 0.0
H1022 H 0.6237 0.45949 0.18864 0.0
C1023 C 0.66853 0.38381 0.17889 0.0
C1024 C 0.66203 0.38328 0.2071 0.0
C1025 C 0.65586 0.39497 0.15879 0.0
C1026 C 0.63653 0.40592 0.16648 0.0
C1027 C 0.63004 0.40544 0.19463 0.0
H1028 H 0.51153 0.43032 0.06998 0.0
H1029 H 0.54141 0.41298 0.09686 0.0
C1030 C 0.64273 0.39437 0.21475 0.0
C1031 C 0.62234 0.41675 0.14495 0.0
H1032 H 0.60285 0.47092 0.12927 0.0
C1033 C 0.60989 0.40027 0.12244 0.0
C1034 C 0.62045 0.44283 0.14685 0.0
C1035 C 0.63464 0.46205 0.16944 0.0
C1036 C 0.59482 0.40883 0.10246 0.0
C1037 C 0.59174 0.43441 0.10534 0.0
C1038 C 0.60499 0.45122 0.1272 0.0
C1039 C 0.57402 0.44379 0.08678 0.0
C1040 C 0.58238 0.39039 0.07845 0.0
C1041 C 0.58231 0.46702 0.0722 0.0
C1042 C 0.5652 0.47716 0.05688 0.0
C1043 C 0.53936 0.46435 0.05601 0.0
C1044 C 0.53126 0.44068 0.07 0.0
C1045 C 0.54837 0.4306 0.08531 0.0
H1046 H 0.59271 0.37552 0.07414 0.0
H1047 H 0.5631 0.37982 0.08397 0.0
H1048 H 0.58109 0.40116 0.05903 0.0
H1049 H 0.60201 0.4776 0.07313 0.0
H1050 H 0.57215 0.49547 0.0465 0.0
loop_
_geom_bond_atom_site_label_1
_geom_bond_atom_site_label_2
_geom_bond_distance
_geom_bond_site_symmetry_2
_ccdc_geom_bond_type
O0 Cd1 2.300 . S
O0 C7 1.275 . S
Cd1 O0 2.300 . S
Cd1 O9 2.381 . S
Cd1 O10 2.378 . S
O2 Cd3 2.385 . S
O2 C7 1.255 . S
Cd3 O2 2.385 . S
Cd3 O4 2.317 . S
O4 Cd3 2.317 . S
O4 C5 1.232 . S
C5 O4 1.232 . S
C5 O6 1.218 . S
O6 C5 1.218 . S
C7 O0 1.275 . S
C7 O2 1.255 . S
C8 O9 1.258 . S
C8 O10 1.256 . S
O9 Cd1 2.381 . S
O9 C8 1.258 . S
O10 Cd1 2.378 . S
O10 C8 1.256 . S
O11 Cd12 2.300 . S
O11 C18 1.275 . S
Cd12 O11 2.300 . S
Cd12 O20 2.381 . S
Cd12 O21 2.378 . S
O13 Cd14 2.385 . S
O13 C18 1.255 . S
Cd14 O13 2.385 . S
Cd14 O15 2.317 . S
O15 Cd14 2.317 . S
O15 C16 1.232 . S
C16 O15 1.232 . S
C16 O17 1.218 . S
O17 C16 1.218 . S
C18 O11 1.275 . S
C18 O13 1.255 . S
C19 O20 1.258 . S
C19 O21 1.256 . S
O20 Cd12 2.381 . S
O20 C19 1.258 . S
O21 Cd12 2.378 . S
O21 C19 1.256 . S
O22 Cd23 2.300 . S
O22 C29 1.275 . S
Cd23 O22 2.300 . S
Cd23 O31 2.381 . S
Cd23 O32 2.378 . S
O24 Cd25 2.385 . S
O24 C29 1.255 . S
Cd25 O24 2.385 . S
Cd25 O26 2.317 . S
O26 Cd25 2.317 . S
O26 C27 1.232 . S
C27 O26 1.232 . S
C27 O28 1.218 . S
O28 C27 1.218 . S
C29 O22 1.275 . S
C29 O24 1.255 . S
C30 O31 1.258 . S
C30 O32 1.256 . S
O31 Cd23 2.381 . S
O31 C30 1.258 . S
O32 Cd23 2.378 . S
O32 C30 1.256 . S
O33 Cd34 2.300 . S
O33 C40 1.275 . S
Cd34 O33 2.300 . S
Cd34 O42 2.381 . S
Cd34 O43 2.378 . S
O35 Cd36 2.385 . S
O35 C40 1.255 . S
Cd36 O35 2.385 . S
Cd36 O37 2.317 . S
O37 Cd36 2.317 . S
O37 C38 1.232 . S
C38 O37 1.232 . S
C38 O39 1.218 . S
O39 C38 1.218 . S
C40 O33 1.275 . S
C40 O35 1.255 . S
C41 O42 1.258 . S
C41 O43 1.256 . S
O42 Cd34 2.381 . S
O42 C41 1.258 . S
O43 Cd34 2.378 . S
O43 C41 1.256 . S
O44 Cd45 2.300 . S
O44 C51 1.275 . S
Cd45 O44 2.300 . S
Cd45 O53 2.381 . S
Cd45 O54 2.378 . S
O46 Cd47 2.385 . S
O46 C51 1.255 . S
Cd47 O46 2.385 . S
Cd47 O48 2.317 . S
O48 Cd47 2.317 . S
O48 C49 1.232 . S
C49 O48 1.232 . S
C49 O50 1.218 . S
O50 C49 1.218 . S
C51 O44 1.275 . S
C51 O46 1.255 . S
C52 O53 1.258 . S
C52 O54 1.256 . S
O53 Cd45 2.381 . S
O53 C52 1.258 . S
O54 Cd45 2.378 . S
O54 C52 1.256 . S
O55 Cd56 2.300 . S
O55 C62 1.275 . S
Cd56 O55 2.300 . S
Cd56 O64 2.381 . S
Cd56 O65 2.378 . S
O57 Cd58 2.385 . S
O57 C62 1.255 . S
Cd58 O57 2.385 . S
Cd58 O59 2.317 . S
O59 Cd58 2.317 . S
O59 C60 1.232 . S
C60 O59 1.232 . S
C60 O61 1.218 . S
O61 C60 1.218 . S
C62 O55 1.275 . S
C62 O57 1.255 . S
C63 O64 1.258 . S
C63 O65 1.256 . S
O64 Cd56 2.381 . S
O64 C63 1.258 . S
O65 Cd56 2.378 . S
O65 C63 1.256 . S
O66 Cd67 2.300 . S
O66 C73 1.275 . S
Cd67 O66 2.300 . S
Cd67 O75 2.381 . S
Cd67 O76 2.378 . S
O68 Cd69 2.385 . S
O68 C73 1.255 . S
Cd69 O68 2.385 . S
Cd69 O70 2.317 . S
O70 Cd69 2.317 . S
O70 C71 1.232 . S
C71 O70 1.232 . S
C71 O72 1.218 . S
O72 C71 1.218 . S
C73 O66 1.275 . S
C73 O68 1.255 . S
C74 O75 1.258 . S
C74 O76 1.256 . S
O75 Cd67 2.381 . S
O75 C74 1.258 . S
O76 Cd67 2.378 . S
O76 C74 1.256 . S
O77 Cd78 2.300 . S
O77 C84 1.275 . S
Cd78 O77 2.300 . S
Cd78 O86 2.381 . S
Cd78 O87 2.378 . S
O79 Cd80 2.385 . S
O79 C84 1.255 . S
Cd80 O79 2.385 . S
Cd80 O81 2.317 . S
O81 Cd80 2.317 . S
O81 C82 1.232 . S
C82 O81 1.232 . S
C82 O83 1.218 . S
O83 C82 1.218 . S
C84 O77 1.275 . S
C84 O79 1.255 . S
C85 O86 1.258 . S
C85 O87 1.256 . S
O86 Cd78 2.381 . S
O86 C85 1.258 . S
O87 Cd78 2.378 . S
O87 C85 1.256 . S
Co88 O91 2.042 . S
Co88 O98 2.264 . S
Co88 O117 2.286 . S
Co88 O118 2.069 . S
Co88 O120 2.015 . S
Co89 O91 2.122 . S
Co89 O97 2.073 . S
Co89 O98 2.327 . S
Co89 O99 1.976 . S
Co90 O91 2.087 . S
Co90 O93 2.087 1_455 S
Co90 O100 2.111 . S
Co90 O101 2.143 1_455 S
Co90 O105 2.111 1_455 S
Co90 O119 2.143 . S
O91 Co88 2.042 . S
O91 Co89 2.122 . S
O91 Co90 2.087 . S
O91 H92 0.980 . S
H92 O91 0.980 . S
O93 Co90 2.087 1_655 S
O93 Co94 2.042 . S
O93 Co95 2.122 . S
O93 H96 0.980 1_655 S
Co94 O93 2.042 . S
Co94 O102 2.286 . S
Co94 O103 2.069 . S
Co94 O104 2.015 . S
Co94 O107 2.264 . S
Co95 O93 2.122 . S
Co95 O106 1.976 . S
Co95 O107 2.327 . S
Co95 O108 2.073 . S
H96 O93 0.980 1_455 S
O97 Co89 2.073 . S
O97 C112 1.245 . S
O98 Co88 2.264 . S
O98 Co89 2.327 . S
O98 C112 1.257 . S
O99 Co89 1.976 . S
O99 C111 1.251 . S
O100 Co90 2.111 . S
O100 C111 1.274 . S
O101 Co90 2.143 1_655 S
O101 C114 1.246 . S
O102 Co94 2.286 . S
O102 C113 1.259 . S
O103 Co94 2.069 . S
O103 C113 1.289 . S
O104 Co94 2.015 . S
O104 C114 1.257 . S
O105 Co90 2.111 1_655 S
O105 C115 1.274 . S
O106 Co95 1.976 . S
O106 C115 1.251 . S
O107 Co94 2.264 . S
O107 Co95 2.327 . S
O107 C116 1.257 . S
O108 Co95 2.073 . S
O108 C116 1.245 . S
C109 O117 1.259 . S
C109 O118 1.289 . S
C110 O119 1.246 . S
C110 O120 1.257 . S
C111 O99 1.251 . S
C111 O100 1.274 . S
C112 O97 1.245 . S
C112 O98 1.257 . S
C113 O102 1.259 . S
C113 O103 1.289 . S
C114 O101 1.246 . S
C114 O104 1.257 . S
C115 O105 1.274 . S
C115 O106 1.251 . S
C116 O107 1.257 . S
C116 O108 1.245 . S
O117 Co88 2.286 . S
O117 C109 1.259 . S
O118 Co88 2.069 . S
O118 C109 1.289 . S
O119 Co90 2.143 . S
O119 C110 1.246 . S
O120 Co88 2.015 . S
O120 C110 1.257 . S
Co121 O124 2.042 . S
Co121 O131 2.264 . S
Co121 O150 2.286 . S
Co121 O151 2.069 . S
Co121 O153 2.015 . S
Co122 O124 2.122 . S
Co122 O130 2.073 . S
Co122 O131 2.327 . S
Co122 O132 1.976 . S
Co123 O124 2.087 1_545 S
Co123 O126 2.087 . S
Co123 O133 2.117 . S
Co123 O134 2.143 . S
Co123 O138 2.111 . S
Co123 O152 2.143 1_545 S
O124 Co121 2.042 . S
O124 Co122 2.122 . S
O124 Co123 2.087 1_565 S
O124 H125 0.980 1_565 S
H125 O124 0.980 1_545 S
O126 Co123 2.087 . S
O126 Co127 2.042 . S
O126 Co128 2.122 . S
O126 H129 0.980 . S
Co127 O126 2.042 . S
Co127 O135 2.286 . S
Co127 O136 2.069 . S
Co127 O137 2.015 . S
Co127 O140 2.264 . S
Co128 O126 2.122 . S
Co128 O139 1.976 . S
Co128 O140 2.327 . S
Co128 O141 2.073 . S
H129 O126 0.980 . S
O130 Co122 2.073 . S
O130 C145 1.245 . S
O131 Co121 2.264 . S
O131 Co122 2.327 . S
O131 C145 1.257 . S
O132 Co122 1.976 . S
O132 C144 1.251 . S
O133 Co123 2.117 . S
O133 C144 1.257 1_545 S
O134 Co123 2.143 . S
O134 C147 1.246 . S
O135 Co127 2.286 . S
O135 C146 1.259 . S
O136 Co127 2.069 . S
O136 C146 1.289 . S
O137 Co127 2.015 . S
O137 C147 1.257 . S
O138 Co123 2.111 . S
O138 C148 1.274 . S
O139 Co128 1.976 . S
O139 C148 1.251 . S
O140 Co127 2.264 . S
O140 Co128 2.327 . S
O140 C149 1.257 . S
O141 Co128 2.073 . S
O141 C149 1.245 . S
C142 O150 1.259 . S
C142 O151 1.289 . S
C143 O152 1.246 . S
C143 O153 1.257 . S
C144 O132 1.251 . S
C144 O133 1.257 1_565 S
C145 O130 1.245 . S
C145 O131 1.257 . S
C146 O135 1.259 . S
C146 O136 1.289 . S
C147 O134 1.246 . S
C147 O137 1.257 . S
C148 O138 1.274 . S
C148 O139 1.251 . S
C149 O140 1.257 . S
C149 O141 1.245 . S
O150 Co121 2.286 . S
O150 C142 1.259 . S
O151 Co121 2.069 . S
O151 C142 1.289 . S
O152 Co123 2.143 1_565 S
O152 C143 1.246 . S
O153 Co121 2.015 . S
O153 C143 1.257 . S
Co154 O157 2.042 . S
Co154 O164 2.264 . S
Co154 O183 2.286 . S
Co154 O184 2.069 . S
Co154 O186 2.015 . S
Co155 O157 2.122 . S
Co155 O163 2.073 . S
Co155 O164 2.327 . S
Co155 O165 1.976 . S
Co156 O157 2.087 . S
Co156 O159 2.087 1_554 S
Co156 O166 2.111 . S
Co156 O167 2.143 1_554 S
Co156 O171 2.111 1_554 S
Co156 O185 2.143 . S
O157 Co154 2.042 . S
O157 Co155 2.122 . S
O157 Co156 2.087 . S
O157 H158 0.980 . S
H158 O157 0.980 . S
O159 Co156 2.087 1_556 S
O159 Co160 2.042 . S
O159 Co161 2.122 . S
O159 H162 0.980 . S
Co160 O159 2.042 . S
Co160 O168 2.286 . S
Co160 O169 2.069 . S
Co160 O170 2.015 . S
Co160 O173 2.264 . S
Co161 O159 2.122 . S
Co161 O172 1.976 . S
Co161 O173 2.327 . S
Co161 O174 2.073 . S
H162 O159 0.980 . S
O163 Co155 2.073 . S
O163 C178 1.245 . S
O164 Co154 2.264 . S
O164 Co155 2.327 . S
O164 C178 1.257 . S
O165 Co155 1.976 . S
O165 C177 1.251 . S
O166 Co156 2.111 . S
O166 C177 1.274 . S
O167 Co156 2.143 1_556 S
O167 C180 1.246 . S
O168 Co160 2.286 . S
O168 C179 1.259 . S
O169 Co160 2.069 . S
O169 C179 1.289 . S
O170 Co160 2.015 . S
O170 C180 1.257 . S
O171 Co156 2.111 1_556 S
O171 C181 1.274 . S
O172 Co161 1.976 . S
O172 C181 1.251 . S
O173 Co160 2.264 . S
O173 Co161 2.327 . S
O173 C182 1.257 . S
O174 Co161 2.073 . S
O174 C182 1.245 . S
C175 O183 1.259 . S
C175 O184 1.289 . S
C176 O185 1.246 . S
C176 O186 1.257 . S
C177 O165 1.251 . S
C177 O166 1.274 . S
C178 O163 1.245 . S
C178 O164 1.257 . S
C179 O168 1.259 . S
C179 O169 1.289 . S
C180 O167 1.246 . S
C180 O170 1.257 . S
C181 O171 1.274 . S
C181 O172 1.251 . S
C182 O173 1.257 . S
C182 O174 1.245 . S
O183 Co154 2.286 . S
O183 C175 1.259 . S
O184 Co154 2.069 . S
O184 C175 1.289 . S
O185 Co156 2.143 . S
O185 C176 1.246 . S
O186 Co154 2.015 . S
O186 C176 1.257 . S
H187 C195 0.929 . S
H188 C197 0.930 . S
H189 C199 0.930 . S
H190 C202 0.929 . S
H191 C205 0.930 . S
H192 C207 0.960 . S
H193 C207 0.960 . S
H194 C207 0.960 . S
C195 H187 0.929 . S
C195 C196 1.377 . S
C195 C197 1.384 . S
C196 C195 1.377 . S
C196 C202 1.390 . S
C197 H188 0.930 . S
C197 C195 1.384 . S
C197 C198 1.372 . S
C198 C197 1.372 . S
C198 C199 1.400 . S
C198 C203 1.490 . S
C199 H189 0.930 . S
C199 C198 1.400 . S
C199 C202 1.386 . S
H200 C216 0.930 . S
H201 C217 0.931 . S
C202 H190 0.929 . S
C202 C196 1.390 . S
C202 C199 1.386 . S
C203 C198 1.490 . S
C203 C205 1.395 . S
C203 C206 1.403 . S
H204 C210 0.930 . S
C205 H191 0.930 . S
C205 C203 1.395 . S
C205 C208 1.403 . S
C206 C203 1.403 . S
C206 C207 1.524 . S
C206 C210 1.400 . S
C207 H192 0.960 . S
C207 H193 0.960 . S
C207 H194 0.960 . S
C207 C206 1.524 . S
C208 C205 1.403 . S
C208 C209 1.392 . S
C208 C212 1.495 . S
C209 C208 1.392 . S
C209 C210 1.385 . S
C209 C211 1.478 . S
C210 H204 0.930 . S
C210 C206 1.400 . S
C210 C209 1.385 . S
C211 C209 1.478 . S
C211 C213 1.381 . S
C211 C217 1.383 . S
C212 C208 1.495 . S
C212 H218 0.959 . S
C212 H219 0.961 . S
C212 H220 0.960 . S
C213 C211 1.381 . S
C213 C214 1.394 . S
C213 H221 0.930 . S
C214 C213 1.394 . S
C214 C215 1.383 . S
C214 H222 0.929 . S
C215 C214 1.383 . S
C215 C216 1.377 . S
C216 H200 0.930 . S
C216 C215 1.377 . S
C216 C217 1.379 . S
C217 H201 0.931 . S
C217 C211 1.383 . S
C217 C216 1.379 . S
H218 C212 0.959 . S
H219 C212 0.961 . S
H220 C212 0.960 . S
H221 C213 0.930 . S
H222 C214 0.929 . S
H223 C231 0.929 . S
H224 C233 0.930 . S
H225 C235 0.930 . S
H226 C238 0.929 . S
H227 C241 0.930 . S
H228 C243 0.960 . S
H229 C243 0.960 . S
H230 C243 0.960 . S
C231 H223 0.929 . S
C231 C232 1.377 . S
C231 C233 1.384 . S
C232 C231 1.377 . S
C232 C238 1.390 . S
C233 H224 0.930 . S
C233 C231 1.384 . S
C233 C234 1.372 . S
C234 C233 1.372 . S
C234 C235 1.400 . S
C234 C239 1.490 . S
C235 H225 0.930 . S
C235 C234 1.400 . S
C235 C238 1.386 . S
H236 C252 0.930 . S
H237 C253 0.931 . S
C238 H226 0.929 . S
C238 C232 1.390 . S
C238 C235 1.386 . S
C239 C234 1.490 . S
C239 C241 1.395 . S
C239 C242 1.403 . S
H240 C246 0.930 . S
C241 H227 0.930 . S
C241 C239 1.395 . S
C241 C244 1.403 . S
C242 C239 1.403 . S
C242 C243 1.524 . S
C242 C246 1.400 . S
C243 H228 0.960 . S
C243 H229 0.960 . S
C243 H230 0.960 . S
C243 C242 1.524 . S
C244 C241 1.403 . S
C244 C245 1.392 . S
C244 C248 1.495 . S
C245 C244 1.392 . S
C245 C246 1.385 . S
C245 C247 1.478 . S
C246 H240 0.930 . S
C246 C242 1.400 . S
C246 C245 1.385 . S
C247 C245 1.478 . S
C247 C249 1.381 . S
C247 C253 1.383 . S
C248 C244 1.495 . S
C248 H254 0.959 . S
C248 H255 0.961 . S
C248 H256 0.960 . S
C249 C247 1.381 . S
C249 C250 1.394 . S
C249 H257 0.930 . S
C250 C249 1.394 . S
C250 C251 1.383 . S
C250 H258 0.929 . S
C251 C250 1.383 . S
C251 C252 1.377 . S
C252 H236 0.930 . S
C252 C251 1.377 . S
C252 C253 1.379 . S
C253 H237 0.931 . S
C253 C247 1.383 . S
C253 C252 1.379 . S
H254 C248 0.959 . S
H255 C248 0.961 . S
H256 C248 0.960 . S
H257 C249 0.930 . S
H258 C250 0.929 . S
H259 C267 0.929 . S
H260 C269 0.930 . S
H261 C271 0.930 . S
H262 C274 0.929 . S
H263 C277 0.930 . S
H264 C279 0.960 . S
H265 C279 0.960 . S
H266 C279 0.960 . S
C267 H259 0.929 . S
C267 C268 1.377 . S
C267 C269 1.384 . S
C268 C267 1.377 . S
C268 C274 1.390 . S
C269 H260 0.930 . S
C269 C267 1.384 . S
C269 C270 1.372 . S
C270 C269 1.372 . S
C270 C271 1.400 . S
C270 C275 1.490 . S
C271 H261 0.930 . S
C271 C270 1.400 . S
C271 C274 1.386 . S
H272 C288 0.930 . S
H273 C289 0.931 . S
C274 H262 0.929 . S
C274 C268 1.390 . S
C274 C271 1.386 . S
C275 C270 1.490 . S
C275 C277 1.395 . S
C275 C278 1.403 . S
H276 C282 0.930 . S
C277 H263 0.930 . S
C277 C275 1.395 . S
C277 C280 1.403 . S
C278 C275 1.403 . S
C278 C279 1.524 . S
C278 C282 1.400 . S
C279 H264 0.960 . S
C279 H265 0.960 . S
C279 H266 0.960 . S
C279 C278 1.524 . S
C280 C277 1.403 . S
C280 C281 1.392 . S
C280 C284 1.495 . S
C281 C280 1.392 . S
C281 C282 1.385 . S
C281 C283 1.478 . S
C282 H276 0.930 . S
C282 C278 1.400 . S
C282 C281 1.385 . S
C283 C281 1.478 . S
C283 C285 1.381 . S
C283 C289 1.383 . S
C284 C280 1.495 . S
C284 H290 0.959 . S
C284 H291 0.961 . S
C284 H292 0.960 . S
C285 C283 1.381 . S
C285 C286 1.394 . S
C285 H293 0.930 . S
C286 C285 1.394 . S
C286 C287 1.383 . S
C286 H294 0.929 . S
C287 C286 1.383 . S
C287 C288 1.377 . S
C288 H272 0.930 . S
C288 C287 1.377 . S
C288 C289 1.379 . S
C289 H273 0.931 . S
C289 C283 1.383 . S
C289 C288 1.379 . S
H290 C284 0.959 . S
H291 C284 0.961 . S
H292 C284 0.960 . S
H293 C285 0.930 . S
H294 C286 0.929 . S
H295 C303 0.929 . S
H296 C305 0.930 . S
H297 C307 0.930 . S
H298 C310 0.929 . S
H299 C313 0.930 . S
H300 C315 0.960 . S
H301 C315 0.960 . S
H302 C315 0.960 . S
C303 H295 0.929 . S
C303 C304 1.377 . S
C303 C305 1.384 . S
C304 C303 1.377 . S
C304 C310 1.390 . S
C305 H296 0.930 . S
C305 C303 1.384 . S
C305 C306 1.372 . S
C306 C305 1.372 . S
C306 C307 1.400 . S
C306 C311 1.490 . S
C307 H297 0.930 . S
C307 C306 1.400 . S
C307 C310 1.386 . S
H308 C324 0.930 . S
H309 C325 0.931 . S
C310 H298 0.929 . S
C310 C304 1.390 . S
C310 C307 1.386 . S
C311 C306 1.490 . S
C311 C313 1.395 . S
C311 C314 1.403 . S
H312 C318 0.930 . S
C313 H299 0.930 . S
C313 C311 1.395 . S
C313 C316 1.403 . S
C314 C311 1.403 . S
C314 C315 1.524 . S
C314 C318 1.400 . S
C315 H300 0.960 . S
C315 H301 0.960 . S
C315 H302 0.960 . S
C315 C314 1.524 . S
C316 C313 1.403 . S
C316 C317 1.392 . S
C316 C320 1.495 . S
C317 C316 1.392 . S
C317 C318 1.385 . S
C317 C319 1.478 . S
C318 H312 0.930 . S
C318 C314 1.400 . S
C318 C317 1.385 . S
C319 C317 1.478 . S
C319 C321 1.381 . S
C319 C325 1.383 . S
C320 C316 1.495 . S
C320 H326 0.959 . S
C320 H327 0.961 . S
C320 H328 0.960 . S
C321 C319 1.381 . S
C321 C322 1.394 . S
C321 H329 0.930 . S
C322 C321 1.394 . S
C322 C323 1.383 . S
C322 H330 0.929 . S
C323 C322 1.383 . S
C323 C324 1.377 . S
C324 H308 0.930 . S
C324 C323 1.377 . S
C324 C325 1.379 . S
C325 H309 0.931 . S
C325 C319 1.383 . S
C325 C324 1.379 . S
H326 C320 0.959 . S
H327 C320 0.961 . S
H328 C320 0.960 . S
H329 C321 0.930 . S
H330 C322 0.929 . S
H331 C339 0.929 . S
H332 C341 0.930 . S
H333 C343 0.930 . S
H334 C346 0.929 . S
H335 C349 0.930 . S
H336 C351 0.960 . S
H337 C351 0.960 . S
H338 C351 0.960 . S
C339 H331 0.929 . S
C339 C340 1.377 . S
C339 C341 1.384 . S
C340 C339 1.377 . S
C340 C346 1.390 . S
C341 H332 0.930 . S
C341 C339 1.384 . S
C341 C342 1.372 . S
C342 C341 1.372 . S
C342 C343 1.400 . S
C342 C347 1.490 . S
C343 H333 0.930 . S
C343 C342 1.400 . S
C343 C346 1.386 . S
H344 C360 0.930 . S
H345 C361 0.931 . S
C346 H334 0.929 . S
C346 C340 1.390 . S
C346 C343 1.386 . S
C347 C342 1.490 . S
C347 C349 1.395 . S
C347 C350 1.403 . S
H348 C354 0.930 . S
C349 H335 0.930 . S
C349 C347 1.395 . S
C349 C352 1.403 . S
C350 C347 1.403 . S
C350 C351 1.524 . S
C350 C354 1.400 . S
C351 H336 0.960 . S
C351 H337 0.960 . S
C351 H338 0.960 . S
C351 C350 1.524 . S
C352 C349 1.403 . S
C352 C353 1.392 . S
C352 C356 1.495 . S
C353 C352 1.392 . S
C353 C354 1.385 . S
C353 C355 1.478 . S
C354 H348 0.930 . S
C354 C350 1.400 . S
C354 C353 1.385 . S
C355 C353 1.478 . S
C355 C357 1.381 . S
C355 C361 1.383 . S
C356 C352 1.495 . S
C356 H362 0.959 . S
C356 H363 0.961 . S
C356 H364 0.960 . S
C357 C355 1.381 . S
C357 C358 1.394 . S
C357 H365 0.930 . S
C358 C357 1.394 . S
C358 C359 1.383 . S
C358 H366 0.929 . S
C359 C358 1.383 . S
C359 C360 1.377 . S
C360 H344 0.930 . S
C360 C359 1.377 . S
C360 C361 1.379 . S
C361 H345 0.931 . S
C361 C355 1.383 . S
C361 C360 1.379 . S
H362 C356 0.959 . S
H363 C356 0.961 . S
H364 C356 0.960 . S
H365 C357 0.930 . S
H366 C358 0.929 . S
H367 C375 0.929 . S
H368 C377 0.930 . S
H369 C379 0.930 . S
H370 C382 0.929 . S
H371 C385 0.930 . S
H372 C387 0.960 . S
H373 C387 0.960 . S
H374 C387 0.960 . S
C375 H367 0.929 . S
C375 C376 1.377 . S
C375 C377 1.384 . S
C376 C375 1.377 . S
C376 C382 1.390 . S
C377 H368 0.930 . S
C377 C375 1.384 . S
C377 C378 1.372 . S
C378 C377 1.372 . S
C378 C379 1.400 . S
C378 C383 1.490 . S
C379 H369 0.930 . S
C379 C378 1.400 . S
C379 C382 1.386 . S
H380 C396 0.930 . S
H381 C397 0.931 . S
C382 H370 0.929 . S
C382 C376 1.390 . S
C382 C379 1.386 . S
C383 C378 1.490 . S
C383 C385 1.395 . S
C383 C386 1.403 . S
H384 C390 0.930 . S
C385 H371 0.930 . S
C385 C383 1.395 . S
C385 C388 1.403 . S
C386 C383 1.403 . S
C386 C387 1.524 . S
C386 C390 1.400 . S
C387 H372 0.960 . S
C387 H373 0.960 . S
C387 H374 0.960 . S
C387 C386 1.524 . S
C388 C385 1.403 . S
C388 C389 1.392 . S
C388 C392 1.495 . S
C389 C388 1.392 . S
C389 C390 1.385 . S
C389 C391 1.478 . S
C390 H384 0.930 . S
C390 C386 1.400 . S
C390 C389 1.385 . S
C391 C389 1.478 . S
C391 C393 1.381 . S
C391 C397 1.383 . S
C392 C388 1.495 . S
C392 H398 0.959 . S
C392 H399 0.961 . S
C392 H400 0.960 . S
C393 C391 1.381 . S
C393 C394 1.394 . S
C393 H401 0.930 . S
C394 C393 1.394 . S
C394 C395 1.383 . S
C394 H402 0.929 . S
C395 C394 1.383 . S
C395 C396 1.377 . S
C396 H380 0.930 . S
C396 C395 1.377 . S
C396 C397 1.379 . S
C397 H381 0.931 . S
C397 C391 1.383 . S
C397 C396 1.379 . S
H398 C392 0.959 . S
H399 C392 0.961 . S
H400 C392 0.960 . S
H401 C393 0.930 . S
H402 C394 0.929 . S
H403 C411 0.929 . S
H404 C413 0.930 . S
H405 C415 0.930 . S
H406 C418 0.929 . S
H407 C421 0.930 . S
H408 C423 0.960 . S
H409 C423 0.960 . S
H410 C423 0.960 . S
C411 H403 0.929 . S
C411 C412 1.377 . S
C411 C413 1.384 . S
C412 C411 1.377 . S
C412 C418 1.390 . S
C413 H404 0.930 . S
C413 C411 1.384 . S
C413 C414 1.372 . S
C414 C413 1.372 . S
C414 C415 1.400 . S
C414 C419 1.490 . S
C415 H405 0.930 . S
C415 C414 1.400 . S
C415 C418 1.386 . S
H416 C432 0.930 . S
H417 C433 0.931 . S
C418 H406 0.929 . S
C418 C412 1.390 . S
C418 C415 1.386 . S
C419 C414 1.490 . S
C419 C421 1.395 . S
C419 C422 1.403 . S
H420 C426 0.930 . S
C421 H407 0.930 . S
C421 C419 1.395 . S
C421 C424 1.403 . S
C422 C419 1.403 . S
C422 C423 1.524 . S
C422 C426 1.400 . S
C423 H408 0.960 . S
C423 H409 0.960 . S
C423 H410 0.960 . S
C423 C422 1.524 . S
C424 C421 1.403 . S
C424 C425 1.392 . S
C424 C428 1.495 . S
C425 C424 1.392 . S
C425 C426 1.385 . S
C425 C427 1.478 . S
C426 H420 0.930 . S
C426 C422 1.400 . S
C426 C425 1.385 . S
C427 C425 1.478 . S
C427 C429 1.381 . S
C427 C433 1.383 . S
C428 C424 1.495 . S
C428 H434 0.959 . S
C428 H435 0.961 . S
C428 H436 0.960 . S
C429 C427 1.381 . S
C429 C430 1.394 . S
C429 H437 0.930 . S
C430 C429 1.394 . S
C430 C431 1.383 . S
C430 H438 0.929 . S
C431 C430 1.383 . S
C431 C432 1.377 . S
C432 H416 0.930 . S
C432 C431 1.377 . S
C432 C433 1.379 . S
C433 H417 0.931 . S
C433 C427 1.383 . S
C433 C432 1.379 . S
H434 C428 0.959 . S
H435 C428 0.961 . S
H436 C428 0.960 . S
H437 C429 0.930 . S
H438 C430 0.929 . S
H439 C447 0.929 . S
H440 C449 0.930 . S
H441 C451 0.930 . S
H442 C454 0.929 . S
H443 C457 0.930 . S
H444 C459 0.960 . S
H445 C459 0.960 . S
H446 C459 0.960 . S
C447 H439 0.929 . S
C447 C448 1.377 . S
C447 C449 1.384 . S
C448 C447 1.377 . S
C448 C454 1.390 . S
C449 H440 0.930 . S
C449 C447 1.384 . S
C449 C450 1.372 . S
C450 C449 1.372 . S
C450 C451 1.400 . S
C450 C455 1.490 . S
C451 H441 0.930 . S
C451 C450 1.400 . S
C451 C454 1.386 . S
H452 C468 0.930 . S
H453 C469 0.931 . S
C454 H442 0.929 . S
C454 C448 1.390 . S
C454 C451 1.386 . S
C455 C450 1.490 . S
C455 C457 1.395 . S
C455 C458 1.403 . S
H456 C462 0.930 . S
C457 H443 0.930 . S
C457 C455 1.395 . S
C457 C460 1.403 . S
C458 C455 1.403 . S
C458 C459 1.524 . S
C458 C462 1.400 . S
C459 H444 0.960 . S
C459 H445 0.960 . S
C459 H446 0.960 . S
C459 C458 1.524 . S
C460 C457 1.403 . S
C460 C461 1.392 . S
C460 C464 1.495 . S
C461 C460 1.392 . S
C461 C462 1.385 . S
C461 C463 1.478 . S
C462 H456 0.930 . S
C462 C458 1.400 . S
C462 C461 1.385 . S
C463 C461 1.478 . S
C463 C465 1.381 . S
C463 C469 1.383 . S
C464 C460 1.495 . S
C464 H470 0.959 . S
C464 H471 0.961 . S
C464 H472 0.960 . S
C465 C463 1.381 . S
C465 C466 1.394 . S
C465 H473 0.930 . S
C466 C465 1.394 . S
C466 C467 1.383 . S
C466 H474 0.929 . S
C467 C466 1.383 . S
C467 C468 1.377 . S
C468 H452 0.930 . S
C468 C467 1.377 . S
C468 C469 1.379 . S
C469 H453 0.931 . S
C469 C463 1.383 . S
C469 C468 1.379 . S
H470 C464 0.959 . S
H471 C464 0.961 . S
H472 C464 0.960 . S
H473 C465 0.930 . S
H474 C466 0.929 . S
H475 C483 0.929 . S
H476 C485 0.930 . S
H477 C487 0.930 . S
H478 C490 0.929 . S
H479 C493 0.930 . S
H480 C495 0.960 . S
H481 C495 0.960 . S
H482 C495 0.960 . S
C483 H475 0.929 . S
C483 C484 1.377 . S
C483 C485 1.384 . S
C484 C483 1.377 . S
C484 C490 1.390 . S
C485 H476 0.930 . S
C485 C483 1.384 . S
C485 C486 1.372 . S
C486 C485 1.372 . S
C486 C487 1.400 . S
C486 C491 1.490 . S
C487 H477 0.930 . S
C487 C486 1.400 . S
C487 C490 1.386 . S
H488 C504 0.930 . S
H489 C505 0.931 . S
C490 H478 0.929 . S
C490 C484 1.390 . S
C490 C487 1.386 . S
C491 C486 1.490 . S
C491 C493 1.395 . S
C491 C494 1.403 . S
H492 C498 0.930 . S
C493 H479 0.930 . S
C493 C491 1.395 . S
C493 C496 1.403 . S
C494 C491 1.403 . S
C494 C495 1.524 . S
C494 C498 1.400 . S
C495 H480 0.960 . S
C495 H481 0.960 . S
C495 H482 0.960 . S
C495 C494 1.524 . S
C496 C493 1.403 . S
C496 C497 1.392 . S
C496 C500 1.495 . S
C497 C496 1.392 . S
C497 C498 1.385 . S
C497 C499 1.478 . S
C498 H492 0.930 . S
C498 C494 1.400 . S
C498 C497 1.385 . S
C499 C497 1.478 . S
C499 C501 1.381 . S
C499 C505 1.383 . S
C500 C496 1.495 . S
C500 H506 0.959 . S
C500 H507 0.961 . S
C500 H508 0.960 . S
C501 C499 1.381 . S
C501 C502 1.394 . S
C501 H509 0.930 . S
C502 C501 1.394 . S
C502 C503 1.383 . S
C502 H510 0.929 . S
C503 C502 1.383 . S
C503 C504 1.377 . S
C504 H488 0.930 . S
C504 C503 1.377 . S
C504 C505 1.379 . S
C505 H489 0.931 . S
C505 C499 1.383 . S
C505 C504 1.379 . S
H506 C500 0.959 . S
H507 C500 0.961 . S
H508 C500 0.960 . S
H509 C501 0.930 . S
H510 C502 0.929 . S
H511 C519 0.929 . S
H512 C521 0.930 . S
H513 C523 0.930 . S
H514 C526 0.929 . S
H515 C529 0.930 . S
H516 C531 0.960 . S
H517 C531 0.960 . S
H518 C531 0.960 . S
C519 H511 0.929 . S
C519 C520 1.377 . S
C519 C521 1.384 . S
C520 C519 1.377 . S
C520 C526 1.390 . S
C521 H512 0.930 . S
C521 C519 1.384 . S
C521 C522 1.372 . S
C522 C521 1.372 . S
C522 C523 1.400 . S
C522 C527 1.490 . S
C523 H513 0.930 . S
C523 C522 1.400 . S
C523 C526 1.386 . S
H524 C540 0.930 . S
H525 C541 0.931 . S
C526 H514 0.929 . S
C526 C520 1.390 . S
C526 C523 1.386 . S
C527 C522 1.490 . S
C527 C529 1.395 . S
C527 C530 1.403 . S
H528 C534 0.930 . S
C529 H515 0.930 . S
C529 C527 1.395 . S
C529 C532 1.403 . S
C530 C527 1.403 . S
C530 C531 1.524 . S
C530 C534 1.400 . S
C531 H516 0.960 . S
C531 H517 0.960 . S
C531 H518 0.960 . S
C531 C530 1.524 . S
C532 C529 1.403 . S
C532 C533 1.392 . S
C532 C536 1.495 . S
C533 C532 1.392 . S
C533 C534 1.385 . S
C533 C535 1.478 . S
C534 H528 0.930 . S
C534 C530 1.400 . S
C534 C533 1.385 . S
C535 C533 1.478 . S
C535 C537 1.381 . S
C535 C541 1.383 . S
C536 C532 1.495 . S
C536 H542 0.959 . S
C536 H543 0.961 . S
C536 H544 0.960 . S
C537 C535 1.381 . S
C537 C538 1.394 . S
C537 H545 0.930 . S
C538 C537 1.394 . S
C538 C539 1.383 . S
C538 H546 0.929 . S
C539 C538 1.383 . S
C539 C540 1.377 . S
C540 H524 0.930 . S
C540 C539 1.377 . S
C540 C541 1.379 . S
C541 H525 0.931 . S
C541 C535 1.383 . S
C541 C540 1.379 . S
H542 C536 0.959 . S
H543 C536 0.961 . S
H544 C536 0.960 . S
H545 C537 0.930 . S
H546 C538 0.929 . S
H547 C555 0.929 . S
H548 C557 0.930 . S
H549 C559 0.930 . S
H550 C562 0.929 . S
H551 C565 0.930 . S
H552 C567 0.960 . S
H553 C567 0.960 . S
H554 C567 0.960 . S
C555 H547 0.929 . S
C555 C556 1.377 . S
C555 C557 1.384 . S
C556 C555 1.377 . S
C556 C562 1.390 . S
C557 H548 0.930 . S
C557 C555 1.384 . S
C557 C558 1.372 . S
C558 C557 1.372 . S
C558 C559 1.400 . S
C558 C563 1.490 . S
C559 H549 0.930 . S
C559 C558 1.400 . S
C559 C562 1.386 . S
H560 C576 0.930 . S
H561 C577 0.931 . S
C562 H550 0.929 . S
C562 C556 1.390 . S
C562 C559 1.386 . S
C563 C558 1.490 . S
C563 C565 1.395 . S
C563 C566 1.403 . S
H564 C570 0.930 . S
C565 H551 0.930 . S
C565 C563 1.395 . S
C565 C568 1.403 . S
C566 C563 1.403 . S
C566 C567 1.524 . S
C566 C570 1.400 . S
C567 H552 0.960 . S
C567 H553 0.960 . S
C567 H554 0.960 . S
C567 C566 1.524 . S
C568 C565 1.403 . S
C568 C569 1.392 . S
C568 C572 1.495 . S
C569 C568 1.392 . S
C569 C570 1.385 . S
C569 C571 1.478 . S
C570 H564 0.930 . S
C570 C566 1.400 . S
C570 C569 1.385 . S
C571 C569 1.478 . S
C571 C573 1.381 . S
C571 C577 1.383 . S
C572 C568 1.495 . S
C572 H578 0.959 . S
C572 H579 0.961 . S
C572 H580 0.960 . S
C573 C571 1.381 . S
C573 C574 1.394 . S
C573 H581 0.930 . S
C574 C573 1.394 . S
C574 C575 1.383 . S
C574 H582 0.929 . S
C575 C574 1.383 . S
C575 C576 1.377 . S
C576 H560 0.930 . S
C576 C575 1.377 . S
C576 C577 1.379 . S
C577 H561 0.931 . S
C577 C571 1.383 . S
C577 C576 1.379 . S
H578 C572 0.959 . S
H579 C572 0.961 . S
H580 C572 0.960 . S
H581 C573 0.930 . S
H582 C574 0.929 . S
H583 C591 0.929 . S
H584 C593 0.930 . S
H585 C595 0.930 . S
H586 C598 0.929 . S
H587 C601 0.930 . S
H588 C603 0.960 . S
H589 C603 0.960 . S
H590 C603 0.960 . S
C591 H583 0.929 . S
C591 C592 1.377 . S
C591 C593 1.384 . S
C592 C591 1.377 . S
C592 C598 1.390 . S
C593 H584 0.930 . S
C593 C591 1.384 . S
C593 C594 1.372 . S
C594 C593 1.372 . S
C594 C595 1.400 . S
C594 C599 1.490 . S
C595 H585 0.930 . S
C595 C594 1.400 . S
C595 C598 1.386 . S
H596 C612 0.930 . S
H597 C613 0.931 . S
C598 H586 0.929 . S
C598 C592 1.390 . S
C598 C595 1.386 . S
C599 C594 1.490 . S
C599 C601 1.395 . S
C599 C602 1.403 . S
H600 C606 0.930 . S
C601 H587 0.930 . S
C601 C599 1.395 . S
C601 C604 1.403 . S
C602 C599 1.403 . S
C602 C603 1.524 . S
C602 C606 1.400 . S
C603 H588 0.960 . S
C603 H589 0.960 . S
C603 H590 0.960 . S
C603 C602 1.524 . S
C604 C601 1.403 . S
C604 C605 1.392 . S
C604 C608 1.495 . S
C605 C604 1.392 . S
C605 C606 1.385 . S
C605 C607 1.478 . S
C606 H600 0.930 . S
C606 C602 1.400 . S
C606 C605 1.385 . S
C607 C605 1.478 . S
C607 C609 1.381 . S
C607 C613 1.383 . S
C608 C604 1.495 . S
C608 H614 0.959 . S
C608 H615 0.961 . S
C608 H616 0.960 . S
C609 C607 1.381 . S
C609 C610 1.394 . S
C609 H617 0.930 . S
C610 C609 1.394 . S
C610 C611 1.383 . S
C610 H618 0.929 . S
C611 C610 1.383 . S
C611 C612 1.377 . S
C612 H596 0.930 . S
C612 C611 1.377 . S
C612 C613 1.379 . S
C613 H597 0.931 . S
C613 C607 1.383 . S
C613 C612 1.379 . S
H614 C608 0.959 . S
H615 C608 0.961 . S
H616 C608 0.960 . S
H617 C609 0.930 . S
H618 C610 0.929 . S
H619 C627 0.929 . S
H620 C629 0.930 . S
H621 C631 0.930 . S
H622 C634 0.929 . S
H623 C637 0.930 . S
H624 C639 0.960 . S
H625 C639 0.960 . S
H626 C639 0.960 . S
C627 H619 0.929 . S
C627 C628 1.377 . S
C627 C629 1.384 . S
C628 C627 1.377 . S
C628 C634 1.390 . S
C629 H620 0.930 . S
C629 C627 1.384 . S
C629 C630 1.372 . S
C630 C629 1.372 . S
C630 C631 1.400 . S
C630 C635 1.490 . S
C631 H621 0.930 . S
C631 C630 1.400 . S
C631 C634 1.386 . S
H632 C648 0.930 . S
H633 C649 0.931 . S
C634 H622 0.929 . S
C634 C628 1.390 . S
C634 C631 1.386 . S
C635 C630 1.490 . S
C635 C637 1.395 . S
C635 C638 1.403 . S
H636 C642 0.930 . S
C637 H623 0.930 . S
C637 C635 1.395 . S
C637 C640 1.403 . S
C638 C635 1.403 . S
C638 C639 1.524 . S
C638 C642 1.400 . S
C639 H624 0.960 . S
C639 H625 0.960 . S
C639 H626 0.960 . S
C639 C638 1.524 . S
C640 C637 1.403 . S
C640 C641 1.392 . S
C640 C644 1.495 . S
C641 C640 1.392 . S
C641 C642 1.385 . S
C641 C643 1.478 . S
C642 H636 0.930 . S
C642 C638 1.400 . S
C642 C641 1.385 . S
C643 C641 1.478 . S
C643 C645 1.381 . S
C643 C649 1.383 . S
C644 C640 1.495 . S
C644 H650 0.959 . S
C644 H651 0.961 . S
C644 H652 0.960 . S
C645 C643 1.381 . S
C645 C646 1.394 . S
C645 H653 0.930 . S
C646 C645 1.394 . S
C646 C647 1.383 . S
C646 H654 0.929 . S
C647 C646 1.383 . S
C647 C648 1.377 . S
C648 H632 0.930 . S
C648 C647 1.377 . S
C648 C649 1.379 . S
C649 H633 0.931 . S
C649 C643 1.383 . S
C649 C648 1.379 . S
H650 C644 0.959 . S
H651 C644 0.961 . S
H652 C644 0.960 . S
H653 C645 0.930 . S
H654 C646 0.929 . S
H655 C663 0.929 . S
H656 C665 0.930 . S
H657 C667 0.930 . S
H658 C670 0.929 . S
H659 C673 0.930 . S
H660 C675 0.960 . S
H661 C675 0.960 . S
H662 C675 0.960 . S
C663 H655 0.929 . S
C663 C664 1.377 . S
C663 C665 1.384 . S
C664 C663 1.377 . S
C664 C670 1.390 . S
C665 H656 0.930 . S
C665 C663 1.384 . S
C665 C666 1.372 . S
C666 C665 1.372 . S
C666 C667 1.400 . S
C666 C671 1.490 . S
C667 H657 0.930 . S
C667 C666 1.400 . S
C667 C670 1.386 . S
H668 C684 0.930 . S
H669 C685 0.931 . S
C670 H658 0.929 . S
C670 C664 1.390 . S
C670 C667 1.386 . S
C671 C666 1.490 . S
C671 C673 1.395 . S
C671 C674 1.403 . S
H672 C678 0.930 . S
C673 H659 0.930 . S
C673 C671 1.395 . S
C673 C676 1.403 . S
C674 C671 1.403 . S
C674 C675 1.524 . S
C674 C678 1.400 . S
C675 H660 0.960 . S
C675 H661 0.960 . S
C675 H662 0.960 . S
C675 C674 1.524 . S
C676 C673 1.403 . S
C676 C677 1.392 . S
C676 C680 1.495 . S
C677 C676 1.392 . S
C677 C678 1.385 . S
C677 C679 1.478 . S
C678 H672 0.930 . S
C678 C674 1.400 . S
C678 C677 1.385 . S
C679 C677 1.478 . S
C679 C681 1.381 . S
C679 C685 1.383 . S
C680 C676 1.495 . S
C680 H686 0.959 . S
C680 H687 0.961 . S
C680 H688 0.960 . S
C681 C679 1.381 . S
C681 C682 1.394 . S
C681 H689 0.930 . S
C682 C681 1.394 . S
C682 C683 1.383 . S
C682 H690 0.929 . S
C683 C682 1.383 . S
C683 C684 1.377 . S
C684 H668 0.930 . S
C684 C683 1.377 . S
C684 C685 1.379 . S
C685 H669 0.931 . S
C685 C679 1.383 . S
C685 C684 1.379 . S
H686 C680 0.959 . S
H687 C680 0.961 . S
H688 C680 0.960 . S
H689 C681 0.930 . S
H690 C682 0.929 . S
H691 C699 0.929 . S
H692 C701 0.930 . S
H693 C703 0.930 . S
H694 C706 0.929 . S
H695 C709 0.930 . S
H696 C711 0.960 . S
H697 C711 0.960 . S
H698 C711 0.960 . S
C699 H691 0.929 . S
C699 C700 1.377 . S
C699 C701 1.384 . S
C700 C699 1.377 . S
C700 C706 1.390 . S
C701 H692 0.930 . S
C701 C699 1.384 . S
C701 C702 1.372 . S
C702 C701 1.372 . S
C702 C703 1.400 . S
C702 C707 1.490 . S
C703 H693 0.930 . S
C703 C702 1.400 . S
C703 C706 1.386 . S
H704 C720 0.930 . S
H705 C721 0.931 . S
C706 H694 0.929 . S
C706 C700 1.390 . S
C706 C703 1.386 . S
C707 C702 1.490 . S
C707 C709 1.395 . S
C707 C710 1.403 . S
H708 C714 0.930 . S
C709 H695 0.930 . S
C709 C707 1.395 . S
C709 C712 1.403 . S
C710 C707 1.403 . S
C710 C711 1.524 . S
C710 C714 1.400 . S
C711 H696 0.960 . S
C711 H697 0.960 . S
C711 H698 0.960 . S
C711 C710 1.524 . S
C712 C709 1.403 . S
C712 C713 1.392 . S
C712 C716 1.495 . S
C713 C712 1.392 . S
C713 C714 1.385 . S
C713 C715 1.478 . S
C714 H708 0.930 . S
C714 C710 1.400 . S
C714 C713 1.385 . S
C715 C713 1.478 . S
C715 C717 1.381 . S
C715 C721 1.383 . S
C716 C712 1.495 . S
C716 H722 0.959 . S
C716 H723 0.961 . S
C716 H724 0.960 . S
C717 C715 1.381 . S
C717 C718 1.394 . S
C717 H725 0.930 . S
C718 C717 1.394 . S
C718 C719 1.383 . S
C718 H726 0.929 . S
C719 C718 1.383 . S
C719 C720 1.377 . S
C720 H704 0.930 . S
C720 C719 1.377 . S
C720 C721 1.379 . S
C721 H705 0.931 . S
C721 C715 1.383 . S
C721 C720 1.379 . S
H722 C716 0.959 . S
H723 C716 0.961 . S
H724 C716 0.960 . S
H725 C717 0.930 . S
H726 C718 0.929 . S
H727 C735 0.929 . S
H728 C737 0.930 . S
H729 C739 0.930 . S
H730 C742 0.929 . S
H731 C745 0.930 . S
H732 C747 0.960 . S
H733 C747 0.960 . S
H734 C747 0.960 . S
C735 H727 0.929 . S
C735 C736 1.377 . S
C735 C737 1.384 . S
C736 C735 1.377 . S
C736 C742 1.390 . S
C737 H728 0.930 . S
C737 C735 1.384 . S
C737 C738 1.372 . S
C738 C737 1.372 . S
C738 C739 1.400 . S
C738 C743 1.490 . S
C739 H729 0.930 . S
C739 C738 1.400 . S
C739 C742 1.386 . S
H740 C756 0.930 . S
H741 C757 0.931 . S
C742 H730 0.929 . S
C742 C736 1.390 . S
C742 C739 1.386 . S
C743 C738 1.490 . S
C743 C745 1.395 . S
C743 C746 1.403 . S
H744 C750 0.930 . S
C745 H731 0.930 . S
C745 C743 1.395 . S
C745 C748 1.403 . S
C746 C743 1.403 . S
C746 C747 1.524 . S
C746 C750 1.400 . S
C747 H732 0.960 . S
C747 H733 0.960 . S
C747 H734 0.960 . S
C747 C746 1.524 . S
C748 C745 1.403 . S
C748 C749 1.392 . S
C748 C752 1.495 . S
C749 C748 1.392 . S
C749 C750 1.385 . S
C749 C751 1.478 . S
C750 H744 0.930 . S
C750 C746 1.400 . S
C750 C749 1.385 . S
C751 C749 1.478 . S
C751 C753 1.381 . S
C751 C757 1.383 . S
C752 C748 1.495 . S
C752 H758 0.959 . S
C752 H759 0.961 . S
C752 H760 0.960 . S
C753 C751 1.381 . S
C753 C754 1.394 . S
C753 H761 0.930 . S
C754 C753 1.394 . S
C754 C755 1.383 . S
C754 H762 0.929 . S
C755 C754 1.383 . S
C755 C756 1.377 . S
C756 H740 0.930 . S
C756 C755 1.377 . S
C756 C757 1.379 . S
C757 H741 0.931 . S
C757 C751 1.383 . S
C757 C756 1.379 . S
H758 C752 0.959 . S
H759 C752 0.961 . S
H760 C752 0.960 . S
H761 C753 0.930 . S
H762 C754 0.929 . S
H763 C771 0.929 . S
H764 C773 0.930 . S
H765 C775 0.930 . S
H766 C778 0.929 . S
H767 C781 0.930 . S
H768 C783 0.960 . S
H769 C783 0.960 . S
H770 C783 0.960 . S
C771 H763 0.929 . S
C771 C772 1.377 . S
C771 C773 1.384 . S
C772 C771 1.377 . S
C772 C778 1.390 . S
C773 H764 0.930 . S
C773 C771 1.384 . S
C773 C774 1.372 . S
C774 C773 1.372 . S
C774 C775 1.400 . S
C774 C779 1.490 . S
C775 H765 0.930 . S
C775 C774 1.400 . S
C775 C778 1.386 . S
H776 C792 0.930 . S
H777 C793 0.931 . S
C778 H766 0.929 . S
C778 C772 1.390 . S
C778 C775 1.386 . S
C779 C774 1.490 . S
C779 C781 1.395 . S
C779 C782 1.403 . S
H780 C786 0.930 . S
C781 H767 0.930 . S
C781 C779 1.395 . S
C781 C784 1.403 . S
C782 C779 1.403 . S
C782 C783 1.524 . S
C782 C786 1.400 . S
C783 H768 0.960 . S
C783 H769 0.960 . S
C783 H770 0.960 . S
C783 C782 1.524 . S
C784 C781 1.403 . S
C784 C785 1.392 . S
C784 C788 1.495 . S
C785 C784 1.392 . S
C785 C786 1.385 . S
C785 C787 1.478 . S
C786 H780 0.930 . S
C786 C782 1.400 . S
C786 C785 1.385 . S
C787 C785 1.478 . S
C787 C789 1.381 . S
C787 C793 1.383 . S
C788 C784 1.495 . S
C788 H794 0.959 . S
C788 H795 0.961 . S
C788 H796 0.960 . S
C789 C787 1.381 . S
C789 C790 1.394 . S
C789 H797 0.930 . S
C790 C789 1.394 . S
C790 C791 1.383 . S
C790 H798 0.929 . S
C791 C790 1.383 . S
C791 C792 1.377 . S
C792 H776 0.930 . S
C792 C791 1.377 . S
C792 C793 1.379 . S
C793 H777 0.931 . S
C793 C787 1.383 . S
C793 C792 1.379 . S
H794 C788 0.959 . S
H795 C788 0.961 . S
H796 C788 0.960 . S
H797 C789 0.930 . S
H798 C790 0.929 . S
H799 C807 0.929 . S
H800 C809 0.930 . S
H801 C811 0.930 . S
H802 C814 0.929 . S
H803 C817 0.930 . S
H804 C819 0.960 . S
H805 C819 0.960 . S
H806 C819 0.960 . S
C807 H799 0.929 . S
C807 C808 1.377 . S
C807 C809 1.384 . S
C808 C807 1.377 . S
C808 C814 1.390 . S
C809 H800 0.930 . S
C809 C807 1.384 . S
C809 C810 1.372 . S
C810 C809 1.372 . S
C810 C811 1.400 . S
C810 C815 1.490 . S
C811 H801 0.930 . S
C811 C810 1.400 . S
C811 C814 1.386 . S
H812 C828 0.930 . S
H813 C829 0.931 . S
C814 H802 0.929 . S
C814 C808 1.390 . S
C814 C811 1.386 . S
C815 C810 1.490 . S
C815 C817 1.395 . S
C815 C818 1.403 . S
H816 C822 0.930 . S
C817 H803 0.930 . S
C817 C815 1.395 . S
C817 C820 1.403 . S
C818 C815 1.403 . S
C818 C819 1.524 . S
C818 C822 1.400 . S
C819 H804 0.960 . S
C819 H805 0.960 . S
C819 H806 0.960 . S
C819 C818 1.524 . S
C820 C817 1.403 . S
C820 C821 1.392 . S
C820 C824 1.495 . S
C821 C820 1.392 . S
C821 C822 1.385 . S
C821 C823 1.478 . S
C822 H816 0.930 . S
C822 C818 1.400 . S
C822 C821 1.385 . S
C823 C821 1.478 . S
C823 C825 1.381 . S
C823 C829 1.383 . S
C824 C820 1.495 . S
C824 H830 0.959 . S
C824 H831 0.961 . S
C824 H832 0.960 . S
C825 C823 1.381 . S
C825 C826 1.394 . S
C825 H833 0.930 . S
C826 C825 1.394 . S
C826 C827 1.383 . S
C826 H834 0.929 . S
C827 C826 1.383 . S
C827 C828 1.377 . S
C828 H812 0.930 . S
C828 C827 1.377 . S
C828 C829 1.379 . S
C829 H813 0.931 . S
C829 C823 1.383 . S
C829 C828 1.379 . S
H830 C824 0.959 . S
H831 C824 0.961 . S
H832 C824 0.960 . S
H833 C825 0.930 . S
H834 C826 0.929 . S
H835 C843 0.929 . S
H836 C845 0.930 . S
H837 C847 0.930 . S
H838 C850 0.929 . S
H839 C853 0.930 . S
H840 C855 0.960 . S
H841 C855 0.960 . S
H842 C855 0.960 . S
C843 H835 0.929 . S
C843 C844 1.377 . S
C843 C845 1.384 . S
C844 C843 1.377 . S
C844 C850 1.390 . S
C845 H836 0.930 . S
C845 C843 1.384 . S
C845 C846 1.372 . S
C846 C845 1.372 . S
C846 C847 1.400 . S
C846 C851 1.490 . S
C847 H837 0.930 . S
C847 C846 1.400 . S
C847 C850 1.386 . S
H848 C864 0.930 . S
H849 C865 0.931 . S
C850 H838 0.929 . S
C850 C844 1.390 . S
C850 C847 1.386 . S
C851 C846 1.490 . S
C851 C853 1.395 . S
C851 C854 1.403 . S
H852 C858 0.930 . S
C853 H839 0.930 . S
C853 C851 1.395 . S
C853 C856 1.403 . S
C854 C851 1.403 . S
C854 C855 1.524 . S
C854 C858 1.400 . S
C855 H840 0.960 . S
C855 H841 0.960 . S
C855 H842 0.960 . S
C855 C854 1.524 . S
C856 C853 1.403 . S
C856 C857 1.392 . S
C856 C860 1.495 . S
C857 C856 1.392 . S
C857 C858 1.385 . S
C857 C859 1.478 . S
C858 H852 0.930 . S
C858 C854 1.400 . S
C858 C857 1.385 . S
C859 C857 1.478 . S
C859 C861 1.381 . S
C859 C865 1.383 . S
C860 C856 1.495 . S
C860 H866 0.959 . S
C860 H867 0.961 . S
C860 H868 0.960 . S
C861 C859 1.381 . S
C861 C862 1.394 . S
C861 H869 0.930 . S
C862 C861 1.394 . S
C862 C863 1.383 . S
C862 H870 0.929 . S
C863 C862 1.383 . S
C863 C864 1.377 . S
C864 H848 0.930 . S
C864 C863 1.377 . S
C864 C865 1.379 . S
C865 H849 0.931 . S
C865 C859 1.383 . S
C865 C864 1.379 . S
H866 C860 0.959 . S
H867 C860 0.961 . S
H868 C860 0.960 . S
H869 C861 0.930 . S
H870 C862 0.929 . S
H871 C879 0.929 . S
H872 C881 0.930 . S
H873 C883 0.930 . S
H874 C886 0.929 . S
H875 C889 0.930 . S
H876 C891 0.960 . S
H877 C891 0.960 . S
H878 C891 0.960 . S
C879 H871 0.929 . S
C879 C880 1.377 . S
C879 C881 1.384 . S
C880 C879 1.377 . S
C880 C886 1.390 . S
C881 H872 0.930 . S
C881 C879 1.384 . S
C881 C882 1.372 . S
C882 C881 1.372 . S
C882 C883 1.400 . S
C882 C887 1.490 . S
C883 H873 0.930 . S
C883 C882 1.400 . S
C883 C886 1.386 . S
H884 C900 0.930 . S
H885 C901 0.931 . S
C886 H874 0.929 . S
C886 C880 1.390 . S
C886 C883 1.386 . S
C887 C882 1.490 . S
C887 C889 1.395 . S
C887 C890 1.403 . S
H888 C894 0.930 . S
C889 H875 0.930 . S
C889 C887 1.395 . S
C889 C892 1.403 . S
C890 C887 1.403 . S
C890 C891 1.524 . S
C890 C894 1.400 . S
C891 H876 0.960 . S
C891 H877 0.960 . S
C891 H878 0.960 . S
C891 C890 1.524 . S
C892 C889 1.403 . S
C892 C893 1.392 . S
C892 C896 1.495 . S
C893 C892 1.392 . S
C893 C894 1.385 . S
C893 C895 1.478 . S
C894 H888 0.930 . S
C894 C890 1.400 . S
C894 C893 1.385 . S
C895 C893 1.478 . S
C895 C897 1.381 . S
C895 C901 1.383 . S
C896 C892 1.495 . S
C896 H902 0.959 . S
C896 H903 0.961 . S
C896 H904 0.960 . S
C897 C895 1.381 . S
C897 C898 1.394 . S
C897 H905 0.930 . S
C898 C897 1.394 . S
C898 C899 1.383 . S
C898 H906 0.929 . S
C899 C898 1.383 . S
C899 C900 1.377 . S
C900 H884 0.930 . S
C900 C899 1.377 . S
C900 C901 1.379 . S
C901 H885 0.931 . S
C901 C895 1.383 . S
C901 C900 1.379 . S
H902 C896 0.959 . S
H903 C896 0.961 . S
H904 C896 0.960 . S
H905 C897 0.930 . S
H906 C898 0.929 . S
H907 C915 0.929 . S
H908 C917 0.930 . S
H909 C919 0.930 . S
H910 C922 0.929 . S
H911 C925 0.930 . S
H912 C927 0.960 . S
H913 C927 0.960 . S
H914 C927 0.960 . S
C915 H907 0.929 . S
C915 C916 1.377 . S
C915 C917 1.384 . S
C916 C915 1.377 . S
C916 C922 1.390 . S
C917 H908 0.930 . S
C917 C915 1.384 . S
C917 C918 1.372 . S
C918 C917 1.372 . S
C918 C919 1.400 . S
C918 C923 1.490 . S
C919 H909 0.930 . S
C919 C918 1.400 . S
C919 C922 1.386 . S
H920 C936 0.930 . S
H921 C937 0.931 . S
C922 H910 0.929 . S
C922 C916 1.390 . S
C922 C919 1.386 . S
C923 C918 1.490 . S
C923 C925 1.395 . S
C923 C926 1.403 . S
H924 C930 0.930 . S
C925 H911 0.930 . S
C925 C923 1.395 . S
C925 C928 1.403 . S
C926 C923 1.403 . S
C926 C927 1.524 . S
C926 C930 1.400 . S
C927 H912 0.960 . S
C927 H913 0.960 . S
C927 H914 0.960 . S
C927 C926 1.524 . S
C928 C925 1.403 . S
C928 C929 1.392 . S
C928 C932 1.495 . S
C929 C928 1.392 . S
C929 C930 1.385 . S
C929 C931 1.478 . S
C930 H924 0.930 . S
C930 C926 1.400 . S
C930 C929 1.385 . S
C931 C929 1.478 . S
C931 C933 1.381 . S
C931 C937 1.383 . S
C932 C928 1.495 . S
C932 H938 0.959 . S
C932 H939 0.961 . S
C932 H940 0.960 . S
C933 C931 1.381 . S
C933 C934 1.394 . S
C933 H941 0.930 . S
C934 C933 1.394 . S
C934 C935 1.383 . S
C934 H942 0.929 . S
C935 C934 1.383 . S
C935 C936 1.377 . S
C936 H920 0.930 . S
C936 C935 1.377 . S
C936 C937 1.379 . S
C937 H921 0.931 . S
C937 C931 1.383 . S
C937 C936 1.379 . S
H938 C932 0.959 . S
H939 C932 0.961 . S
H940 C932 0.960 . S
H941 C933 0.930 . S
H942 C934 0.929 . S
H943 C951 0.929 . S
H944 C953 0.930 . S
H945 C955 0.930 . S
H946 C958 0.929 . S
H947 C961 0.930 . S
H948 C963 0.960 . S
H949 C963 0.960 . S
H950 C963 0.960 . S
C951 H943 0.929 . S
C951 C952 1.377 . S
C951 C953 1.384 . S
C952 C951 1.377 . S
C952 C958 1.390 . S
C953 H944 0.930 . S
C953 C951 1.384 . S
C953 C954 1.372 . S
C954 C953 1.372 . S
C954 C955 1.400 . S
C954 C959 1.490 . S
C955 H945 0.930 . S
C955 C954 1.400 . S
C955 C958 1.386 . S
H956 C972 0.930 . S
H957 C973 0.931 . S
C958 H946 0.929 . S
C958 C952 1.390 . S
C958 C955 1.386 . S
C959 C954 1.490 . S
C959 C961 1.395 . S
C959 C962 1.403 . S
H960 C966 0.930 . S
C961 H947 0.930 . S
C961 C959 1.395 . S
C961 C964 1.403 . S
C962 C959 1.403 . S
C962 C963 1.524 . S
C962 C966 1.400 . S
C963 H948 0.960 . S
C963 H949 0.960 . S
C963 H950 0.960 . S
C963 C962 1.524 . S
C964 C961 1.403 . S
C964 C965 1.392 . S
C964 C968 1.495 . S
C965 C964 1.392 . S
C965 C966 1.385 . S
C965 C967 1.478 . S
C966 H960 0.930 . S
C966 C962 1.400 . S
C966 C965 1.385 . S
C967 C965 1.478 . S
C967 C969 1.381 . S
C967 C973 1.383 . S
C968 C964 1.495 . S
C968 H974 0.959 . S
C968 H975 0.961 . S
C968 H976 0.960 . S
C969 C967 1.381 . S
C969 C970 1.394 . S
C969 H977 0.930 . S
C970 C969 1.394 . S
C970 C971 1.383 . S
C970 H978 0.929 . S
C971 C970 1.383 . S
C971 C972 1.377 . S
C972 H956 0.930 . S
C972 C971 1.377 . S
C972 C973 1.379 . S
C973 H957 0.931 . S
C973 C967 1.383 . S
C973 C972 1.379 . S
H974 C968 0.959 . S
H975 C968 0.961 . S
H976 C968 0.960 . S
H977 C969 0.930 . S
H978 C970 0.929 . S
H979 C987 0.929 . S
H980 C989 0.930 . S
H981 C991 0.930 . S
H982 C994 0.929 . S
H983 C997 0.930 . S
H984 C999 0.960 . S
H985 C999 0.960 . S
H986 C999 0.960 . S
C987 H979 0.929 . S
C987 C988 1.377 . S
C987 C989 1.384 . S
C988 C987 1.377 . S
C988 C994 1.390 . S
C989 H980 0.930 . S
C989 C987 1.384 . S
C989 C990 1.372 . S
C990 C989 1.372 . S
C990 C991 1.400 . S
C990 C995 1.490 . S
C991 H981 0.930 . S
C991 C990 1.400 . S
C991 C994 1.386 . S
H992 C1008 0.930 . S
H993 C1009 0.931 . S
C994 H982 0.929 . S
C994 C988 1.390 . S
C994 C991 1.386 . S
C995 C990 1.490 . S
C995 C997 1.395 . S
C995 C998 1.403 . S
H996 C1002 0.930 . S
C997 H983 0.930 . S
C997 C995 1.395 . S
C997 C1000 1.403 . S
C998 C995 1.403 . S
C998 C999 1.524 . S
C998 C1002 1.400 . S
C999 H984 0.960 . S
C999 H985 0.960 . S
C999 H986 0.960 . S
C999 C998 1.524 . S
C1000 C997 1.403 . S
C1000 C1001 1.392 . S
C1000 C1004 1.495 . S
C1001 C1000 1.392 . S
C1001 C1002 1.385 . S
C1001 C1003 1.478 . S
C1002 H996 0.930 . S
C1002 C998 1.400 . S
C1002 C1001 1.385 . S
C1003 C1001 1.478 . S
C1003 C1005 1.381 . S
C1003 C1009 1.383 . S
C1004 C1000 1.495 . S
C1004 H1010 0.959 . S
C1004 H1011 0.961 . S
C1004 H1012 0.960 . S
C1005 C1003 1.381 . S
C1005 C1006 1.394 . S
C1005 H1013 0.930 . S
C1006 C1005 1.394 . S
C1006 C1007 1.383 . S
C1006 H1014 0.929 . S
C1007 C1006 1.383 . S
C1007 C1008 1.377 . S
C1008 H992 0.930 . S
C1008 C1007 1.377 . S
C1008 C1009 1.379 . S
C1009 H993 0.931 . S
C1009 C1003 1.383 . S
C1009 C1008 1.379 . S
H1010 C1004 0.959 . S
H1011 C1004 0.961 . S
H1012 C1004 0.960 . S
H1013 C1005 0.930 . S
H1014 C1006 0.929 . S
H1015 C1023 0.929 . S
H1016 C1025 0.930 . S
H1017 C1027 0.930 . S
H1018 C1030 0.929 . S
H1019 C1033 0.930 . S
H1020 C1035 0.960 . S
H1021 C1035 0.960 . S
H1022 C1035 0.960 . S
C1023 H1015 0.929 . S
C1023 C1024 1.377 . S
C1023 C1025 1.384 . S
C1024 C1023 1.377 . S
C1024 C1030 1.390 . S
C1025 H1016 0.930 . S
C1025 C1023 1.384 . S
C1025 C1026 1.372 . S
C1026 C1025 1.372 . S
C1026 C1027 1.400 . S
C1026 C1031 1.490 . S
C1027 H1017 0.930 . S
C1027 C1026 1.400 . S
C1027 C1030 1.386 . S
H1028 C1044 0.930 . S
H1029 C1045 0.931 . S
C1030 H1018 0.929 . S
C1030 C1024 1.390 . S
C1030 C1027 1.386 . S
C1031 C1026 1.490 . S
C1031 C1033 1.395 . S
C1031 C1034 1.403 . S
H1032 C1038 0.930 . S
C1033 H1019 0.930 . S
C1033 C1031 1.395 . S
C1033 C1036 1.403 . S
C1034 C1031 1.403 . S
C1034 C1035 1.524 . S
C1034 C1038 1.400 . S
C1035 H1020 0.960 . S
C1035 H1021 0.960 . S
C1035 H1022 0.960 . S
C1035 C1034 1.524 . S
C1036 C1033 1.403 . S
C1036 C1037 1.392 . S
C1036 C1040 1.495 . S
C1037 C1036 1.392 . S
C1037 C1038 1.385 . S
C1037 C1039 1.478 . S
C1038 H1032 0.930 . S
C1038 C1034 1.400 . S
C1038 C1037 1.385 . S
C1039 C1037 1.478 . S
C1039 C1041 1.381 . S
C1039 C1045 1.383 . S
C1040 C1036 1.495 . S
C1040 H1046 0.959 . S
C1040 H1047 0.961 . S
C1040 H1048 0.960 . S
C1041 C1039 1.381 . S
C1041 C1042 1.394 . S
C1041 H1049 0.930 . S
C1042 C1041 1.394 . S
C1042 C1043 1.383 . S
C1042 H1050 0.929 . S
C1043 C1042 1.383 . S
C1043 C1044 1.377 . S
C1044 H1028 0.930 . S
C1044 C1043 1.377 . S
C1044 C1045 1.379 . S
C1045 H1029 0.931 . S
C1045 C1039 1.383 . S
C1045 C1044 1.379 . S
H1046 C1040 0.959 . S
H1047 C1040 0.961 . S
H1048 C1040 0.960 . S
H1049 C1041 0.930 . S
H1050 C1042 0.929 . S
C215 C112 1.476 . S
C196 C5 1.329 . S
C251 C148 1.849 . S
C232 C16 1.848 . S
C287 C113 1.119 . S
C268 C30 1.139 . S
C323 C143 1.094 . S
C304 C40 1.062 . S
C359 C110 1.045 . S
C340 C49 1.053 . S
C376 C63 1.461 . S
C395 C146 1.463 . S
C412 C74 0.372 . S
C431 C115 0.576 . S
C467 C145 1.566 . S
C448 C85 1.576 . S
C503 C149 1.497 . S
C484 C8 1.568 . S
C539 C114 1.874 . S
C520 C18 1.913 . S
C575 C142 1.659 . S
C556 C27 1.558 . S
C611 C111 0.558 . S
C592 C38 0.703 . S
C647 C144 1.814 . S
C628 C51 1.933 . S
C664 C60 1.557 . S
C683 C109 1.663 . S
C700 C71 1.074 . S
C719 C147 1.084 . S
C755 C116 1.439 . S
C736 C84 1.450 . S
C791 C178 2.320 . S
C772 C7 2.351 . S
C808 C52 1.870 . S
C827 C181 1.681 . S
C863 C180 1.963 . S
C844 C62 1.970 . S
C880 C73 2.021 . S
C899 C179 2.054 . S
C935 C182 1.846 . S
C916 C82 1.659 . S
C952 C29 1.954 . S
C971 C176 1.885 . S
C1007 C175 1.390 . S
C988 C41 1.395 . S
C1024 C19 1.935 . S
C1043 C177 1.807 . S
