# Generated by pormake.
# Topology pth, (4,4)-cn, num edge types: 1
# Building blocks:
#     Node 0, Type 0, BuildingBlock: TATPOV_clean_sbu_0, # of connection points: 4
#     Node 1, Type 0, BuildingBlock: TATPOV_clean_sbu_0, # of connection points: 4
#     Node 2, Type 0, BuildingBlock: TATPOV_clean_sbu_0, # of connection points: 4
#     Node 3, Type 1, BuildingBlock: NAWXER_clean_sbu_0, # of connection points: 4
#     Node 4, Type 1, BuildingBlock: NAWXER_clean_sbu_0, # of connection points: 4
#     Node 5, Type 1, BuildingBlock: NAWXER_clean_sbu_0, # of connection points: 4
#     Edge 6, Type (0, 1), BuildingBlock: XUDNAN_clean_linker_2, # of connection points: 2
#     Edge 7, Type (0, 1), BuildingBlock: XUDNAN_clean_linker_2, # of connection points: 2
#     Edge 8, Type (0, 1), BuildingBlock: XUDNAN_clean_linker_2, # of connection points: 2
#     Edge 9, Type (0, 1), BuildingBlock: XUDNAN_clean_linker_2, # of connection points: 2
#     Edge 10, Type (0, 1), BuildingBlock: XUDNAN_clean_linker_2, # of connection points: 2
#     Edge 11, Type (0, 1), BuildingBlock: XUDNAN_clean_linker_2, # of connection points: 2
#     Edge 12, Type (0, 1), BuildingBlock: XUDNAN_clean_linker_2, # of connection points: 2
#     Edge 13, Type (0, 1), BuildingBlock: XUDNAN_clean_linker_2, # of connection points: 2
#     Edge 14, Type (0, 1), BuildingBlock: XUDNAN_clean_linker_2, # of connection points: 2
#     Edge 15, Type (0, 1), BuildingBlock: XUDNAN_clean_linker_2, # of connection points: 2
#     Edge 16, Type (0, 1), BuildingBlock: XUDNAN_clean_linker_2, # of connection points: 2
#     Edge 17, Type (0, 1), BuildingBlock: XUDNAN_clean_linker_2, # of connection points: 2
# Relax obj value: 0.048
# Max RMSD: 0.172
# Mean RMSD: 0.098
data_MOF--net-pth--node1-TATPOV_clean_sbu_0--node2-NAWXER_clean_sbu_0--edge1-XUDNAN_clean_linker_2
_symmetry_space_group_name_H-M    P1
_symmetry_Int_Tables_number       1
_symmetry_cell_setting            triclinic
loop_
_symmetry_equiv_pos_as_xyz
'x, y, z'
_cell_length_a     23.222607
_cell_length_b     22.947548
_cell_length_c     56.405904
_cell_angle_alpha  92.3889
_cell_angle_beta   92.442558
_cell_angle_gamma 121.12184
loop_
_atom_site_label
_atom_site_type_symbol
_atom_site_fract_x
_atom_site_fract_y
_atom_site_fract_z
_atom_type_partial_charge
Zn0 Zn 0.13702 0.00642 0.03454 0.0
Zn1 Zn 0.10352 0.0726 0.06573 0.0
O2 O 0.13301 0.0165 0.08542 0.0
O3 O 0.17125 0.97125 0.06006 0.0
O4 O 0.09196 0.12759 0.0919 0.0
O5 O 0.20157 0.09344 0.02034 0.0
O6 O 0.17397 0.14792 0.04611 0.0
C7 C 0.16018 0.98139 0.08113 0.0
C8 C 0.99522 0.96887 0.02982 0.0
O9 O 0.01198 0.01498 0.04658 0.0
O10 O 0.0382 0.95511 0.02264 0.0
C11 C 0.05083 0.14845 0.0927 0.0
O12 O 0.00644 0.13282 0.07465 0.0
C13 C 0.20771 0.1485 0.02877 0.0
Zn14 Zn 0.20591 0.15574 0.37676 0.0
Zn15 Zn 0.0913 0.11309 0.39781 0.0
O16 O 0.15089 0.09515 0.42065 0.0
O17 O 0.24985 0.14025 0.40573 0.0
O18 O 0.02072 0.10866 0.41848 0.0
O19 O 0.22122 0.24833 0.3698 0.0
O20 O 0.12406 0.20756 0.3855 0.0
C21 C 0.21143 0.10834 0.42182 0.0
C22 C 0.0813 0.03032 0.35446 0.0
O23 O 0.04893 0.03701 0.37101 0.0
O24 O 0.14395 0.07317 0.35366 0.0
C25 C 0.96095 0.06172 0.42166 0.0
O26 O 0.93522 0.00142 0.41023 0.0
C27 C 0.17264 0.25499 0.37538 0.0
Zn28 Zn 0.14052 0.99928 0.756 0.0
Zn29 Zn 0.05484 0.00206 0.72433 0.0
O30 O 0.12149 0.98898 0.70409 0.0
O31 O 0.18478 0.97607 0.73109 0.0
O32 O 0.98313 0.9909 0.69964 0.0
O33 O 0.06808 0.92379 0.77273 0.0
O34 O 0.99623 0.92599 0.74658 0.0
C35 C 0.16874 0.97786 0.70957 0.0
C36 C 0.14804 0.13003 0.75589 0.0
O37 O 0.09858 0.10016 0.74015 0.0
O38 O 0.17389 0.09814 0.76476 0.0
C39 C 0.94549 0.93171 0.68913 0.0
O40 O 0.95667 0.88291 0.69429 0.0
C41 C 0.00812 0.90079 0.76454 0.0
C42 C 0.02945 0.65167 0.25461 0.0
C43 C 0.06081 0.48794 0.20745 0.0
O44 O 0.09146 0.66891 0.25399 0.0
Zn45 Zn 0.1494 0.62944 0.23899 0.0
O46 O 0.98313 0.59553 0.24409 0.0
Zn47 Zn 0.0432 0.56951 0.23094 0.0
O48 O 0.08068 0.54614 0.26263 0.0
O49 O 0.19149 0.6151 0.26643 0.0
O50 O 0.00581 0.48621 0.20986 0.0
O51 O 0.11594 0.53802 0.21738 0.0
O52 O 0.20619 0.69967 0.2189 0.0
O53 O 0.09769 0.65036 0.20779 0.0
C54 C 0.13788 0.56706 0.274 0.0
C55 C 0.15935 0.69586 0.2052 0.0
C56 C 0.59486 0.92332 0.58214 0.0
C57 C 0.44708 0.95599 0.52662 0.0
O58 O 0.54617 0.87694 0.5684 0.0
Zn59 Zn 0.51792 0.93498 0.55426 0.0
O60 O 0.60775 0.98484 0.58238 0.0
Zn61 Zn 0.57203 0.04296 0.56525 0.0
O62 O 0.53893 0.07425 0.59139 0.0
O63 O 0.48112 0.96234 0.58366 0.0
O64 O 0.49326 0.01083 0.53819 0.0
O65 O 0.44147 0.89911 0.53054 0.0
O66 O 0.60241 0.99758 0.53473 0.0
O67 O 0.65083 0.10515 0.54878 0.0
C68 C 0.49166 0.01536 0.59604 0.0
C69 C 0.64903 0.0603 0.53414 0.0
C70 C 0.47578 0.49014 0.91849 0.0
C71 C 0.63555 0.60733 0.85949 0.0
O72 O 0.47168 0.54034 0.91132 0.0
Zn73 Zn 0.51831 0.616 0.88567 0.0
O74 O 0.51628 0.47574 0.90931 0.0
Zn75 Zn 0.55393 0.54762 0.88827 0.0
O76 O 0.60508 0.63721 0.91188 0.0
O77 O 0.56001 0.70036 0.90635 0.0
O78 O 0.62486 0.55566 0.87035 0.0
O79 O 0.59989 0.63441 0.86336 0.0
O80 O 0.44256 0.59288 0.8626 0.0
O81 O 0.4751 0.51797 0.86158 0.0
C82 C 0.60345 0.69109 0.91725 0.0
C83 C 0.43677 0.53838 0.85342 0.0
H84 H 0.97254 0.2048 0.10125 0.0
H85 H 0.14264 0.1948 0.13107 0.0
H86 H 0.15795 0.2747 0.16455 0.0
H87 H 0.04132 0.38092 0.11566 0.0
H88 H 0.96331 0.37334 0.12338 0.0
H89 H 0.96195 0.31145 0.1023 0.0
H90 H 0.88308 0.21401 0.12795 0.0
H91 H 0.88408 0.27567 0.14911 0.0
H92 H 0.90829 0.217 0.15887 0.0
H93 H 0.16184 0.36168 0.19278 0.0
H94 H 0.15129 0.44908 0.21554 0.0
H95 H 0.97629 0.40223 0.1692 0.0
C96 C 0.01248 0.21881 0.11497 0.0
C97 C 0.0564 0.1934 0.11345 0.0
C98 C 0.10824 0.21333 0.13175 0.0
C99 C 0.11738 0.25872 0.15091 0.0
C100 C 0.07393 0.28342 0.15173 0.0
C101 C 0.02213 0.26397 0.13442 0.0
C102 C 0.98406 0.30013 0.13941 0.0
C103 C 0.98793 0.34407 0.11897 0.0
C104 C 0.91051 0.24862 0.14412 0.0
C105 C 0.02378 0.3441 0.16188 0.0
C106 C 0.07523 0.33324 0.1686 0.0
C107 C 0.12128 0.37011 0.1879 0.0
C108 C 0.11501 0.41985 0.20065 0.0
C109 C 0.06282 0.43217 0.19419 0.0
C110 C 0.01602 0.39311 0.17472 0.0
H111 H 0.83431 0.97257 0.43581 0.0
H112 H 0.99839 0.1841 0.44535 0.0
H113 H 0.93453 0.20891 0.47366 0.0
H114 H 0.69769 0.00581 0.43936 0.0
H115 H 0.64707 0.93186 0.45551 0.0
H116 H 0.70456 0.93137 0.43516 0.0
H117 H 0.7621 0.90147 0.46893 0.0
H118 H 0.7047 0.90171 0.48933 0.0
H119 H 0.79443 0.95547 0.49623 0.0
H120 H 0.85389 0.20992 0.5023 0.0
H121 H 0.76364 0.18536 0.52926 0.0
H122 H 0.65344 0.97396 0.50057 0.0
C123 C 0.85665 0.0242 0.4437 0.0
C124 C 0.92138 0.07627 0.43829 0.0
C125 C 0.94888 0.14316 0.44918 0.0
C126 C 0.91294 0.15793 0.46527 0.0
C127 C 0.84942 0.10539 0.47031 0.0
C128 C 0.82151 0.03988 0.45984 0.0
C129 C 0.75333 0.99212 0.46885 0.0
C130 C 0.69736 0.96364 0.4485 0.0
C131 C 0.75371 0.9343 0.48159 0.0
C132 C 0.74766 0.0408 0.48617 0.0
C133 C 0.80329 0.10602 0.48672 0.0
C134 C 0.80983 0.15906 0.50192 0.0
C135 C 0.75835 0.14473 0.51714 0.0
C136 C 0.7014 0.07788 0.51705 0.0
C137 C 0.69611 0.02577 0.5011 0.0
H138 H 0.88389 0.8814 0.77304 0.0
H139 H 0.00937 0.79392 0.78248 0.0
H140 H 0.92205 0.70295 0.80461 0.0
H141 H 0.83014 0.85819 0.83098 0.0
H142 H 0.74565 0.83845 0.82293 0.0
H143 H 0.81317 0.89121 0.80487 0.0
H144 H 0.74682 0.80875 0.76778 0.0
H145 H 0.67887 0.75579 0.78574 0.0
H146 H 0.71788 0.71931 0.76858 0.0
H147 H 0.82611 0.6265 0.82764 0.0
H148 H 0.72938 0.57193 0.85232 0.0
H149 H 0.66734 0.71177 0.83028 0.0
C150 C 0.89197 0.84202 0.7793 0.0
C151 C 0.95277 0.8439 0.77587 0.0
C152 C 0.96285 0.79296 0.78489 0.0
C153 C 0.9135 0.74101 0.79737 0.0
C154 C 0.85464 0.74117 0.80092 0.0
C155 C 0.84361 0.7904 0.79229 0.0
C156 C 0.77877 0.78232 0.80064 0.0
C157 C 0.79281 0.84634 0.81575 0.0
C158 C 0.72755 0.76553 0.77941 0.0
C159 C 0.75597 0.72176 0.81562 0.0
C160 C 0.79997 0.69823 0.81515 0.0
C161 C 0.79096 0.64409 0.82805 0.0
C162 C 0.73581 0.61346 0.84204 0.0
C163 C 0.69071 0.63754 0.84328 0.0
C164 C 0.70078 0.69207 0.82967 0.0
H165 H 0.08568 0.91927 0.11847 0.0
H166 H 0.27093 0.97031 0.08637 0.0
H167 H 0.2952 0.90919 0.11657 0.0
H168 H 0.14388 0.9248 0.18091 0.0
H169 H 0.06466 0.85158 0.18728 0.0
H170 H 0.06656 0.9071 0.16524 0.0
H171 H 0.0043 0.8035 0.13405 0.0
H172 H 0.0026 0.74781 0.15591 0.0
H173 H 0.03957 0.75087 0.12819 0.0
H174 H 0.29746 0.83955 0.14951 0.0
H175 H 0.27302 0.75887 0.1808 0.0
H176 H 0.08128 0.74457 0.18883 0.0
C177 C 0.1321 0.91888 0.11823 0.0
C178 C 0.17713 0.95028 0.10044 0.0
C179 C 0.23624 0.94692 0.10006 0.0
C180 C 0.25048 0.91255 0.11714 0.0
C181 C 0.20447 0.8809 0.13422 0.0
C182 C 0.1462 0.88327 0.13479 0.0
C183 C 0.10198 0.83951 0.15353 0.0
C184 C 0.09382 0.88338 0.17288 0.0
C185 C 0.03305 0.78202 0.14223 0.0
C186 C 0.14404 0.81153 0.16314 0.0
C187 C 0.20362 0.83712 0.15214 0.0
C188 C 0.25091 0.81906 0.15823 0.0
C189 C 0.23668 0.77331 0.17598 0.0
C190 C 0.17506 0.74511 0.18695 0.0
C191 C 0.12841 0.76472 0.18046 0.0
H192 H 0.34111 0.15102 0.43823 0.0
H193 H 0.1323 0.99577 0.44572 0.0
H194 H 0.16962 0.93541 0.47163 0.0
H195 H 0.40802 0.04282 0.43653 0.0
H196 H 0.48502 0.10184 0.45411 0.0
H197 H 0.44217 0.13343 0.43633 0.0
H198 H 0.43619 0.1996 0.4736 0.0
H199 H 0.48022 0.16931 0.4914 0.0
H200 H 0.39974 0.15454 0.49953 0.0
H201 H 0.23078 0.88755 0.49456 0.0
H202 H 0.31063 0.86732 0.51825 0.0
H203 H 0.4778 0.05767 0.49759 0.0
C204 C 0.30325 0.10475 0.44555 0.0
C205 C 0.23386 0.07805 0.43994 0.0
C206 C 0.1858 0.01748 0.44994 0.0
C207 C 0.20648 0.98246 0.46449 0.0
C208 C 0.27537 0.00923 0.46917 0.0
C209 C 0.32296 0.06988 0.46045 0.0
C210 C 0.39379 0.08919 0.46883 0.0
C211 C 0.43463 0.09196 0.44768 0.0
C212 C 0.42957 0.15717 0.48426 0.0
C213 C 0.37866 0.02973 0.48345 0.0
C214 C 0.31018 0.98345 0.48315 0.0
C215 C 0.28451 0.92373 0.49507 0.0
C216 C 0.33007 0.91227 0.50827 0.0
C217 C 0.40003 0.96095 0.50967 0.0
C218 C 0.4244 0.01971 0.49681 0.0
H219 H 0.28056 0.22142 0.76241 0.0
H220 H 0.0857 0.201 0.7678 0.0
H221 H 0.14179 0.3174 0.78836 0.0
H222 H 0.34565 0.29187 0.81735 0.0
H223 H 0.43088 0.3488 0.80982 0.0
H224 H 0.37676 0.27201 0.79136 0.0
H225 H 0.39627 0.34245 0.75457 0.0
H226 H 0.45111 0.41987 0.77298 0.0
H227 H 0.37988 0.41117 0.75552 0.0
H228 H 0.21981 0.42765 0.815 0.0
H229 H 0.30926 0.51723 0.84372 0.0
H230 H 0.45046 0.46236 0.81922 0.0
C231 C 0.2499 0.24244 0.76724 0.0
C232 C 0.17915 0.2029 0.76357 0.0
C233 C 0.14023 0.23126 0.77025 0.0
C234 C 0.17173 0.29718 0.78194 0.0
C235 C 0.24198 0.33403 0.78619 0.0
C236 C 0.28044 0.30772 0.77856 0.0
C237 C 0.35374 0.35287 0.78726 0.0
C238 C 0.37809 0.31407 0.80234 0.0
C239 C 0.39784 0.38341 0.76633 0.0
C240 C 0.3504 0.40691 0.8022 0.0
C241 C 0.28611 0.39655 0.80112 0.0
C242 C 0.27057 0.43703 0.81549 0.0
C243 C 0.32157 0.48784 0.83171 0.0
C244 C 0.38654 0.49649 0.83358 0.0
C245 C 0.40122 0.45699 0.81805 0.0
H246 H 0.90603 0.01978 0.67464 0.0
H247 H 0.85539 0.80939 0.66486 0.0
H248 H 0.75886 0.78305 0.63694 0.0
H249 H 0.73578 0.98382 0.67312 0.0
H250 H 0.75368 0.05706 0.65711 0.0
H251 H 0.81894 0.05937 0.6763 0.0
H252 H 0.89579 0.09005 0.64119 0.0
H253 H 0.83086 0.0881 0.62193 0.0
H254 H 0.86498 0.03565 0.61397 0.0
H255 H 0.66687 0.77964 0.60986 0.0
H256 H 0.5893 0.80087 0.58538 0.0
H257 H 0.70086 0.01301 0.61323 0.0
C258 C 0.87477 0.96819 0.66662 0.0
C259 C 0.88844 0.91672 0.67198 0.0
C260 C 0.8461 0.84981 0.66106 0.0
C261 C 0.791 0.83424 0.64518 0.0
C262 C 0.77876 0.88608 0.64036 0.0
C263 C 0.81957 0.95174 0.65072 0.0
C264 C 0.7958 0.99827 0.64248 0.0
C265 C 0.7748 0.02626 0.6635 0.0
C266 C 0.85009 0.05644 0.62909 0.0
C267 C 0.73538 0.94861 0.62586 0.0
C268 C 0.72614 0.88409 0.62486 0.0
C269 C 0.67361 0.83001 0.61052 0.0
C270 C 0.62973 0.84248 0.59671 0.0
C271 C 0.63879 0.9085 0.59735 0.0
C272 C 0.69225 0.96184 0.61228 0.0
H273 H 0.93559 0.8487 0.00293 0.0
H274 H 0.90161 0.0088 0.02822 0.0
H275 H 0.7938 0.95393 0.00299 0.0
H276 H 0.87799 0.83538 0.94383 0.0
H277 H 0.83964 0.74408 0.93985 0.0
H278 H 0.91031 0.79307 0.96133 0.0
H279 H 0.84047 0.71874 0.99461 0.0
H280 H 0.76974 0.66892 0.97316 0.0
H281 H 0.7599 0.70916 0.99953 0.0
H282 H 0.69334 0.88435 0.97146 0.0
H283 H 0.60822 0.80357 0.93972 0.0
H284 H 0.71217 0.69176 0.93697 0.0
C285 C 0.90517 0.87193 0.00347 0.0
C286 C 0.92696 0.93304 0.01746 0.0
C287 C 0.88554 0.96163 0.0177 0.0
C288 C 0.82445 0.93099 0.00336 0.0
C289 C 0.80546 0.87154 0.9892 0.0
C290 C 0.84445 0.84202 0.98951 0.0
C291 C 0.8149 0.77947 0.9724 0.0
C292 C 0.86361 0.7886 0.95322 0.0
C293 C 0.79505 0.71528 0.98573 0.0
C294 C 0.7536 0.77868 0.96201 0.0
C295 C 0.74847 0.8319 0.97176 0.0
C296 C 0.69661 0.84208 0.96394 0.0
C297 C 0.6487 0.79625 0.94586 0.0
C298 C 0.65323 0.74111 0.93596 0.0
C299 C 0.70656 0.73283 0.94427 0.0
H300 H 0.13475 0.01071 0.31522 0.0
H301 H 0.95691 0.91163 0.35518 0.0
H302 H 0.91493 0.80445 0.32986 0.0
H303 H 0.05401 0.91616 0.25628 0.0
H304 H 0.12803 0.9136 0.2498 0.0
H305 H 0.1363 0.98466 0.26781 0.0
H306 H 0.20183 0.96332 0.3013 0.0
H307 H 0.19329 0.89208 0.28358 0.0
H308 H 0.16354 0.88044 0.31302 0.0
H309 H 0.90068 0.70375 0.30306 0.0
H310 H 0.91741 0.62162 0.27867 0.0
H311 H 0.10748 0.78906 0.25866 0.0
C312 C 0.086 0.96716 0.31832 0.0
C313 C 0.04906 0.96966 0.33716 0.0
C314 C 0.98583 0.91113 0.3407 0.0
C315 C 0.96165 0.85003 0.3264 0.0
C316 C 1.00102 0.84871 0.30857 0.0
C317 C 0.06166 0.90625 0.30443 0.0
C318 C 0.09861 0.89079 0.2862 0.0
C319 C 0.10456 0.92854 0.26369 0.0
C320 C 0.16838 0.90762 0.29667 0.0
C321 C 0.05093 0.8149 0.2814 0.0
C322 C 0.99402 0.79136 0.29394 0.0
C323 C 0.94467 0.72195 0.29296 0.0
C324 C 0.95449 0.67569 0.27911 0.0
C325 C 0.01389 0.69923 0.26699 0.0
C326 C 0.06174 0.76971 0.26787 0.0
H327 H 0.23067 0.05807 0.67284 0.0
H328 H 0.19672 0.87787 0.70677 0.0
H329 H 0.27683 0.8699 0.68152 0.0
H330 H 0.25447 0.00614 0.61259 0.0
H331 H 0.3206 0.09135 0.60742 0.0
H332 H 0.25508 0.07884 0.62632 0.0
H333 H 0.34607 0.154 0.66021 0.0
H334 H 0.4118 0.1656 0.64159 0.0
H335 H 0.40639 0.13148 0.67017 0.0
H336 H 0.36306 0.88365 0.65484 0.0
H337 H 0.44852 0.9147 0.62572 0.0
H338 H 0.43393 0.09009 0.60958 0.0
C339 C 0.23877 0.01588 0.67432 0.0
C340 C 0.20686 0.9677 0.69136 0.0
C341 C 0.2202 0.91455 0.69355 0.0
C342 C 0.26576 0.90984 0.67939 0.0
C343 C 0.29822 0.95924 0.66332 0.0
C344 C 0.28525 0.01104 0.66049 0.0
C345 C 0.33014 0.05925 0.64265 0.0
C346 C 0.28753 0.05884 0.62095 0.0
C347 C 0.37633 0.13188 0.65437 0.0
C348 C 0.3704 0.02649 0.6361 0.0
C349 C 0.35064 0.96874 0.64827 0.0
C350 C 0.37901 0.92868 0.64517 0.0
C351 C 0.42766 0.94689 0.62869 0.0
C352 C 0.44811 0.00502 0.61564 0.0
C353 C 0.42002 0.04616 0.61968 0.0
H354 H 0.30062 0.17062 0.99675 0.0
H355 H 0.21031 0.26949 0.03394 0.0
H356 H 0.2726 0.37042 0.01072 0.0
H357 H 0.46609 0.32519 0.99246 0.0
H358 H 0.47525 0.29682 0.96335 0.0
H359 H 0.4275 0.23525 0.98424 0.0
H360 H 0.32452 0.17569 0.95318 0.0
H361 H 0.37161 0.2374 0.9323 0.0
H362 H 0.29194 0.22471 0.9405 0.0
H363 H 0.33684 0.45579 0.98061 0.0
H364 H 0.4045 0.52237 0.94832 0.0
H365 H 0.45391 0.36746 0.93188 0.0
C366 C 0.29459 0.21384 1.0003 0.0
C367 C 0.25053 0.21217 0.01714 0.0
C368 C 0.24409 0.26981 0.02122 0.0
C369 C 0.27908 0.32724 0.00806 0.0
C370 C 0.32079 0.32636 0.99115 0.0
C371 C 0.32936 0.27149 0.98751 0.0
C372 C 0.37549 0.28212 0.96787 0.0
C373 C 0.43991 0.28504 0.97757 0.0
C374 C 0.33866 0.22669 0.94725 0.0
C375 C 0.39051 0.35101 0.96063 0.0
C376 C 0.35857 0.3758 0.97424 0.0
C377 C 0.36274 0.43725 0.97005 0.0
C378 C 0.40097 0.4745 0.9516 0.0
C379 C 0.43469 0.45023 0.93765 0.0
C380 C 0.42928 0.38772 0.94236 0.0
H381 H 0.25642 0.35592 0.34726 0.0
H382 H 0.0755 0.28402 0.38523 0.0
H383 H 0.05517 0.36795 0.36695 0.0
H384 H 0.30493 0.54045 0.34894 0.0
H385 H 0.3339 0.54913 0.31942 0.0
H386 H 0.34062 0.49143 0.33848 0.0
H387 H 0.27373 0.39249 0.30588 0.0
H388 H 0.26626 0.44951 0.28685 0.0
H389 H 0.19155 0.37299 0.29436 0.0
H390 H 0.04285 0.44335 0.33948 0.0
H391 H 0.04458 0.51232 0.30671 0.0
H392 H 0.2359 0.54056 0.28774 0.0
C393 C 0.21376 0.35932 0.35234 0.0
C394 C 0.16765 0.31334 0.36773 0.0
C395 C 0.11169 0.31869 0.37355 0.0
C396 C 0.09972 0.36636 0.36328 0.0
C397 C 0.14464 0.40907 0.34748 0.0
C398 C 0.2012 0.40691 0.34231 0.0
C399 C 0.23827 0.45446 0.3232 0.0
C400 C 0.30861 0.51231 0.33311 0.0
C401 C 0.24266 0.41498 0.30129 0.0
C402 C 0.19206 0.48127 0.31771 0.0
C403 C 0.13858 0.45476 0.33205 0.0
C404 C 0.08539 0.46599 0.32859 0.0
C405 C 0.0866 0.50487 0.30989 0.0
C406 C 0.1409 0.53254 0.29505 0.0
C407 C 0.19483 0.52161 0.29931 0.0
loop_
_geom_bond_atom_site_label_1
_geom_bond_atom_site_label_2
_geom_bond_distance
_geom_bond_site_symmetry_2
_ccdc_geom_bond_type
Zn0 O3 2.031 1_545 S
Zn0 O5 2.049 . S
Zn0 O10 2.067 1_545 S
Zn1 O2 1.962 . S
Zn1 O4 1.986 . S
Zn1 O6 1.996 . S
Zn1 O9 1.943 . S
O2 Zn1 1.962 . S
O2 C7 1.254 1_545 S
O3 Zn0 2.031 1_565 S
O3 C7 1.269 . S
O4 Zn1 1.986 . S
O4 C11 1.262 . S
O5 Zn0 2.049 . S
O5 C13 1.260 . S
O6 Zn1 1.996 . S
O6 C13 1.257 . S
C7 O2 1.254 1_565 S
C7 O3 1.269 . S
C8 O9 1.249 1_565 S
C8 O10 1.270 . S
O9 Zn1 1.943 . S
O9 C8 1.249 1_545 S
O10 Zn0 2.067 1_565 S
O10 C8 1.270 . S
C11 O4 1.262 . S
C11 O12 1.232 . S
O12 C11 1.232 . S
C13 O5 1.260 . S
C13 O6 1.257 . S
Zn14 O17 2.031 . S
Zn14 O19 2.049 . S
Zn14 O24 2.067 . S
Zn15 O16 1.962 . S
Zn15 O18 1.986 1_455 S
Zn15 O20 1.996 . S
Zn15 O23 1.943 . S
O16 Zn15 1.962 . S
O16 C21 1.254 . S
O17 Zn14 2.031 . S
O17 C21 1.269 . S
O18 Zn15 1.986 1_655 S
O18 C25 1.262 . S
O19 Zn14 2.049 . S
O19 C27 1.260 . S
O20 Zn15 1.996 . S
O20 C27 1.257 . S
C21 O16 1.254 . S
C21 O17 1.269 . S
C22 O23 1.249 . S
C22 O24 1.270 . S
O23 Zn15 1.943 . S
O23 C22 1.249 . S
O24 Zn14 2.067 . S
O24 C22 1.270 . S
C25 O18 1.262 . S
C25 O26 1.232 . S
O26 C25 1.232 . S
C27 O19 1.260 . S
C27 O20 1.257 . S
Zn28 O31 2.031 1_565 S
Zn28 O33 2.049 . S
Zn28 O38 2.067 1_565 S
Zn29 O30 1.962 1_545 S
Zn29 O32 1.986 1_455 S
Zn29 O34 1.996 1_545 S
Zn29 O37 1.943 . S
O30 Zn29 1.962 1_565 S
O30 C35 1.254 1_565 S
O31 Zn28 2.031 1_545 S
O31 C35 1.269 . S
O32 Zn29 1.986 1_655 S
O32 C39 1.262 . S
O33 Zn28 2.049 . S
O33 C41 1.260 1_455 S
O34 Zn29 1.996 1_565 S
O34 C41 1.257 1_455 S
C35 O30 1.254 1_545 S
C35 O31 1.269 . S
C36 O37 1.249 . S
C36 O38 1.270 . S
O37 Zn29 1.943 . S
O37 C36 1.249 . S
O38 Zn28 2.067 1_545 S
O38 C36 1.270 . S
C39 O32 1.262 . S
C39 O40 1.232 1_655 S
O40 C39 1.232 1_455 S
C41 O33 1.260 1_655 S
C41 O34 1.257 1_655 S
C42 O44 1.247 . S
C42 O46 1.258 . S
C43 O50 1.247 . S
C43 O51 1.258 . S
O44 C42 1.247 . S
O44 Zn45 2.028 . S
Zn45 O44 2.028 . S
Zn45 O49 2.035 . S
Zn45 O51 2.035 . S
Zn45 O52 2.028 . S
O46 C42 1.258 . S
O46 Zn47 2.035 . S
Zn47 O46 2.035 . S
Zn47 O48 2.028 . S
Zn47 O50 2.028 . S
Zn47 O53 2.035 . S
O48 Zn47 2.028 . S
O48 C54 1.247 . S
O49 Zn45 2.035 . S
O49 C54 1.258 . S
O50 C43 1.247 . S
O50 Zn47 2.028 . S
O51 C43 1.258 . S
O51 Zn45 2.035 . S
O52 Zn45 2.028 . S
O52 C55 1.247 . S
O53 Zn47 2.035 . S
O53 C55 1.258 . S
C54 O48 1.247 . S
C54 O49 1.258 . S
C55 O52 1.247 . S
C55 O53 1.258 . S
C56 O58 1.247 1_545 S
C56 O60 1.258 . S
C57 O64 1.247 . S
C57 O65 1.258 . S
O58 C56 1.247 1_565 S
O58 Zn59 2.028 . S
Zn59 O58 2.028 . S
Zn59 O63 2.035 . S
Zn59 O65 2.035 1_565 S
Zn59 O66 2.028 1_565 S
O60 C56 1.258 . S
O60 Zn61 2.035 . S
Zn61 O60 2.035 . S
Zn61 O62 2.028 . S
Zn61 O64 2.028 . S
Zn61 O67 2.035 . S
O62 Zn61 2.028 . S
O62 C68 1.247 . S
O63 Zn59 2.035 . S
O63 C68 1.258 1_565 S
O64 C57 1.247 . S
O64 Zn61 2.028 . S
O65 C57 1.258 . S
O65 Zn59 2.035 1_545 S
O66 Zn59 2.028 1_545 S
O66 C69 1.247 . S
O67 Zn61 2.035 . S
O67 C69 1.258 . S
C68 O62 1.247 . S
C68 O63 1.258 1_545 S
C69 O66 1.247 . S
C69 O67 1.258 . S
C70 O72 1.247 . S
C70 O74 1.258 . S
C71 O78 1.247 . S
C71 O79 1.258 . S
O72 C70 1.247 . S
O72 Zn73 2.028 . S
Zn73 O72 2.028 . S
Zn73 O77 2.035 . S
Zn73 O79 2.035 . S
Zn73 O80 2.028 . S
O74 C70 1.258 . S
O74 Zn75 2.035 . S
Zn75 O74 2.035 . S
Zn75 O76 2.028 . S
Zn75 O78 2.028 . S
Zn75 O81 2.035 . S
O76 Zn75 2.028 . S
O76 C82 1.247 . S
O77 Zn73 2.035 . S
O77 C82 1.258 . S
O78 C71 1.247 . S
O78 Zn75 2.028 . S
O79 C71 1.258 . S
O79 Zn73 2.035 . S
O80 Zn73 2.028 . S
O80 C83 1.247 . S
O81 Zn75 2.035 . S
O81 C83 1.258 . S
C82 O76 1.247 . S
C82 O77 1.258 . S
C83 O80 1.247 . S
C83 O81 1.258 . S
H84 C96 0.930 . S
H85 C98 0.930 . S
H86 C99 0.930 . S
H87 C103 0.959 . S
H88 C103 0.959 . S
H89 C103 0.961 . S
H90 C104 0.960 . S
H91 C104 0.961 . S
H92 C104 0.959 . S
H93 C107 0.929 . S
H94 C108 0.931 . S
H95 C110 0.930 . S
C96 H84 0.930 . S
C96 C97 1.399 . S
C96 C101 1.399 . S
C97 C96 1.399 . S
C97 C98 1.376 . S
C98 H85 0.930 . S
C98 C97 1.376 . S
C98 C99 1.388 . S
C99 H86 0.930 . S
C99 C98 1.388 . S
C99 C100 1.390 . S
C100 C99 1.390 . S
C100 C101 1.394 . S
C100 C106 1.465 . S
C101 C96 1.399 . S
C101 C100 1.394 . S
C101 C102 1.516 . S
C102 C101 1.516 . S
C102 C103 1.502 1_455 S
C102 C104 1.561 . S
C102 C105 1.526 . S
C103 H87 0.959 . S
C103 H88 0.959 . S
C103 H89 0.961 . S
C103 C102 1.502 1_655 S
C104 H90 0.960 . S
C104 H91 0.961 . S
C104 H92 0.959 . S
C104 C102 1.561 . S
C105 C102 1.526 . S
C105 C106 1.396 . S
C105 C110 1.390 . S
C106 C100 1.465 . S
C106 C105 1.396 . S
C106 C107 1.399 . S
C107 H93 0.929 . S
C107 C106 1.399 . S
C107 C108 1.385 . S
C108 H94 0.931 . S
C108 C107 1.385 . S
C108 C109 1.389 . S
C109 C108 1.389 . S
C109 C110 1.387 . S
C110 H95 0.930 . S
C110 C105 1.390 . S
C110 C109 1.387 . S
H111 C123 0.930 1_565 S
H112 C125 0.930 . S
H113 C126 0.930 . S
H114 C130 0.959 . S
H115 C130 0.959 . S
H116 C130 0.961 . S
H117 C131 0.960 . S
H118 C131 0.961 . S
H119 C131 0.959 . S
H120 C134 0.929 . S
H121 C135 0.931 . S
H122 C137 0.930 1_565 S
C123 H111 0.930 1_545 S
C123 C124 1.399 . S
C123 C128 1.399 . S
C124 C123 1.399 . S
C124 C125 1.376 . S
C125 H112 0.930 . S
C125 C124 1.376 . S
C125 C126 1.388 . S
C126 H113 0.930 . S
C126 C125 1.388 . S
C126 C127 1.390 . S
C127 C126 1.390 . S
C127 C128 1.394 . S
C127 C133 1.465 . S
C128 C123 1.399 . S
C128 C127 1.394 . S
C128 C129 1.516 1_545 S
C129 C128 1.516 1_565 S
C129 C130 1.502 . S
C129 C131 1.561 . S
C129 C132 1.526 1_565 S
C130 H114 0.959 . S
C130 H115 0.959 . S
C130 H116 0.961 . S
C130 C129 1.502 . S
C131 H117 0.960 . S
C131 H118 0.961 . S
C131 H119 0.959 . S
C131 C129 1.561 . S
C132 C129 1.526 1_545 S
C132 C133 1.396 . S
C132 C137 1.390 . S
C133 C127 1.465 . S
C133 C132 1.396 . S
C133 C134 1.399 . S
C134 H120 0.929 . S
C134 C133 1.399 . S
C134 C135 1.385 . S
C135 H121 0.931 . S
C135 C134 1.385 . S
C135 C136 1.389 . S
C136 C135 1.389 . S
C136 C137 1.387 . S
C137 H122 0.930 1_545 S
C137 C132 1.390 . S
C137 C136 1.387 . S
H138 C150 0.930 . S
H139 C152 0.930 1_455 S
H140 C153 0.930 . S
H141 C157 0.959 . S
H142 C157 0.959 . S
H143 C157 0.961 . S
H144 C158 0.960 . S
H145 C158 0.961 . S
H146 C158 0.959 . S
H147 C161 0.929 . S
H148 C162 0.931 . S
H149 C164 0.930 . S
C150 H138 0.930 . S
C150 C151 1.399 . S
C150 C155 1.399 . S
C151 C150 1.399 . S
C151 C152 1.376 . S
C152 H139 0.930 1_655 S
C152 C151 1.376 . S
C152 C153 1.388 . S
C153 H140 0.930 . S
C153 C152 1.388 . S
C153 C154 1.390 . S
C154 C153 1.390 . S
C154 C155 1.394 . S
C154 C160 1.465 . S
C155 C150 1.399 . S
C155 C154 1.394 . S
C155 C156 1.516 . S
C156 C155 1.516 . S
C156 C157 1.502 . S
C156 C158 1.561 . S
C156 C159 1.526 . S
C157 H141 0.959 . S
C157 H142 0.959 . S
C157 H143 0.961 . S
C157 C156 1.502 . S
C158 H144 0.960 . S
C158 H145 0.961 . S
C158 H146 0.959 . S
C158 C156 1.561 . S
C159 C156 1.526 . S
C159 C160 1.396 . S
C159 C164 1.390 . S
C160 C154 1.465 . S
C160 C159 1.396 . S
C160 C161 1.399 . S
C161 H147 0.929 . S
C161 C160 1.399 . S
C161 C162 1.385 . S
C162 H148 0.931 . S
C162 C161 1.385 . S
C162 C163 1.389 . S
C163 C162 1.389 . S
C163 C164 1.387 . S
C164 H149 0.930 . S
C164 C159 1.390 . S
C164 C163 1.387 . S
H165 C177 0.930 . S
H166 C179 0.930 . S
H167 C180 0.930 . S
H168 C184 0.959 . S
H169 C184 0.959 . S
H170 C184 0.961 . S
H171 C185 0.960 . S
H172 C185 0.961 . S
H173 C185 0.959 1_655 S
H174 C188 0.929 . S
H175 C189 0.931 . S
H176 C191 0.930 . S
C177 H165 0.930 . S
C177 C178 1.399 . S
C177 C182 1.399 . S
C178 C177 1.399 . S
C178 C179 1.376 . S
C179 H166 0.930 . S
C179 C178 1.376 . S
C179 C180 1.388 . S
C180 H167 0.930 . S
C180 C179 1.388 . S
C180 C181 1.390 . S
C181 C180 1.390 . S
C181 C182 1.394 . S
C181 C187 1.465 . S
C182 C177 1.399 . S
C182 C181 1.394 . S
C182 C183 1.516 . S
C183 C182 1.516 . S
C183 C184 1.502 . S
C183 C185 1.561 . S
C183 C186 1.526 . S
C184 H168 0.959 . S
C184 H169 0.959 . S
C184 H170 0.961 . S
C184 C183 1.502 . S
C185 H171 0.960 . S
C185 H172 0.961 . S
C185 H173 0.959 1_455 S
C185 C183 1.561 . S
C186 C183 1.526 . S
C186 C187 1.396 . S
C186 C191 1.390 . S
C187 C181 1.465 . S
C187 C186 1.396 . S
C187 C188 1.399 . S
C188 H174 0.929 . S
C188 C187 1.399 . S
C188 C189 1.385 . S
C189 H175 0.931 . S
C189 C188 1.385 . S
C189 C190 1.389 . S
C190 C189 1.389 . S
C190 C191 1.387 . S
C191 H176 0.930 . S
C191 C186 1.390 . S
C191 C190 1.387 . S
H192 C204 0.930 . S
H193 C206 0.930 . S
H194 C207 0.930 . S
H195 C211 0.959 . S
H196 C211 0.959 . S
H197 C211 0.961 . S
H198 C212 0.960 . S
H199 C212 0.961 . S
H200 C212 0.959 1_545 S
H201 C215 0.929 . S
H202 C216 0.931 . S
H203 C218 0.930 1_565 S
C204 H192 0.930 . S
C204 C205 1.399 . S
C204 C209 1.399 . S
C205 C204 1.399 . S
C205 C206 1.376 . S
C206 H193 0.930 . S
C206 C205 1.376 . S
C206 C207 1.388 . S
C207 H194 0.930 . S
C207 C206 1.388 . S
C207 C208 1.390 . S
C208 C207 1.390 . S
C208 C209 1.394 . S
C208 C214 1.465 . S
C209 C204 1.399 . S
C209 C208 1.394 . S
C209 C210 1.516 . S
C210 C209 1.516 . S
C210 C211 1.502 1_545 S
C210 C212 1.561 1_545 S
C210 C213 1.526 . S
C211 H195 0.959 . S
C211 H196 0.959 . S
C211 H197 0.961 . S
C211 C210 1.502 1_565 S
C212 H198 0.960 . S
C212 H199 0.961 . S
C212 H200 0.959 1_565 S
C212 C210 1.561 1_565 S
C213 C210 1.526 . S
C213 C214 1.396 . S
C213 C218 1.390 . S
C214 C208 1.465 . S
C214 C213 1.396 . S
C214 C215 1.399 . S
C215 H201 0.929 . S
C215 C214 1.399 . S
C215 C216 1.385 . S
C216 H202 0.931 . S
C216 C215 1.385 . S
C216 C217 1.389 . S
C217 C216 1.389 . S
C217 C218 1.387 . S
C218 H203 0.930 1_545 S
C218 C213 1.390 . S
C218 C217 1.387 . S
H219 C231 0.930 . S
H220 C233 0.930 . S
H221 C234 0.930 . S
H222 C238 0.959 . S
H223 C238 0.959 . S
H224 C238 0.961 . S
H225 C239 0.960 . S
H226 C239 0.961 . S
H227 C239 0.959 . S
H228 C242 0.929 . S
H229 C243 0.931 . S
H230 C245 0.930 . S
C231 H219 0.930 . S
C231 C232 1.399 . S
C231 C236 1.399 . S
C232 C231 1.399 . S
C232 C233 1.376 . S
C233 H220 0.930 . S
C233 C232 1.376 . S
C233 C234 1.388 . S
C234 H221 0.930 . S
C234 C233 1.388 . S
C234 C235 1.390 . S
C235 C234 1.390 . S
C235 C236 1.394 . S
C235 C241 1.465 . S
C236 C231 1.399 . S
C236 C235 1.394 . S
C236 C237 1.516 . S
C237 C236 1.516 . S
C237 C238 1.502 . S
C237 C239 1.561 . S
C237 C240 1.526 . S
C238 H222 0.959 . S
C238 H223 0.959 . S
C238 H224 0.961 . S
C238 C237 1.502 . S
C239 H225 0.960 . S
C239 H226 0.961 . S
C239 H227 0.959 . S
C239 C237 1.561 . S
C240 C237 1.526 . S
C240 C241 1.396 . S
C240 C245 1.390 . S
C241 C235 1.465 . S
C241 C240 1.396 . S
C241 C242 1.399 . S
C242 H228 0.929 . S
C242 C241 1.399 . S
C242 C243 1.385 . S
C243 H229 0.931 . S
C243 C242 1.385 . S
C243 C244 1.389 . S
C244 C243 1.389 . S
C244 C245 1.387 . S
C245 H230 0.930 . S
C245 C240 1.390 . S
C245 C244 1.387 . S
H246 C258 0.930 1_565 S
H247 C260 0.930 . S
H248 C261 0.930 . S
H249 C265 0.959 1_545 S
H250 C265 0.959 . S
H251 C265 0.961 . S
H252 C266 0.960 . S
H253 C266 0.961 . S
H254 C266 0.959 . S
H255 C269 0.929 . S
H256 C270 0.931 . S
H257 C272 0.930 1_565 S
C258 H246 0.930 1_545 S
C258 C259 1.399 . S
C258 C263 1.399 . S
C259 C258 1.399 . S
C259 C260 1.376 . S
C260 H247 0.930 . S
C260 C259 1.376 . S
C260 C261 1.388 . S
C261 H248 0.930 . S
C261 C260 1.388 . S
C261 C262 1.390 . S
C262 C261 1.390 . S
C262 C263 1.394 . S
C262 C268 1.465 . S
C263 C258 1.399 . S
C263 C262 1.394 . S
C263 C264 1.516 1_545 S
C264 C263 1.516 1_565 S
C264 C265 1.502 . S
C264 C266 1.561 . S
C264 C267 1.526 1_565 S
C265 H249 0.959 1_565 S
C265 H250 0.959 . S
C265 H251 0.961 . S
C265 C264 1.502 . S
C266 H252 0.960 . S
C266 H253 0.961 . S
C266 H254 0.959 . S
C266 C264 1.561 . S
C267 C264 1.526 1_545 S
C267 C268 1.396 . S
C267 C272 1.390 . S
C268 C262 1.465 . S
C268 C267 1.396 . S
C268 C269 1.399 . S
C269 H255 0.929 . S
C269 C268 1.399 . S
C269 C270 1.385 . S
C270 H256 0.931 . S
C270 C269 1.385 . S
C270 C271 1.389 . S
C271 C270 1.389 . S
C271 C272 1.387 . S
C272 H257 0.930 1_545 S
C272 C267 1.390 . S
C272 C271 1.387 . S
H273 C285 0.930 . S
H274 C287 0.930 1_455 S
H275 C288 0.929 1_556 S
H276 C292 0.959 . S
H277 C292 0.959 . S
H278 C292 0.961 . S
H279 C293 0.960 . S
H280 C293 0.961 . S
H281 C293 0.959 . S
H282 C296 0.929 . S
H283 C297 0.931 . S
H284 C299 0.930 . S
C285 H273 0.930 . S
C285 C286 1.399 . S
C285 C290 1.399 1_554 S
C286 C285 1.399 . S
C286 C287 1.376 . S
C287 H274 0.930 1_655 S
C287 C286 1.376 . S
C287 C288 1.392 . S
C288 H275 0.929 1_554 S
C288 C287 1.392 . S
C288 C289 1.386 1_554 S
C289 C288 1.386 1_556 S
C289 C290 1.394 . S
C289 C295 1.465 . S
C290 C285 1.399 1_556 S
C290 C289 1.394 . S
C290 C291 1.516 . S
C291 C290 1.516 . S
C291 C292 1.502 . S
C291 C293 1.561 . S
C291 C294 1.526 . S
C292 H276 0.959 . S
C292 H277 0.959 . S
C292 H278 0.961 . S
C292 C291 1.502 . S
C293 H279 0.960 . S
C293 H280 0.961 . S
C293 H281 0.959 . S
C293 C291 1.561 . S
C294 C291 1.526 . S
C294 C295 1.396 . S
C294 C299 1.390 . S
C295 C289 1.465 . S
C295 C294 1.396 . S
C295 C296 1.399 . S
C296 H282 0.929 . S
C296 C295 1.399 . S
C296 C297 1.385 . S
C297 H283 0.931 . S
C297 C296 1.385 . S
C297 C298 1.389 . S
C298 C297 1.389 . S
C298 C299 1.387 . S
C299 H284 0.930 . S
C299 C294 1.390 . S
C299 C298 1.387 . S
H300 C312 0.930 1_655 S
H301 C314 0.930 . S
H302 C315 0.930 . S
H303 C319 0.959 . S
H304 C319 0.959 . S
H305 C319 0.961 . S
H306 C320 0.960 . S
H307 C320 0.961 . S
H308 C320 0.959 . S
H309 C323 0.929 . S
H310 C324 0.931 . S
H311 C326 0.930 . S
C312 H300 0.930 1_455 S
C312 C313 1.399 . S
C312 C317 1.399 . S
C313 C312 1.399 . S
C313 C314 1.376 . S
C314 H301 0.930 . S
C314 C313 1.376 . S
C314 C315 1.388 . S
C315 H302 0.930 . S
C315 C314 1.388 . S
C315 C316 1.390 . S
C316 C315 1.390 . S
C316 C317 1.394 . S
C316 C322 1.465 . S
C317 C312 1.399 . S
C317 C316 1.394 . S
C317 C318 1.516 . S
C318 C317 1.516 . S
C318 C319 1.502 1_455 S
C318 C320 1.561 . S
C318 C321 1.526 . S
C319 H303 0.959 . S
C319 H304 0.959 . S
C319 H305 0.961 . S
C319 C318 1.502 1_655 S
C320 H306 0.960 . S
C320 H307 0.961 . S
C320 H308 0.959 . S
C320 C318 1.561 . S
C321 C318 1.526 . S
C321 C322 1.396 . S
C321 C326 1.390 . S
C322 C316 1.465 . S
C322 C321 1.396 . S
C322 C323 1.399 . S
C323 H309 0.929 . S
C323 C322 1.399 . S
C323 C324 1.385 . S
C324 H310 0.931 . S
C324 C323 1.385 . S
C324 C325 1.389 . S
C325 C324 1.389 . S
C325 C326 1.387 . S
C326 H311 0.930 . S
C326 C321 1.390 . S
C326 C325 1.387 . S
H327 C339 0.930 . S
H328 C341 0.930 . S
H329 C342 0.930 . S
H330 C346 0.959 . S
H331 C346 0.959 . S
H332 C346 0.961 . S
H333 C347 0.960 . S
H334 C347 0.961 . S
H335 C347 0.959 . S
H336 C350 0.929 . S
H337 C351 0.931 . S
H338 C353 0.930 . S
C339 H327 0.930 . S
C339 C340 1.399 . S
C339 C344 1.399 . S
C340 C339 1.399 . S
C340 C341 1.376 1_545 S
C341 H328 0.930 . S
C341 C340 1.376 1_565 S
C341 C342 1.388 . S
C342 H329 0.930 . S
C342 C341 1.388 . S
C342 C343 1.390 . S
C343 C342 1.390 . S
C343 C344 1.394 1_565 S
C343 C349 1.465 1_565 S
C344 C339 1.399 . S
C344 C343 1.394 1_545 S
C344 C345 1.516 . S
C345 C344 1.516 . S
C345 C346 1.502 . S
C345 C347 1.561 . S
C345 C348 1.526 . S
C346 H330 0.959 . S
C346 H331 0.959 . S
C346 H332 0.961 . S
C346 C345 1.502 . S
C347 H333 0.960 . S
C347 H334 0.961 . S
C347 H335 0.959 . S
C347 C345 1.561 . S
C348 C345 1.526 . S
C348 C349 1.396 . S
C348 C353 1.390 . S
C349 C343 1.465 1_545 S
C349 C348 1.396 . S
C349 C350 1.399 1_545 S
C350 H336 0.929 . S
C350 C349 1.399 1_565 S
C350 C351 1.385 . S
C351 H337 0.931 . S
C351 C350 1.385 . S
C351 C352 1.389 1_565 S
C352 C351 1.389 1_545 S
C352 C353 1.387 . S
C353 H338 0.930 . S
C353 C348 1.390 . S
C353 C352 1.387 . S
H354 C366 0.930 . S
H355 C368 0.930 . S
H356 C369 0.930 . S
H357 C373 0.959 . S
H358 C373 0.959 . S
H359 C373 0.961 . S
H360 C374 0.960 . S
H361 C374 0.961 . S
H362 C374 0.959 . S
H363 C377 0.929 . S
H364 C378 0.931 . S
H365 C380 0.930 . S
C366 H354 0.930 . S
C366 C367 1.399 1_556 S
C366 C371 1.399 . S
C367 C366 1.399 1_554 S
C367 C368 1.376 . S
C368 H355 0.930 . S
C368 C367 1.376 . S
C368 C369 1.388 . S
C369 H356 0.930 . S
C369 C368 1.388 . S
C369 C370 1.390 1_554 S
C370 C369 1.390 1_556 S
C370 C371 1.394 . S
C370 C376 1.465 . S
C371 C366 1.399 . S
C371 C370 1.394 . S
C371 C372 1.516 . S
C372 C371 1.516 . S
C372 C373 1.502 . S
C372 C374 1.561 . S
C372 C375 1.526 . S
C373 H357 0.959 . S
C373 H358 0.959 . S
C373 H359 0.961 . S
C373 C372 1.502 . S
C374 H360 0.960 . S
C374 H361 0.961 . S
C374 H362 0.959 . S
C374 C372 1.561 . S
C375 C372 1.526 . S
C375 C376 1.396 . S
C375 C380 1.390 . S
C376 C370 1.465 . S
C376 C375 1.396 . S
C376 C377 1.399 . S
C377 H363 0.929 . S
C377 C376 1.399 . S
C377 C378 1.385 . S
C378 H364 0.931 . S
C378 C377 1.385 . S
C378 C379 1.389 . S
C379 C378 1.389 . S
C379 C380 1.387 . S
C380 H365 0.930 . S
C380 C375 1.390 . S
C380 C379 1.387 . S
H381 C393 0.930 . S
H382 C395 0.930 . S
H383 C396 0.930 . S
H384 C400 0.959 . S
H385 C400 0.959 . S
H386 C400 0.961 . S
H387 C401 0.960 . S
H388 C401 0.961 . S
H389 C401 0.959 . S
H390 C404 0.929 . S
H391 C405 0.931 . S
H392 C407 0.930 . S
C393 H381 0.930 . S
C393 C394 1.399 . S
C393 C398 1.399 . S
C394 C393 1.399 . S
C394 C395 1.376 . S
C395 H382 0.930 . S
C395 C394 1.376 . S
C395 C396 1.388 . S
C396 H383 0.930 . S
C396 C395 1.388 . S
C396 C397 1.390 . S
C397 C396 1.390 . S
C397 C398 1.394 . S
C397 C403 1.465 . S
C398 C393 1.399 . S
C398 C397 1.394 . S
C398 C399 1.516 . S
C399 C398 1.516 . S
C399 C400 1.502 . S
C399 C401 1.561 . S
C399 C402 1.526 . S
C400 H384 0.959 . S
C400 H385 0.959 . S
C400 H386 0.961 . S
C400 C399 1.502 . S
C401 H387 0.960 . S
C401 H388 0.961 . S
C401 H389 0.959 . S
C401 C399 1.561 . S
C402 C399 1.526 . S
C402 C403 1.396 . S
C402 C407 1.390 . S
C403 C397 1.465 . S
C403 C402 1.396 . S
C403 C404 1.399 . S
C404 H390 0.929 . S
C404 C403 1.399 . S
C404 C405 1.385 . S
C405 H391 0.931 . S
C405 C404 1.385 . S
C405 C406 1.389 . S
C406 C405 1.389 . S
C406 C407 1.387 . S
C407 H392 0.930 . S
C407 C402 1.390 . S
C407 C406 1.387 . S
C109 C43 1.329 . S
C97 C11 1.308 . S
C124 C25 1.348 . S
C136 C69 1.398 . S
C151 C41 1.318 . S
C163 C71 1.421 . S
C178 C7 1.362 . S
C190 C55 1.363 . S
C217 C57 1.421 . S
C205 C21 1.432 . S
C232 C36 1.385 . S
C244 C83 1.435 . S
C271 C56 1.378 . S
C259 C39 1.393 . S
C286 C8 1.329 1_655 S
C298 C82 1.445 . S
C325 C42 1.492 . S
C313 C22 1.406 1_565 S
C352 C68 1.414 . S
C340 C35 1.421 . S
C379 C70 1.404 . S
C367 C13 1.394 . S
C394 C27 1.369 . S
C406 C54 1.456 . S
