# Generated by pormake.
# Topology csq, (4,8)-cn, num edge types: 1
# Building blocks:
#     Node 0, Type 0, BuildingBlock: MUDLON_clean_sbu_0, # of connection points: 4
#     Node 1, Type 0, BuildingBlock: MUDLON_clean_sbu_0, # of connection points: 4
#     Node 2, Type 0, BuildingBlock: MUDLON_clean_sbu_0, # of connection points: 4
#     Node 3, Type 0, BuildingBlock: MUDLON_clean_sbu_0, # of connection points: 4
#     Node 4, Type 0, BuildingBlock: MUDLON_clean_sbu_0, # of connection points: 4
#     Node 5, Type 0, BuildingBlock: MUDLON_clean_sbu_0, # of connection points: 4
#     Node 6, Type 1, BuildingBlock: TAGTUT_clean_sbu_1, # of connection points: 8
#     Node 7, Type 1, BuildingBlock: TAGTUT_clean_sbu_1, # of connection points: 8
#     Node 8, Type 1, BuildingBlock: TAGTUT_clean_sbu_1, # of connection points: 8
#     Edge 9, Type (0, 1), BuildingBlock: CIFDUS_clean_linker_0, # of connection points: 2
#     Edge 10, Type (0, 1), BuildingBlock: CIFDUS_clean_linker_0, # of connection points: 2
#     Edge 11, Type (0, 1), BuildingBlock: CIFDUS_clean_linker_0, # of connection points: 2
#     Edge 12, Type (0, 1), BuildingBlock: CIFDUS_clean_linker_0, # of connection points: 2
#     Edge 13, Type (0, 1), BuildingBlock: CIFDUS_clean_linker_0, # of connection points: 2
#     Edge 14, Type (0, 1), BuildingBlock: CIFDUS_clean_linker_0, # of connection points: 2
#     Edge 15, Type (0, 1), BuildingBlock: CIFDUS_clean_linker_0, # of connection points: 2
#     Edge 16, Type (0, 1), BuildingBlock: CIFDUS_clean_linker_0, # of connection points: 2
#     Edge 17, Type (0, 1), BuildingBlock: CIFDUS_clean_linker_0, # of connection points: 2
#     Edge 18, Type (0, 1), BuildingBlock: CIFDUS_clean_linker_0, # of connection points: 2
#     Edge 19, Type (0, 1), BuildingBlock: CIFDUS_clean_linker_0, # of connection points: 2
#     Edge 20, Type (0, 1), BuildingBlock: CIFDUS_clean_linker_0, # of connection points: 2
#     Edge 21, Type (0, 1), BuildingBlock: CIFDUS_clean_linker_0, # of connection points: 2
#     Edge 22, Type (0, 1), BuildingBlock: CIFDUS_clean_linker_0, # of connection points: 2
#     Edge 23, Type (0, 1), BuildingBlock: CIFDUS_clean_linker_0, # of connection points: 2
#     Edge 24, Type (0, 1), BuildingBlock: CIFDUS_clean_linker_0, # of connection points: 2
#     Edge 25, Type (0, 1), BuildingBlock: CIFDUS_clean_linker_0, # of connection points: 2
#     Edge 26, Type (0, 1), BuildingBlock: CIFDUS_clean_linker_0, # of connection points: 2
#     Edge 27, Type (0, 1), BuildingBlock: CIFDUS_clean_linker_0, # of connection points: 2
#     Edge 28, Type (0, 1), BuildingBlock: CIFDUS_clean_linker_0, # of connection points: 2
#     Edge 29, Type (0, 1), BuildingBlock: CIFDUS_clean_linker_0, # of connection points: 2
#     Edge 30, Type (0, 1), BuildingBlock: CIFDUS_clean_linker_0, # of connection points: 2
#     Edge 31, Type (0, 1), BuildingBlock: CIFDUS_clean_linker_0, # of connection points: 2
#     Edge 32, Type (0, 1), BuildingBlock: CIFDUS_clean_linker_0, # of connection points: 2
# Relax obj value: 0.062
# Max RMSD: 0.135
# Mean RMSD: 0.098
data_MOF--net-csq--node1-MUDLON_clean_sbu_0--node2-TAGTUT_clean_sbu_1--edge1-CIFDUS_clean_linker_0
_symmetry_space_group_name_H-M    P1
_symmetry_Int_Tables_number       1
_symmetry_cell_setting            triclinic
loop_
_symmetry_equiv_pos_as_xyz
'x, y, z'
_cell_length_a     44.114048
_cell_length_b     43.820853
_cell_length_c     18.024752
_cell_angle_alpha  92.549445
_cell_angle_beta   92.166117
_cell_angle_gamma 119.90945
loop_
_atom_site_label
_atom_site_type_symbol
_atom_site_fract_x
_atom_site_fract_y
_atom_site_fract_z
_atom_type_partial_charge
Mg0 Mg 0.24952 0.47839 0.21766 0.0
C1 C 0.20851 0.47922 0.09302 0.0
O2 O 0.23504 0.51135 0.10864 0.0
C3 C 0.27004 0.42639 0.28288 0.0
O4 O 0.27161 0.41724 0.21336 0.0
C5 C 0.22207 0.49871 0.34916 0.0
O6 O 0.22028 0.46932 0.36817 0.0
O7 O 0.2363 0.51159 0.28913 0.0
O8 O 0.20572 0.45499 0.13366 0.0
O9 O 0.29581 0.50044 0.15051 0.0
C10 C 0.29204 0.48049 0.09282 0.0
O11 O 0.26205 0.45092 0.0796 0.0
O12 O 0.2584 0.44716 0.29646 0.0
Mg13 Mg 0.77747 0.25633 0.15166 0.0
C14 C 0.80527 0.33323 0.11609 0.0
O15 O 0.80744 0.34102 0.18792 0.0
C16 C 0.71441 0.24004 0.24881 0.0
O17 O 0.70236 0.25112 0.19481 0.0
C18 C 0.83464 0.29214 0.26316 0.0
O19 O 0.8087 0.2954 0.28769 0.0
O20 O 0.82952 0.27353 0.20286 0.0
O21 O 0.78642 0.30129 0.09043 0.0
O22 O 0.75437 0.21046 0.07131 0.0
C23 C 0.74558 0.21295 1.00463 0.0
O24 O 0.7548 0.24434 0.98221 0.0
O25 O 0.74345 0.24096 0.24347 0.0
Mg26 Mg 0.51055 0.76336 0.063 0.0
C27 C 0.54529 0.82337 0.18251 0.0
O28 O 0.5708 0.81758 0.16579 0.0
C29 C 0.53952 0.73824 0.93992 0.0
O30 O 0.56467 0.7711 0.95465 0.0
C31 C 0.53243 0.82936 0.97311 0.0
O32 O 0.56218 0.83844 0.0106 0.0
O33 O 0.50611 0.79898 0.97972 0.0
O34 O 0.51453 0.80258 0.15375 0.0
O35 O 0.51437 0.72695 0.14548 0.0
C36 C 0.54337 0.72752 0.15451 0.0
O37 O 0.57056 0.75076 0.12125 0.0
O38 O 0.51114 0.72698 0.97207 0.0
Mg39 Mg 0.7657 0.52702 0.05763 0.0
C40 C 0.75682 0.56279 0.92606 0.0
O41 O 0.76889 0.54426 0.89248 0.0
C42 C 0.79955 0.51776 0.18765 0.0
O43 O 0.76986 0.48807 0.17235 0.0
C44 C 0.72106 0.52274 0.17659 0.0
O45 O 0.75027 0.55324 0.18786 0.0
O46 O 0.71792 0.50244 0.12 0.0
O47 O 0.75819 0.5652 0.9971 0.0
O48 O 0.77971 0.50026 0.97022 0.0
C49 C 0.79442 0.48199 0.98027 0.0
O50 O 0.79633 0.472 0.04702 0.0
O51 O 0.80689 0.54335 0.14704 0.0
Mg52 Mg 0.24719 0.78501 0.13063 0.0
C53 C 0.19011 0.74456 0.01777 0.0
O54 O 0.21737 0.74409 0.99233 0.0
C55 C 0.27438 0.82874 0.27875 0.0
O56 O 0.26316 0.79733 0.30309 0.0
C57 C 0.223 0.7112 0.17625 0.0
O58 O 0.21395 0.70189 0.1052 0.0
O59 O 0.24458 0.74338 0.19595 0.0
O60 O 0.19404 0.76249 0.07858 0.0
O61 O 0.28126 0.80272 0.03878 0.0
C62 C 0.30669 0.79821 0.02364 0.0
O63 O 0.31545 0.7802 0.06723 0.0
O64 O 0.26777 0.83113 0.21039 0.0
Mg65 Mg 0.44894 0.24427 0.23299 0.0
C66 C 0.39077 0.25174 0.29129 0.0
O67 O 0.3869 0.22639 0.33309 0.0
C68 C 0.45906 0.1911 0.14846 0.0
O69 O 0.48497 0.20366 0.19998 0.0
C70 C 0.50087 0.30128 0.14687 0.0
O71 O 0.49189 0.2734 0.10136 0.0
O72 O 0.49144 0.29645 0.21305 0.0
O73 O 0.40706 0.2559 0.23285 0.0
O74 O 0.45205 0.2217 0.33624 0.0
C75 C 0.47959 0.22232 0.36189 0.0
O76 O 0.5095 0.24232 0.33267 0.0
O77 O 0.4394 0.20458 0.1453 0.0
C78 C 0.96586 0.43183 0.86215 0.0
C79 C 0.07427 0.48466 0.7987 0.0
C80 C 0.05143 0.59319 0.73917 0.0
Mg81 Mg 1.0016 0.44128 0.71305 0.0
O82 O 0.99755 0.48181 0.72032 0.0
Mg83 Mg 0.01723 0.51496 0.81165 0.0
Mg84 Mg 0.01169 0.51579 0.64235 0.0
O85 O 0.02624 0.5497 0.5637 0.0
Mg86 Mg 0.02792 0.59311 0.5665 0.0
Mg87 Mg 0.00683 0.51661 0.47262 0.0
C88 C 0.97459 0.43971 0.54334 0.0
C89 C 0.07119 0.5103 0.54671 0.0
O90 O 0.98372 0.46544 0.87778 0.0
O91 O 0.96813 0.41715 0.80111 0.0
O92 O 0.0648 0.5065 0.82179 0.0
O93 O 0.05459 0.45773 0.75407 0.0
O94 O 0.98135 0.42441 0.59567 0.0
O95 O 0.98029 0.47147 0.55308 0.0
C96 C 0.95143 0.51919 0.73925 0.0
O97 O 0.96134 0.51872 0.67304 0.0
O98 O 0.96954 0.51992 0.79681 0.0
O99 O 0.04004 0.56396 0.40323 0.0
O100 O 0.06337 0.61386 0.47846 0.0
O101 O 0.96098 0.52757 0.46126 0.0
C102 C 0.06153 0.59714 0.41665 0.0
O103 O 0.97577 0.57931 0.52262 0.0
O104 O 0.0472 0.60925 0.68488 0.0
C105 C 0.95419 0.55193 0.48075 0.0
O106 O 0.0432 0.56053 0.73131 0.0
O107 O 0.06112 0.51139 0.61244 0.0
O108 O 0.05382 0.51032 0.48856 0.0
C109 C 0.46284 0.04427 0.88296 0.0
C110 C 0.41725 0.9442 0.75629 0.0
C111 C 0.54906 0.97856 0.7131 0.0
Mg112 Mg 0.44526 0.02032 0.7139 0.0
O113 O 0.49203 0.03042 0.72792 0.0
Mg114 Mg 0.5027 0.00391 0.80277 0.0
Mg115 Mg 0.51141 0.01921 0.64067 0.0
O116 O 0.53088 0.00814 0.5534 0.0
Mg117 Mg 0.57812 0.01932 0.56564 0.0
Mg118 Mg 0.51932 0.03345 0.47713 0.0
C119 C 0.47718 0.06445 0.57144 0.0
C120 C 0.445 0.96911 0.5209 0.0
O121 O 0.48325 0.03116 0.88767 0.0
O122 O 0.44616 0.04286 0.82192 0.0
O123 O 0.44766 0.9561 0.78854 0.0
O124 O 0.41001 0.96359 0.71677 0.0
O125 O 0.45273 0.05236 0.61729 0.0
O126 O 0.50175 0.05677 0.57387 0.0
C127 C 0.57705 0.06922 0.76164 0.0
O128 O 0.56603 0.06358 0.69258 0.0
O129 O 0.55761 0.05071 0.81167 0.0
O130 O 0.53684 0.00367 0.39378 0.0
O131 O 0.57506 0.99358 0.45989 0.0
O132 O 0.57441 0.08118 0.48682 0.0
C133 C 0.5569 0.99018 0.3996 0.0
O134 O 0.61323 0.07567 0.55844 0.0
O135 O 0.57355 0.99169 0.66758 0.0
C136 C 0.60519 0.09402 0.51762 0.0
O137 O 0.52186 0.9821 0.70717 0.0
O138 O 0.45642 0.97473 0.58966 0.0
O139 O 0.46434 0.98735 0.47062 0.0
C140 C 0.53184 0.57331 0.3919 0.0
C141 C 0.59162 0.52663 0.46905 0.0
C142 C 0.46656 0.42274 0.55339 0.0
Mg143 Mg 0.56255 0.56943 0.54767 0.0
O144 O 0.51687 0.53045 0.54538 0.0
Mg145 Mg 0.50337 0.49343 0.4615 0.0
Mg146 Mg 0.50685 0.50131 0.63253 0.0
O147 O 0.49766 0.47303 0.72118 0.0
Mg148 Mg 0.45446 0.43227 0.72712 0.0
Mg149 Mg 0.51257 0.51034 0.80564 0.0
C150 C 0.54166 0.58066 0.71216 0.0
C151 C 0.58277 0.52722 0.72249 0.0
O152 O 0.51259 0.53932 0.38451 0.0
O153 O 0.55251 0.58972 0.44974 0.0
O154 O 0.55989 0.50548 0.44494 0.0
O155 O 0.59923 0.55207 0.51754 0.0
O156 O 0.56152 0.59296 0.65766 0.0
O157 O 0.51785 0.54801 0.71199 0.0
C158 C 0.43233 0.47706 0.53966 0.0
O159 O 0.4478 0.48414 0.60533 0.0
O160 O 0.44855 0.48025 0.48064 0.0
O161 O 0.50903 0.46645 0.88313 0.0
O162 O 0.47354 0.41472 0.81666 0.0
O163 O 0.45598 0.49655 0.82977 0.0
C164 C 0.49461 0.43258 0.87309 0.0
O165 O 0.41693 0.44637 0.76689 0.0
O166 O 0.44979 0.41156 0.61229 0.0
C167 C 0.42421 0.473 0.81136 0.0
O168 O 0.49394 0.45365 0.55279 0.0
O169 O 0.56609 0.51839 0.65798 0.0
O170 O 0.56741 0.52529 0.78212 0.0
H171 H 0.19148 0.47784 0.48023 0.0
H172 H 0.20616 0.54893 0.30888 0.0
H173 H 0.16347 0.56196 0.36246 0.0
H174 H 0.1167 0.54717 0.44698 0.0
H175 H 0.10031 0.47536 0.6171 0.0
H176 H 0.14946 0.46889 0.57563 0.0
C177 C 0.1858 0.49664 0.45521 0.0
C178 C 0.20171 0.51199 0.38972 0.0
C179 C 0.16074 0.50357 0.48572 0.0
C180 C 0.1943 0.53661 0.35884 0.0
C181 C 0.16971 0.54392 0.38927 0.0
C182 C 0.12422 0.53046 0.47577 0.0
C183 C 0.10462 0.51125 0.53422 0.0
C184 C 0.15196 0.52662 0.45097 0.0
C185 C 0.11497 0.49029 0.57196 0.0
C186 C 0.14287 0.48644 0.54779 0.0
H187 H 0.73108 0.21165 0.364 0.0
H188 H 0.64778 0.22612 0.27112 0.0
H189 H 0.60807 0.18667 0.35838 0.0
H190 H 0.59487 0.14167 0.44674 0.0
H191 H 0.67684 0.12381 0.53363 0.0
H192 H 0.71951 0.17191 0.46462 0.0
C193 C 0.70438 0.20665 0.36347 0.0
C194 C 0.69226 0.22134 0.30992 0.0
C195 C 0.68145 0.18326 0.41264 0.0
C196 C 0.65774 0.21491 0.31098 0.0
C197 C 0.63497 0.19228 0.36083 0.0
C198 C 0.62221 0.14866 0.45185 0.0
C199 C 0.63248 0.1286 0.49413 0.0
C200 C 0.64622 0.17531 0.40982 0.0
C201 C 0.66812 0.13858 0.5012 0.0
C202 C 0.69247 0.16588 0.46111 0.0
H203 H 0.49302 0.65981 0.17455 0.0
H204 H 0.60137 0.7373 0.23341 0.0
H205 H 0.60786 0.69539 0.30766 0.0
H206 H 0.58243 0.63782 0.35947 0.0
H207 H 0.47497 0.55867 0.29798 0.0
H208 H 0.46861 0.59977 0.21948 0.0
C209 C 0.51795 0.66746 0.20399 0.0
C210 C 0.54656 0.70177 0.1996 0.0
C211 C 0.52174 0.64285 0.24523 0.0
C212 C 0.57895 0.71114 0.23642 0.0
C213 C 0.5827 0.68718 0.27872 0.0
C214 C 0.55767 0.6294 0.32833 0.0
C215 C 0.52913 0.59535 0.33495 0.0
C216 C 0.55425 0.6531 0.28385 0.0
C217 C 0.49738 0.58467 0.29351 0.0
C218 C 0.49366 0.60829 0.24925 0.0
H219 H 0.85021 0.57525 0.27403 0.0
H220 H 0.80445 0.46254 0.2332 0.0
H221 H 0.84554 0.46251 0.32689 0.0
H222 H 0.89675 0.49458 0.41434 0.0
H223 H 0.94286 0.60708 0.459 0.0
H224 H 0.8988 0.60691 0.37214 0.0
C225 C 0.84932 0.55078 0.28595 0.0
C226 C 0.82459 0.51904 0.24621 0.0
C227 C 0.87281 0.55078 0.34122 0.0
C228 C 0.82326 0.48737 0.26294 0.0
C229 C 0.84673 0.48726 0.3166 0.0
C230 C 0.89684 0.51901 0.40613 0.0
C231 C 0.92325 0.55079 0.44266 0.0
C232 C 0.87184 0.51882 0.35545 0.0
C233 C 0.92274 0.58215 0.43186 0.0
C234 C 0.89777 0.58216 0.38147 0.0
H235 H 0.30192 0.83175 0.41931 0.0
H236 H 0.30701 0.89731 0.24263 0.0
H237 H 0.35839 0.94748 0.30738 0.0
H238 H 0.40578 0.97061 0.40502 0.0
H239 H 0.40246 0.90609 0.58183 0.0
H240 H 0.34608 0.85764 0.52663 0.0
C241 C 0.31386 0.85717 0.39555 0.0
C242 C 0.30084 0.86052 0.32536 0.0
C243 C 0.34391 0.88592 0.43263 0.0
C244 C 0.31653 0.89378 0.29599 0.0
C245 C 0.34606 0.9225 0.33288 0.0
C246 C 0.3926 0.94602 0.43196 0.0
C247 C 0.40862 0.94158 0.49644 0.0
C248 C 0.36063 0.91849 0.3997 0.0
C249 C 0.3908 0.91 0.5318 0.0
C250 C 0.35868 0.8823 0.50001 0.0
H251 H 0.43821 0.32014 0.27367 0.0
H252 H 0.34825 0.2538 0.39432 0.0
H253 H 0.36107 0.30443 0.47953 0.0
H254 H 0.40328 0.36351 0.53174 0.0
H255 H 0.49757 0.4279 0.42114 0.0
H256 H 0.47727 0.38206 0.31868 0.0
C257 C 0.42075 0.31695 0.3172 0.0
C258 C 0.39235 0.28323 0.32819 0.0
C259 C 0.42954 0.3456 0.36845 0.0
C260 C 0.37022 0.27948 0.38512 0.0
C261 C 0.37774 0.30832 0.43405 0.0
C262 C 0.41942 0.3678 0.48503 0.0
C263 C 0.45242 0.39868 0.48509 0.0
C264 C 0.40829 0.34091 0.42836 0.0
C265 C 0.47234 0.40417 0.42298 0.0
C266 C 0.46077 0.37791 0.36458 0.0
H267 H 0.58522 0.89128 0.93132 0.0
H268 H 0.47262 0.82474 0.9107 0.0
H269 H 0.46769 0.86703 0.83454 0.0
H270 H 0.49554 0.92181 0.76961 0.0
H271 H 0.60829 0.98619 0.7839 0.0
H272 H 0.61295 0.94622 0.86798 0.0
C273 C 0.55957 0.88604 0.91037 0.0
C274 C 0.52937 0.8548 0.92642 0.0
C275 C 0.55694 0.91025 0.86596 0.0
C276 C 0.49634 0.84843 0.89868 0.0
C277 C 0.49346 0.8727 0.85544 0.0
C278 C 0.52108 0.92734 0.79214 0.0
C279 C 0.55154 0.95693 0.77092 0.0
C280 C 0.5236 0.90359 0.83833 0.0
C281 C 0.58449 0.96353 0.79946 0.0
C282 C 0.58717 0.94064 0.84728 0.0
H283 H 0.7281 0.5383 0.78428 0.0
H284 H 0.72965 0.60382 0.97236 0.0
H285 H 0.67855 0.60382 0.91558 0.0
H286 H 0.62793 0.57644 0.82558 0.0
H287 H 0.62268 0.50688 0.64245 0.0
H288 H 0.68133 0.51787 0.68316 0.0
C289 C 0.71786 0.55337 0.81205 0.0
C290 C 0.73236 0.57056 0.88333 0.0
C291 C 0.68757 0.55208 0.78035 0.0
C292 C 0.71881 0.59007 0.91808 0.0
C293 C 0.68948 0.58993 0.88576 0.0
C294 C 0.63991 0.56416 0.79367 0.0
C295 C 0.62079 0.5402 0.73222 0.0
C296 C 0.67274 0.56962 0.81895 0.0
C297 C 0.63683 0.52518 0.69025 0.0
C298 C 0.67019 0.53126 0.71401 0.0
H299 H 0.15878 0.67413 0.01151 0.0
H300 H 0.14528 0.75927 0.93985 0.0
H301 H 0.09635 0.71778 0.85216 0.0
H302 H 0.06449 0.65931 0.78312 0.0
H303 H 0.07998 0.57491 0.8541 0.0
H304 H 0.12054 0.6139 0.95627 0.0
C305 C 0.14436 0.68335 0.97835 0.0
C306 C 0.15534 0.71951 0.98184 0.0
C307 C 0.11698 0.65954 0.92745 0.0
C308 C 0.13685 0.73141 0.93839 0.0
C309 C 0.10919 0.70775 0.88785 0.0
C310 C 0.0762 0.64921 0.82174 0.0
C311 C 0.06964 0.61432 0.8099 0.0
C312 C 0.10005 0.67202 0.87981 0.0
C313 C 0.08463 0.60159 0.86134 0.0
C314 C 0.10804 0.62397 0.91966 0.0
H315 H 0.49158 0.15258 0.15344 0.0
H316 H 0.41193 0.16235 0.02756 0.0
H317 H 0.40315 0.11429 0.93924 0.0
H318 H 0.42095 0.07286 0.8935 0.0
H319 H 0.5021 0.06431 0.01641 0.0
H320 H 0.50672 0.10813 0.11172 0.0
C321 C 0.47225 0.14419 0.10675 0.0
C322 C 0.45277 0.16132 0.0964 0.0
C323 C 0.46744 0.11669 0.05616 0.0
C324 C 0.42746 0.14978 0.03634 0.0
C325 C 0.42238 0.12228 0.98596 0.0
C326 C 0.43945 0.0802 0.94146 0.0
C327 C 0.46148 0.06561 0.94722 0.0
C328 C 0.44262 0.10599 0.99476 0.0
C329 C 0.48489 0.07517 0.01037 0.0
C330 C 0.48774 0.10042 0.06461 0.0
H331 H 0.28676 0.44696 0.95907 0.0
H332 H 0.36216 0.53096 0.11434 0.0
H333 H 0.4096 0.53829 0.03686 0.0
H334 H 0.42987 0.51733 0.93018 0.0
H335 H 0.35359 0.43203 0.77802 0.0
H336 H 0.30632 0.42902 0.84897 0.0
C337 C 0.31353 0.4671 0.97601 0.0
C338 C 0.32085 0.48815 0.04306 0.0
C339 C 0.34057 0.47084 0.93173 0.0
C340 C 0.35572 0.51434 0.06325 0.0
C341 C 0.38287 0.51844 0.01901 0.0
C342 C 0.40289 0.49838 0.91181 0.0
C343 C 0.39547 0.47471 0.84883 0.0
C344 C 0.37566 0.49635 0.95382 0.0
C345 C 0.36025 0.4504 0.82626 0.0
C346 C 0.33313 0.4486 0.867 0.0
H347 H 0.8361 0.31483 0.01123 0.0
H348 H 0.84013 0.4057 0.12447 0.0
H349 H 0.89179 0.44485 0.05844 0.0
H350 H 0.93595 0.45265 0.96879 0.0
H351 H 0.93228 0.36035 0.86268 0.0
H352 H 0.88067 0.3223 0.92737 0.0
C353 C 0.84789 0.34323 0.0208 0.0
C354 C 0.83391 0.35742 0.07147 0.0
C355 C 0.8781 0.36525 0.98518 0.0
C356 C 0.85019 0.39423 0.08487 0.0
C357 C 0.87985 0.41653 0.04766 0.0
C358 C 0.92425 0.42422 0.9609 0.0
C359 C 0.93811 0.40944 0.91091 0.0
C360 C 0.89425 0.40228 0.99815 0.0
C361 C 0.92226 0.37251 0.90068 0.0
C362 C 0.89258 0.35067 0.93732 0.0
H363 H 0.82354 0.52409 0.86529 0.0
H364 H 0.8143 0.43259 0.96647 0.0
H365 H 0.85796 0.43262 0.88741 0.0
H366 H 0.90466 0.46353 0.80455 0.0
H367 H 0.9192 0.55827 0.71105 0.0
H368 H 0.86703 0.55175 0.77028 0.0
C369 C 0.83042 0.50362 0.8686 0.0
C370 C 0.81563 0.47835 0.92202 0.0
C371 C 0.85666 0.50458 0.82453 0.0
C372 C 0.82525 0.45233 0.9262 0.0
C373 C 0.85032 0.4524 0.88109 0.0
C374 C 0.89571 0.48216 0.79523 0.0
C375 C 0.91546 0.5112 0.75317 0.0
C376 C 0.867 0.47907 0.83213 0.0
C377 C 0.90405 0.53544 0.74217 0.0
C378 C 0.87453 0.5319 0.77696 0.0
H379 H 0.29105 0.83022 0.91464 0.0
H380 H 0.3713 0.80823 0.99385 0.0
H381 H 0.41077 0.84695 0.90532 0.0
H382 H 0.42522 0.89348 0.81976 0.0
H383 H 0.3461 0.91784 0.74487 0.0
H384 H 0.30306 0.87079 0.81534 0.0
C385 C 0.31702 0.8335 0.9119 0.0
C386 C 0.32845 0.81689 0.96202 0.0
C387 C 0.33976 0.85621 0.86149 0.0
C388 C 0.36192 0.82092 0.95661 0.0
C389 C 0.38455 0.84314 0.906 0.0
C390 C 0.39835 0.88802 0.81739 0.0
C391 C 0.38911 0.9097 0.77824 0.0
C392 C 0.37415 0.86186 0.86019 0.0
C393 C 0.35403 0.90176 0.77472 0.0
C394 C 0.32949 0.8751 0.81579 0.0
H395 H 0.52265 0.31988 0.00967 0.0
H396 H 0.50015 0.35906 0.21155 0.0
H397 H 0.50066 0.40717 0.14658 0.0
H398 H 0.49801 0.43223 0.02626 0.0
H399 H 0.51679 0.38905 0.82504 0.0
H400 H 0.52733 0.34877 0.89544 0.0
C401 C 0.5186 0.33936 0.04002 0.0
C402 C 0.51075 0.33542 0.11494 0.0
C403 C 0.51767 0.36607 1.00178 0.0
C404 C 0.50605 0.36126 0.15361 0.0
C405 C 0.50602 0.38865 0.11624 0.0
C406 C 0.50512 0.41446 0.99852 0.0
C407 C 0.50613 0.41316 0.92058 0.0
C408 C 0.51028 0.39044 0.03941 0.0
C409 C 0.51533 0.39006 0.88493 0.0
C410 C 0.52142 0.36704 0.92509 0.0
H411 H 0.20788 0.52764 1.00639 0.0
H412 H 0.15114 0.41621 0.03904 0.0
H413 H 0.10707 0.40727 0.94039 0.0
H414 H 0.08197 0.43234 0.85362 0.0
H415 H 0.1368 0.54453 0.83074 0.0
H416 H 0.18493 0.55194 0.91571 0.0
C417 C 0.18605 0.50127 0.99175 0.0
C418 C 0.18264 0.47266 0.03062 0.0
C419 C 0.16065 0.49652 0.93629 0.0
C420 C 0.15423 0.43872 0.01046 0.0
C421 C 0.12909 0.43361 0.95397 0.0
C422 C 0.10499 0.45821 0.86569 0.0
C423 C 0.1062 0.48785 0.83551 0.0
C424 C 0.1317 0.46244 0.91748 0.0
C425 C 0.13559 0.52139 0.85293 0.0
C426 C 0.16289 0.52563 0.90192 0.0
H427 H 0.71733 0.2092 0.86447 0.0
H428 H 0.71463 0.14448 0.04095 0.0
H429 H 0.66416 0.09341 0.97614 0.0
H430 H 0.61677 0.06897 0.87815 0.0
H431 H 0.61811 0.13254 0.70106 0.0
H432 H 0.67353 0.18219 0.75682 0.0
C433 C 0.70609 0.1838 0.8882 0.0
C434 C 0.71948 0.18091 0.9583 0.0
C435 C 0.67663 0.15447 0.85096 0.0
C436 C 0.70477 0.14765 0.98761 0.0
C437 C 0.67577 0.1184 0.9507 0.0
C438 C 0.62934 0.09362 0.85131 0.0
C439 C 0.61303 0.09744 0.7866 0.0
C440 C 0.66082 0.12184 0.88381 0.0
C441 C 0.63003 0.12912 0.75129 0.0
C442 C 0.6616 0.1575 0.78339 0.0
H443 H 0.5079 0.66757 0.94651 0.0
H444 H 0.58636 0.754 0.83353 0.0
H445 H 0.59716 0.71285 0.75871 0.0
H446 H 0.58165 0.65221 0.7208 0.0
H447 H 0.50315 0.5659 0.83456 0.0
H448 H 0.49578 0.60739 0.9154 0.0
C449 C 0.52722 0.67735 0.90519 0.0
C450 C 0.54583 0.71357 0.89426 0.0
C451 C 0.5336 0.6537 0.86338 0.0
C452 C 0.57147 0.7261 0.84215 0.0
C453 C 0.57773 0.70265 0.79967 0.0
C454 C 0.56333 0.64241 0.76403 0.0
C455 C 0.54265 0.60587 0.77079 0.0
C456 C 0.55868 0.66636 0.80935 0.0
C457 C 0.51924 0.5938 0.82761 0.0
C458 C 0.5148 0.61751 0.8736 0.0
H459 H 0.51891 0.19069 0.36622 0.0
H460 H 0.43076 0.19024 0.46291 0.0
H461 H 0.42082 0.13986 0.53317 0.0
H462 H 0.4371 0.09588 0.56646 0.0
H463 H 0.52395 0.09522 0.46525 0.0
H464 H 0.53401 0.14561 0.39642 0.0
C465 C 0.49786 0.17992 0.40359 0.0
C466 C 0.47595 0.19452 0.41041 0.0
C467 C 0.49167 0.15034 0.44193 0.0
C468 C 0.44819 0.17966 0.45742 0.0
C469 C 0.44237 0.15073 0.49715 0.0
C470 C 0.45796 0.10641 0.52868 0.0
C471 C 0.4798 0.09164 0.52152 0.0
C472 C 0.46378 0.13567 0.48938 0.0
C473 C 0.50675 0.10591 0.47228 0.0
C474 C 0.51268 0.13494 0.43304 0.0
H475 H 0.29268 0.46207 0.41965 0.0
H476 H 0.29451 0.38015 0.28083 0.0
H477 H 0.34084 0.38306 0.36454 0.0
H478 H 0.38866 0.41766 0.45907 0.0
H479 H 0.39184 0.50422 0.58889 0.0
H480 H 0.33505 0.4902 0.52845 0.0
C481 C 0.30249 0.44413 0.40872 0.0
C482 C 0.29063 0.42137 0.34307 0.0
C483 C 0.33027 0.44712 0.45527 0.0
C484 C 0.30351 0.39822 0.33021 0.0
C485 C 0.33009 0.39997 0.37796 0.0
C486 C 0.37618 0.43261 0.47595 0.0
C487 C 0.39424 0.46205 0.52758 0.0
C488 C 0.34486 0.42561 0.43806 0.0
C489 C 0.37818 0.48135 0.54952 0.0
C490 C 0.34602 0.4736 0.51411 0.0
H491 H 0.87003 0.36227 0.2653 0.0
H492 H 0.87608 0.27402 0.34398 0.0
H493 H 0.92525 0.31403 0.4328 0.0
H494 H 0.95877 0.37243 0.50137 0.0
H495 H 0.94932 0.45969 0.42545 0.0
H496 H 0.90968 0.42193 0.32133 0.0
C497 C 0.88294 0.35205 0.30038 0.0
C498 C 0.86981 0.31553 0.29862 0.0
C499 C 0.91015 0.37498 0.35245 0.0
C500 C 0.88626 0.30221 0.3442 0.0
C501 C 0.91401 0.32504 0.39541 0.0
C502 C 0.94861 0.38342 0.4613 0.0
C503 C 0.95661 0.41881 0.47232 0.0
C504 C 0.92504 0.36126 0.40225 0.0
C505 C 0.94352 0.43261 0.41907 0.0
C506 C 0.92065 0.41095 0.35947 0.0
H507 H 0.50874 0.858 0.1763 0.0
H508 H 0.60089 0.86322 0.28152 0.0
H509 H 0.61551 0.91873 0.35004 0.0
H510 H 0.60017 0.96342 0.38547 0.0
H511 H 0.50767 0.95827 0.28197 0.0
H512 H 0.49592 0.90575 0.20483 0.0
C513 C 0.53188 0.87121 0.21465 0.0
C514 C 0.55335 0.85627 0.2252 0.0
C515 C 0.54039 0.90335 0.25296 0.0
C516 C 0.58377 0.87407 0.27331 0.0
C517 C 0.59223 0.90585 0.31213 0.0
C518 C 0.5777 0.95119 0.34525 0.0
C519 C 0.5546 0.96454 0.34027 0.0
C520 C 0.57053 0.9205 0.30291 0.0
C521 C 0.52593 0.94862 0.28701 0.0
C522 C 0.51893 0.9183 0.24354 0.0
H523 H 0.72772 0.55387 0.31401 0.0
H524 H 0.65097 0.47217 0.15661 0.0
H525 H 0.60435 0.46349 0.238 0.0
H526 H 0.58514 0.48314 0.34813 0.0
H527 H 0.66252 0.56586 0.50348 0.0
H528 H 0.7092 0.56968 0.42892 0.0
C529 C 0.70082 0.53393 0.2975 0.0
C530 C 0.69284 0.514 0.2286 0.0
C531 C 0.67427 0.52933 0.34426 0.0
C532 C 0.65788 0.48794 0.20902 0.0
C533 C 0.63122 0.48308 0.25553 0.0
C534 C 0.61223 0.50165 0.36658 0.0
C535 C 0.62013 0.52448 0.43136 0.0
C536 C 0.63904 0.50418 0.32254 0.0
C537 C 0.6555 0.54814 0.45396 0.0
C538 C 0.68226 0.55044 0.41107 0.0
H539 H 0.15878 0.6525 0.14955 0.0
H540 H 0.23299 0.72131 0.32795 0.0
H541 H 0.18887 0.69302 0.41787 0.0
H542 H 0.12817 0.65123 0.44479 0.0
H543 H 0.05428 0.5822 0.26653 0.0
H544 H 0.0992 0.60869 0.17725 0.0
C545 C 0.16561 0.66092 0.20824 0.0
C546 C 0.19917 0.68915 0.23181 0.0
C547 C 0.13989 0.64512 0.25942 0.0
C548 C 0.20737 0.6997 0.30819 0.0
C549 C 0.18205 0.68375 0.35961 0.0
C550 C 0.12181 0.64232 0.38624 0.0
C551 C 0.0878 0.61528 0.362 0.0
C552 C 0.14798 0.65708 0.33557 0.0
C553 C 0.08019 0.60327 0.28634 0.0
C554 C 0.10591 0.61823 0.2354 0.0
loop_
_geom_bond_atom_site_label_1
_geom_bond_atom_site_label_2
_geom_bond_distance
_geom_bond_site_symmetry_2
_ccdc_geom_bond_type
Mg0 O7 2.141 . S
Mg0 O8 2.048 . S
Mg0 O9 2.048 . S
Mg0 O12 2.141 . S
C1 O2 1.313 . S
C1 O8 1.195 . S
O2 C1 1.313 . S
C3 O4 1.245 . S
C3 O12 1.289 . S
O4 C3 1.245 . S
C5 O6 1.245 . S
C5 O7 1.289 . S
O6 C5 1.245 . S
O7 Mg0 2.141 . S
O7 C5 1.289 . S
O8 Mg0 2.048 . S
O8 C1 1.195 . S
O9 Mg0 2.048 . S
O9 C10 1.195 . S
C10 O9 1.195 . S
C10 O11 1.313 . S
O11 C10 1.313 . S
O12 Mg0 2.141 . S
O12 C3 1.289 . S
Mg13 O20 2.141 . S
Mg13 O21 2.048 . S
Mg13 O22 2.048 . S
Mg13 O25 2.141 . S
C14 O15 1.313 . S
C14 O21 1.195 . S
O15 C14 1.313 . S
C16 O17 1.245 . S
C16 O25 1.289 . S
O17 C16 1.245 . S
C18 O19 1.245 . S
C18 O20 1.289 . S
O19 C18 1.245 . S
O20 Mg13 2.141 . S
O20 C18 1.289 . S
O21 Mg13 2.048 . S
O21 C14 1.195 . S
O22 Mg13 2.048 . S
O22 C23 1.195 . S
C23 O22 1.195 . S
C23 O24 1.313 . S
O24 C23 1.313 . S
O25 Mg13 2.141 . S
O25 C16 1.289 . S
Mg26 O33 2.141 1_554 S
Mg26 O34 2.048 . S
Mg26 O35 2.048 . S
Mg26 O38 2.141 1_554 S
C27 O28 1.313 . S
C27 O34 1.195 . S
O28 C27 1.313 . S
C29 O30 1.245 . S
C29 O38 1.289 . S
O30 C29 1.245 . S
C31 O32 1.245 . S
C31 O33 1.289 . S
O32 C31 1.245 . S
O33 Mg26 2.141 1_556 S
O33 C31 1.289 . S
O34 Mg26 2.048 . S
O34 C27 1.195 . S
O35 Mg26 2.048 . S
O35 C36 1.195 . S
C36 O35 1.195 . S
C36 O37 1.313 . S
O37 C36 1.313 . S
O38 Mg26 2.141 1_556 S
O38 C29 1.289 . S
Mg39 O46 2.141 . S
Mg39 O47 2.048 . S
Mg39 O48 2.048 . S
Mg39 O51 2.141 . S
C40 O41 1.313 . S
C40 O47 1.195 1_556 S
O41 C40 1.313 . S
C42 O43 1.245 . S
C42 O51 1.289 . S
O43 C42 1.245 . S
C44 O45 1.245 . S
C44 O46 1.289 . S
O45 C44 1.245 . S
O46 Mg39 2.141 . S
O46 C44 1.289 . S
O47 Mg39 2.048 . S
O47 C40 1.195 1_554 S
O48 Mg39 2.048 . S
O48 C49 1.195 1_554 S
C49 O48 1.195 1_556 S
C49 O50 1.313 . S
O50 C49 1.313 . S
O51 Mg39 2.141 . S
O51 C42 1.289 . S
Mg52 O59 2.141 . S
Mg52 O60 2.048 . S
Mg52 O61 2.048 . S
Mg52 O64 2.141 . S
C53 O54 1.313 . S
C53 O60 1.195 1_556 S
O54 C53 1.313 . S
C55 O56 1.245 . S
C55 O64 1.289 . S
O56 C55 1.245 . S
C57 O58 1.245 . S
C57 O59 1.289 . S
O58 C57 1.245 . S
O59 Mg52 2.141 . S
O59 C57 1.289 . S
O60 Mg52 2.048 . S
O60 C53 1.195 1_554 S
O61 Mg52 2.048 . S
O61 C62 1.200 . S
C62 O61 1.200 . S
C62 O63 1.313 1_554 S
O63 C62 1.313 1_556 S
O64 Mg52 2.141 . S
O64 C55 1.289 . S
Mg65 O72 2.141 . S
Mg65 O73 2.048 . S
Mg65 O74 2.048 . S
Mg65 O77 2.141 . S
C66 O67 1.313 . S
C66 O73 1.195 . S
O67 C66 1.313 . S
C68 O69 1.245 . S
C68 O77 1.289 . S
O69 C68 1.245 . S
C70 O71 1.245 . S
C70 O72 1.289 . S
O71 C70 1.245 . S
O72 Mg65 2.141 . S
O72 C70 1.289 . S
O73 Mg65 2.048 . S
O73 C66 1.195 . S
O74 Mg65 2.048 . S
O74 C75 1.195 . S
C75 O74 1.195 . S
C75 O76 1.313 . S
O76 C75 1.313 . S
O77 Mg65 2.141 . S
O77 C68 1.289 . S
C78 O90 1.241 . S
C78 O91 1.280 . S
C79 O92 1.277 . S
C79 O93 1.245 . S
C80 O104 1.247 . S
C80 O106 1.289 . S
Mg81 O82 1.926 . S
Mg81 O91 1.984 . S
Mg81 O93 1.988 1_655 S
Mg81 O94 2.061 . S
O82 Mg81 1.926 . S
O82 Mg83 1.986 1_655 S
O82 Mg84 1.917 1_655 S
Mg83 O82 1.986 1_455 S
Mg83 O90 2.042 1_455 S
Mg83 O92 2.041 . S
Mg83 O98 2.038 1_455 S
Mg83 O106 2.238 . S
Mg84 O82 1.917 1_455 S
Mg84 O85 1.917 . S
Mg84 O95 2.106 1_455 S
Mg84 O97 2.079 1_455 S
Mg84 O106 2.106 . S
Mg84 O107 2.079 . S
O85 Mg84 1.917 . S
O85 Mg86 1.926 . S
O85 Mg87 1.986 . S
Mg86 O85 1.926 . S
Mg86 O100 1.984 . S
Mg86 O103 1.988 1_455 S
Mg86 O104 2.061 . S
Mg87 O85 1.986 . S
Mg87 O95 2.238 1_455 S
Mg87 O99 2.042 . S
Mg87 O101 2.041 1_455 S
Mg87 O108 2.038 . S
C88 O94 1.247 . S
C88 O95 1.289 . S
C89 O107 1.245 . S
C89 O108 1.274 . S
O90 C78 1.241 . S
O90 Mg83 2.042 1_655 S
O91 C78 1.280 . S
O91 Mg81 1.984 . S
O92 C79 1.277 . S
O92 Mg83 2.041 . S
O93 C79 1.245 . S
O93 Mg81 1.988 1_455 S
O94 Mg81 2.061 . S
O94 C88 1.247 . S
O95 Mg84 2.106 1_655 S
O95 Mg87 2.238 1_655 S
O95 C88 1.289 . S
C96 O97 1.245 . S
C96 O98 1.274 . S
O97 Mg84 2.079 1_655 S
O97 C96 1.245 . S
O98 Mg83 2.038 1_655 S
O98 C96 1.274 . S
O99 Mg87 2.042 . S
O99 C102 1.241 . S
O100 Mg86 1.984 . S
O100 C102 1.280 . S
O101 Mg87 2.041 1_655 S
O101 C105 1.277 . S
C102 O99 1.241 . S
C102 O100 1.280 . S
O103 Mg86 1.988 1_655 S
O103 C105 1.245 . S
O104 C80 1.247 . S
O104 Mg86 2.061 . S
C105 O101 1.277 . S
C105 O103 1.245 . S
O106 C80 1.289 . S
O106 Mg83 2.238 . S
O106 Mg84 2.106 . S
O107 Mg84 2.079 . S
O107 C89 1.245 . S
O108 Mg87 2.038 . S
O108 C89 1.274 . S
C109 O121 1.241 . S
C109 O122 1.280 . S
C110 O123 1.277 . S
C110 O124 1.245 . S
C111 O135 1.247 . S
C111 O137 1.289 . S
Mg112 O113 1.926 . S
Mg112 O122 1.984 . S
Mg112 O124 1.988 1_545 S
Mg112 O125 2.061 . S
O113 Mg112 1.926 . S
O113 Mg114 1.986 . S
O113 Mg115 1.917 . S
Mg114 O113 1.986 . S
Mg114 O121 2.042 . S
Mg114 O123 2.041 1_545 S
Mg114 O129 2.038 . S
Mg114 O137 2.238 1_545 S
Mg115 O113 1.917 . S
Mg115 O116 1.917 1_545 S
Mg115 O126 2.106 . S
Mg115 O128 2.079 . S
Mg115 O137 2.106 1_545 S
Mg115 O138 2.079 1_545 S
O116 Mg115 1.917 1_565 S
O116 Mg117 1.926 . S
O116 Mg118 1.986 1_565 S
Mg117 O116 1.926 . S
Mg117 O131 1.984 . S
Mg117 O134 1.988 1_565 S
Mg117 O135 2.061 . S
Mg118 O116 1.986 1_545 S
Mg118 O126 2.238 . S
Mg118 O130 2.042 1_545 S
Mg118 O132 2.041 . S
Mg118 O139 2.038 1_545 S
C119 O125 1.247 . S
C119 O126 1.289 . S
C120 O138 1.245 . S
C120 O139 1.274 . S
O121 C109 1.241 . S
O121 Mg114 2.042 . S
O122 C109 1.280 . S
O122 Mg112 1.984 . S
O123 C110 1.277 . S
O123 Mg114 2.041 1_565 S
O124 C110 1.245 . S
O124 Mg112 1.988 1_565 S
O125 Mg112 2.061 . S
O125 C119 1.247 . S
O126 Mg115 2.106 . S
O126 Mg118 2.238 . S
O126 C119 1.289 . S
C127 O128 1.245 . S
C127 O129 1.274 . S
O128 Mg115 2.079 . S
O128 C127 1.245 . S
O129 Mg114 2.038 . S
O129 C127 1.274 . S
O130 Mg118 2.042 1_565 S
O130 C133 1.241 . S
O131 Mg117 1.984 . S
O131 C133 1.280 . S
O132 Mg118 2.041 . S
O132 C136 1.277 . S
C133 O130 1.241 . S
C133 O131 1.280 . S
O134 Mg117 1.988 1_545 S
O134 C136 1.245 . S
O135 C111 1.247 . S
O135 Mg117 2.061 . S
C136 O132 1.277 . S
C136 O134 1.245 . S
O137 C111 1.289 . S
O137 Mg114 2.238 1_565 S
O137 Mg115 2.106 1_565 S
O138 Mg115 2.079 1_565 S
O138 C120 1.245 . S
O139 Mg118 2.038 1_565 S
O139 C120 1.274 . S
C140 O152 1.241 . S
C140 O153 1.280 . S
C141 O154 1.277 . S
C141 O155 1.245 . S
C142 O166 1.247 . S
C142 O168 1.289 . S
Mg143 O144 1.926 . S
Mg143 O153 1.984 . S
Mg143 O155 1.988 . S
Mg143 O156 2.061 . S
O144 Mg143 1.926 . S
O144 Mg145 1.986 . S
O144 Mg146 1.917 . S
Mg145 O144 1.986 . S
Mg145 O152 2.042 . S
Mg145 O154 2.041 . S
Mg145 O160 2.038 . S
Mg145 O168 2.238 . S
Mg146 O144 1.917 . S
Mg146 O147 1.917 . S
Mg146 O157 2.106 . S
Mg146 O159 2.079 . S
Mg146 O168 2.106 . S
Mg146 O169 2.079 . S
O147 Mg146 1.917 . S
O147 Mg148 1.926 . S
O147 Mg149 1.986 . S
Mg148 O147 1.926 . S
Mg148 O162 1.984 . S
Mg148 O165 1.988 . S
Mg148 O166 2.061 . S
Mg149 O147 1.986 . S
Mg149 O157 2.238 . S
Mg149 O161 2.042 . S
Mg149 O163 2.041 . S
Mg149 O170 2.038 . S
C150 O156 1.247 . S
C150 O157 1.289 . S
C151 O169 1.245 . S
C151 O170 1.274 . S
O152 C140 1.241 . S
O152 Mg145 2.042 . S
O153 C140 1.280 . S
O153 Mg143 1.984 . S
O154 C141 1.277 . S
O154 Mg145 2.041 . S
O155 C141 1.245 . S
O155 Mg143 1.988 . S
O156 Mg143 2.061 . S
O156 C150 1.247 . S
O157 Mg146 2.106 . S
O157 Mg149 2.238 . S
O157 C150 1.289 . S
C158 O159 1.245 . S
C158 O160 1.274 . S
O159 Mg146 2.079 . S
O159 C158 1.245 . S
O160 Mg145 2.038 . S
O160 C158 1.274 . S
O161 Mg149 2.042 . S
O161 C164 1.241 . S
O162 Mg148 1.984 . S
O162 C164 1.280 . S
O163 Mg149 2.041 . S
O163 C167 1.277 . S
C164 O161 1.241 . S
C164 O162 1.280 . S
O165 Mg148 1.988 . S
O165 C167 1.245 . S
O166 C142 1.247 . S
O166 Mg148 2.061 . S
C167 O163 1.277 . S
C167 O165 1.245 . S
O168 C142 1.289 . S
O168 Mg145 2.238 . S
O168 Mg146 2.106 . S
O169 Mg146 2.079 . S
O169 C151 1.245 . S
O170 Mg149 2.038 . S
O170 C151 1.274 . S
H171 C177 0.930 . S
H172 C180 0.930 . S
H173 C181 0.930 . S
H174 C182 0.930 . S
H175 C185 0.930 . S
H176 C186 0.930 . S
C177 H171 0.930 . S
C177 C178 1.355 . S
C177 C179 1.415 . S
C178 C177 1.355 . S
C178 C180 1.419 . S
C179 C177 1.415 . S
C179 C184 1.425 . S
C179 C186 1.409 . S
C180 H172 0.930 . S
C180 C178 1.419 . S
C180 C181 1.362 . S
C181 H173 0.930 . S
C181 C180 1.362 . S
C181 C184 1.409 . S
C182 H174 0.930 . S
C182 C183 1.355 . S
C182 C184 1.415 . S
C183 C182 1.355 . S
C183 C185 1.419 . S
C184 C179 1.425 . S
C184 C181 1.409 . S
C184 C182 1.415 . S
C185 H175 0.930 . S
C185 C183 1.419 . S
C185 C186 1.362 . S
C186 H176 0.930 . S
C186 C179 1.409 . S
C186 C185 1.362 . S
H187 C193 0.930 . S
H188 C196 0.930 . S
H189 C197 0.930 . S
H190 C198 0.930 . S
H191 C201 0.930 . S
H192 C202 0.930 . S
C193 H187 0.930 . S
C193 C194 1.355 . S
C193 C195 1.415 . S
C194 C193 1.355 . S
C194 C196 1.419 . S
C195 C193 1.415 . S
C195 C200 1.425 . S
C195 C202 1.409 . S
C196 H188 0.930 . S
C196 C194 1.419 . S
C196 C197 1.362 . S
C197 H189 0.930 . S
C197 C196 1.362 . S
C197 C200 1.409 . S
C198 H190 0.930 . S
C198 C199 1.355 . S
C198 C200 1.415 . S
C199 C198 1.355 . S
C199 C201 1.419 . S
C200 C195 1.425 . S
C200 C197 1.409 . S
C200 C198 1.415 . S
C201 H191 0.930 . S
C201 C199 1.419 . S
C201 C202 1.362 . S
C202 H192 0.930 . S
C202 C195 1.409 . S
C202 C201 1.362 . S
H203 C209 0.930 . S
H204 C212 0.930 . S
H205 C213 0.930 . S
H206 C214 0.930 . S
H207 C217 0.930 . S
H208 C218 0.930 . S
C209 H203 0.930 . S
C209 C210 1.355 . S
C209 C211 1.415 . S
C210 C209 1.355 . S
C210 C212 1.419 . S
C211 C209 1.415 . S
C211 C216 1.425 . S
C211 C218 1.409 . S
C212 H204 0.930 . S
C212 C210 1.419 . S
C212 C213 1.362 . S
C213 H205 0.930 . S
C213 C212 1.362 . S
C213 C216 1.409 . S
C214 H206 0.930 . S
C214 C215 1.355 . S
C214 C216 1.415 . S
C215 C214 1.355 . S
C215 C217 1.419 . S
C216 C211 1.425 . S
C216 C213 1.409 . S
C216 C214 1.415 . S
C217 H207 0.930 . S
C217 C215 1.419 . S
C217 C218 1.362 . S
C218 H208 0.930 . S
C218 C211 1.409 . S
C218 C217 1.362 . S
H219 C225 0.930 . S
H220 C228 0.930 . S
H221 C229 0.930 . S
H222 C230 0.930 . S
H223 C233 0.930 . S
H224 C234 0.930 . S
C225 H219 0.930 . S
C225 C226 1.355 . S
C225 C227 1.415 . S
C226 C225 1.355 . S
C226 C228 1.419 . S
C227 C225 1.415 . S
C227 C232 1.425 . S
C227 C234 1.409 . S
C228 H220 0.930 . S
C228 C226 1.419 . S
C228 C229 1.362 . S
C229 H221 0.930 . S
C229 C228 1.362 . S
C229 C232 1.409 . S
C230 H222 0.930 . S
C230 C231 1.355 . S
C230 C232 1.415 . S
C231 C230 1.355 . S
C231 C233 1.419 . S
C232 C227 1.425 . S
C232 C229 1.409 . S
C232 C230 1.415 . S
C233 H223 0.930 . S
C233 C231 1.419 . S
C233 C234 1.362 . S
C234 H224 0.930 . S
C234 C227 1.409 . S
C234 C233 1.362 . S
H235 C241 0.930 . S
H236 C244 0.930 . S
H237 C245 0.930 . S
H238 C246 0.930 . S
H239 C249 0.930 . S
H240 C250 0.930 . S
C241 H235 0.930 . S
C241 C242 1.355 . S
C241 C243 1.415 . S
C242 C241 1.355 . S
C242 C244 1.419 . S
C243 C241 1.415 . S
C243 C248 1.425 . S
C243 C250 1.409 . S
C244 H236 0.930 . S
C244 C242 1.419 . S
C244 C245 1.362 . S
C245 H237 0.930 . S
C245 C244 1.362 . S
C245 C248 1.409 . S
C246 H238 0.930 . S
C246 C247 1.355 . S
C246 C248 1.415 . S
C247 C246 1.355 . S
C247 C249 1.419 . S
C248 C243 1.425 . S
C248 C245 1.409 . S
C248 C246 1.415 . S
C249 H239 0.930 . S
C249 C247 1.419 . S
C249 C250 1.362 . S
C250 H240 0.930 . S
C250 C243 1.409 . S
C250 C249 1.362 . S
H251 C257 0.930 . S
H252 C260 0.930 . S
H253 C261 0.930 . S
H254 C262 0.930 . S
H255 C265 0.930 . S
H256 C266 0.930 . S
C257 H251 0.930 . S
C257 C258 1.355 . S
C257 C259 1.415 . S
C258 C257 1.355 . S
C258 C260 1.419 . S
C259 C257 1.415 . S
C259 C264 1.425 . S
C259 C266 1.409 . S
C260 H252 0.930 . S
C260 C258 1.419 . S
C260 C261 1.362 . S
C261 H253 0.930 . S
C261 C260 1.362 . S
C261 C264 1.409 . S
C262 H254 0.930 . S
C262 C263 1.355 . S
C262 C264 1.415 . S
C263 C262 1.355 . S
C263 C265 1.419 . S
C264 C259 1.425 . S
C264 C261 1.409 . S
C264 C262 1.415 . S
C265 H255 0.930 . S
C265 C263 1.419 . S
C265 C266 1.362 . S
C266 H256 0.930 . S
C266 C259 1.409 . S
C266 C265 1.362 . S
H267 C273 0.930 . S
H268 C276 0.930 . S
H269 C277 0.930 . S
H270 C278 0.930 . S
H271 C281 0.930 . S
H272 C282 0.930 . S
C273 H267 0.930 . S
C273 C274 1.355 . S
C273 C275 1.415 . S
C274 C273 1.355 . S
C274 C276 1.419 . S
C275 C273 1.415 . S
C275 C280 1.425 . S
C275 C282 1.409 . S
C276 H268 0.930 . S
C276 C274 1.419 . S
C276 C277 1.362 . S
C277 H269 0.930 . S
C277 C276 1.362 . S
C277 C280 1.409 . S
C278 H270 0.930 . S
C278 C279 1.355 . S
C278 C280 1.415 . S
C279 C278 1.355 . S
C279 C281 1.419 . S
C280 C275 1.425 . S
C280 C277 1.409 . S
C280 C278 1.415 . S
C281 H271 0.930 . S
C281 C279 1.419 . S
C281 C282 1.362 . S
C282 H272 0.930 . S
C282 C275 1.409 . S
C282 C281 1.362 . S
H283 C289 0.930 . S
H284 C292 0.930 . S
H285 C293 0.930 . S
H286 C294 0.930 . S
H287 C297 0.930 . S
H288 C298 0.930 . S
C289 H283 0.930 . S
C289 C290 1.355 . S
C289 C291 1.415 . S
C290 C289 1.355 . S
C290 C292 1.419 . S
C291 C289 1.415 . S
C291 C296 1.425 . S
C291 C298 1.409 . S
C292 H284 0.930 . S
C292 C290 1.419 . S
C292 C293 1.362 . S
C293 H285 0.930 . S
C293 C292 1.362 . S
C293 C296 1.409 . S
C294 H286 0.930 . S
C294 C295 1.355 . S
C294 C296 1.415 . S
C295 C294 1.355 . S
C295 C297 1.419 . S
C296 C291 1.425 . S
C296 C293 1.409 . S
C296 C294 1.415 . S
C297 H287 0.930 . S
C297 C295 1.419 . S
C297 C298 1.362 . S
C298 H288 0.930 . S
C298 C291 1.409 . S
C298 C297 1.362 . S
H299 C305 0.930 . S
H300 C308 0.930 1_554 S
H301 C309 0.930 . S
H302 C310 0.930 . S
H303 C313 0.930 . S
H304 C314 0.930 . S
C305 H299 0.930 . S
C305 C306 1.355 . S
C305 C307 1.415 . S
C306 C305 1.355 . S
C306 C308 1.419 . S
C307 C305 1.415 . S
C307 C312 1.425 . S
C307 C314 1.409 . S
C308 H300 0.930 1_556 S
C308 C306 1.419 . S
C308 C309 1.362 . S
C309 H301 0.930 . S
C309 C308 1.362 . S
C309 C312 1.409 . S
C310 H302 0.930 . S
C310 C311 1.355 . S
C310 C312 1.415 . S
C311 C310 1.355 . S
C311 C313 1.419 . S
C312 C307 1.425 . S
C312 C309 1.409 . S
C312 C310 1.415 . S
C313 H303 0.930 . S
C313 C311 1.419 . S
C313 C314 1.362 . S
C314 H304 0.930 . S
C314 C307 1.409 . S
C314 C313 1.362 . S
H315 C321 0.930 . S
H316 C324 0.930 . S
H317 C325 0.930 . S
H318 C326 0.930 . S
H319 C329 0.930 . S
H320 C330 0.930 . S
C321 H315 0.930 . S
C321 C322 1.355 . S
C321 C323 1.415 1_554 S
C322 C321 1.355 . S
C322 C324 1.419 . S
C323 C321 1.415 1_556 S
C323 C328 1.425 . S
C323 C330 1.409 . S
C324 H316 0.930 . S
C324 C322 1.419 . S
C324 C325 1.362 1_554 S
C325 H317 0.930 . S
C325 C324 1.362 1_556 S
C325 C328 1.409 . S
C326 H318 0.930 . S
C326 C327 1.355 . S
C326 C328 1.415 . S
C327 C326 1.355 . S
C327 C329 1.419 . S
C328 C323 1.425 . S
C328 C325 1.409 . S
C328 C326 1.415 . S
C329 H319 0.930 . S
C329 C327 1.419 . S
C329 C330 1.362 . S
C330 H320 0.930 . S
C330 C323 1.409 . S
C330 C329 1.362 . S
H331 C337 0.930 1_554 S
H332 C340 0.930 . S
H333 C341 0.930 . S
H334 C342 0.930 . S
H335 C345 0.930 . S
H336 C346 0.930 . S
C337 H331 0.930 1_556 S
C337 C338 1.355 1_556 S
C337 C339 1.415 . S
C338 C337 1.355 1_554 S
C338 C340 1.419 1_554 S
C339 C337 1.415 . S
C339 C344 1.425 . S
C339 C346 1.409 . S
C340 H332 0.930 . S
C340 C338 1.419 1_556 S
C340 C341 1.362 . S
C341 H333 0.930 . S
C341 C340 1.362 . S
C341 C344 1.409 . S
C342 H334 0.930 . S
C342 C343 1.355 . S
C342 C344 1.415 . S
C343 C342 1.355 . S
C343 C345 1.419 . S
C344 C339 1.425 . S
C344 C341 1.409 . S
C344 C342 1.415 . S
C345 H335 0.930 . S
C345 C343 1.419 . S
C345 C346 1.362 . S
C346 H336 0.930 . S
C346 C339 1.409 . S
C346 C345 1.362 . S
H347 C353 0.930 . S
H348 C356 0.930 . S
H349 C357 0.930 . S
H350 C358 0.930 . S
H351 C361 0.930 . S
H352 C362 0.930 . S
C353 H347 0.930 . S
C353 C354 1.355 1_556 S
C353 C355 1.415 . S
C354 C353 1.355 1_554 S
C354 C356 1.419 . S
C355 C353 1.415 . S
C355 C360 1.425 . S
C355 C362 1.409 . S
C356 H348 0.930 . S
C356 C354 1.419 . S
C356 C357 1.362 . S
C357 H349 0.930 . S
C357 C356 1.362 . S
C357 C360 1.409 1_554 S
C358 H350 0.930 . S
C358 C359 1.355 . S
C358 C360 1.415 . S
C359 C358 1.355 . S
C359 C361 1.419 . S
C360 C355 1.425 . S
C360 C357 1.409 1_556 S
C360 C358 1.415 . S
C361 H351 0.930 . S
C361 C359 1.419 . S
C361 C362 1.362 . S
C362 H352 0.930 . S
C362 C355 1.409 . S
C362 C361 1.362 . S
H363 C369 0.930 . S
H364 C372 0.930 . S
H365 C373 0.930 . S
H366 C374 0.930 . S
H367 C377 0.930 . S
H368 C378 0.930 . S
C369 H363 0.930 . S
C369 C370 1.355 . S
C369 C371 1.415 . S
C370 C369 1.355 . S
C370 C372 1.419 . S
C371 C369 1.415 . S
C371 C376 1.425 . S
C371 C378 1.409 . S
C372 H364 0.930 . S
C372 C370 1.419 . S
C372 C373 1.362 . S
C373 H365 0.930 . S
C373 C372 1.362 . S
C373 C376 1.409 . S
C374 H366 0.930 . S
C374 C375 1.355 . S
C374 C376 1.415 . S
C375 C374 1.355 . S
C375 C377 1.419 . S
C376 C371 1.425 . S
C376 C373 1.409 . S
C376 C374 1.415 . S
C377 H367 0.930 . S
C377 C375 1.419 . S
C377 C378 1.362 . S
C378 H368 0.930 . S
C378 C371 1.409 . S
C378 C377 1.362 . S
H379 C385 0.930 . S
H380 C388 0.930 1_554 S
H381 C389 0.930 . S
H382 C390 0.930 . S
H383 C393 0.930 . S
H384 C394 0.930 . S
C385 H379 0.930 . S
C385 C386 1.355 . S
C385 C387 1.415 . S
C386 C385 1.355 . S
C386 C388 1.419 . S
C387 C385 1.415 . S
C387 C392 1.425 . S
C387 C394 1.409 . S
C388 H380 0.930 1_556 S
C388 C386 1.419 . S
C388 C389 1.362 . S
C389 H381 0.930 . S
C389 C388 1.362 . S
C389 C392 1.409 . S
C390 H382 0.930 . S
C390 C391 1.355 . S
C390 C392 1.415 . S
C391 C390 1.355 . S
C391 C393 1.419 . S
C392 C387 1.425 . S
C392 C389 1.409 . S
C392 C390 1.415 . S
C393 H383 0.930 . S
C393 C391 1.419 . S
C393 C394 1.362 . S
C394 H384 0.930 . S
C394 C387 1.409 . S
C394 C393 1.362 . S
H395 C401 0.930 1_556 S
H396 C404 0.930 . S
H397 C405 0.930 . S
H398 C406 0.930 . S
H399 C409 0.930 . S
H400 C410 0.930 . S
C401 H395 0.930 1_554 S
C401 C402 1.355 . S
C401 C403 1.415 1_554 S
C402 C401 1.355 . S
C402 C404 1.419 . S
C403 C401 1.415 1_556 S
C403 C408 1.425 . S
C403 C410 1.409 . S
C404 H396 0.930 . S
C404 C402 1.419 . S
C404 C405 1.362 . S
C405 H397 0.930 . S
C405 C404 1.362 . S
C405 C408 1.409 1_554 S
C406 H398 0.930 . S
C406 C407 1.355 . S
C406 C408 1.415 . S
C407 C406 1.355 . S
C407 C409 1.419 . S
C408 C403 1.425 . S
C408 C405 1.409 1_556 S
C408 C406 1.415 . S
C409 H399 0.930 . S
C409 C407 1.419 . S
C409 C410 1.362 . S
C410 H400 0.930 . S
C410 C403 1.409 . S
C410 C409 1.362 . S
H411 C417 0.930 . S
H412 C420 0.930 . S
H413 C421 0.930 . S
H414 C422 0.930 . S
H415 C425 0.930 . S
H416 C426 0.930 . S
C417 H411 0.930 . S
C417 C418 1.355 1_556 S
C417 C419 1.415 . S
C418 C417 1.355 1_554 S
C418 C420 1.419 . S
C419 C417 1.415 . S
C419 C424 1.425 . S
C419 C426 1.409 . S
C420 H412 0.930 . S
C420 C418 1.419 . S
C420 C421 1.362 . S
C421 H413 0.930 . S
C421 C420 1.362 . S
C421 C424 1.409 1_554 S
C422 H414 0.930 . S
C422 C423 1.355 . S
C422 C424 1.415 . S
C423 C422 1.355 . S
C423 C425 1.419 . S
C424 C419 1.425 . S
C424 C421 1.409 1_556 S
C424 C422 1.415 . S
C425 H415 0.930 . S
C425 C423 1.419 . S
C425 C426 1.362 . S
C426 H416 0.930 . S
C426 C419 1.409 . S
C426 C425 1.362 . S
H427 C433 0.930 . S
H428 C436 0.930 1_554 S
H429 C437 0.930 . S
H430 C438 0.930 . S
H431 C441 0.930 . S
H432 C442 0.930 . S
C433 H427 0.930 . S
C433 C434 1.355 . S
C433 C435 1.415 . S
C434 C433 1.355 . S
C434 C436 1.419 . S
C435 C433 1.415 . S
C435 C440 1.425 . S
C435 C442 1.409 . S
C436 H428 0.930 1_556 S
C436 C434 1.419 . S
C436 C437 1.362 . S
C437 H429 0.930 . S
C437 C436 1.362 . S
C437 C440 1.409 . S
C438 H430 0.930 . S
C438 C439 1.355 . S
C438 C440 1.415 . S
C439 C438 1.355 . S
C439 C441 1.419 . S
C440 C435 1.425 . S
C440 C437 1.409 . S
C440 C438 1.415 . S
C441 H431 0.930 . S
C441 C439 1.419 . S
C441 C442 1.362 . S
C442 H432 0.930 . S
C442 C435 1.409 . S
C442 C441 1.362 . S
H443 C449 0.930 . S
H444 C452 0.930 . S
H445 C453 0.930 . S
H446 C454 0.930 . S
H447 C457 0.930 . S
H448 C458 0.930 . S
C449 H443 0.930 . S
C449 C450 1.355 . S
C449 C451 1.415 . S
C450 C449 1.355 . S
C450 C452 1.419 . S
C451 C449 1.415 . S
C451 C456 1.425 . S
C451 C458 1.409 . S
C452 H444 0.930 . S
C452 C450 1.419 . S
C452 C453 1.362 . S
C453 H445 0.930 . S
C453 C452 1.362 . S
C453 C456 1.409 . S
C454 H446 0.930 . S
C454 C455 1.355 . S
C454 C456 1.415 . S
C455 C454 1.355 . S
C455 C457 1.419 . S
C456 C451 1.425 . S
C456 C453 1.409 . S
C456 C454 1.415 . S
C457 H447 0.930 . S
C457 C455 1.419 . S
C457 C458 1.362 . S
C458 H448 0.930 . S
C458 C451 1.409 . S
C458 C457 1.362 . S
H459 C465 0.930 . S
H460 C468 0.930 . S
H461 C469 0.930 . S
H462 C470 0.930 . S
H463 C473 0.930 . S
H464 C474 0.930 . S
C465 H459 0.930 . S
C465 C466 1.355 . S
C465 C467 1.415 . S
C466 C465 1.355 . S
C466 C468 1.419 . S
C467 C465 1.415 . S
C467 C472 1.425 . S
C467 C474 1.409 . S
C468 H460 0.930 . S
C468 C466 1.419 . S
C468 C469 1.362 . S
C469 H461 0.930 . S
C469 C468 1.362 . S
C469 C472 1.409 . S
C470 H462 0.930 . S
C470 C471 1.355 . S
C470 C472 1.415 . S
C471 C470 1.355 . S
C471 C473 1.419 . S
C472 C467 1.425 . S
C472 C469 1.409 . S
C472 C470 1.415 . S
C473 H463 0.930 . S
C473 C471 1.419 . S
C473 C474 1.362 . S
C474 H464 0.930 . S
C474 C467 1.409 . S
C474 C473 1.362 . S
H475 C481 0.930 . S
H476 C484 0.930 . S
H477 C485 0.930 . S
H478 C486 0.930 . S
H479 C489 0.930 . S
H480 C490 0.930 . S
C481 H475 0.930 . S
C481 C482 1.355 . S
C481 C483 1.415 . S
C482 C481 1.355 . S
C482 C484 1.419 . S
C483 C481 1.415 . S
C483 C488 1.425 . S
C483 C490 1.409 . S
C484 H476 0.930 . S
C484 C482 1.419 . S
C484 C485 1.362 . S
C485 H477 0.930 . S
C485 C484 1.362 . S
C485 C488 1.409 . S
C486 H478 0.930 . S
C486 C487 1.355 . S
C486 C488 1.415 . S
C487 C486 1.355 . S
C487 C489 1.419 . S
C488 C483 1.425 . S
C488 C485 1.409 . S
C488 C486 1.415 . S
C489 H479 0.930 . S
C489 C487 1.419 . S
C489 C490 1.362 . S
C490 H480 0.930 . S
C490 C483 1.409 . S
C490 C489 1.362 . S
H491 C497 0.930 . S
H492 C500 0.930 . S
H493 C501 0.930 . S
H494 C502 0.930 . S
H495 C505 0.930 . S
H496 C506 0.930 . S
C497 H491 0.930 . S
C497 C498 1.355 . S
C497 C499 1.415 . S
C498 C497 1.355 . S
C498 C500 1.419 . S
C499 C497 1.415 . S
C499 C504 1.425 . S
C499 C506 1.409 . S
C500 H492 0.930 . S
C500 C498 1.419 . S
C500 C501 1.362 . S
C501 H493 0.930 . S
C501 C500 1.362 . S
C501 C504 1.409 . S
C502 H494 0.930 . S
C502 C503 1.355 . S
C502 C504 1.415 . S
C503 C502 1.355 . S
C503 C505 1.419 . S
C504 C499 1.425 . S
C504 C501 1.409 . S
C504 C502 1.415 . S
C505 H495 0.930 . S
C505 C503 1.419 . S
C505 C506 1.362 . S
C506 H496 0.930 . S
C506 C499 1.409 . S
C506 C505 1.362 . S
H507 C513 0.930 . S
H508 C516 0.930 . S
H509 C517 0.930 . S
H510 C518 0.930 . S
H511 C521 0.930 . S
H512 C522 0.930 . S
C513 H507 0.930 . S
C513 C514 1.355 . S
C513 C515 1.415 . S
C514 C513 1.355 . S
C514 C516 1.419 . S
C515 C513 1.415 . S
C515 C520 1.425 . S
C515 C522 1.409 . S
C516 H508 0.930 . S
C516 C514 1.419 . S
C516 C517 1.362 . S
C517 H509 0.930 . S
C517 C516 1.362 . S
C517 C520 1.409 . S
C518 H510 0.930 . S
C518 C519 1.355 . S
C518 C520 1.415 . S
C519 C518 1.355 . S
C519 C521 1.419 . S
C520 C515 1.425 . S
C520 C517 1.409 . S
C520 C518 1.415 . S
C521 H511 0.930 . S
C521 C519 1.419 . S
C521 C522 1.362 . S
C522 H512 0.930 . S
C522 C515 1.409 . S
C522 C521 1.362 . S
H523 C529 0.930 . S
H524 C532 0.930 . S
H525 C533 0.930 . S
H526 C534 0.930 . S
H527 C537 0.930 . S
H528 C538 0.930 . S
C529 H523 0.930 . S
C529 C530 1.355 . S
C529 C531 1.415 . S
C530 C529 1.355 . S
C530 C532 1.419 . S
C531 C529 1.415 . S
C531 C536 1.425 . S
C531 C538 1.409 . S
C532 H524 0.930 . S
C532 C530 1.419 . S
C532 C533 1.362 . S
C533 H525 0.930 . S
C533 C532 1.362 . S
C533 C536 1.409 . S
C534 H526 0.930 . S
C534 C535 1.355 . S
C534 C536 1.415 . S
C535 C534 1.355 . S
C535 C537 1.419 . S
C536 C531 1.425 . S
C536 C533 1.409 . S
C536 C534 1.415 . S
C537 H527 0.930 . S
C537 C535 1.419 . S
C537 C538 1.362 . S
C538 H528 0.930 . S
C538 C531 1.409 . S
C538 C537 1.362 . S
H539 C545 0.930 . S
H540 C548 0.930 . S
H541 C549 0.930 . S
H542 C550 0.930 . S
H543 C553 0.930 . S
H544 C554 0.930 . S
C545 H539 0.930 . S
C545 C546 1.355 . S
C545 C547 1.415 . S
C546 C545 1.355 . S
C546 C548 1.419 . S
C547 C545 1.415 . S
C547 C552 1.425 . S
C547 C554 1.409 . S
C548 H540 0.930 . S
C548 C546 1.419 . S
C548 C549 1.362 . S
C549 H541 0.930 . S
C549 C548 1.362 . S
C549 C552 1.409 . S
C550 H542 0.930 . S
C550 C551 1.355 . S
C550 C552 1.415 . S
C551 C550 1.355 . S
C551 C553 1.419 . S
C552 C547 1.425 . S
C552 C549 1.409 . S
C552 C550 1.415 . S
C553 H543 0.930 . S
C553 C551 1.419 . S
C553 C554 1.362 . S
C554 H544 0.930 . S
C554 C547 1.409 . S
C554 C553 1.362 . S
C178 C5 1.766 . S
C183 C89 1.631 . S
C194 C16 1.439 . S
C199 C136 1.433 . S
C215 C140 1.686 . S
C210 C36 1.738 . S
C231 C105 1.413 . S
C226 C42 1.408 . S
C242 C55 1.690 . S
C247 C120 1.628 . S
C263 C142 1.095 . S
C258 C66 1.093 . S
C279 C111 1.305 . S
C274 C31 1.408 . S
C290 C40 1.414 . S
C295 C151 1.343 . S
C311 C80 1.381 . S
C306 C53 1.404 . S
C322 C68 1.351 . S
C327 C109 1.336 . S
C338 C10 1.841 . S
C343 C167 1.754 . S
C359 C78 1.420 . S
C354 C14 1.430 . S
C375 C96 1.708 . S
C370 C49 1.781 . S
C391 C110 1.510 . S
C386 C62 1.513 1_556 S
C407 C164 1.630 . S
C402 C70 1.651 . S
C423 C79 1.451 . S
C418 C1 1.503 . S
C439 C127 1.718 . S
C434 C23 1.744 1_556 S
C450 C29 1.031 . S
C455 C150 0.989 . S
C471 C119 1.460 . S
C466 C75 1.485 . S
C487 C158 1.315 . S
C482 C3 1.366 . S
C503 C88 1.270 . S
C498 C18 1.291 . S
C519 C133 1.398 . S
C514 C27 1.406 . S
C530 C44 1.732 . S
C535 C141 1.692 . S
C546 C57 1.407 . S
C551 C102 1.391 . S
