# Generated by pormake.
# Topology ssa, (4,4)-cn, num edge types: 1
# Building blocks:
#     Node 0, Type 0, BuildingBlock: NAWXER_clean_sbu_0, # of connection points: 4
#     Node 1, Type 0, BuildingBlock: NAWXER_clean_sbu_0, # of connection points: 4
#     Node 2, Type 0, BuildingBlock: NAWXER_clean_sbu_0, # of connection points: 4
#     Node 3, Type 0, BuildingBlock: NAWXER_clean_sbu_0, # of connection points: 4
#     Node 4, Type 0, BuildingBlock: NAWXER_clean_sbu_0, # of connection points: 4
#     Node 5, Type 0, BuildingBlock: NAWXER_clean_sbu_0, # of connection points: 4
#     Node 6, Type 1, BuildingBlock: ESEHIV_clean_sbu_0, # of connection points: 4
#     Node 7, Type 1, BuildingBlock: ESEHIV_clean_sbu_0, # of connection points: 4
#     Node 8, Type 1, BuildingBlock: ESEHIV_clean_sbu_0, # of connection points: 4
#     Node 9, Type 1, BuildingBlock: ESEHIV_clean_sbu_0, # of connection points: 4
#     Node 10, Type 1, BuildingBlock: ESEHIV_clean_sbu_0, # of connection points: 4
#     Node 11, Type 1, BuildingBlock: ESEHIV_clean_sbu_0, # of connection points: 4
#     Edge 12, Type (0, 1), BuildingBlock: TEMPAE_clean_linker_10, # of connection points: 2
#     Edge 13, Type (0, 1), BuildingBlock: TEMPAE_clean_linker_10, # of connection points: 2
#     Edge 14, Type (0, 1), BuildingBlock: TEMPAE_clean_linker_10, # of connection points: 2
#     Edge 15, Type (0, 1), BuildingBlock: TEMPAE_clean_linker_10, # of connection points: 2
#     Edge 16, Type (0, 1), BuildingBlock: TEMPAE_clean_linker_10, # of connection points: 2
#     Edge 17, Type (0, 1), BuildingBlock: TEMPAE_clean_linker_10, # of connection points: 2
#     Edge 18, Type (0, 1), BuildingBlock: TEMPAE_clean_linker_10, # of connection points: 2
#     Edge 19, Type (0, 1), BuildingBlock: TEMPAE_clean_linker_10, # of connection points: 2
#     Edge 20, Type (0, 1), BuildingBlock: TEMPAE_clean_linker_10, # of connection points: 2
#     Edge 21, Type (0, 1), BuildingBlock: TEMPAE_clean_linker_10, # of connection points: 2
#     Edge 22, Type (0, 1), BuildingBlock: TEMPAE_clean_linker_10, # of connection points: 2
#     Edge 23, Type (0, 1), BuildingBlock: TEMPAE_clean_linker_10, # of connection points: 2
#     Edge 24, Type (0, 1), BuildingBlock: TEMPAE_clean_linker_10, # of connection points: 2
#     Edge 25, Type (0, 1), BuildingBlock: TEMPAE_clean_linker_10, # of connection points: 2
#     Edge 26, Type (0, 1), BuildingBlock: TEMPAE_clean_linker_10, # of connection points: 2
#     Edge 27, Type (0, 1), BuildingBlock: TEMPAE_clean_linker_10, # of connection points: 2
#     Edge 28, Type (0, 1), BuildingBlock: TEMPAE_clean_linker_10, # of connection points: 2
#     Edge 29, Type (0, 1), BuildingBlock: TEMPAE_clean_linker_10, # of connection points: 2
#     Edge 30, Type (0, 1), BuildingBlock: TEMPAE_clean_linker_10, # of connection points: 2
#     Edge 31, Type (0, 1), BuildingBlock: TEMPAE_clean_linker_10, # of connection points: 2
#     Edge 32, Type (0, 1), BuildingBlock: TEMPAE_clean_linker_10, # of connection points: 2
#     Edge 33, Type (0, 1), BuildingBlock: TEMPAE_clean_linker_10, # of connection points: 2
#     Edge 34, Type (0, 1), BuildingBlock: TEMPAE_clean_linker_10, # of connection points: 2
#     Edge 35, Type (0, 1), BuildingBlock: TEMPAE_clean_linker_10, # of connection points: 2
# Relax obj value: 0.033
# Max RMSD: 0.097
# Mean RMSD: 0.065
data_MOF--net-ssa--node1-NAWXER_clean_sbu_0--node2-ESEHIV_clean_sbu_0--edge1-TEMPAE_clean_linker_10
_symmetry_space_group_name_H-M    P1
_symmetry_Int_Tables_number       1
_symmetry_cell_setting            triclinic
loop_
_symmetry_equiv_pos_as_xyz
'x, y, z'
_cell_length_a     48.782341
_cell_length_b     48.805123
_cell_length_c     35.617079
_cell_angle_alpha  90.106454
_cell_angle_beta   89.95369
_cell_angle_gamma 120.01753
loop_
_atom_site_label
_atom_site_type_symbol
_atom_site_fract_x
_atom_site_fract_y
_atom_site_fract_z
_atom_type_partial_charge
C0 C 0.01173 0.55314 0.0869 0.0
C1 C 0.96763 0.44528 0.04066 0.0
O2 O 0.98783 0.52841 0.09966 0.0
Zn3 Zn 0.98981 0.49875 0.06523 0.0
O4 O 0.0268 0.55095 0.05861 0.0
Zn5 Zn 0.02454 0.51534 0.02157 0.0
O6 O 0.01399 0.52761 0.97281 0.0
O7 O 0.97475 0.50949 0.01338 0.0
O8 O 0.99163 0.46539 0.02161 0.0
O9 O 0.95881 0.4544 0.06936 0.0
O10 O 0.03372 0.50097 0.08077 0.0
O11 O 0.06552 0.51769 0.03187 0.0
C12 C 0.9855 0.51995 0.98049 0.0
C13 C 0.06063 0.50863 0.06599 0.0
C14 C 0.52406 0.05553 0.53677 0.0
C15 C 0.53584 0.97714 0.4577 0.0
O16 O 0.51415 0.02839 0.55211 0.0
Zn17 Zn 0.51116 0.98343 0.53963 0.0
O18 O 0.5356 0.06018 0.5037 0.0
Zn19 Zn 0.53077 0.01791 0.49585 0.0
O20 O 0.48038 0.98834 0.49495 0.0
O21 O 0.466 0.95446 0.54198 0.0
O22 O 0.54366 1.00543 0.449 0.0
O23 O 0.52401 0.9669 0.49031 0.0
O24 O 0.53857 0.98204 0.5782 0.0
O25 O 0.56369 0.02024 0.53687 0.0
C26 C 0.45862 0.96525 0.51364 0.0
C27 C 0.56402 1.00596 0.56689 0.0
C28 C 0.50236 0.45877 0.95411 0.0
C29 C 0.51158 0.54799 0.03319 0.0
O30 O 0.49388 0.47873 0.94525 0.0
Zn31 Zn 0.50498 0.50348 0.99266 0.0
O32 O 0.51311 0.45998 0.98728 0.0
Zn33 Zn 0.52325 0.48807 0.03738 0.0
O34 O 0.49456 0.45916 0.07479 0.0
O35 O 0.4705 0.47243 0.03226 0.0
O36 O 0.52037 0.53008 0.04914 0.0
O37 O 0.50101 0.54159 0.99965 0.0
O38 O 0.55544 0.52439 0.9945 0.0
O39 O 0.56826 0.50416 0.04232 0.0
C40 C 0.46938 0.45758 0.0624 0.0
C41 C 0.57652 0.52286 0.01441 0.0
C42 C 0.04162 0.54833 0.48711 0.0
C43 C 0.96561 0.45958 0.56965 0.0
O44 O 0.05257 0.54673 0.51924 0.0
Zn45 Zn 0.03772 0.51836 0.56927 0.0
O46 O 0.01297 0.5281 0.47917 0.0
Zn47 Zn 1.00226 0.50319 0.52638 0.0
O48 O 1.00237 0.53583 0.56636 0.0
O49 O 0.04134 0.549 0.60672 0.0
O50 O 0.96036 0.46566 0.5365 0.0
O51 O 0.99315 0.47714 0.58401 0.0
O52 O 0.0673 0.50289 0.56956 0.0
O53 O 0.03321 0.48403 0.52261 0.0
C54 C 0.01798 0.55149 0.59531 0.0
C55 C 0.05707 0.48593 0.54011 0.0
C56 C 0.51067 0.9664 0.99774 0.0
C57 C 0.44333 1.0045 0.94702 0.0
O58 O 0.51093 0.98842 0.01765 0.0
Zn59 Zn 0.48884 0.01667 0.01818 0.0
O60 O 0.49294 0.95608 0.96898 0.0
Zn61 Zn 0.47534 0.98379 0.97308 0.0
O62 O 0.51594 0.03013 0.96167 0.0
O63 O 0.52621 0.05914 0.01294 0.0
O64 O 0.44661 0.98182 0.93476 0.0
O65 O 0.4573 0.01869 0.97749 0.0
O66 O 0.46355 1.00271 0.06478 0.0
O67 O 0.4454 0.96521 0.02199 0.0
C68 C 0.53283 0.05641 0.97902 0.0
C69 C 0.44347 0.97453 0.0551 0.0
C70 C 0.58767 0.55038 0.55936 0.0
C71 C 0.49605 0.53759 0.48223 0.0
O72 O 0.56722 0.55806 0.56889 0.0
Zn73 Zn 0.54143 0.54554 0.52232 0.0
O74 O 0.58591 0.53899 0.52639 0.0
Zn75 Zn 0.55638 0.5267 0.4773 0.0
O76 O 0.58476 0.55493 0.43908 0.0
O77 O 0.57157 0.57921 0.4816 0.0
O78 O 0.51412 0.52901 0.46619 0.0
O79 O 0.50261 0.5485 0.51564 0.0
O80 O 0.52191 0.49552 0.52246 0.0
O81 O 0.54016 0.48146 0.47379 0.0
C82 C 0.58618 0.58013 0.45128 0.0
C83 C 0.52288 0.47389 0.50302 0.0
Cu84 Cu 0.25019 0.46812 0.2825 0.0
N85 N 0.25862 0.44127 0.25317 0.0
N86 N 0.28646 0.42521 0.21877 0.0
C87 C 0.28739 0.4486 0.24015 0.0
C88 C 0.25571 0.4022 0.21855 0.0
C89 C 0.23865 0.41214 0.23976 0.0
O90 O 0.2894 0.49456 0.3118 0.0
C91 C 0.20695 0.46976 0.23282 0.0
O92 O 0.19354 0.43958 0.24115 0.0
H93 H 0.30856 0.47078 0.24646 0.0
H94 H 0.2134 0.3991 0.24458 0.0
N95 N 0.21851 0.44494 0.31774 0.0
N96 N 0.18452 0.43531 0.36481 0.0
C97 C 0.20585 0.45726 0.34118 0.0
C98 C 0.20483 0.4141 0.3268 0.0
C99 C 0.18383 0.40807 0.3558 0.0
C100 C 0.29662 0.4785 0.33403 0.0
O101 O 0.27785 0.44765 0.33469 0.0
H102 H 0.21284 0.48208 0.34138 0.0
H103 H 0.21014 0.39727 0.31378 0.0
O104 O 0.23342 0.48874 0.24862 0.0
H105 H 0.24593 0.38006 0.20336 0.0
H106 H 0.16912 0.38537 0.36905 0.0
Cu107 Cu 0.77288 0.23154 0.78315 0.0
N108 N 0.76735 0.19493 0.75984 0.0
N109 N 0.74187 0.14758 0.73179 0.0
C110 C 0.73951 0.17179 0.74671 0.0
C111 C 0.77271 0.15613 0.73553 0.0
C112 C 0.78837 0.18538 0.75284 0.0
O113 O 0.7299 0.21829 0.80197 0.0
C114 C 0.8023 0.29486 0.7476 0.0
O115 O 0.79529 0.3053 0.77805 0.0
H116 H 0.71811 0.17325 0.7474 0.0
H117 H 0.81326 0.1987 0.75989 0.0
N118 N 0.80004 0.23997 0.82398 0.0
N119 N 0.83202 0.26405 0.87288 0.0
C120 C 0.81584 0.267 0.84381 0.0
C121 C 0.80637 0.21919 0.84101 0.0
C122 C 0.82616 0.23394 0.87097 0.0
C123 C 0.72319 0.2227 0.83534 0.0
O124 O 0.74584 0.24347 0.85702 0.0
H125 H 0.81448 0.28796 0.83776 0.0
H126 H 0.79684 0.19479 0.8326 0.0
O127 O 0.79316 0.2654 0.74487 0.0
H128 H 0.78332 0.14234 0.72653 0.0
H129 H 0.83543 0.22315 0.88976 0.0
Cu130 Cu 0.57834 0.7947 0.22984 0.0
N131 N 0.59749 0.82573 0.19304 0.0
N132 N 0.60002 0.85845 0.1477 0.0
C133 C 0.58184 0.83743 0.17416 0.0
C134 C 0.62836 0.85993 0.14997 0.0
C135 C 0.62673 0.83966 0.17801 0.0
O136 O 0.55864 0.81121 0.26541 0.0
C137 C 0.56763 0.74765 0.17945 0.0
O138 O 0.59824 0.7674 0.17712 0.0
H139 H 0.55717 0.82978 0.1792 0.0
H140 H 0.6453 0.83492 0.18609 0.0
N141 N 0.60778 0.78824 0.25614 0.0
N142 N 0.62595 0.76106 0.28794 0.0
C143 C 0.60041 0.76069 0.27268 0.0
C144 C 0.63912 0.80709 0.2613 0.0
C145 C 0.6504 0.7904 0.28092 0.0
C146 C 0.57824 0.83725 0.28159 0.0
O147 O 0.60846 0.8495 0.27382 0.0
H148 H 0.5765 0.74084 0.27348 0.0
H149 H 0.65288 0.83118 0.25142 0.0
O150 O 0.55168 0.75449 0.20242 0.0
H151 H 0.6488 0.87455 0.13269 0.0
H152 H 0.6748 0.79919 0.28886 0.0
Cu153 Cu 0.81293 0.58752 0.78273 0.0
N154 N 0.85046 0.61555 0.75799 0.0
N155 N 0.8983 0.63178 0.73338 0.0
C156 C 0.87143 0.60714 0.7466 0.0
C157 C 0.89396 0.65694 0.73566 0.0
C158 C 0.86439 0.64687 0.75125 0.0
O159 O 0.82415 0.56104 0.81361 0.0
C160 C 0.77158 0.58868 0.73014 0.0
O161 O 0.79088 0.61885 0.73695 0.0
H162 H 0.86714 0.58327 0.74793 0.0
H163 H 0.85418 0.66149 0.75799 0.0
N164 N 0.80229 0.60856 0.8182 0.0
N165 N 0.7731 0.61302 0.86348 0.0
C166 C 0.77415 0.59482 0.83562 0.0
C167 C 0.82001 0.63652 0.83557 0.0
C168 C 0.80196 0.6394 0.86358 0.0
C169 C 0.83244 0.54095 0.8043 0.0
O170 O 0.82701 0.52953 0.76996 0.0
H171 H 0.75543 0.57108 0.82914 0.0
H172 H 0.84458 0.65304 0.82937 0.0
O173 O 0.77691 0.56857 0.7469 0.0
H174 H 0.91114 0.68089 0.7276 0.0
H175 H 0.8097 0.65906 0.88288 0.0
Cu176 Cu 0.21859 0.79013 0.28095 0.0
N177 N 0.18246 0.78283 0.25476 0.0
N178 N 0.13598 0.75246 0.22657 0.0
C179 C 0.16176 0.75381 0.24211 0.0
C180 C 0.14086 0.7822 0.22881 0.0
C181 C 0.16962 0.80095 0.24656 0.0
O182 O 0.20424 0.7497 0.30809 0.0
C183 C 0.26099 0.83222 0.22895 0.0
O184 O 0.24304 0.84447 0.23675 0.0
H185 H 0.16571 0.73394 0.2444 0.0
H186 H 0.18007 0.82578 0.25338 0.0
N187 N 0.23067 0.82139 0.31756 0.0
N188 N 0.26097 0.85419 0.36292 0.0
C189 C 0.2573 0.83194 0.33772 0.0
C190 C 0.21666 0.83733 0.33039 0.0
C191 C 0.23536 0.85763 0.35852 0.0
C192 C 0.18156 0.74336 0.33106 0.0
O193 O 0.17229 0.76428 0.33475 0.0
H194 H 0.2734 0.82292 0.33422 0.0
H195 H 0.1944 0.83427 0.32034 0.0
O196 O 0.25463 0.80628 0.24521 0.0
H197 H 0.12463 0.78968 0.21904 0.0
H198 H 0.23063 0.87387 0.37412 0.0
Cu199 Cu 0.46284 0.2353 0.73014 0.0
N200 N 0.44222 0.24575 0.69392 0.0
N201 N 0.43939 0.27329 0.64552 0.0
C202 C 0.4551 0.27405 0.67703 0.0
C203 C 0.41511 0.24323 0.64294 0.0
C204 C 0.41708 0.22622 0.67275 0.0
O205 O 0.47886 0.2691 0.76885 0.0
C206 C 0.5085 0.2142 0.70815 0.0
O207 O 0.51692 0.21491 0.74332 0.0
H208 H 0.4766 0.29439 0.68674 0.0
H209 H 0.40265 0.20098 0.67712 0.0
N210 N 0.43333 0.19822 0.75415 0.0
N211 N 0.41405 0.15345 0.78725 0.0
C212 C 0.43886 0.17573 0.76759 0.0
C213 C 0.40379 0.18982 0.76526 0.0
C214 C 0.39177 0.16212 0.78563 0.0
C215 C 0.50003 0.29833 0.76675 0.0
O216 O 0.51849 0.3085 0.7371 0.0
H217 H 0.46094 0.17605 0.76366 0.0
H218 H 0.3923 0.20351 0.76009 0.0
O219 O 0.49017 0.22485 0.69957 0.0
H220 H 0.39843 0.23367 0.61994 0.0
H221 H 0.36903 0.1502 0.79961 0.0
C222 C 0.08021 0.49968 0.12768 0.0
C223 C 0.08552 0.50708 0.08924 0.0
C224 C 0.10262 0.4972 0.15021 0.0
C225 C 0.13134 0.50206 0.13422 0.0
C226 C 0.13726 0.5103 0.09564 0.0
C227 C 0.1144 0.51276 0.0737 0.0
C228 C 0.09504 0.48838 0.19105 0.0
C229 C 0.16739 0.51561 0.07724 0.0
C230 C 0.1964 0.51117 0.20304 0.0
C231 C 0.19041 0.47991 0.20541 0.0
C232 C 0.17808 0.51908 0.17925 0.0
C233 C 0.15335 0.4953 0.15705 0.0
C234 C 0.14816 0.46407 0.15842 0.0
C235 C 0.16652 0.45684 0.18244 0.0
C236 C 0.18449 0.55267 0.17879 0.0
C237 C 0.1224 0.43785 0.1353 0.0
H238 H 0.05822 0.49547 0.14032 0.0
H239 H 0.11897 0.51864 0.04418 0.0
H240 H 0.09228 0.46468 0.19597 0.0
H241 H 0.11478 0.50546 0.20908 0.0
H242 H 0.07293 0.48778 0.20002 0.0
H243 H 0.16983 0.52452 0.04805 0.0
H244 H 0.18825 0.53278 0.09378 0.0
H245 H 0.16773 0.49305 0.07657 0.0
H246 H 0.21468 0.5292 0.2206 0.0
H247 H 0.16175 0.43265 0.18353 0.0
H248 H 0.16396 0.5535 0.19094 0.0
H249 H 0.18739 0.56139 0.1495 0.0
H250 H 0.20601 0.56892 0.19508 0.0
H251 H 0.09892 0.43372 0.14461 0.0
H252 H 0.12259 0.41525 0.13774 0.0
H253 H 0.1251 0.44472 0.10527 0.0
C254 C 0.61642 0.05191 0.58341 0.0
C255 C 0.59294 0.02049 0.59042 0.0
C256 C 0.64164 0.06844 0.60827 0.0
C257 C 0.64409 0.05297 0.64057 0.0
C258 C 0.62177 0.02058 0.64653 0.0
C259 C 0.59608 1.00479 0.62164 0.0
C260 C 0.66455 0.10311 0.60107 0.0
C261 C 0.62423 1.00299 0.67996 0.0
C262 C 0.7239 0.10278 0.68706 0.0
C263 C 0.71689 0.1199 0.71335 0.0
C264 C 0.69987 0.07864 0.66535 0.0
C265 C 0.66827 0.07199 0.66942 0.0
C266 C 0.66076 0.08757 0.6977 0.0
C267 C 0.68506 0.11093 0.71965 0.0
C268 C 0.70864 0.06171 0.63641 0.0
C269 C 0.62739 0.08139 0.70291 0.0
H270 H 0.61424 0.06433 0.55942 0.0
H271 H 0.57815 0.98045 0.62709 0.0
H272 H 0.6628 0.11756 0.62404 0.0
H273 H 0.68922 0.10769 0.60076 0.0
H274 H 0.65989 0.11131 0.574 0.0
H275 H 0.60926 0.97695 0.67651 0.0
H276 H 0.64912 0.00898 0.68452 0.0
H277 H 0.61633 0.01004 0.70557 0.0
H278 H 0.74824 0.1091 0.68206 0.0
H279 H 0.67908 0.12295 0.74087 0.0
H280 H 0.70881 0.07129 0.60813 0.0
H281 H 0.69098 0.03605 0.63597 0.0
H282 H 0.73246 0.0648 0.64179 0.0
H283 H 0.6204 0.0901 0.67798 0.0
H284 H 0.62503 0.09336 0.72826 0.0
H285 H 0.61051 0.05566 0.70528 0.0
C286 C 0.52713 0.58232 0.09089 0.0
C287 C 0.51438 0.57588 0.05439 0.0
C288 C 0.53157 0.60902 0.11118 0.0
C289 C 0.52298 0.63013 0.09494 0.0
C290 C 0.50903 0.62325 0.05865 0.0
C291 C 0.50499 0.59633 0.03879 0.0
C292 C 0.54678 0.61531 0.14952 0.0
C293 C 0.49927 0.64489 0.0403 0.0
C294 C 0.52325 0.69233 0.16189 0.0
C295 C 0.55379 0.71814 0.15606 0.0
C296 C 0.51223 0.66384 0.14124 0.0
C297 C 0.5322 0.66106 0.11422 0.0
C298 C 0.56254 0.68748 0.10748 0.0
C299 C 0.5728 0.71544 0.12823 0.0
C300 C 0.47962 0.6364 0.14914 0.0
C301 C 0.58486 0.6859 0.07925 0.0
H302 H 0.53435 0.56675 0.10356 0.0
H303 H 0.49491 0.5916 0.01081 0.0
H304 H 0.57038 0.63708 0.14857 0.0
H305 H 0.53228 0.6194 0.17034 0.0
H306 H 0.54988 0.59546 0.15948 0.0
H307 H 0.48554 0.63455 0.01412 0.0
H308 H 0.48479 0.6501 0.05993 0.0
H309 H 0.52065 0.66774 0.03331 0.0
H310 H 0.5083 0.69405 0.18318 0.0
H311 H 0.59633 0.73517 0.12298 0.0
H312 H 0.48164 0.61706 0.16277 0.0
H313 H 0.4664 0.62682 0.12252 0.0
H314 H 0.46575 0.6432 0.16782 0.0
H315 H 0.59124 0.66806 0.08834 0.0
H316 H 0.60701 0.70899 0.07585 0.0
H317 H 0.57317 0.6783 0.05147 0.0
C318 C 0.97598 0.56438 0.61029 0.0
C319 C 1.00694 0.57042 0.61616 0.0
C320 C 0.96363 0.57999 0.63118 0.0
C321 C 0.9829 0.60284 0.65821 0.0
C322 C 0.01469 0.6102 0.66317 0.0
C323 C 0.02625 0.59352 0.64241 0.0
C324 C 0.9294 0.57093 0.62536 0.0
C325 C 0.03618 0.63501 0.69102 0.0
C326 C 0.94291 0.64847 0.68906 0.0
C327 C 0.92516 0.63005 0.71958 0.0
C328 C 0.96469 0.64205 0.67081 0.0
C329 C 0.96827 0.61642 0.68319 0.0
C330 C 0.95265 0.59988 0.7162 0.0
C331 C 0.93157 0.60715 0.73416 0.0
C332 C 0.9818 0.66096 0.63648 0.0
C333 C 0.95561 0.57234 0.73049 0.0
H334 H 0.96083 0.54649 0.59015 0.0
H335 H 0.05029 0.59848 0.64683 0.0
H336 H 0.91591 0.56096 0.65173 0.0
H337 H 0.92772 0.59214 0.61822 0.0
H338 H 0.91787 0.55315 0.60264 0.0
H339 H 0.06142 0.64213 0.68649 0.0
H340 H 0.03364 0.65633 0.68914 0.0
H341 H 0.0295 0.62556 0.71992 0.0
H342 H 0.93831 0.66643 0.67797 0.0
H343 H 0.91873 0.59364 0.75862 0.0
H344 H 0.96982 0.64714 0.6109 0.0
H345 H 1.00659 0.66584 0.63596 0.0
H346 H 0.98192 0.68376 0.63528 0.0
H347 H 0.94331 0.55206 0.71087 0.0
H348 H 0.94502 0.56454 0.75885 0.0
H349 H 0.98078 0.57859 0.7317 0.0
C350 C 0.41691 0.96055 0.119 0.0
C351 C 0.41809 0.95218 0.08149 0.0
C352 C 0.39281 0.93958 0.14367 0.0
C353 C 0.36897 0.90943 0.13071 0.0
C354 C 0.37037 0.90067 0.09309 0.0
C355 C 0.39481 0.92197 0.06913 0.0
C356 C 0.39249 0.95 0.18351 0.0
C357 C 0.34548 0.86905 0.07772 0.0
C358 C 0.31462 0.84559 0.20167 0.0
C359 C 0.28814 0.84975 0.20236 0.0
C360 C 0.34111 0.8647 0.17858 0.0
C361 C 0.34106 0.88833 0.15529 0.0
C362 C 0.31403 0.89195 0.15532 0.0
C363 C 0.28821 0.87288 0.17878 0.0
C364 C 0.36943 0.86007 0.17964 0.0
C365 C 0.31242 0.91633 0.13078 0.0
H366 H 0.43478 0.98362 0.1291 0.0
H367 H 0.39535 0.91501 0.04035 0.0
H368 H 0.37128 0.9524 0.18795 0.0
H369 H 0.39093 0.93188 0.20352 0.0
H370 H 0.4139 0.97299 0.19023 0.0
H371 H 0.35093 0.86487 0.04869 0.0
H372 H 0.34322 0.84964 0.09598 0.0
H373 H 0.32215 0.86783 0.07755 0.0
H374 H 0.31501 0.82803 0.2199 0.0
H375 H 0.26791 0.87631 0.17873 0.0
H376 H 0.39052 0.88213 0.18949 0.0
H377 H 0.37481 0.85511 0.15099 0.0
H378 H 0.36567 0.84036 0.19846 0.0
H379 H 0.33169 0.94037 0.13846 0.0
H380 H 0.28944 0.91574 0.13336 0.0
H381 H 0.31595 0.91231 0.10093 0.0
C382 C 0.48787 0.4341 0.55012 0.0
C383 C 0.50511 0.4408 0.51653 0.0
C384 C 0.47394 0.40404 0.56636 0.0
C385 C 0.47693 0.37981 0.54837 0.0
C386 C 0.49236 0.38569 0.51314 0.0
C387 C 0.50652 0.41627 0.49769 0.0
C388 C 0.45794 0.3989 0.60413 0.0
C389 C 0.49533 0.36017 0.49276 0.0
C390 C 0.4807 0.3231 0.61721 0.0
C391 C 0.44906 0.29849 0.61847 0.0
C392 C 0.49025 0.34901 0.59332 0.0
C393 C 0.46782 0.35015 0.56924 0.0
C394 C 0.43627 0.32457 0.56853 0.0
C395 C 0.42717 0.29912 0.59343 0.0
C396 C 0.5241 0.37592 0.59523 0.0
C397 C 0.41188 0.32469 0.54261 0.0
H398 H 0.48628 0.45275 0.56475 0.0
H399 H 0.51947 0.42115 0.4715 0.0
H400 H 0.43418 0.37739 0.60358 0.0
H401 H 0.47213 0.39521 0.62578 0.0
H402 H 0.45528 0.41933 0.61281 0.0
H403 H 0.50295 0.36674 0.46315 0.0
H404 H 0.51309 0.35605 0.50719 0.0
H405 H 0.47248 0.33753 0.49313 0.0
H406 H 0.49819 0.32246 0.63524 0.0
H407 H 0.40274 0.28023 0.59399 0.0
H408 H 0.52459 0.39764 0.60551 0.0
H409 H 0.53494 0.38115 0.56688 0.0
H410 H 0.53895 0.37067 0.61422 0.0
H411 H 0.40524 0.34205 0.55287 0.0
H412 H 0.3901 0.30109 0.54101 0.0
H413 H 0.42171 0.33203 0.51391 0.0
C414 C 0.54931 0.96446 0.39343 0.0
C415 C 0.5397 0.95556 0.43078 0.0
C416 C 0.5529 0.944 0.36828 0.0
C417 C 0.54704 0.91387 0.38061 0.0
C418 C 0.53693 0.90464 0.41812 0.0
C419 C 0.53331 0.9254 0.44252 0.0
C420 C 0.56356 0.95489 0.32859 0.0
C421 C 0.53073 0.87306 0.43287 0.0
C422 C 0.53789 0.85045 0.30898 0.0
C423 C 0.56863 0.85486 0.30814 0.0
C424 C 0.53043 0.86946 0.3322 0.0
C425 C 0.55409 0.89321 0.3555 0.0
C426 C 0.58488 0.89714 0.35523 0.0
C427 C 0.59172 0.87818 0.33163 0.0
C428 C 0.49734 0.86451 0.33136 0.0
C429 C 0.61086 0.92162 0.37981 0.0
H430 H 0.55411 0.9875 0.38381 0.0
H431 H 0.52579 0.91804 0.47118 0.0
H432 H 0.58728 0.95761 0.32392 0.0
H433 H 0.54707 0.93688 0.30833 0.0
H434 H 0.56489 0.97783 0.3224 0.0
H435 H 0.5213 0.86856 0.46198 0.0
H436 H 0.51358 0.85367 0.41449 0.0
H437 H 0.55302 0.87218 0.43255 0.0
H438 H 0.51991 0.83275 0.29083 0.0
H439 H 0.61553 0.88181 0.33156 0.0
H440 H 0.4981 0.8866 0.32219 0.0
H441 H 0.48697 0.85904 0.35997 0.0
H442 H 0.48152 0.84501 0.31213 0.0
H443 H 0.61525 0.94557 0.37254 0.0
H444 H 0.63343 0.92142 0.37685 0.0
H445 H 0.60349 0.91734 0.4097 0.0
C446 C 0.62019 0.57018 0.98362 0.0
C447 C 0.6099 0.5416 1.00272 0.0
C448 C 0.64981 0.58567 0.966 0.0
C449 C 0.66925 0.57179 0.96682 0.0
C450 C 0.65993 0.5441 0.98835 0.0
C451 C 0.63036 0.52943 1.00642 0.0
C452 C 0.65915 0.61553 0.94408 0.0
C453 C 0.67989 0.52844 0.98964 0.0
C454 C 0.71625 0.58201 0.87822 0.0
C455 C 0.74716 0.60423 0.88921 0.0
C456 C 0.69091 0.57116 0.90338 0.0
C457 C 0.6964 0.58325 0.94045 0.0
C458 C 0.72734 0.60633 0.95161 0.0
C459 C 0.75244 0.61648 0.92586 0.0
C460 C 0.65823 0.54655 0.89025 0.0
C461 C 0.73393 0.62005 0.99076 0.0
H462 H 0.60451 0.57984 0.9812 0.0
H463 H 0.62237 0.50728 0.02114 0.0
H464 H 0.6843 0.63343 0.94931 0.0
H465 H 0.65655 0.61007 0.9136 0.0
H466 H 0.64417 0.626 0.95134 0.0
H467 H 0.67173 0.50995 0.01173 0.0
H468 H 0.67857 0.51719 0.96209 0.0
H469 H 0.70509 0.54617 0.99482 0.0
H470 H 0.71178 0.57296 0.84977 0.0
H471 H 0.77625 0.63346 0.93472 0.0
H472 H 0.64191 0.55614 0.89214 0.0
H473 H 0.64864 0.52543 0.90867 0.0
H474 H 0.65819 0.53892 0.86084 0.0
H475 H 0.71871 0.63041 0.99699 0.0
H476 H 0.75909 0.63863 0.99462 0.0
H477 H 0.72801 0.60102 0.0116 0.0
C478 C 0.05157 0.57966 0.42671 0.0
C479 C 0.06292 0.57382 0.46024 0.0
C480 C 0.0717 0.605 0.40284 0.0
C481 C 0.10403 0.62504 0.41252 0.0
C482 C 0.11581 0.6184 0.44553 0.0
C483 C 0.09525 0.5931 0.46884 0.0
C484 C 0.05804 0.61109 0.36797 0.0
C485 C 0.14996 0.6389 0.4572 0.0
C486 C 0.16368 0.68515 0.34192 0.0
C487 C 0.16385 0.71298 0.3524 0.0
C488 C 0.1442 0.65621 0.36086 0.0
C489 C 0.12455 0.65508 0.39104 0.0
C490 C 0.12513 0.68327 0.40189 0.0
C491 C 0.14458 0.71158 0.3826 0.0
C492 C 0.14435 0.62676 0.34831 0.0
C493 C 0.10501 0.68361 0.43399 0.0
H494 H 0.02679 0.56492 0.41954 0.0
H495 H 0.10459 0.58879 0.49435 0.0
H496 H 0.05756 0.63345 0.37137 0.0
H497 H 0.07315 0.61402 0.34328 0.0
H498 H 0.03358 0.59165 0.36212 0.0
H499 H 0.15626 0.62886 0.48147 0.0
H500 H 0.16596 0.6419 0.43346 0.0
H501 H 0.15437 0.66278 0.46507 0.0
H502 H 0.17815 0.6858 0.31846 0.0
H503 H 0.14449 0.73285 0.39122 0.0
H504 H 0.12026 0.60868 0.33901 0.0
H505 H 0.15078 0.61648 0.37216 0.0
H506 H 0.1612 0.63149 0.3249 0.0
H507 H 0.07966 0.66666 0.4283 0.0
H508 H 0.10788 0.70741 0.43874 0.0
H509 H 0.11139 0.67592 0.46026 0.0
C510 C 0.42354 0.01185 0.88521 0.0
C511 C 0.42767 0.01789 0.92392 0.0
C512 C 0.41588 0.03007 0.86162 0.0
C513 C 0.41202 0.05464 0.87725 0.0
C514 C 0.4132 0.05876 0.91667 0.0
C515 C 0.42113 0.04041 0.93952 0.0
C516 C 0.41475 0.02488 0.81973 0.0
C517 C 0.40884 0.08441 0.93454 0.0
C518 C 0.44144 0.13018 0.82149 0.0
C519 C 0.41318 0.12793 0.80867 0.0
C520 C 0.44125 0.10615 0.84307 0.0
C521 C 0.41203 0.07914 0.8525 0.0
C522 C 0.38336 0.07645 0.83951 0.0
C523 C 0.38428 0.10089 0.81769 0.0
C524 C 0.47243 0.11002 0.8564 0.0
C525 C 0.3518 0.04798 0.84906 0.0
H526 H 0.42848 0.99444 0.87293 0.0
H527 H 0.42388 0.04492 0.96949 0.0
H528 H 0.39448 0.02581 0.80702 0.0
H529 H 0.43671 0.04403 0.80682 0.0
H530 H 0.41283 1.00182 0.81255 0.0
H531 H 0.40556 0.08135 0.96543 0.0
H532 H 0.43004 0.1078 0.92895 0.0
H533 H 0.38812 0.08475 0.92228 0.0
H534 H 0.46387 0.15114 0.81549 0.0
H535 H 0.36237 0.09879 0.80763 0.0
H536 H 0.47464 0.08942 0.84746 0.0
H537 H 0.47339 0.11089 0.88753 0.0
H538 H 0.49311 0.13189 0.8454 0.0
H539 H 0.35132 0.02597 0.84005 0.0
H540 H 0.33174 0.04888 0.83559 0.0
H541 H 0.34826 0.04651 0.87992 0.0
C542 C 0.44664 0.5425 0.47718 0.0
C543 C 0.46785 0.5342 0.46122 0.0
C544 C 0.41948 0.53787 0.45739 0.0
C545 C 0.41315 0.52447 0.42078 0.0
C546 C 0.435 0.51696 0.40422 0.0
C547 C 0.46189 0.52194 0.42446 0.0
C548 C 0.39703 0.54643 0.47612 0.0
C549 C 0.42937 0.50242 0.36551 0.0
C550 C 0.32852 0.47345 0.38566 0.0
C551 C 0.32563 0.4926 0.35828 0.0
C552 C 0.35624 0.48405 0.407 0.0
C553 C 0.38222 0.51486 0.40128 0.0
C554 C 0.37917 0.53494 0.37478 0.0
C555 C 0.35093 0.5236 0.35358 0.0
C556 C 0.35812 0.4616 0.43467 0.0
C557 C 0.40613 0.56803 0.36792 0.0
H558 H 0.45097 0.55217 0.50537 0.0
H559 H 0.47803 0.51556 0.41149 0.0
H560 H 0.39145 0.56088 0.45696 0.0
H561 H 0.37442 0.52456 0.48255 0.0
H562 H 0.40686 0.55977 0.50267 0.0
H563 H 0.44965 0.50008 0.35543 0.0
H564 H 0.40793 0.47856 0.36589 0.0
H565 H 0.42502 0.51695 0.34509 0.0
H566 H 0.30916 0.44956 0.39006 0.0
H567 H 0.34906 0.53866 0.33263 0.0
H568 H 0.36529 0.47288 0.46273 0.0
H569 H 0.3764 0.45588 0.42538 0.0
H570 H 0.33524 0.43913 0.43753 0.0
H571 H 0.41514 0.58076 0.39495 0.0
H572 H 0.39901 0.58186 0.3497 0.0
H573 H 0.42597 0.56691 0.3542 0.0
C574 C 0.91509 0.39667 0.03101 0.0
C575 C 0.94793 0.41307 0.02529 0.0
C576 C 0.89523 0.36977 1.00951 0.0
C577 C 0.90868 0.35886 0.9822 0.0
C578 C 0.94199 0.37383 0.97859 0.0
C579 C 0.9612 0.40093 0.99997 0.0
C580 C 0.85982 0.3546 0.01401 0.0
C581 C 0.95729 0.36252 0.95037 0.0
C582 C 0.85807 0.27895 0.93525 0.0
C583 C 0.85084 0.28772 0.90067 0.0
C584 C 0.87671 0.30176 0.9622 0.0
C585 C 0.88806 0.33412 0.9547 0.0
C586 C 0.88051 0.34316 0.92021 0.0
C587 C 0.86226 0.31993 0.89356 0.0
C588 C 0.88452 0.29128 0.99854 0.0
C589 C 0.89202 0.37749 0.91124 0.0
H590 H 0.9047 0.40611 0.05034 0.0
H591 H 0.98662 0.41344 0.99566 0.0
H592 H 0.8498 0.36008 0.98908 0.0
H593 H 0.84865 0.32849 0.01567 0.0
H594 H 0.85327 0.36324 0.03946 0.0
H595 H 0.98332 0.3741 0.95441 0.0
H596 H 0.94699 0.33651 0.95236 0.0
H597 H 0.95265 0.36784 0.92156 0.0
H598 H 0.84906 0.25423 0.94153 0.0
H599 H 0.85736 0.32719 0.86692 0.0
H600 H 0.87622 0.29952 0.02274 0.0
H601 H 0.91056 0.30212 1.00136 0.0
H602 H 0.87361 0.26515 1.00025 0.0
H603 H 0.88455 0.38823 0.93361 0.0
H604 H 0.88288 0.38046 0.8839 0.0
H605 H 0.91827 0.39089 0.91032 0.0
C606 C 0.93084 0.50338 0.9573 0.0
C607 C 0.96379 0.52167 0.9521 0.0
C608 C 0.90941 0.50492 0.93216 0.0
C609 C 0.92092 0.52573 0.90107 0.0
C610 C 0.95416 0.54396 0.89521 0.0
C611 C 0.97516 0.5415 0.92056 0.0
C612 C 0.87432 0.48452 0.93929 0.0
C613 C 0.96754 0.56668 0.8627 0.0
C614 C 0.86346 0.51373 0.82076 0.0
C615 C 0.85346 0.53538 0.83006 0.0
C616 C 0.88536 0.51036 0.8434 0.0
C617 C 0.89811 0.52938 0.87598 0.0
C618 C 0.88809 0.55123 0.88548 0.0
C619 C 0.86587 0.5538 0.86269 0.0
C620 C 0.8949 0.48641 0.83241 0.0
C621 C 0.9011 0.57222 0.91966 0.0
H622 H 0.92165 0.48762 0.98122 0.0
H623 H 1.00049 0.55572 0.91622 0.0
H624 H 0.86392 0.49972 0.94539 0.0
H625 H 0.86232 0.47041 0.91388 0.0
H626 H 0.8691 0.46808 0.96324 0.0
H627 H 0.99376 0.57838 0.86117 0.0
H628 H 0.95742 0.55408 0.83587 0.0
H629 H 0.9608 0.5852 0.86546 0.0
H630 H 0.8543 0.4995 0.79558 0.0
H631 H 0.85875 0.57088 0.87013 0.0
H632 H 0.88957 0.46936 0.85565 0.0
H633 H 0.9208 0.49849 0.8274 0.0
H634 H 0.88252 0.47304 0.80668 0.0
H635 H 0.89497 0.5575 0.94536 0.0
H636 H 0.89179 0.58874 0.92259 0.0
H637 H 0.92732 0.58626 0.91805 0.0
C638 C 0.40366 0.9188 0.5087 0.0
C639 C 0.4256 0.95036 0.5001 0.0
C640 C 0.37407 0.90309 0.49067 0.0
C641 C 0.36631 0.91953 0.46382 0.0
C642 C 0.38744 0.95206 0.45731 0.0
C643 C 0.41689 0.96702 0.47537 0.0
C644 C 0.35217 0.86837 0.49832 0.0
C645 C 0.37993 0.97056 0.42928 0.0
C646 C 0.31681 0.87432 0.37977 0.0
C647 C 0.28712 0.87067 0.38855 0.0
C648 C 0.34245 0.8896 0.40442 0.0
C649 C 0.33853 0.90194 0.4387 0.0
C650 C 0.30874 0.89854 0.44784 0.0
C651 C 0.28332 0.88289 0.42262 0.0
C652 C 0.37389 0.89286 0.39348 0.0
C653 C 0.3038 0.91158 0.48407 0.0
H654 H 0.41026 0.90583 0.52785 0.0
H655 H 0.4336 0.99159 0.46905 0.0
H656 H 0.32751 0.8633 0.50227 0.0
H657 H 0.35223 0.85434 0.4738 0.0
H658 H 0.35945 0.86024 0.52356 0.0
H659 H 0.39673 0.99642 0.43127 0.0
H660 H 0.38119 0.96266 0.40042 0.0
H661 H 0.35553 0.96619 0.43354 0.0
H662 H 0.32021 0.86561 0.35322 0.0
H663 H 0.26042 0.87991 0.42979 0.0
H664 H 0.38208 0.88267 0.41566 0.0
H665 H 0.39201 0.91825 0.3908 0.0
H666 H 0.37263 0.88085 0.36647 0.0
H667 H 0.30989 0.9014 0.50832 0.0
H668 H 0.27901 0.90641 0.48736 0.0
H669 H 0.31982 0.93759 0.48509 0.0
C670 C 0.4866 0.43017 0.89127 0.0
C671 C 0.5013 0.43493 0.92649 0.0
C672 C 0.48613 0.40795 0.86529 0.0
C673 C 0.50102 0.39015 0.87434 0.0
C674 C 0.516 0.395 0.90976 0.0
C675 C 0.51581 0.41704 0.93528 0.0
C676 C 0.46961 0.40346 0.8281 0.0
C677 C 0.53251 0.37701 0.9207 0.0
C678 C 0.47726 0.31222 0.82271 0.0
C679 C 0.50126 0.32146 0.79558 0.0
C680 C 0.47676 0.33423 0.84813 0.0
C681 C 0.50101 0.36646 0.84695 0.0
C682 C 0.52555 0.37586 0.82002 0.0
C683 C 0.52529 0.35341 0.79467 0.0
C684 C 0.45 0.323 0.87604 0.0
C685 C 0.55215 0.40975 0.81789 0.0
H686 H 0.47531 0.44374 0.88401 0.0
H687 H 0.52747 0.42048 0.96218 0.0
H688 H 0.48669 0.40905 0.80479 0.0
H689 H 0.45081 0.37837 0.82475 0.0
H690 H 0.45875 0.41866 0.82538 0.0
H691 H 0.54335 0.38366 0.94907 0.0
H692 H 0.51543 0.3512 0.92031 0.0
H693 H 0.55134 0.38157 0.90002 0.0
H694 H 0.45838 0.28776 0.82367 0.0
H695 H 0.54395 0.36102 0.77392 0.0
H696 H 0.43731 0.33636 0.87219 0.0
H697 H 0.45954 0.32766 0.90506 0.0
H698 H 0.43272 0.29732 0.87318 0.0
H699 H 0.54244 0.42557 0.81201 0.0
H700 H 0.56968 0.41331 0.79576 0.0
H701 H 0.56458 0.41713 0.8453 0.0
C702 C 0.10688 0.48389 0.53049 0.0
C703 C 0.07467 0.47178 0.52268 0.0
C704 C 0.12533 0.47543 0.50827 0.0
C705 C 0.11109 0.45419 0.47784 0.0
C706 C 0.07809 0.44001 0.47181 0.0
C707 C 0.06032 0.44906 0.49421 0.0
C708 C 0.16044 0.49102 0.51564 0.0
C709 C 0.06189 0.41694 0.44001 0.0
C710 C 0.15992 0.46491 0.39046 0.0
C711 C 0.16655 0.44017 0.39364 0.0
C712 C 0.14243 0.47 0.41804 0.0
C713 C 0.13105 0.44974 0.44962 0.0
C714 C 0.13774 0.4248 0.45322 0.0
C715 C 0.15544 0.42033 0.4252 0.0
C716 C 0.13573 0.49684 0.41306 0.0
C717 C 0.12596 0.40272 0.48648 0.0
H718 H 0.11815 0.50149 0.5524 0.0
H719 H 0.03535 0.43936 0.48827 0.0
H720 H 0.16834 0.4733 0.51496 0.0
H721 H 0.17347 0.50857 0.49323 0.0
H722 H 0.16707 0.50342 0.54316 0.0
H723 H 0.03568 0.4051 0.44201 0.0
H724 H 0.06932 0.42971 0.41285 0.0
H725 H 0.06893 0.39857 0.43967 0.0
H726 H 0.16792 0.48005 0.36598 0.0
H727 H 0.16079 0.40143 0.42819 0.0
H728 H 0.14417 0.51269 0.43792 0.0
H729 H 0.10982 0.48728 0.41082 0.0
H730 H 0.14725 0.51114 0.3876 0.0
H731 H 0.13444 0.41643 0.51297 0.0
H732 H 0.13391 0.385 0.48564 0.0
H733 H 0.09971 0.38999 0.48722 0.0
C734 C 0.55358 0.0961 0.9269 0.0
C735 C 0.55948 0.08312 0.95889 0.0
C736 C 0.5786 0.12005 0.90585 0.0
C737 C 0.61045 0.13044 0.91605 0.0
C738 C 0.61641 0.11714 0.94833 0.0
C739 C 0.59089 0.09406 0.96967 0.0
C740 C 0.5709 0.13415 0.87261 0.0
C741 C 0.6498 0.12665 0.95976 0.0
C742 C 0.67553 0.16822 0.8413 0.0
C743 C 0.6919 0.20012 0.85244 0.0
C744 C 0.64887 0.14544 0.86136 0.0
C745 C 0.63752 0.15477 0.8928 0.0
C746 C 0.653 0.18726 0.90288 0.0
C747 C 0.68025 0.20935 0.8831 0.0
C748 C 0.63383 0.1111 0.85 0.0
C749 C 0.6412 0.19864 0.93515 0.0
H750 H 0.52927 0.08756 0.91844 0.0
H751 H 0.59549 0.08369 0.99404 0.0
H752 H 0.58329 0.16031 0.87529 0.0
H753 H 0.57942 0.1286 0.84639 0.0
H754 H 0.54508 0.1251 0.86989 0.0
H755 H 0.6505 0.11364 0.98497 0.0
H756 H 0.66195 0.12203 0.9363 0.0
H757 H 0.66342 0.15238 0.96582 0.0
H758 H 0.68459 0.16071 0.81805 0.0
H759 H 0.69273 0.2339 0.89197 0.0
H760 H 0.60813 0.10105 0.84498 0.0
H761 H 0.63636 0.09734 0.87315 0.0
H762 H 0.6447 0.10777 0.82424 0.0
H763 H 0.61543 0.1896 0.93217 0.0
H764 H 0.65367 0.22487 0.93697 0.0
H765 H 0.64475 0.1893 0.96196 0.0
C766 C 0.59556 0.63434 0.43881 0.0
C767 C 0.60088 0.60957 0.42869 0.0
C768 C 0.60432 0.66023 0.41504 0.0
C769 C 0.61946 0.66186 0.38055 0.0
C770 C 0.62706 0.63818 0.37137 0.0
C771 C 0.61735 0.61205 0.39539 0.0
C772 C 0.59536 0.68471 0.42577 0.0
C773 C 0.64405 0.63962 0.33536 0.0
C774 C 0.60094 0.70443 0.30483 0.0
C775 C 0.62638 0.73555 0.3081 0.0
C776 C 0.59913 0.67996 0.32711 0.0
C777 C 0.62382 0.68641 0.3527 0.0
C778 C 0.65065 0.71714 0.35434 0.0
C779 C 0.65148 0.74144 0.33233 0.0
C780 C 0.56991 0.64756 0.32465 0.0
C781 C 0.67785 0.72472 0.38056 0.0
H782 H 0.58296 0.63279 0.46452 0.0
H783 H 0.6218 0.59317 0.3875 0.0
H784 H 0.61627 0.70883 0.42409 0.0
H785 H 0.57743 0.68364 0.40574 0.0
H786 H 0.58541 0.68104 0.45459 0.0
H787 H 0.65305 0.62273 0.33545 0.0
H788 H 0.62757 0.63371 0.31133 0.0
H789 H 0.66421 0.66387 0.33066 0.0
H790 H 0.5819 0.69911 0.28538 0.0
H791 H 0.67136 0.7652 0.33517 0.0
H792 H 0.55693 0.64182 0.35173 0.0
H793 H 0.57662 0.62926 0.31956 0.0
H794 H 0.55359 0.64602 0.30195 0.0
H795 H 0.67057 0.72545 0.40989 0.0
H796 H 0.69901 0.74793 0.37402 0.0
H797 H 0.68449 0.70606 0.37905 0.0
C798 C 0.50229 0.07311 0.58967 0.0
C799 C 0.52271 0.08108 0.55866 0.0
C800 C 0.50151 0.09647 0.61218 0.0
C801 C 0.52209 0.12895 0.6042 0.0
C802 C 0.54276 0.13723 0.57287 0.0
C803 C 0.54261 0.11326 0.5503 0.0
C804 C 0.4786 0.08631 0.64469 0.0
C805 C 0.56546 0.17145 0.5636 0.0
C806 C 0.49836 0.18664 0.64544 0.0
C807 C 0.51529 0.19581 0.67946 0.0
C808 C 0.50107 0.16577 0.62027 0.0
C809 C 0.52163 0.15394 0.62872 0.0
C810 C 0.53992 0.16427 0.66213 0.0
C811 C 0.53634 0.18477 0.68716 0.0
C812 C 0.4807 0.15518 0.58544 0.0
C813 C 0.56257 0.15282 0.6721 0.0
H814 H 0.4867 0.04838 0.59641 0.0
H815 H 0.5587 0.11976 0.52669 0.0
H816 H 0.49181 0.09513 0.67145 0.0
H817 H 0.46308 0.09678 0.64188 0.0
H818 H 0.46346 0.06018 0.64651 0.0
H819 H 0.57999 0.1741 0.53837 0.0
H820 H 0.55223 0.18413 0.55864 0.0
H821 H 0.58153 0.18315 0.58774 0.0
H822 H 0.48185 0.19474 0.63907 0.0
H823 H 0.54961 0.19163 0.7132 0.0
H824 H 0.46341 0.12947 0.58732 0.0
H825 H 0.49545 0.15884 0.56018 0.0
H826 H 0.46746 0.16801 0.58155 0.0
H827 H 0.54906 0.12714 0.67843 0.0
H828 H 0.5774 0.16542 0.69688 0.0
H829 H 0.57833 0.15609 0.64798 0.0
C830 C 0.44021 0.43567 0.12294 0.0
C831 C 0.43984 0.4429 0.0849 0.0
C832 C 0.41415 0.42825 0.1463 0.0
C833 C 0.38719 0.42803 0.13118 0.0
C834 C 0.38579 0.43288 0.09223 0.0
C835 C 0.4121 0.44022 0.06959 0.0
C836 C 0.41643 0.42293 0.18763 0.0
C837 C 0.35741 0.4326 0.07486 0.0
C838 C 0.31028 0.39725 0.18588 0.0
C839 C 0.31246 0.42553 0.19874 0.0
C840 C 0.33474 0.3975 0.16469 0.0
C841 C 0.36217 0.42668 0.15638 0.0
C842 C 0.36498 0.45519 0.17021 0.0
C843 C 0.34011 0.45428 0.19097 0.0
C844 C 0.33089 0.36662 0.1504 0.0
C845 C 0.39394 0.48686 0.16211 0.0
H846 H 0.4615 0.43761 0.13501 0.0
H847 H 0.41145 0.44544 0.04014 0.0
H848 H 0.4199 0.44396 0.20364 0.0
H849 H 0.3942 0.40229 0.19783 0.0
H850 H 0.43651 0.41902 0.19391 0.0
H851 H 0.3585 0.43317 0.0437 0.0
H852 H 0.33521 0.41124 0.08372 0.0
H853 H 0.35622 0.45356 0.08473 0.0
H854 H 0.2894 0.37483 0.19217 0.0
H855 H 0.34214 0.47635 0.20016 0.0
H856 H 0.35174 0.36448 0.15826 0.0
H857 H 0.32956 0.36607 0.11929 0.0
H858 H 0.30919 0.3458 0.16153 0.0
H859 H 0.41567 0.48665 0.1708 0.0
H860 H 0.39332 0.50664 0.17682 0.0
H861 H 0.39576 0.49155 0.13148 0.0
C862 C 0.90821 0.4181 0.58191 0.0
C863 C 0.94022 0.43343 0.5927 0.0
C864 C 0.88423 0.39486 0.60498 0.0
C865 C 0.89227 0.38635 0.63966 0.0
C866 C 0.9246 0.40132 0.65026 0.0
C867 C 0.94798 0.4246 0.62692 0.0
C868 C 0.85016 0.37983 0.59256 0.0
C869 C 0.93455 0.39297 0.68663 0.0
C870 C 0.83236 0.34998 0.72018 0.0
C871 C 0.82324 0.31774 0.71804 0.0
C872 C 0.85389 0.37224 0.69427 0.0
C873 C 0.86708 0.36235 0.66538 0.0
C874 C 0.85746 0.32975 0.66254 0.0
C875 C 0.83569 0.30793 0.68867 0.0
C876 C 0.86311 0.40659 0.69841 0.0
C877 C 0.87094 0.318 0.63253 0.0
H878 H 0.90178 0.42471 0.55574 0.0
H879 H 0.97253 0.43607 0.6357 0.0
H880 H 0.83936 0.35373 0.59146 0.0
H881 H 0.83646 0.38516 0.61328 0.0
H882 H 0.84773 0.38835 0.56454 0.0
H883 H 0.96067 0.40588 0.6903 0.0
H884 H 0.92383 0.39869 0.71069 0.0
H885 H 0.92583 0.36718 0.68763 0.0
H886 H 0.82299 0.35801 0.74254 0.0
H887 H 0.82903 0.28321 0.6866 0.0
H888 H 0.85948 0.41573 0.67148 0.0
H889 H 0.88863 0.42088 0.70545 0.0
H890 H 0.8493 0.41026 0.72069 0.0
H891 H 0.86745 0.32551 0.60442 0.0
H892 H 0.85991 0.29182 0.63272 0.0
H893 H 0.89682 0.32861 0.63681 0.0
C894 C 0.55587 0.96961 0.03357 0.0
C895 C 0.52952 0.95212 1.01036 0.0
C896 C 0.571 0.95523 0.05136 0.0
C897 C 0.55913 0.92244 0.04627 0.0
C898 C 0.53393 0.90514 0.02079 0.0
C899 C 0.51951 0.9203 1.00285 0.0
C900 C 0.59818 0.97466 0.07775 0.0
C901 C 0.52052 0.8701 0.0148 0.0
C902 C 0.60535 0.88572 0.08723 0.0
C903 C 0.59039 0.87497 0.12214 0.0
C904 C 0.59542 0.90111 0.06195 0.0
C905 C 0.56982 0.9056 0.07179 0.0
C906 C 0.5547 0.89485 0.10695 0.0
C907 C 0.56532 0.87994 0.13172 0.0
C908 C 0.61228 0.9126 0.02484 0.0
C909 C 0.52734 0.89926 0.11861 0.0
H910 H 0.56396 0.99438 0.03898 0.0
H911 H 0.49915 0.90674 0.9849 0.0
H912 H 0.59002 0.96828 0.10719 0.0
H913 H 0.61772 0.9696 0.07326 0.0
H914 H 0.6076 1.00046 0.07419 0.0
H915 H 0.50424 0.86114 0.99032 0.0
H916 H 0.53978 0.8646 1.0105 0.0
H917 H 0.50719 0.85713 0.0402 0.0
H918 H 0.62454 0.88175 0.07941 0.0
H919 H 0.55406 0.87242 0.15889 0.0
H920 H 0.62227 0.93854 0.02241 0.0
H921 H 0.59526 0.90141 1.0014 0.0
H922 H 0.63177 0.90726 0.02142 0.0
H923 H 0.53523 0.92486 0.12016 0.0
H924 H 0.51741 0.88842 0.14633 0.0
H925 H 0.50816 0.88854 0.09737 0.0
C926 C 0.63637 0.54661 0.57328 0.0
C927 C 0.61324 0.55374 0.58571 0.0
C928 C 0.66084 0.54966 0.59708 0.0
C929 C 0.6625 0.55999 0.63465 0.0
C930 C 0.63889 0.56662 0.6477 0.0
C931 C 0.61469 0.56353 0.62315 0.0
C932 C 0.68546 0.54257 0.5816 0.0
C933 C 0.63952 0.57757 0.68749 0.0
C934 C 0.71695 0.54937 0.70437 0.0
C935 C 0.74393 0.5797 0.70453 0.0
C936 C 0.69019 0.54254 0.68207 0.0
C937 C 0.69041 0.56645 0.65905 0.0
C938 C 0.71785 0.59683 0.65871 0.0
C939 C 0.74396 0.60303 0.68135 0.0
C940 C 0.66147 0.50986 0.6835 0.0
C941 C 0.71964 0.62305 0.63445 0.0
H942 H 0.63564 0.53892 0.54455 0.0
H943 H 0.59695 0.5689 0.63331 0.0
H944 H 0.70895 0.56449 0.58152 0.0
H945 H 0.68742 0.52519 0.59975 0.0
H946 H 0.67992 0.53305 0.55253 0.0
H947 H 0.61836 0.57958 0.69425 0.0
H948 H 0.64081 0.56088 0.70754 0.0
H949 H 0.66099 0.60102 0.69183 0.0
H950 H 0.71645 0.53121 0.7223 0.0
H951 H 0.7646 0.62654 0.68093 0.0
H952 H 0.65586 0.4993 0.65497 0.0
H953 H 0.64065 0.51135 0.69326 0.0
H954 H 0.66491 0.49381 0.70253 0.0
H955 H 0.71599 0.61562 0.60456 0.0
H956 H 0.74274 0.64531 0.63708 0.0
H957 H 0.70053 0.62799 0.64233 0.0
C958 C 1.00546 0.58952 0.13168 0.0
C959 C 0.02397 0.58407 0.10588 0.0
C960 C 0.01826 0.61821 0.15166 0.0
C961 C 0.05046 0.64143 0.14639 0.0
C962 C 0.06884 0.63639 0.11945 0.0
C963 C 0.05527 0.60797 0.09928 0.0
C964 C 0.99769 0.62316 0.17933 0.0
C965 C 0.10343 0.66026 0.11335 0.0
C966 C 0.09321 0.72669 0.17945 0.0
C967 C 0.10963 0.7246 0.21058 0.0
C968 C 0.07139 0.6993 0.15991 0.0
C969 C 0.06639 0.6694 0.1716 0.0
C970 C 0.08095 0.66706 0.20483 0.0
C971 C 0.10206 0.69465 0.22409 0.0
C972 C 0.05547 0.70259 0.12531 0.0
C973 C 0.07643 0.63573 0.21835 0.0
H974 H 0.98114 0.57126 0.13659 0.0
H975 H 0.06976 0.60395 0.07942 0.0
H976 H 1.00419 0.62038 0.20833 0.0
H977 H 1.00143 0.64747 0.17692 0.0
H978 H 0.97216 0.60587 0.17509 0.0
H979 H 0.11401 0.65328 0.09022 0.0
H980 H 0.10643 0.68379 0.1067 0.0
H981 H 0.11692 0.66283 0.13947 0.0
H982 H 0.09872 0.74975 0.1691 0.0
H983 H 0.11381 0.69283 0.24897 0.0
H984 H 0.0303 0.68353 0.12411 0.0
H985 H 0.0674 0.70039 0.09991 0.0
H986 H 0.0566 0.72589 0.12438 0.0
H987 H 0.05092 0.61775 0.21967 0.0
H988 H 0.08703 0.63762 0.24652 0.0
H989 H 0.08771 0.627 0.1982 0.0
loop_
_geom_bond_atom_site_label_1
_geom_bond_atom_site_label_2
_geom_bond_distance
_geom_bond_site_symmetry_2
_ccdc_geom_bond_type
C0 O2 1.247 . S
C0 O4 1.258 . S
C1 O8 1.247 1_655 S
C1 O9 1.258 . S
O2 C0 1.247 . S
O2 Zn3 2.028 1_455 S
Zn3 O2 2.028 1_655 S
Zn3 O7 2.035 1_554 S
Zn3 O9 2.035 1_554 S
Zn3 O10 2.028 1_655 S
O4 C0 1.258 . S
O4 Zn5 2.035 1_554 S
Zn5 O4 2.035 1_556 S
Zn5 O6 2.028 . S
Zn5 O8 2.028 . S
Zn5 O11 2.035 1_556 S
O6 Zn5 2.028 . S
O6 C12 1.247 1_455 S
O7 Zn3 2.035 1_556 S
O7 C12 1.258 . S
O8 C1 1.247 1_455 S
O8 Zn5 2.028 . S
O9 C1 1.258 . S
O9 Zn3 2.035 1_556 S
O10 Zn3 2.028 1_455 S
O10 C13 1.247 . S
O11 Zn5 2.035 1_554 S
O11 C13 1.258 . S
C12 O6 1.247 1_655 S
C12 O7 1.258 . S
C13 O10 1.247 . S
C13 O11 1.258 . S
C14 O16 1.247 . S
C14 O18 1.258 . S
C15 O22 1.247 1_565 S
C15 O23 1.258 . S
O16 C14 1.247 . S
O16 Zn17 2.028 1_545 S
Zn17 O16 2.028 1_565 S
Zn17 O21 2.035 . S
Zn17 O23 2.035 . S
Zn17 O24 2.028 1_565 S
O18 C14 1.258 . S
O18 Zn19 2.035 . S
Zn19 O18 2.035 . S
Zn19 O20 2.028 . S
Zn19 O22 2.028 . S
Zn19 O25 2.035 . S
O20 Zn19 2.028 . S
O20 C26 1.247 1_545 S
O21 Zn17 2.035 . S
O21 C26 1.258 . S
O22 C15 1.247 1_545 S
O22 Zn19 2.028 . S
O23 C15 1.258 . S
O23 Zn17 2.035 . S
O24 Zn17 2.028 1_545 S
O24 C27 1.247 . S
O25 Zn19 2.035 . S
O25 C27 1.258 . S
C26 O20 1.247 1_565 S
C26 O21 1.258 . S
C27 O24 1.247 . S
C27 O25 1.258 . S
C28 O30 1.247 . S
C28 O32 1.258 . S
C29 O36 1.247 . S
C29 O37 1.258 . S
O30 C28 1.247 . S
O30 Zn31 2.028 . S
Zn31 O30 2.028 . S
Zn31 O35 2.035 1_556 S
Zn31 O37 2.035 1_556 S
Zn31 O38 2.028 . S
O32 C28 1.258 . S
O32 Zn33 2.035 1_556 S
Zn33 O32 2.035 1_554 S
Zn33 O34 2.028 . S
Zn33 O36 2.028 . S
Zn33 O39 2.035 1_554 S
O34 Zn33 2.028 . S
O34 C40 1.247 . S
O35 Zn31 2.035 1_554 S
O35 C40 1.258 . S
O36 C29 1.247 . S
O36 Zn33 2.028 . S
O37 C29 1.258 . S
O37 Zn31 2.035 1_554 S
O38 Zn31 2.028 . S
O38 C41 1.247 . S
O39 Zn33 2.035 1_556 S
O39 C41 1.258 . S
C40 O34 1.247 . S
C40 O35 1.258 . S
C41 O38 1.247 . S
C41 O39 1.258 . S
C42 O44 1.247 . S
C42 O46 1.258 . S
C43 O50 1.247 . S
C43 O51 1.258 . S
O44 C42 1.247 . S
O44 Zn45 2.028 . S
Zn45 O44 2.028 . S
Zn45 O49 2.035 1_455 S
Zn45 O51 2.035 1_455 S
Zn45 O52 2.028 . S
O46 C42 1.258 . S
O46 Zn47 2.035 1_455 S
Zn47 O46 2.035 1_655 S
Zn47 O48 2.028 . S
Zn47 O50 2.028 . S
Zn47 O53 2.035 1_655 S
O48 Zn47 2.028 . S
O48 C54 1.247 . S
O49 Zn45 2.035 1_655 S
O49 C54 1.258 . S
O50 C43 1.247 . S
O50 Zn47 2.028 . S
O51 C43 1.258 . S
O51 Zn45 2.035 1_655 S
O52 Zn45 2.028 . S
O52 C55 1.247 . S
O53 Zn47 2.035 1_455 S
O53 C55 1.258 . S
C54 O48 1.247 . S
C54 O49 1.258 . S
C55 O52 1.247 . S
C55 O53 1.258 . S
C56 O58 1.247 . S
C56 O60 1.258 . S
C57 O64 1.247 . S
C57 O65 1.258 . S
O58 C56 1.247 . S
O58 Zn59 2.028 1_565 S
Zn59 O58 2.028 1_545 S
Zn59 O63 2.035 1_554 S
Zn59 O65 2.035 1_554 S
Zn59 O66 2.028 1_545 S
O60 C56 1.258 . S
O60 Zn61 2.035 1_554 S
Zn61 O60 2.035 1_556 S
Zn61 O62 2.028 1_565 S
Zn61 O64 2.028 1_565 S
Zn61 O67 2.035 1_556 S
O62 Zn61 2.028 1_545 S
O62 C68 1.247 . S
O63 Zn59 2.035 1_556 S
O63 C68 1.258 . S
O64 C57 1.247 . S
O64 Zn61 2.028 1_545 S
O65 C57 1.258 . S
O65 Zn59 2.035 1_556 S
O66 Zn59 2.028 1_565 S
O66 C69 1.247 . S
O67 Zn61 2.035 1_554 S
O67 C69 1.258 . S
C68 O62 1.247 . S
C68 O63 1.258 . S
C69 O66 1.247 . S
C69 O67 1.258 . S
C70 O72 1.247 . S
C70 O74 1.258 . S
C71 O78 1.247 . S
C71 O79 1.258 . S
O72 C70 1.247 . S
O72 Zn73 2.028 . S
Zn73 O72 2.028 . S
Zn73 O77 2.035 . S
Zn73 O79 2.035 . S
Zn73 O80 2.028 . S
O74 C70 1.258 . S
O74 Zn75 2.035 . S
Zn75 O74 2.035 . S
Zn75 O76 2.028 . S
Zn75 O78 2.028 . S
Zn75 O81 2.035 . S
O76 Zn75 2.028 . S
O76 C82 1.247 . S
O77 Zn73 2.035 . S
O77 C82 1.258 . S
O78 C71 1.247 . S
O78 Zn75 2.028 . S
O79 C71 1.258 . S
O79 Zn73 2.035 . S
O80 Zn73 2.028 . S
O80 C83 1.247 . S
O81 Zn75 2.035 . S
O81 C83 1.258 . S
C82 O76 1.247 . S
C82 O77 1.258 . S
C83 O80 1.247 . S
C83 O81 1.258 . S
Cu84 N85 1.999 . S
Cu84 O90 1.974 . S
Cu84 N95 1.985 . S
Cu84 O104 1.959 . S
N85 Cu84 1.999 . S
N85 C87 1.263 . S
N85 C89 1.389 . S
N86 C87 1.358 . S
N86 C88 1.400 . S
C87 N85 1.263 . S
C87 N86 1.358 . S
C87 H93 0.930 . S
C88 N86 1.400 . S
C88 C89 1.351 . S
C88 H105 0.930 . S
C89 N85 1.389 . S
C89 C88 1.351 . S
C89 H94 0.930 . S
O90 Cu84 1.974 . S
O90 C100 1.282 . S
C91 O92 1.261 . S
C91 O104 1.251 . S
O92 C91 1.261 . S
H93 C87 0.930 . S
H94 C89 0.930 . S
N95 Cu84 1.985 . S
N95 C97 1.335 . S
N95 C98 1.390 . S
N96 C97 1.345 . S
N96 C99 1.336 . S
C97 N95 1.335 . S
C97 N96 1.345 . S
C97 H102 0.930 . S
C98 N95 1.390 . S
C98 C99 1.346 . S
C98 H103 0.930 . S
C99 N96 1.336 . S
C99 C98 1.346 . S
C99 H106 0.929 . S
C100 O90 1.282 . S
C100 O101 1.216 . S
O101 C100 1.216 . S
H102 C97 0.930 . S
H103 C98 0.930 . S
O104 Cu84 1.959 . S
O104 C91 1.251 . S
H105 C88 0.930 . S
H106 C99 0.929 . S
Cu107 N108 1.999 . S
Cu107 O113 1.974 . S
Cu107 N118 1.985 . S
Cu107 O127 1.959 . S
N108 Cu107 1.999 . S
N108 C110 1.263 . S
N108 C112 1.389 . S
N109 C110 1.358 . S
N109 C111 1.400 . S
C110 N108 1.263 . S
C110 N109 1.358 . S
C110 H116 0.930 . S
C111 N109 1.400 . S
C111 C112 1.351 . S
C111 H128 0.930 . S
C112 N108 1.389 . S
C112 C111 1.351 . S
C112 H117 0.930 . S
O113 Cu107 1.974 . S
O113 C123 1.282 . S
C114 O115 1.261 . S
C114 O127 1.251 . S
O115 C114 1.261 . S
H116 C110 0.930 . S
H117 C112 0.930 . S
N118 Cu107 1.985 . S
N118 C120 1.335 . S
N118 C121 1.390 . S
N119 C120 1.345 . S
N119 C122 1.336 . S
C120 N118 1.335 . S
C120 N119 1.345 . S
C120 H125 0.930 . S
C121 N118 1.390 . S
C121 C122 1.346 . S
C121 H126 0.930 . S
C122 N119 1.336 . S
C122 C121 1.346 . S
C122 H129 0.929 . S
C123 O113 1.282 . S
C123 O124 1.216 . S
O124 C123 1.216 . S
H125 C120 0.930 . S
H126 C121 0.930 . S
O127 Cu107 1.959 . S
O127 C114 1.251 . S
H128 C111 0.930 . S
H129 C122 0.929 . S
Cu130 N131 1.999 . S
Cu130 O136 1.974 . S
Cu130 N141 1.985 . S
Cu130 O150 1.959 . S
N131 Cu130 1.999 . S
N131 C133 1.263 . S
N131 C135 1.389 . S
N132 C133 1.358 . S
N132 C134 1.400 . S
C133 N131 1.263 . S
C133 N132 1.358 . S
C133 H139 0.930 . S
C134 N132 1.400 . S
C134 C135 1.351 . S
C134 H151 0.930 . S
C135 N131 1.389 . S
C135 C134 1.351 . S
C135 H140 0.930 . S
O136 Cu130 1.974 . S
O136 C146 1.282 . S
C137 O138 1.261 . S
C137 O150 1.251 . S
O138 C137 1.261 . S
H139 C133 0.930 . S
H140 C135 0.930 . S
N141 Cu130 1.985 . S
N141 C143 1.335 . S
N141 C144 1.390 . S
N142 C143 1.345 . S
N142 C145 1.336 . S
C143 N141 1.335 . S
C143 N142 1.345 . S
C143 H148 0.930 . S
C144 N141 1.390 . S
C144 C145 1.346 . S
C144 H149 0.930 . S
C145 N142 1.336 . S
C145 C144 1.346 . S
C145 H152 0.929 . S
C146 O136 1.282 . S
C146 O147 1.216 . S
O147 C146 1.216 . S
H148 C143 0.930 . S
H149 C144 0.930 . S
O150 Cu130 1.959 . S
O150 C137 1.251 . S
H151 C134 0.930 . S
H152 C145 0.929 . S
Cu153 N154 1.999 . S
Cu153 O159 1.974 . S
Cu153 N164 1.985 . S
Cu153 O173 1.959 . S
N154 Cu153 1.999 . S
N154 C156 1.263 . S
N154 C158 1.389 . S
N155 C156 1.358 . S
N155 C157 1.400 . S
C156 N154 1.263 . S
C156 N155 1.358 . S
C156 H162 0.930 . S
C157 N155 1.400 . S
C157 C158 1.351 . S
C157 H174 0.930 . S
C158 N154 1.389 . S
C158 C157 1.351 . S
C158 H163 0.930 . S
O159 Cu153 1.974 . S
O159 C169 1.282 . S
C160 O161 1.261 . S
C160 O173 1.251 . S
O161 C160 1.261 . S
H162 C156 0.930 . S
H163 C158 0.930 . S
N164 Cu153 1.985 . S
N164 C166 1.335 . S
N164 C167 1.390 . S
N165 C166 1.345 . S
N165 C168 1.336 . S
C166 N164 1.335 . S
C166 N165 1.345 . S
C166 H171 0.930 . S
C167 N164 1.390 . S
C167 C168 1.346 . S
C167 H172 0.930 . S
C168 N165 1.336 . S
C168 C167 1.346 . S
C168 H175 0.929 . S
C169 O159 1.282 . S
C169 O170 1.216 . S
O170 C169 1.216 . S
H171 C166 0.930 . S
H172 C167 0.930 . S
O173 Cu153 1.959 . S
O173 C160 1.251 . S
H174 C157 0.930 . S
H175 C168 0.929 . S
Cu176 N177 1.999 . S
Cu176 O182 1.974 . S
Cu176 N187 1.985 . S
Cu176 O196 1.959 . S
N177 Cu176 1.999 . S
N177 C179 1.263 . S
N177 C181 1.389 . S
N178 C179 1.358 . S
N178 C180 1.400 . S
C179 N177 1.263 . S
C179 N178 1.358 . S
C179 H185 0.930 . S
C180 N178 1.400 . S
C180 C181 1.351 . S
C180 H197 0.930 . S
C181 N177 1.389 . S
C181 C180 1.351 . S
C181 H186 0.930 . S
O182 Cu176 1.974 . S
O182 C192 1.282 . S
C183 O184 1.261 . S
C183 O196 1.251 . S
O184 C183 1.261 . S
H185 C179 0.930 . S
H186 C181 0.930 . S
N187 Cu176 1.985 . S
N187 C189 1.335 . S
N187 C190 1.390 . S
N188 C189 1.345 . S
N188 C191 1.336 . S
C189 N187 1.335 . S
C189 N188 1.345 . S
C189 H194 0.930 . S
C190 N187 1.390 . S
C190 C191 1.346 . S
C190 H195 0.930 . S
C191 N188 1.336 . S
C191 C190 1.346 . S
C191 H198 0.929 . S
C192 O182 1.282 . S
C192 O193 1.216 . S
O193 C192 1.216 . S
H194 C189 0.930 . S
H195 C190 0.930 . S
O196 Cu176 1.959 . S
O196 C183 1.251 . S
H197 C180 0.930 . S
H198 C191 0.929 . S
Cu199 N200 1.999 . S
Cu199 O205 1.974 . S
Cu199 N210 1.985 . S
Cu199 O219 1.959 . S
N200 Cu199 1.999 . S
N200 C202 1.263 . S
N200 C204 1.389 . S
N201 C202 1.358 . S
N201 C203 1.400 . S
C202 N200 1.263 . S
C202 N201 1.358 . S
C202 H208 0.930 . S
C203 N201 1.400 . S
C203 C204 1.351 . S
C203 H220 0.930 . S
C204 N200 1.389 . S
C204 C203 1.351 . S
C204 H209 0.930 . S
O205 Cu199 1.974 . S
O205 C215 1.282 . S
C206 O207 1.261 . S
C206 O219 1.251 . S
O207 C206 1.261 . S
H208 C202 0.930 . S
H209 C204 0.930 . S
N210 Cu199 1.985 . S
N210 C212 1.335 . S
N210 C213 1.390 . S
N211 C212 1.345 . S
N211 C214 1.336 . S
C212 N210 1.335 . S
C212 N211 1.345 . S
C212 H217 0.930 . S
C213 N210 1.390 . S
C213 C214 1.346 . S
C213 H218 0.930 . S
C214 N211 1.336 . S
C214 C213 1.346 . S
C214 H221 0.929 . S
C215 O205 1.282 . S
C215 O216 1.216 . S
O216 C215 1.216 . S
H217 C212 0.930 . S
H218 C213 0.930 . S
O219 Cu199 1.959 . S
O219 C206 1.251 . S
H220 C203 0.930 . S
H221 C214 0.929 . S
C222 C223 1.391 . S
C222 C224 1.394 . S
C222 H238 0.931 . S
C223 C222 1.391 . S
C223 C227 1.376 . S
C224 C222 1.394 . S
C224 C225 1.369 . S
C224 C228 1.531 . S
C225 C224 1.369 . S
C225 C226 1.410 . S
C225 C233 1.503 . S
C226 C225 1.410 . S
C226 C227 1.392 . S
C226 C229 1.511 . S
C227 C223 1.376 . S
C227 C226 1.392 . S
C227 H239 0.929 . S
C228 C224 1.531 . S
C228 H240 0.960 . S
C228 H241 0.962 . S
C228 H242 0.960 . S
C229 C226 1.511 . S
C229 H243 0.961 . S
C229 H244 0.961 . S
C229 H245 0.961 . S
C230 C231 1.370 . S
C230 C232 1.363 . S
C230 H246 0.931 . S
C231 C230 1.370 . S
C231 C235 1.408 . S
C232 C230 1.363 . S
C232 C233 1.370 . S
C232 C236 1.524 . S
C233 C225 1.503 . S
C233 C232 1.370 . S
C233 C234 1.403 . S
C234 C233 1.403 . S
C234 C235 1.404 . S
C234 C237 1.539 . S
C235 C231 1.408 . S
C235 C234 1.404 . S
C235 H247 0.930 . S
C236 C232 1.524 . S
C236 H248 0.956 . S
C236 H249 0.961 . S
C236 H250 0.961 . S
C237 C234 1.539 . S
C237 H251 0.958 . S
C237 H252 0.961 . S
C237 H253 0.960 . S
H238 C222 0.931 . S
H239 C227 0.929 . S
H240 C228 0.960 . S
H241 C228 0.962 . S
H242 C228 0.960 . S
H243 C229 0.961 . S
H244 C229 0.961 . S
H245 C229 0.961 . S
H246 C230 0.931 . S
H247 C235 0.930 . S
H248 C236 0.956 . S
H249 C236 0.961 . S
H250 C236 0.961 . S
H251 C237 0.958 . S
H252 C237 0.961 . S
H253 C237 0.960 . S
C254 C255 1.391 . S
C254 C256 1.394 . S
C254 H270 0.931 . S
C255 C254 1.391 . S
C255 C259 1.376 . S
C256 C254 1.394 . S
C256 C257 1.369 . S
C256 C260 1.531 . S
C257 C256 1.369 . S
C257 C258 1.410 . S
C257 C265 1.503 . S
C258 C257 1.410 . S
C258 C259 1.392 . S
C258 C261 1.511 . S
C259 C255 1.376 . S
C259 C258 1.392 . S
C259 H271 0.929 . S
C260 C256 1.531 . S
C260 H272 0.960 . S
C260 H273 0.962 . S
C260 H274 0.960 . S
C261 C258 1.511 . S
C261 H275 0.961 . S
C261 H276 0.961 . S
C261 H277 0.961 . S
C262 C263 1.370 . S
C262 C264 1.363 . S
C262 H278 0.931 . S
C263 C262 1.370 . S
C263 C267 1.408 . S
C264 C262 1.363 . S
C264 C265 1.370 . S
C264 C268 1.524 . S
C265 C257 1.503 . S
C265 C264 1.370 . S
C265 C266 1.403 . S
C266 C265 1.403 . S
C266 C267 1.404 . S
C266 C269 1.539 . S
C267 C263 1.408 . S
C267 C266 1.404 . S
C267 H279 0.930 . S
C268 C264 1.524 . S
C268 H280 0.956 . S
C268 H281 0.961 . S
C268 H282 0.961 . S
C269 C266 1.539 . S
C269 H283 0.958 . S
C269 H284 0.961 . S
C269 H285 0.960 . S
H270 C254 0.931 . S
H271 C259 0.929 . S
H272 C260 0.960 . S
H273 C260 0.962 . S
H274 C260 0.960 . S
H275 C261 0.961 . S
H276 C261 0.961 . S
H277 C261 0.961 . S
H278 C262 0.931 . S
H279 C267 0.930 . S
H280 C268 0.956 . S
H281 C268 0.961 . S
H282 C268 0.961 . S
H283 C269 0.958 . S
H284 C269 0.961 . S
H285 C269 0.960 . S
C286 C287 1.391 . S
C286 C288 1.394 . S
C286 H302 0.931 . S
C287 C286 1.391 . S
C287 C291 1.376 . S
C288 C286 1.394 . S
C288 C289 1.369 . S
C288 C292 1.531 . S
C289 C288 1.369 . S
C289 C290 1.410 . S
C289 C297 1.503 . S
C290 C289 1.410 . S
C290 C291 1.392 . S
C290 C293 1.511 . S
C291 C287 1.376 . S
C291 C290 1.392 . S
C291 H303 0.929 . S
C292 C288 1.531 . S
C292 H304 0.960 . S
C292 H305 0.962 . S
C292 H306 0.960 . S
C293 C290 1.511 . S
C293 H307 0.961 . S
C293 H308 0.961 . S
C293 H309 0.961 . S
C294 C295 1.370 . S
C294 C296 1.363 . S
C294 H310 0.931 . S
C295 C294 1.370 . S
C295 C299 1.408 . S
C296 C294 1.363 . S
C296 C297 1.370 . S
C296 C300 1.524 . S
C297 C289 1.503 . S
C297 C296 1.370 . S
C297 C298 1.403 . S
C298 C297 1.403 . S
C298 C299 1.404 . S
C298 C301 1.539 . S
C299 C295 1.408 . S
C299 C298 1.404 . S
C299 H311 0.930 . S
C300 C296 1.524 . S
C300 H312 0.956 . S
C300 H313 0.961 . S
C300 H314 0.961 . S
C301 C298 1.539 . S
C301 H315 0.958 . S
C301 H316 0.961 . S
C301 H317 0.960 . S
H302 C286 0.931 . S
H303 C291 0.929 . S
H304 C292 0.960 . S
H305 C292 0.962 . S
H306 C292 0.960 . S
H307 C293 0.961 . S
H308 C293 0.961 . S
H309 C293 0.961 . S
H310 C294 0.931 . S
H311 C299 0.930 . S
H312 C300 0.956 . S
H313 C300 0.961 . S
H314 C300 0.961 . S
H315 C301 0.958 . S
H316 C301 0.961 . S
H317 C301 0.960 . S
C318 C319 1.391 . S
C318 C320 1.394 . S
C318 H334 0.931 . S
C319 C318 1.391 . S
C319 C323 1.376 . S
C320 C318 1.394 . S
C320 C321 1.369 . S
C320 C324 1.531 . S
C321 C320 1.369 . S
C321 C322 1.410 . S
C321 C329 1.503 . S
C322 C321 1.410 . S
C322 C323 1.392 . S
C322 C325 1.511 . S
C323 C319 1.376 . S
C323 C322 1.392 . S
C323 H335 0.929 . S
C324 C320 1.531 . S
C324 H336 0.960 . S
C324 H337 0.962 . S
C324 H338 0.960 . S
C325 C322 1.511 . S
C325 H339 0.961 . S
C325 H340 0.961 . S
C325 H341 0.961 . S
C326 C327 1.370 . S
C326 C328 1.363 . S
C326 H342 0.931 . S
C327 C326 1.370 . S
C327 C331 1.408 . S
C328 C326 1.363 . S
C328 C329 1.370 . S
C328 C332 1.524 . S
C329 C321 1.503 . S
C329 C328 1.370 . S
C329 C330 1.403 . S
C330 C329 1.403 . S
C330 C331 1.404 . S
C330 C333 1.539 . S
C331 C327 1.408 . S
C331 C330 1.404 . S
C331 H343 0.930 . S
C332 C328 1.524 . S
C332 H344 0.956 . S
C332 H345 0.961 . S
C332 H346 0.961 . S
C333 C330 1.539 . S
C333 H347 0.958 . S
C333 H348 0.961 . S
C333 H349 0.960 . S
H334 C318 0.931 . S
H335 C323 0.929 . S
H336 C324 0.960 . S
H337 C324 0.962 . S
H338 C324 0.960 . S
H339 C325 0.961 . S
H340 C325 0.961 . S
H341 C325 0.961 . S
H342 C326 0.931 . S
H343 C331 0.930 . S
H344 C332 0.956 . S
H345 C332 0.961 . S
H346 C332 0.961 . S
H347 C333 0.958 . S
H348 C333 0.961 . S
H349 C333 0.960 . S
C350 C351 1.391 . S
C350 C352 1.394 . S
C350 H366 0.931 . S
C351 C350 1.391 . S
C351 C355 1.376 . S
C352 C350 1.394 . S
C352 C353 1.369 . S
C352 C356 1.531 . S
C353 C352 1.369 . S
C353 C354 1.410 . S
C353 C361 1.503 . S
C354 C353 1.410 . S
C354 C355 1.392 . S
C354 C357 1.511 . S
C355 C351 1.376 . S
C355 C354 1.392 . S
C355 H367 0.929 . S
C356 C352 1.531 . S
C356 H368 0.960 . S
C356 H369 0.962 . S
C356 H370 0.960 . S
C357 C354 1.511 . S
C357 H371 0.961 . S
C357 H372 0.961 . S
C357 H373 0.961 . S
C358 C359 1.370 . S
C358 C360 1.363 . S
C358 H374 0.931 . S
C359 C358 1.370 . S
C359 C363 1.408 . S
C360 C358 1.363 . S
C360 C361 1.370 . S
C360 C364 1.524 . S
C361 C353 1.503 . S
C361 C360 1.370 . S
C361 C362 1.403 . S
C362 C361 1.403 . S
C362 C363 1.404 . S
C362 C365 1.539 . S
C363 C359 1.408 . S
C363 C362 1.404 . S
C363 H375 0.930 . S
C364 C360 1.524 . S
C364 H376 0.956 . S
C364 H377 0.961 . S
C364 H378 0.961 . S
C365 C362 1.539 . S
C365 H379 0.958 . S
C365 H380 0.961 . S
C365 H381 0.960 . S
H366 C350 0.931 . S
H367 C355 0.929 . S
H368 C356 0.960 . S
H369 C356 0.962 . S
H370 C356 0.960 . S
H371 C357 0.961 . S
H372 C357 0.961 . S
H373 C357 0.961 . S
H374 C358 0.931 . S
H375 C363 0.930 . S
H376 C364 0.956 . S
H377 C364 0.961 . S
H378 C364 0.961 . S
H379 C365 0.958 . S
H380 C365 0.961 . S
H381 C365 0.960 . S
C382 C383 1.391 . S
C382 C384 1.394 . S
C382 H398 0.931 . S
C383 C382 1.391 . S
C383 C387 1.376 . S
C384 C382 1.394 . S
C384 C385 1.369 . S
C384 C388 1.531 . S
C385 C384 1.369 . S
C385 C386 1.410 . S
C385 C393 1.503 . S
C386 C385 1.410 . S
C386 C387 1.392 . S
C386 C389 1.511 . S
C387 C383 1.376 . S
C387 C386 1.392 . S
C387 H399 0.929 . S
C388 C384 1.531 . S
C388 H400 0.960 . S
C388 H401 0.962 . S
C388 H402 0.960 . S
C389 C386 1.511 . S
C389 H403 0.961 . S
C389 H404 0.961 . S
C389 H405 0.961 . S
C390 C391 1.370 . S
C390 C392 1.363 . S
C390 H406 0.931 . S
C391 C390 1.370 . S
C391 C395 1.408 . S
C392 C390 1.363 . S
C392 C393 1.370 . S
C392 C396 1.524 . S
C393 C385 1.503 . S
C393 C392 1.370 . S
C393 C394 1.403 . S
C394 C393 1.403 . S
C394 C395 1.404 . S
C394 C397 1.539 . S
C395 C391 1.408 . S
C395 C394 1.404 . S
C395 H407 0.930 . S
C396 C392 1.524 . S
C396 H408 0.956 . S
C396 H409 0.961 . S
C396 H410 0.961 . S
C397 C394 1.539 . S
C397 H411 0.958 . S
C397 H412 0.961 . S
C397 H413 0.960 . S
H398 C382 0.931 . S
H399 C387 0.929 . S
H400 C388 0.960 . S
H401 C388 0.962 . S
H402 C388 0.960 . S
H403 C389 0.961 . S
H404 C389 0.961 . S
H405 C389 0.961 . S
H406 C390 0.931 . S
H407 C395 0.930 . S
H408 C396 0.956 . S
H409 C396 0.961 . S
H410 C396 0.961 . S
H411 C397 0.958 . S
H412 C397 0.961 . S
H413 C397 0.960 . S
C414 C415 1.391 . S
C414 C416 1.394 . S
C414 H430 0.931 . S
C415 C414 1.391 . S
C415 C419 1.376 . S
C416 C414 1.394 . S
C416 C417 1.369 . S
C416 C420 1.531 . S
C417 C416 1.369 . S
C417 C418 1.410 . S
C417 C425 1.503 . S
C418 C417 1.410 . S
C418 C419 1.392 . S
C418 C421 1.511 . S
C419 C415 1.376 . S
C419 C418 1.392 . S
C419 H431 0.929 . S
C420 C416 1.531 . S
C420 H432 0.960 . S
C420 H433 0.962 . S
C420 H434 0.964 1_565 S
C421 C418 1.511 . S
C421 H435 0.961 . S
C421 H436 0.961 . S
C421 H437 0.961 . S
C422 C423 1.370 . S
C422 C424 1.363 . S
C422 H438 0.931 . S
C423 C422 1.370 . S
C423 C427 1.408 . S
C424 C422 1.363 . S
C424 C425 1.370 . S
C424 C428 1.524 . S
C425 C417 1.503 . S
C425 C424 1.370 . S
C425 C426 1.403 . S
C426 C425 1.403 . S
C426 C427 1.404 . S
C426 C429 1.539 . S
C427 C423 1.408 . S
C427 C426 1.404 . S
C427 H439 0.930 . S
C428 C424 1.524 . S
C428 H440 0.956 . S
C428 H441 0.961 . S
C428 H442 0.961 . S
C429 C426 1.539 . S
C429 H443 0.958 . S
C429 H444 0.961 . S
C429 H445 0.960 . S
H430 C414 0.931 . S
H431 C419 0.929 . S
H432 C420 0.960 . S
H433 C420 0.962 . S
H434 C420 0.964 1_545 S
H435 C421 0.961 . S
H436 C421 0.961 . S
H437 C421 0.961 . S
H438 C422 0.931 . S
H439 C427 0.930 . S
H440 C428 0.956 . S
H441 C428 0.961 . S
H442 C428 0.961 . S
H443 C429 0.958 . S
H444 C429 0.961 . S
H445 C429 0.960 . S
C446 C447 1.391 . S
C446 C448 1.394 . S
C446 H462 0.931 . S
C447 C446 1.391 . S
C447 C451 1.376 . S
C448 C446 1.394 . S
C448 C449 1.369 . S
C448 C452 1.531 . S
C449 C448 1.369 . S
C449 C450 1.410 . S
C449 C457 1.503 . S
C450 C449 1.410 . S
C450 C451 1.392 . S
C450 C453 1.511 . S
C451 C447 1.376 . S
C451 C450 1.392 . S
C451 H463 0.929 . S
C452 C448 1.531 . S
C452 H464 0.960 . S
C452 H465 0.962 . S
C452 H466 0.960 . S
C453 C450 1.511 . S
C453 H467 0.961 . S
C453 H468 0.961 . S
C453 H469 0.961 . S
C454 C455 1.370 . S
C454 C456 1.363 . S
C454 H470 0.931 . S
C455 C454 1.370 . S
C455 C459 1.408 . S
C456 C454 1.363 . S
C456 C457 1.370 . S
C456 C460 1.524 . S
C457 C449 1.503 . S
C457 C456 1.370 . S
C457 C458 1.403 . S
C458 C457 1.403 . S
C458 C459 1.404 . S
C458 C461 1.539 . S
C459 C455 1.408 . S
C459 C458 1.404 . S
C459 H471 0.930 . S
C460 C456 1.524 . S
C460 H472 0.956 . S
C460 H473 0.961 . S
C460 H474 0.961 . S
C461 C458 1.539 . S
C461 H475 0.958 . S
C461 H476 0.961 . S
C461 H477 0.960 . S
H462 C446 0.931 . S
H463 C451 0.929 . S
H464 C452 0.960 . S
H465 C452 0.962 . S
H466 C452 0.960 . S
H467 C453 0.961 . S
H468 C453 0.961 . S
H469 C453 0.961 . S
H470 C454 0.931 . S
H471 C459 0.930 . S
H472 C460 0.956 . S
H473 C460 0.961 . S
H474 C460 0.961 . S
H475 C461 0.958 . S
H476 C461 0.961 . S
H477 C461 0.960 . S
C478 C479 1.391 . S
C478 C480 1.394 . S
C478 H494 0.931 . S
C479 C478 1.391 . S
C479 C483 1.376 . S
C480 C478 1.394 . S
C480 C481 1.369 . S
C480 C484 1.531 . S
C481 C480 1.369 . S
C481 C482 1.410 . S
C481 C489 1.503 . S
C482 C481 1.410 . S
C482 C483 1.392 . S
C482 C485 1.511 . S
C483 C479 1.376 . S
C483 C482 1.392 . S
C483 H495 0.929 . S
C484 C480 1.531 . S
C484 H496 0.960 . S
C484 H497 0.962 . S
C484 H498 0.960 . S
C485 C482 1.511 . S
C485 H499 0.961 . S
C485 H500 0.961 . S
C485 H501 0.961 . S
C486 C487 1.370 . S
C486 C488 1.363 . S
C486 H502 0.931 . S
C487 C486 1.370 . S
C487 C491 1.408 . S
C488 C486 1.363 . S
C488 C489 1.370 . S
C488 C492 1.524 . S
C489 C481 1.503 . S
C489 C488 1.370 . S
C489 C490 1.403 . S
C490 C489 1.403 . S
C490 C491 1.404 . S
C490 C493 1.539 . S
C491 C487 1.408 . S
C491 C490 1.404 . S
C491 H503 0.930 . S
C492 C488 1.524 . S
C492 H504 0.956 . S
C492 H505 0.961 . S
C492 H506 0.961 . S
C493 C490 1.539 . S
C493 H507 0.958 . S
C493 H508 0.961 . S
C493 H509 0.960 . S
H494 C478 0.931 . S
H495 C483 0.929 . S
H496 C484 0.960 . S
H497 C484 0.962 . S
H498 C484 0.960 . S
H499 C485 0.961 . S
H500 C485 0.961 . S
H501 C485 0.961 . S
H502 C486 0.931 . S
H503 C491 0.930 . S
H504 C492 0.956 . S
H505 C492 0.961 . S
H506 C492 0.961 . S
H507 C493 0.958 . S
H508 C493 0.961 . S
H509 C493 0.960 . S
C510 C511 1.391 . S
C510 C512 1.394 . S
C510 H526 0.931 . S
C511 C510 1.391 . S
C511 C515 1.376 . S
C512 C510 1.394 . S
C512 C513 1.369 . S
C512 C516 1.531 . S
C513 C512 1.369 . S
C513 C514 1.410 . S
C513 C521 1.503 . S
C514 C513 1.410 . S
C514 C515 1.392 . S
C514 C517 1.511 . S
C515 C511 1.376 . S
C515 C514 1.392 . S
C515 H527 0.929 . S
C516 C512 1.531 . S
C516 H528 0.960 . S
C516 H529 0.962 . S
C516 H530 0.960 . S
C517 C514 1.511 . S
C517 H531 0.961 . S
C517 H532 0.961 . S
C517 H533 0.961 . S
C518 C519 1.370 . S
C518 C520 1.363 . S
C518 H534 0.931 . S
C519 C518 1.370 . S
C519 C523 1.408 . S
C520 C518 1.363 . S
C520 C521 1.370 . S
C520 C524 1.524 . S
C521 C513 1.503 . S
C521 C520 1.370 . S
C521 C522 1.403 . S
C522 C521 1.403 . S
C522 C523 1.404 . S
C522 C525 1.539 . S
C523 C519 1.408 . S
C523 C522 1.404 . S
C523 H535 0.930 . S
C524 C520 1.524 . S
C524 H536 0.956 . S
C524 H537 0.961 . S
C524 H538 0.961 . S
C525 C522 1.539 . S
C525 H539 0.958 . S
C525 H540 0.961 . S
C525 H541 0.960 . S
H526 C510 0.931 . S
H527 C515 0.929 . S
H528 C516 0.960 . S
H529 C516 0.962 . S
H530 C516 0.960 . S
H531 C517 0.961 . S
H532 C517 0.961 . S
H533 C517 0.961 . S
H534 C518 0.931 . S
H535 C523 0.930 . S
H536 C524 0.956 . S
H537 C524 0.961 . S
H538 C524 0.961 . S
H539 C525 0.958 . S
H540 C525 0.961 . S
H541 C525 0.960 . S
C542 C543 1.391 . S
C542 C544 1.394 . S
C542 H558 0.931 . S
C543 C542 1.391 . S
C543 C547 1.376 . S
C544 C542 1.394 . S
C544 C545 1.369 . S
C544 C548 1.531 . S
C545 C544 1.369 . S
C545 C546 1.410 . S
C545 C553 1.503 . S
C546 C545 1.410 . S
C546 C547 1.392 . S
C546 C549 1.511 . S
C547 C543 1.376 . S
C547 C546 1.392 . S
C547 H559 0.929 . S
C548 C544 1.531 . S
C548 H560 0.960 . S
C548 H561 0.962 . S
C548 H562 0.960 . S
C549 C546 1.511 . S
C549 H563 0.961 . S
C549 H564 0.961 . S
C549 H565 0.961 . S
C550 C551 1.370 . S
C550 C552 1.363 . S
C550 H566 0.931 . S
C551 C550 1.370 . S
C551 C555 1.408 . S
C552 C550 1.363 . S
C552 C553 1.370 . S
C552 C556 1.524 . S
C553 C545 1.503 . S
C553 C552 1.370 . S
C553 C554 1.403 . S
C554 C553 1.403 . S
C554 C555 1.404 . S
C554 C557 1.539 . S
C555 C551 1.408 . S
C555 C554 1.404 . S
C555 H567 0.930 . S
C556 C552 1.524 . S
C556 H568 0.956 . S
C556 H569 0.961 . S
C556 H570 0.961 . S
C557 C554 1.539 . S
C557 H571 0.958 . S
C557 H572 0.961 . S
C557 H573 0.960 . S
H558 C542 0.931 . S
H559 C547 0.929 . S
H560 C548 0.960 . S
H561 C548 0.962 . S
H562 C548 0.960 . S
H563 C549 0.961 . S
H564 C549 0.961 . S
H565 C549 0.961 . S
H566 C550 0.931 . S
H567 C555 0.930 . S
H568 C556 0.956 . S
H569 C556 0.961 . S
H570 C556 0.961 . S
H571 C557 0.958 . S
H572 C557 0.961 . S
H573 C557 0.960 . S
C574 C575 1.391 . S
C574 C576 1.394 . S
C574 H590 0.931 . S
C575 C574 1.391 . S
C575 C579 1.376 . S
C576 C574 1.394 . S
C576 C577 1.369 . S
C576 C580 1.531 . S
C577 C576 1.369 . S
C577 C578 1.410 . S
C577 C585 1.503 . S
C578 C577 1.410 . S
C578 C579 1.392 . S
C578 C581 1.511 . S
C579 C575 1.376 . S
C579 C578 1.392 . S
C579 H591 0.908 1_655 S
C580 C576 1.531 . S
C580 H592 0.960 . S
C580 H593 0.962 . S
C580 H594 0.960 . S
C581 C578 1.511 . S
C581 H595 0.961 1_655 S
C581 H596 0.961 . S
C581 H597 0.954 1_655 S
C582 C583 1.370 . S
C582 C584 1.363 . S
C582 H598 0.931 . S
C583 C582 1.370 . S
C583 C587 1.408 . S
C584 C582 1.363 . S
C584 C585 1.370 . S
C584 C588 1.524 . S
C585 C577 1.503 . S
C585 C584 1.370 . S
C585 C586 1.403 . S
C586 C585 1.403 . S
C586 C587 1.404 . S
C586 C589 1.539 . S
C587 C583 1.408 . S
C587 C586 1.404 . S
C587 H599 0.930 . S
C588 C584 1.524 . S
C588 H600 0.956 . S
C588 H601 0.961 . S
C588 H602 0.961 . S
C589 C586 1.539 . S
C589 H603 0.958 . S
C589 H604 0.961 . S
C589 H605 0.960 . S
H590 C574 0.931 . S
H591 C579 0.908 1_455 S
H592 C580 0.960 . S
H593 C580 0.962 . S
H594 C580 0.960 . S
H595 C581 0.961 1_455 S
H596 C581 0.961 . S
H597 C581 0.954 1_455 S
H598 C582 0.931 . S
H599 C587 0.930 . S
H600 C588 0.956 . S
H601 C588 0.961 . S
H602 C588 0.961 . S
H603 C589 0.958 . S
H604 C589 0.961 . S
H605 C589 0.960 . S
C606 C607 1.391 . S
C606 C608 1.394 . S
C606 H622 0.931 . S
C607 C606 1.391 . S
C607 C611 1.376 . S
C608 C606 1.394 . S
C608 C609 1.369 . S
C608 C612 1.531 . S
C609 C608 1.369 . S
C609 C610 1.410 . S
C609 C617 1.503 . S
C610 C609 1.410 . S
C610 C611 1.392 . S
C610 C613 1.511 . S
C611 C607 1.376 . S
C611 C610 1.392 . S
C611 H623 0.929 . S
C612 C608 1.531 . S
C612 H624 0.960 . S
C612 H625 0.962 . S
C612 H626 0.960 . S
C613 C610 1.511 . S
C613 H627 0.961 . S
C613 H628 0.961 . S
C613 H629 0.961 . S
C614 C615 1.370 . S
C614 C616 1.363 . S
C614 H630 0.931 . S
C615 C614 1.370 . S
C615 C619 1.408 . S
C616 C614 1.363 . S
C616 C617 1.370 . S
C616 C620 1.524 . S
C617 C609 1.503 . S
C617 C616 1.370 . S
C617 C618 1.403 . S
C618 C617 1.403 . S
C618 C619 1.404 . S
C618 C621 1.539 . S
C619 C615 1.408 . S
C619 C618 1.404 . S
C619 H631 0.930 . S
C620 C616 1.524 . S
C620 H632 0.956 . S
C620 H633 0.961 . S
C620 H634 0.961 . S
C621 C618 1.539 . S
C621 H635 0.958 . S
C621 H636 0.961 . S
C621 H637 0.960 . S
H622 C606 0.931 . S
H623 C611 0.929 . S
H624 C612 0.960 . S
H625 C612 0.962 . S
H626 C612 0.960 . S
H627 C613 0.961 . S
H628 C613 0.961 . S
H629 C613 0.961 . S
H630 C614 0.931 . S
H631 C619 0.930 . S
H632 C620 0.956 . S
H633 C620 0.961 . S
H634 C620 0.961 . S
H635 C621 0.958 . S
H636 C621 0.961 . S
H637 C621 0.960 . S
C638 C639 1.391 . S
C638 C640 1.394 . S
C638 H654 0.931 . S
C639 C638 1.391 . S
C639 C643 1.376 . S
C640 C638 1.394 . S
C640 C641 1.369 . S
C640 C644 1.531 . S
C641 C640 1.369 . S
C641 C642 1.410 . S
C641 C649 1.503 . S
C642 C641 1.410 . S
C642 C643 1.392 . S
C642 C645 1.511 . S
C643 C639 1.376 . S
C643 C642 1.392 . S
C643 H655 0.929 . S
C644 C640 1.531 . S
C644 H656 0.960 . S
C644 H657 0.962 . S
C644 H658 0.960 . S
C645 C642 1.511 . S
C645 H659 0.961 . S
C645 H660 0.961 . S
C645 H661 0.961 . S
C646 C647 1.370 . S
C646 C648 1.363 . S
C646 H662 0.931 . S
C647 C646 1.370 . S
C647 C651 1.408 . S
C648 C646 1.363 . S
C648 C649 1.370 . S
C648 C652 1.524 . S
C649 C641 1.503 . S
C649 C648 1.370 . S
C649 C650 1.403 . S
C650 C649 1.403 . S
C650 C651 1.404 . S
C650 C653 1.539 . S
C651 C647 1.408 . S
C651 C650 1.404 . S
C651 H663 0.930 . S
C652 C648 1.524 . S
C652 H664 0.956 . S
C652 H665 0.961 . S
C652 H666 0.961 . S
C653 C650 1.539 . S
C653 H667 0.958 . S
C653 H668 0.961 . S
C653 H669 0.960 . S
H654 C638 0.931 . S
H655 C643 0.929 . S
H656 C644 0.960 . S
H657 C644 0.962 . S
H658 C644 0.960 . S
H659 C645 0.961 . S
H660 C645 0.961 . S
H661 C645 0.961 . S
H662 C646 0.931 . S
H663 C651 0.930 . S
H664 C652 0.956 . S
H665 C652 0.961 . S
H666 C652 0.961 . S
H667 C653 0.958 . S
H668 C653 0.961 . S
H669 C653 0.960 . S
C670 C671 1.391 . S
C670 C672 1.394 . S
C670 H686 0.931 . S
C671 C670 1.391 . S
C671 C675 1.376 . S
C672 C670 1.394 . S
C672 C673 1.369 . S
C672 C676 1.531 . S
C673 C672 1.369 . S
C673 C674 1.410 . S
C673 C681 1.503 . S
C674 C673 1.410 . S
C674 C675 1.392 . S
C674 C677 1.511 . S
C675 C671 1.376 . S
C675 C674 1.392 . S
C675 H687 0.929 . S
C676 C672 1.531 . S
C676 H688 0.960 . S
C676 H689 0.962 . S
C676 H690 0.960 . S
C677 C674 1.511 . S
C677 H691 0.961 . S
C677 H692 0.961 . S
C677 H693 0.961 . S
C678 C679 1.370 . S
C678 C680 1.363 . S
C678 H694 0.931 . S
C679 C678 1.370 . S
C679 C683 1.408 . S
C680 C678 1.363 . S
C680 C681 1.370 . S
C680 C684 1.524 . S
C681 C673 1.503 . S
C681 C680 1.370 . S
C681 C682 1.403 . S
C682 C681 1.403 . S
C682 C683 1.404 . S
C682 C685 1.539 . S
C683 C679 1.408 . S
C683 C682 1.404 . S
C683 H695 0.930 . S
C684 C680 1.524 . S
C684 H696 0.956 . S
C684 H697 0.961 . S
C684 H698 0.961 . S
C685 C682 1.539 . S
C685 H699 0.958 . S
C685 H700 0.961 . S
C685 H701 0.960 . S
H686 C670 0.931 . S
H687 C675 0.929 . S
H688 C676 0.960 . S
H689 C676 0.962 . S
H690 C676 0.960 . S
H691 C677 0.961 . S
H692 C677 0.961 . S
H693 C677 0.961 . S
H694 C678 0.931 . S
H695 C683 0.930 . S
H696 C684 0.956 . S
H697 C684 0.961 . S
H698 C684 0.961 . S
H699 C685 0.958 . S
H700 C685 0.961 . S
H701 C685 0.960 . S
C702 C703 1.391 . S
C702 C704 1.394 . S
C702 H718 0.931 . S
C703 C702 1.391 . S
C703 C707 1.376 . S
C704 C702 1.394 . S
C704 C705 1.369 . S
C704 C708 1.531 . S
C705 C704 1.369 . S
C705 C706 1.410 . S
C705 C713 1.503 . S
C706 C705 1.410 . S
C706 C707 1.392 . S
C706 C709 1.511 . S
C707 C703 1.376 . S
C707 C706 1.392 . S
C707 H719 0.929 . S
C708 C704 1.531 . S
C708 H720 0.960 . S
C708 H721 0.962 . S
C708 H722 0.960 . S
C709 C706 1.511 . S
C709 H723 0.961 . S
C709 H724 0.961 . S
C709 H725 0.961 . S
C710 C711 1.370 . S
C710 C712 1.363 . S
C710 H726 0.931 . S
C711 C710 1.370 . S
C711 C715 1.408 . S
C712 C710 1.363 . S
C712 C713 1.370 . S
C712 C716 1.524 . S
C713 C705 1.503 . S
C713 C712 1.370 . S
C713 C714 1.403 . S
C714 C713 1.403 . S
C714 C715 1.404 . S
C714 C717 1.539 . S
C715 C711 1.408 . S
C715 C714 1.404 . S
C715 H727 0.930 . S
C716 C712 1.524 . S
C716 H728 0.956 . S
C716 H729 0.961 . S
C716 H730 0.961 . S
C717 C714 1.539 . S
C717 H731 0.958 . S
C717 H732 0.961 . S
C717 H733 0.960 . S
H718 C702 0.931 . S
H719 C707 0.929 . S
H720 C708 0.960 . S
H721 C708 0.962 . S
H722 C708 0.960 . S
H723 C709 0.961 . S
H724 C709 0.961 . S
H725 C709 0.961 . S
H726 C710 0.931 . S
H727 C715 0.930 . S
H728 C716 0.956 . S
H729 C716 0.961 . S
H730 C716 0.961 . S
H731 C717 0.958 . S
H732 C717 0.961 . S
H733 C717 0.960 . S
C734 C735 1.391 . S
C734 C736 1.394 . S
C734 H750 0.931 . S
C735 C734 1.391 . S
C735 C739 1.376 . S
C736 C734 1.394 . S
C736 C737 1.369 . S
C736 C740 1.531 . S
C737 C736 1.369 . S
C737 C738 1.410 . S
C737 C745 1.503 . S
C738 C737 1.410 . S
C738 C739 1.392 . S
C738 C741 1.511 . S
C739 C735 1.376 . S
C739 C738 1.392 . S
C739 H751 0.929 . S
C740 C736 1.531 . S
C740 H752 0.960 . S
C740 H753 0.962 . S
C740 H754 0.960 . S
C741 C738 1.511 . S
C741 H755 0.961 . S
C741 H756 0.961 . S
C741 H757 0.961 . S
C742 C743 1.370 . S
C742 C744 1.363 . S
C742 H758 0.931 . S
C743 C742 1.370 . S
C743 C747 1.408 . S
C744 C742 1.363 . S
C744 C745 1.370 . S
C744 C748 1.524 . S
C745 C737 1.503 . S
C745 C744 1.370 . S
C745 C746 1.403 . S
C746 C745 1.403 . S
C746 C747 1.404 . S
C746 C749 1.539 . S
C747 C743 1.408 . S
C747 C746 1.404 . S
C747 H759 0.930 . S
C748 C744 1.524 . S
C748 H760 0.956 . S
C748 H761 0.961 . S
C748 H762 0.961 . S
C749 C746 1.539 . S
C749 H763 0.958 . S
C749 H764 0.961 . S
C749 H765 0.960 . S
H750 C734 0.931 . S
H751 C739 0.929 . S
H752 C740 0.960 . S
H753 C740 0.962 . S
H754 C740 0.960 . S
H755 C741 0.961 . S
H756 C741 0.961 . S
H757 C741 0.961 . S
H758 C742 0.931 . S
H759 C747 0.930 . S
H760 C748 0.956 . S
H761 C748 0.961 . S
H762 C748 0.961 . S
H763 C749 0.958 . S
H764 C749 0.961 . S
H765 C749 0.960 . S
C766 C767 1.391 . S
C766 C768 1.394 . S
C766 H782 0.931 . S
C767 C766 1.391 . S
C767 C771 1.376 . S
C768 C766 1.394 . S
C768 C769 1.369 . S
C768 C772 1.531 . S
C769 C768 1.369 . S
C769 C770 1.410 . S
C769 C777 1.503 . S
C770 C769 1.410 . S
C770 C771 1.392 . S
C770 C773 1.511 . S
C771 C767 1.376 . S
C771 C770 1.392 . S
C771 H783 0.929 . S
C772 C768 1.531 . S
C772 H784 0.960 . S
C772 H785 0.962 . S
C772 H786 0.960 . S
C773 C770 1.511 . S
C773 H787 0.961 . S
C773 H788 0.961 . S
C773 H789 0.961 . S
C774 C775 1.370 . S
C774 C776 1.363 . S
C774 H790 0.931 . S
C775 C774 1.370 . S
C775 C779 1.408 . S
C776 C774 1.363 . S
C776 C777 1.370 . S
C776 C780 1.524 . S
C777 C769 1.503 . S
C777 C776 1.370 . S
C777 C778 1.403 . S
C778 C777 1.403 . S
C778 C779 1.404 . S
C778 C781 1.539 . S
C779 C775 1.408 . S
C779 C778 1.404 . S
C779 H791 0.930 . S
C780 C776 1.524 . S
C780 H792 0.956 . S
C780 H793 0.961 . S
C780 H794 0.961 . S
C781 C778 1.539 . S
C781 H795 0.958 . S
C781 H796 0.961 . S
C781 H797 0.960 . S
H782 C766 0.931 . S
H783 C771 0.929 . S
H784 C772 0.960 . S
H785 C772 0.962 . S
H786 C772 0.960 . S
H787 C773 0.961 . S
H788 C773 0.961 . S
H789 C773 0.961 . S
H790 C774 0.931 . S
H791 C779 0.930 . S
H792 C780 0.956 . S
H793 C780 0.961 . S
H794 C780 0.961 . S
H795 C781 0.958 . S
H796 C781 0.961 . S
H797 C781 0.960 . S
C798 C799 1.391 . S
C798 C800 1.394 . S
C798 H814 0.931 . S
C799 C798 1.391 . S
C799 C803 1.376 . S
C800 C798 1.394 . S
C800 C801 1.369 . S
C800 C804 1.531 . S
C801 C800 1.369 . S
C801 C802 1.410 . S
C801 C809 1.503 . S
C802 C801 1.410 . S
C802 C803 1.392 . S
C802 C805 1.511 . S
C803 C799 1.376 . S
C803 C802 1.392 . S
C803 H815 0.929 . S
C804 C800 1.531 . S
C804 H816 0.960 . S
C804 H817 0.962 . S
C804 H818 0.960 . S
C805 C802 1.511 . S
C805 H819 0.961 . S
C805 H820 0.961 . S
C805 H821 0.961 . S
C806 C807 1.370 . S
C806 C808 1.363 . S
C806 H822 0.931 . S
C807 C806 1.370 . S
C807 C811 1.408 . S
C808 C806 1.363 . S
C808 C809 1.370 . S
C808 C812 1.524 . S
C809 C801 1.503 . S
C809 C808 1.370 . S
C809 C810 1.403 . S
C810 C809 1.403 . S
C810 C811 1.404 . S
C810 C813 1.539 . S
C811 C807 1.408 . S
C811 C810 1.404 . S
C811 H823 0.930 . S
C812 C808 1.524 . S
C812 H824 0.956 . S
C812 H825 0.961 . S
C812 H826 0.961 . S
C813 C810 1.539 . S
C813 H827 0.958 . S
C813 H828 0.961 . S
C813 H829 0.960 . S
H814 C798 0.931 . S
H815 C803 0.929 . S
H816 C804 0.960 . S
H817 C804 0.962 . S
H818 C804 0.960 . S
H819 C805 0.961 . S
H820 C805 0.961 . S
H821 C805 0.961 . S
H822 C806 0.931 . S
H823 C811 0.930 . S
H824 C812 0.956 . S
H825 C812 0.961 . S
H826 C812 0.961 . S
H827 C813 0.958 . S
H828 C813 0.961 . S
H829 C813 0.960 . S
C830 C831 1.391 . S
C830 C832 1.394 . S
C830 H846 0.931 . S
C831 C830 1.391 . S
C831 C835 1.376 . S
C832 C830 1.394 . S
C832 C833 1.369 . S
C832 C836 1.531 . S
C833 C832 1.369 . S
C833 C834 1.410 . S
C833 C841 1.503 . S
C834 C833 1.410 . S
C834 C835 1.392 . S
C834 C837 1.511 . S
C835 C831 1.376 . S
C835 C834 1.392 . S
C835 H847 0.929 . S
C836 C832 1.531 . S
C836 H848 0.960 . S
C836 H849 0.962 . S
C836 H850 0.960 . S
C837 C834 1.511 . S
C837 H851 0.961 . S
C837 H852 0.961 . S
C837 H853 0.961 . S
C838 C839 1.370 . S
C838 C840 1.363 . S
C838 H854 0.931 . S
C839 C838 1.370 . S
C839 C843 1.408 . S
C840 C838 1.363 . S
C840 C841 1.370 . S
C840 C844 1.524 . S
C841 C833 1.503 . S
C841 C840 1.370 . S
C841 C842 1.403 . S
C842 C841 1.403 . S
C842 C843 1.404 . S
C842 C845 1.539 . S
C843 C839 1.408 . S
C843 C842 1.404 . S
C843 H855 0.930 . S
C844 C840 1.524 . S
C844 H856 0.956 . S
C844 H857 0.961 . S
C844 H858 0.961 . S
C845 C842 1.539 . S
C845 H859 0.958 . S
C845 H860 0.961 . S
C845 H861 0.960 . S
H846 C830 0.931 . S
H847 C835 0.929 . S
H848 C836 0.960 . S
H849 C836 0.962 . S
H850 C836 0.960 . S
H851 C837 0.961 . S
H852 C837 0.961 . S
H853 C837 0.961 . S
H854 C838 0.931 . S
H855 C843 0.930 . S
H856 C844 0.956 . S
H857 C844 0.961 . S
H858 C844 0.961 . S
H859 C845 0.958 . S
H860 C845 0.961 . S
H861 C845 0.960 . S
C862 C863 1.391 . S
C862 C864 1.394 . S
C862 H878 0.931 . S
C863 C862 1.391 . S
C863 C867 1.376 . S
C864 C862 1.394 . S
C864 C865 1.369 . S
C864 C868 1.531 . S
C865 C864 1.369 . S
C865 C866 1.410 . S
C865 C873 1.503 . S
C866 C865 1.410 . S
C866 C867 1.392 . S
C866 C869 1.511 . S
C867 C863 1.376 . S
C867 C866 1.392 . S
C867 H879 0.929 . S
C868 C864 1.531 . S
C868 H880 0.960 . S
C868 H881 0.962 . S
C868 H882 0.960 . S
C869 C866 1.511 . S
C869 H883 0.961 . S
C869 H884 0.961 . S
C869 H885 0.961 . S
C870 C871 1.370 . S
C870 C872 1.363 . S
C870 H886 0.931 . S
C871 C870 1.370 . S
C871 C875 1.408 . S
C872 C870 1.363 . S
C872 C873 1.370 . S
C872 C876 1.524 . S
C873 C865 1.503 . S
C873 C872 1.370 . S
C873 C874 1.403 . S
C874 C873 1.403 . S
C874 C875 1.404 . S
C874 C877 1.539 . S
C875 C871 1.408 . S
C875 C874 1.404 . S
C875 H887 0.930 . S
C876 C872 1.524 . S
C876 H888 0.956 . S
C876 H889 0.961 . S
C876 H890 0.961 . S
C877 C874 1.539 . S
C877 H891 0.958 . S
C877 H892 0.961 . S
C877 H893 0.960 . S
H878 C862 0.931 . S
H879 C867 0.929 . S
H880 C868 0.960 . S
H881 C868 0.962 . S
H882 C868 0.960 . S
H883 C869 0.961 . S
H884 C869 0.961 . S
H885 C869 0.961 . S
H886 C870 0.931 . S
H887 C875 0.930 . S
H888 C876 0.956 . S
H889 C876 0.961 . S
H890 C876 0.961 . S
H891 C877 0.958 . S
H892 C877 0.961 . S
H893 C877 0.960 . S
C894 C895 1.391 . S
C894 C896 1.394 . S
C894 H910 0.931 . S
C895 C894 1.391 . S
C895 C899 1.376 . S
C896 C894 1.394 . S
C896 C897 1.369 . S
C896 C900 1.531 . S
C897 C896 1.369 . S
C897 C898 1.410 . S
C897 C905 1.503 . S
C898 C897 1.410 . S
C898 C899 1.392 . S
C898 C901 1.511 . S
C899 C895 1.376 . S
C899 C898 1.392 . S
C899 H911 0.929 . S
C900 C896 1.531 . S
C900 H912 0.960 . S
C900 H913 0.962 . S
C900 H914 0.960 . S
C901 C898 1.511 . S
C901 H915 0.961 . S
C901 H916 0.961 . S
C901 H917 0.961 . S
C902 C903 1.370 . S
C902 C904 1.363 . S
C902 H918 0.931 . S
C903 C902 1.370 . S
C903 C907 1.408 . S
C904 C902 1.363 . S
C904 C905 1.370 . S
C904 C908 1.524 . S
C905 C897 1.503 . S
C905 C904 1.370 . S
C905 C906 1.403 . S
C906 C905 1.403 . S
C906 C907 1.404 . S
C906 C909 1.539 . S
C907 C903 1.408 . S
C907 C906 1.404 . S
C907 H919 0.930 . S
C908 C904 1.524 . S
C908 H920 0.956 . S
C908 H921 0.961 . S
C908 H922 0.961 . S
C909 C906 1.539 . S
C909 H923 0.958 . S
C909 H924 0.961 . S
C909 H925 0.960 . S
H910 C894 0.931 . S
H911 C899 0.929 . S
H912 C900 0.960 . S
H913 C900 0.962 . S
H914 C900 0.960 . S
H915 C901 0.961 . S
H916 C901 0.961 . S
H917 C901 0.961 . S
H918 C902 0.931 . S
H919 C907 0.930 . S
H920 C908 0.956 . S
H921 C908 0.961 . S
H922 C908 0.961 . S
H923 C909 0.958 . S
H924 C909 0.961 . S
H925 C909 0.960 . S
C926 C927 1.391 . S
C926 C928 1.394 . S
C926 H942 0.931 . S
C927 C926 1.391 . S
C927 C931 1.376 . S
C928 C926 1.394 . S
C928 C929 1.369 . S
C928 C932 1.531 . S
C929 C928 1.369 . S
C929 C930 1.410 . S
C929 C937 1.503 . S
C930 C929 1.410 . S
C930 C931 1.392 . S
C930 C933 1.511 . S
C931 C927 1.376 . S
C931 C930 1.392 . S
C931 H943 0.929 . S
C932 C928 1.531 . S
C932 H944 0.960 . S
C932 H945 0.962 . S
C932 H946 0.960 . S
C933 C930 1.511 . S
C933 H947 0.961 . S
C933 H948 0.961 . S
C933 H949 0.961 . S
C934 C935 1.370 . S
C934 C936 1.363 . S
C934 H950 0.931 . S
C935 C934 1.370 . S
C935 C939 1.408 . S
C936 C934 1.363 . S
C936 C937 1.370 . S
C936 C940 1.524 . S
C937 C929 1.503 . S
C937 C936 1.370 . S
C937 C938 1.403 . S
C938 C937 1.403 . S
C938 C939 1.404 . S
C938 C941 1.539 . S
C939 C935 1.408 . S
C939 C938 1.404 . S
C939 H951 0.930 . S
C940 C936 1.524 . S
C940 H952 0.956 . S
C940 H953 0.961 . S
C940 H954 0.961 . S
C941 C938 1.539 . S
C941 H955 0.958 . S
C941 H956 0.961 . S
C941 H957 0.960 . S
H942 C926 0.931 . S
H943 C931 0.929 . S
H944 C932 0.960 . S
H945 C932 0.962 . S
H946 C932 0.960 . S
H947 C933 0.961 . S
H948 C933 0.961 . S
H949 C933 0.961 . S
H950 C934 0.931 . S
H951 C939 0.930 . S
H952 C940 0.956 . S
H953 C940 0.961 . S
H954 C940 0.961 . S
H955 C941 0.958 . S
H956 C941 0.961 . S
H957 C941 0.960 . S
C958 C959 1.391 . S
C958 C960 1.394 . S
C958 H974 0.931 . S
C959 C958 1.391 . S
C959 C963 1.376 . S
C960 C958 1.394 . S
C960 C961 1.369 . S
C960 C964 1.531 . S
C961 C960 1.369 . S
C961 C962 1.410 . S
C961 C969 1.503 . S
C962 C961 1.410 . S
C962 C963 1.392 . S
C962 C965 1.511 . S
C963 C959 1.376 . S
C963 C962 1.392 . S
C963 H975 0.929 . S
C964 C960 1.531 . S
C964 H976 0.960 . S
C964 H977 0.962 . S
C964 H978 0.960 . S
C965 C962 1.511 . S
C965 H979 0.961 . S
C965 H980 0.961 . S
C965 H981 0.961 . S
C966 C967 1.370 . S
C966 C968 1.363 . S
C966 H982 0.931 . S
C967 C966 1.370 . S
C967 C971 1.408 . S
C968 C966 1.363 . S
C968 C969 1.370 . S
C968 C972 1.524 . S
C969 C961 1.503 . S
C969 C968 1.370 . S
C969 C970 1.403 . S
C970 C969 1.403 . S
C970 C971 1.404 . S
C970 C973 1.539 . S
C971 C967 1.408 . S
C971 C970 1.404 . S
C971 H983 0.930 . S
C972 C968 1.524 . S
C972 H984 0.956 . S
C972 H985 0.961 . S
C972 H986 0.961 . S
C973 C970 1.539 . S
C973 H987 0.958 . S
C973 H988 0.961 . S
C973 H989 0.960 . S
H974 C958 0.931 . S
H975 C963 0.929 . S
H976 C964 0.960 . S
H977 C964 0.962 . S
H978 C964 0.960 . S
H979 C965 0.961 . S
H980 C965 0.961 . S
H981 C965 0.961 . S
H982 C966 0.931 . S
H983 C971 0.930 . S
H984 C972 0.956 . S
H985 C972 0.961 . S
H986 C972 0.961 . S
H987 C973 0.958 . S
H988 C973 0.961 . S
H989 C973 0.960 . S
C223 C13 2.066 . S
C231 C91 2.041 . S
C255 C27 1.419 . S
C263 N109 1.431 . S
C295 C137 2.037 . S
C287 C29 2.069 . S
C327 N155 1.430 . S
C319 C54 1.430 . S
C359 C183 2.044 . S
C351 C69 2.063 . S
C391 N201 1.420 . S
C383 C83 1.412 . S
C415 C15 2.056 . S
C423 C146 2.062 . S
C447 C41 1.430 . S
C455 N165 1.334 . S
C487 C192 2.063 . S
C479 C42 2.056 . S
C519 N211 1.368 . S
C511 C57 1.418 . S
C543 C71 2.070 . S
C551 C100 2.057 . S
C583 N119 1.360 . S
C575 C1 1.430 . S
C615 C169 1.884 . S
C607 C12 1.925 . S
C639 C26 1.275 . S
C647 N188 1.241 . S
C679 C215 1.864 . S
C671 C28 1.935 . S
C703 C55 1.266 . S
C711 N96 1.250 . S
C735 C68 1.933 . S
C743 C123 1.866 . S
C767 C82 1.267 . S
C775 N142 1.249 . S
C799 C14 1.946 . S
C807 C206 1.915 . S
C839 N86 1.188 . S
C831 C40 1.280 . S
C863 C43 1.937 . S
C871 C114 1.925 . S
C895 C56 1.286 . S
C903 N132 1.173 . S
C927 C70 1.936 . S
C935 C160 1.927 . S
C959 C0 1.277 . S
C967 N178 1.193 . S
