# Generated by pormake.
# Topology eea, (3,6)-cn, num edge types: 1
# Building blocks:
#     Node 0, Type 0, BuildingBlock: WUSLED_clean_sbu_0, # of connection points: 3
#     Node 1, Type 0, BuildingBlock: WUSLED_clean_sbu_0, # of connection points: 3
#     Node 2, Type 0, BuildingBlock: WUSLED_clean_sbu_0, # of connection points: 3
#     Node 3, Type 0, BuildingBlock: WUSLED_clean_sbu_0, # of connection points: 3
#     Node 4, Type 0, BuildingBlock: WUSLED_clean_sbu_0, # of connection points: 3
#     Node 5, Type 0, BuildingBlock: WUSLED_clean_sbu_0, # of connection points: 3
#     Node 6, Type 0, BuildingBlock: WUSLED_clean_sbu_0, # of connection points: 3
#     Node 7, Type 0, BuildingBlock: WUSLED_clean_sbu_0, # of connection points: 3
#     Node 8, Type 0, BuildingBlock: WUSLED_clean_sbu_0, # of connection points: 3
#     Node 9, Type 0, BuildingBlock: WUSLED_clean_sbu_0, # of connection points: 3
#     Node 10, Type 0, BuildingBlock: WUSLED_clean_sbu_0, # of connection points: 3
#     Node 11, Type 0, BuildingBlock: WUSLED_clean_sbu_0, # of connection points: 3
#     Node 12, Type 0, BuildingBlock: WUSLED_clean_sbu_0, # of connection points: 3
#     Node 13, Type 0, BuildingBlock: WUSLED_clean_sbu_0, # of connection points: 3
#     Node 14, Type 0, BuildingBlock: WUSLED_clean_sbu_0, # of connection points: 3
#     Node 15, Type 0, BuildingBlock: WUSLED_clean_sbu_0, # of connection points: 3
#     Node 16, Type 0, BuildingBlock: WUSLED_clean_sbu_0, # of connection points: 3
#     Node 17, Type 0, BuildingBlock: WUSLED_clean_sbu_0, # of connection points: 3
#     Node 18, Type 1, BuildingBlock: CUKXOW_clean_sbu_0, # of connection points: 6
#     Node 19, Type 1, BuildingBlock: CUKXOW_clean_sbu_0, # of connection points: 6
#     Node 20, Type 1, BuildingBlock: CUKXOW_clean_sbu_0, # of connection points: 6
#     Node 21, Type 1, BuildingBlock: CUKXOW_clean_sbu_0, # of connection points: 6
#     Node 22, Type 1, BuildingBlock: CUKXOW_clean_sbu_0, # of connection points: 6
#     Node 23, Type 1, BuildingBlock: CUKXOW_clean_sbu_0, # of connection points: 6
#     Node 24, Type 1, BuildingBlock: CUKXOW_clean_sbu_0, # of connection points: 6
#     Node 25, Type 1, BuildingBlock: CUKXOW_clean_sbu_0, # of connection points: 6
#     Node 26, Type 1, BuildingBlock: CUKXOW_clean_sbu_0, # of connection points: 6
#     Edge 27, Type (0, 1), None
#     Edge 28, Type (0, 1), None
#     Edge 29, Type (0, 1), None
#     Edge 30, Type (0, 1), None
#     Edge 31, Type (0, 1), None
#     Edge 32, Type (0, 1), None
#     Edge 33, Type (0, 1), None
#     Edge 34, Type (0, 1), None
#     Edge 35, Type (0, 1), None
#     Edge 36, Type (0, 1), None
#     Edge 37, Type (0, 1), None
#     Edge 38, Type (0, 1), None
#     Edge 39, Type (0, 1), None
#     Edge 40, Type (0, 1), None
#     Edge 41, Type (0, 1), None
#     Edge 42, Type (0, 1), None
#     Edge 43, Type (0, 1), None
#     Edge 44, Type (0, 1), None
#     Edge 45, Type (0, 1), None
#     Edge 46, Type (0, 1), None
#     Edge 47, Type (0, 1), None
#     Edge 48, Type (0, 1), None
#     Edge 49, Type (0, 1), None
#     Edge 50, Type (0, 1), None
#     Edge 51, Type (0, 1), None
#     Edge 52, Type (0, 1), None
#     Edge 53, Type (0, 1), None
#     Edge 54, Type (0, 1), None
#     Edge 55, Type (0, 1), None
#     Edge 56, Type (0, 1), None
#     Edge 57, Type (0, 1), None
#     Edge 58, Type (0, 1), None
#     Edge 59, Type (0, 1), None
#     Edge 60, Type (0, 1), None
#     Edge 61, Type (0, 1), None
#     Edge 62, Type (0, 1), None
#     Edge 63, Type (0, 1), None
#     Edge 64, Type (0, 1), None
#     Edge 65, Type (0, 1), None
#     Edge 66, Type (0, 1), None
#     Edge 67, Type (0, 1), None
#     Edge 68, Type (0, 1), None
#     Edge 69, Type (0, 1), None
#     Edge 70, Type (0, 1), None
#     Edge 71, Type (0, 1), None
#     Edge 72, Type (0, 1), None
#     Edge 73, Type (0, 1), None
#     Edge 74, Type (0, 1), None
#     Edge 75, Type (0, 1), None
#     Edge 76, Type (0, 1), None
#     Edge 77, Type (0, 1), None
#     Edge 78, Type (0, 1), None
#     Edge 79, Type (0, 1), None
#     Edge 80, Type (0, 1), None
# Relax obj value: 0.018
# Max RMSD: 0.120
# Mean RMSD: 0.064
data_MOF--net-eea--node1-WUSLED_clean_sbu_0--node2-CUKXOW_clean_sbu_0--edge1-none
_symmetry_space_group_name_H-M    P1
_symmetry_Int_Tables_number       1
_symmetry_cell_setting            triclinic
loop_
_symmetry_equiv_pos_as_xyz
'x, y, z'
_cell_length_a     42.406581
_cell_length_b     38.80381
_cell_length_c     41.611434
_cell_angle_alpha  92.519213
_cell_angle_beta   93.101007
_cell_angle_gamma 120.11826
loop_
_atom_site_label
_atom_site_type_symbol
_atom_site_fract_x
_atom_site_fract_y
_atom_site_fract_z
_atom_type_partial_charge
C0 C 0.23712 0.21336 0.41864 0.0
C1 C 0.26444 0.2509 0.41017 0.0
C2 C 0.21878 0.27024 0.39715 0.0
C3 C 0.25538 0.27903 0.39965 0.0
C4 C 0.19159 0.2327 0.40569 0.0
C5 C 0.20063 0.20469 0.41616 0.0
U6 U 0.2752 0.159 0.47214 0.0
O7 O 0.24883 0.09475 0.47844 0.0
O8 O 0.30044 0.12426 0.45555 0.0
C9 C 0.2731 0.09027 0.46326 0.0
C10 C 0.24515 0.18132 0.42661 0.0
C11 C 0.25897 0.05509 0.43935 0.0
C12 C 0.20825 0.99301 0.41289 0.0
C13 C 0.22123 0.02959 0.43105 0.0
C14 C 0.27047 1.00769 0.40926 0.0
C15 C 0.23264 0.98101 0.4026 0.0
C16 C 0.28342 0.04417 0.42754 0.0
C17 C 0.32422 0.20051 0.55732 0.0
C18 C 0.34057 0.16285 0.59318 0.0
C19 C 0.35835 0.23125 0.60956 0.0
C20 C 0.34168 0.23355 0.58032 0.0
C21 C 0.35753 0.19573 0.61649 0.0
C22 C 0.32397 0.16517 0.56388 0.0
C23 C 0.30612 0.20335 0.52694 0.0
O24 O 0.27941 0.18984 0.42793 0.0
O25 O 0.22682 0.15822 0.44902 0.0
O26 O 0.27086 0.17763 0.52168 0.0
O27 O 0.32368 0.20767 0.50097 0.0
H28 H 0.29279 0.25844 0.41126 0.0
H29 H 0.27711 0.30763 0.39342 0.0
H30 H 0.16311 0.2247 0.4042 0.0
H31 H 0.17883 0.17581 0.42185 0.0
H32 H 0.17895 0.97342 0.40816 0.0
H33 H 0.20157 0.03702 0.43969 0.0
H34 H 0.29014 0.99962 0.40178 0.0
H35 H 0.31261 0.06311 0.43367 0.0
H36 H 0.33959 0.13509 0.59784 0.0
H37 H 0.37216 0.2574 0.62663 0.0
H38 H 0.34239 0.26118 0.57569 0.0
H39 H 0.31071 0.13933 0.54645 0.0
C40 C 0.97648 0.19886 0.42219 0.0
C41 C 1.00075 0.23434 0.44115 0.0
C42 C 0.0445 0.25374 0.40015 0.0
C43 C 0.03455 0.26165 0.43017 0.0
C44 C 1.01983 0.21847 0.38117 0.0
C45 C 0.98618 0.19136 0.39209 0.0
U46 U 0.89847 0.15249 0.48047 0.0
O47 O 0.83925 0.11601 0.46675 0.0
O48 O 0.86787 0.08944 0.49143 0.0
C49 C 0.83716 0.08312 0.47629 0.0
C50 C 0.94139 0.16832 0.43315 0.0
C51 C 0.81657 0.04654 0.45365 0.0
C52 C 0.80148 0.9788 0.43564 0.0
C53 C 0.82358 1.01476 0.45475 0.0
C54 C 0.76525 1.00579 0.41353 0.0
C55 C 0.77168 0.97366 0.41514 0.0
C56 C 0.7873 0.04165 0.43259 0.0
C57 C 0.89728 0.20356 0.56084 0.0
C58 C 0.8472 0.17129 0.59517 0.0
C59 C 0.89989 0.23578 0.61329 0.0
C60 C 0.91553 0.23588 0.58443 0.0
C61 C 0.86574 0.20339 0.61894 0.0
C62 C 0.86283 0.17138 0.56629 0.0
C63 C 0.9148 0.20341 0.53113 0.0
O64 O 0.94335 0.14998 0.45834 0.0
O65 O 0.91507 0.17685 0.43343 0.0
O66 O 0.89776 0.20405 0.50401 0.0
O67 O 0.92655 0.1779 0.529 0.0
H68 H 0.99376 0.24063 0.4645 0.0
H69 H 0.05315 0.28856 0.44537 0.0
H70 H 1.02674 0.21151 0.35802 0.0
H71 H 0.96785 0.16412 0.37713 0.0
H72 H 0.80714 0.95466 0.4377 0.0
H73 H 0.84558 1.0172 0.47098 0.0
H74 H 0.74255 1.00302 0.39811 0.0
H75 H 0.78075 0.06522 0.43142 0.0
H76 H 0.82108 0.14572 0.59932 0.0
H77 H 0.91474 0.26068 0.63142 0.0
H78 H 0.94215 0.26094 0.58074 0.0
H79 H 0.84835 0.14607 0.54844 0.0
C80 C 0.85728 0.79933 0.41937 0.0
C81 C 0.82523 0.78383 0.43547 0.0
C82 C 0.80224 0.81665 0.40057 0.0
C83 C 0.7978 0.7924 0.42606 0.0
C84 C 0.83438 0.83205 0.38461 0.0
C85 C 0.86164 0.82342 0.39394 0.0
U86 U 0.90592 0.76146 0.4764 0.0
O87 O 0.93618 0.73104 0.4639 0.0
O88 O 0.96482 0.79006 0.49094 0.0
C89 C 0.96782 0.76159 0.4757 0.0
C90 C 0.88689 0.79159 0.42889 0.0
C91 C 0.9977 0.77497 0.45434 0.0
C92 C 0.03081 0.81321 0.41037 0.0
C93 C 1.0012 0.79987 0.42956 0.0
C94 C 0.05293 0.77619 0.44024 0.0
C95 C 0.05705 0.80162 0.41574 0.0
C96 C 1.02358 0.76305 0.45933 0.0
C97 C 0.8648 0.71592 0.55576 0.0
C98 C 0.8822 0.72531 0.61365 0.0
C99 C 0.83519 0.66029 0.58969 0.0
C100 C 0.83955 0.67547 0.55923 0.0
C101 C 0.85571 0.68541 0.61735 0.0
C102 C 0.88674 0.74038 0.58327 0.0
C103 C 0.86476 0.7332 0.52456 0.0
O104 O 0.9084 0.81325 0.45454 0.0
O105 O 0.87801 0.75385 0.42823 0.0
O106 O 0.88873 0.77132 0.52308 0.0
O107 O 0.86057 0.71122 0.49793 0.0
H108 H 0.82153 0.76532 0.45529 0.0
H109 H 0.7733 0.78026 0.4388 0.0
H110 H 0.83851 0.85085 0.36492 0.0
H111 H 0.88627 0.83573 0.38135 0.0
H112 H 0.03344 0.83291 0.39175 0.0
H113 H 0.98135 0.80932 0.42534 0.0
H114 H 0.07281 0.7669 0.44509 0.0
H115 H 1.02133 0.74387 0.47831 0.0
H116 H 0.89826 0.74556 0.63447 0.0
H117 H 0.81441 0.62949 0.59177 0.0
H118 H 0.82201 0.65593 0.53858 0.0
H119 H 0.90635 0.77172 0.58169 0.0
C120 C 0.07254 0.25516 0.65617 0.0
C121 C 0.04864 0.26363 0.63818 0.0
C122 C 1.00512 0.23772 0.67921 0.0
C123 C 1.01513 0.255 0.64967 0.0
C124 C 0.0294 0.22988 0.69726 0.0
C125 C 0.06281 0.23857 0.68584 0.0
U126 U 0.14931 0.29056 0.59688 0.0
O127 O 0.20856 0.31844 0.6098 0.0
O128 O 0.17837 0.25938 0.58287 0.0
C129 C 0.20968 0.28725 0.59775 0.0
C130 C 0.10718 0.26188 0.64444 0.0
C131 C 0.22973 0.27339 0.61831 0.0
C132 C 0.23288 0.23242 0.65973 0.0
C133 C 0.21283 0.24565 0.64132 0.0
C134 C 0.28666 0.27504 0.63255 0.0
C135 C 0.26997 0.24695 0.65532 0.0
C136 C 0.26673 0.28808 0.61426 0.0
C137 C 0.1523 0.3396 0.51916 0.0
C138 C 0.20183 0.35602 0.48472 0.0
C139 C 0.15302 0.36843 0.4682 0.0
C140 C 0.13644 0.3536 0.49662 0.0
C141 C 0.18565 0.36943 0.46195 0.0
C142 C 0.18533 0.3413 0.51317 0.0
C143 C 0.13382 0.32228 0.54832 0.0
O144 O 0.10442 0.24009 0.61819 0.0
O145 O 0.13392 0.29919 0.64506 0.0
O146 O 0.15111 0.34263 0.57592 0.0
O147 O 0.12069 0.28364 0.54918 0.0
H148 H 0.05568 0.27636 0.61518 0.0
H149 H 0.99682 0.26122 0.63521 0.0
H150 H 1.0224 0.21655 0.72004 0.0
H151 H 0.08092 0.23179 0.70002 0.0
H152 H 0.2194 0.21071 0.67708 0.0
H153 H 0.1842 0.23404 0.6448 0.0
H154 H 0.31518 0.28674 0.62854 0.0
H155 H 0.28023 0.30948 0.59667 0.0
H156 H 0.22672 0.356 0.4801 0.0
H157 H 0.13997 0.37833 0.45079 0.0
H158 H 0.11094 0.35245 0.50074 0.0
H159 H 0.19796 0.33052 0.53022 0.0
C160 C 0.81186 0.83645 0.659 0.0
C161 C 0.78439 0.79993 0.66901 0.0
C162 C 0.82949 0.78015 0.68323 0.0
C163 C 0.79309 0.77204 0.68086 0.0
C164 C 0.85679 0.81671 0.67322 0.0
C165 C 0.84811 0.8444 0.66141 0.0
U166 U 0.77645 0.89159 0.60297 0.0
O167 O 0.80487 0.95586 0.59633 0.0
O168 O 0.75264 0.92825 0.61831 0.0
C169 C 0.78099 0.96165 0.61094 0.0
C170 C 0.80444 0.86854 0.64972 0.0
C171 C 0.79574 0.99686 0.63494 0.0
C172 C 0.84702 0.05887 0.66105 0.0
C173 C 0.83363 1.02256 0.64234 0.0
C174 C 0.78497 0.04368 0.66674 0.0
C175 C 0.82287 0.07043 0.67275 0.0
C176 C 0.77163 1.00748 0.64797 0.0
C177 C 0.72849 0.84989 0.51725 0.0
C178 C 0.70672 0.88421 0.48272 0.0
C179 C 0.70163 0.82208 0.46236 0.0
C180 C 0.71768 0.81993 0.49201 0.0
C181 C 0.69619 0.85435 0.4573 0.0
C182 C 0.72283 0.88207 0.51241 0.0
C183 C 0.74571 0.84706 0.54819 0.0
O184 O 0.82357 0.89102 0.62733 0.0
O185 O 0.77036 0.86067 0.64751 0.0
O186 O 0.72782 0.84372 0.5738 0.0
O187 O 0.78109 0.872 0.5538 0.0
H188 H 0.75623 0.79305 0.66808 0.0
H189 H 0.77129 0.74418 0.68819 0.0
H190 H 0.88513 0.82418 0.67452 0.0
H191 H 0.87007 0.87254 0.65462 0.0
H192 H 0.87636 0.07857 0.66518 0.0
H193 H 0.85308 1.01543 0.6327 0.0
H194 H 0.76546 0.05139 0.67533 0.0
H195 H 0.74233 0.98846 0.64255 0.0
H196 H 0.70299 0.90952 0.4795 0.0
H197 H 0.69318 0.7983 0.44348 0.0
H198 H 0.72166 0.79477 0.49522 0.0
H199 H 0.73101 0.90557 0.53153 0.0
C200 C 0.07339 0.84697 0.65984 0.0
C201 C 0.04862 0.81149 0.64109 0.0
C202 C 1.00413 0.79445 0.68133 0.0
C203 C 1.01423 0.78536 0.65181 0.0
C204 C 0.02926 0.82972 0.70008 0.0
C205 C 0.06349 0.85563 0.68944 0.0
U206 U 0.15279 0.89315 0.60223 0.0
O207 O 0.18337 0.95633 0.59173 0.0
O208 O 0.2119 0.9299 0.61677 0.0
C209 C 0.21408 0.96269 0.60687 0.0
C210 C 0.10905 0.87664 0.64903 0.0
C211 C 0.23522 0.99985 0.62884 0.0
C212 C 0.25126 0.06839 0.64496 0.0
C213 C 0.22811 0.03153 0.62738 0.0
C214 C 0.2887 0.04255 0.66645 0.0
C215 C 0.28225 0.07462 0.66427 0.0
C216 C 0.26558 1.00574 0.64888 0.0
C217 C 0.15456 0.84598 0.51945 0.0
C218 C 0.16273 0.86408 0.4639 0.0
C219 C 0.19334 0.83123 0.48665 0.0
C220 C 0.1777 0.82995 0.5159 0.0
C221 C 0.186 0.84837 0.46033 0.0
C222 C 0.14702 0.8626 0.49284 0.0
C223 C 0.13739 0.84446 0.55018 0.0
O224 O 0.1347 0.86707 0.64855 0.0
O225 O 0.10801 0.89597 0.62423 0.0
O226 O 0.12415 0.86849 0.55392 0.0
O227 O 0.15443 0.84282 0.57695 0.0
H228 H 0.05567 0.80432 0.61809 0.0
H229 H 0.99534 0.75842 0.63679 0.0
H230 H 1.0223 0.83761 0.72284 0.0
H231 H 0.08213 0.88292 0.70423 0.0
H232 H 0.24545 0.09238 0.64253 0.0
H233 H 0.20531 0.02836 0.61187 0.0
H234 H 0.31227 0.04613 0.68099 0.0
H235 H 0.27222 0.98226 0.65023 0.0
H236 H 0.15662 0.87779 0.44426 0.0
H237 H 0.21119 0.81893 0.48467 0.0
H238 H 0.18375 0.81641 0.53573 0.0
H239 H 0.12898 0.87472 0.49428 0.0
C240 C 0.9038 0.54673 0.75197 0.0
C241 C 0.93112 0.58427 0.7435 0.0
C242 C 0.88545 0.6036 0.73049 0.0
C243 C 0.92206 0.6124 0.73298 0.0
C244 C 0.85827 0.56606 0.73903 0.0
C245 C 0.86732 0.53805 0.74949 0.0
U246 U 0.94189 0.49235 0.80546 0.0
O247 O 0.9155 0.4281 0.81175 0.0
O248 O 0.96712 0.45761 0.78886 0.0
C249 C 0.93978 0.42362 0.79657 0.0
C250 C 0.91183 0.51469 0.75994 0.0
C251 C 0.92564 0.38844 0.77265 0.0
C252 C 0.87492 0.32638 0.74619 0.0
C253 C 0.88791 0.36295 0.76435 0.0
C254 C 0.93712 0.34102 0.74258 0.0
C255 C 0.8993 0.31436 0.73591 0.0
C256 C 0.95008 0.37751 0.76085 0.0
C257 C 0.9909 0.53386 0.89064 0.0
C258 C 1.00725 0.49619 0.9265 0.0
C259 C 1.02504 0.56459 0.94288 0.0
C260 C 1.00838 0.56689 0.91365 0.0
C261 C 1.02422 0.52906 0.94982 0.0
C262 C 0.99065 0.49851 0.8972 0.0
C263 C 0.97281 0.5367 0.86026 0.0
O264 O 0.9461 0.52321 0.76125 0.0
O265 O 0.89351 0.49158 0.78234 0.0
O266 O 0.93755 0.51098 0.85501 0.0
O267 O 0.99037 0.54102 0.83429 0.0
H268 H 0.95947 0.59181 0.74459 0.0
H269 H 0.94379 0.641 0.72675 0.0
H270 H 0.82979 0.55806 0.73754 0.0
H271 H 0.84551 0.50917 0.75519 0.0
H272 H 0.84562 0.30679 0.74145 0.0
H273 H 0.86824 0.3704 0.77298 0.0
H274 H 0.95679 0.33294 0.73511 0.0
H275 H 0.97928 0.39643 0.76699 0.0
H276 H 1.00627 0.46842 0.93116 0.0
H277 H 0.03886 0.59073 0.95995 0.0
H278 H 1.00909 0.59452 0.90902 0.0
H279 H 0.97739 0.47267 0.87977 0.0
C280 C 0.64314 0.53219 0.75552 0.0
C281 C 0.66741 0.56767 0.77448 0.0
C282 C 0.71116 0.58708 0.73348 0.0
C283 C 0.70122 0.59498 0.7635 0.0
C284 C 0.68649 0.55181 0.7145 0.0
C285 C 0.65285 0.5247 0.72541 0.0
U286 U 0.56515 0.48582 0.8138 0.0
O287 O 0.50592 0.44934 0.80009 0.0
O288 O 0.53454 0.42276 0.82477 0.0
C289 C 0.50383 0.41645 0.80963 0.0
C290 C 0.60806 0.50165 0.76648 0.0
C291 C 0.48325 0.37987 0.78698 0.0
C292 C 0.46815 0.31214 0.76896 0.0
C293 C 0.49026 0.34809 0.78808 0.0
C294 C 0.43192 0.33913 0.74686 0.0
C295 C 0.43835 0.307 0.74846 0.0
C296 C 0.45397 0.37498 0.76593 0.0
C297 C 0.56398 0.53689 0.89419 0.0
C298 C 0.51389 0.50463 0.92851 0.0
C299 C 0.56661 0.5691 0.94664 0.0
C300 C 0.58224 0.56919 0.91778 0.0
C301 C 0.53245 0.53672 0.95229 0.0
C302 C 0.52952 0.50471 0.89963 0.0
C303 C 0.58149 0.53674 0.86447 0.0
O304 O 0.61001 0.4833 0.79166 0.0
O305 O 0.58173 0.51018 0.76677 0.0
O306 O 0.56444 0.53737 0.83735 0.0
O307 O 0.59324 0.51122 0.86233 0.0
H308 H 0.66043 0.57395 0.79783 0.0
H309 H 0.71981 0.62189 0.7787 0.0
H310 H 0.6934 0.54485 0.69135 0.0
H311 H 0.63451 0.49746 0.71045 0.0
H312 H 0.47381 0.288 0.77103 0.0
H313 H 0.51225 0.35053 0.80431 0.0
H314 H 0.40923 0.33637 0.73144 0.0
H315 H 0.44743 0.39856 0.76476 0.0
H316 H 0.48777 0.47906 0.93265 0.0
H317 H 0.58147 0.594 0.96478 0.0
H318 H 0.60887 0.59425 0.91409 0.0
H319 H 0.51503 0.47942 0.88177 0.0
C320 C 0.52394 0.13267 0.75271 0.0
C321 C 0.49188 0.11717 0.7688 0.0
C322 C 0.4689 0.14998 0.73389 0.0
C323 C 0.46446 0.12573 0.75939 0.0
C324 C 0.50104 0.16538 0.71795 0.0
C325 C 0.5283 0.15675 0.72728 0.0
U326 U 0.57257 0.0948 0.80975 0.0
O327 O 0.60285 0.06439 0.79726 0.0
O328 O 0.63147 0.12341 0.8243 0.0
C329 C 0.63447 0.09494 0.80906 0.0
C330 C 0.55355 0.12492 0.76223 0.0
C331 C 0.66435 0.10833 0.7877 0.0
C332 C 0.69745 0.14656 0.74372 0.0
C333 C 0.66785 0.13322 0.76291 0.0
C334 C 0.7196 0.10956 0.7736 0.0
C335 C 0.7237 0.13498 0.74909 0.0
C336 C 0.69024 0.09642 0.79269 0.0
C337 C 0.53145 0.04923 0.8891 0.0
C338 C 0.54887 0.05861 0.94699 0.0
C339 C 0.50184 0.99361 0.92303 0.0
C340 C 0.5062 1.00879 0.89257 0.0
C341 C 0.52238 1.01872 0.95069 0.0
C342 C 0.5534 0.0737 0.91661 0.0
C343 C 0.5314 0.06652 0.8579 0.0
O344 O 0.57505 0.14658 0.7879 0.0
O345 O 0.54467 0.08719 0.76158 0.0
O346 O 0.55537 0.10464 0.85643 0.0
O347 O 0.52723 0.04454 0.83127 0.0
H348 H 0.48818 0.09866 0.78863 0.0
H349 H 0.43995 0.1136 0.77213 0.0
H350 H 0.50517 0.18417 0.69825 0.0
H351 H 0.55293 0.16906 0.71469 0.0
H352 H 0.70008 0.16626 0.7251 0.0
H353 H 0.64799 0.14266 0.7587 0.0
H354 H 0.73948 0.10028 0.77845 0.0
H355 H 0.688 0.07725 0.81167 0.0
H356 H 0.56494 0.07886 0.96781 0.0
H357 H 0.48106 0.96281 0.92511 0.0
H358 H 0.48864 0.98926 0.87193 0.0
H359 H 0.57302 0.10503 0.91502 0.0
C360 C 0.73926 0.58854 0.98953 0.0
C361 C 0.71536 0.59699 0.97154 0.0
C362 C 0.67184 0.57109 1.01258 0.0
C363 C 0.68185 0.58837 0.98303 0.0
C364 C 0.69613 0.56326 1.03063 0.0
C365 C 0.72954 0.57195 1.0192 0.0
U366 U 0.81601 0.62392 0.93022 0.0
O367 O 0.87526 0.65179 0.94313 0.0
O368 O 0.84506 0.59274 0.9162 0.0
C369 C 0.87638 0.6206 0.93107 0.0
C370 C 0.7739 0.59525 0.97779 0.0
C371 C 0.89642 0.60673 0.95163 0.0
C372 C 0.89958 0.56577 0.99306 0.0
C373 C 0.87952 0.579 0.97464 0.0
C374 C 0.95335 0.60837 0.96586 0.0
C375 C 0.93666 0.58028 0.98864 0.0
C376 C 0.93343 0.62142 0.94758 0.0
C377 C 0.81898 0.67296 0.8525 0.0
C378 C 0.86851 0.68938 0.81805 0.0
C379 C 0.81969 0.70178 0.80154 0.0
C380 C 0.80312 0.68695 0.82996 0.0
C381 C 0.85232 0.70278 0.79528 0.0
C382 C 0.85201 0.67466 0.84651 0.0
C383 C 0.80052 0.65564 0.88166 0.0
O384 O 0.77113 0.57346 0.95154 0.0
O385 O 0.80063 0.63256 0.97841 0.0
O386 O 0.81781 0.67599 0.90926 0.0
O387 O 0.78738 0.617 0.88253 0.0
H388 H 0.72238 0.60972 0.94853 0.0
H389 H 0.66353 0.59457 0.96857 0.0
H390 H 0.68913 0.54994 0.05341 0.0
H391 H 0.74765 0.56518 1.03338 0.0
H392 H 0.88609 0.54406 1.01041 0.0
H393 H 0.8509 0.5674 0.97813 0.0
H394 H 0.98187 0.62007 0.96185 0.0
H395 H 0.94692 0.64282 0.92998 0.0
H396 H 0.8934 0.68936 0.81343 0.0
H397 H 0.80663 0.71168 0.78413 0.0
H398 H 0.77761 0.68581 0.83409 0.0
H399 H 0.86464 0.66388 0.86355 0.0
C400 C 0.47858 0.16979 0.99231 0.0
C401 C 0.4511 0.13327 1.00232 0.0
C402 C 0.49619 0.11348 1.01656 0.0
C403 C 0.4598 0.10538 1.01418 0.0
C404 C 0.52351 0.15003 1.00655 0.0
C405 C 0.51484 0.17774 0.99473 0.0
U406 U 0.44319 0.22495 0.93628 0.0
O407 O 0.47163 0.28922 0.92965 0.0
O408 O 0.4194 0.26161 0.95162 0.0
C409 C 0.44774 0.29501 0.94425 0.0
C410 C 0.47118 0.20189 0.98302 0.0
C411 C 0.46249 0.33022 0.96827 0.0
C412 C 0.51376 0.39222 0.99438 0.0
C413 C 0.50038 0.35592 0.97566 0.0
C414 C 0.45171 0.37702 1.00008 0.0
C415 C 0.48961 0.40378 1.00609 0.0
C416 C 0.43837 0.34082 0.9813 0.0
C417 C 0.39522 0.18325 0.85056 0.0
C418 C 0.37345 0.21758 0.81604 0.0
C419 C 0.36832 0.15543 0.79569 0.0
C420 C 0.38438 0.15328 0.82532 0.0
C421 C 0.36289 0.1877 0.79063 0.0
C422 C 0.38957 0.21544 0.84573 0.0
C423 C 0.41245 0.18042 0.8815 0.0
O424 O 0.49031 0.22436 0.96064 0.0
O425 O 0.43709 0.19403 0.98081 0.0
O426 O 0.39456 0.17708 0.90711 0.0
O427 O 0.44783 0.20536 0.8871 0.0
H428 H 0.42295 0.1264 1.00139 0.0
H429 H 0.43799 0.07753 1.02151 0.0
H430 H 0.55184 0.1575 1.00785 0.0
H431 H 0.5368 0.20586 0.98794 0.0
H432 H 0.5431 0.41193 0.99851 0.0
H433 H 0.51983 0.3488 0.96602 0.0
H434 H 0.43219 0.38471 1.00868 0.0
H435 H 0.40907 0.3218 0.97588 0.0
H436 H 0.36973 0.2429 0.81282 0.0
H437 H 0.35985 0.13163 0.77681 0.0
H438 H 0.38836 0.12811 0.82854 0.0
H439 H 0.39778 0.23895 0.86484 0.0
C440 C 0.74007 0.18028 0.99318 0.0
C441 C 0.7153 0.14481 0.97442 0.0
C442 C 0.67081 0.12776 1.01467 0.0
C443 C 0.68091 0.11867 0.98515 0.0
C444 C 0.69594 0.16303 1.03343 0.0
C445 C 0.73017 0.18894 1.02279 0.0
U446 U 0.81946 0.22648 0.93556 0.0
O447 O 0.85003 0.28966 0.92506 0.0
O448 O 0.87857 0.26323 0.95009 0.0
C449 C 0.88074 0.29602 0.9402 0.0
C450 C 0.77572 0.20997 0.98238 0.0
C451 C 0.90189 0.33318 0.96216 0.0
C452 C 0.91794 0.40172 0.97829 0.0
C453 C 0.89478 0.36486 0.96071 0.0
C454 C 0.95537 0.37588 0.99976 0.0
C455 C 0.94893 0.40795 0.99759 0.0
C456 C 0.93225 0.33907 0.9822 0.0
C457 C 0.82121 0.17932 0.85278 0.0
C458 C 0.82939 0.19744 0.79723 0.0
C459 C 0.85997 0.16455 0.81996 0.0
C460 C 0.84433 0.16326 0.84921 0.0
C461 C 0.85264 0.18171 0.79364 0.0
C462 C 0.81368 0.19596 0.82617 0.0
C463 C 0.80404 0.17779 0.88351 0.0
O464 O 0.80138 0.20039 0.98188 0.0
O465 O 0.77468 0.2293 0.95757 0.0
O466 O 0.79081 0.20183 0.88725 0.0
O467 O 0.8211 0.17616 0.91027 0.0
H468 H 0.72235 0.13765 0.95142 0.0
H469 H 0.66202 0.09174 0.97012 0.0
H470 H 0.68899 0.17091 0.0562 0.0
H471 H 0.74882 0.21622 0.03758 0.0
H472 H 0.91213 0.42571 0.97586 0.0
H473 H 0.87198 0.36169 0.94521 0.0
H474 H 0.97895 0.37946 1.01431 0.0
H475 H 0.9389 0.31559 0.98355 0.0
H476 H 0.82329 0.21117 0.7776 0.0
H477 H 0.8778 0.15224 0.81797 0.0
H478 H 0.85037 0.14971 0.86904 0.0
H479 H 0.79565 0.20809 0.82762 0.0
C480 C 0.57046 0.88003 0.08531 0.0
C481 C 0.59778 0.91757 0.07685 0.0
C482 C 0.55212 0.93691 0.06383 0.0
C483 C 0.58872 0.9457 0.06633 0.0
C484 C 0.52493 0.89937 0.07237 0.0
C485 C 0.53397 0.87136 0.08283 0.0
U486 U 0.60855 0.82566 0.13881 0.0
O487 O 0.58217 0.76142 0.14511 0.0
O488 O 0.63378 0.79092 0.12222 0.0
C489 C 0.60644 0.75694 0.12993 0.0
C490 C 0.57849 0.84799 0.09328 0.0
C491 C 0.59231 0.72176 0.10601 0.0
C492 C 0.54159 0.65968 0.07956 0.0
C493 C 0.55457 0.69626 0.09773 0.0
C494 C 0.6038 0.67436 0.07593 0.0
C495 C 0.56598 0.64768 0.06927 0.0
C496 C 0.61676 0.71084 0.0942 0.0
C497 C 0.65756 0.86718 0.22399 0.0
C498 C 0.67391 0.82951 0.25986 0.0
C499 C 0.6917 0.89792 0.27623 0.0
C500 C 0.67504 0.90022 0.24699 0.0
C501 C 0.69088 0.86239 0.28317 0.0
C502 C 0.65731 0.83184 0.23055 0.0
C503 C 0.63947 0.87002 0.19361 0.0
O504 O 0.61275 0.85651 0.0946 0.0
O505 O 0.56016 0.82489 0.11569 0.0
O506 O 0.60421 0.84429 0.18836 0.0
O507 O 0.65703 0.87434 0.16764 0.0
H508 H 0.62613 0.92511 0.07794 0.0
H509 H 0.61045 0.9743 0.06009 0.0
H510 H 0.49645 0.89137 0.07087 0.0
H511 H 0.51217 0.84248 0.08853 0.0
H512 H 0.51229 0.64008 0.07483 0.0
H513 H 0.53491 0.70369 0.10636 0.0
H514 H 0.62348 0.66629 0.06845 0.0
H515 H 0.64595 0.72978 0.10033 0.0
H516 H 0.67292 0.80175 0.26452 0.0
H517 H 0.70552 0.92406 0.2933 0.0
H518 H 0.67575 0.92785 0.24236 0.0
H519 H 0.64404 0.80599 0.21312 0.0
C520 C 0.30982 0.86552 0.08885 0.0
C521 C 0.33409 0.901 0.10782 0.0
C522 C 0.37783 0.92041 0.06681 0.0
C523 C 0.3679 0.92831 0.09684 0.0
C524 C 0.35317 0.88515 0.04783 0.0
C525 C 0.31952 0.85804 0.05875 0.0
U526 U 0.23182 0.81915 0.14714 0.0
O527 O 0.1726 0.78267 0.13342 0.0
O528 O 0.20122 0.75609 0.1581 0.0
C529 C 0.17051 0.74978 0.14296 0.0
C530 C 0.27473 0.83499 0.09981 0.0
C531 C 0.14992 0.7132 0.12031 0.0
C532 C 0.13483 0.64547 0.10229 0.0
C533 C 0.15693 0.68141 0.12141 0.0
C534 C 0.09861 0.67246 0.08018 0.0
C535 C 0.10503 0.64032 0.08179 0.0
C536 C 0.12065 0.70831 0.09925 0.0
C537 C 0.23064 0.87021 0.22752 0.0
C538 C 0.18056 0.83796 0.26185 0.0
C539 C 0.23327 0.90242 0.27998 0.0
C540 C 0.24891 0.90252 0.25112 0.0
C541 C 0.19912 0.87005 0.28563 0.0
C542 C 0.19618 0.83804 0.23296 0.0
C543 C 0.24816 0.87006 0.1978 0.0
O544 O 0.27669 0.81663 0.12499 0.0
O545 O 0.2484 0.84351 0.1001 0.0
O546 O 0.23111 0.8707 0.17069 0.0
O547 O 0.25991 0.84455 0.19566 0.0
H548 H 0.32711 0.90727 0.13117 0.0
H549 H 0.38649 0.95521 0.11204 0.0
H550 H 0.36007 0.87819 1.02468 0.0
H551 H 0.30118 0.8308 0.04378 0.0
H552 H 0.14049 0.62132 0.10436 0.0
H553 H 0.17892 0.68385 0.13765 0.0
H554 H 0.07591 0.6697 0.06476 0.0
H555 H 0.11411 0.73189 0.09808 0.0
H556 H 0.15443 0.8124 0.26598 0.0
H557 H 0.24813 0.92732 0.29811 0.0
H558 H 0.27554 0.92758 0.24743 0.0
H559 H 0.1817 0.81275 0.21511 0.0
C560 C 0.19062 0.466 0.08604 0.0
C561 C 0.15857 0.4505 0.10213 0.0
C562 C 0.13558 0.48332 0.06722 0.0
C563 C 0.13114 0.45906 0.09271 0.0
C564 C 0.16773 0.49872 0.05128 0.0
C565 C 0.19499 0.49009 0.06061 0.0
U566 U 0.23926 0.42812 0.14307 0.0
O567 O 0.26952 0.39771 0.13058 0.0
O568 O 0.29816 0.45673 0.15761 0.0
C569 C 0.30116 0.42825 0.14237 0.0
C570 C 0.22023 0.45825 0.09556 0.0
C571 C 0.33104 0.44164 0.12102 0.0
C572 C 0.36415 0.47987 0.07704 0.0
C573 C 0.33454 0.46654 0.09623 0.0
C574 C 0.38627 0.44286 0.10692 0.0
C575 C 0.39039 0.46829 0.08241 0.0
C576 C 0.35692 0.42971 0.12601 0.0
C577 C 0.19814 0.38257 0.22243 0.0
C578 C 0.21554 0.39195 0.28032 0.0
C579 C 0.16852 0.32695 0.25636 0.0
C580 C 0.17288 0.34212 0.2259 0.0
C581 C 0.18905 0.35206 0.28402 0.0
C582 C 0.22008 0.40703 0.24994 0.0
C583 C 0.1981 0.39986 0.19123 0.0
O584 O 0.24174 0.47991 0.12122 0.0
O585 O 0.21135 0.42051 0.09491 0.0
O586 O 0.22207 0.43798 0.18976 0.0
O587 O 0.19391 0.37788 0.1646 0.0
H588 H 0.15486 0.43199 0.12195 0.0
H589 H 0.10663 0.44692 0.10546 0.0
H590 H 0.17186 0.51751 1.03159 0.0
H591 H 0.21962 0.5024 0.04802 0.0
H592 H 0.36678 0.49958 0.05842 0.0
H593 H 0.31469 0.47599 0.09202 0.0
H594 H 0.40615 0.43357 0.11177 0.0
H595 H 0.35467 0.41054 0.14498 0.0
H596 H 0.23161 0.4122 0.30114 0.0
H597 H 0.14774 0.29614 0.25844 0.0
H598 H 0.15534 0.32259 0.20526 0.0
H599 H 0.2397 0.43837 0.24836 0.0
C600 C 0.40593 0.92187 0.32286 0.0
C601 C 0.38202 0.93033 0.30487 0.0
C602 C 0.3385 0.90443 0.34591 0.0
C603 C 0.34851 0.9217 0.31637 0.0
C604 C 0.36279 0.89659 0.36396 0.0
C605 C 0.3962 0.90528 0.35253 0.0
U606 U 0.48267 0.95726 0.26356 0.0
O607 O 0.54192 0.98512 0.27646 0.0
O608 O 0.51172 0.92607 0.24953 0.0
C609 C 0.54304 0.95393 0.2644 0.0
C610 C 0.44056 0.92858 0.31112 0.0
C611 C 0.56308 0.94006 0.28496 0.0
C612 C 0.56623 0.8991 0.32639 0.0
C613 C 0.54618 0.91232 0.30797 0.0
C614 C 0.62 0.94169 0.2992 0.0
C615 C 0.60331 0.91361 0.32197 0.0
C616 C 0.60008 0.95474 0.28091 0.0
C617 C 0.48565 1.00629 0.18584 0.0
C618 C 0.53518 1.02271 0.15139 0.0
C619 C 0.48637 0.03511 0.13487 0.0
C620 C 0.4698 1.02029 0.1633 0.0
C621 C 0.51899 0.03611 0.12862 0.0
C622 C 0.51868 1.00798 0.17985 0.0
C623 C 0.46718 0.98897 0.215 0.0
O624 O 0.43779 0.90679 0.28487 0.0
O625 O 0.4673 0.96589 0.31174 0.0
O626 O 0.48448 1.00932 0.2426 0.0
O627 O 0.45405 0.95033 0.21586 0.0
H628 H 0.38905 0.94306 0.28187 0.0
H629 H 0.33019 0.92791 0.30191 0.0
H630 H 0.35579 0.88326 0.38674 0.0
H631 H 0.41431 0.8985 0.36671 0.0
H632 H 0.55274 0.87738 0.34374 0.0
H633 H 0.51755 0.90073 0.31146 0.0
H634 H 0.64852 0.95339 0.29519 0.0
H635 H 0.61357 0.97614 0.26331 0.0
H636 H 0.56007 1.02268 0.14677 0.0
H637 H 0.47331 0.04501 0.11746 0.0
H638 H 0.44429 1.01915 0.16742 0.0
H639 H 0.53131 0.99721 0.19689 0.0
C640 C 0.14525 0.50312 0.32564 0.0
C641 C 0.11777 0.46661 0.33565 0.0
C642 C 0.16286 0.44681 0.34989 0.0
C643 C 0.12646 0.43871 0.34751 0.0
C644 C 0.19017 0.48337 0.33988 0.0
C645 C 0.1815 0.51107 0.32806 0.0
U646 U 0.10986 0.55828 0.26961 0.0
O647 O 0.13829 0.62256 0.26298 0.0
O648 O 0.08606 0.59494 0.28494 0.0
C649 C 0.11441 0.62834 0.27758 0.0
C650 C 0.13784 0.53522 0.31636 0.0
C651 C 0.12916 0.66355 0.3016 0.0
C652 C 0.18042 0.72556 0.32771 0.0
C653 C 0.16705 0.68925 0.30899 0.0
C654 C 0.11837 0.71035 0.33341 0.0
C655 C 0.15627 0.73711 0.33942 0.0
C656 C 0.10504 0.67415 0.31463 0.0
C657 C 0.06189 0.51659 0.18389 0.0
C658 C 0.04012 0.55091 0.14936 0.0
C659 C 0.035 0.48876 0.12901 0.0
C660 C 0.05106 0.48661 0.15865 0.0
C661 C 0.02957 0.52104 0.12395 0.0
C662 C 0.05625 0.54877 0.17905 0.0
C663 C 0.07912 0.51375 0.21482 0.0
O664 O 0.15698 0.55769 0.29397 0.0
O665 O 0.10376 0.52736 0.31414 0.0
O666 O 0.06123 0.51042 0.24044 0.0
O667 O 0.1145 0.5387 0.22043 0.0
H668 H 0.08961 0.45973 0.33472 0.0
H669 H 0.10465 0.41086 0.35484 0.0
H670 H 0.2185 0.49083 0.34119 0.0
H671 H 0.20347 0.5392 0.32127 0.0
H672 H 0.20977 0.74527 0.33184 0.0
H673 H 0.1865 0.68213 0.29935 0.0
H674 H 0.09886 0.71804 0.34201 0.0
H675 H 0.07574 0.65513 0.3092 0.0
H676 H 0.0364 0.57623 0.14614 0.0
H677 H 1.02653 0.46497 0.11013 0.0
H678 H 0.05504 0.46145 0.16187 0.0
H679 H 0.06445 0.57229 0.19816 0.0
C680 C 0.40674 0.51361 0.32651 0.0
C681 C 0.38197 0.47813 0.30776 0.0
C682 C 0.33747 0.46109 0.34801 0.0
C683 C 0.34758 0.452 0.31849 0.0
C684 C 0.3626 0.49636 0.36676 0.0
C685 C 0.39683 0.52227 0.35612 0.0
U686 U 0.48613 0.5598 0.2689 0.0
O687 O 0.5167 0.62299 0.2584 0.0
O688 O 0.54524 0.59655 0.28344 0.0
C689 C 0.54742 0.62935 0.27354 0.0
C690 C 0.44239 0.54329 0.31571 0.0
C691 C 0.56856 0.66651 0.29551 0.0
C692 C 0.5846 0.73505 0.31162 0.0
C693 C 0.56145 0.69819 0.29405 0.0
C694 C 0.62203 0.7092 0.33312 0.0
C695 C 0.61559 0.74128 0.33094 0.0
C696 C 0.59892 0.6724 0.31555 0.0
C697 C 0.4879 0.51264 0.18612 0.0
C698 C 0.49607 0.53074 0.13057 0.0
C699 C 0.52668 0.49789 0.15332 0.0
C700 C 0.51104 0.4966 0.18257 0.0
C701 C 0.51934 0.51503 0.12699 0.0
C702 C 0.48036 0.52927 0.15951 0.0
C703 C 0.47073 0.51111 0.21685 0.0
O704 O 0.46805 0.53372 0.31522 0.0
O705 O 0.44135 0.56262 0.2909 0.0
O706 O 0.45749 0.53515 0.22059 0.0
O707 O 0.48778 0.50948 0.24362 0.0
H708 H 0.38901 0.47097 0.28476 0.0
H709 H 0.32869 0.42506 0.30346 0.0
H710 H 0.35565 0.50425 0.38952 0.0
H711 H 0.41548 0.54956 0.37091 0.0
H712 H 0.57879 0.75904 0.30919 0.0
H713 H 0.53865 0.69502 0.27854 0.0
H714 H 0.64561 0.71278 0.34766 0.0
H715 H 0.60556 0.64891 0.3169 0.0
H716 H 0.48997 0.54446 0.11094 0.0
H717 H 0.54453 0.48559 0.15133 0.0
H718 H 0.51709 0.48307 0.2024 0.0
H719 H 0.46232 0.54138 0.16095 0.0
Tb720 Tb 0.56536 0.05757 0.04264 0.0
C721 C 0.54219 0.96692 0.05364 0.0
Tb722 Tb 0.48266 0.99289 0.03897 0.0
O723 O 0.56379 0.07947 0.0921 0.0
O724 O 0.52721 1.02117 0.07429 0.0
O725 O 0.5686 1.00293 0.04698 0.0
C726 C 0.41435 0.94757 0.05588 0.0
O727 O 0.50753 0.95797 0.05468 0.0
C728 C 0.51305 1.0055 0.9835 0.0
C729 C 0.5059 0.08366 1.02776 0.0
O730 O 0.42734 0.94055 1.03038 0.0
O731 O 0.43966 0.98057 0.07147 0.0
O732 O 0.48407 0.97219 0.9891 0.0
O733 O 0.5204 0.0299 1.00745 0.0
O734 O 0.47943 0.04777 0.03482 0.0
O735 O 0.54047 0.09228 1.02643 0.0
C736 C 0.63385 0.10169 1.02545 0.0
O737 O 0.62092 0.10975 0.05053 0.0
O738 O 0.60831 0.0684 1.01036 0.0
C739 C 0.53387 0.04681 0.09703 0.0
Tb740 Tb 0.99976 0.53938 1.03389 0.0
C741 C 0.07915 0.60098 0.06399 0.0
Tb742 Tb 0.05626 0.5114 0.03937 0.0
O743 O 1.00135 0.54813 0.08667 0.0
O744 O 1.0131 0.5065 0.06566 0.0
O745 O 0.04856 0.59628 0.04924 0.0
C746 C 0.10714 0.49295 0.05728 0.0
O747 O 0.0862 0.57125 0.06532 0.0
C748 C 0.04067 0.52601 0.9812 0.0
C749 C 0.97579 0.44828 1.01339 0.0
O750 O 0.1097 0.51661 0.03518 0.0
O751 O 0.07582 0.47953 0.06928 0.0
O752 O 0.05068 0.50002 0.98653 0.0
O753 O 0.04298 0.5444 1.00777 0.0
O754 O 1.00671 0.45363 1.0282 0.0
O755 O 0.96904 0.47812 1.01042 0.0
C756 C 0.95848 0.56603 1.00639 0.0
O757 O 0.9476 0.53929 1.02744 0.0
O758 O 0.99208 0.5775 1.00158 0.0
C759 C 1.01366 0.52398 0.09219 0.0
Tb760 Tb 0.48733 0.51606 0.03849 0.0
C761 C 0.50362 0.44499 1.02117 0.0
Tb762 Tb 0.56808 0.5342 0.04139 0.0
O763 O 0.48856 0.53567 0.9894 0.0
O764 O 0.52397 0.51681 1.00631 0.0
O765 O 0.47931 0.45583 1.02812 0.0
C766 C 0.63566 0.55972 1.02389 0.0
O767 O 0.53941 0.47123 1.02237 0.0
C768 C 0.53613 0.51804 0.09599 0.0
C769 C 0.55203 0.60599 0.05539 0.0
O770 O 0.62227 0.54005 0.04898 0.0
O771 O 0.61117 0.56544 1.00908 0.0
O772 O 0.56324 0.51235 0.0905 0.0
O773 O 0.53185 0.53536 0.07297 0.0
O774 O 0.57626 0.59505 0.04805 0.0
O775 O 0.51643 0.57956 0.05596 0.0
C776 C 0.42328 0.48375 0.06432 0.0
O777 O 0.43301 0.50977 0.04262 0.0
O778 O 0.44911 0.47578 0.07047 0.0
C779 C 0.51812 0.53441 0.98413 0.0
Tb780 Tb 0.23202 0.39091 0.37598 0.0
C781 C 0.20885 0.30025 0.38697 0.0
Tb782 Tb 0.14932 0.32622 0.3723 0.0
O783 O 0.23046 0.41279 0.42543 0.0
O784 O 0.19387 0.3545 0.40762 0.0
O785 O 0.23526 0.33626 0.3803 0.0
C786 C 0.08101 0.2809 0.38921 0.0
O787 O 0.17419 0.2913 0.38801 0.0
C788 C 0.17971 0.33883 0.31683 0.0
C789 C 0.17256 0.417 0.36109 0.0
O790 O 0.094 0.27387 0.36372 0.0
O791 O 0.10632 0.3139 0.4048 0.0
O792 O 0.15073 0.30553 0.32243 0.0
O793 O 0.18707 0.36323 0.34078 0.0
O794 O 0.14609 0.3811 0.36815 0.0
O795 O 0.20713 0.42562 0.35976 0.0
C796 C 0.30051 0.43502 0.35878 0.0
O797 O 0.28758 0.44309 0.38387 0.0
O798 O 0.27497 0.40173 0.34369 0.0
C799 C 0.20053 0.38013 0.43036 0.0
Tb800 Tb 0.66641 0.87271 0.36723 0.0
C801 C 0.7458 0.93431 0.39735 0.0
Tb802 Tb 0.72291 0.84473 0.37272 0.0
O803 O 0.66799 0.88145 0.42002 0.0
O804 O 0.67975 0.83982 0.39901 0.0
O805 O 0.71521 0.92961 0.38258 0.0
C806 C 0.77379 0.82629 0.39063 0.0
O807 O 0.75284 0.90458 0.39868 0.0
C808 C 0.70733 0.85934 0.31455 0.0
C809 C 0.64245 0.78161 0.34674 0.0
O810 O 0.77635 0.84995 0.36853 0.0
O811 O 0.74247 0.81286 0.40263 0.0
O812 O 0.71734 0.83335 0.31988 0.0
O813 O 0.70963 0.87773 0.34112 0.0
O814 O 0.67336 0.78696 0.36155 0.0
O815 O 0.63569 0.81144 0.34376 0.0
C816 C 0.62513 0.89935 0.33972 0.0
O817 O 0.61425 0.87262 0.36078 0.0
O818 O 0.65874 0.91083 0.33492 0.0
C819 C 0.68029 0.8573 0.42553 0.0
Tb820 Tb 0.15399 0.8494 0.37183 0.0
C821 C 0.17028 0.77832 0.3545 0.0
Tb822 Tb 0.23474 0.86753 0.37472 0.0
O823 O 0.15522 0.869 0.32273 0.0
O824 O 0.19063 0.85014 0.33965 0.0
O825 O 0.14597 0.78916 0.36145 0.0
C826 C 0.30232 0.89305 0.35723 0.0
O827 O 0.20607 0.80456 0.3557 0.0
C828 C 0.2028 0.85137 0.42933 0.0
C829 C 0.21869 0.93932 0.38872 0.0
O830 O 0.28893 0.87337 0.38232 0.0
O831 O 0.27783 0.89877 0.34241 0.0
O832 O 0.2299 0.84569 0.42383 0.0
O833 O 0.19851 0.8687 0.4063 0.0
O834 O 0.24292 0.92838 0.38138 0.0
O835 O 0.1831 0.91289 0.38929 0.0
C836 C 0.08994 0.81708 0.39765 0.0
O837 O 0.09967 0.8431 0.37595 0.0
O838 O 0.11577 0.80911 0.4038 0.0
C839 C 0.18479 0.86774 0.31747 0.0
Tb840 Tb 0.89868 0.72426 0.7093 0.0
C841 C 0.87552 0.63361 0.7203 0.0
Tb842 Tb 0.81598 0.65957 0.70563 0.0
O843 O 0.89711 0.74615 0.75876 0.0
O844 O 0.86053 0.68785 0.74095 0.0
O845 O 0.90193 0.66963 0.71364 0.0
C846 C 0.74767 0.61423 0.72254 0.0
O847 O 0.84086 0.62465 0.72134 0.0
C848 C 0.84637 0.67218 0.65016 0.0
C849 C 0.8392 0.75034 0.69443 0.0
O850 O 0.76066 0.60722 0.69705 0.0
O851 O 0.77298 0.64724 0.73813 0.0
O852 O 0.81739 0.63888 0.65576 0.0
O853 O 0.85372 0.69658 0.67411 0.0
O854 O 0.81274 0.71444 0.70148 0.0
O855 O 0.87377 0.75897 0.69309 0.0
C856 C 0.96716 0.76839 0.6921 0.0
O857 O 0.95424 0.77645 0.71719 0.0
O858 O 0.94162 0.73509 0.67702 0.0
C859 C 0.86719 0.71349 0.76369 0.0
Tb860 Tb 0.33308 0.20605 0.70057 0.0
C861 C 0.41247 0.26765 0.73067 0.0
Tb862 Tb 0.38958 0.17807 0.70604 0.0
O863 O 0.33467 0.2148 0.75335 0.0
O864 O 0.34642 0.17317 0.73234 0.0
O865 O 0.38188 0.26295 0.71591 0.0
C866 C 0.44045 0.15962 0.72395 0.0
O867 O 0.41951 0.23792 0.732 0.0
C868 C 0.37399 0.19268 0.64788 0.0
C869 C 0.30911 0.11495 0.68007 0.0
O870 O 0.44301 0.18328 0.70185 0.0
O871 O 0.40913 0.1462 0.73595 0.0
O872 O 0.384 0.16669 0.6532 0.0
O873 O 0.3763 0.21107 0.67444 0.0
O874 O 0.34003 0.1203 0.69488 0.0
O875 O 0.30236 0.14479 0.67709 0.0
C876 C 0.29179 0.23269 0.67307 0.0
O877 O 0.28092 0.20595 0.69412 0.0
O878 O 0.3254 0.24417 0.66826 0.0
C879 C 0.34697 0.19065 0.75886 0.0
Tb880 Tb 0.82062 0.18275 0.70515 0.0
C881 C 0.83689 0.11165 0.68782 0.0
Tb882 Tb 0.90137 0.20086 0.70803 0.0
O883 O 0.82185 0.20235 0.65606 0.0
O884 O 0.85725 0.18348 0.67296 0.0
O885 O 0.81259 0.12251 0.69477 0.0
C886 C 0.96894 0.22636 0.69053 0.0
O887 O 0.87268 0.13788 0.68902 0.0
C888 C 0.86943 0.18471 0.76264 0.0
C889 C 0.88534 0.27266 0.72203 0.0
O890 O 0.95555 0.20669 0.71562 0.0
O891 O 0.94445 0.23208 0.67571 0.0
O892 O 0.89653 0.17901 0.75714 0.0
O893 O 0.86515 0.20204 0.73961 0.0
O894 O 0.90956 0.26172 0.71469 0.0
O895 O 0.84974 0.24624 0.7226 0.0
C896 C 0.75659 0.15045 0.73099 0.0
O897 O 0.76631 0.17646 0.70929 0.0
O898 O 0.78242 0.14247 0.73713 0.0
C899 C 0.85141 0.20108 0.65078 0.0
loop_
_geom_bond_atom_site_label_1
_geom_bond_atom_site_label_2
_geom_bond_distance
_geom_bond_site_symmetry_2
_ccdc_geom_bond_type
C0 C1 1.264 . S
C0 C5 1.479 . S
C0 C10 1.465 . S
C1 C0 1.264 . S
C1 C3 1.339 . S
C1 H28 0.931 . S
C2 C3 1.395 . S
C2 C4 1.320 . S
C3 C1 1.339 . S
C3 C2 1.395 . S
C3 H29 0.929 . S
C4 C2 1.320 . S
C4 C5 1.405 . S
C4 H30 0.930 . S
C5 C0 1.479 . S
C5 C4 1.405 . S
C5 H31 0.931 . S
U6 O7 2.454 . S
U6 O8 2.458 . S
U6 C9 2.984 . S
U6 C10 2.847 . S
U6 C23 2.882 . S
U6 O24 2.441 . S
U6 O25 2.420 . S
U6 O26 2.455 . S
U6 O27 2.449 . S
O7 U6 2.454 . S
O7 C9 1.353 . S
O8 U6 2.458 . S
O8 C9 1.286 . S
C9 U6 2.984 . S
C9 O7 1.353 . S
C9 O8 1.286 . S
C9 C11 1.363 . S
C10 C0 1.465 . S
C10 U6 2.847 . S
C10 O24 1.249 . S
C10 O25 1.202 . S
C11 C9 1.363 . S
C11 C13 1.408 . S
C11 C16 1.342 . S
C12 C13 1.310 1_565 S
C12 C15 1.461 . S
C12 H32 0.932 . S
C13 C11 1.408 . S
C13 C12 1.310 1_545 S
C13 H33 0.930 . S
C14 C15 1.474 . S
C14 C16 1.285 1_565 S
C14 H34 0.929 . S
C15 C12 1.461 . S
C15 C14 1.474 . S
C16 C11 1.342 . S
C16 C14 1.285 1_545 S
C16 H35 0.930 . S
C17 C20 1.424 . S
C17 C22 1.245 . S
C17 C23 1.428 . S
C18 C21 1.260 . S
C18 C22 1.477 . S
C18 H36 0.932 . S
C19 C20 1.384 . S
C19 C21 1.479 . S
C19 H37 0.929 . S
C20 C17 1.424 . S
C20 C19 1.384 . S
C20 H38 0.928 . S
C21 C18 1.260 . S
C21 C19 1.479 . S
C22 C17 1.245 . S
C22 C18 1.477 . S
C22 H39 0.932 . S
C23 U6 2.882 . S
C23 C17 1.428 . S
C23 O26 1.301 . S
C23 O27 1.282 . S
O24 U6 2.441 . S
O24 C10 1.249 . S
O25 U6 2.420 . S
O25 C10 1.202 . S
O26 U6 2.455 . S
O26 C23 1.301 . S
O27 U6 2.449 . S
O27 C23 1.282 . S
H28 C1 0.931 . S
H29 C3 0.929 . S
H30 C4 0.930 . S
H31 C5 0.931 . S
H32 C12 0.932 . S
H33 C13 0.930 . S
H34 C14 0.929 . S
H35 C16 0.930 . S
H36 C18 0.932 . S
H37 C19 0.929 . S
H38 C20 0.928 . S
H39 C22 0.932 . S
C40 C41 1.264 . S
C40 C45 1.479 . S
C40 C50 1.465 . S
C41 C40 1.264 . S
C41 C43 1.339 1_655 S
C41 H68 0.931 . S
C42 C43 1.395 . S
C42 C44 1.320 . S
C43 C41 1.339 1_455 S
C43 C42 1.395 . S
C43 H69 0.929 . S
C44 C42 1.320 . S
C44 C45 1.405 1_455 S
C44 H70 0.930 . S
C45 C40 1.479 . S
C45 C44 1.405 1_655 S
C45 H71 0.931 . S
U46 O47 2.454 . S
U46 O48 2.458 . S
U46 C49 2.984 . S
U46 C50 2.847 . S
U46 C63 2.882 . S
U46 O64 2.441 . S
U46 O65 2.420 . S
U46 O66 2.455 . S
U46 O67 2.449 . S
O47 U46 2.454 . S
O47 C49 1.353 . S
O48 U46 2.458 . S
O48 C49 1.286 . S
C49 U46 2.984 . S
C49 O47 1.353 . S
C49 O48 1.286 . S
C49 C51 1.363 . S
C50 C40 1.465 . S
C50 U46 2.847 . S
C50 O64 1.249 . S
C50 O65 1.202 . S
C51 C49 1.363 . S
C51 C53 1.408 . S
C51 C56 1.342 . S
C52 C53 1.310 1_565 S
C52 C55 1.461 . S
C52 H72 0.932 . S
C53 C51 1.408 . S
C53 C52 1.310 1_545 S
C53 H73 0.930 . S
C54 C55 1.474 . S
C54 C56 1.285 1_565 S
C54 H74 0.929 . S
C55 C52 1.461 . S
C55 C54 1.474 . S
C56 C51 1.342 . S
C56 C54 1.285 1_545 S
C56 H75 0.930 . S
C57 C60 1.424 . S
C57 C62 1.245 . S
C57 C63 1.428 . S
C58 C61 1.260 . S
C58 C62 1.477 . S
C58 H76 0.932 . S
C59 C60 1.384 . S
C59 C61 1.479 . S
C59 H77 0.929 . S
C60 C57 1.424 . S
C60 C59 1.384 . S
C60 H78 0.928 . S
C61 C58 1.260 . S
C61 C59 1.479 . S
C62 C57 1.245 . S
C62 C58 1.477 . S
C62 H79 0.932 . S
C63 U46 2.882 . S
C63 C57 1.428 . S
C63 O66 1.301 . S
C63 O67 1.282 . S
O64 U46 2.441 . S
O64 C50 1.249 . S
O65 U46 2.420 . S
O65 C50 1.202 . S
O66 U46 2.455 . S
O66 C63 1.301 . S
O67 U46 2.449 . S
O67 C63 1.282 . S
H68 C41 0.931 . S
H69 C43 0.929 . S
H70 C44 0.930 . S
H71 C45 0.931 . S
H72 C52 0.932 . S
H73 C53 0.930 . S
H74 C54 0.929 . S
H75 C56 0.930 . S
H76 C58 0.932 . S
H77 C59 0.929 . S
H78 C60 0.928 . S
H79 C62 0.932 . S
C80 C81 1.264 . S
C80 C85 1.479 . S
C80 C90 1.465 . S
C81 C80 1.264 . S
C81 C83 1.339 . S
C81 H108 0.931 . S
C82 C83 1.395 . S
C82 C84 1.320 . S
C83 C81 1.339 . S
C83 C82 1.395 . S
C83 H109 0.929 . S
C84 C82 1.320 . S
C84 C85 1.405 . S
C84 H110 0.930 . S
C85 C80 1.479 . S
C85 C84 1.405 . S
C85 H111 0.931 . S
U86 O87 2.454 . S
U86 O88 2.458 . S
U86 C89 2.984 . S
U86 C90 2.847 . S
U86 C103 2.882 . S
U86 O104 2.441 . S
U86 O105 2.420 . S
U86 O106 2.455 . S
U86 O107 2.449 . S
O87 U86 2.454 . S
O87 C89 1.353 . S
O88 U86 2.458 . S
O88 C89 1.286 . S
C89 U86 2.984 . S
C89 O87 1.353 . S
C89 O88 1.286 . S
C89 C91 1.363 . S
C90 C80 1.465 . S
C90 U86 2.847 . S
C90 O104 1.249 . S
C90 O105 1.202 . S
C91 C89 1.363 . S
C91 C93 1.408 . S
C91 C96 1.351 . S
C92 C93 1.310 1_455 S
C92 C95 1.461 . S
C92 H112 0.932 . S
C93 C91 1.408 . S
C93 C92 1.310 1_655 S
C93 H113 0.930 . S
C94 C95 1.474 . S
C94 C96 1.275 1_455 S
C94 H114 0.929 . S
C95 C92 1.461 . S
C95 C94 1.474 . S
C96 C91 1.351 . S
C96 C94 1.275 1_655 S
C96 H115 0.931 . S
C97 C100 1.424 . S
C97 C102 1.245 . S
C97 C103 1.428 . S
C98 C101 1.260 . S
C98 C102 1.477 . S
C98 H116 0.932 . S
C99 C100 1.384 . S
C99 C101 1.479 . S
C99 H117 0.929 . S
C100 C97 1.424 . S
C100 C99 1.384 . S
C100 H118 0.928 . S
C101 C98 1.260 . S
C101 C99 1.479 . S
C102 C97 1.245 . S
C102 C98 1.477 . S
C102 H119 0.932 . S
C103 U86 2.882 . S
C103 C97 1.428 . S
C103 O106 1.301 . S
C103 O107 1.282 . S
O104 U86 2.441 . S
O104 C90 1.249 . S
O105 U86 2.420 . S
O105 C90 1.202 . S
O106 U86 2.455 . S
O106 C103 1.301 . S
O107 U86 2.449 . S
O107 C103 1.282 . S
H108 C81 0.931 . S
H109 C83 0.929 . S
H110 C84 0.930 . S
H111 C85 0.931 . S
H112 C92 0.932 . S
H113 C93 0.930 . S
H114 C94 0.929 . S
H115 C96 0.931 . S
H116 C98 0.932 . S
H117 C99 0.929 . S
H118 C100 0.928 . S
H119 C102 0.932 . S
C120 C121 1.264 . S
C120 C125 1.479 . S
C120 C130 1.465 . S
C121 C120 1.264 . S
C121 C123 1.339 1_455 S
C121 H148 0.931 . S
C122 C123 1.395 . S
C122 C124 1.320 . S
C123 C121 1.339 1_655 S
C123 C122 1.395 . S
C123 H149 0.929 . S
C124 C122 1.320 . S
C124 C125 1.405 1_655 S
C124 H150 0.930 . S
C125 C120 1.479 . S
C125 C124 1.405 1_455 S
C125 H151 0.931 . S
U126 O127 2.454 . S
U126 O128 2.458 . S
U126 C129 2.984 . S
U126 C130 2.847 . S
U126 C143 2.882 . S
U126 O144 2.441 . S
U126 O145 2.420 . S
U126 O146 2.455 . S
U126 O147 2.449 . S
O127 U126 2.454 . S
O127 C129 1.353 . S
O128 U126 2.458 . S
O128 C129 1.286 . S
C129 U126 2.984 . S
C129 O127 1.353 . S
C129 O128 1.286 . S
C129 C131 1.363 . S
C130 C120 1.465 . S
C130 U126 2.847 . S
C130 O144 1.249 . S
C130 O145 1.202 . S
C131 C129 1.363 . S
C131 C133 1.408 . S
C131 C136 1.342 . S
C132 C133 1.310 . S
C132 C135 1.461 . S
C132 H152 0.932 . S
C133 C131 1.408 . S
C133 C132 1.310 . S
C133 H153 0.930 . S
C134 C135 1.474 . S
C134 C136 1.285 . S
C134 H154 0.929 . S
C135 C132 1.461 . S
C135 C134 1.474 . S
C136 C131 1.342 . S
C136 C134 1.285 . S
C136 H155 0.930 . S
C137 C140 1.424 . S
C137 C142 1.245 . S
C137 C143 1.428 . S
C138 C141 1.260 . S
C138 C142 1.477 . S
C138 H156 0.932 . S
C139 C140 1.384 . S
C139 C141 1.479 . S
C139 H157 0.929 . S
C140 C137 1.424 . S
C140 C139 1.384 . S
C140 H158 0.928 . S
C141 C138 1.260 . S
C141 C139 1.479 . S
C142 C137 1.245 . S
C142 C138 1.477 . S
C142 H159 0.932 . S
C143 U126 2.882 . S
C143 C137 1.428 . S
C143 O146 1.301 . S
C143 O147 1.282 . S
O144 U126 2.441 . S
O144 C130 1.249 . S
O145 U126 2.420 . S
O145 C130 1.202 . S
O146 U126 2.455 . S
O146 C143 1.301 . S
O147 U126 2.449 . S
O147 C143 1.282 . S
H148 C121 0.931 . S
H149 C123 0.929 . S
H150 C124 0.930 . S
H151 C125 0.931 . S
H152 C132 0.932 . S
H153 C133 0.930 . S
H154 C134 0.929 . S
H155 C136 0.930 . S
H156 C138 0.932 . S
H157 C139 0.929 . S
H158 C140 0.928 . S
H159 C142 0.932 . S
C160 C161 1.264 . S
C160 C165 1.479 . S
C160 C170 1.465 . S
C161 C160 1.264 . S
C161 C163 1.339 . S
C161 H188 0.931 . S
C162 C163 1.395 . S
C162 C164 1.320 . S
C163 C161 1.339 . S
C163 C162 1.395 . S
C163 H189 0.929 . S
C164 C162 1.320 . S
C164 C165 1.405 . S
C164 H190 0.930 . S
C165 C160 1.479 . S
C165 C164 1.405 . S
C165 H191 0.931 . S
U166 O167 2.454 . S
U166 O168 2.458 . S
U166 C169 2.984 . S
U166 C170 2.847 . S
U166 C183 2.882 . S
U166 O184 2.441 . S
U166 O185 2.420 . S
U166 O186 2.455 . S
U166 O187 2.449 . S
O167 U166 2.454 . S
O167 C169 1.353 . S
O168 U166 2.458 . S
O168 C169 1.286 . S
C169 U166 2.984 . S
C169 O167 1.353 . S
C169 O168 1.286 . S
C169 C171 1.363 . S
C170 C160 1.465 . S
C170 U166 2.847 . S
C170 O184 1.249 . S
C170 O185 1.202 . S
C171 C169 1.363 . S
C171 C173 1.408 . S
C171 C176 1.342 . S
C172 C173 1.310 1_545 S
C172 C175 1.461 . S
C172 H192 0.932 . S
C173 C171 1.408 . S
C173 C172 1.310 1_565 S
C173 H193 0.930 . S
C174 C175 1.474 . S
C174 C176 1.285 1_545 S
C174 H194 0.929 . S
C175 C172 1.461 . S
C175 C174 1.474 . S
C176 C171 1.342 . S
C176 C174 1.285 1_565 S
C176 H195 0.930 . S
C177 C180 1.424 . S
C177 C182 1.245 . S
C177 C183 1.428 . S
C178 C181 1.260 . S
C178 C182 1.477 . S
C178 H196 0.932 . S
C179 C180 1.384 . S
C179 C181 1.479 . S
C179 H197 0.929 . S
C180 C177 1.424 . S
C180 C179 1.384 . S
C180 H198 0.928 . S
C181 C178 1.260 . S
C181 C179 1.479 . S
C182 C177 1.245 . S
C182 C178 1.477 . S
C182 H199 0.932 . S
C183 U166 2.882 . S
C183 C177 1.428 . S
C183 O186 1.301 . S
C183 O187 1.282 . S
O184 U166 2.441 . S
O184 C170 1.249 . S
O185 U166 2.420 . S
O185 C170 1.202 . S
O186 U166 2.455 . S
O186 C183 1.301 . S
O187 U166 2.449 . S
O187 C183 1.282 . S
H188 C161 0.931 . S
H189 C163 0.929 . S
H190 C164 0.930 . S
H191 C165 0.931 . S
H192 C172 0.932 . S
H193 C173 0.930 . S
H194 C174 0.929 . S
H195 C176 0.930 . S
H196 C178 0.932 . S
H197 C179 0.929 . S
H198 C180 0.928 . S
H199 C182 0.932 . S
C200 C201 1.264 . S
C200 C205 1.479 . S
C200 C210 1.465 . S
C201 C200 1.264 . S
C201 C203 1.339 1_455 S
C201 H228 0.931 . S
C202 C203 1.395 . S
C202 C204 1.320 1_655 S
C203 C201 1.339 1_655 S
C203 C202 1.395 . S
C203 H229 0.929 . S
C204 C202 1.320 1_455 S
C204 C205 1.405 . S
C204 H230 0.930 1_455 S
C205 C200 1.479 . S
C205 C204 1.405 . S
C205 H231 0.931 . S
U206 O207 2.454 . S
U206 O208 2.458 . S
U206 C209 2.984 . S
U206 C210 2.847 . S
U206 C223 2.882 . S
U206 O224 2.441 . S
U206 O225 2.420 . S
U206 O226 2.455 . S
U206 O227 2.449 . S
O207 U206 2.454 . S
O207 C209 1.353 . S
O208 U206 2.458 . S
O208 C209 1.286 . S
C209 U206 2.984 . S
C209 O207 1.353 . S
C209 O208 1.286 . S
C209 C211 1.363 . S
C210 C200 1.465 . S
C210 U206 2.847 . S
C210 O224 1.249 . S
C210 O225 1.202 . S
C211 C209 1.363 . S
C211 C213 1.408 . S
C211 C216 1.342 . S
C212 C213 1.310 1_545 S
C212 C215 1.461 . S
C212 H232 0.932 . S
C213 C211 1.408 . S
C213 C212 1.310 1_565 S
C213 H233 0.930 . S
C214 C215 1.474 . S
C214 C216 1.285 1_545 S
C214 H234 0.929 . S
C215 C212 1.461 . S
C215 C214 1.474 . S
C216 C211 1.342 . S
C216 C214 1.285 1_565 S
C216 H235 0.930 . S
C217 C220 1.424 . S
C217 C222 1.245 . S
C217 C223 1.428 . S
C218 C221 1.260 . S
C218 C222 1.477 . S
C218 H236 0.932 . S
C219 C220 1.384 . S
C219 C221 1.479 . S
C219 H237 0.929 . S
C220 C217 1.424 . S
C220 C219 1.384 . S
C220 H238 0.928 . S
C221 C218 1.260 . S
C221 C219 1.479 . S
C222 C217 1.245 . S
C222 C218 1.477 . S
C222 H239 0.932 . S
C223 U206 2.882 . S
C223 C217 1.428 . S
C223 O226 1.301 . S
C223 O227 1.282 . S
O224 U206 2.441 . S
O224 C210 1.249 . S
O225 U206 2.420 . S
O225 C210 1.202 . S
O226 U206 2.455 . S
O226 C223 1.301 . S
O227 U206 2.449 . S
O227 C223 1.282 . S
H228 C201 0.931 . S
H229 C203 0.929 . S
H230 C204 0.930 1_655 S
H231 C205 0.931 . S
H232 C212 0.932 . S
H233 C213 0.930 . S
H234 C214 0.929 . S
H235 C216 0.930 . S
H236 C218 0.932 . S
H237 C219 0.929 . S
H238 C220 0.928 . S
H239 C222 0.932 . S
C240 C241 1.264 . S
C240 C245 1.479 . S
C240 C250 1.465 . S
C241 C240 1.264 . S
C241 C243 1.339 . S
C241 H268 0.931 . S
C242 C243 1.395 . S
C242 C244 1.320 . S
C243 C241 1.339 . S
C243 C242 1.395 . S
C243 H269 0.929 . S
C244 C242 1.320 . S
C244 C245 1.405 . S
C244 H270 0.930 . S
C245 C240 1.479 . S
C245 C244 1.405 . S
C245 H271 0.931 . S
U246 O247 2.454 . S
U246 O248 2.458 . S
U246 C249 2.984 . S
U246 C250 2.847 . S
U246 C263 2.882 . S
U246 O264 2.441 . S
U246 O265 2.420 . S
U246 O266 2.455 . S
U246 O267 2.449 . S
O247 U246 2.454 . S
O247 C249 1.353 . S
O248 U246 2.458 . S
O248 C249 1.286 . S
C249 U246 2.984 . S
C249 O247 1.353 . S
C249 O248 1.286 . S
C249 C251 1.363 . S
C250 C240 1.465 . S
C250 U246 2.847 . S
C250 O264 1.249 . S
C250 O265 1.202 . S
C251 C249 1.363 . S
C251 C253 1.408 . S
C251 C256 1.342 . S
C252 C253 1.310 . S
C252 C255 1.461 . S
C252 H272 0.932 . S
C253 C251 1.408 . S
C253 C252 1.310 . S
C253 H273 0.930 . S
C254 C255 1.474 . S
C254 C256 1.285 . S
C254 H274 0.929 . S
C255 C252 1.461 . S
C255 C254 1.474 . S
C256 C251 1.342 . S
C256 C254 1.285 . S
C256 H275 0.930 . S
C257 C260 1.424 . S
C257 C262 1.245 . S
C257 C263 1.428 . S
C258 C261 1.260 . S
C258 C262 1.477 . S
C258 H276 0.932 . S
C259 C260 1.384 . S
C259 C261 1.479 . S
C259 H277 0.929 . S
C260 C257 1.424 . S
C260 C259 1.384 . S
C260 H278 0.928 . S
C261 C258 1.260 . S
C261 C259 1.479 . S
C262 C257 1.245 . S
C262 C258 1.477 . S
C262 H279 0.932 . S
C263 U246 2.882 . S
C263 C257 1.428 . S
C263 O266 1.301 . S
C263 O267 1.282 . S
O264 U246 2.441 . S
O264 C250 1.249 . S
O265 U246 2.420 . S
O265 C250 1.202 . S
O266 U246 2.455 . S
O266 C263 1.301 . S
O267 U246 2.449 . S
O267 C263 1.282 . S
H268 C241 0.931 . S
H269 C243 0.929 . S
H270 C244 0.930 . S
H271 C245 0.931 . S
H272 C252 0.932 . S
H273 C253 0.930 . S
H274 C254 0.929 . S
H275 C256 0.930 . S
H276 C258 0.932 . S
H277 C259 0.929 . S
H278 C260 0.928 . S
H279 C262 0.932 . S
C280 C281 1.264 . S
C280 C285 1.479 . S
C280 C290 1.465 . S
C281 C280 1.264 . S
C281 C283 1.339 . S
C281 H308 0.931 . S
C282 C283 1.395 . S
C282 C284 1.320 . S
C283 C281 1.339 . S
C283 C282 1.395 . S
C283 H309 0.929 . S
C284 C282 1.320 . S
C284 C285 1.405 . S
C284 H310 0.930 . S
C285 C280 1.479 . S
C285 C284 1.405 . S
C285 H311 0.931 . S
U286 O287 2.454 . S
U286 O288 2.458 . S
U286 C289 2.984 . S
U286 C290 2.847 . S
U286 C303 2.882 . S
U286 O304 2.441 . S
U286 O305 2.420 . S
U286 O306 2.455 . S
U286 O307 2.449 . S
O287 U286 2.454 . S
O287 C289 1.353 . S
O288 U286 2.458 . S
O288 C289 1.286 . S
C289 U286 2.984 . S
C289 O287 1.353 . S
C289 O288 1.286 . S
C289 C291 1.363 . S
C290 C280 1.465 . S
C290 U286 2.847 . S
C290 O304 1.249 . S
C290 O305 1.202 . S
C291 C289 1.363 . S
C291 C293 1.408 . S
C291 C296 1.342 . S
C292 C293 1.310 . S
C292 C295 1.461 . S
C292 H312 0.932 . S
C293 C291 1.408 . S
C293 C292 1.310 . S
C293 H313 0.930 . S
C294 C295 1.474 . S
C294 C296 1.285 . S
C294 H314 0.929 . S
C295 C292 1.461 . S
C295 C294 1.474 . S
C296 C291 1.342 . S
C296 C294 1.285 . S
C296 H315 0.930 . S
C297 C300 1.424 . S
C297 C302 1.245 . S
C297 C303 1.428 . S
C298 C301 1.260 . S
C298 C302 1.477 . S
C298 H316 0.932 . S
C299 C300 1.384 . S
C299 C301 1.479 . S
C299 H317 0.929 . S
C300 C297 1.424 . S
C300 C299 1.384 . S
C300 H318 0.928 . S
C301 C298 1.260 . S
C301 C299 1.479 . S
C302 C297 1.245 . S
C302 C298 1.477 . S
C302 H319 0.932 . S
C303 U286 2.882 . S
C303 C297 1.428 . S
C303 O306 1.301 . S
C303 O307 1.282 . S
O304 U286 2.441 . S
O304 C290 1.249 . S
O305 U286 2.420 . S
O305 C290 1.202 . S
O306 U286 2.455 . S
O306 C303 1.301 . S
O307 U286 2.449 . S
O307 C303 1.282 . S
H308 C281 0.931 . S
H309 C283 0.929 . S
H310 C284 0.930 . S
H311 C285 0.931 . S
H312 C292 0.932 . S
H313 C293 0.930 . S
H314 C294 0.929 . S
H315 C296 0.930 . S
H316 C298 0.932 . S
H317 C299 0.929 . S
H318 C300 0.928 . S
H319 C302 0.932 . S
C320 C321 1.264 . S
C320 C325 1.479 . S
C320 C330 1.465 . S
C321 C320 1.264 . S
C321 C323 1.339 . S
C321 H348 0.931 . S
C322 C323 1.395 . S
C322 C324 1.320 . S
C323 C321 1.339 . S
C323 C322 1.395 . S
C323 H349 0.929 . S
C324 C322 1.320 . S
C324 C325 1.405 . S
C324 H350 0.930 . S
C325 C320 1.479 . S
C325 C324 1.405 . S
C325 H351 0.931 . S
U326 O327 2.454 . S
U326 O328 2.458 . S
U326 C329 2.984 . S
U326 C330 2.847 . S
U326 C343 2.882 . S
U326 O344 2.441 . S
U326 O345 2.420 . S
U326 O346 2.455 . S
U326 O347 2.449 . S
O327 U326 2.454 . S
O327 C329 1.353 . S
O328 U326 2.458 . S
O328 C329 1.286 . S
C329 U326 2.984 . S
C329 O327 1.353 . S
C329 O328 1.286 . S
C329 C331 1.363 . S
C330 C320 1.465 . S
C330 U326 2.847 . S
C330 O344 1.249 . S
C330 O345 1.202 . S
C331 C329 1.363 . S
C331 C333 1.408 . S
C331 C336 1.342 . S
C332 C333 1.310 . S
C332 C335 1.461 . S
C332 H352 0.932 . S
C333 C331 1.408 . S
C333 C332 1.310 . S
C333 H353 0.930 . S
C334 C335 1.474 . S
C334 C336 1.285 . S
C334 H354 0.929 . S
C335 C332 1.461 . S
C335 C334 1.474 . S
C336 C331 1.342 . S
C336 C334 1.285 . S
C336 H355 0.930 . S
C337 C340 1.424 . S
C337 C342 1.245 . S
C337 C343 1.428 . S
C338 C341 1.260 . S
C338 C342 1.477 1_565 S
C338 H356 0.932 . S
C339 C340 1.381 1_565 S
C339 C341 1.485 . S
C339 H357 0.926 . S
C340 C337 1.424 . S
C340 C339 1.381 1_545 S
C340 H358 0.928 . S
C341 C338 1.260 . S
C341 C339 1.485 . S
C342 C337 1.245 . S
C342 C338 1.477 1_545 S
C342 H359 0.932 . S
C343 U326 2.882 . S
C343 C337 1.428 . S
C343 O346 1.301 . S
C343 O347 1.282 . S
O344 U326 2.441 . S
O344 C330 1.249 . S
O345 U326 2.420 . S
O345 C330 1.202 . S
O346 U326 2.455 . S
O346 C343 1.301 . S
O347 U326 2.449 . S
O347 C343 1.282 . S
H348 C321 0.931 . S
H349 C323 0.929 . S
H350 C324 0.930 . S
H351 C325 0.931 . S
H352 C332 0.932 . S
H353 C333 0.930 . S
H354 C334 0.929 . S
H355 C336 0.930 . S
H356 C338 0.932 . S
H357 C339 0.926 . S
H358 C340 0.928 . S
H359 C342 0.932 . S
C360 C361 1.264 . S
C360 C365 1.479 . S
C360 C370 1.465 . S
C361 C360 1.264 . S
C361 C363 1.339 . S
C361 H388 0.931 . S
C362 C363 1.395 . S
C362 C364 1.320 . S
C363 C361 1.339 . S
C363 C362 1.395 . S
C363 H389 0.929 . S
C364 C362 1.320 . S
C364 C365 1.405 . S
C364 H390 0.930 . S
C365 C360 1.479 . S
C365 C364 1.405 . S
C365 H391 0.931 . S
U366 O367 2.454 . S
U366 O368 2.458 . S
U366 C369 2.984 . S
U366 C370 2.847 . S
U366 C383 2.882 . S
U366 O384 2.441 . S
U366 O385 2.420 . S
U366 O386 2.455 . S
U366 O387 2.449 . S
O367 U366 2.454 . S
O367 C369 1.353 . S
O368 U366 2.458 . S
O368 C369 1.286 . S
C369 U366 2.984 . S
C369 O367 1.353 . S
C369 O368 1.286 . S
C369 C371 1.363 . S
C370 C360 1.465 . S
C370 U366 2.847 . S
C370 O384 1.249 . S
C370 O385 1.202 . S
C371 C369 1.363 . S
C371 C373 1.408 . S
C371 C376 1.342 . S
C372 C373 1.310 . S
C372 C375 1.461 . S
C372 H392 0.932 1_556 S
C373 C371 1.408 . S
C373 C372 1.310 . S
C373 H393 0.930 . S
C374 C375 1.474 . S
C374 C376 1.285 . S
C374 H394 0.929 . S
C375 C372 1.461 . S
C375 C374 1.474 . S
C376 C371 1.342 . S
C376 C374 1.285 . S
C376 H395 0.930 . S
C377 C380 1.424 . S
C377 C382 1.245 . S
C377 C383 1.428 . S
C378 C381 1.260 . S
C378 C382 1.477 . S
C378 H396 0.932 . S
C379 C380 1.384 . S
C379 C381 1.479 . S
C379 H397 0.929 . S
C380 C377 1.424 . S
C380 C379 1.384 . S
C380 H398 0.928 . S
C381 C378 1.260 . S
C381 C379 1.479 . S
C382 C377 1.245 . S
C382 C378 1.477 . S
C382 H399 0.932 . S
C383 U366 2.882 . S
C383 C377 1.428 . S
C383 O386 1.301 . S
C383 O387 1.282 . S
O384 U366 2.441 . S
O384 C370 1.249 . S
O385 U366 2.420 . S
O385 C370 1.202 . S
O386 U366 2.455 . S
O386 C383 1.301 . S
O387 U366 2.449 . S
O387 C383 1.282 . S
H388 C361 0.931 . S
H389 C363 0.929 . S
H390 C364 0.930 . S
H391 C365 0.931 . S
H392 C372 0.932 1_554 S
H393 C373 0.930 . S
H394 C374 0.929 . S
H395 C376 0.930 . S
H396 C378 0.932 . S
H397 C379 0.929 . S
H398 C380 0.928 . S
H399 C382 0.932 . S
C400 C401 1.264 . S
C400 C405 1.479 . S
C400 C410 1.465 . S
C401 C400 1.264 . S
C401 C403 1.339 . S
C401 H428 0.931 . S
C402 C403 1.395 . S
C402 C404 1.320 1_556 S
C403 C401 1.339 . S
C403 C402 1.395 . S
C403 H429 0.929 . S
C404 C402 1.320 1_554 S
C404 C405 1.405 1_554 S
C404 H430 0.930 . S
C405 C400 1.479 . S
C405 C404 1.405 1_556 S
C405 H431 0.931 1_556 S
U406 O407 2.454 . S
U406 O408 2.458 . S
U406 C409 2.984 . S
U406 C410 2.847 . S
U406 C423 2.882 . S
U406 O424 2.441 . S
U406 O425 2.420 . S
U406 O426 2.455 . S
U406 O427 2.449 . S
O407 U406 2.454 . S
O407 C409 1.353 . S
O408 U406 2.458 . S
O408 C409 1.286 . S
C409 U406 2.984 . S
C409 O407 1.353 . S
C409 O408 1.286 . S
C409 C411 1.363 . S
C410 C400 1.465 . S
C410 U406 2.847 . S
C410 O424 1.249 . S
C410 O425 1.202 . S
C411 C409 1.363 . S
C411 C413 1.408 . S
C411 C416 1.342 . S
C412 C413 1.310 1_554 S
C412 C415 1.461 1_554 S
C412 H432 0.932 . S
C413 C411 1.408 . S
C413 C412 1.310 1_556 S
C413 H433 0.930 1_556 S
C414 C415 1.474 . S
C414 C416 1.285 . S
C414 H434 0.929 . S
C415 C412 1.461 1_556 S
C415 C414 1.474 . S
C416 C411 1.342 . S
C416 C414 1.285 . S
C416 H435 0.930 . S
C417 C420 1.424 . S
C417 C422 1.245 . S
C417 C423 1.428 . S
C418 C421 1.260 . S
C418 C422 1.477 . S
C418 H436 0.932 . S
C419 C420 1.384 . S
C419 C421 1.479 . S
C419 H437 0.929 . S
C420 C417 1.424 . S
C420 C419 1.384 . S
C420 H438 0.928 . S
C421 C418 1.260 . S
C421 C419 1.479 . S
C422 C417 1.245 . S
C422 C418 1.477 . S
C422 H439 0.932 . S
C423 U406 2.882 . S
C423 C417 1.428 . S
C423 O426 1.301 . S
C423 O427 1.282 . S
O424 U406 2.441 . S
O424 C410 1.249 . S
O425 U406 2.420 . S
O425 C410 1.202 . S
O426 U406 2.455 . S
O426 C423 1.301 . S
O427 U406 2.449 . S
O427 C423 1.282 . S
H428 C401 0.931 . S
H429 C403 0.929 . S
H430 C404 0.930 . S
H431 C405 0.931 1_554 S
H432 C412 0.932 . S
H433 C413 0.930 1_554 S
H434 C414 0.929 . S
H435 C416 0.930 . S
H436 C418 0.932 . S
H437 C419 0.929 . S
H438 C420 0.928 . S
H439 C422 0.932 . S
C440 C441 1.264 . S
C440 C445 1.479 . S
C440 C450 1.465 . S
C441 C440 1.264 . S
C441 C443 1.339 . S
C441 H468 0.931 . S
C442 C443 1.395 . S
C442 C444 1.320 . S
C443 C441 1.339 . S
C443 C442 1.395 . S
C443 H469 0.929 . S
C444 C442 1.320 . S
C444 C445 1.405 . S
C444 H470 0.930 1_556 S
C445 C440 1.479 . S
C445 C444 1.405 . S
C445 H471 0.931 . S
U446 O447 2.454 . S
U446 O448 2.458 . S
U446 C449 2.984 . S
U446 C450 2.847 . S
U446 C463 2.882 . S
U446 O464 2.441 . S
U446 O465 2.420 . S
U446 O466 2.455 . S
U446 O467 2.449 . S
O447 U446 2.454 . S
O447 C449 1.353 . S
O448 U446 2.458 . S
O448 C449 1.286 . S
C449 U446 2.984 . S
C449 O447 1.353 . S
C449 O448 1.286 . S
C449 C451 1.363 . S
C450 C440 1.465 . S
C450 U446 2.847 . S
C450 O464 1.249 . S
C450 O465 1.202 . S
C451 C449 1.363 . S
C451 C453 1.408 . S
C451 C456 1.342 . S
C452 C453 1.310 1_554 S
C452 C455 1.461 1_554 S
C452 H472 0.932 . S
C453 C451 1.408 . S
C453 C452 1.310 1_556 S
C453 H473 0.930 . S
C454 C455 1.474 . S
C454 C456 1.285 . S
C454 H474 0.929 . S
C455 C452 1.461 1_556 S
C455 C454 1.474 . S
C456 C451 1.342 . S
C456 C454 1.285 . S
C456 H475 0.930 . S
C457 C460 1.424 . S
C457 C462 1.245 . S
C457 C463 1.428 . S
C458 C461 1.260 . S
C458 C462 1.477 . S
C458 H476 0.932 . S
C459 C460 1.384 . S
C459 C461 1.479 . S
C459 H477 0.929 . S
C460 C457 1.424 . S
C460 C459 1.384 . S
C460 H478 0.928 . S
C461 C458 1.260 . S
C461 C459 1.479 . S
C462 C457 1.245 . S
C462 C458 1.477 . S
C462 H479 0.932 . S
C463 U446 2.882 . S
C463 C457 1.428 . S
C463 O466 1.301 . S
C463 O467 1.282 . S
O464 U446 2.441 . S
O464 C450 1.249 . S
O465 U446 2.420 . S
O465 C450 1.202 . S
O466 U446 2.455 . S
O466 C463 1.301 . S
O467 U446 2.449 . S
O467 C463 1.282 . S
H468 C441 0.931 . S
H469 C443 0.929 . S
H470 C444 0.930 1_554 S
H471 C445 0.931 . S
H472 C452 0.932 . S
H473 C453 0.930 . S
H474 C454 0.929 . S
H475 C456 0.930 . S
H476 C458 0.932 . S
H477 C459 0.929 . S
H478 C460 0.928 . S
H479 C462 0.932 . S
C480 C481 1.264 . S
C480 C485 1.479 . S
C480 C490 1.465 . S
C481 C480 1.264 . S
C481 C483 1.339 . S
C481 H508 0.931 . S
C482 C483 1.395 . S
C482 C484 1.320 . S
C483 C481 1.339 . S
C483 C482 1.395 . S
C483 H509 0.929 . S
C484 C482 1.320 . S
C484 C485 1.405 . S
C484 H510 0.930 1_554 S
C485 C480 1.479 . S
C485 C484 1.405 . S
C485 H511 0.931 . S
U486 O487 2.454 . S
U486 O488 2.458 . S
U486 C489 2.984 . S
U486 C490 2.847 . S
U486 C503 2.882 . S
U486 O504 2.441 . S
U486 O505 2.420 . S
U486 O506 2.455 . S
U486 O507 2.449 . S
O487 U486 2.454 . S
O487 C489 1.353 . S
O488 U486 2.458 . S
O488 C489 1.286 . S
C489 U486 2.984 . S
C489 O487 1.353 . S
C489 O488 1.286 . S
C489 C491 1.363 . S
C490 C480 1.465 . S
C490 U486 2.847 . S
C490 O504 1.249 . S
C490 O505 1.202 . S
C491 C489 1.363 . S
C491 C493 1.408 . S
C491 C496 1.342 . S
C492 C493 1.325 . S
C492 C495 1.476 . S
C492 H512 0.902 1_554 S
C493 C491 1.408 . S
C493 C492 1.325 . S
C493 H513 0.930 . S
C494 C495 1.474 . S
C494 C496 1.285 . S
C494 H514 0.929 . S
C495 C492 1.476 . S
C495 C494 1.474 . S
C496 C491 1.342 . S
C496 C494 1.285 . S
C496 H515 0.930 . S
C497 C500 1.424 . S
C497 C502 1.245 . S
C497 C503 1.428 . S
C498 C501 1.260 . S
C498 C502 1.477 . S
C498 H516 0.932 . S
C499 C500 1.384 . S
C499 C501 1.479 . S
C499 H517 0.929 . S
C500 C497 1.424 . S
C500 C499 1.384 . S
C500 H518 0.928 . S
C501 C498 1.260 . S
C501 C499 1.479 . S
C502 C497 1.245 . S
C502 C498 1.477 . S
C502 H519 0.932 . S
C503 U486 2.882 . S
C503 C497 1.428 . S
C503 O506 1.301 . S
C503 O507 1.282 . S
O504 U486 2.441 . S
O504 C490 1.249 . S
O505 U486 2.420 . S
O505 C490 1.202 . S
O506 U486 2.455 . S
O506 C503 1.301 . S
O507 U486 2.449 . S
O507 C503 1.282 . S
H508 C481 0.931 . S
H509 C483 0.929 . S
H510 C484 0.930 1_556 S
H511 C485 0.931 . S
H512 C492 0.902 1_556 S
H513 C493 0.930 . S
H514 C494 0.929 . S
H515 C496 0.930 . S
H516 C498 0.932 . S
H517 C499 0.929 . S
H518 C500 0.928 . S
H519 C502 0.932 . S
C520 C521 1.264 . S
C520 C525 1.479 . S
C520 C530 1.465 . S
C521 C520 1.264 . S
C521 C523 1.339 . S
C521 H548 0.931 . S
C522 C523 1.395 . S
C522 C524 1.320 . S
C523 C521 1.339 . S
C523 C522 1.395 . S
C523 H549 0.929 . S
C524 C522 1.320 . S
C524 C525 1.405 . S
C524 H550 0.930 . S
C525 C520 1.479 . S
C525 C524 1.405 . S
C525 H551 0.931 . S
U526 O527 2.454 . S
U526 O528 2.458 . S
U526 C529 2.984 . S
U526 C530 2.847 . S
U526 C543 2.882 . S
U526 O544 2.441 . S
U526 O545 2.420 . S
U526 O546 2.455 . S
U526 O547 2.449 . S
O527 U526 2.454 . S
O527 C529 1.353 . S
O528 U526 2.458 . S
O528 C529 1.286 . S
C529 U526 2.984 . S
C529 O527 1.353 . S
C529 O528 1.286 . S
C529 C531 1.363 . S
C530 C520 1.465 . S
C530 U526 2.847 . S
C530 O544 1.249 . S
C530 O545 1.202 . S
C531 C529 1.363 . S
C531 C533 1.408 . S
C531 C536 1.342 . S
C532 C533 1.310 . S
C532 C535 1.461 . S
C532 H552 0.932 1_554 S
C533 C531 1.408 . S
C533 C532 1.310 . S
C533 H553 0.930 . S
C534 C535 1.474 . S
C534 C536 1.285 . S
C534 H554 0.929 . S
C535 C532 1.461 . S
C535 C534 1.474 . S
C536 C531 1.342 . S
C536 C534 1.285 . S
C536 H555 0.930 . S
C537 C540 1.424 . S
C537 C542 1.245 . S
C537 C543 1.428 . S
C538 C541 1.260 . S
C538 C542 1.477 . S
C538 H556 0.932 . S
C539 C540 1.384 . S
C539 C541 1.479 . S
C539 H557 0.929 . S
C540 C537 1.424 . S
C540 C539 1.384 . S
C540 H558 0.928 . S
C541 C538 1.260 . S
C541 C539 1.479 . S
C542 C537 1.245 . S
C542 C538 1.477 . S
C542 H559 0.932 . S
C543 U526 2.882 . S
C543 C537 1.428 . S
C543 O546 1.301 . S
C543 O547 1.282 . S
O544 U526 2.441 . S
O544 C530 1.249 . S
O545 U526 2.420 . S
O545 C530 1.202 . S
O546 U526 2.455 . S
O546 C543 1.301 . S
O547 U526 2.449 . S
O547 C543 1.282 . S
H548 C521 0.931 . S
H549 C523 0.929 . S
H550 C524 0.930 . S
H551 C525 0.931 . S
H552 C532 0.932 1_556 S
H553 C533 0.930 . S
H554 C534 0.929 . S
H555 C536 0.930 . S
H556 C538 0.932 . S
H557 C539 0.929 . S
H558 C540 0.928 . S
H559 C542 0.932 . S
C560 C561 1.264 . S
C560 C565 1.479 . S
C560 C570 1.465 . S
C561 C560 1.264 . S
C561 C563 1.339 . S
C561 H588 0.931 . S
C562 C563 1.395 . S
C562 C564 1.320 . S
C563 C561 1.339 . S
C563 C562 1.395 . S
C563 H589 0.929 . S
C564 C562 1.320 . S
C564 C565 1.405 . S
C564 H590 0.930 . S
C565 C560 1.479 . S
C565 C564 1.405 . S
C565 H591 0.931 . S
U566 O567 2.454 . S
U566 O568 2.458 . S
U566 C569 2.984 . S
U566 C570 2.847 . S
U566 C583 2.882 . S
U566 O584 2.441 . S
U566 O585 2.420 . S
U566 O586 2.455 . S
U566 O587 2.449 . S
O567 U566 2.454 . S
O567 C569 1.353 . S
O568 U566 2.458 . S
O568 C569 1.286 . S
C569 U566 2.984 . S
C569 O567 1.353 . S
C569 O568 1.286 . S
C569 C571 1.363 . S
C570 C560 1.465 . S
C570 U566 2.847 . S
C570 O584 1.249 . S
C570 O585 1.202 . S
C571 C569 1.363 . S
C571 C573 1.408 . S
C571 C576 1.342 . S
C572 C573 1.310 . S
C572 C575 1.461 . S
C572 H592 0.932 . S
C573 C571 1.408 . S
C573 C572 1.310 . S
C573 H593 0.930 . S
C574 C575 1.474 . S
C574 C576 1.285 . S
C574 H594 0.929 . S
C575 C572 1.461 . S
C575 C574 1.474 . S
C576 C571 1.342 . S
C576 C574 1.285 . S
C576 H595 0.930 . S
C577 C580 1.424 . S
C577 C582 1.245 . S
C577 C583 1.428 . S
C578 C581 1.260 . S
C578 C582 1.477 . S
C578 H596 0.932 . S
C579 C580 1.384 . S
C579 C581 1.479 . S
C579 H597 0.929 . S
C580 C577 1.424 . S
C580 C579 1.384 . S
C580 H598 0.928 . S
C581 C578 1.260 . S
C581 C579 1.479 . S
C582 C577 1.245 . S
C582 C578 1.477 . S
C582 H599 0.932 . S
C583 U566 2.882 . S
C583 C577 1.428 . S
C583 O586 1.301 . S
C583 O587 1.282 . S
O584 U566 2.441 . S
O584 C570 1.249 . S
O585 U566 2.420 . S
O585 C570 1.202 . S
O586 U566 2.455 . S
O586 C583 1.301 . S
O587 U566 2.449 . S
O587 C583 1.282 . S
H588 C561 0.931 . S
H589 C563 0.929 . S
H590 C564 0.930 . S
H591 C565 0.931 . S
H592 C572 0.932 . S
H593 C573 0.930 . S
H594 C574 0.929 . S
H595 C576 0.930 . S
H596 C578 0.932 . S
H597 C579 0.929 . S
H598 C580 0.928 . S
H599 C582 0.932 . S
C600 C601 1.264 . S
C600 C605 1.479 . S
C600 C610 1.465 . S
C601 C600 1.264 . S
C601 C603 1.339 . S
C601 H628 0.931 . S
C602 C603 1.395 . S
C602 C604 1.320 . S
C603 C601 1.339 . S
C603 C602 1.395 . S
C603 H629 0.929 . S
C604 C602 1.320 . S
C604 C605 1.405 . S
C604 H630 0.930 . S
C605 C600 1.479 . S
C605 C604 1.405 . S
C605 H631 0.931 . S
U606 O607 2.454 . S
U606 O608 2.458 . S
U606 C609 2.984 . S
U606 C610 2.847 . S
U606 C623 2.882 . S
U606 O624 2.441 . S
U606 O625 2.420 . S
U606 O626 2.455 . S
U606 O627 2.449 . S
O607 U606 2.454 . S
O607 C609 1.353 . S
O608 U606 2.458 . S
O608 C609 1.286 . S
C609 U606 2.984 . S
C609 O607 1.353 . S
C609 O608 1.286 . S
C609 C611 1.363 . S
C610 C600 1.465 . S
C610 U606 2.847 . S
C610 O624 1.249 . S
C610 O625 1.202 . S
C611 C609 1.363 . S
C611 C613 1.408 . S
C611 C616 1.342 . S
C612 C613 1.310 . S
C612 C615 1.461 . S
C612 H632 0.932 . S
C613 C611 1.408 . S
C613 C612 1.310 . S
C613 H633 0.930 . S
C614 C615 1.474 . S
C614 C616 1.285 . S
C614 H634 0.929 . S
C615 C612 1.461 . S
C615 C614 1.474 . S
C616 C611 1.342 . S
C616 C614 1.285 . S
C616 H635 0.930 . S
C617 C620 1.424 . S
C617 C622 1.245 . S
C617 C623 1.428 . S
C618 C621 1.260 . S
C618 C622 1.477 1_545 S
C618 H636 0.932 . S
C619 C620 1.384 1_545 S
C619 C621 1.479 . S
C619 H637 0.929 . S
C620 C617 1.424 . S
C620 C619 1.384 1_565 S
C620 H638 0.928 . S
C621 C618 1.260 . S
C621 C619 1.479 . S
C622 C617 1.245 . S
C622 C618 1.477 1_565 S
C622 H639 0.932 . S
C623 U606 2.882 . S
C623 C617 1.428 . S
C623 O626 1.301 . S
C623 O627 1.282 . S
O624 U606 2.441 . S
O624 C610 1.249 . S
O625 U606 2.420 . S
O625 C610 1.202 . S
O626 U606 2.455 . S
O626 C623 1.301 . S
O627 U606 2.449 . S
O627 C623 1.282 . S
H628 C601 0.931 . S
H629 C603 0.929 . S
H630 C604 0.930 . S
H631 C605 0.931 . S
H632 C612 0.932 . S
H633 C613 0.930 . S
H634 C614 0.929 . S
H635 C616 0.930 . S
H636 C618 0.932 . S
H637 C619 0.929 . S
H638 C620 0.928 . S
H639 C622 0.932 . S
C640 C641 1.264 . S
C640 C645 1.479 . S
C640 C650 1.465 . S
C641 C640 1.264 . S
C641 C643 1.339 . S
C641 H668 0.931 . S
C642 C643 1.395 . S
C642 C644 1.320 . S
C643 C641 1.339 . S
C643 C642 1.395 . S
C643 H669 0.929 . S
C644 C642 1.320 . S
C644 C645 1.405 . S
C644 H670 0.930 . S
C645 C640 1.479 . S
C645 C644 1.405 . S
C645 H671 0.931 . S
U646 O647 2.454 . S
U646 O648 2.458 . S
U646 C649 2.984 . S
U646 C650 2.847 . S
U646 C663 2.882 . S
U646 O664 2.441 . S
U646 O665 2.420 . S
U646 O666 2.455 . S
U646 O667 2.449 . S
O647 U646 2.454 . S
O647 C649 1.353 . S
O648 U646 2.458 . S
O648 C649 1.286 . S
C649 U646 2.984 . S
C649 O647 1.353 . S
C649 O648 1.286 . S
C649 C651 1.363 . S
C650 C640 1.465 . S
C650 U646 2.847 . S
C650 O664 1.249 . S
C650 O665 1.202 . S
C651 C649 1.363 . S
C651 C653 1.408 . S
C651 C656 1.342 . S
C652 C653 1.310 . S
C652 C655 1.461 . S
C652 H672 0.932 . S
C653 C651 1.408 . S
C653 C652 1.310 . S
C653 H673 0.930 . S
C654 C655 1.474 . S
C654 C656 1.285 . S
C654 H674 0.929 . S
C655 C652 1.461 . S
C655 C654 1.474 . S
C656 C651 1.342 . S
C656 C654 1.285 . S
C656 H675 0.930 . S
C657 C660 1.424 . S
C657 C662 1.245 . S
C657 C663 1.428 . S
C658 C661 1.260 . S
C658 C662 1.477 . S
C658 H676 0.932 1_455 S
C659 C660 1.384 . S
C659 C661 1.479 . S
C659 H677 0.940 1_455 S
C660 C657 1.424 . S
C660 C659 1.384 . S
C660 H678 0.928 . S
C661 C658 1.260 . S
C661 C659 1.479 . S
C662 C657 1.245 . S
C662 C658 1.477 . S
C662 H679 0.932 . S
C663 U646 2.882 . S
C663 C657 1.428 . S
C663 O666 1.301 . S
C663 O667 1.282 . S
O664 U646 2.441 . S
O664 C650 1.249 . S
O665 U646 2.420 . S
O665 C650 1.202 . S
O666 U646 2.455 . S
O666 C663 1.301 . S
O667 U646 2.449 . S
O667 C663 1.282 . S
H668 C641 0.931 . S
H669 C643 0.929 . S
H670 C644 0.930 . S
H671 C645 0.931 . S
H672 C652 0.932 . S
H673 C653 0.930 . S
H674 C654 0.929 . S
H675 C656 0.930 . S
H676 C658 0.932 1_655 S
H677 C659 0.940 1_655 S
H678 C660 0.928 . S
H679 C662 0.932 . S
C680 C681 1.264 . S
C680 C685 1.479 . S
C680 C690 1.465 . S
C681 C680 1.264 . S
C681 C683 1.339 . S
C681 H708 0.931 . S
C682 C683 1.395 . S
C682 C684 1.320 . S
C683 C681 1.339 . S
C683 C682 1.395 . S
C683 H709 0.929 . S
C684 C682 1.320 . S
C684 C685 1.405 . S
C684 H710 0.930 . S
C685 C680 1.479 . S
C685 C684 1.405 . S
C685 H711 0.931 . S
U686 O687 2.454 . S
U686 O688 2.458 . S
U686 C689 2.984 . S
U686 C690 2.847 . S
U686 C703 2.882 . S
U686 O704 2.441 . S
U686 O705 2.420 . S
U686 O706 2.455 . S
U686 O707 2.449 . S
O687 U686 2.454 . S
O687 C689 1.353 . S
O688 U686 2.458 . S
O688 C689 1.286 . S
C689 U686 2.984 . S
C689 O687 1.353 . S
C689 O688 1.286 . S
C689 C691 1.363 . S
C690 C680 1.465 . S
C690 U686 2.847 . S
C690 O704 1.249 . S
C690 O705 1.202 . S
C691 C689 1.363 . S
C691 C693 1.408 . S
C691 C696 1.342 . S
C692 C693 1.310 . S
C692 C695 1.461 . S
C692 H712 0.932 . S
C693 C691 1.408 . S
C693 C692 1.310 . S
C693 H713 0.930 . S
C694 C695 1.474 . S
C694 C696 1.285 . S
C694 H714 0.929 . S
C695 C692 1.461 . S
C695 C694 1.474 . S
C696 C691 1.342 . S
C696 C694 1.285 . S
C696 H715 0.930 . S
C697 C700 1.424 . S
C697 C702 1.245 . S
C697 C703 1.428 . S
C698 C701 1.260 . S
C698 C702 1.477 . S
C698 H716 0.932 . S
C699 C700 1.384 . S
C699 C701 1.479 . S
C699 H717 0.929 . S
C700 C697 1.424 . S
C700 C699 1.384 . S
C700 H718 0.928 . S
C701 C698 1.260 . S
C701 C699 1.479 . S
C702 C697 1.245 . S
C702 C698 1.477 . S
C702 H719 0.932 . S
C703 U686 2.882 . S
C703 C697 1.428 . S
C703 O706 1.301 . S
C703 O707 1.282 . S
O704 U686 2.441 . S
O704 C690 1.249 . S
O705 U686 2.420 . S
O705 C690 1.202 . S
O706 U686 2.455 . S
O706 C703 1.301 . S
O707 U686 2.449 . S
O707 C703 1.282 . S
H708 C681 0.931 . S
H709 C683 0.929 . S
H710 C684 0.930 . S
H711 C685 0.931 . S
H712 C692 0.932 . S
H713 C693 0.930 . S
H714 C694 0.929 . S
H715 C696 0.930 . S
H716 C698 0.932 . S
H717 C699 0.929 . S
H718 C700 0.928 . S
H719 C702 0.932 . S
Tb720 O723 2.453 . S
Tb720 O724 2.596 1_545 S
Tb720 O725 2.374 1_545 S
Tb720 O733 2.343 1_554 S
Tb720 O735 2.353 . S
Tb720 O737 2.427 1_554 S
Tb720 O738 2.513 1_554 S
C721 O725 1.251 . S
C721 O727 1.279 . S
Tb722 O724 2.343 1_556 S
Tb722 O727 2.347 1_556 S
Tb722 O730 2.427 1_556 S
Tb722 O731 2.513 1_556 S
Tb722 O732 2.453 . S
Tb722 O733 2.596 1_565 S
Tb722 O734 2.374 1_565 S
O723 Tb720 2.453 . S
O723 C739 1.245 . S
O724 Tb720 2.596 1_565 S
O724 Tb722 2.343 1_554 S
O724 C739 1.259 1_565 S
O725 Tb720 2.374 1_565 S
O725 C721 1.251 . S
C726 O730 1.275 . S
C726 O731 1.246 . S
O727 C721 1.279 . S
O727 Tb722 2.347 1_554 S
C728 O732 1.245 . S
C728 O733 1.259 1_565 S
C729 O734 1.250 . S
C729 O735 1.263 1_556 S
O730 Tb722 2.427 1_554 S
O730 C726 1.275 . S
O731 Tb722 2.513 1_554 S
O731 C726 1.246 . S
O732 Tb722 2.453 . S
O732 C728 1.245 . S
O733 Tb720 2.343 1_556 S
O733 Tb722 2.596 1_545 S
O733 C728 1.259 1_545 S
O734 Tb722 2.374 1_545 S
O734 C729 1.250 . S
O735 Tb720 2.353 . S
O735 C729 1.263 1_554 S
C736 O737 1.275 . S
C736 O738 1.246 . S
O737 Tb720 2.427 1_556 S
O737 C736 1.275 . S
O738 Tb720 2.513 1_556 S
O738 C736 1.246 . S
C739 O723 1.245 . S
C739 O724 1.259 1_545 S
Tb740 O743 2.453 . S
Tb740 O744 2.596 1_655 S
Tb740 O745 2.374 1_655 S
Tb740 O753 2.343 1_554 S
Tb740 O755 2.353 . S
Tb740 O757 2.427 1_554 S
Tb740 O758 2.513 1_554 S
C741 O745 1.251 . S
C741 O747 1.263 . S
Tb742 O744 2.343 1_556 S
Tb742 O747 2.353 1_556 S
Tb742 O750 2.427 1_556 S
Tb742 O751 2.513 1_556 S
Tb742 O752 2.453 . S
Tb742 O753 2.596 1_455 S
Tb742 O754 2.374 1_455 S
O743 Tb740 2.453 . S
O743 C759 1.245 1_655 S
O744 Tb740 2.596 1_455 S
O744 Tb742 2.343 1_554 S
O744 C759 1.259 . S
O745 Tb740 2.374 1_455 S
O745 C741 1.251 . S
C746 O750 1.275 . S
C746 O751 1.246 . S
O747 C741 1.263 . S
O747 Tb742 2.353 1_554 S
C748 O752 1.219 1_655 S
C748 O753 1.269 . S
C749 O754 1.250 . S
C749 O755 1.263 1_556 S
O750 Tb742 2.427 1_554 S
O750 C746 1.275 . S
O751 Tb742 2.513 1_554 S
O751 C746 1.246 . S
O752 Tb742 2.453 . S
O752 C748 1.219 1_455 S
O753 Tb740 2.343 1_556 S
O753 Tb742 2.596 1_655 S
O753 C748 1.269 . S
O754 Tb742 2.374 1_655 S
O754 C749 1.250 . S
O755 Tb740 2.353 . S
O755 C749 1.263 1_554 S
C756 O757 1.275 . S
C756 O758 1.246 . S
O757 Tb740 2.427 1_556 S
O757 C756 1.275 . S
O758 Tb740 2.513 1_556 S
O758 C756 1.246 . S
C759 O743 1.245 1_455 S
C759 O744 1.259 . S
Tb760 O763 2.453 . S
Tb760 O764 2.596 . S
Tb760 O765 2.374 . S
Tb760 O773 2.343 1_556 S
Tb760 O775 2.353 1_556 S
Tb760 O777 2.427 1_556 S
Tb760 O778 2.513 1_556 S
C761 O765 1.251 . S
C761 O767 1.263 1_556 S
Tb762 O764 2.343 1_554 S
Tb762 O767 2.353 . S
Tb762 O770 2.427 1_554 S
Tb762 O771 2.513 1_554 S
Tb762 O772 2.453 . S
Tb762 O773 2.596 . S
Tb762 O774 2.374 . S
O763 Tb760 2.453 . S
O763 C779 1.245 . S
O764 Tb760 2.596 . S
O764 Tb762 2.343 1_556 S
O764 C779 1.259 . S
O765 Tb760 2.374 . S
O765 C761 1.251 . S
C766 O770 1.275 . S
C766 O771 1.246 . S
O767 C761 1.263 1_554 S
O767 Tb762 2.353 . S
C768 O772 1.245 . S
C768 O773 1.259 . S
C769 O774 1.250 . S
C769 O775 1.263 . S
O770 Tb762 2.427 1_556 S
O770 C766 1.275 . S
O771 Tb762 2.513 1_556 S
O771 C766 1.246 . S
O772 Tb762 2.453 . S
O772 C768 1.245 . S
O773 Tb760 2.343 1_554 S
O773 Tb762 2.596 . S
O773 C768 1.259 . S
O774 Tb762 2.374 . S
O774 C769 1.250 . S
O775 Tb760 2.353 1_554 S
O775 C769 1.263 . S
C776 O777 1.275 . S
C776 O778 1.246 . S
O777 Tb760 2.427 1_554 S
O777 C776 1.275 . S
O778 Tb760 2.513 1_554 S
O778 C776 1.246 . S
C779 O763 1.245 . S
C779 O764 1.259 . S
Tb780 O783 2.453 . S
Tb780 O784 2.596 . S
Tb780 O785 2.374 . S
Tb780 O793 2.343 . S
Tb780 O795 2.353 . S
Tb780 O797 2.427 . S
Tb780 O798 2.513 . S
C781 O785 1.251 . S
C781 O787 1.263 . S
Tb782 O784 2.343 . S
Tb782 O787 2.353 . S
Tb782 O790 2.427 . S
Tb782 O791 2.513 . S
Tb782 O792 2.453 . S
Tb782 O793 2.596 . S
Tb782 O794 2.374 . S
O783 Tb780 2.453 . S
O783 C799 1.245 . S
O784 Tb780 2.596 . S
O784 Tb782 2.343 . S
O784 C799 1.259 . S
O785 Tb780 2.374 . S
O785 C781 1.251 . S
C786 O790 1.275 . S
C786 O791 1.246 . S
O787 C781 1.263 . S
O787 Tb782 2.353 . S
C788 O792 1.245 . S
C788 O793 1.259 . S
C789 O794 1.250 . S
C789 O795 1.263 . S
O790 Tb782 2.427 . S
O790 C786 1.275 . S
O791 Tb782 2.513 . S
O791 C786 1.246 . S
O792 Tb782 2.453 . S
O792 C788 1.245 . S
O793 Tb780 2.343 . S
O793 Tb782 2.596 . S
O793 C788 1.259 . S
O794 Tb782 2.374 . S
O794 C789 1.250 . S
O795 Tb780 2.353 . S
O795 C789 1.263 . S
C796 O797 1.275 . S
C796 O798 1.246 . S
O797 Tb780 2.427 . S
O797 C796 1.275 . S
O798 Tb780 2.513 . S
O798 C796 1.246 . S
C799 O783 1.245 . S
C799 O784 1.259 . S
Tb800 O803 2.453 . S
Tb800 O804 2.596 . S
Tb800 O805 2.374 . S
Tb800 O813 2.343 . S
Tb800 O815 2.353 . S
Tb800 O817 2.427 . S
Tb800 O818 2.513 . S
C801 O805 1.251 . S
C801 O807 1.263 . S
Tb802 O804 2.343 . S
Tb802 O807 2.353 . S
Tb802 O810 2.427 . S
Tb802 O811 2.513 . S
Tb802 O812 2.453 . S
Tb802 O813 2.596 . S
Tb802 O814 2.374 . S
O803 Tb800 2.453 . S
O803 C819 1.245 . S
O804 Tb800 2.596 . S
O804 Tb802 2.343 . S
O804 C819 1.259 . S
O805 Tb800 2.374 . S
O805 C801 1.251 . S
C806 O810 1.275 . S
C806 O811 1.246 . S
O807 C801 1.263 . S
O807 Tb802 2.353 . S
C808 O812 1.245 . S
C808 O813 1.259 . S
C809 O814 1.250 . S
C809 O815 1.263 . S
O810 Tb802 2.427 . S
O810 C806 1.275 . S
O811 Tb802 2.513 . S
O811 C806 1.246 . S
O812 Tb802 2.453 . S
O812 C808 1.245 . S
O813 Tb800 2.343 . S
O813 Tb802 2.596 . S
O813 C808 1.259 . S
O814 Tb802 2.374 . S
O814 C809 1.250 . S
O815 Tb800 2.353 . S
O815 C809 1.263 . S
C816 O817 1.275 . S
C816 O818 1.246 . S
O817 Tb800 2.427 . S
O817 C816 1.275 . S
O818 Tb800 2.513 . S
O818 C816 1.246 . S
C819 O803 1.245 . S
C819 O804 1.259 . S
Tb820 O823 2.453 . S
Tb820 O824 2.596 . S
Tb820 O825 2.374 . S
Tb820 O833 2.343 . S
Tb820 O835 2.353 . S
Tb820 O837 2.427 . S
Tb820 O838 2.513 . S
C821 O825 1.251 . S
C821 O827 1.263 . S
Tb822 O824 2.343 . S
Tb822 O827 2.353 . S
Tb822 O830 2.427 . S
Tb822 O831 2.513 . S
Tb822 O832 2.453 . S
Tb822 O833 2.596 . S
Tb822 O834 2.374 . S
O823 Tb820 2.453 . S
O823 C839 1.245 . S
O824 Tb820 2.596 . S
O824 Tb822 2.343 . S
O824 C839 1.259 . S
O825 Tb820 2.374 . S
O825 C821 1.251 . S
C826 O830 1.275 . S
C826 O831 1.246 . S
O827 C821 1.263 . S
O827 Tb822 2.353 . S
C828 O832 1.245 . S
C828 O833 1.259 . S
C829 O834 1.250 . S
C829 O835 1.263 . S
O830 Tb822 2.427 . S
O830 C826 1.275 . S
O831 Tb822 2.513 . S
O831 C826 1.246 . S
O832 Tb822 2.453 . S
O832 C828 1.245 . S
O833 Tb820 2.343 . S
O833 Tb822 2.596 . S
O833 C828 1.259 . S
O834 Tb822 2.374 . S
O834 C829 1.250 . S
O835 Tb820 2.353 . S
O835 C829 1.263 . S
C836 O837 1.275 . S
C836 O838 1.246 . S
O837 Tb820 2.427 . S
O837 C836 1.275 . S
O838 Tb820 2.513 . S
O838 C836 1.246 . S
C839 O823 1.245 . S
C839 O824 1.259 . S
Tb840 O843 2.453 . S
Tb840 O844 2.596 . S
Tb840 O845 2.374 . S
Tb840 O853 2.343 . S
Tb840 O855 2.353 . S
Tb840 O857 2.427 . S
Tb840 O858 2.513 . S
C841 O845 1.251 . S
C841 O847 1.263 . S
Tb842 O844 2.343 . S
Tb842 O847 2.353 . S
Tb842 O850 2.427 . S
Tb842 O851 2.513 . S
Tb842 O852 2.453 . S
Tb842 O853 2.596 . S
Tb842 O854 2.374 . S
O843 Tb840 2.453 . S
O843 C859 1.245 . S
O844 Tb840 2.596 . S
O844 Tb842 2.343 . S
O844 C859 1.259 . S
O845 Tb840 2.374 . S
O845 C841 1.251 . S
C846 O850 1.275 . S
C846 O851 1.246 . S
O847 C841 1.263 . S
O847 Tb842 2.353 . S
C848 O852 1.245 . S
C848 O853 1.259 . S
C849 O854 1.250 . S
C849 O855 1.263 . S
O850 Tb842 2.427 . S
O850 C846 1.275 . S
O851 Tb842 2.513 . S
O851 C846 1.246 . S
O852 Tb842 2.453 . S
O852 C848 1.245 . S
O853 Tb840 2.343 . S
O853 Tb842 2.596 . S
O853 C848 1.259 . S
O854 Tb842 2.374 . S
O854 C849 1.250 . S
O855 Tb840 2.353 . S
O855 C849 1.263 . S
C856 O857 1.275 . S
C856 O858 1.246 . S
O857 Tb840 2.427 . S
O857 C856 1.275 . S
O858 Tb840 2.513 . S
O858 C856 1.246 . S
C859 O843 1.245 . S
C859 O844 1.259 . S
Tb860 O863 2.453 . S
Tb860 O864 2.596 . S
Tb860 O865 2.374 . S
Tb860 O873 2.343 . S
Tb860 O875 2.353 . S
Tb860 O877 2.427 . S
Tb860 O878 2.513 . S
C861 O865 1.251 . S
C861 O867 1.263 . S
Tb862 O864 2.343 . S
Tb862 O867 2.353 . S
Tb862 O870 2.427 . S
Tb862 O871 2.513 . S
Tb862 O872 2.453 . S
Tb862 O873 2.596 . S
Tb862 O874 2.374 . S
O863 Tb860 2.453 . S
O863 C879 1.245 . S
O864 Tb860 2.596 . S
O864 Tb862 2.343 . S
O864 C879 1.259 . S
O865 Tb860 2.374 . S
O865 C861 1.251 . S
C866 O870 1.275 . S
C866 O871 1.246 . S
O867 C861 1.263 . S
O867 Tb862 2.353 . S
C868 O872 1.245 . S
C868 O873 1.259 . S
C869 O874 1.250 . S
C869 O875 1.263 . S
O870 Tb862 2.427 . S
O870 C866 1.275 . S
O871 Tb862 2.513 . S
O871 C866 1.246 . S
O872 Tb862 2.453 . S
O872 C868 1.245 . S
O873 Tb860 2.343 . S
O873 Tb862 2.596 . S
O873 C868 1.259 . S
O874 Tb862 2.374 . S
O874 C869 1.250 . S
O875 Tb860 2.353 . S
O875 C869 1.263 . S
C876 O877 1.275 . S
C876 O878 1.246 . S
O877 Tb860 2.427 . S
O877 C876 1.275 . S
O878 Tb860 2.513 . S
O878 C876 1.246 . S
C879 O863 1.245 . S
C879 O864 1.259 . S
Tb880 O883 2.453 . S
Tb880 O884 2.596 . S
Tb880 O885 2.374 . S
Tb880 O893 2.343 . S
Tb880 O895 2.353 . S
Tb880 O897 2.427 . S
Tb880 O898 2.513 . S
C881 O885 1.251 . S
C881 O887 1.263 . S
Tb882 O884 2.343 . S
Tb882 O887 2.353 . S
Tb882 O890 2.427 . S
Tb882 O891 2.513 . S
Tb882 O892 2.453 . S
Tb882 O893 2.596 . S
Tb882 O894 2.374 . S
O883 Tb880 2.453 . S
O883 C899 1.245 . S
O884 Tb880 2.596 . S
O884 Tb882 2.343 . S
O884 C899 1.259 . S
O885 Tb880 2.374 . S
O885 C881 1.251 . S
C886 O890 1.275 . S
C886 O891 1.246 . S
O887 C881 1.263 . S
O887 Tb882 2.353 . S
C888 O892 1.245 . S
C888 O893 1.259 . S
C889 O894 1.250 . S
C889 O895 1.263 . S
O890 Tb882 2.427 . S
O890 C886 1.275 . S
O891 Tb882 2.513 . S
O891 C886 1.246 . S
O892 Tb882 2.453 . S
O892 C888 1.245 . S
O893 Tb880 2.343 . S
O893 Tb882 2.596 . S
O893 C888 1.259 . S
O894 Tb882 2.374 . S
O894 C889 1.250 . S
O895 Tb880 2.353 . S
O895 C889 1.263 . S
C896 O897 1.275 . S
C896 O898 1.246 . S
O897 Tb880 2.427 . S
O897 C896 1.275 . S
O898 Tb880 2.513 . S
O898 C896 1.246 . S
C899 O883 1.245 . S
C899 O884 1.259 . S
C522 C726 2.047 . S
C562 C746 1.688 . S
C495 C769 1.856 . S
C455 C749 1.706 . S
C766 C362 1.786 . S
C402 C729 1.872 . S
C736 C442 1.867 . S
C756 C375 1.593 . S
C415 C761 1.880 . S
C535 C741 1.727 . S
C575 C776 1.712 . S
C721 C482 1.703 . S
C786 C42 2.048 . S
C82 C806 1.688 . S
C15 C829 1.856 . S
C695 C809 1.706 . S
C602 C826 1.787 . S
C642 C789 1.871 . S
C682 C796 1.867 . S
C615 C816 1.593 . S
C821 C655 1.880 . S
C55 C801 1.727 . S
C836 C95 1.711 . S
C2 C781 1.703 . S
C846 C282 2.048 . S
C322 C866 1.688 . S
C889 C255 1.857 . S
C869 C215 1.706 . S
C886 C122 1.786 . S
C162 C849 1.871 . S
C202 C856 1.867 . S
C135 C876 1.593 . S
C881 C175 1.880 . S
C295 C861 1.727 . S
C335 C896 1.712 . S
C242 C841 1.703 . S
C621 C739 1.356 . S
C759 C661 1.873 . S
C701 C768 1.606 . S
C261 C748 1.772 . S
C301 C779 1.711 . S
C728 C341 1.271 . S
C141 C799 1.356 . S
C181 C819 1.873 . S
C221 C828 1.606 . S
C501 C808 1.767 . S
C839 C541 1.711 . S
C581 C788 1.271 . S
C381 C859 1.356 . S
C421 C879 1.873 . S
C888 C461 1.606 . S
C21 C868 1.767 . S
C61 C899 1.710 . S
C101 C848 1.271 . S
