# Generated by pormake.
# Topology tsx, (6,3)-cn, num edge types: 1
# Building blocks:
#     Node 0, Type 0, BuildingBlock: LEVNOQ01_clean_sbu_1, # of connection points: 6
#     Node 1, Type 0, BuildingBlock: LEVNOQ01_clean_sbu_1, # of connection points: 6
#     Node 2, Type 1, BuildingBlock: WUSLED_clean_sbu_0, # of connection points: 3
#     Node 3, Type 1, BuildingBlock: WUSLED_clean_sbu_0, # of connection points: 3
#     Node 4, Type 1, BuildingBlock: WUSLED_clean_sbu_0, # of connection points: 3
#     Node 5, Type 1, BuildingBlock: WUSLED_clean_sbu_0, # of connection points: 3
#     Edge 6, Type (0, 1), BuildingBlock: FUNLAD_clean_linker_0, # of connection points: 2
#     Edge 7, Type (0, 1), BuildingBlock: FUNLAD_clean_linker_0, # of connection points: 2
#     Edge 8, Type (0, 1), BuildingBlock: FUNLAD_clean_linker_0, # of connection points: 2
#     Edge 9, Type (0, 1), BuildingBlock: FUNLAD_clean_linker_0, # of connection points: 2
#     Edge 10, Type (0, 1), BuildingBlock: FUNLAD_clean_linker_0, # of connection points: 2
#     Edge 11, Type (0, 1), BuildingBlock: FUNLAD_clean_linker_0, # of connection points: 2
#     Edge 12, Type (0, 1), BuildingBlock: FUNLAD_clean_linker_0, # of connection points: 2
#     Edge 13, Type (0, 1), BuildingBlock: FUNLAD_clean_linker_0, # of connection points: 2
#     Edge 14, Type (0, 1), BuildingBlock: FUNLAD_clean_linker_0, # of connection points: 2
#     Edge 15, Type (0, 1), BuildingBlock: FUNLAD_clean_linker_0, # of connection points: 2
#     Edge 16, Type (0, 1), BuildingBlock: FUNLAD_clean_linker_0, # of connection points: 2
#     Edge 17, Type (0, 1), BuildingBlock: FUNLAD_clean_linker_0, # of connection points: 2
# Relax obj value: 0.123
# Max RMSD: 0.154
# Mean RMSD: 0.115
data_MOF--net-tsx--node1-LEVNOQ01_clean_sbu_1--node2-WUSLED_clean_sbu_0--edge1-FUNLAD_clean_linker_0
_symmetry_space_group_name_H-M    P1
_symmetry_Int_Tables_number       1
_symmetry_cell_setting            triclinic
loop_
_symmetry_equiv_pos_as_xyz
'x, y, z'
_cell_length_a     26.521564
_cell_length_b     32.600892
_cell_length_c     53.052209
_cell_angle_alpha  98.105587
_cell_angle_beta   91.786688
_cell_angle_gamma 90.265927
loop_
_atom_site_label
_atom_site_type_symbol
_atom_site_fract_x
_atom_site_fract_y
_atom_site_fract_z
_atom_type_partial_charge
O0 O 0.102 0.072 0.07756 0.0
Mg1 Mg 0.14285 0.06245 0.04448 0.0
O2 O 0.04077 0.03966 0.05372 0.0
Mg3 Mg 0.06017 0.03877 0.01025 0.0
O4 O 0.12031 0.09427 0.01524 0.0
O5 O 0.18835 0.11029 0.04144 0.0
O6 O 0.07709 0.03711 0.96669 0.0
O7 O 1.00014 0.0913 0.00915 0.0
Mg8 Mg 0.96773 0.00655 0.97411 0.0
O9 O 1.00101 0.98545 0.00475 0.0
O10 O 0.01604 0.00227 0.94333 0.0
O11 O 0.93344 0.0639 0.98633 0.0
O12 O 0.93548 0.95336 0.98276 0.0
C13 C 0.16072 0.97798 0.02082 0.0
C14 C 0.059 0.05498 0.07562 0.0
C15 C 0.15897 0.1183 0.02297 0.0
C16 C 0.05849 0.02053 0.9451 0.0
C17 C 0.95529 0.09424 1.00006 0.0
C18 C 0.96778 0.95563 1.00159 0.0
O19 O 0.18104 0.00655 0.0364 0.0
O20 O 0.11833 0.98411 0.00999 0.0
O21 O 0.62989 0.57057 0.57353 0.0
Mg22 Mg 0.66814 0.56343 0.5394 0.0
O23 O 0.56221 0.54188 0.5529 0.0
Mg24 Mg 0.57695 0.53627 0.50863 0.0
O25 O 0.63505 0.59193 0.51107 0.0
O26 O 0.70657 0.61397 0.53295 0.0
O27 O 0.59543 0.53374 0.46434 0.0
O28 O 0.51669 0.58762 0.50665 0.0
Mg29 Mg 0.50871 0.50196 0.47449 0.0
O30 O 0.517 0.48088 0.50872 0.0
O31 O 0.55622 0.47819 0.44574 0.0
O32 O 0.47132 0.55882 0.47338 0.0
O33 O 0.45877 0.45737 0.47821 0.0
C34 C 0.68146 0.47772 0.51671 0.0
C35 C 0.58539 0.55661 0.57373 0.0
C36 C 0.67207 0.61866 0.51594 0.0
C37 C 0.58853 0.50619 0.4449 0.0
C38 C 0.48082 0.58952 0.49031 0.0
C39 C 0.48 0.45564 0.50021 0.0
O40 O 0.70592 0.50794 0.52883 0.0
O41 O 0.63598 0.48255 0.50919 0.0
C42 C 0.95064 0.06446 0.46976 0.0
C43 C 0.9176 0.07489 0.45051 0.0
C44 C 0.88645 0.1333 0.47927 0.0
C45 C 0.88571 0.10884 0.45523 0.0
C46 C 0.91904 0.12236 0.49868 0.0
C47 C 0.95094 0.08819 0.49394 0.0
U48 U 0.02076 0.00032 0.41916 0.0
O49 O 0.09965 0.9804 0.41605 0.0
O50 O 0.03842 0.934 0.41119 0.0
C51 C 0.08742 0.94081 0.41326 0.0
C52 C 0.98736 0.03112 0.46368 0.0
C53 C 0.11671 0.91419 0.42865 0.0
C54 C 0.18824 0.903 0.45674 0.0
C55 C 0.15794 0.92977 0.44454 0.0
C56 C 0.13599 0.8449 0.4379 0.0
C57 C 0.17792 0.8602 0.45331 0.0
C58 C 0.10589 0.87156 0.42567 0.0
C59 C 0.98926 0.02999 0.35192 0.0
C60 C 0.97183 0.99559 0.30869 0.0
C61 C 1.00286 0.06639 0.31578 0.0
C62 C 1.00464 0.06549 0.34198 0.0
C63 C 0.98522 0.03187 0.29886 0.0
C64 C 0.97367 0.99467 0.33504 0.0
C65 C 0.98492 0.0326 0.37978 0.0
O66 O 0.96884 0.99697 0.45037 0.0
O67 O 0.03 0.04323 0.45499 0.0
O68 O 0.02417 0.04798 0.39377 0.0
O69 O 0.96315 0.0014 0.38856 0.0
H70 H 0.9174 0.05739 0.43156 0.0
H71 H 0.86181 0.1168 0.43975 0.0
H72 H 0.92025 0.14049 0.51744 0.0
H73 H 0.97656 0.08089 0.50894 0.0
H74 H 0.22007 0.91574 0.46864 0.0
H75 H 0.16754 0.96244 0.44716 0.0
H76 H 0.12749 0.81202 0.43447 0.0
H77 H 0.07487 0.85859 0.41325 0.0
H78 H 0.9581 0.9685 0.29612 0.0
H79 H 0.01456 0.09449 0.3088 0.0
H80 H 0.01667 0.09314 0.35457 0.0
H81 H 0.96145 0.96683 0.34215 0.0
C82 C 0.95509 0.00334 0.55157 0.0
C83 C 0.92977 0.98561 0.57025 0.0
C84 C 0.88137 0.94108 0.53738 0.0
C85 C 0.89325 0.95481 0.56324 0.0
C86 C 0.90706 0.9589 0.51871 0.0
C87 C 0.94373 0.98973 0.52579 0.0
U88 U 0.04151 0.057 0.60312 0.0
O89 O 0.12119 0.07588 0.60383 0.0
O90 O 0.06294 0.12249 0.61438 0.0
C91 C 0.111 0.1153 0.61048 0.0
C92 C 0.9945 0.03485 0.55914 0.0
C93 C 0.13818 0.14548 0.59764 0.0
C94 C 0.18949 0.16321 0.56349 0.0
C95 C 0.15871 0.13486 0.57353 0.0
C96 C 0.17789 0.21336 0.6011 0.0
C97 C 0.20024 0.20247 0.57746 0.0
C98 C 0.14725 0.18513 0.61106 0.0
C99 C 0.03729 0.0239 0.66882 0.0
C100 C 0.10587 0.02785 0.70064 0.0
C101 C 0.01913 0.03016 0.71378 0.0
C102 C 1.00246 0.0268 0.68832 0.0
C103 C 0.07099 0.03032 0.72018 0.0
C104 C 0.0892 0.02495 0.6752 0.0
C105 C 0.01882 0.02005 0.64208 0.0
O106 O 0.98063 0.06656 0.57552 0.0
O107 O 0.0386 0.01996 0.56506 0.0
O108 O 0.0508 0.0048 0.62481 0.0
O109 O 0.99382 0.05205 0.63585 0.0
H110 H 0.93864 0.99533 0.59029 0.0
H111 H 0.87506 0.94117 0.57811 0.0
H112 H 0.89868 0.94916 0.49865 0.0
H113 H 0.96346 0.00269 0.51117 0.0
H114 H 0.20627 0.15386 0.54525 0.0
H115 H 0.15217 0.1044 0.56279 0.0
H116 H 0.18457 0.24361 0.61208 0.0
H117 H 0.13166 0.19392 0.62968 0.0
H118 H 0.14603 0.02827 0.70506 0.0
H119 H 0.99139 0.03157 0.72844 0.0
H120 H 0.9623 0.02619 0.68383 0.0
H121 H 0.11696 0.02332 0.66055 0.0
C122 C 0.45336 0.57674 0.96437 0.0
C123 C 0.42535 0.58972 0.9441 0.0
C124 C 0.38692 0.64423 0.9732 0.0
C125 C 0.39242 0.62307 0.94846 0.0
C126 C 0.41461 0.63071 0.99355 0.0
C127 C 0.4476 0.5972 0.98915 0.0
U128 U 0.52026 0.50485 0.91558 0.0
O129 O 0.59956 0.4864 0.91195 0.0
O130 O 0.5406 0.43901 0.91268 0.0
C131 C 0.58925 0.44708 0.91268 0.0
C132 C 0.49015 0.54328 0.95918 0.0
C133 C 0.62213 0.42495 0.92924 0.0
C134 C 0.69825 0.42147 0.95573 0.0
C135 C 0.66406 0.44446 0.94291 0.0
C136 C 0.64842 0.35943 0.94215 0.0
C137 C 0.69124 0.37855 0.95514 0.0
C138 C 0.6144 0.38234 0.92929 0.0
C139 C 0.48405 0.516 0.84599 0.0
C140 C 0.53457 0.50026 0.80846 0.0
C141 C 0.44525 0.51372 0.80373 0.0
C142 C 0.44135 0.51923 0.83019 0.0
C143 C 0.49211 0.50508 0.79257 0.0
C144 C 0.53055 0.50553 0.83496 0.0
C145 C 0.47961 0.52643 0.87373 0.0
O146 O 0.47108 0.50752 0.94843 0.0
O147 O 0.53113 0.55394 0.9483 0.0
O148 O 0.51851 0.54578 0.8861 0.0
O149 O 0.46016 0.4976 0.88558 0.0
H150 H 0.42969 0.57447 0.92479 0.0
H151 H 0.37238 0.63303 0.93232 0.0
H152 H 0.41087 0.64611 0.01286 0.0
H153 H 0.46906 0.58767 0.00501 0.0
H154 H 0.7306 0.43716 0.96579 0.0
H155 H 0.67129 0.47724 0.94318 0.0
H156 H 0.64224 0.32634 0.94097 0.0
H157 H 0.58285 0.36638 0.91863 0.0
H158 H 0.57104 0.49307 0.8004 0.0
H159 H 0.41197 0.518 0.79206 0.0
H160 H 0.40517 0.5273 0.83837 0.0
H161 H 0.56395 0.50252 0.84682 0.0
C162 C 0.46268 0.49991 0.04807 0.0
C163 C 0.441 0.47691 0.06545 0.0
C164 C 0.39357 0.43524 0.03086 0.0
C165 C 0.40675 0.44488 0.05694 0.0
C166 C 0.41501 0.45884 0.01357 0.0
C167 C 0.44933 0.49088 0.02213 0.0
U168 U 0.54334 0.55674 0.10169 0.0
O169 O 0.56204 0.62292 0.11234 0.0
O170 O 0.62239 0.57759 0.10361 0.0
C171 C 0.61059 0.6169 0.10918 0.0
C172 C 0.50019 0.53245 0.05691 0.0
C173 C 0.63793 0.64714 0.09619 0.0
C174 C 0.70875 0.66471 0.07146 0.0
C175 C 0.67746 0.63495 0.07977 0.0
C176 C 0.66023 0.71925 0.09488 0.0
C177 C 0.70124 0.70719 0.07944 0.0
C178 C 0.62907 0.68957 0.1032 0.0
C179 C 0.53605 0.52508 0.1679 0.0
C180 C 0.54893 0.56734 0.20926 0.0
C181 C 0.56905 0.49433 0.2041 0.0
C182 C 0.55379 0.49057 0.17842 0.0
C183 C 0.56635 0.53268 0.21995 0.0
C184 C 0.53418 0.56364 0.18349 0.0
C185 C 0.51996 0.52014 0.14072 0.0
O186 O 0.48358 0.56356 0.07292 0.0
O187 O 0.54428 0.51886 0.06397 0.0
O188 O 0.55447 0.50594 0.12456 0.0
O189 O 0.49349 0.55053 0.13327 0.0
H190 H 0.45118 0.48337 0.08557 0.0
H191 H 0.39167 0.42695 0.07073 0.0
H192 H 0.40532 0.45252 0.99341 0.0
H193 H 0.46581 0.50831 0.00847 0.0
H194 H 0.73952 0.65441 0.05924 0.0
H195 H 0.68548 0.60249 0.07406 0.0
H196 H 0.65362 0.75164 0.10162 0.0
H197 H 0.59936 0.69987 0.11611 0.0
H198 H 0.54566 0.59724 0.22087 0.0
H199 H 0.58316 0.46711 0.21147 0.0
H200 H 0.55591 0.46059 0.16673 0.0
H201 H 0.52096 0.59094 0.17589 0.0
C202 C 0.22139 0.16119 0.00501 0.0
C203 C 0.17121 0.15532 0.01135 0.0
C204 C 0.23916 0.20038 1.00187 0.0
C205 C 0.20697 0.23484 0.00508 0.0
C206 C 0.15572 0.22828 0.00963 0.0
C207 C 0.13782 0.18871 0.0126 0.0
C208 C 0.22722 0.27803 0.0075 0.0
C209 C 0.2726 0.28751 0.99892 0.0
C210 C 0.29899 0.3281 0.00605 0.0
C211 C 0.34045 0.33716 0.99188 0.0
C212 C 0.37021 0.37245 0.99953 0.0
C213 C 0.35941 0.39955 0.02169 0.0
H214 H 0.25676 0.34951 0.03987 0.0
C215 C 0.31726 0.39107 0.03562 0.0
C216 C 0.28745 0.35571 0.02796 0.0
H217 H 0.30768 0.41147 0.05269 0.0
H218 H 0.24795 0.13592 1.00436 0.0
H219 H 0.27905 0.20368 0.99898 0.0
H220 H 0.13012 0.25422 0.01236 0.0
H221 H 0.09918 0.18503 0.01801 0.0
H222 H 0.20488 0.30228 0.01781 0.0
H223 H 0.29259 0.26409 0.98657 0.0
H224 H 0.35072 0.31624 0.97514 0.0
H225 H 0.40282 0.37763 0.98856 0.0
C226 C 0.16712 0.90461 0.99826 0.0
C227 C 0.18635 0.9374 0.01612 0.0
C228 C 0.19192 0.86635 0.99466 0.0
C229 C 0.23633 0.86029 0.00896 0.0
C230 C 0.25505 0.89307 0.02679 0.0
C231 C 0.23068 0.93107 0.03024 0.0
C232 C 0.26427 0.82053 0.00663 0.0
C233 C 0.26166 0.79096 0.98614 0.0
C234 C 0.29354 0.75315 0.98392 0.0
C235 C 0.27738 0.71764 0.9675 0.0
C236 C 0.30711 0.68204 0.96437 0.0
C237 C 0.35398 0.68124 0.97747 0.0
H238 H 0.35568 0.77948 0.00897 0.0
C239 C 0.37025 0.7168 0.99384 0.0
C240 C 0.34062 0.75238 0.99694 0.0
H241 H 0.40669 0.71762 1.0037 0.0
H242 H 0.13286 0.90841 0.98721 0.0
H243 H 0.17561 0.84162 0.98109 0.0
H244 H 0.289 0.88937 0.03812 0.0
H245 H 0.24662 0.95546 0.04424 0.0
H246 H 0.28957 0.81631 0.02252 0.0
H247 H 0.23576 0.79431 0.97033 0.0
H248 H 0.24157 0.7174 0.95707 0.0
H249 H 0.29331 0.65508 0.9517 0.0
C250 C 0.93549 0.93581 0.04141 0.0
C251 C 0.96324 0.92539 0.01939 0.0
C252 C 0.91417 0.90466 0.05345 0.0
C253 C 0.92023 0.86265 0.04348 0.0
C254 C 0.95227 0.85247 0.02301 0.0
C255 C 0.97303 0.88361 0.01082 0.0
C256 C 0.89014 0.82913 0.0523 0.0
C257 C 0.84174 0.83476 0.05903 0.0
C258 C 0.80702 0.80088 0.06388 0.0
C259 C 0.7548 0.80777 0.06268 0.0
C260 C 0.7205 0.77714 0.06712 0.0
C261 C 0.73758 0.73881 0.07306 0.0
H262 H 0.86404 0.75609 0.07158 0.0
C263 C 0.78984 0.73177 0.07425 0.0
C264 C 0.82422 0.76245 0.06979 0.0
H265 H 0.80432 0.70293 0.07935 0.0
H266 H 0.92665 0.96788 0.04799 0.0
H267 H 0.89088 0.91352 0.06969 0.0
H268 H 0.95794 0.82037 0.01513 0.0
H269 H 0.99354 0.87497 0.99355 0.0
H270 H 0.90602 0.79827 0.04989 0.0
H271 H 0.82525 0.86521 0.05899 0.0
H272 H 0.74035 0.837 0.05816 0.0
H273 H 0.68052 0.7835 0.06586 0.0
C274 C 0.95011 0.17164 1.00329 0.0
C275 C 0.92724 0.13328 0.00512 0.0
C276 C 0.92067 0.20742 1.00409 0.0
C277 C 0.8682 0.20527 0.00723 0.0
C278 C 0.84632 0.16735 0.01075 0.0
C279 C 0.87535 0.13164 0.00934 0.0
C280 C 0.8343 0.24099 0.00579 0.0
C281 C 0.84158 0.26906 0.98986 0.0
C282 C 0.80267 0.29939 0.98384 0.0
C283 C 0.81738 0.33286 0.97164 0.0
C284 C 0.78143 0.35954 0.9632 0.0
C285 C 0.72977 0.35315 0.9666 0.0
H286 H 0.73733 0.26781 0.99643 0.0
C287 C 0.71506 0.32036 0.9794 0.0
C288 C 0.75093 0.29369 0.98782 0.0
H289 H 0.67558 0.31474 0.98244 0.0
H290 H 0.99011 0.17358 1.00001 0.0
H291 H 0.93885 0.23646 1.00192 0.0
H292 H 0.80612 0.16491 0.0134 0.0
H293 H 0.85695 0.10242 0.01098 0.0
H294 H 0.79979 0.24129 0.01624 0.0
H295 H 0.87635 0.26835 0.9795 0.0
H296 H 0.85678 0.33781 0.96803 0.0
H297 H 0.79401 0.38413 0.95308 0.0
C298 C 0.65032 0.69165 0.51372 0.0
C299 C 0.67558 0.65579 0.50341 0.0
C300 C 0.66775 0.73068 0.50962 0.0
C301 C 0.7109 0.73423 0.49522 0.0
C302 C 0.73252 0.69805 0.4827 0.0
C303 C 0.71542 0.65912 0.48703 0.0
C304 C 0.73759 0.7744 0.49506 0.0
C305 C 0.73948 0.80402 0.51558 0.0
C306 C 0.77398 0.8407 0.51874 0.0
C307 C 0.76513 0.87314 0.53844 0.0
C308 C 0.79917 0.90623 0.54401 0.0
C309 C 0.84326 0.90757 0.53011 0.0
H310 H 0.8269 0.81776 0.48954 0.0
C311 C 0.8517 0.87563 0.51 0.0
C312 C 0.81758 0.8425 0.5044 0.0
H313 H 0.8857 0.87536 0.4992 0.0
H314 H 0.62002 0.68974 0.52676 0.0
H315 H 0.64908 0.75794 0.51886 0.0
H316 H 0.76545 0.69989 0.4713 0.0
H317 H 0.736 0.63181 0.47929 0.0
H318 H 0.76057 0.77732 0.47884 0.0
H319 H 0.71674 0.80026 0.53179 0.0
H320 H 0.73211 0.87256 0.54992 0.0
H321 H 0.79114 0.9306 0.5594 0.0
C322 C 0.68046 0.40126 0.49985 0.0
C323 C 0.70581 0.43657 0.51261 0.0
C324 C 0.70366 0.36234 0.49748 0.0
C325 C 0.75261 0.35818 0.50793 0.0
C326 C 0.77772 0.39355 0.52043 0.0
C327 C 0.75488 0.43218 0.52263 0.0
C328 C 0.77885 0.31785 0.50717 0.0
C329 C 0.7691 0.28429 0.48976 0.0
C330 C 0.7991 0.24551 0.48849 0.0
C331 C 0.77798 0.20833 0.4759 0.0
C332 C 0.80575 0.17167 0.47343 0.0
C333 C 0.85548 0.1714 0.48343 0.0
H334 H 0.86777 0.27322 0.50741 0.0
C335 C 0.8766 0.20851 0.49611 0.0
C336 C 0.84898 0.24516 0.49847 0.0
H337 H 0.91524 0.2096 0.50344 0.0
H338 H 0.64252 0.40357 0.49203 0.0
H339 H 0.68264 0.33568 0.48812 0.0
H340 H 0.81536 0.39134 0.52866 0.0
H341 H 0.77567 0.45857 0.5326 0.0
H342 H 0.80885 0.31659 0.52141 0.0
H343 H 0.73857 0.28505 0.47573 0.0
H344 H 0.73988 0.20765 0.46784 0.0
H345 H 0.78832 0.14353 0.46361 0.0
C346 C 0.44551 0.38556 0.50167 0.0
C347 C 0.46139 0.42396 0.51492 0.0
C348 C 0.41985 0.35724 0.51399 0.0
C349 C 0.40827 0.36709 0.53981 0.0
C350 C 0.42734 0.40431 0.55357 0.0
C351 C 0.45382 0.43265 0.54119 0.0
C352 C 0.37536 0.33946 0.55237 0.0
C353 C 0.33878 0.31568 0.5392 0.0
C354 C 0.30392 0.28717 0.54997 0.0
C355 C 0.26793 0.26477 0.53338 0.0
C356 C 0.23438 0.23729 0.5422 0.0
C357 C 0.23584 0.23161 0.56793 0.0
H358 H 0.33256 0.29744 0.58933 0.0
C359 C 0.27179 0.2539 0.5846 0.0
C360 C 0.30551 0.28132 0.57578 0.0
H361 H 0.27439 0.24971 0.60449 0.0
H362 H 0.45186 0.37781 0.48148 0.0
H363 H 0.40834 0.32799 0.50302 0.0
H364 H 0.41978 0.41229 0.5736 0.0
H365 H 0.4657 0.46214 0.55175 0.0
H366 H 0.38014 0.3406 0.5728 0.0
H367 H 0.33303 0.31757 0.51904 0.0
H368 H 0.26567 0.26851 0.5134 0.0
H369 H 0.20687 0.22088 0.52891 0.0
C370 C 0.40477 0.62536 0.47577 0.0
C371 C 0.44951 0.62707 0.4908 0.0
C372 C 0.3751 0.6604 0.47541 0.0
C373 C 0.38926 0.69818 0.49015 0.0
C374 C 0.43424 0.70018 0.505 0.0
C375 C 0.46393 0.66481 0.50554 0.0
C376 C 0.35891 0.73609 0.48902 0.0
C377 C 0.30849 0.73433 0.4849 0.0
C378 C 0.27685 0.77 0.47996 0.0
C379 C 0.22438 0.76664 0.48194 0.0
C380 C 0.1924 0.79682 0.47435 0.0
C381 C 0.21215 0.83101 0.46439 0.0
H382 H 0.33693 0.80836 0.46844 0.0
C383 C 0.26479 0.83526 0.46327 0.0
C384 C 0.29687 0.80503 0.47089 0.0
H385 H 0.28117 0.86091 0.45532 0.0
H386 H 0.39261 0.59688 0.46407 0.0
H387 H 0.34169 0.65793 0.46302 0.0
H388 H 0.44632 0.72909 0.51625 0.0
H389 H 0.49843 0.66719 0.51715 0.0
H390 H 0.3786 0.76572 0.49172 0.0
H391 H 0.28904 0.70487 0.48477 0.0
H392 H 0.2079 0.73996 0.48878 0.0
H393 H 0.15205 0.79291 0.47577 0.0
C394 C 0.04479 0.07761 0.12155 0.0
C395 C 0.03279 0.05032 0.09924 0.0
C396 C 0.02702 0.07026 0.14495 0.0
C397 C 0.99665 0.03532 0.14667 0.0
C398 C 0.98328 0.00865 0.12424 0.0
C399 C 1.00077 0.01631 0.10064 0.0
C400 C 0.98315 0.02425 0.17189 0.0
C401 C 0.97819 0.05315 0.19245 0.0
C402 C 0.97447 0.04408 0.21901 0.0
C403 C 0.95772 0.07565 0.23751 0.0
C404 C 0.95984 0.07102 0.26325 0.0
C405 C 0.97928 0.03477 0.27122 0.0
H406 H 1.00657 0.98228 0.21325 0.0
C407 C 0.99439 0.00239 0.2527 0.0
C408 C 0.9922 0.00701 0.22682 0.0
H409 H 1.00982 0.97418 0.25827 0.0
H410 H 0.06956 0.104 0.12108 0.0
H411 H 0.03949 0.09094 0.16178 0.0
H412 H 0.96037 0.9813 0.12506 0.0
H413 H 0.99151 0.99447 0.08379 0.0
H414 H 0.97853 0.99164 0.17354 0.0
H415 H 0.97803 0.08564 0.18989 0.0
H416 H 0.94398 0.10453 0.2321 0.0
H417 H 0.94687 0.09621 0.27699 0.0
C418 C 0.07774 0.99322 0.90043 0.0
C419 C 0.08367 0.02484 0.9212 0.0
C420 C 0.09133 -0.00021 0.87614 0.0
C421 C 0.11089 0.0384 0.87202 0.0
C422 C 0.11932 0.06933 0.89306 0.0
C423 C 0.10639 0.06246 0.91756 0.0
C424 C 0.11565 0.04875 0.84578 0.0
C425 C 0.12281 0.01978 0.82548 0.0
C426 C 0.11452 0.02724 0.7987 0.0
C427 C 0.13717 0.00072 0.77919 0.0
C428 C 0.12459 0.00291 0.75364 0.0
C429 C 0.08837 0.03123 0.74709 0.0
H430 H 0.06034 0.07694 0.80654 0.0
C431 C 0.06667 0.05857 0.76654 0.0
C432 C 0.07964 0.05669 0.79209 0.0
H433 H 0.0388 0.08082 0.762 0.0
H434 H 0.06014 0.96397 0.90274 0.0
H435 H 0.08304 0.97546 0.86046 0.0
H436 H 0.13391 0.09945 0.89037 0.0
H437 H 0.11081 0.0875 0.93324 0.0
H438 H 0.1103 0.08085 0.84303 0.0
H439 H 0.13309 0.98857 0.82849 0.0
H440 H 0.16363 0.97743 0.78375 0.0
H441 H 0.14155 0.98117 0.73905 0.0
C442 C 0.52826 0.52492 0.60299 0.0
C443 C 0.56239 0.55615 0.59875 0.0
C444 C 0.51347 0.52143 0.62781 0.0
C445 C 0.53235 0.54947 0.64871 0.0
C446 C 0.5639 0.58204 0.64403 0.0
C447 C 0.57902 0.58518 0.61947 0.0
C448 C 0.52247 0.54576 0.67579 0.0
C449 C 0.50514 0.51142 0.68428 0.0
C450 C 0.503 0.50863 0.71198 0.0
C451 C 0.46402 0.48603 0.7211 0.0
C452 C 0.46079 0.48417 0.74722 0.0
C453 C 0.49715 0.50418 0.76467 0.0
H454 H 0.57176 0.54406 0.72294 0.0
C455 C 0.53723 0.5254 0.75538 0.0
C456 C 0.54017 0.52759 0.72937 0.0
H457 H 0.56573 0.54129 0.7683 0.0
H458 H 0.51491 0.50212 0.58735 0.0
H459 H 0.48807 0.49647 0.63044 0.0
H460 H 0.57864 0.6044 0.65962 0.0
H461 H 0.60496 0.60987 0.6168 0.0
H462 H 0.53297 0.57235 0.68976 0.0
H463 H 0.49255 0.4847 0.67101 0.0
H464 H 0.4354 0.47058 0.70806 0.0
H465 H 0.42977 0.46718 0.75379 0.0
C466 C 0.61685 0.54861 0.41191 0.0
C467 C 0.6104 0.50981 0.42005 0.0
C468 C 0.62518 0.55121 0.38618 0.0
C469 C 0.62758 0.51489 0.36831 0.0
C470 C 0.62562 0.47632 0.37713 0.0
C471 C 0.61673 0.47378 0.40261 0.0
C472 C 0.62781 0.5149 0.34023 0.0
C473 C 0.61501 0.54742 0.32833 0.0
C474 C 0.60479 0.5427 0.30036 0.0
C475 C 0.6156 0.57547 0.28681 0.0
C476 C 0.604 0.57211 0.26066 0.0
C477 C 0.58031 0.53615 0.24762 0.0
H478 H 0.57029 0.48158 0.29741 0.0
C479 C 0.5689 0.50364 0.26139 0.0
C480 C 0.58105 0.50681 0.28738 0.0
H481 H 0.54935 0.47599 0.25226 0.0
H482 H 0.61207 0.57688 0.425 0.0
H483 H 0.62793 0.58161 0.3804 0.0
H484 H 0.62796 0.44782 0.36398 0.0
H485 H 0.61223 0.44345 0.40843 0.0
H486 H 0.63446 0.48531 0.32861 0.0
H487 H 0.60973 0.57786 0.33905 0.0
H488 H 0.63332 0.60364 0.29645 0.0
H489 H 0.61382 0.59764 0.25068 0.0
loop_
_geom_bond_atom_site_label_1
_geom_bond_atom_site_label_2
_geom_bond_distance
_geom_bond_site_symmetry_2
_ccdc_geom_bond_type
O0 Mg1 1.990 . S
O0 C14 1.253 . S
Mg1 O0 1.990 . S
Mg1 O4 2.180 . S
Mg1 O5 2.117 . S
Mg1 O19 2.030 1_545 S
O2 Mg3 2.072 . S
O2 C14 1.260 . S
Mg3 O2 2.072 . S
Mg3 O4 2.099 . S
Mg3 O6 2.079 1_554 S
Mg3 O7 2.072 . S
Mg3 O9 2.099 1_444 S
Mg3 O20 2.079 1_544 S
O4 Mg1 2.180 . S
O4 Mg3 2.099 . S
O4 C15 1.279 . S
O5 Mg1 2.117 . S
O5 C15 1.250 . S
O6 Mg3 2.079 1_556 S
O6 C16 1.264 . S
O7 Mg3 2.072 . S
O7 C17 1.263 1_455 S
Mg8 O9 2.180 1_545 S
Mg8 O10 2.030 . S
Mg8 O11 1.990 . S
Mg8 O12 2.117 1_545 S
O9 Mg3 2.099 1_666 S
O9 Mg8 2.180 1_565 S
O9 C18 1.279 1_556 S
O10 Mg8 2.030 . S
O10 C16 1.248 1_655 S
O11 Mg8 1.990 . S
O11 C17 1.250 1_556 S
O12 Mg8 2.117 1_565 S
O12 C18 1.250 1_556 S
C13 O19 1.248 . S
C13 O20 1.264 1_554 S
C14 O0 1.253 . S
C14 O2 1.260 . S
C15 O4 1.279 . S
C15 O5 1.250 . S
C16 O6 1.264 . S
C16 O10 1.248 1_455 S
C17 O7 1.263 1_655 S
C17 O11 1.250 1_554 S
C18 O9 1.279 1_554 S
C18 O12 1.250 1_554 S
O19 Mg1 2.030 1_565 S
O19 C13 1.248 . S
O20 Mg3 2.079 1_566 S
O20 C13 1.264 1_556 S
O21 Mg22 1.990 . S
O21 C35 1.253 . S
Mg22 O21 1.990 . S
Mg22 O25 2.180 . S
Mg22 O26 2.117 . S
Mg22 O40 2.030 . S
O23 Mg24 2.072 . S
O23 C35 1.260 . S
Mg24 O23 2.072 . S
Mg24 O25 2.099 . S
Mg24 O27 2.079 . S
Mg24 O28 2.072 . S
Mg24 O30 2.099 . S
Mg24 O41 2.079 . S
O25 Mg22 2.180 . S
O25 Mg24 2.099 . S
O25 C36 1.279 . S
O26 Mg22 2.117 . S
O26 C36 1.250 . S
O27 Mg24 2.079 . S
O27 C37 1.264 . S
O28 Mg24 2.072 . S
O28 C38 1.260 . S
Mg29 O30 2.180 . S
Mg29 O31 2.030 . S
Mg29 O32 1.990 . S
Mg29 O33 2.117 . S
O30 Mg24 2.099 . S
O30 Mg29 2.180 . S
O30 C39 1.279 . S
O31 Mg29 2.030 . S
O31 C37 1.248 . S
O32 Mg29 1.990 . S
O32 C38 1.253 . S
O33 Mg29 2.117 . S
O33 C39 1.250 . S
C34 O40 1.248 . S
C34 O41 1.264 . S
C35 O21 1.253 . S
C35 O23 1.260 . S
C36 O25 1.279 . S
C36 O26 1.250 . S
C37 O27 1.264 . S
C37 O31 1.248 . S
C38 O28 1.260 . S
C38 O32 1.253 . S
C39 O30 1.279 . S
C39 O33 1.250 . S
O40 Mg22 2.030 . S
O40 C34 1.248 . S
O41 Mg24 2.079 . S
O41 C34 1.264 . S
C42 C43 1.264 . S
C42 C47 1.479 . S
C42 C52 1.465 1_655 S
C43 C42 1.264 . S
C43 C45 1.339 . S
C43 H70 0.931 . S
C44 C45 1.395 . S
C44 C46 1.320 . S
C45 C43 1.339 . S
C45 C44 1.395 . S
C45 H71 0.929 . S
C46 C44 1.320 . S
C46 C47 1.405 . S
C46 H72 0.930 . S
C47 C42 1.479 . S
C47 C46 1.405 . S
C47 H73 0.931 . S
U48 O49 2.454 1_545 S
U48 O50 2.458 1_545 S
U48 C51 2.984 1_545 S
U48 C52 2.847 . S
U48 C65 2.882 . S
U48 O66 2.441 . S
U48 O67 2.420 . S
U48 O68 2.455 1_545 S
U48 O69 2.449 . S
O49 U48 2.454 1_565 S
O49 C51 1.353 . S
O50 U48 2.458 1_565 S
O50 C51 1.286 . S
C51 U48 2.984 1_565 S
C51 O49 1.353 . S
C51 O50 1.286 . S
C51 C53 1.363 . S
C52 C42 1.465 1_455 S
C52 U48 2.847 . S
C52 O66 1.249 . S
C52 O67 1.202 . S
C53 C51 1.363 . S
C53 C55 1.408 . S
C53 C58 1.342 . S
C54 C55 1.310 . S
C54 C57 1.461 . S
C54 H74 0.932 . S
C55 C53 1.408 . S
C55 C54 1.310 . S
C55 H75 0.930 . S
C56 C57 1.474 . S
C56 C58 1.285 . S
C56 H76 0.929 . S
C57 C54 1.461 . S
C57 C56 1.474 . S
C58 C53 1.342 . S
C58 C56 1.285 . S
C58 H77 0.930 . S
C59 C62 1.424 . S
C59 C64 1.245 1_545 S
C59 C65 1.428 . S
C60 C63 1.256 1_565 S
C60 C64 1.477 . S
C60 H78 0.932 . S
C61 C62 1.384 . S
C61 C63 1.484 . S
C61 H79 0.929 . S
C62 C59 1.424 . S
C62 C61 1.384 . S
C62 H80 0.928 . S
C63 C60 1.256 1_545 S
C63 C61 1.484 . S
C64 C59 1.245 1_565 S
C64 C60 1.477 . S
C64 H81 0.932 . S
C65 U48 2.882 . S
C65 C59 1.428 . S
C65 O68 1.301 1_545 S
C65 O69 1.282 . S
O66 U48 2.441 . S
O66 C52 1.249 . S
O67 U48 2.420 . S
O67 C52 1.202 . S
O68 U48 2.455 1_565 S
O68 C65 1.301 1_565 S
O69 U48 2.449 . S
O69 C65 1.282 . S
H70 C43 0.931 . S
H71 C45 0.929 . S
H72 C46 0.930 . S
H73 C47 0.931 . S
H74 C54 0.932 . S
H75 C55 0.930 . S
H76 C56 0.929 . S
H77 C58 0.930 . S
H78 C60 0.932 . S
H79 C61 0.929 . S
H80 C62 0.928 . S
H81 C64 0.932 . S
C82 C83 1.264 . S
C82 C87 1.479 . S
C82 C92 1.465 1_565 S
C83 C82 1.264 . S
C83 C85 1.339 . S
C83 H110 0.931 . S
C84 C85 1.395 . S
C84 C86 1.320 . S
C85 C83 1.339 . S
C85 C84 1.395 . S
C85 H111 0.929 . S
C86 C84 1.320 . S
C86 C87 1.405 . S
C86 H112 0.930 . S
C87 C82 1.479 . S
C87 C86 1.405 . S
C87 H113 0.931 . S
U88 O89 2.454 . S
U88 O90 2.458 . S
U88 C91 2.984 . S
U88 C92 2.847 1_455 S
U88 C105 2.882 . S
U88 O106 2.441 1_455 S
U88 O107 2.404 1_445 S
U88 O108 2.455 . S
U88 O109 2.449 . S
O89 U88 2.454 . S
O89 C91 1.353 . S
O90 U88 2.458 . S
O90 C91 1.286 . S
C91 U88 2.984 . S
C91 O89 1.353 . S
C91 O90 1.286 . S
C91 C93 1.363 . S
C92 C82 1.465 1_545 S
C92 U88 2.847 1_655 S
C92 O106 1.249 . S
C92 O107 1.199 1_545 S
C93 C91 1.363 . S
C93 C95 1.408 . S
C93 C98 1.342 . S
C94 C95 1.310 . S
C94 C97 1.461 . S
C94 H114 0.932 . S
C95 C93 1.408 . S
C95 C94 1.310 . S
C95 H115 0.930 . S
C96 C97 1.474 . S
C96 C98 1.285 . S
C96 H116 0.929 . S
C97 C94 1.461 . S
C97 C96 1.474 . S
C98 C93 1.342 . S
C98 C96 1.285 . S
C98 H117 0.930 . S
C99 C102 1.424 1_455 S
C99 C104 1.245 . S
C99 C105 1.428 . S
C100 C103 1.260 . S
C100 C104 1.477 . S
C100 H118 0.932 . S
C101 C102 1.384 . S
C101 C103 1.479 1_655 S
C101 H119 0.929 . S
C102 C99 1.424 1_655 S
C102 C101 1.384 . S
C102 H120 0.928 . S
C103 C100 1.260 . S
C103 C101 1.479 1_455 S
C104 C99 1.245 . S
C104 C100 1.477 . S
C104 H121 0.932 . S
C105 U88 2.882 . S
C105 C99 1.428 . S
C105 O108 1.301 . S
C105 O109 1.282 . S
O106 U88 2.441 1_655 S
O106 C92 1.249 . S
O107 U88 2.404 1_665 S
O107 C92 1.199 1_565 S
O108 U88 2.455 . S
O108 C105 1.301 . S
O109 U88 2.449 . S
O109 C105 1.282 . S
H110 C83 0.931 . S
H111 C85 0.929 . S
H112 C86 0.930 . S
H113 C87 0.931 . S
H114 C94 0.932 . S
H115 C95 0.930 . S
H116 C96 0.929 . S
H117 C98 0.930 . S
H118 C100 0.932 . S
H119 C101 0.929 . S
H120 C102 0.928 . S
H121 C104 0.932 . S
C122 C123 1.264 . S
C122 C127 1.479 . S
C122 C132 1.465 . S
C123 C122 1.264 . S
C123 C125 1.339 . S
C123 H150 0.931 . S
C124 C125 1.395 . S
C124 C126 1.328 . S
C125 C123 1.339 . S
C125 C124 1.395 . S
C125 H151 0.929 . S
C126 C124 1.328 . S
C126 C127 1.409 . S
C126 H152 0.918 1_556 S
C127 C122 1.479 . S
C127 C126 1.409 . S
C127 H153 0.931 . S
U128 O129 2.454 . S
U128 O130 2.458 . S
U128 C131 2.984 . S
U128 C132 2.847 . S
U128 C145 2.882 . S
U128 O146 2.441 . S
U128 O147 2.420 . S
U128 O148 2.455 . S
U128 O149 2.449 . S
O129 U128 2.454 . S
O129 C131 1.353 . S
O130 U128 2.458 . S
O130 C131 1.286 . S
C131 U128 2.984 . S
C131 O129 1.353 . S
C131 O130 1.286 . S
C131 C133 1.363 . S
C132 C122 1.465 . S
C132 U128 2.847 . S
C132 O146 1.249 . S
C132 O147 1.202 . S
C133 C131 1.363 . S
C133 C135 1.408 . S
C133 C138 1.342 . S
C134 C135 1.310 . S
C134 C137 1.461 . S
C134 H154 0.932 1_556 S
C135 C133 1.408 . S
C135 C134 1.310 . S
C135 H155 0.930 . S
C136 C137 1.474 . S
C136 C138 1.285 . S
C136 H156 0.929 . S
C137 C134 1.461 . S
C137 C136 1.474 . S
C138 C133 1.342 . S
C138 C136 1.285 . S
C138 H157 0.930 . S
C139 C142 1.424 . S
C139 C144 1.245 . S
C139 C145 1.428 . S
C140 C143 1.260 . S
C140 C144 1.477 . S
C140 H158 0.932 . S
C141 C142 1.384 . S
C141 C143 1.479 . S
C141 H159 0.929 . S
C142 C139 1.424 . S
C142 C141 1.384 . S
C142 H160 0.928 . S
C143 C140 1.260 . S
C143 C141 1.479 . S
C144 C139 1.245 . S
C144 C140 1.477 . S
C144 H161 0.932 . S
C145 U128 2.882 . S
C145 C139 1.428 . S
C145 O148 1.301 . S
C145 O149 1.282 . S
O146 U128 2.441 . S
O146 C132 1.249 . S
O147 U128 2.420 . S
O147 C132 1.202 . S
O148 U128 2.455 . S
O148 C145 1.301 . S
O149 U128 2.449 . S
O149 C145 1.282 . S
H150 C123 0.931 . S
H151 C125 0.929 . S
H152 C126 0.918 1_554 S
H153 C127 0.931 . S
H154 C134 0.932 1_554 S
H155 C135 0.930 . S
H156 C136 0.929 . S
H157 C138 0.930 . S
H158 C140 0.932 . S
H159 C141 0.929 . S
H160 C142 0.928 . S
H161 C144 0.932 . S
C162 C163 1.264 . S
C162 C167 1.479 . S
C162 C172 1.465 . S
C163 C162 1.264 . S
C163 C165 1.339 . S
C163 H190 0.931 . S
C164 C165 1.395 . S
C164 C166 1.320 . S
C165 C163 1.339 . S
C165 C164 1.395 . S
C165 H191 0.929 . S
C166 C164 1.320 . S
C166 C167 1.405 . S
C166 H192 0.930 1_554 S
C167 C162 1.479 . S
C167 C166 1.405 . S
C167 H193 0.931 . S
U168 O169 2.454 . S
U168 O170 2.458 . S
U168 C171 2.984 . S
U168 C172 2.847 . S
U168 C185 2.882 . S
U168 O186 2.441 . S
U168 O187 2.420 . S
U168 O188 2.455 . S
U168 O189 2.449 . S
O169 U168 2.454 . S
O169 C171 1.353 . S
O170 U168 2.458 . S
O170 C171 1.286 . S
C171 U168 2.984 . S
C171 O169 1.353 . S
C171 O170 1.286 . S
C171 C173 1.363 . S
C172 C162 1.465 . S
C172 U168 2.847 . S
C172 O186 1.249 . S
C172 O187 1.202 . S
C173 C171 1.363 . S
C173 C175 1.408 . S
C173 C178 1.342 . S
C174 C175 1.310 . S
C174 C177 1.461 . S
C174 H194 0.932 . S
C175 C173 1.408 . S
C175 C174 1.310 . S
C175 H195 0.930 . S
C176 C177 1.474 . S
C176 C178 1.285 . S
C176 H196 0.929 . S
C177 C174 1.461 . S
C177 C176 1.474 . S
C178 C173 1.342 . S
C178 C176 1.285 . S
C178 H197 0.930 . S
C179 C182 1.424 . S
C179 C184 1.245 . S
C179 C185 1.428 . S
C180 C183 1.260 . S
C180 C184 1.477 . S
C180 H198 0.932 . S
C181 C182 1.384 . S
C181 C183 1.479 . S
C181 H199 0.929 . S
C182 C179 1.424 . S
C182 C181 1.384 . S
C182 H200 0.928 . S
C183 C180 1.260 . S
C183 C181 1.479 . S
C184 C179 1.245 . S
C184 C180 1.477 . S
C184 H201 0.932 . S
C185 U168 2.882 . S
C185 C179 1.428 . S
C185 O188 1.301 . S
C185 O189 1.282 . S
O186 U168 2.441 . S
O186 C172 1.249 . S
O187 U168 2.420 . S
O187 C172 1.202 . S
O188 U168 2.455 . S
O188 C185 1.301 . S
O189 U168 2.449 . S
O189 C185 1.282 . S
H190 C163 0.931 . S
H191 C165 0.929 . S
H192 C166 0.930 1_556 S
H193 C167 0.931 . S
H194 C174 0.932 . S
H195 C175 0.930 . S
H196 C176 0.929 . S
H197 C178 0.930 . S
H198 C180 0.932 . S
H199 C181 0.929 . S
H200 C182 0.928 . S
H201 C184 0.932 . S
C202 C203 1.386 . S
C202 C204 1.383 . S
C202 H218 0.951 1_554 S
C203 C202 1.386 . S
C203 C207 1.383 . S
C204 C202 1.383 . S
C204 C205 1.402 . S
C204 H219 0.951 1_554 S
C205 C204 1.402 . S
C205 C206 1.375 . S
C205 C208 1.481 . S
C206 C205 1.375 . S
C206 C207 1.367 . S
C206 H220 0.951 . S
C207 C203 1.383 . S
C207 C206 1.367 . S
C207 H221 0.950 . S
C208 C205 1.481 . S
C208 C209 1.297 . S
C208 H222 0.950 . S
C209 C208 1.297 . S
C209 C210 1.479 . S
C209 H223 0.950 1_554 S
C210 C209 1.479 . S
C210 C211 1.375 . S
C210 C216 1.404 . S
C211 C210 1.375 . S
C211 C212 1.369 . S
C211 H224 0.950 1_554 S
C212 C211 1.369 . S
C212 C213 1.392 . S
C212 H225 0.951 . S
C213 C212 1.392 . S
C213 C215 1.384 . S
H214 C216 0.949 . S
C215 C213 1.384 . S
C215 C216 1.385 . S
C215 H217 0.950 . S
C216 C210 1.404 . S
C216 H214 0.949 . S
C216 C215 1.385 . S
H217 C215 0.950 . S
H218 C202 0.951 1_556 S
H219 C204 0.951 1_556 S
H220 C206 0.951 . S
H221 C207 0.950 . S
H222 C208 0.950 . S
H223 C209 0.950 1_556 S
H224 C211 0.950 1_556 S
H225 C212 0.951 . S
C226 C227 1.386 1_556 S
C226 C228 1.383 . S
C226 H242 0.951 . S
C227 C226 1.386 1_554 S
C227 C231 1.383 . S
C228 C226 1.383 . S
C228 C229 1.402 1_556 S
C228 H243 0.951 . S
C229 C228 1.402 1_554 S
C229 C230 1.375 . S
C229 C232 1.481 . S
C230 C229 1.375 . S
C230 C231 1.367 . S
C230 H244 0.951 . S
C231 C227 1.383 . S
C231 C230 1.367 . S
C231 H245 0.950 . S
C232 C229 1.481 . S
C232 C233 1.297 1_554 S
C232 H246 0.950 . S
C233 C232 1.297 1_556 S
C233 C234 1.479 . S
C233 H247 0.950 . S
C234 C233 1.479 . S
C234 C235 1.375 . S
C234 C240 1.404 1_556 S
C235 C234 1.375 . S
C235 C236 1.369 . S
C235 H248 0.950 . S
C236 C235 1.369 . S
C236 C237 1.392 . S
C236 H249 0.951 . S
C237 C236 1.392 . S
C237 C239 1.384 1_556 S
H238 C240 0.949 . S
C239 C237 1.384 1_554 S
C239 C240 1.385 . S
C239 H241 0.950 . S
C240 C234 1.404 1_554 S
C240 H238 0.949 . S
C240 C239 1.385 . S
H241 C239 0.950 . S
H242 C226 0.951 . S
H243 C228 0.951 . S
H244 C230 0.951 . S
H245 C231 0.950 . S
H246 C232 0.950 . S
H247 C233 0.950 . S
H248 C235 0.950 . S
H249 C236 0.951 . S
C250 C251 1.386 . S
C250 C252 1.383 . S
C250 H266 0.951 . S
C251 C250 1.386 . S
C251 C255 1.383 1_554 S
C252 C250 1.383 . S
C252 C253 1.402 . S
C252 H267 0.951 . S
C253 C252 1.402 . S
C253 C254 1.375 1_554 S
C253 C256 1.481 . S
C254 C253 1.375 1_556 S
C254 C255 1.367 . S
C254 H268 0.951 . S
C255 C251 1.383 1_556 S
C255 C254 1.367 . S
C255 H269 0.950 . S
C256 C253 1.481 . S
C256 C257 1.297 . S
C256 H270 0.950 1_554 S
C257 C256 1.297 . S
C257 C258 1.479 . S
C257 H271 0.950 . S
C258 C257 1.479 . S
C258 C259 1.375 . S
C258 C264 1.404 . S
C259 C258 1.375 . S
C259 C260 1.369 . S
C259 H272 0.950 . S
C260 C259 1.369 . S
C260 C261 1.392 . S
C260 H273 0.951 . S
C261 C260 1.392 . S
C261 C263 1.384 . S
H262 C264 0.949 1_556 S
C263 C261 1.384 . S
C263 C264 1.385 . S
C263 H265 0.950 1_554 S
C264 C258 1.404 . S
C264 H262 0.949 1_554 S
C264 C263 1.385 . S
H265 C263 0.950 1_556 S
H266 C250 0.951 . S
H267 C252 0.951 . S
H268 C254 0.951 . S
H269 C255 0.950 . S
H270 C256 0.950 1_556 S
H271 C257 0.950 . S
H272 C259 0.950 . S
H273 C260 0.951 . S
C274 C275 1.387 . S
C274 C276 1.383 . S
C274 H290 0.951 . S
C275 C274 1.387 . S
C275 C279 1.383 . S
C276 C274 1.383 . S
C276 C277 1.402 . S
C276 H291 0.951 . S
C277 C276 1.402 . S
C277 C278 1.375 . S
C277 C280 1.481 . S
C278 C277 1.375 . S
C278 C279 1.367 . S
C278 H292 0.951 . S
C279 C275 1.383 . S
C279 C278 1.367 . S
C279 H293 0.951 . S
C280 C277 1.481 . S
C280 C281 1.297 . S
C280 H294 0.950 . S
C281 C280 1.297 . S
C281 C282 1.479 . S
C281 H295 0.950 . S
C282 C281 1.479 . S
C282 C283 1.375 . S
C282 C288 1.404 . S
C283 C282 1.375 . S
C283 C284 1.369 . S
C283 H296 0.950 . S
C284 C283 1.369 . S
C284 C285 1.392 . S
C284 H297 0.951 . S
C285 C284 1.392 . S
C285 C287 1.384 . S
H286 C288 0.949 . S
C287 C285 1.384 . S
C287 C288 1.385 . S
C287 H289 0.950 . S
C288 C282 1.404 . S
C288 H286 0.949 . S
C288 C287 1.385 . S
H289 C287 0.950 . S
H290 C274 0.951 . S
H291 C276 0.951 . S
H292 C278 0.951 . S
H293 C279 0.951 . S
H294 C280 0.950 . S
H295 C281 0.950 . S
H296 C283 0.950 . S
H297 C284 0.951 . S
C298 C299 1.386 . S
C298 C300 1.383 . S
C298 H314 0.951 . S
C299 C298 1.386 . S
C299 C303 1.383 . S
C300 C298 1.383 . S
C300 C301 1.402 . S
C300 H315 0.951 . S
C301 C300 1.402 . S
C301 C302 1.375 . S
C301 C304 1.481 . S
C302 C301 1.375 . S
C302 C303 1.367 . S
C302 H316 0.951 . S
C303 C299 1.383 . S
C303 C302 1.367 . S
C303 H317 0.950 . S
C304 C301 1.481 . S
C304 C305 1.297 . S
C304 H318 0.950 . S
C305 C304 1.297 . S
C305 C306 1.479 . S
C305 H319 0.950 . S
C306 C305 1.479 . S
C306 C307 1.375 . S
C306 C312 1.404 . S
C307 C306 1.375 . S
C307 C308 1.369 . S
C307 H320 0.950 . S
C308 C307 1.369 . S
C308 C309 1.392 . S
C308 H321 0.951 . S
C309 C308 1.392 . S
C309 C311 1.384 . S
H310 C312 0.949 . S
C311 C309 1.384 . S
C311 C312 1.385 . S
C311 H313 0.950 . S
C312 C306 1.404 . S
C312 H310 0.949 . S
C312 C311 1.385 . S
H313 C311 0.950 . S
H314 C298 0.951 . S
H315 C300 0.951 . S
H316 C302 0.951 . S
H317 C303 0.950 . S
H318 C304 0.950 . S
H319 C305 0.950 . S
H320 C307 0.950 . S
H321 C308 0.951 . S
C322 C323 1.386 . S
C322 C324 1.383 . S
C322 H338 0.951 . S
C323 C322 1.386 . S
C323 C327 1.383 . S
C324 C322 1.383 . S
C324 C325 1.402 . S
C324 H339 0.951 . S
C325 C324 1.402 . S
C325 C326 1.375 . S
C325 C328 1.481 . S
C326 C325 1.375 . S
C326 C327 1.367 . S
C326 H340 0.951 . S
C327 C323 1.383 . S
C327 C326 1.367 . S
C327 H341 0.950 . S
C328 C325 1.481 . S
C328 C329 1.297 . S
C328 H342 0.950 . S
C329 C328 1.297 . S
C329 C330 1.479 . S
C329 H343 0.950 . S
C330 C329 1.479 . S
C330 C331 1.375 . S
C330 C336 1.404 . S
C331 C330 1.375 . S
C331 C332 1.369 . S
C331 H344 0.950 . S
C332 C331 1.369 . S
C332 C333 1.392 . S
C332 H345 0.951 . S
C333 C332 1.392 . S
C333 C335 1.384 . S
H334 C336 0.949 . S
C335 C333 1.384 . S
C335 C336 1.385 . S
C335 H337 0.950 . S
C336 C330 1.404 . S
C336 H334 0.949 . S
C336 C335 1.385 . S
H337 C335 0.950 . S
H338 C322 0.951 . S
H339 C324 0.951 . S
H340 C326 0.951 . S
H341 C327 0.950 . S
H342 C328 0.950 . S
H343 C329 0.950 . S
H344 C331 0.950 . S
H345 C332 0.951 . S
C346 C347 1.386 . S
C346 C348 1.383 . S
C346 H362 0.951 . S
C347 C346 1.386 . S
C347 C351 1.383 . S
C348 C346 1.383 . S
C348 C349 1.402 . S
C348 H363 0.951 . S
C349 C348 1.402 . S
C349 C350 1.375 . S
C349 C352 1.481 . S
C350 C349 1.375 . S
C350 C351 1.367 . S
C350 H364 0.951 . S
C351 C347 1.383 . S
C351 C350 1.367 . S
C351 H365 0.950 . S
C352 C349 1.481 . S
C352 C353 1.297 . S
C352 H366 0.950 . S
C353 C352 1.297 . S
C353 C354 1.479 . S
C353 H367 0.950 . S
C354 C353 1.479 . S
C354 C355 1.375 . S
C354 C360 1.404 . S
C355 C354 1.375 . S
C355 C356 1.369 . S
C355 H368 0.950 . S
C356 C355 1.369 . S
C356 C357 1.392 . S
C356 H369 0.951 . S
C357 C356 1.392 . S
C357 C359 1.384 . S
H358 C360 0.949 . S
C359 C357 1.384 . S
C359 C360 1.385 . S
C359 H361 0.950 . S
C360 C354 1.404 . S
C360 H358 0.949 . S
C360 C359 1.385 . S
H361 C359 0.950 . S
H362 C346 0.951 . S
H363 C348 0.951 . S
H364 C350 0.951 . S
H365 C351 0.950 . S
H366 C352 0.950 . S
H367 C353 0.950 . S
H368 C355 0.950 . S
H369 C356 0.951 . S
C370 C371 1.386 . S
C370 C372 1.383 . S
C370 H386 0.951 . S
C371 C370 1.386 . S
C371 C375 1.383 . S
C372 C370 1.383 . S
C372 C373 1.402 . S
C372 H387 0.951 . S
C373 C372 1.402 . S
C373 C374 1.375 . S
C373 C376 1.481 . S
C374 C373 1.375 . S
C374 C375 1.367 . S
C374 H388 0.951 . S
C375 C371 1.383 . S
C375 C374 1.367 . S
C375 H389 0.950 . S
C376 C373 1.481 . S
C376 C377 1.297 . S
C376 H390 0.950 . S
C377 C376 1.297 . S
C377 C378 1.479 . S
C377 H391 0.950 . S
C378 C377 1.479 . S
C378 C379 1.375 . S
C378 C384 1.404 . S
C379 C378 1.375 . S
C379 C380 1.369 . S
C379 H392 0.950 . S
C380 C379 1.369 . S
C380 C381 1.392 . S
C380 H393 0.951 . S
C381 C380 1.392 . S
C381 C383 1.384 . S
H382 C384 0.949 . S
C383 C381 1.384 . S
C383 C384 1.385 . S
C383 H385 0.950 . S
C384 C378 1.404 . S
C384 H382 0.949 . S
C384 C383 1.385 . S
H385 C383 0.950 . S
H386 C370 0.951 . S
H387 C372 0.951 . S
H388 C374 0.951 . S
H389 C375 0.950 . S
H390 C376 0.950 . S
H391 C377 0.950 . S
H392 C379 0.950 . S
H393 C380 0.951 . S
C394 C395 1.386 . S
C394 C396 1.383 . S
C394 H410 0.951 1_455 S
C395 C394 1.386 . S
C395 C399 1.383 1_545 S
C396 C394 1.383 . S
C396 C397 1.402 1_545 S
C396 H411 0.951 1_455 S
C397 C396 1.402 1_565 S
C397 C398 1.375 . S
C397 C400 1.481 . S
C398 C397 1.375 . S
C398 C399 1.367 . S
C398 H412 0.951 . S
C399 C395 1.383 1_565 S
C399 C398 1.367 . S
C399 H413 0.950 . S
C400 C397 1.481 . S
C400 C401 1.297 . S
C400 H414 0.950 . S
C401 C400 1.297 . S
C401 C402 1.479 . S
C401 H415 0.969 1_565 S
C402 C401 1.479 . S
C402 C403 1.375 1_565 S
C402 C408 1.404 . S
C403 C402 1.375 1_545 S
C403 C404 1.369 . S
C403 H416 0.950 1_455 S
C404 C403 1.369 . S
C404 C405 1.392 1_545 S
C404 H417 0.951 1_455 S
C405 C404 1.392 1_565 S
C405 C407 1.384 . S
H406 C408 0.949 . S
C407 C405 1.384 . S
C407 C408 1.385 . S
C407 H409 0.950 . S
C408 C402 1.404 . S
C408 H406 0.949 . S
C408 C407 1.385 . S
H409 C407 0.950 . S
H410 C394 0.951 1_655 S
H411 C396 0.951 1_655 S
H412 C398 0.951 . S
H413 C399 0.950 . S
H414 C400 0.950 . S
H415 C401 0.969 1_545 S
H416 C403 0.950 1_655 S
H417 C404 0.951 1_655 S
C418 C419 1.386 . S
C418 C420 1.383 . S
C418 H434 0.951 . S
C419 C418 1.386 . S
C419 C423 1.383 1_455 S
C420 C418 1.383 . S
C420 C421 1.402 . S
C420 H435 0.951 . S
C421 C420 1.402 . S
C421 C422 1.375 1_455 S
C421 C424 1.481 . S
C422 C421 1.375 1_655 S
C422 C423 1.367 . S
C422 H436 0.951 . S
C423 C419 1.383 1_655 S
C423 C422 1.367 . S
C423 H437 0.950 . S
C424 C421 1.481 . S
C424 C425 1.297 . S
C424 H438 0.950 1_455 S
C425 C424 1.297 . S
C425 C426 1.479 . S
C425 H439 0.950 . S
C426 C425 1.479 . S
C426 C427 1.375 . S
C426 C432 1.404 1_455 S
C427 C426 1.375 . S
C427 C428 1.369 . S
C427 H440 0.950 . S
C428 C427 1.369 . S
C428 C429 1.392 . S
C428 H441 0.951 . S
C429 C428 1.392 . S
C429 C431 1.384 1_455 S
H430 C432 0.949 . S
C431 C429 1.384 1_655 S
C431 C432 1.385 . S
C431 H433 0.950 . S
C432 C426 1.404 1_655 S
C432 H430 0.949 . S
C432 C431 1.385 . S
H433 C431 0.950 . S
H434 C418 0.951 . S
H435 C420 0.951 . S
H436 C422 0.951 . S
H437 C423 0.950 . S
H438 C424 0.950 1_655 S
H439 C425 0.950 . S
H440 C427 0.950 . S
H441 C428 0.951 . S
C442 C443 1.386 . S
C442 C444 1.383 . S
C442 H458 0.951 . S
C443 C442 1.386 . S
C443 C447 1.383 . S
C444 C442 1.383 . S
C444 C445 1.402 . S
C444 H459 0.951 . S
C445 C444 1.402 . S
C445 C446 1.375 . S
C445 C448 1.481 . S
C446 C445 1.375 . S
C446 C447 1.367 . S
C446 H460 0.951 . S
C447 C443 1.383 . S
C447 C446 1.367 . S
C447 H461 0.950 . S
C448 C445 1.481 . S
C448 C449 1.297 . S
C448 H462 0.950 . S
C449 C448 1.297 . S
C449 C450 1.479 . S
C449 H463 0.950 . S
C450 C449 1.479 . S
C450 C451 1.375 . S
C450 C456 1.404 . S
C451 C450 1.375 . S
C451 C452 1.369 . S
C451 H464 0.950 . S
C452 C451 1.369 . S
C452 C453 1.392 . S
C452 H465 0.951 . S
C453 C452 1.392 . S
C453 C455 1.384 . S
H454 C456 0.949 . S
C455 C453 1.384 . S
C455 C456 1.385 . S
C455 H457 0.950 . S
C456 C450 1.404 . S
C456 H454 0.949 . S
C456 C455 1.385 . S
H457 C455 0.950 . S
H458 C442 0.951 . S
H459 C444 0.951 . S
H460 C446 0.951 . S
H461 C447 0.950 . S
H462 C448 0.950 . S
H463 C449 0.950 . S
H464 C451 0.950 . S
H465 C452 0.951 . S
C466 C467 1.386 . S
C466 C468 1.383 . S
C466 H482 0.951 . S
C467 C466 1.386 . S
C467 C471 1.383 . S
C468 C466 1.383 . S
C468 C469 1.402 . S
C468 H483 0.951 . S
C469 C468 1.402 . S
C469 C470 1.375 . S
C469 C472 1.481 . S
C470 C469 1.375 . S
C470 C471 1.367 . S
C470 H484 0.951 . S
C471 C467 1.383 . S
C471 C470 1.367 . S
C471 H485 0.950 . S
C472 C469 1.481 . S
C472 C473 1.297 . S
C472 H486 0.950 . S
C473 C472 1.297 . S
C473 C474 1.479 . S
C473 H487 0.950 . S
C474 C473 1.479 . S
C474 C475 1.375 . S
C474 C480 1.404 . S
C475 C474 1.375 . S
C475 C476 1.369 . S
C475 H488 0.950 . S
C476 C475 1.369 . S
C476 C477 1.392 . S
C476 H489 0.951 . S
C477 C476 1.392 . S
C477 C479 1.384 . S
H478 C480 0.949 . S
C479 C477 1.384 . S
C479 C480 1.385 . S
C479 H481 0.950 . S
C480 C474 1.404 . S
C480 H478 0.949 . S
C480 C479 1.385 . S
H481 C479 0.950 . S
H482 C466 0.951 . S
H483 C468 0.951 . S
H484 C470 0.951 . S
H485 C471 0.950 . S
H486 C472 0.950 . S
H487 C473 0.950 . S
H488 C475 0.950 . S
H489 C476 0.951 . S
C213 C164 1.497 . S
C203 C15 1.391 . S
C227 C13 1.517 . S
C237 C124 1.480 . S
C251 C18 1.251 . S
C261 C177 1.504 . S
C275 C17 1.294 1_556 S
C285 C137 1.326 . S
C299 C36 1.319 . S
C309 C84 1.414 . S
C323 C34 1.517 . S
C333 C44 1.482 . S
C357 C97 1.473 . S
C347 C39 1.356 . S
C381 C57 1.378 . S
C371 C38 1.328 . S
C395 C14 1.521 . S
C405 C63 1.567 1_565 S
C419 C16 1.344 . S
C429 C103 1.353 . S
C453 C143 1.567 . S
C443 C35 1.511 . S
C467 C37 1.362 . S
C477 C183 1.347 . S
