# Generated by pormake.
# Topology ocu, (6,8)-cn, num edge types: 1
# Building blocks:
#     Node 0, Type 0, BuildingBlock: KUMBUR_clean_sbu_0, # of connection points: 6
#     Node 1, Type 0, BuildingBlock: KUMBUR_clean_sbu_0, # of connection points: 6
#     Node 2, Type 0, BuildingBlock: KUMBUR_clean_sbu_0, # of connection points: 6
#     Node 3, Type 0, BuildingBlock: KUMBUR_clean_sbu_0, # of connection points: 6
#     Node 4, Type 0, BuildingBlock: KUMBUR_clean_sbu_0, # of connection points: 6
#     Node 5, Type 0, BuildingBlock: KUMBUR_clean_sbu_0, # of connection points: 6
#     Node 6, Type 0, BuildingBlock: KUMBUR_clean_sbu_0, # of connection points: 6
#     Node 7, Type 0, BuildingBlock: KUMBUR_clean_sbu_0, # of connection points: 6
#     Node 8, Type 1, BuildingBlock: TAGTUT_clean_sbu_1, # of connection points: 8
#     Node 9, Type 1, BuildingBlock: TAGTUT_clean_sbu_1, # of connection points: 8
#     Node 10, Type 1, BuildingBlock: TAGTUT_clean_sbu_1, # of connection points: 8
#     Node 11, Type 1, BuildingBlock: TAGTUT_clean_sbu_1, # of connection points: 8
#     Node 12, Type 1, BuildingBlock: TAGTUT_clean_sbu_1, # of connection points: 8
#     Node 13, Type 1, BuildingBlock: TAGTUT_clean_sbu_1, # of connection points: 8
#     Edge 14, Type (0, 1), BuildingBlock: MIFKUJ_clean_linker_0, # of connection points: 2
#     Edge 15, Type (0, 1), BuildingBlock: MIFKUJ_clean_linker_0, # of connection points: 2
#     Edge 16, Type (0, 1), BuildingBlock: MIFKUJ_clean_linker_0, # of connection points: 2
#     Edge 17, Type (0, 1), BuildingBlock: MIFKUJ_clean_linker_0, # of connection points: 2
#     Edge 18, Type (0, 1), BuildingBlock: MIFKUJ_clean_linker_0, # of connection points: 2
#     Edge 19, Type (0, 1), BuildingBlock: MIFKUJ_clean_linker_0, # of connection points: 2
#     Edge 20, Type (0, 1), BuildingBlock: MIFKUJ_clean_linker_0, # of connection points: 2
#     Edge 21, Type (0, 1), BuildingBlock: MIFKUJ_clean_linker_0, # of connection points: 2
#     Edge 22, Type (0, 1), BuildingBlock: MIFKUJ_clean_linker_0, # of connection points: 2
#     Edge 23, Type (0, 1), BuildingBlock: MIFKUJ_clean_linker_0, # of connection points: 2
#     Edge 24, Type (0, 1), BuildingBlock: MIFKUJ_clean_linker_0, # of connection points: 2
#     Edge 25, Type (0, 1), BuildingBlock: MIFKUJ_clean_linker_0, # of connection points: 2
#     Edge 26, Type (0, 1), BuildingBlock: MIFKUJ_clean_linker_0, # of connection points: 2
#     Edge 27, Type (0, 1), BuildingBlock: MIFKUJ_clean_linker_0, # of connection points: 2
#     Edge 28, Type (0, 1), BuildingBlock: MIFKUJ_clean_linker_0, # of connection points: 2
#     Edge 29, Type (0, 1), BuildingBlock: MIFKUJ_clean_linker_0, # of connection points: 2
#     Edge 30, Type (0, 1), BuildingBlock: MIFKUJ_clean_linker_0, # of connection points: 2
#     Edge 31, Type (0, 1), BuildingBlock: MIFKUJ_clean_linker_0, # of connection points: 2
#     Edge 32, Type (0, 1), BuildingBlock: MIFKUJ_clean_linker_0, # of connection points: 2
#     Edge 33, Type (0, 1), BuildingBlock: MIFKUJ_clean_linker_0, # of connection points: 2
#     Edge 34, Type (0, 1), BuildingBlock: MIFKUJ_clean_linker_0, # of connection points: 2
#     Edge 35, Type (0, 1), BuildingBlock: MIFKUJ_clean_linker_0, # of connection points: 2
#     Edge 36, Type (0, 1), BuildingBlock: MIFKUJ_clean_linker_0, # of connection points: 2
#     Edge 37, Type (0, 1), BuildingBlock: MIFKUJ_clean_linker_0, # of connection points: 2
#     Edge 38, Type (0, 1), BuildingBlock: MIFKUJ_clean_linker_0, # of connection points: 2
#     Edge 39, Type (0, 1), BuildingBlock: MIFKUJ_clean_linker_0, # of connection points: 2
#     Edge 40, Type (0, 1), BuildingBlock: MIFKUJ_clean_linker_0, # of connection points: 2
#     Edge 41, Type (0, 1), BuildingBlock: MIFKUJ_clean_linker_0, # of connection points: 2
#     Edge 42, Type (0, 1), BuildingBlock: MIFKUJ_clean_linker_0, # of connection points: 2
#     Edge 43, Type (0, 1), BuildingBlock: MIFKUJ_clean_linker_0, # of connection points: 2
#     Edge 44, Type (0, 1), BuildingBlock: MIFKUJ_clean_linker_0, # of connection points: 2
#     Edge 45, Type (0, 1), BuildingBlock: MIFKUJ_clean_linker_0, # of connection points: 2
#     Edge 46, Type (0, 1), BuildingBlock: MIFKUJ_clean_linker_0, # of connection points: 2
#     Edge 47, Type (0, 1), BuildingBlock: MIFKUJ_clean_linker_0, # of connection points: 2
#     Edge 48, Type (0, 1), BuildingBlock: MIFKUJ_clean_linker_0, # of connection points: 2
#     Edge 49, Type (0, 1), BuildingBlock: MIFKUJ_clean_linker_0, # of connection points: 2
#     Edge 50, Type (0, 1), BuildingBlock: MIFKUJ_clean_linker_0, # of connection points: 2
#     Edge 51, Type (0, 1), BuildingBlock: MIFKUJ_clean_linker_0, # of connection points: 2
#     Edge 52, Type (0, 1), BuildingBlock: MIFKUJ_clean_linker_0, # of connection points: 2
#     Edge 53, Type (0, 1), BuildingBlock: MIFKUJ_clean_linker_0, # of connection points: 2
#     Edge 54, Type (0, 1), BuildingBlock: MIFKUJ_clean_linker_0, # of connection points: 2
#     Edge 55, Type (0, 1), BuildingBlock: MIFKUJ_clean_linker_0, # of connection points: 2
#     Edge 56, Type (0, 1), BuildingBlock: MIFKUJ_clean_linker_0, # of connection points: 2
#     Edge 57, Type (0, 1), BuildingBlock: MIFKUJ_clean_linker_0, # of connection points: 2
#     Edge 58, Type (0, 1), BuildingBlock: MIFKUJ_clean_linker_0, # of connection points: 2
#     Edge 59, Type (0, 1), BuildingBlock: MIFKUJ_clean_linker_0, # of connection points: 2
#     Edge 60, Type (0, 1), BuildingBlock: MIFKUJ_clean_linker_0, # of connection points: 2
#     Edge 61, Type (0, 1), BuildingBlock: MIFKUJ_clean_linker_0, # of connection points: 2
# Relax obj value: 0.093
# Max RMSD: 0.267
# Mean RMSD: 0.152
data_MOF--net-ocu--node1-KUMBUR_clean_sbu_0--node2-TAGTUT_clean_sbu_1--edge1-MIFKUJ_clean_linker_0
_symmetry_space_group_name_H-M    P1
_symmetry_Int_Tables_number       1
_symmetry_cell_setting            triclinic
loop_
_symmetry_equiv_pos_as_xyz
'x, y, z'
_cell_length_a     50.092166
_cell_length_b     47.487706
_cell_length_c     53.795473
_cell_angle_alpha  81.816973
_cell_angle_beta   100.31654
_cell_angle_gamma 112.17325
loop_
_atom_site_label
_atom_site_type_symbol
_atom_site_fract_x
_atom_site_fract_y
_atom_site_fract_z
_atom_type_partial_charge
Tb0 Tb 0.25568 0.22512 0.22794 0.0
C1 C 0.35349 0.31323 0.29692 0.0
C2 C 0.3649 0.2824 0.33399 0.0
C3 C 0.40235 0.32934 0.32024 0.0
C4 C 0.3451 0.28739 0.31325 0.0
C5 C 0.38207 0.33484 0.30039 0.0
C6 C 0.39376 0.30315 0.33705 0.0
C7 C 0.36776 0.36659 0.26556 0.0
N8 N 0.3331 0.31777 0.27823 0.0
C9 C 0.33965 0.34453 0.263 0.0
C10 C 0.38916 0.36161 0.28419 0.0
Tb11 Tb 0.28778 0.27978 0.2749 0.0
N12 N 0.31696 0.26819 0.30974 0.0
C13 C 0.3067 0.24469 0.32762 0.0
C14 C 0.35483 0.25731 0.35146 0.0
C15 C 0.32548 0.23865 0.34845 0.0
H16 H 0.32358 0.34872 0.24829 0.0
H17 H 0.31731 0.21948 0.36209 0.0
H18 H 0.40938 0.29955 0.3527 0.0
H19 H 0.37291 0.38736 0.25308 0.0
H20 H 0.28421 0.2298 0.32568 0.0
H21 H 0.22977 0.28807 0.14093 0.0
H22 H 0.36933 0.25261 0.36762 0.0
H23 H 0.21832 0.15585 0.2522 0.0
H24 H 0.26175 0.27567 0.17738 0.0
H25 H 0.16809 0.11861 0.24672 0.0
H26 H 0.42449 0.34553 0.32313 0.0
H27 H 0.17709 0.25733 0.13514 0.0
H28 H 0.13553 0.21168 0.14962 0.0
H29 H 0.41089 0.37876 0.28617 0.0
H30 H 0.11867 0.16528 0.17849 0.0
N31 N 0.22769 0.2385 0.19302 0.0
C32 C 0.23893 0.26181 0.17528 0.0
C33 C 0.19108 0.25172 0.15129 0.0
C34 C 0.17998 0.22672 0.16857 0.0
C35 C 0.2208 0.26903 0.15445 0.0
C36 C 0.19916 0.22054 0.18932 0.0
H37 H 0.13082 0.13002 0.21448 0.0
N38 N 0.20964 0.18864 0.22377 0.0
C39 C 0.17386 0.13996 0.235 0.0
C40 C 0.18975 0.19457 0.20533 0.0
C41 C 0.20238 0.16114 0.23798 0.0
C42 C 0.15285 0.14653 0.21685 0.0
C43 C 0.1608 0.17389 0.20141 0.0
O44 O 0.2636 0.18642 0.22137 0.0
O45 O 0.28815 0.23905 0.26124 0.0
O46 O 0.32156 0.28435 0.25234 0.0
O47 O 0.29146 0.26601 0.21549 0.0
O48 O 0.26795 0.19365 0.25798 0.0
O49 O 0.27559 0.22704 0.19607 0.0
O50 O 0.2802 0.31801 0.28327 0.0
O51 O 0.25553 0.26609 0.24135 0.0
O52 O 0.22245 0.219 0.252 0.0
O53 O 0.25377 0.23817 0.28803 0.0
O54 O 0.27554 0.3113 0.2449 0.0
O55 O 0.26549 0.27529 0.30568 0.0
C56 C 0.28773 0.21316 0.27197 0.0
C57 C 0.26384 0.18023 0.17861 0.0
C58 C 0.27315 0.15175 0.14863 0.0
C59 C 0.2829 0.1699 0.16944 0.0
C60 C 0.24406 0.14441 0.13712 0.0
C61 C 0.23499 0.17246 0.16683 0.0
C62 C 0.22521 0.15469 0.14619 0.0
C63 C 0.31718 0.2818 0.22765 0.0
C64 C 0.27435 0.19896 0.20047 0.0
C65 C 0.1411 0.18071 0.18168 0.0
C66 C 0.15069 0.20713 0.16526 0.0
C67 C 0.25614 0.29201 0.23056 0.0
C68 C 0.2764 0.31949 0.32633 0.0
C69 C 0.25565 0.32553 0.33709 0.0
C70 C 0.26343 0.33911 0.36027 0.0
C71 C 0.29227 0.34664 0.3724 0.0
C72 C 0.30506 0.32752 0.33866 0.0
C73 C 0.3129 0.34098 0.36158 0.0
C74 C 0.22778 0.22206 0.27668 0.0
C75 C 0.26751 0.30361 0.30292 0.0
H76 H 0.30514 0.17567 0.17873 0.0
H77 H 0.23592 0.13102 0.12084 0.0
H78 H 0.22003 0.1801 0.17354 0.0
H79 H 0.20292 0.14892 0.13713 0.0
H80 H 0.23341 0.31916 0.32768 0.0
H81 H 0.29898 0.35737 0.39011 0.0
H82 H 0.32132 0.32327 0.33067 0.0
H83 H 0.33506 0.34705 0.37102 0.0
Tb84 Tb 0.79674 0.21854 0.25306 0.0
C85 C 0.68771 0.24387 0.24493 0.0
C86 C 0.66903 0.25264 0.20092 0.0
C87 C 0.63547 0.22731 0.23166 0.0
C88 C 0.6926 0.25515 0.22032 0.0
C89 C 0.6591 0.23132 0.25109 0.0
C90 C 0.64043 0.23775 0.20657 0.0
C91 C 0.67949 0.23275 0.2953 0.0
N92 N 0.71107 0.24829 0.26322 0.0
C93 C 0.70743 0.24508 0.28817 0.0
C94 C 0.65519 0.22495 0.27668 0.0
Tb95 Tb 0.7555 0.26823 0.24939 0.0
N96 N 0.72055 0.27033 0.21579 0.0
C97 C 0.7262 0.28591 0.19266 0.0
C98 C 0.67486 0.26641 0.17671 0.0
C99 C 0.70352 0.28363 0.17272 0.0
H100 H 0.72598 0.25165 0.30267 0.0
H101 H 0.70816 0.29509 0.15425 0.0
H102 H 0.62201 0.23546 0.19189 0.0
H103 H 0.67672 0.22924 0.31515 0.0
H104 H 0.74819 0.29885 0.18901 0.0
H105 H 0.81854 0.17292 0.35008 0.0
H106 H 0.65734 0.26495 0.16128 0.0
H107 H 0.84044 0.24972 0.20928 0.0
H108 H 0.78793 0.18347 0.31212 0.0
H109 H 0.89317 0.2692 0.20673 0.0
H110 H 0.61331 0.21728 0.23596 0.0
H111 H 0.8719 0.19156 0.35135 0.0
H112 H 0.91559 0.21952 0.32911 0.0
H113 H 0.63359 0.21541 0.28225 0.0
H114 H 0.936 0.24673 0.29038 0.0
N115 N 0.82318 0.20799 0.29074 0.0
C116 C 0.81099 0.19156 0.31166 0.0
C117 C 0.85851 0.19633 0.33433 0.0
C118 C 0.87096 0.21286 0.31301 0.0
C119 C 0.82841 0.18567 0.33363 0.0
C120 C 0.85256 0.21842 0.2913 0.0
H121 H 0.92783 0.26556 0.24471 0.0
N122 N 0.84539 0.23796 0.24902 0.0
C123 C 0.88529 0.25982 0.22464 0.0
C124 C 0.86402 0.23411 0.26973 0.0
C125 C 0.85551 0.2494 0.22632 0.0
C126 C 0.90481 0.25767 0.24614 0.0
C127 C 0.89423 0.24408 0.26895 0.0
O128 O 0.77106 0.17315 0.24544 0.0
O129 O 0.75813 0.22435 0.26011 0.0
O130 O 0.77034 0.25419 0.28835 0.0
O131 O 0.81327 0.24779 0.28466 0.0
O132 O 0.76149 0.1836 0.27232 0.0
O133 O 0.81057 0.1962 0.2295 0.0
O134 O 0.78565 0.30631 0.26781 0.0
O135 O 0.79397 0.26338 0.24106 0.0
O136 O 0.78243 0.23138 0.21377 0.0
O137 O 0.7402 0.2393 0.21727 0.0
O138 O 0.78507 0.30084 0.22426 0.0
O139 O 0.74073 0.3011 0.25818 0.0
C140 C 0.74446 0.19855 0.27052 0.0
C141 C 0.79796 0.14364 0.24247 0.0
C142 C 0.82747 0.12097 0.27332 0.0
C143 C 0.82272 0.14675 0.26037 0.0
C144 C 0.8081 0.09179 0.26716 0.0
C145 C 0.77869 0.1144 0.23651 0.0
C146 C 0.78405 0.08859 0.24852 0.0
C147 C 0.79718 0.25554 0.29751 0.0
C148 C 0.78971 0.17022 0.23319 0.0
C149 C 0.91275 0.23915 0.29062 0.0
C150 C 0.90113 0.2236 0.31263 0.0
C151 C 0.80408 0.28805 0.22717 0.0
C152 C 0.77554 0.35145 0.25586 0.0
C153 C 0.75467 0.36297 0.24227 0.0
C154 C 0.76305 0.39302 0.23118 0.0
C155 C 0.79254 0.41192 0.23405 0.0
C156 C 0.80495 0.37086 0.25908 0.0
C157 C 0.81333 0.40092 0.2482 0.0
C158 C 0.75604 0.23115 0.20443 0.0
C159 C 0.76675 0.31929 0.26636 0.0
H160 H 0.83741 0.16914 0.26533 0.0
H161 H 0.8114 0.07155 0.27697 0.0
H162 H 0.75899 0.11149 0.22329 0.0
H163 H 0.769 0.06606 0.24401 0.0
H164 H 0.73189 0.34833 0.23956 0.0
H165 H 0.79939 0.43512 0.2254 0.0
H166 H 0.82148 0.36272 0.26975 0.0
H167 H 0.83604 0.41562 0.25054 0.0
Tb168 Tb 0.75252 0.73764 0.28065 0.0
C169 C 0.82602 0.83627 0.20932 0.0
C170 C 0.79339 0.84036 0.1712 0.0
C171 C 0.83579 0.88466 0.18374 0.0
C172 C 0.80105 0.82325 0.19303 0.0
C173 C 0.84399 0.86699 0.20475 0.0
C174 C 0.81054 0.87132 0.16694 0.0
C175 C 0.87785 0.85968 0.2408 0.0
N176 N 0.83337 0.81821 0.22908 0.0
C177 C 0.85944 0.82921 0.24437 0.0
C178 C 0.86999 0.87875 0.22105 0.0
Tb179 Tb 0.80123 0.76885 0.23382 0.0
N180 N 0.7853 0.79323 0.19773 0.0
C181 C 0.76261 0.7784 0.1803 0.0
C182 C 0.76937 0.82554 0.15391 0.0
C183 C 0.75419 0.79432 0.15836 0.0
H184 H 0.86574 0.81482 0.2598 0.0
H185 H 0.73602 0.78233 0.14495 0.0
H186 H 0.80487 0.88494 0.15041 0.0
H187 H 0.89812 0.86842 0.25329 0.0
H188 H 0.75043 0.75433 0.18333 0.0
H189 H 0.82299 0.72637 0.36744 0.0
H190 H 0.76288 0.83778 0.13681 0.0
H191 H 0.68576 0.6919 0.26011 0.0
H192 H 0.80537 0.75383 0.33013 0.0
H193 H 0.65397 0.63832 0.26818 0.0
H194 H 0.84918 0.90838 0.17997 0.0
H195 H 0.7976 0.67086 0.37613 0.0
H196 H 0.75509 0.62322 0.36448 0.0
H197 H 0.88438 0.90228 0.21824 0.0
H198 H 0.70881 0.59912 0.33737 0.0
N199 N 0.77036 0.71433 0.31674 0.0
C200 C 0.79375 0.7297 0.33343 0.0
C201 C 0.78965 0.68284 0.35959 0.0
C202 C 0.76464 0.66758 0.34343 0.0
C203 C 0.80397 0.71416 0.35478 0.0
C204 C 0.75536 0.68427 0.32209 0.0
H205 H 0.67062 0.60472 0.3016 0.0
N206 N 0.72075 0.68856 0.28793 0.0
C207 C 0.67527 0.64711 0.27918 0.0
C208 C 0.72955 0.67082 0.30706 0.0
C209 C 0.69339 0.67752 0.27467 0.0
C210 C 0.68477 0.62819 0.298 0.0
C211 C 0.712 0.64015 0.31258 0.0
O212 O 0.71471 0.74357 0.28716 0.0
O213 O 0.76179 0.76771 0.24606 0.0
O214 O 0.80307 0.80656 0.2539 0.0
O215 O 0.79049 0.77836 0.29157 0.0
O216 O 0.71944 0.74397 0.24953 0.0
O217 O 0.75563 0.76389 0.31014 0.0
O218 O 0.8395 0.76388 0.22751 0.0
O219 O 0.79113 0.73757 0.26766 0.0
O220 O 0.74647 0.69998 0.25847 0.0
O221 O 0.76439 0.72811 0.22182 0.0
O222 O 0.83364 0.76168 0.26524 0.0
O223 O 0.79907 0.74427 0.20343 0.0
C224 C 0.73614 0.76379 0.23478 0.0
C225 C 0.71355 0.75126 0.32943 0.0
C226 C 0.69235 0.7658 0.36083 0.0
C227 C 0.70468 0.77252 0.33811 0.0
C228 C 0.68878 0.73741 0.37455 0.0
C229 C 0.70957 0.72301 0.34333 0.0
C230 C 0.6972 0.71615 0.36575 0.0
C231 C 0.80204 0.80475 0.27844 0.0
C232 C 0.72804 0.75944 0.30651 0.0
C233 C 0.72181 0.62282 0.33295 0.0
C234 C 0.74814 0.63654 0.34837 0.0
C235 C 0.81653 0.74093 0.27913 0.0
C236 C 0.84204 0.75842 0.18503 0.0
C237 C 0.85017 0.73748 0.17497 0.0
C238 C 0.86496 0.74632 0.15351 0.0
C239 C 0.87089 0.77623 0.14207 0.0
C240 C 0.84849 0.78811 0.17339 0.0
C241 C 0.8627 0.79689 0.15198 0.0
C242 C 0.74987 0.70235 0.23435 0.0
C243 C 0.82675 0.74892 0.20751 0.0
H244 H 0.70798 0.79449 0.32751 0.0
H245 H 0.67922 0.73156 0.392 0.0
H246 H 0.71618 0.70638 0.337 0.0
H247 H 0.69425 0.69431 0.37641 0.0
H248 H 0.84537 0.71456 0.18407 0.0
H249 H 0.88163 0.78363 0.12525 0.0
H250 H 0.84261 0.80453 0.18082 0.0
H251 H 0.86742 0.81983 0.14302 0.0
Tb252 Tb 0.29034 0.7356 0.27057 0.0
C253 C 0.23781 0.80987 0.18718 0.0
C254 C 0.27605 0.85933 0.18307 0.0
C255 C 0.24025 0.84007 0.14661 0.0
C256 C 0.26227 0.83224 0.19771 0.0
C257 C 0.22612 0.81364 0.16163 0.0
C258 C 0.26521 0.86289 0.15732 0.0
C259 C 0.18645 0.76592 0.16824 0.0
N260 N 0.22487 0.78479 0.20236 0.0
C261 C 0.19886 0.76334 0.19352 0.0
C262 C 0.2003 0.79103 0.15213 0.0
Tb263 Tb 0.2474 0.78192 0.24319 0.0
N264 N 0.27196 0.82784 0.2226 0.0
C265 C 0.29427 0.85083 0.23452 0.0
C266 C 0.2999 0.8822 0.19487 0.0
C267 C 0.30879 0.87807 0.22079 0.0
H268 H 0.18804 0.74373 0.20572 0.0
H269 H 0.32691 0.89583 0.23023 0.0
H270 H 0.27563 0.88342 0.14569 0.0
H271 H 0.16624 0.74853 0.1612 0.0
H272 H 0.3016 0.84807 0.2545 0.0
H273 H 0.21398 0.62059 0.28449 0.0
H274 H 0.31118 0.90332 0.18428 0.0
H275 H 0.35052 0.77509 0.30683 0.0
H276 H 0.23579 0.66941 0.26069 0.0
H277 H 0.37515 0.76978 0.35007 0.0
H278 H 0.23177 0.84332 0.12687 0.0
H279 H 0.23323 0.61194 0.32951 0.0
H280 H 0.27046 0.63183 0.3671 0.0
H281 H 0.19061 0.79303 0.13258 0.0
H282 H 0.31445 0.67254 0.38496 0.0
N283 N 0.26751 0.6894 0.29159 0.0
C284 C 0.24475 0.66639 0.28018 0.0
C285 C 0.24298 0.63371 0.31908 0.0
C286 C 0.2669 0.65686 0.33044 0.0
C287 C 0.23207 0.63844 0.29374 0.0
C288 C 0.27898 0.68461 0.31589 0.0
H289 H 0.35385 0.72395 0.37865 0.0
N290 N 0.31499 0.73283 0.31062 0.0
C291 C 0.35497 0.75201 0.34351 0.0
C292 C 0.3036 0.70722 0.32582 0.0
C293 C 0.34089 0.75486 0.31889 0.0
C294 C 0.34286 0.72616 0.35961 0.0
C295 C 0.31702 0.70316 0.35074 0.0
O296 O 0.33092 0.73889 0.2622 0.0
O297 O 0.28707 0.7738 0.245 0.0
O298 O 0.25076 0.75768 0.21285 0.0
O299 O 0.25865 0.71653 0.23769 0.0
O300 O 0.32687 0.77858 0.2643 0.0
O301 O 0.29174 0.70169 0.25015 0.0
O302 O 0.20633 0.77924 0.24975 0.0
O303 O 0.25056 0.74383 0.26909 0.0
O304 O 0.2867 0.75883 0.30135 0.0
O305 O 0.27756 0.8 0.27733 0.0
O306 O 0.21061 0.73943 0.24992 0.0
O307 O 0.24513 0.81688 0.26177 0.0
C308 C 0.31313 0.79199 0.24743 0.0
C309 C 0.3358 0.693 0.25564 0.0
C310 C 0.35928 0.66436 0.23905 0.0
C311 C 0.34295 0.68343 0.23504 0.0
C312 C 0.36811 0.65473 0.26405 0.0
C313 C 0.34451 0.68298 0.28044 0.0
C314 C 0.36059 0.66387 0.28457 0.0
C315 C 0.25165 0.72987 0.21547 0.0
C316 C 0.31981 0.71394 0.25054 0.0
C317 C 0.30458 0.67605 0.36571 0.0
C318 C 0.27955 0.6529 0.35556 0.0
C319 C 0.22428 0.72602 0.2669 0.0
C320 C 0.20111 0.82594 0.25305 0.0
C321 C 0.19327 0.83742 0.27215 0.0
C322 C 0.17653 0.85607 0.26589 0.0
C323 C 0.16812 0.86352 0.24021 0.0
C324 C 0.19286 0.83387 0.22751 0.0
C325 C 0.17648 0.85268 0.22118 0.0
C326 C 0.28496 0.78627 0.29928 0.0
C327 C 0.21694 0.80492 0.26039 0.0
H328 H 0.33635 0.69142 0.21588 0.0
H329 H 0.3806 0.63992 0.2677 0.0
H330 H 0.33909 0.69009 0.29651 0.0
H331 H 0.36737 0.65622 0.30374 0.0
H332 H 0.19949 0.83112 0.2919 0.0
H333 H 0.15524 0.87788 0.23491 0.0
H334 H 0.19877 0.8253 0.21255 0.0
H335 H 0.17003 0.85864 0.20145 0.0
Tb336 Tb 0.28211 0.733 0.74789 0.0
C337 C 0.22773 0.80848 0.78482 0.0
C338 C 0.17813 0.77381 0.7868 0.0
C339 C 0.20081 0.81287 0.81657 0.0
C340 C 0.20416 0.78372 0.77605 0.0
C341 C 0.22608 0.82383 0.80478 0.0
C342 C 0.17684 0.78791 0.80757 0.0
C343 C 0.2732 0.86147 0.79816 0.0
N344 N 0.25179 0.81843 0.77292 0.0
C345 C 0.27367 0.8457 0.77828 0.0
C346 C 0.24954 0.8502 0.81178 0.0
Tb347 Tb 0.25044 0.78937 0.74166 0.0
N348 N 0.2061 0.77066 0.75589 0.0
C349 C 0.18191 0.74935 0.74417 0.0
C350 C 0.15387 0.75073 0.77581 0.0
C351 C 0.15558 0.73881 0.75414 0.0
H352 H 0.29198 0.85502 0.76781 0.0
H353 H 0.13667 0.72141 0.74518 0.0
H354 H 0.15713 0.78026 0.8163 0.0
H355 H 0.29102 0.88241 0.80289 0.0
H356 H 0.18274 0.73973 0.72749 0.0
H357 H 0.39343 0.8051 0.78528 0.0
H358 H 0.13356 0.74274 0.78349 0.0
H359 H 0.25986 0.69271 0.69738 0.0
H360 H 0.34137 0.79053 0.778 0.0
H361 H 0.28119 0.67421 0.66864 0.0
H362 H 0.19927 0.8241 0.83215 0.0
H363 H 0.41774 0.78229 0.76249 0.0
H364 H 0.41389 0.74905 0.72919 0.0
H365 H 0.24918 0.86257 0.82708 0.0
H366 H 0.38363 0.71491 0.69646 0.0
N367 N 0.33317 0.75433 0.75436 0.0
C368 C 0.35023 0.77755 0.76945 0.0
C369 C 0.39419 0.77444 0.75998 0.0
C370 C 0.37736 0.75318 0.74266 0.0
C371 C 0.38055 0.78718 0.77297 0.0
C372 C 0.34665 0.7437 0.74003 0.0
H373 H 0.33445 0.68775 0.67333 0.0
N374 N 0.30064 0.71794 0.71815 0.0
C375 C 0.29519 0.68854 0.6833 0.0
C376 C 0.32981 0.72499 0.72129 0.0
C377 C 0.28322 0.69931 0.69971 0.0
C378 C 0.32519 0.69615 0.68606 0.0
C379 C 0.34291 0.71451 0.7052 0.0
O380 O 0.24775 0.69154 0.7395 0.0
O381 O 0.24247 0.74119 0.75027 0.0
O382 O 0.27327 0.78888 0.78053 0.0
O383 O 0.29763 0.75404 0.78436 0.0
O384 O 0.2597 0.71868 0.78114 0.0
O385 O 0.28879 0.69214 0.76104 0.0
O386 O 0.26083 0.82003 0.70921 0.0
O387 O 0.28451 0.77735 0.7322 0.0
O388 O 0.26792 0.74574 0.70839 0.0
O389 O 0.22834 0.75665 0.71277 0.0
O390 O 0.2961 0.82058 0.74193 0.0
O391 O 0.2221 0.81209 0.72482 0.0
C392 C 0.23822 0.72748 0.7722 0.0
C393 C 0.24561 0.65344 0.77337 0.0
C394 C 0.24345 0.63304 0.81759 0.0
C395 C 0.25837 0.65347 0.79877 0.0
C396 C 0.21519 0.6124 0.8109 0.0
C397 C 0.2172 0.63283 0.76697 0.0
C398 C 0.20202 0.6126 0.78568 0.0
C399 C 0.29095 0.77516 0.79324 0.0
C400 C 0.26161 0.67546 0.75384 0.0
C401 C 0.37323 0.72285 0.70853 0.0
C402 C 0.39043 0.74216 0.72723 0.0
C403 C 0.3059 0.80203 0.73473 0.0
C404 C 0.22003 0.82104 0.68028 0.0
C405 C 0.19074 0.8014 0.67615 0.0
C406 C 0.1742 0.80119 0.65199 0.0
C407 C 0.18853 0.81932 0.63166 0.0
C408 C 0.23347 0.83897 0.65981 0.0
C409 C 0.21796 0.83757 0.63555 0.0
C410 C 0.24262 0.74802 0.69889 0.0
C411 C 0.23651 0.82451 0.7059 0.0
H412 H 0.28038 0.66903 0.80395 0.0
H413 H 0.20349 0.59611 0.82508 0.0
H414 H 0.20667 0.63248 0.7476 0.0
H415 H 0.18012 0.59682 0.78055 0.0
H416 H 0.18074 0.78708 0.69197 0.0
H417 H 0.17696 0.82084 0.61283 0.0
H418 H 0.2559 0.85445 0.66272 0.0
H419 H 0.22847 0.85164 0.61983 0.0
Tb420 Tb 0.24889 0.23166 0.77749 0.0
C421 C 0.32654 0.3389 0.71457 0.0
C422 C 0.29558 0.34628 0.67622 0.0
C423 C 0.337 0.3894 0.69239 0.0
C424 C 0.30252 0.32726 0.69693 0.0
C425 C 0.34446 0.36998 0.71231 0.0
C426 C 0.31257 0.37755 0.67436 0.0
C427 C 0.37688 0.35974 0.74834 0.0
N428 N 0.33309 0.31929 0.73331 0.0
C429 C 0.35847 0.32907 0.74968 0.0
C430 C 0.36969 0.38038 0.72974 0.0
Tb431 Tb 0.30117 0.26959 0.73446 0.0
N432 N 0.28689 0.29692 0.69936 0.0
C433 C 0.26523 0.28376 0.68047 0.0
C434 C 0.27234 0.33314 0.65766 0.0
C435 C 0.25737 0.30166 0.65962 0.0
H436 H 0.36424 0.31348 0.76428 0.0
H437 H 0.23968 0.29114 0.64514 0.0
H438 H 0.30744 0.3926 0.65873 0.0
H439 H 0.39658 0.36745 0.76168 0.0
H440 H 0.25324 0.25951 0.68156 0.0
H441 H 0.3115 0.21118 0.86653 0.0
H442 H 0.26623 0.34695 0.64149 0.0
H443 H 0.18461 0.18793 0.74965 0.0
H444 H 0.29735 0.24235 0.83012 0.0
H445 H 0.15177 0.13422 0.75334 0.0
H446 H 0.35034 0.41341 0.69043 0.0
H447 H 0.28519 0.15535 0.87067 0.0
H448 H 0.2436 0.10949 0.8542 0.0
H449 H 0.38404 0.4041 0.72869 0.0
H450 H 0.1998 0.08849 0.82341 0.0
N451 N 0.2636 0.2047 0.8127 0.0
C452 C 0.28542 0.21811 0.83139 0.0
C453 C 0.27881 0.16896 0.85449 0.0
C454 C 0.25527 0.1556 0.83625 0.0
C455 C 0.29364 0.20046 0.85225 0.0
C456 C 0.24802 0.17438 0.8155 0.0
H457 H 0.165 0.09769 0.78602 0.0
N458 N 0.21663 0.18215 0.77977 0.0
C459 C 0.17196 0.14188 0.7661 0.0
C460 C 0.22354 0.16265 0.79839 0.0
C461 C 0.19067 0.17242 0.76413 0.0
C462 C 0.17955 0.12131 0.7845 0.0
C463 C 0.20542 0.13169 0.80121 0.0
O464 O 0.2098 0.23508 0.78371 0.0
O465 O 0.2603 0.26576 0.74555 0.0
O466 O 0.30156 0.30394 0.75784 0.0
O467 O 0.28565 0.27096 0.79272 0.0
O468 O 0.2176 0.24059 0.74585 0.0
O469 O 0.24971 0.25492 0.80818 0.0
O470 O 0.34037 0.26572 0.72934 0.0
O471 O 0.28942 0.2349 0.76604 0.0
O472 O 0.24711 0.19726 0.75329 0.0
O473 O 0.26504 0.23021 0.71885 0.0
O474 O 0.33217 0.26028 0.76619 0.0
O475 O 0.30177 0.24907 0.70253 0.0
C476 C 0.23524 0.2625 0.73324 0.0
C477 C 0.20664 0.24014 0.82625 0.0
C478 C 0.18647 0.25325 0.85922 0.0
C479 C 0.19936 0.26137 0.83675 0.0
C480 C 0.18078 0.22351 0.87088 0.0
C481 C 0.20057 0.21055 0.83808 0.0
C482 C 0.18766 0.20232 0.86027 0.0
C483 C 0.29824 0.29878 0.78211 0.0
C484 C 0.22201 0.24988 0.80384 0.0
C485 C 0.21327 0.11242 0.82104 0.0
C486 C 0.2382 0.12437 0.83856 0.0
C487 C 0.31441 0.238 0.77843 0.0
C488 C 0.34655 0.26488 0.68683 0.0
C489 C 0.35237 0.24434 0.67409 0.0
C490 C 0.369 0.25494 0.65382 0.0
C491 C 0.37935 0.28642 0.64637 0.0
C492 C 0.35716 0.29611 0.6791 0.0
C493 C 0.37342 0.30676 0.65892 0.0
C494 C 0.25143 0.20252 0.72919 0.0
C495 C 0.32925 0.2532 0.708 0.0
H496 H 0.20436 0.28439 0.82778 0.0
H497 H 0.17069 0.21655 0.88807 0.0
H498 H 0.206 0.19394 0.83031 0.0
H499 H 0.18308 0.17945 0.86935 0.0
H500 H 0.34434 0.22022 0.68025 0.0
H501 H 0.39183 0.29532 0.63064 0.0
H502 H 0.35296 0.31223 0.68863 0.0
H503 H 0.38148 0.3309 0.65298 0.0
Tb504 Tb 0.78299 0.23287 0.76526 0.0
C505 C 0.73704 0.32092 0.69224 0.0
C506 C 0.77825 0.36828 0.69049 0.0
C507 C 0.74055 0.35567 0.65412 0.0
C508 C 0.76315 0.34037 0.70346 0.0
C509 C 0.72505 0.32851 0.66763 0.0
C510 C 0.76714 0.37556 0.66556 0.0
C511 C 0.68232 0.28333 0.67261 0.0
N512 N 0.72269 0.29516 0.70606 0.0
C513 C 0.69516 0.2768 0.69694 0.0
C514 C 0.6975 0.30904 0.65771 0.0
Tb515 Tb 0.74564 0.28616 0.74554 0.0
N516 N 0.773 0.33257 0.72759 0.0
C517 C 0.79707 0.35277 0.74048 0.0
C518 C 0.80358 0.38838 0.70324 0.0
C519 C 0.81292 0.38072 0.72841 0.0
H520 H 0.68326 0.25676 0.70819 0.0
H521 H 0.83228 0.39635 0.73855 0.0
H522 H 0.77859 0.39679 0.65519 0.0
H523 H 0.66066 0.26863 0.66547 0.0
H524 H 0.80463 0.34725 0.75994 0.0
H525 H 0.69833 0.12146 0.77164 0.0
H526 H 0.81552 0.41015 0.69405 0.0
H527 H 0.84622 0.26193 0.8017 0.0
H528 H 0.72353 0.1718 0.75151 0.0
H529 H 0.86998 0.24982 0.84377 0.0
H530 H 0.73185 0.36184 0.6351 0.0
H531 H 0.71711 0.1059 0.81512 0.0
H532 H 0.75493 0.11886 0.85344 0.0
H533 H 0.68745 0.31406 0.6389 0.0
H534 H 0.80156 0.15414 0.8733 0.0
N535 N 0.75647 0.18593 0.78317 0.0
C536 C 0.73215 0.16583 0.77046 0.0
C537 C 0.72809 0.12845 0.80644 0.0
C538 C 0.75334 0.14868 0.81916 0.0
C539 C 0.71755 0.13703 0.78192 0.0
C540 C 0.76736 0.17741 0.80671 0.0
H541 H 0.84479 0.20299 0.86975 0.0
N542 N 0.80699 0.22332 0.80416 0.0
C543 C 0.84836 0.23481 0.83675 0.0
C544 C 0.79349 0.19695 0.81771 0.0
C545 C 0.83471 0.24164 0.81287 0.0
C546 C 0.83406 0.20841 0.85138 0.0
C547 C 0.8065 0.18875 0.8417 0.0
O548 O 0.82177 0.23417 0.75445 0.0
O549 O 0.78271 0.27459 0.7432 0.0
O550 O 0.74524 0.26495 0.71187 0.0
O551 O 0.74985 0.21991 0.73186 0.0
O552 O 0.82173 0.27416 0.761 0.0
O553 O 0.78081 0.19928 0.74247 0.0
O554 O 0.70649 0.28629 0.75452 0.0
O555 O 0.74604 0.24467 0.76768 0.0
O556 O 0.78457 0.25399 0.79908 0.0
O557 O 0.77703 0.29849 0.7802 0.0
O558 O 0.70674 0.2452 0.75052 0.0
O559 O 0.74764 0.32005 0.76791 0.0
C560 C 0.80951 0.29066 0.74598 0.0
C561 C 0.82295 0.18698 0.74683 0.0
C562 C 0.84331 0.15591 0.72929 0.0
C563 C 0.82826 0.17627 0.72591 0.0
C564 C 0.85246 0.14609 0.75421 0.0
C565 C 0.83203 0.17671 0.77142 0.0
C566 C 0.84664 0.15628 0.77504 0.0
C567 C 0.74343 0.23648 0.71138 0.0
C568 C 0.80882 0.20964 0.74238 0.0
C569 C 0.79204 0.1608 0.85478 0.0
C570 C 0.76551 0.14073 0.84348 0.0
C571 C 0.71919 0.22885 0.76549 0.0
C572 C 0.70621 0.3339 0.76231 0.0
C573 C 0.6964 0.34159 0.78241 0.0
C574 C 0.68246 0.363 0.77811 0.0
C575 C 0.67893 0.37691 0.75347 0.0
C576 C 0.70259 0.34815 0.73795 0.0
C577 C 0.68906 0.3696 0.73361 0.0
C578 C 0.78494 0.28183 0.79995 0.0
C579 C 0.7195 0.31045 0.7671 0.0
H580 H 0.82063 0.18394 0.70699 0.0
H581 H 0.86463 0.13099 0.75771 0.0
H582 H 0.8282 0.18471 0.78778 0.0
H583 H 0.85385 0.14863 0.79407 0.0
H584 H 0.69905 0.33042 0.80122 0.0
H585 H 0.66858 0.39369 0.74961 0.0
H586 H 0.71002 0.34259 0.7223 0.0
H587 H 0.68631 0.38052 0.71475 0.0
Tb588 Tb 0.75546 0.72497 0.72906 0.0
C589 C 0.85154 0.81205 0.79839 0.0
C590 C 0.85966 0.78078 0.83639 0.0
C591 C 0.89931 0.82629 0.82368 0.0
C592 C 0.8413 0.78661 0.8148 0.0
C593 C 0.88049 0.83258 0.80284 0.0
C594 C 0.88889 0.80041 0.84045 0.0
C595 C 0.86931 0.8652 0.76708 0.0
N596 N 0.83256 0.81744 0.7787 0.0
C597 C 0.84074 0.84423 0.76359 0.0
C598 C 0.88939 0.8592 0.78662 0.0
Tb599 Tb 0.78637 0.78137 0.77415 0.0
N600 N 0.81293 0.76833 0.81021 0.0
C601 C 0.801 0.74498 0.82767 0.0
C602 C 0.84788 0.7559 0.85356 0.0
C603 C 0.81832 0.73817 0.84934 0.0
H604 H 0.8255 0.8491 0.74834 0.0
H605 H 0.80885 0.71917 0.86271 0.0
H606 H 0.90342 0.79616 0.85679 0.0
H607 H 0.87583 0.88597 0.7547 0.0
H608 H 0.77823 0.73088 0.82476 0.0
H609 H 0.72864 0.78309 0.64012 0.0
H610 H 0.86125 0.75058 0.87035 0.0
H611 H 0.71927 0.65577 0.75506 0.0
H612 H 0.76046 0.77364 0.67762 0.0
H613 H 0.66973 0.61749 0.7501 0.0
H614 H 0.92171 0.84164 0.82733 0.0
H615 H 0.67631 0.75031 0.63405 0.0
H616 H 0.63547 0.70463 0.649 0.0
H617 H 0.91147 0.87555 0.78936 0.0
H618 H 0.61938 0.65927 0.67907 0.0
N619 N 0.72706 0.73601 0.6935 0.0
C620 C 0.73794 0.75894 0.67543 0.0
C621 C 0.69036 0.74615 0.65067 0.0
C622 C 0.67962 0.72172 0.66845 0.0
C623 C 0.71978 0.76454 0.65398 0.0
C624 C 0.69887 0.71703 0.68974 0.0
H625 H 0.63217 0.62629 0.71667 0.0
N626 N 0.71008 0.68702 0.72528 0.0
C627 C 0.67509 0.6383 0.73768 0.0
C628 C 0.69 0.69152 0.70627 0.0
C629 C 0.70329 0.66019 0.7404 0.0
C630 C 0.65393 0.64338 0.71885 0.0
C631 C 0.66139 0.67001 0.70253 0.0
O632 O 0.76359 0.68625 0.72275 0.0
O633 O 0.78748 0.7399 0.76255 0.0
O634 O 0.82061 0.78552 0.75204 0.0
O635 O 0.79035 0.76574 0.7158 0.0
O636 O 0.76646 0.69459 0.76083 0.0
O637 O 0.77763 0.72763 0.69859 0.0
O638 O 0.77906 0.82083 0.77929 0.0
O639 O 0.75444 0.76671 0.74057 0.0
O640 O 0.72077 0.72069 0.75032 0.0
O641 O 0.74919 0.74247 0.78686 0.0
O642 O 0.77551 0.81217 0.74267 0.0
O643 O 0.76638 0.78102 0.80558 0.0
C644 C 0.78619 0.71438 0.77456 0.0
C645 C 0.76688 0.68189 0.68017 0.0
C646 C 0.77959 0.65918 0.64812 0.0
C647 C 0.78749 0.67452 0.67042 0.0
C648 C 0.7508 0.65123 0.63585 0.0
C649 C 0.73825 0.67345 0.66775 0.0
C650 C 0.73029 0.65823 0.6457 0.0
C651 C 0.81607 0.78201 0.72751 0.0
C652 C 0.77592 0.69941 0.70267 0.0
C653 C 0.64154 0.67537 0.68218 0.0
C654 C 0.65068 0.7012 0.6651 0.0
C655 C 0.75569 0.79248 0.72882 0.0
C656 C 0.77919 0.82879 0.82177 0.0
C657 C 0.75936 0.83083 0.83634 0.0
C658 C 0.76894 0.8508 0.85592 0.0
C659 C 0.79891 0.86816 0.86079 0.0
C660 C 0.80886 0.84615 0.82725 0.0
C661 C 0.81862 0.86559 0.84673 0.0
C662 C 0.7241 0.72606 0.7743 0.0
C663 C 0.76837 0.80928 0.80041 0.0
H664 H 0.80972 0.68122 0.67988 0.0
H665 H 0.74405 0.63921 0.6188 0.0
H666 H 0.72209 0.67872 0.67497 0.0
H667 H 0.70814 0.65184 0.63619 0.0
H668 H 0.73652 0.81694 0.83224 0.0
H669 H 0.80724 0.88441 0.87508 0.0
H670 H 0.82446 0.84511 0.81626 0.0
H671 H 0.84155 0.87918 0.85065 0.0
C672 C 0.95754 0.05577 0.54859 0.0
C673 C 1.01209 0.0833 0.49351 0.0
C674 C 0.95825 0.97133 0.45976 0.0
Mg675 Mg 0.02254 0.06441 0.54053 0.0
O676 O 0.99894 0.03113 0.51824 0.0
Mg677 Mg 0.95587 0.01795 0.49796 0.0
Mg678 Mg 1.01534 0.00653 0.50118 0.0
O679 O 0.03032 0.98277 0.48336 0.0
Mg680 Mg 1.00729 0.94257 0.47631 0.0
Mg681 Mg 0.06927 0.99016 0.50418 0.0
C682 C 0.06584 0.02815 0.55191 0.0
C683 C 0.06723 0.05261 0.47031 0.0
O684 O 0.94466 0.04156 0.52846 0.0
O685 O 0.9851 0.06383 0.55601 0.0
O686 O 1.00001 0.05537 0.50186 0.0
O687 O 0.03276 0.09983 0.50868 0.0
O688 O 0.05507 0.04568 0.55919 0.0
O689 O 0.05628 0.01604 0.53066 0.0
C690 C 0.96868 0.96073 0.53542 0.0
O691 O 0.99248 0.96624 0.52701 0.0
O692 O 0.95319 0.97721 0.52785 0.0
O693 O 0.07871 0.96509 0.47366 0.0
O694 O 0.03551 0.93587 0.454 0.0
O695 O 0.05137 0.94445 0.52933 0.0
C696 C 0.06337 0.94692 0.45646 0.0
O697 O 1.007 0.91605 0.51174 0.0
O698 O 0.96752 0.94975 0.45886 0.0
C699 C 0.02796 0.92072 0.52989 0.0
O700 O 0.97293 0.99439 0.47267 0.0
O701 O 0.04158 0.04685 0.47561 0.0
O702 O 0.0817 0.03518 0.47914 0.0
C703 C 0.45168 0.05092 0.02587 0.0
C704 C 0.46673 0.05879 0.95056 0.0
C705 C 0.47159 0.93691 0.98419 0.0
Mg706 Mg 0.50819 0.06381 1.0029 0.0
O707 O 0.49703 0.02153 0.00911 0.0
Mg708 Mg 0.45668 0.9959 0.99464 0.0
Mg709 Mg 0.52143 0.99687 0.00609 0.0
O710 O 0.54554 0.97185 1.00317 0.0
Mg711 Mg 0.53414 0.92962 0.00946 0.0
Mg712 Mg 0.58602 0.99717 0.01698 0.0
C713 C 0.57166 0.0571 0.02619 0.0
C714 C 0.56645 0.03458 0.96508 0.0
O715 O 0.43999 0.02599 0.01461 0.0
O716 O 0.47856 0.06801 0.02557 0.0
O717 O 0.45446 0.03017 0.95734 0.0
O718 O 0.48948 0.07546 0.96419 0.0
O719 O 0.55511 0.07253 0.01697 0.0
O720 O 0.56224 0.02768 0.02923 0.0
C721 C 0.47532 0.95684 0.04572 0.0
O722 O 0.50204 0.96647 0.04185 0.0
O723 O 0.45625 0.96481 0.03053 0.0
O724 O 0.60244 0.96583 0.99826 0.0
O725 O 0.56319 0.92468 0.98669 0.0
O726 O 0.5883 0.96406 0.05488 0.0
C727 C 0.59029 0.94099 0.98692 0.0
O728 O 0.55336 0.91858 0.04826 0.0
O729 O 0.48764 0.92107 0.99389 0.0
C730 C 0.57613 0.93546 0.0618 0.0
O731 O 0.48115 0.96634 0.98231 0.0
O732 O 0.54052 0.02713 0.97041 0.0
O733 O 0.58552 0.02603 0.97975 0.0
C734 C 0.9686 0.57318 0.0211 0.0
C735 C 0.97544 0.57235 0.94519 0.0
C736 C 0.96974 0.44889 0.98143 0.0
Mg737 Mg 0.02072 0.57649 0.99514 0.0
O738 O 1.00573 0.53446 0.00439 0.0
Mg739 Mg 0.96372 0.51209 0.99194 0.0
Mg740 Mg 0.02542 0.50567 0.99972 0.0
O741 O 0.04505 0.47692 0.99505 0.0
Mg742 Mg 0.02988 0.43499 0.00461 0.0
Mg743 Mg 0.08719 0.4993 0.0072 0.0
C744 C 0.08088 0.56278 0.01982 0.0
C745 C 0.06953 0.5406 0.95701 0.0
O746 O 0.9534 0.5472 0.01205 0.0
O747 O 0.99548 0.5873 0.01827 0.0
O748 O 0.96168 0.54504 0.95421 0.0
O749 O 1.00051 0.58812 0.9565 0.0
O750 O 0.06674 0.58068 0.01033 0.0
O751 O 0.0688 0.53342 0.02142 0.0
C752 C 0.98056 0.46987 0.04178 0.0
O753 O 1.00628 0.47616 0.03625 0.0
O754 O 0.96292 0.48133 0.02815 0.0
O755 O 0.09689 0.46373 0.98682 0.0
O756 O 0.05443 0.42396 0.98096 0.0
O757 O 0.08949 0.4664 0.04509 0.0
C758 C 0.08125 0.43782 0.97777 0.0
O759 O 0.05033 0.42363 0.04314 0.0
O760 O 0.98355 0.43079 0.99116 0.0
C761 C 0.07552 0.43924 0.05431 0.0
O762 O 0.98222 0.47808 0.97815 0.0
O763 O 0.04406 0.53449 0.96299 0.0
O764 O 0.08763 0.52979 0.97068 0.0
C765 C 0.46354 0.58137 0.03847 0.0
C766 C 0.47646 0.58844 0.95988 0.0
C767 C 0.45697 0.46852 0.9739 0.0
Mg768 Mg 0.51588 0.58952 0.01073 0.0
O769 O 0.49942 0.54681 0.01392 0.0
Mg770 Mg 0.45728 0.5263 1.0015 0.0
Mg771 Mg 0.51537 0.5208 0.99985 0.0
O772 O 0.53118 0.49428 0.98607 0.0
Mg773 Mg 0.51434 0.45152 0.99201 0.0
Mg774 Mg 0.57318 0.5146 0.99953 0.0
C775 C 0.57335 0.57292 0.0267 0.0
C776 C 0.55396 0.56005 0.95535 0.0
O777 O 0.44849 0.55725 0.0268 0.0
O778 O 0.49026 0.59675 0.03579 0.0
O779 O 0.45987 0.56213 0.96805 0.0
O780 O 0.50063 0.6034 0.97263 0.0
O781 O 0.56103 0.5928 0.02393 0.0
O782 O 0.55948 0.54556 0.02034 0.0
C783 C 0.47787 0.48155 0.045 0.0
O784 O 0.50101 0.48738 0.03502 0.0
O785 O 0.45856 0.49294 0.03536 0.0
O786 O 0.58211 0.48157 0.9762 0.0
O787 O 0.54016 0.44171 0.96853 0.0
O788 O 0.56959 0.48094 0.03452 0.0
C789 C 0.56695 0.45657 0.96571 0.0
O790 O 0.52837 0.4401 0.03149 0.0
O791 O 0.46923 0.44848 0.9779 0.0
C792 C 0.55237 0.4559 0.04397 0.0
O793 O 0.47088 0.49632 0.97915 0.0
O794 O 0.53066 0.55464 0.96505 0.0
O795 O 0.57257 0.54761 0.96498 0.0
C796 C 0.95169 0.5512 0.52549 0.0
C797 C 0.96535 0.55735 0.44984 0.0
C798 C 0.97165 0.43565 0.48564 0.0
Mg799 Mg 1.00716 0.5631 0.50173 0.0
O800 O 0.99644 0.52112 0.5086 0.0
Mg801 Mg 0.95592 0.4952 0.49492 0.0
Mg802 Mg 0.02124 0.49672 0.50614 0.0
O803 O 0.04578 0.47184 0.50371 0.0
Mg804 Mg 0.03485 0.42978 0.51156 0.0
Mg805 Mg 0.08634 0.49795 0.51681 0.0
C806 C 0.07112 0.5581 0.52494 0.0
C807 C 0.06586 0.53381 0.46451 0.0
O808 O 0.93939 0.5261 0.51448 0.0
O809 O 0.97855 0.56789 0.52476 0.0
O810 O 0.95304 0.52883 0.45703 0.0
O811 O 0.9883 0.57415 0.46313 0.0
O812 O 0.05369 0.57243 0.51559 0.0
O813 O 0.06248 0.52869 0.52857 0.0
C814 C 0.97558 0.4577 0.54679 0.0
O815 O 1.00224 0.46726 0.54263 0.0
O816 O 0.95625 0.46511 0.53146 0.0
O817 O 0.10249 0.46649 0.49798 0.0
O818 O 0.06421 0.42305 0.49012 0.0
O819 O 0.08967 0.46568 0.55527 0.0
C820 C 0.09077 0.44035 0.48861 0.0
O821 O 0.05396 0.4203 0.55059 0.0
O822 O 0.98836 0.42066 0.49574 0.0
C823 C 0.07734 0.43746 0.56323 0.0
O824 O 0.98054 0.46511 0.48313 0.0
O825 O 0.03985 0.52621 0.46975 0.0
O826 O 0.08508 0.52583 0.47943 0.0
C827 C 0.46512 0.07516 0.52131 0.0
C828 C 0.47149 0.06918 0.44597 0.0
C829 C 0.46707 0.94757 0.48529 0.0
Mg830 Mg 0.51679 0.07661 0.4958 0.0
O831 O 0.5025 0.03513 0.50673 0.0
Mg832 Mg 0.46049 0.012 0.49524 0.0
Mg833 Mg 0.52254 0.00626 0.50316 0.0
O834 O 0.54264 0.97763 0.49942 0.0
Mg835 Mg 0.52816 0.93565 0.50857 0.0
Mg836 Mg 0.58462 1.00077 0.51136 0.0
C837 C 0.57766 0.06485 0.52029 0.0
C838 C 0.56616 0.03998 0.46015 0.0
O839 O 0.45001 0.04856 0.51339 0.0
O840 O 0.4919 0.08912 0.51809 0.0
O841 O 0.45762 0.04247 0.45607 0.0
O842 O 0.4966 0.08547 0.45676 0.0
O843 O 0.56293 0.08185 0.50997 0.0
O844 O 0.5661 0.03553 0.52407 0.0
C845 C 0.47987 0.97435 0.54716 0.0
O846 O 0.50474 0.97904 0.54054 0.0
O847 O 0.46161 0.9847 0.53317 0.0
O848 O 0.59519 0.96547 0.49178 0.0
O849 O 0.55364 0.92459 0.48593 0.0
O850 O 0.58694 0.9685 0.54993 0.0
C851 C 0.58045 0.93922 0.4831 0.0
O852 O 0.54824 0.92522 0.54715 0.0
O853 O 0.48184 0.93025 0.49452 0.0
C854 C 0.57301 0.9411 0.55879 0.0
O855 O 0.47888 0.97694 0.48275 0.0
O856 O 0.54044 0.03356 0.46568 0.0
O857 O 0.58454 0.03006 0.47444 0.0
H858 H 0.16953 0.18814 0.2629 0.0
H859 H 0.13253 0.16229 0.29146 0.0
H860 H 0.19708 0.19503 0.3558 0.0
H861 H 0.23372 0.22004 0.3281 0.0
H862 H 0.13485 0.11713 0.33508 0.0
H863 H 0.1674 0.21916 0.39545 0.0
H864 H 0.18806 0.27534 0.38951 0.0
H865 H 0.14869 0.27253 0.31173 0.0
H866 H 0.12739 0.21636 0.31726 0.0
H867 H 0.12347 0.07795 0.46105 0.0
H868 H 0.14191 0.11239 0.42478 0.0
H869 H 0.05773 0.11943 0.40021 0.0
H870 H 0.03887 0.08477 0.43667 0.0
H871 H 0.11605 0.17749 0.39366 0.0
H872 H 0.06144 0.0719 0.37237 0.0
H873 H 0.04997 0.0175 0.38715 0.0
H874 H 0.13975 0.02889 0.39112 0.0
H875 H 0.15187 0.0835 0.37679 0.0
C876 C 0.17584 0.18955 0.28314 0.0
C877 C 0.20473 0.20607 0.2931 0.0
C878 C 0.15467 0.17491 0.29938 0.0
C879 C 0.16207 0.17713 0.32568 0.0
C880 C 0.19082 0.19342 0.33554 0.0
C881 C 0.21183 0.20769 0.31952 0.0
C882 C 0.14045 0.16223 0.34349 0.0
C883 C 0.12994 0.13028 0.34734 0.0
C884 C 0.13462 0.17952 0.35987 0.0
C885 C 0.14588 0.21345 0.35676 0.0
C886 C 0.16289 0.2305 0.37713 0.0
C887 C 0.17487 0.26236 0.3738 0.0
C888 C 0.16991 0.27745 0.3502 0.0
C889 C 0.15269 0.26077 0.32995 0.0
C890 C 0.14065 0.22893 0.33318 0.0
C891 C 0.10897 0.08731 0.44832 0.0
C892 C 0.07957 0.07821 0.45152 0.0
C893 C 0.11961 0.10714 0.42768 0.0
C894 C 0.10107 0.11812 0.40979 0.0
C895 C 0.07234 0.11119 0.41392 0.0
C896 C 0.06162 0.09133 0.43473 0.0
C897 C 0.11087 0.13265 0.38521 0.0
C898 C 0.11959 0.16439 0.38047 0.0
C899 C 0.11537 0.11528 0.36815 0.0
C900 C 0.10755 0.08178 0.3735 0.0
C901 C 0.07869 0.06274 0.37622 0.0
C902 C 0.07212 0.03194 0.38469 0.0
C903 C 0.09417 0.01985 0.39029 0.0
C904 C 0.12274 0.03837 0.38693 0.0
C905 C 0.12946 0.06921 0.37852 0.0
H906 H 0.08904 0.99603 0.39692 0.0
H907 H 0.17914 0.30208 0.34765 0.0
H908 H 0.88501 0.15615 0.27355 0.0
H909 H 0.92416 0.16199 0.3095 0.0
H910 H 0.86177 0.10177 0.35734 0.0
H911 H 0.82281 0.09539 0.32145 0.0
H912 H 0.90425 0.15593 0.38025 0.0
H913 H 0.89514 0.07021 0.33518 0.0
H914 H 0.89463 0.04524 0.29784 0.0
H915 H 0.98139 0.10742 0.28954 0.0
H916 H 0.98219 0.13311 0.32664 0.0
H917 H 0.97328 0.05066 0.45721 0.0
H918 H 0.95054 0.06909 0.41793 0.0
H919 H 1.0004 0.16203 0.43528 0.0
H920 H 0.02352 0.1434 0.47521 0.0
H921 H 0.97321 0.10451 0.37695 0.0
H922 H 0.94931 0.20011 0.41103 0.0
H923 H 0.94485 0.21771 0.4506 0.0
H924 H 0.91781 0.12552 0.4844 0.0
H925 H 0.92158 0.10737 0.44489 0.0
C926 C 0.8798 0.14418 0.29177 0.0
C927 C 0.85116 0.12477 0.29474 0.0
C928 C 0.90203 0.14768 0.31223 0.0
C929 C 0.89572 0.1323 0.33595 0.0
C930 C 0.86695 0.11389 0.33914 0.0
C931 C 0.84486 0.10993 0.31863 0.0
C932 C 0.9192 0.13301 0.35704 0.0
C933 C 0.91976 0.14526 0.37945 0.0
C934 C 0.93918 0.11888 0.35592 0.0
C935 C 0.93851 0.10394 0.33333 0.0
C936 C 0.91393 0.07885 0.32515 0.0
C937 C 0.91362 0.06451 0.30408 0.0
C938 C 0.9379 0.07485 0.29123 0.0
C939 C 0.96255 0.09953 0.29944 0.0
C940 C 0.96293 0.11402 0.32046 0.0
C941 C 0.97953 0.075 0.45272 0.0
C942 C 0.9999 0.09555 0.46936 0.0
C943 C 0.9667 0.08551 0.43015 0.0
C944 C 0.97382 0.11686 0.42373 0.0
C945 C 0.99463 0.13771 0.44 0.0
C946 C 1.00776 0.12708 0.46271 0.0
C947 C 0.9579 0.12676 0.40047 0.0
C948 C 0.95867 0.11647 0.37752 0.0
C949 C 0.93866 0.14195 0.40135 0.0
C950 C 0.93621 0.1525 0.42517 0.0
C951 C 0.94244 0.18363 0.42693 0.0
C952 C 0.93997 0.19369 0.44932 0.0
C953 C 0.93121 0.17277 0.47005 0.0
C954 C 0.92473 0.14173 0.46838 0.0
C955 C 0.92704 0.13155 0.44599 0.0
H956 H 0.92936 0.1806 0.48738 0.0
H957 H 0.93767 0.06363 0.27499 0.0
H958 H 0.81048 0.8083 0.32938 0.0
H959 H 0.82911 0.85357 0.3524 0.0
H960 H 0.84045 0.91059 0.28222 0.0
H961 H 0.82166 0.86472 0.2586 0.0
H962 H 0.8881 0.93048 0.32061 0.0
H963 H 0.78819 0.91513 0.31208 0.0
H964 H 0.73578 0.88409 0.3087 0.0
H965 H 0.74835 0.84204 0.38377 0.0
H966 H 0.80081 0.87316 0.38773 0.0
H967 H 0.94931 0.01557 0.42509 0.0
H968 H 0.91219 0.00651 0.38765 0.0
H969 H 0.87132 0.91371 0.41818 0.0
H970 H 0.9077 0.92316 0.45569 0.0
H971 H 0.83167 0.93268 0.38692 0.0
H972 H 0.93444 0.93746 0.38413 0.0
H973 H 0.98694 0.96827 0.38581 0.0
H974 H 0.9677 0.03361 0.3288 0.0
H975 H 0.91515 1.00311 0.32685 0.0
C976 C 0.8168 0.83033 0.31865 0.0
C977 C 0.81444 0.8328 0.29209 0.0
C978 C 0.82732 0.85629 0.33189 0.0
C979 C 0.8355 0.88545 0.31899 0.0
C980 C 0.83392 0.88826 0.29248 0.0
C981 C 0.8233 0.86205 0.27908 0.0
C982 C 0.84638 0.91236 0.33404 0.0
C983 C 0.8755 0.93188 0.33452 0.0
C984 C 0.82988 0.9146 0.35189 0.0
C985 C 0.7983 0.8966 0.35025 0.0
C986 C 0.77972 0.89935 0.3279 0.0
C987 C 0.75005 0.88178 0.32589 0.0
C988 C 0.73879 0.86121 0.34602 0.0
C989 C 0.75714 0.85803 0.36821 0.0
C990 C 0.7868 0.87585 0.37045 0.0
C991 C 0.93129 0.99396 0.42449 0.0
C992 C 0.9312 0.97006 0.4432 0.0
C993 C 0.91033 0.98861 0.40291 0.0
C994 C 0.88943 0.95919 0.3998 0.0
C995 C 0.88728 0.93657 0.42004 0.0
C996 C 0.90809 0.94193 0.44152 0.0
C997 C 0.87394 0.94942 0.3745 0.0
C998 C 0.84387 0.93284 0.37212 0.0
C999 C 0.88951 0.95043 0.35459 0.0
C1000 C 0.92103 0.9682 0.35544 0.0
C1001 C 0.9415 0.95837 0.37194 0.0
C1002 C 0.97122 0.97577 0.37296 0.0
C1003 C 0.98064 1.00289 0.35743 0.0
C1004 C 0.96038 0.01262 0.3408 0.0
C1005 C 0.93066 0.99529 0.33972 0.0
H1006 H 1.00362 0.01635 0.35823 0.0
H1007 H 0.71584 0.84786 0.34436 0.0
H1008 H 0.21036 0.88689 0.30638 0.0
H1009 H 0.19457 0.90555 0.33922 0.0
H1010 H 0.10535 0.86672 0.30433 0.0
H1011 H 0.12139 0.84962 0.27085 0.0
H1012 H 0.11254 0.91817 0.31664 0.0
H1013 H 0.13779 0.83494 0.36217 0.0
H1014 H 0.16887 0.80497 0.37938 0.0
H1015 H 0.22955 0.88073 0.41943 0.0
H1016 H 0.199 0.91129 0.40224 0.0
H1017 H 0.03743 0.90995 0.41775 0.0
H1018 H 0.06007 0.89899 0.38586 0.0
H1019 H 0.14454 0.95633 0.41968 0.0
H1020 H 0.12195 0.96737 0.4522 0.0
H1021 H 0.14348 0.90054 0.40853 0.0
H1022 H 0.11907 0.98499 0.35539 0.0
H1023 H 0.08591 0.01247 0.33698 0.0
H1024 H 0.01974 0.92856 0.31354 0.0
H1025 H 0.05295 0.90089 0.3308 0.0
C1026 C 0.1874 0.88238 0.30584 0.0
C1027 C 0.16707 0.86691 0.2861 0.0
C1028 C 0.17833 0.89284 0.3247 0.0
C1029 C 0.14864 0.88721 0.32461 0.0
C1030 C 0.12837 0.87153 0.30489 0.0
C1031 C 0.13751 0.86171 0.28575 0.0
C1032 C 0.13853 0.89828 0.34449 0.0
C1033 C 0.11921 0.91395 0.33671 0.0
C1034 C 0.14758 0.89364 0.3708 0.0
C1035 C 0.16626 0.8755 0.38071 0.0
C1036 C 0.1579 0.84531 0.37445 0.0
C1037 C 0.17539 0.8282 0.38424 0.0
C1038 C 0.20116 0.84097 0.40045 0.0
C1039 C 0.20958 0.8709 0.40685 0.0
C1040 C 0.19219 0.88811 0.39711 0.0
C1041 C 0.06085 0.92034 0.41857 0.0
C1042 C 0.07783 0.93956 0.43771 0.0
C1043 C 0.07374 0.91426 0.40005 0.0
C1044 C 0.10394 0.92733 0.4 0.0
C1045 C 0.12114 0.94619 0.41922 0.0
C1046 C 0.1082 0.95238 0.43786 0.0
C1047 C 0.11732 0.9198 0.38053 0.0
C1048 C 0.13722 0.9049 0.38841 0.0
C1049 C 0.10846 0.92456 0.35432 0.0
C1050 C 0.08827 0.94091 0.34462 0.0
C1051 C 0.09738 0.97245 0.34641 0.0
C1052 C 0.07867 0.98805 0.33608 0.0
C1053 C 0.05063 0.97221 0.32445 0.0
C1054 C 0.04141 0.94079 0.32268 0.0
C1055 C 0.06024 0.92519 0.3325 0.0
H1056 H 0.03612 0.98431 0.31665 0.0
H1057 H 0.21454 0.82765 0.40819 0.0
H1058 H 0.13617 0.78677 0.68775 0.0
H1059 H 0.08466 0.77649 0.67931 0.0
H1060 H 0.08707 0.77506 0.59958 0.0
H1061 H 0.13706 0.77954 0.60858 0.0
H1062 H 0.06672 0.81374 0.66282 0.0
H1063 H 0.0322 0.76626 0.55939 0.0
H1064 H 0.02239 0.71755 0.5421 0.0
H1065 H 1.01761 0.67175 0.61685 0.0
H1066 H 0.02689 0.72007 0.63468 0.0
H1067 H 0.06854 0.92071 0.57113 0.0
H1068 H 0.06731 0.87939 0.60354 0.0
H1069 H 0.98029 0.82631 0.57101 0.0
H1070 H 0.98164 0.8677 0.5379 0.0
H1071 H 1.00954 0.79177 0.57804 0.0
H1072 H 0.991 0.84 0.63589 0.0
H1073 H 0.98883 0.88014 0.65883 0.0
H1074 H 0.08097 0.90955 0.68269 0.0
H1075 H 0.08376 0.86932 0.66007 0.0
C1076 C 0.12565 0.78253 0.66856 0.0
C1077 C 0.14171 0.78594 0.64856 0.0
C1078 C 0.09582 0.77701 0.66367 0.0
C1079 C 0.08161 0.77635 0.6386 0.0
C1080 C 0.09676 0.77546 0.61922 0.0
C1081 C 0.12614 0.77923 0.62431 0.0
C1082 C 0.0551 0.78477 0.63187 0.0
C1083 C 0.05385 0.80818 0.64454 0.0
C1084 C 0.03557 0.77612 0.6093 0.0
C1085 C 0.03013 0.74698 0.59843 0.0
C1086 C 0.02871 0.74582 0.57219 0.0
C1087 C 0.02335 0.71823 0.56227 0.0
C1088 C 0.01933 0.69156 0.57835 0.0
C1089 C 0.02075 0.69243 0.60441 0.0
C1090 C 0.02613 0.71995 0.61444 0.0
C1091 C 0.04892 0.90053 0.57103 0.0
C1092 C 0.02547 0.89734 0.55161 0.0
C1093 C 0.04803 0.87692 0.58984 0.0
C1094 C 0.02354 0.84968 0.58994 0.0
C1095 C 0.9994 0.84704 0.57136 0.0
C1096 C 1.00029 0.87073 0.55241 0.0
C1097 C 0.02574 0.82309 0.60723 0.0
C1098 C 0.02174 0.7961 0.59676 0.0
C1099 C 0.03862 0.82694 0.63265 0.0
C1100 C 0.03755 0.85149 0.64632 0.0
C1101 C 1.01085 0.85505 0.64597 0.0
C1102 C 1.0095 0.87783 0.65897 0.0
C1103 C 0.03475 0.8975 0.67214 0.0
C1104 C 0.06141 0.89426 0.67251 0.0
C1105 C 0.06286 0.8713 0.65975 0.0
H1106 H 0.03366 0.91523 0.68209 0.0
H1107 H 1.01514 0.67022 0.57062 0.0
H1108 H 0.21747 0.14216 0.73987 0.0
H1109 H 0.19408 0.1029 0.70983 0.0
H1110 H 0.23805 0.16559 0.6509 0.0
H1111 H 0.2594 0.20517 0.67994 0.0
H1112 H 0.18499 0.14322 0.63406 0.0
H1113 H 0.25355 0.09922 0.67773 0.0
H1114 H 0.28003 0.07925 0.71469 0.0
H1115 H 0.19981 0.00947 0.73228 0.0
H1116 H 0.17279 0.02924 0.69558 0.0
H1117 H 0.12083 0.0484 0.54014 0.0
H1118 H 0.1641 0.06699 0.57156 0.0
H1119 H 0.11217 0.02321 0.63175 0.0
H1120 H 0.0691 0.00468 0.60044 0.0
H1121 H 0.17418 0.03408 0.64628 0.0
H1122 H 0.10713 0.08765 0.60854 0.0
H1123 H 0.08061 0.10765 0.57153 0.0
H1124 H 0.16115 0.15995 0.54265 0.0
H1125 H 0.18809 0.14015 0.57951 0.0
C1126 C 0.22192 0.14763 0.72048 0.0
C1127 C 0.23962 0.17721 0.71227 0.0
C1128 C 0.20896 0.12495 0.70338 0.0
C1129 C 0.21427 0.1312 0.67798 0.0
C1130 C 0.23334 0.16018 0.67027 0.0
C1131 C 0.24562 0.18291 0.68707 0.0
C1132 C 0.19781 0.10907 0.65863 0.0
C1133 C 0.18339 0.11958 0.63661 0.0
C1134 C 0.19495 0.07794 0.66199 0.0
C1135 C 0.21112 0.06587 0.68401 0.0
C1136 C 0.24152 0.07974 0.68958 0.0
C1137 C 0.25664 0.06844 0.71046 0.0
C1138 C 0.2416 0.04316 0.72586 0.0
C1139 C 0.21143 0.02907 0.72035 0.0
C1140 C 0.19621 0.04028 0.69948 0.0
C1141 C 0.11912 0.04104 0.55999 0.0
C1142 C 0.09179 0.02537 0.568 0.0
C1143 C 0.1438 0.05181 0.57797 0.0
C1144 C 0.14114 0.04702 0.60398 0.0
C1145 C 0.1147 0.0272 0.61182 0.0
C1146 C 0.09008 0.01659 0.5939 0.0
C1147 C 0.1622 0.06867 0.62188 0.0
C1148 C 0.17682 0.058 0.64367 0.0
C1149 C 0.16561 0.09987 0.6184 0.0
C1150 C 0.14954 0.11225 0.59657 0.0
C1151 C 0.11913 0.10335 0.59424 0.0
C1152 C 0.10404 0.11464 0.57332 0.0
C1153 C 0.11917 0.13493 0.55469 0.0
C1154 C 0.14945 0.14416 0.55706 0.0
C1155 C 0.16465 0.13298 0.57797 0.0
H1156 H 0.10744 0.14358 0.53847 0.0
H1157 H 0.25334 0.03444 0.74203 0.0
H1158 H 0.85679 0.1883 0.68366 0.0
H1159 H 0.86815 0.17139 0.64754 0.0
H1160 H 0.85934 0.08426 0.6889 0.0
H1161 H 0.84553 0.09999 0.72425 0.0
H1162 H 0.91058 0.1584 0.64158 0.0
H1163 H 0.83975 0.02734 0.64907 0.0
H1164 H 0.79246 0.99438 0.66248 0.0
H1165 H 0.76375 0.07039 0.64965 0.0
H1166 H 0.81001 0.10333 0.63462 0.0
H1167 H 0.97451 0.07439 0.59638 0.0
H1168 H 0.94855 0.09174 0.62118 0.0
H1169 H 0.87559 0.07357 0.56157 0.0
H1170 H 0.90159 0.05578 0.53631 0.0
H1171 H 0.85805 0.05638 0.6089 0.0
H1172 H 0.9185 0.14499 0.56684 0.0
H1173 H 0.96321 0.18075 0.55056 0.0
H1174 H 1.00665 0.19453 0.6267 0.0
H1175 H 0.96233 0.15845 0.64346 0.0
C1176 C 0.85647 0.16523 0.68492 0.0
C1177 C 0.85004 0.14552 0.70701 0.0
C1178 C 0.86337 0.15571 0.66427 0.0
C1179 C 0.86433 0.12639 0.66526 0.0
C1180 C 0.85816 0.10676 0.68734 0.0
C1181 C 0.85073 0.11604 0.7078 0.0
C1182 C 0.87313 0.11682 0.64377 0.0
C1183 C 0.8989 0.13617 0.63438 0.0
C1184 C 0.8574 0.08822 0.63357 0.0
C1185 C 0.82862 0.06796 0.64096 0.0
C1186 C 0.82318 0.03694 0.64866 0.0
C1187 C 0.79645 0.01819 0.65645 0.0
C1188 C 0.77502 0.03022 0.65679 0.0
C1189 C 0.78018 0.06096 0.6491 0.0
C1190 C 0.80662 0.07966 0.64083 0.0
C1191 C 0.95293 0.07397 0.58839 0.0
C1192 C 0.94031 0.06403 0.56413 0.0
C1193 C 0.93811 0.08396 0.60266 0.0
C1194 C 0.91038 0.08453 0.59303 0.0
C1195 C 0.89708 0.0735 0.56927 0.0
C1196 C 0.91196 0.06335 0.55488 0.0
C1197 C 0.89606 0.09736 0.60794 0.0
C1198 C 0.86932 0.07873 0.61598 0.0
C1199 C 0.9103 0.12702 0.61632 0.0
C1200 C 0.93709 0.14885 0.60641 0.0
C1201 C 0.93764 0.15547 0.58013 0.0
C1202 C 0.96291 0.17582 0.5708 0.0
C1203 C 0.98777 0.18987 0.58759 0.0
C1204 C 0.98738 0.18362 0.61373 0.0
C1205 C 0.96216 0.16324 0.62315 0.0
H1206 H 1.00731 0.20563 0.58034 0.0
H1207 H 0.75446 0.01575 0.66306 0.0
H1208 H 0.8106 0.7888 0.67614 0.0
H1209 H 0.8479 0.81447 0.64931 0.0
H1210 H 0.91291 0.8372 0.71514 0.0
H1211 H 0.87485 0.81152 0.74276 0.0
H1212 H 0.91993 0.88541 0.67944 0.0
H1213 H 0.91186 0.78351 0.67944 0.0
H1214 H 0.88596 0.72791 0.67902 0.0
H1215 H 0.84432 0.73994 0.60342 0.0
H1216 H 0.86956 0.79569 0.60347 0.0
H1217 H 1.00412 0.9425 0.57338 0.0
H1218 H 0.98943 0.90675 0.61048 0.0
H1219 H 0.89922 0.88787 0.58028 0.0
H1220 H 0.91371 0.92434 0.54364 0.0
H1221 H 0.92094 0.83408 0.60553 0.0
H1222 H 0.91918 0.9362 0.61404 0.0
H1223 H 0.94425 0.99184 0.61538 0.0
H1224 H 1.00652 0.97769 0.67711 0.0
H1225 H 0.98198 0.92196 0.67588 0.0
C1226 C 0.83272 0.79906 0.68518 0.0
C1227 C 0.83964 0.798 0.71171 0.0
C1228 C 0.85418 0.81362 0.66968 0.0
C1229 C 0.88333 0.82708 0.68016 0.0
C1230 C 0.89054 0.82661 0.70667 0.0
C1231 C 0.86881 0.81204 0.72238 0.0
C1232 C 0.9054 0.84254 0.66275 0.0
C1233 C 0.92089 0.87398 0.66372 0.0
C1234 C 0.90685 0.82759 0.64228 0.0
C1235 C 0.89262 0.79391 0.64151 0.0
C1236 C 0.89714 0.77435 0.66273 0.0
C1237 C 0.88248 0.7428 0.66259 0.0
C1238 C 0.86337 0.73046 0.64128 0.0
C1239 C 0.85904 0.7496 0.61996 0.0
C1240 C 0.87362 0.78118 0.61999 0.0
C1241 C 0.98115 0.93029 0.57448 0.0
C1242 C 0.95996 0.93625 0.5558 0.0
C1243 C 0.97286 0.90993 0.59565 0.0
C1244 C 0.94329 0.89484 0.59803 0.0
C1245 C 0.92215 0.89932 0.57862 0.0
C1246 C 0.93041 0.92023 0.55784 0.0
C1247 C 0.93392 0.87691 0.62175 0.0
C1248 C 0.92088 0.84511 0.62184 0.0
C1249 C 0.93497 0.89142 0.6433 0.0
C1250 C 0.94922 0.92492 0.6444 0.0
C1251 C 0.93847 0.94495 0.62764 0.0
C1252 C 0.9525 0.97651 0.62846 0.0
C1253 C 0.97709 0.9883 0.64619 0.0
C1254 C 0.98757 0.96854 0.66327 0.0
C1255 C 0.97363 0.93696 0.66249 0.0
H1256 H 0.98793 0.01274 0.6468 0.0
H1257 H 0.85222 0.70605 0.64119 0.0
H1258 H 0.26078 0.09544 0.13241 0.0
H1259 H 0.29196 0.07817 0.11327 0.0
H1260 H 0.36196 0.16486 0.12346 0.0
H1261 H 0.33046 0.18271 0.14192 0.0
H1262 H 0.35658 0.14838 0.07695 0.0
H1263 H 0.3623 0.09956 0.16082 0.0
H1264 H 0.34378 0.06776 0.19889 0.0
H1265 H 0.30121 0.98997 0.15524 0.0
H1266 H 0.3191 0.02142 0.11679 0.0
H1267 H 0.46715 0.1043 0.04812 0.0
H1268 H 0.43755 0.12044 0.07023 0.0
H1269 H 0.3657 0.03575 0.05723 0.0
H1270 H 0.39529 0.01919 0.03516 0.0
H1271 H 0.37268 0.05129 0.10561 0.0
H1272 H 0.3661 0.10064 0.02156 0.0
H1273 H 0.38518 0.13252 0.98367 0.0
H1274 H 0.42993 0.20929 0.02811 0.0
H1275 H 0.41142 0.17781 0.06635 0.0
C1276 C 0.28278 0.11092 0.13054 0.0
C1277 C 0.29302 0.14056 0.13864 0.0
C1278 C 0.30072 0.10086 0.11981 0.0
C1279 C 0.32947 0.12007 0.11709 0.0
C1280 C 0.3399 0.14956 0.1254 0.0
C1281 C 0.32193 0.15966 0.13616 0.0
C1282 C 0.34819 0.10972 0.10472 0.0
C1283 C 0.36045 0.12738 0.0835 0.0
C1284 C 0.3527 0.0819 0.11277 0.0
C1285 C 0.34181 0.06295 0.13585 0.0
C1286 C 0.34877 0.07574 0.15927 0.0
C1287 C 0.33842 0.05776 0.18094 0.0
C1288 C 0.32126 0.02688 0.17947 0.0
C1289 C 0.31446 0.0139 0.15634 0.0
C1290 C 0.32472 0.03179 0.13461 0.0
C1291 C 0.44506 0.08899 0.04993 0.0
C1292 C 0.4336 0.06046 0.03964 0.0
C1293 C 0.42811 0.09836 0.06253 0.0
C1294 C 0.39925 0.07951 0.06513 0.0
C1295 C 0.38788 0.05075 0.05538 0.0
C1296 C 0.40481 0.04137 0.04266 0.0
C1297 C 0.38098 0.08996 0.07791 0.0
C1298 C 0.3688 0.0723 0.09914 0.0
C1299 C 0.37655 0.11778 0.06989 0.0
C1300 C 0.38759 0.13678 0.04687 0.0
C1301 C 0.38019 0.12426 0.0233 0.0
C1302 C 0.39086 0.14226 1.00175 0.0
C1303 C 0.40881 0.17286 0.0035 0.0
C1304 C 0.41605 0.18557 0.02679 0.0
C1305 C 0.40545 0.16767 0.0484 0.0
H1306 H 0.41706 0.18675 0.9868 0.0
H1307 H 0.31329 0.013 0.19626 0.0
H1308 H 0.79658 0.29013 0.17647 0.0
H1309 H 0.83249 0.31693 0.14805 0.0
H1310 H 0.90005 0.33891 0.21226 0.0
H1311 H 0.86302 0.3141 0.2409 0.0
H1312 H 0.91157 0.38479 0.18256 0.0
H1313 H 0.8907 0.282 0.16382 0.0
H1314 H 0.85761 0.22965 0.15491 0.0
H1315 H 0.81813 0.26468 0.08625 0.0
H1316 H 0.85055 0.31721 0.09519 0.0
H1317 H 1.00941 0.45316 0.08742 0.0
H1318 H 0.98673 0.41685 0.12214 0.0
H1319 H 0.90232 0.39799 0.07733 0.0
H1320 H 0.92439 0.43359 0.04326 0.0
H1321 H 0.90822 0.34584 0.10085 0.0
H1322 H 0.92601 0.44834 0.12286 0.0
H1323 H 0.95792 0.50059 0.13298 0.0
H1324 H 1.00511 0.46456 0.19567 0.0
H1325 H 0.97366 0.41207 0.1857 0.0
C1326 C 0.81926 0.29974 0.18448 0.0
C1327 C 0.8273 0.29828 0.21084 0.0
C1328 C 0.83998 0.31507 0.16815 0.0
C1329 C 0.86961 0.32896 0.17763 0.0
C1330 C 0.87759 0.32802 0.20418 0.0
C1331 C 0.85653 0.31344 0.22061 0.0
C1332 C 0.8915 0.34626 0.15981 0.0
C1333 C 0.91125 0.37576 0.16505 0.0
C1334 C 0.89133 0.33509 0.1366 0.0
C1335 C 0.87282 0.30349 0.1304 0.0
C1336 C 0.87478 0.27846 0.14699 0.0
C1337 C 0.85618 0.2488 0.1419 0.0
C1338 C 0.83572 0.24385 0.12006 0.0
C1339 C 0.83398 0.26855 0.10318 0.0
C1340 C 0.85251 0.29827 0.10823 0.0
C1341 C 0.98608 0.44103 0.08502 0.0
C1342 C 0.96872 0.44669 0.0627 0.0
C1343 C 0.97311 0.42036 0.10486 0.0
C1344 C 0.94268 0.40474 0.10246 0.0
C1345 C 0.92574 0.40961 0.07977 0.0
C1346 C 0.93848 0.4303 0.0603 0.0
C1347 C 0.92762 0.38425 0.12354 0.0
C1348 C 0.90906 0.35428 0.11879 0.0
C1349 C 0.92911 0.39484 0.14724 0.0
C1350 C 0.94774 0.42634 0.15336 0.0
C1351 C 0.94332 0.45158 0.13869 0.0
C1352 C 0.9613 0.48123 0.14441 0.0
C1353 C 0.9836 0.48589 0.1649 0.0
C1354 C 0.98788 0.46091 0.17977 0.0
C1355 C 0.96998 0.43122 0.1741 0.0
H1356 H 0.99751 0.50886 0.16929 0.0
H1357 H 0.82127 0.22089 0.11618 0.0
H1358 H 0.68548 0.74546 0.20309 0.0
H1359 H 0.66065 0.77545 0.17492 0.0
H1360 H 0.7335 0.85783 0.19275 0.0
H1361 H 0.75785 0.8274 0.22238 0.0
H1362 H 0.68896 0.87141 0.19051 0.0
H1363 H 0.70933 0.82597 0.12358 0.0
H1364 H 0.71081 0.78495 0.10087 0.0
H1365 H 0.61986 0.73558 0.1047 0.0
H1366 H 0.61778 0.77667 0.12686 0.0
H1367 H 0.6303 0.96061 0.09054 0.0
H1368 H 0.65876 0.93429 0.11938 0.0
H1369 H 0.58726 0.84869 0.11001 0.0
H1370 H 0.55897 0.8748 0.08085 0.0
H1371 H 0.63341 0.83883 0.10705 0.0
H1372 H 0.61233 0.88945 0.16796 0.0
H1373 H 0.611 0.93324 0.18677 0.0
H1374 H 0.70414 0.97452 0.19333 0.0
H1375 H 0.706 0.93113 0.17425 0.0
C1376 C 0.69661 0.76996 0.20071 0.0
C1377 C 0.72427 0.78361 0.21467 0.0
C1378 C 0.68232 0.78734 0.18418 0.0
C1379 C 0.69501 0.81942 0.18054 0.0
C1380 C 0.72282 0.83327 0.19459 0.0
C1381 C 0.73711 0.81573 0.21144 0.0
C1382 C 0.67844 0.83811 0.16351 0.0
C1383 C 0.67732 0.8644 0.17207 0.0
C1384 C 0.66215 0.82935 0.13943 0.0
C1385 C 0.66357 0.80403 0.12725 0.0
C1386 C 0.68978 0.80618 0.1198 0.0
C1387 C 0.69065 0.78306 0.10685 0.0
C1388 C 0.66552 0.75753 0.10159 0.0
C1389 C 0.63935 0.75527 0.10892 0.0
C1390 C 0.63827 0.77854 0.12152 0.0
C1391 C 0.62023 0.93626 0.09497 0.0
C1392 C 0.59184 0.92022 0.08318 0.0
C1393 C 0.63674 0.92103 0.11167 0.0
C1394 C 0.62555 0.88907 0.11747 0.0
C1395 C 0.59693 0.87319 0.10617 0.0
C1396 C 0.58046 0.88837 0.08948 0.0
C1397 C 0.64379 0.87195 0.13409 0.0
C1398 C 0.64514 0.84591 0.12546 0.0
C1399 C 0.66033 0.88111 0.15797 0.0
C1400 C 0.65927 0.90719 0.16943 0.0
C1401 C 0.63251 0.90798 0.17323 0.0
C1402 C 0.63166 0.93271 0.18397 0.0
C1403 C 0.65746 0.95669 0.19117 0.0
C1404 C 0.68417 0.95595 0.1877 0.0
C1405 C 0.68513 0.93128 0.17695 0.0
H1406 H 0.65676 0.97582 0.19948 0.0
H1407 H 0.66629 0.73959 0.09169 0.0
H1408 H 0.23923 0.6689 0.21523 0.0
H1409 H 0.22241 0.63844 0.1789 0.0
H1410 H 0.2289 0.71932 0.12863 0.0
H1411 H 0.24553 0.75031 0.16515 0.0
H1412 H 0.17013 0.6383 0.14697 0.0
H1413 H 0.24991 0.69963 0.0719 0.0
H1414 H 0.30262 0.72353 0.06969 0.0
H1415 H 0.32039 0.67706 0.14157 0.0
H1416 H 0.26788 0.65261 0.14408 0.0
H1417 H 0.11778 0.62195 0.01319 0.0
H1418 H 0.15989 0.64813 0.04314 0.0
H1419 H 0.15369 0.56217 0.08538 0.0
H1420 H 0.11174 0.53568 0.05547 0.0
H1421 H 0.2164 0.64202 0.07169 0.0
H1422 H 0.14128 0.57281 0.14308 0.0
H1423 H 0.08938 0.54163 0.14481 0.0
H1424 H 0.06486 0.59881 0.08292 0.0
H1425 H 0.11656 0.63057 0.08117 0.0
C1426 C 0.2374 0.68042 0.19649 0.0
C1427 C 0.24323 0.71201 0.19312 0.0
C1428 C 0.22797 0.66292 0.17574 0.0
C1429 C 0.22467 0.67669 0.15117 0.0
C1430 C 0.23169 0.7084 0.14751 0.0
C1431 C 0.24082 0.72597 0.16837 0.0
C1432 C 0.20973 0.65734 0.12999 0.0
C1433 C 0.18045 0.63883 0.13071 0.0
C1434 C 0.2232 0.65818 0.10878 0.0
C1435 C 0.25489 0.67456 0.10829 0.0
C1436 C 0.26507 0.69463 0.0873 0.0
C1437 C 0.29492 0.70816 0.08593 0.0
C1438 C 0.31482 0.70166 0.10539 0.0
C1439 C 0.30496 0.682 0.12646 0.0
C1440 C 0.27513 0.66845 0.12794 0.0
C1441 C 0.12604 0.60846 0.0283 0.0
C1442 C 0.11097 0.57688 0.03241 0.0
C1443 C 0.15027 0.62345 0.04525 0.0
C1444 C 0.15946 0.60707 0.06659 0.0
C1445 C 0.14674 0.57513 0.06899 0.0
C1446 C 0.1227 0.56006 0.0519 0.0
C1447 C 0.17698 0.62352 0.08875 0.0
C1448 C 0.20641 0.64153 0.08813 0.0
C1449 C 0.1639 0.62202 0.11035 0.0
C1450 C 0.13274 0.60378 0.11181 0.0
C1451 C 0.12478 0.57877 0.12995 0.0
C1452 C 0.09541 0.56101 0.13092 0.0
C1453 C 0.07384 0.56817 0.11393 0.0
C1454 C 0.08159 0.59322 0.09602 0.0
C1455 C 0.1109 0.6111 0.09503 0.0
H1456 H 0.05114 0.55434 0.11467 0.0
H1457 H 0.33789 0.71203 0.10419 0.0
H1458 H 0.34288 0.7771 0.82171 0.0
H1459 H 0.36209 0.79692 0.86314 0.0
H1460 H 0.27982 0.8045 0.86775 0.0
H1461 H 0.26169 0.7873 0.8255 0.0
H1462 H 0.31616 0.85289 0.87904 0.0
H1463 H 0.30984 0.75417 0.91298 0.0
H1464 H 0.31346 0.70336 0.91679 0.0
H1465 H 0.40605 0.74478 0.91784 0.0
H1466 H 0.40304 0.79592 0.9145 0.0
H1467 H 0.43372 0.88375 0.00339 0.0
H1468 H 0.38897 0.85 0.98035 0.0
H1469 H 0.39993 0.91721 0.91599 0.0
H1470 H 0.4431 0.95157 0.93972 0.0
H1471 H 0.38651 0.8232 0.94396 0.0
H1472 H 0.34346 0.9089 0.87402 0.0
H1473 H 0.33366 0.95549 0.87638 0.0
H1474 H 0.32695 0.93236 0.95571 0.0
H1475 H 0.33625 0.88537 0.95379 0.0
C1476 C 0.32892 0.78293 0.83158 0.0
C1477 C 0.3012 0.7818 0.81994 0.0
C1478 C 0.33972 0.79377 0.85557 0.0
C1479 C 0.32244 0.80231 0.86878 0.0
C1480 C 0.29383 0.79861 0.85792 0.0
C1481 C 0.28347 0.78881 0.83367 0.0
C1482 C 0.33539 0.81873 0.8921 0.0
C1483 C 0.33117 0.8461 0.89347 0.0
C1484 C 0.35406 0.80946 0.91161 0.0
C1485 C 0.35617 0.77887 0.91337 0.0
C1486 C 0.33096 0.75245 0.91392 0.0
C1487 C 0.33293 0.72359 0.9161 0.0
C1488 C 0.35996 0.72083 0.91743 0.0
C1489 C 0.38513 0.74695 0.91683 0.0
C1490 C 0.38333 0.77588 0.91497 0.0
C1491 C 0.42576 0.89162 0.98467 0.0
C1492 C 0.44168 0.92008 0.97318 0.0
C1493 C 0.40034 0.87231 0.97147 0.0
C1494 C 0.39093 0.88088 0.94635 0.0
C1495 C 0.40606 0.91019 0.93552 0.0
C1496 C 0.43092 0.92985 0.94903 0.0
C1497 C 0.36829 0.85805 0.93019 0.0
C1498 C 0.37075 0.82952 0.93007 0.0
C1499 C 0.34686 0.86554 0.91262 0.0
C1500 C 0.34068 0.89358 0.91376 0.0
C1501 C 0.33965 0.91357 0.89193 0.0
C1502 C 0.33425 0.94012 0.89321 0.0
C1503 C 0.32974 0.94691 0.91619 0.0
C1504 C 0.33052 0.92712 0.93793 0.0
C1505 C 0.33589 0.90054 0.93677 0.0
H1506 H 0.32561 0.9675 0.91714 0.0
H1507 H 0.3614 0.69845 0.91893 0.0
H1508 H 0.1993 0.26708 0.90856 0.0
H1509 H 0.18496 0.30193 0.92791 0.0
H1510 H 0.1417 0.32413 0.85523 0.0
H1511 H 0.15665 0.28976 0.8357 0.0
H1512 H 0.16937 0.37442 0.88 0.0
H1513 H 0.10374 0.27251 0.89982 0.0
H1514 H 0.09037 0.21862 0.91667 0.0
H1515 H 0.1324 0.24633 0.99075 0.0
H1516 H 0.14638 0.30041 0.97424 0.0
H1517 H 0.05366 0.38498 0.95438 0.0
H1518 H 0.07448 0.35799 0.93311 0.0
H1519 H 0.15923 0.4281 0.94758 0.0
H1520 H 0.13834 0.45578 0.96891 0.0
H1521 H 0.11273 0.33287 0.95227 0.0
H1522 H 0.19921 0.42896 0.89952 0.0
H1523 H 0.208 0.48066 0.87828 0.0
H1524 H 0.11606 0.46205 0.8647 0.0
H1525 H 0.1067 0.41019 0.88566 0.0
C1526 C 0.18678 0.27946 0.89671 0.0
C1527 C 0.17895 0.27558 0.87064 0.0
C1528 C 0.17858 0.29936 0.90778 0.0
C1529 C 0.16192 0.31544 0.89312 0.0
C1530 C 0.15457 0.31205 0.86696 0.0
C1531 C 0.16309 0.29239 0.85581 0.0
C1532 C 0.15116 0.33476 0.90521 0.0
C1533 C 0.1571 0.3654 0.89589 0.0
C1534 C 0.13484 0.32298 0.92576 0.0
C1535 C 0.12637 0.29049 0.93574 0.0
C1536 C 0.11032 0.2671 0.91966 0.0
C1537 C 0.1026 0.23653 0.92915 0.0
C1538 C 0.1106 0.22906 0.95475 0.0
C1539 C 0.12627 0.25215 0.97092 0.0
C1540 C 0.13408 0.28277 0.96151 0.0
C1541 C 0.07674 0.39494 0.95301 0.0
C1542 C 0.09431 0.4226 0.96359 0.0
C1543 C 0.08864 0.37934 0.94081 0.0
C1544 C 0.11845 0.39087 0.93872 0.0
C1545 C 0.1361 0.41881 0.94875 0.0
C1546 C 0.12414 0.43457 0.96103 0.0
C1547 C 0.13078 0.37261 0.92704 0.0
C1548 C 0.12525 0.3421 0.93655 0.0
C1549 C 0.14692 0.38439 0.90636 0.0
C1550 C 0.1523 0.41582 0.89443 0.0
C1551 C 0.18088 0.43594 0.89205 0.0
C1552 C 0.18596 0.46525 0.88003 0.0
C1553 C 0.1626 0.47461 0.87014 0.0
C1554 C 0.13413 0.45477 0.87242 0.0
C1555 C 0.12893 0.42546 0.88444 0.0
H1556 H 0.16658 0.49722 0.86067 0.0
H1557 H 0.1046 0.20537 0.96206 0.0
H1558 H 0.73764 0.2167 0.81616 0.0
H1559 H 0.70834 0.1818 0.84745 0.0
H1560 H 0.63336 0.15806 0.78979 0.0
H1561 H 0.66323 0.19077 0.75826 0.0
H1562 H 0.66635 0.18233 0.86685 0.0
H1563 H 0.58488 0.10056 0.7989 0.0
H1564 H 0.58097 0.0729 0.76202 0.0
H1565 H 0.66581 0.06914 0.7883 0.0
H1566 H 0.67022 0.09729 0.8251 0.0
H1567 H 0.55312 0.0839 0.94067 0.0
H1568 H 0.57485 0.11715 0.90424 0.0
H1569 H 0.62204 0.05891 0.89992 0.0
H1570 H 0.60092 0.02629 0.93599 0.0
H1571 H 0.599 0.0764 0.85295 0.0
H1572 H 0.65484 0.12112 0.93008 0.0
H1573 H 0.66 0.14238 0.97067 0.0
H1574 H 0.63147 0.21351 0.93142 0.0
H1575 H 0.62562 0.19229 0.89061 0.0
C1576 C 0.71524 0.2031 0.80998 0.0
C1577 C 0.70306 0.2057 0.7845 0.0
C1578 C 0.69826 0.18344 0.828 0.0
C1579 C 0.66849 0.16656 0.82113 0.0
C1580 C 0.65635 0.16961 0.79568 0.0
C1581 C 0.67345 0.18865 0.77761 0.0
C1582 C 0.6499 0.14713 0.8407 0.0
C1583 C 0.65164 0.1592 0.86368 0.0
C1584 C 0.63025 0.11693 0.83689 0.0
C1585 C 0.6282 0.10153 0.81426 0.0
C1586 C 0.60278 0.09409 0.79659 0.0
C1587 C 0.60048 0.07839 0.77573 0.0
C1588 C 0.62327 0.06955 0.77267 0.0
C1589 C 0.64836 0.07638 0.79049 0.0
C1590 C 0.6509 0.09244 0.81119 0.0
C1591 C 0.56771 0.07802 0.93156 0.0
C1592 C 0.57541 0.0526 0.94116 0.0
C1593 C 0.58025 0.09708 0.91091 0.0
C1594 C 0.60024 0.09061 0.89945 0.0
C1595 C 0.60671 0.06439 0.90837 0.0
C1596 C 0.59465 0.04579 0.92906 0.0
C1597 C 0.61586 0.11146 0.87898 0.0
C1598 C 0.61344 0.09972 0.85587 0.0
C1599 C 0.63519 0.14165 0.88293 0.0
C1600 C 0.63947 0.15492 0.90733 0.0
C1601 C 0.64949 0.14118 0.93012 0.0
C1602 C 0.65254 0.15322 0.95317 0.0
C1603 C 0.64597 0.17923 0.95364 0.0
C1604 C 0.63648 0.19332 0.93103 0.0
C1605 C 0.63329 0.1813 0.90794 0.0
H1606 H 0.6483 0.18848 0.97151 0.0
H1607 H 0.62139 0.05722 0.75661 0.0
H1608 H 0.84733 0.74326 0.78519 0.0
H1609 H 0.88166 0.72354 0.81393 0.0
H1610 H 0.81006 0.6419 0.83272 0.0
H1611 H 0.77612 0.66255 0.80571 0.0
H1612 H 0.84298 0.64943 0.87234 0.0
H1613 H 0.86573 0.65213 0.78862 0.0
H1614 H 0.88031 0.67625 0.74697 0.0
H1615 H 0.96112 0.73636 0.7836 0.0
H1616 H 0.94685 0.71283 0.82549 0.0
H1617 H 0.91901 0.54851 0.92061 0.0
H1618 H 0.89048 0.57486 0.89206 0.0
H1619 H 0.96536 0.65823 0.89357 0.0
H1620 H 0.99418 0.6319 0.92229 0.0
H1621 H 0.93392 0.65332 0.84538 0.0
H1622 H 0.91039 0.64305 0.92987 0.0
H1623 H 0.89427 0.61407 0.96975 0.0
H1624 H 0.81159 0.56351 0.92925 0.0
H1625 H 0.82754 0.59128 0.88899 0.0
C1626 C 0.83888 0.72148 0.79596 0.0
C1627 C 0.80857 0.70503 0.79341 0.0
C1628 C 0.85872 0.70969 0.81218 0.0
C1629 C 0.84914 0.68048 0.82575 0.0
C1630 C 0.81879 0.66439 0.82306 0.0
C1631 C 0.79912 0.67632 0.80733 0.0
C1632 C 0.86993 0.66615 0.84245 0.0
C1633 C 0.8626 0.65013 0.86602 0.0
C1634 C 0.89634 0.66699 0.83527 0.0
C1635 C 0.90509 0.68096 0.81017 0.0
C1636 C 0.88655 0.6706 0.78778 0.0
C1637 C 0.89475 0.68416 0.76414 0.0
C1638 C 0.92158 0.70788 0.76265 0.0
C1639 C 0.94032 0.71802 0.78479 0.0
C1640 C 0.93219 0.70458 0.80848 0.0
C1641 C 0.92979 0.57234 0.91466 0.0
C1642 C 0.95936 0.58768 0.9241 0.0
C1643 C 0.91315 0.58763 0.8983 0.0
C1644 C 0.92519 0.61905 0.89058 0.0
C1645 C 0.95506 0.63415 0.899 0.0
C1646 C 0.97173 0.61887 0.91554 0.0
C1647 C 0.9064 0.63611 0.87474 0.0
C1648 C 0.91422 0.65269 0.85152 0.0
C1649 C 0.8801 0.63526 0.88197 0.0
C1650 C 0.87028 0.61911 0.90633 0.0
C1651 C 0.88884 0.62561 0.92941 0.0
C1652 C 0.87974 0.6094 0.9521 0.0
C1653 C 0.85192 0.58707 0.95203 0.0
C1654 C 0.83314 0.58083 0.92927 0.0
C1655 C 0.84223 0.59674 0.9065 0.0
H1656 H 0.84491 0.5746 0.96962 0.0
H1657 H 0.92789 0.71837 0.74433 0.0
H1658 H 0.26894 0.34236 0.19762 0.0
H1659 H 0.2366 0.36436 0.16933 0.0
H1660 H 0.16219 0.28805 0.19101 0.0
H1661 H 0.19495 0.26597 0.2199 0.0
H1662 H 0.15457 0.3067 0.13792 0.0
H1663 H 0.18102 0.35604 0.2155 0.0
H1664 H 0.21554 0.38366 0.25051 0.0
H1665 H 0.25663 0.45722 0.1974 0.0
H1666 H 0.22259 0.42984 0.16202 0.0
H1667 H 0.05501 0.38088 0.079 0.0
H1668 H 0.08225 0.35415 0.10895 0.0
H1669 H 0.16009 0.43441 0.10684 0.0
H1670 H 0.13271 0.46146 0.07767 0.0
H1671 H 0.16417 0.41141 0.15148 0.0
H1672 H 0.14186 0.36387 0.0741 0.0
H1673 H 0.1111 0.33687 0.03726 0.0
H1674 H 0.06618 0.26128 0.08703 0.0
H1675 H 0.09644 0.28803 0.12419 0.0
C1676 C 0.24569 0.32989 0.19619 0.0
C1677 C 0.23487 0.30184 0.2108 0.0
C1678 C 0.22703 0.34272 0.17997 0.0
C1679 C 0.19651 0.32836 0.17779 0.0
C1680 C 0.18548 0.29991 0.192 0.0
C1681 C 0.20432 0.28705 0.2085 0.0
C1682 C 0.17672 0.34389 0.16151 0.0
C1683 C 0.15635 0.32938 0.14124 0.0
C1684 C 0.17922 0.37405 0.16484 0.0
C1685 C 0.19937 0.3908 0.1861 0.0
C1686 C 0.19751 0.37804 0.21127 0.0
C1687 C 0.21699 0.39365 0.23118 0.0
C1688 C 0.2383 0.42215 0.22617 0.0
C1689 C 0.24012 0.43514 0.20125 0.0
C1690 C 0.22071 0.4196 0.18126 0.0
C1691 C 0.07783 0.39314 0.08514 0.0
C1692 C 0.09124 0.42376 0.0756 0.0
C1693 C 0.09373 0.3775 0.1022 0.0
C1694 C 0.12393 0.39152 0.11021 0.0
C1695 C 0.13706 0.42243 0.10133 0.0
C1696 C 0.12115 0.43814 0.08446 0.0
C1697 C 0.14184 0.37437 0.12758 0.0
C1698 C 0.16205 0.38864 0.1481 0.0
C1699 C 0.13949 0.34419 0.12418 0.0
C1700 C 0.12116 0.32812 0.10192 0.0
C1701 C 0.12525 0.3416 0.07719 0.0
C1702 C 0.10794 0.32633 0.05625 0.0
C1703 C 0.08663 0.29742 0.05981 0.0
C1704 C 0.08264 0.28371 0.08431 0.0
C1705 C 0.09987 0.29891 0.10531 0.0
H1706 H 0.07327 0.28562 0.04358 0.0
H1707 H 0.25337 0.43419 0.24161 0.0
H1708 H 0.18982 0.68086 0.75414 0.0
H1709 H 0.15059 0.64734 0.77841 0.0
H1710 H 0.18632 0.70618 0.83955 0.0
H1711 H 0.22624 0.73848 0.816 0.0
H1712 H 0.17554 0.62773 0.83713 0.0
H1713 H 0.10565 0.69722 0.84895 0.0
H1714 H 0.07923 0.72841 0.82331 0.0
H1715 H 0.07623 0.68665 0.7566 0.0
H1716 H 0.10251 0.65519 0.78186 0.0
H1717 H 0.12433 0.5799 0.95313 0.0
H1718 H 0.14418 0.61052 0.9159 0.0
H1719 H 0.05889 0.57913 0.87213 0.0
H1720 H 0.0385 0.54889 0.91014 0.0
H1721 H 0.08629 0.63642 0.8573 0.0
H1722 H 0.11174 0.54872 0.87071 0.0
H1723 H 0.13121 0.51037 0.89368 0.0
H1724 H 0.21707 0.5787 0.90294 0.0
H1725 H 0.19799 0.61779 0.88099 0.0
C1726 C 0.18859 0.68716 0.77236 0.0
C1727 C 0.21054 0.7128 0.78293 0.0
C1728 C 0.16619 0.66805 0.78619 0.0
C1729 C 0.16509 0.67465 0.81057 0.0
C1730 C 0.18628 0.70104 0.82056 0.0
C1731 C 0.20906 0.71957 0.80707 0.0
C1732 C 0.14581 0.65159 0.8277 0.0
C1733 C 0.15592 0.62941 0.84151 0.0
C1734 C 0.11981 0.65336 0.83283 0.0
C1735 C 0.10639 0.67416 0.81725 0.0
C1736 C 0.09955 0.69489 0.82877 0.0
C1737 C 0.08447 0.7125 0.81433 0.0
C1738 C 0.07591 0.7094 0.78836 0.0
C1739 C 0.0828 0.68898 0.77672 0.0
C1740 C 0.09802 0.67145 0.79106 0.0
C1741 C 0.10965 0.57959 0.93563 0.0
C1742 C 0.07986 0.56158 0.93452 0.0
C1743 C 0.12112 0.59704 0.91424 0.0
C1744 C 0.10334 0.59649 0.89083 0.0
C1745 C 0.07321 0.57971 0.88986 0.0
C1746 C 0.06152 0.56247 0.91157 0.0
C1747 C 0.1167 0.61316 0.86766 0.0
C1748 C 0.10571 0.63432 0.85287 0.0
C1749 C 0.14162 0.60989 0.86114 0.0
C1750 C 0.15327 0.58635 0.87442 0.0
C1751 C 0.13471 0.55571 0.87791 0.0
C1752 C 0.14569 0.53382 0.89079 0.0
C1753 C 0.17534 0.5421 0.89984 0.0
C1754 C 0.19408 0.57233 0.89603 0.0
C1755 C 0.18315 0.59439 0.88344 0.0
H1756 H 0.1838 0.52508 0.90971 0.0
H1757 H 0.06414 0.72296 0.77723 0.0
H1758 H 0.36287 0.2528 0.81296 0.0
H1759 H 0.38574 0.22004 0.84011 0.0
H1760 H 0.31515 0.14046 0.81299 0.0
H1761 H 0.29215 0.17369 0.78527 0.0
H1762 H 0.33344 0.13131 0.86547 0.0
H1763 H 0.38016 0.1639 0.79096 0.0
H1764 H 0.40515 0.20099 0.75787 0.0
H1765 H 0.47494 0.24608 0.81437 0.0
H1766 H 0.45014 0.20952 0.84786 0.0
H1767 H 0.41329 0.03389 0.92052 0.0
H1768 H 0.3857 0.06044 0.89074 0.0
H1769 H 0.45611 0.14619 0.90312 0.0
H1770 H 0.48397 0.11973 0.93237 0.0
H1771 H 0.43543 0.14928 0.85608 0.0
H1772 H 0.38798 0.11837 0.93086 0.0
H1773 H 0.36305 0.08166 0.96422 0.0
H1774 H 0.29478 0.03389 0.90783 0.0
H1775 H 0.31955 0.06998 0.87408 0.0
C1776 C 0.35189 0.2283 0.8129 0.0
C1777 C 0.32522 0.21618 0.79708 0.0
C1778 C 0.3652 0.20941 0.82848 0.0
C1779 C 0.35269 0.17737 0.82879 0.0
C1780 C 0.32558 0.16497 0.81341 0.0
C1781 C 0.31223 0.18406 0.79757 0.0
C1782 C 0.36877 0.15754 0.84438 0.0
C1783 C 0.35557 0.13497 0.86305 0.0
C1784 C 0.39804 0.16223 0.84205 0.0
C1785 C 0.41316 0.18411 0.82195 0.0
C1786 C 0.40074 0.18185 0.79636 0.0
C1787 C 0.41488 0.20276 0.77752 0.0
C1788 C 0.44159 0.22591 0.78402 0.0
C1789 C 0.45424 0.22815 0.80937 0.0
C1790 C 0.44016 0.20732 0.82828 0.0
C1791 C 0.42325 0.05836 0.91665 0.0
C1792 C 0.4513 0.0743 0.92914 0.0
C1793 C 0.4071 0.07377 0.8997 0.0
C1794 C 0.41811 0.10587 0.89465 0.0
C1795 C 0.44655 0.12161 0.90637 0.0
C1796 C 0.46271 0.10624 0.92326 0.0
C1797 C 0.40033 0.12313 0.8775 0.0
C1798 C 0.41325 0.14539 0.85851 0.0
C1799 C 0.37086 0.11816 0.87964 0.0
C1800 C 0.35579 0.09668 0.89992 0.0
C1801 C 0.36775 0.09992 0.92556 0.0
C1802 C 0.35364 0.07925 0.94454 0.0
C1803 C 0.32738 0.05546 0.93814 0.0
C1804 C 0.31514 0.05232 0.91275 0.0
C1805 C 0.32921 0.07287 0.89369 0.0
H1806 H 0.3165 0.03948 0.95286 0.0
H1807 H 0.4525 0.24209 0.76941 0.0
H1808 H 0.7531 0.29488 0.82915 0.0
H1809 H 0.77085 0.319 0.86949 0.0
H1810 H 0.85775 0.3247 0.8638 0.0
H1811 H 0.83982 0.3001 0.82418 0.0
H1812 H 0.84786 0.30829 0.91004 0.0
H1813 H 0.83234 0.38483 0.84504 0.0
H1814 H 0.80297 0.40682 0.81218 0.0
H1815 H 0.74956 0.40524 0.86691 0.0
H1816 H 0.77831 0.38266 0.90001 0.0
H1817 H 0.9408 0.46589 0.93832 0.0
H1818 H 0.89395 0.43467 0.91703 0.0
H1819 H 0.88053 0.3708 0.98349 0.0
H1820 H 0.92883 0.40099 0.00407 0.0
H1821 H 0.83962 0.40791 0.91603 0.0
H1822 H 0.85527 0.30045 0.96688 0.0
H1823 H 0.89308 0.28385 0.9936 0.0
H1824 H 0.95941 0.35576 0.95697 0.0
H1825 H 0.92193 0.37254 0.92992 0.0
C1826 C 0.7759 0.30112 0.83687 0.0
C1827 C 0.79522 0.29546 0.8241 0.0
C1828 C 0.78599 0.31485 0.85975 0.0
C1829 C 0.81561 0.32363 0.86965 0.0
C1830 C 0.83473 0.31771 0.85674 0.0
C1831 C 0.82457 0.30365 0.83416 0.0
C1832 C 0.82759 0.34034 0.89274 0.0
C1833 C 0.84564 0.32983 0.91159 0.0
C1834 C 0.82463 0.36838 0.8948 0.0
C1835 C 0.80717 0.38164 0.87489 0.0
C1836 C 0.81414 0.38888 0.85 0.0
C1837 C 0.79763 0.40148 0.83134 0.0
C1838 C 0.77436 0.40734 0.83743 0.0
C1839 C 0.76753 0.40059 0.8622 0.0
C1840 C 0.78389 0.38785 0.88091 0.0
C1841 C 0.92749 0.4456 0.94861 0.0
C1842 C 0.93859 0.43516 0.97238 0.0
C1843 C 0.90056 0.42783 0.93652 0.0
C1844 C 0.88413 0.39975 0.94832 0.0
C1845 C 0.8933 0.39183 0.97369 0.0
C1846 C 0.92081 0.40902 0.98544 0.0
C1847 C 0.86144 0.37684 0.93231 0.0
C1848 C 0.84097 0.38584 0.91503 0.0
C1849 C 0.86331 0.34808 0.93079 0.0
C1850 C 0.8859 0.33794 0.94671 0.0
C1851 C 0.87793 0.31264 0.96455 0.0
C1852 C 0.89928 0.30322 0.97973 0.0
C1853 C 0.92863 0.31882 0.97705 0.0
C1854 C 0.93668 0.34376 0.95908 0.0
C1855 C 0.91541 0.35321 0.94382 0.0
H1856 H 0.94513 0.31152 0.98886 0.0
H1857 H 0.76168 0.4172 0.82298 0.0
H1858 H 0.71227 0.84715 0.83951 0.0
H1859 H 0.6799 0.85778 0.86248 0.0
H1860 H 0.74604 0.8765 0.9278 0.0
H1861 H 0.77747 0.8631 0.90588 0.0
H1862 H 0.69787 0.85175 0.94427 0.0
H1863 H 0.73243 0.93446 0.88173 0.0
H1864 H 0.74155 0.95929 0.83899 0.0
H1865 H 0.64964 0.92732 0.81348 0.0
H1866 H 0.63999 0.90196 0.85601 0.0
H1867 H 0.64913 0.95352 0.99631 0.0
H1868 H 0.67777 0.93478 0.97484 0.0
H1869 H 0.60034 0.88694 0.92572 0.0
H1870 H 0.57147 0.90486 0.94742 0.0
H1871 H 0.6528 0.9258 0.90132 0.0
H1872 H 0.62065 0.84534 0.96762 0.0
H1873 H 0.615 0.82495 0.01194 0.0
H1874 H 0.70782 0.85903 0.0322 0.0
H1875 H 0.71402 0.88008 0.98804 0.0
C1876 C 0.71981 0.85278 0.85896 0.0
C1877 C 0.74795 0.85479 0.87052 0.0
C1878 C 0.70133 0.8594 0.87199 0.0
C1879 C 0.71077 0.86903 0.89666 0.0
C1880 C 0.73824 0.86957 0.90868 0.0
C1881 C 0.75646 0.8623 0.8959 0.0
C1882 C 0.69259 0.87948 0.90968 0.0
C1883 C 0.68833 0.86819 0.93487 0.0
C1884 C 0.67979 0.90081 0.89756 0.0
C1885 C 0.68551 0.91604 0.87197 0.0
C1886 C 0.71418 0.93255 0.86695 0.0
C1887 C 0.71944 0.94674 0.84278 0.0
C1888 C 0.69619 0.9448 0.82351 0.0
C1889 C 0.66763 0.92874 0.82841 0.0
C1890 C 0.66224 0.91447 0.85255 0.0
C1891 C 0.63823 0.93906 0.98091 0.0
C1892 C 0.60802 0.93064 0.97359 0.0
C1893 C 0.65459 0.92829 0.96875 0.0
C1894 C 0.64111 0.9094 0.94878 0.0
C1895 C 0.6111 0.90144 0.94113 0.0
C1896 C 0.59466 0.91165 0.9536 0.0
C1897 C 0.65832 0.8981 0.93567 0.0
C1898 C 0.66238 0.90931 0.91054 0.0
C1899 C 0.67149 0.87732 0.94804 0.0
C1900 C 0.66778 0.86459 0.97457 0.0
C1901 C 0.63985 0.84877 0.98157 0.0
C1902 C 0.63655 0.83703 0.00666 0.0
C1903 C 0.66103 0.84077 0.0249 0.0
C1904 C 0.68887 0.8562 0.01806 0.0
C1905 C 0.69229 0.86802 0.993 0.0
H1906 H 0.65844 0.83165 0.04431 0.0
H1907 H 0.70031 0.95581 0.80481 0.0
H1908 H 0.83457 0.68555 0.14639 0.0
H1909 H 0.84794 0.65246 0.12394 0.0
H1910 H 0.93039 0.72487 0.11508 0.0
H1911 H 0.91661 0.75821 0.13646 0.0
H1912 H 0.90852 0.70241 0.07234 0.0
H1913 H 0.92128 0.65815 0.15795 0.0
H1914 H 0.9061 0.6341 0.19941 0.0
H1915 H 0.83886 0.55907 0.16301 0.0
H1916 H 0.85341 0.58289 0.12128 0.0
H1917 H 0.99385 0.62831 0.04137 0.0
H1918 H 0.97192 0.65344 0.06347 0.0
H1919 H 0.89038 0.57751 0.05476 0.0
H1920 H 0.91232 0.55176 0.03251 0.0
H1921 H 0.90539 0.59791 0.1035 0.0
H1922 H 0.89669 0.64257 0.01755 0.0
H1923 H 0.91383 0.66826 0.97703 0.0
H1924 H 0.97682 0.74371 0.0159 0.0
H1925 H 0.96011 0.71862 0.05663 0.0
C1926 C 0.85557 0.69434 0.13972 0.0
C1927 C 0.87421 0.72477 0.1427 0.0
C1928 C 0.8633 0.67532 0.127 0.0
C1929 C 0.89023 0.68609 0.11769 0.0
C1930 C 0.90934 0.71605 0.12171 0.0
C1931 C 0.90142 0.73514 0.13397 0.0
C1932 C 0.89834 0.66697 0.10281 0.0
C1933 C 0.90807 0.67967 0.07936 0.0
C1934 C 0.89692 0.63686 0.11141 0.0
C1935 C 0.88822 0.62247 0.13648 0.0
C1936 C 0.90311 0.63664 0.15877 0.0
C1937 C 0.89465 0.62303 0.18232 0.0
C1938 C 0.87147 0.59512 0.18383 0.0
C1939 C 0.85677 0.58072 0.1618 0.0
C1940 C 0.86513 0.59425 0.1382 0.0
C1941 C 0.97123 0.61676 0.04407 0.0
C1942 C 0.95487 0.58793 0.03499 0.0
C1943 C 0.95868 0.63132 0.05667 0.0
C1944 C 0.92939 0.61759 0.06049 0.0
C1945 C 0.91301 0.58859 0.05192 0.0
C1946 C 0.92558 0.57394 0.03917 0.0
C1947 C 0.91632 0.63383 0.07354 0.0
C1948 C 0.90555 0.62055 0.09649 0.0
C1949 C 0.91709 0.66361 0.06468 0.0
C1950 C 0.92726 0.67861 0.04018 0.0
C1951 C 0.91433 0.66454 0.01749 0.0
C1952 C 0.92393 0.679 0.99448 0.0
C1953 C 0.94647 0.70746 0.99392 0.0
C1954 C 0.95938 0.72164 0.01636 0.0
C1955 C 0.94979 0.70737 0.03939 0.0
H1956 H 0.95386 0.71857 0.97609 0.0
H1957 H 0.86495 0.58462 0.20208 0.0
H1958 H 0.29626 0.79355 0.19579 0.0
H1959 H 0.32531 0.82447 0.16304 0.0
H1960 H 0.39564 0.86713 0.22059 0.0
H1961 H 0.36577 0.83739 0.25356 0.0
H1962 H 0.38995 0.90773 0.17733 0.0
H1963 H 0.40167 0.80683 0.19426 0.0
H1964 H 0.37604 0.75128 0.20224 0.0
H1965 H 0.32017 0.75049 0.13157 0.0
H1966 H 0.34627 0.80561 0.12275 0.0
H1967 H 0.49935 0.96061 0.09594 0.0
H1968 H 0.47453 0.93242 0.13251 0.0
H1969 H 0.40197 0.87882 0.08166 0.0
H1970 H 0.4265 0.90675 0.04548 0.0
H1971 H 0.41085 0.84384 0.12349 0.0
H1972 H 0.39986 0.9406 0.10282 0.0
H1973 H 0.41586 0.99657 0.09474 0.0
H1974 H 0.46095 0.00707 0.17062 0.0
H1975 H 0.44552 0.9511 0.17904 0.0
C1976 C 0.31743 0.81022 0.20153 0.0
C1977 C 0.32851 0.81339 0.22729 0.0
C1978 C 0.33425 0.82765 0.18275 0.0
C1979 C 0.36293 0.84771 0.18934 0.0
C1980 C 0.37361 0.85182 0.21503 0.0
C1981 C 0.35658 0.83474 0.23383 0.0
C1982 C 0.3826 0.86196 0.16963 0.0
C1983 C 0.39499 0.89385 0.16585 0.0
C1984 C 0.38865 0.84387 0.15427 0.0
C1985 C 0.37605 0.81016 0.15775 0.0
C1986 C 0.38437 0.79457 0.18018 0.0
C1987 C 0.36975 0.76317 0.18485 0.0
C1988 C 0.34659 0.74727 0.16735 0.0
C1989 C 0.3384 0.76263 0.14491 0.0
C1990 C 0.35332 0.79387 0.13992 0.0
C1991 C 0.47855 0.94214 0.09273 0.0
C1992 C 0.46483 0.93583 0.06793 0.0
C1993 C 0.46423 0.92626 0.11356 0.0
C1994 C 0.43612 0.90375 0.10983 0.0
C1995 C 0.42353 0.89603 0.0851 0.0
C1996 C 0.4376 0.91203 0.06442 0.0
C1997 C 0.41861 0.8899 0.13115 0.0
C1998 C 0.40645 0.85793 0.13523 0.0
C1999 C 0.41238 0.90804 0.14646 0.0
C2000 C 0.42188 0.94169 0.14145 0.0
C2001 C 0.41343 0.95485 0.1177 0.0
C2002 C 0.42234 0.98656 0.11307 0.0
C2003 C 0.43949 0.00536 0.13213 0.0
C2004 C 0.44772 0.99247 0.15586 0.0
C2005 C 0.4389 0.96076 0.16058 0.0
H2006 H 0.44634 0.02991 0.12852 0.0
H2007 H 0.33497 0.72309 0.17118 0.0
H2008 H 0.69929 0.20911 0.18383 0.0
H2009 H 0.67964 0.1882 0.14283 0.0
H2010 H 0.76678 0.21427 0.12457 0.0
H2011 H 0.7866 0.23367 0.16634 0.0
H2012 H 0.67936 0.20563 0.0953 0.0
H2013 H 0.76821 0.16255 0.08866 0.0
H2014 H 0.81007 0.15322 0.1154 0.0
H2015 H 0.76428 0.12939 0.18006 0.0
H2016 H 0.72208 0.13825 0.15368 0.0
H2017 H 0.60632 0.10837 1.00175 0.0
H2018 H 0.65249 0.14477 0.02038 0.0
H2019 H 0.65159 0.08238 0.08724 0.0
H2020 H 0.60627 0.04539 0.06809 0.0
H2021 H 0.70644 0.11903 0.08206 0.0
H2022 H 0.61238 0.13178 0.07969 0.0
H2023 H 0.56787 0.1386 0.05613 0.0
H2024 H 0.61994 0.21894 0.0148 0.0
H2025 H 0.66472 0.21237 0.03803 0.0
C2026 C 0.71425 0.21069 0.17097 0.0
C2027 C 0.7444 0.2225 0.17839 0.0
C2028 C 0.70302 0.19888 0.14746 0.0
C2029 C 0.72174 0.1991 0.13077 0.0
C2030 C 0.75193 0.21312 0.13737 0.0
C2031 C 0.7632 0.22425 0.16121 0.0
C2032 C 0.70923 0.182 0.10784 0.0
C2033 C 0.68569 0.1871 0.0921 0.0
C2034 C 0.71756 0.15794 0.10341 0.0
C2035 C 0.74218 0.15127 0.11927 0.0
C2036 C 0.76705 0.1551 0.10856 0.0
C2037 C 0.79082 0.14994 0.12366 0.0
C2038 C 0.78985 0.14076 0.14945 0.0
C2039 C 0.76502 0.13651 0.16014 0.0
C2040 C 0.74116 0.14156 0.14512 0.0
C2041 C 0.61663 0.10206 0.02003 0.0
C2042 C 0.60257 0.07456 0.03389 0.0
C2043 C 0.64299 0.1228 0.03061 0.0
C2044 C 0.65492 0.1167 0.05553 0.0
C2045 C 0.64265 0.08767 0.06805 0.0
C2046 C 0.61668 0.06658 0.05718 0.0
C2047 C 0.67577 0.14182 0.07049 0.0
C2048 C 0.70089 0.13833 0.0846 0.0
C2049 C 0.66858 0.16706 0.07383 0.0
C2050 C 0.64178 0.17148 0.0604 0.0
C2051 C 0.61427 0.15089 0.06557 0.0
C2052 C 0.58903 0.15468 0.05227 0.0
C2053 C 0.59108 0.17916 0.03395 0.0
C2054 C 0.61838 0.19997 0.02898 0.0
C2055 C 0.64369 0.19625 0.04221 0.0
H2056 H 0.57152 0.18204 0.02364 0.0
H2057 H 0.80832 0.13691 0.16115 0.0
H2058 H 0.69608 0.7574 0.7904 0.0
H2059 H 0.6548 0.73665 0.81487 0.0
H2060 H 0.65544 0.64607 0.8141 0.0
H2061 H 0.69601 0.6668 0.78928 0.0
H2062 H 0.60109 0.64437 0.80755 0.0
H2063 H 0.69107 0.69412 0.86458 0.0
H2064 H 0.73336 0.73982 0.87722 0.0
H2065 H 0.67616 0.78577 0.88411 0.0
H2066 H 0.63352 0.74043 0.87118 0.0
H2067 H 0.57903 0.55274 0.91776 0.0
H2068 H 0.59497 0.58812 0.8814 0.0
H2069 H 0.55926 0.64904 0.90346 0.0
H2070 H 0.54278 0.61298 0.94033 0.0
H2071 H 0.61845 0.67709 0.89446 0.0
H2072 H 0.52854 0.61891 0.85018 0.0
H2073 H 0.48714 0.57279 0.83715 0.0
H2074 H 0.54383 0.54242 0.80603 0.0
H2075 H 0.58568 0.58804 0.81922 0.0
C2076 C 0.68699 0.73303 0.79529 0.0
C2077 C 0.69873 0.71349 0.78787 0.0
C2078 C 0.66354 0.72122 0.80924 0.0
C2079 C 0.65211 0.68981 0.81648 0.0
C2080 C 0.66366 0.67033 0.80854 0.0
C2081 C 0.68679 0.68209 0.79434 0.0
C2082 C 0.62951 0.67693 0.83368 0.0
C2083 C 0.60475 0.65159 0.82652 0.0
C2084 C 0.63358 0.68729 0.85801 0.0
C2085 C 0.65916 0.71403 0.8667 0.0
C2086 C 0.68753 0.71399 0.86876 0.0
C2087 C 0.71155 0.73983 0.87594 0.0
C2088 C 0.70744 0.7657 0.88141 0.0
C2089 C 0.6793 0.76573 0.87983 0.0
C2090 C 0.6552 0.73997 0.87259 0.0
C2091 C 0.57415 0.57344 0.91473 0.0
C2092 C 0.55982 0.58024 0.93189 0.0
C2093 C 0.58312 0.59358 0.89383 0.0
C2094 C 0.57813 0.62111 0.88963 0.0
C2095 C 0.56314 0.62778 0.90635 0.0
C2096 C 0.55365 0.6072 0.92725 0.0
C2097 C 0.5911 0.64332 0.86882 0.0
C2098 C 0.61407 0.6705 0.87521 0.0
C2099 C 0.58545 0.63461 0.84377 0.0
C2100 C 0.56031 0.60702 0.83569 0.0
C2101 C 0.53224 0.60233 0.84068 0.0
C2102 C 0.50867 0.57627 0.83324 0.0
C2103 C 0.51285 0.55473 0.82071 0.0
C2104 C 0.54061 0.55917 0.81566 0.0
C2105 C 0.56426 0.58518 0.82307 0.0
H2106 H 0.49457 0.53461 0.81491 0.0
H2107 H 0.72606 0.78569 0.88692 0.0
H2108 H 0.27406 0.67996 0.8472 0.0
H2109 H 0.31606 0.6812 0.87858 0.0
H2110 H 0.29231 0.58424 0.87656 0.0
H2111 H 0.25049 0.58296 0.84483 0.0
H2112 H 0.32313 0.60301 0.92238 0.0
H2113 H 0.33359 0.6313 0.83278 0.0
H2114 H 0.32834 0.66113 0.79194 0.0
H2115 H 0.37728 0.74441 0.82739 0.0
H2116 H 0.38295 0.71498 0.86847 0.0
H2117 H 0.43804 0.56276 0.91974 0.0
H2118 H 0.4002 0.58159 0.89807 0.0
H2119 H 0.44549 0.66742 0.93121 0.0
H2120 H 0.48355 0.64869 0.95313 0.0
H2121 H 0.40736 0.66429 0.87668 0.0
H2122 H 0.40535 0.62958 0.9658 0.0
H2123 H 0.41249 0.59446 1.0025 0.0
H2124 H 0.34716 0.51877 0.96537 0.0
H2125 H 0.33995 0.5535 0.92822 0.0
C2126 C 0.27704 0.65868 0.8544 0.0
C2127 C 0.25959 0.63149 0.84322 0.0
C2128 C 0.30102 0.65943 0.87238 0.0
C2129 C 0.30767 0.63299 0.87944 0.0
C2130 C 0.28768 0.60497 0.87121 0.0
C2131 C 0.26368 0.60421 0.85313 0.0
C2132 C 0.33755 0.63528 0.89068 0.0
C2133 C 0.34159 0.61673 0.91261 0.0
C2134 C 0.36175 0.65327 0.87802 0.0
C2135 C 0.35847 0.67105 0.85359 0.0
C2136 C 0.34315 0.65598 0.83183 0.0
C2137 C 0.34018 0.67276 0.80869 0.0
C2138 C 0.35243 0.70456 0.80718 0.0
C2139 C 0.36778 0.71974 0.8287 0.0
C2140 C 0.37097 0.70304 0.85188 0.0
C2141 C 0.44075 0.58621 0.92137 0.0
C2142 C 0.4633 0.60404 0.93852 0.0
C2143 C 0.41905 0.59686 0.9091 0.0
C2144 C 0.41984 0.62547 0.91374 0.0
C2145 C 0.44457 0.64516 0.92767 0.0
C2146 C 0.4664 0.63448 0.94 0.0
C2147 C 0.39271 0.63184 0.90807 0.0
C2148 C 0.38918 0.65172 0.88711 0.0
C2149 C 0.36898 0.61489 0.92152 0.0
C2150 C 0.37222 0.5941 0.94422 0.0
C2151 C 0.39258 0.60543 0.96544 0.0
C2152 C 0.39665 0.58559 0.98632 0.0
C2153 C 0.38033 0.55436 0.98627 0.0
C2154 C 0.35978 0.54296 0.96538 0.0
C2155 C 0.35565 0.56272 0.94443 0.0
H2156 H 0.38358 0.53901 1.00241 0.0
H2157 H 0.35012 0.71736 0.78929 0.0
H2158 H 0.29754 0.29543 0.83298 0.0
H2159 H 0.31558 0.33661 0.86055 0.0
H2160 H 0.34278 0.40198 0.79709 0.0
H2161 H 0.32398 0.36041 0.76879 0.0
H2162 H 0.38545 0.41128 0.83798 0.0
H2163 H 0.28884 0.4036 0.82298 0.0
H2164 H 0.23531 0.38116 0.8167 0.0
H2165 H 0.23604 0.34307 0.894 0.0
H2166 H 0.28965 0.36462 0.90067 0.0
H2167 H 0.43724 0.5061 0.93883 0.0
H2168 H 0.39982 0.48948 0.90239 0.0
H2169 H 0.37565 0.39652 0.9352 0.0
H2170 H 0.41346 0.4128 0.97134 0.0
H2171 H 0.32751 0.41701 0.90173 0.0
H2172 H 0.42663 0.41066 0.90364 0.0
H2173 H 0.47993 0.43766 0.91033 0.0
H2174 H 0.47153 0.50998 0.85548 0.0
H2175 H 0.41821 0.48334 0.84851 0.0
C2176 C 0.30706 0.31847 0.82461 0.0
C2177 C 0.30942 0.32447 0.79857 0.0
C2178 C 0.31725 0.34212 0.8405 0.0
C2179 C 0.33013 0.37244 0.83085 0.0
C2180 C 0.33271 0.37872 0.80488 0.0
C2181 C 0.32215 0.35493 0.78879 0.0
C2182 C 0.34248 0.39673 0.84872 0.0
C2183 C 0.37254 0.41328 0.85135 0.0
C2184 C 0.32571 0.39958 0.86618 0.0
C2185 C 0.2934 0.38573 0.86231 0.0
C2186 C 0.27765 0.39015 0.8386 0.0
C2187 C 0.24727 0.3776 0.83496 0.0
C2188 C 0.23231 0.36073 0.85493 0.0
C2189 C 0.24768 0.35615 0.87854 0.0
C2190 C 0.27809 0.36856 0.88227 0.0
C2191 C 0.42306 0.48233 0.93888 0.0
C2192 C 0.42849 0.46061 0.95773 0.0
C2193 C 0.40171 0.47289 0.918 0.0
C2194 C 0.38524 0.44178 0.91608 0.0
C2195 C 0.38812 0.42065 0.93644 0.0
C2196 C 0.40978 0.42996 0.95704 0.0
C2197 C 0.37027 0.43022 0.89127 0.0
C2198 C 0.33995 0.41588 0.88759 0.0
C2199 C 0.38657 0.42998 0.87246 0.0
C2200 C 0.41861 0.44507 0.87554 0.0
C2201 C 0.43625 0.43224 0.89292 0.0
C2202 C 0.46642 0.44749 0.89678 0.0
C2203 C 0.47913 0.4755 0.88327 0.0
C2204 C 0.46169 0.48823 0.86581 0.0
C2205 C 0.43152 0.47305 0.86186 0.0
H2206 H 0.50247 0.48735 0.88636 0.0
H2207 H 0.20882 0.35141 0.85209 0.0
H2208 H 0.62924 0.3666 0.77758 0.0
H2209 H 0.61151 0.38161 0.81106 0.0
H2210 H 0.693 0.39298 0.8593 0.0
H2211 H 0.71024 0.37648 0.82607 0.0
H2212 H 0.65255 0.37004 0.88722 0.0
H2213 H 0.6748 0.45521 0.82606 0.0
H2214 H 0.67432 0.48337 0.78388 0.0
H2215 H 0.58185 0.45922 0.77794 0.0
H2216 H 0.58171 0.43053 0.81995 0.0
H2217 H 0.62483 0.46754 0.96543 0.0
H2218 H 0.64625 0.4505 0.9355 0.0
H2219 H 0.56061 0.40468 0.8965 0.0
H2220 H 0.53901 0.42082 0.92659 0.0
H2221 H 0.60655 0.448 0.86548 0.0
H2222 H 0.58728 0.36117 0.92857 0.0
H2223 H 0.59161 0.33687 0.97201 0.0
H2224 H 0.6846 0.37051 0.97555 0.0
H2225 H 0.68083 0.39542 0.93223 0.0
C2226 C 0.64339 0.37232 0.79532 0.0
C2227 C 0.67133 0.37082 0.79906 0.0
C2228 C 0.63329 0.38107 0.81446 0.0
C2229 C 0.65117 0.38936 0.83758 0.0
C2230 C 0.67881 0.38698 0.84163 0.0
C2231 C 0.6887 0.37762 0.82262 0.0
C2232 C 0.64096 0.40054 0.85735 0.0
C2233 C 0.64291 0.38742 0.88244 0.0
C2234 C 0.62826 0.42324 0.85136 0.0
C2235 C 0.62822 0.44048 0.82607 0.0
C2236 C 0.65433 0.45571 0.81568 0.0
C2237 C 0.65417 0.4718 0.79181 0.0
C2238 C 0.62806 0.47302 0.77821 0.0
C2239 C 0.60206 0.45822 0.78848 0.0
C2240 C 0.60208 0.44206 0.81233 0.0
C2241 C 0.61057 0.45364 0.9506 0.0
C2242 C 0.58021 0.44544 0.94846 0.0
C2243 C 0.62283 0.4439 0.93356 0.0
C2244 C 0.60498 0.42632 0.91383 0.0
C2245 C 0.57473 0.41818 0.91163 0.0
C2246 C 0.56244 0.42732 0.92893 0.0
C2247 C 0.61775 0.41709 0.89493 0.0
C2248 C 0.61635 0.43073 0.87009 0.0
C2249 C 0.63154 0.39548 0.90129 0.0
C2250 C 0.63379 0.38048 0.92729 0.0
C2251 C 0.60866 0.36367 0.93871 0.0
C2252 C 0.61101 0.34971 0.96328 0.0
C2253 C 0.63837 0.35223 0.97657 0.0
C2254 C 0.66343 0.36863 0.96526 0.0
C2255 C 0.6612 0.38266 0.9407 0.0
H2256 H 0.64014 0.34139 0.99558 0.0
H2257 H 0.62799 0.4855 0.75973 0.0
H2258 H 0.71337 0.39363 0.24453 0.0
H2259 H 0.67381 0.40511 0.21642 0.0
H2260 H 0.72283 0.42514 0.15359 0.0
H2261 H 0.76278 0.41504 0.1819 0.0
H2262 H 0.69695 0.46299 0.14984 0.0
H2263 H 0.66981 0.35494 0.16912 0.0
H2264 H 0.66022 0.30828 0.19802 0.0
H2265 H 0.58857 0.32251 0.2204 0.0
H2266 H 0.5988 0.37044 0.19276 0.0
H2267 H 0.55479 0.39957 0.05869 0.0
H2268 H 0.58744 0.3879 0.0949 0.0
H2269 H 0.60691 0.47581 0.12167 0.0
H2270 H 0.57487 0.48774 0.08538 0.0
H2271 H 0.59837 0.38276 0.14337 0.0
H2272 H 0.68038 0.50954 0.14151 0.0
H2273 H 0.69714 0.55485 0.11149 0.0
H2274 H 0.66124 0.49866 0.04896 0.0
H2275 H 0.64525 0.45285 0.07863 0.0
C2276 C 0.71575 0.40104 0.22478 0.0
C2277 C 0.74094 0.40353 0.21523 0.0
C2278 C 0.69316 0.40738 0.20875 0.0
C2279 C 0.69511 0.41537 0.1828 0.0
C2280 C 0.72082 0.41899 0.17353 0.0
C2281 C 0.74363 0.41328 0.18966 0.0
C2282 C 0.67017 0.41896 0.16496 0.0
C2283 C 0.67523 0.44569 0.14871 0.0
C2284 C 0.64204 0.39591 0.16304 0.0
C2285 C 0.63535 0.36657 0.17908 0.0
C2286 C 0.65216 0.34832 0.18035 0.0
C2287 C 0.6466 0.3216 0.19652 0.0
C2288 C 0.62369 0.31224 0.21091 0.0
C2289 C 0.60635 0.32977 0.20926 0.0
C2290 C 0.61214 0.35685 0.19346 0.0
C2291 C 0.56515 0.41581 0.07292 0.0
C2292 C 0.56269 0.44462 0.06924 0.0
C2293 C 0.58396 0.40927 0.09349 0.0
C2294 C 0.60029 0.43145 0.11057 0.0
C2295 C 0.59502 0.45873 0.10843 0.0
C2296 C 0.5766 0.46542 0.0878 0.0
C2297 C 0.62475 0.4275 0.12898 0.0
C2298 C 0.61974 0.40057 0.14508 0.0
C2299 C 0.65314 0.45016 0.13049 0.0
C2300 C 0.66128 0.47775 0.11235 0.0
C2301 C 0.6761 0.50682 0.12136 0.0
C2302 C 0.68571 0.53257 0.10442 0.0
C2303 C 0.68036 0.52961 0.07834 0.0
C2304 C 0.66538 0.5009 0.06917 0.0
C2305 C 0.65608 0.47502 0.08606 0.0
H2306 H 0.68765 0.54961 0.06524 0.0
H2307 H 0.6194 0.29146 0.22335 0.0
H2308 H 0.77549 0.67301 0.21278 0.0
H2309 H 0.75228 0.63828 0.17903 0.0
H2310 H 0.66894 0.64107 0.18663 0.0
H2311 H 0.69203 0.67471 0.22083 0.0
H2312 H 0.66081 0.5881 0.17315 0.0
H2313 H 0.71779 0.69264 0.1476 0.0
H2314 H 0.76191 0.73859 0.14379 0.0
H2315 H 0.79864 0.68901 0.10826 0.0
H2316 H 0.75536 0.64237 0.11282 0.0
H2317 H 0.61372 0.62912 0.03633 0.0
H2318 H 0.65177 0.64041 0.07257 0.0
H2319 H 0.63442 0.54412 0.09044 0.0
H2320 H 0.59675 0.53284 0.05407 0.0
H2321 H 0.69951 0.63416 0.09224 0.0
H2322 H 0.63967 0.52991 0.15715 0.0
H2323 H 0.59086 0.4906 0.15978 0.0
H2324 H 0.55185 0.55005 0.11337 0.0
H2325 H 0.60032 0.59022 0.11143 0.0
C2326 C 0.75204 0.66505 0.20784 0.0
C2327 C 0.73532 0.67593 0.21948 0.0
C2328 C 0.73886 0.64549 0.18847 0.0
C2329 C 0.70896 0.63754 0.17995 0.0
C2330 C 0.69201 0.64676 0.19292 0.0
C2331 C 0.70513 0.66585 0.21257 0.0
C2332 C 0.69572 0.62306 0.15582 0.0
C2333 C 0.66948 0.59787 0.15548 0.0
C2334 C 0.70696 0.63598 0.13271 0.0
C2335 C 0.73356 0.66378 0.13107 0.0
C2336 C 0.73553 0.69133 0.13947 0.0
C2337 C 0.76042 0.71751 0.13723 0.0
C2338 C 0.78324 0.71663 0.12616 0.0
C2339 C 0.78118 0.68956 0.11723 0.0
C2340 C 0.75655 0.6632 0.11975 0.0
C2341 C 0.61882 0.61043 0.0474 0.0
C2342 C 0.60196 0.58006 0.04255 0.0
C2343 C 0.64062 0.61688 0.06816 0.0
C2344 C 0.64582 0.59309 0.0845 0.0
C2345 C 0.63101 0.5629 0.07815 0.0
C2346 C 0.6094 0.55645 0.05721 0.0
C2347 C 0.66394 0.60018 0.10944 0.0
C2348 C 0.69127 0.62376 0.10998 0.0
C2349 C 0.65306 0.5867 0.13261 0.0
C2350 C 0.6237 0.56283 0.13371 0.0
C2351 C 0.62067 0.53464 0.14759 0.0
C2352 C 0.59304 0.51227 0.14908 0.0
C2353 C 0.56828 0.5177 0.13654 0.0
C2354 C 0.57106 0.54577 0.12291 0.0
C2355 C 0.5986 0.56841 0.12172 0.0
H2356 H 0.54694 0.5002 0.13749 0.0
H2357 H 0.80238 0.73698 0.12427 0.0
H2358 H 0.41301 0.66667 0.23302 0.0
H2359 H 0.42703 0.65216 0.19675 0.0
H2360 H 0.33852 0.62649 0.15961 0.0
H2361 H 0.32438 0.64151 0.19568 0.0
H2362 H 0.37514 0.58192 0.16476 0.0
H2363 H 0.37048 0.68177 0.13243 0.0
H2364 H 0.38185 0.73643 0.13607 0.0
H2365 H 0.47319 0.75207 0.14841 0.0
H2366 H 0.46234 0.69745 0.14484 0.0
H2367 H 0.40645 0.55844 0.04715 0.0
H2368 H 0.38557 0.57228 0.07915 0.0
H2369 H 0.46982 0.63808 0.10438 0.0
H2370 H 0.49055 0.62526 0.07192 0.0
H2371 H 0.4316 0.66171 0.10432 0.0
H2372 H 0.43965 0.56549 0.1359 0.0
H2373 H 0.43213 0.51112 0.13571 0.0
H2374 H 0.33975 0.48754 0.1298 0.0
H2375 H 0.34668 0.54188 0.12949 0.0
C2376 C 0.3965 0.65775 0.2172 0.0
C2377 C 0.36759 0.6551 0.21721 0.0
C2378 C 0.40455 0.64957 0.19651 0.0
C2379 C 0.38376 0.63816 0.17564 0.0
C2380 C 0.35481 0.63513 0.17564 0.0
C2381 C 0.34683 0.64385 0.19615 0.0
C2382 C 0.39267 0.63 0.1537 0.0
C2383 C 0.387 0.5992 0.15118 0.0
C2384 C 0.40899 0.65271 0.13667 0.0
C2385 C 0.41558 0.68553 0.13863 0.0
C2386 C 0.39296 0.69684 0.13614 0.0
C2387 C 0.3993 0.7278 0.13815 0.0
C2388 C 0.42818 0.74767 0.14266 0.0
C2389 C 0.45081 0.73664 0.14498 0.0
C2390 C 0.44459 0.70571 0.14289 0.0
C2391 C 0.42049 0.57605 0.05935 0.0
C2392 C 0.45023 0.5907 0.0569 0.0
C2393 C 0.40855 0.58379 0.0778 0.0
C2394 C 0.42618 0.6059 0.09453 0.0
C2395 C 0.45571 0.62096 0.09175 0.0
C2396 C 0.46757 0.61353 0.07314 0.0
C2397 C 0.41413 0.61336 0.11507 0.0
C2398 C 0.4194 0.64415 0.11754 0.0
C2399 C 0.39793 0.59055 0.13235 0.0
C2400 C 0.39367 0.55784 0.13235 0.0
C2401 C 0.4177 0.54876 0.1343 0.0
C2402 C 0.41356 0.51793 0.13432 0.0
C2403 C 0.38548 0.49589 0.13267 0.0
C2404 C 0.36149 0.50464 0.13102 0.0
C2405 C 0.36551 0.53546 0.13091 0.0
H2406 H 0.38231 0.47202 0.13275 0.0
H2407 H 0.43301 0.77162 0.14425 0.0
H2408 H 0.37451 0.31396 0.24473 0.0
H2409 H 0.41119 0.34996 0.21945 0.0
H2410 H 0.35081 0.32497 0.15118 0.0
H2411 H 0.31397 0.28991 0.17611 0.0
H2412 H 0.43864 0.34867 0.17872 0.0
H2413 H 0.34972 0.39022 0.11683 0.0
H2414 H 0.30341 0.39438 0.12192 0.0
H2415 H 0.32935 0.3969 0.20234 0.0
H2416 H 0.37609 0.39357 0.19769 0.0
H2417 H 0.47775 0.42366 0.05888 0.0
H2418 H 0.46002 0.39178 0.09703 0.0
H2419 H 0.4517 0.46883 0.1245 0.0
H2420 H 0.46816 0.50001 0.08615 0.0
H2421 H 0.40372 0.42524 0.125 0.0
H2422 H 0.50014 0.43603 0.15523 0.0
H2423 H 0.54959 0.43719 0.15459 0.0
H2424 H 0.51562 0.34093 0.14634 0.0
H2425 H 0.46576 0.33923 0.14627 0.0
C2426 C 0.36906 0.31614 0.22433 0.0
C2427 C 0.34093 0.29989 0.21253 0.0
C2428 C 0.39018 0.33642 0.20992 0.0
C2429 C 0.38347 0.3405 0.18352 0.0
C2430 C 0.35622 0.3225 0.1716 0.0
C2431 C 0.33514 0.30246 0.18593 0.0
C2432 C 0.40344 0.36546 0.16838 0.0
C2433 C 0.43118 0.36551 0.16697 0.0
C2434 C 0.39413 0.38828 0.15406 0.0
C2435 C 0.36635 0.39131 0.1569 0.0
C2436 C 0.34566 0.39191 0.13558 0.0
C2437 C 0.31931 0.39412 0.13839 0.0
C2438 C 0.3134 0.39582 0.16244 0.0
C2439 C 0.33391 0.39551 0.18372 0.0
C2440 C 0.36035 0.39347 0.181 0.0
C2441 C 0.47284 0.43379 0.07346 0.0
C2442 C 0.47396 0.464 0.06968 0.0
C2443 C 0.46276 0.41568 0.09524 0.0
C2444 C 0.45429 0.42786 0.11359 0.0
C2445 C 0.45773 0.45881 0.11054 0.0
C2446 C 0.46723 0.47661 0.0887 0.0
C2447 C 0.43864 0.40778 0.13426 0.0
C2448 C 0.41155 0.40868 0.13681 0.0
C2449 C 0.4492 0.38686 0.15035 0.0
C2450 C 0.47912 0.38754 0.15057 0.0
C2451 C 0.50313 0.41512 0.15305 0.0
C2452 C 0.53124 0.41589 0.15282 0.0
C2453 C 0.53569 0.38916 0.15043 0.0
C2454 C 0.51207 0.3616 0.14819 0.0
C2455 C 0.48387 0.36072 0.14829 0.0
H2456 H 0.55744 0.3898 0.15043 0.0
H2457 H 0.29296 0.39742 0.16459 0.0
H2458 H 0.81671 0.63123 0.67323 0.0
H2459 H 0.8493 0.61454 0.65495 0.0
H2460 H 0.82336 0.65232 0.58104 0.0
H2461 H 0.79073 0.66885 0.59915 0.0
H2462 H 0.83338 0.5737 0.61819 0.0
H2463 H 0.87909 0.67929 0.54924 0.0
H2464 H 0.89712 0.73555 0.54772 0.0
H2465 H 0.9203 0.73156 0.62858 0.0
H2466 H 0.90172 0.6753 0.63064 0.0
H2467 H 0.89218 0.53116 0.52415 0.0
H2468 H 0.86492 0.55015 0.54684 0.0
H2469 H 0.94558 0.61314 0.58212 0.0
H2470 H 0.97275 0.59505 0.55908 0.0
H2471 H 0.91051 0.64163 0.56758 0.0
H2472 H 0.90228 0.54534 0.61441 0.0
H2473 H 0.89023 0.48961 0.61999 0.0
H2474 H 0.80082 0.47515 0.59113 0.0
H2475 H 0.81239 0.53078 0.58511 0.0
C2476 C 0.81826 0.63627 0.65315 0.0
C2477 C 0.80104 0.65114 0.63758 0.0
C2478 C 0.83677 0.62662 0.64272 0.0
C2479 C 0.83881 0.63221 0.61664 0.0
C2480 C 0.82231 0.64792 0.60122 0.0
C2481 C 0.80351 0.65716 0.61156 0.0
C2482 C 0.85681 0.62017 0.60515 0.0
C2483 C 0.85032 0.58853 0.60718 0.0
C2484 C 0.87914 0.63948 0.59108 0.0
C2485 C 0.88882 0.67315 0.59008 0.0
C2486 C 0.88783 0.69046 0.5667 0.0
C2487 C 0.89806 0.72232 0.56576 0.0
C2488 C 0.90972 0.73711 0.58806 0.0
C2489 C 0.91104 0.72006 0.61135 0.0
C2490 C 0.90042 0.68819 0.61244 0.0
C2491 C 0.90408 0.54895 0.53683 0.0
C2492 C 0.93467 0.56155 0.53974 0.0
C2493 C 0.88847 0.55973 0.54989 0.0
C2494 C 0.90315 0.58294 0.56646 0.0
C2495 C 0.93367 0.59533 0.56944 0.0
C2496 C 0.94921 0.58486 0.55623 0.0
C2497 C 0.88695 0.59497 0.5803 0.0
C2498 C 0.89363 0.62666 0.5786 0.0
C2499 C 0.8653 0.57569 0.5952 0.0
C2500 C 0.85827 0.54223 0.59906 0.0
C2501 C 0.88009 0.53027 0.6091 0.0
C2502 C 0.87335 0.49871 0.61236 0.0
C2503 C 0.84481 0.47888 0.60579 0.0
C2504 C 0.82293 0.49055 0.59613 0.0
C2505 C 0.82956 0.52209 0.59283 0.0
H2506 H 0.83961 0.45446 0.6082 0.0
H2507 H 0.91778 0.76178 0.5873 0.0
H2508 H 0.35208 0.85548 0.7386 0.0
H2509 H 0.3892 0.87854 0.7102 0.0
H2510 H 0.35537 0.79635 0.67106 0.0
H2511 H 0.31666 0.77498 0.69731 0.0
H2512 H 0.43297 0.87086 0.69455 0.0
H2513 H 0.3588 0.81189 0.61005 0.0
H2514 H 0.30677 0.78311 0.59662 0.0
H2515 H 0.28298 0.83682 0.64014 0.0
H2516 H 0.33481 0.86602 0.65375 0.0
H2517 H 0.50015 0.93129 0.57617 0.0
H2518 H 0.47809 0.8962 0.61169 0.0
H2519 H 0.41592 0.94023 0.60652 0.0
H2520 H 0.43755 0.97493 0.57182 0.0
H2521 H 0.3901 0.87716 0.6043 0.0
H2522 H 0.47002 0.95233 0.65402 0.0
H2523 H 0.52212 0.98027 0.66767 0.0
H2524 H 0.53457 0.89556 0.69277 0.0
H2525 H 0.48259 0.86711 0.67898 0.0
C2526 C 0.35274 0.84224 0.72404 0.0
C2527 C 0.33133 0.81318 0.72044 0.0
C2528 C 0.37417 0.85535 0.70794 0.0
C2529 C 0.37487 0.83953 0.68801 0.0
C2530 C 0.35502 0.80947 0.68581 0.0
C2531 C 0.33298 0.79689 0.70127 0.0
C2532 C 0.39372 0.85586 0.66789 0.0
C2533 C 0.42362 0.87199 0.67479 0.0
C2534 C 0.38183 0.85723 0.64194 0.0
C2535 C 0.35062 0.84095 0.63302 0.0
C2536 C 0.34242 0.81768 0.61659 0.0
C2537 C 0.31298 0.80125 0.60903 0.0
C2538 C 0.29157 0.8081 0.6176 0.0
C2539 C 0.29957 0.83151 0.6336 0.0
C2540 C 0.32896 0.84802 0.64124 0.0
C2541 C 0.48213 0.93376 0.58298 0.0
C2542 C 0.47043 0.95572 0.57091 0.0
C2543 C 0.46948 0.91365 0.60318 0.0
C2544 C 0.44506 0.91534 0.61152 0.0
C2545 C 0.43444 0.93818 0.60023 0.0
C2546 C 0.44695 0.95809 0.58032 0.0
C2547 C 0.42908 0.89286 0.63104 0.0
C2548 C 0.39963 0.8755 0.62398 0.0
C2549 C 0.44143 0.89044 0.65668 0.0
C2550 C 0.47252 0.9076 0.66521 0.0
C2551 C 0.48392 0.93967 0.66227 0.0
C2552 C 0.51342 0.95559 0.67007 0.0
C2553 C 0.53167 0.9397 0.681 0.0
C2554 C 0.52043 0.90784 0.68425 0.0
C2555 C 0.49096 0.89182 0.67647 0.0
H2556 H 0.5545 0.95206 0.68701 0.0
H2557 H 0.26878 0.79529 0.61182 0.0
H2558 H 0.25693 0.32673 0.72636 0.0
H2559 H 0.23407 0.35956 0.69822 0.0
H2560 H 0.16369 0.27951 0.67136 0.0
H2561 H 0.18702 0.2472 0.69847 0.0
H2562 H 0.17226 0.31747 0.63308 0.0
H2563 H 0.16193 0.32906 0.71833 0.0
H2564 H 0.17981 0.34235 0.76252 0.0
H2565 H 0.2291 0.43402 0.73618 0.0
H2566 H 0.21179 0.42115 0.69182 0.0
H2567 H 0.06165 0.37666 0.58136 0.0
H2568 H 0.09075 0.3511 0.61001 0.0
H2569 H 0.15986 0.43773 0.62198 0.0
H2570 H 0.13076 0.46362 0.59309 0.0
H2571 H 0.15577 0.40062 0.6667 0.0
H2572 H 0.16366 0.38997 0.58175 0.0
H2573 H 0.14551 0.37713 0.5375 0.0
H2574 H 0.10101 0.2838 0.5633 0.0
H2575 H 0.11852 0.29618 0.60773 0.0
C2576 C 0.23695 0.31619 0.71402 0.0
C2577 C 0.22431 0.28408 0.71443 0.0
C2578 C 0.22344 0.33506 0.69809 0.0
C2579 C 0.19646 0.32249 0.68247 0.0
C2580 C 0.18431 0.29041 0.6828 0.0
C2581 C 0.19779 0.27173 0.69849 0.0
C2582 C 0.18035 0.34195 0.66608 0.0
C2583 C 0.1685 0.33536 0.64076 0.0
C2584 C 0.17563 0.36625 0.67517 0.0
C2585 C 0.1858 0.37406 0.70178 0.0
C2586 C 0.17671 0.352 0.72197 0.0
C2587 C 0.18673 0.35946 0.74704 0.0
C2588 C 0.20563 0.38899 0.75214 0.0
C2589 C 0.21449 0.41114 0.73219 0.0
C2590 C 0.20458 0.40379 0.70709 0.0
C2591 C 0.08281 0.39059 0.59032 0.0
C2592 C 0.09342 0.42258 0.58459 0.0
C2593 C 0.09973 0.37572 0.60672 0.0
C2594 C 0.1281 0.39207 0.61821 0.0
C2595 C 0.13826 0.42417 0.61355 0.0
C2596 C 0.12138 0.4391 0.59694 0.0
C2597 C 0.1472 0.37552 0.63406 0.0
C2598 C 0.15961 0.38271 0.65913 0.0
C2599 C 0.15245 0.35173 0.62479 0.0
C2600 C 0.1422 0.34407 0.59809 0.0
C2601 C 0.14985 0.36675 0.578 0.0
C2602 C 0.13969 0.35955 0.55288 0.0
C2603 C 0.12206 0.32968 0.5476 0.0
C2604 C 0.11464 0.30693 0.56742 0.0
C2605 C 0.12469 0.31402 0.59258 0.0
H2606 H 0.11421 0.32416 0.52814 0.0
H2607 H 0.21335 0.39473 0.77155 0.0
H2608 H 0.74192 0.26444 0.6632 0.0
H2609 H 0.72737 0.23988 0.62333 0.0
H2610 H 0.70848 0.1516 0.66531 0.0
H2611 H 0.724 0.1759 0.70488 0.0
H2612 H 0.73233 0.15135 0.62629 0.0
H2613 H 0.6531 0.1814 0.63914 0.0
H2614 H 0.63128 0.21796 0.6458 0.0
H2615 H 0.65997 0.27151 0.57765 0.0
H2616 H 0.6818 0.23506 0.57054 0.0
H2617 H 0.60843 0.04702 0.5623 0.0
H2618 H 0.65131 0.08076 0.5869 0.0
H2619 H 0.65899 0.1524 0.52634 0.0
H2620 H 0.61527 0.11893 0.50204 0.0
H2621 H 0.65109 0.16937 0.56732 0.0
H2622 H 0.7206 0.12926 0.55092 0.0
H2623 H 0.73582 0.08728 0.54475 0.0
H2624 H 0.71947 0.04765 0.61993 0.0
H2625 H 0.7051 0.08995 0.62687 0.0
C2626 C 0.73465 0.2398 0.66386 0.0
C2627 C 0.73385 0.22209 0.68717 0.0
C2628 C 0.72642 0.22579 0.64109 0.0
C2629 C 0.7166 0.19383 0.64131 0.0
C2630 C 0.71618 0.17627 0.66461 0.0
C2631 C 0.72482 0.19023 0.68727 0.0
C2632 C 0.70485 0.17819 0.61756 0.0
C2633 C 0.71469 0.1554 0.61327 0.0
C2634 C 0.68228 0.18383 0.60023 0.0
C2635 C 0.66932 0.20578 0.60448 0.0
C2636 C 0.65485 0.20106 0.62566 0.0
C2637 C 0.64242 0.2217 0.62947 0.0
C2638 C 0.64435 0.24712 0.61221 0.0
C2639 C 0.65854 0.25184 0.59102 0.0
C2640 C 0.67086 0.23116 0.58704 0.0
C2641 C 0.61998 0.0695 0.55378 0.0
C2642 C 0.60826 0.08065 0.53058 0.0
C2643 C 0.64468 0.08882 0.56782 0.0
C2644 C 0.65837 0.11927 0.55853 0.0
C2645 C 0.64869 0.1291 0.53394 0.0
C2646 C 0.62372 0.10997 0.5201 0.0
C2647 C 0.678 0.14195 0.57631 0.0
C2648 C 0.66955 0.16606 0.57962 0.0
C2649 C 0.70149 0.1372 0.59284 0.0
C2650 C 0.71189 0.11281 0.58942 0.0
C2651 C 0.72055 0.11175 0.56622 0.0
C2652 C 0.72915 0.08798 0.56264 0.0
C2653 C 0.72887 0.06496 0.58203 0.0
C2654 C 0.72013 0.06577 0.60509 0.0
C2655 C 0.71203 0.08978 0.60895 0.0
H2656 H 0.73528 0.04643 0.57916 0.0
H2657 H 0.63481 0.26314 0.61525 0.0
H2658 H 0.8544 0.27807 0.3174 0.0
H2659 H 0.87492 0.30297 0.35674 0.0
H2660 H 0.78839 0.28265 0.37417 0.0
H2661 H 0.76776 0.25861 0.33446 0.0
H2662 H 0.81912 0.33923 0.3808 0.0
H2663 H 0.83283 0.24599 0.4075 0.0
H2664 H 0.84696 0.20267 0.40324 0.0
H2665 H 0.93624 0.26253 0.40496 0.0
H2666 H 0.92261 0.30642 0.40859 0.0
H2667 H 0.93662 0.38031 0.50395 0.0
H2668 H 0.8951 0.34395 0.47965 0.0
H2669 H 0.90046 0.41286 0.41702 0.0
H2670 H 0.94111 0.44949 0.4417 0.0
H2671 H 0.90071 0.32325 0.44068 0.0
H2672 H 0.8408 0.39728 0.37584 0.0
H2673 H 0.82377 0.43858 0.37998 0.0
H2674 H 0.82063 0.41137 0.45933 0.0
H2675 H 0.83723 0.36962 0.45563 0.0
C2676 C 0.83976 0.27851 0.32979 0.0
C2677 C 0.8095 0.26667 0.32276 0.0
C2678 C 0.85149 0.29266 0.35232 0.0
C2679 C 0.83315 0.29453 0.36848 0.0
C2680 C 0.80291 0.28162 0.36193 0.0
C2681 C 0.79118 0.26785 0.33924 0.0
C2682 C 0.84568 0.31161 0.39136 0.0
C2683 C 0.83675 0.33557 0.39411 0.0
C2684 C 0.86799 0.30612 0.40915 0.0
C2685 C 0.87663 0.27959 0.40821 0.0
C2686 C 0.85548 0.24997 0.40691 0.0
C2687 C 0.86339 0.22531 0.40455 0.0
C2688 C 0.89246 0.22987 0.40377 0.0
C2689 C 0.91372 0.25906 0.40554 0.0
C2690 C 0.90591 0.28385 0.40777 0.0
C2691 C 0.92812 0.38794 0.48535 0.0
C2692 C 0.9421 0.41752 0.47452 0.0
C2693 C 0.90453 0.36714 0.47145 0.0
C2694 C 0.89478 0.3755 0.44642 0.0
C2695 C 0.90722 0.40589 0.43642 0.0
C2696 C 0.93051 0.42689 0.45052 0.0
C2697 C 0.87497 0.35177 0.42957 0.0
C2698 C 0.88258 0.32652 0.42786 0.0
C2699 C 0.85092 0.35559 0.41318 0.0
C2700 C 0.84042 0.38036 0.41546 0.0
C2701 C 0.83628 0.39994 0.39414 0.0
C2702 C 0.82675 0.42348 0.39642 0.0
C2703 C 0.82118 0.42763 0.41991 0.0
C2704 C 0.82504 0.40819 0.44116 0.0
C2705 C 0.83455 0.3846 0.43899 0.0
H2706 H 0.81384 0.44589 0.42164 0.0
H2707 H 0.89847 0.21077 0.40177 0.0
H2708 H 0.65875 0.79751 0.33511 0.0
H2709 H 0.64346 0.83377 0.35168 0.0
H2710 H 0.68993 0.82009 0.42528 0.0
H2711 H 0.7058 0.78462 0.4086 0.0
H2712 H 0.61025 0.82578 0.385 0.0
H2713 H 0.71279 0.87559 0.45765 0.0
H2714 H 0.76635 0.89602 0.46005 0.0
H2715 H 0.75894 0.91955 0.37969 0.0
H2716 H 0.7054 0.89818 0.37672 0.0
H2717 H 0.56607 0.87867 0.47893 0.0
H2718 H 0.58765 0.85457 0.45533 0.0
H2719 H 0.64755 0.94307 0.43151 0.0
H2720 H 0.62678 0.9673 0.4563 0.0
H2721 H 0.67525 0.90697 0.44023 0.0
H2722 H 0.58519 0.90021 0.39102 0.0
H2723 H 0.53238 0.88921 0.38157 0.0
H2724 H 0.51539 0.79401 0.40273 0.0
H2725 H 0.56811 0.80448 0.41265 0.0
C2726 C 0.66594 0.80258 0.35474 0.0
C2727 C 0.68354 0.78834 0.37055 0.0
C2728 C 0.65718 0.82326 0.36422 0.0
C2729 C 0.66584 0.83011 0.38969 0.0
C2730 C 0.68348 0.81587 0.40544 0.0
C2731 C 0.69221 0.79523 0.39598 0.0
C2732 C 0.65463 0.85009 0.40046 0.0
C2733 C 0.6245 0.84364 0.39696 0.0
C2734 C 0.67311 0.87412 0.41542 0.0
C2735 C 0.70518 0.88509 0.41696 0.0
C2736 C 0.72264 0.88484 0.44049 0.0
C2737 C 0.75297 0.89644 0.44192 0.0
C2738 C 0.76605 0.90886 0.42 0.0
C2739 C 0.7488 0.9096 0.39661 0.0
C2740 C 0.71847 0.89743 0.39499 0.0
C2741 C 0.58386 0.89305 0.46869 0.0
C2742 C 0.59455 0.92494 0.46931 0.0
C2743 C 0.5961 0.87923 0.45503 0.0
C2744 C 0.61878 0.89694 0.44098 0.0
C2745 C 0.62997 0.92882 0.44203 0.0
C2746 C 0.61808 0.94268 0.45618 0.0
C2747 C 0.63073 0.88198 0.42545 0.0
C2748 C 0.66096 0.8893 0.42811 0.0
C2749 C 0.61239 0.85967 0.40876 0.0
C2750 C 0.58062 0.85318 0.40275 0.0
C2751 C 0.57019 0.87695 0.39382 0.0
C2752 C 0.54027 0.87081 0.38836 0.0
C2753 C 0.52055 0.84094 0.39159 0.0
C2754 C 0.5307 0.81714 0.40024 0.0
C2755 C 0.56061 0.82316 0.40576 0.0
H2756 H 0.49739 0.83623 0.38736 0.0
H2757 H 0.78953 0.91803 0.42115 0.0
H2758 H 0.24176 0.71818 0.31854 0.0
H2759 H 0.21274 0.6833 0.34999 0.0
H2760 H 0.14001 0.65235 0.29101 0.0
H2761 H 0.16998 0.68456 0.25951 0.0
H2762 H 0.16998 0.68068 0.368 0.0
H2763 H 0.09121 0.59173 0.30195 0.0
H2764 H 0.09007 0.56295 0.26673 0.0
H2765 H 0.17832 0.57003 0.29301 0.0
H2766 H 0.18012 0.59957 0.32802 0.0
H2767 H 0.05479 0.58442 0.43992 0.0
H2768 H 0.07853 0.61739 0.40423 0.0
H2769 H 0.12224 0.55559 0.40048 0.0
H2770 H 0.09881 0.5231 0.43551 0.0
H2771 H 0.10438 0.57409 0.35451 0.0
H2772 H 0.1546 0.61902 0.43209 0.0
H2773 H 0.15875 0.64146 0.47185 0.0
H2774 H 0.1363 0.7151 0.42969 0.0
H2775 H 0.1311 0.69257 0.38967 0.0
C2776 C 0.22005 0.70292 0.31218 0.0
C2777 C 0.20862 0.70326 0.28635 0.0
C2778 C 0.20316 0.68329 0.33028 0.0
C2779 C 0.17407 0.66435 0.32309 0.0
C2780 C 0.16259 0.66538 0.29727 0.0
C2781 C 0.17973 0.68418 0.27918 0.0
C2782 C 0.15528 0.64487 0.34255 0.0
C2783 C 0.15574 0.65735 0.36496 0.0
C2784 C 0.13638 0.61432 0.33899 0.0
C2785 C 0.13598 0.59821 0.31725 0.0
C2786 C 0.11045 0.5874 0.30001 0.0
C2787 C 0.10971 0.57107 0.28007 0.0
C2788 C 0.13423 0.56497 0.27748 0.0
C2789 C 0.15953 0.57523 0.29481 0.0
C2790 C 0.16052 0.59198 0.31456 0.0
C2791 C 0.06891 0.57766 0.43097 0.0
C2792 C 0.07496 0.55123 0.44043 0.0
C2793 C 0.0827 0.5966 0.4108 0.0
C2794 C 0.10247 0.58915 0.39981 0.0
C2795 C 0.10716 0.56192 0.40854 0.0
C2796 C 0.09373 0.54333 0.42862 0.0
C2797 C 0.11947 0.60974 0.37991 0.0
C2798 C 0.11852 0.59752 0.35738 0.0
C2799 C 0.13855 0.64007 0.38385 0.0
C2800 C 0.14199 0.65383 0.40788 0.0
C2801 C 0.15022 0.63982 0.43129 0.0
C2802 C 0.15279 0.65256 0.45389 0.0
C2803 C 0.1477 0.67963 0.4533 0.0
C2804 C 0.14012 0.69406 0.43012 0.0
C2805 C 0.13728 0.68127 0.40747 0.0
H2806 H 0.14968 0.68945 0.47081 0.0
H2807 H 0.13356 0.55211 0.26216 0.0
H2808 H 0.34865 0.24104 0.28314 0.0
H2809 H 0.38214 0.22043 0.31223 0.0
H2810 H 0.30909 0.14081 0.33181 0.0
H2811 H 0.27603 0.16208 0.30403 0.0
H2812 H 0.34299 0.15 0.3719 0.0
H2813 H 0.36193 0.14667 0.28786 0.0
H2814 H 0.37588 0.16809 0.24551 0.0
H2815 H 0.45914 0.2265 0.27969 0.0
H2816 H 0.44553 0.20566 0.32226 0.0
H2817 H 0.41433 0.04574 0.4229 0.0
H2818 H 0.3864 0.07222 0.39365 0.0
H2819 H 0.4635 0.15307 0.39065 0.0
H2820 H 0.49166 0.12667 0.42002 0.0
H2821 H 0.43059 0.14668 0.3437 0.0
H2822 H 0.41147 0.14442 0.42833 0.0
H2823 H 0.39668 0.1195 0.46973 0.0
H2824 H 0.31163 0.06877 0.43318 0.0
H2825 H 0.32616 0.09257 0.39147 0.0
C2826 C 0.33973 0.21951 0.29413 0.0
C2827 C 0.30933 0.20373 0.29155 0.0
C2828 C 0.35904 0.20726 0.31057 0.0
C2829 C 0.34871 0.17837 0.32444 0.0
C2830 C 0.31828 0.16302 0.32185 0.0
C2831 C 0.29915 0.17532 0.30575 0.0
C2832 C 0.36888 0.16354 0.34128 0.0
C2833 C 0.36189 0.14911 0.36536 0.0
C2834 C 0.39432 0.16243 0.33374 0.0
C2835 C 0.40259 0.17486 0.30822 0.0
C2836 C 0.38314 0.16421 0.28633 0.0
C2837 C 0.39099 0.17623 0.2623 0.0
C2838 C 0.41834 0.19871 0.25992 0.0
C2839 C 0.43794 0.20913 0.28157 0.0
C2840 C 0.43018 0.19722 0.30565 0.0
C2841 C 0.42566 0.069 0.41579 0.0
C2842 C 0.45561 0.08375 0.42424 0.0
C2843 C 0.40942 0.08438 0.39905 0.0
C2844 C 0.42233 0.11521 0.38996 0.0
C2845 C 0.45256 0.12949 0.39724 0.0
C2846 C 0.46882 0.11418 0.41415 0.0
C2847 C 0.40418 0.13266 0.37388 0.0
C2848 C 0.41164 0.14764 0.35011 0.0
C2849 C 0.37894 0.13397 0.38156 0.0
C2850 C 0.37001 0.12011 0.40671 0.0
C2851 C 0.38968 0.12779 0.42908 0.0
C2852 C 0.38135 0.11387 0.45261 0.0
C2853 C 0.35324 0.09263 0.45408 0.0
C2854 C 0.33341 0.08523 0.43201 0.0
C2855 C 0.34169 0.09888 0.40842 0.0
H2856 H 0.34683 0.08192 0.47231 0.0
H2857 H 0.42438 0.20799 0.24129 0.0
H2858 H 0.69447 0.76524 0.71664 0.0
H2859 H 0.66162 0.78716 0.68759 0.0
H2860 H 0.73545 0.86611 0.6692 0.0
H2861 H 0.76805 0.84399 0.6971 0.0
H2862 H 0.67879 0.87102 0.68993 0.0
H2863 H 0.71691 0.84608 0.62313 0.0
H2864 H 0.72772 0.81734 0.59402 0.0
H2865 H 0.63755 0.75969 0.58213 0.0
H2866 H 0.62628 0.78803 0.61134 0.0
H2867 H 0.62553 0.9659 0.5902 0.0
H2868 H 0.65333 0.93901 0.61955 0.0
H2869 H 0.58467 0.85306 0.60405 0.0
H2870 H 0.55667 0.87971 0.5751 0.0
H2871 H 0.63685 0.84977 0.60091 0.0
H2872 H 0.59922 0.88309 0.66245 0.0
H2873 H 0.59004 0.92079 0.68345 0.0
H2874 H 0.68202 0.9685 0.70128 0.0
H2875 H 0.69177 0.93131 0.68005 0.0
C2876 C 0.7038 0.78677 0.70578 0.0
C2877 C 0.73431 0.80224 0.70891 0.0
C2878 C 0.68488 0.79955 0.68921 0.0
C2879 C 0.69574 0.82849 0.67564 0.0
C2880 C 0.72612 0.84375 0.67889 0.0
C2881 C 0.74489 0.8309 0.69501 0.0
C2882 C 0.67585 0.84416 0.65984 0.0
C2883 C 0.66973 0.86627 0.67044 0.0
C2884 C 0.66359 0.83854 0.63422 0.0
C2885 C 0.67092 0.8186 0.62001 0.0
C2886 C 0.69954 0.82673 0.61489 0.0
C2887 C 0.70567 0.81081 0.59806 0.0
C2888 C 0.68337 0.78661 0.58631 0.0
C2889 C 0.65484 0.77834 0.59132 0.0
C2890 C 0.64859 0.79425 0.60808 0.0
C2891 C 0.61592 0.94132 0.5934 0.0
C2892 C 0.58836 0.92536 0.5801 0.0
C2893 C 0.63204 0.92579 0.61031 0.0
C2894 C 0.62146 0.89361 0.61443 0.0
C2895 C 0.59374 0.87774 0.60153 0.0
C2896 C 0.57747 0.89323 0.58495 0.0
C2897 C 0.63959 0.8764 0.63099 0.0
C2898 C 0.64547 0.85412 0.62054 0.0
C2899 C 0.652 0.88229 0.65654 0.0
C2900 C 0.64622 0.90455 0.66946 0.0
C2901 C 0.6175 0.90174 0.67068 0.0
C2902 C 0.61218 0.923 0.68266 0.0
C2903 C 0.63542 0.94706 0.69365 0.0
C2904 C 0.66403 0.94987 0.69274 0.0
C2905 C 0.66947 0.92868 0.68076 0.0
H2906 H 0.63126 0.9635 0.70291 0.0
H2907 H 0.68818 0.77432 0.57331 0.0
H2908 H 0.7496 0.20139 0.32082 0.0
H2909 H 0.71202 0.17656 0.34838 0.0
H2910 H 0.64827 0.14529 0.28315 0.0
H2911 H 0.68615 0.17117 0.25527 0.0
H2912 H 0.62553 0.16211 0.32235 0.0
H2913 H 0.67685 0.09788 0.31333 0.0
H2914 H 0.72094 0.08689 0.31219 0.0
H2915 H 0.75029 0.10656 0.39001 0.0
H2916 H 0.7066 0.11819 0.3915 0.0
H2917 H 0.53827 0.04312 0.41085 0.0
H2918 H 0.56165 0.07202 0.37359 0.0
H2919 H 0.64184 0.11238 0.42265 0.0
H2920 H 0.61899 0.08379 0.45927 0.0
H2921 H 0.65007 0.0855 0.38541 0.0
H2922 H 0.60034 0.15317 0.39335 0.0
H2923 H 0.55676 0.16517 0.39432 0.0
H2924 H 0.52378 0.13831 0.31858 0.0
H2925 H 0.56697 0.12564 0.31733 0.0
C2926 C 0.72739 0.19015 0.31229 0.0
C2927 C 0.72052 0.18907 0.2859 0.0
C2928 C 0.70594 0.17575 0.32805 0.0
C2929 C 0.6773 0.15889 0.31789 0.0
C2930 C 0.67014 0.15834 0.29141 0.0
C2931 C 0.6917 0.17313 0.27552 0.0
C2932 C 0.65615 0.13948 0.33533 0.0
C2933 C 0.63056 0.14496 0.33587 0.0
C2934 C 0.66268 0.1171 0.35301 0.0
C2935 C 0.6885 0.10906 0.35248 0.0
C2936 C 0.69275 0.09996 0.33018 0.0
C2937 C 0.71769 0.09365 0.32946 0.0
C2938 C 0.73843 0.09608 0.351 0.0
C2939 C 0.73421 0.1047 0.37334 0.0
C2940 C 0.70934 0.11111 0.37414 0.0
C2941 C 0.56066 0.05874 0.41358 0.0
C2942 C 0.57691 0.06096 0.4379 0.0
C2943 C 0.57404 0.07514 0.39233 0.0
C2944 C 0.6037 0.09413 0.39526 0.0
C2945 C 0.61913 0.09763 0.41978 0.0
C2946 C 0.60598 0.08129 0.44074 0.0
C2947 C 0.61989 0.10882 0.37322 0.0
C2948 C 0.64465 0.10229 0.3717 0.0
C2949 C 0.61241 0.13002 0.35474 0.0
C2950 C 0.5867 0.13807 0.35537 0.0
C2951 C 0.58367 0.14956 0.37699 0.0
C2952 C 0.55906 0.15653 0.37758 0.0
C2953 C 0.53745 0.15239 0.35656 0.0
C2954 C 0.54049 0.14142 0.33487 0.0
C2955 C 0.56504 0.13435 0.33421 0.0
H2956 H 0.51839 0.15775 0.35707 0.0
H2957 H 0.75775 0.09125 0.35039 0.0
H2958 H 0.86742 0.7551 0.31082 0.0
H2959 H 0.88979 0.72168 0.3377 0.0
H2960 H 0.81463 0.64318 0.31559 0.0
H2961 H 0.79217 0.67701 0.28816 0.0
H2962 H 0.83553 0.63593 0.3673 0.0
H2963 H 0.87747 0.66151 0.29026 0.0
H2964 H 0.90165 0.69582 0.25547 0.0
H2965 H 0.97571 0.74038 0.30871 0.0
H2966 H 0.95178 0.7066 0.34389 0.0
H2967 H 0.91026 0.53351 0.42195 0.0
H2968 H 0.88321 0.56084 0.39234 0.0
H2969 H 0.95726 0.64463 0.40041 0.0
H2970 H 0.98448 0.61739 0.4295 0.0
H2971 H 0.93432 0.64629 0.35386 0.0
H2972 H 0.89213 0.6231 0.43103 0.0
H2973 H 0.8681 0.59004 0.46642 0.0
H2974 H 0.79492 0.54207 0.41386 0.0
H2975 H 0.81872 0.57459 0.3781 0.0
C2976 C 0.85539 0.73072 0.31179 0.0
C2977 C 0.82759 0.71908 0.29752 0.0
C2978 C 0.86838 0.71144 0.3272 0.0
C2979 C 0.85437 0.67946 0.32885 0.0
C2980 C 0.82623 0.66762 0.31496 0.0
C2981 C 0.8132 0.68707 0.29929 0.0
C2982 C 0.86978 0.65896 0.34434 0.0
C2983 C 0.85692 0.63789 0.36399 0.0
C2984 C 0.89813 0.6615 0.34085 0.0
C2985 C 0.91272 0.68168 0.31974 0.0
C2986 C 0.89883 0.67875 0.29457 0.0
C2987 C 0.9125 0.69809 0.27478 0.0
C2988 C 0.94017 0.72031 0.27988 0.0
C2989 C 0.95426 0.72317 0.30479 0.0
C2990 C 0.94067 0.70392 0.32467 0.0
C2991 C 0.9211 0.55765 0.41713 0.0
C2992 C 0.94997 0.57285 0.42839 0.0
C2993 C 0.9053 0.57355 0.40029 0.0
C2994 C 0.91755 0.60539 0.3941 0.0
C2995 C 0.94675 0.62028 0.40457 0.0
C2996 C 0.96252 0.60445 0.42136 0.0
C2997 C 0.9003 0.62332 0.37712 0.0
C2998 C 0.91286 0.64406 0.35716 0.0
C2999 C 0.87175 0.62053 0.38044 0.0
C3000 C 0.85736 0.60103 0.40188 0.0
C3001 C 0.87101 0.60534 0.42701 0.0
C3002 C 0.85742 0.58673 0.44713 0.0
C3003 C 0.83004 0.5639 0.44238 0.0
C3004 C 0.81616 0.55971 0.4175 0.0
C3005 C 0.82969 0.57823 0.3973 0.0
H3006 H 0.81955 0.54952 0.45799 0.0
H3007 H 0.95072 0.73526 0.26453 0.0
H3008 H 0.30387 0.76847 0.34783 0.0
H3009 H 0.31997 0.79835 0.38454 0.0
H3010 H 0.29608 0.87054 0.3401 0.0
H3011 H 0.28175 0.84171 0.30294 0.0
H3012 H 0.34738 0.89344 0.36216 0.0
H3013 H 0.26008 0.82626 0.39052 0.0
H3014 H 0.22113 0.77745 0.40046 0.0
H3015 H 0.28106 0.75107 0.45741 0.0
H3016 H 0.32063 0.79932 0.44738 0.0
H3017 H 0.42719 0.97441 0.46432 0.0
H3018 H 0.37945 0.94958 0.44049 0.0
H3019 H 0.38927 0.86233 0.45965 0.0
H3020 H 0.43598 0.88651 0.48456 0.0
H3021 H 0.33267 0.85456 0.45118 0.0
H3022 H 0.41963 0.9121 0.40722 0.0
H3023 H 0.45956 0.96044 0.39767 0.0
H3024 H 0.39768 0.00425 0.37059 0.0
H3025 H 0.35742 0.95613 0.38008 0.0
C3026 C 0.30213 0.79072 0.34581 0.0
C3027 C 0.29224 0.80296 0.32224 0.0
C3028 C 0.31082 0.8076 0.36699 0.0
C3029 C 0.30899 0.83665 0.36519 0.0
C3030 C 0.29774 0.84822 0.34196 0.0
C3031 C 0.2896 0.83165 0.32068 0.0
C3032 C 0.32223 0.85639 0.38652 0.0
C3033 C 0.34338 0.8852 0.38152 0.0
C3034 C 0.31723 0.84572 0.41187 0.0
C3035 C 0.29345 0.81654 0.41811 0.0
C3036 C 0.26508 0.80998 0.40503 0.0
C3037 C 0.24286 0.78238 0.41068 0.0
C3038 C 0.24861 0.7612 0.42957 0.0
C3039 C 0.27663 0.76753 0.4428 0.0
C3040 C 0.29897 0.79503 0.43714 0.0
C3041 C 0.41878 0.94983 0.46424 0.0
C3042 C 0.43585 0.93259 0.47576 0.0
C3043 C 0.39143 0.93565 0.45058 0.0
C3044 C 0.38124 0.90424 0.44763 0.0
C3045 C 0.39676 0.88663 0.46147 0.0
C3046 C 0.42374 0.90064 0.47551 0.0
C3047 C 0.35834 0.8906 0.42663 0.0
C3048 C 0.33554 0.86302 0.43165 0.0
C3049 C 0.36163 0.90225 0.40119 0.0
C3050 C 0.38564 0.9307 0.39448 0.0
C3051 C 0.4146 0.93206 0.39915 0.0
C3052 C 0.43726 0.9594 0.39379 0.0
C3053 C 0.43116 0.98541 0.38356 0.0
C3054 C 0.40236 0.98408 0.37851 0.0
C3055 C 0.37962 0.95679 0.38383 0.0
H3056 H 0.44873 0.00659 0.37953 0.0
H3057 H 0.23136 0.73988 0.43396 0.0
H3058 H 0.25299 0.32655 0.40951 0.0
H3059 H 0.22114 0.34211 0.4297 0.0
H3060 H 0.19393 0.38308 0.35782 0.0
H3061 H 0.22569 0.36743 0.33741 0.0
H3062 H 0.22617 0.41242 0.42184 0.0
H3063 H 0.1397 0.35421 0.35804 0.0
H3064 H 0.11255 0.3064 0.33724 0.0
H3065 H 0.11242 0.25467 0.40955 0.0
H3066 H 0.13966 0.30225 0.43069 0.0
H3067 H 0.13136 0.47424 0.45773 0.0
H3068 H 0.15839 0.45599 0.43423 0.0
H3069 H 0.1177 0.36433 0.46724 0.0
H3070 H 0.08929 0.38231 0.48935 0.0
H3071 H 0.11978 0.35959 0.42191 0.0
H3072 H 0.19223 0.41462 0.48661 0.0
H3073 H 0.2209 0.45861 0.51166 0.0
H3074 H 0.2525 0.51223 0.44446 0.0
H3075 H 0.22374 0.46865 0.41897 0.0
C3076 C 0.24004 0.33867 0.39797 0.0
C3077 C 0.24193 0.34589 0.37189 0.0
C3078 C 0.22181 0.34743 0.4095 0.0
C3079 C 0.20512 0.3636 0.39523 0.0
C3080 C 0.20638 0.37027 0.36909 0.0
C3081 C 0.22451 0.36132 0.35747 0.0
C3082 C 0.18807 0.3753 0.40811 0.0
C3083 C 0.20283 0.40124 0.4216 0.0
C3084 C 0.15793 0.36005 0.40852 0.0
C3085 C 0.14176 0.33163 0.39585 0.0
C3086 C 0.13395 0.33261 0.36944 0.0
C3087 C 0.11845 0.3056 0.35762 0.0
C3088 C 0.11065 0.27753 0.37208 0.0
C3089 C 0.11838 0.27643 0.39838 0.0
C3090 C 0.13381 0.30339 0.41029 0.0
C3091 C 0.12834 0.45023 0.46 0.0
C3092 C 0.10832 0.42971 0.47541 0.0
C3093 C 0.14389 0.43978 0.44665 0.0
C3094 C 0.14062 0.40875 0.44918 0.0
C3095 C 0.12068 0.38832 0.46477 0.0
C3096 C 0.10451 0.39863 0.47752 0.0
C3097 C 0.15768 0.39747 0.4355 0.0
C3098 C 0.14305 0.3713 0.42204 0.0
C3099 C 0.18818 0.41231 0.43554 0.0
C3100 C 0.20563 0.43846 0.45086 0.0
C3101 C 0.20517 0.43585 0.47716 0.0
C3102 C 0.22145 0.4607 0.49144 0.0
C3103 C 0.23845 0.48822 0.47965 0.0
C3104 C 0.23929 0.49091 0.45356 0.0
C3105 C 0.22304 0.46614 0.4392 0.0
H3106 H 0.25103 0.50744 0.49073 0.0
H3107 H 0.0988 0.25663 0.36288 0.0
H3108 H 0.33273 0.19852 0.63851 0.0
H3109 H 0.34402 0.1647 0.61504 0.0
H3110 H 0.43209 0.22912 0.61566 0.0
H3111 H 0.42093 0.26292 0.63891 0.0
H3112 H 0.41079 0.21057 0.56977 0.0
H3113 H 0.41351 0.16102 0.65487 0.0
H3114 H 0.3929 0.13672 0.69429 0.0
H3115 H 0.32389 0.06815 0.65239 0.0
H3116 H 0.34392 0.09227 0.61265 0.0
H3117 H 0.4913 0.1299 0.54212 0.0
H3118 H 0.46964 0.15653 0.5629 0.0
H3119 H 0.38636 0.08348 0.55126 0.0
H3120 H 0.40809 0.05615 0.53045 0.0
H3121 H 0.39798 0.10297 0.59916 0.0
H3122 H 0.39775 0.15015 0.51448 0.0
H3123 H 0.41795 0.17522 0.47499 0.0
H3124 H 0.48189 0.24824 0.51599 0.0
H3125 H 0.46219 0.22368 0.55573 0.0
C3126 C 0.35458 0.2053 0.63387 0.0
C3127 C 0.37589 0.23352 0.64051 0.0
C3128 C 0.36101 0.18594 0.62042 0.0
C3129 C 0.38898 0.19424 0.61361 0.0
C3130 C 0.4103 0.22224 0.6205 0.0
C3131 C 0.40387 0.24161 0.63378 0.0
C3132 C 0.3962 0.17435 0.59887 0.0
C3133 C 0.40819 0.18712 0.57635 0.0
C3134 C 0.39185 0.14335 0.60685 0.0
C3135 C 0.38003 0.12863 0.63076 0.0
C3136 C 0.39384 0.14087 0.65404 0.0
C3137 C 0.38228 0.12711 0.67645 0.0
C3138 C 0.35705 0.10096 0.67583 0.0
C3139 C 0.3434 0.08843 0.65283 0.0
C3140 C 0.35486 0.10212 0.63036 0.0
C3141 C 0.46835 0.11931 0.54388 0.0
C3142 C 0.45146 0.09081 0.53442 0.0
C3143 C 0.45594 0.13473 0.55573 0.0
C3144 C 0.42625 0.1223 0.55832 0.0
C3145 C 0.4093 0.0936 0.54937 0.0
C3146 C 0.42176 0.07803 0.53745 0.0
C3147 C 0.41339 0.13957 0.57053 0.0
C3148 C 0.40026 0.12631 0.59246 0.0
C3149 C 0.41664 0.17017 0.56202 0.0
C3150 C 0.42859 0.18496 0.53813 0.0
C3151 C 0.41624 0.17145 0.51511 0.0
C3152 C 0.42757 0.18558 0.49268 0.0
C3153 C 0.45123 0.21319 0.49301 0.0
C3154 C 0.46357 0.22683 0.51576 0.0
C3155 C 0.45228 0.21287 0.53823 0.0
H3156 H 0.45997 0.22406 0.47563 0.0
H3157 H 0.34811 0.09036 0.69319 0.0
H3158 H 0.86467 0.33049 0.75412 0.0
H3159 H 0.89622 0.3607 0.72266 0.0
H3160 H 0.8244 0.3313 0.66297 0.0
H3161 H 0.79304 0.29964 0.69436 0.0
H3162 H 0.88174 0.32141 0.66175 0.0
H3163 H 0.8596 0.42754 0.64531 0.0
H3164 H 0.84892 0.46544 0.66493 0.0
H3165 H 0.90141 0.45054 0.73419 0.0
H3166 H 0.91348 0.41381 0.71449 0.0
H3167 H 0.92757 0.40677 0.54764 0.0
H3168 H 0.90363 0.37924 0.58423 0.0
H3169 H 0.975 0.43619 0.63401 0.0
H3170 H 0.99926 0.46395 0.59701 0.0
H3171 H 0.92162 0.43377 0.6433 0.0
H3172 H 0.9637 0.36132 0.63459 0.0
H3173 H 0.97619 0.32705 0.61226 0.0
H3174 H 0.88545 0.27503 0.59248 0.0
H3175 H 0.87238 0.30928 0.61435 0.0
C3176 C 0.85537 0.3311 0.73433 0.0
C3177 C 0.82612 0.31318 0.72686 0.0
C3178 C 0.87341 0.34867 0.71636 0.0
C3179 C 0.86257 0.34916 0.69045 0.0
C3180 C 0.83314 0.33183 0.6829 0.0
C3181 C 0.81512 0.31387 0.7009 0.0
C3182 C 0.88279 0.36436 0.67123 0.0
C3183 C 0.8904 0.34598 0.65764 0.0
C3184 C 0.8947 0.39643 0.66622 0.0
C3185 C 0.88662 0.41725 0.67872 0.0
C3186 C 0.8687 0.43231 0.66476 0.0
C3187 C 0.86272 0.45386 0.67577 0.0
C3188 C 0.87428 0.4602 0.70087 0.0
C3189 C 0.89219 0.44535 0.71485 0.0
C3190 C 0.89864 0.42419 0.70375 0.0
C3191 C 0.93858 0.41288 0.56644 0.0
C3192 C 0.96542 0.43733 0.56949 0.0
C3193 C 0.92483 0.39712 0.58739 0.0
C3194 C 0.93744 0.4055 0.61199 0.0
C3195 C 0.96484 0.42923 0.61523 0.0
C3196 C 0.97888 0.44486 0.59414 0.0
C3197 C 0.92073 0.39084 0.63377 0.0
C3198 C 0.91343 0.40922 0.64762 0.0
C3199 C 0.9093 0.35874 0.63914 0.0
C3200 C 0.91706 0.33804 0.62597 0.0
C3201 C 0.94639 0.34273 0.62531 0.0
C3202 C 0.95358 0.32327 0.61276 0.0
C3203 C 0.93162 0.29891 0.60092 0.0
C3204 C 0.90243 0.29392 0.60164 0.0
C3205 C 0.89512 0.31333 0.61414 0.0
H3206 H 0.93723 0.28386 0.59122 0.0
H3207 H 0.86946 0.47672 0.70944 0.0
H3208 H 0.18603 0.73173 0.6761 0.0
H3209 H 0.1663 0.70599 0.63686 0.0
H3210 H 0.25326 0.72045 0.62389 0.0
H3211 H 0.27306 0.74749 0.66212 0.0
H3212 H 0.2179 0.71526 0.57964 0.0
H3213 H 0.22047 0.65843 0.65967 0.0
H3214 H 0.21265 0.64562 0.70436 0.0
H3215 H 0.12039 0.62047 0.68241 0.0
H3216 H 0.1278 0.63348 0.63742 0.0
H3217 H 0.11314 0.54247 0.55777 0.0
H3218 H 0.15777 0.57858 0.579 0.0
H3219 H 0.14127 0.65307 0.53116 0.0
H3220 H 0.0985 0.61735 0.50901 0.0
H3221 H 0.15236 0.61174 0.6071 0.0
H3222 H 0.19337 0.72064 0.53549 0.0
H3223 H 0.2085 0.73306 0.49289 0.0
H3224 H 0.22443 0.64948 0.49907 0.0
H3225 H 0.20996 0.63675 0.54191 0.0
C3226 C 0.20091 0.73037 0.66437 0.0
C3227 C 0.2309 0.74024 0.67265 0.0
C3228 C 0.18968 0.71568 0.642 0.0
C3229 C 0.20834 0.71034 0.62807 0.0
C3230 C 0.23847 0.72387 0.63456 0.0
C3231 C 0.24969 0.73892 0.65665 0.0
C3232 C 0.19659 0.68616 0.61022 0.0
C3233 C 0.20341 0.69259 0.58536 0.0
C3234 C 0.17949 0.65613 0.6184 0.0
C3235 C 0.1747 0.64708 0.64525 0.0
C3236 C 0.19852 0.6502 0.66439 0.0
C3237 C 0.19416 0.64295 0.68979 0.0
C3238 C 0.16601 0.63232 0.69629 0.0
C3239 C 0.14217 0.62873 0.67735 0.0
C3240 C 0.14644 0.63598 0.65188 0.0
C3241 C 0.11986 0.56641 0.55109 0.0
C3242 C 0.10178 0.57723 0.53246 0.0
C3243 C 0.14532 0.5871 0.56326 0.0
C3244 C 0.15271 0.61874 0.55713 0.0
C3245 C 0.1365 0.62896 0.53631 0.0
C3246 C 0.11154 0.60837 0.52388 0.0
C3247 C 0.17215 0.64084 0.57552 0.0
C3248 C 0.16702 0.63411 0.60091 0.0
C3249 C 0.1917 0.67013 0.56788 0.0
C3250 C 0.20045 0.67767 0.542 0.0
C3251 C 0.20032 0.70498 0.5279 0.0
C3252 C 0.20879 0.71209 0.50368 0.0
C3253 C 0.21748 0.69211 0.49331 0.0
C3254 C 0.2177 0.66495 0.50714 0.0
C3255 C 0.20931 0.65775 0.53138 0.0
H3256 H 0.22394 0.69762 0.47454 0.0
H3257 H 0.16263 0.62682 0.71598 0.0
loop_
_geom_bond_atom_site_label_1
_geom_bond_atom_site_label_2
_geom_bond_distance
_geom_bond_site_symmetry_2
_ccdc_geom_bond_type
Tb0 N31 2.660 . S
Tb0 N38 2.600 . S
Tb0 O44 2.546 . S
Tb0 O45 2.610 . S
Tb0 O47 2.320 . S
Tb0 O48 2.552 . S
Tb0 O49 2.413 . S
Tb0 O51 2.362 . S
Tb0 O52 2.421 . S
Tb0 C64 2.833 . S
C1 C4 1.432 . S
C1 C5 1.414 . S
C1 N8 1.359 . S
C2 C4 1.417 . S
C2 C6 1.432 . S
C2 C14 1.410 . S
C3 C5 1.444 . S
C3 C6 1.317 . S
C3 H26 0.929 . S
C4 C1 1.432 . S
C4 C2 1.417 . S
C4 N12 1.360 . S
C5 C1 1.414 . S
C5 C3 1.444 . S
C5 C10 1.385 . S
C6 C2 1.432 . S
C6 C3 1.317 . S
C6 H18 0.930 . S
C7 C9 1.392 . S
C7 C10 1.370 . S
C7 H19 0.931 . S
N8 C1 1.359 . S
N8 C9 1.327 . S
N8 Tb11 2.600 . S
C9 C7 1.392 . S
C9 N8 1.327 . S
C9 H16 0.930 . S
C10 C5 1.385 . S
C10 C7 1.370 . S
C10 H29 0.930 . S
Tb11 N8 2.600 . S
Tb11 N12 2.660 . S
Tb11 O45 2.362 . S
Tb11 O46 2.421 . S
Tb11 O50 2.546 . S
Tb11 O51 2.610 . S
Tb11 O53 2.320 . S
Tb11 O54 2.552 . S
Tb11 O55 2.413 . S
Tb11 C75 2.833 . S
N12 C4 1.360 . S
N12 Tb11 2.660 . S
N12 C13 1.305 . S
C13 N12 1.305 . S
C13 C15 1.407 . S
C13 H20 0.930 . S
C14 C2 1.410 . S
C14 C15 1.345 . S
C14 H22 0.930 . S
C15 C13 1.407 . S
C15 C14 1.345 . S
C15 H17 0.930 . S
H16 C9 0.930 . S
H17 C15 0.930 . S
H18 C6 0.930 . S
H19 C7 0.931 . S
H20 C13 0.930 . S
H21 C35 0.930 . S
H22 C14 0.930 . S
H23 C41 0.930 . S
H24 C32 0.930 . S
H25 C39 0.931 . S
H26 C3 0.929 . S
H27 C33 0.930 . S
H28 C66 0.930 . S
H29 C10 0.930 . S
H30 C65 0.929 . S
N31 Tb0 2.660 . S
N31 C32 1.305 . S
N31 C36 1.360 . S
C32 H24 0.930 . S
C32 N31 1.305 . S
C32 C35 1.407 . S
C33 H27 0.930 . S
C33 C34 1.410 . S
C33 C35 1.345 . S
C34 C33 1.410 . S
C34 C36 1.417 . S
C34 C66 1.432 . S
C35 H21 0.930 . S
C35 C32 1.407 . S
C35 C33 1.345 . S
C36 N31 1.360 . S
C36 C34 1.417 . S
C36 C40 1.432 . S
H37 C42 0.930 . S
N38 Tb0 2.600 . S
N38 C40 1.359 . S
N38 C41 1.327 . S
C39 H25 0.931 . S
C39 C41 1.392 . S
C39 C42 1.370 . S
C40 C36 1.432 . S
C40 N38 1.359 . S
C40 C43 1.414 . S
C41 H23 0.930 . S
C41 N38 1.327 . S
C41 C39 1.392 . S
C42 H37 0.930 . S
C42 C39 1.370 . S
C42 C43 1.385 . S
C43 C40 1.414 . S
C43 C42 1.385 . S
C43 C65 1.444 . S
O44 Tb0 2.546 . S
O44 C64 1.251 . S
O45 Tb0 2.610 . S
O45 Tb11 2.362 . S
O45 C56 1.283 . S
O46 Tb11 2.421 . S
O46 C63 1.262 . S
O47 Tb0 2.320 . S
O47 C63 1.260 . S
O48 Tb0 2.552 . S
O48 C56 1.243 . S
O49 Tb0 2.413 . S
O49 C64 1.256 . S
O50 Tb11 2.546 . S
O50 C75 1.251 . S
O51 Tb0 2.362 . S
O51 Tb11 2.610 . S
O51 C67 1.283 . S
O52 Tb0 2.421 . S
O52 C74 1.262 . S
O53 Tb11 2.320 . S
O53 C74 1.260 . S
O54 Tb11 2.552 . S
O54 C67 1.243 . S
O55 Tb11 2.413 . S
O55 C75 1.256 . S
C56 O45 1.283 . S
C56 O48 1.243 . S
C57 C59 1.382 . S
C57 C61 1.393 . S
C57 C64 1.500 . S
C58 C59 1.400 . S
C58 C60 1.384 . S
C59 C57 1.382 . S
C59 C58 1.400 . S
C59 H76 0.930 . S
C60 C58 1.384 . S
C60 C62 1.392 . S
C60 H77 0.931 . S
C61 C57 1.393 . S
C61 C62 1.401 . S
C61 H78 0.930 . S
C62 C60 1.392 . S
C62 C61 1.401 . S
C62 H79 0.930 . S
C63 O46 1.262 . S
C63 O47 1.260 . S
C64 Tb0 2.833 . S
C64 O44 1.251 . S
C64 O49 1.256 . S
C64 C57 1.500 . S
C65 H30 0.929 . S
C65 C43 1.444 . S
C65 C66 1.317 . S
C66 H28 0.930 . S
C66 C34 1.432 . S
C66 C65 1.317 . S
C67 O51 1.283 . S
C67 O54 1.243 . S
C68 C69 1.382 . S
C68 C72 1.393 . S
C68 C75 1.500 . S
C69 C68 1.382 . S
C69 C70 1.400 . S
C69 H80 0.930 . S
C70 C69 1.400 . S
C70 C71 1.384 . S
C71 C70 1.384 . S
C71 C73 1.392 . S
C71 H81 0.931 . S
C72 C68 1.393 . S
C72 C73 1.401 . S
C72 H82 0.930 . S
C73 C71 1.392 . S
C73 C72 1.401 . S
C73 H83 0.930 . S
C74 O52 1.262 . S
C74 O53 1.260 . S
C75 Tb11 2.833 . S
C75 O50 1.251 . S
C75 O55 1.256 . S
C75 C68 1.500 . S
H76 C59 0.930 . S
H77 C60 0.931 . S
H78 C61 0.930 . S
H79 C62 0.930 . S
H80 C69 0.930 . S
H81 C71 0.931 . S
H82 C72 0.930 . S
H83 C73 0.930 . S
Tb84 N115 2.660 . S
Tb84 N122 2.600 . S
Tb84 O128 2.546 . S
Tb84 O129 2.610 . S
Tb84 O131 2.320 . S
Tb84 O132 2.552 . S
Tb84 O133 2.413 . S
Tb84 O135 2.362 . S
Tb84 O136 2.421 . S
Tb84 C148 2.833 . S
C85 C88 1.432 . S
C85 C89 1.414 . S
C85 N92 1.359 . S
C86 C88 1.417 . S
C86 C90 1.432 . S
C86 C98 1.410 . S
C87 C89 1.444 . S
C87 C90 1.317 . S
C87 H110 0.929 . S
C88 C85 1.432 . S
C88 C86 1.417 . S
C88 N96 1.360 . S
C89 C85 1.414 . S
C89 C87 1.444 . S
C89 C94 1.385 . S
C90 C86 1.432 . S
C90 C87 1.317 . S
C90 H102 0.930 . S
C91 C93 1.392 . S
C91 C94 1.370 . S
C91 H103 0.931 . S
N92 C85 1.359 . S
N92 C93 1.327 . S
N92 Tb95 2.600 . S
C93 C91 1.392 . S
C93 N92 1.327 . S
C93 H100 0.930 . S
C94 C89 1.385 . S
C94 C91 1.370 . S
C94 H113 0.930 . S
Tb95 N92 2.600 . S
Tb95 N96 2.660 . S
Tb95 O129 2.362 . S
Tb95 O130 2.421 . S
Tb95 O134 2.546 . S
Tb95 O135 2.610 . S
Tb95 O137 2.320 . S
Tb95 O138 2.552 . S
Tb95 O139 2.413 . S
Tb95 C159 2.833 . S
N96 C88 1.360 . S
N96 Tb95 2.660 . S
N96 C97 1.305 . S
C97 N96 1.305 . S
C97 C99 1.407 . S
C97 H104 0.930 . S
C98 C86 1.410 . S
C98 C99 1.345 . S
C98 H106 0.930 . S
C99 C97 1.407 . S
C99 C98 1.345 . S
C99 H101 0.930 . S
H100 C93 0.930 . S
H101 C99 0.930 . S
H102 C90 0.930 . S
H103 C91 0.931 . S
H104 C97 0.930 . S
H105 C119 0.930 . S
H106 C98 0.930 . S
H107 C125 0.930 . S
H108 C116 0.930 . S
H109 C123 0.931 . S
H110 C87 0.929 . S
H111 C117 0.930 . S
H112 C150 0.930 . S
H113 C94 0.930 . S
H114 C149 0.929 . S
N115 Tb84 2.660 . S
N115 C116 1.305 . S
N115 C120 1.360 . S
C116 H108 0.930 . S
C116 N115 1.305 . S
C116 C119 1.407 . S
C117 H111 0.930 . S
C117 C118 1.410 . S
C117 C119 1.345 . S
C118 C117 1.410 . S
C118 C120 1.417 . S
C118 C150 1.432 . S
C119 H105 0.930 . S
C119 C116 1.407 . S
C119 C117 1.345 . S
C120 N115 1.360 . S
C120 C118 1.417 . S
C120 C124 1.432 . S
H121 C126 0.930 . S
N122 Tb84 2.600 . S
N122 C124 1.359 . S
N122 C125 1.327 . S
C123 H109 0.931 . S
C123 C125 1.392 . S
C123 C126 1.370 . S
C124 C120 1.432 . S
C124 N122 1.359 . S
C124 C127 1.414 . S
C125 H107 0.930 . S
C125 N122 1.327 . S
C125 C123 1.392 . S
C126 H121 0.930 . S
C126 C123 1.370 . S
C126 C127 1.385 . S
C127 C124 1.414 . S
C127 C126 1.385 . S
C127 C149 1.444 . S
O128 Tb84 2.546 . S
O128 C148 1.251 . S
O129 Tb84 2.610 . S
O129 Tb95 2.362 . S
O129 C140 1.283 . S
O130 Tb95 2.421 . S
O130 C147 1.262 . S
O131 Tb84 2.320 . S
O131 C147 1.260 . S
O132 Tb84 2.552 . S
O132 C140 1.243 . S
O133 Tb84 2.413 . S
O133 C148 1.256 . S
O134 Tb95 2.546 . S
O134 C159 1.251 . S
O135 Tb84 2.362 . S
O135 Tb95 2.610 . S
O135 C151 1.283 . S
O136 Tb84 2.421 . S
O136 C158 1.262 . S
O137 Tb95 2.320 . S
O137 C158 1.260 . S
O138 Tb95 2.552 . S
O138 C151 1.243 . S
O139 Tb95 2.413 . S
O139 C159 1.256 . S
C140 O129 1.283 . S
C140 O132 1.243 . S
C141 C143 1.382 . S
C141 C145 1.393 . S
C141 C148 1.500 . S
C142 C143 1.400 . S
C142 C144 1.384 . S
C143 C141 1.382 . S
C143 C142 1.400 . S
C143 H160 0.930 . S
C144 C142 1.384 . S
C144 C146 1.392 . S
C144 H161 0.931 . S
C145 C141 1.393 . S
C145 C146 1.401 . S
C145 H162 0.930 . S
C146 C144 1.392 . S
C146 C145 1.401 . S
C146 H163 0.930 . S
C147 O130 1.262 . S
C147 O131 1.260 . S
C148 Tb84 2.833 . S
C148 O128 1.251 . S
C148 O133 1.256 . S
C148 C141 1.500 . S
C149 H114 0.929 . S
C149 C127 1.444 . S
C149 C150 1.317 . S
C150 H112 0.930 . S
C150 C118 1.432 . S
C150 C149 1.317 . S
C151 O135 1.283 . S
C151 O138 1.243 . S
C152 C153 1.382 . S
C152 C156 1.393 . S
C152 C159 1.500 . S
C153 C152 1.382 . S
C153 C154 1.400 . S
C153 H164 0.930 . S
C154 C153 1.400 . S
C154 C155 1.384 . S
C155 C154 1.384 . S
C155 C157 1.392 . S
C155 H165 0.931 . S
C156 C152 1.393 . S
C156 C157 1.401 . S
C156 H166 0.930 . S
C157 C155 1.392 . S
C157 C156 1.401 . S
C157 H167 0.930 . S
C158 O136 1.262 . S
C158 O137 1.260 . S
C159 Tb95 2.833 . S
C159 O134 1.251 . S
C159 O139 1.256 . S
C159 C152 1.500 . S
H160 C143 0.930 . S
H161 C144 0.931 . S
H162 C145 0.930 . S
H163 C146 0.930 . S
H164 C153 0.930 . S
H165 C155 0.931 . S
H166 C156 0.930 . S
H167 C157 0.930 . S
Tb168 N199 2.660 . S
Tb168 N206 2.600 . S
Tb168 O212 2.546 . S
Tb168 O213 2.610 . S
Tb168 O215 2.320 . S
Tb168 O216 2.552 . S
Tb168 O217 2.413 . S
Tb168 O219 2.362 . S
Tb168 O220 2.421 . S
Tb168 C232 2.833 . S
C169 C172 1.432 . S
C169 C173 1.414 . S
C169 N176 1.359 . S
C170 C172 1.417 . S
C170 C174 1.432 . S
C170 C182 1.410 . S
C171 C173 1.444 . S
C171 C174 1.317 . S
C171 H194 0.929 . S
C172 C169 1.432 . S
C172 C170 1.417 . S
C172 N180 1.360 . S
C173 C169 1.414 . S
C173 C171 1.444 . S
C173 C178 1.385 . S
C174 C170 1.432 . S
C174 C171 1.317 . S
C174 H186 0.930 . S
C175 C177 1.392 . S
C175 C178 1.370 . S
C175 H187 0.931 . S
N176 C169 1.359 . S
N176 C177 1.327 . S
N176 Tb179 2.600 . S
C177 C175 1.392 . S
C177 N176 1.327 . S
C177 H184 0.930 . S
C178 C173 1.385 . S
C178 C175 1.370 . S
C178 H197 0.930 . S
Tb179 N176 2.600 . S
Tb179 N180 2.660 . S
Tb179 O213 2.362 . S
Tb179 O214 2.421 . S
Tb179 O218 2.546 . S
Tb179 O219 2.610 . S
Tb179 O221 2.320 . S
Tb179 O222 2.552 . S
Tb179 O223 2.413 . S
Tb179 C243 2.833 . S
N180 C172 1.360 . S
N180 Tb179 2.660 . S
N180 C181 1.305 . S
C181 N180 1.305 . S
C181 C183 1.407 . S
C181 H188 0.930 . S
C182 C170 1.410 . S
C182 C183 1.345 . S
C182 H190 0.930 . S
C183 C181 1.407 . S
C183 C182 1.345 . S
C183 H185 0.930 . S
H184 C177 0.930 . S
H185 C183 0.930 . S
H186 C174 0.930 . S
H187 C175 0.931 . S
H188 C181 0.930 . S
H189 C203 0.930 . S
H190 C182 0.930 . S
H191 C209 0.930 . S
H192 C200 0.930 . S
H193 C207 0.931 . S
H194 C171 0.929 . S
H195 C201 0.930 . S
H196 C234 0.930 . S
H197 C178 0.930 . S
H198 C233 0.929 . S
N199 Tb168 2.660 . S
N199 C200 1.305 . S
N199 C204 1.360 . S
C200 H192 0.930 . S
C200 N199 1.305 . S
C200 C203 1.407 . S
C201 H195 0.930 . S
C201 C202 1.410 . S
C201 C203 1.345 . S
C202 C201 1.410 . S
C202 C204 1.417 . S
C202 C234 1.432 . S
C203 H189 0.930 . S
C203 C200 1.407 . S
C203 C201 1.345 . S
C204 N199 1.360 . S
C204 C202 1.417 . S
C204 C208 1.432 . S
H205 C210 0.930 . S
N206 Tb168 2.600 . S
N206 C208 1.359 . S
N206 C209 1.327 . S
C207 H193 0.931 . S
C207 C209 1.392 . S
C207 C210 1.370 . S
C208 C204 1.432 . S
C208 N206 1.359 . S
C208 C211 1.414 . S
C209 H191 0.930 . S
C209 N206 1.327 . S
C209 C207 1.392 . S
C210 H205 0.930 . S
C210 C207 1.370 . S
C210 C211 1.385 . S
C211 C208 1.414 . S
C211 C210 1.385 . S
C211 C233 1.444 . S
O212 Tb168 2.546 . S
O212 C232 1.251 . S
O213 Tb168 2.610 . S
O213 Tb179 2.362 . S
O213 C224 1.283 . S
O214 Tb179 2.421 . S
O214 C231 1.262 . S
O215 Tb168 2.320 . S
O215 C231 1.260 . S
O216 Tb168 2.552 . S
O216 C224 1.243 . S
O217 Tb168 2.413 . S
O217 C232 1.256 . S
O218 Tb179 2.546 . S
O218 C243 1.251 . S
O219 Tb168 2.362 . S
O219 Tb179 2.610 . S
O219 C235 1.283 . S
O220 Tb168 2.421 . S
O220 C242 1.262 . S
O221 Tb179 2.320 . S
O221 C242 1.260 . S
O222 Tb179 2.552 . S
O222 C235 1.243 . S
O223 Tb179 2.413 . S
O223 C243 1.256 . S
C224 O213 1.283 . S
C224 O216 1.243 . S
C225 C227 1.382 . S
C225 C229 1.393 . S
C225 C232 1.500 . S
C226 C227 1.400 . S
C226 C228 1.384 . S
C227 C225 1.382 . S
C227 C226 1.400 . S
C227 H244 0.930 . S
C228 C226 1.384 . S
C228 C230 1.392 . S
C228 H245 0.931 . S
C229 C225 1.393 . S
C229 C230 1.401 . S
C229 H246 0.930 . S
C230 C228 1.392 . S
C230 C229 1.401 . S
C230 H247 0.930 . S
C231 O214 1.262 . S
C231 O215 1.260 . S
C232 Tb168 2.833 . S
C232 O212 1.251 . S
C232 O217 1.256 . S
C232 C225 1.500 . S
C233 H198 0.929 . S
C233 C211 1.444 . S
C233 C234 1.317 . S
C234 H196 0.930 . S
C234 C202 1.432 . S
C234 C233 1.317 . S
C235 O219 1.283 . S
C235 O222 1.243 . S
C236 C237 1.382 . S
C236 C240 1.393 . S
C236 C243 1.500 . S
C237 C236 1.382 . S
C237 C238 1.400 . S
C237 H248 0.930 . S
C238 C237 1.400 . S
C238 C239 1.384 . S
C239 C238 1.384 . S
C239 C241 1.392 . S
C239 H249 0.931 . S
C240 C236 1.393 . S
C240 C241 1.401 . S
C240 H250 0.930 . S
C241 C239 1.392 . S
C241 C240 1.401 . S
C241 H251 0.930 . S
C242 O220 1.262 . S
C242 O221 1.260 . S
C243 Tb179 2.833 . S
C243 O218 1.251 . S
C243 O223 1.256 . S
C243 C236 1.500 . S
H244 C227 0.930 . S
H245 C228 0.931 . S
H246 C229 0.930 . S
H247 C230 0.930 . S
H248 C237 0.930 . S
H249 C239 0.931 . S
H250 C240 0.930 . S
H251 C241 0.930 . S
Tb252 N283 2.660 . S
Tb252 N290 2.600 . S
Tb252 O296 2.546 . S
Tb252 O297 2.610 . S
Tb252 O299 2.320 . S
Tb252 O300 2.552 . S
Tb252 O301 2.413 . S
Tb252 O303 2.362 . S
Tb252 O304 2.421 . S
Tb252 C316 2.833 . S
C253 C256 1.432 . S
C253 C257 1.414 . S
C253 N260 1.359 . S
C254 C256 1.417 . S
C254 C258 1.432 . S
C254 C266 1.410 . S
C255 C257 1.444 . S
C255 C258 1.317 . S
C255 H278 0.929 . S
C256 C253 1.432 . S
C256 C254 1.417 . S
C256 N264 1.360 . S
C257 C253 1.414 . S
C257 C255 1.444 . S
C257 C262 1.385 . S
C258 C254 1.432 . S
C258 C255 1.317 . S
C258 H270 0.930 . S
C259 C261 1.392 . S
C259 C262 1.370 . S
C259 H271 0.931 . S
N260 C253 1.359 . S
N260 C261 1.327 . S
N260 Tb263 2.600 . S
C261 C259 1.392 . S
C261 N260 1.327 . S
C261 H268 0.930 . S
C262 C257 1.385 . S
C262 C259 1.370 . S
C262 H281 0.930 . S
Tb263 N260 2.600 . S
Tb263 N264 2.660 . S
Tb263 O297 2.362 . S
Tb263 O298 2.421 . S
Tb263 O302 2.546 . S
Tb263 O303 2.610 . S
Tb263 O305 2.320 . S
Tb263 O306 2.552 . S
Tb263 O307 2.413 . S
Tb263 C327 2.833 . S
N264 C256 1.360 . S
N264 Tb263 2.660 . S
N264 C265 1.305 . S
C265 N264 1.305 . S
C265 C267 1.407 . S
C265 H272 0.930 . S
C266 C254 1.410 . S
C266 C267 1.345 . S
C266 H274 0.930 . S
C267 C265 1.407 . S
C267 C266 1.345 . S
C267 H269 0.930 . S
H268 C261 0.930 . S
H269 C267 0.930 . S
H270 C258 0.930 . S
H271 C259 0.931 . S
H272 C265 0.930 . S
H273 C287 0.930 . S
H274 C266 0.930 . S
H275 C293 0.930 . S
H276 C284 0.930 . S
H277 C291 0.931 . S
H278 C255 0.929 . S
H279 C285 0.930 . S
H280 C318 0.930 . S
H281 C262 0.930 . S
H282 C317 0.929 . S
N283 Tb252 2.660 . S
N283 C284 1.305 . S
N283 C288 1.360 . S
C284 H276 0.930 . S
C284 N283 1.305 . S
C284 C287 1.407 . S
C285 H279 0.930 . S
C285 C286 1.410 . S
C285 C287 1.345 . S
C286 C285 1.410 . S
C286 C288 1.417 . S
C286 C318 1.432 . S
C287 H273 0.930 . S
C287 C284 1.407 . S
C287 C285 1.345 . S
C288 N283 1.360 . S
C288 C286 1.417 . S
C288 C292 1.432 . S
H289 C294 0.930 . S
N290 Tb252 2.600 . S
N290 C292 1.359 . S
N290 C293 1.327 . S
C291 H277 0.931 . S
C291 C293 1.392 . S
C291 C294 1.370 . S
C292 C288 1.432 . S
C292 N290 1.359 . S
C292 C295 1.414 . S
C293 H275 0.930 . S
C293 N290 1.327 . S
C293 C291 1.392 . S
C294 H289 0.930 . S
C294 C291 1.370 . S
C294 C295 1.385 . S
C295 C292 1.414 . S
C295 C294 1.385 . S
C295 C317 1.444 . S
O296 Tb252 2.546 . S
O296 C316 1.251 . S
O297 Tb252 2.610 . S
O297 Tb263 2.362 . S
O297 C308 1.283 . S
O298 Tb263 2.421 . S
O298 C315 1.262 . S
O299 Tb252 2.320 . S
O299 C315 1.260 . S
O300 Tb252 2.552 . S
O300 C308 1.243 . S
O301 Tb252 2.413 . S
O301 C316 1.256 . S
O302 Tb263 2.546 . S
O302 C327 1.251 . S
O303 Tb252 2.362 . S
O303 Tb263 2.610 . S
O303 C319 1.283 . S
O304 Tb252 2.421 . S
O304 C326 1.262 . S
O305 Tb263 2.320 . S
O305 C326 1.260 . S
O306 Tb263 2.552 . S
O306 C319 1.243 . S
O307 Tb263 2.413 . S
O307 C327 1.256 . S
C308 O297 1.283 . S
C308 O300 1.243 . S
C309 C311 1.382 . S
C309 C313 1.393 . S
C309 C316 1.500 . S
C310 C311 1.400 . S
C310 C312 1.384 . S
C311 C309 1.382 . S
C311 C310 1.400 . S
C311 H328 0.930 . S
C312 C310 1.384 . S
C312 C314 1.392 . S
C312 H329 0.931 . S
C313 C309 1.393 . S
C313 C314 1.401 . S
C313 H330 0.930 . S
C314 C312 1.392 . S
C314 C313 1.401 . S
C314 H331 0.930 . S
C315 O298 1.262 . S
C315 O299 1.260 . S
C316 Tb252 2.833 . S
C316 O296 1.251 . S
C316 O301 1.256 . S
C316 C309 1.500 . S
C317 H282 0.929 . S
C317 C295 1.444 . S
C317 C318 1.317 . S
C318 H280 0.930 . S
C318 C286 1.432 . S
C318 C317 1.317 . S
C319 O303 1.283 . S
C319 O306 1.243 . S
C320 C321 1.382 . S
C320 C324 1.393 . S
C320 C327 1.500 . S
C321 C320 1.382 . S
C321 C322 1.400 . S
C321 H332 0.930 . S
C322 C321 1.400 . S
C322 C323 1.384 . S
C323 C322 1.384 . S
C323 C325 1.392 . S
C323 H333 0.931 . S
C324 C320 1.393 . S
C324 C325 1.401 . S
C324 H334 0.930 . S
C325 C323 1.392 . S
C325 C324 1.401 . S
C325 H335 0.930 . S
C326 O304 1.262 . S
C326 O305 1.260 . S
C327 Tb263 2.833 . S
C327 O302 1.251 . S
C327 O307 1.256 . S
C327 C320 1.500 . S
H328 C311 0.930 . S
H329 C312 0.931 . S
H330 C313 0.930 . S
H331 C314 0.930 . S
H332 C321 0.930 . S
H333 C323 0.931 . S
H334 C324 0.930 . S
H335 C325 0.930 . S
Tb336 N367 2.660 . S
Tb336 N374 2.600 . S
Tb336 O380 2.546 . S
Tb336 O381 2.610 . S
Tb336 O383 2.320 . S
Tb336 O384 2.552 . S
Tb336 O385 2.413 . S
Tb336 O387 2.362 . S
Tb336 O388 2.421 . S
Tb336 C400 2.833 . S
C337 C340 1.432 . S
C337 C341 1.414 . S
C337 N344 1.359 . S
C338 C340 1.417 . S
C338 C342 1.432 . S
C338 C350 1.410 . S
C339 C341 1.444 . S
C339 C342 1.317 . S
C339 H362 0.929 . S
C340 C337 1.432 . S
C340 C338 1.417 . S
C340 N348 1.360 . S
C341 C337 1.414 . S
C341 C339 1.444 . S
C341 C346 1.385 . S
C342 C338 1.432 . S
C342 C339 1.317 . S
C342 H354 0.930 . S
C343 C345 1.392 . S
C343 C346 1.370 . S
C343 H355 0.931 . S
N344 C337 1.359 . S
N344 C345 1.327 . S
N344 Tb347 2.600 . S
C345 C343 1.392 . S
C345 N344 1.327 . S
C345 H352 0.930 . S
C346 C341 1.385 . S
C346 C343 1.370 . S
C346 H365 0.930 . S
Tb347 N344 2.600 . S
Tb347 N348 2.660 . S
Tb347 O381 2.362 . S
Tb347 O382 2.421 . S
Tb347 O386 2.546 . S
Tb347 O387 2.610 . S
Tb347 O389 2.320 . S
Tb347 O390 2.552 . S
Tb347 O391 2.413 . S
Tb347 C411 2.833 . S
N348 C340 1.360 . S
N348 Tb347 2.660 . S
N348 C349 1.305 . S
C349 N348 1.305 . S
C349 C351 1.407 . S
C349 H356 0.930 . S
C350 C338 1.410 . S
C350 C351 1.345 . S
C350 H358 0.930 . S
C351 C349 1.407 . S
C351 C350 1.345 . S
C351 H353 0.930 . S
H352 C345 0.930 . S
H353 C351 0.930 . S
H354 C342 0.930 . S
H355 C343 0.931 . S
H356 C349 0.930 . S
H357 C371 0.930 . S
H358 C350 0.930 . S
H359 C377 0.930 . S
H360 C368 0.930 . S
H361 C375 0.931 . S
H362 C339 0.929 . S
H363 C369 0.930 . S
H364 C402 0.930 . S
H365 C346 0.930 . S
H366 C401 0.929 . S
N367 Tb336 2.660 . S
N367 C368 1.305 . S
N367 C372 1.360 . S
C368 H360 0.930 . S
C368 N367 1.305 . S
C368 C371 1.407 . S
C369 H363 0.930 . S
C369 C370 1.410 . S
C369 C371 1.345 . S
C370 C369 1.410 . S
C370 C372 1.417 . S
C370 C402 1.432 . S
C371 H357 0.930 . S
C371 C368 1.407 . S
C371 C369 1.345 . S
C372 N367 1.360 . S
C372 C370 1.417 . S
C372 C376 1.432 . S
H373 C378 0.930 . S
N374 Tb336 2.600 . S
N374 C376 1.359 . S
N374 C377 1.327 . S
C375 H361 0.931 . S
C375 C377 1.392 . S
C375 C378 1.370 . S
C376 C372 1.432 . S
C376 N374 1.359 . S
C376 C379 1.414 . S
C377 H359 0.930 . S
C377 N374 1.327 . S
C377 C375 1.392 . S
C378 H373 0.930 . S
C378 C375 1.370 . S
C378 C379 1.385 . S
C379 C376 1.414 . S
C379 C378 1.385 . S
C379 C401 1.444 . S
O380 Tb336 2.546 . S
O380 C400 1.251 . S
O381 Tb336 2.610 . S
O381 Tb347 2.362 . S
O381 C392 1.283 . S
O382 Tb347 2.421 . S
O382 C399 1.262 . S
O383 Tb336 2.320 . S
O383 C399 1.260 . S
O384 Tb336 2.552 . S
O384 C392 1.243 . S
O385 Tb336 2.413 . S
O385 C400 1.256 . S
O386 Tb347 2.546 . S
O386 C411 1.251 . S
O387 Tb336 2.362 . S
O387 Tb347 2.610 . S
O387 C403 1.283 . S
O388 Tb336 2.421 . S
O388 C410 1.262 . S
O389 Tb347 2.320 . S
O389 C410 1.260 . S
O390 Tb347 2.552 . S
O390 C403 1.243 . S
O391 Tb347 2.413 . S
O391 C411 1.256 . S
C392 O381 1.283 . S
C392 O384 1.243 . S
C393 C395 1.382 . S
C393 C397 1.393 . S
C393 C400 1.500 . S
C394 C395 1.400 . S
C394 C396 1.384 . S
C395 C393 1.382 . S
C395 C394 1.400 . S
C395 H412 0.930 . S
C396 C394 1.384 . S
C396 C398 1.392 . S
C396 H413 0.931 . S
C397 C393 1.393 . S
C397 C398 1.401 . S
C397 H414 0.930 . S
C398 C396 1.392 . S
C398 C397 1.401 . S
C398 H415 0.930 . S
C399 O382 1.262 . S
C399 O383 1.260 . S
C400 Tb336 2.833 . S
C400 O380 1.251 . S
C400 O385 1.256 . S
C400 C393 1.500 . S
C401 H366 0.929 . S
C401 C379 1.444 . S
C401 C402 1.317 . S
C402 H364 0.930 . S
C402 C370 1.432 . S
C402 C401 1.317 . S
C403 O387 1.283 . S
C403 O390 1.243 . S
C404 C405 1.382 . S
C404 C408 1.393 . S
C404 C411 1.500 . S
C405 C404 1.382 . S
C405 C406 1.400 . S
C405 H416 0.930 . S
C406 C405 1.400 . S
C406 C407 1.384 . S
C407 C406 1.384 . S
C407 C409 1.392 . S
C407 H417 0.931 . S
C408 C404 1.393 . S
C408 C409 1.401 . S
C408 H418 0.930 . S
C409 C407 1.392 . S
C409 C408 1.401 . S
C409 H419 0.930 . S
C410 O388 1.262 . S
C410 O389 1.260 . S
C411 Tb347 2.833 . S
C411 O386 1.251 . S
C411 O391 1.256 . S
C411 C404 1.500 . S
H412 C395 0.930 . S
H413 C396 0.931 . S
H414 C397 0.930 . S
H415 C398 0.930 . S
H416 C405 0.930 . S
H417 C407 0.931 . S
H418 C408 0.930 . S
H419 C409 0.930 . S
Tb420 N451 2.660 . S
Tb420 N458 2.600 . S
Tb420 O464 2.546 . S
Tb420 O465 2.610 . S
Tb420 O467 2.320 . S
Tb420 O468 2.552 . S
Tb420 O469 2.413 . S
Tb420 O471 2.362 . S
Tb420 O472 2.421 . S
Tb420 C484 2.833 . S
C421 C424 1.432 . S
C421 C425 1.414 . S
C421 N428 1.359 . S
C422 C424 1.417 . S
C422 C426 1.432 . S
C422 C434 1.410 . S
C423 C425 1.444 . S
C423 C426 1.317 . S
C423 H446 0.929 . S
C424 C421 1.432 . S
C424 C422 1.417 . S
C424 N432 1.360 . S
C425 C421 1.414 . S
C425 C423 1.444 . S
C425 C430 1.385 . S
C426 C422 1.432 . S
C426 C423 1.317 . S
C426 H438 0.930 . S
C427 C429 1.392 . S
C427 C430 1.370 . S
C427 H439 0.931 . S
N428 C421 1.359 . S
N428 C429 1.327 . S
N428 Tb431 2.600 . S
C429 C427 1.392 . S
C429 N428 1.327 . S
C429 H436 0.930 . S
C430 C425 1.385 . S
C430 C427 1.370 . S
C430 H449 0.930 . S
Tb431 N428 2.600 . S
Tb431 N432 2.660 . S
Tb431 O465 2.362 . S
Tb431 O466 2.421 . S
Tb431 O470 2.546 . S
Tb431 O471 2.610 . S
Tb431 O473 2.320 . S
Tb431 O474 2.552 . S
Tb431 O475 2.413 . S
Tb431 C495 2.833 . S
N432 C424 1.360 . S
N432 Tb431 2.660 . S
N432 C433 1.305 . S
C433 N432 1.305 . S
C433 C435 1.407 . S
C433 H440 0.930 . S
C434 C422 1.410 . S
C434 C435 1.345 . S
C434 H442 0.930 . S
C435 C433 1.407 . S
C435 C434 1.345 . S
C435 H437 0.930 . S
H436 C429 0.930 . S
H437 C435 0.930 . S
H438 C426 0.930 . S
H439 C427 0.931 . S
H440 C433 0.930 . S
H441 C455 0.930 . S
H442 C434 0.930 . S
H443 C461 0.930 . S
H444 C452 0.930 . S
H445 C459 0.931 . S
H446 C423 0.929 . S
H447 C453 0.930 . S
H448 C486 0.930 . S
H449 C430 0.930 . S
H450 C485 0.929 . S
N451 Tb420 2.660 . S
N451 C452 1.305 . S
N451 C456 1.360 . S
C452 H444 0.930 . S
C452 N451 1.305 . S
C452 C455 1.407 . S
C453 H447 0.930 . S
C453 C454 1.410 . S
C453 C455 1.345 . S
C454 C453 1.410 . S
C454 C456 1.417 . S
C454 C486 1.432 . S
C455 H441 0.930 . S
C455 C452 1.407 . S
C455 C453 1.345 . S
C456 N451 1.360 . S
C456 C454 1.417 . S
C456 C460 1.432 . S
H457 C462 0.930 . S
N458 Tb420 2.600 . S
N458 C460 1.359 . S
N458 C461 1.327 . S
C459 H445 0.931 . S
C459 C461 1.392 . S
C459 C462 1.370 . S
C460 C456 1.432 . S
C460 N458 1.359 . S
C460 C463 1.414 . S
C461 H443 0.930 . S
C461 N458 1.327 . S
C461 C459 1.392 . S
C462 H457 0.930 . S
C462 C459 1.370 . S
C462 C463 1.385 . S
C463 C460 1.414 . S
C463 C462 1.385 . S
C463 C485 1.444 . S
O464 Tb420 2.546 . S
O464 C484 1.251 . S
O465 Tb420 2.610 . S
O465 Tb431 2.362 . S
O465 C476 1.283 . S
O466 Tb431 2.421 . S
O466 C483 1.262 . S
O467 Tb420 2.320 . S
O467 C483 1.260 . S
O468 Tb420 2.552 . S
O468 C476 1.243 . S
O469 Tb420 2.413 . S
O469 C484 1.256 . S
O470 Tb431 2.546 . S
O470 C495 1.251 . S
O471 Tb420 2.362 . S
O471 Tb431 2.610 . S
O471 C487 1.283 . S
O472 Tb420 2.421 . S
O472 C494 1.262 . S
O473 Tb431 2.320 . S
O473 C494 1.260 . S
O474 Tb431 2.552 . S
O474 C487 1.243 . S
O475 Tb431 2.413 . S
O475 C495 1.256 . S
C476 O465 1.283 . S
C476 O468 1.243 . S
C477 C479 1.382 . S
C477 C481 1.393 . S
C477 C484 1.500 . S
C478 C479 1.400 . S
C478 C480 1.384 . S
C479 C477 1.382 . S
C479 C478 1.400 . S
C479 H496 0.930 . S
C480 C478 1.384 . S
C480 C482 1.392 . S
C480 H497 0.931 . S
C481 C477 1.393 . S
C481 C482 1.401 . S
C481 H498 0.930 . S
C482 C480 1.392 . S
C482 C481 1.401 . S
C482 H499 0.930 . S
C483 O466 1.262 . S
C483 O467 1.260 . S
C484 Tb420 2.833 . S
C484 O464 1.251 . S
C484 O469 1.256 . S
C484 C477 1.500 . S
C485 H450 0.929 . S
C485 C463 1.444 . S
C485 C486 1.317 . S
C486 H448 0.930 . S
C486 C454 1.432 . S
C486 C485 1.317 . S
C487 O471 1.283 . S
C487 O474 1.243 . S
C488 C489 1.382 . S
C488 C492 1.393 . S
C488 C495 1.500 . S
C489 C488 1.382 . S
C489 C490 1.400 . S
C489 H500 0.930 . S
C490 C489 1.400 . S
C490 C491 1.384 . S
C491 C490 1.384 . S
C491 C493 1.392 . S
C491 H501 0.931 . S
C492 C488 1.393 . S
C492 C493 1.401 . S
C492 H502 0.930 . S
C493 C491 1.392 . S
C493 C492 1.401 . S
C493 H503 0.930 . S
C494 O472 1.262 . S
C494 O473 1.260 . S
C495 Tb431 2.833 . S
C495 O470 1.251 . S
C495 O475 1.256 . S
C495 C488 1.500 . S
H496 C479 0.930 . S
H497 C480 0.931 . S
H498 C481 0.930 . S
H499 C482 0.930 . S
H500 C489 0.930 . S
H501 C491 0.931 . S
H502 C492 0.930 . S
H503 C493 0.930 . S
Tb504 N535 2.660 . S
Tb504 N542 2.600 . S
Tb504 O548 2.546 . S
Tb504 O549 2.610 . S
Tb504 O551 2.320 . S
Tb504 O552 2.552 . S
Tb504 O553 2.413 . S
Tb504 O555 2.362 . S
Tb504 O556 2.421 . S
Tb504 C568 2.833 . S
C505 C508 1.432 . S
C505 C509 1.414 . S
C505 N512 1.359 . S
C506 C508 1.417 . S
C506 C510 1.432 . S
C506 C518 1.410 . S
C507 C509 1.444 . S
C507 C510 1.317 . S
C507 H530 0.929 . S
C508 C505 1.432 . S
C508 C506 1.417 . S
C508 N516 1.360 . S
C509 C505 1.414 . S
C509 C507 1.444 . S
C509 C514 1.385 . S
C510 C506 1.432 . S
C510 C507 1.317 . S
C510 H522 0.930 . S
C511 C513 1.392 . S
C511 C514 1.370 . S
C511 H523 0.931 . S
N512 C505 1.359 . S
N512 C513 1.327 . S
N512 Tb515 2.600 . S
C513 C511 1.392 . S
C513 N512 1.327 . S
C513 H520 0.930 . S
C514 C509 1.385 . S
C514 C511 1.370 . S
C514 H533 0.930 . S
Tb515 N512 2.600 . S
Tb515 N516 2.660 . S
Tb515 O549 2.362 . S
Tb515 O550 2.421 . S
Tb515 O554 2.546 . S
Tb515 O555 2.610 . S
Tb515 O557 2.320 . S
Tb515 O558 2.552 . S
Tb515 O559 2.413 . S
Tb515 C579 2.833 . S
N516 C508 1.360 . S
N516 Tb515 2.660 . S
N516 C517 1.305 . S
C517 N516 1.305 . S
C517 C519 1.407 . S
C517 H524 0.930 . S
C518 C506 1.410 . S
C518 C519 1.345 . S
C518 H526 0.930 . S
C519 C517 1.407 . S
C519 C518 1.345 . S
C519 H521 0.930 . S
H520 C513 0.930 . S
H521 C519 0.930 . S
H522 C510 0.930 . S
H523 C511 0.931 . S
H524 C517 0.930 . S
H525 C539 0.930 . S
H526 C518 0.930 . S
H527 C545 0.930 . S
H528 C536 0.930 . S
H529 C543 0.931 . S
H530 C507 0.929 . S
H531 C537 0.930 . S
H532 C570 0.930 . S
H533 C514 0.930 . S
H534 C569 0.929 . S
N535 Tb504 2.660 . S
N535 C536 1.305 . S
N535 C540 1.360 . S
C536 H528 0.930 . S
C536 N535 1.305 . S
C536 C539 1.407 . S
C537 H531 0.930 . S
C537 C538 1.410 . S
C537 C539 1.345 . S
C538 C537 1.410 . S
C538 C540 1.417 . S
C538 C570 1.432 . S
C539 H525 0.930 . S
C539 C536 1.407 . S
C539 C537 1.345 . S
C540 N535 1.360 . S
C540 C538 1.417 . S
C540 C544 1.432 . S
H541 C546 0.930 . S
N542 Tb504 2.600 . S
N542 C544 1.359 . S
N542 C545 1.327 . S
C543 H529 0.931 . S
C543 C545 1.392 . S
C543 C546 1.370 . S
C544 C540 1.432 . S
C544 N542 1.359 . S
C544 C547 1.414 . S
C545 H527 0.930 . S
C545 N542 1.327 . S
C545 C543 1.392 . S
C546 H541 0.930 . S
C546 C543 1.370 . S
C546 C547 1.385 . S
C547 C544 1.414 . S
C547 C546 1.385 . S
C547 C569 1.444 . S
O548 Tb504 2.546 . S
O548 C568 1.251 . S
O549 Tb504 2.610 . S
O549 Tb515 2.362 . S
O549 C560 1.283 . S
O550 Tb515 2.421 . S
O550 C567 1.262 . S
O551 Tb504 2.320 . S
O551 C567 1.260 . S
O552 Tb504 2.552 . S
O552 C560 1.243 . S
O553 Tb504 2.413 . S
O553 C568 1.256 . S
O554 Tb515 2.546 . S
O554 C579 1.251 . S
O555 Tb504 2.362 . S
O555 Tb515 2.610 . S
O555 C571 1.283 . S
O556 Tb504 2.421 . S
O556 C578 1.262 . S
O557 Tb515 2.320 . S
O557 C578 1.260 . S
O558 Tb515 2.552 . S
O558 C571 1.243 . S
O559 Tb515 2.413 . S
O559 C579 1.256 . S
C560 O549 1.283 . S
C560 O552 1.243 . S
C561 C563 1.382 . S
C561 C565 1.393 . S
C561 C568 1.500 . S
C562 C563 1.400 . S
C562 C564 1.384 . S
C563 C561 1.382 . S
C563 C562 1.400 . S
C563 H580 0.930 . S
C564 C562 1.384 . S
C564 C566 1.392 . S
C564 H581 0.931 . S
C565 C561 1.393 . S
C565 C566 1.401 . S
C565 H582 0.930 . S
C566 C564 1.392 . S
C566 C565 1.401 . S
C566 H583 0.930 . S
C567 O550 1.262 . S
C567 O551 1.260 . S
C568 Tb504 2.833 . S
C568 O548 1.251 . S
C568 O553 1.256 . S
C568 C561 1.500 . S
C569 H534 0.929 . S
C569 C547 1.444 . S
C569 C570 1.317 . S
C570 H532 0.930 . S
C570 C538 1.432 . S
C570 C569 1.317 . S
C571 O555 1.283 . S
C571 O558 1.243 . S
C572 C573 1.382 . S
C572 C576 1.393 . S
C572 C579 1.500 . S
C573 C572 1.382 . S
C573 C574 1.400 . S
C573 H584 0.930 . S
C574 C573 1.400 . S
C574 C575 1.384 . S
C575 C574 1.384 . S
C575 C577 1.392 . S
C575 H585 0.931 . S
C576 C572 1.393 . S
C576 C577 1.401 . S
C576 H586 0.930 . S
C577 C575 1.392 . S
C577 C576 1.401 . S
C577 H587 0.930 . S
C578 O556 1.262 . S
C578 O557 1.260 . S
C579 Tb515 2.833 . S
C579 O554 1.251 . S
C579 O559 1.256 . S
C579 C572 1.500 . S
H580 C563 0.930 . S
H581 C564 0.931 . S
H582 C565 0.930 . S
H583 C566 0.930 . S
H584 C573 0.930 . S
H585 C575 0.931 . S
H586 C576 0.930 . S
H587 C577 0.930 . S
Tb588 N619 2.660 . S
Tb588 N626 2.600 . S
Tb588 O632 2.546 . S
Tb588 O633 2.610 . S
Tb588 O635 2.320 . S
Tb588 O636 2.552 . S
Tb588 O637 2.413 . S
Tb588 O639 2.362 . S
Tb588 O640 2.421 . S
Tb588 C652 2.833 . S
C589 C592 1.432 . S
C589 C593 1.414 . S
C589 N596 1.359 . S
C590 C592 1.417 . S
C590 C594 1.432 . S
C590 C602 1.410 . S
C591 C593 1.444 . S
C591 C594 1.317 . S
C591 H614 0.929 . S
C592 C589 1.432 . S
C592 C590 1.417 . S
C592 N600 1.360 . S
C593 C589 1.414 . S
C593 C591 1.444 . S
C593 C598 1.385 . S
C594 C590 1.432 . S
C594 C591 1.317 . S
C594 H606 0.930 . S
C595 C597 1.392 . S
C595 C598 1.370 . S
C595 H607 0.931 . S
N596 C589 1.359 . S
N596 C597 1.327 . S
N596 Tb599 2.600 . S
C597 C595 1.392 . S
C597 N596 1.327 . S
C597 H604 0.930 . S
C598 C593 1.385 . S
C598 C595 1.370 . S
C598 H617 0.930 . S
Tb599 N596 2.600 . S
Tb599 N600 2.660 . S
Tb599 O633 2.362 . S
Tb599 O634 2.421 . S
Tb599 O638 2.546 . S
Tb599 O639 2.610 . S
Tb599 O641 2.320 . S
Tb599 O642 2.552 . S
Tb599 O643 2.413 . S
Tb599 C663 2.833 . S
N600 C592 1.360 . S
N600 Tb599 2.660 . S
N600 C601 1.305 . S
C601 N600 1.305 . S
C601 C603 1.407 . S
C601 H608 0.930 . S
C602 C590 1.410 . S
C602 C603 1.345 . S
C602 H610 0.930 . S
C603 C601 1.407 . S
C603 C602 1.345 . S
C603 H605 0.930 . S
H604 C597 0.930 . S
H605 C603 0.930 . S
H606 C594 0.930 . S
H607 C595 0.931 . S
H608 C601 0.930 . S
H609 C623 0.930 . S
H610 C602 0.930 . S
H611 C629 0.930 . S
H612 C620 0.930 . S
H613 C627 0.931 . S
H614 C591 0.929 . S
H615 C621 0.930 . S
H616 C654 0.930 . S
H617 C598 0.930 . S
H618 C653 0.929 . S
N619 Tb588 2.660 . S
N619 C620 1.305 . S
N619 C624 1.360 . S
C620 H612 0.930 . S
C620 N619 1.305 . S
C620 C623 1.407 . S
C621 H615 0.930 . S
C621 C622 1.410 . S
C621 C623 1.345 . S
C622 C621 1.410 . S
C622 C624 1.417 . S
C622 C654 1.432 . S
C623 H609 0.930 . S
C623 C620 1.407 . S
C623 C621 1.345 . S
C624 N619 1.360 . S
C624 C622 1.417 . S
C624 C628 1.432 . S
H625 C630 0.930 . S
N626 Tb588 2.600 . S
N626 C628 1.359 . S
N626 C629 1.327 . S
C627 H613 0.931 . S
C627 C629 1.392 . S
C627 C630 1.370 . S
C628 C624 1.432 . S
C628 N626 1.359 . S
C628 C631 1.414 . S
C629 H611 0.930 . S
C629 N626 1.327 . S
C629 C627 1.392 . S
C630 H625 0.930 . S
C630 C627 1.370 . S
C630 C631 1.385 . S
C631 C628 1.414 . S
C631 C630 1.385 . S
C631 C653 1.444 . S
O632 Tb588 2.546 . S
O632 C652 1.251 . S
O633 Tb588 2.610 . S
O633 Tb599 2.362 . S
O633 C644 1.283 . S
O634 Tb599 2.421 . S
O634 C651 1.262 . S
O635 Tb588 2.320 . S
O635 C651 1.260 . S
O636 Tb588 2.552 . S
O636 C644 1.243 . S
O637 Tb588 2.413 . S
O637 C652 1.256 . S
O638 Tb599 2.546 . S
O638 C663 1.251 . S
O639 Tb588 2.362 . S
O639 Tb599 2.610 . S
O639 C655 1.283 . S
O640 Tb588 2.421 . S
O640 C662 1.262 . S
O641 Tb599 2.320 . S
O641 C662 1.260 . S
O642 Tb599 2.552 . S
O642 C655 1.243 . S
O643 Tb599 2.413 . S
O643 C663 1.256 . S
C644 O633 1.283 . S
C644 O636 1.243 . S
C645 C647 1.382 . S
C645 C649 1.393 . S
C645 C652 1.500 . S
C646 C647 1.400 . S
C646 C648 1.384 . S
C647 C645 1.382 . S
C647 C646 1.400 . S
C647 H664 0.930 . S
C648 C646 1.384 . S
C648 C650 1.392 . S
C648 H665 0.931 . S
C649 C645 1.393 . S
C649 C650 1.401 . S
C649 H666 0.930 . S
C650 C648 1.392 . S
C650 C649 1.401 . S
C650 H667 0.930 . S
C651 O634 1.262 . S
C651 O635 1.260 . S
C652 Tb588 2.833 . S
C652 O632 1.251 . S
C652 O637 1.256 . S
C652 C645 1.500 . S
C653 H618 0.929 . S
C653 C631 1.444 . S
C653 C654 1.317 . S
C654 H616 0.930 . S
C654 C622 1.432 . S
C654 C653 1.317 . S
C655 O639 1.283 . S
C655 O642 1.243 . S
C656 C657 1.382 . S
C656 C660 1.393 . S
C656 C663 1.500 . S
C657 C656 1.382 . S
C657 C658 1.400 . S
C657 H668 0.930 . S
C658 C657 1.400 . S
C658 C659 1.384 . S
C659 C658 1.384 . S
C659 C661 1.392 . S
C659 H669 0.931 . S
C660 C656 1.393 . S
C660 C661 1.401 . S
C660 H670 0.930 . S
C661 C659 1.392 . S
C661 C660 1.401 . S
C661 H671 0.930 . S
C662 O640 1.262 . S
C662 O641 1.260 . S
C663 Tb599 2.833 . S
C663 O638 1.251 . S
C663 O643 1.256 . S
C663 C656 1.500 . S
H664 C647 0.930 . S
H665 C648 0.931 . S
H666 C649 0.930 . S
H667 C650 0.930 . S
H668 C657 0.930 . S
H669 C659 0.931 . S
H670 C660 0.930 . S
H671 C661 0.930 . S
C672 O684 1.241 . S
C672 O685 1.280 . S
C673 O686 1.277 . S
C673 O687 1.245 . S
C674 O698 1.247 . S
C674 O700 1.289 . S
Mg675 O676 1.926 . S
Mg675 O685 1.984 . S
Mg675 O687 1.988 . S
Mg675 O688 2.061 1_655 S
O676 Mg675 1.926 . S
O676 Mg677 1.986 1_545 S
O676 Mg678 1.910 1_655 S
Mg677 O676 1.986 1_565 S
Mg677 O684 2.042 1_565 S
Mg677 O686 2.041 1_565 S
Mg677 O692 2.038 . S
Mg677 O700 2.238 . S
Mg678 O676 1.910 1_455 S
Mg678 O679 1.924 1_545 S
Mg678 O689 2.112 . S
Mg678 O691 2.077 1_445 S
Mg678 O700 2.101 1_445 S
Mg678 O701 2.081 . S
O679 Mg678 1.924 1_565 S
O679 Mg680 1.926 . S
O679 Mg681 1.986 1_565 S
Mg680 O679 1.926 . S
Mg680 O694 1.984 . S
Mg680 O697 1.988 . S
Mg680 O698 2.061 1_455 S
Mg681 O679 1.986 1_545 S
Mg681 O689 2.238 . S
Mg681 O693 2.042 1_545 S
Mg681 O695 2.041 1_545 S
Mg681 O702 2.038 . S
C682 O688 1.247 . S
C682 O689 1.289 . S
C683 O701 1.245 . S
C683 O702 1.274 . S
O684 C672 1.241 . S
O684 Mg677 2.042 1_545 S
O685 C672 1.280 . S
O685 Mg675 1.984 . S
O686 C673 1.277 . S
O686 Mg677 2.041 1_545 S
O687 C673 1.245 . S
O687 Mg675 1.988 . S
O688 Mg675 2.061 1_455 S
O688 C682 1.247 . S
O689 Mg678 2.112 . S
O689 Mg681 2.238 . S
O689 C682 1.289 . S
C690 O691 1.245 . S
C690 O692 1.274 . S
O691 Mg678 2.077 1_665 S
O691 C690 1.245 . S
O692 Mg677 2.038 . S
O692 C690 1.274 . S
O693 Mg681 2.042 1_565 S
O693 C696 1.241 . S
O694 Mg680 1.984 . S
O694 C696 1.280 . S
O695 Mg681 2.041 1_565 S
O695 C699 1.277 . S
C696 O693 1.241 . S
C696 O694 1.280 . S
O697 Mg680 1.988 . S
O697 C699 1.245 . S
O698 C674 1.247 . S
O698 Mg680 2.061 1_655 S
C699 O695 1.277 . S
C699 O697 1.245 . S
O700 C674 1.289 . S
O700 Mg677 2.238 . S
O700 Mg678 2.101 1_665 S
O701 Mg678 2.081 . S
O701 C683 1.245 . S
O702 Mg681 2.038 . S
O702 C683 1.274 . S
C703 O715 1.241 . S
C703 O716 1.280 . S
C704 O717 1.277 . S
C704 O718 1.245 . S
C705 O729 1.247 . S
C705 O731 1.289 . S
Mg706 O707 1.926 . S
Mg706 O716 1.984 . S
Mg706 O718 1.988 1_554 S
Mg706 O719 2.061 . S
O707 Mg706 1.926 . S
O707 Mg708 1.986 1_544 S
O707 Mg709 1.917 . S
Mg708 O707 1.986 1_566 S
Mg708 O715 2.042 1_566 S
Mg708 O717 2.041 1_565 S
Mg708 O723 2.038 1_556 S
Mg708 O731 2.238 . S
Mg709 O707 1.917 . S
Mg709 O710 1.917 1_544 S
Mg709 O720 2.106 . S
Mg709 O722 2.079 1_545 S
Mg709 O731 2.106 1_544 S
Mg709 O732 2.079 1_554 S
O710 Mg709 1.917 1_566 S
O710 Mg711 1.926 . S
O710 Mg712 1.986 1_566 S
Mg711 O710 1.926 . S
Mg711 O725 1.984 . S
Mg711 O728 1.988 1_556 S
Mg711 O729 2.061 . S
Mg712 O710 1.986 1_544 S
Mg712 O720 2.238 . S
Mg712 O724 2.042 1_544 S
Mg712 O726 2.041 1_545 S
Mg712 O733 2.038 1_554 S
C713 O719 1.247 . S
C713 O720 1.289 . S
C714 O732 1.245 . S
C714 O733 1.274 . S
O715 C703 1.241 . S
O715 Mg708 2.042 1_544 S
O716 C703 1.280 . S
O716 Mg706 1.984 . S
O717 C704 1.277 . S
O717 Mg708 2.041 1_545 S
O718 C704 1.245 . S
O718 Mg706 1.988 1_556 S
O719 Mg706 2.061 . S
O719 C713 1.247 . S
O720 Mg709 2.106 . S
O720 Mg712 2.238 . S
O720 C713 1.289 . S
C721 O722 1.245 . S
C721 O723 1.274 . S
O722 Mg709 2.079 1_565 S
O722 C721 1.245 . S
O723 Mg708 2.038 1_554 S
O723 C721 1.274 . S
O724 Mg712 2.042 1_566 S
O724 C727 1.241 . S
O725 Mg711 1.984 . S
O725 C727 1.280 . S
O726 Mg712 2.041 1_565 S
O726 C730 1.277 . S
C727 O724 1.241 . S
C727 O725 1.280 . S
O728 Mg711 1.988 1_554 S
O728 C730 1.245 . S
O729 C705 1.247 . S
O729 Mg711 2.061 . S
C730 O726 1.277 . S
C730 O728 1.245 . S
O731 C705 1.289 . S
O731 Mg708 2.238 . S
O731 Mg709 2.106 1_566 S
O732 Mg709 2.079 1_556 S
O732 C714 1.245 . S
O733 Mg712 2.038 1_556 S
O733 C714 1.274 . S
C734 O746 1.241 . S
C734 O747 1.280 . S
C735 O748 1.277 . S
C735 O749 1.245 . S
C736 O760 1.247 . S
C736 O762 1.289 . S
Mg737 O738 1.926 . S
Mg737 O747 1.984 . S
Mg737 O749 1.988 1_554 S
Mg737 O750 2.061 1_655 S
O738 Mg737 1.926 . S
O738 Mg739 1.986 1_554 S
O738 Mg740 1.910 1_655 S
Mg739 O738 1.986 1_556 S
Mg739 O746 2.042 1_556 S
Mg739 O748 2.041 . S
Mg739 O754 2.038 1_556 S
Mg739 O762 2.238 . S
Mg740 O738 1.910 1_455 S
Mg740 O741 1.923 1_554 S
Mg740 O751 2.112 . S
Mg740 O753 2.077 1_455 S
Mg740 O762 2.101 1_454 S
Mg740 O763 2.081 1_554 S
O741 Mg740 1.923 1_556 S
O741 Mg742 1.926 . S
O741 Mg743 1.986 1_556 S
Mg742 O741 1.926 . S
Mg742 O756 1.984 . S
Mg742 O759 1.988 1_556 S
Mg742 O760 2.061 1_455 S
Mg743 O741 1.986 1_554 S
Mg743 O751 2.238 . S
Mg743 O755 2.042 1_554 S
Mg743 O757 2.041 . S
Mg743 O764 2.038 1_554 S
C744 O750 1.247 . S
C744 O751 1.289 . S
C745 O763 1.245 . S
C745 O764 1.274 . S
O746 C734 1.241 . S
O746 Mg739 2.042 1_554 S
O747 C734 1.280 . S
O747 Mg737 1.984 . S
O748 C735 1.277 . S
O748 Mg739 2.041 . S
O749 C735 1.245 . S
O749 Mg737 1.988 1_556 S
O750 Mg737 2.061 1_455 S
O750 C744 1.247 . S
O751 Mg740 2.112 . S
O751 Mg743 2.238 . S
O751 C744 1.289 . S
C752 O753 1.245 . S
C752 O754 1.274 . S
O753 Mg740 2.077 1_655 S
O753 C752 1.245 . S
O754 Mg739 2.038 1_554 S
O754 C752 1.274 . S
O755 Mg743 2.042 1_556 S
O755 C758 1.241 . S
O756 Mg742 1.984 . S
O756 C758 1.280 . S
O757 Mg743 2.041 . S
O757 C761 1.277 . S
C758 O755 1.241 . S
C758 O756 1.280 . S
O759 Mg742 1.988 1_554 S
O759 C761 1.245 . S
O760 C736 1.247 . S
O760 Mg742 2.061 1_655 S
C761 O757 1.277 . S
C761 O759 1.245 . S
O762 C736 1.289 . S
O762 Mg739 2.238 . S
O762 Mg740 2.101 1_656 S
O763 Mg740 2.081 1_556 S
O763 C745 1.245 . S
O764 Mg743 2.038 1_556 S
O764 C745 1.274 . S
C765 O777 1.241 . S
C765 O778 1.280 . S
C766 O779 1.277 . S
C766 O780 1.245 . S
C767 O791 1.247 . S
C767 O793 1.289 . S
Mg768 O769 1.926 . S
Mg768 O778 1.984 . S
Mg768 O780 1.988 1_554 S
Mg768 O781 2.061 . S
O769 Mg768 1.926 . S
O769 Mg770 1.986 1_554 S
O769 Mg771 1.917 . S
Mg770 O769 1.986 1_556 S
Mg770 O777 2.042 1_556 S
Mg770 O779 2.041 . S
Mg770 O785 2.038 1_556 S
Mg770 O793 2.238 . S
Mg771 O769 1.917 . S
Mg771 O772 1.917 1_554 S
Mg771 O782 2.106 . S
Mg771 O784 2.079 . S
Mg771 O793 2.106 1_554 S
Mg771 O794 2.079 1_554 S
O772 Mg771 1.917 1_556 S
O772 Mg773 1.926 . S
O772 Mg774 1.986 1_556 S
Mg773 O772 1.926 . S
Mg773 O787 1.984 . S
Mg773 O790 1.988 1_556 S
Mg773 O791 2.061 . S
Mg774 O772 1.986 1_554 S
Mg774 O782 2.238 . S
Mg774 O786 2.042 1_554 S
Mg774 O788 2.041 . S
Mg774 O795 2.038 1_554 S
C775 O781 1.247 . S
C775 O782 1.289 . S
C776 O794 1.245 . S
C776 O795 1.274 . S
O777 C765 1.241 . S
O777 Mg770 2.042 1_554 S
O778 C765 1.280 . S
O778 Mg768 1.984 . S
O779 C766 1.277 . S
O779 Mg770 2.041 . S
O780 C766 1.245 . S
O780 Mg768 1.988 1_556 S
O781 Mg768 2.061 . S
O781 C775 1.247 . S
O782 Mg771 2.106 . S
O782 Mg774 2.238 . S
O782 C775 1.289 . S
C783 O784 1.245 . S
C783 O785 1.274 . S
O784 Mg771 2.079 . S
O784 C783 1.245 . S
O785 Mg770 2.038 1_554 S
O785 C783 1.274 . S
O786 Mg774 2.042 1_556 S
O786 C789 1.241 . S
O787 Mg773 1.984 . S
O787 C789 1.280 . S
O788 Mg774 2.041 . S
O788 C792 1.277 . S
C789 O786 1.241 . S
C789 O787 1.280 . S
O790 Mg773 1.988 1_554 S
O790 C792 1.245 . S
O791 C767 1.247 . S
O791 Mg773 2.061 . S
C792 O788 1.277 . S
C792 O790 1.245 . S
O793 C767 1.289 . S
O793 Mg770 2.238 . S
O793 Mg771 2.106 1_556 S
O794 Mg771 2.079 1_556 S
O794 C776 1.245 . S
O795 Mg774 2.038 1_556 S
O795 C776 1.274 . S
C796 O808 1.241 . S
C796 O809 1.280 . S
C797 O810 1.277 . S
C797 O811 1.245 . S
C798 O822 1.247 . S
C798 O824 1.289 . S
Mg799 O800 1.926 . S
Mg799 O809 1.984 . S
Mg799 O811 1.988 . S
Mg799 O812 2.061 1_655 S
O800 Mg799 1.926 . S
O800 Mg801 1.986 . S
O800 Mg802 1.910 1_655 S
Mg801 O800 1.986 . S
Mg801 O808 2.042 . S
Mg801 O810 2.041 . S
Mg801 O816 2.038 . S
Mg801 O824 2.238 . S
Mg802 O800 1.910 1_455 S
Mg802 O803 1.923 . S
Mg802 O813 2.112 . S
Mg802 O815 2.077 1_455 S
Mg802 O824 2.101 1_455 S
Mg802 O825 2.081 . S
O803 Mg802 1.923 . S
O803 Mg804 1.926 . S
O803 Mg805 1.986 . S
Mg804 O803 1.926 . S
Mg804 O818 1.984 . S
Mg804 O821 1.988 . S
Mg804 O822 2.061 1_455 S
Mg805 O803 1.986 . S
Mg805 O813 2.238 . S
Mg805 O817 2.042 . S
Mg805 O819 2.041 . S
Mg805 O826 2.038 . S
C806 O812 1.247 . S
C806 O813 1.289 . S
C807 O825 1.245 . S
C807 O826 1.274 . S
O808 C796 1.241 . S
O808 Mg801 2.042 . S
O809 C796 1.280 . S
O809 Mg799 1.984 . S
O810 C797 1.277 . S
O810 Mg801 2.041 . S
O811 C797 1.245 . S
O811 Mg799 1.988 . S
O812 Mg799 2.061 1_455 S
O812 C806 1.247 . S
O813 Mg802 2.112 . S
O813 Mg805 2.238 . S
O813 C806 1.289 . S
C814 O815 1.245 . S
C814 O816 1.274 . S
O815 Mg802 2.077 1_655 S
O815 C814 1.245 . S
O816 Mg801 2.038 . S
O816 C814 1.274 . S
O817 Mg805 2.042 . S
O817 C820 1.241 . S
O818 Mg804 1.984 . S
O818 C820 1.280 . S
O819 Mg805 2.041 . S
O819 C823 1.277 . S
C820 O817 1.241 . S
C820 O818 1.280 . S
O821 Mg804 1.988 . S
O821 C823 1.245 . S
O822 C798 1.247 . S
O822 Mg804 2.061 1_655 S
C823 O819 1.277 . S
C823 O821 1.245 . S
O824 C798 1.289 . S
O824 Mg801 2.238 . S
O824 Mg802 2.101 1_655 S
O825 Mg802 2.081 . S
O825 C807 1.245 . S
O826 Mg805 2.038 . S
O826 C807 1.274 . S
C827 O839 1.241 . S
C827 O840 1.280 . S
C828 O841 1.277 . S
C828 O842 1.245 . S
C829 O853 1.247 . S
C829 O855 1.289 . S
Mg830 O831 1.926 . S
Mg830 O840 1.984 . S
Mg830 O842 1.988 . S
Mg830 O843 2.061 . S
O831 Mg830 1.926 . S
O831 Mg832 1.986 1_545 S
O831 Mg833 1.917 . S
Mg832 O831 1.986 1_565 S
Mg832 O839 2.042 1_565 S
Mg832 O841 2.041 1_565 S
Mg832 O847 2.038 . S
Mg832 O855 2.238 . S
Mg833 O831 1.917 . S
Mg833 O834 1.917 1_545 S
Mg833 O844 2.106 . S
Mg833 O846 2.079 1_545 S
Mg833 O855 2.106 1_545 S
Mg833 O856 2.079 . S
O834 Mg833 1.917 1_565 S
O834 Mg835 1.926 . S
O834 Mg836 1.986 1_565 S
Mg835 O834 1.926 . S
Mg835 O849 1.984 . S
Mg835 O852 1.988 . S
Mg835 O853 2.061 . S
Mg836 O834 1.986 1_545 S
Mg836 O844 2.238 . S
Mg836 O848 2.042 1_545 S
Mg836 O850 2.041 1_545 S
Mg836 O857 2.038 . S
C837 O843 1.247 . S
C837 O844 1.289 . S
C838 O856 1.245 . S
C838 O857 1.274 . S
O839 C827 1.241 . S
O839 Mg832 2.042 1_545 S
O840 C827 1.280 . S
O840 Mg830 1.984 . S
O841 C828 1.277 . S
O841 Mg832 2.041 1_545 S
O842 C828 1.245 . S
O842 Mg830 1.988 . S
O843 Mg830 2.061 . S
O843 C837 1.247 . S
O844 Mg833 2.106 . S
O844 Mg836 2.238 . S
O844 C837 1.289 . S
C845 O846 1.245 . S
C845 O847 1.274 . S
O846 Mg833 2.079 1_565 S
O846 C845 1.245 . S
O847 Mg832 2.038 . S
O847 C845 1.274 . S
O848 Mg836 2.042 1_565 S
O848 C851 1.241 . S
O849 Mg835 1.984 . S
O849 C851 1.280 . S
O850 Mg836 2.041 1_565 S
O850 C854 1.277 . S
C851 O848 1.241 . S
C851 O849 1.280 . S
O852 Mg835 1.988 . S
O852 C854 1.245 . S
O853 C829 1.247 . S
O853 Mg835 2.061 . S
C854 O850 1.277 . S
C854 O852 1.245 . S
O855 C829 1.289 . S
O855 Mg832 2.238 . S
O855 Mg833 2.106 1_565 S
O856 Mg833 2.079 . S
O856 C838 1.245 . S
O857 Mg836 2.038 . S
O857 C838 1.274 . S
H858 C876 0.951 . S
H859 C878 0.951 . S
H860 C880 0.950 . S
H861 C881 0.950 . S
H862 C883 0.950 . S
H863 C886 0.950 . S
H864 C887 0.950 . S
H865 C889 0.950 . S
H866 C890 0.950 . S
H867 C891 0.951 . S
H868 C893 0.951 . S
H869 C895 0.950 . S
H870 C896 0.950 . S
H871 C898 0.950 . S
H872 C901 0.950 . S
H873 C902 0.950 . S
H874 C904 0.950 . S
H875 C905 0.950 . S
C876 H858 0.951 . S
C876 C877 1.366 . S
C876 C878 1.388 . S
C877 C876 1.366 . S
C877 C881 1.385 . S
C878 H859 0.951 . S
C878 C876 1.388 . S
C878 C879 1.366 . S
C879 C878 1.366 . S
C879 C880 1.414 . S
C879 C882 1.499 . S
C880 H860 0.950 . S
C880 C879 1.414 . S
C880 C881 1.374 . S
C881 H861 0.950 . S
C881 C877 1.385 . S
C881 C880 1.374 . S
C882 C879 1.499 . S
C882 C883 1.373 . S
C882 C884 1.389 . S
C883 H862 0.950 . S
C883 C882 1.373 . S
C883 C899 1.377 . S
C884 C882 1.389 . S
C884 C885 1.524 . S
C884 C898 1.377 . S
C885 C884 1.524 . S
C885 C886 1.397 . S
C885 C890 1.363 . S
C886 H863 0.950 . S
C886 C885 1.397 . S
C886 C887 1.334 . S
C887 H864 0.950 . S
C887 C886 1.334 . S
C887 C888 1.287 . S
C888 C887 1.287 . S
C888 C889 1.524 . S
C888 H907 0.913 . S
C889 H865 0.950 . S
C889 C888 1.524 . S
C889 C890 1.415 . S
C890 H866 0.950 . S
C890 C885 1.363 . S
C890 C889 1.415 . S
C891 H867 0.951 . S
C891 C892 1.366 . S
C891 C893 1.388 . S
C892 C891 1.366 . S
C892 C896 1.385 . S
C893 H868 0.951 . S
C893 C891 1.388 . S
C893 C894 1.366 . S
C894 C893 1.366 . S
C894 C895 1.414 . S
C894 C897 1.499 . S
C895 H869 0.950 . S
C895 C894 1.414 . S
C895 C896 1.374 . S
C896 H870 0.950 . S
C896 C892 1.385 . S
C896 C895 1.374 . S
C897 C894 1.499 . S
C897 C898 1.373 . S
C897 C899 1.389 . S
C898 H871 0.950 . S
C898 C884 1.377 . S
C898 C897 1.373 . S
C899 C883 1.377 . S
C899 C897 1.389 . S
C899 C900 1.524 . S
C900 C899 1.524 . S
C900 C901 1.397 . S
C900 C905 1.363 . S
C901 H872 0.950 . S
C901 C900 1.397 . S
C901 C902 1.334 . S
C902 H873 0.950 . S
C902 C901 1.334 . S
C902 C903 1.287 . S
C903 C902 1.287 . S
C903 C904 1.524 . S
C903 H906 0.999 . S
C904 H874 0.950 . S
C904 C903 1.524 . S
C904 C905 1.415 . S
C905 H875 0.950 . S
C905 C900 1.363 . S
C905 C904 1.415 . S
H906 C903 0.999 . S
H907 C888 0.913 . S
H908 C926 0.951 . S
H909 C928 0.951 . S
H910 C930 0.950 . S
H911 C931 0.950 . S
H912 C933 0.950 . S
H913 C936 0.950 . S
H914 C937 0.950 . S
H915 C939 0.950 . S
H916 C940 0.950 . S
H917 C941 0.951 . S
H918 C943 0.951 . S
H919 C945 0.950 . S
H920 C946 0.950 . S
H921 C948 0.950 . S
H922 C951 0.950 . S
H923 C952 0.950 . S
H924 C954 0.950 . S
H925 C955 0.950 . S
C926 H908 0.951 . S
C926 C927 1.366 . S
C926 C928 1.388 . S
C927 C926 1.366 . S
C927 C931 1.385 . S
C928 H909 0.951 . S
C928 C926 1.388 . S
C928 C929 1.366 . S
C929 C928 1.366 . S
C929 C930 1.414 . S
C929 C932 1.499 . S
C930 H910 0.950 . S
C930 C929 1.414 . S
C930 C931 1.374 . S
C931 H911 0.950 . S
C931 C927 1.385 . S
C931 C930 1.374 . S
C932 C929 1.499 . S
C932 C933 1.373 . S
C932 C934 1.389 . S
C933 H912 0.950 . S
C933 C932 1.373 . S
C933 C949 1.377 . S
C934 C932 1.389 . S
C934 C935 1.524 . S
C934 C948 1.377 . S
C935 C934 1.524 . S
C935 C936 1.397 . S
C935 C940 1.363 . S
C936 H913 0.950 . S
C936 C935 1.397 . S
C936 C937 1.334 . S
C937 H914 0.950 . S
C937 C936 1.334 . S
C937 C938 1.287 . S
C938 C937 1.287 . S
C938 C939 1.524 . S
C938 H957 0.913 . S
C939 H915 0.950 . S
C939 C938 1.524 . S
C939 C940 1.415 . S
C940 H916 0.950 . S
C940 C935 1.363 . S
C940 C939 1.415 . S
C941 H917 0.951 . S
C941 C942 1.366 . S
C941 C943 1.388 . S
C942 C941 1.366 . S
C942 C946 1.385 . S
C943 H918 0.951 . S
C943 C941 1.388 . S
C943 C944 1.366 . S
C944 C943 1.366 . S
C944 C945 1.414 . S
C944 C947 1.499 . S
C945 H919 0.950 . S
C945 C944 1.414 . S
C945 C946 1.374 . S
C946 H920 0.950 . S
C946 C942 1.385 . S
C946 C945 1.374 . S
C947 C944 1.499 . S
C947 C948 1.373 . S
C947 C949 1.389 . S
C948 H921 0.950 . S
C948 C934 1.377 . S
C948 C947 1.373 . S
C949 C933 1.377 . S
C949 C947 1.389 . S
C949 C950 1.524 . S
C950 C949 1.524 . S
C950 C951 1.397 . S
C950 C955 1.363 . S
C951 H922 0.950 . S
C951 C950 1.397 . S
C951 C952 1.334 . S
C952 H923 0.950 . S
C952 C951 1.334 . S
C952 C953 1.287 . S
C953 C952 1.287 . S
C953 C954 1.524 . S
C953 H956 0.999 . S
C954 H924 0.950 . S
C954 C953 1.524 . S
C954 C955 1.415 . S
C955 H925 0.950 . S
C955 C950 1.363 . S
C955 C954 1.415 . S
H956 C953 0.999 . S
H957 C938 0.913 . S
H958 C976 0.951 . S
H959 C978 0.951 . S
H960 C980 0.950 . S
H961 C981 0.950 . S
H962 C983 0.950 . S
H963 C986 0.950 . S
H964 C987 0.950 . S
H965 C989 0.950 . S
H966 C990 0.950 . S
H967 C991 0.951 . S
H968 C993 0.951 . S
H969 C995 0.950 . S
H970 C996 0.950 . S
H971 C998 0.950 . S
H972 C1001 0.950 . S
H973 C1002 0.950 . S
H974 C1004 0.950 . S
H975 C1005 0.950 . S
C976 H958 0.951 . S
C976 C977 1.366 . S
C976 C978 1.388 . S
C977 C976 1.366 . S
C977 C981 1.385 . S
C978 H959 0.951 . S
C978 C976 1.388 . S
C978 C979 1.366 . S
C979 C978 1.366 . S
C979 C980 1.414 . S
C979 C982 1.499 . S
C980 H960 0.950 . S
C980 C979 1.414 . S
C980 C981 1.374 . S
C981 H961 0.950 . S
C981 C977 1.385 . S
C981 C980 1.374 . S
C982 C979 1.499 . S
C982 C983 1.373 . S
C982 C984 1.389 . S
C983 H962 0.950 . S
C983 C982 1.373 . S
C983 C999 1.377 . S
C984 C982 1.389 . S
C984 C985 1.524 . S
C984 C998 1.377 . S
C985 C984 1.524 . S
C985 C986 1.397 . S
C985 C990 1.363 . S
C986 H963 0.950 . S
C986 C985 1.397 . S
C986 C987 1.334 . S
C987 H964 0.950 . S
C987 C986 1.334 . S
C987 C988 1.287 . S
C988 C987 1.287 . S
C988 C989 1.524 . S
C988 H1007 0.913 . S
C989 H965 0.950 . S
C989 C988 1.524 . S
C989 C990 1.415 . S
C990 H966 0.950 . S
C990 C985 1.363 . S
C990 C989 1.415 . S
C991 H967 0.951 . S
C991 C992 1.366 . S
C991 C993 1.388 . S
C992 C991 1.366 . S
C992 C996 1.385 . S
C993 H968 0.951 . S
C993 C991 1.388 . S
C993 C994 1.366 . S
C994 C993 1.366 . S
C994 C995 1.414 . S
C994 C997 1.499 . S
C995 H969 0.950 . S
C995 C994 1.414 . S
C995 C996 1.374 . S
C996 H970 0.950 . S
C996 C992 1.385 . S
C996 C995 1.374 . S
C997 C994 1.499 . S
C997 C998 1.373 . S
C997 C999 1.389 . S
C998 H971 0.950 . S
C998 C984 1.377 . S
C998 C997 1.373 . S
C999 C983 1.377 . S
C999 C997 1.389 . S
C999 C1000 1.524 . S
C1000 C999 1.524 . S
C1000 C1001 1.397 . S
C1000 C1005 1.363 . S
C1001 H972 0.950 . S
C1001 C1000 1.397 . S
C1001 C1002 1.334 . S
C1002 H973 0.950 . S
C1002 C1001 1.334 . S
C1002 C1003 1.287 . S
C1003 C1002 1.287 . S
C1003 C1004 1.524 . S
C1003 H1006 0.999 1_655 S
C1004 H974 0.950 . S
C1004 C1003 1.524 . S
C1004 C1005 1.415 . S
C1005 H975 0.950 . S
C1005 C1000 1.363 . S
C1005 C1004 1.415 . S
H1006 C1003 0.999 1_455 S
H1007 C988 0.913 . S
H1008 C1026 0.951 . S
H1009 C1028 0.951 . S
H1010 C1030 0.950 . S
H1011 C1031 0.950 . S
H1012 C1033 0.950 . S
H1013 C1036 0.950 . S
H1014 C1037 0.950 . S
H1015 C1039 0.950 . S
H1016 C1040 0.950 . S
H1017 C1041 0.951 . S
H1018 C1043 0.951 . S
H1019 C1045 0.950 . S
H1020 C1046 0.950 . S
H1021 C1048 0.950 . S
H1022 C1051 0.950 . S
H1023 C1052 0.950 . S
H1024 C1054 0.950 . S
H1025 C1055 0.950 . S
C1026 H1008 0.951 . S
C1026 C1027 1.366 . S
C1026 C1028 1.388 . S
C1027 C1026 1.366 . S
C1027 C1031 1.385 . S
C1028 H1009 0.951 . S
C1028 C1026 1.388 . S
C1028 C1029 1.366 . S
C1029 C1028 1.366 . S
C1029 C1030 1.414 . S
C1029 C1032 1.499 . S
C1030 H1010 0.950 . S
C1030 C1029 1.414 . S
C1030 C1031 1.374 . S
C1031 H1011 0.950 . S
C1031 C1027 1.385 . S
C1031 C1030 1.374 . S
C1032 C1029 1.499 . S
C1032 C1033 1.373 . S
C1032 C1034 1.389 . S
C1033 H1012 0.950 . S
C1033 C1032 1.373 . S
C1033 C1049 1.377 . S
C1034 C1032 1.389 . S
C1034 C1035 1.524 . S
C1034 C1048 1.377 . S
C1035 C1034 1.524 . S
C1035 C1036 1.397 . S
C1035 C1040 1.363 . S
C1036 H1013 0.950 . S
C1036 C1035 1.397 . S
C1036 C1037 1.334 . S
C1037 H1014 0.950 . S
C1037 C1036 1.334 . S
C1037 C1038 1.287 . S
C1038 C1037 1.287 . S
C1038 C1039 1.524 . S
C1038 H1057 0.913 . S
C1039 H1015 0.950 . S
C1039 C1038 1.524 . S
C1039 C1040 1.415 . S
C1040 H1016 0.950 . S
C1040 C1035 1.363 . S
C1040 C1039 1.415 . S
C1041 H1017 0.951 . S
C1041 C1042 1.366 . S
C1041 C1043 1.388 . S
C1042 C1041 1.366 . S
C1042 C1046 1.385 . S
C1043 H1018 0.951 . S
C1043 C1041 1.388 . S
C1043 C1044 1.366 . S
C1044 C1043 1.366 . S
C1044 C1045 1.414 . S
C1044 C1047 1.499 . S
C1045 H1019 0.950 . S
C1045 C1044 1.414 . S
C1045 C1046 1.374 . S
C1046 H1020 0.950 . S
C1046 C1042 1.385 . S
C1046 C1045 1.374 . S
C1047 C1044 1.499 . S
C1047 C1048 1.373 . S
C1047 C1049 1.389 . S
C1048 H1021 0.950 . S
C1048 C1034 1.377 . S
C1048 C1047 1.373 . S
C1049 C1033 1.377 . S
C1049 C1047 1.389 . S
C1049 C1050 1.524 . S
C1050 C1049 1.524 . S
C1050 C1051 1.397 . S
C1050 C1055 1.363 . S
C1051 H1022 0.950 . S
C1051 C1050 1.397 . S
C1051 C1052 1.334 . S
C1052 H1023 0.950 . S
C1052 C1051 1.334 . S
C1052 C1053 1.287 . S
C1053 C1052 1.287 . S
C1053 C1054 1.524 . S
C1053 H1056 0.999 . S
C1054 H1024 0.950 . S
C1054 C1053 1.524 . S
C1054 C1055 1.415 . S
C1055 H1025 0.950 . S
C1055 C1050 1.363 . S
C1055 C1054 1.415 . S
H1056 C1053 0.999 . S
H1057 C1038 0.913 . S
H1058 C1076 0.951 . S
H1059 C1078 0.951 . S
H1060 C1080 0.950 . S
H1061 C1081 0.950 . S
H1062 C1083 0.950 . S
H1063 C1086 0.950 . S
H1064 C1087 0.950 . S
H1065 C1089 0.950 . S
H1066 C1090 0.950 . S
H1067 C1091 0.951 . S
H1068 C1093 0.951 . S
H1069 C1095 0.950 . S
H1070 C1096 0.950 . S
H1071 C1098 0.950 . S
H1072 C1101 0.950 . S
H1073 C1102 0.950 . S
H1074 C1104 0.950 . S
H1075 C1105 0.950 . S
C1076 H1058 0.951 . S
C1076 C1077 1.366 . S
C1076 C1078 1.388 . S
C1077 C1076 1.366 . S
C1077 C1081 1.385 . S
C1078 H1059 0.951 . S
C1078 C1076 1.388 . S
C1078 C1079 1.366 . S
C1079 C1078 1.366 . S
C1079 C1080 1.414 . S
C1079 C1082 1.499 . S
C1080 H1060 0.950 . S
C1080 C1079 1.414 . S
C1080 C1081 1.374 . S
C1081 H1061 0.950 . S
C1081 C1077 1.385 . S
C1081 C1080 1.374 . S
C1082 C1079 1.499 . S
C1082 C1083 1.373 . S
C1082 C1084 1.389 . S
C1083 H1062 0.950 . S
C1083 C1082 1.373 . S
C1083 C1099 1.377 . S
C1084 C1082 1.389 . S
C1084 C1085 1.524 . S
C1084 C1098 1.377 . S
C1085 C1084 1.524 . S
C1085 C1086 1.397 . S
C1085 C1090 1.363 . S
C1086 H1063 0.950 . S
C1086 C1085 1.397 . S
C1086 C1087 1.334 . S
C1087 H1064 0.950 . S
C1087 C1086 1.334 . S
C1087 C1088 1.287 . S
C1088 C1087 1.287 . S
C1088 C1089 1.524 . S
C1088 H1107 0.913 . S
C1089 H1065 0.950 . S
C1089 C1088 1.524 . S
C1089 C1090 1.415 . S
C1090 H1066 0.950 . S
C1090 C1085 1.363 . S
C1090 C1089 1.415 . S
C1091 H1067 0.951 . S
C1091 C1092 1.366 . S
C1091 C1093 1.388 . S
C1092 C1091 1.366 . S
C1092 C1096 1.385 . S
C1093 H1068 0.951 . S
C1093 C1091 1.388 . S
C1093 C1094 1.366 . S
C1094 C1093 1.366 . S
C1094 C1095 1.414 . S
C1094 C1097 1.499 . S
C1095 H1069 0.950 . S
C1095 C1094 1.414 . S
C1095 C1096 1.374 . S
C1096 H1070 0.950 . S
C1096 C1092 1.385 . S
C1096 C1095 1.374 . S
C1097 C1094 1.499 . S
C1097 C1098 1.373 . S
C1097 C1099 1.389 . S
C1098 H1071 0.950 . S
C1098 C1084 1.377 . S
C1098 C1097 1.373 . S
C1099 C1083 1.377 . S
C1099 C1097 1.389 . S
C1099 C1100 1.524 . S
C1100 C1099 1.524 . S
C1100 C1101 1.397 . S
C1100 C1105 1.363 . S
C1101 H1072 0.950 . S
C1101 C1100 1.397 . S
C1101 C1102 1.334 . S
C1102 H1073 0.950 . S
C1102 C1101 1.334 . S
C1102 C1103 1.287 . S
C1103 C1102 1.287 . S
C1103 C1104 1.524 . S
C1103 H1106 0.999 . S
C1104 H1074 0.950 . S
C1104 C1103 1.524 . S
C1104 C1105 1.415 . S
C1105 H1075 0.950 . S
C1105 C1100 1.363 . S
C1105 C1104 1.415 . S
H1106 C1103 0.999 . S
H1107 C1088 0.913 . S
H1108 C1126 0.951 . S
H1109 C1128 0.951 . S
H1110 C1130 0.950 . S
H1111 C1131 0.950 . S
H1112 C1133 0.950 . S
H1113 C1136 0.950 . S
H1114 C1137 0.950 . S
H1115 C1139 0.950 . S
H1116 C1140 0.950 . S
H1117 C1141 0.951 . S
H1118 C1143 0.951 . S
H1119 C1145 0.950 . S
H1120 C1146 0.950 . S
H1121 C1148 0.950 . S
H1122 C1151 0.950 . S
H1123 C1152 0.950 . S
H1124 C1154 0.950 . S
H1125 C1155 0.950 . S
C1126 H1108 0.951 . S
C1126 C1127 1.366 . S
C1126 C1128 1.388 . S
C1127 C1126 1.366 . S
C1127 C1131 1.385 . S
C1128 H1109 0.951 . S
C1128 C1126 1.388 . S
C1128 C1129 1.366 . S
C1129 C1128 1.366 . S
C1129 C1130 1.414 . S
C1129 C1132 1.499 . S
C1130 H1110 0.950 . S
C1130 C1129 1.414 . S
C1130 C1131 1.374 . S
C1131 H1111 0.950 . S
C1131 C1127 1.385 . S
C1131 C1130 1.374 . S
C1132 C1129 1.499 . S
C1132 C1133 1.373 . S
C1132 C1134 1.389 . S
C1133 H1112 0.950 . S
C1133 C1132 1.373 . S
C1133 C1149 1.377 . S
C1134 C1132 1.389 . S
C1134 C1135 1.524 . S
C1134 C1148 1.377 . S
C1135 C1134 1.524 . S
C1135 C1136 1.397 . S
C1135 C1140 1.363 . S
C1136 H1113 0.950 . S
C1136 C1135 1.397 . S
C1136 C1137 1.334 . S
C1137 H1114 0.950 . S
C1137 C1136 1.334 . S
C1137 C1138 1.287 . S
C1138 C1137 1.287 . S
C1138 C1139 1.524 . S
C1138 H1157 0.913 . S
C1139 H1115 0.950 . S
C1139 C1138 1.524 . S
C1139 C1140 1.415 . S
C1140 H1116 0.950 . S
C1140 C1135 1.363 . S
C1140 C1139 1.415 . S
C1141 H1117 0.951 . S
C1141 C1142 1.366 . S
C1141 C1143 1.388 . S
C1142 C1141 1.366 . S
C1142 C1146 1.385 . S
C1143 H1118 0.951 . S
C1143 C1141 1.388 . S
C1143 C1144 1.366 . S
C1144 C1143 1.366 . S
C1144 C1145 1.414 . S
C1144 C1147 1.499 . S
C1145 H1119 0.950 . S
C1145 C1144 1.414 . S
C1145 C1146 1.374 . S
C1146 H1120 0.950 . S
C1146 C1142 1.385 . S
C1146 C1145 1.374 . S
C1147 C1144 1.499 . S
C1147 C1148 1.373 . S
C1147 C1149 1.389 . S
C1148 H1121 0.950 . S
C1148 C1134 1.377 . S
C1148 C1147 1.373 . S
C1149 C1133 1.377 . S
C1149 C1147 1.389 . S
C1149 C1150 1.524 . S
C1150 C1149 1.524 . S
C1150 C1151 1.397 . S
C1150 C1155 1.363 . S
C1151 H1122 0.950 . S
C1151 C1150 1.397 . S
C1151 C1152 1.334 . S
C1152 H1123 0.950 . S
C1152 C1151 1.334 . S
C1152 C1153 1.287 . S
C1153 C1152 1.287 . S
C1153 C1154 1.524 . S
C1153 H1156 0.999 . S
C1154 H1124 0.950 . S
C1154 C1153 1.524 . S
C1154 C1155 1.415 . S
C1155 H1125 0.950 . S
C1155 C1150 1.363 . S
C1155 C1154 1.415 . S
H1156 C1153 0.999 . S
H1157 C1138 0.913 . S
H1158 C1176 0.951 . S
H1159 C1178 0.951 . S
H1160 C1180 0.950 . S
H1161 C1181 0.950 . S
H1162 C1183 0.950 . S
H1163 C1186 0.950 . S
H1164 C1187 0.950 . S
H1165 C1189 0.950 . S
H1166 C1190 0.950 . S
H1167 C1191 0.951 . S
H1168 C1193 0.951 . S
H1169 C1195 0.950 . S
H1170 C1196 0.950 . S
H1171 C1198 0.950 . S
H1172 C1201 0.950 . S
H1173 C1202 0.958 . S
H1174 C1204 0.970 . S
H1175 C1205 0.950 . S
C1176 H1158 0.951 . S
C1176 C1177 1.366 . S
C1176 C1178 1.388 . S
C1177 C1176 1.366 . S
C1177 C1181 1.385 . S
C1178 H1159 0.951 . S
C1178 C1176 1.388 . S
C1178 C1179 1.366 . S
C1179 C1178 1.366 . S
C1179 C1180 1.414 . S
C1179 C1182 1.499 . S
C1180 H1160 0.950 . S
C1180 C1179 1.414 . S
C1180 C1181 1.374 . S
C1181 H1161 0.950 . S
C1181 C1177 1.385 . S
C1181 C1180 1.374 . S
C1182 C1179 1.499 . S
C1182 C1183 1.373 . S
C1182 C1184 1.389 . S
C1183 H1162 0.950 . S
C1183 C1182 1.373 . S
C1183 C1199 1.377 . S
C1184 C1182 1.389 . S
C1184 C1185 1.524 . S
C1184 C1198 1.377 . S
C1185 C1184 1.524 . S
C1185 C1186 1.397 . S
C1185 C1190 1.363 . S
C1186 H1163 0.950 . S
C1186 C1185 1.397 . S
C1186 C1187 1.334 . S
C1187 H1164 0.950 . S
C1187 C1186 1.334 . S
C1187 C1188 1.287 . S
C1188 C1187 1.287 . S
C1188 C1189 1.524 . S
C1188 H1207 0.913 . S
C1189 H1165 0.950 . S
C1189 C1188 1.524 . S
C1189 C1190 1.415 . S
C1190 H1166 0.950 . S
C1190 C1185 1.363 . S
C1190 C1189 1.415 . S
C1191 H1167 0.951 . S
C1191 C1192 1.366 . S
C1191 C1193 1.388 . S
C1192 C1191 1.366 . S
C1192 C1196 1.385 . S
C1193 H1168 0.951 . S
C1193 C1191 1.388 . S
C1193 C1194 1.366 . S
C1194 C1193 1.366 . S
C1194 C1195 1.414 . S
C1194 C1197 1.499 . S
C1195 H1169 0.950 . S
C1195 C1194 1.414 . S
C1195 C1196 1.374 . S
C1196 H1170 0.950 . S
C1196 C1192 1.385 . S
C1196 C1195 1.374 . S
C1197 C1194 1.499 . S
C1197 C1198 1.373 . S
C1197 C1199 1.389 . S
C1198 H1171 0.950 . S
C1198 C1184 1.377 . S
C1198 C1197 1.373 . S
C1199 C1183 1.377 . S
C1199 C1197 1.389 . S
C1199 C1200 1.524 . S
C1200 C1199 1.524 . S
C1200 C1201 1.397 . S
C1200 C1205 1.363 . S
C1201 H1172 0.950 . S
C1201 C1200 1.397 . S
C1201 C1202 1.334 . S
C1202 H1173 0.958 . S
C1202 C1201 1.334 . S
C1202 C1203 1.287 1_655 S
C1203 C1202 1.287 1_455 S
C1203 C1204 1.524 1_455 S
C1203 H1206 0.999 . S
C1204 H1174 0.970 . S
C1204 C1203 1.524 1_655 S
C1204 C1205 1.415 . S
C1205 H1175 0.950 . S
C1205 C1200 1.363 . S
C1205 C1204 1.415 . S
H1206 C1203 0.999 . S
H1207 C1188 0.913 . S
H1208 C1226 0.951 . S
H1209 C1228 0.951 . S
H1210 C1230 0.950 . S
H1211 C1231 0.950 . S
H1212 C1233 0.950 . S
H1213 C1236 0.950 . S
H1214 C1237 0.950 . S
H1215 C1239 0.950 . S
H1216 C1240 0.950 . S
H1217 C1241 0.951 . S
H1218 C1243 0.951 . S
H1219 C1245 0.950 . S
H1220 C1246 0.950 . S
H1221 C1248 0.950 . S
H1222 C1251 0.950 . S
H1223 C1252 0.950 . S
H1224 C1254 0.950 . S
H1225 C1255 0.950 . S
C1226 H1208 0.951 . S
C1226 C1227 1.366 . S
C1226 C1228 1.388 . S
C1227 C1226 1.366 . S
C1227 C1231 1.385 . S
C1228 H1209 0.951 . S
C1228 C1226 1.388 . S
C1228 C1229 1.366 . S
C1229 C1228 1.366 . S
C1229 C1230 1.414 . S
C1229 C1232 1.499 . S
C1230 H1210 0.950 . S
C1230 C1229 1.414 . S
C1230 C1231 1.374 . S
C1231 H1211 0.950 . S
C1231 C1227 1.385 . S
C1231 C1230 1.374 . S
C1232 C1229 1.499 . S
C1232 C1233 1.373 . S
C1232 C1234 1.389 . S
C1233 H1212 0.950 . S
C1233 C1232 1.373 . S
C1233 C1249 1.377 . S
C1234 C1232 1.389 . S
C1234 C1235 1.524 . S
C1234 C1248 1.377 . S
C1235 C1234 1.524 . S
C1235 C1236 1.397 . S
C1235 C1240 1.363 . S
C1236 H1213 0.950 . S
C1236 C1235 1.397 . S
C1236 C1237 1.334 . S
C1237 H1214 0.950 . S
C1237 C1236 1.334 . S
C1237 C1238 1.287 . S
C1238 C1237 1.287 . S
C1238 C1239 1.524 . S
C1238 H1257 0.913 . S
C1239 H1215 0.950 . S
C1239 C1238 1.524 . S
C1239 C1240 1.415 . S
C1240 H1216 0.950 . S
C1240 C1235 1.363 . S
C1240 C1239 1.415 . S
C1241 H1217 0.951 . S
C1241 C1242 1.366 . S
C1241 C1243 1.388 . S
C1242 C1241 1.366 . S
C1242 C1246 1.385 . S
C1243 H1218 0.951 . S
C1243 C1241 1.388 . S
C1243 C1244 1.366 . S
C1244 C1243 1.366 . S
C1244 C1245 1.414 . S
C1244 C1247 1.499 . S
C1245 H1219 0.950 . S
C1245 C1244 1.414 . S
C1245 C1246 1.374 . S
C1246 H1220 0.950 . S
C1246 C1242 1.385 . S
C1246 C1245 1.374 . S
C1247 C1244 1.499 . S
C1247 C1248 1.373 . S
C1247 C1249 1.389 . S
C1248 H1221 0.950 . S
C1248 C1234 1.377 . S
C1248 C1247 1.373 . S
C1249 C1233 1.377 . S
C1249 C1247 1.389 . S
C1249 C1250 1.524 . S
C1250 C1249 1.524 . S
C1250 C1251 1.397 . S
C1250 C1255 1.363 . S
C1251 H1222 0.950 . S
C1251 C1250 1.397 . S
C1251 C1252 1.334 . S
C1252 H1223 0.950 . S
C1252 C1251 1.334 . S
C1252 C1253 1.287 . S
C1253 C1252 1.287 . S
C1253 C1254 1.524 . S
C1253 H1256 0.999 1_655 S
C1254 H1224 0.950 . S
C1254 C1253 1.524 . S
C1254 C1255 1.415 . S
C1255 H1225 0.950 . S
C1255 C1250 1.363 . S
C1255 C1254 1.415 . S
H1256 C1253 0.999 1_455 S
H1257 C1238 0.913 . S
H1258 C1276 0.951 . S
H1259 C1278 0.951 . S
H1260 C1280 0.950 . S
H1261 C1281 0.950 . S
H1262 C1283 0.950 . S
H1263 C1286 0.950 . S
H1264 C1287 0.950 . S
H1265 C1289 0.950 . S
H1266 C1290 0.950 . S
H1267 C1291 0.951 . S
H1268 C1293 0.951 . S
H1269 C1295 0.950 . S
H1270 C1296 0.950 . S
H1271 C1298 0.950 . S
H1272 C1301 0.950 . S
H1273 C1302 0.938 1_556 S
H1274 C1304 0.950 . S
H1275 C1305 0.950 . S
C1276 H1258 0.951 . S
C1276 C1277 1.366 . S
C1276 C1278 1.388 . S
C1277 C1276 1.366 . S
C1277 C1281 1.385 . S
C1278 H1259 0.951 . S
C1278 C1276 1.388 . S
C1278 C1279 1.366 . S
C1279 C1278 1.366 . S
C1279 C1280 1.414 . S
C1279 C1282 1.499 . S
C1280 H1260 0.950 . S
C1280 C1279 1.414 . S
C1280 C1281 1.374 . S
C1281 H1261 0.950 . S
C1281 C1277 1.385 . S
C1281 C1280 1.374 . S
C1282 C1279 1.499 . S
C1282 C1283 1.373 . S
C1282 C1284 1.389 . S
C1283 H1262 0.950 . S
C1283 C1282 1.373 . S
C1283 C1299 1.377 . S
C1284 C1282 1.389 . S
C1284 C1285 1.524 . S
C1284 C1298 1.377 . S
C1285 C1284 1.524 . S
C1285 C1286 1.397 . S
C1285 C1290 1.363 . S
C1286 H1263 0.950 . S
C1286 C1285 1.397 . S
C1286 C1287 1.334 . S
C1287 H1264 0.950 . S
C1287 C1286 1.334 . S
C1287 C1288 1.287 . S
C1288 C1287 1.287 . S
C1288 C1289 1.524 . S
C1288 H1307 0.913 . S
C1289 H1265 0.950 . S
C1289 C1288 1.524 . S
C1289 C1290 1.415 . S
C1290 H1266 0.950 . S
C1290 C1285 1.363 . S
C1290 C1289 1.415 . S
C1291 H1267 0.951 . S
C1291 C1292 1.366 . S
C1291 C1293 1.388 . S
C1292 C1291 1.366 . S
C1292 C1296 1.385 . S
C1293 H1268 0.951 . S
C1293 C1291 1.388 . S
C1293 C1294 1.366 . S
C1294 C1293 1.366 . S
C1294 C1295 1.414 . S
C1294 C1297 1.499 . S
C1295 H1269 0.950 . S
C1295 C1294 1.414 . S
C1295 C1296 1.374 . S
C1296 H1270 0.950 . S
C1296 C1292 1.385 . S
C1296 C1295 1.374 . S
C1297 C1294 1.499 . S
C1297 C1298 1.373 . S
C1297 C1299 1.389 . S
C1298 H1271 0.950 . S
C1298 C1284 1.377 . S
C1298 C1297 1.373 . S
C1299 C1283 1.377 . S
C1299 C1297 1.389 . S
C1299 C1300 1.524 . S
C1300 C1299 1.524 . S
C1300 C1301 1.397 . S
C1300 C1305 1.363 . S
C1301 H1272 0.950 . S
C1301 C1300 1.397 . S
C1301 C1302 1.334 . S
C1302 H1273 0.938 1_554 S
C1302 C1301 1.334 . S
C1302 C1303 1.287 . S
C1303 C1302 1.287 . S
C1303 C1304 1.524 . S
C1303 H1306 0.999 1_554 S
C1304 H1274 0.950 . S
C1304 C1303 1.524 . S
C1304 C1305 1.415 . S
C1305 H1275 0.950 . S
C1305 C1300 1.363 . S
C1305 C1304 1.415 . S
H1306 C1303 0.999 1_556 S
H1307 C1288 0.913 . S
H1308 C1326 0.951 . S
H1309 C1328 0.951 . S
H1310 C1330 0.950 . S
H1311 C1331 0.950 . S
H1312 C1333 0.950 . S
H1313 C1336 0.950 . S
H1314 C1337 0.950 . S
H1315 C1339 0.950 . S
H1316 C1340 0.950 . S
H1317 C1341 0.951 . S
H1318 C1343 0.951 . S
H1319 C1345 0.950 . S
H1320 C1346 0.950 . S
H1321 C1348 0.950 . S
H1322 C1351 0.950 . S
H1323 C1352 0.950 . S
H1324 C1354 0.950 . S
H1325 C1355 0.950 . S
C1326 H1308 0.951 . S
C1326 C1327 1.366 . S
C1326 C1328 1.388 . S
C1327 C1326 1.366 . S
C1327 C1331 1.385 . S
C1328 H1309 0.951 . S
C1328 C1326 1.388 . S
C1328 C1329 1.366 . S
C1329 C1328 1.366 . S
C1329 C1330 1.414 . S
C1329 C1332 1.499 . S
C1330 H1310 0.950 . S
C1330 C1329 1.414 . S
C1330 C1331 1.374 . S
C1331 H1311 0.950 . S
C1331 C1327 1.385 . S
C1331 C1330 1.374 . S
C1332 C1329 1.499 . S
C1332 C1333 1.373 . S
C1332 C1334 1.389 . S
C1333 H1312 0.950 . S
C1333 C1332 1.373 . S
C1333 C1349 1.377 . S
C1334 C1332 1.389 . S
C1334 C1335 1.524 . S
C1334 C1348 1.377 . S
C1335 C1334 1.524 . S
C1335 C1336 1.397 . S
C1335 C1340 1.363 . S
C1336 H1313 0.950 . S
C1336 C1335 1.397 . S
C1336 C1337 1.334 . S
C1337 H1314 0.950 . S
C1337 C1336 1.334 . S
C1337 C1338 1.287 . S
C1338 C1337 1.287 . S
C1338 C1339 1.524 . S
C1338 H1357 0.913 . S
C1339 H1315 0.950 . S
C1339 C1338 1.524 . S
C1339 C1340 1.415 . S
C1340 H1316 0.950 . S
C1340 C1335 1.363 . S
C1340 C1339 1.415 . S
C1341 H1317 0.951 . S
C1341 C1342 1.366 . S
C1341 C1343 1.388 . S
C1342 C1341 1.366 . S
C1342 C1346 1.385 . S
C1343 H1318 0.951 . S
C1343 C1341 1.388 . S
C1343 C1344 1.366 . S
C1344 C1343 1.366 . S
C1344 C1345 1.414 . S
C1344 C1347 1.499 . S
C1345 H1319 0.950 . S
C1345 C1344 1.414 . S
C1345 C1346 1.374 . S
C1346 H1320 0.950 . S
C1346 C1342 1.385 . S
C1346 C1345 1.374 . S
C1347 C1344 1.499 . S
C1347 C1348 1.373 . S
C1347 C1349 1.389 . S
C1348 H1321 0.950 . S
C1348 C1334 1.377 . S
C1348 C1347 1.373 . S
C1349 C1333 1.377 . S
C1349 C1347 1.389 . S
C1349 C1350 1.524 . S
C1350 C1349 1.524 . S
C1350 C1351 1.397 . S
C1350 C1355 1.363 . S
C1351 H1322 0.950 . S
C1351 C1350 1.397 . S
C1351 C1352 1.334 . S
C1352 H1323 0.950 . S
C1352 C1351 1.334 . S
C1352 C1353 1.287 . S
C1353 C1352 1.287 . S
C1353 C1354 1.524 . S
C1353 H1356 0.999 . S
C1354 H1324 0.950 . S
C1354 C1353 1.524 . S
C1354 C1355 1.415 . S
C1355 H1325 0.950 . S
C1355 C1350 1.363 . S
C1355 C1354 1.415 . S
H1356 C1353 0.999 . S
H1357 C1338 0.913 . S
H1358 C1376 0.951 . S
H1359 C1378 0.951 . S
H1360 C1380 0.950 . S
H1361 C1381 0.950 . S
H1362 C1383 0.950 . S
H1363 C1386 0.950 . S
H1364 C1387 0.950 . S
H1365 C1389 0.950 . S
H1366 C1390 0.950 . S
H1367 C1391 0.951 . S
H1368 C1393 0.951 . S
H1369 C1395 0.950 . S
H1370 C1396 0.950 . S
H1371 C1398 0.950 . S
H1372 C1401 0.950 . S
H1373 C1402 0.950 . S
H1374 C1404 0.950 . S
H1375 C1405 0.950 . S
C1376 H1358 0.951 . S
C1376 C1377 1.366 . S
C1376 C1378 1.388 . S
C1377 C1376 1.366 . S
C1377 C1381 1.385 . S
C1378 H1359 0.951 . S
C1378 C1376 1.388 . S
C1378 C1379 1.366 . S
C1379 C1378 1.366 . S
C1379 C1380 1.414 . S
C1379 C1382 1.499 . S
C1380 H1360 0.950 . S
C1380 C1379 1.414 . S
C1380 C1381 1.374 . S
C1381 H1361 0.950 . S
C1381 C1377 1.385 . S
C1381 C1380 1.374 . S
C1382 C1379 1.499 . S
C1382 C1383 1.373 . S
C1382 C1384 1.389 . S
C1383 H1362 0.950 . S
C1383 C1382 1.373 . S
C1383 C1399 1.377 . S
C1384 C1382 1.389 . S
C1384 C1385 1.524 . S
C1384 C1398 1.377 . S
C1385 C1384 1.524 . S
C1385 C1386 1.397 . S
C1385 C1390 1.363 . S
C1386 H1363 0.950 . S
C1386 C1385 1.397 . S
C1386 C1387 1.334 . S
C1387 H1364 0.950 . S
C1387 C1386 1.334 . S
C1387 C1388 1.287 . S
C1388 C1387 1.287 . S
C1388 C1389 1.524 . S
C1388 H1407 0.913 . S
C1389 H1365 0.950 . S
C1389 C1388 1.524 . S
C1389 C1390 1.415 . S
C1390 H1366 0.950 . S
C1390 C1385 1.363 . S
C1390 C1389 1.415 . S
C1391 H1367 0.951 . S
C1391 C1392 1.366 . S
C1391 C1393 1.388 . S
C1392 C1391 1.366 . S
C1392 C1396 1.385 . S
C1393 H1368 0.951 . S
C1393 C1391 1.388 . S
C1393 C1394 1.366 . S
C1394 C1393 1.366 . S
C1394 C1395 1.414 . S
C1394 C1397 1.499 . S
C1395 H1369 0.950 . S
C1395 C1394 1.414 . S
C1395 C1396 1.374 . S
C1396 H1370 0.950 . S
C1396 C1392 1.385 . S
C1396 C1395 1.374 . S
C1397 C1394 1.499 . S
C1397 C1398 1.373 . S
C1397 C1399 1.389 . S
C1398 H1371 0.950 . S
C1398 C1384 1.377 . S
C1398 C1397 1.373 . S
C1399 C1383 1.377 . S
C1399 C1397 1.389 . S
C1399 C1400 1.524 . S
C1400 C1399 1.524 . S
C1400 C1401 1.397 . S
C1400 C1405 1.363 . S
C1401 H1372 0.950 . S
C1401 C1400 1.397 . S
C1401 C1402 1.334 . S
C1402 H1373 0.950 . S
C1402 C1401 1.334 . S
C1402 C1403 1.287 . S
C1403 C1402 1.287 . S
C1403 C1404 1.524 . S
C1403 H1406 0.999 1_565 S
C1404 H1374 0.950 . S
C1404 C1403 1.524 . S
C1404 C1405 1.415 . S
C1405 H1375 0.950 . S
C1405 C1400 1.363 . S
C1405 C1404 1.415 . S
H1406 C1403 0.999 1_545 S
H1407 C1388 0.913 . S
H1408 C1426 0.951 . S
H1409 C1428 0.951 . S
H1410 C1430 0.950 . S
H1411 C1431 0.950 . S
H1412 C1433 0.950 . S
H1413 C1436 0.950 . S
H1414 C1437 0.950 . S
H1415 C1439 0.950 . S
H1416 C1440 0.950 . S
H1417 C1441 0.951 . S
H1418 C1443 0.951 . S
H1419 C1445 0.950 . S
H1420 C1446 0.950 . S
H1421 C1448 0.950 . S
H1422 C1451 0.950 . S
H1423 C1452 0.950 . S
H1424 C1454 0.950 . S
H1425 C1455 0.950 . S
C1426 H1408 0.951 . S
C1426 C1427 1.366 . S
C1426 C1428 1.388 . S
C1427 C1426 1.366 . S
C1427 C1431 1.385 . S
C1428 H1409 0.951 . S
C1428 C1426 1.388 . S
C1428 C1429 1.366 . S
C1429 C1428 1.366 . S
C1429 C1430 1.414 . S
C1429 C1432 1.499 . S
C1430 H1410 0.950 . S
C1430 C1429 1.414 . S
C1430 C1431 1.374 . S
C1431 H1411 0.950 . S
C1431 C1427 1.385 . S
C1431 C1430 1.374 . S
C1432 C1429 1.499 . S
C1432 C1433 1.373 . S
C1432 C1434 1.389 . S
C1433 H1412 0.950 . S
C1433 C1432 1.373 . S
C1433 C1449 1.377 . S
C1434 C1432 1.389 . S
C1434 C1435 1.524 . S
C1434 C1448 1.377 . S
C1435 C1434 1.524 . S
C1435 C1436 1.397 . S
C1435 C1440 1.363 . S
C1436 H1413 0.950 . S
C1436 C1435 1.397 . S
C1436 C1437 1.334 . S
C1437 H1414 0.950 . S
C1437 C1436 1.334 . S
C1437 C1438 1.287 . S
C1438 C1437 1.287 . S
C1438 C1439 1.524 . S
C1438 H1457 0.913 . S
C1439 H1415 0.950 . S
C1439 C1438 1.524 . S
C1439 C1440 1.415 . S
C1440 H1416 0.950 . S
C1440 C1435 1.363 . S
C1440 C1439 1.415 . S
C1441 H1417 0.951 . S
C1441 C1442 1.366 . S
C1441 C1443 1.388 . S
C1442 C1441 1.366 . S
C1442 C1446 1.385 . S
C1443 H1418 0.951 . S
C1443 C1441 1.388 . S
C1443 C1444 1.366 . S
C1444 C1443 1.366 . S
C1444 C1445 1.414 . S
C1444 C1447 1.499 . S
C1445 H1419 0.950 . S
C1445 C1444 1.414 . S
C1445 C1446 1.374 . S
C1446 H1420 0.950 . S
C1446 C1442 1.385 . S
C1446 C1445 1.374 . S
C1447 C1444 1.499 . S
C1447 C1448 1.373 . S
C1447 C1449 1.389 . S
C1448 H1421 0.950 . S
C1448 C1434 1.377 . S
C1448 C1447 1.373 . S
C1449 C1433 1.377 . S
C1449 C1447 1.389 . S
C1449 C1450 1.524 . S
C1450 C1449 1.524 . S
C1450 C1451 1.397 . S
C1450 C1455 1.363 . S
C1451 H1422 0.950 . S
C1451 C1450 1.397 . S
C1451 C1452 1.334 . S
C1452 H1423 0.950 . S
C1452 C1451 1.334 . S
C1452 C1453 1.287 . S
C1453 C1452 1.287 . S
C1453 C1454 1.524 . S
C1453 H1456 0.999 1_455 S
C1454 H1424 0.950 . S
C1454 C1453 1.524 . S
C1454 C1455 1.415 . S
C1455 H1425 0.950 . S
C1455 C1450 1.363 . S
C1455 C1454 1.415 . S
H1456 C1453 0.999 1_655 S
H1457 C1438 0.913 . S
H1458 C1476 0.951 . S
H1459 C1478 0.951 . S
H1460 C1480 0.950 . S
H1461 C1481 0.950 . S
H1462 C1483 0.950 . S
H1463 C1486 0.950 . S
H1464 C1487 0.950 . S
H1465 C1489 0.950 . S
H1466 C1490 0.950 . S
H1467 C1491 0.951 . S
H1468 C1493 0.951 . S
H1469 C1495 0.950 . S
H1470 C1496 0.950 . S
H1471 C1498 0.950 . S
H1472 C1501 0.950 . S
H1473 C1502 0.950 . S
H1474 C1504 0.950 . S
H1475 C1505 0.950 . S
C1476 H1458 0.951 . S
C1476 C1477 1.366 . S
C1476 C1478 1.388 . S
C1477 C1476 1.366 . S
C1477 C1481 1.385 . S
C1478 H1459 0.951 . S
C1478 C1476 1.388 . S
C1478 C1479 1.366 . S
C1479 C1478 1.366 . S
C1479 C1480 1.414 . S
C1479 C1482 1.499 . S
C1480 H1460 0.950 . S
C1480 C1479 1.414 . S
C1480 C1481 1.374 . S
C1481 H1461 0.950 . S
C1481 C1477 1.385 . S
C1481 C1480 1.374 . S
C1482 C1479 1.499 . S
C1482 C1483 1.373 . S
C1482 C1484 1.389 . S
C1483 H1462 0.950 . S
C1483 C1482 1.373 . S
C1483 C1499 1.377 . S
C1484 C1482 1.389 . S
C1484 C1485 1.524 . S
C1484 C1498 1.377 . S
C1485 C1484 1.524 . S
C1485 C1486 1.397 . S
C1485 C1490 1.363 . S
C1486 H1463 0.950 . S
C1486 C1485 1.397 . S
C1486 C1487 1.334 . S
C1487 H1464 0.950 . S
C1487 C1486 1.334 . S
C1487 C1488 1.287 . S
C1488 C1487 1.287 . S
C1488 C1489 1.524 . S
C1488 H1507 0.913 . S
C1489 H1465 0.950 . S
C1489 C1488 1.524 . S
C1489 C1490 1.415 . S
C1490 H1466 0.950 . S
C1490 C1485 1.363 . S
C1490 C1489 1.415 . S
C1491 H1467 0.951 . S
C1491 C1492 1.366 . S
C1491 C1493 1.388 . S
C1492 C1491 1.366 . S
C1492 C1496 1.385 . S
C1493 H1468 0.951 . S
C1493 C1491 1.388 . S
C1493 C1494 1.366 . S
C1494 C1493 1.366 . S
C1494 C1495 1.414 . S
C1494 C1497 1.499 . S
C1495 H1469 0.950 . S
C1495 C1494 1.414 . S
C1495 C1496 1.374 . S
C1496 H1470 0.950 . S
C1496 C1492 1.385 . S
C1496 C1495 1.374 . S
C1497 C1494 1.499 . S
C1497 C1498 1.373 . S
C1497 C1499 1.389 . S
C1498 H1471 0.950 . S
C1498 C1484 1.377 . S
C1498 C1497 1.373 . S
C1499 C1483 1.377 . S
C1499 C1497 1.389 . S
C1499 C1500 1.524 . S
C1500 C1499 1.524 . S
C1500 C1501 1.397 . S
C1500 C1505 1.363 . S
C1501 H1472 0.950 . S
C1501 C1500 1.397 . S
C1501 C1502 1.334 . S
C1502 H1473 0.950 . S
C1502 C1501 1.334 . S
C1502 C1503 1.287 . S
C1503 C1502 1.287 . S
C1503 C1504 1.524 . S
C1503 H1506 0.999 . S
C1504 H1474 0.950 . S
C1504 C1503 1.524 . S
C1504 C1505 1.415 . S
C1505 H1475 0.950 . S
C1505 C1500 1.363 . S
C1505 C1504 1.415 . S
H1506 C1503 0.999 . S
H1507 C1488 0.913 . S
H1508 C1526 0.951 . S
H1509 C1528 0.951 . S
H1510 C1530 0.950 . S
H1511 C1531 0.950 . S
H1512 C1533 0.950 . S
H1513 C1536 0.950 . S
H1514 C1537 0.950 . S
H1515 C1539 0.950 . S
H1516 C1540 0.950 . S
H1517 C1541 0.951 . S
H1518 C1543 0.951 . S
H1519 C1545 0.950 . S
H1520 C1546 0.950 . S
H1521 C1548 0.950 . S
H1522 C1551 0.950 . S
H1523 C1552 0.950 . S
H1524 C1554 0.950 . S
H1525 C1555 0.950 . S
C1526 H1508 0.951 . S
C1526 C1527 1.366 . S
C1526 C1528 1.388 . S
C1527 C1526 1.366 . S
C1527 C1531 1.385 . S
C1528 H1509 0.951 . S
C1528 C1526 1.388 . S
C1528 C1529 1.366 . S
C1529 C1528 1.366 . S
C1529 C1530 1.414 . S
C1529 C1532 1.499 . S
C1530 H1510 0.950 . S
C1530 C1529 1.414 . S
C1530 C1531 1.374 . S
C1531 H1511 0.950 . S
C1531 C1527 1.385 . S
C1531 C1530 1.374 . S
C1532 C1529 1.499 . S
C1532 C1533 1.373 . S
C1532 C1534 1.389 . S
C1533 H1512 0.950 . S
C1533 C1532 1.373 . S
C1533 C1549 1.377 . S
C1534 C1532 1.389 . S
C1534 C1535 1.524 . S
C1534 C1548 1.377 . S
C1535 C1534 1.524 . S
C1535 C1536 1.397 . S
C1535 C1540 1.363 . S
C1536 H1513 0.950 . S
C1536 C1535 1.397 . S
C1536 C1537 1.334 . S
C1537 H1514 0.950 . S
C1537 C1536 1.334 . S
C1537 C1538 1.287 . S
C1538 C1537 1.287 . S
C1538 C1539 1.524 . S
C1538 H1557 0.913 . S
C1539 H1515 0.950 . S
C1539 C1538 1.524 . S
C1539 C1540 1.415 . S
C1540 H1516 0.950 . S
C1540 C1535 1.363 . S
C1540 C1539 1.415 . S
C1541 H1517 0.951 . S
C1541 C1542 1.366 . S
C1541 C1543 1.388 . S
C1542 C1541 1.366 . S
C1542 C1546 1.385 . S
C1543 H1518 0.951 . S
C1543 C1541 1.388 . S
C1543 C1544 1.366 . S
C1544 C1543 1.366 . S
C1544 C1545 1.414 . S
C1544 C1547 1.499 . S
C1545 H1519 0.950 . S
C1545 C1544 1.414 . S
C1545 C1546 1.374 . S
C1546 H1520 0.950 . S
C1546 C1542 1.385 . S
C1546 C1545 1.374 . S
C1547 C1544 1.499 . S
C1547 C1548 1.373 . S
C1547 C1549 1.389 . S
C1548 H1521 0.950 . S
C1548 C1534 1.377 . S
C1548 C1547 1.373 . S
C1549 C1533 1.377 . S
C1549 C1547 1.389 . S
C1549 C1550 1.524 . S
C1550 C1549 1.524 . S
C1550 C1551 1.397 . S
C1550 C1555 1.363 . S
C1551 H1522 0.950 . S
C1551 C1550 1.397 . S
C1551 C1552 1.334 . S
C1552 H1523 0.950 . S
C1552 C1551 1.334 . S
C1552 C1553 1.287 . S
C1553 C1552 1.287 . S
C1553 C1554 1.524 . S
C1553 H1556 0.999 . S
C1554 H1524 0.950 . S
C1554 C1553 1.524 . S
C1554 C1555 1.415 . S
C1555 H1525 0.950 . S
C1555 C1550 1.363 . S
C1555 C1554 1.415 . S
H1556 C1553 0.999 . S
H1557 C1538 0.913 . S
H1558 C1576 0.951 . S
H1559 C1578 0.951 . S
H1560 C1580 0.950 . S
H1561 C1581 0.950 . S
H1562 C1583 0.950 . S
H1563 C1586 0.950 . S
H1564 C1587 0.950 . S
H1565 C1589 0.950 . S
H1566 C1590 0.950 . S
H1567 C1591 0.951 . S
H1568 C1593 0.951 . S
H1569 C1595 0.950 . S
H1570 C1596 0.950 . S
H1571 C1598 0.950 . S
H1572 C1601 0.950 . S
H1573 C1602 0.950 . S
H1574 C1604 0.950 . S
H1575 C1605 0.950 . S
C1576 H1558 0.951 . S
C1576 C1577 1.366 . S
C1576 C1578 1.388 . S
C1577 C1576 1.366 . S
C1577 C1581 1.385 . S
C1578 H1559 0.951 . S
C1578 C1576 1.388 . S
C1578 C1579 1.366 . S
C1579 C1578 1.366 . S
C1579 C1580 1.414 . S
C1579 C1582 1.499 . S
C1580 H1560 0.950 . S
C1580 C1579 1.414 . S
C1580 C1581 1.374 . S
C1581 H1561 0.950 . S
C1581 C1577 1.385 . S
C1581 C1580 1.374 . S
C1582 C1579 1.499 . S
C1582 C1583 1.373 . S
C1582 C1584 1.389 . S
C1583 H1562 0.950 . S
C1583 C1582 1.373 . S
C1583 C1599 1.377 . S
C1584 C1582 1.389 . S
C1584 C1585 1.524 . S
C1584 C1598 1.377 . S
C1585 C1584 1.524 . S
C1585 C1586 1.397 . S
C1585 C1590 1.363 . S
C1586 H1563 0.950 . S
C1586 C1585 1.397 . S
C1586 C1587 1.334 . S
C1587 H1564 0.950 . S
C1587 C1586 1.334 . S
C1587 C1588 1.287 . S
C1588 C1587 1.287 . S
C1588 C1589 1.524 . S
C1588 H1607 0.913 . S
C1589 H1565 0.950 . S
C1589 C1588 1.524 . S
C1589 C1590 1.415 . S
C1590 H1566 0.950 . S
C1590 C1585 1.363 . S
C1590 C1589 1.415 . S
C1591 H1567 0.951 . S
C1591 C1592 1.366 . S
C1591 C1593 1.388 . S
C1592 C1591 1.366 . S
C1592 C1596 1.385 . S
C1593 H1568 0.951 . S
C1593 C1591 1.388 . S
C1593 C1594 1.366 . S
C1594 C1593 1.366 . S
C1594 C1595 1.414 . S
C1594 C1597 1.499 . S
C1595 H1569 0.950 . S
C1595 C1594 1.414 . S
C1595 C1596 1.374 . S
C1596 H1570 0.950 . S
C1596 C1592 1.385 . S
C1596 C1595 1.374 . S
C1597 C1594 1.499 . S
C1597 C1598 1.373 . S
C1597 C1599 1.389 . S
C1598 H1571 0.950 . S
C1598 C1584 1.377 . S
C1598 C1597 1.373 . S
C1599 C1583 1.377 . S
C1599 C1597 1.389 . S
C1599 C1600 1.524 . S
C1600 C1599 1.524 . S
C1600 C1601 1.397 . S
C1600 C1605 1.363 . S
C1601 H1572 0.950 . S
C1601 C1600 1.397 . S
C1601 C1602 1.334 . S
C1602 H1573 0.950 . S
C1602 C1601 1.334 . S
C1602 C1603 1.287 . S
C1603 C1602 1.287 . S
C1603 C1604 1.524 . S
C1603 H1606 0.999 . S
C1604 H1574 0.950 . S
C1604 C1603 1.524 . S
C1604 C1605 1.415 . S
C1605 H1575 0.950 . S
C1605 C1600 1.363 . S
C1605 C1604 1.415 . S
H1606 C1603 0.999 . S
H1607 C1588 0.913 . S
H1608 C1626 0.951 . S
H1609 C1628 0.951 . S
H1610 C1630 0.950 . S
H1611 C1631 0.950 . S
H1612 C1633 0.950 . S
H1613 C1636 0.950 . S
H1614 C1637 0.950 . S
H1615 C1639 0.950 . S
H1616 C1640 0.950 . S
H1617 C1641 0.951 . S
H1618 C1643 0.951 . S
H1619 C1645 0.950 . S
H1620 C1646 0.950 . S
H1621 C1648 0.950 . S
H1622 C1651 0.950 . S
H1623 C1652 0.950 . S
H1624 C1654 0.950 . S
H1625 C1655 0.950 . S
C1626 H1608 0.951 . S
C1626 C1627 1.366 . S
C1626 C1628 1.388 . S
C1627 C1626 1.366 . S
C1627 C1631 1.385 . S
C1628 H1609 0.951 . S
C1628 C1626 1.388 . S
C1628 C1629 1.366 . S
C1629 C1628 1.366 . S
C1629 C1630 1.414 . S
C1629 C1632 1.499 . S
C1630 H1610 0.950 . S
C1630 C1629 1.414 . S
C1630 C1631 1.374 . S
C1631 H1611 0.950 . S
C1631 C1627 1.385 . S
C1631 C1630 1.374 . S
C1632 C1629 1.499 . S
C1632 C1633 1.373 . S
C1632 C1634 1.389 . S
C1633 H1612 0.950 . S
C1633 C1632 1.373 . S
C1633 C1649 1.377 . S
C1634 C1632 1.389 . S
C1634 C1635 1.524 . S
C1634 C1648 1.377 . S
C1635 C1634 1.524 . S
C1635 C1636 1.397 . S
C1635 C1640 1.363 . S
C1636 H1613 0.950 . S
C1636 C1635 1.397 . S
C1636 C1637 1.334 . S
C1637 H1614 0.950 . S
C1637 C1636 1.334 . S
C1637 C1638 1.287 . S
C1638 C1637 1.287 . S
C1638 C1639 1.524 . S
C1638 H1657 0.913 . S
C1639 H1615 0.950 . S
C1639 C1638 1.524 . S
C1639 C1640 1.415 . S
C1640 H1616 0.950 . S
C1640 C1635 1.363 . S
C1640 C1639 1.415 . S
C1641 H1617 0.951 . S
C1641 C1642 1.366 . S
C1641 C1643 1.388 . S
C1642 C1641 1.366 . S
C1642 C1646 1.385 . S
C1643 H1618 0.951 . S
C1643 C1641 1.388 . S
C1643 C1644 1.366 . S
C1644 C1643 1.366 . S
C1644 C1645 1.414 . S
C1644 C1647 1.499 . S
C1645 H1619 0.950 . S
C1645 C1644 1.414 . S
C1645 C1646 1.374 . S
C1646 H1620 0.950 . S
C1646 C1642 1.385 . S
C1646 C1645 1.374 . S
C1647 C1644 1.499 . S
C1647 C1648 1.373 . S
C1647 C1649 1.389 . S
C1648 H1621 0.950 . S
C1648 C1634 1.377 . S
C1648 C1647 1.373 . S
C1649 C1633 1.377 . S
C1649 C1647 1.389 . S
C1649 C1650 1.524 . S
C1650 C1649 1.524 . S
C1650 C1651 1.397 . S
C1650 C1655 1.363 . S
C1651 H1622 0.950 . S
C1651 C1650 1.397 . S
C1651 C1652 1.334 . S
C1652 H1623 0.950 . S
C1652 C1651 1.334 . S
C1652 C1653 1.287 . S
C1653 C1652 1.287 . S
C1653 C1654 1.524 . S
C1653 H1656 0.999 . S
C1654 H1624 0.950 . S
C1654 C1653 1.524 . S
C1654 C1655 1.415 . S
C1655 H1625 0.950 . S
C1655 C1650 1.363 . S
C1655 C1654 1.415 . S
H1656 C1653 0.999 . S
H1657 C1638 0.913 . S
H1658 C1676 0.951 . S
H1659 C1678 0.951 . S
H1660 C1680 0.950 . S
H1661 C1681 0.950 . S
H1662 C1683 0.950 . S
H1663 C1686 0.950 . S
H1664 C1687 0.950 . S
H1665 C1689 0.950 . S
H1666 C1690 0.950 . S
H1667 C1691 0.951 . S
H1668 C1693 0.951 . S
H1669 C1695 0.950 . S
H1670 C1696 0.950 . S
H1671 C1698 0.950 . S
H1672 C1701 0.950 . S
H1673 C1702 0.950 . S
H1674 C1704 0.950 . S
H1675 C1705 0.950 . S
C1676 H1658 0.951 . S
C1676 C1677 1.366 . S
C1676 C1678 1.388 . S
C1677 C1676 1.366 . S
C1677 C1681 1.385 . S
C1678 H1659 0.951 . S
C1678 C1676 1.388 . S
C1678 C1679 1.366 . S
C1679 C1678 1.366 . S
C1679 C1680 1.414 . S
C1679 C1682 1.499 . S
C1680 H1660 0.950 . S
C1680 C1679 1.414 . S
C1680 C1681 1.374 . S
C1681 H1661 0.950 . S
C1681 C1677 1.385 . S
C1681 C1680 1.374 . S
C1682 C1679 1.499 . S
C1682 C1683 1.373 . S
C1682 C1684 1.389 . S
C1683 H1662 0.950 . S
C1683 C1682 1.373 . S
C1683 C1699 1.377 . S
C1684 C1682 1.389 . S
C1684 C1685 1.524 . S
C1684 C1698 1.377 . S
C1685 C1684 1.524 . S
C1685 C1686 1.397 . S
C1685 C1690 1.363 . S
C1686 H1663 0.950 . S
C1686 C1685 1.397 . S
C1686 C1687 1.334 . S
C1687 H1664 0.950 . S
C1687 C1686 1.334 . S
C1687 C1688 1.287 . S
C1688 C1687 1.287 . S
C1688 C1689 1.524 . S
C1688 H1707 0.913 . S
C1689 H1665 0.950 . S
C1689 C1688 1.524 . S
C1689 C1690 1.415 . S
C1690 H1666 0.950 . S
C1690 C1685 1.363 . S
C1690 C1689 1.415 . S
C1691 H1667 0.951 . S
C1691 C1692 1.366 . S
C1691 C1693 1.388 . S
C1692 C1691 1.366 . S
C1692 C1696 1.385 . S
C1693 H1668 0.951 . S
C1693 C1691 1.388 . S
C1693 C1694 1.366 . S
C1694 C1693 1.366 . S
C1694 C1695 1.414 . S
C1694 C1697 1.499 . S
C1695 H1669 0.950 . S
C1695 C1694 1.414 . S
C1695 C1696 1.374 . S
C1696 H1670 0.950 . S
C1696 C1692 1.385 . S
C1696 C1695 1.374 . S
C1697 C1694 1.499 . S
C1697 C1698 1.373 . S
C1697 C1699 1.389 . S
C1698 H1671 0.950 . S
C1698 C1684 1.377 . S
C1698 C1697 1.373 . S
C1699 C1683 1.377 . S
C1699 C1697 1.389 . S
C1699 C1700 1.524 . S
C1700 C1699 1.524 . S
C1700 C1701 1.397 . S
C1700 C1705 1.363 . S
C1701 H1672 0.950 . S
C1701 C1700 1.397 . S
C1701 C1702 1.334 . S
C1702 H1673 0.950 . S
C1702 C1701 1.334 . S
C1702 C1703 1.287 . S
C1703 C1702 1.287 . S
C1703 C1704 1.524 . S
C1703 H1706 0.999 1_455 S
C1704 H1674 0.950 . S
C1704 C1703 1.524 . S
C1704 C1705 1.415 . S
C1705 H1675 0.950 . S
C1705 C1700 1.363 . S
C1705 C1704 1.415 . S
H1706 C1703 0.999 1_655 S
H1707 C1688 0.913 . S
H1708 C1726 0.951 . S
H1709 C1728 0.951 . S
H1710 C1730 0.950 . S
H1711 C1731 0.950 . S
H1712 C1733 0.950 . S
H1713 C1736 0.950 . S
H1714 C1737 0.950 . S
H1715 C1739 0.950 . S
H1716 C1740 0.950 . S
H1717 C1741 0.951 . S
H1718 C1743 0.951 . S
H1719 C1745 0.950 . S
H1720 C1746 0.950 . S
H1721 C1748 0.950 . S
H1722 C1751 0.950 . S
H1723 C1752 0.950 . S
H1724 C1754 0.950 . S
H1725 C1755 0.950 . S
C1726 H1708 0.951 . S
C1726 C1727 1.366 . S
C1726 C1728 1.388 . S
C1727 C1726 1.366 . S
C1727 C1731 1.385 . S
C1728 H1709 0.951 . S
C1728 C1726 1.388 . S
C1728 C1729 1.366 . S
C1729 C1728 1.366 . S
C1729 C1730 1.414 . S
C1729 C1732 1.499 . S
C1730 H1710 0.950 . S
C1730 C1729 1.414 . S
C1730 C1731 1.374 . S
C1731 H1711 0.950 . S
C1731 C1727 1.385 . S
C1731 C1730 1.374 . S
C1732 C1729 1.499 . S
C1732 C1733 1.373 . S
C1732 C1734 1.389 . S
C1733 H1712 0.950 . S
C1733 C1732 1.373 . S
C1733 C1749 1.377 . S
C1734 C1732 1.389 . S
C1734 C1735 1.524 . S
C1734 C1748 1.377 . S
C1735 C1734 1.524 . S
C1735 C1736 1.397 . S
C1735 C1740 1.363 . S
C1736 H1713 0.950 . S
C1736 C1735 1.397 . S
C1736 C1737 1.334 . S
C1737 H1714 0.950 . S
C1737 C1736 1.334 . S
C1737 C1738 1.287 . S
C1738 C1737 1.287 . S
C1738 C1739 1.524 . S
C1738 H1757 0.913 . S
C1739 H1715 0.950 . S
C1739 C1738 1.524 . S
C1739 C1740 1.415 . S
C1740 H1716 0.950 . S
C1740 C1735 1.363 . S
C1740 C1739 1.415 . S
C1741 H1717 0.951 . S
C1741 C1742 1.366 . S
C1741 C1743 1.388 . S
C1742 C1741 1.366 . S
C1742 C1746 1.385 . S
C1743 H1718 0.951 . S
C1743 C1741 1.388 . S
C1743 C1744 1.366 . S
C1744 C1743 1.366 . S
C1744 C1745 1.414 . S
C1744 C1747 1.499 . S
C1745 H1719 0.950 . S
C1745 C1744 1.414 . S
C1745 C1746 1.374 . S
C1746 H1720 0.950 . S
C1746 C1742 1.385 . S
C1746 C1745 1.374 . S
C1747 C1744 1.499 . S
C1747 C1748 1.373 . S
C1747 C1749 1.389 . S
C1748 H1721 0.950 . S
C1748 C1734 1.377 . S
C1748 C1747 1.373 . S
C1749 C1733 1.377 . S
C1749 C1747 1.389 . S
C1749 C1750 1.524 . S
C1750 C1749 1.524 . S
C1750 C1751 1.397 . S
C1750 C1755 1.363 . S
C1751 H1722 0.950 . S
C1751 C1750 1.397 . S
C1751 C1752 1.334 . S
C1752 H1723 0.950 . S
C1752 C1751 1.334 . S
C1752 C1753 1.287 . S
C1753 C1752 1.287 . S
C1753 C1754 1.524 . S
C1753 H1756 0.999 . S
C1754 H1724 0.950 . S
C1754 C1753 1.524 . S
C1754 C1755 1.415 . S
C1755 H1725 0.950 . S
C1755 C1750 1.363 . S
C1755 C1754 1.415 . S
H1756 C1753 0.999 . S
H1757 C1738 0.913 . S
H1758 C1776 0.951 . S
H1759 C1778 0.951 . S
H1760 C1780 0.950 . S
H1761 C1781 0.950 . S
H1762 C1783 0.950 . S
H1763 C1786 0.950 . S
H1764 C1787 0.950 . S
H1765 C1789 0.950 . S
H1766 C1790 0.950 . S
H1767 C1791 0.951 . S
H1768 C1793 0.951 . S
H1769 C1795 0.950 . S
H1770 C1796 0.950 . S
H1771 C1798 0.950 . S
H1772 C1801 0.950 . S
H1773 C1802 0.950 . S
H1774 C1804 0.950 . S
H1775 C1805 0.950 . S
C1776 H1758 0.951 . S
C1776 C1777 1.366 . S
C1776 C1778 1.388 . S
C1777 C1776 1.366 . S
C1777 C1781 1.385 . S
C1778 H1759 0.951 . S
C1778 C1776 1.388 . S
C1778 C1779 1.366 . S
C1779 C1778 1.366 . S
C1779 C1780 1.414 . S
C1779 C1782 1.499 . S
C1780 H1760 0.950 . S
C1780 C1779 1.414 . S
C1780 C1781 1.374 . S
C1781 H1761 0.950 . S
C1781 C1777 1.385 . S
C1781 C1780 1.374 . S
C1782 C1779 1.499 . S
C1782 C1783 1.373 . S
C1782 C1784 1.389 . S
C1783 H1762 0.950 . S
C1783 C1782 1.373 . S
C1783 C1799 1.377 . S
C1784 C1782 1.389 . S
C1784 C1785 1.524 . S
C1784 C1798 1.377 . S
C1785 C1784 1.524 . S
C1785 C1786 1.397 . S
C1785 C1790 1.363 . S
C1786 H1763 0.950 . S
C1786 C1785 1.397 . S
C1786 C1787 1.334 . S
C1787 H1764 0.950 . S
C1787 C1786 1.334 . S
C1787 C1788 1.287 . S
C1788 C1787 1.287 . S
C1788 C1789 1.524 . S
C1788 H1807 0.913 . S
C1789 H1765 0.950 . S
C1789 C1788 1.524 . S
C1789 C1790 1.415 . S
C1790 H1766 0.950 . S
C1790 C1785 1.363 . S
C1790 C1789 1.415 . S
C1791 H1767 0.951 . S
C1791 C1792 1.366 . S
C1791 C1793 1.388 . S
C1792 C1791 1.366 . S
C1792 C1796 1.385 . S
C1793 H1768 0.951 . S
C1793 C1791 1.388 . S
C1793 C1794 1.366 . S
C1794 C1793 1.366 . S
C1794 C1795 1.414 . S
C1794 C1797 1.499 . S
C1795 H1769 0.950 . S
C1795 C1794 1.414 . S
C1795 C1796 1.374 . S
C1796 H1770 0.950 . S
C1796 C1792 1.385 . S
C1796 C1795 1.374 . S
C1797 C1794 1.499 . S
C1797 C1798 1.373 . S
C1797 C1799 1.389 . S
C1798 H1771 0.950 . S
C1798 C1784 1.377 . S
C1798 C1797 1.373 . S
C1799 C1783 1.377 . S
C1799 C1797 1.389 . S
C1799 C1800 1.524 . S
C1800 C1799 1.524 . S
C1800 C1801 1.397 . S
C1800 C1805 1.363 . S
C1801 H1772 0.950 . S
C1801 C1800 1.397 . S
C1801 C1802 1.334 . S
C1802 H1773 0.950 . S
C1802 C1801 1.334 . S
C1802 C1803 1.287 . S
C1803 C1802 1.287 . S
C1803 C1804 1.524 . S
C1803 H1806 0.999 . S
C1804 H1774 0.950 . S
C1804 C1803 1.524 . S
C1804 C1805 1.415 . S
C1805 H1775 0.950 . S
C1805 C1800 1.363 . S
C1805 C1804 1.415 . S
H1806 C1803 0.999 . S
H1807 C1788 0.913 . S
H1808 C1826 0.951 . S
H1809 C1828 0.951 . S
H1810 C1830 0.950 . S
H1811 C1831 0.950 . S
H1812 C1833 0.950 . S
H1813 C1836 0.950 . S
H1814 C1837 0.950 . S
H1815 C1839 0.950 . S
H1816 C1840 0.950 . S
H1817 C1841 0.951 . S
H1818 C1843 0.951 . S
H1819 C1845 0.950 . S
H1820 C1846 0.950 . S
H1821 C1848 0.950 . S
H1822 C1851 0.950 . S
H1823 C1852 0.950 . S
H1824 C1854 0.950 . S
H1825 C1855 0.950 . S
C1826 H1808 0.951 . S
C1826 C1827 1.366 . S
C1826 C1828 1.388 . S
C1827 C1826 1.366 . S
C1827 C1831 1.385 . S
C1828 H1809 0.951 . S
C1828 C1826 1.388 . S
C1828 C1829 1.366 . S
C1829 C1828 1.366 . S
C1829 C1830 1.414 . S
C1829 C1832 1.499 . S
C1830 H1810 0.950 . S
C1830 C1829 1.414 . S
C1830 C1831 1.374 . S
C1831 H1811 0.950 . S
C1831 C1827 1.385 . S
C1831 C1830 1.374 . S
C1832 C1829 1.499 . S
C1832 C1833 1.373 . S
C1832 C1834 1.389 . S
C1833 H1812 0.950 . S
C1833 C1832 1.373 . S
C1833 C1849 1.377 . S
C1834 C1832 1.389 . S
C1834 C1835 1.524 . S
C1834 C1848 1.377 . S
C1835 C1834 1.524 . S
C1835 C1836 1.397 . S
C1835 C1840 1.363 . S
C1836 H1813 0.950 . S
C1836 C1835 1.397 . S
C1836 C1837 1.334 . S
C1837 H1814 0.950 . S
C1837 C1836 1.334 . S
C1837 C1838 1.287 . S
C1838 C1837 1.287 . S
C1838 C1839 1.524 . S
C1838 H1857 0.913 . S
C1839 H1815 0.950 . S
C1839 C1838 1.524 . S
C1839 C1840 1.415 . S
C1840 H1816 0.950 . S
C1840 C1835 1.363 . S
C1840 C1839 1.415 . S
C1841 H1817 0.951 . S
C1841 C1842 1.366 . S
C1841 C1843 1.388 . S
C1842 C1841 1.366 . S
C1842 C1846 1.385 . S
C1843 H1818 0.951 . S
C1843 C1841 1.388 . S
C1843 C1844 1.366 . S
C1844 C1843 1.366 . S
C1844 C1845 1.414 . S
C1844 C1847 1.499 . S
C1845 H1819 0.950 . S
C1845 C1844 1.414 . S
C1845 C1846 1.374 . S
C1846 H1820 0.950 . S
C1846 C1842 1.385 . S
C1846 C1845 1.374 . S
C1847 C1844 1.499 . S
C1847 C1848 1.373 . S
C1847 C1849 1.389 . S
C1848 H1821 0.950 . S
C1848 C1834 1.377 . S
C1848 C1847 1.373 . S
C1849 C1833 1.377 . S
C1849 C1847 1.389 . S
C1849 C1850 1.524 . S
C1850 C1849 1.524 . S
C1850 C1851 1.397 . S
C1850 C1855 1.363 . S
C1851 H1822 0.950 . S
C1851 C1850 1.397 . S
C1851 C1852 1.334 . S
C1852 H1823 0.950 . S
C1852 C1851 1.334 . S
C1852 C1853 1.287 . S
C1853 C1852 1.287 . S
C1853 C1854 1.524 . S
C1853 H1856 0.999 . S
C1854 H1824 0.950 . S
C1854 C1853 1.524 . S
C1854 C1855 1.415 . S
C1855 H1825 0.950 . S
C1855 C1850 1.363 . S
C1855 C1854 1.415 . S
H1856 C1853 0.999 . S
H1857 C1838 0.913 . S
H1858 C1876 0.951 . S
H1859 C1878 0.951 . S
H1860 C1880 0.950 . S
H1861 C1881 0.950 . S
H1862 C1883 0.950 . S
H1863 C1886 0.950 . S
H1864 C1887 0.950 . S
H1865 C1889 0.950 . S
H1866 C1890 0.950 . S
H1867 C1891 0.951 . S
H1868 C1893 0.951 . S
H1869 C1895 0.950 . S
H1870 C1896 0.950 . S
H1871 C1898 0.950 . S
H1872 C1901 0.950 . S
H1873 C1902 0.950 . S
H1874 C1904 0.950 . S
H1875 C1905 0.950 . S
C1876 H1858 0.951 . S
C1876 C1877 1.366 . S
C1876 C1878 1.388 . S
C1877 C1876 1.366 . S
C1877 C1881 1.385 . S
C1878 H1859 0.951 . S
C1878 C1876 1.388 . S
C1878 C1879 1.366 . S
C1879 C1878 1.366 . S
C1879 C1880 1.414 . S
C1879 C1882 1.499 . S
C1880 H1860 0.950 . S
C1880 C1879 1.414 . S
C1880 C1881 1.374 . S
C1881 H1861 0.950 . S
C1881 C1877 1.385 . S
C1881 C1880 1.374 . S
C1882 C1879 1.499 . S
C1882 C1883 1.373 . S
C1882 C1884 1.389 . S
C1883 H1862 0.950 . S
C1883 C1882 1.373 . S
C1883 C1899 1.377 . S
C1884 C1882 1.389 . S
C1884 C1885 1.524 . S
C1884 C1898 1.377 . S
C1885 C1884 1.524 . S
C1885 C1886 1.397 . S
C1885 C1890 1.363 . S
C1886 H1863 0.950 . S
C1886 C1885 1.397 . S
C1886 C1887 1.334 . S
C1887 H1864 0.950 . S
C1887 C1886 1.334 . S
C1887 C1888 1.287 . S
C1888 C1887 1.287 . S
C1888 C1889 1.524 . S
C1888 H1907 0.913 . S
C1889 H1865 0.950 . S
C1889 C1888 1.524 . S
C1889 C1890 1.415 . S
C1890 H1866 0.950 . S
C1890 C1885 1.363 . S
C1890 C1889 1.415 . S
C1891 H1867 0.951 . S
C1891 C1892 1.366 . S
C1891 C1893 1.388 . S
C1892 C1891 1.366 . S
C1892 C1896 1.385 . S
C1893 H1868 0.951 . S
C1893 C1891 1.388 . S
C1893 C1894 1.366 . S
C1894 C1893 1.366 . S
C1894 C1895 1.414 . S
C1894 C1897 1.499 . S
C1895 H1869 0.950 . S
C1895 C1894 1.414 . S
C1895 C1896 1.374 . S
C1896 H1870 0.950 . S
C1896 C1892 1.385 . S
C1896 C1895 1.374 . S
C1897 C1894 1.499 . S
C1897 C1898 1.373 . S
C1897 C1899 1.389 . S
C1898 H1871 0.950 . S
C1898 C1884 1.377 . S
C1898 C1897 1.373 . S
C1899 C1883 1.377 . S
C1899 C1897 1.389 . S
C1899 C1900 1.524 . S
C1900 C1899 1.524 . S
C1900 C1901 1.397 . S
C1900 C1905 1.363 . S
C1901 H1872 0.950 . S
C1901 C1900 1.397 . S
C1901 C1902 1.334 . S
C1902 H1873 0.950 . S
C1902 C1901 1.334 . S
C1902 C1903 1.287 . S
C1903 C1902 1.287 . S
C1903 C1904 1.524 . S
C1903 H1906 0.999 . S
C1904 H1874 0.950 . S
C1904 C1903 1.524 . S
C1904 C1905 1.415 . S
C1905 H1875 0.950 . S
C1905 C1900 1.363 . S
C1905 C1904 1.415 . S
H1906 C1903 0.999 . S
H1907 C1888 0.913 . S
H1908 C1926 0.951 . S
H1909 C1928 0.951 . S
H1910 C1930 0.950 . S
H1911 C1931 0.950 . S
H1912 C1933 0.950 . S
H1913 C1936 0.950 . S
H1914 C1937 0.950 . S
H1915 C1939 0.950 . S
H1916 C1940 0.950 . S
H1917 C1941 0.951 . S
H1918 C1943 0.951 . S
H1919 C1945 0.950 . S
H1920 C1946 0.950 . S
H1921 C1948 0.950 . S
H1922 C1951 0.950 . S
H1923 C1952 0.950 . S
H1924 C1954 0.950 . S
H1925 C1955 0.950 . S
C1926 H1908 0.951 . S
C1926 C1927 1.366 . S
C1926 C1928 1.388 . S
C1927 C1926 1.366 . S
C1927 C1931 1.385 . S
C1928 H1909 0.951 . S
C1928 C1926 1.388 . S
C1928 C1929 1.366 . S
C1929 C1928 1.366 . S
C1929 C1930 1.414 . S
C1929 C1932 1.499 . S
C1930 H1910 0.950 . S
C1930 C1929 1.414 . S
C1930 C1931 1.374 . S
C1931 H1911 0.950 . S
C1931 C1927 1.385 . S
C1931 C1930 1.374 . S
C1932 C1929 1.499 . S
C1932 C1933 1.373 . S
C1932 C1934 1.389 . S
C1933 H1912 0.950 . S
C1933 C1932 1.373 . S
C1933 C1949 1.377 . S
C1934 C1932 1.389 . S
C1934 C1935 1.524 . S
C1934 C1948 1.377 . S
C1935 C1934 1.524 . S
C1935 C1936 1.397 . S
C1935 C1940 1.363 . S
C1936 H1913 0.950 . S
C1936 C1935 1.397 . S
C1936 C1937 1.334 . S
C1937 H1914 0.950 . S
C1937 C1936 1.334 . S
C1937 C1938 1.287 . S
C1938 C1937 1.287 . S
C1938 C1939 1.524 . S
C1938 H1957 0.913 . S
C1939 H1915 0.950 . S
C1939 C1938 1.524 . S
C1939 C1940 1.415 . S
C1940 H1916 0.950 . S
C1940 C1935 1.363 . S
C1940 C1939 1.415 . S
C1941 H1917 0.951 . S
C1941 C1942 1.366 . S
C1941 C1943 1.388 . S
C1942 C1941 1.366 . S
C1942 C1946 1.385 . S
C1943 H1918 0.951 . S
C1943 C1941 1.388 . S
C1943 C1944 1.366 . S
C1944 C1943 1.366 . S
C1944 C1945 1.414 . S
C1944 C1947 1.499 . S
C1945 H1919 0.950 . S
C1945 C1944 1.414 . S
C1945 C1946 1.374 . S
C1946 H1920 0.950 . S
C1946 C1942 1.385 . S
C1946 C1945 1.374 . S
C1947 C1944 1.499 . S
C1947 C1948 1.373 . S
C1947 C1949 1.389 . S
C1948 H1921 0.950 . S
C1948 C1934 1.377 . S
C1948 C1947 1.373 . S
C1949 C1933 1.377 . S
C1949 C1947 1.389 . S
C1949 C1950 1.524 . S
C1950 C1949 1.524 . S
C1950 C1951 1.397 . S
C1950 C1955 1.363 . S
C1951 H1922 0.950 . S
C1951 C1950 1.397 . S
C1951 C1952 1.334 . S
C1952 H1923 0.950 . S
C1952 C1951 1.334 . S
C1952 C1953 1.287 . S
C1953 C1952 1.287 . S
C1953 C1954 1.524 . S
C1953 H1956 0.999 . S
C1954 H1924 0.950 . S
C1954 C1953 1.524 . S
C1954 C1955 1.415 . S
C1955 H1925 0.950 . S
C1955 C1950 1.363 . S
C1955 C1954 1.415 . S
H1956 C1953 0.999 . S
H1957 C1938 0.913 . S
H1958 C1976 0.951 . S
H1959 C1978 0.951 . S
H1960 C1980 0.950 . S
H1961 C1981 0.950 . S
H1962 C1983 0.950 . S
H1963 C1986 0.950 . S
H1964 C1987 0.950 . S
H1965 C1989 0.950 . S
H1966 C1990 0.950 . S
H1967 C1991 0.951 . S
H1968 C1993 0.951 . S
H1969 C1995 0.950 . S
H1970 C1996 0.950 . S
H1971 C1998 0.950 . S
H1972 C2001 0.950 . S
H1973 C2002 0.950 . S
H1974 C2004 0.950 . S
H1975 C2005 0.950 . S
C1976 H1958 0.951 . S
C1976 C1977 1.366 . S
C1976 C1978 1.388 . S
C1977 C1976 1.366 . S
C1977 C1981 1.385 . S
C1978 H1959 0.951 . S
C1978 C1976 1.388 . S
C1978 C1979 1.366 . S
C1979 C1978 1.366 . S
C1979 C1980 1.414 . S
C1979 C1982 1.499 . S
C1980 H1960 0.950 . S
C1980 C1979 1.414 . S
C1980 C1981 1.374 . S
C1981 H1961 0.950 . S
C1981 C1977 1.385 . S
C1981 C1980 1.374 . S
C1982 C1979 1.499 . S
C1982 C1983 1.373 . S
C1982 C1984 1.389 . S
C1983 H1962 0.950 . S
C1983 C1982 1.373 . S
C1983 C1999 1.377 . S
C1984 C1982 1.389 . S
C1984 C1985 1.524 . S
C1984 C1998 1.377 . S
C1985 C1984 1.524 . S
C1985 C1986 1.397 . S
C1985 C1990 1.363 . S
C1986 H1963 0.950 . S
C1986 C1985 1.397 . S
C1986 C1987 1.334 . S
C1987 H1964 0.950 . S
C1987 C1986 1.334 . S
C1987 C1988 1.287 . S
C1988 C1987 1.287 . S
C1988 C1989 1.524 . S
C1988 H2007 0.913 . S
C1989 H1965 0.950 . S
C1989 C1988 1.524 . S
C1989 C1990 1.415 . S
C1990 H1966 0.950 . S
C1990 C1985 1.363 . S
C1990 C1989 1.415 . S
C1991 H1967 0.951 . S
C1991 C1992 1.366 . S
C1991 C1993 1.388 . S
C1992 C1991 1.366 . S
C1992 C1996 1.385 . S
C1993 H1968 0.951 . S
C1993 C1991 1.388 . S
C1993 C1994 1.366 . S
C1994 C1993 1.366 . S
C1994 C1995 1.414 . S
C1994 C1997 1.499 . S
C1995 H1969 0.950 . S
C1995 C1994 1.414 . S
C1995 C1996 1.374 . S
C1996 H1970 0.950 . S
C1996 C1992 1.385 . S
C1996 C1995 1.374 . S
C1997 C1994 1.499 . S
C1997 C1998 1.373 . S
C1997 C1999 1.389 . S
C1998 H1971 0.950 . S
C1998 C1984 1.377 . S
C1998 C1997 1.373 . S
C1999 C1983 1.377 . S
C1999 C1997 1.389 . S
C1999 C2000 1.524 . S
C2000 C1999 1.524 . S
C2000 C2001 1.397 . S
C2000 C2005 1.363 . S
C2001 H1972 0.950 . S
C2001 C2000 1.397 . S
C2001 C2002 1.334 . S
C2002 H1973 0.950 . S
C2002 C2001 1.334 . S
C2002 C2003 1.287 . S
C2003 C2002 1.287 . S
C2003 C2004 1.524 . S
C2003 H2006 0.999 . S
C2004 H1974 0.950 . S
C2004 C2003 1.524 . S
C2004 C2005 1.415 . S
C2005 H1975 0.950 . S
C2005 C2000 1.363 . S
C2005 C2004 1.415 . S
H2006 C2003 0.999 . S
H2007 C1988 0.913 . S
H2008 C2026 0.951 . S
H2009 C2028 0.951 . S
H2010 C2030 0.950 . S
H2011 C2031 0.950 . S
H2012 C2033 0.950 . S
H2013 C2036 0.950 . S
H2014 C2037 0.950 . S
H2015 C2039 0.950 . S
H2016 C2040 0.950 . S
H2017 C2041 0.951 . S
H2018 C2043 0.951 . S
H2019 C2045 0.950 . S
H2020 C2046 0.950 . S
H2021 C2048 0.950 . S
H2022 C2051 0.950 . S
H2023 C2052 0.950 . S
H2024 C2054 0.950 . S
H2025 C2055 0.950 . S
C2026 H2008 0.951 . S
C2026 C2027 1.366 . S
C2026 C2028 1.388 . S
C2027 C2026 1.366 . S
C2027 C2031 1.385 . S
C2028 H2009 0.951 . S
C2028 C2026 1.388 . S
C2028 C2029 1.366 . S
C2029 C2028 1.366 . S
C2029 C2030 1.414 . S
C2029 C2032 1.499 . S
C2030 H2010 0.950 . S
C2030 C2029 1.414 . S
C2030 C2031 1.374 . S
C2031 H2011 0.950 . S
C2031 C2027 1.385 . S
C2031 C2030 1.374 . S
C2032 C2029 1.499 . S
C2032 C2033 1.373 . S
C2032 C2034 1.389 . S
C2033 H2012 0.950 . S
C2033 C2032 1.373 . S
C2033 C2049 1.377 . S
C2034 C2032 1.389 . S
C2034 C2035 1.524 . S
C2034 C2048 1.377 . S
C2035 C2034 1.524 . S
C2035 C2036 1.397 . S
C2035 C2040 1.363 . S
C2036 H2013 0.950 . S
C2036 C2035 1.397 . S
C2036 C2037 1.334 . S
C2037 H2014 0.950 . S
C2037 C2036 1.334 . S
C2037 C2038 1.287 . S
C2038 C2037 1.287 . S
C2038 C2039 1.524 . S
C2038 H2057 0.913 . S
C2039 H2015 0.950 . S
C2039 C2038 1.524 . S
C2039 C2040 1.415 . S
C2040 H2016 0.950 . S
C2040 C2035 1.363 . S
C2040 C2039 1.415 . S
C2041 H2017 0.951 . S
C2041 C2042 1.366 . S
C2041 C2043 1.388 . S
C2042 C2041 1.366 . S
C2042 C2046 1.385 . S
C2043 H2018 0.951 . S
C2043 C2041 1.388 . S
C2043 C2044 1.366 . S
C2044 C2043 1.366 . S
C2044 C2045 1.414 . S
C2044 C2047 1.499 . S
C2045 H2019 0.950 . S
C2045 C2044 1.414 . S
C2045 C2046 1.374 . S
C2046 H2020 0.950 . S
C2046 C2042 1.385 . S
C2046 C2045 1.374 . S
C2047 C2044 1.499 . S
C2047 C2048 1.373 . S
C2047 C2049 1.389 . S
C2048 H2021 0.950 . S
C2048 C2034 1.377 . S
C2048 C2047 1.373 . S
C2049 C2033 1.377 . S
C2049 C2047 1.389 . S
C2049 C2050 1.524 . S
C2050 C2049 1.524 . S
C2050 C2051 1.397 . S
C2050 C2055 1.363 . S
C2051 H2022 0.950 . S
C2051 C2050 1.397 . S
C2051 C2052 1.334 . S
C2052 H2023 0.950 . S
C2052 C2051 1.334 . S
C2052 C2053 1.287 . S
C2053 C2052 1.287 . S
C2053 C2054 1.524 . S
C2053 H2056 0.999 . S
C2054 H2024 0.950 . S
C2054 C2053 1.524 . S
C2054 C2055 1.415 . S
C2055 H2025 0.950 . S
C2055 C2050 1.363 . S
C2055 C2054 1.415 . S
H2056 C2053 0.999 . S
H2057 C2038 0.913 . S
H2058 C2076 0.951 . S
H2059 C2078 0.951 . S
H2060 C2080 0.950 . S
H2061 C2081 0.950 . S
H2062 C2083 0.950 . S
H2063 C2086 0.950 . S
H2064 C2087 0.950 . S
H2065 C2089 0.950 . S
H2066 C2090 0.950 . S
H2067 C2091 0.951 . S
H2068 C2093 0.951 . S
H2069 C2095 0.950 . S
H2070 C2096 0.950 . S
H2071 C2098 0.950 . S
H2072 C2101 0.950 . S
H2073 C2102 0.950 . S
H2074 C2104 0.950 . S
H2075 C2105 0.950 . S
C2076 H2058 0.951 . S
C2076 C2077 1.366 . S
C2076 C2078 1.388 . S
C2077 C2076 1.366 . S
C2077 C2081 1.385 . S
C2078 H2059 0.951 . S
C2078 C2076 1.388 . S
C2078 C2079 1.366 . S
C2079 C2078 1.366 . S
C2079 C2080 1.414 . S
C2079 C2082 1.499 . S
C2080 H2060 0.950 . S
C2080 C2079 1.414 . S
C2080 C2081 1.374 . S
C2081 H2061 0.950 . S
C2081 C2077 1.385 . S
C2081 C2080 1.374 . S
C2082 C2079 1.499 . S
C2082 C2083 1.373 . S
C2082 C2084 1.389 . S
C2083 H2062 0.950 . S
C2083 C2082 1.373 . S
C2083 C2099 1.377 . S
C2084 C2082 1.389 . S
C2084 C2085 1.524 . S
C2084 C2098 1.377 . S
C2085 C2084 1.524 . S
C2085 C2086 1.397 . S
C2085 C2090 1.363 . S
C2086 H2063 0.950 . S
C2086 C2085 1.397 . S
C2086 C2087 1.334 . S
C2087 H2064 0.950 . S
C2087 C2086 1.334 . S
C2087 C2088 1.287 . S
C2088 C2087 1.287 . S
C2088 C2089 1.524 . S
C2088 H2107 0.913 . S
C2089 H2065 0.950 . S
C2089 C2088 1.524 . S
C2089 C2090 1.415 . S
C2090 H2066 0.950 . S
C2090 C2085 1.363 . S
C2090 C2089 1.415 . S
C2091 H2067 0.951 . S
C2091 C2092 1.366 . S
C2091 C2093 1.388 . S
C2092 C2091 1.366 . S
C2092 C2096 1.385 . S
C2093 H2068 0.951 . S
C2093 C2091 1.388 . S
C2093 C2094 1.366 . S
C2094 C2093 1.366 . S
C2094 C2095 1.414 . S
C2094 C2097 1.499 . S
C2095 H2069 0.950 . S
C2095 C2094 1.414 . S
C2095 C2096 1.374 . S
C2096 H2070 0.950 . S
C2096 C2092 1.385 . S
C2096 C2095 1.374 . S
C2097 C2094 1.499 . S
C2097 C2098 1.373 . S
C2097 C2099 1.389 . S
C2098 H2071 0.950 . S
C2098 C2084 1.377 . S
C2098 C2097 1.373 . S
C2099 C2083 1.377 . S
C2099 C2097 1.389 . S
C2099 C2100 1.524 . S
C2100 C2099 1.524 . S
C2100 C2101 1.397 . S
C2100 C2105 1.363 . S
C2101 H2072 0.950 . S
C2101 C2100 1.397 . S
C2101 C2102 1.334 . S
C2102 H2073 0.950 . S
C2102 C2101 1.334 . S
C2102 C2103 1.287 . S
C2103 C2102 1.287 . S
C2103 C2104 1.524 . S
C2103 H2106 0.999 . S
C2104 H2074 0.950 . S
C2104 C2103 1.524 . S
C2104 C2105 1.415 . S
C2105 H2075 0.950 . S
C2105 C2100 1.363 . S
C2105 C2104 1.415 . S
H2106 C2103 0.999 . S
H2107 C2088 0.913 . S
H2108 C2126 0.951 . S
H2109 C2128 0.951 . S
H2110 C2130 0.950 . S
H2111 C2131 0.950 . S
H2112 C2133 0.950 . S
H2113 C2136 0.950 . S
H2114 C2137 0.950 . S
H2115 C2139 0.950 . S
H2116 C2140 0.950 . S
H2117 C2141 0.951 . S
H2118 C2143 0.951 . S
H2119 C2145 0.950 . S
H2120 C2146 0.950 . S
H2121 C2148 0.950 . S
H2122 C2151 0.950 . S
H2123 C2152 0.950 1_554 S
H2124 C2154 0.950 . S
H2125 C2155 0.950 . S
C2126 H2108 0.951 . S
C2126 C2127 1.366 . S
C2126 C2128 1.388 . S
C2127 C2126 1.366 . S
C2127 C2131 1.385 . S
C2128 H2109 0.951 . S
C2128 C2126 1.388 . S
C2128 C2129 1.366 . S
C2129 C2128 1.366 . S
C2129 C2130 1.414 . S
C2129 C2132 1.499 . S
C2130 H2110 0.950 . S
C2130 C2129 1.414 . S
C2130 C2131 1.374 . S
C2131 H2111 0.950 . S
C2131 C2127 1.385 . S
C2131 C2130 1.374 . S
C2132 C2129 1.499 . S
C2132 C2133 1.373 . S
C2132 C2134 1.389 . S
C2133 H2112 0.950 . S
C2133 C2132 1.373 . S
C2133 C2149 1.377 . S
C2134 C2132 1.389 . S
C2134 C2135 1.524 . S
C2134 C2148 1.377 . S
C2135 C2134 1.524 . S
C2135 C2136 1.397 . S
C2135 C2140 1.363 . S
C2136 H2113 0.950 . S
C2136 C2135 1.397 . S
C2136 C2137 1.334 . S
C2137 H2114 0.950 . S
C2137 C2136 1.334 . S
C2137 C2138 1.287 . S
C2138 C2137 1.287 . S
C2138 C2139 1.524 . S
C2138 H2157 0.913 . S
C2139 H2115 0.950 . S
C2139 C2138 1.524 . S
C2139 C2140 1.415 . S
C2140 H2116 0.950 . S
C2140 C2135 1.363 . S
C2140 C2139 1.415 . S
C2141 H2117 0.951 . S
C2141 C2142 1.366 . S
C2141 C2143 1.388 . S
C2142 C2141 1.366 . S
C2142 C2146 1.385 . S
C2143 H2118 0.951 . S
C2143 C2141 1.388 . S
C2143 C2144 1.366 . S
C2144 C2143 1.366 . S
C2144 C2145 1.414 . S
C2144 C2147 1.499 . S
C2145 H2119 0.950 . S
C2145 C2144 1.414 . S
C2145 C2146 1.374 . S
C2146 H2120 0.950 . S
C2146 C2142 1.385 . S
C2146 C2145 1.374 . S
C2147 C2144 1.499 . S
C2147 C2148 1.373 . S
C2147 C2149 1.389 . S
C2148 H2121 0.950 . S
C2148 C2134 1.377 . S
C2148 C2147 1.373 . S
C2149 C2133 1.377 . S
C2149 C2147 1.389 . S
C2149 C2150 1.524 . S
C2150 C2149 1.524 . S
C2150 C2151 1.397 . S
C2150 C2155 1.363 . S
C2151 H2122 0.950 . S
C2151 C2150 1.397 . S
C2151 C2152 1.334 . S
C2152 H2123 0.950 1_556 S
C2152 C2151 1.334 . S
C2152 C2153 1.287 . S
C2153 C2152 1.287 . S
C2153 C2154 1.524 . S
C2153 H2156 0.999 1_556 S
C2154 H2124 0.950 . S
C2154 C2153 1.524 . S
C2154 C2155 1.415 . S
C2155 H2125 0.950 . S
C2155 C2150 1.363 . S
C2155 C2154 1.415 . S
H2156 C2153 0.999 1_554 S
H2157 C2138 0.913 . S
H2158 C2176 0.951 . S
H2159 C2178 0.951 . S
H2160 C2180 0.950 . S
H2161 C2181 0.950 . S
H2162 C2183 0.950 . S
H2163 C2186 0.950 . S
H2164 C2187 0.950 . S
H2165 C2189 0.950 . S
H2166 C2190 0.950 . S
H2167 C2191 0.951 . S
H2168 C2193 0.951 . S
H2169 C2195 0.950 . S
H2170 C2196 0.950 . S
H2171 C2198 0.950 . S
H2172 C2201 0.950 . S
H2173 C2202 0.950 . S
H2174 C2204 0.950 . S
H2175 C2205 0.950 . S
C2176 H2158 0.951 . S
C2176 C2177 1.366 . S
C2176 C2178 1.388 . S
C2177 C2176 1.366 . S
C2177 C2181 1.385 . S
C2178 H2159 0.951 . S
C2178 C2176 1.388 . S
C2178 C2179 1.366 . S
C2179 C2178 1.366 . S
C2179 C2180 1.414 . S
C2179 C2182 1.499 . S
C2180 H2160 0.950 . S
C2180 C2179 1.414 . S
C2180 C2181 1.374 . S
C2181 H2161 0.950 . S
C2181 C2177 1.385 . S
C2181 C2180 1.374 . S
C2182 C2179 1.499 . S
C2182 C2183 1.373 . S
C2182 C2184 1.389 . S
C2183 H2162 0.950 . S
C2183 C2182 1.373 . S
C2183 C2199 1.377 . S
C2184 C2182 1.389 . S
C2184 C2185 1.524 . S
C2184 C2198 1.377 . S
C2185 C2184 1.524 . S
C2185 C2186 1.397 . S
C2185 C2190 1.363 . S
C2186 H2163 0.950 . S
C2186 C2185 1.397 . S
C2186 C2187 1.334 . S
C2187 H2164 0.950 . S
C2187 C2186 1.334 . S
C2187 C2188 1.287 . S
C2188 C2187 1.287 . S
C2188 C2189 1.524 . S
C2188 H2207 0.913 . S
C2189 H2165 0.950 . S
C2189 C2188 1.524 . S
C2189 C2190 1.415 . S
C2190 H2166 0.950 . S
C2190 C2185 1.363 . S
C2190 C2189 1.415 . S
C2191 H2167 0.951 . S
C2191 C2192 1.366 . S
C2191 C2193 1.388 . S
C2192 C2191 1.366 . S
C2192 C2196 1.385 . S
C2193 H2168 0.951 . S
C2193 C2191 1.388 . S
C2193 C2194 1.366 . S
C2194 C2193 1.366 . S
C2194 C2195 1.414 . S
C2194 C2197 1.499 . S
C2195 H2169 0.950 . S
C2195 C2194 1.414 . S
C2195 C2196 1.374 . S
C2196 H2170 0.950 . S
C2196 C2192 1.385 . S
C2196 C2195 1.374 . S
C2197 C2194 1.499 . S
C2197 C2198 1.373 . S
C2197 C2199 1.389 . S
C2198 H2171 0.950 . S
C2198 C2184 1.377 . S
C2198 C2197 1.373 . S
C2199 C2183 1.377 . S
C2199 C2197 1.389 . S
C2199 C2200 1.524 . S
C2200 C2199 1.524 . S
C2200 C2201 1.397 . S
C2200 C2205 1.363 . S
C2201 H2172 0.950 . S
C2201 C2200 1.397 . S
C2201 C2202 1.334 . S
C2202 H2173 0.950 . S
C2202 C2201 1.334 . S
C2202 C2203 1.287 . S
C2203 C2202 1.287 . S
C2203 C2204 1.524 . S
C2203 H2206 0.999 . S
C2204 H2174 0.950 . S
C2204 C2203 1.524 . S
C2204 C2205 1.415 . S
C2205 H2175 0.950 . S
C2205 C2200 1.363 . S
C2205 C2204 1.415 . S
H2206 C2203 0.999 . S
H2207 C2188 0.913 . S
H2208 C2226 0.951 . S
H2209 C2228 0.951 . S
H2210 C2230 0.950 . S
H2211 C2231 0.950 . S
H2212 C2233 0.950 . S
H2213 C2236 0.950 . S
H2214 C2237 0.950 . S
H2215 C2239 0.950 . S
H2216 C2240 0.950 . S
H2217 C2241 0.951 . S
H2218 C2243 0.951 . S
H2219 C2245 0.950 . S
H2220 C2246 0.950 . S
H2221 C2248 0.950 . S
H2222 C2251 0.950 . S
H2223 C2252 0.950 . S
H2224 C2254 0.950 . S
H2225 C2255 0.950 . S
C2226 H2208 0.951 . S
C2226 C2227 1.366 . S
C2226 C2228 1.388 . S
C2227 C2226 1.366 . S
C2227 C2231 1.385 . S
C2228 H2209 0.951 . S
C2228 C2226 1.388 . S
C2228 C2229 1.366 . S
C2229 C2228 1.366 . S
C2229 C2230 1.414 . S
C2229 C2232 1.499 . S
C2230 H2210 0.950 . S
C2230 C2229 1.414 . S
C2230 C2231 1.374 . S
C2231 H2211 0.950 . S
C2231 C2227 1.385 . S
C2231 C2230 1.374 . S
C2232 C2229 1.499 . S
C2232 C2233 1.373 . S
C2232 C2234 1.389 . S
C2233 H2212 0.950 . S
C2233 C2232 1.373 . S
C2233 C2249 1.377 . S
C2234 C2232 1.389 . S
C2234 C2235 1.524 . S
C2234 C2248 1.377 . S
C2235 C2234 1.524 . S
C2235 C2236 1.397 . S
C2235 C2240 1.363 . S
C2236 H2213 0.950 . S
C2236 C2235 1.397 . S
C2236 C2237 1.334 . S
C2237 H2214 0.950 . S
C2237 C2236 1.334 . S
C2237 C2238 1.287 . S
C2238 C2237 1.287 . S
C2238 C2239 1.524 . S
C2238 H2257 0.913 . S
C2239 H2215 0.950 . S
C2239 C2238 1.524 . S
C2239 C2240 1.415 . S
C2240 H2216 0.950 . S
C2240 C2235 1.363 . S
C2240 C2239 1.415 . S
C2241 H2217 0.951 . S
C2241 C2242 1.366 . S
C2241 C2243 1.388 . S
C2242 C2241 1.366 . S
C2242 C2246 1.385 . S
C2243 H2218 0.951 . S
C2243 C2241 1.388 . S
C2243 C2244 1.366 . S
C2244 C2243 1.366 . S
C2244 C2245 1.414 . S
C2244 C2247 1.499 . S
C2245 H2219 0.950 . S
C2245 C2244 1.414 . S
C2245 C2246 1.374 . S
C2246 H2220 0.950 . S
C2246 C2242 1.385 . S
C2246 C2245 1.374 . S
C2247 C2244 1.499 . S
C2247 C2248 1.373 . S
C2247 C2249 1.389 . S
C2248 H2221 0.950 . S
C2248 C2234 1.377 . S
C2248 C2247 1.373 . S
C2249 C2233 1.377 . S
C2249 C2247 1.389 . S
C2249 C2250 1.524 . S
C2250 C2249 1.524 . S
C2250 C2251 1.397 . S
C2250 C2255 1.363 . S
C2251 H2222 0.950 . S
C2251 C2250 1.397 . S
C2251 C2252 1.334 . S
C2252 H2223 0.950 . S
C2252 C2251 1.334 . S
C2252 C2253 1.287 . S
C2253 C2252 1.287 . S
C2253 C2254 1.524 . S
C2253 H2256 0.999 1_556 S
C2254 H2224 0.950 . S
C2254 C2253 1.524 . S
C2254 C2255 1.415 . S
C2255 H2225 0.950 . S
C2255 C2250 1.363 . S
C2255 C2254 1.415 . S
H2256 C2253 0.999 1_554 S
H2257 C2238 0.913 . S
H2258 C2276 0.951 . S
H2259 C2278 0.951 . S
H2260 C2280 0.950 . S
H2261 C2281 0.950 . S
H2262 C2283 0.950 . S
H2263 C2286 0.950 . S
H2264 C2287 0.950 . S
H2265 C2289 0.950 . S
H2266 C2290 0.950 . S
H2267 C2291 0.951 . S
H2268 C2293 0.951 . S
H2269 C2295 0.950 . S
H2270 C2296 0.950 . S
H2271 C2298 0.950 . S
H2272 C2301 0.950 . S
H2273 C2302 0.950 . S
H2274 C2304 0.950 . S
H2275 C2305 0.950 . S
C2276 H2258 0.951 . S
C2276 C2277 1.366 . S
C2276 C2278 1.388 . S
C2277 C2276 1.366 . S
C2277 C2281 1.385 . S
C2278 H2259 0.951 . S
C2278 C2276 1.388 . S
C2278 C2279 1.366 . S
C2279 C2278 1.366 . S
C2279 C2280 1.414 . S
C2279 C2282 1.499 . S
C2280 H2260 0.950 . S
C2280 C2279 1.414 . S
C2280 C2281 1.374 . S
C2281 H2261 0.950 . S
C2281 C2277 1.385 . S
C2281 C2280 1.374 . S
C2282 C2279 1.499 . S
C2282 C2283 1.373 . S
C2282 C2284 1.389 . S
C2283 H2262 0.950 . S
C2283 C2282 1.373 . S
C2283 C2299 1.377 . S
C2284 C2282 1.389 . S
C2284 C2285 1.524 . S
C2284 C2298 1.377 . S
C2285 C2284 1.524 . S
C2285 C2286 1.397 . S
C2285 C2290 1.363 . S
C2286 H2263 0.950 . S
C2286 C2285 1.397 . S
C2286 C2287 1.334 . S
C2287 H2264 0.950 . S
C2287 C2286 1.334 . S
C2287 C2288 1.287 . S
C2288 C2287 1.287 . S
C2288 C2289 1.524 . S
C2288 H2307 0.913 . S
C2289 H2265 0.950 . S
C2289 C2288 1.524 . S
C2289 C2290 1.415 . S
C2290 H2266 0.950 . S
C2290 C2285 1.363 . S
C2290 C2289 1.415 . S
C2291 H2267 0.951 . S
C2291 C2292 1.366 . S
C2291 C2293 1.388 . S
C2292 C2291 1.366 . S
C2292 C2296 1.385 . S
C2293 H2268 0.951 . S
C2293 C2291 1.388 . S
C2293 C2294 1.366 . S
C2294 C2293 1.366 . S
C2294 C2295 1.414 . S
C2294 C2297 1.499 . S
C2295 H2269 0.950 . S
C2295 C2294 1.414 . S
C2295 C2296 1.374 . S
C2296 H2270 0.950 . S
C2296 C2292 1.385 . S
C2296 C2295 1.374 . S
C2297 C2294 1.499 . S
C2297 C2298 1.373 . S
C2297 C2299 1.389 . S
C2298 H2271 0.950 . S
C2298 C2284 1.377 . S
C2298 C2297 1.373 . S
C2299 C2283 1.377 . S
C2299 C2297 1.389 . S
C2299 C2300 1.524 . S
C2300 C2299 1.524 . S
C2300 C2301 1.397 . S
C2300 C2305 1.363 . S
C2301 H2272 0.950 . S
C2301 C2300 1.397 . S
C2301 C2302 1.334 . S
C2302 H2273 0.950 . S
C2302 C2301 1.334 . S
C2302 C2303 1.287 . S
C2303 C2302 1.287 . S
C2303 C2304 1.524 . S
C2303 H2306 0.999 . S
C2304 H2274 0.950 . S
C2304 C2303 1.524 . S
C2304 C2305 1.415 . S
C2305 H2275 0.950 . S
C2305 C2300 1.363 . S
C2305 C2304 1.415 . S
H2306 C2303 0.999 . S
H2307 C2288 0.913 . S
H2308 C2326 0.951 . S
H2309 C2328 0.951 . S
H2310 C2330 0.950 . S
H2311 C2331 0.950 . S
H2312 C2333 0.950 . S
H2313 C2336 0.950 . S
H2314 C2337 0.950 . S
H2315 C2339 0.950 . S
H2316 C2340 0.950 . S
H2317 C2341 0.951 . S
H2318 C2343 0.951 . S
H2319 C2345 0.950 . S
H2320 C2346 0.950 . S
H2321 C2348 0.950 . S
H2322 C2351 0.950 . S
H2323 C2352 0.950 . S
H2324 C2354 0.950 . S
H2325 C2355 0.950 . S
C2326 H2308 0.951 . S
C2326 C2327 1.366 . S
C2326 C2328 1.388 . S
C2327 C2326 1.366 . S
C2327 C2331 1.385 . S
C2328 H2309 0.951 . S
C2328 C2326 1.388 . S
C2328 C2329 1.366 . S
C2329 C2328 1.366 . S
C2329 C2330 1.414 . S
C2329 C2332 1.499 . S
C2330 H2310 0.950 . S
C2330 C2329 1.414 . S
C2330 C2331 1.374 . S
C2331 H2311 0.950 . S
C2331 C2327 1.385 . S
C2331 C2330 1.374 . S
C2332 C2329 1.499 . S
C2332 C2333 1.373 . S
C2332 C2334 1.389 . S
C2333 H2312 0.950 . S
C2333 C2332 1.373 . S
C2333 C2349 1.377 . S
C2334 C2332 1.389 . S
C2334 C2335 1.524 . S
C2334 C2348 1.377 . S
C2335 C2334 1.524 . S
C2335 C2336 1.397 . S
C2335 C2340 1.363 . S
C2336 H2313 0.950 . S
C2336 C2335 1.397 . S
C2336 C2337 1.334 . S
C2337 H2314 0.950 . S
C2337 C2336 1.334 . S
C2337 C2338 1.287 . S
C2338 C2337 1.287 . S
C2338 C2339 1.524 . S
C2338 H2357 0.913 . S
C2339 H2315 0.950 . S
C2339 C2338 1.524 . S
C2339 C2340 1.415 . S
C2340 H2316 0.950 . S
C2340 C2335 1.363 . S
C2340 C2339 1.415 . S
C2341 H2317 0.951 . S
C2341 C2342 1.366 . S
C2341 C2343 1.388 . S
C2342 C2341 1.366 . S
C2342 C2346 1.385 . S
C2343 H2318 0.951 . S
C2343 C2341 1.388 . S
C2343 C2344 1.366 . S
C2344 C2343 1.366 . S
C2344 C2345 1.414 . S
C2344 C2347 1.499 . S
C2345 H2319 0.950 . S
C2345 C2344 1.414 . S
C2345 C2346 1.374 . S
C2346 H2320 0.950 . S
C2346 C2342 1.385 . S
C2346 C2345 1.374 . S
C2347 C2344 1.499 . S
C2347 C2348 1.373 . S
C2347 C2349 1.389 . S
C2348 H2321 0.950 . S
C2348 C2334 1.377 . S
C2348 C2347 1.373 . S
C2349 C2333 1.377 . S
C2349 C2347 1.389 . S
C2349 C2350 1.524 . S
C2350 C2349 1.524 . S
C2350 C2351 1.397 . S
C2350 C2355 1.363 . S
C2351 H2322 0.950 . S
C2351 C2350 1.397 . S
C2351 C2352 1.334 . S
C2352 H2323 0.950 . S
C2352 C2351 1.334 . S
C2352 C2353 1.287 . S
C2353 C2352 1.287 . S
C2353 C2354 1.524 . S
C2353 H2356 0.999 . S
C2354 H2324 0.950 . S
C2354 C2353 1.524 . S
C2354 C2355 1.415 . S
C2355 H2325 0.950 . S
C2355 C2350 1.363 . S
C2355 C2354 1.415 . S
H2356 C2353 0.999 . S
H2357 C2338 0.913 . S
H2358 C2376 0.951 . S
H2359 C2378 0.951 . S
H2360 C2380 0.950 . S
H2361 C2381 0.950 . S
H2362 C2383 0.950 . S
H2363 C2386 0.950 . S
H2364 C2387 0.950 . S
H2365 C2389 0.950 . S
H2366 C2390 0.950 . S
H2367 C2391 0.951 . S
H2368 C2393 0.951 . S
H2369 C2395 0.950 . S
H2370 C2396 0.950 . S
H2371 C2398 0.950 . S
H2372 C2401 0.950 . S
H2373 C2402 0.950 . S
H2374 C2404 0.950 . S
H2375 C2405 0.950 . S
C2376 H2358 0.951 . S
C2376 C2377 1.366 . S
C2376 C2378 1.388 . S
C2377 C2376 1.366 . S
C2377 C2381 1.385 . S
C2378 H2359 0.951 . S
C2378 C2376 1.388 . S
C2378 C2379 1.366 . S
C2379 C2378 1.366 . S
C2379 C2380 1.414 . S
C2379 C2382 1.499 . S
C2380 H2360 0.950 . S
C2380 C2379 1.414 . S
C2380 C2381 1.374 . S
C2381 H2361 0.950 . S
C2381 C2377 1.385 . S
C2381 C2380 1.374 . S
C2382 C2379 1.499 . S
C2382 C2383 1.373 . S
C2382 C2384 1.389 . S
C2383 H2362 0.950 . S
C2383 C2382 1.373 . S
C2383 C2399 1.377 . S
C2384 C2382 1.389 . S
C2384 C2385 1.524 . S
C2384 C2398 1.377 . S
C2385 C2384 1.524 . S
C2385 C2386 1.397 . S
C2385 C2390 1.363 . S
C2386 H2363 0.950 . S
C2386 C2385 1.397 . S
C2386 C2387 1.334 . S
C2387 H2364 0.950 . S
C2387 C2386 1.334 . S
C2387 C2388 1.287 . S
C2388 C2387 1.287 . S
C2388 C2389 1.524 . S
C2388 H2407 0.913 . S
C2389 H2365 0.950 . S
C2389 C2388 1.524 . S
C2389 C2390 1.415 . S
C2390 H2366 0.950 . S
C2390 C2385 1.363 . S
C2390 C2389 1.415 . S
C2391 H2367 0.951 . S
C2391 C2392 1.366 . S
C2391 C2393 1.388 . S
C2392 C2391 1.366 . S
C2392 C2396 1.385 . S
C2393 H2368 0.951 . S
C2393 C2391 1.388 . S
C2393 C2394 1.366 . S
C2394 C2393 1.366 . S
C2394 C2395 1.414 . S
C2394 C2397 1.499 . S
C2395 H2369 0.950 . S
C2395 C2394 1.414 . S
C2395 C2396 1.374 . S
C2396 H2370 0.950 . S
C2396 C2392 1.385 . S
C2396 C2395 1.374 . S
C2397 C2394 1.499 . S
C2397 C2398 1.373 . S
C2397 C2399 1.389 . S
C2398 H2371 0.950 . S
C2398 C2384 1.377 . S
C2398 C2397 1.373 . S
C2399 C2383 1.377 . S
C2399 C2397 1.389 . S
C2399 C2400 1.524 . S
C2400 C2399 1.524 . S
C2400 C2401 1.397 . S
C2400 C2405 1.363 . S
C2401 H2372 0.950 . S
C2401 C2400 1.397 . S
C2401 C2402 1.334 . S
C2402 H2373 0.950 . S
C2402 C2401 1.334 . S
C2402 C2403 1.287 . S
C2403 C2402 1.287 . S
C2403 C2404 1.524 . S
C2403 H2406 0.999 . S
C2404 H2374 0.950 . S
C2404 C2403 1.524 . S
C2404 C2405 1.415 . S
C2405 H2375 0.950 . S
C2405 C2400 1.363 . S
C2405 C2404 1.415 . S
H2406 C2403 0.999 . S
H2407 C2388 0.913 . S
H2408 C2426 0.951 . S
H2409 C2428 0.951 . S
H2410 C2430 0.950 . S
H2411 C2431 0.950 . S
H2412 C2433 0.950 . S
H2413 C2436 0.950 . S
H2414 C2437 0.950 . S
H2415 C2439 0.950 . S
H2416 C2440 0.950 . S
H2417 C2441 0.951 . S
H2418 C2443 0.951 . S
H2419 C2445 0.950 . S
H2420 C2446 0.950 . S
H2421 C2448 0.950 . S
H2422 C2451 0.950 . S
H2423 C2452 0.950 . S
H2424 C2454 0.950 . S
H2425 C2455 0.950 . S
C2426 H2408 0.951 . S
C2426 C2427 1.366 . S
C2426 C2428 1.388 . S
C2427 C2426 1.366 . S
C2427 C2431 1.385 . S
C2428 H2409 0.951 . S
C2428 C2426 1.388 . S
C2428 C2429 1.366 . S
C2429 C2428 1.366 . S
C2429 C2430 1.414 . S
C2429 C2432 1.499 . S
C2430 H2410 0.950 . S
C2430 C2429 1.414 . S
C2430 C2431 1.374 . S
C2431 H2411 0.950 . S
C2431 C2427 1.385 . S
C2431 C2430 1.374 . S
C2432 C2429 1.499 . S
C2432 C2433 1.373 . S
C2432 C2434 1.389 . S
C2433 H2412 0.950 . S
C2433 C2432 1.373 . S
C2433 C2449 1.377 . S
C2434 C2432 1.389 . S
C2434 C2435 1.524 . S
C2434 C2448 1.377 . S
C2435 C2434 1.524 . S
C2435 C2436 1.397 . S
C2435 C2440 1.363 . S
C2436 H2413 0.950 . S
C2436 C2435 1.397 . S
C2436 C2437 1.334 . S
C2437 H2414 0.950 . S
C2437 C2436 1.334 . S
C2437 C2438 1.287 . S
C2438 C2437 1.287 . S
C2438 C2439 1.524 . S
C2438 H2457 0.913 . S
C2439 H2415 0.950 . S
C2439 C2438 1.524 . S
C2439 C2440 1.415 . S
C2440 H2416 0.950 . S
C2440 C2435 1.363 . S
C2440 C2439 1.415 . S
C2441 H2417 0.951 . S
C2441 C2442 1.366 . S
C2441 C2443 1.388 . S
C2442 C2441 1.366 . S
C2442 C2446 1.385 . S
C2443 H2418 0.951 . S
C2443 C2441 1.388 . S
C2443 C2444 1.366 . S
C2444 C2443 1.366 . S
C2444 C2445 1.414 . S
C2444 C2447 1.499 . S
C2445 H2419 0.950 . S
C2445 C2444 1.414 . S
C2445 C2446 1.374 . S
C2446 H2420 0.950 . S
C2446 C2442 1.385 . S
C2446 C2445 1.374 . S
C2447 C2444 1.499 . S
C2447 C2448 1.373 . S
C2447 C2449 1.389 . S
C2448 H2421 0.950 . S
C2448 C2434 1.377 . S
C2448 C2447 1.373 . S
C2449 C2433 1.377 . S
C2449 C2447 1.389 . S
C2449 C2450 1.524 . S
C2450 C2449 1.524 . S
C2450 C2451 1.397 . S
C2450 C2455 1.363 . S
C2451 H2422 0.950 . S
C2451 C2450 1.397 . S
C2451 C2452 1.334 . S
C2452 H2423 0.950 . S
C2452 C2451 1.334 . S
C2452 C2453 1.287 . S
C2453 C2452 1.287 . S
C2453 C2454 1.524 . S
C2453 H2456 0.999 . S
C2454 H2424 0.950 . S
C2454 C2453 1.524 . S
C2454 C2455 1.415 . S
C2455 H2425 0.950 . S
C2455 C2450 1.363 . S
C2455 C2454 1.415 . S
H2456 C2453 0.999 . S
H2457 C2438 0.913 . S
H2458 C2476 0.951 . S
H2459 C2478 0.951 . S
H2460 C2480 0.950 . S
H2461 C2481 0.950 . S
H2462 C2483 0.950 . S
H2463 C2486 0.950 . S
H2464 C2487 0.950 . S
H2465 C2489 0.950 . S
H2466 C2490 0.950 . S
H2467 C2491 0.951 . S
H2468 C2493 0.951 . S
H2469 C2495 0.950 . S
H2470 C2496 0.950 . S
H2471 C2498 0.950 . S
H2472 C2501 0.950 . S
H2473 C2502 0.950 . S
H2474 C2504 0.950 . S
H2475 C2505 0.950 . S
C2476 H2458 0.951 . S
C2476 C2477 1.366 . S
C2476 C2478 1.388 . S
C2477 C2476 1.366 . S
C2477 C2481 1.385 . S
C2478 H2459 0.951 . S
C2478 C2476 1.388 . S
C2478 C2479 1.366 . S
C2479 C2478 1.366 . S
C2479 C2480 1.414 . S
C2479 C2482 1.499 . S
C2480 H2460 0.950 . S
C2480 C2479 1.414 . S
C2480 C2481 1.374 . S
C2481 H2461 0.950 . S
C2481 C2477 1.385 . S
C2481 C2480 1.374 . S
C2482 C2479 1.499 . S
C2482 C2483 1.373 . S
C2482 C2484 1.389 . S
C2483 H2462 0.950 . S
C2483 C2482 1.373 . S
C2483 C2499 1.377 . S
C2484 C2482 1.389 . S
C2484 C2485 1.524 . S
C2484 C2498 1.377 . S
C2485 C2484 1.524 . S
C2485 C2486 1.397 . S
C2485 C2490 1.363 . S
C2486 H2463 0.950 . S
C2486 C2485 1.397 . S
C2486 C2487 1.334 . S
C2487 H2464 0.950 . S
C2487 C2486 1.334 . S
C2487 C2488 1.287 . S
C2488 C2487 1.287 . S
C2488 C2489 1.524 . S
C2488 H2507 0.913 . S
C2489 H2465 0.950 . S
C2489 C2488 1.524 . S
C2489 C2490 1.415 . S
C2490 H2466 0.950 . S
C2490 C2485 1.363 . S
C2490 C2489 1.415 . S
C2491 H2467 0.951 . S
C2491 C2492 1.366 . S
C2491 C2493 1.388 . S
C2492 C2491 1.366 . S
C2492 C2496 1.385 . S
C2493 H2468 0.951 . S
C2493 C2491 1.388 . S
C2493 C2494 1.366 . S
C2494 C2493 1.366 . S
C2494 C2495 1.414 . S
C2494 C2497 1.499 . S
C2495 H2469 0.950 . S
C2495 C2494 1.414 . S
C2495 C2496 1.374 . S
C2496 H2470 0.950 . S
C2496 C2492 1.385 . S
C2496 C2495 1.374 . S
C2497 C2494 1.499 . S
C2497 C2498 1.373 . S
C2497 C2499 1.389 . S
C2498 H2471 0.950 . S
C2498 C2484 1.377 . S
C2498 C2497 1.373 . S
C2499 C2483 1.377 . S
C2499 C2497 1.389 . S
C2499 C2500 1.524 . S
C2500 C2499 1.524 . S
C2500 C2501 1.397 . S
C2500 C2505 1.363 . S
C2501 H2472 0.950 . S
C2501 C2500 1.397 . S
C2501 C2502 1.334 . S
C2502 H2473 0.950 . S
C2502 C2501 1.334 . S
C2502 C2503 1.287 . S
C2503 C2502 1.287 . S
C2503 C2504 1.524 . S
C2503 H2506 0.999 . S
C2504 H2474 0.950 . S
C2504 C2503 1.524 . S
C2504 C2505 1.415 . S
C2505 H2475 0.950 . S
C2505 C2500 1.363 . S
C2505 C2504 1.415 . S
H2506 C2503 0.999 . S
H2507 C2488 0.913 . S
H2508 C2526 0.951 . S
H2509 C2528 0.951 . S
H2510 C2530 0.950 . S
H2511 C2531 0.950 . S
H2512 C2533 0.950 . S
H2513 C2536 0.950 . S
H2514 C2537 0.950 . S
H2515 C2539 0.950 . S
H2516 C2540 0.950 . S
H2517 C2541 0.951 . S
H2518 C2543 0.951 . S
H2519 C2545 0.950 . S
H2520 C2546 0.950 . S
H2521 C2548 0.950 . S
H2522 C2551 0.950 . S
H2523 C2552 0.950 . S
H2524 C2554 0.950 . S
H2525 C2555 0.950 . S
C2526 H2508 0.951 . S
C2526 C2527 1.366 . S
C2526 C2528 1.388 . S
C2527 C2526 1.366 . S
C2527 C2531 1.385 . S
C2528 H2509 0.951 . S
C2528 C2526 1.388 . S
C2528 C2529 1.366 . S
C2529 C2528 1.366 . S
C2529 C2530 1.414 . S
C2529 C2532 1.499 . S
C2530 H2510 0.950 . S
C2530 C2529 1.414 . S
C2530 C2531 1.374 . S
C2531 H2511 0.950 . S
C2531 C2527 1.385 . S
C2531 C2530 1.374 . S
C2532 C2529 1.499 . S
C2532 C2533 1.373 . S
C2532 C2534 1.389 . S
C2533 H2512 0.950 . S
C2533 C2532 1.373 . S
C2533 C2549 1.377 . S
C2534 C2532 1.389 . S
C2534 C2535 1.524 . S
C2534 C2548 1.377 . S
C2535 C2534 1.524 . S
C2535 C2536 1.397 . S
C2535 C2540 1.363 . S
C2536 H2513 0.950 . S
C2536 C2535 1.397 . S
C2536 C2537 1.334 . S
C2537 H2514 0.950 . S
C2537 C2536 1.334 . S
C2537 C2538 1.287 . S
C2538 C2537 1.287 . S
C2538 C2539 1.524 . S
C2538 H2557 0.913 . S
C2539 H2515 0.950 . S
C2539 C2538 1.524 . S
C2539 C2540 1.415 . S
C2540 H2516 0.950 . S
C2540 C2535 1.363 . S
C2540 C2539 1.415 . S
C2541 H2517 0.951 . S
C2541 C2542 1.366 . S
C2541 C2543 1.388 . S
C2542 C2541 1.366 . S
C2542 C2546 1.385 . S
C2543 H2518 0.951 . S
C2543 C2541 1.388 . S
C2543 C2544 1.366 . S
C2544 C2543 1.366 . S
C2544 C2545 1.414 . S
C2544 C2547 1.499 . S
C2545 H2519 0.950 . S
C2545 C2544 1.414 . S
C2545 C2546 1.374 . S
C2546 H2520 0.950 . S
C2546 C2542 1.385 . S
C2546 C2545 1.374 . S
C2547 C2544 1.499 . S
C2547 C2548 1.373 . S
C2547 C2549 1.389 . S
C2548 H2521 0.950 . S
C2548 C2534 1.377 . S
C2548 C2547 1.373 . S
C2549 C2533 1.377 . S
C2549 C2547 1.389 . S
C2549 C2550 1.524 . S
C2550 C2549 1.524 . S
C2550 C2551 1.397 . S
C2550 C2555 1.363 . S
C2551 H2522 0.950 . S
C2551 C2550 1.397 . S
C2551 C2552 1.334 . S
C2552 H2523 0.950 . S
C2552 C2551 1.334 . S
C2552 C2553 1.287 . S
C2553 C2552 1.287 . S
C2553 C2554 1.524 . S
C2553 H2556 0.999 . S
C2554 H2524 0.950 . S
C2554 C2553 1.524 . S
C2554 C2555 1.415 . S
C2555 H2525 0.950 . S
C2555 C2550 1.363 . S
C2555 C2554 1.415 . S
H2556 C2553 0.999 . S
H2557 C2538 0.913 . S
H2558 C2576 0.951 . S
H2559 C2578 0.951 . S
H2560 C2580 0.950 . S
H2561 C2581 0.950 . S
H2562 C2583 0.950 . S
H2563 C2586 0.950 . S
H2564 C2587 0.950 . S
H2565 C2589 0.950 . S
H2566 C2590 0.950 . S
H2567 C2591 0.951 . S
H2568 C2593 0.951 . S
H2569 C2595 0.950 . S
H2570 C2596 0.950 . S
H2571 C2598 0.950 . S
H2572 C2601 0.950 . S
H2573 C2602 0.950 . S
H2574 C2604 0.950 . S
H2575 C2605 0.950 . S
C2576 H2558 0.951 . S
C2576 C2577 1.366 . S
C2576 C2578 1.388 . S
C2577 C2576 1.366 . S
C2577 C2581 1.385 . S
C2578 H2559 0.951 . S
C2578 C2576 1.388 . S
C2578 C2579 1.366 . S
C2579 C2578 1.366 . S
C2579 C2580 1.414 . S
C2579 C2582 1.499 . S
C2580 H2560 0.950 . S
C2580 C2579 1.414 . S
C2580 C2581 1.374 . S
C2581 H2561 0.950 . S
C2581 C2577 1.385 . S
C2581 C2580 1.374 . S
C2582 C2579 1.499 . S
C2582 C2583 1.373 . S
C2582 C2584 1.389 . S
C2583 H2562 0.950 . S
C2583 C2582 1.373 . S
C2583 C2599 1.377 . S
C2584 C2582 1.389 . S
C2584 C2585 1.524 . S
C2584 C2598 1.377 . S
C2585 C2584 1.524 . S
C2585 C2586 1.397 . S
C2585 C2590 1.363 . S
C2586 H2563 0.950 . S
C2586 C2585 1.397 . S
C2586 C2587 1.334 . S
C2587 H2564 0.950 . S
C2587 C2586 1.334 . S
C2587 C2588 1.287 . S
C2588 C2587 1.287 . S
C2588 C2589 1.524 . S
C2588 H2607 0.913 . S
C2589 H2565 0.950 . S
C2589 C2588 1.524 . S
C2589 C2590 1.415 . S
C2590 H2566 0.950 . S
C2590 C2585 1.363 . S
C2590 C2589 1.415 . S
C2591 H2567 0.951 . S
C2591 C2592 1.366 . S
C2591 C2593 1.388 . S
C2592 C2591 1.366 . S
C2592 C2596 1.385 . S
C2593 H2568 0.951 . S
C2593 C2591 1.388 . S
C2593 C2594 1.366 . S
C2594 C2593 1.366 . S
C2594 C2595 1.414 . S
C2594 C2597 1.499 . S
C2595 H2569 0.950 . S
C2595 C2594 1.414 . S
C2595 C2596 1.374 . S
C2596 H2570 0.950 . S
C2596 C2592 1.385 . S
C2596 C2595 1.374 . S
C2597 C2594 1.499 . S
C2597 C2598 1.373 . S
C2597 C2599 1.389 . S
C2598 H2571 0.950 . S
C2598 C2584 1.377 . S
C2598 C2597 1.373 . S
C2599 C2583 1.377 . S
C2599 C2597 1.389 . S
C2599 C2600 1.524 . S
C2600 C2599 1.524 . S
C2600 C2601 1.397 . S
C2600 C2605 1.363 . S
C2601 H2572 0.950 . S
C2601 C2600 1.397 . S
C2601 C2602 1.334 . S
C2602 H2573 0.950 . S
C2602 C2601 1.334 . S
C2602 C2603 1.287 . S
C2603 C2602 1.287 . S
C2603 C2604 1.524 . S
C2603 H2606 0.999 . S
C2604 H2574 0.950 . S
C2604 C2603 1.524 . S
C2604 C2605 1.415 . S
C2605 H2575 0.950 . S
C2605 C2600 1.363 . S
C2605 C2604 1.415 . S
H2606 C2603 0.999 . S
H2607 C2588 0.913 . S
H2608 C2626 0.951 . S
H2609 C2628 0.951 . S
H2610 C2630 0.950 . S
H2611 C2631 0.950 . S
H2612 C2633 0.950 . S
H2613 C2636 0.950 . S
H2614 C2637 0.950 . S
H2615 C2639 0.950 . S
H2616 C2640 0.950 . S
H2617 C2641 0.951 . S
H2618 C2643 0.951 . S
H2619 C2645 0.950 . S
H2620 C2646 0.950 . S
H2621 C2648 0.950 . S
H2622 C2651 0.950 . S
H2623 C2652 0.950 . S
H2624 C2654 0.950 . S
H2625 C2655 0.950 . S
C2626 H2608 0.951 . S
C2626 C2627 1.366 . S
C2626 C2628 1.388 . S
C2627 C2626 1.366 . S
C2627 C2631 1.385 . S
C2628 H2609 0.951 . S
C2628 C2626 1.388 . S
C2628 C2629 1.366 . S
C2629 C2628 1.366 . S
C2629 C2630 1.414 . S
C2629 C2632 1.499 . S
C2630 H2610 0.950 . S
C2630 C2629 1.414 . S
C2630 C2631 1.374 . S
C2631 H2611 0.950 . S
C2631 C2627 1.385 . S
C2631 C2630 1.374 . S
C2632 C2629 1.499 . S
C2632 C2633 1.373 . S
C2632 C2634 1.389 . S
C2633 H2612 0.950 . S
C2633 C2632 1.373 . S
C2633 C2649 1.377 . S
C2634 C2632 1.389 . S
C2634 C2635 1.524 . S
C2634 C2648 1.377 . S
C2635 C2634 1.524 . S
C2635 C2636 1.397 . S
C2635 C2640 1.363 . S
C2636 H2613 0.950 . S
C2636 C2635 1.397 . S
C2636 C2637 1.334 . S
C2637 H2614 0.950 . S
C2637 C2636 1.334 . S
C2637 C2638 1.287 . S
C2638 C2637 1.287 . S
C2638 C2639 1.524 . S
C2638 H2657 0.913 . S
C2639 H2615 0.950 . S
C2639 C2638 1.524 . S
C2639 C2640 1.415 . S
C2640 H2616 0.950 . S
C2640 C2635 1.363 . S
C2640 C2639 1.415 . S
C2641 H2617 0.951 . S
C2641 C2642 1.366 . S
C2641 C2643 1.388 . S
C2642 C2641 1.366 . S
C2642 C2646 1.385 . S
C2643 H2618 0.951 . S
C2643 C2641 1.388 . S
C2643 C2644 1.366 . S
C2644 C2643 1.366 . S
C2644 C2645 1.414 . S
C2644 C2647 1.499 . S
C2645 H2619 0.950 . S
C2645 C2644 1.414 . S
C2645 C2646 1.374 . S
C2646 H2620 0.950 . S
C2646 C2642 1.385 . S
C2646 C2645 1.374 . S
C2647 C2644 1.499 . S
C2647 C2648 1.373 . S
C2647 C2649 1.389 . S
C2648 H2621 0.950 . S
C2648 C2634 1.377 . S
C2648 C2647 1.373 . S
C2649 C2633 1.377 . S
C2649 C2647 1.389 . S
C2649 C2650 1.524 . S
C2650 C2649 1.524 . S
C2650 C2651 1.397 . S
C2650 C2655 1.363 . S
C2651 H2622 0.950 . S
C2651 C2650 1.397 . S
C2651 C2652 1.334 . S
C2652 H2623 0.950 . S
C2652 C2651 1.334 . S
C2652 C2653 1.287 . S
C2653 C2652 1.287 . S
C2653 C2654 1.524 . S
C2653 H2656 0.999 1_545 S
C2654 H2624 0.950 . S
C2654 C2653 1.524 . S
C2654 C2655 1.415 . S
C2655 H2625 0.950 . S
C2655 C2650 1.363 . S
C2655 C2654 1.415 . S
H2656 C2653 0.999 1_565 S
H2657 C2638 0.913 . S
H2658 C2676 0.951 . S
H2659 C2678 0.951 . S
H2660 C2680 0.950 . S
H2661 C2681 0.950 . S
H2662 C2683 0.950 . S
H2663 C2686 0.950 . S
H2664 C2687 0.950 . S
H2665 C2689 0.950 . S
H2666 C2690 0.950 . S
H2667 C2691 0.951 . S
H2668 C2693 0.951 . S
H2669 C2695 0.950 . S
H2670 C2696 0.950 . S
H2671 C2698 0.950 . S
H2672 C2701 0.950 . S
H2673 C2702 0.950 . S
H2674 C2704 0.950 . S
H2675 C2705 0.950 . S
C2676 H2658 0.951 . S
C2676 C2677 1.366 . S
C2676 C2678 1.388 . S
C2677 C2676 1.366 . S
C2677 C2681 1.385 . S
C2678 H2659 0.951 . S
C2678 C2676 1.388 . S
C2678 C2679 1.366 . S
C2679 C2678 1.366 . S
C2679 C2680 1.414 . S
C2679 C2682 1.499 . S
C2680 H2660 0.950 . S
C2680 C2679 1.414 . S
C2680 C2681 1.374 . S
C2681 H2661 0.950 . S
C2681 C2677 1.385 . S
C2681 C2680 1.374 . S
C2682 C2679 1.499 . S
C2682 C2683 1.373 . S
C2682 C2684 1.389 . S
C2683 H2662 0.950 . S
C2683 C2682 1.373 . S
C2683 C2699 1.377 . S
C2684 C2682 1.389 . S
C2684 C2685 1.524 . S
C2684 C2698 1.377 . S
C2685 C2684 1.524 . S
C2685 C2686 1.397 . S
C2685 C2690 1.363 . S
C2686 H2663 0.950 . S
C2686 C2685 1.397 . S
C2686 C2687 1.334 . S
C2687 H2664 0.950 . S
C2687 C2686 1.334 . S
C2687 C2688 1.287 . S
C2688 C2687 1.287 . S
C2688 C2689 1.524 . S
C2688 H2707 0.913 . S
C2689 H2665 0.950 . S
C2689 C2688 1.524 . S
C2689 C2690 1.415 . S
C2690 H2666 0.950 . S
C2690 C2685 1.363 . S
C2690 C2689 1.415 . S
C2691 H2667 0.951 . S
C2691 C2692 1.366 . S
C2691 C2693 1.388 . S
C2692 C2691 1.366 . S
C2692 C2696 1.385 . S
C2693 H2668 0.951 . S
C2693 C2691 1.388 . S
C2693 C2694 1.366 . S
C2694 C2693 1.366 . S
C2694 C2695 1.414 . S
C2694 C2697 1.499 . S
C2695 H2669 0.950 . S
C2695 C2694 1.414 . S
C2695 C2696 1.374 . S
C2696 H2670 0.950 . S
C2696 C2692 1.385 . S
C2696 C2695 1.374 . S
C2697 C2694 1.499 . S
C2697 C2698 1.373 . S
C2697 C2699 1.389 . S
C2698 H2671 0.950 . S
C2698 C2684 1.377 . S
C2698 C2697 1.373 . S
C2699 C2683 1.377 . S
C2699 C2697 1.389 . S
C2699 C2700 1.524 . S
C2700 C2699 1.524 . S
C2700 C2701 1.397 . S
C2700 C2705 1.363 . S
C2701 H2672 0.950 . S
C2701 C2700 1.397 . S
C2701 C2702 1.334 . S
C2702 H2673 0.950 . S
C2702 C2701 1.334 . S
C2702 C2703 1.287 . S
C2703 C2702 1.287 . S
C2703 C2704 1.524 . S
C2703 H2706 0.999 . S
C2704 H2674 0.950 . S
C2704 C2703 1.524 . S
C2704 C2705 1.415 . S
C2705 H2675 0.950 . S
C2705 C2700 1.363 . S
C2705 C2704 1.415 . S
H2706 C2703 0.999 . S
H2707 C2688 0.913 . S
H2708 C2726 0.951 . S
H2709 C2728 0.951 . S
H2710 C2730 0.950 . S
H2711 C2731 0.950 . S
H2712 C2733 0.950 . S
H2713 C2736 0.950 . S
H2714 C2737 0.950 . S
H2715 C2739 0.950 . S
H2716 C2740 0.950 . S
H2717 C2741 0.951 . S
H2718 C2743 0.951 . S
H2719 C2745 0.950 . S
H2720 C2746 0.950 . S
H2721 C2748 0.950 . S
H2722 C2751 0.950 . S
H2723 C2752 0.950 . S
H2724 C2754 0.950 . S
H2725 C2755 0.950 . S
C2726 H2708 0.951 . S
C2726 C2727 1.366 . S
C2726 C2728 1.388 . S
C2727 C2726 1.366 . S
C2727 C2731 1.385 . S
C2728 H2709 0.951 . S
C2728 C2726 1.388 . S
C2728 C2729 1.366 . S
C2729 C2728 1.366 . S
C2729 C2730 1.414 . S
C2729 C2732 1.499 . S
C2730 H2710 0.950 . S
C2730 C2729 1.414 . S
C2730 C2731 1.374 . S
C2731 H2711 0.950 . S
C2731 C2727 1.385 . S
C2731 C2730 1.374 . S
C2732 C2729 1.499 . S
C2732 C2733 1.373 . S
C2732 C2734 1.389 . S
C2733 H2712 0.950 . S
C2733 C2732 1.373 . S
C2733 C2749 1.377 . S
C2734 C2732 1.389 . S
C2734 C2735 1.524 . S
C2734 C2748 1.377 . S
C2735 C2734 1.524 . S
C2735 C2736 1.397 . S
C2735 C2740 1.363 . S
C2736 H2713 0.950 . S
C2736 C2735 1.397 . S
C2736 C2737 1.334 . S
C2737 H2714 0.950 . S
C2737 C2736 1.334 . S
C2737 C2738 1.287 . S
C2738 C2737 1.287 . S
C2738 C2739 1.524 . S
C2738 H2757 0.913 . S
C2739 H2715 0.950 . S
C2739 C2738 1.524 . S
C2739 C2740 1.415 . S
C2740 H2716 0.950 . S
C2740 C2735 1.363 . S
C2740 C2739 1.415 . S
C2741 H2717 0.951 . S
C2741 C2742 1.366 . S
C2741 C2743 1.388 . S
C2742 C2741 1.366 . S
C2742 C2746 1.385 . S
C2743 H2718 0.951 . S
C2743 C2741 1.388 . S
C2743 C2744 1.366 . S
C2744 C2743 1.366 . S
C2744 C2745 1.414 . S
C2744 C2747 1.499 . S
C2745 H2719 0.950 . S
C2745 C2744 1.414 . S
C2745 C2746 1.374 . S
C2746 H2720 0.950 . S
C2746 C2742 1.385 . S
C2746 C2745 1.374 . S
C2747 C2744 1.499 . S
C2747 C2748 1.373 . S
C2747 C2749 1.389 . S
C2748 H2721 0.950 . S
C2748 C2734 1.377 . S
C2748 C2747 1.373 . S
C2749 C2733 1.377 . S
C2749 C2747 1.389 . S
C2749 C2750 1.524 . S
C2750 C2749 1.524 . S
C2750 C2751 1.397 . S
C2750 C2755 1.363 . S
C2751 H2722 0.950 . S
C2751 C2750 1.397 . S
C2751 C2752 1.334 . S
C2752 H2723 0.950 . S
C2752 C2751 1.334 . S
C2752 C2753 1.287 . S
C2753 C2752 1.287 . S
C2753 C2754 1.524 . S
C2753 H2756 0.999 . S
C2754 H2724 0.950 . S
C2754 C2753 1.524 . S
C2754 C2755 1.415 . S
C2755 H2725 0.950 . S
C2755 C2750 1.363 . S
C2755 C2754 1.415 . S
H2756 C2753 0.999 . S
H2757 C2738 0.913 . S
H2758 C2776 0.951 . S
H2759 C2778 0.951 . S
H2760 C2780 0.950 . S
H2761 C2781 0.950 . S
H2762 C2783 0.950 . S
H2763 C2786 0.950 . S
H2764 C2787 0.950 . S
H2765 C2789 0.950 . S
H2766 C2790 0.950 . S
H2767 C2791 0.951 . S
H2768 C2793 0.951 . S
H2769 C2795 0.950 . S
H2770 C2796 0.950 . S
H2771 C2798 0.950 . S
H2772 C2801 0.950 . S
H2773 C2802 0.950 . S
H2774 C2804 0.950 . S
H2775 C2805 0.950 . S
C2776 H2758 0.951 . S
C2776 C2777 1.366 . S
C2776 C2778 1.388 . S
C2777 C2776 1.366 . S
C2777 C2781 1.385 . S
C2778 H2759 0.951 . S
C2778 C2776 1.388 . S
C2778 C2779 1.366 . S
C2779 C2778 1.366 . S
C2779 C2780 1.414 . S
C2779 C2782 1.499 . S
C2780 H2760 0.950 . S
C2780 C2779 1.414 . S
C2780 C2781 1.374 . S
C2781 H2761 0.950 . S
C2781 C2777 1.385 . S
C2781 C2780 1.374 . S
C2782 C2779 1.499 . S
C2782 C2783 1.373 . S
C2782 C2784 1.389 . S
C2783 H2762 0.950 . S
C2783 C2782 1.373 . S
C2783 C2799 1.377 . S
C2784 C2782 1.389 . S
C2784 C2785 1.524 . S
C2784 C2798 1.377 . S
C2785 C2784 1.524 . S
C2785 C2786 1.397 . S
C2785 C2790 1.363 . S
C2786 H2763 0.950 . S
C2786 C2785 1.397 . S
C2786 C2787 1.334 . S
C2787 H2764 0.950 . S
C2787 C2786 1.334 . S
C2787 C2788 1.287 . S
C2788 C2787 1.287 . S
C2788 C2789 1.524 . S
C2788 H2807 0.913 . S
C2789 H2765 0.950 . S
C2789 C2788 1.524 . S
C2789 C2790 1.415 . S
C2790 H2766 0.950 . S
C2790 C2785 1.363 . S
C2790 C2789 1.415 . S
C2791 H2767 0.951 . S
C2791 C2792 1.366 . S
C2791 C2793 1.388 . S
C2792 C2791 1.366 . S
C2792 C2796 1.385 . S
C2793 H2768 0.951 . S
C2793 C2791 1.388 . S
C2793 C2794 1.366 . S
C2794 C2793 1.366 . S
C2794 C2795 1.414 . S
C2794 C2797 1.499 . S
C2795 H2769 0.950 . S
C2795 C2794 1.414 . S
C2795 C2796 1.374 . S
C2796 H2770 0.950 . S
C2796 C2792 1.385 . S
C2796 C2795 1.374 . S
C2797 C2794 1.499 . S
C2797 C2798 1.373 . S
C2797 C2799 1.389 . S
C2798 H2771 0.950 . S
C2798 C2784 1.377 . S
C2798 C2797 1.373 . S
C2799 C2783 1.377 . S
C2799 C2797 1.389 . S
C2799 C2800 1.524 . S
C2800 C2799 1.524 . S
C2800 C2801 1.397 . S
C2800 C2805 1.363 . S
C2801 H2772 0.950 . S
C2801 C2800 1.397 . S
C2801 C2802 1.334 . S
C2802 H2773 0.950 . S
C2802 C2801 1.334 . S
C2802 C2803 1.287 . S
C2803 C2802 1.287 . S
C2803 C2804 1.524 . S
C2803 H2806 0.999 . S
C2804 H2774 0.950 . S
C2804 C2803 1.524 . S
C2804 C2805 1.415 . S
C2805 H2775 0.950 . S
C2805 C2800 1.363 . S
C2805 C2804 1.415 . S
H2806 C2803 0.999 . S
H2807 C2788 0.913 . S
H2808 C2826 0.951 . S
H2809 C2828 0.951 . S
H2810 C2830 0.950 . S
H2811 C2831 0.950 . S
H2812 C2833 0.950 . S
H2813 C2836 0.950 . S
H2814 C2837 0.950 . S
H2815 C2839 0.950 . S
H2816 C2840 0.950 . S
H2817 C2841 0.951 . S
H2818 C2843 0.951 . S
H2819 C2845 0.950 . S
H2820 C2846 0.950 . S
H2821 C2848 0.950 . S
H2822 C2851 0.950 . S
H2823 C2852 0.950 . S
H2824 C2854 0.950 . S
H2825 C2855 0.950 . S
C2826 H2808 0.951 . S
C2826 C2827 1.366 . S
C2826 C2828 1.388 . S
C2827 C2826 1.366 . S
C2827 C2831 1.385 . S
C2828 H2809 0.951 . S
C2828 C2826 1.388 . S
C2828 C2829 1.366 . S
C2829 C2828 1.366 . S
C2829 C2830 1.414 . S
C2829 C2832 1.499 . S
C2830 H2810 0.950 . S
C2830 C2829 1.414 . S
C2830 C2831 1.374 . S
C2831 H2811 0.950 . S
C2831 C2827 1.385 . S
C2831 C2830 1.374 . S
C2832 C2829 1.499 . S
C2832 C2833 1.373 . S
C2832 C2834 1.389 . S
C2833 H2812 0.950 . S
C2833 C2832 1.373 . S
C2833 C2849 1.377 . S
C2834 C2832 1.389 . S
C2834 C2835 1.524 . S
C2834 C2848 1.377 . S
C2835 C2834 1.524 . S
C2835 C2836 1.397 . S
C2835 C2840 1.363 . S
C2836 H2813 0.950 . S
C2836 C2835 1.397 . S
C2836 C2837 1.334 . S
C2837 H2814 0.950 . S
C2837 C2836 1.334 . S
C2837 C2838 1.287 . S
C2838 C2837 1.287 . S
C2838 C2839 1.524 . S
C2838 H2857 0.913 . S
C2839 H2815 0.950 . S
C2839 C2838 1.524 . S
C2839 C2840 1.415 . S
C2840 H2816 0.950 . S
C2840 C2835 1.363 . S
C2840 C2839 1.415 . S
C2841 H2817 0.951 . S
C2841 C2842 1.366 . S
C2841 C2843 1.388 . S
C2842 C2841 1.366 . S
C2842 C2846 1.385 . S
C2843 H2818 0.951 . S
C2843 C2841 1.388 . S
C2843 C2844 1.366 . S
C2844 C2843 1.366 . S
C2844 C2845 1.414 . S
C2844 C2847 1.499 . S
C2845 H2819 0.950 . S
C2845 C2844 1.414 . S
C2845 C2846 1.374 . S
C2846 H2820 0.950 . S
C2846 C2842 1.385 . S
C2846 C2845 1.374 . S
C2847 C2844 1.499 . S
C2847 C2848 1.373 . S
C2847 C2849 1.389 . S
C2848 H2821 0.950 . S
C2848 C2834 1.377 . S
C2848 C2847 1.373 . S
C2849 C2833 1.377 . S
C2849 C2847 1.389 . S
C2849 C2850 1.524 . S
C2850 C2849 1.524 . S
C2850 C2851 1.397 . S
C2850 C2855 1.363 . S
C2851 H2822 0.950 . S
C2851 C2850 1.397 . S
C2851 C2852 1.334 . S
C2852 H2823 0.950 . S
C2852 C2851 1.334 . S
C2852 C2853 1.287 . S
C2853 C2852 1.287 . S
C2853 C2854 1.524 . S
C2853 H2856 0.999 . S
C2854 H2824 0.950 . S
C2854 C2853 1.524 . S
C2854 C2855 1.415 . S
C2855 H2825 0.950 . S
C2855 C2850 1.363 . S
C2855 C2854 1.415 . S
H2856 C2853 0.999 . S
H2857 C2838 0.913 . S
H2858 C2876 0.951 . S
H2859 C2878 0.951 . S
H2860 C2880 0.950 . S
H2861 C2881 0.950 . S
H2862 C2883 0.950 . S
H2863 C2886 0.950 . S
H2864 C2887 0.950 . S
H2865 C2889 0.950 . S
H2866 C2890 0.950 . S
H2867 C2891 0.951 . S
H2868 C2893 0.951 . S
H2869 C2895 0.950 . S
H2870 C2896 0.950 . S
H2871 C2898 0.950 . S
H2872 C2901 0.950 . S
H2873 C2902 0.950 . S
H2874 C2904 0.950 . S
H2875 C2905 0.950 . S
C2876 H2858 0.951 . S
C2876 C2877 1.366 . S
C2876 C2878 1.388 . S
C2877 C2876 1.366 . S
C2877 C2881 1.385 . S
C2878 H2859 0.951 . S
C2878 C2876 1.388 . S
C2878 C2879 1.366 . S
C2879 C2878 1.366 . S
C2879 C2880 1.414 . S
C2879 C2882 1.499 . S
C2880 H2860 0.950 . S
C2880 C2879 1.414 . S
C2880 C2881 1.374 . S
C2881 H2861 0.950 . S
C2881 C2877 1.385 . S
C2881 C2880 1.374 . S
C2882 C2879 1.499 . S
C2882 C2883 1.373 . S
C2882 C2884 1.389 . S
C2883 H2862 0.950 . S
C2883 C2882 1.373 . S
C2883 C2899 1.377 . S
C2884 C2882 1.389 . S
C2884 C2885 1.524 . S
C2884 C2898 1.377 . S
C2885 C2884 1.524 . S
C2885 C2886 1.397 . S
C2885 C2890 1.363 . S
C2886 H2863 0.950 . S
C2886 C2885 1.397 . S
C2886 C2887 1.334 . S
C2887 H2864 0.950 . S
C2887 C2886 1.334 . S
C2887 C2888 1.287 . S
C2888 C2887 1.287 . S
C2888 C2889 1.524 . S
C2888 H2907 0.913 . S
C2889 H2865 0.950 . S
C2889 C2888 1.524 . S
C2889 C2890 1.415 . S
C2890 H2866 0.950 . S
C2890 C2885 1.363 . S
C2890 C2889 1.415 . S
C2891 H2867 0.951 . S
C2891 C2892 1.366 . S
C2891 C2893 1.388 . S
C2892 C2891 1.366 . S
C2892 C2896 1.385 . S
C2893 H2868 0.951 . S
C2893 C2891 1.388 . S
C2893 C2894 1.366 . S
C2894 C2893 1.366 . S
C2894 C2895 1.414 . S
C2894 C2897 1.499 . S
C2895 H2869 0.950 . S
C2895 C2894 1.414 . S
C2895 C2896 1.374 . S
C2896 H2870 0.950 . S
C2896 C2892 1.385 . S
C2896 C2895 1.374 . S
C2897 C2894 1.499 . S
C2897 C2898 1.373 . S
C2897 C2899 1.389 . S
C2898 H2871 0.950 . S
C2898 C2884 1.377 . S
C2898 C2897 1.373 . S
C2899 C2883 1.377 . S
C2899 C2897 1.389 . S
C2899 C2900 1.524 . S
C2900 C2899 1.524 . S
C2900 C2901 1.397 . S
C2900 C2905 1.363 . S
C2901 H2872 0.950 . S
C2901 C2900 1.397 . S
C2901 C2902 1.334 . S
C2902 H2873 0.950 . S
C2902 C2901 1.334 . S
C2902 C2903 1.287 . S
C2903 C2902 1.287 . S
C2903 C2904 1.524 . S
C2903 H2906 0.999 . S
C2904 H2874 0.950 . S
C2904 C2903 1.524 . S
C2904 C2905 1.415 . S
C2905 H2875 0.950 . S
C2905 C2900 1.363 . S
C2905 C2904 1.415 . S
H2906 C2903 0.999 . S
H2907 C2888 0.913 . S
H2908 C2926 0.951 . S
H2909 C2928 0.951 . S
H2910 C2930 0.950 . S
H2911 C2931 0.950 . S
H2912 C2933 0.950 . S
H2913 C2936 0.950 . S
H2914 C2937 0.950 . S
H2915 C2939 0.950 . S
H2916 C2940 0.950 . S
H2917 C2941 0.951 . S
H2918 C2943 0.951 . S
H2919 C2945 0.950 . S
H2920 C2946 0.950 . S
H2921 C2948 0.950 . S
H2922 C2951 0.950 . S
H2923 C2952 0.950 . S
H2924 C2954 0.950 . S
H2925 C2955 0.950 . S
C2926 H2908 0.951 . S
C2926 C2927 1.366 . S
C2926 C2928 1.388 . S
C2927 C2926 1.366 . S
C2927 C2931 1.385 . S
C2928 H2909 0.951 . S
C2928 C2926 1.388 . S
C2928 C2929 1.366 . S
C2929 C2928 1.366 . S
C2929 C2930 1.414 . S
C2929 C2932 1.499 . S
C2930 H2910 0.950 . S
C2930 C2929 1.414 . S
C2930 C2931 1.374 . S
C2931 H2911 0.950 . S
C2931 C2927 1.385 . S
C2931 C2930 1.374 . S
C2932 C2929 1.499 . S
C2932 C2933 1.373 . S
C2932 C2934 1.389 . S
C2933 H2912 0.950 . S
C2933 C2932 1.373 . S
C2933 C2949 1.377 . S
C2934 C2932 1.389 . S
C2934 C2935 1.524 . S
C2934 C2948 1.377 . S
C2935 C2934 1.524 . S
C2935 C2936 1.397 . S
C2935 C2940 1.363 . S
C2936 H2913 0.950 . S
C2936 C2935 1.397 . S
C2936 C2937 1.334 . S
C2937 H2914 0.950 . S
C2937 C2936 1.334 . S
C2937 C2938 1.287 . S
C2938 C2937 1.287 . S
C2938 C2939 1.524 . S
C2938 H2957 0.913 . S
C2939 H2915 0.950 . S
C2939 C2938 1.524 . S
C2939 C2940 1.415 . S
C2940 H2916 0.950 . S
C2940 C2935 1.363 . S
C2940 C2939 1.415 . S
C2941 H2917 0.951 . S
C2941 C2942 1.366 . S
C2941 C2943 1.388 . S
C2942 C2941 1.366 . S
C2942 C2946 1.385 . S
C2943 H2918 0.951 . S
C2943 C2941 1.388 . S
C2943 C2944 1.366 . S
C2944 C2943 1.366 . S
C2944 C2945 1.414 . S
C2944 C2947 1.499 . S
C2945 H2919 0.950 . S
C2945 C2944 1.414 . S
C2945 C2946 1.374 . S
C2946 H2920 0.950 . S
C2946 C2942 1.385 . S
C2946 C2945 1.374 . S
C2947 C2944 1.499 . S
C2947 C2948 1.373 . S
C2947 C2949 1.389 . S
C2948 H2921 0.950 . S
C2948 C2934 1.377 . S
C2948 C2947 1.373 . S
C2949 C2933 1.377 . S
C2949 C2947 1.389 . S
C2949 C2950 1.524 . S
C2950 C2949 1.524 . S
C2950 C2951 1.397 . S
C2950 C2955 1.363 . S
C2951 H2922 0.950 . S
C2951 C2950 1.397 . S
C2951 C2952 1.334 . S
C2952 H2923 0.950 . S
C2952 C2951 1.334 . S
C2952 C2953 1.287 . S
C2953 C2952 1.287 . S
C2953 C2954 1.524 . S
C2953 H2956 0.999 . S
C2954 H2924 0.950 . S
C2954 C2953 1.524 . S
C2954 C2955 1.415 . S
C2955 H2925 0.950 . S
C2955 C2950 1.363 . S
C2955 C2954 1.415 . S
H2956 C2953 0.999 . S
H2957 C2938 0.913 . S
H2958 C2976 0.951 . S
H2959 C2978 0.951 . S
H2960 C2980 0.950 . S
H2961 C2981 0.950 . S
H2962 C2983 0.950 . S
H2963 C2986 0.950 . S
H2964 C2987 0.950 . S
H2965 C2989 0.950 . S
H2966 C2990 0.950 . S
H2967 C2991 0.951 . S
H2968 C2993 0.951 . S
H2969 C2995 0.950 . S
H2970 C2996 0.950 . S
H2971 C2998 0.950 . S
H2972 C3001 0.950 . S
H2973 C3002 0.950 . S
H2974 C3004 0.950 . S
H2975 C3005 0.950 . S
C2976 H2958 0.951 . S
C2976 C2977 1.366 . S
C2976 C2978 1.388 . S
C2977 C2976 1.366 . S
C2977 C2981 1.385 . S
C2978 H2959 0.951 . S
C2978 C2976 1.388 . S
C2978 C2979 1.366 . S
C2979 C2978 1.366 . S
C2979 C2980 1.414 . S
C2979 C2982 1.499 . S
C2980 H2960 0.950 . S
C2980 C2979 1.414 . S
C2980 C2981 1.374 . S
C2981 H2961 0.950 . S
C2981 C2977 1.385 . S
C2981 C2980 1.374 . S
C2982 C2979 1.499 . S
C2982 C2983 1.373 . S
C2982 C2984 1.389 . S
C2983 H2962 0.950 . S
C2983 C2982 1.373 . S
C2983 C2999 1.377 . S
C2984 C2982 1.389 . S
C2984 C2985 1.524 . S
C2984 C2998 1.377 . S
C2985 C2984 1.524 . S
C2985 C2986 1.397 . S
C2985 C2990 1.363 . S
C2986 H2963 0.950 . S
C2986 C2985 1.397 . S
C2986 C2987 1.334 . S
C2987 H2964 0.950 . S
C2987 C2986 1.334 . S
C2987 C2988 1.287 . S
C2988 C2987 1.287 . S
C2988 C2989 1.524 . S
C2988 H3007 0.913 . S
C2989 H2965 0.950 . S
C2989 C2988 1.524 . S
C2989 C2990 1.415 . S
C2990 H2966 0.950 . S
C2990 C2985 1.363 . S
C2990 C2989 1.415 . S
C2991 H2967 0.951 . S
C2991 C2992 1.366 . S
C2991 C2993 1.388 . S
C2992 C2991 1.366 . S
C2992 C2996 1.385 . S
C2993 H2968 0.951 . S
C2993 C2991 1.388 . S
C2993 C2994 1.366 . S
C2994 C2993 1.366 . S
C2994 C2995 1.414 . S
C2994 C2997 1.499 . S
C2995 H2969 0.950 . S
C2995 C2994 1.414 . S
C2995 C2996 1.374 . S
C2996 H2970 0.950 . S
C2996 C2992 1.385 . S
C2996 C2995 1.374 . S
C2997 C2994 1.499 . S
C2997 C2998 1.373 . S
C2997 C2999 1.389 . S
C2998 H2971 0.950 . S
C2998 C2984 1.377 . S
C2998 C2997 1.373 . S
C2999 C2983 1.377 . S
C2999 C2997 1.389 . S
C2999 C3000 1.524 . S
C3000 C2999 1.524 . S
C3000 C3001 1.397 . S
C3000 C3005 1.363 . S
C3001 H2972 0.950 . S
C3001 C3000 1.397 . S
C3001 C3002 1.334 . S
C3002 H2973 0.950 . S
C3002 C3001 1.334 . S
C3002 C3003 1.287 . S
C3003 C3002 1.287 . S
C3003 C3004 1.524 . S
C3003 H3006 0.999 . S
C3004 H2974 0.950 . S
C3004 C3003 1.524 . S
C3004 C3005 1.415 . S
C3005 H2975 0.950 . S
C3005 C3000 1.363 . S
C3005 C3004 1.415 . S
H3006 C3003 0.999 . S
H3007 C2988 0.913 . S
H3008 C3026 0.951 . S
H3009 C3028 0.951 . S
H3010 C3030 0.950 . S
H3011 C3031 0.950 . S
H3012 C3033 0.950 . S
H3013 C3036 0.950 . S
H3014 C3037 0.950 . S
H3015 C3039 0.950 . S
H3016 C3040 0.950 . S
H3017 C3041 0.951 . S
H3018 C3043 0.951 . S
H3019 C3045 0.950 . S
H3020 C3046 0.950 . S
H3021 C3048 0.950 . S
H3022 C3051 0.950 . S
H3023 C3052 0.950 . S
H3024 C3054 0.950 . S
H3025 C3055 0.950 . S
C3026 H3008 0.951 . S
C3026 C3027 1.366 . S
C3026 C3028 1.388 . S
C3027 C3026 1.366 . S
C3027 C3031 1.385 . S
C3028 H3009 0.951 . S
C3028 C3026 1.388 . S
C3028 C3029 1.366 . S
C3029 C3028 1.366 . S
C3029 C3030 1.414 . S
C3029 C3032 1.499 . S
C3030 H3010 0.950 . S
C3030 C3029 1.414 . S
C3030 C3031 1.374 . S
C3031 H3011 0.950 . S
C3031 C3027 1.385 . S
C3031 C3030 1.374 . S
C3032 C3029 1.499 . S
C3032 C3033 1.373 . S
C3032 C3034 1.389 . S
C3033 H3012 0.950 . S
C3033 C3032 1.373 . S
C3033 C3049 1.377 . S
C3034 C3032 1.389 . S
C3034 C3035 1.524 . S
C3034 C3048 1.377 . S
C3035 C3034 1.524 . S
C3035 C3036 1.397 . S
C3035 C3040 1.363 . S
C3036 H3013 0.950 . S
C3036 C3035 1.397 . S
C3036 C3037 1.334 . S
C3037 H3014 0.950 . S
C3037 C3036 1.334 . S
C3037 C3038 1.287 . S
C3038 C3037 1.287 . S
C3038 C3039 1.524 . S
C3038 H3057 0.913 . S
C3039 H3015 0.950 . S
C3039 C3038 1.524 . S
C3039 C3040 1.415 . S
C3040 H3016 0.950 . S
C3040 C3035 1.363 . S
C3040 C3039 1.415 . S
C3041 H3017 0.951 . S
C3041 C3042 1.366 . S
C3041 C3043 1.388 . S
C3042 C3041 1.366 . S
C3042 C3046 1.385 . S
C3043 H3018 0.951 . S
C3043 C3041 1.388 . S
C3043 C3044 1.366 . S
C3044 C3043 1.366 . S
C3044 C3045 1.414 . S
C3044 C3047 1.499 . S
C3045 H3019 0.950 . S
C3045 C3044 1.414 . S
C3045 C3046 1.374 . S
C3046 H3020 0.950 . S
C3046 C3042 1.385 . S
C3046 C3045 1.374 . S
C3047 C3044 1.499 . S
C3047 C3048 1.373 . S
C3047 C3049 1.389 . S
C3048 H3021 0.950 . S
C3048 C3034 1.377 . S
C3048 C3047 1.373 . S
C3049 C3033 1.377 . S
C3049 C3047 1.389 . S
C3049 C3050 1.524 . S
C3050 C3049 1.524 . S
C3050 C3051 1.397 . S
C3050 C3055 1.363 . S
C3051 H3022 0.950 . S
C3051 C3050 1.397 . S
C3051 C3052 1.334 . S
C3052 H3023 0.950 . S
C3052 C3051 1.334 . S
C3052 C3053 1.287 . S
C3053 C3052 1.287 . S
C3053 C3054 1.524 . S
C3053 H3056 0.999 1_565 S
C3054 H3024 0.950 . S
C3054 C3053 1.524 . S
C3054 C3055 1.415 . S
C3055 H3025 0.950 . S
C3055 C3050 1.363 . S
C3055 C3054 1.415 . S
H3056 C3053 0.999 1_545 S
H3057 C3038 0.913 . S
H3058 C3076 0.951 . S
H3059 C3078 0.951 . S
H3060 C3080 0.950 . S
H3061 C3081 0.950 . S
H3062 C3083 0.950 . S
H3063 C3086 0.950 . S
H3064 C3087 0.950 . S
H3065 C3089 0.950 . S
H3066 C3090 0.950 . S
H3067 C3091 0.951 . S
H3068 C3093 0.951 . S
H3069 C3095 0.950 . S
H3070 C3096 0.950 . S
H3071 C3098 0.950 . S
H3072 C3101 0.950 . S
H3073 C3102 0.950 . S
H3074 C3104 0.950 . S
H3075 C3105 0.950 . S
C3076 H3058 0.951 . S
C3076 C3077 1.366 . S
C3076 C3078 1.388 . S
C3077 C3076 1.366 . S
C3077 C3081 1.385 . S
C3078 H3059 0.951 . S
C3078 C3076 1.388 . S
C3078 C3079 1.366 . S
C3079 C3078 1.366 . S
C3079 C3080 1.414 . S
C3079 C3082 1.499 . S
C3080 H3060 0.950 . S
C3080 C3079 1.414 . S
C3080 C3081 1.374 . S
C3081 H3061 0.950 . S
C3081 C3077 1.385 . S
C3081 C3080 1.374 . S
C3082 C3079 1.499 . S
C3082 C3083 1.373 . S
C3082 C3084 1.389 . S
C3083 H3062 0.950 . S
C3083 C3082 1.373 . S
C3083 C3099 1.377 . S
C3084 C3082 1.389 . S
C3084 C3085 1.524 . S
C3084 C3098 1.377 . S
C3085 C3084 1.524 . S
C3085 C3086 1.397 . S
C3085 C3090 1.363 . S
C3086 H3063 0.950 . S
C3086 C3085 1.397 . S
C3086 C3087 1.334 . S
C3087 H3064 0.950 . S
C3087 C3086 1.334 . S
C3087 C3088 1.287 . S
C3088 C3087 1.287 . S
C3088 C3089 1.524 . S
C3088 H3107 0.913 . S
C3089 H3065 0.950 . S
C3089 C3088 1.524 . S
C3089 C3090 1.415 . S
C3090 H3066 0.950 . S
C3090 C3085 1.363 . S
C3090 C3089 1.415 . S
C3091 H3067 0.951 . S
C3091 C3092 1.366 . S
C3091 C3093 1.388 . S
C3092 C3091 1.366 . S
C3092 C3096 1.385 . S
C3093 H3068 0.951 . S
C3093 C3091 1.388 . S
C3093 C3094 1.366 . S
C3094 C3093 1.366 . S
C3094 C3095 1.414 . S
C3094 C3097 1.499 . S
C3095 H3069 0.950 . S
C3095 C3094 1.414 . S
C3095 C3096 1.374 . S
C3096 H3070 0.950 . S
C3096 C3092 1.385 . S
C3096 C3095 1.374 . S
C3097 C3094 1.499 . S
C3097 C3098 1.373 . S
C3097 C3099 1.389 . S
C3098 H3071 0.950 . S
C3098 C3084 1.377 . S
C3098 C3097 1.373 . S
C3099 C3083 1.377 . S
C3099 C3097 1.389 . S
C3099 C3100 1.524 . S
C3100 C3099 1.524 . S
C3100 C3101 1.397 . S
C3100 C3105 1.363 . S
C3101 H3072 0.950 . S
C3101 C3100 1.397 . S
C3101 C3102 1.334 . S
C3102 H3073 0.950 . S
C3102 C3101 1.334 . S
C3102 C3103 1.287 . S
C3103 C3102 1.287 . S
C3103 C3104 1.524 . S
C3103 H3106 0.999 . S
C3104 H3074 0.950 . S
C3104 C3103 1.524 . S
C3104 C3105 1.415 . S
C3105 H3075 0.950 . S
C3105 C3100 1.363 . S
C3105 C3104 1.415 . S
H3106 C3103 0.999 . S
H3107 C3088 0.913 . S
H3108 C3126 0.951 . S
H3109 C3128 0.951 . S
H3110 C3130 0.950 . S
H3111 C3131 0.950 . S
H3112 C3133 0.950 . S
H3113 C3136 0.950 . S
H3114 C3137 0.950 . S
H3115 C3139 0.950 . S
H3116 C3140 0.950 . S
H3117 C3141 0.951 . S
H3118 C3143 0.951 . S
H3119 C3145 0.950 . S
H3120 C3146 0.950 . S
H3121 C3148 0.950 . S
H3122 C3151 0.950 . S
H3123 C3152 0.950 . S
H3124 C3154 0.950 . S
H3125 C3155 0.950 . S
C3126 H3108 0.951 . S
C3126 C3127 1.366 . S
C3126 C3128 1.388 . S
C3127 C3126 1.366 . S
C3127 C3131 1.385 . S
C3128 H3109 0.951 . S
C3128 C3126 1.388 . S
C3128 C3129 1.366 . S
C3129 C3128 1.366 . S
C3129 C3130 1.414 . S
C3129 C3132 1.499 . S
C3130 H3110 0.950 . S
C3130 C3129 1.414 . S
C3130 C3131 1.374 . S
C3131 H3111 0.950 . S
C3131 C3127 1.385 . S
C3131 C3130 1.374 . S
C3132 C3129 1.499 . S
C3132 C3133 1.373 . S
C3132 C3134 1.389 . S
C3133 H3112 0.950 . S
C3133 C3132 1.373 . S
C3133 C3149 1.377 . S
C3134 C3132 1.389 . S
C3134 C3135 1.524 . S
C3134 C3148 1.377 . S
C3135 C3134 1.524 . S
C3135 C3136 1.397 . S
C3135 C3140 1.363 . S
C3136 H3113 0.950 . S
C3136 C3135 1.397 . S
C3136 C3137 1.334 . S
C3137 H3114 0.950 . S
C3137 C3136 1.334 . S
C3137 C3138 1.287 . S
C3138 C3137 1.287 . S
C3138 C3139 1.524 . S
C3138 H3157 0.913 . S
C3139 H3115 0.950 . S
C3139 C3138 1.524 . S
C3139 C3140 1.415 . S
C3140 H3116 0.950 . S
C3140 C3135 1.363 . S
C3140 C3139 1.415 . S
C3141 H3117 0.951 . S
C3141 C3142 1.366 . S
C3141 C3143 1.388 . S
C3142 C3141 1.366 . S
C3142 C3146 1.385 . S
C3143 H3118 0.951 . S
C3143 C3141 1.388 . S
C3143 C3144 1.366 . S
C3144 C3143 1.366 . S
C3144 C3145 1.414 . S
C3144 C3147 1.499 . S
C3145 H3119 0.950 . S
C3145 C3144 1.414 . S
C3145 C3146 1.374 . S
C3146 H3120 0.950 . S
C3146 C3142 1.385 . S
C3146 C3145 1.374 . S
C3147 C3144 1.499 . S
C3147 C3148 1.373 . S
C3147 C3149 1.389 . S
C3148 H3121 0.950 . S
C3148 C3134 1.377 . S
C3148 C3147 1.373 . S
C3149 C3133 1.377 . S
C3149 C3147 1.389 . S
C3149 C3150 1.524 . S
C3150 C3149 1.524 . S
C3150 C3151 1.397 . S
C3150 C3155 1.363 . S
C3151 H3122 0.950 . S
C3151 C3150 1.397 . S
C3151 C3152 1.334 . S
C3152 H3123 0.950 . S
C3152 C3151 1.334 . S
C3152 C3153 1.287 . S
C3153 C3152 1.287 . S
C3153 C3154 1.524 . S
C3153 H3156 0.999 . S
C3154 H3124 0.950 . S
C3154 C3153 1.524 . S
C3154 C3155 1.415 . S
C3155 H3125 0.950 . S
C3155 C3150 1.363 . S
C3155 C3154 1.415 . S
H3156 C3153 0.999 . S
H3157 C3138 0.913 . S
H3158 C3176 0.951 . S
H3159 C3178 0.951 . S
H3160 C3180 0.950 . S
H3161 C3181 0.950 . S
H3162 C3183 0.950 . S
H3163 C3186 0.950 . S
H3164 C3187 0.950 . S
H3165 C3189 0.950 . S
H3166 C3190 0.950 . S
H3167 C3191 0.951 . S
H3168 C3193 0.951 . S
H3169 C3195 0.950 . S
H3170 C3196 0.950 . S
H3171 C3198 0.950 . S
H3172 C3201 0.950 . S
H3173 C3202 0.950 . S
H3174 C3204 0.950 . S
H3175 C3205 0.950 . S
C3176 H3158 0.951 . S
C3176 C3177 1.366 . S
C3176 C3178 1.388 . S
C3177 C3176 1.366 . S
C3177 C3181 1.385 . S
C3178 H3159 0.951 . S
C3178 C3176 1.388 . S
C3178 C3179 1.366 . S
C3179 C3178 1.366 . S
C3179 C3180 1.414 . S
C3179 C3182 1.499 . S
C3180 H3160 0.950 . S
C3180 C3179 1.414 . S
C3180 C3181 1.374 . S
C3181 H3161 0.950 . S
C3181 C3177 1.385 . S
C3181 C3180 1.374 . S
C3182 C3179 1.499 . S
C3182 C3183 1.373 . S
C3182 C3184 1.389 . S
C3183 H3162 0.950 . S
C3183 C3182 1.373 . S
C3183 C3199 1.377 . S
C3184 C3182 1.389 . S
C3184 C3185 1.524 . S
C3184 C3198 1.377 . S
C3185 C3184 1.524 . S
C3185 C3186 1.397 . S
C3185 C3190 1.363 . S
C3186 H3163 0.950 . S
C3186 C3185 1.397 . S
C3186 C3187 1.334 . S
C3187 H3164 0.950 . S
C3187 C3186 1.334 . S
C3187 C3188 1.287 . S
C3188 C3187 1.287 . S
C3188 C3189 1.524 . S
C3188 H3207 0.913 . S
C3189 H3165 0.950 . S
C3189 C3188 1.524 . S
C3189 C3190 1.415 . S
C3190 H3166 0.950 . S
C3190 C3185 1.363 . S
C3190 C3189 1.415 . S
C3191 H3167 0.951 . S
C3191 C3192 1.366 . S
C3191 C3193 1.388 . S
C3192 C3191 1.366 . S
C3192 C3196 1.385 . S
C3193 H3168 0.951 . S
C3193 C3191 1.388 . S
C3193 C3194 1.366 . S
C3194 C3193 1.366 . S
C3194 C3195 1.414 . S
C3194 C3197 1.499 . S
C3195 H3169 0.950 . S
C3195 C3194 1.414 . S
C3195 C3196 1.374 . S
C3196 H3170 0.950 . S
C3196 C3192 1.385 . S
C3196 C3195 1.374 . S
C3197 C3194 1.499 . S
C3197 C3198 1.373 . S
C3197 C3199 1.389 . S
C3198 H3171 0.950 . S
C3198 C3184 1.377 . S
C3198 C3197 1.373 . S
C3199 C3183 1.377 . S
C3199 C3197 1.389 . S
C3199 C3200 1.524 . S
C3200 C3199 1.524 . S
C3200 C3201 1.397 . S
C3200 C3205 1.363 . S
C3201 H3172 0.950 . S
C3201 C3200 1.397 . S
C3201 C3202 1.334 . S
C3202 H3173 0.950 . S
C3202 C3201 1.334 . S
C3202 C3203 1.287 . S
C3203 C3202 1.287 . S
C3203 C3204 1.524 . S
C3203 H3206 0.999 . S
C3204 H3174 0.950 . S
C3204 C3203 1.524 . S
C3204 C3205 1.415 . S
C3205 H3175 0.950 . S
C3205 C3200 1.363 . S
C3205 C3204 1.415 . S
H3206 C3203 0.999 . S
H3207 C3188 0.913 . S
H3208 C3226 0.951 . S
H3209 C3228 0.951 . S
H3210 C3230 0.950 . S
H3211 C3231 0.950 . S
H3212 C3233 0.950 . S
H3213 C3236 0.950 . S
H3214 C3237 0.950 . S
H3215 C3239 0.950 . S
H3216 C3240 0.950 . S
H3217 C3241 0.951 . S
H3218 C3243 0.951 . S
H3219 C3245 0.950 . S
H3220 C3246 0.950 . S
H3221 C3248 0.950 . S
H3222 C3251 0.950 . S
H3223 C3252 0.950 . S
H3224 C3254 0.950 . S
H3225 C3255 0.950 . S
C3226 H3208 0.951 . S
C3226 C3227 1.366 . S
C3226 C3228 1.388 . S
C3227 C3226 1.366 . S
C3227 C3231 1.385 . S
C3228 H3209 0.951 . S
C3228 C3226 1.388 . S
C3228 C3229 1.366 . S
C3229 C3228 1.366 . S
C3229 C3230 1.414 . S
C3229 C3232 1.499 . S
C3230 H3210 0.950 . S
C3230 C3229 1.414 . S
C3230 C3231 1.374 . S
C3231 H3211 0.950 . S
C3231 C3227 1.385 . S
C3231 C3230 1.374 . S
C3232 C3229 1.499 . S
C3232 C3233 1.373 . S
C3232 C3234 1.389 . S
C3233 H3212 0.950 . S
C3233 C3232 1.373 . S
C3233 C3249 1.377 . S
C3234 C3232 1.389 . S
C3234 C3235 1.524 . S
C3234 C3248 1.377 . S
C3235 C3234 1.524 . S
C3235 C3236 1.397 . S
C3235 C3240 1.363 . S
C3236 H3213 0.950 . S
C3236 C3235 1.397 . S
C3236 C3237 1.334 . S
C3237 H3214 0.950 . S
C3237 C3236 1.334 . S
C3237 C3238 1.287 . S
C3238 C3237 1.287 . S
C3238 C3239 1.524 . S
C3238 H3257 0.913 . S
C3239 H3215 0.950 . S
C3239 C3238 1.524 . S
C3239 C3240 1.415 . S
C3240 H3216 0.950 . S
C3240 C3235 1.363 . S
C3240 C3239 1.415 . S
C3241 H3217 0.951 . S
C3241 C3242 1.366 . S
C3241 C3243 1.388 . S
C3242 C3241 1.366 . S
C3242 C3246 1.385 . S
C3243 H3218 0.951 . S
C3243 C3241 1.388 . S
C3243 C3244 1.366 . S
C3244 C3243 1.366 . S
C3244 C3245 1.414 . S
C3244 C3247 1.499 . S
C3245 H3219 0.950 . S
C3245 C3244 1.414 . S
C3245 C3246 1.374 . S
C3246 H3220 0.950 . S
C3246 C3242 1.385 . S
C3246 C3245 1.374 . S
C3247 C3244 1.499 . S
C3247 C3248 1.373 . S
C3247 C3249 1.389 . S
C3248 H3221 0.950 . S
C3248 C3234 1.377 . S
C3248 C3247 1.373 . S
C3249 C3233 1.377 . S
C3249 C3247 1.389 . S
C3249 C3250 1.524 . S
C3250 C3249 1.524 . S
C3250 C3251 1.397 . S
C3250 C3255 1.363 . S
C3251 H3222 0.950 . S
C3251 C3250 1.397 . S
C3251 C3252 1.334 . S
C3252 H3223 0.950 . S
C3252 C3251 1.334 . S
C3252 C3253 1.287 . S
C3253 C3252 1.287 . S
C3253 C3254 1.524 . S
C3253 H3256 0.999 . S
C3254 H3224 0.950 . S
C3254 C3253 1.524 . S
C3254 C3255 1.415 . S
C3255 H3225 0.950 . S
C3255 C3250 1.363 . S
C3255 C3254 1.415 . S
H3256 C3253 0.999 . S
H3257 C3238 0.913 . S
C892 C683 1.394 . S
C877 C74 1.344 . S
C942 C673 0.474 . S
C927 C142 0.798 . S
C992 C674 0.937 . S
C977 C231 0.905 . S
C1027 C322 1.434 . S
C1042 C696 1.544 . S
C1077 C406 0.794 . S
C1092 C699 0.470 . S
C1142 C682 0.937 . S
C1127 C494 0.905 . S
C1177 C562 1.435 . S
C1192 C672 1.545 . S
C1227 C651 1.345 . S
C1242 C690 1.394 . S
C1292 C703 1.574 . S
C1277 C58 1.485 . S
C1327 C151 1.434 . S
C1342 C752 1.424 . S
C1392 C730 2.654 . S
C1377 C224 2.552 . S
C1442 C744 0.855 . S
C1427 C315 0.851 . S
C1477 C399 0.853 . S
C1492 C705 0.856 . S
C1542 C758 1.566 . S
C1527 C478 1.502 . S
C1577 C571 1.391 . S
C1592 C714 1.421 . S
C1627 C644 2.544 . S
C1642 C735 2.631 . S
C1677 C67 2.545 . S
C1692 C761 2.627 . S
C1727 C392 1.434 . S
C1742 C745 1.430 . S
C1792 C704 2.654 . S
C1777 C487 2.554 . S
C1842 C736 0.857 . S
C1827 C578 0.859 . S
C1877 C658 1.487 . S
C1892 C727 1.577 . S
C1927 C238 1.498 . S
C1942 C734 1.564 . S
C1992 C721 1.417 . S
C1977 C308 1.388 . S
C2027 C158 0.853 . S
C2042 C713 0.851 . S
C2077 C662 1.345 . S
C2092 C776 1.397 . S
C2127 C394 0.797 . S
C2142 C766 0.477 . S
C2192 C767 0.937 . S
C2177 C483 0.906 . S
C2242 C789 1.545 . S
C2227 C574 1.439 . S
C2277 C154 0.795 . S
C2292 C792 0.470 . S
C2342 C775 0.936 . S
C2327 C242 0.905 . S
C2377 C310 1.435 . S
C2392 C765 1.541 . S
C2427 C63 1.346 . S
C2442 C783 1.391 . S
C2477 C646 1.486 . S
C2492 C796 1.574 . S
C2542 C845 1.426 . S
C2527 C403 1.434 . S
C2577 C476 2.552 . S
C2592 C823 2.654 . S
C2627 C567 0.855 . S
C2642 C837 0.855 . S
C2692 C798 0.853 . S
C2677 C147 0.853 . S
C2727 C226 1.498 . S
C2742 C851 1.567 . S
C2792 C807 1.417 . S
C2777 C319 1.390 . S
C2842 C828 2.629 . S
C2827 C56 2.544 . S
C2892 C854 2.629 . S
C2877 C655 2.545 . S
C2927 C140 1.435 . S
C2942 C838 1.426 . S
C2977 C235 2.553 . S
C2992 C797 2.654 . S
C3042 C829 0.854 . S
C3027 C326 0.854 . S
C3077 C70 1.486 . S
C3092 C820 1.573 . S
C3127 C490 1.499 . S
C3142 C827 1.567 . S
C3192 C814 1.417 . S
C3177 C560 1.390 . S
C3242 C806 0.854 . S
C3227 C410 0.854 . S
