# Generated by pormake.
# Topology pth, (4,4)-cn, num edge types: 1
# Building blocks:
#     Node 0, Type 0, BuildingBlock: QUQFOY_clean_sbu_1, # of connection points: 4
#     Node 1, Type 0, BuildingBlock: QUQFOY_clean_sbu_1, # of connection points: 4
#     Node 2, Type 0, BuildingBlock: QUQFOY_clean_sbu_1, # of connection points: 4
#     Node 3, Type 1, BuildingBlock: NAWXER_clean_sbu_0, # of connection points: 4
#     Node 4, Type 1, BuildingBlock: NAWXER_clean_sbu_0, # of connection points: 4
#     Node 5, Type 1, BuildingBlock: NAWXER_clean_sbu_0, # of connection points: 4
#     Edge 6, Type (0, 1), BuildingBlock: UVAHIK_clean_linker_0, # of connection points: 2
#     Edge 7, Type (0, 1), BuildingBlock: UVAHIK_clean_linker_0, # of connection points: 2
#     Edge 8, Type (0, 1), BuildingBlock: UVAHIK_clean_linker_0, # of connection points: 2
#     Edge 9, Type (0, 1), BuildingBlock: UVAHIK_clean_linker_0, # of connection points: 2
#     Edge 10, Type (0, 1), BuildingBlock: UVAHIK_clean_linker_0, # of connection points: 2
#     Edge 11, Type (0, 1), BuildingBlock: UVAHIK_clean_linker_0, # of connection points: 2
#     Edge 12, Type (0, 1), BuildingBlock: UVAHIK_clean_linker_0, # of connection points: 2
#     Edge 13, Type (0, 1), BuildingBlock: UVAHIK_clean_linker_0, # of connection points: 2
#     Edge 14, Type (0, 1), BuildingBlock: UVAHIK_clean_linker_0, # of connection points: 2
#     Edge 15, Type (0, 1), BuildingBlock: UVAHIK_clean_linker_0, # of connection points: 2
#     Edge 16, Type (0, 1), BuildingBlock: UVAHIK_clean_linker_0, # of connection points: 2
#     Edge 17, Type (0, 1), BuildingBlock: UVAHIK_clean_linker_0, # of connection points: 2
# Relax obj value: 0.022
# Max RMSD: 0.120
# Mean RMSD: 0.065
data_MOF--net-pth--node1-QUQFOY_clean_sbu_1--node2-NAWXER_clean_sbu_0--edge1-UVAHIK_clean_linker_0
_symmetry_space_group_name_H-M    P1
_symmetry_Int_Tables_number       1
_symmetry_cell_setting            triclinic
loop_
_symmetry_equiv_pos_as_xyz
'x, y, z'
_cell_length_a     28.608023
_cell_length_b     31.037852
_cell_length_c     76.118354
_cell_angle_alpha  89.977436
_cell_angle_beta   89.977902
_cell_angle_gamma 120.04602
loop_
_atom_site_label
_atom_site_type_symbol
_atom_site_fract_x
_atom_site_fract_y
_atom_site_fract_z
_atom_type_partial_charge
O0 O 0.03088 0.07233 0.09172 0.0
Cd1 Cd 0.97395 0.02207 0.10872 0.0
Cd2 Cd 0.04102 0.98875 0.10932 0.0
O3 O 0.09637 0.05943 0.10032 0.0
O4 O 0.93681 0.05643 0.11883 0.0
O5 O 0.99209 0.04006 0.13403 0.0
C6 C 0.96344 0.06155 0.13313 0.0
C7 C 0.04805 0.94722 0.13373 0.0
C8 C 0.08058 0.0851 0.09177 0.0
C9 C 0.93773 0.92725 0.0904 0.0
O10 O 0.9874 0.94019 0.09124 0.0
O11 O 0.92029 0.952 0.09872 0.0
O12 O 0.07678 0.95364 0.11984 0.0
O13 O 0.01903 0.96837 0.13428 0.0
O14 O 0.95362 0.02822 0.44879 0.0
Cd15 Cd 0.02055 0.05366 0.43291 0.0
Cd16 Cd 0.98942 0.95629 0.4328 0.0
O17 O 0.91991 0.94781 0.4445 0.0
O18 O 0.03642 0.12119 0.42553 0.0
O19 O 0.00884 0.05812 0.40702 0.0
C20 C 0.02162 0.10378 0.40988 0.0
C21 C 0.98676 0.90615 0.40954 0.0
C22 C 0.91603 0.98356 0.45107 0.0
C23 C 0.09457 0.02628 0.45063 0.0
O24 O 0.05698 0.98163 0.44835 0.0
O25 O 0.09046 0.06212 0.44425 0.0
O26 O 0.97286 0.8887 0.42524 0.0
O27 O 0.99986 0.95195 0.4068 0.0
O28 O 0.92593 0.97805 0.75607 0.0
Cd29 Cd 0.96568 0.95264 0.77177 0.0
Cd30 Cd 0.04178 0.05005 0.77109 0.0
O31 O 0.98239 0.05862 0.7588 0.0
O32 O 0.90831 0.88628 0.78019 0.0
O33 O 0.95277 0.95087 0.79786 0.0
C34 C 0.91514 0.90514 0.79571 0.0
C35 C 0.09471 0.10359 0.79351 0.0
C36 C 0.93834 0.0228 0.753 0.0
C37 C 0.06851 0.97716 0.75397 0.0
O38 O 0.08094 0.02216 0.75636 0.0
O39 O 0.02449 0.94199 0.76008 0.0
O40 O 0.10056 0.11802 0.77738 0.0
O41 O 0.05669 0.05891 0.79711 0.0
C42 C 0.0441 0.57608 0.29129 0.0
C43 C 0.03898 0.46142 0.24591 0.0
O44 O 0.08519 0.57797 0.28403 0.0
Zn45 Zn 0.04519 0.5206 0.26856 0.0
O46 O 0.99654 0.54287 0.28656 0.0
Zn47 Zn 0.9579 0.48346 0.26821 0.0
O48 O 0.91674 0.42588 0.28343 0.0
O49 O 0.00513 0.46074 0.28674 0.0
O50 O 0.99263 0.45482 0.25031 0.0
O51 O 0.08131 0.4954 0.25335 0.0
O52 O 0.01171 0.54979 0.25035 0.0
O53 O 0.92281 0.50896 0.25272 0.0
C54 C 0.95714 0.42747 0.29109 0.0
C55 C 0.96566 0.54325 0.2456 0.0
C56 C 0.58284 0.04012 0.62536 0.0
C57 C 0.46345 0.04059 0.57964 0.0
O58 O 0.54669 0.99621 0.62063 0.0
Zn59 Zn 0.481 0.9621 0.60227 0.0
O60 O 0.58479 0.07774 0.61798 0.0
Zn61 Zn 0.52361 0.0413 0.60253 0.0
O62 O 0.45754 0.0062 0.62074 0.0
O63 O 0.41942 0.92485 0.61753 0.0
O64 O 0.50181 0.07801 0.58727 0.0
O65 O 0.4523 0.99659 0.58411 0.0
O66 O 0.50327 0.92621 0.58679 0.0
O67 O 0.55297 0.0078 0.58418 0.0
C68 C 0.42126 0.96203 0.6252 0.0
C69 C 0.54196 0.96406 0.57943 0.0
C70 C 0.42716 0.46907 0.97089 0.0
C71 C 0.53455 0.58642 0.92431 0.0
O72 O 0.41927 0.50289 0.96453 0.0
Zn73 Zn 0.47877 0.52908 0.94771 0.0
O74 O 0.4655 0.46335 0.96484 0.0
Zn75 Zn 0.52814 0.49438 0.94566 0.0
O76 O 0.59287 0.51987 0.96035 0.0
O77 O 0.54638 0.55812 0.9647 0.0
O78 O 0.54869 0.55428 0.92797 0.0
O79 O 0.49623 0.58645 0.93279 0.0
O80 O 0.4511 0.46911 0.92953 0.0
O81 O 0.50596 0.43836 0.92959 0.0
C82 C 0.5865 0.55238 0.96851 0.0
C83 C 0.46373 0.43747 0.92377 0.0
C84 C 0.00699 0.11241 0.16007 0.0
C85 C 0.96701 0.0966 0.14699 0.0
C86 C 0.01725 0.15221 0.17114 0.0
C87 C 0.99972 0.26265 0.17219 0.0
H88 H 0.04152 0.27081 0.22107 0.0
C89 C 0.99895 0.40417 0.2205 0.0
C90 C 0.04107 0.42735 0.23277 0.0
C91 C 0.99563 0.36695 0.20945 0.0
C92 C 0.03072 0.26935 0.20735 0.0
H93 H 0.90409 0.10804 0.13607 0.0
H94 H 0.92068 0.1762 0.15571 0.0
H95 H 0.0201 0.19642 0.20401 0.0
H96 H 0.11363 0.43063 0.24278 0.0
H97 H 0.10752 0.36458 0.22341 0.0
H98 H 0.00909 0.33501 0.17566 0.0
C99 C 0.94537 0.15899 0.15707 0.0
C100 C 0.01827 0.22667 0.19758 0.0
C101 C 0.93539 0.11948 0.14593 0.0
C102 C 0.08096 0.41361 0.23336 0.0
C103 C 0.07717 0.37558 0.22241 0.0
C104 C 0.0118 0.30504 0.18197 0.0
C105 C 0.98754 0.17691 0.16945 0.0
C106 C 1.00189 0.2225 0.17992 0.0
C107 C 0.03401 0.35147 0.2105 0.0
C108 C 0.02679 0.30865 0.19971 0.0
H109 H 0.0323 0.09576 0.16118 0.0
H110 H 0.05015 0.16502 0.18045 0.0
H111 H 0.98878 0.26148 0.15851 0.0
H112 H 0.96762 0.41401 0.21972 0.0
H113 H 0.96166 0.34887 0.20055 0.0
C114 C 0.86196 0.01358 0.46736 0.0
C115 C 0.86867 0.97374 0.46192 0.0
C116 C 0.81935 0.00544 0.47837 0.0
C117 C 0.72793 0.91951 0.51174 0.0
H118 H 0.65589 0.99615 0.50551 0.0
C119 C 0.5661 0.91169 0.56034 0.0
C120 C 0.57377 0.95857 0.56513 0.0
C121 C 0.59628 0.90742 0.54663 0.0
C122 C 0.6757 0.97455 0.50745 0.0
H123 H 0.83512 0.89381 0.46358 0.0
H124 H 0.7603 0.87959 0.48295 0.0
H125 H 0.71818 0.99913 0.48307 0.0
H126 H 0.61924 0.03766 0.55928 0.0
H127 H 0.67146 0.03015 0.53559 0.0
H128 H 0.68615 0.89588 0.53638 0.0
C129 C 0.78842 0.91718 0.47869 0.0
C130 C 0.71137 0.97625 0.4946 0.0
C131 C 0.83106 0.92531 0.46753 0.0
C132 C 0.61215 1.00093 0.55595 0.0
C133 C 0.64186 0.99662 0.54224 0.0
C134 C 0.69206 0.91775 0.52463 0.0
C135 C 0.7823 0.95726 0.48429 0.0
C136 C 0.73903 0.94986 0.49681 0.0
C137 C 0.6342 0.94989 0.53737 0.0
C138 C 0.66674 0.94637 0.52283 0.0
H139 H 0.8901 0.05137 0.4633 0.0
H140 H 0.81633 0.03724 0.48265 0.0
H141 H 0.74887 0.899 0.51388 0.0
H142 H 0.53686 0.87835 0.56717 0.0
H143 H 0.58947 0.8709 0.54313 0.0
C144 C 0.84484 0.82409 0.80835 0.0
C145 C 0.87813 0.87579 0.81014 0.0
C146 C 0.80563 0.79657 0.82095 0.0
C147 C 0.7608 0.80055 0.86651 0.0
H148 H 0.62673 0.68953 0.84942 0.0
C149 C 0.57806 0.67294 0.91176 0.0
C150 C 0.56396 0.62275 0.91023 0.0
C151 C 0.61267 0.70795 0.89937 0.0
C152 C 0.66385 0.7206 0.85436 0.0
H153 H 0.89727 0.93912 0.82681 0.0
H154 H 0.82784 0.89118 0.84872 0.0
H155 H 0.69631 0.74307 0.82856 0.0
H156 H 0.57258 0.56929 0.8943 0.0
H157 H 0.6311 0.62977 0.87248 0.0
H158 H 0.72752 0.77757 0.89239 0.0
C159 C 0.83259 0.87171 0.83768 0.0
C160 C 0.70403 0.75104 0.84244 0.0
C161 C 0.8724 0.89924 0.82512 0.0
C162 C 0.58285 0.60778 0.89577 0.0
C163 C 0.6162 0.64234 0.88326 0.0
C164 C 0.72016 0.77034 0.87845 0.0
C165 C 0.79803 0.82009 0.83559 0.0
C166 C 0.75368 0.79061 0.84836 0.0
C167 C 0.63235 0.69289 0.88509 0.0
C168 C 0.67186 0.72938 0.87249 0.0
H169 H 0.84857 0.80483 0.79704 0.0
H170 H 0.78101 0.75673 0.81913 0.0
H171 H 0.79852 0.83044 0.87158 0.0
H172 H 0.56437 0.6854 0.9229 0.0
H173 H 0.62455 0.74677 0.90103 0.0
C174 C 0.07516 0.88896 0.14683 0.0
C175 C 0.04297 0.91133 0.14749 0.0
C176 C 0.06425 0.84892 0.15783 0.0
C177 C 0.98734 0.77877 0.19746 0.0
H178 H 1.00052 0.67238 0.17569 0.0
C179 C 0.92392 0.59082 0.23266 0.0
C180 C 0.9644 0.57778 0.23247 0.0
C181 C 0.92815 0.6291 0.22175 0.0
C182 C 0.99667 0.70179 0.18196 0.0
H183 H 0.97556 0.91061 0.16083 0.0
H184 H 0.95611 0.84041 0.17986 0.0
H185 H 0.02153 0.74644 0.15873 0.0
H186 H 0.03944 0.59268 0.22016 0.0
H187 H 0.0462 0.6583 0.20105 0.0
H188 H 0.96231 0.73358 0.22071 0.0
C189 C 0.99016 0.85405 0.17097 0.0
C190 C 0.00914 0.74447 0.17229 0.0
C191 C 1.00133 0.89438 0.16003 0.0
C192 C 0.00764 0.60197 0.22063 0.0
C193 C 0.01142 0.63946 0.20962 0.0
C194 C 0.97452 0.7358 0.20712 0.0
C195 C 0.02058 0.82994 0.16967 0.0
C196 C 0.00556 0.78394 0.17998 0.0
C197 C 0.97237 0.65418 0.21027 0.0
C198 C 0.97991 0.69721 0.19954 0.0
H199 H 0.10774 0.90128 0.13739 0.0
H200 H 0.08947 0.83217 0.15679 0.0
H201 H 0.98438 0.80848 0.20385 0.0
H202 H 0.89036 0.57301 0.24175 0.0
H203 H 0.89727 0.63951 0.22244 0.0
C204 C 0.1792 0.08424 0.46725 0.0
C205 C 0.14204 0.03599 0.46138 0.0
C206 C 0.22165 0.09215 0.47845 0.0
C207 C 0.29895 0.03313 0.49421 0.0
H208 H 0.32123 0.11081 0.53648 0.0
C209 C 0.39454 0.00504 0.55578 0.0
C210 C 0.43233 0.04686 0.56531 0.0
C211 C 0.36563 0.01012 0.54199 0.0
C212 C 0.31615 0.08971 0.5246 0.0
H213 H 0.12132 0.9585 0.46229 0.0
H214 H 0.19477 0.97224 0.4817 0.0
H215 H 0.25961 0.10867 0.51378 0.0
H216 H 0.469 0.12694 0.56787 0.0
H217 H 0.41774 0.13574 0.54369 0.0
H218 H 0.3541 0.01295 0.5052 0.0
C219 C 0.19154 1.00408 0.4776 0.0
C220 C 0.28092 0.08852 0.51159 0.0
C221 C 0.14911 0.99615 0.46655 0.0
C222 C 0.44019 0.094 0.56078 0.0
C223 C 0.4108 0.09903 0.54699 0.0
C224 C 0.33397 0.03426 0.50718 0.0
C225 C 0.22803 0.05204 0.48382 0.0
C226 C 0.27084 0.0591 0.49647 0.0
C227 C 0.37351 0.05711 0.53738 0.0
C228 C 0.34183 0.06144 0.52273 0.0
H229 H 0.17485 0.11573 0.46351 0.0
H230 H 0.24935 0.12958 0.48294 0.0
H231 H 0.29293 0.01097 0.48254 0.0
H232 H 0.38732 0.96814 0.5589 0.0
H233 H 0.33648 0.97698 0.53506 0.0
C234 C 0.12818 0.12118 0.82471 0.0
C235 C 0.13255 0.13677 0.80715 0.0
C236 C 0.1659 0.15219 0.83726 0.0
C237 C 0.26619 0.2844 0.84535 0.0
H238 H 0.32001 0.23204 0.88141 0.0
C239 C 0.38192 0.40149 0.90474 0.0
C240 C 0.42819 0.40065 0.91048 0.0
C241 C 0.34787 0.36796 0.89215 0.0
C242 C 0.30573 0.24722 0.87131 0.0
H243 H 0.18024 0.197 0.78898 0.0
H244 H 0.24579 0.25052 0.81069 0.0
H245 H 0.25629 0.17579 0.85937 0.0
H246 H 0.47438 0.36304 0.90759 0.0
H247 H 0.41443 0.30407 0.88528 0.0
H248 H 0.31578 0.35572 0.85703 0.0
C249 C 0.21292 0.21477 0.8149 0.0
C250 C 0.26873 0.21496 0.85883 0.0
C251 C 0.17531 0.18394 0.80242 0.0
C252 C 0.43917 0.36477 0.90341 0.0
C253 C 0.40474 0.33089 0.89072 0.0
C254 C 0.30298 0.31649 0.85777 0.0
C255 C 0.20871 0.1994 0.83249 0.0
C256 C 0.24834 0.2332 0.84575 0.0
C257 C 0.35899 0.33256 0.88484 0.0
C258 C 0.32276 0.29829 0.87101 0.0
H259 H 0.0958 0.08497 0.82876 0.0
H260 H 0.16113 0.13946 0.85074 0.0
H261 H 0.25101 0.29973 0.8356 0.0
H262 H 0.37174 0.42823 0.90995 0.0
H263 H 0.31244 0.36964 0.88821 0.0
C264 C 0.85086 0.99299 0.73721 0.0
C265 C 0.90167 0.0326 0.74213 0.0
C266 C 0.81697 1.0011 0.72626 0.0
C267 C 0.81889 0.08556 0.69225 0.0
H268 H 0.6639 0.01159 0.69951 0.0
C269 C 0.66455 0.09301 0.64408 0.0
C270 C 0.62078 0.04606 0.63964 0.0
C271 C 0.69973 0.09768 0.65772 0.0
C272 C 0.7071 0.03246 0.69729 0.0
H273 H 0.95629 0.11212 0.73959 0.0
H274 H 0.8967 0.12627 0.72035 0.0
H275 H 0.72361 0.00896 0.72177 0.0
H276 H 0.57967 0.96732 0.64608 0.0
H277 H 0.64063 0.97553 0.66966 0.0
H278 H 0.802 0.10813 0.66753 0.0
C279 C 0.88344 0.08888 0.72496 0.0
C280 C 0.74129 0.03094 0.71003 0.0
C281 C 0.9174 0.08078 0.73605 0.0
C282 C 0.61291 1.00408 0.64913 0.0
C283 C 0.64763 0.0088 0.66277 0.0
C284 C 0.78457 0.08717 0.67948 0.0
C285 C 0.83294 0.04902 0.71989 0.0
C286 C 0.79748 0.05633 0.70744 0.0
C287 C 0.69135 0.05558 0.66726 0.0
C288 C 0.72824 0.05949 0.68167 0.0
H289 H 0.83737 0.95539 0.74164 0.0
H290 H 0.77873 0.96943 0.72239 0.0
H291 H 0.86198 0.10528 0.68981 0.0
H292 H 0.67172 0.12607 0.63702 0.0
H293 H 0.73307 0.13423 0.66093 0.0
C294 C 0.92134 0.85638 0.07079 0.0
C295 C 0.90117 0.88378 0.07944 0.0
C296 C 0.88804 0.81629 0.05998 0.0
C297 C 0.74512 0.72675 0.05002 0.0
H298 H 0.80165 0.71556 0.00496 0.0
C299 C 0.60818 0.61114 0.99345 0.0
C300 C 0.62369 0.58379 0.98259 0.0
C301 C 0.64279 0.6428 0.00634 0.0
C302 C 0.78558 0.7176 0.01762 0.0
H303 H 0.82979 0.88996 0.08365 0.0
H304 H 0.77157 0.82 0.0646 0.0
H305 H 0.86007 0.78133 0.02533 0.0
H306 H 0.68762 0.56764 0.977 0.0
H307 H 0.7489 0.62374 0.99972 0.0
H308 H 0.67035 0.6636 0.04217 0.0
C309 C 0.81317 0.82937 0.06636 0.0
C310 C 0.81897 0.75538 0.02929 0.0
C311 C 0.84659 0.86962 0.07721 0.0
C312 C 0.67457 0.58825 0.98516 0.0
C313 C 0.70964 0.62048 0.99808 0.0
C314 C 0.71177 0.68901 0.03837 0.0
C315 C 0.83368 0.80248 0.05753 0.0
C316 C 0.7989 0.76083 0.04552 0.0
C317 C 0.69406 0.64821 0.00876 0.0
C318 C 0.73134 0.68452 0.02191 0.0
H319 H 0.9631 0.86597 0.07227 0.0
H320 H 0.90491 0.79594 0.05359 0.0
H321 H 0.72873 0.7293 0.06255 0.0
H322 H 0.5692 0.60854 0.99194 0.0
H323 H 0.62979 0.66414 0.01412 0.0
C324 C 0.96461 0.82318 0.39759 0.0
C325 C 0.99085 0.8751 0.39556 0.0
C326 C 0.97224 0.79377 0.38535 0.0
C327 C 0.0693 0.79583 0.35395 0.0
H328 H 0.94657 0.67475 0.33647 0.0
C329 C 0.08681 0.66328 0.30312 0.0
C330 C 0.04901 0.61235 0.30474 0.0
C331 C 0.08341 0.69804 0.31405 0.0
C332 C 0.98146 0.708 0.34141 0.0
H333 H 0.04536 0.93696 0.37902 0.0
H334 H 0.05933 0.88526 0.35766 0.0
H335 H 0.93172 0.73042 0.35507 0.0
H336 H 0.98096 0.55733 0.3198 0.0
H337 H 0.97664 0.6171 0.33932 0.0
H338 H 0.11917 0.77261 0.3407 0.0
C339 C 0.03267 0.86753 0.36872 0.0
C340 C 0.97281 0.74008 0.35197 0.0
C341 C 0.02429 0.89698 0.38085 0.0
C342 C 0.01026 0.59649 0.31816 0.0
C343 C 0.00742 0.63088 0.32921 0.0
C344 C 0.07806 0.76333 0.3435 0.0
C345 C 0.00691 0.81564 0.37093 0.0
C346 C 0.01656 0.78399 0.35854 0.0
C347 C 0.04251 0.68225 0.3269 0.0
C348 C 0.03419 0.71854 0.33734 0.0
H349 H 0.93869 0.80523 0.4088 0.0
H350 H 0.95215 0.75391 0.38744 0.0
H351 H 0.10379 0.82935 0.35895 0.0
H352 H 0.11678 0.67641 0.29275 0.0
H353 H 0.11113 0.73728 0.31188 0.0
C354 C 0.15642 0.00546 0.73868 0.0
C355 C 0.10496 0.96643 0.74337 0.0
C356 C 0.18988 0.99686 0.7277 0.0
C357 C 0.18589 0.91352 0.69299 0.0
H358 H 0.34093 0.98507 0.70016 0.0
C359 C 0.33925 0.90811 0.64371 0.0
C360 C 0.38322 0.95527 0.63957 0.0
C361 C 0.30415 0.90261 0.6575 0.0
C362 C 0.29771 0.96485 0.69797 0.0
H363 H 0.04879 0.88736 0.74046 0.0
H364 H 0.10768 0.87231 0.72114 0.0
H365 H 0.28184 0.98688 0.72285 0.0
H366 H 0.42473 0.03352 0.64669 0.0
H367 H 0.36394 0.02386 0.67056 0.0
H368 H 0.20218 0.89252 0.66787 0.0
C369 C 0.12177 0.90964 0.72597 0.0
C370 C 0.26387 0.96589 0.71096 0.0
C371 C 0.08823 0.91822 0.7371 0.0
C372 C 0.39133 0.99663 0.6495 0.0
C373 C 0.35671 0.99107 0.6633 0.0
C374 C 0.21986 0.91237 0.67997 0.0
C375 C 0.17284 0.94902 0.72105 0.0
C376 C 0.2077 0.9415 0.70841 0.0
C377 C 0.31286 0.94406 0.6675 0.0
C378 C 0.27622 0.93927 0.68213 0.0
H379 H 0.17069 0.04305 0.74327 0.0
H380 H 0.22859 0.02818 0.72397 0.0
H381 H 0.14281 0.8946 0.69058 0.0
H382 H 0.3319 0.87553 0.6363 0.0
H383 H 0.27067 0.86592 0.66048 0.0
C384 C 0.17253 0.14004 0.07869 0.0
C385 C 0.11909 0.1291 0.08139 0.0
C386 C 0.20737 0.17994 0.06794 0.0
C387 C 0.22719 0.29642 0.04758 0.0
H388 H 0.31112 0.27114 0.01344 0.0
C389 C 0.34263 0.43019 0.98943 0.0
C390 C 0.39301 0.4355 0.98511 0.0
C391 C 0.30962 0.39517 1.00207 0.0
C392 C 0.28852 0.27912 0.02304 0.0
H393 H 0.06094 0.15253 0.07536 0.0
H394 H 0.12154 0.22168 0.05664 0.0
H395 H 0.25467 0.20646 0.03432 0.0
H396 H 0.44943 0.41015 0.99133 0.0
H397 H 0.39283 0.35044 0.01336 0.0
H398 H 0.26114 0.36921 0.0362 0.0
C399 C 0.13664 0.19969 0.06287 0.0
C400 C 0.2562 0.242 0.03502 0.0
C401 C 0.10181 0.15975 0.07352 0.0
C402 C 0.41047 0.40653 0.99411 0.0
C403 C 0.37786 0.372 0.00671 0.0
C404 C 0.25974 0.33372 0.03559 0.0
C405 C 0.18959 0.20987 0.05977 0.0
C406 C 0.22521 0.25019 0.04745 0.0
C407 C 0.32661 0.36509 0.01062 0.0
C408 C 0.29094 0.32553 0.02322 0.0
H409 H 0.18715 0.11727 0.0846 0.0
H410 H 0.2482 0.18724 0.06596 0.0
H411 H 0.20401 0.30396 0.05709 0.0
H412 H 0.32811 0.45199 0.98272 0.0
H413 H 0.27022 0.39061 1.00475 0.0
C414 C 0.03893 0.18599 0.39857 0.0
C415 C 0.01527 0.13438 0.39621 0.0
C416 C 0.02768 0.2145 0.38699 0.0
C417 C 0.96905 0.21353 0.34321 0.0
H418 H 0.95802 0.32235 0.36386 0.0
C419 C 0.9114 0.34046 0.30322 0.0
C420 C 0.95071 0.39102 0.3047 0.0
C421 C 0.91185 0.3054 0.31477 0.0
C422 C 0.96076 0.29196 0.35793 0.0
H423 H 0.96239 0.07231 0.37953 0.0
H424 H 0.9417 0.12193 0.35945 0.0
H425 H 0.97525 0.26834 0.38266 0.0
H426 H 0.01941 0.44502 0.31979 0.0
H427 H 0.01905 0.38439 0.3402 0.0
H428 H 0.95415 0.23755 0.31844 0.0
C429 C 0.96969 0.1406 0.37011 0.0
C430 C 0.97118 0.26124 0.36866 0.0
C431 C 0.98153 0.1121 0.38162 0.0
C432 C 0.98861 0.40624 0.31838 0.0
C433 C 0.98833 0.37157 0.33009 0.0
C434 C 0.95795 0.24402 0.33249 0.0
C435 C 0.99178 0.19206 0.37286 0.0
C436 C 0.97681 0.22234 0.36141 0.0
C437 C 0.95077 0.3207 0.32819 0.0
C438 C 0.95487 0.28418 0.33971 0.0
H439 H 0.06549 0.20435 0.4096 0.0
H440 H 0.04682 0.2542 0.38925 0.0
H441 H 0.9734 0.1842 0.33713 0.0
H442 H 0.88211 0.32779 0.29266 0.0
H443 H 0.88236 0.26636 0.31309 0.0
loop_
_geom_bond_atom_site_label_1
_geom_bond_atom_site_label_2
_geom_bond_distance
_geom_bond_site_symmetry_2
_ccdc_geom_bond_type
O0 Cd1 2.223 1_455 S
O0 C8 1.315 . S
Cd1 O0 2.223 1_655 S
Cd1 O4 2.297 . S
Cd1 O5 2.439 . S
Cd1 O11 2.240 1_545 S
Cd2 O3 2.240 1_565 S
Cd2 O10 2.223 1_455 S
Cd2 O12 2.297 . S
Cd2 O13 2.439 . S
O3 Cd2 2.240 1_545 S
O3 C8 1.279 . S
O4 Cd1 2.297 . S
O4 C6 1.247 . S
O5 Cd1 2.439 . S
O5 C6 1.208 . S
C6 O4 1.247 . S
C6 O5 1.208 . S
C7 O12 1.247 . S
C7 O13 1.208 . S
C8 O0 1.315 . S
C8 O3 1.279 . S
C9 O10 1.315 . S
C9 O11 1.279 . S
O10 Cd2 2.223 1_655 S
O10 C9 1.315 . S
O11 Cd1 2.240 1_565 S
O11 C9 1.279 . S
O12 Cd2 2.297 . S
O12 C7 1.247 . S
O13 Cd2 2.439 . S
O13 C7 1.208 . S
O14 Cd15 2.223 1_655 S
O14 C22 1.315 . S
Cd15 O14 2.223 1_455 S
Cd15 O18 2.297 . S
Cd15 O19 2.439 . S
Cd15 O25 2.240 . S
Cd16 O17 2.240 . S
Cd16 O24 2.223 1_655 S
Cd16 O26 2.297 . S
Cd16 O27 2.439 . S
O17 Cd16 2.240 . S
O17 C22 1.279 1_565 S
O18 Cd15 2.297 . S
O18 C20 1.247 . S
O19 Cd15 2.439 . S
O19 C20 1.208 . S
C20 O18 1.247 . S
C20 O19 1.208 . S
C21 O26 1.247 . S
C21 O27 1.208 . S
C22 O14 1.315 . S
C22 O17 1.279 1_545 S
C23 O24 1.315 . S
C23 O25 1.279 1_565 S
O24 Cd16 2.223 1_455 S
O24 C23 1.315 . S
O25 Cd15 2.240 . S
O25 C23 1.279 1_545 S
O26 Cd16 2.297 . S
O26 C21 1.247 . S
O27 Cd16 2.439 . S
O27 C21 1.208 . S
O28 Cd29 2.223 . S
O28 C36 1.315 . S
Cd29 O28 2.223 . S
Cd29 O32 2.297 . S
Cd29 O33 2.439 . S
Cd29 O39 2.240 1_655 S
Cd30 O31 2.240 1_455 S
Cd30 O38 2.223 . S
Cd30 O40 2.297 . S
Cd30 O41 2.439 . S
O31 Cd30 2.240 1_655 S
O31 C36 1.279 1_545 S
O32 Cd29 2.297 . S
O32 C34 1.247 . S
O33 Cd29 2.439 . S
O33 C34 1.208 . S
C34 O32 1.247 . S
C34 O33 1.208 . S
C35 O40 1.247 . S
C35 O41 1.208 . S
C36 O28 1.315 . S
C36 O31 1.279 1_565 S
C37 O38 1.315 . S
C37 O39 1.279 1_545 S
O38 Cd30 2.223 . S
O38 C37 1.315 . S
O39 Cd29 2.240 1_455 S
O39 C37 1.279 1_565 S
O40 Cd30 2.297 . S
O40 C35 1.247 . S
O41 Cd30 2.439 . S
O41 C35 1.208 . S
C42 O44 1.252 . S
C42 O46 1.255 1_455 S
C43 O50 1.247 . S
C43 O51 1.258 1_655 S
O44 C42 1.252 . S
O44 Zn45 2.028 . S
Zn45 O44 2.028 . S
Zn45 O49 2.035 . S
Zn45 O51 2.035 . S
Zn45 O52 2.028 . S
O46 C42 1.255 1_655 S
O46 Zn47 2.035 . S
Zn47 O46 2.035 . S
Zn47 O48 2.028 . S
Zn47 O50 2.028 . S
Zn47 O53 2.035 . S
O48 Zn47 2.028 . S
O48 C54 1.247 . S
O49 Zn45 2.035 . S
O49 C54 1.258 1_455 S
O50 C43 1.247 . S
O50 Zn47 2.028 . S
O51 C43 1.258 1_455 S
O51 Zn45 2.035 . S
O52 Zn45 2.028 . S
O52 C55 1.252 . S
O53 Zn47 2.035 . S
O53 C55 1.255 1_655 S
C54 O48 1.247 . S
C54 O49 1.258 1_655 S
C55 O52 1.252 . S
C55 O53 1.255 1_455 S
C56 O58 1.246 . S
C56 O60 1.259 1_565 S
C57 O64 1.250 . S
C57 O65 1.253 1_545 S
O58 C56 1.246 . S
O58 Zn59 2.028 . S
Zn59 O58 2.028 . S
Zn59 O63 2.035 . S
Zn59 O65 2.035 . S
Zn59 O66 2.028 . S
O60 C56 1.259 1_545 S
O60 Zn61 2.035 . S
Zn61 O60 2.035 . S
Zn61 O62 2.028 . S
Zn61 O64 2.028 . S
Zn61 O67 2.035 . S
O62 Zn61 2.028 . S
O62 C68 1.250 . S
O63 Zn59 2.035 . S
O63 C68 1.253 1_565 S
O64 C57 1.250 . S
O64 Zn61 2.028 . S
O65 C57 1.253 1_565 S
O65 Zn59 2.035 . S
O66 Zn59 2.028 . S
O66 C69 1.246 . S
O67 Zn61 2.035 . S
O67 C69 1.259 1_545 S
C68 O62 1.250 . S
C68 O63 1.253 1_545 S
C69 O66 1.246 . S
C69 O67 1.259 1_565 S
C70 O72 1.247 . S
C70 O74 1.258 . S
C71 O78 1.247 . S
C71 O79 1.258 . S
O72 C70 1.247 . S
O72 Zn73 2.028 . S
Zn73 O72 2.028 . S
Zn73 O77 2.035 . S
Zn73 O79 2.035 . S
Zn73 O80 2.028 . S
O74 C70 1.258 . S
O74 Zn75 2.035 . S
Zn75 O74 2.035 . S
Zn75 O76 2.028 . S
Zn75 O78 2.028 . S
Zn75 O81 2.035 . S
O76 Zn75 2.028 . S
O76 C82 1.247 . S
O77 Zn73 2.035 . S
O77 C82 1.258 . S
O78 C71 1.247 . S
O78 Zn75 2.028 . S
O79 C71 1.258 . S
O79 Zn73 2.035 . S
O80 Zn73 2.028 . S
O80 C83 1.247 . S
O81 Zn75 2.035 . S
O81 C83 1.258 . S
C82 O76 1.247 . S
C82 O77 1.258 . S
C83 O80 1.247 . S
C83 O81 1.258 . S
C84 C85 1.354 . S
C84 C86 1.327 . S
C84 H109 0.950 . S
C85 C84 1.354 . S
C85 C101 1.338 1_455 S
C86 C84 1.327 . S
C86 C105 1.437 . S
C86 H110 0.950 . S
C87 C104 1.574 . S
C87 C106 1.362 1_655 S
C87 H111 0.949 . S
H88 C92 0.949 . S
C89 C90 1.349 1_655 S
C89 C91 1.327 . S
C89 H112 0.950 . S
C90 C89 1.349 1_455 S
C90 C102 1.350 . S
C91 C89 1.327 . S
C91 C107 1.425 1_655 S
C91 H113 0.950 . S
C92 H88 0.949 . S
C92 C100 1.574 . S
C92 C108 1.373 . S
H93 C101 0.950 . S
H94 C99 0.950 . S
H95 C100 0.949 . S
H96 C102 0.950 . S
H97 C103 0.950 . S
H98 C104 0.949 . S
C99 H94 0.950 . S
C99 C101 1.327 . S
C99 C105 1.425 1_655 S
C100 C92 1.574 . S
C100 H95 0.949 . S
C100 C106 1.372 . S
C101 C85 1.338 1_655 S
C101 H93 0.950 . S
C101 C99 1.327 . S
C102 C90 1.350 . S
C102 H96 0.950 . S
C102 C103 1.327 . S
C103 H97 0.950 . S
C103 C102 1.327 . S
C103 C107 1.430 . S
C104 C87 1.574 . S
C104 H98 0.949 . S
C104 C108 1.366 1_655 S
C105 C86 1.437 . S
C105 C99 1.425 1_455 S
C105 C106 1.522 . S
C106 C87 1.362 1_455 S
C106 C100 1.372 . S
C106 C105 1.522 . S
C107 C91 1.425 1_455 S
C107 C103 1.430 . S
C107 C108 1.522 . S
C108 C92 1.373 . S
C108 C104 1.366 1_455 S
C108 C107 1.522 . S
H109 C84 0.950 . S
H110 C86 0.950 . S
H111 C87 0.949 . S
H112 C89 0.950 . S
H113 C91 0.950 . S
C114 C115 1.349 . S
C114 C116 1.327 . S
C114 H139 0.950 . S
C115 C114 1.349 . S
C115 C131 1.349 1_545 S
C116 C114 1.327 . S
C116 C135 1.429 . S
C116 H140 0.950 . S
C117 C134 1.574 . S
C117 C136 1.368 1_565 S
C117 H141 0.949 . S
H118 C122 0.949 . S
C119 C120 1.342 1_565 S
C119 C121 1.327 . S
C119 H142 0.950 . S
C120 C119 1.342 1_545 S
C120 C132 1.353 . S
C121 C119 1.327 . S
C121 C137 1.429 1_565 S
C121 H143 0.950 . S
C122 H118 0.949 . S
C122 C130 1.574 . S
C122 C138 1.368 . S
H123 C131 0.950 . S
H124 C129 0.950 . S
H125 C130 0.949 . S
H126 C132 0.950 . S
H127 C133 0.950 . S
H128 C134 0.949 . S
C129 H124 0.950 . S
C129 C131 1.327 . S
C129 C135 1.429 1_565 S
C130 C122 1.574 . S
C130 H125 0.949 . S
C130 C136 1.368 . S
C131 C115 1.349 1_565 S
C131 H123 0.950 . S
C131 C129 1.327 . S
C132 C120 1.353 . S
C132 H126 0.950 . S
C132 C133 1.327 . S
C133 H127 0.950 . S
C133 C132 1.327 . S
C133 C137 1.429 . S
C134 C117 1.574 . S
C134 H128 0.949 . S
C134 C138 1.368 1_565 S
C135 C116 1.429 . S
C135 C129 1.429 1_545 S
C135 C136 1.523 . S
C136 C117 1.368 1_545 S
C136 C130 1.368 . S
C136 C135 1.523 . S
C137 C121 1.429 1_545 S
C137 C133 1.429 . S
C137 C138 1.523 . S
C138 C122 1.368 . S
C138 C134 1.368 1_545 S
C138 C137 1.523 . S
H139 C114 0.950 . S
H140 C116 0.950 . S
H141 C117 0.949 . S
H142 C119 0.950 . S
H143 C121 0.950 . S
C144 C145 1.349 . S
C144 C146 1.327 . S
C144 H169 0.950 . S
C145 C144 1.349 . S
C145 C161 1.349 . S
C146 C144 1.327 . S
C146 C165 1.429 . S
C146 H170 0.950 . S
C147 C164 1.574 . S
C147 C166 1.368 . S
C147 H171 0.949 . S
H148 C152 0.949 . S
C149 C150 1.349 . S
C149 C151 1.327 . S
C149 H172 0.950 . S
C150 C149 1.349 . S
C150 C162 1.349 . S
C151 C149 1.327 . S
C151 C167 1.429 . S
C151 H173 0.950 . S
C152 H148 0.949 . S
C152 C160 1.574 . S
C152 C168 1.368 . S
H153 C161 0.950 . S
H154 C159 0.950 . S
H155 C160 0.949 . S
H156 C162 0.950 . S
H157 C163 0.950 . S
H158 C164 0.949 . S
C159 H154 0.950 . S
C159 C161 1.327 . S
C159 C165 1.429 . S
C160 C152 1.574 . S
C160 H155 0.949 . S
C160 C166 1.368 . S
C161 C145 1.349 . S
C161 H153 0.950 . S
C161 C159 1.327 . S
C162 C150 1.349 . S
C162 H156 0.950 . S
C162 C163 1.327 . S
C163 H157 0.950 . S
C163 C162 1.327 . S
C163 C167 1.429 . S
C164 C147 1.574 . S
C164 H158 0.949 . S
C164 C168 1.368 . S
C165 C146 1.429 . S
C165 C159 1.429 . S
C165 C166 1.523 . S
C166 C147 1.368 . S
C166 C160 1.368 . S
C166 C165 1.523 . S
C167 C151 1.429 . S
C167 C163 1.429 . S
C167 C168 1.523 . S
C168 C152 1.368 . S
C168 C164 1.368 . S
C168 C167 1.523 . S
H169 C144 0.950 . S
H170 C146 0.950 . S
H171 C147 0.949 . S
H172 C149 0.950 . S
H173 C151 0.950 . S
C174 C175 1.343 1_455 S
C174 C176 1.327 . S
C174 H199 0.950 . S
C175 C174 1.343 1_655 S
C175 C191 1.351 . S
C176 C174 1.327 . S
C176 C195 1.427 1_455 S
C176 H200 0.950 . S
C177 C194 1.574 . S
C177 C196 1.370 . S
C177 H201 0.949 . S
H178 C182 0.949 . S
C179 C180 1.349 1_655 S
C179 C181 1.327 . S
C179 H202 0.950 . S
C180 C179 1.349 1_455 S
C180 C192 1.349 . S
C181 C179 1.327 . S
C181 C197 1.428 . S
C181 H203 0.950 . S
C182 H178 0.949 . S
C182 C190 1.574 . S
C182 C198 1.368 1_455 S
H183 C191 0.950 . S
H184 C189 0.950 . S
H185 C190 0.949 . S
H186 C192 0.950 . S
H187 C193 0.950 . S
H188 C194 0.949 . S
C189 H184 0.950 . S
C189 C191 1.327 . S
C189 C195 1.432 . S
C190 C182 1.574 . S
C190 H185 0.949 . S
C190 C196 1.366 1_455 S
C191 C175 1.351 . S
C191 H183 0.950 . S
C191 C189 1.327 . S
C192 C180 1.349 . S
C192 H186 0.950 . S
C192 C193 1.327 . S
C193 H187 0.950 . S
C193 C192 1.327 . S
C193 C197 1.429 1_455 S
C194 C177 1.574 . S
C194 H188 0.949 . S
C194 C198 1.369 . S
C195 C176 1.427 1_655 S
C195 C189 1.432 . S
C195 C196 1.522 . S
C196 C177 1.370 . S
C196 C190 1.366 1_655 S
C196 C195 1.522 . S
C197 C181 1.428 . S
C197 C193 1.429 1_655 S
C197 C198 1.522 . S
C198 C182 1.368 1_655 S
C198 C194 1.369 . S
C198 C197 1.522 . S
H199 C174 0.950 . S
H200 C176 0.950 . S
H201 C177 0.949 . S
H202 C179 0.950 . S
H203 C181 0.950 . S
C204 C205 1.349 1_545 S
C204 C206 1.327 . S
C204 H229 0.950 . S
C205 C204 1.349 1_565 S
C205 C221 1.349 . S
C206 C204 1.327 . S
C206 C225 1.429 1_545 S
C206 H230 0.950 . S
C207 C224 1.574 . S
C207 C226 1.368 . S
C207 H231 0.949 . S
H208 C212 0.949 . S
C209 C210 1.350 . S
C209 C211 1.327 . S
C209 H232 0.950 . S
C210 C209 1.350 . S
C210 C222 1.348 1_565 S
C211 C209 1.327 . S
C211 C227 1.454 . S
C211 H233 0.950 . S
C212 H208 0.949 . S
C212 C220 1.574 . S
C212 C228 1.368 1_545 S
H213 C221 0.950 . S
H214 C219 0.950 . S
H215 C220 0.949 . S
H216 C222 0.950 . S
H217 C223 0.950 . S
H218 C224 0.949 . S
C219 H214 0.950 . S
C219 C221 1.327 . S
C219 C225 1.429 . S
C220 C212 1.574 . S
C220 H215 0.949 . S
C220 C226 1.368 1_545 S
C221 C205 1.349 . S
C221 H213 0.950 . S
C221 C219 1.327 . S
C222 C210 1.348 1_545 S
C222 H216 0.950 . S
C222 C223 1.327 . S
C223 H217 0.950 . S
C223 C222 1.327 . S
C223 C227 1.414 1_545 S
C224 C207 1.574 . S
C224 H218 0.949 . S
C224 C228 1.368 . S
C225 C206 1.429 1_565 S
C225 C219 1.429 . S
C225 C226 1.523 . S
C226 C207 1.368 . S
C226 C220 1.368 1_565 S
C226 C225 1.523 . S
C227 C211 1.454 . S
C227 C223 1.414 1_565 S
C227 C228 1.513 . S
C228 C212 1.368 1_565 S
C228 C224 1.368 . S
C228 C227 1.513 . S
H229 C204 0.950 . S
H230 C206 0.950 . S
H231 C207 0.949 . S
H232 C209 0.950 . S
H233 C211 0.950 . S
C234 C235 1.349 . S
C234 C236 1.327 . S
C234 H259 0.950 . S
C235 C234 1.349 . S
C235 C251 1.349 . S
C236 C234 1.327 . S
C236 C255 1.429 . S
C236 H260 0.950 . S
C237 C254 1.574 . S
C237 C256 1.368 . S
C237 H261 0.949 . S
H238 C242 0.949 . S
C239 C240 1.349 . S
C239 C241 1.327 . S
C239 H262 0.950 . S
C240 C239 1.349 . S
C240 C252 1.349 . S
C241 C239 1.327 . S
C241 C257 1.429 . S
C241 H263 0.950 . S
C242 H238 0.949 . S
C242 C250 1.574 . S
C242 C258 1.368 . S
H243 C251 0.950 . S
H244 C249 0.950 . S
H245 C250 0.949 . S
H246 C252 0.950 . S
H247 C253 0.950 . S
H248 C254 0.949 . S
C249 H244 0.950 . S
C249 C251 1.327 . S
C249 C255 1.429 . S
C250 C242 1.574 . S
C250 H245 0.949 . S
C250 C256 1.368 . S
C251 C235 1.349 . S
C251 H243 0.950 . S
C251 C249 1.327 . S
C252 C240 1.349 . S
C252 H246 0.950 . S
C252 C253 1.327 . S
C253 H247 0.950 . S
C253 C252 1.327 . S
C253 C257 1.429 . S
C254 C237 1.574 . S
C254 H248 0.949 . S
C254 C258 1.368 . S
C255 C236 1.429 . S
C255 C249 1.429 . S
C255 C256 1.523 . S
C256 C237 1.368 . S
C256 C250 1.368 . S
C256 C255 1.523 . S
C257 C241 1.429 . S
C257 C253 1.429 . S
C257 C258 1.523 . S
C258 C242 1.368 . S
C258 C254 1.368 . S
C258 C257 1.523 . S
H259 C234 0.950 . S
H260 C236 0.950 . S
H261 C237 0.949 . S
H262 C239 0.950 . S
H263 C241 0.950 . S
C264 C265 1.349 . S
C264 C266 1.327 . S
C264 H289 0.950 . S
C265 C264 1.349 . S
C265 C281 1.349 1_565 S
C266 C264 1.327 . S
C266 C285 1.429 . S
C266 H290 0.950 . S
C267 C284 1.574 . S
C267 C286 1.368 1_545 S
C267 H291 0.949 . S
H268 C272 0.949 . S
C269 C270 1.349 1_545 S
C269 C271 1.327 . S
C269 H292 0.950 . S
C270 C269 1.349 1_565 S
C270 C282 1.352 . S
C271 C269 1.327 . S
C271 C287 1.429 1_545 S
C271 H293 0.950 . S
C272 H268 0.949 . S
C272 C280 1.574 . S
C272 C288 1.368 . S
H273 C281 0.950 . S
H274 C279 0.950 . S
H275 C280 0.949 . S
H276 C282 0.950 . S
H277 C283 0.950 . S
H278 C284 0.949 . S
C279 H274 0.950 . S
C279 C281 1.327 . S
C279 C285 1.429 1_545 S
C280 C272 1.574 . S
C280 H275 0.949 . S
C280 C286 1.368 . S
C281 C265 1.349 1_545 S
C281 H273 0.950 . S
C281 C279 1.327 . S
C282 C270 1.352 . S
C282 H276 0.950 . S
C282 C283 1.327 . S
C283 H277 0.950 . S
C283 C282 1.327 . S
C283 C287 1.429 . S
C284 C267 1.574 . S
C284 H278 0.949 . S
C284 C288 1.368 1_545 S
C285 C266 1.429 . S
C285 C279 1.429 1_565 S
C285 C286 1.523 . S
C286 C267 1.368 1_565 S
C286 C280 1.368 . S
C286 C285 1.523 . S
C287 C271 1.429 1_565 S
C287 C283 1.429 . S
C287 C288 1.523 . S
C288 C272 1.368 . S
C288 C284 1.368 1_565 S
C288 C287 1.523 . S
H289 C264 0.950 . S
H290 C266 0.950 . S
H291 C267 0.949 . S
H292 C269 0.950 . S
H293 C271 0.950 . S
C294 C295 1.349 . S
C294 C296 1.327 . S
C294 H319 0.950 . S
C295 C294 1.349 . S
C295 C311 1.349 . S
C296 C294 1.327 . S
C296 C315 1.429 . S
C296 H320 0.950 . S
C297 C314 1.574 . S
C297 C316 1.368 . S
C297 H321 0.949 . S
H298 C302 0.949 . S
C299 C300 1.349 . S
C299 C301 1.317 1_556 S
C299 H322 0.950 . S
C300 C299 1.349 . S
C300 C312 1.349 . S
C301 C299 1.317 1_554 S
C301 C317 1.424 1_554 S
C301 H323 0.964 . S
C302 H298 0.949 . S
C302 C310 1.574 1_556 S
C302 C318 1.368 1_556 S
H303 C311 0.950 . S
H304 C309 0.950 . S
H305 C310 0.949 . S
H306 C312 0.950 . S
H307 C313 0.950 . S
H308 C314 0.949 . S
C309 H304 0.950 . S
C309 C311 1.327 . S
C309 C315 1.429 . S
C310 C302 1.574 1_554 S
C310 H305 0.949 . S
C310 C316 1.368 . S
C311 C295 1.349 . S
C311 H303 0.950 . S
C311 C309 1.327 . S
C312 C300 1.349 . S
C312 H306 0.950 . S
C312 C313 1.327 . S
C313 H307 0.950 . S
C313 C312 1.327 . S
C313 C317 1.429 . S
C314 C297 1.574 . S
C314 H308 0.949 . S
C314 C318 1.368 . S
C315 C296 1.429 . S
C315 C309 1.429 . S
C315 C316 1.523 . S
C316 C297 1.368 . S
C316 C310 1.368 . S
C316 C315 1.523 . S
C317 C301 1.424 1_556 S
C317 C313 1.429 . S
C317 C318 1.523 1_556 S
C318 C302 1.368 1_554 S
C318 C314 1.368 . S
C318 C317 1.523 1_554 S
H319 C294 0.950 . S
H320 C296 0.950 . S
H321 C297 0.949 . S
H322 C299 0.950 . S
H323 C301 0.964 . S
C324 C325 1.349 1_655 S
C324 C326 1.327 . S
C324 H349 0.950 . S
C325 C324 1.349 1_455 S
C325 C341 1.349 . S
C326 C324 1.327 . S
C326 C345 1.429 1_655 S
C326 H350 0.950 . S
C327 C344 1.574 . S
C327 C346 1.368 . S
C327 H351 0.949 . S
H328 C332 0.949 . S
C329 C330 1.353 . S
C329 C331 1.327 . S
C329 H352 0.950 . S
C330 C329 1.353 . S
C330 C342 1.342 1_455 S
C331 C329 1.327 . S
C331 C347 1.429 . S
C331 H353 0.950 . S
C332 H328 0.949 . S
C332 C340 1.574 . S
C332 C348 1.368 1_655 S
H333 C341 0.950 . S
H334 C339 0.950 . S
H335 C340 0.949 . S
H336 C342 0.950 . S
H337 C343 0.950 . S
H338 C344 0.949 . S
C339 H334 0.950 . S
C339 C341 1.327 . S
C339 C345 1.429 . S
C340 C332 1.574 . S
C340 H335 0.949 . S
C340 C346 1.368 1_655 S
C341 C325 1.349 . S
C341 H333 0.950 . S
C341 C339 1.327 . S
C342 C330 1.342 1_655 S
C342 H336 0.950 . S
C342 C343 1.327 . S
C343 H337 0.950 . S
C343 C342 1.327 . S
C343 C347 1.429 1_655 S
C344 C327 1.574 . S
C344 H338 0.949 . S
C344 C348 1.368 . S
C345 C326 1.429 1_455 S
C345 C339 1.429 . S
C345 C346 1.523 . S
C346 C327 1.368 . S
C346 C340 1.368 1_455 S
C346 C345 1.523 . S
C347 C331 1.429 . S
C347 C343 1.429 1_455 S
C347 C348 1.523 . S
C348 C332 1.368 1_455 S
C348 C344 1.368 . S
C348 C347 1.523 . S
H349 C324 0.950 . S
H350 C326 0.950 . S
H351 C327 0.949 . S
H352 C329 0.950 . S
H353 C331 0.950 . S
C354 C355 1.349 . S
C354 C356 1.327 . S
C354 H379 0.950 . S
C355 C354 1.349 . S
C355 C371 1.349 1_545 S
C356 C354 1.327 . S
C356 C375 1.429 . S
C356 H380 0.950 . S
C357 C374 1.574 . S
C357 C376 1.368 1_565 S
C357 H381 0.949 . S
H358 C362 0.949 . S
C359 C360 1.345 1_565 S
C359 C361 1.327 . S
C359 H382 0.950 . S
C360 C359 1.345 1_545 S
C360 C372 1.358 . S
C361 C359 1.327 . S
C361 C377 1.429 1_565 S
C361 H383 0.950 . S
C362 H358 0.949 . S
C362 C370 1.574 . S
C362 C378 1.368 . S
H363 C371 0.950 . S
H364 C369 0.950 . S
H365 C370 0.949 . S
H366 C372 0.950 . S
H367 C373 0.950 . S
H368 C374 0.949 . S
C369 H364 0.950 . S
C369 C371 1.327 . S
C369 C375 1.429 1_565 S
C370 C362 1.574 . S
C370 H365 0.949 . S
C370 C376 1.368 . S
C371 C355 1.349 1_565 S
C371 H363 0.950 . S
C371 C369 1.327 . S
C372 C360 1.358 . S
C372 H366 0.950 . S
C372 C373 1.327 . S
C373 H367 0.950 . S
C373 C372 1.327 . S
C373 C377 1.429 . S
C374 C357 1.574 . S
C374 H368 0.949 . S
C374 C378 1.368 1_565 S
C375 C356 1.429 . S
C375 C369 1.429 1_545 S
C375 C376 1.523 . S
C376 C357 1.368 1_545 S
C376 C370 1.368 . S
C376 C375 1.523 . S
C377 C361 1.429 1_545 S
C377 C373 1.429 . S
C377 C378 1.523 . S
C378 C362 1.368 . S
C378 C374 1.368 1_545 S
C378 C377 1.523 . S
H379 C354 0.950 . S
H380 C356 0.950 . S
H381 C357 0.949 . S
H382 C359 0.950 . S
H383 C361 0.950 . S
C384 C385 1.349 . S
C384 C386 1.327 . S
C384 H409 0.950 . S
C385 C384 1.349 . S
C385 C401 1.349 . S
C386 C384 1.327 . S
C386 C405 1.429 . S
C386 H410 0.950 . S
C387 C404 1.574 . S
C387 C406 1.368 . S
C387 H411 0.949 . S
H388 C392 0.949 . S
C389 C390 1.349 . S
C389 C391 1.327 . S
C389 H412 0.950 . S
C390 C389 1.349 . S
C390 C402 1.349 . S
C391 C389 1.327 . S
C391 C407 1.429 . S
C391 H413 0.950 . S
C392 H388 0.949 . S
C392 C400 1.574 . S
C392 C408 1.368 . S
H393 C401 0.950 . S
H394 C399 0.950 . S
H395 C400 0.949 . S
H396 C402 0.950 . S
H397 C403 0.950 . S
H398 C404 0.949 . S
C399 H394 0.950 . S
C399 C401 1.327 . S
C399 C405 1.429 . S
C400 C392 1.574 . S
C400 H395 0.949 . S
C400 C406 1.368 . S
C401 C385 1.349 . S
C401 H393 0.950 . S
C401 C399 1.327 . S
C402 C390 1.349 . S
C402 H396 0.950 . S
C402 C403 1.327 . S
C403 H397 0.950 . S
C403 C402 1.327 . S
C403 C407 1.429 . S
C404 C387 1.574 . S
C404 H398 0.949 . S
C404 C408 1.368 . S
C405 C386 1.429 . S
C405 C399 1.429 . S
C405 C406 1.523 . S
C406 C387 1.368 . S
C406 C400 1.368 . S
C406 C405 1.523 . S
C407 C391 1.429 . S
C407 C403 1.429 . S
C407 C408 1.523 1_556 S
C408 C392 1.368 . S
C408 C404 1.368 . S
C408 C407 1.523 1_554 S
H409 C384 0.950 . S
H410 C386 0.950 . S
H411 C387 0.949 . S
H412 C389 0.950 . S
H413 C391 0.950 . S
C414 C415 1.349 1_455 S
C414 C416 1.327 . S
C414 H439 0.950 . S
C415 C414 1.349 1_655 S
C415 C431 1.349 . S
C416 C414 1.327 . S
C416 C435 1.429 1_455 S
C416 H440 0.950 . S
C417 C434 1.574 . S
C417 C436 1.368 . S
C417 H441 0.949 . S
H418 C422 0.949 . S
C419 C420 1.349 . S
C419 C421 1.327 . S
C419 H442 0.950 . S
C420 C419 1.349 . S
C420 C432 1.348 1_655 S
C421 C419 1.327 . S
C421 C437 1.429 . S
C421 H443 0.950 . S
C422 H418 0.949 . S
C422 C430 1.574 . S
C422 C438 1.368 1_455 S
H423 C431 0.950 . S
H424 C429 0.950 . S
H425 C430 0.949 . S
H426 C432 0.950 . S
H427 C433 0.950 . S
H428 C434 0.949 . S
C429 H424 0.950 . S
C429 C431 1.327 . S
C429 C435 1.429 . S
C430 C422 1.574 . S
C430 H425 0.949 . S
C430 C436 1.368 1_455 S
C431 C415 1.349 . S
C431 H423 0.950 . S
C431 C429 1.327 . S
C432 C420 1.348 1_455 S
C432 H426 0.950 . S
C432 C433 1.327 . S
C433 H427 0.950 . S
C433 C432 1.327 . S
C433 C437 1.429 1_455 S
C434 C417 1.574 . S
C434 H428 0.949 . S
C434 C438 1.368 . S
C435 C416 1.429 1_655 S
C435 C429 1.429 . S
C435 C436 1.523 . S
C436 C417 1.368 . S
C436 C430 1.368 1_655 S
C436 C435 1.523 . S
C437 C421 1.429 . S
C437 C433 1.429 1_655 S
C437 C438 1.523 . S
C438 C422 1.368 1_655 S
C438 C434 1.368 . S
C438 C437 1.523 . S
H439 C414 0.950 . S
H440 C416 0.950 . S
H441 C417 0.949 . S
H442 C419 0.950 . S
H443 C421 0.950 . S
C90 C43 1.464 1_455 S
C85 C6 1.449 1_455 S
C115 C22 1.540 . S
C120 C69 1.565 1_545 S
C145 C34 1.227 . S
C150 C71 1.245 . S
C175 C7 1.450 1_655 S
C180 C55 1.464 . S
C210 C57 1.563 1_565 S
C205 C23 1.538 . S
C235 C35 1.227 . S
C240 C83 1.240 . S
C270 C56 1.556 . S
C265 C36 1.546 . S
C295 C9 1.763 . S
C300 C82 1.797 . S
C330 C42 1.462 . S
C325 C21 1.444 1_455 S
C360 C68 1.556 . S
C355 C37 1.542 . S
C390 C70 1.795 . S
C385 C8 1.760 . S
C415 C20 1.442 1_655 S
C420 C54 1.460 . S
