# Generated by pormake.
# Topology gar, (4,6)-cn, num edge types: 1
# Building blocks:
#     Node 0, Type 0, BuildingBlock: GALJAG_clean_sbu_0, # of connection points: 4
#     Node 1, Type 0, BuildingBlock: GALJAG_clean_sbu_0, # of connection points: 4
#     Node 2, Type 0, BuildingBlock: GALJAG_clean_sbu_0, # of connection points: 4
#     Node 3, Type 0, BuildingBlock: GALJAG_clean_sbu_0, # of connection points: 4
#     Node 4, Type 0, BuildingBlock: GALJAG_clean_sbu_0, # of connection points: 4
#     Node 5, Type 0, BuildingBlock: GALJAG_clean_sbu_0, # of connection points: 4
#     Node 6, Type 0, BuildingBlock: GALJAG_clean_sbu_0, # of connection points: 4
#     Node 7, Type 0, BuildingBlock: GALJAG_clean_sbu_0, # of connection points: 4
#     Node 8, Type 0, BuildingBlock: GALJAG_clean_sbu_0, # of connection points: 4
#     Node 9, Type 0, BuildingBlock: GALJAG_clean_sbu_0, # of connection points: 4
#     Node 10, Type 0, BuildingBlock: GALJAG_clean_sbu_0, # of connection points: 4
#     Node 11, Type 0, BuildingBlock: GALJAG_clean_sbu_0, # of connection points: 4
#     Node 12, Type 0, BuildingBlock: GALJAG_clean_sbu_0, # of connection points: 4
#     Node 13, Type 0, BuildingBlock: GALJAG_clean_sbu_0, # of connection points: 4
#     Node 14, Type 0, BuildingBlock: GALJAG_clean_sbu_0, # of connection points: 4
#     Node 15, Type 0, BuildingBlock: GALJAG_clean_sbu_0, # of connection points: 4
#     Node 16, Type 0, BuildingBlock: GALJAG_clean_sbu_0, # of connection points: 4
#     Node 17, Type 0, BuildingBlock: GALJAG_clean_sbu_0, # of connection points: 4
#     Node 18, Type 0, BuildingBlock: GALJAG_clean_sbu_0, # of connection points: 4
#     Node 19, Type 0, BuildingBlock: GALJAG_clean_sbu_0, # of connection points: 4
#     Node 20, Type 0, BuildingBlock: GALJAG_clean_sbu_0, # of connection points: 4
#     Node 21, Type 0, BuildingBlock: GALJAG_clean_sbu_0, # of connection points: 4
#     Node 22, Type 0, BuildingBlock: GALJAG_clean_sbu_0, # of connection points: 4
#     Node 23, Type 0, BuildingBlock: GALJAG_clean_sbu_0, # of connection points: 4
#     Node 24, Type 1, BuildingBlock: MIFKUJ_clean_sbu_0, # of connection points: 6
#     Node 25, Type 1, BuildingBlock: MIFKUJ_clean_sbu_0, # of connection points: 6
#     Node 26, Type 1, BuildingBlock: MIFKUJ_clean_sbu_0, # of connection points: 6
#     Node 27, Type 1, BuildingBlock: MIFKUJ_clean_sbu_0, # of connection points: 6
#     Node 28, Type 1, BuildingBlock: MIFKUJ_clean_sbu_0, # of connection points: 6
#     Node 29, Type 1, BuildingBlock: MIFKUJ_clean_sbu_0, # of connection points: 6
#     Node 30, Type 1, BuildingBlock: MIFKUJ_clean_sbu_0, # of connection points: 6
#     Node 31, Type 1, BuildingBlock: MIFKUJ_clean_sbu_0, # of connection points: 6
#     Node 32, Type 1, BuildingBlock: MIFKUJ_clean_sbu_0, # of connection points: 6
#     Node 33, Type 1, BuildingBlock: MIFKUJ_clean_sbu_0, # of connection points: 6
#     Node 34, Type 1, BuildingBlock: MIFKUJ_clean_sbu_0, # of connection points: 6
#     Node 35, Type 1, BuildingBlock: MIFKUJ_clean_sbu_0, # of connection points: 6
#     Node 36, Type 1, BuildingBlock: MIFKUJ_clean_sbu_0, # of connection points: 6
#     Node 37, Type 1, BuildingBlock: MIFKUJ_clean_sbu_0, # of connection points: 6
#     Node 38, Type 1, BuildingBlock: MIFKUJ_clean_sbu_0, # of connection points: 6
#     Node 39, Type 1, BuildingBlock: MIFKUJ_clean_sbu_0, # of connection points: 6
#     Edge 40, Type (0, 1), None
#     Edge 41, Type (0, 1), None
#     Edge 42, Type (0, 1), None
#     Edge 43, Type (0, 1), None
#     Edge 44, Type (0, 1), None
#     Edge 45, Type (0, 1), None
#     Edge 46, Type (0, 1), None
#     Edge 47, Type (0, 1), None
#     Edge 48, Type (0, 1), None
#     Edge 49, Type (0, 1), None
#     Edge 50, Type (0, 1), None
#     Edge 51, Type (0, 1), None
#     Edge 52, Type (0, 1), None
#     Edge 53, Type (0, 1), None
#     Edge 54, Type (0, 1), None
#     Edge 55, Type (0, 1), None
#     Edge 56, Type (0, 1), None
#     Edge 57, Type (0, 1), None
#     Edge 58, Type (0, 1), None
#     Edge 59, Type (0, 1), None
#     Edge 60, Type (0, 1), None
#     Edge 61, Type (0, 1), None
#     Edge 62, Type (0, 1), None
#     Edge 63, Type (0, 1), None
#     Edge 64, Type (0, 1), None
#     Edge 65, Type (0, 1), None
#     Edge 66, Type (0, 1), None
#     Edge 67, Type (0, 1), None
#     Edge 68, Type (0, 1), None
#     Edge 69, Type (0, 1), None
#     Edge 70, Type (0, 1), None
#     Edge 71, Type (0, 1), None
#     Edge 72, Type (0, 1), None
#     Edge 73, Type (0, 1), None
#     Edge 74, Type (0, 1), None
#     Edge 75, Type (0, 1), None
#     Edge 76, Type (0, 1), None
#     Edge 77, Type (0, 1), None
#     Edge 78, Type (0, 1), None
#     Edge 79, Type (0, 1), None
#     Edge 80, Type (0, 1), None
#     Edge 81, Type (0, 1), None
#     Edge 82, Type (0, 1), None
#     Edge 83, Type (0, 1), None
#     Edge 84, Type (0, 1), None
#     Edge 85, Type (0, 1), None
#     Edge 86, Type (0, 1), None
#     Edge 87, Type (0, 1), None
#     Edge 88, Type (0, 1), None
#     Edge 89, Type (0, 1), None
#     Edge 90, Type (0, 1), None
#     Edge 91, Type (0, 1), None
#     Edge 92, Type (0, 1), None
#     Edge 93, Type (0, 1), None
#     Edge 94, Type (0, 1), None
#     Edge 95, Type (0, 1), None
#     Edge 96, Type (0, 1), None
#     Edge 97, Type (0, 1), None
#     Edge 98, Type (0, 1), None
#     Edge 99, Type (0, 1), None
#     Edge 100, Type (0, 1), None
#     Edge 101, Type (0, 1), None
#     Edge 102, Type (0, 1), None
#     Edge 103, Type (0, 1), None
#     Edge 104, Type (0, 1), None
#     Edge 105, Type (0, 1), None
#     Edge 106, Type (0, 1), None
#     Edge 107, Type (0, 1), None
#     Edge 108, Type (0, 1), None
#     Edge 109, Type (0, 1), None
#     Edge 110, Type (0, 1), None
#     Edge 111, Type (0, 1), None
#     Edge 112, Type (0, 1), None
#     Edge 113, Type (0, 1), None
#     Edge 114, Type (0, 1), None
#     Edge 115, Type (0, 1), None
#     Edge 116, Type (0, 1), None
#     Edge 117, Type (0, 1), None
#     Edge 118, Type (0, 1), None
#     Edge 119, Type (0, 1), None
#     Edge 120, Type (0, 1), None
#     Edge 121, Type (0, 1), None
#     Edge 122, Type (0, 1), None
#     Edge 123, Type (0, 1), None
#     Edge 124, Type (0, 1), None
#     Edge 125, Type (0, 1), None
#     Edge 126, Type (0, 1), None
#     Edge 127, Type (0, 1), None
#     Edge 128, Type (0, 1), None
#     Edge 129, Type (0, 1), None
#     Edge 130, Type (0, 1), None
#     Edge 131, Type (0, 1), None
#     Edge 132, Type (0, 1), None
#     Edge 133, Type (0, 1), None
#     Edge 134, Type (0, 1), None
#     Edge 135, Type (0, 1), None
# Relax obj value: 0.149
# Max RMSD: 0.359
# Mean RMSD: 0.165
data_MOF--net-gar--node1-GALJAG_clean_sbu_0--node2-MIFKUJ_clean_sbu_0--edge1-none
_symmetry_space_group_name_H-M    P1
_symmetry_Int_Tables_number       1
_symmetry_cell_setting            triclinic
loop_
_symmetry_equiv_pos_as_xyz
'x, y, z'
_cell_length_a     27.11928
_cell_length_b     27.120124
_cell_length_c     24.941026
_cell_angle_alpha  94.890103
_cell_angle_beta   94.916125
_cell_angle_gamma 102.18793
loop_
_atom_site_label
_atom_site_type_symbol
_atom_site_fract_x
_atom_site_fract_y
_atom_site_fract_z
_atom_type_partial_charge
In0 In 0.03862 0.29831 0.44782 0.0
O1 O 0.08062 0.29602 0.37243 0.0
O2 O 0.12202 0.32693 0.44922 0.0
C3 C 0.94481 0.2682 0.39953 0.0
C4 C 0.04288 0.21091 0.48603 0.0
C5 C 0.03978 0.3889 0.49985 0.0
O6 O 0.98037 0.2895 0.37409 0.0
O7 O 0.95659 0.26372 0.44852 0.0
O8 O 0.059 0.35683 0.52332 0.0
O9 O 0.02098 0.37509 0.45155 0.0
C10 C 0.12291 0.3156 0.39924 0.0
O11 O 0.02768 0.24481 0.51383 0.0
O12 O 0.05799 0.22239 0.44152 0.0
In13 In 0.0328 0.7543 0.64939 0.0
O14 O 0.04169 0.80766 0.58338 0.0
O15 O 0.01369 0.83036 0.65712 0.0
C16 C 0.03461 0.66466 0.59731 0.0
C17 C 0.12667 0.78628 0.69721 0.0
C18 C 0.9467 0.73446 0.69465 0.0
O19 O 0.01521 0.69645 0.57354 0.0
O20 O 0.05206 0.67818 0.64607 0.0
O21 O 0.98819 0.75394 0.72311 0.0
O22 O 0.94933 0.72436 0.64482 0.0
C23 C 0.02734 0.84165 0.61196 0.0
O24 O 0.09154 0.76472 0.7231 0.0
O25 O 0.11439 0.79009 0.64816 0.0
In26 In 0.53874 0.79817 0.94781 0.0
O27 O 0.58078 0.79585 0.87245 0.0
O28 O 0.62217 0.82666 0.94927 0.0
C29 C 0.44492 0.76814 0.89955 0.0
C30 C 0.54291 0.71075 0.98601 0.0
C31 C 0.53995 0.88876 0.99983 0.0
O32 O 0.48049 0.7894 0.8741 0.0
O33 O 0.45671 0.76365 0.94853 0.0
O34 O 0.55911 0.85667 0.02333 0.0
O35 O 0.52121 0.87499 0.95151 0.0
C36 C 0.62307 0.81536 0.89928 0.0
O37 O 0.52781 0.7447 0.01384 0.0
O38 O 0.55796 0.72218 0.94146 0.0
In39 In 0.53285 0.25415 0.14929 0.0
O40 O 0.51523 0.19626 0.07348 0.0
O41 O 0.55217 0.17806 0.146 0.0
C42 C 0.52731 0.34148 0.11188 0.0
C43 C 0.44682 0.23427 0.19466 0.0
C44 C 0.62673 0.28619 0.19706 0.0
O45 O 0.5417 0.30752 0.08329 0.0
O46 O 0.51365 0.33017 0.15702 0.0
O47 O 0.59163 0.26464 0.22298 0.0
O48 O 0.61444 0.28996 0.14801 0.0
C49 C 0.53468 0.1645 0.09725 0.0
O50 O 0.48832 0.25379 0.22307 0.0
O51 O 0.4494 0.22414 0.14482 0.0
In52 In 0.05779 0.7793 0.1941 0.0
O53 O 0.04734 0.72052 0.12043 0.0
O54 O 0.02197 0.69769 0.19537 0.0
C55 C 0.07766 0.86551 0.14876 0.0
C56 C 0.97048 0.78474 0.2316 0.0
C57 C 0.14745 0.77743 0.24624 0.0
O58 O 0.05813 0.82404 0.1203 0.0
O59 O 0.08776 0.86279 0.19859 0.0
O60 O 0.11567 0.79686 0.26997 0.0
O61 O 0.1339 0.75997 0.19748 0.0
C62 C 0.02578 0.6854 0.14633 0.0
O63 O 0.00447 0.77036 0.26016 0.0
O64 O 0.98173 0.79842 0.18645 0.0
In65 In 0.51388 0.77347 0.39574 0.0
O66 O 0.56734 0.78443 0.32972 0.0
O67 O 0.58983 0.75415 0.40205 0.0
C68 C 0.42327 0.77228 0.34373 0.0
C69 C 0.49665 0.68916 0.44431 0.0
C70 C 0.54396 0.86727 0.44403 0.0
O71 O 0.45533 0.75308 0.32025 0.0
O72 O 0.43708 0.79106 0.39202 0.0
O73 O 0.52269 0.83169 0.46947 0.0
O74 O 0.54843 0.85551 0.39504 0.0
C75 C 0.60127 0.76926 0.35752 0.0
O76 O 0.51621 0.73144 0.47113 0.0
O77 O 0.48531 0.69006 0.39433 0.0
In78 In 0.55784 0.27919 0.69414 0.0
O79 O 0.54739 0.22045 0.62045 0.0
O80 O 0.52205 0.19761 0.6954 0.0
C81 C 0.57769 0.36528 0.64885 0.0
C82 C 0.47053 0.2847 0.73159 0.0
C83 C 0.64751 0.27739 0.74619 0.0
O84 O 0.55815 0.32381 0.6204 0.0
O85 O 0.58783 0.36264 0.69868 0.0
O86 O 0.61574 0.29679 0.76996 0.0
O87 O 0.63395 0.25992 0.69744 0.0
C88 C 0.52584 0.18533 0.64636 0.0
O89 O 0.50452 0.27032 0.76017 0.0
O90 O 0.48179 0.29835 0.68642 0.0
In91 In 0.01393 0.27352 0.89573 0.0
O92 O 0.01628 0.23157 0.97112 0.0
O93 O 0.98541 0.19017 0.8943 0.0
C94 C 0.04394 0.36729 0.94401 0.0
C95 C 0.10132 0.26928 0.85756 0.0
C96 C 0.92331 0.27226 0.84369 0.0
O97 O 0.02268 0.33171 0.96945 0.0
O98 O 0.04845 0.35553 0.89503 0.0
O99 O 0.9554 0.2531 0.82022 0.0
O100 O 0.9371 0.29102 0.89199 0.0
C101 C 0.99671 0.18931 0.94429 0.0
O102 O 0.0674 0.28443 0.82973 0.0
O103 O 0.08988 0.2542 0.9021 0.0
In104 In 0.42655 0.02603 0.32225 0.0
O105 O 0.48993 0.01441 0.27363 0.0
O106 O 0.44572 0.06731 0.25054 0.0
C107 C 0.48712 0.0353 0.41543 0.0
C108 C 0.37003 0.09655 0.31686 0.0
C109 C 0.3795 0.92889 0.29119 0.0
O110 O 0.50383 0.05204 0.37348 0.0
O111 O 0.43995 0.01631 0.41094 0.0
O112 O 0.35957 0.95678 0.32198 0.0
O113 O 0.42226 0.94929 0.27879 0.0
C114 C 0.48015 0.04434 0.24046 0.0
O115 O 0.35932 0.05618 0.2851 0.0
O116 O 0.40712 0.09985 0.3523 0.0
In117 In 0.26661 0.15418 0.51469 0.0
O118 O 0.27188 0.21494 0.58911 0.0
O119 O 0.29892 0.1485 0.60042 0.0
C120 C 0.27495 0.21744 0.43062 0.0
C121 C 0.34829 0.10981 0.5112 0.0
C122 C 0.17051 0.09633 0.52028 0.0
O123 O 0.27343 0.23329 0.47943 0.0
O124 O 0.26963 0.16976 0.42342 0.0
O125 O 0.20223 0.08011 0.49327 0.0
O126 O 0.18525 0.14213 0.53933 0.0
C127 C 0.29137 0.18945 0.62181 0.0
O128 O 0.30402 0.08411 0.51356 0.0
O129 O 0.35067 0.15648 0.50803 0.0
In130 In 0.15798 0.04548 0.82942 0.0
O131 O 0.09722 0.04032 0.75471 0.0
O132 O 0.16355 0.01318 0.74346 0.0
C133 C 0.09441 0.03692 0.91382 0.0
C134 C 0.20231 0.9638 0.83245 0.0
C135 C 0.21582 0.14158 0.82338 0.0
O136 O 0.07916 0.03848 0.86482 0.0
O137 O 0.14213 0.0424 0.92148 0.0
O138 O 0.23207 0.10992 0.85048 0.0
O139 O 0.16997 0.12682 0.80446 0.0
C140 C 0.12267 0.02083 0.72197 0.0
O141 O 0.22804 0.00808 0.83022 0.0
O142 O 0.15565 0.96142 0.83572 0.0
In143 In 0.28594 0.8855 0.02123 0.0
O144 O 0.2976 0.82212 0.0699 0.0
O145 O 0.24467 0.86631 0.09292 0.0
C146 C 0.27672 0.82492 0.92809 0.0
C147 C 0.21531 0.94208 0.02646 0.0
C148 C 0.38317 0.9325 0.05229 0.0
O149 O 0.26003 0.8082 0.97006 0.0
O150 O 0.29564 0.8721 0.93254 0.0
O151 O 0.35528 0.95243 0.02147 0.0
O152 O 0.36271 0.88978 0.06475 0.0
C153 C 0.26764 0.83188 0.10303 0.0
O154 O 0.25571 0.95276 0.05824 0.0
O155 O 0.21198 0.90491 0.99114 0.0
In156 In 0.30127 0.39639 0.07749 0.0
O157 O 0.29408 0.31637 0.11089 0.0
O158 O 0.29645 0.37867 0.16803 0.0
C159 C 0.27873 0.36373 0.96956 0.0
C160 C 0.2193 0.44037 0.08045 0.0
C161 C 0.39774 0.45452 0.07446 0.0
O162 O 0.29705 0.3372 1.00197 0.0
O163 O 0.27117 0.40443 0.99158 0.0
O164 O 0.36542 0.47046 0.10076 0.0
O165 O 0.3833 0.40883 0.05491 0.0
C166 C 0.29157 0.3311 0.15981 0.0
O167 O 0.26382 0.46646 0.08056 0.0
O168 O 0.21673 0.39341 0.08152 0.0
In169 In 0.78944 0.1703 0.07444 0.0
O170 O 0.81987 0.10129 0.04346 0.0
O171 O 0.86653 0.15677 0.10261 0.0
C172 C 0.69228 0.12286 0.04496 0.0
C173 C 0.79766 0.23141 0.16698 0.0
C174 C 0.80485 0.21868 0.98829 0.0
O175 O 0.72099 0.10267 0.0745 0.0
O176 O 0.71182 0.16624 0.03347 0.0
O177 O 0.77929 0.23306 0.02389 0.0
O178 O 0.82535 0.18248 0.99801 0.0
C179 C 0.86217 0.11642 0.07153 0.0
O180 O 0.81394 0.2481 0.12477 0.0
O181 O 0.77984 0.18403 0.16307 0.0
In182 In 0.14181 0.52274 0.26913 0.0
O183 O 0.21086 0.4923 0.30019 0.0
O184 O 0.15541 0.4457 0.24097 0.0
C185 C 0.1892 0.6199 0.29864 0.0
C186 C 0.08071 0.51452 0.17655 0.0
C187 C 0.09338 0.50732 0.35523 0.0
O188 O 0.20943 0.59121 0.26913 0.0
O189 O 0.14581 0.60035 0.31006 0.0
O190 O 0.07903 0.5329 0.31962 0.0
O191 O 0.12957 0.4868 0.34554 0.0
C192 C 0.19575 0.45002 0.27209 0.0
O193 O 0.06402 0.4982 0.21873 0.0
O194 O 0.12808 0.53239 0.18049 0.0
In195 In 0.80134 0.89639 0.57738 0.0
O196 O 0.79406 0.81635 0.61077 0.0
O197 O 0.79663 0.8787 0.66793 0.0
C198 C 0.77875 0.86372 0.46946 0.0
C199 C 0.71938 0.94038 0.58041 0.0
C200 C 0.89781 0.95456 0.57435 0.0
O201 O 0.79715 0.83722 0.50185 0.0
O202 O 0.77114 0.90439 0.4915 0.0
O203 O 0.86547 0.97048 0.60065 0.0
O204 O 0.88338 0.90887 0.55479 0.0
C205 C 0.79164 0.83111 0.6597 0.0
O206 O 0.76389 0.96646 0.58041 0.0
O207 O 0.71682 0.89343 0.58156 0.0
In208 In 0.91574 0.01083 0.26604 0.0
O209 O 0.99575 0.01803 0.23258 0.0
O210 O 0.93347 0.0156 0.1754 0.0
C211 C 0.94841 0.0334 0.37401 0.0
C212 C 0.87173 0.09278 0.26307 0.0
C213 C 0.85756 0.91435 0.26913 0.0
O214 O 0.97493 0.01506 0.34163 0.0
O215 O 0.90771 0.04096 0.35195 0.0
O216 O 0.84165 0.94668 0.24279 0.0
O217 O 0.90325 0.92879 0.28871 0.0
C218 C 0.98106 0.02052 0.18362 0.0
O219 O 0.84565 0.04827 0.26301 0.0
O220 O 0.91869 0.09535 0.26195 0.0
In221 In 0.28941 0.6703 0.57449 0.0
O222 O 0.31984 0.60126 0.54345 0.0
O223 O 0.36649 0.65674 0.6026 0.0
C224 C 0.19223 0.62293 0.54499 0.0
C225 C 0.29763 0.73139 0.66705 0.0
C226 C 0.30483 0.71872 0.48837 0.0
O227 O 0.22092 0.60271 0.57452 0.0
O228 O 0.21179 0.66632 0.53354 0.0
O229 O 0.2793 0.73312 0.52399 0.0
O230 O 0.32529 0.68249 0.49805 0.0
C231 C 0.36216 0.6164 0.5715 0.0
O232 O 0.31391 0.74809 0.62486 0.0
O233 O 0.27981 0.68402 0.66314 0.0
In234 In 0.41577 0.5108 0.76614 0.0
O235 O 0.3457 0.54825 0.76305 0.0
O236 O 0.41876 0.59533 0.76207 0.0
C237 C 0.35762 0.41432 0.76917 0.0
C238 C 0.48104 0.5205 0.68382 0.0
C239 C 0.44842 0.53332 0.87408 0.0
O240 O 0.34168 0.44667 0.74288 0.0
O241 O 0.40332 0.42874 0.78871 0.0
O242 O 0.47495 0.515 0.8417 0.0
O243 O 0.40772 0.54089 0.85202 0.0
C244 C 0.37179 0.59277 0.76314 0.0
O245 O 0.4958 0.51801 0.73274 0.0
O246 O 0.43346 0.51559 0.6756 0.0
In247 In 0.6419 0.02267 0.76913 0.0
O248 O 0.71095 0.99221 0.80014 0.0
O249 O 0.6554 0.94557 0.74105 0.0
C250 C 0.68926 0.11984 0.79858 0.0
C251 C 0.58078 0.01444 0.67657 0.0
C252 C 0.59354 0.00724 0.85528 0.0
O253 O 0.70949 0.09114 0.76908 0.0
O254 O 0.64588 0.10029 0.81003 0.0
O255 O 0.57907 0.03271 0.81961 0.0
O256 O 0.62982 0.98685 0.84564 0.0
C257 C 0.69576 0.9499 0.77213 0.0
O258 O 0.56409 0.99816 0.71877 0.0
O259 O 0.62816 0.03226 0.68048 0.0
In260 In 0.76651 0.65414 0.01473 0.0
O261 O 0.80395 0.58409 0.01369 0.0
O262 O 0.85054 0.65643 0.00787 0.0
C263 C 0.67043 0.59626 0.02035 0.0
C264 C 0.79132 0.68947 0.12182 0.0
C265 C 0.77481 0.71734 0.93062 0.0
O266 O 0.70216 0.58005 0.99334 0.0
O267 O 0.68517 0.64206 0.03939 0.0
O268 O 0.77346 0.73326 0.97945 0.0
O269 O 0.76934 0.66964 0.92344 0.0
C270 C 0.84819 0.60977 0.01116 0.0
O271 O 0.7717 0.71489 0.08914 0.0
O272 O 0.79897 0.64857 0.10042 0.0
In273 In 0.92651 0.52605 0.82222 0.0
O274 O 0.85929 0.55617 0.785 0.0
O275 O 0.90704 0.59986 0.85223 0.0
C276 C 0.8795 0.4289 0.79115 0.0
C277 C 0.98014 0.54443 0.74046 0.0
C278 C 0.98708 0.53536 0.91541 0.0
O279 O 0.85956 0.45677 0.82196 0.0
O280 O 0.92225 0.44933 0.77875 0.0
O281 O 0.0038 0.55205 0.87344 0.0
O282 O 0.93991 0.51639 0.91093 0.0
C283 C 0.86999 0.59655 0.81674 0.0
O284 O 0.98991 0.51447 0.7736 0.0
O285 O 0.9457 0.56739 0.75056 0.0
In286 In 0.786 0.38553 0.5212 0.0
O287 O 0.79772 0.3222 0.56987 0.0
O288 O 0.7446 0.3662 0.59278 0.0
C289 C 0.77671 0.32497 0.42803 0.0
C290 C 0.7155 0.44206 0.52668 0.0
C291 C 0.88314 0.43261 0.55229 0.0
O292 O 0.76001 0.30825 0.46999 0.0
O293 O 0.79567 0.37214 0.43249 0.0
O294 O 0.85524 0.45251 0.52145 0.0
O295 O 0.86273 0.38986 0.56472 0.0
C296 C 0.76767 0.33185 0.60295 0.0
O297 O 0.75588 0.45272 0.55845 0.0
O298 O 0.71219 0.40504 0.49118 0.0
In299 In 0.65792 0.54554 0.32887 0.0
O300 O 0.72799 0.50811 0.32996 0.0
O301 O 0.65562 0.46149 0.33562 0.0
C302 C 0.71578 0.64164 0.32326 0.0
C303 C 0.62262 0.52074 0.22176 0.0
C304 C 0.59469 0.53723 0.41295 0.0
O305 O 0.73199 0.60993 0.3503 0.0
O306 O 0.66998 0.62689 0.30418 0.0
O307 O 0.57881 0.53871 0.36412 0.0
O308 O 0.64238 0.54257 0.42015 0.0
C309 C 0.70228 0.46385 0.33238 0.0
O310 O 0.59713 0.54023 0.25444 0.0
O311 O 0.66359 0.51322 0.24317 0.0
Zn312 Zn 0.09449 0.99643 0.07755 0.0
Zn313 Zn 0.98208 0.06204 0.01964 0.0
C314 C 0.08886 0.91424 0.12728 0.0
O315 O 0.11893 0.95228 0.15815 0.0
C316 C 0.98651 0.14178 0.9679 0.0
O317 O 0.95594 0.10285 0.93884 0.0
O318 O 0.16943 0.99484 0.07578 0.0
O319 O 0.07275 0.01809 0.00412 0.0
O320 O 0.01432 0.03819 0.95077 0.0
C321 C 0.17164 0.96498 0.03387 0.0
O322 O 0.1303 0.9469 1.00067 0.0
O323 O 0.06861 0.9219 0.08163 0.0
C324 C 0.90602 0.09408 0.064 0.0
O325 O 0.94786 0.11354 0.096 0.0
O326 O 0.90769 0.06363 0.02237 0.0
O327 O 1.00134 0.04039 0.09397 0.0
O328 O 0.06113 0.01986 0.14582 0.0
O329 O 0.0077 0.13601 0.01386 0.0
C330 C 0.05939 0.03156 0.95838 0.0
C331 C 0.01601 0.02688 0.13921 0.0
Zn332 Zn 0.27368 0.76728 0.34387 0.0
Zn333 Zn 0.29637 0.78071 0.2465 0.0
C334 C 0.21307 0.6718 0.32047 0.0
O335 O 0.18766 0.69715 0.35095 0.0
C336 C 0.35622 0.87677 0.26953 0.0
O337 O 0.38187 0.85185 0.2389 0.0
O338 O 0.27155 0.76166 0.42122 0.0
O339 O 0.34715 0.79883 0.34505 0.0
O340 O 0.35253 0.74718 0.2749 0.0
C341 C 0.30321 0.73562 0.43556 0.0
O342 O 0.32745 0.71532 0.39938 0.0
O343 O 0.2569 0.69357 0.31019 0.0
C344 C 0.26729 0.81283 0.15476 0.0
O345 O 0.24178 0.83184 0.19051 0.0
O346 O 0.29909 0.78702 0.16934 0.0
O347 O 0.22277 0.74923 0.24513 0.0
O348 O 0.21786 0.80104 0.31538 0.0
O349 O 0.31274 0.85441 0.28024 0.0
C350 C 0.37295 0.77342 0.31883 0.0
C351 C 0.19727 0.775 0.27139 0.0
Zn352 Zn 0.47428 0.04579 0.56161 0.0
Zn353 Zn 0.59397 0.00569 0.53092 0.0
C354 C 0.50368 0.13413 0.62201 0.0
O355 O 0.4721 0.10433 0.64863 0.0
C356 C 0.56534 0.91834 0.46905 0.0
O357 O 0.59712 0.94876 0.44323 0.0
O358 O 0.39964 0.05368 0.5451 0.0
O359 O 0.49821 0.0085 0.50059 0.0
O360 O 0.56792 0.03702 0.46446 0.0
C361 C 0.39482 0.08933 0.51574 0.0
O362 O 0.43516 0.1145 0.49653 0.0
O363 O 0.51352 0.11765 0.57592 0.0
C364 C 0.67292 0.96098 0.57597 0.0
O365 O 0.63227 0.93522 0.59413 0.0
O366 O 0.66852 0.99746 0.54765 0.0
O367 O 0.56957 0.04242 0.59193 0.0
O368 O 0.50001 0.01462 0.62842 0.0
O369 O 0.555 0.93394 0.51528 0.0
C370 C 0.51979 0.03149 0.46404 0.0
C371 C 0.54799 0.01938 0.62844 0.0
Zn372 Zn 0.32995 0.2606 0.78454 0.0
Zn373 Zn 0.24248 0.29471 0.80586 0.0
C374 C 0.30615 0.20485 0.68019 0.0
O375 O 0.3303 0.17645 0.70783 0.0
C376 C 0.26503 0.34954 0.91087 0.0
O377 O 0.24124 0.37839 0.88348 0.0
O378 O 0.40109 0.25365 0.78019 0.0
O379 O 0.34573 0.33656 0.80917 0.0
O380 O 0.27982 0.34893 0.76053 0.0
C381 C 0.42012 0.28327 0.74687 0.0
O382 O 0.39161 0.30851 0.72022 0.0
O383 O 0.29761 0.24494 0.70458 0.0
C384 C 0.15188 0.27127 0.84238 0.0
O385 O 0.18046 0.24609 0.86898 0.0
O386 O 0.171 0.30133 0.80947 0.0
O387 O 0.22737 0.21853 0.78159 0.0
O388 O 0.29337 0.20705 0.83078 0.0
O389 O 0.27394 0.30985 0.88603 0.0
C390 C 0.32608 0.36456 0.77947 0.0
C391 C 0.24716 0.19104 0.81189 0.0
Zn392 Zn 0.05152 0.98224 0.55905 0.0
Zn393 Zn 0.01744 0.06972 0.53771 0.0
C394 C 0.10727 0.00607 0.66352 0.0
O395 O 0.13566 0.9819 0.63589 0.0
C396 C 0.96261 0.04714 0.43269 0.0
O397 O 0.93375 0.07093 0.46006 0.0
O398 O 0.05844 0.9111 0.5634 0.0
O399 O 0.97556 0.96647 0.53435 0.0
O400 O 0.96321 0.03235 0.58303 0.0
C401 C 0.02881 0.89207 0.59671 0.0
O402 O 0.0036 0.92059 0.62335 0.0
O403 O 0.06719 0.0146 0.63906 0.0
C404 C 0.04089 0.16035 0.50121 0.0
O405 O 0.06608 0.13178 0.47462 0.0
O406 O 0.01083 0.1412 0.5341 0.0
O407 O 0.09359 0.08476 0.562 0.0
O408 O 0.10506 0.01879 0.51278 0.0
O409 O 1.00231 0.03826 0.45755 0.0
C410 C 0.94757 0.98611 0.56406 0.0
C411 C 0.12106 0.06499 0.53168 0.0
Zn412 Zn 0.26623 0.83783 0.78197 0.0
Zn413 Zn 0.30646 0.71814 0.81267 0.0
C414 C 0.17787 0.80845 0.72158 0.0
O415 O 0.20766 0.84004 0.69496 0.0
C416 C 0.39383 0.74678 0.87454 0.0
O417 O 0.36342 0.71498 0.90037 0.0
O418 O 0.25839 0.91246 0.7985 0.0
O419 O 0.30355 0.81384 0.84296 0.0
O420 O 0.27513 0.74413 0.87914 0.0
C421 C 0.22274 0.91727 0.82785 0.0
O422 O 0.19755 0.87693 0.84703 0.0
O423 O 0.19436 0.7986 0.76767 0.0
C424 C 0.35121 0.63923 0.7676 0.0
O425 O 0.37697 0.67989 0.74949 0.0
O426 O 0.31471 0.6436 0.79591 0.0
O427 O 0.26968 0.74258 0.75169 0.0
O428 O 0.29738 0.81214 0.71516 0.0
O429 O 0.3782 0.75713 0.82832 0.0
C430 C 0.28058 0.79225 0.87952 0.0
C431 C 0.29267 0.76417 0.71517 0.0
Zn432 Zn 0.54491 0.03833 0.99971 0.0
Zn433 Zn 0.53139 0.01559 0.09704 0.0
C434 C 0.64037 0.09897 0.02314 0.0
O435 O 0.61501 0.12437 0.99263 0.0
C436 C 0.43531 0.95574 0.07392 0.0
O437 O 0.46022 0.93007 0.10456 0.0
O438 O 0.55055 0.04048 0.92237 0.0
O439 O 0.51337 0.96485 0.9985 0.0
O440 O 0.56497 0.95944 0.06871 0.0
C441 C 0.57664 0.00885 0.90808 0.0
O442 O 0.59695 0.98464 0.94428 0.0
O443 O 0.61862 0.05514 0.03345 0.0
C444 C 0.49919 0.04466 0.18872 0.0
O445 O 0.48018 0.07016 0.15293 0.0
O446 O 0.52502 0.01287 0.17419 0.0
O447 O 0.56287 0.08918 0.09842 0.0
O448 O 0.51109 0.0941 0.02813 0.0
O449 O 0.45769 0.99921 0.06321 0.0
C450 C 0.53877 0.93905 0.02474 0.0
C451 C 0.53711 0.11468 0.07213 0.0
Zn452 Zn 0.31649 0.21779 0.26608 0.0
Zn453 Zn 0.25019 0.32964 0.32327 0.0
C454 C 0.39822 0.22332 0.21628 0.0
O455 O 0.35999 0.1934 0.18551 0.0
C456 C 0.17052 0.32555 0.37564 0.0
O457 O 0.20966 0.35578 0.40472 0.0
O458 O 0.31827 0.14291 0.26687 0.0
O459 O 0.29478 0.23514 0.34068 0.0
O460 O 0.27542 0.2968 0.39099 0.0
C461 C 0.34752 0.14033 0.30921 0.0
O462 O 0.36574 0.18149 0.34262 0.0
O463 O 0.39086 0.24371 0.26198 0.0
C464 C 0.21811 0.40613 0.27952 0.0
O465 O 0.19856 0.36438 0.24743 0.0
O466 O 0.24869 0.40429 0.32103 0.0
O467 O 0.27166 0.31124 0.24927 0.0
O468 O 0.29229 0.2512 0.19804 0.0
O469 O 0.17617 0.30431 0.32966 0.0
C470 C 0.28132 0.25124 0.38531 0.0
C471 C 0.28513 0.29627 0.20426 0.0
Zn472 Zn 0.55144 0.48212 0.05904 0.0
Zn473 Zn 0.5174 0.56961 0.03778 0.0
C474 C 0.6072 0.50593 0.1634 0.0
O475 O 0.63561 0.48178 0.13578 0.0
C476 C 0.4626 0.54703 0.93276 0.0
O477 O 0.43374 0.57083 0.96012 0.0
O478 O 0.55838 0.41098 0.06335 0.0
O479 O 0.47547 0.46639 0.03442 0.0
O480 O 0.46317 0.53228 0.08311 0.0
C481 C 0.52875 0.39191 0.09665 0.0
O482 O 0.50352 0.42041 0.12331 0.0
O483 O 0.5671 0.51444 0.13899 0.0
C484 C 0.54088 0.6602 1.00121 0.0
O485 O 0.56604 0.63159 0.97462 0.0
O486 O 0.51083 0.64109 0.03413 0.0
O487 O 0.59354 0.58465 0.06211 0.0
O488 O 0.60498 0.51872 0.01281 0.0
O489 O 0.50229 0.53813 0.95763 0.0
C490 C 0.44751 0.48604 0.06415 0.0
C491 C 0.621 0.5649 0.03177 0.0
Zn492 Zn 0.76627 0.33787 0.28187 0.0
Zn493 Zn 0.80639 0.21816 0.31259 0.0
C494 C 0.67793 0.3084 0.22141 0.0
O495 O 0.70772 0.33996 0.19476 0.0
C496 C 0.89374 0.24681 0.3745 0.0
O497 O 0.86332 0.21502 0.40033 0.0
O498 O 0.75838 0.4125 0.29843 0.0
O499 O 0.80355 0.31389 0.3429 0.0
O500 O 0.77505 0.24417 0.37903 0.0
C501 C 0.72274 0.41731 0.32779 0.0
O502 O 0.69756 0.37696 0.34697 0.0
O503 O 0.69441 0.29862 0.26754 0.0
C504 C 0.85114 0.13925 0.26753 0.0
O505 O 0.8769 0.17991 0.24942 0.0
O506 O 0.81464 0.14361 0.29583 0.0
O507 O 0.76966 0.24261 0.25159 0.0
O508 O 0.79745 0.31217 0.21508 0.0
O509 O 0.87813 0.25713 0.32826 0.0
C510 C 0.78055 0.2923 0.37944 0.0
C511 C 0.7927 0.26419 0.21508 0.0
Zn512 Zn 0.04483 0.53849 0.4997 0.0
Zn513 Zn 0.03132 0.51575 0.59703 0.0
C514 C 0.14031 0.59908 0.52317 0.0
O515 O 0.11496 0.62451 0.49268 0.0
C516 C 0.93526 0.4559 0.57396 0.0
O517 O 0.96018 0.43025 0.60462 0.0
O518 O 0.05048 0.54063 0.42236 0.0
O519 O 0.01325 0.46502 0.4985 0.0
O520 O 0.06488 0.4596 0.56868 0.0
C521 C 0.07651 0.50895 0.40805 0.0
O522 O 0.0968 0.48471 0.44424 0.0
O523 O 0.11853 0.55525 0.53344 0.0
C524 C 0.99918 0.54479 0.68873 0.0
O525 O 0.98016 0.5703 0.65297 0.0
O526 O 0.025 0.51301 0.67418 0.0
O527 O 0.06281 0.58934 0.59843 0.0
O528 O 0.01104 0.59429 0.52815 0.0
O529 O 0.95762 0.49937 0.56324 0.0
C530 C 0.03864 0.4392 0.52474 0.0
C531 C 0.03705 0.61485 0.57216 0.0
Zn532 Zn 0.82989 0.76063 0.28454 0.0
Zn533 Zn 0.74243 0.79471 0.30578 0.0
C534 C 0.80611 0.70489 0.18019 0.0
O535 O 0.83031 0.67652 0.20783 0.0
C536 C 0.76501 0.84952 0.41078 0.0
O537 O 0.74119 0.87836 0.38341 0.0
O538 O 0.90103 0.75369 0.2802 0.0
O539 O 0.84567 0.8366 0.30916 0.0
O540 O 0.77978 0.84893 0.26045 0.0
C541 C 0.92006 0.78331 0.24688 0.0
O542 O 0.89154 0.80853 0.22022 0.0
O543 O 0.79754 0.74496 0.20459 0.0
C544 C 0.65182 0.77126 0.34232 0.0
O545 O 0.68042 0.74608 0.36892 0.0
O546 O 0.67094 0.80131 0.30941 0.0
O547 O 0.72736 0.71856 0.28151 0.0
O548 O 0.79332 0.7071 0.33079 0.0
O549 O 0.77391 0.80984 0.38594 0.0
C550 C 0.82602 0.86459 0.27943 0.0
C551 C 0.74713 0.69108 0.31185 0.0
Zn552 Zn 0.77372 0.26723 0.84379 0.0
Zn553 Zn 0.79643 0.28071 0.74643 0.0
C554 C 0.71312 0.17175 0.82038 0.0
O555 O 0.6877 0.1971 0.85086 0.0
C556 C 0.85625 0.37678 0.7695 0.0
O557 O 0.88192 0.35188 0.73888 0.0
O558 O 0.77158 0.2616 0.92114 0.0
O559 O 0.84719 0.2988 0.845 0.0
O560 O 0.8526 0.24718 0.77483 0.0
C561 C 0.80324 0.23556 0.93548 0.0
O562 O 0.82748 0.21527 0.89931 0.0
O563 O 0.75695 0.19352 0.8101 0.0
C564 C 0.76733 0.31281 0.65469 0.0
O565 O 0.7418 0.3318 0.69043 0.0
O566 O 0.79916 0.28704 0.66928 0.0
O567 O 0.72284 0.24921 0.74506 0.0
O568 O 0.71792 0.301 0.81531 0.0
O569 O 0.81277 0.3544 0.7802 0.0
C570 C 0.873 0.2734 0.81877 0.0
C571 C 0.69734 0.27496 0.77133 0.0
Zn572 Zn 0.81633 0.71776 0.76599 0.0
Zn573 Zn 0.75032 0.82956 0.82326 0.0
C574 C 0.89808 0.72348 0.71621 0.0
O575 O 0.85989 0.69355 0.6854 0.0
C576 C 0.67069 0.82531 0.87569 0.0
O577 O 0.70981 0.85555 0.90478 0.0
O578 O 0.81824 0.6429 0.7667 0.0
O579 O 0.79466 0.73485 0.84067 0.0
O580 O 0.77564 0.79675 0.89094 0.0
C581 C 0.8475 0.64034 0.80903 0.0
O582 O 0.86574 0.6815 0.84243 0.0
O583 O 0.89068 0.74381 0.76192 0.0
C584 C 0.71809 0.906 0.7796 0.0
O585 O 0.6985 0.86423 0.74755 0.0
O586 O 0.74871 0.90418 0.82108 0.0
O587 O 0.77172 0.81138 0.74917 0.0
O588 O 0.79209 0.75116 0.69796 0.0
O589 O 0.67633 0.80412 0.82969 0.0
C590 C 0.78126 0.75109 0.88527 0.0
C591 C 0.78514 0.7963 0.70417 0.0
Zn592 Zn 0.59431 0.49566 0.57752 0.0
Zn593 Zn 0.4825 0.56189 0.52031 0.0
C594 C 0.58866 0.4139 0.62728 0.0
O595 O 0.61861 0.45208 0.65807 0.0
C596 C 0.48668 0.64155 0.46792 0.0
O597 O 0.45642 0.60244 0.43884 0.0
O598 O 0.66918 0.49379 0.57674 0.0
O599 O 0.57707 0.51739 0.50289 0.0
O600 O 0.51531 0.53664 0.45259 0.0
C601 C 0.67172 0.46455 0.53439 0.0
O602 O 0.63054 0.44634 0.501 0.0
O603 O 0.56829 0.42131 0.58158 0.0
C604 C 0.40605 0.59406 0.56403 0.0
O605 O 0.44783 0.61362 0.5961 0.0
O606 O 0.40786 0.56348 0.52253 0.0
O607 O 0.50081 0.54043 0.59435 0.0
O608 O 0.56095 0.51988 0.64557 0.0
O609 O 0.50791 0.63589 0.5139 0.0
C610 C 0.56091 0.53084 0.45827 0.0
C611 C 0.51585 0.52696 0.63936 0.0
Zn612 Zn 0.97422 0.54584 0.06158 0.0
Zn613 Zn 0.09392 0.50571 0.0309 0.0
C614 C 0.0036 0.6342 0.12198 0.0
O615 O 0.97202 0.60439 0.1486 0.0
C616 C 0.0653 0.41836 0.96903 0.0
O617 O 0.09709 0.44879 0.94322 0.0
O618 O 0.89957 0.55369 0.04507 0.0
O619 O 0.99817 0.50855 1.00057 0.0
O620 O 0.06788 0.53704 0.96443 0.0
C621 C 0.89473 0.58932 0.0157 0.0
O622 O 0.93505 0.61449 0.99646 0.0
O623 O 0.01345 0.61771 0.07589 0.0
C624 C 0.17284 0.46097 0.07598 0.0
O625 O 0.13218 0.43521 0.09411 0.0
O626 O 0.16846 0.49746 0.04766 0.0
O627 O 0.0695 0.54246 0.09189 0.0
O628 O 0.99994 0.51469 0.12839 0.0
O629 O 0.05494 0.43396 0.01525 0.0
C630 C 0.01976 0.53154 0.96402 0.0
C631 C 0.04793 0.51944 0.12841 0.0
loop_
_geom_bond_atom_site_label_1
_geom_bond_atom_site_label_2
_geom_bond_distance
_geom_bond_site_symmetry_2
_ccdc_geom_bond_type
In0 O1 2.294 . S
In0 O2 2.326 . S
In0 O6 2.266 1_455 S
In0 O7 2.326 1_455 S
In0 O8 2.266 . S
In0 O9 2.326 . S
In0 O11 2.294 . S
In0 O12 2.326 . S
O1 In0 2.294 . S
O1 C10 1.240 . S
O2 In0 2.326 . S
O2 C10 1.252 . S
C3 O6 1.252 . S
C3 O7 1.260 . S
C4 O11 1.240 . S
C4 O12 1.252 . S
C5 O8 1.252 . S
C5 O9 1.260 . S
O6 In0 2.266 1_655 S
O6 C3 1.252 . S
O7 In0 2.326 1_655 S
O7 C3 1.260 . S
O8 In0 2.266 . S
O8 C5 1.252 . S
O9 In0 2.326 . S
O9 C5 1.260 . S
C10 O1 1.240 . S
C10 O2 1.252 . S
O11 In0 2.294 . S
O11 C4 1.240 . S
O12 In0 2.326 . S
O12 C4 1.252 . S
In13 O14 2.294 . S
In13 O15 2.326 . S
In13 O19 2.266 1_455 S
In13 O20 2.326 . S
In13 O21 2.266 1_455 S
In13 O22 2.326 1_455 S
In13 O24 2.294 . S
In13 O25 2.326 . S
O14 In13 2.294 . S
O14 C23 1.240 . S
O15 In13 2.326 . S
O15 C23 1.252 . S
C16 O19 1.252 . S
C16 O20 1.260 1_655 S
C17 O24 1.240 . S
C17 O25 1.252 . S
C18 O21 1.252 . S
C18 O22 1.260 . S
O19 In13 2.266 1_655 S
O19 C16 1.252 . S
O20 In13 2.326 . S
O20 C16 1.260 1_455 S
O21 In13 2.266 1_655 S
O21 C18 1.252 . S
O22 In13 2.326 1_655 S
O22 C18 1.260 . S
C23 O14 1.240 . S
C23 O15 1.252 . S
O24 In13 2.294 . S
O24 C17 1.240 . S
O25 In13 2.326 . S
O25 C17 1.252 . S
In26 O27 2.294 . S
In26 O28 2.326 . S
In26 O32 2.266 . S
In26 O33 2.326 . S
In26 O34 2.266 1_556 S
In26 O35 2.326 . S
In26 O37 2.294 1_556 S
In26 O38 2.326 . S
O27 In26 2.294 . S
O27 C36 1.240 . S
O28 In26 2.326 . S
O28 C36 1.252 . S
C29 O32 1.252 . S
C29 O33 1.260 . S
C30 O37 1.240 1_556 S
C30 O38 1.252 . S
C31 O34 1.252 1_556 S
C31 O35 1.260 . S
O32 In26 2.266 . S
O32 C29 1.252 . S
O33 In26 2.326 . S
O33 C29 1.260 . S
O34 In26 2.266 1_554 S
O34 C31 1.252 1_554 S
O35 In26 2.326 . S
O35 C31 1.260 . S
C36 O27 1.240 . S
C36 O28 1.252 . S
O37 In26 2.294 1_554 S
O37 C30 1.240 1_554 S
O38 In26 2.326 . S
O38 C30 1.252 . S
In39 O40 2.294 . S
In39 O41 2.326 . S
In39 O45 2.266 . S
In39 O46 2.326 . S
In39 O47 2.266 . S
In39 O48 2.326 . S
In39 O50 2.294 . S
In39 O51 2.326 . S
O40 In39 2.294 . S
O40 C49 1.240 . S
O41 In39 2.326 . S
O41 C49 1.252 . S
C42 O45 1.252 . S
C42 O46 1.260 . S
C43 O50 1.240 . S
C43 O51 1.252 . S
C44 O47 1.252 . S
C44 O48 1.260 . S
O45 In39 2.266 . S
O45 C42 1.252 . S
O46 In39 2.326 . S
O46 C42 1.260 . S
O47 In39 2.266 . S
O47 C44 1.252 . S
O48 In39 2.326 . S
O48 C44 1.260 . S
C49 O40 1.240 . S
C49 O41 1.252 . S
O50 In39 2.294 . S
O50 C43 1.240 . S
O51 In39 2.326 . S
O51 C43 1.252 . S
In52 O53 2.294 . S
In52 O54 2.326 . S
In52 O58 2.266 . S
In52 O59 2.326 . S
In52 O60 2.266 . S
In52 O61 2.326 . S
In52 O63 2.294 . S
In52 O64 2.326 1_455 S
O53 In52 2.294 . S
O53 C62 1.240 . S
O54 In52 2.326 . S
O54 C62 1.252 . S
C55 O58 1.252 . S
C55 O59 1.260 . S
C56 O63 1.240 1_655 S
C56 O64 1.252 . S
C57 O60 1.252 . S
C57 O61 1.260 . S
O58 In52 2.266 . S
O58 C55 1.252 . S
O59 In52 2.326 . S
O59 C55 1.260 . S
O60 In52 2.266 . S
O60 C57 1.252 . S
O61 In52 2.326 . S
O61 C57 1.260 . S
C62 O53 1.240 . S
C62 O54 1.252 . S
O63 In52 2.294 . S
O63 C56 1.240 1_455 S
O64 In52 2.326 1_655 S
O64 C56 1.252 . S
In65 O66 2.294 . S
In65 O67 2.326 . S
In65 O71 2.266 . S
In65 O72 2.326 . S
In65 O73 2.266 . S
In65 O74 2.326 . S
In65 O76 2.294 . S
In65 O77 2.326 . S
O66 In65 2.294 . S
O66 C75 1.240 . S
O67 In65 2.326 . S
O67 C75 1.252 . S
C68 O71 1.252 . S
C68 O72 1.260 . S
C69 O76 1.240 . S
C69 O77 1.252 . S
C70 O73 1.252 . S
C70 O74 1.260 . S
O71 In65 2.266 . S
O71 C68 1.252 . S
O72 In65 2.326 . S
O72 C68 1.260 . S
O73 In65 2.266 . S
O73 C70 1.252 . S
O74 In65 2.326 . S
O74 C70 1.260 . S
C75 O66 1.240 . S
C75 O67 1.252 . S
O76 In65 2.294 . S
O76 C69 1.240 . S
O77 In65 2.326 . S
O77 C69 1.252 . S
In78 O79 2.294 . S
In78 O80 2.326 . S
In78 O84 2.266 . S
In78 O85 2.326 . S
In78 O86 2.266 . S
In78 O87 2.326 . S
In78 O89 2.294 . S
In78 O90 2.326 . S
O79 In78 2.294 . S
O79 C88 1.240 . S
O80 In78 2.326 . S
O80 C88 1.252 . S
C81 O84 1.252 . S
C81 O85 1.260 . S
C82 O89 1.240 . S
C82 O90 1.252 . S
C83 O86 1.252 . S
C83 O87 1.260 . S
O84 In78 2.266 . S
O84 C81 1.252 . S
O85 In78 2.326 . S
O85 C81 1.260 . S
O86 In78 2.266 . S
O86 C83 1.252 . S
O87 In78 2.326 . S
O87 C83 1.260 . S
C88 O79 1.240 . S
C88 O80 1.252 . S
O89 In78 2.294 . S
O89 C82 1.240 . S
O90 In78 2.326 . S
O90 C82 1.252 . S
In91 O92 2.295 . S
In91 O93 2.329 1_455 S
In91 O97 2.267 . S
In91 O98 2.325 . S
In91 O99 2.263 1_455 S
In91 O100 2.321 1_455 S
In91 O102 2.297 . S
In91 O103 2.331 . S
O92 In91 2.295 . S
O92 C101 1.240 . S
O93 In91 2.329 1_655 S
O93 C101 1.252 1_655 S
C94 O97 1.251 . S
C94 O98 1.260 . S
C95 O102 1.240 . S
C95 O103 1.252 . S
C96 O99 1.252 . S
C96 O100 1.260 . S
O97 In91 2.267 . S
O97 C94 1.251 . S
O98 In91 2.325 . S
O98 C94 1.260 . S
O99 In91 2.263 1_655 S
O99 C96 1.252 . S
O100 In91 2.321 1_655 S
O100 C96 1.260 . S
C101 O92 1.240 . S
C101 O93 1.252 1_455 S
O102 In91 2.297 . S
O102 C95 1.240 . S
O103 In91 2.331 . S
O103 C95 1.252 . S
In104 O105 2.294 . S
In104 O106 2.326 . S
In104 O110 2.266 . S
In104 O111 2.326 . S
In104 O112 2.266 1_545 S
In104 O113 2.326 1_545 S
In104 O115 2.294 . S
In104 O116 2.326 . S
O105 In104 2.294 . S
O105 C114 1.240 . S
O106 In104 2.326 . S
O106 C114 1.252 . S
C107 O110 1.252 . S
C107 O111 1.260 . S
C108 O115 1.240 . S
C108 O116 1.252 . S
C109 O112 1.252 . S
C109 O113 1.260 . S
O110 In104 2.266 . S
O110 C107 1.252 . S
O111 In104 2.326 . S
O111 C107 1.260 . S
O112 In104 2.266 1_565 S
O112 C109 1.252 . S
O113 In104 2.326 1_565 S
O113 C109 1.260 . S
C114 O105 1.240 . S
C114 O106 1.252 . S
O115 In104 2.294 . S
O115 C108 1.240 . S
O116 In104 2.326 . S
O116 C108 1.252 . S
In117 O118 2.294 . S
In117 O119 2.326 . S
In117 O123 2.266 . S
In117 O124 2.326 . S
In117 O125 2.266 . S
In117 O126 2.326 . S
In117 O128 2.294 . S
In117 O129 2.326 . S
O118 In117 2.294 . S
O118 C127 1.240 . S
O119 In117 2.326 . S
O119 C127 1.252 . S
C120 O123 1.252 . S
C120 O124 1.260 . S
C121 O128 1.240 . S
C121 O129 1.252 . S
C122 O125 1.252 . S
C122 O126 1.260 . S
O123 In117 2.266 . S
O123 C120 1.252 . S
O124 In117 2.326 . S
O124 C120 1.260 . S
O125 In117 2.266 . S
O125 C122 1.252 . S
O126 In117 2.326 . S
O126 C122 1.260 . S
C127 O118 1.240 . S
C127 O119 1.252 . S
O128 In117 2.294 . S
O128 C121 1.240 . S
O129 In117 2.326 . S
O129 C121 1.252 . S
In130 O131 2.294 . S
In130 O132 2.326 . S
In130 O136 2.266 . S
In130 O137 2.326 . S
In130 O138 2.266 . S
In130 O139 2.326 . S
In130 O141 2.294 1_545 S
In130 O142 2.326 1_545 S
O131 In130 2.294 . S
O131 C140 1.240 . S
O132 In130 2.326 . S
O132 C140 1.252 . S
C133 O136 1.252 . S
C133 O137 1.260 . S
C134 O141 1.240 . S
C134 O142 1.252 . S
C135 O138 1.252 . S
C135 O139 1.260 . S
O136 In130 2.266 . S
O136 C133 1.252 . S
O137 In130 2.326 . S
O137 C133 1.260 . S
O138 In130 2.266 . S
O138 C135 1.252 . S
O139 In130 2.326 . S
O139 C135 1.260 . S
C140 O131 1.240 . S
C140 O132 1.252 . S
O141 In130 2.294 1_565 S
O141 C134 1.240 . S
O142 In130 2.326 1_565 S
O142 C134 1.252 . S
In143 O144 2.294 . S
In143 O145 2.326 . S
In143 O149 2.266 1_554 S
In143 O150 2.326 1_554 S
In143 O151 2.266 . S
In143 O152 2.326 . S
In143 O154 2.294 . S
In143 O155 2.326 . S
O144 In143 2.294 . S
O144 C153 1.240 . S
O145 In143 2.326 . S
O145 C153 1.252 . S
C146 O149 1.252 . S
C146 O150 1.260 . S
C147 O154 1.240 . S
C147 O155 1.252 . S
C148 O151 1.252 . S
C148 O152 1.260 . S
O149 In143 2.266 1_556 S
O149 C146 1.252 . S
O150 In143 2.326 1_556 S
O150 C146 1.260 . S
O151 In143 2.266 . S
O151 C148 1.252 . S
O152 In143 2.326 . S
O152 C148 1.260 . S
C153 O144 1.240 . S
C153 O145 1.252 . S
O154 In143 2.294 . S
O154 C147 1.240 . S
O155 In143 2.326 . S
O155 C147 1.252 . S
In156 O157 2.294 . S
In156 O158 2.326 . S
In156 O162 2.266 . S
In156 O163 2.326 1_554 S
In156 O164 2.266 . S
In156 O165 2.326 . S
In156 O167 2.294 . S
In156 O168 2.326 . S
O157 In156 2.294 . S
O157 C166 1.240 . S
O158 In156 2.326 . S
O158 C166 1.252 . S
C159 O162 1.252 1_556 S
C159 O163 1.260 . S
C160 O167 1.240 . S
C160 O168 1.252 . S
C161 O164 1.252 . S
C161 O165 1.260 . S
O162 In156 2.266 . S
O162 C159 1.252 1_554 S
O163 In156 2.326 1_556 S
O163 C159 1.260 . S
O164 In156 2.266 . S
O164 C161 1.252 . S
O165 In156 2.326 . S
O165 C161 1.260 . S
C166 O157 1.240 . S
C166 O158 1.252 . S
O167 In156 2.294 . S
O167 C160 1.240 . S
O168 In156 2.326 . S
O168 C160 1.252 . S
In169 O170 2.294 . S
In169 O171 2.326 . S
In169 O175 2.266 . S
In169 O176 2.326 . S
In169 O177 2.266 . S
In169 O178 2.326 1_554 S
In169 O180 2.294 . S
In169 O181 2.326 . S
O170 In169 2.294 . S
O170 C179 1.240 . S
O171 In169 2.326 . S
O171 C179 1.252 . S
C172 O175 1.252 . S
C172 O176 1.260 . S
C173 O180 1.240 . S
C173 O181 1.252 . S
C174 O177 1.252 1_556 S
C174 O178 1.260 . S
O175 In169 2.266 . S
O175 C172 1.252 . S
O176 In169 2.326 . S
O176 C172 1.260 . S
O177 In169 2.266 . S
O177 C174 1.252 1_554 S
O178 In169 2.326 1_556 S
O178 C174 1.260 . S
C179 O170 1.240 . S
C179 O171 1.252 . S
O180 In169 2.294 . S
O180 C173 1.240 . S
O181 In169 2.326 . S
O181 C173 1.252 . S
In182 O183 2.294 . S
In182 O184 2.326 . S
In182 O188 2.266 . S
In182 O189 2.326 . S
In182 O190 2.266 . S
In182 O191 2.326 . S
In182 O193 2.294 . S
In182 O194 2.326 . S
O183 In182 2.294 . S
O183 C192 1.240 . S
O184 In182 2.326 . S
O184 C192 1.252 . S
C185 O188 1.252 . S
C185 O189 1.260 . S
C186 O193 1.240 . S
C186 O194 1.252 . S
C187 O190 1.252 . S
C187 O191 1.260 . S
O188 In182 2.266 . S
O188 C185 1.252 . S
O189 In182 2.326 . S
O189 C185 1.260 . S
O190 In182 2.266 . S
O190 C187 1.252 . S
O191 In182 2.326 . S
O191 C187 1.260 . S
C192 O183 1.240 . S
C192 O184 1.252 . S
O193 In182 2.294 . S
O193 C186 1.240 . S
O194 In182 2.326 . S
O194 C186 1.252 . S
In195 O196 2.294 . S
In195 O197 2.326 . S
In195 O201 2.266 . S
In195 O202 2.326 . S
In195 O203 2.266 . S
In195 O204 2.326 . S
In195 O206 2.294 . S
In195 O207 2.326 . S
O196 In195 2.294 . S
O196 C205 1.240 . S
O197 In195 2.326 . S
O197 C205 1.252 . S
C198 O201 1.252 . S
C198 O202 1.260 . S
C199 O206 1.240 . S
C199 O207 1.252 . S
C200 O203 1.252 . S
C200 O204 1.260 . S
O201 In195 2.266 . S
O201 C198 1.252 . S
O202 In195 2.326 . S
O202 C198 1.260 . S
O203 In195 2.266 . S
O203 C200 1.252 . S
O204 In195 2.326 . S
O204 C200 1.260 . S
C205 O196 1.240 . S
C205 O197 1.252 . S
O206 In195 2.294 . S
O206 C199 1.240 . S
O207 In195 2.326 . S
O207 C199 1.252 . S
In208 O209 2.294 . S
In208 O210 2.326 . S
In208 O214 2.266 . S
In208 O215 2.326 . S
In208 O216 2.266 1_545 S
In208 O217 2.326 1_545 S
In208 O219 2.294 . S
In208 O220 2.326 . S
O209 In208 2.294 . S
O209 C218 1.240 . S
O210 In208 2.326 . S
O210 C218 1.252 . S
C211 O214 1.252 . S
C211 O215 1.260 . S
C212 O219 1.240 . S
C212 O220 1.252 . S
C213 O216 1.252 . S
C213 O217 1.260 . S
O214 In208 2.266 . S
O214 C211 1.252 . S
O215 In208 2.326 . S
O215 C211 1.260 . S
O216 In208 2.266 1_565 S
O216 C213 1.252 . S
O217 In208 2.326 1_565 S
O217 C213 1.260 . S
C218 O209 1.240 . S
C218 O210 1.252 . S
O219 In208 2.294 . S
O219 C212 1.240 . S
O220 In208 2.326 . S
O220 C212 1.252 . S
In221 O222 2.294 . S
In221 O223 2.326 . S
In221 O227 2.266 . S
In221 O228 2.326 . S
In221 O229 2.266 . S
In221 O230 2.326 . S
In221 O232 2.294 . S
In221 O233 2.326 . S
O222 In221 2.294 . S
O222 C231 1.240 . S
O223 In221 2.326 . S
O223 C231 1.252 . S
C224 O227 1.252 . S
C224 O228 1.260 . S
C225 O232 1.240 . S
C225 O233 1.252 . S
C226 O229 1.252 . S
C226 O230 1.260 . S
O227 In221 2.266 . S
O227 C224 1.252 . S
O228 In221 2.326 . S
O228 C224 1.260 . S
O229 In221 2.266 . S
O229 C226 1.252 . S
O230 In221 2.326 . S
O230 C226 1.260 . S
C231 O222 1.240 . S
C231 O223 1.252 . S
O232 In221 2.294 . S
O232 C225 1.240 . S
O233 In221 2.326 . S
O233 C225 1.252 . S
In234 O235 2.294 . S
In234 O236 2.326 . S
In234 O240 2.266 . S
In234 O241 2.326 . S
In234 O242 2.266 . S
In234 O243 2.326 . S
In234 O245 2.294 . S
In234 O246 2.326 . S
O235 In234 2.294 . S
O235 C244 1.240 . S
O236 In234 2.326 . S
O236 C244 1.252 . S
C237 O240 1.252 . S
C237 O241 1.260 . S
C238 O245 1.240 . S
C238 O246 1.252 . S
C239 O242 1.252 . S
C239 O243 1.260 . S
O240 In234 2.266 . S
O240 C237 1.252 . S
O241 In234 2.326 . S
O241 C237 1.260 . S
O242 In234 2.266 . S
O242 C239 1.252 . S
O243 In234 2.326 . S
O243 C239 1.260 . S
C244 O235 1.240 . S
C244 O236 1.252 . S
O245 In234 2.294 . S
O245 C238 1.240 . S
O246 In234 2.326 . S
O246 C238 1.252 . S
In247 O248 2.294 1_545 S
In247 O249 2.326 1_545 S
In247 O253 2.266 . S
In247 O254 2.326 . S
In247 O255 2.266 . S
In247 O256 2.326 . S
In247 O258 2.294 1_545 S
In247 O259 2.326 1_545 S
O248 In247 2.294 1_565 S
O248 C257 1.240 . S
O249 In247 2.326 1_565 S
O249 C257 1.252 . S
C250 O253 1.252 . S
C250 O254 1.260 . S
C251 O258 1.240 . S
C251 O259 1.252 . S
C252 O255 1.252 . S
C252 O256 1.260 . S
O253 In247 2.266 . S
O253 C250 1.252 . S
O254 In247 2.326 . S
O254 C250 1.260 . S
O255 In247 2.266 . S
O255 C252 1.252 . S
O256 In247 2.326 . S
O256 C252 1.260 . S
C257 O248 1.240 . S
C257 O249 1.252 . S
O258 In247 2.294 1_565 S
O258 C251 1.240 . S
O259 In247 2.326 1_565 S
O259 C251 1.252 . S
In260 O261 2.294 . S
In260 O262 2.326 . S
In260 O266 2.266 1_554 S
In260 O267 2.326 1_554 S
In260 O268 2.264 1_554 S
In260 O269 2.322 1_554 S
In260 O271 2.296 . S
In260 O272 2.330 . S
O261 In260 2.294 . S
O261 C270 1.240 . S
O262 In260 2.326 . S
O262 C270 1.252 . S
C263 O266 1.252 . S
C263 O267 1.260 . S
C264 O271 1.240 . S
C264 O272 1.252 . S
C265 O268 1.252 . S
C265 O269 1.260 . S
O266 In260 2.266 1_556 S
O266 C263 1.252 . S
O267 In260 2.326 1_556 S
O267 C263 1.260 . S
O268 In260 2.264 1_556 S
O268 C265 1.252 . S
O269 In260 2.322 1_556 S
O269 C265 1.260 . S
C270 O261 1.240 . S
C270 O262 1.252 . S
O271 In260 2.296 . S
O271 C264 1.240 . S
O272 In260 2.330 . S
O272 C264 1.252 . S
In273 O274 2.294 . S
In273 O275 2.326 . S
In273 O279 2.266 . S
In273 O280 2.326 . S
In273 O281 2.266 . S
In273 O282 2.326 . S
In273 O284 2.294 . S
In273 O285 2.326 . S
O274 In273 2.294 . S
O274 C283 1.240 . S
O275 In273 2.326 . S
O275 C283 1.252 . S
C276 O279 1.252 . S
C276 O280 1.260 . S
C277 O284 1.240 . S
C277 O285 1.252 . S
C278 O281 1.252 . S
C278 O282 1.260 . S
O279 In273 2.266 . S
O279 C276 1.252 . S
O280 In273 2.326 . S
O280 C276 1.260 . S
O281 In273 2.266 . S
O281 C278 1.252 . S
O282 In273 2.326 . S
O282 C278 1.260 . S
C283 O274 1.240 . S
C283 O275 1.252 . S
O284 In273 2.294 . S
O284 C277 1.240 . S
O285 In273 2.326 . S
O285 C277 1.252 . S
In286 O287 2.294 . S
In286 O288 2.326 . S
In286 O292 2.266 . S
In286 O293 2.326 . S
In286 O294 2.266 . S
In286 O295 2.326 . S
In286 O297 2.294 . S
In286 O298 2.326 . S
O287 In286 2.294 . S
O287 C296 1.240 . S
O288 In286 2.326 . S
O288 C296 1.252 . S
C289 O292 1.252 . S
C289 O293 1.260 . S
C290 O297 1.240 . S
C290 O298 1.252 . S
C291 O294 1.252 . S
C291 O295 1.260 . S
O292 In286 2.266 . S
O292 C289 1.252 . S
O293 In286 2.326 . S
O293 C289 1.260 . S
O294 In286 2.266 . S
O294 C291 1.252 . S
O295 In286 2.326 . S
O295 C291 1.260 . S
C296 O287 1.240 . S
C296 O288 1.252 . S
O297 In286 2.294 . S
O297 C290 1.240 . S
O298 In286 2.326 . S
O298 C290 1.252 . S
In299 O300 2.294 . S
In299 O301 2.326 . S
In299 O305 2.266 . S
In299 O306 2.326 . S
In299 O307 2.266 . S
In299 O308 2.326 . S
In299 O310 2.294 . S
In299 O311 2.326 . S
O300 In299 2.294 . S
O300 C309 1.240 . S
O301 In299 2.326 . S
O301 C309 1.252 . S
C302 O305 1.252 . S
C302 O306 1.260 . S
C303 O310 1.240 . S
C303 O311 1.252 . S
C304 O307 1.252 . S
C304 O308 1.260 . S
O305 In299 2.266 . S
O305 C302 1.252 . S
O306 In299 2.326 . S
O306 C302 1.260 . S
O307 In299 2.266 . S
O307 C304 1.252 . S
O308 In299 2.326 . S
O308 C304 1.260 . S
C309 O300 1.240 . S
C309 O301 1.252 . S
O310 In299 2.294 . S
O310 C303 1.240 . S
O311 In299 2.326 . S
O311 C303 1.252 . S
Zn312 O318 1.969 1_565 S
Zn312 O319 1.965 1_565 S
Zn312 O323 2.024 . S
Zn312 O328 1.969 1_565 S
Zn313 O320 1.969 1_554 S
Zn313 O326 1.969 1_455 S
Zn313 O327 1.965 . S
Zn313 O329 2.024 . S
C314 O315 1.229 . S
C314 O323 1.058 . S
O315 C314 1.229 . S
C316 O317 1.229 1_554 S
C316 O329 1.058 . S
O317 C316 1.229 1_556 S
O318 Zn312 1.969 1_545 S
O318 C321 1.267 1_545 S
O319 Zn312 1.965 1_545 S
O319 C330 1.260 1_554 S
O320 Zn313 1.969 1_556 S
O320 C330 1.258 . S
C321 O318 1.267 1_565 S
C321 O322 1.228 . S
O322 C321 1.228 . S
O323 Zn312 2.024 . S
O323 C314 1.058 . S
C324 O325 1.228 . S
C324 O326 1.267 . S
O325 C324 1.228 . S
O326 Zn313 1.969 1_655 S
O326 C324 1.267 . S
O327 Zn313 1.965 . S
O327 C331 1.260 . S
O328 Zn312 1.969 1_545 S
O328 C331 1.258 . S
O329 Zn313 2.024 . S
O329 C316 1.058 . S
C330 O319 1.260 1_556 S
C330 O320 1.258 . S
C331 O327 1.260 . S
C331 O328 1.258 . S
Zn332 O338 1.969 . S
Zn332 O339 1.965 . S
Zn332 O343 2.024 . S
Zn332 O348 1.969 . S
Zn333 O340 1.969 . S
Zn333 O346 1.969 . S
Zn333 O347 1.965 . S
Zn333 O349 2.024 . S
C334 O335 1.229 . S
C334 O343 1.058 . S
O335 C334 1.229 . S
C336 O337 1.229 . S
C336 O349 1.058 . S
O337 C336 1.229 . S
O338 Zn332 1.969 . S
O338 C341 1.267 . S
O339 Zn332 1.965 . S
O339 C350 1.260 . S
O340 Zn333 1.969 . S
O340 C350 1.258 . S
C341 O338 1.267 . S
C341 O342 1.228 . S
O342 C341 1.228 . S
O343 Zn332 2.024 . S
O343 C334 1.058 . S
C344 O345 1.228 . S
C344 O346 1.267 . S
O345 C344 1.228 . S
O346 Zn333 1.969 . S
O346 C344 1.267 . S
O347 Zn333 1.965 . S
O347 C351 1.260 . S
O348 Zn332 1.969 . S
O348 C351 1.258 . S
O349 Zn333 2.024 . S
O349 C336 1.058 . S
C350 O339 1.260 . S
C350 O340 1.258 . S
C351 O347 1.260 . S
C351 O348 1.258 . S
Zn352 O358 1.969 . S
Zn352 O359 1.965 . S
Zn352 O363 2.024 . S
Zn352 O368 1.969 . S
Zn353 O360 1.969 . S
Zn353 O366 1.969 . S
Zn353 O367 1.965 1_565 S
Zn353 O369 2.024 . S
C354 O355 1.229 . S
C354 O363 1.058 . S
O355 C354 1.229 . S
C356 O357 1.229 . S
C356 O369 1.058 . S
O357 C356 1.229 . S
O358 Zn352 1.969 . S
O358 C361 1.267 . S
O359 Zn352 1.965 . S
O359 C370 1.260 . S
O360 Zn353 1.969 . S
O360 C370 1.258 1_565 S
C361 O358 1.267 . S
C361 O362 1.228 . S
O362 C361 1.228 . S
O363 Zn352 2.024 . S
O363 C354 1.058 . S
C364 O365 1.228 . S
C364 O366 1.267 . S
O365 C364 1.228 . S
O366 Zn353 1.969 . S
O366 C364 1.267 . S
O367 Zn353 1.965 1_545 S
O367 C371 1.260 . S
O368 Zn352 1.969 . S
O368 C371 1.258 . S
O369 Zn353 2.024 . S
O369 C356 1.058 . S
C370 O359 1.260 . S
C370 O360 1.258 1_545 S
C371 O367 1.260 . S
C371 O368 1.258 . S
Zn372 O378 1.969 . S
Zn372 O379 1.965 . S
Zn372 O383 2.024 . S
Zn372 O388 1.969 . S
Zn373 O380 1.969 . S
Zn373 O386 1.969 . S
Zn373 O387 1.965 . S
Zn373 O389 2.024 . S
C374 O375 1.229 . S
C374 O383 1.058 . S
O375 C374 1.229 . S
C376 O377 1.229 . S
C376 O389 1.058 . S
O377 C376 1.229 . S
O378 Zn372 1.969 . S
O378 C381 1.267 . S
O379 Zn372 1.965 . S
O379 C390 1.260 . S
O380 Zn373 1.969 . S
O380 C390 1.258 . S
C381 O378 1.267 . S
C381 O382 1.228 . S
O382 C381 1.228 . S
O383 Zn372 2.024 . S
O383 C374 1.058 . S
C384 O385 1.228 . S
C384 O386 1.267 . S
O385 C384 1.228 . S
O386 Zn373 1.969 . S
O386 C384 1.267 . S
O387 Zn373 1.965 . S
O387 C391 1.260 . S
O388 Zn372 1.969 . S
O388 C391 1.258 . S
O389 Zn373 2.024 . S
O389 C376 1.058 . S
C390 O379 1.260 . S
C390 O380 1.258 . S
C391 O387 1.260 . S
C391 O388 1.258 . S
Zn392 O398 1.969 . S
Zn392 O399 1.983 . S
Zn392 O403 2.024 1_565 S
Zn392 O408 1.969 1_565 S
Zn393 O400 1.969 1_455 S
Zn393 O406 1.962 1_455 S
Zn393 O407 1.965 . S
Zn393 O409 2.024 . S
C394 O395 1.229 1_545 S
C394 O403 1.058 . S
O395 C394 1.229 1_565 S
C396 O397 1.229 . S
C396 O409 1.058 1_655 S
O397 C396 1.229 . S
O398 Zn392 1.969 . S
O398 C401 1.267 . S
O399 Zn392 1.983 . S
O399 C410 1.240 1_455 S
O400 Zn393 1.969 1_655 S
O400 C410 1.258 1_545 S
C401 O398 1.267 . S
C401 O402 1.228 . S
O402 C401 1.228 . S
O403 Zn392 2.024 1_545 S
O403 C394 1.058 . S
C404 O405 1.228 . S
C404 O406 1.260 1_455 S
O405 C404 1.228 . S
O406 Zn393 1.962 1_655 S
O406 C404 1.260 1_655 S
O407 Zn393 1.965 . S
O407 C411 1.260 . S
O408 Zn392 1.969 1_545 S
O408 C411 1.258 . S
O409 Zn393 2.024 . S
O409 C396 1.058 1_455 S
C410 O399 1.240 1_655 S
C410 O400 1.258 1_565 S
C411 O407 1.260 . S
C411 O408 1.258 . S
Zn412 O418 1.969 . S
Zn412 O419 1.965 . S
Zn412 O423 2.024 . S
Zn412 O428 1.969 . S
Zn413 O420 1.969 . S
Zn413 O426 1.969 . S
Zn413 O427 1.965 . S
Zn413 O429 2.024 . S
C414 O415 1.229 . S
C414 O423 1.058 . S
O415 C414 1.229 . S
C416 O417 1.229 . S
C416 O429 1.058 . S
O417 C416 1.229 . S
O418 Zn412 1.969 . S
O418 C421 1.267 . S
O419 Zn412 1.965 . S
O419 C430 1.260 . S
O420 Zn413 1.969 . S
O420 C430 1.258 . S
C421 O418 1.267 . S
C421 O422 1.228 . S
O422 C421 1.228 . S
O423 Zn412 2.024 . S
O423 C414 1.058 . S
C424 O425 1.228 . S
C424 O426 1.267 . S
O425 C424 1.228 . S
O426 Zn413 1.969 . S
O426 C424 1.267 . S
O427 Zn413 1.965 . S
O427 C431 1.260 . S
O428 Zn412 1.969 . S
O428 C431 1.258 . S
O429 Zn413 2.024 . S
O429 C416 1.058 . S
C430 O419 1.260 . S
C430 O420 1.258 . S
C431 O427 1.260 . S
C431 O428 1.258 . S
Zn432 O438 1.969 . S
Zn432 O439 1.965 1_545 S
Zn432 O443 2.024 1_556 S
Zn432 O448 1.969 1_556 S
Zn433 O440 1.969 1_545 S
Zn433 O446 1.969 1_545 S
Zn433 O447 1.965 . S
Zn433 O449 2.024 . S
C434 O435 1.229 1_554 S
C434 O443 1.058 . S
O435 C434 1.229 1_556 S
C436 O437 1.229 . S
C436 O449 1.058 1_565 S
O437 C436 1.229 . S
O438 Zn432 1.969 . S
O438 C441 1.267 . S
O439 Zn432 1.965 1_565 S
O439 C450 1.260 1_556 S
O440 Zn433 1.969 1_565 S
O440 C450 1.258 . S
C441 O438 1.267 . S
C441 O442 1.228 . S
O442 C441 1.228 . S
O443 Zn432 2.024 1_554 S
O443 C434 1.058 . S
C444 O445 1.228 . S
C444 O446 1.267 1_545 S
O445 C444 1.228 . S
O446 Zn433 1.969 1_565 S
O446 C444 1.267 1_565 S
O447 Zn433 1.965 . S
O447 C451 1.260 . S
O448 Zn432 1.969 1_554 S
O448 C451 1.258 . S
O449 Zn433 2.024 . S
O449 C436 1.058 1_545 S
C450 O439 1.260 1_554 S
C450 O440 1.258 . S
C451 O447 1.260 . S
C451 O448 1.258 . S
Zn452 O458 1.969 . S
Zn452 O459 1.965 . S
Zn452 O463 2.024 . S
Zn452 O468 1.969 . S
Zn453 O460 1.969 . S
Zn453 O466 1.969 . S
Zn453 O467 1.965 . S
Zn453 O469 2.024 . S
C454 O455 1.229 . S
C454 O463 1.058 . S
O455 C454 1.229 . S
C456 O457 1.229 . S
C456 O469 1.058 . S
O457 C456 1.229 . S
O458 Zn452 1.969 . S
O458 C461 1.267 . S
O459 Zn452 1.965 . S
O459 C470 1.260 . S
O460 Zn453 1.969 . S
O460 C470 1.258 . S
C461 O458 1.267 . S
C461 O462 1.228 . S
O462 C461 1.228 . S
O463 Zn452 2.024 . S
O463 C454 1.058 . S
C464 O465 1.228 . S
C464 O466 1.267 . S
O465 C464 1.228 . S
O466 Zn453 1.969 . S
O466 C464 1.267 . S
O467 Zn453 1.965 . S
O467 C471 1.260 . S
O468 Zn452 1.969 . S
O468 C471 1.258 . S
O469 Zn453 2.024 . S
O469 C456 1.058 . S
C470 O459 1.260 . S
C470 O460 1.258 . S
C471 O467 1.260 . S
C471 O468 1.258 . S
Zn472 O478 1.969 . S
Zn472 O479 1.965 . S
Zn472 O483 2.024 . S
Zn472 O488 1.969 . S
Zn473 O480 1.969 1_556 S
Zn473 O486 1.969 . S
Zn473 O487 1.965 1_556 S
Zn473 O489 2.024 . S
C474 O475 1.229 . S
C474 O483 1.058 . S
O475 C474 1.229 . S
C476 O477 1.229 . S
C476 O489 1.058 . S
O477 C476 1.229 . S
O478 Zn472 1.969 . S
O478 C481 1.267 . S
O479 Zn472 1.965 . S
O479 C490 1.260 . S
O480 Zn473 1.969 1_554 S
O480 C490 1.258 . S
C481 O478 1.267 . S
C481 O482 1.228 . S
O482 C481 1.228 . S
O483 Zn472 2.024 . S
O483 C474 1.058 . S
C484 O485 1.228 . S
C484 O486 1.267 . S
O485 C484 1.228 . S
O486 Zn473 1.969 . S
O486 C484 1.267 . S
O487 Zn473 1.965 1_554 S
O487 C491 1.260 . S
O488 Zn472 1.969 . S
O488 C491 1.258 . S
O489 Zn473 2.024 . S
O489 C476 1.058 . S
C490 O479 1.260 . S
C490 O480 1.258 . S
C491 O487 1.260 . S
C491 O488 1.258 . S
Zn492 O498 1.969 . S
Zn492 O499 1.965 . S
Zn492 O503 2.024 . S
Zn492 O508 1.969 . S
Zn493 O500 1.969 . S
Zn493 O506 1.969 . S
Zn493 O507 1.965 . S
Zn493 O509 2.024 . S
C494 O495 1.229 . S
C494 O503 1.058 . S
O495 C494 1.229 . S
C496 O497 1.229 . S
C496 O509 1.058 . S
O497 C496 1.229 . S
O498 Zn492 1.969 . S
O498 C501 1.267 . S
O499 Zn492 1.965 . S
O499 C510 1.260 . S
O500 Zn493 1.969 . S
O500 C510 1.258 . S
C501 O498 1.267 . S
C501 O502 1.228 . S
O502 C501 1.228 . S
O503 Zn492 2.024 . S
O503 C494 1.058 . S
C504 O505 1.228 . S
C504 O506 1.267 . S
O505 C504 1.228 . S
O506 Zn493 1.969 . S
O506 C504 1.267 . S
O507 Zn493 1.965 . S
O507 C511 1.260 . S
O508 Zn492 1.969 . S
O508 C511 1.258 . S
O509 Zn493 2.024 . S
O509 C496 1.058 . S
C510 O499 1.260 . S
C510 O500 1.258 . S
C511 O507 1.260 . S
C511 O508 1.258 . S
Zn512 O518 1.969 . S
Zn512 O519 1.965 . S
Zn512 O523 2.024 . S
Zn512 O528 1.969 . S
Zn513 O520 1.969 . S
Zn513 O526 1.969 . S
Zn513 O527 1.965 1_655 S
Zn513 O529 2.024 . S
C514 O515 1.229 . S
C514 O523 1.058 . S
O515 C514 1.229 . S
C516 O517 1.229 . S
C516 O529 1.058 . S
O517 C516 1.229 . S
O518 Zn512 1.969 . S
O518 C521 1.267 . S
O519 Zn512 1.965 . S
O519 C530 1.260 . S
O520 Zn513 1.969 . S
O520 C530 1.258 1_655 S
C521 O518 1.267 . S
C521 O522 1.228 . S
O522 C521 1.228 . S
O523 Zn512 2.024 . S
O523 C514 1.058 . S
C524 O525 1.228 . S
C524 O526 1.267 . S
O525 C524 1.228 . S
O526 Zn513 1.969 . S
O526 C524 1.267 . S
O527 Zn513 1.965 1_455 S
O527 C531 1.260 . S
O528 Zn512 1.969 . S
O528 C531 1.258 . S
O529 Zn513 2.024 . S
O529 C516 1.058 . S
C530 O519 1.260 . S
C530 O520 1.258 1_455 S
C531 O527 1.260 . S
C531 O528 1.258 . S
Zn532 O538 1.969 . S
Zn532 O539 1.965 . S
Zn532 O543 2.024 . S
Zn532 O548 1.969 . S
Zn533 O540 1.969 . S
Zn533 O546 1.969 . S
Zn533 O547 1.965 . S
Zn533 O549 2.024 . S
C534 O535 1.229 . S
C534 O543 1.058 . S
O535 C534 1.229 . S
C536 O537 1.229 . S
C536 O549 1.058 . S
O537 C536 1.229 . S
O538 Zn532 1.969 . S
O538 C541 1.267 . S
O539 Zn532 1.965 . S
O539 C550 1.260 . S
O540 Zn533 1.969 . S
O540 C550 1.258 . S
C541 O538 1.267 . S
C541 O542 1.228 . S
O542 C541 1.228 . S
O543 Zn532 2.024 . S
O543 C534 1.058 . S
C544 O545 1.228 . S
C544 O546 1.267 . S
O545 C544 1.228 . S
O546 Zn533 1.969 . S
O546 C544 1.267 . S
O547 Zn533 1.965 . S
O547 C551 1.260 . S
O548 Zn532 1.969 . S
O548 C551 1.258 . S
O549 Zn533 2.024 . S
O549 C536 1.058 . S
C550 O539 1.260 . S
C550 O540 1.258 . S
C551 O547 1.260 . S
C551 O548 1.258 . S
Zn552 O558 1.969 . S
Zn552 O559 1.965 . S
Zn552 O563 2.024 . S
Zn552 O568 1.969 . S
Zn553 O560 1.969 . S
Zn553 O566 1.969 . S
Zn553 O567 1.965 . S
Zn553 O569 2.024 . S
C554 O555 1.229 . S
C554 O563 1.058 . S
O555 C554 1.229 . S
C556 O557 1.229 . S
C556 O569 1.058 . S
O557 C556 1.229 . S
O558 Zn552 1.969 . S
O558 C561 1.267 . S
O559 Zn552 1.965 . S
O559 C570 1.260 . S
O560 Zn553 1.969 . S
O560 C570 1.258 . S
C561 O558 1.267 . S
C561 O562 1.228 . S
O562 C561 1.228 . S
O563 Zn552 2.024 . S
O563 C554 1.058 . S
C564 O565 1.228 . S
C564 O566 1.267 . S
O565 C564 1.228 . S
O566 Zn553 1.969 . S
O566 C564 1.267 . S
O567 Zn553 1.965 . S
O567 C571 1.260 . S
O568 Zn552 1.969 . S
O568 C571 1.258 . S
O569 Zn553 2.024 . S
O569 C556 1.058 . S
C570 O559 1.260 . S
C570 O560 1.258 . S
C571 O567 1.260 . S
C571 O568 1.258 . S
Zn572 O578 1.969 . S
Zn572 O579 1.965 . S
Zn572 O583 2.024 . S
Zn572 O588 1.969 . S
Zn573 O580 1.969 . S
Zn573 O586 1.969 . S
Zn573 O587 1.965 . S
Zn573 O589 2.024 . S
C574 O575 1.229 . S
C574 O583 1.058 . S
O575 C574 1.229 . S
C576 O577 1.229 . S
C576 O589 1.058 . S
O577 C576 1.229 . S
O578 Zn572 1.969 . S
O578 C581 1.267 . S
O579 Zn572 1.965 . S
O579 C590 1.260 . S
O580 Zn573 1.969 . S
O580 C590 1.258 . S
C581 O578 1.267 . S
C581 O582 1.228 . S
O582 C581 1.228 . S
O583 Zn572 2.024 . S
O583 C574 1.058 . S
C584 O585 1.228 . S
C584 O586 1.267 . S
O585 C584 1.228 . S
O586 Zn573 1.969 . S
O586 C584 1.267 . S
O587 Zn573 1.965 . S
O587 C591 1.260 . S
O588 Zn572 1.969 . S
O588 C591 1.258 . S
O589 Zn573 2.024 . S
O589 C576 1.058 . S
C590 O579 1.260 . S
C590 O580 1.258 . S
C591 O587 1.260 . S
C591 O588 1.258 . S
Zn592 O598 1.969 . S
Zn592 O599 1.965 . S
Zn592 O603 2.024 . S
Zn592 O608 1.969 . S
Zn593 O600 1.969 . S
Zn593 O606 1.969 . S
Zn593 O607 1.965 . S
Zn593 O609 2.024 . S
C594 O595 1.229 . S
C594 O603 1.058 . S
O595 C594 1.229 . S
C596 O597 1.229 . S
C596 O609 1.058 . S
O597 C596 1.229 . S
O598 Zn592 1.969 . S
O598 C601 1.267 . S
O599 Zn592 1.965 . S
O599 C610 1.260 . S
O600 Zn593 1.969 . S
O600 C610 1.258 . S
C601 O598 1.267 . S
C601 O602 1.228 . S
O602 C601 1.228 . S
O603 Zn592 2.024 . S
O603 C594 1.058 . S
C604 O605 1.228 . S
C604 O606 1.267 . S
O605 C604 1.228 . S
O606 Zn593 1.969 . S
O606 C604 1.267 . S
O607 Zn593 1.965 . S
O607 C611 1.260 . S
O608 Zn592 1.969 . S
O608 C611 1.258 . S
O609 Zn593 2.024 . S
O609 C596 1.058 . S
C610 O599 1.260 . S
C610 O600 1.258 . S
C611 O607 1.260 . S
C611 O608 1.258 . S
Zn612 O618 1.969 . S
Zn612 O619 1.965 . S
Zn612 O623 2.024 1_655 S
Zn612 O628 1.969 1_655 S
Zn613 O620 1.969 1_554 S
Zn613 O626 1.969 . S
Zn613 O627 1.965 . S
Zn613 O629 2.024 . S
C614 O615 1.229 1_455 S
C614 O623 1.058 . S
O615 C614 1.229 1_655 S
C616 O617 1.229 . S
C616 O629 1.058 1_556 S
O617 C616 1.229 . S
O618 Zn612 1.969 . S
O618 C621 1.267 . S
O619 Zn612 1.965 . S
O619 C630 1.261 1_554 S
O620 Zn613 1.969 1_556 S
O620 C630 1.256 1_455 S
C621 O618 1.267 . S
C621 O622 1.228 . S
O622 C621 1.228 . S
O623 Zn612 2.024 1_455 S
O623 C614 1.058 . S
C624 O625 1.228 . S
C624 O626 1.267 . S
O625 C624 1.228 . S
O626 Zn613 1.969 . S
O626 C624 1.267 . S
O627 Zn613 1.965 . S
O627 C631 1.260 . S
O628 Zn612 1.969 1_455 S
O628 C631 1.258 . S
O629 Zn613 2.024 . S
O629 C616 1.058 1_554 S
C630 O619 1.261 1_556 S
C630 O620 1.256 1_655 S
C631 O627 1.260 . S
C631 O628 1.258 . S
C101 C316 2.380 1_556 S
C57 C351 1.882 . S
C70 C356 1.323 . S
C381 C82 1.300 . S
C23 C401 1.300 . S
C416 C29 1.322 . S
C451 C49 1.873 . S
C10 C456 2.378 . S
C331 C218 2.552 1_455 S
C226 C341 1.156 . S
C371 C251 1.794 1_545 S
C376 C159 1.182 . S
C211 C396 1.182 . S
C431 C225 1.795 . S
C441 C252 1.151 . S
C471 C166 2.546 . S
C321 C147 2.626 . S
C263 C491 2.356 1_556 S
C501 C309 1.953 . S
C516 C291 1.374 . S
C108 C461 2.620 . S
C121 C361 1.949 . S
C302 C551 2.359 . S
C556 C276 1.374 . S
C314 C55 1.773 . S
C570 C96 1.965 . S
C88 C354 1.188 . S
C75 C544 1.651 . S
C404 C4 1.649 . S
C44 C494 1.209 . S
C450 C31 1.964 1_554 S
C574 C18 1.773 . S
C330 C133 2.318 . S
C564 C296 1.377 . S
C107 C370 1.699 . S
C264 C534 1.278 . S
C140 C394 1.280 . S
C510 C289 1.699 . S
C114 C444 1.381 . S
C265 C590 2.321 . S
C179 C324 2.106 . S
C161 C490 2.399 . S
C244 C424 2.093 . S
C224 C514 1.200 . S
C584 C257 2.105 . S
C199 C364 2.092 . S
C390 C237 2.397 . S
C334 C185 1.199 . S
C69 C596 2.381 . S
C571 C83 1.882 . S
C94 C616 1.325 . S
C56 C541 1.299 . S
C42 C481 1.315 . S
C496 C3 1.325 . S
C531 C16 1.883 1_455 S
C576 C36 2.381 . S
C611 C238 2.550 . S
C174 C561 1.154 . S
C631 C186 1.793 . S
C536 C198 1.181 . S
C476 C239 1.183 . S
C173 C511 1.799 . S
C521 C187 1.156 . S
C205 C591 2.551 . S
C601 C290 2.624 . S
C122 C411 2.357 . S
C421 C134 1.950 . S
C436 C148 1.369 . S
C581 C283 2.622 . S
C270 C621 1.945 . S
C391 C135 2.356 . S
C336 C109 1.372 . S
C81 C594 1.774 . S
C350 C68 1.965 . S
C62 C614 1.188 . S
C95 C384 1.650 . S
C30 C484 1.650 . S
C414 C17 1.188 . S
C5 C530 1.965 . S
C43 C454 1.762 . S
C610 C304 2.319 . S
C153 C344 1.375 . S
C630 C278 1.699 . S
C127 C374 1.280 . S
C303 C474 1.277 . S
C430 C146 1.699 . S
C277 C524 1.376 . S
C470 C120 2.318 . S
C604 C231 2.106 . S
C410 C200 2.398 . S
C212 C504 2.093 . S
C434 C172 1.200 . S
C192 C464 2.105 . S
C160 C624 2.093 . S
C550 C213 2.398 . S
C554 C250 1.200 . S
