# Generated by pormake.
# Topology gar, (4,6)-cn, num edge types: 1
# Building blocks:
#     Node 0, Type 0, BuildingBlock: UXUYUI_clean_sbu_0, # of connection points: 4
#     Node 1, Type 0, BuildingBlock: UXUYUI_clean_sbu_0, # of connection points: 4
#     Node 2, Type 0, BuildingBlock: UXUYUI_clean_sbu_0, # of connection points: 4
#     Node 3, Type 0, BuildingBlock: UXUYUI_clean_sbu_0, # of connection points: 4
#     Node 4, Type 0, BuildingBlock: UXUYUI_clean_sbu_0, # of connection points: 4
#     Node 5, Type 0, BuildingBlock: UXUYUI_clean_sbu_0, # of connection points: 4
#     Node 6, Type 0, BuildingBlock: UXUYUI_clean_sbu_0, # of connection points: 4
#     Node 7, Type 0, BuildingBlock: UXUYUI_clean_sbu_0, # of connection points: 4
#     Node 8, Type 0, BuildingBlock: UXUYUI_clean_sbu_0, # of connection points: 4
#     Node 9, Type 0, BuildingBlock: UXUYUI_clean_sbu_0, # of connection points: 4
#     Node 10, Type 0, BuildingBlock: UXUYUI_clean_sbu_0, # of connection points: 4
#     Node 11, Type 0, BuildingBlock: UXUYUI_clean_sbu_0, # of connection points: 4
#     Node 12, Type 0, BuildingBlock: UXUYUI_clean_sbu_0, # of connection points: 4
#     Node 13, Type 0, BuildingBlock: UXUYUI_clean_sbu_0, # of connection points: 4
#     Node 14, Type 0, BuildingBlock: UXUYUI_clean_sbu_0, # of connection points: 4
#     Node 15, Type 0, BuildingBlock: UXUYUI_clean_sbu_0, # of connection points: 4
#     Node 16, Type 0, BuildingBlock: UXUYUI_clean_sbu_0, # of connection points: 4
#     Node 17, Type 0, BuildingBlock: UXUYUI_clean_sbu_0, # of connection points: 4
#     Node 18, Type 0, BuildingBlock: UXUYUI_clean_sbu_0, # of connection points: 4
#     Node 19, Type 0, BuildingBlock: UXUYUI_clean_sbu_0, # of connection points: 4
#     Node 20, Type 0, BuildingBlock: UXUYUI_clean_sbu_0, # of connection points: 4
#     Node 21, Type 0, BuildingBlock: UXUYUI_clean_sbu_0, # of connection points: 4
#     Node 22, Type 0, BuildingBlock: UXUYUI_clean_sbu_0, # of connection points: 4
#     Node 23, Type 0, BuildingBlock: UXUYUI_clean_sbu_0, # of connection points: 4
#     Node 24, Type 1, BuildingBlock: KUMJIN_clean_sbu_1, # of connection points: 6
#     Node 25, Type 1, BuildingBlock: KUMJIN_clean_sbu_1, # of connection points: 6
#     Node 26, Type 1, BuildingBlock: KUMJIN_clean_sbu_1, # of connection points: 6
#     Node 27, Type 1, BuildingBlock: KUMJIN_clean_sbu_1, # of connection points: 6
#     Node 28, Type 1, BuildingBlock: KUMJIN_clean_sbu_1, # of connection points: 6
#     Node 29, Type 1, BuildingBlock: KUMJIN_clean_sbu_1, # of connection points: 6
#     Node 30, Type 1, BuildingBlock: KUMJIN_clean_sbu_1, # of connection points: 6
#     Node 31, Type 1, BuildingBlock: KUMJIN_clean_sbu_1, # of connection points: 6
#     Node 32, Type 1, BuildingBlock: KUMJIN_clean_sbu_1, # of connection points: 6
#     Node 33, Type 1, BuildingBlock: KUMJIN_clean_sbu_1, # of connection points: 6
#     Node 34, Type 1, BuildingBlock: KUMJIN_clean_sbu_1, # of connection points: 6
#     Node 35, Type 1, BuildingBlock: KUMJIN_clean_sbu_1, # of connection points: 6
#     Node 36, Type 1, BuildingBlock: KUMJIN_clean_sbu_1, # of connection points: 6
#     Node 37, Type 1, BuildingBlock: KUMJIN_clean_sbu_1, # of connection points: 6
#     Node 38, Type 1, BuildingBlock: KUMJIN_clean_sbu_1, # of connection points: 6
#     Node 39, Type 1, BuildingBlock: KUMJIN_clean_sbu_1, # of connection points: 6
#     Edge 40, Type (0, 1), BuildingBlock: XUDNAN_clean_linker_2, # of connection points: 2
#     Edge 41, Type (0, 1), BuildingBlock: XUDNAN_clean_linker_2, # of connection points: 2
#     Edge 42, Type (0, 1), BuildingBlock: XUDNAN_clean_linker_2, # of connection points: 2
#     Edge 43, Type (0, 1), BuildingBlock: XUDNAN_clean_linker_2, # of connection points: 2
#     Edge 44, Type (0, 1), BuildingBlock: XUDNAN_clean_linker_2, # of connection points: 2
#     Edge 45, Type (0, 1), BuildingBlock: XUDNAN_clean_linker_2, # of connection points: 2
#     Edge 46, Type (0, 1), BuildingBlock: XUDNAN_clean_linker_2, # of connection points: 2
#     Edge 47, Type (0, 1), BuildingBlock: XUDNAN_clean_linker_2, # of connection points: 2
#     Edge 48, Type (0, 1), BuildingBlock: XUDNAN_clean_linker_2, # of connection points: 2
#     Edge 49, Type (0, 1), BuildingBlock: XUDNAN_clean_linker_2, # of connection points: 2
#     Edge 50, Type (0, 1), BuildingBlock: XUDNAN_clean_linker_2, # of connection points: 2
#     Edge 51, Type (0, 1), BuildingBlock: XUDNAN_clean_linker_2, # of connection points: 2
#     Edge 52, Type (0, 1), BuildingBlock: XUDNAN_clean_linker_2, # of connection points: 2
#     Edge 53, Type (0, 1), BuildingBlock: XUDNAN_clean_linker_2, # of connection points: 2
#     Edge 54, Type (0, 1), BuildingBlock: XUDNAN_clean_linker_2, # of connection points: 2
#     Edge 55, Type (0, 1), BuildingBlock: XUDNAN_clean_linker_2, # of connection points: 2
#     Edge 56, Type (0, 1), BuildingBlock: XUDNAN_clean_linker_2, # of connection points: 2
#     Edge 57, Type (0, 1), BuildingBlock: XUDNAN_clean_linker_2, # of connection points: 2
#     Edge 58, Type (0, 1), BuildingBlock: XUDNAN_clean_linker_2, # of connection points: 2
#     Edge 59, Type (0, 1), BuildingBlock: XUDNAN_clean_linker_2, # of connection points: 2
#     Edge 60, Type (0, 1), BuildingBlock: XUDNAN_clean_linker_2, # of connection points: 2
#     Edge 61, Type (0, 1), BuildingBlock: XUDNAN_clean_linker_2, # of connection points: 2
#     Edge 62, Type (0, 1), BuildingBlock: XUDNAN_clean_linker_2, # of connection points: 2
#     Edge 63, Type (0, 1), BuildingBlock: XUDNAN_clean_linker_2, # of connection points: 2
#     Edge 64, Type (0, 1), BuildingBlock: XUDNAN_clean_linker_2, # of connection points: 2
#     Edge 65, Type (0, 1), BuildingBlock: XUDNAN_clean_linker_2, # of connection points: 2
#     Edge 66, Type (0, 1), BuildingBlock: XUDNAN_clean_linker_2, # of connection points: 2
#     Edge 67, Type (0, 1), BuildingBlock: XUDNAN_clean_linker_2, # of connection points: 2
#     Edge 68, Type (0, 1), BuildingBlock: XUDNAN_clean_linker_2, # of connection points: 2
#     Edge 69, Type (0, 1), BuildingBlock: XUDNAN_clean_linker_2, # of connection points: 2
#     Edge 70, Type (0, 1), BuildingBlock: XUDNAN_clean_linker_2, # of connection points: 2
#     Edge 71, Type (0, 1), BuildingBlock: XUDNAN_clean_linker_2, # of connection points: 2
#     Edge 72, Type (0, 1), BuildingBlock: XUDNAN_clean_linker_2, # of connection points: 2
#     Edge 73, Type (0, 1), BuildingBlock: XUDNAN_clean_linker_2, # of connection points: 2
#     Edge 74, Type (0, 1), BuildingBlock: XUDNAN_clean_linker_2, # of connection points: 2
#     Edge 75, Type (0, 1), BuildingBlock: XUDNAN_clean_linker_2, # of connection points: 2
#     Edge 76, Type (0, 1), BuildingBlock: XUDNAN_clean_linker_2, # of connection points: 2
#     Edge 77, Type (0, 1), BuildingBlock: XUDNAN_clean_linker_2, # of connection points: 2
#     Edge 78, Type (0, 1), BuildingBlock: XUDNAN_clean_linker_2, # of connection points: 2
#     Edge 79, Type (0, 1), BuildingBlock: XUDNAN_clean_linker_2, # of connection points: 2
#     Edge 80, Type (0, 1), BuildingBlock: XUDNAN_clean_linker_2, # of connection points: 2
#     Edge 81, Type (0, 1), BuildingBlock: XUDNAN_clean_linker_2, # of connection points: 2
#     Edge 82, Type (0, 1), BuildingBlock: XUDNAN_clean_linker_2, # of connection points: 2
#     Edge 83, Type (0, 1), BuildingBlock: XUDNAN_clean_linker_2, # of connection points: 2
#     Edge 84, Type (0, 1), BuildingBlock: XUDNAN_clean_linker_2, # of connection points: 2
#     Edge 85, Type (0, 1), BuildingBlock: XUDNAN_clean_linker_2, # of connection points: 2
#     Edge 86, Type (0, 1), BuildingBlock: XUDNAN_clean_linker_2, # of connection points: 2
#     Edge 87, Type (0, 1), BuildingBlock: XUDNAN_clean_linker_2, # of connection points: 2
#     Edge 88, Type (0, 1), BuildingBlock: XUDNAN_clean_linker_2, # of connection points: 2
#     Edge 89, Type (0, 1), BuildingBlock: XUDNAN_clean_linker_2, # of connection points: 2
#     Edge 90, Type (0, 1), BuildingBlock: XUDNAN_clean_linker_2, # of connection points: 2
#     Edge 91, Type (0, 1), BuildingBlock: XUDNAN_clean_linker_2, # of connection points: 2
#     Edge 92, Type (0, 1), BuildingBlock: XUDNAN_clean_linker_2, # of connection points: 2
#     Edge 93, Type (0, 1), BuildingBlock: XUDNAN_clean_linker_2, # of connection points: 2
#     Edge 94, Type (0, 1), BuildingBlock: XUDNAN_clean_linker_2, # of connection points: 2
#     Edge 95, Type (0, 1), BuildingBlock: XUDNAN_clean_linker_2, # of connection points: 2
#     Edge 96, Type (0, 1), BuildingBlock: XUDNAN_clean_linker_2, # of connection points: 2
#     Edge 97, Type (0, 1), BuildingBlock: XUDNAN_clean_linker_2, # of connection points: 2
#     Edge 98, Type (0, 1), BuildingBlock: XUDNAN_clean_linker_2, # of connection points: 2
#     Edge 99, Type (0, 1), BuildingBlock: XUDNAN_clean_linker_2, # of connection points: 2
#     Edge 100, Type (0, 1), BuildingBlock: XUDNAN_clean_linker_2, # of connection points: 2
#     Edge 101, Type (0, 1), BuildingBlock: XUDNAN_clean_linker_2, # of connection points: 2
#     Edge 102, Type (0, 1), BuildingBlock: XUDNAN_clean_linker_2, # of connection points: 2
#     Edge 103, Type (0, 1), BuildingBlock: XUDNAN_clean_linker_2, # of connection points: 2
#     Edge 104, Type (0, 1), BuildingBlock: XUDNAN_clean_linker_2, # of connection points: 2
#     Edge 105, Type (0, 1), BuildingBlock: XUDNAN_clean_linker_2, # of connection points: 2
#     Edge 106, Type (0, 1), BuildingBlock: XUDNAN_clean_linker_2, # of connection points: 2
#     Edge 107, Type (0, 1), BuildingBlock: XUDNAN_clean_linker_2, # of connection points: 2
#     Edge 108, Type (0, 1), BuildingBlock: XUDNAN_clean_linker_2, # of connection points: 2
#     Edge 109, Type (0, 1), BuildingBlock: XUDNAN_clean_linker_2, # of connection points: 2
#     Edge 110, Type (0, 1), BuildingBlock: XUDNAN_clean_linker_2, # of connection points: 2
#     Edge 111, Type (0, 1), BuildingBlock: XUDNAN_clean_linker_2, # of connection points: 2
#     Edge 112, Type (0, 1), BuildingBlock: XUDNAN_clean_linker_2, # of connection points: 2
#     Edge 113, Type (0, 1), BuildingBlock: XUDNAN_clean_linker_2, # of connection points: 2
#     Edge 114, Type (0, 1), BuildingBlock: XUDNAN_clean_linker_2, # of connection points: 2
#     Edge 115, Type (0, 1), BuildingBlock: XUDNAN_clean_linker_2, # of connection points: 2
#     Edge 116, Type (0, 1), BuildingBlock: XUDNAN_clean_linker_2, # of connection points: 2
#     Edge 117, Type (0, 1), BuildingBlock: XUDNAN_clean_linker_2, # of connection points: 2
#     Edge 118, Type (0, 1), BuildingBlock: XUDNAN_clean_linker_2, # of connection points: 2
#     Edge 119, Type (0, 1), BuildingBlock: XUDNAN_clean_linker_2, # of connection points: 2
#     Edge 120, Type (0, 1), BuildingBlock: XUDNAN_clean_linker_2, # of connection points: 2
#     Edge 121, Type (0, 1), BuildingBlock: XUDNAN_clean_linker_2, # of connection points: 2
#     Edge 122, Type (0, 1), BuildingBlock: XUDNAN_clean_linker_2, # of connection points: 2
#     Edge 123, Type (0, 1), BuildingBlock: XUDNAN_clean_linker_2, # of connection points: 2
#     Edge 124, Type (0, 1), BuildingBlock: XUDNAN_clean_linker_2, # of connection points: 2
#     Edge 125, Type (0, 1), BuildingBlock: XUDNAN_clean_linker_2, # of connection points: 2
#     Edge 126, Type (0, 1), BuildingBlock: XUDNAN_clean_linker_2, # of connection points: 2
#     Edge 127, Type (0, 1), BuildingBlock: XUDNAN_clean_linker_2, # of connection points: 2
#     Edge 128, Type (0, 1), BuildingBlock: XUDNAN_clean_linker_2, # of connection points: 2
#     Edge 129, Type (0, 1), BuildingBlock: XUDNAN_clean_linker_2, # of connection points: 2
#     Edge 130, Type (0, 1), BuildingBlock: XUDNAN_clean_linker_2, # of connection points: 2
#     Edge 131, Type (0, 1), BuildingBlock: XUDNAN_clean_linker_2, # of connection points: 2
#     Edge 132, Type (0, 1), BuildingBlock: XUDNAN_clean_linker_2, # of connection points: 2
#     Edge 133, Type (0, 1), BuildingBlock: XUDNAN_clean_linker_2, # of connection points: 2
#     Edge 134, Type (0, 1), BuildingBlock: XUDNAN_clean_linker_2, # of connection points: 2
#     Edge 135, Type (0, 1), BuildingBlock: XUDNAN_clean_linker_2, # of connection points: 2
# Relax obj value: 0.086
# Max RMSD: 0.200
# Mean RMSD: 0.155
data_MOF--net-gar--node1-UXUYUI_clean_sbu_0--node2-KUMJIN_clean_sbu_1--edge1-XUDNAN_clean_linker_2
_symmetry_space_group_name_H-M    P1
_symmetry_Int_Tables_number       1
_symmetry_cell_setting            triclinic
loop_
_symmetry_equiv_pos_as_xyz
'x, y, z'
_cell_length_a     72.78878
_cell_length_b     72.969445
_cell_length_c     68.80487
_cell_angle_alpha  95.85323
_cell_angle_beta   95.762947
_cell_angle_gamma 100.65382
loop_
_atom_site_label
_atom_site_type_symbol
_atom_site_fract_x
_atom_site_fract_y
_atom_site_fract_z
_atom_type_partial_charge
Li0 Li 0.02418 0.30165 0.34344 0.0
Li1 Li 0.04604 0.3233 0.37287 0.0
Li2 Li 0.06144 0.30387 0.34476 0.0
Li3 Li 0.04326 0.2871 0.3707 0.0
C4 C 0.04348 0.33769 0.331 0.0
N5 N 0.04101 0.36526 0.30676 0.0
C6 C 0.03873 0.35456 0.33826 0.0
C7 C 0.04695 0.33478 0.31143 0.0
C8 C 0.03758 0.36835 0.32577 0.0
C9 C 0.0456 0.3489 0.29939 0.0
C10 C 0.01027 0.30205 0.3855 0.0
C11 C 1.00116 0.29777 0.41771 0.0
N12 N 0.98371 0.30074 0.41157 0.0
C13 C 0.99225 0.30505 0.3795 0.0
C14 C 0.0148 0.29837 0.40474 0.0
C15 C 0.97902 0.30433 0.3929 0.0
C16 C 0.98818 0.28057 0.32292 0.0
N17 N 0.9983 0.29842 0.32775 0.0
C18 C 0.97061 0.31042 0.31648 0.0
C19 C 0.98991 0.31325 0.32414 0.0
C20 C 0.95953 0.29213 0.31244 0.0
C21 C 0.96902 0.27715 0.31516 0.0
H22 H 0.99477 0.26885 0.32587 0.0
H23 H 0.99788 0.32742 0.32818 0.0
C24 C 0.06391 0.36108 0.39331 0.0
N25 N 0.04823 0.34723 0.39174 0.0
C26 C 0.06538 0.37823 0.4055 0.0
C27 C 0.03502 0.36667 0.41523 0.0
C28 C 0.03399 0.34982 0.40264 0.0
C29 C 0.05074 0.38146 0.41662 0.0
H30 H 0.07523 0.35901 0.38479 0.0
H31 H 0.0215 0.339 0.40137 0.0
C32 C 0.03871 0.26552 0.32815 0.0
N33 N 0.03544 0.2334 0.30203 0.0
C34 C 0.04383 0.24943 0.33465 0.0
C35 C 0.03196 0.26532 0.30837 0.0
C36 C 0.04206 0.23332 0.32122 0.0
C37 C 0.03042 0.24893 0.29538 0.0
C38 C 0.08117 0.30903 0.38874 0.0
C39 C 0.098 0.30426 0.38379 0.0
C40 C 0.0795 0.31499 0.40831 0.0
C41 C 0.11293 0.30549 0.39861 0.0
C42 C 0.09476 0.31601 0.4227 0.0
N43 N 0.11101 0.31129 0.41759 0.0
C44 C 0.09742 0.31897 0.32971 0.0
C45 C 0.08938 0.28595 0.32384 0.0
C46 C 0.11501 0.31873 0.32271 0.0
N47 N 0.08495 0.30273 0.33061 0.0
C48 C 0.10689 0.2851 0.31665 0.0
C49 C 0.12043 0.30162 0.31646 0.0
H50 H 0.09404 0.33226 0.3351 0.0
H51 H 0.07967 0.27301 0.32469 0.0
C52 C 0.02672 0.2531 0.3871 0.0
N53 N 0.04293 0.2658 0.38662 0.0
C54 C 0.02656 0.23806 0.39849 0.0
C55 C 0.05968 0.24933 0.40877 0.0
C56 C 0.05928 0.26389 0.397 0.0
C57 C 0.04319 0.23614 0.40977 0.0
H58 H 0.01383 0.25465 0.37869 0.0
H59 H 0.07217 0.27359 0.3962 0.0
O60 O 0.04547 0.3244 0.34324 0.0
O61 O 0.0234 0.30275 0.37259 0.0
O62 O 0.03982 0.28123 0.3412 0.0
O63 O 0.0664 0.30783 0.37446 0.0
H64 H 0.03612 0.35704 0.35343 0.0
H65 H 0.05077 0.32181 0.30567 0.0
H66 H 0.03402 0.38153 0.33121 0.0
H67 H 0.04827 0.34689 0.28421 0.0
H68 H 1.00446 0.29497 0.43267 0.0
H69 H 0.98853 0.308 0.3647 0.0
H70 H 0.02871 0.29607 0.40961 0.0
H71 H 0.96503 0.30666 0.38846 0.0
H72 H 0.9642 0.32252 0.31482 0.0
H73 H 0.9615 0.26271 0.31197 0.0
H74 H 0.07789 0.38902 0.40603 0.0
H75 H 0.02323 0.36838 0.42319 0.0
H76 H 0.04908 0.24936 0.34992 0.0
H77 H 0.02787 0.27766 0.30315 0.0
H78 H 0.04592 0.22074 0.32605 0.0
H79 H 0.02518 0.24853 0.28004 0.0
H80 H 0.09949 0.29955 0.36872 0.0
H81 H 0.06653 0.31868 0.41234 0.0
H82 H 0.12603 0.30182 0.39501 0.0
H83 H 0.09368 0.32055 0.43794 0.0
H84 H 0.12455 0.332 0.3227 0.0
H85 H 0.11014 0.2715 0.31222 0.0
H86 H 0.01347 0.2283 0.3988 0.0
H87 H 0.07292 0.24832 0.41691 0.0
Li88 Li 0.0223 0.76959 0.6763 0.0
Li89 Li 0.04104 0.75602 0.7039 0.0
Li90 Li 0.01883 0.73365 0.67473 0.0
Li91 Li 1.00315 0.75254 0.70209 0.0
C92 C 0.055 0.75566 0.66208 0.0
N93 N 0.082 0.75904 0.6365 0.0
C94 C 0.07361 0.76435 0.66897 0.0
C95 C 0.05007 0.74879 0.64217 0.0
C96 C 0.08707 0.76588 0.65581 0.0
C97 C 0.06395 0.75063 0.62947 0.0
C98 C 0.02867 0.79145 0.71914 0.0
C99 C 0.02902 0.80684 0.75192 0.0
N100 N 0.0367 0.8235 0.74601 0.0
C101 C 0.03662 0.80869 0.71339 0.0
C102 C 0.02483 0.79046 0.73854 0.0
C103 C 0.04055 0.82475 0.7272 0.0
C104 C 1.00718 0.79714 0.65518 0.0
N105 N 0.02323 0.79083 0.66058 0.0
C106 C 0.04144 0.81596 0.64645 0.0
C107 C 0.04014 0.79979 0.65611 0.0
C108 C 0.02517 0.82296 0.64104 0.0
C109 C 1.00782 0.81315 0.64524 0.0
H110 H 0.99388 0.79005 0.65905 0.0
H111 H 0.05279 0.7948 0.66065 0.0
C112 C 0.07697 0.74501 0.71572 0.0
N113 N 0.06731 0.75919 0.71902 0.0
C114 C 0.09611 0.74701 0.72344 0.0
C115 C 0.09533 0.77796 0.73859 0.0
C116 C 0.07626 0.77551 0.73033 0.0
C117 C 0.10572 0.76372 0.73496 0.0
H118 H 0.06997 0.73218 0.70658 0.0
H119 H 0.06877 0.78689 0.73267 0.0
C120 C 0.98391 0.7462 0.65796 0.0
N121 N 0.95346 0.74058 0.62918 0.0
C122 C 0.96572 0.73985 0.66254 0.0
C123 C 0.98666 0.74954 0.63874 0.0
C124 C 0.9505 0.73713 0.64778 0.0
C125 C 0.97106 0.74665 0.62439 0.0
C126 C 0.01921 0.71903 0.71633 0.0
C127 C 0.01182 0.70039 0.70846 0.0
C128 C 0.02588 0.72334 0.73634 0.0
C129 C 0.01123 0.6863 0.72082 0.0
C130 C 0.02502 0.70883 0.74821 0.0
N131 N 0.01779 0.69077 0.74027 0.0
C132 C 0.03363 0.70249 0.65706 0.0
C133 C 1.00226 0.70152 0.64363 0.0
C134 C 0.03418 0.68586 0.64494 0.0
N135 N 0.01776 0.70998 0.65648 0.0
C136 C 1.00227 0.68488 0.63113 0.0
C137 C 0.01837 0.67672 0.63173 0.0
H138 H 0.0459 0.70933 0.66718 0.0
H139 H 0.98971 0.7075 0.6432 0.0
C140 C 0.96917 0.7673 0.71062 0.0
N141 N 0.97905 0.75383 0.71546 0.0
C142 C 0.95194 0.76873 0.71807 0.0
C143 C 0.95506 0.74276 0.73603 0.0
C144 C 0.97213 0.74163 0.72801 0.0
C145 C 0.94442 0.7564 0.73108 0.0
H146 H 0.97456 0.77697 0.70067 0.0
H147 H 0.97975 0.73082 0.73179 0.0
O148 O 0.04177 0.75351 0.67486 0.0
O149 O 0.02429 0.77568 0.70572 0.0
O150 O 0.99886 0.74951 0.67238 0.0
O151 O 0.02026 0.73293 0.70437 0.0
H152 H 0.07764 0.76991 0.68429 0.0
H153 H 0.03571 0.74204 0.63663 0.0
H154 H 0.10154 0.77251 0.66096 0.0
H155 H 0.06037 0.74534 0.61402 0.0
H156 H 0.02612 0.80632 0.76699 0.0
H157 H 0.03964 0.80969 0.69843 0.0
H158 H 0.01862 0.7772 0.74317 0.0
H159 H 0.04663 0.83821 0.72294 0.0
H160 H 0.05512 0.8232 0.64365 0.0
H161 H 0.995 0.81827 0.64165 0.0
H162 H 0.10333 0.73552 0.72043 0.0
H163 H 0.10201 0.79107 0.74745 0.0
H164 H 0.96338 0.73705 0.67733 0.0
H165 H 1.00068 0.75445 0.635 0.0
H166 H 0.93633 0.73231 0.65113 0.0
H167 H 0.97295 0.74927 0.60945 0.0
H168 H 1.00666 0.69685 0.69297 0.0
H169 H 0.03172 0.73771 0.74259 0.0
H170 H 1.00558 0.6718 0.71494 0.0
H171 H 0.03015 0.71193 0.76374 0.0
H172 H 0.0468 0.67997 0.64617 0.0
H173 H 0.9896 0.67813 0.62153 0.0
H174 H 0.94471 0.77969 0.71387 0.0
H175 H 0.95009 0.73275 0.74585 0.0
Li176 Li 0.52398 0.80209 0.84352 0.0
Li177 Li 0.54564 0.82363 0.87325 0.0
Li178 Li 0.56149 0.80485 0.84529 0.0
Li179 Li 0.5429 0.78756 0.87082 0.0
C180 C 0.54345 0.83835 0.83128 0.0
N181 N 0.54131 0.8657 0.80668 0.0
C182 C 0.53913 0.85548 0.83841 0.0
C183 C 0.54667 0.83509 0.81167 0.0
C184 C 0.53814 0.86915 0.82574 0.0
C185 C 0.54549 0.8491 0.79944 0.0
C186 C 0.50975 0.80248 0.88544 0.0
C187 C 0.50053 0.79869 0.9177 0.0
N188 N 0.48296 0.80111 0.91124 0.0
C189 C 0.49163 0.80501 0.87913 0.0
C190 C 0.5143 0.79937 0.90488 0.0
C191 C 0.47827 0.80423 0.8924 0.0
C192 C 0.48683 0.78085 0.82707 0.0
N193 N 0.49795 0.79821 0.82784 0.0
C194 C 0.47099 0.80957 0.81336 0.0
C195 C 0.49039 0.81238 0.82068 0.0
C196 C 0.45898 0.79206 0.81356 0.0
C197 C 0.46746 0.77753 0.82008 0.0
H198 H 0.49276 0.76972 0.83293 0.0
H199 H 0.49913 0.82622 0.82155 0.0
C200 C 0.56358 0.86102 0.89407 0.0
N201 N 0.5478 0.84728 0.89228 0.0
C202 C 0.56513 0.87803 0.90647 0.0
C203 C 0.53463 0.86651 0.91596 0.0
C204 C 0.5335 0.84982 0.90312 0.0
C205 C 0.55049 0.88113 0.9176 0.0
H206 H 0.57489 0.85898 0.88554 0.0
H207 H 0.52089 0.83912 0.90159 0.0
C208 C 0.53815 0.76614 0.82837 0.0
N209 N 0.53421 0.73388 0.80228 0.0
C210 C 0.54308 0.74995 0.83483 0.0
C211 C 0.53122 0.76595 0.80866 0.0
C212 C 0.54098 0.73378 0.82142 0.0
C213 C 0.52934 0.74949 0.79568 0.0
C214 C 0.58054 0.80832 0.88929 0.0
C215 C 0.59715 0.80316 0.88418 0.0
C216 C 0.57902 0.81409 0.90895 0.0
C217 C 0.61203 0.80385 0.8989 0.0
C218 C 0.59423 0.81458 0.92324 0.0
N219 N 0.61028 0.80952 0.91796 0.0
C220 C 0.59943 0.81876 0.83116 0.0
C221 C 0.58762 0.7862 0.82422 0.0
C222 C 0.61678 0.81657 0.82421 0.0
N223 N 0.58522 0.80361 0.83146 0.0
C224 C 0.60464 0.78341 0.8173 0.0
C225 C 0.61989 0.79856 0.8176 0.0
H226 H 0.59772 0.83257 0.83711 0.0
H227 H 0.57661 0.77414 0.82457 0.0
C228 C 0.5257 0.75627 0.89081 0.0
N229 N 0.54231 0.76589 0.88621 0.0
C230 C 0.52525 0.7405 0.90112 0.0
C231 C 0.55886 0.74435 0.90146 0.0
C232 C 0.55874 0.76022 0.89149 0.0
C233 C 0.54197 0.73418 0.90642 0.0
H234 H 0.5127 0.76067 0.88626 0.0
H235 H 0.57179 0.76775 0.88756 0.0
O236 O 0.5452 0.82513 0.84366 0.0
O237 O 0.52297 0.80307 0.87262 0.0
O238 O 0.53994 0.78205 0.84134 0.0
O239 O 0.56606 0.80826 0.87501 0.0
H240 H 0.53672 0.85823 0.85361 0.0
H241 H 0.55014 0.82192 0.806 0.0
H242 H 0.5349 0.88251 0.83107 0.0
H243 H 0.54797 0.84681 0.78423 0.0
H244 H 0.50383 0.79624 0.93278 0.0
H245 H 0.48791 0.80762 0.8642 0.0
H246 H 0.52832 0.7975 0.91 0.0
H247 H 0.46418 0.80614 0.88771 0.0
H248 H 0.46523 0.82134 0.80882 0.0
H249 H 0.45895 0.76379 0.82066 0.0
H250 H 0.57763 0.88885 0.90711 0.0
H251 H 0.52282 0.86826 0.92387 0.0
H252 H 0.54854 0.74986 0.85 0.0
H253 H 0.52732 0.77838 0.80345 0.0
H254 H 0.54474 0.72115 0.82622 0.0
H255 H 0.52399 0.74912 0.78037 0.0
H256 H 0.59855 0.79866 0.86903 0.0
H257 H 0.56627 0.81821 0.91309 0.0
H258 H 0.62498 0.79992 0.89516 0.0
H259 H 0.59329 0.81905 0.93853 0.0
H260 H 0.628 0.82875 0.82503 0.0
H261 H 0.60606 0.76922 0.81235 0.0
H262 H 0.51186 0.73297 0.9044 0.0
H263 H 0.57209 0.74003 0.90524 0.0
Li264 Li 0.52369 0.26953 0.17759 0.0
Li265 Li 0.54157 0.25538 0.20549 0.0
Li266 Li 0.51908 0.23306 0.17625 0.0
Li267 Li 0.50396 0.25278 0.20318 0.0
C268 C 0.55574 0.25422 0.16356 0.0
N269 N 0.58241 0.25806 0.13764 0.0
C270 C 0.57443 0.26271 0.17036 0.0
C271 C 0.55059 0.24767 0.1436 0.0
C272 C 0.58771 0.26449 0.15702 0.0
C273 C 0.5643 0.24977 0.13072 0.0
C274 C 0.52945 0.29142 0.22028 0.0
C275 C 0.52865 0.30703 0.2527 0.0
N276 N 0.53641 0.32367 0.24681 0.0
C277 C 0.53747 0.30865 0.21454 0.0
C278 C 0.525 0.29055 0.23949 0.0
C279 C 0.54086 0.32481 0.22817 0.0
C280 C 0.51087 0.30071 0.16037 0.0
N281 N 0.52517 0.29095 0.16159 0.0
C282 C 0.54137 0.31046 0.13993 0.0
C283 C 0.54042 0.29589 0.15188 0.0
C284 C 0.52669 0.32052 0.13806 0.0
C285 C 0.51142 0.31565 0.1488 0.0
H286 H 0.49888 0.29677 0.16823 0.0
H287 H 0.5519 0.28848 0.15322 0.0
C288 C 0.57507 0.24202 0.22037 0.0
N289 N 0.56753 0.25783 0.22093 0.0
C290 C 0.59426 0.2429 0.22697 0.0
C291 C 0.59789 0.27617 0.23592 0.0
C292 C 0.57856 0.27471 0.229 0.0
C293 C 0.60623 0.26018 0.2345 0.0
H294 H 0.56643 0.22874 0.21372 0.0
H295 H 0.57271 0.28731 0.22907 0.0
C296 C 0.48489 0.24673 0.15912 0.0
N297 N 0.45445 0.24118 0.13034 0.0
C298 C 0.46675 0.23999 0.16359 0.0
C299 C 0.4876 0.25062 0.14004 0.0
C300 C 0.45153 0.23728 0.14883 0.0
C301 C 0.472 0.24772 0.12568 0.0
C302 C 0.5191 0.21877 0.21772 0.0
C303 C 0.51141 0.20021 0.2098 0.0
C304 C 0.52599 0.22293 0.23768 0.0
C305 C 0.51077 0.18603 0.22206 0.0
C306 C 0.52508 0.20835 0.24945 0.0
N307 N 0.51757 0.19036 0.24146 0.0
C308 C 0.53242 0.20032 0.15916 0.0
C309 C 0.50145 0.20081 0.14556 0.0
C310 C 0.53254 0.18384 0.14651 0.0
N311 N 0.51709 0.20868 0.15848 0.0
C312 C 0.50104 0.18437 0.13255 0.0
C313 C 0.51675 0.17559 0.13284 0.0
H314 H 0.54484 0.20669 0.16928 0.0
H315 H 0.48936 0.20749 0.14496 0.0
C316 C 0.47308 0.27028 0.21714 0.0
N317 N 0.48004 0.25408 0.21648 0.0
C318 C 0.45585 0.27152 0.22469 0.0
C319 C 0.45285 0.23945 0.23101 0.0
C320 C 0.47014 0.23881 0.22336 0.0
C321 C 0.44515 0.25596 0.23182 0.0
H322 H 0.4808 0.28236 0.21154 0.0
H323 H 0.47542 0.22587 0.22259 0.0
O324 O 0.54253 0.25244 0.17638 0.0
O325 O 0.5255 0.27558 0.20698 0.0
O326 O 0.49987 0.24984 0.17349 0.0
O327 O 0.52032 0.23272 0.20583 0.0
H328 H 0.57863 0.26797 0.18573 0.0
H329 H 0.53616 0.24114 0.13813 0.0
H330 H 0.60223 0.27104 0.16207 0.0
H331 H 0.56053 0.24482 0.11521 0.0
H332 H 0.52525 0.3066 0.26762 0.0
H333 H 0.54095 0.30954 0.1997 0.0
H334 H 0.5187 0.2773 0.24409 0.0
H335 H 0.54699 0.33826 0.22393 0.0
H336 H 0.55352 0.31381 0.13213 0.0
H337 H 0.49973 0.32293 0.14776 0.0
H338 H 0.59994 0.23021 0.22526 0.0
H339 H 0.60649 0.28989 0.24115 0.0
H340 H 0.46445 0.2369 0.1783 0.0
H341 H 0.50158 0.25589 0.13639 0.0
H342 H 0.4374 0.2321 0.15208 0.0
H343 H 0.47385 0.2507 0.11084 0.0
H344 H 0.50605 0.19678 0.19435 0.0
H345 H 0.53207 0.23724 0.24396 0.0
H346 H 0.50491 0.17158 0.21613 0.0
H347 H 0.53038 0.21132 0.26494 0.0
H348 H 0.54515 0.17794 0.14696 0.0
H349 H 0.4887 0.17882 0.122 0.0
H350 H 0.45108 0.28472 0.22502 0.0
H351 H 0.44541 0.22678 0.23581 0.0
Li352 Li 0.05802 0.80769 0.0958 0.0
Li353 Li 0.07758 0.79251 0.12288 0.0
Li354 Li 0.05512 0.7699 0.09369 0.0
Li355 Li 0.04138 0.7884 0.12165 0.0
C356 C 0.09188 0.79225 0.08125 0.0
N357 N 0.12027 0.7937 0.05734 0.0
C358 C 0.11049 0.8 0.08905 0.0
C359 C 0.08766 0.78526 0.06131 0.0
C360 C 0.12466 0.80059 0.07672 0.0
C361 C 0.10223 0.78614 0.04945 0.0
C362 C 0.06454 0.82699 0.13987 0.0
C363 C 0.06408 0.83992 0.17343 0.0
N364 N 0.07046 0.85743 0.16867 0.0
C365 C 0.07112 0.84509 0.1353 0.0
C366 C 0.06099 0.82433 0.15907 0.0
C367 C 0.07402 0.8603 0.15007 0.0
C368 C 0.04027 0.83835 0.08114 0.0
N369 N 0.05664 0.83159 0.08239 0.0
C370 C 0.07159 0.85895 0.06842 0.0
C371 C 0.07215 0.84171 0.07608 0.0
C372 C 0.05489 0.86639 0.06686 0.0
C373 C 0.03909 0.85552 0.07347 0.0
H374 H 0.02799 0.8305 0.08633 0.0
H375 H 0.08523 0.83665 0.07735 0.0
C376 C 0.10992 0.77849 0.13754 0.0
N377 N 0.1017 0.79367 0.14067 0.0
C378 C 0.12597 0.7766 0.14976 0.0
C379 C 0.12563 0.80624 0.16836 0.0
C380 C 0.10942 0.80759 0.15568 0.0
C381 C 0.13403 0.79033 0.16581 0.0
H382 H 0.10376 0.76754 0.12563 0.0
H383 H 0.10283 0.8196 0.15818 0.0
C384 C 0.01928 0.78209 0.07889 0.0
N385 N 0.98706 0.7745 0.05222 0.0
C386 C 1.00197 0.77435 0.08474 0.0
C387 C 0.02025 0.78595 0.0595 0.0
C388 C 0.98583 0.77064 0.07103 0.0
C389 C 1.00379 0.78198 0.04622 0.0
C390 C 0.05602 0.75617 0.13575 0.0
C391 C 0.04726 0.73758 0.12902 0.0
C392 C 0.06302 0.76124 0.15561 0.0
C393 C 0.04568 0.72431 0.14232 0.0
C394 C 0.06112 0.74755 0.16846 0.0
N395 N 0.05258 0.72952 0.16161 0.0
C396 C 0.06911 0.73726 0.0773 0.0
C397 C 0.03599 0.7318 0.07141 0.0
C398 C 0.06901 0.71833 0.07038 0.0
N399 N 0.05277 0.74374 0.07824 0.0
C400 C 0.03528 0.71263 0.06428 0.0
C401 C 0.05195 0.70533 0.06425 0.0
H402 H 0.08237 0.74659 0.08282 0.0
H403 H 0.02298 0.73681 0.07239 0.0
C404 C 0.01077 0.80248 0.13687 0.0
N405 N 0.02001 0.78788 0.13744 0.0
C406 C 0.99467 0.80273 0.14651 0.0
C407 C 0.99808 0.77331 0.15804 0.0
C408 C 0.014 0.77347 0.14791 0.0
C409 C 0.98801 0.78796 0.1572 0.0
H410 H 0.01569 0.81381 0.12852 0.0
H411 H 0.02126 0.76184 0.14813 0.0
O412 O 0.07794 0.79103 0.09322 0.0
O413 O 0.06124 0.81202 0.12548 0.0
O414 O 0.03513 0.78627 0.09221 0.0
O415 O 0.05796 0.76927 0.12287 0.0
H416 H 0.11397 0.80543 0.10448 0.0
H417 H 0.07331 0.77913 0.05511 0.0
H418 H 0.13914 0.8065 0.08256 0.0
H419 H 0.0992 0.78075 0.03399 0.0
H420 H 0.06136 0.8381 0.18836 0.0
H421 H 0.07394 0.84737 0.12051 0.0
H422 H 0.05585 0.81038 0.16279 0.0
H423 H 0.07907 0.8744 0.14675 0.0
H424 H 0.08449 0.86652 0.06417 0.0
H425 H 0.02575 0.86009 0.07264 0.0
H426 H 0.13193 0.76423 0.14668 0.0
H427 H 0.13108 0.81723 0.18044 0.0
H428 H 1.00101 0.77132 0.09971 0.0
H429 H 0.03357 0.79201 0.05482 0.0
H430 H 0.97232 0.76472 0.07535 0.0
H431 H 1.0043 0.78491 0.03116 0.0
H432 H 0.04172 0.73344 0.11372 0.0
H433 H 0.06982 0.77559 0.16102 0.0
H434 H 0.03897 0.70986 0.13731 0.0
H435 H 0.06646 0.75124 0.18389 0.0
H436 H 0.08233 0.71372 0.07056 0.0
H437 H 0.02172 0.70339 0.05995 0.0
H438 H 0.98732 0.81428 0.14544 0.0
H439 H 0.9933 0.76152 0.16587 0.0
Li440 Li 0.50974 0.78628 0.45562 0.0
Li441 Li 0.48771 0.76387 0.42611 0.0
Li442 Li 0.50725 0.74882 0.45423 0.0
Li443 Li 0.52411 0.76681 0.42827 0.0
C444 C 0.47332 0.7671 0.46789 0.0
N445 N 0.44552 0.77016 0.49184 0.0
C446 C 0.4565 0.77186 0.46038 0.0
C447 C 0.47604 0.76392 0.48755 0.0
C448 C 0.4426 0.77331 0.47273 0.0
C449 C 0.46181 0.76556 0.49944 0.0
C450 C 0.50975 0.7999 0.4138 0.0
C451 C 0.51436 0.80921 0.38173 0.0
N452 N 0.51181 0.82673 0.38811 0.0
C453 C 0.50712 0.81798 0.42002 0.0
C454 C 0.51331 0.79541 0.39448 0.0
C455 C 0.50824 0.83135 0.40682 0.0
C456 C 0.53062 0.82413 0.47156 0.0
N457 N 0.51342 0.81268 0.47099 0.0
C458 C 0.50157 0.83938 0.48546 0.0
C459 C 0.49909 0.82 0.47823 0.0
C460 C 0.5189 0.85171 0.48514 0.0
C461 C 0.5336 0.8435 0.47844 0.0
H462 H 0.54191 0.81845 0.46565 0.0
H463 H 0.48536 0.81106 0.47754 0.0
C464 C 0.44962 0.74691 0.40206 0.0
N465 N 0.46378 0.76238 0.40723 0.0
C466 C 0.43309 0.74773 0.38948 0.0
C467 C 0.44623 0.77996 0.38699 0.0
C468 C 0.46216 0.77863 0.39966 0.0
C469 C 0.43097 0.76463 0.382 0.0
H470 H 0.45087 0.73396 0.408 0.0
H471 H 0.47308 0.79093 0.40376 0.0
C472 C 0.54589 0.77206 0.47068 0.0
N473 N 0.57838 0.77632 0.49654 0.0
C474 C 0.56197 0.76677 0.4642 0.0
C475 C 0.5463 0.77949 0.49028 0.0
C476 C 0.57827 0.76906 0.4775 0.0
C477 C 0.56287 0.78151 0.50315 0.0
C478 C 0.50325 0.72936 0.40989 0.0
C479 C 0.50846 0.71271 0.41463 0.0
C480 C 0.49744 0.73117 0.39032 0.0
C481 C 0.50771 0.69805 0.39965 0.0
C482 C 0.49694 0.71621 0.37576 0.0
N483 N 0.50202 0.70009 0.38069 0.0
C484 C 0.4926 0.71118 0.46564 0.0
C485 C 0.52435 0.72253 0.47856 0.0
C486 C 0.49326 0.69352 0.4722 0.0
N487 N 0.50812 0.72532 0.46839 0.0
C488 C 0.52554 0.70507 0.48557 0.0
C489 C 0.51 0.68992 0.482 0.0
H490 H 0.4798 0.71324 0.45747 0.0
H491 H 0.53678 0.73357 0.48057 0.0
C492 C 0.55622 0.78559 0.4119 0.0
N493 N 0.54559 0.76822 0.41227 0.0
C494 C 0.57096 0.78818 0.40013 0.0
C495 C 0.56449 0.75487 0.38981 0.0
C496 C 0.54972 0.7529 0.40175 0.0
C497 C 0.57514 0.77279 0.3885 0.0
H498 H 0.55301 0.7976 0.42052 0.0
H499 H 0.54141 0.73912 0.4023 0.0
O500 O 0.48678 0.76498 0.45585 0.0
O501 O 0.50833 0.78654 0.42643 0.0
O502 O 0.52998 0.77042 0.45776 0.0
O503 O 0.50336 0.74363 0.42441 0.0
H504 H 0.45417 0.77428 0.44515 0.0
H505 H 0.48897 0.76012 0.49351 0.0
H506 H 0.42947 0.7769 0.4671 0.0
H507 H 0.46369 0.76312 0.5147 0.0
H508 H 0.51714 0.80596 0.36675 0.0
H509 H 0.50398 0.8216 0.43477 0.0
H510 H 0.51517 0.78142 0.38938 0.0
H511 H 0.50617 0.84537 0.41143 0.0
H512 H 0.48964 0.84487 0.49007 0.0
H513 H 0.54721 0.85223 0.47769 0.0
H514 H 0.42185 0.73546 0.38628 0.0
H515 H 0.44574 0.79326 0.38148 0.0
H516 H 0.56187 0.76102 0.44905 0.0
H517 H 0.53396 0.7837 0.49547 0.0
H518 H 0.59084 0.76509 0.47269 0.0
H519 H 0.56341 0.78725 0.51837 0.0
H520 H 0.513 0.71109 0.42972 0.0
H521 H 0.49332 0.74398 0.38646 0.0
H522 H 0.51164 0.68505 0.40311 0.0
H523 H 0.49246 0.71738 0.36054 0.0
H524 H 0.48084 0.68245 0.46893 0.0
H525 H 0.53888 0.70312 0.4927 0.0
H526 H 0.5789 0.80225 0.39998 0.0
H527 H 0.56709 0.74256 0.38116 0.0
Li528 Li 0.5587 0.30719 0.59454 0.0
Li529 Li 0.57845 0.29271 0.62211 0.0
Li530 Li 0.5559 0.2698 0.59315 0.0
Li531 Li 0.54221 0.28864 0.62097 0.0
C532 C 0.59265 0.29193 0.58039 0.0
N533 N 0.62103 0.29346 0.55648 0.0
C534 C 0.61126 0.2997 0.58819 0.0
C535 C 0.58843 0.28494 0.56045 0.0
C536 C 0.62542 0.30033 0.57586 0.0
C537 C 0.603 0.28586 0.54859 0.0
C538 C 0.56497 0.32722 0.63869 0.0
C539 C 0.56495 0.33987 0.67243 0.0
N540 N 0.57018 0.35753 0.66755 0.0
C541 C 0.57035 0.34547 0.63398 0.0
C542 C 0.56226 0.32434 0.65804 0.0
C543 C 0.57292 0.36062 0.64879 0.0
C544 C 0.53971 0.33604 0.58023 0.0
N545 N 0.55651 0.33025 0.58023 0.0
C546 C 0.56887 0.35795 0.5651 0.0
C547 C 0.57091 0.34081 0.57247 0.0
C548 C 0.55186 0.36456 0.56566 0.0
C549 C 0.53716 0.35304 0.57316 0.0
H550 H 0.52836 0.32782 0.5865 0.0
H551 H 0.58433 0.33641 0.57267 0.0
C552 C 0.60985 0.27805 0.63826 0.0
N553 N 0.60252 0.29393 0.64013 0.0
C554 C 0.62571 0.27616 0.65082 0.0
C555 C 0.62707 0.30722 0.66707 0.0
C556 C 0.611 0.30852 0.65415 0.0
C557 C 0.63454 0.29066 0.66585 0.0
H558 H 0.60311 0.26655 0.62716 0.0
H559 H 0.60511 0.32109 0.65567 0.0
C560 C 0.5198 0.28184 0.57844 0.0
N561 N 0.48727 0.27463 0.55223 0.0
C562 C 0.50251 0.2746 0.58462 0.0
C563 C 0.52059 0.28541 0.55894 0.0
C564 C 0.4862 0.27106 0.57115 0.0
C565 C 0.50397 0.28165 0.5459 0.0
C566 C 0.55691 0.25643 0.63523 0.0
C567 C 0.54831 0.23781 0.62844 0.0
C568 C 0.56362 0.26154 0.65515 0.0
C569 C 0.54659 0.22454 0.64175 0.0
C570 C 0.56163 0.24785 0.668 0.0
N571 N 0.55323 0.22979 0.66109 0.0
C572 C 0.56924 0.23632 0.57855 0.0
C573 C 0.53652 0.23267 0.56959 0.0
C574 C 0.56854 0.21726 0.57174 0.0
N575 N 0.55333 0.24373 0.5779 0.0
C576 C 0.53523 0.21344 0.56243 0.0
C577 C 0.55133 0.20523 0.56392 0.0
H578 H 0.58248 0.24499 0.58532 0.0
H579 H 0.52384 0.23843 0.56938 0.0
C580 C 0.51298 0.30278 0.64123 0.0
N581 N 0.52082 0.28745 0.63696 0.0
C582 C 0.4967 0.30134 0.65098 0.0
C583 C 0.49703 0.26856 0.65226 0.0
C584 C 0.51326 0.27062 0.64263 0.0
C585 C 0.48818 0.2839 0.65623 0.0
H586 H 0.51903 0.31606 0.63655 0.0
H587 H 0.51941 0.25851 0.63908 0.0
O588 O 0.57873 0.29071 0.59237 0.0
O589 O 0.56204 0.31229 0.62429 0.0
O590 O 0.53581 0.28588 0.59154 0.0
O591 O 0.55886 0.26955 0.62237 0.0
H592 H 0.61473 0.3051 0.60363 0.0
H593 H 0.57408 0.27879 0.55425 0.0
H594 H 0.6399 0.30626 0.5817 0.0
H595 H 0.59998 0.28048 0.53313 0.0
H596 H 0.56285 0.33788 0.68748 0.0
H597 H 0.57248 0.34792 0.61905 0.0
H598 H 0.55803 0.31027 0.66186 0.0
H599 H 0.57707 0.37484 0.64537 0.0
H600 H 0.58084 0.36643 0.56 0.0
H601 H 0.5239 0.35754 0.57433 0.0
H602 H 0.63089 0.2632 0.64884 0.0
H603 H 0.63314 0.31881 0.67836 0.0
H604 H 0.50166 0.2718 0.59968 0.0
H605 H 0.53389 0.2911 0.55398 0.0
H606 H 0.47271 0.2655 0.57574 0.0
H607 H 0.50434 0.28436 0.53077 0.0
H608 H 0.54293 0.23364 0.6131 0.0
H609 H 0.5703 0.27591 0.66061 0.0
H610 H 0.53996 0.21008 0.6367 0.0
H611 H 0.56676 0.25157 0.68347 0.0
H612 H 0.58135 0.21172 0.57339 0.0
H613 H 0.52157 0.20483 0.55691 0.0
H614 H 0.49036 0.31354 0.65356 0.0
H615 H 0.49115 0.25486 0.65615 0.0
Li616 Li 0.01001 0.2862 0.95464 0.0
Li617 Li 0.98792 0.26415 0.92572 0.0
Li618 Li 1.00734 0.24852 0.9537 0.0
Li619 Li 0.02416 0.26658 0.92755 0.0
C620 C 0.97367 0.26708 0.9675 0.0
N621 N 0.94601 0.27011 0.99163 0.0
C622 C 0.95687 0.27196 0.96013 0.0
C623 C 0.97645 0.26376 0.98711 0.0
C624 C 0.94303 0.2734 0.97257 0.0
C625 C 0.96229 0.2654 0.9991 0.0
C626 C 0.00856 0.29943 0.9126 0.0
C627 C 0.01296 0.30891 0.88056 0.0
N628 N 0.00928 0.32603 0.88672 0.0
C629 C 1.00471 0.31708 0.91857 0.0
C630 C 0.01262 0.29524 0.89342 0.0
C631 C 1.00517 0.33035 0.90529 0.0
C632 C 0.02902 0.32578 0.96835 0.0
N633 N 0.01323 0.31262 0.96943 0.0
C634 C 0.99989 0.33686 0.98634 0.0
C635 C 0.99883 0.31799 0.97837 0.0
C636 C 0.01586 0.35091 0.98519 0.0
C637 C 0.0306 0.34488 0.97603 0.0
H638 H 0.04032 0.32161 0.96099 0.0
H639 H 0.98616 0.30775 0.97888 0.0
C640 C 0.95197 0.24575 0.90133 0.0
N641 N 0.9639 0.26257 0.90719 0.0
C642 C 0.93539 0.24442 0.88823 0.0
C643 C 0.94323 0.2777 0.88714 0.0
C644 C 0.95961 0.27842 0.90039 0.0
C645 C 0.93068 0.26049 0.8806 0.0
H646 H 0.95529 0.23322 0.90681 0.0
H647 H 0.96891 0.29181 0.90514 0.0
C648 C 0.04598 0.27201 0.97011 0.0
N649 N 0.07826 0.27653 0.99632 0.0
C650 C 0.06221 0.26693 0.96383 0.0
C651 C 0.04612 0.27936 0.98969 0.0
C652 C 0.07841 0.26934 0.97731 0.0
C653 C 0.06259 0.28152 0.00274 0.0
C654 C 1.00324 0.22929 0.90936 0.0
C655 C 0.00857 0.2127 0.91414 0.0
C656 C 0.99739 0.23104 0.88979 0.0
C657 C 1.00787 0.19804 0.8992 0.0
C658 C 0.99693 0.21606 0.87526 0.0
N659 N 1.00211 0.2 0.88023 0.0
C660 C 0.99287 0.21025 0.9648 0.0
C661 C 0.02443 0.22199 0.97813 0.0
C662 C 0.99372 0.19254 0.97128 0.0
N663 N 1.00821 0.22465 0.96779 0.0
C664 C 0.02578 0.20451 0.98508 0.0
C665 C 0.01043 0.18915 0.98136 0.0
H666 H 0.98007 0.21213 0.95649 0.0
H667 H 0.03674 0.23317 0.98033 0.0
C668 C 0.05604 0.28533 0.9111 0.0
N669 N 0.0456 0.26791 0.91163 0.0
C670 C 0.07081 0.28795 0.89937 0.0
C671 C 0.06472 0.25457 0.88946 0.0
C672 C 0.04992 0.25258 0.90134 0.0
C673 C 0.07519 0.27253 0.88797 0.0
H674 H 0.05266 0.29735 0.91953 0.0
H675 H 0.04173 0.23876 0.90202 0.0
O676 O 0.98709 0.265 0.95538 0.0
O677 O 0.00858 0.28642 0.92555 0.0
O678 O 0.03014 0.27017 0.95704 0.0
O679 O 1.00326 0.24355 0.92386 0.0
H680 H 0.95449 0.2745 0.94495 0.0
H681 H 0.98937 0.25988 0.99297 0.0
H682 H 0.92992 0.27707 0.96706 0.0
H683 H 0.96421 0.26286 0.01432 0.0
H684 H 0.01616 0.30591 0.8657 0.0
H685 H 1.00126 0.32047 0.93325 0.0
H686 H 0.01555 0.28161 0.88855 0.0
H687 H 1.00225 0.34407 0.90973 0.0
H688 H 0.9879 0.34046 0.99286 0.0
H689 H 0.04332 0.35482 0.9748 0.0
H690 H 0.92627 0.23077 0.88432 0.0
H691 H 0.9407 0.29058 0.88185 0.0
H692 H 0.06232 0.26124 0.9487 0.0
H693 H 0.03365 0.28341 0.99473 0.0
H694 H 0.09111 0.26553 0.97265 0.0
H695 H 0.06293 0.28721 0.01794 0.0
H696 H 0.01316 0.21115 0.92922 0.0
H697 H 0.99318 0.24381 0.8859 0.0
H698 H 0.01188 0.18508 0.90268 0.0
H699 H 0.9924 0.21718 0.86004 0.0
H700 H 0.9815 0.18127 0.96773 0.0
H701 H 0.03913 0.20273 0.99233 0.0
H702 H 0.07861 0.30205 0.89905 0.0
H703 H 0.06748 0.24225 0.88097 0.0
Li704 Li 0.39474 0.01294 0.31413 0.0
Li705 Li 0.36726 0.99524 0.29237 0.0
Li706 Li 0.39273 0.0154 0.27929 0.0
Li707 Li 0.37004 0.02745 0.29958 0.0
C708 C 0.40596 0.98084 0.29491 0.0
N709 N 0.43043 0.95643 0.29993 0.0
C710 C 0.39937 0.96278 0.29962 0.0
C711 C 0.425 0.98649 0.29275 0.0
C712 C 0.41197 0.95066 0.30211 0.0
C713 C 0.43715 0.97393 0.29535 0.0
C714 C 0.35877 0.01184 0.3342 0.0
C715 C 0.33059 0.01703 0.34775 0.0
N716 N 0.3386 0.01499 0.36593 0.0
C717 C 0.3667 0.00977 0.35303 0.0
C718 C 0.34052 0.0154 0.33151 0.0
C719 C 0.35629 0.01143 0.36887 0.0
C720 C 0.41419 0.03278 0.34693 0.0
N721 N 0.41136 0.01551 0.33643 0.0
C722 C 0.43414 0.00599 0.35816 0.0
C723 C 0.42057 1.00198 0.34189 0.0
C724 C 0.4378 0.02395 0.36893 0.0
C725 C 0.42746 0.03736 0.36342 0.0
H726 H 0.40622 0.04303 0.34229 0.0
H727 H 0.41761 0.98821 0.33359 0.0
C728 C 0.35035 0.96103 0.27216 0.0
N729 N 0.34991 0.97343 0.28806 0.0
C730 C 0.33935 0.94315 0.27033 0.0
C731 C 0.32695 0.95184 0.30065 0.0
C732 C 0.3381 0.96954 0.30181 0.0
C733 C 0.32827 0.93828 0.28526 0.0
H734 H 0.36009 0.96472 0.26164 0.0
H735 H 0.3382 0.97968 0.31431 0.0
C736 C 0.41208 0.05069 0.30146 0.0
N737 N 0.44137 0.08088 0.30204 0.0
C738 C 0.40834 0.06814 0.29754 0.0
C739 C 0.43071 0.04855 0.30566 0.0
C740 C 0.42334 0.08323 0.29786 0.0
C741 C 0.44532 0.06402 0.30593 0.0
C742 C 0.35368 0.00644 0.25617 0.0
C743 C 0.36023 0.00856 0.23795 0.0
C744 C 0.33482 0.99842 0.25687 0.0
C745 C 0.34787 1.00237 0.22071 0.0
C746 C 0.32294 0.9922 0.23927 0.0
N747 N 0.32964 0.99434 0.22171 0.0
C748 C 0.40862 1.00027 0.24904 0.0
C749 C 0.41706 0.03358 0.25419 0.0
C750 C 0.42104 0.99945 0.23507 0.0
N751 N 0.40733 0.0171 0.25863 0.0
C752 C 0.42963 0.03343 0.24023 0.0
C753 C 0.43206 0.01617 0.23098 0.0
H754 H 0.4004 0.98745 0.25273 0.0
H755 H 0.41547 0.04676 0.26181 0.0
C756 C 0.3619 0.05897 0.31932 0.0
N757 N 0.35652 0.04581 0.30339 0.0
C758 C 0.3549 0.07544 0.31998 0.0
C759 C 0.33566 0.06328 0.28884 0.0
C760 C 0.34301 0.04707 0.2888 0.0
C761 C 0.34257 0.07798 0.30399 0.0
H762 H 0.37278 0.05733 0.33056 0.0
H763 H 0.33916 0.03626 0.27637 0.0
O764 O 0.39372 0.99274 0.29209 0.0
O765 O 0.36834 0.00893 0.31837 0.0
O766 O 0.39749 0.0359 0.30152 0.0
O767 O 0.36539 0.01361 0.27311 0.0
H768 H 0.38467 0.95819 0.30134 0.0
H769 H 0.43034 1.00043 0.28915 0.0
H770 H 0.40707 0.93665 0.30576 0.0
H771 H 0.45191 0.97809 0.29372 0.0
H772 H 0.31644 0.01971 0.34587 0.0
H773 H 0.38056 0.00644 0.35534 0.0
H774 H 0.33395 0.0165 0.31697 0.0
H775 H 0.36222 0.0097 0.38348 0.0
H776 H 0.4419 0.99531 0.36202 0.0
H777 H 0.42962 0.05119 0.37171 0.0
H778 H 0.34093 0.93277 0.25851 0.0
H779 H 0.31868 0.9483 0.31248 0.0
H780 H 0.39398 0.07 0.29425 0.0
H781 H 0.43383 0.03513 0.30874 0.0
H782 H 0.42066 0.09682 0.29482 0.0
H783 H 0.45981 0.06262 0.30924 0.0
H784 H 0.37457 0.01539 0.2371 0.0
H785 H 0.32938 0.99715 0.27085 0.0
H786 H 0.35274 1.0041 0.20653 0.0
H787 H 0.30833 0.98585 0.23958 0.0
H788 H 0.42231 0.98591 0.22785 0.0
H789 H 0.43791 0.04657 0.23728 0.0
H790 H 0.36063 0.08682 0.33161 0.0
H791 H 0.32641 0.06516 0.27615 0.0
Li792 Li 0.27329 0.18812 0.53111 0.0
Li793 Li 0.28558 0.16184 0.51121 0.0
Li794 Li 0.27117 0.18586 0.4935 0.0
Li795 Li 0.25045 0.16045 0.50879 0.0
C796 C 0.31016 0.20292 0.51634 0.0
N797 N 0.34329 0.22928 0.52098 0.0
C798 C 0.32718 0.19802 0.52296 0.0
C799 C 0.30994 0.22121 0.51214 0.0
C800 C 0.34379 0.21155 0.52518 0.0
C801 C 0.32686 0.23435 0.51459 0.0
C802 C 0.26886 0.14886 0.54685 0.0
C803 C 0.26064 0.11831 0.55765 0.0
N804 N 0.26957 0.12546 0.57591 0.0
C805 C 0.27795 0.15591 0.56571 0.0
C806 C 0.26011 0.12992 0.54274 0.0
C807 C 0.27815 0.14385 0.58021 0.0
C808 C 0.25949 0.2043 0.56472 0.0
N809 N 0.27573 0.20403 0.55654 0.0
C810 C 0.29367 0.22169 0.58611 0.0
C811 C 0.29265 0.21288 0.56669 0.0
C812 C 0.27714 0.22141 0.59516 0.0
C813 C 0.25989 0.21287 0.58401 0.0
H814 H 0.24621 0.19703 0.55657 0.0
H815 H 0.30546 0.21234 0.56013 0.0
C816 C 0.31767 0.14948 0.49728 0.0
N817 N 0.30528 0.14726 0.51088 0.0
C818 C 0.33362 0.14117 0.4986 0.0
C819 C 0.32302 0.12741 0.52696 0.0
C820 C 0.3074 0.13593 0.52512 0.0
C821 C 0.33674 0.13057 0.51409 0.0
H822 H 0.31568 0.15851 0.48603 0.0
H823 H 0.29751 0.13416 0.53571 0.0
C824 C 0.23834 0.19945 0.50968 0.0
N825 N 0.21219 0.22234 0.50697 0.0
C826 C 0.21981 0.19193 0.50144 0.0
C827 C 0.24362 0.21859 0.51654 0.0
C828 C 0.20678 0.20374 0.50022 0.0
C829 C 0.23017 0.22994 0.51502 0.0
C830 C 0.26426 0.14477 0.47143 0.0
C831 C 0.25948 0.14943 0.45263 0.0
C832 C 0.26705 0.12663 0.4737 0.0
C833 C 0.25767 0.13586 0.43634 0.0
C834 C 0.2651 0.11345 0.45703 0.0
N835 N 0.26051 0.1183 0.43885 0.0
C836 C 0.28727 0.19838 0.45983 0.0
C837 C 0.25901 0.20873 0.4651 0.0
C838 C 0.28836 0.20714 0.44261 0.0
N839 N 0.27276 0.19935 0.47071 0.0
C840 C 0.25967 0.21785 0.44819 0.0
C841 C 0.27449 0.21717 0.43668 0.0
H842 H 0.29795 0.19067 0.46445 0.0
H843 H 0.2474 0.20906 0.47364 0.0
C844 C 0.21903 0.14296 0.52478 0.0
N845 N 0.22623 0.14395 0.50736 0.0
C846 C 0.2022 0.13059 0.52595 0.0
C847 C 0.19974 0.12101 0.49099 0.0
C848 C 0.21686 0.13349 0.49052 0.0
C849 C 0.19243 0.11919 0.509 0.0
H850 H 0.22664 0.15153 0.53791 0.0
H851 H 0.22282 0.13456 0.4768 0.0
O852 O 0.29387 0.18971 0.51354 0.0
O853 O 0.26859 0.16046 0.53248 0.0
O854 O 0.25116 0.18803 0.51133 0.0
O855 O 0.26674 0.15809 0.48745 0.0
H856 H 0.32756 0.18391 0.5263 0.0
H857 H 0.29685 0.22516 0.50694 0.0
H858 H 0.35708 0.20795 0.53022 0.0
H859 H 0.32693 0.24856 0.51136 0.0
H860 H 0.25399 0.10361 0.55469 0.0
H861 H 0.28485 0.17052 0.56909 0.0
H862 H 0.25314 0.12422 0.52815 0.0
H863 H 0.28515 0.14911 0.59487 0.0
H864 H 0.30731 0.22766 0.59435 0.0
H865 H 0.24687 0.21195 0.59056 0.0
H866 H 0.34397 0.14402 0.48848 0.0
H867 H 0.32492 0.11925 0.53905 0.0
H868 H 0.21553 0.17713 0.49608 0.0
H869 H 0.25794 0.22457 0.52298 0.0
H870 H 0.19236 0.19811 0.49392 0.0
H871 H 0.23403 0.24479 0.52026 0.0
H872 H 0.25722 0.16339 0.45062 0.0
H873 H 0.2708 0.12283 0.48817 0.0
H874 H 0.25404 0.13929 0.42169 0.0
H875 H 0.26728 0.09937 0.45853 0.0
H876 H 0.3001 0.20639 0.43426 0.0
H877 H 0.24857 0.22527 0.44406 0.0
H878 H 0.19699 0.12973 0.5401 0.0
H879 H 0.19268 0.1124 0.47762 0.0
Li880 Li 0.15189 0.06 0.78854 0.0
Li881 Li 0.12541 0.03967 0.80358 0.0
Li882 Li 0.1495 0.02506 0.78618 0.0
Li883 Li 0.12378 0.03809 0.76619 0.0
C884 C 0.16633 0.04609 0.82624 0.0
N885 N 0.19246 0.05024 0.85918 0.0
C886 C 0.16125 0.05058 0.84494 0.0
C887 C 0.1847 0.04375 0.82425 0.0
C888 C 0.17466 0.05261 0.86142 0.0
C889 C 0.19771 0.0459 0.84111 0.0
C890 C 0.11278 0.07289 0.78774 0.0
C891 C 0.08206 0.08077 0.78309 0.0
N892 N 0.08968 0.0988 0.79085 0.0
C893 C 0.12034 0.09147 0.79567 0.0
C894 C 0.09352 0.06744 0.78137 0.0
C895 C 0.10841 0.10438 0.79711 0.0
C896 C 0.1713 0.09147 0.77304 0.0
N897 N 0.1694 0.08368 0.79007 0.0
C898 C 0.19117 0.11007 0.80815 0.0
C899 C 0.17927 0.09247 0.80743 0.0
C900 C 0.1931 0.11853 0.79083 0.0
C901 C 0.18317 0.10893 0.77309 0.0
H902 H 0.16323 0.08428 0.75945 0.0
H903 H 0.1775 0.0861 0.82081 0.0
C904 C 0.11075 0.02278 0.83635 0.0
N905 N 0.11113 0.0378 0.82601 0.0
C906 C 0.10227 0.02221 0.85383 0.0
C907 C 0.09397 0.0521 0.84919 0.0
C908 C 0.1027 0.05217 0.83199 0.0
C909 C 0.0941 0.03727 0.86078 0.0
H910 H 0.11762 0.01151 0.83139 0.0
H911 H 0.10318 0.06402 0.82376 0.0
C912 C 0.16323 0.04174 0.75062 0.0
N913 N 0.18691 0.04115 0.72173 0.0
C914 C 0.15609 0.0336 0.73144 0.0
C915 C 0.1824 0.04957 0.75515 0.0
C916 C 0.1683 0.03344 0.71703 0.0
C917 C 0.19415 0.04914 0.74031 0.0
C918 C 0.10838 1.00099 0.78139 0.0
C919 C 0.11341 0.98379 0.77586 0.0
C920 C 0.08997 1.00144 0.78523 0.0
C921 C 0.0999 0.96724 0.77434 0.0
C922 C 0.07686 0.98457 0.78353 0.0
N923 N 0.08206 0.96797 0.77818 0.0
C924 C 0.16259 0.99399 0.80125 0.0
C925 C 0.17397 1.0022 0.77161 0.0
C926 C 0.17084 0.97803 0.80023 0.0
N927 N 0.16379 1.00534 0.78668 0.0
C928 C 0.18244 0.98658 0.77007 0.0
C929 C 0.1803 0.97387 0.78404 0.0
H930 H 0.15445 0.9968 0.81314 0.0
H931 H 0.17481 0.01122 0.76018 0.0
C932 C 0.10663 0.05113 0.73176 0.0
N933 N 0.10788 0.03562 0.74094 0.0
C934 C 0.09732 0.04938 0.7125 0.0
C935 C 0.09007 0.01582 0.71276 0.0
C936 C 0.09943 0.0182 0.73196 0.0
C937 C 0.08935 0.03146 0.70245 0.0
H938 H 0.11352 0.06487 0.73908 0.0
H939 H 0.10059 0.00602 0.73939 0.0
O940 O 0.15324 0.04367 0.81003 0.0
O941 O 0.12429 0.06016 0.78606 0.0
O942 O 0.15147 0.04189 0.76489 0.0
O943 O 0.12153 0.01727 0.78333 0.0
H944 H 0.1471 0.05249 0.84672 0.0
H945 H 0.18882 0.04025 0.80986 0.0
H946 H 0.17092 0.05606 0.87598 0.0
H947 H 0.21198 0.04409 0.83983 0.0
H948 H 0.06711 0.07679 0.77825 0.0
H949 H 0.13525 0.09587 0.80063 0.0
H950 H 0.08752 0.05308 0.7752 0.0
H951 H 0.11405 0.11882 0.80319 0.0
H952 H 0.19828 0.11731 0.82219 0.0
H953 H 0.18393 0.11526 0.75955 0.0
H954 H 0.10284 0.0105 0.8622 0.0
H955 H 0.08751 0.06385 0.85357 0.0
H956 H 0.1413 0.02738 0.72773 0.0
H957 H 0.18816 0.05577 0.76998 0.0
H958 H 0.16297 0.02717 0.70213 0.0
H959 H 0.20903 0.05512 0.74358 0.0
H960 H 0.12758 0.98322 0.77275 0.0
H961 H 0.0859 0.01466 0.78955 0.0
H962 H 0.10359 0.95383 0.77011 0.0
H963 H 0.06256 0.98467 0.78649 0.0
H964 H 0.16882 0.96846 0.81122 0.0
H965 H 0.18973 0.98387 0.75742 0.0
H966 H 0.09731 0.06183 0.70518 0.0
H967 H 0.084 1.00172 0.70576 0.0
Li968 Li 0.28125 0.93769 0.99969 0.0
Li969 Li 0.29655 0.91441 0.01589 0.0
Li970 Li 0.31442 0.942 0.00421 0.0
Li971 Li 0.29684 0.91549 0.98123 0.0
C972 C 0.30276 0.95386 0.04118 0.0
N973 N 0.31226 0.97975 0.07452 0.0
C974 C 0.30238 0.94789 0.05983 0.0
C975 C 0.30789 0.97299 0.03946 0.0
C976 C 0.30716 0.9612 0.07651 0.0
C977 C 0.31278 0.98585 0.05651 0.0
C978 C 0.25959 0.89603 0.99547 0.0
C979 C 0.24481 0.86324 0.99018 0.0
N980 N 0.22874 0.86776 0.99608 0.0
C981 C 0.24295 0.90037 0.00146 0.0
C982 C 0.26057 0.87734 0.98974 0.0
C983 C 0.2275 0.88588 0.00167 0.0
C984 C 0.25143 0.94757 0.98009 0.0
N985 N 0.26203 0.95028 0.99788 0.0
C986 C 0.2429 0.96991 0.01168 0.0
C987 C 0.25849 0.96147 0.01347 0.0
C988 C 0.23109 0.96645 0.99377 0.0
C989 C 0.23567 0.95562 0.97767 0.0
H990 H 0.25495 0.93863 0.96806 0.0
H991 H 0.2673 0.96322 0.02739 0.0
C992 C 0.31359 0.89994 0.0463 0.0
N993 N 0.29659 0.89917 0.03579 0.0
C994 C 0.31466 0.89116 0.06324 0.0
C995 C 0.28084 0.8801 0.05745 0.0
C996 C 0.28039 0.88931 0.04077 0.0
C997 C 0.29803 0.88158 0.06914 0.0
H998 H 0.32615 0.90818 0.04204 0.0
H999 H 0.26704 0.88938 0.03252 0.0
C1000 C 0.29819 0.95276 0.96456 0.0
N1001 N 0.29861 0.97431 0.93377 0.0
C1002 C 0.30399 0.94638 0.94676 0.0
C1003 C 0.29267 0.97014 0.96672 0.0
C1004 C 0.30401 0.95743 0.93134 0.0
C1005 C 0.29304 0.98085 0.95099 0.0
C1006 C 0.33061 0.90384 0.99987 0.0
C1007 C 0.34962 0.91066 0.99842 0.0
C1008 C 0.32421 0.88461 1.00022 0.0
C1009 C 0.36196 0.89812 0.99744 0.0
C1010 C 0.33702 0.87252 0.99927 0.0
N1011 N 0.35546 0.87947 0.99792 0.0
C1012 C 0.34827 0.95874 0.02432 0.0
C1013 C 0.33857 0.97371 0.99703 0.0
C1014 C 0.36593 0.97022 0.02664 0.0
N1015 N 0.33546 0.96024 0.00918 0.0
C1016 C 0.35601 0.98547 0.99876 0.0
C1017 C 0.37011 0.98297 0.01301 0.0
H1018 H 0.34512 0.94778 0.03365 0.0
H1019 H 0.32803 0.97462 0.98528 0.0
C1020 C 0.27717 0.89588 0.94759 0.0
N1021 N 0.29466 0.90098 0.95778 0.0
C1022 C 0.27412 0.88303 0.93073 0.0
C1023 C 0.30743 0.88198 0.93492 0.0
C1024 C 0.30982 0.89489 0.95158 0.0
C1025 C 0.28933 0.87566 0.9248 0.0
H1026 H 0.26553 0.90129 0.95304 0.0
H1027 H 0.32359 0.89966 0.95984 0.0
O1028 O 0.29727 0.94101 0.02477 0.0
O1029 O 0.27474 0.91008 0.99504 0.0
O1030 O 0.29825 0.94219 0.97989 0.0
O1031 O 0.31852 0.91609 0.0013 0.0
H1032 H 0.2981 0.93316 0.0614 0.0
H1033 H 0.30798 0.97785 0.02511 0.0
H1034 H 0.30673 0.9568 0.09103 0.0
H1035 H 0.31686 1.0007 0.05543 0.0
H1036 H 0.24534 0.84869 0.98582 0.0
H1037 H 0.242 0.91479 0.00595 0.0
H1038 H 0.27337 0.87378 0.98505 0.0
H1039 H 0.21453 0.88903 0.00628 0.0
H1040 H 0.2394 0.97794 0.02445 0.0
H1041 H 0.22663 0.95267 0.96377 0.0
H1042 H 0.32814 0.89249 0.07207 0.0
H1043 H 0.26777 0.873 0.06188 0.0
H1044 H 0.30861 0.93315 0.94487 0.0
H1045 H 0.28846 0.97544 0.98051 0.0
H1046 H 0.30843 0.95263 0.91747 0.0
H1047 H 0.28894 0.99439 0.95251 0.0
H1048 H 0.35479 0.9255 0.99808 0.0
H1049 H 0.30954 0.8791 0.00134 0.0
H1050 H 0.37671 0.90321 0.99634 0.0
H1051 H 0.3323 0.85762 0.99964 0.0
H1052 H 0.3767 0.96782 0.03762 0.0
H1053 H 0.35897 0.99519 0.98805 0.0
H1054 H 0.26003 0.87818 0.92306 0.0
H1055 H 0.31936 0.87642 0.93039 0.0
Li1056 Li 0.2778 0.39321 0.0374 0.0
Li1057 Li 0.29292 0.36934 0.05345 0.0
Li1058 Li 0.31331 0.39655 0.03881 0.0
Li1059 Li 0.29107 0.3685 0.01623 0.0
C1060 C 0.29807 0.41028 0.07658 0.0
N1061 N 0.29974 0.43678 0.1087 0.0
C1062 C 0.29262 0.40469 0.09434 0.0
C1063 C 0.30439 0.42931 0.07514 0.0
C1064 C 0.29356 0.41832 0.11041 0.0
C1065 C 0.30512 0.44251 0.09156 0.0
C1066 C 0.25426 0.35228 0.03319 0.0
C1067 C 0.23692 0.32039 0.02613 0.0
N1068 N 0.22158 0.32599 0.03273 0.0
C1069 C 0.23835 0.35775 0.03992 0.0
C1070 C 0.25357 0.33349 0.02621 0.0
C1071 C 0.22196 0.34424 0.03955 0.0
C1072 C 0.24849 0.40934 0.02029 0.0
N1073 N 0.25779 0.4072 0.03783 0.0
C1074 C 0.2394 0.42594 0.05517 0.0
C1075 C 0.25325 0.41493 0.05513 0.0
C1076 C 0.23015 0.4289 0.03725 0.0
C1077 C 0.23464 0.42032 0.01965 0.0
H1078 H 0.25214 0.40284 0.00675 0.0
H1079 H 0.2605 0.41277 0.06893 0.0
C1080 C 0.30875 0.35602 0.08729 0.0
N1081 N 0.29231 0.35466 0.07545 0.0
C1082 C 0.30889 0.34821 0.10505 0.0
C1083 C 0.27537 0.33671 0.09771 0.0
C1084 C 0.27582 0.34494 0.08015 0.0
C1085 C 0.29198 0.33879 0.11067 0.0
H1086 H 0.32165 0.36395 0.08337 0.0
H1087 H 0.26282 0.34429 0.07083 0.0
C1088 C 0.29389 0.40806 0.00157 0.0
N1089 N 0.29475 0.43222 0.97313 0.0
C1090 C 0.2975 0.40217 0.98261 0.0
C1091 C 0.29086 0.42629 0.00614 0.0
C1092 C 0.29783 0.41457 0.96842 0.0
C1093 C 0.29131 0.43828 0.99153 0.0
C1094 C 0.32653 0.35777 0.03637 0.0
C1095 C 0.34495 0.36499 0.03305 0.0
C1096 C 0.32156 0.33909 0.03989 0.0
C1097 C 0.35818 0.35336 0.03336 0.0
C1098 C 0.33521 0.3279 0.04009 0.0
N1099 N 0.35307 0.33521 0.03685 0.0
C1100 C 0.35184 0.41555 0.05568 0.0
C1101 C 0.33999 0.42466 0.02568 0.0
C1102 C 0.36964 0.42695 0.05498 0.0
N1103 N 0.33756 0.41421 0.04081 0.0
C1104 C 0.35725 0.43626 0.02453 0.0
C1105 C 0.37268 0.43703 0.03882 0.0
H1106 H 0.34969 0.40722 0.0677 0.0
H1107 H 0.32877 0.42359 0.01399 0.0
C1108 C 0.27338 0.35242 0.97674 0.0
N1109 N 0.28833 0.35312 0.99065 0.0
C1110 C 0.2731 0.34367 0.95745 0.0
C1111 C 0.30295 0.33555 0.96748 0.0
C1112 C 0.3027 0.34445 0.98642 0.0
C1113 C 0.2884 0.33563 0.95242 0.0
H1114 H 0.26208 0.35945 0.98034 0.0
H1115 H 0.31446 0.3451 0.9975 0.0
O1116 O 0.29755 0.3971 0.06083 0.0
O1117 O 0.27029 0.36537 0.03308 0.0
O1118 O 0.29394 0.39621 0.01573 0.0
O1119 O 0.31346 0.369 0.03614 0.0
H1120 H 0.28773 0.39 0.09569 0.0
H1121 H 0.3087 0.43382 0.06149 0.0
H1122 H 0.28941 0.41421 0.12425 0.0
H1123 H 0.30999 0.4573 0.09069 0.0
H1124 H 0.23616 0.30577 0.02079 0.0
H1125 H 0.23866 0.37226 0.04536 0.0
H1126 H 0.26579 0.32909 0.02091 0.0
H1127 H 0.20952 0.34826 0.04468 0.0
H1128 H 0.23628 0.43245 0.069 0.0
H1129 H 0.22777 0.42241 0.00557 0.0
H1130 H 0.32197 0.35024 0.11476 0.0
H1131 H 0.262 0.32989 0.1017 0.0
H1132 H 0.30024 0.38824 0.97893 0.0
H1133 H 0.28835 0.43117 0.02085 0.0
H1134 H 0.30063 0.4102 0.95369 0.0
H1135 H 0.28899 0.45243 0.99483 0.0
H1136 H 0.34896 0.3794 0.03015 0.0
H1137 H 0.30732 0.33331 0.04243 0.0
H1138 H 0.37249 0.35875 0.0308 0.0
H1139 H 0.33159 0.31341 0.04281 0.0
H1140 H 0.38107 0.42712 0.06639 0.0
H1141 H 0.35867 0.44407 0.01201 0.0
H1142 H 0.2616 0.34417 0.94636 0.0
H1143 H 0.31491 0.3293 0.96446 0.0
Li1144 Li 0.7669 0.14137 0.06541 0.0
Li1145 Li 0.78147 0.11805 0.04887 0.0
Li1146 Li 0.76662 0.14031 0.03073 0.0
Li1147 Li 0.748 0.11452 0.04426 0.0
C1148 C 0.80393 0.15959 0.05264 0.0
N1149 N 0.83503 0.18849 0.05692 0.0
C1150 C 0.82203 0.15588 0.05637 0.0
C1151 C 0.80162 0.178 0.05107 0.0
C1152 C 0.83758 0.17068 0.05852 0.0
C1153 C 0.81754 0.19242 0.05326 0.0
C1154 C 0.76507 0.10337 0.08303 0.0
C1155 C 0.76079 0.07228 0.09297 0.0
N1156 N 0.76554 0.07995 0.1121 0.0
C1157 C 0.76994 0.11095 0.10277 0.0
C1158 C 0.76057 0.08389 0.07804 0.0
C1159 C 0.77014 0.09888 0.11725 0.0
C1160 C 0.7543 0.16169 0.09529 0.0
N1161 N 0.76943 0.15672 0.08776 0.0
C1162 C 0.79093 0.17731 0.11189 0.0
C1163 C 0.7874 0.1635 0.09605 0.0
C1164 C 0.77568 0.18345 0.11924 0.0
C1165 C 0.75716 0.17528 0.11146 0.0
H1166 H 0.74021 0.15542 0.08845 0.0
H1167 H 0.79894 0.15835 0.0902 0.0
C1168 C 0.80801 0.10179 0.03357 0.0
N1169 N 0.80089 0.10581 0.05057 0.0
C1170 C 0.82335 0.09309 0.03381 0.0
C1171 C 0.82366 0.09307 0.06912 0.0
C1172 C 0.80834 0.10191 0.06818 0.0
C1173 C 0.83123 0.08857 0.05176 0.0
H1174 H 0.80198 0.10572 0.01997 0.0
H1175 H 0.80265 0.10598 0.08149 0.0
C1176 C 0.73335 0.15342 0.04507 0.0
N1177 N 0.70928 0.17857 0.04411 0.0
C1178 C 0.7141 0.14702 0.03911 0.0
C1179 C 0.74038 0.17261 0.05052 0.0
C1180 C 0.70216 0.15996 0.03868 0.0
C1181 C 0.72796 0.1851 0.04999 0.0
C1182 C 0.76097 0.10049 0.00747 0.0
C1183 C 0.75589 0.10609 0.98918 0.0
C1184 C 0.76221 0.08178 0.00881 0.0
C1185 C 0.75215 0.09281 0.97245 0.0
C1186 C 0.75834 0.06892 0.99172 0.0
N1187 N 0.75346 0.07466 0.97406 0.0
C1188 C 0.78652 0.15657 0.00402 0.0
C1189 C 0.75495 0.16127 0.00161 0.0
C1190 C 0.79022 0.16687 0.98855 0.0
N1191 N 0.76926 0.15423 0.01027 0.0
C1192 C 0.75795 0.17151 0.9859 0.0
C1193 C 0.77584 0.17448 0.97935 0.0
H1194 H 0.79739 0.15036 0.0111 0.0
H1195 H 0.74125 0.15869 0.0067 0.0
C1196 C 0.71937 0.09161 0.0578 0.0
N1197 N 0.72656 0.09692 0.04135 0.0
C1198 C 0.7029 0.07825 0.0561 0.0
C1199 C 0.7018 0.07639 0.02056 0.0
C1200 C 0.71826 0.08973 0.02299 0.0
C1201 C 0.6938 0.07085 0.03726 0.0
H1202 H 0.72611 0.09816 0.07218 0.0
H1203 H 0.72398 0.0949 0.01028 0.0
O1204 O 0.78861 0.14519 0.05071 0.0
O1205 O 0.76414 0.11505 0.06878 0.0
O1206 O 0.74504 0.14077 0.04586 0.0
O1207 O 0.76514 0.1134 0.02389 0.0
H1208 H 0.82407 0.14173 0.05771 0.0
H1209 H 0.78772 0.1811 0.04814 0.0
H1210 H 0.85166 0.168 0.06147 0.0
H1211 H 0.816 0.20673 0.05205 0.0
H1212 H 0.75715 0.05718 0.08937 0.0
H1213 H 0.77346 0.12599 0.10691 0.0
H1214 H 0.75672 0.07782 0.06281 0.0
H1215 H 0.77386 0.10455 0.13259 0.0
H1216 H 0.80531 0.18318 0.11828 0.0
H1217 H 0.74526 0.17971 0.11748 0.0
H1218 H 0.82929 0.0904 0.02023 0.0
H1219 H 0.82963 0.08997 0.08319 0.0
H1220 H 0.70845 0.13218 0.0349 0.0
H1221 H 0.75522 0.17778 0.0553 0.0
H1222 H 0.68723 0.15519 0.03408 0.0
H1223 H 0.73317 0.19999 0.05429 0.0
H1224 H 0.75483 0.12051 0.98788 0.0
H1225 H 0.76615 0.07728 0.02288 0.0
H1226 H 0.74824 0.09695 0.95819 0.0
H1227 H 0.75927 0.05439 0.9925 0.0
H1228 H 0.80416 0.16895 0.98392 0.0
H1229 H 0.74637 0.1768 0.97879 0.0
H1230 H 0.69677 0.07454 0.06923 0.0
H1231 H 0.6947 0.07156 0.00583 0.0
Li1232 Li 0.1948 0.55785 0.25259 0.0
Li1233 Li 0.16764 0.54196 0.26679 0.0
Li1234 Li 0.18775 0.52427 0.2482 0.0
Li1235 Li 0.16607 0.54194 0.23226 0.0
C1236 C 0.20686 0.54503 0.2899 0.0
N1237 N 0.23202 0.55322 0.32389 0.0
C1238 C 0.20239 0.55506 0.3066 0.0
C1239 C 0.2241 0.53913 0.29048 0.0
C1240 C 0.21529 0.55902 0.32367 0.0
C1241 C 0.23666 0.54348 0.30779 0.0
C1242 C 0.15781 0.57644 0.25106 0.0
C1243 C 0.12672 0.58327 0.24511 0.0
N1244 N 0.13415 0.60195 0.24949 0.0
C1245 C 0.16515 0.59569 0.25547 0.0
C1246 C 0.13844 0.57013 0.24588 0.0
C1247 C 0.15295 0.60837 0.25464 0.0
C1248 C 0.21127 0.58927 0.23976 0.0
N1249 N 0.21376 0.57824 0.25412 0.0
C1250 C 0.23963 0.60064 0.27097 0.0
C1251 C 0.2281 0.58306 0.269 0.0
C1252 C 0.2359 0.61314 0.25765 0.0
C1253 C 0.22239 0.60702 0.24118 0.0
H1254 H 0.19971 0.58475 0.22808 0.0
H1255 H 0.22991 0.57395 0.28004 0.0
C1256 C 0.15032 0.5254 0.29552 0.0
N1257 N 0.15381 0.54177 0.28757 0.0
C1258 C 0.14153 0.52459 0.31244 0.0
C1259 C 0.1401 0.55755 0.31249 0.0
C1260 C 0.14864 0.55763 0.29534 0.0
C1261 C 0.13694 0.54097 0.3213 0.0
H1262 H 0.15506 0.51321 0.28909 0.0
H1263 H 0.15199 0.57051 0.28885 0.0
C1264 C 0.20409 0.54277 0.21418 0.0
N1265 N 0.22833 0.54646 0.18577 0.0
C1266 C 0.19702 0.53907 0.19423 0.0
C1267 C 0.22351 0.54807 0.21971 0.0
C1268 C 0.20949 0.54104 0.18009 0.0
C1269 C 0.23553 0.54999 0.20511 0.0
C1270 C 0.14693 0.50418 0.24687 0.0
C1271 C 0.15095 0.48651 0.24139 0.0
C1272 C 0.129 0.50559 0.2517 0.0
C1273 C 0.13703 0.47047 0.24109 0.0
C1274 C 0.11547 0.4892 0.25126 0.0
N1275 N 0.11973 0.47213 0.24601 0.0
C1276 C 0.20174 0.49704 0.26411 0.0
C1277 C 0.20827 0.49967 0.23119 0.0
C1278 C 0.21437 0.48519 0.26646 0.0
N1279 N 0.19953 0.50441 0.24695 0.0
C1280 C 0.22097 0.48767 0.23282 0.0
C1281 C 0.22453 0.48101 0.25089 0.0
H1282 H 0.19453 0.50133 0.27628 0.0
H1283 H 0.20608 0.50587 0.21776 0.0
C1284 C 0.15427 0.55552 0.1982 0.0
N1285 N 0.15091 0.54171 0.20993 0.0
C1286 C 0.14461 0.55299 0.17935 0.0
C1287 C 0.12777 0.52279 0.18609 0.0
C1288 C 0.13778 0.52582 0.20451 0.0
C1289 C 0.13168 0.53615 0.17311 0.0
H1290 H 0.16506 0.56789 0.20314 0.0
H1291 H 0.13556 0.51514 0.2141 0.0
O1292 O 0.19432 0.54074 0.27315 0.0
O1293 O 0.16963 0.56392 0.25213 0.0
O1294 O 0.19196 0.54108 0.22815 0.0
O1295 O 0.16028 0.52002 0.2466 0.0
H1296 H 0.18914 0.55976 0.30642 0.0
H1297 H 0.22787 0.53156 0.27761 0.0
H1298 H 0.212 0.56672 0.33673 0.0
H1299 H 0.25011 0.53914 0.3084 0.0
H1300 H 0.1117 0.57863 0.24108 0.0
H1301 H 0.1801 0.60079 0.25969 0.0
H1302 H 0.13253 0.55526 0.24254 0.0
H1303 H 0.15843 0.6233 0.25811 0.0
H1304 H 0.25011 0.60506 0.28374 0.0
H1305 H 0.21912 0.61645 0.23073 0.0
H1306 H 0.13943 0.51172 0.31923 0.0
H1307 H 0.13675 0.57041 0.31925 0.0
H1308 H 0.18206 0.53455 0.18968 0.0
H1309 H 0.22925 0.55069 0.23508 0.0
H1310 H 0.2042 0.53822 0.16459 0.0
H1311 H 0.25058 0.55423 0.20915 0.0
H1312 H 0.16457 0.48515 0.23712 0.0
H1313 H 0.12557 0.51919 0.25563 0.0
H1314 H 0.13996 0.45671 0.23684 0.0
H1315 H 0.10154 0.49005 0.25501 0.0
H1316 H 0.21666 0.47984 0.28044 0.0
H1317 H 0.22853 0.48437 0.22057 0.0
H1318 H 0.14766 0.56362 0.16959 0.0
H1319 H 0.11737 0.50994 0.18191 0.0
Li1320 Li 0.78039 0.8934 0.53698 0.0
Li1321 Li 0.79512 0.86996 0.55402 0.0
Li1322 Li 0.81554 0.89578 0.5379 0.0
Li1323 Li 0.79327 0.86773 0.51644 0.0
C1324 C 0.80036 0.91093 0.5759 0.0
N1325 N 0.80079 0.93733 0.6078 0.0
C1326 C 0.79388 0.90531 0.59324 0.0
C1327 C 0.80706 0.92997 0.57477 0.0
C1328 C 0.79421 0.91888 0.6092 0.0
C1329 C 0.80716 0.9431 0.59107 0.0
C1330 C 0.75604 0.85301 0.53257 0.0
C1331 C 0.73799 0.82142 0.52483 0.0
N1332 N 0.72266 0.82741 0.53094 0.0
C1333 C 0.7401 0.85886 0.53878 0.0
C1334 C 0.75501 0.83415 0.52554 0.0
C1335 C 0.72335 0.8457 0.53783 0.0
C1336 C 0.74957 0.90777 0.52033 0.0
N1337 N 0.7601 0.90707 0.53761 0.0
C1338 C 0.74043 0.92395 0.55539 0.0
C1339 C 0.75568 0.91478 0.55499 0.0
C1340 C 0.72941 0.92509 0.53775 0.0
C1341 C 0.73413 0.9167 0.52006 0.0
H1342 H 0.75306 0.90117 0.50675 0.0
H1343 H 0.7638 0.91365 0.56864 0.0
C1344 C 0.80865 0.8574 0.59031 0.0
N1345 N 0.7934 0.8564 0.57674 0.0
C1346 C 0.80672 0.84881 0.60758 0.0
C1347 C 0.77356 0.8383 0.59648 0.0
C1348 C 0.77607 0.84719 0.57967 0.0
C1349 C 0.78896 0.83899 0.61075 0.0
H1350 H 0.82224 0.86512 0.58788 0.0
H1351 H 0.764 0.84702 0.56922 0.0
C1352 C 0.79643 0.9077 0.50134 0.0
N1353 N 0.79627 0.93255 0.47366 0.0
C1354 C 0.79782 0.90175 0.48168 0.0
C1355 C 0.79499 0.92627 0.50697 0.0
C1356 C 0.79775 0.91454 0.4679 0.0
C1357 C 0.79489 0.93862 0.49272 0.0
C1358 C 0.82789 0.85641 0.53579 0.0
C1359 C 0.84619 0.86305 0.53173 0.0
C1360 C 0.82257 0.83784 0.53953 0.0
C1361 C 0.85895 0.85093 0.53148 0.0
C1362 C 0.83575 0.82615 0.53916 0.0
N1363 N 0.85352 0.83288 0.53518 0.0
C1364 C 0.85081 0.92069 0.55561 0.0
C1365 C 0.84499 0.91618 0.52082 0.0
C1366 C 0.86793 0.93317 0.55495 0.0
N1367 N 0.83964 0.91266 0.53865 0.0
C1368 C 0.8618 0.92853 0.51949 0.0
C1369 C 0.87346 0.93749 0.53666 0.0
H1370 H 0.84636 0.9176 0.56966 0.0
H1371 H 0.83613 0.90939 0.50754 0.0
C1372 C 0.77243 0.84874 0.4804 0.0
N1373 N 0.7897 0.85168 0.49109 0.0
C1374 C 0.76944 0.83983 0.46099 0.0
C1375 C 0.80177 0.83607 0.46397 0.0
C1376 C 0.80418 0.84515 0.48341 0.0
C1377 C 0.78436 0.83385 0.45223 0.0
H1378 H 0.76113 0.85411 0.48666 0.0
H1379 H 0.81788 0.84775 0.49202 0.0
O1380 O 0.80035 0.89781 0.56022 0.0
O1381 O 0.77261 0.86565 0.53356 0.0
O1382 O 0.7962 0.89525 0.5149 0.0
O1383 O 0.81542 0.86823 0.5366 0.0
H1384 H 0.78856 0.89065 0.59434 0.0
H1385 H 0.81213 0.93452 0.56144 0.0
H1386 H 0.78922 0.91473 0.6227 0.0
H1387 H 0.81231 0.95789 0.59043 0.0
H1388 H 0.73698 0.80677 0.51945 0.0
H1389 H 0.74068 0.87334 0.54446 0.0
H1390 H 0.76726 0.82941 0.52076 0.0
H1391 H 0.71093 0.85002 0.54262 0.0
H1392 H 0.73745 0.93024 0.56938 0.0
H1393 H 0.72583 0.9168 0.50611 0.0
H1394 H 0.81897 0.84969 0.61821 0.0
H1395 H 0.75955 0.83122 0.59846 0.0
H1396 H 0.79898 0.88742 0.47711 0.0
H1397 H 0.79384 0.93105 0.52214 0.0
H1398 H 0.79883 0.91014 0.45263 0.0
H1399 H 0.79369 0.95303 0.49682 0.0
H1400 H 0.85052 0.87742 0.52888 0.0
H1401 H 0.80844 0.83257 0.5428 0.0
H1402 H 0.87319 0.85587 0.5284 0.0
H1403 H 0.83188 0.81174 0.54207 0.0
H1404 H 0.87643 0.93976 0.56856 0.0
H1405 H 0.8656 0.93108 0.50505 0.0
H1406 H 0.75575 0.83842 0.45257 0.0
H1407 H 0.81373 0.83196 0.45782 0.0
Li1408 Li 0.94288 0.01879 0.2813 0.0
Li1409 Li 0.91479 0.99653 0.25908 0.0
Li1410 Li 0.94174 0.01675 0.24357 0.0
Li1411 Li 0.91801 0.03194 0.26019 0.0
C1412 C 0.9542 0.98382 0.26196 0.0
N1413 N 0.97743 0.95792 0.26264 0.0
C1414 C 0.94763 0.96592 0.26703 0.0
C1415 C 0.97259 0.98864 0.25737 0.0
C1416 C 0.95957 0.95299 0.26722 0.0
C1417 C 0.98413 0.97532 0.2578 0.0
C1418 C 0.90363 0.0166 0.29653 0.0
C1419 C 0.87431 0.02145 0.30765 0.0
N1420 N 0.88043 0.01764 0.32586 0.0
C1421 C 0.90962 0.01271 0.31534 0.0
C1422 C 0.88585 0.02103 0.29262 0.0
C1423 C 0.89769 0.01333 0.32998 0.0
C1424 C 0.96142 0.0381 0.31963 0.0
N1425 N 0.95839 0.0218 0.30708 0.0
C1426 C 0.97289 0.00672 0.33222 0.0
C1427 C 0.9644 0.00642 0.31295 0.0
C1428 C 0.97535 0.02298 0.34582 0.0
C1429 C 0.96999 0.03903 0.33913 0.0
H1430 H 0.95638 0.05015 0.31482 0.0
H1431 H 0.96177 0.99354 0.30299 0.0
C1432 C 0.89896 0.95665 0.24585 0.0
N1433 N 0.89711 0.97242 0.25737 0.0
C1434 C 0.88728 0.93917 0.24698 0.0
C1435 C 0.87118 0.95473 0.27061 0.0
C1436 C 0.88313 0.97172 0.26912 0.0
C1437 C 0.87353 0.93793 0.26007 0.0
H1438 H 0.90999 0.95747 0.23636 0.0
H1439 H 0.88146 0.98428 0.27781 0.0
C1440 C 0.95844 0.05594 0.26558 0.0
N1441 N 0.98378 0.08962 0.26858 0.0
C1442 C 0.95282 0.07154 0.25841 0.0
C1443 C 0.97694 0.05743 0.27425 0.0
C1444 C 0.96583 0.08847 0.26012 0.0
C1445 C 0.98956 0.07458 0.27559 0.0
C1446 C 0.90046 0.01182 0.22136 0.0
C1447 C 0.90581 0.0182 0.20388 0.0
C1448 C 0.88147 1.00497 0.22278 0.0
C1449 C 0.89201 0.01761 0.18806 0.0
C1450 C 0.86809 1.00463 0.20662 0.0
N1451 N 0.87359 0.01088 0.18974 0.0
C1452 C 0.95203 1.00416 0.20563 0.0
C1453 C 0.96838 0.03433 0.21997 0.0
C1454 C 0.96018 0.00647 0.18812 0.0
N1455 N 0.95594 0.01818 0.221 0.0
C1456 C 0.97681 0.03721 0.20286 0.0
C1457 C 0.9724 0.02343 0.18636 0.0
H1458 H 0.94195 0.99148 0.20663 0.0
H1459 H 0.97139 0.04535 0.23216 0.0
C1460 C 0.90403 0.0629 0.27684 0.0
N1461 N 0.90459 0.05242 0.25949 0.0
C1462 C 0.89491 0.07819 0.27734 0.0
C1463 C 0.88746 0.07204 0.24201 0.0
C1464 C 0.89671 0.05684 0.24221 0.0
C1465 C 0.88633 0.0829 0.25977 0.0
H1466 H 0.91075 0.05941 0.29034 0.0
H1467 H 0.8977 0.04872 0.2285 0.0
O1468 O 0.94251 0.99643 0.26115 0.0
O1469 O 0.91514 0.01602 0.28203 0.0
O1470 O 0.94593 0.03925 0.26409 0.0
O1471 O 0.91382 0.01202 0.23687 0.0
H1472 H 0.93349 0.96207 0.27084 0.0
H1473 H 0.97785 1.00247 0.25343 0.0
H1474 H 0.95465 0.93905 0.27103 0.0
H1475 H 0.99841 0.97881 0.25424 0.0
H1476 H 0.86049 0.02478 0.30482 0.0
H1477 H 0.92328 0.00915 0.3186 0.0
H1478 H 0.88095 0.02391 0.27807 0.0
H1479 H 0.90214 0.01035 0.34461 0.0
H1480 H 0.97669 0.99399 0.33676 0.0
H1481 H 0.97132 0.05177 0.34917 0.0
H1482 H 0.8896 0.92669 0.23843 0.0
H1483 H 0.86043 0.95475 0.28041 0.0
H1484 H 0.93861 0.07061 0.2515 0.0
H1485 H 0.98151 0.04543 0.27978 0.0
H1486 H 0.96167 0.10067 0.25468 0.0
H1487 H 1.00395 0.07594 0.28219 0.0
H1488 H 0.92044 0.02366 0.20259 0.0
H1489 H 0.87713 0.99998 0.23622 0.0
H1490 H 0.89594 0.0225 0.17445 0.0
H1491 H 0.85333 0.99936 0.20748 0.0
H1492 H 0.95624 0.99546 0.1758 0.0
H1493 H 0.98642 0.05036 0.20246 0.0
H1494 H 0.89478 0.08636 0.29135 0.0
H1495 H 0.88103 0.07508 0.22813 0.0
Li1496 Li 0.26957 0.64413 0.56536 0.0
Li1497 Li 0.28355 0.61996 0.54832 0.0
Li1498 Li 0.26786 0.64199 0.53043 0.0
Li1499 Li 0.25086 0.61613 0.54533 0.0
C1500 C 0.30623 0.66156 0.55207 0.0
N1501 N 0.33771 0.69001 0.55678 0.0
C1502 C 0.32404 0.65773 0.55739 0.0
C1503 C 0.30438 0.67985 0.54917 0.0
C1504 C 0.33979 0.67232 0.55973 0.0
C1505 C 0.3205 0.69404 0.55159 0.0
C1506 C 0.26876 0.60611 0.58364 0.0
C1507 C 0.26485 0.57495 0.59337 0.0
N1508 N 0.26917 0.58253 0.61256 0.0
C1509 C 0.27324 0.6136 0.60344 0.0
C1510 C 0.26463 0.58664 0.57851 0.0
C1511 C 0.27338 0.60145 0.61785 0.0
C1512 C 0.25482 0.65887 0.59656 0.0
N1513 N 0.27074 0.6601 0.58766 0.0
C1514 C 0.28817 0.68252 0.61335 0.0
C1515 C 0.28722 0.67158 0.59551 0.0
C1516 C 0.27213 0.68107 0.62309 0.0
C1517 C 0.25522 0.66933 0.61466 0.0
H1518 H 0.24207 0.6493 0.58987 0.0
H1519 H 0.29974 0.67175 0.58838 0.0
C1520 C 0.30465 0.6004 0.5293 0.0
N1521 N 0.30135 0.60573 0.54784 0.0
C1522 C 0.31784 0.58952 0.52622 0.0
C1523 C 0.32487 0.59069 0.56159 0.0
C1524 C 0.31038 0.60044 0.56393 0.0
C1525 C 0.32936 0.58638 0.54253 0.0
H1526 H 0.29795 0.60559 0.51693 0.0
H1527 H 0.30725 0.60491 0.57849 0.0
C1528 C 0.23434 0.65364 0.5463 0.0
N1529 N 0.20853 0.67702 0.54616 0.0
C1530 C 0.21509 0.64607 0.54201 0.0
C1531 C 0.2405 0.67307 0.55056 0.0
C1532 C 0.20226 0.65814 0.54197 0.0
C1533 C 0.22721 0.68466 0.55043 0.0
C1534 C 0.26209 0.60212 0.50738 0.0
C1535 C 0.25756 0.60772 0.48896 0.0
C1536 C 0.26206 0.58314 0.50896 0.0
C1537 C 0.25311 0.59426 0.47239 0.0
C1538 C 0.25757 0.57012 0.49202 0.0
N1539 N 0.25322 0.5759 0.47424 0.0
C1540 C 0.28585 0.66045 0.50372 0.0
C1541 C 0.25335 0.66195 0.50197 0.0
C1542 C 0.28837 0.6721 0.48915 0.0
N1543 N 0.2687 0.65603 0.51 0.0
C1544 C 0.25516 0.67343 0.48707 0.0
C1545 C 0.27293 0.67869 0.4809 0.0
H1546 H 0.29757 0.65503 0.51022 0.0
H1547 H 0.23983 0.65779 0.50712 0.0
C1548 C 0.22254 0.594 0.55971 0.0
N1549 N 0.23036 0.59807 0.54321 0.0
C1550 C 0.20515 0.58212 0.55792 0.0
C1551 C 0.20591 0.57717 0.52258 0.0
C1552 C 0.2226 0.5899 0.52495 0.0
C1553 C 0.19639 0.5748 0.53898 0.0
H1554 H 0.229 0.60124 0.57394 0.0
H1555 H 0.22816 0.59453 0.51207 0.0
O1556 O 0.29076 0.64734 0.54957 0.0
O1557 O 0.26775 0.61788 0.5695 0.0
O1558 O 0.24699 0.64194 0.54641 0.0
O1559 O 0.26641 0.61518 0.52377 0.0
H1560 H 0.32566 0.64363 0.55969 0.0
H1561 H 0.29066 0.68301 0.54506 0.0
H1562 H 0.35366 0.66956 0.56386 0.0
H1563 H 0.31932 0.70825 0.54933 0.0
H1564 H 0.26153 0.55985 0.58965 0.0
H1565 H 0.27645 0.62865 0.60766 0.0
H1566 H 0.26109 0.58065 0.56324 0.0
H1567 H 0.27674 0.60705 0.63324 0.0
H1568 H 0.30144 0.69136 0.6199 0.0
H1569 H 0.24273 0.66801 0.62216 0.0
H1570 H 0.32099 0.58621 0.51134 0.0
H1571 H 0.33364 0.58838 0.57443 0.0
H1572 H 0.21012 0.63103 0.5387 0.0
H1573 H 0.25537 0.67911 0.55395 0.0
H1574 H 0.18731 0.65249 0.53863 0.0
H1575 H 0.23174 0.69974 0.55373 0.0
H1576 H 0.25739 0.62229 0.48745 0.0
H1577 H 0.26535 0.57854 0.52315 0.0
H1578 H 0.24956 0.59841 0.45805 0.0
H1579 H 0.25749 0.55541 0.49301 0.0
H1580 H 0.30212 0.67581 0.48426 0.0
H1581 H 0.24301 0.67826 0.48059 0.0
H1582 H 0.1977 0.58066 0.57073 0.0
H1583 H 0.19905 0.57187 0.50783 0.0
Li1584 Li 0.41416 0.4963 0.76022 0.0
Li1585 Li 0.44238 0.5182 0.78214 0.0
Li1586 Li 0.41737 0.53159 0.76141 0.0
Li1587 Li 0.44068 0.51699 0.74451 0.0
C1588 C 0.4024 0.51517 0.79688 0.0
N1589 N 0.37756 0.51456 0.82471 0.0
C1590 C 0.40806 0.51211 0.8161 0.0
C1591 C 0.38412 0.51791 0.79177 0.0
C1592 C 0.39528 0.51183 0.82995 0.0
C1593 C 0.37177 0.51758 0.80608 0.0
C1594 C 0.45357 0.48373 0.76254 0.0
C1595 C 0.4839 0.47572 0.75956 0.0
N1596 N 0.47693 0.45796 0.76326 0.0
C1597 C 0.44669 0.46543 0.76633 0.0
C1598 C 0.4723 0.48898 0.75914 0.0
C1599 C 0.45873 0.4526 0.76664 0.0
C1600 C 0.39418 0.46001 0.74151 0.0
N1601 N 0.39669 0.4721 0.7584 0.0
C1602 C 0.37508 0.44991 0.77286 0.0
C1603 C 0.38744 0.46731 0.77395 0.0
C1604 C 0.37221 0.43697 0.75565 0.0
C1605 C 0.3821 0.44238 0.73985 0.0
H1606 H 0.40172 0.46399 0.72933 0.0
H1607 H 0.38964 0.47694 0.78734 0.0
C1608 C 0.46058 0.53807 0.81927 0.0
N1609 N 0.45785 0.5212 0.80785 0.0
C1610 C 0.47017 0.54065 0.83842 0.0
C1611 C 0.4743 0.50856 0.83387 0.0
C1612 C 0.46455 0.50656 0.8148 0.0
C1613 C 0.47721 0.52578 0.84617 0.0
H1614 H 0.45493 0.54947 0.81366 0.0
H1615 H 0.46211 0.49318 0.80566 0.0
C1616 C 0.39978 0.51204 0.72236 0.0
N1617 N 0.37363 0.51157 0.69022 0.0
C1618 C 0.40553 0.51915 0.70535 0.0
C1619 C 0.38075 0.50467 0.72303 0.0
C1620 C 0.39209 0.51877 0.68925 0.0
C1621 C 0.36774 0.5046 0.70662 0.0
C1622 C 0.45818 0.5552 0.76496 0.0
C1623 C 0.45256 0.5708 0.75776 0.0
C1624 C 0.477 0.55626 0.77229 0.0
C1625 C 0.46594 0.58726 0.75799 0.0
C1626 C 0.48996 0.57298 0.77225 0.0
N1627 N 0.4842 0.588 0.76517 0.0
C1628 C 0.40553 0.56255 0.77929 0.0
C1629 C 0.39286 0.55522 0.7457 0.0
C1630 C 0.39518 0.57673 0.78173 0.0
N1631 N 0.40379 0.55176 0.76167 0.0
C1632 C 0.38222 0.56933 0.74749 0.0
C1633 C 0.38288 0.57985 0.76587 0.0
H1634 H 0.41459 0.55974 0.79163 0.0
H1635 H 0.39197 0.5468 0.7317 0.0
C1636 C 0.45552 0.50226 0.71082 0.0
N1637 N 0.4544 0.51857 0.72168 0.0
C1638 C 0.46417 0.50256 0.69354 0.0
C1639 C 0.47013 0.53644 0.6985 0.0
C1640 C 0.46138 0.53549 0.71576 0.0
C1641 C 0.47176 0.51981 0.68717 0.0
H1642 H 0.44949 0.48898 0.71549 0.0
H1643 H 0.45997 0.54832 0.72424 0.0
O1644 O 0.41478 0.51553 0.7832 0.0
O1645 O 0.44182 0.49626 0.76163 0.0
O1646 O 0.41279 0.5119 0.73809 0.0
O1647 O 0.44521 0.53915 0.76538 0.0
H1648 H 0.42214 0.50988 0.82024 0.0
H1649 H 0.37955 0.52027 0.77693 0.0
H1650 H 0.39945 0.50944 0.84488 0.0
H1651 H 0.35759 0.51971 0.80238 0.0
H1652 H 0.49843 0.47953 0.75689 0.0
H1653 H 0.43218 0.46118 0.76894 0.0
H1654 H 0.47776 0.5031 0.75609 0.0
H1655 H 0.4536 0.43837 0.76951 0.0
H1656 H 0.36771 0.44679 0.78539 0.0
H1657 H 0.38085 0.43299 0.72635 0.0
H1658 H 0.47159 0.55413 0.8472 0.0
H1659 H 0.47954 0.49669 0.83887 0.0
H1660 H 0.42019 0.52488 0.70457 0.0
H1661 H 0.37611 0.49908 0.73608 0.0
H1662 H 0.39634 0.52419 0.67598 0.0
H1663 H 0.35295 0.49896 0.70692 0.0
H1664 H 0.43804 0.5702 0.75203 0.0
H1665 H 0.48152 0.54432 0.77801 0.0
H1666 H 0.4618 0.59944 0.75247 0.0
H1667 H 0.50458 0.57404 0.7779 0.0
H1668 H 0.3963 0.58478 0.79607 0.0
H1669 H 0.37292 0.57136 0.73492 0.0
H1670 H 0.46478 0.48935 0.68514 0.0
H1671 H 0.47583 0.55004 0.69427 0.0
Li1672 Li 0.66624 0.04064 0.76589 0.0
Li1673 Li 0.69396 0.05937 0.7555 0.0
Li1674 Li 0.66827 0.04131 0.73173 0.0
Li1675 Li 0.6896 0.02549 0.74964 0.0
C1676 C 0.65659 0.07549 0.7499 0.0
N1677 N 0.63367 0.10163 0.74766 0.0
C1678 C 0.66393 0.09448 0.75629 0.0
C1679 C 0.63759 0.06976 0.74239 0.0
C1680 C 0.65211 0.10748 0.75506 0.0
C1681 C 0.62624 0.08322 0.74132 0.0
C1682 C 0.70628 0.04617 0.79111 0.0
C1683 C 0.73818 0.04879 0.8061 0.0
N1684 N 0.73344 0.05638 0.82334 0.0
C1685 C 0.70167 0.05392 0.80897 0.0
C1686 C 0.72463 0.04348 0.78963 0.0
C1687 C 0.71562 0.05901 0.8251 0.0
C1688 C 0.64864 0.02362 0.79446 0.0
N1689 N 0.65087 0.0394 0.78539 0.0
C1690 C 0.63638 0.05537 0.80944 0.0
C1691 C 0.64453 0.05494 0.7921 0.0
C1692 C 0.63509 0.03973 0.81981 0.0
C1693 C 0.64049 0.0234 0.81185 0.0
H1694 H 0.65429 0.01171 0.78884 0.0
H1695 H 0.64696 0.06741 0.78484 0.0
C1696 C 0.71161 0.08982 0.74277 0.0
N1697 N 0.71162 0.08111 0.75922 0.0
C1698 C 0.72482 0.1059 0.74213 0.0
C1699 C 0.73774 0.10375 0.77551 0.0
C1700 C 0.72402 0.08781 0.77559 0.0
C1701 C 0.73823 0.11291 0.75859 0.0
H1702 H 0.70126 0.08416 0.73017 0.0
H1703 H 0.72334 0.08098 0.78868 0.0
C1704 C 0.64817 1.00369 0.74469 0.0
N1705 N 0.61985 0.97242 0.74278 0.0
C1706 C 0.65206 0.98571 0.74089 0.0
C1707 C 0.62988 0.00582 0.74738 0.0
C1708 C 0.63754 0.97007 0.73995 0.0
C1709 C 0.61577 0.98981 0.74649 0.0
C1710 C 0.70662 0.04423 0.71649 0.0
C1711 C 0.69914 0.03711 0.69709 0.0
C1712 C 0.72576 0.05231 0.72077 0.0
C1713 C 0.71091 0.03836 0.68225 0.0
C1714 C 0.73706 0.05334 0.7055 0.0
N1715 N 0.72946 0.04642 0.68672 0.0
C1716 C 0.65516 0.05642 0.7 0.0
C1717 C 0.64343 0.02383 0.70067 0.0
C1718 C 0.64282 0.05641 0.68334 0.0
N1719 N 0.65466 0.04041 0.70845 0.0
C1720 C 0.63075 0.02318 0.68421 0.0
C1721 C 0.63006 0.03975 0.67583 0.0
H1722 H 0.66462 0.06924 0.70667 0.0
H1723 H 0.64388 0.0113 0.7076 0.0
C1724 C 0.70384 0.99849 0.76584 0.0
N1725 N 0.70217 0.00621 0.74883 0.0
C1726 C 0.71582 0.986 0.76805 0.0
C1727 C 0.72302 0.98873 0.73464 0.0
C1728 C 0.71089 1.00129 0.73311 0.0
C1729 C 0.72598 0.9816 0.75255 0.0
H1730 H 0.69649 1.00275 0.7779 0.0
H1731 H 0.70898 0.0076 0.71972 0.0
O1732 O 0.66797 0.0626 0.7515 0.0
O1733 O 0.69284 0.04122 0.77517 0.0
O1734 O 0.66221 0.01909 0.7452 0.0
O1735 O 0.69518 0.0437 0.73112 0.0
H1736 H 0.67857 0.09911 0.76233 0.0
H1737 H 0.63167 0.05509 0.73749 0.0
H1738 H 0.65758 0.12221 0.76005 0.0
H1739 H 0.61151 0.07903 0.73552 0.0
H1740 H 0.75248 0.04693 0.80517 0.0
H1741 H 0.6875 0.05606 0.81032 0.0
H1742 H 0.72841 0.0376 0.77585 0.0
H1743 H 0.7123 0.06507 0.83902 0.0
H1744 H 0.63229 0.06815 0.81537 0.0
H1745 H 0.6398 0.01125 0.81977 0.0
H1746 H 0.72413 0.11302 0.72908 0.0
H1747 H 0.74766 0.10898 0.78858 0.0
H1748 H 0.66609 0.98386 0.73848 0.0
H1749 H 0.62664 0.01968 0.75016 0.0
H1750 H 0.64033 0.95607 0.73692 0.0
H1751 H 0.60156 0.9912 0.74866 0.0
H1752 H 0.68443 0.03061 0.69349 0.0
H1753 H 0.7318 0.0578 0.73572 0.0
H1754 H 0.70529 0.03295 0.66718 0.0
H1755 H 0.75187 0.05966 0.70858 0.0
H1756 H 0.64278 0.06931 0.67683 0.0
H1757 H 0.62102 0.01013 0.67873 0.0
H1758 H 0.71762 0.98028 0.78189 0.0
H1759 H 0.7306 0.9853 0.72244 0.0
Li1760 Li 0.77368 0.68849 0.03133 0.0
Li1761 Li 0.78581 0.66237 0.01155 0.0
Li1762 Li 0.77127 0.68664 0.99398 0.0
Li1763 Li 0.75074 0.66051 0.00964 0.0
C1764 C 0.81047 0.70327 0.01688 0.0
N1765 N 0.84382 0.72936 0.0219 0.0
C1766 C 0.82748 0.69796 0.02275 0.0
C1767 C 0.81039 0.72183 0.01358 0.0
C1768 C 0.84419 0.71137 0.02521 0.0
C1769 C 0.82741 0.73482 0.0162 0.0
C1770 C 0.76967 0.64882 0.04694 0.0
C1771 C 0.76349 0.61748 0.05618 0.0
N1772 N 0.77081 0.62446 0.07503 0.0
C1773 C 0.77712 0.65569 0.06639 0.0
C1774 C 0.7628 0.62957 0.04174 0.0
C1775 C 0.77759 0.64315 0.08038 0.0
C1776 C 0.75957 0.7061 0.0631 0.0
N1777 N 0.7762 0.7044 0.05641 0.0
C1778 C 0.79313 0.72027 0.08723 0.0
C1779 C 0.79289 0.71171 0.06785 0.0
C1780 C 0.77604 0.72115 0.09484 0.0
C1781 C 0.75918 0.71449 0.08221 0.0
H1782 H 0.74649 0.70006 0.05389 0.0
H1783 H 0.80597 0.71004 0.06236 0.0
C1784 C 0.8144 0.64555 0.99497 0.0
N1785 N 0.8055 0.64785 0.01131 0.0
C1786 C 0.83031 0.63718 0.99563 0.0
C1787 C 0.827 0.63294 0.02953 0.0
C1788 C 0.81128 0.64135 0.02825 0.0
C1789 C 0.83708 0.6313 0.01331 0.0
H1790 H 0.80967 0.65097 0.9817 0.0
H1791 H 0.80432 0.64352 0.04115 0.0
C1792 C 0.7385 0.69965 0.00923 0.0
N1793 N 0.71236 0.72243 0.00524 0.0
C1794 C 0.71992 0.69189 0.00131 0.0
C1795 C 0.74384 0.71896 0.01509 0.0
C1796 C 0.7069 0.70365 0.99943 0.0
C1797 C 0.7304 0.73026 0.01294 0.0
C1798 C 0.76468 0.64546 0.97182 0.0
C1799 C 0.76103 0.65042 0.95293 0.0
C1800 C 0.76645 0.62705 0.97419 0.0
C1801 C 0.75926 0.63685 0.93665 0.0
C1802 C 0.76463 0.61389 0.95752 0.0
N1803 N 0.7611 0.61902 0.93926 0.0
C1804 C 0.78998 0.70126 0.96332 0.0
C1805 C 0.75975 0.70889 0.96315 0.0
C1806 C 0.79257 0.70923 0.94588 0.0
N1807 N 0.77364 0.70086 0.97144 0.0
C1808 C 0.76186 0.71721 0.94569 0.0
C1809 C 0.77831 0.71708 0.93662 0.0
H1810 H 0.80079 0.69472 0.97003 0.0
H1811 H 0.74676 0.70827 0.96964 0.0
C1812 C 0.71864 0.6406 0.02515 0.0
N1813 N 0.72661 0.64328 0.00831 0.0
C1814 C 0.70105 0.62859 0.02459 0.0
C1815 C 0.70028 0.62207 0.98941 0.0
C1816 C 0.71786 0.63413 0.99065 0.0
C1817 C 0.69141 0.61931 0.00648 0.0
H1818 H 0.72584 0.64798 0.03906 0.0
H1819 H 0.72443 0.63635 0.97744 0.0
O1820 O 0.79409 0.69019 0.01378 0.0
O1821 O 0.7692 0.66092 0.03308 0.0
O1822 O 0.75119 0.68823 0.01188 0.0
O1823 O 0.7668 0.6587 0.98786 0.0
H1824 H 0.82778 0.68363 0.0253 0.0
H1825 H 0.79733 0.72609 0.00892 0.0
H1826 H 0.85747 0.70745 0.02969 0.0
H1827 H 0.8276 0.74923 0.01365 0.0
H1828 H 0.75822 0.60255 0.0524 0.0
H1829 H 0.78256 0.67054 0.07062 0.0
H1830 H 0.75704 0.62405 0.02672 0.0
H1831 H 0.78334 0.64826 0.09548 0.0
H1832 H 0.80643 0.72501 0.09653 0.0
H1833 H 0.74569 0.71485 0.08746 0.0
H1834 H 0.83788 0.63635 0.98289 0.0
H1835 H 0.83184 0.6286 0.04343 0.0
H1836 H 0.71558 0.67693 0.99681 0.0
H1837 H 0.75817 0.72512 0.02134 0.0
H1838 H 0.69245 0.69784 0.9934 0.0
H1839 H 0.73428 0.74524 0.01747 0.0
H1840 H 0.75957 0.66461 0.95086 0.0
H1841 H 0.76932 0.62303 0.98874 0.0
H1842 H 0.75644 0.64049 0.92194 0.0
H1843 H 0.76605 0.5996 0.9591 0.0
H1844 H 0.80539 0.70868 0.93927 0.0
H1845 H 0.75037 0.72279 0.93883 0.0
H1846 H 0.69481 0.6271 0.03812 0.0
H1847 H 0.69363 0.61505 0.97513 0.0
Li1848 Li 0.87029 0.49677 0.79373 0.0
Li1849 Li 0.89731 0.51346 0.81525 0.0
Li1850 Li 0.87356 0.52937 0.80054 0.0
Li1851 Li 0.89609 0.51631 0.78092 0.0
C1852 C 0.85909 0.50985 0.83322 0.0
N1853 N 0.83477 0.50665 0.86157 0.0
C1854 C 0.86535 0.5062 0.85206 0.0
C1855 C 0.84045 0.51177 0.82875 0.0
C1856 C 0.85284 0.50464 0.86619 0.0
C1857 C 0.82838 0.51016 0.84332 0.0
C1858 C 0.90781 0.4806 0.7955 0.0
C1859 C 0.93821 0.47203 0.79472 0.0
N1860 N 0.93081 0.45463 0.79911 0.0
C1861 C 0.90049 0.46263 0.79998 0.0
C1862 C 0.92681 0.48535 0.79277 0.0
C1863 C 0.91235 0.4497 0.80174 0.0
C1864 C 0.84831 0.46853 0.76974 0.0
N1865 N 0.85248 0.47596 0.78886 0.0
C1866 C 0.83215 0.45071 0.79932 0.0
C1867 C 0.84442 0.46785 0.80362 0.0
C1868 C 0.82857 0.44234 0.77974 0.0
C1869 C 0.83538 0.45204 0.76466 0.0
H1870 H 0.85587 0.47479 0.7586 0.0
H1871 H 0.84866 0.47384 0.81874 0.0
C1872 C 0.91303 0.53165 0.8495 0.0
N1873 N 0.91275 0.5155 0.83774 0.0
C1874 C 0.92554 0.53641 0.86653 0.0
C1875 C 0.93689 0.50757 0.85884 0.0
C1876 C 0.92388 0.5032 0.84219 0.0
C1877 C 0.9379 0.52445 0.87105 0.0
H1878 H 0.9037 0.54092 0.84534 0.0
H1879 H 0.92304 0.49032 0.83272 0.0
C1880 C 0.85629 0.51045 0.75772 0.0
N1881 N 0.83069 0.5022 0.72401 0.0
C1882 C 0.86252 0.51117 0.73919 0.0
C1883 C 0.83697 0.50567 0.75909 0.0
C1884 C 0.84938 0.50693 0.72234 0.0
C1885 C 0.82428 0.50148 0.74188 0.0
C1886 C 0.91517 0.55199 0.80385 0.0
C1887 C 0.91087 0.56921 0.79984 0.0
C1888 C 0.93388 0.55059 0.80897 0.0
C1889 C 0.92545 0.58481 0.80088 0.0
C1890 C 0.94806 0.56656 0.80996 0.0
N1891 N 0.94359 0.58319 0.80591 0.0
C1892 C 0.86003 0.55735 0.82196 0.0
C1893 C 0.84792 0.54888 0.7882 0.0
C1894 C 0.84928 0.57122 0.82358 0.0
N1895 N 0.85956 0.54714 0.80422 0.0
C1896 C 0.83631 0.56168 0.78939 0.0
C1897 C 0.838 0.57388 0.8068 0.0
H1898 H 0.86933 0.55524 0.83446 0.0
H1899 H 0.84832 0.5411 0.77424 0.0
C1900 C 0.91065 0.50233 0.74905 0.0
N1901 N 0.90972 0.51859 0.76002 0.0
C1902 C 0.91959 0.50289 0.73219 0.0
C1903 C 0.92633 0.53693 0.73838 0.0
C1904 C 0.9171 0.53569 0.75504 0.0
C1905 C 0.92767 0.52038 0.72684 0.0
H1906 H 0.90409 0.489 0.75322 0.0
H1907 H 0.91559 0.54833 0.7638 0.0
O1908 O 0.87116 0.5111 0.81919 0.0
O1909 O 0.89629 0.49328 0.79325 0.0
O1910 O 0.86903 0.51495 0.77441 0.0
O1911 O 0.90099 0.53673 0.80315 0.0
H1912 H 0.87966 0.50439 0.85569 0.0
H1913 H 0.83534 0.51438 0.81417 0.0
H1914 H 0.85748 0.50178 0.88081 0.0
H1915 H 0.81391 0.51164 0.8401 0.0
H1916 H 0.95295 0.47552 0.79273 0.0
H1917 H 0.88578 0.45869 0.80199 0.0
H1918 H 0.93268 0.4992 0.7893 0.0
H1919 H 0.90688 0.43573 0.80516 0.0
H1920 H 0.8274 0.44319 0.81126 0.0
H1921 H 0.83291 0.4456 0.74948 0.0
H1922 H 0.92567 0.54932 0.87588 0.0
H1923 H 0.94635 0.49807 0.86179 0.0
H1924 H 0.87729 0.51521 0.73773 0.0
H1925 H 0.83188 0.50516 0.77332 0.0
H1926 H 0.85404 0.50748 0.70793 0.0
H1927 H 0.80932 0.4977 0.74272 0.0
H1928 H 0.89642 0.57046 0.79589 0.0
H1929 H 0.93739 0.53735 0.8122 0.0
H1930 H 0.92235 0.59822 0.79774 0.0
H1931 H 0.96262 0.56575 0.81396 0.0
H1932 H 0.85089 0.58063 0.83713 0.0
H1933 H 0.82778 0.56357 0.77616 0.0
H1934 H 0.92008 0.48984 0.72339 0.0
H1935 H 0.93253 0.55061 0.7347 0.0
Li1936 Li 0.79666 0.41481 0.51772 0.0
Li1937 Li 0.78318 0.43872 0.50089 0.0
Li1938 Li 0.79509 0.41409 0.48267 0.0
Li1939 Li 0.81622 0.44005 0.50285 0.0
C1940 C 0.75878 0.39686 0.49633 0.0
N1941 N 0.72821 0.36753 0.49311 0.0
C1942 C 0.74079 0.40052 0.49793 0.0
C1943 C 0.76129 0.3783 0.49317 0.0
C1944 C 0.7255 0.3855 0.49629 0.0
C1945 C 0.74562 0.36366 0.4915 0.0
C1946 C 0.80449 0.45509 0.54101 0.0
C1947 C 0.81425 0.48712 0.55624 0.0
N1948 N 0.81086 0.48139 0.57398 0.0
C1949 C 0.80113 0.4495 0.55937 0.0
C1950 C 0.81105 0.47404 0.53936 0.0
C1951 C 0.8044 0.46302 0.57586 0.0
C1952 C 0.8116 0.39763 0.54843 0.0
N1953 N 0.79553 0.40034 0.53826 0.0
C1954 C 0.77648 0.38065 0.55694 0.0
C1955 C 0.77821 0.39251 0.54247 0.0
C1956 C 0.79274 0.37742 0.56749 0.0
C1957 C 0.81052 0.38617 0.56345 0.0
H1958 H 0.82516 0.40433 0.54482 0.0
H1959 H 0.76574 0.39554 0.53468 0.0
C1960 C 0.75656 0.45424 0.48202 0.0
N1961 N 0.76589 0.45353 0.49993 0.0
C1962 C 0.7427 0.46491 0.48046 0.0
C1963 C 0.74909 0.47426 0.51575 0.0
C1964 C 0.76275 0.4634 0.51662 0.0
C1965 C 0.73861 0.47451 0.49759 0.0
H1966 H 0.7595 0.44601 0.46914 0.0
H1967 H 0.7702 0.46219 0.53064 0.0
C1968 C 0.82966 0.40157 0.50054 0.0
N1969 N 0.85535 0.37807 0.49959 0.0
C1970 C 0.84832 0.4086 0.49786 0.0
C1971 C 0.82402 0.38259 0.50265 0.0
C1972 C 0.8611 0.39649 0.49741 0.0
C1973 C 0.83725 0.37094 0.50217 0.0
C1974 C 0.8001 0.45256 0.4655 0.0
C1975 C 0.80275 0.44608 0.44634 0.0
C1976 C 0.79909 0.47141 0.47025 0.0
C1977 C 0.80446 0.4586 0.43227 0.0
C1978 C 0.8008 0.48347 0.45573 0.0
N1979 N 0.80345 0.47688 0.43721 0.0
C1980 C 0.77551 0.39022 0.45015 0.0
C1981 C 0.80901 0.39722 0.45327 0.0
C1982 C 0.77483 0.37756 0.43352 0.0
N1983 N 0.79248 0.39905 0.45988 0.0
C1984 C 0.80903 0.38493 0.43672 0.0
C1985 C 0.79183 0.37449 0.42722 0.0
H1986 H 0.76264 0.39267 0.45559 0.0
H1987 H 0.82213 0.40524 0.46102 0.0
C1988 C 0.84819 0.45813 0.52436 0.0
N1989 N 0.83827 0.45679 0.50639 0.0
C1990 C 0.86445 0.47166 0.52939 0.0
C1991 C 0.85961 0.48218 0.49726 0.0
C1992 C 0.84361 0.46822 0.49276 0.0
C1993 C 0.87029 0.48381 0.5157 0.0
H1994 H 0.8434 0.44861 0.53469 0.0
H1995 H 0.83566 0.46647 0.47842 0.0
O1996 O 0.77384 0.41149 0.49826 0.0
O1997 O 0.80112 0.44198 0.52475 0.0
O1998 O 0.81719 0.41344 0.50166 0.0
O1999 O 0.79875 0.44051 0.47953 0.0
H2000 H 0.73868 0.41483 0.50054 0.0
H2001 H 0.77516 0.37526 0.49198 0.0
H2002 H 0.7115 0.38812 0.49756 0.0
H2003 H 0.7473 0.34922 0.48896 0.0
H2004 H 0.81938 0.50184 0.55523 0.0
H2005 H 0.79592 0.43489 0.56084 0.0
H2006 H 0.81361 0.47858 0.5252 0.0
H2007 H 0.80179 0.45891 0.59016 0.0
H2008 H 0.7626 0.37432 0.56013 0.0
H2009 H 0.8233 0.38399 0.57163 0.0
H2010 H 0.73437 0.46456 0.46641 0.0
H2011 H 0.74574 0.48123 0.52924 0.0
H2012 H 0.8529 0.42328 0.4962 0.0
H2013 H 0.80965 0.37696 0.50483 0.0
H2014 H 0.8756 0.40175 0.49539 0.0
H2015 H 0.83314 0.35623 0.5039 0.0
H2016 H 0.80359 0.43159 0.44235 0.0
H2017 H 0.79718 0.47668 0.48505 0.0
H2018 H 0.8066 0.45377 0.41742 0.0
H2019 H 0.8001 0.4981 0.4592 0.0
H2020 H 0.76137 0.36974 0.4262 0.0
H2021 H 0.82232 0.38319 0.43171 0.0
H2022 H 0.87273 0.47206 0.54347 0.0
H2023 H 0.86393 0.49117 0.48626 0.0
Li2024 Li 0.62564 0.53914 0.30346 0.0
Li2025 Li 0.65173 0.55986 0.28805 0.0
Li2026 Li 0.62435 0.53658 0.26592 0.0
Li2027 Li 0.65022 0.52506 0.28645 0.0
C2028 C 0.61251 0.57173 0.28716 0.0
N2029 N 0.58962 0.59779 0.29086 0.0
C2030 C 0.62004 0.59001 0.29609 0.0
C2031 C 0.59338 0.56667 0.28009 0.0
C2032 C 0.60823 0.603 0.2978 0.0
C2033 C 0.58202 0.58006 0.28214 0.0
C2034 C 0.66657 0.54633 0.32621 0.0
C2035 C 0.69794 0.54609 0.34109 0.0
N2036 N 0.69261 0.55013 0.35918 0.0
C2037 C 0.66142 0.55056 0.34494 0.0
C2038 C 0.68498 0.54414 0.32422 0.0
C2039 C 0.67478 0.55241 0.36143 0.0
C2040 C 0.6123 0.5232 0.33736 0.0
N2041 N 0.61135 0.53737 0.32604 0.0
C2042 C 0.59273 0.55089 0.34824 0.0
C2043 C 0.60154 0.55092 0.33108 0.0
C2044 C 0.59421 0.53702 0.36085 0.0
C2045 C 0.60384 0.52276 0.35487 0.0
H2046 H 0.62021 0.51256 0.33315 0.0
H2047 H 0.60089 0.56208 0.32206 0.0
C2048 C 0.67123 0.5922 0.27287 0.0
N2049 N 0.66859 0.58409 0.28961 0.0
C2050 C 0.68302 0.60989 0.27364 0.0
C2051 C 0.68937 0.61048 0.30882 0.0
C2052 C 0.67754 0.59279 0.30737 0.0
C2053 C 0.69209 0.61947 0.29185 0.0
H2054 H 0.66398 0.58503 0.2589 0.0
H2055 H 0.67532 0.58611 0.32049 0.0
C2056 C 0.60902 0.50025 0.2812 0.0
N2057 N 0.58224 0.46749 0.27703 0.0
C2058 C 0.61392 0.48299 0.27568 0.0
C2059 C 0.59054 0.5009 0.2846 0.0
C2060 C 0.60016 0.46657 0.27365 0.0
C2061 C 0.57719 0.48416 0.28241 0.0
C2062 C 0.66403 0.54132 0.25083 0.0
C2063 C 0.65717 0.53328 0.23155 0.0
C2064 C 0.68318 0.5491 0.2557 0.0
C2065 C 0.66963 0.53319 0.21739 0.0
C2066 C 0.69518 0.54875 0.2411 0.0
N2067 N 0.68821 0.54087 0.22241 0.0
C2068 C 0.6093 0.55002 0.23238 0.0
C2069 C 0.59936 0.51706 0.23041 0.0
C2070 C 0.59966 0.55007 0.21376 0.0
N2071 N 0.60896 0.53374 0.24044 0.0
C2072 C 0.58949 0.51647 0.21156 0.0
C2073 C 0.58941 0.5332 0.203 0.0
H2074 H 0.61728 0.56304 0.24042 0.0
H2075 H 0.59944 0.5042 0.23694 0.0
C2076 C 0.66561 0.49602 0.30299 0.0
N2077 N 0.66469 0.50567 0.28709 0.0
C2078 C 0.67368 0.47997 0.30226 0.0
C2079 C 0.68055 0.48482 0.26932 0.0
C2080 C 0.67237 0.50063 0.27065 0.0
C2081 C 0.68065 0.47391 0.28495 0.0
H2082 H 0.65926 0.50024 0.31584 0.0
H2083 H 0.6713 0.50822 0.2581 0.0
O2084 O 0.62392 0.55894 0.28516 0.0
O2085 O 0.65352 0.54408 0.30998 0.0
O2086 O 0.62241 0.51638 0.28374 0.0
O2087 O 0.65202 0.54145 0.26486 0.0
H2088 H 0.63485 0.59412 0.30162 0.0
H2089 H 0.58738 0.55254 0.27314 0.0
H2090 H 0.61386 0.61722 0.30465 0.0
H2091 H 0.56716 0.57636 0.27677 0.0
H2092 H 0.71222 0.54436 0.33981 0.0
H2093 H 0.64726 0.55243 0.34672 0.0
H2094 H 0.68917 0.54088 0.30981 0.0
H2095 H 0.67097 0.55564 0.37601 0.0
H2096 H 0.58506 0.56193 0.3517 0.0
H2097 H 0.60551 0.51178 0.36398 0.0
H2098 H 0.6845 0.61626 0.26019 0.0
H2099 H 0.69622 0.61712 0.32316 0.0
H2100 H 0.62819 0.48227 0.27305 0.0
H2101 H 0.5866 0.51418 0.28898 0.0
H2102 H 0.60374 0.4531 0.26941 0.0
H2103 H 0.56283 0.48441 0.28503 0.0
H2104 H 0.64241 0.52707 0.22759 0.0
H2105 H 0.6887 0.55528 0.27061 0.0
H2106 H 0.66452 0.527 0.20241 0.0
H2107 H 0.71004 0.55472 0.24462 0.0
H2108 H 0.60042 0.5633 0.20774 0.0
H2109 H 0.58178 0.50313 0.20392 0.0
H2110 H 0.67339 0.47176 0.31452 0.0
H2111 H 0.68584 0.48055 0.25575 0.0
Eu2112 Eu 0.05857 0.03703 0.03653 0.0
C2113 C 0.9912 0.97455 0.99201 0.0
N2114 N 1.00093 0.99094 0.9871 0.0
C2115 C 0.99808 0.97717 0.95342 0.0
C2116 C 0.98469 0.95879 0.97765 0.0
C2117 C 1.00394 0.99254 0.96798 0.0
C2118 C 0.98848 0.96021 0.95827 0.0
C2119 C 0.9755 0.9574 0.01625 0.0
C2120 C 0.98653 0.97384 0.01113 0.0
C2121 C 0.96942 0.94164 0.00206 0.0
C2122 C 0.97396 0.94234 0.98283 0.0
Eu2123 Eu 1.00652 0.01672 0.0123 0.0
N2124 N 0.99194 0.98948 0.02447 0.0
C2125 C 0.97025 0.95752 0.03529 0.0
C2126 C 0.98588 0.99004 0.04262 0.0
C2127 C 0.97536 0.97397 0.04849 0.0
H2128 H 0.01001 0.0058 0.96346 0.0
H2129 H 0.97077 0.97442 0.06298 0.0
H2130 H 0.05182 0.04732 0.08388 0.0
H2131 H 0.10195 0.07933 0.99058 0.0
H2132 H 0.98876 1.003 0.05237 0.0
H2133 H 0.96175 0.94519 0.03973 0.0
H2134 H 0.08285 0.05062 0.99933 0.0
H2135 H 1.00049 0.97859 0.93833 0.0
H2136 H 0.96082 0.92896 0.00569 0.0
H2137 H 0.96876 0.9302 0.97193 0.0
H2138 H 0.05887 0.07441 0.10939 0.0
H2139 H 0.98357 0.94847 0.94683 0.0
H2140 H 0.10834 0.10857 0.01376 0.0
N2141 N 0.06239 0.06271 0.06133 0.0
C2142 C 0.073 0.07904 0.05738 0.0
C2143 C 0.06254 0.07605 0.09472 0.0
C2144 C 0.07822 0.09475 0.072 0.0
C2145 C 0.05798 0.06079 0.07994 0.0
C2146 C 0.07253 0.09317 0.09069 0.0
N2147 N 0.07582 0.064 0.02571 0.0
C2148 C 0.08417 0.06358 0.00882 0.0
C2149 C 0.09161 0.09625 0.03518 0.0
C2150 C 0.07976 0.07974 0.0391 0.0
C2151 C 0.09914 0.0962 0.01726 0.0
C2152 C 0.09553 0.07974 0.0041 0.0
H2153 H 0.07642 0.10485 0.10232 0.0
H2154 H 0.09384 0.12337 0.07898 0.0
H2155 H 0.10544 0.12472 0.04678 0.0
O2156 O 0.08882 0.03946 0.03851 0.0
O2157 O 0.04058 0.05995 0.03075 0.0
O2158 O 0.01916 0.04565 0.00413 0.0
O2159 O 0.07406 0.02743 0.06151 0.0
O2160 O 0.05697 0.02619 0.00392 0.0
O2161 O 0.02648 0.02644 0.99038 0.0
O2162 O 0.98245 0.02762 0.02159 0.0
O2163 O 0.02141 0.99626 0.02862 0.0
O2164 O 0.05173 0.00608 0.02277 0.0
O2165 O 0.98095 0.01358 0.99199 0.0
O2166 O 0.01166 0.03402 0.04221 0.0
O2167 O 0.03738 0.02452 0.05615 0.0
C2168 C 0.02852 0.06104 0.01528 0.0
C2169 C 0.10577 0.02299 0.05955 0.0
C2170 C 0.13134 0.00888 0.04893 0.0
C2171 C 0.13941 0.01048 0.06856 0.0
C2172 C 0.11383 0.02432 0.07916 0.0
C2173 C 0.13056 0.01803 0.08364 0.0
C2174 C 0.11444 0.01496 0.0444 0.0
C2175 C 0.0443 0.02616 0.98876 0.0
C2176 C 0.09029 0.03282 0.05527 0.0
C2177 C 0.08964 0.11125 0.06788 0.0
C2178 C 0.09627 0.11201 0.04953 0.0
C2179 C 0.03843 0.99287 0.02735 0.0
C2180 C 0.96263 0.0368 0.9967 0.0
C2181 C 0.93901 0.05558 0.00148 0.0
C2182 C 0.93915 0.05991 0.9821 0.0
C2183 C 0.9631 0.04139 0.97736 0.0
C2184 C 0.95085 0.04425 0.00873 0.0
C2185 C 0.95141 0.05302 0.97016 0.0
C2186 C 0.02111 0.02946 0.05753 0.0
C2187 C 0.97264 0.02291 0.0043 0.0
H2188 H 0.15252 0.00587 0.07217 0.0
H2189 H 0.10752 0.03082 0.09098 0.0
H2190 H 0.13685 0.01934 0.09877 0.0
H2191 H 0.10849 0.01405 0.02915 0.0
H2192 H 0.92969 0.06839 0.97622 0.0
H2193 H 0.97209 0.0357 0.96772 0.0
H2194 H 0.95012 0.04037 0.0235 0.0
H2195 H 0.95153 0.05631 0.95518 0.0
Eu2196 Eu 0.26763 0.78084 0.30114 0.0
C2197 C 0.30866 0.7426 0.22507 0.0
N2198 N 0.31635 0.75701 0.23927 0.0
C2199 C 0.34491 0.7451 0.24311 0.0
C2200 C 0.31877 0.72854 0.21956 0.0
C2201 C 0.33425 0.75855 0.24825 0.0
C2202 C 0.3371 0.72997 0.22877 0.0
C2203 C 0.28211 0.72686 0.20143 0.0
C2204 C 0.29061 0.74189 0.21607 0.0
C2205 C 0.29197 0.71264 0.19618 0.0
C2206 C 0.31029 0.71353 0.20515 0.0
Eu2207 Eu 0.29725 0.77841 0.24858 0.0
N2208 N 0.28143 0.75589 0.2215 0.0
C2209 C 0.26399 0.72658 0.1924 0.0
C2210 C 0.26418 0.75618 0.21169 0.0
C2211 C 0.2551 0.74143 0.19738 0.0
H2212 H 0.34036 0.77015 0.25943 0.0
H2213 H 0.24128 0.74164 0.19005 0.0
H2214 H 0.22487 0.79048 0.28708 0.0
H2215 H 0.3201 0.81495 0.36281 0.0
H2216 H 0.25718 0.76774 0.2143 0.0
H2217 H 0.25692 0.7152 0.18127 0.0
H2218 H 0.30409 0.78916 0.33738 0.0
H2219 H 0.35909 0.74636 0.2503 0.0
H2220 H 0.28559 0.70096 0.18508 0.0
H2221 H 0.31778 0.70254 0.20084 0.0
H2222 H 0.2071 0.81551 0.29418 0.0
H2223 H 0.34534 0.7195 0.22491 0.0
H2224 H 0.30568 0.8427 0.36985 0.0
N2225 N 0.24853 0.80321 0.30797 0.0
C2226 C 0.25576 0.8174 0.32273 0.0
C2227 C 0.22087 0.81631 0.30217 0.0
C2228 C 0.24616 0.83212 0.3271 0.0
C2229 C 0.23109 0.80221 0.29806 0.0
C2230 C 0.22853 0.83145 0.31656 0.0
N2231 N 0.28189 0.80292 0.32868 0.0
C2232 C 0.29803 0.80146 0.33976 0.0
C2233 C 0.28129 0.83212 0.3482 0.0
C2234 C 0.27296 0.81728 0.33338 0.0
C2235 C 0.2987 0.83148 0.35851 0.0
C2236 C 0.30694 0.81589 0.35451 0.0
H2237 H 0.22064 0.84243 0.31956 0.0
H2238 H 0.24738 0.85858 0.34514 0.0
H2239 H 0.27829 0.85872 0.36339 0.0
O2240 O 0.26851 0.76139 0.32259 0.0
O2241 O 0.28242 0.80969 0.29754 0.0
O2242 O 0.28701 0.79131 0.27342 0.0
O2243 O 0.24144 0.76605 0.31008 0.0
O2244 O 0.29778 0.77359 0.30434 0.0
O2245 O 0.31607 0.78129 0.27849 0.0
O2246 O 0.29697 0.80115 0.23089 0.0
O2247 O 0.29024 0.75098 0.26018 0.0
O2248 O 0.26618 0.76028 0.27374 0.0
O2249 O 0.32372 0.7959 0.24324 0.0
O2250 O 0.26707 0.78521 0.24412 0.0
O2251 O 0.24964 0.77973 0.27108 0.0
C2252 C 0.29023 0.80831 0.28185 0.0
C2253 C 0.2429 0.75384 0.34092 0.0
C2254 C 0.24714 0.74182 0.37217 0.0
C2255 C 0.22782 0.73997 0.37358 0.0
C2256 C 0.22355 0.75213 0.34242 0.0
C2257 C 0.2161 0.74535 0.35882 0.0
C2258 C 0.25468 0.74895 0.35608 0.0
C2259 C 0.314 0.77598 0.29633 0.0
C2260 C 0.25028 0.75728 0.32236 0.0
C2261 C 0.25445 0.84703 0.34176 0.0
C2262 C 0.27204 0.8471 0.35218 0.0
C2263 C 0.27689 0.74787 0.27143 0.0
C2264 C 0.32129 0.80623 0.2116 0.0
C2265 C 0.31635 0.8174 0.17994 0.0
C2266 C 0.32883 0.80669 0.17254 0.0
C2267 C 0.33393 0.79561 0.20429 0.0
C2268 C 0.31282 0.81727 0.19943 0.0
C2269 C 0.33773 0.79597 0.18479 0.0
C2270 C 0.25121 0.78375 0.25271 0.0
C2271 C 0.31515 0.80501 0.23108 0.0
H2272 H 0.22186 0.73419 0.38599 0.0
H2273 H 0.21411 0.7554 0.33064 0.0
H2274 H 0.20116 0.74377 0.35982 0.0
H2275 H 0.26954 0.74962 0.35495 0.0
H2276 H 0.33201 0.80701 0.15752 0.0
H2277 H 0.3406 0.7869 0.21346 0.0
H2278 H 0.30309 0.82553 0.20504 0.0
H2279 H 0.34752 0.78788 0.17915 0.0
Eu2280 Eu 0.50676 0.02672 0.53414 0.0
C2281 C 0.57831 0.06569 0.49426 0.0
N2282 N 0.56551 0.04957 0.48795 0.0
C2283 C 0.56404 0.05711 0.45484 0.0
C2284 C 0.58433 0.07833 0.48093 0.0
C2285 C 0.55854 0.04497 0.46856 0.0
C2286 C 0.57695 0.07389 0.46104 0.0
C2287 C 0.59842 0.08635 0.52112 0.0
C2288 C 0.58523 0.06968 0.51419 0.0
C2289 C 0.6045 0.09893 0.50785 0.0
C2290 C 0.59745 0.09495 0.48784 0.0
Eu2291 Eu 0.55755 0.02999 0.51216 0.0
N2292 N 0.57876 0.05746 0.52683 0.0
C2293 C 0.60514 0.08986 0.54121 0.0
C2294 C 0.58566 0.06052 0.54628 0.0
C2295 C 0.59881 0.07684 0.5538 0.0
H2296 H 0.54893 0.03178 0.46366 0.0
H2297 H 0.60419 0.07929 0.56928 0.0
H2298 H 0.51688 0.02761 0.58296 0.0
H2299 H 0.45764 0.9757 0.48113 0.0
H2300 H 0.58136 0.0503 0.55597 0.0
H2301 H 0.61534 0.10248 0.5471 0.0
H2302 H 0.48042 0.00553 0.4927 0.0
H2303 H 0.55841 0.05348 0.43947 0.0
H2304 H 0.61464 0.1118 0.51292 0.0
H2305 H 0.60226 0.10482 0.47781 0.0
H2306 H 0.51053 0.00637 0.60836 0.0
H2307 H 0.58121 0.08326 0.45036 0.0
H2308 H 0.4493 0.95277 0.50446 0.0
N2309 N 0.50049 0.00834 0.55978 0.0
C2310 C 0.4883 0.99164 0.55456 0.0
C2311 C 0.50428 1.00201 0.59326 0.0
C2312 C 0.48382 0.97927 0.5686 0.0
C2313 C 0.50812 0.01389 0.57884 0.0
C2314 C 0.49216 0.98457 0.58811 0.0
N2315 N 0.48537 0.99881 0.52168 0.0
C2316 C 0.47716 0.99528 0.50269 0.0
C2317 C 0.46743 0.96977 0.5292 0.0
C2318 C 0.48031 0.98685 0.53502 0.0
C2319 C 0.45937 0.9657 0.50951 0.0
C2320 C 0.46412 0.97859 0.49625 0.0
H2321 H 0.48916 0.97542 0.59932 0.0
H2322 H 0.46762 0.95238 0.57335 0.0
H2323 H 0.45315 0.94415 0.53892 0.0
O2324 O 0.48306 0.03953 0.52395 0.0
O2325 O 0.51745 0.9982 0.52921 0.0
O2326 O 0.53474 1.00359 0.50372 0.0
O2327 O 0.49149 0.03998 0.55526 0.0
O2328 O 0.50793 0.03527 0.50385 0.0
O2329 O 0.53043 0.02047 0.49251 0.0
O2330 O 0.5809 0.01533 0.52113 0.0
O2331 O 0.54714 0.05842 0.51627 0.0
O2332 O 0.52824 0.0547 0.54113 0.0
O2333 O 0.57298 0.01871 0.49038 0.0
O2334 O 0.55567 0.02141 0.54265 0.0
O2335 O 0.53407 0.03821 0.55216 0.0
C2336 C 0.52689 0.99188 0.51529 0.0
C2337 C 0.46086 0.04574 0.54603 0.0
C2338 C 0.43504 0.06287 0.54555 0.0
C2339 C 0.4266 0.05121 0.55854 0.0
C2340 C 0.45211 0.03411 0.55886 0.0
C2341 C 0.43502 0.03685 0.56501 0.0
C2342 C 0.45214 0.05998 0.53916 0.0
C2343 C 0.5183 0.03137 0.49018 0.0
C2344 C 0.48016 0.04508 0.54183 0.0
C2345 C 0.4712 0.96209 0.56277 0.0
C2346 C 0.46297 0.95739 0.54315 0.0
C2347 C 0.53754 0.06555 0.52953 0.0
C2348 C 0.59747 1.00111 0.49535 0.0
C2349 C 0.62416 0.9852 0.50006 0.0
C2350 C 0.62151 0.97912 0.47968 0.0
C2351 C 0.59559 0.9951 0.47504 0.0
C2352 C 0.61182 0.99608 0.50793 0.0
C2353 C 0.60748 0.98416 0.46733 0.0
C2354 C 0.54666 0.02827 0.5563 0.0
C2355 C 0.5838 0.01197 0.50279 0.0
H2356 H 0.41363 0.05347 0.56398 0.0
H2357 H 0.45875 0.02331 0.56456 0.0
H2358 H 0.4285 0.02811 0.57522 0.0
H2359 H 0.45911 0.0694 0.52977 0.0
H2360 H 0.63021 0.97022 0.47318 0.0
H2361 H 0.58469 0.99861 0.46499 0.0
H2362 H 0.61348 1.00073 0.52358 0.0
H2363 H 0.60572 0.97944 0.4517 0.0
Eu2364 Eu 0.30637 0.27002 0.77358 0.0
C2365 C 0.23857 0.29866 0.72889 0.0
N2366 N 0.25007 0.30728 0.74543 0.0
C2367 C 0.2521 0.33714 0.73338 0.0
C2368 C 0.23355 0.30916 0.7138 0.0
C2369 C 0.25658 0.32624 0.74805 0.0
C2370 C 0.24055 0.32858 0.71618 0.0
C2371 C 0.22024 0.27003 0.70974 0.0
C2372 C 0.23195 0.27918 0.72685 0.0
C2373 C 0.21507 0.28057 0.69485 0.0
C2374 C 0.22171 0.30003 0.69686 0.0
Eu2375 Eu 0.25516 0.28743 0.76933 0.0
N2376 N 0.23745 0.26913 0.74129 0.0
C2377 C 0.2141 0.25051 0.70807 0.0
C2378 C 0.23132 0.2502 0.73991 0.0
C2379 C 0.21966 0.24057 0.72321 0.0
H2380 H 0.2649 0.33307 0.76161 0.0
H2381 H 0.21484 0.22551 0.72209 0.0
H2382 H 0.30162 0.22443 0.78074 0.0
H2383 H 0.35768 0.32987 0.81238 0.0
H2384 H 0.23525 0.24254 0.75171 0.0
H2385 H 0.20503 0.24299 0.69517 0.0
H2386 H 0.33432 0.31232 0.78501 0.0
H2387 H 0.25737 0.35216 0.73543 0.0
H2388 H 0.20599 0.27377 0.68165 0.0
H2389 H 0.21764 0.30791 0.68518 0.0
H2390 H 0.30948 0.20574 0.80727 0.0
H2391 H 0.23702 0.33711 0.7049 0.0
H2392 H 0.36613 0.31423 0.84136 0.0
N2393 N 0.31539 0.25053 0.79687 0.0
C2394 C 0.32725 0.25924 0.81302 0.0
C2395 C 0.31437 0.22083 0.80921 0.0
C2396 C 0.33255 0.24913 0.82836 0.0
C2397 C 0.30965 0.23148 0.79435 0.0
C2398 C 0.32562 0.22974 0.82645 0.0
N2399 N 0.32944 0.28738 0.79865 0.0
C2400 C 0.33789 0.3055 0.79765 0.0
C2401 C 0.34787 0.28759 0.8298 0.0
C2402 C 0.33479 0.27818 0.81379 0.0
C2403 C 0.35598 0.30649 0.82936 0.0
C2404 C 0.35121 0.31539 0.81304 0.0
H2405 H 0.32933 0.22146 0.83791 0.0
H2406 H 0.34896 0.25113 0.85688 0.0
H2407 H 0.36239 0.28484 0.85813 0.0
O2408 O 0.32755 0.27991 0.75401 0.0
O2409 O 0.29994 0.28556 0.80213 0.0
O2410 O 0.26923 0.2913 0.80086 0.0
O2411 O 0.32214 0.251 0.75921 0.0
O2412 O 0.30191 0.29688 0.76089 0.0
O2413 O 0.28115 0.3108 0.77752 0.0
O2414 O 0.22692 0.27723 0.7776 0.0
O2415 O 0.26867 0.28037 0.74095 0.0
O2416 O 0.28192 0.25684 0.75095 0.0
O2417 O 0.23727 0.30695 0.77853 0.0
O2418 O 0.25666 0.26106 0.78369 0.0
O2419 O 0.28054 0.2463 0.7738 0.0
C2420 C 0.28572 0.29077 0.81042 0.0
C2421 C 0.35263 0.26274 0.75041 0.0
C2422 C 0.38143 0.26607 0.73378 0.0
C2423 C 0.38976 0.25715 0.74846 0.0
C2424 C 0.36161 0.25398 0.76486 0.0
C2425 C 0.37993 0.25113 0.76378 0.0
C2426 C 0.36266 0.26871 0.73471 0.0
C2427 C 0.29704 0.3119 0.7696 0.0
C2428 C 0.33229 0.26363 0.7506 0.0
C2429 C 0.34491 0.2586 0.84483 0.0
C2430 C 0.35259 0.27779 0.84553 0.0
C2431 C 0.27657 0.26587 0.73672 0.0
C2432 C 0.21545 0.29741 0.80113 0.0
C2433 C 0.18862 0.294 0.82074 0.0
C2434 C 0.20003 0.3064 0.83603 0.0
C2435 C 0.22636 0.30965 0.8169 0.0
C2436 C 0.19637 0.28963 0.80309 0.0
C2437 C 0.21858 0.31431 0.83399 0.0
C2438 C 0.26434 0.24613 0.78117 0.0
C2439 C 0.22365 0.29396 0.78235 0.0
H2440 H 0.40382 0.25436 0.74775 0.0
H2441 H 0.35428 0.24888 0.7768 0.0
H2442 H 0.38646 0.24393 0.77473 0.0
H2443 H 0.35579 0.27494 0.72309 0.0
H2444 H 0.19432 0.31053 0.84939 0.0
H2445 H 0.24085 0.31601 0.81587 0.0
H2446 H 0.18754 0.28064 0.79086 0.0
H2447 H 0.22691 0.32439 0.84564 0.0
Eu2448 Eu 0.04032 1.0026 0.52178 0.0
C2449 C 0.01537 0.0732 0.56699 0.0
N2450 N 1.00676 0.0614 0.55073 0.0
C2451 C 0.9769 0.05948 0.56305 0.0
C2452 C 1.00494 0.07849 0.58209 0.0
C2453 C 0.98778 0.05474 0.5484 0.0
C2454 C 0.98551 0.07137 0.57999 0.0
C2455 C 0.04403 0.09208 0.58537 0.0
C2456 C 0.03477 0.07981 0.56868 0.0
C2457 C 0.03363 0.09748 0.60035 0.0
C2458 C 0.01417 0.09065 0.59875 0.0
Eu2459 Eu 0.02641 0.05457 0.52689 0.0
N2460 N 0.04461 0.07394 0.5542 0.0
C2461 C 0.06349 0.09859 0.5865 0.0
C2462 C 0.06345 0.0806 0.55497 0.0
C2463 C 0.07321 0.09292 0.57118 0.0
H2464 H 0.9809 0.04614 0.53506 0.0
H2465 H 0.08819 0.09815 0.57178 0.0
H2466 H 0.0857 0.01021 0.51325 0.0
H2467 H 0.97838 0.95761 0.47859 0.0
H2468 H 0.07096 0.07678 0.54298 0.0
H2469 H 0.0711 0.10812 0.59904 0.0
H2470 H 0.99604 0.97907 0.5071 0.0
H2471 H 0.96186 0.05411 0.56118 0.0
H2472 H 0.04053 0.10689 0.61329 0.0
H2473 H 1.00638 0.09488 0.61048 0.0
H2474 H 0.10443 1.00189 0.48696 0.0
H2475 H 0.97702 0.07507 0.59129 0.0
H2476 H 0.99483 0.94824 0.45055 0.0
N2477 N 0.05962 0.99533 0.49771 0.0
C2478 C 0.0508 0.98361 0.48149 0.0
C2479 C 0.08935 0.99676 0.48518 0.0
C2480 C 0.06104 0.97813 0.4663 0.0
C2481 C 0.07865 1.00169 0.49993 0.0
C2482 C 0.0805 0.98498 0.46825 0.0
N2483 N 0.02187 0.98288 0.49481 0.0
C2484 C 1.00322 0.9756 0.49473 0.0
C2485 C 0.02197 0.96465 0.46356 0.0
C2486 C 0.03143 0.97707 0.48007 0.0
C2487 C 1.00261 0.95786 0.46294 0.0
C2488 C 0.99325 0.96318 0.47871 0.0
H2489 H 0.08885 0.98111 0.45689 0.0
H2490 H 0.05922 0.96159 0.43791 0.0
H2491 H 0.02507 0.9497 0.43558 0.0
O2492 O 0.03071 0.9787 0.53897 0.0
O2493 O 0.03432 0.01496 0.49272 0.0
O2494 O 0.01372 0.03445 0.4995 0.0
O2495 O 0.05903 0.98434 0.53046 0.0
O2496 O 0.01268 1.00503 0.53416 0.0
O2497 O 1.00279 0.02892 0.51897 0.0
O2498 O 0.03592 0.07885 0.51009 0.0
O2499 O 0.032 0.04191 0.55617 0.0
O2500 O 0.05328 0.0246 0.54716 0.0
O2501 O 1.0077 0.07293 0.51881 0.0
O2502 O 0.05419 0.05255 0.51442 0.0
O2503 O 0.06416 0.02816 0.52871 0.0
C2504 C 0.02248 0.02557 0.48692 0.0
C2505 C 0.05225 0.95669 0.54717 0.0
C2506 C 0.04739 0.92989 0.56656 0.0
C2507 C 0.06347 0.92449 0.56003 0.0
C2508 C 0.06836 0.95073 0.54119 0.0
C2509 C 0.07388 0.93487 0.54758 0.0
C2510 C 0.04174 0.9462 0.56017 0.0
C2511 C 0.99927 0.01368 0.52788 0.0
C2512 C 0.04694 0.97353 0.53905 0.0
C2513 C 0.05158 0.96597 0.44972 0.0
C2514 C 0.03213 0.95921 0.44838 0.0
C2515 C 0.0442 0.03128 0.56079 0.0
C2516 C 0.01291 0.09869 0.4993 0.0
C2517 C 0.01765 0.12611 0.48076 0.0
C2518 C 0.99809 0.12513 0.47852 0.0
C2519 C 0.99341 0.09839 0.49664 0.0
C2520 C 0.02516 0.11287 0.49143 0.0
C2521 C 0.98615 0.11148 0.48645 0.0
C2522 C 0.06749 0.04328 0.51952 0.0
C2523 C 0.01947 0.08359 0.50974 0.0
H2524 H 0.06825 0.91233 0.56497 0.0
H2525 H 0.07679 0.95831 0.53136 0.0
H2526 H 0.08637 0.93059 0.54287 0.0
H2527 H 0.02945 0.95062 0.56524 0.0
H2528 H 0.99198 0.1352 0.47077 0.0
H2529 H 0.98356 0.08786 0.50234 0.0
H2530 H 0.04022 0.11345 0.4933 0.0
H2531 H 0.97112 0.11102 0.48463 0.0
Eu2532 Eu 0.28438 0.80315 0.7642 0.0
C2533 C 0.24044 0.73174 0.80377 0.0
N2534 N 0.25683 0.74418 0.81033 0.0
C2535 C 0.24897 0.74566 0.84333 0.0
C2536 C 0.22753 0.72599 0.81699 0.0
C2537 C 0.26144 0.75083 0.82978 0.0
C2538 C 0.23195 0.7332 0.83692 0.0
C2539 C 0.21933 0.71225 0.77668 0.0
C2540 C 0.23641 0.72479 0.7837 0.0
C2541 C 0.20665 0.70633 0.78994 0.0
C2542 C 0.21073 0.71316 0.80999 0.0
Eu2543 Eu 0.27743 0.7488 0.78645 0.0
N2544 N 0.24891 0.73064 0.77103 0.0
C2545 C 0.21544 0.70609 0.75646 0.0
C2546 C 0.24513 0.72501 0.75135 0.0
C2547 C 0.22831 0.71262 0.74374 0.0
H2548 H 0.27495 0.75952 0.83504 0.0
H2549 H 0.22533 0.70802 0.72809 0.0
H2550 H 0.27763 0.80382 0.71442 0.0
H2551 H 0.33875 0.84875 0.81734 0.0
H2552 H 0.25507 0.73 0.74159 0.0
H2553 H 0.20248 0.69641 0.75051 0.0
H2554 H 0.30842 0.82726 0.8061 0.0
H2555 H 0.25268 0.75098 0.85877 0.0
H2556 H 0.19355 0.69653 0.78481 0.0
H2557 H 0.20075 0.70847 0.81998 0.0
H2558 H 0.29671 0.81367 0.68816 0.0
H2559 H 0.22241 0.72906 0.84752 0.0
H2560 H 0.36049 0.85831 0.79313 0.0
N2561 N 0.29997 0.81424 0.73759 0.0
C2562 C 0.31757 0.82486 0.74267 0.0
C2563 C 0.30278 0.81681 0.70343 0.0
C2564 C 0.3288 0.83112 0.72816 0.0
C2565 C 0.29206 0.81121 0.71834 0.0
C2566 C 0.32136 0.8265 0.70834 0.0
N2567 N 0.31266 0.82475 0.77612 0.0
C2568 C 0.31763 0.83145 0.79552 0.0
C2569 C 0.34167 0.84249 0.76818 0.0
C2570 C 0.32398 0.83047 0.76246 0.0
C2571 C 0.34709 0.84894 0.78817 0.0
C2572 C 0.33487 0.8436 0.80187 0.0
H2573 H 0.32961 0.8309 0.69676 0.0
H2574 H 0.35573 0.84698 0.72289 0.0
H2575 H 0.36695 0.85702 0.75795 0.0
O2576 O 0.27684 0.82874 0.77817 0.0
O2577 O 0.31232 0.79433 0.77607 0.0
O2578 O 0.30808 0.76321 0.78448 0.0
O2579 O 0.26326 0.81608 0.74929 0.0
O2580 O 0.27687 0.79344 0.79332 0.0
O2581 O 0.29116 0.77279 0.80861 0.0
O2582 O 0.28399 0.72159 0.77593 0.0
O2583 O 0.25173 0.76319 0.78325 0.0
O2584 O 0.25564 0.78157 0.75743 0.0
O2585 O 0.28751 0.73139 0.8072 0.0
O2586 O 0.2828 0.76373 0.76086 0.0
O2587 O 0.28625 0.78232 0.73856 0.0
C2588 C 0.31882 0.77941 0.78156 0.0
C2589 C 0.26429 0.84843 0.75696 0.0
C2590 C 0.24811 0.87471 0.75495 0.0
C2591 C 0.25979 0.88143 0.74111 0.0
C2592 C 0.27598 0.85544 0.74327 0.0
C2593 C 0.27373 0.87191 0.73544 0.0
C2594 C 0.25051 0.85826 0.76298 0.0
C2595 C 0.28831 0.78994 0.80791 0.0
C2596 C 0.2647 0.82987 0.76329 0.0
C2597 C 0.34683 0.84227 0.73384 0.0
C2598 C 0.35322 0.848 0.7538 0.0
C2599 C 0.2449 0.77262 0.76954 0.0
C2600 C 0.3083 0.71238 0.79635 0.0
C2601 C 0.32611 0.68732 0.79283 0.0
C2602 C 0.34147 0.69881 0.8049 0.0
C2603 C 0.3239 0.72376 0.80833 0.0
C2604 C 0.30952 0.69413 0.78854 0.0
C2605 C 0.34037 0.71697 0.81256 0.0
C2606 C 0.28611 0.76554 0.74291 0.0
C2607 C 0.2902 0.71866 0.79359 0.0
H2608 H 0.25791 0.89392 0.73449 0.0
H2609 H 0.28648 0.84794 0.73827 0.0
H2610 H 0.28255 0.8771 0.72463 0.0
H2611 H 0.2411 0.85264 0.77314 0.0
H2612 H 0.35414 0.69352 0.80881 0.0
H2613 H 0.3232 0.73771 0.81486 0.0
H2614 H 0.29742 0.68504 0.77977 0.0
H2615 H 0.35216 0.72566 0.82213 0.0
Eu2616 Eu 0.53133 0.04329 0.99764 0.0
C2617 C 0.57228 1.00292 0.07434 0.0
N2618 N 0.5575 0.99555 0.06033 0.0
C2619 C 0.56758 0.96599 0.05758 0.0
C2620 C 0.5856 0.99213 0.08019 0.0
C2621 C 0.55479 0.97726 0.05218 0.0
C2622 C 0.58313 0.9735 0.07154 0.0
C2623 C 0.58953 0.02954 0.09716 0.0
C2624 C 0.57417 0.02137 0.08281 0.0
C2625 C 0.60293 0.01891 0.10283 0.0
C2626 C 0.60096 1.00025 0.0944 0.0
Eu2627 Eu 0.53748 0.01604 0.05081 0.0
N2628 N 0.56128 0.03151 0.07655 0.0
C2629 C 0.59106 0.04821 0.10527 0.0
C2630 C 0.56242 0.04956 0.08493 0.0
C2631 C 0.57735 0.05819 0.09925 0.0
H2632 H 0.54265 0.97125 0.04161 0.0
H2633 H 0.5783 0.07259 0.10558 0.0
H2634 H 0.5233 0.0866 0.00681 0.0
H2635 H 0.49461 0.98702 0.93968 0.0
H2636 H 0.55204 0.05754 0.08063 0.0
H2637 H 0.60269 0.05501 0.11626 0.0
H2638 H 0.52064 1.00335 0.96397 0.0
H2639 H 0.56543 0.95153 0.05096 0.0
H2640 H 0.61487 0.02499 0.11375 0.0
H2641 H 0.61139 0.99221 0.09897 0.0
H2642 H 0.49872 0.10469 0.99859 0.0
H2643 H 0.59306 0.96476 0.07563 0.0
H2644 H 0.46707 1.00154 0.93205 0.0
N2645 N 0.50909 0.06173 0.98889 0.0
C2646 C 0.49408 0.05348 0.97562 0.0
C2647 C 0.49713 0.09024 0.99213 0.0
C2648 C 0.47963 0.06322 0.97042 0.0
C2649 C 0.51099 0.07993 0.99691 0.0
C2650 C 0.48127 0.08178 0.97897 0.0
N2651 N 0.5081 0.02689 0.97154 0.0
C2652 C 0.50884 0.00996 0.96142 0.0
C2653 C 0.47826 0.02663 0.9525 0.0
C2654 C 0.49349 0.03547 0.96676 0.0
C2655 C 0.47851 0.00882 0.94304 0.0
C2656 C 0.49401 1.00059 0.94731 0.0
H2657 H 0.47053 0.08977 0.97528 0.0
H2658 H 0.4529 0.06147 0.95263 0.0
H2659 H 0.45164 0.02934 0.93699 0.0
O2660 O 0.55336 0.04215 0.97913 0.0
O2661 O 0.50504 0.03426 0.01096 0.0
O2662 O 0.51727 0.01133 0.02326 0.0
O2663 O 0.54789 0.06928 0.99016 0.0
O2664 O 0.53902 0.01401 0.99373 0.0
O2665 O 0.54009 0.99726 0.02147 0.0
O2666 O 0.51759 0.01973 0.07192 0.0
O2667 O 0.56597 0.03087 0.04593 0.0
O2668 O 0.54571 0.03575 0.02344 0.0
O2669 O 0.52157 0.99139 0.06143 0.0
O2670 O 0.52868 0.04575 0.05357 0.0
O2671 O 0.53598 0.06278 0.02687 0.0
C2672 C 0.50343 0.02019 0.02139 0.0
C2673 C 0.55813 0.06526 0.95866 0.0
C2674 C 0.57196 0.06108 0.92852 0.0
C2675 C 0.55934 0.07074 0.91918 0.0
C2676 C 0.5454 0.07493 0.94944 0.0
C2677 C 0.54613 0.07774 0.9297 0.0
C2678 C 0.57143 0.05853 0.94818 0.0
C2679 C 0.54157 0.99889 0.00234 0.0
C2680 C 0.55704 0.06018 0.97845 0.0
C2681 C 0.46421 0.05427 0.95668 0.0
C2682 C 0.46349 0.03598 0.94779 0.0
C2683 C 0.56325 0.03824 0.0301 0.0
C2684 C 0.49883 0.9936 0.08435 0.0
C2685 C 0.48594 0.9943 0.11533 0.0
C2686 C 0.47316 0.9775 0.10829 0.0
C2687 C 0.48615 0.97674 0.07734 0.0
C2688 C 0.4985 1.00254 0.10324 0.0
C2689 C 0.47319 0.96882 0.08927 0.0
C2690 C 0.5313 0.06168 0.04508 0.0
C2691 C 0.51276 1.00168 0.07226 0.0
H2692 H 0.56 0.07316 0.90396 0.0
H2693 H 0.53484 0.08005 0.95732 0.0
H2694 H 0.53646 0.08529 0.92255 0.0
H2695 H 0.58129 0.05106 0.9553 0.0
H2696 H 0.46344 0.97095 0.11767 0.0
H2697 H 0.48626 0.96975 0.06269 0.0
H2698 H 0.50853 0.0154 0.10883 0.0
H2699 H 0.4634 0.95581 0.0839 0.0
Eu2700 Eu 0.27273 0.25401 0.2617 0.0
C2701 C 0.33609 0.32192 0.30807 0.0
N2702 N 0.31962 0.31214 0.31265 0.0
C2703 C 0.33208 0.3165 0.34679 0.0
C2704 C 0.35107 0.32986 0.32294 0.0
C2705 C 0.31745 0.30932 0.33166 0.0
C2706 C 0.3489 0.32697 0.34245 0.0
C2707 C 0.35478 0.33464 0.28343 0.0
C2708 C 0.33796 0.3242 0.28845 0.0
C2709 C 0.36944 0.34304 0.29829 0.0
C2710 C 0.36762 0.3406 0.31797 0.0
Eu2711 Eu 0.29481 0.30497 0.28652 0.0
N2712 N 0.32346 0.31612 0.27431 0.0
C2713 C 0.35636 0.33644 0.26358 0.0
C2714 C 0.32518 0.31742 0.25495 0.0
C2715 C 0.34158 0.3276 0.24928 0.0
H2716 H 0.3042 0.30242 0.3354 0.0
H2717 H 0.34276 0.32867 0.23386 0.0
H2718 H 0.26283 0.25289 0.21288 0.0
H2719 H 0.22901 0.2206 0.3135 0.0
H2720 H 0.31408 0.31058 0.24384 0.0
H2721 H 0.369 0.34443 0.25915 0.0
H2722 H 0.25763 0.23762 0.30277 0.0
H2723 H 0.33018 0.31439 0.36186 0.0
H2724 H 0.38232 0.35135 0.29471 0.0
H2725 H 0.37912 0.34706 0.32926 0.0
H2726 H 0.23598 0.24263 0.18693 0.0
H2727 H 0.36008 0.33285 0.35427 0.0
H2728 H 0.20024 0.21004 0.28977 0.0
N2729 N 0.24718 0.24561 0.23615 0.0
C2730 C 0.2307 0.23621 0.24106 0.0
C2731 C 0.23414 0.2411 0.20214 0.0
C2732 C 0.21515 0.22908 0.22657 0.0
C2733 C 0.2492 0.24763 0.21694 0.0
C2734 C 0.21697 0.23189 0.20698 0.0
N2735 N 0.24514 0.2391 0.27394 0.0
C2736 C 0.24508 0.23437 0.29261 0.0
C2737 C 0.21302 0.2222 0.26575 0.0
C2738 C 0.22967 0.23278 0.26045 0.0
C2739 C 0.2127 0.21821 0.28517 0.0
C2740 C 0.22886 0.22421 0.29862 0.0
H2741 H 0.20542 0.22648 0.19543 0.0
H2742 H 0.18651 0.21314 0.22093 0.0
H2743 H 0.18464 0.20716 0.25523 0.0
O2744 O 0.28307 0.22908 0.27044 0.0
O2745 O 0.24949 0.27108 0.26818 0.0
O2746 O 0.2645 0.29463 0.29278 0.0
O2747 O 0.2727 0.23065 0.23973 0.0
O2748 O 0.28562 0.25741 0.29443 0.0
O2749 O 0.28148 0.28646 0.30721 0.0
O2750 O 0.28925 0.33123 0.27686 0.0
O2751 O 0.31599 0.28533 0.28261 0.0
O2752 O 0.30258 0.26602 0.25449 0.0
O2753 O 0.29649 0.32944 0.30784 0.0
O2754 O 0.27827 0.30172 0.25616 0.0
O2755 O 0.28247 0.27424 0.23982 0.0
C2756 C 0.2489 0.28453 0.28245 0.0
C2757 C 0.28273 0.20215 0.24594 0.0
C2758 C 0.29966 0.1772 0.25086 0.0
C2759 C 0.29245 0.16837 0.23183 0.0
C2760 C 0.27536 0.19318 0.22693 0.0
C2761 C 0.28016 0.17628 0.21998 0.0
C2762 C 0.29455 0.19387 0.25805 0.0
C2763 C 0.28313 0.26922 0.30941 0.0
C2764 C 0.27951 0.22088 0.2523 0.0
C2765 C 0.19852 0.21881 0.23189 0.0
C2766 C 0.19746 0.2154 0.25142 0.0
C2767 C 0.31755 0.27383 0.26707 0.0
C2768 C 0.27586 0.34948 0.29975 0.0
C2769 C 0.26074 0.37581 0.29545 0.0
C2770 C 0.24975 0.37123 0.31051 0.0
C2771 C 0.26519 0.34514 0.31521 0.0
C2772 C 0.27334 0.36466 0.28973 0.0
C2773 C 0.25184 0.35573 0.32022 0.0
C2774 C 0.27994 0.29161 0.2398 0.0
C2775 C 0.29079 0.33951 0.29483 0.0
H2776 H 0.29637 0.1554 0.2262 0.0
H2777 H 0.26617 0.19938 0.21732 0.0
H2778 H 0.27461 0.16949 0.2053 0.0
H2779 H 0.30048 0.20076 0.27264 0.0
H2780 H 0.24015 0.38003 0.3152 0.0
H2781 H 0.26752 0.33394 0.32375 0.0
H2782 H 0.28209 0.36855 0.27834 0.0
H2783 H 0.24366 0.35237 0.33214 0.0
Eu2784 Eu 0.54131 0.50301 0.02295 0.0
C2785 C 0.51282 0.57403 0.06384 0.0
N2786 N 0.50434 0.56059 0.04884 0.0
C2787 C 0.47494 0.55829 0.06218 0.0
C2788 C 0.50257 0.57997 0.07882 0.0
C2789 C 0.48562 0.5529 0.04761 0.0
C2790 C 0.48345 0.57186 0.07787 0.0
C2791 C 0.54122 0.59508 0.08029 0.0
C2792 C 0.53203 0.58144 0.06462 0.0
C2793 C 0.53095 0.60116 0.09507 0.0
C2794 C 0.51172 0.5936 0.09437 0.0
Eu2795 Eu 0.52366 0.55314 0.02496 0.0
N2796 N 0.54187 0.57467 0.05063 0.0
C2797 C 0.56054 0.60202 0.0808 0.0
C2798 C 0.56053 0.58187 0.05067 0.0
C2799 C 0.5702 0.59547 0.06586 0.0
H2800 H 0.47876 0.54287 0.03523 0.0
H2801 H 0.58506 0.60103 0.06592 0.0
H2802 H 0.58705 0.51277 0.0148 0.0
H2803 H 0.4818 0.45429 0.98046 0.0
H2804 H 0.56794 0.57757 0.03881 0.0
H2805 H 0.5681 0.61251 0.09259 0.0
H2806 H 0.49904 0.47575 0.00935 0.0
H2807 H 0.46013 0.55208 0.06121 0.0
H2808 H 0.5378 0.61159 0.10723 0.0
H2809 H 0.50405 0.59831 0.106 0.0
H2810 H 0.6061 0.50609 0.98828 0.0
H2811 H 0.47512 0.576 0.08913 0.0
H2812 H 0.49828 0.44744 0.95161 0.0
N2813 N 0.56128 0.49737 0.99893 0.0
C2814 C 0.55286 0.48566 0.98248 0.0
C2815 C 0.59112 0.50038 0.9864 0.0
C2816 C 0.56335 0.4811 0.96716 0.0
C2817 C 0.58021 0.50439 0.0013 0.0
C2818 C 0.58265 0.48877 0.96922 0.0
N2819 N 0.52378 0.48289 0.99587 0.0
C2820 C 0.50577 0.47384 0.99629 0.0
C2821 C 0.5247 0.46546 0.96443 0.0
C2822 C 0.53365 0.47809 0.98099 0.0
C2823 C 0.50565 0.45728 0.96402 0.0
C2824 C 0.49624 0.46123 0.9802 0.0
H2825 H 0.59119 0.48561 0.95777 0.0
H2826 H 0.56216 0.46528 0.93849 0.0
H2827 H 0.52841 0.45149 0.93617 0.0
O2828 O 0.53146 0.47835 0.03826 0.0
O2829 O 0.53494 0.51513 0.9937 0.0
O2830 O 0.51154 0.53166 0.99864 0.0
O2831 O 0.5595 0.48328 0.02982 0.0
O2832 O 0.51302 0.50466 0.03472 0.0
O2833 O 0.50076 0.52691 0.01867 0.0
O2834 O 0.53252 0.57719 0.00777 0.0
O2835 O 0.53057 0.54209 0.05464 0.0
O2836 O 0.55187 0.52212 0.05151 0.0
O2837 O 0.5039 0.57005 0.01524 0.0
O2838 O 0.55075 0.55003 0.01254 0.0
O2839 O 0.56477 0.52942 0.02951 0.0
C2840 C 0.52145 0.52344 0.98687 0.0
C2841 C 0.55386 0.46178 0.05386 0.0
C2842 C 0.55053 0.43376 0.07164 0.0
C2843 C 0.56897 0.4403 0.08095 0.0
C2844 C 0.57224 0.46779 0.06362 0.0
C2845 C 0.5797 0.45709 0.07693 0.0
C2846 C 0.54301 0.44452 0.05787 0.0
C2847 C 0.4987 0.51214 0.02834 0.0
C2848 C 0.54708 0.4721 0.03775 0.0
C2849 C 0.55433 0.46892 0.9504 0.0
C2850 C 0.53508 0.46109 0.94906 0.0
C2851 C 0.54255 0.53229 0.06231 0.0
C2852 C 0.50939 0.5967 0.99661 0.0
C2853 C 0.51419 0.62505 0.97928 0.0
C2854 C 0.49491 0.62529 0.97926 0.0
C2855 C 0.49025 0.59779 0.99619 0.0
C2856 C 0.52145 0.6104 0.98782 0.0
C2857 C 0.48315 0.61185 0.98758 0.0
C2858 C 0.56581 0.54409 0.01953 0.0
C2859 C 0.51573 0.58122 0.00668 0.0
H2860 H 0.57528 0.43211 0.09107 0.0
H2861 H 0.58109 0.48058 0.0606 0.0
H2862 H 0.59402 0.4617 0.08398 0.0
H2863 H 0.52903 0.43933 0.05005 0.0
H2864 H 0.48876 0.63589 0.9725 0.0
H2865 H 0.48052 0.58769 0.00258 0.0
H2866 H 0.53623 0.60987 0.98792 0.0
H2867 H 0.46835 0.61233 0.98736 0.0
Eu2868 Eu 0.78421 0.30328 0.26477 0.0
C2869 C 0.74236 0.23386 0.30518 0.0
N2870 N 0.75842 0.24707 0.31054 0.0
C2871 C 0.75199 0.24979 0.34406 0.0
C2872 C 0.73044 0.22815 0.31931 0.0
C2873 C 0.76347 0.25493 0.32964 0.0
C2874 C 0.73543 0.23632 0.3389 0.0
C2875 C 0.72105 0.21248 0.27963 0.0
C2876 C 0.73774 0.22597 0.28546 0.0
C2877 C 0.70934 0.20662 0.29378 0.0
C2878 C 0.71403 0.2144 0.31352 0.0
Eu2879 Eu 0.77815 0.25076 0.28571 0.0
N2880 N 0.74933 0.23174 0.27196 0.0
C2881 C 0.71659 0.20526 0.2597 0.0
C2882 C 0.74503 0.22493 0.25254 0.0
C2883 C 0.72855 0.21162 0.2461 0.0
H2884 H 0.77674 0.2645 0.33404 0.0
H2885 H 0.72517 0.20615 0.23067 0.0
H2886 H 0.77914 0.30196 0.21534 0.0
H2887 H 0.83441 0.35248 0.31892 0.0
H2888 H 0.75429 0.22963 0.24203 0.0
H2889 H 0.70389 0.19484 0.25466 0.0
H2890 H 0.8046 0.33026 0.30664 0.0
H2891 H 0.75612 0.25593 0.35923 0.0
H2892 H 0.69656 0.19612 0.28958 0.0
H2893 H 0.70481 0.20974 0.32422 0.0
H2894 H 0.79818 0.31328 0.1895 0.0
H2895 H 0.72668 0.23222 0.35018 0.0
H2896 H 0.85727 0.36212 0.29575 0.0
N2897 N 0.80012 0.315 0.23889 0.0
C2898 C 0.81706 0.32673 0.24433 0.0
C2899 C 0.80369 0.31709 0.20487 0.0
C2900 C 0.82847 0.33336 0.23014 0.0
C2901 C 0.79294 0.31076 0.21952 0.0
C2902 C 0.8217 0.32812 0.2102 0.0
N2903 N 0.81092 0.3267 0.27734 0.0
C2904 C 0.8146 0.33415 0.29662 0.0
C2905 C 0.83975 0.34557 0.27034 0.0
C2906 C 0.82259 0.33286 0.26414 0.0
C2907 C 0.84422 0.35232 0.29038 0.0
C2908 C 0.83139 0.34688 0.30351 0.0
H2909 H 0.83005 0.33289 0.19884 0.0
H2910 H 0.85517 0.35024 0.22563 0.0
H2911 H 0.86508 0.36087 0.26087 0.0
O2912 O 0.77184 0.32635 0.27759 0.0
O2913 O 0.81337 0.29717 0.27613 0.0
O2914 O 0.80807 0.2661 0.28333 0.0
O2915 O 0.76412 0.31512 0.24689 0.0
O2916 O 0.77561 0.29511 0.29355 0.0
O2917 O 0.79279 0.27549 0.30643 0.0
O2918 O 0.78647 0.22337 0.27787 0.0
O2919 O 0.75164 0.26388 0.28076 0.0
O2920 O 0.75909 0.27902 0.25441 0.0
O2921 O 0.7867 0.23446 0.30822 0.0
O2922 O 0.7848 0.25131 0.25483 0.0
O2923 O 0.78735 0.28032 0.24211 0.0
C2924 C 0.81945 0.28189 0.28075 0.0
C2925 C 0.76192 0.34671 0.25541 0.0
C2926 C 0.7465 0.37364 0.25566 0.0
C2927 C 0.75768 0.38075 0.24163 0.0
C2928 C 0.77316 0.35412 0.2415 0.0
C2929 C 0.77102 0.37108 0.23468 0.0
C2930 C 0.7487 0.35665 0.2626 0.0
C2931 C 0.78767 0.29169 0.30733 0.0
C2932 C 0.76227 0.32779 0.26092 0.0
C2933 C 0.84604 0.34529 0.23629 0.0
C2934 C 0.85168 0.35136 0.25636 0.0
C2935 C 0.74642 0.27231 0.26565 0.0
C2936 C 0.80496 0.2109 0.30317 0.0
C2937 C 0.82299 0.18573 0.29855 0.0
C2938 C 0.82899 0.18859 0.31892 0.0
C2939 C 0.81125 0.21316 0.32348 0.0
C2940 C 0.81104 0.19714 0.29066 0.0
C2941 C 0.82314 0.20212 0.33121 0.0
C2942 C 0.7883 0.26243 0.24119 0.0
C2943 C 0.78976 0.22069 0.29626 0.0
H2944 H 0.75583 0.39363 0.2358 0.0
H2945 H 0.78324 0.3466 0.23555 0.0
H2946 H 0.77946 0.37654 0.22369 0.0
H2947 H 0.73961 0.3508 0.27293 0.0
H2948 H 0.83833 0.18032 0.32547 0.0
H2949 H 0.80652 0.2231 0.33366 0.0
H2950 H 0.8059 0.19478 0.2751 0.0
H2951 H 0.82764 0.20389 0.34688 0.0
Eu2952 Eu 0.03067 0.54451 0.49891 0.0
C2953 C 0.06658 0.49913 0.5726 0.0
N2954 N 0.05179 0.49192 0.55862 0.0
C2955 C 0.06139 0.46214 0.55588 0.0
C2956 C 0.07952 0.48802 0.57873 0.0
C2957 C 0.04895 0.47369 0.5503 0.0
C2958 C 0.07676 0.46934 0.57015 0.0
C2959 C 0.08491 0.52591 0.59431 0.0
C2960 C 0.0692 0.51784 0.58027 0.0
C2961 C 0.09756 0.5148 0.60077 0.0
C2962 C 0.09492 0.49592 0.59293 0.0
Eu2963 Eu 0.03217 0.51234 0.54835 0.0
N2964 N 0.05697 0.52837 0.57332 0.0
C2965 C 0.08783 0.54505 0.60106 0.0
C2966 C 0.06022 0.54724 0.57963 0.0
C2967 C 0.07548 0.55576 0.59359 0.0
H2968 H 0.03708 0.46804 0.53927 0.0
H2969 H 0.07783 0.5707 0.59836 0.0
H2970 H 0.02312 0.58806 0.50879 0.0
H2971 H 0.98993 0.48602 0.44534 0.0
H2972 H 0.05165 0.55625 0.57384 0.0
H2973 H 0.09978 0.55176 0.61171 0.0
H2974 H 0.01538 0.5012 0.47045 0.0
H2975 H 0.05915 0.44772 0.54912 0.0
H2976 H 0.10968 0.52079 0.6115 0.0
H2977 H 0.105 0.48761 0.59779 0.0
H2978 H 1.00021 0.60727 0.49825 0.0
H2979 H 0.08644 0.4604 0.57437 0.0
H2980 H 0.9666 0.50375 0.43248 0.0
N2981 N 0.01032 0.56422 0.48841 0.0
C2982 C 0.99645 0.55673 0.47344 0.0
C2983 C 0.99895 0.59306 0.4912 0.0
C2984 C 0.98292 0.56713 0.46712 0.0
C2985 C 0.01181 0.58213 0.49724 0.0
C2986 C 0.98439 0.58551 0.47614 0.0
N2987 N 1.00755 0.52806 0.47255 0.0
C2988 C 1.00586 0.50958 0.46523 0.0
C2989 C 0.97989 0.52971 0.45068 0.0
C2990 C 0.99506 0.53821 0.46517 0.0
C2991 C 0.97813 0.51079 0.44347 0.0
C2992 C 0.99122 0.50073 0.45074 0.0
H2993 H 0.97427 0.59393 0.47169 0.0
H2994 H 0.95749 0.56651 0.44757 0.0
H2995 H 0.95476 0.53374 0.43331 0.0
O2996 O 0.05358 0.5436 0.48123 0.0
O2997 O 1.00107 0.53296 0.50292 0.0
O2998 O 0.01895 0.52203 0.52314 0.0
O2999 O 0.04504 0.57008 0.48865 0.0
O3000 O 0.03958 0.51525 0.4949 0.0
O3001 O 0.03143 0.49441 0.51832 0.0
O3002 O 0.0122 0.51318 0.56904 0.0
O3003 O 0.05953 0.52097 0.53787 0.0
O3004 O 0.04916 0.54573 0.52737 0.0
O3005 O 0.01199 0.48669 0.55146 0.0
O3006 O 0.02436 0.54177 0.55405 0.0
O3007 O 0.02886 0.56175 0.52904 0.0
C3008 C 1.00187 0.52293 0.51696 0.0
C3009 C 0.05653 0.56485 0.45799 0.0
C3010 C 0.0705 0.55922 0.42814 0.0
C3011 C 0.05994 0.57084 0.41891 0.0
C3012 C 0.04601 0.57664 0.44887 0.0
C3013 C 0.04777 0.5796 0.42933 0.0
C3014 C 0.06884 0.55634 0.44758 0.0
C3015 C 0.03779 0.49829 0.50131 0.0
C3016 C 0.05536 0.56116 0.47831 0.0
C3017 C 0.96807 0.55877 0.45246 0.0
C3018 C 0.96653 0.54011 0.44431 0.0
C3019 C 0.06243 0.53603 0.52912 0.0
C3020 C 1.00066 0.48603 0.58292 0.0
C3021 C 0.99002 0.48855 0.61528 0.0
C3022 C 0.9869 0.46883 0.61445 0.0
C3023 C 0.9976 0.46642 0.58229 0.0
C3024 C 0.99728 0.49696 0.59965 0.0
C3025 C 0.99093 0.45791 0.59816 0.0
C3026 C 0.02447 0.5583 0.54701 0.0
C3027 C 1.00489 0.49531 0.56557 0.0
H3028 H 0.06156 0.57354 0.40392 0.0
H3029 H 0.03654 0.58356 0.45677 0.0
H3030 H 0.03985 0.58882 0.42233 0.0
H3031 H 0.07734 0.54757 0.45468 0.0
H3032 H 0.98079 0.46175 0.62604 0.0
H3033 H 0.99988 0.45769 0.5694 0.0
H3034 H 0.99972 0.51213 0.60025 0.0
H3035 H 0.9883 0.44276 0.59757 0.0
Eu3036 Eu 0.80648 0.77016 0.27581 0.0
C3037 C 0.73783 0.79694 0.22925 0.0
N3038 N 0.74908 0.80573 0.24583 0.0
C3039 C 0.75024 0.83556 0.23388 0.0
C3040 C 0.73225 0.80733 0.2143 0.0
C3041 C 0.75518 0.82475 0.24847 0.0
C3042 C 0.73872 0.82683 0.21674 0.0
C3043 C 0.71989 0.76808 0.21034 0.0
C3044 C 0.7319 0.77744 0.22717 0.0
C3045 C 0.71417 0.77845 0.19553 0.0
C3046 C 0.7204 0.79798 0.19746 0.0
Eu3047 Eu 0.75577 0.78607 0.26946 0.0
N3048 N 0.73798 0.76763 0.24153 0.0
C3049 C 0.71383 0.74857 0.20901 0.0
C3050 C 0.73161 0.74877 0.24067 0.0
C3051 C 0.71959 0.73891 0.22431 0.0
H3052 H 0.76357 0.83169 0.26195 0.0
H3053 H 0.71466 0.7239 0.22358 0.0
H3054 H 0.79795 0.72464 0.28426 0.0
H3055 H 0.85301 0.831 0.31887 0.0
H3056 H 0.73553 0.74136 0.25269 0.0
H3057 H 0.7045 0.74088 0.19636 0.0
H3058 H 0.83167 0.81349 0.29016 0.0
H3059 H 0.75516 0.85064 0.23596 0.0
H3060 H 0.70491 0.77149 0.18252 0.0
H3061 H 0.71589 0.80575 0.18587 0.0
H3062 H 0.80584 0.70584 0.31049 0.0
H3063 H 0.73479 0.83529 0.20554 0.0
H3064 H 0.86153 0.8145 0.34714 0.0
N3065 N 0.81306 0.75061 0.29993 0.0
C3066 C 0.82483 0.75922 0.31623 0.0
C3067 C 0.81115 0.72086 0.31236 0.0
C3068 C 0.83004 0.74889 0.33141 0.0
C3069 C 0.80647 0.73164 0.29763 0.0
C3070 C 0.82292 0.72952 0.32936 0.0
N3071 N 0.8266 0.78807 0.30281 0.0
C3072 C 0.83448 0.80649 0.30279 0.0
C3073 C 0.84445 0.78769 0.33417 0.0
C3074 C 0.83191 0.77844 0.31765 0.0
C3075 C 0.85178 0.8069 0.33475 0.0
C3076 C 0.84693 0.81629 0.31888 0.0
H3077 H 0.82662 0.7211 0.34069 0.0
H3078 H 0.84647 0.75041 0.35981 0.0
H3079 H 0.85912 0.78433 0.3622 0.0
O3080 O 0.83042 0.77932 0.25849 0.0
O3081 O 0.79477 0.77904 0.30495 0.0
O3082 O 0.77577 0.79971 0.29635 0.0
O3083 O 0.82518 0.75146 0.26794 0.0
O3084 O 0.80487 0.79784 0.26282 0.0
O3085 O 0.78119 0.80995 0.27672 0.0
O3086 O 0.73104 0.77431 0.2835 0.0
O3087 O 0.76926 0.77952 0.24124 0.0
O3088 O 0.7855 0.75693 0.24947 0.0
O3089 O 0.73486 0.80288 0.27696 0.0
O3090 O 0.75904 0.76059 0.2849 0.0
O3091 O 0.7805 0.7463 0.26996 0.0
C3092 C 0.78483 0.79195 0.30977 0.0
C3093 C 0.85232 0.75774 0.24994 0.0
C3094 C 0.88008 0.7632 0.23168 0.0
C3095 C 0.88361 0.74557 0.23556 0.0
C3096 C 0.8565 0.74014 0.25322 0.0
C3097 C 0.8719 0.73416 0.24609 0.0
C3098 C 0.86417 0.7693 0.23879 0.0
C3099 C 0.79708 0.81212 0.2687 0.0
C3100 C 0.83579 0.76324 0.25883 0.0
C3101 C 0.84232 0.75813 0.34802 0.0
C3102 C 0.84951 0.77746 0.34938 0.0
C3103 C 0.77849 0.76622 0.23621 0.0
C3104 C 0.71614 0.79518 0.30277 0.0
C3105 C 0.68929 0.79408 0.32221 0.0
C3106 C 0.70074 0.80764 0.33649 0.0
C3107 C 0.72703 0.80877 0.31736 0.0
C3108 C 0.69711 0.78782 0.30524 0.0
C3109 C 0.7194 0.81488 0.33409 0.0
C3110 C 0.76554 0.74548 0.27942 0.0
C3111 C 0.72425 0.78966 0.28449 0.0
H3112 H 0.8954 0.74042 0.23008 0.0
H3113 H 0.84787 0.73082 0.2615 0.0
H3114 H 0.87478 0.72055 0.24876 0.0
H3115 H 0.86121 0.78283 0.23586 0.0
H3116 H 0.69502 0.81303 0.34935 0.0
H3117 H 0.74136 0.81495 0.31561 0.0
H3118 H 0.68833 0.77775 0.29382 0.0
H3119 H 0.7279 0.82557 0.34509 0.0
Eu3120 Eu 0.76828 0.27836 0.7991 0.0
C3121 C 0.80754 0.24297 0.72659 0.0
N3122 N 0.81529 0.25653 0.74169 0.0
C3123 C 0.84252 0.24248 0.74614 0.0
C3124 C 0.81682 0.22821 0.72107 0.0
C3125 C 0.83275 0.25672 0.75118 0.0
C3126 C 0.83443 0.22803 0.73118 0.0
C3127 C 0.78226 0.23031 0.70028 0.0
C3128 C 0.79044 0.24401 0.71638 0.0
C3129 C 0.79114 0.21528 0.69519 0.0
C3130 C 0.80838 0.21423 0.70557 0.0
Eu3131 Eu 0.79713 0.27926 0.75046 0.0
N3132 N 0.78179 0.25836 0.7221 0.0
C3133 C 0.76528 0.23202 0.68987 0.0
C3134 C 0.7658 0.26063 0.71115 0.0
C3135 C 0.75717 0.24737 0.69517 0.0
H3136 H 0.83938 0.26796 0.76254 0.0
H3137 H 0.7443 0.24911 0.68686 0.0
H3138 H 0.72571 0.2881 0.78688 0.0
H3139 H 0.82699 0.318 0.85229 0.0
H3140 H 0.75965 0.27274 0.71421 0.0
H3141 H 0.7585 0.22173 0.67755 0.0
H3142 H 0.81006 0.2914 0.82852 0.0
H3143 H 0.85632 0.24269 0.75378 0.0
H3144 H 0.78487 0.20449 0.68314 0.0
H3145 H 0.81519 0.20268 0.70132 0.0
H3146 H 0.70758 0.31254 0.7957 0.0
H3147 H 0.84203 0.217 0.72732 0.0
H3148 H 0.81126 0.34419 0.86201 0.0
N3149 N 0.7499 0.30104 0.80688 0.0
C3150 C 0.75799 0.31571 0.82076 0.0
C3151 C 0.72175 0.31361 0.80284 0.0
C3152 C 0.74816 0.33001 0.82618 0.0
C3153 C 0.73208 0.29983 0.79783 0.0
C3154 C 0.7298 0.32875 0.81709 0.0
N3155 N 0.78574 0.303 0.82296 0.0
C3156 C 0.80339 0.30305 0.83171 0.0
C3157 C 0.78538 0.33208 0.84304 0.0
C3158 C 0.77645 0.31677 0.82895 0.0
C3159 C 0.8039 0.33267 0.85117 0.0
C3160 C 0.81287 0.31798 0.84563 0.0
H3161 H 0.72179 0.33944 0.82088 0.0
H3162 H 0.74967 0.35632 0.84458 0.0
H3163 H 0.78222 0.35809 0.85942 0.0
O3164 O 0.77013 0.26058 0.82231 0.0
O3165 O 0.77474 0.30595 0.78812 0.0
O3166 O 0.79966 0.29636 0.77905 0.0
O3167 O 0.74294 0.26758 0.81231 0.0
O3168 O 0.79668 0.26724 0.80176 0.0
O3169 O 0.81615 0.28039 0.7797 0.0
O3170 O 0.79809 0.30334 0.73409 0.0
O3171 O 0.78575 0.25138 0.75961 0.0
O3172 O 0.75909 0.25501 0.7743 0.0
O3173 O 0.82327 0.29205 0.74013 0.0
O3174 O 0.76763 0.28771 0.7463 0.0
O3175 O 0.7498 0.274 0.76938 0.0
C3176 C 0.79023 0.30951 0.78061 0.0
C3177 C 0.74351 0.24753 0.83819 0.0
C3178 C 0.74712 0.23142 0.86681 0.0
C3179 C 0.72746 0.227 0.86642 0.0
C3180 C 0.72385 0.24311 0.83773 0.0
C3181 C 0.71587 0.23275 0.8518 0.0
C3182 C 0.75506 0.24145 0.85259 0.0
C3183 C 0.81346 0.27112 0.79517 0.0
C3184 C 0.75222 0.25867 0.82398 0.0
C3185 C 0.75701 0.34521 0.84022 0.0
C3186 C 0.77556 0.34624 0.84864 0.0
C3187 C 0.76924 0.24495 0.76487 0.0
C3188 C 0.82072 0.30707 0.71144 0.0
C3189 C 0.81354 0.31647 0.67926 0.0
C3190 C 0.83208 0.31634 0.67542 0.0
C3191 C 0.83928 0.30698 0.70748 0.0
C3192 C 0.8078 0.31177 0.69715 0.0
C3193 C 0.84488 0.31151 0.68948 0.0
C3194 C 0.75122 0.28209 0.75301 0.0
C3195 C 0.81562 0.30408 0.73112 0.0
H3196 H 0.72114 0.21913 0.87741 0.0
H3197 H 0.71471 0.24766 0.82657 0.0
H3198 H 0.70072 0.22931 0.85149 0.0
H3199 H 0.77027 0.245 0.85318 0.0
H3200 H 0.83665 0.3202 0.66162 0.0
H3201 H 0.84957 0.30374 0.71845 0.0
H3202 H 0.79353 0.31232 0.70004 0.0
H3203 H 0.85922 0.31158 0.68656 0.0
Eu3204 Eu 0.7742 0.75414 0.76172 0.0
C3205 C 0.83547 0.82256 0.80906 0.0
N3206 N 0.81908 0.81264 0.81364 0.0
C3207 C 0.8319 0.81617 0.84763 0.0
C3208 C 0.85071 0.8299 0.82384 0.0
C3209 C 0.81711 0.80939 0.83259 0.0
C3210 C 0.84874 0.82658 0.84328 0.0
C3211 C 0.85419 0.83521 0.78441 0.0
C3212 C 0.83716 0.82524 0.7895 0.0
C3213 C 0.86911 0.84303 0.7992 0.0
C3214 C 0.86738 0.84037 0.81884 0.0
Eu3215 Eu 0.79392 0.80576 0.7879 0.0
N3216 N 0.82244 0.81762 0.77541 0.0
C3217 C 0.85583 0.83688 0.76456 0.0
C3218 C 0.82433 0.81855 0.75596 0.0
C3219 C 0.84095 0.82825 0.75027 0.0
H3220 H 0.80381 0.80254 0.83633 0.0
H3221 H 0.84225 0.82909 0.73484 0.0
H3222 H 0.76673 0.74859 0.7119 0.0
H3223 H 0.7296 0.72103 0.8131 0.0
H3224 H 0.81329 0.81169 0.74464 0.0
H3225 H 0.86865 0.84447 0.76008 0.0
H3226 H 0.75828 0.73863 0.80268 0.0
H3227 H 0.83012 0.81375 0.86266 0.0
H3228 H 0.88216 0.85096 0.79556 0.0
H3229 H 0.87911 0.84633 0.83005 0.0
H3230 H 0.74135 0.73436 0.68535 0.0
H3231 H 0.8601 0.83205 0.85503 0.0
H3232 H 0.70157 0.70893 0.78868 0.0
N3233 N 0.75014 0.74205 0.73502 0.0
C3234 C 0.73358 0.73256 0.73969 0.0
C3235 C 0.73886 0.73396 0.70057 0.0
C3236 C 0.71871 0.72405 0.72486 0.0
C3237 C 0.75316 0.74216 0.71572 0.0
C3238 C 0.72146 0.7251 0.70515 0.0
N3239 N 0.74681 0.73753 0.77306 0.0
C3240 C 0.7463 0.73365 0.79201 0.0
C3241 C 0.7151 0.71978 0.76443 0.0
C3242 C 0.73186 0.73024 0.75922 0.0
C3243 C 0.71419 0.71682 0.7841 0.0
C3244 C 0.72997 0.72358 0.7979 0.0
H3245 H 0.71045 0.71862 0.69337 0.0
H3246 H 0.69026 0.70767 0.71888 0.0
H3247 H 0.68703 0.70411 0.75357 0.0
O3248 O 0.78076 0.72726 0.7694 0.0
O3249 O 0.75103 0.76695 0.77505 0.0
O3250 O 0.76151 0.79878 0.78557 0.0
O3251 O 0.78305 0.73555 0.7398 0.0
O3252 O 0.79077 0.75893 0.79224 0.0
O3253 O 0.78231 0.78452 0.80806 0.0
O3254 O 0.79284 0.83458 0.78283 0.0
O3255 O 0.81571 0.78676 0.78425 0.0
O3256 O 0.80315 0.76954 0.75492 0.0
O3257 O 0.79134 0.82637 0.81207 0.0
O3258 O 0.7832 0.80574 0.75547 0.0
O3259 O 0.77274 0.77508 0.74021 0.0
C3260 C 0.74801 0.78361 0.78179 0.0
C3261 C 0.78853 0.70503 0.74403 0.0
C3262 C 0.79862 0.67652 0.7509 0.0
C3263 C 0.79545 0.66989 0.73066 0.0
C3264 C 0.78542 0.69851 0.72381 0.0
C3265 C 0.78895 0.68095 0.71718 0.0
C3266 C 0.79526 0.69413 0.75744 0.0
C3267 C 0.78658 0.76779 0.8083 0.0
C3268 C 0.78375 0.72269 0.75131 0.0
C3269 C 0.70183 0.71416 0.73007 0.0
C3270 C 0.7 0.71211 0.74981 0.0
C3271 C 0.81785 0.77621 0.76821 0.0
C3272 C 0.77398 0.84897 0.80295 0.0
C3273 C 0.75972 0.87544 0.79653 0.0
C3274 C 0.74543 0.86939 0.80799 0.0
C3275 C 0.75952 0.8427 0.81428 0.0
C3276 C 0.77381 0.8652 0.79391 0.0
C3277 C 0.74528 0.85291 0.81673 0.0
C3278 C 0.77619 0.79336 0.73993 0.0
C3279 C 0.78975 0.83936 0.80081 0.0
H3280 H 0.79775 0.65611 0.72533 0.0
H3281 H 0.77997 0.7068 0.71323 0.0
H3282 H 0.78642 0.67581 0.70163 0.0
H3283 H 0.79788 0.69937 0.77301 0.0
H3284 H 0.7347 0.87757 0.81045 0.0
H3285 H 0.75933 0.83011 0.82141 0.0
H3286 H 0.78503 0.87024 0.78536 0.0
H3287 H 0.73434 0.84825 0.82569 0.0
Eu3288 Eu 0.55955 0.53956 0.53681 0.0
C3289 C 0.49136 0.47624 0.49197 0.0
N3290 N 0.50209 0.49223 0.48747 0.0
C3291 C 0.49959 0.47878 0.45377 0.0
C3292 C 0.48414 0.46091 0.4773 0.0
C3293 C 0.5062 0.49372 0.46867 0.0
C3294 C 0.48845 0.46233 0.45807 0.0
C3295 C 0.47546 0.45914 0.51603 0.0
C3296 C 0.48709 0.47536 0.51122 0.0
C3297 C 0.46824 0.44393 0.50141 0.0
C3298 C 0.47256 0.44481 0.48212 0.0
Eu3299 Eu 0.50881 0.51771 0.51286 0.0
N3300 N 0.49382 0.49049 0.52505 0.0
C3301 C 0.47097 0.45885 0.53531 0.0
C3302 C 0.48883 0.4905 0.54364 0.0
C3303 C 0.47766 0.47462 0.54915 0.0
H3304 H 0.51377 0.50669 0.46478 0.0
H3305 H 0.47378 0.47475 0.56394 0.0
H3306 H 0.55294 0.55066 0.58433 0.0
H3307 H 0.59805 0.58183 0.48777 0.0
H3308 H 0.49263 0.50291 0.55408 0.0
H3309 H 0.46199 0.4467 0.53954 0.0
H3310 H 0.58035 0.55308 0.49808 0.0
H3311 H 0.50271 0.48013 0.43887 0.0
H3312 H 0.45912 0.43147 0.50483 0.0
H3313 H 0.46673 0.43301 0.47098 0.0
H3314 H 0.56087 0.57808 0.60952 0.0
H3315 H 0.48306 0.4509 0.44639 0.0
H3316 H 0.60517 0.61134 0.51061 0.0
N3317 N 0.56357 0.56548 0.56145 0.0
C3318 C 0.57352 0.58187 0.55685 0.0
C3319 C 0.56421 0.57943 0.59469 0.0
C3320 C 0.57908 0.59776 0.57117 0.0
C3321 C 0.55924 0.56397 0.58016 0.0
C3322 C 0.57414 0.59641 0.59019 0.0
N3323 N 0.57434 0.56678 0.52468 0.0
C3324 C 0.58174 0.5662 0.50727 0.0
C3325 C 0.59016 0.59909 0.53329 0.0
C3326 C 0.57899 0.58254 0.538 0.0
C3327 C 0.59648 0.59895 0.51473 0.0
C3328 C 0.59241 0.58236 0.50174 0.0
H3329 H 0.57832 0.60825 0.60162 0.0
H3330 H 0.59444 0.62654 0.57722 0.0
H3331 H 0.60412 0.6277 0.54412 0.0
O3332 O 0.58696 0.53474 0.53051 0.0
O3333 O 0.5408 0.56182 0.53199 0.0
O3334 O 0.52033 0.54705 0.50524 0.0
O3335 O 0.58207 0.54145 0.56072 0.0
O3336 O 0.557 0.52568 0.50483 0.0
O3337 O 0.52822 0.53021 0.49198 0.0
O3338 O 0.48322 0.52677 0.52083 0.0
O3339 O 0.52648 0.49466 0.51678 0.0
O3340 O 0.54974 0.50865 0.54192 0.0
O3341 O 0.48564 0.51679 0.49011 0.0
O3342 O 0.51207 0.53148 0.54512 0.0
O3343 O 0.54051 0.52555 0.55681 0.0
C3344 C 0.52875 0.5626 0.51655 0.0
C3345 C 0.60563 0.52382 0.55515 0.0
C3346 C 0.6309 0.50786 0.54773 0.0
C3347 C 0.63284 0.50348 0.56718 0.0
C3348 C 0.6076 0.51946 0.57458 0.0
C3349 C 0.62105 0.50909 0.58046 0.0
C3350 C 0.61693 0.51753 0.54178 0.0
C3351 C 0.54509 0.52727 0.48966 0.0
C3352 C 0.59386 0.53692 0.54902 0.0
C3353 C 0.58992 0.61428 0.56634 0.0
C3354 C 0.59542 0.61495 0.54747 0.0
C3355 C 0.53968 0.49341 0.53093 0.0
C3356 C 0.45647 0.52571 0.49629 0.0
C3357 C 0.4312 0.54196 0.50158 0.0
C3358 C 0.42188 0.53414 0.48293 0.0
C3359 C 0.44719 0.51776 0.47759 0.0
C3360 C 0.44825 0.53753 0.5084 0.0
C3361 C 0.42982 0.52189 0.47101 0.0
C3362 C 0.524 0.52901 0.55988 0.0
C3363 C 0.47535 0.52302 0.50258 0.0
H3364 H 0.64379 0.49628 0.57231 0.0
H3365 H 0.59915 0.52441 0.58531 0.0
H3366 H 0.62274 0.50592 0.59549 0.0
H3367 H 0.61532 0.52083 0.52676 0.0
H3368 H 0.40861 0.53767 0.47758 0.0
H3369 H 0.45345 0.50862 0.46798 0.0
H3370 H 0.45547 0.54402 0.52271 0.0
H3371 H 0.42272 0.5159 0.45656 0.0
Eu3372 Eu 1.00775 0.5285 0.03578 0.0
C3373 C 0.0771 0.56386 0.99282 0.0
N3374 N 0.06395 0.54792 0.9867 0.0
C3375 C 0.06161 0.5557 0.95372 0.0
C3376 C 0.08282 0.57655 0.97945 0.0
C3377 C 0.05644 0.54346 0.96748 0.0
C3378 C 0.0748 0.57234 0.95973 0.0
C3379 C 0.0982 0.58415 0.01932 0.0
C3380 C 0.08467 0.56767 0.01264 0.0
C3381 C 0.10396 0.59676 0.00597 0.0
C3382 C 0.09627 0.59299 0.98613 0.0
Eu3383 Eu 0.05675 0.52844 0.01107 0.0
N3384 N 0.07842 0.55553 0.02545 0.0
C3385 C 0.10554 0.58746 0.03926 0.0
C3386 C 0.08585 0.55837 0.04473 0.0
C3387 C 0.09944 0.57445 0.05196 0.0
H3388 H 0.04668 0.53033 0.96274 0.0
H3389 H 0.10527 0.57679 0.0673 0.0
H3390 H 0.01821 0.52729 0.08415 0.0
H3391 H 0.95949 0.47857 0.98057 0.0
H3392 H 0.08148 0.54819 0.05448 0.0
H3393 H 0.11601 0.59993 0.04495 0.0
H3394 H 0.98276 0.50776 0.99293 0.0
H3395 H 0.05552 0.55222 0.93848 0.0
H3396 H 0.11434 0.6095 0.01085 0.0
H3397 H 0.10085 0.60291 0.97605 0.0
H3398 H 0.01028 0.50558 0.1088 0.0
H3399 H 0.0788 0.58176 0.94902 0.0
H3400 H 0.9492 0.45578 0.00341 0.0
N3401 N 1.00028 0.5096 0.06069 0.0
C3402 C 0.98731 0.49348 0.05499 0.0
C3403 C 1.00374 0.50201 0.09372 0.0
C3404 C 0.98221 0.4808 0.06858 0.0
C3405 C 0.00832 0.51419 0.07974 0.0
C3406 C 0.99066 0.48522 0.08812 0.0
N3407 N 0.98575 0.50119 0.02224 0.0
C3408 C 0.97848 0.49777 0.00291 0.0
C3409 C 0.96656 0.4724 0.02886 0.0
C3410 C 0.97965 0.48925 0.03528 0.0
C3411 C 0.95935 0.46855 0.00892 0.0
C3412 C 0.96523 0.48135 0.99593 0.0
H3413 H 0.98721 0.47579 0.09898 0.0
H3414 H 0.96508 0.45408 0.07244 0.0
H3415 H 0.9513 0.4468 0.03774 0.0
O3416 O 0.98473 0.54248 0.0262 0.0
O3417 O 0.01679 0.49949 0.02999 0.0
O3418 O 0.03601 0.50001 0.00499 0.0
O3419 O 0.99321 0.54218 0.05737 0.0
O3420 O 0.00945 0.53743 0.00577 0.0
O3421 O 0.02875 0.51902 0.99347 0.0
O3422 O 0.08146 0.51619 0.02 0.0
O3423 O 0.0472 0.55744 0.01625 0.0
O3424 O 0.03068 0.55509 0.04297 0.0
O3425 O 0.07139 0.51596 0.98879 0.0
O3426 O 0.05471 0.51909 0.04077 0.0
O3427 O 0.03551 0.5371 0.05428 0.0
C3428 C 0.02564 0.49075 0.01697 0.0
C3429 C 0.96288 0.54925 0.04862 0.0
C3430 C 0.93681 0.56598 0.04536 0.0
C3431 C 0.92949 0.55758 0.06113 0.0
C3432 C 0.95518 0.54079 0.06423 0.0
C3433 C 0.93855 0.54496 0.07039 0.0
C3434 C 0.95346 0.56169 0.03905 0.0
C3435 C 0.01784 0.53106 0.99141 0.0
C3436 C 0.98201 0.54778 0.04422 0.0
C3437 C 0.96914 0.46401 0.06221 0.0
C3438 C 0.9613 0.45985 0.04243 0.0
C3439 C 0.0391 0.56535 0.03048 0.0
C3440 C 0.09825 0.50118 0.99545 0.0
C3441 C 0.12641 0.48804 0.00253 0.0
C3442 C 0.12465 0.48046 0.98271 0.0
C3443 C 0.09693 0.49352 0.97564 0.0
C3444 C 0.11317 0.49845 0.00896 0.0
C3445 C 0.11003 0.48323 0.96937 0.0
C3446 C 0.04678 0.52525 0.05564 0.0
C3447 C 0.08348 0.51119 0.00168 0.0
H3448 H 0.91698 0.56116 0.06658 0.0
H3449 H 0.96232 0.53148 0.07209 0.0
H3450 H 0.93294 0.53879 0.08275 0.0
H3451 H 0.95961 0.56881 0.02746 0.0
H3452 H 0.13481 0.47258 0.9775 0.0
H3453 H 0.08562 0.4953 0.96494 0.0
H3454 H 0.11451 0.50434 0.02426 0.0
H3455 H 0.10885 0.4774 0.95408 0.0
H3456 H 0.01886 0.17261 0.01654 0.0
H3457 H 1.00678 0.15976 0.95308 0.0
H3458 H 0.01054 0.1272 0.95554 0.0
H3459 H 0.05335 0.1435 0.02509 0.0
H3460 H 0.04481 0.13455 0.04666 0.0
H3461 H 0.04107 0.15718 0.04071 0.0
H3462 H 1.0053 0.14652 0.04107 0.0
H3463 H 0.00895 0.1239 0.04718 0.0
H3464 H 0.99298 0.12538 0.02588 0.0
H3465 H 0.01587 0.09607 0.96385 0.0
H3466 H 0.02135 0.06754 0.97751 0.0
H3467 H 0.03015 0.09758 0.03654 0.0
C3468 C 0.01706 0.16291 0.00318 0.0
C3469 C 0.01258 0.16912 0.98442 0.0
C3470 C 0.01013 0.15567 0.96751 0.0
C3471 C 0.01229 0.13702 0.96879 0.0
C3472 C 0.01669 0.13137 0.98721 0.0
C3473 C 0.01883 0.14375 0.00423 0.0
C3474 C 0.02286 0.13326 0.0221 0.0
C3475 C 0.04165 0.14269 0.03436 0.0
C3476 C 1.00656 0.13221 0.03482 0.0
C3477 C 0.02371 0.11351 0.01229 0.0
C3478 C 0.01973 0.1129 0.99214 0.0
C3479 C 0.019 0.09644 0.97962 0.0
C3480 C 0.02219 0.08014 0.98762 0.0
C3481 C 0.02642 0.07987 0.00819 0.0
C3482 C 0.02729 0.09708 0.02073 0.0
H3483 H 0.16621 0.81593 0.18583 0.0
H3484 H 0.13851 0.75718 0.17904 0.0
H3485 H 0.16487 0.75002 0.20004 0.0
H3486 H 0.21351 0.80913 0.18542 0.0
H3487 H 0.22411 0.82787 0.20463 0.0
H3488 H 0.20269 0.82926 0.18976 0.0
H3489 H 0.18631 0.83362 0.22108 0.0
H3490 H 0.20776 0.8324 0.23604 0.0
H3491 H 0.18614 0.81663 0.23837 0.0
H3492 H 0.19434 0.74821 0.2208 0.0
H3493 H 0.22515 0.7523 0.24102 0.0
H3494 H 0.23565 0.81188 0.23561 0.0
C3495 C 0.16561 0.80159 0.18888 0.0
C3496 C 0.15014 0.78706 0.18012 0.0
C3497 C 0.15017 0.76855 0.18481 0.0
C3498 C 0.16512 0.76431 0.19697 0.0
C3499 C 0.18025 0.77867 0.20481 0.0
C3500 C 0.18063 0.79702 0.20121 0.0
C3501 C 0.1989 0.80961 0.21173 0.0
C3502 C 0.21048 0.81955 0.197 0.0
C3503 C 0.19451 0.82392 0.22775 0.0
C3504 C 0.20892 0.7953 0.22098 0.0
C3505 C 0.1976 0.77761 0.21698 0.0
C3506 C 0.20329 0.76201 0.22402 0.0
C3507 C 0.22087 0.76445 0.2355 0.0
C3508 C 0.23295 0.78229 0.2398 0.0
C3509 C 0.22686 0.79799 0.23237 0.0
H3510 H 0.51299 0.87681 0.51787 0.0
H3511 H 0.52959 0.87544 0.45897 0.0
H3512 H 0.53303 0.90974 0.46116 0.0
H3513 H 0.48681 0.9144 0.51605 0.0
H3514 H 0.49564 0.92626 0.5404 0.0
H3515 H 0.49451 0.90133 0.53514 0.0
H3516 H 0.52996 0.90587 0.54725 0.0
H3517 H 0.53117 0.93081 0.55265 0.0
H3518 H 0.54664 0.9222 0.53664 0.0
H3519 H 0.53401 0.94355 0.4682 0.0
H3520 H 0.53392 0.97612 0.48011 0.0
H3521 H 0.51751 0.95937 0.53577 0.0
C3522 C 0.51732 0.88379 0.50545 0.0
C3523 C 0.52096 0.87305 0.48806 0.0
C3524 C 0.5268 0.883 0.4724 0.0
C3525 C 0.52876 0.90262 0.4735 0.0
C3526 C 0.5251 0.9127 0.49054 0.0
C3527 C 0.51973 0.90383 0.50645 0.0
C3528 C 0.51742 0.91878 0.52313 0.0
C3529 C 0.4974 0.91495 0.52902 0.0
C3530 C 0.53217 0.91945 0.54098 0.0
C3531 C 0.52131 0.9371 0.51357 0.0
C3532 C 0.52597 0.93296 0.49486 0.0
C3533 C 0.53043 0.94695 0.48285 0.0
C3534 C 0.53031 0.96566 0.4899 0.0
C3535 C 0.52567 0.97091 0.50901 0.0
C3536 C 0.52099 0.95615 0.52103 0.0
H3537 H 0.47567 0.30463 0.68716 0.0
H3538 H 0.45784 0.25621 0.64274 0.0
H3539 H 0.42699 0.24958 0.65507 0.0
H3540 H 0.45505 0.28408 0.72592 0.0
H3541 H 0.44744 0.30467 0.73639 0.0
H3542 H 0.46735 0.3072 0.72267 0.0
H3543 H 0.45112 0.3271 0.69986 0.0
H3544 H 0.431 0.32433 0.71338 0.0
H3545 H 0.42792 0.31752 0.68716 0.0
H3546 H 0.39845 0.24689 0.6728 0.0
H3547 H 0.37609 0.24584 0.69765 0.0
H3548 H 0.41208 0.29449 0.73237 0.0
C3549 C 0.46513 0.29283 0.67987 0.0
C3550 C 0.4693 0.28094 0.66386 0.0
C3551 C 0.45516 0.26547 0.65501 0.0
C3552 C 0.43746 0.26167 0.66182 0.0
C3553 C 0.43382 0.27343 0.67763 0.0
C3554 C 0.44728 0.28864 0.68671 0.0
C3555 C 0.44005 0.29805 0.70447 0.0
C3556 C 0.45326 0.29851 0.72348 0.0
C3557 C 0.43737 0.31793 0.70101 0.0
C3558 C 0.42105 0.28504 0.70458 0.0
C3559 C 0.41746 0.27142 0.68846 0.0
C3560 C 0.40104 0.25758 0.6854 0.0
C3561 C 0.3883 0.25717 0.69951 0.0
C3562 C 0.3921 0.27025 0.71674 0.0
C3563 C 0.40858 0.28458 0.71909 0.0
H3564 H 0.0123 0.83108 0.60398 0.0
H3565 H 0.0422 0.85683 0.66065 0.0
H3566 H 0.04602 0.88804 0.64885 0.0
H3567 H 0.0416 0.85838 0.57534 0.0
H3568 H 0.02302 0.86035 0.55672 0.0
H3569 H 0.02043 0.84049 0.5704 0.0
H3570 H 0.98918 0.84818 0.58064 0.0
H3571 H 0.99194 0.86833 0.56727 0.0
H3572 H 0.98901 0.87112 0.59303 0.0
H3573 H 0.04797 0.91636 0.63076 0.0
H3574 H 0.05284 0.93869 0.60616 0.0
H3575 H 0.02392 0.89503 0.56014 0.0
C3576 C 0.01937 0.84338 0.61393 0.0
C3577 C 0.02677 0.84159 0.63338 0.0
C3578 C 0.03632 0.85792 0.64581 0.0
C3579 C 0.03844 0.87573 0.63925 0.0
C3580 C 0.03103 0.87712 0.62008 0.0
C3581 C 0.02192 0.86137 0.60745 0.0
C3582 C 0.01698 0.86667 0.58697 0.0
C3583 C 0.02606 0.85583 0.57145 0.0
C3584 C 0.9955 0.86337 0.58167 0.0
C3585 C 0.02557 0.88762 0.58987 0.0
C3586 C 0.03293 0.89345 0.60929 0.0
C3587 C 0.04209 0.91199 0.61555 0.0
C3588 C 0.0446 0.92469 0.60152 0.0
C3589 C 0.03833 0.91881 0.58133 0.0
C3590 C 0.02828 0.90011 0.57556 0.0
H3591 H 0.43393 0.79839 0.78122 0.0
H3592 H 0.43523 0.78004 0.83931 0.0
H3593 H 0.40076 0.77551 0.83679 0.0
H3594 H 0.3952 0.82319 0.78388 0.0
H3595 H 0.38386 0.81492 0.75922 0.0
H3596 H 0.40892 0.81683 0.76476 0.0
H3597 H 0.40571 0.7819 0.75128 0.0
H3598 H 0.38064 0.77995 0.74559 0.0
H3599 H 0.38964 0.76425 0.76097 0.0
H3600 H 0.36658 0.77292 0.82918 0.0
H3601 H 0.33361 0.77193 0.81644 0.0
H3602 H 0.35129 0.79148 0.76251 0.0
C3603 C 0.4269 0.79347 0.7934 0.0
C3604 C 0.43762 0.78957 0.81061 0.0
C3605 C 0.42764 0.78298 0.82599 0.0
C3606 C 0.40794 0.78041 0.82471 0.0
C3607 C 0.39785 0.78424 0.8078 0.0
C3608 C 0.40681 0.79048 0.79223 0.0
C3609 C 0.39194 0.79287 0.7756 0.0
C3610 C 0.39518 0.81317 0.77058 0.0
C3611 C 0.39199 0.77892 0.75727 0.0
C3612 C 0.37351 0.78789 0.78478 0.0
C3613 C 0.37751 0.78268 0.80325 0.0
C3614 C 0.36329 0.77696 0.81474 0.0
C3615 C 0.34449 0.77637 0.8073 0.0
C3616 C 0.33958 0.78153 0.78847 0.0
C3617 C 0.35445 0.78759 0.77706 0.0
H3618 H 0.51057 0.1364 0.13399 0.0
H3619 H 0.52575 0.1793 0.0961 0.0
H3620 H 0.53041 0.15501 0.07031 0.0
H3621 H 0.543 0.10726 0.12034 0.0
H3622 H 0.52722 0.08506 0.12017 0.0
H3623 H 0.52428 0.10545 0.13575 0.0
H3624 H 0.48983 0.10123 0.1198 0.0
H3625 H 0.49262 0.08072 0.10429 0.0
H3626 H 0.48489 0.09989 0.09343 0.0
H3627 H 0.53745 0.1272 0.0504 0.0
H3628 H 0.54193 0.09704 0.03492 0.0
H3629 H 0.51841 0.06936 0.08237 0.0
C3630 C 0.5147 0.14058 0.12016 0.0
C3631 C 0.5179 0.15993 0.11713 0.0
C3632 C 0.52326 0.16473 0.09882 0.0
C3633 C 0.52598 0.15097 0.08407 0.0
C3634 C 0.52307 0.13218 0.08755 0.0
C3635 C 0.51718 0.1268 0.10495 0.0
C3636 C 0.51495 0.1054 0.10447 0.0
C3637 C 0.52815 0.10051 0.12118 0.0
C3638 C 0.49434 0.09627 0.10556 0.0
C3639 C 0.52094 0.09975 0.08433 0.0
C3640 C 0.52571 0.11561 0.07507 0.0
C3641 C 0.53308 0.11463 0.0572 0.0
C3642 C 0.53533 0.09713 0.04829 0.0
C3643 C 0.52961 0.08019 0.05653 0.0
C3644 C 0.52251 0.08173 0.07516 0.0
H3645 H 0.13477 0.27876 0.28743 0.0
H3646 H 0.15271 0.32349 0.33608 0.0
H3647 H 0.18564 0.32371 0.33142 0.0
H3648 H 0.17268 0.25367 0.29677 0.0
H3649 H 0.17628 0.24832 0.27144 0.0
H3650 H 0.15342 0.25146 0.27747 0.0
H3651 H 0.15355 0.27717 0.2543 0.0
H3652 H 0.17635 0.27398 0.24813 0.0
H3653 H 0.17299 0.29694 0.25754 0.0
H3654 H 0.2166 0.31791 0.3245 0.0
H3655 H 0.24459 0.30849 0.31357 0.0
H3656 H 0.21015 0.26893 0.26669 0.0
C3657 C 0.14563 0.28863 0.29707 0.0
C3658 C 0.14065 0.30127 0.31219 0.0
C3659 C 0.15562 0.3139 0.32423 0.0
C3660 C 0.17459 0.31405 0.32178 0.0
C3661 C 0.17896 0.30157 0.30704 0.0
C3662 C 0.16505 0.2892 0.2946 0.0
C3663 C 0.17432 0.2776 0.27978 0.0
C3664 C 0.16884 0.2565 0.28147 0.0
C3665 C 0.16898 0.28166 0.25868 0.0
C3666 C 0.19548 0.285 0.28643 0.0
C3667 C 0.19749 0.29883 0.30221 0.0
C3668 C 0.21516 0.30742 0.31185 0.0
C3669 C 0.23122 0.30204 0.30527 0.0
C3670 C 0.23025 0.28846 0.28868 0.0
C3671 C 0.2118 0.27963 0.27919 0.0
H3672 H 0.98503 0.99954 0.15865 0.0
H3673 H 0.97562 0.05649 0.17038 0.0
H3674 H 0.98762 0.06404 0.13942 0.0
H3675 H 0.02793 0.01085 0.13686 0.0
H3676 H 0.02233 0.99085 0.11812 0.0
H3677 H 0.0128 0.98953 0.14122 0.0
H3678 H 0.97897 0.98017 0.12269 0.0
H3679 H 0.98857 0.98131 0.0996 0.0
H3680 H 0.97115 0.99495 0.10543 0.0
H3681 H 0.99923 0.06543 0.10665 0.0
H3682 H 0.01127 0.06073 0.07452 0.0
H3683 H 0.01518 1.00369 0.08402 0.0
C3684 C 0.98543 0.01357 0.15467 0.0
C3685 C 0.97955 0.02747 0.16724 0.0
C3686 C 0.98038 0.04567 0.16137 0.0
C3687 C 0.98706 0.05009 0.14368 0.0
C3688 C 0.99288 0.0362 0.13178 0.0
C3689 C 0.99218 0.0183 0.13697 0.0
C3690 C 0.99934 0.00606 0.12131 0.0
C3691 C 0.01663 0.99891 0.1299 0.0
C3692 C 0.98357 0.98965 0.11169 0.0
C3693 C 1.00453 0.02003 0.10684 0.0
C3694 C 1.00031 0.03722 0.11304 0.0
C3695 C 1.00273 0.05208 0.10171 0.0
C3696 C 0.00952 0.0493 0.08349 0.0
C3697 C 0.01428 0.03197 0.07698 0.0
C3698 C 0.01194 0.0172 0.0889 0.0
H3699 H 0.26126 0.66842 0.44243 0.0
H3700 H 0.28977 0.71535 0.48502 0.0
H3701 H 0.29317 0.73577 0.45845 0.0
H3702 H 0.28866 0.68323 0.40024 0.0
H3703 H 0.26803 0.67499 0.38253 0.0
H3704 H 0.27145 0.66316 0.404 0.0
H3705 H 0.23893 0.66773 0.41375 0.0
H3706 H 0.23525 0.67895 0.3921 0.0
H3707 H 0.23368 0.69102 0.41592 0.0
H3708 H 0.28858 0.75176 0.42932 0.0
H3709 H 0.27303 0.76308 0.40052 0.0
H3710 H 0.24782 0.70578 0.3766 0.0
C3711 C 0.26857 0.68292 0.44589 0.0
C3712 C 0.27538 0.69058 0.46535 0.0
C3713 C 0.28468 0.70949 0.46991 0.0
C3714 C 0.28686 0.72102 0.45496 0.0
C3715 C 0.27997 0.71312 0.4357 0.0
C3716 C 0.27101 0.69448 0.43113 0.0
C3717 C 0.26258 0.69007 0.40986 0.0
C3718 C 0.27332 0.6771 0.39848 0.0
C3719 C 0.24137 0.68147 0.40782 0.0
C3720 C 0.26628 0.7096 0.4038 0.0
C3721 C 0.27719 0.72253 0.41859 0.0
C3722 C 0.28042 0.7418 0.41744 0.0
C3723 C 0.27148 0.74812 0.40122 0.0
C3724 C 0.25926 0.73514 0.38686 0.0
C3725 C 0.25727 0.71574 0.38761 0.0
H3726 H 0.61817 0.01384 0.64374 0.0
H3727 H 0.60817 0.06588 0.6735 0.0
H3728 H 0.58246 0.06606 0.64747 0.0
H3729 H 0.61231 0.02429 0.59674 0.0
H3730 H 0.60001 1.00129 0.58558 0.0
H3731 H 0.6159 1.00366 0.60782 0.0
H3732 H 0.58919 0.98568 0.62503 0.0
H3733 H 0.57318 0.98319 0.60272 0.0
H3734 H 0.56731 0.99385 0.62547 0.0
H3735 H 0.56108 0.0627 0.61778 0.0
H3736 H 0.54476 0.05655 0.58431 0.0
H3737 H 0.56791 0.00613 0.57365 0.0
C3738 C 0.61029 0.02504 0.6449 0.0
C3739 C 0.61503 0.03991 0.66034 0.0
C3740 C 0.60479 0.05457 0.66145 0.0
C3741 C 0.59003 0.05461 0.64701 0.0
C3742 C 0.58569 0.03975 0.63195 0.0
C3743 C 0.59541 0.02519 0.63076 0.0
C3744 C 0.58892 0.01185 0.61209 0.0
C3745 C 0.60526 0.0102 0.59984 0.0
C3746 C 0.57906 0.9925 0.6166 0.0
C3747 C 0.57501 0.02202 0.60238 0.0
C3748 C 0.57302 0.03773 0.61441 0.0
C3749 C 0.56211 0.05023 0.60833 0.0
C3750 C 0.55306 0.04666 0.58925 0.0
C3751 C 0.55517 0.03081 0.57658 0.0
C3752 C 0.56605 0.01821 0.58323 0.0
H3753 H 0.26215 0.31358 0.92233 0.0
H3754 H 0.3199 0.34444 0.93468 0.0
H3755 H 0.32512 0.33542 0.90064 0.0
H3756 H 0.27308 0.275 0.889 0.0
H3757 H 0.25169 0.27225 0.87241 0.0
H3758 H 0.25208 0.28046 0.89808 0.0
H3759 H 0.24051 0.31044 0.8891 0.0
H3760 H 0.23941 0.30129 0.86367 0.0
H3761 H 0.25286 0.32456 0.87262 0.0
H3762 H 0.32461 0.32414 0.86561 0.0
H3763 H 0.31799 0.31146 0.83061 0.0
H3764 H 0.2607 0.28737 0.83878 0.0
C3765 C 0.27587 0.31839 0.91782 0.0
C3766 C 0.29071 0.32959 0.93142 0.0
C3767 C 0.30843 0.33557 0.92483 0.0
C3768 C 0.31153 0.33058 0.90542 0.0
C3769 C 0.29683 0.31948 0.89248 0.0
C3770 C 0.27934 0.31334 0.89829 0.0
C3771 C 0.26613 0.30149 0.88105 0.0
C3772 C 0.26041 0.28109 0.8854 0.0
C3773 C 0.2487 0.31001 0.87633 0.0
C3774 C 0.27876 0.30271 0.86456 0.0
C3775 C 0.2965 0.3129 0.87178 0.0
C3776 C 0.31082 0.31599 0.85981 0.0
C3777 C 0.30702 0.30854 0.83991 0.0
C3778 C 0.28907 0.29809 0.83187 0.0
C3779 C 0.27465 0.29526 0.84444 0.0
H3780 H 1.0056 0.04377 0.37262 0.0
H3781 H 0.95609 0.99934 0.36754 0.0
H3782 H 0.96318 0.99535 0.40243 0.0
H3783 H 0.03536 0.02187 0.40498 0.0
H3784 H 0.04717 0.04342 0.4198 0.0
H3785 H 0.03822 0.04372 0.39446 0.0
H3786 H 0.01882 0.06847 0.40517 0.0
H3787 H 0.02777 0.06832 0.43052 0.0
H3788 H 1.00273 0.06368 0.42314 0.0
H3789 H 0.97458 0.99615 0.43762 0.0
H3790 H 0.9905 1.00134 0.47166 0.0
H3791 H 0.03436 0.04361 0.45532 0.0
C3792 C 0.99626 0.03331 0.37897 0.0
C3793 C 0.98024 0.02178 0.36728 0.0
C3794 C 0.96845 0.00819 0.37611 0.0
C3795 C 0.97235 0.00585 0.39596 0.0
C3796 C 0.98826 0.0171 0.40702 0.0
C3797 C 1.00014 0.03056 0.39897 0.0
C3798 C 0.01653 0.04036 0.41442 0.0
C3799 C 0.03544 0.03715 0.40802 0.0
C3800 C 0.01645 0.06146 0.41855 0.0
C3801 C 0.01188 0.03026 0.43224 0.0
C3802 C 0.9954 0.017 0.42751 0.0
C3803 C 0.98766 0.00627 0.44142 0.0
C3804 C 0.9969 0.00914 0.4607 0.0
C3805 C 0.01398 0.02228 0.46597 0.0
C3806 C 0.02156 0.03307 0.45154 0.0
H3807 H 0.27721 0.71844 0.63334 0.0
H3808 H 0.27123 0.6649 0.65654 0.0
H3809 H 0.27825 0.68141 0.69055 0.0
H3810 H 0.31479 0.7442 0.67062 0.0
H3811 H 0.30554 0.7655 0.67158 0.0
H3812 H 0.30171 0.74966 0.64903 0.0
H3813 H 0.2656 0.74737 0.6478 0.0
H3814 H 0.2694 0.76347 0.67006 0.0
H3815 H 0.2541 0.74081 0.6688 0.0
H3816 H 0.289 0.70386 0.72129 0.0
H3817 H 0.29335 0.73068 0.74748 0.0
H3818 H 0.28599 0.76808 0.70403 0.0
C3819 C 0.2773 0.71033 0.64569 0.0
C3820 C 0.27379 0.69064 0.64282 0.0
C3821 C 0.27388 0.68012 0.65891 0.0
C3822 C 0.27809 0.68931 0.67808 0.0
C3823 C 0.28199 0.70886 0.68052 0.0
C3824 C 0.28113 0.71925 0.66484 0.0
C3825 C 0.28424 0.74 0.67156 0.0
C3826 C 0.30266 0.75045 0.66532 0.0
C3827 C 0.26731 0.74839 0.66413 0.0
C3828 C 0.28597 0.7395 0.69348 0.0
C3829 C 0.28565 0.72156 0.69833 0.0
C3830 C 0.28836 0.71785 0.71771 0.0
C3831 C 0.29025 0.73287 0.73253 0.0
C3832 C 0.28791 0.75064 0.72784 0.0
C3833 C 0.28682 0.75427 0.70809 0.0
H3834 H 0.60779 0.01772 0.83601 0.0
H3835 H 0.65349 0.06616 0.84884 0.0
H3836 H 0.64668 0.0705 0.88308 0.0
H3837 H 0.57601 0.03561 0.85776 0.0
H3838 H 0.56518 0.0153 0.86837 0.0
H3839 H 0.57724 0.01226 0.84718 0.0
H3840 H 0.59821 0.99323 0.86607 0.0
H3841 H 0.58631 0.99654 0.88756 0.0
H3842 H 0.61156 1.00347 0.88935 0.0
H3843 H 0.63234 0.07363 0.91251 0.0
H3844 H 0.6078 0.0793 0.93321 0.0
H3845 H 0.56958 0.03035 0.9017 0.0
C3846 C 0.61661 0.0288 0.84636 0.0
C3847 C 0.63115 0.04155 0.84018 0.0
C3848 C 0.64228 0.0563 0.85359 0.0
C3849 C 0.63875 0.05862 0.87309 0.0
C3850 C 0.62411 0.04602 0.87887 0.0
C3851 C 0.61305 0.03147 0.86589 0.0
C3852 C 0.59599 0.02237 0.87476 0.0
C3853 C 0.57754 0.02138 0.86121 0.0
C3854 C 0.59814 1.00275 0.87975 0.0
C3855 C 0.59772 0.036 0.89331 0.0
C3856 C 0.61484 0.04852 0.89609 0.0
C3857 C 0.61906 0.06376 0.9108 0.0
C3858 C 0.60505 0.06702 0.92229 0.0
C3859 C 0.58705 0.05537 0.91855 0.0
C3860 C 0.58345 0.03928 0.90456 0.0
H3861 H 0.27972 0.30423 0.1239 0.0
H3862 H 0.30244 0.36319 0.1437 0.0
H3863 H 0.3001 0.35735 0.1781 0.0
H3864 H 0.2475 0.29673 0.16133 0.0
H3865 H 0.25165 0.27363 0.16485 0.0
H3866 H 0.2538 0.28214 0.14132 0.0
H3867 H 0.28781 0.27613 0.14257 0.0
H3868 H 0.28561 0.26739 0.16594 0.0
H3869 H 0.30474 0.28633 0.16363 0.0
H3870 H 0.29261 0.34622 0.20964 0.0
H3871 H 0.28732 0.3293 0.23812 0.0
H3872 H 0.2752 0.27638 0.19966 0.0
C3873 C 0.2842 0.31583 0.13556 0.0
C3874 C 0.29122 0.33423 0.13119 0.0
C3875 C 0.29709 0.34904 0.14676 0.0
C3876 C 0.29567 0.34589 0.16631 0.0
C3877 C 0.2886 0.32775 0.17019 0.0
C3878 C 0.28336 0.31281 0.15541 0.0
C3879 C 0.2773 0.29457 0.16412 0.0
C3880 C 0.25632 0.28628 0.1575 0.0
C3881 C 0.28962 0.28027 0.15875 0.0
C3882 C 0.28058 0.30165 0.18605 0.0
C3883 C 0.28626 0.32093 0.18899 0.0
C3884 C 0.28856 0.33105 0.20759 0.0
C3885 C 0.28541 0.32121 0.22374 0.0
C3886 C 0.28098 0.30126 0.22157 0.0
C3887 C 0.2785 0.29144 0.20226 0.0
H3888 H 0.22208 1.00093 1.00044 0.0
H3889 H 0.19858 0.9414 0.98772 0.0
H3890 H 0.16737 0.94729 0.994 0.0
H3891 H 0.20168 0.01064 0.03917 0.0
H3892 H 0.19606 0.03294 0.03435 0.0
H3893 H 0.21506 0.02498 0.02358 0.0
H3894 H 0.19979 0.02816 0.98886 0.0
H3895 H 0.18061 0.03632 0.99943 0.0
H3896 H 0.17584 0.01641 0.98061 0.0
H3897 H 0.14175 0.95803 0.00877 0.0
H3898 H 0.1226 0.97336 0.03061 0.0
H3899 H 0.16187 0.02623 0.03357 0.0
C3900 C 0.21006 0.98939 0.9981 0.0
C3901 C 0.21233 0.97083 0.99323 0.0
C3902 C 0.19673 0.95576 0.99088 0.0
C3903 C 0.17901 0.95898 0.9944 0.0
C3904 C 0.17716 0.9774 0.99978 0.0
C3905 C 0.19216 0.99244 0.00126 0.0
C3906 C 0.18692 0.01047 0.00968 0.0
C3907 C 0.20074 0.0203 0.02778 0.0
C3908 C 0.18571 0.02362 0.9937 0.0
C3909 C 0.16756 1.00274 0.01506 0.0
C3910 C 0.1619 0.98378 0.0084 0.0
C3911 C 0.1456 0.97299 0.01345 0.0
C3912 C 0.13488 0.98172 0.02588 0.0
C3913 C 0.14077 1.00087 0.03329 0.0
C3914 C 0.15702 0.01162 0.02755 0.0
H3915 H 0.67597 0.59453 0.03176 0.0
H3916 H 0.662 0.6185 0.97824 0.0
H3917 H 0.62962 0.60046 0.97533 0.0
H3918 H 0.64644 0.54783 0.01605 0.0
H3919 H 0.63923 0.54486 0.04002 0.0
H3920 H 0.66183 0.55906 0.03786 0.0
H3921 H 0.65319 0.58718 0.05863 0.0
H3922 H 0.63061 0.57305 0.06088 0.0
H3923 H 0.63188 0.59515 0.05103 0.0
H3924 H 0.59875 0.581 0.97822 0.0
H3925 H 0.57037 0.56156 0.98706 0.0
H3926 H 0.60258 0.54934 0.03914 0.0
C3927 C 0.6661 0.59596 0.01942 0.0
C3928 C 0.67179 0.60787 0.00506 0.0
C3929 C 0.65831 0.60924 0.98918 0.0
C3930 C 0.63976 0.59909 0.98745 0.0
C3931 C 0.63469 0.58747 0.00167 0.0
C3932 C 0.64737 0.58578 0.01738 0.0
C3933 C 0.63784 0.57242 0.03072 0.0
C3934 C 0.64688 0.55501 0.03119 0.0
C3935 C 0.63842 0.58256 0.05155 0.0
C3936 C 0.61778 0.56722 0.02021 0.0
C3937 C 0.61649 0.57605 0.00341 0.0
C3938 C 0.5996 0.57397 0.99129 0.0
C3939 C 0.58348 0.56284 0.99652 0.0
C3940 C 0.58409 0.5538 0.01383 0.0
C3941 C 0.60164 0.55583 0.02571 0.0
H3942 H 0.70802 0.45918 0.30566 0.0
H3943 H 0.66389 0.44643 0.25626 0.0
H3944 H 0.67283 0.41606 0.24733 0.0
H3945 H 0.74215 0.44311 0.28264 0.0
H3946 H 0.75219 0.43239 0.30255 0.0
H3947 H 0.74006 0.4513 0.30781 0.0
H3948 H 0.718 0.43028 0.32743 0.0
H3949 H 0.73003 0.41119 0.32204 0.0
H3950 H 0.70489 0.4078 0.31575 0.0
H3951 H 0.68887 0.39015 0.24035 0.0
H3952 H 0.71247 0.37043 0.23486 0.0
H3953 H 0.74698 0.3989 0.28819 0.0
C3954 C 0.69996 0.44965 0.29336 0.0
C3955 C 0.68523 0.45501 0.28163 0.0
C3956 C 0.6752 0.4425 0.26537 0.0
C3957 C 0.68007 0.42517 0.2603 0.0
C3958 C 0.69493 0.4204 0.27173 0.0
C3959 C 0.70474 0.43215 0.28801 0.0
C3960 C 0.72146 0.42435 0.2963 0.0
C3961 C 0.74005 0.43864 0.29736 0.0
C3962 C 0.71841 0.41803 0.31658 0.0
C3963 C 0.72046 0.4075 0.28101 0.0
C3964 C 0.70456 0.40511 0.26748 0.0
C3965 C 0.70115 0.39156 0.25106 0.0
C3966 C 0.7146 0.38047 0.24802 0.0
C3967 C 0.73125 0.3831 0.26124 0.0
C3968 C 0.73407 0.39645 0.27817 0.0
H3969 H 0.89585 0.48682 0.49001 0.0
H3970 H 0.8874 0.50563 0.54978 0.0
H3971 H 0.92177 0.51694 0.55805 0.0
H3972 H 0.93257 0.46759 0.49954 0.0
H3973 H 0.94575 0.47544 0.48008 0.0
H3974 H 0.92057 0.47279 0.47712 0.0
H3975 H 0.92286 0.50755 0.47066 0.0
H3976 H 0.94806 0.50992 0.47241 0.0
H3977 H 0.9379 0.52593 0.48768 0.0
H3978 H 0.9571 0.52509 0.55946 0.0
H3979 H 0.99017 0.53098 0.55317 0.0
H3980 H 0.97422 0.50036 0.49485 0.0
C3981 C 0.90106 0.49415 0.50457 0.0
C3982 C 0.88917 0.49545 0.5193 0.0
C3983 C 0.89652 0.50459 0.53838 0.0
C3984 C 0.91591 0.511 0.54317 0.0
C3985 C 0.9274 0.50821 0.52862 0.0
C3986 C 0.92021 0.50041 0.50959 0.0
C3987 C 0.93544 0.4977 0.49699 0.0
C3988 C 0.93344 0.47715 0.48793 0.0
C3989 C 0.9361 0.51107 0.48101 0.0
C3990 C 0.95221 0.5036 0.51237 0.0
C3991 C 0.94749 0.51042 0.53027 0.0
C3992 C 0.96103 0.51915 0.54578 0.0
C3993 C 0.9799 0.52183 0.54237 0.0
C3994 C 0.98478 0.51457 0.52417 0.0
C3995 C 0.9708 0.50479 0.50937 0.0
H3996 H 0.31854 0.10051 0.31539 0.0
H3997 H 0.36552 0.09704 0.2822 0.0
H3998 H 0.36435 0.12809 0.27171 0.0
H3999 H 0.29211 0.11705 0.2819 0.0
H4000 H 0.28297 0.13318 0.29818 0.0
H4001 H 0.29073 0.1134 0.30729 0.0
H4002 H 0.31348 0.13589 0.33463 0.0
H4003 H 0.30597 0.15589 0.32531 0.0
H4004 H 0.33059 0.15469 0.32806 0.0
H4005 H 0.35449 0.15453 0.25934 0.0
H4006 H 0.33458 0.1739 0.24334 0.0
H4007 H 0.29395 0.16182 0.28443 0.0
C4008 C 0.3289 0.1068 0.30653 0.0
C4009 C 0.3423 0.09697 0.29975 0.0
C4010 C 0.3554 0.10486 0.28765 0.0
C4011 C 0.35497 0.12248 0.28185 0.0
C4012 C 0.34147 0.13198 0.2885 0.0
C4013 C 0.32864 0.12449 0.30058 0.0
C4014 C 0.31371 0.13618 0.30288 0.0
C4015 C 0.29372 0.12424 0.29719 0.0
C4016 C 0.31608 0.14627 0.32397 0.0
C4017 C 0.3189 0.14998 0.28836 0.0
C4018 C 0.33552 0.14784 0.28103 0.0
C4019 C 0.34181 0.15684 0.26533 0.0
C4020 C 0.33041 0.16764 0.25624 0.0
C4021 C 0.31302 0.16919 0.2629 0.0
C4022 C 0.30752 0.16102 0.27959 0.0
H4023 H 0.35594 0.10788 0.49196 0.0
H4024 H 0.35923 0.14186 0.54817 0.0
H4025 H 0.38901 0.1327 0.55923 0.0
H4026 H 0.37027 0.06985 0.50907 0.0
H4027 H 0.38484 0.0649 0.49025 0.0
H4028 H 0.36589 0.07698 0.48495 0.0
H4029 H 0.38946 0.10411 0.47429 0.0
H4030 H 0.40858 0.09217 0.47995 0.0
H4031 H 0.40976 0.11584 0.49115 0.0
H4032 H 0.41536 0.11744 0.56631 0.0
H4033 H 0.43504 0.09371 0.57049 0.0
H4034 H 0.41565 0.06808 0.51059 0.0
C4035 C 0.36329 0.11371 0.50636 0.0
C4036 C 0.35538 0.12567 0.51924 0.0
C4037 C 0.36508 0.13273 0.53813 0.0
C4038 C 0.38211 0.12776 0.54446 0.0
C4039 C 0.38946 0.11574 0.53171 0.0
C4040 C 0.38045 0.10871 0.51305 0.0
C4041 C 0.39054 0.09434 0.50338 0.0
C4042 C 0.37707 0.0754 0.49654 0.0
C4043 C 0.40015 0.10207 0.48617 0.0
C4044 C 0.40517 0.09298 0.52036 0.0
C4045 C 0.40486 0.10625 0.53612 0.0
C4046 C 0.41598 0.10717 0.55402 0.0
C4047 C 0.42709 0.09364 0.55629 0.0
C4048 C 0.42684 0.07923 0.54087 0.0
C4049 C 0.41627 0.07923 0.52244 0.0
H4050 H 0.71724 0.63526 0.26715 0.0
H4051 H 0.69186 0.64858 0.31999 0.0
H4052 H 0.70931 0.68117 0.32309 0.0
H4053 H 0.76348 0.66564 0.28371 0.0
H4054 H 0.76674 0.67282 0.25978 0.0
H4055 H 0.75288 0.65006 0.26181 0.0
H4056 H 0.72472 0.65792 0.24038 0.0
H4057 H 0.73851 0.68066 0.23828 0.0
H4058 H 0.71606 0.67889 0.24762 0.0
H4059 H 0.72788 0.71243 0.3201 0.0
H4060 H 0.74687 0.74113 0.31119 0.0
H4061 H 0.76139 0.70898 0.26033 0.0
C4062 C 0.71539 0.64504 0.27939 0.0
C4063 C 0.70324 0.63915 0.29347 0.0
C4064 C 0.70131 0.65248 0.30925 0.0
C4065 C 0.71111 0.67112 0.31109 0.0
C4066 C 0.72295 0.67642 0.2971 0.0
C4067 C 0.72524 0.66385 0.28155 0.0
C4068 C 0.73874 0.67357 0.26846 0.0
C4069 C 0.75651 0.66501 0.26844 0.0
C4070 C 0.72891 0.67271 0.24744 0.0
C4071 C 0.74331 0.6936 0.27892 0.0
C4072 C 0.73403 0.69476 0.29545 0.0
C4073 C 0.73532 0.71169 0.30728 0.0
C4074 C 0.74615 0.72796 0.30205 0.0
C4075 C 0.75573 0.72738 0.28512 0.0
C4076 C 0.75448 0.70985 0.27353 0.0
H4077 H 0.79882 0.41902 0.79073 0.0
H4078 H 0.84973 0.42079 0.76231 0.0
H4079 H 0.84541 0.38653 0.75975 0.0
H4080 H 0.80695 0.38113 0.81898 0.0
H4081 H 0.7823 0.37071 0.81693 0.0
H4082 H 0.78951 0.39568 0.81692 0.0
H4083 H 0.76829 0.39325 0.78359 0.0
H4084 H 0.76133 0.36827 0.78363 0.0
H4085 H 0.77164 0.37738 0.76295 0.0
H4086 H 0.83788 0.35351 0.76323 0.0
H4087 H 0.82416 0.3212 0.76819 0.0
H4088 H 0.77631 0.34041 0.79044 0.0
C4089 C 0.80872 0.41203 0.78363 0.0
C4090 C 0.82413 0.42214 0.77609 0.0
C4091 C 0.83737 0.41295 0.76743 0.0
C4092 C 0.83527 0.39364 0.7662 0.0
C4093 C 0.81999 0.38402 0.77383 0.0
C4094 C 0.80684 0.39273 0.78224 0.0
C4095 C 0.79178 0.37886 0.78928 0.0
C4096 C 0.79271 0.38179 0.81187 0.0
C4097 C 0.77209 0.37948 0.77924 0.0
C4098 C 0.7981 0.36108 0.7825 0.0
C4099 C 0.81479 0.36446 0.77438 0.0
C4100 C 0.82444 0.35045 0.76888 0.0
C4101 C 0.81643 0.33222 0.77142 0.0
C4102 C 0.79867 0.32842 0.77835 0.0
C4103 C 0.78953 0.34297 0.78425 0.0
H4104 H 0.03136 0.89308 0.07369 0.0
H4105 H 0.07632 0.88267 0.03959 0.0
H4106 H 0.07677 0.91279 0.0266 0.0
H4107 H 1.00671 0.91495 0.03568 0.0
H4108 H 1.00005 0.932 0.05304 0.0
H4109 H 1.00315 0.90957 0.0602 0.0
H4110 H 0.02729 0.92646 0.08967 0.0
H4111 H 0.02423 0.9489 0.08253 0.0
H4112 H 0.04741 0.94336 0.08532 0.0
H4113 H 0.07375 0.94537 0.01796 0.0
H4114 H 0.06583 0.97614 0.01285 0.0
H4115 H 0.02099 0.96576 0.04973 0.0
C4116 C 0.04124 0.89692 0.06337 0.0
C4117 C 0.05413 0.88502 0.05827 0.0
C4118 C 0.06668 0.89124 0.0446 0.0
C4119 C 0.06694 0.90848 0.03685 0.0
C4120 C 0.05439 0.91981 0.04241 0.0
C4121 C 0.04157 0.91421 0.0552 0.0
C4122 C 0.02949 0.92916 0.05852 0.0
C4123 C 0.00861 0.92093 0.05144 0.0
C4124 C 0.03227 0.93746 0.0803 0.0
C4125 C 0.03753 0.94395 0.04565 0.0
C4126 C 0.05204 0.93827 0.03668 0.0
C4127 C 0.06227 0.94978 0.02481 0.0
C4128 C 0.05767 0.9674 0.02199 0.0
C4129 C 0.04268 0.97366 0.03065 0.0
C4130 C 0.03241 0.96151 0.04261 0.0
H4131 H 0.90802 0.28739 0.8738 0.0
H4132 H 0.91314 0.23056 0.8528 0.0
H4133 H 0.88439 0.22728 0.82969 0.0
H4134 H 0.85745 0.279 0.87031 0.0
H4135 H 0.85528 0.30106 0.86159 0.0
H4136 H 0.87631 0.29919 0.87683 0.0
H4137 H 0.89664 0.31115 0.85027 0.0
H4138 H 0.87568 0.31321 0.83502 0.0
H4139 H 0.89157 0.29931 0.82546 0.0
H4140 H 0.85368 0.22941 0.8091 0.0
H4141 H 0.82528 0.23773 0.79195 0.0
H4142 H 0.8411 0.29399 0.82326 0.0
C4143 C 0.9033 0.27426 0.86428 0.0
C4144 C 0.91314 0.25911 0.8658 0.0
C4145 C 0.90596 0.24228 0.85279 0.0
C4146 C 0.88955 0.24029 0.83931 0.0
C4147 C 0.88016 0.25529 0.83849 0.0
C4148 C 0.88691 0.27206 0.85047 0.0
C4149 C 0.87418 0.28608 0.84637 0.0
C4150 C 0.86528 0.29166 0.86488 0.0
C4151 C 0.88518 0.30347 0.83883 0.0
C4152 C 0.85924 0.27456 0.8303 0.0
C4153 C 0.86289 0.25675 0.82614 0.0
C4154 C 0.85077 0.24335 0.81231 0.0
C4155 C 0.83457 0.24816 0.80265 0.0
C4156 C 0.83048 0.26633 0.80647 0.0
C4157 C 0.84333 0.27978 0.8203 0.0
H4158 H 0.53803 0.17832 0.52991 0.0
H4159 H 0.56204 0.18384 0.59103 0.0
H4160 H 0.56166 0.14988 0.58806 0.0
H4161 H 0.50755 0.13211 0.52849 0.0
H4162 H 0.51176 0.12317 0.50428 0.0
H4163 H 0.51344 0.14805 0.51068 0.0
H4164 H 0.54723 0.15428 0.50109 0.0
H4165 H 0.54566 0.12941 0.49475 0.0
H4166 H 0.56461 0.14271 0.51239 0.0
H4167 H 0.55876 0.11553 0.5795 0.0
H4168 H 0.55327 0.08225 0.56566 0.0
H4169 H 0.53201 0.0964 0.50915 0.0
C4170 C 0.54314 0.17232 0.54265 0.0
C4171 C 0.55016 0.18407 0.56084 0.0
C4172 C 0.55676 0.17545 0.57698 0.0
C4173 C 0.55658 0.15605 0.57543 0.0
C4174 C 0.54991 0.14496 0.55748 0.0
C4175 C 0.54334 0.15266 0.54125 0.0
C4176 C 0.53728 0.13711 0.52369 0.0
C4177 C 0.51626 0.13499 0.51636 0.0
C4178 C 0.54942 0.14113 0.50699 0.0
C4179 C 0.5412 0.11962 0.5328 0.0
C4180 C 0.54852 0.12472 0.55233 0.0
C4181 C 0.55307 0.11141 0.56421 0.0
C4182 C 0.54986 0.09242 0.5562 0.0
C4183 C 0.54224 0.08644 0.53633 0.0
C4184 C 0.53806 0.10041 0.52435 0.0
H4185 H 0.60362 0.75282 0.38038 0.0
H4186 H 0.57946 0.80001 0.36411 0.0
H4187 H 0.60342 0.80708 0.34174 0.0
H4188 H 0.65105 0.77401 0.3822 0.0
H4189 H 0.65894 0.75378 0.37123 0.0
H4190 H 0.63847 0.75064 0.38408 0.0
H4191 H 0.61901 0.7306 0.35307 0.0
H4192 H 0.63946 0.73392 0.34005 0.0
H4193 H 0.61802 0.74029 0.33 0.0
H4194 H 0.63089 0.81081 0.32272 0.0
H4195 H 0.66229 0.81311 0.31142 0.0
H4196 H 0.67069 0.76473 0.34023 0.0
C4197 C 0.60321 0.76444 0.37185 0.0
C4198 C 0.58953 0.77591 0.37421 0.0
C4199 C 0.58977 0.79111 0.36288 0.0
C4200 C 0.60326 0.79514 0.3499 0.0
C4201 C 0.61664 0.78385 0.34812 0.0
C4202 C 0.61684 0.76882 0.35879 0.0
C4203 C 0.63377 0.75989 0.355 0.0
C4204 C 0.6463 0.75958 0.37428 0.0
C4205 C 0.62717 0.73999 0.34388 0.0
C4206 C 0.64373 0.77317 0.34183 0.0
C4207 C 0.63306 0.78636 0.33741 0.0
C4208 C 0.63927 0.80043 0.32593 0.0
C4209 C 0.6571 0.80158 0.31943 0.0
C4210 C 0.66882 0.78893 0.32456 0.0
C4211 C 0.66185 0.77429 0.33563 0.0
H4212 H 0.02719 0.19813 0.40158 0.0
H4213 H 0.05979 0.23959 0.44789 0.0
H4214 H 0.06063 0.21491 0.46985 0.0
H4215 H 0.99859 0.17153 0.43123 0.0
H4216 H 0.99884 0.14906 0.41777 0.0
H4217 H 1.00199 0.16986 0.40554 0.0
H4218 H 0.03337 0.16248 0.39516 0.0
H4219 H 0.03045 0.14184 0.40777 0.0
H4220 H 0.05157 0.15965 0.41374 0.0
H4221 H 0.05613 0.18565 0.48777 0.0
H4222 H 0.04444 0.15545 0.50026 0.0
H4223 H 0.01545 0.13291 0.44233 0.0
C4224 C 0.03454 0.20201 0.41633 0.0
C4225 C 0.04349 0.2209 0.42291 0.0
C4226 C 0.05303 0.22525 0.44234 0.0
C4227 C 0.05361 0.21128 0.45496 0.0
C4228 C 0.04481 0.1928 0.44797 0.0
C4229 C 0.03548 0.18814 0.42907 0.0
C4230 C 0.02668 0.16733 0.42537 0.0
C4231 C 1.00526 0.16428 0.41965 0.0
C4232 C 0.03608 0.15723 0.40957 0.0
C4233 C 0.03153 0.16126 0.44544 0.0
C4234 C 0.04241 0.17602 0.45817 0.0
C4235 C 0.04782 0.17395 0.47781 0.0
C4236 C 0.0413 0.15667 0.48478 0.0
C4237 C 0.02931 0.1417 0.47223 0.0
C4238 C 0.02493 0.14396 0.45217 0.0
H4239 H 0.63348 0.27048 0.26857 0.0
H4240 H 0.62732 0.25308 0.2057 0.0
H4241 H 0.66153 0.25458 0.20728 0.0
H4242 H 0.67939 0.30246 0.2718 0.0
H4243 H 0.68883 0.29602 0.29479 0.0
H4244 H 0.6638 0.2943 0.28923 0.0
H4245 H 0.65818 0.25937 0.29484 0.0
H4246 H 0.6832 0.26098 0.3004 0.0
H4247 H 0.66991 0.24347 0.28126 0.0
H4248 H 0.69637 0.25878 0.21465 0.0
H4249 H 0.72987 0.2633 0.22785 0.0
H4250 H 0.71562 0.27563 0.28685 0.0
C4251 C 0.6394 0.26707 0.25516 0.0
C4252 C 0.62746 0.2617 0.23685 0.0
C4253 C 0.63593 0.2572 0.21981 0.0
C4254 C 0.65546 0.25804 0.22057 0.0
C4255 C 0.66679 0.26322 0.23861 0.0
C4256 C 0.65917 0.26751 0.25573 0.0
C4257 C 0.67493 0.2721 0.27317 0.0
C4258 C 0.67685 0.29243 0.28282 0.0
C4259 C 0.67133 0.25815 0.28831 0.0
C4260 C 0.69238 0.26968 0.26307 0.0
C4261 C 0.6872 0.26481 0.24307 0.0
C4262 C 0.70056 0.26247 0.2303 0.0
C4263 C 0.71968 0.26514 0.23796 0.0
C4264 C 0.72565 0.26977 0.25838 0.0
C4265 C 0.71163 0.27193 0.27115 0.0
H4266 H 0.54501 0.89117 0.95713 0.0
H4267 H 0.55657 0.91462 0.90316 0.0
H4268 H 0.55673 0.94629 0.91953 0.0
H4269 H 0.51465 0.92099 0.97413 0.0
H4270 H 0.52431 0.92444 0.99971 0.0
H4271 H 0.52571 0.90335 0.98434 0.0
H4272 H 0.56181 0.91006 0.99354 0.0
H4273 H 0.56052 0.93122 0.00893 0.0
H4274 H 0.57555 0.93229 0.98964 0.0
H4275 H 0.55621 0.97546 0.94111 0.0
H4276 H 0.55296 1.00067 0.96591 0.0
H4277 H 0.54011 0.96018 0.00719 0.0
C4278 C 0.54761 0.90302 0.94883 0.0
C4279 C 0.55088 0.90025 0.92869 0.0
C4280 C 0.5543 0.91623 0.91851 0.0
C4281 C 0.55438 0.93435 0.92773 0.0
C4282 C 0.5513 0.93665 0.94745 0.0
C4283 C 0.54808 0.92152 0.95804 0.0
C4284 C 0.54544 0.92841 0.97924 0.0
C4285 C 0.52638 0.91872 0.98466 0.0
C4286 C 0.56179 0.9253 0.9937 0.0
C4287 C 0.54634 0.94948 0.97838 0.0
C4288 C 0.55034 0.95379 0.95998 0.0
C4289 C 0.55279 0.97217 0.95547 0.0
C4290 C 0.55074 0.9865 0.96982 0.0
C4291 C 0.54556 0.98274 0.98864 0.0
C4292 C 0.54376 0.96379 0.99303 0.0
H4293 H 0.91027 0.76364 0.71314 0.0
H4294 H 0.93656 0.75314 0.76922 0.0
H4295 H 0.90775 0.7567 0.7842 0.0
H4296 H 0.88441 0.79808 0.73203 0.0
H4297 H 0.8637 0.78968 0.71449 0.0
H4298 H 0.88643 0.78652 0.70813 0.0
H4299 H 0.87381 0.75069 0.69999 0.0
H4300 H 0.85104 0.75377 0.70631 0.0
H4301 H 0.86313 0.73778 0.71832 0.0
H4302 H 0.87612 0.76378 0.794 0.0
H4303 H 0.84422 0.77017 0.7967 0.0
H4304 H 0.8363 0.77343 0.73398 0.0
C4305 C 0.91004 0.76212 0.7286 0.0
C4306 C 0.92614 0.75814 0.73987 0.0
C4307 C 0.92473 0.75605 0.76002 0.0
C4308 C 0.9083 0.75816 0.76877 0.0
C4309 C 0.89284 0.76214 0.7573 0.0
C4310 C 0.89347 0.76382 0.73754 0.0
C4311 C 0.87461 0.76754 0.7284 0.0
C4312 C 0.87746 0.78659 0.72027 0.0
C4313 C 0.86508 0.75149 0.71229 0.0
C4314 C 0.86335 0.76794 0.74605 0.0
C4315 C 0.87429 0.76503 0.76265 0.0
C4316 C 0.86746 0.76578 0.78095 0.0
C4317 C 0.84919 0.76948 0.78237 0.0
C4318 C 0.83731 0.77205 0.7656 0.0
C4319 C 0.84467 0.77116 0.74711 0.0
H4320 H 0.07468 0.00871 0.8797 0.0
H4321 H 0.0982 0.0686 0.88735 0.0
H4322 H 0.08625 0.07187 0.91932 0.0
H4323 H 0.03267 0.0123 0.90412 0.0
H4324 H 0.03288 0.99143 0.916 0.0
H4325 H 0.04216 0.9933 0.89279 0.0
H4326 H 0.07402 0.98699 0.90806 0.0
H4327 H 0.06474 0.98484 0.9312 0.0
H4328 H 0.08617 1.00144 0.9301 0.0
H4329 H 0.07029 0.06959 0.94936 0.0
H4330 H 0.05596 0.06077 0.97892 0.0
H4331 H 0.04622 1.00198 0.95539 0.0
C4332 C 0.07733 0.0225 0.88811 0.0
C4333 C 0.08703 0.0385 0.88055 0.0
C4334 C 0.09026 0.05622 0.89225 0.0
C4335 C 0.0836 0.05824 0.91058 0.0
C4336 C 0.07381 0.0424 0.91736 0.0
C4337 C 0.07087 0.02479 0.90672 0.0
C4338 C 0.06049 0.01006 0.9181 0.0
C4339 C 0.04089 1.00125 0.90709 0.0
C4340 C 0.07206 0.99494 0.9221 0.0
C4341 C 0.05885 0.02212 0.93703 0.0
C4342 C 0.06606 0.04082 0.93585 0.0
C4343 C 0.06511 0.05494 0.95072 0.0
C4344 C 0.05715 0.04981 0.96754 0.0
C4345 C 0.05114 0.03072 0.96993 0.0
C4346 C 0.05146 0.01666 0.95423 0.0
H4347 H 0.80355 0.38798 0.60635 0.0
H4348 H 0.77742 0.34029 0.56351 0.0
H4349 H 0.77278 0.32028 0.59028 0.0
H4350 H 0.82954 0.36545 0.63648 0.0
H4351 H 0.82612 0.37833 0.65919 0.0
H4352 H 0.82453 0.38878 0.63676 0.0
H4353 H 0.79118 0.39401 0.64295 0.0
H4354 H 0.79247 0.38277 0.66508 0.0
H4355 H 0.77319 0.37424 0.64582 0.0
H4356 H 0.77523 0.30492 0.62028 0.0
H4357 H 0.78848 0.2944 0.65075 0.0
H4358 H 0.81162 0.35215 0.67458 0.0
C4359 C 0.7967 0.37335 0.60278 0.0
C4360 C 0.7908 0.36545 0.58317 0.0
C4361 C 0.78191 0.34638 0.57866 0.0
C4362 C 0.77902 0.33506 0.59371 0.0
C4363 C 0.78473 0.34328 0.61308 0.0
C4364 C 0.79345 0.36198 0.61764 0.0
C4365 C 0.80004 0.3669 0.63936 0.0
C4366 C 0.82131 0.37533 0.64314 0.0
C4367 C 0.78853 0.38027 0.64887 0.0
C4368 C 0.7954 0.34761 0.64597 0.0
C4369 C 0.7858 0.33433 0.63076 0.0
C4370 C 0.78227 0.31517 0.63249 0.0
C4371 C 0.78979 0.3093 0.64976 0.0
C4372 C 0.80074 0.32261 0.66473 0.0
C4373 C 0.80279 0.34194 0.66332 0.0
H4374 H 0.44456 1.00175 0.39702 0.0
H4375 H 0.46374 0.05667 0.37887 0.0
H4376 H 0.48841 0.06416 0.40745 0.0
H4377 H 0.45218 0.01648 0.44844 0.0
H4378 H 0.45972 0.99538 0.45444 0.0
H4379 H 0.44345 0.99461 0.43276 0.0
H4380 H 0.46605 0.98031 0.4115 0.0
H4381 H 0.4824 0.98116 0.43317 0.0
H4382 H 0.49012 0.9925 0.4125 0.0
H4383 H 0.50844 0.06658 0.43952 0.0
H4384 H 0.52415 0.06269 0.47214 0.0
H4385 H 0.49554 1.00442 0.46514 0.0
C4386 C 0.45415 0.01522 0.39884 0.0
C4387 C 0.4524 0.02863 0.38584 0.0
C4388 C 0.46481 0.04633 0.38893 0.0
C4389 C 0.47891 0.05064 0.40494 0.0
C4390 C 0.48038 0.03696 0.41735 0.0
C4391 C 0.46843 0.01959 0.4144 0.0
C4392 C 0.47268 0.00748 0.43004 0.0
C4393 C 0.45602 1.00325 0.44212 0.0
C4394 C 0.47815 0.9893 0.42126 0.0
C4395 C 0.48918 0.02065 0.44201 0.0
C4396 C 0.49311 0.03778 0.43481 0.0
C4397 C 0.50595 0.05309 0.44505 0.0
C4398 C 0.51475 0.05081 0.46338 0.0
C4399 C 0.51102 0.03323 0.4705 0.0
C4400 C 0.4986 0.01788 0.45959 0.0
H4401 H 0.79309 0.75367 0.12063 0.0
H4402 H 0.75702 0.69876 0.11785 0.0
H4403 H 0.7537 0.70493 0.15297 0.0
H4404 H 0.81678 0.75446 0.17045 0.0
H4405 H 0.81743 0.77903 0.17767 0.0
H4406 H 0.8177 0.77055 0.15219 0.0
H4407 H 0.7885 0.78467 0.14258 0.0
H4408 H 0.78811 0.79312 0.16804 0.0
H4409 H 0.76749 0.77819 0.15416 0.0
H4410 H 0.75471 0.7157 0.18804 0.0
H4411 H 0.75916 0.73154 0.22204 0.0
H4412 H 0.79242 0.781 0.20369 0.0
C4413 C 0.78459 0.74299 0.12753 0.0
C4414 C 0.77518 0.7257 0.1164 0.0
C4415 C 0.76416 0.71212 0.12595 0.0
C4416 C 0.76223 0.71547 0.14594 0.0
C4417 C 0.77132 0.73259 0.15643 0.0
C4418 C 0.78226 0.74624 0.14771 0.0
C4419 C 0.79015 0.76351 0.16277 0.0
C4420 C 0.8118 0.76709 0.16596 0.0
C4421 C 0.78314 0.7809 0.15651 0.0
C4422 C 0.78179 0.75731 0.1811 0.0
C4423 C 0.77119 0.7393 0.17698 0.0
C4424 C 0.76276 0.7299 0.19143 0.0
C4425 C 0.76527 0.73903 0.21069 0.0
C4426 C 0.77565 0.7576 0.21537 0.0
C4427 C 0.784 0.76694 0.20036 0.0
H4428 H 0.06619 0.05093 0.68054 0.0
H4429 H 0.09773 0.006 0.67494 0.0
H4430 H 0.08838 1.00105 0.63926 0.0
H4431 H 0.02725 0.02792 0.6416 0.0
H4432 H 0.02414 0.04957 0.63245 0.0
H4433 H 0.03256 0.04959 0.65802 0.0
H4434 H 0.0618 0.07467 0.65457 0.0
H4435 H 0.0535 0.07461 0.62899 0.0
H4436 H 0.07665 0.07011 0.6359 0.0
H4437 H 0.07726 1.00114 0.60469 0.0
H4438 H 0.06438 0.00582 0.57187 0.0
H4439 H 0.03877 0.05059 0.59714 0.0
C4440 C 0.07103 0.04002 0.67176 0.0
C4441 C 0.08261 0.02869 0.68077 0.0
C4442 C 0.0886 0.0146 0.66865 0.0
C4443 C 0.08343 0.01173 0.64826 0.0
C4444 C 0.07207 0.02296 0.63989 0.0
C4445 C 0.06575 0.03676 0.6511 0.0
C4446 C 0.05356 0.04665 0.63784 0.0
C4447 C 0.03317 0.04323 0.64278 0.0
C4448 C 0.06189 0.06777 0.63942 0.0
C4449 C 0.0547 0.03664 0.61747 0.0
C4450 C 0.06536 0.02294 0.61931 0.0
C4451 C 0.06883 0.01177 0.60305 0.0
C4452 C 0.0614 0.01464 0.58433 0.0
C4453 C 0.05051 0.02865 0.5816 0.0
C4454 C 0.04695 0.03973 0.59857 0.0
H4455 H 0.77129 0.36791 0.39099 0.0
H4456 H 0.8128 0.34783 0.42879 0.0
H4457 H 0.81598 0.32443 0.40165 0.0
H4458 H 0.74868 0.32158 0.36494 0.0
H4459 H 0.74482 0.33051 0.3417 0.0
H4460 H 0.74515 0.34534 0.36438 0.0
H4461 H 0.77122 0.37029 0.35374 0.0
H4462 H 0.77112 0.35541 0.33118 0.0
H4463 H 0.79274 0.36367 0.34742 0.0
H4464 H 0.81731 0.30616 0.37095 0.0
H4465 H 0.81339 0.28933 0.33761 0.0
H4466 H 0.76923 0.31926 0.31987 0.0
C4467 C 0.78075 0.35832 0.39352 0.0
C4468 C 0.79202 0.35961 0.41163 0.0
C4469 C 0.80437 0.34707 0.41471 0.0
C4470 C 0.80622 0.33378 0.39952 0.0
C4471 C 0.79542 0.33322 0.38162 0.0
C4472 C 0.78268 0.34483 0.37852 0.0
C4473 C 0.77299 0.34118 0.35766 0.0
C4474 C 0.75165 0.33423 0.35715 0.0
C4475 C 0.77729 0.35868 0.34688 0.0
C4476 C 0.7825 0.32581 0.34966 0.0
C4477 C 0.79552 0.3217 0.36373 0.0
C4478 C 0.8069 0.30884 0.35979 0.0
C4479 C 0.80458 0.29943 0.34089 0.0
C4480 C 0.79078 0.30281 0.32647 0.0
C4481 C 0.77971 0.31628 0.33079 0.0
H4482 H 0.4381 0.03585 0.19983 0.0
H4483 H 0.45834 0.99429 0.23245 0.0
H4484 H 0.4816 0.99121 0.20933 0.0
H4485 H 0.43688 0.01405 0.155 0.0
H4486 H 0.44502 0.03428 0.14286 0.0
H4487 H 0.43389 0.03708 0.16475 0.0
H4488 H 0.46319 0.06175 0.18086 0.0
H4489 H 0.47455 0.05866 0.15895 0.0
H4490 H 0.48611 0.05561 0.18248 0.0
H4491 H 0.49787 0.98804 0.18085 0.0
H4492 H 0.5024 0.98107 0.14607 0.0
H4493 H 0.47162 0.02386 0.1304 0.0
C4494 C 0.44795 0.02665 0.20239 0.0
C4495 C 0.44671 0.01546 0.2179 0.0
C4496 C 0.45922 1.00301 0.22061 0.0
C4497 C 0.47265 1.00141 0.20777 0.0
C4498 C 0.47344 0.01244 0.19239 0.0
C4499 C 0.46135 0.02477 0.18953 0.0
C4500 C 0.46286 0.03241 0.16998 0.0
C4501 C 0.44352 0.02923 0.15742 0.0
C4502 C 0.47224 0.05335 0.17326 0.0
C4503 C 0.4758 0.02058 0.16131 0.0
C4504 C 0.48267 0.01011 0.17504 0.0
C4505 C 0.49299 0.99642 0.17007 0.0
C4506 C 0.4954 0.99247 0.15035 0.0
C4507 C 0.48731 1.002 0.13598 0.0
C4508 C 0.47816 0.01677 0.14147 0.0
H4509 H 0.77884 0.75198 0.92287 0.0
H4510 H 0.78083 0.69381 0.90447 0.0
H4511 H 0.78425 0.70111 0.87066 0.0
H4512 H 0.75258 0.76147 0.87946 0.0
H4513 H 0.76624 0.78465 0.87882 0.0
H4514 H 0.76459 0.77528 0.90193 0.0
H4515 H 0.80094 0.78103 0.90836 0.0
H4516 H 0.80267 0.79022 0.8851 0.0
H4517 H 0.81385 0.77095 0.89045 0.0
H4518 H 0.78978 0.71457 0.83978 0.0
H4519 H 0.79193 0.73224 0.81146 0.0
H4520 H 0.78219 0.78139 0.84725 0.0
C4521 C 0.77991 0.74084 0.91163 0.0
C4522 C 0.77967 0.72228 0.9163 0.0
C4523 C 0.78121 0.7081 0.90127 0.0
C4524 C 0.78319 0.71213 0.88203 0.0
C4525 C 0.78376 0.73051 0.87791 0.0
C4526 C 0.78204 0.74469 0.89214 0.0
C4527 C 0.78312 0.76321 0.88334 0.0
C4528 C 0.76557 0.77163 0.88604 0.0
C4529 C 0.80121 0.77718 0.89236 0.0
C4530 C 0.78425 0.75678 0.86174 0.0
C4531 C 0.78555 0.73808 0.85934 0.0
C4532 C 0.78844 0.72916 0.84139 0.0
C4533 C 0.7897 0.73944 0.82532 0.0
C4534 C 0.78709 0.75834 0.82674 0.0
C4535 C 0.78437 0.7671 0.84541 0.0
H4536 H 0.83722 0.06014 0.02647 0.0
H4537 H 0.86343 0.09977 0.07729 0.0
H4538 H 0.89414 0.09136 0.07275 0.0
H4539 H 0.87018 0.02546 0.03024 0.0
H4540 H 0.86969 0.02235 0.00384 0.0
H4541 H 0.84918 0.02691 0.01467 0.0
H4542 H 0.84885 0.05534 0.9951 0.0
H4543 H 0.86948 0.05126 0.98449 0.0
H4544 H 0.86947 0.07383 0.99785 0.0
H4545 H 0.92228 0.08406 0.05877 0.0
H4546 H 0.94592 0.07721 0.03698 0.0
H4547 H 0.90134 0.04468 0.99381 0.0
C4548 C 0.84934 0.06646 0.03706 0.0
C4549 C 0.84815 0.08045 0.05223 0.0
C4550 C 0.86414 0.08872 0.06579 0.0
C4551 C 0.88161 0.08407 0.06328 0.0
C4552 C 0.88259 0.07114 0.04726 0.0
C4553 C 0.86682 0.06227 0.03449 0.0
C4554 C 0.8719 0.05153 0.01658 0.0
C4555 C 0.86483 0.0303 0.01633 0.0
C4556 C 0.86449 0.05842 0.9974 0.0
C4557 C 0.89305 0.05677 0.02059 0.0
C4558 C 0.89896 0.06762 0.0386 0.0
C4559 C 0.91787 0.07531 0.04481 0.0
C4560 C 0.9311 0.07163 0.03231 0.0
C4561 C 0.92516 0.06083 0.01375 0.0
C4562 C 0.906 0.05324 0.00787 0.0
H4563 H 0.40195 0.46053 0.06496 0.0
H4564 H 0.38731 0.43472 0.00425 0.0
H4565 H 0.41699 0.45193 0.99576 0.0
H4566 H 0.42586 0.50603 0.05389 0.0
H4567 H 0.44452 0.50953 0.07398 0.0
H4568 H 0.42176 0.49565 0.07613 0.0
H4569 H 0.43723 0.46767 0.08403 0.0
H4570 H 0.46004 0.48153 0.08211 0.0
H4571 H 0.45217 0.45903 0.06735 0.0
H4572 H 0.44556 0.47433 0.99222 0.0
H4573 H 0.47638 0.49578 0.99536 0.0
H4574 H 0.47701 0.5041 0.05874 0.0
C4575 C 0.40511 0.45842 0.04994 0.0
C4576 C 0.39187 0.44662 0.03513 0.0
C4577 C 0.39674 0.44414 0.01572 0.0
C4578 C 0.41366 0.45382 0.01072 0.0
C4579 C 0.42599 0.46581 0.02529 0.0
C4580 C 0.42233 0.46791 0.04463 0.0
C4581 C 0.43874 0.48145 0.05726 0.0
C4582 C 0.43233 0.49921 0.06583 0.0
C4583 C 0.44757 0.47183 0.07365 0.0
C4584 C 0.45217 0.48607 0.04197 0.0
C4585 C 0.44402 0.47736 0.02355 0.0
C4586 C 0.45241 0.48077 0.00662 0.0
C4587 C 0.4699 0.49298 0.00853 0.0
C4588 C 0.47942 0.5008 0.02728 0.0
C4589 C 0.47031 0.49761 0.04428 0.0
H4590 H 0.37519 0.60883 0.74511 0.0
H4591 H 0.36034 0.57932 0.7947 0.0
H4592 H 0.3391 0.60079 0.8027 0.0
H4593 H 0.37859 0.65359 0.7675 0.0
H4594 H 0.36791 0.66307 0.747 0.0
H4595 H 0.37916 0.64337 0.74261 0.0
H4596 H 0.34832 0.62449 0.72242 0.0
H4597 H 0.33691 0.64416 0.72709 0.0
H4598 H 0.32674 0.62147 0.73353 0.0
H4599 H 0.32281 0.6268 0.80818 0.0
H4600 H 0.31492 0.65831 0.81285 0.0
H4601 H 0.34047 0.67255 0.7608 0.0
C4602 C 0.36707 0.6067 0.75733 0.0
C4603 C 0.36938 0.59243 0.76934 0.0
C4604 C 0.35885 0.59023 0.78543 0.0
C4605 C 0.34657 0.6022 0.78994 0.0
C4606 C 0.34479 0.61632 0.77815 0.0
C4607 C 0.35473 0.61873 0.76217 0.0
C4608 C 0.35168 0.63641 0.7534 0.0
C4609 C 0.37046 0.6499 0.75261 0.0
C4610 C 0.34024 0.63133 0.7329 0.0
C4611 C 0.34009 0.64435 0.76815 0.0
C4612 C 0.33552 0.63199 0.78168 0.0
C4613 C 0.32595 0.63648 0.7975 0.0
C4614 C 0.32151 0.65434 0.80005 0.0
C4615 C 0.32691 0.66754 0.78703 0.0
C4616 C 0.33589 0.6624 0.77063 0.0
H4617 H 0.17188 0.54808 0.55259 0.0
H4618 H 0.17643 0.59543 0.51873 0.0
H4619 H 0.14196 0.59171 0.5139 0.0
H4620 H 0.13275 0.51964 0.52394 0.0
H4621 H 0.12185 0.5108 0.54443 0.0
H4622 H 0.14701 0.51819 0.54653 0.0
H4623 H 0.14613 0.54143 0.57764 0.0
H4624 H 0.12094 0.53387 0.5754 0.0
H4625 H 0.13108 0.55842 0.57619 0.0
H4626 H 0.10791 0.58347 0.51334 0.0
H4627 H 0.07481 0.56854 0.51413 0.0
H4628 H 0.09317 0.52493 0.54529 0.0
C4629 C 0.16545 0.55752 0.54417 0.0
C4630 C 0.17625 0.57164 0.53563 0.0
C4631 C 0.1679 0.58417 0.52489 0.0
C4632 C 0.14853 0.58239 0.52232 0.0
C4633 C 0.1381 0.56819 0.5308 0.0
C4634 C 0.14615 0.55591 0.5414 0.0
C4635 C 0.13163 0.54136 0.54811 0.0
C4636 C 0.13342 0.52132 0.54026 0.0
C4637 C 0.13251 0.54395 0.57068 0.0
C4638 C 0.11429 0.54674 0.53854 0.0
C4639 C 0.11828 0.56266 0.52931 0.0
C4640 C 0.10446 0.57075 0.52015 0.0
C4641 C 0.08583 0.56202 0.5203 0.0
C4642 C 0.08164 0.54513 0.52872 0.0
C4643 C 0.09601 0.53753 0.53812 0.0
H4644 H 0.72654 0.94773 0.7329 0.0
H4645 H 0.75592 0.98962 0.78034 0.0
H4646 H 0.77443 0.96712 0.79205 0.0
H4647 H 0.7171 0.91351 0.75703 0.0
H4648 H 0.72135 0.89424 0.74062 0.0
H4649 H 0.71603 0.91474 0.73088 0.0
H4650 H 0.74681 0.91928 0.71472 0.0
H4651 H 0.7522 0.89839 0.72403 0.0
H4652 H 0.769 0.92028 0.72939 0.0
H4653 H 0.78116 0.93958 0.8047 0.0
H4654 H 0.77839 0.90831 0.81601 0.0
H4655 H 0.74511 0.88292 0.7609 0.0
C4656 C 0.73773 0.95228 0.74499 0.0
C4657 C 0.74013 0.97016 0.75574 0.0
C4658 C 0.75421 0.97587 0.77196 0.0
C4659 C 0.76484 0.96325 0.77859 0.0
C4660 C 0.76128 0.94513 0.76864 0.0
C4661 C 0.7484 0.93969 0.75183 0.0
C4662 C 0.74475 0.91862 0.74616 0.0
C4663 C 0.72356 0.90979 0.74356 0.0
C4664 C 0.75373 0.91386 0.72747 0.0
C4665 C 0.7552 0.91296 0.76401 0.0
C4666 C 0.76537 0.92854 0.77625 0.0
C4667 C 0.77393 0.92723 0.79495 0.0
C4668 C 0.77204 0.90956 0.80139 0.0
C4669 C 0.76152 0.89363 0.78922 0.0
C4670 C 0.75332 0.89515 0.77021 0.0
H4671 H 0.71874 0.94726 0.51066 0.0
H4672 H 0.70348 0.92574 0.56455 0.0
H4673 H 0.67638 0.94192 0.56336 0.0
H4674 H 0.70588 0.99238 0.51926 0.0
H4675 H 0.69659 0.99203 0.49389 0.0
H4676 H 0.71532 0.97978 0.49994 0.0
H4677 H 0.69522 0.94874 0.48108 0.0
H4678 H 0.67657 0.96097 0.47475 0.0
H4679 H 0.67191 0.94042 0.48733 0.0
H4680 H 0.64871 0.95855 0.55387 0.0
H4681 H 0.62416 0.97294 0.53696 0.0
H4682 H 0.65951 0.98447 0.49079 0.0
C4683 C 0.70975 0.94587 0.52226 0.0
C4684 C 0.71331 0.93515 0.53766 0.0
C4685 C 0.70123 0.93402 0.55266 0.0
C4686 C 0.68574 0.94313 0.55209 0.0
C4687 C 0.68259 0.95344 0.53649 0.0
C4688 C 0.69436 0.95482 0.52191 0.0
C4689 C 0.6876 0.96574 0.5061 0.0
C4690 C 0.70222 0.98354 0.50473 0.0
C4691 C 0.68253 0.95323 0.48614 0.0
C4692 C 0.67022 0.97047 0.514 0.0
C4693 C 0.66731 0.96321 0.53146 0.0
C4694 C 0.65105 0.9645 0.54034 0.0
C4695 C 0.63722 0.97282 0.53071 0.0
C4696 C 0.63981 0.97972 0.51244 0.0
C4697 C 0.65693 0.97916 0.50461 0.0
H4698 H 0.36347 0.41457 0.78534 0.0
H4699 H 0.35058 0.41624 0.72255 0.0
H4700 H 0.33009 0.38502 0.71963 0.0
H4701 H 0.36375 0.36549 0.78345 0.0
H4702 H 0.35247 0.36265 0.8054 0.0
H4703 H 0.36649 0.38504 0.80249 0.0
H4704 H 0.338 0.40084 0.80802 0.0
H4705 H 0.32396 0.37839 0.81079 0.0
H4706 H 0.31591 0.39221 0.79263 0.0
H4707 H 0.31207 0.35265 0.72303 0.0
H4708 H 0.29643 0.32257 0.73304 0.0
H4709 H 0.31819 0.34265 0.79393 0.0
C4710 C 0.35619 0.4086 0.77097 0.0
C4711 C 0.35908 0.41811 0.75414 0.0
C4712 C 0.34926 0.40932 0.73566 0.0
C4713 C 0.33735 0.39155 0.73384 0.0
C4714 C 0.33502 0.38262 0.75065 0.0
C4715 C 0.34399 0.39092 0.76891 0.0
C4716 C 0.33886 0.37834 0.78469 0.0
C4717 C 0.35644 0.37254 0.79458 0.0
C4718 C 0.32857 0.38802 0.79993 0.0
C4719 C 0.32571 0.36161 0.77242 0.0
C4720 C 0.32384 0.36434 0.75277 0.0
C4721 C 0.31326 0.3505 0.7384 0.0
C4722 C 0.30443 0.33345 0.74419 0.0
C4723 C 0.30588 0.33043 0.76423 0.0
C4724 C 0.31656 0.34477 0.77854 0.0
H4725 H 0.25072 0.6392 0.23481 0.0
H4726 H 0.23411 0.63203 0.29292 0.0
H4727 H 0.24052 0.66625 0.30169 0.0
H4728 H 0.28849 0.67802 0.25018 0.0
H4729 H 0.28418 0.69013 0.22917 0.0
H4730 H 0.27778 0.66491 0.22688 0.0
H4731 H 0.24345 0.66647 0.21402 0.0
H4732 H 0.24974 0.69173 0.21627 0.0
H4733 H 0.23067 0.68059 0.2285 0.0
H4734 H 0.25086 0.69991 0.30524 0.0
H4735 H 0.26525 0.73255 0.30331 0.0
H4736 H 0.27195 0.71899 0.24219 0.0
C4737 C 0.24863 0.64494 0.24939 0.0
C4738 C 0.24236 0.63321 0.26336 0.0
C4739 C 0.23952 0.64094 0.28228 0.0
C4740 C 0.24277 0.66027 0.28727 0.0
C4741 C 0.2487 0.67148 0.2731 0.0
C4742 C 0.2517 0.66423 0.2546 0.0
C4743 C 0.25885 0.67957 0.24252 0.0
C4744 C 0.27849 0.67806 0.23686 0.0
C4745 C 0.24483 0.67959 0.22425 0.0
C4746 C 0.25977 0.69646 0.25741 0.0
C4747 C 0.2537 0.6914 0.27485 0.0
C4748 C 0.25501 0.70423 0.29147 0.0
C4749 C 0.2629 0.72284 0.29024 0.0
C4750 C 0.26885 0.72838 0.27255 0.0
C4751 C 0.26722 0.71508 0.25587 0.0
H4752 H 0.52314 0.67484 0.5165 0.0
H4753 H 0.50089 0.65911 0.45492 0.0
H4754 H 0.50375 0.62644 0.45779 0.0
H4755 H 0.55653 0.64387 0.51986 0.0
H4756 H 0.55164 0.63667 0.54341 0.0
H4757 H 0.54791 0.65929 0.5374 0.0
H4758 H 0.51338 0.65106 0.54447 0.0
H4759 H 0.51706 0.62848 0.55067 0.0
H4760 H 0.49832 0.62984 0.53199 0.0
H4761 H 0.5096 0.59574 0.46598 0.0
H4762 H 0.51629 0.56765 0.47943 0.0
H4763 H 0.53449 0.60007 0.53695 0.0
C4764 C 0.5189 0.66449 0.50364 0.0
C4765 C 0.51176 0.66989 0.4853 0.0
C4766 C 0.50623 0.65564 0.46906 0.0
C4767 C 0.50788 0.63692 0.47055 0.0
C4768 C 0.51491 0.63207 0.48854 0.0
C4769 C 0.52011 0.64526 0.50498 0.0
C4770 C 0.52653 0.63551 0.52262 0.0
C4771 C 0.54687 0.64437 0.53133 0.0
C4772 C 0.51303 0.63627 0.53838 0.0
C4773 C 0.525 0.61514 0.51315 0.0
C4774 C 0.51801 0.61372 0.49351 0.0
C4775 C 0.51497 0.5967 0.48137 0.0
C4776 C 0.51886 0.58065 0.4893 0.0
C4777 C 0.52594 0.58115 0.50941 0.0
C4778 C 0.52921 0.59894 0.5215 0.0
H4779 H 0.66851 0.31535 0.68307 0.0
H4780 H 0.63665 0.25877 0.68275 0.0
H4781 H 0.66244 0.25142 0.7045 0.0
H4782 H 0.71407 0.30407 0.68262 0.0
H4783 H 0.7266 0.32374 0.69988 0.0
H4784 H 0.70526 0.32562 0.68518 0.0
H4785 H 0.69077 0.33478 0.71667 0.0
H4786 H 0.71216 0.33309 0.73146 0.0
H4787 H 0.6899 0.31968 0.73586 0.0
H4788 H 0.69165 0.24907 0.72526 0.0
H4789 H 0.72263 0.25213 0.74457 0.0
H4790 H 0.73787 0.30982 0.7325 0.0
C4791 C 0.6669 0.30147 0.68773 0.0
C4792 C 0.65038 0.28752 0.6806 0.0
C4793 C 0.64909 0.26962 0.68732 0.0
C4794 C 0.66371 0.2653 0.6999 0.0
C4795 C 0.67988 0.279 0.70609 0.0
C4796 C 0.68161 0.29682 0.70047 0.0
C4797 C 0.70084 0.3087 0.70943 0.0
C4798 C 0.71238 0.31596 0.69331 0.0
C4799 C 0.69826 0.32503 0.72423 0.0
C4800 C 0.70986 0.29444 0.72004 0.0
C4801 C 0.69718 0.27755 0.71815 0.0
C4802 C 0.70167 0.26224 0.72682 0.0
C4803 C 0.71941 0.26412 0.73781 0.0
C4804 C 0.73295 0.2811 0.74004 0.0
C4805 C 0.72805 0.29652 0.73087 0.0
H4806 H 0.03258 0.38455 0.9714 0.0
H4807 H 1.00172 0.36447 0.01836 0.0
H4808 H 1.00152 0.39712 0.03139 0.0
H4809 H 0.06153 0.42698 0.00169 0.0
H4810 H 0.06106 0.44134 0.9819 0.0
H4811 H 0.05956 0.41636 0.97655 0.0
H4812 H 0.02852 0.41379 0.95366 0.0
H4813 H 0.02988 0.43873 0.959 0.0
H4814 H 0.00916 0.42253 0.96317 0.0
H4815 H 1.00394 0.43252 0.03939 0.0
H4816 H 0.00874 0.46696 0.04146 0.0
H4817 H 0.03766 0.4655 0.98936 0.0
C4818 C 0.02594 0.38695 0.98456 0.0
C4819 C 0.01693 0.37142 0.99355 0.0
C4820 C 0.00838 0.37567 0.01072 0.0
C4821 C 0.00831 0.39436 0.01841 0.0
C4822 C 0.01692 0.40917 0.00901 0.0
C4823 C 0.0257 0.40571 0.9925 0.0
C4824 C 0.03364 0.42433 0.98508 0.0
C4825 C 0.05523 0.42743 0.98638 0.0
C4826 C 0.02477 0.42487 0.96397 0.0
C4827 C 0.02756 0.4387 0.99967 0.0
C4828 C 0.01811 0.42957 0.01347 0.0
C4829 C 0.01121 0.43969 0.02851 0.0
C4830 C 0.01387 0.45945 0.02947 0.0
C4831 C 0.02317 0.4694 0.01538 0.0
C4832 C 0.03027 0.45862 1.00034 0.0
H4833 H 0.98158 0.78774 0.19634 0.0
H4834 H 0.95326 0.78619 0.13758 0.0
H4835 H 0.92268 0.78398 0.15092 0.0
H4836 H 0.94746 0.75572 0.21468 0.0
H4837 H 0.94975 0.76858 0.2389 0.0
H4838 H 0.96934 0.77127 0.22476 0.0
H4839 H 0.97103 0.80724 0.22854 0.0
H4840 H 0.95114 0.80456 0.24239 0.0
H4841 H 0.95049 0.81633 0.22062 0.0
H4842 H 0.89459 0.77966 0.17055 0.0
H4843 H 0.87179 0.77149 0.19427 0.0
H4844 H 0.91807 0.77675 0.2405 0.0
C4845 C 0.96892 0.78708 0.18636 0.0
C4846 C 0.96981 0.78716 0.16586 0.0
C4847 C 0.95294 0.7863 0.1533 0.0
C4848 C 0.9355 0.78509 0.16078 0.0
C4849 C 0.93504 0.78515 0.18102 0.0
C4850 C 0.95135 0.78625 0.19368 0.0
C4851 C 0.94689 0.78566 0.21477 0.0
C4852 C 0.95376 0.76933 0.22379 0.0
C4853 C 0.9554 0.80457 0.22732 0.0
C4854 C 0.92547 0.78264 0.21182 0.0
C4855 C 0.91893 0.78296 0.19232 0.0
C4856 C 0.89961 0.77969 0.1859 0.0
C4857 C 0.88669 0.77526 0.19952 0.0
C4858 C 0.89306 0.7739 0.21935 0.0
C4859 C 0.91275 0.77818 0.22557 0.0
H4860 H 0.52273 0.35786 0.14506 0.0
H4861 H 0.53192 0.31627 0.09934 0.0
H4862 H 0.53393 0.33988 0.07593 0.0
H4863 H 0.49574 0.38404 0.11215 0.0
H4864 H 0.50659 0.40664 0.12546 0.0
H4865 H 0.50329 0.38607 0.13818 0.0
H4866 H 0.53893 0.39256 0.15065 0.0
H4867 H 0.54221 0.41329 0.13831 0.0
H4868 H 0.55578 0.39544 0.13313 0.0
H4869 H 0.53674 0.36852 0.05764 0.0
H4870 H 0.54463 0.40048 0.04774 0.0
H4871 H 0.53582 0.42437 0.10545 0.0
C4872 C 0.52482 0.35368 0.13001 0.0
C4873 C 0.52699 0.33506 0.12402 0.0
C4874 C 0.53016 0.33035 0.1043 0.0
C4875 C 0.53119 0.34367 0.09083 0.0
C4876 C 0.52916 0.36189 0.09717 0.0
C4877 C 0.52623 0.367 0.11637 0.0
C4878 C 0.52632 0.38799 0.11982 0.0
C4879 C 0.50683 0.39138 0.12416 0.0
C4880 C 0.54173 0.3979 0.13646 0.0
C4881 C 0.53068 0.39399 0.09994 0.0
C4882 C 0.53157 0.3786 0.08686 0.0
C4883 C 0.53592 0.38063 0.06775 0.0
C4884 C 0.54023 0.39886 0.06215 0.0
C4885 C 0.5405 0.41493 0.07565 0.0
C4886 C 0.53527 0.41234 0.09466 0.0
H4887 H 0.93542 0.31008 0.28855 0.0
H4888 H 0.93433 0.26593 0.32659 0.0
H4889 H 0.89997 0.2591 0.32124 0.0
H4890 H 0.89495 0.32719 0.30341 0.0
H4891 H 0.88508 0.33059 0.27924 0.0
H4892 H 0.9101 0.33202 0.28459 0.0
H4893 H 0.9091 0.30655 0.25534 0.0
H4894 H 0.8841 0.3052 0.24986 0.0
H4895 H 0.89309 0.28431 0.25391 0.0
H4896 H 0.86636 0.25719 0.31403 0.0
H4897 H 0.83392 0.25948 0.30446 0.0
H4898 H 0.85281 0.30477 0.27014 0.0
C4899 C 0.92793 0.29894 0.2957 0.0
C4900 C 0.9381 0.28841 0.30792 0.0
C4901 C 0.92741 0.27399 0.31684 0.0
C4902 C 0.90767 0.27004 0.31401 0.0
C4903 C 0.89822 0.28051 0.30209 0.0
C4904 C 0.90778 0.2946 0.29286 0.0
C4905 C 0.89342 0.3034 0.28077 0.0
C4906 C 0.89605 0.32456 0.28741 0.0
C4907 C 0.89503 0.29965 0.25866 0.0
C4908 C 0.87451 0.29266 0.28565 0.0
C4909 C 0.87798 0.27936 0.29774 0.0
C4910 C 0.86345 0.26747 0.30448 0.0
C4911 C 0.84484 0.26892 0.2988 0.0
C4912 C 0.84027 0.28222 0.28633 0.0
C4913 C 0.85554 0.29445 0.27973 0.0
H4914 H 0.02132 0.66588 0.59183 0.0
H4915 H 0.01482 0.64407 0.64754 0.0
H4916 H 0.01466 0.6121 0.63167 0.0
H4917 H 0.99204 0.62474 0.56031 0.0
H4918 H 1.00702 0.62563 0.54097 0.0
H4919 H 1.00577 0.64691 0.55616 0.0
H4920 H 0.04191 0.65362 0.56521 0.0
H4921 H 0.04323 0.63238 0.55005 0.0
H4922 H 0.05298 0.63608 0.57561 0.0
H4923 H 0.0148 0.58242 0.61023 0.0
H4924 H 0.01726 0.5569 0.58521 0.0
H4925 H 0.02578 0.59672 0.54253 0.0
C4926 C 0.01973 0.6543 0.60058 0.0
C4927 C 0.01792 0.65751 0.62104 0.0
C4928 C 0.01612 0.642 0.63196 0.0
C4929 C 0.016 0.62376 0.62302 0.0
C4930 C 0.01784 0.62099 0.60299 0.0
C4931 C 0.01979 0.63579 0.59182 0.0
C4932 C 0.02215 0.62868 0.57064 0.0
C4933 C 1.00577 0.63168 0.55617 0.0
C4934 C 0.04121 0.63826 0.56506 0.0
C4935 C 0.02142 0.60772 0.57182 0.0
C4936 C 0.01865 0.6037 0.59061 0.0
C4937 C 0.01706 0.58545 0.59549 0.0
C4938 C 0.01849 0.57093 0.58099 0.0
C4939 C 0.02181 0.57441 0.56156 0.0
C4940 C 0.0232 0.59326 0.55703 0.0
H4941 H 0.64648 0.8157 0.79358 0.0
H4942 H 0.63769 0.77274 0.83277 0.0
H4943 H 0.66839 0.76497 0.82752 0.0
H4944 H 0.67024 0.78829 0.75904 0.0
H4945 H 0.68676 0.80833 0.75393 0.0
H4946 H 0.66395 0.81111 0.76042 0.0
H4947 H 0.67989 0.83668 0.78893 0.0
H4948 H 0.70274 0.83396 0.78254 0.0
H4949 H 0.69712 0.83141 0.80716 0.0
H4950 H 0.70017 0.76163 0.81915 0.0
H4951 H 0.73116 0.76267 0.80755 0.0
H4952 H 0.72159 0.80676 0.77239 0.0
C4953 C 0.65107 0.80471 0.80111 0.0
C4954 C 0.63925 0.7948 0.81368 0.0
C4955 C 0.64603 0.78045 0.82297 0.0
C4956 C 0.66362 0.77594 0.82012 0.0
C4957 C 0.67476 0.78571 0.8077 0.0
C4958 C 0.66883 0.79975 0.79817 0.0
C4959 C 0.6838 0.80754 0.78523 0.0
C4960 C 0.67571 0.80359 0.76336 0.0
C4961 C 0.69133 0.82865 0.79134 0.0
C4962 C 0.69919 0.79613 0.78961 0.0
C4963 C 0.69337 0.78351 0.80249 0.0
C4964 C 0.70473 0.77132 0.80889 0.0
C4965 C 0.72236 0.77184 0.802 0.0
C4966 C 0.72893 0.78436 0.78865 0.0
C4967 C 0.71712 0.79691 0.78253 0.0
H4968 H 0.47006 0.54233 0.65673 0.0
H4969 H 0.49688 0.49821 0.67729 0.0
H4970 H 0.51337 0.49731 0.64787 0.0
H4971 H 0.46175 0.52533 0.60614 0.0
H4972 H 0.46797 0.54772 0.59707 0.0
H4973 H 0.45929 0.5466 0.62061 0.0
H4974 H 0.48913 0.57013 0.63726 0.0
H4975 H 0.49785 0.57138 0.6137 0.0
H4976 H 0.51202 0.56508 0.634 0.0
H4977 H 0.5288 0.50252 0.61834 0.0
H4978 H 0.53871 0.50955 0.58672 0.0
H4979 H 0.49843 0.54604 0.58025 0.0
C4980 C 0.47955 0.53262 0.65508 0.0
C4981 C 0.48204 0.52021 0.66938 0.0
C4982 C 0.4945 0.50765 0.66655 0.0
C4983 C 0.50409 0.50715 0.64994 0.0
C4984 C 0.50118 0.5193 0.63611 0.0
C4985 C 0.48918 0.53176 0.63828 0.0
C4986 C 0.48838 0.54272 0.62052 0.0
C4987 C 0.46813 0.54044 0.61049 0.0
C4988 C 0.49737 0.56356 0.62674 0.0
C4989 C 0.50061 0.53334 0.60747 0.0
C4990 C 0.50854 0.52065 0.61744 0.0
C4991 C 0.52205 0.51177 0.60999 0.0
C4992 C 0.52731 0.51552 0.59164 0.0
C4993 C 0.51828 0.52698 0.57999 0.0
C4994 C 0.5049 0.53638 0.58826 0.0
H4995 H 0.76386 0.20652 0.97252 0.0
H4996 H 0.79506 0.16609 0.94856 0.0
H4997 H 0.79798 0.18247 0.9191 0.0
H4998 H 0.73563 0.20516 0.9307 0.0
H4999 H 0.73366 0.22952 0.93385 0.0
H5000 H 0.73881 0.21806 0.95499 0.0
H5001 H 0.76884 0.2439 0.9657 0.0
H5002 H 0.76398 0.2552 0.94416 0.0
H5003 H 0.78635 0.24827 0.94908 0.0
H5004 H 0.79171 0.19839 0.89003 0.0
H5005 H 0.7747 0.21101 0.86309 0.0
H5006 H 0.74688 0.24037 0.90555 0.0
C5007 C 0.77171 0.20142 0.96127 0.0
C5008 C 0.77938 0.18524 0.96278 0.0
C5009 C 0.78943 0.17878 0.94779 0.0
C5010 C 0.79123 0.18802 0.93107 0.0
C5011 C 0.78297 0.20368 0.92972 0.0
C5012 C 0.77338 0.21031 0.94446 0.0
C5013 C 0.76274 0.22496 0.93809 0.0
C5014 C 0.74147 0.21905 0.93948 0.0
C5015 C 0.77098 0.24423 0.94996 0.0
C5016 C 0.76675 0.2246 0.91702 0.0
C5017 C 0.77896 0.21274 0.9126 0.0
C5018 C 0.78253 0.20808 0.89337 0.0
C5019 C 0.77276 0.21514 0.87821 0.0
C5020 C 0.75944 0.22632 0.88257 0.0
C5021 C 0.75704 0.23176 0.90212 0.0
H5022 H 0.11426 0.55978 0.15338 0.0
H5023 H 0.12649 0.50354 0.14882 0.0
H5024 H 0.10284 0.49398 0.11968 0.0
H5025 H 0.06627 0.54856 0.14022 0.0
H5026 H 0.06468 0.56695 0.12486 0.0
H5027 H 0.08348 0.57022 0.14476 0.0
H5028 H 0.10844 0.57704 0.1207 0.0
H5029 H 0.0897 0.57452 0.10085 0.0
H5030 H 0.1076 0.56055 0.09911 0.0
H5031 H 0.07654 0.4896 0.09406 0.0
H5032 H 0.05378 0.49268 0.0661 0.0
H5033 H 0.05929 0.55191 0.08654 0.0
C5034 C 0.11234 0.54566 0.14585 0.0
C5035 C 0.12167 0.53221 0.15336 0.0
C5036 C 0.119 0.51383 0.1433 0.0
C5037 C 0.10562 0.50827 0.1269 0.0
C5038 C 0.09559 0.52146 0.12071 0.0
C5039 C 0.09927 0.53995 0.12926 0.0
C5040 C 0.08692 0.55139 0.11904 0.0
C5041 C 0.07461 0.55976 0.13307 0.0
C5042 C 0.09887 0.56678 0.10934 0.0
C5043 C 0.0753 0.53618 0.10393 0.0
C5044 C 0.08047 0.51902 0.10534 0.0
C5045 C 0.07234 0.50292 0.09261 0.0
C5046 C 0.05942 0.50473 0.07702 0.0
C5047 C 0.05507 0.52246 0.07462 0.0
C5048 C 0.06227 0.53817 0.08859 0.0
H5049 H 0.79436 0.80315 0.43013 0.0
H5050 H 0.77033 0.85288 0.42458 0.0
H5051 H 0.76814 0.84676 0.38865 0.0
H5052 H 0.822 0.80649 0.38998 0.0
H5053 H 0.81682 0.78186 0.38068 0.0
H5054 H 0.81613 0.78912 0.40639 0.0
H5055 H 0.7819 0.77065 0.40386 0.0
H5056 H 0.78256 0.76319 0.37818 0.0
H5057 H 0.76433 0.77513 0.38552 0.0
H5058 H 0.77111 0.8381 0.35449 0.0
H5059 H 0.77521 0.82491 0.32171 0.0
H5060 H 0.79495 0.77818 0.34581 0.0
C5061 C 0.78855 0.81263 0.42126 0.0
C5062 C 0.78244 0.82856 0.43033 0.0
C5063 C 0.77487 0.84053 0.41816 0.0
C5064 C 0.77366 0.83722 0.39766 0.0
C5065 C 0.77989 0.82169 0.38922 0.0
C5066 C 0.78686 0.80928 0.4004 0.0
C5067 C 0.79206 0.79346 0.38687 0.0
C5068 C 0.81301 0.7927 0.39125 0.0
C5069 C 0.77946 0.77448 0.38872 0.0
C5070 C 0.78774 0.7996 0.36654 0.0
C5071 C 0.7807 0.81594 0.3686 0.0
C5072 C 0.77624 0.82511 0.35261 0.0
C5073 C 0.77861 0.81734 0.33388 0.0
C5074 C 0.78496 0.80013 0.33076 0.0
C5075 C 0.78991 0.79124 0.34752 0.0
H5076 H 0.47727 0.49961 0.87316 0.0
H5077 H 0.50027 0.55768 0.86663 0.0
H5078 H 0.51508 0.56267 0.901 0.0
H5079 H 0.4669 0.50724 0.92201 0.0
H5080 H 0.47386 0.48639 0.92972 0.0
H5081 H 0.46566 0.48695 0.90425 0.0
H5082 H 0.49654 0.47816 0.89408 0.0
H5083 H 0.50478 0.47753 0.91956 0.0
H5084 H 0.51887 0.49235 0.90497 0.0
H5085 H 0.52581 0.56217 0.93701 0.0
H5086 H 0.53227 0.55574 0.97139 0.0
H5087 H 0.504 0.49777 0.95489 0.0
C5088 C 0.48568 0.51331 0.87875 0.0
C5089 C 0.48727 0.52829 0.86689 0.0
C5090 C 0.49829 0.54602 0.87524 0.0
C5091 C 0.50699 0.54897 0.89482 0.0
C5092 C 0.50486 0.53405 0.90609 0.0
C5093 C 0.49464 0.51649 0.89832 0.0
C5094 C 0.49427 0.50295 0.91381 0.0
C5095 C 0.47396 0.49544 0.91767 0.0
C5096 C 0.50421 0.48679 0.90774 0.0
C5097 C 0.50547 0.51573 0.9316 0.0
C5098 C 0.51152 0.53361 0.92674 0.0
C5099 C 0.52136 0.54815 0.94084 0.0
C5100 C 0.52499 0.54438 0.96036 0.0
C5101 C 0.51896 0.52622 0.96572 0.0
C5102 C 0.50918 0.51167 0.95109 0.0
H5103 H 0.77 0.17932 0.15643 0.0
H5104 H 0.79032 0.21986 0.1178 0.0
H5105 H 0.79977 0.24458 0.14639 0.0
H5106 H 0.75045 0.20938 0.18799 0.0
H5107 H 0.75737 0.19955 0.20993 0.0
H5108 H 0.75319 0.18523 0.18647 0.0
H5109 H 0.78677 0.17788 0.19239 0.0
H5110 H 0.79113 0.19258 0.21572 0.0
H5111 H 0.80691 0.19696 0.19739 0.0
H5112 H 0.80579 0.26442 0.1784 0.0
H5113 H 0.80513 0.27933 0.21199 0.0
H5114 H 0.78141 0.22509 0.22898 0.0
C5115 C 0.77634 0.19347 0.15416 0.0
C5116 C 0.77943 0.19817 0.13541 0.0
C5117 C 0.78789 0.2165 0.13242 0.0
C5118 C 0.79343 0.23039 0.14844 0.0
C5119 C 0.79058 0.2253 0.16698 0.0
C5120 C 0.78216 0.20734 0.16993 0.0
C5121 C 0.77987 0.20575 0.19117 0.0
C5122 C 0.75898 0.19964 0.19404 0.0
C5123 C 0.7919 0.19251 0.19966 0.0
C5124 C 0.78761 0.22583 0.19953 0.0
C5125 C 0.79404 0.2368 0.18547 0.0
C5126 C 0.80072 0.25605 0.18958 0.0
C5127 C 0.79997 0.26442 0.20852 0.0
C5128 C 0.79218 0.25352 0.22262 0.0
C5129 C 0.78694 0.23391 0.21836 0.0
H5130 H 0.10528 0.52121 0.33269 0.0
H5131 H 0.15644 0.56197 0.35373 0.0
H5132 H 0.14772 0.56317 0.38744 0.0
H5133 H 0.07624 0.54257 0.35639 0.0
H5134 H 0.06116 0.52204 0.36268 0.0
H5135 H 0.07397 0.52002 0.34192 0.0
H5136 H 0.08864 0.49408 0.35694 0.0
H5137 H 0.07615 0.49649 0.37813 0.0
H5138 H 0.1014 0.49894 0.38132 0.0
H5139 H 0.13212 0.56437 0.4164 0.0
H5140 H 0.10782 0.5711 0.43699 0.0
H5141 H 0.06527 0.53155 0.39743 0.0
C5142 C 0.11475 0.52991 0.34466 0.0
C5143 C 0.13151 0.54136 0.34107 0.0
C5144 C 0.14356 0.55309 0.35656 0.0
C5145 C 0.1389 0.55356 0.37571 0.0
C5146 C 0.12217 0.54222 0.37897 0.0
C5147 C 0.11009 0.53079 0.36384 0.0
C5148 C 0.09135 0.52308 0.37053 0.0
C5149 C 0.07473 0.52722 0.35709 0.0
C5150 C 0.08927 0.50189 0.37182 0.0
C5151 C 0.09394 0.53405 0.39082 0.0
C5152 C 0.11231 0.5438 0.3959 0.0
C5153 C 0.1178 0.55658 0.41286 0.0
C5154 C 0.10396 0.56043 0.42434 0.0
C5155 C 0.08495 0.55191 0.41838 0.0
C5156 C 0.07989 0.53802 0.40204 0.0
H5157 H 0.80196 0.85235 0.64991 0.0
H5158 H 0.76941 0.80364 0.61186 0.0
H5159 H 0.76138 0.78823 0.64097 0.0
H5160 H 0.82104 0.82683 0.68747 0.0
H5161 H 0.81911 0.84382 0.70772 0.0
H5162 H 0.82251 0.85118 0.68391 0.0
H5163 H 0.79253 0.86557 0.6841 0.0
H5164 H 0.78888 0.858 0.7078 0.0
H5165 H 0.77051 0.85095 0.6874 0.0
H5166 H 0.75335 0.77993 0.67355 0.0
H5167 H 0.75183 0.77545 0.70821 0.0
H5168 H 0.79295 0.82686 0.72632 0.0
C5169 C 0.79339 0.83833 0.64776 0.0
C5170 C 0.78611 0.82928 0.62856 0.0
C5171 C 0.77483 0.81099 0.62637 0.0
C5172 C 0.77018 0.80212 0.64282 0.0
C5173 C 0.77697 0.81165 0.66147 0.0
C5174 C 0.78864 0.82916 0.66414 0.0
C5175 C 0.794 0.83606 0.68599 0.0
C5176 C 0.81544 0.83968 0.6916 0.0
C5177 C 0.78601 0.8537 0.69165 0.0
C5178 C 0.78403 0.81941 0.69509 0.0
C5179 C 0.77381 0.80585 0.68055 0.0
C5180 C 0.76203 0.79 0.68502 0.0
C5181 C 0.76154 0.78735 0.7048 0.0
C5182 C 0.77354 0.79972 0.72002 0.0
C5183 C 0.78424 0.81656 0.7151 0.0
H5184 H 0.70986 0.45753 0.51393 0.0
H5185 H 0.72782 0.50448 0.48197 0.0
H5186 H 0.69798 0.5155 0.48643 0.0
H5187 H 0.65821 0.44992 0.49858 0.0
H5188 H 0.65316 0.445 0.52287 0.0
H5189 H 0.67379 0.43892 0.51348 0.0
H5190 H 0.69486 0.4583 0.54407 0.0
H5191 H 0.67445 0.46445 0.5536 0.0
H5192 H 0.69375 0.48268 0.55002 0.0
H5193 H 0.67026 0.52428 0.50029 0.0
H5194 H 0.64634 0.53032 0.52154 0.0
H5195 H 0.64588 0.4764 0.54322 0.0
C5196 C 0.70715 0.46982 0.50739 0.0
C5197 C 0.72067 0.4803 0.49764 0.0
C5198 C 0.71724 0.49641 0.48939 0.0
C5199 C 0.70042 0.50261 0.49178 0.0
C5200 C 0.68748 0.49224 0.50217 0.0
C5201 C 0.69065 0.4761 0.5097 0.0
C5202 C 0.67617 0.46895 0.52269 0.0
C5203 C 0.66464 0.44955 0.51386 0.0
C5204 C 0.68536 0.46859 0.54383 0.0
C5205 C 0.66457 0.48394 0.5219 0.0
C5206 C 0.67118 0.49716 0.50987 0.0
C5207 C 0.66449 0.51373 0.50917 0.0
C5208 C 0.65089 0.51699 0.52132 0.0
C5209 C 0.6441 0.50364 0.53386 0.0
C5210 C 0.65074 0.48676 0.53373 0.0
H5211 H 0.15669 0.11237 0.48779 0.0
H5212 H 0.19015 0.09335 0.53462 0.0
H5213 H 0.1622 0.071 0.54074 0.0
H5214 H 0.11586 0.11158 0.51126 0.0
H5215 H 0.09906 0.10272 0.48977 0.0
H5216 H 0.12196 0.11592 0.48715 0.0
H5217 H 0.12785 0.0885 0.46315 0.0
H5218 H 0.10484 0.07528 0.46554 0.0
H5219 H 0.12542 0.06531 0.47067 0.0
H5220 H 0.13104 0.05255 0.54373 0.0
H5221 H 0.09776 0.03816 0.54329 0.0
H5222 H 0.08277 0.06875 0.49505 0.0
C5223 C 0.15811 0.10322 0.49906 0.0
C5224 C 0.1756 0.10465 0.51083 0.0
C5225 C 0.17689 0.09261 0.52559 0.0
C5226 C 0.16111 0.07981 0.52911 0.0
C5227 C 0.14401 0.07909 0.51773 0.0
C5228 C 0.14231 0.09031 0.5029 0.0
C5229 C 0.12188 0.08712 0.49361 0.0
C5230 C 0.11424 0.10543 0.49557 0.0
C5231 C 0.11989 0.07855 0.47196 0.0
C5232 C 0.11238 0.07299 0.50613 0.0
C5233 C 0.12559 0.06838 0.51966 0.0
C5234 C 0.12056 0.05588 0.53307 0.0
C5235 C 0.10154 0.04774 0.53267 0.0
C5236 C 0.08756 0.05216 0.51905 0.0
C5237 C 0.09311 0.06506 0.50562 0.0
H5238 H 0.2043 0.95621 0.80629 0.0
H5239 H 0.1675 0.9497 0.75138 0.0
H5240 H 0.17709 0.92002 0.74098 0.0
H5241 H 0.24179 0.94191 0.78783 0.0
H5242 H 0.24819 0.92849 0.80714 0.0
H5243 H 0.23586 0.94726 0.81234 0.0
H5244 H 0.20991 0.92415 0.82541 0.0
H5245 H 0.22214 0.90521 0.82003 0.0
H5246 H 0.19793 0.90308 0.80989 0.0
H5247 H 0.19344 0.89449 0.73392 0.0
H5248 H 0.21721 0.87476 0.72995 0.0
H5249 H 0.2442 0.89633 0.78895 0.0
C5250 C 0.19794 0.94816 0.79237 0.0
C5251 C 0.18514 0.95516 0.77958 0.0
C5252 C 0.17734 0.94455 0.76131 0.0
C5253 C 0.18257 0.9276 0.75536 0.0
C5254 C 0.19553 0.92123 0.76791 0.0
C5255 C 0.20311 0.93103 0.78611 0.0
C5256 C 0.21822 0.92177 0.79567 0.0
C5257 C 0.23713 0.9357 0.80104 0.0
C5258 C 0.21166 0.91304 0.81383 0.0
C5259 C 0.21915 0.90654 0.77915 0.0
C5260 C 0.20534 0.90608 0.76366 0.0
C5261 C 0.20408 0.8944 0.74606 0.0
C5262 C 0.21764 0.8833 0.74389 0.0
C5263 C 0.23232 0.88401 0.75918 0.0
C5264 C 0.23282 0.89536 0.77724 0.0
H5265 H 0.39835 1.00059 0.04135 0.0
H5266 H 0.3857 0.97874 0.97934 0.0
H5267 H 0.41951 0.98196 0.97659 0.0
H5268 H 0.43935 0.03501 0.03692 0.0
H5269 H 0.45172 0.03138 0.05982 0.0
H5270 H 0.4264 0.02717 0.05655 0.0
H5271 H 0.4259 0.99326 0.06551 0.0
H5272 H 0.45127 0.99742 0.06804 0.0
H5273 H 0.43771 0.97787 0.05135 0.0
H5274 H 0.45343 0.9849 0.98083 0.0
H5275 H 0.4875 0.9968 0.98946 0.0
H5276 H 0.47847 0.01872 0.04786 0.0
C5277 C 0.40283 0.99689 0.02717 0.0
C5278 C 0.3897 0.98953 0.01056 0.0
C5279 C 0.39574 0.98471 0.99214 0.0
C5280 C 0.4148 0.98606 0.99052 0.0
C5281 C 0.42735 0.99226 0.00746 0.0
C5282 C 0.42178 0.99819 0.02527 0.0
C5283 C 0.43836 1.00539 0.04084 0.0
C5284 C 0.439 0.02597 0.04899 0.0
C5285 C 0.43829 0.99272 0.05741 0.0
C5286 C 0.45409 1.00341 0.02864 0.0
C5287 C 0.44732 0.99492 0.00971 0.0
C5288 C 0.45898 0.99168 0.99552 0.0
C5289 C 0.47814 0.99848 1.00046 0.0
C5290 C 0.48495 0.00886 0.01901 0.0
C5291 C 0.47317 0.01073 0.03362 0.0
H5292 H 0.84848 0.59639 0.78031 0.0
H5293 H 0.8157 0.5915 0.82945 0.0
H5294 H 0.80545 0.6214 0.82352 0.0
H5295 H 0.86268 0.64665 0.78385 0.0
H5296 H 0.85891 0.64665 0.75753 0.0
H5297 H 0.86577 0.62674 0.7676 0.0
H5298 H 0.83658 0.60438 0.74771 0.0
H5299 H 0.82986 0.62405 0.73718 0.0
H5300 H 0.8135 0.60942 0.74984 0.0
H5301 H 0.79557 0.64873 0.80879 0.0
H5302 H 0.78602 0.67062 0.78641 0.0
H5303 H 0.82607 0.65662 0.74749 0.0
C5304 C 0.83932 0.60175 0.79002 0.0
C5305 C 0.83265 0.59191 0.80521 0.0
C5306 C 0.82085 0.59915 0.81776 0.0
C5307 C 0.81508 0.616 0.81451 0.0
C5308 C 0.82151 0.62509 0.79885 0.0
C5309 C 0.83331 0.61808 0.7868 0.0
C5310 C 0.83632 0.62864 0.7694 0.0
C5311 C 0.85716 0.63773 0.76964 0.0
C5312 C 0.82861 0.61586 0.74991 0.0
C5313 C 0.82444 0.64296 0.7735 0.0
C5314 C 0.81596 0.64078 0.79049 0.0
C5315 C 0.80243 0.6509 0.79573 0.0
C5316 C 0.79711 0.66322 0.78296 0.0
C5317 C 0.80535 0.66509 0.76527 0.0
C5318 C 0.81955 0.65532 0.76089 0.0
H5319 H 0.85027 0.60178 0.99416 0.0
H5320 H 0.8662 0.64955 0.0395 0.0
H5321 H 0.89693 0.64091 0.0475 0.0
H5322 H 0.86767 0.56977 0.01947 0.0
H5323 H 0.87699 0.55785 0.99957 0.0
H5324 H 0.85796 0.56983 0.99429 0.0
H5325 H 0.87773 0.58921 0.97142 0.0
H5326 H 0.89699 0.57744 0.97699 0.0
H5327 H 0.90075 0.60271 0.98096 0.0
H5328 H 0.92344 0.6255 0.05413 0.0
H5329 H 0.94283 0.60208 0.0614 0.0
H5330 H 0.91054 0.5631 0.01295 0.0
C5331 C 0.86053 0.61064 0.00534 0.0
C5332 C 0.85599 0.62643 0.01616 0.0
C5333 C 0.86948 0.63747 0.03103 0.0
C5334 C 0.88704 0.63277 0.03555 0.0
C5335 C 0.89106 0.61699 0.025 0.0
C5336 C 0.87826 0.606 0.01018 0.0
C5337 C 0.88546 0.58854 0.00291 0.0
C5338 C 0.87116 0.57044 0.00416 0.0
C5339 C 0.89053 0.58953 0.98182 0.0
C5340 C 0.90313 0.59051 0.01742 0.0
C5341 C 0.90655 0.60756 0.02928 0.0
C5342 C 0.92116 0.61225 0.04473 0.0
C5343 C 0.93209 0.5989 0.04878 0.0
C5344 C 0.92821 0.581 0.03761 0.0
C5345 C 0.91395 0.57691 0.02137 0.0
H5346 H 0.22915 0.13395 0.78288 0.0
H5347 H 0.17744 0.1481 0.80048 0.0
H5348 H 0.1908 0.1818 0.8009 0.0
H5349 H 0.26076 0.17527 0.81306 0.0
H5350 H 0.27704 0.17854 0.79505 0.0
H5351 H 0.26404 0.15536 0.79695 0.0
H5352 H 0.2512 0.15169 0.76003 0.0
H5353 H 0.26412 0.17484 0.75805 0.0
H5354 H 0.23903 0.16904 0.75084 0.0
H5355 H 0.20867 0.21322 0.79908 0.0
H5356 H 0.22996 0.24188 0.79437 0.0
H5357 H 0.27097 0.20903 0.77651 0.0
C5358 C 0.22082 0.14426 0.78698 0.0
C5359 C 0.20229 0.13857 0.79181 0.0
C5360 C 0.19168 0.15229 0.79696 0.0
C5361 C 0.19916 0.17141 0.79722 0.0
C5362 C 0.21738 0.17667 0.79243 0.0
C5363 C 0.22821 0.16363 0.78747 0.0
C5364 C 0.24735 0.17349 0.78274 0.0
C5365 C 0.26324 0.17048 0.79784 0.0
C5366 C 0.2506 0.16687 0.76165 0.0
C5367 C 0.24514 0.19396 0.78501 0.0
C5368 C 0.22783 0.19528 0.79101 0.0
C5369 C 0.22229 0.21241 0.79444 0.0
C5370 C 0.23466 0.22872 0.79167 0.0
C5371 C 0.25249 0.22808 0.78514 0.0
C5372 C 0.25773 0.21029 0.78178 0.0
H5373 H 0.30706 0.91051 0.25827 0.0
H5374 H 0.33806 0.92186 0.31692 0.0
H5375 H 0.33712 0.8881 0.31751 0.0
H5376 H 0.27578 0.86867 0.26708 0.0
H5377 H 0.27535 0.85713 0.24252 0.0
H5378 H 0.27943 0.88233 0.2469 0.0
H5379 H 0.31031 0.88346 0.23063 0.0
H5380 H 0.30668 0.85815 0.22731 0.0
H5381 H 0.32821 0.87184 0.24072 0.0
H5382 H 0.3359 0.85488 0.31093 0.0
H5383 H 0.32182 0.82155 0.30467 0.0
H5384 H 0.28825 0.83043 0.25243 0.0
C5385 C 0.31328 0.90571 0.27131 0.0
C5386 C 0.32274 0.91851 0.28745 0.0
C5387 C 0.33067 0.91208 0.30446 0.0
C5388 C 0.33063 0.89306 0.30474 0.0
C5389 C 0.32249 0.88091 0.28797 0.0
C5390 C 0.31308 0.88672 0.27202 0.0
C5391 C 0.30363 0.87029 0.25696 0.0
C5392 C 0.28228 0.86955 0.25317 0.0
C5393 C 0.31275 0.87099 0.23777 0.0
C5394 C 0.30832 0.85431 0.26762 0.0
C5395 C 0.32039 0.86102 0.28474 0.0
C5396 C 0.32658 0.84936 0.29753 0.0
C5397 C 0.31882 0.83037 0.29368 0.0
C5398 C 0.30448 0.82355 0.27796 0.0
C5399 C 0.29982 0.83532 0.26407 0.0
H5400 H 0.55048 0.38242 0.53047 0.0
H5401 H 0.54952 0.39234 0.59356 0.0
H5402 H 0.5462 0.42495 0.59068 0.0
H5403 H 0.5763 0.42989 0.52486 0.0
H5404 H 0.5629 0.43169 0.50189 0.0
H5405 H 0.56583 0.40897 0.5083 0.0
H5406 H 0.52973 0.39771 0.50372 0.0
H5407 H 0.5267 0.42044 0.49741 0.0
H5408 H 0.51538 0.41078 0.51726 0.0
H5409 H 0.54406 0.45651 0.58218 0.0
H5410 H 0.54159 0.48553 0.56824 0.0
H5411 H 0.54098 0.45769 0.50956 0.0
C5412 C 0.54966 0.39155 0.54365 0.0
C5413 C 0.55039 0.38461 0.56244 0.0
C5414 C 0.54906 0.3971 0.57914 0.0
C5415 C 0.54716 0.41575 0.57762 0.0
C5416 C 0.54635 0.42212 0.55916 0.0
C5417 C 0.54744 0.41051 0.54234 0.0
C5418 C 0.54575 0.42143 0.52439 0.0
C5419 C 0.56377 0.42309 0.51426 0.0
C5420 C 0.52835 0.41202 0.50983 0.0
C5421 C 0.5435 0.44082 0.53388 0.0
C5422 C 0.54418 0.44066 0.55401 0.0
C5423 C 0.54335 0.45669 0.56642 0.0
C5424 C 0.54193 0.47333 0.55832 0.0
C5425 C 0.54086 0.47439 0.53785 0.0
C5426 C 0.54149 0.4576 0.52532 0.0
H5427 H 0.40514 0.74105 0.35128 0.0
H5428 H 0.41467 0.79497 0.38776 0.0
H5429 H 0.38716 0.80274 0.36952 0.0
H5430 H 0.3886 0.75702 0.30549 0.0
H5431 H 0.37007 0.73684 0.29732 0.0
H5432 H 0.39061 0.73447 0.31309 0.0
H5433 H 0.36949 0.72064 0.33811 0.0
H5434 H 0.34887 0.72285 0.32236 0.0
H5435 H 0.3528 0.73358 0.34758 0.0
H5436 H 0.35985 0.80616 0.34771 0.0
H5437 H 0.33195 0.80413 0.32433 0.0
H5438 H 0.33661 0.74825 0.30004 0.0
C5439 C 0.40133 0.75443 0.35549 0.0
C5440 C 0.41273 0.76758 0.37092 0.0
C5441 C 0.40689 0.78481 0.37582 0.0
C5442 C 0.39106 0.78937 0.36556 0.0
C5443 C 0.38059 0.77656 0.35027 0.0
C5444 C 0.38517 0.75931 0.34524 0.0
C5445 C 0.37081 0.74835 0.32809 0.0
C5446 C 0.38062 0.74391 0.30992 0.0
C5447 C 0.35984 0.73028 0.33441 0.0
C5448 C 0.35781 0.76237 0.32431 0.0
C5449 C 0.36399 0.77846 0.33746 0.0
C5450 C 0.35485 0.79359 0.33737 0.0
C5451 C 0.33888 0.79236 0.32375 0.0
C5452 C 0.33174 0.77622 0.31003 0.0
C5453 C 0.34156 0.76091 0.31027 0.0
H5454 H 0.03204 0.6768 0.03371 0.0
H5455 H 0.07174 0.68549 0.08684 0.0
H5456 H 0.07325 0.65202 0.08281 0.0
H5457 H 1.00678 0.63034 0.04046 0.0
H5458 H 1.00428 0.62059 0.01497 0.0
H5459 H 1.00602 0.64547 0.02138 0.0
H5460 H 0.03424 0.65221 0.00151 0.0
H5461 H 0.03259 0.62733 0.99507 0.0
H5462 H 0.05445 0.64174 0.00693 0.0
H5463 H 0.07005 0.61745 0.07467 0.0
H5464 H 0.06261 0.58368 0.06223 0.0
H5465 H 0.02621 0.59488 0.01287 0.0
C5466 C 0.04104 0.67164 0.04449 0.0
C5467 C 0.05194 0.68427 0.06065 0.0
C5468 C 0.06349 0.67659 0.07422 0.0
C5469 C 0.06439 0.6574 0.07209 0.0
C5470 C 0.05379 0.64549 0.05613 0.0
C5471 C 0.04237 0.6522 0.0424 0.0
C5472 C 0.0327 0.6359 0.02654 0.0
C5473 C 0.01116 0.6329 0.0258 0.0
C5474 C 0.03886 0.63952 0.00631 0.0
C5475 C 0.04018 0.6191 0.03388 0.0
C5476 C 0.05236 0.62519 0.051 0.0
C5477 C 0.06071 0.61259 0.06114 0.0
C5478 C 0.05648 0.59333 0.05388 0.0
C5479 C 0.04425 0.58642 0.03631 0.0
C5480 C 0.03601 0.59965 0.02611 0.0
H5481 H 0.10417 0.2531 0.88047 0.0
H5482 H 0.0789 0.29922 0.86296 0.0
H5483 H 0.10262 0.30611 0.84027 0.0
H5484 H 0.1514 0.27519 0.88161 0.0
H5485 H 0.15963 0.25491 0.87127 0.0
H5486 H 0.1393 0.25185 0.88435 0.0
H5487 H 0.11991 0.2307 0.85396 0.0
H5488 H 0.1402 0.23395 0.84071 0.0
H5489 H 0.11846 0.23959 0.83048 0.0
H5490 H 0.12972 0.30952 0.82065 0.0
H5491 H 0.16095 0.31187 0.80893 0.0
H5492 H 0.17083 0.26509 0.83976 0.0
C5493 C 0.10347 0.26445 0.87161 0.0
C5494 C 0.08953 0.27564 0.87365 0.0
C5495 C 0.08941 0.29053 0.86193 0.0
C5496 C 0.10276 0.29445 0.84878 0.0
C5497 C 0.11636 0.28339 0.84726 0.0
C5498 C 0.11697 0.26874 0.85841 0.0
C5499 C 0.13409 0.26006 0.85485 0.0
C5500 C 0.14686 0.26056 0.87418 0.0
C5501 C 0.12779 0.23988 0.84439 0.0
C5502 C 0.14363 0.27302 0.84114 0.0
C5503 C 0.13262 0.28581 0.83631 0.0
C5504 C 0.13837 0.29946 0.82418 0.0
C5505 C 0.15609 0.3006 0.81742 0.0
C5506 C 0.16818 0.28844 0.823 0.0
C5507 C 0.16167 0.27423 0.83478 0.0
H5508 H 0.52745 0.72537 0.94077 0.0
H5509 H 0.55606 0.70328 0.89414 0.0
H5510 H 0.55539 0.67391 0.90949 0.0
H5511 H 0.55224 0.70482 0.98012 0.0
H5512 H 0.53187 0.7003 0.9931 0.0
H5513 H 0.53514 0.71979 0.97882 0.0
H5514 H 0.50235 0.70708 0.9588 0.0
H5515 H 0.49888 0.6878 0.97324 0.0
H5516 H 0.49689 0.68324 0.94679 0.0
H5517 H 0.54928 0.64549 0.92918 0.0
H5518 H 0.53761 0.62139 0.95043 0.0
H5519 H 0.51522 0.66294 0.98537 0.0
C5520 C 0.53364 0.71437 0.93386 0.0
C5521 C 0.5418 0.71666 0.91619 0.0
C5522 C 0.54985 0.70193 0.90771 0.0
C5523 C 0.54954 0.68518 0.91636 0.0
C5524 C 0.54148 0.68337 0.93383 0.0
C5525 C 0.53383 0.69769 0.94257 0.0
C5526 C 0.52591 0.69223 0.96122 0.0
C5527 C 0.53695 0.70505 0.97939 0.0
C5528 C 0.50475 0.69261 0.95992 0.0
C5529 C 0.52941 0.67232 0.96113 0.0
C5530 C 0.53863 0.66746 0.94537 0.0
C5531 C 0.54231 0.64931 0.94172 0.0
C5532 C 0.5358 0.63569 0.95399 0.0
C5533 C 0.52561 0.6402 0.96971 0.0
C5534 C 0.52308 0.65902 0.97359 0.0
H5535 H 0.1384 0.76813 0.71626 0.0
H5536 H 0.11942 0.7643 0.77364 0.0
H5537 H 0.15237 0.76647 0.78845 0.0
H5538 H 0.17533 0.74171 0.7221 0.0
H5539 H 0.19161 0.75654 0.7095 0.0
H5540 H 0.16661 0.75464 0.7034 0.0
H5541 H 0.17062 0.79079 0.71063 0.0
H5542 H 0.19565 0.79277 0.7167 0.0
H5543 H 0.18215 0.80255 0.73422 0.0
H5544 H 0.18769 0.76695 0.79676 0.0
H5545 H 0.22197 0.76868 0.79853 0.0
H5546 H 0.21953 0.77493 0.73636 0.0
C5547 C 0.14122 0.76781 0.73196 0.0
C5548 C 0.12611 0.76591 0.74375 0.0
C5549 C 0.13057 0.76571 0.76426 0.0
C5550 C 0.14933 0.76691 0.7728 0.0
C5551 C 0.16385 0.76865 0.76081 0.0
C5552 C 0.16005 0.76941 0.74085 0.0
C5553 C 0.17837 0.77185 0.73139 0.0
C5554 C 0.17795 0.75519 0.71566 0.0
C5555 C 0.18191 0.7906 0.72272 0.0
C5556 C 0.19304 0.77199 0.74899 0.0
C5557 C 0.18427 0.76996 0.76579 0.0
C5558 C 0.19461 0.76879 0.78369 0.0
C5559 C 0.21423 0.76975 0.78453 0.0
C5560 C 0.22384 0.77217 0.76769 0.0
C5561 C 0.2129 0.7734 0.74965 0.0
H5562 H 0.04166 0.39112 0.45492 0.0
H5563 H 0.06052 0.41567 0.40378 0.0
H5564 H 0.06042 0.44723 0.42028 0.0
H5565 H 0.01088 0.42178 0.46803 0.0
H5566 H 0.01752 0.42414 0.49427 0.0
H5567 H 0.01977 0.40326 0.47906 0.0
H5568 H 0.05496 0.40848 0.4927 0.0
H5569 H 0.05286 0.42945 0.50794 0.0
H5570 H 0.07026 0.43054 0.49101 0.0
H5571 H 0.05727 0.47638 0.44149 0.0
H5572 H 0.05142 0.50105 0.46569 0.0
H5573 H 0.03445 0.45921 0.50445 0.0
C5574 C 0.04582 0.40316 0.44723 0.0
C5575 C 0.05117 0.40065 0.42784 0.0
C5576 C 0.05662 0.41696 0.41857 0.0
C5577 C 0.05654 0.43507 0.42786 0.0
C5578 C 0.05123 0.43706 0.4468 0.0
C5579 C 0.04617 0.42161 0.45656 0.0
C5580 C 0.04132 0.42803 0.47704 0.0
C5581 C 0.02117 0.41875 0.47975 0.0
C5582 C 0.0557 0.42387 0.49312 0.0
C5583 C 0.04327 0.44929 0.47668 0.0
C5584 C 0.04942 0.4541 0.45919 0.0
C5585 C 0.05246 0.47271 0.45523 0.0
C5586 C 0.04901 0.48675 0.46925 0.0
C5587 C 0.04223 0.48249 0.48729 0.0
C5588 C 0.03955 0.46328 0.49099 0.0
H5589 H 0.41785 0.27788 0.22246 0.0
H5590 H 0.42913 0.23628 0.26053 0.0
H5591 H 0.39876 0.23648 0.27324 0.0
H5592 H 0.39473 0.30422 0.2583 0.0
H5593 H 0.3779 0.30944 0.23967 0.0
H5594 H 0.40081 0.30637 0.23377 0.0
H5595 H 0.38504 0.28054 0.20529 0.0
H5596 H 0.36213 0.28354 0.21121 0.0
H5597 H 0.36827 0.26067 0.2104 0.0
H5598 H 0.36606 0.24098 0.28216 0.0
H5599 H 0.33492 0.24925 0.28579 0.0
H5600 H 0.34383 0.28761 0.24208 0.0
C5601 C 0.41416 0.2689 0.23361 0.0
C5602 C 0.42638 0.25685 0.24008 0.0
C5603 C 0.42033 0.24535 0.25468 0.0
C5604 C 0.40296 0.24548 0.26224 0.0
C5605 C 0.39131 0.25728 0.25538 0.0
C5606 C 0.39673 0.26887 0.24143 0.0
C5607 C 0.38147 0.28017 0.23648 0.0
C5608 C 0.38919 0.3013 0.2424 0.0
C5609 C 0.37377 0.27598 0.21454 0.0
C5610 C 0.36644 0.2728 0.24936 0.0
C5611 C 0.37255 0.25977 0.26037 0.0
C5612 C 0.36126 0.25117 0.27353 0.0
C5613 C 0.34347 0.25593 0.2755 0.0
C5614 C 0.33663 0.26903 0.26425 0.0
C5615 C 0.34845 0.27753 0.25095 0.0
H5616 H 0.57881 0.50825 0.38221 0.0
H5617 H 0.59361 0.56908 0.38501 0.0
H5618 H 0.58111 0.57239 0.41662 0.0
H5619 H 0.53582 0.50712 0.40657 0.0
H5620 H 0.53958 0.48804 0.42017 0.0
H5621 H 0.54818 0.48978 0.39661 0.0
H5622 H 0.58184 0.48926 0.41241 0.0
H5623 H 0.57331 0.48738 0.43596 0.0
H5624 H 0.59249 0.50616 0.43333 0.0
H5625 H 0.56503 0.56973 0.44657 0.0
H5626 H 0.5519 0.56118 0.47682 0.0
H5627 H 0.55214 0.50256 0.45896 0.0
C5628 C 0.57947 0.52228 0.38945 0.0
C5629 C 0.58681 0.53841 0.38052 0.0
C5630 C 0.58742 0.55644 0.39082 0.0
C5631 C 0.58044 0.55852 0.40898 0.0
C5632 C 0.57306 0.54248 0.41711 0.0
C5633 C 0.57276 0.52467 0.40794 0.0
C5634 C 0.56477 0.5099 0.42068 0.0
C5635 C 0.54598 0.498 0.41039 0.0
C5636 C 0.57896 0.49745 0.42591 0.0
C5637 C 0.56161 0.52232 0.43876 0.0
C5638 C 0.56574 0.54102 0.43584 0.0
C5639 C 0.56233 0.5552 0.44933 0.0
C5640 C 0.55499 0.55023 0.46653 0.0
C5641 C 0.55223 0.53144 0.47081 0.0
C5642 C 0.55514 0.51718 0.4565 0.0
H5643 H 0.28415 0.84661 0.07819 0.0
H5644 H 0.31241 0.90276 0.10366 0.0
H5645 H 0.31227 0.89297 0.13687 0.0
H5646 H 0.25655 0.83566 0.12158 0.0
H5647 H 0.2596 0.81162 0.11896 0.0
H5648 H 0.25749 0.82377 0.09754 0.0
H5649 H 0.2892 0.81651 0.08804 0.0
H5650 H 0.29104 0.80396 0.10901 0.0
H5651 H 0.30989 0.8229 0.10596 0.0
H5652 H 0.31277 0.87715 0.16599 0.0
H5653 H 0.3206 0.85488 0.18856 0.0
H5654 H 0.29418 0.80815 0.14462 0.0
C5655 C 0.28989 0.85683 0.0909 0.0
C5656 C 0.29817 0.87538 0.08866 0.0
C5657 C 0.30603 0.88845 0.1053 0.0
C5658 C 0.30567 0.88312 0.12416 0.0
C5659 C 0.29737 0.86471 0.12602 0.0
C5660 C 0.28988 0.85163 0.10984 0.0
C5661 C 0.28486 0.83207 0.11569 0.0
C5662 C 0.26335 0.82539 0.11331 0.0
C5663 C 0.29434 0.81806 0.10399 0.0
C5664 C 0.29286 0.83596 0.13721 0.0
C5665 C 0.29872 0.85505 0.14309 0.0
C5666 C 0.30805 0.86219 0.16173 0.0
C5667 C 0.31254 0.8495 0.17437 0.0
C5668 C 0.30819 0.83002 0.16797 0.0
C5669 C 0.2976 0.82309 0.14957 0.0
H5670 H 0.9487 0.50106 0.89602 0.0
H5671 H 0.95889 0.55939 0.88472 0.0
H5672 H 0.98341 0.56739 0.91339 0.0
H5673 H 0.9553 0.50877 0.9475 0.0
H5674 H 0.9668 0.48909 0.9497 0.0
H5675 H 0.94999 0.48883 0.92866 0.0
H5676 H 0.97562 0.48287 0.90622 0.0
H5677 H 0.9925 0.48393 0.92753 0.0
H5678 H 0.99778 0.49931 0.90907 0.0
H5679 H 1.00365 0.56923 0.94506 0.0
H5680 H 0.0196 0.56434 0.97717 0.0
H5681 H 0.99994 0.50421 0.96333 0.0
C5682 C 0.95633 0.51546 0.89928 0.0
C5683 C 0.95206 0.5296 0.88824 0.0
C5684 C 0.96188 0.5484 0.89329 0.0
C5685 C 0.97594 0.55303 0.9093 0.0
C5686 C 0.98009 0.53857 0.91957 0.0
C5687 C 0.97068 0.52017 0.91467 0.0
C5688 C 0.97743 0.50726 0.92819 0.0
C5689 C 0.96142 0.49797 0.93916 0.0
C5690 C 0.98637 0.49248 0.91708 0.0
C5691 C 0.99192 0.52138 0.94177 0.0
C5692 C 0.99314 0.53943 0.93673 0.0
C5693 C 1.00336 0.55517 0.94889 0.0
C5694 C 0.01221 0.55233 0.96696 0.0
C5695 C 0.01097 0.53393 0.97199 0.0
C5696 C 1.00135 0.51829 0.95916 0.0
H5697 H 0.28219 0.25649 0.61841 0.0
H5698 H 0.27348 0.19643 0.6211 0.0
H5699 H 0.27266 0.2018 0.65692 0.0
H5700 H 0.31199 0.27019 0.66673 0.0
H5701 H 0.30221 0.29064 0.67311 0.0
H5702 H 0.30315 0.2826 0.64763 0.0
H5703 H 0.26727 0.28072 0.64029 0.0
H5704 H 0.26623 0.28864 0.66576 0.0
H5705 H 0.25147 0.26687 0.65422 0.0
H5706 H 0.27206 0.2127 0.69166 0.0
H5707 H 0.27182 0.22877 0.7247 0.0
H5708 H 0.27984 0.28259 0.70177 0.0
C5709 C 0.28029 0.24457 0.62668 0.0
C5710 C 0.27793 0.22594 0.61697 0.0
C5711 C 0.27533 0.21071 0.62822 0.0
C5712 C 0.27485 0.21365 0.64858 0.0
C5713 C 0.27692 0.23197 0.65772 0.0
C5714 C 0.27966 0.24728 0.6473 0.0
C5715 C 0.28117 0.26543 0.66122 0.0
C5716 C 0.3008 0.27795 0.66223 0.0
C5717 C 0.2656 0.27604 0.65499 0.0
C5718 C 0.27834 0.25775 0.68081 0.0
C5719 C 0.27618 0.23841 0.67826 0.0
C5720 C 0.27373 0.22784 0.69387 0.0
C5721 C 0.27362 0.23715 0.71266 0.0
C5722 C 0.27573 0.25695 0.71598 0.0
C5723 C 0.27796 0.26742 0.69971 0.0
H5724 H 0.58585 0.5087 0.16808 0.0
H5725 H 0.56816 0.55871 0.19319 0.0
H5726 H 0.55296 0.5623 0.16065 0.0
H5727 H 0.59736 0.52346 0.1237 0.0
H5728 H 0.5874 0.50178 0.10807 0.0
H5729 H 0.59507 0.50133 0.13368 0.0
H5730 H 0.56201 0.48334 0.13831 0.0
H5731 H 0.55435 0.48359 0.1126 0.0
H5732 H 0.54159 0.49291 0.13115 0.0
H5733 H 0.54054 0.56158 0.12571 0.0
H5734 H 0.53278 0.55735 0.09 0.0
H5735 H 0.56001 0.50934 0.0853 0.0
C5736 C 0.57846 0.52018 0.16677 0.0
C5737 C 0.5785 0.53359 0.18334 0.0
C5738 C 0.56872 0.54845 0.18083 0.0
C5739 C 0.55986 0.55054 0.16237 0.0
C5740 C 0.56058 0.53754 0.14632 0.0
C5741 C 0.56943 0.52251 0.14824 0.0
C5742 C 0.56853 0.51106 0.12816 0.0
C5743 C 0.58828 0.50933 0.12311 0.0
C5744 C 0.55588 0.49157 0.12752 0.0
C5745 C 0.55928 0.52298 0.11463 0.0
C5746 C 0.55416 0.5377 0.12566 0.0
C5747 C 0.54473 0.55024 0.11691 0.0
C5748 C 0.54058 0.5479 0.09638 0.0
C5749 C 0.54645 0.53365 0.08438 0.0
C5750 C 0.55574 0.52079 0.09383 0.0
H5751 H 0.27959 0.87549 0.88555 0.0
H5752 H 0.29294 0.84077 0.93047 0.0
H5753 H 0.29344 0.81475 0.90481 0.0
H5754 H 0.24921 0.83831 0.85017 0.0
H5755 H 0.25853 0.84771 0.82912 0.0
H5756 H 0.25785 0.86324 0.851 0.0
H5757 H 0.29372 0.87595 0.85227 0.0
H5758 H 0.29451 0.86013 0.83061 0.0
H5759 H 0.30964 0.85975 0.85288 0.0
H5760 H 0.3007 0.79694 0.8758 0.0
H5761 H 0.30337 0.78173 0.84315 0.0
H5762 H 0.27803 0.82404 0.81625 0.0
C5763 C 0.28202 0.86216 0.8898 0.0
C5764 C 0.28629 0.85979 0.90965 0.0
C5765 C 0.28977 0.84252 0.91512 0.0
C5766 C 0.29014 0.82782 0.90076 0.0
C5767 C 0.28682 0.83079 0.88123 0.0
C5768 C 0.28226 0.84722 0.8756 0.0
C5769 C 0.27999 0.84671 0.85345 0.0
C5770 C 0.2602 0.84911 0.84547 0.0
C5771 C 0.29537 0.86152 0.84693 0.0
C5772 C 0.28326 0.82714 0.84773 0.0
C5773 C 0.28827 0.8188 0.86405 0.0
C5774 C 0.29572 0.80263 0.86278 0.0
C5775 C 0.29718 0.79414 0.84416 0.0
C5776 C 0.28992 0.80111 0.82712 0.0
C5777 C 0.28308 0.818 0.82898 0.0
H5778 H 0.95268 0.49891 0.71722 0.0
H5779 H 0.92609 0.54359 0.69803 0.0
H5780 H 0.94367 0.54412 0.669 0.0
H5781 H 0.99823 0.5135 0.70143 0.0
H5782 H 1.00034 0.48984 0.69301 0.0
H5783 H 0.987 0.49412 0.71311 0.0
H5784 H 0.95736 0.47117 0.69465 0.0
H5785 H 0.97075 0.46626 0.67485 0.0
H5786 H 0.94904 0.47439 0.66989 0.0
H5787 H 0.9605 0.53613 0.64002 0.0
H5788 H 0.97435 0.52021 0.61358 0.0
H5789 H 0.99227 0.48299 0.65386 0.0
C5790 C 0.95064 0.50891 0.70699 0.0
C5791 C 0.93817 0.52125 0.70976 0.0
C5792 C 0.93585 0.53418 0.69615 0.0
C5793 C 0.94576 0.53459 0.67972 0.0
C5794 C 0.95797 0.5221 0.6774 0.0
C5795 C 0.96036 0.50951 0.69069 0.0
C5796 C 0.97279 0.49634 0.68413 0.0
C5797 C 0.99066 0.4986 0.69879 0.0
C5798 C 0.96183 0.47585 0.68069 0.0
C5799 C 0.97712 0.50342 0.665 0.0
C5800 C 0.96836 0.51819 0.66122 0.0
C5801 C 0.96788 0.52494 0.64302 0.0
C5802 C 0.97589 0.51581 0.62812 0.0
C5803 C 0.98441 0.50023 0.63166 0.0
C5804 C 0.98577 0.49471 0.65063 0.0
H5805 H 0.28109 0.20478 0.39889 0.0
H5806 H 0.2707 0.25331 0.43494 0.0
H5807 H 0.27155 0.27103 0.40632 0.0
H5808 H 0.31307 0.22919 0.36926 0.0
H5809 H 0.30358 0.21436 0.34655 0.0
H5810 H 0.30187 0.20505 0.3697 0.0
H5811 H 0.26569 0.19508 0.36092 0.0
H5812 H 0.26731 0.20445 0.33775 0.0
H5813 H 0.25217 0.21242 0.35455 0.0
H5814 H 0.27112 0.28275 0.37407 0.0
H5815 H 0.27311 0.28982 0.34042 0.0
H5816 H 0.28719 0.23533 0.32424 0.0
C5817 C 0.27914 0.21918 0.40072 0.0
C5818 C 0.27571 0.22765 0.41918 0.0
C5819 C 0.27306 0.24646 0.42094 0.0
C5820 C 0.27355 0.25665 0.40477 0.0
C5821 C 0.27666 0.24787 0.38679 0.0
C5822 C 0.27949 0.22962 0.38456 0.0
C5823 C 0.28229 0.2237 0.36332 0.0
C5824 C 0.30135 0.21773 0.36215 0.0
C5825 C 0.2659 0.20797 0.35356 0.0
C5826 C 0.28164 0.24183 0.35432 0.0
C5827 C 0.27771 0.25526 0.36811 0.0
C5828 C 0.27471 0.27255 0.36328 0.0
C5829 C 0.27605 0.27645 0.34397 0.0
C5830 C 0.28118 0.26352 0.32957 0.0
C5831 C 0.28382 0.2458 0.3349 0.0
H5832 H 0.35006 0.56183 0.55677 0.0
H5833 H 0.35176 0.60859 0.52227 0.0
H5834 H 0.38407 0.60746 0.51677 0.0
H5835 H 0.40357 0.57539 0.57633 0.0
H5836 H 0.40527 0.55099 0.57533 0.0
H5837 H 0.38396 0.55831 0.5814 0.0
H5838 H 0.36421 0.53458 0.55302 0.0
H5839 H 0.38521 0.52682 0.54734 0.0
H5840 H 0.37081 0.53497 0.52845 0.0
H5841 H 0.41174 0.59812 0.5089 0.0
H5842 H 0.43113 0.57737 0.49451 0.0
H5843 H 0.41396 0.53677 0.53409 0.0
C5844 C 0.35759 0.57203 0.54853 0.0
C5845 C 0.34862 0.58511 0.53979 0.0
C5846 C 0.35846 0.59823 0.52883 0.0
C5847 C 0.37697 0.59803 0.52602 0.0
C5848 C 0.38557 0.58491 0.53462 0.0
C5849 C 0.37625 0.57202 0.54555 0.0
C5850 C 0.38775 0.55746 0.55018 0.0
C5851 C 0.39562 0.56073 0.57211 0.0
C5852 C 0.37631 0.53729 0.54436 0.0
C5853 C 0.40328 0.56243 0.53739 0.0
C5854 C 0.40246 0.57919 0.52982 0.0
C5855 C 0.41305 0.58531 0.51512 0.0
C5856 C 0.42382 0.57344 0.50688 0.0
C5857 C 0.4237 0.55578 0.51339 0.0
C5858 C 0.41428 0.55054 0.52942 0.0
H5859 H 0.9097 0.94278 0.55698 0.0
H5860 H 0.87615 0.96493 0.51262 0.0
H5861 H 0.90435 0.98692 0.50675 0.0
H5862 H 0.94135 0.98904 0.57581 0.0
H5863 H 0.96186 0.97876 0.58012 0.0
H5864 H 0.93882 0.96539 0.5821 0.0
H5865 H 0.94445 0.93893 0.55674 0.0
H5866 H 0.9674 0.95229 0.55454 0.0
H5867 H 0.95052 0.94437 0.53292 0.0
H5868 H 0.93572 1.00487 0.50359 0.0
H5869 H 0.96903 0.01942 0.50444 0.0
H5870 H 0.98384 0.98696 0.5511 0.0
C5871 C 0.90828 0.95247 0.54627 0.0
C5872 C 0.89064 0.95186 0.53502 0.0
C5873 C 0.88947 0.96478 0.52111 0.0
C5874 C 0.90542 0.97744 0.51774 0.0
C5875 C 0.92261 0.97731 0.52852 0.0
C5876 C 0.92423 0.96539 0.54269 0.0
C5877 C 0.9447 0.96816 0.55182 0.0
C5878 C 0.9468 0.97579 0.57377 0.0
C5879 C 0.9522 0.94984 0.54881 0.0
C5880 C 0.95426 0.98293 0.53997 0.0
C5881 C 0.94108 0.98808 0.52683 0.0
C5882 C 0.94617 1.00116 0.514 0.0
C5883 C 0.96521 0.00939 0.51463 0.0
C5884 C 0.97916 1.00458 0.52798 0.0
C5885 C 0.97355 0.99104 0.54078 0.0
H5886 H 0.86341 0.09238 0.28668 0.0
H5887 H 0.88588 0.1095 0.23386 0.0
H5888 H 0.86936 0.13633 0.23564 0.0
H5889 H 0.81797 0.10477 0.27743 0.0
H5890 H 0.81749 0.11311 0.30292 0.0
H5891 H 0.83023 0.09486 0.29657 0.0
H5892 H 0.8607 0.11476 0.31675 0.0
H5893 H 0.84803 0.13297 0.32336 0.0
H5894 H 0.86904 0.13838 0.31155 0.0
H5895 H 0.85188 0.16324 0.24542 0.0
H5896 H 0.83625 0.18679 0.26228 0.0
H5897 H 0.82463 0.15041 0.30743 0.0
C5898 C 0.86491 0.10174 0.27544 0.0
C5899 C 0.87601 0.0988 0.26017 0.0
C5900 C 0.87732 0.11131 0.24563 0.0
C5901 C 0.86801 0.12664 0.24655 0.0
C5902 C 0.8573 0.12919 0.262 0.0
C5903 C 0.85574 0.11697 0.27612 0.0
C5904 C 0.84422 0.12301 0.29177 0.0
C5905 C 0.82642 0.10805 0.29218 0.0
C5906 C 0.85621 0.12755 0.31205 0.0
C5907 C 0.83946 0.14058 0.28438 0.0
C5908 C 0.84712 0.14408 0.26724 0.0
C5909 C 0.84564 0.16043 0.2587 0.0
C5910 C 0.83662 0.1737 0.26829 0.0
C5911 C 0.82929 0.17053 0.28624 0.0
C5912 C 0.83021 0.15339 0.29383 0.0
H5913 H 0.66617 0.08152 0.05615 0.0
H5914 H 0.67737 0.03964 0.01176 0.0
H5915 H 0.64326 0.03048 1.00032 0.0
H5916 H 0.62155 0.0534 0.06685 0.0
H5917 H 0.61198 0.07429 0.07133 0.0
H5918 H 0.63691 0.0755 0.07638 0.0
H5919 H 0.64189 0.1021 0.05381 0.0
H5920 H 0.61688 0.0998 0.04751 0.0
H5921 H 0.63176 0.09734 0.02836 0.0
H5922 H 0.60879 0.02637 0.99389 0.0
H5923 H 0.5753 0.02243 0.9978 0.0
H5924 H 0.58718 0.06964 0.04365 0.0
C5925 C 0.66142 0.06992 0.04452 0.0
C5926 C 0.67417 0.06122 0.03471 0.0
C5927 C 0.66757 0.04637 0.01933 0.0
C5928 C 0.64838 0.04131 0.01261 0.0
C5929 C 0.63633 0.05132 0.02156 0.0
C5930 C 0.64247 0.06484 0.03759 0.0
C5931 C 0.62664 0.07314 0.04494 0.0
C5932 C 0.62411 0.06881 0.06611 0.0
C5933 C 0.62948 0.09435 0.04356 0.0
C5934 C 0.61059 0.06233 0.03029 0.0
C5935 C 0.61649 0.04987 0.01688 0.0
C5936 C 0.60394 0.03639 0.00386 0.0
C5937 C 0.58486 0.03452 0.00586 0.0
C5938 C 0.57884 0.04632 0.02046 0.0
C5939 C 0.5916 0.0612 0.03173 0.0
H5940 H 0.22512 0.44709 0.23168 0.0
H5941 H 0.25501 0.48972 0.27817 0.0
H5942 H 0.27383 0.46747 0.29003 0.0
H5943 H 0.21636 0.41368 0.25739 0.0
H5944 H 0.21994 0.39401 0.24111 0.0
H5945 H 0.21427 0.41428 0.23112 0.0
H5946 H 0.24428 0.4183 0.21359 0.0
H5947 H 0.24992 0.39757 0.22304 0.0
H5948 H 0.26689 0.41938 0.22746 0.0
H5949 H 0.28093 0.44011 0.30299 0.0
H5950 H 0.27893 0.40899 0.31453 0.0
H5951 H 0.24495 0.38283 0.26005 0.0
C5952 C 0.23648 0.45186 0.24357 0.0
C5953 C 0.23897 0.46988 0.25401 0.0
C5954 C 0.25325 0.47587 0.27001 0.0
C5955 C 0.26403 0.46338 0.27672 0.0
C5956 C 0.26034 0.44512 0.2671 0.0
C5957 C 0.24723 0.43941 0.25053 0.0
C5958 C 0.24343 0.41829 0.24528 0.0
C5959 C 0.22225 0.40959 0.24366 0.0
C5960 C 0.25163 0.41307 0.22622 0.0
C5961 C 0.25445 0.41294 0.26292 0.0
C5962 C 0.26467 0.42869 0.27487 0.0
C5963 C 0.27365 0.42763 0.29345 0.0
C5964 C 0.27219 0.41005 0.30002 0.0
C5965 C 0.26176 0.39392 0.28808 0.0
C5966 C 0.25312 0.39519 0.26919 0.0
H5967 H 0.19234 0.42204 0.04102 0.0
H5968 H 0.23869 0.46537 0.03144 0.0
H5969 H 0.21704 0.48764 0.02819 0.0
H5970 H 0.15941 0.43124 0.00594 0.0
H5971 H 0.13953 0.42702 0.01968 0.0
H5972 H 0.15914 0.41577 0.0248 0.0
H5973 H 0.1626 0.42986 0.06141 0.0
H5974 H 0.14312 0.44143 0.05624 0.0
H5975 H 0.16558 0.45491 0.06764 0.0
H5976 H 0.19035 0.50395 0.02229 0.0
H5977 H 0.16006 0.51188 0.01 0.0
H5978 H 0.13038 0.45797 0.02211 0.0
C5979 C 0.19788 0.43638 0.03873 0.0
C5980 C 0.21714 0.44222 0.03674 0.0
C5981 C 0.22399 0.46085 0.03324 0.0
C5982 C 0.21182 0.47357 0.03152 0.0
C5983 C 0.19284 0.46746 0.03342 0.0
C5984 C 0.18585 0.44927 0.03688 0.0
C5985 C 0.16454 0.44573 0.03609 0.0
C5986 C 0.15511 0.42896 0.0207 0.0
C5987 C 0.15861 0.44281 0.05656 0.0
C5988 C 0.16058 0.46422 0.03007 0.0
C5989 C 0.17718 0.47682 0.02948 0.0
C5990 C 0.17726 0.49436 0.02306 0.0
C5991 C 0.16001 0.49882 0.01623 0.0
C5992 C 0.14299 0.48571 0.01559 0.0
C5993 C 0.14322 0.46843 0.0231 0.0
H5994 H 0.85793 0.9051 0.23418 0.0
H5995 H 0.86508 0.92836 0.29581 0.0
H5996 H 0.8462 0.8993 0.30377 0.0
H5997 H 0.81011 0.87921 0.23265 0.0
H5998 H 0.81336 0.85897 0.21704 0.0
H5999 H 0.82726 0.88181 0.21545 0.0
H6000 H 0.85781 0.86889 0.22197 0.0
H6001 H 0.84399 0.84601 0.22351 0.0
H6002 H 0.86155 0.85737 0.24359 0.0
H6003 H 0.825 0.86922 0.30541 0.0
H6004 H 0.80549 0.83733 0.30121 0.0
H6005 H 0.81381 0.83064 0.23954 0.0
C6006 C 0.85561 0.90402 0.24935 0.0
C6007 C 0.86269 0.91943 0.26426 0.0
C6008 C 0.85935 0.91722 0.28394 0.0
C6009 C 0.84871 0.90064 0.28869 0.0
C6010 C 0.84158 0.88602 0.27373 0.0
C6011 C 0.84504 0.88729 0.25448 0.0
C6012 C 0.83584 0.86902 0.24149 0.0
C6013 C 0.82075 0.87247 0.22573 0.0
C6014 C 0.85069 0.85978 0.23209 0.0
C6015 C 0.82688 0.8574 0.25657 0.0
C6016 C 0.83015 0.86778 0.27496 0.0
C6017 C 0.82252 0.86085 0.29115 0.0
C6018 C 0.81136 0.84277 0.2886 0.0
C6019 C 0.80831 0.83149 0.27016 0.0
C6020 C 0.8162 0.83889 0.25388 0.0
H6021 H 0.74738 0.14142 0.78875 0.0
H6022 H 0.75664 0.12548 0.72845 0.0
H6023 H 0.76617 0.15881 0.72431 0.0
H6024 H 0.72739 0.17655 0.78277 0.0
H6025 H 0.73869 0.19308 0.80371 0.0
H6026 H 0.7371 0.16833 0.80466 0.0
H6027 H 0.77333 0.17265 0.81256 0.0
H6028 H 0.7749 0.19763 0.8129 0.0
H6029 H 0.78844 0.18553 0.79725 0.0
H6030 H 0.76196 0.19099 0.72307 0.0
H6031 H 0.76057 0.22459 0.72932 0.0
H6032 H 0.76123 0.22093 0.79155 0.0
C6033 C 0.75259 0.14483 0.77511 0.0
C6034 C 0.7508 0.13106 0.75871 0.0
C6035 C 0.75745 0.13601 0.74097 0.0
C6036 C 0.76291 0.15481 0.73849 0.0
C6037 C 0.76249 0.16814 0.75424 0.0
C6038 C 0.75874 0.16352 0.77263 0.0
C6039 C 0.75827 0.18075 0.78667 0.0
C6040 C 0.73922 0.17957 0.79491 0.0
C6041 C 0.77473 0.18436 0.80332 0.0
C6042 C 0.76086 0.19538 0.77275 0.0
C6043 C 0.76283 0.18766 0.75404 0.0
C6044 C 0.76207 0.19759 0.73791 0.0
C6045 C 0.76138 0.21649 0.74146 0.0
C6046 C 0.76244 0.22509 0.76084 0.0
C6047 C 0.76106 0.21444 0.77663 0.0
loop_
_geom_bond_atom_site_label_1
_geom_bond_atom_site_label_2
_geom_bond_distance
_geom_bond_site_symmetry_2
_ccdc_geom_bond_type
Li0 N17 1.990 1_455 S
Li0 O60 1.956 . S
Li0 O61 1.970 . S
Li0 O62 1.961 . S
Li1 N25 1.990 . S
Li1 O60 1.970 . S
Li1 O61 1.956 . S
Li1 O63 1.961 . S
Li2 N47 1.990 . S
Li2 O60 1.961 . S
Li2 O62 1.956 . S
Li2 O63 1.970 . S
Li3 N53 1.990 . S
Li3 O61 1.961 . S
Li3 O62 1.970 . S
Li3 O63 1.956 . S
C4 C6 1.348 . S
C4 C7 1.356 . S
C4 O60 1.325 . S
N5 C8 1.314 . S
N5 C9 1.279 . S
C6 C4 1.348 . S
C6 C8 1.353 . S
C6 H64 0.929 . S
C7 C4 1.356 . S
C7 C9 1.358 . S
C7 H65 0.930 . S
C8 N5 1.314 . S
C8 C6 1.353 . S
C8 H66 0.930 . S
C9 N5 1.279 . S
C9 C7 1.358 . S
C9 H67 0.930 . S
C10 C13 1.348 1_455 S
C10 C14 1.356 . S
C10 O61 1.325 . S
C11 N12 1.279 . S
C11 C14 1.358 1_655 S
C11 H68 0.930 . S
N12 C11 1.279 . S
N12 C15 1.314 . S
C13 C10 1.348 1_655 S
C13 C15 1.353 . S
C13 H69 0.929 . S
C14 C10 1.356 . S
C14 C11 1.358 1_455 S
C14 H70 0.930 . S
C15 N12 1.314 . S
C15 C13 1.353 . S
C15 H71 0.930 . S
C16 N17 1.314 . S
C16 C21 1.353 . S
C16 H22 0.930 . S
N17 Li0 1.990 1_655 S
N17 C16 1.314 . S
N17 C19 1.279 . S
C18 C19 1.358 . S
C18 C20 1.356 . S
C18 H72 0.930 . S
C19 N17 1.279 . S
C19 C18 1.358 . S
C19 H23 0.930 . S
C20 C18 1.356 . S
C20 C21 1.348 . S
C21 C16 1.353 . S
C21 C20 1.348 . S
C21 H73 0.929 . S
H22 C16 0.930 . S
H23 C19 0.930 . S
C24 N25 1.314 . S
C24 C26 1.353 . S
C24 H30 0.930 . S
N25 Li1 1.990 . S
N25 C24 1.314 . S
N25 C28 1.279 . S
C26 C24 1.353 . S
C26 C29 1.348 . S
C26 H74 0.929 . S
C27 C28 1.358 . S
C27 C29 1.356 . S
C27 H75 0.930 . S
C28 N25 1.279 . S
C28 C27 1.358 . S
C28 H31 0.930 . S
C29 C26 1.348 . S
C29 C27 1.356 . S
H30 C24 0.930 . S
H31 C28 0.930 . S
C32 C34 1.348 . S
C32 C35 1.356 . S
C32 O62 1.325 . S
N33 C36 1.314 . S
N33 C37 1.279 . S
C34 C32 1.348 . S
C34 C36 1.353 . S
C34 H76 0.929 . S
C35 C32 1.356 . S
C35 C37 1.358 . S
C35 H77 0.930 . S
C36 N33 1.314 . S
C36 C34 1.353 . S
C36 H78 0.930 . S
C37 N33 1.279 . S
C37 C35 1.358 . S
C37 H79 0.930 . S
C38 C39 1.348 . S
C38 C40 1.356 . S
C38 O63 1.325 . S
C39 C38 1.348 . S
C39 C41 1.353 . S
C39 H80 0.929 . S
C40 C38 1.356 . S
C40 C42 1.358 . S
C40 H81 0.930 . S
C41 C39 1.353 . S
C41 N43 1.314 . S
C41 H82 0.930 . S
C42 C40 1.358 . S
C42 N43 1.279 . S
C42 H83 0.930 . S
N43 C41 1.314 . S
N43 C42 1.279 . S
C44 C46 1.353 . S
C44 N47 1.314 . S
C44 H50 0.930 . S
C45 N47 1.279 . S
C45 C48 1.358 . S
C45 H51 0.930 . S
C46 C44 1.353 . S
C46 C49 1.348 . S
C46 H84 0.929 . S
N47 Li2 1.990 . S
N47 C44 1.314 . S
N47 C45 1.279 . S
C48 C45 1.358 . S
C48 C49 1.356 . S
C48 H85 0.930 . S
C49 C46 1.348 . S
C49 C48 1.356 . S
H50 C44 0.930 . S
H51 C45 0.930 . S
C52 N53 1.314 . S
C52 C54 1.353 . S
C52 H58 0.930 . S
N53 Li3 1.990 . S
N53 C52 1.314 . S
N53 C56 1.279 . S
C54 C52 1.353 . S
C54 C57 1.348 . S
C54 H86 0.929 . S
C55 C56 1.358 . S
C55 C57 1.356 . S
C55 H87 0.930 . S
C56 N53 1.279 . S
C56 C55 1.358 . S
C56 H59 0.930 . S
C57 C54 1.348 . S
C57 C55 1.356 . S
H58 C52 0.930 . S
H59 C56 0.930 . S
O60 Li0 1.956 . S
O60 Li1 1.970 . S
O60 Li2 1.961 . S
O60 C4 1.325 . S
O61 Li0 1.970 . S
O61 Li1 1.956 . S
O61 Li3 1.961 . S
O61 C10 1.325 . S
O62 Li0 1.961 . S
O62 Li2 1.956 . S
O62 Li3 1.970 . S
O62 C32 1.325 . S
O63 Li1 1.961 . S
O63 Li2 1.970 . S
O63 Li3 1.956 . S
O63 C38 1.325 . S
H64 C6 0.929 . S
H65 C7 0.930 . S
H66 C8 0.930 . S
H67 C9 0.930 . S
H68 C11 0.930 . S
H69 C13 0.929 . S
H70 C14 0.930 . S
H71 C15 0.930 . S
H72 C18 0.930 . S
H73 C21 0.929 . S
H74 C26 0.929 . S
H75 C27 0.930 . S
H76 C34 0.929 . S
H77 C35 0.930 . S
H78 C36 0.930 . S
H79 C37 0.930 . S
H80 C39 0.929 . S
H81 C40 0.930 . S
H82 C41 0.930 . S
H83 C42 0.930 . S
H84 C46 0.929 . S
H85 C48 0.930 . S
H86 C54 0.929 . S
H87 C55 0.930 . S
Li88 N105 1.990 . S
Li88 O148 1.956 . S
Li88 O149 1.970 . S
Li88 O150 1.961 1_455 S
Li89 N113 1.990 . S
Li89 O148 1.970 . S
Li89 O149 1.956 . S
Li89 O151 1.961 . S
Li90 N135 1.990 . S
Li90 O148 1.961 . S
Li90 O150 1.956 1_455 S
Li90 O151 1.970 . S
Li91 N141 1.990 . S
Li91 O149 1.961 1_655 S
Li91 O150 1.970 . S
Li91 O151 1.956 1_655 S
C92 C94 1.348 . S
C92 C95 1.356 . S
C92 O148 1.325 . S
N93 C96 1.314 . S
N93 C97 1.279 . S
C94 C92 1.348 . S
C94 C96 1.353 . S
C94 H152 0.929 . S
C95 C92 1.356 . S
C95 C97 1.358 . S
C95 H153 0.930 . S
C96 N93 1.314 . S
C96 C94 1.353 . S
C96 H154 0.930 . S
C97 N93 1.279 . S
C97 C95 1.358 . S
C97 H155 0.930 . S
C98 C101 1.348 . S
C98 C102 1.356 . S
C98 O149 1.325 . S
C99 N100 1.279 . S
C99 C102 1.358 . S
C99 H156 0.930 . S
N100 C99 1.279 . S
N100 C103 1.314 . S
C101 C98 1.348 . S
C101 C103 1.353 . S
C101 H157 0.929 . S
C102 C98 1.356 . S
C102 C99 1.358 . S
C102 H158 0.930 . S
C103 N100 1.314 . S
C103 C101 1.353 . S
C103 H159 0.930 . S
C104 N105 1.314 . S
C104 C109 1.353 . S
C104 H110 0.930 1_455 S
N105 Li88 1.990 . S
N105 C104 1.314 . S
N105 C107 1.279 . S
C106 C107 1.358 . S
C106 C108 1.356 . S
C106 H160 0.930 . S
C107 N105 1.279 . S
C107 C106 1.358 . S
C107 H111 0.930 . S
C108 C106 1.356 . S
C108 C109 1.348 . S
C109 C104 1.353 . S
C109 C108 1.348 . S
C109 H161 0.929 1_455 S
H110 C104 0.930 1_655 S
H111 C107 0.930 . S
C112 N113 1.314 . S
C112 C114 1.353 . S
C112 H118 0.930 . S
N113 Li89 1.990 . S
N113 C112 1.314 . S
N113 C116 1.279 . S
C114 C112 1.353 . S
C114 C117 1.348 . S
C114 H162 0.929 . S
C115 C116 1.358 . S
C115 C117 1.356 . S
C115 H163 0.930 . S
C116 N113 1.279 . S
C116 C115 1.358 . S
C116 H119 0.930 . S
C117 C114 1.348 . S
C117 C115 1.356 . S
H118 C112 0.930 . S
H119 C116 0.930 . S
C120 C122 1.348 . S
C120 C123 1.356 . S
C120 O150 1.325 . S
N121 C124 1.314 . S
N121 C125 1.279 . S
C122 C120 1.348 . S
C122 C124 1.353 . S
C122 H164 0.929 . S
C123 C120 1.356 . S
C123 C125 1.358 . S
C123 H165 0.930 . S
C124 N121 1.314 . S
C124 C122 1.353 . S
C124 H166 0.930 . S
C125 N121 1.279 . S
C125 C123 1.358 . S
C125 H167 0.930 . S
C126 C127 1.348 . S
C126 C128 1.356 . S
C126 O151 1.325 . S
C127 C126 1.348 . S
C127 C129 1.353 . S
C127 H168 0.940 . S
C128 C126 1.356 . S
C128 C130 1.358 . S
C128 H169 0.930 . S
C129 C127 1.353 . S
C129 N131 1.314 . S
C129 H170 0.931 . S
C130 C128 1.358 . S
C130 N131 1.279 . S
C130 H171 0.930 . S
N131 C129 1.314 . S
N131 C130 1.279 . S
C132 C134 1.353 . S
C132 N135 1.314 . S
C132 H138 0.930 . S
C133 N135 1.279 1_655 S
C133 C136 1.358 . S
C133 H139 0.930 . S
C134 C132 1.353 . S
C134 C137 1.348 . S
C134 H172 0.929 . S
N135 Li90 1.990 . S
N135 C132 1.314 . S
N135 C133 1.279 1_455 S
C136 C133 1.358 . S
C136 C137 1.356 1_655 S
C136 H173 0.930 . S
C137 C134 1.348 . S
C137 C136 1.356 1_455 S
H138 C132 0.930 . S
H139 C133 0.930 . S
C140 N141 1.314 . S
C140 C142 1.353 . S
C140 H146 0.930 . S
N141 Li91 1.990 . S
N141 C140 1.314 . S
N141 C144 1.279 . S
C142 C140 1.353 . S
C142 C145 1.348 . S
C142 H174 0.929 . S
C143 C144 1.358 . S
C143 C145 1.356 . S
C143 H175 0.930 . S
C144 N141 1.279 . S
C144 C143 1.358 . S
C144 H147 0.930 . S
C145 C142 1.348 . S
C145 C143 1.356 . S
H146 C140 0.930 . S
H147 C144 0.930 . S
O148 Li88 1.956 . S
O148 Li89 1.970 . S
O148 Li90 1.961 . S
O148 C92 1.325 . S
O149 Li88 1.970 . S
O149 Li89 1.956 . S
O149 Li91 1.961 1_455 S
O149 C98 1.325 . S
O150 Li88 1.961 1_655 S
O150 Li90 1.956 1_655 S
O150 Li91 1.970 . S
O150 C120 1.325 . S
O151 Li89 1.961 . S
O151 Li90 1.970 . S
O151 Li91 1.956 1_455 S
O151 C126 1.325 . S
H152 C94 0.929 . S
H153 C95 0.930 . S
H154 C96 0.930 . S
H155 C97 0.930 . S
H156 C99 0.930 . S
H157 C101 0.929 . S
H158 C102 0.930 . S
H159 C103 0.930 . S
H160 C106 0.930 . S
H161 C109 0.929 1_655 S
H162 C114 0.929 . S
H163 C115 0.930 . S
H164 C122 0.929 . S
H165 C123 0.930 . S
H166 C124 0.930 . S
H167 C125 0.930 . S
H168 C127 0.940 . S
H169 C128 0.930 . S
H170 C129 0.931 . S
H171 C130 0.930 . S
H172 C134 0.929 . S
H173 C136 0.930 . S
H174 C142 0.929 . S
H175 C143 0.930 . S
Li176 N193 1.990 . S
Li176 O236 1.956 . S
Li176 O237 1.970 . S
Li176 O238 1.961 . S
Li177 N201 1.990 . S
Li177 O236 1.970 . S
Li177 O237 1.956 . S
Li177 O239 1.961 . S
Li178 N223 1.990 . S
Li178 O236 1.961 . S
Li178 O238 1.956 . S
Li178 O239 1.970 . S
Li179 N229 1.990 . S
Li179 O237 1.961 . S
Li179 O238 1.970 . S
Li179 O239 1.956 . S
C180 C182 1.348 . S
C180 C183 1.356 . S
C180 O236 1.325 . S
N181 C184 1.314 . S
N181 C185 1.279 . S
C182 C180 1.348 . S
C182 C184 1.353 . S
C182 H240 0.929 . S
C183 C180 1.356 . S
C183 C185 1.358 . S
C183 H241 0.930 . S
C184 N181 1.314 . S
C184 C182 1.353 . S
C184 H242 0.930 . S
C185 N181 1.279 . S
C185 C183 1.358 . S
C185 H243 0.930 . S
C186 C189 1.348 . S
C186 C190 1.356 . S
C186 O237 1.325 . S
C187 N188 1.279 . S
C187 C190 1.358 . S
C187 H244 0.930 . S
N188 C187 1.279 . S
N188 C191 1.314 . S
C189 C186 1.348 . S
C189 C191 1.353 . S
C189 H245 0.929 . S
C190 C186 1.356 . S
C190 C187 1.358 . S
C190 H246 0.930 . S
C191 N188 1.314 . S
C191 C189 1.353 . S
C191 H247 0.930 . S
C192 N193 1.314 . S
C192 C197 1.353 . S
C192 H198 0.930 . S
N193 Li176 1.990 . S
N193 C192 1.314 . S
N193 C195 1.279 . S
C194 C195 1.358 . S
C194 C196 1.356 . S
C194 H248 0.930 . S
C195 N193 1.279 . S
C195 C194 1.358 . S
C195 H199 0.930 . S
C196 C194 1.356 . S
C196 C197 1.348 . S
C197 C192 1.353 . S
C197 C196 1.348 . S
C197 H249 0.929 . S
H198 C192 0.930 . S
H199 C195 0.930 . S
C200 N201 1.314 . S
C200 C202 1.353 . S
C200 H206 0.930 . S
N201 Li177 1.990 . S
N201 C200 1.314 . S
N201 C204 1.279 . S
C202 C200 1.353 . S
C202 C205 1.348 . S
C202 H250 0.929 . S
C203 C204 1.358 . S
C203 C205 1.356 . S
C203 H251 0.930 . S
C204 N201 1.279 . S
C204 C203 1.358 . S
C204 H207 0.930 . S
C205 C202 1.348 . S
C205 C203 1.356 . S
H206 C200 0.930 . S
H207 C204 0.930 . S
C208 C210 1.348 . S
C208 C211 1.356 . S
C208 O238 1.325 . S
N209 C212 1.314 . S
N209 C213 1.279 . S
C210 C208 1.348 . S
C210 C212 1.353 . S
C210 H252 0.929 . S
C211 C208 1.356 . S
C211 C213 1.358 . S
C211 H253 0.930 . S
C212 N209 1.314 . S
C212 C210 1.353 . S
C212 H254 0.930 . S
C213 N209 1.279 . S
C213 C211 1.358 . S
C213 H255 0.930 . S
C214 C215 1.348 . S
C214 C216 1.356 . S
C214 O239 1.325 . S
C215 C214 1.348 . S
C215 C217 1.353 . S
C215 H256 0.929 . S
C216 C214 1.356 . S
C216 C218 1.358 . S
C216 H257 0.930 . S
C217 C215 1.353 . S
C217 N219 1.314 . S
C217 H258 0.930 . S
C218 C216 1.358 . S
C218 N219 1.279 . S
C218 H259 0.930 . S
N219 C217 1.314 . S
N219 C218 1.279 . S
C220 C222 1.353 . S
C220 N223 1.314 . S
C220 H226 0.930 . S
C221 N223 1.279 . S
C221 C224 1.358 . S
C221 H227 0.930 . S
C222 C220 1.353 . S
C222 C225 1.348 . S
C222 H260 0.929 . S
N223 Li178 1.990 . S
N223 C220 1.314 . S
N223 C221 1.279 . S
C224 C221 1.358 . S
C224 C225 1.356 . S
C224 H261 0.930 . S
C225 C222 1.348 . S
C225 C224 1.356 . S
H226 C220 0.930 . S
H227 C221 0.930 . S
C228 N229 1.314 . S
C228 C230 1.353 . S
C228 H234 0.930 . S
N229 Li179 1.990 . S
N229 C228 1.314 . S
N229 C232 1.279 . S
C230 C228 1.353 . S
C230 C233 1.348 . S
C230 H262 0.929 . S
C231 C232 1.358 . S
C231 C233 1.356 . S
C231 H263 0.930 . S
C232 N229 1.279 . S
C232 C231 1.358 . S
C232 H235 0.930 . S
C233 C230 1.348 . S
C233 C231 1.356 . S
H234 C228 0.930 . S
H235 C232 0.930 . S
O236 Li176 1.956 . S
O236 Li177 1.970 . S
O236 Li178 1.961 . S
O236 C180 1.325 . S
O237 Li176 1.970 . S
O237 Li177 1.956 . S
O237 Li179 1.961 . S
O237 C186 1.325 . S
O238 Li176 1.961 . S
O238 Li178 1.956 . S
O238 Li179 1.970 . S
O238 C208 1.325 . S
O239 Li177 1.961 . S
O239 Li178 1.970 . S
O239 Li179 1.956 . S
O239 C214 1.325 . S
H240 C182 0.929 . S
H241 C183 0.930 . S
H242 C184 0.930 . S
H243 C185 0.930 . S
H244 C187 0.930 . S
H245 C189 0.929 . S
H246 C190 0.930 . S
H247 C191 0.930 . S
H248 C194 0.930 . S
H249 C197 0.929 . S
H250 C202 0.929 . S
H251 C203 0.930 . S
H252 C210 0.929 . S
H253 C211 0.930 . S
H254 C212 0.930 . S
H255 C213 0.930 . S
H256 C215 0.929 . S
H257 C216 0.930 . S
H258 C217 0.930 . S
H259 C218 0.930 . S
H260 C222 0.929 . S
H261 C224 0.930 . S
H262 C230 0.929 . S
H263 C231 0.930 . S
Li264 N281 1.990 . S
Li264 O324 1.956 . S
Li264 O325 1.970 . S
Li264 O326 1.961 . S
Li265 N289 1.990 . S
Li265 O324 1.970 . S
Li265 O325 1.956 . S
Li265 O327 1.961 . S
Li266 N311 1.990 . S
Li266 O324 1.961 . S
Li266 O326 1.956 . S
Li266 O327 1.970 . S
Li267 N317 1.990 . S
Li267 O325 1.961 . S
Li267 O326 1.970 . S
Li267 O327 1.956 . S
C268 C270 1.348 . S
C268 C271 1.356 . S
C268 O324 1.325 . S
N269 C272 1.314 . S
N269 C273 1.279 . S
C270 C268 1.348 . S
C270 C272 1.353 . S
C270 H328 0.929 . S
C271 C268 1.356 . S
C271 C273 1.358 . S
C271 H329 0.930 . S
C272 N269 1.314 . S
C272 C270 1.353 . S
C272 H330 0.930 . S
C273 N269 1.279 . S
C273 C271 1.358 . S
C273 H331 0.930 . S
C274 C277 1.348 . S
C274 C278 1.356 . S
C274 O325 1.325 . S
C275 N276 1.279 . S
C275 C278 1.358 . S
C275 H332 0.930 . S
N276 C275 1.279 . S
N276 C279 1.314 . S
C277 C274 1.348 . S
C277 C279 1.353 . S
C277 H333 0.929 . S
C278 C274 1.356 . S
C278 C275 1.358 . S
C278 H334 0.930 . S
C279 N276 1.314 . S
C279 C277 1.353 . S
C279 H335 0.930 . S
C280 N281 1.314 . S
C280 C285 1.353 . S
C280 H286 0.930 . S
N281 Li264 1.990 . S
N281 C280 1.314 . S
N281 C283 1.279 . S
C282 C283 1.358 . S
C282 C284 1.356 . S
C282 H336 0.930 . S
C283 N281 1.279 . S
C283 C282 1.358 . S
C283 H287 0.930 . S
C284 C282 1.356 . S
C284 C285 1.348 . S
C285 C280 1.353 . S
C285 C284 1.348 . S
C285 H337 0.929 . S
H286 C280 0.930 . S
H287 C283 0.930 . S
C288 N289 1.314 . S
C288 C290 1.353 . S
C288 H294 0.930 . S
N289 Li265 1.990 . S
N289 C288 1.314 . S
N289 C292 1.279 . S
C290 C288 1.353 . S
C290 C293 1.348 . S
C290 H338 0.929 . S
C291 C292 1.358 . S
C291 C293 1.356 . S
C291 H339 0.930 . S
C292 N289 1.279 . S
C292 C291 1.358 . S
C292 H295 0.930 . S
C293 C290 1.348 . S
C293 C291 1.356 . S
H294 C288 0.930 . S
H295 C292 0.930 . S
C296 C298 1.348 . S
C296 C299 1.356 . S
C296 O326 1.325 . S
N297 C300 1.314 . S
N297 C301 1.279 . S
C298 C296 1.348 . S
C298 C300 1.353 . S
C298 H340 0.929 . S
C299 C296 1.356 . S
C299 C301 1.358 . S
C299 H341 0.930 . S
C300 N297 1.314 . S
C300 C298 1.353 . S
C300 H342 0.930 . S
C301 N297 1.279 . S
C301 C299 1.358 . S
C301 H343 0.930 . S
C302 C303 1.348 . S
C302 C304 1.356 . S
C302 O327 1.325 . S
C303 C302 1.348 . S
C303 C305 1.353 . S
C303 H344 0.929 . S
C304 C302 1.356 . S
C304 C306 1.358 . S
C304 H345 0.930 . S
C305 C303 1.353 . S
C305 N307 1.314 . S
C305 H346 0.930 . S
C306 C304 1.358 . S
C306 N307 1.279 . S
C306 H347 0.930 . S
N307 C305 1.314 . S
N307 C306 1.279 . S
C308 C310 1.353 . S
C308 N311 1.314 . S
C308 H314 0.930 . S
C309 N311 1.279 . S
C309 C312 1.358 . S
C309 H315 0.930 . S
C310 C308 1.353 . S
C310 C313 1.348 . S
C310 H348 0.929 . S
N311 Li266 1.990 . S
N311 C308 1.314 . S
N311 C309 1.279 . S
C312 C309 1.358 . S
C312 C313 1.356 . S
C312 H349 0.930 . S
C313 C310 1.348 . S
C313 C312 1.356 . S
H314 C308 0.930 . S
H315 C309 0.930 . S
C316 N317 1.314 . S
C316 C318 1.353 . S
C316 H322 0.930 . S
N317 Li267 1.990 . S
N317 C316 1.314 . S
N317 C320 1.279 . S
C318 C316 1.353 . S
C318 C321 1.348 . S
C318 H350 0.929 . S
C319 C320 1.358 . S
C319 C321 1.356 . S
C319 H351 0.930 . S
C320 N317 1.279 . S
C320 C319 1.358 . S
C320 H323 0.930 . S
C321 C318 1.348 . S
C321 C319 1.356 . S
H322 C316 0.930 . S
H323 C320 0.930 . S
O324 Li264 1.956 . S
O324 Li265 1.970 . S
O324 Li266 1.961 . S
O324 C268 1.325 . S
O325 Li264 1.970 . S
O325 Li265 1.956 . S
O325 Li267 1.961 . S
O325 C274 1.325 . S
O326 Li264 1.961 . S
O326 Li266 1.956 . S
O326 Li267 1.970 . S
O326 C296 1.325 . S
O327 Li265 1.961 . S
O327 Li266 1.970 . S
O327 Li267 1.956 . S
O327 C302 1.325 . S
H328 C270 0.929 . S
H329 C271 0.930 . S
H330 C272 0.930 . S
H331 C273 0.930 . S
H332 C275 0.930 . S
H333 C277 0.929 . S
H334 C278 0.930 . S
H335 C279 0.930 . S
H336 C282 0.930 . S
H337 C285 0.929 . S
H338 C290 0.929 . S
H339 C291 0.930 . S
H340 C298 0.929 . S
H341 C299 0.930 . S
H342 C300 0.930 . S
H343 C301 0.930 . S
H344 C303 0.929 . S
H345 C304 0.930 . S
H346 C305 0.930 . S
H347 C306 0.930 . S
H348 C310 0.929 . S
H349 C312 0.930 . S
H350 C318 0.929 . S
H351 C319 0.930 . S
Li352 N369 1.990 . S
Li352 O412 1.956 . S
Li352 O413 1.970 . S
Li352 O414 1.961 . S
Li353 N377 1.990 . S
Li353 O412 1.970 . S
Li353 O413 1.956 . S
Li353 O415 1.961 . S
Li354 N399 1.990 . S
Li354 O412 1.961 . S
Li354 O414 1.956 . S
Li354 O415 1.970 . S
Li355 N405 1.990 . S
Li355 O413 1.961 . S
Li355 O414 1.970 . S
Li355 O415 1.956 . S
C356 C358 1.348 . S
C356 C359 1.356 . S
C356 O412 1.325 . S
N357 C360 1.314 . S
N357 C361 1.279 . S
C358 C356 1.348 . S
C358 C360 1.353 . S
C358 H416 0.929 . S
C359 C356 1.356 . S
C359 C361 1.358 . S
C359 H417 0.930 . S
C360 N357 1.314 . S
C360 C358 1.353 . S
C360 H418 0.930 . S
C361 N357 1.279 . S
C361 C359 1.358 . S
C361 H419 0.930 . S
C362 C365 1.348 . S
C362 C366 1.356 . S
C362 O413 1.325 . S
C363 N364 1.279 . S
C363 C366 1.358 . S
C363 H420 0.930 . S
N364 C363 1.279 . S
N364 C367 1.314 . S
C365 C362 1.348 . S
C365 C367 1.353 . S
C365 H421 0.929 . S
C366 C362 1.356 . S
C366 C363 1.358 . S
C366 H422 0.930 . S
C367 N364 1.314 . S
C367 C365 1.353 . S
C367 H423 0.930 . S
C368 N369 1.314 . S
C368 C373 1.353 . S
C368 H374 0.930 . S
N369 Li352 1.990 . S
N369 C368 1.314 . S
N369 C371 1.279 . S
C370 C371 1.358 . S
C370 C372 1.356 . S
C370 H424 0.930 . S
C371 N369 1.279 . S
C371 C370 1.358 . S
C371 H375 0.930 . S
C372 C370 1.356 . S
C372 C373 1.348 . S
C373 C368 1.353 . S
C373 C372 1.348 . S
C373 H425 0.929 . S
H374 C368 0.930 . S
H375 C371 0.930 . S
C376 N377 1.314 . S
C376 C378 1.353 . S
C376 H382 0.930 . S
N377 Li353 1.990 . S
N377 C376 1.314 . S
N377 C380 1.279 . S
C378 C376 1.353 . S
C378 C381 1.348 . S
C378 H426 0.929 . S
C379 C380 1.358 . S
C379 C381 1.356 . S
C379 H427 0.930 . S
C380 N377 1.279 . S
C380 C379 1.358 . S
C380 H383 0.930 . S
C381 C378 1.348 . S
C381 C379 1.356 . S
H382 C376 0.930 . S
H383 C380 0.930 . S
C384 C386 1.348 1_455 S
C384 C387 1.356 . S
C384 O414 1.325 . S
N385 C388 1.314 . S
N385 C389 1.279 . S
C386 C384 1.348 1_655 S
C386 C388 1.353 . S
C386 H428 0.929 . S
C387 C384 1.356 . S
C387 C389 1.358 1_455 S
C387 H429 0.930 . S
C388 N385 1.314 . S
C388 C386 1.353 . S
C388 H430 0.930 . S
C389 N385 1.279 . S
C389 C387 1.358 1_655 S
C389 H431 0.930 . S
C390 C391 1.348 . S
C390 C392 1.356 . S
C390 O415 1.325 . S
C391 C390 1.348 . S
C391 C393 1.353 . S
C391 H432 0.929 . S
C392 C390 1.356 . S
C392 C394 1.358 . S
C392 H433 0.930 . S
C393 C391 1.353 . S
C393 N395 1.314 . S
C393 H434 0.930 . S
C394 C392 1.358 . S
C394 N395 1.279 . S
C394 H435 0.930 . S
N395 C393 1.314 . S
N395 C394 1.279 . S
C396 C398 1.353 . S
C396 N399 1.314 . S
C396 H402 0.930 . S
C397 N399 1.279 . S
C397 C400 1.358 . S
C397 H403 0.930 . S
C398 C396 1.353 . S
C398 C401 1.348 . S
C398 H436 0.929 . S
N399 Li354 1.990 . S
N399 C396 1.314 . S
N399 C397 1.279 . S
C400 C397 1.358 . S
C400 C401 1.356 . S
C400 H437 0.930 . S
C401 C398 1.348 . S
C401 C400 1.356 . S
H402 C396 0.930 . S
H403 C397 0.930 . S
C404 N405 1.314 . S
C404 C406 1.353 1_455 S
C404 H410 0.930 . S
N405 Li355 1.990 . S
N405 C404 1.314 . S
N405 C408 1.279 . S
C406 C404 1.353 1_655 S
C406 C409 1.348 . S
C406 H438 0.929 . S
C407 C408 1.358 1_655 S
C407 C409 1.356 . S
C407 H439 0.930 . S
C408 N405 1.279 . S
C408 C407 1.358 1_455 S
C408 H411 0.930 . S
C409 C406 1.348 . S
C409 C407 1.356 . S
H410 C404 0.930 . S
H411 C408 0.930 . S
O412 Li352 1.956 . S
O412 Li353 1.970 . S
O412 Li354 1.961 . S
O412 C356 1.325 . S
O413 Li352 1.970 . S
O413 Li353 1.956 . S
O413 Li355 1.961 . S
O413 C362 1.325 . S
O414 Li352 1.961 . S
O414 Li354 1.956 . S
O414 Li355 1.970 . S
O414 C384 1.325 . S
O415 Li353 1.961 . S
O415 Li354 1.970 . S
O415 Li355 1.956 . S
O415 C390 1.325 . S
H416 C358 0.929 . S
H417 C359 0.930 . S
H418 C360 0.930 . S
H419 C361 0.930 . S
H420 C363 0.930 . S
H421 C365 0.929 . S
H422 C366 0.930 . S
H423 C367 0.930 . S
H424 C370 0.930 . S
H425 C373 0.929 . S
H426 C378 0.929 . S
H427 C379 0.930 . S
H428 C386 0.929 . S
H429 C387 0.930 . S
H430 C388 0.930 . S
H431 C389 0.930 . S
H432 C391 0.929 . S
H433 C392 0.930 . S
H434 C393 0.930 . S
H435 C394 0.930 . S
H436 C398 0.929 . S
H437 C400 0.930 . S
H438 C406 0.929 . S
H439 C407 0.930 . S
Li440 N457 1.990 . S
Li440 O500 1.956 . S
Li440 O501 1.970 . S
Li440 O502 1.961 . S
Li441 N465 1.990 . S
Li441 O500 1.970 . S
Li441 O501 1.956 . S
Li441 O503 1.961 . S
Li442 N487 1.990 . S
Li442 O500 1.961 . S
Li442 O502 1.956 . S
Li442 O503 1.970 . S
Li443 N493 1.990 . S
Li443 O501 1.961 . S
Li443 O502 1.970 . S
Li443 O503 1.956 . S
C444 C446 1.348 . S
C444 C447 1.356 . S
C444 O500 1.325 . S
N445 C448 1.314 . S
N445 C449 1.279 . S
C446 C444 1.348 . S
C446 C448 1.353 . S
C446 H504 0.929 . S
C447 C444 1.356 . S
C447 C449 1.358 . S
C447 H505 0.930 . S
C448 N445 1.314 . S
C448 C446 1.353 . S
C448 H506 0.930 . S
C449 N445 1.279 . S
C449 C447 1.358 . S
C449 H507 0.930 . S
C450 C453 1.348 . S
C450 C454 1.356 . S
C450 O501 1.325 . S
C451 N452 1.279 . S
C451 C454 1.358 . S
C451 H508 0.930 . S
N452 C451 1.279 . S
N452 C455 1.314 . S
C453 C450 1.348 . S
C453 C455 1.353 . S
C453 H509 0.929 . S
C454 C450 1.356 . S
C454 C451 1.358 . S
C454 H510 0.930 . S
C455 N452 1.314 . S
C455 C453 1.353 . S
C455 H511 0.930 . S
C456 N457 1.314 . S
C456 C461 1.353 . S
C456 H462 0.930 . S
N457 Li440 1.990 . S
N457 C456 1.314 . S
N457 C459 1.279 . S
C458 C459 1.358 . S
C458 C460 1.356 . S
C458 H512 0.930 . S
C459 N457 1.279 . S
C459 C458 1.358 . S
C459 H463 0.930 . S
C460 C458 1.356 . S
C460 C461 1.348 . S
C461 C456 1.353 . S
C461 C460 1.348 . S
C461 H513 0.929 . S
H462 C456 0.930 . S
H463 C459 0.930 . S
C464 N465 1.314 . S
C464 C466 1.353 . S
C464 H470 0.930 . S
N465 Li441 1.990 . S
N465 C464 1.314 . S
N465 C468 1.279 . S
C466 C464 1.353 . S
C466 C469 1.348 . S
C466 H514 0.929 . S
C467 C468 1.358 . S
C467 C469 1.356 . S
C467 H515 0.930 . S
C468 N465 1.279 . S
C468 C467 1.358 . S
C468 H471 0.930 . S
C469 C466 1.348 . S
C469 C467 1.356 . S
H470 C464 0.930 . S
H471 C468 0.930 . S
C472 C474 1.348 . S
C472 C475 1.356 . S
C472 O502 1.325 . S
N473 C476 1.314 . S
N473 C477 1.279 . S
C474 C472 1.348 . S
C474 C476 1.353 . S
C474 H516 0.929 . S
C475 C472 1.356 . S
C475 C477 1.358 . S
C475 H517 0.930 . S
C476 N473 1.314 . S
C476 C474 1.353 . S
C476 H518 0.930 . S
C477 N473 1.279 . S
C477 C475 1.358 . S
C477 H519 0.930 . S
C478 C479 1.348 . S
C478 C480 1.356 . S
C478 O503 1.325 . S
C479 C478 1.348 . S
C479 C481 1.353 . S
C479 H520 0.929 . S
C480 C478 1.356 . S
C480 C482 1.358 . S
C480 H521 0.930 . S
C481 C479 1.353 . S
C481 N483 1.314 . S
C481 H522 0.930 . S
C482 C480 1.358 . S
C482 N483 1.279 . S
C482 H523 0.930 . S
N483 C481 1.314 . S
N483 C482 1.279 . S
C484 C486 1.353 . S
C484 N487 1.314 . S
C484 H490 0.930 . S
C485 N487 1.279 . S
C485 C488 1.358 . S
C485 H491 0.930 . S
C486 C484 1.353 . S
C486 C489 1.348 . S
C486 H524 0.929 . S
N487 Li442 1.990 . S
N487 C484 1.314 . S
N487 C485 1.279 . S
C488 C485 1.358 . S
C488 C489 1.356 . S
C488 H525 0.930 . S
C489 C486 1.348 . S
C489 C488 1.356 . S
H490 C484 0.930 . S
H491 C485 0.930 . S
C492 N493 1.314 . S
C492 C494 1.353 . S
C492 H498 0.930 . S
N493 Li443 1.990 . S
N493 C492 1.314 . S
N493 C496 1.279 . S
C494 C492 1.353 . S
C494 C497 1.348 . S
C494 H526 0.929 . S
C495 C496 1.358 . S
C495 C497 1.356 . S
C495 H527 0.930 . S
C496 N493 1.279 . S
C496 C495 1.358 . S
C496 H499 0.930 . S
C497 C494 1.348 . S
C497 C495 1.356 . S
H498 C492 0.930 . S
H499 C496 0.930 . S
O500 Li440 1.956 . S
O500 Li441 1.970 . S
O500 Li442 1.961 . S
O500 C444 1.325 . S
O501 Li440 1.970 . S
O501 Li441 1.956 . S
O501 Li443 1.961 . S
O501 C450 1.325 . S
O502 Li440 1.961 . S
O502 Li442 1.956 . S
O502 Li443 1.970 . S
O502 C472 1.325 . S
O503 Li441 1.961 . S
O503 Li442 1.970 . S
O503 Li443 1.956 . S
O503 C478 1.325 . S
H504 C446 0.929 . S
H505 C447 0.930 . S
H506 C448 0.930 . S
H507 C449 0.930 . S
H508 C451 0.930 . S
H509 C453 0.929 . S
H510 C454 0.930 . S
H511 C455 0.930 . S
H512 C458 0.930 . S
H513 C461 0.929 . S
H514 C466 0.929 . S
H515 C467 0.930 . S
H516 C474 0.929 . S
H517 C475 0.930 . S
H518 C476 0.930 . S
H519 C477 0.930 . S
H520 C479 0.929 . S
H521 C480 0.930 . S
H522 C481 0.930 . S
H523 C482 0.930 . S
H524 C486 0.929 . S
H525 C488 0.930 . S
H526 C494 0.929 . S
H527 C495 0.930 . S
Li528 N545 1.990 . S
Li528 O588 1.956 . S
Li528 O589 1.970 . S
Li528 O590 1.961 . S
Li529 N553 1.990 . S
Li529 O588 1.970 . S
Li529 O589 1.956 . S
Li529 O591 1.961 . S
Li530 N575 1.990 . S
Li530 O588 1.961 . S
Li530 O590 1.956 . S
Li530 O591 1.970 . S
Li531 N581 1.990 . S
Li531 O589 1.961 . S
Li531 O590 1.970 . S
Li531 O591 1.956 . S
C532 C534 1.348 . S
C532 C535 1.356 . S
C532 O588 1.325 . S
N533 C536 1.314 . S
N533 C537 1.279 . S
C534 C532 1.348 . S
C534 C536 1.353 . S
C534 H592 0.929 . S
C535 C532 1.356 . S
C535 C537 1.358 . S
C535 H593 0.930 . S
C536 N533 1.314 . S
C536 C534 1.353 . S
C536 H594 0.930 . S
C537 N533 1.279 . S
C537 C535 1.358 . S
C537 H595 0.930 . S
C538 C541 1.348 . S
C538 C542 1.356 . S
C538 O589 1.325 . S
C539 N540 1.279 . S
C539 C542 1.358 . S
C539 H596 0.930 . S
N540 C539 1.279 . S
N540 C543 1.314 . S
C541 C538 1.348 . S
C541 C543 1.353 . S
C541 H597 0.929 . S
C542 C538 1.356 . S
C542 C539 1.358 . S
C542 H598 0.930 . S
C543 N540 1.314 . S
C543 C541 1.353 . S
C543 H599 0.930 . S
C544 N545 1.314 . S
C544 C549 1.353 . S
C544 H550 0.930 . S
N545 Li528 1.990 . S
N545 C544 1.314 . S
N545 C547 1.279 . S
C546 C547 1.358 . S
C546 C548 1.356 . S
C546 H600 0.930 . S
C547 N545 1.279 . S
C547 C546 1.358 . S
C547 H551 0.930 . S
C548 C546 1.356 . S
C548 C549 1.348 . S
C549 C544 1.353 . S
C549 C548 1.348 . S
C549 H601 0.929 . S
H550 C544 0.930 . S
H551 C547 0.930 . S
C552 N553 1.314 . S
C552 C554 1.353 . S
C552 H558 0.930 . S
N553 Li529 1.990 . S
N553 C552 1.314 . S
N553 C556 1.279 . S
C554 C552 1.353 . S
C554 C557 1.348 . S
C554 H602 0.929 . S
C555 C556 1.358 . S
C555 C557 1.356 . S
C555 H603 0.930 . S
C556 N553 1.279 . S
C556 C555 1.358 . S
C556 H559 0.930 . S
C557 C554 1.348 . S
C557 C555 1.356 . S
H558 C552 0.930 . S
H559 C556 0.930 . S
C560 C562 1.348 . S
C560 C563 1.356 . S
C560 O590 1.325 . S
N561 C564 1.314 . S
N561 C565 1.279 . S
C562 C560 1.348 . S
C562 C564 1.353 . S
C562 H604 0.929 . S
C563 C560 1.356 . S
C563 C565 1.358 . S
C563 H605 0.930 . S
C564 N561 1.314 . S
C564 C562 1.353 . S
C564 H606 0.930 . S
C565 N561 1.279 . S
C565 C563 1.358 . S
C565 H607 0.930 . S
C566 C567 1.348 . S
C566 C568 1.356 . S
C566 O591 1.325 . S
C567 C566 1.348 . S
C567 C569 1.353 . S
C567 H608 0.929 . S
C568 C566 1.356 . S
C568 C570 1.358 . S
C568 H609 0.930 . S
C569 C567 1.353 . S
C569 N571 1.314 . S
C569 H610 0.930 . S
C570 C568 1.358 . S
C570 N571 1.279 . S
C570 H611 0.930 . S
N571 C569 1.314 . S
N571 C570 1.279 . S
C572 C574 1.353 . S
C572 N575 1.314 . S
C572 H578 0.930 . S
C573 N575 1.279 . S
C573 C576 1.358 . S
C573 H579 0.930 . S
C574 C572 1.353 . S
C574 C577 1.348 . S
C574 H612 0.929 . S
N575 Li530 1.990 . S
N575 C572 1.314 . S
N575 C573 1.279 . S
C576 C573 1.358 . S
C576 C577 1.356 . S
C576 H613 0.930 . S
C577 C574 1.348 . S
C577 C576 1.356 . S
H578 C572 0.930 . S
H579 C573 0.930 . S
C580 N581 1.314 . S
C580 C582 1.353 . S
C580 H586 0.930 . S
N581 Li531 1.990 . S
N581 C580 1.314 . S
N581 C584 1.279 . S
C582 C580 1.353 . S
C582 C585 1.348 . S
C582 H614 0.929 . S
C583 C584 1.358 . S
C583 C585 1.356 . S
C583 H615 0.930 . S
C584 N581 1.279 . S
C584 C583 1.358 . S
C584 H587 0.930 . S
C585 C582 1.348 . S
C585 C583 1.356 . S
H586 C580 0.930 . S
H587 C584 0.930 . S
O588 Li528 1.956 . S
O588 Li529 1.970 . S
O588 Li530 1.961 . S
O588 C532 1.325 . S
O589 Li528 1.970 . S
O589 Li529 1.956 . S
O589 Li531 1.961 . S
O589 C538 1.325 . S
O590 Li528 1.961 . S
O590 Li530 1.956 . S
O590 Li531 1.970 . S
O590 C560 1.325 . S
O591 Li529 1.961 . S
O591 Li530 1.970 . S
O591 Li531 1.956 . S
O591 C566 1.325 . S
H592 C534 0.929 . S
H593 C535 0.930 . S
H594 C536 0.930 . S
H595 C537 0.930 . S
H596 C539 0.930 . S
H597 C541 0.929 . S
H598 C542 0.930 . S
H599 C543 0.930 . S
H600 C546 0.930 . S
H601 C549 0.929 . S
H602 C554 0.929 . S
H603 C555 0.930 . S
H604 C562 0.929 . S
H605 C563 0.930 . S
H606 C564 0.930 . S
H607 C565 0.930 . S
H608 C567 0.929 . S
H609 C568 0.930 . S
H610 C569 0.930 . S
H611 C570 0.930 . S
H612 C574 0.929 . S
H613 C576 0.930 . S
H614 C582 0.929 . S
H615 C583 0.930 . S
Li616 N633 1.990 . S
Li616 O676 1.956 1_455 S
Li616 O677 1.970 . S
Li616 O678 1.961 . S
Li617 N641 1.990 . S
Li617 O676 1.970 . S
Li617 O677 1.956 1_655 S
Li617 O679 1.961 . S
Li618 N663 1.993 . S
Li618 O676 1.956 . S
Li618 O678 1.960 1_655 S
Li618 O679 1.970 . S
Li619 N669 1.990 . S
Li619 O677 1.961 . S
Li619 O678 1.970 . S
Li619 O679 1.956 1_455 S
C620 C622 1.348 . S
C620 C623 1.356 . S
C620 O676 1.325 . S
N621 C624 1.314 . S
N621 C625 1.279 . S
C622 C620 1.348 . S
C622 C624 1.353 . S
C622 H680 0.929 . S
C623 C620 1.356 . S
C623 C625 1.358 . S
C623 H681 0.930 . S
C624 N621 1.314 . S
C624 C622 1.353 . S
C624 H682 0.930 . S
C625 N621 1.279 . S
C625 C623 1.358 . S
C625 H683 0.930 1_556 S
C626 C629 1.348 1_455 S
C626 C630 1.356 . S
C626 O677 1.325 . S
C627 N628 1.279 . S
C627 C630 1.358 . S
C627 H684 0.930 . S
N628 C627 1.279 . S
N628 C631 1.301 1_455 S
C629 C626 1.348 1_655 S
C629 C631 1.351 . S
C629 H685 0.929 . S
C630 C626 1.356 . S
C630 C627 1.358 . S
C630 H686 0.930 . S
C631 N628 1.301 1_655 S
C631 C629 1.351 . S
C631 H687 0.951 . S
C632 N633 1.314 . S
C632 C637 1.353 . S
C632 H638 0.930 . S
N633 Li616 1.990 . S
N633 C632 1.314 . S
N633 C635 1.279 1_455 S
C634 C635 1.358 . S
C634 C636 1.356 1_655 S
C634 H688 0.930 . S
C635 N633 1.279 1_655 S
C635 C634 1.358 . S
C635 H639 0.930 . S
C636 C634 1.356 1_455 S
C636 C637 1.348 . S
C637 C632 1.353 . S
C637 C636 1.348 . S
C637 H689 0.929 . S
H638 C632 0.930 . S
H639 C635 0.930 . S
C640 N641 1.314 . S
C640 C642 1.353 . S
C640 H646 0.930 . S
N641 Li617 1.990 . S
N641 C640 1.314 . S
N641 C644 1.279 . S
C642 C640 1.353 . S
C642 C645 1.348 . S
C642 H690 0.929 . S
C643 C644 1.358 . S
C643 C645 1.356 . S
C643 H691 0.930 . S
C644 N641 1.279 . S
C644 C643 1.358 . S
C644 H647 0.930 . S
C645 C642 1.348 . S
C645 C643 1.356 . S
H646 C640 0.930 . S
H647 C644 0.930 . S
C648 C650 1.348 . S
C648 C651 1.356 . S
C648 O678 1.325 . S
N649 C652 1.314 . S
N649 C653 1.279 . S
C650 C648 1.348 . S
C650 C652 1.353 . S
C650 H692 0.929 . S
C651 C648 1.356 . S
C651 C653 1.358 . S
C651 H693 0.930 . S
C652 N649 1.314 . S
C652 C650 1.353 . S
C652 H694 0.930 . S
C653 N649 1.279 . S
C653 C651 1.358 . S
C653 H695 0.930 1_556 S
C654 C655 1.348 . S
C654 C656 1.356 . S
C654 O679 1.325 . S
C655 C654 1.348 . S
C655 C657 1.353 . S
C655 H696 0.929 1_655 S
C656 C654 1.356 . S
C656 C658 1.358 . S
C656 H697 0.930 . S
C657 C655 1.353 . S
C657 N659 1.314 . S
C657 H698 0.930 . S
C658 C656 1.358 . S
C658 N659 1.279 . S
C658 H699 0.930 . S
N659 C657 1.314 . S
N659 C658 1.279 . S
C660 C662 1.353 . S
C660 N663 1.340 . S
C660 H666 0.930 . S
C661 N663 1.252 1_455 S
C661 C664 1.358 . S
C661 H667 0.930 . S
C662 C660 1.353 . S
C662 C665 1.348 . S
C662 H700 0.929 . S
N663 Li618 1.993 . S
N663 C660 1.340 . S
N663 C661 1.252 1_655 S
C664 C661 1.358 . S
C664 C665 1.356 1_455 S
C664 H701 0.930 . S
C665 C662 1.348 . S
C665 C664 1.356 1_655 S
H666 C660 0.930 . S
H667 C661 0.930 . S
C668 N669 1.314 . S
C668 C670 1.353 . S
C668 H674 0.930 . S
N669 Li619 1.990 . S
N669 C668 1.314 . S
N669 C672 1.279 . S
C670 C668 1.353 . S
C670 C673 1.348 . S
C670 H702 0.929 . S
C671 C672 1.358 . S
C671 C673 1.356 . S
C671 H703 0.930 . S
C672 N669 1.279 . S
C672 C671 1.358 . S
C672 H675 0.930 . S
C673 C670 1.348 . S
C673 C671 1.356 . S
H674 C668 0.930 . S
H675 C672 0.930 . S
O676 Li616 1.956 1_655 S
O676 Li617 1.970 . S
O676 Li618 1.956 . S
O676 C620 1.325 . S
O677 Li616 1.970 . S
O677 Li617 1.956 1_455 S
O677 Li619 1.961 . S
O677 C626 1.325 . S
O678 Li616 1.961 . S
O678 Li618 1.960 1_455 S
O678 Li619 1.970 . S
O678 C648 1.325 . S
O679 Li617 1.961 . S
O679 Li618 1.970 . S
O679 Li619 1.956 1_655 S
O679 C654 1.325 . S
H680 C622 0.929 . S
H681 C623 0.930 . S
H682 C624 0.930 . S
H683 C625 0.930 1_554 S
H684 C627 0.930 . S
H685 C629 0.929 . S
H686 C630 0.930 . S
H687 C631 0.951 . S
H688 C634 0.930 . S
H689 C637 0.929 . S
H690 C642 0.929 . S
H691 C643 0.930 . S
H692 C650 0.929 . S
H693 C651 0.930 . S
H694 C652 0.930 . S
H695 C653 0.930 1_554 S
H696 C655 0.929 1_455 S
H697 C656 0.930 . S
H698 C657 0.930 . S
H699 C658 0.930 . S
H700 C662 0.929 . S
H701 C664 0.930 . S
H702 C670 0.929 . S
H703 C671 0.930 . S
Li704 N721 1.990 . S
Li704 O764 1.956 1_545 S
Li704 O765 1.970 . S
Li704 O766 1.961 . S
Li705 N729 1.990 . S
Li705 O764 1.970 . S
Li705 O765 1.956 1_565 S
Li705 O767 1.961 1_565 S
Li706 N751 1.990 . S
Li706 O764 1.961 1_545 S
Li706 O766 1.956 . S
Li706 O767 1.970 . S
Li707 N757 1.990 . S
Li707 O765 1.961 . S
Li707 O766 1.970 . S
Li707 O767 1.956 . S
C708 C710 1.348 . S
C708 C711 1.356 . S
C708 O764 1.325 . S
N709 C712 1.314 . S
N709 C713 1.279 . S
C710 C708 1.348 . S
C710 C712 1.353 . S
C710 H768 0.929 . S
C711 C708 1.356 . S
C711 C713 1.358 . S
C711 H769 0.930 . S
C712 N709 1.314 . S
C712 C710 1.353 . S
C712 H770 0.930 . S
C713 N709 1.279 . S
C713 C711 1.358 . S
C713 H771 0.930 . S
C714 C717 1.348 . S
C714 C718 1.356 . S
C714 O765 1.325 . S
C715 N716 1.279 . S
C715 C718 1.358 . S
C715 H772 0.930 . S
N716 C715 1.279 . S
N716 C719 1.322 . S
C717 C714 1.348 . S
C717 C719 1.353 . S
C717 H773 0.910 1_545 S
C718 C714 1.356 . S
C718 C715 1.358 . S
C718 H774 0.930 . S
C719 N716 1.322 . S
C719 C717 1.353 . S
C719 H775 0.921 1_545 S
C720 N721 1.314 . S
C720 C725 1.353 . S
C720 H726 0.930 . S
N721 Li704 1.990 . S
N721 C720 1.314 . S
N721 C723 1.279 1_545 S
C722 C723 1.362 1_545 S
C722 C724 1.382 . S
C722 H776 0.900 1_545 S
C723 N721 1.279 1_565 S
C723 C722 1.362 1_565 S
C723 H727 0.930 . S
C724 C722 1.382 . S
C724 C725 1.348 . S
C725 C720 1.353 . S
C725 C724 1.348 . S
C725 H777 0.929 . S
H726 C720 0.930 . S
H727 C723 0.930 . S
C728 N729 1.314 . S
C728 C730 1.353 . S
C728 H734 0.930 . S
N729 Li705 1.990 . S
N729 C728 1.314 . S
N729 C732 1.279 . S
C730 C728 1.353 . S
C730 C733 1.348 . S
C730 H778 0.929 . S
C731 C732 1.358 . S
C731 C733 1.356 . S
C731 H779 0.930 . S
C732 N729 1.279 . S
C732 C731 1.358 . S
C732 H735 0.930 . S
C733 C730 1.348 . S
C733 C731 1.356 . S
H734 C728 0.930 . S
H735 C732 0.930 . S
C736 C738 1.348 . S
C736 C739 1.356 . S
C736 O766 1.325 . S
N737 C740 1.314 . S
N737 C741 1.279 . S
C738 C736 1.348 . S
C738 C740 1.353 . S
C738 H780 0.929 . S
C739 C736 1.356 . S
C739 C741 1.358 . S
C739 H781 0.930 . S
C740 N737 1.314 . S
C740 C738 1.353 . S
C740 H782 0.930 . S
C741 N737 1.279 . S
C741 C739 1.358 . S
C741 H783 0.930 . S
C742 C743 1.358 . S
C742 C744 1.353 1_545 S
C742 O767 1.322 . S
C743 C742 1.358 . S
C743 C745 1.353 . S
C743 H784 0.929 . S
C744 C742 1.353 1_565 S
C744 C746 1.358 . S
C744 H785 0.930 . S
C745 C743 1.353 . S
C745 N747 1.314 1_545 S
C745 H786 0.930 . S
C746 C744 1.358 . S
C746 N747 1.279 . S
C746 H787 0.930 . S
N747 C745 1.314 1_565 S
N747 C746 1.279 . S
C748 C750 1.353 . S
C748 N751 1.314 1_565 S
C748 H754 0.930 . S
C749 N751 1.279 . S
C749 C752 1.358 . S
C749 H755 0.930 . S
C750 C748 1.353 . S
C750 C753 1.348 1_565 S
C750 H788 0.929 . S
N751 Li706 1.990 . S
N751 C748 1.314 1_545 S
N751 C749 1.279 . S
C752 C749 1.358 . S
C752 C753 1.356 . S
C752 H789 0.930 . S
C753 C750 1.348 1_545 S
C753 C752 1.356 . S
H754 C748 0.930 . S
H755 C749 0.930 . S
C756 N757 1.314 . S
C756 C758 1.353 . S
C756 H762 0.930 . S
N757 Li707 1.990 . S
N757 C756 1.314 . S
N757 C760 1.279 . S
C758 C756 1.353 . S
C758 C761 1.348 . S
C758 H790 0.929 . S
C759 C760 1.358 . S
C759 C761 1.356 . S
C759 H791 0.930 . S
C760 N757 1.279 . S
C760 C759 1.358 . S
C760 H763 0.930 . S
C761 C758 1.348 . S
C761 C759 1.356 . S
H762 C756 0.930 . S
H763 C760 0.930 . S
O764 Li704 1.956 1_565 S
O764 Li705 1.970 . S
O764 Li706 1.961 1_565 S
O764 C708 1.325 . S
O765 Li704 1.970 . S
O765 Li705 1.956 1_545 S
O765 Li707 1.961 . S
O765 C714 1.325 . S
O766 Li704 1.961 . S
O766 Li706 1.956 . S
O766 Li707 1.970 . S
O766 C736 1.325 . S
O767 Li705 1.961 1_545 S
O767 Li706 1.970 . S
O767 Li707 1.956 . S
O767 C742 1.322 . S
H768 C710 0.929 . S
H769 C711 0.930 . S
H770 C712 0.930 . S
H771 C713 0.930 . S
H772 C715 0.930 . S
H773 C717 0.910 1_565 S
H774 C718 0.930 . S
H775 C719 0.921 1_565 S
H776 C722 0.900 1_565 S
H777 C725 0.929 . S
H778 C730 0.929 . S
H779 C731 0.930 . S
H780 C738 0.929 . S
H781 C739 0.930 . S
H782 C740 0.930 . S
H783 C741 0.930 . S
H784 C743 0.929 . S
H785 C744 0.930 . S
H786 C745 0.930 . S
H787 C746 0.930 . S
H788 C750 0.929 . S
H789 C752 0.930 . S
H790 C758 0.929 . S
H791 C759 0.930 . S
Li792 N809 1.990 . S
Li792 O852 1.956 . S
Li792 O853 1.970 . S
Li792 O854 1.961 . S
Li793 N817 1.990 . S
Li793 O852 1.970 . S
Li793 O853 1.956 . S
Li793 O855 1.961 . S
Li794 N839 1.990 . S
Li794 O852 1.961 . S
Li794 O854 1.956 . S
Li794 O855 1.970 . S
Li795 N845 1.990 . S
Li795 O853 1.961 . S
Li795 O854 1.970 . S
Li795 O855 1.956 . S
C796 C798 1.348 . S
C796 C799 1.356 . S
C796 O852 1.325 . S
N797 C800 1.314 . S
N797 C801 1.279 . S
C798 C796 1.348 . S
C798 C800 1.353 . S
C798 H856 0.929 . S
C799 C796 1.356 . S
C799 C801 1.358 . S
C799 H857 0.930 . S
C800 N797 1.314 . S
C800 C798 1.353 . S
C800 H858 0.930 . S
C801 N797 1.279 . S
C801 C799 1.358 . S
C801 H859 0.930 . S
C802 C805 1.348 . S
C802 C806 1.356 . S
C802 O853 1.325 . S
C803 N804 1.279 . S
C803 C806 1.358 . S
C803 H860 0.930 . S
N804 C803 1.279 . S
N804 C807 1.314 . S
C805 C802 1.348 . S
C805 C807 1.353 . S
C805 H861 0.929 . S
C806 C802 1.356 . S
C806 C803 1.358 . S
C806 H862 0.930 . S
C807 N804 1.314 . S
C807 C805 1.353 . S
C807 H863 0.930 . S
C808 N809 1.314 . S
C808 C813 1.353 . S
C808 H814 0.930 . S
N809 Li792 1.990 . S
N809 C808 1.314 . S
N809 C811 1.279 . S
C810 C811 1.358 . S
C810 C812 1.356 . S
C810 H864 0.930 . S
C811 N809 1.279 . S
C811 C810 1.358 . S
C811 H815 0.930 . S
C812 C810 1.356 . S
C812 C813 1.348 . S
C813 C808 1.353 . S
C813 C812 1.348 . S
C813 H865 0.929 . S
H814 C808 0.930 . S
H815 C811 0.930 . S
C816 N817 1.314 . S
C816 C818 1.353 . S
C816 H822 0.930 . S
N817 Li793 1.990 . S
N817 C816 1.314 . S
N817 C820 1.279 . S
C818 C816 1.353 . S
C818 C821 1.348 . S
C818 H866 0.929 . S
C819 C820 1.358 . S
C819 C821 1.356 . S
C819 H867 0.930 . S
C820 N817 1.279 . S
C820 C819 1.358 . S
C820 H823 0.930 . S
C821 C818 1.348 . S
C821 C819 1.356 . S
H822 C816 0.930 . S
H823 C820 0.930 . S
C824 C826 1.348 . S
C824 C827 1.356 . S
C824 O854 1.325 . S
N825 C828 1.314 . S
N825 C829 1.279 . S
C826 C824 1.348 . S
C826 C828 1.353 . S
C826 H868 0.929 . S
C827 C824 1.356 . S
C827 C829 1.358 . S
C827 H869 0.930 . S
C828 N825 1.314 . S
C828 C826 1.353 . S
C828 H870 0.930 . S
C829 N825 1.279 . S
C829 C827 1.358 . S
C829 H871 0.930 . S
C830 C831 1.348 . S
C830 C832 1.356 . S
C830 O855 1.325 . S
C831 C830 1.348 . S
C831 C833 1.353 . S
C831 H872 0.929 . S
C832 C830 1.356 . S
C832 C834 1.358 . S
C832 H873 0.930 . S
C833 C831 1.353 . S
C833 N835 1.314 . S
C833 H874 0.930 . S
C834 C832 1.358 . S
C834 N835 1.279 . S
C834 H875 0.930 . S
N835 C833 1.314 . S
N835 C834 1.279 . S
C836 C838 1.353 . S
C836 N839 1.314 . S
C836 H842 0.930 . S
C837 N839 1.279 . S
C837 C840 1.358 . S
C837 H843 0.930 . S
C838 C836 1.353 . S
C838 C841 1.348 . S
C838 H876 0.929 . S
N839 Li794 1.990 . S
N839 C836 1.314 . S
N839 C837 1.279 . S
C840 C837 1.358 . S
C840 C841 1.356 . S
C840 H877 0.930 . S
C841 C838 1.348 . S
C841 C840 1.356 . S
H842 C836 0.930 . S
H843 C837 0.930 . S
C844 N845 1.314 . S
C844 C846 1.353 . S
C844 H850 0.930 . S
N845 Li795 1.990 . S
N845 C844 1.314 . S
N845 C848 1.279 . S
C846 C844 1.353 . S
C846 C849 1.348 . S
C846 H878 0.929 . S
C847 C848 1.358 . S
C847 C849 1.356 . S
C847 H879 0.930 . S
C848 N845 1.279 . S
C848 C847 1.358 . S
C848 H851 0.930 . S
C849 C846 1.348 . S
C849 C847 1.356 . S
H850 C844 0.930 . S
H851 C848 0.930 . S
O852 Li792 1.956 . S
O852 Li793 1.970 . S
O852 Li794 1.961 . S
O852 C796 1.325 . S
O853 Li792 1.970 . S
O853 Li793 1.956 . S
O853 Li795 1.961 . S
O853 C802 1.325 . S
O854 Li792 1.961 . S
O854 Li794 1.956 . S
O854 Li795 1.970 . S
O854 C824 1.325 . S
O855 Li793 1.961 . S
O855 Li794 1.970 . S
O855 Li795 1.956 . S
O855 C830 1.325 . S
H856 C798 0.929 . S
H857 C799 0.930 . S
H858 C800 0.930 . S
H859 C801 0.930 . S
H860 C803 0.930 . S
H861 C805 0.929 . S
H862 C806 0.930 . S
H863 C807 0.930 . S
H864 C810 0.930 . S
H865 C813 0.929 . S
H866 C818 0.929 . S
H867 C819 0.930 . S
H868 C826 0.929 . S
H869 C827 0.930 . S
H870 C828 0.930 . S
H871 C829 0.930 . S
H872 C831 0.929 . S
H873 C832 0.930 . S
H874 C833 0.930 . S
H875 C834 0.930 . S
H876 C838 0.929 . S
H877 C840 0.930 . S
H878 C846 0.929 . S
H879 C847 0.930 . S
Li880 N897 1.990 . S
Li880 O940 1.956 . S
Li880 O941 1.970 . S
Li880 O942 1.961 . S
Li881 N905 1.990 . S
Li881 O940 1.970 . S
Li881 O941 1.956 . S
Li881 O943 1.961 . S
Li882 N927 1.990 1_545 S
Li882 O940 1.961 . S
Li882 O942 1.956 . S
Li882 O943 1.970 . S
Li883 N933 1.990 . S
Li883 O941 1.961 . S
Li883 O942 1.970 . S
Li883 O943 1.956 . S
C884 C886 1.348 . S
C884 C887 1.356 . S
C884 O940 1.325 . S
N885 C888 1.314 . S
N885 C889 1.279 . S
C886 C884 1.348 . S
C886 C888 1.353 . S
C886 H944 0.929 . S
C887 C884 1.356 . S
C887 C889 1.358 . S
C887 H945 0.930 . S
C888 N885 1.314 . S
C888 C886 1.353 . S
C888 H946 0.930 . S
C889 N885 1.279 . S
C889 C887 1.358 . S
C889 H947 0.930 . S
C890 C893 1.348 . S
C890 C894 1.356 . S
C890 O941 1.325 . S
C891 N892 1.279 . S
C891 C894 1.358 . S
C891 H948 0.930 . S
N892 C891 1.279 . S
N892 C895 1.314 . S
C893 C890 1.348 . S
C893 C895 1.353 . S
C893 H949 0.929 . S
C894 C890 1.356 . S
C894 C891 1.358 . S
C894 H950 0.930 . S
C895 N892 1.314 . S
C895 C893 1.353 . S
C895 H951 0.930 . S
C896 N897 1.314 . S
C896 C901 1.353 . S
C896 H902 0.930 . S
N897 Li880 1.990 . S
N897 C896 1.314 . S
N897 C899 1.279 . S
C898 C899 1.358 . S
C898 C900 1.356 . S
C898 H952 0.930 . S
C899 N897 1.279 . S
C899 C898 1.358 . S
C899 H903 0.930 . S
C900 C898 1.356 . S
C900 C901 1.348 . S
C901 C896 1.353 . S
C901 C900 1.348 . S
C901 H953 0.929 . S
H902 C896 0.930 . S
H903 C899 0.930 . S
C904 N905 1.314 . S
C904 C906 1.353 . S
C904 H910 0.930 . S
N905 Li881 1.990 . S
N905 C904 1.314 . S
N905 C908 1.279 . S
C906 C904 1.353 . S
C906 C909 1.348 . S
C906 H954 0.929 . S
C907 C908 1.358 . S
C907 C909 1.356 . S
C907 H955 0.930 . S
C908 N905 1.279 . S
C908 C907 1.358 . S
C908 H911 0.930 . S
C909 C906 1.348 . S
C909 C907 1.356 . S
H910 C904 0.930 . S
H911 C908 0.930 . S
C912 C914 1.348 . S
C912 C915 1.356 . S
C912 O942 1.325 . S
N913 C916 1.314 . S
N913 C917 1.279 . S
C914 C912 1.348 . S
C914 C916 1.353 . S
C914 H956 0.929 . S
C915 C912 1.356 . S
C915 C917 1.358 . S
C915 H957 0.930 . S
C916 N913 1.314 . S
C916 C914 1.353 . S
C916 H958 0.930 . S
C917 N913 1.279 . S
C917 C915 1.358 . S
C917 H959 0.930 . S
C918 C919 1.348 . S
C918 C920 1.356 . S
C918 O943 1.325 1_565 S
C919 C918 1.348 . S
C919 C921 1.353 . S
C919 H960 0.929 . S
C920 C918 1.356 . S
C920 C922 1.358 . S
C920 H961 0.930 1_565 S
C921 C919 1.353 . S
C921 N923 1.314 . S
C921 H962 0.930 . S
C922 C920 1.358 . S
C922 N923 1.279 . S
C922 H963 0.930 . S
N923 C921 1.314 . S
N923 C922 1.279 . S
C924 C926 1.353 . S
C924 N927 1.314 . S
C924 H930 0.930 . S
C925 N927 1.279 . S
C925 C928 1.358 . S
C925 H931 0.930 . S
C926 C924 1.353 . S
C926 C929 1.348 . S
C926 H964 0.929 . S
N927 Li882 1.990 1_565 S
N927 C924 1.314 . S
N927 C925 1.279 . S
C928 C925 1.358 . S
C928 C929 1.356 . S
C928 H965 0.930 . S
C929 C926 1.348 . S
C929 C928 1.356 . S
H930 C924 0.930 . S
H931 C925 0.930 . S
C932 N933 1.314 . S
C932 C934 1.353 . S
C932 H938 0.930 . S
N933 Li883 1.990 . S
N933 C932 1.314 . S
N933 C936 1.279 . S
C934 C932 1.353 . S
C934 C937 1.348 . S
C934 H966 0.929 . S
C935 C936 1.358 . S
C935 C937 1.356 . S
C935 H967 0.930 1_545 S
C936 N933 1.279 . S
C936 C935 1.358 . S
C936 H939 0.936 1_545 S
C937 C934 1.348 . S
C937 C935 1.356 . S
H938 C932 0.930 . S
H939 C936 0.936 1_565 S
O940 Li880 1.956 . S
O940 Li881 1.970 . S
O940 Li882 1.961 . S
O940 C884 1.325 . S
O941 Li880 1.970 . S
O941 Li881 1.956 . S
O941 Li883 1.961 . S
O941 C890 1.325 . S
O942 Li880 1.961 . S
O942 Li882 1.956 . S
O942 Li883 1.970 . S
O942 C912 1.325 . S
O943 Li881 1.961 . S
O943 Li882 1.970 . S
O943 Li883 1.956 . S
O943 C918 1.325 1_545 S
H944 C886 0.929 . S
H945 C887 0.930 . S
H946 C888 0.930 . S
H947 C889 0.930 . S
H948 C891 0.930 . S
H949 C893 0.929 . S
H950 C894 0.930 . S
H951 C895 0.930 . S
H952 C898 0.930 . S
H953 C901 0.929 . S
H954 C906 0.929 . S
H955 C907 0.930 . S
H956 C914 0.929 . S
H957 C915 0.930 . S
H958 C916 0.930 . S
H959 C917 0.930 . S
H960 C919 0.929 . S
H961 C920 0.930 1_545 S
H962 C921 0.930 . S
H963 C922 0.930 . S
H964 C926 0.929 . S
H965 C928 0.930 . S
H966 C934 0.929 . S
H967 C935 0.930 1_565 S
Li968 N985 1.990 . S
Li968 O1028 1.979 . S
Li968 O1029 1.971 1_554 S
Li968 O1030 1.934 1_554 S
Li969 N993 1.990 . S
Li969 O1028 1.970 . S
Li969 O1029 1.956 1_554 S
Li969 O1031 1.996 . S
Li970 N1015 1.990 . S
Li970 O1028 1.961 . S
Li970 O1030 1.956 1_554 S
Li970 O1031 1.967 . S
Li971 N1021 1.990 . S
Li971 O1029 1.961 . S
Li971 O1030 1.970 . S
Li971 O1031 1.923 1_556 S
C972 C974 1.348 . S
C972 C975 1.356 . S
C972 O1028 1.325 . S
N973 C976 1.314 . S
N973 C977 1.279 . S
C974 C972 1.348 . S
C974 C976 1.353 . S
C974 H1032 0.929 . S
C975 C972 1.356 . S
C975 C977 1.358 . S
C975 H1033 0.930 . S
C976 N973 1.314 . S
C976 C974 1.353 . S
C976 H1034 0.930 . S
C977 N973 1.279 . S
C977 C975 1.358 . S
C977 H1035 0.930 . S
C978 C981 1.348 1_556 S
C978 C982 1.356 . S
C978 O1029 1.325 . S
C979 N980 1.279 . S
C979 C982 1.358 . S
C979 H1036 0.930 . S
N980 C979 1.279 . S
N980 C983 1.323 . S
C981 C978 1.348 1_554 S
C981 C983 1.357 1_554 S
C981 H1037 0.929 . S
C982 C978 1.356 . S
C982 C979 1.358 . S
C982 H1038 0.930 . S
C983 N980 1.323 . S
C983 C981 1.357 1_556 S
C983 H1039 0.918 1_556 S
C984 N985 1.272 1_556 S
C984 C989 1.353 . S
C984 H990 0.930 . S
N985 Li968 1.990 . S
N985 C984 1.272 1_554 S
N985 C987 1.323 . S
C986 C987 1.358 . S
C986 C988 1.343 1_554 S
C986 H1040 0.930 . S
C987 N985 1.323 . S
C987 C986 1.358 . S
C987 H991 0.930 . S
C988 C986 1.343 1_556 S
C988 C989 1.361 . S
C989 C984 1.353 . S
C989 C988 1.361 . S
C989 H1041 0.929 . S
H990 C984 0.930 . S
H991 C987 0.930 . S
C992 N993 1.314 . S
C992 C994 1.353 . S
C992 H998 0.930 . S
N993 Li969 1.990 . S
N993 C992 1.314 . S
N993 C996 1.279 . S
C994 C992 1.353 . S
C994 C997 1.348 . S
C994 H1042 0.929 . S
C995 C996 1.358 . S
C995 C997 1.356 . S
C995 H1043 0.930 . S
C996 N993 1.279 . S
C996 C995 1.358 . S
C996 H999 0.930 . S
C997 C994 1.348 . S
C997 C995 1.356 . S
H998 C992 0.930 . S
H999 C996 0.930 . S
C1000 C1002 1.348 . S
C1000 C1003 1.356 . S
C1000 O1030 1.325 . S
N1001 C1004 1.314 . S
N1001 C1005 1.279 . S
C1002 C1000 1.348 . S
C1002 C1004 1.353 . S
C1002 H1044 0.929 . S
C1003 C1000 1.356 . S
C1003 C1005 1.358 . S
C1003 H1045 0.930 . S
C1004 N1001 1.314 . S
C1004 C1002 1.353 . S
C1004 H1046 0.930 . S
C1005 N1001 1.279 . S
C1005 C1003 1.358 . S
C1005 H1047 0.930 . S
C1006 C1007 1.341 1_554 S
C1006 C1008 1.361 . S
C1006 O1031 1.324 . S
C1007 C1006 1.341 1_556 S
C1007 C1009 1.353 . S
C1007 H1048 0.929 . S
C1008 C1006 1.361 . S
C1008 C1010 1.358 . S
C1008 H1049 0.930 . S
C1009 C1007 1.353 . S
C1009 N1011 1.314 . S
C1009 H1050 0.930 . S
C1010 C1008 1.358 . S
C1010 N1011 1.279 1_554 S
C1010 H1051 0.930 . S
N1011 C1009 1.314 . S
N1011 C1010 1.279 1_556 S
C1012 C1014 1.353 . S
C1012 N1015 1.314 . S
C1012 H1018 0.930 . S
C1013 N1015 1.279 1_556 S
C1013 C1016 1.358 . S
C1013 H1019 0.930 . S
C1014 C1012 1.353 . S
C1014 C1017 1.348 . S
C1014 H1052 0.929 . S
N1015 Li970 1.990 . S
N1015 C1012 1.314 . S
N1015 C1013 1.279 1_554 S
C1016 C1013 1.358 . S
C1016 C1017 1.356 1_556 S
C1016 H1053 0.930 . S
C1017 C1014 1.348 . S
C1017 C1016 1.356 1_554 S
H1018 C1012 0.930 . S
H1019 C1013 0.930 . S
C1020 N1021 1.314 . S
C1020 C1022 1.353 . S
C1020 H1026 0.930 . S
N1021 Li971 1.990 . S
N1021 C1020 1.314 . S
N1021 C1024 1.279 . S
C1022 C1020 1.353 . S
C1022 C1025 1.348 . S
C1022 H1054 0.929 . S
C1023 C1024 1.358 . S
C1023 C1025 1.356 . S
C1023 H1055 0.930 . S
C1024 N1021 1.279 . S
C1024 C1023 1.358 . S
C1024 H1027 0.930 . S
C1025 C1022 1.348 . S
C1025 C1023 1.356 . S
H1026 C1020 0.930 . S
H1027 C1024 0.930 . S
O1028 Li968 1.979 . S
O1028 Li969 1.970 . S
O1028 Li970 1.961 . S
O1028 C972 1.325 . S
O1029 Li968 1.971 1_556 S
O1029 Li969 1.956 1_556 S
O1029 Li971 1.961 . S
O1029 C978 1.325 . S
O1030 Li968 1.934 1_556 S
O1030 Li970 1.956 1_556 S
O1030 Li971 1.970 . S
O1030 C1000 1.325 . S
O1031 Li969 1.996 . S
O1031 Li970 1.967 . S
O1031 Li971 1.923 1_554 S
O1031 C1006 1.324 . S
H1032 C974 0.929 . S
H1033 C975 0.930 . S
H1034 C976 0.930 . S
H1035 C977 0.930 . S
H1036 C979 0.930 . S
H1037 C981 0.929 . S
H1038 C982 0.930 . S
H1039 C983 0.918 1_554 S
H1040 C986 0.930 . S
H1041 C989 0.929 . S
H1042 C994 0.929 . S
H1043 C995 0.930 . S
H1044 C1002 0.929 . S
H1045 C1003 0.930 . S
H1046 C1004 0.930 . S
H1047 C1005 0.930 . S
H1048 C1007 0.929 . S
H1049 C1008 0.930 . S
H1050 C1009 0.930 . S
H1051 C1010 0.930 . S
H1052 C1014 0.929 . S
H1053 C1016 0.930 . S
H1054 C1022 0.929 . S
H1055 C1023 0.930 . S
Li1056 N1073 1.990 . S
Li1056 O1116 1.956 . S
Li1056 O1117 1.970 . S
Li1056 O1118 1.961 . S
Li1057 N1081 1.990 . S
Li1057 O1116 1.970 . S
Li1057 O1117 1.956 . S
Li1057 O1119 1.961 . S
Li1058 N1103 1.990 . S
Li1058 O1116 1.961 . S
Li1058 O1118 1.956 . S
Li1058 O1119 1.970 . S
Li1059 N1109 1.990 1_554 S
Li1059 O1117 1.961 . S
Li1059 O1118 1.970 . S
Li1059 O1119 1.956 . S
C1060 C1062 1.348 . S
C1060 C1063 1.356 . S
C1060 O1116 1.325 . S
N1061 C1064 1.314 . S
N1061 C1065 1.279 . S
C1062 C1060 1.348 . S
C1062 C1064 1.353 . S
C1062 H1120 0.929 . S
C1063 C1060 1.356 . S
C1063 C1065 1.358 . S
C1063 H1121 0.930 . S
C1064 N1061 1.314 . S
C1064 C1062 1.353 . S
C1064 H1122 0.930 . S
C1065 N1061 1.279 . S
C1065 C1063 1.358 . S
C1065 H1123 0.930 . S
C1066 C1069 1.348 . S
C1066 C1070 1.356 . S
C1066 O1117 1.325 . S
C1067 N1068 1.279 . S
C1067 C1070 1.358 . S
C1067 H1124 0.930 . S
N1068 C1067 1.279 . S
N1068 C1071 1.314 . S
C1069 C1066 1.348 . S
C1069 C1071 1.353 . S
C1069 H1125 0.929 . S
C1070 C1066 1.356 . S
C1070 C1067 1.358 . S
C1070 H1126 0.930 . S
C1071 N1068 1.314 . S
C1071 C1069 1.353 . S
C1071 H1127 0.930 . S
C1072 N1073 1.314 . S
C1072 C1077 1.353 . S
C1072 H1078 0.930 . S
N1073 Li1056 1.990 . S
N1073 C1072 1.314 . S
N1073 C1075 1.279 . S
C1074 C1075 1.358 . S
C1074 C1076 1.356 . S
C1074 H1128 0.930 . S
C1075 N1073 1.279 . S
C1075 C1074 1.358 . S
C1075 H1079 0.930 . S
C1076 C1074 1.356 . S
C1076 C1077 1.348 . S
C1077 C1072 1.353 . S
C1077 C1076 1.348 . S
C1077 H1129 0.929 . S
H1078 C1072 0.930 . S
H1079 C1075 0.930 . S
C1080 N1081 1.314 . S
C1080 C1082 1.353 . S
C1080 H1086 0.930 . S
N1081 Li1057 1.990 . S
N1081 C1080 1.314 . S
N1081 C1084 1.279 . S
C1082 C1080 1.353 . S
C1082 C1085 1.348 . S
C1082 H1130 0.929 . S
C1083 C1084 1.358 . S
C1083 C1085 1.356 . S
C1083 H1131 0.930 . S
C1084 N1081 1.279 . S
C1084 C1083 1.358 . S
C1084 H1087 0.930 . S
C1085 C1082 1.348 . S
C1085 C1083 1.356 . S
H1086 C1080 0.930 . S
H1087 C1084 0.930 . S
C1088 C1090 1.348 1_554 S
C1088 C1091 1.356 . S
C1088 O1118 1.325 . S
N1089 C1092 1.314 . S
N1089 C1093 1.279 . S
C1090 C1088 1.348 1_556 S
C1090 C1092 1.353 . S
C1090 H1132 0.929 . S
C1091 C1088 1.356 . S
C1091 C1093 1.358 1_554 S
C1091 H1133 0.930 . S
C1092 N1089 1.314 . S
C1092 C1090 1.353 . S
C1092 H1134 0.930 . S
C1093 N1089 1.279 . S
C1093 C1091 1.358 1_556 S
C1093 H1135 0.930 . S
C1094 C1095 1.348 . S
C1094 C1096 1.356 . S
C1094 O1119 1.325 . S
C1095 C1094 1.348 . S
C1095 C1097 1.353 . S
C1095 H1136 0.929 . S
C1096 C1094 1.356 . S
C1096 C1098 1.358 . S
C1096 H1137 0.930 . S
C1097 C1095 1.353 . S
C1097 N1099 1.314 . S
C1097 H1138 0.930 . S
C1098 C1096 1.358 . S
C1098 N1099 1.279 . S
C1098 H1139 0.930 . S
N1099 C1097 1.314 . S
N1099 C1098 1.279 . S
C1100 C1102 1.353 . S
C1100 N1103 1.314 . S
C1100 H1106 0.930 . S
C1101 N1103 1.279 . S
C1101 C1104 1.358 . S
C1101 H1107 0.930 . S
C1102 C1100 1.353 . S
C1102 C1105 1.348 . S
C1102 H1140 0.929 . S
N1103 Li1058 1.990 . S
N1103 C1100 1.314 . S
N1103 C1101 1.279 . S
C1104 C1101 1.358 . S
C1104 C1105 1.356 . S
C1104 H1141 0.930 . S
C1105 C1102 1.348 . S
C1105 C1104 1.356 . S
H1106 C1100 0.930 . S
H1107 C1101 0.930 . S
C1108 N1109 1.314 . S
C1108 C1110 1.353 . S
C1108 H1114 0.930 . S
N1109 Li1059 1.990 1_556 S
N1109 C1108 1.314 . S
N1109 C1112 1.279 . S
C1110 C1108 1.353 . S
C1110 C1113 1.348 . S
C1110 H1142 0.929 . S
C1111 C1112 1.358 . S
C1111 C1113 1.356 . S
C1111 H1143 0.930 . S
C1112 N1109 1.279 . S
C1112 C1111 1.358 . S
C1112 H1115 0.930 . S
C1113 C1110 1.348 . S
C1113 C1111 1.356 . S
H1114 C1108 0.930 . S
H1115 C1112 0.930 . S
O1116 Li1056 1.956 . S
O1116 Li1057 1.970 . S
O1116 Li1058 1.961 . S
O1116 C1060 1.325 . S
O1117 Li1056 1.970 . S
O1117 Li1057 1.956 . S
O1117 Li1059 1.961 . S
O1117 C1066 1.325 . S
O1118 Li1056 1.961 . S
O1118 Li1058 1.956 . S
O1118 Li1059 1.970 . S
O1118 C1088 1.325 . S
O1119 Li1057 1.961 . S
O1119 Li1058 1.970 . S
O1119 Li1059 1.956 . S
O1119 C1094 1.325 . S
H1120 C1062 0.929 . S
H1121 C1063 0.930 . S
H1122 C1064 0.930 . S
H1123 C1065 0.930 . S
H1124 C1067 0.930 . S
H1125 C1069 0.929 . S
H1126 C1070 0.930 . S
H1127 C1071 0.930 . S
H1128 C1074 0.930 . S
H1129 C1077 0.929 . S
H1130 C1082 0.929 . S
H1131 C1083 0.930 . S
H1132 C1090 0.929 . S
H1133 C1091 0.930 . S
H1134 C1092 0.930 . S
H1135 C1093 0.930 . S
H1136 C1095 0.929 . S
H1137 C1096 0.930 . S
H1138 C1097 0.930 . S
H1139 C1098 0.930 . S
H1140 C1102 0.929 . S
H1141 C1104 0.930 . S
H1142 C1110 0.929 . S
H1143 C1111 0.930 . S
Li1144 N1161 1.990 . S
Li1144 O1204 1.956 . S
Li1144 O1205 1.970 . S
Li1144 O1206 1.961 . S
Li1145 N1169 1.990 . S
Li1145 O1204 1.970 . S
Li1145 O1205 1.956 . S
Li1145 O1207 1.961 . S
Li1146 N1191 1.990 . S
Li1146 O1204 1.961 . S
Li1146 O1206 1.956 . S
Li1146 O1207 1.970 . S
Li1147 N1197 1.990 . S
Li1147 O1205 1.961 . S
Li1147 O1206 1.970 . S
Li1147 O1207 1.956 . S
C1148 C1150 1.348 . S
C1148 C1151 1.356 . S
C1148 O1204 1.325 . S
N1149 C1152 1.314 . S
N1149 C1153 1.279 . S
C1150 C1148 1.348 . S
C1150 C1152 1.353 . S
C1150 H1208 0.929 . S
C1151 C1148 1.356 . S
C1151 C1153 1.358 . S
C1151 H1209 0.930 . S
C1152 N1149 1.314 . S
C1152 C1150 1.353 . S
C1152 H1210 0.930 . S
C1153 N1149 1.279 . S
C1153 C1151 1.358 . S
C1153 H1211 0.930 . S
C1154 C1157 1.348 . S
C1154 C1158 1.356 . S
C1154 O1205 1.325 . S
C1155 N1156 1.279 . S
C1155 C1158 1.358 . S
C1155 H1212 0.930 . S
N1156 C1155 1.279 . S
N1156 C1159 1.314 . S
C1157 C1154 1.348 . S
C1157 C1159 1.353 . S
C1157 H1213 0.929 . S
C1158 C1154 1.356 . S
C1158 C1155 1.358 . S
C1158 H1214 0.930 . S
C1159 N1156 1.314 . S
C1159 C1157 1.353 . S
C1159 H1215 0.930 . S
C1160 N1161 1.314 . S
C1160 C1165 1.353 . S
C1160 H1166 0.930 . S
N1161 Li1144 1.990 . S
N1161 C1160 1.314 . S
N1161 C1163 1.279 . S
C1162 C1163 1.358 . S
C1162 C1164 1.356 . S
C1162 H1216 0.930 . S
C1163 N1161 1.279 . S
C1163 C1162 1.358 . S
C1163 H1167 0.930 . S
C1164 C1162 1.356 . S
C1164 C1165 1.348 . S
C1165 C1160 1.353 . S
C1165 C1164 1.348 . S
C1165 H1217 0.929 . S
H1166 C1160 0.930 . S
H1167 C1163 0.930 . S
C1168 N1169 1.314 . S
C1168 C1170 1.353 . S
C1168 H1174 0.930 . S
N1169 Li1145 1.990 . S
N1169 C1168 1.314 . S
N1169 C1172 1.279 . S
C1170 C1168 1.353 . S
C1170 C1173 1.348 . S
C1170 H1218 0.929 . S
C1171 C1172 1.358 . S
C1171 C1173 1.356 . S
C1171 H1219 0.930 . S
C1172 N1169 1.279 . S
C1172 C1171 1.358 . S
C1172 H1175 0.930 . S
C1173 C1170 1.348 . S
C1173 C1171 1.356 . S
H1174 C1168 0.930 . S
H1175 C1172 0.930 . S
C1176 C1178 1.348 . S
C1176 C1179 1.356 . S
C1176 O1206 1.325 . S
N1177 C1180 1.314 . S
N1177 C1181 1.279 . S
C1178 C1176 1.348 . S
C1178 C1180 1.353 . S
C1178 H1220 0.929 . S
C1179 C1176 1.356 . S
C1179 C1181 1.358 . S
C1179 H1221 0.930 . S
C1180 N1177 1.314 . S
C1180 C1178 1.353 . S
C1180 H1222 0.930 . S
C1181 N1177 1.279 . S
C1181 C1179 1.358 . S
C1181 H1223 0.930 . S
C1182 C1183 1.348 1_554 S
C1182 C1184 1.356 . S
C1182 O1207 1.325 . S
C1183 C1182 1.348 1_556 S
C1183 C1185 1.353 . S
C1183 H1224 0.929 . S
C1184 C1182 1.356 . S
C1184 C1186 1.358 1_554 S
C1184 H1225 0.930 . S
C1185 C1183 1.353 . S
C1185 N1187 1.314 . S
C1185 H1226 0.930 . S
C1186 C1184 1.358 1_556 S
C1186 N1187 1.279 . S
C1186 H1227 0.930 . S
N1187 C1185 1.314 . S
N1187 C1186 1.279 . S
C1188 C1190 1.353 . S
C1188 N1191 1.314 1_556 S
C1188 H1194 0.930 1_556 S
C1189 N1191 1.269 1_556 S
C1189 C1192 1.385 . S
C1189 H1195 0.914 1_556 S
C1190 C1188 1.353 . S
C1190 C1193 1.348 . S
C1190 H1228 0.929 . S
N1191 Li1146 1.990 . S
N1191 C1188 1.314 1_554 S
N1191 C1189 1.269 1_554 S
C1192 C1189 1.385 . S
C1192 C1193 1.356 . S
C1192 H1229 0.930 . S
C1193 C1190 1.348 . S
C1193 C1192 1.356 . S
H1194 C1188 0.930 1_554 S
H1195 C1189 0.914 1_554 S
C1196 N1197 1.314 . S
C1196 C1198 1.353 . S
C1196 H1202 0.930 . S
N1197 Li1147 1.990 . S
N1197 C1196 1.314 . S
N1197 C1200 1.279 . S
C1198 C1196 1.353 . S
C1198 C1201 1.348 . S
C1198 H1230 0.929 . S
C1199 C1200 1.358 . S
C1199 C1201 1.356 . S
C1199 H1231 0.930 . S
C1200 N1197 1.279 . S
C1200 C1199 1.358 . S
C1200 H1203 0.930 . S
C1201 C1198 1.348 . S
C1201 C1199 1.356 . S
H1202 C1196 0.930 . S
H1203 C1200 0.930 . S
O1204 Li1144 1.956 . S
O1204 Li1145 1.970 . S
O1204 Li1146 1.961 . S
O1204 C1148 1.325 . S
O1205 Li1144 1.970 . S
O1205 Li1145 1.956 . S
O1205 Li1147 1.961 . S
O1205 C1154 1.325 . S
O1206 Li1144 1.961 . S
O1206 Li1146 1.956 . S
O1206 Li1147 1.970 . S
O1206 C1176 1.325 . S
O1207 Li1145 1.961 . S
O1207 Li1146 1.970 . S
O1207 Li1147 1.956 . S
O1207 C1182 1.325 . S
H1208 C1150 0.929 . S
H1209 C1151 0.930 . S
H1210 C1152 0.930 . S
H1211 C1153 0.930 . S
H1212 C1155 0.930 . S
H1213 C1157 0.929 . S
H1214 C1158 0.930 . S
H1215 C1159 0.930 . S
H1216 C1162 0.930 . S
H1217 C1165 0.929 . S
H1218 C1170 0.929 . S
H1219 C1171 0.930 . S
H1220 C1178 0.929 . S
H1221 C1179 0.930 . S
H1222 C1180 0.930 . S
H1223 C1181 0.930 . S
H1224 C1183 0.929 . S
H1225 C1184 0.930 . S
H1226 C1185 0.930 . S
H1227 C1186 0.930 . S
H1228 C1190 0.929 . S
H1229 C1192 0.930 . S
H1230 C1198 0.929 . S
H1231 C1199 0.930 . S
Li1232 N1249 1.990 . S
Li1232 O1292 1.956 . S
Li1232 O1293 1.970 . S
Li1232 O1294 1.961 . S
Li1233 N1257 1.990 . S
Li1233 O1292 1.970 . S
Li1233 O1293 1.956 . S
Li1233 O1295 1.961 . S
Li1234 N1279 1.990 . S
Li1234 O1292 1.961 . S
Li1234 O1294 1.956 . S
Li1234 O1295 1.970 . S
Li1235 N1285 1.990 . S
Li1235 O1293 1.961 . S
Li1235 O1294 1.970 . S
Li1235 O1295 1.956 . S
C1236 C1238 1.348 . S
C1236 C1239 1.356 . S
C1236 O1292 1.325 . S
N1237 C1240 1.314 . S
N1237 C1241 1.279 . S
C1238 C1236 1.348 . S
C1238 C1240 1.353 . S
C1238 H1296 0.929 . S
C1239 C1236 1.356 . S
C1239 C1241 1.358 . S
C1239 H1297 0.930 . S
C1240 N1237 1.314 . S
C1240 C1238 1.353 . S
C1240 H1298 0.930 . S
C1241 N1237 1.279 . S
C1241 C1239 1.358 . S
C1241 H1299 0.930 . S
C1242 C1245 1.348 . S
C1242 C1246 1.356 . S
C1242 O1293 1.325 . S
C1243 N1244 1.279 . S
C1243 C1246 1.358 . S
C1243 H1300 0.930 . S
N1244 C1243 1.279 . S
N1244 C1247 1.314 . S
C1245 C1242 1.348 . S
C1245 C1247 1.353 . S
C1245 H1301 0.929 . S
C1246 C1242 1.356 . S
C1246 C1243 1.358 . S
C1246 H1302 0.930 . S
C1247 N1244 1.314 . S
C1247 C1245 1.353 . S
C1247 H1303 0.930 . S
C1248 N1249 1.314 . S
C1248 C1253 1.353 . S
C1248 H1254 0.930 . S
N1249 Li1232 1.990 . S
N1249 C1248 1.314 . S
N1249 C1251 1.279 . S
C1250 C1251 1.358 . S
C1250 C1252 1.356 . S
C1250 H1304 0.930 . S
C1251 N1249 1.279 . S
C1251 C1250 1.358 . S
C1251 H1255 0.930 . S
C1252 C1250 1.356 . S
C1252 C1253 1.348 . S
C1253 C1248 1.353 . S
C1253 C1252 1.348 . S
C1253 H1305 0.929 . S
H1254 C1248 0.930 . S
H1255 C1251 0.930 . S
C1256 N1257 1.314 . S
C1256 C1258 1.353 . S
C1256 H1262 0.930 . S
N1257 Li1233 1.990 . S
N1257 C1256 1.314 . S
N1257 C1260 1.279 . S
C1258 C1256 1.353 . S
C1258 C1261 1.348 . S
C1258 H1306 0.929 . S
C1259 C1260 1.358 . S
C1259 C1261 1.356 . S
C1259 H1307 0.930 . S
C1260 N1257 1.279 . S
C1260 C1259 1.358 . S
C1260 H1263 0.930 . S
C1261 C1258 1.348 . S
C1261 C1259 1.356 . S
H1262 C1256 0.930 . S
H1263 C1260 0.930 . S
C1264 C1266 1.348 . S
C1264 C1267 1.356 . S
C1264 O1294 1.325 . S
N1265 C1268 1.314 . S
N1265 C1269 1.279 . S
C1266 C1264 1.348 . S
C1266 C1268 1.353 . S
C1266 H1308 0.929 . S
C1267 C1264 1.356 . S
C1267 C1269 1.358 . S
C1267 H1309 0.930 . S
C1268 N1265 1.314 . S
C1268 C1266 1.353 . S
C1268 H1310 0.930 . S
C1269 N1265 1.279 . S
C1269 C1267 1.358 . S
C1269 H1311 0.930 . S
C1270 C1271 1.348 . S
C1270 C1272 1.356 . S
C1270 O1295 1.325 . S
C1271 C1270 1.348 . S
C1271 C1273 1.353 . S
C1271 H1312 0.929 . S
C1272 C1270 1.356 . S
C1272 C1274 1.358 . S
C1272 H1313 0.930 . S
C1273 C1271 1.353 . S
C1273 N1275 1.314 . S
C1273 H1314 0.930 . S
C1274 C1272 1.358 . S
C1274 N1275 1.279 . S
C1274 H1315 0.930 . S
N1275 C1273 1.314 . S
N1275 C1274 1.279 . S
C1276 C1278 1.353 . S
C1276 N1279 1.314 . S
C1276 H1282 0.930 . S
C1277 N1279 1.279 . S
C1277 C1280 1.358 . S
C1277 H1283 0.930 . S
C1278 C1276 1.353 . S
C1278 C1281 1.348 . S
C1278 H1316 0.929 . S
N1279 Li1234 1.990 . S
N1279 C1276 1.314 . S
N1279 C1277 1.279 . S
C1280 C1277 1.358 . S
C1280 C1281 1.356 . S
C1280 H1317 0.930 . S
C1281 C1278 1.348 . S
C1281 C1280 1.356 . S
H1282 C1276 0.930 . S
H1283 C1277 0.930 . S
C1284 N1285 1.314 . S
C1284 C1286 1.353 . S
C1284 H1290 0.930 . S
N1285 Li1235 1.990 . S
N1285 C1284 1.314 . S
N1285 C1288 1.279 . S
C1286 C1284 1.353 . S
C1286 C1289 1.348 . S
C1286 H1318 0.929 . S
C1287 C1288 1.358 . S
C1287 C1289 1.356 . S
C1287 H1319 0.930 . S
C1288 N1285 1.279 . S
C1288 C1287 1.358 . S
C1288 H1291 0.930 . S
C1289 C1286 1.348 . S
C1289 C1287 1.356 . S
H1290 C1284 0.930 . S
H1291 C1288 0.930 . S
O1292 Li1232 1.956 . S
O1292 Li1233 1.970 . S
O1292 Li1234 1.961 . S
O1292 C1236 1.325 . S
O1293 Li1232 1.970 . S
O1293 Li1233 1.956 . S
O1293 Li1235 1.961 . S
O1293 C1242 1.325 . S
O1294 Li1232 1.961 . S
O1294 Li1234 1.956 . S
O1294 Li1235 1.970 . S
O1294 C1264 1.325 . S
O1295 Li1233 1.961 . S
O1295 Li1234 1.970 . S
O1295 Li1235 1.956 . S
O1295 C1270 1.325 . S
H1296 C1238 0.929 . S
H1297 C1239 0.930 . S
H1298 C1240 0.930 . S
H1299 C1241 0.930 . S
H1300 C1243 0.930 . S
H1301 C1245 0.929 . S
H1302 C1246 0.930 . S
H1303 C1247 0.930 . S
H1304 C1250 0.930 . S
H1305 C1253 0.929 . S
H1306 C1258 0.929 . S
H1307 C1259 0.930 . S
H1308 C1266 0.929 . S
H1309 C1267 0.930 . S
H1310 C1268 0.930 . S
H1311 C1269 0.930 . S
H1312 C1271 0.929 . S
H1313 C1272 0.930 . S
H1314 C1273 0.930 . S
H1315 C1274 0.930 . S
H1316 C1278 0.929 . S
H1317 C1280 0.930 . S
H1318 C1286 0.929 . S
H1319 C1287 0.930 . S
Li1320 N1337 1.990 . S
Li1320 O1380 1.956 . S
Li1320 O1381 1.970 . S
Li1320 O1382 1.961 . S
Li1321 N1345 1.990 . S
Li1321 O1380 1.970 . S
Li1321 O1381 1.956 . S
Li1321 O1383 1.961 . S
Li1322 N1367 1.990 . S
Li1322 O1380 1.961 . S
Li1322 O1382 1.956 . S
Li1322 O1383 1.970 . S
Li1323 N1373 1.990 . S
Li1323 O1381 1.961 . S
Li1323 O1382 1.970 . S
Li1323 O1383 1.956 . S
C1324 C1326 1.348 . S
C1324 C1327 1.356 . S
C1324 O1380 1.325 . S
N1325 C1328 1.314 . S
N1325 C1329 1.279 . S
C1326 C1324 1.348 . S
C1326 C1328 1.353 . S
C1326 H1384 0.929 . S
C1327 C1324 1.356 . S
C1327 C1329 1.358 . S
C1327 H1385 0.930 . S
C1328 N1325 1.314 . S
C1328 C1326 1.353 . S
C1328 H1386 0.930 . S
C1329 N1325 1.279 . S
C1329 C1327 1.358 . S
C1329 H1387 0.930 . S
C1330 C1333 1.348 . S
C1330 C1334 1.356 . S
C1330 O1381 1.325 . S
C1331 N1332 1.279 . S
C1331 C1334 1.358 . S
C1331 H1388 0.930 . S
N1332 C1331 1.279 . S
N1332 C1335 1.314 . S
C1333 C1330 1.348 . S
C1333 C1335 1.353 . S
C1333 H1389 0.929 . S
C1334 C1330 1.356 . S
C1334 C1331 1.358 . S
C1334 H1390 0.930 . S
C1335 N1332 1.314 . S
C1335 C1333 1.353 . S
C1335 H1391 0.930 . S
C1336 N1337 1.314 . S
C1336 C1341 1.353 . S
C1336 H1342 0.930 . S
N1337 Li1320 1.990 . S
N1337 C1336 1.314 . S
N1337 C1339 1.279 . S
C1338 C1339 1.358 . S
C1338 C1340 1.356 . S
C1338 H1392 0.930 . S
C1339 N1337 1.279 . S
C1339 C1338 1.358 . S
C1339 H1343 0.930 . S
C1340 C1338 1.356 . S
C1340 C1341 1.348 . S
C1341 C1336 1.353 . S
C1341 C1340 1.348 . S
C1341 H1393 0.929 . S
H1342 C1336 0.930 . S
H1343 C1339 0.930 . S
C1344 N1345 1.314 . S
C1344 C1346 1.353 . S
C1344 H1350 0.930 . S
N1345 Li1321 1.990 . S
N1345 C1344 1.314 . S
N1345 C1348 1.279 . S
C1346 C1344 1.353 . S
C1346 C1349 1.348 . S
C1346 H1394 0.929 . S
C1347 C1348 1.358 . S
C1347 C1349 1.356 . S
C1347 H1395 0.930 . S
C1348 N1345 1.279 . S
C1348 C1347 1.358 . S
C1348 H1351 0.930 . S
C1349 C1346 1.348 . S
C1349 C1347 1.356 . S
H1350 C1344 0.930 . S
H1351 C1348 0.930 . S
C1352 C1354 1.348 . S
C1352 C1355 1.356 . S
C1352 O1382 1.325 . S
N1353 C1356 1.314 . S
N1353 C1357 1.279 . S
C1354 C1352 1.348 . S
C1354 C1356 1.353 . S
C1354 H1396 0.929 . S
C1355 C1352 1.356 . S
C1355 C1357 1.358 . S
C1355 H1397 0.930 . S
C1356 N1353 1.314 . S
C1356 C1354 1.353 . S
C1356 H1398 0.930 . S
C1357 N1353 1.279 . S
C1357 C1355 1.358 . S
C1357 H1399 0.930 . S
C1358 C1359 1.348 . S
C1358 C1360 1.356 . S
C1358 O1383 1.325 . S
C1359 C1358 1.348 . S
C1359 C1361 1.353 . S
C1359 H1400 0.929 . S
C1360 C1358 1.356 . S
C1360 C1362 1.358 . S
C1360 H1401 0.930 . S
C1361 C1359 1.353 . S
C1361 N1363 1.314 . S
C1361 H1402 0.930 . S
C1362 C1360 1.358 . S
C1362 N1363 1.279 . S
C1362 H1403 0.930 . S
N1363 C1361 1.314 . S
N1363 C1362 1.279 . S
C1364 C1366 1.353 . S
C1364 N1367 1.314 . S
C1364 H1370 0.930 . S
C1365 N1367 1.279 . S
C1365 C1368 1.358 . S
C1365 H1371 0.930 . S
C1366 C1364 1.353 . S
C1366 C1369 1.348 . S
C1366 H1404 0.929 . S
N1367 Li1322 1.990 . S
N1367 C1364 1.314 . S
N1367 C1365 1.279 . S
C1368 C1365 1.358 . S
C1368 C1369 1.356 . S
C1368 H1405 0.930 . S
C1369 C1366 1.348 . S
C1369 C1368 1.356 . S
H1370 C1364 0.930 . S
H1371 C1365 0.930 . S
C1372 N1373 1.314 . S
C1372 C1374 1.353 . S
C1372 H1378 0.930 . S
N1373 Li1323 1.990 . S
N1373 C1372 1.314 . S
N1373 C1376 1.279 . S
C1374 C1372 1.353 . S
C1374 C1377 1.348 . S
C1374 H1406 0.929 . S
C1375 C1376 1.358 . S
C1375 C1377 1.356 . S
C1375 H1407 0.930 . S
C1376 N1373 1.279 . S
C1376 C1375 1.358 . S
C1376 H1379 0.930 . S
C1377 C1374 1.348 . S
C1377 C1375 1.356 . S
H1378 C1372 0.930 . S
H1379 C1376 0.930 . S
O1380 Li1320 1.956 . S
O1380 Li1321 1.970 . S
O1380 Li1322 1.961 . S
O1380 C1324 1.325 . S
O1381 Li1320 1.970 . S
O1381 Li1321 1.956 . S
O1381 Li1323 1.961 . S
O1381 C1330 1.325 . S
O1382 Li1320 1.961 . S
O1382 Li1322 1.956 . S
O1382 Li1323 1.970 . S
O1382 C1352 1.325 . S
O1383 Li1321 1.961 . S
O1383 Li1322 1.970 . S
O1383 Li1323 1.956 . S
O1383 C1358 1.325 . S
H1384 C1326 0.929 . S
H1385 C1327 0.930 . S
H1386 C1328 0.930 . S
H1387 C1329 0.930 . S
H1388 C1331 0.930 . S
H1389 C1333 0.929 . S
H1390 C1334 0.930 . S
H1391 C1335 0.930 . S
H1392 C1338 0.930 . S
H1393 C1341 0.929 . S
H1394 C1346 0.929 . S
H1395 C1347 0.930 . S
H1396 C1354 0.929 . S
H1397 C1355 0.930 . S
H1398 C1356 0.930 . S
H1399 C1357 0.930 . S
H1400 C1359 0.929 . S
H1401 C1360 0.930 . S
H1402 C1361 0.930 . S
H1403 C1362 0.930 . S
H1404 C1366 0.929 . S
H1405 C1368 0.930 . S
H1406 C1374 0.929 . S
H1407 C1375 0.930 . S
Li1408 N1425 1.990 . S
Li1408 O1468 1.956 1_545 S
Li1408 O1469 1.970 . S
Li1408 O1470 1.961 . S
Li1409 N1433 1.990 . S
Li1409 O1468 1.970 . S
Li1409 O1469 1.956 1_565 S
Li1409 O1471 1.961 1_565 S
Li1410 N1455 1.990 . S
Li1410 O1468 1.961 1_545 S
Li1410 O1470 1.956 . S
Li1410 O1471 1.970 . S
Li1411 N1461 1.990 . S
Li1411 O1469 1.961 . S
Li1411 O1470 1.970 . S
Li1411 O1471 1.956 . S
C1412 C1414 1.348 . S
C1412 C1415 1.356 . S
C1412 O1468 1.325 . S
N1413 C1416 1.314 . S
N1413 C1417 1.279 . S
C1414 C1412 1.348 . S
C1414 C1416 1.353 . S
C1414 H1472 0.929 . S
C1415 C1412 1.356 . S
C1415 C1417 1.358 . S
C1415 H1473 0.930 . S
C1416 N1413 1.314 . S
C1416 C1414 1.353 . S
C1416 H1474 0.930 . S
C1417 N1413 1.279 . S
C1417 C1415 1.358 . S
C1417 H1475 0.930 . S
C1418 C1421 1.348 . S
C1418 C1422 1.356 . S
C1418 O1469 1.325 . S
C1419 N1420 1.279 . S
C1419 C1422 1.358 . S
C1419 H1476 0.930 . S
N1420 C1419 1.279 . S
N1420 C1423 1.314 . S
C1421 C1418 1.348 . S
C1421 C1423 1.353 . S
C1421 H1477 0.929 . S
C1422 C1418 1.356 . S
C1422 C1419 1.358 . S
C1422 H1478 0.930 . S
C1423 N1420 1.314 . S
C1423 C1421 1.353 . S
C1423 H1479 0.930 . S
C1424 N1425 1.314 . S
C1424 C1429 1.353 . S
C1424 H1430 0.930 . S
N1425 Li1408 1.990 . S
N1425 C1424 1.314 . S
N1425 C1427 1.279 . S
C1426 C1427 1.358 . S
C1426 C1428 1.356 . S
C1426 H1480 0.930 1_545 S
C1427 N1425 1.279 . S
C1427 C1426 1.358 . S
C1427 H1431 0.930 1_545 S
C1428 C1426 1.356 . S
C1428 C1429 1.348 . S
C1429 C1424 1.353 . S
C1429 C1428 1.348 . S
C1429 H1481 0.929 . S
H1430 C1424 0.930 . S
H1431 C1427 0.930 1_565 S
C1432 N1433 1.314 . S
C1432 C1434 1.353 . S
C1432 H1438 0.930 . S
N1433 Li1409 1.990 . S
N1433 C1432 1.314 . S
N1433 C1436 1.279 . S
C1434 C1432 1.353 . S
C1434 C1437 1.348 . S
C1434 H1482 0.929 . S
C1435 C1436 1.358 . S
C1435 C1437 1.356 . S
C1435 H1483 0.930 . S
C1436 N1433 1.279 . S
C1436 C1435 1.358 . S
C1436 H1439 0.930 . S
C1437 C1434 1.348 . S
C1437 C1435 1.356 . S
H1438 C1432 0.930 . S
H1439 C1436 0.930 . S
C1440 C1442 1.348 . S
C1440 C1443 1.356 . S
C1440 O1470 1.325 . S
N1441 C1444 1.314 . S
N1441 C1445 1.279 . S
C1442 C1440 1.348 . S
C1442 C1444 1.353 . S
C1442 H1484 0.929 . S
C1443 C1440 1.356 . S
C1443 C1445 1.358 . S
C1443 H1485 0.930 . S
C1444 N1441 1.314 . S
C1444 C1442 1.353 . S
C1444 H1486 0.930 . S
C1445 N1441 1.279 . S
C1445 C1443 1.358 . S
C1445 H1487 0.930 . S
C1446 C1447 1.348 . S
C1446 C1448 1.356 . S
C1446 O1471 1.325 . S
C1447 C1446 1.348 . S
C1447 C1449 1.353 . S
C1447 H1488 0.929 . S
C1448 C1446 1.356 . S
C1448 C1450 1.357 . S
C1448 H1489 0.923 1_545 S
C1449 C1447 1.353 . S
C1449 N1451 1.314 . S
C1449 H1490 0.930 . S
C1450 C1448 1.357 . S
C1450 N1451 1.284 . S
C1450 H1491 0.927 1_545 S
N1451 C1449 1.314 . S
N1451 C1450 1.284 . S
C1452 C1454 1.350 1_545 S
C1452 N1455 1.325 . S
C1452 H1458 0.918 1_545 S
C1453 N1455 1.279 . S
C1453 C1456 1.358 . S
C1453 H1459 0.930 . S
C1454 C1452 1.350 1_565 S
C1454 C1457 1.313 1_565 S
C1454 H1492 0.967 . S
N1455 Li1410 1.990 . S
N1455 C1452 1.325 . S
N1455 C1453 1.279 . S
C1456 C1453 1.358 . S
C1456 C1457 1.356 . S
C1456 H1493 0.930 . S
C1457 C1454 1.313 1_545 S
C1457 C1456 1.356 . S
H1458 C1452 0.918 1_565 S
H1459 C1453 0.930 . S
C1460 N1461 1.314 . S
C1460 C1462 1.353 . S
C1460 H1466 0.930 . S
N1461 Li1411 1.990 . S
N1461 C1460 1.314 . S
N1461 C1464 1.279 . S
C1462 C1460 1.353 . S
C1462 C1465 1.348 . S
C1462 H1494 0.929 . S
C1463 C1464 1.358 . S
C1463 C1465 1.356 . S
C1463 H1495 0.930 . S
C1464 N1461 1.279 . S
C1464 C1463 1.358 . S
C1464 H1467 0.930 . S
C1465 C1462 1.348 . S
C1465 C1463 1.356 . S
H1466 C1460 0.930 . S
H1467 C1464 0.930 . S
O1468 Li1408 1.956 1_565 S
O1468 Li1409 1.970 . S
O1468 Li1410 1.961 1_565 S
O1468 C1412 1.325 . S
O1469 Li1408 1.970 . S
O1469 Li1409 1.956 1_545 S
O1469 Li1411 1.961 . S
O1469 C1418 1.325 . S
O1470 Li1408 1.961 . S
O1470 Li1410 1.956 . S
O1470 Li1411 1.970 . S
O1470 C1440 1.325 . S
O1471 Li1409 1.961 1_545 S
O1471 Li1410 1.970 . S
O1471 Li1411 1.956 . S
O1471 C1446 1.325 . S
H1472 C1414 0.929 . S
H1473 C1415 0.930 . S
H1474 C1416 0.930 . S
H1475 C1417 0.930 . S
H1476 C1419 0.930 . S
H1477 C1421 0.929 . S
H1478 C1422 0.930 . S
H1479 C1423 0.930 . S
H1480 C1426 0.930 1_565 S
H1481 C1429 0.929 . S
H1482 C1434 0.929 . S
H1483 C1435 0.930 . S
H1484 C1442 0.929 . S
H1485 C1443 0.930 . S
H1486 C1444 0.930 . S
H1487 C1445 0.930 . S
H1488 C1447 0.929 . S
H1489 C1448 0.923 1_565 S
H1490 C1449 0.930 . S
H1491 C1450 0.927 1_565 S
H1492 C1454 0.967 . S
H1493 C1456 0.930 . S
H1494 C1462 0.929 . S
H1495 C1463 0.930 . S
Li1496 N1513 1.990 . S
Li1496 O1556 1.956 . S
Li1496 O1557 1.970 . S
Li1496 O1558 1.961 . S
Li1497 N1521 1.990 . S
Li1497 O1556 1.970 . S
Li1497 O1557 1.956 . S
Li1497 O1559 1.961 . S
Li1498 N1543 1.990 . S
Li1498 O1556 1.961 . S
Li1498 O1558 1.956 . S
Li1498 O1559 1.970 . S
Li1499 N1549 1.990 . S
Li1499 O1557 1.961 . S
Li1499 O1558 1.970 . S
Li1499 O1559 1.956 . S
C1500 C1502 1.348 . S
C1500 C1503 1.356 . S
C1500 O1556 1.325 . S
N1501 C1504 1.314 . S
N1501 C1505 1.279 . S
C1502 C1500 1.348 . S
C1502 C1504 1.353 . S
C1502 H1560 0.929 . S
C1503 C1500 1.356 . S
C1503 C1505 1.358 . S
C1503 H1561 0.930 . S
C1504 N1501 1.314 . S
C1504 C1502 1.353 . S
C1504 H1562 0.930 . S
C1505 N1501 1.279 . S
C1505 C1503 1.358 . S
C1505 H1563 0.930 . S
C1506 C1509 1.348 . S
C1506 C1510 1.356 . S
C1506 O1557 1.325 . S
C1507 N1508 1.279 . S
C1507 C1510 1.358 . S
C1507 H1564 0.930 . S
N1508 C1507 1.279 . S
N1508 C1511 1.314 . S
C1509 C1506 1.348 . S
C1509 C1511 1.353 . S
C1509 H1565 0.929 . S
C1510 C1506 1.356 . S
C1510 C1507 1.358 . S
C1510 H1566 0.930 . S
C1511 N1508 1.314 . S
C1511 C1509 1.353 . S
C1511 H1567 0.930 . S
C1512 N1513 1.314 . S
C1512 C1517 1.353 . S
C1512 H1518 0.930 . S
N1513 Li1496 1.990 . S
N1513 C1512 1.314 . S
N1513 C1515 1.279 . S
C1514 C1515 1.358 . S
C1514 C1516 1.356 . S
C1514 H1568 0.930 . S
C1515 N1513 1.279 . S
C1515 C1514 1.358 . S
C1515 H1519 0.930 . S
C1516 C1514 1.356 . S
C1516 C1517 1.348 . S
C1517 C1512 1.353 . S
C1517 C1516 1.348 . S
C1517 H1569 0.929 . S
H1518 C1512 0.930 . S
H1519 C1515 0.930 . S
C1520 N1521 1.314 . S
C1520 C1522 1.353 . S
C1520 H1526 0.930 . S
N1521 Li1497 1.990 . S
N1521 C1520 1.314 . S
N1521 C1524 1.279 . S
C1522 C1520 1.353 . S
C1522 C1525 1.348 . S
C1522 H1570 0.929 . S
C1523 C1524 1.358 . S
C1523 C1525 1.356 . S
C1523 H1571 0.930 . S
C1524 N1521 1.279 . S
C1524 C1523 1.358 . S
C1524 H1527 0.930 . S
C1525 C1522 1.348 . S
C1525 C1523 1.356 . S
H1526 C1520 0.930 . S
H1527 C1524 0.930 . S
C1528 C1530 1.348 . S
C1528 C1531 1.356 . S
C1528 O1558 1.325 . S
N1529 C1532 1.314 . S
N1529 C1533 1.279 . S
C1530 C1528 1.348 . S
C1530 C1532 1.353 . S
C1530 H1572 0.929 . S
C1531 C1528 1.356 . S
C1531 C1533 1.358 . S
C1531 H1573 0.930 . S
C1532 N1529 1.314 . S
C1532 C1530 1.353 . S
C1532 H1574 0.930 . S
C1533 N1529 1.279 . S
C1533 C1531 1.358 . S
C1533 H1575 0.930 . S
C1534 C1535 1.348 . S
C1534 C1536 1.356 . S
C1534 O1559 1.325 . S
C1535 C1534 1.348 . S
C1535 C1537 1.353 . S
C1535 H1576 0.929 . S
C1536 C1534 1.356 . S
C1536 C1538 1.358 . S
C1536 H1577 0.930 . S
C1537 C1535 1.353 . S
C1537 N1539 1.314 . S
C1537 H1578 0.930 . S
C1538 C1536 1.358 . S
C1538 N1539 1.279 . S
C1538 H1579 0.930 . S
N1539 C1537 1.314 . S
N1539 C1538 1.279 . S
C1540 C1542 1.353 . S
C1540 N1543 1.314 . S
C1540 H1546 0.930 . S
C1541 N1543 1.279 . S
C1541 C1544 1.358 . S
C1541 H1547 0.930 . S
C1542 C1540 1.353 . S
C1542 C1545 1.348 . S
C1542 H1580 0.929 . S
N1543 Li1498 1.990 . S
N1543 C1540 1.314 . S
N1543 C1541 1.279 . S
C1544 C1541 1.358 . S
C1544 C1545 1.356 . S
C1544 H1581 0.930 . S
C1545 C1542 1.348 . S
C1545 C1544 1.356 . S
H1546 C1540 0.930 . S
H1547 C1541 0.930 . S
C1548 N1549 1.314 . S
C1548 C1550 1.353 . S
C1548 H1554 0.930 . S
N1549 Li1499 1.990 . S
N1549 C1548 1.314 . S
N1549 C1552 1.279 . S
C1550 C1548 1.353 . S
C1550 C1553 1.348 . S
C1550 H1582 0.929 . S
C1551 C1552 1.358 . S
C1551 C1553 1.356 . S
C1551 H1583 0.930 . S
C1552 N1549 1.279 . S
C1552 C1551 1.358 . S
C1552 H1555 0.930 . S
C1553 C1550 1.348 . S
C1553 C1551 1.356 . S
H1554 C1548 0.930 . S
H1555 C1552 0.930 . S
O1556 Li1496 1.956 . S
O1556 Li1497 1.970 . S
O1556 Li1498 1.961 . S
O1556 C1500 1.325 . S
O1557 Li1496 1.970 . S
O1557 Li1497 1.956 . S
O1557 Li1499 1.961 . S
O1557 C1506 1.325 . S
O1558 Li1496 1.961 . S
O1558 Li1498 1.956 . S
O1558 Li1499 1.970 . S
O1558 C1528 1.325 . S
O1559 Li1497 1.961 . S
O1559 Li1498 1.970 . S
O1559 Li1499 1.956 . S
O1559 C1534 1.325 . S
H1560 C1502 0.929 . S
H1561 C1503 0.930 . S
H1562 C1504 0.930 . S
H1563 C1505 0.930 . S
H1564 C1507 0.930 . S
H1565 C1509 0.929 . S
H1566 C1510 0.930 . S
H1567 C1511 0.930 . S
H1568 C1514 0.930 . S
H1569 C1517 0.929 . S
H1570 C1522 0.929 . S
H1571 C1523 0.930 . S
H1572 C1530 0.929 . S
H1573 C1531 0.930 . S
H1574 C1532 0.930 . S
H1575 C1533 0.930 . S
H1576 C1535 0.929 . S
H1577 C1536 0.930 . S
H1578 C1537 0.930 . S
H1579 C1538 0.930 . S
H1580 C1542 0.929 . S
H1581 C1544 0.930 . S
H1582 C1550 0.929 . S
H1583 C1551 0.930 . S
Li1584 N1601 1.990 . S
Li1584 O1644 1.956 . S
Li1584 O1645 1.970 . S
Li1584 O1646 1.961 . S
Li1585 N1609 1.990 . S
Li1585 O1644 1.970 . S
Li1585 O1645 1.956 . S
Li1585 O1647 1.961 . S
Li1586 N1631 1.990 . S
Li1586 O1644 1.961 . S
Li1586 O1646 1.956 . S
Li1586 O1647 1.970 . S
Li1587 N1637 1.990 . S
Li1587 O1645 1.961 . S
Li1587 O1646 1.970 . S
Li1587 O1647 1.956 . S
C1588 C1590 1.348 . S
C1588 C1591 1.356 . S
C1588 O1644 1.325 . S
N1589 C1592 1.314 . S
N1589 C1593 1.279 . S
C1590 C1588 1.348 . S
C1590 C1592 1.353 . S
C1590 H1648 0.929 . S
C1591 C1588 1.356 . S
C1591 C1593 1.358 . S
C1591 H1649 0.930 . S
C1592 N1589 1.314 . S
C1592 C1590 1.353 . S
C1592 H1650 0.930 . S
C1593 N1589 1.279 . S
C1593 C1591 1.358 . S
C1593 H1651 0.930 . S
C1594 C1597 1.348 . S
C1594 C1598 1.356 . S
C1594 O1645 1.325 . S
C1595 N1596 1.279 . S
C1595 C1598 1.358 . S
C1595 H1652 0.930 . S
N1596 C1595 1.279 . S
N1596 C1599 1.314 . S
C1597 C1594 1.348 . S
C1597 C1599 1.353 . S
C1597 H1653 0.929 . S
C1598 C1594 1.356 . S
C1598 C1595 1.358 . S
C1598 H1654 0.930 . S
C1599 N1596 1.314 . S
C1599 C1597 1.353 . S
C1599 H1655 0.930 . S
C1600 N1601 1.314 . S
C1600 C1605 1.353 . S
C1600 H1606 0.930 . S
N1601 Li1584 1.990 . S
N1601 C1600 1.314 . S
N1601 C1603 1.279 . S
C1602 C1603 1.358 . S
C1602 C1604 1.356 . S
C1602 H1656 0.930 . S
C1603 N1601 1.279 . S
C1603 C1602 1.358 . S
C1603 H1607 0.930 . S
C1604 C1602 1.356 . S
C1604 C1605 1.348 . S
C1605 C1600 1.353 . S
C1605 C1604 1.348 . S
C1605 H1657 0.929 . S
H1606 C1600 0.930 . S
H1607 C1603 0.930 . S
C1608 N1609 1.314 . S
C1608 C1610 1.353 . S
C1608 H1614 0.930 . S
N1609 Li1585 1.990 . S
N1609 C1608 1.314 . S
N1609 C1612 1.279 . S
C1610 C1608 1.353 . S
C1610 C1613 1.348 . S
C1610 H1658 0.929 . S
C1611 C1612 1.358 . S
C1611 C1613 1.356 . S
C1611 H1659 0.930 . S
C1612 N1609 1.279 . S
C1612 C1611 1.358 . S
C1612 H1615 0.930 . S
C1613 C1610 1.348 . S
C1613 C1611 1.356 . S
H1614 C1608 0.930 . S
H1615 C1612 0.930 . S
C1616 C1618 1.348 . S
C1616 C1619 1.356 . S
C1616 O1646 1.325 . S
N1617 C1620 1.314 . S
N1617 C1621 1.279 . S
C1618 C1616 1.348 . S
C1618 C1620 1.353 . S
C1618 H1660 0.929 . S
C1619 C1616 1.356 . S
C1619 C1621 1.358 . S
C1619 H1661 0.930 . S
C1620 N1617 1.314 . S
C1620 C1618 1.353 . S
C1620 H1662 0.930 . S
C1621 N1617 1.279 . S
C1621 C1619 1.358 . S
C1621 H1663 0.930 . S
C1622 C1623 1.348 . S
C1622 C1624 1.356 . S
C1622 O1647 1.325 . S
C1623 C1622 1.348 . S
C1623 C1625 1.353 . S
C1623 H1664 0.929 . S
C1624 C1622 1.356 . S
C1624 C1626 1.358 . S
C1624 H1665 0.930 . S
C1625 C1623 1.353 . S
C1625 N1627 1.314 . S
C1625 H1666 0.930 . S
C1626 C1624 1.358 . S
C1626 N1627 1.279 . S
C1626 H1667 0.930 . S
N1627 C1625 1.314 . S
N1627 C1626 1.279 . S
C1628 C1630 1.353 . S
C1628 N1631 1.314 . S
C1628 H1634 0.930 . S
C1629 N1631 1.279 . S
C1629 C1632 1.358 . S
C1629 H1635 0.930 . S
C1630 C1628 1.353 . S
C1630 C1633 1.348 . S
C1630 H1668 0.929 . S
N1631 Li1586 1.990 . S
N1631 C1628 1.314 . S
N1631 C1629 1.279 . S
C1632 C1629 1.358 . S
C1632 C1633 1.356 . S
C1632 H1669 0.930 . S
C1633 C1630 1.348 . S
C1633 C1632 1.356 . S
H1634 C1628 0.930 . S
H1635 C1629 0.930 . S
C1636 N1637 1.314 . S
C1636 C1638 1.353 . S
C1636 H1642 0.930 . S
N1637 Li1587 1.990 . S
N1637 C1636 1.314 . S
N1637 C1640 1.279 . S
C1638 C1636 1.353 . S
C1638 C1641 1.348 . S
C1638 H1670 0.929 . S
C1639 C1640 1.358 . S
C1639 C1641 1.356 . S
C1639 H1671 0.930 . S
C1640 N1637 1.279 . S
C1640 C1639 1.358 . S
C1640 H1643 0.930 . S
C1641 C1638 1.348 . S
C1641 C1639 1.356 . S
H1642 C1636 0.930 . S
H1643 C1640 0.930 . S
O1644 Li1584 1.956 . S
O1644 Li1585 1.970 . S
O1644 Li1586 1.961 . S
O1644 C1588 1.325 . S
O1645 Li1584 1.970 . S
O1645 Li1585 1.956 . S
O1645 Li1587 1.961 . S
O1645 C1594 1.325 . S
O1646 Li1584 1.961 . S
O1646 Li1586 1.956 . S
O1646 Li1587 1.970 . S
O1646 C1616 1.325 . S
O1647 Li1585 1.961 . S
O1647 Li1586 1.970 . S
O1647 Li1587 1.956 . S
O1647 C1622 1.325 . S
H1648 C1590 0.929 . S
H1649 C1591 0.930 . S
H1650 C1592 0.930 . S
H1651 C1593 0.930 . S
H1652 C1595 0.930 . S
H1653 C1597 0.929 . S
H1654 C1598 0.930 . S
H1655 C1599 0.930 . S
H1656 C1602 0.930 . S
H1657 C1605 0.929 . S
H1658 C1610 0.929 . S
H1659 C1611 0.930 . S
H1660 C1618 0.929 . S
H1661 C1619 0.930 . S
H1662 C1620 0.930 . S
H1663 C1621 0.930 . S
H1664 C1623 0.929 . S
H1665 C1624 0.930 . S
H1666 C1625 0.930 . S
H1667 C1626 0.930 . S
H1668 C1630 0.929 . S
H1669 C1632 0.930 . S
H1670 C1638 0.929 . S
H1671 C1639 0.930 . S
Li1672 N1689 1.990 . S
Li1672 O1732 1.956 . S
Li1672 O1733 1.970 . S
Li1672 O1734 1.961 . S
Li1673 N1697 1.990 . S
Li1673 O1732 1.970 . S
Li1673 O1733 1.956 . S
Li1673 O1735 1.961 . S
Li1674 N1719 1.990 . S
Li1674 O1732 1.961 . S
Li1674 O1734 1.956 . S
Li1674 O1735 1.970 . S
Li1675 N1725 1.990 . S
Li1675 O1733 1.961 . S
Li1675 O1734 1.970 . S
Li1675 O1735 1.956 . S
C1676 C1678 1.348 . S
C1676 C1679 1.356 . S
C1676 O1732 1.325 . S
N1677 C1680 1.314 . S
N1677 C1681 1.279 . S
C1678 C1676 1.348 . S
C1678 C1680 1.353 . S
C1678 H1736 0.929 . S
C1679 C1676 1.356 . S
C1679 C1681 1.358 . S
C1679 H1737 0.930 . S
C1680 N1677 1.314 . S
C1680 C1678 1.353 . S
C1680 H1738 0.930 . S
C1681 N1677 1.279 . S
C1681 C1679 1.358 . S
C1681 H1739 0.930 . S
C1682 C1685 1.348 . S
C1682 C1686 1.356 . S
C1682 O1733 1.325 . S
C1683 N1684 1.279 . S
C1683 C1686 1.358 . S
C1683 H1740 0.930 . S
N1684 C1683 1.279 . S
N1684 C1687 1.314 . S
C1685 C1682 1.348 . S
C1685 C1687 1.353 . S
C1685 H1741 0.929 . S
C1686 C1682 1.356 . S
C1686 C1683 1.358 . S
C1686 H1742 0.930 . S
C1687 N1684 1.314 . S
C1687 C1685 1.353 . S
C1687 H1743 0.930 . S
C1688 N1689 1.314 . S
C1688 C1693 1.353 . S
C1688 H1694 0.930 . S
N1689 Li1672 1.990 . S
N1689 C1688 1.314 . S
N1689 C1691 1.279 . S
C1690 C1691 1.358 . S
C1690 C1692 1.356 . S
C1690 H1744 0.930 . S
C1691 N1689 1.279 . S
C1691 C1690 1.358 . S
C1691 H1695 0.930 . S
C1692 C1690 1.356 . S
C1692 C1693 1.348 . S
C1693 C1688 1.353 . S
C1693 C1692 1.348 . S
C1693 H1745 0.929 . S
H1694 C1688 0.930 . S
H1695 C1691 0.930 . S
C1696 N1697 1.314 . S
C1696 C1698 1.353 . S
C1696 H1702 0.930 . S
N1697 Li1673 1.990 . S
N1697 C1696 1.314 . S
N1697 C1700 1.279 . S
C1698 C1696 1.353 . S
C1698 C1701 1.348 . S
C1698 H1746 0.929 . S
C1699 C1700 1.358 . S
C1699 C1701 1.356 . S
C1699 H1747 0.930 . S
C1700 N1697 1.279 . S
C1700 C1699 1.358 . S
C1700 H1703 0.930 . S
C1701 C1698 1.348 . S
C1701 C1699 1.356 . S
H1702 C1696 0.930 . S
H1703 C1700 0.930 . S
C1704 C1706 1.348 1_545 S
C1704 C1707 1.356 . S
C1704 O1734 1.325 . S
N1705 C1708 1.314 . S
N1705 C1709 1.279 . S
C1706 C1704 1.348 1_565 S
C1706 C1708 1.353 . S
C1706 H1748 0.929 . S
C1707 C1704 1.356 . S
C1707 C1709 1.358 1_545 S
C1707 H1749 0.930 . S
C1708 N1705 1.314 . S
C1708 C1706 1.353 . S
C1708 H1750 0.930 . S
C1709 N1705 1.279 . S
C1709 C1707 1.358 1_565 S
C1709 H1751 0.930 . S
C1710 C1711 1.348 . S
C1710 C1712 1.356 . S
C1710 O1735 1.325 . S
C1711 C1710 1.348 . S
C1711 C1713 1.353 . S
C1711 H1752 0.929 . S
C1712 C1710 1.356 . S
C1712 C1714 1.358 . S
C1712 H1753 0.930 . S
C1713 C1711 1.353 . S
C1713 N1715 1.314 . S
C1713 H1754 0.930 . S
C1714 C1712 1.358 . S
C1714 N1715 1.279 . S
C1714 H1755 0.930 . S
N1715 C1713 1.314 . S
N1715 C1714 1.279 . S
C1716 C1718 1.353 . S
C1716 N1719 1.314 . S
C1716 H1722 0.930 . S
C1717 N1719 1.279 . S
C1717 C1720 1.358 . S
C1717 H1723 0.930 . S
C1718 C1716 1.353 . S
C1718 C1721 1.348 . S
C1718 H1756 0.929 . S
N1719 Li1674 1.990 . S
N1719 C1716 1.314 . S
N1719 C1717 1.279 . S
C1720 C1717 1.358 . S
C1720 C1721 1.356 . S
C1720 H1757 0.930 . S
C1721 C1718 1.348 . S
C1721 C1720 1.356 . S
H1722 C1716 0.930 . S
H1723 C1717 0.930 . S
C1724 N1725 1.314 1_565 S
C1724 C1726 1.353 . S
C1724 H1730 0.930 . S
N1725 Li1675 1.990 . S
N1725 C1724 1.314 1_545 S
N1725 C1728 1.279 1_545 S
C1726 C1724 1.353 . S
C1726 C1729 1.348 . S
C1726 H1758 0.929 . S
C1727 C1728 1.358 . S
C1727 C1729 1.356 . S
C1727 H1759 0.930 . S
C1728 N1725 1.279 1_565 S
C1728 C1727 1.358 . S
C1728 H1731 0.930 1_565 S
C1729 C1726 1.348 . S
C1729 C1727 1.356 . S
H1730 C1724 0.930 . S
H1731 C1728 0.930 1_545 S
O1732 Li1672 1.956 . S
O1732 Li1673 1.970 . S
O1732 Li1674 1.961 . S
O1732 C1676 1.325 . S
O1733 Li1672 1.970 . S
O1733 Li1673 1.956 . S
O1733 Li1675 1.961 . S
O1733 C1682 1.325 . S
O1734 Li1672 1.961 . S
O1734 Li1674 1.956 . S
O1734 Li1675 1.970 . S
O1734 C1704 1.325 . S
O1735 Li1673 1.961 . S
O1735 Li1674 1.970 . S
O1735 Li1675 1.956 . S
O1735 C1710 1.325 . S
H1736 C1678 0.929 . S
H1737 C1679 0.930 . S
H1738 C1680 0.930 . S
H1739 C1681 0.930 . S
H1740 C1683 0.930 . S
H1741 C1685 0.929 . S
H1742 C1686 0.930 . S
H1743 C1687 0.930 . S
H1744 C1690 0.930 . S
H1745 C1693 0.929 . S
H1746 C1698 0.929 . S
H1747 C1699 0.930 . S
H1748 C1706 0.929 . S
H1749 C1707 0.930 . S
H1750 C1708 0.930 . S
H1751 C1709 0.930 . S
H1752 C1711 0.929 . S
H1753 C1712 0.930 . S
H1754 C1713 0.930 . S
H1755 C1714 0.930 . S
H1756 C1718 0.929 . S
H1757 C1720 0.930 . S
H1758 C1726 0.929 . S
H1759 C1727 0.930 . S
Li1760 N1777 1.990 . S
Li1760 O1820 1.956 . S
Li1760 O1821 1.970 . S
Li1760 O1822 1.961 . S
Li1761 N1785 1.990 . S
Li1761 O1820 1.970 . S
Li1761 O1821 1.956 . S
Li1761 O1823 1.961 1_554 S
Li1762 N1807 1.990 . S
Li1762 O1820 1.961 1_556 S
Li1762 O1822 1.956 1_556 S
Li1762 O1823 1.970 . S
Li1763 N1813 1.990 . S
Li1763 O1821 1.961 . S
Li1763 O1822 1.970 . S
Li1763 O1823 1.956 1_554 S
C1764 C1766 1.348 . S
C1764 C1767 1.356 . S
C1764 O1820 1.325 . S
N1765 C1768 1.314 . S
N1765 C1769 1.279 . S
C1766 C1764 1.348 . S
C1766 C1768 1.353 . S
C1766 H1824 0.929 . S
C1767 C1764 1.356 . S
C1767 C1769 1.358 . S
C1767 H1825 0.930 . S
C1768 N1765 1.314 . S
C1768 C1766 1.353 . S
C1768 H1826 0.930 . S
C1769 N1765 1.279 . S
C1769 C1767 1.358 . S
C1769 H1827 0.930 . S
C1770 C1773 1.348 . S
C1770 C1774 1.356 . S
C1770 O1821 1.325 . S
C1771 N1772 1.279 . S
C1771 C1774 1.358 . S
C1771 H1828 0.930 . S
N1772 C1771 1.279 . S
N1772 C1775 1.314 . S
C1773 C1770 1.348 . S
C1773 C1775 1.353 . S
C1773 H1829 0.929 . S
C1774 C1770 1.356 . S
C1774 C1771 1.358 . S
C1774 H1830 0.930 . S
C1775 N1772 1.314 . S
C1775 C1773 1.353 . S
C1775 H1831 0.930 . S
C1776 N1777 1.314 . S
C1776 C1781 1.353 . S
C1776 H1782 0.930 . S
N1777 Li1760 1.990 . S
N1777 C1776 1.314 . S
N1777 C1779 1.279 . S
C1778 C1779 1.358 . S
C1778 C1780 1.356 . S
C1778 H1832 0.930 . S
C1779 N1777 1.279 . S
C1779 C1778 1.358 . S
C1779 H1783 0.930 . S
C1780 C1778 1.356 . S
C1780 C1781 1.348 . S
C1781 C1776 1.353 . S
C1781 C1780 1.348 . S
C1781 H1833 0.929 . S
H1782 C1776 0.930 . S
H1783 C1779 0.930 . S
C1784 N1785 1.314 1_556 S
C1784 C1786 1.353 . S
C1784 H1790 0.930 . S
N1785 Li1761 1.990 . S
N1785 C1784 1.314 1_554 S
N1785 C1788 1.279 . S
C1786 C1784 1.353 . S
C1786 C1789 1.348 1_556 S
C1786 H1834 0.929 . S
C1787 C1788 1.358 . S
C1787 C1789 1.356 . S
C1787 H1835 0.930 . S
C1788 N1785 1.279 . S
C1788 C1787 1.358 . S
C1788 H1791 0.930 . S
C1789 C1786 1.348 1_554 S
C1789 C1787 1.356 . S
H1790 C1784 0.930 . S
H1791 C1788 0.930 . S
C1792 C1794 1.348 . S
C1792 C1795 1.356 . S
C1792 O1822 1.325 . S
N1793 C1796 1.314 . S
N1793 C1797 1.279 . S
C1794 C1792 1.348 . S
C1794 C1796 1.353 . S
C1794 H1836 0.929 1_554 S
C1795 C1792 1.356 . S
C1795 C1797 1.358 . S
C1795 H1837 0.930 . S
C1796 N1793 1.314 . S
C1796 C1794 1.353 . S
C1796 H1838 0.930 1_554 S
C1797 N1793 1.279 . S
C1797 C1795 1.358 . S
C1797 H1839 0.930 . S
C1798 C1799 1.348 . S
C1798 C1800 1.356 . S
C1798 O1823 1.325 . S
C1799 C1798 1.348 . S
C1799 C1801 1.353 . S
C1799 H1840 0.929 . S
C1800 C1798 1.356 . S
C1800 C1802 1.358 . S
C1800 H1841 0.930 . S
C1801 C1799 1.353 . S
C1801 N1803 1.314 . S
C1801 H1842 0.930 . S
C1802 C1800 1.358 . S
C1802 N1803 1.279 . S
C1802 H1843 0.930 . S
N1803 C1801 1.314 . S
N1803 C1802 1.279 . S
C1804 C1806 1.353 . S
C1804 N1807 1.314 . S
C1804 H1810 0.930 . S
C1805 N1807 1.279 . S
C1805 C1808 1.358 . S
C1805 H1811 0.930 . S
C1806 C1804 1.353 . S
C1806 C1809 1.348 . S
C1806 H1844 0.929 . S
N1807 Li1762 1.990 . S
N1807 C1804 1.314 . S
N1807 C1805 1.279 . S
C1808 C1805 1.358 . S
C1808 C1809 1.356 . S
C1808 H1845 0.930 . S
C1809 C1806 1.348 . S
C1809 C1808 1.356 . S
H1810 C1804 0.930 . S
H1811 C1805 0.930 . S
C1812 N1813 1.314 . S
C1812 C1814 1.353 . S
C1812 H1818 0.930 . S
N1813 Li1763 1.990 . S
N1813 C1812 1.314 . S
N1813 C1816 1.279 1_554 S
C1814 C1812 1.353 . S
C1814 C1817 1.387 . S
C1814 H1846 0.929 . S
C1815 C1816 1.358 . S
C1815 C1817 1.314 1_556 S
C1815 H1847 0.930 . S
C1816 N1813 1.279 1_556 S
C1816 C1815 1.358 . S
C1816 H1819 0.930 . S
C1817 C1814 1.387 . S
C1817 C1815 1.314 1_554 S
H1818 C1812 0.930 . S
H1819 C1816 0.930 . S
O1820 Li1760 1.956 . S
O1820 Li1761 1.970 . S
O1820 Li1762 1.961 1_554 S
O1820 C1764 1.325 . S
O1821 Li1760 1.970 . S
O1821 Li1761 1.956 . S
O1821 Li1763 1.961 . S
O1821 C1770 1.325 . S
O1822 Li1760 1.961 . S
O1822 Li1762 1.956 1_554 S
O1822 Li1763 1.970 . S
O1822 C1792 1.325 . S
O1823 Li1761 1.961 1_556 S
O1823 Li1762 1.970 . S
O1823 Li1763 1.956 1_556 S
O1823 C1798 1.325 . S
H1824 C1766 0.929 . S
H1825 C1767 0.930 . S
H1826 C1768 0.930 . S
H1827 C1769 0.930 . S
H1828 C1771 0.930 . S
H1829 C1773 0.929 . S
H1830 C1774 0.930 . S
H1831 C1775 0.930 . S
H1832 C1778 0.930 . S
H1833 C1781 0.929 . S
H1834 C1786 0.929 . S
H1835 C1787 0.930 . S
H1836 C1794 0.929 1_556 S
H1837 C1795 0.930 . S
H1838 C1796 0.930 1_556 S
H1839 C1797 0.930 . S
H1840 C1799 0.929 . S
H1841 C1800 0.930 . S
H1842 C1801 0.930 . S
H1843 C1802 0.930 . S
H1844 C1806 0.929 . S
H1845 C1808 0.930 . S
H1846 C1814 0.929 . S
H1847 C1815 0.930 . S
Li1848 N1865 1.990 . S
Li1848 O1908 1.956 . S
Li1848 O1909 1.970 . S
Li1848 O1910 1.961 . S
Li1849 N1873 1.990 . S
Li1849 O1908 1.970 . S
Li1849 O1909 1.956 . S
Li1849 O1911 1.961 . S
Li1850 N1895 1.990 . S
Li1850 O1908 1.961 . S
Li1850 O1910 1.956 . S
Li1850 O1911 1.970 . S
Li1851 N1901 1.990 . S
Li1851 O1909 1.961 . S
Li1851 O1910 1.970 . S
Li1851 O1911 1.956 . S
C1852 C1854 1.348 . S
C1852 C1855 1.356 . S
C1852 O1908 1.325 . S
N1853 C1856 1.314 . S
N1853 C1857 1.279 . S
C1854 C1852 1.348 . S
C1854 C1856 1.353 . S
C1854 H1912 0.929 . S
C1855 C1852 1.356 . S
C1855 C1857 1.358 . S
C1855 H1913 0.930 . S
C1856 N1853 1.314 . S
C1856 C1854 1.353 . S
C1856 H1914 0.930 . S
C1857 N1853 1.279 . S
C1857 C1855 1.358 . S
C1857 H1915 0.930 . S
C1858 C1861 1.348 . S
C1858 C1862 1.356 . S
C1858 O1909 1.325 . S
C1859 N1860 1.279 . S
C1859 C1862 1.358 . S
C1859 H1916 0.930 . S
N1860 C1859 1.279 . S
N1860 C1863 1.314 . S
C1861 C1858 1.348 . S
C1861 C1863 1.353 . S
C1861 H1917 0.929 . S
C1862 C1858 1.356 . S
C1862 C1859 1.358 . S
C1862 H1918 0.930 . S
C1863 N1860 1.314 . S
C1863 C1861 1.353 . S
C1863 H1919 0.930 . S
C1864 N1865 1.314 . S
C1864 C1869 1.353 . S
C1864 H1870 0.930 . S
N1865 Li1848 1.990 . S
N1865 C1864 1.314 . S
N1865 C1867 1.279 . S
C1866 C1867 1.358 . S
C1866 C1868 1.356 . S
C1866 H1920 0.930 . S
C1867 N1865 1.279 . S
C1867 C1866 1.358 . S
C1867 H1871 0.930 . S
C1868 C1866 1.356 . S
C1868 C1869 1.348 . S
C1869 C1864 1.353 . S
C1869 C1868 1.348 . S
C1869 H1921 0.929 . S
H1870 C1864 0.930 . S
H1871 C1867 0.930 . S
C1872 N1873 1.314 . S
C1872 C1874 1.353 . S
C1872 H1878 0.930 . S
N1873 Li1849 1.990 . S
N1873 C1872 1.314 . S
N1873 C1876 1.279 . S
C1874 C1872 1.353 . S
C1874 C1877 1.348 . S
C1874 H1922 0.929 . S
C1875 C1876 1.358 . S
C1875 C1877 1.356 . S
C1875 H1923 0.930 . S
C1876 N1873 1.279 . S
C1876 C1875 1.358 . S
C1876 H1879 0.930 . S
C1877 C1874 1.348 . S
C1877 C1875 1.356 . S
H1878 C1872 0.930 . S
H1879 C1876 0.930 . S
C1880 C1882 1.348 . S
C1880 C1883 1.356 . S
C1880 O1910 1.325 . S
N1881 C1884 1.314 . S
N1881 C1885 1.279 . S
C1882 C1880 1.348 . S
C1882 C1884 1.353 . S
C1882 H1924 0.929 . S
C1883 C1880 1.356 . S
C1883 C1885 1.358 . S
C1883 H1925 0.930 . S
C1884 N1881 1.314 . S
C1884 C1882 1.353 . S
C1884 H1926 0.930 . S
C1885 N1881 1.279 . S
C1885 C1883 1.358 . S
C1885 H1927 0.930 . S
C1886 C1887 1.348 . S
C1886 C1888 1.356 . S
C1886 O1911 1.325 . S
C1887 C1886 1.348 . S
C1887 C1889 1.353 . S
C1887 H1928 0.929 . S
C1888 C1886 1.356 . S
C1888 C1890 1.358 . S
C1888 H1929 0.930 . S
C1889 C1887 1.353 . S
C1889 N1891 1.314 . S
C1889 H1930 0.930 . S
C1890 C1888 1.358 . S
C1890 N1891 1.279 . S
C1890 H1931 0.930 . S
N1891 C1889 1.314 . S
N1891 C1890 1.279 . S
C1892 C1894 1.353 . S
C1892 N1895 1.314 . S
C1892 H1898 0.930 . S
C1893 N1895 1.279 . S
C1893 C1896 1.358 . S
C1893 H1899 0.930 . S
C1894 C1892 1.353 . S
C1894 C1897 1.348 . S
C1894 H1932 0.929 . S
N1895 Li1850 1.990 . S
N1895 C1892 1.314 . S
N1895 C1893 1.279 . S
C1896 C1893 1.358 . S
C1896 C1897 1.356 . S
C1896 H1933 0.930 . S
C1897 C1894 1.348 . S
C1897 C1896 1.356 . S
H1898 C1892 0.930 . S
H1899 C1893 0.930 . S
C1900 N1901 1.314 . S
C1900 C1902 1.353 . S
C1900 H1906 0.930 . S
N1901 Li1851 1.990 . S
N1901 C1900 1.314 . S
N1901 C1904 1.279 . S
C1902 C1900 1.353 . S
C1902 C1905 1.348 . S
C1902 H1934 0.929 . S
C1903 C1904 1.358 . S
C1903 C1905 1.356 . S
C1903 H1935 0.930 . S
C1904 N1901 1.279 . S
C1904 C1903 1.358 . S
C1904 H1907 0.930 . S
C1905 C1902 1.348 . S
C1905 C1903 1.356 . S
H1906 C1900 0.930 . S
H1907 C1904 0.930 . S
O1908 Li1848 1.956 . S
O1908 Li1849 1.970 . S
O1908 Li1850 1.961 . S
O1908 C1852 1.325 . S
O1909 Li1848 1.970 . S
O1909 Li1849 1.956 . S
O1909 Li1851 1.961 . S
O1909 C1858 1.325 . S
O1910 Li1848 1.961 . S
O1910 Li1850 1.956 . S
O1910 Li1851 1.970 . S
O1910 C1880 1.325 . S
O1911 Li1849 1.961 . S
O1911 Li1850 1.970 . S
O1911 Li1851 1.956 . S
O1911 C1886 1.325 . S
H1912 C1854 0.929 . S
H1913 C1855 0.930 . S
H1914 C1856 0.930 . S
H1915 C1857 0.930 . S
H1916 C1859 0.930 . S
H1917 C1861 0.929 . S
H1918 C1862 0.930 . S
H1919 C1863 0.930 . S
H1920 C1866 0.930 . S
H1921 C1869 0.929 . S
H1922 C1874 0.929 . S
H1923 C1875 0.930 . S
H1924 C1882 0.929 . S
H1925 C1883 0.930 . S
H1926 C1884 0.930 . S
H1927 C1885 0.930 . S
H1928 C1887 0.929 . S
H1929 C1888 0.930 . S
H1930 C1889 0.930 . S
H1931 C1890 0.930 . S
H1932 C1894 0.929 . S
H1933 C1896 0.930 . S
H1934 C1902 0.929 . S
H1935 C1903 0.930 . S
Li1936 N1953 1.990 . S
Li1936 O1996 1.956 . S
Li1936 O1997 1.970 . S
Li1936 O1998 1.961 . S
Li1937 N1961 1.990 . S
Li1937 O1996 1.970 . S
Li1937 O1997 1.956 . S
Li1937 O1999 1.961 . S
Li1938 N1983 1.990 . S
Li1938 O1996 1.961 . S
Li1938 O1998 1.956 . S
Li1938 O1999 1.970 . S
Li1939 N1989 1.990 . S
Li1939 O1997 1.961 . S
Li1939 O1998 1.970 . S
Li1939 O1999 1.956 . S
C1940 C1942 1.348 . S
C1940 C1943 1.356 . S
C1940 O1996 1.325 . S
N1941 C1944 1.314 . S
N1941 C1945 1.279 . S
C1942 C1940 1.348 . S
C1942 C1944 1.353 . S
C1942 H2000 0.929 . S
C1943 C1940 1.356 . S
C1943 C1945 1.358 . S
C1943 H2001 0.930 . S
C1944 N1941 1.314 . S
C1944 C1942 1.353 . S
C1944 H2002 0.930 . S
C1945 N1941 1.279 . S
C1945 C1943 1.358 . S
C1945 H2003 0.930 . S
C1946 C1949 1.348 . S
C1946 C1950 1.356 . S
C1946 O1997 1.325 . S
C1947 N1948 1.279 . S
C1947 C1950 1.358 . S
C1947 H2004 0.930 . S
N1948 C1947 1.279 . S
N1948 C1951 1.314 . S
C1949 C1946 1.348 . S
C1949 C1951 1.353 . S
C1949 H2005 0.929 . S
C1950 C1946 1.356 . S
C1950 C1947 1.358 . S
C1950 H2006 0.930 . S
C1951 N1948 1.314 . S
C1951 C1949 1.353 . S
C1951 H2007 0.930 . S
C1952 N1953 1.314 . S
C1952 C1957 1.353 . S
C1952 H1958 0.930 . S
N1953 Li1936 1.990 . S
N1953 C1952 1.314 . S
N1953 C1955 1.279 . S
C1954 C1955 1.358 . S
C1954 C1956 1.356 . S
C1954 H2008 0.930 . S
C1955 N1953 1.279 . S
C1955 C1954 1.358 . S
C1955 H1959 0.930 . S
C1956 C1954 1.356 . S
C1956 C1957 1.348 . S
C1957 C1952 1.353 . S
C1957 C1956 1.348 . S
C1957 H2009 0.929 . S
H1958 C1952 0.930 . S
H1959 C1955 0.930 . S
C1960 N1961 1.314 . S
C1960 C1962 1.353 . S
C1960 H1966 0.930 . S
N1961 Li1937 1.990 . S
N1961 C1960 1.314 . S
N1961 C1964 1.279 . S
C1962 C1960 1.353 . S
C1962 C1965 1.348 . S
C1962 H2010 0.929 . S
C1963 C1964 1.358 . S
C1963 C1965 1.356 . S
C1963 H2011 0.930 . S
C1964 N1961 1.279 . S
C1964 C1963 1.358 . S
C1964 H1967 0.930 . S
C1965 C1962 1.348 . S
C1965 C1963 1.356 . S
H1966 C1960 0.930 . S
H1967 C1964 0.930 . S
C1968 C1970 1.348 . S
C1968 C1971 1.356 . S
C1968 O1998 1.325 . S
N1969 C1972 1.314 . S
N1969 C1973 1.279 . S
C1970 C1968 1.348 . S
C1970 C1972 1.353 . S
C1970 H2012 0.929 . S
C1971 C1968 1.356 . S
C1971 C1973 1.358 . S
C1971 H2013 0.930 . S
C1972 N1969 1.314 . S
C1972 C1970 1.353 . S
C1972 H2014 0.930 . S
C1973 N1969 1.279 . S
C1973 C1971 1.358 . S
C1973 H2015 0.930 . S
C1974 C1975 1.348 . S
C1974 C1976 1.356 . S
C1974 O1999 1.325 . S
C1975 C1974 1.348 . S
C1975 C1977 1.353 . S
C1975 H2016 0.929 . S
C1976 C1974 1.356 . S
C1976 C1978 1.358 . S
C1976 H2017 0.930 . S
C1977 C1975 1.353 . S
C1977 N1979 1.314 . S
C1977 H2018 0.930 . S
C1978 C1976 1.358 . S
C1978 N1979 1.279 . S
C1978 H2019 0.930 . S
N1979 C1977 1.314 . S
N1979 C1978 1.279 . S
C1980 C1982 1.353 . S
C1980 N1983 1.314 . S
C1980 H1986 0.930 . S
C1981 N1983 1.279 . S
C1981 C1984 1.358 . S
C1981 H1987 0.930 . S
C1982 C1980 1.353 . S
C1982 C1985 1.348 . S
C1982 H2020 0.929 . S
N1983 Li1938 1.990 . S
N1983 C1980 1.314 . S
N1983 C1981 1.279 . S
C1984 C1981 1.358 . S
C1984 C1985 1.356 . S
C1984 H2021 0.930 . S
C1985 C1982 1.348 . S
C1985 C1984 1.356 . S
H1986 C1980 0.930 . S
H1987 C1981 0.930 . S
C1988 N1989 1.314 . S
C1988 C1990 1.353 . S
C1988 H1994 0.930 . S
N1989 Li1939 1.990 . S
N1989 C1988 1.314 . S
N1989 C1992 1.279 . S
C1990 C1988 1.353 . S
C1990 C1993 1.348 . S
C1990 H2022 0.929 . S
C1991 C1992 1.358 . S
C1991 C1993 1.356 . S
C1991 H2023 0.930 . S
C1992 N1989 1.279 . S
C1992 C1991 1.358 . S
C1992 H1995 0.930 . S
C1993 C1990 1.348 . S
C1993 C1991 1.356 . S
H1994 C1988 0.930 . S
H1995 C1992 0.930 . S
O1996 Li1936 1.956 . S
O1996 Li1937 1.970 . S
O1996 Li1938 1.961 . S
O1996 C1940 1.325 . S
O1997 Li1936 1.970 . S
O1997 Li1937 1.956 . S
O1997 Li1939 1.961 . S
O1997 C1946 1.325 . S
O1998 Li1936 1.961 . S
O1998 Li1938 1.956 . S
O1998 Li1939 1.970 . S
O1998 C1968 1.325 . S
O1999 Li1937 1.961 . S
O1999 Li1938 1.970 . S
O1999 Li1939 1.956 . S
O1999 C1974 1.325 . S
H2000 C1942 0.929 . S
H2001 C1943 0.930 . S
H2002 C1944 0.930 . S
H2003 C1945 0.930 . S
H2004 C1947 0.930 . S
H2005 C1949 0.929 . S
H2006 C1950 0.930 . S
H2007 C1951 0.930 . S
H2008 C1954 0.930 . S
H2009 C1957 0.929 . S
H2010 C1962 0.929 . S
H2011 C1963 0.930 . S
H2012 C1970 0.929 . S
H2013 C1971 0.930 . S
H2014 C1972 0.930 . S
H2015 C1973 0.930 . S
H2016 C1975 0.929 . S
H2017 C1976 0.930 . S
H2018 C1977 0.930 . S
H2019 C1978 0.930 . S
H2020 C1982 0.929 . S
H2021 C1984 0.930 . S
H2022 C1990 0.929 . S
H2023 C1991 0.930 . S
Li2024 N2041 1.990 . S
Li2024 O2084 1.956 . S
Li2024 O2085 1.970 . S
Li2024 O2086 1.961 . S
Li2025 N2049 1.990 . S
Li2025 O2084 1.970 . S
Li2025 O2085 1.956 . S
Li2025 O2087 1.961 . S
Li2026 N2071 1.990 . S
Li2026 O2084 1.961 . S
Li2026 O2086 1.956 . S
Li2026 O2087 1.970 . S
Li2027 N2077 1.990 . S
Li2027 O2085 1.961 . S
Li2027 O2086 1.970 . S
Li2027 O2087 1.956 . S
C2028 C2030 1.348 . S
C2028 C2031 1.356 . S
C2028 O2084 1.325 . S
N2029 C2032 1.314 . S
N2029 C2033 1.279 . S
C2030 C2028 1.348 . S
C2030 C2032 1.353 . S
C2030 H2088 0.929 . S
C2031 C2028 1.356 . S
C2031 C2033 1.358 . S
C2031 H2089 0.930 . S
C2032 N2029 1.314 . S
C2032 C2030 1.353 . S
C2032 H2090 0.930 . S
C2033 N2029 1.279 . S
C2033 C2031 1.358 . S
C2033 H2091 0.930 . S
C2034 C2037 1.348 . S
C2034 C2038 1.356 . S
C2034 O2085 1.325 . S
C2035 N2036 1.279 . S
C2035 C2038 1.358 . S
C2035 H2092 0.930 . S
N2036 C2035 1.279 . S
N2036 C2039 1.314 . S
C2037 C2034 1.348 . S
C2037 C2039 1.353 . S
C2037 H2093 0.929 . S
C2038 C2034 1.356 . S
C2038 C2035 1.358 . S
C2038 H2094 0.930 . S
C2039 N2036 1.314 . S
C2039 C2037 1.353 . S
C2039 H2095 0.930 . S
C2040 N2041 1.314 . S
C2040 C2045 1.353 . S
C2040 H2046 0.930 . S
N2041 Li2024 1.990 . S
N2041 C2040 1.314 . S
N2041 C2043 1.279 . S
C2042 C2043 1.358 . S
C2042 C2044 1.356 . S
C2042 H2096 0.930 . S
C2043 N2041 1.279 . S
C2043 C2042 1.358 . S
C2043 H2047 0.930 . S
C2044 C2042 1.356 . S
C2044 C2045 1.348 . S
C2045 C2040 1.353 . S
C2045 C2044 1.348 . S
C2045 H2097 0.929 . S
H2046 C2040 0.930 . S
H2047 C2043 0.930 . S
C2048 N2049 1.314 . S
C2048 C2050 1.353 . S
C2048 H2054 0.930 . S
N2049 Li2025 1.990 . S
N2049 C2048 1.314 . S
N2049 C2052 1.279 . S
C2050 C2048 1.353 . S
C2050 C2053 1.348 . S
C2050 H2098 0.929 . S
C2051 C2052 1.358 . S
C2051 C2053 1.356 . S
C2051 H2099 0.930 . S
C2052 N2049 1.279 . S
C2052 C2051 1.358 . S
C2052 H2055 0.930 . S
C2053 C2050 1.348 . S
C2053 C2051 1.356 . S
H2054 C2048 0.930 . S
H2055 C2052 0.930 . S
C2056 C2058 1.348 . S
C2056 C2059 1.356 . S
C2056 O2086 1.325 . S
N2057 C2060 1.314 . S
N2057 C2061 1.279 . S
C2058 C2056 1.348 . S
C2058 C2060 1.353 . S
C2058 H2100 0.929 . S
C2059 C2056 1.356 . S
C2059 C2061 1.358 . S
C2059 H2101 0.930 . S
C2060 N2057 1.314 . S
C2060 C2058 1.353 . S
C2060 H2102 0.930 . S
C2061 N2057 1.279 . S
C2061 C2059 1.358 . S
C2061 H2103 0.930 . S
C2062 C2063 1.348 . S
C2062 C2064 1.356 . S
C2062 O2087 1.325 . S
C2063 C2062 1.348 . S
C2063 C2065 1.353 . S
C2063 H2104 0.929 . S
C2064 C2062 1.356 . S
C2064 C2066 1.358 . S
C2064 H2105 0.930 . S
C2065 C2063 1.353 . S
C2065 N2067 1.314 . S
C2065 H2106 0.930 . S
C2066 C2064 1.358 . S
C2066 N2067 1.279 . S
C2066 H2107 0.930 . S
N2067 C2065 1.314 . S
N2067 C2066 1.279 . S
C2068 C2070 1.353 . S
C2068 N2071 1.314 . S
C2068 H2074 0.930 . S
C2069 N2071 1.279 . S
C2069 C2072 1.358 . S
C2069 H2075 0.930 . S
C2070 C2068 1.353 . S
C2070 C2073 1.348 . S
C2070 H2108 0.929 . S
N2071 Li2026 1.990 . S
N2071 C2068 1.314 . S
N2071 C2069 1.279 . S
C2072 C2069 1.358 . S
C2072 C2073 1.356 . S
C2072 H2109 0.930 . S
C2073 C2070 1.348 . S
C2073 C2072 1.356 . S
H2074 C2068 0.930 . S
H2075 C2069 0.930 . S
C2076 N2077 1.314 . S
C2076 C2078 1.353 . S
C2076 H2082 0.930 . S
N2077 Li2027 1.990 . S
N2077 C2076 1.314 . S
N2077 C2080 1.279 . S
C2078 C2076 1.353 . S
C2078 C2081 1.348 . S
C2078 H2110 0.929 . S
C2079 C2080 1.358 . S
C2079 C2081 1.356 . S
C2079 H2111 0.930 . S
C2080 N2077 1.279 . S
C2080 C2079 1.358 . S
C2080 H2083 0.930 . S
C2081 C2078 1.348 . S
C2081 C2079 1.356 . S
H2082 C2076 0.930 . S
H2083 C2080 0.930 . S
O2084 Li2024 1.956 . S
O2084 Li2025 1.970 . S
O2084 Li2026 1.961 . S
O2084 C2028 1.325 . S
O2085 Li2024 1.970 . S
O2085 Li2025 1.956 . S
O2085 Li2027 1.961 . S
O2085 C2034 1.325 . S
O2086 Li2024 1.961 . S
O2086 Li2026 1.956 . S
O2086 Li2027 1.970 . S
O2086 C2056 1.325 . S
O2087 Li2025 1.961 . S
O2087 Li2026 1.970 . S
O2087 Li2027 1.956 . S
O2087 C2062 1.325 . S
H2088 C2030 0.929 . S
H2089 C2031 0.930 . S
H2090 C2032 0.930 . S
H2091 C2033 0.930 . S
H2092 C2035 0.930 . S
H2093 C2037 0.929 . S
H2094 C2038 0.930 . S
H2095 C2039 0.930 . S
H2096 C2042 0.930 . S
H2097 C2045 0.929 . S
H2098 C2050 0.929 . S
H2099 C2051 0.930 . S
H2100 C2058 0.929 . S
H2101 C2059 0.930 . S
H2102 C2060 0.930 . S
H2103 C2061 0.930 . S
H2104 C2063 0.929 . S
H2105 C2064 0.930 . S
H2106 C2065 0.930 . S
H2107 C2066 0.930 . S
H2108 C2070 0.929 . S
H2109 C2072 0.930 . S
H2110 C2078 0.929 . S
H2111 C2079 0.930 . S
Eu2112 N2141 2.600 . S
Eu2112 N2147 2.562 . S
Eu2112 O2156 2.462 . S
Eu2112 O2157 2.373 . S
Eu2112 O2159 2.432 . S
Eu2112 O2160 2.291 . S
Eu2112 O2164 2.333 . S
Eu2112 O2167 2.372 . S
Eu2112 C2176 2.787 . S
C2113 N2114 1.365 . S
C2113 C2116 1.405 . S
C2113 C2120 1.448 1_556 S
N2114 C2113 1.365 . S
N2114 C2117 1.319 . S
N2114 Eu2123 2.600 1_566 S
C2115 C2117 1.397 . S
C2115 C2118 1.367 . S
C2115 H2135 0.931 . S
C2116 C2113 1.405 . S
C2116 C2118 1.403 . S
C2116 C2122 1.439 . S
C2117 N2114 1.319 . S
C2117 C2115 1.397 . S
C2117 H2128 0.930 . S
C2118 C2115 1.367 . S
C2118 C2116 1.403 . S
C2118 H2139 0.929 . S
C2119 C2120 1.430 . S
C2119 C2121 1.387 1_554 S
C2119 C2125 1.404 . S
C2120 C2113 1.448 1_554 S
C2120 C2119 1.430 . S
C2120 N2124 1.351 . S
C2121 C2119 1.387 1_556 S
C2121 C2122 1.374 . S
C2121 H2136 0.916 1_556 S
C2122 C2116 1.439 . S
C2122 C2121 1.374 . S
C2122 H2137 0.931 . S
Eu2123 N2114 2.600 1_544 S
Eu2123 N2124 2.562 1_545 S
Eu2123 O2158 2.335 1_655 S
Eu2123 O2161 2.372 1_654 S
Eu2123 O2162 2.462 . S
Eu2123 O2163 2.373 1_645 S
Eu2123 O2165 2.432 1_554 S
Eu2123 O2166 2.291 1_655 S
Eu2123 C2187 2.787 . S
N2124 C2120 1.351 . S
N2124 Eu2123 2.562 1_565 S
N2124 C2126 1.325 . S
C2125 C2119 1.404 . S
C2125 C2127 1.366 . S
C2125 H2133 0.930 . S
C2126 N2124 1.325 . S
C2126 C2127 1.416 . S
C2126 H2132 0.929 . S
C2127 C2125 1.366 . S
C2127 C2126 1.416 . S
C2127 H2129 0.930 . S
H2128 C2117 0.930 . S
H2129 C2127 0.930 . S
H2130 C2145 0.930 . S
H2131 C2152 0.930 1_556 S
H2132 C2126 0.929 . S
H2133 C2125 0.930 . S
H2134 C2148 0.944 . S
H2135 C2115 0.931 . S
H2136 C2121 0.916 1_554 S
H2137 C2122 0.931 . S
H2138 C2143 0.931 . S
H2139 C2118 0.929 . S
H2140 C2151 0.930 . S
N2141 Eu2112 2.600 . S
N2141 C2142 1.365 . S
N2141 C2145 1.319 . S
C2142 N2141 1.365 . S
C2142 C2144 1.405 . S
C2142 C2150 1.448 . S
C2143 H2138 0.931 . S
C2143 C2145 1.397 . S
C2143 C2146 1.367 . S
C2144 C2142 1.405 . S
C2144 C2146 1.403 . S
C2144 C2177 1.439 . S
C2145 H2130 0.930 . S
C2145 N2141 1.319 . S
C2145 C2143 1.397 . S
C2146 C2143 1.367 . S
C2146 C2144 1.403 . S
C2146 H2153 0.929 . S
N2147 Eu2112 2.562 . S
N2147 C2148 1.325 . S
N2147 C2150 1.351 . S
C2148 H2134 0.944 . S
C2148 N2147 1.325 . S
C2148 C2152 1.416 . S
C2149 C2150 1.430 . S
C2149 C2151 1.404 . S
C2149 C2178 1.387 . S
C2150 C2142 1.448 . S
C2150 N2147 1.351 . S
C2150 C2149 1.430 . S
C2151 H2140 0.930 . S
C2151 C2149 1.404 . S
C2151 C2152 1.366 . S
C2152 H2131 0.930 1_554 S
C2152 C2148 1.416 . S
C2152 C2151 1.366 . S
H2153 C2146 0.929 . S
H2154 C2177 0.931 . S
H2155 C2178 0.931 . S
O2156 Eu2112 2.462 . S
O2156 C2176 1.252 . S
O2157 Eu2112 2.373 . S
O2157 C2168 1.249 . S
O2158 Eu2123 2.335 1_455 S
O2158 C2168 1.264 . S
O2159 Eu2112 2.432 . S
O2159 C2176 1.268 . S
O2160 Eu2112 2.291 . S
O2160 C2175 1.255 1_554 S
O2161 Eu2123 2.372 1_456 S
O2161 C2175 1.257 . S
O2162 Eu2123 2.462 . S
O2162 C2187 1.252 . S
O2163 Eu2123 2.373 1_465 S
O2163 C2179 1.249 . S
O2164 Eu2112 2.333 . S
O2164 C2179 1.265 1_545 S
O2165 Eu2123 2.432 1_556 S
O2165 C2187 1.268 1_556 S
O2166 Eu2123 2.291 1_455 S
O2166 C2186 1.255 . S
O2167 Eu2112 2.372 . S
O2167 C2186 1.257 . S
C2168 O2157 1.249 . S
C2168 O2158 1.264 . S
C2169 C2172 1.382 . S
C2169 C2174 1.390 . S
C2169 C2176 1.506 . S
C2170 C2171 1.405 . S
C2170 C2174 1.365 1_565 S
C2171 C2170 1.405 . S
C2171 C2173 1.366 1_565 S
C2171 H2188 0.939 . S
C2172 C2169 1.382 . S
C2172 C2173 1.390 . S
C2172 H2189 0.931 . S
C2173 C2171 1.366 1_545 S
C2173 C2172 1.390 . S
C2173 H2190 0.929 . S
C2174 C2169 1.390 . S
C2174 C2170 1.365 1_545 S
C2174 H2191 0.930 . S
C2175 O2160 1.255 1_556 S
C2175 O2161 1.257 . S
C2176 Eu2112 2.787 . S
C2176 O2156 1.252 . S
C2176 O2159 1.268 . S
C2176 C2169 1.506 . S
C2177 C2144 1.439 . S
C2177 H2154 0.931 . S
C2177 C2178 1.374 . S
C2178 C2149 1.387 . S
C2178 H2155 0.931 . S
C2178 C2177 1.374 . S
C2179 O2163 1.249 . S
C2179 O2164 1.265 1_565 S
C2180 C2183 1.424 . S
C2180 C2184 1.354 1_556 S
C2180 C2187 1.502 1_556 S
C2181 C2182 1.398 1_554 S
C2181 C2184 1.392 . S
C2182 C2181 1.398 1_556 S
C2182 C2185 1.372 . S
C2182 H2192 0.931 . S
C2183 C2180 1.424 . S
C2183 C2185 1.390 . S
C2183 H2193 0.931 . S
C2184 C2180 1.354 1_554 S
C2184 C2181 1.392 . S
C2184 H2194 0.930 . S
C2185 C2182 1.372 . S
C2185 C2183 1.390 . S
C2185 H2195 0.929 . S
C2186 O2166 1.255 . S
C2186 O2167 1.257 . S
C2187 Eu2123 2.787 . S
C2187 O2162 1.252 . S
C2187 O2165 1.268 1_554 S
C2187 C2180 1.502 1_554 S
H2188 C2171 0.939 . S
H2189 C2172 0.931 . S
H2190 C2173 0.929 . S
H2191 C2174 0.930 . S
H2192 C2182 0.931 . S
H2193 C2183 0.931 . S
H2194 C2184 0.930 . S
H2195 C2185 0.929 . S
Eu2196 N2225 2.600 . S
Eu2196 N2231 2.562 . S
Eu2196 O2240 2.462 . S
Eu2196 O2241 2.373 . S
Eu2196 O2243 2.432 . S
Eu2196 O2244 2.291 . S
Eu2196 O2248 2.335 . S
Eu2196 O2251 2.372 . S
Eu2196 C2260 2.787 . S
C2197 N2198 1.365 . S
C2197 C2200 1.405 . S
C2197 C2204 1.448 . S
N2198 C2197 1.365 . S
N2198 C2201 1.319 . S
N2198 Eu2207 2.600 . S
C2199 C2201 1.397 . S
C2199 C2202 1.367 . S
C2199 H2219 0.931 . S
C2200 C2197 1.405 . S
C2200 C2202 1.403 . S
C2200 C2206 1.439 . S
C2201 N2198 1.319 . S
C2201 C2199 1.397 . S
C2201 H2212 0.930 . S
C2202 C2199 1.367 . S
C2202 C2200 1.403 . S
C2202 H2223 0.929 . S
C2203 C2204 1.430 . S
C2203 C2205 1.387 . S
C2203 C2209 1.404 . S
C2204 C2197 1.448 . S
C2204 C2203 1.430 . S
C2204 N2208 1.351 . S
C2205 C2203 1.387 . S
C2205 C2206 1.374 . S
C2205 H2220 0.931 . S
C2206 C2200 1.439 . S
C2206 C2205 1.374 . S
C2206 H2221 0.931 . S
Eu2207 N2198 2.600 . S
Eu2207 N2208 2.562 . S
Eu2207 O2242 2.335 . S
Eu2207 O2245 2.372 . S
Eu2207 O2246 2.462 . S
Eu2207 O2247 2.373 . S
Eu2207 O2249 2.432 . S
Eu2207 O2250 2.291 . S
Eu2207 C2271 2.787 . S
N2208 C2204 1.351 . S
N2208 Eu2207 2.562 . S
N2208 C2210 1.325 . S
C2209 C2203 1.404 . S
C2209 C2211 1.366 . S
C2209 H2217 0.930 . S
C2210 N2208 1.325 . S
C2210 C2211 1.416 . S
C2210 H2216 0.929 . S
C2211 C2209 1.366 . S
C2211 C2210 1.416 . S
C2211 H2213 0.930 . S
H2212 C2201 0.930 . S
H2213 C2211 0.930 . S
H2214 C2229 0.930 . S
H2215 C2236 0.930 . S
H2216 C2210 0.929 . S
H2217 C2209 0.930 . S
H2218 C2232 0.929 . S
H2219 C2199 0.931 . S
H2220 C2205 0.931 . S
H2221 C2206 0.931 . S
H2222 C2227 0.931 . S
H2223 C2202 0.929 . S
H2224 C2235 0.930 . S
N2225 Eu2196 2.600 . S
N2225 C2226 1.365 . S
N2225 C2229 1.319 . S
C2226 N2225 1.365 . S
C2226 C2228 1.405 . S
C2226 C2234 1.448 . S
C2227 H2222 0.931 . S
C2227 C2229 1.397 . S
C2227 C2230 1.367 . S
C2228 C2226 1.405 . S
C2228 C2230 1.403 . S
C2228 C2261 1.439 . S
C2229 H2214 0.930 . S
C2229 N2225 1.319 . S
C2229 C2227 1.397 . S
C2230 C2227 1.367 . S
C2230 C2228 1.403 . S
C2230 H2237 0.929 . S
N2231 Eu2196 2.562 . S
N2231 C2232 1.325 . S
N2231 C2234 1.351 . S
C2232 H2218 0.929 . S
C2232 N2231 1.325 . S
C2232 C2236 1.416 . S
C2233 C2234 1.430 . S
C2233 C2235 1.404 . S
C2233 C2262 1.387 . S
C2234 C2226 1.448 . S
C2234 N2231 1.351 . S
C2234 C2233 1.430 . S
C2235 H2224 0.930 . S
C2235 C2233 1.404 . S
C2235 C2236 1.366 . S
C2236 H2215 0.930 . S
C2236 C2232 1.416 . S
C2236 C2235 1.366 . S
H2237 C2230 0.929 . S
H2238 C2261 0.931 . S
H2239 C2262 0.931 . S
O2240 Eu2196 2.462 . S
O2240 C2260 1.252 . S
O2241 Eu2196 2.373 . S
O2241 C2252 1.249 . S
O2242 Eu2207 2.335 . S
O2242 C2252 1.264 . S
O2243 Eu2196 2.432 . S
O2243 C2260 1.268 . S
O2244 Eu2196 2.291 . S
O2244 C2259 1.255 . S
O2245 Eu2207 2.372 . S
O2245 C2259 1.257 . S
O2246 Eu2207 2.462 . S
O2246 C2271 1.252 . S
O2247 Eu2207 2.373 . S
O2247 C2263 1.249 . S
O2248 Eu2196 2.335 . S
O2248 C2263 1.264 . S
O2249 Eu2207 2.432 . S
O2249 C2271 1.268 . S
O2250 Eu2207 2.291 . S
O2250 C2270 1.255 . S
O2251 Eu2196 2.372 . S
O2251 C2270 1.257 . S
C2252 O2241 1.249 . S
C2252 O2242 1.264 . S
C2253 C2256 1.382 . S
C2253 C2258 1.390 . S
C2253 C2260 1.506 . S
C2254 C2255 1.398 . S
C2254 C2258 1.392 . S
C2255 C2254 1.398 . S
C2255 C2257 1.372 . S
C2255 H2272 0.931 . S
C2256 C2253 1.382 . S
C2256 C2257 1.390 . S
C2256 H2273 0.931 . S
C2257 C2255 1.372 . S
C2257 C2256 1.390 . S
C2257 H2274 0.929 . S
C2258 C2253 1.390 . S
C2258 C2254 1.392 . S
C2258 H2275 0.930 . S
C2259 O2244 1.255 . S
C2259 O2245 1.257 . S
C2260 Eu2196 2.787 . S
C2260 O2240 1.252 . S
C2260 O2243 1.268 . S
C2260 C2253 1.506 . S
C2261 C2228 1.439 . S
C2261 H2238 0.931 . S
C2261 C2262 1.374 . S
C2262 C2233 1.387 . S
C2262 H2239 0.931 . S
C2262 C2261 1.374 . S
C2263 O2247 1.249 . S
C2263 O2248 1.264 . S
C2264 C2267 1.382 . S
C2264 C2268 1.390 . S
C2264 C2271 1.506 . S
C2265 C2266 1.398 . S
C2265 C2268 1.392 . S
C2266 C2265 1.398 . S
C2266 C2269 1.372 . S
C2266 H2276 0.931 . S
C2267 C2264 1.382 . S
C2267 C2269 1.390 . S
C2267 H2277 0.931 . S
C2268 C2264 1.390 . S
C2268 C2265 1.392 . S
C2268 H2278 0.930 . S
C2269 C2266 1.372 . S
C2269 C2267 1.390 . S
C2269 H2279 0.929 . S
C2270 O2250 1.255 . S
C2270 O2251 1.257 . S
C2271 Eu2207 2.787 . S
C2271 O2246 1.252 . S
C2271 O2249 1.268 . S
C2271 C2264 1.506 . S
H2272 C2255 0.931 . S
H2273 C2256 0.931 . S
H2274 C2257 0.929 . S
H2275 C2258 0.930 . S
H2276 C2266 0.931 . S
H2277 C2267 0.931 . S
H2278 C2268 0.930 . S
H2279 C2269 0.929 . S
Eu2280 N2309 2.600 1_545 S
Eu2280 N2315 2.562 1_545 S
Eu2280 O2324 2.462 . S
Eu2280 O2325 2.373 1_545 S
Eu2280 O2327 2.432 . S
Eu2280 O2328 2.291 . S
Eu2280 O2332 2.335 . S
Eu2280 O2335 2.372 . S
Eu2280 C2344 2.787 . S
C2281 N2282 1.365 . S
C2281 C2284 1.405 . S
C2281 C2288 1.448 . S
N2282 C2281 1.365 . S
N2282 C2285 1.319 . S
N2282 Eu2291 2.600 . S
C2283 C2285 1.397 . S
C2283 C2286 1.367 . S
C2283 H2303 0.931 . S
C2284 C2281 1.405 . S
C2284 C2286 1.403 . S
C2284 C2290 1.439 . S
C2285 N2282 1.319 . S
C2285 C2283 1.397 . S
C2285 H2296 0.930 . S
C2286 C2283 1.367 . S
C2286 C2284 1.403 . S
C2286 H2307 0.929 . S
C2287 C2288 1.430 . S
C2287 C2289 1.387 . S
C2287 C2293 1.404 . S
C2288 C2281 1.448 . S
C2288 C2287 1.430 . S
C2288 N2292 1.351 . S
C2289 C2287 1.387 . S
C2289 C2290 1.374 . S
C2289 H2304 0.931 . S
C2290 C2284 1.439 . S
C2290 C2289 1.374 . S
C2290 H2305 0.931 . S
Eu2291 N2282 2.600 . S
Eu2291 N2292 2.562 . S
Eu2291 O2326 2.335 1_545 S
Eu2291 O2329 2.372 . S
Eu2291 O2330 2.462 . S
Eu2291 O2331 2.373 . S
Eu2291 O2333 2.432 . S
Eu2291 O2334 2.291 . S
Eu2291 C2355 2.787 . S
N2292 C2288 1.351 . S
N2292 Eu2291 2.562 . S
N2292 C2294 1.325 . S
C2293 C2287 1.404 . S
C2293 C2295 1.366 . S
C2293 H2301 0.930 . S
C2294 N2292 1.325 . S
C2294 C2295 1.416 . S
C2294 H2300 0.929 . S
C2295 C2293 1.366 . S
C2295 C2294 1.416 . S
C2295 H2297 0.930 . S
H2296 C2285 0.930 . S
H2297 C2295 0.930 . S
H2298 C2313 0.972 . S
H2299 C2320 0.930 . S
H2300 C2294 0.929 . S
H2301 C2293 0.930 . S
H2302 C2316 0.929 . S
H2303 C2283 0.931 . S
H2304 C2289 0.931 . S
H2305 C2290 0.931 . S
H2306 C2311 0.931 . S
H2307 C2286 0.929 . S
H2308 C2319 0.930 . S
N2309 Eu2280 2.600 1_565 S
N2309 C2310 1.365 . S
N2309 C2313 1.322 1_565 S
C2310 N2309 1.365 . S
C2310 C2312 1.405 . S
C2310 C2318 1.448 . S
C2311 H2306 0.931 . S
C2311 C2313 1.357 1_565 S
C2311 C2314 1.367 . S
C2312 C2310 1.405 . S
C2312 C2314 1.403 . S
C2312 C2345 1.439 . S
C2313 H2298 0.972 . S
C2313 N2309 1.322 1_545 S
C2313 C2311 1.357 1_545 S
C2314 C2311 1.367 . S
C2314 C2312 1.403 . S
C2314 H2321 0.929 . S
N2315 Eu2280 2.562 1_565 S
N2315 C2316 1.325 . S
N2315 C2318 1.351 . S
C2316 H2302 0.929 . S
C2316 N2315 1.325 . S
C2316 C2320 1.416 . S
C2317 C2318 1.430 . S
C2317 C2319 1.404 . S
C2317 C2346 1.387 . S
C2318 C2310 1.448 . S
C2318 N2315 1.351 . S
C2318 C2317 1.430 . S
C2319 H2308 0.930 . S
C2319 C2317 1.404 . S
C2319 C2320 1.366 . S
C2320 H2299 0.930 . S
C2320 C2316 1.416 . S
C2320 C2319 1.366 . S
H2321 C2314 0.929 . S
H2322 C2345 0.931 . S
H2323 C2346 0.931 . S
O2324 Eu2280 2.462 . S
O2324 C2344 1.252 . S
O2325 Eu2280 2.373 1_565 S
O2325 C2336 1.249 . S
O2326 Eu2291 2.335 1_565 S
O2326 C2336 1.264 . S
O2327 Eu2280 2.432 . S
O2327 C2344 1.268 . S
O2328 Eu2280 2.291 . S
O2328 C2343 1.255 . S
O2329 Eu2291 2.372 . S
O2329 C2343 1.257 . S
O2330 Eu2291 2.462 . S
O2330 C2355 1.252 . S
O2331 Eu2291 2.373 . S
O2331 C2347 1.249 . S
O2332 Eu2280 2.335 . S
O2332 C2347 1.264 . S
O2333 Eu2291 2.432 . S
O2333 C2355 1.268 . S
O2334 Eu2291 2.291 . S
O2334 C2354 1.255 . S
O2335 Eu2280 2.372 . S
O2335 C2354 1.257 . S
C2336 O2325 1.249 . S
C2336 O2326 1.264 . S
C2337 C2340 1.382 . S
C2337 C2342 1.390 . S
C2337 C2344 1.506 . S
C2338 C2339 1.398 . S
C2338 C2342 1.392 . S
C2339 C2338 1.398 . S
C2339 C2341 1.372 . S
C2339 H2356 0.931 . S
C2340 C2337 1.382 . S
C2340 C2341 1.390 . S
C2340 H2357 0.931 . S
C2341 C2339 1.372 . S
C2341 C2340 1.390 . S
C2341 H2358 0.929 . S
C2342 C2337 1.390 . S
C2342 C2338 1.392 . S
C2342 H2359 0.930 . S
C2343 O2328 1.255 . S
C2343 O2329 1.257 . S
C2344 Eu2280 2.787 . S
C2344 O2324 1.252 . S
C2344 O2327 1.268 . S
C2344 C2337 1.506 . S
C2345 C2312 1.439 . S
C2345 H2322 0.931 . S
C2345 C2346 1.374 . S
C2346 C2317 1.387 . S
C2346 H2323 0.931 . S
C2346 C2345 1.374 . S
C2347 O2331 1.249 . S
C2347 O2332 1.264 . S
C2348 C2351 1.382 . S
C2348 C2352 1.390 . S
C2348 C2355 1.506 1_565 S
C2349 C2350 1.398 . S
C2349 C2352 1.392 . S
C2350 C2349 1.398 . S
C2350 C2353 1.372 . S
C2350 H2360 0.931 . S
C2351 C2348 1.382 . S
C2351 C2353 1.390 . S
C2351 H2361 0.931 . S
C2352 C2348 1.390 . S
C2352 C2349 1.392 . S
C2352 H2362 0.930 . S
C2353 C2350 1.372 . S
C2353 C2351 1.390 . S
C2353 H2363 0.929 . S
C2354 O2334 1.255 . S
C2354 O2335 1.257 . S
C2355 Eu2291 2.787 . S
C2355 O2330 1.252 . S
C2355 O2333 1.268 . S
C2355 C2348 1.506 1_545 S
H2356 C2339 0.931 . S
H2357 C2340 0.931 . S
H2358 C2341 0.929 . S
H2359 C2342 0.930 . S
H2360 C2350 0.931 . S
H2361 C2351 0.931 . S
H2362 C2352 0.930 . S
H2363 C2353 0.929 . S
Eu2364 N2393 2.600 . S
Eu2364 N2399 2.562 . S
Eu2364 O2408 2.462 . S
Eu2364 O2409 2.373 . S
Eu2364 O2411 2.432 . S
Eu2364 O2412 2.291 . S
Eu2364 O2416 2.335 . S
Eu2364 O2419 2.372 . S
Eu2364 C2428 2.787 . S
C2365 N2366 1.365 . S
C2365 C2368 1.405 . S
C2365 C2372 1.448 . S
N2366 C2365 1.365 . S
N2366 C2369 1.319 . S
N2366 Eu2375 2.600 . S
C2367 C2369 1.397 . S
C2367 C2370 1.367 . S
C2367 H2387 0.931 . S
C2368 C2365 1.405 . S
C2368 C2370 1.403 . S
C2368 C2374 1.439 . S
C2369 N2366 1.319 . S
C2369 C2367 1.397 . S
C2369 H2380 0.930 . S
C2370 C2367 1.367 . S
C2370 C2368 1.403 . S
C2370 H2391 0.929 . S
C2371 C2372 1.430 . S
C2371 C2373 1.387 . S
C2371 C2377 1.404 . S
C2372 C2365 1.448 . S
C2372 C2371 1.430 . S
C2372 N2376 1.351 . S
C2373 C2371 1.387 . S
C2373 C2374 1.374 . S
C2373 H2388 0.931 . S
C2374 C2368 1.439 . S
C2374 C2373 1.374 . S
C2374 H2389 0.931 . S
Eu2375 N2366 2.600 . S
Eu2375 N2376 2.562 . S
Eu2375 O2410 2.335 . S
Eu2375 O2413 2.372 . S
Eu2375 O2414 2.462 . S
Eu2375 O2415 2.373 . S
Eu2375 O2417 2.432 . S
Eu2375 O2418 2.291 . S
Eu2375 C2439 2.787 . S
N2376 C2372 1.351 . S
N2376 Eu2375 2.562 . S
N2376 C2378 1.325 . S
C2377 C2371 1.404 . S
C2377 C2379 1.366 . S
C2377 H2385 0.930 . S
C2378 N2376 1.325 . S
C2378 C2379 1.416 . S
C2378 H2384 0.929 . S
C2379 C2377 1.366 . S
C2379 C2378 1.416 . S
C2379 H2381 0.930 . S
H2380 C2369 0.930 . S
H2381 C2379 0.930 . S
H2382 C2397 0.930 . S
H2383 C2404 0.930 . S
H2384 C2378 0.929 . S
H2385 C2377 0.930 . S
H2386 C2400 0.929 . S
H2387 C2367 0.931 . S
H2388 C2373 0.931 . S
H2389 C2374 0.931 . S
H2390 C2395 0.931 . S
H2391 C2370 0.929 . S
H2392 C2403 0.930 . S
N2393 Eu2364 2.600 . S
N2393 C2394 1.365 . S
N2393 C2397 1.319 . S
C2394 N2393 1.365 . S
C2394 C2396 1.405 . S
C2394 C2402 1.448 . S
C2395 H2390 0.931 . S
C2395 C2397 1.397 . S
C2395 C2398 1.367 . S
C2396 C2394 1.405 . S
C2396 C2398 1.403 . S
C2396 C2429 1.439 . S
C2397 H2382 0.930 . S
C2397 N2393 1.319 . S
C2397 C2395 1.397 . S
C2398 C2395 1.367 . S
C2398 C2396 1.403 . S
C2398 H2405 0.929 . S
N2399 Eu2364 2.562 . S
N2399 C2400 1.325 . S
N2399 C2402 1.351 . S
C2400 H2386 0.929 . S
C2400 N2399 1.325 . S
C2400 C2404 1.416 . S
C2401 C2402 1.430 . S
C2401 C2403 1.404 . S
C2401 C2430 1.387 . S
C2402 C2394 1.448 . S
C2402 N2399 1.351 . S
C2402 C2401 1.430 . S
C2403 H2392 0.930 . S
C2403 C2401 1.404 . S
C2403 C2404 1.366 . S
C2404 H2383 0.930 . S
C2404 C2400 1.416 . S
C2404 C2403 1.366 . S
H2405 C2398 0.929 . S
H2406 C2429 0.931 . S
H2407 C2430 0.931 . S
O2408 Eu2364 2.462 . S
O2408 C2428 1.252 . S
O2409 Eu2364 2.373 . S
O2409 C2420 1.249 . S
O2410 Eu2375 2.335 . S
O2410 C2420 1.264 . S
O2411 Eu2364 2.432 . S
O2411 C2428 1.268 . S
O2412 Eu2364 2.291 . S
O2412 C2427 1.255 . S
O2413 Eu2375 2.372 . S
O2413 C2427 1.257 . S
O2414 Eu2375 2.462 . S
O2414 C2439 1.252 . S
O2415 Eu2375 2.373 . S
O2415 C2431 1.249 . S
O2416 Eu2364 2.335 . S
O2416 C2431 1.264 . S
O2417 Eu2375 2.432 . S
O2417 C2439 1.268 . S
O2418 Eu2375 2.291 . S
O2418 C2438 1.255 . S
O2419 Eu2364 2.372 . S
O2419 C2438 1.257 . S
C2420 O2409 1.249 . S
C2420 O2410 1.264 . S
C2421 C2424 1.382 . S
C2421 C2426 1.390 . S
C2421 C2428 1.506 . S
C2422 C2423 1.398 . S
C2422 C2426 1.392 . S
C2423 C2422 1.398 . S
C2423 C2425 1.372 . S
C2423 H2440 0.931 . S
C2424 C2421 1.382 . S
C2424 C2425 1.390 . S
C2424 H2441 0.931 . S
C2425 C2423 1.372 . S
C2425 C2424 1.390 . S
C2425 H2442 0.929 . S
C2426 C2421 1.390 . S
C2426 C2422 1.392 . S
C2426 H2443 0.930 . S
C2427 O2412 1.255 . S
C2427 O2413 1.257 . S
C2428 Eu2364 2.787 . S
C2428 O2408 1.252 . S
C2428 O2411 1.268 . S
C2428 C2421 1.506 . S
C2429 C2396 1.439 . S
C2429 H2406 0.931 . S
C2429 C2430 1.374 . S
C2430 C2401 1.387 . S
C2430 H2407 0.931 . S
C2430 C2429 1.374 . S
C2431 O2415 1.249 . S
C2431 O2416 1.264 . S
C2432 C2435 1.382 . S
C2432 C2436 1.390 . S
C2432 C2439 1.506 . S
C2433 C2434 1.398 . S
C2433 C2436 1.392 . S
C2434 C2433 1.398 . S
C2434 C2437 1.372 . S
C2434 H2444 0.931 . S
C2435 C2432 1.382 . S
C2435 C2437 1.390 . S
C2435 H2445 0.931 . S
C2436 C2432 1.390 . S
C2436 C2433 1.392 . S
C2436 H2446 0.930 . S
C2437 C2434 1.372 . S
C2437 C2435 1.390 . S
C2437 H2447 0.929 . S
C2438 O2418 1.255 . S
C2438 O2419 1.257 . S
C2439 Eu2375 2.787 . S
C2439 O2414 1.252 . S
C2439 O2417 1.268 . S
C2439 C2432 1.506 . S
H2440 C2423 0.931 . S
H2441 C2424 0.931 . S
H2442 C2425 0.929 . S
H2443 C2426 0.930 . S
H2444 C2434 0.931 . S
H2445 C2435 0.931 . S
H2446 C2436 0.930 . S
H2447 C2437 0.929 . S
Eu2448 N2477 2.600 . S
Eu2448 N2483 2.562 . S
Eu2448 O2492 2.462 . S
Eu2448 O2493 2.373 1_565 S
Eu2448 O2495 2.432 . S
Eu2448 O2496 2.291 1_565 S
Eu2448 O2500 2.335 1_565 S
Eu2448 O2503 2.372 1_565 S
Eu2448 C2512 2.787 . S
C2449 N2450 1.365 1_455 S
C2449 C2452 1.405 1_455 S
C2449 C2456 1.448 . S
N2450 C2449 1.365 1_655 S
N2450 C2453 1.319 . S
N2450 Eu2459 2.600 1_655 S
C2451 C2453 1.397 . S
C2451 C2454 1.367 . S
C2451 H2471 0.931 . S
C2452 C2449 1.405 1_655 S
C2452 C2454 1.403 . S
C2452 C2458 1.439 1_655 S
C2453 N2450 1.319 . S
C2453 C2451 1.397 . S
C2453 H2464 0.930 . S
C2454 C2451 1.367 . S
C2454 C2452 1.403 . S
C2454 H2475 0.929 . S
C2455 C2456 1.430 . S
C2455 C2457 1.387 . S
C2455 C2461 1.404 . S
C2456 C2449 1.448 . S
C2456 C2455 1.430 . S
C2456 N2460 1.351 . S
C2457 C2455 1.387 . S
C2457 C2458 1.374 . S
C2457 H2472 0.931 . S
C2458 C2452 1.439 1_455 S
C2458 C2457 1.374 . S
C2458 H2473 0.931 1_455 S
Eu2459 N2450 2.600 1_455 S
Eu2459 N2460 2.562 . S
Eu2459 O2494 2.335 . S
Eu2459 O2497 2.372 1_455 S
Eu2459 O2498 2.462 . S
Eu2459 O2499 2.373 . S
Eu2459 O2501 2.432 1_455 S
Eu2459 O2502 2.291 . S
Eu2459 C2523 2.787 . S
N2460 C2456 1.351 . S
N2460 Eu2459 2.562 . S
N2460 C2462 1.325 . S
C2461 C2455 1.404 . S
C2461 C2463 1.366 . S
C2461 H2469 0.930 . S
C2462 N2460 1.325 . S
C2462 C2463 1.416 . S
C2462 H2468 0.929 . S
C2463 C2461 1.366 . S
C2463 C2462 1.416 . S
C2463 H2465 0.930 . S
H2464 C2453 0.930 . S
H2465 C2463 0.930 . S
H2466 C2481 0.930 1_545 S
H2467 C2488 0.930 . S
H2468 C2462 0.929 . S
H2469 C2461 0.930 . S
H2470 C2484 0.926 1_655 S
H2471 C2451 0.931 . S
H2472 C2457 0.931 . S
H2473 C2458 0.931 1_655 S
H2474 C2479 0.931 . S
H2475 C2454 0.929 . S
H2476 C2487 0.930 . S
N2477 Eu2448 2.600 . S
N2477 C2478 1.365 . S
N2477 C2481 1.319 . S
C2478 N2477 1.365 . S
C2478 C2480 1.405 . S
C2478 C2486 1.448 . S
C2479 H2474 0.931 . S
C2479 C2481 1.397 . S
C2479 C2482 1.367 . S
C2480 C2478 1.405 . S
C2480 C2482 1.403 . S
C2480 C2513 1.439 . S
C2481 H2466 0.930 1_565 S
C2481 N2477 1.319 . S
C2481 C2479 1.397 . S
C2482 C2479 1.367 . S
C2482 C2480 1.403 . S
C2482 H2489 0.929 . S
N2483 Eu2448 2.562 . S
N2483 C2484 1.330 . S
N2483 C2486 1.351 . S
C2484 H2470 0.926 1_455 S
C2484 N2483 1.330 . S
C2484 C2488 1.414 1_455 S
C2485 C2486 1.430 . S
C2485 C2487 1.404 1_455 S
C2485 C2514 1.387 . S
C2486 C2478 1.448 . S
C2486 N2483 1.351 . S
C2486 C2485 1.430 . S
C2487 H2476 0.930 . S
C2487 C2485 1.404 1_655 S
C2487 C2488 1.366 . S
C2488 H2467 0.930 . S
C2488 C2484 1.414 1_655 S
C2488 C2487 1.366 . S
H2489 C2482 0.929 . S
H2490 C2513 0.931 . S
H2491 C2514 0.931 . S
O2492 Eu2448 2.462 . S
O2492 C2512 1.252 . S
O2493 Eu2448 2.373 1_545 S
O2493 C2504 1.249 . S
O2494 Eu2459 2.335 . S
O2494 C2504 1.264 . S
O2495 Eu2448 2.432 . S
O2495 C2512 1.268 . S
O2496 Eu2448 2.291 1_545 S
O2496 C2511 1.255 1_455 S
O2497 Eu2459 2.372 1_655 S
O2497 C2511 1.257 . S
O2498 Eu2459 2.462 . S
O2498 C2523 1.252 . S
O2499 Eu2459 2.373 . S
O2499 C2515 1.249 . S
O2500 Eu2448 2.335 1_545 S
O2500 C2515 1.264 . S
O2501 Eu2459 2.432 1_655 S
O2501 C2523 1.268 1_655 S
O2502 Eu2459 2.291 . S
O2502 C2522 1.255 . S
O2503 Eu2448 2.372 1_545 S
O2503 C2522 1.257 . S
C2504 O2493 1.249 . S
C2504 O2494 1.264 . S
C2505 C2508 1.382 . S
C2505 C2510 1.390 . S
C2505 C2512 1.506 . S
C2506 C2507 1.398 . S
C2506 C2510 1.392 . S
C2507 C2506 1.398 . S
C2507 C2509 1.372 . S
C2507 H2524 0.931 . S
C2508 C2505 1.382 . S
C2508 C2509 1.390 . S
C2508 H2525 0.931 . S
C2509 C2507 1.372 . S
C2509 C2508 1.390 . S
C2509 H2526 0.929 . S
C2510 C2505 1.390 . S
C2510 C2506 1.392 . S
C2510 H2527 0.930 . S
C2511 O2496 1.255 1_655 S
C2511 O2497 1.257 . S
C2512 Eu2448 2.787 . S
C2512 O2492 1.252 . S
C2512 O2495 1.268 . S
C2512 C2505 1.506 . S
C2513 C2480 1.439 . S
C2513 H2490 0.931 . S
C2513 C2514 1.374 . S
C2514 C2485 1.387 . S
C2514 H2491 0.931 . S
C2514 C2513 1.374 . S
C2515 O2499 1.249 . S
C2515 O2500 1.264 . S
C2516 C2519 1.382 1_455 S
C2516 C2520 1.390 . S
C2516 C2523 1.506 . S
C2517 C2518 1.398 1_455 S
C2517 C2520 1.392 . S
C2518 C2517 1.398 1_655 S
C2518 C2521 1.372 . S
C2518 H2528 0.931 . S
C2519 C2516 1.382 1_655 S
C2519 C2521 1.390 . S
C2519 H2529 0.931 . S
C2520 C2516 1.390 . S
C2520 C2517 1.392 . S
C2520 H2530 0.930 . S
C2521 C2518 1.372 . S
C2521 C2519 1.390 . S
C2521 H2531 0.929 . S
C2522 O2502 1.255 . S
C2522 O2503 1.257 . S
C2523 Eu2459 2.787 . S
C2523 O2498 1.252 . S
C2523 O2501 1.268 1_455 S
C2523 C2516 1.506 . S
H2524 C2507 0.931 . S
H2525 C2508 0.931 . S
H2526 C2509 0.929 . S
H2527 C2510 0.930 . S
H2528 C2518 0.931 . S
H2529 C2519 0.931 . S
H2530 C2520 0.930 . S
H2531 C2521 0.929 . S
Eu2532 N2561 2.600 . S
Eu2532 N2567 2.562 . S
Eu2532 O2576 2.462 . S
Eu2532 O2577 2.373 . S
Eu2532 O2579 2.432 . S
Eu2532 O2580 2.291 . S
Eu2532 O2584 2.335 . S
Eu2532 O2587 2.372 . S
Eu2532 C2596 2.787 . S
C2533 N2534 1.365 . S
C2533 C2536 1.405 . S
C2533 C2540 1.448 . S
N2534 C2533 1.365 . S
N2534 C2537 1.319 . S
N2534 Eu2543 2.600 . S
C2535 C2537 1.397 . S
C2535 C2538 1.367 . S
C2535 H2555 0.931 . S
C2536 C2533 1.405 . S
C2536 C2538 1.403 . S
C2536 C2542 1.439 . S
C2537 N2534 1.319 . S
C2537 C2535 1.397 . S
C2537 H2548 0.930 . S
C2538 C2535 1.367 . S
C2538 C2536 1.403 . S
C2538 H2559 0.929 . S
C2539 C2540 1.430 . S
C2539 C2541 1.387 . S
C2539 C2545 1.404 . S
C2540 C2533 1.448 . S
C2540 C2539 1.430 . S
C2540 N2544 1.351 . S
C2541 C2539 1.387 . S
C2541 C2542 1.374 . S
C2541 H2556 0.931 . S
C2542 C2536 1.439 . S
C2542 C2541 1.374 . S
C2542 H2557 0.931 . S
Eu2543 N2534 2.600 . S
Eu2543 N2544 2.562 . S
Eu2543 O2578 2.335 . S
Eu2543 O2581 2.372 . S
Eu2543 O2582 2.462 . S
Eu2543 O2583 2.373 . S
Eu2543 O2585 2.432 . S
Eu2543 O2586 2.291 . S
Eu2543 C2607 2.787 . S
N2544 C2540 1.351 . S
N2544 Eu2543 2.562 . S
N2544 C2546 1.325 . S
C2545 C2539 1.404 . S
C2545 C2547 1.366 . S
C2545 H2553 0.930 . S
C2546 N2544 1.325 . S
C2546 C2547 1.416 . S
C2546 H2552 0.929 . S
C2547 C2545 1.366 . S
C2547 C2546 1.416 . S
C2547 H2549 0.930 . S
H2548 C2537 0.930 . S
H2549 C2547 0.930 . S
H2550 C2565 0.930 . S
H2551 C2572 0.930 . S
H2552 C2546 0.929 . S
H2553 C2545 0.930 . S
H2554 C2568 0.929 . S
H2555 C2535 0.931 . S
H2556 C2541 0.931 . S
H2557 C2542 0.931 . S
H2558 C2563 0.931 . S
H2559 C2538 0.929 . S
H2560 C2571 0.930 . S
N2561 Eu2532 2.600 . S
N2561 C2562 1.365 . S
N2561 C2565 1.319 . S
C2562 N2561 1.365 . S
C2562 C2564 1.405 . S
C2562 C2570 1.448 . S
C2563 H2558 0.931 . S
C2563 C2565 1.397 . S
C2563 C2566 1.367 . S
C2564 C2562 1.405 . S
C2564 C2566 1.403 . S
C2564 C2597 1.439 . S
C2565 H2550 0.930 . S
C2565 N2561 1.319 . S
C2565 C2563 1.397 . S
C2566 C2563 1.367 . S
C2566 C2564 1.403 . S
C2566 H2573 0.929 . S
N2567 Eu2532 2.562 . S
N2567 C2568 1.325 . S
N2567 C2570 1.351 . S
C2568 H2554 0.929 . S
C2568 N2567 1.325 . S
C2568 C2572 1.416 . S
C2569 C2570 1.430 . S
C2569 C2571 1.404 . S
C2569 C2598 1.387 . S
C2570 C2562 1.448 . S
C2570 N2567 1.351 . S
C2570 C2569 1.430 . S
C2571 H2560 0.930 . S
C2571 C2569 1.404 . S
C2571 C2572 1.366 . S
C2572 H2551 0.930 . S
C2572 C2568 1.416 . S
C2572 C2571 1.366 . S
H2573 C2566 0.929 . S
H2574 C2597 0.931 . S
H2575 C2598 0.931 . S
O2576 Eu2532 2.462 . S
O2576 C2596 1.252 . S
O2577 Eu2532 2.373 . S
O2577 C2588 1.249 . S
O2578 Eu2543 2.335 . S
O2578 C2588 1.264 . S
O2579 Eu2532 2.432 . S
O2579 C2596 1.268 . S
O2580 Eu2532 2.291 . S
O2580 C2595 1.255 . S
O2581 Eu2543 2.372 . S
O2581 C2595 1.257 . S
O2582 Eu2543 2.462 . S
O2582 C2607 1.252 . S
O2583 Eu2543 2.373 . S
O2583 C2599 1.249 . S
O2584 Eu2532 2.335 . S
O2584 C2599 1.264 . S
O2585 Eu2543 2.432 . S
O2585 C2607 1.268 . S
O2586 Eu2543 2.291 . S
O2586 C2606 1.255 . S
O2587 Eu2532 2.372 . S
O2587 C2606 1.257 . S
C2588 O2577 1.249 . S
C2588 O2578 1.264 . S
C2589 C2592 1.382 . S
C2589 C2594 1.390 . S
C2589 C2596 1.506 . S
C2590 C2591 1.398 . S
C2590 C2594 1.392 . S
C2591 C2590 1.398 . S
C2591 C2593 1.372 . S
C2591 H2608 0.931 . S
C2592 C2589 1.382 . S
C2592 C2593 1.390 . S
C2592 H2609 0.931 . S
C2593 C2591 1.372 . S
C2593 C2592 1.390 . S
C2593 H2610 0.929 . S
C2594 C2589 1.390 . S
C2594 C2590 1.392 . S
C2594 H2611 0.930 . S
C2595 O2580 1.255 . S
C2595 O2581 1.257 . S
C2596 Eu2532 2.787 . S
C2596 O2576 1.252 . S
C2596 O2579 1.268 . S
C2596 C2589 1.506 . S
C2597 C2564 1.439 . S
C2597 H2574 0.931 . S
C2597 C2598 1.374 . S
C2598 C2569 1.387 . S
C2598 H2575 0.931 . S
C2598 C2597 1.374 . S
C2599 O2583 1.249 . S
C2599 O2584 1.264 . S
C2600 C2603 1.382 . S
C2600 C2604 1.390 . S
C2600 C2607 1.506 . S
C2601 C2602 1.398 . S
C2601 C2604 1.392 . S
C2602 C2601 1.398 . S
C2602 C2605 1.372 . S
C2602 H2612 0.931 . S
C2603 C2600 1.382 . S
C2603 C2605 1.390 . S
C2603 H2613 0.931 . S
C2604 C2600 1.390 . S
C2604 C2601 1.392 . S
C2604 H2614 0.930 . S
C2605 C2602 1.372 . S
C2605 C2603 1.390 . S
C2605 H2615 0.929 . S
C2606 O2586 1.255 . S
C2606 O2587 1.257 . S
C2607 Eu2543 2.787 . S
C2607 O2582 1.252 . S
C2607 O2585 1.268 . S
C2607 C2600 1.506 . S
H2608 C2591 0.931 . S
H2609 C2592 0.931 . S
H2610 C2593 0.929 . S
H2611 C2594 0.930 . S
H2612 C2602 0.931 . S
H2613 C2603 0.931 . S
H2614 C2604 0.930 . S
H2615 C2605 0.929 . S
Eu2616 N2645 2.600 . S
Eu2616 N2651 2.562 . S
Eu2616 O2660 2.462 . S
Eu2616 O2661 2.373 1_556 S
Eu2616 O2663 2.432 . S
Eu2616 O2664 2.294 . S
Eu2616 O2668 2.335 1_556 S
Eu2616 O2671 2.372 1_556 S
Eu2616 C2680 2.787 . S
C2617 N2618 1.365 . S
C2617 C2620 1.405 . S
C2617 C2624 1.448 1_565 S
N2618 C2617 1.365 . S
N2618 C2621 1.319 . S
N2618 Eu2627 2.600 1_565 S
C2619 C2621 1.397 . S
C2619 C2622 1.367 . S
C2619 H2639 0.931 . S
C2620 C2617 1.405 . S
C2620 C2622 1.403 . S
C2620 C2626 1.439 . S
C2621 N2618 1.319 . S
C2621 C2619 1.397 . S
C2621 H2632 0.930 . S
C2622 C2619 1.367 . S
C2622 C2620 1.403 . S
C2622 H2643 0.929 . S
C2623 C2624 1.430 . S
C2623 C2625 1.387 . S
C2623 C2629 1.404 . S
C2624 C2617 1.448 1_545 S
C2624 C2623 1.430 . S
C2624 N2628 1.351 . S
C2625 C2623 1.387 . S
C2625 C2626 1.374 1_545 S
C2625 H2640 0.931 . S
C2626 C2620 1.439 . S
C2626 C2625 1.374 1_565 S
C2626 H2641 0.931 . S
Eu2627 N2618 2.600 1_545 S
Eu2627 N2628 2.562 . S
Eu2627 O2662 2.335 . S
Eu2627 O2665 2.372 1_545 S
Eu2627 O2666 2.462 . S
Eu2627 O2667 2.373 . S
Eu2627 O2669 2.432 1_545 S
Eu2627 O2670 2.291 . S
Eu2627 C2691 2.786 . S
N2628 C2624 1.351 . S
N2628 Eu2627 2.562 . S
N2628 C2630 1.325 . S
C2629 C2623 1.404 . S
C2629 C2631 1.366 . S
C2629 H2637 0.930 . S
C2630 N2628 1.325 . S
C2630 C2631 1.416 . S
C2630 H2636 0.929 . S
C2631 C2629 1.366 . S
C2631 C2630 1.416 . S
C2631 H2633 0.930 . S
H2632 C2621 0.930 . S
H2633 C2631 0.930 . S
H2634 C2649 0.930 1_554 S
H2635 C2656 0.930 . S
H2636 C2630 0.929 . S
H2637 C2629 0.930 . S
H2638 C2652 0.929 1_565 S
H2639 C2619 0.931 . S
H2640 C2625 0.931 . S
H2641 C2626 0.931 . S
H2642 C2647 0.931 . S
H2643 C2622 0.929 . S
H2644 C2655 0.930 1_565 S
N2645 Eu2616 2.600 . S
N2645 C2646 1.365 . S
N2645 C2649 1.319 . S
C2646 N2645 1.365 . S
C2646 C2648 1.405 . S
C2646 C2654 1.448 . S
C2647 H2642 0.931 . S
C2647 C2649 1.397 . S
C2647 C2650 1.367 . S
C2648 C2646 1.405 . S
C2648 C2650 1.403 . S
C2648 C2681 1.439 . S
C2649 H2634 0.930 1_556 S
C2649 N2645 1.319 . S
C2649 C2647 1.397 . S
C2650 C2647 1.367 . S
C2650 C2648 1.403 . S
C2650 H2657 0.929 . S
N2651 Eu2616 2.562 . S
N2651 C2652 1.325 . S
N2651 C2654 1.351 . S
C2652 H2638 0.929 1_545 S
C2652 N2651 1.325 . S
C2652 C2656 1.416 1_545 S
C2653 C2654 1.430 . S
C2653 C2655 1.404 . S
C2653 C2682 1.387 . S
C2654 C2646 1.448 . S
C2654 N2651 1.351 . S
C2654 C2653 1.430 . S
C2655 H2644 0.930 1_545 S
C2655 C2653 1.404 . S
C2655 C2656 1.366 1_545 S
C2656 H2635 0.930 . S
C2656 C2652 1.416 1_565 S
C2656 C2655 1.366 1_565 S
H2657 C2650 0.929 . S
H2658 C2681 0.931 . S
H2659 C2682 0.931 . S
O2660 Eu2616 2.462 . S
O2660 C2680 1.252 . S
O2661 Eu2616 2.373 1_554 S
O2661 C2672 1.249 . S
O2662 Eu2627 2.335 . S
O2662 C2672 1.264 . S
O2663 Eu2616 2.432 . S
O2663 C2680 1.268 . S
O2664 Eu2616 2.294 . S
O2664 C2679 1.249 1_546 S
O2665 Eu2627 2.372 1_565 S
O2665 C2679 1.257 . S
O2666 Eu2627 2.462 . S
O2666 C2691 1.251 . S
O2667 Eu2627 2.373 . S
O2667 C2683 1.249 . S
O2668 Eu2616 2.335 1_554 S
O2668 C2683 1.264 . S
O2669 Eu2627 2.432 1_565 S
O2669 C2691 1.269 1_565 S
O2670 Eu2627 2.291 . S
O2670 C2690 1.255 . S
O2671 Eu2616 2.372 1_554 S
O2671 C2690 1.257 . S
C2672 O2661 1.249 . S
C2672 O2662 1.264 . S
C2673 C2676 1.382 . S
C2673 C2678 1.390 . S
C2673 C2680 1.506 . S
C2674 C2675 1.398 . S
C2674 C2678 1.392 . S
C2675 C2674 1.398 . S
C2675 C2677 1.372 . S
C2675 H2692 0.931 . S
C2676 C2673 1.382 . S
C2676 C2677 1.390 . S
C2676 H2693 0.931 . S
C2677 C2675 1.372 . S
C2677 C2676 1.390 . S
C2677 H2694 0.929 . S
C2678 C2673 1.390 . S
C2678 C2674 1.392 . S
C2678 H2695 0.930 . S
C2679 O2664 1.249 1_564 S
C2679 O2665 1.257 . S
C2680 Eu2616 2.787 . S
C2680 O2660 1.252 . S
C2680 O2663 1.268 . S
C2680 C2673 1.506 . S
C2681 C2648 1.439 . S
C2681 H2658 0.931 . S
C2681 C2682 1.374 . S
C2682 C2653 1.387 . S
C2682 H2659 0.931 . S
C2682 C2681 1.374 . S
C2683 O2667 1.249 . S
C2683 O2668 1.264 . S
C2684 C2687 1.382 . S
C2684 C2688 1.390 1_565 S
C2684 C2691 1.507 1_565 S
C2685 C2686 1.398 1_545 S
C2685 C2688 1.392 . S
C2686 C2685 1.398 1_565 S
C2686 C2689 1.372 . S
C2686 H2696 0.931 . S
C2687 C2684 1.382 . S
C2687 C2689 1.390 . S
C2687 H2697 0.931 . S
C2688 C2684 1.390 1_545 S
C2688 C2685 1.392 . S
C2688 H2698 0.930 . S
C2689 C2686 1.372 . S
C2689 C2687 1.390 . S
C2689 H2699 0.929 . S
C2690 O2670 1.255 . S
C2690 O2671 1.257 . S
C2691 Eu2627 2.786 . S
C2691 O2666 1.251 . S
C2691 O2669 1.269 1_545 S
C2691 C2684 1.507 1_545 S
H2692 C2675 0.931 . S
H2693 C2676 0.931 . S
H2694 C2677 0.929 . S
H2695 C2678 0.930 . S
H2696 C2686 0.931 . S
H2697 C2687 0.931 . S
H2698 C2688 0.930 . S
H2699 C2689 0.929 . S
Eu2700 N2729 2.600 . S
Eu2700 N2735 2.562 . S
Eu2700 O2744 2.462 . S
Eu2700 O2745 2.373 . S
Eu2700 O2747 2.432 . S
Eu2700 O2748 2.291 . S
Eu2700 O2752 2.335 . S
Eu2700 O2755 2.372 . S
Eu2700 C2764 2.787 . S
C2701 N2702 1.365 . S
C2701 C2704 1.405 . S
C2701 C2708 1.448 . S
N2702 C2701 1.365 . S
N2702 C2705 1.319 . S
N2702 Eu2711 2.600 . S
C2703 C2705 1.397 . S
C2703 C2706 1.367 . S
C2703 H2723 0.931 . S
C2704 C2701 1.405 . S
C2704 C2706 1.403 . S
C2704 C2710 1.439 . S
C2705 N2702 1.319 . S
C2705 C2703 1.397 . S
C2705 H2716 0.930 . S
C2706 C2703 1.367 . S
C2706 C2704 1.403 . S
C2706 H2727 0.929 . S
C2707 C2708 1.430 . S
C2707 C2709 1.387 . S
C2707 C2713 1.404 . S
C2708 C2701 1.448 . S
C2708 C2707 1.430 . S
C2708 N2712 1.351 . S
C2709 C2707 1.387 . S
C2709 C2710 1.374 . S
C2709 H2724 0.931 . S
C2710 C2704 1.439 . S
C2710 C2709 1.374 . S
C2710 H2725 0.931 . S
Eu2711 N2702 2.600 . S
Eu2711 N2712 2.562 . S
Eu2711 O2746 2.335 . S
Eu2711 O2749 2.372 . S
Eu2711 O2750 2.462 . S
Eu2711 O2751 2.373 . S
Eu2711 O2753 2.432 . S
Eu2711 O2754 2.291 . S
Eu2711 C2775 2.787 . S
N2712 C2708 1.351 . S
N2712 Eu2711 2.562 . S
N2712 C2714 1.325 . S
C2713 C2707 1.404 . S
C2713 C2715 1.366 . S
C2713 H2721 0.930 . S
C2714 N2712 1.325 . S
C2714 C2715 1.416 . S
C2714 H2720 0.929 . S
C2715 C2713 1.366 . S
C2715 C2714 1.416 . S
C2715 H2717 0.930 . S
H2716 C2705 0.930 . S
H2717 C2715 0.930 . S
H2718 C2733 0.930 . S
H2719 C2740 0.930 . S
H2720 C2714 0.929 . S
H2721 C2713 0.930 . S
H2722 C2736 0.929 . S
H2723 C2703 0.931 . S
H2724 C2709 0.931 . S
H2725 C2710 0.931 . S
H2726 C2731 0.931 . S
H2727 C2706 0.929 . S
H2728 C2739 0.930 . S
N2729 Eu2700 2.600 . S
N2729 C2730 1.365 . S
N2729 C2733 1.319 . S
C2730 N2729 1.365 . S
C2730 C2732 1.405 . S
C2730 C2738 1.448 . S
C2731 H2726 0.931 . S
C2731 C2733 1.397 . S
C2731 C2734 1.367 . S
C2732 C2730 1.405 . S
C2732 C2734 1.403 . S
C2732 C2765 1.439 . S
C2733 H2718 0.930 . S
C2733 N2729 1.319 . S
C2733 C2731 1.397 . S
C2734 C2731 1.367 . S
C2734 C2732 1.403 . S
C2734 H2741 0.929 . S
N2735 Eu2700 2.562 . S
N2735 C2736 1.325 . S
N2735 C2738 1.351 . S
C2736 H2722 0.929 . S
C2736 N2735 1.325 . S
C2736 C2740 1.416 . S
C2737 C2738 1.430 . S
C2737 C2739 1.404 . S
C2737 C2766 1.387 . S
C2738 C2730 1.448 . S
C2738 N2735 1.351 . S
C2738 C2737 1.430 . S
C2739 H2728 0.930 . S
C2739 C2737 1.404 . S
C2739 C2740 1.366 . S
C2740 H2719 0.930 . S
C2740 C2736 1.416 . S
C2740 C2739 1.366 . S
H2741 C2734 0.929 . S
H2742 C2765 0.931 . S
H2743 C2766 0.931 . S
O2744 Eu2700 2.462 . S
O2744 C2764 1.252 . S
O2745 Eu2700 2.373 . S
O2745 C2756 1.249 . S
O2746 Eu2711 2.335 . S
O2746 C2756 1.264 . S
O2747 Eu2700 2.432 . S
O2747 C2764 1.268 . S
O2748 Eu2700 2.291 . S
O2748 C2763 1.255 . S
O2749 Eu2711 2.372 . S
O2749 C2763 1.257 . S
O2750 Eu2711 2.462 . S
O2750 C2775 1.252 . S
O2751 Eu2711 2.373 . S
O2751 C2767 1.249 . S
O2752 Eu2700 2.335 . S
O2752 C2767 1.264 . S
O2753 Eu2711 2.432 . S
O2753 C2775 1.268 . S
O2754 Eu2711 2.291 . S
O2754 C2774 1.255 . S
O2755 Eu2700 2.372 . S
O2755 C2774 1.257 . S
C2756 O2745 1.249 . S
C2756 O2746 1.264 . S
C2757 C2760 1.382 . S
C2757 C2762 1.390 . S
C2757 C2764 1.506 . S
C2758 C2759 1.398 . S
C2758 C2762 1.392 . S
C2759 C2758 1.398 . S
C2759 C2761 1.372 . S
C2759 H2776 0.931 . S
C2760 C2757 1.382 . S
C2760 C2761 1.390 . S
C2760 H2777 0.931 . S
C2761 C2759 1.372 . S
C2761 C2760 1.390 . S
C2761 H2778 0.929 . S
C2762 C2757 1.390 . S
C2762 C2758 1.392 . S
C2762 H2779 0.930 . S
C2763 O2748 1.255 . S
C2763 O2749 1.257 . S
C2764 Eu2700 2.787 . S
C2764 O2744 1.252 . S
C2764 O2747 1.268 . S
C2764 C2757 1.506 . S
C2765 C2732 1.439 . S
C2765 H2742 0.931 . S
C2765 C2766 1.374 . S
C2766 C2737 1.387 . S
C2766 H2743 0.931 . S
C2766 C2765 1.374 . S
C2767 O2751 1.249 . S
C2767 O2752 1.264 . S
C2768 C2771 1.382 . S
C2768 C2772 1.390 . S
C2768 C2775 1.506 . S
C2769 C2770 1.398 . S
C2769 C2772 1.392 . S
C2770 C2769 1.398 . S
C2770 C2773 1.372 . S
C2770 H2780 0.931 . S
C2771 C2768 1.382 . S
C2771 C2773 1.390 . S
C2771 H2781 0.931 . S
C2772 C2768 1.390 . S
C2772 C2769 1.392 . S
C2772 H2782 0.930 . S
C2773 C2770 1.372 . S
C2773 C2771 1.390 . S
C2773 H2783 0.929 . S
C2774 O2754 1.255 . S
C2774 O2755 1.257 . S
C2775 Eu2711 2.787 . S
C2775 O2750 1.252 . S
C2775 O2753 1.268 . S
C2775 C2768 1.506 . S
H2776 C2759 0.931 . S
H2777 C2760 0.931 . S
H2778 C2761 0.929 . S
H2779 C2762 0.930 . S
H2780 C2770 0.931 . S
H2781 C2771 0.931 . S
H2782 C2772 0.930 . S
H2783 C2773 0.929 . S
Eu2784 N2813 2.600 1_554 S
Eu2784 N2819 2.562 1_554 S
Eu2784 O2828 2.462 . S
Eu2784 O2829 2.373 1_554 S
Eu2784 O2831 2.432 . S
Eu2784 O2832 2.291 . S
Eu2784 O2836 2.335 . S
Eu2784 O2839 2.372 . S
Eu2784 C2848 2.787 . S
C2785 N2786 1.365 . S
C2785 C2788 1.405 . S
C2785 C2792 1.448 . S
N2786 C2785 1.365 . S
N2786 C2789 1.319 . S
N2786 Eu2795 2.600 . S
C2787 C2789 1.397 . S
C2787 C2790 1.367 . S
C2787 H2807 0.931 . S
C2788 C2785 1.405 . S
C2788 C2790 1.403 . S
C2788 C2794 1.439 . S
C2789 N2786 1.319 . S
C2789 C2787 1.397 . S
C2789 H2800 0.930 . S
C2790 C2787 1.367 . S
C2790 C2788 1.403 . S
C2790 H2811 0.929 . S
C2791 C2792 1.430 . S
C2791 C2793 1.387 . S
C2791 C2797 1.404 . S
C2792 C2785 1.448 . S
C2792 C2791 1.430 . S
C2792 N2796 1.351 . S
C2793 C2791 1.387 . S
C2793 C2794 1.374 . S
C2793 H2808 0.931 . S
C2794 C2788 1.439 . S
C2794 C2793 1.374 . S
C2794 H2809 0.931 . S
Eu2795 N2786 2.600 . S
Eu2795 N2796 2.562 . S
Eu2795 O2830 2.335 1_554 S
Eu2795 O2833 2.372 . S
Eu2795 O2834 2.462 . S
Eu2795 O2835 2.373 . S
Eu2795 O2837 2.432 . S
Eu2795 O2838 2.291 . S
Eu2795 C2859 2.787 . S
N2796 C2792 1.351 . S
N2796 Eu2795 2.562 . S
N2796 C2798 1.325 . S
C2797 C2791 1.404 . S
C2797 C2799 1.366 . S
C2797 H2805 0.930 . S
C2798 N2796 1.325 . S
C2798 C2799 1.416 . S
C2798 H2804 0.929 . S
C2799 C2797 1.366 . S
C2799 C2798 1.416 . S
C2799 H2801 0.930 . S
H2800 C2789 0.930 . S
H2801 C2799 0.930 . S
H2802 C2817 0.930 1_554 S
H2803 C2824 0.930 . S
H2804 C2798 0.929 . S
H2805 C2797 0.930 . S
H2806 C2820 0.929 1_554 S
H2807 C2787 0.931 . S
H2808 C2793 0.931 . S
H2809 C2794 0.931 . S
H2810 C2815 0.931 . S
H2811 C2790 0.929 . S
H2812 C2823 0.930 . S
N2813 Eu2784 2.600 1_556 S
N2813 C2814 1.365 . S
N2813 C2817 1.319 . S
C2814 N2813 1.365 . S
C2814 C2816 1.405 . S
C2814 C2822 1.448 . S
C2815 H2810 0.931 . S
C2815 C2817 1.397 . S
C2815 C2818 1.367 . S
C2816 C2814 1.405 . S
C2816 C2818 1.403 . S
C2816 C2849 1.439 . S
C2817 H2802 0.930 1_556 S
C2817 N2813 1.319 . S
C2817 C2815 1.397 . S
C2818 C2815 1.367 . S
C2818 C2816 1.403 . S
C2818 H2825 0.929 . S
N2819 Eu2784 2.562 1_556 S
N2819 C2820 1.325 . S
N2819 C2822 1.351 . S
C2820 H2806 0.929 1_556 S
C2820 N2819 1.325 . S
C2820 C2824 1.416 . S
C2821 C2822 1.430 . S
C2821 C2823 1.404 . S
C2821 C2850 1.387 . S
C2822 C2814 1.448 . S
C2822 N2819 1.351 . S
C2822 C2821 1.430 . S
C2823 H2812 0.930 . S
C2823 C2821 1.404 . S
C2823 C2824 1.366 . S
C2824 H2803 0.930 . S
C2824 C2820 1.416 . S
C2824 C2823 1.366 . S
H2825 C2818 0.929 . S
H2826 C2849 0.931 . S
H2827 C2850 0.931 . S
O2828 Eu2784 2.462 . S
O2828 C2848 1.252 . S
O2829 Eu2784 2.373 1_556 S
O2829 C2840 1.249 . S
O2830 Eu2795 2.335 1_556 S
O2830 C2840 1.264 . S
O2831 Eu2784 2.432 . S
O2831 C2848 1.268 . S
O2832 Eu2784 2.291 . S
O2832 C2847 1.255 . S
O2833 Eu2795 2.372 . S
O2833 C2847 1.257 . S
O2834 Eu2795 2.462 . S
O2834 C2859 1.252 . S
O2835 Eu2795 2.373 . S
O2835 C2851 1.249 . S
O2836 Eu2784 2.335 . S
O2836 C2851 1.264 . S
O2837 Eu2795 2.432 . S
O2837 C2859 1.268 . S
O2838 Eu2795 2.291 . S
O2838 C2858 1.255 . S
O2839 Eu2784 2.372 . S
O2839 C2858 1.257 . S
C2840 O2829 1.249 . S
C2840 O2830 1.264 . S
C2841 C2844 1.382 . S
C2841 C2846 1.390 . S
C2841 C2848 1.506 . S
C2842 C2843 1.398 . S
C2842 C2846 1.392 . S
C2843 C2842 1.398 . S
C2843 C2845 1.372 . S
C2843 H2860 0.931 . S
C2844 C2841 1.382 . S
C2844 C2845 1.390 . S
C2844 H2861 0.931 . S
C2845 C2843 1.372 . S
C2845 C2844 1.390 . S
C2845 H2862 0.929 . S
C2846 C2841 1.390 . S
C2846 C2842 1.392 . S
C2846 H2863 0.930 . S
C2847 O2832 1.255 . S
C2847 O2833 1.257 . S
C2848 Eu2784 2.787 . S
C2848 O2828 1.252 . S
C2848 O2831 1.268 . S
C2848 C2841 1.506 . S
C2849 C2816 1.439 . S
C2849 H2826 0.931 . S
C2849 C2850 1.374 . S
C2850 C2821 1.387 . S
C2850 H2827 0.931 . S
C2850 C2849 1.374 . S
C2851 O2835 1.249 . S
C2851 O2836 1.264 . S
C2852 C2855 1.382 . S
C2852 C2856 1.390 . S
C2852 C2859 1.506 1_556 S
C2853 C2854 1.398 . S
C2853 C2856 1.392 . S
C2854 C2853 1.398 . S
C2854 C2857 1.372 . S
C2854 H2864 0.931 . S
C2855 C2852 1.382 . S
C2855 C2857 1.390 . S
C2855 H2865 0.956 . S
C2856 C2852 1.390 . S
C2856 C2853 1.392 . S
C2856 H2866 0.930 . S
C2857 C2854 1.372 . S
C2857 C2855 1.390 . S
C2857 H2867 0.929 . S
C2858 O2838 1.255 . S
C2858 O2839 1.257 . S
C2859 Eu2795 2.787 . S
C2859 O2834 1.252 . S
C2859 O2837 1.268 . S
C2859 C2852 1.506 1_554 S
H2860 C2843 0.931 . S
H2861 C2844 0.931 . S
H2862 C2845 0.929 . S
H2863 C2846 0.930 . S
H2864 C2854 0.931 . S
H2865 C2855 0.956 . S
H2866 C2856 0.930 . S
H2867 C2857 0.929 . S
Eu2868 N2897 2.600 . S
Eu2868 N2903 2.562 . S
Eu2868 O2912 2.462 . S
Eu2868 O2913 2.373 . S
Eu2868 O2915 2.432 . S
Eu2868 O2916 2.291 . S
Eu2868 O2920 2.335 . S
Eu2868 O2923 2.372 . S
Eu2868 C2932 2.787 . S
C2869 N2870 1.365 . S
C2869 C2872 1.405 . S
C2869 C2876 1.448 . S
N2870 C2869 1.365 . S
N2870 C2873 1.319 . S
N2870 Eu2879 2.600 . S
C2871 C2873 1.397 . S
C2871 C2874 1.367 . S
C2871 H2891 0.931 . S
C2872 C2869 1.405 . S
C2872 C2874 1.403 . S
C2872 C2878 1.439 . S
C2873 N2870 1.319 . S
C2873 C2871 1.397 . S
C2873 H2884 0.930 . S
C2874 C2871 1.367 . S
C2874 C2872 1.403 . S
C2874 H2895 0.929 . S
C2875 C2876 1.430 . S
C2875 C2877 1.387 . S
C2875 C2881 1.404 . S
C2876 C2869 1.448 . S
C2876 C2875 1.430 . S
C2876 N2880 1.351 . S
C2877 C2875 1.387 . S
C2877 C2878 1.374 . S
C2877 H2892 0.931 . S
C2878 C2872 1.439 . S
C2878 C2877 1.374 . S
C2878 H2893 0.931 . S
Eu2879 N2870 2.600 . S
Eu2879 N2880 2.562 . S
Eu2879 O2914 2.335 . S
Eu2879 O2917 2.372 . S
Eu2879 O2918 2.462 . S
Eu2879 O2919 2.373 . S
Eu2879 O2921 2.432 . S
Eu2879 O2922 2.291 . S
Eu2879 C2943 2.787 . S
N2880 C2876 1.351 . S
N2880 Eu2879 2.562 . S
N2880 C2882 1.325 . S
C2881 C2875 1.404 . S
C2881 C2883 1.366 . S
C2881 H2889 0.930 . S
C2882 N2880 1.325 . S
C2882 C2883 1.416 . S
C2882 H2888 0.929 . S
C2883 C2881 1.366 . S
C2883 C2882 1.416 . S
C2883 H2885 0.930 . S
H2884 C2873 0.930 . S
H2885 C2883 0.930 . S
H2886 C2901 0.930 . S
H2887 C2908 0.930 . S
H2888 C2882 0.929 . S
H2889 C2881 0.930 . S
H2890 C2904 0.929 . S
H2891 C2871 0.931 . S
H2892 C2877 0.931 . S
H2893 C2878 0.931 . S
H2894 C2899 0.931 . S
H2895 C2874 0.929 . S
H2896 C2907 0.930 . S
N2897 Eu2868 2.600 . S
N2897 C2898 1.365 . S
N2897 C2901 1.319 . S
C2898 N2897 1.365 . S
C2898 C2900 1.405 . S
C2898 C2906 1.448 . S
C2899 H2894 0.931 . S
C2899 C2901 1.397 . S
C2899 C2902 1.367 . S
C2900 C2898 1.405 . S
C2900 C2902 1.403 . S
C2900 C2933 1.439 . S
C2901 H2886 0.930 . S
C2901 N2897 1.319 . S
C2901 C2899 1.397 . S
C2902 C2899 1.367 . S
C2902 C2900 1.403 . S
C2902 H2909 0.929 . S
N2903 Eu2868 2.562 . S
N2903 C2904 1.325 . S
N2903 C2906 1.351 . S
C2904 H2890 0.929 . S
C2904 N2903 1.325 . S
C2904 C2908 1.416 . S
C2905 C2906 1.430 . S
C2905 C2907 1.404 . S
C2905 C2934 1.387 . S
C2906 C2898 1.448 . S
C2906 N2903 1.351 . S
C2906 C2905 1.430 . S
C2907 H2896 0.930 . S
C2907 C2905 1.404 . S
C2907 C2908 1.366 . S
C2908 H2887 0.930 . S
C2908 C2904 1.416 . S
C2908 C2907 1.366 . S
H2909 C2902 0.929 . S
H2910 C2933 0.931 . S
H2911 C2934 0.931 . S
O2912 Eu2868 2.462 . S
O2912 C2932 1.252 . S
O2913 Eu2868 2.373 . S
O2913 C2924 1.249 . S
O2914 Eu2879 2.335 . S
O2914 C2924 1.264 . S
O2915 Eu2868 2.432 . S
O2915 C2932 1.268 . S
O2916 Eu2868 2.291 . S
O2916 C2931 1.255 . S
O2917 Eu2879 2.372 . S
O2917 C2931 1.257 . S
O2918 Eu2879 2.462 . S
O2918 C2943 1.252 . S
O2919 Eu2879 2.373 . S
O2919 C2935 1.249 . S
O2920 Eu2868 2.335 . S
O2920 C2935 1.264 . S
O2921 Eu2879 2.432 . S
O2921 C2943 1.268 . S
O2922 Eu2879 2.291 . S
O2922 C2942 1.255 . S
O2923 Eu2868 2.372 . S
O2923 C2942 1.257 . S
C2924 O2913 1.249 . S
C2924 O2914 1.264 . S
C2925 C2928 1.382 . S
C2925 C2930 1.390 . S
C2925 C2932 1.506 . S
C2926 C2927 1.398 . S
C2926 C2930 1.392 . S
C2927 C2926 1.398 . S
C2927 C2929 1.372 . S
C2927 H2944 0.931 . S
C2928 C2925 1.382 . S
C2928 C2929 1.390 . S
C2928 H2945 0.931 . S
C2929 C2927 1.372 . S
C2929 C2928 1.390 . S
C2929 H2946 0.929 . S
C2930 C2925 1.390 . S
C2930 C2926 1.392 . S
C2930 H2947 0.930 . S
C2931 O2916 1.255 . S
C2931 O2917 1.257 . S
C2932 Eu2868 2.787 . S
C2932 O2912 1.252 . S
C2932 O2915 1.268 . S
C2932 C2925 1.506 . S
C2933 C2900 1.439 . S
C2933 H2910 0.931 . S
C2933 C2934 1.374 . S
C2934 C2905 1.387 . S
C2934 H2911 0.931 . S
C2934 C2933 1.374 . S
C2935 O2919 1.249 . S
C2935 O2920 1.264 . S
C2936 C2939 1.382 . S
C2936 C2940 1.390 . S
C2936 C2943 1.506 . S
C2937 C2938 1.398 . S
C2937 C2940 1.392 . S
C2938 C2937 1.398 . S
C2938 C2941 1.372 . S
C2938 H2948 0.931 . S
C2939 C2936 1.382 . S
C2939 C2941 1.390 . S
C2939 H2949 0.931 . S
C2940 C2936 1.390 . S
C2940 C2937 1.392 . S
C2940 H2950 0.930 . S
C2941 C2938 1.372 . S
C2941 C2939 1.390 . S
C2941 H2951 0.929 . S
C2942 O2922 1.255 . S
C2942 O2923 1.257 . S
C2943 Eu2879 2.787 . S
C2943 O2918 1.252 . S
C2943 O2921 1.268 . S
C2943 C2936 1.506 . S
H2944 C2927 0.931 . S
H2945 C2928 0.931 . S
H2946 C2929 0.929 . S
H2947 C2930 0.930 . S
H2948 C2938 0.931 . S
H2949 C2939 0.931 . S
H2950 C2940 0.930 . S
H2951 C2941 0.929 . S
Eu2952 N2981 2.600 1_455 S
Eu2952 N2987 2.562 1_455 S
Eu2952 O2996 2.462 . S
Eu2952 O2997 2.373 1_455 S
Eu2952 O2999 2.432 . S
Eu2952 O3000 2.291 . S
Eu2952 O3004 2.335 . S
Eu2952 O3007 2.372 . S
Eu2952 C3016 2.787 . S
C2953 N2954 1.365 . S
C2953 C2956 1.405 . S
C2953 C2960 1.448 . S
N2954 C2953 1.365 . S
N2954 C2957 1.319 . S
N2954 Eu2963 2.600 . S
C2955 C2957 1.397 . S
C2955 C2958 1.367 . S
C2955 H2975 0.931 . S
C2956 C2953 1.405 . S
C2956 C2958 1.403 . S
C2956 C2962 1.439 . S
C2957 N2954 1.319 . S
C2957 C2955 1.397 . S
C2957 H2968 0.930 . S
C2958 C2955 1.367 . S
C2958 C2956 1.403 . S
C2958 H2979 0.929 . S
C2959 C2960 1.430 . S
C2959 C2961 1.387 . S
C2959 C2965 1.404 . S
C2960 C2953 1.448 . S
C2960 C2959 1.430 . S
C2960 N2964 1.351 . S
C2961 C2959 1.387 . S
C2961 C2962 1.374 . S
C2961 H2976 0.931 . S
C2962 C2956 1.439 . S
C2962 C2961 1.374 . S
C2962 H2977 0.931 . S
Eu2963 N2954 2.600 . S
Eu2963 N2964 2.562 . S
Eu2963 O2998 2.335 1_455 S
Eu2963 O3001 2.372 . S
Eu2963 O3002 2.462 . S
Eu2963 O3003 2.373 . S
Eu2963 O3005 2.432 . S
Eu2963 O3006 2.291 . S
Eu2963 C3027 2.787 . S
N2964 C2960 1.351 . S
N2964 Eu2963 2.562 . S
N2964 C2966 1.325 . S
C2965 C2959 1.404 . S
C2965 C2967 1.366 . S
C2965 H2973 0.930 . S
C2966 N2964 1.325 . S
C2966 C2967 1.416 . S
C2966 H2972 0.929 . S
C2967 C2965 1.366 . S
C2967 C2966 1.416 . S
C2967 H2969 0.930 . S
H2968 C2957 0.930 . S
H2969 C2967 0.930 . S
H2970 C2985 0.929 1_455 S
H2971 C2992 0.930 . S
H2972 C2966 0.929 . S
H2973 C2965 0.930 . S
H2974 C2988 0.929 1_455 S
H2975 C2955 0.931 . S
H2976 C2961 0.931 . S
H2977 C2962 0.931 . S
H2978 C2983 0.931 . S
H2979 C2958 0.929 . S
H2980 C2991 0.930 . S
N2981 Eu2952 2.600 1_655 S
N2981 C2982 1.365 . S
N2981 C2985 1.319 . S
C2982 N2981 1.365 . S
C2982 C2984 1.405 . S
C2982 C2990 1.448 . S
C2983 H2978 0.931 . S
C2983 C2985 1.398 . S
C2983 C2986 1.367 . S
C2984 C2982 1.405 . S
C2984 C2986 1.403 . S
C2984 C3017 1.439 . S
C2985 H2970 0.929 1_655 S
C2985 N2981 1.319 . S
C2985 C2983 1.398 . S
C2986 C2983 1.367 . S
C2986 C2984 1.403 . S
C2986 H2993 0.929 . S
N2987 Eu2952 2.562 1_655 S
N2987 C2988 1.325 . S
N2987 C2990 1.351 . S
C2988 H2974 0.929 1_655 S
C2988 N2987 1.325 . S
C2988 C2992 1.416 . S
C2989 C2990 1.430 . S
C2989 C2991 1.404 . S
C2989 C3018 1.387 . S
C2990 C2982 1.448 . S
C2990 N2987 1.351 . S
C2990 C2989 1.430 . S
C2991 H2980 0.930 . S
C2991 C2989 1.404 . S
C2991 C2992 1.366 . S
C2992 H2971 0.930 . S
C2992 C2988 1.416 . S
C2992 C2991 1.366 . S
H2993 C2986 0.929 . S
H2994 C3017 0.931 . S
H2995 C3018 0.931 . S
O2996 Eu2952 2.462 . S
O2996 C3016 1.252 . S
O2997 Eu2952 2.373 1_655 S
O2997 C3008 1.249 . S
O2998 Eu2963 2.335 1_655 S
O2998 C3008 1.264 . S
O2999 Eu2952 2.432 . S
O2999 C3016 1.268 . S
O3000 Eu2952 2.291 . S
O3000 C3015 1.255 . S
O3001 Eu2963 2.372 . S
O3001 C3015 1.257 . S
O3002 Eu2963 2.462 . S
O3002 C3027 1.252 . S
O3003 Eu2963 2.373 . S
O3003 C3019 1.249 . S
O3004 Eu2952 2.335 . S
O3004 C3019 1.264 . S
O3005 Eu2963 2.432 . S
O3005 C3027 1.268 . S
O3006 Eu2963 2.291 . S
O3006 C3026 1.255 . S
O3007 Eu2952 2.372 . S
O3007 C3026 1.257 . S
C3008 O2997 1.249 . S
C3008 O2998 1.264 . S
C3009 C3012 1.382 . S
C3009 C3014 1.390 . S
C3009 C3016 1.506 . S
C3010 C3011 1.398 . S
C3010 C3014 1.392 . S
C3011 C3010 1.398 . S
C3011 C3013 1.372 . S
C3011 H3028 0.931 . S
C3012 C3009 1.382 . S
C3012 C3013 1.390 . S
C3012 H3029 0.931 . S
C3013 C3011 1.372 . S
C3013 C3012 1.390 . S
C3013 H3030 0.929 . S
C3014 C3009 1.390 . S
C3014 C3010 1.392 . S
C3014 H3031 0.930 . S
C3015 O3000 1.255 . S
C3015 O3001 1.257 . S
C3016 Eu2952 2.787 . S
C3016 O2996 1.252 . S
C3016 O2999 1.268 . S
C3016 C3009 1.506 . S
C3017 C2984 1.439 . S
C3017 H2994 0.931 . S
C3017 C3018 1.374 . S
C3018 C2989 1.387 . S
C3018 H2995 0.931 . S
C3018 C3017 1.374 . S
C3019 O3003 1.249 . S
C3019 O3004 1.264 . S
C3020 C3023 1.382 . S
C3020 C3024 1.390 . S
C3020 C3027 1.506 1_655 S
C3021 C3022 1.398 . S
C3021 C3024 1.392 . S
C3022 C3021 1.398 . S
C3022 C3025 1.372 . S
C3022 H3032 0.931 . S
C3023 C3020 1.382 . S
C3023 C3025 1.390 . S
C3023 H3033 0.931 . S
C3024 C3020 1.390 . S
C3024 C3021 1.392 . S
C3024 H3034 0.930 . S
C3025 C3022 1.372 . S
C3025 C3023 1.390 . S
C3025 H3035 0.929 . S
C3026 O3006 1.255 . S
C3026 O3007 1.257 . S
C3027 Eu2963 2.787 . S
C3027 O3002 1.252 . S
C3027 O3005 1.268 . S
C3027 C3020 1.506 1_455 S
H3028 C3011 0.931 . S
H3029 C3012 0.931 . S
H3030 C3013 0.929 . S
H3031 C3014 0.930 . S
H3032 C3022 0.931 . S
H3033 C3023 0.931 . S
H3034 C3024 0.930 . S
H3035 C3025 0.929 . S
Eu3036 N3065 2.600 . S
Eu3036 N3071 2.562 . S
Eu3036 O3080 2.462 . S
Eu3036 O3081 2.373 . S
Eu3036 O3083 2.432 . S
Eu3036 O3084 2.291 . S
Eu3036 O3088 2.335 . S
Eu3036 O3091 2.372 . S
Eu3036 C3100 2.787 . S
C3037 N3038 1.365 . S
C3037 C3040 1.405 . S
C3037 C3044 1.448 . S
N3038 C3037 1.365 . S
N3038 C3041 1.319 . S
N3038 Eu3047 2.600 . S
C3039 C3041 1.397 . S
C3039 C3042 1.367 . S
C3039 H3059 0.931 . S
C3040 C3037 1.405 . S
C3040 C3042 1.403 . S
C3040 C3046 1.439 . S
C3041 N3038 1.319 . S
C3041 C3039 1.397 . S
C3041 H3052 0.930 . S
C3042 C3039 1.367 . S
C3042 C3040 1.403 . S
C3042 H3063 0.929 . S
C3043 C3044 1.430 . S
C3043 C3045 1.387 . S
C3043 C3049 1.404 . S
C3044 C3037 1.448 . S
C3044 C3043 1.430 . S
C3044 N3048 1.351 . S
C3045 C3043 1.387 . S
C3045 C3046 1.374 . S
C3045 H3060 0.931 . S
C3046 C3040 1.439 . S
C3046 C3045 1.374 . S
C3046 H3061 0.931 . S
Eu3047 N3038 2.600 . S
Eu3047 N3048 2.562 . S
Eu3047 O3082 2.335 . S
Eu3047 O3085 2.372 . S
Eu3047 O3086 2.462 . S
Eu3047 O3087 2.373 . S
Eu3047 O3089 2.432 . S
Eu3047 O3090 2.291 . S
Eu3047 C3111 2.787 . S
N3048 C3044 1.351 . S
N3048 Eu3047 2.562 . S
N3048 C3050 1.325 . S
C3049 C3043 1.404 . S
C3049 C3051 1.366 . S
C3049 H3057 0.930 . S
C3050 N3048 1.325 . S
C3050 C3051 1.416 . S
C3050 H3056 0.929 . S
C3051 C3049 1.366 . S
C3051 C3050 1.416 . S
C3051 H3053 0.930 . S
H3052 C3041 0.930 . S
H3053 C3051 0.930 . S
H3054 C3069 0.930 . S
H3055 C3076 0.930 . S
H3056 C3050 0.929 . S
H3057 C3049 0.930 . S
H3058 C3072 0.929 . S
H3059 C3039 0.931 . S
H3060 C3045 0.931 . S
H3061 C3046 0.931 . S
H3062 C3067 0.931 . S
H3063 C3042 0.929 . S
H3064 C3075 0.930 . S
N3065 Eu3036 2.600 . S
N3065 C3066 1.365 . S
N3065 C3069 1.319 . S
C3066 N3065 1.365 . S
C3066 C3068 1.405 . S
C3066 C3074 1.448 . S
C3067 H3062 0.931 . S
C3067 C3069 1.397 . S
C3067 C3070 1.367 . S
C3068 C3066 1.405 . S
C3068 C3070 1.403 . S
C3068 C3101 1.439 . S
C3069 H3054 0.930 . S
C3069 N3065 1.319 . S
C3069 C3067 1.397 . S
C3070 C3067 1.367 . S
C3070 C3068 1.403 . S
C3070 H3077 0.929 . S
N3071 Eu3036 2.562 . S
N3071 C3072 1.325 . S
N3071 C3074 1.351 . S
C3072 H3058 0.929 . S
C3072 N3071 1.325 . S
C3072 C3076 1.416 . S
C3073 C3074 1.430 . S
C3073 C3075 1.404 . S
C3073 C3102 1.387 . S
C3074 C3066 1.448 . S
C3074 N3071 1.351 . S
C3074 C3073 1.430 . S
C3075 H3064 0.930 . S
C3075 C3073 1.404 . S
C3075 C3076 1.366 . S
C3076 H3055 0.930 . S
C3076 C3072 1.416 . S
C3076 C3075 1.366 . S
H3077 C3070 0.929 . S
H3078 C3101 0.931 . S
H3079 C3102 0.931 . S
O3080 Eu3036 2.462 . S
O3080 C3100 1.252 . S
O3081 Eu3036 2.373 . S
O3081 C3092 1.249 . S
O3082 Eu3047 2.335 . S
O3082 C3092 1.264 . S
O3083 Eu3036 2.432 . S
O3083 C3100 1.268 . S
O3084 Eu3036 2.291 . S
O3084 C3099 1.255 . S
O3085 Eu3047 2.372 . S
O3085 C3099 1.257 . S
O3086 Eu3047 2.462 . S
O3086 C3111 1.252 . S
O3087 Eu3047 2.373 . S
O3087 C3103 1.249 . S
O3088 Eu3036 2.335 . S
O3088 C3103 1.264 . S
O3089 Eu3047 2.432 . S
O3089 C3111 1.268 . S
O3090 Eu3047 2.291 . S
O3090 C3110 1.255 . S
O3091 Eu3036 2.372 . S
O3091 C3110 1.257 . S
C3092 O3081 1.249 . S
C3092 O3082 1.264 . S
C3093 C3096 1.382 . S
C3093 C3098 1.390 . S
C3093 C3100 1.506 . S
C3094 C3095 1.398 . S
C3094 C3098 1.392 . S
C3095 C3094 1.398 . S
C3095 C3097 1.372 . S
C3095 H3112 0.931 . S
C3096 C3093 1.382 . S
C3096 C3097 1.390 . S
C3096 H3113 0.931 . S
C3097 C3095 1.372 . S
C3097 C3096 1.390 . S
C3097 H3114 0.929 . S
C3098 C3093 1.390 . S
C3098 C3094 1.392 . S
C3098 H3115 0.930 . S
C3099 O3084 1.255 . S
C3099 O3085 1.257 . S
C3100 Eu3036 2.787 . S
C3100 O3080 1.252 . S
C3100 O3083 1.268 . S
C3100 C3093 1.506 . S
C3101 C3068 1.439 . S
C3101 H3078 0.931 . S
C3101 C3102 1.374 . S
C3102 C3073 1.387 . S
C3102 H3079 0.931 . S
C3102 C3101 1.374 . S
C3103 O3087 1.249 . S
C3103 O3088 1.264 . S
C3104 C3107 1.382 . S
C3104 C3108 1.390 . S
C3104 C3111 1.506 . S
C3105 C3106 1.398 . S
C3105 C3108 1.392 . S
C3106 C3105 1.398 . S
C3106 C3109 1.372 . S
C3106 H3116 0.931 . S
C3107 C3104 1.382 . S
C3107 C3109 1.390 . S
C3107 H3117 0.931 . S
C3108 C3104 1.390 . S
C3108 C3105 1.392 . S
C3108 H3118 0.930 . S
C3109 C3106 1.372 . S
C3109 C3107 1.390 . S
C3109 H3119 0.929 . S
C3110 O3090 1.255 . S
C3110 O3091 1.257 . S
C3111 Eu3047 2.787 . S
C3111 O3086 1.252 . S
C3111 O3089 1.268 . S
C3111 C3104 1.506 . S
H3112 C3095 0.931 . S
H3113 C3096 0.931 . S
H3114 C3097 0.929 . S
H3115 C3098 0.930 . S
H3116 C3106 0.931 . S
H3117 C3107 0.931 . S
H3118 C3108 0.930 . S
H3119 C3109 0.929 . S
Eu3120 N3149 2.600 . S
Eu3120 N3155 2.562 . S
Eu3120 O3164 2.462 . S
Eu3120 O3165 2.373 . S
Eu3120 O3167 2.432 . S
Eu3120 O3168 2.291 . S
Eu3120 O3172 2.335 . S
Eu3120 O3175 2.372 . S
Eu3120 C3184 2.787 . S
C3121 N3122 1.365 . S
C3121 C3124 1.405 . S
C3121 C3128 1.448 . S
N3122 C3121 1.365 . S
N3122 C3125 1.319 . S
N3122 Eu3131 2.600 . S
C3123 C3125 1.397 . S
C3123 C3126 1.367 . S
C3123 H3143 0.931 . S
C3124 C3121 1.405 . S
C3124 C3126 1.403 . S
C3124 C3130 1.439 . S
C3125 N3122 1.319 . S
C3125 C3123 1.397 . S
C3125 H3136 0.930 . S
C3126 C3123 1.367 . S
C3126 C3124 1.403 . S
C3126 H3147 0.929 . S
C3127 C3128 1.430 . S
C3127 C3129 1.387 . S
C3127 C3133 1.404 . S
C3128 C3121 1.448 . S
C3128 C3127 1.430 . S
C3128 N3132 1.351 . S
C3129 C3127 1.387 . S
C3129 C3130 1.374 . S
C3129 H3144 0.931 . S
C3130 C3124 1.439 . S
C3130 C3129 1.374 . S
C3130 H3145 0.931 . S
Eu3131 N3122 2.600 . S
Eu3131 N3132 2.562 . S
Eu3131 O3166 2.335 . S
Eu3131 O3169 2.372 . S
Eu3131 O3170 2.462 . S
Eu3131 O3171 2.373 . S
Eu3131 O3173 2.432 . S
Eu3131 O3174 2.291 . S
Eu3131 C3195 2.787 . S
N3132 C3128 1.351 . S
N3132 Eu3131 2.562 . S
N3132 C3134 1.325 . S
C3133 C3127 1.404 . S
C3133 C3135 1.366 . S
C3133 H3141 0.930 . S
C3134 N3132 1.325 . S
C3134 C3135 1.416 . S
C3134 H3140 0.929 . S
C3135 C3133 1.366 . S
C3135 C3134 1.416 . S
C3135 H3137 0.930 . S
H3136 C3125 0.930 . S
H3137 C3135 0.930 . S
H3138 C3153 0.930 . S
H3139 C3160 0.930 . S
H3140 C3134 0.929 . S
H3141 C3133 0.930 . S
H3142 C3156 0.929 . S
H3143 C3123 0.931 . S
H3144 C3129 0.931 . S
H3145 C3130 0.931 . S
H3146 C3151 0.931 . S
H3147 C3126 0.929 . S
H3148 C3159 0.930 . S
N3149 Eu3120 2.600 . S
N3149 C3150 1.365 . S
N3149 C3153 1.319 . S
C3150 N3149 1.365 . S
C3150 C3152 1.405 . S
C3150 C3158 1.448 . S
C3151 H3146 0.931 . S
C3151 C3153 1.397 . S
C3151 C3154 1.367 . S
C3152 C3150 1.405 . S
C3152 C3154 1.403 . S
C3152 C3185 1.439 . S
C3153 H3138 0.930 . S
C3153 N3149 1.319 . S
C3153 C3151 1.397 . S
C3154 C3151 1.367 . S
C3154 C3152 1.403 . S
C3154 H3161 0.929 . S
N3155 Eu3120 2.562 . S
N3155 C3156 1.325 . S
N3155 C3158 1.351 . S
C3156 H3142 0.929 . S
C3156 N3155 1.325 . S
C3156 C3160 1.416 . S
C3157 C3158 1.430 . S
C3157 C3159 1.404 . S
C3157 C3186 1.387 . S
C3158 C3150 1.448 . S
C3158 N3155 1.351 . S
C3158 C3157 1.430 . S
C3159 H3148 0.930 . S
C3159 C3157 1.404 . S
C3159 C3160 1.366 . S
C3160 H3139 0.930 . S
C3160 C3156 1.416 . S
C3160 C3159 1.366 . S
H3161 C3154 0.929 . S
H3162 C3185 0.931 . S
H3163 C3186 0.931 . S
O3164 Eu3120 2.462 . S
O3164 C3184 1.252 . S
O3165 Eu3120 2.373 . S
O3165 C3176 1.249 . S
O3166 Eu3131 2.335 . S
O3166 C3176 1.264 . S
O3167 Eu3120 2.432 . S
O3167 C3184 1.268 . S
O3168 Eu3120 2.291 . S
O3168 C3183 1.255 . S
O3169 Eu3131 2.372 . S
O3169 C3183 1.257 . S
O3170 Eu3131 2.462 . S
O3170 C3195 1.252 . S
O3171 Eu3131 2.373 . S
O3171 C3187 1.249 . S
O3172 Eu3120 2.335 . S
O3172 C3187 1.264 . S
O3173 Eu3131 2.432 . S
O3173 C3195 1.268 . S
O3174 Eu3131 2.291 . S
O3174 C3194 1.255 . S
O3175 Eu3120 2.372 . S
O3175 C3194 1.257 . S
C3176 O3165 1.249 . S
C3176 O3166 1.264 . S
C3177 C3180 1.382 . S
C3177 C3182 1.390 . S
C3177 C3184 1.506 . S
C3178 C3179 1.398 . S
C3178 C3182 1.392 . S
C3179 C3178 1.398 . S
C3179 C3181 1.372 . S
C3179 H3196 0.931 . S
C3180 C3177 1.382 . S
C3180 C3181 1.390 . S
C3180 H3197 0.931 . S
C3181 C3179 1.372 . S
C3181 C3180 1.390 . S
C3181 H3198 0.929 . S
C3182 C3177 1.390 . S
C3182 C3178 1.392 . S
C3182 H3199 0.930 . S
C3183 O3168 1.255 . S
C3183 O3169 1.257 . S
C3184 Eu3120 2.787 . S
C3184 O3164 1.252 . S
C3184 O3167 1.268 . S
C3184 C3177 1.506 . S
C3185 C3152 1.439 . S
C3185 H3162 0.931 . S
C3185 C3186 1.374 . S
C3186 C3157 1.387 . S
C3186 H3163 0.931 . S
C3186 C3185 1.374 . S
C3187 O3171 1.249 . S
C3187 O3172 1.264 . S
C3188 C3191 1.382 . S
C3188 C3192 1.390 . S
C3188 C3195 1.506 . S
C3189 C3190 1.398 . S
C3189 C3192 1.392 . S
C3190 C3189 1.398 . S
C3190 C3193 1.372 . S
C3190 H3200 0.931 . S
C3191 C3188 1.382 . S
C3191 C3193 1.390 . S
C3191 H3201 0.931 . S
C3192 C3188 1.390 . S
C3192 C3189 1.392 . S
C3192 H3202 0.930 . S
C3193 C3190 1.372 . S
C3193 C3191 1.390 . S
C3193 H3203 0.929 . S
C3194 O3174 1.255 . S
C3194 O3175 1.257 . S
C3195 Eu3131 2.787 . S
C3195 O3170 1.252 . S
C3195 O3173 1.268 . S
C3195 C3188 1.506 . S
H3196 C3179 0.931 . S
H3197 C3180 0.931 . S
H3198 C3181 0.929 . S
H3199 C3182 0.930 . S
H3200 C3190 0.931 . S
H3201 C3191 0.931 . S
H3202 C3192 0.930 . S
H3203 C3193 0.929 . S
Eu3204 N3233 2.600 . S
Eu3204 N3239 2.562 . S
Eu3204 O3248 2.462 . S
Eu3204 O3249 2.373 . S
Eu3204 O3251 2.432 . S
Eu3204 O3252 2.291 . S
Eu3204 O3256 2.335 . S
Eu3204 O3259 2.372 . S
Eu3204 C3268 2.787 . S
C3205 N3206 1.365 . S
C3205 C3208 1.405 . S
C3205 C3212 1.448 . S
N3206 C3205 1.365 . S
N3206 C3209 1.319 . S
N3206 Eu3215 2.600 . S
C3207 C3209 1.397 . S
C3207 C3210 1.367 . S
C3207 H3227 0.931 . S
C3208 C3205 1.405 . S
C3208 C3210 1.403 . S
C3208 C3214 1.439 . S
C3209 N3206 1.319 . S
C3209 C3207 1.397 . S
C3209 H3220 0.930 . S
C3210 C3207 1.367 . S
C3210 C3208 1.403 . S
C3210 H3231 0.929 . S
C3211 C3212 1.430 . S
C3211 C3213 1.387 . S
C3211 C3217 1.404 . S
C3212 C3205 1.448 . S
C3212 C3211 1.430 . S
C3212 N3216 1.351 . S
C3213 C3211 1.387 . S
C3213 C3214 1.374 . S
C3213 H3228 0.931 . S
C3214 C3208 1.439 . S
C3214 C3213 1.374 . S
C3214 H3229 0.931 . S
Eu3215 N3206 2.600 . S
Eu3215 N3216 2.562 . S
Eu3215 O3250 2.335 . S
Eu3215 O3253 2.372 . S
Eu3215 O3254 2.462 . S
Eu3215 O3255 2.373 . S
Eu3215 O3257 2.432 . S
Eu3215 O3258 2.291 . S
Eu3215 C3279 2.787 . S
N3216 C3212 1.351 . S
N3216 Eu3215 2.562 . S
N3216 C3218 1.325 . S
C3217 C3211 1.404 . S
C3217 C3219 1.366 . S
C3217 H3225 0.930 . S
C3218 N3216 1.325 . S
C3218 C3219 1.416 . S
C3218 H3224 0.929 . S
C3219 C3217 1.366 . S
C3219 C3218 1.416 . S
C3219 H3221 0.930 . S
H3220 C3209 0.930 . S
H3221 C3219 0.930 . S
H3222 C3237 0.930 . S
H3223 C3244 0.930 . S
H3224 C3218 0.929 . S
H3225 C3217 0.930 . S
H3226 C3240 0.929 . S
H3227 C3207 0.931 . S
H3228 C3213 0.931 . S
H3229 C3214 0.931 . S
H3230 C3235 0.931 . S
H3231 C3210 0.929 . S
H3232 C3243 0.930 . S
N3233 Eu3204 2.600 . S
N3233 C3234 1.365 . S
N3233 C3237 1.319 . S
C3234 N3233 1.365 . S
C3234 C3236 1.405 . S
C3234 C3242 1.448 . S
C3235 H3230 0.931 . S
C3235 C3237 1.397 . S
C3235 C3238 1.367 . S
C3236 C3234 1.405 . S
C3236 C3238 1.403 . S
C3236 C3269 1.439 . S
C3237 H3222 0.930 . S
C3237 N3233 1.319 . S
C3237 C3235 1.397 . S
C3238 C3235 1.367 . S
C3238 C3236 1.403 . S
C3238 H3245 0.929 . S
N3239 Eu3204 2.562 . S
N3239 C3240 1.325 . S
N3239 C3242 1.351 . S
C3240 H3226 0.929 . S
C3240 N3239 1.325 . S
C3240 C3244 1.416 . S
C3241 C3242 1.430 . S
C3241 C3243 1.404 . S
C3241 C3270 1.387 . S
C3242 C3234 1.448 . S
C3242 N3239 1.351 . S
C3242 C3241 1.430 . S
C3243 H3232 0.930 . S
C3243 C3241 1.404 . S
C3243 C3244 1.366 . S
C3244 H3223 0.930 . S
C3244 C3240 1.416 . S
C3244 C3243 1.366 . S
H3245 C3238 0.929 . S
H3246 C3269 0.931 . S
H3247 C3270 0.931 . S
O3248 Eu3204 2.462 . S
O3248 C3268 1.252 . S
O3249 Eu3204 2.373 . S
O3249 C3260 1.249 . S
O3250 Eu3215 2.335 . S
O3250 C3260 1.264 . S
O3251 Eu3204 2.432 . S
O3251 C3268 1.268 . S
O3252 Eu3204 2.291 . S
O3252 C3267 1.255 . S
O3253 Eu3215 2.372 . S
O3253 C3267 1.257 . S
O3254 Eu3215 2.462 . S
O3254 C3279 1.252 . S
O3255 Eu3215 2.373 . S
O3255 C3271 1.249 . S
O3256 Eu3204 2.335 . S
O3256 C3271 1.264 . S
O3257 Eu3215 2.432 . S
O3257 C3279 1.268 . S
O3258 Eu3215 2.291 . S
O3258 C3278 1.255 . S
O3259 Eu3204 2.372 . S
O3259 C3278 1.257 . S
C3260 O3249 1.249 . S
C3260 O3250 1.264 . S
C3261 C3264 1.382 . S
C3261 C3266 1.390 . S
C3261 C3268 1.506 . S
C3262 C3263 1.398 . S
C3262 C3266 1.392 . S
C3263 C3262 1.398 . S
C3263 C3265 1.372 . S
C3263 H3280 0.931 . S
C3264 C3261 1.382 . S
C3264 C3265 1.390 . S
C3264 H3281 0.931 . S
C3265 C3263 1.372 . S
C3265 C3264 1.390 . S
C3265 H3282 0.929 . S
C3266 C3261 1.390 . S
C3266 C3262 1.392 . S
C3266 H3283 0.930 . S
C3267 O3252 1.255 . S
C3267 O3253 1.257 . S
C3268 Eu3204 2.787 . S
C3268 O3248 1.252 . S
C3268 O3251 1.268 . S
C3268 C3261 1.506 . S
C3269 C3236 1.439 . S
C3269 H3246 0.931 . S
C3269 C3270 1.374 . S
C3270 C3241 1.387 . S
C3270 H3247 0.931 . S
C3270 C3269 1.374 . S
C3271 O3255 1.249 . S
C3271 O3256 1.264 . S
C3272 C3275 1.382 . S
C3272 C3276 1.390 . S
C3272 C3279 1.506 . S
C3273 C3274 1.398 . S
C3273 C3276 1.392 . S
C3274 C3273 1.398 . S
C3274 C3277 1.372 . S
C3274 H3284 0.931 . S
C3275 C3272 1.382 . S
C3275 C3277 1.390 . S
C3275 H3285 0.931 . S
C3276 C3272 1.390 . S
C3276 C3273 1.392 . S
C3276 H3286 0.930 . S
C3277 C3274 1.372 . S
C3277 C3275 1.390 . S
C3277 H3287 0.929 . S
C3278 O3258 1.255 . S
C3278 O3259 1.257 . S
C3279 Eu3215 2.787 . S
C3279 O3254 1.252 . S
C3279 O3257 1.268 . S
C3279 C3272 1.506 . S
H3280 C3263 0.931 . S
H3281 C3264 0.931 . S
H3282 C3265 0.929 . S
H3283 C3266 0.930 . S
H3284 C3274 0.931 . S
H3285 C3275 0.931 . S
H3286 C3276 0.930 . S
H3287 C3277 0.929 . S
Eu3288 N3317 2.600 . S
Eu3288 N3323 2.562 . S
Eu3288 O3332 2.462 . S
Eu3288 O3333 2.373 . S
Eu3288 O3335 2.432 . S
Eu3288 O3336 2.291 . S
Eu3288 O3340 2.335 . S
Eu3288 O3343 2.372 . S
Eu3288 C3352 2.787 . S
C3289 N3290 1.365 . S
C3289 C3292 1.405 . S
C3289 C3296 1.448 . S
N3290 C3289 1.365 . S
N3290 C3293 1.319 . S
N3290 Eu3299 2.600 . S
C3291 C3293 1.397 . S
C3291 C3294 1.367 . S
C3291 H3311 0.931 . S
C3292 C3289 1.405 . S
C3292 C3294 1.403 . S
C3292 C3298 1.439 . S
C3293 N3290 1.319 . S
C3293 C3291 1.397 . S
C3293 H3304 0.930 . S
C3294 C3291 1.367 . S
C3294 C3292 1.403 . S
C3294 H3315 0.929 . S
C3295 C3296 1.430 . S
C3295 C3297 1.387 . S
C3295 C3301 1.404 . S
C3296 C3289 1.448 . S
C3296 C3295 1.430 . S
C3296 N3300 1.351 . S
C3297 C3295 1.387 . S
C3297 C3298 1.374 . S
C3297 H3312 0.931 . S
C3298 C3292 1.439 . S
C3298 C3297 1.374 . S
C3298 H3313 0.931 . S
Eu3299 N3290 2.600 . S
Eu3299 N3300 2.562 . S
Eu3299 O3334 2.335 . S
Eu3299 O3337 2.372 . S
Eu3299 O3338 2.462 . S
Eu3299 O3339 2.373 . S
Eu3299 O3341 2.432 . S
Eu3299 O3342 2.291 . S
Eu3299 C3363 2.787 . S
N3300 C3296 1.351 . S
N3300 Eu3299 2.562 . S
N3300 C3302 1.325 . S
C3301 C3295 1.404 . S
C3301 C3303 1.366 . S
C3301 H3309 0.930 . S
C3302 N3300 1.325 . S
C3302 C3303 1.416 . S
C3302 H3308 0.929 . S
C3303 C3301 1.366 . S
C3303 C3302 1.416 . S
C3303 H3305 0.930 . S
H3304 C3293 0.930 . S
H3305 C3303 0.930 . S
H3306 C3321 0.930 . S
H3307 C3328 0.930 . S
H3308 C3302 0.929 . S
H3309 C3301 0.930 . S
H3310 C3324 0.929 . S
H3311 C3291 0.931 . S
H3312 C3297 0.931 . S
H3313 C3298 0.931 . S
H3314 C3319 0.931 . S
H3315 C3294 0.929 . S
H3316 C3327 0.930 . S
N3317 Eu3288 2.600 . S
N3317 C3318 1.365 . S
N3317 C3321 1.319 . S
C3318 N3317 1.365 . S
C3318 C3320 1.405 . S
C3318 C3326 1.448 . S
C3319 H3314 0.931 . S
C3319 C3321 1.397 . S
C3319 C3322 1.367 . S
C3320 C3318 1.405 . S
C3320 C3322 1.403 . S
C3320 C3353 1.439 . S
C3321 H3306 0.930 . S
C3321 N3317 1.319 . S
C3321 C3319 1.397 . S
C3322 C3319 1.367 . S
C3322 C3320 1.403 . S
C3322 H3329 0.929 . S
N3323 Eu3288 2.562 . S
N3323 C3324 1.325 . S
N3323 C3326 1.351 . S
C3324 H3310 0.929 . S
C3324 N3323 1.325 . S
C3324 C3328 1.416 . S
C3325 C3326 1.430 . S
C3325 C3327 1.404 . S
C3325 C3354 1.387 . S
C3326 C3318 1.448 . S
C3326 N3323 1.351 . S
C3326 C3325 1.430 . S
C3327 H3316 0.930 . S
C3327 C3325 1.404 . S
C3327 C3328 1.366 . S
C3328 H3307 0.930 . S
C3328 C3324 1.416 . S
C3328 C3327 1.366 . S
H3329 C3322 0.929 . S
H3330 C3353 0.931 . S
H3331 C3354 0.931 . S
O3332 Eu3288 2.462 . S
O3332 C3352 1.252 . S
O3333 Eu3288 2.373 . S
O3333 C3344 1.249 . S
O3334 Eu3299 2.335 . S
O3334 C3344 1.264 . S
O3335 Eu3288 2.432 . S
O3335 C3352 1.268 . S
O3336 Eu3288 2.291 . S
O3336 C3351 1.255 . S
O3337 Eu3299 2.372 . S
O3337 C3351 1.257 . S
O3338 Eu3299 2.462 . S
O3338 C3363 1.252 . S
O3339 Eu3299 2.373 . S
O3339 C3355 1.249 . S
O3340 Eu3288 2.335 . S
O3340 C3355 1.264 . S
O3341 Eu3299 2.432 . S
O3341 C3363 1.268 . S
O3342 Eu3299 2.291 . S
O3342 C3362 1.255 . S
O3343 Eu3288 2.372 . S
O3343 C3362 1.257 . S
C3344 O3333 1.249 . S
C3344 O3334 1.264 . S
C3345 C3348 1.382 . S
C3345 C3350 1.390 . S
C3345 C3352 1.506 . S
C3346 C3347 1.398 . S
C3346 C3350 1.392 . S
C3347 C3346 1.398 . S
C3347 C3349 1.372 . S
C3347 H3364 0.931 . S
C3348 C3345 1.382 . S
C3348 C3349 1.390 . S
C3348 H3365 0.931 . S
C3349 C3347 1.372 . S
C3349 C3348 1.390 . S
C3349 H3366 0.929 . S
C3350 C3345 1.390 . S
C3350 C3346 1.392 . S
C3350 H3367 0.930 . S
C3351 O3336 1.255 . S
C3351 O3337 1.257 . S
C3352 Eu3288 2.787 . S
C3352 O3332 1.252 . S
C3352 O3335 1.268 . S
C3352 C3345 1.506 . S
C3353 C3320 1.439 . S
C3353 H3330 0.931 . S
C3353 C3354 1.374 . S
C3354 C3325 1.387 . S
C3354 H3331 0.931 . S
C3354 C3353 1.374 . S
C3355 O3339 1.249 . S
C3355 O3340 1.264 . S
C3356 C3359 1.382 . S
C3356 C3360 1.390 . S
C3356 C3363 1.506 . S
C3357 C3358 1.398 . S
C3357 C3360 1.392 . S
C3358 C3357 1.398 . S
C3358 C3361 1.372 . S
C3358 H3368 0.931 . S
C3359 C3356 1.382 . S
C3359 C3361 1.390 . S
C3359 H3369 0.931 . S
C3360 C3356 1.390 . S
C3360 C3357 1.392 . S
C3360 H3370 0.930 . S
C3361 C3358 1.372 . S
C3361 C3359 1.390 . S
C3361 H3371 0.929 . S
C3362 O3342 1.255 . S
C3362 O3343 1.257 . S
C3363 Eu3299 2.787 . S
C3363 O3338 1.252 . S
C3363 O3341 1.268 . S
C3363 C3356 1.506 . S
H3364 C3347 0.931 . S
H3365 C3348 0.931 . S
H3366 C3349 0.929 . S
H3367 C3350 0.930 . S
H3368 C3358 0.931 . S
H3369 C3359 0.931 . S
H3370 C3360 0.930 . S
H3371 C3361 0.929 . S
Eu3372 N3401 2.602 . S
Eu3372 N3407 2.566 . S
Eu3372 O3416 2.467 . S
Eu3372 O3417 2.369 1_655 S
Eu3372 O3419 2.436 . S
Eu3372 O3420 2.290 1_655 S
Eu3372 O3424 2.333 1_655 S
Eu3372 O3427 2.367 1_655 S
Eu3372 C3436 2.792 . S
C3373 N3374 1.365 . S
C3373 C3376 1.405 . S
C3373 C3380 1.448 1_556 S
N3374 C3373 1.365 . S
N3374 C3377 1.319 . S
N3374 Eu3383 2.600 1_556 S
C3375 C3377 1.397 . S
C3375 C3378 1.367 . S
C3375 H3395 0.931 . S
C3376 C3373 1.405 . S
C3376 C3378 1.403 . S
C3376 C3382 1.439 . S
C3377 N3374 1.319 . S
C3377 C3375 1.397 . S
C3377 H3388 0.930 . S
C3378 C3375 1.367 . S
C3378 C3376 1.403 . S
C3378 H3399 0.929 . S
C3379 C3380 1.430 . S
C3379 C3381 1.387 . S
C3379 C3385 1.404 . S
C3380 C3373 1.448 1_554 S
C3380 C3379 1.430 . S
C3380 N3384 1.351 . S
C3381 C3379 1.387 . S
C3381 C3382 1.374 1_554 S
C3381 H3396 0.931 . S
C3382 C3376 1.439 . S
C3382 C3381 1.374 1_556 S
C3382 H3397 0.931 . S
Eu3383 N3374 2.600 1_554 S
Eu3383 N3384 2.562 . S
Eu3383 O3418 2.335 . S
Eu3383 O3421 2.372 1_554 S
Eu3383 O3422 2.462 . S
Eu3383 O3423 2.373 . S
Eu3383 O3425 2.432 1_554 S
Eu3383 O3426 2.291 . S
Eu3383 C3447 2.787 . S
N3384 C3380 1.351 . S
N3384 Eu3383 2.562 . S
N3384 C3386 1.325 . S
C3385 C3379 1.404 . S
C3385 C3387 1.366 . S
C3385 H3393 0.930 . S
C3386 N3384 1.325 . S
C3386 C3387 1.416 . S
C3386 H3392 0.929 . S
C3387 C3385 1.366 . S
C3387 C3386 1.416 . S
C3387 H3389 0.930 . S
H3388 C3377 0.930 . S
H3389 C3387 0.930 . S
H3390 C3405 0.930 1_455 S
H3391 C3412 0.930 . S
H3392 C3386 0.929 . S
H3393 C3385 0.930 . S
H3394 C3408 0.929 1_556 S
H3395 C3375 0.931 . S
H3396 C3381 0.931 . S
H3397 C3382 0.931 . S
H3398 C3403 0.931 . S
H3399 C3378 0.929 . S
H3400 C3411 0.930 . S
N3401 Eu3372 2.602 . S
N3401 C3402 1.365 . S
N3401 C3405 1.319 . S
C3402 N3401 1.365 . S
C3402 C3404 1.405 . S
C3402 C3410 1.448 . S
C3403 H3398 0.931 . S
C3403 C3405 1.397 . S
C3403 C3406 1.367 . S
C3404 C3402 1.405 . S
C3404 C3406 1.403 . S
C3404 C3437 1.439 . S
C3405 H3390 0.930 1_655 S
C3405 N3401 1.319 . S
C3405 C3403 1.397 . S
C3406 C3403 1.367 . S
C3406 C3404 1.403 . S
C3406 H3413 0.929 . S
N3407 Eu3372 2.566 . S
N3407 C3408 1.325 . S
N3407 C3410 1.351 . S
C3408 H3394 0.929 1_554 S
C3408 N3407 1.325 . S
C3408 C3412 1.416 1_554 S
C3409 C3410 1.430 . S
C3409 C3411 1.404 . S
C3409 C3438 1.387 . S
C3410 C3402 1.448 . S
C3410 N3407 1.351 . S
C3410 C3409 1.430 . S
C3411 H3400 0.930 . S
C3411 C3409 1.404 . S
C3411 C3412 1.366 1_554 S
C3412 H3391 0.930 . S
C3412 C3408 1.416 1_556 S
C3412 C3411 1.366 1_556 S
H3413 C3406 0.929 . S
H3414 C3437 0.931 . S
H3415 C3438 0.931 . S
O3416 Eu3372 2.467 . S
O3416 C3436 1.252 . S
O3417 Eu3372 2.369 1_455 S
O3417 C3428 1.249 . S
O3418 Eu3383 2.335 . S
O3418 C3428 1.264 . S
O3419 Eu3372 2.436 . S
O3419 C3436 1.268 . S
O3420 Eu3372 2.290 1_455 S
O3420 C3435 1.255 1_554 S
O3421 Eu3383 2.372 1_556 S
O3421 C3435 1.257 . S
O3422 Eu3383 2.462 . S
O3422 C3447 1.252 . S
O3423 Eu3383 2.373 . S
O3423 C3439 1.249 . S
O3424 Eu3372 2.333 1_455 S
O3424 C3439 1.264 . S
O3425 Eu3383 2.432 1_556 S
O3425 C3447 1.268 1_556 S
O3426 Eu3383 2.291 . S
O3426 C3446 1.255 . S
O3427 Eu3372 2.367 1_455 S
O3427 C3446 1.257 . S
C3428 O3417 1.249 . S
C3428 O3418 1.264 . S
C3429 C3432 1.382 . S
C3429 C3434 1.390 . S
C3429 C3436 1.506 . S
C3430 C3431 1.398 . S
C3430 C3434 1.392 . S
C3431 C3430 1.398 . S
C3431 C3433 1.372 . S
C3431 H3448 0.931 . S
C3432 C3429 1.382 . S
C3432 C3433 1.390 . S
C3432 H3449 0.931 . S
C3433 C3431 1.372 . S
C3433 C3432 1.390 . S
C3433 H3450 0.929 . S
C3434 C3429 1.390 . S
C3434 C3430 1.392 . S
C3434 H3451 0.930 . S
C3435 O3420 1.255 1_556 S
C3435 O3421 1.257 . S
C3436 Eu3372 2.792 . S
C3436 O3416 1.252 . S
C3436 O3419 1.268 . S
C3436 C3429 1.506 . S
C3437 C3404 1.439 . S
C3437 H3414 0.931 . S
C3437 C3438 1.374 . S
C3438 C3409 1.387 . S
C3438 H3415 0.931 . S
C3438 C3437 1.374 . S
C3439 O3423 1.249 . S
C3439 O3424 1.264 . S
C3440 C3443 1.382 . S
C3440 C3444 1.390 1_556 S
C3440 C3447 1.506 1_556 S
C3441 C3442 1.398 1_554 S
C3441 C3444 1.392 . S
C3442 C3441 1.398 1_556 S
C3442 C3445 1.372 . S
C3442 H3452 0.931 . S
C3443 C3440 1.382 . S
C3443 C3445 1.390 . S
C3443 H3453 0.931 . S
C3444 C3440 1.390 1_554 S
C3444 C3441 1.392 . S
C3444 H3454 0.930 . S
C3445 C3442 1.372 . S
C3445 C3443 1.390 . S
C3445 H3455 0.929 . S
C3446 O3426 1.255 . S
C3446 O3427 1.257 . S
C3447 Eu3383 2.787 . S
C3447 O3422 1.252 . S
C3447 O3425 1.268 1_554 S
C3447 C3440 1.506 1_554 S
H3448 C3431 0.931 . S
H3449 C3432 0.931 . S
H3450 C3433 0.929 . S
H3451 C3434 0.930 . S
H3452 C3442 0.931 . S
H3453 C3443 0.931 . S
H3454 C3444 0.930 . S
H3455 C3445 0.929 . S
H3456 C3468 0.930 . S
H3457 C3470 0.930 . S
H3458 C3471 0.937 1_655 S
H3459 C3475 0.959 . S
H3460 C3475 0.959 . S
H3461 C3475 0.961 . S
H3462 C3476 0.960 . S
H3463 C3476 0.961 . S
H3464 C3476 0.959 . S
H3465 C3479 0.929 . S
H3466 C3480 0.931 . S
H3467 C3482 0.930 . S
C3468 H3456 0.930 . S
C3468 C3469 1.399 1_454 S
C3468 C3473 1.399 . S
C3469 C3468 1.399 1_656 S
C3469 C3470 1.376 . S
C3470 H3457 0.930 . S
C3470 C3469 1.376 . S
C3470 C3471 1.388 1_655 S
C3471 H3458 0.937 1_455 S
C3471 C3470 1.388 1_455 S
C3471 C3472 1.390 . S
C3472 C3471 1.390 . S
C3472 C3473 1.394 1_556 S
C3472 C3478 1.465 . S
C3473 C3468 1.399 . S
C3473 C3472 1.394 1_554 S
C3473 C3474 1.516 . S
C3474 C3473 1.516 . S
C3474 C3475 1.502 . S
C3474 C3476 1.561 1_455 S
C3474 C3477 1.526 . S
C3475 H3459 0.959 . S
C3475 H3460 0.959 . S
C3475 H3461 0.961 . S
C3475 C3474 1.502 . S
C3476 H3462 0.960 . S
C3476 H3463 0.961 . S
C3476 H3464 0.959 . S
C3476 C3474 1.561 1_655 S
C3477 C3474 1.526 . S
C3477 C3478 1.396 1_554 S
C3477 C3482 1.390 . S
C3478 C3472 1.465 . S
C3478 C3477 1.396 1_556 S
C3478 C3479 1.399 . S
C3479 H3465 0.929 . S
C3479 C3478 1.399 . S
C3479 C3480 1.385 . S
C3480 H3466 0.931 . S
C3480 C3479 1.385 . S
C3480 C3481 1.389 1_556 S
C3481 C3480 1.389 1_554 S
C3481 C3482 1.387 . S
C3482 H3467 0.930 . S
C3482 C3477 1.390 . S
C3482 C3481 1.387 . S
H3483 C3495 0.930 . S
H3484 C3497 0.930 . S
H3485 C3498 0.930 . S
H3486 C3502 0.959 . S
H3487 C3502 0.959 . S
H3488 C3502 0.961 . S
H3489 C3503 0.960 . S
H3490 C3503 0.961 . S
H3491 C3503 0.959 . S
H3492 C3506 0.929 . S
H3493 C3507 0.931 . S
H3494 C3509 0.930 . S
C3495 H3483 0.930 . S
C3495 C3496 1.399 . S
C3495 C3500 1.399 . S
C3496 C3495 1.399 . S
C3496 C3497 1.376 . S
C3497 H3484 0.930 . S
C3497 C3496 1.376 . S
C3497 C3498 1.388 . S
C3498 H3485 0.930 . S
C3498 C3497 1.388 . S
C3498 C3499 1.390 . S
C3499 C3498 1.390 . S
C3499 C3500 1.394 . S
C3499 C3505 1.465 . S
C3500 C3495 1.399 . S
C3500 C3499 1.394 . S
C3500 C3501 1.516 . S
C3501 C3500 1.516 . S
C3501 C3502 1.502 . S
C3501 C3503 1.561 . S
C3501 C3504 1.526 . S
C3502 H3486 0.959 . S
C3502 H3487 0.959 . S
C3502 H3488 0.961 . S
C3502 C3501 1.502 . S
C3503 H3489 0.960 . S
C3503 H3490 0.961 . S
C3503 H3491 0.959 . S
C3503 C3501 1.561 . S
C3504 C3501 1.526 . S
C3504 C3505 1.396 . S
C3504 C3509 1.390 . S
C3505 C3499 1.465 . S
C3505 C3504 1.396 . S
C3505 C3506 1.399 . S
C3506 H3492 0.929 . S
C3506 C3505 1.399 . S
C3506 C3507 1.385 . S
C3507 H3493 0.931 . S
C3507 C3506 1.385 . S
C3507 C3508 1.389 . S
C3508 C3507 1.389 . S
C3508 C3509 1.387 . S
C3509 H3494 0.930 . S
C3509 C3504 1.390 . S
C3509 C3508 1.387 . S
H3510 C3522 0.930 . S
H3511 C3524 0.930 . S
H3512 C3525 0.930 . S
H3513 C3529 0.959 . S
H3514 C3529 0.959 . S
H3515 C3529 0.961 . S
H3516 C3530 0.960 . S
H3517 C3530 0.961 . S
H3518 C3530 0.959 . S
H3519 C3533 0.929 . S
H3520 C3534 0.931 . S
H3521 C3536 0.930 . S
C3522 H3510 0.930 . S
C3522 C3523 1.399 . S
C3522 C3527 1.399 . S
C3523 C3522 1.399 . S
C3523 C3524 1.376 . S
C3524 H3511 0.930 . S
C3524 C3523 1.376 . S
C3524 C3525 1.388 . S
C3525 H3512 0.930 . S
C3525 C3524 1.388 . S
C3525 C3526 1.390 . S
C3526 C3525 1.390 . S
C3526 C3527 1.394 . S
C3526 C3532 1.465 . S
C3527 C3522 1.399 . S
C3527 C3526 1.394 . S
C3527 C3528 1.516 . S
C3528 C3527 1.516 . S
C3528 C3529 1.502 . S
C3528 C3530 1.561 . S
C3528 C3531 1.526 . S
C3529 H3513 0.959 . S
C3529 H3514 0.959 . S
C3529 H3515 0.961 . S
C3529 C3528 1.502 . S
C3530 H3516 0.960 . S
C3530 H3517 0.961 . S
C3530 H3518 0.959 . S
C3530 C3528 1.561 . S
C3531 C3528 1.526 . S
C3531 C3532 1.396 . S
C3531 C3536 1.390 . S
C3532 C3526 1.465 . S
C3532 C3531 1.396 . S
C3532 C3533 1.399 . S
C3533 H3519 0.929 . S
C3533 C3532 1.399 . S
C3533 C3534 1.385 . S
C3534 H3520 0.931 . S
C3534 C3533 1.385 . S
C3534 C3535 1.389 . S
C3535 C3534 1.389 . S
C3535 C3536 1.387 . S
C3536 H3521 0.930 . S
C3536 C3531 1.390 . S
C3536 C3535 1.387 . S
H3537 C3549 0.930 . S
H3538 C3551 0.930 . S
H3539 C3552 0.930 . S
H3540 C3556 0.959 . S
H3541 C3556 0.959 . S
H3542 C3556 0.961 . S
H3543 C3557 0.960 . S
H3544 C3557 0.961 . S
H3545 C3557 0.959 . S
H3546 C3560 0.929 . S
H3547 C3561 0.931 . S
H3548 C3563 0.930 . S
C3549 H3537 0.930 . S
C3549 C3550 1.399 . S
C3549 C3554 1.399 . S
C3550 C3549 1.399 . S
C3550 C3551 1.376 . S
C3551 H3538 0.930 . S
C3551 C3550 1.376 . S
C3551 C3552 1.388 . S
C3552 H3539 0.930 . S
C3552 C3551 1.388 . S
C3552 C3553 1.390 . S
C3553 C3552 1.390 . S
C3553 C3554 1.394 . S
C3553 C3559 1.465 . S
C3554 C3549 1.399 . S
C3554 C3553 1.394 . S
C3554 C3555 1.516 . S
C3555 C3554 1.516 . S
C3555 C3556 1.502 . S
C3555 C3557 1.561 . S
C3555 C3558 1.526 . S
C3556 H3540 0.959 . S
C3556 H3541 0.959 . S
C3556 H3542 0.961 . S
C3556 C3555 1.502 . S
C3557 H3543 0.960 . S
C3557 H3544 0.961 . S
C3557 H3545 0.959 . S
C3557 C3555 1.561 . S
C3558 C3555 1.526 . S
C3558 C3559 1.396 . S
C3558 C3563 1.390 . S
C3559 C3553 1.465 . S
C3559 C3558 1.396 . S
C3559 C3560 1.399 . S
C3560 H3546 0.929 . S
C3560 C3559 1.399 . S
C3560 C3561 1.385 . S
C3561 H3547 0.931 . S
C3561 C3560 1.385 . S
C3561 C3562 1.389 . S
C3562 C3561 1.389 . S
C3562 C3563 1.387 . S
C3563 H3548 0.930 . S
C3563 C3558 1.390 . S
C3563 C3562 1.387 . S
H3564 C3576 0.930 . S
H3565 C3578 0.930 . S
H3566 C3579 0.930 . S
H3567 C3583 0.959 . S
H3568 C3583 0.959 . S
H3569 C3583 0.961 . S
H3570 C3584 0.960 . S
H3571 C3584 0.961 . S
H3572 C3584 0.959 . S
H3573 C3587 0.929 . S
H3574 C3588 0.931 . S
H3575 C3590 0.930 . S
C3576 H3564 0.930 . S
C3576 C3577 1.399 . S
C3576 C3581 1.399 . S
C3577 C3576 1.399 . S
C3577 C3578 1.376 . S
C3578 H3565 0.930 . S
C3578 C3577 1.376 . S
C3578 C3579 1.388 . S
C3579 H3566 0.930 . S
C3579 C3578 1.388 . S
C3579 C3580 1.390 . S
C3580 C3579 1.390 . S
C3580 C3581 1.394 . S
C3580 C3586 1.465 . S
C3581 C3576 1.399 . S
C3581 C3580 1.394 . S
C3581 C3582 1.516 . S
C3582 C3581 1.516 . S
C3582 C3583 1.502 . S
C3582 C3584 1.561 1_455 S
C3582 C3585 1.526 . S
C3583 H3567 0.959 . S
C3583 H3568 0.959 . S
C3583 H3569 0.961 . S
C3583 C3582 1.502 . S
C3584 H3570 0.960 . S
C3584 H3571 0.961 . S
C3584 H3572 0.959 . S
C3584 C3582 1.561 1_655 S
C3585 C3582 1.526 . S
C3585 C3586 1.396 . S
C3585 C3590 1.390 . S
C3586 C3580 1.465 . S
C3586 C3585 1.396 . S
C3586 C3587 1.399 . S
C3587 H3573 0.929 . S
C3587 C3586 1.399 . S
C3587 C3588 1.385 . S
C3588 H3574 0.931 . S
C3588 C3587 1.385 . S
C3588 C3589 1.389 . S
C3589 C3588 1.389 . S
C3589 C3590 1.387 . S
C3590 H3575 0.930 . S
C3590 C3585 1.390 . S
C3590 C3589 1.387 . S
H3591 C3603 0.930 . S
H3592 C3605 0.930 . S
H3593 C3606 0.930 . S
H3594 C3610 0.959 . S
H3595 C3610 0.959 . S
H3596 C3610 0.961 . S
H3597 C3611 0.960 . S
H3598 C3611 0.961 . S
H3599 C3611 0.959 . S
H3600 C3614 0.929 . S
H3601 C3615 0.931 . S
H3602 C3617 0.930 . S
C3603 H3591 0.930 . S
C3603 C3604 1.399 . S
C3603 C3608 1.399 . S
C3604 C3603 1.399 . S
C3604 C3605 1.376 . S
C3605 H3592 0.930 . S
C3605 C3604 1.376 . S
C3605 C3606 1.388 . S
C3606 H3593 0.930 . S
C3606 C3605 1.388 . S
C3606 C3607 1.390 . S
C3607 C3606 1.390 . S
C3607 C3608 1.394 . S
C3607 C3613 1.465 . S
C3608 C3603 1.399 . S
C3608 C3607 1.394 . S
C3608 C3609 1.516 . S
C3609 C3608 1.516 . S
C3609 C3610 1.502 . S
C3609 C3611 1.561 . S
C3609 C3612 1.526 . S
C3610 H3594 0.959 . S
C3610 H3595 0.959 . S
C3610 H3596 0.961 . S
C3610 C3609 1.502 . S
C3611 H3597 0.960 . S
C3611 H3598 0.961 . S
C3611 H3599 0.959 . S
C3611 C3609 1.561 . S
C3612 C3609 1.526 . S
C3612 C3613 1.396 . S
C3612 C3617 1.390 . S
C3613 C3607 1.465 . S
C3613 C3612 1.396 . S
C3613 C3614 1.399 . S
C3614 H3600 0.929 . S
C3614 C3613 1.399 . S
C3614 C3615 1.385 . S
C3615 H3601 0.931 . S
C3615 C3614 1.385 . S
C3615 C3616 1.389 . S
C3616 C3615 1.389 . S
C3616 C3617 1.387 . S
C3617 H3602 0.930 . S
C3617 C3612 1.390 . S
C3617 C3616 1.387 . S
H3618 C3630 0.930 . S
H3619 C3632 0.930 . S
H3620 C3633 0.930 . S
H3621 C3637 0.959 . S
H3622 C3637 0.959 . S
H3623 C3637 0.961 . S
H3624 C3638 0.960 . S
H3625 C3638 0.961 . S
H3626 C3638 0.959 . S
H3627 C3641 0.929 . S
H3628 C3642 0.931 . S
H3629 C3644 0.930 . S
C3630 H3618 0.930 . S
C3630 C3631 1.399 . S
C3630 C3635 1.399 . S
C3631 C3630 1.399 . S
C3631 C3632 1.376 . S
C3632 H3619 0.930 . S
C3632 C3631 1.376 . S
C3632 C3633 1.388 . S
C3633 H3620 0.930 . S
C3633 C3632 1.388 . S
C3633 C3634 1.390 . S
C3634 C3633 1.390 . S
C3634 C3635 1.394 . S
C3634 C3640 1.465 . S
C3635 C3630 1.399 . S
C3635 C3634 1.394 . S
C3635 C3636 1.516 . S
C3636 C3635 1.516 . S
C3636 C3637 1.502 . S
C3636 C3638 1.561 . S
C3636 C3639 1.526 . S
C3637 H3621 0.959 . S
C3637 H3622 0.959 . S
C3637 H3623 0.961 . S
C3637 C3636 1.502 . S
C3638 H3624 0.960 . S
C3638 H3625 0.961 . S
C3638 H3626 0.959 . S
C3638 C3636 1.561 . S
C3639 C3636 1.526 . S
C3639 C3640 1.396 . S
C3639 C3644 1.390 . S
C3640 C3634 1.465 . S
C3640 C3639 1.396 . S
C3640 C3641 1.399 . S
C3641 H3627 0.929 . S
C3641 C3640 1.399 . S
C3641 C3642 1.385 . S
C3642 H3628 0.931 . S
C3642 C3641 1.385 . S
C3642 C3643 1.389 . S
C3643 C3642 1.389 . S
C3643 C3644 1.387 . S
C3644 H3629 0.930 . S
C3644 C3639 1.390 . S
C3644 C3643 1.387 . S
H3645 C3657 0.930 . S
H3646 C3659 0.930 . S
H3647 C3660 0.930 . S
H3648 C3664 0.959 . S
H3649 C3664 0.959 . S
H3650 C3664 0.961 . S
H3651 C3665 0.960 . S
H3652 C3665 0.961 . S
H3653 C3665 0.959 . S
H3654 C3668 0.929 . S
H3655 C3669 0.931 . S
H3656 C3671 0.930 . S
C3657 H3645 0.930 . S
C3657 C3658 1.399 . S
C3657 C3662 1.399 . S
C3658 C3657 1.399 . S
C3658 C3659 1.376 . S
C3659 H3646 0.930 . S
C3659 C3658 1.376 . S
C3659 C3660 1.388 . S
C3660 H3647 0.930 . S
C3660 C3659 1.388 . S
C3660 C3661 1.390 . S
C3661 C3660 1.390 . S
C3661 C3662 1.394 . S
C3661 C3667 1.465 . S
C3662 C3657 1.399 . S
C3662 C3661 1.394 . S
C3662 C3663 1.516 . S
C3663 C3662 1.516 . S
C3663 C3664 1.502 . S
C3663 C3665 1.561 . S
C3663 C3666 1.526 . S
C3664 H3648 0.959 . S
C3664 H3649 0.959 . S
C3664 H3650 0.961 . S
C3664 C3663 1.502 . S
C3665 H3651 0.960 . S
C3665 H3652 0.961 . S
C3665 H3653 0.959 . S
C3665 C3663 1.561 . S
C3666 C3663 1.526 . S
C3666 C3667 1.396 . S
C3666 C3671 1.390 . S
C3667 C3661 1.465 . S
C3667 C3666 1.396 . S
C3667 C3668 1.399 . S
C3668 H3654 0.929 . S
C3668 C3667 1.399 . S
C3668 C3669 1.385 . S
C3669 H3655 0.931 . S
C3669 C3668 1.385 . S
C3669 C3670 1.389 . S
C3670 C3669 1.389 . S
C3670 C3671 1.387 . S
C3671 H3656 0.930 . S
C3671 C3666 1.390 . S
C3671 C3670 1.387 . S
H3672 C3684 0.930 1_565 S
H3673 C3686 0.930 . S
H3674 C3687 0.930 . S
H3675 C3691 0.959 . S
H3676 C3691 0.959 . S
H3677 C3691 0.961 . S
H3678 C3692 0.960 . S
H3679 C3692 0.961 . S
H3680 C3692 0.959 . S
H3681 C3695 0.929 . S
H3682 C3696 0.931 . S
H3683 C3698 0.930 . S
C3684 H3672 0.930 1_545 S
C3684 C3685 1.399 . S
C3684 C3689 1.399 . S
C3685 C3684 1.399 . S
C3685 C3686 1.376 . S
C3686 H3673 0.930 . S
C3686 C3685 1.376 . S
C3686 C3687 1.388 . S
C3687 H3674 0.930 . S
C3687 C3686 1.388 . S
C3687 C3688 1.390 . S
C3688 C3687 1.390 . S
C3688 C3689 1.394 . S
C3688 C3694 1.465 . S
C3689 C3684 1.399 . S
C3689 C3688 1.394 . S
C3689 C3690 1.516 . S
C3690 C3689 1.516 . S
C3690 C3691 1.502 1_645 S
C3690 C3692 1.562 1_545 S
C3690 C3693 1.525 . S
C3691 H3675 0.959 . S
C3691 H3676 0.959 . S
C3691 H3677 0.961 . S
C3691 C3690 1.502 1_465 S
C3692 H3678 0.960 . S
C3692 H3679 0.961 . S
C3692 H3680 0.959 . S
C3692 C3690 1.562 1_565 S
C3693 C3690 1.525 . S
C3693 C3694 1.396 . S
C3693 C3698 1.390 1_655 S
C3694 C3688 1.465 . S
C3694 C3693 1.396 . S
C3694 C3695 1.399 . S
C3695 H3681 0.929 . S
C3695 C3694 1.399 . S
C3695 C3696 1.385 1_655 S
C3696 H3682 0.931 . S
C3696 C3695 1.385 1_455 S
C3696 C3697 1.389 . S
C3697 C3696 1.389 . S
C3697 C3698 1.387 . S
C3698 H3683 0.930 . S
C3698 C3693 1.390 1_455 S
C3698 C3697 1.387 . S
H3699 C3711 0.930 . S
H3700 C3713 0.930 . S
H3701 C3714 0.930 . S
H3702 C3718 0.959 . S
H3703 C3718 0.959 . S
H3704 C3718 0.961 . S
H3705 C3719 0.960 . S
H3706 C3719 0.961 . S
H3707 C3719 0.959 . S
H3708 C3722 0.929 . S
H3709 C3723 0.931 . S
H3710 C3725 0.930 . S
C3711 H3699 0.930 . S
C3711 C3712 1.399 . S
C3711 C3716 1.399 . S
C3712 C3711 1.399 . S
C3712 C3713 1.376 . S
C3713 H3700 0.930 . S
C3713 C3712 1.376 . S
C3713 C3714 1.388 . S
C3714 H3701 0.930 . S
C3714 C3713 1.388 . S
C3714 C3715 1.390 . S
C3715 C3714 1.390 . S
C3715 C3716 1.394 . S
C3715 C3721 1.465 . S
C3716 C3711 1.399 . S
C3716 C3715 1.394 . S
C3716 C3717 1.516 . S
C3717 C3716 1.516 . S
C3717 C3718 1.502 . S
C3717 C3719 1.561 . S
C3717 C3720 1.526 . S
C3718 H3702 0.959 . S
C3718 H3703 0.959 . S
C3718 H3704 0.961 . S
C3718 C3717 1.502 . S
C3719 H3705 0.960 . S
C3719 H3706 0.961 . S
C3719 H3707 0.959 . S
C3719 C3717 1.561 . S
C3720 C3717 1.526 . S
C3720 C3721 1.396 . S
C3720 C3725 1.390 . S
C3721 C3715 1.465 . S
C3721 C3720 1.396 . S
C3721 C3722 1.399 . S
C3722 H3708 0.929 . S
C3722 C3721 1.399 . S
C3722 C3723 1.385 . S
C3723 H3709 0.931 . S
C3723 C3722 1.385 . S
C3723 C3724 1.389 . S
C3724 C3723 1.389 . S
C3724 C3725 1.387 . S
C3725 H3710 0.930 . S
C3725 C3720 1.390 . S
C3725 C3724 1.387 . S
H3726 C3738 0.930 . S
H3727 C3740 0.930 . S
H3728 C3741 0.930 . S
H3729 C3745 0.959 1_545 S
H3730 C3745 0.959 . S
H3731 C3745 0.961 . S
H3732 C3746 0.960 . S
H3733 C3746 0.961 . S
H3734 C3746 0.959 . S
H3735 C3749 0.929 . S
H3736 C3750 0.931 . S
H3737 C3752 0.901 1_565 S
C3738 H3726 0.930 . S
C3738 C3739 1.399 . S
C3738 C3743 1.399 . S
C3739 C3738 1.399 . S
C3739 C3740 1.376 . S
C3740 H3727 0.930 . S
C3740 C3739 1.376 . S
C3740 C3741 1.388 . S
C3741 H3728 0.930 . S
C3741 C3740 1.388 . S
C3741 C3742 1.390 . S
C3742 C3741 1.390 . S
C3742 C3743 1.394 . S
C3742 C3748 1.465 . S
C3743 C3738 1.399 . S
C3743 C3742 1.394 . S
C3743 C3744 1.516 . S
C3744 C3743 1.516 . S
C3744 C3745 1.502 1_545 S
C3744 C3746 1.561 1_545 S
C3744 C3747 1.526 . S
C3745 H3729 0.959 1_565 S
C3745 H3730 0.959 . S
C3745 H3731 0.961 . S
C3745 C3744 1.502 1_565 S
C3746 H3732 0.960 . S
C3746 H3733 0.961 . S
C3746 H3734 0.959 . S
C3746 C3744 1.561 1_565 S
C3747 C3744 1.526 . S
C3747 C3748 1.396 . S
C3747 C3752 1.390 . S
C3748 C3742 1.465 . S
C3748 C3747 1.396 . S
C3748 C3749 1.399 . S
C3749 H3735 0.929 . S
C3749 C3748 1.399 . S
C3749 C3750 1.385 . S
C3750 H3736 0.931 . S
C3750 C3749 1.385 . S
C3750 C3751 1.389 . S
C3751 C3750 1.389 . S
C3751 C3752 1.387 . S
C3752 H3737 0.901 1_545 S
C3752 C3747 1.390 . S
C3752 C3751 1.387 . S
H3753 C3765 0.930 . S
H3754 C3767 0.930 . S
H3755 C3768 0.930 . S
H3756 C3772 0.959 . S
H3757 C3772 0.959 . S
H3758 C3772 0.961 . S
H3759 C3773 0.960 . S
H3760 C3773 0.961 . S
H3761 C3773 0.959 . S
H3762 C3776 0.929 . S
H3763 C3777 0.931 . S
H3764 C3779 0.930 . S
C3765 H3753 0.930 . S
C3765 C3766 1.399 . S
C3765 C3770 1.399 . S
C3766 C3765 1.399 . S
C3766 C3767 1.376 . S
C3767 H3754 0.930 . S
C3767 C3766 1.376 . S
C3767 C3768 1.388 . S
C3768 H3755 0.930 . S
C3768 C3767 1.388 . S
C3768 C3769 1.390 . S
C3769 C3768 1.390 . S
C3769 C3770 1.394 . S
C3769 C3775 1.465 . S
C3770 C3765 1.399 . S
C3770 C3769 1.394 . S
C3770 C3771 1.516 . S
C3771 C3770 1.516 . S
C3771 C3772 1.502 . S
C3771 C3773 1.561 . S
C3771 C3774 1.526 . S
C3772 H3756 0.959 . S
C3772 H3757 0.959 . S
C3772 H3758 0.961 . S
C3772 C3771 1.502 . S
C3773 H3759 0.960 . S
C3773 H3760 0.961 . S
C3773 H3761 0.959 . S
C3773 C3771 1.561 . S
C3774 C3771 1.526 . S
C3774 C3775 1.396 . S
C3774 C3779 1.390 . S
C3775 C3769 1.465 . S
C3775 C3774 1.396 . S
C3775 C3776 1.399 . S
C3776 H3762 0.929 . S
C3776 C3775 1.399 . S
C3776 C3777 1.385 . S
C3777 H3763 0.931 . S
C3777 C3776 1.385 . S
C3777 C3778 1.389 . S
C3778 C3777 1.389 . S
C3778 C3779 1.387 . S
C3779 H3764 0.930 . S
C3779 C3774 1.390 . S
C3779 C3778 1.387 . S
H3780 C3792 0.930 1_455 S
H3781 C3794 0.930 . S
H3782 C3795 0.966 . S
H3783 C3799 0.959 . S
H3784 C3799 0.959 . S
H3785 C3799 0.961 . S
H3786 C3800 0.960 . S
H3787 C3800 0.961 . S
H3788 C3800 0.997 . S
H3789 C3803 0.929 1_565 S
H3790 C3804 0.946 . S
H3791 C3806 0.930 . S
C3792 H3780 0.930 1_655 S
C3792 C3793 1.399 . S
C3792 C3797 1.399 . S
C3793 C3792 1.399 . S
C3793 C3794 1.376 . S
C3794 H3781 0.930 . S
C3794 C3793 1.376 . S
C3794 C3795 1.388 . S
C3795 H3782 0.966 . S
C3795 C3794 1.388 . S
C3795 C3796 1.390 . S
C3796 C3795 1.390 . S
C3796 C3797 1.394 . S
C3796 C3802 1.465 . S
C3797 C3792 1.399 . S
C3797 C3796 1.394 . S
C3797 C3798 1.516 1_655 S
C3798 C3797 1.516 1_455 S
C3798 C3799 1.502 . S
C3798 C3800 1.561 . S
C3798 C3801 1.526 . S
C3799 H3783 0.959 . S
C3799 H3784 0.959 . S
C3799 H3785 0.961 . S
C3799 C3798 1.502 . S
C3800 H3786 0.960 . S
C3800 H3787 0.961 . S
C3800 H3788 0.997 . S
C3800 C3798 1.561 . S
C3801 C3798 1.526 . S
C3801 C3802 1.396 1_455 S
C3801 C3806 1.390 . S
C3802 C3796 1.465 . S
C3802 C3801 1.396 1_655 S
C3802 C3803 1.399 . S
C3803 H3789 0.929 1_545 S
C3803 C3802 1.399 . S
C3803 C3804 1.385 . S
C3804 H3790 0.946 . S
C3804 C3803 1.385 . S
C3804 C3805 1.389 1_655 S
C3805 C3804 1.389 1_455 S
C3805 C3806 1.387 . S
C3806 H3791 0.930 . S
C3806 C3801 1.390 . S
C3806 C3805 1.387 . S
H3807 C3819 0.930 . S
H3808 C3821 0.930 . S
H3809 C3822 0.930 . S
H3810 C3826 0.959 . S
H3811 C3826 0.959 . S
H3812 C3826 0.961 . S
H3813 C3827 0.960 . S
H3814 C3827 0.961 . S
H3815 C3827 0.959 . S
H3816 C3830 0.929 . S
H3817 C3831 0.931 . S
H3818 C3833 0.930 . S
C3819 H3807 0.930 . S
C3819 C3820 1.399 . S
C3819 C3824 1.399 . S
C3820 C3819 1.399 . S
C3820 C3821 1.376 . S
C3821 H3808 0.930 . S
C3821 C3820 1.376 . S
C3821 C3822 1.388 . S
C3822 H3809 0.930 . S
C3822 C3821 1.388 . S
C3822 C3823 1.390 . S
C3823 C3822 1.390 . S
C3823 C3824 1.394 . S
C3823 C3829 1.465 . S
C3824 C3819 1.399 . S
C3824 C3823 1.394 . S
C3824 C3825 1.516 . S
C3825 C3824 1.516 . S
C3825 C3826 1.502 . S
C3825 C3827 1.561 . S
C3825 C3828 1.526 . S
C3826 H3810 0.959 . S
C3826 H3811 0.959 . S
C3826 H3812 0.961 . S
C3826 C3825 1.502 . S
C3827 H3813 0.960 . S
C3827 H3814 0.961 . S
C3827 H3815 0.959 . S
C3827 C3825 1.561 . S
C3828 C3825 1.526 . S
C3828 C3829 1.396 . S
C3828 C3833 1.390 . S
C3829 C3823 1.465 . S
C3829 C3828 1.396 . S
C3829 C3830 1.399 . S
C3830 H3816 0.929 . S
C3830 C3829 1.399 . S
C3830 C3831 1.385 . S
C3831 H3817 0.931 . S
C3831 C3830 1.385 . S
C3831 C3832 1.389 . S
C3832 C3831 1.389 . S
C3832 C3833 1.387 . S
C3833 H3818 0.930 . S
C3833 C3828 1.390 . S
C3833 C3832 1.387 . S
H3834 C3846 0.930 . S
H3835 C3848 0.930 . S
H3836 C3849 0.930 . S
H3837 C3853 0.959 . S
H3838 C3853 0.959 1_565 S
H3839 C3853 0.961 1_565 S
H3840 C3854 0.959 . S
H3841 C3854 0.959 . S
H3842 C3854 0.959 1_545 S
H3843 C3857 0.929 . S
H3844 C3858 0.931 . S
H3845 C3860 0.930 . S
C3846 H3834 0.930 . S
C3846 C3847 1.399 . S
C3846 C3851 1.399 . S
C3847 C3846 1.399 . S
C3847 C3848 1.376 . S
C3848 H3835 0.930 . S
C3848 C3847 1.376 . S
C3848 C3849 1.388 . S
C3849 H3836 0.930 . S
C3849 C3848 1.388 . S
C3849 C3850 1.390 . S
C3850 C3849 1.390 . S
C3850 C3851 1.394 . S
C3850 C3856 1.465 . S
C3851 C3846 1.399 . S
C3851 C3850 1.394 . S
C3851 C3852 1.516 . S
C3852 C3851 1.516 . S
C3852 C3853 1.502 . S
C3852 C3854 1.564 1_545 S
C3852 C3855 1.526 . S
C3853 H3837 0.959 . S
C3853 H3838 0.959 1_545 S
C3853 H3839 0.961 1_545 S
C3853 C3852 1.502 . S
C3854 H3840 0.959 . S
C3854 H3841 0.959 . S
C3854 H3842 0.959 1_565 S
C3854 C3852 1.564 1_565 S
C3855 C3852 1.526 . S
C3855 C3856 1.396 . S
C3855 C3860 1.390 . S
C3856 C3850 1.465 . S
C3856 C3855 1.396 . S
C3856 C3857 1.399 . S
C3857 H3843 0.929 . S
C3857 C3856 1.399 . S
C3857 C3858 1.385 . S
C3858 H3844 0.931 . S
C3858 C3857 1.385 . S
C3858 C3859 1.389 . S
C3859 C3858 1.389 . S
C3859 C3860 1.387 . S
C3860 H3845 0.930 . S
C3860 C3855 1.390 . S
C3860 C3859 1.387 . S
H3861 C3873 0.930 . S
H3862 C3875 0.930 . S
H3863 C3876 0.930 . S
H3864 C3880 0.959 . S
H3865 C3880 0.959 . S
H3866 C3880 0.961 . S
H3867 C3881 0.960 . S
H3868 C3881 0.961 . S
H3869 C3881 0.959 . S
H3870 C3884 0.929 . S
H3871 C3885 0.931 . S
H3872 C3887 0.930 . S
C3873 H3861 0.930 . S
C3873 C3874 1.399 . S
C3873 C3878 1.399 . S
C3874 C3873 1.399 . S
C3874 C3875 1.376 . S
C3875 H3862 0.930 . S
C3875 C3874 1.376 . S
C3875 C3876 1.388 . S
C3876 H3863 0.930 . S
C3876 C3875 1.388 . S
C3876 C3877 1.390 . S
C3877 C3876 1.390 . S
C3877 C3878 1.394 . S
C3877 C3883 1.465 . S
C3878 C3873 1.399 . S
C3878 C3877 1.394 . S
C3878 C3879 1.516 . S
C3879 C3878 1.516 . S
C3879 C3880 1.502 . S
C3879 C3881 1.561 . S
C3879 C3882 1.526 . S
C3880 H3864 0.959 . S
C3880 H3865 0.959 . S
C3880 H3866 0.961 . S
C3880 C3879 1.502 . S
C3881 H3867 0.960 . S
C3881 H3868 0.961 . S
C3881 H3869 0.959 . S
C3881 C3879 1.561 . S
C3882 C3879 1.526 . S
C3882 C3883 1.396 . S
C3882 C3887 1.390 . S
C3883 C3877 1.465 . S
C3883 C3882 1.396 . S
C3883 C3884 1.399 . S
C3884 H3870 0.929 . S
C3884 C3883 1.399 . S
C3884 C3885 1.385 . S
C3885 H3871 0.931 . S
C3885 C3884 1.385 . S
C3885 C3886 1.389 . S
C3886 C3885 1.389 . S
C3886 C3887 1.387 . S
C3887 H3872 0.930 . S
C3887 C3882 1.390 . S
C3887 C3886 1.387 . S
H3888 C3900 0.930 . S
H3889 C3902 0.931 . S
H3890 C3903 0.930 . S
H3891 C3907 0.959 . S
H3892 C3907 0.959 . S
H3893 C3907 0.961 . S
H3894 C3908 0.960 . S
H3895 C3908 0.961 . S
H3896 C3908 0.959 . S
H3897 C3911 0.929 . S
H3898 C3912 0.931 . S
H3899 C3914 0.930 . S
C3900 H3888 0.930 . S
C3900 C3901 1.395 1_554 S
C3900 C3905 1.399 . S
C3901 C3900 1.395 1_556 S
C3901 C3902 1.368 . S
C3902 H3889 0.931 . S
C3902 C3901 1.368 . S
C3902 C3903 1.386 1_556 S
C3903 H3890 0.930 . S
C3903 C3902 1.386 1_554 S
C3903 C3904 1.390 . S
C3904 C3903 1.390 . S
C3904 C3905 1.394 . S
C3904 C3910 1.465 . S
C3905 C3900 1.399 . S
C3905 C3904 1.394 . S
C3905 C3906 1.516 1_565 S
C3906 C3905 1.516 1_545 S
C3906 C3907 1.502 . S
C3906 C3908 1.561 1_554 S
C3906 C3909 1.526 1_545 S
C3907 H3891 0.959 . S
C3907 H3892 0.959 . S
C3907 H3893 0.961 . S
C3907 C3906 1.502 . S
C3908 H3894 0.960 . S
C3908 H3895 0.961 . S
C3908 H3896 0.959 . S
C3908 C3906 1.561 1_556 S
C3909 C3906 1.526 1_565 S
C3909 C3910 1.396 . S
C3909 C3914 1.390 1_565 S
C3910 C3904 1.465 . S
C3910 C3909 1.396 . S
C3910 C3911 1.399 . S
C3911 H3897 0.929 . S
C3911 C3910 1.399 . S
C3911 C3912 1.385 . S
C3912 H3898 0.931 . S
C3912 C3911 1.385 . S
C3912 C3913 1.389 . S
C3913 C3912 1.389 . S
C3913 C3914 1.387 1_565 S
C3914 H3899 0.930 . S
C3914 C3909 1.390 1_545 S
C3914 C3913 1.387 1_545 S
H3915 C3927 0.930 . S
H3916 C3929 0.930 . S
H3917 C3930 0.930 . S
H3918 C3934 0.959 . S
H3919 C3934 0.959 . S
H3920 C3934 0.961 . S
H3921 C3935 0.960 . S
H3922 C3935 0.961 . S
H3923 C3935 0.959 . S
H3924 C3938 0.929 . S
H3925 C3939 0.931 . S
H3926 C3941 0.930 . S
C3927 H3915 0.930 . S
C3927 C3928 1.429 . S
C3927 C3932 1.399 . S
C3928 C3927 1.429 . S
C3928 C3929 1.352 1_554 S
C3929 H3916 0.930 . S
C3929 C3928 1.352 1_556 S
C3929 C3930 1.388 . S
C3930 H3917 0.930 . S
C3930 C3929 1.388 . S
C3930 C3931 1.390 1_556 S
C3931 C3930 1.390 1_554 S
C3931 C3932 1.393 . S
C3931 C3937 1.465 . S
C3932 C3927 1.399 . S
C3932 C3931 1.393 . S
C3932 C3933 1.516 . S
C3933 C3932 1.516 . S
C3933 C3934 1.502 . S
C3933 C3935 1.561 . S
C3933 C3936 1.526 . S
C3934 H3918 0.959 . S
C3934 H3919 0.959 . S
C3934 H3920 0.961 . S
C3934 C3933 1.502 . S
C3935 H3921 0.960 . S
C3935 H3922 0.961 . S
C3935 H3923 0.959 . S
C3935 C3933 1.561 . S
C3936 C3933 1.526 . S
C3936 C3937 1.396 . S
C3936 C3941 1.390 . S
C3937 C3931 1.465 . S
C3937 C3936 1.396 . S
C3937 C3938 1.399 1_554 S
C3938 H3924 0.929 . S
C3938 C3937 1.399 1_556 S
C3938 C3939 1.385 . S
C3939 H3925 0.931 . S
C3939 C3938 1.385 . S
C3939 C3940 1.389 1_556 S
C3940 C3939 1.389 1_554 S
C3940 C3941 1.387 . S
C3941 H3926 0.930 . S
C3941 C3936 1.390 . S
C3941 C3940 1.387 . S
H3942 C3954 0.930 . S
H3943 C3956 0.930 . S
H3944 C3957 0.930 . S
H3945 C3961 0.959 . S
H3946 C3961 0.959 . S
H3947 C3961 0.961 . S
H3948 C3962 0.960 . S
H3949 C3962 0.961 . S
H3950 C3962 0.959 . S
H3951 C3965 0.929 . S
H3952 C3966 0.931 . S
H3953 C3968 0.930 . S
C3954 H3942 0.930 . S
C3954 C3955 1.399 . S
C3954 C3959 1.399 . S
C3955 C3954 1.399 . S
C3955 C3956 1.376 . S
C3956 H3943 0.930 . S
C3956 C3955 1.376 . S
C3956 C3957 1.388 . S
C3957 H3944 0.930 . S
C3957 C3956 1.388 . S
C3957 C3958 1.390 . S
C3958 C3957 1.390 . S
C3958 C3959 1.394 . S
C3958 C3964 1.465 . S
C3959 C3954 1.399 . S
C3959 C3958 1.394 . S
C3959 C3960 1.516 . S
C3960 C3959 1.516 . S
C3960 C3961 1.502 . S
C3960 C3962 1.561 . S
C3960 C3963 1.526 . S
C3961 H3945 0.959 . S
C3961 H3946 0.959 . S
C3961 H3947 0.961 . S
C3961 C3960 1.502 . S
C3962 H3948 0.960 . S
C3962 H3949 0.961 . S
C3962 H3950 0.959 . S
C3962 C3960 1.561 . S
C3963 C3960 1.526 . S
C3963 C3964 1.396 . S
C3963 C3968 1.390 . S
C3964 C3958 1.465 . S
C3964 C3963 1.396 . S
C3964 C3965 1.399 . S
C3965 H3951 0.929 . S
C3965 C3964 1.399 . S
C3965 C3966 1.385 . S
C3966 H3952 0.931 . S
C3966 C3965 1.385 . S
C3966 C3967 1.389 . S
C3967 C3966 1.389 . S
C3967 C3968 1.387 . S
C3968 H3953 0.930 . S
C3968 C3963 1.390 . S
C3968 C3967 1.387 . S
H3969 C3981 0.930 . S
H3970 C3983 0.930 . S
H3971 C3984 0.930 . S
H3972 C3988 0.959 . S
H3973 C3988 0.959 . S
H3974 C3988 0.961 . S
H3975 C3989 0.960 . S
H3976 C3989 0.961 . S
H3977 C3989 0.959 . S
H3978 C3992 0.929 . S
H3979 C3993 0.931 . S
H3980 C3995 0.930 . S
C3981 H3969 0.930 . S
C3981 C3982 1.399 . S
C3981 C3986 1.399 . S
C3982 C3981 1.399 . S
C3982 C3983 1.376 . S
C3983 H3970 0.930 . S
C3983 C3982 1.376 . S
C3983 C3984 1.388 . S
C3984 H3971 0.930 . S
C3984 C3983 1.388 . S
C3984 C3985 1.390 . S
C3985 C3984 1.390 . S
C3985 C3986 1.394 . S
C3985 C3991 1.465 . S
C3986 C3981 1.399 . S
C3986 C3985 1.394 . S
C3986 C3987 1.516 . S
C3987 C3986 1.516 . S
C3987 C3988 1.502 . S
C3987 C3989 1.561 . S
C3987 C3990 1.526 . S
C3988 H3972 0.959 . S
C3988 H3973 0.959 . S
C3988 H3974 0.961 . S
C3988 C3987 1.502 . S
C3989 H3975 0.960 . S
C3989 H3976 0.961 . S
C3989 H3977 0.959 . S
C3989 C3987 1.561 . S
C3990 C3987 1.526 . S
C3990 C3991 1.396 . S
C3990 C3995 1.390 . S
C3991 C3985 1.465 . S
C3991 C3990 1.396 . S
C3991 C3992 1.399 . S
C3992 H3978 0.929 . S
C3992 C3991 1.399 . S
C3992 C3993 1.385 . S
C3993 H3979 0.931 . S
C3993 C3992 1.385 . S
C3993 C3994 1.389 . S
C3994 C3993 1.389 . S
C3994 C3995 1.387 . S
C3995 H3980 0.930 . S
C3995 C3990 1.390 . S
C3995 C3994 1.387 . S
H3996 C4008 0.930 . S
H3997 C4010 0.930 . S
H3998 C4011 0.930 . S
H3999 C4015 0.959 . S
H4000 C4015 0.959 . S
H4001 C4015 0.961 . S
H4002 C4016 0.960 . S
H4003 C4016 0.961 . S
H4004 C4016 0.959 . S
H4005 C4019 0.929 . S
H4006 C4020 0.931 . S
H4007 C4022 0.930 . S
C4008 H3996 0.930 . S
C4008 C4009 1.399 . S
C4008 C4013 1.399 . S
C4009 C4008 1.399 . S
C4009 C4010 1.376 . S
C4010 H3997 0.930 . S
C4010 C4009 1.376 . S
C4010 C4011 1.388 . S
C4011 H3998 0.930 . S
C4011 C4010 1.388 . S
C4011 C4012 1.390 . S
C4012 C4011 1.390 . S
C4012 C4013 1.394 . S
C4012 C4018 1.465 . S
C4013 C4008 1.399 . S
C4013 C4012 1.394 . S
C4013 C4014 1.516 . S
C4014 C4013 1.516 . S
C4014 C4015 1.502 . S
C4014 C4016 1.561 . S
C4014 C4017 1.526 . S
C4015 H3999 0.959 . S
C4015 H4000 0.959 . S
C4015 H4001 0.961 . S
C4015 C4014 1.502 . S
C4016 H4002 0.960 . S
C4016 H4003 0.961 . S
C4016 H4004 0.959 . S
C4016 C4014 1.561 . S
C4017 C4014 1.526 . S
C4017 C4018 1.396 . S
C4017 C4022 1.390 . S
C4018 C4012 1.465 . S
C4018 C4017 1.396 . S
C4018 C4019 1.399 . S
C4019 H4005 0.929 . S
C4019 C4018 1.399 . S
C4019 C4020 1.385 . S
C4020 H4006 0.931 . S
C4020 C4019 1.385 . S
C4020 C4021 1.389 . S
C4021 C4020 1.389 . S
C4021 C4022 1.387 . S
C4022 H4007 0.930 . S
C4022 C4017 1.390 . S
C4022 C4021 1.387 . S
H4023 C4035 0.930 . S
H4024 C4037 0.930 . S
H4025 C4038 0.930 . S
H4026 C4042 0.959 . S
H4027 C4042 0.959 . S
H4028 C4042 0.961 . S
H4029 C4043 0.960 . S
H4030 C4043 0.961 . S
H4031 C4043 0.959 . S
H4032 C4046 0.929 . S
H4033 C4047 0.931 . S
H4034 C4049 0.930 . S
C4035 H4023 0.930 . S
C4035 C4036 1.399 . S
C4035 C4040 1.399 . S
C4036 C4035 1.399 . S
C4036 C4037 1.376 . S
C4037 H4024 0.930 . S
C4037 C4036 1.376 . S
C4037 C4038 1.388 . S
C4038 H4025 0.930 . S
C4038 C4037 1.388 . S
C4038 C4039 1.390 . S
C4039 C4038 1.390 . S
C4039 C4040 1.394 . S
C4039 C4045 1.465 . S
C4040 C4035 1.399 . S
C4040 C4039 1.394 . S
C4040 C4041 1.516 . S
C4041 C4040 1.516 . S
C4041 C4042 1.502 . S
C4041 C4043 1.561 . S
C4041 C4044 1.526 . S
C4042 H4026 0.959 . S
C4042 H4027 0.959 . S
C4042 H4028 0.961 . S
C4042 C4041 1.502 . S
C4043 H4029 0.960 . S
C4043 H4030 0.961 . S
C4043 H4031 0.959 . S
C4043 C4041 1.561 . S
C4044 C4041 1.526 . S
C4044 C4045 1.396 . S
C4044 C4049 1.390 . S
C4045 C4039 1.465 . S
C4045 C4044 1.396 . S
C4045 C4046 1.399 . S
C4046 H4032 0.929 . S
C4046 C4045 1.399 . S
C4046 C4047 1.385 . S
C4047 H4033 0.931 . S
C4047 C4046 1.385 . S
C4047 C4048 1.389 . S
C4048 C4047 1.389 . S
C4048 C4049 1.387 . S
C4049 H4034 0.930 . S
C4049 C4044 1.390 . S
C4049 C4048 1.387 . S
H4050 C4062 0.930 . S
H4051 C4064 0.930 . S
H4052 C4065 0.930 . S
H4053 C4069 0.959 . S
H4054 C4069 0.959 . S
H4055 C4069 0.961 . S
H4056 C4070 0.960 . S
H4057 C4070 0.961 . S
H4058 C4070 0.959 . S
H4059 C4073 0.929 . S
H4060 C4074 0.931 . S
H4061 C4076 0.930 . S
C4062 H4050 0.930 . S
C4062 C4063 1.399 . S
C4062 C4067 1.399 . S
C4063 C4062 1.399 . S
C4063 C4064 1.376 . S
C4064 H4051 0.930 . S
C4064 C4063 1.376 . S
C4064 C4065 1.388 . S
C4065 H4052 0.930 . S
C4065 C4064 1.388 . S
C4065 C4066 1.390 . S
C4066 C4065 1.390 . S
C4066 C4067 1.394 . S
C4066 C4072 1.465 . S
C4067 C4062 1.399 . S
C4067 C4066 1.394 . S
C4067 C4068 1.516 . S
C4068 C4067 1.516 . S
C4068 C4069 1.502 . S
C4068 C4070 1.561 . S
C4068 C4071 1.526 . S
C4069 H4053 0.959 . S
C4069 H4054 0.959 . S
C4069 H4055 0.961 . S
C4069 C4068 1.502 . S
C4070 H4056 0.960 . S
C4070 H4057 0.961 . S
C4070 H4058 0.959 . S
C4070 C4068 1.561 . S
C4071 C4068 1.526 . S
C4071 C4072 1.396 . S
C4071 C4076 1.390 . S
C4072 C4066 1.465 . S
C4072 C4071 1.396 . S
C4072 C4073 1.399 . S
C4073 H4059 0.929 . S
C4073 C4072 1.399 . S
C4073 C4074 1.385 . S
C4074 H4060 0.931 . S
C4074 C4073 1.385 . S
C4074 C4075 1.389 . S
C4075 C4074 1.389 . S
C4075 C4076 1.387 . S
C4076 H4061 0.930 . S
C4076 C4071 1.390 . S
C4076 C4075 1.387 . S
H4077 C4089 0.930 . S
H4078 C4091 0.930 . S
H4079 C4092 0.930 . S
H4080 C4096 0.959 . S
H4081 C4096 0.959 . S
H4082 C4096 0.961 . S
H4083 C4097 0.960 . S
H4084 C4097 0.961 . S
H4085 C4097 0.959 . S
H4086 C4100 0.929 . S
H4087 C4101 0.931 . S
H4088 C4103 0.930 . S
C4089 H4077 0.930 . S
C4089 C4090 1.399 . S
C4089 C4094 1.399 . S
C4090 C4089 1.399 . S
C4090 C4091 1.376 . S
C4091 H4078 0.930 . S
C4091 C4090 1.376 . S
C4091 C4092 1.388 . S
C4092 H4079 0.930 . S
C4092 C4091 1.388 . S
C4092 C4093 1.390 . S
C4093 C4092 1.390 . S
C4093 C4094 1.394 . S
C4093 C4099 1.465 . S
C4094 C4089 1.399 . S
C4094 C4093 1.394 . S
C4094 C4095 1.516 . S
C4095 C4094 1.516 . S
C4095 C4096 1.502 . S
C4095 C4097 1.561 . S
C4095 C4098 1.526 . S
C4096 H4080 0.959 . S
C4096 H4081 0.959 . S
C4096 H4082 0.961 . S
C4096 C4095 1.502 . S
C4097 H4083 0.960 . S
C4097 H4084 0.961 . S
C4097 H4085 0.959 . S
C4097 C4095 1.561 . S
C4098 C4095 1.526 . S
C4098 C4099 1.396 . S
C4098 C4103 1.390 . S
C4099 C4093 1.465 . S
C4099 C4098 1.396 . S
C4099 C4100 1.399 . S
C4100 H4086 0.929 . S
C4100 C4099 1.399 . S
C4100 C4101 1.385 . S
C4101 H4087 0.931 . S
C4101 C4100 1.385 . S
C4101 C4102 1.389 . S
C4102 C4101 1.389 . S
C4102 C4103 1.387 . S
C4103 H4088 0.930 . S
C4103 C4098 1.390 . S
C4103 C4102 1.387 . S
H4104 C4116 0.930 . S
H4105 C4118 0.930 . S
H4106 C4119 0.930 . S
H4107 C4123 0.959 . S
H4108 C4123 0.959 1_655 S
H4109 C4123 0.961 . S
H4110 C4124 0.960 . S
H4111 C4124 0.961 . S
H4112 C4124 0.959 . S
H4113 C4127 0.929 . S
H4114 C4128 0.931 . S
H4115 C4130 0.930 . S
C4116 H4104 0.930 . S
C4116 C4117 1.399 . S
C4116 C4121 1.399 . S
C4117 C4116 1.399 . S
C4117 C4118 1.376 . S
C4118 H4105 0.930 . S
C4118 C4117 1.376 . S
C4118 C4119 1.388 . S
C4119 H4106 0.930 . S
C4119 C4118 1.388 . S
C4119 C4120 1.390 . S
C4120 C4119 1.390 . S
C4120 C4121 1.394 . S
C4120 C4126 1.465 . S
C4121 C4116 1.399 . S
C4121 C4120 1.394 . S
C4121 C4122 1.516 . S
C4122 C4121 1.516 . S
C4122 C4123 1.502 . S
C4122 C4124 1.561 . S
C4122 C4125 1.526 . S
C4123 H4107 0.959 . S
C4123 H4108 0.959 1_455 S
C4123 H4109 0.961 . S
C4123 C4122 1.502 . S
C4124 H4110 0.960 . S
C4124 H4111 0.961 . S
C4124 H4112 0.959 . S
C4124 C4122 1.561 . S
C4125 C4122 1.526 . S
C4125 C4126 1.396 . S
C4125 C4130 1.390 . S
C4126 C4120 1.465 . S
C4126 C4125 1.396 . S
C4126 C4127 1.399 . S
C4127 H4113 0.929 . S
C4127 C4126 1.399 . S
C4127 C4128 1.385 . S
C4128 H4114 0.931 . S
C4128 C4127 1.385 . S
C4128 C4129 1.389 . S
C4129 C4128 1.389 . S
C4129 C4130 1.387 . S
C4130 H4115 0.930 . S
C4130 C4125 1.390 . S
C4130 C4129 1.387 . S
H4131 C4143 0.930 . S
H4132 C4145 0.930 . S
H4133 C4146 0.930 . S
H4134 C4150 0.959 . S
H4135 C4150 0.959 . S
H4136 C4150 0.961 . S
H4137 C4151 0.960 . S
H4138 C4151 0.961 . S
H4139 C4151 0.959 . S
H4140 C4154 0.929 . S
H4141 C4155 0.931 . S
H4142 C4157 0.930 . S
C4143 H4131 0.930 . S
C4143 C4144 1.399 . S
C4143 C4148 1.399 . S
C4144 C4143 1.399 . S
C4144 C4145 1.376 . S
C4145 H4132 0.930 . S
C4145 C4144 1.376 . S
C4145 C4146 1.388 . S
C4146 H4133 0.930 . S
C4146 C4145 1.388 . S
C4146 C4147 1.390 . S
C4147 C4146 1.390 . S
C4147 C4148 1.394 . S
C4147 C4153 1.465 . S
C4148 C4143 1.399 . S
C4148 C4147 1.394 . S
C4148 C4149 1.516 . S
C4149 C4148 1.516 . S
C4149 C4150 1.502 . S
C4149 C4151 1.561 . S
C4149 C4152 1.526 . S
C4150 H4134 0.959 . S
C4150 H4135 0.959 . S
C4150 H4136 0.961 . S
C4150 C4149 1.502 . S
C4151 H4137 0.960 . S
C4151 H4138 0.961 . S
C4151 H4139 0.959 . S
C4151 C4149 1.561 . S
C4152 C4149 1.526 . S
C4152 C4153 1.396 . S
C4152 C4157 1.390 . S
C4153 C4147 1.465 . S
C4153 C4152 1.396 . S
C4153 C4154 1.399 . S
C4154 H4140 0.929 . S
C4154 C4153 1.399 . S
C4154 C4155 1.385 . S
C4155 H4141 0.931 . S
C4155 C4154 1.385 . S
C4155 C4156 1.389 . S
C4156 C4155 1.389 . S
C4156 C4157 1.387 . S
C4157 H4142 0.930 . S
C4157 C4152 1.390 . S
C4157 C4156 1.387 . S
H4158 C4170 0.930 . S
H4159 C4172 0.930 . S
H4160 C4173 0.930 . S
H4161 C4177 0.959 . S
H4162 C4177 0.959 . S
H4163 C4177 0.961 . S
H4164 C4178 0.960 . S
H4165 C4178 0.961 . S
H4166 C4178 0.959 . S
H4167 C4181 0.929 . S
H4168 C4182 0.931 . S
H4169 C4184 0.930 . S
C4170 H4158 0.930 . S
C4170 C4171 1.399 . S
C4170 C4175 1.399 . S
C4171 C4170 1.399 . S
C4171 C4172 1.376 . S
C4172 H4159 0.930 . S
C4172 C4171 1.376 . S
C4172 C4173 1.388 . S
C4173 H4160 0.930 . S
C4173 C4172 1.388 . S
C4173 C4174 1.390 . S
C4174 C4173 1.390 . S
C4174 C4175 1.394 . S
C4174 C4180 1.465 . S
C4175 C4170 1.399 . S
C4175 C4174 1.394 . S
C4175 C4176 1.516 . S
C4176 C4175 1.516 . S
C4176 C4177 1.502 . S
C4176 C4178 1.561 . S
C4176 C4179 1.526 . S
C4177 H4161 0.959 . S
C4177 H4162 0.959 . S
C4177 H4163 0.961 . S
C4177 C4176 1.502 . S
C4178 H4164 0.960 . S
C4178 H4165 0.961 . S
C4178 H4166 0.959 . S
C4178 C4176 1.561 . S
C4179 C4176 1.526 . S
C4179 C4180 1.396 . S
C4179 C4184 1.390 . S
C4180 C4174 1.465 . S
C4180 C4179 1.396 . S
C4180 C4181 1.399 . S
C4181 H4167 0.929 . S
C4181 C4180 1.399 . S
C4181 C4182 1.385 . S
C4182 H4168 0.931 . S
C4182 C4181 1.385 . S
C4182 C4183 1.389 . S
C4183 C4182 1.389 . S
C4183 C4184 1.387 . S
C4184 H4169 0.930 . S
C4184 C4179 1.390 . S
C4184 C4183 1.387 . S
H4185 C4197 0.930 . S
H4186 C4199 0.930 . S
H4187 C4200 0.930 . S
H4188 C4204 0.959 . S
H4189 C4204 0.959 . S
H4190 C4204 0.961 . S
H4191 C4205 0.960 . S
H4192 C4205 0.961 . S
H4193 C4205 0.959 . S
H4194 C4208 0.929 . S
H4195 C4209 0.931 . S
H4196 C4211 0.930 . S
C4197 H4185 0.930 . S
C4197 C4198 1.399 . S
C4197 C4202 1.399 . S
C4198 C4197 1.399 . S
C4198 C4199 1.376 . S
C4199 H4186 0.930 . S
C4199 C4198 1.376 . S
C4199 C4200 1.388 . S
C4200 H4187 0.930 . S
C4200 C4199 1.388 . S
C4200 C4201 1.390 . S
C4201 C4200 1.390 . S
C4201 C4202 1.394 . S
C4201 C4207 1.465 . S
C4202 C4197 1.399 . S
C4202 C4201 1.394 . S
C4202 C4203 1.516 . S
C4203 C4202 1.516 . S
C4203 C4204 1.502 . S
C4203 C4205 1.561 . S
C4203 C4206 1.526 . S
C4204 H4188 0.959 . S
C4204 H4189 0.959 . S
C4204 H4190 0.961 . S
C4204 C4203 1.502 . S
C4205 H4191 0.960 . S
C4205 H4192 0.961 . S
C4205 H4193 0.959 . S
C4205 C4203 1.561 . S
C4206 C4203 1.526 . S
C4206 C4207 1.396 . S
C4206 C4211 1.390 . S
C4207 C4201 1.465 . S
C4207 C4206 1.396 . S
C4207 C4208 1.399 . S
C4208 H4194 0.929 . S
C4208 C4207 1.399 . S
C4208 C4209 1.385 . S
C4209 H4195 0.931 . S
C4209 C4208 1.385 . S
C4209 C4210 1.389 . S
C4210 C4209 1.389 . S
C4210 C4211 1.387 . S
C4211 H4196 0.930 . S
C4211 C4206 1.390 . S
C4211 C4210 1.387 . S
H4212 C4224 0.930 . S
H4213 C4226 0.930 . S
H4214 C4227 0.930 . S
H4215 C4231 0.997 . S
H4216 C4231 0.962 . S
H4217 C4231 0.972 . S
H4218 C4232 0.960 . S
H4219 C4232 0.961 . S
H4220 C4232 0.959 . S
H4221 C4235 0.929 . S
H4222 C4236 0.931 . S
H4223 C4238 0.930 . S
C4224 H4212 0.930 . S
C4224 C4225 1.399 . S
C4224 C4229 1.399 . S
C4225 C4224 1.399 . S
C4225 C4226 1.376 . S
C4226 H4213 0.930 . S
C4226 C4225 1.376 . S
C4226 C4227 1.388 . S
C4227 H4214 0.930 . S
C4227 C4226 1.388 . S
C4227 C4228 1.390 . S
C4228 C4227 1.390 . S
C4228 C4229 1.394 . S
C4228 C4234 1.465 . S
C4229 C4224 1.399 . S
C4229 C4228 1.394 . S
C4229 C4230 1.516 . S
C4230 C4229 1.516 . S
C4230 C4231 1.455 1_455 S
C4230 C4232 1.561 . S
C4230 C4233 1.526 . S
C4231 H4215 0.997 . S
C4231 H4216 0.962 . S
C4231 H4217 0.972 . S
C4231 C4230 1.455 1_655 S
C4232 H4218 0.960 . S
C4232 H4219 0.961 . S
C4232 H4220 0.959 . S
C4232 C4230 1.561 . S
C4233 C4230 1.526 . S
C4233 C4234 1.396 . S
C4233 C4238 1.390 . S
C4234 C4228 1.465 . S
C4234 C4233 1.396 . S
C4234 C4235 1.399 . S
C4235 H4221 0.929 . S
C4235 C4234 1.399 . S
C4235 C4236 1.385 . S
C4236 H4222 0.931 . S
C4236 C4235 1.385 . S
C4236 C4237 1.389 . S
C4237 C4236 1.389 . S
C4237 C4238 1.387 . S
C4238 H4223 0.930 . S
C4238 C4233 1.390 . S
C4238 C4237 1.387 . S
H4239 C4251 0.930 . S
H4240 C4253 0.930 . S
H4241 C4254 0.930 . S
H4242 C4258 0.959 . S
H4243 C4258 0.959 . S
H4244 C4258 0.961 . S
H4245 C4259 0.960 . S
H4246 C4259 0.961 . S
H4247 C4259 0.959 . S
H4248 C4262 0.929 . S
H4249 C4263 0.931 . S
H4250 C4265 0.930 . S
C4251 H4239 0.930 . S
C4251 C4252 1.399 . S
C4251 C4256 1.399 . S
C4252 C4251 1.399 . S
C4252 C4253 1.376 . S
C4253 H4240 0.930 . S
C4253 C4252 1.376 . S
C4253 C4254 1.388 . S
C4254 H4241 0.930 . S
C4254 C4253 1.388 . S
C4254 C4255 1.390 . S
C4255 C4254 1.390 . S
C4255 C4256 1.394 . S
C4255 C4261 1.465 . S
C4256 C4251 1.399 . S
C4256 C4255 1.394 . S
C4256 C4257 1.516 . S
C4257 C4256 1.516 . S
C4257 C4258 1.502 . S
C4257 C4259 1.561 . S
C4257 C4260 1.526 . S
C4258 H4242 0.959 . S
C4258 H4243 0.959 . S
C4258 H4244 0.961 . S
C4258 C4257 1.502 . S
C4259 H4245 0.960 . S
C4259 H4246 0.961 . S
C4259 H4247 0.959 . S
C4259 C4257 1.561 . S
C4260 C4257 1.526 . S
C4260 C4261 1.396 . S
C4260 C4265 1.390 . S
C4261 C4255 1.465 . S
C4261 C4260 1.396 . S
C4261 C4262 1.399 . S
C4262 H4248 0.929 . S
C4262 C4261 1.399 . S
C4262 C4263 1.385 . S
C4263 H4249 0.931 . S
C4263 C4262 1.385 . S
C4263 C4264 1.389 . S
C4264 C4263 1.389 . S
C4264 C4265 1.387 . S
C4265 H4250 0.930 . S
C4265 C4260 1.390 . S
C4265 C4264 1.387 . S
H4266 C4278 0.930 . S
H4267 C4280 0.930 . S
H4268 C4281 0.930 . S
H4269 C4285 0.959 . S
H4270 C4285 0.959 1_554 S
H4271 C4285 0.961 . S
H4272 C4286 0.960 . S
H4273 C4286 0.961 1_554 S
H4274 C4286 0.959 . S
H4275 C4289 0.929 . S
H4276 C4290 0.931 . S
H4277 C4292 0.930 1_554 S
C4278 H4266 0.930 . S
C4278 C4279 1.399 . S
C4278 C4283 1.399 . S
C4279 C4278 1.399 . S
C4279 C4280 1.376 . S
C4280 H4267 0.930 . S
C4280 C4279 1.376 . S
C4280 C4281 1.388 . S
C4281 H4268 0.930 . S
C4281 C4280 1.388 . S
C4281 C4282 1.390 . S
C4282 C4281 1.390 . S
C4282 C4283 1.394 . S
C4282 C4288 1.465 . S
C4283 C4278 1.399 . S
C4283 C4282 1.394 . S
C4283 C4284 1.516 . S
C4284 C4283 1.516 . S
C4284 C4285 1.502 . S
C4284 C4286 1.561 . S
C4284 C4287 1.526 . S
C4285 H4269 0.959 . S
C4285 H4270 0.959 1_556 S
C4285 H4271 0.961 . S
C4285 C4284 1.502 . S
C4286 H4272 0.960 . S
C4286 H4273 0.961 1_556 S
C4286 H4274 0.959 . S
C4286 C4284 1.561 . S
C4287 C4284 1.526 . S
C4287 C4288 1.396 . S
C4287 C4292 1.390 . S
C4288 C4282 1.465 . S
C4288 C4287 1.396 . S
C4288 C4289 1.399 . S
C4289 H4275 0.929 . S
C4289 C4288 1.399 . S
C4289 C4290 1.385 . S
C4290 H4276 0.931 . S
C4290 C4289 1.385 . S
C4290 C4291 1.389 . S
C4291 C4290 1.389 . S
C4291 C4292 1.387 . S
C4292 H4277 0.930 1_556 S
C4292 C4287 1.390 . S
C4292 C4291 1.387 . S
H4293 C4305 0.930 . S
H4294 C4307 0.930 . S
H4295 C4308 0.930 . S
H4296 C4312 0.959 . S
H4297 C4312 0.959 . S
H4298 C4312 0.961 . S
H4299 C4313 0.960 . S
H4300 C4313 0.961 . S
H4301 C4313 0.959 . S
H4302 C4316 0.929 . S
H4303 C4317 0.931 . S
H4304 C4319 0.930 . S
C4305 H4293 0.930 . S
C4305 C4306 1.399 . S
C4305 C4310 1.399 . S
C4306 C4305 1.399 . S
C4306 C4307 1.376 . S
C4307 H4294 0.930 . S
C4307 C4306 1.376 . S
C4307 C4308 1.388 . S
C4308 H4295 0.930 . S
C4308 C4307 1.388 . S
C4308 C4309 1.390 . S
C4309 C4308 1.390 . S
C4309 C4310 1.394 . S
C4309 C4315 1.465 . S
C4310 C4305 1.399 . S
C4310 C4309 1.394 . S
C4310 C4311 1.516 . S
C4311 C4310 1.516 . S
C4311 C4312 1.502 . S
C4311 C4313 1.561 . S
C4311 C4314 1.526 . S
C4312 H4296 0.959 . S
C4312 H4297 0.959 . S
C4312 H4298 0.961 . S
C4312 C4311 1.502 . S
C4313 H4299 0.960 . S
C4313 H4300 0.961 . S
C4313 H4301 0.959 . S
C4313 C4311 1.561 . S
C4314 C4311 1.526 . S
C4314 C4315 1.396 . S
C4314 C4319 1.390 . S
C4315 C4309 1.465 . S
C4315 C4314 1.396 . S
C4315 C4316 1.399 . S
C4316 H4302 0.929 . S
C4316 C4315 1.399 . S
C4316 C4317 1.385 . S
C4317 H4303 0.931 . S
C4317 C4316 1.385 . S
C4317 C4318 1.389 . S
C4318 C4317 1.389 . S
C4318 C4319 1.387 . S
C4319 H4304 0.930 . S
C4319 C4314 1.390 . S
C4319 C4318 1.387 . S
H4320 C4332 0.930 . S
H4321 C4334 0.930 . S
H4322 C4335 0.930 . S
H4323 C4339 0.959 1_545 S
H4324 C4339 0.959 . S
H4325 C4339 0.961 . S
H4326 C4340 0.960 . S
H4327 C4340 0.961 . S
H4328 C4340 0.959 . S
H4329 C4343 0.929 . S
H4330 C4344 0.931 . S
H4331 C4346 0.930 1_565 S
C4332 H4320 0.930 . S
C4332 C4333 1.399 . S
C4332 C4337 1.399 . S
C4333 C4332 1.399 . S
C4333 C4334 1.376 . S
C4334 H4321 0.930 . S
C4334 C4333 1.376 . S
C4334 C4335 1.388 . S
C4335 H4322 0.930 . S
C4335 C4334 1.388 . S
C4335 C4336 1.390 . S
C4336 C4335 1.390 . S
C4336 C4337 1.394 . S
C4336 C4342 1.465 . S
C4337 C4332 1.399 . S
C4337 C4336 1.394 . S
C4337 C4338 1.516 . S
C4338 C4337 1.516 . S
C4338 C4339 1.502 1_545 S
C4338 C4340 1.561 1_545 S
C4338 C4341 1.526 . S
C4339 H4323 0.959 1_565 S
C4339 H4324 0.959 . S
C4339 H4325 0.961 . S
C4339 C4338 1.502 1_565 S
C4340 H4326 0.960 . S
C4340 H4327 0.961 . S
C4340 H4328 0.959 . S
C4340 C4338 1.561 1_565 S
C4341 C4338 1.526 . S
C4341 C4342 1.396 . S
C4341 C4346 1.390 . S
C4342 C4336 1.465 . S
C4342 C4341 1.396 . S
C4342 C4343 1.399 . S
C4343 H4329 0.929 . S
C4343 C4342 1.399 . S
C4343 C4344 1.385 . S
C4344 H4330 0.931 . S
C4344 C4343 1.385 . S
C4344 C4345 1.389 . S
C4345 C4344 1.389 . S
C4345 C4346 1.387 . S
C4346 H4331 0.930 1_545 S
C4346 C4341 1.390 . S
C4346 C4345 1.387 . S
H4347 C4359 0.930 . S
H4348 C4361 0.930 . S
H4349 C4362 0.930 . S
H4350 C4366 0.959 . S
H4351 C4366 0.959 . S
H4352 C4366 0.961 . S
H4353 C4367 0.960 . S
H4354 C4367 0.961 . S
H4355 C4367 0.959 . S
H4356 C4370 0.929 . S
H4357 C4371 0.931 . S
H4358 C4373 0.930 . S
C4359 H4347 0.930 . S
C4359 C4360 1.399 . S
C4359 C4364 1.399 . S
C4360 C4359 1.399 . S
C4360 C4361 1.376 . S
C4361 H4348 0.930 . S
C4361 C4360 1.376 . S
C4361 C4362 1.388 . S
C4362 H4349 0.930 . S
C4362 C4361 1.388 . S
C4362 C4363 1.390 . S
C4363 C4362 1.390 . S
C4363 C4364 1.394 . S
C4363 C4369 1.465 . S
C4364 C4359 1.399 . S
C4364 C4363 1.394 . S
C4364 C4365 1.516 . S
C4365 C4364 1.516 . S
C4365 C4366 1.502 . S
C4365 C4367 1.561 . S
C4365 C4368 1.526 . S
C4366 H4350 0.959 . S
C4366 H4351 0.959 . S
C4366 H4352 0.961 . S
C4366 C4365 1.502 . S
C4367 H4353 0.960 . S
C4367 H4354 0.961 . S
C4367 H4355 0.959 . S
C4367 C4365 1.561 . S
C4368 C4365 1.526 . S
C4368 C4369 1.396 . S
C4368 C4373 1.390 . S
C4369 C4363 1.465 . S
C4369 C4368 1.396 . S
C4369 C4370 1.399 . S
C4370 H4356 0.929 . S
C4370 C4369 1.399 . S
C4370 C4371 1.385 . S
C4371 H4357 0.931 . S
C4371 C4370 1.385 . S
C4371 C4372 1.389 . S
C4372 C4371 1.389 . S
C4372 C4373 1.387 . S
C4373 H4358 0.930 . S
C4373 C4368 1.390 . S
C4373 C4372 1.387 . S
H4374 C4386 0.930 1_565 S
H4375 C4388 0.930 . S
H4376 C4389 0.930 . S
H4377 C4393 0.959 1_545 S
H4378 C4393 0.959 . S
H4379 C4393 0.961 . S
H4380 C4394 0.960 . S
H4381 C4394 0.961 . S
H4382 C4394 0.959 . S
H4383 C4397 0.929 . S
H4384 C4398 0.931 . S
H4385 C4400 0.930 . S
C4386 H4374 0.930 1_545 S
C4386 C4387 1.399 . S
C4386 C4391 1.399 . S
C4387 C4386 1.399 . S
C4387 C4388 1.376 . S
C4388 H4375 0.930 . S
C4388 C4387 1.376 . S
C4388 C4389 1.388 . S
C4389 H4376 0.930 . S
C4389 C4388 1.388 . S
C4389 C4390 1.390 . S
C4390 C4389 1.390 . S
C4390 C4391 1.394 . S
C4390 C4396 1.465 . S
C4391 C4386 1.399 . S
C4391 C4390 1.394 . S
C4391 C4392 1.530 . S
C4392 C4391 1.530 . S
C4392 C4393 1.498 1_545 S
C4392 C4394 1.543 1_545 S
C4392 C4395 1.535 . S
C4393 H4377 0.959 1_565 S
C4393 H4378 0.959 . S
C4393 H4379 0.961 . S
C4393 C4392 1.498 1_565 S
C4394 H4380 0.960 . S
C4394 H4381 0.961 . S
C4394 H4382 0.959 . S
C4394 C4392 1.543 1_565 S
C4395 C4392 1.535 . S
C4395 C4396 1.396 . S
C4395 C4400 1.390 . S
C4396 C4390 1.465 . S
C4396 C4395 1.396 . S
C4396 C4397 1.399 . S
C4397 H4383 0.929 . S
C4397 C4396 1.399 . S
C4397 C4398 1.385 . S
C4398 H4384 0.931 . S
C4398 C4397 1.385 . S
C4398 C4399 1.389 . S
C4399 C4398 1.389 . S
C4399 C4400 1.387 . S
C4400 H4385 0.930 . S
C4400 C4395 1.390 . S
C4400 C4399 1.387 . S
H4401 C4413 0.930 . S
H4402 C4415 0.930 . S
H4403 C4416 0.930 . S
H4404 C4420 0.959 . S
H4405 C4420 0.959 . S
H4406 C4420 0.961 . S
H4407 C4421 0.960 . S
H4408 C4421 0.961 . S
H4409 C4421 0.959 . S
H4410 C4424 0.929 . S
H4411 C4425 0.931 . S
H4412 C4427 0.930 . S
C4413 H4401 0.930 . S
C4413 C4414 1.399 . S
C4413 C4418 1.399 . S
C4414 C4413 1.399 . S
C4414 C4415 1.376 . S
C4415 H4402 0.930 . S
C4415 C4414 1.376 . S
C4415 C4416 1.388 . S
C4416 H4403 0.930 . S
C4416 C4415 1.388 . S
C4416 C4417 1.390 . S
C4417 C4416 1.390 . S
C4417 C4418 1.394 . S
C4417 C4423 1.465 . S
C4418 C4413 1.399 . S
C4418 C4417 1.394 . S
C4418 C4419 1.516 . S
C4419 C4418 1.516 . S
C4419 C4420 1.502 . S
C4419 C4421 1.561 . S
C4419 C4422 1.526 . S
C4420 H4404 0.959 . S
C4420 H4405 0.959 . S
C4420 H4406 0.961 . S
C4420 C4419 1.502 . S
C4421 H4407 0.960 . S
C4421 H4408 0.961 . S
C4421 H4409 0.959 . S
C4421 C4419 1.561 . S
C4422 C4419 1.526 . S
C4422 C4423 1.396 . S
C4422 C4427 1.390 . S
C4423 C4417 1.465 . S
C4423 C4422 1.396 . S
C4423 C4424 1.399 . S
C4424 H4410 0.929 . S
C4424 C4423 1.399 . S
C4424 C4425 1.385 . S
C4425 H4411 0.931 . S
C4425 C4424 1.385 . S
C4425 C4426 1.389 . S
C4426 C4425 1.389 . S
C4426 C4427 1.387 . S
C4427 H4412 0.930 . S
C4427 C4422 1.390 . S
C4427 C4426 1.387 . S
H4428 C4440 0.930 . S
H4429 C4442 0.930 . S
H4430 C4443 0.930 . S
H4431 C4447 0.959 . S
H4432 C4447 0.959 . S
H4433 C4447 0.961 . S
H4434 C4448 0.960 . S
H4435 C4448 0.961 . S
H4436 C4448 0.959 . S
H4437 C4451 0.929 . S
H4438 C4452 0.931 . S
H4439 C4454 0.930 . S
C4440 H4428 0.930 . S
C4440 C4441 1.399 . S
C4440 C4445 1.399 . S
C4441 C4440 1.399 . S
C4441 C4442 1.376 . S
C4442 H4429 0.930 . S
C4442 C4441 1.376 . S
C4442 C4443 1.388 . S
C4443 H4430 0.930 . S
C4443 C4442 1.388 . S
C4443 C4444 1.390 . S
C4444 C4443 1.390 . S
C4444 C4445 1.394 . S
C4444 C4450 1.465 . S
C4445 C4440 1.399 . S
C4445 C4444 1.394 . S
C4445 C4446 1.516 . S
C4446 C4445 1.516 . S
C4446 C4447 1.502 . S
C4446 C4448 1.561 . S
C4446 C4449 1.526 . S
C4447 H4431 0.959 . S
C4447 H4432 0.959 . S
C4447 H4433 0.961 . S
C4447 C4446 1.502 . S
C4448 H4434 0.960 . S
C4448 H4435 0.961 . S
C4448 H4436 0.959 . S
C4448 C4446 1.561 . S
C4449 C4446 1.526 . S
C4449 C4450 1.396 . S
C4449 C4454 1.390 . S
C4450 C4444 1.465 . S
C4450 C4449 1.396 . S
C4450 C4451 1.399 . S
C4451 H4437 0.929 . S
C4451 C4450 1.399 . S
C4451 C4452 1.385 . S
C4452 H4438 0.931 . S
C4452 C4451 1.385 . S
C4452 C4453 1.389 . S
C4453 C4452 1.389 . S
C4453 C4454 1.387 . S
C4454 H4439 0.930 . S
C4454 C4449 1.390 . S
C4454 C4453 1.387 . S
H4455 C4467 0.930 . S
H4456 C4469 0.930 . S
H4457 C4470 0.930 . S
H4458 C4474 0.959 . S
H4459 C4474 0.959 . S
H4460 C4474 0.961 . S
H4461 C4475 0.960 . S
H4462 C4475 0.961 . S
H4463 C4475 0.959 . S
H4464 C4478 0.929 . S
H4465 C4479 0.931 . S
H4466 C4481 0.930 . S
C4467 H4455 0.930 . S
C4467 C4468 1.399 . S
C4467 C4472 1.399 . S
C4468 C4467 1.399 . S
C4468 C4469 1.376 . S
C4469 H4456 0.930 . S
C4469 C4468 1.376 . S
C4469 C4470 1.388 . S
C4470 H4457 0.930 . S
C4470 C4469 1.388 . S
C4470 C4471 1.390 . S
C4471 C4470 1.390 . S
C4471 C4472 1.394 . S
C4471 C4477 1.465 . S
C4472 C4467 1.399 . S
C4472 C4471 1.394 . S
C4472 C4473 1.516 . S
C4473 C4472 1.516 . S
C4473 C4474 1.502 . S
C4473 C4475 1.561 . S
C4473 C4476 1.526 . S
C4474 H4458 0.959 . S
C4474 H4459 0.959 . S
C4474 H4460 0.961 . S
C4474 C4473 1.502 . S
C4475 H4461 0.960 . S
C4475 H4462 0.961 . S
C4475 H4463 0.959 . S
C4475 C4473 1.561 . S
C4476 C4473 1.526 . S
C4476 C4477 1.396 . S
C4476 C4481 1.390 . S
C4477 C4471 1.465 . S
C4477 C4476 1.396 . S
C4477 C4478 1.399 . S
C4478 H4464 0.929 . S
C4478 C4477 1.399 . S
C4478 C4479 1.385 . S
C4479 H4465 0.931 . S
C4479 C4478 1.385 . S
C4479 C4480 1.389 . S
C4480 C4479 1.389 . S
C4480 C4481 1.387 . S
C4481 H4466 0.930 . S
C4481 C4476 1.390 . S
C4481 C4480 1.387 . S
H4482 C4494 0.930 . S
H4483 C4496 0.930 . S
H4484 C4497 0.930 . S
H4485 C4501 0.959 . S
H4486 C4501 0.959 . S
H4487 C4501 0.961 . S
H4488 C4502 0.960 . S
H4489 C4502 0.961 . S
H4490 C4502 0.959 . S
H4491 C4505 0.929 . S
H4492 C4506 0.931 . S
H4493 C4508 0.930 . S
C4494 H4482 0.930 . S
C4494 C4495 1.399 . S
C4494 C4499 1.399 . S
C4495 C4494 1.399 . S
C4495 C4496 1.376 1_545 S
C4496 H4483 0.930 . S
C4496 C4495 1.376 1_565 S
C4496 C4497 1.388 . S
C4497 H4484 0.930 . S
C4497 C4496 1.388 . S
C4497 C4498 1.360 1_565 S
C4498 C4497 1.360 1_545 S
C4498 C4499 1.432 . S
C4498 C4504 1.465 . S
C4499 C4494 1.399 . S
C4499 C4498 1.432 . S
C4499 C4500 1.516 . S
C4500 C4499 1.516 . S
C4500 C4501 1.502 . S
C4500 C4502 1.561 . S
C4500 C4503 1.526 . S
C4501 H4485 0.959 . S
C4501 H4486 0.959 . S
C4501 H4487 0.961 . S
C4501 C4500 1.502 . S
C4502 H4488 0.960 . S
C4502 H4489 0.961 . S
C4502 H4490 0.959 . S
C4502 C4500 1.561 . S
C4503 C4500 1.526 . S
C4503 C4504 1.432 . S
C4503 C4508 1.390 . S
C4504 C4498 1.465 . S
C4504 C4503 1.432 . S
C4504 C4505 1.371 1_545 S
C4505 H4491 0.929 . S
C4505 C4504 1.371 1_565 S
C4505 C4506 1.385 . S
C4506 H4492 0.931 . S
C4506 C4505 1.385 . S
C4506 C4507 1.389 1_565 S
C4507 C4506 1.389 1_545 S
C4507 C4508 1.387 . S
C4508 H4493 0.930 . S
C4508 C4503 1.390 . S
C4508 C4507 1.387 . S
H4509 C4521 0.930 . S
H4510 C4523 0.930 . S
H4511 C4524 0.930 . S
H4512 C4528 0.959 . S
H4513 C4528 0.959 . S
H4514 C4528 0.961 . S
H4515 C4529 0.960 . S
H4516 C4529 0.961 . S
H4517 C4529 0.959 . S
H4518 C4532 0.929 . S
H4519 C4533 0.931 . S
H4520 C4535 0.930 . S
C4521 H4509 0.930 . S
C4521 C4522 1.399 . S
C4521 C4526 1.399 . S
C4522 C4521 1.399 . S
C4522 C4523 1.376 . S
C4523 H4510 0.930 . S
C4523 C4522 1.376 . S
C4523 C4524 1.388 . S
C4524 H4511 0.930 . S
C4524 C4523 1.388 . S
C4524 C4525 1.390 . S
C4525 C4524 1.390 . S
C4525 C4526 1.394 . S
C4525 C4531 1.465 . S
C4526 C4521 1.399 . S
C4526 C4525 1.394 . S
C4526 C4527 1.516 . S
C4527 C4526 1.516 . S
C4527 C4528 1.502 . S
C4527 C4529 1.561 . S
C4527 C4530 1.526 . S
C4528 H4512 0.959 . S
C4528 H4513 0.959 . S
C4528 H4514 0.961 . S
C4528 C4527 1.502 . S
C4529 H4515 0.960 . S
C4529 H4516 0.961 . S
C4529 H4517 0.959 . S
C4529 C4527 1.561 . S
C4530 C4527 1.526 . S
C4530 C4531 1.396 . S
C4530 C4535 1.390 . S
C4531 C4525 1.465 . S
C4531 C4530 1.396 . S
C4531 C4532 1.399 . S
C4532 H4518 0.929 . S
C4532 C4531 1.399 . S
C4532 C4533 1.385 . S
C4533 H4519 0.931 . S
C4533 C4532 1.385 . S
C4533 C4534 1.389 . S
C4534 C4533 1.389 . S
C4534 C4535 1.387 . S
C4535 H4520 0.930 . S
C4535 C4530 1.390 . S
C4535 C4534 1.387 . S
H4536 C4548 0.930 . S
H4537 C4550 0.930 . S
H4538 C4551 0.930 . S
H4539 C4555 0.959 . S
H4540 C4555 0.959 . S
H4541 C4555 0.961 . S
H4542 C4556 0.960 . S
H4543 C4556 0.961 . S
H4544 C4556 0.959 . S
H4545 C4559 0.929 . S
H4546 C4560 0.931 . S
H4547 C4562 0.930 . S
C4548 H4536 0.930 . S
C4548 C4549 1.399 . S
C4548 C4553 1.399 . S
C4549 C4548 1.399 . S
C4549 C4550 1.376 . S
C4550 H4537 0.930 . S
C4550 C4549 1.376 . S
C4550 C4551 1.388 . S
C4551 H4538 0.930 . S
C4551 C4550 1.388 . S
C4551 C4552 1.390 . S
C4552 C4551 1.390 . S
C4552 C4553 1.394 . S
C4552 C4558 1.465 . S
C4553 C4548 1.399 . S
C4553 C4552 1.394 . S
C4553 C4554 1.516 . S
C4554 C4553 1.516 . S
C4554 C4555 1.502 . S
C4554 C4556 1.561 1_554 S
C4554 C4557 1.526 . S
C4555 H4539 0.959 . S
C4555 H4540 0.959 . S
C4555 H4541 0.961 . S
C4555 C4554 1.502 . S
C4556 H4542 0.960 . S
C4556 H4543 0.961 . S
C4556 H4544 0.959 . S
C4556 C4554 1.561 1_556 S
C4557 C4554 1.526 . S
C4557 C4558 1.396 . S
C4557 C4562 1.390 . S
C4558 C4552 1.465 . S
C4558 C4557 1.396 . S
C4558 C4559 1.399 . S
C4559 H4545 0.929 . S
C4559 C4558 1.399 . S
C4559 C4560 1.385 . S
C4560 H4546 0.931 . S
C4560 C4559 1.385 . S
C4560 C4561 1.389 . S
C4561 C4560 1.389 . S
C4561 C4562 1.387 . S
C4562 H4547 0.930 . S
C4562 C4557 1.390 . S
C4562 C4561 1.387 . S
H4563 C4575 0.930 . S
H4564 C4577 0.930 . S
H4565 C4578 0.930 . S
H4566 C4582 0.959 . S
H4567 C4582 0.959 . S
H4568 C4582 0.961 . S
H4569 C4583 0.960 . S
H4570 C4583 0.961 . S
H4571 C4583 0.959 . S
H4572 C4586 0.965 . S
H4573 C4587 0.931 . S
H4574 C4589 0.930 . S
C4575 H4563 0.930 . S
C4575 C4576 1.399 . S
C4575 C4580 1.399 . S
C4576 C4575 1.399 . S
C4576 C4577 1.376 . S
C4577 H4564 0.930 . S
C4577 C4576 1.376 . S
C4577 C4578 1.388 . S
C4578 H4565 0.930 . S
C4578 C4577 1.388 . S
C4578 C4579 1.390 . S
C4579 C4578 1.390 . S
C4579 C4580 1.394 . S
C4579 C4585 1.465 . S
C4580 C4575 1.399 . S
C4580 C4579 1.394 . S
C4580 C4581 1.516 . S
C4581 C4580 1.516 . S
C4581 C4582 1.502 . S
C4581 C4583 1.561 . S
C4581 C4584 1.526 . S
C4582 H4566 0.959 . S
C4582 H4567 0.959 . S
C4582 H4568 0.961 . S
C4582 C4581 1.502 . S
C4583 H4569 0.960 . S
C4583 H4570 0.961 . S
C4583 H4571 0.959 . S
C4583 C4581 1.561 . S
C4584 C4581 1.526 . S
C4584 C4585 1.396 . S
C4584 C4589 1.390 . S
C4585 C4579 1.465 . S
C4585 C4584 1.396 . S
C4585 C4586 1.399 . S
C4586 H4572 0.965 . S
C4586 C4585 1.399 . S
C4586 C4587 1.385 . S
C4587 H4573 0.931 . S
C4587 C4586 1.385 . S
C4587 C4588 1.389 . S
C4588 C4587 1.389 . S
C4588 C4589 1.387 . S
C4589 H4574 0.930 . S
C4589 C4584 1.390 . S
C4589 C4588 1.387 . S
H4590 C4602 0.930 . S
H4591 C4604 0.930 . S
H4592 C4605 0.930 . S
H4593 C4609 0.959 . S
H4594 C4609 0.959 . S
H4595 C4609 0.961 . S
H4596 C4610 0.960 . S
H4597 C4610 0.961 . S
H4598 C4610 0.959 . S
H4599 C4613 0.929 . S
H4600 C4614 0.931 . S
H4601 C4616 0.930 . S
C4602 H4590 0.930 . S
C4602 C4603 1.399 . S
C4602 C4607 1.399 . S
C4603 C4602 1.399 . S
C4603 C4604 1.376 . S
C4604 H4591 0.930 . S
C4604 C4603 1.376 . S
C4604 C4605 1.388 . S
C4605 H4592 0.930 . S
C4605 C4604 1.388 . S
C4605 C4606 1.390 . S
C4606 C4605 1.390 . S
C4606 C4607 1.394 . S
C4606 C4612 1.465 . S
C4607 C4602 1.399 . S
C4607 C4606 1.394 . S
C4607 C4608 1.516 . S
C4608 C4607 1.516 . S
C4608 C4609 1.502 . S
C4608 C4610 1.561 . S
C4608 C4611 1.526 . S
C4609 H4593 0.959 . S
C4609 H4594 0.959 . S
C4609 H4595 0.961 . S
C4609 C4608 1.502 . S
C4610 H4596 0.960 . S
C4610 H4597 0.961 . S
C4610 H4598 0.959 . S
C4610 C4608 1.561 . S
C4611 C4608 1.526 . S
C4611 C4612 1.396 . S
C4611 C4616 1.390 . S
C4612 C4606 1.465 . S
C4612 C4611 1.396 . S
C4612 C4613 1.399 . S
C4613 H4599 0.929 . S
C4613 C4612 1.399 . S
C4613 C4614 1.385 . S
C4614 H4600 0.931 . S
C4614 C4613 1.385 . S
C4614 C4615 1.389 . S
C4615 C4614 1.389 . S
C4615 C4616 1.387 . S
C4616 H4601 0.930 . S
C4616 C4611 1.390 . S
C4616 C4615 1.387 . S
H4617 C4629 0.930 . S
H4618 C4631 0.930 . S
H4619 C4632 0.930 . S
H4620 C4636 0.959 . S
H4621 C4636 0.959 . S
H4622 C4636 0.961 . S
H4623 C4637 0.960 . S
H4624 C4637 0.961 . S
H4625 C4637 0.959 . S
H4626 C4640 0.929 . S
H4627 C4641 0.931 . S
H4628 C4643 0.930 . S
C4629 H4617 0.930 . S
C4629 C4630 1.399 . S
C4629 C4634 1.399 . S
C4630 C4629 1.399 . S
C4630 C4631 1.376 . S
C4631 H4618 0.930 . S
C4631 C4630 1.376 . S
C4631 C4632 1.388 . S
C4632 H4619 0.930 . S
C4632 C4631 1.388 . S
C4632 C4633 1.390 . S
C4633 C4632 1.390 . S
C4633 C4634 1.394 . S
C4633 C4639 1.465 . S
C4634 C4629 1.399 . S
C4634 C4633 1.394 . S
C4634 C4635 1.516 . S
C4635 C4634 1.516 . S
C4635 C4636 1.502 . S
C4635 C4637 1.561 . S
C4635 C4638 1.526 . S
C4636 H4620 0.959 . S
C4636 H4621 0.959 . S
C4636 H4622 0.961 . S
C4636 C4635 1.502 . S
C4637 H4623 0.960 . S
C4637 H4624 0.961 . S
C4637 H4625 0.959 . S
C4637 C4635 1.561 . S
C4638 C4635 1.526 . S
C4638 C4639 1.396 . S
C4638 C4643 1.390 . S
C4639 C4633 1.465 . S
C4639 C4638 1.396 . S
C4639 C4640 1.399 . S
C4640 H4626 0.929 . S
C4640 C4639 1.399 . S
C4640 C4641 1.385 . S
C4641 H4627 0.931 . S
C4641 C4640 1.385 . S
C4641 C4642 1.389 . S
C4642 C4641 1.389 . S
C4642 C4643 1.387 . S
C4643 H4628 0.930 . S
C4643 C4638 1.390 . S
C4643 C4642 1.387 . S
H4644 C4656 0.930 . S
H4645 C4658 0.930 . S
H4646 C4659 0.930 . S
H4647 C4663 0.959 . S
H4648 C4663 0.959 . S
H4649 C4663 0.961 . S
H4650 C4664 0.960 . S
H4651 C4664 0.961 . S
H4652 C4664 0.959 . S
H4653 C4667 0.929 . S
H4654 C4668 0.931 . S
H4655 C4670 0.930 . S
C4656 H4644 0.930 . S
C4656 C4657 1.399 . S
C4656 C4661 1.399 . S
C4657 C4656 1.399 . S
C4657 C4658 1.376 . S
C4658 H4645 0.930 . S
C4658 C4657 1.376 . S
C4658 C4659 1.388 . S
C4659 H4646 0.930 . S
C4659 C4658 1.388 . S
C4659 C4660 1.390 . S
C4660 C4659 1.390 . S
C4660 C4661 1.394 . S
C4660 C4666 1.465 . S
C4661 C4656 1.399 . S
C4661 C4660 1.394 . S
C4661 C4662 1.516 . S
C4662 C4661 1.516 . S
C4662 C4663 1.502 . S
C4662 C4664 1.561 . S
C4662 C4665 1.526 . S
C4663 H4647 0.959 . S
C4663 H4648 0.959 . S
C4663 H4649 0.961 . S
C4663 C4662 1.502 . S
C4664 H4650 0.960 . S
C4664 H4651 0.961 . S
C4664 H4652 0.959 . S
C4664 C4662 1.561 . S
C4665 C4662 1.526 . S
C4665 C4666 1.396 . S
C4665 C4670 1.390 . S
C4666 C4660 1.465 . S
C4666 C4665 1.396 . S
C4666 C4667 1.399 . S
C4667 H4653 0.929 . S
C4667 C4666 1.399 . S
C4667 C4668 1.385 . S
C4668 H4654 0.931 . S
C4668 C4667 1.385 . S
C4668 C4669 1.389 . S
C4669 C4668 1.389 . S
C4669 C4670 1.387 . S
C4670 H4655 0.930 . S
C4670 C4665 1.390 . S
C4670 C4669 1.387 . S
H4671 C4683 0.930 . S
H4672 C4685 0.930 . S
H4673 C4686 0.930 . S
H4674 C4690 0.959 . S
H4675 C4690 0.959 . S
H4676 C4690 0.961 . S
H4677 C4691 0.960 . S
H4678 C4691 0.961 . S
H4679 C4691 0.959 . S
H4680 C4694 0.929 . S
H4681 C4695 0.931 . S
H4682 C4697 0.930 . S
C4683 H4671 0.930 . S
C4683 C4684 1.399 . S
C4683 C4688 1.399 . S
C4684 C4683 1.399 . S
C4684 C4685 1.376 . S
C4685 H4672 0.930 . S
C4685 C4684 1.376 . S
C4685 C4686 1.388 . S
C4686 H4673 0.930 . S
C4686 C4685 1.388 . S
C4686 C4687 1.390 . S
C4687 C4686 1.390 . S
C4687 C4688 1.394 . S
C4687 C4693 1.465 . S
C4688 C4683 1.399 . S
C4688 C4687 1.394 . S
C4688 C4689 1.516 . S
C4689 C4688 1.516 . S
C4689 C4690 1.502 . S
C4689 C4691 1.561 . S
C4689 C4692 1.526 . S
C4690 H4674 0.959 . S
C4690 H4675 0.959 . S
C4690 H4676 0.961 . S
C4690 C4689 1.502 . S
C4691 H4677 0.960 . S
C4691 H4678 0.961 . S
C4691 H4679 0.959 . S
C4691 C4689 1.561 . S
C4692 C4689 1.526 . S
C4692 C4693 1.396 . S
C4692 C4697 1.390 . S
C4693 C4687 1.465 . S
C4693 C4692 1.396 . S
C4693 C4694 1.399 . S
C4694 H4680 0.929 . S
C4694 C4693 1.399 . S
C4694 C4695 1.385 . S
C4695 H4681 0.931 . S
C4695 C4694 1.385 . S
C4695 C4696 1.389 . S
C4696 C4695 1.389 . S
C4696 C4697 1.387 . S
C4697 H4682 0.930 . S
C4697 C4692 1.390 . S
C4697 C4696 1.387 . S
H4698 C4710 0.930 . S
H4699 C4712 0.930 . S
H4700 C4713 0.930 . S
H4701 C4717 0.959 . S
H4702 C4717 0.959 . S
H4703 C4717 0.961 . S
H4704 C4718 0.960 . S
H4705 C4718 0.961 . S
H4706 C4718 0.959 . S
H4707 C4721 0.929 . S
H4708 C4722 0.931 . S
H4709 C4724 0.930 . S
C4710 H4698 0.930 . S
C4710 C4711 1.399 . S
C4710 C4715 1.399 . S
C4711 C4710 1.399 . S
C4711 C4712 1.376 . S
C4712 H4699 0.930 . S
C4712 C4711 1.376 . S
C4712 C4713 1.388 . S
C4713 H4700 0.930 . S
C4713 C4712 1.388 . S
C4713 C4714 1.390 . S
C4714 C4713 1.390 . S
C4714 C4715 1.394 . S
C4714 C4720 1.465 . S
C4715 C4710 1.399 . S
C4715 C4714 1.394 . S
C4715 C4716 1.516 . S
C4716 C4715 1.516 . S
C4716 C4717 1.502 . S
C4716 C4718 1.561 . S
C4716 C4719 1.526 . S
C4717 H4701 0.959 . S
C4717 H4702 0.959 . S
C4717 H4703 0.961 . S
C4717 C4716 1.502 . S
C4718 H4704 0.960 . S
C4718 H4705 0.961 . S
C4718 H4706 0.959 . S
C4718 C4716 1.561 . S
C4719 C4716 1.526 . S
C4719 C4720 1.396 . S
C4719 C4724 1.390 . S
C4720 C4714 1.465 . S
C4720 C4719 1.396 . S
C4720 C4721 1.399 . S
C4721 H4707 0.929 . S
C4721 C4720 1.399 . S
C4721 C4722 1.385 . S
C4722 H4708 0.931 . S
C4722 C4721 1.385 . S
C4722 C4723 1.389 . S
C4723 C4722 1.389 . S
C4723 C4724 1.387 . S
C4724 H4709 0.930 . S
C4724 C4719 1.390 . S
C4724 C4723 1.387 . S
H4725 C4737 0.930 . S
H4726 C4739 0.930 . S
H4727 C4740 0.930 . S
H4728 C4744 0.959 . S
H4729 C4744 0.959 . S
H4730 C4744 0.961 . S
H4731 C4745 0.960 . S
H4732 C4745 0.961 . S
H4733 C4745 0.959 . S
H4734 C4748 0.929 . S
H4735 C4749 0.931 . S
H4736 C4751 0.930 . S
C4737 H4725 0.930 . S
C4737 C4738 1.399 . S
C4737 C4742 1.399 . S
C4738 C4737 1.399 . S
C4738 C4739 1.376 . S
C4739 H4726 0.930 . S
C4739 C4738 1.376 . S
C4739 C4740 1.388 . S
C4740 H4727 0.930 . S
C4740 C4739 1.388 . S
C4740 C4741 1.390 . S
C4741 C4740 1.390 . S
C4741 C4742 1.394 . S
C4741 C4747 1.465 . S
C4742 C4737 1.399 . S
C4742 C4741 1.394 . S
C4742 C4743 1.516 . S
C4743 C4742 1.516 . S
C4743 C4744 1.502 . S
C4743 C4745 1.561 . S
C4743 C4746 1.526 . S
C4744 H4728 0.959 . S
C4744 H4729 0.959 . S
C4744 H4730 0.961 . S
C4744 C4743 1.502 . S
C4745 H4731 0.960 . S
C4745 H4732 0.961 . S
C4745 H4733 0.959 . S
C4745 C4743 1.561 . S
C4746 C4743 1.526 . S
C4746 C4747 1.396 . S
C4746 C4751 1.390 . S
C4747 C4741 1.465 . S
C4747 C4746 1.396 . S
C4747 C4748 1.399 . S
C4748 H4734 0.929 . S
C4748 C4747 1.399 . S
C4748 C4749 1.385 . S
C4749 H4735 0.931 . S
C4749 C4748 1.385 . S
C4749 C4750 1.389 . S
C4750 C4749 1.389 . S
C4750 C4751 1.387 . S
C4751 H4736 0.930 . S
C4751 C4746 1.390 . S
C4751 C4750 1.387 . S
H4752 C4764 0.930 . S
H4753 C4766 0.930 . S
H4754 C4767 0.930 . S
H4755 C4771 0.959 . S
H4756 C4771 0.959 . S
H4757 C4771 0.961 . S
H4758 C4772 0.960 . S
H4759 C4772 0.961 . S
H4760 C4772 0.959 . S
H4761 C4775 0.929 . S
H4762 C4776 0.931 . S
H4763 C4778 0.930 . S
C4764 H4752 0.930 . S
C4764 C4765 1.399 . S
C4764 C4769 1.399 . S
C4765 C4764 1.399 . S
C4765 C4766 1.376 . S
C4766 H4753 0.930 . S
C4766 C4765 1.376 . S
C4766 C4767 1.388 . S
C4767 H4754 0.930 . S
C4767 C4766 1.388 . S
C4767 C4768 1.390 . S
C4768 C4767 1.390 . S
C4768 C4769 1.394 . S
C4768 C4774 1.465 . S
C4769 C4764 1.399 . S
C4769 C4768 1.394 . S
C4769 C4770 1.516 . S
C4770 C4769 1.516 . S
C4770 C4771 1.502 . S
C4770 C4772 1.561 . S
C4770 C4773 1.526 . S
C4771 H4755 0.959 . S
C4771 H4756 0.959 . S
C4771 H4757 0.961 . S
C4771 C4770 1.502 . S
C4772 H4758 0.960 . S
C4772 H4759 0.961 . S
C4772 H4760 0.959 . S
C4772 C4770 1.561 . S
C4773 C4770 1.526 . S
C4773 C4774 1.396 . S
C4773 C4778 1.390 . S
C4774 C4768 1.465 . S
C4774 C4773 1.396 . S
C4774 C4775 1.399 . S
C4775 H4761 0.929 . S
C4775 C4774 1.399 . S
C4775 C4776 1.385 . S
C4776 H4762 0.931 . S
C4776 C4775 1.385 . S
C4776 C4777 1.389 . S
C4777 C4776 1.389 . S
C4777 C4778 1.387 . S
C4778 H4763 0.930 . S
C4778 C4773 1.390 . S
C4778 C4777 1.387 . S
H4779 C4791 0.930 . S
H4780 C4793 0.930 . S
H4781 C4794 0.930 . S
H4782 C4798 0.959 . S
H4783 C4798 0.959 . S
H4784 C4798 0.961 . S
H4785 C4799 0.960 . S
H4786 C4799 0.961 . S
H4787 C4799 0.959 . S
H4788 C4802 0.929 . S
H4789 C4803 0.931 . S
H4790 C4805 0.930 . S
C4791 H4779 0.930 . S
C4791 C4792 1.399 . S
C4791 C4796 1.399 . S
C4792 C4791 1.399 . S
C4792 C4793 1.376 . S
C4793 H4780 0.930 . S
C4793 C4792 1.376 . S
C4793 C4794 1.388 . S
C4794 H4781 0.930 . S
C4794 C4793 1.388 . S
C4794 C4795 1.390 . S
C4795 C4794 1.390 . S
C4795 C4796 1.394 . S
C4795 C4801 1.465 . S
C4796 C4791 1.399 . S
C4796 C4795 1.394 . S
C4796 C4797 1.516 . S
C4797 C4796 1.516 . S
C4797 C4798 1.502 . S
C4797 C4799 1.561 . S
C4797 C4800 1.526 . S
C4798 H4782 0.959 . S
C4798 H4783 0.959 . S
C4798 H4784 0.961 . S
C4798 C4797 1.502 . S
C4799 H4785 0.960 . S
C4799 H4786 0.961 . S
C4799 H4787 0.959 . S
C4799 C4797 1.561 . S
C4800 C4797 1.526 . S
C4800 C4801 1.396 . S
C4800 C4805 1.390 . S
C4801 C4795 1.465 . S
C4801 C4800 1.396 . S
C4801 C4802 1.399 . S
C4802 H4788 0.929 . S
C4802 C4801 1.399 . S
C4802 C4803 1.385 . S
C4803 H4789 0.931 . S
C4803 C4802 1.385 . S
C4803 C4804 1.389 . S
C4804 C4803 1.389 . S
C4804 C4805 1.387 . S
C4805 H4790 0.930 . S
C4805 C4800 1.390 . S
C4805 C4804 1.387 . S
H4806 C4818 0.930 . S
H4807 C4820 0.930 1_655 S
H4808 C4821 0.912 1_655 S
H4809 C4825 0.959 . S
H4810 C4825 0.959 . S
H4811 C4825 0.961 . S
H4812 C4826 0.960 . S
H4813 C4826 0.961 . S
H4814 C4826 0.959 . S
H4815 C4829 0.929 1_655 S
H4816 C4830 0.931 . S
H4817 C4832 0.931 1_556 S
C4818 H4806 0.930 . S
C4818 C4819 1.399 1_556 S
C4818 C4823 1.399 . S
C4819 C4818 1.399 1_554 S
C4819 C4820 1.376 . S
C4820 H4807 0.930 1_455 S
C4820 C4819 1.376 . S
C4820 C4821 1.397 . S
C4821 H4808 0.912 1_455 S
C4821 C4820 1.397 . S
C4821 C4822 1.400 . S
C4822 C4821 1.400 . S
C4822 C4823 1.394 1_554 S
C4822 C4828 1.465 . S
C4823 C4818 1.399 . S
C4823 C4822 1.394 1_556 S
C4823 C4824 1.516 . S
C4824 C4823 1.516 . S
C4824 C4825 1.502 . S
C4824 C4826 1.561 . S
C4824 C4827 1.493 1_556 S
C4825 H4809 0.959 . S
C4825 H4810 0.959 . S
C4825 H4811 0.961 . S
C4825 C4824 1.502 . S
C4826 H4812 0.960 . S
C4826 H4813 0.961 . S
C4826 H4814 0.959 . S
C4826 C4824 1.561 . S
C4827 C4824 1.493 1_554 S
C4827 C4828 1.445 . S
C4827 C4832 1.381 . S
C4828 C4822 1.465 . S
C4828 C4827 1.445 . S
C4828 C4829 1.399 . S
C4829 H4815 0.929 1_455 S
C4829 C4828 1.399 . S
C4829 C4830 1.385 . S
C4830 H4816 0.931 . S
C4830 C4829 1.385 . S
C4830 C4831 1.389 . S
C4831 C4830 1.389 . S
C4831 C4832 1.386 . S
C4832 H4817 0.931 1_554 S
C4832 C4827 1.381 . S
C4832 C4831 1.386 . S
H4833 C4845 0.930 . S
H4834 C4847 0.930 . S
H4835 C4848 0.930 . S
H4836 C4852 0.959 . S
H4837 C4852 0.959 . S
H4838 C4852 0.961 . S
H4839 C4853 0.960 . S
H4840 C4853 0.961 . S
H4841 C4853 0.959 . S
H4842 C4856 0.929 . S
H4843 C4857 0.931 . S
H4844 C4859 0.930 . S
C4845 H4833 0.930 . S
C4845 C4846 1.399 . S
C4845 C4850 1.399 . S
C4846 C4845 1.399 . S
C4846 C4847 1.376 . S
C4847 H4834 0.930 . S
C4847 C4846 1.376 . S
C4847 C4848 1.388 . S
C4848 H4835 0.930 . S
C4848 C4847 1.388 . S
C4848 C4849 1.390 . S
C4849 C4848 1.390 . S
C4849 C4850 1.394 . S
C4849 C4855 1.465 . S
C4850 C4845 1.399 . S
C4850 C4849 1.394 . S
C4850 C4851 1.516 . S
C4851 C4850 1.516 . S
C4851 C4852 1.502 . S
C4851 C4853 1.561 . S
C4851 C4854 1.526 . S
C4852 H4836 0.959 . S
C4852 H4837 0.959 . S
C4852 H4838 0.961 . S
C4852 C4851 1.502 . S
C4853 H4839 0.960 . S
C4853 H4840 0.961 . S
C4853 H4841 0.959 . S
C4853 C4851 1.561 . S
C4854 C4851 1.526 . S
C4854 C4855 1.396 . S
C4854 C4859 1.390 . S
C4855 C4849 1.465 . S
C4855 C4854 1.396 . S
C4855 C4856 1.399 . S
C4856 H4842 0.929 . S
C4856 C4855 1.399 . S
C4856 C4857 1.385 . S
C4857 H4843 0.931 . S
C4857 C4856 1.385 . S
C4857 C4858 1.389 . S
C4858 C4857 1.389 . S
C4858 C4859 1.387 . S
C4859 H4844 0.930 . S
C4859 C4854 1.390 . S
C4859 C4858 1.387 . S
H4860 C4872 0.930 . S
H4861 C4874 0.930 . S
H4862 C4875 0.930 . S
H4863 C4879 0.959 . S
H4864 C4879 0.959 . S
H4865 C4879 0.961 . S
H4866 C4880 0.960 . S
H4867 C4880 0.961 . S
H4868 C4880 0.959 . S
H4869 C4883 0.929 . S
H4870 C4884 0.931 . S
H4871 C4886 0.930 . S
C4872 H4860 0.930 . S
C4872 C4873 1.399 . S
C4872 C4877 1.399 . S
C4873 C4872 1.399 . S
C4873 C4874 1.376 . S
C4874 H4861 0.930 . S
C4874 C4873 1.376 . S
C4874 C4875 1.388 . S
C4875 H4862 0.930 . S
C4875 C4874 1.388 . S
C4875 C4876 1.390 . S
C4876 C4875 1.390 . S
C4876 C4877 1.394 . S
C4876 C4882 1.465 . S
C4877 C4872 1.399 . S
C4877 C4876 1.394 . S
C4877 C4878 1.516 . S
C4878 C4877 1.516 . S
C4878 C4879 1.502 . S
C4878 C4880 1.561 . S
C4878 C4881 1.526 . S
C4879 H4863 0.959 . S
C4879 H4864 0.959 . S
C4879 H4865 0.961 . S
C4879 C4878 1.502 . S
C4880 H4866 0.960 . S
C4880 H4867 0.961 . S
C4880 H4868 0.959 . S
C4880 C4878 1.561 . S
C4881 C4878 1.526 . S
C4881 C4882 1.396 . S
C4881 C4886 1.390 . S
C4882 C4876 1.465 . S
C4882 C4881 1.396 . S
C4882 C4883 1.399 . S
C4883 H4869 0.929 . S
C4883 C4882 1.399 . S
C4883 C4884 1.385 . S
C4884 H4870 0.931 . S
C4884 C4883 1.385 . S
C4884 C4885 1.389 . S
C4885 C4884 1.389 . S
C4885 C4886 1.387 . S
C4886 H4871 0.930 . S
C4886 C4881 1.390 . S
C4886 C4885 1.387 . S
H4887 C4899 0.930 . S
H4888 C4901 0.930 . S
H4889 C4902 0.930 . S
H4890 C4906 0.959 . S
H4891 C4906 0.959 . S
H4892 C4906 0.961 . S
H4893 C4907 0.960 . S
H4894 C4907 0.961 . S
H4895 C4907 0.959 . S
H4896 C4910 0.929 . S
H4897 C4911 0.931 . S
H4898 C4913 0.930 . S
C4899 H4887 0.930 . S
C4899 C4900 1.399 . S
C4899 C4904 1.399 . S
C4900 C4899 1.399 . S
C4900 C4901 1.376 . S
C4901 H4888 0.930 . S
C4901 C4900 1.376 . S
C4901 C4902 1.388 . S
C4902 H4889 0.930 . S
C4902 C4901 1.388 . S
C4902 C4903 1.390 . S
C4903 C4902 1.390 . S
C4903 C4904 1.394 . S
C4903 C4909 1.465 . S
C4904 C4899 1.399 . S
C4904 C4903 1.394 . S
C4904 C4905 1.516 . S
C4905 C4904 1.516 . S
C4905 C4906 1.502 . S
C4905 C4907 1.561 . S
C4905 C4908 1.526 . S
C4906 H4890 0.959 . S
C4906 H4891 0.959 . S
C4906 H4892 0.961 . S
C4906 C4905 1.502 . S
C4907 H4893 0.960 . S
C4907 H4894 0.961 . S
C4907 H4895 0.959 . S
C4907 C4905 1.561 . S
C4908 C4905 1.526 . S
C4908 C4909 1.396 . S
C4908 C4913 1.390 . S
C4909 C4903 1.465 . S
C4909 C4908 1.396 . S
C4909 C4910 1.399 . S
C4910 H4896 0.929 . S
C4910 C4909 1.399 . S
C4910 C4911 1.385 . S
C4911 H4897 0.931 . S
C4911 C4910 1.385 . S
C4911 C4912 1.389 . S
C4912 C4911 1.389 . S
C4912 C4913 1.387 . S
C4913 H4898 0.930 . S
C4913 C4908 1.390 . S
C4913 C4912 1.387 . S
H4914 C4926 0.930 . S
H4915 C4928 0.930 . S
H4916 C4929 0.930 . S
H4917 C4933 0.959 . S
H4918 C4933 0.957 1_455 S
H4919 C4933 0.961 . S
H4920 C4934 0.960 . S
H4921 C4934 0.961 . S
H4922 C4934 0.959 . S
H4923 C4937 0.929 . S
H4924 C4938 0.931 . S
H4925 C4940 0.930 . S
C4926 H4914 0.930 . S
C4926 C4927 1.399 . S
C4926 C4931 1.399 . S
C4927 C4926 1.399 . S
C4927 C4928 1.376 . S
C4928 H4915 0.930 . S
C4928 C4927 1.376 . S
C4928 C4929 1.388 . S
C4929 H4916 0.930 . S
C4929 C4928 1.388 . S
C4929 C4930 1.390 . S
C4930 C4929 1.390 . S
C4930 C4931 1.394 . S
C4930 C4936 1.465 . S
C4931 C4926 1.399 . S
C4931 C4930 1.394 . S
C4931 C4932 1.516 . S
C4932 C4931 1.516 . S
C4932 C4933 1.502 1_455 S
C4932 C4934 1.561 . S
C4932 C4935 1.526 . S
C4933 H4917 0.959 . S
C4933 H4918 0.957 1_655 S
C4933 H4919 0.961 . S
C4933 C4932 1.502 1_655 S
C4934 H4920 0.960 . S
C4934 H4921 0.961 . S
C4934 H4922 0.959 . S
C4934 C4932 1.561 . S
C4935 C4932 1.526 . S
C4935 C4936 1.396 . S
C4935 C4940 1.390 . S
C4936 C4930 1.465 . S
C4936 C4935 1.396 . S
C4936 C4937 1.399 . S
C4937 H4923 0.929 . S
C4937 C4936 1.399 . S
C4937 C4938 1.385 . S
C4938 H4924 0.931 . S
C4938 C4937 1.385 . S
C4938 C4939 1.389 . S
C4939 C4938 1.389 . S
C4939 C4940 1.387 . S
C4940 H4925 0.930 . S
C4940 C4935 1.390 . S
C4940 C4939 1.387 . S
H4941 C4953 0.930 . S
H4942 C4955 0.930 . S
H4943 C4956 0.930 . S
H4944 C4960 0.959 . S
H4945 C4960 0.959 . S
H4946 C4960 0.961 . S
H4947 C4961 0.960 . S
H4948 C4961 0.961 . S
H4949 C4961 0.959 . S
H4950 C4964 0.929 . S
H4951 C4965 0.931 . S
H4952 C4967 0.930 . S
C4953 H4941 0.930 . S
C4953 C4954 1.399 . S
C4953 C4958 1.399 . S
C4954 C4953 1.399 . S
C4954 C4955 1.376 . S
C4955 H4942 0.930 . S
C4955 C4954 1.376 . S
C4955 C4956 1.388 . S
C4956 H4943 0.930 . S
C4956 C4955 1.388 . S
C4956 C4957 1.390 . S
C4957 C4956 1.390 . S
C4957 C4958 1.394 . S
C4957 C4963 1.465 . S
C4958 C4953 1.399 . S
C4958 C4957 1.394 . S
C4958 C4959 1.516 . S
C4959 C4958 1.516 . S
C4959 C4960 1.502 . S
C4959 C4961 1.561 . S
C4959 C4962 1.526 . S
C4960 H4944 0.959 . S
C4960 H4945 0.959 . S
C4960 H4946 0.961 . S
C4960 C4959 1.502 . S
C4961 H4947 0.960 . S
C4961 H4948 0.961 . S
C4961 H4949 0.959 . S
C4961 C4959 1.561 . S
C4962 C4959 1.526 . S
C4962 C4963 1.396 . S
C4962 C4967 1.390 . S
C4963 C4957 1.465 . S
C4963 C4962 1.396 . S
C4963 C4964 1.399 . S
C4964 H4950 0.929 . S
C4964 C4963 1.399 . S
C4964 C4965 1.385 . S
C4965 H4951 0.931 . S
C4965 C4964 1.385 . S
C4965 C4966 1.389 . S
C4966 C4965 1.389 . S
C4966 C4967 1.387 . S
C4967 H4952 0.930 . S
C4967 C4962 1.390 . S
C4967 C4966 1.387 . S
H4968 C4980 0.930 . S
H4969 C4982 0.930 . S
H4970 C4983 0.930 . S
H4971 C4987 0.959 . S
H4972 C4987 0.959 . S
H4973 C4987 0.961 . S
H4974 C4988 0.960 . S
H4975 C4988 0.961 . S
H4976 C4988 0.959 . S
H4977 C4991 0.929 . S
H4978 C4992 0.931 . S
H4979 C4994 0.930 . S
C4980 H4968 0.930 . S
C4980 C4981 1.399 . S
C4980 C4985 1.399 . S
C4981 C4980 1.399 . S
C4981 C4982 1.376 . S
C4982 H4969 0.930 . S
C4982 C4981 1.376 . S
C4982 C4983 1.388 . S
C4983 H4970 0.930 . S
C4983 C4982 1.388 . S
C4983 C4984 1.390 . S
C4984 C4983 1.390 . S
C4984 C4985 1.394 . S
C4984 C4990 1.465 . S
C4985 C4980 1.399 . S
C4985 C4984 1.394 . S
C4985 C4986 1.516 . S
C4986 C4985 1.516 . S
C4986 C4987 1.502 . S
C4986 C4988 1.561 . S
C4986 C4989 1.526 . S
C4987 H4971 0.959 . S
C4987 H4972 0.959 . S
C4987 H4973 0.961 . S
C4987 C4986 1.502 . S
C4988 H4974 0.960 . S
C4988 H4975 0.961 . S
C4988 H4976 0.959 . S
C4988 C4986 1.561 . S
C4989 C4986 1.526 . S
C4989 C4990 1.396 . S
C4989 C4994 1.390 . S
C4990 C4984 1.465 . S
C4990 C4989 1.396 . S
C4990 C4991 1.399 . S
C4991 H4977 0.929 . S
C4991 C4990 1.399 . S
C4991 C4992 1.385 . S
C4992 H4978 0.931 . S
C4992 C4991 1.385 . S
C4992 C4993 1.389 . S
C4993 C4992 1.389 . S
C4993 C4994 1.387 . S
C4994 H4979 0.930 . S
C4994 C4989 1.390 . S
C4994 C4993 1.387 . S
H4995 C5007 0.930 . S
H4996 C5009 0.930 . S
H4997 C5010 0.930 . S
H4998 C5014 0.959 . S
H4999 C5014 0.959 . S
H5000 C5014 0.961 . S
H5001 C5015 0.960 . S
H5002 C5015 0.961 . S
H5003 C5015 0.959 . S
H5004 C5018 0.929 . S
H5005 C5019 0.931 . S
H5006 C5021 0.930 . S
C5007 H4995 0.930 . S
C5007 C5008 1.399 . S
C5007 C5012 1.399 . S
C5008 C5007 1.399 . S
C5008 C5009 1.376 . S
C5009 H4996 0.930 . S
C5009 C5008 1.376 . S
C5009 C5010 1.388 . S
C5010 H4997 0.930 . S
C5010 C5009 1.388 . S
C5010 C5011 1.390 . S
C5011 C5010 1.390 . S
C5011 C5012 1.394 . S
C5011 C5017 1.465 . S
C5012 C5007 1.399 . S
C5012 C5011 1.394 . S
C5012 C5013 1.516 . S
C5013 C5012 1.516 . S
C5013 C5014 1.502 . S
C5013 C5015 1.561 . S
C5013 C5016 1.526 . S
C5014 H4998 0.959 . S
C5014 H4999 0.959 . S
C5014 H5000 0.961 . S
C5014 C5013 1.502 . S
C5015 H5001 0.960 . S
C5015 H5002 0.961 . S
C5015 H5003 0.959 . S
C5015 C5013 1.561 . S
C5016 C5013 1.526 . S
C5016 C5017 1.396 . S
C5016 C5021 1.390 . S
C5017 C5011 1.465 . S
C5017 C5016 1.396 . S
C5017 C5018 1.399 . S
C5018 H5004 0.929 . S
C5018 C5017 1.399 . S
C5018 C5019 1.385 . S
C5019 H5005 0.931 . S
C5019 C5018 1.385 . S
C5019 C5020 1.389 . S
C5020 C5019 1.389 . S
C5020 C5021 1.387 . S
C5021 H5006 0.930 . S
C5021 C5016 1.390 . S
C5021 C5020 1.387 . S
H5022 C5034 0.930 . S
H5023 C5036 0.930 . S
H5024 C5037 0.930 . S
H5025 C5041 0.959 . S
H5026 C5041 0.959 . S
H5027 C5041 0.961 . S
H5028 C5042 0.960 . S
H5029 C5042 0.961 . S
H5030 C5042 0.959 . S
H5031 C5045 0.929 . S
H5032 C5046 0.931 . S
H5033 C5048 0.930 . S
C5034 H5022 0.930 . S
C5034 C5035 1.399 . S
C5034 C5039 1.399 . S
C5035 C5034 1.399 . S
C5035 C5036 1.376 . S
C5036 H5023 0.930 . S
C5036 C5035 1.376 . S
C5036 C5037 1.388 . S
C5037 H5024 0.930 . S
C5037 C5036 1.388 . S
C5037 C5038 1.390 . S
C5038 C5037 1.390 . S
C5038 C5039 1.394 . S
C5038 C5044 1.465 . S
C5039 C5034 1.399 . S
C5039 C5038 1.394 . S
C5039 C5040 1.516 . S
C5040 C5039 1.516 . S
C5040 C5041 1.502 . S
C5040 C5042 1.561 . S
C5040 C5043 1.526 . S
C5041 H5025 0.959 . S
C5041 H5026 0.959 . S
C5041 H5027 0.961 . S
C5041 C5040 1.502 . S
C5042 H5028 0.960 . S
C5042 H5029 0.961 . S
C5042 H5030 0.959 . S
C5042 C5040 1.561 . S
C5043 C5040 1.526 . S
C5043 C5044 1.396 . S
C5043 C5048 1.390 . S
C5044 C5038 1.465 . S
C5044 C5043 1.396 . S
C5044 C5045 1.399 . S
C5045 H5031 0.929 . S
C5045 C5044 1.399 . S
C5045 C5046 1.385 . S
C5046 H5032 0.931 . S
C5046 C5045 1.385 . S
C5046 C5047 1.389 . S
C5047 C5046 1.389 . S
C5047 C5048 1.387 . S
C5048 H5033 0.930 . S
C5048 C5043 1.390 . S
C5048 C5047 1.387 . S
H5049 C5061 0.930 . S
H5050 C5063 0.930 . S
H5051 C5064 0.930 . S
H5052 C5068 0.959 . S
H5053 C5068 0.959 . S
H5054 C5068 0.961 . S
H5055 C5069 0.960 . S
H5056 C5069 0.961 . S
H5057 C5069 0.959 . S
H5058 C5072 0.929 . S
H5059 C5073 0.931 . S
H5060 C5075 0.930 . S
C5061 H5049 0.930 . S
C5061 C5062 1.399 . S
C5061 C5066 1.399 . S
C5062 C5061 1.399 . S
C5062 C5063 1.376 . S
C5063 H5050 0.930 . S
C5063 C5062 1.376 . S
C5063 C5064 1.388 . S
C5064 H5051 0.930 . S
C5064 C5063 1.388 . S
C5064 C5065 1.390 . S
C5065 C5064 1.390 . S
C5065 C5066 1.394 . S
C5065 C5071 1.465 . S
C5066 C5061 1.399 . S
C5066 C5065 1.394 . S
C5066 C5067 1.516 . S
C5067 C5066 1.516 . S
C5067 C5068 1.502 . S
C5067 C5069 1.561 . S
C5067 C5070 1.526 . S
C5068 H5052 0.959 . S
C5068 H5053 0.959 . S
C5068 H5054 0.961 . S
C5068 C5067 1.502 . S
C5069 H5055 0.960 . S
C5069 H5056 0.961 . S
C5069 H5057 0.959 . S
C5069 C5067 1.561 . S
C5070 C5067 1.526 . S
C5070 C5071 1.396 . S
C5070 C5075 1.390 . S
C5071 C5065 1.465 . S
C5071 C5070 1.396 . S
C5071 C5072 1.399 . S
C5072 H5058 0.929 . S
C5072 C5071 1.399 . S
C5072 C5073 1.385 . S
C5073 H5059 0.931 . S
C5073 C5072 1.385 . S
C5073 C5074 1.389 . S
C5074 C5073 1.389 . S
C5074 C5075 1.387 . S
C5075 H5060 0.930 . S
C5075 C5070 1.390 . S
C5075 C5074 1.387 . S
H5076 C5088 0.930 . S
H5077 C5090 0.930 . S
H5078 C5091 0.930 . S
H5079 C5095 0.959 . S
H5080 C5095 0.959 . S
H5081 C5095 0.961 . S
H5082 C5096 0.960 . S
H5083 C5096 0.961 . S
H5084 C5096 0.959 . S
H5085 C5099 0.929 . S
H5086 C5100 0.931 . S
H5087 C5102 0.930 . S
C5088 H5076 0.930 . S
C5088 C5089 1.399 . S
C5088 C5093 1.399 . S
C5089 C5088 1.399 . S
C5089 C5090 1.376 . S
C5090 H5077 0.930 . S
C5090 C5089 1.376 . S
C5090 C5091 1.388 . S
C5091 H5078 0.930 . S
C5091 C5090 1.388 . S
C5091 C5092 1.390 . S
C5092 C5091 1.390 . S
C5092 C5093 1.394 . S
C5092 C5098 1.465 . S
C5093 C5088 1.399 . S
C5093 C5092 1.394 . S
C5093 C5094 1.516 . S
C5094 C5093 1.516 . S
C5094 C5095 1.502 . S
C5094 C5096 1.561 . S
C5094 C5097 1.526 . S
C5095 H5079 0.959 . S
C5095 H5080 0.959 . S
C5095 H5081 0.961 . S
C5095 C5094 1.502 . S
C5096 H5082 0.960 . S
C5096 H5083 0.961 . S
C5096 H5084 0.959 . S
C5096 C5094 1.561 . S
C5097 C5094 1.526 . S
C5097 C5098 1.396 . S
C5097 C5102 1.390 . S
C5098 C5092 1.465 . S
C5098 C5097 1.396 . S
C5098 C5099 1.399 . S
C5099 H5085 0.929 . S
C5099 C5098 1.399 . S
C5099 C5100 1.385 . S
C5100 H5086 0.931 . S
C5100 C5099 1.385 . S
C5100 C5101 1.389 . S
C5101 C5100 1.389 . S
C5101 C5102 1.387 . S
C5102 H5087 0.930 . S
C5102 C5097 1.390 . S
C5102 C5101 1.387 . S
H5103 C5115 0.930 . S
H5104 C5117 0.930 . S
H5105 C5118 0.930 . S
H5106 C5122 0.959 . S
H5107 C5122 0.959 . S
H5108 C5122 0.961 . S
H5109 C5123 0.960 . S
H5110 C5123 0.961 . S
H5111 C5123 0.959 . S
H5112 C5126 0.929 . S
H5113 C5127 0.931 . S
H5114 C5129 0.930 . S
C5115 H5103 0.930 . S
C5115 C5116 1.399 . S
C5115 C5120 1.399 . S
C5116 C5115 1.399 . S
C5116 C5117 1.376 . S
C5117 H5104 0.930 . S
C5117 C5116 1.376 . S
C5117 C5118 1.388 . S
C5118 H5105 0.930 . S
C5118 C5117 1.388 . S
C5118 C5119 1.390 . S
C5119 C5118 1.390 . S
C5119 C5120 1.394 . S
C5119 C5125 1.465 . S
C5120 C5115 1.399 . S
C5120 C5119 1.394 . S
C5120 C5121 1.516 . S
C5121 C5120 1.516 . S
C5121 C5122 1.502 . S
C5121 C5123 1.561 . S
C5121 C5124 1.526 . S
C5122 H5106 0.959 . S
C5122 H5107 0.959 . S
C5122 H5108 0.961 . S
C5122 C5121 1.502 . S
C5123 H5109 0.960 . S
C5123 H5110 0.961 . S
C5123 H5111 0.959 . S
C5123 C5121 1.561 . S
C5124 C5121 1.526 . S
C5124 C5125 1.396 . S
C5124 C5129 1.390 . S
C5125 C5119 1.465 . S
C5125 C5124 1.396 . S
C5125 C5126 1.399 . S
C5126 H5112 0.929 . S
C5126 C5125 1.399 . S
C5126 C5127 1.385 . S
C5127 H5113 0.931 . S
C5127 C5126 1.385 . S
C5127 C5128 1.389 . S
C5128 C5127 1.389 . S
C5128 C5129 1.387 . S
C5129 H5114 0.930 . S
C5129 C5124 1.390 . S
C5129 C5128 1.387 . S
H5130 C5142 0.930 . S
H5131 C5144 0.930 . S
H5132 C5145 0.930 . S
H5133 C5149 0.959 . S
H5134 C5149 0.959 . S
H5135 C5149 0.961 . S
H5136 C5150 0.960 . S
H5137 C5150 0.961 . S
H5138 C5150 0.959 . S
H5139 C5153 0.929 . S
H5140 C5154 0.931 . S
H5141 C5156 0.930 . S
C5142 H5130 0.930 . S
C5142 C5143 1.399 . S
C5142 C5147 1.399 . S
C5143 C5142 1.399 . S
C5143 C5144 1.376 . S
C5144 H5131 0.930 . S
C5144 C5143 1.376 . S
C5144 C5145 1.388 . S
C5145 H5132 0.930 . S
C5145 C5144 1.388 . S
C5145 C5146 1.390 . S
C5146 C5145 1.390 . S
C5146 C5147 1.394 . S
C5146 C5152 1.465 . S
C5147 C5142 1.399 . S
C5147 C5146 1.394 . S
C5147 C5148 1.516 . S
C5148 C5147 1.516 . S
C5148 C5149 1.502 . S
C5148 C5150 1.561 . S
C5148 C5151 1.526 . S
C5149 H5133 0.959 . S
C5149 H5134 0.959 . S
C5149 H5135 0.961 . S
C5149 C5148 1.502 . S
C5150 H5136 0.960 . S
C5150 H5137 0.961 . S
C5150 H5138 0.959 . S
C5150 C5148 1.561 . S
C5151 C5148 1.526 . S
C5151 C5152 1.396 . S
C5151 C5156 1.390 . S
C5152 C5146 1.465 . S
C5152 C5151 1.396 . S
C5152 C5153 1.399 . S
C5153 H5139 0.929 . S
C5153 C5152 1.399 . S
C5153 C5154 1.385 . S
C5154 H5140 0.931 . S
C5154 C5153 1.385 . S
C5154 C5155 1.389 . S
C5155 C5154 1.389 . S
C5155 C5156 1.387 . S
C5156 H5141 0.930 . S
C5156 C5151 1.390 . S
C5156 C5155 1.387 . S
H5157 C5169 0.930 . S
H5158 C5171 0.930 . S
H5159 C5172 0.930 . S
H5160 C5176 0.959 . S
H5161 C5176 0.959 . S
H5162 C5176 0.961 . S
H5163 C5177 0.960 . S
H5164 C5177 0.961 . S
H5165 C5177 0.959 . S
H5166 C5180 0.929 . S
H5167 C5181 0.931 . S
H5168 C5183 0.930 . S
C5169 H5157 0.930 . S
C5169 C5170 1.399 . S
C5169 C5174 1.399 . S
C5170 C5169 1.399 . S
C5170 C5171 1.376 . S
C5171 H5158 0.930 . S
C5171 C5170 1.376 . S
C5171 C5172 1.388 . S
C5172 H5159 0.930 . S
C5172 C5171 1.388 . S
C5172 C5173 1.390 . S
C5173 C5172 1.390 . S
C5173 C5174 1.394 . S
C5173 C5179 1.465 . S
C5174 C5169 1.399 . S
C5174 C5173 1.394 . S
C5174 C5175 1.516 . S
C5175 C5174 1.516 . S
C5175 C5176 1.502 . S
C5175 C5177 1.561 . S
C5175 C5178 1.526 . S
C5176 H5160 0.959 . S
C5176 H5161 0.959 . S
C5176 H5162 0.961 . S
C5176 C5175 1.502 . S
C5177 H5163 0.960 . S
C5177 H5164 0.961 . S
C5177 H5165 0.959 . S
C5177 C5175 1.561 . S
C5178 C5175 1.526 . S
C5178 C5179 1.396 . S
C5178 C5183 1.390 . S
C5179 C5173 1.465 . S
C5179 C5178 1.396 . S
C5179 C5180 1.399 . S
C5180 H5166 0.929 . S
C5180 C5179 1.399 . S
C5180 C5181 1.385 . S
C5181 H5167 0.931 . S
C5181 C5180 1.385 . S
C5181 C5182 1.389 . S
C5182 C5181 1.389 . S
C5182 C5183 1.387 . S
C5183 H5168 0.930 . S
C5183 C5178 1.390 . S
C5183 C5182 1.387 . S
H5184 C5196 0.930 . S
H5185 C5198 0.930 . S
H5186 C5199 0.930 . S
H5187 C5203 0.959 . S
H5188 C5203 0.959 . S
H5189 C5203 0.961 . S
H5190 C5204 0.960 . S
H5191 C5204 0.961 . S
H5192 C5204 0.959 . S
H5193 C5207 0.929 . S
H5194 C5208 0.931 . S
H5195 C5210 0.930 . S
C5196 H5184 0.930 . S
C5196 C5197 1.399 . S
C5196 C5201 1.399 . S
C5197 C5196 1.399 . S
C5197 C5198 1.376 . S
C5198 H5185 0.930 . S
C5198 C5197 1.376 . S
C5198 C5199 1.388 . S
C5199 H5186 0.930 . S
C5199 C5198 1.388 . S
C5199 C5200 1.390 . S
C5200 C5199 1.390 . S
C5200 C5201 1.394 . S
C5200 C5206 1.465 . S
C5201 C5196 1.399 . S
C5201 C5200 1.394 . S
C5201 C5202 1.516 . S
C5202 C5201 1.516 . S
C5202 C5203 1.502 . S
C5202 C5204 1.561 . S
C5202 C5205 1.526 . S
C5203 H5187 0.959 . S
C5203 H5188 0.959 . S
C5203 H5189 0.961 . S
C5203 C5202 1.502 . S
C5204 H5190 0.960 . S
C5204 H5191 0.961 . S
C5204 H5192 0.959 . S
C5204 C5202 1.561 . S
C5205 C5202 1.526 . S
C5205 C5206 1.396 . S
C5205 C5210 1.390 . S
C5206 C5200 1.465 . S
C5206 C5205 1.396 . S
C5206 C5207 1.399 . S
C5207 H5193 0.929 . S
C5207 C5206 1.399 . S
C5207 C5208 1.385 . S
C5208 H5194 0.931 . S
C5208 C5207 1.385 . S
C5208 C5209 1.389 . S
C5209 C5208 1.389 . S
C5209 C5210 1.387 . S
C5210 H5195 0.930 . S
C5210 C5205 1.390 . S
C5210 C5209 1.387 . S
H5211 C5223 0.930 . S
H5212 C5225 0.930 . S
H5213 C5226 0.930 . S
H5214 C5230 0.959 . S
H5215 C5230 0.959 . S
H5216 C5230 0.961 . S
H5217 C5231 0.960 . S
H5218 C5231 0.961 . S
H5219 C5231 0.959 . S
H5220 C5234 0.929 . S
H5221 C5235 0.931 . S
H5222 C5237 0.930 . S
C5223 H5211 0.930 . S
C5223 C5224 1.399 . S
C5223 C5228 1.399 . S
C5224 C5223 1.399 . S
C5224 C5225 1.376 . S
C5225 H5212 0.930 . S
C5225 C5224 1.376 . S
C5225 C5226 1.388 . S
C5226 H5213 0.930 . S
C5226 C5225 1.388 . S
C5226 C5227 1.390 . S
C5227 C5226 1.390 . S
C5227 C5228 1.394 . S
C5227 C5233 1.465 . S
C5228 C5223 1.399 . S
C5228 C5227 1.394 . S
C5228 C5229 1.516 . S
C5229 C5228 1.516 . S
C5229 C5230 1.502 . S
C5229 C5231 1.561 . S
C5229 C5232 1.526 . S
C5230 H5214 0.959 . S
C5230 H5215 0.959 . S
C5230 H5216 0.961 . S
C5230 C5229 1.502 . S
C5231 H5217 0.960 . S
C5231 H5218 0.961 . S
C5231 H5219 0.959 . S
C5231 C5229 1.561 . S
C5232 C5229 1.526 . S
C5232 C5233 1.396 . S
C5232 C5237 1.390 . S
C5233 C5227 1.465 . S
C5233 C5232 1.396 . S
C5233 C5234 1.399 . S
C5234 H5220 0.929 . S
C5234 C5233 1.399 . S
C5234 C5235 1.385 . S
C5235 H5221 0.931 . S
C5235 C5234 1.385 . S
C5235 C5236 1.389 . S
C5236 C5235 1.389 . S
C5236 C5237 1.387 . S
C5237 H5222 0.930 . S
C5237 C5232 1.390 . S
C5237 C5236 1.387 . S
H5238 C5250 0.930 . S
H5239 C5252 0.930 . S
H5240 C5253 0.930 . S
H5241 C5257 0.959 . S
H5242 C5257 0.959 . S
H5243 C5257 0.961 . S
H5244 C5258 0.960 . S
H5245 C5258 0.961 . S
H5246 C5258 0.959 . S
H5247 C5261 0.929 . S
H5248 C5262 0.931 . S
H5249 C5264 0.930 . S
C5250 H5238 0.930 . S
C5250 C5251 1.399 . S
C5250 C5255 1.399 . S
C5251 C5250 1.399 . S
C5251 C5252 1.376 . S
C5252 H5239 0.930 . S
C5252 C5251 1.376 . S
C5252 C5253 1.388 . S
C5253 H5240 0.930 . S
C5253 C5252 1.388 . S
C5253 C5254 1.390 . S
C5254 C5253 1.390 . S
C5254 C5255 1.394 . S
C5254 C5260 1.465 . S
C5255 C5250 1.399 . S
C5255 C5254 1.394 . S
C5255 C5256 1.516 . S
C5256 C5255 1.516 . S
C5256 C5257 1.502 . S
C5256 C5258 1.561 . S
C5256 C5259 1.526 . S
C5257 H5241 0.959 . S
C5257 H5242 0.959 . S
C5257 H5243 0.961 . S
C5257 C5256 1.502 . S
C5258 H5244 0.960 . S
C5258 H5245 0.961 . S
C5258 H5246 0.959 . S
C5258 C5256 1.561 . S
C5259 C5256 1.526 . S
C5259 C5260 1.396 . S
C5259 C5264 1.390 . S
C5260 C5254 1.465 . S
C5260 C5259 1.396 . S
C5260 C5261 1.399 . S
C5261 H5247 0.929 . S
C5261 C5260 1.399 . S
C5261 C5262 1.385 . S
C5262 H5248 0.931 . S
C5262 C5261 1.385 . S
C5262 C5263 1.389 . S
C5263 C5262 1.389 . S
C5263 C5264 1.387 . S
C5264 H5249 0.930 . S
C5264 C5259 1.390 . S
C5264 C5263 1.387 . S
H5265 C5277 0.930 . S
H5266 C5279 0.930 . S
H5267 C5280 0.930 . S
H5268 C5284 0.959 . S
H5269 C5284 0.959 . S
H5270 C5284 0.961 . S
H5271 C5285 0.960 . S
H5272 C5285 0.961 . S
H5273 C5285 0.959 . S
H5274 C5288 0.929 . S
H5275 C5289 0.931 1_545 S
H5276 C5291 0.930 . S
C5277 H5265 0.930 . S
C5277 C5278 1.399 . S
C5277 C5282 1.399 . S
C5278 C5277 1.399 . S
C5278 C5279 1.376 1_554 S
C5279 H5266 0.930 . S
C5279 C5278 1.376 1_556 S
C5279 C5280 1.388 . S
C5280 H5267 0.930 . S
C5280 C5279 1.388 . S
C5280 C5281 1.390 1_556 S
C5281 C5280 1.390 1_554 S
C5281 C5282 1.394 . S
C5281 C5287 1.465 . S
C5282 C5277 1.399 . S
C5282 C5281 1.394 . S
C5282 C5283 1.516 . S
C5283 C5282 1.516 . S
C5283 C5284 1.502 1_565 S
C5283 C5285 1.561 . S
C5283 C5286 1.526 . S
C5284 H5268 0.959 . S
C5284 H5269 0.959 . S
C5284 H5270 0.961 . S
C5284 C5283 1.502 1_545 S
C5285 H5271 0.960 . S
C5285 H5272 0.961 . S
C5285 H5273 0.959 . S
C5285 C5283 1.561 . S
C5286 C5283 1.526 . S
C5286 C5287 1.400 . S
C5286 C5291 1.387 1_565 S
C5287 C5281 1.465 . S
C5287 C5286 1.400 . S
C5287 C5288 1.399 1_554 S
C5288 H5274 0.929 . S
C5288 C5287 1.399 1_556 S
C5288 C5289 1.385 . S
C5289 H5275 0.931 1_565 S
C5289 C5288 1.385 . S
C5289 C5290 1.390 1_566 S
C5290 C5289 1.390 1_544 S
C5290 C5291 1.387 . S
C5291 H5276 0.930 . S
C5291 C5286 1.387 1_545 S
C5291 C5290 1.387 . S
H5292 C5304 0.930 . S
H5293 C5306 0.930 . S
H5294 C5307 0.930 . S
H5295 C5311 0.959 . S
H5296 C5311 0.959 . S
H5297 C5311 0.961 . S
H5298 C5312 0.960 . S
H5299 C5312 0.961 . S
H5300 C5312 0.959 . S
H5301 C5315 0.929 . S
H5302 C5316 0.931 . S
H5303 C5318 0.930 . S
C5304 H5292 0.930 . S
C5304 C5305 1.399 . S
C5304 C5309 1.399 . S
C5305 C5304 1.399 . S
C5305 C5306 1.376 . S
C5306 H5293 0.930 . S
C5306 C5305 1.376 . S
C5306 C5307 1.388 . S
C5307 H5294 0.930 . S
C5307 C5306 1.388 . S
C5307 C5308 1.390 . S
C5308 C5307 1.390 . S
C5308 C5309 1.394 . S
C5308 C5314 1.465 . S
C5309 C5304 1.399 . S
C5309 C5308 1.394 . S
C5309 C5310 1.516 . S
C5310 C5309 1.516 . S
C5310 C5311 1.502 . S
C5310 C5312 1.561 . S
C5310 C5313 1.526 . S
C5311 H5295 0.959 . S
C5311 H5296 0.959 . S
C5311 H5297 0.961 . S
C5311 C5310 1.502 . S
C5312 H5298 0.960 . S
C5312 H5299 0.961 . S
C5312 H5300 0.959 . S
C5312 C5310 1.561 . S
C5313 C5310 1.526 . S
C5313 C5314 1.396 . S
C5313 C5318 1.390 . S
C5314 C5308 1.465 . S
C5314 C5313 1.396 . S
C5314 C5315 1.399 . S
C5315 H5301 0.929 . S
C5315 C5314 1.399 . S
C5315 C5316 1.385 . S
C5316 H5302 0.931 . S
C5316 C5315 1.385 . S
C5316 C5317 1.389 . S
C5317 C5316 1.389 . S
C5317 C5318 1.387 . S
C5318 H5303 0.930 . S
C5318 C5313 1.390 . S
C5318 C5317 1.387 . S
H5319 C5331 0.906 1_556 S
H5320 C5333 0.930 . S
H5321 C5334 0.930 . S
H5322 C5338 0.964 . S
H5323 C5338 0.959 . S
H5324 C5338 0.961 . S
H5325 C5339 0.960 . S
H5326 C5339 0.961 . S
H5327 C5339 0.959 . S
H5328 C5342 0.929 . S
H5329 C5343 0.931 . S
H5330 C5345 0.930 . S
C5331 H5319 0.906 1_554 S
C5331 C5332 1.416 . S
C5331 C5336 1.407 . S
C5332 C5331 1.416 . S
C5332 C5333 1.376 . S
C5333 H5320 0.930 . S
C5333 C5332 1.376 . S
C5333 C5334 1.388 . S
C5334 H5321 0.930 . S
C5334 C5333 1.388 . S
C5334 C5335 1.390 . S
C5335 C5334 1.390 . S
C5335 C5336 1.394 . S
C5335 C5341 1.465 . S
C5336 C5331 1.407 . S
C5336 C5335 1.394 . S
C5336 C5337 1.516 1_554 S
C5337 C5336 1.516 1_556 S
C5337 C5338 1.502 . S
C5337 C5339 1.561 . S
C5337 C5340 1.526 1_556 S
C5338 H5322 0.964 . S
C5338 H5323 0.959 . S
C5338 H5324 0.961 . S
C5338 C5337 1.502 . S
C5339 H5325 0.960 . S
C5339 H5326 0.961 . S
C5339 H5327 0.959 . S
C5339 C5337 1.561 . S
C5340 C5337 1.526 1_554 S
C5340 C5341 1.396 . S
C5340 C5345 1.390 . S
C5341 C5335 1.465 . S
C5341 C5340 1.396 . S
C5341 C5342 1.399 . S
C5342 H5328 0.929 . S
C5342 C5341 1.399 . S
C5342 C5343 1.385 . S
C5343 H5329 0.931 . S
C5343 C5342 1.385 . S
C5343 C5344 1.389 . S
C5344 C5343 1.389 . S
C5344 C5345 1.387 . S
C5345 H5330 0.930 . S
C5345 C5340 1.390 . S
C5345 C5344 1.387 . S
H5346 C5358 0.930 . S
H5347 C5360 0.930 . S
H5348 C5361 0.930 . S
H5349 C5365 0.959 . S
H5350 C5365 0.959 . S
H5351 C5365 0.961 . S
H5352 C5366 0.960 . S
H5353 C5366 0.961 . S
H5354 C5366 0.959 . S
H5355 C5369 0.929 . S
H5356 C5370 0.931 . S
H5357 C5372 0.930 . S
C5358 H5346 0.930 . S
C5358 C5359 1.399 . S
C5358 C5363 1.399 . S
C5359 C5358 1.399 . S
C5359 C5360 1.376 . S
C5360 H5347 0.930 . S
C5360 C5359 1.376 . S
C5360 C5361 1.388 . S
C5361 H5348 0.930 . S
C5361 C5360 1.388 . S
C5361 C5362 1.390 . S
C5362 C5361 1.390 . S
C5362 C5363 1.394 . S
C5362 C5368 1.465 . S
C5363 C5358 1.399 . S
C5363 C5362 1.394 . S
C5363 C5364 1.516 . S
C5364 C5363 1.516 . S
C5364 C5365 1.502 . S
C5364 C5366 1.561 . S
C5364 C5367 1.526 . S
C5365 H5349 0.959 . S
C5365 H5350 0.959 . S
C5365 H5351 0.961 . S
C5365 C5364 1.502 . S
C5366 H5352 0.960 . S
C5366 H5353 0.961 . S
C5366 H5354 0.959 . S
C5366 C5364 1.561 . S
C5367 C5364 1.526 . S
C5367 C5368 1.396 . S
C5367 C5372 1.390 . S
C5368 C5362 1.465 . S
C5368 C5367 1.396 . S
C5368 C5369 1.399 . S
C5369 H5355 0.929 . S
C5369 C5368 1.399 . S
C5369 C5370 1.385 . S
C5370 H5356 0.931 . S
C5370 C5369 1.385 . S
C5370 C5371 1.389 . S
C5371 C5370 1.389 . S
C5371 C5372 1.387 . S
C5372 H5357 0.930 . S
C5372 C5367 1.390 . S
C5372 C5371 1.387 . S
H5373 C5385 0.930 . S
H5374 C5387 0.930 . S
H5375 C5388 0.930 . S
H5376 C5392 0.959 . S
H5377 C5392 0.959 . S
H5378 C5392 0.961 . S
H5379 C5393 0.960 . S
H5380 C5393 0.961 . S
H5381 C5393 0.959 . S
H5382 C5396 0.929 . S
H5383 C5397 0.931 . S
H5384 C5399 0.930 . S
C5385 H5373 0.930 . S
C5385 C5386 1.399 . S
C5385 C5390 1.399 . S
C5386 C5385 1.399 . S
C5386 C5387 1.376 . S
C5387 H5374 0.930 . S
C5387 C5386 1.376 . S
C5387 C5388 1.388 . S
C5388 H5375 0.930 . S
C5388 C5387 1.388 . S
C5388 C5389 1.390 . S
C5389 C5388 1.390 . S
C5389 C5390 1.394 . S
C5389 C5395 1.465 . S
C5390 C5385 1.399 . S
C5390 C5389 1.394 . S
C5390 C5391 1.516 . S
C5391 C5390 1.516 . S
C5391 C5392 1.502 . S
C5391 C5393 1.561 . S
C5391 C5394 1.526 . S
C5392 H5376 0.959 . S
C5392 H5377 0.959 . S
C5392 H5378 0.961 . S
C5392 C5391 1.502 . S
C5393 H5379 0.960 . S
C5393 H5380 0.961 . S
C5393 H5381 0.959 . S
C5393 C5391 1.561 . S
C5394 C5391 1.526 . S
C5394 C5395 1.396 . S
C5394 C5399 1.390 . S
C5395 C5389 1.465 . S
C5395 C5394 1.396 . S
C5395 C5396 1.399 . S
C5396 H5382 0.929 . S
C5396 C5395 1.399 . S
C5396 C5397 1.385 . S
C5397 H5383 0.931 . S
C5397 C5396 1.385 . S
C5397 C5398 1.389 . S
C5398 C5397 1.389 . S
C5398 C5399 1.387 . S
C5399 H5384 0.930 . S
C5399 C5394 1.390 . S
C5399 C5398 1.387 . S
H5400 C5412 0.930 . S
H5401 C5414 0.930 . S
H5402 C5415 0.930 . S
H5403 C5419 0.959 . S
H5404 C5419 0.959 . S
H5405 C5419 0.961 . S
H5406 C5420 0.960 . S
H5407 C5420 0.961 . S
H5408 C5420 0.959 . S
H5409 C5423 0.929 . S
H5410 C5424 0.931 . S
H5411 C5426 0.930 . S
C5412 H5400 0.930 . S
C5412 C5413 1.399 . S
C5412 C5417 1.399 . S
C5413 C5412 1.399 . S
C5413 C5414 1.376 . S
C5414 H5401 0.930 . S
C5414 C5413 1.376 . S
C5414 C5415 1.388 . S
C5415 H5402 0.930 . S
C5415 C5414 1.388 . S
C5415 C5416 1.390 . S
C5416 C5415 1.390 . S
C5416 C5417 1.394 . S
C5416 C5422 1.465 . S
C5417 C5412 1.399 . S
C5417 C5416 1.394 . S
C5417 C5418 1.516 . S
C5418 C5417 1.516 . S
C5418 C5419 1.502 . S
C5418 C5420 1.561 . S
C5418 C5421 1.526 . S
C5419 H5403 0.959 . S
C5419 H5404 0.959 . S
C5419 H5405 0.961 . S
C5419 C5418 1.502 . S
C5420 H5406 0.960 . S
C5420 H5407 0.961 . S
C5420 H5408 0.959 . S
C5420 C5418 1.561 . S
C5421 C5418 1.526 . S
C5421 C5422 1.396 . S
C5421 C5426 1.390 . S
C5422 C5416 1.465 . S
C5422 C5421 1.396 . S
C5422 C5423 1.399 . S
C5423 H5409 0.929 . S
C5423 C5422 1.399 . S
C5423 C5424 1.385 . S
C5424 H5410 0.931 . S
C5424 C5423 1.385 . S
C5424 C5425 1.389 . S
C5425 C5424 1.389 . S
C5425 C5426 1.387 . S
C5426 H5411 0.930 . S
C5426 C5421 1.390 . S
C5426 C5425 1.387 . S
H5427 C5439 0.930 . S
H5428 C5441 0.930 . S
H5429 C5442 0.930 . S
H5430 C5446 0.959 . S
H5431 C5446 0.959 . S
H5432 C5446 0.961 . S
H5433 C5447 0.960 . S
H5434 C5447 0.961 . S
H5435 C5447 0.959 . S
H5436 C5450 0.929 . S
H5437 C5451 0.931 . S
H5438 C5453 0.930 . S
C5439 H5427 0.930 . S
C5439 C5440 1.399 . S
C5439 C5444 1.399 . S
C5440 C5439 1.399 . S
C5440 C5441 1.376 . S
C5441 H5428 0.930 . S
C5441 C5440 1.376 . S
C5441 C5442 1.388 . S
C5442 H5429 0.930 . S
C5442 C5441 1.388 . S
C5442 C5443 1.390 . S
C5443 C5442 1.390 . S
C5443 C5444 1.394 . S
C5443 C5449 1.465 . S
C5444 C5439 1.399 . S
C5444 C5443 1.394 . S
C5444 C5445 1.516 . S
C5445 C5444 1.516 . S
C5445 C5446 1.502 . S
C5445 C5447 1.561 . S
C5445 C5448 1.526 . S
C5446 H5430 0.959 . S
C5446 H5431 0.959 . S
C5446 H5432 0.961 . S
C5446 C5445 1.502 . S
C5447 H5433 0.960 . S
C5447 H5434 0.961 . S
C5447 H5435 0.959 . S
C5447 C5445 1.561 . S
C5448 C5445 1.526 . S
C5448 C5449 1.396 . S
C5448 C5453 1.390 . S
C5449 C5443 1.465 . S
C5449 C5448 1.396 . S
C5449 C5450 1.399 . S
C5450 H5436 0.929 . S
C5450 C5449 1.399 . S
C5450 C5451 1.385 . S
C5451 H5437 0.931 . S
C5451 C5450 1.385 . S
C5451 C5452 1.389 . S
C5452 C5451 1.389 . S
C5452 C5453 1.387 . S
C5453 H5438 0.930 . S
C5453 C5448 1.390 . S
C5453 C5452 1.387 . S
H5454 C5466 0.930 . S
H5455 C5468 0.930 . S
H5456 C5469 0.930 . S
H5457 C5473 0.956 1_655 S
H5458 C5473 0.958 1_655 S
H5459 C5473 0.958 1_655 S
H5460 C5474 0.960 . S
H5461 C5474 0.961 . S
H5462 C5474 0.960 . S
H5463 C5477 0.929 . S
H5464 C5478 0.931 . S
H5465 C5480 0.930 . S
C5466 H5454 0.930 . S
C5466 C5467 1.399 . S
C5466 C5471 1.399 . S
C5467 C5466 1.399 . S
C5467 C5468 1.376 . S
C5468 H5455 0.930 . S
C5468 C5467 1.376 . S
C5468 C5469 1.388 . S
C5469 H5456 0.930 . S
C5469 C5468 1.388 . S
C5469 C5470 1.390 . S
C5470 C5469 1.390 . S
C5470 C5471 1.394 . S
C5470 C5476 1.465 . S
C5471 C5466 1.399 . S
C5471 C5470 1.394 . S
C5471 C5472 1.516 . S
C5472 C5471 1.516 . S
C5472 C5473 1.509 . S
C5472 C5474 1.561 1_554 S
C5472 C5475 1.526 . S
C5473 H5457 0.956 1_455 S
C5473 H5458 0.958 1_455 S
C5473 H5459 0.958 1_455 S
C5473 C5472 1.509 . S
C5474 H5460 0.960 . S
C5474 H5461 0.961 . S
C5474 H5462 0.960 . S
C5474 C5472 1.561 1_556 S
C5475 C5472 1.526 . S
C5475 C5476 1.396 . S
C5475 C5480 1.390 . S
C5476 C5470 1.465 . S
C5476 C5475 1.396 . S
C5476 C5477 1.399 . S
C5477 H5463 0.929 . S
C5477 C5476 1.399 . S
C5477 C5478 1.385 . S
C5478 H5464 0.931 . S
C5478 C5477 1.385 . S
C5478 C5479 1.389 . S
C5479 C5478 1.389 . S
C5479 C5480 1.387 . S
C5480 H5465 0.930 . S
C5480 C5475 1.390 . S
C5480 C5479 1.387 . S
H5481 C5493 0.930 . S
H5482 C5495 0.930 . S
H5483 C5496 0.930 . S
H5484 C5500 0.959 . S
H5485 C5500 0.959 . S
H5486 C5500 0.961 . S
H5487 C5501 0.960 . S
H5488 C5501 0.961 . S
H5489 C5501 0.959 . S
H5490 C5504 0.929 . S
H5491 C5505 0.931 . S
H5492 C5507 0.930 . S
C5493 H5481 0.930 . S
C5493 C5494 1.399 . S
C5493 C5498 1.399 . S
C5494 C5493 1.399 . S
C5494 C5495 1.376 . S
C5495 H5482 0.930 . S
C5495 C5494 1.376 . S
C5495 C5496 1.388 . S
C5496 H5483 0.930 . S
C5496 C5495 1.388 . S
C5496 C5497 1.390 . S
C5497 C5496 1.390 . S
C5497 C5498 1.394 . S
C5497 C5503 1.465 . S
C5498 C5493 1.399 . S
C5498 C5497 1.394 . S
C5498 C5499 1.516 . S
C5499 C5498 1.516 . S
C5499 C5500 1.502 . S
C5499 C5501 1.561 . S
C5499 C5502 1.526 . S
C5500 H5484 0.959 . S
C5500 H5485 0.959 . S
C5500 H5486 0.961 . S
C5500 C5499 1.502 . S
C5501 H5487 0.960 . S
C5501 H5488 0.961 . S
C5501 H5489 0.959 . S
C5501 C5499 1.561 . S
C5502 C5499 1.526 . S
C5502 C5503 1.396 . S
C5502 C5507 1.390 . S
C5503 C5497 1.465 . S
C5503 C5502 1.396 . S
C5503 C5504 1.399 . S
C5504 H5490 0.929 . S
C5504 C5503 1.399 . S
C5504 C5505 1.385 . S
C5505 H5491 0.931 . S
C5505 C5504 1.385 . S
C5505 C5506 1.389 . S
C5506 C5505 1.389 . S
C5506 C5507 1.387 . S
C5507 H5492 0.930 . S
C5507 C5502 1.390 . S
C5507 C5506 1.387 . S
H5508 C5520 0.930 . S
H5509 C5522 0.930 . S
H5510 C5523 0.930 . S
H5511 C5527 0.959 . S
H5512 C5527 0.959 . S
H5513 C5527 0.961 . S
H5514 C5528 0.960 . S
H5515 C5528 0.961 . S
H5516 C5528 0.959 . S
H5517 C5531 0.929 . S
H5518 C5532 0.931 . S
H5519 C5534 0.930 . S
C5520 H5508 0.930 . S
C5520 C5521 1.399 . S
C5520 C5525 1.399 . S
C5521 C5520 1.399 . S
C5521 C5522 1.376 . S
C5522 H5509 0.930 . S
C5522 C5521 1.376 . S
C5522 C5523 1.388 . S
C5523 H5510 0.930 . S
C5523 C5522 1.388 . S
C5523 C5524 1.390 . S
C5524 C5523 1.390 . S
C5524 C5525 1.394 . S
C5524 C5530 1.465 . S
C5525 C5520 1.399 . S
C5525 C5524 1.394 . S
C5525 C5526 1.516 . S
C5526 C5525 1.516 . S
C5526 C5527 1.502 . S
C5526 C5528 1.561 . S
C5526 C5529 1.526 . S
C5527 H5511 0.959 . S
C5527 H5512 0.959 . S
C5527 H5513 0.961 . S
C5527 C5526 1.502 . S
C5528 H5514 0.960 . S
C5528 H5515 0.961 . S
C5528 H5516 0.959 . S
C5528 C5526 1.561 . S
C5529 C5526 1.526 . S
C5529 C5530 1.396 . S
C5529 C5534 1.390 . S
C5530 C5524 1.465 . S
C5530 C5529 1.396 . S
C5530 C5531 1.399 . S
C5531 H5517 0.929 . S
C5531 C5530 1.399 . S
C5531 C5532 1.385 . S
C5532 H5518 0.931 . S
C5532 C5531 1.385 . S
C5532 C5533 1.389 . S
C5533 C5532 1.389 . S
C5533 C5534 1.387 . S
C5534 H5519 0.930 . S
C5534 C5529 1.390 . S
C5534 C5533 1.387 . S
H5535 C5547 0.930 . S
H5536 C5549 0.930 . S
H5537 C5550 0.930 . S
H5538 C5554 0.959 . S
H5539 C5554 0.959 . S
H5540 C5554 0.961 . S
H5541 C5555 0.960 . S
H5542 C5555 0.961 . S
H5543 C5555 0.959 . S
H5544 C5558 0.929 . S
H5545 C5559 0.931 . S
H5546 C5561 0.930 . S
C5547 H5535 0.930 . S
C5547 C5548 1.399 . S
C5547 C5552 1.399 . S
C5548 C5547 1.399 . S
C5548 C5549 1.376 . S
C5549 H5536 0.930 . S
C5549 C5548 1.376 . S
C5549 C5550 1.388 . S
C5550 H5537 0.930 . S
C5550 C5549 1.388 . S
C5550 C5551 1.390 . S
C5551 C5550 1.390 . S
C5551 C5552 1.394 . S
C5551 C5557 1.465 . S
C5552 C5547 1.399 . S
C5552 C5551 1.394 . S
C5552 C5553 1.516 . S
C5553 C5552 1.516 . S
C5553 C5554 1.502 . S
C5553 C5555 1.561 . S
C5553 C5556 1.526 . S
C5554 H5538 0.959 . S
C5554 H5539 0.959 . S
C5554 H5540 0.961 . S
C5554 C5553 1.502 . S
C5555 H5541 0.960 . S
C5555 H5542 0.961 . S
C5555 H5543 0.959 . S
C5555 C5553 1.561 . S
C5556 C5553 1.526 . S
C5556 C5557 1.396 . S
C5556 C5561 1.390 . S
C5557 C5551 1.465 . S
C5557 C5556 1.396 . S
C5557 C5558 1.399 . S
C5558 H5544 0.929 . S
C5558 C5557 1.399 . S
C5558 C5559 1.385 . S
C5559 H5545 0.931 . S
C5559 C5558 1.385 . S
C5559 C5560 1.389 . S
C5560 C5559 1.389 . S
C5560 C5561 1.387 . S
C5561 H5546 0.930 . S
C5561 C5556 1.390 . S
C5561 C5560 1.387 . S
H5562 C5574 0.930 . S
H5563 C5576 0.930 . S
H5564 C5577 0.930 . S
H5565 C5581 0.959 . S
H5566 C5581 0.959 . S
H5567 C5581 0.961 . S
H5568 C5582 0.960 . S
H5569 C5582 0.961 . S
H5570 C5582 0.959 . S
H5571 C5585 0.929 . S
H5572 C5586 0.931 . S
H5573 C5588 0.930 . S
C5574 H5562 0.930 . S
C5574 C5575 1.399 . S
C5574 C5579 1.399 . S
C5575 C5574 1.399 . S
C5575 C5576 1.376 . S
C5576 H5563 0.930 . S
C5576 C5575 1.376 . S
C5576 C5577 1.388 . S
C5577 H5564 0.930 . S
C5577 C5576 1.388 . S
C5577 C5578 1.390 . S
C5578 C5577 1.390 . S
C5578 C5579 1.394 . S
C5578 C5584 1.465 . S
C5579 C5574 1.399 . S
C5579 C5578 1.394 . S
C5579 C5580 1.516 . S
C5580 C5579 1.516 . S
C5580 C5581 1.502 . S
C5580 C5582 1.561 . S
C5580 C5583 1.526 . S
C5581 H5565 0.959 . S
C5581 H5566 0.959 . S
C5581 H5567 0.961 . S
C5581 C5580 1.502 . S
C5582 H5568 0.960 . S
C5582 H5569 0.961 . S
C5582 H5570 0.959 . S
C5582 C5580 1.561 . S
C5583 C5580 1.526 . S
C5583 C5584 1.396 . S
C5583 C5588 1.390 . S
C5584 C5578 1.465 . S
C5584 C5583 1.396 . S
C5584 C5585 1.399 . S
C5585 H5571 0.929 . S
C5585 C5584 1.399 . S
C5585 C5586 1.385 . S
C5586 H5572 0.931 . S
C5586 C5585 1.385 . S
C5586 C5587 1.389 . S
C5587 C5586 1.389 . S
C5587 C5588 1.387 . S
C5588 H5573 0.930 . S
C5588 C5583 1.390 . S
C5588 C5587 1.387 . S
H5589 C5601 0.930 . S
H5590 C5603 0.930 . S
H5591 C5604 0.930 . S
H5592 C5608 0.959 . S
H5593 C5608 0.959 . S
H5594 C5608 0.961 . S
H5595 C5609 0.960 . S
H5596 C5609 0.961 . S
H5597 C5609 0.959 . S
H5598 C5612 0.929 . S
H5599 C5613 0.931 . S
H5600 C5615 0.930 . S
C5601 H5589 0.930 . S
C5601 C5602 1.399 . S
C5601 C5606 1.399 . S
C5602 C5601 1.399 . S
C5602 C5603 1.376 . S
C5603 H5590 0.930 . S
C5603 C5602 1.376 . S
C5603 C5604 1.388 . S
C5604 H5591 0.930 . S
C5604 C5603 1.388 . S
C5604 C5605 1.390 . S
C5605 C5604 1.390 . S
C5605 C5606 1.394 . S
C5605 C5611 1.465 . S
C5606 C5601 1.399 . S
C5606 C5605 1.394 . S
C5606 C5607 1.516 . S
C5607 C5606 1.516 . S
C5607 C5608 1.502 . S
C5607 C5609 1.561 . S
C5607 C5610 1.526 . S
C5608 H5592 0.959 . S
C5608 H5593 0.959 . S
C5608 H5594 0.961 . S
C5608 C5607 1.502 . S
C5609 H5595 0.960 . S
C5609 H5596 0.961 . S
C5609 H5597 0.959 . S
C5609 C5607 1.561 . S
C5610 C5607 1.526 . S
C5610 C5611 1.396 . S
C5610 C5615 1.390 . S
C5611 C5605 1.465 . S
C5611 C5610 1.396 . S
C5611 C5612 1.399 . S
C5612 H5598 0.929 . S
C5612 C5611 1.399 . S
C5612 C5613 1.385 . S
C5613 H5599 0.931 . S
C5613 C5612 1.385 . S
C5613 C5614 1.389 . S
C5614 C5613 1.389 . S
C5614 C5615 1.387 . S
C5615 H5600 0.930 . S
C5615 C5610 1.390 . S
C5615 C5614 1.387 . S
H5616 C5628 0.930 . S
H5617 C5630 0.930 . S
H5618 C5631 0.930 . S
H5619 C5635 0.959 . S
H5620 C5635 0.959 . S
H5621 C5635 0.961 . S
H5622 C5636 0.960 . S
H5623 C5636 0.961 . S
H5624 C5636 0.959 . S
H5625 C5639 0.929 . S
H5626 C5640 0.931 . S
H5627 C5642 0.930 . S
C5628 H5616 0.930 . S
C5628 C5629 1.399 . S
C5628 C5633 1.399 . S
C5629 C5628 1.399 . S
C5629 C5630 1.376 . S
C5630 H5617 0.930 . S
C5630 C5629 1.376 . S
C5630 C5631 1.388 . S
C5631 H5618 0.930 . S
C5631 C5630 1.388 . S
C5631 C5632 1.390 . S
C5632 C5631 1.390 . S
C5632 C5633 1.394 . S
C5632 C5638 1.465 . S
C5633 C5628 1.399 . S
C5633 C5632 1.394 . S
C5633 C5634 1.516 . S
C5634 C5633 1.516 . S
C5634 C5635 1.502 . S
C5634 C5636 1.561 . S
C5634 C5637 1.526 . S
C5635 H5619 0.959 . S
C5635 H5620 0.959 . S
C5635 H5621 0.961 . S
C5635 C5634 1.502 . S
C5636 H5622 0.960 . S
C5636 H5623 0.961 . S
C5636 H5624 0.959 . S
C5636 C5634 1.561 . S
C5637 C5634 1.526 . S
C5637 C5638 1.396 . S
C5637 C5642 1.390 . S
C5638 C5632 1.465 . S
C5638 C5637 1.396 . S
C5638 C5639 1.399 . S
C5639 H5625 0.929 . S
C5639 C5638 1.399 . S
C5639 C5640 1.385 . S
C5640 H5626 0.931 . S
C5640 C5639 1.385 . S
C5640 C5641 1.389 . S
C5641 C5640 1.389 . S
C5641 C5642 1.387 . S
C5642 H5627 0.930 . S
C5642 C5637 1.390 . S
C5642 C5641 1.387 . S
H5643 C5655 0.930 . S
H5644 C5657 0.930 . S
H5645 C5658 0.930 . S
H5646 C5662 0.959 . S
H5647 C5662 0.959 . S
H5648 C5662 0.961 . S
H5649 C5663 0.960 . S
H5650 C5663 0.961 . S
H5651 C5663 0.959 . S
H5652 C5666 0.929 . S
H5653 C5667 0.931 . S
H5654 C5669 0.930 . S
C5655 H5643 0.930 . S
C5655 C5656 1.399 . S
C5655 C5660 1.399 . S
C5656 C5655 1.399 . S
C5656 C5657 1.376 . S
C5657 H5644 0.930 . S
C5657 C5656 1.376 . S
C5657 C5658 1.388 . S
C5658 H5645 0.930 . S
C5658 C5657 1.388 . S
C5658 C5659 1.390 . S
C5659 C5658 1.390 . S
C5659 C5660 1.394 . S
C5659 C5665 1.465 . S
C5660 C5655 1.399 . S
C5660 C5659 1.394 . S
C5660 C5661 1.516 . S
C5661 C5660 1.516 . S
C5661 C5662 1.502 . S
C5661 C5663 1.561 . S
C5661 C5664 1.526 . S
C5662 H5646 0.959 . S
C5662 H5647 0.959 . S
C5662 H5648 0.961 . S
C5662 C5661 1.502 . S
C5663 H5649 0.960 . S
C5663 H5650 0.961 . S
C5663 H5651 0.959 . S
C5663 C5661 1.561 . S
C5664 C5661 1.526 . S
C5664 C5665 1.396 . S
C5664 C5669 1.390 . S
C5665 C5659 1.465 . S
C5665 C5664 1.396 . S
C5665 C5666 1.399 . S
C5666 H5652 0.929 . S
C5666 C5665 1.399 . S
C5666 C5667 1.385 . S
C5667 H5653 0.931 . S
C5667 C5666 1.385 . S
C5667 C5668 1.389 . S
C5668 C5667 1.389 . S
C5668 C5669 1.387 . S
C5669 H5654 0.930 . S
C5669 C5664 1.390 . S
C5669 C5668 1.387 . S
H5670 C5682 0.930 . S
H5671 C5684 0.930 . S
H5672 C5685 0.930 . S
H5673 C5689 0.959 . S
H5674 C5689 0.959 . S
H5675 C5689 0.961 . S
H5676 C5690 0.960 . S
H5677 C5690 0.961 . S
H5678 C5690 0.959 . S
H5679 C5693 0.929 . S
H5680 C5694 0.931 . S
H5681 C5696 0.930 . S
C5682 H5670 0.930 . S
C5682 C5683 1.399 . S
C5682 C5687 1.399 . S
C5683 C5682 1.399 . S
C5683 C5684 1.376 . S
C5684 H5671 0.930 . S
C5684 C5683 1.376 . S
C5684 C5685 1.388 . S
C5685 H5672 0.930 . S
C5685 C5684 1.388 . S
C5685 C5686 1.390 . S
C5686 C5685 1.390 . S
C5686 C5687 1.394 . S
C5686 C5692 1.465 . S
C5687 C5682 1.399 . S
C5687 C5686 1.394 . S
C5687 C5688 1.516 . S
C5688 C5687 1.516 . S
C5688 C5689 1.502 . S
C5688 C5690 1.561 . S
C5688 C5691 1.526 . S
C5689 H5673 0.959 . S
C5689 H5674 0.959 . S
C5689 H5675 0.961 . S
C5689 C5688 1.502 . S
C5690 H5676 0.960 . S
C5690 H5677 0.961 . S
C5690 H5678 0.959 . S
C5690 C5688 1.561 . S
C5691 C5688 1.526 . S
C5691 C5692 1.396 . S
C5691 C5696 1.390 . S
C5692 C5686 1.465 . S
C5692 C5691 1.396 . S
C5692 C5693 1.399 . S
C5693 H5679 0.929 . S
C5693 C5692 1.399 . S
C5693 C5694 1.385 1_655 S
C5694 H5680 0.931 . S
C5694 C5693 1.385 1_455 S
C5694 C5695 1.389 1_455 S
C5695 C5694 1.389 1_655 S
C5695 C5696 1.387 . S
C5696 H5681 0.930 . S
C5696 C5691 1.390 . S
C5696 C5695 1.387 . S
H5697 C5709 0.930 . S
H5698 C5711 0.930 . S
H5699 C5712 0.930 . S
H5700 C5716 0.959 . S
H5701 C5716 0.959 . S
H5702 C5716 0.961 . S
H5703 C5717 0.960 . S
H5704 C5717 0.961 . S
H5705 C5717 0.959 . S
H5706 C5720 0.929 . S
H5707 C5721 0.931 . S
H5708 C5723 0.930 . S
C5709 H5697 0.930 . S
C5709 C5710 1.399 . S
C5709 C5714 1.399 . S
C5710 C5709 1.399 . S
C5710 C5711 1.376 . S
C5711 H5698 0.930 . S
C5711 C5710 1.376 . S
C5711 C5712 1.388 . S
C5712 H5699 0.930 . S
C5712 C5711 1.388 . S
C5712 C5713 1.390 . S
C5713 C5712 1.390 . S
C5713 C5714 1.394 . S
C5713 C5719 1.465 . S
C5714 C5709 1.399 . S
C5714 C5713 1.394 . S
C5714 C5715 1.516 . S
C5715 C5714 1.516 . S
C5715 C5716 1.502 . S
C5715 C5717 1.561 . S
C5715 C5718 1.526 . S
C5716 H5700 0.959 . S
C5716 H5701 0.959 . S
C5716 H5702 0.961 . S
C5716 C5715 1.502 . S
C5717 H5703 0.960 . S
C5717 H5704 0.961 . S
C5717 H5705 0.959 . S
C5717 C5715 1.561 . S
C5718 C5715 1.526 . S
C5718 C5719 1.396 . S
C5718 C5723 1.390 . S
C5719 C5713 1.465 . S
C5719 C5718 1.396 . S
C5719 C5720 1.399 . S
C5720 H5706 0.929 . S
C5720 C5719 1.399 . S
C5720 C5721 1.385 . S
C5721 H5707 0.931 . S
C5721 C5720 1.385 . S
C5721 C5722 1.389 . S
C5722 C5721 1.389 . S
C5722 C5723 1.387 . S
C5723 H5708 0.930 . S
C5723 C5718 1.390 . S
C5723 C5722 1.387 . S
H5724 C5736 0.930 . S
H5725 C5738 0.930 . S
H5726 C5739 0.930 . S
H5727 C5743 0.959 . S
H5728 C5743 0.959 . S
H5729 C5743 0.961 . S
H5730 C5744 0.960 . S
H5731 C5744 0.961 . S
H5732 C5744 0.959 . S
H5733 C5747 0.929 . S
H5734 C5748 0.931 . S
H5735 C5750 0.930 . S
C5736 H5724 0.930 . S
C5736 C5737 1.399 . S
C5736 C5741 1.399 . S
C5737 C5736 1.399 . S
C5737 C5738 1.376 . S
C5738 H5725 0.930 . S
C5738 C5737 1.376 . S
C5738 C5739 1.388 . S
C5739 H5726 0.930 . S
C5739 C5738 1.388 . S
C5739 C5740 1.390 . S
C5740 C5739 1.390 . S
C5740 C5741 1.394 . S
C5740 C5746 1.465 . S
C5741 C5736 1.399 . S
C5741 C5740 1.394 . S
C5741 C5742 1.516 . S
C5742 C5741 1.516 . S
C5742 C5743 1.502 . S
C5742 C5744 1.561 . S
C5742 C5745 1.526 . S
C5743 H5727 0.959 . S
C5743 H5728 0.959 . S
C5743 H5729 0.961 . S
C5743 C5742 1.502 . S
C5744 H5730 0.960 . S
C5744 H5731 0.961 . S
C5744 H5732 0.959 . S
C5744 C5742 1.561 . S
C5745 C5742 1.526 . S
C5745 C5746 1.396 . S
C5745 C5750 1.390 . S
C5746 C5740 1.465 . S
C5746 C5745 1.396 . S
C5746 C5747 1.399 . S
C5747 H5733 0.929 . S
C5747 C5746 1.399 . S
C5747 C5748 1.385 . S
C5748 H5734 0.931 . S
C5748 C5747 1.385 . S
C5748 C5749 1.389 . S
C5749 C5748 1.389 . S
C5749 C5750 1.387 . S
C5750 H5735 0.930 . S
C5750 C5745 1.390 . S
C5750 C5749 1.387 . S
H5751 C5763 0.930 . S
H5752 C5765 0.930 . S
H5753 C5766 0.930 . S
H5754 C5770 0.959 . S
H5755 C5770 0.959 . S
H5756 C5770 0.961 . S
H5757 C5771 0.960 . S
H5758 C5771 0.961 . S
H5759 C5771 0.959 . S
H5760 C5774 0.929 . S
H5761 C5775 0.931 . S
H5762 C5777 0.930 . S
C5763 H5751 0.930 . S
C5763 C5764 1.399 . S
C5763 C5768 1.399 . S
C5764 C5763 1.399 . S
C5764 C5765 1.376 . S
C5765 H5752 0.930 . S
C5765 C5764 1.376 . S
C5765 C5766 1.388 . S
C5766 H5753 0.930 . S
C5766 C5765 1.388 . S
C5766 C5767 1.390 . S
C5767 C5766 1.390 . S
C5767 C5768 1.394 . S
C5767 C5773 1.465 . S
C5768 C5763 1.399 . S
C5768 C5767 1.394 . S
C5768 C5769 1.516 . S
C5769 C5768 1.516 . S
C5769 C5770 1.502 . S
C5769 C5771 1.561 . S
C5769 C5772 1.526 . S
C5770 H5754 0.959 . S
C5770 H5755 0.959 . S
C5770 H5756 0.961 . S
C5770 C5769 1.502 . S
C5771 H5757 0.960 . S
C5771 H5758 0.961 . S
C5771 H5759 0.959 . S
C5771 C5769 1.561 . S
C5772 C5769 1.526 . S
C5772 C5773 1.396 . S
C5772 C5777 1.390 . S
C5773 C5767 1.465 . S
C5773 C5772 1.396 . S
C5773 C5774 1.399 . S
C5774 H5760 0.929 . S
C5774 C5773 1.399 . S
C5774 C5775 1.385 . S
C5775 H5761 0.931 . S
C5775 C5774 1.385 . S
C5775 C5776 1.389 . S
C5776 C5775 1.389 . S
C5776 C5777 1.387 . S
C5777 H5762 0.930 . S
C5777 C5772 1.390 . S
C5777 C5776 1.387 . S
H5778 C5790 0.930 . S
H5779 C5792 0.930 . S
H5780 C5793 0.930 . S
H5781 C5797 0.959 . S
H5782 C5797 0.959 . S
H5783 C5797 0.961 . S
H5784 C5798 0.960 . S
H5785 C5798 0.961 . S
H5786 C5798 0.959 . S
H5787 C5801 0.929 . S
H5788 C5802 0.931 . S
H5789 C5804 0.930 . S
C5790 H5778 0.930 . S
C5790 C5791 1.399 . S
C5790 C5795 1.399 . S
C5791 C5790 1.399 . S
C5791 C5792 1.376 . S
C5792 H5779 0.930 . S
C5792 C5791 1.376 . S
C5792 C5793 1.388 . S
C5793 H5780 0.930 . S
C5793 C5792 1.388 . S
C5793 C5794 1.390 . S
C5794 C5793 1.390 . S
C5794 C5795 1.394 . S
C5794 C5800 1.465 . S
C5795 C5790 1.399 . S
C5795 C5794 1.394 . S
C5795 C5796 1.516 . S
C5796 C5795 1.516 . S
C5796 C5797 1.502 . S
C5796 C5798 1.561 . S
C5796 C5799 1.526 . S
C5797 H5781 0.959 . S
C5797 H5782 0.959 . S
C5797 H5783 0.961 . S
C5797 C5796 1.502 . S
C5798 H5784 0.960 . S
C5798 H5785 0.961 . S
C5798 H5786 0.959 . S
C5798 C5796 1.561 . S
C5799 C5796 1.526 . S
C5799 C5800 1.396 . S
C5799 C5804 1.390 . S
C5800 C5794 1.465 . S
C5800 C5799 1.396 . S
C5800 C5801 1.399 . S
C5801 H5787 0.929 . S
C5801 C5800 1.399 . S
C5801 C5802 1.385 . S
C5802 H5788 0.931 . S
C5802 C5801 1.385 . S
C5802 C5803 1.389 . S
C5803 C5802 1.389 . S
C5803 C5804 1.387 . S
C5804 H5789 0.930 . S
C5804 C5799 1.390 . S
C5804 C5803 1.387 . S
H5805 C5817 0.930 . S
H5806 C5819 0.930 . S
H5807 C5820 0.930 . S
H5808 C5824 0.959 . S
H5809 C5824 0.959 . S
H5810 C5824 0.961 . S
H5811 C5825 0.960 . S
H5812 C5825 0.961 . S
H5813 C5825 0.959 . S
H5814 C5828 0.929 . S
H5815 C5829 0.931 . S
H5816 C5831 0.930 . S
C5817 H5805 0.930 . S
C5817 C5818 1.399 . S
C5817 C5822 1.399 . S
C5818 C5817 1.399 . S
C5818 C5819 1.376 . S
C5819 H5806 0.930 . S
C5819 C5818 1.376 . S
C5819 C5820 1.388 . S
C5820 H5807 0.930 . S
C5820 C5819 1.388 . S
C5820 C5821 1.390 . S
C5821 C5820 1.390 . S
C5821 C5822 1.394 . S
C5821 C5827 1.465 . S
C5822 C5817 1.399 . S
C5822 C5821 1.394 . S
C5822 C5823 1.516 . S
C5823 C5822 1.516 . S
C5823 C5824 1.502 . S
C5823 C5825 1.561 . S
C5823 C5826 1.526 . S
C5824 H5808 0.959 . S
C5824 H5809 0.959 . S
C5824 H5810 0.961 . S
C5824 C5823 1.502 . S
C5825 H5811 0.960 . S
C5825 H5812 0.961 . S
C5825 H5813 0.959 . S
C5825 C5823 1.561 . S
C5826 C5823 1.526 . S
C5826 C5827 1.396 . S
C5826 C5831 1.390 . S
C5827 C5821 1.465 . S
C5827 C5826 1.396 . S
C5827 C5828 1.399 . S
C5828 H5814 0.929 . S
C5828 C5827 1.399 . S
C5828 C5829 1.385 . S
C5829 H5815 0.931 . S
C5829 C5828 1.385 . S
C5829 C5830 1.389 . S
C5830 C5829 1.389 . S
C5830 C5831 1.387 . S
C5831 H5816 0.930 . S
C5831 C5826 1.390 . S
C5831 C5830 1.387 . S
H5832 C5844 0.930 . S
H5833 C5846 0.930 . S
H5834 C5847 0.930 . S
H5835 C5851 0.959 . S
H5836 C5851 0.959 . S
H5837 C5851 0.961 . S
H5838 C5852 0.960 . S
H5839 C5852 0.961 . S
H5840 C5852 0.959 . S
H5841 C5855 0.929 . S
H5842 C5856 0.931 . S
H5843 C5858 0.930 . S
C5844 H5832 0.930 . S
C5844 C5845 1.399 . S
C5844 C5849 1.399 . S
C5845 C5844 1.399 . S
C5845 C5846 1.376 . S
C5846 H5833 0.930 . S
C5846 C5845 1.376 . S
C5846 C5847 1.388 . S
C5847 H5834 0.930 . S
C5847 C5846 1.388 . S
C5847 C5848 1.390 . S
C5848 C5847 1.390 . S
C5848 C5849 1.394 . S
C5848 C5854 1.465 . S
C5849 C5844 1.399 . S
C5849 C5848 1.394 . S
C5849 C5850 1.516 . S
C5850 C5849 1.516 . S
C5850 C5851 1.502 . S
C5850 C5852 1.561 . S
C5850 C5853 1.526 . S
C5851 H5835 0.959 . S
C5851 H5836 0.959 . S
C5851 H5837 0.961 . S
C5851 C5850 1.502 . S
C5852 H5838 0.960 . S
C5852 H5839 0.961 . S
C5852 H5840 0.959 . S
C5852 C5850 1.561 . S
C5853 C5850 1.526 . S
C5853 C5854 1.396 . S
C5853 C5858 1.390 . S
C5854 C5848 1.465 . S
C5854 C5853 1.396 . S
C5854 C5855 1.399 . S
C5855 H5841 0.929 . S
C5855 C5854 1.399 . S
C5855 C5856 1.385 . S
C5856 H5842 0.931 . S
C5856 C5855 1.385 . S
C5856 C5857 1.389 . S
C5857 C5856 1.389 . S
C5857 C5858 1.387 . S
C5858 H5843 0.930 . S
C5858 C5853 1.390 . S
C5858 C5857 1.387 . S
H5859 C5871 0.930 . S
H5860 C5873 0.930 . S
H5861 C5874 0.930 . S
H5862 C5878 0.959 . S
H5863 C5878 0.959 . S
H5864 C5878 0.961 . S
H5865 C5879 0.960 . S
H5866 C5879 0.961 . S
H5867 C5879 0.959 . S
H5868 C5882 0.929 . S
H5869 C5883 0.931 1_545 S
H5870 C5885 0.930 . S
C5871 H5859 0.930 . S
C5871 C5872 1.399 . S
C5871 C5876 1.399 . S
C5872 C5871 1.399 . S
C5872 C5873 1.376 . S
C5873 H5860 0.930 . S
C5873 C5872 1.376 . S
C5873 C5874 1.388 . S
C5874 H5861 0.930 . S
C5874 C5873 1.388 . S
C5874 C5875 1.390 . S
C5875 C5874 1.390 . S
C5875 C5876 1.394 . S
C5875 C5881 1.465 . S
C5876 C5871 1.399 . S
C5876 C5875 1.394 . S
C5876 C5877 1.516 . S
C5877 C5876 1.516 . S
C5877 C5878 1.502 . S
C5877 C5879 1.561 . S
C5877 C5880 1.526 . S
C5878 H5862 0.959 . S
C5878 H5863 0.959 . S
C5878 H5864 0.961 . S
C5878 C5877 1.502 . S
C5879 H5865 0.960 . S
C5879 H5866 0.961 . S
C5879 H5867 0.959 . S
C5879 C5877 1.561 . S
C5880 C5877 1.526 . S
C5880 C5881 1.396 . S
C5880 C5885 1.390 . S
C5881 C5875 1.465 . S
C5881 C5880 1.396 . S
C5881 C5882 1.399 . S
C5882 H5868 0.929 . S
C5882 C5881 1.399 . S
C5882 C5883 1.385 . S
C5883 H5869 0.931 1_565 S
C5883 C5882 1.385 . S
C5883 C5884 1.389 . S
C5884 C5883 1.389 . S
C5884 C5885 1.387 . S
C5885 H5870 0.930 . S
C5885 C5880 1.390 . S
C5885 C5884 1.387 . S
H5886 C5898 0.930 . S
H5887 C5900 0.930 . S
H5888 C5901 0.930 . S
H5889 C5905 0.959 . S
H5890 C5905 0.959 . S
H5891 C5905 0.961 . S
H5892 C5906 0.960 . S
H5893 C5906 0.961 . S
H5894 C5906 0.959 . S
H5895 C5909 0.929 . S
H5896 C5910 0.931 . S
H5897 C5912 0.930 . S
C5898 H5886 0.930 . S
C5898 C5899 1.399 . S
C5898 C5903 1.399 . S
C5899 C5898 1.399 . S
C5899 C5900 1.376 . S
C5900 H5887 0.930 . S
C5900 C5899 1.376 . S
C5900 C5901 1.388 . S
C5901 H5888 0.930 . S
C5901 C5900 1.388 . S
C5901 C5902 1.390 . S
C5902 C5901 1.390 . S
C5902 C5903 1.394 . S
C5902 C5908 1.465 . S
C5903 C5898 1.399 . S
C5903 C5902 1.394 . S
C5903 C5904 1.516 . S
C5904 C5903 1.516 . S
C5904 C5905 1.502 . S
C5904 C5906 1.561 . S
C5904 C5907 1.526 . S
C5905 H5889 0.959 . S
C5905 H5890 0.959 . S
C5905 H5891 0.961 . S
C5905 C5904 1.502 . S
C5906 H5892 0.960 . S
C5906 H5893 0.961 . S
C5906 H5894 0.959 . S
C5906 C5904 1.561 . S
C5907 C5904 1.526 . S
C5907 C5908 1.396 . S
C5907 C5912 1.390 . S
C5908 C5902 1.465 . S
C5908 C5907 1.396 . S
C5908 C5909 1.399 . S
C5909 H5895 0.929 . S
C5909 C5908 1.399 . S
C5909 C5910 1.385 . S
C5910 H5896 0.931 . S
C5910 C5909 1.385 . S
C5910 C5911 1.389 . S
C5911 C5910 1.389 . S
C5911 C5912 1.387 . S
C5912 H5897 0.930 . S
C5912 C5907 1.390 . S
C5912 C5911 1.387 . S
H5913 C5925 0.930 . S
H5914 C5927 0.930 . S
H5915 C5928 0.930 . S
H5916 C5932 0.959 . S
H5917 C5932 0.959 . S
H5918 C5932 0.961 . S
H5919 C5933 0.960 . S
H5920 C5933 0.961 . S
H5921 C5933 0.959 . S
H5922 C5936 0.929 1_556 S
H5923 C5937 0.931 . S
H5924 C5939 0.930 . S
C5925 H5913 0.930 . S
C5925 C5926 1.399 . S
C5925 C5930 1.399 . S
C5926 C5925 1.399 . S
C5926 C5927 1.376 . S
C5927 H5914 0.930 . S
C5927 C5926 1.376 . S
C5927 C5928 1.388 . S
C5928 H5915 0.930 . S
C5928 C5927 1.388 . S
C5928 C5929 1.390 . S
C5929 C5928 1.390 . S
C5929 C5930 1.394 . S
C5929 C5935 1.465 . S
C5930 C5925 1.399 . S
C5930 C5929 1.394 . S
C5930 C5931 1.516 . S
C5931 C5930 1.516 . S
C5931 C5932 1.502 . S
C5931 C5933 1.561 . S
C5931 C5934 1.526 . S
C5932 H5916 0.959 . S
C5932 H5917 0.959 . S
C5932 H5918 0.961 . S
C5932 C5931 1.502 . S
C5933 H5919 0.960 . S
C5933 H5920 0.961 . S
C5933 H5921 0.959 . S
C5933 C5931 1.561 . S
C5934 C5931 1.526 . S
C5934 C5935 1.396 . S
C5934 C5939 1.390 . S
C5935 C5929 1.465 . S
C5935 C5934 1.396 . S
C5935 C5936 1.399 . S
C5936 H5922 0.929 1_554 S
C5936 C5935 1.399 . S
C5936 C5937 1.385 . S
C5937 H5923 0.931 . S
C5937 C5936 1.385 . S
C5937 C5938 1.389 . S
C5938 C5937 1.389 . S
C5938 C5939 1.387 . S
C5939 H5924 0.930 . S
C5939 C5934 1.390 . S
C5939 C5938 1.387 . S
H5940 C5952 0.930 . S
H5941 C5954 0.930 . S
H5942 C5955 0.930 . S
H5943 C5959 0.959 . S
H5944 C5959 0.959 . S
H5945 C5959 0.961 . S
H5946 C5960 0.960 . S
H5947 C5960 0.961 . S
H5948 C5960 0.959 . S
H5949 C5963 0.929 . S
H5950 C5964 0.931 . S
H5951 C5966 0.930 . S
C5952 H5940 0.930 . S
C5952 C5953 1.399 . S
C5952 C5957 1.399 . S
C5953 C5952 1.399 . S
C5953 C5954 1.376 . S
C5954 H5941 0.930 . S
C5954 C5953 1.376 . S
C5954 C5955 1.388 . S
C5955 H5942 0.930 . S
C5955 C5954 1.388 . S
C5955 C5956 1.390 . S
C5956 C5955 1.390 . S
C5956 C5957 1.394 . S
C5956 C5962 1.465 . S
C5957 C5952 1.399 . S
C5957 C5956 1.394 . S
C5957 C5958 1.516 . S
C5958 C5957 1.516 . S
C5958 C5959 1.502 . S
C5958 C5960 1.561 . S
C5958 C5961 1.526 . S
C5959 H5943 0.959 . S
C5959 H5944 0.959 . S
C5959 H5945 0.961 . S
C5959 C5958 1.502 . S
C5960 H5946 0.960 . S
C5960 H5947 0.961 . S
C5960 H5948 0.959 . S
C5960 C5958 1.561 . S
C5961 C5958 1.526 . S
C5961 C5962 1.396 . S
C5961 C5966 1.390 . S
C5962 C5956 1.465 . S
C5962 C5961 1.396 . S
C5962 C5963 1.399 . S
C5963 H5949 0.929 . S
C5963 C5962 1.399 . S
C5963 C5964 1.385 . S
C5964 H5950 0.931 . S
C5964 C5963 1.385 . S
C5964 C5965 1.389 . S
C5965 C5964 1.389 . S
C5965 C5966 1.387 . S
C5966 H5951 0.930 . S
C5966 C5961 1.390 . S
C5966 C5965 1.387 . S
H5967 C5979 0.930 . S
H5968 C5981 0.930 . S
H5969 C5982 0.930 . S
H5970 C5986 0.959 . S
H5971 C5986 0.959 . S
H5972 C5986 0.961 . S
H5973 C5987 0.960 . S
H5974 C5987 0.961 . S
H5975 C5987 0.959 . S
H5976 C5990 0.929 . S
H5977 C5991 0.931 . S
H5978 C5993 0.930 . S
C5979 H5967 0.930 . S
C5979 C5980 1.399 . S
C5979 C5984 1.399 . S
C5980 C5979 1.399 . S
C5980 C5981 1.376 . S
C5981 H5968 0.930 . S
C5981 C5980 1.376 . S
C5981 C5982 1.388 . S
C5982 H5969 0.930 . S
C5982 C5981 1.388 . S
C5982 C5983 1.390 . S
C5983 C5982 1.390 . S
C5983 C5984 1.394 . S
C5983 C5989 1.465 . S
C5984 C5979 1.399 . S
C5984 C5983 1.394 . S
C5984 C5985 1.516 . S
C5985 C5984 1.516 . S
C5985 C5986 1.502 . S
C5985 C5987 1.561 . S
C5985 C5988 1.526 . S
C5986 H5970 0.959 . S
C5986 H5971 0.959 . S
C5986 H5972 0.961 . S
C5986 C5985 1.502 . S
C5987 H5973 0.960 . S
C5987 H5974 0.961 . S
C5987 H5975 0.959 . S
C5987 C5985 1.561 . S
C5988 C5985 1.526 . S
C5988 C5989 1.396 . S
C5988 C5993 1.390 . S
C5989 C5983 1.465 . S
C5989 C5988 1.396 . S
C5989 C5990 1.399 . S
C5990 H5976 0.929 . S
C5990 C5989 1.399 . S
C5990 C5991 1.385 . S
C5991 H5977 0.931 . S
C5991 C5990 1.385 . S
C5991 C5992 1.389 . S
C5992 C5991 1.389 . S
C5992 C5993 1.387 . S
C5993 H5978 0.930 . S
C5993 C5988 1.390 . S
C5993 C5992 1.387 . S
H5994 C6006 0.930 . S
H5995 C6008 0.930 . S
H5996 C6009 0.930 . S
H5997 C6013 0.959 . S
H5998 C6013 0.959 . S
H5999 C6013 0.961 . S
H6000 C6014 0.960 . S
H6001 C6014 0.961 . S
H6002 C6014 0.959 . S
H6003 C6017 0.929 . S
H6004 C6018 0.931 . S
H6005 C6020 0.930 . S
C6006 H5994 0.930 . S
C6006 C6007 1.399 . S
C6006 C6011 1.399 . S
C6007 C6006 1.399 . S
C6007 C6008 1.376 . S
C6008 H5995 0.930 . S
C6008 C6007 1.376 . S
C6008 C6009 1.388 . S
C6009 H5996 0.930 . S
C6009 C6008 1.388 . S
C6009 C6010 1.390 . S
C6010 C6009 1.390 . S
C6010 C6011 1.394 . S
C6010 C6016 1.465 . S
C6011 C6006 1.399 . S
C6011 C6010 1.394 . S
C6011 C6012 1.516 . S
C6012 C6011 1.516 . S
C6012 C6013 1.502 . S
C6012 C6014 1.561 . S
C6012 C6015 1.526 . S
C6013 H5997 0.959 . S
C6013 H5998 0.959 . S
C6013 H5999 0.961 . S
C6013 C6012 1.502 . S
C6014 H6000 0.960 . S
C6014 H6001 0.961 . S
C6014 H6002 0.959 . S
C6014 C6012 1.561 . S
C6015 C6012 1.526 . S
C6015 C6016 1.396 . S
C6015 C6020 1.390 . S
C6016 C6010 1.465 . S
C6016 C6015 1.396 . S
C6016 C6017 1.399 . S
C6017 H6003 0.929 . S
C6017 C6016 1.399 . S
C6017 C6018 1.385 . S
C6018 H6004 0.931 . S
C6018 C6017 1.385 . S
C6018 C6019 1.389 . S
C6019 C6018 1.389 . S
C6019 C6020 1.387 . S
C6020 H6005 0.930 . S
C6020 C6015 1.390 . S
C6020 C6019 1.387 . S
H6021 C6033 0.930 . S
H6022 C6035 0.930 . S
H6023 C6036 0.930 . S
H6024 C6040 0.959 . S
H6025 C6040 0.959 . S
H6026 C6040 0.961 . S
H6027 C6041 0.960 . S
H6028 C6041 0.961 . S
H6029 C6041 0.959 . S
H6030 C6044 0.929 . S
H6031 C6045 0.931 . S
H6032 C6047 0.930 . S
C6033 H6021 0.930 . S
C6033 C6034 1.399 . S
C6033 C6038 1.399 . S
C6034 C6033 1.399 . S
C6034 C6035 1.376 . S
C6035 H6022 0.930 . S
C6035 C6034 1.376 . S
C6035 C6036 1.388 . S
C6036 H6023 0.930 . S
C6036 C6035 1.388 . S
C6036 C6037 1.390 . S
C6037 C6036 1.390 . S
C6037 C6038 1.394 . S
C6037 C6043 1.465 . S
C6038 C6033 1.399 . S
C6038 C6037 1.394 . S
C6038 C6039 1.516 . S
C6039 C6038 1.516 . S
C6039 C6040 1.502 . S
C6039 C6041 1.561 . S
C6039 C6042 1.526 . S
C6040 H6024 0.959 . S
C6040 H6025 0.959 . S
C6040 H6026 0.961 . S
C6040 C6039 1.502 . S
C6041 H6027 0.960 . S
C6041 H6028 0.961 . S
C6041 H6029 0.959 . S
C6041 C6039 1.561 . S
C6042 C6039 1.526 . S
C6042 C6043 1.396 . S
C6042 C6047 1.390 . S
C6043 C6037 1.465 . S
C6043 C6042 1.396 . S
C6043 C6044 1.399 . S
C6044 H6030 0.929 . S
C6044 C6043 1.399 . S
C6044 C6045 1.385 . S
C6045 H6031 0.931 . S
C6045 C6044 1.385 . S
C6045 C6046 1.389 . S
C6046 C6045 1.389 . S
C6046 C6047 1.387 . S
C6047 H6032 0.930 . S
C6047 C6042 1.390 . S
C6047 C6046 1.387 . S
C3469 C665 2.012 . S
C3481 C2168 2.069 . S
C3496 C381 1.787 . S
C3508 C2270 1.786 . S
C3523 C460 1.860 . S
C3535 C2336 1.936 . S
C3562 C2422 1.374 . S
C3550 C585 1.528 . S
C3577 C108 1.528 . S
C3589 C2506 1.399 . S
C3616 C2588 1.936 . S
C3604 C196 1.860 . S
C3643 C2690 1.789 . S
C3631 C313 1.803 . S
C3658 C49 2.030 . S
C3670 C2756 2.060 . S
C3697 C2186 1.545 . S
C3685 C1457 1.537 . S
C3712 C1545 0.825 . S
C3724 C2254 0.801 . S
C3751 C2354 0.978 . S
C3739 C1721 1.020 . S
C3778 C2420 1.657 . S
C3766 C1113 1.598 . S
C3793 C1428 1.598 . S
C3805 C2504 1.656 . S
C3832 C2606 1.014 . S
C3820 C1516 1.025 . S
C3859 C2674 0.728 . S
C3847 C1692 0.812 . S
C3886 C2774 1.509 . S
C3874 C1085 1.552 . S
C3913 C2170 0.960 . S
C3901 C988 0.916 . S
C3928 C1817 1.648 . S
C3940 C2858 1.655 . S
C3967 C2926 1.215 . S
C3955 C2081 1.320 . S
C3994 C3008 0.813 . S
C3982 C1993 0.856 . S
C4009 C761 0.887 . S
C4021 C2758 0.873 . S
C4036 C821 1.317 . S
C4048 C2338 1.210 . S
C4063 C2053 1.646 . S
C4075 C3110 1.655 . S
C4102 C3176 0.843 . S
C4090 C1868 0.806 . S
C4129 C2179 2.047 . S
C4117 C372 2.040 . S
C4156 C3183 1.802 . S
C4144 C645 1.804 . S
C4171 C577 1.853 . S
C4183 C2347 1.937 . S
C4198 C497 1.529 . S
C4210 C3105 1.359 . S
C4237 C2517 1.435 . S
C4225 C57 1.529 . S
C4252 C293 1.852 . S
C4264 C2935 1.937 . S
C4291 C2679 1.808 1_556 S
C4279 C205 1.803 . S
C4318 C3271 2.050 . S
C4306 C145 2.046 . S
C4345 C2175 1.492 . S
C4333 C909 1.543 . S
C4372 C3189 0.828 . S
C4360 C1956 0.820 . S
C4387 C724 1.023 . S
C4399 C2343 1.028 . S
C4414 C1780 1.601 . S
C4426 C3103 1.652 . S
C4441 C937 1.600 . S
C4453 C2515 1.638 . S
C4480 C2931 0.975 . S
C4468 C1985 1.013 . S
C4495 C753 0.821 . S
C4507 C2685 0.711 . S
C4522 C1809 1.533 . S
C4534 C3267 1.528 . S
C4549 C1173 0.912 . S
C4561 C2181 0.962 . S
C4576 C1105 1.626 . S
C4588 C2847 1.624 . S
C4603 C1633 1.321 . S
C4615 C2601 1.211 . S
C4630 C1553 0.769 . S
C4642 C3019 0.846 . S
C4669 C3273 0.847 . S
C4657 C1729 0.923 . S
C4684 C1340 1.335 . S
C4696 C2349 1.305 . S
C4723 C2427 1.639 . S
C4711 C1604 1.658 . S
C4750 C2263 0.830 . S
C4738 C1252 0.782 . S
C4765 C489 2.017 . S
C4777 C3344 2.066 . S
C4804 C3194 1.785 . S
C4792 C557 1.788 . S
C4819 C636 1.891 1_554 S
C4831 C3428 1.922 . S
C4846 C409 1.529 . S
C4858 C3094 1.424 . S
C4873 C284 1.530 . S
C4885 C2842 1.380 . S
C4912 C2924 1.927 . S
C4900 C20 1.876 . S
C4939 C3026 1.808 . S
C4927 C137 1.795 . S
C4966 C3260 2.075 . S
C4954 C225 2.001 . S
C4993 C3362 1.474 . S
C4981 C1641 1.572 . S
C5008 C1193 0.820 . S
C5020 C3178 0.882 . S
C5047 C3446 1.049 . S
C5035 C1289 1.030 . S
C5074 C3092 1.644 . S
C5062 C1377 1.615 . S
C5101 C2840 1.624 . S
C5089 C1613 1.647 . S
C5116 C1164 1.025 . S
C5128 C2942 1.014 . S
C5155 C3010 0.753 . S
C5143 C1261 0.812 . S
C5170 C1349 1.557 . S
C5182 C3278 1.507 . S
C5209 C3346 0.933 . S
C5197 C1965 0.964 . S
C5224 C849 1.648 . S
C5236 C2522 1.609 . S
C5263 C2590 1.210 . S
C5251 C929 1.318 . S
C5290 C2672 0.851 . S
C5278 C1017 0.798 . S
C5317 C3262 0.961 . S
C5305 C1897 0.974 . S
C5332 C1789 1.321 . S
C5344 C3430 1.218 . S
C5371 C2438 1.648 . S
C5359 C900 1.635 . S
C5398 C2252 0.854 . S
C5386 C733 0.790 . S
C5413 C548 1.999 . S
C5425 C3355 2.068 . S
C5452 C2259 1.792 . S
C5440 C469 1.785 . S
C5467 C401 1.859 . S
C5479 C3439 1.936 . S
C5494 C673 1.529 . S
C5506 C2433 1.360 . S
C5521 C233 1.526 . S
C5533 C2853 1.435 . S
C5560 C2599 1.908 . S
C5548 C117 1.903 . S
C5575 C29 1.806 . S
C5587 C3015 1.810 . S
C5602 C321 2.041 . S
C5614 C2767 2.047 . S
C5641 C3351 1.487 . S
C5629 C2044 1.546 . S
C5656 C997 0.814 . S
C5668 C2265 0.740 . S
C5695 C3435 1.037 1_655 S
C5683 C1877 1.025 . S
C5710 C812 1.596 . S
C5722 C2431 1.650 . S
C5737 C2073 1.631 . S
C5749 C2851 1.639 . S
C5776 C2595 0.992 . S
C5764 C1025 1.020 . S
C5791 C1905 0.810 . S
C5803 C3021 0.880 . S
C5830 C2763 1.479 . S
C5818 C841 1.567 . S
C5857 C3357 0.852 . S
C5845 C1525 0.900 . S
C5884 C2511 1.609 1_565 S
C5872 C1369 1.628 . S
C5899 C1465 1.335 . S
C5911 C2937 1.302 . S
C5938 C2683 0.799 . S
C5926 C1201 0.833 . S
C5953 C1281 0.927 . S
C5965 C2769 0.849 . S
C5980 C1076 1.331 . S
C5992 C3441 1.250 . S
C6019 C3099 1.614 . S
C6007 C1437 1.626 . S
C6046 C3187 0.827 . S
C6034 C1701 0.855 . S
