# Generated by pormake.
# Topology cor, (4,6)-cn, num edge types: 1
# Building blocks:
#     Node 0, Type 0, BuildingBlock: QUQFOY_clean_sbu_3, # of connection points: 4
#     Node 1, Type 0, BuildingBlock: QUQFOY_clean_sbu_3, # of connection points: 4
#     Node 2, Type 0, BuildingBlock: QUQFOY_clean_sbu_3, # of connection points: 4
#     Node 3, Type 0, BuildingBlock: QUQFOY_clean_sbu_3, # of connection points: 4
#     Node 4, Type 0, BuildingBlock: QUQFOY_clean_sbu_3, # of connection points: 4
#     Node 5, Type 0, BuildingBlock: QUQFOY_clean_sbu_3, # of connection points: 4
#     Node 6, Type 0, BuildingBlock: QUQFOY_clean_sbu_3, # of connection points: 4
#     Node 7, Type 0, BuildingBlock: QUQFOY_clean_sbu_3, # of connection points: 4
#     Node 8, Type 0, BuildingBlock: QUQFOY_clean_sbu_3, # of connection points: 4
#     Node 9, Type 0, BuildingBlock: QUQFOY_clean_sbu_3, # of connection points: 4
#     Node 10, Type 0, BuildingBlock: QUQFOY_clean_sbu_3, # of connection points: 4
#     Node 11, Type 0, BuildingBlock: QUQFOY_clean_sbu_3, # of connection points: 4
#     Node 12, Type 0, BuildingBlock: QUQFOY_clean_sbu_3, # of connection points: 4
#     Node 13, Type 0, BuildingBlock: QUQFOY_clean_sbu_3, # of connection points: 4
#     Node 14, Type 0, BuildingBlock: QUQFOY_clean_sbu_3, # of connection points: 4
#     Node 15, Type 0, BuildingBlock: QUQFOY_clean_sbu_3, # of connection points: 4
#     Node 16, Type 0, BuildingBlock: QUQFOY_clean_sbu_3, # of connection points: 4
#     Node 17, Type 0, BuildingBlock: QUQFOY_clean_sbu_3, # of connection points: 4
#     Node 18, Type 1, BuildingBlock: MIDCAF_clean_sbu_0, # of connection points: 6
#     Node 19, Type 1, BuildingBlock: MIDCAF_clean_sbu_0, # of connection points: 6
#     Node 20, Type 1, BuildingBlock: MIDCAF_clean_sbu_0, # of connection points: 6
#     Node 21, Type 1, BuildingBlock: MIDCAF_clean_sbu_0, # of connection points: 6
#     Node 22, Type 1, BuildingBlock: MIDCAF_clean_sbu_0, # of connection points: 6
#     Node 23, Type 1, BuildingBlock: MIDCAF_clean_sbu_0, # of connection points: 6
#     Node 24, Type 1, BuildingBlock: MIDCAF_clean_sbu_0, # of connection points: 6
#     Node 25, Type 1, BuildingBlock: MIDCAF_clean_sbu_0, # of connection points: 6
#     Node 26, Type 1, BuildingBlock: MIDCAF_clean_sbu_0, # of connection points: 6
#     Node 27, Type 1, BuildingBlock: MIDCAF_clean_sbu_0, # of connection points: 6
#     Node 28, Type 1, BuildingBlock: MIDCAF_clean_sbu_0, # of connection points: 6
#     Node 29, Type 1, BuildingBlock: MIDCAF_clean_sbu_0, # of connection points: 6
#     Edge 30, Type (0, 1), BuildingBlock: MIFKUJ_clean_linker_0, # of connection points: 2
#     Edge 31, Type (0, 1), BuildingBlock: MIFKUJ_clean_linker_0, # of connection points: 2
#     Edge 32, Type (0, 1), BuildingBlock: MIFKUJ_clean_linker_0, # of connection points: 2
#     Edge 33, Type (0, 1), BuildingBlock: MIFKUJ_clean_linker_0, # of connection points: 2
#     Edge 34, Type (0, 1), BuildingBlock: MIFKUJ_clean_linker_0, # of connection points: 2
#     Edge 35, Type (0, 1), BuildingBlock: MIFKUJ_clean_linker_0, # of connection points: 2
#     Edge 36, Type (0, 1), BuildingBlock: MIFKUJ_clean_linker_0, # of connection points: 2
#     Edge 37, Type (0, 1), BuildingBlock: MIFKUJ_clean_linker_0, # of connection points: 2
#     Edge 38, Type (0, 1), BuildingBlock: MIFKUJ_clean_linker_0, # of connection points: 2
#     Edge 39, Type (0, 1), BuildingBlock: MIFKUJ_clean_linker_0, # of connection points: 2
#     Edge 40, Type (0, 1), BuildingBlock: MIFKUJ_clean_linker_0, # of connection points: 2
#     Edge 41, Type (0, 1), BuildingBlock: MIFKUJ_clean_linker_0, # of connection points: 2
#     Edge 42, Type (0, 1), BuildingBlock: MIFKUJ_clean_linker_0, # of connection points: 2
#     Edge 43, Type (0, 1), BuildingBlock: MIFKUJ_clean_linker_0, # of connection points: 2
#     Edge 44, Type (0, 1), BuildingBlock: MIFKUJ_clean_linker_0, # of connection points: 2
#     Edge 45, Type (0, 1), BuildingBlock: MIFKUJ_clean_linker_0, # of connection points: 2
#     Edge 46, Type (0, 1), BuildingBlock: MIFKUJ_clean_linker_0, # of connection points: 2
#     Edge 47, Type (0, 1), BuildingBlock: MIFKUJ_clean_linker_0, # of connection points: 2
#     Edge 48, Type (0, 1), BuildingBlock: MIFKUJ_clean_linker_0, # of connection points: 2
#     Edge 49, Type (0, 1), BuildingBlock: MIFKUJ_clean_linker_0, # of connection points: 2
#     Edge 50, Type (0, 1), BuildingBlock: MIFKUJ_clean_linker_0, # of connection points: 2
#     Edge 51, Type (0, 1), BuildingBlock: MIFKUJ_clean_linker_0, # of connection points: 2
#     Edge 52, Type (0, 1), BuildingBlock: MIFKUJ_clean_linker_0, # of connection points: 2
#     Edge 53, Type (0, 1), BuildingBlock: MIFKUJ_clean_linker_0, # of connection points: 2
#     Edge 54, Type (0, 1), BuildingBlock: MIFKUJ_clean_linker_0, # of connection points: 2
#     Edge 55, Type (0, 1), BuildingBlock: MIFKUJ_clean_linker_0, # of connection points: 2
#     Edge 56, Type (0, 1), BuildingBlock: MIFKUJ_clean_linker_0, # of connection points: 2
#     Edge 57, Type (0, 1), BuildingBlock: MIFKUJ_clean_linker_0, # of connection points: 2
#     Edge 58, Type (0, 1), BuildingBlock: MIFKUJ_clean_linker_0, # of connection points: 2
#     Edge 59, Type (0, 1), BuildingBlock: MIFKUJ_clean_linker_0, # of connection points: 2
#     Edge 60, Type (0, 1), BuildingBlock: MIFKUJ_clean_linker_0, # of connection points: 2
#     Edge 61, Type (0, 1), BuildingBlock: MIFKUJ_clean_linker_0, # of connection points: 2
#     Edge 62, Type (0, 1), BuildingBlock: MIFKUJ_clean_linker_0, # of connection points: 2
#     Edge 63, Type (0, 1), BuildingBlock: MIFKUJ_clean_linker_0, # of connection points: 2
#     Edge 64, Type (0, 1), BuildingBlock: MIFKUJ_clean_linker_0, # of connection points: 2
#     Edge 65, Type (0, 1), BuildingBlock: MIFKUJ_clean_linker_0, # of connection points: 2
#     Edge 66, Type (0, 1), BuildingBlock: MIFKUJ_clean_linker_0, # of connection points: 2
#     Edge 67, Type (0, 1), BuildingBlock: MIFKUJ_clean_linker_0, # of connection points: 2
#     Edge 68, Type (0, 1), BuildingBlock: MIFKUJ_clean_linker_0, # of connection points: 2
#     Edge 69, Type (0, 1), BuildingBlock: MIFKUJ_clean_linker_0, # of connection points: 2
#     Edge 70, Type (0, 1), BuildingBlock: MIFKUJ_clean_linker_0, # of connection points: 2
#     Edge 71, Type (0, 1), BuildingBlock: MIFKUJ_clean_linker_0, # of connection points: 2
#     Edge 72, Type (0, 1), BuildingBlock: MIFKUJ_clean_linker_0, # of connection points: 2
#     Edge 73, Type (0, 1), BuildingBlock: MIFKUJ_clean_linker_0, # of connection points: 2
#     Edge 74, Type (0, 1), BuildingBlock: MIFKUJ_clean_linker_0, # of connection points: 2
#     Edge 75, Type (0, 1), BuildingBlock: MIFKUJ_clean_linker_0, # of connection points: 2
#     Edge 76, Type (0, 1), BuildingBlock: MIFKUJ_clean_linker_0, # of connection points: 2
#     Edge 77, Type (0, 1), BuildingBlock: MIFKUJ_clean_linker_0, # of connection points: 2
#     Edge 78, Type (0, 1), BuildingBlock: MIFKUJ_clean_linker_0, # of connection points: 2
#     Edge 79, Type (0, 1), BuildingBlock: MIFKUJ_clean_linker_0, # of connection points: 2
#     Edge 80, Type (0, 1), BuildingBlock: MIFKUJ_clean_linker_0, # of connection points: 2
#     Edge 81, Type (0, 1), BuildingBlock: MIFKUJ_clean_linker_0, # of connection points: 2
#     Edge 82, Type (0, 1), BuildingBlock: MIFKUJ_clean_linker_0, # of connection points: 2
#     Edge 83, Type (0, 1), BuildingBlock: MIFKUJ_clean_linker_0, # of connection points: 2
#     Edge 84, Type (0, 1), BuildingBlock: MIFKUJ_clean_linker_0, # of connection points: 2
#     Edge 85, Type (0, 1), BuildingBlock: MIFKUJ_clean_linker_0, # of connection points: 2
#     Edge 86, Type (0, 1), BuildingBlock: MIFKUJ_clean_linker_0, # of connection points: 2
#     Edge 87, Type (0, 1), BuildingBlock: MIFKUJ_clean_linker_0, # of connection points: 2
#     Edge 88, Type (0, 1), BuildingBlock: MIFKUJ_clean_linker_0, # of connection points: 2
#     Edge 89, Type (0, 1), BuildingBlock: MIFKUJ_clean_linker_0, # of connection points: 2
#     Edge 90, Type (0, 1), BuildingBlock: MIFKUJ_clean_linker_0, # of connection points: 2
#     Edge 91, Type (0, 1), BuildingBlock: MIFKUJ_clean_linker_0, # of connection points: 2
#     Edge 92, Type (0, 1), BuildingBlock: MIFKUJ_clean_linker_0, # of connection points: 2
#     Edge 93, Type (0, 1), BuildingBlock: MIFKUJ_clean_linker_0, # of connection points: 2
#     Edge 94, Type (0, 1), BuildingBlock: MIFKUJ_clean_linker_0, # of connection points: 2
#     Edge 95, Type (0, 1), BuildingBlock: MIFKUJ_clean_linker_0, # of connection points: 2
#     Edge 96, Type (0, 1), BuildingBlock: MIFKUJ_clean_linker_0, # of connection points: 2
#     Edge 97, Type (0, 1), BuildingBlock: MIFKUJ_clean_linker_0, # of connection points: 2
#     Edge 98, Type (0, 1), BuildingBlock: MIFKUJ_clean_linker_0, # of connection points: 2
#     Edge 99, Type (0, 1), BuildingBlock: MIFKUJ_clean_linker_0, # of connection points: 2
#     Edge 100, Type (0, 1), BuildingBlock: MIFKUJ_clean_linker_0, # of connection points: 2
#     Edge 101, Type (0, 1), BuildingBlock: MIFKUJ_clean_linker_0, # of connection points: 2
# Relax obj value: 0.108
# Max RMSD: 0.161
# Mean RMSD: 0.107
data_MOF--net-cor--node1-QUQFOY_clean_sbu_3--node2-MIDCAF_clean_sbu_0--edge1-MIFKUJ_clean_linker_0
_symmetry_space_group_name_H-M    P1
_symmetry_Int_Tables_number       1
_symmetry_cell_setting            triclinic
loop_
_symmetry_equiv_pos_as_xyz
'x, y, z'
_cell_length_a     50.134483
_cell_length_b     50.286989
_cell_length_c     131.7844
_cell_angle_alpha  90.076746
_cell_angle_beta   89.788466
_cell_angle_gamma 120.49109
loop_
_atom_site_label
_atom_site_type_symbol
_atom_site_fract_x
_atom_site_fract_y
_atom_site_fract_z
_atom_type_partial_charge
C0 C 0.6944 0.94253 0.25147 0.0
O1 O 0.707 0.93149 0.24584 0.0
Cd2 Cd 0.75908 0.9628 0.24019 0.0
O3 O 0.70775 0.97153 0.25303 0.0
Cd4 Cd 0.75552 0.01912 0.24714 0.0
C5 C 0.79064 0.99562 0.26339 0.0
O6 O 0.76272 0.00411 0.23011 0.0
O7 O 0.80297 0.04261 0.23688 0.0
O8 O 0.72369 0.04011 0.24171 0.0
C9 C 0.78998 0.02683 0.229 0.0
O10 O 0.78694 0.97683 0.2563 0.0
C11 C 0.74034 0.06654 0.24567 0.0
O12 O 0.78091 0.01446 0.26237 0.0
O13 O 0.76306 0.07032 0.25103 0.0
C14 C 0.93955 0.69874 0.24872 0.0
O15 O 0.93022 0.71617 0.25221 0.0
Cd16 Cd 0.96418 0.76715 0.25844 0.0
O17 O 0.96828 0.70745 0.24891 0.0
Cd18 Cd 0.01616 0.75501 0.25469 0.0
C19 C 0.00383 0.79468 0.23645 0.0
O20 O -0.00154 0.76557 0.27074 0.0
O21 O 0.03992 0.80365 0.26433 0.0
O22 O 0.03484 0.72331 0.26226 0.0
C23 C 0.02246 0.79181 0.27201 0.0
O24 O 0.98712 0.79773 0.2431 0.0
C25 C 0.06223 0.73898 0.25881 0.0
O26 O 0.01582 0.77809 0.2382 0.0
O27 O 0.06753 0.76058 0.25265 0.0
C28 C 0.26138 0.34646 0.24874 0.0
O29 O 0.23574 0.3321 0.2441 0.0
Cd30 Cd 0.21361 0.27909 0.23971 0.0
O31 O 0.27786 0.33401 0.24999 0.0
Cd32 Cd 0.27558 0.28501 0.24475 0.0
C33 C 0.22111 0.25247 0.26297 0.0
O34 O 0.24878 0.27462 0.22842 0.0
O35 O 0.24884 0.23592 0.23544 0.0
O36 O 0.32788 0.31434 0.2378 0.0
C37 C 0.24422 0.24751 0.22756 0.0
O38 O 0.20346 0.25401 0.25636 0.0
C39 C 0.33783 0.29841 0.24204 0.0
O40 O 0.24956 0.26275 0.26095 0.0
O41 O 0.31943 0.27746 0.24813 0.0
C42 C 0.33771 0.09057 0.7452 0.0
O43 O 0.32035 0.10012 0.7486 0.0
Cd44 Cd 0.27197 0.06799 0.75707 0.0
O45 O 0.33005 0.06238 0.74633 0.0
Cd46 Cd 0.28307 0.01594 0.75339 0.0
C47 C 0.23808 0.02543 0.73639 0.0
O48 O 0.27651 0.03599 0.76973 0.0
O49 O 0.23706 0.9939 0.76442 0.0
O50 O 0.31588 0.99541 0.75886 0.0
C51 C 0.25037 0.01246 0.7717 0.0
O52 O 0.23591 0.0423 0.74316 0.0
C53 C 0.29753 0.96806 0.75583 0.0
O54 O 0.25594 0.01462 0.73766 0.0
O55 O 0.27352 0.96352 0.75112 0.0
C56 C 0.93102 0.25933 0.75001 0.0
O57 O 0.92023 0.23368 0.75458 0.0
Cd58 Cd 0.95363 0.2151 0.75974 0.0
O59 O 0.96018 0.27741 0.74929 0.0
Cd60 Cd 0.00779 0.27852 0.75523 0.0
C61 C 0.99153 0.22563 0.73704 0.0
O62 O 0.99232 0.25001 0.77141 0.0
O63 O 0.03264 0.25411 0.76391 0.0
O64 O 0.02731 0.32908 0.76295 0.0
C65 C 0.0163 0.2476 0.7719 0.0
O66 O 0.97263 0.20688 0.7436 0.0
C67 C 0.05384 0.34137 0.7588 0.0
O68 O 0.00733 0.2544 0.73897 0.0
O69 O 0.05815 0.32509 0.75234 0.0
C70 C 0.719 0.78088 0.75247 0.0
O71 O 0.73926 0.80834 0.75012 0.0
Cd72 Cd 0.79029 0.82223 0.74447 0.0
O73 O 0.72516 0.75928 0.75179 0.0
Cd74 Cd 0.77122 0.75575 0.74727 0.0
C75 C 0.81127 0.80395 0.76644 0.0
O76 O 0.78717 0.78652 0.73172 0.0
O77 O 0.82096 0.77723 0.73833 0.0
O78 O 0.73738 0.70638 0.73914 0.0
C79 C 0.81196 0.78581 0.73067 0.0
O80 O 0.8179 0.82534 0.76003 0.0
C81 C 0.75004 0.69251 0.74308 0.0
O82 O 0.79236 0.7759 0.7642 0.0
O83 O 0.77099 0.70739 0.74963 0.0
C84 C 0.36318 0.26699 0.58445 0.0
O85 O 0.37796 0.2556 0.58025 0.0
Cd86 Cd 0.42912 0.28725 0.57383 0.0
O87 O 0.37433 0.29611 0.58453 0.0
Cd88 Cd 0.42188 0.34285 0.57818 0.0
C89 C 0.45859 0.3258 0.5962 0.0
O90 O 0.4292 0.32361 0.56196 0.0
O91 O 0.46879 0.36503 0.5677 0.0
O92 O 0.39037 0.36334 0.57171 0.0
C93 C 0.45563 0.34703 0.56027 0.0
O94 O 0.45734 0.30629 0.58977 0.0
C95 C 0.40723 0.39029 0.57529 0.0
O96 O 0.44682 0.34241 0.59413 0.0
O97 O 0.42973 0.39457 0.58085 0.0
C98 C 0.59954 0.02521 0.5811 0.0
O99 O 0.58879 0.04025 0.58552 0.0
Cd100 Cd 0.6204 0.09272 0.59041 0.0
O101 O 0.62872 0.03662 0.58022 0.0
Cd102 Cd 0.67716 0.08429 0.58587 0.0
C103 C 0.65967 0.12009 0.56766 0.0
O104 O 0.65856 0.09486 0.6017 0.0
O105 O 0.70203 0.13182 0.5959 0.0
O106 O 0.69586 0.05327 0.59387 0.0
C107 C 0.68268 0.1209 0.60314 0.0
O108 O 0.63883 0.11703 0.57388 0.0
C109 C 0.72235 0.06685 0.58968 0.0
O110 O 0.67804 0.11045 0.5699 0.0
O111 O 0.72716 0.08712 0.58303 0.0
C112 C 0.92998 0.68197 0.5849 0.0
O113 O 0.90332 0.66532 0.58108 0.0
Cd114 Cd 0.88447 0.61406 0.5752 0.0
O115 O 0.94919 0.6724 0.58508 0.0
Cd116 Cd 0.948 0.62395 0.5795 0.0
C117 C 0.89415 0.58612 0.59766 0.0
O118 O 0.92046 0.61309 0.56331 0.0
O119 O 0.9217 0.57483 0.57018 0.0
O120 O -0.00071 0.65304 0.57178 0.0
C121 C 0.91692 0.5864 0.56234 0.0
O122 O 0.87552 0.58626 0.59116 0.0
C123 C 0.01011 0.63785 0.576 0.0
O124 O 0.92299 0.59929 0.59568 0.0
O125 O 0.99289 0.61784 0.58254 0.0
C126 C 0.0066 0.424 0.08356 0.0
O127 O 0.99377 0.43493 0.08914 0.0
Cd128 Cd 0.94095 0.40364 0.09411 0.0
O129 O 0.99317 0.39503 0.08192 0.0
Cd130 Cd 0.94498 0.34763 0.08794 0.0
C131 C 0.91077 0.36968 0.07086 0.0
O132 O 0.93408 0.36199 0.10463 0.0
O133 O 0.89514 0.32513 0.09675 0.0
O134 O 0.97562 0.3273 0.09512 0.0
C135 C 0.90626 0.33985 0.10495 0.0
O136 O 0.91393 0.38858 0.07785 0.0
C137 C 0.95998 0.30051 0.09131 0.0
O138 O 0.92093 0.35123 0.07209 0.0
O139 O 0.93864 0.29618 0.08516 0.0
C140 C 0.59895 0.5979 0.08216 0.0
O141 O 0.58639 0.5735 0.08749 0.0
Cd142 Cd 0.61578 0.55058 0.09277 0.0
O143 O 0.62827 0.61322 0.08104 0.0
Cd144 Cd 0.67396 0.61107 0.08757 0.0
C145 C 0.6526 0.55592 0.06999 0.0
O146 O 0.65725 0.58325 0.10391 0.0
O147 O 0.69529 0.58324 0.09613 0.0
O148 O 0.69554 0.66121 0.09565 0.0
C149 C 0.67944 0.57791 0.10419 0.0
O150 O 0.63225 0.53969 0.07663 0.0
C151 C 0.7221 0.673 0.09155 0.0
O152 O 0.67182 0.58439 0.07164 0.0
O153 O 0.72576 0.65676 0.08489 0.0
C154 C 0.36141 0.11019 0.0852 0.0
O155 O 0.37403 0.13445 0.0798 0.0
Cd156 Cd 0.42655 0.1561 0.07451 0.0
O157 O 0.37514 0.095 0.08659 0.0
Cd158 Cd 0.42384 0.0973 0.08085 0.0
C159 C 0.4571 0.15464 0.09774 0.0
O160 O 0.43226 0.12033 0.06382 0.0
O161 O 0.47224 0.12376 0.07121 0.0
O162 O 0.39306 0.04346 0.07572 0.0
C163 C 0.45992 0.12599 0.06311 0.0
O164 O 0.45354 0.17027 0.09084 0.0
C165 C 0.41085 0.0352 0.07962 0.0
O166 O 0.44793 0.12623 0.09634 0.0
O167 O 0.43381 0.05548 0.08464 0.0
C168 C 0.03566 0.60643 0.91675 0.0
O169 O 0.05257 0.59682 0.91298 0.0
Cd170 Cd 0.10282 0.62889 0.90572 0.0
O171 O 0.04436 0.63507 0.91647 0.0
Cd172 Cd 0.09155 0.68286 0.91033 0.0
C173 C 0.13434 0.67003 0.92735 0.0
O174 O 0.10241 0.66547 0.89425 0.0
O175 O 0.13964 0.70755 0.9006 0.0
O176 O 0.06193 0.70407 0.90279 0.0
C177 C 0.12881 0.68947 0.89307 0.0
O178 O 0.1346 0.65183 0.92068 0.0
C179 C 0.0766 0.73003 0.90721 0.0
O180 O 0.11871 0.68332 0.92597 0.0
O181 O 0.09656 0.73316 0.91376 0.0
C182 C 0.27425 0.36865 0.91676 0.0
O183 O 0.26263 0.38186 0.92179 0.0
Cd184 Cd 0.29365 0.43334 0.92796 0.0
O185 O 0.30357 0.38116 0.91593 0.0
Cd186 Cd 0.3501 0.42859 0.92284 0.0
C187 C 0.33318 0.46792 0.90593 0.0
O188 O 0.33189 0.43599 0.93941 0.0
O189 O 0.37144 0.47599 0.93292 0.0
O190 O 0.37062 0.39725 0.92953 0.0
C191 C 0.3545 0.4632 0.94063 0.0
O192 O 0.31317 0.46466 0.91256 0.0
C193 C 0.39787 0.41413 0.92609 0.0
O194 O 0.34995 0.45587 0.90732 0.0
O195 O 0.40242 0.43655 0.92044 0.0
C196 C 0.61248 0.0148 0.92007 0.0
O197 O 0.58853 0.00472 0.91459 0.0
Cd198 Cd 0.56074 0.95142 0.9104 0.0
O199 O 0.62473 -0.00173 0.92163 0.0
Cd200 Cd 0.61675 0.94755 0.9151 0.0
C201 C 0.56365 0.91968 0.93337 0.0
O202 O 0.59005 0.9396 0.89871 0.0
O203 O 0.5819 0.89868 0.90667 0.0
O204 O 0.67046 0.97409 0.90892 0.0
C205 C 0.57995 0.91081 0.89848 0.0
O206 O 0.54825 0.92556 0.92701 0.0
C207 C 0.67575 0.95294 0.91158 0.0
O208 O 0.59096 0.92576 0.93123 0.0
O209 O 0.65441 0.93028 0.91644 0.0
C210 C 0.67605 0.762 0.41538 0.0
O211 O 0.6633 0.77356 0.42069 0.0
Cd212 Cd 0.60987 0.74309 0.4251 0.0
O213 O 0.6622 0.73293 0.41387 0.0
Cd214 Cd 0.6131 0.68591 0.4197 0.0
C215 C 0.58177 0.70897 0.40176 0.0
O216 O 0.60121 0.70143 0.43607 0.0
O217 O 0.5631 0.66325 0.42832 0.0
O218 O 0.64196 0.66384 0.42724 0.0
C219 C 0.57356 0.6789 0.4364 0.0
O220 O 0.58542 0.72898 0.40839 0.0
C221 C 0.62658 0.63759 0.42304 0.0
O222 O 0.58999 0.68929 0.40364 0.0
O223 O 0.6062 0.63437 0.41664 0.0
C224 C 0.26897 0.9328 0.41913 0.0
O225 O 0.25586 0.90859 0.42454 0.0
Cd226 Cd 0.28473 0.88474 0.42913 0.0
O227 O 0.29828 0.94729 0.41795 0.0
Cd228 Cd 0.34343 0.94424 0.42467 0.0
C229 C 0.32189 0.89203 0.40621 0.0
O230 O 0.32554 0.91589 0.44079 0.0
O231 O 0.36243 0.91375 0.43301 0.0
O232 O 0.36495 0.99438 0.43284 0.0
C233 C 0.34682 0.90925 0.44108 0.0
O234 O 0.30035 0.87548 0.41247 0.0
C235 C 0.39193 0.00573 0.42911 0.0
O236 O 0.34242 0.9196 0.40848 0.0
O237 O 0.39599 0.98921 0.42268 0.0
C238 C 0.02467 0.43429 0.42076 0.0
O239 O 0.03941 0.45968 0.416 0.0
Cd240 Cd 0.09027 0.47865 0.40931 0.0
O241 O 0.0351 0.41587 0.42114 0.0
Cd242 Cd 0.08047 0.41423 0.41404 0.0
C243 C 0.1223 0.46961 0.4311 0.0
O244 O 0.08952 0.44154 0.39784 0.0
O245 O 0.12741 0.43731 0.4037 0.0
O246 O 0.04755 0.36291 0.40702 0.0
C247 C 0.11559 0.44379 0.39631 0.0
O248 O 0.12098 0.48764 0.42461 0.0
C249 C 0.0633 0.35162 0.41048 0.0
O250 O 0.10835 0.44062 0.42953 0.0
O251 O 0.08539 0.36862 0.41644 0.0
Zn252 Zn 0.01426 0.01556 0.12157 0.0
Zn253 Zn 0.01401 0.01438 0.16118 0.0
Zn254 Zn 0.01335 0.01404 0.14191 0.0
C255 C 0.98022 0.9532 0.15623 0.0
C256 C 0.07497 0.04153 0.1559 0.0
O257 O 0.99208 0.0412 0.13674 0.0
O258 O 0.99285 0.03938 0.11996 0.0
C259 C 0.97921 0.95333 0.12775 0.0
O260 O 0.98976 0.96525 0.14737 0.0
O261 O 0.98509 0.97029 0.16384 0.0
O262 O 0.05829 0.02988 0.16368 0.0
O263 O 0.06222 0.03869 0.14718 0.0
O264 O 0.98974 0.97007 0.11993 0.0
O265 O 0.98575 0.96564 0.13665 0.0
O266 O 0.06169 0.03553 0.13659 0.0
O267 O 0.05996 0.0373 0.11983 0.0
C268 C 0.07539 0.04265 0.12789 0.0
O269 O 0.98962 0.03857 0.14738 0.0
O270 O -0.00074 0.04329 0.16383 0.0
C271 C 0.98622 0.04854 0.12799 0.0
C272 C 0.98768 0.04867 0.15619 0.0
Zn273 Zn 0.02246 0.0189 0.33806 0.0
Zn274 Zn 0.02183 0.02355 0.37747 0.0
Zn275 Zn 0.02114 0.02117 0.35721 0.0
C276 C 0.04938 0.08419 0.37042 0.0
C277 C 0.95973 0.98898 0.37137 0.0
O278 O 0.04484 0.99566 0.35251 0.0
O279 O 0.05077 0.00304 0.33596 0.0
C280 C 0.04953 0.08048 0.34219 0.0
O281 O 0.04265 0.0701 0.36181 0.0
O282 O 0.04373 0.06915 0.3786 0.0
O283 O 0.9762 -0.00026 0.37922 0.0
O284 O 0.97246 0.99476 0.36251 0.0
O285 O 0.03833 0.0625 0.33472 0.0
O286 O 0.04638 0.06941 0.35123 0.0
O287 O 0.97232 0.99667 0.35181 0.0
O288 O 0.9782 0.99008 0.33556 0.0
C289 C 0.96067 0.98591 0.34301 0.0
O290 O 0.04767 0.00016 0.36307 0.0
O291 O 0.04522 0.00211 0.37981 0.0
C292 C 0.055 0.99192 0.34394 0.0
C293 C 0.05454 0.9948 0.37196 0.0
Zn294 Zn 0.02585 0.02023 0.88133 0.0
Zn295 Zn 0.01803 0.01505 0.84204 0.0
Zn296 Zn 0.02147 0.01738 0.86139 0.0
C297 C 0.0471 0.0767 0.84639 0.0
C298 C 0.95808 0.97964 0.84841 0.0
O299 O 0.04683 0.99407 0.86626 0.0
O300 O 0.04851 -0.00231 0.883 0.0
C301 C 0.05428 0.08091 0.87454 0.0
O302 O 0.04124 0.06537 0.85544 0.0
O303 O 0.04023 0.05919 0.8388 0.0
O304 O 0.973 0.99177 0.84037 0.0
O305 O 0.97211 0.98622 0.85703 0.0
O306 O 0.04852 0.06558 0.88265 0.0
O307 O 0.04571 0.06695 0.86592 0.0
O308 O 0.9733 0.99337 0.86757 0.0
O309 O 0.98084 -0.00148 0.88414 0.0
C310 C 0.96249 0.98937 0.8767 0.0
O311 O 0.04976 -0.0023 0.85564 0.0
O312 O 0.04 0.9927 0.83919 0.0
C313 C 0.05455 0.98819 0.87493 0.0
C314 C 0.05353 0.98946 0.84672 0.0
Zn315 Zn 0.00429 0.01998 0.66192 0.0
Zn316 Zn 0.02609 0.03575 0.62372 0.0
Zn317 Zn 0.01504 0.02675 0.64276 0.0
C318 C 0.00499 0.97373 0.62727 0.0
C319 C 0.08122 0.0742 0.63284 0.0
O320 O 0.99038 0.05172 0.64741 0.0
O321 O 0.98167 0.04172 0.66382 0.0
C322 C 0.97794 0.96106 0.65432 0.0
O323 O -0.00239 0.98096 0.63578 0.0
O324 O 0.02086 0.99443 0.62082 0.0
O325 O 0.06817 0.07195 0.62447 0.0
O326 O 0.06572 0.05686 0.64037 0.0
O327 O 0.98083 0.97495 0.66256 0.0
O328 O 0.98927 0.97626 0.64602 0.0
O329 O 0.06062 0.04716 0.65043 0.0
O330 O 0.04754 0.04047 0.66666 0.0
C331 C 0.06816 0.04986 0.65988 0.0
O332 O 0.98767 0.047 0.63684 0.0
O333 O 0.99238 0.04353 0.62029 0.0
C334 C 0.97972 0.05493 0.65598 0.0
C335 C 0.98018 0.04949 0.62768 0.0
Zn336 Zn 0.67847 0.35814 0.49476 0.0
Zn337 Zn 0.68271 0.34971 0.455 0.0
Zn338 Zn 0.68078 0.35361 0.47547 0.0
C339 C 0.74376 0.37943 0.46237 0.0
C340 C 0.64764 0.28937 0.46279 0.0
O341 O 0.65514 0.37782 0.47906 0.0
O342 O 0.66092 0.38534 0.49561 0.0
C343 C 0.74037 0.38503 0.49044 0.0
O344 O 0.72962 0.37469 0.47094 0.0
O345 O 0.72872 0.37131 0.45416 0.0
O346 O 0.6582 0.30383 0.45455 0.0
O347 O 0.65396 0.30417 0.47127 0.0
O348 O 0.72254 0.37607 0.49803 0.0
O349 O 0.72906 0.37958 0.48139 0.0
O350 O 0.65711 0.30622 0.48197 0.0
O351 O 0.65151 0.31417 0.49812 0.0
C352 C 0.64748 0.29575 0.49099 0.0
O353 O 0.6603 0.37933 0.4685 0.0
O354 O 0.66175 0.37341 0.45189 0.0
C355 C 0.65061 0.3888 0.48731 0.0
C356 C 0.65504 0.38467 0.45938 0.0
Zn357 Zn 0.6836 0.35272 0.71008 0.0
Zn358 Zn 0.687 0.35373 0.67068 0.0
Zn359 Zn 0.68531 0.35331 0.68984 0.0
C360 C 0.62541 0.32211 0.67512 0.0
C361 C 0.71652 0.41464 0.67576 0.0
O362 O 0.70889 0.329 0.69541 0.0
O363 O 0.70376 0.32789 0.71212 0.0
C364 C 0.62227 0.32221 0.70334 0.0
O365 O 0.63713 0.33161 0.684 0.0
O366 O 0.64284 0.32614 0.66765 0.0
O367 O 0.70412 0.39796 0.66808 0.0
O368 O 0.71304 0.40212 0.68457 0.0
O369 O 0.63788 0.33169 0.7114 0.0
O370 O 0.63604 0.32811 0.69465 0.0
O371 O 0.70897 0.40159 0.6952 0.0
O372 O 0.7084 0.39811 0.71195 0.0
C373 C 0.7158 0.41444 0.70402 0.0
O374 O 0.7079 0.32728 0.68476 0.0
O375 O 0.71501 0.33765 0.66838 0.0
C376 C 0.71354 0.32118 0.70424 0.0
C377 C 0.71857 0.325 0.67609 0.0
Zn378 Zn 0.68324 0.34949 0.21451 0.0
Zn379 Zn 0.67863 0.34343 0.17499 0.0
Zn380 Zn 0.68055 0.34626 0.19415 0.0
C381 C 0.71259 0.40517 0.17883 0.0
C382 C 0.61777 0.31614 0.18086 0.0
O383 O 0.70302 0.32075 0.19968 0.0
O384 O 0.70597 0.3271 0.21636 0.0
C385 C 0.71535 0.40979 0.20698 0.0
O386 O 0.70381 0.39419 0.18785 0.0
O387 O 0.70681 0.38711 0.17144 0.0
O388 O 0.63408 0.32687 0.17297 0.0
O389 O 0.63079 0.32005 0.18958 0.0
O390 O 0.70664 0.3952 0.21526 0.0
O391 O 0.70793 0.39537 0.19844 0.0
O392 O 0.63295 0.32608 0.20015 0.0
O393 O 0.63784 0.32755 0.21687 0.0
C394 C 0.62093 0.32087 0.20911 0.0
O395 O 0.70466 0.32155 0.18902 0.0
O396 O 0.69366 0.31464 0.17268 0.0
C397 C 0.71104 0.31601 0.20848 0.0
C398 C 0.70616 0.31054 0.18033 0.0
Zn399 Zn 0.68297 0.3529 0.9943 0.0
Zn400 Zn 0.68802 0.36012 0.95488 0.0
Zn401 Zn 0.68617 0.35615 0.97521 0.0
C402 C 0.66589 0.29821 0.96016 0.0
C403 C 0.74838 0.39766 0.96234 0.0
O404 O 0.66101 0.3797 0.98075 0.0
O405 O 0.65415 0.36773 0.99704 0.0
C406 C 0.65707 0.29284 0.9882 0.0
O407 O 0.66768 0.30923 0.96913 0.0
O408 O 0.67383 0.3157 0.9525 0.0
O409 O 0.73264 0.39163 0.95433 0.0
O410 O 0.73536 0.38511 0.97085 0.0
O411 O 0.66731 0.30859 0.99619 0.0
O412 O 0.66099 0.30644 0.97958 0.0
O413 O 0.73443 0.37951 0.98136 0.0
O414 O 0.72657 0.38097 0.99779 0.0
C415 C 0.74502 0.38744 0.99044 0.0
O416 O 0.65775 0.37616 0.97011 0.0
O417 O 0.65852 0.37475 0.9533 0.0
C418 C 0.65011 0.38077 0.98953 0.0
C419 C 0.64902 0.38064 0.9614 0.0
Zn420 Zn 0.3562 0.68825 0.83795 0.0
Zn421 Zn 0.36275 0.67611 0.78424 0.0
Zn422 Zn 0.35993 0.68195 0.80272 0.0
C423 C 0.42235 0.69811 0.79155 0.0
C424 C 0.31964 0.61767 0.79132 0.0
O425 O 0.3367 0.70692 0.80775 0.0
O426 O 0.34933 0.69663 0.82242 0.0
C427 C 0.40506 0.70783 0.81949 0.0
O428 O 0.40973 0.70154 0.79958 0.0
O429 O 0.40624 0.68532 0.78378 0.0
O430 O 0.32959 0.6322 0.78306 0.0
O431 O 0.32958 0.63199 0.79981 0.0
O432 O 0.37809 0.69451 0.8235 0.0
O433 O 0.40614 0.70614 0.80982 0.0
O434 O 0.33536 0.63633 0.81026 0.0
O435 O 0.34613 0.66527 0.82364 0.0
C436 C 0.33474 0.63815 0.81994 0.0
O437 O 0.34161 0.7107 0.79706 0.0
O438 O 0.35377 0.70977 0.78102 0.0
C439 C 0.33578 0.70823 0.81744 0.0
C440 C 0.3439 0.72029 0.78788 0.0
Zn441 Zn 0.34946 0.68796 0.0477 0.0
Zn442 Zn 0.36181 0.70358 0.99737 0.0
Zn443 Zn 0.35062 0.6952 0.02864 0.0
C444 C 0.30552 0.67652 0.01313 0.0
C445 C 0.37767 0.74575 0.0155 0.0
O446 O 0.37663 0.67173 0.03047 0.0
O447 O 0.37262 0.66554 0.0471 0.0
C448 C 0.2877 0.65705 0.04168 0.0
O449 O 0.30301 0.67433 0.02276 0.0
O450 O 0.33299 0.68958 0.00977 0.0
O451 O 0.36184 0.72006 0.01118 0.0
O452 O 0.37642 0.74487 0.02514 0.0
O453 O 0.30388 0.66373 0.04962 0.0
O454 O 0.30089 0.66674 0.03298 0.0
O455 O 0.37332 0.74226 0.03552 0.0
O456 O 0.37142 0.73201 0.05188 0.0
C457 C 0.37884 0.7515 0.04482 0.0
O458 O 0.37344 0.67365 0.01901 0.0
O459 O 0.38213 0.67956 0.00188 0.0
C460 C 0.38246 0.66193 0.03867 0.0
C461 C 0.38392 0.66879 0.01053 0.0
Zn462 Zn 0.34075 0.6716 0.54703 0.0
Zn463 Zn 0.34804 0.67591 0.50774 0.0
Zn464 Zn 0.34363 0.67292 0.52682 0.0
C465 C 0.38027 0.73598 0.51344 0.0
C466 C 0.28568 0.64733 0.5116 0.0
O467 O 0.36422 0.64599 0.53244 0.0
O468 O 0.36334 0.64927 0.54919 0.0
C469 C 0.37364 0.7333 0.54141 0.0
O470 O 0.36839 0.7223 0.52193 0.0
O471 O 0.37738 0.7202 0.50564 0.0
O472 O 0.30439 0.66066 0.50439 0.0
O473 O 0.29594 0.64833 0.52063 0.0
O474 O 0.3627 0.71678 0.54925 0.0
O475 O 0.36893 0.72078 0.53257 0.0
O476 O 0.29412 0.65055 0.53127 0.0
O477 O 0.29498 0.64838 0.54803 0.0
C478 C 0.27988 0.64302 0.53989 0.0
O479 O 0.36968 0.64973 0.52184 0.0
O480 O 0.36357 0.6476 0.50522 0.0
C481 C 0.37 0.63948 0.54132 0.0
C482 C 0.37374 0.64122 0.51301 0.0
Zn483 Zn 0.34438 0.68933 0.28909 0.0
Zn484 Zn 0.34815 0.68133 0.32602 0.0
Zn485 Zn 0.34693 0.6858 0.30876 0.0
C486 C 0.40238 0.68923 0.32064 0.0
C487 C 0.29922 0.62838 0.3211 0.0
O488 O 0.32119 0.71011 0.30557 0.0
O489 O 0.32161 0.712 0.28879 0.0
C490 C 0.40699 0.71937 0.29448 0.0
O491 O 0.39555 0.70265 0.31364 0.0
O492 O 0.38145 0.67094 0.32664 0.0
O493 O 0.30468 0.64761 0.32809 0.0
O494 O 0.31662 0.63685 0.31316 0.0
O495 O 0.3897 0.71226 0.2868 0.0
O496 O 0.39525 0.7113 0.30343 0.0
O497 O 0.32251 0.63799 0.30272 0.0
O498 O 0.3214 0.64442 0.28616 0.0
C499 C 0.31522 0.62672 0.2937 0.0
O500 O 0.33051 0.71508 0.31583 0.0
O501 O 0.35913 0.72421 0.32944 0.0
C502 C 0.31343 0.71766 0.29721 0.0
C503 C 0.34303 0.73104 0.3239 0.0
H504 H 0.23266 0.18922 0.22363 0.0
H505 H 0.21727 0.16141 0.20753 0.0
H506 H 0.21948 0.23968 0.19326 0.0
H507 H 0.2344 0.2675 0.20942 0.0
H508 H 0.16837 0.18858 0.18842 0.0
H509 H 0.27499 0.22058 0.1877 0.0
H510 H 0.32478 0.22901 0.19416 0.0
H511 H 0.28583 0.13121 0.1974 0.0
H512 H 0.23565 0.12218 0.1911 0.0
H513 H 0.11224 0.0962 0.14625 0.0
H514 H 0.15794 0.13968 0.15399 0.0
H515 H 0.15763 0.07914 0.17719 0.0
H516 H 0.11212 0.03585 0.16953 0.0
H517 H 0.21696 0.1318 0.17411 0.0
H518 H 0.10851 0.10407 0.18009 0.0
H519 H 0.05807 0.094 0.17362 0.0
H520 H 0.10192 0.18456 0.16039 0.0
H521 H 0.1527 0.19494 0.16667 0.0
C522 C 0.22994 0.20056 0.21707 0.0
C523 C 0.23465 0.23053 0.21782 0.0
C524 C 0.22145 0.18475 0.20783 0.0
C525 C 0.21776 0.19865 0.19912 0.0
C526 C 0.2224 0.22857 0.19986 0.0
C527 C 0.23084 0.24439 0.20911 0.0
C528 C 0.20692 0.18099 0.18948 0.0
C529 C 0.17958 0.17694 0.18513 0.0
C530 C 0.22129 0.16548 0.1852 0.0
C531 C 0.25147 0.17073 0.18897 0.0
C532 C 0.27696 0.20087 0.18985 0.0
C533 C 0.30527 0.20575 0.19348 0.0
C534 C 0.30846 0.18066 0.1962 0.0
C535 C 0.28334 0.15063 0.19529 0.0
C536 C 0.25496 0.14561 0.19167 0.0
C537 C 0.12298 0.09186 0.15266 0.0
C538 C 0.10832 0.06291 0.15747 0.0
C539 C 0.14903 0.11677 0.1571 0.0
C540 C 0.16056 0.11274 0.16633 0.0
C541 C 0.14896 0.08281 0.17013 0.0
C542 C 0.12286 0.05806 0.16576 0.0
C543 C 0.17831 0.13909 0.1733 0.0
C544 C 0.20662 0.14451 0.1772 0.0
C545 C 0.16494 0.15594 0.17721 0.0
C546 C 0.13435 0.15017 0.17376 0.0
C547 C 0.10735 0.12179 0.17579 0.0
C548 C 0.07873 0.11601 0.17215 0.0
C549 C 0.0768 0.13861 0.16658 0.0
C550 C 0.10346 0.16707 0.16469 0.0
C551 C 0.13216 0.17291 0.16828 0.0
H552 H 0.05465 0.13408 0.16374 0.0
H553 H 0.33039 0.18449 0.19901 0.0
H554 H 0.84884 0.07293 0.22463 0.0
H555 H 0.87581 0.08411 0.20835 0.0
H556 H 0.79423 0.00938 0.19451 0.0
H557 H 0.76725 -0.00232 0.21086 0.0
H558 H 0.84286 0.00534 0.18996 0.0
H559 H 0.82026 0.0867 0.18733 0.0
H560 H 0.81675 0.13183 0.19268 0.0
H561 H 0.91471 0.18323 0.19791 0.0
H562 H 0.91895 0.13858 0.19242 0.0
H563 H 0.93251 0.03251 0.14726 0.0
H564 H 0.89156 0.03809 0.15537 0.0
H565 H 0.95676 0.09897 0.17769 0.0
H566 H -0.00251 0.09335 0.16967 0.0
H567 H 0.90715 0.10949 0.17484 0.0
H568 H 0.92667 0.02496 0.18136 0.0
H569 H 0.93248 0.98144 0.17561 0.0
H570 H 0.84022 0.93612 0.16359 0.0
H571 H 0.83413 0.97972 0.16912 0.0
C572 C 0.83655 0.05899 0.21811 0.0
C573 C 0.80599 0.03426 0.21905 0.0
C574 C 0.85189 0.06565 0.20877 0.0
C575 C 0.83691 0.04792 0.20014 0.0
C576 C 0.8062 0.02351 0.20104 0.0
C577 C 0.79085 0.01678 0.21039 0.0
C578 C 0.85444 0.05289 0.19053 0.0
C579 C 0.85612 0.02795 0.18648 0.0
C580 C 0.8723 0.08247 0.18606 0.0
C581 C 0.86987 0.10923 0.18953 0.0
C582 C 0.84102 0.10756 0.18969 0.0
C583 C 0.83891 0.13307 0.19273 0.0
C584 C 0.86541 0.16027 0.19573 0.0
C585 C 0.89418 0.16213 0.1956 0.0
C586 C 0.89648 0.13679 0.19247 0.0
C587 C 0.93843 0.04839 0.15356 0.0
C588 C 0.96787 0.06199 0.158 0.0
C589 C 0.91499 0.05147 0.15821 0.0
C590 C 0.92101 0.06828 0.16728 0.0
C591 C 0.95157 0.08572 0.17074 0.0
C592 C 0.97484 0.08244 0.16617 0.0
C593 C 0.89561 0.06206 0.17443 0.0
C594 C 0.89282 0.08672 0.1781 0.0
C595 C 0.87677 0.03225 0.17861 0.0
C596 C 0.88007 0.00569 0.17554 0.0
C597 C 0.9077 0.00577 0.17744 0.0
C598 C 0.91105 0.98111 0.17423 0.0
C599 C 0.88676 0.95606 0.16922 0.0
C600 C 0.85904 0.95558 0.16745 0.0
C601 C 0.85562 0.98025 0.17062 0.0
H602 H 0.8894 0.937 0.16672 0.0
H603 H 0.86367 0.17996 0.1981 0.0
H604 H 0.02305 0.85387 0.23099 0.0
H605 H 0.01562 0.87169 0.21454 0.0
H606 H 0.97523 0.77901 0.20276 0.0
H607 H 0.98526 0.76195 0.21896 0.0
H608 H -0.0001 0.8135 0.18797 0.0
H609 H 0.93036 0.81089 0.21273 0.0
H610 H 0.91303 0.82098 0.22907 0.0
H611 H 0.96409 0.91835 0.22304 0.0
H612 H 0.98208 0.90887 0.20671 0.0
H613 H 0.92631 0.9092 0.16476 0.0
H614 H 0.9219 0.86734 0.17538 0.0
H615 H 0.01188 0.88699 0.1649 0.0
H616 H 0.01471 0.92668 0.15369 0.0
H617 H 0.95266 0.8792 0.19046 0.0
H618 H 0.03347 0.83898 0.17208 0.0
H619 H 0.03886 0.81826 0.15571 0.0
H620 H 0.94424 0.78833 0.14855 0.0
H621 H 0.93832 0.80892 0.16483 0.0
C622 C 0.01347 0.83762 0.22477 0.0
C623 C 0.00484 0.80666 0.22618 0.0
C624 C 0.00878 0.84764 0.21541 0.0
C625 C 0.99374 0.8265 0.20746 0.0
C626 C 0.98667 0.79583 0.20873 0.0
C627 C 0.99245 0.78607 0.21799 0.0
C628 C 0.9838 0.83604 0.19814 0.0
C629 C 0.9895 0.82781 0.18851 0.0
C630 C 0.9686 0.85328 0.19874 0.0
C631 C 0.95775 0.85917 0.20853 0.0
C632 C 0.93802 0.83446 0.21491 0.0
C633 C 0.92808 0.84007 0.22417 0.0
C634 C 0.9375 0.87029 0.2271 0.0
C635 C 0.95683 0.89496 0.22076 0.0
C636 C 0.96689 0.88948 0.2115 0.0
C637 C 0.94406 0.903 0.16423 0.0
C638 C 0.97073 0.92092 0.15839 0.0
C639 C 0.94187 0.87943 0.17045 0.0
C640 C 0.96685 0.87418 0.1712 0.0
C641 C 0.99197 0.88991 0.16446 0.0
C642 C 0.9936 0.91271 0.15798 0.0
C643 C 0.96954 0.85751 0.18018 0.0
C644 C 0.9626 0.8645 0.18982 0.0
C645 C 0.98183 0.83764 0.17954 0.0
C646 C 0.98553 0.8257 0.16966 0.0
C647 C 0.01382 0.82796 0.16701 0.0
C648 C 0.01699 0.81631 0.15773 0.0
C649 C 0.99196 0.80211 0.15107 0.0
C650 C 0.96371 0.79955 0.15367 0.0
C651 C 0.96047 0.81133 0.1629 0.0
H652 H 0.99444 0.79303 0.1439 0.0
H653 H 0.92978 0.87458 0.23427 0.0
H654 H 0.25262 0.25081 0.27978 0.0
H655 H 0.23223 0.23449 0.297 0.0
H656 H 0.14152 0.21206 0.28678 0.0
H657 H 0.16163 0.22857 0.26966 0.0
H658 H 0.15548 0.24271 0.3047 0.0
H659 H 0.1613 0.15639 0.29018 0.0
H660 H 0.18866 0.13207 0.28251 0.0
H661 H 0.24862 0.15803 0.30837 0.0
H662 H 0.22181 0.18282 0.31614 0.0
H663 H 0.03801 0.11518 0.32936 0.0
H664 H 0.07736 0.16018 0.32025 0.0
H665 H 0.14764 0.16407 0.34005 0.0
H666 H 0.1078 0.11876 0.34928 0.0
H667 H 0.15734 0.15457 0.32077 0.0
H668 H 0.14128 0.22823 0.33714 0.0
H669 H 0.11256 0.25084 0.34497 0.0
H670 H 0.07139 0.24851 0.31623 0.0
H671 H 0.09956 0.22555 0.30824 0.0
C672 C 0.22829 0.24224 0.28119 0.0
C673 C 0.20875 0.24084 0.2733 0.0
C674 C 0.2167 0.23302 0.29105 0.0
C675 C 0.18533 0.22206 0.2932 0.0
C676 C 0.16585 0.22066 0.28534 0.0
C677 C 0.17738 0.22988 0.27551 0.0
C678 C 0.17212 0.21088 0.30349 0.0
C679 C 0.15584 0.22344 0.30824 0.0
C680 C 0.17377 0.18667 0.30834 0.0
C681 C 0.18986 0.1718 0.30367 0.0
C682 C 0.18049 0.15713 0.29418 0.0
C683 C 0.19586 0.14322 0.28983 0.0
C684 C 0.22044 0.14361 0.29493 0.0
C685 C 0.22964 0.15782 0.30442 0.0
C686 C 0.21436 0.17179 0.3088 0.0
C687 C 0.06161 0.12665 0.33212 0.0
C688 C 0.06997 0.11349 0.33996 0.0
C689 C 0.08419 0.15244 0.3269 0.0
C690 C 0.11559 0.16541 0.32939 0.0
C691 C 0.12357 0.15439 0.33798 0.0
C692 C 0.10078 0.12871 0.34331 0.0
C693 C 0.13938 0.18542 0.3218 0.0
C694 C 0.15771 0.17453 0.31748 0.0
C695 C 0.13956 0.21113 0.31737 0.0
C696 C 0.12254 0.22507 0.32209 0.0
C697 C 0.12596 0.23235 0.3325 0.0
C698 C 0.10979 0.24525 0.33696 0.0
C699 C 0.09013 0.25106 0.3311 0.0
C700 C 0.08666 0.24403 0.32076 0.0
C701 C 0.1028 0.23114 0.31625 0.0
H702 H 0.07761 0.26104 0.33457 0.0
H703 H 0.2323 0.13282 0.29155 0.0
H704 H 0.8019 0.0307 0.28067 0.0
H705 H 0.82269 0.02507 0.29686 0.0
H706 H 0.82908 0.94911 0.28444 0.0
H707 H 0.80915 0.95486 0.26832 0.0
H708 H 0.80306 0.97633 0.31064 0.0
H709 H 0.89411 0.95312 0.29197 0.0
H710 H 0.92612 0.96723 0.27645 0.0
H711 H 0.92317 0.05083 0.27397 0.0
H712 H 0.89152 0.03744 0.28955 0.0
H713 H 0.92277 0.934 0.3326 0.0
H714 H 0.88078 0.92846 0.32184 0.0
H715 H 0.88416 0.00671 0.33658 0.0
H716 H 0.92593 0.01187 0.34754 0.0
H717 H 0.90419 0.9809 0.3099 0.0
H718 H 0.81247 0.00378 0.32844 0.0
H719 H 0.77957 0.98942 0.34375 0.0
H720 H 0.78494 0.90733 0.34701 0.0
H721 H 0.81734 0.92084 0.33162 0.0
C722 C 0.80795 0.01294 0.28138 0.0
C723 C 0.80421 0.9935 0.27314 0.0
C724 C 0.81954 0.00959 0.29066 0.0
C725 C 0.82764 0.98682 0.29183 0.0
C726 C 0.82337 0.9671 0.28368 0.0
C727 C 0.81202 0.97052 0.27443 0.0
C728 C 0.84185 0.98415 0.30136 0.0
C729 C 0.82539 0.97777 0.31056 0.0
C730 C 0.87074 0.98558 0.30118 0.0
C731 C 0.89021 0.99412 0.29188 0.0
C732 C 0.90042 0.97458 0.28814 0.0
C733 C 0.91847 0.98244 0.27933 0.0
C734 C 0.92659 0.00987 0.27421 0.0
C735 C 0.91677 0.02955 0.27792 0.0
C736 C 0.89874 0.02181 0.28674 0.0
C737 C 0.91322 0.94878 0.33398 0.0
C738 C 0.92773 0.97357 0.34078 0.0
C739 C 0.88936 0.94574 0.32778 0.0
C740 C 0.87986 0.96761 0.32825 0.0
C741 C 0.89114 0.98959 0.33608 0.0
C742 C 0.91491 0.99242 0.34239 0.0
C743 C 0.8651 0.97216 0.3192 0.0
C744 C 0.8818 0.97936 0.31006 0.0
C745 C 0.83665 0.97165 0.31952 0.0
C746 C 0.81767 0.96356 0.32891 0.0
C747 C 0.8066 0.98264 0.33241 0.0
C748 C 0.78796 0.9746 0.34108 0.0
C749 C 0.78008 0.94742 0.34632 0.0
C750 C 0.79102 0.92835 0.34293 0.0
C751 C 0.80963 0.93626 0.33425 0.0
H752 H 0.76562 0.94122 0.35303 0.0
H753 H 0.94055 0.01589 0.26739 0.0
H754 H 0.99323 0.76879 0.29015 0.0
H755 H 0.00533 0.79502 0.30657 0.0
H756 H 0.08002 0.87693 0.29276 0.0
H757 H 0.06858 0.85053 0.27638 0.0
H758 H 0.09679 0.86801 0.31123 0.0
H759 H 0.00784 0.86822 0.2968 0.0
H760 H 0.95499 0.84405 0.28984 0.0
H761 H 0.91821 0.79269 0.31744 0.0
H762 H 0.97093 0.81631 0.32451 0.0
H763 H 0.10003 -0.0026 0.33123 0.0
H764 H 0.10257 0.95422 0.32401 0.0
H765 H 0.03627 0.89314 0.3462 0.0
H766 H 0.03388 0.93673 0.35351 0.0
H767 H 0.01384 0.8801 0.3272 0.0
H768 H 0.10349 0.89322 0.34303 0.0
H769 H 0.15651 0.92088 0.34984 0.0
H770 H 0.19298 0.95024 0.31978 0.0
H771 H 0.14012 0.92321 0.3128 0.0
C772 C 0.01227 0.79238 0.29062 0.0
C773 C 0.02971 0.80774 0.28194 0.0
C774 C 0.01921 0.80731 0.30002 0.0
C775 C 0.04341 0.83806 0.3009 0.0
C776 C 0.06132 0.85317 0.29229 0.0
C777 C 0.05457 0.83815 0.2829 0.0
C778 C 0.04883 0.85532 0.31056 0.0
C779 C 0.07872 0.87073 0.31475 0.0
C780 C 0.02497 0.85791 0.31538 0.0
C781 C 0.99332 0.84368 0.31113 0.0
C782 C 0.98849 0.85158 0.30135 0.0
C783 C 0.95857 0.83802 0.29739 0.0
C784 C 0.93327 0.81676 0.30318 0.0
C785 C 0.93783 0.80909 0.31295 0.0
C786 C 0.96772 0.82255 0.31694 0.0
C787 C 0.08727 0.97508 0.33491 0.0
C788 C 0.06637 0.97021 0.34279 0.0
C789 C 0.08877 0.95032 0.33079 0.0
C790 C 0.06925 0.9203 0.33446 0.0
C791 C 0.05142 0.91611 0.34322 0.0
C792 C 0.05021 0.94106 0.34744 0.0
C793 C 0.06214 0.89386 0.32771 0.0
C794 C 0.03183 0.87668 0.32397 0.0
C795 C 0.08571 0.88998 0.32329 0.0
C796 C 0.11771 0.90619 0.3274 0.0
C797 C 0.12277 0.90574 0.33787 0.0
C798 C 0.15283 0.9213 0.34177 0.0
C799 C 0.1781 0.93733 0.33525 0.0
C800 C 0.17337 0.93778 0.32482 0.0
C801 C 0.14334 0.92228 0.32089 0.0
H802 H 0.20136 0.94937 0.33827 0.0
H803 H 0.91012 0.80629 0.3001 0.0
H804 H 0.86956 0.84576 0.77241 0.0
H805 H 0.88637 0.86661 0.78946 0.0
H806 H 0.79401 0.80532 0.80084 0.0
H807 H 0.77798 0.78288 0.7839 0.0
H808 H 0.87113 0.89866 0.79902 0.0
H809 H 0.79302 0.79922 0.82663 0.0
H810 H 0.76908 0.74268 0.82792 0.0
H811 H 0.83958 0.74599 0.80845 0.0
H812 H 0.86414 0.80256 0.80715 0.0
H813 H 0.90585 0.97913 0.84253 0.0
H814 H 0.86639 0.93819 0.83193 0.0
H815 H 0.90465 0.88047 0.83892 0.0
H816 H 0.9421 0.92028 0.85018 0.0
H817 H 0.84969 0.84492 0.83218 0.0
H818 H 0.93817 0.93934 0.82011 0.0
H819 H 0.97156 0.99579 0.81832 0.0
H820 H 0.89562 0.00131 0.80575 0.0
H821 H 0.86175 0.94486 0.8075 0.0
C822 C 0.8532 0.83614 0.77864 0.0
C823 C 0.82263 0.81263 0.7769 0.0
C824 C 0.86267 0.84819 0.78837 0.0
C825 C 0.84149 0.83773 0.79651 0.0
C826 C 0.81107 0.81346 0.79481 0.0
C827 C 0.80187 0.80067 0.78511 0.0
C828 C 0.85074 0.85433 0.80642 0.0
C829 C 0.86634 0.8867 0.80624 0.0
C830 C 0.84464 0.83905 0.81593 0.0
C831 C 0.83018 0.80507 0.8167 0.0
C832 C 0.80345 0.78788 0.82265 0.0
C833 C 0.78977 0.75583 0.82338 0.0
C834 C 0.80274 0.74074 0.81824 0.0
C835 C 0.82948 0.75769 0.81239 0.0
C836 C 0.84326 0.78974 0.81164 0.0
C837 C 0.90426 0.95683 0.84238 0.0
C838 C 0.92698 0.95279 0.8471 0.0
C839 C 0.88207 0.93358 0.83618 0.0
C840 C 0.8836 0.90688 0.8342 0.0
C841 C 0.90321 0.901 0.84017 0.0
C842 C 0.92457 0.92376 0.84669 0.0
C843 C 0.87049 0.88903 0.82466 0.0
C844 C 0.85407 0.8566 0.82492 0.0
C845 C 0.87712 0.90414 0.81513 0.0
C846 C 0.89739 0.93802 0.81404 0.0
C847 C 0.9286 0.95265 0.817 0.0
C848 C 0.94759 0.98461 0.81599 0.0
C849 C 0.93568 0.00214 0.81197 0.0
C850 C 0.90478 0.98771 0.80889 0.0
C851 C 0.88569 0.95574 0.80988 0.0
H852 H 0.95042 0.02688 0.8112 0.0
H853 H 0.79211 0.71593 0.81881 0.0
H854 H 0.19229 0.96723 0.77726 0.0
H855 H 0.1671 0.95969 0.79376 0.0
H856 H 0.24984 0.03785 0.80569 0.0
H857 H 0.27496 0.04601 0.78908 0.0
H858 H 0.1773 0.94753 0.81262 0.0
H859 H 0.22908 0.07542 0.82266 0.0
H860 H 0.25212 0.12627 0.81427 0.0
H861 H 0.19919 0.08346 0.78743 0.0
H862 H 0.17559 0.03246 0.7957 0.0
H863 H 0.11202 0.01567 0.8543 0.0
H864 H 0.15532 0.01484 0.84584 0.0
H865 H 0.09107 0.94405 0.82553 0.0
H866 H 0.04819 0.94515 0.83385 0.0
H867 H 0.16541 0.03301 0.82617 0.0
H868 H 0.12169 0.90473 0.81505 0.0
H869 H 0.09485 0.85364 0.82328 0.0
H870 H 0.12689 0.89603 0.85242 0.0
H871 H 0.15442 0.94739 0.84438 0.0
C872 C 0.20517 0.98282 0.78339 0.0
C873 C 0.2355 0.00748 0.78181 0.0
C874 C 0.1908 0.97832 0.79285 0.0
C875 C 0.20643 -0.00169 0.80097 0.0
C876 C 0.23712 0.02236 0.79951 0.0
C877 C 0.25145 0.02702 0.79001 0.0
C878 C 0.18971 0.99499 0.81068 0.0
C879 C 0.17466 0.96618 0.81561 0.0
C880 C 0.18711 0.01961 0.81479 0.0
C881 C 0.20096 0.05014 0.80975 0.0
C882 C 0.22236 0.0769 0.81497 0.0
C883 C 0.2355 0.10573 0.81024 0.0
C884 C 0.22723 0.10808 0.80031 0.0
C885 C 0.20569 0.0816 0.7951 0.0
C886 C 0.19245 0.05273 0.79981 0.0
C887 C 0.10713 -0.00111 0.84837 0.0
C888 C 0.07689 0.98062 0.84466 0.0
C889 C 0.13187 -0.0014 0.84349 0.0
C890 C 0.1265 0.97954 0.835 0.0
C891 C 0.09588 0.95874 0.8321 0.0
C892 C 0.07131 0.95937 0.83686 0.0
C893 C 0.15208 0.98525 0.82795 0.0
C894 C 0.16877 0.01454 0.82344 0.0
C895 C 0.1559 0.96098 0.82421 0.0
C896 C 0.14006 0.93002 0.82909 0.0
C897 C 0.12328 0.90319 0.82321 0.0
C898 C 0.10788 0.87416 0.82784 0.0
C899 C 0.10912 0.87161 0.83836 0.0
C900 C 0.12589 0.89806 0.84427 0.0
C901 C 0.14137 0.92715 0.83968 0.0
H902 H 0.09707 0.84913 0.84193 0.0
H903 H 0.23744 0.13041 0.79665 0.0
H904 H 0.06871 0.24534 0.7753 0.0
H905 H 0.08278 0.22793 0.79058 0.0
H906 H -0.00187 0.21042 0.8051 0.0
H907 H 0.98403 0.22834 0.78983 0.0
H908 H 0.04875 0.23554 0.81852 0.0
H909 H 2e-05 0.15225 0.79433 0.0
H910 H 0.99301 0.1278 0.77756 0.0
H911 H 0.08538 0.14318 0.77879 0.0
H912 H 0.09307 0.16811 0.79553 0.0
H913 H 0.01887 0.10894 0.85108 0.0
H914 H 0.0242 0.15207 0.84091 0.0
H915 H 0.10529 0.16015 0.82639 0.0
H916 H 0.09916 0.11635 0.83628 0.0
H917 H 0.06067 0.14442 0.81329 0.0
H918 H 0.10709 0.22156 0.83876 0.0
H919 H 0.11321 0.24455 0.85573 0.0
H920 H 0.02583 0.24015 0.85263 0.0
H921 H 0.0189 0.21662 0.8357 0.0
C922 C 0.0531 0.23792 0.78175 0.0
C923 C 0.02501 0.23777 0.7813 0.0
C924 C 0.06126 0.22812 0.7905 0.0
C925 C 0.04138 0.21764 0.79894 0.0
C926 C 0.01384 0.2185 0.79867 0.0
C927 C 0.00569 0.22847 0.78992 0.0
C928 C 0.04809 0.20323 0.80763 0.0
C929 C 0.0512 0.21549 0.81744 0.0
C930 C 0.05188 0.17748 0.80616 0.0
C931 C 0.04723 0.16233 0.79612 0.0
C932 C 0.01891 0.15063 0.79099 0.0
C933 C 0.0148 0.13665 0.7815 0.0
C934 C 0.03877 0.13402 0.7771 0.0
C935 C 0.06686 0.14528 0.7822 0.0
C936 C 0.0711 0.15932 0.79169 0.0
C937 C 0.03881 0.12113 0.84614 0.0
C938 C 0.05855 0.10943 0.84439 0.0
C939 C 0.04181 0.14573 0.84028 0.0
C940 C 0.06489 0.15907 0.83276 0.0
C941 C 0.08715 0.15005 0.83207 0.0
C942 C 0.08383 0.12521 0.83779 0.0
C943 C 0.06177 0.17678 0.82429 0.0
C944 C 0.0589 0.16484 0.81445 0.0
C945 C 0.0582 0.20268 0.82581 0.0
C946 C 0.06236 0.21707 0.83597 0.0
C947 C 0.08904 0.22524 0.84172 0.0
C948 C 0.09268 0.23842 0.85133 0.0
C949 C 0.0699 0.24376 0.85526 0.0
C950 C 0.04346 0.23599 0.84957 0.0
C951 C 0.03967 0.22276 0.83996 0.0
H952 H 0.07275 0.25396 0.86271 0.0
H953 H 0.03554 0.12319 0.76975 0.0
H954 H 0.7961 0.8019 0.7129 0.0
H955 H 0.82479 0.81624 0.6969 0.0
H956 H 0.89503 0.80219 0.71034 0.0
H957 H 0.86648 0.78794 0.72643 0.0
H958 H 0.91902 0.85748 0.70135 0.0
H959 H 0.84903 0.75384 0.69183 0.0
H960 H 0.7983 0.70646 0.68976 0.0
H961 H 0.7695 0.75398 0.66956 0.0
H962 H 0.81989 0.80182 0.67161 0.0
H963 H 0.00151 0.92442 0.65829 0.0
H964 H 0.9731 0.87695 0.66823 0.0
H965 H 0.88803 0.87622 0.66255 0.0
H966 H 0.91644 0.9233 0.65253 0.0
H967 H 0.87606 0.81836 0.66711 0.0
H968 H 0.93533 0.92203 0.68118 0.0
H969 H 0.98162 0.97243 0.68495 0.0
H970 H 0.02684 0.92668 0.69736 0.0
H971 H 0.98079 0.87598 0.69362 0.0
C972 C 0.81756 0.80169 0.71244 0.0
C973 C 0.82918 0.79408 0.72096 0.0
C974 C 0.83375 0.80953 0.70325 0.0
C975 C 0.86181 0.80982 0.70238 0.0
C976 C 0.87328 0.80185 0.71083 0.0
C977 C 0.85703 0.79389 0.72002 0.0
C978 C 0.8807 0.82184 0.693 0.0
C979 C 0.91003 0.84828 0.69388 0.0
C980 C 0.86859 0.8103 0.68324 0.0
C981 C 0.83826 0.7815 0.68191 0.0
C982 C 0.83183 0.75427 0.68699 0.0
C983 C 0.80312 0.72731 0.68582 0.0
C984 C 0.78068 0.72722 0.67954 0.0
C985 C 0.78692 0.75408 0.67441 0.0
C986 C 0.81558 0.78112 0.67557 0.0
C987 C 0.97648 0.91286 0.65859 0.0
C988 C 0.96104 0.92735 0.65471 0.0
C989 C 0.96028 0.88594 0.66437 0.0
C990 C 0.92862 0.87365 0.6664 0.0
C991 C 0.91248 0.8854 0.66115 0.0
C992 C 0.92868 0.91222 0.65534 0.0
C993 C 0.91406 0.85424 0.67551 0.0
C994 C 0.8855 0.82668 0.6746 0.0
C995 C 0.92653 0.86496 0.6853 0.0
C996 C 0.95484 0.8953 0.68701 0.0
C997 C 0.95529 0.92275 0.68461 0.0
C998 C 0.98139 0.95134 0.68679 0.0
C999 C 0.00705 0.95273 0.69145 0.0
C1000 C 0.00685 0.92554 0.69381 0.0
C1001 C 0.98079 0.89689 0.69165 0.0
H1002 H 0.02719 0.97489 0.69317 0.0
H1003 H 0.75847 0.70632 0.67864 0.0
H1004 H 0.26074 0.02515 0.71758 0.0
H1005 H 0.24014 0.02993 0.70123 0.0
H1006 H 0.16095 0.02344 0.71657 0.0
H1007 H 0.182 0.01993 0.73295 0.0
H1008 H 0.1507 0.98763 0.69653 0.0
H1009 H 0.2121 0.08796 0.71345 0.0
H1010 H 0.26037 0.13004 0.72074 0.0
H1011 H 0.30669 0.14253 0.69218 0.0
H1012 H 0.25905 0.09955 0.68483 0.0
H1013 H 0.0999 0.08763 0.67546 0.0
H1014 H 0.14096 0.08627 0.68487 0.0
H1015 H 0.14728 0.02939 0.66156 0.0
H1016 H 0.10598 0.0308 0.65208 0.0
H1017 H 0.20091 0.09451 0.68302 0.0
H1018 H 0.14201 0.96497 0.67662 0.0
H1019 H 0.0956 0.92301 0.66833 0.0
H1020 H 0.04598 0.97013 0.67442 0.0
H1021 H 0.09125 0.0112 0.68342 0.0
C1022 C 0.23858 0.024 0.71743 0.0
C1023 C 0.2229 0.02215 0.72651 0.0
C1024 C 0.22695 0.02685 0.7081 0.0
C1025 C 0.19911 0.02709 0.70773 0.0
C1026 C 0.18243 0.02319 0.71672 0.0
C1027 C 0.19446 0.02123 0.72606 0.0
C1028 C 0.18855 0.03424 0.69819 0.0
C1029 C 0.1619 0.01087 0.69347 0.0
C1030 C 0.20345 0.06452 0.69416 0.0
C1031 C 0.23216 0.09005 0.69866 0.0
C1032 C 0.23274 0.09919 0.70878 0.0
C1033 C 0.26001 0.12324 0.71293 0.0
C1034 C 0.28671 0.13871 0.70696 0.0
C1035 C 0.28615 0.13023 0.69683 0.0
C1036 C 0.25904 0.10597 0.69268 0.0
C1037 C 0.11115 0.07618 0.67209 0.0
C1038 C 0.0998 0.05924 0.66309 0.0
C1039 C 0.13462 0.07538 0.67748 0.0
C1040 C 0.14668 0.05718 0.67402 0.0
C1041 C 0.13811 0.04341 0.66438 0.0
C1042 C 0.11472 0.04446 0.65893 0.0
C1043 C 0.16278 0.048 0.6814 0.0
C1044 C 0.1903 0.07102 0.68583 0.0
C1045 C 0.14881 0.01728 0.6851 0.0
C1046 C 0.12033 0.99152 0.68051 0.0
C1047 C 0.12104 0.96615 0.67634 0.0
C1048 C 0.09484 0.94239 0.67159 0.0
C1049 C 0.06781 0.94384 0.6709 0.0
C1050 C 0.0668 0.96885 0.67509 0.0
C1051 C 0.09267 0.99228 0.68007 0.0
H1052 H 0.04767 0.92561 0.66712 0.0
H1053 H 0.30777 0.15742 0.71016 0.0
H1054 H 0.01614 0.25845 0.71942 0.0
H1055 H 0.01403 0.23762 0.70239 0.0
H1056 H 0.96754 0.14534 0.71466 0.0
H1057 H 0.96955 0.16579 0.7316 0.0
H1058 H 0.01328 0.15457 0.70172 0.0
H1059 H 0.92747 0.17237 0.70273 0.0
H1060 H 0.90282 0.20381 0.70475 0.0
H1061 H 0.95601 0.26095 0.67971 0.0
H1062 H 0.9814 0.23013 0.67765 0.0
H1063 H 0.92992 0.04773 0.66635 0.0
H1064 H 0.93118 0.08868 0.67663 0.0
H1065 H 0.01242 0.15614 0.66048 0.0
H1066 H 0.01114 0.11503 0.65011 0.0
H1067 H 0.95515 0.16736 0.67356 0.0
H1068 H 0.04599 0.14941 0.67492 0.0
H1069 H 0.06568 0.11337 0.67364 0.0
H1070 H -0.00341 0.0523 0.69491 0.0
H1071 H 0.97625 0.08781 0.69617 0.0
C1072 C 0.00578 0.23375 0.7185 0.0
C1073 C 0.99303 0.21377 0.72687 0.0
C1074 C 0.00438 0.22189 0.70875 0.0
C1075 C 0.99038 0.18991 0.70725 0.0
C1076 C 0.97841 0.17009 0.71564 0.0
C1077 C 0.97958 0.18184 0.72533 0.0
C1078 C 0.98807 0.17662 0.697 0.0
C1079 C 0.00091 0.1578 0.69555 0.0
C1080 C 0.97192 0.18073 0.6889 0.0
C1081 C 0.95664 0.19921 0.69012 0.0
C1082 C 0.93414 0.19183 0.69772 0.0
C1083 C 0.91999 0.20949 0.69886 0.0
C1084 C 0.92791 0.23442 0.69238 0.0
C1085 C 0.94995 0.24168 0.68474 0.0
C1086 C 0.96424 0.22412 0.68358 0.0
C1087 C 0.94677 0.07148 0.66452 0.0
C1088 C 0.97065 0.07825 0.65755 0.0
C1089 C 0.94754 0.0949 0.67042 0.0
C1090 C 0.97218 0.12531 0.66942 0.0
C1091 C 0.99316 0.13278 0.66134 0.0
C1092 C 0.99229 0.10926 0.65536 0.0
C1093 C 0.98067 0.1458 0.67836 0.0
C1094 C 0.96858 0.16536 0.67963 0.0
C1095 C -0.00263 0.14238 0.68637 0.0
C1096 C 0.00955 0.1211 0.68559 0.0
C1097 C 0.03491 0.12819 0.67926 0.0
C1098 C 0.04619 0.10788 0.67855 0.0
C1099 C 0.03243 0.0806 0.68422 0.0
C1100 C 0.00724 0.07346 0.69054 0.0
C1101 C 0.99583 0.09364 0.69126 0.0
H1102 H 0.04135 0.06506 0.68375 0.0
H1103 H 0.9169 0.24806 0.69328 0.0
H1104 H 0.91496 0.60902 0.54368 0.0
H1105 H 0.8996 0.58115 0.52755 0.0
H1106 H 0.88226 0.49792 0.54279 0.0
H1107 H 0.89862 0.52594 0.55886 0.0
H1108 H 0.90774 0.50148 0.5248 0.0
H1109 H 0.82349 0.5139 0.53736 0.0
H1110 H 0.79953 0.54366 0.54318 0.0
H1111 H 0.8225 0.59232 0.51479 0.0
H1112 H 0.84693 0.56305 0.50886 0.0
H1113 H 0.77428 0.37741 0.50475 0.0
H1114 H 0.82132 0.41865 0.51236 0.0
H1115 H 0.82776 0.48084 0.48867 0.0
H1116 H 0.78048 0.43909 0.48094 0.0
H1117 H 0.81885 0.49809 0.50718 0.0
H1118 H 0.88954 0.47233 0.49336 0.0
H1119 H 0.90955 0.43886 0.48788 0.0
H1120 H 0.90901 0.41149 0.51876 0.0
H1121 H 0.88847 0.44439 0.52442 0.0
C1122 C 0.90792 0.58479 0.54359 0.0
C1123 C 0.90759 0.56956 0.55257 0.0
C1124 C 0.89921 0.56889 0.53435 0.0
C1125 C 0.88938 0.5373 0.53396 0.0
C1126 C 0.88981 0.52229 0.54288 0.0
C1127 C 0.89891 0.53826 0.55209 0.0
C1128 C 0.87668 0.51927 0.52445 0.0
C1129 C 0.88828 0.50066 0.52093 0.0
C1130 C 0.85202 0.51903 0.51916 0.0
C1131 C 0.83738 0.53662 0.52273 0.0
C1132 C 0.82363 0.53112 0.5324 0.0
C1133 C 0.80994 0.54786 0.53571 0.0
C1134 C 0.8096 0.56995 0.52938 0.0
C1135 C 0.82286 0.57527 0.5197 0.0
C1136 C 0.83663 0.55862 0.51636 0.0
C1137 C 0.78662 0.39944 0.50088 0.0
C1138 C 0.77368 0.40526 0.49235 0.0
C1139 C 0.81361 0.42306 0.50522 0.0
C1140 C 0.82798 0.45297 0.50114 0.0
C1141 C 0.81704 0.45792 0.49194 0.0
C1142 C 0.79014 0.43404 0.48749 0.0
C1143 C 0.84906 0.4793 0.50772 0.0
C1144 C 0.83898 0.49953 0.51077 0.0
C1145 C 0.87476 0.48062 0.51263 0.0
C1146 C 0.88735 0.46086 0.50931 0.0
C1147 C 0.89347 0.45904 0.49898 0.0
C1148 C 0.90494 0.44016 0.49584 0.0
C1149 C 0.91054 0.42304 0.50297 0.0
C1150 C 0.9047 0.4248 0.51325 0.0
C1151 C 0.89319 0.44362 0.51643 0.0
H1152 H 0.91941 0.40843 0.50053 0.0
H1153 H 0.79897 0.58289 0.53195 0.0
H1154 H 0.5106 0.39682 0.55437 0.0
H1155 H 0.53355 0.40852 0.53742 0.0
H1156 H 0.45546 0.32488 0.52596 0.0
H1157 H 0.43247 0.3128 0.54297 0.0
H1158 H 0.50831 0.3301 0.51983 0.0
H1159 H 0.46573 0.39526 0.51929 0.0
H1160 H 0.45358 0.43415 0.52554 0.0
H1161 H 0.55032 0.50264 0.52567 0.0
H1162 H 0.56314 0.46407 0.51958 0.0
H1163 H 0.59619 0.36629 0.4771 0.0
H1164 H 0.55094 0.3659 0.48431 0.0
H1165 H 0.60946 0.43447 0.50621 0.0
H1166 H 0.65449 0.43486 0.49906 0.0
H1167 H 0.55282 0.43279 0.5034 0.0
H1168 H 0.59173 0.36186 0.51136 0.0
H1169 H 0.60719 0.32482 0.50569 0.0
H1170 H 0.51841 0.26901 0.49172 0.0
H1171 H 0.5025 0.30589 0.49733 0.0
C1172 C 0.49826 0.38092 0.54824 0.0
C1173 C 0.46978 0.35381 0.55002 0.0
C1174 C 0.51124 0.38782 0.53852 0.0
C1175 C 0.49594 0.36788 0.53036 0.0
C1176 C 0.46753 0.34074 0.53212 0.0
C1177 C 0.4545 0.33382 0.54185 0.0
C1178 C 0.51104 0.37428 0.52023 0.0
C1179 C 0.51712 0.3522 0.51607 0.0
C1180 C 0.52293 0.40326 0.51536 0.0
C1181 C 0.5154 0.42666 0.51901 0.0
C1182 C 0.48445 0.41855 0.52072 0.0
C1183 C 0.47744 0.44056 0.52423 0.0
C1184 C 0.50116 0.47083 0.52602 0.0
C1185 C 0.53196 0.47918 0.52428 0.0
C1186 C 0.53911 0.45725 0.52078 0.0
C1187 C 0.59962 0.38266 0.48304 0.0
C1188 C 0.62855 0.39991 0.48776 0.0
C1189 C 0.5737 0.3823 0.48719 0.0
C1190 C 0.57677 0.39931 0.49603 0.0
C1191 C 0.6065 0.42084 0.49948 0.0
C1192 C 0.63228 0.42104 0.49539 0.0
C1193 C 0.55057 0.38895 0.50324 0.0
C1194 C 0.54271 0.41026 0.50693 0.0
C1195 C 0.53704 0.35933 0.50776 0.0
C1196 C 0.54604 0.33661 0.50469 0.0
C1197 C 0.57554 0.34164 0.50709 0.0
C1198 C 0.58439 0.32073 0.50388 0.0
C1199 C 0.56385 0.29462 0.49831 0.0
C1200 C 0.53431 0.28927 0.49602 0.0
C1201 C 0.52534 0.31013 0.49923 0.0
H1202 H 0.5708 0.27851 0.49579 0.0
H1203 H 0.49568 0.48784 0.52873 0.0
H1204 H 0.61134 0.11718 0.55755 0.0
H1205 H 0.61138 0.13833 0.54091 0.0
H1206 H 0.70935 0.17332 0.53798 0.0
H1207 H 0.70935 0.15123 0.55468 0.0
H1208 H 0.68822 0.21759 0.5347 0.0
H1209 H 0.67018 0.12096 0.52282 0.0
H1210 H 0.64621 0.06438 0.5224 0.0
H1211 H 0.55775 0.05474 0.51612 0.0
H1212 H 0.58107 0.11128 0.51667 0.0
H1213 H 0.66756 0.2587 0.48304 0.0
H1214 H 0.66916 0.21767 0.49258 0.0
H1215 H 0.60858 0.22078 0.51523 0.0
H1216 H 0.60694 0.26159 0.5058 0.0
H1217 H 0.62165 0.15638 0.50586 0.0
H1218 H 0.66026 0.2531 0.53455 0.0
H1219 H 0.68184 0.30948 0.53468 0.0
H1220 H 0.73081 0.31811 0.50694 0.0
H1221 H 0.71007 0.26191 0.50678 0.0
C1222 C 0.63293 0.12925 0.55337 0.0
C1223 C 0.66042 0.13278 0.55746 0.0
C1224 C 0.63283 0.14108 0.54382 0.0
C1225 C 0.66029 0.15714 0.53819 0.0
C1226 C 0.68788 0.16076 0.5422 0.0
C1227 C 0.68786 0.14822 0.55171 0.0
C1228 C 0.65995 0.17197 0.52852 0.0
C1229 C 0.67428 0.20421 0.52831 0.0
C1230 C 0.64165 0.15448 0.52018 0.0
C1231 C 0.62738 0.12042 0.51985 0.0
C1232 C 0.64556 0.10679 0.52144 0.0
C1233 C 0.63209 0.07471 0.52116 0.0
C1234 C 0.60047 0.05598 0.51925 0.0
C1235 C 0.58225 0.06929 0.5176 0.0
C1236 C 0.59559 0.10137 0.51788 0.0
C1237 C 0.65318 0.24939 0.48974 0.0
C1238 C 0.63757 0.26365 0.4938 0.0
C1239 C 0.6542 0.226 0.49521 0.0
C1240 C 0.63945 0.21672 0.50469 0.0
C1241 C 0.62024 0.22781 0.50795 0.0
C1242 C 0.6193 0.25111 0.50254 0.0
C1243 C 0.64938 0.20172 0.51222 0.0
C1244 C 0.63649 0.16964 0.51211 0.0
C1245 C 0.66928 0.21929 0.52024 0.0
C1246 C 0.68345 0.25331 0.52063 0.0
C1247 C 0.67589 0.26709 0.52855 0.0
C1248 C 0.68794 0.299 0.52861 0.0
C1249 C 0.70763 0.31736 0.52081 0.0
C1250 C 0.71553 0.30388 0.51297 0.0
C1251 C 0.70365 0.272 0.51289 0.0
H1252 H 0.71681 0.34203 0.52085 0.0
H1253 H 0.59009 0.03114 0.51903 0.0
H1254 H 0.83569 0.564 0.60496 0.0
H1255 H 0.8166 0.54676 0.62209 0.0
H1256 H 0.90583 0.56154 0.63093 0.0
H1257 H 0.92551 0.57927 0.61366 0.0
H1258 H 0.85472 0.50449 0.63765 0.0
H1259 H 0.88841 0.61114 0.63938 0.0
H1260 H 0.89457 0.66058 0.63362 0.0
H1261 H 0.79619 0.62225 0.63524 0.0
H1262 H 0.78935 0.5724 0.64085 0.0
H1263 H 0.77511 0.44823 0.68314 0.0
H1264 H 0.81758 0.49193 0.67411 0.0
H1265 H 0.7514 0.49722 0.65466 0.0
H1266 H 0.70925 0.45366 0.66358 0.0
H1267 H 0.80548 0.55398 0.65655 0.0
H1268 H 0.77267 0.44576 0.64931 0.0
H1269 H 0.76383 0.39475 0.65449 0.0
H1270 H 0.85949 0.43581 0.6628 0.0
H1271 H 0.86872 0.48716 0.65781 0.0
C1272 C 0.85136 0.56349 0.61048 0.0
C1273 C 0.88222 0.57312 0.6079 0.0
C1274 C 0.84042 0.55383 0.62032 0.0
C1275 C 0.85995 0.55342 0.62783 0.0
C1276 C 0.89049 0.56199 0.62526 0.0
C1277 C 0.90164 0.57202 0.61538 0.0
C1278 C 0.84766 0.54328 0.63825 0.0
C1279 C 0.84483 0.51584 0.64196 0.0
C1280 C 0.83444 0.55792 0.6438 0.0
C1281 C 0.83837 0.58795 0.6405 0.0
C1282 C 0.86805 0.61317 0.63844 0.0
C1283 C 0.87167 0.64129 0.63521 0.0
C1284 C 0.84578 0.64455 0.63405 0.0
C1285 C 0.81622 0.6197 0.63614 0.0
C1286 C 0.81247 0.59151 0.63937 0.0
C1287 C 0.76964 0.4599 0.67732 0.0
C1288 C 0.73906 0.44744 0.67393 0.0
C1289 C 0.79392 0.48469 0.67211 0.0
C1290 C 0.78765 0.49725 0.66354 0.0
C1291 C 0.75681 0.48777 0.6612 0.0
C1292 C 0.73268 0.46289 0.66631 0.0
C1293 C 0.8118 0.5148 0.65577 0.0
C1294 C 0.81658 0.54342 0.65248 0.0
C1295 C 0.82666 0.50117 0.65055 0.0
C1296 C 0.82131 0.47027 0.6533 0.0
C1297 C 0.79177 0.44389 0.65228 0.0
C1298 C 0.78668 0.41494 0.65518 0.0
C1299 C 0.81107 0.41206 0.65899 0.0
C1300 C 0.84061 0.4381 0.65987 0.0
C1301 C 0.84578 0.46713 0.65701 0.0
H1302 H 0.80711 0.38964 0.66125 0.0
H1303 H 0.84863 0.66633 0.63155 0.0
H1304 H 0.46236 0.36177 0.61253 0.0
H1305 H 0.47799 0.35871 0.6299 0.0
H1306 H 0.4967 0.28746 0.62065 0.0
H1307 H 0.48124 0.29027 0.60338 0.0
H1308 H 0.46337 0.27311 0.63874 0.0
H1309 H 0.55476 0.36086 0.62332 0.0
H1310 H 0.58255 0.41201 0.61511 0.0
H1311 H 0.56094 0.45187 0.64038 0.0
H1312 H 0.53269 0.40083 0.64868 0.0
H1313 H 0.58748 0.27615 0.66245 0.0
H1314 H 0.54328 0.27296 0.65369 0.0
H1315 H 0.54696 0.34344 0.67335 0.0
H1316 H 0.59118 0.34624 0.68228 0.0
H1317 H 0.55704 0.36143 0.65378 0.0
H1318 H 0.47954 0.27669 0.67133 0.0
H1319 H 0.45292 0.2262 0.67994 0.0
H1320 H 0.44715 0.18078 0.65173 0.0
H1321 H 0.4742 0.231 0.64296 0.0
C1322 C 0.47006 0.34564 0.61417 0.0
C1323 C 0.47068 0.32638 0.60652 0.0
C1324 C 0.47881 0.34381 0.62412 0.0
C1325 C 0.48829 0.32268 0.62659 0.0
C1326 C 0.48913 0.30367 0.61895 0.0
C1327 C 0.48057 0.30557 0.60904 0.0
C1328 C 0.49862 0.32088 0.63698 0.0
C1329 C 0.48381 0.29237 0.64208 0.0
C1330 C 0.52435 0.34642 0.64155 0.0
C1331 C 0.54127 0.37701 0.63655 0.0
C1332 C 0.55571 0.3805 0.62708 0.0
C1333 C 0.57159 0.40946 0.62242 0.0
C1334 C 0.57341 0.43515 0.6272 0.0
C1335 C 0.55944 0.43194 0.63667 0.0
C1336 C 0.5435 0.40301 0.64136 0.0
C1337 C 0.5778 0.28975 0.66525 0.0
C1338 C 0.59276 0.31157 0.67296 0.0
C1339 C 0.5525 0.28796 0.66024 0.0
C1340 C 0.54194 0.30818 0.6628 0.0
C1341 C 0.55475 0.32764 0.67125 0.0
C1342 C 0.57984 0.32905 0.6764 0.0
C1343 C 0.52276 0.31317 0.65534 0.0
C1344 C 0.5359 0.34231 0.65072 0.0
C1345 C 0.4954 0.28823 0.65128 0.0
C1346 C 0.47902 0.25775 0.65647 0.0
C1347 C 0.4728 0.25597 0.66696 0.0
C1348 C 0.4576 0.22738 0.67187 0.0
C1349 C 0.44835 0.20031 0.66638 0.0
C1350 C 0.45429 0.20178 0.65597 0.0
C1351 C 0.46951 0.23033 0.65101 0.0
H1352 H 0.43657 0.17819 0.6702 0.0
H1353 H 0.58572 0.45756 0.62359 0.0
H1354 H 0.73809 0.16485 0.61093 0.0
H1355 H 0.74733 0.19206 0.62715 0.0
H1356 H 0.64939 0.14139 0.63355 0.0
H1357 H 0.64004 0.11348 0.61746 0.0
H1358 H 0.67882 0.2074 0.63468 0.0
H1359 H 0.68754 0.12448 0.64739 0.0
H1360 H 0.70518 0.08698 0.64874 0.0
H1361 H 0.79829 0.16072 0.65376 0.0
H1362 H 0.78135 0.19882 0.65221 0.0
H1363 H 0.69662 0.26839 0.68472 0.0
H1364 H 0.69667 0.22534 0.67602 0.0
H1365 H 0.76373 0.28892 0.65456 0.0
H1366 H 0.76352 0.33178 0.66312 0.0
H1367 H 0.74445 0.20927 0.66316 0.0
H1368 H 0.7151 0.27521 0.63561 0.0
H1369 H 0.69617 0.312 0.63558 0.0
H1370 H 0.63875 0.26634 0.66147 0.0
H1371 H 0.65707 0.22911 0.66155 0.0
C1372 C 0.71856 0.15942 0.61582 0.0
C1373 C 0.68832 0.13726 0.61292 0.0
C1374 C 0.7239 0.17474 0.62511 0.0
C1375 C 0.69905 0.1685 0.63155 0.0
C1376 C 0.66886 0.1463 0.62869 0.0
C1377 C 0.66356 0.1305 0.61951 0.0
C1378 C 0.70439 0.18726 0.64079 0.0
C1379 C 0.69282 0.20742 0.64094 0.0
C1380 C 0.72256 0.18721 0.64899 0.0
C1381 C 0.7332 0.16457 0.64957 0.0
C1382 C 0.71187 0.13279 0.64862 0.0
C1383 C 0.72172 0.1114 0.64946 0.0
C1384 C 0.75282 0.12146 0.65133 0.0
C1385 C 0.77419 0.15297 0.65232 0.0
C1386 C 0.76448 0.17448 0.65144 0.0
C1387 C 0.71282 0.27335 0.67855 0.0
C1388 C 0.72955 0.3032 0.67442 0.0
C1389 C 0.71283 0.24871 0.67358 0.0
C1390 C 0.72978 0.25403 0.66456 0.0
C1391 C 0.75046 0.28443 0.66151 0.0
C1392 C 0.75027 0.30891 0.66639 0.0
C1393 C 0.71926 0.22942 0.65685 0.0
C1394 C 0.73005 0.20863 0.65693 0.0
C1395 C 0.69982 0.22827 0.64891 0.0
C1396 C 0.68755 0.24957 0.64861 0.0
C1397 C 0.69825 0.27293 0.64123 0.0
C1398 C 0.68768 0.29387 0.64123 0.0
C1399 C 0.6663 0.29153 0.64853 0.0
C1400 C 0.65532 0.26815 0.65583 0.0
C1401 C 0.66579 0.24714 0.65585 0.0
H1402 H 0.65822 0.30782 0.64852 0.0
H1403 H 0.76029 0.10481 0.65207 0.0
H1404 H 0.46534 0.2093 0.10476 0.0
H1405 H 0.48305 0.2322 0.12145 0.0
H1406 H 0.49508 0.15625 0.13014 0.0
H1407 H 0.47616 0.13245 0.11347 0.0
H1408 H 0.47074 0.17086 0.14548 0.0
H1409 H 0.55742 0.22751 0.12348 0.0
H1410 H 0.5858 0.2578 0.1084 0.0
H1411 H 0.56552 0.32837 0.1166 0.0
H1412 H 0.53665 0.2983 0.13166 0.0
H1413 H 0.58719 0.25429 0.18294 0.0
H1414 H 0.54611 0.22033 0.17135 0.0
H1415 H 0.53331 0.29589 0.16279 0.0
H1416 H 0.5754 0.33009 0.17408 0.0
H1417 H 0.55559 0.27985 0.1477 0.0
H1418 H 0.46571 0.21932 0.16961 0.0
H1419 H 0.43902 0.18791 0.18473 0.0
H1420 H 0.46933 0.12445 0.17696 0.0
H1421 H 0.49623 0.15562 0.16182 0.0
C1422 C 0.47194 0.19748 0.11018 0.0
C1423 C 0.46966 0.16917 0.10773 0.0
C1424 C 0.48207 0.21065 0.11974 0.0
C1425 C 0.49088 0.19623 0.12702 0.0
C1426 C 0.48844 0.16783 0.12465 0.0
C1427 C 0.47785 0.15437 0.11509 0.0
C1428 C 0.50307 0.21124 0.13702 0.0
C1429 C 0.48947 0.19464 0.14598 0.0
C1430 C 0.52727 0.24235 0.13771 0.0
C1431 C 0.5446 0.26049 0.12864 0.0
C1432 C 0.5588 0.24937 0.12202 0.0
C1433 C 0.57501 0.26652 0.11349 0.0
C1434 C 0.57739 0.29495 0.11153 0.0
C1435 C 0.56362 0.30632 0.11811 0.0
C1436 C 0.54735 0.28925 0.12666 0.0
C1437 C 0.57416 0.26309 0.17911 0.0
C1438 C 0.58454 0.29479 0.17931 0.0
C1439 C 0.55064 0.24362 0.17241 0.0
C1440 C 0.5369 0.25561 0.16601 0.0
C1441 C 0.54379 0.28614 0.16755 0.0
C1442 C 0.56763 0.30567 0.1741 0.0
C1443 C 0.5227 0.23989 0.15625 0.0
C1444 C 0.5364 0.25627 0.14726 0.0
C1445 C 0.49903 0.20855 0.15558 0.0
C1446 C 0.4833 0.19002 0.1647 0.0
C1447 C 0.46692 0.19885 0.17121 0.0
C1448 C 0.45164 0.18102 0.17974 0.0
C1449 C 0.45261 0.15429 0.18183 0.0
C1450 C 0.46868 0.14522 0.17535 0.0
C1451 C 0.48386 0.16291 0.16678 0.0
H1452 H 0.44083 0.14055 0.18846 0.0
H1453 H 0.58996 0.3082 0.10491 0.0
H1454 H 0.92553 0.36251 0.12411 0.0
H1455 H 0.89385 0.3496 0.13954 0.0
H1456 H 0.81292 0.28665 0.12241 0.0
H1457 H 0.84434 0.29925 0.107 0.0
H1458 H 0.80451 0.32754 0.13392 0.0
H1459 H 0.84332 0.25854 0.13822 0.0
H1460 H 0.8836 0.24437 0.13947 0.0
H1461 H 0.92203 0.30303 0.1655 0.0
H1462 H 0.88223 0.31795 0.16432 0.0
H1463 H 0.69376 0.2605 0.16916 0.0
H1464 H 0.73276 0.25658 0.15924 0.0
H1465 H 0.80495 0.33129 0.1764 0.0
H1466 H 0.76577 0.33487 0.18653 0.0
H1467 H 0.81994 0.28428 0.16576 0.0
H1468 H 0.7862 0.35868 0.15982 0.0
H1469 H 0.74573 0.3727 0.15884 0.0
H1470 H 0.69866 0.30391 0.13587 0.0
H1471 H 0.73877 0.28928 0.1368 0.0
C1472 C 0.90099 0.34584 0.12364 0.0
C1473 C 0.88738 0.33203 0.11432 0.0
C1474 C 0.883 0.33834 0.13248 0.0
C1475 C 0.85109 0.31702 0.13213 0.0
C1476 C 0.83752 0.3031 0.12284 0.0
C1477 C 0.85551 0.31037 0.11404 0.0
C1478 C 0.83137 0.31064 0.14126 0.0
C1479 C 0.80779 0.31779 0.14082 0.0
C1480 C 0.83609 0.29862 0.15037 0.0
C1481 C 0.85998 0.28963 0.15111 0.0
C1482 C 0.86053 0.26866 0.14416 0.0
C1483 C 0.88324 0.26044 0.14486 0.0
C1484 C 0.90541 0.27286 0.15254 0.0
C1485 C 0.90487 0.29347 0.15955 0.0
C1486 C 0.88222 0.30179 0.15887 0.0
C1487 C 0.71788 0.27472 0.17126 0.0
C1488 C 0.72686 0.29828 0.17847 0.0
C1489 C 0.74018 0.27252 0.16556 0.0
C1490 C 0.77168 0.29412 0.16694 0.0
C1491 C 0.78073 0.31443 0.17523 0.0
C1492 C 0.7583 0.3164 0.18104 0.0
C1493 C 0.79314 0.30093 0.15829 0.0
C1494 C 0.81693 0.29406 0.15883 0.0
C1495 C 0.78895 0.31346 0.14924 0.0
C1496 C 0.76528 0.32273 0.14845 0.0
C1497 C 0.76713 0.34646 0.1546 0.0
C1498 C 0.74429 0.35454 0.15405 0.0
C1499 C 0.71959 0.33915 0.14732 0.0
C1500 C 0.71779 0.31578 0.14109 0.0
C1501 C 0.74059 0.30762 0.14161 0.0
H1502 H 0.70187 0.34537 0.14692 0.0
H1503 H 0.92297 0.26647 0.15308 0.0
H1504 H 0.72873 0.57008 0.10719 0.0
H1505 H 0.74083 0.55004 0.12222 0.0
H1506 H 0.659 0.53874 0.13716 0.0
H1507 H 0.64701 0.55951 0.12213 0.0
H1508 H 0.70799 0.56036 0.15034 0.0
H1509 H 0.65759 0.47745 0.12656 0.0
H1510 H 0.64856 0.45169 0.10995 0.0
H1511 H 0.73948 0.46328 0.11072 0.0
H1512 H 0.74922 0.4895 0.12728 0.0
H1513 H 0.68622 0.4387 0.18418 0.0
H1514 H 0.68889 0.48014 0.17376 0.0
H1515 H 0.76614 0.48596 0.15722 0.0
H1516 H 0.76224 0.44337 0.16727 0.0
H1517 H 0.71974 0.46912 0.14519 0.0
H1518 H 0.77072 0.55458 0.16881 0.0
H1519 H 0.77866 0.57938 0.18561 0.0
H1520 H 0.68513 0.56097 0.1854 0.0
H1521 H 0.67672 0.53594 0.16864 0.0
C1522 C 0.71328 0.5634 0.11366 0.0
C1523 C 0.68669 0.56603 0.11342 0.0
C1524 C 0.72027 0.55198 0.12227 0.0
C1525 C 0.70062 0.54251 0.13077 0.0
C1526 C 0.67448 0.54589 0.13068 0.0
C1527 C 0.66755 0.55755 0.12207 0.0
C1528 C 0.70668 0.52763 0.13949 0.0
C1529 C 0.71034 0.54025 0.14925 0.0
C1530 C 0.71008 0.50162 0.13806 0.0
C1531 C 0.70424 0.48571 0.12812 0.0
C1532 C 0.67574 0.47471 0.12315 0.0
C1533 C 0.67048 0.46 0.11375 0.0
C1534 C 0.69346 0.45592 0.10927 0.0
C1535 C 0.72172 0.46649 0.11419 0.0
C1536 C 0.72711 0.48126 0.12359 0.0
C1537 C 0.70484 0.45002 0.17869 0.0
C1538 C 0.72385 0.43775 0.17643 0.0
C1539 C 0.70634 0.47375 0.1727 0.0
C1540 C 0.72741 0.48593 0.16455 0.0
C1541 C 0.74942 0.4767 0.16336 0.0
C1542 C 0.74742 0.45255 0.16917 0.0
C1543 C 0.72212 0.50232 0.15609 0.0
C1544 C 0.71801 0.48957 0.14632 0.0
C1545 C 0.71811 0.52797 0.15757 0.0
C1546 C 0.72301 0.54303 0.16759 0.0
C1547 C 0.7518 0.55552 0.17244 0.0
C1548 C 0.7564 0.56969 0.18192 0.0
C1549 C 0.73235 0.57154 0.1866 0.0
C1550 C 0.70372 0.55943 0.18178 0.0
C1551 C 0.69905 0.54533 0.17228 0.0
H1552 H 0.73593 0.58248 0.19395 0.0
H1553 H 0.68934 0.44452 0.10199 0.0
H1554 H 0.4377 0.12495 0.04403 0.0
H1555 H 0.46724 0.14144 0.02809 0.0
H1556 H 0.55068 0.16436 0.04435 0.0
H1557 H 0.52145 0.14773 0.06024 0.0
H1558 H 0.55453 0.21242 0.03231 0.0
H1559 H 0.52227 0.10394 0.02927 0.0
H1560 H 0.48465 0.04815 0.02828 0.0
H1561 H 0.44104 0.06314 0.00273 0.0
H1562 H 0.47862 0.11907 0.0035 0.0
H1563 H 0.6679 0.25397 0.99916 0.0
H1564 H 0.62736 0.20968 0.00829 0.0
H1565 H 0.55808 0.21342 0.99011 0.0
H1566 H 0.59885 0.25758 0.98077 0.0
H1567 H 0.54281 0.14954 0.00173 0.0
H1568 H 0.56794 0.25696 0.00613 0.0
H1569 H 0.60537 0.31295 0.00624 0.0
H1570 H 0.65947 0.29993 0.02874 0.0
H1571 H 0.62228 0.24377 0.02873 0.0
C1572 C 0.46232 0.13336 0.04419 0.0
C1573 C 0.47731 0.13531 0.05341 0.0
C1574 C 0.47908 0.1425 0.03507 0.0
C1575 C 0.51109 0.15393 0.03505 0.0
C1576 C 0.52596 0.15548 0.04421 0.0
C1577 C 0.50923 0.14607 0.05329 0.0
C1578 C 0.52978 0.16699 0.0257 0.0
C1579 C 0.55197 0.19853 0.02567 0.0
C1580 C 0.52584 0.14915 0.01689 0.0
C1581 C 0.50298 0.11569 0.01653 0.0
C1582 C 0.50447 0.09537 0.0235 0.0
C1583 C 0.48321 0.06371 0.02297 0.0
C1584 C 0.46029 0.05212 0.01551 0.0
C1585 C 0.45873 0.07216 0.00852 0.0
C1586 C 0.48007 0.10382 0.00898 0.0
C1587 C 0.64417 0.24403 0.99664 0.0
C1588 C 0.63634 0.25939 0.98942 0.0
C1589 C 0.62098 0.2187 0.00186 0.0
C1590 C 0.58978 0.20884 1.00002 0.0
C1591 C 0.58206 0.22076 0.99163 0.0
C1592 C 0.6054 0.24599 0.98629 0.0
C1593 C 0.56756 0.19464 0.0085 0.0
C1594 C 0.54492 0.16324 0.00836 0.0
C1595 C 0.57047 0.21258 0.01715 0.0
C1596 C 0.59251 0.24629 0.01739 0.0
C1597 C 0.58788 0.26608 0.01108 0.0
C1598 C 0.60899 0.29782 0.01113 0.0
C1599 C 0.6348 0.31 0.01749 0.0
C1600 C 0.63946 0.29047 0.02383 0.0
C1601 C 0.61833 0.2587 0.02383 0.0
H1602 H 0.65116 0.33456 0.01747 0.0
H1603 H 0.44384 0.02759 0.01512 0.0
H1604 H 0.90516 0.33812 0.05308 0.0
H1605 H 0.88425 0.34315 0.03682 0.0
H1606 H 0.8651 0.41002 0.05024 0.0
H1607 H 0.88528 0.40486 0.06638 0.0
H1608 H 0.81702 0.36881 0.03975 0.0
H1609 H 0.92758 0.431 0.03431 0.0
H1610 H 0.98078 0.4403 0.03326 0.0
H1611 H 0.95301 0.37208 0.00978 0.0
H1612 H 0.89951 0.36208 0.01079 0.0
H1613 H 0.78291 0.43627 0.00217 0.0
H1614 H 0.82208 0.43688 0.01326 0.0
H1615 H 0.81693 0.36041 0.99673 0.0
H1616 H 0.77818 0.3603 0.98542 0.0
H1617 H 0.87716 0.40146 0.00758 0.0
H1618 H 0.76619 0.33911 0.01337 0.0
H1619 H 0.71345 0.33115 0.01437 0.0
H1620 H 0.74304 0.40076 0.03745 0.0
H1621 H 0.79603 0.40935 0.03649 0.0
C1622 C 0.89631 0.35373 0.05257 0.0
C1623 C 0.89686 0.37101 0.06107 0.0
C1624 C 0.88461 0.35678 0.04325 0.0
C1625 C 0.87335 0.3772 0.04228 0.0
C1626 C 0.87364 0.39413 0.05079 0.0
C1627 C 0.88523 0.39111 0.06004 0.0
C1628 C 0.86037 0.3807 0.03257 0.0
C1629 C 0.83035 0.37611 0.03275 0.0
C1630 C 0.87734 0.38946 0.02334 0.0
C1631 C 0.90948 0.39554 0.02271 0.0
C1632 C 0.93276 0.4178 0.02898 0.0
C1633 C 0.96298 0.42323 0.02839 0.0
C1634 C 0.97025 0.40672 0.02148 0.0
C1635 C 0.94733 0.38481 0.01514 0.0
C1636 C 0.91707 0.37926 0.01571 0.0
C1637 C 0.79167 0.42098 1.00047 0.0
C1638 C 0.77745 0.39812 0.993 0.0
C1639 C 0.81387 0.42116 0.00687 0.0
C1640 C 0.82173 0.39814 0.00598 0.0
C1641 C 0.81109 0.37829 0.99756 0.0
C1642 C 0.78908 0.3784 0.99105 0.0
C1643 C 0.83438 0.39045 0.01495 0.0
C1644 C 0.86397 0.39395 0.01459 0.0
C1645 C 0.8171 0.38063 0.02408 0.0
C1646 C 0.7851 0.37503 0.0248 0.0
C1647 C 0.76147 0.35282 0.01861 0.0
C1648 C 0.73153 0.34817 0.01918 0.0
C1649 C 0.72494 0.3655 0.02595 0.0
C1650 C 0.74821 0.38739 0.0322 0.0
C1651 C 0.77817 0.39212 0.03166 0.0
H1652 H 0.70181 0.36197 0.02638 0.0
H1653 H 0.99365 0.41097 0.02103 0.0
H1654 H 0.6116 0.49736 0.06389 0.0
H1655 H 0.60919 0.47325 0.04769 0.0
H1656 H 0.68978 0.55679 0.03729 0.0
H1657 H 0.69206 0.58169 0.0536 0.0
H1658 H 0.64559 0.53046 0.02228 0.0
H1659 H 0.69771 0.49769 0.04449 0.0
H1660 H 0.70724 0.47719 0.06018 0.0
H1661 H 0.62219 0.39143 0.05597 0.0
H1662 H 0.6119 0.41158 0.04033 0.0
H1663 H 0.67798 0.44196 0.98537 0.0
H1664 H 0.67354 0.47854 0.9965 0.0
H1665 H 0.59228 0.40327 0.0104 0.0
H1666 H 0.59734 0.36676 0.99952 0.0
H1667 H 0.64183 0.43001 0.02303 0.0
H1668 H 0.58752 0.46821 0.00196 0.0
H1669 H 0.58009 0.48974 0.98609 0.0
H1670 H 0.67356 0.56571 0.9878 0.0
H1671 H 0.68147 0.54447 0.00365 0.0
C1672 C 0.62898 0.51077 0.05822 0.0
C1673 C 0.65226 0.54145 0.06012 0.0
C1674 C 0.62752 0.49687 0.04892 0.0
C1675 C 0.64952 0.51304 0.04132 0.0
C1676 C 0.67259 0.54386 0.04307 0.0
C1677 C 0.67399 0.55796 0.05242 0.0
C1678 C 0.64844 0.49699 0.03172 0.0
C1679 C 0.64518 0.50869 0.02242 0.0
C1680 C 0.64781 0.46855 0.03187 0.0
C1681 C 0.65392 0.45626 0.04127 0.0
C1682 C 0.68091 0.47455 0.04695 0.0
C1683 C 0.68647 0.46297 0.05583 0.0
C1684 C 0.6653 0.43305 0.05908 0.0
C1685 C 0.63856 0.41462 0.05345 0.0
C1686 C 0.63287 0.42609 0.04457 0.0
C1687 C 0.65806 0.43348 0.99035 0.0
C1688 C 0.63819 0.40159 0.9917 0.0
C1689 C 0.65562 0.45443 0.99677 0.0
C1690 C 0.63294 0.44359 0.00444 0.0
C1691 C 0.61016 0.41213 0.00461 0.0
C1692 C 0.61287 0.39125 0.99833 0.0
C1693 C 0.63749 0.46264 0.01362 0.0
C1694 C 0.64201 0.45168 0.02287 0.0
C1695 C 0.63975 0.49182 0.01336 0.0
C1696 C 0.63518 0.50456 0.00386 0.0
C1697 C 0.60653 0.48935 0.99888 0.0
C1698 C 0.6022 0.50155 0.98992 0.0
C1699 C 0.62639 0.52899 0.98591 0.0
C1700 C 0.65488 0.5444 0.99089 0.0
C1701 C 0.65927 0.53233 0.99987 0.0
H1702 H 0.62302 0.53837 0.97897 0.0
H1703 H 0.66965 0.42413 0.06596 0.0
H1704 H 0.5473 0.84813 0.89708 0.0
H1705 H 0.52552 0.81675 0.88191 0.0
H1706 H 0.56012 0.89922 0.86376 0.0
H1707 H 0.58116 0.93089 0.87906 0.0
H1708 H 0.50433 0.85896 0.85785 0.0
H1709 H 0.59539 0.8545 0.8635 0.0
H1710 H 0.63341 0.84757 0.8732 0.0
H1711 H 0.56457 0.75313 0.87914 0.0
H1712 H 0.52599 0.75959 0.86961 0.0
H1713 H 0.45744 0.76143 0.81409 0.0
H1714 H 0.49655 0.79912 0.82577 0.0
H1715 H 0.45278 0.73577 0.85066 0.0
H1716 H 0.4133 0.6987 0.83913 0.0
H1717 H 0.52158 0.77181 0.85078 0.0
H1718 H 0.42956 0.78179 0.8477 0.0
H1719 H 0.39238 0.78869 0.83748 0.0
H1720 H 0.46649 0.87433 0.82585 0.0
H1721 H 0.50419 0.86771 0.83593 0.0
C1722 C 0.55027 0.85964 0.88987 0.0
C1723 C 0.56605 0.892 0.88926 0.0
C1724 C 0.53801 0.84165 0.88117 0.0
C1725 C 0.54179 0.85558 0.87163 0.0
C1726 C 0.55709 0.88793 0.87102 0.0
C1727 C 0.56909 0.90599 0.87977 0.0
C1728 C 0.52901 0.83613 0.8624 0.0
C1729 C 0.50875 0.8404 0.85619 0.0
C1730 C 0.53455 0.81171 0.86019 0.0
C1731 C 0.55773 0.8076 0.86588 0.0
C1732 C 0.5883 0.8323 0.86693 0.0
C1733 C 0.60996 0.82845 0.87239 0.0
C1734 C 0.6014 0.79994 0.87679 0.0
C1735 C 0.57117 0.7752 0.87572 0.0
C1736 C 0.5494 0.77893 0.87028 0.0
C1737 C 0.45681 0.75528 0.82199 0.0
C1738 C 0.43243 0.72728 0.82575 0.0
C1739 C 0.47902 0.7768 0.82865 0.0
C1740 C 0.47737 0.77019 0.83907 0.0
C1741 C 0.45448 0.74122 0.84264 0.0
C1742 C 0.43195 0.7201 0.83606 0.0
C1743 C 0.4967 0.79444 0.84649 0.0
C1744 C 0.51796 0.79094 0.85235 0.0
C1745 C 0.49239 0.81973 0.84832 0.0
C1746 C 0.4697 0.82409 0.84247 0.0
C1747 C 0.43794 0.80198 0.84291 0.0
C1748 C 0.41678 0.80584 0.83715 0.0
C1749 C 0.42709 0.83186 0.83099 0.0
C1750 C 0.45856 0.85416 0.83062 0.0
C1751 C 0.47983 0.85038 0.83635 0.0
H1752 H 0.41067 0.83476 0.82652 0.0
H1753 H 0.6182 0.79701 0.88102 0.0
H1754 H 0.11587 0.65053 0.87694 0.0
H1755 H 0.14815 0.65897 0.86191 0.0
H1756 H 0.21485 0.74965 0.87286 0.0
H1757 H 0.1828 0.74143 0.88788 0.0
H1758 H 0.2062 0.7478 0.85153 0.0
H1759 H 0.22661 0.69359 0.87809 0.0
H1760 H 0.21185 0.65142 0.8904 0.0
H1761 H 0.17682 0.58511 0.86621 0.0
H1762 H 0.19099 0.6269 0.85377 0.0
H1763 H 0.34641 0.73265 0.83622 0.0
H1764 H 0.30902 0.73568 0.84733 0.0
H1765 H 0.24446 0.7085 0.82254 0.0
H1766 H 0.28178 0.70466 0.81136 0.0
H1767 H 0.24913 0.67808 0.84965 0.0
H1768 H 0.20277 0.74858 0.83028 0.0
H1769 H 0.22105 0.79255 0.81845 0.0
H1770 H 0.31395 0.82955 0.82932 0.0
H1771 H 0.29619 0.78609 0.84121 0.0
C1772 C 0.13725 0.67238 0.87609 0.0
C1773 C 0.14704 0.69515 0.88366 0.0
C1774 C 0.15557 0.67721 0.86749 0.0
C1775 C 0.1839 0.70489 0.86631 0.0
C1776 C 0.19299 0.7282 0.87361 0.0
C1777 C 0.1748 0.72333 0.88224 0.0
C1778 C 0.20566 0.70828 0.85811 0.0
C1779 C 0.21538 0.73241 0.85104 0.0
C1780 C 0.21788 0.6884 0.85756 0.0
C1781 C 0.2095 0.6633 0.86502 0.0
C1782 C 0.21552 0.66999 0.87541 0.0
C1783 C 0.20731 0.64617 0.88241 0.0
C1784 C 0.19332 0.61559 0.87909 0.0
C1785 C 0.1876 0.60879 0.86877 0.0
C1786 C 0.19572 0.63253 0.86174 0.0
C1787 C 0.32458 0.72813 0.83306 0.0
C1788 C 0.31688 0.71831 0.82296 0.0
C1789 C 0.30328 0.72984 0.83941 0.0
C1790 C 0.274 0.72204 0.83576 0.0
C1791 C 0.26708 0.71472 0.82545 0.0
C1792 C 0.28847 0.71281 0.81907 0.0
C1793 C 0.24973 0.71759 0.84309 0.0
C1794 C 0.23951 0.69314 0.85 0.0
C1795 C 0.23746 0.73736 0.84354 0.0
C1796 C 0.2482 0.76389 0.83654 0.0
C1797 C 0.22708 0.76616 0.83014 0.0
C1798 C 0.23736 0.79099 0.82342 0.0
C1799 C 0.26868 0.81377 0.82308 0.0
C1800 C 0.28975 0.81184 0.8295 0.0
C1801 C 0.2796 0.78707 0.83623 0.0
H1802 H 0.2766 0.83296 0.81786 0.0
H1803 H 0.18698 0.59718 0.88452 0.0
H1804 H 0.30723 0.50298 0.90179 0.0
H1805 H 0.30534 0.52512 0.88559 0.0
H1806 H 0.36002 0.49067 0.87177 0.0
H1807 H 0.36255 0.46878 0.88813 0.0
H1808 H 0.37798 0.54724 0.86491 0.0
H1809 H 0.28229 0.45401 0.86789 0.0
H1810 H 0.23411 0.41453 0.8761 0.0
H1811 H 0.2019 0.47887 0.87791 0.0
H1812 H 0.25024 0.51903 0.86991 0.0
H1813 H 0.34188 0.58832 0.8168 0.0
H1814 H 0.33864 0.55174 0.82982 0.0
H1815 H 0.30536 0.59259 0.8515 0.0
H1816 H 0.30939 0.62955 0.83867 0.0
H1817 H 0.2754 0.52467 0.85225 0.0
H1818 H 0.37716 0.61939 0.85185 0.0
H1819 H 0.42561 0.65754 0.84336 0.0
H1820 H 0.4449 0.58597 0.83567 0.0
H1821 H 0.3964 0.54733 0.84406 0.0
C1822 C 0.31906 0.50021 0.89535 0.0
C1823 C 0.33486 0.48387 0.89627 0.0
C1824 C 0.31778 0.51275 0.88605 0.0
C1825 C 0.33187 0.50892 0.87738 0.0
C1826 C 0.34873 0.49369 0.87833 0.0
C1827 C 0.35021 0.48124 0.88769 0.0
C1828 C 0.32867 0.52086 0.8674 0.0
C1829 C 0.35549 0.54173 0.86204 0.0
C1830 C 0.29933 0.51375 0.8636 0.0
C1831 C 0.27003 0.48962 0.86835 0.0
C1832 C 0.26504 0.45984 0.8701 0.0
C1833 C 0.23768 0.43731 0.87471 0.0
C1834 C 0.21494 0.44417 0.87752 0.0
C1835 C 0.21953 0.47359 0.87572 0.0
C1836 C 0.24692 0.49625 0.87115 0.0
C1837 C 0.33305 0.58884 0.82426 0.0
C1838 C 0.32594 0.61172 0.82676 0.0
C1839 C 0.33138 0.56811 0.8317 0.0
C1840 C 0.32196 0.56966 0.84163 0.0
C1841 C 0.31264 0.591 0.84388 0.0
C1842 C 0.31496 0.61208 0.83655 0.0
C1843 C 0.32466 0.55147 0.84999 0.0
C1844 C 0.29776 0.52953 0.85504 0.0
C1845 C 0.35383 0.55722 0.85342 0.0
C1846 C 0.38303 0.58045 0.84846 0.0
C1847 C 0.39161 0.61176 0.84827 0.0
C1848 C 0.41909 0.63348 0.8435 0.0
C1849 C 0.43823 0.62417 0.83894 0.0
C1850 C 0.43001 0.59313 0.83918 0.0
C1851 C 0.40256 0.57133 0.84396 0.0
H1852 H 0.45948 0.64102 0.83524 0.0
H1853 H 0.19376 0.42668 0.88109 0.0
H1854 H 0.51211 0.91582 0.9419 0.0
H1855 H 0.48906 0.89446 0.95841 0.0
H1856 H 0.56071 0.87308 0.96425 0.0
H1857 H 0.58419 0.89467 0.94769 0.0
H1858 H 0.50207 0.82393 0.96763 0.0
H1859 H 0.56122 0.92919 0.97749 0.0
H1860 H 0.58138 0.98514 0.97627 0.0
H1861 H 0.48942 0.96967 0.97987 0.0
H1862 H 0.4686 0.91357 0.98094 0.0
H1863 H 0.43413 0.795 0.02115 0.0
H1864 H 0.47368 0.83319 0.00951 0.0
H1865 H 0.40884 0.79545 0.98478 0.0
H1866 H 0.36975 0.75766 0.99622 0.0
H1867 H 0.47531 0.87823 0.99365 0.0
H1868 H 0.44489 0.77634 0.96695 0.0
H1869 H 0.42275 0.72002 0.96803 0.0
H1870 H 0.45872 0.72971 0.99819 0.0
H1871 H 0.48154 0.78608 0.99721 0.0
C1872 C 0.52309 0.90668 0.94669 0.0
C1873 C 0.54992 0.9068 0.94344 0.0
C1874 C 0.51003 0.89475 0.95618 0.0
C1875 C 0.52339 0.88255 0.96261 0.0
C1876 C 0.55019 0.88262 0.95942 0.0
C1877 C 0.56352 0.89489 0.94996 0.0
C1878 C 0.50781 0.86759 0.97228 0.0
C1879 C 0.49668 0.83595 0.97339 0.0
C1880 C 0.50092 0.88334 0.97983 0.0
C1881 C 0.51332 0.91711 0.97924 0.0
C1882 C 0.54525 0.93768 0.97795 0.0
C1883 C 0.55681 0.96944 0.97729 0.0
C1884 C 0.53669 0.98095 0.97798 0.0
C1885 C 0.50497 0.96072 0.97934 0.0
C1886 C 0.49329 0.92894 0.97999 0.0
C1887 C 0.42819 0.79557 0.01329 0.0
C1888 C 0.39918 0.77313 0.00951 0.0
C1889 C 0.45071 0.8173 0.00667 0.0
C1890 C 0.44423 0.81668 0.99627 0.0
C1891 C 0.41437 0.79602 0.99275 0.0
C1892 C 0.39212 0.77441 0.99929 0.0
C1893 C 0.46898 0.83458 0.98876 0.0
C1894 C 0.48153 0.86655 0.98801 0.0
C1895 C 0.47732 0.81923 0.98151 0.0
C1896 C 0.46479 0.78543 0.98202 0.0
C1897 C 0.44831 0.76647 0.97378 0.0
C1898 C 0.43559 0.73452 0.97438 0.0
C1899 C 0.43926 0.72127 0.98317 0.0
C1900 C 0.45581 0.73995 0.99138 0.0
C1901 C 0.46865 0.77192 0.99081 0.0
H1902 H 0.42931 0.69652 0.98361 0.0
H1903 H 0.54568 0.00555 0.97747 0.0
H1904 H 0.12399 0.68907 0.94574 0.0
H1905 H 0.14532 0.68688 0.96222 0.0
H1906 H 0.20144 0.65554 0.94748 0.0
H1907 H 0.17973 0.65689 0.93112 0.0
H1908 H 0.17322 0.62038 0.96315 0.0
H1909 H 0.23126 0.73063 0.95696 0.0
H1910 H 0.2374 0.78168 0.95357 0.0
H1911 H 0.18829 0.7753 0.98108 0.0
H1912 H 0.18154 0.724 0.98456 0.0
H1913 H 0.30262 0.66103 0.9934 0.0
H1914 H 0.2641 0.65508 0.98096 0.0
H1915 H 0.21158 0.66784 0.00449 0.0
H1916 H 0.25019 0.6733 0.01713 0.0
H1917 H 0.22707 0.70811 0.98704 0.0
H1918 H 0.1787 0.60093 0.99441 0.0
H1919 H 0.17646 0.55155 0.99761 0.0
H1920 H 0.21069 0.55343 0.96755 0.0
H1921 H 0.2136 0.60307 0.96421 0.0
C1922 C 0.14124 0.68218 0.94601 0.0
C1923 C 0.15012 0.67308 0.93713 0.0
C1924 C 0.15337 0.68088 0.95544 0.0
C1925 C 0.17495 0.67095 0.95611 0.0
C1926 C 0.18459 0.66295 0.94719 0.0
C1927 C 0.17228 0.66392 0.93782 0.0
C1928 C 0.18709 0.66788 0.96605 0.0
C1929 C 0.18507 0.63963 0.96835 0.0
C1930 C 0.20153 0.69257 0.97305 0.0
C1931 C 0.20554 0.72334 0.97095 0.0
C1932 C 0.22154 0.74001 0.96223 0.0
C1933 C 0.22518 0.769 0.96031 0.0
C1934 C 0.21314 0.78168 0.96709 0.0
C1935 C 0.19753 0.76542 0.97582 0.0
C1936 C 0.1938 0.73639 0.97778 0.0
C1937 C 0.28254 0.66191 0.99597 0.0
C1938 C 0.27935 0.66767 0.0062 0.0
C1939 C 0.26053 0.65847 0.98886 0.0
C1940 C 0.23502 0.66103 0.99181 0.0
C1941 C 0.23112 0.66575 0.00209 0.0
C1942 C 0.253 0.66865 0.00929 0.0
C1943 C 0.21419 0.66107 0.98388 0.0
C1944 C 0.21453 0.68868 0.98195 0.0
C1945 C 0.1985 0.63592 0.97716 0.0
C1946 C 0.19648 0.60584 0.97908 0.0
C1947 C 0.18594 0.59093 0.9885 0.0
C1948 C 0.18452 0.56286 0.99034 0.0
C1949 C 0.19345 0.54937 0.9828 0.0
C1950 C 0.20375 0.5639 0.97339 0.0
C1951 C 0.20524 0.59198 0.97151 0.0
H1952 H 0.19235 0.52766 0.98424 0.0
H1953 H 0.216 0.80413 0.96558 0.0
H1954 H 0.32447 0.44036 0.95874 0.0
H1955 H 0.33483 0.46757 0.97498 0.0
H1956 H 0.40852 0.54986 0.96101 0.0
H1957 H 0.39875 0.52267 0.94485 0.0
H1958 H 0.42535 0.54232 0.97954 0.0
H1959 H 0.3353 0.53901 0.9646 0.0
H1960 H 0.28235 0.51342 0.95766 0.0
H1961 H 0.24646 0.46418 0.98567 0.0
H1962 H 0.2993 0.48924 0.99272 0.0
H1963 H 0.43166 0.67264 0.99971 0.0
H1964 H 0.433 0.62881 0.9927 0.0
H1965 H 0.35954 0.56805 0.01309 0.0
H1966 H 0.35715 0.6123 0.01975 0.0
H1967 H 0.34104 0.55334 0.99487 0.0
H1968 H 0.43247 0.56986 0.01094 0.0
H1969 H 0.48588 0.599 0.01748 0.0
H1970 H 0.52053 0.62684 0.98717 0.0
H1971 H 0.46737 0.59825 0.98048 0.0
C1972 C 0.34292 0.46424 0.95914 0.0
C1973 C 0.3606 0.47946 0.95048 0.0
C1974 C 0.34884 0.47975 0.96843 0.0
C1975 C 0.37232 0.51085 0.96921 0.0
C1976 C 0.39038 0.52584 0.96062 0.0
C1977 C 0.3846 0.51033 0.95136 0.0
C1978 C 0.37716 0.52853 0.97875 0.0
C1979 C 0.407 0.54482 0.98293 0.0
C1980 C 0.35294 0.53086 0.98339 0.0
C1981 C 0.32125 0.51563 0.97913 0.0
C1982 C 0.31613 0.52251 0.96924 0.0
C1983 C 0.28615 0.50815 0.96529 0.0
C1984 C 0.26107 0.4871 0.97121 0.0
C1985 C 0.26592 0.48042 0.98109 0.0
C1986 C 0.29587 0.49469 0.98506 0.0
C1987 C 0.41671 0.65012 0.00301 0.0
C1988 C 0.39386 0.64578 0.01008 0.0
C1989 C 0.41764 0.6249 0.99904 0.0
C1990 C 0.39608 0.59482 0.00225 0.0
C1991 C 0.37622 0.59097 0.01041 0.0
C1992 C 0.37505 0.61633 0.0143 0.0
C1993 C 0.38969 0.56833 0.99555 0.0
C1994 C 0.35941 0.55026 0.99181 0.0
C1995 C 0.41365 0.56472 0.99127 0.0
C1996 C 0.44582 0.58188 0.99523 0.0
C1997 C 0.45145 0.58234 0.00569 0.0
C1998 C 0.48169 0.59875 0.00942 0.0
C1999 C 0.50656 0.61478 0.00275 0.0
C2000 C 0.50124 0.61438 0.99233 0.0
C2001 C 0.47105 0.59799 0.98857 0.0
H2002 H 0.52994 0.62749 0.00564 0.0
H2003 H 0.23787 0.47603 0.96814 0.0
H2004 H 0.11569 0.43904 0.44904 0.0
H2005 H 0.13629 0.46218 0.46569 0.0
H2006 H 0.18337 0.55262 0.452 0.0
H2007 H 0.16313 0.52985 0.43544 0.0
H2008 H 0.21985 0.5457 0.46547 0.0
H2009 H 0.1148 0.52608 0.46387 0.0
H2010 H 0.05824 0.49315 0.46202 0.0
H2011 H 0.05486 0.44011 0.48802 0.0
H2012 H 0.11153 0.47249 0.48993 0.0
H2013 H 0.25121 0.65798 0.49833 0.0
H2014 H 0.21099 0.61789 0.48783 0.0
H2015 H 0.20819 0.54806 0.50746 0.0
H2016 H 0.24833 0.58834 0.51814 0.0
H2017 H 0.14769 0.53657 0.49301 0.0
H2018 H 0.25533 0.55695 0.49382 0.0
H2019 H 0.31127 0.59377 0.49572 0.0
H2020 H 0.30841 0.6476 0.47093 0.0
H2021 H 0.25231 0.61127 0.469 0.0
C2022 C 0.13085 0.4638 0.44957 0.0
C2023 C 0.13771 0.48263 0.44092 0.0
C2024 C 0.14237 0.47699 0.45909 0.0
C2025 C 0.16105 0.50914 0.46009 0.0
C2026 C 0.16894 0.52776 0.4514 0.0
C2027 C 0.15731 0.51469 0.44194 0.0
C2028 C 0.17206 0.52395 0.47014 0.0
C2029 C 0.204 0.54338 0.4715 0.0
C2030 C 0.15146 0.52079 0.47809 0.0
C2031 C 0.11743 0.50143 0.47696 0.0
C2032 C 0.10203 0.50722 0.46914 0.0
C2033 C 0.06995 0.48869 0.46809 0.0
C2034 C 0.05298 0.46448 0.47488 0.0
C2035 C 0.06805 0.45882 0.48275 0.0
C2036 C 0.10014 0.47725 0.48382 0.0
C2037 C 0.24061 0.63417 0.50078 0.0
C2038 C 0.25314 0.62613 0.50891 0.0
C2039 C 0.21762 0.61125 0.49477 0.0
C2040 C 0.20715 0.5801 0.49678 0.0
C2041 C 0.216 0.57202 0.50582 0.0
C2042 C 0.2389 0.59508 0.51193 0.0
C2043 C 0.19523 0.5582 0.4882 0.0
C2044 C 0.16338 0.53786 0.48708 0.0
C2045 C 0.2158 0.56038 0.48043 0.0
C2046 C 0.24969 0.58153 0.48131 0.0
C2047 C 0.26665 0.5767 0.4888 0.0
C2048 C 0.29836 0.59748 0.48989 0.0
C2049 C 0.31338 0.62304 0.48346 0.0
C2050 C 0.29674 0.62779 0.47591 0.0
C2051 C 0.26501 0.6071 0.4748 0.0
H2052 H 0.33791 0.63916 0.48433 0.0
H2053 H 0.02814 0.45017 0.47405 0.0
H2054 H 0.51645 0.62846 0.43962 0.0
H2055 H 0.48504 0.61452 0.45503 0.0
H2056 H 0.55584 0.69671 0.46979 0.0
H2057 H 0.58786 0.71049 0.45442 0.0
H2058 H 0.53188 0.64832 0.48274 0.0
H2059 H 0.49165 0.694 0.46016 0.0
H2060 H 0.47096 0.70112 0.4441 0.0
H2061 H 0.39404 0.60834 0.44602 0.0
H2062 H 0.41452 0.60053 0.46204 0.0
H2063 H 0.4344 0.66906 0.51795 0.0
H2064 H 0.47252 0.66577 0.50728 0.0
H2065 H 0.39925 0.58474 0.49273 0.0
H2066 H 0.36116 0.58895 0.50311 0.0
H2067 H 0.42539 0.63036 0.47992 0.0
H2068 H 0.46946 0.58343 0.5017 0.0
H2069 H 0.49097 0.57705 0.51774 0.0
H2070 H 0.55975 0.67351 0.51759 0.0
H2071 H 0.53862 0.68032 0.50154 0.0
C2072 C 0.52538 0.64362 0.44614 0.0
C2073 C 0.55453 0.67076 0.44576 0.0
C2074 C 0.50738 0.6356 0.45495 0.0
C2075 C 0.51789 0.65475 0.46354 0.0
C2076 C 0.54725 0.68157 0.46326 0.0
C2077 C 0.56542 0.68952 0.45445 0.0
C2078 C 0.49765 0.64727 0.47263 0.0
C2079 C 0.50864 0.64458 0.48215 0.0
C2080 C 0.46718 0.64194 0.47187 0.0
C2081 C 0.4548 0.64658 0.46224 0.0
C2082 C 0.47046 0.67504 0.45712 0.0
C2083 C 0.45875 0.67921 0.44803 0.0
C2084 C 0.43125 0.65517 0.44403 0.0
C2085 C 0.41537 0.62693 0.44912 0.0
C2086 C 0.427 0.62262 0.45821 0.0
C2087 C 0.42665 0.64942 0.51294 0.0
C2088 C 0.39489 0.62942 0.51127 0.0
C2089 C 0.44852 0.64759 0.50677 0.0
C2090 C 0.4388 0.62532 0.49903 0.0
C2091 C 0.40734 0.60236 0.49856 0.0
C2092 C 0.38553 0.60454 0.50458 0.0
C2093 C 0.45917 0.63057 0.49008 0.0
C2094 C 0.44836 0.63341 0.48054 0.0
C2095 C 0.48975 0.63622 0.49086 0.0
C2096 C 0.50221 0.63242 0.50054 0.0
C2097 C 0.48904 0.60327 0.50514 0.0
C2098 C 0.50123 0.59956 0.51421 0.0
C2099 C 0.52661 0.62489 0.51871 0.0
C2100 C 0.54001 0.65393 0.51412 0.0
C2101 C 0.528 0.6577 0.50503 0.0
H2102 H 0.53596 0.622 0.52574 0.0
H2103 H 0.42222 0.65844 0.43699 0.0
H2104 H 0.32647 0.90846 0.46046 0.0
H2105 H 0.33827 0.88864 0.47578 0.0
H2106 H 0.39336 0.86232 0.45789 0.0
H2107 H 0.38209 0.88237 0.44262 0.0
H2108 H 0.34954 0.81525 0.47056 0.0
H2109 H 0.4291 0.92247 0.47215 0.0
H2110 H 0.44938 0.97853 0.4727 0.0
H2111 H 0.39926 0.96774 0.50035 0.0
H2112 H 0.37827 0.9115 0.49987 0.0
H2113 H 0.42804 0.7758 0.50152 0.0
H2114 H 0.42978 0.81928 0.49275 0.0
H2115 H 0.35817 0.81324 0.51247 0.0
H2116 H 0.3567 0.76984 0.52142 0.0
H2117 H 0.40783 0.87849 0.50036 0.0
H2118 H 0.32229 0.77056 0.49716 0.0
H2119 H 0.30373 0.71477 0.49704 0.0
H2120 H 0.36615 0.72796 0.47259 0.0
H2121 H 0.38534 0.78397 0.47267 0.0
C2122 C 0.34109 0.89843 0.4598 0.0
C2123 C 0.35325 0.89684 0.45033 0.0
C2124 C 0.34796 0.88734 0.46856 0.0
C2125 C 0.36682 0.8742 0.46796 0.0
C2126 C 0.37882 0.87246 0.45851 0.0
C2127 C 0.37234 0.8839 0.4498 0.0
C2128 C 0.37303 0.8609 0.47705 0.0
C2129 C 0.36233 0.82918 0.47704 0.0
C2130 C 0.3892 0.87893 0.48561 0.0
C2131 C 0.40177 0.91271 0.4859 0.0
C2132 C 0.42212 0.93199 0.47828 0.0
C2133 C 0.43381 0.96382 0.4786 0.0
C2134 C 0.42553 0.97668 0.48653 0.0
C2135 C 0.4056 0.95774 0.49419 0.0
C2136 C 0.39381 0.92589 0.49391 0.0
C2137 C 0.41405 0.78496 0.5044 0.0
C2138 C 0.39174 0.7691 0.51197 0.0
C2139 C 0.41508 0.80986 0.49939 0.0
C2140 C 0.3936 0.81892 0.50183 0.0
C2141 C 0.3749 0.8065 0.51048 0.0
C2142 C 0.37409 0.78168 0.5156 0.0
C2143 C 0.38451 0.83311 0.49374 0.0
C2144 C 0.39467 0.86471 0.49392 0.0
C2145 C 0.36756 0.81508 0.48532 0.0
C2146 C 0.35535 0.78137 0.48497 0.0
C2147 C 0.3321 0.76153 0.49179 0.0
C2148 C 0.32148 0.7299 0.49173 0.0
C2149 C 0.3338 0.71783 0.48482 0.0
C2150 C 0.35665 0.73735 0.47793 0.0
C2151 C 0.36738 0.76903 0.47798 0.0
H2152 H 0.32563 0.69336 0.48481 0.0
H2153 H 0.43462 0.00132 0.48677 0.0
H2154 H 0.16182 0.43532 0.38915 0.0
H2155 H 0.18881 0.45224 0.37286 0.0
H2156 H 0.13292 0.49199 0.36498 0.0
H2157 H 0.10492 0.47384 0.38106 0.0
H2158 H 0.14198 0.46751 0.34872 0.0
H2159 H 0.20777 0.53527 0.37545 0.0
H2160 H 0.23683 0.54761 0.39151 0.0
H2161 H 0.29024 0.5093 0.37984 0.0
H2162 H 0.26122 0.49642 0.36375 0.0
H2163 H 0.23925 0.60863 0.32483 0.0
H2164 H 0.20294 0.56072 0.33344 0.0
H2165 H 0.26836 0.52931 0.33079 0.0
H2166 H 0.30468 0.5774 0.32199 0.0
H2167 H 0.25574 0.5374 0.35041 0.0
H2168 H 0.19711 0.48396 0.32162 0.0
H2169 H 0.16902 0.47648 0.30558 0.0
H2170 H 0.10284 0.49262 0.32093 0.0
H2171 H 0.13078 0.5007 0.33703 0.0
C2172 C 0.15523 0.44758 0.38392 0.0
C2173 C 0.13158 0.45367 0.38642 0.0
C2174 C 0.17064 0.4572 0.37461 0.0
C2175 C 0.16327 0.47385 0.36775 0.0
C2176 C 0.13901 0.47915 0.37013 0.0
C2177 C 0.12318 0.46899 0.37935 0.0
C2178 C 0.18202 0.48761 0.35842 0.0
C2179 C 0.16686 0.48283 0.34907 0.0
C2180 C 0.21463 0.50679 0.3588 0.0
C2181 C 0.23207 0.51452 0.36846 0.0
C2182 C 0.22556 0.52928 0.37635 0.0
C2183 C 0.24204 0.5364 0.38544 0.0
C2184 C 0.26529 0.52913 0.38671 0.0
C2185 C 0.27217 0.51483 0.37886 0.0
C2186 C 0.25572 0.50762 0.36975 0.0
C2187 C 0.24514 0.59077 0.32562 0.0
C2188 C 0.2745 0.5964 0.32273 0.0
C2189 C 0.2244 0.56337 0.33052 0.0
C2190 C 0.23295 0.54144 0.33277 0.0
C2191 C 0.26125 0.54586 0.32906 0.0
C2192 C 0.28187 0.57317 0.32398 0.0
C2193 C 0.21561 0.51824 0.34076 0.0
C2194 C 0.231 0.5213 0.34994 0.0
C2195 C 0.18324 0.49802 0.34022 0.0
C2196 C 0.16615 0.49302 0.33055 0.0
C2197 C 0.17669 0.48612 0.32157 0.0
C2198 C 0.16076 0.48174 0.31247 0.0
C2199 C 0.13417 0.48409 0.31224 0.0
C2200 C 0.12343 0.49078 0.32112 0.0
C2201 C 0.13927 0.4952 0.33025 0.0
H2202 H 0.12188 0.4807 0.30518 0.0
H2203 H 0.27803 0.53467 0.39376 0.0
H2204 H 0.55899 0.66467 0.3868 0.0
H2205 H 0.53913 0.66771 0.37015 0.0
H2206 H 0.55912 0.76 0.37698 0.0
H2207 H 0.57768 0.7566 0.3937 0.0
H2208 H 0.5058 0.73101 0.36927 0.0
H2209 H 0.60297 0.74331 0.35941 0.0
H2210 H 0.64451 0.73079 0.35847 0.0
H2211 H 0.58252 0.64472 0.34392 0.0
H2212 H 0.54046 0.65653 0.3449 0.0
H2213 H 0.45337 0.74656 0.32262 0.0
H2214 H 0.49846 0.75806 0.33304 0.0
H2215 H 0.46716 0.66092 0.33472 0.0
H2216 H 0.42228 0.64947 0.3244 0.0
H2217 H 0.53335 0.70018 0.33689 0.0
H2218 H 0.43512 0.68543 0.35039 0.0
H2219 H 0.39413 0.69886 0.35074 0.0
H2220 H 0.46142 0.7926 0.35821 0.0
H2221 H 0.50289 0.77977 0.35772 0.0
C2222 C 0.55913 0.68558 0.38474 0.0
C2223 C 0.56971 0.71027 0.39162 0.0
C2224 C 0.54806 0.68745 0.37517 0.0
C2225 C 0.548 0.71431 0.3722 0.0
C2226 C 0.55885 0.73902 0.37905 0.0
C2227 C 0.56941 0.73699 0.38864 0.0
C2228 C 0.53498 0.71612 0.36224 0.0
C2229 C 0.51251 0.72495 0.36219 0.0
C2230 C 0.54325 0.7079 0.35293 0.0
C2231 C 0.56849 0.70071 0.3523 0.0
C2232 C 0.59813 0.72161 0.35607 0.0
C2233 C 0.62178 0.71466 0.35552 0.0
C2234 C 0.61614 0.68694 0.35116 0.0
C2235 C 0.58685 0.66616 0.34731 0.0
C2236 C 0.5631 0.673 0.34785 0.0
C2237 C 0.45714 0.72791 0.32472 0.0
C2238 C 0.43435 0.69714 0.32281 0.0
C2239 C 0.48279 0.73446 0.33072 0.0
C2240 C 0.48575 0.71024 0.33482 0.0
C2241 C 0.46531 0.67992 0.33166 0.0
C2242 C 0.43962 0.67339 0.32578 0.0
C2243 C 0.50451 0.71504 0.34405 0.0
C2244 C 0.52758 0.70707 0.34398 0.0
C2245 C 0.4971 0.7243 0.35327 0.0
C2246 C 0.47208 0.73174 0.35392 0.0
C2247 C 0.44115 0.70892 0.35207 0.0
C2248 C 0.41785 0.71642 0.35228 0.0
C2249 C 0.42517 0.74658 0.35447 0.0
C2250 C 0.4558 0.76926 0.3565 0.0
C2251 C 0.4792 0.7619 0.35625 0.0
H2252 H 0.40711 0.75237 0.35462 0.0
H2253 H 0.63449 0.6816 0.35074 0.0
H2254 H 0.27233 0.84612 0.39637 0.0
H2255 H 0.27107 0.82429 0.37975 0.0
H2256 H 0.36941 0.88658 0.37643 0.0
H2257 H 0.3705 0.90966 0.39296 0.0
H2258 H 0.34279 0.88025 0.35881 0.0
H2259 H 0.33743 0.80925 0.38423 0.0
H2260 H 0.31679 0.77583 0.39933 0.0
H2261 H 0.22883 0.72215 0.38466 0.0
H2262 H 0.24886 0.75551 0.36951 0.0
H2263 H 0.3857 0.78748 0.33055 0.0
H2264 H 0.37608 0.82113 0.34139 0.0
H2265 H 0.27776 0.76187 0.33707 0.0
H2266 H 0.28751 0.72827 0.326 0.0
H2267 H 0.29759 0.76682 0.35716 0.0
H2268 H 0.30973 0.83464 0.33013 0.0
H2269 H 0.33485 0.86732 0.31515 0.0
H2270 H 0.41509 0.92653 0.33291 0.0
H2271 H 0.39081 0.89387 0.34796 0.0
C2272 C 0.29374 0.85521 0.39211 0.0
C2273 C 0.32164 0.87929 0.39605 0.0
C2274 C 0.29297 0.84268 0.38259 0.0
C2275 C 0.32025 0.85326 0.3769 0.0
C2276 C 0.34805 0.87793 0.38068 0.0
C2277 C 0.34871 0.89098 0.39015 0.0
C2278 C 0.31992 0.83765 0.36725 0.0
C2279 C 0.33309 0.85547 0.35846 0.0
C2280 C 0.30661 0.8052 0.3667 0.0
C2281 C 0.29453 0.78509 0.37579 0.0
C2282 C 0.31362 0.79046 0.38425 0.0
C2283 C 0.30204 0.77151 0.39281 0.0
C2284 C 0.27148 0.74695 0.39296 0.0
C2285 C 0.25247 0.74123 0.38454 0.0
C2286 C 0.26392 0.76013 0.37596 0.0
C2287 C 0.36211 0.78244 0.33155 0.0
C2288 C 0.33732 0.75544 0.32745 0.0
C2289 C 0.35662 0.80168 0.33774 0.0
C2290 C 0.32621 0.79399 0.34005 0.0
C2291 C 0.30141 0.76828 0.33532 0.0
C2292 C 0.30697 0.74925 0.32894 0.0
C2293 C 0.32076 0.80939 0.34876 0.0
C2294 C 0.30667 0.79152 0.35743 0.0
C2295 C 0.33382 0.84177 0.34922 0.0
C2296 C 0.34846 0.86165 0.34018 0.0
C2297 C 0.33283 0.85448 0.33084 0.0
C2298 C 0.3469 0.87304 0.32233 0.0
C2299 C 0.37652 0.89897 0.32308 0.0
C2300 C 0.39213 0.90643 0.33234 0.0
C2301 C 0.37821 0.88792 0.34087 0.0
H2302 H 0.38736 0.9133 0.31648 0.0
H2303 H 0.26257 0.7323 0.3996 0.0
H2304 H 0.33083 0.06361 0.09907 0.0
H2305 H 0.2854 0.0526 0.10922 0.0
H2306 H 0.28069 0.12598 0.094 0.0
H2307 H 0.32622 0.13742 0.08393 0.0
H2308 H 0.27411 0.1286 0.11428 0.0
H2309 H 0.23136 0.0503 0.08806 0.0
H2310 H 0.2267 0.00661 0.07809 0.0
H2311 H 0.20611 0.95245 0.10525 0.0
H2312 H 0.21104 0.996 0.1154 0.0
H2313 H 0.11591 0.08646 0.11493 0.0
H2314 H 0.16911 0.09937 0.11135 0.0
H2315 H 0.16276 0.03692 0.13489 0.0
H2316 H 0.10966 0.0246 0.13873 0.0
H2317 H 0.17764 0.0263 0.11378 0.0
H2318 H 0.21245 0.10193 0.13962 0.0
H2319 H 0.21536 0.14503 0.14946 0.0
H2320 H 0.24919 0.20346 0.12317 0.0
H2321 H 0.2463 0.16062 0.11314 0.0
C2322 C 0.31995 0.07721 0.0978 0.0
C2323 C 0.33215 0.10135 0.09065 0.0
C2324 C 0.29403 0.07093 0.10364 0.0
C2325 C 0.27967 0.08849 0.10237 0.0
C2326 C 0.29154 0.11229 0.09515 0.0
C2327 C 0.31745 0.11863 0.08934 0.0
C2328 C 0.25211 0.08211 0.10848 0.0
C2329 C 0.25299 0.10626 0.11414 0.0
C2330 C 0.22489 0.05267 0.1086 0.0
C2331 C 0.22196 0.02652 0.1025 0.0
C2332 C 0.22611 0.02917 0.09192 0.0
C2333 C 0.22337 0.00441 0.08623 0.0
C2334 C 0.21622 0.97681 0.09103 0.0
C2335 C 0.21172 0.97387 0.10154 0.0
C2336 C 0.21447 -0.00143 0.10726 0.0
C2337 C 0.12621 0.07617 0.11952 0.0
C2338 C 0.10887 0.05462 0.1271 0.0
C2339 C 0.15652 0.08356 0.11749 0.0
C2340 C 0.1697 0.06901 0.12285 0.0
C2341 C 0.15291 0.04841 0.13071 0.0
C2342 C 0.12276 0.04156 0.13293 0.0
C2343 C 0.1995 0.07296 0.11933 0.0
C2344 C 0.19902 0.04841 0.11411 0.0
C2345 C 0.22701 0.10198 0.11962 0.0
C2346 C 0.22895 0.12796 0.1256 0.0
C2347 C 0.22028 0.12389 0.13591 0.0
C2348 C 0.22196 0.14829 0.14153 0.0
C2349 C 0.23231 0.17692 0.13693 0.0
C2350 C 0.24115 0.18125 0.12672 0.0
C2351 C 0.23958 0.15693 0.12107 0.0
H2352 H 0.23357 0.19578 0.14129 0.0
H2353 H 0.2141 0.95767 0.08662 0.0
H2354 H 0.92873 0.23999 0.08521 0.0
H2355 H 0.93092 0.19681 0.09286 0.0
H2356 H 0.00139 0.2596 0.11355 0.0
H2357 H -7e-05 0.30284 0.10578 0.0
H2358 H 0.01486 0.21854 0.10775 0.0
H2359 H 0.92468 0.21461 0.12106 0.0
H2360 H 0.875 0.21357 0.12066 0.0
H2361 H 0.83356 0.12818 0.10415 0.0
H2362 H 0.88314 0.12892 0.10434 0.0
H2363 H 0.0017 0.09936 0.13963 0.0
H2364 H 0.99347 0.14209 0.13525 0.0
H2365 H 0.93889 0.09078 0.10944 0.0
H2366 H 0.94719 0.04822 0.11374 0.0
H2367 H 0.91706 0.12729 0.11955 0.0
H2368 H 0.01174 0.13606 0.10566 0.0
H2369 H 0.06164 0.13797 0.10745 0.0
H2370 H 0.09468 0.21672 0.12705 0.0
H2371 H 0.04475 0.21496 0.12548 0.0
C2372 C 0.94503 0.24465 0.09128 0.0
C2373 C 0.96408 0.27486 0.09489 0.0
C2374 C 0.94605 0.2199 0.09572 0.0
C2375 C 0.96582 0.22482 0.10395 0.0
C2376 C 0.9858 0.25514 0.10727 0.0
C2377 C 0.98496 0.27988 0.10279 0.0
C2378 C 0.96544 0.1984 0.1092 0.0
C2379 C 0.99348 0.19886 0.11046 0.0
C2380 C 0.93761 0.17257 0.11276 0.0
C2381 C 0.90772 0.17198 0.11263 0.0
C2382 C 0.90504 0.19573 0.11727 0.0
C2383 C 0.87689 0.19517 0.1171 0.0
C2384 C 0.85116 0.17087 0.11236 0.0
C2385 C 0.85352 0.14702 0.10781 0.0
C2386 C 0.88164 0.14747 0.10795 0.0
C2387 C 0.98697 0.09674 0.13326 0.0
C2388 C 0.97505 0.07051 0.12702 0.0
C2389 C 0.9825 0.12125 0.13072 0.0
C2390 C 0.96586 0.11969 0.12195 0.0
C2391 C 0.95179 0.09244 0.11622 0.0
C2392 C 0.95658 0.06818 0.11868 0.0
C2393 C 0.96632 0.14749 0.11796 0.0
C2394 C 0.93836 0.14721 0.11692 0.0
C2395 C 0.99425 0.17376 0.11477 0.0
C2396 C 0.02444 0.17519 0.11553 0.0
C2397 C 0.02958 0.15366 0.1104 0.0
C2398 C 0.05787 0.15472 0.11137 0.0
C2399 C 0.08129 0.1774 0.11738 0.0
C2400 C 0.0765 0.19913 0.12241 0.0
C2401 C 0.04823 0.19813 0.12147 0.0
H2402 H 0.10316 0.17817 0.11813 0.0
H2403 H 0.82938 0.17047 0.11223 0.0
H2404 H 0.72348 0.70486 0.10845 0.0
H2405 H 0.7679 0.74995 0.1158 0.0
H2406 H 0.82445 0.75369 0.09044 0.0
H2407 H 0.78014 0.70747 0.08325 0.0
H2408 H 0.85522 0.76195 0.10694 0.0
H2409 H 0.7975 0.80626 0.09385 0.0
H2410 H 0.75185 0.81177 0.09126 0.0
H2411 H 0.74742 0.82549 0.12325 0.0
H2412 H 0.79283 0.81967 0.12605 0.0
H2413 H 0.97618 0.9179 0.11177 0.0
H2414 H 0.93327 0.86709 0.10726 0.0
H2415 H 0.88788 0.86292 0.13559 0.0
H2416 H 0.93085 0.91428 0.1401 0.0
H2417 H 0.85109 0.85326 0.11899 0.0
H2418 H 0.91623 0.81598 0.1309 0.0
H2419 H 0.96486 0.81512 0.13189 0.0
H2420 H 0.95767 0.79112 0.10037 0.0
H2421 H 0.90968 0.79307 0.09903 0.0
C2422 C 0.74524 0.71549 0.10434 0.0
C2423 C 0.74822 0.70267 0.09522 0.0
C2424 C 0.77069 0.74139 0.10856 0.0
C2425 C 0.79957 0.75558 0.10364 0.0
C2426 C 0.80246 0.74317 0.09441 0.0
C2427 C 0.77707 0.7169 0.09026 0.0
C2428 C 0.8269 0.78274 0.10828 0.0
C2429 C 0.85441 0.78207 0.10946 0.0
C2430 C 0.82572 0.80874 0.11183 0.0
C2431 C 0.79836 0.81219 0.11017 0.0
C2432 C 0.78664 0.8102 0.10034 0.0
C2433 C 0.76083 0.81343 0.09883 0.0
C2434 C 0.74669 0.81889 0.10709 0.0
C2435 C 0.75837 0.82121 0.11686 0.0
C2436 C 0.78415 0.81797 0.11842 0.0
C2437 C 0.95744 0.90586 0.11716 0.0
C2438 C 0.95689 0.92008 0.12629 0.0
C2439 C 0.93294 0.87674 0.11458 0.0
C2440 C 0.90736 0.86116 0.12109 0.0
C2441 C 0.90746 0.87455 0.13047 0.0
C2442 C 0.93216 0.90374 0.13309 0.0
C2443 C 0.87942 0.83257 0.11755 0.0
C2444 C 0.85178 0.83299 0.11656 0.0
C2445 C 0.88075 0.80668 0.11399 0.0
C2446 C 0.90935 0.80486 0.11485 0.0
C2447 C 0.9251 0.81075 0.12415 0.0
C2448 C 0.95256 0.81004 0.12478 0.0
C2449 C 0.96426 0.80293 0.11622 0.0
C2450 C 0.94856 0.79659 0.107 0.0
C2451 C 0.92125 0.79756 0.10629 0.0
H2452 H 0.9855 0.80235 0.11674 0.0
H2453 H 0.72672 0.82138 0.1059 0.0
H2454 H 0.02329 0.31479 0.39579 0.0
H2455 H 0.02291 0.27168 0.38714 0.0
H2456 H 0.09386 0.27892 0.40733 0.0
H2457 H 0.0949 0.32266 0.41588 0.0
H2458 H 0.10866 0.27535 0.38821 0.0
H2459 H 0.01765 0.21909 0.40899 0.0
H2460 H 0.96655 0.20553 0.41594 0.0
H2461 H 0.92771 0.18398 0.386 0.0
H2462 H 0.97871 0.19781 0.37885 0.0
H2463 H 0.0889 0.1253 0.38418 0.0
H2464 H 0.09465 0.17532 0.38834 0.0
H2465 H 0.03678 0.16682 0.36296 0.0
H2466 H 0.03147 0.11686 0.35862 0.0
H2467 H 0.01496 0.17304 0.38247 0.0
H2468 H 0.10555 0.22301 0.36216 0.0
H2469 H 0.15649 0.23463 0.35565 0.0
H2470 H 0.19623 0.26636 0.38514 0.0
H2471 H 0.14539 0.25442 0.39189 0.0
C2472 C 0.0384 0.30686 0.39853 0.0
C2473 C 0.05911 0.32215 0.40654 0.0
C2474 C 0.03819 0.28219 0.39356 0.0
C2475 C 0.05836 0.27202 0.39658 0.0
C2476 C 0.07822 0.28649 0.40483 0.0
C2477 C 0.07859 0.31131 0.40977 0.0
C2478 C 0.05958 0.24707 0.39092 0.0
C2479 C 0.08822 0.25286 0.38705 0.0
C2480 C 0.03274 0.21809 0.38908 0.0
C2481 C 0.00208 0.20983 0.39337 0.0
C2482 C -0.00173 0.21172 0.40388 0.0
C2483 C 0.96932 0.20393 0.40786 0.0
C2484 C 0.94392 0.19399 0.40142 0.0
C2485 C 0.94742 0.19174 0.39098 0.0
C2486 C 0.97634 0.19953 0.38696 0.0
C2487 C 0.07835 0.13464 0.37927 0.0
C2488 C 0.05972 0.11728 0.3711 0.0
C2489 C 0.08162 0.16318 0.38166 0.0
C2490 C 0.06596 0.1746 0.376 0.0
C2491 C 0.04903 0.15832 0.36741 0.0
C2492 C 0.04625 0.12996 0.36489 0.0
C2493 C 0.06407 0.20118 0.37995 0.0
C2494 C 0.03531 0.19568 0.38352 0.0
C2495 C 0.09082 0.23028 0.38157 0.0
C2496 C 0.12154 0.23762 0.37755 0.0
C2497 C 0.12507 0.23224 0.36728 0.0
C2498 C 0.15396 0.23892 0.36354 0.0
C2499 C 0.17957 0.2512 0.36998 0.0
C2500 C 0.17636 0.25685 0.38016 0.0
C2501 C 0.14751 0.25015 0.38395 0.0
H2502 H 0.20192 0.25637 0.36707 0.0
H2503 H 0.92152 0.18796 0.40451 0.0
H2504 H 0.70106 0.74924 0.39886 0.0
H2505 H 0.74576 0.78588 0.38875 0.0
H2506 H 0.7621 0.85875 0.40963 0.0
H2507 H 0.71697 0.82254 0.41957 0.0
H2508 H 0.76566 0.87836 0.39109 0.0
H2509 H 0.80754 0.82329 0.40874 0.0
H2510 H 0.80949 0.77721 0.41395 0.0
H2511 H 0.81629 0.75659 0.38275 0.0
H2512 H 0.81401 0.80238 0.37735 0.0
H2513 H 0.92334 0.99006 0.38639 0.0
H2514 H 0.87106 0.9495 0.39086 0.0
H2515 H 0.86829 0.89785 0.36432 0.0
H2516 H 0.92106 0.93859 0.35983 0.0
H2517 H 0.8537 0.86387 0.38225 0.0
H2518 H 0.82394 0.9281 0.36548 0.0
H2519 H 0.82726 0.97752 0.36148 0.0
H2520 H 0.79925 0.98292 0.39186 0.0
H2521 H 0.79735 0.93437 0.39624 0.0
C2522 C 0.71447 0.77297 0.40138 0.0
C2523 C 0.70548 0.78295 0.41004 0.0
C2524 C 0.74002 0.79393 0.39558 0.0
C2525 C 0.75741 0.82515 0.39842 0.0
C2526 C 0.74894 0.83488 0.40722 0.0
C2527 C 0.72324 0.81408 0.41295 0.0
C2528 C 0.78412 0.848 0.3922 0.0
C2529 C 0.78501 0.87528 0.38921 0.0
C2530 C 0.80888 0.84354 0.3894 0.0
C2531 C 0.81021 0.81602 0.39264 0.0
C2532 C 0.80919 0.80878 0.40299 0.0
C2533 C 0.81041 0.78275 0.40598 0.0
C2534 C 0.8129 0.76392 0.39868 0.0
C2535 C 0.81428 0.77115 0.38839 0.0
C2536 C 0.81305 0.79714 0.38536 0.0
C2537 C 0.91133 0.97042 0.38137 0.0
C2538 C 0.92619 0.96755 0.37274 0.0
C2539 C 0.88144 0.94726 0.38392 0.0
C2540 C 0.86576 0.92068 0.37792 0.0
C2541 C 0.88 0.91825 0.36904 0.0
C2542 C 0.90996 0.94167 0.36642 0.0
C2543 C 0.83571 0.89464 0.3815 0.0
C2544 C 0.83411 0.86672 0.38396 0.0
C2545 C 0.81048 0.89871 0.38392 0.0
C2546 C 0.81064 0.92752 0.38121 0.0
C2547 C 0.81872 0.93989 0.37135 0.0
C2548 C 0.82038 0.9678 0.36901 0.0
C2549 C 0.81326 0.98323 0.37639 0.0
C2550 C 0.80468 0.97089 0.38614 0.0
C2551 C 0.80342 0.94322 0.38857 0.0
H2552 H 0.81446 0.00477 0.37454 0.0
H2553 H 0.81385 0.74378 0.40101 0.0
H2554 H 0.2865 0.97307 0.40312 0.0
H2555 H 0.25287 0.98226 0.39207 0.0
H2556 H 0.17412 0.9219 0.4107 0.0
H2557 H 0.20737 0.91203 0.42161 0.0
H2558 H 0.16042 0.9085 0.3913 0.0
H2559 H 0.20958 0.00234 0.41139 0.0
H2560 H 0.25398 0.04989 0.41819 0.0
H2561 H 0.28352 0.08379 0.38791 0.0
H2562 H 0.23946 0.03624 0.38092 0.0
H2563 H 0.05078 0.95505 0.38646 0.0
H2564 H 0.09013 0.94211 0.39084 0.0
H2565 H 0.14542 0.99484 0.36522 0.0
H2566 H 0.10568 0.00765 0.36073 0.0
H2567 H 0.17625 0.01241 0.38423 0.0
H2568 H 0.11886 0.92206 0.36463 0.0
H2569 H 0.07195 0.8756 0.3585 0.0
H2570 H 0.05621 0.83514 0.38817 0.0
H2571 H 0.10248 0.88168 0.39459 0.0
C2572 C 0.2621 0.96211 0.40495 0.0
C2573 C 0.24964 0.94184 0.41327 0.0
C2574 C 0.24287 0.96733 0.39861 0.0
C2575 C 0.21092 0.95275 0.40054 0.0
C2576 C 0.19864 0.9332 0.409 0.0
C2577 C 0.21774 0.92777 0.41528 0.0
C2578 C 0.18996 0.95737 0.39376 0.0
C2579 C 0.16381 0.93121 0.38979 0.0
C2580 C 0.19501 0.98706 0.39144 0.0
C2581 C 0.22148 0.01559 0.39563 0.0
C2582 C 0.2257 0.01983 0.40618 0.0
C2583 C 0.25076 0.0468 0.41007 0.0
C2584 C 0.27162 0.0698 0.40349 0.0
C2585 C 0.26739 0.06592 0.393 0.0
C2586 C 0.24238 0.03898 0.38907 0.0
C2587 C 0.07094 0.96319 0.38161 0.0
C2588 C 0.07521 0.98223 0.37325 0.0
C2589 C 0.09337 0.95576 0.3841 0.0
C2590 C 0.12066 0.96753 0.37836 0.0
C2591 C 0.12444 0.98548 0.36972 0.0
C2592 C 0.10166 0.99254 0.36712 0.0
C2593 C 0.14617 0.9635 0.38213 0.0
C2594 C 0.17323 0.98973 0.38554 0.0
C2595 C 0.14182 0.93388 0.38399 0.0
C2596 C 0.1142 0.90551 0.38011 0.0
C2597 C 0.10533 0.90337 0.36988 0.0
C2598 C 0.07884 0.877 0.36635 0.0
C2599 C 0.06118 0.85244 0.37293 0.0
C2600 C 0.06995 0.85418 0.38307 0.0
C2601 C 0.09632 0.88057 0.38667 0.0
H2602 H 0.04069 0.83204 0.37018 0.0
H2603 H 0.29101 0.09067 0.40651 0.0
H2604 H 0.7337 0.00274 0.90879 0.0
H2605 H 0.77914 0.00287 0.90189 0.0
H2606 H 0.72552 0.90368 0.8988 0.0
H2607 H 0.68101 0.90346 0.90649 0.0
H2608 H 0.77696 0.91492 0.90345 0.0
H2609 H 0.7452 0.9586 0.87791 0.0
H2610 H 0.72958 0.99325 0.87018 0.0
H2611 H 0.81866 0.07161 0.87699 0.0
H2612 H 0.83468 0.03746 0.88489 0.0
H2613 H 0.91633 0.98135 0.86352 0.0
H2614 H 0.86294 0.96617 0.86778 0.0
H2615 H 0.88124 0.9582 0.89928 0.0
H2616 H 0.93325 0.97055 0.89492 0.0
H2617 H 0.84186 0.99333 0.87769 0.0
H2618 H 0.82053 0.91396 0.91309 0.0
H2619 H 0.8305 0.87258 0.91812 0.0
H2620 H 0.83725 0.85309 0.88679 0.0
H2621 H 0.82688 0.89402 0.88156 0.0
C2622 C 0.73187 0.98099 0.90676 0.0
C2623 C 0.70395 0.9531 0.9082 0.0
C2624 C 0.75771 0.98106 0.90268 0.0
C2625 C 0.75575 0.95335 0.8995 0.0
C2626 C 0.72788 0.92542 0.90115 0.0
C2627 C 0.70239 0.92528 0.90556 0.0
C2628 C 0.78269 0.95346 0.89456 0.0
C2629 C 0.79099 0.93199 0.89778 0.0
C2630 C 0.80051 0.97479 0.88681 0.0
C2631 C 0.79105 0.99547 0.88206 0.0
C2632 C 0.76139 0.98324 0.87782 0.0
C2633 C 0.75247 0.00279 0.8734 0.0
C2634 C 0.77309 0.03461 0.87312 0.0
C2635 C 0.8027 0.04695 0.87723 0.0
C2636 C 0.81173 0.02751 0.88166 0.0
C2637 C 0.90853 0.97493 0.87125 0.0
C2638 C 0.92902 0.97659 0.8788 0.0
C2639 C 0.87808 0.96678 0.87373 0.0
C2640 C 0.86766 0.96059 0.88386 0.0
C2641 C 0.88808 0.96186 0.89136 0.0
C2642 C 0.91812 0.9693 0.88886 0.0
C2643 C 0.83659 0.95541 0.88682 0.0
C2644 C 0.82754 0.97596 0.88325 0.0
C2645 C 0.81715 0.93215 0.89383 0.0
C2646 C 0.82312 0.90725 0.89694 0.0
C2647 C 0.82396 0.90073 0.90727 0.0
C2648 C 0.82972 0.87737 0.91016 0.0
C2649 C 0.83457 0.86027 0.90278 0.0
C2650 C 0.83359 0.86642 0.8925 0.0
C2651 C 0.82781 0.88973 0.88957 0.0
H2652 H 0.83906 0.84221 0.90504 0.0
H2653 H 0.76614 0.04971 0.8697 0.0
H2654 H 0.04526 0.73327 0.8908 0.0
H2655 H 0.04539 0.77883 0.88425 0.0
H2656 H 0.10105 0.83223 0.90959 0.0
H2657 H 0.10127 0.7868 0.91617 0.0
H2658 H 0.05219 0.84186 0.90533 0.0
H2659 H 0.13456 0.83908 0.88748 0.0
H2660 H 0.1578 0.81575 0.87682 0.0
H2661 H 0.09699 0.80559 0.85237 0.0
H2662 H 0.07309 0.82853 0.86292 0.0
H2663 H 0.09274 0.9883 0.88949 0.0
H2664 H 0.10144 0.94601 0.89365 0.0
H2665 H 0.05084 0.89678 0.86696 0.0
H2666 H 0.04259 0.93945 0.86264 0.0
H2667 H 0.09701 0.88446 0.87143 0.0
H2668 H 0.01303 0.88426 0.88892 0.0
H2669 H 0.98811 0.9066 0.89924 0.0
H2670 H 0.04927 0.92023 0.92398 0.0
H2671 H 0.0749 0.8984 0.91374 0.0
C2672 C 0.05721 0.75459 0.89506 0.0
C2673 C 0.07326 0.75642 0.90402 0.0
C2674 C 0.05748 0.78067 0.89125 0.0
C2675 C 0.07363 0.80899 0.89635 0.0
C2676 C 0.08861 0.81061 0.90551 0.0
C2677 C 0.08863 0.78462 0.90927 0.0
C2678 C 0.07487 0.83697 0.89217 0.0
C2679 C 0.06238 0.85141 0.89798 0.0
C2680 C 0.08733 0.84885 0.88243 0.0
C2681 C 0.10174 0.83514 0.87605 0.0
C2682 C 0.12592 0.8316 0.87987 0.0
C2683 C 0.13928 0.81853 0.87383 0.0
C2684 C 0.12882 0.80913 0.86393 0.0
C2685 C 0.10505 0.81287 0.86004 0.0
C2686 C 0.09159 0.82592 0.86604 0.0
C2687 C 0.0843 0.96888 0.88434 0.0
C2688 C 0.06674 0.96701 0.8758 0.0
C2689 C 0.08917 0.94468 0.88674 0.0
C2690 C 0.076 0.91786 0.88078 0.0
C2691 C 0.061 0.91716 0.87171 0.0
C2692 C 0.05642 0.94164 0.86922 0.0
C2693 C 0.07469 0.88952 0.88467 0.0
C2694 C 0.08693 0.87493 0.87878 0.0
C2695 C 0.06167 0.87718 0.8943 0.0
C2696 C 0.04607 0.88997 0.90053 0.0
C2697 C 0.0213 0.89221 0.89654 0.0
C2698 C 0.00704 0.90476 0.90237 0.0
C2699 C 0.01715 0.91489 0.91225 0.0
C2700 C 0.04149 0.91241 0.91632 0.0
C2701 C 0.05589 0.89993 0.91051 0.0
H2702 H 0.00608 0.92461 0.91676 0.0
H2703 H 0.13919 0.79901 0.85927 0.0
H2704 H 0.28679 0.34482 0.89988 0.0
H2705 H 0.25037 0.29854 0.89029 0.0
H2706 H 0.17823 0.28077 0.91183 0.0
H2707 H 0.2141 0.3271 0.9213 0.0
H2708 H 0.18597 0.22894 0.9071 0.0
H2709 H 0.17539 0.30938 0.89081 0.0
H2710 H 0.19419 0.35834 0.88158 0.0
H2711 H 0.22571 0.32456 0.85713 0.0
H2712 H 0.20741 0.27548 0.86629 0.0
H2713 H 0.04805 0.11659 0.88851 0.0
H2714 H 0.08672 0.16939 0.89305 0.0
H2715 H 0.14254 0.1742 0.86735 0.0
H2716 H 0.10316 0.12117 0.86261 0.0
H2717 H 0.14817 0.23264 0.87264 0.0
H2718 H 0.15697 0.1516 0.88819 0.0
H2719 H 0.13764 0.10202 0.89709 0.0
H2720 H 0.11162 0.13689 0.9227 0.0
H2721 H 0.1303 0.18653 0.91387 0.0
C2722 C 0.26322 0.3309 0.9026 0.0
C2723 C 0.25331 0.33953 0.91136 0.0
C2724 C 0.24243 0.30466 0.89707 0.0
C2725 C 0.2116 0.28644 0.90032 0.0
C2726 C 0.20191 0.29463 0.90918 0.0
C2727 C 0.22244 0.32107 0.91459 0.0
C2728 C 0.18935 0.2583 0.8947 0.0
C2729 C 0.17763 0.22978 0.89959 0.0
C2730 C 0.17922 0.25937 0.88477 0.0
C2731 C 0.19045 0.28894 0.87931 0.0
C2732 C 0.18667 0.31253 0.88353 0.0
C2733 C 0.19715 0.34027 0.87829 0.0
C2734 C 0.21127 0.34463 0.86879 0.0
C2735 C 0.21485 0.32119 0.8645 0.0
C2736 C 0.20441 0.2934 0.86971 0.0
C2737 C 0.06803 0.12929 0.88362 0.0
C2738 C 0.07284 0.11481 0.87529 0.0
C2739 C 0.09015 0.15941 0.88623 0.0
C2740 C 0.11785 0.17538 0.88069 0.0
C2741 C 0.12138 0.16216 0.87176 0.0
C2742 C 0.09887 0.13195 0.86904 0.0
C2743 C 0.1443 0.20345 0.88517 0.0
C2744 C 0.15686 0.23182 0.88009 0.0
C2745 C 0.15559 0.20233 0.89491 0.0
C2746 C 0.14483 0.17271 0.90033 0.0
C2747 C 0.14695 0.14863 0.89569 0.0
C2748 C 0.13612 0.12052 0.90073 0.0
C2749 C 0.12336 0.11629 0.91045 0.0
C2750 C 0.12149 0.1402 0.91516 0.0
C2751 C 0.13222 0.16834 0.91015 0.0
H2752 H 0.11498 0.09451 0.91433 0.0
H2753 H 0.21933 0.3661 0.86474 0.0
H2754 H 0.88954 0.70009 0.59077 0.0
H2755 H 0.90061 0.74701 0.59965 0.0
H2756 H -0.00186 0.77781 0.59923 0.0
H2757 H 0.98698 0.7299 0.59066 0.0
H2758 H 0.9836 0.79111 0.6169 0.0
H2759 H 0.96458 0.80657 0.58242 0.0
H2760 H 0.93594 0.79417 0.56628 0.0
H2761 H 0.85966 0.79359 0.58142 0.0
H2762 H 0.8877 0.8056 0.59768 0.0
H2763 H 0.0392 0.95448 0.6172 0.0
H2764 H 0.02389 0.90181 0.61216 0.0
H2765 H 0.93522 0.86791 0.62668 0.0
H2766 H 0.95084 0.9208 0.63205 0.0
H2767 H 0.94243 0.85499 0.60315 0.0
H2768 H 0.96604 0.84419 0.63774 0.0
H2769 H -0.00098 0.86152 0.65296 0.0
H2770 H 0.07116 0.85773 0.63656 0.0
H2771 H 0.03883 0.84096 0.62116 0.0
C2772 C 0.91342 0.71688 0.59249 0.0
C2773 C 0.93745 0.7114 0.58988 0.0
C2774 C 0.91972 0.74379 0.59758 0.0
C2775 C 0.95027 0.76631 0.59996 0.0
C2776 C 0.97436 0.76082 0.59746 0.0
C2777 C 0.968 0.73354 0.5925 0.0
C2778 C 0.95692 0.79564 0.60492 0.0
C2779 C 0.97474 0.80512 0.61384 0.0
C2780 C 0.94501 0.81385 0.60105 0.0
C2781 C 0.92811 0.80666 0.59128 0.0
C2782 C 0.9416 0.80357 0.58232 0.0
C2783 C 0.9255 0.79665 0.57315 0.0
C2784 C 0.89597 0.793 0.57283 0.0
C2785 C 0.88252 0.79636 0.58168 0.0
C2786 C 0.89851 0.80325 0.59088 0.0
C2787 C 0.01657 0.93575 0.61943 0.0
C2788 C -0.00385 0.94159 0.625 0.0
C2789 C 0.00794 0.90574 0.61658 0.0
C2790 C 0.97852 0.88114 0.61908 0.0
C2791 C 0.9581 0.88672 0.62475 0.0
C2792 C 0.96705 0.91679 0.62783 0.0
C2793 C 0.96881 0.85011 0.61506 0.0
C2794 C 0.95074 0.84056 0.60627 0.0
C2795 C 0.98086 0.8322 0.61895 0.0
C2796 C 0.00011 0.84161 0.62826 0.0
C2797 C 0.98904 0.84733 0.63734 0.0
C2798 C 0.0076 0.85701 0.64601 0.0
C2799 C 0.0372 0.86081 0.64572 0.0
C2800 C 0.04824 0.85481 0.63677 0.0
C2801 C 0.02979 0.84519 0.62807 0.0
H2802 H 0.05155 0.86835 0.65244 0.0
H2803 H 0.88354 0.78765 0.56573 0.0
H2804 H 0.32111 0.28083 0.59245 0.0
H2805 H 0.2771 0.24836 0.60349 0.0
H2806 H 0.29826 0.17537 0.60128 0.0
H2807 H 0.34141 0.20714 0.58996 0.0
H2808 H 0.23968 0.15161 0.60013 0.0
H2809 H 0.31651 0.22314 0.62283 0.0
H2810 H 0.3556 0.27421 0.62937 0.0
H2811 H 0.2858 0.29904 0.63289 0.0
H2812 H 0.24635 0.24826 0.62623 0.0
H2813 H 0.12769 0.06244 0.63625 0.0
H2814 H 0.18224 0.09698 0.63166 0.0
H2815 H 0.16315 0.16998 0.62559 0.0
H2816 H 0.10884 0.13552 0.63011 0.0
H2817 H 0.22469 0.1916 0.63281 0.0
H2818 H 0.15102 0.12242 0.60737 0.0
H2819 H 0.11216 0.07075 0.60116 0.0
H2820 H 0.17854 0.04107 0.60344 0.0
H2821 H 0.21765 0.09249 0.60982 0.0
C2822 C 0.31618 0.25775 0.59424 0.0
C2823 C 0.33477 0.2466 0.59032 0.0
C2824 C 0.29123 0.23932 0.60064 0.0
C2825 C 0.2848 0.20966 0.60343 0.0
C2826 C 0.30284 0.19822 0.5993 0.0
C2827 C 0.32748 0.21642 0.59279 0.0
C2828 C 0.25885 0.19024 0.61045 0.0
C2829 C 0.23688 0.16024 0.60737 0.0
C2830 C 0.25489 0.20144 0.61988 0.0
C2831 C 0.27851 0.23195 0.62395 0.0
C2832 C 0.30953 0.23956 0.62493 0.0
C2833 C 0.33175 0.26845 0.62867 0.0
C2834 C 0.3232 0.28988 0.63153 0.0
C2835 C 0.29239 0.28242 0.63067 0.0
C2836 C 0.27008 0.25357 0.62692 0.0
C2837 C 0.13561 0.08632 0.63445 0.0
C2838 C 0.11441 0.09656 0.63356 0.0
C2839 C 0.16664 0.10595 0.63177 0.0
C2840 C 0.17654 0.13588 0.62818 0.0
C2841 C 0.15598 0.14703 0.62837 0.0
C2842 C 0.12501 0.12736 0.63093 0.0
C2843 C 0.20582 0.15335 0.62242 0.0
C2844 C 0.22815 0.18296 0.62568 0.0
C2845 C 0.21038 0.14178 0.61319 0.0
C2846 C 0.1871 0.11112 0.60917 0.0
C2847 C 0.15724 0.1048 0.6066 0.0
C2848 C 0.13519 0.07558 0.60305 0.0
C2849 C 0.14285 0.05261 0.60193 0.0
C2850 C 0.17262 0.05886 0.60433 0.0
C2851 C 0.19473 0.08803 0.60792 0.0
H2852 H 0.12574 0.02999 0.59918 0.0
H2853 H 0.34044 0.31223 0.63442 0.0
H2854 H 0.72357 0.03886 0.60721 0.0
H2855 H 0.76741 0.03688 0.61442 0.0
H2856 H 0.82181 0.08185 0.58777 0.0
H2857 H 0.77819 0.08463 0.58057 0.0
H2858 H 0.82523 0.02893 0.59521 0.0
H2859 H 0.83371 0.12361 0.60652 0.0
H2860 H 0.81605 0.15618 0.61464 0.0
H2861 H 0.80547 0.11 0.64303 0.0
H2862 H 0.82195 0.07637 0.635 0.0
H2863 H 0.9747 0.07595 0.61056 0.0
H2864 H 0.93034 0.0797 0.60515 0.0
H2865 H 0.88591 0.04361 0.63404 0.0
H2866 H 0.93071 0.03989 0.63957 0.0
H2867 H 0.87547 0.0899 0.62623 0.0
H2868 H 0.86654 0.99521 0.61518 0.0
H2869 H 0.88427 0.96239 0.60726 0.0
H2870 H 0.89575 0.00822 0.57874 0.0
H2871 H 0.87856 0.04167 0.58653 0.0
C2872 C 0.7447 0.04795 0.6028 0.0
C2873 C 0.74744 0.06192 0.59331 0.0
C2874 C 0.76977 0.04695 0.60697 0.0
C2875 C 0.79787 0.05948 0.60167 0.0
C2876 C 0.80028 0.07215 0.59198 0.0
C2877 C 0.77537 0.07369 0.58788 0.0
C2878 C 0.82501 0.0601 0.60635 0.0
C2879 C 0.83642 0.04249 0.60193 0.0
C2880 C 0.83898 0.07716 0.61529 0.0
C2881 C 0.82858 0.09708 0.62011 0.0
C2882 C 0.82708 0.12 0.61445 0.0
C2883 C 0.8173 0.13869 0.61904 0.0
C2884 C 0.80938 0.13501 0.62933 0.0
C2885 C 0.81129 0.11265 0.63504 0.0
C2886 C 0.8208 0.09372 0.63047 0.0
C2887 C 0.95576 0.06931 0.61586 0.0
C2888 C 0.95606 0.05732 0.62546 0.0
C2889 C 0.93038 0.0714 0.61274 0.0
C2890 C 0.90454 0.06125 0.6191 0.0
C2891 C 0.90558 0.05138 0.62899 0.0
C2892 C 0.93123 0.0494 0.63216 0.0
C2893 C 0.87587 0.05896 0.61503 0.0
C2894 C 0.86414 0.07618 0.61956 0.0
C2895 C 0.86141 0.04139 0.60621 0.0
C2896 C 0.87151 0.02113 0.60146 0.0
C2897 C 0.87307 -0.00155 0.60724 0.0
C2898 C 0.88299 0.97971 0.60277 0.0
C2899 C 0.8912 0.98326 0.59251 0.0
C2900 C 0.88942 0.00551 0.58669 0.0
C2901 C 0.87956 0.02435 0.59112 0.0
H2902 H 0.89887 0.96873 0.58906 0.0
H2903 H 0.80196 0.14962 0.63286 0.0
H2904 H -0.0017 0.39433 0.4367 0.0
H2905 H 0.9554 0.38756 0.44747 0.0
H2906 H 0.94521 0.45247 0.42889 0.0
H2907 H 0.98868 0.46014 0.41836 0.0
H2908 H 0.94156 0.46418 0.44799 0.0
H2909 H 0.89594 0.3715 0.42729 0.0
H2910 H 0.89134 0.32363 0.42048 0.0
H2911 H 0.88043 0.28754 0.45069 0.0
H2912 H 0.88532 0.33538 0.45768 0.0
H2913 H 0.78377 0.41871 0.44831 0.0
H2914 H 0.8373 0.43177 0.44553 0.0
H2915 H 0.83269 0.38014 0.47226 0.0
H2916 H 0.77902 0.3674 0.47517 0.0
H2917 H 0.8483 0.36128 0.4535 0.0
H2918 H 0.88071 0.45118 0.47322 0.0
H2919 H 0.88152 0.49829 0.47893 0.0
H2920 H 0.91459 0.53962 0.44968 0.0
H2921 H 0.91327 0.49254 0.44367 0.0
C2922 C 0.98667 0.40689 0.43486 0.0
C2923 C -0.00325 0.42764 0.42664 0.0
C2924 C 0.9622 0.40306 0.44103 0.0
C2925 C 0.94694 0.41941 0.43898 0.0
C2926 C 0.95674 0.43978 0.43069 0.0
C2927 C 0.98145 0.44396 0.42462 0.0
C2928 C 0.92053 0.4153 0.44532 0.0
C2929 C 0.92112 0.44168 0.44917 0.0
C2930 C 0.8943 0.38586 0.4472 0.0
C2931 C 0.8914 0.35715 0.44301 0.0
C2932 C 0.89281 0.35345 0.43248 0.0
C2933 C 0.8901 0.32631 0.42859 0.0
C2934 C 0.88571 0.3026 0.43515 0.0
C2935 C 0.88391 0.30595 0.44562 0.0
C2936 C 0.88663 0.33306 0.44955 0.0
C2937 C 0.79448 0.41088 0.45374 0.0
C2938 C 0.77742 0.39212 0.46195 0.0
C2939 C 0.82503 0.41841 0.45217 0.0
C2940 C 0.83886 0.4069 0.45869 0.0
C2941 C 0.82237 0.38931 0.46718 0.0
C2942 C 0.79188 0.38225 0.46887 0.0
C2943 C 0.8689 0.41023 0.45576 0.0
C2944 C 0.86904 0.3837 0.45255 0.0
C2945 C 0.89557 0.43955 0.45435 0.0
C2946 C 0.8968 0.46818 0.45797 0.0
C2947 C 0.88797 0.47021 0.46797 0.0
C2948 C 0.88853 0.49692 0.47127 0.0
C2949 C 0.89814 0.52191 0.46468 0.0
C2950 C 0.9072 0.52025 0.45478 0.0
C2951 C 0.90656 0.49354 0.45142 0.0
H2952 H 0.89857 0.54257 0.46725 0.0
H2953 H 0.88361 0.28161 0.43213 0.0
H2954 H 0.66375 0.63695 0.43802 0.0
H2955 H 0.66561 0.59251 0.44461 0.0
H2956 H 0.59871 0.53406 0.42228 0.0
H2957 H 0.59672 0.57847 0.41562 0.0
H2958 H 0.61881 0.53913 0.45307 0.0
H2959 H 0.61498 0.47762 0.41564 0.0
H2960 H 0.63135 0.49041 0.39776 0.0
H2961 H 0.70411 0.58045 0.40666 0.0
H2962 H 0.68843 0.56805 0.42459 0.0
H2963 H 0.61697 0.38194 0.44428 0.0
H2964 H 0.60725 0.4228 0.43895 0.0
H2965 H 0.66246 0.47936 0.46394 0.0
H2966 H 0.6707 0.43781 0.46957 0.0
H2967 H 0.64647 0.47499 0.43192 0.0
H2968 H 0.64903 0.53653 0.4693 0.0
H2969 H 0.63355 0.52355 0.48723 0.0
H2970 H 0.56249 0.43247 0.47856 0.0
H2971 H 0.5774 0.44495 0.46057 0.0
C2972 C 0.6497 0.61473 0.43441 0.0
C2973 C 0.63016 0.6113 0.42625 0.0
C2974 C 0.65062 0.5893 0.43825 0.0
C2975 C 0.6323 0.55995 0.43396 0.0
C2976 C 0.61322 0.55653 0.42567 0.0
C2977 C 0.61216 0.58195 0.42186 0.0
C2978 C 0.63293 0.53291 0.43822 0.0
C2979 C 0.62509 0.5252 0.44848 0.0
C2980 C 0.64045 0.51436 0.43219 0.0
C2981 C 0.65028 0.522 0.42144 0.0
C2982 C 0.63452 0.50011 0.41378 0.0
C2983 C 0.64367 0.5073 0.40364 0.0
C2984 C 0.66868 0.53626 0.40108 0.0
C2985 C 0.68466 0.55807 0.40865 0.0
C2986 C 0.67561 0.55099 0.4188 0.0
C2987 C 0.6262 0.40277 0.4488 0.0
C2988 C 0.64438 0.40666 0.45737 0.0
C2989 C 0.62084 0.42621 0.44571 0.0
C2990 C 0.63404 0.45432 0.45102 0.0
C2991 C 0.65134 0.45776 0.45982 0.0
C2992 C 0.65608 0.43396 0.46305 0.0
C2993 C 0.63201 0.48076 0.4468 0.0
C2994 C 0.63977 0.48855 0.43653 0.0
C2995 C 0.62424 0.49923 0.45283 0.0
C2996 C 0.61451 0.49164 0.46359 0.0
C2997 C 0.63 0.51379 0.47121 0.0
C2998 C 0.62138 0.50649 0.48139 0.0
C2999 C 0.59716 0.47717 0.48403 0.0
C3000 C 0.58138 0.45511 0.4765 0.0
C3001 C 0.58993 0.46227 0.46632 0.0
H3002 H 0.5906 0.47162 0.49191 0.0
H3003 H 0.67573 0.54179 0.39322 0.0
H3004 H 0.45216 0.03658 0.42248 0.0
H3005 H 0.49584 0.08248 0.43001 0.0
H3006 H 0.43444 0.08681 0.45211 0.0
H3007 H 0.39064 0.04156 0.44445 0.0
H3008 H 0.47399 0.14235 0.44615 0.0
H3009 H 0.48202 0.0575 0.45813 0.0
H3010 H 0.48435 0.00979 0.45695 0.0
H3011 H 0.56779 0.05731 0.43927 0.0
H3012 H 0.56572 0.10524 0.44021 0.0
H3013 H 0.59815 0.2547 0.47531 0.0
H3014 H 0.55493 0.20255 0.47189 0.0
H3015 H 0.60271 0.19693 0.44543 0.0
H3016 H 0.64589 0.2488 0.44882 0.0
H3017 H 0.5685 0.14006 0.45569 0.0
H3018 H 0.55513 0.22352 0.44269 0.0
H3019 H 0.55258 0.27091 0.4449 0.0
H3020 H 0.4777 0.22403 0.46614 0.0
H3021 H 0.48009 0.17645 0.46414 0.0
C3022 C 0.44792 0.04753 0.42887 0.0
C3023 C 0.41793 0.03536 0.43288 0.0
C3024 C 0.47295 0.07361 0.43323 0.0
C3025 C 0.46858 0.08775 0.44178 0.0
C3026 C 0.43848 0.07626 0.44556 0.0
C3027 C 0.41342 0.05037 0.44116 0.0
C3028 C 0.49536 0.11445 0.4468 0.0
C3029 C 0.49439 0.14157 0.44838 0.0
C3030 C 0.52214 0.11365 0.44973 0.0
C3031 C 0.52356 0.08491 0.44916 0.0
C3032 C 0.50074 0.05773 0.45392 0.0
C3033 C 0.50204 0.03065 0.45331 0.0
C3034 C 0.52616 0.0305 0.44802 0.0
C3035 C 0.5491 0.05746 0.44336 0.0
C3036 C 0.54789 0.0846 0.44393 0.0
C3037 C 0.59993 0.2419 0.46899 0.0
C3038 C 0.62532 0.25585 0.4623 0.0
C3039 C 0.57512 0.21221 0.46699 0.0
C3040 C 0.57545 0.19609 0.45831 0.0
C3041 C 0.60195 0.20898 0.45215 0.0
C3042 C 0.62656 0.23866 0.45408 0.0
C3043 C 0.5471 0.16779 0.45488 0.0
C3044 C 0.54784 0.14049 0.45357 0.0
C3045 C 0.51992 0.16823 0.45233 0.0
C3046 C 0.51798 0.19656 0.45334 0.0
C3047 C 0.53822 0.22338 0.44786 0.0
C3048 C 0.5368 0.25026 0.44908 0.0
C3049 C 0.51504 0.2505 0.45567 0.0
C3050 C 0.49457 0.22382 0.46104 0.0
C3051 C 0.49592 0.19689 0.45986 0.0
H3052 H 0.51401 0.27134 0.45662 0.0
H3053 H 0.52713 0.00951 0.44756 0.0
H3054 H 0.77446 0.65786 0.74971 0.0
H3055 H 0.77071 0.61256 0.74144 0.0
H3056 H 0.70908 0.61441 0.71906 0.0
H3057 H 0.71215 0.65928 0.72742 0.0
H3058 H 0.6909 0.55677 0.72409 0.0
H3059 H 0.78569 0.6446 0.71368 0.0
H3060 H 0.83597 0.69248 0.71586 0.0
H3061 H 0.87045 0.6426 0.73234 0.0
H3062 H 0.8202 0.59446 0.73039 0.0
H3063 H 0.70533 0.4525 0.69207 0.0
H3064 H 0.71539 0.50402 0.69666 0.0
H3065 H 0.76392 0.50274 0.72344 0.0
H3066 H 0.75388 0.45131 0.71891 0.0
H3067 H 0.78935 0.56253 0.71416 0.0
H3068 H 0.69081 0.47584 0.72569 0.0
H3069 H 0.64054 0.42849 0.72277 0.0
H3070 H 0.61348 0.47826 0.70291 0.0
H3071 H 0.66385 0.52581 0.7056 0.0
C3072 C 0.75966 0.6483 0.74314 0.0
C3073 C 0.74376 0.66228 0.73918 0.0
C3074 C 0.75777 0.62258 0.73836 0.0
C3075 C 0.74024 0.61059 0.72948 0.0
C3076 C 0.72295 0.62343 0.72586 0.0
C3077 C 0.72469 0.64905 0.73066 0.0
C3078 C 0.74064 0.58523 0.72384 0.0
C3079 C 0.71242 0.55829 0.72177 0.0
C3080 C 0.76872 0.58712 0.72082 0.0
C3081 C 0.79908 0.61597 0.72196 0.0
C3082 C 0.80392 0.64387 0.71783 0.0
C3083 C 0.83243 0.67106 0.71902 0.0
C3084 C 0.85637 0.67059 0.72426 0.0
C3085 C 0.85187 0.64292 0.7283 0.0
C3086 C 0.82339 0.61567 0.72714 0.0
C3087 C 0.71922 0.46373 0.6987 0.0
C3088 C 0.72874 0.44793 0.70517 0.0
C3089 C 0.72474 0.49304 0.70136 0.0
C3090 C 0.74001 0.50691 0.71045 0.0
C3091 C 0.75206 0.49238 0.71639 0.0
C3092 C 0.74625 0.463 0.71382 0.0
C3093 C 0.73972 0.53415 0.71457 0.0
C3094 C 0.7679 0.56134 0.71637 0.0
C3095 C 0.71162 0.53267 0.71723 0.0
C3096 C 0.68118 0.50425 0.71576 0.0
C3097 C 0.67422 0.47661 0.72065 0.0
C3098 C 0.64571 0.44976 0.71904 0.0
C3099 C 0.62387 0.45034 0.71263 0.0
C3100 C 0.63045 0.47782 0.70785 0.0
C3101 C 0.65896 0.50473 0.70942 0.0
H3102 H 0.60181 0.42952 0.71139 0.0
H3103 H 0.87842 0.69167 0.72517 0.0
H3104 H 0.35085 0.14485 0.73633 0.0
H3105 H 0.39665 0.18015 0.72646 0.0
H3106 H 0.43412 0.1205 0.73084 0.0
H3107 H 0.38793 0.0846 0.74064 0.0
H3108 H 0.4757 0.18113 0.73539 0.0
H3109 H 0.41125 0.12392 0.7084 0.0
H3110 H 0.36525 0.09821 0.69745 0.0
H3111 H 0.37367 0.18565 0.69069 0.0
H3112 H 0.41945 0.21191 0.70176 0.0
H3113 H 0.58454 0.27231 0.69149 0.0
H3114 H 0.53273 0.23012 0.69615 0.0
H3115 H 0.53255 0.28218 0.72217 0.0
H3116 H 0.58427 0.32395 0.71765 0.0
H3117 H 0.47371 0.21855 0.7007 0.0
H3118 H 0.51327 0.23718 0.74275 0.0
H3119 H 0.56201 0.25914 0.7524 0.0
H3120 H 0.60564 0.24065 0.72748 0.0
H3121 H 0.55705 0.21813 0.71776 0.0
C3122 C 0.3688 0.13916 0.7352 0.0
C3123 C 0.36586 0.11201 0.73935 0.0
C3124 C 0.39483 0.15925 0.72947 0.0
C3125 C 0.41865 0.15283 0.72784 0.0
C3126 C 0.41589 0.12579 0.73197 0.0
C3127 C 0.38955 0.10536 0.73758 0.0
C3128 C 0.44728 0.17556 0.72244 0.0
C3129 C 0.47523 0.18919 0.72779 0.0
C3130 C 0.44682 0.18556 0.71242 0.0
C3131 C 0.41864 0.16987 0.70602 0.0
C3132 C 0.40306 0.13766 0.7047 0.0
C3133 C 0.37708 0.12299 0.69844 0.0
C3134 C 0.36655 0.14028 0.69338 0.0
C3135 C 0.38187 0.17229 0.69462 0.0
C3136 C 0.40784 0.18708 0.70089 0.0
C3137 C 0.57294 0.27519 0.69798 0.0
C3138 C 0.5885 0.30123 0.70428 0.0
C3139 C 0.5434 0.25101 0.70067 0.0
C3140 C 0.52918 0.25271 0.70966 0.0
C3141 C 0.5434 0.28012 0.71532 0.0
C3142 C 0.5729 0.30403 0.71271 0.0
C3143 C 0.50161 0.22494 0.71386 0.0
C3144 C 0.47402 0.21037 0.70828 0.0
C3145 C 0.50246 0.21344 0.72359 0.0
C3146 C 0.53157 0.2262 0.7295 0.0
C3147 C 0.53321 0.23763 0.73936 0.0
C3148 C 0.56082 0.2502 0.74484 0.0
C3149 C 0.58693 0.25137 0.74055 0.0
C3150 C 0.58544 0.23982 0.73079 0.0
C3151 C 0.55787 0.22716 0.72529 0.0
H3152 H 0.60829 0.26117 0.74479 0.0
H3153 H 0.3466 0.12886 0.68846 0.0
H3154 H 0.86827 0.23172 0.75227 0.0
H3155 H 0.83259 0.24 0.74206 0.0
H3156 H 0.90946 0.31028 0.72485 0.0
H3157 H 0.94539 0.30285 0.73527 0.0
H3158 H 0.87039 0.32829 0.72819 0.0
H3159 H 0.86132 0.23596 0.71524 0.0
H3160 H 0.8541 0.18369 0.71573 0.0
H3161 H 0.76278 0.14788 0.72806 0.0
H3162 H 0.76959 0.20001 0.72779 0.0
H3163 H 0.76532 0.33343 0.69356 0.0
H3164 H 0.80354 0.31908 0.69848 0.0
H3165 H 0.74395 0.26382 0.72298 0.0
H3166 H 0.70595 0.27829 0.71817 0.0
H3167 H 0.77792 0.23835 0.71314 0.0
H3168 H 0.79303 0.33436 0.72807 0.0
H3169 H 0.80102 0.38684 0.72672 0.0
H3170 H 0.88342 0.41552 0.70908 0.0
H3171 H 0.87562 0.36301 0.71021 0.0
C3172 C 0.87762 0.24915 0.74638 0.0
C3173 C 0.90967 0.26657 0.74457 0.0
C3174 C 0.85716 0.25365 0.74047 0.0
C3175 C 0.86824 0.2752 0.7325 0.0
C3176 C 0.90032 0.29336 0.7309 0.0
C3177 C 0.92085 0.28915 0.7369 0.0
C3178 C 0.84632 0.279 0.72594 0.0
C3179 C 0.85056 0.30864 0.72473 0.0
C3180 C 0.82032 0.25343 0.72141 0.0
C3181 C 0.81606 0.22197 0.72156 0.0
C3182 C 0.83977 0.21699 0.71812 0.0
C3183 C 0.83575 0.18737 0.71835 0.0
C3184 C 0.80803 0.1625 0.72194 0.0
C3185 C 0.78425 0.16718 0.72529 0.0
C3186 C 0.78816 0.19675 0.72509 0.0
C3187 C 0.75993 0.31733 0.69975 0.0
C3188 C 0.73279 0.30698 0.70551 0.0
C3189 C 0.78182 0.30931 0.70259 0.0
C3190 C 0.77662 0.29064 0.71115 0.0
C3191 C 0.74835 0.27821 0.71635 0.0
C3192 C 0.72674 0.28656 0.71362 0.0
C3193 C 0.80188 0.28739 0.7156 0.0
C3194 C 0.79817 0.25792 0.71644 0.0
C3195 C 0.82863 0.31311 0.71965 0.0
C3196 C 0.83356 0.34473 0.71912 0.0
C3197 C 0.81273 0.35182 0.72385 0.0
C3198 C 0.81723 0.38156 0.72313 0.0
C3199 C 0.84266 0.40448 0.71779 0.0
C3200 C 0.8637 0.39772 0.71319 0.0
C3201 C 0.85925 0.36799 0.71387 0.0
H3202 H 0.84611 0.42749 0.71725 0.0
H3203 H 0.80497 0.13959 0.72211 0.0
H3204 H 0.36498 0.26724 0.24965 0.0
H3205 H 0.41211 0.26921 0.24355 0.0
H3206 H 0.42583 0.33896 0.22173 0.0
H3207 H 0.3787 0.33705 0.22776 0.0
H3208 H 0.43208 0.29296 0.21309 0.0
H3209 H 0.47066 0.35858 0.24236 0.0
H3210 H 0.47196 0.37243 0.26038 0.0
H3211 H 0.48497 0.29754 0.2691 0.0
H3212 H 0.48333 0.28297 0.25112 0.0
H3213 H 0.58741 0.3402 0.19857 0.0
H3214 H 0.5381 0.33489 0.20378 0.0
H3215 H 0.53128 0.27473 0.22827 0.0
H3216 H 0.58168 0.28189 0.22348 0.0
H3217 H 0.5204 0.31513 0.23542 0.0
H3218 H 0.4868 0.25275 0.2054 0.0
H3219 H 0.49064 0.2438 0.18725 0.0
H3220 H 0.46779 0.31277 0.17951 0.0
H3221 H 0.46588 0.32369 0.19766 0.0
C3222 C 0.37824 0.2833 0.24365 0.0
C3223 C 0.36814 0.30206 0.23922 0.0
C3224 C 0.40515 0.28436 0.24016 0.0
C3225 C 0.42248 0.30424 0.23218 0.0
C3226 C 0.41273 0.32337 0.22786 0.0
C3227 C 0.38592 0.32241 0.23138 0.0
C3228 C 0.45048 0.30471 0.22822 0.0
C3229 C 0.45158 0.29807 0.21792 0.0
C3230 C 0.47557 0.31079 0.23459 0.0
C3231 C 0.47654 0.31949 0.2454 0.0
C3232 C 0.47353 0.3449 0.24813 0.0
C3233 C 0.47438 0.35291 0.25833 0.0
C3234 C 0.47845 0.33582 0.26588 0.0
C3235 C 0.48176 0.31073 0.26324 0.0
C3236 C 0.4809 0.30259 0.25305 0.0
C3237 C 0.57491 0.32518 0.20489 0.0
C3238 C 0.58814 0.31128 0.2106 0.0
C3239 C 0.54672 0.32218 0.20789 0.0
C3240 C 0.53071 0.30423 0.21641 0.0
C3241 C 0.54319 0.28886 0.22172 0.0
C3242 C 0.57179 0.29265 0.21892 0.0
C3243 C 0.50212 0.30305 0.22024 0.0
C3244 C 0.50089 0.30968 0.23054 0.0
C3245 C 0.47696 0.29697 0.21384 0.0
C3246 C 0.47644 0.28922 0.20293 0.0
C3247 C 0.48275 0.26616 0.19984 0.0
C3248 C 0.48465 0.26077 0.18954 0.0
C3249 C 0.47916 0.27748 0.18222 0.0
C3250 C 0.47198 0.29979 0.18519 0.0
C3251 C 0.4707 0.30575 0.1955 0.0
H3252 H 0.48052 0.27322 0.17424 0.0
H3253 H 0.47912 0.34207 0.27378 0.0
H3254 H 0.69681 0.06547 0.23305 0.0
H3255 H 0.6947 0.10967 0.22641 0.0
H3256 H 0.77172 0.1708 0.24534 0.0
H3257 H 0.77408 0.12661 0.25205 0.0
H3258 H 0.72412 0.18555 0.24432 0.0
H3259 H 0.78541 0.16196 0.22166 0.0
H3260 H 0.7934 0.12604 0.21112 0.0
H3261 H 0.71662 0.10945 0.19234 0.0
H3262 H 0.70772 0.14474 0.20292 0.0
H3263 H 0.75569 0.32227 0.22145 0.0
H3264 H 0.76557 0.28162 0.22688 0.0
H3265 H 0.70052 0.21998 0.20463 0.0
H3266 H 0.69191 0.26131 0.19881 0.0
H3267 H 0.74324 0.20552 0.20734 0.0
H3268 H 0.67829 0.2237 0.22951 0.0
H3269 H 0.66405 0.25465 0.24033 0.0
H3270 H 0.74082 0.27692 0.25995 0.0
H3271 H 0.75579 0.24644 0.24915 0.0
C3272 C 0.71299 0.08824 0.23595 0.0
C3273 C 0.73578 0.09256 0.24303 0.0
C3274 C 0.71183 0.11348 0.23209 0.0
C3275 C 0.73342 0.14351 0.23524 0.0
C3276 C 0.75499 0.14779 0.24277 0.0
C3277 C 0.75627 0.12252 0.2466 0.0
C3278 C 0.73439 0.17048 0.23033 0.0
C3279 C 0.72878 0.19025 0.23627 0.0
C3280 C 0.73953 0.17595 0.21976 0.0
C3281 C 0.74573 0.15578 0.21314 0.0
C3282 C 0.77014 0.15054 0.21531 0.0
C3283 C 0.7748 0.13027 0.20933 0.0
C3284 C 0.75545 0.11539 0.20108 0.0
C3285 C 0.73154 0.12094 0.19875 0.0
C3286 C 0.72668 0.14108 0.20473 0.0
C3287 C 0.74432 0.30034 0.2175 0.0
C3288 C 0.72286 0.29474 0.20978 0.0
C3289 C 0.74973 0.27704 0.22066 0.0
C3290 C 0.73289 0.24736 0.21643 0.0
C3291 C 0.71353 0.24257 0.20809 0.0
C3292 C 0.70869 0.26621 0.20474 0.0
C3293 C 0.73314 0.22087 0.22135 0.0
C3294 C 0.73884 0.20107 0.21541 0.0
C3295 C 0.72744 0.21495 0.2319 0.0
C3296 C 0.71833 0.23305 0.23847 0.0
C3297 C 0.69224 0.23535 0.2361 0.0
C3298 C 0.68403 0.2528 0.24223 0.0
C3299 C 0.70157 0.26781 0.25081 0.0
C3300 C 0.72729 0.26533 0.25329 0.0
C3301 C 0.73564 0.24796 0.24717 0.0
H3302 H 0.69518 0.28131 0.25555 0.0
H3303 H 0.759 0.09958 0.19648 0.0
H3304 H 0.87687 0.67309 0.24751 0.0
H3305 H 0.83992 0.62615 0.23865 0.0
H3306 H 0.91372 0.6105 0.22978 0.0
H3307 H 0.95118 0.65788 0.23857 0.0
H3308 H 0.87334 0.60039 0.21395 0.0
H3309 H 0.86701 0.56923 0.24866 0.0
H3310 H 0.8612 0.57224 0.26715 0.0
H3311 H 0.77101 0.56055 0.2628 0.0
H3312 H 0.77646 0.55788 0.24427 0.0
H3313 H 0.77519 0.44051 0.20101 0.0
H3314 H 0.8146 0.49228 0.20649 0.0
H3315 H 0.74319 0.50563 0.21966 0.0
H3316 H 0.70421 0.45296 0.21481 0.0
H3317 H 0.78424 0.51781 0.23295 0.0
H3318 H 0.78948 0.54321 0.19761 0.0
H3319 H 0.79568 0.53567 0.17947 0.0
H3320 H 0.88906 0.55756 0.18471 0.0
H3321 H 0.88296 0.56347 0.20299 0.0
C3322 C 0.88535 0.65967 0.24373 0.0
C3323 C 0.91703 0.66919 0.24382 0.0
C3324 C 0.86414 0.63282 0.23865 0.0
C3325 C 0.87404 0.61475 0.2336 0.0
C3326 C 0.90562 0.62417 0.23362 0.0
C3327 C 0.92694 0.6511 0.23872 0.0
C3328 C 0.85112 0.58567 0.22853 0.0
C3329 C 0.85396 0.58211 0.21808 0.0
C3330 C 0.82566 0.56214 0.23392 0.0
C3331 C 0.82228 0.56365 0.24507 0.0
C3332 C 0.84604 0.56755 0.25164 0.0
C3333 C 0.84279 0.56915 0.26213 0.0
C3334 C 0.81579 0.56667 0.26614 0.0
C3335 C 0.79194 0.5625 0.25968 0.0
C3336 C 0.79508 0.56092 0.24918 0.0
C3337 C 0.76797 0.45501 0.20478 0.0
C3338 C 0.73685 0.44315 0.20744 0.0
C3339 C 0.79047 0.48459 0.20792 0.0
C3340 C 0.78196 0.50307 0.21348 0.0
C3341 C 0.75041 0.49184 0.21544 0.0
C3342 C 0.7281 0.46195 0.21258 0.0
C3343 C 0.80582 0.53247 0.21823 0.0
C3344 C 0.80332 0.53607 0.2287 0.0
C3345 C 0.83158 0.55584 0.21282 0.0
C3346 C 0.83566 0.55357 0.20173 0.0
C3347 C 0.8113 0.54625 0.19492 0.0
C3348 C 0.81478 0.54222 0.18461 0.0
C3349 C 0.84279 0.54637 0.18092 0.0
C3350 C 0.86737 0.55439 0.18757 0.0
C3351 C 0.86386 0.55793 0.19792 0.0
H3352 H 0.84542 0.54329 0.17292 0.0
H3353 H 0.81331 0.56791 0.27427 0.0
H3354 H 0.60887 0.06431 0.91373 0.0
H3355 H 0.62225 0.11116 0.92332 0.0
H3356 H 0.65343 0.07861 0.94826 0.0
H3357 H 0.64087 0.03185 0.93857 0.0
H3358 H 0.60654 0.10081 0.95246 0.0
H3359 H 0.70692 0.13135 0.93865 0.0
H3360 H 0.7439 0.13762 0.92516 0.0
H3361 H 0.71963 0.19539 0.90838 0.0
H3362 H 0.68212 0.18906 0.92169 0.0
H3363 H 0.67801 0.26246 0.97273 0.0
H3364 H 0.67211 0.21212 0.96876 0.0
H3365 H 0.62982 0.21094 0.94021 0.0
H3366 H 0.63627 0.26151 0.94402 0.0
H3367 H 0.68858 0.20464 0.941 0.0
H3368 H 0.56671 0.13144 0.95156 0.0
H3369 H 0.52868 0.12741 0.96437 0.0
H3370 H 0.59776 0.15665 0.98762 0.0
H3371 H 0.63592 0.16023 0.97497 0.0
C3372 C 0.619 0.06733 0.9212 0.0
C3373 C 0.62402 0.04455 0.92538 0.0
C3374 C 0.6265 0.094 0.92667 0.0
C3375 C 0.6386 0.09815 0.9365 0.0
C3376 C 0.644 0.07568 0.94069 0.0
C3377 C 0.63712 0.04921 0.93511 0.0
C3378 C 0.64524 0.12608 0.94229 0.0
C3379 C 0.62499 0.12348 0.95014 0.0
C3380 C 0.66901 0.15561 0.93917 0.0
C3381 C 0.69152 0.15951 0.93114 0.0
C3382 C 0.70925 0.14515 0.93204 0.0
C3383 C 0.73036 0.14877 0.92443 0.0
C3384 C 0.73407 0.16684 0.91591 0.0
C3385 C 0.71672 0.18138 0.91498 0.0
C3386 C 0.69555 0.17781 0.92256 0.0
C3387 C 0.66651 0.25098 0.96577 0.0
C3388 C 0.65732 0.26572 0.95872 0.0
C3389 C 0.66325 0.22227 0.9635 0.0
C3390 C 0.6502 0.20772 0.95425 0.0
C3391 C 0.63979 0.22179 0.94742 0.0
C3392 C 0.64343 0.2506 0.94961 0.0
C3393 C 0.64995 0.17936 0.95112 0.0
C3394 C 0.67096 0.18191 0.9436 0.0
C3395 C 0.62721 0.14991 0.95462 0.0
C3396 C 0.60413 0.14636 0.96233 0.0
C3397 C 0.57365 0.13681 0.95942 0.0
C3398 C 0.55211 0.13461 0.96665 0.0
C3399 C 0.56083 0.14188 0.9768 0.0
C3400 C 0.59106 0.15111 0.97976 0.0
C3401 C 0.61263 0.15321 0.97256 0.0
H3402 H 0.54417 0.14031 0.98237 0.0
H3403 H 0.75043 0.16963 0.91003 0.0
H3404 H 0.02022 0.54964 0.92398 0.0
H3405 H 0.9754 0.51479 0.93421 0.0
H3406 H 0.94139 0.57813 0.93235 0.0
H3407 H 0.98716 0.61393 0.92245 0.0
H3408 H 0.93362 0.5571 0.95074 0.0
H3409 H 0.91102 0.50927 0.91782 0.0
H3410 H 0.9206 0.48739 0.90242 0.0
H3411 H 0.92655 0.41959 0.92048 0.0
H3412 H 0.91738 0.44132 0.93601 0.0
H3413 H 0.77232 0.45587 0.95585 0.0
H3414 H 0.82613 0.4921 0.95127 0.0
H3415 H 0.85238 0.42762 0.96204 0.0
H3416 H 0.79812 0.39135 0.9669 0.0
H3417 H 0.86769 0.44696 0.94122 0.0
H3418 H 0.88134 0.49191 0.97399 0.0
H3419 H 0.86768 0.51325 0.98863 0.0
H3420 H 0.87451 0.58639 0.96997 0.0
H3421 H 0.88769 0.5652 0.95516 0.0
C3422 C 0.00309 0.5561 0.92566 0.0
C3423 C 0.00712 0.58447 0.92231 0.0
C3424 C 0.9774 0.53607 0.93152 0.0
C3425 C 0.95468 0.54352 0.93395 0.0
C3426 C 0.95859 0.57183 0.93059 0.0
C3427 C 0.98464 0.59219 0.92487 0.0
C3428 C 0.92691 0.52186 0.94 0.0
C3429 C 0.91909 0.53308 0.9486 0.0
C3430 C 0.90835 0.49023 0.93741 0.0
C3431 C 0.91387 0.47714 0.92808 0.0
C3432 C 0.91461 0.48984 0.91851 0.0
C3433 C 0.91992 0.47745 0.90976 0.0
C3434 C 0.92428 0.45218 0.91047 0.0
C3435 C 0.92323 0.4392 0.91994 0.0
C3436 C 0.91796 0.45153 0.92872 0.0
C3437 C 0.78979 0.44989 0.95754 0.0
C3438 C 0.78138 0.42107 0.96175 0.0
C3439 C 0.82046 0.47056 0.95493 0.0
C3440 C 0.8432 0.46254 0.95633 0.0
C3441 C 0.83511 0.43422 0.96095 0.0
C3442 C 0.80431 0.41368 0.96377 0.0
C3443 C 0.87424 0.48237 0.9518 0.0
C3444 C 0.88261 0.47084 0.94345 0.0
C3445 C 0.89292 0.51376 0.95451 0.0
C3446 C 0.88536 0.52684 0.96344 0.0
C3447 C 0.87972 0.51243 0.97298 0.0
C3448 C 0.87209 0.52451 0.98132 0.0
C3449 C 0.8702 0.55114 0.98023 0.0
C3450 C 0.876 0.56577 0.9708 0.0
C3451 C 0.88359 0.55375 0.96243 0.0
H3452 H 0.86428 0.56046 0.98669 0.0
H3453 H 0.92838 0.44261 0.90369 0.0
H3454 H 0.45954 0.45001 0.92157 0.0
H3455 H 0.50238 0.44588 0.92859 0.0
H3456 H 0.43756 0.36467 0.94533 0.0
H3457 H 0.39461 0.36892 0.93846 0.0
H3458 H 0.48534 0.40339 0.95722 0.0
H3459 H 0.47338 0.35898 0.92404 0.0
H3460 H 0.46932 0.35729 0.90538 0.0
H3461 H 0.5599 0.4378 0.9031 0.0
H3462 H 0.56434 0.4402 0.92177 0.0
H3463 H 0.59171 0.35271 0.9699 0.0
H3464 H 0.54848 0.35911 0.9646 0.0
H3465 H 0.6106 0.43558 0.94546 0.0
H3466 H 0.65313 0.42756 0.95021 0.0
H3467 H 0.56325 0.39903 0.9351 0.0
H3468 H 0.57699 0.43939 0.96886 0.0
H3469 H 0.58192 0.4349 0.98723 0.0
H3470 H 0.48729 0.36146 0.9889 0.0
H3471 H 0.48246 0.36364 0.97035 0.0
C3472 C 0.45435 0.43104 0.92664 0.0
C3473 C 0.42362 0.40969 0.9294 0.0
C3474 C 0.47889 0.42874 0.93067 0.0
C3475 C 0.47322 0.40489 0.93747 0.0
C3476 C 0.44254 0.38333 0.94013 0.0
C3477 C 0.41798 0.38565 0.93613 0.0
C3478 C 0.4993 0.40249 0.9418 0.0
C3479 C 0.50228 0.40216 0.95241 0.0
C3480 C 0.52166 0.40138 0.93553 0.0
C3481 C 0.51906 0.39994 0.9243 0.0
C3482 C 0.49233 0.37646 0.91957 0.0
C3483 C 0.48998 0.37535 0.90899 0.0
C3484 C 0.5143 0.39747 0.90306 0.0
C3485 C 0.54106 0.4207 0.9077 0.0
C3486 C 0.54352 0.42194 0.91828 0.0
C3487 C 0.59615 0.37141 0.96479 0.0
C3488 C 0.62564 0.38989 0.96053 0.0
C3489 C 0.57146 0.37503 0.96173 0.0
C3490 C 0.57618 0.39797 0.95463 0.0
C3491 C 0.60622 0.41761 0.95088 0.0
C3492 C 0.6306 0.41333 0.95369 0.0
C3493 C 0.54976 0.40037 0.95057 0.0
C3494 C 0.54659 0.40056 0.93998 0.0
C3495 C 0.52729 0.4013 0.95689 0.0
C3496 C 0.52945 0.40149 0.96815 0.0
C3497 C 0.55723 0.42213 0.97311 0.0
C3498 C 0.56005 0.41994 0.98357 0.0
C3499 C 0.53485 0.39819 0.98927 0.0
C3500 C 0.5068 0.37836 0.98448 0.0
C3501 C 0.50409 0.37986 0.97397 0.0
H3502 H 0.53711 0.39664 0.99738 0.0
H3503 H 0.51243 0.39657 0.89487 0.0
H3504 H 0.703 0.82231 0.75934 0.0
H3505 H 0.65442 0.81104 0.7675 0.0
H3506 H 0.61864 0.71356 0.76355 0.0
H3507 H 0.66714 0.72452 0.75544 0.0
H3508 H 0.57746 0.73304 0.7578 0.0
H3509 H 0.64381 0.74404 0.78597 0.0
H3510 H 0.69112 0.77153 0.79629 0.0
H3511 H 0.67238 0.84473 0.80171 0.0
H3512 H 0.62517 0.81787 0.79128 0.0
H3513 H 0.44615 0.66246 0.7868 0.0
H3514 H 0.49967 0.67977 0.78213 0.0
H3515 H 0.52595 0.77328 0.78996 0.0
H3516 H 0.47214 0.75555 0.79508 0.0
H3517 H 0.57317 0.76092 0.79369 0.0
H3518 H 0.5069 0.75068 0.76615 0.0
H3519 H 0.45969 0.72449 0.75573 0.0
H3520 H 0.47897 0.65252 0.74865 0.0
H3521 H 0.52607 0.67804 0.75917 0.0
C3522 C 0.68472 0.79847 0.76014 0.0
C3523 C 0.68891 0.77428 0.75674 0.0
C3524 C 0.65709 0.7921 0.76486 0.0
C3525 C 0.63316 0.76149 0.76621 0.0
C3526 C 0.63695 0.73734 0.76261 0.0
C3527 C 0.66466 0.74365 0.75798 0.0
C3528 C 0.6039 0.75443 0.77126 0.0
C3529 C 0.57648 0.73887 0.76567 0.0
C3530 C 0.60288 0.76306 0.78143 0.0
C3531 C 0.63115 0.77912 0.78774 0.0
C3532 C 0.64992 0.76613 0.78928 0.0
C3533 C 0.67669 0.78157 0.79517 0.0
C3534 C 0.6848 0.8099 0.79963 0.0
C3535 C 0.6661 0.82281 0.79824 0.0
C3536 C 0.63933 0.80748 0.79234 0.0
C3537 C 0.46358 0.68654 0.78783 0.0
C3538 C 0.45528 0.70779 0.79121 0.0
C3539 C 0.49406 0.69643 0.78512 0.0
C3540 C 0.51654 0.72792 0.78542 0.0
C3541 C 0.50885 0.74891 0.78961 0.0
C3542 C 0.47825 0.73882 0.79254 0.0
C3543 C 0.54667 0.73883 0.78028 0.0
C3544 C 0.5742 0.75526 0.7858 0.0
C3545 C 0.54795 0.73135 0.76998 0.0
C3546 C 0.5199 0.71617 0.76351 0.0
C3547 C 0.50098 0.72918 0.76242 0.0
C3548 C 0.47424 0.71446 0.75649 0.0
C3549 C 0.4663 0.68683 0.75154 0.0
C3550 C 0.48514 0.67391 0.75249 0.0
C3551 C 0.51188 0.68851 0.75843 0.0
H3552 H 0.44559 0.67545 0.74696 0.0
H3553 H 0.70553 0.82182 0.80419 0.0
H3554 H 0.35041 0.97137 0.76288 0.0
H3555 H 0.3571 0.92865 0.76839 0.0
H3556 H 0.26171 0.86404 0.761 0.0
H3557 H 0.25537 0.90645 0.75508 0.0
H3558 H 0.33359 0.8895 0.78289 0.0
H3559 H 0.25097 0.79488 0.75469 0.0
H3560 H 0.2326 0.79055 0.73708 0.0
H3561 H 0.3154 0.87516 0.72931 0.0
H3562 H 0.33442 0.87978 0.74683 0.0
H3563 H 0.31526 0.74494 0.79935 0.0
H3564 H 0.30507 0.78594 0.79431 0.0
H3565 H 0.34892 0.79324 0.76537 0.0
H3566 H 0.35765 0.75179 0.77011 0.0
H3567 H 0.30133 0.79603 0.76199 0.0
H3568 H 0.3834 0.84351 0.78633 0.0
H3569 H 0.40933 0.8522 0.80288 0.0
H3570 H 0.34166 0.86941 0.81653 0.0
H3571 H 0.31451 0.85945 0.80019 0.0
C3572 C 0.33102 0.948 0.76229 0.0
C3573 C 0.30247 0.94225 0.75845 0.0
C3574 C 0.33479 0.92359 0.76551 0.0
C3575 C 0.31 0.89299 0.76505 0.0
C3576 C 0.28142 0.88729 0.76124 0.0
C3577 C 0.27781 0.91161 0.75786 0.0
C3578 C 0.31393 0.8671 0.76865 0.0
C3579 C 0.32654 0.86903 0.77832 0.0
C3580 C 0.30507 0.8405 0.76268 0.0
C3581 C 0.29393 0.83783 0.7521 0.0
C3582 C 0.26528 0.81251 0.74921 0.0
C3583 C 0.25476 0.81001 0.73925 0.0
C3584 C 0.27277 0.83262 0.73209 0.0
C3585 C 0.30141 0.85772 0.73487 0.0
C3586 C 0.31205 0.86032 0.74482 0.0
C3587 C 0.32241 0.75511 0.79189 0.0
C3588 C 0.33701 0.74481 0.78513 0.0
C3589 C 0.3168 0.77874 0.78904 0.0
C3590 C 0.32638 0.79293 0.77946 0.0
C3591 C 0.34101 0.78261 0.77276 0.0
C3592 C 0.34608 0.75882 0.77552 0.0
C3593 C 0.32141 0.81848 0.77621 0.0
C3594 C 0.30831 0.81639 0.76661 0.0
C3595 C 0.33088 0.84537 0.78212 0.0
C3596 C 0.34663 0.85026 0.79205 0.0
C3597 C 0.3737 0.84858 0.7929 0.0
C3598 C 0.38861 0.85369 0.80226 0.0
C3599 C 0.37698 0.86106 0.81078 0.0
C3600 C 0.35041 0.86329 0.80997 0.0
C3601 C 0.33519 0.85781 0.80067 0.0
H3602 H 0.38868 0.86528 0.818 0.0
H3603 H 0.26458 0.83065 0.72439 0.0
H3604 H 0.11311 0.37317 0.75148 0.0
H3605 H 0.15728 0.4185 0.75901 0.0
H3606 H 0.09739 0.42219 0.78186 0.0
H3607 H 0.05297 0.37727 0.77423 0.0
H3608 H 0.13919 0.47877 0.77605 0.0
H3609 H 0.14152 0.39014 0.78721 0.0
H3610 H 0.14046 0.34078 0.78553 0.0
H3611 H 0.22399 0.38535 0.7678 0.0
H3612 H 0.2253 0.43492 0.76924 0.0
H3613 H 0.27125 0.58613 0.80454 0.0
H3614 H 0.22451 0.5358 0.80141 0.0
H3615 H 0.26558 0.52588 0.77391 0.0
H3616 H 0.31179 0.576 0.77689 0.0
H3617 H 0.23061 0.46995 0.78483 0.0
H3618 H 0.22262 0.55695 0.77223 0.0
H3619 H 0.22312 0.60592 0.77442 0.0
H3620 H 0.14893 0.56278 0.79608 0.0
H3621 H 0.14833 0.51364 0.79412 0.0
C3622 C 0.10924 0.38393 0.758 0.0
C3623 C 0.07957 0.37149 0.7623 0.0
C3624 C 0.13455 0.40968 0.76236 0.0
C3625 C 0.13077 0.42326 0.77116 0.0
C3626 C 0.10091 0.41194 0.77512 0.0
C3627 C 0.07553 0.38628 0.77074 0.0
C3628 C 0.15811 0.44868 0.77635 0.0
C3629 C 0.15892 0.4766 0.77814 0.0
C3630 C 0.18391 0.44593 0.7791 0.0
C3631 C 0.18337 0.41621 0.77826 0.0
C3632 C 0.15955 0.38939 0.78289 0.0
C3633 C 0.15892 0.36137 0.78199 0.0
C3634 C 0.18211 0.35992 0.77654 0.0
C3635 C 0.20603 0.38651 0.77201 0.0
C3636 C 0.20675 0.41458 0.77287 0.0
C3637 C 0.27057 0.57274 0.79799 0.0
C3638 C 0.29492 0.58498 0.7909 0.0
C3639 C 0.24386 0.54414 0.79619 0.0
C3640 C 0.24152 0.52736 0.78736 0.0
C3641 C 0.26691 0.53848 0.78075 0.0
C3642 C 0.29325 0.56714 0.78245 0.0
C3643 C 0.21182 0.50003 0.78431 0.0
C3644 C 0.21059 0.47179 0.78291 0.0
C3645 C 0.18552 0.50236 0.78203 0.0
C3646 C 0.18569 0.53177 0.78312 0.0
C3647 C 0.20659 0.55799 0.77752 0.0
C3648 C 0.20687 0.58576 0.77871 0.0
C3649 C 0.18614 0.58749 0.78541 0.0
C3650 C 0.16502 0.56143 0.79091 0.0
C3651 C 0.1647 0.53362 0.78976 0.0
H3652 H 0.18638 0.60901 0.78632 0.0
H3653 H 0.18158 0.33821 0.77585 0.0
H3654 H 0.45233 0.01612 0.08286 0.0
H3655 H 0.44882 0.9684 0.07682 0.0
H3656 H 0.35739 0.93764 0.06521 0.0
H3657 H 0.36077 0.98539 0.07115 0.0
H3658 H 0.36246 0.89076 0.0747 0.0
H3659 H 0.41418 0.96913 0.04957 0.0
H3660 H 0.45366 0.02065 0.04351 0.0
H3661 H 0.52553 0.00184 0.05138 0.0
H3662 H 0.48642 0.95044 0.0578 0.0
H3663 H 0.38358 0.79824 0.03265 0.0
H3664 H 0.39247 0.84852 0.03834 0.0
H3665 H 0.40873 0.82869 0.06876 0.0
H3666 H 0.39992 0.77866 0.06321 0.0
H3667 H 0.4394 0.90103 0.0488 0.0
H3668 H 0.36454 0.84461 0.08449 0.0
H3669 H 0.32289 0.7934 0.09018 0.0
H3670 H 0.29298 0.76835 0.05936 0.0
H3671 H 0.33412 0.81955 0.05352 0.0
C3672 C 0.43125 -0.00103 0.07919 0.0
C3673 C 0.40687 0.00456 0.07743 0.0
C3674 C 0.42937 0.97181 0.0757 0.0
C3675 C 0.40302 0.94974 0.07046 0.0
C3676 C 0.37796 0.95447 0.06921 0.0
C3677 C 0.37994 0.98176 0.0726 0.0
C3678 C 0.40218 0.92246 0.06586 0.0
C3679 C 0.37933 0.89301 0.06907 0.0
C3680 C 0.42381 0.92546 0.05833 0.0
C3681 C 0.44737 0.95605 0.05427 0.0
C3682 C 0.43841 0.97606 0.05009 0.0
C3683 C 0.46073 0.00525 0.04659 0.0
C3684 C 0.49212 0.01455 0.04706 0.0
C3685 C 0.50122 0.99462 0.05103 0.0
C3686 C 0.47897 0.96546 0.05462 0.0
C3687 C 0.38983 0.80488 0.0405 0.0
C3688 C 0.39053 0.78419 0.04751 0.0
C3689 C 0.39489 0.83363 0.04372 0.0
C3690 C 0.40063 0.84197 0.054 0.0
C3691 C 0.40384 0.82244 0.06082 0.0
C3692 C 0.3988 0.79382 0.05763 0.0
C3693 C 0.40018 0.86941 0.05786 0.0
C3694 C 0.42266 0.89884 0.05448 0.0
C3695 C 0.3779 0.86643 0.06512 0.0
C3696 C 0.35261 0.83581 0.06857 0.0
C3697 C 0.34897 0.82822 0.07894 0.0
C3698 C 0.32547 0.79919 0.08219 0.0
C3699 C 0.30536 0.7776 0.07513 0.0
C3700 C 0.30863 0.78505 0.06482 0.0
C3701 C 0.33206 0.81406 0.06154 0.0
H3702 H 0.28722 0.75512 0.07766 0.0
H3703 H 0.50938 0.03717 0.04434 0.0
H3704 H 0.0472 0.48424 0.08813 0.0
H3705 H 0.09105 0.5217 0.07802 0.0
H3706 H 0.07472 0.45078 0.05629 0.0
H3707 H 0.03116 0.41278 0.06658 0.0
H3708 H 0.13465 0.48747 0.05877 0.0
H3709 H 0.05164 0.50339 0.05129 0.0
H3710 H 0.00744 0.51076 0.05471 0.0
H3711 H 0.06738 0.59557 0.07026 0.0
H3712 H 0.11191 0.58851 0.06707 0.0
H3713 H 0.24861 0.61198 0.02848 0.0
H3714 H 0.19552 0.57024 0.03224 0.0
H3715 H 0.19831 0.61339 0.06084 0.0
H3716 H 0.25116 0.65448 0.05723 0.0
H3717 H 0.1398 0.58644 0.0508 0.0
H3718 H 0.21987 0.56224 0.06047 0.0
H3719 H 0.26333 0.55425 0.05633 0.0
H3720 H 0.20618 0.48347 0.03503 0.0
H3721 H 0.1625 0.49138 0.03896 0.0
C3722 C 0.05311 0.47649 0.08126 0.0
C3723 C 0.03556 0.44557 0.07813 0.0
C3724 C 0.07805 0.49801 0.07543 0.0
C3725 C 0.08565 0.48928 0.06623 0.0
C3726 C 0.06911 0.45812 0.06331 0.0
C3727 C 0.04429 0.43642 0.06922 0.0
C3728 C 0.11076 0.51295 0.05972 0.0
C3729 C 0.13538 0.50879 0.05683 0.0
C3730 C 0.11176 0.54078 0.05709 0.0
C3731 C 0.08511 0.54532 0.05898 0.0
C3732 C 0.05538 0.52353 0.05549 0.0
C3733 C 0.03026 0.52766 0.05738 0.0
C3734 C 0.03459 0.55359 0.06271 0.0
C3735 C 0.06407 0.57549 0.06613 0.0
C3736 C 0.08927 0.57146 0.06427 0.0
C3737 C 0.23748 0.61292 0.03542 0.0
C3738 C 0.25396 0.63622 0.04262 0.0
C3739 C 0.20729 0.58906 0.03758 0.0
C3740 C 0.19319 0.58863 0.04686 0.0
C3741 C 0.20878 0.61329 0.05364 0.0
C3742 C 0.23898 0.6367 0.05158 0.0
C3743 C 0.16389 0.56123 0.05022 0.0
C3744 C 0.13853 0.56473 0.05252 0.0
C3745 C 0.16199 0.53265 0.05215 0.0
C3746 C 0.18808 0.52764 0.04992 0.0
C3747 C 0.21666 0.54513 0.05486 0.0
C3748 C 0.24132 0.5406 0.05256 0.0
C3749 C 0.23755 0.51843 0.0454 0.0
C3750 C 0.20909 0.50067 0.04055 0.0
C3751 C 0.18438 0.50516 0.04282 0.0
H3752 H 0.25667 0.51496 0.04362 0.0
H3753 H 0.01511 0.55675 0.06417 0.0
H3754 H 0.6154 0.63793 0.06613 0.0
H3755 H 0.58109 0.64682 0.05533 0.0
H3756 H 0.5033 0.58593 0.07423 0.0
H3757 H 0.53724 0.57627 0.08486 0.0
H3758 H 0.48833 0.57298 0.05503 0.0
H3759 H 0.53915 0.66694 0.075 0.0
H3760 H 0.5841 0.71447 0.08157 0.0
H3761 H 0.61172 0.74802 0.05115 0.0
H3762 H 0.5671 0.70048 0.0444 0.0
H3763 H 0.37679 0.61637 0.05088 0.0
H3764 H 0.41606 0.60292 0.05443 0.0
H3765 H 0.47387 0.66445 0.03068 0.0
H3766 H 0.43459 0.67879 0.02731 0.0
H3767 H 0.50422 0.67701 0.04826 0.0
H3768 H 0.4419 0.58647 0.02935 0.0
H3769 H 0.39411 0.53972 0.02389 0.0
H3770 H 0.38508 0.49908 0.05324 0.0
H3771 H 0.43224 0.54583 0.059 0.0
C3772 C 0.59105 0.62676 0.06806 0.0
C3773 C 0.57908 0.60644 0.07638 0.0
C3774 C 0.57143 0.63182 0.06186 0.0
C3775 C 0.53956 0.61708 0.06396 0.0
C3776 C 0.52775 0.59738 0.0724 0.0
C3777 C 0.54724 0.59206 0.07852 0.0
C3778 C 0.51821 0.62179 0.05739 0.0
C3779 C 0.49164 0.5957 0.05359 0.0
C3780 C 0.52322 0.6515 0.05513 0.0
C3781 C 0.55005 0.68001 0.05919 0.0
C3782 C 0.55496 0.68434 0.06971 0.0
C3783 C 0.58034 0.7113 0.07347 0.0
C3784 C 0.60082 0.7342 0.06678 0.0
C3785 C 0.59589 0.73023 0.05632 0.0
C3786 C 0.57056 0.70329 0.05252 0.0
C3787 C 0.39749 0.62638 0.04621 0.0
C3788 C 0.40263 0.6485 0.03879 0.0
C3789 C 0.41991 0.61857 0.04822 0.0
C3790 C 0.44791 0.63254 0.04279 0.0
C3791 C 0.45238 0.65332 0.03493 0.0
C3792 C 0.42981 0.66122 0.03293 0.0
C3793 C 0.47352 0.6281 0.0463 0.0
C3794 C 0.50106 0.65425 0.04948 0.0
C3795 C 0.46911 0.59836 0.04811 0.0
C3796 C 0.44085 0.56981 0.0446 0.0
C3797 C 0.42976 0.56763 0.03465 0.0
C3798 C 0.40272 0.54112 0.03151 0.0
C3799 C 0.38668 0.51643 0.03819 0.0
C3800 C 0.39759 0.51821 0.04805 0.0
C3801 C 0.4245 0.54473 0.05126 0.0
H3802 H 0.36576 0.49593 0.03574 0.0
H3803 H 0.62045 0.75506 0.06971 0.0
H3804 H 0.04525 0.66985 0.55963 0.0
H3805 H 0.08927 0.668 0.55239 0.0
H3806 H 0.0851 0.60958 0.577 0.0
H3807 H 0.04085 0.61109 0.58427 0.0
H3808 H 0.14544 0.65629 0.57208 0.0
H3809 H 0.05427 0.57747 0.55522 0.0
H3810 H 0.00596 0.5575 0.54546 0.0
H3811 H 0.0564 0.61821 0.52076 0.0
H3812 H 0.10498 0.6389 0.53045 0.0
H3813 H 0.23958 0.60429 0.55403 0.0
H3814 H 0.19018 0.59947 0.55872 0.0
H3815 H 0.19621 0.65461 0.53282 0.0
H3816 H 0.24558 0.65898 0.52796 0.0
H3817 H 0.1349 0.61067 0.53783 0.0
H3818 H 0.22533 0.69021 0.55431 0.0
H3819 H 0.27421 0.71164 0.56383 0.0
H3820 H 0.22577 0.6521 0.58899 0.0
H3821 H 0.17666 0.62992 0.57954 0.0
C3822 C 0.05398 0.65699 0.5636 0.0
C3823 C 0.03951 0.64055 0.57253 0.0
C3824 C 0.07898 0.65577 0.5594 0.0
C3825 C 0.09011 0.63826 0.56408 0.0
C3826 C 0.07673 0.62308 0.57325 0.0
C3827 C 0.0515 0.62403 0.57741 0.0
C3828 C 0.11528 0.63524 0.5593 0.0
C3829 C 0.14298 0.64597 0.56465 0.0
C3830 C 0.11235 0.62257 0.54948 0.0
C3831 C 0.08321 0.60997 0.54361 0.0
C3832 C 0.05503 0.58675 0.54774 0.0
C3833 C 0.0276 0.57527 0.54222 0.0
C3834 C 0.0281 0.58664 0.53251 0.0
C3835 C 0.05605 0.60946 0.52829 0.0
C3836 C 0.08354 0.62106 0.53379 0.0
C3837 C 0.22984 0.61444 0.54913 0.0
C3838 C 0.24654 0.63228 0.5407 0.0
C3839 C 0.20169 0.61181 0.55184 0.0
C3840 C 0.19001 0.62745 0.54629 0.0
C3841 C 0.20496 0.64257 0.53725 0.0
C3842 C 0.23309 0.64492 0.53445 0.0
C3843 C 0.16486 0.63132 0.55068 0.0
C3844 C 0.1373 0.62095 0.54525 0.0
C3845 C 0.16796 0.64461 0.56041 0.0
C3846 C 0.19737 0.6582 0.56618 0.0
C3847 C 0.22514 0.68153 0.56185 0.0
C3848 C 0.25288 0.69383 0.56723 0.0
C3849 C 0.2531 0.68319 0.577 0.0
C3850 C 0.22556 0.66029 0.58142 0.0
C3851 C 0.19776 0.64786 0.57605 0.0
H3852 H 0.27461 0.69274 0.58116 0.0
H3853 H 0.00684 0.57772 0.52824 0.0
H3854 H 0.44129 0.4508 0.58104 0.0
H3855 H 0.43737 0.49421 0.57454 0.0
H3856 H 0.35982 0.43184 0.55598 0.0
H3857 H 0.36375 0.38833 0.56238 0.0
H3858 H 0.40204 0.48243 0.54526 0.0
H3859 H 0.34832 0.46193 0.57727 0.0
H3860 H 0.34228 0.45406 0.59579 0.0
H3861 H 0.42022 0.54493 0.60058 0.0
H3862 H 0.42697 0.55319 0.58207 0.0
H3863 H 0.34724 0.58401 0.5321 0.0
H3864 H 0.35505 0.54192 0.53746 0.0
H3865 H 0.42432 0.60297 0.55886 0.0
H3866 H 0.41454 0.64424 0.55405 0.0
H3867 H 0.38778 0.55308 0.56793 0.0
H3868 H 0.43691 0.5759 0.53541 0.0
H3869 H 0.43685 0.58455 0.51709 0.0
H3870 H 0.36859 0.48913 0.51269 0.0
H3871 H 0.36594 0.48045 0.53117 0.0
C3872 C 0.42315 0.44626 0.57567 0.0
C3873 C 0.40274 0.41609 0.57226 0.0
C3874 C 0.42098 0.47111 0.57194 0.0
C3875 C 0.39827 0.46625 0.56478 0.0
C3876 C 0.3776 0.43612 0.56147 0.0
C3877 C 0.37972 0.41125 0.5652 0.0
C3878 C 0.39615 0.49261 0.5607 0.0
C3879 C 0.39866 0.4978 0.55018 0.0
C3880 C 0.39242 0.51297 0.56716 0.0
C3881 C 0.38834 0.50805 0.57829 0.0
C3882 C 0.36432 0.48014 0.58227 0.0
C3883 C 0.36074 0.47563 0.59277 0.0
C3884 C 0.3809 0.49895 0.59936 0.0
C3885 C 0.40464 0.52687 0.59547 0.0
C3886 C 0.40835 0.53149 0.58498 0.0
C3887 C 0.36468 0.58854 0.53775 0.0
C3888 C 0.38053 0.61728 0.54261 0.0
C3889 C 0.36912 0.56449 0.54085 0.0
C3890 C 0.3905 0.56923 0.54854 0.0
C3891 C 0.40759 0.59861 0.55296 0.0
C3892 C 0.40233 0.62229 0.55013 0.0
C3893 C 0.39382 0.54327 0.55242 0.0
C3894 C 0.39149 0.53805 0.56295 0.0
C3895 C 0.39777 0.52299 0.54593 0.0
C3896 C 0.40101 0.52758 0.53474 0.0
C3897 C 0.42169 0.55674 0.53057 0.0
C3898 C 0.42206 0.56169 0.52014 0.0
C3899 C 0.40309 0.53733 0.51369 0.0
C3900 C 0.38336 0.50799 0.51769 0.0
C3901 C 0.38215 0.50311 0.52817 0.0
H3902 H 0.4036 0.54121 0.5056 0.0
H3903 H 0.37809 0.49541 0.60748 0.0
H3904 H 0.53742 0.99 0.5844 0.0
H3905 H 0.50056 0.94217 0.57593 0.0
H3906 H 0.57464 0.94469 0.55843 0.0
H3907 H 0.61201 0.99284 0.56693 0.0
H3908 H 0.51972 0.93059 0.54683 0.0
H3909 H 0.54894 0.89666 0.57663 0.0
H3910 H 0.55869 0.89553 0.59491 0.0
H3911 H 0.46381 0.86642 0.60154 0.0
H3912 H 0.45361 0.86781 0.58331 0.0
H3913 H 0.42721 0.77145 0.53126 0.0
H3914 H 0.46658 0.82378 0.5363 0.0
H3915 H 0.40534 0.82257 0.55966 0.0
H3916 H 0.36662 0.76992 0.5549 0.0
H3917 H 0.45766 0.8364 0.56757 0.0
H3918 H 0.42776 0.87092 0.53796 0.0
H3919 H 0.4171 0.87118 0.51973 0.0
H3920 H 0.51125 0.89855 0.51261 0.0
H3921 H 0.52242 0.89815 0.53081 0.0
C3922 C 0.546 0.98039 0.57879 0.0
C3923 C 0.5777 0.99515 0.57639 0.0
C3924 C 0.52486 0.95308 0.57394 0.0
C3925 C 0.53492 0.93997 0.56656 0.0
C3926 C 0.56648 0.95459 0.56408 0.0
C3927 C 0.58778 0.98188 0.56902 0.0
C3928 C 0.51224 0.91045 0.56174 0.0
C3929 C 0.50637 0.9098 0.5513 0.0
C3930 C 0.49456 0.88362 0.56764 0.0
C3931 C 0.50059 0.88259 0.57861 0.0
C3932 C 0.53022 0.89025 0.58199 0.0
C3933 C 0.53581 0.88952 0.59235 0.0
C3934 C 0.5119 0.88097 0.59939 0.0
C3935 C 0.48232 0.87306 0.59608 0.0
C3936 C 0.47661 0.87378 0.58574 0.0
C3937 C 0.42188 0.7828 0.53726 0.0
C3938 C 0.39403 0.76678 0.54273 0.0
C3939 C 0.44439 0.81269 0.54014 0.0
C3940 C 0.43899 0.82713 0.54839 0.0
C3941 C 0.41016 0.81182 0.55334 0.0
C3942 C 0.388 0.78184 0.55059 0.0
C3943 C 0.46425 0.85649 0.55266 0.0
C3944 C 0.47084 0.85708 0.56303 0.0
C3945 C 0.48232 0.88318 0.54668 0.0
C3946 C 0.47586 0.88424 0.53575 0.0
C3947 C 0.44616 0.87685 0.53251 0.0
C3948 C 0.44002 0.87703 0.52218 0.0
C3949 C 0.46344 0.88475 0.51501 0.0
C3950 C 0.49311 0.89252 0.51817 0.0
C3951 C 0.49938 0.89239 0.52849 0.0
H3952 H 0.45865 0.88478 0.50701 0.0
H3953 H 0.51628 0.88042 0.6074 0.0
H3954 H 0.30077 0.37413 0.2647 0.0
H3955 H 0.31032 0.42067 0.27385 0.0
H3956 H 0.25164 0.43277 0.25282 0.0
H3957 H 0.24166 0.38621 0.24373 0.0
H3958 H 0.30844 0.48757 0.25726 0.0
H3959 H 0.22247 0.40126 0.27452 0.0
H3960 H 0.19751 0.35161 0.28367 0.0
H3961 H 0.26651 0.39126 0.30698 0.0
H3962 H 0.29218 0.44105 0.29787 0.0
H3963 H 0.27605 0.59233 0.27867 0.0
H3964 H 0.26585 0.54202 0.27276 0.0
H3965 H 0.31755 0.53663 0.29797 0.0
H3966 H 0.32721 0.58691 0.30408 0.0
H3967 H 0.26937 0.47905 0.29249 0.0
H3968 H 0.3543 0.5652 0.27629 0.0
H3969 H 0.38128 0.61531 0.26744 0.0
H3970 H 0.31822 0.57672 0.24245 0.0
H3971 H 0.29053 0.52647 0.25123 0.0
C3972 C 0.29028 0.38697 0.26195 0.0
C3973 C 0.27043 0.37651 0.2535 0.0
C3974 C 0.29557 0.41338 0.26722 0.0
C3975 C 0.28141 0.4299 0.26406 0.0
C3976 C 0.26267 0.42024 0.25539 0.0
C3977 C 0.25701 0.39365 0.25021 0.0
C3978 C 0.28548 0.45699 0.26982 0.0
C3979 C 0.29972 0.48568 0.26493 0.0
C3980 C 0.27499 0.45462 0.27995 0.0
C3981 C 0.25946 0.42476 0.28545 0.0
C3982 C 0.23249 0.39931 0.28155 0.0
C3983 C 0.21818 0.37116 0.28673 0.0
C3984 C 0.23047 0.36825 0.29588 0.0
C3985 C 0.25705 0.39352 0.29988 0.0
C3986 C 0.27148 0.42172 0.29471 0.0
C3987 C 0.28446 0.58001 0.28312 0.0
C3988 C 0.30265 0.59357 0.29177 0.0
C3989 C 0.27874 0.55134 0.27972 0.0
C3990 C 0.29172 0.53604 0.28477 0.0
C3991 C 0.30753 0.54818 0.29393 0.0
C3992 C 0.31291 0.57682 0.29743 0.0
C3993 C 0.29159 0.50947 0.27981 0.0
C3994 C 0.27831 0.48099 0.28485 0.0
C3995 C 0.30337 0.51205 0.26984 0.0
C3996 C 0.32019 0.54213 0.26446 0.0
C3997 C 0.34606 0.56745 0.26894 0.0
C3998 C 0.36149 0.59588 0.26393 0.0
C3999 C 0.35143 0.59922 0.2544 0.0
C4000 C 0.32597 0.57411 0.24984 0.0
C4001 C 0.31041 0.54564 0.25483 0.0
H4002 H 0.36341 0.62125 0.25053 0.0
H4003 H 0.21936 0.34643 0.29989 0.0
H4004 H 0.65457 0.88183 0.24728 0.0
H4005 H 0.60804 0.84569 0.25667 0.0
H4006 H 0.62191 0.91819 0.27731 0.0
H4007 H 0.66864 0.95481 0.26789 0.0
H4008 H 0.60627 0.85933 0.28692 0.0
H4009 H 0.56952 0.90067 0.26142 0.0
H4010 H 0.56468 0.91636 0.24413 0.0
H4011 H 0.52622 0.82296 0.23382 0.0
H4012 H 0.53126 0.80678 0.25103 0.0
H4013 H 0.4482 0.76877 0.30573 0.0
H4014 H 0.50055 0.80823 0.30038 0.0
H4015 H 0.49301 0.753 0.27424 0.0
H4016 H 0.4406 0.71433 0.27938 0.0
H4017 H 0.50603 0.80835 0.26867 0.0
H4018 H 0.54352 0.76683 0.29425 0.0
H4019 H 0.54612 0.75081 0.31172 0.0
H4020 H 0.58198 0.84376 0.32212 0.0
H4021 H 0.57899 0.86024 0.30474 0.0
C4022 C 0.64772 0.8902 0.25379 0.0
C4023 C 0.66518 0.92124 0.2568 0.0
C4024 C 0.6212 0.86949 0.25916 0.0
C4025 C 0.61167 0.87932 0.26768 0.0
C4026 C 0.62905 0.91021 0.27078 0.0
C4027 C 0.6555 0.9311 0.26532 0.0
C4028 C 0.58278 0.85727 0.27301 0.0
C4029 C 0.58421 0.84841 0.28302 0.0
C4030 C 0.55419 0.84296 0.26786 0.0
C4031 C 0.55102 0.85257 0.2575 0.0
C4032 C 0.56027 0.88352 0.25545 0.0
C4033 C 0.55744 0.8925 0.24566 0.0
C4034 C 0.54521 0.87068 0.23787 0.0
C4035 C 0.53571 0.83983 0.23986 0.0
C4036 C 0.53853 0.83074 0.24963 0.0
C4037 C 0.45825 0.76472 0.29904 0.0
C4038 C 0.44054 0.73874 0.29292 0.0
C4039 C 0.48807 0.78726 0.29597 0.0
C4040 C 0.50058 0.78366 0.28685 0.0
C4041 C 0.48369 0.75641 0.28123 0.0
C4042 C 0.45386 0.73427 0.28419 0.0
C4043 C 0.52947 0.80935 0.28248 0.0
C4044 C 0.528 0.81917 0.27264 0.0
C4045 C 0.55785 0.82437 0.28781 0.0
C4046 C 0.56075 0.81472 0.2982 0.0
C4047 C 0.55181 0.78384 0.30027 0.0
C4048 C 0.55334 0.77467 0.31016 0.0
C4049 C 0.56413 0.79624 0.31803 0.0
C4050 C 0.57358 0.82707 0.31602 0.0
C4051 C 0.57199 0.83634 0.30614 0.0
H4052 H 0.5652 0.78907 0.32569 0.0
H4053 H 0.54303 0.87768 0.2303 0.0
H4054 H 0.1235 0.7702 0.25337 0.0
H4055 H 0.16603 0.76836 0.26175 0.0
H4056 H 0.10089 0.69832 0.28219 0.0
H4057 H 0.05833 0.69948 0.27371 0.0
H4058 H 0.1857 0.78257 0.28073 0.0
H4059 H 0.12845 0.65268 0.29021 0.0
H4060 H 0.08923 0.60227 0.28322 0.0
H4061 H 0.10696 0.64103 0.25323 0.0
H4062 H 0.14654 0.69154 0.26002 0.0
H4063 H 0.26238 0.69913 0.30911 0.0
H4064 H 0.21847 0.70615 0.30519 0.0
H4065 H 0.27069 0.76745 0.28063 0.0
H4066 H 0.31419 0.76014 0.28442 0.0
H4067 H 0.19004 0.68729 0.28623 0.0
H4068 H 0.24452 0.81776 0.27679 0.0
H4069 H 0.28497 0.86799 0.28349 0.0
H4070 H 0.27468 0.82797 0.31304 0.0
H4071 H 0.23392 0.77763 0.30656 0.0
C4072 C 0.11818 0.75397 0.25952 0.0
C4073 C 0.08749 0.73488 0.26283 0.0
C4074 C 0.14254 0.75313 0.26436 0.0
C4075 C 0.13672 0.73319 0.2726 0.0
C4076 C 0.10601 0.71361 0.27577 0.0
C4077 C 0.08165 0.71429 0.27089 0.0
C4078 C 0.16283 0.73355 0.27807 0.0
C4079 C 0.18681 0.76178 0.28184 0.0
C4080 C 0.1638 0.70628 0.27984 0.0
C4081 C 0.14018 0.67597 0.27565 0.0
C4082 C 0.12402 0.65041 0.28212 0.0
C4083 C 0.10172 0.62183 0.27819 0.0
C4084 C 0.09552 0.61848 0.26779 0.0
C4085 C 0.11168 0.64369 0.26129 0.0
C4086 C 0.13402 0.67231 0.26518 0.0
C4087 C 0.26488 0.71509 0.30316 0.0
C4088 C 0.2916 0.72914 0.29706 0.0
C4089 C 0.23971 0.71884 0.30086 0.0
C4090 C 0.24129 0.73722 0.29259 0.0
C4091 C 0.26902 0.75336 0.28709 0.0
C4092 C 0.29389 0.74921 0.28926 0.0
C4093 C 0.21307 0.73633 0.28874 0.0
C4094 C 0.18871 0.70801 0.28525 0.0
C4095 C 0.21188 0.76351 0.28717 0.0
C4096 C 0.23629 0.79382 0.29115 0.0
C4097 C 0.25079 0.81969 0.28472 0.0
C4098 C 0.27381 0.84819 0.28848 0.0
C4099 C 0.28245 0.85116 0.29868 0.0
C4100 C 0.26807 0.82563 0.30514 0.0
C4101 C 0.24505 0.79709 0.30142 0.0
H4102 H 0.30024 0.87326 0.30157 0.0
H4103 H 0.07824 0.59634 0.26477 0.0
loop_
_geom_bond_atom_site_label_1
_geom_bond_atom_site_label_2
_geom_bond_distance
_geom_bond_site_symmetry_2
_ccdc_geom_bond_type
C0 O1 1.306 . S
C0 O3 1.160 1_565 S
O1 C0 1.306 . S
O1 Cd2 2.228 . S
Cd2 O1 2.228 . S
Cd2 O6 2.273 . S
Cd2 O10 2.292 . S
O3 C0 1.160 1_545 S
O3 Cd4 2.203 . S
Cd4 O3 2.203 . S
Cd4 O6 2.411 1_545 S
Cd4 O7 2.333 . S
Cd4 O8 2.352 . S
Cd4 O12 2.277 . S
Cd4 O13 2.356 . S
C5 O10 1.191 1_545 S
C5 O12 1.226 . S
O6 Cd2 2.273 . S
O6 Cd4 2.411 1_565 S
O6 C9 1.320 1_565 S
O7 Cd4 2.333 . S
O7 C9 1.214 . S
O8 Cd4 2.352 . S
O8 C11 1.258 . S
C9 O6 1.320 1_545 S
C9 O7 1.214 . S
O10 Cd2 2.292 . S
O10 C5 1.191 1_565 S
C11 O8 1.258 . S
C11 O13 1.282 . S
O12 Cd4 2.277 . S
O12 C5 1.226 . S
O13 Cd4 2.356 . S
O13 C11 1.282 . S
C14 O15 1.306 . S
C14 O17 1.130 1_655 S
O15 C14 1.306 . S
O15 Cd16 2.228 . S
Cd16 O15 2.228 . S
Cd16 O20 2.273 . S
Cd16 O24 2.277 . S
O17 C14 1.130 1_455 S
O17 Cd18 2.209 . S
Cd18 O17 2.209 . S
Cd18 O20 2.411 1_455 S
Cd18 O21 2.333 . S
Cd18 O22 2.352 . S
Cd18 O26 2.277 . S
Cd18 O27 2.356 . S
C19 O24 1.209 1_455 S
C19 O26 1.226 . S
O20 Cd16 2.273 . S
O20 Cd18 2.411 1_655 S
O20 C23 1.320 1_655 S
O21 Cd18 2.333 . S
O21 C23 1.214 . S
O22 Cd18 2.352 . S
O22 C25 1.258 . S
C23 O20 1.320 1_455 S
C23 O21 1.214 . S
O24 Cd16 2.277 . S
O24 C19 1.209 1_655 S
C25 O22 1.258 . S
C25 O27 1.282 . S
O26 Cd18 2.277 . S
O26 C19 1.226 . S
O27 Cd18 2.356 . S
O27 C25 1.282 . S
C28 O29 1.306 . S
C28 O31 1.160 . S
O29 C28 1.306 . S
O29 Cd30 2.228 . S
Cd30 O29 2.228 . S
Cd30 O34 2.273 . S
Cd30 O38 2.277 . S
O31 C28 1.160 . S
O31 Cd32 2.203 . S
Cd32 O31 2.203 . S
Cd32 O34 2.411 . S
Cd32 O35 2.333 . S
Cd32 O36 2.352 . S
Cd32 O40 2.277 . S
Cd32 O41 2.356 . S
C33 O38 1.209 . S
C33 O40 1.226 . S
O34 Cd30 2.273 . S
O34 Cd32 2.411 . S
O34 C37 1.320 . S
O35 Cd32 2.333 . S
O35 C37 1.214 . S
O36 Cd32 2.352 . S
O36 C39 1.258 . S
C37 O34 1.320 . S
C37 O35 1.214 . S
O38 Cd30 2.277 . S
O38 C33 1.209 . S
C39 O36 1.258 . S
C39 O41 1.282 . S
O40 Cd32 2.277 . S
O40 C33 1.226 . S
O41 Cd32 2.356 . S
O41 C39 1.282 . S
C42 O43 1.306 . S
C42 O45 1.160 . S
O43 C42 1.306 . S
O43 Cd44 2.228 . S
Cd44 O43 2.228 . S
Cd44 O48 2.273 . S
Cd44 O52 2.277 . S
O45 C42 1.160 . S
O45 Cd46 2.203 . S
Cd46 O45 2.203 . S
Cd46 O48 2.411 . S
Cd46 O49 2.333 1_545 S
Cd46 O50 2.343 1_545 S
Cd46 O54 2.277 1_545 S
Cd46 O55 2.356 1_545 S
C47 O52 1.209 . S
C47 O54 1.226 1_545 S
O48 Cd44 2.273 . S
O48 Cd46 2.411 . S
O48 C51 1.320 . S
O49 Cd46 2.333 1_565 S
O49 C51 1.214 1_565 S
O50 Cd46 2.343 1_565 S
O50 C53 1.272 . S
C51 O48 1.320 . S
C51 O49 1.214 1_545 S
O52 Cd44 2.277 . S
O52 C47 1.209 . S
C53 O50 1.272 . S
C53 O55 1.282 . S
O54 Cd46 2.277 1_565 S
O54 C47 1.226 1_565 S
O55 Cd46 2.356 1_565 S
O55 C53 1.282 . S
C56 O57 1.306 . S
C56 O59 1.160 1_655 S
O57 C56 1.306 . S
O57 Cd58 2.228 . S
Cd58 O57 2.228 . S
Cd58 O62 2.273 . S
Cd58 O66 2.277 . S
O59 C56 1.160 1_455 S
O59 Cd60 2.203 . S
Cd60 O59 2.203 . S
Cd60 O62 2.411 1_455 S
Cd60 O63 2.333 . S
Cd60 O64 2.352 . S
Cd60 O68 2.277 . S
Cd60 O69 2.356 . S
C61 O66 1.209 1_455 S
C61 O68 1.226 . S
O62 Cd58 2.273 . S
O62 Cd60 2.411 1_655 S
O62 C65 1.320 1_655 S
O63 Cd60 2.333 . S
O63 C65 1.214 . S
O64 Cd60 2.352 . S
O64 C67 1.258 . S
C65 O62 1.320 1_455 S
C65 O63 1.214 . S
O66 Cd58 2.277 . S
O66 C61 1.209 1_655 S
C67 O64 1.258 . S
C67 O69 1.282 . S
O68 Cd60 2.277 . S
O68 C61 1.226 . S
O69 Cd60 2.356 . S
O69 C67 1.282 . S
C70 O71 1.306 . S
C70 O73 1.160 . S
O71 C70 1.306 . S
O71 Cd72 2.228 . S
Cd72 O71 2.228 . S
Cd72 O76 2.273 . S
Cd72 O80 2.277 . S
O73 C70 1.160 . S
O73 Cd74 2.203 . S
Cd74 O73 2.203 . S
Cd74 O76 2.411 . S
Cd74 O77 2.333 . S
Cd74 O78 2.352 . S
Cd74 O82 2.277 . S
Cd74 O83 2.356 . S
C75 O80 1.209 . S
C75 O82 1.226 . S
O76 Cd72 2.273 . S
O76 Cd74 2.411 . S
O76 C79 1.320 . S
O77 Cd74 2.333 . S
O77 C79 1.214 . S
O78 Cd74 2.352 . S
O78 C81 1.258 . S
C79 O76 1.320 . S
C79 O77 1.214 . S
O80 Cd72 2.277 . S
O80 C75 1.209 . S
C81 O78 1.258 . S
C81 O83 1.282 . S
O82 Cd74 2.277 . S
O82 C75 1.226 . S
O83 Cd74 2.356 . S
O83 C81 1.282 . S
C84 O85 1.306 . S
C84 O87 1.160 . S
O85 C84 1.306 . S
O85 Cd86 2.228 . S
Cd86 O85 2.228 . S
Cd86 O90 2.273 . S
Cd86 O94 2.277 . S
O87 C84 1.160 . S
O87 Cd88 2.203 . S
Cd88 O87 2.203 . S
Cd88 O90 2.411 . S
Cd88 O91 2.333 . S
Cd88 O92 2.352 . S
Cd88 O96 2.277 . S
Cd88 O97 2.356 . S
C89 O94 1.209 . S
C89 O96 1.226 . S
O90 Cd86 2.273 . S
O90 Cd88 2.411 . S
O90 C93 1.320 . S
O91 Cd88 2.333 . S
O91 C93 1.214 . S
O92 Cd88 2.352 . S
O92 C95 1.258 . S
C93 O90 1.320 . S
C93 O91 1.214 . S
O94 Cd86 2.277 . S
O94 C89 1.209 . S
C95 O92 1.258 . S
C95 O97 1.282 . S
O96 Cd88 2.277 . S
O96 C89 1.226 . S
O97 Cd88 2.356 . S
O97 C95 1.282 . S
C98 O99 1.306 . S
C98 O101 1.160 . S
O99 C98 1.306 . S
O99 Cd100 2.228 . S
Cd100 O99 2.228 . S
Cd100 O104 2.273 . S
Cd100 O108 2.277 . S
O101 C98 1.160 . S
O101 Cd102 2.203 . S
Cd102 O101 2.203 . S
Cd102 O104 2.411 . S
Cd102 O105 2.333 . S
Cd102 O106 2.352 . S
Cd102 O110 2.277 . S
Cd102 O111 2.356 . S
C103 O108 1.209 . S
C103 O110 1.226 . S
O104 Cd100 2.273 . S
O104 Cd102 2.411 . S
O104 C107 1.320 . S
O105 Cd102 2.333 . S
O105 C107 1.214 . S
O106 Cd102 2.352 . S
O106 C109 1.258 . S
C107 O104 1.320 . S
C107 O105 1.214 . S
O108 Cd100 2.277 . S
O108 C103 1.209 . S
C109 O106 1.258 . S
C109 O111 1.282 . S
O110 Cd102 2.277 . S
O110 C103 1.226 . S
O111 Cd102 2.356 . S
O111 C109 1.282 . S
C112 O113 1.306 . S
C112 O115 1.160 . S
O113 C112 1.306 . S
O113 Cd114 2.228 . S
Cd114 O113 2.228 . S
Cd114 O118 2.273 . S
Cd114 O122 2.277 . S
O115 C112 1.160 . S
O115 Cd116 2.203 . S
Cd116 O115 2.203 . S
Cd116 O118 2.411 . S
Cd116 O119 2.333 . S
Cd116 O120 2.352 1_655 S
Cd116 O124 2.277 . S
Cd116 O125 2.356 1_655 S
C117 O122 1.209 . S
C117 O124 1.226 . S
O118 Cd114 2.273 . S
O118 Cd116 2.411 . S
O118 C121 1.320 . S
O119 Cd116 2.333 . S
O119 C121 1.214 . S
O120 Cd116 2.352 1_455 S
O120 C123 1.258 . S
C121 O118 1.320 . S
C121 O119 1.214 . S
O122 Cd114 2.277 . S
O122 C117 1.209 . S
C123 O120 1.258 . S
C123 O125 1.282 . S
O124 Cd116 2.277 . S
O124 C117 1.226 . S
O125 Cd116 2.356 1_455 S
O125 C123 1.282 . S
C126 O127 1.306 . S
C126 O129 1.160 . S
O127 C126 1.306 . S
O127 Cd128 2.228 1_455 S
Cd128 O127 2.228 1_655 S
Cd128 O132 2.273 . S
Cd128 O136 2.277 . S
O129 C126 1.160 . S
O129 Cd130 2.203 1_455 S
Cd130 O129 2.203 1_655 S
Cd130 O132 2.411 . S
Cd130 O133 2.333 . S
Cd130 O134 2.352 . S
Cd130 O138 2.277 . S
Cd130 O139 2.356 . S
C131 O136 1.209 . S
C131 O138 1.226 . S
O132 Cd128 2.273 . S
O132 Cd130 2.411 . S
O132 C135 1.320 . S
O133 Cd130 2.333 . S
O133 C135 1.214 . S
O134 Cd130 2.352 . S
O134 C137 1.258 . S
C135 O132 1.320 . S
C135 O133 1.214 . S
O136 Cd128 2.277 . S
O136 C131 1.209 . S
C137 O134 1.258 . S
C137 O139 1.282 . S
O138 Cd130 2.277 . S
O138 C131 1.226 . S
O139 Cd130 2.356 . S
O139 C137 1.282 . S
C140 O141 1.306 . S
C140 O143 1.160 . S
O141 C140 1.306 . S
O141 Cd142 2.228 . S
Cd142 O141 2.228 . S
Cd142 O146 2.273 . S
Cd142 O150 2.277 . S
O143 C140 1.160 . S
O143 Cd144 2.203 . S
Cd144 O143 2.203 . S
Cd144 O146 2.411 . S
Cd144 O147 2.333 . S
Cd144 O148 2.352 . S
Cd144 O152 2.277 . S
Cd144 O153 2.356 . S
C145 O150 1.209 . S
C145 O152 1.226 . S
O146 Cd142 2.273 . S
O146 Cd144 2.411 . S
O146 C149 1.320 . S
O147 Cd144 2.333 . S
O147 C149 1.214 . S
O148 Cd144 2.352 . S
O148 C151 1.258 . S
C149 O146 1.320 . S
C149 O147 1.214 . S
O150 Cd142 2.277 . S
O150 C145 1.209 . S
C151 O148 1.258 . S
C151 O153 1.282 . S
O152 Cd144 2.277 . S
O152 C145 1.226 . S
O153 Cd144 2.356 . S
O153 C151 1.282 . S
C154 O155 1.306 . S
C154 O157 1.160 . S
O155 C154 1.306 . S
O155 Cd156 2.228 . S
Cd156 O155 2.228 . S
Cd156 O160 2.273 . S
Cd156 O164 2.277 . S
O157 C154 1.160 . S
O157 Cd158 2.203 . S
Cd158 O157 2.203 . S
Cd158 O160 2.411 . S
Cd158 O161 2.333 . S
Cd158 O162 2.352 . S
Cd158 O166 2.277 . S
Cd158 O167 2.356 . S
C159 O164 1.209 . S
C159 O166 1.226 . S
O160 Cd156 2.273 . S
O160 Cd158 2.411 . S
O160 C163 1.320 . S
O161 Cd158 2.333 . S
O161 C163 1.214 . S
O162 Cd158 2.352 . S
O162 C165 1.258 . S
C163 O160 1.320 . S
C163 O161 1.214 . S
O164 Cd156 2.277 . S
O164 C159 1.209 . S
C165 O162 1.258 . S
C165 O167 1.282 . S
O166 Cd158 2.277 . S
O166 C159 1.226 . S
O167 Cd158 2.356 . S
O167 C165 1.282 . S
C168 O169 1.306 . S
C168 O171 1.160 . S
O169 C168 1.306 . S
O169 Cd170 2.228 . S
Cd170 O169 2.228 . S
Cd170 O174 2.273 . S
Cd170 O178 2.277 . S
O171 C168 1.160 . S
O171 Cd172 2.203 . S
Cd172 O171 2.203 . S
Cd172 O174 2.411 . S
Cd172 O175 2.333 . S
Cd172 O176 2.352 . S
Cd172 O180 2.277 . S
Cd172 O181 2.356 . S
C173 O178 1.209 . S
C173 O180 1.226 . S
O174 Cd170 2.273 . S
O174 Cd172 2.411 . S
O174 C177 1.320 . S
O175 Cd172 2.333 . S
O175 C177 1.214 . S
O176 Cd172 2.352 . S
O176 C179 1.258 . S
C177 O174 1.320 . S
C177 O175 1.214 . S
O178 Cd170 2.277 . S
O178 C173 1.209 . S
C179 O176 1.258 . S
C179 O181 1.282 . S
O180 Cd172 2.277 . S
O180 C173 1.226 . S
O181 Cd172 2.356 . S
O181 C179 1.282 . S
C182 O183 1.306 . S
C182 O185 1.160 . S
O183 C182 1.306 . S
O183 Cd184 2.228 . S
Cd184 O183 2.228 . S
Cd184 O188 2.273 . S
Cd184 O192 2.277 . S
O185 C182 1.160 . S
O185 Cd186 2.203 . S
Cd186 O185 2.203 . S
Cd186 O188 2.411 . S
Cd186 O189 2.333 . S
Cd186 O190 2.352 . S
Cd186 O194 2.277 . S
Cd186 O195 2.356 . S
C187 O192 1.209 . S
C187 O194 1.226 . S
O188 Cd184 2.273 . S
O188 Cd186 2.411 . S
O188 C191 1.320 . S
O189 Cd186 2.333 . S
O189 C191 1.214 . S
O190 Cd186 2.352 . S
O190 C193 1.258 . S
C191 O188 1.320 . S
C191 O189 1.214 . S
O192 Cd184 2.277 . S
O192 C187 1.209 . S
C193 O190 1.258 . S
C193 O195 1.282 . S
O194 Cd186 2.277 . S
O194 C187 1.226 . S
O195 Cd186 2.356 . S
O195 C193 1.282 . S
C196 O197 1.306 . S
C196 O199 1.160 . S
O197 C196 1.306 . S
O197 Cd198 2.228 1_545 S
Cd198 O197 2.228 1_565 S
Cd198 O202 2.273 . S
Cd198 O206 2.277 . S
O199 C196 1.160 . S
O199 Cd200 2.203 1_545 S
Cd200 O199 2.203 1_565 S
Cd200 O202 2.411 . S
Cd200 O203 2.333 . S
Cd200 O204 2.352 . S
Cd200 O208 2.277 . S
Cd200 O209 2.356 . S
C201 O206 1.209 . S
C201 O208 1.226 . S
O202 Cd198 2.273 . S
O202 Cd200 2.411 . S
O202 C205 1.320 . S
O203 Cd200 2.333 . S
O203 C205 1.214 . S
O204 Cd200 2.352 . S
O204 C207 1.258 . S
C205 O202 1.320 . S
C205 O203 1.214 . S
O206 Cd198 2.277 . S
O206 C201 1.209 . S
C207 O204 1.258 . S
C207 O209 1.282 . S
O208 Cd200 2.277 . S
O208 C201 1.226 . S
O209 Cd200 2.356 . S
O209 C207 1.282 . S
C210 O211 1.306 . S
C210 O213 1.160 . S
O211 C210 1.306 . S
O211 Cd212 2.228 . S
Cd212 O211 2.228 . S
Cd212 O216 2.273 . S
Cd212 O220 2.277 . S
O213 C210 1.160 . S
O213 Cd214 2.203 . S
Cd214 O213 2.203 . S
Cd214 O216 2.411 . S
Cd214 O217 2.333 . S
Cd214 O218 2.352 . S
Cd214 O222 2.277 . S
Cd214 O223 2.356 . S
C215 O220 1.209 . S
C215 O222 1.226 . S
O216 Cd212 2.273 . S
O216 Cd214 2.411 . S
O216 C219 1.320 . S
O217 Cd214 2.333 . S
O217 C219 1.214 . S
O218 Cd214 2.352 . S
O218 C221 1.258 . S
C219 O216 1.320 . S
C219 O217 1.214 . S
O220 Cd212 2.277 . S
O220 C215 1.209 . S
C221 O218 1.258 . S
C221 O223 1.282 . S
O222 Cd214 2.277 . S
O222 C215 1.226 . S
O223 Cd214 2.356 . S
O223 C221 1.282 . S
C224 O225 1.306 . S
C224 O227 1.160 . S
O225 C224 1.306 . S
O225 Cd226 2.228 . S
Cd226 O225 2.228 . S
Cd226 O230 2.273 . S
Cd226 O234 2.277 . S
O227 C224 1.160 . S
O227 Cd228 2.203 . S
Cd228 O227 2.203 . S
Cd228 O230 2.411 . S
Cd228 O231 2.333 . S
Cd228 O232 2.352 1_565 S
Cd228 O236 2.277 . S
Cd228 O237 2.356 1_565 S
C229 O234 1.209 . S
C229 O236 1.226 . S
O230 Cd226 2.273 . S
O230 Cd228 2.411 . S
O230 C233 1.320 . S
O231 Cd228 2.333 . S
O231 C233 1.214 . S
O232 Cd228 2.352 1_545 S
O232 C235 1.258 . S
C233 O230 1.320 . S
C233 O231 1.214 . S
O234 Cd226 2.277 . S
O234 C229 1.209 . S
C235 O232 1.258 . S
C235 O237 1.282 . S
O236 Cd228 2.277 . S
O236 C229 1.226 . S
O237 Cd228 2.356 1_545 S
O237 C235 1.282 . S
C238 O239 1.306 . S
C238 O241 1.160 . S
O239 C238 1.306 . S
O239 Cd240 2.228 . S
Cd240 O239 2.228 . S
Cd240 O244 2.273 . S
Cd240 O248 2.277 . S
O241 C238 1.160 . S
O241 Cd242 2.203 . S
Cd242 O241 2.203 . S
Cd242 O244 2.411 . S
Cd242 O245 2.333 . S
Cd242 O246 2.352 . S
Cd242 O250 2.277 . S
Cd242 O251 2.356 . S
C243 O248 1.209 . S
C243 O250 1.226 . S
O244 Cd240 2.273 . S
O244 Cd242 2.411 . S
O244 C247 1.320 . S
O245 Cd242 2.333 . S
O245 C247 1.214 . S
O246 Cd242 2.352 . S
O246 C249 1.258 . S
C247 O244 1.320 . S
C247 O245 1.214 . S
O248 Cd240 2.277 . S
O248 C243 1.209 . S
C249 O246 1.258 . S
C249 O251 1.282 . S
O250 Cd242 2.277 . S
O250 C243 1.226 . S
O251 Cd242 2.356 . S
O251 C249 1.282 . S
Zn252 O258 1.920 . S
Zn252 O264 1.898 1_445 S
Zn252 O267 1.905 . S
Zn253 O261 1.905 1_545 S
Zn253 O262 1.898 . S
Zn253 O270 1.920 1_455 S
Zn254 O257 2.080 . S
Zn254 O260 2.114 1_545 S
Zn254 O263 2.120 . S
Zn254 O265 2.120 1_445 S
Zn254 O266 2.114 . S
Zn254 O269 2.080 1_455 S
C255 O260 1.166 . S
C255 O261 1.182 . S
C256 O262 1.167 . S
C256 O263 1.299 . S
O257 Zn254 2.080 . S
O257 C271 1.305 . S
O258 Zn252 1.920 . S
O258 C271 1.234 . S
C259 O264 1.167 . S
C259 O265 1.299 . S
O260 Zn254 2.114 1_565 S
O260 C255 1.166 . S
O261 Zn253 1.905 1_565 S
O261 C255 1.182 . S
O262 Zn253 1.898 . S
O262 C256 1.167 . S
O263 Zn254 2.120 . S
O263 C256 1.299 . S
O264 Zn252 1.898 1_665 S
O264 C259 1.167 . S
O265 Zn254 2.120 1_665 S
O265 C259 1.299 . S
O266 Zn254 2.114 . S
O266 C268 1.166 . S
O267 Zn252 1.905 . S
O267 C268 1.182 . S
C268 O266 1.166 . S
C268 O267 1.182 . S
O269 Zn254 2.080 1_655 S
O269 C272 1.305 . S
O270 Zn253 1.920 1_655 S
O270 C272 1.234 . S
C271 O257 1.305 . S
C271 O258 1.234 . S
C272 O269 1.305 . S
C272 O270 1.234 . S
Zn273 O279 1.920 1_545 S
Zn273 O285 1.898 . S
Zn273 O288 1.905 1_455 S
Zn274 O282 1.905 . S
Zn274 O283 1.898 1_445 S
Zn274 O291 1.920 1_545 S
Zn275 O278 2.080 1_545 S
Zn275 O281 2.114 . S
Zn275 O284 2.120 1_445 S
Zn275 O286 2.120 . S
Zn275 O287 2.114 1_455 S
Zn275 O290 2.080 . S
C276 O281 1.166 . S
C276 O282 1.182 . S
C277 O283 1.167 . S
C277 O284 1.299 . S
O278 Zn275 2.080 1_565 S
O278 C292 1.305 . S
O279 Zn273 1.920 1_565 S
O279 C292 1.234 . S
C280 O285 1.167 . S
C280 O286 1.299 . S
O281 Zn275 2.114 . S
O281 C276 1.166 . S
O282 Zn274 1.905 . S
O282 C276 1.182 . S
O283 Zn274 1.898 1_665 S
O283 C277 1.167 . S
O284 Zn275 2.120 1_665 S
O284 C277 1.299 . S
O285 Zn273 1.898 . S
O285 C280 1.167 . S
O286 Zn275 2.120 . S
O286 C280 1.299 . S
O287 Zn275 2.114 1_655 S
O287 C289 1.166 . S
O288 Zn273 1.905 1_655 S
O288 C289 1.182 . S
C289 O287 1.166 . S
C289 O288 1.182 . S
O290 Zn275 2.080 . S
O290 C293 1.305 . S
O291 Zn274 1.920 1_565 S
O291 C293 1.234 1_565 S
C292 O278 1.305 . S
C292 O279 1.234 . S
C293 O290 1.305 . S
C293 O291 1.234 1_545 S
Zn294 O300 1.920 1_545 S
Zn294 O306 1.898 . S
Zn294 O309 1.905 1_455 S
Zn295 O303 1.905 . S
Zn295 O304 1.898 1_445 S
Zn295 O312 1.920 . S
Zn296 O299 2.080 1_545 S
Zn296 O302 2.114 . S
Zn296 O305 2.120 1_445 S
Zn296 O307 2.120 . S
Zn296 O308 2.114 1_455 S
Zn296 O311 2.080 . S
C297 O302 1.166 . S
C297 O303 1.182 . S
C298 O304 1.167 . S
C298 O305 1.299 . S
O299 Zn296 2.080 1_565 S
O299 C313 1.305 . S
O300 Zn294 1.920 1_565 S
O300 C313 1.234 . S
C301 O306 1.167 . S
C301 O307 1.299 . S
O302 Zn296 2.114 . S
O302 C297 1.166 . S
O303 Zn295 1.905 . S
O303 C297 1.182 . S
O304 Zn295 1.898 1_665 S
O304 C298 1.167 . S
O305 Zn296 2.120 1_665 S
O305 C298 1.299 . S
O306 Zn294 1.898 . S
O306 C301 1.167 . S
O307 Zn296 2.120 . S
O307 C301 1.299 . S
O308 Zn296 2.114 1_655 S
O308 C310 1.166 . S
O309 Zn294 1.905 1_655 S
O309 C310 1.182 . S
C310 O308 1.166 . S
C310 O309 1.182 . S
O311 Zn296 2.080 . S
O311 C314 1.305 . S
O312 Zn295 1.920 . S
O312 C314 1.234 . S
C313 O299 1.305 . S
C313 O300 1.234 . S
C314 O311 1.305 . S
C314 O312 1.234 . S
Zn315 O321 1.920 . S
Zn315 O327 1.898 1_445 S
Zn315 O330 1.905 . S
Zn316 O324 1.905 1_545 S
Zn316 O325 1.898 . S
Zn316 O333 1.920 1_455 S
Zn317 O320 2.080 . S
Zn317 O323 2.114 1_545 S
Zn317 O326 2.120 . S
Zn317 O328 2.120 1_445 S
Zn317 O329 2.114 . S
Zn317 O332 2.080 1_455 S
C318 O323 1.166 . S
C318 O324 1.182 . S
C319 O325 1.167 . S
C319 O326 1.299 . S
O320 Zn317 2.080 . S
O320 C334 1.305 . S
O321 Zn315 1.920 . S
O321 C334 1.234 . S
C322 O327 1.167 . S
C322 O328 1.299 . S
O323 Zn317 2.114 1_565 S
O323 C318 1.166 . S
O324 Zn316 1.905 1_565 S
O324 C318 1.182 . S
O325 Zn316 1.898 . S
O325 C319 1.167 . S
O326 Zn317 2.120 . S
O326 C319 1.299 . S
O327 Zn315 1.898 1_665 S
O327 C322 1.167 . S
O328 Zn317 2.120 1_665 S
O328 C322 1.299 . S
O329 Zn317 2.114 . S
O329 C331 1.166 . S
O330 Zn315 1.905 . S
O330 C331 1.182 . S
C331 O329 1.166 . S
C331 O330 1.182 . S
O332 Zn317 2.080 1_655 S
O332 C335 1.305 . S
O333 Zn316 1.920 1_655 S
O333 C335 1.234 . S
C334 O320 1.305 . S
C334 O321 1.234 . S
C335 O332 1.305 . S
C335 O333 1.234 . S
Zn336 O342 1.920 . S
Zn336 O348 1.898 . S
Zn336 O351 1.905 . S
Zn337 O345 1.905 . S
Zn337 O346 1.898 . S
Zn337 O354 1.920 . S
Zn338 O341 2.080 . S
Zn338 O344 2.114 . S
Zn338 O347 2.120 . S
Zn338 O349 2.120 . S
Zn338 O350 2.114 . S
Zn338 O353 2.080 . S
C339 O344 1.166 . S
C339 O345 1.182 . S
C340 O346 1.167 . S
C340 O347 1.299 . S
O341 Zn338 2.080 . S
O341 C355 1.305 . S
O342 Zn336 1.920 . S
O342 C355 1.234 . S
C343 O348 1.167 . S
C343 O349 1.299 . S
O344 Zn338 2.114 . S
O344 C339 1.166 . S
O345 Zn337 1.905 . S
O345 C339 1.182 . S
O346 Zn337 1.898 . S
O346 C340 1.167 . S
O347 Zn338 2.120 . S
O347 C340 1.299 . S
O348 Zn336 1.898 . S
O348 C343 1.167 . S
O349 Zn338 2.120 . S
O349 C343 1.299 . S
O350 Zn338 2.114 . S
O350 C352 1.166 . S
O351 Zn336 1.905 . S
O351 C352 1.182 . S
C352 O350 1.166 . S
C352 O351 1.182 . S
O353 Zn338 2.080 . S
O353 C356 1.305 . S
O354 Zn337 1.920 . S
O354 C356 1.234 . S
C355 O341 1.305 . S
C355 O342 1.234 . S
C356 O353 1.305 . S
C356 O354 1.234 . S
Zn357 O363 1.920 . S
Zn357 O369 1.898 . S
Zn357 O372 1.905 . S
Zn358 O366 1.905 . S
Zn358 O367 1.898 . S
Zn358 O375 1.920 . S
Zn359 O362 2.080 . S
Zn359 O365 2.114 . S
Zn359 O368 2.120 . S
Zn359 O370 2.120 . S
Zn359 O371 2.114 . S
Zn359 O374 2.080 . S
C360 O365 1.166 . S
C360 O366 1.182 . S
C361 O367 1.167 . S
C361 O368 1.299 . S
O362 Zn359 2.080 . S
O362 C376 1.305 . S
O363 Zn357 1.920 . S
O363 C376 1.234 . S
C364 O369 1.167 . S
C364 O370 1.299 . S
O365 Zn359 2.114 . S
O365 C360 1.166 . S
O366 Zn358 1.905 . S
O366 C360 1.182 . S
O367 Zn358 1.898 . S
O367 C361 1.167 . S
O368 Zn359 2.120 . S
O368 C361 1.299 . S
O369 Zn357 1.898 . S
O369 C364 1.167 . S
O370 Zn359 2.120 . S
O370 C364 1.299 . S
O371 Zn359 2.114 . S
O371 C373 1.166 . S
O372 Zn357 1.905 . S
O372 C373 1.182 . S
C373 O371 1.166 . S
C373 O372 1.182 . S
O374 Zn359 2.080 . S
O374 C377 1.305 . S
O375 Zn358 1.920 . S
O375 C377 1.234 . S
C376 O362 1.305 . S
C376 O363 1.234 . S
C377 O374 1.305 . S
C377 O375 1.234 . S
Zn378 O384 1.920 . S
Zn378 O390 1.898 . S
Zn378 O393 1.905 . S
Zn379 O387 1.905 . S
Zn379 O388 1.898 . S
Zn379 O396 1.920 . S
Zn380 O383 2.080 . S
Zn380 O386 2.114 . S
Zn380 O389 2.120 . S
Zn380 O391 2.120 . S
Zn380 O392 2.114 . S
Zn380 O395 2.080 . S
C381 O386 1.166 . S
C381 O387 1.182 . S
C382 O388 1.167 . S
C382 O389 1.299 . S
O383 Zn380 2.080 . S
O383 C397 1.305 . S
O384 Zn378 1.920 . S
O384 C397 1.234 . S
C385 O390 1.167 . S
C385 O391 1.299 . S
O386 Zn380 2.114 . S
O386 C381 1.166 . S
O387 Zn379 1.905 . S
O387 C381 1.182 . S
O388 Zn379 1.898 . S
O388 C382 1.167 . S
O389 Zn380 2.120 . S
O389 C382 1.299 . S
O390 Zn378 1.898 . S
O390 C385 1.167 . S
O391 Zn380 2.120 . S
O391 C385 1.299 . S
O392 Zn380 2.114 . S
O392 C394 1.166 . S
O393 Zn378 1.905 . S
O393 C394 1.182 . S
C394 O392 1.166 . S
C394 O393 1.182 . S
O395 Zn380 2.080 . S
O395 C398 1.305 . S
O396 Zn379 1.920 . S
O396 C398 1.234 . S
C397 O383 1.305 . S
C397 O384 1.234 . S
C398 O395 1.305 . S
C398 O396 1.234 . S
Zn399 O405 1.920 . S
Zn399 O411 1.898 . S
Zn399 O414 1.905 . S
Zn400 O408 1.905 . S
Zn400 O409 1.898 . S
Zn400 O417 1.920 . S
Zn401 O404 2.080 . S
Zn401 O407 2.114 . S
Zn401 O410 2.120 . S
Zn401 O412 2.120 . S
Zn401 O413 2.114 . S
Zn401 O416 2.080 . S
C402 O407 1.166 . S
C402 O408 1.182 . S
C403 O409 1.167 . S
C403 O410 1.299 . S
O404 Zn401 2.080 . S
O404 C418 1.269 1_556 S
O405 Zn399 1.920 . S
O405 C418 1.278 . S
C406 O411 1.226 . S
C406 O412 1.250 1_554 S
O407 Zn401 2.114 . S
O407 C402 1.166 . S
O408 Zn400 1.905 . S
O408 C402 1.182 . S
O409 Zn400 1.898 . S
O409 C403 1.167 . S
O410 Zn401 2.120 . S
O410 C403 1.299 . S
O411 Zn399 1.898 . S
O411 C406 1.226 . S
O412 Zn401 2.120 . S
O412 C406 1.250 1_556 S
O413 Zn401 2.114 . S
O413 C415 1.162 1_556 S
O414 Zn399 1.905 . S
O414 C415 1.187 . S
C415 O413 1.162 1_554 S
C415 O414 1.187 . S
O416 Zn401 2.080 . S
O416 C419 1.305 . S
O417 Zn400 1.920 . S
O417 C419 1.234 . S
C418 O404 1.269 1_554 S
C418 O405 1.278 . S
C419 O416 1.305 . S
C419 O417 1.234 . S
Zn420 O426 1.920 . S
Zn420 O432 1.898 . S
Zn420 O435 1.905 . S
Zn421 O429 1.905 . S
Zn421 O430 1.898 . S
Zn421 O438 1.920 . S
Zn422 O425 2.080 . S
Zn422 O428 2.114 . S
Zn422 O431 2.120 . S
Zn422 O433 2.120 . S
Zn422 O434 2.114 . S
Zn422 O437 2.080 . S
C423 O428 1.166 . S
C423 O429 1.182 . S
C424 O430 1.167 . S
C424 O431 1.299 . S
O425 Zn422 2.080 . S
O425 C439 1.305 . S
O426 Zn420 1.920 . S
O426 C439 1.234 . S
C427 O432 1.167 . S
C427 O433 1.299 . S
O428 Zn422 2.114 . S
O428 C423 1.166 . S
O429 Zn421 1.905 . S
O429 C423 1.182 . S
O430 Zn421 1.898 . S
O430 C424 1.167 . S
O431 Zn422 2.120 . S
O431 C424 1.299 . S
O432 Zn420 1.898 . S
O432 C427 1.167 . S
O433 Zn422 2.120 . S
O433 C427 1.299 . S
O434 Zn422 2.114 . S
O434 C436 1.166 . S
O435 Zn420 1.905 . S
O435 C436 1.182 . S
C436 O434 1.166 . S
C436 O435 1.182 . S
O437 Zn422 2.080 . S
O437 C440 1.305 . S
O438 Zn421 1.920 . S
O438 C440 1.234 . S
C439 O425 1.305 . S
C439 O426 1.234 . S
C440 O437 1.305 . S
C440 O438 1.234 . S
Zn441 O447 1.920 . S
Zn441 O453 1.898 . S
Zn441 O456 1.905 . S
Zn442 O450 1.905 . S
Zn442 O451 1.898 . S
Zn442 O459 1.920 . S
Zn443 O446 2.080 . S
Zn443 O449 2.114 . S
Zn443 O452 2.120 . S
Zn443 O454 2.120 . S
Zn443 O455 2.114 . S
Zn443 O458 2.080 . S
C444 O449 1.162 1_556 S
C444 O450 1.188 . S
C445 O451 1.226 . S
C445 O452 1.250 1_556 S
O446 Zn443 2.080 . S
O446 C460 1.305 . S
O447 Zn441 1.920 . S
O447 C460 1.234 . S
C448 O453 1.167 . S
C448 O454 1.299 . S
O449 Zn443 2.114 . S
O449 C444 1.162 1_554 S
O450 Zn442 1.905 . S
O450 C444 1.188 . S
O451 Zn442 1.898 . S
O451 C445 1.226 . S
O452 Zn443 2.120 . S
O452 C445 1.250 1_554 S
O453 Zn441 1.898 . S
O453 C448 1.167 . S
O454 Zn443 2.120 . S
O454 C448 1.299 . S
O455 Zn443 2.114 . S
O455 C457 1.166 . S
O456 Zn441 1.905 . S
O456 C457 1.182 . S
C457 O455 1.166 . S
C457 O456 1.182 . S
O458 Zn443 2.080 . S
O458 C461 1.266 1_554 S
O459 Zn442 1.920 . S
O459 C461 1.281 . S
C460 O446 1.305 . S
C460 O447 1.234 . S
C461 O458 1.266 1_556 S
C461 O459 1.281 . S
Zn462 O468 1.920 . S
Zn462 O474 1.898 . S
Zn462 O477 1.905 . S
Zn463 O471 1.905 . S
Zn463 O472 1.898 . S
Zn463 O480 1.920 . S
Zn464 O467 2.080 . S
Zn464 O470 2.114 . S
Zn464 O473 2.120 . S
Zn464 O475 2.120 . S
Zn464 O476 2.114 . S
Zn464 O479 2.080 . S
C465 O470 1.166 . S
C465 O471 1.182 . S
C466 O472 1.167 . S
C466 O473 1.299 . S
O467 Zn464 2.080 . S
O467 C481 1.305 . S
O468 Zn462 1.920 . S
O468 C481 1.234 . S
C469 O474 1.167 . S
C469 O475 1.299 . S
O470 Zn464 2.114 . S
O470 C465 1.166 . S
O471 Zn463 1.905 . S
O471 C465 1.182 . S
O472 Zn463 1.898 . S
O472 C466 1.167 . S
O473 Zn464 2.120 . S
O473 C466 1.299 . S
O474 Zn462 1.898 . S
O474 C469 1.167 . S
O475 Zn464 2.120 . S
O475 C469 1.299 . S
O476 Zn464 2.114 . S
O476 C478 1.166 . S
O477 Zn462 1.905 . S
O477 C478 1.182 . S
C478 O476 1.166 . S
C478 O477 1.182 . S
O479 Zn464 2.080 . S
O479 C482 1.305 . S
O480 Zn463 1.920 . S
O480 C482 1.234 . S
C481 O467 1.305 . S
C481 O468 1.234 . S
C482 O479 1.305 . S
C482 O480 1.234 . S
Zn483 O489 1.920 . S
Zn483 O495 1.898 . S
Zn483 O498 1.905 . S
Zn484 O492 1.905 . S
Zn484 O493 1.898 . S
Zn484 O501 1.920 . S
Zn485 O488 2.080 . S
Zn485 O491 2.114 . S
Zn485 O494 2.120 . S
Zn485 O496 2.120 . S
Zn485 O497 2.114 . S
Zn485 O500 2.080 . S
C486 O491 1.166 . S
C486 O492 1.182 . S
C487 O493 1.167 . S
C487 O494 1.299 . S
O488 Zn485 2.080 . S
O488 C502 1.305 . S
O489 Zn483 1.920 . S
O489 C502 1.234 . S
C490 O495 1.167 . S
C490 O496 1.299 . S
O491 Zn485 2.114 . S
O491 C486 1.166 . S
O492 Zn484 1.905 . S
O492 C486 1.182 . S
O493 Zn484 1.898 . S
O493 C487 1.167 . S
O494 Zn485 2.120 . S
O494 C487 1.299 . S
O495 Zn483 1.898 . S
O495 C490 1.167 . S
O496 Zn485 2.120 . S
O496 C490 1.299 . S
O497 Zn485 2.114 . S
O497 C499 1.166 . S
O498 Zn483 1.905 . S
O498 C499 1.182 . S
C499 O497 1.166 . S
C499 O498 1.182 . S
O500 Zn485 2.080 . S
O500 C503 1.305 . S
O501 Zn484 1.920 . S
O501 C503 1.234 . S
C502 O488 1.305 . S
C502 O489 1.234 . S
C503 O500 1.305 . S
C503 O501 1.234 . S
H504 C522 0.951 . S
H505 C524 0.951 . S
H506 C526 0.950 . S
H507 C527 0.950 . S
H508 C529 0.950 . S
H509 C532 0.950 . S
H510 C533 0.950 . S
H511 C535 0.950 . S
H512 C536 0.950 . S
H513 C537 0.951 . S
H514 C539 0.951 . S
H515 C541 0.950 . S
H516 C542 0.950 . S
H517 C544 0.950 . S
H518 C547 0.950 . S
H519 C548 0.950 . S
H520 C550 0.950 . S
H521 C551 0.950 . S
C522 H504 0.951 . S
C522 C523 1.366 . S
C522 C524 1.388 . S
C523 C522 1.366 . S
C523 C527 1.385 . S
C524 H505 0.951 . S
C524 C522 1.388 . S
C524 C525 1.366 . S
C525 C524 1.366 . S
C525 C526 1.414 . S
C525 C528 1.499 . S
C526 H506 0.950 . S
C526 C525 1.414 . S
C526 C527 1.374 . S
C527 H507 0.950 . S
C527 C523 1.385 . S
C527 C526 1.374 . S
C528 C525 1.499 . S
C528 C529 1.373 . S
C528 C530 1.389 . S
C529 H508 0.950 . S
C529 C528 1.373 . S
C529 C545 1.377 . S
C530 C528 1.389 . S
C530 C531 1.524 . S
C530 C544 1.377 . S
C531 C530 1.524 . S
C531 C532 1.397 . S
C531 C536 1.363 . S
C532 H509 0.950 . S
C532 C531 1.397 . S
C532 C533 1.334 . S
C533 H510 0.950 . S
C533 C532 1.334 . S
C533 C534 1.287 . S
C534 C533 1.287 . S
C534 C535 1.524 . S
C534 H553 0.913 . S
C535 H511 0.950 . S
C535 C534 1.524 . S
C535 C536 1.415 . S
C536 H512 0.950 . S
C536 C531 1.363 . S
C536 C535 1.415 . S
C537 H513 0.951 . S
C537 C538 1.366 . S
C537 C539 1.388 . S
C538 C537 1.366 . S
C538 C542 1.385 . S
C539 H514 0.951 . S
C539 C537 1.388 . S
C539 C540 1.366 . S
C540 C539 1.366 . S
C540 C541 1.414 . S
C540 C543 1.499 . S
C541 H515 0.950 . S
C541 C540 1.414 . S
C541 C542 1.374 . S
C542 H516 0.950 . S
C542 C538 1.385 . S
C542 C541 1.374 . S
C543 C540 1.499 . S
C543 C544 1.373 . S
C543 C545 1.389 . S
C544 H517 0.950 . S
C544 C530 1.377 . S
C544 C543 1.373 . S
C545 C529 1.377 . S
C545 C543 1.389 . S
C545 C546 1.524 . S
C546 C545 1.524 . S
C546 C547 1.397 . S
C546 C551 1.363 . S
C547 H518 0.950 . S
C547 C546 1.397 . S
C547 C548 1.334 . S
C548 H519 0.950 . S
C548 C547 1.334 . S
C548 C549 1.287 . S
C549 C548 1.287 . S
C549 C550 1.524 . S
C549 H552 0.999 . S
C550 H520 0.950 . S
C550 C549 1.524 . S
C550 C551 1.415 . S
C551 H521 0.950 . S
C551 C546 1.363 . S
C551 C550 1.415 . S
H552 C549 0.999 . S
H553 C534 0.913 . S
H554 C572 0.951 . S
H555 C574 0.951 . S
H556 C576 0.950 . S
H557 C577 0.950 . S
H558 C579 0.948 . S
H559 C582 0.950 . S
H560 C583 0.950 . S
H561 C585 0.950 . S
H562 C586 0.950 . S
H563 C587 0.951 1_565 S
H564 C589 0.951 1_565 S
H565 C591 0.950 . S
H566 C592 0.950 . S
H567 C594 0.950 . S
H568 C597 0.950 1_545 S
H569 C598 0.950 . S
H570 C600 0.950 . S
H571 C601 0.950 . S
C572 H554 0.951 . S
C572 C573 1.366 . S
C572 C574 1.388 . S
C573 C572 1.366 . S
C573 C577 1.385 1_545 S
C574 H555 0.951 . S
C574 C572 1.388 . S
C574 C575 1.366 . S
C575 C574 1.366 . S
C575 C576 1.414 1_545 S
C575 C578 1.499 . S
C576 H556 0.950 . S
C576 C575 1.414 1_565 S
C576 C577 1.374 . S
C577 H557 0.950 . S
C577 C573 1.385 1_565 S
C577 C576 1.374 . S
C578 C575 1.499 . S
C578 C579 1.377 1_545 S
C578 C580 1.389 . S
C579 H558 0.948 . S
C579 C578 1.377 1_565 S
C579 C595 1.375 1_565 S
C580 C578 1.389 . S
C580 C581 1.524 . S
C580 C594 1.377 . S
C581 C580 1.524 . S
C581 C582 1.397 . S
C581 C586 1.363 . S
C582 H559 0.950 . S
C582 C581 1.397 . S
C582 C583 1.334 . S
C583 H560 0.950 . S
C583 C582 1.334 . S
C583 C584 1.287 . S
C584 C583 1.287 . S
C584 C585 1.524 . S
C584 H603 0.913 . S
C585 H561 0.950 . S
C585 C584 1.524 . S
C585 C586 1.415 . S
C586 H562 0.950 . S
C586 C581 1.363 . S
C586 C585 1.415 . S
C587 H563 0.951 1_545 S
C587 C588 1.366 . S
C587 C589 1.388 . S
C588 C587 1.366 . S
C588 C592 1.385 . S
C589 H564 0.951 1_545 S
C589 C587 1.388 . S
C589 C590 1.366 . S
C590 C589 1.366 . S
C590 C591 1.414 . S
C590 C593 1.499 . S
C591 H565 0.950 . S
C591 C590 1.414 . S
C591 C592 1.374 . S
C592 H566 0.950 . S
C592 C588 1.385 . S
C592 C591 1.374 . S
C593 C590 1.499 . S
C593 C594 1.373 . S
C593 C595 1.389 . S
C594 H567 0.950 . S
C594 C580 1.377 . S
C594 C593 1.373 . S
C595 C579 1.375 1_545 S
C595 C593 1.389 . S
C595 C596 1.524 1_545 S
C596 C595 1.524 1_565 S
C596 C597 1.397 . S
C596 C601 1.363 . S
C597 H568 0.950 1_565 S
C597 C596 1.397 . S
C597 C598 1.334 . S
C598 H569 0.950 . S
C598 C597 1.334 . S
C598 C599 1.287 . S
C599 C598 1.287 . S
C599 C600 1.524 . S
C599 H602 0.999 . S
C600 H570 0.950 . S
C600 C599 1.524 . S
C600 C601 1.415 . S
C601 H571 0.950 . S
C601 C596 1.363 . S
C601 C600 1.415 . S
H602 C599 0.999 . S
H603 C584 0.913 . S
H604 C622 0.951 . S
H605 C624 0.951 . S
H606 C626 0.955 . S
H607 C627 0.950 1_655 S
H608 C629 0.950 . S
H609 C632 0.950 . S
H610 C633 0.950 . S
H611 C635 0.950 . S
H612 C636 0.950 . S
H613 C637 0.951 . S
H614 C639 0.951 . S
H615 C641 0.950 . S
H616 C642 0.950 . S
H617 C644 0.950 . S
H618 C647 0.950 . S
H619 C648 0.950 . S
H620 C650 0.951 . S
H621 C651 0.950 1_655 S
C622 H604 0.951 . S
C622 C623 1.366 . S
C622 C624 1.388 . S
C623 C622 1.366 . S
C623 C627 1.385 . S
C624 H605 0.951 . S
C624 C622 1.388 . S
C624 C625 1.366 . S
C625 C624 1.366 . S
C625 C626 1.413 1_455 S
C625 C628 1.499 . S
C626 H606 0.955 . S
C626 C625 1.413 1_655 S
C626 C627 1.370 1_655 S
C627 H607 0.950 1_455 S
C627 C623 1.385 . S
C627 C626 1.370 1_455 S
C628 C625 1.499 . S
C628 C629 1.373 . S
C628 C630 1.389 . S
C629 H608 0.950 . S
C629 C628 1.373 . S
C629 C645 1.377 . S
C630 C628 1.389 . S
C630 C631 1.524 . S
C630 C644 1.377 . S
C631 C630 1.524 . S
C631 C632 1.397 1_455 S
C631 C636 1.363 . S
C632 H609 0.950 . S
C632 C631 1.397 1_655 S
C632 C633 1.334 . S
C633 H610 0.950 . S
C633 C632 1.334 . S
C633 C634 1.287 . S
C634 C633 1.287 . S
C634 C635 1.524 1_655 S
C634 H653 0.913 . S
C635 H611 0.950 . S
C635 C634 1.524 1_455 S
C635 C636 1.415 . S
C636 H612 0.950 . S
C636 C631 1.363 . S
C636 C635 1.415 . S
C637 H613 0.951 . S
C637 C638 1.366 1_655 S
C637 C639 1.388 . S
C638 C637 1.366 1_455 S
C638 C642 1.385 . S
C639 H614 0.951 . S
C639 C637 1.388 . S
C639 C640 1.366 1_655 S
C640 C639 1.366 1_455 S
C640 C641 1.414 . S
C640 C643 1.499 . S
C641 H615 0.950 . S
C641 C640 1.414 . S
C641 C642 1.374 . S
C642 H616 0.950 . S
C642 C638 1.385 . S
C642 C641 1.374 . S
C643 C640 1.499 . S
C643 C644 1.373 . S
C643 C645 1.389 . S
C644 H617 0.950 . S
C644 C630 1.377 . S
C644 C643 1.373 . S
C645 C629 1.377 . S
C645 C643 1.389 . S
C645 C646 1.524 . S
C646 C645 1.524 . S
C646 C647 1.397 . S
C646 C651 1.363 . S
C647 H618 0.950 . S
C647 C646 1.397 . S
C647 C648 1.334 . S
C648 H619 0.950 . S
C648 C647 1.334 . S
C648 C649 1.287 . S
C649 C648 1.287 . S
C649 C650 1.524 . S
C649 H652 0.999 . S
C650 H620 0.951 . S
C650 C649 1.524 . S
C650 C651 1.415 . S
C651 H621 0.950 1_455 S
C651 C646 1.363 . S
C651 C650 1.415 . S
H652 C649 0.999 . S
H653 C634 0.913 . S
H654 C672 0.951 . S
H655 C674 0.951 . S
H656 C676 0.950 . S
H657 C677 0.950 . S
H658 C679 0.950 . S
H659 C682 0.950 . S
H660 C683 0.950 . S
H661 C685 0.950 . S
H662 C686 0.950 . S
H663 C687 0.951 . S
H664 C689 0.951 . S
H665 C691 0.950 . S
H666 C692 0.950 . S
H667 C694 0.950 . S
H668 C697 0.950 . S
H669 C698 0.950 . S
H670 C700 0.950 . S
H671 C701 0.950 . S
C672 H654 0.951 . S
C672 C673 1.366 . S
C672 C674 1.388 . S
C673 C672 1.366 . S
C673 C677 1.385 . S
C674 H655 0.951 . S
C674 C672 1.388 . S
C674 C675 1.366 . S
C675 C674 1.366 . S
C675 C676 1.414 . S
C675 C678 1.499 . S
C676 H656 0.950 . S
C676 C675 1.414 . S
C676 C677 1.374 . S
C677 H657 0.950 . S
C677 C673 1.385 . S
C677 C676 1.374 . S
C678 C675 1.499 . S
C678 C679 1.373 . S
C678 C680 1.389 . S
C679 H658 0.950 . S
C679 C678 1.373 . S
C679 C695 1.377 . S
C680 C678 1.389 . S
C680 C681 1.524 . S
C680 C694 1.377 . S
C681 C680 1.524 . S
C681 C682 1.397 . S
C681 C686 1.363 . S
C682 H659 0.950 . S
C682 C681 1.397 . S
C682 C683 1.334 . S
C683 H660 0.950 . S
C683 C682 1.334 . S
C683 C684 1.287 . S
C684 C683 1.287 . S
C684 C685 1.524 . S
C684 H703 0.913 . S
C685 H661 0.950 . S
C685 C684 1.524 . S
C685 C686 1.415 . S
C686 H662 0.950 . S
C686 C681 1.363 . S
C686 C685 1.415 . S
C687 H663 0.951 . S
C687 C688 1.366 . S
C687 C689 1.388 . S
C688 C687 1.366 . S
C688 C692 1.385 . S
C689 H664 0.951 . S
C689 C687 1.388 . S
C689 C690 1.366 . S
C690 C689 1.366 . S
C690 C691 1.414 . S
C690 C693 1.499 . S
C691 H665 0.950 . S
C691 C690 1.414 . S
C691 C692 1.374 . S
C692 H666 0.950 . S
C692 C688 1.385 . S
C692 C691 1.374 . S
C693 C690 1.499 . S
C693 C694 1.373 . S
C693 C695 1.389 . S
C694 H667 0.950 . S
C694 C680 1.377 . S
C694 C693 1.373 . S
C695 C679 1.377 . S
C695 C693 1.389 . S
C695 C696 1.524 . S
C696 C695 1.524 . S
C696 C697 1.397 . S
C696 C701 1.363 . S
C697 H668 0.950 . S
C697 C696 1.397 . S
C697 C698 1.334 . S
C698 H669 0.950 . S
C698 C697 1.334 . S
C698 C699 1.287 . S
C699 C698 1.287 . S
C699 C700 1.524 . S
C699 H702 0.999 . S
C700 H670 0.950 . S
C700 C699 1.524 . S
C700 C701 1.415 . S
C701 H671 0.950 . S
C701 C696 1.363 . S
C701 C700 1.415 . S
H702 C699 0.999 . S
H703 C684 0.913 . S
H704 C722 0.951 . S
H705 C724 0.951 . S
H706 C726 0.936 1_565 S
H707 C727 0.950 1_565 S
H708 C729 0.950 . S
H709 C732 0.950 . S
H710 C733 0.950 . S
H711 C735 0.950 . S
H712 C736 0.950 . S
H713 C737 0.951 . S
H714 C739 0.951 . S
H715 C741 0.950 . S
H716 C742 0.950 . S
H717 C744 0.950 . S
H718 C747 0.950 . S
H719 C748 0.950 . S
H720 C750 0.950 . S
H721 C751 0.950 1_565 S
C722 H704 0.951 . S
C722 C723 1.366 . S
C722 C724 1.388 . S
C723 C722 1.366 . S
C723 C727 1.385 . S
C724 H705 0.951 . S
C724 C722 1.388 . S
C724 C725 1.366 . S
C725 C724 1.366 . S
C725 C726 1.414 . S
C725 C728 1.499 . S
C726 H706 0.936 1_545 S
C726 C725 1.414 . S
C726 C727 1.390 . S
C727 H707 0.950 1_545 S
C727 C723 1.385 . S
C727 C726 1.390 . S
C728 C725 1.499 . S
C728 C729 1.373 . S
C728 C730 1.389 . S
C729 H708 0.950 . S
C729 C728 1.373 . S
C729 C745 1.377 . S
C730 C728 1.389 . S
C730 C731 1.524 . S
C730 C744 1.377 . S
C731 C730 1.524 . S
C731 C732 1.397 1_545 S
C731 C736 1.363 . S
C732 H709 0.950 . S
C732 C731 1.397 1_565 S
C732 C733 1.334 . S
C733 H710 0.950 . S
C733 C732 1.334 . S
C733 C734 1.287 . S
C734 C733 1.287 . S
C734 C735 1.524 1_565 S
C734 H753 0.913 . S
C735 H711 0.950 . S
C735 C734 1.524 1_545 S
C735 C736 1.415 . S
C736 H712 0.950 . S
C736 C731 1.363 . S
C736 C735 1.415 . S
C737 H713 0.951 . S
C737 C738 1.366 1_565 S
C737 C739 1.388 . S
C738 C737 1.366 1_545 S
C738 C742 1.385 . S
C739 H714 0.951 . S
C739 C737 1.388 . S
C739 C740 1.366 1_565 S
C740 C739 1.366 1_545 S
C740 C741 1.414 . S
C740 C743 1.499 . S
C741 H715 0.950 . S
C741 C740 1.414 . S
C741 C742 1.374 . S
C742 H716 0.950 . S
C742 C738 1.385 . S
C742 C741 1.374 . S
C743 C740 1.499 . S
C743 C744 1.373 . S
C743 C745 1.389 . S
C744 H717 0.950 . S
C744 C730 1.377 . S
C744 C743 1.373 . S
C745 C729 1.377 . S
C745 C743 1.389 . S
C745 C746 1.524 . S
C746 C745 1.524 . S
C746 C747 1.397 . S
C746 C751 1.363 . S
C747 H718 0.950 . S
C747 C746 1.397 . S
C747 C748 1.334 . S
C748 H719 0.950 . S
C748 C747 1.334 . S
C748 C749 1.287 . S
C749 C748 1.287 . S
C749 C750 1.524 . S
C749 H752 0.999 . S
C750 H720 0.950 . S
C750 C749 1.524 . S
C750 C751 1.415 . S
C751 H721 0.950 1_545 S
C751 C746 1.363 . S
C751 C750 1.415 . S
H752 C749 0.999 . S
H753 C734 0.913 . S
H754 C772 0.951 . S
H755 C774 0.951 . S
H756 C776 0.950 . S
H757 C777 0.950 . S
H758 C779 0.950 . S
H759 C782 0.950 . S
H760 C783 0.950 . S
H761 C785 0.950 . S
H762 C786 0.950 . S
H763 C787 0.951 . S
H764 C789 0.951 . S
H765 C791 0.976 . S
H766 C792 0.950 1_655 S
H767 C794 0.950 1_655 S
H768 C797 0.950 . S
H769 C798 0.950 . S
H770 C800 0.950 . S
H771 C801 0.950 . S
C772 H754 0.951 . S
C772 C773 1.366 1_655 S
C772 C774 1.388 . S
C773 C772 1.366 1_455 S
C773 C777 1.385 . S
C774 H755 0.951 . S
C774 C772 1.388 . S
C774 C775 1.366 1_655 S
C775 C774 1.366 1_455 S
C775 C776 1.414 . S
C775 C778 1.499 . S
C776 H756 0.950 . S
C776 C775 1.414 . S
C776 C777 1.374 . S
C777 H757 0.950 . S
C777 C773 1.385 . S
C777 C776 1.374 . S
C778 C775 1.499 . S
C778 C779 1.373 . S
C778 C780 1.389 . S
C779 H758 0.950 . S
C779 C778 1.373 . S
C779 C795 1.377 . S
C780 C778 1.389 . S
C780 C781 1.524 1_455 S
C780 C794 1.377 . S
C781 C780 1.524 1_655 S
C781 C782 1.397 1_655 S
C781 C786 1.363 . S
C782 H759 0.950 . S
C782 C781 1.397 1_455 S
C782 C783 1.334 . S
C783 H760 0.950 . S
C783 C782 1.334 . S
C783 C784 1.287 1_455 S
C784 C783 1.287 1_655 S
C784 C785 1.524 . S
C784 H803 0.913 . S
C785 H761 0.950 . S
C785 C784 1.524 . S
C785 C786 1.415 . S
C786 H762 0.950 . S
C786 C781 1.363 . S
C786 C785 1.415 . S
C787 H763 0.951 . S
C787 C788 1.366 . S
C787 C789 1.388 . S
C788 C787 1.366 . S
C788 C792 1.385 . S
C789 H764 0.951 . S
C789 C787 1.388 . S
C789 C790 1.366 . S
C790 C789 1.366 . S
C790 C791 1.378 1_455 S
C790 C793 1.499 . S
C791 H765 0.976 . S
C791 C790 1.378 1_655 S
C791 C792 1.386 1_655 S
C792 H766 0.950 1_455 S
C792 C788 1.385 . S
C792 C791 1.386 1_455 S
C793 C790 1.499 . S
C793 C794 1.373 . S
C793 C795 1.389 . S
C794 H767 0.950 1_455 S
C794 C780 1.377 . S
C794 C793 1.373 . S
C795 C779 1.377 . S
C795 C793 1.389 . S
C795 C796 1.524 . S
C796 C795 1.524 . S
C796 C797 1.397 . S
C796 C801 1.363 . S
C797 H768 0.950 . S
C797 C796 1.397 . S
C797 C798 1.334 . S
C798 H769 0.950 . S
C798 C797 1.334 . S
C798 C799 1.287 . S
C799 C798 1.287 . S
C799 C800 1.524 . S
C799 H802 0.999 . S
C800 H770 0.950 . S
C800 C799 1.524 . S
C800 C801 1.415 . S
C801 H771 0.950 . S
C801 C796 1.363 . S
C801 C800 1.415 . S
H802 C799 0.999 . S
H803 C784 0.913 . S
H804 C822 0.951 . S
H805 C824 0.951 . S
H806 C826 0.950 . S
H807 C827 0.950 . S
H808 C829 0.950 . S
H809 C832 0.950 . S
H810 C833 0.950 . S
H811 C835 0.950 . S
H812 C836 0.950 . S
H813 C837 0.951 . S
H814 C839 0.951 . S
H815 C841 0.950 . S
H816 C842 0.950 . S
H817 C844 0.950 . S
H818 C847 0.950 . S
H819 C848 0.950 . S
H820 C850 0.950 . S
H821 C851 0.950 . S
C822 H804 0.951 . S
C822 C823 1.366 . S
C822 C824 1.388 . S
C823 C822 1.366 . S
C823 C827 1.385 . S
C824 H805 0.951 . S
C824 C822 1.388 . S
C824 C825 1.366 . S
C825 C824 1.366 . S
C825 C826 1.414 . S
C825 C828 1.499 . S
C826 H806 0.950 . S
C826 C825 1.414 . S
C826 C827 1.374 . S
C827 H807 0.950 . S
C827 C823 1.385 . S
C827 C826 1.374 . S
C828 C825 1.499 . S
C828 C829 1.373 . S
C828 C830 1.389 . S
C829 H808 0.950 . S
C829 C828 1.373 . S
C829 C845 1.377 . S
C830 C828 1.389 . S
C830 C831 1.524 . S
C830 C844 1.377 . S
C831 C830 1.524 . S
C831 C832 1.397 . S
C831 C836 1.363 . S
C832 H809 0.950 . S
C832 C831 1.397 . S
C832 C833 1.334 . S
C833 H810 0.950 . S
C833 C832 1.334 . S
C833 C834 1.287 . S
C834 C833 1.287 . S
C834 C835 1.524 . S
C834 H853 0.913 . S
C835 H811 0.950 . S
C835 C834 1.524 . S
C835 C836 1.415 . S
C836 H812 0.950 . S
C836 C831 1.363 . S
C836 C835 1.415 . S
C837 H813 0.951 . S
C837 C838 1.366 . S
C837 C839 1.388 . S
C838 C837 1.366 . S
C838 C842 1.385 . S
C839 H814 0.951 . S
C839 C837 1.388 . S
C839 C840 1.366 . S
C840 C839 1.366 . S
C840 C841 1.414 . S
C840 C843 1.499 . S
C841 H815 0.950 . S
C841 C840 1.414 . S
C841 C842 1.374 . S
C842 H816 0.950 . S
C842 C838 1.385 . S
C842 C841 1.374 . S
C843 C840 1.499 . S
C843 C844 1.373 . S
C843 C845 1.389 . S
C844 H817 0.950 . S
C844 C830 1.377 . S
C844 C843 1.373 . S
C845 C829 1.377 . S
C845 C843 1.389 . S
C845 C846 1.524 . S
C846 C845 1.524 . S
C846 C847 1.397 . S
C846 C851 1.363 . S
C847 H818 0.950 . S
C847 C846 1.397 . S
C847 C848 1.334 . S
C848 H819 0.950 . S
C848 C847 1.334 . S
C848 C849 1.287 . S
C849 C848 1.287 . S
C849 C850 1.524 . S
C849 H852 0.999 . S
C850 H820 0.950 . S
C850 C849 1.524 . S
C850 C851 1.415 . S
C851 H821 0.950 . S
C851 C846 1.363 . S
C851 C850 1.415 . S
H852 C849 0.999 . S
H853 C834 0.913 . S
H854 C872 0.951 . S
H855 C874 0.951 . S
H856 C876 0.950 1_565 S
H857 C877 0.951 . S
H858 C879 0.950 . S
H859 C882 0.950 . S
H860 C883 0.950 . S
H861 C885 0.950 . S
H862 C886 0.950 . S
H863 C887 0.951 . S
H864 C889 0.951 . S
H865 C891 0.950 . S
H866 C892 0.950 . S
H867 C894 0.950 . S
H868 C897 0.950 . S
H869 C898 0.950 . S
H870 C900 0.950 . S
H871 C901 0.950 . S
C872 H854 0.951 . S
C872 C873 1.366 . S
C872 C874 1.388 . S
C873 C872 1.366 . S
C873 C877 1.385 . S
C874 H855 0.951 . S
C874 C872 1.388 . S
C874 C875 1.366 . S
C875 C874 1.366 . S
C875 C876 1.414 . S
C875 C878 1.499 . S
C876 H856 0.950 1_545 S
C876 C875 1.414 . S
C876 C877 1.374 . S
C877 H857 0.951 . S
C877 C873 1.385 . S
C877 C876 1.374 . S
C878 C875 1.499 . S
C878 C879 1.373 1_545 S
C878 C880 1.389 . S
C879 H858 0.950 . S
C879 C878 1.373 1_565 S
C879 C895 1.377 . S
C880 C878 1.389 . S
C880 C881 1.524 . S
C880 C894 1.377 . S
C881 C880 1.524 . S
C881 C882 1.397 . S
C881 C886 1.363 . S
C882 H859 0.950 . S
C882 C881 1.397 . S
C882 C883 1.334 . S
C883 H860 0.950 . S
C883 C882 1.334 . S
C883 C884 1.287 . S
C884 C883 1.287 . S
C884 C885 1.524 . S
C884 H903 0.913 . S
C885 H861 0.950 . S
C885 C884 1.524 . S
C885 C886 1.415 . S
C886 H862 0.950 . S
C886 C881 1.363 . S
C886 C885 1.415 . S
C887 H863 0.951 . S
C887 C888 1.366 1_565 S
C887 C889 1.388 . S
C888 C887 1.366 1_545 S
C888 C892 1.385 . S
C889 H864 0.951 . S
C889 C887 1.388 . S
C889 C890 1.366 1_565 S
C890 C889 1.366 1_545 S
C890 C891 1.414 . S
C890 C893 1.499 . S
C891 H865 0.950 . S
C891 C890 1.414 . S
C891 C892 1.374 . S
C892 H866 0.950 . S
C892 C888 1.385 . S
C892 C891 1.374 . S
C893 C890 1.499 . S
C893 C894 1.373 . S
C893 C895 1.389 1_545 S
C894 H867 0.950 . S
C894 C880 1.377 . S
C894 C893 1.373 . S
C895 C879 1.377 . S
C895 C893 1.389 1_565 S
C895 C896 1.524 . S
C896 C895 1.524 . S
C896 C897 1.397 . S
C896 C901 1.363 . S
C897 H868 0.950 . S
C897 C896 1.397 . S
C897 C898 1.334 . S
C898 H869 0.950 . S
C898 C897 1.334 . S
C898 C899 1.287 . S
C899 C898 1.287 . S
C899 C900 1.524 . S
C899 H902 0.999 . S
C900 H870 0.950 . S
C900 C899 1.524 . S
C900 C901 1.415 . S
C901 H871 0.950 . S
C901 C896 1.363 . S
C901 C900 1.415 . S
H902 C899 0.999 . S
H903 C884 0.913 . S
H904 C922 0.951 . S
H905 C924 0.951 . S
H906 C926 0.950 . S
H907 C927 0.950 . S
H908 C929 0.950 1_655 S
H909 C932 0.950 . S
H910 C933 0.950 . S
H911 C935 0.950 . S
H912 C936 0.950 . S
H913 C937 0.951 1_655 S
H914 C939 0.951 1_655 S
H915 C941 0.950 . S
H916 C942 0.950 . S
H917 C944 0.950 . S
H918 C947 0.950 . S
H919 C948 0.950 . S
H920 C950 0.950 . S
H921 C951 0.950 . S
C922 H904 0.951 . S
C922 C923 1.366 . S
C922 C924 1.388 . S
C923 C922 1.366 . S
C923 C927 1.385 1_455 S
C924 H905 0.951 . S
C924 C922 1.388 . S
C924 C925 1.366 . S
C925 C924 1.366 . S
C925 C926 1.414 1_455 S
C925 C928 1.499 . S
C926 H906 0.950 . S
C926 C925 1.414 1_655 S
C926 C927 1.374 . S
C927 H907 0.950 . S
C927 C923 1.385 1_655 S
C927 C926 1.374 . S
C928 C925 1.499 . S
C928 C929 1.373 . S
C928 C930 1.389 . S
C929 H908 0.950 1_455 S
C929 C928 1.373 . S
C929 C945 1.377 . S
C930 C928 1.389 . S
C930 C931 1.524 . S
C930 C944 1.377 . S
C931 C930 1.524 . S
C931 C932 1.397 . S
C931 C936 1.363 . S
C932 H909 0.950 . S
C932 C931 1.397 . S
C932 C933 1.334 . S
C933 H910 0.950 . S
C933 C932 1.334 . S
C933 C934 1.287 . S
C934 C933 1.287 . S
C934 C935 1.524 . S
C934 H953 0.913 . S
C935 H911 0.950 . S
C935 C934 1.524 . S
C935 C936 1.415 . S
C936 H912 0.950 . S
C936 C931 1.363 . S
C936 C935 1.415 . S
C937 H913 0.951 1_455 S
C937 C938 1.366 . S
C937 C939 1.388 . S
C938 C937 1.366 . S
C938 C942 1.385 . S
C939 H914 0.951 1_455 S
C939 C937 1.388 . S
C939 C940 1.366 . S
C940 C939 1.366 . S
C940 C941 1.414 . S
C940 C943 1.499 . S
C941 H915 0.950 . S
C941 C940 1.414 . S
C941 C942 1.374 . S
C942 H916 0.950 . S
C942 C938 1.385 . S
C942 C941 1.374 . S
C943 C940 1.499 . S
C943 C944 1.373 . S
C943 C945 1.389 . S
C944 H917 0.950 . S
C944 C930 1.377 . S
C944 C943 1.373 . S
C945 C929 1.377 . S
C945 C943 1.389 . S
C945 C946 1.524 1_455 S
C946 C945 1.524 1_655 S
C946 C947 1.397 1_655 S
C946 C951 1.363 . S
C947 H918 0.950 . S
C947 C946 1.397 1_455 S
C947 C948 1.334 . S
C948 H919 0.950 . S
C948 C947 1.334 . S
C948 C949 1.287 1_455 S
C949 C948 1.287 1_655 S
C949 C950 1.524 . S
C949 H952 0.999 . S
C950 H920 0.950 . S
C950 C949 1.524 . S
C950 C951 1.415 . S
C951 H921 0.950 . S
C951 C946 1.363 . S
C951 C950 1.415 . S
H952 C949 0.999 . S
H953 C934 0.913 . S
H954 C972 0.951 . S
H955 C974 0.951 . S
H956 C976 0.950 . S
H957 C977 0.950 . S
H958 C979 0.950 . S
H959 C982 0.950 . S
H960 C983 0.950 . S
H961 C985 0.950 . S
H962 C986 0.950 . S
H963 C987 0.951 . S
H964 C989 0.951 . S
H965 C991 0.950 . S
H966 C992 0.950 . S
H967 C994 0.950 . S
H968 C997 0.950 . S
H969 C998 0.950 1_455 S
H970 C1000 0.950 . S
H971 C1001 0.950 . S
C972 H954 0.951 . S
C972 C973 1.366 . S
C972 C974 1.388 . S
C973 C972 1.366 . S
C973 C977 1.385 . S
C974 H955 0.951 . S
C974 C972 1.388 . S
C974 C975 1.366 . S
C975 C974 1.366 . S
C975 C976 1.414 . S
C975 C978 1.499 . S
C976 H956 0.950 . S
C976 C975 1.414 . S
C976 C977 1.374 . S
C977 H957 0.950 . S
C977 C973 1.385 . S
C977 C976 1.374 . S
C978 C975 1.499 . S
C978 C979 1.373 . S
C978 C980 1.389 . S
C979 H958 0.950 . S
C979 C978 1.373 . S
C979 C995 1.377 . S
C980 C978 1.389 . S
C980 C981 1.524 . S
C980 C994 1.377 . S
C981 C980 1.524 . S
C981 C982 1.397 . S
C981 C986 1.363 . S
C982 H959 0.950 . S
C982 C981 1.397 . S
C982 C983 1.334 . S
C983 H960 0.950 . S
C983 C982 1.334 . S
C983 C984 1.287 . S
C984 C983 1.287 . S
C984 C985 1.524 . S
C984 H1003 0.913 . S
C985 H961 0.950 . S
C985 C984 1.524 . S
C985 C986 1.415 . S
C986 H962 0.950 . S
C986 C981 1.363 . S
C986 C985 1.415 . S
C987 H963 0.951 . S
C987 C988 1.366 . S
C987 C989 1.388 . S
C988 C987 1.366 . S
C988 C992 1.385 . S
C989 H964 0.951 . S
C989 C987 1.388 . S
C989 C990 1.366 . S
C990 C989 1.366 . S
C990 C991 1.414 . S
C990 C993 1.499 . S
C991 H965 0.950 . S
C991 C990 1.414 . S
C991 C992 1.374 . S
C992 H966 0.950 . S
C992 C988 1.385 . S
C992 C991 1.374 . S
C993 C990 1.499 . S
C993 C994 1.373 . S
C993 C995 1.389 . S
C994 H967 0.950 . S
C994 C980 1.377 . S
C994 C993 1.373 . S
C995 C979 1.377 . S
C995 C993 1.389 . S
C995 C996 1.524 . S
C996 C995 1.524 . S
C996 C997 1.397 . S
C996 C1001 1.363 . S
C997 H968 0.950 . S
C997 C996 1.397 . S
C997 C998 1.334 . S
C998 H969 0.950 1_655 S
C998 C997 1.334 . S
C998 C999 1.287 . S
C999 C998 1.287 . S
C999 C1000 1.524 . S
C999 H1002 0.999 1_655 S
C1000 H970 0.950 . S
C1000 C999 1.524 . S
C1000 C1001 1.415 . S
C1001 H971 0.950 . S
C1001 C996 1.363 . S
C1001 C1000 1.415 . S
H1002 C999 0.999 1_455 S
H1003 C984 0.913 . S
H1004 C1022 0.951 . S
H1005 C1024 0.951 . S
H1006 C1026 0.950 . S
H1007 C1027 0.950 . S
H1008 C1029 0.950 1_565 S
H1009 C1032 0.950 . S
H1010 C1033 0.950 . S
H1011 C1035 0.950 . S
H1012 C1036 0.950 . S
H1013 C1037 0.951 . S
H1014 C1039 0.951 . S
H1015 C1041 0.950 . S
H1016 C1042 0.950 . S
H1017 C1044 0.950 . S
H1018 C1047 0.950 . S
H1019 C1048 0.950 . S
H1020 C1050 0.950 . S
H1021 C1051 0.950 . S
C1022 H1004 0.951 . S
C1022 C1023 1.366 . S
C1022 C1024 1.388 . S
C1023 C1022 1.366 . S
C1023 C1027 1.385 . S
C1024 H1005 0.951 . S
C1024 C1022 1.388 . S
C1024 C1025 1.366 . S
C1025 C1024 1.366 . S
C1025 C1026 1.414 . S
C1025 C1028 1.499 . S
C1026 H1006 0.950 . S
C1026 C1025 1.414 . S
C1026 C1027 1.374 . S
C1027 H1007 0.950 . S
C1027 C1023 1.385 . S
C1027 C1026 1.374 . S
C1028 C1025 1.499 . S
C1028 C1029 1.373 . S
C1028 C1030 1.389 . S
C1029 H1008 0.950 1_545 S
C1029 C1028 1.373 . S
C1029 C1045 1.377 . S
C1030 C1028 1.389 . S
C1030 C1031 1.524 . S
C1030 C1044 1.377 . S
C1031 C1030 1.524 . S
C1031 C1032 1.397 . S
C1031 C1036 1.363 . S
C1032 H1009 0.950 . S
C1032 C1031 1.397 . S
C1032 C1033 1.334 . S
C1033 H1010 0.950 . S
C1033 C1032 1.334 . S
C1033 C1034 1.287 . S
C1034 C1033 1.287 . S
C1034 C1035 1.524 . S
C1034 H1053 0.913 . S
C1035 H1011 0.950 . S
C1035 C1034 1.524 . S
C1035 C1036 1.415 . S
C1036 H1012 0.950 . S
C1036 C1031 1.363 . S
C1036 C1035 1.415 . S
C1037 H1013 0.951 . S
C1037 C1038 1.366 . S
C1037 C1039 1.388 . S
C1038 C1037 1.366 . S
C1038 C1042 1.385 . S
C1039 H1014 0.951 . S
C1039 C1037 1.388 . S
C1039 C1040 1.366 . S
C1040 C1039 1.366 . S
C1040 C1041 1.414 . S
C1040 C1043 1.499 . S
C1041 H1015 0.950 . S
C1041 C1040 1.414 . S
C1041 C1042 1.374 . S
C1042 H1016 0.950 . S
C1042 C1038 1.385 . S
C1042 C1041 1.374 . S
C1043 C1040 1.499 . S
C1043 C1044 1.373 . S
C1043 C1045 1.389 . S
C1044 H1017 0.950 . S
C1044 C1030 1.377 . S
C1044 C1043 1.373 . S
C1045 C1029 1.377 . S
C1045 C1043 1.389 . S
C1045 C1046 1.524 1_545 S
C1046 C1045 1.524 1_565 S
C1046 C1047 1.397 . S
C1046 C1051 1.363 . S
C1047 H1018 0.950 . S
C1047 C1046 1.397 . S
C1047 C1048 1.334 . S
C1048 H1019 0.950 . S
C1048 C1047 1.334 . S
C1048 C1049 1.287 . S
C1049 C1048 1.287 . S
C1049 C1050 1.524 . S
C1049 H1052 0.999 . S
C1050 H1020 0.950 . S
C1050 C1049 1.524 . S
C1050 C1051 1.415 . S
C1051 H1021 0.950 . S
C1051 C1046 1.363 . S
C1051 C1050 1.415 . S
H1052 C1049 0.999 . S
H1053 C1034 0.913 . S
H1054 C1072 0.951 . S
H1055 C1074 0.951 . S
H1056 C1076 0.950 . S
H1057 C1077 0.950 . S
H1058 C1079 0.950 . S
H1059 C1082 0.950 . S
H1060 C1083 0.950 . S
H1061 C1085 0.950 . S
H1062 C1086 0.950 . S
H1063 C1087 0.951 . S
H1064 C1089 0.951 . S
H1065 C1091 0.950 . S
H1066 C1092 0.950 . S
H1067 C1094 0.950 . S
H1068 C1097 0.950 . S
H1069 C1098 0.950 . S
H1070 C1100 0.950 . S
H1071 C1101 0.950 . S
C1072 H1054 0.951 . S
C1072 C1073 1.366 . S
C1072 C1074 1.388 . S
C1073 C1072 1.366 . S
C1073 C1077 1.385 . S
C1074 H1055 0.951 . S
C1074 C1072 1.388 . S
C1074 C1075 1.366 . S
C1075 C1074 1.366 . S
C1075 C1076 1.414 . S
C1075 C1078 1.499 . S
C1076 H1056 0.950 . S
C1076 C1075 1.414 . S
C1076 C1077 1.374 . S
C1077 H1057 0.950 . S
C1077 C1073 1.385 . S
C1077 C1076 1.374 . S
C1078 C1075 1.499 . S
C1078 C1079 1.373 . S
C1078 C1080 1.389 1_455 S
C1079 H1058 0.950 . S
C1079 C1078 1.373 . S
C1079 C1095 1.377 . S
C1080 C1078 1.389 1_655 S
C1080 C1081 1.524 . S
C1080 C1094 1.377 . S
C1081 C1080 1.524 . S
C1081 C1082 1.397 . S
C1081 C1086 1.363 . S
C1082 H1059 0.950 . S
C1082 C1081 1.397 . S
C1082 C1083 1.334 . S
C1083 H1060 0.950 . S
C1083 C1082 1.334 . S
C1083 C1084 1.287 . S
C1084 C1083 1.287 . S
C1084 C1085 1.524 . S
C1084 H1103 0.913 . S
C1085 H1061 0.950 . S
C1085 C1084 1.524 . S
C1085 C1086 1.415 . S
C1086 H1062 0.950 . S
C1086 C1081 1.363 . S
C1086 C1085 1.415 . S
C1087 H1063 0.951 . S
C1087 C1088 1.366 . S
C1087 C1089 1.388 . S
C1088 C1087 1.366 . S
C1088 C1092 1.385 . S
C1089 H1064 0.951 . S
C1089 C1087 1.388 . S
C1089 C1090 1.366 . S
C1090 C1089 1.366 . S
C1090 C1091 1.414 . S
C1090 C1093 1.499 . S
C1091 H1065 0.950 . S
C1091 C1090 1.414 . S
C1091 C1092 1.374 . S
C1092 H1066 0.950 . S
C1092 C1088 1.385 . S
C1092 C1091 1.374 . S
C1093 C1090 1.499 . S
C1093 C1094 1.373 1_455 S
C1093 C1095 1.389 . S
C1094 H1067 0.950 . S
C1094 C1080 1.377 . S
C1094 C1093 1.373 1_655 S
C1095 C1079 1.377 . S
C1095 C1093 1.389 . S
C1095 C1096 1.524 . S
C1096 C1095 1.524 . S
C1096 C1097 1.397 . S
C1096 C1101 1.363 . S
C1097 H1068 0.950 . S
C1097 C1096 1.397 . S
C1097 C1098 1.334 . S
C1098 H1069 0.950 . S
C1098 C1097 1.334 . S
C1098 C1099 1.287 . S
C1099 C1098 1.287 . S
C1099 C1100 1.524 . S
C1099 H1102 0.999 . S
C1100 H1070 0.950 . S
C1100 C1099 1.524 . S
C1100 C1101 1.415 . S
C1101 H1071 0.950 . S
C1101 C1096 1.363 . S
C1101 C1100 1.415 . S
H1102 C1099 0.999 . S
H1103 C1084 0.913 . S
H1104 C1122 0.951 . S
H1105 C1124 0.951 . S
H1106 C1126 0.950 . S
H1107 C1127 0.950 . S
H1108 C1129 0.950 . S
H1109 C1132 0.950 . S
H1110 C1133 0.950 . S
H1111 C1135 0.950 . S
H1112 C1136 0.950 . S
H1113 C1137 0.951 . S
H1114 C1139 0.951 . S
H1115 C1141 0.950 . S
H1116 C1142 0.950 . S
H1117 C1144 0.950 . S
H1118 C1147 0.950 . S
H1119 C1148 0.950 . S
H1120 C1150 0.950 . S
H1121 C1151 0.950 . S
C1122 H1104 0.951 . S
C1122 C1123 1.366 . S
C1122 C1124 1.388 . S
C1123 C1122 1.366 . S
C1123 C1127 1.385 . S
C1124 H1105 0.951 . S
C1124 C1122 1.388 . S
C1124 C1125 1.366 . S
C1125 C1124 1.366 . S
C1125 C1126 1.414 . S
C1125 C1128 1.499 . S
C1126 H1106 0.950 . S
C1126 C1125 1.414 . S
C1126 C1127 1.374 . S
C1127 H1107 0.950 . S
C1127 C1123 1.385 . S
C1127 C1126 1.374 . S
C1128 C1125 1.499 . S
C1128 C1129 1.373 . S
C1128 C1130 1.389 . S
C1129 H1108 0.950 . S
C1129 C1128 1.373 . S
C1129 C1145 1.377 . S
C1130 C1128 1.389 . S
C1130 C1131 1.524 . S
C1130 C1144 1.377 . S
C1131 C1130 1.524 . S
C1131 C1132 1.397 . S
C1131 C1136 1.363 . S
C1132 H1109 0.950 . S
C1132 C1131 1.397 . S
C1132 C1133 1.334 . S
C1133 H1110 0.950 . S
C1133 C1132 1.334 . S
C1133 C1134 1.287 . S
C1134 C1133 1.287 . S
C1134 C1135 1.524 . S
C1134 H1153 0.913 . S
C1135 H1111 0.950 . S
C1135 C1134 1.524 . S
C1135 C1136 1.415 . S
C1136 H1112 0.950 . S
C1136 C1131 1.363 . S
C1136 C1135 1.415 . S
C1137 H1113 0.951 . S
C1137 C1138 1.366 . S
C1137 C1139 1.388 . S
C1138 C1137 1.366 . S
C1138 C1142 1.385 . S
C1139 H1114 0.951 . S
C1139 C1137 1.388 . S
C1139 C1140 1.366 . S
C1140 C1139 1.366 . S
C1140 C1141 1.414 . S
C1140 C1143 1.499 . S
C1141 H1115 0.950 . S
C1141 C1140 1.414 . S
C1141 C1142 1.374 . S
C1142 H1116 0.950 . S
C1142 C1138 1.385 . S
C1142 C1141 1.374 . S
C1143 C1140 1.499 . S
C1143 C1144 1.373 . S
C1143 C1145 1.389 . S
C1144 H1117 0.950 . S
C1144 C1130 1.377 . S
C1144 C1143 1.373 . S
C1145 C1129 1.377 . S
C1145 C1143 1.389 . S
C1145 C1146 1.524 . S
C1146 C1145 1.524 . S
C1146 C1147 1.397 . S
C1146 C1151 1.363 . S
C1147 H1118 0.950 . S
C1147 C1146 1.397 . S
C1147 C1148 1.334 . S
C1148 H1119 0.950 . S
C1148 C1147 1.334 . S
C1148 C1149 1.287 . S
C1149 C1148 1.287 . S
C1149 C1150 1.524 . S
C1149 H1152 0.999 . S
C1150 H1120 0.950 . S
C1150 C1149 1.524 . S
C1150 C1151 1.415 . S
C1151 H1121 0.950 . S
C1151 C1146 1.363 . S
C1151 C1150 1.415 . S
H1152 C1149 0.999 . S
H1153 C1134 0.913 . S
H1154 C1172 0.951 . S
H1155 C1174 0.951 . S
H1156 C1176 0.950 . S
H1157 C1177 0.950 . S
H1158 C1179 0.950 . S
H1159 C1182 0.950 . S
H1160 C1183 0.950 . S
H1161 C1185 0.950 . S
H1162 C1186 0.950 . S
H1163 C1187 0.951 . S
H1164 C1189 0.951 . S
H1165 C1191 0.950 . S
H1166 C1192 0.950 . S
H1167 C1194 0.950 . S
H1168 C1197 0.950 . S
H1169 C1198 0.950 . S
H1170 C1200 0.950 . S
H1171 C1201 0.950 . S
C1172 H1154 0.951 . S
C1172 C1173 1.366 . S
C1172 C1174 1.388 . S
C1173 C1172 1.366 . S
C1173 C1177 1.385 . S
C1174 H1155 0.951 . S
C1174 C1172 1.388 . S
C1174 C1175 1.366 . S
C1175 C1174 1.366 . S
C1175 C1176 1.414 . S
C1175 C1178 1.499 . S
C1176 H1156 0.950 . S
C1176 C1175 1.414 . S
C1176 C1177 1.374 . S
C1177 H1157 0.950 . S
C1177 C1173 1.385 . S
C1177 C1176 1.374 . S
C1178 C1175 1.499 . S
C1178 C1179 1.373 . S
C1178 C1180 1.389 . S
C1179 H1158 0.950 . S
C1179 C1178 1.373 . S
C1179 C1195 1.377 . S
C1180 C1178 1.389 . S
C1180 C1181 1.524 . S
C1180 C1194 1.377 . S
C1181 C1180 1.524 . S
C1181 C1182 1.397 . S
C1181 C1186 1.363 . S
C1182 H1159 0.950 . S
C1182 C1181 1.397 . S
C1182 C1183 1.334 . S
C1183 H1160 0.950 . S
C1183 C1182 1.334 . S
C1183 C1184 1.287 . S
C1184 C1183 1.287 . S
C1184 C1185 1.524 . S
C1184 H1203 0.913 . S
C1185 H1161 0.950 . S
C1185 C1184 1.524 . S
C1185 C1186 1.415 . S
C1186 H1162 0.950 . S
C1186 C1181 1.363 . S
C1186 C1185 1.415 . S
C1187 H1163 0.951 . S
C1187 C1188 1.366 . S
C1187 C1189 1.388 . S
C1188 C1187 1.366 . S
C1188 C1192 1.385 . S
C1189 H1164 0.951 . S
C1189 C1187 1.388 . S
C1189 C1190 1.366 . S
C1190 C1189 1.366 . S
C1190 C1191 1.414 . S
C1190 C1193 1.499 . S
C1191 H1165 0.950 . S
C1191 C1190 1.414 . S
C1191 C1192 1.374 . S
C1192 H1166 0.950 . S
C1192 C1188 1.385 . S
C1192 C1191 1.374 . S
C1193 C1190 1.499 . S
C1193 C1194 1.373 . S
C1193 C1195 1.389 . S
C1194 H1167 0.950 . S
C1194 C1180 1.377 . S
C1194 C1193 1.373 . S
C1195 C1179 1.377 . S
C1195 C1193 1.389 . S
C1195 C1196 1.524 . S
C1196 C1195 1.524 . S
C1196 C1197 1.397 . S
C1196 C1201 1.363 . S
C1197 H1168 0.950 . S
C1197 C1196 1.397 . S
C1197 C1198 1.334 . S
C1198 H1169 0.950 . S
C1198 C1197 1.334 . S
C1198 C1199 1.287 . S
C1199 C1198 1.287 . S
C1199 C1200 1.524 . S
C1199 H1202 0.999 . S
C1200 H1170 0.950 . S
C1200 C1199 1.524 . S
C1200 C1201 1.415 . S
C1201 H1171 0.950 . S
C1201 C1196 1.363 . S
C1201 C1200 1.415 . S
H1202 C1199 0.999 . S
H1203 C1184 0.913 . S
H1204 C1222 0.951 . S
H1205 C1224 0.951 . S
H1206 C1226 0.950 . S
H1207 C1227 0.950 . S
H1208 C1229 0.950 . S
H1209 C1232 0.950 . S
H1210 C1233 0.950 . S
H1211 C1235 0.950 . S
H1212 C1236 0.950 . S
H1213 C1237 0.951 . S
H1214 C1239 0.951 . S
H1215 C1241 0.950 . S
H1216 C1242 0.950 . S
H1217 C1244 0.950 . S
H1218 C1247 0.950 . S
H1219 C1248 0.950 . S
H1220 C1250 0.950 . S
H1221 C1251 0.950 . S
C1222 H1204 0.951 . S
C1222 C1223 1.366 . S
C1222 C1224 1.388 . S
C1223 C1222 1.366 . S
C1223 C1227 1.385 . S
C1224 H1205 0.951 . S
C1224 C1222 1.388 . S
C1224 C1225 1.366 . S
C1225 C1224 1.366 . S
C1225 C1226 1.414 . S
C1225 C1228 1.499 . S
C1226 H1206 0.950 . S
C1226 C1225 1.414 . S
C1226 C1227 1.374 . S
C1227 H1207 0.950 . S
C1227 C1223 1.385 . S
C1227 C1226 1.374 . S
C1228 C1225 1.499 . S
C1228 C1229 1.373 . S
C1228 C1230 1.389 . S
C1229 H1208 0.950 . S
C1229 C1228 1.373 . S
C1229 C1245 1.377 . S
C1230 C1228 1.389 . S
C1230 C1231 1.524 . S
C1230 C1244 1.377 . S
C1231 C1230 1.524 . S
C1231 C1232 1.397 . S
C1231 C1236 1.363 . S
C1232 H1209 0.950 . S
C1232 C1231 1.397 . S
C1232 C1233 1.334 . S
C1233 H1210 0.950 . S
C1233 C1232 1.334 . S
C1233 C1234 1.287 . S
C1234 C1233 1.287 . S
C1234 C1235 1.524 . S
C1234 H1253 0.913 . S
C1235 H1211 0.950 . S
C1235 C1234 1.524 . S
C1235 C1236 1.415 . S
C1236 H1212 0.950 . S
C1236 C1231 1.363 . S
C1236 C1235 1.415 . S
C1237 H1213 0.951 . S
C1237 C1238 1.366 . S
C1237 C1239 1.388 . S
C1238 C1237 1.366 . S
C1238 C1242 1.385 . S
C1239 H1214 0.951 . S
C1239 C1237 1.388 . S
C1239 C1240 1.366 . S
C1240 C1239 1.366 . S
C1240 C1241 1.414 . S
C1240 C1243 1.499 . S
C1241 H1215 0.950 . S
C1241 C1240 1.414 . S
C1241 C1242 1.374 . S
C1242 H1216 0.950 . S
C1242 C1238 1.385 . S
C1242 C1241 1.374 . S
C1243 C1240 1.499 . S
C1243 C1244 1.373 . S
C1243 C1245 1.389 . S
C1244 H1217 0.950 . S
C1244 C1230 1.377 . S
C1244 C1243 1.373 . S
C1245 C1229 1.377 . S
C1245 C1243 1.389 . S
C1245 C1246 1.524 . S
C1246 C1245 1.524 . S
C1246 C1247 1.397 . S
C1246 C1251 1.363 . S
C1247 H1218 0.950 . S
C1247 C1246 1.397 . S
C1247 C1248 1.334 . S
C1248 H1219 0.950 . S
C1248 C1247 1.334 . S
C1248 C1249 1.287 . S
C1249 C1248 1.287 . S
C1249 C1250 1.524 . S
C1249 H1252 0.999 . S
C1250 H1220 0.950 . S
C1250 C1249 1.524 . S
C1250 C1251 1.415 . S
C1251 H1221 0.950 . S
C1251 C1246 1.363 . S
C1251 C1250 1.415 . S
H1252 C1249 0.999 . S
H1253 C1234 0.913 . S
H1254 C1272 0.951 . S
H1255 C1274 0.951 . S
H1256 C1276 0.950 . S
H1257 C1277 0.950 . S
H1258 C1279 0.950 . S
H1259 C1282 0.950 . S
H1260 C1283 0.950 . S
H1261 C1285 0.950 . S
H1262 C1286 0.950 . S
H1263 C1287 0.951 . S
H1264 C1289 0.951 . S
H1265 C1291 0.950 . S
H1266 C1292 0.950 . S
H1267 C1294 0.950 . S
H1268 C1297 0.950 . S
H1269 C1298 0.950 . S
H1270 C1300 0.950 . S
H1271 C1301 0.950 . S
C1272 H1254 0.951 . S
C1272 C1273 1.366 . S
C1272 C1274 1.388 . S
C1273 C1272 1.366 . S
C1273 C1277 1.385 . S
C1274 H1255 0.951 . S
C1274 C1272 1.388 . S
C1274 C1275 1.366 . S
C1275 C1274 1.366 . S
C1275 C1276 1.414 . S
C1275 C1278 1.499 . S
C1276 H1256 0.950 . S
C1276 C1275 1.414 . S
C1276 C1277 1.374 . S
C1277 H1257 0.950 . S
C1277 C1273 1.385 . S
C1277 C1276 1.374 . S
C1278 C1275 1.499 . S
C1278 C1279 1.373 . S
C1278 C1280 1.389 . S
C1279 H1258 0.950 . S
C1279 C1278 1.373 . S
C1279 C1295 1.377 . S
C1280 C1278 1.389 . S
C1280 C1281 1.524 . S
C1280 C1294 1.377 . S
C1281 C1280 1.524 . S
C1281 C1282 1.397 . S
C1281 C1286 1.363 . S
C1282 H1259 0.950 . S
C1282 C1281 1.397 . S
C1282 C1283 1.334 . S
C1283 H1260 0.950 . S
C1283 C1282 1.334 . S
C1283 C1284 1.287 . S
C1284 C1283 1.287 . S
C1284 C1285 1.524 . S
C1284 H1303 0.913 . S
C1285 H1261 0.950 . S
C1285 C1284 1.524 . S
C1285 C1286 1.415 . S
C1286 H1262 0.950 . S
C1286 C1281 1.363 . S
C1286 C1285 1.415 . S
C1287 H1263 0.951 . S
C1287 C1288 1.366 . S
C1287 C1289 1.388 . S
C1288 C1287 1.366 . S
C1288 C1292 1.385 . S
C1289 H1264 0.951 . S
C1289 C1287 1.388 . S
C1289 C1290 1.366 . S
C1290 C1289 1.366 . S
C1290 C1291 1.414 . S
C1290 C1293 1.499 . S
C1291 H1265 0.950 . S
C1291 C1290 1.414 . S
C1291 C1292 1.374 . S
C1292 H1266 0.950 . S
C1292 C1288 1.385 . S
C1292 C1291 1.374 . S
C1293 C1290 1.499 . S
C1293 C1294 1.373 . S
C1293 C1295 1.389 . S
C1294 H1267 0.950 . S
C1294 C1280 1.377 . S
C1294 C1293 1.373 . S
C1295 C1279 1.377 . S
C1295 C1293 1.389 . S
C1295 C1296 1.524 . S
C1296 C1295 1.524 . S
C1296 C1297 1.397 . S
C1296 C1301 1.363 . S
C1297 H1268 0.950 . S
C1297 C1296 1.397 . S
C1297 C1298 1.334 . S
C1298 H1269 0.950 . S
C1298 C1297 1.334 . S
C1298 C1299 1.287 . S
C1299 C1298 1.287 . S
C1299 C1300 1.524 . S
C1299 H1302 0.999 . S
C1300 H1270 0.950 . S
C1300 C1299 1.524 . S
C1300 C1301 1.415 . S
C1301 H1271 0.950 . S
C1301 C1296 1.363 . S
C1301 C1300 1.415 . S
H1302 C1299 0.999 . S
H1303 C1284 0.913 . S
H1304 C1322 0.951 . S
H1305 C1324 0.951 . S
H1306 C1326 0.950 . S
H1307 C1327 0.950 . S
H1308 C1329 0.950 . S
H1309 C1332 0.950 . S
H1310 C1333 0.950 . S
H1311 C1335 0.950 . S
H1312 C1336 0.950 . S
H1313 C1337 0.951 . S
H1314 C1339 0.951 . S
H1315 C1341 0.950 . S
H1316 C1342 0.950 . S
H1317 C1344 0.950 . S
H1318 C1347 0.950 . S
H1319 C1348 0.950 . S
H1320 C1350 0.950 . S
H1321 C1351 0.950 . S
C1322 H1304 0.951 . S
C1322 C1323 1.366 . S
C1322 C1324 1.388 . S
C1323 C1322 1.366 . S
C1323 C1327 1.385 . S
C1324 H1305 0.951 . S
C1324 C1322 1.388 . S
C1324 C1325 1.366 . S
C1325 C1324 1.366 . S
C1325 C1326 1.414 . S
C1325 C1328 1.499 . S
C1326 H1306 0.950 . S
C1326 C1325 1.414 . S
C1326 C1327 1.374 . S
C1327 H1307 0.950 . S
C1327 C1323 1.385 . S
C1327 C1326 1.374 . S
C1328 C1325 1.499 . S
C1328 C1329 1.373 . S
C1328 C1330 1.389 . S
C1329 H1308 0.950 . S
C1329 C1328 1.373 . S
C1329 C1345 1.377 . S
C1330 C1328 1.389 . S
C1330 C1331 1.524 . S
C1330 C1344 1.377 . S
C1331 C1330 1.524 . S
C1331 C1332 1.397 . S
C1331 C1336 1.363 . S
C1332 H1309 0.950 . S
C1332 C1331 1.397 . S
C1332 C1333 1.334 . S
C1333 H1310 0.950 . S
C1333 C1332 1.334 . S
C1333 C1334 1.287 . S
C1334 C1333 1.287 . S
C1334 C1335 1.524 . S
C1334 H1353 0.913 . S
C1335 H1311 0.950 . S
C1335 C1334 1.524 . S
C1335 C1336 1.415 . S
C1336 H1312 0.950 . S
C1336 C1331 1.363 . S
C1336 C1335 1.415 . S
C1337 H1313 0.951 . S
C1337 C1338 1.366 . S
C1337 C1339 1.388 . S
C1338 C1337 1.366 . S
C1338 C1342 1.385 . S
C1339 H1314 0.951 . S
C1339 C1337 1.388 . S
C1339 C1340 1.366 . S
C1340 C1339 1.366 . S
C1340 C1341 1.414 . S
C1340 C1343 1.499 . S
C1341 H1315 0.950 . S
C1341 C1340 1.414 . S
C1341 C1342 1.374 . S
C1342 H1316 0.950 . S
C1342 C1338 1.385 . S
C1342 C1341 1.374 . S
C1343 C1340 1.499 . S
C1343 C1344 1.373 . S
C1343 C1345 1.389 . S
C1344 H1317 0.950 . S
C1344 C1330 1.377 . S
C1344 C1343 1.373 . S
C1345 C1329 1.377 . S
C1345 C1343 1.389 . S
C1345 C1346 1.524 . S
C1346 C1345 1.524 . S
C1346 C1347 1.397 . S
C1346 C1351 1.363 . S
C1347 H1318 0.950 . S
C1347 C1346 1.397 . S
C1347 C1348 1.334 . S
C1348 H1319 0.950 . S
C1348 C1347 1.334 . S
C1348 C1349 1.287 . S
C1349 C1348 1.287 . S
C1349 C1350 1.524 . S
C1349 H1352 0.999 . S
C1350 H1320 0.950 . S
C1350 C1349 1.524 . S
C1350 C1351 1.415 . S
C1351 H1321 0.950 . S
C1351 C1346 1.363 . S
C1351 C1350 1.415 . S
H1352 C1349 0.999 . S
H1353 C1334 0.913 . S
H1354 C1372 0.951 . S
H1355 C1374 0.951 . S
H1356 C1376 0.950 . S
H1357 C1377 0.950 . S
H1358 C1379 0.950 . S
H1359 C1382 0.950 . S
H1360 C1383 0.950 . S
H1361 C1385 0.950 . S
H1362 C1386 0.950 . S
H1363 C1387 0.951 . S
H1364 C1389 0.951 . S
H1365 C1391 0.950 . S
H1366 C1392 0.950 . S
H1367 C1394 0.950 . S
H1368 C1397 0.950 . S
H1369 C1398 0.950 . S
H1370 C1400 0.950 . S
H1371 C1401 0.950 . S
C1372 H1354 0.951 . S
C1372 C1373 1.366 . S
C1372 C1374 1.388 . S
C1373 C1372 1.366 . S
C1373 C1377 1.385 . S
C1374 H1355 0.951 . S
C1374 C1372 1.388 . S
C1374 C1375 1.366 . S
C1375 C1374 1.366 . S
C1375 C1376 1.414 . S
C1375 C1378 1.499 . S
C1376 H1356 0.950 . S
C1376 C1375 1.414 . S
C1376 C1377 1.374 . S
C1377 H1357 0.950 . S
C1377 C1373 1.385 . S
C1377 C1376 1.374 . S
C1378 C1375 1.499 . S
C1378 C1379 1.373 . S
C1378 C1380 1.389 . S
C1379 H1358 0.950 . S
C1379 C1378 1.373 . S
C1379 C1395 1.377 . S
C1380 C1378 1.389 . S
C1380 C1381 1.524 . S
C1380 C1394 1.377 . S
C1381 C1380 1.524 . S
C1381 C1382 1.397 . S
C1381 C1386 1.363 . S
C1382 H1359 0.950 . S
C1382 C1381 1.397 . S
C1382 C1383 1.334 . S
C1383 H1360 0.950 . S
C1383 C1382 1.334 . S
C1383 C1384 1.287 . S
C1384 C1383 1.287 . S
C1384 C1385 1.524 . S
C1384 H1403 0.913 . S
C1385 H1361 0.950 . S
C1385 C1384 1.524 . S
C1385 C1386 1.415 . S
C1386 H1362 0.950 . S
C1386 C1381 1.363 . S
C1386 C1385 1.415 . S
C1387 H1363 0.951 . S
C1387 C1388 1.366 . S
C1387 C1389 1.388 . S
C1388 C1387 1.366 . S
C1388 C1392 1.385 . S
C1389 H1364 0.951 . S
C1389 C1387 1.388 . S
C1389 C1390 1.366 . S
C1390 C1389 1.366 . S
C1390 C1391 1.414 . S
C1390 C1393 1.499 . S
C1391 H1365 0.950 . S
C1391 C1390 1.414 . S
C1391 C1392 1.374 . S
C1392 H1366 0.950 . S
C1392 C1388 1.385 . S
C1392 C1391 1.374 . S
C1393 C1390 1.499 . S
C1393 C1394 1.373 . S
C1393 C1395 1.389 . S
C1394 H1367 0.950 . S
C1394 C1380 1.377 . S
C1394 C1393 1.373 . S
C1395 C1379 1.377 . S
C1395 C1393 1.389 . S
C1395 C1396 1.524 . S
C1396 C1395 1.524 . S
C1396 C1397 1.397 . S
C1396 C1401 1.363 . S
C1397 H1368 0.950 . S
C1397 C1396 1.397 . S
C1397 C1398 1.334 . S
C1398 H1369 0.950 . S
C1398 C1397 1.334 . S
C1398 C1399 1.287 . S
C1399 C1398 1.287 . S
C1399 C1400 1.524 . S
C1399 H1402 0.999 . S
C1400 H1370 0.950 . S
C1400 C1399 1.524 . S
C1400 C1401 1.415 . S
C1401 H1371 0.950 . S
C1401 C1396 1.363 . S
C1401 C1400 1.415 . S
H1402 C1399 0.999 . S
H1403 C1384 0.913 . S
H1404 C1422 0.951 . S
H1405 C1424 0.951 . S
H1406 C1426 0.950 . S
H1407 C1427 0.950 . S
H1408 C1429 0.950 . S
H1409 C1432 0.950 . S
H1410 C1433 0.950 . S
H1411 C1435 0.950 . S
H1412 C1436 0.950 . S
H1413 C1437 0.951 . S
H1414 C1439 0.951 . S
H1415 C1441 0.950 . S
H1416 C1442 0.950 . S
H1417 C1444 0.950 . S
H1418 C1447 0.950 . S
H1419 C1448 0.950 . S
H1420 C1450 0.950 . S
H1421 C1451 0.950 . S
C1422 H1404 0.951 . S
C1422 C1423 1.366 . S
C1422 C1424 1.388 . S
C1423 C1422 1.366 . S
C1423 C1427 1.385 . S
C1424 H1405 0.951 . S
C1424 C1422 1.388 . S
C1424 C1425 1.366 . S
C1425 C1424 1.366 . S
C1425 C1426 1.414 . S
C1425 C1428 1.499 . S
C1426 H1406 0.950 . S
C1426 C1425 1.414 . S
C1426 C1427 1.374 . S
C1427 H1407 0.950 . S
C1427 C1423 1.385 . S
C1427 C1426 1.374 . S
C1428 C1425 1.499 . S
C1428 C1429 1.373 . S
C1428 C1430 1.389 . S
C1429 H1408 0.950 . S
C1429 C1428 1.373 . S
C1429 C1445 1.377 . S
C1430 C1428 1.389 . S
C1430 C1431 1.524 . S
C1430 C1444 1.377 . S
C1431 C1430 1.524 . S
C1431 C1432 1.397 . S
C1431 C1436 1.363 . S
C1432 H1409 0.950 . S
C1432 C1431 1.397 . S
C1432 C1433 1.334 . S
C1433 H1410 0.950 . S
C1433 C1432 1.334 . S
C1433 C1434 1.287 . S
C1434 C1433 1.287 . S
C1434 C1435 1.524 . S
C1434 H1453 0.913 . S
C1435 H1411 0.950 . S
C1435 C1434 1.524 . S
C1435 C1436 1.415 . S
C1436 H1412 0.950 . S
C1436 C1431 1.363 . S
C1436 C1435 1.415 . S
C1437 H1413 0.951 . S
C1437 C1438 1.366 . S
C1437 C1439 1.388 . S
C1438 C1437 1.366 . S
C1438 C1442 1.385 . S
C1439 H1414 0.951 . S
C1439 C1437 1.388 . S
C1439 C1440 1.366 . S
C1440 C1439 1.366 . S
C1440 C1441 1.414 . S
C1440 C1443 1.499 . S
C1441 H1415 0.950 . S
C1441 C1440 1.414 . S
C1441 C1442 1.374 . S
C1442 H1416 0.950 . S
C1442 C1438 1.385 . S
C1442 C1441 1.374 . S
C1443 C1440 1.499 . S
C1443 C1444 1.373 . S
C1443 C1445 1.389 . S
C1444 H1417 0.950 . S
C1444 C1430 1.377 . S
C1444 C1443 1.373 . S
C1445 C1429 1.377 . S
C1445 C1443 1.389 . S
C1445 C1446 1.524 . S
C1446 C1445 1.524 . S
C1446 C1447 1.397 . S
C1446 C1451 1.363 . S
C1447 H1418 0.950 . S
C1447 C1446 1.397 . S
C1447 C1448 1.334 . S
C1448 H1419 0.950 . S
C1448 C1447 1.334 . S
C1448 C1449 1.287 . S
C1449 C1448 1.287 . S
C1449 C1450 1.524 . S
C1449 H1452 0.999 . S
C1450 H1420 0.950 . S
C1450 C1449 1.524 . S
C1450 C1451 1.415 . S
C1451 H1421 0.950 . S
C1451 C1446 1.363 . S
C1451 C1450 1.415 . S
H1452 C1449 0.999 . S
H1453 C1434 0.913 . S
H1454 C1472 0.951 . S
H1455 C1474 0.951 . S
H1456 C1476 0.950 . S
H1457 C1477 0.950 . S
H1458 C1479 0.950 . S
H1459 C1482 0.950 . S
H1460 C1483 0.950 . S
H1461 C1485 0.950 . S
H1462 C1486 0.950 . S
H1463 C1487 0.951 . S
H1464 C1489 0.951 . S
H1465 C1491 0.950 . S
H1466 C1492 0.950 . S
H1467 C1494 0.950 . S
H1468 C1497 0.950 . S
H1469 C1498 0.950 . S
H1470 C1500 0.950 . S
H1471 C1501 0.950 . S
C1472 H1454 0.951 . S
C1472 C1473 1.366 . S
C1472 C1474 1.388 . S
C1473 C1472 1.366 . S
C1473 C1477 1.385 . S
C1474 H1455 0.951 . S
C1474 C1472 1.388 . S
C1474 C1475 1.366 . S
C1475 C1474 1.366 . S
C1475 C1476 1.414 . S
C1475 C1478 1.499 . S
C1476 H1456 0.950 . S
C1476 C1475 1.414 . S
C1476 C1477 1.374 . S
C1477 H1457 0.950 . S
C1477 C1473 1.385 . S
C1477 C1476 1.374 . S
C1478 C1475 1.499 . S
C1478 C1479 1.373 . S
C1478 C1480 1.389 . S
C1479 H1458 0.950 . S
C1479 C1478 1.373 . S
C1479 C1495 1.377 . S
C1480 C1478 1.389 . S
C1480 C1481 1.524 . S
C1480 C1494 1.377 . S
C1481 C1480 1.524 . S
C1481 C1482 1.397 . S
C1481 C1486 1.363 . S
C1482 H1459 0.950 . S
C1482 C1481 1.397 . S
C1482 C1483 1.334 . S
C1483 H1460 0.950 . S
C1483 C1482 1.334 . S
C1483 C1484 1.287 . S
C1484 C1483 1.287 . S
C1484 C1485 1.524 . S
C1484 H1503 0.913 . S
C1485 H1461 0.950 . S
C1485 C1484 1.524 . S
C1485 C1486 1.415 . S
C1486 H1462 0.950 . S
C1486 C1481 1.363 . S
C1486 C1485 1.415 . S
C1487 H1463 0.951 . S
C1487 C1488 1.366 . S
C1487 C1489 1.388 . S
C1488 C1487 1.366 . S
C1488 C1492 1.385 . S
C1489 H1464 0.951 . S
C1489 C1487 1.388 . S
C1489 C1490 1.366 . S
C1490 C1489 1.366 . S
C1490 C1491 1.414 . S
C1490 C1493 1.499 . S
C1491 H1465 0.950 . S
C1491 C1490 1.414 . S
C1491 C1492 1.374 . S
C1492 H1466 0.950 . S
C1492 C1488 1.385 . S
C1492 C1491 1.374 . S
C1493 C1490 1.499 . S
C1493 C1494 1.373 . S
C1493 C1495 1.389 . S
C1494 H1467 0.950 . S
C1494 C1480 1.377 . S
C1494 C1493 1.373 . S
C1495 C1479 1.377 . S
C1495 C1493 1.389 . S
C1495 C1496 1.524 . S
C1496 C1495 1.524 . S
C1496 C1497 1.397 . S
C1496 C1501 1.363 . S
C1497 H1468 0.950 . S
C1497 C1496 1.397 . S
C1497 C1498 1.334 . S
C1498 H1469 0.950 . S
C1498 C1497 1.334 . S
C1498 C1499 1.287 . S
C1499 C1498 1.287 . S
C1499 C1500 1.524 . S
C1499 H1502 0.999 . S
C1500 H1470 0.950 . S
C1500 C1499 1.524 . S
C1500 C1501 1.415 . S
C1501 H1471 0.950 . S
C1501 C1496 1.363 . S
C1501 C1500 1.415 . S
H1502 C1499 0.999 . S
H1503 C1484 0.913 . S
H1504 C1522 0.951 . S
H1505 C1524 0.951 . S
H1506 C1526 0.950 . S
H1507 C1527 0.950 . S
H1508 C1529 0.950 . S
H1509 C1532 0.950 . S
H1510 C1533 0.950 . S
H1511 C1535 0.950 . S
H1512 C1536 0.950 . S
H1513 C1537 0.951 . S
H1514 C1539 0.951 . S
H1515 C1541 0.950 . S
H1516 C1542 0.950 . S
H1517 C1544 0.950 . S
H1518 C1547 0.950 . S
H1519 C1548 0.950 . S
H1520 C1550 0.950 . S
H1521 C1551 0.950 . S
C1522 H1504 0.951 . S
C1522 C1523 1.366 . S
C1522 C1524 1.388 . S
C1523 C1522 1.366 . S
C1523 C1527 1.385 . S
C1524 H1505 0.951 . S
C1524 C1522 1.388 . S
C1524 C1525 1.366 . S
C1525 C1524 1.366 . S
C1525 C1526 1.414 . S
C1525 C1528 1.499 . S
C1526 H1506 0.950 . S
C1526 C1525 1.414 . S
C1526 C1527 1.374 . S
C1527 H1507 0.950 . S
C1527 C1523 1.385 . S
C1527 C1526 1.374 . S
C1528 C1525 1.499 . S
C1528 C1529 1.373 . S
C1528 C1530 1.389 . S
C1529 H1508 0.950 . S
C1529 C1528 1.373 . S
C1529 C1545 1.377 . S
C1530 C1528 1.389 . S
C1530 C1531 1.524 . S
C1530 C1544 1.377 . S
C1531 C1530 1.524 . S
C1531 C1532 1.397 . S
C1531 C1536 1.363 . S
C1532 H1509 0.950 . S
C1532 C1531 1.397 . S
C1532 C1533 1.334 . S
C1533 H1510 0.950 . S
C1533 C1532 1.334 . S
C1533 C1534 1.287 . S
C1534 C1533 1.287 . S
C1534 C1535 1.524 . S
C1534 H1553 0.913 . S
C1535 H1511 0.950 . S
C1535 C1534 1.524 . S
C1535 C1536 1.415 . S
C1536 H1512 0.950 . S
C1536 C1531 1.363 . S
C1536 C1535 1.415 . S
C1537 H1513 0.951 . S
C1537 C1538 1.366 . S
C1537 C1539 1.388 . S
C1538 C1537 1.366 . S
C1538 C1542 1.385 . S
C1539 H1514 0.951 . S
C1539 C1537 1.388 . S
C1539 C1540 1.366 . S
C1540 C1539 1.366 . S
C1540 C1541 1.414 . S
C1540 C1543 1.499 . S
C1541 H1515 0.950 . S
C1541 C1540 1.414 . S
C1541 C1542 1.374 . S
C1542 H1516 0.950 . S
C1542 C1538 1.385 . S
C1542 C1541 1.374 . S
C1543 C1540 1.499 . S
C1543 C1544 1.373 . S
C1543 C1545 1.389 . S
C1544 H1517 0.950 . S
C1544 C1530 1.377 . S
C1544 C1543 1.373 . S
C1545 C1529 1.377 . S
C1545 C1543 1.389 . S
C1545 C1546 1.524 . S
C1546 C1545 1.524 . S
C1546 C1547 1.397 . S
C1546 C1551 1.363 . S
C1547 H1518 0.950 . S
C1547 C1546 1.397 . S
C1547 C1548 1.334 . S
C1548 H1519 0.950 . S
C1548 C1547 1.334 . S
C1548 C1549 1.287 . S
C1549 C1548 1.287 . S
C1549 C1550 1.524 . S
C1549 H1552 0.999 . S
C1550 H1520 0.950 . S
C1550 C1549 1.524 . S
C1550 C1551 1.415 . S
C1551 H1521 0.950 . S
C1551 C1546 1.363 . S
C1551 C1550 1.415 . S
H1552 C1549 0.999 . S
H1553 C1534 0.913 . S
H1554 C1572 0.951 . S
H1555 C1574 0.951 . S
H1556 C1576 0.950 . S
H1557 C1577 0.950 . S
H1558 C1579 0.950 . S
H1559 C1582 0.950 . S
H1560 C1583 0.950 . S
H1561 C1585 0.950 . S
H1562 C1586 0.950 . S
H1563 C1587 0.951 . S
H1564 C1589 0.951 . S
H1565 C1591 0.950 . S
H1566 C1592 0.863 1_556 S
H1567 C1594 0.950 . S
H1568 C1597 0.950 . S
H1569 C1598 0.950 . S
H1570 C1600 0.950 . S
H1571 C1601 0.950 . S
C1572 H1554 0.951 . S
C1572 C1573 1.366 . S
C1572 C1574 1.388 . S
C1573 C1572 1.366 . S
C1573 C1577 1.385 . S
C1574 H1555 0.951 . S
C1574 C1572 1.388 . S
C1574 C1575 1.366 . S
C1575 C1574 1.366 . S
C1575 C1576 1.414 . S
C1575 C1578 1.499 . S
C1576 H1556 0.950 . S
C1576 C1575 1.414 . S
C1576 C1577 1.374 . S
C1577 H1557 0.950 . S
C1577 C1573 1.385 . S
C1577 C1576 1.374 . S
C1578 C1575 1.499 . S
C1578 C1579 1.373 . S
C1578 C1580 1.389 . S
C1579 H1558 0.950 . S
C1579 C1578 1.373 . S
C1579 C1595 1.377 . S
C1580 C1578 1.389 . S
C1580 C1581 1.524 . S
C1580 C1594 1.377 . S
C1581 C1580 1.524 . S
C1581 C1582 1.397 . S
C1581 C1586 1.363 . S
C1582 H1559 0.950 . S
C1582 C1581 1.397 . S
C1582 C1583 1.334 . S
C1583 H1560 0.950 . S
C1583 C1582 1.334 . S
C1583 C1584 1.287 . S
C1584 C1583 1.287 . S
C1584 C1585 1.524 . S
C1584 H1603 0.913 . S
C1585 H1561 0.950 . S
C1585 C1584 1.524 . S
C1585 C1586 1.415 . S
C1586 H1562 0.950 . S
C1586 C1581 1.363 . S
C1586 C1585 1.415 . S
C1587 H1563 0.951 . S
C1587 C1588 1.366 . S
C1587 C1589 1.388 . S
C1588 C1587 1.366 . S
C1588 C1592 1.397 . S
C1589 H1564 0.951 . S
C1589 C1587 1.388 . S
C1589 C1590 1.366 . S
C1590 C1589 1.366 . S
C1590 C1591 1.414 . S
C1590 C1593 1.499 . S
C1591 H1565 0.950 . S
C1591 C1590 1.414 . S
C1591 C1592 1.458 . S
C1592 H1566 0.863 1_554 S
C1592 C1588 1.397 . S
C1592 C1591 1.458 . S
C1593 C1590 1.499 . S
C1593 C1594 1.373 . S
C1593 C1595 1.389 . S
C1594 H1567 0.950 . S
C1594 C1580 1.377 . S
C1594 C1593 1.373 . S
C1595 C1579 1.377 . S
C1595 C1593 1.389 . S
C1595 C1596 1.524 . S
C1596 C1595 1.524 . S
C1596 C1597 1.397 . S
C1596 C1601 1.363 . S
C1597 H1568 0.950 . S
C1597 C1596 1.397 . S
C1597 C1598 1.334 . S
C1598 H1569 0.950 . S
C1598 C1597 1.334 . S
C1598 C1599 1.287 . S
C1599 C1598 1.287 . S
C1599 C1600 1.524 . S
C1599 H1602 0.999 . S
C1600 H1570 0.950 . S
C1600 C1599 1.524 . S
C1600 C1601 1.415 . S
C1601 H1571 0.950 . S
C1601 C1596 1.363 . S
C1601 C1600 1.415 . S
H1602 C1599 0.999 . S
H1603 C1584 0.913 . S
H1604 C1622 0.951 . S
H1605 C1624 0.951 . S
H1606 C1626 0.950 . S
H1607 C1627 0.950 . S
H1608 C1629 0.950 . S
H1609 C1632 0.950 . S
H1610 C1633 0.950 . S
H1611 C1635 0.950 . S
H1612 C1636 0.950 . S
H1613 C1637 0.951 1_556 S
H1614 C1639 0.951 . S
H1615 C1641 0.950 . S
H1616 C1642 0.950 . S
H1617 C1644 0.950 . S
H1618 C1647 0.950 . S
H1619 C1648 0.950 . S
H1620 C1650 0.950 . S
H1621 C1651 0.950 . S
C1622 H1604 0.951 . S
C1622 C1623 1.366 . S
C1622 C1624 1.388 . S
C1623 C1622 1.366 . S
C1623 C1627 1.385 . S
C1624 H1605 0.951 . S
C1624 C1622 1.388 . S
C1624 C1625 1.366 . S
C1625 C1624 1.366 . S
C1625 C1626 1.414 . S
C1625 C1628 1.499 . S
C1626 H1606 0.950 . S
C1626 C1625 1.414 . S
C1626 C1627 1.374 . S
C1627 H1607 0.950 . S
C1627 C1623 1.385 . S
C1627 C1626 1.374 . S
C1628 C1625 1.499 . S
C1628 C1629 1.373 . S
C1628 C1630 1.389 . S
C1629 H1608 0.950 . S
C1629 C1628 1.373 . S
C1629 C1645 1.377 . S
C1630 C1628 1.389 . S
C1630 C1631 1.524 . S
C1630 C1644 1.377 . S
C1631 C1630 1.524 . S
C1631 C1632 1.397 . S
C1631 C1636 1.363 . S
C1632 H1609 0.950 . S
C1632 C1631 1.397 . S
C1632 C1633 1.334 . S
C1633 H1610 0.950 . S
C1633 C1632 1.334 . S
C1633 C1634 1.287 . S
C1634 C1633 1.287 . S
C1634 C1635 1.524 . S
C1634 H1653 0.913 . S
C1635 H1611 0.950 . S
C1635 C1634 1.524 . S
C1635 C1636 1.415 . S
C1636 H1612 0.950 . S
C1636 C1631 1.363 . S
C1636 C1635 1.415 . S
C1637 H1613 0.951 1_554 S
C1637 C1638 1.366 . S
C1637 C1639 1.388 . S
C1638 C1637 1.366 . S
C1638 C1642 1.385 . S
C1639 H1614 0.951 . S
C1639 C1637 1.388 . S
C1639 C1640 1.366 . S
C1640 C1639 1.366 . S
C1640 C1641 1.414 . S
C1640 C1643 1.499 . S
C1641 H1615 0.950 . S
C1641 C1640 1.414 . S
C1641 C1642 1.374 . S
C1642 H1616 0.950 . S
C1642 C1638 1.385 . S
C1642 C1641 1.374 . S
C1643 C1640 1.499 . S
C1643 C1644 1.373 . S
C1643 C1645 1.389 . S
C1644 H1617 0.950 . S
C1644 C1630 1.377 . S
C1644 C1643 1.373 . S
C1645 C1629 1.377 . S
C1645 C1643 1.389 . S
C1645 C1646 1.524 . S
C1646 C1645 1.524 . S
C1646 C1647 1.397 . S
C1646 C1651 1.363 . S
C1647 H1618 0.950 . S
C1647 C1646 1.397 . S
C1647 C1648 1.334 . S
C1648 H1619 0.950 . S
C1648 C1647 1.334 . S
C1648 C1649 1.287 . S
C1649 C1648 1.287 . S
C1649 C1650 1.524 . S
C1649 H1652 0.999 . S
C1650 H1620 0.950 . S
C1650 C1649 1.524 . S
C1650 C1651 1.415 . S
C1651 H1621 0.950 . S
C1651 C1646 1.363 . S
C1651 C1650 1.415 . S
H1652 C1649 0.999 . S
H1653 C1634 0.913 . S
H1654 C1672 0.951 . S
H1655 C1674 0.951 . S
H1656 C1676 0.950 . S
H1657 C1677 0.950 . S
H1658 C1679 0.950 . S
H1659 C1682 0.950 . S
H1660 C1683 0.950 . S
H1661 C1685 0.950 . S
H1662 C1686 0.950 . S
H1663 C1687 0.899 1_556 S
H1664 C1689 0.951 . S
H1665 C1691 0.950 . S
H1666 C1692 0.950 . S
H1667 C1694 0.950 . S
H1668 C1697 0.950 . S
H1669 C1698 0.950 . S
H1670 C1700 0.950 . S
H1671 C1701 0.950 . S
C1672 H1654 0.951 . S
C1672 C1673 1.366 . S
C1672 C1674 1.388 . S
C1673 C1672 1.366 . S
C1673 C1677 1.385 . S
C1674 H1655 0.951 . S
C1674 C1672 1.388 . S
C1674 C1675 1.366 . S
C1675 C1674 1.366 . S
C1675 C1676 1.414 . S
C1675 C1678 1.499 . S
C1676 H1656 0.950 . S
C1676 C1675 1.414 . S
C1676 C1677 1.374 . S
C1677 H1657 0.950 . S
C1677 C1673 1.385 . S
C1677 C1676 1.374 . S
C1678 C1675 1.499 . S
C1678 C1679 1.373 . S
C1678 C1680 1.389 . S
C1679 H1658 0.950 . S
C1679 C1678 1.373 . S
C1679 C1695 1.377 . S
C1680 C1678 1.389 . S
C1680 C1681 1.524 . S
C1680 C1694 1.377 . S
C1681 C1680 1.524 . S
C1681 C1682 1.397 . S
C1681 C1686 1.363 . S
C1682 H1659 0.950 . S
C1682 C1681 1.397 . S
C1682 C1683 1.334 . S
C1683 H1660 0.950 . S
C1683 C1682 1.334 . S
C1683 C1684 1.287 . S
C1684 C1683 1.287 . S
C1684 C1685 1.524 . S
C1684 H1703 0.913 . S
C1685 H1661 0.950 . S
C1685 C1684 1.524 . S
C1685 C1686 1.415 . S
C1686 H1662 0.950 . S
C1686 C1681 1.363 . S
C1686 C1685 1.415 . S
C1687 H1663 0.899 1_554 S
C1687 C1688 1.373 . S
C1687 C1689 1.436 . S
C1688 C1687 1.373 . S
C1688 C1692 1.385 . S
C1689 H1664 0.951 . S
C1689 C1687 1.436 . S
C1689 C1690 1.366 . S
C1690 C1689 1.366 . S
C1690 C1691 1.414 . S
C1690 C1693 1.499 . S
C1691 H1665 0.950 . S
C1691 C1690 1.414 . S
C1691 C1692 1.374 . S
C1692 H1666 0.950 . S
C1692 C1688 1.385 . S
C1692 C1691 1.374 . S
C1693 C1690 1.499 . S
C1693 C1694 1.373 . S
C1693 C1695 1.389 . S
C1694 H1667 0.950 . S
C1694 C1680 1.377 . S
C1694 C1693 1.373 . S
C1695 C1679 1.377 . S
C1695 C1693 1.389 . S
C1695 C1696 1.524 . S
C1696 C1695 1.524 . S
C1696 C1697 1.397 . S
C1696 C1701 1.363 . S
C1697 H1668 0.950 . S
C1697 C1696 1.397 . S
C1697 C1698 1.334 1_554 S
C1698 H1669 0.950 . S
C1698 C1697 1.334 1_556 S
C1698 C1699 1.287 . S
C1699 C1698 1.287 . S
C1699 C1700 1.524 . S
C1699 H1702 0.999 . S
C1700 H1670 0.950 . S
C1700 C1699 1.524 . S
C1700 C1701 1.415 1_556 S
C1701 H1671 0.950 . S
C1701 C1696 1.363 . S
C1701 C1700 1.415 1_554 S
H1702 C1699 0.999 . S
H1703 C1684 0.913 . S
H1704 C1722 0.951 . S
H1705 C1724 0.951 . S
H1706 C1726 0.950 . S
H1707 C1727 0.950 . S
H1708 C1729 0.950 . S
H1709 C1732 0.950 . S
H1710 C1733 0.950 . S
H1711 C1735 0.950 . S
H1712 C1736 0.950 . S
H1713 C1737 0.951 . S
H1714 C1739 0.951 . S
H1715 C1741 0.950 . S
H1716 C1742 0.950 . S
H1717 C1744 0.950 . S
H1718 C1747 0.950 . S
H1719 C1748 0.950 . S
H1720 C1750 0.950 . S
H1721 C1751 0.950 . S
C1722 H1704 0.951 . S
C1722 C1723 1.366 . S
C1722 C1724 1.388 . S
C1723 C1722 1.366 . S
C1723 C1727 1.385 . S
C1724 H1705 0.951 . S
C1724 C1722 1.388 . S
C1724 C1725 1.366 . S
C1725 C1724 1.366 . S
C1725 C1726 1.414 . S
C1725 C1728 1.499 . S
C1726 H1706 0.950 . S
C1726 C1725 1.414 . S
C1726 C1727 1.374 . S
C1727 H1707 0.950 . S
C1727 C1723 1.385 . S
C1727 C1726 1.374 . S
C1728 C1725 1.499 . S
C1728 C1729 1.373 . S
C1728 C1730 1.389 . S
C1729 H1708 0.950 . S
C1729 C1728 1.373 . S
C1729 C1745 1.377 . S
C1730 C1728 1.389 . S
C1730 C1731 1.524 . S
C1730 C1744 1.377 . S
C1731 C1730 1.524 . S
C1731 C1732 1.397 . S
C1731 C1736 1.363 . S
C1732 H1709 0.950 . S
C1732 C1731 1.397 . S
C1732 C1733 1.334 . S
C1733 H1710 0.950 . S
C1733 C1732 1.334 . S
C1733 C1734 1.287 . S
C1734 C1733 1.287 . S
C1734 C1735 1.524 . S
C1734 H1753 0.913 . S
C1735 H1711 0.950 . S
C1735 C1734 1.524 . S
C1735 C1736 1.415 . S
C1736 H1712 0.950 . S
C1736 C1731 1.363 . S
C1736 C1735 1.415 . S
C1737 H1713 0.951 . S
C1737 C1738 1.366 . S
C1737 C1739 1.388 . S
C1738 C1737 1.366 . S
C1738 C1742 1.385 . S
C1739 H1714 0.951 . S
C1739 C1737 1.388 . S
C1739 C1740 1.366 . S
C1740 C1739 1.366 . S
C1740 C1741 1.414 . S
C1740 C1743 1.499 . S
C1741 H1715 0.950 . S
C1741 C1740 1.414 . S
C1741 C1742 1.374 . S
C1742 H1716 0.950 . S
C1742 C1738 1.385 . S
C1742 C1741 1.374 . S
C1743 C1740 1.499 . S
C1743 C1744 1.373 . S
C1743 C1745 1.389 . S
C1744 H1717 0.950 . S
C1744 C1730 1.377 . S
C1744 C1743 1.373 . S
C1745 C1729 1.377 . S
C1745 C1743 1.389 . S
C1745 C1746 1.524 . S
C1746 C1745 1.524 . S
C1746 C1747 1.397 . S
C1746 C1751 1.363 . S
C1747 H1718 0.950 . S
C1747 C1746 1.397 . S
C1747 C1748 1.334 . S
C1748 H1719 0.950 . S
C1748 C1747 1.334 . S
C1748 C1749 1.287 . S
C1749 C1748 1.287 . S
C1749 C1750 1.524 . S
C1749 H1752 0.999 . S
C1750 H1720 0.950 . S
C1750 C1749 1.524 . S
C1750 C1751 1.415 . S
C1751 H1721 0.950 . S
C1751 C1746 1.363 . S
C1751 C1750 1.415 . S
H1752 C1749 0.999 . S
H1753 C1734 0.913 . S
H1754 C1772 0.951 . S
H1755 C1774 0.951 . S
H1756 C1776 0.950 . S
H1757 C1777 0.950 . S
H1758 C1779 0.950 . S
H1759 C1782 0.950 . S
H1760 C1783 0.950 . S
H1761 C1785 0.950 . S
H1762 C1786 0.950 . S
H1763 C1787 0.951 . S
H1764 C1789 0.951 . S
H1765 C1791 0.950 . S
H1766 C1792 0.950 . S
H1767 C1794 0.950 . S
H1768 C1797 0.950 . S
H1769 C1798 0.950 . S
H1770 C1800 0.950 . S
H1771 C1801 0.950 . S
C1772 H1754 0.951 . S
C1772 C1773 1.366 . S
C1772 C1774 1.388 . S
C1773 C1772 1.366 . S
C1773 C1777 1.385 . S
C1774 H1755 0.951 . S
C1774 C1772 1.388 . S
C1774 C1775 1.366 . S
C1775 C1774 1.366 . S
C1775 C1776 1.414 . S
C1775 C1778 1.499 . S
C1776 H1756 0.950 . S
C1776 C1775 1.414 . S
C1776 C1777 1.374 . S
C1777 H1757 0.950 . S
C1777 C1773 1.385 . S
C1777 C1776 1.374 . S
C1778 C1775 1.499 . S
C1778 C1779 1.373 . S
C1778 C1780 1.389 . S
C1779 H1758 0.950 . S
C1779 C1778 1.373 . S
C1779 C1795 1.377 . S
C1780 C1778 1.389 . S
C1780 C1781 1.524 . S
C1780 C1794 1.377 . S
C1781 C1780 1.524 . S
C1781 C1782 1.397 . S
C1781 C1786 1.363 . S
C1782 H1759 0.950 . S
C1782 C1781 1.397 . S
C1782 C1783 1.334 . S
C1783 H1760 0.950 . S
C1783 C1782 1.334 . S
C1783 C1784 1.287 . S
C1784 C1783 1.287 . S
C1784 C1785 1.524 . S
C1784 H1803 0.913 . S
C1785 H1761 0.950 . S
C1785 C1784 1.524 . S
C1785 C1786 1.415 . S
C1786 H1762 0.950 . S
C1786 C1781 1.363 . S
C1786 C1785 1.415 . S
C1787 H1763 0.951 . S
C1787 C1788 1.366 . S
C1787 C1789 1.388 . S
C1788 C1787 1.366 . S
C1788 C1792 1.385 . S
C1789 H1764 0.951 . S
C1789 C1787 1.388 . S
C1789 C1790 1.366 . S
C1790 C1789 1.366 . S
C1790 C1791 1.414 . S
C1790 C1793 1.499 . S
C1791 H1765 0.950 . S
C1791 C1790 1.414 . S
C1791 C1792 1.374 . S
C1792 H1766 0.950 . S
C1792 C1788 1.385 . S
C1792 C1791 1.374 . S
C1793 C1790 1.499 . S
C1793 C1794 1.373 . S
C1793 C1795 1.389 . S
C1794 H1767 0.950 . S
C1794 C1780 1.377 . S
C1794 C1793 1.373 . S
C1795 C1779 1.377 . S
C1795 C1793 1.389 . S
C1795 C1796 1.524 . S
C1796 C1795 1.524 . S
C1796 C1797 1.397 . S
C1796 C1801 1.363 . S
C1797 H1768 0.950 . S
C1797 C1796 1.397 . S
C1797 C1798 1.334 . S
C1798 H1769 0.950 . S
C1798 C1797 1.334 . S
C1798 C1799 1.287 . S
C1799 C1798 1.287 . S
C1799 C1800 1.524 . S
C1799 H1802 0.999 . S
C1800 H1770 0.950 . S
C1800 C1799 1.524 . S
C1800 C1801 1.415 . S
C1801 H1771 0.950 . S
C1801 C1796 1.363 . S
C1801 C1800 1.415 . S
H1802 C1799 0.999 . S
H1803 C1784 0.913 . S
H1804 C1822 0.951 . S
H1805 C1824 0.951 . S
H1806 C1826 0.950 . S
H1807 C1827 0.950 . S
H1808 C1829 0.950 . S
H1809 C1832 0.950 . S
H1810 C1833 0.950 . S
H1811 C1835 0.950 . S
H1812 C1836 0.950 . S
H1813 C1837 0.951 . S
H1814 C1839 0.951 . S
H1815 C1841 0.950 . S
H1816 C1842 0.950 . S
H1817 C1844 0.950 . S
H1818 C1847 0.950 . S
H1819 C1848 0.950 . S
H1820 C1850 0.950 . S
H1821 C1851 0.950 . S
C1822 H1804 0.951 . S
C1822 C1823 1.366 . S
C1822 C1824 1.388 . S
C1823 C1822 1.366 . S
C1823 C1827 1.385 . S
C1824 H1805 0.951 . S
C1824 C1822 1.388 . S
C1824 C1825 1.366 . S
C1825 C1824 1.366 . S
C1825 C1826 1.414 . S
C1825 C1828 1.499 . S
C1826 H1806 0.950 . S
C1826 C1825 1.414 . S
C1826 C1827 1.374 . S
C1827 H1807 0.950 . S
C1827 C1823 1.385 . S
C1827 C1826 1.374 . S
C1828 C1825 1.499 . S
C1828 C1829 1.373 . S
C1828 C1830 1.389 . S
C1829 H1808 0.950 . S
C1829 C1828 1.373 . S
C1829 C1845 1.377 . S
C1830 C1828 1.389 . S
C1830 C1831 1.524 . S
C1830 C1844 1.377 . S
C1831 C1830 1.524 . S
C1831 C1832 1.397 . S
C1831 C1836 1.363 . S
C1832 H1809 0.950 . S
C1832 C1831 1.397 . S
C1832 C1833 1.334 . S
C1833 H1810 0.950 . S
C1833 C1832 1.334 . S
C1833 C1834 1.287 . S
C1834 C1833 1.287 . S
C1834 C1835 1.524 . S
C1834 H1853 0.913 . S
C1835 H1811 0.950 . S
C1835 C1834 1.524 . S
C1835 C1836 1.415 . S
C1836 H1812 0.950 . S
C1836 C1831 1.363 . S
C1836 C1835 1.415 . S
C1837 H1813 0.951 . S
C1837 C1838 1.366 . S
C1837 C1839 1.388 . S
C1838 C1837 1.366 . S
C1838 C1842 1.385 . S
C1839 H1814 0.951 . S
C1839 C1837 1.388 . S
C1839 C1840 1.366 . S
C1840 C1839 1.366 . S
C1840 C1841 1.414 . S
C1840 C1843 1.499 . S
C1841 H1815 0.950 . S
C1841 C1840 1.414 . S
C1841 C1842 1.374 . S
C1842 H1816 0.950 . S
C1842 C1838 1.385 . S
C1842 C1841 1.374 . S
C1843 C1840 1.499 . S
C1843 C1844 1.373 . S
C1843 C1845 1.389 . S
C1844 H1817 0.950 . S
C1844 C1830 1.377 . S
C1844 C1843 1.373 . S
C1845 C1829 1.377 . S
C1845 C1843 1.389 . S
C1845 C1846 1.524 . S
C1846 C1845 1.524 . S
C1846 C1847 1.397 . S
C1846 C1851 1.363 . S
C1847 H1818 0.950 . S
C1847 C1846 1.397 . S
C1847 C1848 1.334 . S
C1848 H1819 0.950 . S
C1848 C1847 1.334 . S
C1848 C1849 1.287 . S
C1849 C1848 1.287 . S
C1849 C1850 1.524 . S
C1849 H1852 0.999 . S
C1850 H1820 0.950 . S
C1850 C1849 1.524 . S
C1850 C1851 1.415 . S
C1851 H1821 0.950 . S
C1851 C1846 1.363 . S
C1851 C1850 1.415 . S
H1852 C1849 0.999 . S
H1853 C1834 0.913 . S
H1854 C1872 0.951 . S
H1855 C1874 0.951 . S
H1856 C1876 0.950 . S
H1857 C1877 0.950 . S
H1858 C1879 0.950 . S
H1859 C1882 0.950 . S
H1860 C1883 0.950 . S
H1861 C1885 0.950 . S
H1862 C1886 0.950 . S
H1863 C1887 0.951 . S
H1864 C1889 0.951 . S
H1865 C1891 0.950 . S
H1866 C1892 0.950 . S
H1867 C1894 0.950 . S
H1868 C1897 0.950 . S
H1869 C1898 0.950 . S
H1870 C1900 0.950 . S
H1871 C1901 0.950 . S
C1872 H1854 0.951 . S
C1872 C1873 1.366 . S
C1872 C1874 1.388 . S
C1873 C1872 1.366 . S
C1873 C1877 1.385 . S
C1874 H1855 0.951 . S
C1874 C1872 1.388 . S
C1874 C1875 1.366 . S
C1875 C1874 1.366 . S
C1875 C1876 1.414 . S
C1875 C1878 1.499 . S
C1876 H1856 0.950 . S
C1876 C1875 1.414 . S
C1876 C1877 1.374 . S
C1877 H1857 0.950 . S
C1877 C1873 1.385 . S
C1877 C1876 1.374 . S
C1878 C1875 1.499 . S
C1878 C1879 1.373 . S
C1878 C1880 1.389 . S
C1879 H1858 0.950 . S
C1879 C1878 1.373 . S
C1879 C1895 1.377 . S
C1880 C1878 1.389 . S
C1880 C1881 1.524 . S
C1880 C1894 1.377 . S
C1881 C1880 1.524 . S
C1881 C1882 1.397 . S
C1881 C1886 1.363 . S
C1882 H1859 0.950 . S
C1882 C1881 1.397 . S
C1882 C1883 1.334 . S
C1883 H1860 0.950 . S
C1883 C1882 1.334 . S
C1883 C1884 1.287 . S
C1884 C1883 1.287 . S
C1884 C1885 1.524 . S
C1884 H1903 0.913 . S
C1885 H1861 0.950 . S
C1885 C1884 1.524 . S
C1885 C1886 1.415 . S
C1886 H1862 0.950 . S
C1886 C1881 1.363 . S
C1886 C1885 1.415 . S
C1887 H1863 0.951 . S
C1887 C1888 1.366 . S
C1887 C1889 1.388 . S
C1888 C1887 1.366 . S
C1888 C1892 1.385 . S
C1889 H1864 0.951 . S
C1889 C1887 1.388 . S
C1889 C1890 1.366 . S
C1890 C1889 1.366 . S
C1890 C1891 1.414 . S
C1890 C1893 1.499 . S
C1891 H1865 0.950 . S
C1891 C1890 1.414 . S
C1891 C1892 1.374 . S
C1892 H1866 0.950 . S
C1892 C1888 1.385 . S
C1892 C1891 1.374 . S
C1893 C1890 1.499 . S
C1893 C1894 1.373 . S
C1893 C1895 1.389 . S
C1894 H1867 0.950 . S
C1894 C1880 1.377 . S
C1894 C1893 1.373 . S
C1895 C1879 1.377 . S
C1895 C1893 1.389 . S
C1895 C1896 1.524 . S
C1896 C1895 1.524 . S
C1896 C1897 1.397 . S
C1896 C1901 1.363 . S
C1897 H1868 0.950 . S
C1897 C1896 1.397 . S
C1897 C1898 1.334 . S
C1898 H1869 0.950 . S
C1898 C1897 1.334 . S
C1898 C1899 1.287 . S
C1899 C1898 1.287 . S
C1899 C1900 1.524 . S
C1899 H1902 0.999 . S
C1900 H1870 0.950 . S
C1900 C1899 1.524 . S
C1900 C1901 1.415 . S
C1901 H1871 0.950 . S
C1901 C1896 1.363 . S
C1901 C1900 1.415 . S
H1902 C1899 0.999 . S
H1903 C1884 0.913 . S
H1904 C1922 0.951 . S
H1905 C1924 0.951 . S
H1906 C1926 0.950 . S
H1907 C1927 0.950 . S
H1908 C1929 0.950 . S
H1909 C1932 0.950 . S
H1910 C1933 0.950 . S
H1911 C1935 0.950 . S
H1912 C1936 0.950 . S
H1913 C1937 0.951 . S
H1914 C1939 0.951 . S
H1915 C1941 0.950 . S
H1916 C1942 1.047 . S
H1917 C1944 0.950 . S
H1918 C1947 0.950 . S
H1919 C1948 0.950 . S
H1920 C1950 0.950 . S
H1921 C1951 0.950 . S
C1922 H1904 0.951 . S
C1922 C1923 1.366 . S
C1922 C1924 1.388 . S
C1923 C1922 1.366 . S
C1923 C1927 1.385 . S
C1924 H1905 0.951 . S
C1924 C1922 1.388 . S
C1924 C1925 1.366 . S
C1925 C1924 1.366 . S
C1925 C1926 1.414 . S
C1925 C1928 1.499 . S
C1926 H1906 0.950 . S
C1926 C1925 1.414 . S
C1926 C1927 1.374 . S
C1927 H1907 0.950 . S
C1927 C1923 1.385 . S
C1927 C1926 1.374 . S
C1928 C1925 1.499 . S
C1928 C1929 1.373 . S
C1928 C1930 1.389 . S
C1929 H1908 0.950 . S
C1929 C1928 1.373 . S
C1929 C1945 1.377 . S
C1930 C1928 1.389 . S
C1930 C1931 1.524 . S
C1930 C1944 1.377 . S
C1931 C1930 1.524 . S
C1931 C1932 1.397 . S
C1931 C1936 1.363 . S
C1932 H1909 0.950 . S
C1932 C1931 1.397 . S
C1932 C1933 1.334 . S
C1933 H1910 0.950 . S
C1933 C1932 1.334 . S
C1933 C1934 1.287 . S
C1934 C1933 1.287 . S
C1934 C1935 1.524 . S
C1934 H1953 0.913 . S
C1935 H1911 0.950 . S
C1935 C1934 1.524 . S
C1935 C1936 1.415 . S
C1936 H1912 0.950 . S
C1936 C1931 1.363 . S
C1936 C1935 1.415 . S
C1937 H1913 0.951 . S
C1937 C1938 1.366 . S
C1937 C1939 1.388 . S
C1938 C1937 1.366 . S
C1938 C1942 1.366 1_556 S
C1939 H1914 0.951 . S
C1939 C1937 1.388 . S
C1939 C1940 1.366 . S
C1940 C1939 1.366 . S
C1940 C1941 1.414 . S
C1940 C1943 1.499 . S
C1941 H1915 0.950 . S
C1941 C1940 1.414 . S
C1941 C1942 1.303 1_556 S
C1942 H1916 1.047 . S
C1942 C1938 1.366 1_554 S
C1942 C1941 1.303 1_554 S
C1943 C1940 1.499 . S
C1943 C1944 1.373 . S
C1943 C1945 1.389 . S
C1944 H1917 0.950 . S
C1944 C1930 1.377 . S
C1944 C1943 1.373 . S
C1945 C1929 1.377 . S
C1945 C1943 1.389 . S
C1945 C1946 1.524 . S
C1946 C1945 1.524 . S
C1946 C1947 1.397 . S
C1946 C1951 1.363 . S
C1947 H1918 0.950 . S
C1947 C1946 1.397 . S
C1947 C1948 1.334 . S
C1948 H1919 0.950 . S
C1948 C1947 1.334 . S
C1948 C1949 1.287 . S
C1949 C1948 1.287 . S
C1949 C1950 1.524 . S
C1949 H1952 0.999 . S
C1950 H1920 0.950 . S
C1950 C1949 1.524 . S
C1950 C1951 1.415 . S
C1951 H1921 0.950 . S
C1951 C1946 1.363 . S
C1951 C1950 1.415 . S
H1952 C1949 0.999 . S
H1953 C1934 0.913 . S
H1954 C1972 0.951 . S
H1955 C1974 0.951 . S
H1956 C1976 0.950 . S
H1957 C1977 0.950 . S
H1958 C1979 0.950 . S
H1959 C1982 0.950 . S
H1960 C1983 0.950 . S
H1961 C1985 0.950 . S
H1962 C1986 0.950 . S
H1963 C1987 0.951 . S
H1964 C1989 0.951 . S
H1965 C1991 0.950 . S
H1966 C1992 0.950 1_554 S
H1967 C1994 0.950 . S
H1968 C1997 0.950 . S
H1969 C1998 0.950 1_554 S
H1970 C2000 0.950 . S
H1971 C2001 0.950 . S
C1972 H1954 0.951 . S
C1972 C1973 1.366 . S
C1972 C1974 1.388 . S
C1973 C1972 1.366 . S
C1973 C1977 1.385 . S
C1974 H1955 0.951 . S
C1974 C1972 1.388 . S
C1974 C1975 1.366 . S
C1975 C1974 1.366 . S
C1975 C1976 1.414 . S
C1975 C1978 1.499 . S
C1976 H1956 0.950 . S
C1976 C1975 1.414 . S
C1976 C1977 1.374 . S
C1977 H1957 0.950 . S
C1977 C1973 1.385 . S
C1977 C1976 1.374 . S
C1978 C1975 1.499 . S
C1978 C1979 1.373 . S
C1978 C1980 1.389 . S
C1979 H1958 0.950 . S
C1979 C1978 1.373 . S
C1979 C1995 1.377 . S
C1980 C1978 1.389 . S
C1980 C1981 1.524 . S
C1980 C1994 1.377 . S
C1981 C1980 1.524 . S
C1981 C1982 1.397 . S
C1981 C1986 1.363 . S
C1982 H1959 0.950 . S
C1982 C1981 1.397 . S
C1982 C1983 1.334 . S
C1983 H1960 0.950 . S
C1983 C1982 1.334 . S
C1983 C1984 1.287 . S
C1984 C1983 1.287 . S
C1984 C1985 1.524 . S
C1984 H2003 0.913 . S
C1985 H1961 0.950 . S
C1985 C1984 1.524 . S
C1985 C1986 1.415 . S
C1986 H1962 0.950 . S
C1986 C1981 1.363 . S
C1986 C1985 1.415 . S
C1987 H1963 0.951 . S
C1987 C1988 1.366 . S
C1987 C1989 1.388 . S
C1988 C1987 1.366 . S
C1988 C1992 1.385 . S
C1989 H1964 0.951 . S
C1989 C1987 1.388 . S
C1989 C1990 1.366 . S
C1990 C1989 1.366 . S
C1990 C1991 1.414 . S
C1990 C1993 1.499 . S
C1991 H1965 0.950 . S
C1991 C1990 1.414 . S
C1991 C1992 1.374 . S
C1992 H1966 0.950 1_556 S
C1992 C1988 1.385 . S
C1992 C1991 1.374 . S
C1993 C1990 1.499 . S
C1993 C1994 1.373 . S
C1993 C1995 1.389 . S
C1994 H1967 0.950 . S
C1994 C1980 1.377 . S
C1994 C1993 1.373 . S
C1995 C1979 1.377 . S
C1995 C1993 1.389 . S
C1995 C1996 1.524 . S
C1996 C1995 1.524 . S
C1996 C1997 1.397 . S
C1996 C2001 1.363 . S
C1997 H1968 0.950 . S
C1997 C1996 1.397 . S
C1997 C1998 1.334 . S
C1998 H1969 0.950 1_556 S
C1998 C1997 1.334 . S
C1998 C1999 1.287 . S
C1999 C1998 1.287 . S
C1999 C2000 1.524 . S
C1999 H2002 1.045 . S
C2000 H1970 0.950 . S
C2000 C1999 1.524 . S
C2000 C2001 1.415 . S
C2001 H1971 0.950 . S
C2001 C1996 1.363 . S
C2001 C2000 1.415 . S
H2002 C1999 1.045 . S
H2003 C1984 0.913 . S
H2004 C2022 0.951 . S
H2005 C2024 0.951 . S
H2006 C2026 0.950 . S
H2007 C2027 0.950 . S
H2008 C2029 0.950 . S
H2009 C2032 0.950 . S
H2010 C2033 0.950 . S
H2011 C2035 0.950 . S
H2012 C2036 0.950 . S
H2013 C2037 0.951 . S
H2014 C2039 0.951 . S
H2015 C2041 0.950 . S
H2016 C2042 0.950 . S
H2017 C2044 0.950 . S
H2018 C2047 0.950 . S
H2019 C2048 0.950 . S
H2020 C2050 0.950 . S
H2021 C2051 0.950 . S
C2022 H2004 0.951 . S
C2022 C2023 1.366 . S
C2022 C2024 1.388 . S
C2023 C2022 1.366 . S
C2023 C2027 1.385 . S
C2024 H2005 0.951 . S
C2024 C2022 1.388 . S
C2024 C2025 1.366 . S
C2025 C2024 1.366 . S
C2025 C2026 1.414 . S
C2025 C2028 1.499 . S
C2026 H2006 0.950 . S
C2026 C2025 1.414 . S
C2026 C2027 1.374 . S
C2027 H2007 0.950 . S
C2027 C2023 1.385 . S
C2027 C2026 1.374 . S
C2028 C2025 1.499 . S
C2028 C2029 1.373 . S
C2028 C2030 1.389 . S
C2029 H2008 0.950 . S
C2029 C2028 1.373 . S
C2029 C2045 1.377 . S
C2030 C2028 1.389 . S
C2030 C2031 1.524 . S
C2030 C2044 1.377 . S
C2031 C2030 1.524 . S
C2031 C2032 1.397 . S
C2031 C2036 1.363 . S
C2032 H2009 0.950 . S
C2032 C2031 1.397 . S
C2032 C2033 1.334 . S
C2033 H2010 0.950 . S
C2033 C2032 1.334 . S
C2033 C2034 1.287 . S
C2034 C2033 1.287 . S
C2034 C2035 1.524 . S
C2034 H2053 0.913 . S
C2035 H2011 0.950 . S
C2035 C2034 1.524 . S
C2035 C2036 1.415 . S
C2036 H2012 0.950 . S
C2036 C2031 1.363 . S
C2036 C2035 1.415 . S
C2037 H2013 0.951 . S
C2037 C2038 1.366 . S
C2037 C2039 1.388 . S
C2038 C2037 1.366 . S
C2038 C2042 1.385 . S
C2039 H2014 0.951 . S
C2039 C2037 1.388 . S
C2039 C2040 1.366 . S
C2040 C2039 1.366 . S
C2040 C2041 1.414 . S
C2040 C2043 1.499 . S
C2041 H2015 0.950 . S
C2041 C2040 1.414 . S
C2041 C2042 1.374 . S
C2042 H2016 0.950 . S
C2042 C2038 1.385 . S
C2042 C2041 1.374 . S
C2043 C2040 1.499 . S
C2043 C2044 1.373 . S
C2043 C2045 1.389 . S
C2044 H2017 0.950 . S
C2044 C2030 1.377 . S
C2044 C2043 1.373 . S
C2045 C2029 1.377 . S
C2045 C2043 1.389 . S
C2045 C2046 1.524 . S
C2046 C2045 1.524 . S
C2046 C2047 1.397 . S
C2046 C2051 1.363 . S
C2047 H2018 0.950 . S
C2047 C2046 1.397 . S
C2047 C2048 1.334 . S
C2048 H2019 0.950 . S
C2048 C2047 1.334 . S
C2048 C2049 1.287 . S
C2049 C2048 1.287 . S
C2049 C2050 1.524 . S
C2049 H2052 0.999 . S
C2050 H2020 0.950 . S
C2050 C2049 1.524 . S
C2050 C2051 1.415 . S
C2051 H2021 0.950 . S
C2051 C2046 1.363 . S
C2051 C2050 1.415 . S
H2052 C2049 0.999 . S
H2053 C2034 0.913 . S
H2054 C2072 0.951 . S
H2055 C2074 0.951 . S
H2056 C2076 0.950 . S
H2057 C2077 0.950 . S
H2058 C2079 0.950 . S
H2059 C2082 0.950 . S
H2060 C2083 0.950 . S
H2061 C2085 0.950 . S
H2062 C2086 0.950 . S
H2063 C2087 0.951 . S
H2064 C2089 0.951 . S
H2065 C2091 0.950 . S
H2066 C2092 0.950 . S
H2067 C2094 0.950 . S
H2068 C2097 0.950 . S
H2069 C2098 0.950 . S
H2070 C2100 0.950 . S
H2071 C2101 0.950 . S
C2072 H2054 0.951 . S
C2072 C2073 1.366 . S
C2072 C2074 1.388 . S
C2073 C2072 1.366 . S
C2073 C2077 1.385 . S
C2074 H2055 0.951 . S
C2074 C2072 1.388 . S
C2074 C2075 1.366 . S
C2075 C2074 1.366 . S
C2075 C2076 1.414 . S
C2075 C2078 1.499 . S
C2076 H2056 0.950 . S
C2076 C2075 1.414 . S
C2076 C2077 1.374 . S
C2077 H2057 0.950 . S
C2077 C2073 1.385 . S
C2077 C2076 1.374 . S
C2078 C2075 1.499 . S
C2078 C2079 1.373 . S
C2078 C2080 1.389 . S
C2079 H2058 0.950 . S
C2079 C2078 1.373 . S
C2079 C2095 1.377 . S
C2080 C2078 1.389 . S
C2080 C2081 1.524 . S
C2080 C2094 1.377 . S
C2081 C2080 1.524 . S
C2081 C2082 1.397 . S
C2081 C2086 1.363 . S
C2082 H2059 0.950 . S
C2082 C2081 1.397 . S
C2082 C2083 1.334 . S
C2083 H2060 0.950 . S
C2083 C2082 1.334 . S
C2083 C2084 1.287 . S
C2084 C2083 1.287 . S
C2084 C2085 1.524 . S
C2084 H2103 0.913 . S
C2085 H2061 0.950 . S
C2085 C2084 1.524 . S
C2085 C2086 1.415 . S
C2086 H2062 0.950 . S
C2086 C2081 1.363 . S
C2086 C2085 1.415 . S
C2087 H2063 0.951 . S
C2087 C2088 1.366 . S
C2087 C2089 1.388 . S
C2088 C2087 1.366 . S
C2088 C2092 1.385 . S
C2089 H2064 0.951 . S
C2089 C2087 1.388 . S
C2089 C2090 1.366 . S
C2090 C2089 1.366 . S
C2090 C2091 1.414 . S
C2090 C2093 1.499 . S
C2091 H2065 0.950 . S
C2091 C2090 1.414 . S
C2091 C2092 1.374 . S
C2092 H2066 0.950 . S
C2092 C2088 1.385 . S
C2092 C2091 1.374 . S
C2093 C2090 1.499 . S
C2093 C2094 1.373 . S
C2093 C2095 1.389 . S
C2094 H2067 0.950 . S
C2094 C2080 1.377 . S
C2094 C2093 1.373 . S
C2095 C2079 1.377 . S
C2095 C2093 1.389 . S
C2095 C2096 1.524 . S
C2096 C2095 1.524 . S
C2096 C2097 1.397 . S
C2096 C2101 1.363 . S
C2097 H2068 0.950 . S
C2097 C2096 1.397 . S
C2097 C2098 1.334 . S
C2098 H2069 0.950 . S
C2098 C2097 1.334 . S
C2098 C2099 1.287 . S
C2099 C2098 1.287 . S
C2099 C2100 1.524 . S
C2099 H2102 0.999 . S
C2100 H2070 0.950 . S
C2100 C2099 1.524 . S
C2100 C2101 1.415 . S
C2101 H2071 0.950 . S
C2101 C2096 1.363 . S
C2101 C2100 1.415 . S
H2102 C2099 0.999 . S
H2103 C2084 0.913 . S
H2104 C2122 0.951 . S
H2105 C2124 0.951 . S
H2106 C2126 0.950 . S
H2107 C2127 0.950 . S
H2108 C2129 0.950 . S
H2109 C2132 0.950 . S
H2110 C2133 0.950 . S
H2111 C2135 0.950 . S
H2112 C2136 0.950 . S
H2113 C2137 0.951 . S
H2114 C2139 0.951 . S
H2115 C2141 0.950 . S
H2116 C2142 0.950 . S
H2117 C2144 0.950 . S
H2118 C2147 0.950 . S
H2119 C2148 0.950 . S
H2120 C2150 0.950 . S
H2121 C2151 0.950 . S
C2122 H2104 0.951 . S
C2122 C2123 1.366 . S
C2122 C2124 1.388 . S
C2123 C2122 1.366 . S
C2123 C2127 1.385 . S
C2124 H2105 0.951 . S
C2124 C2122 1.388 . S
C2124 C2125 1.366 . S
C2125 C2124 1.366 . S
C2125 C2126 1.414 . S
C2125 C2128 1.499 . S
C2126 H2106 0.950 . S
C2126 C2125 1.414 . S
C2126 C2127 1.374 . S
C2127 H2107 0.950 . S
C2127 C2123 1.385 . S
C2127 C2126 1.374 . S
C2128 C2125 1.499 . S
C2128 C2129 1.373 . S
C2128 C2130 1.389 . S
C2129 H2108 0.950 . S
C2129 C2128 1.373 . S
C2129 C2145 1.377 . S
C2130 C2128 1.389 . S
C2130 C2131 1.524 . S
C2130 C2144 1.377 . S
C2131 C2130 1.524 . S
C2131 C2132 1.397 . S
C2131 C2136 1.363 . S
C2132 H2109 0.950 . S
C2132 C2131 1.397 . S
C2132 C2133 1.334 . S
C2133 H2110 0.950 . S
C2133 C2132 1.334 . S
C2133 C2134 1.287 . S
C2134 C2133 1.287 . S
C2134 C2135 1.524 . S
C2134 H2153 0.913 . S
C2135 H2111 0.950 . S
C2135 C2134 1.524 . S
C2135 C2136 1.415 . S
C2136 H2112 0.950 . S
C2136 C2131 1.363 . S
C2136 C2135 1.415 . S
C2137 H2113 0.951 . S
C2137 C2138 1.366 . S
C2137 C2139 1.388 . S
C2138 C2137 1.366 . S
C2138 C2142 1.385 . S
C2139 H2114 0.951 . S
C2139 C2137 1.388 . S
C2139 C2140 1.366 . S
C2140 C2139 1.366 . S
C2140 C2141 1.414 . S
C2140 C2143 1.499 . S
C2141 H2115 0.950 . S
C2141 C2140 1.414 . S
C2141 C2142 1.374 . S
C2142 H2116 0.950 . S
C2142 C2138 1.385 . S
C2142 C2141 1.374 . S
C2143 C2140 1.499 . S
C2143 C2144 1.373 . S
C2143 C2145 1.389 . S
C2144 H2117 0.950 . S
C2144 C2130 1.377 . S
C2144 C2143 1.373 . S
C2145 C2129 1.377 . S
C2145 C2143 1.389 . S
C2145 C2146 1.524 . S
C2146 C2145 1.524 . S
C2146 C2147 1.397 . S
C2146 C2151 1.363 . S
C2147 H2118 0.950 . S
C2147 C2146 1.397 . S
C2147 C2148 1.334 . S
C2148 H2119 0.950 . S
C2148 C2147 1.334 . S
C2148 C2149 1.287 . S
C2149 C2148 1.287 . S
C2149 C2150 1.524 . S
C2149 H2152 0.999 . S
C2150 H2120 0.950 . S
C2150 C2149 1.524 . S
C2150 C2151 1.415 . S
C2151 H2121 0.950 . S
C2151 C2146 1.363 . S
C2151 C2150 1.415 . S
H2152 C2149 0.999 . S
H2153 C2134 0.913 . S
H2154 C2172 0.951 . S
H2155 C2174 0.951 . S
H2156 C2176 0.950 . S
H2157 C2177 0.950 . S
H2158 C2179 0.950 . S
H2159 C2182 0.950 . S
H2160 C2183 0.950 . S
H2161 C2185 0.950 . S
H2162 C2186 0.950 . S
H2163 C2187 0.951 . S
H2164 C2189 0.951 . S
H2165 C2191 0.950 . S
H2166 C2192 0.950 . S
H2167 C2194 0.950 . S
H2168 C2197 0.950 . S
H2169 C2198 0.950 . S
H2170 C2200 0.950 . S
H2171 C2201 0.950 . S
C2172 H2154 0.951 . S
C2172 C2173 1.366 . S
C2172 C2174 1.388 . S
C2173 C2172 1.366 . S
C2173 C2177 1.385 . S
C2174 H2155 0.951 . S
C2174 C2172 1.388 . S
C2174 C2175 1.366 . S
C2175 C2174 1.366 . S
C2175 C2176 1.414 . S
C2175 C2178 1.499 . S
C2176 H2156 0.950 . S
C2176 C2175 1.414 . S
C2176 C2177 1.374 . S
C2177 H2157 0.950 . S
C2177 C2173 1.385 . S
C2177 C2176 1.374 . S
C2178 C2175 1.499 . S
C2178 C2179 1.373 . S
C2178 C2180 1.389 . S
C2179 H2158 0.950 . S
C2179 C2178 1.373 . S
C2179 C2195 1.377 . S
C2180 C2178 1.389 . S
C2180 C2181 1.524 . S
C2180 C2194 1.377 . S
C2181 C2180 1.524 . S
C2181 C2182 1.397 . S
C2181 C2186 1.363 . S
C2182 H2159 0.950 . S
C2182 C2181 1.397 . S
C2182 C2183 1.334 . S
C2183 H2160 0.950 . S
C2183 C2182 1.334 . S
C2183 C2184 1.287 . S
C2184 C2183 1.287 . S
C2184 C2185 1.524 . S
C2184 H2203 0.913 . S
C2185 H2161 0.950 . S
C2185 C2184 1.524 . S
C2185 C2186 1.415 . S
C2186 H2162 0.950 . S
C2186 C2181 1.363 . S
C2186 C2185 1.415 . S
C2187 H2163 0.951 . S
C2187 C2188 1.366 . S
C2187 C2189 1.388 . S
C2188 C2187 1.366 . S
C2188 C2192 1.385 . S
C2189 H2164 0.951 . S
C2189 C2187 1.388 . S
C2189 C2190 1.366 . S
C2190 C2189 1.366 . S
C2190 C2191 1.414 . S
C2190 C2193 1.499 . S
C2191 H2165 0.950 . S
C2191 C2190 1.414 . S
C2191 C2192 1.374 . S
C2192 H2166 0.950 . S
C2192 C2188 1.385 . S
C2192 C2191 1.374 . S
C2193 C2190 1.499 . S
C2193 C2194 1.373 . S
C2193 C2195 1.389 . S
C2194 H2167 0.950 . S
C2194 C2180 1.377 . S
C2194 C2193 1.373 . S
C2195 C2179 1.377 . S
C2195 C2193 1.389 . S
C2195 C2196 1.524 . S
C2196 C2195 1.524 . S
C2196 C2197 1.397 . S
C2196 C2201 1.363 . S
C2197 H2168 0.950 . S
C2197 C2196 1.397 . S
C2197 C2198 1.334 . S
C2198 H2169 0.950 . S
C2198 C2197 1.334 . S
C2198 C2199 1.287 . S
C2199 C2198 1.287 . S
C2199 C2200 1.524 . S
C2199 H2202 0.999 . S
C2200 H2170 0.950 . S
C2200 C2199 1.524 . S
C2200 C2201 1.415 . S
C2201 H2171 0.950 . S
C2201 C2196 1.363 . S
C2201 C2200 1.415 . S
H2202 C2199 0.999 . S
H2203 C2184 0.913 . S
H2204 C2222 0.951 . S
H2205 C2224 0.951 . S
H2206 C2226 0.950 . S
H2207 C2227 0.950 . S
H2208 C2229 0.950 . S
H2209 C2232 0.950 . S
H2210 C2233 0.950 . S
H2211 C2235 0.950 . S
H2212 C2236 0.950 . S
H2213 C2237 0.951 . S
H2214 C2239 0.951 . S
H2215 C2241 0.950 . S
H2216 C2242 0.950 . S
H2217 C2244 0.950 . S
H2218 C2247 0.950 . S
H2219 C2248 0.950 . S
H2220 C2250 0.950 . S
H2221 C2251 0.950 . S
C2222 H2204 0.951 . S
C2222 C2223 1.366 . S
C2222 C2224 1.388 . S
C2223 C2222 1.366 . S
C2223 C2227 1.385 . S
C2224 H2205 0.951 . S
C2224 C2222 1.388 . S
C2224 C2225 1.366 . S
C2225 C2224 1.366 . S
C2225 C2226 1.414 . S
C2225 C2228 1.499 . S
C2226 H2206 0.950 . S
C2226 C2225 1.414 . S
C2226 C2227 1.374 . S
C2227 H2207 0.950 . S
C2227 C2223 1.385 . S
C2227 C2226 1.374 . S
C2228 C2225 1.499 . S
C2228 C2229 1.373 . S
C2228 C2230 1.389 . S
C2229 H2208 0.950 . S
C2229 C2228 1.373 . S
C2229 C2245 1.377 . S
C2230 C2228 1.389 . S
C2230 C2231 1.524 . S
C2230 C2244 1.377 . S
C2231 C2230 1.524 . S
C2231 C2232 1.397 . S
C2231 C2236 1.363 . S
C2232 H2209 0.950 . S
C2232 C2231 1.397 . S
C2232 C2233 1.334 . S
C2233 H2210 0.950 . S
C2233 C2232 1.334 . S
C2233 C2234 1.287 . S
C2234 C2233 1.287 . S
C2234 C2235 1.524 . S
C2234 H2253 0.913 . S
C2235 H2211 0.950 . S
C2235 C2234 1.524 . S
C2235 C2236 1.415 . S
C2236 H2212 0.950 . S
C2236 C2231 1.363 . S
C2236 C2235 1.415 . S
C2237 H2213 0.951 . S
C2237 C2238 1.366 . S
C2237 C2239 1.388 . S
C2238 C2237 1.366 . S
C2238 C2242 1.385 . S
C2239 H2214 0.951 . S
C2239 C2237 1.388 . S
C2239 C2240 1.366 . S
C2240 C2239 1.366 . S
C2240 C2241 1.414 . S
C2240 C2243 1.499 . S
C2241 H2215 0.950 . S
C2241 C2240 1.414 . S
C2241 C2242 1.374 . S
C2242 H2216 0.950 . S
C2242 C2238 1.385 . S
C2242 C2241 1.374 . S
C2243 C2240 1.499 . S
C2243 C2244 1.373 . S
C2243 C2245 1.389 . S
C2244 H2217 0.950 . S
C2244 C2230 1.377 . S
C2244 C2243 1.373 . S
C2245 C2229 1.377 . S
C2245 C2243 1.389 . S
C2245 C2246 1.524 . S
C2246 C2245 1.524 . S
C2246 C2247 1.397 . S
C2246 C2251 1.363 . S
C2247 H2218 0.950 . S
C2247 C2246 1.397 . S
C2247 C2248 1.334 . S
C2248 H2219 0.950 . S
C2248 C2247 1.334 . S
C2248 C2249 1.287 . S
C2249 C2248 1.287 . S
C2249 C2250 1.524 . S
C2249 H2252 0.999 . S
C2250 H2220 0.950 . S
C2250 C2249 1.524 . S
C2250 C2251 1.415 . S
C2251 H2221 0.950 . S
C2251 C2246 1.363 . S
C2251 C2250 1.415 . S
H2252 C2249 0.999 . S
H2253 C2234 0.913 . S
H2254 C2272 0.951 . S
H2255 C2274 0.951 . S
H2256 C2276 0.950 . S
H2257 C2277 0.950 . S
H2258 C2279 0.950 . S
H2259 C2282 0.950 . S
H2260 C2283 0.950 . S
H2261 C2285 0.950 . S
H2262 C2286 0.950 . S
H2263 C2287 0.951 . S
H2264 C2289 0.951 . S
H2265 C2291 0.950 . S
H2266 C2292 0.950 . S
H2267 C2294 0.950 . S
H2268 C2297 0.950 . S
H2269 C2298 0.950 . S
H2270 C2300 0.950 . S
H2271 C2301 0.950 . S
C2272 H2254 0.951 . S
C2272 C2273 1.366 . S
C2272 C2274 1.388 . S
C2273 C2272 1.366 . S
C2273 C2277 1.385 . S
C2274 H2255 0.951 . S
C2274 C2272 1.388 . S
C2274 C2275 1.366 . S
C2275 C2274 1.366 . S
C2275 C2276 1.414 . S
C2275 C2278 1.499 . S
C2276 H2256 0.950 . S
C2276 C2275 1.414 . S
C2276 C2277 1.374 . S
C2277 H2257 0.950 . S
C2277 C2273 1.385 . S
C2277 C2276 1.374 . S
C2278 C2275 1.499 . S
C2278 C2279 1.373 . S
C2278 C2280 1.389 . S
C2279 H2258 0.950 . S
C2279 C2278 1.373 . S
C2279 C2295 1.377 . S
C2280 C2278 1.389 . S
C2280 C2281 1.524 . S
C2280 C2294 1.377 . S
C2281 C2280 1.524 . S
C2281 C2282 1.397 . S
C2281 C2286 1.363 . S
C2282 H2259 0.950 . S
C2282 C2281 1.397 . S
C2282 C2283 1.334 . S
C2283 H2260 0.950 . S
C2283 C2282 1.334 . S
C2283 C2284 1.287 . S
C2284 C2283 1.287 . S
C2284 C2285 1.524 . S
C2284 H2303 0.913 . S
C2285 H2261 0.950 . S
C2285 C2284 1.524 . S
C2285 C2286 1.415 . S
C2286 H2262 0.950 . S
C2286 C2281 1.363 . S
C2286 C2285 1.415 . S
C2287 H2263 0.951 . S
C2287 C2288 1.366 . S
C2287 C2289 1.388 . S
C2288 C2287 1.366 . S
C2288 C2292 1.385 . S
C2289 H2264 0.951 . S
C2289 C2287 1.388 . S
C2289 C2290 1.366 . S
C2290 C2289 1.366 . S
C2290 C2291 1.414 . S
C2290 C2293 1.499 . S
C2291 H2265 0.950 . S
C2291 C2290 1.414 . S
C2291 C2292 1.374 . S
C2292 H2266 0.950 . S
C2292 C2288 1.385 . S
C2292 C2291 1.374 . S
C2293 C2290 1.499 . S
C2293 C2294 1.373 . S
C2293 C2295 1.389 . S
C2294 H2267 0.950 . S
C2294 C2280 1.377 . S
C2294 C2293 1.373 . S
C2295 C2279 1.377 . S
C2295 C2293 1.389 . S
C2295 C2296 1.524 . S
C2296 C2295 1.524 . S
C2296 C2297 1.397 . S
C2296 C2301 1.363 . S
C2297 H2268 0.950 . S
C2297 C2296 1.397 . S
C2297 C2298 1.334 . S
C2298 H2269 0.950 . S
C2298 C2297 1.334 . S
C2298 C2299 1.287 . S
C2299 C2298 1.287 . S
C2299 C2300 1.524 . S
C2299 H2302 0.999 . S
C2300 H2270 0.950 . S
C2300 C2299 1.524 . S
C2300 C2301 1.415 . S
C2301 H2271 0.950 . S
C2301 C2296 1.363 . S
C2301 C2300 1.415 . S
H2302 C2299 0.999 . S
H2303 C2284 0.913 . S
H2304 C2322 0.951 . S
H2305 C2324 0.951 . S
H2306 C2326 0.950 . S
H2307 C2327 0.950 . S
H2308 C2329 0.950 . S
H2309 C2332 0.950 . S
H2310 C2333 0.950 . S
H2311 C2335 0.950 . S
H2312 C2336 0.934 1_565 S
H2313 C2337 0.951 . S
H2314 C2339 0.951 . S
H2315 C2341 0.955 . S
H2316 C2342 0.950 1_565 S
H2317 C2344 0.950 . S
H2318 C2347 0.950 . S
H2319 C2348 0.950 . S
H2320 C2350 0.950 . S
H2321 C2351 0.950 . S
C2322 H2304 0.951 . S
C2322 C2323 1.366 . S
C2322 C2324 1.388 . S
C2323 C2322 1.366 . S
C2323 C2327 1.385 . S
C2324 H2305 0.951 . S
C2324 C2322 1.388 . S
C2324 C2325 1.366 . S
C2325 C2324 1.366 . S
C2325 C2326 1.414 . S
C2325 C2328 1.499 . S
C2326 H2306 0.950 . S
C2326 C2325 1.414 . S
C2326 C2327 1.374 . S
C2327 H2307 0.950 . S
C2327 C2323 1.385 . S
C2327 C2326 1.374 . S
C2328 C2325 1.499 . S
C2328 C2329 1.373 . S
C2328 C2330 1.389 . S
C2329 H2308 0.950 . S
C2329 C2328 1.373 . S
C2329 C2345 1.377 . S
C2330 C2328 1.389 . S
C2330 C2331 1.524 . S
C2330 C2344 1.377 . S
C2331 C2330 1.524 . S
C2331 C2332 1.397 . S
C2331 C2336 1.389 . S
C2332 H2309 0.950 . S
C2332 C2331 1.397 . S
C2332 C2333 1.334 . S
C2333 H2310 0.950 . S
C2333 C2332 1.334 . S
C2333 C2334 1.287 . S
C2334 C2333 1.287 . S
C2334 C2335 1.524 1_545 S
C2334 H2353 0.913 . S
C2335 H2311 0.950 . S
C2335 C2334 1.524 1_565 S
C2335 C2336 1.406 1_565 S
C2336 H2312 0.934 1_545 S
C2336 C2331 1.389 . S
C2336 C2335 1.406 1_545 S
C2337 H2313 0.951 . S
C2337 C2338 1.366 . S
C2337 C2339 1.388 . S
C2338 C2337 1.366 . S
C2338 C2342 1.385 . S
C2339 H2314 0.951 . S
C2339 C2337 1.388 . S
C2339 C2340 1.366 . S
C2340 C2339 1.366 . S
C2340 C2341 1.414 . S
C2340 C2343 1.499 . S
C2341 H2315 0.955 . S
C2341 C2340 1.414 . S
C2341 C2342 1.374 . S
C2342 H2316 0.950 1_545 S
C2342 C2338 1.385 . S
C2342 C2341 1.374 . S
C2343 C2340 1.499 . S
C2343 C2344 1.373 . S
C2343 C2345 1.389 . S
C2344 H2317 0.950 . S
C2344 C2330 1.377 . S
C2344 C2343 1.373 . S
C2345 C2329 1.377 . S
C2345 C2343 1.389 . S
C2345 C2346 1.524 . S
C2346 C2345 1.524 . S
C2346 C2347 1.397 . S
C2346 C2351 1.363 . S
C2347 H2318 0.950 . S
C2347 C2346 1.397 . S
C2347 C2348 1.334 . S
C2348 H2319 0.950 . S
C2348 C2347 1.334 . S
C2348 C2349 1.287 . S
C2349 C2348 1.287 . S
C2349 C2350 1.524 . S
C2349 H2352 0.999 . S
C2350 H2320 0.950 . S
C2350 C2349 1.524 . S
C2350 C2351 1.415 . S
C2351 H2321 0.950 . S
C2351 C2346 1.363 . S
C2351 C2350 1.415 . S
H2352 C2349 0.999 . S
H2353 C2334 0.913 . S
H2354 C2372 0.951 . S
H2355 C2374 0.951 . S
H2356 C2376 0.950 . S
H2357 C2377 0.950 . S
H2358 C2379 0.950 . S
H2359 C2382 0.950 . S
H2360 C2383 0.950 . S
H2361 C2385 0.950 . S
H2362 C2386 0.950 . S
H2363 C2387 0.951 . S
H2364 C2389 0.951 . S
H2365 C2391 0.950 . S
H2366 C2392 0.950 . S
H2367 C2394 0.950 . S
H2368 C2397 0.950 . S
H2369 C2398 0.950 . S
H2370 C2400 0.950 . S
H2371 C2401 0.950 . S
C2372 H2354 0.951 . S
C2372 C2373 1.366 . S
C2372 C2374 1.388 . S
C2373 C2372 1.366 . S
C2373 C2377 1.385 . S
C2374 H2355 0.951 . S
C2374 C2372 1.388 . S
C2374 C2375 1.366 . S
C2375 C2374 1.366 . S
C2375 C2376 1.414 . S
C2375 C2378 1.499 . S
C2376 H2356 0.950 . S
C2376 C2375 1.414 . S
C2376 C2377 1.374 . S
C2377 H2357 0.950 . S
C2377 C2373 1.385 . S
C2377 C2376 1.374 . S
C2378 C2375 1.499 . S
C2378 C2379 1.373 1_655 S
C2378 C2380 1.389 . S
C2379 H2358 0.950 . S
C2379 C2378 1.373 1_455 S
C2379 C2395 1.377 . S
C2380 C2378 1.389 . S
C2380 C2381 1.524 . S
C2380 C2394 1.377 . S
C2381 C2380 1.524 . S
C2381 C2382 1.397 . S
C2381 C2386 1.363 . S
C2382 H2359 0.950 . S
C2382 C2381 1.397 . S
C2382 C2383 1.334 . S
C2383 H2360 0.950 . S
C2383 C2382 1.334 . S
C2383 C2384 1.287 . S
C2384 C2383 1.287 . S
C2384 C2385 1.524 . S
C2384 H2403 0.913 . S
C2385 H2361 0.950 . S
C2385 C2384 1.524 . S
C2385 C2386 1.415 . S
C2386 H2362 0.950 . S
C2386 C2381 1.363 . S
C2386 C2385 1.415 . S
C2387 H2363 0.951 . S
C2387 C2388 1.360 . S
C2387 C2389 1.388 . S
C2388 C2387 1.360 . S
C2388 C2392 1.381 1_455 S
C2389 H2364 0.951 . S
C2389 C2387 1.388 . S
C2389 C2390 1.366 1_455 S
C2390 C2389 1.366 1_655 S
C2390 C2391 1.414 . S
C2390 C2393 1.499 . S
C2391 H2365 0.950 . S
C2391 C2390 1.414 . S
C2391 C2392 1.374 . S
C2392 H2366 0.950 . S
C2392 C2388 1.381 1_655 S
C2392 C2391 1.374 . S
C2393 C2390 1.499 . S
C2393 C2394 1.373 . S
C2393 C2395 1.389 1_655 S
C2394 H2367 0.950 . S
C2394 C2380 1.377 . S
C2394 C2393 1.373 . S
C2395 C2379 1.377 . S
C2395 C2393 1.389 1_455 S
C2395 C2396 1.524 . S
C2396 C2395 1.524 . S
C2396 C2397 1.397 . S
C2396 C2401 1.363 . S
C2397 H2368 0.950 . S
C2397 C2396 1.397 . S
C2397 C2398 1.334 . S
C2398 H2369 0.950 . S
C2398 C2397 1.334 . S
C2398 C2399 1.287 . S
C2399 C2398 1.287 . S
C2399 C2400 1.524 . S
C2399 H2402 0.999 . S
C2400 H2370 0.950 . S
C2400 C2399 1.524 . S
C2400 C2401 1.415 . S
C2401 H2371 0.950 . S
C2401 C2396 1.363 . S
C2401 C2400 1.415 . S
H2402 C2399 0.999 . S
H2403 C2384 0.913 . S
H2404 C2422 0.951 . S
H2405 C2424 0.951 . S
H2406 C2426 0.950 . S
H2407 C2427 0.950 . S
H2408 C2429 0.950 . S
H2409 C2432 0.950 . S
H2410 C2433 0.950 . S
H2411 C2435 0.950 . S
H2412 C2436 0.950 . S
H2413 C2437 0.951 . S
H2414 C2439 0.951 . S
H2415 C2441 0.950 . S
H2416 C2442 0.950 . S
H2417 C2444 0.950 . S
H2418 C2447 0.950 . S
H2419 C2448 0.950 . S
H2420 C2450 0.950 . S
H2421 C2451 0.950 . S
C2422 H2404 0.951 . S
C2422 C2423 1.366 . S
C2422 C2424 1.388 . S
C2423 C2422 1.366 . S
C2423 C2427 1.385 . S
C2424 H2405 0.951 . S
C2424 C2422 1.388 . S
C2424 C2425 1.366 . S
C2425 C2424 1.366 . S
C2425 C2426 1.414 . S
C2425 C2428 1.499 . S
C2426 H2406 0.950 . S
C2426 C2425 1.414 . S
C2426 C2427 1.374 . S
C2427 H2407 0.950 . S
C2427 C2423 1.385 . S
C2427 C2426 1.374 . S
C2428 C2425 1.499 . S
C2428 C2429 1.373 . S
C2428 C2430 1.389 . S
C2429 H2408 0.950 . S
C2429 C2428 1.373 . S
C2429 C2445 1.377 . S
C2430 C2428 1.389 . S
C2430 C2431 1.524 . S
C2430 C2444 1.377 . S
C2431 C2430 1.524 . S
C2431 C2432 1.397 . S
C2431 C2436 1.363 . S
C2432 H2409 0.950 . S
C2432 C2431 1.397 . S
C2432 C2433 1.334 . S
C2433 H2410 0.950 . S
C2433 C2432 1.334 . S
C2433 C2434 1.287 . S
C2434 C2433 1.287 . S
C2434 C2435 1.524 . S
C2434 H2453 0.913 . S
C2435 H2411 0.950 . S
C2435 C2434 1.524 . S
C2435 C2436 1.415 . S
C2436 H2412 0.950 . S
C2436 C2431 1.363 . S
C2436 C2435 1.415 . S
C2437 H2413 0.951 . S
C2437 C2438 1.366 . S
C2437 C2439 1.388 . S
C2438 C2437 1.366 . S
C2438 C2442 1.385 . S
C2439 H2414 0.951 . S
C2439 C2437 1.388 . S
C2439 C2440 1.366 . S
C2440 C2439 1.366 . S
C2440 C2441 1.414 . S
C2440 C2443 1.499 . S
C2441 H2415 0.950 . S
C2441 C2440 1.414 . S
C2441 C2442 1.374 . S
C2442 H2416 0.950 . S
C2442 C2438 1.385 . S
C2442 C2441 1.374 . S
C2443 C2440 1.499 . S
C2443 C2444 1.373 . S
C2443 C2445 1.389 . S
C2444 H2417 0.950 . S
C2444 C2430 1.377 . S
C2444 C2443 1.373 . S
C2445 C2429 1.377 . S
C2445 C2443 1.389 . S
C2445 C2446 1.524 . S
C2446 C2445 1.524 . S
C2446 C2447 1.397 . S
C2446 C2451 1.363 . S
C2447 H2418 0.950 . S
C2447 C2446 1.397 . S
C2447 C2448 1.334 . S
C2448 H2419 0.950 . S
C2448 C2447 1.334 . S
C2448 C2449 1.287 . S
C2449 C2448 1.287 . S
C2449 C2450 1.524 . S
C2449 H2452 0.999 . S
C2450 H2420 0.950 . S
C2450 C2449 1.524 . S
C2450 C2451 1.415 . S
C2451 H2421 0.950 . S
C2451 C2446 1.363 . S
C2451 C2450 1.415 . S
H2452 C2449 0.999 . S
H2453 C2434 0.913 . S
H2454 C2472 0.951 . S
H2455 C2474 0.951 . S
H2456 C2476 0.950 . S
H2457 C2477 0.950 . S
H2458 C2479 0.950 . S
H2459 C2482 0.950 . S
H2460 C2483 0.950 . S
H2461 C2485 0.950 . S
H2462 C2486 0.950 . S
H2463 C2487 0.951 . S
H2464 C2489 0.951 . S
H2465 C2491 0.950 1_655 S
H2466 C2492 0.950 1_655 S
H2467 C2494 0.950 . S
H2468 C2497 0.950 . S
H2469 C2498 0.950 . S
H2470 C2500 0.950 . S
H2471 C2501 0.950 . S
C2472 H2454 0.951 . S
C2472 C2473 1.366 . S
C2472 C2474 1.388 . S
C2473 C2472 1.366 . S
C2473 C2477 1.385 . S
C2474 H2455 0.951 . S
C2474 C2472 1.388 . S
C2474 C2475 1.366 . S
C2475 C2474 1.366 . S
C2475 C2476 1.414 . S
C2475 C2478 1.499 . S
C2476 H2456 0.950 . S
C2476 C2475 1.414 . S
C2476 C2477 1.374 . S
C2477 H2457 0.950 . S
C2477 C2473 1.385 . S
C2477 C2476 1.374 . S
C2478 C2475 1.499 . S
C2478 C2479 1.373 . S
C2478 C2480 1.389 . S
C2479 H2458 0.950 . S
C2479 C2478 1.373 . S
C2479 C2495 1.377 . S
C2480 C2478 1.389 . S
C2480 C2481 1.524 1_455 S
C2480 C2494 1.377 . S
C2481 C2480 1.524 1_655 S
C2481 C2482 1.397 1_655 S
C2481 C2486 1.363 . S
C2482 H2459 0.950 . S
C2482 C2481 1.397 1_455 S
C2482 C2483 1.334 1_455 S
C2483 H2460 0.950 . S
C2483 C2482 1.334 1_655 S
C2483 C2484 1.287 . S
C2484 C2483 1.287 . S
C2484 C2485 1.524 . S
C2484 H2503 0.913 . S
C2485 H2461 0.950 . S
C2485 C2484 1.524 . S
C2485 C2486 1.415 . S
C2486 H2462 0.950 . S
C2486 C2481 1.363 . S
C2486 C2485 1.415 . S
C2487 H2463 0.951 . S
C2487 C2488 1.366 . S
C2487 C2489 1.388 . S
C2488 C2487 1.366 . S
C2488 C2492 1.385 . S
C2489 H2464 0.951 . S
C2489 C2487 1.388 . S
C2489 C2490 1.366 . S
C2490 C2489 1.366 . S
C2490 C2491 1.414 . S
C2490 C2493 1.499 . S
C2491 H2465 0.950 1_455 S
C2491 C2490 1.414 . S
C2491 C2492 1.374 . S
C2492 H2466 0.950 1_455 S
C2492 C2488 1.385 . S
C2492 C2491 1.374 . S
C2493 C2490 1.499 . S
C2493 C2494 1.373 . S
C2493 C2495 1.389 . S
C2494 H2467 0.950 . S
C2494 C2480 1.377 . S
C2494 C2493 1.373 . S
C2495 C2479 1.377 . S
C2495 C2493 1.389 . S
C2495 C2496 1.524 . S
C2496 C2495 1.524 . S
C2496 C2497 1.397 . S
C2496 C2501 1.363 . S
C2497 H2468 0.950 . S
C2497 C2496 1.397 . S
C2497 C2498 1.334 . S
C2498 H2469 0.950 . S
C2498 C2497 1.334 . S
C2498 C2499 1.287 . S
C2499 C2498 1.287 . S
C2499 C2500 1.524 . S
C2499 H2502 0.999 . S
C2500 H2470 0.950 . S
C2500 C2499 1.524 . S
C2500 C2501 1.415 . S
C2501 H2471 0.950 . S
C2501 C2496 1.363 . S
C2501 C2500 1.415 . S
H2502 C2499 0.999 . S
H2503 C2484 0.913 . S
H2504 C2522 0.951 . S
H2505 C2524 0.951 . S
H2506 C2526 0.950 . S
H2507 C2527 0.950 . S
H2508 C2529 0.950 . S
H2509 C2532 0.950 . S
H2510 C2533 0.950 . S
H2511 C2535 0.950 . S
H2512 C2536 0.950 . S
H2513 C2537 0.951 . S
H2514 C2539 0.951 . S
H2515 C2541 0.950 . S
H2516 C2542 0.950 . S
H2517 C2544 0.950 . S
H2518 C2547 0.950 . S
H2519 C2548 0.950 . S
H2520 C2550 0.950 . S
H2521 C2551 0.950 . S
C2522 H2504 0.951 . S
C2522 C2523 1.366 . S
C2522 C2524 1.388 . S
C2523 C2522 1.366 . S
C2523 C2527 1.385 . S
C2524 H2505 0.951 . S
C2524 C2522 1.388 . S
C2524 C2525 1.366 . S
C2525 C2524 1.366 . S
C2525 C2526 1.414 . S
C2525 C2528 1.499 . S
C2526 H2506 0.950 . S
C2526 C2525 1.414 . S
C2526 C2527 1.374 . S
C2527 H2507 0.950 . S
C2527 C2523 1.385 . S
C2527 C2526 1.374 . S
C2528 C2525 1.499 . S
C2528 C2529 1.373 . S
C2528 C2530 1.389 . S
C2529 H2508 0.950 . S
C2529 C2528 1.373 . S
C2529 C2545 1.377 . S
C2530 C2528 1.389 . S
C2530 C2531 1.524 . S
C2530 C2544 1.377 . S
C2531 C2530 1.524 . S
C2531 C2532 1.397 . S
C2531 C2536 1.363 . S
C2532 H2509 0.950 . S
C2532 C2531 1.397 . S
C2532 C2533 1.334 . S
C2533 H2510 0.950 . S
C2533 C2532 1.334 . S
C2533 C2534 1.287 . S
C2534 C2533 1.287 . S
C2534 C2535 1.524 . S
C2534 H2553 0.913 . S
C2535 H2511 0.950 . S
C2535 C2534 1.524 . S
C2535 C2536 1.415 . S
C2536 H2512 0.950 . S
C2536 C2531 1.363 . S
C2536 C2535 1.415 . S
C2537 H2513 0.951 . S
C2537 C2538 1.366 . S
C2537 C2539 1.388 . S
C2538 C2537 1.366 . S
C2538 C2542 1.385 . S
C2539 H2514 0.951 . S
C2539 C2537 1.388 . S
C2539 C2540 1.366 . S
C2540 C2539 1.366 . S
C2540 C2541 1.414 . S
C2540 C2543 1.499 . S
C2541 H2515 0.950 . S
C2541 C2540 1.414 . S
C2541 C2542 1.374 . S
C2542 H2516 0.950 . S
C2542 C2538 1.385 . S
C2542 C2541 1.374 . S
C2543 C2540 1.499 . S
C2543 C2544 1.373 . S
C2543 C2545 1.389 . S
C2544 H2517 0.950 . S
C2544 C2530 1.377 . S
C2544 C2543 1.373 . S
C2545 C2529 1.377 . S
C2545 C2543 1.389 . S
C2545 C2546 1.524 . S
C2546 C2545 1.524 . S
C2546 C2547 1.397 . S
C2546 C2551 1.363 . S
C2547 H2518 0.950 . S
C2547 C2546 1.397 . S
C2547 C2548 1.334 . S
C2548 H2519 0.950 . S
C2548 C2547 1.334 . S
C2548 C2549 1.287 . S
C2549 C2548 1.287 . S
C2549 C2550 1.524 . S
C2549 H2552 0.999 . S
C2550 H2520 0.950 . S
C2550 C2549 1.524 . S
C2550 C2551 1.415 . S
C2551 H2521 0.950 . S
C2551 C2546 1.363 . S
C2551 C2550 1.415 . S
H2552 C2549 0.999 . S
H2553 C2534 0.913 . S
H2554 C2572 0.951 . S
H2555 C2574 0.951 . S
H2556 C2576 0.950 1_545 S
H2557 C2577 0.950 . S
H2558 C2579 0.950 . S
H2559 C2582 0.950 . S
H2560 C2583 0.950 . S
H2561 C2585 0.950 . S
H2562 C2586 0.950 1_565 S
H2563 C2587 0.951 . S
H2564 C2589 0.951 . S
H2565 C2591 0.950 . S
H2566 C2592 0.950 . S
H2567 C2594 0.950 . S
H2568 C2597 0.950 . S
H2569 C2598 0.950 . S
H2570 C2600 0.950 . S
H2571 C2601 0.950 . S
C2572 H2554 0.951 . S
C2572 C2573 1.366 . S
C2572 C2574 1.388 . S
C2573 C2572 1.366 . S
C2573 C2577 1.385 . S
C2574 H2555 0.951 . S
C2574 C2572 1.388 . S
C2574 C2575 1.366 . S
C2575 C2574 1.366 . S
C2575 C2576 1.414 . S
C2575 C2578 1.499 . S
C2576 H2556 0.950 1_565 S
C2576 C2575 1.414 . S
C2576 C2577 1.374 . S
C2577 H2557 0.950 . S
C2577 C2573 1.385 . S
C2577 C2576 1.374 . S
C2578 C2575 1.499 . S
C2578 C2579 1.373 . S
C2578 C2580 1.389 1_565 S
C2579 H2558 0.950 . S
C2579 C2578 1.373 . S
C2579 C2595 1.377 . S
C2580 C2578 1.389 1_545 S
C2580 C2581 1.524 . S
C2580 C2594 1.377 . S
C2581 C2580 1.524 . S
C2581 C2582 1.397 . S
C2581 C2586 1.363 . S
C2582 H2559 0.950 . S
C2582 C2581 1.397 . S
C2582 C2583 1.334 . S
C2583 H2560 0.950 . S
C2583 C2582 1.334 . S
C2583 C2584 1.287 . S
C2584 C2583 1.287 . S
C2584 C2585 1.524 . S
C2584 H2603 0.913 . S
C2585 H2561 0.950 . S
C2585 C2584 1.524 . S
C2585 C2586 1.415 . S
C2586 H2562 0.950 1_545 S
C2586 C2581 1.363 . S
C2586 C2585 1.415 . S
C2587 H2563 0.951 . S
C2587 C2588 1.366 1_545 S
C2587 C2589 1.388 . S
C2588 C2587 1.366 1_565 S
C2588 C2592 1.385 . S
C2589 H2564 0.951 . S
C2589 C2587 1.388 . S
C2589 C2590 1.366 1_545 S
C2590 C2589 1.366 1_565 S
C2590 C2591 1.414 . S
C2590 C2593 1.499 . S
C2591 H2565 0.950 . S
C2591 C2590 1.414 . S
C2591 C2592 1.374 . S
C2592 H2566 0.950 . S
C2592 C2588 1.385 . S
C2592 C2591 1.374 . S
C2593 C2590 1.499 . S
C2593 C2594 1.373 1_565 S
C2593 C2595 1.389 . S
C2594 H2567 0.950 . S
C2594 C2580 1.377 . S
C2594 C2593 1.373 1_545 S
C2595 C2579 1.377 . S
C2595 C2593 1.389 . S
C2595 C2596 1.524 . S
C2596 C2595 1.524 . S
C2596 C2597 1.397 . S
C2596 C2601 1.363 . S
C2597 H2568 0.950 . S
C2597 C2596 1.397 . S
C2597 C2598 1.334 . S
C2598 H2569 0.950 . S
C2598 C2597 1.334 . S
C2598 C2599 1.287 . S
C2599 C2598 1.287 . S
C2599 C2600 1.524 . S
C2599 H2602 0.999 . S
C2600 H2570 0.950 . S
C2600 C2599 1.524 . S
C2600 C2601 1.415 . S
C2601 H2571 0.950 . S
C2601 C2596 1.363 . S
C2601 C2600 1.415 . S
H2602 C2599 0.999 . S
H2603 C2584 0.913 . S
H2604 C2622 0.951 . S
H2605 C2624 0.951 . S
H2606 C2626 0.950 . S
H2607 C2627 0.950 . S
H2608 C2629 0.950 . S
H2609 C2632 0.950 . S
H2610 C2633 0.950 . S
H2611 C2635 0.950 . S
H2612 C2636 0.950 . S
H2613 C2637 0.951 . S
H2614 C2639 0.951 . S
H2615 C2641 0.950 . S
H2616 C2642 0.950 . S
H2617 C2644 0.950 . S
H2618 C2647 0.950 . S
H2619 C2648 0.950 . S
H2620 C2650 0.950 . S
H2621 C2651 0.950 . S
C2622 H2604 0.951 . S
C2622 C2623 1.366 1_545 S
C2622 C2624 1.388 . S
C2623 C2622 1.366 1_565 S
C2623 C2627 1.385 . S
C2624 H2605 0.951 . S
C2624 C2622 1.388 . S
C2624 C2625 1.366 1_545 S
C2625 C2624 1.366 1_565 S
C2625 C2626 1.414 . S
C2625 C2628 1.499 . S
C2626 H2606 0.950 . S
C2626 C2625 1.414 . S
C2626 C2627 1.374 . S
C2627 H2607 0.950 . S
C2627 C2623 1.385 . S
C2627 C2626 1.374 . S
C2628 C2625 1.499 . S
C2628 C2629 1.373 . S
C2628 C2630 1.389 1_565 S
C2629 H2608 0.950 . S
C2629 C2628 1.373 . S
C2629 C2645 1.377 . S
C2630 C2628 1.389 1_545 S
C2630 C2631 1.524 . S
C2630 C2644 1.377 . S
C2631 C2630 1.524 . S
C2631 C2632 1.397 . S
C2631 C2636 1.363 . S
C2632 H2609 0.950 . S
C2632 C2631 1.397 . S
C2632 C2633 1.334 . S
C2633 H2610 0.950 . S
C2633 C2632 1.334 . S
C2633 C2634 1.287 . S
C2634 C2633 1.287 . S
C2634 C2635 1.524 . S
C2634 H2653 0.913 . S
C2635 H2611 0.950 . S
C2635 C2634 1.524 . S
C2635 C2636 1.415 . S
C2636 H2612 0.950 . S
C2636 C2631 1.363 . S
C2636 C2635 1.415 . S
C2637 H2613 0.951 . S
C2637 C2638 1.366 1_565 S
C2637 C2639 1.388 . S
C2638 C2637 1.366 1_545 S
C2638 C2642 1.385 . S
C2639 H2614 0.951 . S
C2639 C2637 1.388 . S
C2639 C2640 1.366 . S
C2640 C2639 1.366 . S
C2640 C2641 1.414 1_565 S
C2640 C2643 1.499 . S
C2641 H2615 0.950 . S
C2641 C2640 1.414 1_545 S
C2641 C2642 1.374 . S
C2642 H2616 0.950 . S
C2642 C2638 1.385 . S
C2642 C2641 1.374 . S
C2643 C2640 1.499 . S
C2643 C2644 1.373 1_565 S
C2643 C2645 1.389 . S
C2644 H2617 0.950 . S
C2644 C2630 1.377 . S
C2644 C2643 1.373 1_545 S
C2645 C2629 1.377 . S
C2645 C2643 1.389 . S
C2645 C2646 1.524 . S
C2646 C2645 1.524 . S
C2646 C2647 1.397 . S
C2646 C2651 1.363 . S
C2647 H2618 0.950 . S
C2647 C2646 1.397 . S
C2647 C2648 1.334 . S
C2648 H2619 0.950 . S
C2648 C2647 1.334 . S
C2648 C2649 1.287 . S
C2649 C2648 1.287 . S
C2649 C2650 1.524 . S
C2649 H2652 0.999 . S
C2650 H2620 0.950 . S
C2650 C2649 1.524 . S
C2650 C2651 1.415 . S
C2651 H2621 0.950 . S
C2651 C2646 1.363 . S
C2651 C2650 1.415 . S
H2652 C2649 0.999 . S
H2653 C2634 0.913 . S
H2654 C2672 0.951 . S
H2655 C2674 0.951 . S
H2656 C2676 0.950 . S
H2657 C2677 0.950 . S
H2658 C2679 0.950 . S
H2659 C2682 0.950 . S
H2660 C2683 0.950 . S
H2661 C2685 0.950 . S
H2662 C2686 0.950 . S
H2663 C2687 0.951 . S
H2664 C2689 0.951 . S
H2665 C2691 0.950 . S
H2666 C2692 0.950 . S
H2667 C2694 0.950 . S
H2668 C2697 0.950 . S
H2669 C2698 0.950 . S
H2670 C2700 0.950 . S
H2671 C2701 0.950 . S
C2672 H2654 0.951 . S
C2672 C2673 1.366 . S
C2672 C2674 1.388 . S
C2673 C2672 1.366 . S
C2673 C2677 1.385 . S
C2674 H2655 0.951 . S
C2674 C2672 1.388 . S
C2674 C2675 1.366 . S
C2675 C2674 1.366 . S
C2675 C2676 1.414 . S
C2675 C2678 1.499 . S
C2676 H2656 0.950 . S
C2676 C2675 1.414 . S
C2676 C2677 1.374 . S
C2677 H2657 0.950 . S
C2677 C2673 1.385 . S
C2677 C2676 1.374 . S
C2678 C2675 1.499 . S
C2678 C2679 1.373 . S
C2678 C2680 1.389 . S
C2679 H2658 0.950 . S
C2679 C2678 1.373 . S
C2679 C2695 1.377 . S
C2680 C2678 1.389 . S
C2680 C2681 1.524 . S
C2680 C2694 1.377 . S
C2681 C2680 1.524 . S
C2681 C2682 1.397 . S
C2681 C2686 1.363 . S
C2682 H2659 0.950 . S
C2682 C2681 1.397 . S
C2682 C2683 1.334 . S
C2683 H2660 0.950 . S
C2683 C2682 1.334 . S
C2683 C2684 1.287 . S
C2684 C2683 1.287 . S
C2684 C2685 1.524 . S
C2684 H2703 0.913 . S
C2685 H2661 0.950 . S
C2685 C2684 1.524 . S
C2685 C2686 1.415 . S
C2686 H2662 0.950 . S
C2686 C2681 1.363 . S
C2686 C2685 1.415 . S
C2687 H2663 0.951 . S
C2687 C2688 1.366 . S
C2687 C2689 1.388 . S
C2688 C2687 1.366 . S
C2688 C2692 1.385 . S
C2689 H2664 0.951 . S
C2689 C2687 1.388 . S
C2689 C2690 1.366 . S
C2690 C2689 1.366 . S
C2690 C2691 1.414 . S
C2690 C2693 1.499 . S
C2691 H2665 0.950 . S
C2691 C2690 1.414 . S
C2691 C2692 1.374 . S
C2692 H2666 0.950 . S
C2692 C2688 1.385 . S
C2692 C2691 1.374 . S
C2693 C2690 1.499 . S
C2693 C2694 1.373 . S
C2693 C2695 1.389 . S
C2694 H2667 0.950 . S
C2694 C2680 1.377 . S
C2694 C2693 1.373 . S
C2695 C2679 1.377 . S
C2695 C2693 1.389 . S
C2695 C2696 1.524 . S
C2696 C2695 1.524 . S
C2696 C2697 1.397 1_455 S
C2696 C2701 1.363 . S
C2697 H2668 0.950 . S
C2697 C2696 1.397 1_655 S
C2697 C2698 1.334 . S
C2698 H2669 0.950 . S
C2698 C2697 1.334 . S
C2698 C2699 1.287 . S
C2699 C2698 1.287 . S
C2699 C2700 1.524 . S
C2699 H2702 0.999 . S
C2700 H2670 0.950 . S
C2700 C2699 1.524 . S
C2700 C2701 1.415 1_655 S
C2701 H2671 0.950 . S
C2701 C2696 1.363 . S
C2701 C2700 1.415 1_455 S
H2702 C2699 0.999 . S
H2703 C2684 0.913 . S
H2704 C2722 0.951 . S
H2705 C2724 0.951 . S
H2706 C2726 0.950 . S
H2707 C2727 0.950 . S
H2708 C2729 0.950 . S
H2709 C2732 0.950 . S
H2710 C2733 0.950 . S
H2711 C2735 0.950 . S
H2712 C2736 0.950 . S
H2713 C2737 0.951 . S
H2714 C2739 0.951 . S
H2715 C2741 0.950 . S
H2716 C2742 0.950 . S
H2717 C2744 0.950 . S
H2718 C2747 0.950 . S
H2719 C2748 0.950 . S
H2720 C2750 0.950 . S
H2721 C2751 0.950 . S
C2722 H2704 0.951 . S
C2722 C2723 1.366 . S
C2722 C2724 1.388 . S
C2723 C2722 1.366 . S
C2723 C2727 1.385 . S
C2724 H2705 0.951 . S
C2724 C2722 1.388 . S
C2724 C2725 1.366 . S
C2725 C2724 1.366 . S
C2725 C2726 1.414 . S
C2725 C2728 1.499 . S
C2726 H2706 0.950 . S
C2726 C2725 1.414 . S
C2726 C2727 1.374 . S
C2727 H2707 0.950 . S
C2727 C2723 1.385 . S
C2727 C2726 1.374 . S
C2728 C2725 1.499 . S
C2728 C2729 1.373 . S
C2728 C2730 1.389 . S
C2729 H2708 0.950 . S
C2729 C2728 1.373 . S
C2729 C2745 1.377 . S
C2730 C2728 1.389 . S
C2730 C2731 1.524 . S
C2730 C2744 1.377 . S
C2731 C2730 1.524 . S
C2731 C2732 1.397 . S
C2731 C2736 1.363 . S
C2732 H2709 0.950 . S
C2732 C2731 1.397 . S
C2732 C2733 1.334 . S
C2733 H2710 0.950 . S
C2733 C2732 1.334 . S
C2733 C2734 1.287 . S
C2734 C2733 1.287 . S
C2734 C2735 1.524 . S
C2734 H2753 0.913 . S
C2735 H2711 0.950 . S
C2735 C2734 1.524 . S
C2735 C2736 1.415 . S
C2736 H2712 0.950 . S
C2736 C2731 1.363 . S
C2736 C2735 1.415 . S
C2737 H2713 0.951 . S
C2737 C2738 1.366 . S
C2737 C2739 1.388 . S
C2738 C2737 1.366 . S
C2738 C2742 1.385 . S
C2739 H2714 0.951 . S
C2739 C2737 1.388 . S
C2739 C2740 1.366 . S
C2740 C2739 1.366 . S
C2740 C2741 1.414 . S
C2740 C2743 1.499 . S
C2741 H2715 0.950 . S
C2741 C2740 1.414 . S
C2741 C2742 1.374 . S
C2742 H2716 0.950 . S
C2742 C2738 1.385 . S
C2742 C2741 1.374 . S
C2743 C2740 1.499 . S
C2743 C2744 1.373 . S
C2743 C2745 1.389 . S
C2744 H2717 0.950 . S
C2744 C2730 1.377 . S
C2744 C2743 1.373 . S
C2745 C2729 1.377 . S
C2745 C2743 1.389 . S
C2745 C2746 1.524 . S
C2746 C2745 1.524 . S
C2746 C2747 1.397 . S
C2746 C2751 1.363 . S
C2747 H2718 0.950 . S
C2747 C2746 1.397 . S
C2747 C2748 1.334 . S
C2748 H2719 0.950 . S
C2748 C2747 1.334 . S
C2748 C2749 1.287 . S
C2749 C2748 1.287 . S
C2749 C2750 1.524 . S
C2749 H2752 0.999 . S
C2750 H2720 0.950 . S
C2750 C2749 1.524 . S
C2750 C2751 1.415 . S
C2751 H2721 0.950 . S
C2751 C2746 1.363 . S
C2751 C2750 1.415 . S
H2752 C2749 0.999 . S
H2753 C2734 0.913 . S
H2754 C2772 0.951 . S
H2755 C2774 0.951 . S
H2756 C2776 0.950 . S
H2757 C2777 0.950 . S
H2758 C2779 0.950 . S
H2759 C2782 0.950 . S
H2760 C2783 0.950 . S
H2761 C2785 0.950 . S
H2762 C2786 0.950 . S
H2763 C2787 0.951 . S
H2764 C2789 0.951 . S
H2765 C2791 0.950 . S
H2766 C2792 0.950 . S
H2767 C2794 0.950 . S
H2768 C2797 0.950 . S
H2769 C2798 0.950 . S
H2770 C2800 0.950 . S
H2771 C2801 0.950 . S
C2772 H2754 0.951 . S
C2772 C2773 1.366 . S
C2772 C2774 1.388 . S
C2773 C2772 1.366 . S
C2773 C2777 1.385 1_655 S
C2774 H2755 0.951 . S
C2774 C2772 1.388 . S
C2774 C2775 1.366 . S
C2775 C2774 1.366 . S
C2775 C2776 1.414 1_655 S
C2775 C2778 1.499 . S
C2776 H2756 0.950 . S
C2776 C2775 1.414 1_455 S
C2776 C2777 1.374 . S
C2777 H2757 0.950 . S
C2777 C2773 1.385 1_455 S
C2777 C2776 1.374 . S
C2778 C2775 1.499 . S
C2778 C2779 1.373 1_655 S
C2778 C2780 1.389 . S
C2779 H2758 0.950 . S
C2779 C2778 1.373 1_455 S
C2779 C2795 1.377 . S
C2780 C2778 1.389 . S
C2780 C2781 1.524 . S
C2780 C2794 1.377 . S
C2781 C2780 1.524 . S
C2781 C2782 1.397 . S
C2781 C2786 1.363 . S
C2782 H2759 0.950 . S
C2782 C2781 1.397 . S
C2782 C2783 1.334 . S
C2783 H2760 0.950 . S
C2783 C2782 1.334 . S
C2783 C2784 1.287 . S
C2784 C2783 1.287 . S
C2784 C2785 1.524 . S
C2784 H2803 0.913 . S
C2785 H2761 0.950 . S
C2785 C2784 1.524 . S
C2785 C2786 1.415 . S
C2786 H2762 0.950 . S
C2786 C2781 1.363 . S
C2786 C2785 1.415 . S
C2787 H2763 0.951 . S
C2787 C2788 1.366 1_455 S
C2787 C2789 1.388 . S
C2788 C2787 1.366 1_655 S
C2788 C2792 1.385 . S
C2789 H2764 0.951 . S
C2789 C2787 1.388 . S
C2789 C2790 1.366 1_455 S
C2790 C2789 1.366 1_655 S
C2790 C2791 1.414 . S
C2790 C2793 1.499 . S
C2791 H2765 0.950 . S
C2791 C2790 1.414 . S
C2791 C2792 1.374 . S
C2792 H2766 0.950 . S
C2792 C2788 1.385 . S
C2792 C2791 1.374 . S
C2793 C2790 1.499 . S
C2793 C2794 1.373 . S
C2793 C2795 1.389 1_655 S
C2794 H2767 0.950 . S
C2794 C2780 1.377 . S
C2794 C2793 1.373 . S
C2795 C2779 1.377 . S
C2795 C2793 1.389 1_455 S
C2795 C2796 1.524 . S
C2796 C2795 1.524 . S
C2796 C2797 1.397 . S
C2796 C2801 1.363 . S
C2797 H2768 0.950 . S
C2797 C2796 1.397 . S
C2797 C2798 1.334 . S
C2798 H2769 0.950 . S
C2798 C2797 1.334 . S
C2798 C2799 1.287 . S
C2799 C2798 1.287 . S
C2799 C2800 1.524 . S
C2799 H2802 0.999 . S
C2800 H2770 0.950 . S
C2800 C2799 1.524 . S
C2800 C2801 1.415 . S
C2801 H2771 0.950 . S
C2801 C2796 1.363 . S
C2801 C2800 1.415 . S
H2802 C2799 0.999 . S
H2803 C2784 0.913 . S
H2804 C2822 0.951 . S
H2805 C2824 0.951 . S
H2806 C2826 0.950 . S
H2807 C2827 0.950 . S
H2808 C2829 0.950 . S
H2809 C2832 0.950 . S
H2810 C2833 0.950 . S
H2811 C2835 0.950 . S
H2812 C2836 0.950 . S
H2813 C2837 0.951 . S
H2814 C2839 0.951 . S
H2815 C2841 0.950 . S
H2816 C2842 0.950 . S
H2817 C2844 0.950 . S
H2818 C2847 0.950 . S
H2819 C2848 0.950 . S
H2820 C2850 0.950 . S
H2821 C2851 0.950 . S
C2822 H2804 0.951 . S
C2822 C2823 1.366 . S
C2822 C2824 1.388 . S
C2823 C2822 1.366 . S
C2823 C2827 1.385 . S
C2824 H2805 0.951 . S
C2824 C2822 1.388 . S
C2824 C2825 1.366 . S
C2825 C2824 1.366 . S
C2825 C2826 1.414 . S
C2825 C2828 1.499 . S
C2826 H2806 0.950 . S
C2826 C2825 1.414 . S
C2826 C2827 1.374 . S
C2827 H2807 0.950 . S
C2827 C2823 1.385 . S
C2827 C2826 1.374 . S
C2828 C2825 1.499 . S
C2828 C2829 1.373 . S
C2828 C2830 1.389 . S
C2829 H2808 0.950 . S
C2829 C2828 1.373 . S
C2829 C2845 1.377 . S
C2830 C2828 1.389 . S
C2830 C2831 1.524 . S
C2830 C2844 1.377 . S
C2831 C2830 1.524 . S
C2831 C2832 1.397 . S
C2831 C2836 1.363 . S
C2832 H2809 0.950 . S
C2832 C2831 1.397 . S
C2832 C2833 1.334 . S
C2833 H2810 0.950 . S
C2833 C2832 1.334 . S
C2833 C2834 1.287 . S
C2834 C2833 1.287 . S
C2834 C2835 1.524 . S
C2834 H2853 0.913 . S
C2835 H2811 0.950 . S
C2835 C2834 1.524 . S
C2835 C2836 1.415 . S
C2836 H2812 0.950 . S
C2836 C2831 1.363 . S
C2836 C2835 1.415 . S
C2837 H2813 0.951 . S
C2837 C2838 1.366 . S
C2837 C2839 1.388 . S
C2838 C2837 1.366 . S
C2838 C2842 1.385 . S
C2839 H2814 0.951 . S
C2839 C2837 1.388 . S
C2839 C2840 1.366 . S
C2840 C2839 1.366 . S
C2840 C2841 1.414 . S
C2840 C2843 1.499 . S
C2841 H2815 0.950 . S
C2841 C2840 1.414 . S
C2841 C2842 1.374 . S
C2842 H2816 0.950 . S
C2842 C2838 1.385 . S
C2842 C2841 1.374 . S
C2843 C2840 1.499 . S
C2843 C2844 1.373 . S
C2843 C2845 1.389 . S
C2844 H2817 0.950 . S
C2844 C2830 1.377 . S
C2844 C2843 1.373 . S
C2845 C2829 1.377 . S
C2845 C2843 1.389 . S
C2845 C2846 1.524 . S
C2846 C2845 1.524 . S
C2846 C2847 1.397 . S
C2846 C2851 1.363 . S
C2847 H2818 0.950 . S
C2847 C2846 1.397 . S
C2847 C2848 1.334 . S
C2848 H2819 0.950 . S
C2848 C2847 1.334 . S
C2848 C2849 1.287 . S
C2849 C2848 1.287 . S
C2849 C2850 1.524 . S
C2849 H2852 0.999 . S
C2850 H2820 0.950 . S
C2850 C2849 1.524 . S
C2850 C2851 1.415 . S
C2851 H2821 0.950 . S
C2851 C2846 1.363 . S
C2851 C2850 1.415 . S
H2852 C2849 0.999 . S
H2853 C2834 0.913 . S
H2854 C2872 0.951 . S
H2855 C2874 0.951 . S
H2856 C2876 0.950 . S
H2857 C2877 0.950 . S
H2858 C2879 0.950 . S
H2859 C2882 0.950 . S
H2860 C2883 0.950 . S
H2861 C2885 0.950 . S
H2862 C2886 0.950 . S
H2863 C2887 0.951 . S
H2864 C2889 0.951 . S
H2865 C2891 0.950 . S
H2866 C2892 0.950 . S
H2867 C2894 0.950 . S
H2868 C2897 0.950 . S
H2869 C2898 0.950 . S
H2870 C2900 0.950 . S
H2871 C2901 0.950 . S
C2872 H2854 0.951 . S
C2872 C2873 1.366 . S
C2872 C2874 1.388 . S
C2873 C2872 1.366 . S
C2873 C2877 1.385 . S
C2874 H2855 0.951 . S
C2874 C2872 1.388 . S
C2874 C2875 1.366 . S
C2875 C2874 1.366 . S
C2875 C2876 1.414 . S
C2875 C2878 1.499 . S
C2876 H2856 0.950 . S
C2876 C2875 1.414 . S
C2876 C2877 1.374 . S
C2877 H2857 0.950 . S
C2877 C2873 1.385 . S
C2877 C2876 1.374 . S
C2878 C2875 1.499 . S
C2878 C2879 1.373 . S
C2878 C2880 1.389 . S
C2879 H2858 0.950 . S
C2879 C2878 1.373 . S
C2879 C2895 1.377 . S
C2880 C2878 1.389 . S
C2880 C2881 1.524 . S
C2880 C2894 1.377 . S
C2881 C2880 1.524 . S
C2881 C2882 1.397 . S
C2881 C2886 1.363 . S
C2882 H2859 0.950 . S
C2882 C2881 1.397 . S
C2882 C2883 1.334 . S
C2883 H2860 0.950 . S
C2883 C2882 1.334 . S
C2883 C2884 1.287 . S
C2884 C2883 1.287 . S
C2884 C2885 1.524 . S
C2884 H2903 0.913 . S
C2885 H2861 0.950 . S
C2885 C2884 1.524 . S
C2885 C2886 1.415 . S
C2886 H2862 0.950 . S
C2886 C2881 1.363 . S
C2886 C2885 1.415 . S
C2887 H2863 0.951 . S
C2887 C2888 1.366 . S
C2887 C2889 1.388 . S
C2888 C2887 1.366 . S
C2888 C2892 1.385 . S
C2889 H2864 0.951 . S
C2889 C2887 1.388 . S
C2889 C2890 1.366 . S
C2890 C2889 1.366 . S
C2890 C2891 1.414 . S
C2890 C2893 1.499 . S
C2891 H2865 0.950 . S
C2891 C2890 1.414 . S
C2891 C2892 1.374 . S
C2892 H2866 0.950 . S
C2892 C2888 1.385 . S
C2892 C2891 1.374 . S
C2893 C2890 1.499 . S
C2893 C2894 1.373 . S
C2893 C2895 1.389 . S
C2894 H2867 0.950 . S
C2894 C2880 1.377 . S
C2894 C2893 1.373 . S
C2895 C2879 1.377 . S
C2895 C2893 1.389 . S
C2895 C2896 1.524 1_545 S
C2896 C2895 1.524 1_565 S
C2896 C2897 1.397 . S
C2896 C2901 1.363 . S
C2897 H2868 0.950 . S
C2897 C2896 1.397 . S
C2897 C2898 1.334 . S
C2898 H2869 0.950 . S
C2898 C2897 1.334 . S
C2898 C2899 1.287 . S
C2899 C2898 1.287 . S
C2899 C2900 1.524 . S
C2899 H2902 0.999 . S
C2900 H2870 0.950 . S
C2900 C2899 1.524 . S
C2900 C2901 1.415 . S
C2901 H2871 0.950 . S
C2901 C2896 1.363 . S
C2901 C2900 1.415 . S
H2902 C2899 0.999 . S
H2903 C2884 0.913 . S
H2904 C2922 0.951 . S
H2905 C2924 0.951 . S
H2906 C2926 0.950 . S
H2907 C2927 0.950 . S
H2908 C2929 0.950 . S
H2909 C2932 0.950 . S
H2910 C2933 0.950 . S
H2911 C2935 0.950 . S
H2912 C2936 0.950 . S
H2913 C2937 0.951 . S
H2914 C2939 0.951 . S
H2915 C2941 0.950 . S
H2916 C2942 0.950 . S
H2917 C2944 0.950 . S
H2918 C2947 0.950 . S
H2919 C2948 0.950 . S
H2920 C2950 0.950 . S
H2921 C2951 0.950 . S
C2922 H2904 0.951 . S
C2922 C2923 1.366 . S
C2922 C2924 1.388 . S
C2923 C2922 1.366 . S
C2923 C2927 1.385 . S
C2924 H2905 0.951 . S
C2924 C2922 1.388 . S
C2924 C2925 1.366 . S
C2925 C2924 1.366 . S
C2925 C2926 1.414 . S
C2925 C2928 1.499 . S
C2926 H2906 0.950 . S
C2926 C2925 1.414 . S
C2926 C2927 1.374 . S
C2927 H2907 0.950 . S
C2927 C2923 1.385 . S
C2927 C2926 1.374 . S
C2928 C2925 1.499 . S
C2928 C2929 1.373 . S
C2928 C2930 1.389 . S
C2929 H2908 0.950 . S
C2929 C2928 1.373 . S
C2929 C2945 1.377 . S
C2930 C2928 1.389 . S
C2930 C2931 1.524 . S
C2930 C2944 1.377 . S
C2931 C2930 1.524 . S
C2931 C2932 1.397 . S
C2931 C2936 1.363 . S
C2932 H2909 0.950 . S
C2932 C2931 1.397 . S
C2932 C2933 1.334 . S
C2933 H2910 0.950 . S
C2933 C2932 1.334 . S
C2933 C2934 1.287 . S
C2934 C2933 1.287 . S
C2934 C2935 1.524 . S
C2934 H2953 0.913 . S
C2935 H2911 0.950 . S
C2935 C2934 1.524 . S
C2935 C2936 1.415 . S
C2936 H2912 0.950 . S
C2936 C2931 1.363 . S
C2936 C2935 1.415 . S
C2937 H2913 0.951 . S
C2937 C2938 1.366 . S
C2937 C2939 1.388 . S
C2938 C2937 1.366 . S
C2938 C2942 1.385 . S
C2939 H2914 0.951 . S
C2939 C2937 1.388 . S
C2939 C2940 1.366 . S
C2940 C2939 1.366 . S
C2940 C2941 1.414 . S
C2940 C2943 1.499 . S
C2941 H2915 0.950 . S
C2941 C2940 1.414 . S
C2941 C2942 1.374 . S
C2942 H2916 0.950 . S
C2942 C2938 1.385 . S
C2942 C2941 1.374 . S
C2943 C2940 1.499 . S
C2943 C2944 1.373 . S
C2943 C2945 1.389 . S
C2944 H2917 0.950 . S
C2944 C2930 1.377 . S
C2944 C2943 1.373 . S
C2945 C2929 1.377 . S
C2945 C2943 1.389 . S
C2945 C2946 1.524 . S
C2946 C2945 1.524 . S
C2946 C2947 1.397 . S
C2946 C2951 1.363 . S
C2947 H2918 0.950 . S
C2947 C2946 1.397 . S
C2947 C2948 1.334 . S
C2948 H2919 0.950 . S
C2948 C2947 1.334 . S
C2948 C2949 1.287 . S
C2949 C2948 1.287 . S
C2949 C2950 1.524 . S
C2949 H2952 0.999 . S
C2950 H2920 0.950 . S
C2950 C2949 1.524 . S
C2950 C2951 1.415 . S
C2951 H2921 0.950 . S
C2951 C2946 1.363 . S
C2951 C2950 1.415 . S
H2952 C2949 0.999 . S
H2953 C2934 0.913 . S
H2954 C2972 0.951 . S
H2955 C2974 0.951 . S
H2956 C2976 0.950 . S
H2957 C2977 0.950 . S
H2958 C2979 0.950 . S
H2959 C2982 0.950 . S
H2960 C2983 0.950 . S
H2961 C2985 0.950 . S
H2962 C2986 0.950 . S
H2963 C2987 0.951 . S
H2964 C2989 0.951 . S
H2965 C2991 0.950 . S
H2966 C2992 0.950 . S
H2967 C2994 0.950 . S
H2968 C2997 0.950 . S
H2969 C2998 0.950 . S
H2970 C3000 0.950 . S
H2971 C3001 0.950 . S
C2972 H2954 0.951 . S
C2972 C2973 1.366 . S
C2972 C2974 1.388 . S
C2973 C2972 1.366 . S
C2973 C2977 1.385 . S
C2974 H2955 0.951 . S
C2974 C2972 1.388 . S
C2974 C2975 1.366 . S
C2975 C2974 1.366 . S
C2975 C2976 1.414 . S
C2975 C2978 1.499 . S
C2976 H2956 0.950 . S
C2976 C2975 1.414 . S
C2976 C2977 1.374 . S
C2977 H2957 0.950 . S
C2977 C2973 1.385 . S
C2977 C2976 1.374 . S
C2978 C2975 1.499 . S
C2978 C2979 1.373 . S
C2978 C2980 1.389 . S
C2979 H2958 0.950 . S
C2979 C2978 1.373 . S
C2979 C2995 1.377 . S
C2980 C2978 1.389 . S
C2980 C2981 1.524 . S
C2980 C2994 1.377 . S
C2981 C2980 1.524 . S
C2981 C2982 1.397 . S
C2981 C2986 1.363 . S
C2982 H2959 0.950 . S
C2982 C2981 1.397 . S
C2982 C2983 1.334 . S
C2983 H2960 0.950 . S
C2983 C2982 1.334 . S
C2983 C2984 1.287 . S
C2984 C2983 1.287 . S
C2984 C2985 1.524 . S
C2984 H3003 0.913 . S
C2985 H2961 0.950 . S
C2985 C2984 1.524 . S
C2985 C2986 1.415 . S
C2986 H2962 0.950 . S
C2986 C2981 1.363 . S
C2986 C2985 1.415 . S
C2987 H2963 0.951 . S
C2987 C2988 1.366 . S
C2987 C2989 1.388 . S
C2988 C2987 1.366 . S
C2988 C2992 1.385 . S
C2989 H2964 0.951 . S
C2989 C2987 1.388 . S
C2989 C2990 1.366 . S
C2990 C2989 1.366 . S
C2990 C2991 1.414 . S
C2990 C2993 1.499 . S
C2991 H2965 0.950 . S
C2991 C2990 1.414 . S
C2991 C2992 1.374 . S
C2992 H2966 0.950 . S
C2992 C2988 1.385 . S
C2992 C2991 1.374 . S
C2993 C2990 1.499 . S
C2993 C2994 1.373 . S
C2993 C2995 1.389 . S
C2994 H2967 0.950 . S
C2994 C2980 1.377 . S
C2994 C2993 1.373 . S
C2995 C2979 1.377 . S
C2995 C2993 1.389 . S
C2995 C2996 1.524 . S
C2996 C2995 1.524 . S
C2996 C2997 1.397 . S
C2996 C3001 1.363 . S
C2997 H2968 0.950 . S
C2997 C2996 1.397 . S
C2997 C2998 1.334 . S
C2998 H2969 0.950 . S
C2998 C2997 1.334 . S
C2998 C2999 1.287 . S
C2999 C2998 1.287 . S
C2999 C3000 1.524 . S
C2999 H3002 0.999 . S
C3000 H2970 0.950 . S
C3000 C2999 1.524 . S
C3000 C3001 1.415 . S
C3001 H2971 0.950 . S
C3001 C2996 1.363 . S
C3001 C3000 1.415 . S
H3002 C2999 0.999 . S
H3003 C2984 0.913 . S
H3004 C3022 0.951 . S
H3005 C3024 0.951 . S
H3006 C3026 0.950 . S
H3007 C3027 0.950 . S
H3008 C3029 0.950 . S
H3009 C3032 0.950 . S
H3010 C3033 0.950 . S
H3011 C3035 0.950 . S
H3012 C3036 0.950 . S
H3013 C3037 0.951 . S
H3014 C3039 0.951 . S
H3015 C3041 0.950 . S
H3016 C3042 0.950 . S
H3017 C3044 0.950 . S
H3018 C3047 0.950 . S
H3019 C3048 0.950 . S
H3020 C3050 0.950 . S
H3021 C3051 0.950 . S
C3022 H3004 0.951 . S
C3022 C3023 1.366 . S
C3022 C3024 1.388 . S
C3023 C3022 1.366 . S
C3023 C3027 1.385 . S
C3024 H3005 0.951 . S
C3024 C3022 1.388 . S
C3024 C3025 1.366 . S
C3025 C3024 1.366 . S
C3025 C3026 1.414 . S
C3025 C3028 1.499 . S
C3026 H3006 0.950 . S
C3026 C3025 1.414 . S
C3026 C3027 1.374 . S
C3027 H3007 0.950 . S
C3027 C3023 1.385 . S
C3027 C3026 1.374 . S
C3028 C3025 1.499 . S
C3028 C3029 1.373 . S
C3028 C3030 1.389 . S
C3029 H3008 0.950 . S
C3029 C3028 1.373 . S
C3029 C3045 1.377 . S
C3030 C3028 1.389 . S
C3030 C3031 1.524 . S
C3030 C3044 1.377 . S
C3031 C3030 1.524 . S
C3031 C3032 1.397 . S
C3031 C3036 1.363 . S
C3032 H3009 0.950 . S
C3032 C3031 1.397 . S
C3032 C3033 1.334 . S
C3033 H3010 0.950 . S
C3033 C3032 1.334 . S
C3033 C3034 1.287 . S
C3034 C3033 1.287 . S
C3034 C3035 1.524 . S
C3034 H3053 0.913 . S
C3035 H3011 0.950 . S
C3035 C3034 1.524 . S
C3035 C3036 1.415 . S
C3036 H3012 0.950 . S
C3036 C3031 1.363 . S
C3036 C3035 1.415 . S
C3037 H3013 0.951 . S
C3037 C3038 1.366 . S
C3037 C3039 1.388 . S
C3038 C3037 1.366 . S
C3038 C3042 1.385 . S
C3039 H3014 0.951 . S
C3039 C3037 1.388 . S
C3039 C3040 1.366 . S
C3040 C3039 1.366 . S
C3040 C3041 1.414 . S
C3040 C3043 1.499 . S
C3041 H3015 0.950 . S
C3041 C3040 1.414 . S
C3041 C3042 1.374 . S
C3042 H3016 0.950 . S
C3042 C3038 1.385 . S
C3042 C3041 1.374 . S
C3043 C3040 1.499 . S
C3043 C3044 1.373 . S
C3043 C3045 1.389 . S
C3044 H3017 0.950 . S
C3044 C3030 1.377 . S
C3044 C3043 1.373 . S
C3045 C3029 1.377 . S
C3045 C3043 1.389 . S
C3045 C3046 1.524 . S
C3046 C3045 1.524 . S
C3046 C3047 1.397 . S
C3046 C3051 1.363 . S
C3047 H3018 0.950 . S
C3047 C3046 1.397 . S
C3047 C3048 1.334 . S
C3048 H3019 0.950 . S
C3048 C3047 1.334 . S
C3048 C3049 1.287 . S
C3049 C3048 1.287 . S
C3049 C3050 1.524 . S
C3049 H3052 0.999 . S
C3050 H3020 0.950 . S
C3050 C3049 1.524 . S
C3050 C3051 1.415 . S
C3051 H3021 0.950 . S
C3051 C3046 1.363 . S
C3051 C3050 1.415 . S
H3052 C3049 0.999 . S
H3053 C3034 0.913 . S
H3054 C3072 0.951 . S
H3055 C3074 0.951 . S
H3056 C3076 0.950 . S
H3057 C3077 0.950 . S
H3058 C3079 0.950 . S
H3059 C3082 0.950 . S
H3060 C3083 0.950 . S
H3061 C3085 0.950 . S
H3062 C3086 0.950 . S
H3063 C3087 0.951 . S
H3064 C3089 0.951 . S
H3065 C3091 0.950 . S
H3066 C3092 0.950 . S
H3067 C3094 0.950 . S
H3068 C3097 0.950 . S
H3069 C3098 0.950 . S
H3070 C3100 0.950 . S
H3071 C3101 0.950 . S
C3072 H3054 0.951 . S
C3072 C3073 1.366 . S
C3072 C3074 1.388 . S
C3073 C3072 1.366 . S
C3073 C3077 1.385 . S
C3074 H3055 0.951 . S
C3074 C3072 1.388 . S
C3074 C3075 1.366 . S
C3075 C3074 1.366 . S
C3075 C3076 1.414 . S
C3075 C3078 1.499 . S
C3076 H3056 0.950 . S
C3076 C3075 1.414 . S
C3076 C3077 1.374 . S
C3077 H3057 0.950 . S
C3077 C3073 1.385 . S
C3077 C3076 1.374 . S
C3078 C3075 1.499 . S
C3078 C3079 1.373 . S
C3078 C3080 1.389 . S
C3079 H3058 0.950 . S
C3079 C3078 1.373 . S
C3079 C3095 1.377 . S
C3080 C3078 1.389 . S
C3080 C3081 1.524 . S
C3080 C3094 1.377 . S
C3081 C3080 1.524 . S
C3081 C3082 1.397 . S
C3081 C3086 1.363 . S
C3082 H3059 0.950 . S
C3082 C3081 1.397 . S
C3082 C3083 1.334 . S
C3083 H3060 0.950 . S
C3083 C3082 1.334 . S
C3083 C3084 1.287 . S
C3084 C3083 1.287 . S
C3084 C3085 1.524 . S
C3084 H3103 0.913 . S
C3085 H3061 0.950 . S
C3085 C3084 1.524 . S
C3085 C3086 1.415 . S
C3086 H3062 0.950 . S
C3086 C3081 1.363 . S
C3086 C3085 1.415 . S
C3087 H3063 0.951 . S
C3087 C3088 1.366 . S
C3087 C3089 1.388 . S
C3088 C3087 1.366 . S
C3088 C3092 1.385 . S
C3089 H3064 0.951 . S
C3089 C3087 1.388 . S
C3089 C3090 1.366 . S
C3090 C3089 1.366 . S
C3090 C3091 1.414 . S
C3090 C3093 1.499 . S
C3091 H3065 0.950 . S
C3091 C3090 1.414 . S
C3091 C3092 1.374 . S
C3092 H3066 0.950 . S
C3092 C3088 1.385 . S
C3092 C3091 1.374 . S
C3093 C3090 1.499 . S
C3093 C3094 1.373 . S
C3093 C3095 1.389 . S
C3094 H3067 0.950 . S
C3094 C3080 1.377 . S
C3094 C3093 1.373 . S
C3095 C3079 1.377 . S
C3095 C3093 1.389 . S
C3095 C3096 1.524 . S
C3096 C3095 1.524 . S
C3096 C3097 1.397 . S
C3096 C3101 1.363 . S
C3097 H3068 0.950 . S
C3097 C3096 1.397 . S
C3097 C3098 1.334 . S
C3098 H3069 0.950 . S
C3098 C3097 1.334 . S
C3098 C3099 1.287 . S
C3099 C3098 1.287 . S
C3099 C3100 1.524 . S
C3099 H3102 0.999 . S
C3100 H3070 0.950 . S
C3100 C3099 1.524 . S
C3100 C3101 1.415 . S
C3101 H3071 0.950 . S
C3101 C3096 1.363 . S
C3101 C3100 1.415 . S
H3102 C3099 0.999 . S
H3103 C3084 0.913 . S
H3104 C3122 0.951 . S
H3105 C3124 0.951 . S
H3106 C3126 0.950 . S
H3107 C3127 0.950 . S
H3108 C3129 0.950 . S
H3109 C3132 0.950 . S
H3110 C3133 0.950 . S
H3111 C3135 0.950 . S
H3112 C3136 0.950 . S
H3113 C3137 0.951 . S
H3114 C3139 0.951 . S
H3115 C3141 0.950 . S
H3116 C3142 0.950 . S
H3117 C3144 0.950 . S
H3118 C3147 0.950 . S
H3119 C3148 0.950 . S
H3120 C3150 0.950 . S
H3121 C3151 0.950 . S
C3122 H3104 0.951 . S
C3122 C3123 1.366 . S
C3122 C3124 1.388 . S
C3123 C3122 1.366 . S
C3123 C3127 1.385 . S
C3124 H3105 0.951 . S
C3124 C3122 1.388 . S
C3124 C3125 1.366 . S
C3125 C3124 1.366 . S
C3125 C3126 1.414 . S
C3125 C3128 1.499 . S
C3126 H3106 0.950 . S
C3126 C3125 1.414 . S
C3126 C3127 1.374 . S
C3127 H3107 0.950 . S
C3127 C3123 1.385 . S
C3127 C3126 1.374 . S
C3128 C3125 1.499 . S
C3128 C3129 1.373 . S
C3128 C3130 1.389 . S
C3129 H3108 0.950 . S
C3129 C3128 1.373 . S
C3129 C3145 1.377 . S
C3130 C3128 1.389 . S
C3130 C3131 1.524 . S
C3130 C3144 1.377 . S
C3131 C3130 1.524 . S
C3131 C3132 1.397 . S
C3131 C3136 1.363 . S
C3132 H3109 0.950 . S
C3132 C3131 1.397 . S
C3132 C3133 1.334 . S
C3133 H3110 0.950 . S
C3133 C3132 1.334 . S
C3133 C3134 1.287 . S
C3134 C3133 1.287 . S
C3134 C3135 1.524 . S
C3134 H3153 0.913 . S
C3135 H3111 0.950 . S
C3135 C3134 1.524 . S
C3135 C3136 1.415 . S
C3136 H3112 0.950 . S
C3136 C3131 1.363 . S
C3136 C3135 1.415 . S
C3137 H3113 0.951 . S
C3137 C3138 1.366 . S
C3137 C3139 1.388 . S
C3138 C3137 1.366 . S
C3138 C3142 1.385 . S
C3139 H3114 0.951 . S
C3139 C3137 1.388 . S
C3139 C3140 1.366 . S
C3140 C3139 1.366 . S
C3140 C3141 1.414 . S
C3140 C3143 1.499 . S
C3141 H3115 0.950 . S
C3141 C3140 1.414 . S
C3141 C3142 1.374 . S
C3142 H3116 0.950 . S
C3142 C3138 1.385 . S
C3142 C3141 1.374 . S
C3143 C3140 1.499 . S
C3143 C3144 1.373 . S
C3143 C3145 1.389 . S
C3144 H3117 0.950 . S
C3144 C3130 1.377 . S
C3144 C3143 1.373 . S
C3145 C3129 1.377 . S
C3145 C3143 1.389 . S
C3145 C3146 1.524 . S
C3146 C3145 1.524 . S
C3146 C3147 1.397 . S
C3146 C3151 1.363 . S
C3147 H3118 0.950 . S
C3147 C3146 1.397 . S
C3147 C3148 1.334 . S
C3148 H3119 0.950 . S
C3148 C3147 1.334 . S
C3148 C3149 1.287 . S
C3149 C3148 1.287 . S
C3149 C3150 1.524 . S
C3149 H3152 0.999 . S
C3150 H3120 0.950 . S
C3150 C3149 1.524 . S
C3150 C3151 1.415 . S
C3151 H3121 0.950 . S
C3151 C3146 1.363 . S
C3151 C3150 1.415 . S
H3152 C3149 0.999 . S
H3153 C3134 0.913 . S
H3154 C3172 0.951 . S
H3155 C3174 0.951 . S
H3156 C3176 0.950 . S
H3157 C3177 0.950 . S
H3158 C3179 0.950 . S
H3159 C3182 0.950 . S
H3160 C3183 0.950 . S
H3161 C3185 0.950 . S
H3162 C3186 0.950 . S
H3163 C3187 0.951 . S
H3164 C3189 0.951 . S
H3165 C3191 0.950 . S
H3166 C3192 0.950 . S
H3167 C3194 0.950 . S
H3168 C3197 0.950 . S
H3169 C3198 0.950 . S
H3170 C3200 0.950 . S
H3171 C3201 0.950 . S
C3172 H3154 0.951 . S
C3172 C3173 1.366 . S
C3172 C3174 1.388 . S
C3173 C3172 1.366 . S
C3173 C3177 1.385 . S
C3174 H3155 0.951 . S
C3174 C3172 1.388 . S
C3174 C3175 1.366 . S
C3175 C3174 1.366 . S
C3175 C3176 1.414 . S
C3175 C3178 1.499 . S
C3176 H3156 0.950 . S
C3176 C3175 1.414 . S
C3176 C3177 1.374 . S
C3177 H3157 0.950 . S
C3177 C3173 1.385 . S
C3177 C3176 1.374 . S
C3178 C3175 1.499 . S
C3178 C3179 1.373 . S
C3178 C3180 1.389 . S
C3179 H3158 0.950 . S
C3179 C3178 1.373 . S
C3179 C3195 1.377 . S
C3180 C3178 1.389 . S
C3180 C3181 1.524 . S
C3180 C3194 1.377 . S
C3181 C3180 1.524 . S
C3181 C3182 1.397 . S
C3181 C3186 1.363 . S
C3182 H3159 0.950 . S
C3182 C3181 1.397 . S
C3182 C3183 1.334 . S
C3183 H3160 0.950 . S
C3183 C3182 1.334 . S
C3183 C3184 1.287 . S
C3184 C3183 1.287 . S
C3184 C3185 1.524 . S
C3184 H3203 0.913 . S
C3185 H3161 0.950 . S
C3185 C3184 1.524 . S
C3185 C3186 1.415 . S
C3186 H3162 0.950 . S
C3186 C3181 1.363 . S
C3186 C3185 1.415 . S
C3187 H3163 0.951 . S
C3187 C3188 1.366 . S
C3187 C3189 1.388 . S
C3188 C3187 1.366 . S
C3188 C3192 1.385 . S
C3189 H3164 0.951 . S
C3189 C3187 1.388 . S
C3189 C3190 1.366 . S
C3190 C3189 1.366 . S
C3190 C3191 1.414 . S
C3190 C3193 1.499 . S
C3191 H3165 0.950 . S
C3191 C3190 1.414 . S
C3191 C3192 1.374 . S
C3192 H3166 0.950 . S
C3192 C3188 1.385 . S
C3192 C3191 1.374 . S
C3193 C3190 1.499 . S
C3193 C3194 1.373 . S
C3193 C3195 1.389 . S
C3194 H3167 0.950 . S
C3194 C3180 1.377 . S
C3194 C3193 1.373 . S
C3195 C3179 1.377 . S
C3195 C3193 1.389 . S
C3195 C3196 1.524 . S
C3196 C3195 1.524 . S
C3196 C3197 1.397 . S
C3196 C3201 1.363 . S
C3197 H3168 0.950 . S
C3197 C3196 1.397 . S
C3197 C3198 1.334 . S
C3198 H3169 0.950 . S
C3198 C3197 1.334 . S
C3198 C3199 1.287 . S
C3199 C3198 1.287 . S
C3199 C3200 1.524 . S
C3199 H3202 0.999 . S
C3200 H3170 0.950 . S
C3200 C3199 1.524 . S
C3200 C3201 1.415 . S
C3201 H3171 0.950 . S
C3201 C3196 1.363 . S
C3201 C3200 1.415 . S
H3202 C3199 0.999 . S
H3203 C3184 0.913 . S
H3204 C3222 0.951 . S
H3205 C3224 0.951 . S
H3206 C3226 0.950 . S
H3207 C3227 0.950 . S
H3208 C3229 0.950 . S
H3209 C3232 0.950 . S
H3210 C3233 0.950 . S
H3211 C3235 0.950 . S
H3212 C3236 0.950 . S
H3213 C3237 0.951 . S
H3214 C3239 0.951 . S
H3215 C3241 0.950 . S
H3216 C3242 0.950 . S
H3217 C3244 0.950 . S
H3218 C3247 0.950 . S
H3219 C3248 0.950 . S
H3220 C3250 0.950 . S
H3221 C3251 0.950 . S
C3222 H3204 0.951 . S
C3222 C3223 1.366 . S
C3222 C3224 1.388 . S
C3223 C3222 1.366 . S
C3223 C3227 1.385 . S
C3224 H3205 0.951 . S
C3224 C3222 1.388 . S
C3224 C3225 1.366 . S
C3225 C3224 1.366 . S
C3225 C3226 1.414 . S
C3225 C3228 1.499 . S
C3226 H3206 0.950 . S
C3226 C3225 1.414 . S
C3226 C3227 1.374 . S
C3227 H3207 0.950 . S
C3227 C3223 1.385 . S
C3227 C3226 1.374 . S
C3228 C3225 1.499 . S
C3228 C3229 1.373 . S
C3228 C3230 1.389 . S
C3229 H3208 0.950 . S
C3229 C3228 1.373 . S
C3229 C3245 1.377 . S
C3230 C3228 1.389 . S
C3230 C3231 1.524 . S
C3230 C3244 1.377 . S
C3231 C3230 1.524 . S
C3231 C3232 1.397 . S
C3231 C3236 1.363 . S
C3232 H3209 0.950 . S
C3232 C3231 1.397 . S
C3232 C3233 1.334 . S
C3233 H3210 0.950 . S
C3233 C3232 1.334 . S
C3233 C3234 1.287 . S
C3234 C3233 1.287 . S
C3234 C3235 1.524 . S
C3234 H3253 0.913 . S
C3235 H3211 0.950 . S
C3235 C3234 1.524 . S
C3235 C3236 1.415 . S
C3236 H3212 0.950 . S
C3236 C3231 1.363 . S
C3236 C3235 1.415 . S
C3237 H3213 0.951 . S
C3237 C3238 1.366 . S
C3237 C3239 1.388 . S
C3238 C3237 1.366 . S
C3238 C3242 1.385 . S
C3239 H3214 0.951 . S
C3239 C3237 1.388 . S
C3239 C3240 1.366 . S
C3240 C3239 1.366 . S
C3240 C3241 1.414 . S
C3240 C3243 1.499 . S
C3241 H3215 0.950 . S
C3241 C3240 1.414 . S
C3241 C3242 1.374 . S
C3242 H3216 0.950 . S
C3242 C3238 1.385 . S
C3242 C3241 1.374 . S
C3243 C3240 1.499 . S
C3243 C3244 1.373 . S
C3243 C3245 1.389 . S
C3244 H3217 0.950 . S
C3244 C3230 1.377 . S
C3244 C3243 1.373 . S
C3245 C3229 1.377 . S
C3245 C3243 1.389 . S
C3245 C3246 1.524 . S
C3246 C3245 1.524 . S
C3246 C3247 1.397 . S
C3246 C3251 1.363 . S
C3247 H3218 0.950 . S
C3247 C3246 1.397 . S
C3247 C3248 1.334 . S
C3248 H3219 0.950 . S
C3248 C3247 1.334 . S
C3248 C3249 1.287 . S
C3249 C3248 1.287 . S
C3249 C3250 1.524 . S
C3249 H3252 0.999 . S
C3250 H3220 0.950 . S
C3250 C3249 1.524 . S
C3250 C3251 1.415 . S
C3251 H3221 0.950 . S
C3251 C3246 1.363 . S
C3251 C3250 1.415 . S
H3252 C3249 0.999 . S
H3253 C3234 0.913 . S
H3254 C3272 0.951 . S
H3255 C3274 0.951 . S
H3256 C3276 0.950 . S
H3257 C3277 0.950 . S
H3258 C3279 0.950 . S
H3259 C3282 0.950 . S
H3260 C3283 0.950 . S
H3261 C3285 0.950 . S
H3262 C3286 0.950 . S
H3263 C3287 0.951 . S
H3264 C3289 0.951 . S
H3265 C3291 0.950 . S
H3266 C3292 0.950 . S
H3267 C3294 0.950 . S
H3268 C3297 0.950 . S
H3269 C3298 0.950 . S
H3270 C3300 0.950 . S
H3271 C3301 0.950 . S
C3272 H3254 0.951 . S
C3272 C3273 1.366 . S
C3272 C3274 1.388 . S
C3273 C3272 1.366 . S
C3273 C3277 1.385 . S
C3274 H3255 0.951 . S
C3274 C3272 1.388 . S
C3274 C3275 1.366 . S
C3275 C3274 1.366 . S
C3275 C3276 1.414 . S
C3275 C3278 1.499 . S
C3276 H3256 0.950 . S
C3276 C3275 1.414 . S
C3276 C3277 1.374 . S
C3277 H3257 0.950 . S
C3277 C3273 1.385 . S
C3277 C3276 1.374 . S
C3278 C3275 1.499 . S
C3278 C3279 1.373 . S
C3278 C3280 1.389 . S
C3279 H3258 0.950 . S
C3279 C3278 1.373 . S
C3279 C3295 1.377 . S
C3280 C3278 1.389 . S
C3280 C3281 1.524 . S
C3280 C3294 1.377 . S
C3281 C3280 1.524 . S
C3281 C3282 1.397 . S
C3281 C3286 1.363 . S
C3282 H3259 0.950 . S
C3282 C3281 1.397 . S
C3282 C3283 1.334 . S
C3283 H3260 0.950 . S
C3283 C3282 1.334 . S
C3283 C3284 1.287 . S
C3284 C3283 1.287 . S
C3284 C3285 1.524 . S
C3284 H3303 0.913 . S
C3285 H3261 0.950 . S
C3285 C3284 1.524 . S
C3285 C3286 1.415 . S
C3286 H3262 0.950 . S
C3286 C3281 1.363 . S
C3286 C3285 1.415 . S
C3287 H3263 0.951 . S
C3287 C3288 1.366 . S
C3287 C3289 1.388 . S
C3288 C3287 1.366 . S
C3288 C3292 1.385 . S
C3289 H3264 0.951 . S
C3289 C3287 1.388 . S
C3289 C3290 1.366 . S
C3290 C3289 1.366 . S
C3290 C3291 1.414 . S
C3290 C3293 1.499 . S
C3291 H3265 0.950 . S
C3291 C3290 1.414 . S
C3291 C3292 1.374 . S
C3292 H3266 0.950 . S
C3292 C3288 1.385 . S
C3292 C3291 1.374 . S
C3293 C3290 1.499 . S
C3293 C3294 1.373 . S
C3293 C3295 1.389 . S
C3294 H3267 0.950 . S
C3294 C3280 1.377 . S
C3294 C3293 1.373 . S
C3295 C3279 1.377 . S
C3295 C3293 1.389 . S
C3295 C3296 1.524 . S
C3296 C3295 1.524 . S
C3296 C3297 1.397 . S
C3296 C3301 1.363 . S
C3297 H3268 0.950 . S
C3297 C3296 1.397 . S
C3297 C3298 1.334 . S
C3298 H3269 0.950 . S
C3298 C3297 1.334 . S
C3298 C3299 1.287 . S
C3299 C3298 1.287 . S
C3299 C3300 1.524 . S
C3299 H3302 0.999 . S
C3300 H3270 0.950 . S
C3300 C3299 1.524 . S
C3300 C3301 1.415 . S
C3301 H3271 0.950 . S
C3301 C3296 1.363 . S
C3301 C3300 1.415 . S
H3302 C3299 0.999 . S
H3303 C3284 0.913 . S
H3304 C3322 0.951 . S
H3305 C3324 0.951 . S
H3306 C3326 0.950 . S
H3307 C3327 0.950 . S
H3308 C3329 0.950 . S
H3309 C3332 0.950 . S
H3310 C3333 0.950 . S
H3311 C3335 0.950 . S
H3312 C3336 0.950 . S
H3313 C3337 0.951 . S
H3314 C3339 0.951 . S
H3315 C3341 0.950 . S
H3316 C3342 0.950 . S
H3317 C3344 0.950 . S
H3318 C3347 0.950 . S
H3319 C3348 0.950 . S
H3320 C3350 0.950 . S
H3321 C3351 0.950 . S
C3322 H3304 0.951 . S
C3322 C3323 1.366 . S
C3322 C3324 1.388 . S
C3323 C3322 1.366 . S
C3323 C3327 1.385 . S
C3324 H3305 0.951 . S
C3324 C3322 1.388 . S
C3324 C3325 1.366 . S
C3325 C3324 1.366 . S
C3325 C3326 1.414 . S
C3325 C3328 1.499 . S
C3326 H3306 0.950 . S
C3326 C3325 1.414 . S
C3326 C3327 1.374 . S
C3327 H3307 0.950 . S
C3327 C3323 1.385 . S
C3327 C3326 1.374 . S
C3328 C3325 1.499 . S
C3328 C3329 1.373 . S
C3328 C3330 1.389 . S
C3329 H3308 0.950 . S
C3329 C3328 1.373 . S
C3329 C3345 1.377 . S
C3330 C3328 1.389 . S
C3330 C3331 1.524 . S
C3330 C3344 1.377 . S
C3331 C3330 1.524 . S
C3331 C3332 1.397 . S
C3331 C3336 1.363 . S
C3332 H3309 0.950 . S
C3332 C3331 1.397 . S
C3332 C3333 1.334 . S
C3333 H3310 0.950 . S
C3333 C3332 1.334 . S
C3333 C3334 1.287 . S
C3334 C3333 1.287 . S
C3334 C3335 1.524 . S
C3334 H3353 0.913 . S
C3335 H3311 0.950 . S
C3335 C3334 1.524 . S
C3335 C3336 1.415 . S
C3336 H3312 0.950 . S
C3336 C3331 1.363 . S
C3336 C3335 1.415 . S
C3337 H3313 0.951 . S
C3337 C3338 1.366 . S
C3337 C3339 1.388 . S
C3338 C3337 1.366 . S
C3338 C3342 1.385 . S
C3339 H3314 0.951 . S
C3339 C3337 1.388 . S
C3339 C3340 1.366 . S
C3340 C3339 1.366 . S
C3340 C3341 1.414 . S
C3340 C3343 1.499 . S
C3341 H3315 0.950 . S
C3341 C3340 1.414 . S
C3341 C3342 1.374 . S
C3342 H3316 0.950 . S
C3342 C3338 1.385 . S
C3342 C3341 1.374 . S
C3343 C3340 1.499 . S
C3343 C3344 1.373 . S
C3343 C3345 1.389 . S
C3344 H3317 0.950 . S
C3344 C3330 1.377 . S
C3344 C3343 1.373 . S
C3345 C3329 1.377 . S
C3345 C3343 1.389 . S
C3345 C3346 1.524 . S
C3346 C3345 1.524 . S
C3346 C3347 1.397 . S
C3346 C3351 1.363 . S
C3347 H3318 0.950 . S
C3347 C3346 1.397 . S
C3347 C3348 1.334 . S
C3348 H3319 0.950 . S
C3348 C3347 1.334 . S
C3348 C3349 1.287 . S
C3349 C3348 1.287 . S
C3349 C3350 1.524 . S
C3349 H3352 0.999 . S
C3350 H3320 0.950 . S
C3350 C3349 1.524 . S
C3350 C3351 1.415 . S
C3351 H3321 0.950 . S
C3351 C3346 1.363 . S
C3351 C3350 1.415 . S
H3352 C3349 0.999 . S
H3353 C3334 0.913 . S
H3354 C3372 0.951 . S
H3355 C3374 0.951 . S
H3356 C3376 0.950 . S
H3357 C3377 0.950 . S
H3358 C3379 0.950 . S
H3359 C3382 0.950 . S
H3360 C3383 0.950 . S
H3361 C3385 0.950 . S
H3362 C3386 0.950 . S
H3363 C3387 0.951 . S
H3364 C3389 0.951 . S
H3365 C3391 0.950 . S
H3366 C3392 0.950 . S
H3367 C3394 0.950 . S
H3368 C3397 0.950 . S
H3369 C3398 0.950 . S
H3370 C3400 0.950 . S
H3371 C3401 0.950 . S
C3372 H3354 0.951 . S
C3372 C3373 1.366 . S
C3372 C3374 1.388 . S
C3373 C3372 1.366 . S
C3373 C3377 1.385 . S
C3374 H3355 0.951 . S
C3374 C3372 1.388 . S
C3374 C3375 1.366 . S
C3375 C3374 1.366 . S
C3375 C3376 1.414 . S
C3375 C3378 1.499 . S
C3376 H3356 0.950 . S
C3376 C3375 1.414 . S
C3376 C3377 1.374 . S
C3377 H3357 0.950 . S
C3377 C3373 1.385 . S
C3377 C3376 1.374 . S
C3378 C3375 1.499 . S
C3378 C3379 1.373 . S
C3378 C3380 1.389 . S
C3379 H3358 0.950 . S
C3379 C3378 1.373 . S
C3379 C3395 1.377 . S
C3380 C3378 1.389 . S
C3380 C3381 1.524 . S
C3380 C3394 1.377 . S
C3381 C3380 1.524 . S
C3381 C3382 1.397 . S
C3381 C3386 1.363 . S
C3382 H3359 0.950 . S
C3382 C3381 1.397 . S
C3382 C3383 1.334 . S
C3383 H3360 0.950 . S
C3383 C3382 1.334 . S
C3383 C3384 1.287 . S
C3384 C3383 1.287 . S
C3384 C3385 1.524 . S
C3384 H3403 0.913 . S
C3385 H3361 0.950 . S
C3385 C3384 1.524 . S
C3385 C3386 1.415 . S
C3386 H3362 0.950 . S
C3386 C3381 1.363 . S
C3386 C3385 1.415 . S
C3387 H3363 0.951 . S
C3387 C3388 1.366 . S
C3387 C3389 1.388 . S
C3388 C3387 1.366 . S
C3388 C3392 1.385 . S
C3389 H3364 0.951 . S
C3389 C3387 1.388 . S
C3389 C3390 1.366 . S
C3390 C3389 1.366 . S
C3390 C3391 1.414 . S
C3390 C3393 1.499 . S
C3391 H3365 0.950 . S
C3391 C3390 1.414 . S
C3391 C3392 1.374 . S
C3392 H3366 0.950 . S
C3392 C3388 1.385 . S
C3392 C3391 1.374 . S
C3393 C3390 1.499 . S
C3393 C3394 1.373 . S
C3393 C3395 1.389 . S
C3394 H3367 0.950 . S
C3394 C3380 1.377 . S
C3394 C3393 1.373 . S
C3395 C3379 1.377 . S
C3395 C3393 1.389 . S
C3395 C3396 1.524 . S
C3396 C3395 1.524 . S
C3396 C3397 1.397 . S
C3396 C3401 1.363 . S
C3397 H3368 0.950 . S
C3397 C3396 1.397 . S
C3397 C3398 1.334 . S
C3398 H3369 0.950 . S
C3398 C3397 1.334 . S
C3398 C3399 1.287 . S
C3399 C3398 1.287 . S
C3399 C3400 1.524 . S
C3399 H3402 0.999 . S
C3400 H3370 0.950 . S
C3400 C3399 1.524 . S
C3400 C3401 1.415 . S
C3401 H3371 0.950 . S
C3401 C3396 1.363 . S
C3401 C3400 1.415 . S
H3402 C3399 0.999 . S
H3403 C3384 0.913 . S
H3404 C3422 0.951 1_455 S
H3405 C3424 0.951 . S
H3406 C3426 0.950 . S
H3407 C3427 0.950 . S
H3408 C3429 0.950 . S
H3409 C3432 0.950 . S
H3410 C3433 0.950 . S
H3411 C3435 0.950 . S
H3412 C3436 0.950 . S
H3413 C3437 0.951 . S
H3414 C3439 0.951 . S
H3415 C3441 0.950 . S
H3416 C3442 0.950 . S
H3417 C3444 0.950 . S
H3418 C3447 0.950 . S
H3419 C3448 0.950 . S
H3420 C3450 0.950 . S
H3421 C3451 0.950 . S
C3422 H3404 0.951 1_655 S
C3422 C3423 1.366 . S
C3422 C3424 1.388 . S
C3423 C3422 1.366 . S
C3423 C3427 1.385 . S
C3424 H3405 0.951 . S
C3424 C3422 1.388 . S
C3424 C3425 1.366 . S
C3425 C3424 1.366 . S
C3425 C3426 1.414 . S
C3425 C3428 1.499 . S
C3426 H3406 0.950 . S
C3426 C3425 1.414 . S
C3426 C3427 1.374 . S
C3427 H3407 0.950 . S
C3427 C3423 1.385 . S
C3427 C3426 1.374 . S
C3428 C3425 1.499 . S
C3428 C3429 1.373 . S
C3428 C3430 1.389 . S
C3429 H3408 0.950 . S
C3429 C3428 1.373 . S
C3429 C3445 1.377 . S
C3430 C3428 1.389 . S
C3430 C3431 1.524 . S
C3430 C3444 1.377 . S
C3431 C3430 1.524 . S
C3431 C3432 1.397 . S
C3431 C3436 1.363 . S
C3432 H3409 0.950 . S
C3432 C3431 1.397 . S
C3432 C3433 1.334 . S
C3433 H3410 0.950 . S
C3433 C3432 1.334 . S
C3433 C3434 1.287 . S
C3434 C3433 1.287 . S
C3434 C3435 1.524 . S
C3434 H3453 0.913 . S
C3435 H3411 0.950 . S
C3435 C3434 1.524 . S
C3435 C3436 1.415 . S
C3436 H3412 0.950 . S
C3436 C3431 1.363 . S
C3436 C3435 1.415 . S
C3437 H3413 0.951 . S
C3437 C3438 1.366 . S
C3437 C3439 1.388 . S
C3438 C3437 1.366 . S
C3438 C3442 1.385 . S
C3439 H3414 0.951 . S
C3439 C3437 1.388 . S
C3439 C3440 1.366 . S
C3440 C3439 1.366 . S
C3440 C3441 1.414 . S
C3440 C3443 1.499 . S
C3441 H3415 0.950 . S
C3441 C3440 1.414 . S
C3441 C3442 1.374 . S
C3442 H3416 0.950 . S
C3442 C3438 1.385 . S
C3442 C3441 1.374 . S
C3443 C3440 1.499 . S
C3443 C3444 1.373 . S
C3443 C3445 1.389 . S
C3444 H3417 0.950 . S
C3444 C3430 1.377 . S
C3444 C3443 1.373 . S
C3445 C3429 1.377 . S
C3445 C3443 1.389 . S
C3445 C3446 1.524 . S
C3446 C3445 1.524 . S
C3446 C3447 1.397 . S
C3446 C3451 1.363 . S
C3447 H3418 0.950 . S
C3447 C3446 1.397 . S
C3447 C3448 1.334 . S
C3448 H3419 0.950 . S
C3448 C3447 1.334 . S
C3448 C3449 1.287 . S
C3449 C3448 1.287 . S
C3449 C3450 1.524 . S
C3449 H3452 0.999 . S
C3450 H3420 0.950 . S
C3450 C3449 1.524 . S
C3450 C3451 1.415 . S
C3451 H3421 0.950 . S
C3451 C3446 1.363 . S
C3451 C3450 1.415 . S
H3452 C3449 0.999 . S
H3453 C3434 0.913 . S
H3454 C3472 0.951 . S
H3455 C3474 0.951 . S
H3456 C3476 0.950 . S
H3457 C3477 0.950 . S
H3458 C3479 0.950 . S
H3459 C3482 0.950 . S
H3460 C3483 0.950 . S
H3461 C3485 0.950 . S
H3462 C3486 0.950 . S
H3463 C3487 0.951 . S
H3464 C3489 0.951 . S
H3465 C3491 0.950 . S
H3466 C3492 0.950 . S
H3467 C3494 0.950 . S
H3468 C3497 0.950 . S
H3469 C3498 0.950 . S
H3470 C3500 0.950 . S
H3471 C3501 0.950 . S
C3472 H3454 0.951 . S
C3472 C3473 1.366 . S
C3472 C3474 1.388 . S
C3473 C3472 1.366 . S
C3473 C3477 1.385 . S
C3474 H3455 0.951 . S
C3474 C3472 1.388 . S
C3474 C3475 1.366 . S
C3475 C3474 1.366 . S
C3475 C3476 1.414 . S
C3475 C3478 1.499 . S
C3476 H3456 0.950 . S
C3476 C3475 1.414 . S
C3476 C3477 1.374 . S
C3477 H3457 0.950 . S
C3477 C3473 1.385 . S
C3477 C3476 1.374 . S
C3478 C3475 1.499 . S
C3478 C3479 1.373 . S
C3478 C3480 1.389 . S
C3479 H3458 0.950 . S
C3479 C3478 1.373 . S
C3479 C3495 1.377 . S
C3480 C3478 1.389 . S
C3480 C3481 1.524 . S
C3480 C3494 1.377 . S
C3481 C3480 1.524 . S
C3481 C3482 1.397 . S
C3481 C3486 1.363 . S
C3482 H3459 0.950 . S
C3482 C3481 1.397 . S
C3482 C3483 1.334 . S
C3483 H3460 0.950 . S
C3483 C3482 1.334 . S
C3483 C3484 1.287 . S
C3484 C3483 1.287 . S
C3484 C3485 1.524 . S
C3484 H3503 0.913 . S
C3485 H3461 0.950 . S
C3485 C3484 1.524 . S
C3485 C3486 1.415 . S
C3486 H3462 0.950 . S
C3486 C3481 1.363 . S
C3486 C3485 1.415 . S
C3487 H3463 0.951 . S
C3487 C3488 1.366 . S
C3487 C3489 1.388 . S
C3488 C3487 1.366 . S
C3488 C3492 1.385 . S
C3489 H3464 0.951 . S
C3489 C3487 1.388 . S
C3489 C3490 1.366 . S
C3490 C3489 1.366 . S
C3490 C3491 1.414 . S
C3490 C3493 1.499 . S
C3491 H3465 0.950 . S
C3491 C3490 1.414 . S
C3491 C3492 1.374 . S
C3492 H3466 0.950 . S
C3492 C3488 1.385 . S
C3492 C3491 1.374 . S
C3493 C3490 1.499 . S
C3493 C3494 1.373 . S
C3493 C3495 1.389 . S
C3494 H3467 0.950 . S
C3494 C3480 1.377 . S
C3494 C3493 1.373 . S
C3495 C3479 1.377 . S
C3495 C3493 1.389 . S
C3495 C3496 1.524 . S
C3496 C3495 1.524 . S
C3496 C3497 1.397 . S
C3496 C3501 1.363 . S
C3497 H3468 0.950 . S
C3497 C3496 1.397 . S
C3497 C3498 1.334 . S
C3498 H3469 0.950 . S
C3498 C3497 1.334 . S
C3498 C3499 1.287 . S
C3499 C3498 1.287 . S
C3499 C3500 1.524 . S
C3499 H3502 0.999 . S
C3500 H3470 0.950 . S
C3500 C3499 1.524 . S
C3500 C3501 1.415 . S
C3501 H3471 0.950 . S
C3501 C3496 1.363 . S
C3501 C3500 1.415 . S
H3502 C3499 0.999 . S
H3503 C3484 0.913 . S
H3504 C3522 0.951 . S
H3505 C3524 0.951 . S
H3506 C3526 0.950 . S
H3507 C3527 0.950 . S
H3508 C3529 0.950 . S
H3509 C3532 0.950 . S
H3510 C3533 0.950 . S
H3511 C3535 0.950 . S
H3512 C3536 0.950 . S
H3513 C3537 0.951 . S
H3514 C3539 0.951 . S
H3515 C3541 0.950 . S
H3516 C3542 0.950 . S
H3517 C3544 0.950 . S
H3518 C3547 0.950 . S
H3519 C3548 0.950 . S
H3520 C3550 0.950 . S
H3521 C3551 0.950 . S
C3522 H3504 0.951 . S
C3522 C3523 1.366 . S
C3522 C3524 1.388 . S
C3523 C3522 1.366 . S
C3523 C3527 1.385 . S
C3524 H3505 0.951 . S
C3524 C3522 1.388 . S
C3524 C3525 1.366 . S
C3525 C3524 1.366 . S
C3525 C3526 1.414 . S
C3525 C3528 1.499 . S
C3526 H3506 0.950 . S
C3526 C3525 1.414 . S
C3526 C3527 1.374 . S
C3527 H3507 0.950 . S
C3527 C3523 1.385 . S
C3527 C3526 1.374 . S
C3528 C3525 1.499 . S
C3528 C3529 1.373 . S
C3528 C3530 1.389 . S
C3529 H3508 0.950 . S
C3529 C3528 1.373 . S
C3529 C3545 1.377 . S
C3530 C3528 1.389 . S
C3530 C3531 1.524 . S
C3530 C3544 1.377 . S
C3531 C3530 1.524 . S
C3531 C3532 1.397 . S
C3531 C3536 1.363 . S
C3532 H3509 0.950 . S
C3532 C3531 1.397 . S
C3532 C3533 1.334 . S
C3533 H3510 0.950 . S
C3533 C3532 1.334 . S
C3533 C3534 1.287 . S
C3534 C3533 1.287 . S
C3534 C3535 1.524 . S
C3534 H3553 0.913 . S
C3535 H3511 0.950 . S
C3535 C3534 1.524 . S
C3535 C3536 1.415 . S
C3536 H3512 0.950 . S
C3536 C3531 1.363 . S
C3536 C3535 1.415 . S
C3537 H3513 0.951 . S
C3537 C3538 1.366 . S
C3537 C3539 1.388 . S
C3538 C3537 1.366 . S
C3538 C3542 1.385 . S
C3539 H3514 0.951 . S
C3539 C3537 1.388 . S
C3539 C3540 1.366 . S
C3540 C3539 1.366 . S
C3540 C3541 1.414 . S
C3540 C3543 1.499 . S
C3541 H3515 0.950 . S
C3541 C3540 1.414 . S
C3541 C3542 1.374 . S
C3542 H3516 0.950 . S
C3542 C3538 1.385 . S
C3542 C3541 1.374 . S
C3543 C3540 1.499 . S
C3543 C3544 1.373 . S
C3543 C3545 1.389 . S
C3544 H3517 0.950 . S
C3544 C3530 1.377 . S
C3544 C3543 1.373 . S
C3545 C3529 1.377 . S
C3545 C3543 1.389 . S
C3545 C3546 1.524 . S
C3546 C3545 1.524 . S
C3546 C3547 1.397 . S
C3546 C3551 1.363 . S
C3547 H3518 0.950 . S
C3547 C3546 1.397 . S
C3547 C3548 1.334 . S
C3548 H3519 0.950 . S
C3548 C3547 1.334 . S
C3548 C3549 1.287 . S
C3549 C3548 1.287 . S
C3549 C3550 1.524 . S
C3549 H3552 0.999 . S
C3550 H3520 0.950 . S
C3550 C3549 1.524 . S
C3550 C3551 1.415 . S
C3551 H3521 0.950 . S
C3551 C3546 1.363 . S
C3551 C3550 1.415 . S
H3552 C3549 0.999 . S
H3553 C3534 0.913 . S
H3554 C3572 0.951 . S
H3555 C3574 0.951 . S
H3556 C3576 0.950 . S
H3557 C3577 0.950 . S
H3558 C3579 0.950 . S
H3559 C3582 0.950 . S
H3560 C3583 0.950 . S
H3561 C3585 0.950 . S
H3562 C3586 0.950 . S
H3563 C3587 0.951 . S
H3564 C3589 0.951 . S
H3565 C3591 0.950 . S
H3566 C3592 0.950 . S
H3567 C3594 0.950 . S
H3568 C3597 0.950 . S
H3569 C3598 0.950 . S
H3570 C3600 0.950 . S
H3571 C3601 0.950 . S
C3572 H3554 0.951 . S
C3572 C3573 1.366 . S
C3572 C3574 1.388 . S
C3573 C3572 1.366 . S
C3573 C3577 1.385 . S
C3574 H3555 0.951 . S
C3574 C3572 1.388 . S
C3574 C3575 1.366 . S
C3575 C3574 1.366 . S
C3575 C3576 1.414 . S
C3575 C3578 1.499 . S
C3576 H3556 0.950 . S
C3576 C3575 1.414 . S
C3576 C3577 1.374 . S
C3577 H3557 0.950 . S
C3577 C3573 1.385 . S
C3577 C3576 1.374 . S
C3578 C3575 1.499 . S
C3578 C3579 1.373 . S
C3578 C3580 1.389 . S
C3579 H3558 0.950 . S
C3579 C3578 1.373 . S
C3579 C3595 1.377 . S
C3580 C3578 1.389 . S
C3580 C3581 1.524 . S
C3580 C3594 1.377 . S
C3581 C3580 1.524 . S
C3581 C3582 1.397 . S
C3581 C3586 1.363 . S
C3582 H3559 0.950 . S
C3582 C3581 1.397 . S
C3582 C3583 1.334 . S
C3583 H3560 0.950 . S
C3583 C3582 1.334 . S
C3583 C3584 1.287 . S
C3584 C3583 1.287 . S
C3584 C3585 1.524 . S
C3584 H3603 0.913 . S
C3585 H3561 0.950 . S
C3585 C3584 1.524 . S
C3585 C3586 1.415 . S
C3586 H3562 0.950 . S
C3586 C3581 1.363 . S
C3586 C3585 1.415 . S
C3587 H3563 0.951 . S
C3587 C3588 1.366 . S
C3587 C3589 1.388 . S
C3588 C3587 1.366 . S
C3588 C3592 1.385 . S
C3589 H3564 0.951 . S
C3589 C3587 1.388 . S
C3589 C3590 1.366 . S
C3590 C3589 1.366 . S
C3590 C3591 1.414 . S
C3590 C3593 1.499 . S
C3591 H3565 0.950 . S
C3591 C3590 1.414 . S
C3591 C3592 1.374 . S
C3592 H3566 0.950 . S
C3592 C3588 1.385 . S
C3592 C3591 1.374 . S
C3593 C3590 1.499 . S
C3593 C3594 1.373 . S
C3593 C3595 1.389 . S
C3594 H3567 0.950 . S
C3594 C3580 1.377 . S
C3594 C3593 1.373 . S
C3595 C3579 1.377 . S
C3595 C3593 1.389 . S
C3595 C3596 1.524 . S
C3596 C3595 1.524 . S
C3596 C3597 1.397 . S
C3596 C3601 1.363 . S
C3597 H3568 0.950 . S
C3597 C3596 1.397 . S
C3597 C3598 1.334 . S
C3598 H3569 0.950 . S
C3598 C3597 1.334 . S
C3598 C3599 1.287 . S
C3599 C3598 1.287 . S
C3599 C3600 1.524 . S
C3599 H3602 0.999 . S
C3600 H3570 0.950 . S
C3600 C3599 1.524 . S
C3600 C3601 1.415 . S
C3601 H3571 0.950 . S
C3601 C3596 1.363 . S
C3601 C3600 1.415 . S
H3602 C3599 0.999 . S
H3603 C3584 0.913 . S
H3604 C3622 0.951 . S
H3605 C3624 0.951 . S
H3606 C3626 0.950 . S
H3607 C3627 0.950 . S
H3608 C3629 0.950 . S
H3609 C3632 0.950 . S
H3610 C3633 0.950 . S
H3611 C3635 0.950 . S
H3612 C3636 0.950 . S
H3613 C3637 0.951 . S
H3614 C3639 0.951 . S
H3615 C3641 0.950 . S
H3616 C3642 0.950 . S
H3617 C3644 0.950 . S
H3618 C3647 0.950 . S
H3619 C3648 0.950 . S
H3620 C3650 0.950 . S
H3621 C3651 0.950 . S
C3622 H3604 0.951 . S
C3622 C3623 1.366 . S
C3622 C3624 1.388 . S
C3623 C3622 1.366 . S
C3623 C3627 1.385 . S
C3624 H3605 0.951 . S
C3624 C3622 1.388 . S
C3624 C3625 1.366 . S
C3625 C3624 1.366 . S
C3625 C3626 1.414 . S
C3625 C3628 1.499 . S
C3626 H3606 0.950 . S
C3626 C3625 1.414 . S
C3626 C3627 1.374 . S
C3627 H3607 0.950 . S
C3627 C3623 1.385 . S
C3627 C3626 1.374 . S
C3628 C3625 1.499 . S
C3628 C3629 1.373 . S
C3628 C3630 1.389 . S
C3629 H3608 0.950 . S
C3629 C3628 1.373 . S
C3629 C3645 1.377 . S
C3630 C3628 1.389 . S
C3630 C3631 1.524 . S
C3630 C3644 1.377 . S
C3631 C3630 1.524 . S
C3631 C3632 1.397 . S
C3631 C3636 1.363 . S
C3632 H3609 0.950 . S
C3632 C3631 1.397 . S
C3632 C3633 1.334 . S
C3633 H3610 0.950 . S
C3633 C3632 1.334 . S
C3633 C3634 1.287 . S
C3634 C3633 1.287 . S
C3634 C3635 1.524 . S
C3634 H3653 0.913 . S
C3635 H3611 0.950 . S
C3635 C3634 1.524 . S
C3635 C3636 1.415 . S
C3636 H3612 0.950 . S
C3636 C3631 1.363 . S
C3636 C3635 1.415 . S
C3637 H3613 0.951 . S
C3637 C3638 1.366 . S
C3637 C3639 1.388 . S
C3638 C3637 1.366 . S
C3638 C3642 1.385 . S
C3639 H3614 0.951 . S
C3639 C3637 1.388 . S
C3639 C3640 1.366 . S
C3640 C3639 1.366 . S
C3640 C3641 1.414 . S
C3640 C3643 1.499 . S
C3641 H3615 0.950 . S
C3641 C3640 1.414 . S
C3641 C3642 1.374 . S
C3642 H3616 0.950 . S
C3642 C3638 1.385 . S
C3642 C3641 1.374 . S
C3643 C3640 1.499 . S
C3643 C3644 1.373 . S
C3643 C3645 1.389 . S
C3644 H3617 0.950 . S
C3644 C3630 1.377 . S
C3644 C3643 1.373 . S
C3645 C3629 1.377 . S
C3645 C3643 1.389 . S
C3645 C3646 1.524 . S
C3646 C3645 1.524 . S
C3646 C3647 1.397 . S
C3646 C3651 1.363 . S
C3647 H3618 0.950 . S
C3647 C3646 1.397 . S
C3647 C3648 1.334 . S
C3648 H3619 0.950 . S
C3648 C3647 1.334 . S
C3648 C3649 1.287 . S
C3649 C3648 1.287 . S
C3649 C3650 1.524 . S
C3649 H3652 0.999 . S
C3650 H3620 0.950 . S
C3650 C3649 1.524 . S
C3650 C3651 1.415 . S
C3651 H3621 0.950 . S
C3651 C3646 1.363 . S
C3651 C3650 1.415 . S
H3652 C3649 0.999 . S
H3653 C3634 0.913 . S
H3654 C3672 0.951 . S
H3655 C3674 0.951 . S
H3656 C3676 0.950 . S
H3657 C3677 0.950 . S
H3658 C3679 0.950 . S
H3659 C3682 0.950 . S
H3660 C3683 0.950 . S
H3661 C3685 0.950 . S
H3662 C3686 0.950 . S
H3663 C3687 0.951 . S
H3664 C3689 0.951 . S
H3665 C3691 0.950 . S
H3666 C3692 0.950 . S
H3667 C3694 0.950 . S
H3668 C3697 0.950 . S
H3669 C3698 0.950 . S
H3670 C3700 0.950 . S
H3671 C3701 0.950 . S
C3672 H3654 0.951 . S
C3672 C3673 1.366 . S
C3672 C3674 1.388 . S
C3673 C3672 1.366 . S
C3673 C3677 1.385 . S
C3674 H3655 0.951 . S
C3674 C3672 1.388 . S
C3674 C3675 1.366 . S
C3675 C3674 1.366 . S
C3675 C3676 1.414 . S
C3675 C3678 1.499 . S
C3676 H3656 0.950 . S
C3676 C3675 1.414 . S
C3676 C3677 1.374 . S
C3677 H3657 0.950 . S
C3677 C3673 1.385 . S
C3677 C3676 1.374 . S
C3678 C3675 1.499 . S
C3678 C3679 1.373 . S
C3678 C3680 1.389 . S
C3679 H3658 0.950 . S
C3679 C3678 1.373 . S
C3679 C3695 1.377 . S
C3680 C3678 1.389 . S
C3680 C3681 1.524 . S
C3680 C3694 1.377 . S
C3681 C3680 1.524 . S
C3681 C3682 1.397 . S
C3681 C3686 1.363 . S
C3682 H3659 0.950 . S
C3682 C3681 1.397 . S
C3682 C3683 1.334 . S
C3683 H3660 0.950 . S
C3683 C3682 1.334 . S
C3683 C3684 1.287 . S
C3684 C3683 1.287 . S
C3684 C3685 1.524 . S
C3684 H3703 0.913 1_565 S
C3685 H3661 0.950 . S
C3685 C3684 1.524 . S
C3685 C3686 1.415 . S
C3686 H3662 0.950 . S
C3686 C3681 1.363 . S
C3686 C3685 1.415 . S
C3687 H3663 0.951 . S
C3687 C3688 1.366 . S
C3687 C3689 1.388 . S
C3688 C3687 1.366 . S
C3688 C3692 1.385 . S
C3689 H3664 0.951 . S
C3689 C3687 1.388 . S
C3689 C3690 1.366 . S
C3690 C3689 1.366 . S
C3690 C3691 1.414 . S
C3690 C3693 1.499 . S
C3691 H3665 0.950 . S
C3691 C3690 1.414 . S
C3691 C3692 1.374 . S
C3692 H3666 0.950 . S
C3692 C3688 1.385 . S
C3692 C3691 1.374 . S
C3693 C3690 1.499 . S
C3693 C3694 1.373 . S
C3693 C3695 1.389 . S
C3694 H3667 0.950 . S
C3694 C3680 1.377 . S
C3694 C3693 1.373 . S
C3695 C3679 1.377 . S
C3695 C3693 1.389 . S
C3695 C3696 1.524 . S
C3696 C3695 1.524 . S
C3696 C3697 1.397 . S
C3696 C3701 1.363 . S
C3697 H3668 0.950 . S
C3697 C3696 1.397 . S
C3697 C3698 1.334 . S
C3698 H3669 0.950 . S
C3698 C3697 1.334 . S
C3698 C3699 1.287 . S
C3699 C3698 1.287 . S
C3699 C3700 1.524 . S
C3699 H3702 0.999 . S
C3700 H3670 0.950 . S
C3700 C3699 1.524 . S
C3700 C3701 1.415 . S
C3701 H3671 0.950 . S
C3701 C3696 1.363 . S
C3701 C3700 1.415 . S
H3702 C3699 0.999 . S
H3703 C3684 0.913 1_545 S
H3704 C3722 0.951 . S
H3705 C3724 0.951 . S
H3706 C3726 0.950 . S
H3707 C3727 0.950 . S
H3708 C3729 0.950 . S
H3709 C3732 0.950 . S
H3710 C3733 0.950 . S
H3711 C3735 0.950 . S
H3712 C3736 0.950 . S
H3713 C3737 0.951 . S
H3714 C3739 0.951 . S
H3715 C3741 0.950 . S
H3716 C3742 0.950 . S
H3717 C3744 0.950 . S
H3718 C3747 0.950 . S
H3719 C3748 0.950 . S
H3720 C3750 0.950 . S
H3721 C3751 0.950 . S
C3722 H3704 0.951 . S
C3722 C3723 1.366 . S
C3722 C3724 1.388 . S
C3723 C3722 1.366 . S
C3723 C3727 1.385 . S
C3724 H3705 0.951 . S
C3724 C3722 1.388 . S
C3724 C3725 1.366 . S
C3725 C3724 1.366 . S
C3725 C3726 1.414 . S
C3725 C3728 1.499 . S
C3726 H3706 0.950 . S
C3726 C3725 1.414 . S
C3726 C3727 1.374 . S
C3727 H3707 0.950 . S
C3727 C3723 1.385 . S
C3727 C3726 1.374 . S
C3728 C3725 1.499 . S
C3728 C3729 1.373 . S
C3728 C3730 1.389 . S
C3729 H3708 0.950 . S
C3729 C3728 1.373 . S
C3729 C3745 1.377 . S
C3730 C3728 1.389 . S
C3730 C3731 1.524 . S
C3730 C3744 1.377 . S
C3731 C3730 1.524 . S
C3731 C3732 1.397 . S
C3731 C3736 1.363 . S
C3732 H3709 0.950 . S
C3732 C3731 1.397 . S
C3732 C3733 1.334 . S
C3733 H3710 0.950 . S
C3733 C3732 1.334 . S
C3733 C3734 1.287 . S
C3734 C3733 1.287 . S
C3734 C3735 1.524 . S
C3734 H3753 0.913 . S
C3735 H3711 0.950 . S
C3735 C3734 1.524 . S
C3735 C3736 1.415 . S
C3736 H3712 0.950 . S
C3736 C3731 1.363 . S
C3736 C3735 1.415 . S
C3737 H3713 0.951 . S
C3737 C3738 1.366 . S
C3737 C3739 1.388 . S
C3738 C3737 1.366 . S
C3738 C3742 1.385 . S
C3739 H3714 0.951 . S
C3739 C3737 1.388 . S
C3739 C3740 1.366 . S
C3740 C3739 1.366 . S
C3740 C3741 1.414 . S
C3740 C3743 1.499 . S
C3741 H3715 0.950 . S
C3741 C3740 1.414 . S
C3741 C3742 1.374 . S
C3742 H3716 0.950 . S
C3742 C3738 1.385 . S
C3742 C3741 1.374 . S
C3743 C3740 1.499 . S
C3743 C3744 1.373 . S
C3743 C3745 1.389 . S
C3744 H3717 0.950 . S
C3744 C3730 1.377 . S
C3744 C3743 1.373 . S
C3745 C3729 1.377 . S
C3745 C3743 1.389 . S
C3745 C3746 1.524 . S
C3746 C3745 1.524 . S
C3746 C3747 1.397 . S
C3746 C3751 1.363 . S
C3747 H3718 0.950 . S
C3747 C3746 1.397 . S
C3747 C3748 1.334 . S
C3748 H3719 0.950 . S
C3748 C3747 1.334 . S
C3748 C3749 1.287 . S
C3749 C3748 1.287 . S
C3749 C3750 1.524 . S
C3749 H3752 0.999 . S
C3750 H3720 0.950 . S
C3750 C3749 1.524 . S
C3750 C3751 1.415 . S
C3751 H3721 0.950 . S
C3751 C3746 1.363 . S
C3751 C3750 1.415 . S
H3752 C3749 0.999 . S
H3753 C3734 0.913 . S
H3754 C3772 0.951 . S
H3755 C3774 0.951 . S
H3756 C3776 0.950 . S
H3757 C3777 0.950 . S
H3758 C3779 0.950 . S
H3759 C3782 0.950 . S
H3760 C3783 0.950 . S
H3761 C3785 0.950 . S
H3762 C3786 0.950 . S
H3763 C3787 0.951 . S
H3764 C3789 0.951 . S
H3765 C3791 0.950 . S
H3766 C3792 0.950 . S
H3767 C3794 0.950 . S
H3768 C3797 0.950 . S
H3769 C3798 0.950 . S
H3770 C3800 0.950 . S
H3771 C3801 0.950 . S
C3772 H3754 0.951 . S
C3772 C3773 1.366 . S
C3772 C3774 1.388 . S
C3773 C3772 1.366 . S
C3773 C3777 1.385 . S
C3774 H3755 0.951 . S
C3774 C3772 1.388 . S
C3774 C3775 1.366 . S
C3775 C3774 1.366 . S
C3775 C3776 1.414 . S
C3775 C3778 1.499 . S
C3776 H3756 0.950 . S
C3776 C3775 1.414 . S
C3776 C3777 1.374 . S
C3777 H3757 0.950 . S
C3777 C3773 1.385 . S
C3777 C3776 1.374 . S
C3778 C3775 1.499 . S
C3778 C3779 1.373 . S
C3778 C3780 1.389 . S
C3779 H3758 0.950 . S
C3779 C3778 1.373 . S
C3779 C3795 1.377 . S
C3780 C3778 1.389 . S
C3780 C3781 1.524 . S
C3780 C3794 1.377 . S
C3781 C3780 1.524 . S
C3781 C3782 1.397 . S
C3781 C3786 1.363 . S
C3782 H3759 0.950 . S
C3782 C3781 1.397 . S
C3782 C3783 1.334 . S
C3783 H3760 0.950 . S
C3783 C3782 1.334 . S
C3783 C3784 1.287 . S
C3784 C3783 1.287 . S
C3784 C3785 1.524 . S
C3784 H3803 0.913 . S
C3785 H3761 0.950 . S
C3785 C3784 1.524 . S
C3785 C3786 1.415 . S
C3786 H3762 0.950 . S
C3786 C3781 1.363 . S
C3786 C3785 1.415 . S
C3787 H3763 0.951 . S
C3787 C3788 1.366 . S
C3787 C3789 1.388 . S
C3788 C3787 1.366 . S
C3788 C3792 1.385 . S
C3789 H3764 0.951 . S
C3789 C3787 1.388 . S
C3789 C3790 1.366 . S
C3790 C3789 1.366 . S
C3790 C3791 1.414 . S
C3790 C3793 1.499 . S
C3791 H3765 0.950 . S
C3791 C3790 1.414 . S
C3791 C3792 1.374 . S
C3792 H3766 0.950 . S
C3792 C3788 1.385 . S
C3792 C3791 1.374 . S
C3793 C3790 1.499 . S
C3793 C3794 1.373 . S
C3793 C3795 1.389 . S
C3794 H3767 0.950 . S
C3794 C3780 1.377 . S
C3794 C3793 1.373 . S
C3795 C3779 1.377 . S
C3795 C3793 1.389 . S
C3795 C3796 1.524 . S
C3796 C3795 1.524 . S
C3796 C3797 1.397 . S
C3796 C3801 1.363 . S
C3797 H3768 0.950 . S
C3797 C3796 1.397 . S
C3797 C3798 1.334 . S
C3798 H3769 0.950 . S
C3798 C3797 1.334 . S
C3798 C3799 1.287 . S
C3799 C3798 1.287 . S
C3799 C3800 1.524 . S
C3799 H3802 0.999 . S
C3800 H3770 0.950 . S
C3800 C3799 1.524 . S
C3800 C3801 1.415 . S
C3801 H3771 0.950 . S
C3801 C3796 1.363 . S
C3801 C3800 1.415 . S
H3802 C3799 0.999 . S
H3803 C3784 0.913 . S
H3804 C3822 0.951 . S
H3805 C3824 0.951 . S
H3806 C3826 0.950 . S
H3807 C3827 0.950 . S
H3808 C3829 0.950 . S
H3809 C3832 0.950 . S
H3810 C3833 0.950 . S
H3811 C3835 0.950 . S
H3812 C3836 0.950 . S
H3813 C3837 0.951 . S
H3814 C3839 0.951 . S
H3815 C3841 0.950 . S
H3816 C3842 0.950 . S
H3817 C3844 0.950 . S
H3818 C3847 0.950 . S
H3819 C3848 0.950 . S
H3820 C3850 0.950 . S
H3821 C3851 0.950 . S
C3822 H3804 0.951 . S
C3822 C3823 1.366 . S
C3822 C3824 1.388 . S
C3823 C3822 1.366 . S
C3823 C3827 1.385 . S
C3824 H3805 0.951 . S
C3824 C3822 1.388 . S
C3824 C3825 1.366 . S
C3825 C3824 1.366 . S
C3825 C3826 1.414 . S
C3825 C3828 1.499 . S
C3826 H3806 0.950 . S
C3826 C3825 1.414 . S
C3826 C3827 1.374 . S
C3827 H3807 0.950 . S
C3827 C3823 1.385 . S
C3827 C3826 1.374 . S
C3828 C3825 1.499 . S
C3828 C3829 1.373 . S
C3828 C3830 1.389 . S
C3829 H3808 0.950 . S
C3829 C3828 1.373 . S
C3829 C3845 1.377 . S
C3830 C3828 1.389 . S
C3830 C3831 1.524 . S
C3830 C3844 1.377 . S
C3831 C3830 1.524 . S
C3831 C3832 1.397 . S
C3831 C3836 1.363 . S
C3832 H3809 0.950 . S
C3832 C3831 1.397 . S
C3832 C3833 1.334 . S
C3833 H3810 0.950 . S
C3833 C3832 1.334 . S
C3833 C3834 1.287 . S
C3834 C3833 1.287 . S
C3834 C3835 1.524 . S
C3834 H3853 0.913 . S
C3835 H3811 0.950 . S
C3835 C3834 1.524 . S
C3835 C3836 1.415 . S
C3836 H3812 0.950 . S
C3836 C3831 1.363 . S
C3836 C3835 1.415 . S
C3837 H3813 0.951 . S
C3837 C3838 1.366 . S
C3837 C3839 1.388 . S
C3838 C3837 1.366 . S
C3838 C3842 1.385 . S
C3839 H3814 0.951 . S
C3839 C3837 1.388 . S
C3839 C3840 1.366 . S
C3840 C3839 1.366 . S
C3840 C3841 1.414 . S
C3840 C3843 1.499 . S
C3841 H3815 0.950 . S
C3841 C3840 1.414 . S
C3841 C3842 1.374 . S
C3842 H3816 0.950 . S
C3842 C3838 1.385 . S
C3842 C3841 1.374 . S
C3843 C3840 1.499 . S
C3843 C3844 1.373 . S
C3843 C3845 1.389 . S
C3844 H3817 0.950 . S
C3844 C3830 1.377 . S
C3844 C3843 1.373 . S
C3845 C3829 1.377 . S
C3845 C3843 1.389 . S
C3845 C3846 1.524 . S
C3846 C3845 1.524 . S
C3846 C3847 1.397 . S
C3846 C3851 1.363 . S
C3847 H3818 0.950 . S
C3847 C3846 1.397 . S
C3847 C3848 1.334 . S
C3848 H3819 0.950 . S
C3848 C3847 1.334 . S
C3848 C3849 1.287 . S
C3849 C3848 1.287 . S
C3849 C3850 1.524 . S
C3849 H3852 0.999 . S
C3850 H3820 0.950 . S
C3850 C3849 1.524 . S
C3850 C3851 1.415 . S
C3851 H3821 0.950 . S
C3851 C3846 1.363 . S
C3851 C3850 1.415 . S
H3852 C3849 0.999 . S
H3853 C3834 0.913 . S
H3854 C3872 0.951 . S
H3855 C3874 0.951 . S
H3856 C3876 0.950 . S
H3857 C3877 0.950 . S
H3858 C3879 0.950 . S
H3859 C3882 0.950 . S
H3860 C3883 0.950 . S
H3861 C3885 0.950 . S
H3862 C3886 0.950 . S
H3863 C3887 0.951 . S
H3864 C3889 0.951 . S
H3865 C3891 0.950 . S
H3866 C3892 0.950 . S
H3867 C3894 0.950 . S
H3868 C3897 0.950 . S
H3869 C3898 0.950 . S
H3870 C3900 0.950 . S
H3871 C3901 0.950 . S
C3872 H3854 0.951 . S
C3872 C3873 1.366 . S
C3872 C3874 1.388 . S
C3873 C3872 1.366 . S
C3873 C3877 1.385 . S
C3874 H3855 0.951 . S
C3874 C3872 1.388 . S
C3874 C3875 1.366 . S
C3875 C3874 1.366 . S
C3875 C3876 1.414 . S
C3875 C3878 1.499 . S
C3876 H3856 0.950 . S
C3876 C3875 1.414 . S
C3876 C3877 1.374 . S
C3877 H3857 0.950 . S
C3877 C3873 1.385 . S
C3877 C3876 1.374 . S
C3878 C3875 1.499 . S
C3878 C3879 1.373 . S
C3878 C3880 1.389 . S
C3879 H3858 0.950 . S
C3879 C3878 1.373 . S
C3879 C3895 1.377 . S
C3880 C3878 1.389 . S
C3880 C3881 1.524 . S
C3880 C3894 1.377 . S
C3881 C3880 1.524 . S
C3881 C3882 1.397 . S
C3881 C3886 1.363 . S
C3882 H3859 0.950 . S
C3882 C3881 1.397 . S
C3882 C3883 1.334 . S
C3883 H3860 0.950 . S
C3883 C3882 1.334 . S
C3883 C3884 1.287 . S
C3884 C3883 1.287 . S
C3884 C3885 1.524 . S
C3884 H3903 0.913 . S
C3885 H3861 0.950 . S
C3885 C3884 1.524 . S
C3885 C3886 1.415 . S
C3886 H3862 0.950 . S
C3886 C3881 1.363 . S
C3886 C3885 1.415 . S
C3887 H3863 0.951 . S
C3887 C3888 1.366 . S
C3887 C3889 1.388 . S
C3888 C3887 1.366 . S
C3888 C3892 1.385 . S
C3889 H3864 0.951 . S
C3889 C3887 1.388 . S
C3889 C3890 1.366 . S
C3890 C3889 1.366 . S
C3890 C3891 1.414 . S
C3890 C3893 1.499 . S
C3891 H3865 0.950 . S
C3891 C3890 1.414 . S
C3891 C3892 1.374 . S
C3892 H3866 0.950 . S
C3892 C3888 1.385 . S
C3892 C3891 1.374 . S
C3893 C3890 1.499 . S
C3893 C3894 1.373 . S
C3893 C3895 1.389 . S
C3894 H3867 0.950 . S
C3894 C3880 1.377 . S
C3894 C3893 1.373 . S
C3895 C3879 1.377 . S
C3895 C3893 1.389 . S
C3895 C3896 1.524 . S
C3896 C3895 1.524 . S
C3896 C3897 1.397 . S
C3896 C3901 1.363 . S
C3897 H3868 0.950 . S
C3897 C3896 1.397 . S
C3897 C3898 1.334 . S
C3898 H3869 0.950 . S
C3898 C3897 1.334 . S
C3898 C3899 1.287 . S
C3899 C3898 1.287 . S
C3899 C3900 1.524 . S
C3899 H3902 0.999 . S
C3900 H3870 0.950 . S
C3900 C3899 1.524 . S
C3900 C3901 1.415 . S
C3901 H3871 0.950 . S
C3901 C3896 1.363 . S
C3901 C3900 1.415 . S
H3902 C3899 0.999 . S
H3903 C3884 0.913 . S
H3904 C3922 0.951 . S
H3905 C3924 0.951 . S
H3906 C3926 0.950 . S
H3907 C3927 0.950 . S
H3908 C3929 0.950 . S
H3909 C3932 0.950 . S
H3910 C3933 0.950 . S
H3911 C3935 0.950 . S
H3912 C3936 0.950 . S
H3913 C3937 0.951 . S
H3914 C3939 0.951 . S
H3915 C3941 0.950 . S
H3916 C3942 0.950 . S
H3917 C3944 0.950 . S
H3918 C3947 0.950 . S
H3919 C3948 0.950 . S
H3920 C3950 0.950 . S
H3921 C3951 0.950 . S
C3922 H3904 0.951 . S
C3922 C3923 1.366 . S
C3922 C3924 1.388 . S
C3923 C3922 1.366 . S
C3923 C3927 1.385 . S
C3924 H3905 0.951 . S
C3924 C3922 1.388 . S
C3924 C3925 1.366 . S
C3925 C3924 1.366 . S
C3925 C3926 1.414 . S
C3925 C3928 1.499 . S
C3926 H3906 0.950 . S
C3926 C3925 1.414 . S
C3926 C3927 1.374 . S
C3927 H3907 0.950 . S
C3927 C3923 1.385 . S
C3927 C3926 1.374 . S
C3928 C3925 1.499 . S
C3928 C3929 1.373 . S
C3928 C3930 1.389 . S
C3929 H3908 0.950 . S
C3929 C3928 1.373 . S
C3929 C3945 1.377 . S
C3930 C3928 1.389 . S
C3930 C3931 1.524 . S
C3930 C3944 1.377 . S
C3931 C3930 1.524 . S
C3931 C3932 1.397 . S
C3931 C3936 1.363 . S
C3932 H3909 0.950 . S
C3932 C3931 1.397 . S
C3932 C3933 1.334 . S
C3933 H3910 0.950 . S
C3933 C3932 1.334 . S
C3933 C3934 1.287 . S
C3934 C3933 1.287 . S
C3934 C3935 1.524 . S
C3934 H3953 0.913 . S
C3935 H3911 0.950 . S
C3935 C3934 1.524 . S
C3935 C3936 1.415 . S
C3936 H3912 0.950 . S
C3936 C3931 1.363 . S
C3936 C3935 1.415 . S
C3937 H3913 0.951 . S
C3937 C3938 1.366 . S
C3937 C3939 1.388 . S
C3938 C3937 1.366 . S
C3938 C3942 1.385 . S
C3939 H3914 0.951 . S
C3939 C3937 1.388 . S
C3939 C3940 1.366 . S
C3940 C3939 1.366 . S
C3940 C3941 1.414 . S
C3940 C3943 1.499 . S
C3941 H3915 0.950 . S
C3941 C3940 1.414 . S
C3941 C3942 1.374 . S
C3942 H3916 0.950 . S
C3942 C3938 1.385 . S
C3942 C3941 1.374 . S
C3943 C3940 1.499 . S
C3943 C3944 1.373 . S
C3943 C3945 1.389 . S
C3944 H3917 0.950 . S
C3944 C3930 1.377 . S
C3944 C3943 1.373 . S
C3945 C3929 1.377 . S
C3945 C3943 1.389 . S
C3945 C3946 1.524 . S
C3946 C3945 1.524 . S
C3946 C3947 1.397 . S
C3946 C3951 1.363 . S
C3947 H3918 0.950 . S
C3947 C3946 1.397 . S
C3947 C3948 1.334 . S
C3948 H3919 0.950 . S
C3948 C3947 1.334 . S
C3948 C3949 1.287 . S
C3949 C3948 1.287 . S
C3949 C3950 1.524 . S
C3949 H3952 0.999 . S
C3950 H3920 0.950 . S
C3950 C3949 1.524 . S
C3950 C3951 1.415 . S
C3951 H3921 0.950 . S
C3951 C3946 1.363 . S
C3951 C3950 1.415 . S
H3952 C3949 0.999 . S
H3953 C3934 0.913 . S
H3954 C3972 0.951 . S
H3955 C3974 0.951 . S
H3956 C3976 0.950 . S
H3957 C3977 0.950 . S
H3958 C3979 0.950 . S
H3959 C3982 0.950 . S
H3960 C3983 0.950 . S
H3961 C3985 0.950 . S
H3962 C3986 0.950 . S
H3963 C3987 0.951 . S
H3964 C3989 0.951 . S
H3965 C3991 0.950 . S
H3966 C3992 0.950 . S
H3967 C3994 0.950 . S
H3968 C3997 0.950 . S
H3969 C3998 0.950 . S
H3970 C4000 0.950 . S
H3971 C4001 0.950 . S
C3972 H3954 0.951 . S
C3972 C3973 1.366 . S
C3972 C3974 1.388 . S
C3973 C3972 1.366 . S
C3973 C3977 1.385 . S
C3974 H3955 0.951 . S
C3974 C3972 1.388 . S
C3974 C3975 1.366 . S
C3975 C3974 1.366 . S
C3975 C3976 1.414 . S
C3975 C3978 1.499 . S
C3976 H3956 0.950 . S
C3976 C3975 1.414 . S
C3976 C3977 1.374 . S
C3977 H3957 0.950 . S
C3977 C3973 1.385 . S
C3977 C3976 1.374 . S
C3978 C3975 1.499 . S
C3978 C3979 1.373 . S
C3978 C3980 1.389 . S
C3979 H3958 0.950 . S
C3979 C3978 1.373 . S
C3979 C3995 1.377 . S
C3980 C3978 1.389 . S
C3980 C3981 1.524 . S
C3980 C3994 1.377 . S
C3981 C3980 1.524 . S
C3981 C3982 1.397 . S
C3981 C3986 1.363 . S
C3982 H3959 0.950 . S
C3982 C3981 1.397 . S
C3982 C3983 1.334 . S
C3983 H3960 0.950 . S
C3983 C3982 1.334 . S
C3983 C3984 1.287 . S
C3984 C3983 1.287 . S
C3984 C3985 1.524 . S
C3984 H4003 0.913 . S
C3985 H3961 0.950 . S
C3985 C3984 1.524 . S
C3985 C3986 1.415 . S
C3986 H3962 0.950 . S
C3986 C3981 1.363 . S
C3986 C3985 1.415 . S
C3987 H3963 0.951 . S
C3987 C3988 1.366 . S
C3987 C3989 1.388 . S
C3988 C3987 1.366 . S
C3988 C3992 1.385 . S
C3989 H3964 0.951 . S
C3989 C3987 1.388 . S
C3989 C3990 1.366 . S
C3990 C3989 1.366 . S
C3990 C3991 1.414 . S
C3990 C3993 1.499 . S
C3991 H3965 0.950 . S
C3991 C3990 1.414 . S
C3991 C3992 1.374 . S
C3992 H3966 0.950 . S
C3992 C3988 1.385 . S
C3992 C3991 1.374 . S
C3993 C3990 1.499 . S
C3993 C3994 1.373 . S
C3993 C3995 1.389 . S
C3994 H3967 0.950 . S
C3994 C3980 1.377 . S
C3994 C3993 1.373 . S
C3995 C3979 1.377 . S
C3995 C3993 1.389 . S
C3995 C3996 1.524 . S
C3996 C3995 1.524 . S
C3996 C3997 1.397 . S
C3996 C4001 1.363 . S
C3997 H3968 0.950 . S
C3997 C3996 1.397 . S
C3997 C3998 1.334 . S
C3998 H3969 0.950 . S
C3998 C3997 1.334 . S
C3998 C3999 1.287 . S
C3999 C3998 1.287 . S
C3999 C4000 1.524 . S
C3999 H4002 0.999 . S
C4000 H3970 0.950 . S
C4000 C3999 1.524 . S
C4000 C4001 1.415 . S
C4001 H3971 0.950 . S
C4001 C3996 1.363 . S
C4001 C4000 1.415 . S
H4002 C3999 0.999 . S
H4003 C3984 0.913 . S
H4004 C4022 0.951 . S
H4005 C4024 0.951 . S
H4006 C4026 0.950 . S
H4007 C4027 0.950 . S
H4008 C4029 0.950 . S
H4009 C4032 0.950 . S
H4010 C4033 0.950 . S
H4011 C4035 0.950 . S
H4012 C4036 0.950 . S
H4013 C4037 0.951 . S
H4014 C4039 0.951 . S
H4015 C4041 0.950 . S
H4016 C4042 0.950 . S
H4017 C4044 0.950 . S
H4018 C4047 0.950 . S
H4019 C4048 0.950 . S
H4020 C4050 0.950 . S
H4021 C4051 0.950 . S
C4022 H4004 0.951 . S
C4022 C4023 1.366 . S
C4022 C4024 1.388 . S
C4023 C4022 1.366 . S
C4023 C4027 1.385 . S
C4024 H4005 0.951 . S
C4024 C4022 1.388 . S
C4024 C4025 1.366 . S
C4025 C4024 1.366 . S
C4025 C4026 1.414 . S
C4025 C4028 1.499 . S
C4026 H4006 0.950 . S
C4026 C4025 1.414 . S
C4026 C4027 1.374 . S
C4027 H4007 0.950 . S
C4027 C4023 1.385 . S
C4027 C4026 1.374 . S
C4028 C4025 1.499 . S
C4028 C4029 1.373 . S
C4028 C4030 1.389 . S
C4029 H4008 0.950 . S
C4029 C4028 1.373 . S
C4029 C4045 1.377 . S
C4030 C4028 1.389 . S
C4030 C4031 1.524 . S
C4030 C4044 1.377 . S
C4031 C4030 1.524 . S
C4031 C4032 1.397 . S
C4031 C4036 1.363 . S
C4032 H4009 0.950 . S
C4032 C4031 1.397 . S
C4032 C4033 1.334 . S
C4033 H4010 0.950 . S
C4033 C4032 1.334 . S
C4033 C4034 1.287 . S
C4034 C4033 1.287 . S
C4034 C4035 1.524 . S
C4034 H4053 0.913 . S
C4035 H4011 0.950 . S
C4035 C4034 1.524 . S
C4035 C4036 1.415 . S
C4036 H4012 0.950 . S
C4036 C4031 1.363 . S
C4036 C4035 1.415 . S
C4037 H4013 0.951 . S
C4037 C4038 1.366 . S
C4037 C4039 1.388 . S
C4038 C4037 1.366 . S
C4038 C4042 1.385 . S
C4039 H4014 0.951 . S
C4039 C4037 1.388 . S
C4039 C4040 1.366 . S
C4040 C4039 1.366 . S
C4040 C4041 1.414 . S
C4040 C4043 1.499 . S
C4041 H4015 0.950 . S
C4041 C4040 1.414 . S
C4041 C4042 1.374 . S
C4042 H4016 0.950 . S
C4042 C4038 1.385 . S
C4042 C4041 1.374 . S
C4043 C4040 1.499 . S
C4043 C4044 1.373 . S
C4043 C4045 1.389 . S
C4044 H4017 0.950 . S
C4044 C4030 1.377 . S
C4044 C4043 1.373 . S
C4045 C4029 1.377 . S
C4045 C4043 1.389 . S
C4045 C4046 1.524 . S
C4046 C4045 1.524 . S
C4046 C4047 1.397 . S
C4046 C4051 1.363 . S
C4047 H4018 0.950 . S
C4047 C4046 1.397 . S
C4047 C4048 1.334 . S
C4048 H4019 0.950 . S
C4048 C4047 1.334 . S
C4048 C4049 1.287 . S
C4049 C4048 1.287 . S
C4049 C4050 1.524 . S
C4049 H4052 0.999 . S
C4050 H4020 0.950 . S
C4050 C4049 1.524 . S
C4050 C4051 1.415 . S
C4051 H4021 0.950 . S
C4051 C4046 1.363 . S
C4051 C4050 1.415 . S
H4052 C4049 0.999 . S
H4053 C4034 0.913 . S
H4054 C4072 0.951 . S
H4055 C4074 0.951 . S
H4056 C4076 0.950 . S
H4057 C4077 0.950 . S
H4058 C4079 0.950 . S
H4059 C4082 0.950 . S
H4060 C4083 0.950 . S
H4061 C4085 0.950 . S
H4062 C4086 0.950 . S
H4063 C4087 0.951 . S
H4064 C4089 0.951 . S
H4065 C4091 0.950 . S
H4066 C4092 0.950 . S
H4067 C4094 0.950 . S
H4068 C4097 0.950 . S
H4069 C4098 0.950 . S
H4070 C4100 0.950 . S
H4071 C4101 0.950 . S
C4072 H4054 0.951 . S
C4072 C4073 1.366 . S
C4072 C4074 1.388 . S
C4073 C4072 1.366 . S
C4073 C4077 1.385 . S
C4074 H4055 0.951 . S
C4074 C4072 1.388 . S
C4074 C4075 1.366 . S
C4075 C4074 1.366 . S
C4075 C4076 1.414 . S
C4075 C4078 1.499 . S
C4076 H4056 0.950 . S
C4076 C4075 1.414 . S
C4076 C4077 1.374 . S
C4077 H4057 0.950 . S
C4077 C4073 1.385 . S
C4077 C4076 1.374 . S
C4078 C4075 1.499 . S
C4078 C4079 1.373 . S
C4078 C4080 1.389 . S
C4079 H4058 0.950 . S
C4079 C4078 1.373 . S
C4079 C4095 1.377 . S
C4080 C4078 1.389 . S
C4080 C4081 1.524 . S
C4080 C4094 1.377 . S
C4081 C4080 1.524 . S
C4081 C4082 1.397 . S
C4081 C4086 1.363 . S
C4082 H4059 0.950 . S
C4082 C4081 1.397 . S
C4082 C4083 1.334 . S
C4083 H4060 0.950 . S
C4083 C4082 1.334 . S
C4083 C4084 1.287 . S
C4084 C4083 1.287 . S
C4084 C4085 1.524 . S
C4084 H4103 0.913 . S
C4085 H4061 0.950 . S
C4085 C4084 1.524 . S
C4085 C4086 1.415 . S
C4086 H4062 0.950 . S
C4086 C4081 1.363 . S
C4086 C4085 1.415 . S
C4087 H4063 0.951 . S
C4087 C4088 1.366 . S
C4087 C4089 1.388 . S
C4088 C4087 1.366 . S
C4088 C4092 1.385 . S
C4089 H4064 0.951 . S
C4089 C4087 1.388 . S
C4089 C4090 1.366 . S
C4090 C4089 1.366 . S
C4090 C4091 1.414 . S
C4090 C4093 1.499 . S
C4091 H4065 0.950 . S
C4091 C4090 1.414 . S
C4091 C4092 1.374 . S
C4092 H4066 0.950 . S
C4092 C4088 1.385 . S
C4092 C4091 1.374 . S
C4093 C4090 1.499 . S
C4093 C4094 1.373 . S
C4093 C4095 1.389 . S
C4094 H4067 0.950 . S
C4094 C4080 1.377 . S
C4094 C4093 1.373 . S
C4095 C4079 1.377 . S
C4095 C4093 1.389 . S
C4095 C4096 1.524 . S
C4096 C4095 1.524 . S
C4096 C4097 1.397 . S
C4096 C4101 1.363 . S
C4097 H4068 0.950 . S
C4097 C4096 1.397 . S
C4097 C4098 1.334 . S
C4098 H4069 0.950 . S
C4098 C4097 1.334 . S
C4098 C4099 1.287 . S
C4099 C4098 1.287 . S
C4099 C4100 1.524 . S
C4099 H4102 0.999 . S
C4100 H4070 0.950 . S
C4100 C4099 1.524 . S
C4100 C4101 1.415 . S
C4101 H4071 0.950 . S
C4101 C4096 1.363 . S
C4101 C4100 1.415 . S
H4102 C4099 0.999 . S
H4103 C4084 0.913 . S
C523 C37 1.203 . S
C538 C256 1.054 . S
C573 C9 1.184 . S
C588 C272 1.047 . S
C638 C255 1.075 . S
C623 C19 1.221 . S
C688 C280 1.057 . S
C673 C33 1.210 . S
C723 C5 1.240 . S
C738 C289 1.086 . S
C788 C292 1.053 . S
C773 C23 1.197 . S
C823 C75 1.202 . S
C838 C298 1.051 . S
C888 C314 1.039 . S
C873 C51 1.174 . S
C938 C297 1.084 . S
C923 C65 1.229 . S
C973 C79 1.219 . S
C988 C322 1.067 . S
C1038 C331 1.082 . S
C1023 C47 1.231 . S
C1088 C334 1.052 . S
C1073 C61 1.196 . S
C1138 C343 1.052 . S
C1123 C121 1.202 . S
C1188 C355 1.046 . S
C1173 C93 1.184 . S
C1238 C352 1.077 . S
C1223 C103 1.221 . S
C1273 C117 1.210 . S
C1288 C361 1.058 . S
C1338 C360 1.087 . S
C1323 C89 1.239 . S
C1373 C107 1.197 . S
C1388 C377 1.055 . S
C1438 C382 1.049 . S
C1423 C159 1.202 . S
C1488 C398 1.041 . S
C1473 C135 1.175 . S
C1523 C149 1.230 . S
C1538 C381 1.084 . S
C1588 C406 1.077 . S
C1573 C163 1.220 . S
C1638 C415 1.083 . S
C1623 C131 1.231 . S
C1673 C145 1.196 . S
C1688 C418 1.057 . S
C1723 C205 1.203 . S
C1738 C427 1.052 . S
C1788 C439 1.044 . S
C1773 C177 1.183 . S
C1838 C436 1.077 . S
C1823 C187 1.221 . S
C1873 C201 1.209 . S
C1888 C445 1.067 . S
C1938 C444 1.087 . S
C1923 C173 1.239 . S
C1973 C191 1.197 . S
C1988 C461 1.061 . S
C2038 C466 1.052 . S
C2023 C243 1.202 . S
C2088 C482 1.038 . S
C2073 C219 1.175 . S
C2123 C233 1.230 . S
C2138 C465 1.086 . S
C2188 C487 1.065 . S
C2173 C247 1.220 . S
C2238 C486 1.083 . S
C2223 C215 1.231 . S
C2288 C503 1.050 . S
C2273 C229 1.196 . S
C2338 C268 1.549 . S
C2323 C154 1.641 . S
C2373 C137 1.532 . S
C2388 C271 1.451 . S
C2438 C259 1.435 . S
C2423 C151 1.537 . S
C2473 C249 1.593 . S
C2488 C276 1.501 . S
C2523 C210 1.521 . S
C2538 C277 1.428 . S
C2588 C293 1.569 1_565 S
C2573 C224 1.661 . S
C2638 C310 1.426 . S
C2623 C207 1.517 . S
C2688 C313 1.520 . S
C2673 C179 1.618 . S
C2723 C182 1.574 . S
C2738 C301 1.475 . S
C2788 C318 1.542 1_655 S
C2773 C112 1.631 . S
C2823 C84 1.610 . S
C2838 C319 1.513 . S
C2873 C109 1.536 . S
C2888 C335 1.445 . S
C2923 C238 1.641 1_655 S
C2938 C339 1.550 . S
C2973 C221 1.532 . S
C2988 C356 1.438 . S
C3038 C340 1.435 . S
C3023 C235 1.537 . S
C3088 C373 1.502 . S
C3073 C81 1.593 . S
C3138 C364 1.429 . S
C3123 C42 1.522 . S
C3173 C56 1.661 . S
C3188 C376 1.568 . S
C3238 C394 1.426 . S
C3223 C39 1.517 . S
C3288 C397 1.520 . S
C3273 C11 1.618 . S
C3323 C14 1.574 . S
C3338 C385 1.474 . S
C3388 C402 1.543 . S
C3373 C196 1.631 . S
C3438 C403 1.512 . S
C3423 C168 1.610 1_655 S
C3488 C419 1.444 . S
C3473 C193 1.536 . S
C3538 C423 1.551 . S
C3523 C70 1.641 . S
C3588 C440 1.437 . S
C3573 C53 1.532 . S
C3623 C67 1.537 . S
C3638 C424 1.436 . S
C3673 C165 1.593 1_565 S
C3688 C457 1.503 . S
C3723 C126 1.522 . S
C3738 C448 1.428 . S
C3788 C460 1.568 . S
C3773 C140 1.661 . S
C3823 C123 1.517 . S
C3838 C478 1.427 . S
C3873 C95 1.618 . S
C3888 C481 1.520 . S
C3938 C469 1.473 . S
C3923 C98 1.573 1_565 S
C3988 C499 1.543 . S
C3973 C28 1.631 . S
C4038 C490 1.512 . S
C4023 C0 1.610 . S
C4073 C25 1.536 . S
C4088 C502 1.444 . S
