# Generated by pormake.
# Topology nia, (6,6)-cn, num edge types: 1
# Building blocks:
#     Node 0, Type 0, BuildingBlock: CIFDUS_clean_sbu_1, # of connection points: 6
#     Node 1, Type 0, BuildingBlock: CIFDUS_clean_sbu_1, # of connection points: 6
#     Node 2, Type 1, BuildingBlock: MIDCAF_clean_sbu_0, # of connection points: 6
#     Node 3, Type 1, BuildingBlock: MIDCAF_clean_sbu_0, # of connection points: 6
#     Edge 4, Type (0, 1), BuildingBlock: UVAHIK_clean_linker_0, # of connection points: 2
#     Edge 5, Type (0, 1), BuildingBlock: UVAHIK_clean_linker_0, # of connection points: 2
#     Edge 6, Type (0, 1), BuildingBlock: UVAHIK_clean_linker_0, # of connection points: 2
#     Edge 7, Type (0, 1), BuildingBlock: UVAHIK_clean_linker_0, # of connection points: 2
#     Edge 8, Type (0, 1), BuildingBlock: UVAHIK_clean_linker_0, # of connection points: 2
#     Edge 9, Type (0, 1), BuildingBlock: UVAHIK_clean_linker_0, # of connection points: 2
#     Edge 10, Type (0, 1), BuildingBlock: UVAHIK_clean_linker_0, # of connection points: 2
#     Edge 11, Type (0, 1), BuildingBlock: UVAHIK_clean_linker_0, # of connection points: 2
#     Edge 12, Type (0, 1), BuildingBlock: UVAHIK_clean_linker_0, # of connection points: 2
#     Edge 13, Type (0, 1), BuildingBlock: UVAHIK_clean_linker_0, # of connection points: 2
#     Edge 14, Type (0, 1), BuildingBlock: UVAHIK_clean_linker_0, # of connection points: 2
#     Edge 15, Type (0, 1), BuildingBlock: UVAHIK_clean_linker_0, # of connection points: 2
# Relax obj value: 0.123
# Max RMSD: 0.237
# Mean RMSD: 0.158
data_MOF--net-nia--node1-CIFDUS_clean_sbu_1--node2-MIDCAF_clean_sbu_0--edge1-UVAHIK_clean_linker_0
_symmetry_space_group_name_H-M    P1
_symmetry_Int_Tables_number       1
_symmetry_cell_setting            triclinic
loop_
_symmetry_equiv_pos_as_xyz
'x, y, z'
_cell_length_a     29.813086
_cell_length_b     29.77558
_cell_length_c     43.076269
_cell_angle_alpha  89.684439
_cell_angle_beta   89.339888
_cell_angle_gamma 127.132
loop_
_atom_site_label
_atom_site_type_symbol
_atom_site_fract_x
_atom_site_fract_y
_atom_site_fract_z
_atom_type_partial_charge
O0 O 0.99593 0.97089 0.97185 0.0
Mn1 Mn 0.0028 0.01517 0.01188 0.0
O2 O 0.9114 0.88575 0.97499 0.0
Mn3 Mn 0.90415 0.88714 0.01751 0.0
O4 O 0.00955 0.05945 0.05184 0.0
O5 O 0.08249 0.07636 0.99918 0.0
Mn6 Mn 0.0992 0.14351 1.00457 0.0
O7 O 0.9758 0.0536 0.98546 0.0
O8 O 0.08941 0.14808 0.04651 0.0
O9 O 0.02913 0.97571 0.03794 0.0
O10 O 0.9543 0.88375 0.04089 0.0
O11 O 0.16299 0.15496 0.98777 0.0
O12 O 0.05019 0.14488 0.97894 0.0
C13 C 0.87485 0.93148 0.03768 0.0
C14 C 0.95604 0.92357 0.95999 0.0
C15 C 0.04659 0.10916 0.06231 0.0
C16 C 0.13182 0.10056 0.987 0.0
C17 C -0.00081 0.10316 0.97381 0.0
C18 C 0.00512 0.92463 0.0473 0.0
O19 O 0.9233 0.95456 0.02471 0.0
O20 O 0.84232 0.87712 0.03649 0.0
O21 O 0.04927 0.0203 0.55477 0.0
Mn22 Mn 0.00456 0.01069 0.51461 0.0
O23 O 0.13552 0.10318 0.54984 0.0
Mn24 Mn 0.13208 0.10889 0.50737 0.0
O25 O 0.95969 1.00073 0.47432 0.0
O26 O 0.94457 0.93165 0.52878 0.0
Mn27 Mn 0.87695 0.91225 0.52199 0.0
O28 O 0.96516 0.03796 0.53994 0.0
O29 O 0.87425 0.91683 0.47945 0.0
O30 O 0.0439 0.98342 0.48903 0.0
O31 O 0.13501 0.05869 0.48352 0.0
O32 O 0.86721 0.85122 0.54165 0.0
O33 O 0.87352 0.96331 0.5447 0.0
C34 C 0.0881 0.13843 0.48754 0.0
C35 C 0.09746 0.06004 0.56574 0.0
C36 C 0.91186 0.95998 0.46339 0.0
C37 C 0.92155 0.88367 0.54236 0.0
C38 C 0.91465 0.01459 0.55003 0.0
C39 C 0.09405 0.0074 0.47807 0.0
O40 O 0.06461 0.09001 0.50072 0.0
O41 O 0.14243 0.17065 0.48842 0.0
Zn42 Zn 0.31299 0.67897 0.20528 0.0
Zn43 Zn 0.33484 0.71147 0.32204 0.0
Zn44 Zn 0.32332 0.69358 0.26248 0.0
C45 C 0.44211 0.75974 0.29949 0.0
C46 C 0.26254 0.59403 0.31429 0.0
O47 O 0.27818 0.72688 0.24454 0.0
O48 O 0.25411 0.68887 0.19813 0.0
C49 C 0.42627 0.7616 0.21273 0.0
O50 O 0.41512 0.74374 0.2737 0.0
O51 O 0.41627 0.74944 0.32502 0.0
O52 O 0.28086 0.63098 0.33493 0.0
O53 O 0.27591 0.60895 0.28547 0.0
O54 O 0.39012 0.74208 0.19172 0.0
O55 O 0.41023 0.74478 0.24116 0.0
O56 O 0.27414 0.60079 0.25304 0.0
O57 O 0.29053 0.60185 0.20278 0.0
C58 C 0.26969 0.57472 0.22802 0.0
O59 O 0.28552 0.73679 0.27645 0.0
O60 O 0.30982 0.75915 0.32549 0.0
C61 C 0.2516 0.71685 0.21901 0.0
C62 C 0.28662 0.76067 0.30165 0.0
Zn63 Zn 0.68739 0.34262 0.82339 0.0
Zn64 Zn 0.67326 0.33254 0.70358 0.0
Zn65 Zn 0.68328 0.33405 0.76327 0.0
C66 C 0.73304 0.44376 0.71817 0.0
C67 C 0.56484 0.26095 0.72533 0.0
O68 O 0.72108 0.29241 0.77854 0.0
O69 O 0.70785 0.29101 0.82929 0.0
C70 C 0.75775 0.45169 0.80242 0.0
O71 O 0.73171 0.42188 0.74444 0.0
O72 O 0.70449 0.41244 0.69581 0.0
O73 O 0.59128 0.27298 0.69983 0.0
O74 O 0.59207 0.28206 0.75076 0.0
O75 O 0.74693 0.42469 0.82755 0.0
O76 O 0.73573 0.42494 0.77692 0.0
O77 O 0.59617 0.28597 0.78313 0.0
O78 O 0.60778 0.31135 0.83231 0.0
C79 C 0.57553 0.28412 0.81002 0.0
O80 O 0.72388 0.29609 0.74572 0.0
O81 O 0.72456 0.31233 0.69547 0.0
C82 C 0.72333 0.27718 0.8062 0.0
C83 C 0.73854 0.29532 0.71757 0.0
C84 C 0.01802 0.85533 0.06904 0.0
C85 C 0.03676 0.91133 0.06663 0.0
C86 C 0.04554 0.84112 0.08787 0.0
C87 C 0.133 0.88149 0.15605 0.0
H88 H 0.15955 0.77922 0.12163 0.0
C89 C 0.24402 0.79649 0.21867 0.0
C90 C 0.22096 0.74024 0.21212 0.0
C91 C 0.2226 0.82237 0.20439 0.0
C92 C 0.152 0.8074 0.13174 0.0
H93 H 0.09928 0.99645 0.08241 0.0
H94 H 0.14752 0.97115 0.11585 0.0
H95 H 0.12421 0.81747 0.08857 0.0
H96 H 0.15423 0.66537 0.18842 0.0
H97 H 0.11602 0.70951 0.16452 0.0
H98 H 0.1602 0.87025 0.19955 0.0
C99 C 0.11134 0.93849 0.10292 0.0
C100 C 0.132 0.82951 0.11272 0.0
C101 C 0.08403 0.95298 0.08362 0.0
C102 C 0.17318 0.70897 0.19358 0.0
C103 C 0.15165 0.73444 0.17966 0.0
C104 C 0.15311 0.8591 0.17527 0.0
C105 C 0.09242 0.88236 0.10506 0.0
C106 C 0.12084 0.8656 0.12477 0.0
C107 C 0.17783 0.79211 0.18355 0.0
C108 C 0.16124 0.8205 0.16344 0.0
H109 H 0.98188 0.82211 0.05629 0.0
H110 H 0.02955 0.79742 0.08928 0.0
H111 H 0.12471 0.90923 0.16595 0.0
H112 H 0.28112 0.82157 0.23277 0.0
H113 H 0.24338 0.8668 0.20801 0.0
C114 C 0.12339 0.09354 0.61973 0.0
C115 C 0.11332 0.05504 0.59703 0.0
C116 C 0.15633 0.10305 0.64538 0.0
C117 C 0.23944 0.0601 0.68281 0.0
H118 H 0.34628 0.22109 0.69505 0.0
C119 C 0.47441 0.17687 0.7057 0.0
C120 C 0.50274 0.22408 0.72491 0.0
C121 C 0.41693 0.14711 0.70045 0.0
C122 C 0.31626 0.17588 0.69256 0.0
H123 H 0.1265 0.99384 0.58391 0.0
H124 H 0.18543 0.01135 0.62789 0.0
H125 H 0.26093 0.18422 0.66693 0.0
H126 H 0.49315 0.27639 0.75449 0.0
H127 H 0.39219 0.22452 0.74509 0.0
H128 H 0.29786 0.05303 0.70661 0.0
C129 C 0.1669 0.03329 0.62681 0.0
C130 C 0.26686 0.15444 0.67642 0.0
C131 C 0.13295 0.02302 0.6015 0.0
C132 C 0.47203 0.23958 0.73996 0.0
C133 C 0.41446 0.21019 0.73438 0.0
C134 C 0.28937 0.08175 0.69863 0.0
C135 C 0.18143 0.07556 0.64829 0.0
C136 C 0.22842 0.09638 0.67043 0.0
C137 C 0.38668 0.16457 0.71386 0.0
C138 C 0.32907 0.14008 0.70287 0.0
H139 H 0.10902 0.11908 0.61654 0.0
H140 H 0.16494 0.13459 0.66186 0.0
H141 H 0.21048 0.01509 0.67936 0.0
H142 H 0.49729 0.16431 0.69371 0.0
H143 H 0.39707 0.11267 0.68426 0.0
C144 C 0.05907 0.11852 0.11962 0.0
C145 C 0.03819 0.12581 0.09261 0.0
C146 C 0.0689 0.15071 0.14594 0.0
C147 C 0.05637 0.26128 0.17701 0.0
H148 H 0.20592 0.32674 0.20693 0.0
C149 C 0.18418 0.47554 0.23909 0.0
C150 C 0.23944 0.51315 0.22733 0.0
C151 C 0.15252 0.41771 0.23296 0.0
C152 C 0.16401 0.30892 0.19893 0.0
H153 H 0.00801 0.16923 0.07219 0.0
H154 H 0.02534 0.2255 0.11743 0.0
H155 H 0.15761 0.24134 0.17687 0.0
H156 H 0.30537 0.52017 0.20066 0.0
H157 H 0.25078 0.42049 0.18964 0.0
H158 H 0.0651 0.33188 0.19683 0.0
C159 C 0.03321 0.19453 0.11912 0.0
C160 C 0.13573 0.25916 0.182 0.0
C161 C 0.02318 0.16223 0.09303 0.0
C162 C 0.26309 0.49189 0.21035 0.0
C163 C 0.23173 0.4345 0.20424 0.0
C164 C 0.08499 0.3115 0.19366 0.0
C165 C 0.0588 0.19131 0.14545 0.0
C166 C 0.08248 0.23591 0.16959 0.0
C167 C 0.17551 0.39666 0.21476 0.0
C168 C 0.14025 0.33733 0.20362 0.0
H169 H 0.07175 0.09124 0.1196 0.0
H170 H 0.08755 0.14614 0.16596 0.0
H171 H 0.01486 0.24398 0.16856 0.0
H172 H 0.16474 0.49114 0.25184 0.0
H173 H 0.10955 0.38982 0.24166 0.0
C174 C 0.84852 0.03309 0.57053 0.0
C175 C 0.903 0.04766 0.56931 0.0
C176 C 0.83633 0.06255 0.58941 0.0
C177 C 0.87475 0.14423 0.6595 0.0
H178 H 0.80529 0.20573 0.62083 0.0
C179 C 0.75734 0.22362 0.72157 0.0
C180 C 0.77142 0.27468 0.70951 0.0
C181 C 0.78085 0.19897 0.70825 0.0
C182 C 0.82479 0.1889 0.63196 0.0
H183 H 0.9873 0.10417 0.58733 0.0
H184 H 0.9654 0.1552 0.621 0.0
H185 H 0.83106 0.15644 0.58926 0.0
H186 H 0.82346 0.34176 0.67567 0.0
H187 H 0.86387 0.29882 0.65249 0.0
H188 H 0.86698 0.17586 0.70247 0.0
C189 C 0.93246 0.1211 0.60704 0.0
C190 C 0.83931 0.16056 0.61391 0.0
C191 C 0.94504 0.09228 0.5876 0.0
C192 C 0.81176 0.30226 0.68536 0.0
C193 C 0.8348 0.27768 0.67203 0.0
C194 C 0.85916 0.17184 0.67778 0.0
C195 C 0.87802 0.10659 0.60797 0.0
C196 C 0.86447 0.138 0.62744 0.0
C197 C 0.81806 0.22487 0.68252 0.0
C198 C 0.83435 0.19471 0.66406 0.0
H199 H 0.81522 0.999 0.55671 0.0
H200 H 0.79401 0.0505 0.58976 0.0
H201 H 0.89379 0.12681 0.67047 0.0
H202 H 0.72561 0.2011 0.73981 0.0
H203 H 0.76715 0.15805 0.71666 0.0
C204 C 0.81231 0.95767 0.04937 0.0
C205 C 0.85924 0.96024 0.05737 0.0
C206 C 0.7815 0.96197 0.07225 0.0
C207 C 0.73556 0.90803 0.1488 0.0
H208 H 0.65612 0.97346 0.14539 0.0
C209 C 0.52919 0.80663 0.21894 0.0
C210 C 0.48628 0.80343 0.20352 0.0
C211 C 0.58498 0.84248 0.20788 0.0
C212 C 0.67756 0.95441 0.14664 0.0
H213 H 0.91344 0.97314 0.09481 0.0
H214 H 0.85885 0.97956 0.1351 0.0
H215 H 0.739 0.01168 0.1121 0.0
H216 H 0.46815 0.83581 0.16438 0.0
H217 H 0.56369 0.89541 0.14406 0.0
H218 H 0.67196 0.84746 0.18089 0.0
C219 C 0.84651 0.97537 0.11111 0.0
C220 C 0.72548 0.9769 0.12779 0.0
C221 C 0.87803 0.9723 0.08805 0.0
C222 C 0.50036 0.83748 0.17698 0.0
C223 C 0.55566 0.87246 0.16554 0.0
C224 C 0.68702 0.88474 0.16712 0.0
C225 C 0.79637 0.96733 0.1036 0.0
C226 C 0.75399 0.95288 0.12807 0.0
C227 C 0.59884 0.87491 0.18048 0.0
C228 C 0.65608 0.9063 0.16552 0.0
H229 H 0.79642 0.94709 0.02597 0.0
H230 H 0.7428 0.95514 0.06583 0.0
H231 H 0.75625 0.88811 0.14917 0.0
H232 H 0.51909 0.77906 0.23841 0.0
H233 H 0.61679 0.84329 0.22032 0.0
C234 C 0.9679 0.89285 0.59164 0.0
C235 C 0.9504 0.86859 0.56222 0.0
C236 C 0.97053 0.86327 0.61606 0.0
C237 C 0.95381 0.73221 0.63747 0.0
H238 H 0.84048 0.70781 0.69568 0.0
C239 C 0.82721 0.53784 0.72066 0.0
C240 C 0.77007 0.50525 0.71296 0.0
C241 C 0.86436 0.59416 0.71054 0.0
C242 C 0.87303 0.7149 0.68008 0.0
H243 H 0.92771 0.79796 0.53421 0.0
H244 H 0.93426 0.74728 0.57625 0.0
H245 H 0.88901 0.78969 0.66075 0.0
H246 H 0.70617 0.50607 0.69032 0.0
H247 H 0.7704 0.60472 0.67362 0.0
H248 H 0.93495 0.65519 0.65566 0.0
C249 C 0.94589 0.78881 0.58077 0.0
C250 C 0.90118 0.762 0.6602 0.0
C251 C 0.94234 0.8179 0.55658 0.0
C252 C 0.75002 0.53052 0.69664 0.0
C253 C 0.78672 0.58695 0.68722 0.0
C254 C 0.92621 0.68549 0.65772 0.0
C255 C 0.95627 0.80939 0.61119 0.0
C256 C 0.93993 0.76973 0.63767 0.0
C257 C 0.8445 0.61884 0.69324 0.0
C258 C 0.88369 0.67507 0.67817 0.0
H259 H 0.97306 0.93133 0.59668 0.0
H260 H 0.97895 0.88027 0.63923 0.0
H261 H 0.98348 0.73713 0.62038 0.0
H262 H 0.84362 0.51896 0.73302 0.0
H263 H 0.90875 0.61789 0.71541 0.0
C264 C 0.06089 0.92431 0.44383 0.0
C265 C 0.10507 0.97619 0.45641 0.0
C266 C 0.07196 0.89852 0.421 0.0
C267 C 0.18124 0.93352 0.3623 0.0
H268 H 0.11614 0.77493 0.36678 0.0
C269 C 0.29142 0.84339 0.31658 0.0
C270 C 0.26019 0.78924 0.30411 0.0
C271 C 0.26465 0.86601 0.32718 0.0
C272 C 0.1337 0.81901 0.36472 0.0
H273 H 0.19577 0.04014 0.45562 0.0
H274 H 0.21475 0.99519 0.41653 0.0
H275 H 0.08358 0.81307 0.40302 0.0
H276 H 0.17703 0.71702 0.29139 0.0
H277 H 0.12941 0.7564 0.31054 0.0
H278 H 0.23311 0.94007 0.32501 0.0
C279 C 0.17145 0.975 0.42362 0.0
C280 C 0.11517 0.84091 0.38558 0.0
C281 C 0.1605 1.00057 0.44633 0.0
C282 C 0.20195 0.75923 0.30059 0.0
C283 C 0.17478 0.78149 0.31182 0.0
C284 C 0.19977 0.91173 0.34158 0.0
C285 C 0.12737 0.92423 0.41022 0.0
C286 C 0.14025 0.89884 0.38532 0.0
C287 C 0.20579 0.83445 0.3261 0.0
C288 C 0.17762 0.85465 0.34324 0.0
H289 H 0.01766 0.90438 0.45096 0.0
H290 H 0.03708 0.85931 0.41119 0.0
H291 H 0.20039 0.97807 0.36093 0.0
H292 H 0.33631 0.86695 0.31982 0.0
H293 H 0.28975 0.90661 0.3383 0.0
C294 C 0.20102 0.08349 0.97403 0.0
C295 C 0.1494 0.07291 0.96781 0.0
C296 C 0.23145 0.08038 0.95036 0.0
C297 C 0.28907 0.07016 0.89449 0.0
H298 H 0.31313 0.18074 0.83446 0.0
C299 C 0.48036 0.1909 0.80841 0.0
C300 C 0.51429 0.24828 0.81593 0.0
C301 C 0.42444 0.15483 0.81931 0.0
C302 C 0.30609 0.1489 0.85058 0.0
H303 H 0.08688 0.04679 0.93281 0.0
H304 H 0.14033 0.0418 0.89119 0.0
H305 H 0.23141 0.13373 0.86964 0.0
H306 H 0.51624 0.31375 0.83904 0.0
H307 H 0.41813 0.25141 0.85698 0.0
H308 H 0.36575 0.08797 0.8764 0.0
C309 C 0.15692 0.05165 0.91445 0.0
C310 C 0.25916 0.12168 0.87061 0.0
C311 C 0.12597 0.05374 0.93835 0.0
C312 C 0.49072 0.26969 0.83284 0.0
C313 C 0.43464 0.23409 0.84299 0.0
C314 C 0.33553 0.09669 0.87404 0.0
C315 C 0.21132 0.06799 0.91988 0.0
C316 C 0.25148 0.08387 0.89369 0.0
C317 C 0.40149 0.17607 0.83716 0.0
C318 C 0.3457 0.13808 0.85284 0.0
H319 H 0.22036 0.09949 0.9964 0.0
H320 H 0.27338 0.09365 0.95526 0.0
H321 H 0.28424 0.0413 0.91207 0.0
H322 H 0.49795 0.17347 0.79561 0.0
H323 H 0.39967 0.11022 0.8146 0.0
C324 C 0.0509 0.13725 0.43659 0.0
C325 C 0.05982 0.1541 0.46767 0.0
C326 C 0.05026 0.17029 0.41361 0.0
C327 C 0.12206 0.28424 0.37868 0.0
H328 H 0.05402 0.36129 0.37909 0.0
C329 C 0.22548 0.49273 0.3096 0.0
C330 C 0.22442 0.53407 0.32418 0.0
C331 C 0.19103 0.4368 0.32062 0.0
C332 C 0.0739 0.34061 0.37875 0.0
H333 H 0.06952 0.21486 0.49972 0.0
H334 H 0.06542 0.27101 0.45991 0.0
H335 H 0.01323 0.2769 0.41139 0.0
H336 H 0.18735 0.54969 0.36209 0.0
H337 H 0.13035 0.45412 0.3824 0.0
H338 H 0.18566 0.34997 0.34854 0.0
C339 C 0.05934 0.23271 0.45314 0.0
C340 C 0.04993 0.29181 0.397 0.0
C341 C 0.06127 0.2004 0.47598 0.0
C342 C 0.18869 0.51859 0.35013 0.0
C343 C 0.1552 0.46326 0.36151 0.0
C344 C 0.14679 0.33368 0.36101 0.0
C345 C 0.05748 0.21997 0.42159 0.0
C346 C 0.07464 0.264 0.39772 0.0
C347 C 0.15597 0.42139 0.34712 0.0
C348 C 0.12419 0.36372 0.36156 0.0
H349 H 0.05098 0.10238 0.42961 0.0
H350 H 0.04871 0.15957 0.38946 0.0
H351 H 0.14249 0.26406 0.37916 0.0
H352 H 0.25431 0.50399 0.29039 0.0
H353 H 0.19278 0.40601 0.30866 0.0
C354 C 0.98392 0.16749 0.94698 0.0
C355 C 0.96681 0.11261 0.95251 0.0
C356 C 0.95599 0.17757 0.9256 0.0
C357 C 0.82256 0.10697 0.88263 0.0
H358 H 0.90773 0.25055 0.83848 0.0
C359 C 0.72009 0.20516 0.83741 0.0
C360 C 0.74402 0.24379 0.81241 0.0
C361 C 0.74452 0.18022 0.84781 0.0
C362 C 0.88323 0.20969 0.85 0.0
H363 H 0.90674 0.02511 0.93982 0.0
H364 H 0.85863 0.04279 0.90183 0.0
H365 H 0.95673 0.22492 0.86957 0.0
H366 H 0.81122 0.2852 0.77787 0.0
H367 H 0.85339 0.23991 0.79532 0.0
H368 H 0.74914 0.09128 0.86254 0.0
C369 C 0.89305 0.07805 0.91451 0.0
C370 C 0.91134 0.19538 0.86841 0.0
C371 C 0.92064 0.06784 0.9363 0.0
C372 C 0.79139 0.25479 0.79685 0.0
C373 C 0.81593 0.22947 0.80721 0.0
C374 C 0.7945 0.12093 0.86387 0.0
C375 C 0.91061 0.13318 0.90872 0.0
C376 C 0.88124 0.14476 0.8859 0.0
C377 C 0.79369 0.19311 0.83346 0.0
C378 C 0.82422 0.17342 0.84822 0.0
H379 H 0.01898 0.2029 0.95929 0.0
H380 H 0.96982 0.22035 0.92259 0.0
H381 H 0.79776 0.06758 0.89563 0.0
H382 H 0.68358 0.19599 0.8499 0.0
H383 H 0.72647 0.15338 0.86834 0.0
C384 C 0.88185 0.91947 0.41118 0.0
C385 C 0.89606 0.96259 0.43159 0.0
C386 C 0.84688 0.9069 0.38613 0.0
C387 C 0.76768 0.94776 0.34325 0.0
H388 H 0.64828 0.78701 0.34841 0.0
C389 C 0.53769 0.84621 0.31049 0.0
C390 C 0.50342 0.79032 0.30044 0.0
C391 C 0.59386 0.87221 0.31799 0.0
C392 C 0.68155 0.83177 0.34586 0.0
H393 H 0.88886 0.02934 0.44072 0.0
H394 H 0.82701 0.00717 0.3971 0.0
H395 H 0.73485 0.8262 0.3755 0.0
H396 H 0.50043 0.71769 0.28993 0.0
H397 H 0.59923 0.76351 0.30174 0.0
H398 H 0.71302 0.95311 0.31424 0.0
C399 C 0.84354 0.98353 0.39998 0.0
C400 C 0.73155 0.85443 0.36154 0.0
C401 C 0.87921 0.99651 0.42491 0.0
C402 C 0.52652 0.76124 0.29708 0.0
C403 C 0.5829 0.78739 0.30421 0.0
C404 C 0.71751 0.92494 0.32734 0.0
C405 C 0.82439 0.93647 0.3814 0.0
C406 C 0.77494 0.91281 0.36097 0.0
C407 C 0.61684 0.84261 0.31583 0.0
C408 C 0.67326 0.86669 0.32899 0.0
H409 H 0.89398 0.89244 0.4161 0.0
H410 H 0.83411 0.87129 0.37184 0.0
H411 H 0.80037 0.99284 0.34213 0.0
H412 H 0.5202 0.86887 0.31399 0.0
H413 H 0.61809 0.9143 0.32729 0.0
C414 C 0.99438 0.88765 0.92535 0.0
C415 C 0.96266 0.90784 0.92893 0.0
C416 C 0.98455 0.85286 0.90044 0.0
C417 C 0.86422 0.75169 0.85096 0.0
H418 H 0.96489 0.71854 0.82226 0.0
C419 C 0.77821 0.54446 0.78874 0.0
C420 C 0.79406 0.51386 0.80337 0.0
C421 C 0.80754 0.60209 0.79439 0.0
C422 C 0.93636 0.72756 0.82987 0.0
H423 H 0.89986 0.91242 0.90818 0.0
H424 H 0.88522 0.85507 0.86356 0.0
H425 H 0.0031 0.80694 0.84878 0.0
H426 H 0.85416 0.51956 0.83413 0.0
H427 H 0.90546 0.61986 0.84387 0.0
H428 H 0.79745 0.67181 0.83278 0.0
C429 C 0.91613 0.86388 0.88043 0.0
C430 C 0.95818 0.77812 0.84523 0.0
C431 C 0.92518 0.89765 0.90567 0.0
C432 C 0.84132 0.54234 0.82243 0.0
C433 C 0.87091 0.59988 0.82783 0.0
C434 C 0.8426 0.70162 0.83532 0.0
C435 C 0.94305 0.83806 0.8785 0.0
C436 C 0.92217 0.79005 0.85698 0.0
C437 C 0.85333 0.63009 0.81468 0.0
C438 C 0.8781 0.68803 0.82553 0.0
H439 H 0.02273 0.89414 0.94338 0.0
H440 H 0.00606 0.83384 0.90007 0.0
H441 H 0.83465 0.75832 0.86002 0.0
H442 H 0.7413 0.52323 0.77439 0.0
H443 H 0.7931 0.62428 0.78383 0.0
loop_
_geom_bond_atom_site_label_1
_geom_bond_atom_site_label_2
_geom_bond_distance
_geom_bond_site_symmetry_2
_ccdc_geom_bond_type
O0 Mn1 2.163 1_666 S
O0 C14 1.244 . S
Mn1 O0 2.163 1_444 S
Mn1 O4 2.160 . S
Mn1 O5 2.221 1_554 S
Mn1 O7 2.163 1_454 S
Mn1 O9 2.160 1_545 S
Mn1 O19 2.221 1_445 S
O2 Mn3 2.087 1_556 S
O2 C14 1.256 . S
Mn3 O2 2.087 1_554 S
Mn3 O10 2.089 . S
Mn3 O19 2.290 . S
Mn3 O20 2.251 . S
O4 Mn1 2.160 . S
O4 C15 1.239 . S
O5 Mn1 2.221 1_556 S
O5 Mn6 2.290 . S
O5 C16 1.278 . S
Mn6 O5 2.290 . S
Mn6 O8 2.089 1_556 S
Mn6 O11 2.251 . S
Mn6 O12 2.087 . S
O7 Mn1 2.163 1_656 S
O7 C17 1.244 . S
O8 Mn6 2.089 1_554 S
O8 C15 1.256 . S
O9 Mn1 2.160 1_565 S
O9 C18 1.239 . S
O10 Mn3 2.089 . S
O10 C18 1.256 1_655 S
O11 Mn6 2.251 . S
O11 C16 1.241 . S
O12 Mn6 2.087 . S
O12 C17 1.256 1_455 S
C13 O19 1.278 . S
C13 O20 1.241 . S
C14 O0 1.244 . S
C14 O2 1.256 . S
C15 O4 1.239 . S
C15 O8 1.256 . S
C16 O5 1.278 . S
C16 O11 1.241 . S
C17 O7 1.244 . S
C17 O12 1.256 1_655 S
C18 O9 1.239 . S
C18 O10 1.256 1_455 S
O19 Mn1 2.221 1_665 S
O19 Mn3 2.290 . S
O19 C13 1.278 . S
O20 Mn3 2.251 . S
O20 C13 1.241 . S
O21 Mn22 2.172 . S
O21 C35 1.244 . S
Mn22 O21 2.172 . S
Mn22 O25 2.151 1_445 S
Mn22 O26 2.219 1_445 S
Mn22 O28 2.154 1_455 S
Mn22 O30 2.169 1_545 S
Mn22 O40 2.223 . S
O23 Mn24 2.087 . S
O23 C35 1.256 . S
Mn24 O23 2.087 . S
Mn24 O31 2.089 . S
Mn24 O40 2.290 . S
Mn24 O41 2.251 . S
O25 Mn22 2.151 1_665 S
O25 C36 1.239 . S
O26 Mn22 2.219 1_665 S
O26 Mn27 2.290 . S
O26 C37 1.278 . S
Mn27 O26 2.290 . S
Mn27 O29 2.089 . S
Mn27 O32 2.251 . S
Mn27 O33 2.087 . S
O28 Mn22 2.154 1_655 S
O28 C38 1.244 . S
O29 Mn27 2.089 . S
O29 C36 1.256 . S
O30 Mn22 2.169 1_565 S
O30 C39 1.239 . S
O31 Mn24 2.089 . S
O31 C39 1.256 1_545 S
O32 Mn27 2.251 . S
O32 C37 1.241 . S
O33 Mn27 2.087 . S
O33 C38 1.256 1_565 S
C34 O40 1.278 . S
C34 O41 1.241 . S
C35 O21 1.244 . S
C35 O23 1.256 . S
C36 O25 1.239 . S
C36 O29 1.256 . S
C37 O26 1.278 . S
C37 O32 1.241 . S
C38 O28 1.244 . S
C38 O33 1.256 1_545 S
C39 O30 1.239 . S
C39 O31 1.256 1_565 S
O40 Mn22 2.223 . S
O40 Mn24 2.290 . S
O40 C34 1.278 . S
O41 Mn24 2.251 . S
O41 C34 1.241 . S
Zn42 O48 1.920 . S
Zn42 O54 1.898 . S
Zn42 O57 1.905 . S
Zn43 O51 1.905 . S
Zn43 O52 1.898 . S
Zn43 O60 1.920 . S
Zn44 O47 2.080 . S
Zn44 O50 2.114 . S
Zn44 O53 2.120 . S
Zn44 O55 2.120 . S
Zn44 O56 2.114 . S
Zn44 O59 2.080 . S
C45 O50 1.166 . S
C45 O51 1.182 . S
C46 O52 1.167 . S
C46 O53 1.299 . S
O47 Zn44 2.080 . S
O47 C61 1.305 . S
O48 Zn42 1.920 . S
O48 C61 1.234 . S
C49 O54 1.167 . S
C49 O55 1.299 . S
O50 Zn44 2.114 . S
O50 C45 1.166 . S
O51 Zn43 1.905 . S
O51 C45 1.182 . S
O52 Zn43 1.898 . S
O52 C46 1.167 . S
O53 Zn44 2.120 . S
O53 C46 1.299 . S
O54 Zn42 1.898 . S
O54 C49 1.167 . S
O55 Zn44 2.120 . S
O55 C49 1.299 . S
O56 Zn44 2.114 . S
O56 C58 1.166 . S
O57 Zn42 1.905 . S
O57 C58 1.182 . S
C58 O56 1.166 . S
C58 O57 1.182 . S
O59 Zn44 2.080 . S
O59 C62 1.305 . S
O60 Zn43 1.920 . S
O60 C62 1.234 . S
C61 O47 1.305 . S
C61 O48 1.234 . S
C62 O59 1.305 . S
C62 O60 1.234 . S
Zn63 O69 1.920 . S
Zn63 O75 1.898 . S
Zn63 O78 1.905 . S
Zn64 O72 1.905 . S
Zn64 O73 1.898 . S
Zn64 O81 1.920 . S
Zn65 O68 2.080 . S
Zn65 O71 2.114 . S
Zn65 O74 2.120 . S
Zn65 O76 2.120 . S
Zn65 O77 2.114 . S
Zn65 O80 2.080 . S
C66 O71 1.166 . S
C66 O72 1.182 . S
C67 O73 1.167 . S
C67 O74 1.299 . S
O68 Zn65 2.080 . S
O68 C82 1.305 . S
O69 Zn63 1.920 . S
O69 C82 1.234 . S
C70 O75 1.167 . S
C70 O76 1.299 . S
O71 Zn65 2.114 . S
O71 C66 1.166 . S
O72 Zn64 1.905 . S
O72 C66 1.182 . S
O73 Zn64 1.898 . S
O73 C67 1.167 . S
O74 Zn65 2.120 . S
O74 C67 1.299 . S
O75 Zn63 1.898 . S
O75 C70 1.167 . S
O76 Zn65 2.120 . S
O76 C70 1.299 . S
O77 Zn65 2.114 . S
O77 C79 1.166 . S
O78 Zn63 1.905 . S
O78 C79 1.182 . S
C79 O77 1.166 . S
C79 O78 1.182 . S
O80 Zn65 2.080 . S
O80 C83 1.305 . S
O81 Zn64 1.920 . S
O81 C83 1.234 . S
C82 O68 1.305 . S
C82 O69 1.234 . S
C83 O80 1.305 . S
C83 O81 1.234 . S
C84 C85 1.349 . S
C84 C86 1.327 . S
C84 H109 0.950 . S
C85 C84 1.349 . S
C85 C101 1.349 . S
C86 C84 1.327 . S
C86 C105 1.429 . S
C86 H110 0.950 . S
C87 C104 1.574 . S
C87 C106 1.368 . S
C87 H111 0.949 . S
H88 C92 0.949 . S
C89 C90 1.349 . S
C89 C91 1.327 . S
C89 H112 0.950 . S
C90 C89 1.349 . S
C90 C102 1.349 . S
C91 C89 1.327 . S
C91 C107 1.429 . S
C91 H113 0.950 . S
C92 H88 0.949 . S
C92 C100 1.574 . S
C92 C108 1.368 . S
H93 C101 0.950 . S
H94 C99 0.950 . S
H95 C100 0.949 . S
H96 C102 0.950 . S
H97 C103 0.950 . S
H98 C104 0.949 . S
C99 H94 0.950 . S
C99 C101 1.327 . S
C99 C105 1.429 . S
C100 C92 1.574 . S
C100 H95 0.949 . S
C100 C106 1.368 . S
C101 C85 1.349 . S
C101 H93 0.950 . S
C101 C99 1.327 . S
C102 C90 1.349 . S
C102 H96 0.950 . S
C102 C103 1.327 . S
C103 H97 0.950 . S
C103 C102 1.327 . S
C103 C107 1.429 . S
C104 C87 1.574 . S
C104 H98 0.949 . S
C104 C108 1.368 . S
C105 C86 1.429 . S
C105 C99 1.429 . S
C105 C106 1.523 . S
C106 C87 1.368 . S
C106 C100 1.368 . S
C106 C105 1.523 . S
C107 C91 1.429 . S
C107 C103 1.429 . S
C107 C108 1.523 . S
C108 C92 1.368 . S
C108 C104 1.368 . S
C108 C107 1.523 . S
H109 C84 0.950 . S
H110 C86 0.950 . S
H111 C87 0.949 . S
H112 C89 0.950 . S
H113 C91 0.950 . S
C114 C115 1.349 . S
C114 C116 1.327 . S
C114 H139 0.950 . S
C115 C114 1.349 . S
C115 C131 1.349 . S
C116 C114 1.327 . S
C116 C135 1.429 . S
C116 H140 0.950 . S
C117 C134 1.574 . S
C117 C136 1.368 . S
C117 H141 0.949 . S
H118 C122 0.949 . S
C119 C120 1.349 . S
C119 C121 1.327 . S
C119 H142 0.950 . S
C120 C119 1.349 . S
C120 C132 1.349 . S
C121 C119 1.327 . S
C121 C137 1.429 . S
C121 H143 0.950 . S
C122 H118 0.949 . S
C122 C130 1.574 . S
C122 C138 1.368 . S
H123 C131 0.950 1_565 S
H124 C129 0.950 . S
H125 C130 0.949 . S
H126 C132 0.950 . S
H127 C133 0.950 . S
H128 C134 0.949 . S
C129 H124 0.950 . S
C129 C131 1.327 . S
C129 C135 1.429 . S
C130 C122 1.574 . S
C130 H125 0.949 . S
C130 C136 1.368 . S
C131 C115 1.349 . S
C131 H123 0.950 1_545 S
C131 C129 1.327 . S
C132 C120 1.349 . S
C132 H126 0.950 . S
C132 C133 1.327 . S
C133 H127 0.950 . S
C133 C132 1.327 . S
C133 C137 1.429 . S
C134 C117 1.574 . S
C134 H128 0.949 . S
C134 C138 1.368 . S
C135 C116 1.429 . S
C135 C129 1.429 . S
C135 C136 1.523 . S
C136 C117 1.368 . S
C136 C130 1.368 . S
C136 C135 1.523 . S
C137 C121 1.429 . S
C137 C133 1.429 . S
C137 C138 1.523 . S
C138 C122 1.368 . S
C138 C134 1.368 . S
C138 C137 1.523 . S
H139 C114 0.950 . S
H140 C116 0.950 . S
H141 C117 0.949 . S
H142 C119 0.950 . S
H143 C121 0.950 . S
C144 C145 1.349 . S
C144 C146 1.327 . S
C144 H169 0.950 . S
C145 C144 1.349 . S
C145 C161 1.349 . S
C146 C144 1.327 . S
C146 C165 1.429 . S
C146 H170 0.950 . S
C147 C164 1.574 . S
C147 C166 1.368 . S
C147 H171 0.949 . S
H148 C152 0.949 . S
C149 C150 1.349 . S
C149 C151 1.327 . S
C149 H172 0.950 . S
C150 C149 1.349 . S
C150 C162 1.349 . S
C151 C149 1.327 . S
C151 C167 1.429 . S
C151 H173 0.950 . S
C152 H148 0.949 . S
C152 C160 1.574 . S
C152 C168 1.368 . S
H153 C161 0.950 . S
H154 C159 0.950 . S
H155 C160 0.949 . S
H156 C162 0.950 . S
H157 C163 0.950 . S
H158 C164 0.949 . S
C159 H154 0.950 . S
C159 C161 1.327 . S
C159 C165 1.429 . S
C160 C152 1.574 . S
C160 H155 0.949 . S
C160 C166 1.368 . S
C161 C145 1.349 . S
C161 H153 0.950 . S
C161 C159 1.327 . S
C162 C150 1.349 . S
C162 H156 0.950 . S
C162 C163 1.327 . S
C163 H157 0.950 . S
C163 C162 1.327 . S
C163 C167 1.429 . S
C164 C147 1.574 . S
C164 H158 0.949 . S
C164 C168 1.368 . S
C165 C146 1.429 . S
C165 C159 1.429 . S
C165 C166 1.523 . S
C166 C147 1.368 . S
C166 C160 1.368 . S
C166 C165 1.523 . S
C167 C151 1.429 . S
C167 C163 1.429 . S
C167 C168 1.523 . S
C168 C152 1.368 . S
C168 C164 1.368 . S
C168 C167 1.523 . S
H169 C144 0.950 . S
H170 C146 0.950 . S
H171 C147 0.949 . S
H172 C149 0.950 . S
H173 C151 0.950 . S
C174 C175 1.349 . S
C174 C176 1.327 . S
C174 H199 0.950 . S
C175 C174 1.349 . S
C175 C191 1.349 . S
C176 C174 1.327 . S
C176 C195 1.429 . S
C176 H200 0.950 . S
C177 C194 1.574 . S
C177 C196 1.368 . S
C177 H201 0.949 . S
H178 C182 0.949 . S
C179 C180 1.349 . S
C179 C181 1.327 . S
C179 H202 0.950 . S
C180 C179 1.349 . S
C180 C192 1.349 . S
C181 C179 1.327 . S
C181 C197 1.429 . S
C181 H203 0.950 . S
C182 H178 0.949 . S
C182 C190 1.574 . S
C182 C198 1.368 . S
H183 C191 0.950 . S
H184 C189 0.950 . S
H185 C190 0.949 . S
H186 C192 0.950 . S
H187 C193 0.950 . S
H188 C194 0.949 . S
C189 H184 0.950 . S
C189 C191 1.327 . S
C189 C195 1.429 . S
C190 C182 1.574 . S
C190 H185 0.949 . S
C190 C196 1.368 . S
C191 C175 1.349 . S
C191 H183 0.950 . S
C191 C189 1.327 . S
C192 C180 1.349 . S
C192 H186 0.950 . S
C192 C193 1.327 . S
C193 H187 0.950 . S
C193 C192 1.327 . S
C193 C197 1.429 . S
C194 C177 1.574 . S
C194 H188 0.949 . S
C194 C198 1.368 . S
C195 C176 1.429 . S
C195 C189 1.429 . S
C195 C196 1.523 . S
C196 C177 1.368 . S
C196 C190 1.368 . S
C196 C195 1.523 . S
C197 C181 1.429 . S
C197 C193 1.429 . S
C197 C198 1.523 . S
C198 C182 1.368 . S
C198 C194 1.368 . S
C198 C197 1.523 . S
H199 C174 0.950 . S
H200 C176 0.950 . S
H201 C177 0.949 . S
H202 C179 0.950 . S
H203 C181 0.950 . S
C204 C205 1.349 . S
C204 C206 1.327 . S
C204 H229 0.950 1_565 S
C205 C204 1.349 . S
C205 C221 1.349 . S
C206 C204 1.327 . S
C206 C225 1.429 . S
C206 H230 0.950 . S
C207 C224 1.574 . S
C207 C226 1.368 . S
C207 H231 0.949 . S
H208 C212 0.949 . S
C209 C210 1.349 . S
C209 C211 1.327 . S
C209 H232 0.950 . S
C210 C209 1.349 . S
C210 C222 1.349 . S
C211 C209 1.327 . S
C211 C227 1.429 . S
C211 H233 0.950 . S
C212 H208 0.949 . S
C212 C220 1.574 . S
C212 C228 1.368 . S
H213 C221 0.950 . S
H214 C219 0.950 . S
H215 C220 0.949 . S
H216 C222 0.950 . S
H217 C223 0.950 . S
H218 C224 0.949 . S
C219 H214 0.950 . S
C219 C221 1.327 . S
C219 C225 1.429 . S
C220 C212 1.574 . S
C220 H215 0.949 . S
C220 C226 1.368 . S
C221 C205 1.349 . S
C221 H213 0.950 . S
C221 C219 1.327 . S
C222 C210 1.349 . S
C222 H216 0.950 . S
C222 C223 1.327 . S
C223 H217 0.950 . S
C223 C222 1.327 . S
C223 C227 1.429 . S
C224 C207 1.574 . S
C224 H218 0.949 . S
C224 C228 1.368 . S
C225 C206 1.429 . S
C225 C219 1.429 . S
C225 C226 1.523 . S
C226 C207 1.368 . S
C226 C220 1.368 . S
C226 C225 1.523 . S
C227 C211 1.429 . S
C227 C223 1.429 . S
C227 C228 1.523 . S
C228 C212 1.368 . S
C228 C224 1.368 . S
C228 C227 1.523 . S
H229 C204 0.950 1_545 S
H230 C206 0.950 . S
H231 C207 0.949 . S
H232 C209 0.950 . S
H233 C211 0.950 . S
C234 C235 1.349 . S
C234 C236 1.327 . S
C234 H259 0.950 . S
C235 C234 1.349 . S
C235 C251 1.349 . S
C236 C234 1.327 . S
C236 C255 1.429 . S
C236 H260 0.950 . S
C237 C254 1.574 . S
C237 C256 1.368 . S
C237 H261 0.949 . S
H238 C242 0.949 . S
C239 C240 1.349 . S
C239 C241 1.327 . S
C239 H262 0.950 . S
C240 C239 1.349 . S
C240 C252 1.349 . S
C241 C239 1.327 . S
C241 C257 1.429 . S
C241 H263 0.950 . S
C242 H238 0.949 . S
C242 C250 1.574 . S
C242 C258 1.368 . S
H243 C251 0.950 . S
H244 C249 0.950 . S
H245 C250 0.949 . S
H246 C252 0.950 . S
H247 C253 0.950 . S
H248 C254 0.949 . S
C249 H244 0.950 . S
C249 C251 1.327 . S
C249 C255 1.429 . S
C250 C242 1.574 . S
C250 H245 0.949 . S
C250 C256 1.368 . S
C251 C235 1.349 . S
C251 H243 0.950 . S
C251 C249 1.327 . S
C252 C240 1.349 . S
C252 H246 0.950 . S
C252 C253 1.327 . S
C253 H247 0.950 . S
C253 C252 1.327 . S
C253 C257 1.429 . S
C254 C237 1.574 . S
C254 H248 0.949 . S
C254 C258 1.368 . S
C255 C236 1.429 . S
C255 C249 1.429 . S
C255 C256 1.523 . S
C256 C237 1.368 . S
C256 C250 1.368 . S
C256 C255 1.523 . S
C257 C241 1.429 . S
C257 C253 1.429 . S
C257 C258 1.523 . S
C258 C242 1.368 . S
C258 C254 1.368 . S
C258 C257 1.523 . S
H259 C234 0.950 . S
H260 C236 0.950 . S
H261 C237 0.949 . S
H262 C239 0.950 . S
H263 C241 0.950 . S
C264 C265 1.349 . S
C264 C266 1.327 . S
C264 H289 0.950 . S
C265 C264 1.349 . S
C265 C281 1.349 . S
C266 C264 1.327 . S
C266 C285 1.429 . S
C266 H290 0.950 . S
C267 C284 1.574 . S
C267 C286 1.368 . S
C267 H291 0.949 . S
H268 C272 0.949 . S
C269 C270 1.349 . S
C269 C271 1.327 . S
C269 H292 0.950 . S
C270 C269 1.349 . S
C270 C282 1.349 . S
C271 C269 1.327 . S
C271 C287 1.429 . S
C271 H293 0.950 . S
C272 H268 0.949 . S
C272 C280 1.574 . S
C272 C288 1.368 . S
H273 C281 0.950 1_545 S
H274 C279 0.950 . S
H275 C280 0.949 . S
H276 C282 0.950 . S
H277 C283 0.950 . S
H278 C284 0.949 . S
C279 H274 0.950 . S
C279 C281 1.327 . S
C279 C285 1.429 . S
C280 C272 1.574 . S
C280 H275 0.949 . S
C280 C286 1.368 . S
C281 C265 1.349 . S
C281 H273 0.950 1_565 S
C281 C279 1.327 . S
C282 C270 1.349 . S
C282 H276 0.950 . S
C282 C283 1.327 . S
C283 H277 0.950 . S
C283 C282 1.327 . S
C283 C287 1.429 . S
C284 C267 1.574 . S
C284 H278 0.949 . S
C284 C288 1.368 . S
C285 C266 1.429 . S
C285 C279 1.429 . S
C285 C286 1.523 . S
C286 C267 1.368 . S
C286 C280 1.368 . S
C286 C285 1.523 . S
C287 C271 1.429 . S
C287 C283 1.429 . S
C287 C288 1.523 . S
C288 C272 1.368 . S
C288 C284 1.368 . S
C288 C287 1.523 . S
H289 C264 0.950 . S
H290 C266 0.950 . S
H291 C267 0.949 . S
H292 C269 0.950 . S
H293 C271 0.950 . S
C294 C295 1.349 . S
C294 C296 1.327 . S
C294 H319 0.950 . S
C295 C294 1.349 . S
C295 C311 1.349 . S
C296 C294 1.327 . S
C296 C315 1.429 . S
C296 H320 0.950 . S
C297 C314 1.574 . S
C297 C316 1.368 . S
C297 H321 0.949 . S
H298 C302 0.949 . S
C299 C300 1.349 . S
C299 C301 1.327 . S
C299 H322 0.950 . S
C300 C299 1.349 . S
C300 C312 1.349 . S
C301 C299 1.327 . S
C301 C317 1.429 . S
C301 H323 0.950 . S
C302 H298 0.949 . S
C302 C310 1.574 . S
C302 C318 1.368 . S
H303 C311 0.950 . S
H304 C309 0.950 . S
H305 C310 0.949 . S
H306 C312 0.950 . S
H307 C313 0.950 . S
H308 C314 0.949 . S
C309 H304 0.950 . S
C309 C311 1.327 . S
C309 C315 1.429 . S
C310 C302 1.574 . S
C310 H305 0.949 . S
C310 C316 1.368 . S
C311 C295 1.349 . S
C311 H303 0.950 . S
C311 C309 1.327 . S
C312 C300 1.349 . S
C312 H306 0.950 . S
C312 C313 1.327 . S
C313 H307 0.950 . S
C313 C312 1.327 . S
C313 C317 1.429 . S
C314 C297 1.574 . S
C314 H308 0.949 . S
C314 C318 1.368 . S
C315 C296 1.429 . S
C315 C309 1.429 . S
C315 C316 1.523 . S
C316 C297 1.368 . S
C316 C310 1.368 . S
C316 C315 1.523 . S
C317 C301 1.429 . S
C317 C313 1.429 . S
C317 C318 1.523 . S
C318 C302 1.368 . S
C318 C314 1.368 . S
C318 C317 1.523 . S
H319 C294 0.950 . S
H320 C296 0.950 . S
H321 C297 0.949 . S
H322 C299 0.950 . S
H323 C301 0.950 . S
C324 C325 1.349 . S
C324 C326 1.327 . S
C324 H349 0.950 . S
C325 C324 1.349 . S
C325 C341 1.349 . S
C326 C324 1.327 . S
C326 C345 1.429 . S
C326 H350 0.950 . S
C327 C344 1.574 . S
C327 C346 1.368 . S
C327 H351 0.949 . S
H328 C332 0.949 . S
C329 C330 1.349 . S
C329 C331 1.327 . S
C329 H352 0.950 . S
C330 C329 1.349 . S
C330 C342 1.349 . S
C331 C329 1.327 . S
C331 C347 1.429 . S
C331 H353 0.950 . S
C332 H328 0.949 . S
C332 C340 1.574 . S
C332 C348 1.368 . S
H333 C341 0.950 . S
H334 C339 0.950 . S
H335 C340 0.949 . S
H336 C342 0.950 . S
H337 C343 0.950 . S
H338 C344 0.949 . S
C339 H334 0.950 . S
C339 C341 1.327 . S
C339 C345 1.429 . S
C340 C332 1.574 . S
C340 H335 0.949 . S
C340 C346 1.368 . S
C341 C325 1.349 . S
C341 H333 0.950 . S
C341 C339 1.327 . S
C342 C330 1.349 . S
C342 H336 0.950 . S
C342 C343 1.327 . S
C343 H337 0.950 . S
C343 C342 1.327 . S
C343 C347 1.429 . S
C344 C327 1.574 . S
C344 H338 0.949 . S
C344 C348 1.368 . S
C345 C326 1.429 . S
C345 C339 1.429 . S
C345 C346 1.523 . S
C346 C327 1.368 . S
C346 C340 1.368 . S
C346 C345 1.523 . S
C347 C331 1.429 . S
C347 C343 1.429 . S
C347 C348 1.523 . S
C348 C332 1.368 . S
C348 C344 1.368 . S
C348 C347 1.523 . S
H349 C324 0.950 . S
H350 C326 0.950 . S
H351 C327 0.949 . S
H352 C329 0.950 . S
H353 C331 0.950 . S
C354 C355 1.349 . S
C354 C356 1.327 . S
C354 H379 0.950 . S
C355 C354 1.349 . S
C355 C371 1.349 . S
C356 C354 1.327 . S
C356 C375 1.429 . S
C356 H380 0.950 . S
C357 C374 1.574 . S
C357 C376 1.368 . S
C357 H381 0.949 . S
H358 C362 0.949 . S
C359 C360 1.349 . S
C359 C361 1.327 . S
C359 H382 0.950 . S
C360 C359 1.349 . S
C360 C372 1.349 . S
C361 C359 1.327 . S
C361 C377 1.429 . S
C361 H383 0.950 . S
C362 H358 0.949 . S
C362 C370 1.574 . S
C362 C378 1.368 . S
H363 C371 0.950 . S
H364 C369 0.950 . S
H365 C370 0.949 . S
H366 C372 0.950 . S
H367 C373 0.950 . S
H368 C374 0.949 . S
C369 H364 0.950 . S
C369 C371 1.327 . S
C369 C375 1.429 . S
C370 C362 1.574 . S
C370 H365 0.949 . S
C370 C376 1.368 . S
C371 C355 1.349 . S
C371 H363 0.950 . S
C371 C369 1.327 . S
C372 C360 1.349 . S
C372 H366 0.950 . S
C372 C373 1.327 . S
C373 H367 0.950 . S
C373 C372 1.327 . S
C373 C377 1.429 . S
C374 C357 1.574 . S
C374 H368 0.949 . S
C374 C378 1.368 . S
C375 C356 1.429 . S
C375 C369 1.429 . S
C375 C376 1.523 . S
C376 C357 1.368 . S
C376 C370 1.368 . S
C376 C375 1.523 . S
C377 C361 1.429 . S
C377 C373 1.429 . S
C377 C378 1.523 . S
C378 C362 1.368 . S
C378 C374 1.368 . S
C378 C377 1.523 . S
H379 C354 0.950 . S
H380 C356 0.950 . S
H381 C357 0.949 . S
H382 C359 0.950 . S
H383 C361 0.950 . S
C384 C385 1.349 . S
C384 C386 1.327 . S
C384 H409 0.950 . S
C385 C384 1.349 . S
C385 C401 1.349 . S
C386 C384 1.327 . S
C386 C405 1.429 . S
C386 H410 0.950 . S
C387 C404 1.574 . S
C387 C406 1.368 . S
C387 H411 0.949 . S
H388 C392 0.949 . S
C389 C390 1.349 . S
C389 C391 1.327 . S
C389 H412 0.950 . S
C390 C389 1.349 . S
C390 C402 1.349 . S
C391 C389 1.327 . S
C391 C407 1.429 . S
C391 H413 0.950 . S
C392 H388 0.949 . S
C392 C400 1.574 . S
C392 C408 1.368 . S
H393 C401 0.950 . S
H394 C399 0.950 . S
H395 C400 0.949 . S
H396 C402 0.950 . S
H397 C403 0.950 . S
H398 C404 0.949 . S
C399 H394 0.950 . S
C399 C401 1.327 . S
C399 C405 1.429 . S
C400 C392 1.574 . S
C400 H395 0.949 . S
C400 C406 1.368 . S
C401 C385 1.349 . S
C401 H393 0.950 . S
C401 C399 1.327 . S
C402 C390 1.349 . S
C402 H396 0.950 . S
C402 C403 1.327 . S
C403 H397 0.950 . S
C403 C402 1.327 . S
C403 C407 1.429 . S
C404 C387 1.574 . S
C404 H398 0.949 . S
C404 C408 1.368 . S
C405 C386 1.429 . S
C405 C399 1.429 . S
C405 C406 1.523 . S
C406 C387 1.368 . S
C406 C400 1.368 . S
C406 C405 1.523 . S
C407 C391 1.429 . S
C407 C403 1.429 . S
C407 C408 1.523 . S
C408 C392 1.368 . S
C408 C404 1.368 . S
C408 C407 1.523 . S
H409 C384 0.950 . S
H410 C386 0.950 . S
H411 C387 0.949 . S
H412 C389 0.950 . S
H413 C391 0.950 . S
C414 C415 1.349 . S
C414 C416 1.327 . S
C414 H439 0.950 1_655 S
C415 C414 1.349 . S
C415 C431 1.349 . S
C416 C414 1.327 . S
C416 C435 1.429 . S
C416 H440 0.950 . S
C417 C434 1.574 . S
C417 C436 1.368 . S
C417 H441 0.949 . S
H418 C422 0.949 . S
C419 C420 1.349 . S
C419 C421 1.327 . S
C419 H442 0.950 . S
C420 C419 1.349 . S
C420 C432 1.349 . S
C421 C419 1.327 . S
C421 C437 1.429 . S
C421 H443 0.950 . S
C422 H418 0.949 . S
C422 C430 1.574 . S
C422 C438 1.368 . S
H423 C431 0.950 . S
H424 C429 0.950 . S
H425 C430 0.949 . S
H426 C432 0.950 . S
H427 C433 0.950 . S
H428 C434 0.949 . S
C429 H424 0.950 . S
C429 C431 1.327 . S
C429 C435 1.429 . S
C430 C422 1.574 . S
C430 H425 0.949 . S
C430 C436 1.368 . S
C431 C415 1.349 . S
C431 H423 0.950 . S
C431 C429 1.327 . S
C432 C420 1.349 . S
C432 H426 0.950 . S
C432 C433 1.327 . S
C433 H427 0.950 . S
C433 C432 1.327 . S
C433 C437 1.429 . S
C434 C417 1.574 . S
C434 H428 0.949 . S
C434 C438 1.368 . S
C435 C416 1.429 . S
C435 C429 1.429 . S
C435 C436 1.523 . S
C436 C417 1.368 . S
C436 C430 1.368 . S
C436 C435 1.523 . S
C437 C421 1.429 . S
C437 C433 1.429 . S
C437 C438 1.523 . S
C438 C422 1.368 . S
C438 C434 1.368 . S
C438 C437 1.523 . S
H439 C414 0.950 1_455 S
H440 C416 0.950 . S
H441 C417 0.949 . S
H442 C419 0.950 . S
H443 C421 0.950 . S
C85 C18 1.349 . S
C90 C61 1.269 . S
C115 C35 1.486 . S
C120 C67 1.374 . S
C145 C15 1.308 . S
C150 C58 1.238 . S
C175 C38 1.520 . S
C180 C83 1.406 . S
C205 C13 1.344 . S
C210 C49 1.364 . S
C240 C66 1.367 . S
C235 C37 1.259 . S
C265 C39 1.349 . S
C270 C62 1.269 . S
C300 C79 1.367 . S
C295 C16 1.259 . S
C330 C46 1.364 . S
C325 C34 1.344 . S
C360 C82 1.406 . S
C355 C17 1.520 . S
C390 C45 1.238 . S
C385 C36 1.308 . S
C420 C70 1.374 . S
C415 C14 1.486 . S
