# Generated by pormake.
# Topology gar, (4,6)-cn, num edge types: 1
# Building blocks:
#     Node 0, Type 0, BuildingBlock: AZAVOO_clean_sbu_0, # of connection points: 4
#     Node 1, Type 0, BuildingBlock: AZAVOO_clean_sbu_0, # of connection points: 4
#     Node 2, Type 0, BuildingBlock: AZAVOO_clean_sbu_0, # of connection points: 4
#     Node 3, Type 0, BuildingBlock: AZAVOO_clean_sbu_0, # of connection points: 4
#     Node 4, Type 0, BuildingBlock: AZAVOO_clean_sbu_0, # of connection points: 4
#     Node 5, Type 0, BuildingBlock: AZAVOO_clean_sbu_0, # of connection points: 4
#     Node 6, Type 0, BuildingBlock: AZAVOO_clean_sbu_0, # of connection points: 4
#     Node 7, Type 0, BuildingBlock: AZAVOO_clean_sbu_0, # of connection points: 4
#     Node 8, Type 0, BuildingBlock: AZAVOO_clean_sbu_0, # of connection points: 4
#     Node 9, Type 0, BuildingBlock: AZAVOO_clean_sbu_0, # of connection points: 4
#     Node 10, Type 0, BuildingBlock: AZAVOO_clean_sbu_0, # of connection points: 4
#     Node 11, Type 0, BuildingBlock: AZAVOO_clean_sbu_0, # of connection points: 4
#     Node 12, Type 0, BuildingBlock: AZAVOO_clean_sbu_0, # of connection points: 4
#     Node 13, Type 0, BuildingBlock: AZAVOO_clean_sbu_0, # of connection points: 4
#     Node 14, Type 0, BuildingBlock: AZAVOO_clean_sbu_0, # of connection points: 4
#     Node 15, Type 0, BuildingBlock: AZAVOO_clean_sbu_0, # of connection points: 4
#     Node 16, Type 0, BuildingBlock: AZAVOO_clean_sbu_0, # of connection points: 4
#     Node 17, Type 0, BuildingBlock: AZAVOO_clean_sbu_0, # of connection points: 4
#     Node 18, Type 0, BuildingBlock: AZAVOO_clean_sbu_0, # of connection points: 4
#     Node 19, Type 0, BuildingBlock: AZAVOO_clean_sbu_0, # of connection points: 4
#     Node 20, Type 0, BuildingBlock: AZAVOO_clean_sbu_0, # of connection points: 4
#     Node 21, Type 0, BuildingBlock: AZAVOO_clean_sbu_0, # of connection points: 4
#     Node 22, Type 0, BuildingBlock: AZAVOO_clean_sbu_0, # of connection points: 4
#     Node 23, Type 0, BuildingBlock: AZAVOO_clean_sbu_0, # of connection points: 4
#     Node 24, Type 1, BuildingBlock: KUMBUR_clean_sbu_0, # of connection points: 6
#     Node 25, Type 1, BuildingBlock: KUMBUR_clean_sbu_0, # of connection points: 6
#     Node 26, Type 1, BuildingBlock: KUMBUR_clean_sbu_0, # of connection points: 6
#     Node 27, Type 1, BuildingBlock: KUMBUR_clean_sbu_0, # of connection points: 6
#     Node 28, Type 1, BuildingBlock: KUMBUR_clean_sbu_0, # of connection points: 6
#     Node 29, Type 1, BuildingBlock: KUMBUR_clean_sbu_0, # of connection points: 6
#     Node 30, Type 1, BuildingBlock: KUMBUR_clean_sbu_0, # of connection points: 6
#     Node 31, Type 1, BuildingBlock: KUMBUR_clean_sbu_0, # of connection points: 6
#     Node 32, Type 1, BuildingBlock: KUMBUR_clean_sbu_0, # of connection points: 6
#     Node 33, Type 1, BuildingBlock: KUMBUR_clean_sbu_0, # of connection points: 6
#     Node 34, Type 1, BuildingBlock: KUMBUR_clean_sbu_0, # of connection points: 6
#     Node 35, Type 1, BuildingBlock: KUMBUR_clean_sbu_0, # of connection points: 6
#     Node 36, Type 1, BuildingBlock: KUMBUR_clean_sbu_0, # of connection points: 6
#     Node 37, Type 1, BuildingBlock: KUMBUR_clean_sbu_0, # of connection points: 6
#     Node 38, Type 1, BuildingBlock: KUMBUR_clean_sbu_0, # of connection points: 6
#     Node 39, Type 1, BuildingBlock: KUMBUR_clean_sbu_0, # of connection points: 6
#     Edge 40, Type (0, 1), BuildingBlock: EZIPEK_clean_linker_0, # of connection points: 2
#     Edge 41, Type (0, 1), BuildingBlock: EZIPEK_clean_linker_0, # of connection points: 2
#     Edge 42, Type (0, 1), BuildingBlock: EZIPEK_clean_linker_0, # of connection points: 2
#     Edge 43, Type (0, 1), BuildingBlock: EZIPEK_clean_linker_0, # of connection points: 2
#     Edge 44, Type (0, 1), BuildingBlock: EZIPEK_clean_linker_0, # of connection points: 2
#     Edge 45, Type (0, 1), BuildingBlock: EZIPEK_clean_linker_0, # of connection points: 2
#     Edge 46, Type (0, 1), BuildingBlock: EZIPEK_clean_linker_0, # of connection points: 2
#     Edge 47, Type (0, 1), BuildingBlock: EZIPEK_clean_linker_0, # of connection points: 2
#     Edge 48, Type (0, 1), BuildingBlock: EZIPEK_clean_linker_0, # of connection points: 2
#     Edge 49, Type (0, 1), BuildingBlock: EZIPEK_clean_linker_0, # of connection points: 2
#     Edge 50, Type (0, 1), BuildingBlock: EZIPEK_clean_linker_0, # of connection points: 2
#     Edge 51, Type (0, 1), BuildingBlock: EZIPEK_clean_linker_0, # of connection points: 2
#     Edge 52, Type (0, 1), BuildingBlock: EZIPEK_clean_linker_0, # of connection points: 2
#     Edge 53, Type (0, 1), BuildingBlock: EZIPEK_clean_linker_0, # of connection points: 2
#     Edge 54, Type (0, 1), BuildingBlock: EZIPEK_clean_linker_0, # of connection points: 2
#     Edge 55, Type (0, 1), BuildingBlock: EZIPEK_clean_linker_0, # of connection points: 2
#     Edge 56, Type (0, 1), BuildingBlock: EZIPEK_clean_linker_0, # of connection points: 2
#     Edge 57, Type (0, 1), BuildingBlock: EZIPEK_clean_linker_0, # of connection points: 2
#     Edge 58, Type (0, 1), BuildingBlock: EZIPEK_clean_linker_0, # of connection points: 2
#     Edge 59, Type (0, 1), BuildingBlock: EZIPEK_clean_linker_0, # of connection points: 2
#     Edge 60, Type (0, 1), BuildingBlock: EZIPEK_clean_linker_0, # of connection points: 2
#     Edge 61, Type (0, 1), BuildingBlock: EZIPEK_clean_linker_0, # of connection points: 2
#     Edge 62, Type (0, 1), BuildingBlock: EZIPEK_clean_linker_0, # of connection points: 2
#     Edge 63, Type (0, 1), BuildingBlock: EZIPEK_clean_linker_0, # of connection points: 2
#     Edge 64, Type (0, 1), BuildingBlock: EZIPEK_clean_linker_0, # of connection points: 2
#     Edge 65, Type (0, 1), BuildingBlock: EZIPEK_clean_linker_0, # of connection points: 2
#     Edge 66, Type (0, 1), BuildingBlock: EZIPEK_clean_linker_0, # of connection points: 2
#     Edge 67, Type (0, 1), BuildingBlock: EZIPEK_clean_linker_0, # of connection points: 2
#     Edge 68, Type (0, 1), BuildingBlock: EZIPEK_clean_linker_0, # of connection points: 2
#     Edge 69, Type (0, 1), BuildingBlock: EZIPEK_clean_linker_0, # of connection points: 2
#     Edge 70, Type (0, 1), BuildingBlock: EZIPEK_clean_linker_0, # of connection points: 2
#     Edge 71, Type (0, 1), BuildingBlock: EZIPEK_clean_linker_0, # of connection points: 2
#     Edge 72, Type (0, 1), BuildingBlock: EZIPEK_clean_linker_0, # of connection points: 2
#     Edge 73, Type (0, 1), BuildingBlock: EZIPEK_clean_linker_0, # of connection points: 2
#     Edge 74, Type (0, 1), BuildingBlock: EZIPEK_clean_linker_0, # of connection points: 2
#     Edge 75, Type (0, 1), BuildingBlock: EZIPEK_clean_linker_0, # of connection points: 2
#     Edge 76, Type (0, 1), BuildingBlock: EZIPEK_clean_linker_0, # of connection points: 2
#     Edge 77, Type (0, 1), BuildingBlock: EZIPEK_clean_linker_0, # of connection points: 2
#     Edge 78, Type (0, 1), BuildingBlock: EZIPEK_clean_linker_0, # of connection points: 2
#     Edge 79, Type (0, 1), BuildingBlock: EZIPEK_clean_linker_0, # of connection points: 2
#     Edge 80, Type (0, 1), BuildingBlock: EZIPEK_clean_linker_0, # of connection points: 2
#     Edge 81, Type (0, 1), BuildingBlock: EZIPEK_clean_linker_0, # of connection points: 2
#     Edge 82, Type (0, 1), BuildingBlock: EZIPEK_clean_linker_0, # of connection points: 2
#     Edge 83, Type (0, 1), BuildingBlock: EZIPEK_clean_linker_0, # of connection points: 2
#     Edge 84, Type (0, 1), BuildingBlock: EZIPEK_clean_linker_0, # of connection points: 2
#     Edge 85, Type (0, 1), BuildingBlock: EZIPEK_clean_linker_0, # of connection points: 2
#     Edge 86, Type (0, 1), BuildingBlock: EZIPEK_clean_linker_0, # of connection points: 2
#     Edge 87, Type (0, 1), BuildingBlock: EZIPEK_clean_linker_0, # of connection points: 2
#     Edge 88, Type (0, 1), BuildingBlock: EZIPEK_clean_linker_0, # of connection points: 2
#     Edge 89, Type (0, 1), BuildingBlock: EZIPEK_clean_linker_0, # of connection points: 2
#     Edge 90, Type (0, 1), BuildingBlock: EZIPEK_clean_linker_0, # of connection points: 2
#     Edge 91, Type (0, 1), BuildingBlock: EZIPEK_clean_linker_0, # of connection points: 2
#     Edge 92, Type (0, 1), BuildingBlock: EZIPEK_clean_linker_0, # of connection points: 2
#     Edge 93, Type (0, 1), BuildingBlock: EZIPEK_clean_linker_0, # of connection points: 2
#     Edge 94, Type (0, 1), BuildingBlock: EZIPEK_clean_linker_0, # of connection points: 2
#     Edge 95, Type (0, 1), BuildingBlock: EZIPEK_clean_linker_0, # of connection points: 2
#     Edge 96, Type (0, 1), BuildingBlock: EZIPEK_clean_linker_0, # of connection points: 2
#     Edge 97, Type (0, 1), BuildingBlock: EZIPEK_clean_linker_0, # of connection points: 2
#     Edge 98, Type (0, 1), BuildingBlock: EZIPEK_clean_linker_0, # of connection points: 2
#     Edge 99, Type (0, 1), BuildingBlock: EZIPEK_clean_linker_0, # of connection points: 2
#     Edge 100, Type (0, 1), BuildingBlock: EZIPEK_clean_linker_0, # of connection points: 2
#     Edge 101, Type (0, 1), BuildingBlock: EZIPEK_clean_linker_0, # of connection points: 2
#     Edge 102, Type (0, 1), BuildingBlock: EZIPEK_clean_linker_0, # of connection points: 2
#     Edge 103, Type (0, 1), BuildingBlock: EZIPEK_clean_linker_0, # of connection points: 2
#     Edge 104, Type (0, 1), BuildingBlock: EZIPEK_clean_linker_0, # of connection points: 2
#     Edge 105, Type (0, 1), BuildingBlock: EZIPEK_clean_linker_0, # of connection points: 2
#     Edge 106, Type (0, 1), BuildingBlock: EZIPEK_clean_linker_0, # of connection points: 2
#     Edge 107, Type (0, 1), BuildingBlock: EZIPEK_clean_linker_0, # of connection points: 2
#     Edge 108, Type (0, 1), BuildingBlock: EZIPEK_clean_linker_0, # of connection points: 2
#     Edge 109, Type (0, 1), BuildingBlock: EZIPEK_clean_linker_0, # of connection points: 2
#     Edge 110, Type (0, 1), BuildingBlock: EZIPEK_clean_linker_0, # of connection points: 2
#     Edge 111, Type (0, 1), BuildingBlock: EZIPEK_clean_linker_0, # of connection points: 2
#     Edge 112, Type (0, 1), BuildingBlock: EZIPEK_clean_linker_0, # of connection points: 2
#     Edge 113, Type (0, 1), BuildingBlock: EZIPEK_clean_linker_0, # of connection points: 2
#     Edge 114, Type (0, 1), BuildingBlock: EZIPEK_clean_linker_0, # of connection points: 2
#     Edge 115, Type (0, 1), BuildingBlock: EZIPEK_clean_linker_0, # of connection points: 2
#     Edge 116, Type (0, 1), BuildingBlock: EZIPEK_clean_linker_0, # of connection points: 2
#     Edge 117, Type (0, 1), BuildingBlock: EZIPEK_clean_linker_0, # of connection points: 2
#     Edge 118, Type (0, 1), BuildingBlock: EZIPEK_clean_linker_0, # of connection points: 2
#     Edge 119, Type (0, 1), BuildingBlock: EZIPEK_clean_linker_0, # of connection points: 2
#     Edge 120, Type (0, 1), BuildingBlock: EZIPEK_clean_linker_0, # of connection points: 2
#     Edge 121, Type (0, 1), BuildingBlock: EZIPEK_clean_linker_0, # of connection points: 2
#     Edge 122, Type (0, 1), BuildingBlock: EZIPEK_clean_linker_0, # of connection points: 2
#     Edge 123, Type (0, 1), BuildingBlock: EZIPEK_clean_linker_0, # of connection points: 2
#     Edge 124, Type (0, 1), BuildingBlock: EZIPEK_clean_linker_0, # of connection points: 2
#     Edge 125, Type (0, 1), BuildingBlock: EZIPEK_clean_linker_0, # of connection points: 2
#     Edge 126, Type (0, 1), BuildingBlock: EZIPEK_clean_linker_0, # of connection points: 2
#     Edge 127, Type (0, 1), BuildingBlock: EZIPEK_clean_linker_0, # of connection points: 2
#     Edge 128, Type (0, 1), BuildingBlock: EZIPEK_clean_linker_0, # of connection points: 2
#     Edge 129, Type (0, 1), BuildingBlock: EZIPEK_clean_linker_0, # of connection points: 2
#     Edge 130, Type (0, 1), BuildingBlock: EZIPEK_clean_linker_0, # of connection points: 2
#     Edge 131, Type (0, 1), BuildingBlock: EZIPEK_clean_linker_0, # of connection points: 2
#     Edge 132, Type (0, 1), BuildingBlock: EZIPEK_clean_linker_0, # of connection points: 2
#     Edge 133, Type (0, 1), BuildingBlock: EZIPEK_clean_linker_0, # of connection points: 2
#     Edge 134, Type (0, 1), BuildingBlock: EZIPEK_clean_linker_0, # of connection points: 2
#     Edge 135, Type (0, 1), BuildingBlock: EZIPEK_clean_linker_0, # of connection points: 2
# Relax obj value: 0.174
# Max RMSD: 0.346
# Mean RMSD: 0.196
data_MOF--net-gar--node1-AZAVOO_clean_sbu_0--node2-KUMBUR_clean_sbu_0--edge1-EZIPEK_clean_linker_0
_symmetry_space_group_name_H-M    P1
_symmetry_Int_Tables_number       1
_symmetry_cell_setting            triclinic
loop_
_symmetry_equiv_pos_as_xyz
'x, y, z'
_cell_length_a     48.041456
_cell_length_b     41.66784
_cell_length_c     42.235514
_cell_angle_alpha  104.95429
_cell_angle_beta   93.571261
_cell_angle_gamma 104.72392
loop_
_atom_site_label
_atom_site_type_symbol
_atom_site_fract_x
_atom_site_fract_y
_atom_site_fract_z
_atom_type_partial_charge
Mg0 Mg 0.13749 0.3211 0.35777 0.0
O1 O 0.13878 0.37463 0.39127 0.0
O2 O 0.10864 0.35612 0.42458 0.0
Mg3 Mg 0.07025 0.31325 0.392 0.0
C4 C 0.12634 0.38047 0.41704 0.0
C5 C 0.19061 0.33354 0.32474 0.0
O6 O 0.16894 0.31504 0.30133 0.0
O7 O 0.14298 0.2996 0.40273 0.0
O8 O 0.09628 0.28301 0.41097 0.0
O9 O 0.11815 0.33578 0.3158 0.0
O10 O 0.09287 0.31028 0.34883 0.0
C11 C 0.12291 0.28386 0.41653 0.0
C12 C 0.0934 0.32505 0.32558 0.0
O13 O 0.18551 0.33827 0.35452 0.0
Mg14 Mg 0.01342 0.7691 0.67856 0.0
O15 O 0.00621 0.71368 0.65002 0.0
O16 O 0.96361 0.69155 0.61822 0.0
Mg17 Mg 0.94278 0.73692 0.62938 0.0
C18 C 0.98823 0.68896 0.62851 0.0
C19 C 0.08316 0.78412 0.69671 0.0
O20 O 0.08901 0.81554 0.69342 0.0
O21 O 0.02167 0.78378 0.63133 0.0
O22 O 0.97676 0.76641 0.60291 0.0
O23 O 0.99317 0.75554 0.72012 0.0
O24 O 0.96988 0.76629 0.6785 0.0
C25 C 1.00406 0.78096 0.60617 0.0
C26 C 0.96988 0.75984 0.70687 0.0
O27 O 0.05744 0.76491 0.69126 0.0
Mg28 Mg 0.63465 0.82804 0.85998 0.0
O29 O 0.64776 0.88152 0.89836 0.0
O30 O 0.60795 0.87715 0.92344 0.0
Mg31 Mg 0.57042 0.82954 0.90122 0.0
C32 C 0.63373 0.89348 0.92101 0.0
C33 C 0.68213 0.8231 0.81905 0.0
O34 O 0.6586 0.81031 0.79718 0.0
O35 O 0.64136 0.80342 0.90167 0.0
O36 O 0.59933 0.80223 0.92227 0.0
O37 O 0.61607 0.84829 0.82233 0.0
O38 O 0.59074 0.82455 0.85651 0.0
C39 C 0.62389 0.79574 0.92192 0.0
C40 C 0.59152 0.83926 0.83316 0.0
O41 O 0.68 0.83438 0.8495 0.0
Mg42 Mg 0.50105 0.26178 0.17811 0.0
O43 O 0.50279 0.21071 0.14546 0.0
O44 O 0.46373 0.18417 0.10802 0.0
Mg45 Mg 0.4383 0.22474 0.11719 0.0
C46 C 0.48839 0.18526 0.12173 0.0
C47 C 0.57102 0.28016 0.19453 0.0
O48 O 0.57479 0.29773 0.17269 0.0
O49 O 0.51456 0.28699 0.13769 0.0
O50 O 0.47532 0.26129 0.09959 0.0
O51 O 0.47771 0.23549 0.21021 0.0
O52 O 0.45539 0.25112 0.17138 0.0
C53 C 0.50093 0.28199 0.10911 0.0
C54 C 0.45419 0.23906 0.19687 0.0
O55 O 0.54586 0.26598 0.19963 0.0
Mg56 Mg 0.12734 0.82599 0.11336 0.0
O57 O 0.12125 0.76547 0.09709 0.0
O58 O 0.08643 0.75306 0.05488 0.0
Mg59 Mg 0.06643 0.79858 0.05808 0.0
C60 C 0.10541 0.74396 0.0705 0.0
C61 C 0.18253 0.82673 0.16807 0.0
O62 O 0.15986 0.81341 0.18113 0.0
O63 O 0.12257 0.8807 0.10291 0.0
O64 O 0.08556 0.85622 0.06115 0.0
O65 O 0.10268 0.82815 0.15984 0.0
O66 O 0.07944 0.813 0.11127 0.0
C67 C 0.10486 0.88305 0.07925 0.0
C68 C 0.07799 0.81792 0.14198 0.0
O69 O 0.17771 0.83652 0.1419 0.0
Mg70 Mg 0.5212 0.74979 0.41037 0.0
O71 O 0.53493 0.80684 0.44546 0.0
O72 O 0.50461 0.81115 0.48174 0.0
Mg73 Mg 0.47446 0.75352 0.46832 0.0
C74 C 0.52635 0.82573 0.46956 0.0
C75 C 0.57895 0.74572 0.37646 0.0
O76 O 0.56484 0.71318 0.36207 0.0
O77 O 0.53701 0.71821 0.44469 0.0
O78 O 0.50402 0.71664 0.47884 0.0
O79 O 0.49593 0.77047 0.37836 0.0
O80 O 0.47362 0.7428 0.41161 0.0
C81 C 0.52564 0.70662 0.46767 0.0
C82 C 0.4721 0.75985 0.38986 0.0
O83 O 0.56709 0.76489 0.39639 0.0
Mg84 Mg 0.62892 0.32949 0.62066 0.0
O85 O 0.61791 0.27097 0.58993 0.0
O86 O 0.57778 0.25591 0.55426 0.0
Mg87 Mg 0.55377 0.29957 0.56972 0.0
C88 C 0.59982 0.24842 0.56607 0.0
C89 C 0.6831 0.32725 0.67009 0.0
O90 O 0.66192 0.32578 0.68836 0.0
O91 O 0.62304 0.3718 0.58995 0.0
O92 O 0.57913 0.351 0.55965 0.0
O93 O 0.603 0.3268 0.66572 0.0
O94 O 0.58103 0.3192 0.61797 0.0
C95 C 0.60304 0.37515 0.56972 0.0
C96 C 0.5788 0.31988 0.64784 0.0
O97 O 0.67813 0.33161 0.64131 0.0
Mg98 Mg 0.02071 0.2493 0.91084 0.0
O99 O 0.03354 0.30552 0.94751 0.0
O100 O 1.00082 0.30737 0.98137 0.0
Mg101 Mg 0.9707 0.25023 0.9675 0.0
C102 C 0.02323 0.32311 0.97091 0.0
C103 C 0.07704 0.24521 0.87501 0.0
O104 O 0.06123 0.21405 0.85819 0.0
O105 O 0.03575 0.21779 0.94523 0.0
O106 O 1.00148 0.21458 0.97789 0.0
O107 O 0.99568 0.26994 0.87845 0.0
O108 O 0.97407 0.24369 0.91267 0.0
C109 C 0.02377 0.20557 0.96754 0.0
C110 C 0.97227 0.26106 0.89134 0.0
O111 O 0.06664 0.26393 0.89717 0.0
Mg112 Mg 0.4459 0.07382 0.33085 0.0
O113 O 0.41995 0.01524 0.3143 0.0
O114 O 0.39788 1.00447 0.35738 0.0
Mg115 Mg 0.40341 0.05548 0.39556 0.0
C116 C 0.40425 0.99458 0.32829 0.0
C117 C 0.4655 0.06807 0.25158 0.0
O118 O 0.46767 0.09041 0.23425 0.0
O119 O 0.40635 0.08876 0.32104 0.0
O120 O 0.37734 0.0667 0.35401 0.0
O121 O 0.48124 0.06061 0.35132 0.0
O122 O 0.4461 0.07434 0.37979 0.0
C123 C 0.3815 0.07971 0.32986 0.0
C124 C 0.46929 0.06396 0.37819 0.0
O125 O 0.45778 0.07598 0.28011 0.0
Mg126 Mg 0.30194 0.18879 0.49996 0.0
O127 O 0.3034 0.22135 0.55476 0.0
O128 O 0.34767 0.2566 0.57214 0.0
Mg129 Mg 0.37533 0.24619 0.52848 0.0
C130 C 0.32188 0.24421 0.57793 0.0
C131 C 0.23689 0.13949 0.47964 0.0
O132 O 0.2513 0.11865 0.46433 0.0
O133 O 0.3052 0.23219 0.47244 0.0
O134 O 0.35245 0.25926 0.48473 0.0
O135 O 0.31669 0.14932 0.51963 0.0
O136 O 0.34711 0.19252 0.5079 0.0
C137 C 0.32802 0.25294 0.46693 0.0
C138 C 0.34319 0.16573 0.51856 0.0
O139 O 0.2509 0.17067 0.49532 0.0
Mg140 Mg 0.1848 1.00284 0.7645 0.0
O141 O 0.21911 0.06067 0.77377 0.0
O142 O 0.25164 0.07139 0.8178 0.0
Mg143 Mg 0.23572 0.02635 0.84447 0.0
C144 C 0.24221 0.0807 0.79338 0.0
C145 C 0.14259 0.01506 0.69538 0.0
O146 O 0.12653 0.02507 0.71791 0.0
O147 O 0.21761 0.95799 0.76194 0.0
O148 O 0.24575 0.9759 0.81042 0.0
O149 O 0.14715 0.00976 0.80145 0.0
O150 O 0.18821 0.01211 0.82298 0.0
C151 C 0.23769 0.95332 0.78197 0.0
C152 C 0.16226 0.0129 0.82855 0.0
O153 O 0.1645 1.00445 0.70501 0.0
Mg154 Mg 0.3732 0.9828 0.01474 0.0
O155 O 0.36859 0.93264 0.97598 0.0
O156 O 0.40932 0.91606 0.97766 0.0
Mg157 Mg 0.43598 0.95013 0.02674 0.0
C158 C 0.38374 0.91242 0.96424 0.0
C159 C 0.32006 0.9995 0.0264 0.0
O160 O 0.33775 0.0096 0.0543 0.0
O161 O 0.35819 0.94965 0.04833 0.0
O162 O 0.39727 0.92976 0.05083 0.0
O163 O 0.39962 0.01206 0.98381 0.0
O164 O 0.4164 0.98993 0.02107 0.0
C165 C 0.37187 0.93041 0.05746 0.0
C166 C 0.42079 1.0044 0.99782 0.0
O167 O 0.32776 0.98339 1.00026 0.0
Mg168 Mg 0.34984 0.40558 0.04807 0.0
O169 O 0.34398 0.36717 0.99485 0.0
O170 O 0.37851 0.34043 0.99403 0.0
Mg171 Mg 0.40513 0.36168 0.04763 0.0
C172 C 0.3573 0.34648 0.97898 0.0
C173 C 0.30293 0.44025 0.03606 0.0
O174 O 0.32645 0.46647 0.04629 0.0
O175 O 0.33338 0.36733 0.07933 0.0
O176 O 0.37192 0.34748 0.08427 0.0
O177 O 0.38011 0.44606 0.03004 0.0
O178 O 0.39513 0.41235 0.05562 0.0
C179 C 0.34772 0.35144 0.09332 0.0
C180 C 0.40146 0.43698 0.04179 0.0
O181 O 0.30445 0.41012 0.0354 0.0
Mg182 Mg 0.79667 0.10342 0.02688 0.0
O183 O 0.80456 0.14552 0.07456 0.0
O184 O 0.84827 0.18327 0.08216 0.0
Mg185 Mg 0.87008 0.16295 0.03744 0.0
C186 C 0.82335 0.1733 0.09098 0.0
C187 C 0.72704 0.0702 0.01597 0.0
O188 O 0.72924 0.04797 0.98851 0.0
O189 O 0.79133 0.14313 1.00173 0.0
O190 O 0.83691 0.17679 0.00554 0.0
O191 O 0.81808 0.06695 0.04401 0.0
O192 O 0.84015 0.11091 0.02674 0.0
C193 C 0.80964 0.16805 0.99556 0.0
C194 C 0.84123 0.0836 0.03461 0.0
O195 O 0.74956 0.09144 0.03417 0.0
Mg196 Mg 0.20882 0.52936 0.2173 0.0
O197 O 0.2367 0.58417 0.23977 0.0
O198 O 0.25406 0.58903 0.29165 0.0
Mg199 Mg 0.23409 0.53822 0.30287 0.0
C200 C 0.25236 0.60148 0.26722 0.0
C201 C 0.18363 0.52074 0.15622 0.0
O202 O 0.17156 0.4955 0.1686 0.0
O203 O 0.24863 0.51105 0.21137 0.0
O204 O 0.26023 0.51489 0.26464 0.0
O205 O 0.16981 0.544 0.23314 0.0
O206 O 0.19819 0.52556 0.26339 0.0
C207 C 0.26458 0.50722 0.23441 0.0
C208 C 0.17668 0.53836 0.26081 0.0
O209 O 0.20866 0.54024 0.16886 0.0
Mg210 Mg 0.8497 0.90074 0.54865 0.0
O211 O 0.84155 0.86274 0.49536 0.0
O212 O 0.87361 0.83312 0.49102 0.0
Mg213 Mg 0.90173 0.85254 0.54387 0.0
C214 C 0.85243 0.84061 0.47758 0.0
C215 C 0.80068 0.93706 0.54399 0.0
O216 O 0.82185 0.9643 0.56043 0.0
O217 O 0.83239 0.86182 0.5791 0.0
O218 O 0.86968 0.83954 0.58221 0.0
O219 O 0.88024 0.94012 0.53001 0.0
O220 O 0.89483 0.90527 0.55454 0.0
C221 C 0.84595 0.84444 0.59201 0.0
C222 C 0.90136 0.92994 0.54072 0.0
O223 O 0.80494 0.9073 0.53678 0.0
Mg224 Mg 0.96396 0.08282 0.28168 0.0
O225 O 0.92981 0.02518 0.27302 0.0
O226 O 0.90376 0.02986 0.31523 0.0
Mg227 Mg 0.92124 0.0869 0.35101 0.0
C228 C 0.91016 0.01125 0.28897 0.0
C229 C 0.99682 0.08967 0.20683 0.0
O230 O 0.00621 0.12276 0.22283 0.0
O231 O 0.92649 0.11767 0.27289 0.0
O232 O 0.90666 0.12222 0.31893 0.0
O233 O 0.99811 0.06581 0.31505 0.0
O234 O 0.96703 0.08857 0.33866 0.0
C235 C 0.90905 0.13086 0.29186 0.0
C236 C 0.9881 0.07487 0.34261 0.0
O237 O 0.97995 0.06984 0.22179 0.0
Mg238 Mg 0.29551 0.60847 0.51905 0.0
O239 O 0.28807 0.64217 0.56901 0.0
O240 O 0.33249 0.67974 0.58836 0.0
Mg241 Mg 0.3669 0.66936 0.55582 0.0
C242 C 0.30537 0.66899 0.59019 0.0
C243 C 0.22391 0.58991 0.49034 0.0
O244 O 0.20507 0.57355 0.46355 0.0
O245 O 0.29729 0.65559 0.50407 0.0
O246 O 0.34259 0.6902 0.52055 0.0
O247 O 0.31065 0.56448 0.53053 0.0
O248 O 0.33705 0.61803 0.54174 0.0
C249 C 0.31683 0.68306 0.50575 0.0
C250 C 0.33621 0.58632 0.53684 0.0
O251 O 0.24981 0.58778 0.4898 0.0
Mg252 Mg 0.46333 0.58172 0.78301 0.0
O253 O 0.42832 0.52451 0.77401 0.0
O254 O 0.40422 0.53107 0.8178 0.0
Mg255 Mg 0.42166 0.58814 0.85308 0.0
C256 C 0.40933 0.51159 0.79118 0.0
C257 C 0.50136 0.58155 0.71024 0.0
O258 O 0.52328 0.60321 0.73175 0.0
O259 O 0.42674 0.61806 0.77467 0.0
O260 O 0.40748 0.62344 0.82099 0.0
O261 O 0.49605 0.56206 0.81598 0.0
O262 O 0.46694 0.58754 0.84033 0.0
C263 C 0.40969 0.63182 0.79382 0.0
C264 C 0.48676 0.57189 0.84392 0.0
O265 O 0.4772 0.56984 0.72195 0.0
Mg266 Mg 0.71221 0.02445 0.7242 0.0
O267 O 0.73754 0.08014 0.72936 0.0
O268 O 0.76422 0.10336 0.77947 0.0
Mg269 Mg 0.7609 0.0611 0.80496 0.0
C270 C 0.75493 0.10544 0.75127 0.0
C271 C 0.66619 0.01319 0.67247 0.0
O272 O 0.65388 1.00042 0.69512 0.0
O273 O 0.75013 1.00536 0.70415 0.0
O274 O 0.76722 0.03214 0.75574 0.0
O275 O 0.68004 0.04381 0.75275 0.0
O276 O 0.71725 0.03399 0.77785 0.0
C277 C 0.77091 0.01556 0.72759 0.0
C278 C 0.69438 0.04456 0.7797 0.0
O279 O 0.69361 0.02265 0.67445 0.0
Mg280 Mg 0.80198 0.68538 0.99632 0.0
O281 O 0.80279 0.71791 0.05154 0.0
O282 O 0.84801 0.75025 0.07044 0.0
Mg283 Mg 0.87621 0.74033 0.02735 0.0
C284 C 0.82178 0.73885 0.07549 0.0
C285 C 0.73913 0.63536 0.98128 0.0
O286 O 0.7555 0.61432 0.97402 0.0
O287 O 0.80741 0.72881 0.96863 0.0
O288 O 0.85501 0.75475 0.98332 0.0
O289 O 0.81448 0.64397 0.01467 0.0
O290 O 0.84649 0.68781 0.00647 0.0
C291 C 0.83117 0.74932 0.96478 0.0
C292 C 0.84147 0.66003 0.01565 0.0
O293 O 0.75125 0.66795 0.99013 0.0
Mg294 Mg 0.94214 0.56907 0.82431 0.0
O295 O 0.91219 0.51564 0.81541 0.0
O296 O 0.89229 0.50706 0.85998 0.0
Mg297 Mg 0.90545 0.56136 0.89493 0.0
C298 C 0.89655 0.49629 0.8301 0.0
C299 C 0.97012 0.55434 0.76344 0.0
O300 O 0.99176 0.57614 0.78535 0.0
O301 O 0.90447 0.58854 0.8166 0.0
O302 O 0.87761 0.57203 0.85385 0.0
O303 O 0.9756 0.55045 0.84088 0.0
O304 O 0.94839 0.57423 0.87547 0.0
C305 C 0.88051 0.5827 0.82815 0.0
C306 C 0.96783 0.55742 0.86984 0.0
O307 O 0.94442 0.55121 0.77018 0.0
Mg308 Mg 0.86651 0.47487 0.51948 0.0
O309 O 0.86037 0.42962 0.47208 0.0
O310 O 0.9021 0.4148 0.46816 0.0
Mg311 Mg 0.92321 0.43319 0.52099 0.0
C312 C 0.87608 0.41195 0.45656 0.0
C313 C 0.81601 0.5045 0.52478 0.0
O314 O 0.83768 0.52804 0.54527 0.0
O315 O 0.85417 0.4388 0.55321 0.0
O316 O 0.87641 0.40593 0.52288 0.0
O317 O 0.89582 0.51044 0.49496 0.0
O318 O 0.91025 0.48065 0.52594 0.0
C319 C 0.8636 0.41215 0.54779 0.0
C320 C 0.91648 0.50078 0.50755 0.0
O321 O 0.82053 0.47701 0.5075 0.0
Mg322 Mg 0.68589 0.50195 0.26546 0.0
O323 O 0.71983 0.5597 0.27384 0.0
O324 O 0.75172 0.57202 0.31883 0.0
Mg325 Mg 0.73591 0.52832 0.34708 0.0
C326 C 0.74262 0.58032 0.29359 0.0
C327 C 0.64388 0.51408 0.19638 0.0
O328 O 0.62917 0.52547 0.21989 0.0
O329 O 0.72013 0.45882 0.26473 0.0
O330 O 0.74602 0.4777 0.31438 0.0
O331 O 0.64811 0.50964 0.30229 0.0
O332 O 0.68903 0.5123 0.32409 0.0
C333 C 0.73965 0.45493 0.28603 0.0
C334 C 0.66311 0.51307 0.32956 0.0
O335 O 0.66523 0.50221 0.20534 0.0
Tb336 Tb 0.04223 0.01696 0.99448 0.0
C337 C 0.12309 0.14991 0.07924 0.0
C338 C 0.12638 0.18537 0.04145 0.0
C339 C 0.13927 0.2127 0.10051 0.0
C340 C 0.11951 0.15253 0.04727 0.0
C341 C 0.13351 0.17999 0.10607 0.0
C342 C 0.13578 0.21537 0.06825 0.0
C343 C 0.13674 0.14364 0.14156 0.0
N344 N 0.1191 0.11793 0.08368 0.0
C345 C 0.12688 0.11449 0.11412 0.0
C346 C 0.13937 0.17644 0.13755 0.0
Tb347 Tb 0.107 0.07267 0.03662 0.0
N348 N 0.11165 0.12297 0.02178 0.0
C349 C 0.11132 0.12483 0.98984 0.0
C350 C 0.1249 0.18714 0.00881 0.0
C351 C 0.11747 0.15671 0.98291 0.0
H352 H 0.12544 0.08925 0.1173 0.0
H353 H 0.11655 0.15773 0.95753 0.0
H354 H 0.14126 0.24076 0.06423 0.0
H355 H 0.14226 0.14077 0.16573 0.0
H356 H 0.10525 0.10184 0.96926 0.0
H357 H 1.00215 0.94388 0.08173 0.0
H358 H 0.13008 0.21184 1.00336 0.0
H359 H 0.03865 0.98302 0.9121 0.0
H360 H 0.01239 0.99356 0.06167 0.0
H361 H 0.03973 0.92825 0.87405 0.0
H362 H 0.14746 0.23607 0.12088 0.0
H363 H 0.00959 0.88922 0.04946 0.0
H364 H 0.02082 0.85498 0.99716 0.0
H365 H 0.14663 0.19911 0.15857 0.0
H366 H 0.03087 0.85053 0.9403 0.0
N367 N 0.02992 0.97111 0.01809 0.0
C368 C 0.01787 0.97165 0.04695 0.0
C369 C 0.0153 0.91182 0.04044 0.0
C370 C 0.02502 0.90997 0.0098 0.0
C371 C 0.01107 0.94257 0.05867 0.0
C372 C 0.03208 0.9402 0.99893 0.0
H373 H 0.03753 0.8774 0.89423 0.0
N374 N 0.04195 0.96615 0.95578 0.0
C375 C 0.03903 0.93038 0.90004 0.0
C376 C 0.03824 0.93769 0.96688 0.0
C377 C 0.03925 0.9618 0.92216 0.0
C378 C 0.03835 0.90195 0.91161 0.0
C379 C 0.03677 0.90494 0.94507 0.0
O380 O 0.01683 0.02014 0.9532 0.0
O381 O 0.06999 0.06958 1.00179 0.0
O382 O 0.07595 0.0782 0.07511 0.0
O383 O 0.03269 0.03967 0.04629 0.0
O384 O 0.02733 0.06389 0.00734 0.0
O385 O 0.99817 0.98993 0.98546 0.0
O386 O 0.13976 0.04675 0.03234 0.0
O387 O 0.08257 0.01798 0.02117 0.0
O388 O 0.07552 0.01943 0.95659 0.0
O389 O 0.11869 0.05566 0.98604 0.0
O390 O 0.10207 0.03871 0.0692 0.0
O391 O 0.15078 0.10199 0.0453 0.0
C392 C 0.05102 0.08679 0.00739 0.0
C393 C 0.96503 1.00328 0.9508 0.0
C394 C 0.92052 0.01666 0.9666 0.0
C395 C 0.95028 0.02025 0.97453 0.0
C396 C 0.90594 0.99545 0.93531 0.0
C397 C 0.95059 0.98479 0.919 0.0
C398 C 0.92108 0.98037 0.91146 0.0
C399 C 0.04754 0.06284 0.07446 0.0
C400 C 0.99373 0.99929 0.95892 0.0
C401 C 0.03178 0.87565 0.95667 0.0
C402 C 0.02601 0.87818 0.98901 0.0
C403 C 0.08725 0.00995 0.04816 0.0
C404 C 0.18679 0.07756 0.06051 0.0
C405 C 0.20662 0.06161 0.04525 0.0
C406 C 0.23256 0.06357 0.06341 0.0
C407 C 0.23912 0.08239 0.09697 0.0
C408 C 0.19348 0.09673 0.094 0.0
C409 C 0.21958 0.09905 0.11217 0.0
C410 C 0.10408 0.03494 0.95743 0.0
C411 C 0.16057 0.07525 0.03966 0.0
H412 H 0.96169 0.03572 0.99877 0.0
H413 H 0.88298 0.99198 0.92891 0.0
H414 H 0.96198 0.97248 0.90032 0.0
H415 H 0.91001 0.96502 0.88713 0.0
H416 H 0.2019 0.04748 0.01915 0.0
H417 H 0.25934 0.0843 0.11118 0.0
H418 H 0.17904 0.11038 0.10597 0.0
H419 H 0.22472 0.11397 0.13793 0.0
Tb420 Tb 0.34645 0.78344 0.24036 0.0
C421 C 0.30904 0.88535 0.33878 0.0
C422 C 0.35159 0.91859 0.37857 0.0
C423 C 0.31644 0.94695 0.36415 0.0
C424 C 0.33522 0.88711 0.35563 0.0
C425 C 0.29861 0.91487 0.34444 0.0
C426 C 0.34294 0.94881 0.38125 0.0
C427 C 0.2513 0.87753 0.31823 0.0
N428 N 0.29186 0.85372 0.3211 0.0
C429 C 0.26247 0.84908 0.31395 0.0
C430 C 0.2697 0.91074 0.33261 0.0
Tb431 Tb 0.31346 0.8091 0.31256 0.0
N432 N 0.34233 0.85709 0.35329 0.0
C433 C 0.36273 0.85633 0.37728 0.0
C434 C 0.37464 0.91826 0.40021 0.0
C435 C 0.37942 0.88677 0.40045 0.0
H436 H 0.24801 0.82346 0.3025 0.0
H437 H 0.39598 0.88584 0.41853 0.0
H438 H 0.35557 0.97325 0.39823 0.0
H439 H 0.2285 0.87378 0.31061 0.0
H440 H 0.3665 0.83251 0.3794 0.0
H441 H 0.25514 0.6789 0.16548 0.0
H442 H 0.38753 0.94178 0.41831 0.0
H443 H 0.41648 0.78768 0.25122 0.0
H444 H 0.27827 0.73031 0.21091 0.0
H445 H 0.44963 0.75565 0.22537 0.0
H446 H 0.30903 0.96999 0.36823 0.0
H447 H 0.28511 0.64729 0.13159 0.0
H448 H 0.33466 0.64111 0.12153 0.0
H449 H 0.26089 0.93274 0.3365 0.0
H450 H 0.38756 0.66115 0.13872 0.0
N451 N 0.32164 0.73025 0.20355 0.0
C452 C 0.29202 0.7179 0.19654 0.0
C453 C 0.29554 0.67042 0.15157 0.0
C454 C 0.32574 0.68221 0.15922 0.0
C455 C 0.2786 0.68814 0.17065 0.0
C456 C 0.33819 0.71252 0.18553 0.0
H457 H 0.43046 0.70297 0.17825 0.0
N458 N 0.37817 0.75171 0.22167 0.0
C459 C 0.42653 0.74602 0.21686 0.0
C460 C 0.3676 0.7234 0.19533 0.0
C461 C 0.40752 0.76375 0.23192 0.0
C462 C 0.41568 0.71645 0.19016 0.0
C463 C 0.38589 0.70489 0.17891 0.0
O464 O 0.37882 0.81388 0.22106 0.0
O465 O 0.33951 0.8261 0.27788 0.0
O466 O 0.29375 0.82603 0.27307 0.0
O467 O 0.30201 0.78919 0.22594 0.0
O468 O 0.38097 0.82947 0.2675 0.0
O469 O 0.33404 0.79581 0.19748 0.0
O470 O 0.27239 0.7844 0.32346 0.0
O471 O 0.32397 0.76624 0.27817 0.0
O472 O 0.37231 0.77099 0.27902 0.0
O473 O 0.35465 0.79566 0.3272 0.0
O474 O 0.28267 0.75891 0.28646 0.0
O475 O 0.31136 0.80351 0.36023 0.0
C476 C 0.36521 0.84561 0.28502 0.0
C477 C 0.37063 0.80702 0.1639 0.0
C478 C 0.37407 0.82856 0.11627 0.0
C479 C 0.36033 0.82375 0.14333 0.0
C480 C 0.39637 0.81329 0.10739 0.0
C481 C 0.39311 0.79175 0.15549 0.0
C482 C 0.40546 0.79422 0.12675 0.0
C483 C 0.28713 0.81054 0.24094 0.0
C484 C 0.36073 0.81222 0.19619 0.0
C485 C 0.37386 0.67551 0.15187 0.0
C486 C 0.34379 0.66419 0.14202 0.0
C487 C 0.30041 0.74279 0.27301 0.0
C488 C 0.26673 0.77675 0.37834 0.0
C489 C 0.28203 0.77495 0.40691 0.0
C490 C 0.2705 0.7487 0.42138 0.0
C491 C 0.24133 0.72895 0.4113 0.0
C492 C 0.23744 0.75751 0.36888 0.0
C493 C 0.22461 0.7343 0.38596 0.0
C494 C 0.37405 0.78106 0.31194 0.0
C495 C 0.28351 0.7886 0.35364 0.0
H496 H 0.34368 0.83661 0.15047 0.0
H497 H 0.40743 0.81737 0.08658 0.0
H498 H 0.40188 0.77928 0.17152 0.0
H499 H 0.42308 0.78297 0.12048 0.0
H500 H 0.3043 0.79069 0.41518 0.0
H501 H 0.23169 0.70901 0.42268 0.0
H502 H 0.22517 0.75841 0.34688 0.0
H503 H 0.20228 0.71877 0.37809 0.0
Tb504 Tb 0.6051 0.04363 0.50471 0.0
C505 C 0.50217 0.99534 0.57924 0.0
C506 C 0.47343 0.94002 0.54323 0.0
C507 C 0.47112 0.95373 0.6023 0.0
C508 C 0.49358 0.9727 0.5481 0.0
C509 C 0.49053 0.98656 0.60671 0.0
C510 C 0.4626 0.93046 0.57058 0.0
C511 C 0.51522 0.0447 0.63992 0.0
N512 N 0.52028 0.02706 0.5822 0.0
C513 C 0.52577 0.05228 0.61177 0.0
C514 C 0.4978 0.01154 0.63747 0.0
Tb515 Tb 0.53588 0.0381 0.53475 0.0
N516 N 0.50434 0.98318 0.52242 0.0
C517 C 0.49467 0.96226 0.49082 0.0
C518 C 0.46438 0.91823 0.51101 0.0
C519 C 0.47494 0.92954 0.48466 0.0
H520 H 0.53853 0.07825 0.61383 0.0
H521 H 0.4679 0.91312 0.45952 0.0
H522 H 0.4472 0.90545 0.56737 0.0
H523 H 0.52023 0.06458 0.66337 0.0
H524 H 0.50231 0.97009 0.47005 0.0
H525 H 0.68215 0.15906 0.58762 0.0
H526 H 0.44899 0.89293 0.50621 0.0
H527 H 0.60311 0.01236 0.42403 0.0
H528 H 0.64969 0.10072 0.57284 0.0
H529 H 0.6189 0.03431 0.377 0.0
H530 H 0.46203 0.94642 0.62311 0.0
H531 H 0.69145 0.19053 0.54545 0.0
H532 H 0.68578 0.18886 0.48553 0.0
H533 H 0.4893 1.00587 0.65919 0.0
H534 H 0.66933 0.15427 0.42753 0.0
N535 N 0.63832 0.09802 0.52203 0.0
C536 C 0.6525 0.11353 0.55368 0.0
C537 C 0.67673 0.16462 0.53859 0.0
C538 C 0.66436 0.14772 0.50579 0.0
C539 C 0.67156 0.14694 0.5624 0.0
C540 C 0.64547 0.11386 0.4982 0.0
H541 H 0.64545 0.09603 0.3868 0.0
N542 N 0.62025 0.0613 0.45991 0.0
C543 C 0.62377 0.05163 0.40187 0.0
C544 C 0.63639 0.09458 0.46585 0.0
C545 C 0.61502 0.03924 0.42854 0.0
C546 C 0.63868 0.0865 0.40747 0.0
C547 C 0.64566 0.10835 0.43985 0.0
O548 O 0.62322 1.00408 0.48234 0.0
O549 O 0.56614 0.00844 0.51545 0.0
O550 O 0.56417 0.03049 0.57291 0.0
O551 O 0.60907 0.05441 0.55809 0.0
O552 O 0.5834 0.99063 0.47473 0.0
O553 O 0.64311 0.03991 0.52969 0.0
O554 O 0.5175 0.07965 0.54923 0.0
O555 O 0.57449 0.07168 0.52363 0.0
O556 O 0.57748 0.05593 0.4698 0.0
O557 O 0.53359 0.02553 0.48081 0.0
O558 O 0.55811 0.09142 0.56477 0.0
O559 O 0.49639 0.03619 0.50807 0.0
C560 C 0.56331 0.98062 0.49173 0.0
C561 C 0.67303 0.0123 0.4962 0.0
C562 C 0.71154 0.98285 0.49235 0.0
C563 C 0.68581 0.98826 0.50447 0.0
C564 C 0.72509 1.0049 0.47383 0.0
C565 C 0.68633 0.03257 0.47669 0.0
C566 C 0.71248 0.02908 0.46587 0.0
C567 C 0.59287 0.04067 0.57776 0.0
C568 C 0.64454 0.01334 0.50621 0.0
C569 C 0.66245 0.14297 0.44715 0.0
C570 C 0.67175 0.16269 0.48015 0.0
C571 C 0.57825 0.09933 0.54719 0.0
C572 C 0.46668 0.06711 0.53876 0.0
C573 C 0.45272 0.09132 0.53242 0.0
C574 C 0.42606 0.09305 0.54425 0.0
C575 C 0.41419 0.07115 0.56323 0.0
C576 C 0.45404 0.04533 0.55745 0.0
C577 C 0.42814 0.04756 0.56981 0.0
C578 C 0.54949 0.0406 0.46143 0.0
C579 C 0.49483 0.06561 0.52695 0.0
H580 H 0.67481 0.97419 0.52013 0.0
H581 H 0.74582 1.00397 0.46558 0.0
H582 H 0.67655 0.05098 0.46989 0.0
H583 H 0.72307 0.04516 0.4512 0.0
H584 H 0.46225 0.10833 0.51801 0.0
H585 H 0.39385 0.07205 0.57265 0.0
H586 H 0.46415 0.02661 0.56255 0.0
H587 H 0.41871 0.03071 0.58436 0.0
Tb588 Tb 0.2939 0.29997 0.77732 0.0
C589 C 0.38788 0.24511 0.82256 0.0
C590 C 0.40885 0.28744 0.87505 0.0
C591 C 0.40938 0.22773 0.86674 0.0
C592 C 0.39411 0.27834 0.84265 0.0
C593 C 0.39636 0.21955 0.83383 0.0
C594 C 0.41557 0.26168 0.88738 0.0
C595 C 0.38268 0.18178 0.77803 0.0
N596 N 0.37583 0.23871 0.79088 0.0
C597 C 0.37503 0.20827 0.76804 0.0
C598 C 0.39285 0.1872 0.81124 0.0
Tb599 Tb 0.36316 0.28336 0.77663 0.0
N600 N 0.38779 0.30235 0.82943 0.0
C601 C 0.39846 0.33659 0.84621 0.0
C602 C 0.41739 0.32231 0.89344 0.0
C603 C 0.41273 0.34712 0.87862 0.0
H604 H 0.36778 0.20421 0.74222 0.0
H605 H 0.42048 0.37436 0.8919 0.0
H606 H 0.42655 0.26802 0.91232 0.0
H607 H 0.38101 0.15735 0.76006 0.0
H608 H 0.39671 0.35581 0.83437 0.0
H609 H 0.21731 0.1848 0.69142 0.0
H610 H 0.42868 0.33045 0.91844 0.0
H611 H 0.29004 0.38108 0.7797 0.0
H612 H 0.2438 0.21965 0.74508 0.0
H613 H 0.28224 0.4124 0.73993 0.0
H614 H 0.41575 0.20836 0.87604 0.0
H615 H 0.21786 0.2095 0.64423 0.0
H616 H 0.23196 0.26154 0.62346 0.0
H617 H 0.39913 0.16684 0.81886 0.0
H618 H 0.25076 0.32472 0.63668 0.0
N619 N 0.26404 0.26395 0.72886 0.0
C620 C 0.24654 0.23102 0.7249 0.0
C621 C 0.23059 0.22503 0.66781 0.0
C622 C 0.2456 0.25968 0.67272 0.0
C623 C 0.23033 0.211 0.69434 0.0
C624 C 0.26171 0.2789 0.70407 0.0
H625 H 0.26841 0.38142 0.68047 0.0
N626 N 0.28359 0.33228 0.74312 0.0
C627 C 0.27992 0.38491 0.73134 0.0
C628 C 0.27232 0.31436 0.71138 0.0
C629 C 0.2845 0.36675 0.75382 0.0
C630 C 0.27229 0.36738 0.69783 0.0
C631 C 0.26705 0.33146 0.68767 0.0
O632 O 0.28195 0.33869 0.81173 0.0
O633 O 0.33492 0.3065 0.80784 0.0
O634 O 0.33214 0.23531 0.78393 0.0
O635 O 0.28642 0.24465 0.77822 0.0
O636 O 0.29721 0.29045 0.82579 0.0
O637 O 0.24985 0.28983 0.78596 0.0
O638 O 0.38475 0.27097 0.73482 0.0
O639 O 0.32717 0.28977 0.74663 0.0
O640 O 0.32624 0.35084 0.78167 0.0
O641 O 0.37132 0.34003 0.77993 0.0
O642 O 0.34209 0.24786 0.72861 0.0
O643 O 0.40662 0.31181 0.77724 0.0
C644 C 0.32485 0.2981 0.83291 0.0
C645 C 0.23302 0.33243 0.82606 0.0
C646 C 0.18673 0.32145 0.84794 0.0
C647 C 0.20668 0.30929 0.82844 0.0
C648 C 0.19302 0.35684 0.86448 0.0
C649 C 0.23887 0.36776 0.84287 0.0
C650 C 0.21891 0.37983 0.86181 0.0
C651 C 0.30305 0.22419 0.78185 0.0
C652 C 0.25523 0.31986 0.80788 0.0
C653 C 0.25428 0.31205 0.65537 0.0
C654 C 0.24348 0.27611 0.64789 0.0
C655 C 0.32437 0.26408 0.72113 0.0
C656 C 0.436 0.28351 0.74334 0.0
C657 C 0.45446 0.29453 0.721 0.0
C658 C 0.48004 0.28389 0.71654 0.0
C659 C 0.48649 0.2617 0.73405 0.0
C660 C 0.44356 0.26213 0.76113 0.0
C661 C 0.46843 0.25101 0.75621 0.0
C662 C 0.35472 0.36153 0.78118 0.0
C663 C 0.40899 0.29429 0.74785 0.0
H664 H 0.2019 0.28193 0.81581 0.0
H665 H 0.17785 0.36662 0.87948 0.0
H666 H 0.25899 0.38608 0.84154 0.0
H667 H 0.22362 0.40709 0.87468 0.0
H668 H 0.44919 0.31154 0.70748 0.0
H669 H 0.50593 0.25319 0.73103 0.0
H670 H 0.43043 0.25414 0.77901 0.0
H671 H 0.4739 0.23431 0.76993 0.0
Tb672 Tb 0.06444 0.07573 0.53277 0.0
C673 C 0.07986 0.95735 0.42331 0.0
C674 C 0.03157 0.92123 0.39767 0.0
C675 C 0.0729 0.91657 0.36847 0.0
C676 C 0.05012 0.94754 0.42438 0.0
C677 C 0.09151 0.94143 0.39548 0.0
C678 C 0.04305 0.90639 0.36962 0.0
C679 C 0.13958 0.97158 0.42476 0.0
N680 N 0.09758 0.98029 0.45037 0.0
C681 C 0.12717 0.98586 0.452 0.0
C682 C 0.12166 0.94955 0.3962 0.0
Tb683 Tb 0.07499 0.99743 0.49557 0.0
N684 N 0.03953 0.96223 0.45205 0.0
C685 C 0.01024 0.95094 0.45396 0.0
C686 C 1.00208 0.90959 0.4002 0.0
C687 C 0.99144 0.92432 0.42855 0.0
H688 H 0.14131 1.00157 0.47451 0.0
H689 H 0.96849 0.91604 0.43044 0.0
H690 H 0.02907 0.88638 0.34896 0.0
H691 H 0.16294 0.97691 0.42612 0.0
H692 H 1.00005 0.96324 0.47355 0.0
H693 H 0.16195 0.14974 0.62095 0.0
H694 H 0.98731 0.8893 0.38037 0.0
H695 H 0.99817 0.08499 0.54122 0.0
H696 H 0.13435 0.12329 0.56657 0.0
H697 H 0.97035 0.10328 0.58639 0.0
H698 H 0.08151 0.90418 0.34698 0.0
H699 H 0.13753 0.15193 0.67079 0.0
H700 H 0.09078 0.14489 0.69469 0.0
H701 H 0.13133 0.93781 0.37535 0.0
H702 H 0.03778 0.1339 0.68513 0.0
N703 N 0.0934 0.10512 0.5835 0.0
C704 C 0.12262 0.12164 0.58722 0.0
C705 C 0.12498 0.13894 0.64657 0.0
C706 C 0.09477 0.12646 0.64275 0.0
C707 C 0.1388 0.13781 0.61854 0.0
C708 C 0.07942 0.11005 0.6105 0.0
H709 H 0.99308 0.12074 0.64465 0.0
N710 N 0.03664 0.09224 0.57346 0.0
C711 C 0.99265 0.10337 0.59207 0.0
C712 C 0.04983 0.10391 0.60521 0.0
C713 C 0.00857 0.0932 0.56655 0.0
C714 C 0.00547 0.11296 0.62492 0.0
C715 C 0.03455 0.11392 0.63185 0.0
O716 O 0.04627 0.11384 0.52332 0.0
O717 O 0.06081 0.04032 0.48195 0.0
O718 O 0.10411 0.03527 0.47594 0.0
O719 O 0.10997 0.07962 0.52251 0.0
O720 O 0.02719 0.05871 0.4924 0.0
O721 O 0.09208 0.1193 0.52346 0.0
O722 O 0.10418 0.97109 0.50818 0.0
O723 O 0.07713 0.03279 0.54559 0.0
O724 O 0.0289 0.03903 0.54719 0.0
O725 O 0.03465 0.98726 0.51703 0.0
O726 O 0.111 0.01409 0.53698 0.0
O727 O 0.05725 0.94609 0.49675 0.0
C728 C 0.03624 0.04132 0.46724 0.0
C729 C 0.07764 0.17077 0.53314 0.0
C730 C 0.09665 0.22384 0.51838 0.0
C731 C 0.09649 0.18985 0.51655 0.0
C732 C 0.08073 0.2404 0.54074 0.0
C733 C 0.06164 0.18714 0.55548 0.0
C734 C 0.06388 0.22225 0.55987 0.0
C735 C 0.11982 0.06526 0.4955 0.0
C736 C 0.07118 0.1332 0.52047 0.0
C737 C 0.04924 0.12675 0.66431 0.0
C738 C 0.07939 0.13291 0.66977 0.0
C739 C 0.10125 0.03214 0.5609 0.0
C740 C 0.08768 0.91178 0.51113 0.0
C741 C 0.06499 0.88771 0.51914 0.0
C742 C 0.07095 0.8621 0.53237 0.0
C743 C 0.09927 0.85855 0.5342 0.0
C744 C 0.11581 0.90771 0.51293 0.0
C745 C 0.1214 0.88081 0.52387 0.0
C746 C 0.02014 1.00481 0.53674 0.0
C747 C 0.08293 0.94346 0.50538 0.0
H748 H 0.10814 0.17683 0.49854 0.0
H749 H 0.08031 0.26661 0.54224 0.0
H750 H 0.04669 0.17263 0.56833 0.0
H751 H 0.05118 0.23482 0.57663 0.0
H752 H 0.04322 0.89057 0.51788 0.0
H753 H 0.10435 0.83896 0.54425 0.0
H754 H 0.13362 0.92584 0.50672 0.0
H755 H 0.14319 0.87802 0.52555 0.0
Tb756 Tb 0.35269 0.80919 0.76529 0.0
C757 C 0.2796 0.71582 0.83151 0.0
C758 C 0.28491 0.66013 0.80155 0.0
C759 C 0.27292 0.66922 0.85763 0.0
C760 C 0.28545 0.69456 0.80325 0.0
C761 C 0.27283 0.70322 0.85887 0.0
C762 C 0.27886 0.6477 0.82899 0.0
C763 C 0.26321 0.75732 0.88514 0.0
N764 N 0.27938 0.74839 0.83165 0.0
C765 C 0.26951 0.76832 0.85712 0.0
C766 C 0.26526 0.72478 0.88621 0.0
Tb767 Tb 0.28831 0.7629 0.78373 0.0
N768 N 0.29113 0.70745 0.77722 0.0
C769 C 0.29563 0.6867 0.7482 0.0
C770 C 0.29032 0.63919 0.77226 0.0
C771 C 0.29561 0.65252 0.74544 0.0
H772 H 0.26674 0.79283 0.85586 0.0
H773 H 0.29963 0.63649 0.72258 0.0
H774 H 0.27849 0.62139 0.82821 0.0
H775 H 0.25632 0.7737 0.90565 0.0
H776 H 0.29971 0.6965 0.72717 0.0
H777 H 0.38922 0.94446 0.83887 0.0
H778 H 0.29027 0.61268 0.77004 0.0
H779 H 0.36773 0.78394 0.68616 0.0
H780 H 0.38215 0.88244 0.82862 0.0
H781 H 0.37286 0.8075 0.63889 0.0
H782 H 0.26788 0.65913 0.87844 0.0
H783 H 0.37637 0.968 0.79381 0.0
H784 H 0.36345 0.95816 0.73333 0.0
H785 H 0.25999 0.71611 0.90775 0.0
H786 H 0.35955 0.91999 0.67734 0.0
N787 N 0.36208 0.8689 0.77822 0.0
C788 C 0.37529 0.89148 0.80849 0.0
C789 C 0.37247 0.94029 0.78913 0.0
C790 C 0.36287 0.91788 0.75729 0.0
C791 C 0.3799 0.92716 0.81455 0.0
C792 C 0.35846 0.88192 0.75239 0.0
H793 H 0.36539 0.86464 0.6423 0.0
N794 N 0.35719 0.82745 0.71766 0.0
C795 C 0.36761 0.82245 0.66156 0.0
C796 C 0.35606 0.86037 0.72081 0.0
C797 C 0.3648 0.80936 0.68883 0.0
C798 C 0.36314 0.85455 0.66351 0.0
C799 C 0.35824 0.87443 0.6936 0.0
O800 O 0.38738 0.79486 0.74298 0.0
O801 O 0.33069 0.75623 0.76849 0.0
O802 O 0.31788 0.78438 0.8298 0.0
O803 O 0.34424 0.83137 0.81531 0.0
O804 O 0.37122 0.77786 0.79154 0.0
O805 O 0.39455 0.83107 0.79164 0.0
O806 O 0.24745 0.77135 0.78857 0.0
O807 O 0.30662 0.81013 0.76733 0.0
O808 O 0.32595 0.7768 0.71769 0.0
O809 O 0.28226 0.7487 0.73094 0.0
O810 O 0.27805 0.81358 0.79948 0.0
O811 O 0.25162 0.72335 0.75685 0.0
C812 C 0.35144 0.74907 0.78475 0.0
C813 C 0.43363 0.83578 0.76104 0.0
C814 C 0.48626 0.85316 0.77162 0.0
C815 C 0.45949 0.83104 0.77342 0.0
C816 C 0.48717 0.87935 0.75613 0.0
C817 C 0.43456 0.86197 0.74556 0.0
C818 C 0.46134 0.88344 0.74282 0.0
C819 C 0.33604 0.81543 0.83767 0.0
C820 C 0.40648 0.81516 0.76793 0.0
C821 C 0.35858 0.90907 0.69806 0.0
C822 C 0.3608 0.93082 0.72996 0.0
C823 C 0.29311 0.83212 0.78291 0.0
C824 C 0.20502 0.72487 0.77161 0.0
C825 C 0.18311 0.73303 0.75506 0.0
C826 C 0.15454 0.7223 0.76072 0.0
C827 C 0.14739 0.70149 0.78202 0.0
C828 C 0.19838 0.70414 0.79301 0.0
C829 C 0.16936 0.69208 0.79784 0.0
C830 C 0.29887 0.75658 0.70933 0.0
C831 C 0.23425 0.74182 0.76732 0.0
H832 H 0.45883 0.81115 0.78587 0.0
H833 H 0.50779 0.89664 0.75461 0.0
H834 H 0.41481 0.86629 0.73625 0.0
H835 H 0.46206 0.90374 0.731 0.0
H836 H 0.18851 0.74961 0.73893 0.0
H837 H 0.12518 0.69322 0.78678 0.0
H838 H 0.2154 0.69792 0.80621 0.0
H839 H 0.164 0.67625 0.81449 0.0
Tb840 Tb 0.57964 0.0252 0.06521 0.0
C841 C 0.51351 0.0606 0.95622 0.0
C842 C 0.49564 1.00588 0.91406 0.0
C843 C 0.46942 0.04909 0.9183 0.0
C844 C 0.51594 0.02815 0.94158 0.0
C845 C 0.49052 0.07177 0.94434 0.0
C846 C 0.47214 0.01627 0.90294 0.0
C847 C 0.51358 0.12879 0.98054 0.0
N848 N 0.53499 0.08225 0.98025 0.0
C849 C 0.53626 0.1167 0.99056 0.0
C850 C 0.49025 0.10601 0.95775 0.0
Tb851 Tb 0.57225 0.06106 0.99563 0.0
N852 N 0.53872 0.01885 0.95348 0.0
C853 C 0.54238 0.98721 0.93776 0.0
C854 C 0.49959 0.97391 0.89829 0.0
C855 C 0.5232 0.96475 0.91007 0.0
H856 H 0.55504 0.13502 0.00647 0.0
H857 H 0.52635 0.93999 0.89818 0.0
H858 H 0.45617 0.99928 0.88224 0.0
H859 H 0.51452 0.15585 0.98976 0.0
H860 H 0.55954 0.97793 0.9461 0.0
H861 H 0.63068 0.13312 0.17445 0.0
H862 H 0.48458 0.95613 0.87712 0.0
H863 H 0.58245 0.9451 0.05382 0.0
H864 H 0.59703 0.10439 0.12497 0.0
H865 H 0.617 0.91416 0.06718 0.0
H866 H 0.45154 0.05713 0.90906 0.0
H867 H 0.66948 0.10884 0.18968 0.0
H868 H 0.69303 0.06104 0.17742 0.0
H869 H 0.47298 0.11554 0.94938 0.0
H870 H 0.69117 1.00205 0.14558 0.0
N871 N 0.61408 0.06032 0.10999 0.0
C872 C 0.61276 0.09158 0.13006 0.0
C873 C 0.65418 0.09506 0.16743 0.0
C874 C 0.65562 0.06329 0.1475 0.0
C875 C 0.63239 0.1089 0.15888 0.0
C876 C 0.63483 0.04608 0.11892 0.0
H877 H 0.66293 0.94681 0.10407 0.0
N878 N 0.61076 0.99514 0.07745 0.0
C879 C 0.6226 0.94209 0.07598 0.0
C880 C 0.63364 0.01278 0.10135 0.0
C881 C 0.60339 0.95976 0.06771 0.0
C882 C 0.64838 0.96058 0.09696 0.0
C883 C 0.65335 0.99606 0.11146 0.0
O884 O 0.54932 0.98154 0.07056 0.0
O885 O 0.55298 0.03011 0.02497 0.0
O886 O 0.55164 0.08812 0.0349 0.0
O887 O 0.565 0.07201 0.08129 0.0
O888 O 0.54236 0.98369 0.03272 0.0
O889 O 0.56258 0.02926 0.11066 0.0
O890 O 0.58991 0.10307 0.97698 0.0
O891 O 0.60061 0.05916 0.03648 0.0
O892 O 0.60716 1.00465 0.03092 0.0
O893 O 0.59423 0.01944 0.98307 0.0
O894 O 0.60383 0.10556 0.0299 0.0
O895 O 0.59804 0.05356 0.9581 0.0
C896 C 0.53427 1.00155 0.0151 0.0
C897 C 0.53782 0.97678 0.12361 0.0
C898 C 0.50977 0.97028 0.16881 0.0
C899 C 0.52504 0.99106 0.15067 0.0
C900 C 0.50803 0.93493 0.16046 0.0
C901 C 0.53632 0.94137 0.11566 0.0
C902 C 0.52168 0.92069 0.13425 0.0
C903 C 0.55385 0.09169 0.06718 0.0
C904 C 0.54616 0.99736 0.10036 0.0
C905 C 0.67566 0.01432 0.13781 0.0
C906 C 0.67661 0.04781 0.15604 0.0
C907 C 0.61725 0.08989 0.0455 0.0
C908 C 0.59802 0.08608 0.92101 0.0
C909 C 0.62013 0.08024 0.90244 0.0
C910 C 0.61747 0.07874 0.86906 0.0
C911 C 0.59266 0.08376 0.85405 0.0
C912 C 0.57299 0.09087 0.90614 0.0
C913 C 0.57046 0.08986 0.87267 0.0
C914 C 0.60755 1.00265 0.99907 0.0
C915 C 0.60156 0.08446 0.95502 0.0
H916 H 0.52507 0.018 0.15619 0.0
H917 H 0.49567 0.91841 0.17373 0.0
H918 H 0.54527 0.92936 0.09433 0.0
H919 H 0.52001 0.89332 0.12753 0.0
H920 H 0.63925 0.0759 0.91374 0.0
H921 H 0.59043 0.08262 0.82807 0.0
H922 H 0.5555 0.09506 0.92013 0.0
H923 H 0.55119 0.09347 0.86108 0.0
Tb924 Tb 0.36097 0.34732 0.29932 0.0
C925 C 0.24709 0.24114 0.23232 0.0
C926 C 0.21793 0.24522 0.27715 0.0
C927 C 0.19438 0.21967 0.22067 0.0
C928 C 0.2453 0.25036 0.26568 0.0
C929 C 0.22158 0.2247 0.20935 0.0
C930 C 0.19251 0.23046 0.25441 0.0
C931 C 0.25175 0.21457 0.16646 0.0
N932 N 0.27384 0.2452 0.2226 0.0
C933 C 0.27632 0.23057 0.19024 0.0
C934 C 0.2242 0.21188 0.176 0.0
Tb935 Tb 0.3128 0.26335 0.26375 0.0
N936 N 0.27036 0.26228 0.28697 0.0
C937 C 0.2691 0.26863 0.32032 0.0
C938 C 0.21684 0.25337 0.31115 0.0
C939 C 0.24259 0.2649 0.33282 0.0
H940 H 0.29736 0.23027 0.18288 0.0
H941 H 0.24211 0.27079 0.35925 0.0
H942 H 0.17135 0.22588 0.26275 0.0
H943 H 0.25408 0.20334 0.14097 0.0
H944 H 0.28823 0.27751 0.3381 0.0
H945 H 0.42305 0.3436 0.19344 0.0
H946 H 0.19627 0.24998 0.32087 0.0
H947 H 0.38584 0.37158 0.37965 0.0
H948 H 0.38367 0.31888 0.22076 0.0
H949 H 0.42989 0.40894 0.41585 0.0
H950 H 0.17467 0.20631 0.20381 0.0
H951 H 0.46491 0.39158 0.22557 0.0
H952 H 0.49102 0.42966 0.28099 0.0
H953 H 0.20516 0.19865 0.15769 0.0
H954 H 0.49322 0.44637 0.34141 0.0
N955 N 0.40055 0.35415 0.26913 0.0
C956 C 0.40087 0.34034 0.23582 0.0
C957 C 0.44732 0.38089 0.23802 0.0
C958 C 0.44876 0.39213 0.27234 0.0
C959 C 0.42372 0.35396 0.21985 0.0
C960 C 0.42521 0.37739 0.28732 0.0
H961 H 0.47192 0.43608 0.39201 0.0
N962 N 0.40416 0.37031 0.33466 0.0
C963 C 0.42973 0.40196 0.38929 0.0
C964 C 0.42728 0.38531 0.32133 0.0
C965 C 0.40501 0.37933 0.36841 0.0
C966 C 0.45337 0.4174 0.37573 0.0
C967 C 0.45224 0.40958 0.34139 0.0
O968 O 0.34966 0.38009 0.34077 0.0
O969 O 0.31712 0.31432 0.29417 0.0
O970 O 0.31384 0.29049 0.22432 0.0
O971 O 0.34895 0.34416 0.24653 0.0
O972 O 0.32194 0.36054 0.28415 0.0
O973 O 0.37632 0.40072 0.30768 0.0
O974 O 0.31978 0.21772 0.23502 0.0
O975 O 0.358 0.29298 0.28324 0.0
O976 O 0.35961 0.31905 0.33898 0.0
O977 O 0.32746 0.26464 0.31445 0.0
O978 O 0.34936 0.25935 0.2372 0.0
O979 O 0.29906 0.21826 0.27924 0.0
C980 C 0.30311 0.33377 0.28683 0.0
C981 C 0.34853 0.43469 0.33493 0.0
C982 C 0.32642 0.46729 0.30646 0.0
C983 C 0.33933 0.44087 0.3056 0.0
C984 C 0.32341 0.4887 0.33694 0.0
C985 C 0.34552 0.45594 0.36547 0.0
C986 C 0.33305 0.48302 0.36642 0.0
C987 C 0.33085 0.32006 0.22122 0.0
C988 C 0.36336 0.40794 0.33362 0.0
C989 C 0.4747 0.42626 0.32655 0.0
C990 C 0.47316 0.41724 0.29209 0.0
C991 C 0.37008 0.27891 0.26002 0.0
C992 C 0.29599 0.16321 0.24181 0.0
C993 C 0.30584 0.14355 0.25951 0.0
C994 C 0.29971 0.10789 0.2465 0.0
C995 C 0.28206 0.09122 0.21596 0.0
C996 C 0.27883 0.14702 0.21089 0.0
C997 C 0.27156 0.11089 0.19826 0.0
C998 C 0.34482 0.28751 0.34054 0.0
C999 C 0.30876 0.20033 0.25478 0.0
H1000 H 0.34199 0.42507 0.28181 0.0
H1001 H 0.3136 0.50957 0.33784 0.0
H1002 H 0.35318 0.45192 0.38842 0.0
H1003 H 0.3309 0.49961 0.38997 0.0
H1004 H 0.32021 0.1564 0.28273 0.0
H1005 H 0.27746 0.06351 0.20542 0.0
H1006 H 0.27174 0.16212 0.19637 0.0
H1007 H 0.25858 0.0982 0.17433 0.0
Tb1008 Tb 0.56689 0.57805 0.03608 0.0
C1009 C 0.58665 0.47382 0.92209 0.0
C1010 C 0.54102 0.45424 0.88548 0.0
C1011 C 0.58563 0.45022 0.86281 0.0
C1012 C 0.55692 0.46908 0.91753 0.0
C1013 C 0.6012 0.46368 0.89481 0.0
C1014 C 0.55562 0.44556 0.85815 0.0
C1015 C 0.64486 0.47702 0.933 0.0
N1016 N 0.60099 0.48619 0.95342 0.0
C1017 C 0.62949 0.48627 0.95927 0.0
C1018 C 0.63075 0.46603 0.9006 0.0
Tb1019 Tb 0.57294 0.49845 0.99465 0.0
N1020 N 0.5433 0.47657 0.94462 0.0
C1021 C 0.51353 0.46768 0.94118 0.0
C1022 C 0.51077 0.44711 0.8819 0.0
C1023 C 0.49697 0.45341 0.90994 0.0
H1024 H 0.64053 0.49462 0.98435 0.0
H1025 H 0.47349 0.44695 0.90756 0.0
H1026 H 0.54376 0.4342 0.8334 0.0
H1027 H 0.66752 0.47809 0.93778 0.0
H1028 H 0.50203 0.47121 0.96226 0.0
H1029 H 0.66482 0.63581 0.12625 0.0
H1030 H 0.49782 0.43565 0.85775 0.0
H1031 H 0.49891 0.58031 0.04255 0.0
H1032 H 0.63518 0.59464 0.07686 0.0
H1033 H 0.47274 0.61225 0.08158 0.0
H1034 H 0.59646 0.4424 0.84157 0.0
H1035 H 0.64316 0.67352 0.1663 0.0
H1036 H 0.5988 0.69074 0.18335 0.0
H1037 H 0.64263 0.45844 0.88029 0.0
H1038 H 0.5463 0.68315 0.17204 0.0
N1039 N 0.59602 0.609 0.08604 0.0
C1040 C 0.62488 0.61112 0.09277 0.0
C1041 C 0.62979 0.65558 0.14402 0.0
C1042 C 0.60021 0.65264 0.13797 0.0
C1043 C 0.64207 0.63441 0.12147 0.0
C1044 C 0.5838 0.62892 0.10846 0.0
H1045 H 0.49905 0.65341 0.13458 0.0
N1046 N 0.53971 0.60144 0.07369 0.0
C1047 C 0.49574 0.6159 0.08782 0.0
C1048 C 0.55446 0.6245 0.10231 0.0
C1049 C 0.51072 0.59766 0.0658 0.0
C1050 C 0.51064 0.63907 0.11769 0.0
C1051 C 0.54043 0.6439 0.12514 0.0
O1052 O 0.54997 0.61274 0.01845 0.0
O1053 O 0.56065 0.54329 0.98495 0.0
O1054 O 0.60574 0.53602 0.9788 0.0
O1055 O 0.61167 0.58142 0.0249 0.0
O1056 O 0.52777 0.56282 0.99898 0.0
O1057 O 0.59642 0.62204 0.02938 0.0
O1058 O 0.59324 0.46175 1.00277 0.0
O1059 O 0.5768 0.53195 0.04604 0.0
O1060 O 0.53425 0.5425 0.05483 0.0
O1061 O 0.53055 0.49264 0.01313 0.0
O1062 O 0.60781 0.50866 0.03611 0.0
O1063 O 0.54632 0.44713 0.98795 0.0
C1064 C 0.53576 0.5457 0.97296 0.0
C1065 C 0.57883 0.67044 0.02977 0.0
C1066 C 0.59485 0.72338 0.01396 0.0
C1067 C 0.59699 0.69038 0.01325 0.0
C1068 C 0.57676 0.73803 0.03455 0.0
C1069 C 0.56064 0.685 0.05026 0.0
C1070 C 0.56017 0.71907 0.05318 0.0
C1071 C 0.62132 0.5661 0.99826 0.0
C1072 C 0.57554 0.63326 0.01934 0.0
C1073 C 0.55664 0.66788 0.15431 0.0
C1074 C 0.58652 0.67229 0.16068 0.0
C1075 C 0.59928 0.52712 0.06101 0.0
C1076 C 0.56834 0.40171 0.99432 0.0
C1077 C 0.55476 0.3857 0.01701 0.0
C1078 C 0.55619 0.35242 0.01713 0.0
C1079 C 0.57149 0.33539 0.99428 0.0
C1080 C 0.58404 0.38468 0.97221 0.0
C1081 C 0.58548 0.35158 0.97214 0.0
C1082 C 0.52064 0.50972 0.03893 0.0
C1083 C 0.56881 0.43758 0.99638 0.0
H1084 H 0.61043 0.6788 0.9967 0.0
H1085 H 0.57476 0.76352 0.03528 0.0
H1086 H 0.546 0.66978 0.06278 0.0
H1087 H 0.54584 0.73014 0.06857 0.0
H1088 H 0.54369 0.39929 0.03516 0.0
H1089 H 0.57291 0.30977 0.99393 0.0
H1090 H 0.59538 0.39711 0.95525 0.0
H1091 H 0.59765 0.33852 0.95503 0.0
Tb1092 Tb 0.85413 0.31031 0.26707 0.0
C1093 C 0.77283 0.21364 0.32524 0.0
C1094 C 0.78133 0.15907 0.29734 0.0
C1095 C 0.76252 0.16602 0.35003 0.0
C1096 C 0.78207 0.19351 0.29888 0.0
C1097 C 0.76207 0.19976 0.35061 0.0
C1098 C 0.77219 0.14573 0.32346 0.0
C1099 C 0.74795 0.25191 0.37286 0.0
N1100 N 0.77255 0.24605 0.32483 0.0
C1101 C 0.75909 0.26464 0.34727 0.0
C1102 C 0.74999 0.21963 0.37495 0.0
Tb1103 Tb 0.78804 0.26271 0.28008 0.0
N1104 N 0.79036 0.20715 0.27394 0.0
C1105 C 0.79678 0.18694 0.24581 0.0
C1106 C 0.78914 0.13884 0.26926 0.0
C1107 C 0.79662 0.15277 0.24324 0.0
H1108 H 0.75719 0.28945 0.34568 0.0
H1109 H 0.80234 0.13725 0.2212 0.0
H1110 H 0.77178 0.11947 0.32291 0.0
H1111 H 0.73785 0.26702 0.391 0.0
H1112 H 0.80289 0.19728 0.22558 0.0
H1113 H 0.85715 0.44367 0.32593 0.0
H1114 H 0.78897 0.11233 0.26718 0.0
H1115 H 0.88223 0.28048 0.19807 0.0
H1116 H 0.85686 0.38499 0.3249 0.0
H1117 H 0.89525 0.29906 0.14881 0.0
H1118 H 0.75465 0.15502 0.3695 0.0
H1119 H 0.85663 0.46079 0.27424 0.0
H1120 H 0.86157 0.44651 0.21416 0.0
H1121 H 0.74132 0.20983 0.39476 0.0
H1122 H 0.87288 0.40721 0.16576 0.0
N1123 N 0.8543 0.36664 0.27217 0.0
C1124 C 0.85566 0.39093 0.30162 0.0
C1125 C 0.85598 0.43437 0.27333 0.0
C1126 C 0.85725 0.41053 0.24374 0.0
C1127 C 0.85626 0.42484 0.30254 0.0
C1128 C 0.85669 0.37647 0.24392 0.0
H1129 H 0.88693 0.35313 0.14191 0.0
N1130 N 0.86511 0.32282 0.21845 0.0
C1131 C 0.88581 0.31458 0.16741 0.0
C1132 C 0.86258 0.354 0.21629 0.0
C1133 C 0.87845 0.30422 0.19543 0.0
C1134 C 0.88094 0.34501 0.16353 0.0
C1135 C 0.86985 0.36553 0.1884 0.0
O1136 O 0.89348 0.29807 0.2601 0.0
O1137 O 0.83127 0.25659 0.26724 0.0
O1138 O 0.81492 0.27942 0.32811 0.0
O1139 O 0.84537 0.32635 0.31734 0.0
O1140 O 0.87199 0.27624 0.28997 0.0
O1141 O 0.89282 0.3473 0.29275 0.0
O1142 O 0.74859 0.27484 0.27339 0.0
O1143 O 0.80799 0.31199 0.26818 0.0
O1144 O 0.8313 0.28143 0.21762 0.0
O1145 O 0.78739 0.24972 0.22721 0.0
O1146 O 0.78171 0.31432 0.30364 0.0
O1147 O 0.75106 0.22303 0.2536 0.0
C1148 C 0.85146 0.24816 0.28319 0.0
C1149 C 0.93677 0.34336 0.27091 0.0
C1150 C 0.9887 0.34947 0.27366 0.0
C1151 C 0.96164 0.33611 0.28303 0.0
C1152 C 0.9907 0.37012 0.25191 0.0
C1153 C 0.9391 0.36453 0.24969 0.0
C1154 C 0.96599 0.37767 0.24009 0.0
C1155 C 0.83687 0.30765 0.33754 0.0
C1156 C 0.90886 0.32743 0.28033 0.0
C1157 C 0.86788 0.39824 0.18721 0.0
C1158 C 0.86144 0.42064 0.21479 0.0
C1159 C 0.79567 0.33345 0.28677 0.0
C1160 C 0.70514 0.23093 0.26498 0.0
C1161 C 0.6837 0.24328 0.25249 0.0
C1162 C 0.65485 0.23136 0.25725 0.0
C1163 C 0.64738 0.20738 0.27547 0.0
C1164 C 0.69779 0.20693 0.28323 0.0
C1165 C 0.66892 0.19539 0.2886 0.0
C1166 C 0.80519 0.25972 0.20723 0.0
C1167 C 0.73445 0.24344 0.25725 0.0
H1168 H 0.95998 0.31999 0.29971 0.0
H1169 H 0.01143 0.38064 0.24441 0.0
H1170 H 0.92032 0.37091 0.24057 0.0
H1171 H 0.9677 0.39383 0.22353 0.0
H1172 H 0.68931 0.26167 0.23818 0.0
H1173 H 0.62503 0.19787 0.27925 0.0
H1174 H 0.71412 0.19699 0.29301 0.0
H1175 H 0.66319 0.17684 0.30261 0.0
Tb1176 Tb 0.08459 0.53239 0.56585 0.0
C1177 C 0.02659 0.58254 0.46298 0.0
C1178 C 1.00131 0.52998 0.4206 0.0
C1179 C 0.98282 0.58004 0.42892 0.0
C1180 C 0.02388 0.54842 0.44719 0.0
C1181 C 0.00668 0.59914 0.4532 0.0
C1182 C 0.98014 0.54544 0.4126 0.0
C1183 C 0.03713 0.65318 0.48931 0.0
N1184 N 0.05008 0.60032 0.48607 0.0
C1185 C 0.05619 0.63565 0.49823 0.0
C1186 C 0.012 0.63477 0.46709 0.0
Tb1187 Tb 0.08117 0.57011 0.49885 0.0
N1188 N 0.04503 0.53453 0.45542 0.0
C1189 C 0.04617 0.50344 0.43478 0.0
C1190 C 1.00158 0.49736 0.40146 0.0
C1191 C 0.02455 0.4845 0.40807 0.0
H1192 H 0.07566 0.65022 0.51543 0.0
H1193 H 0.02568 0.45982 0.39261 0.0
H1194 H 0.96237 0.53137 0.39281 0.0
H1195 H 0.04187 0.6809 0.49954 0.0
H1196 H 0.06366 0.49234 0.43726 0.0
H1197 H 0.14822 0.65644 0.64923 0.0
H1198 H 0.98482 0.48256 0.38076 0.0
H1199 H 0.09654 0.45408 0.55063 0.0
H1200 H 0.11047 0.61865 0.60423 0.0
H1201 H 0.12742 0.42628 0.57622 0.0
H1202 H 0.96703 0.59218 0.42155 0.0
H1203 H 0.17826 0.63186 0.68044 0.0
H1204 H 0.19214 0.5799 0.6873 0.0
H1205 H 0.99731 0.64844 0.46013 0.0
H1206 H 0.18691 0.51755 0.66709 0.0
N1207 N 0.1188 0.57177 0.60836 0.0
C1208 C 0.12294 0.60684 0.6174 0.0
C1209 C 0.16156 0.61476 0.66054 0.0
C1210 C 0.15761 0.57904 0.65125 0.0
C1211 C 0.1445 0.6287 0.64312 0.0
C1212 C 0.13597 0.55796 0.62464 0.0
H1213 H 0.16337 0.46041 0.62545 0.0
N1214 N 0.11521 0.50439 0.5844 0.0
C1215 C 0.12967 0.45359 0.5865 0.0
C1216 C 0.13377 0.52301 0.61253 0.0
C1217 C 0.11235 0.46965 0.57193 0.0
C1218 C 0.14975 0.47287 0.61441 0.0
C1219 C 0.15212 0.50801 0.6277 0.0
O1220 O 0.05899 0.48498 0.56828 0.0
O1221 O 0.05737 0.54038 0.52751 0.0
O1222 O 0.0593 0.59694 0.53761 0.0
O1223 O 0.06457 0.57554 0.58293 0.0
O1224 O 0.04553 0.49397 0.53451 0.0
O1225 O 0.06807 0.53123 0.61135 0.0
O1226 O 0.10551 0.61137 0.48297 0.0
O1227 O 0.11024 0.56327 0.53677 0.0
O1228 O 0.10735 0.50573 0.5294 0.0
O1229 O 0.09342 0.52159 0.48338 0.0
O1230 O 0.11391 0.61173 0.53403 0.0
O1231 O 0.10503 0.5589 0.45948 0.0
C1232 C 0.0373 0.51249 0.51791 0.0
C1233 C 0.03972 0.47505 0.61685 0.0
C1234 C 0.00744 0.46667 0.65748 0.0
C1235 C 0.02551 0.48866 0.64256 0.0
C1236 C 1.00377 0.4309 0.64708 0.0
C1237 C 0.03614 0.43915 0.60641 0.0
C1238 C 0.01828 0.41722 0.6216 0.0
C1239 C 0.05502 0.59637 0.56834 0.0
C1240 C 0.05609 0.49773 0.59903 0.0
C1241 C 0.17265 0.52863 0.65517 0.0
C1242 C 0.17554 0.5641 0.66676 0.0
C1243 C 0.12725 0.59394 0.54685 0.0
C1244 C 0.10587 0.59472 0.42495 0.0
C1245 C 0.12112 0.58188 0.39976 0.0
C1246 C 0.11391 0.58284 0.36745 0.0
C1247 C 0.09122 0.59642 0.36016 0.0
C1248 C 0.08359 0.60904 0.41753 0.0
C1249 C 0.07616 0.60956 0.38523 0.0
C1250 C 0.10518 0.50246 0.49752 0.0
C1251 C 0.11235 0.59064 0.45794 0.0
H1252 H 0.02799 0.51628 0.65063 0.0
H1253 H 0.98995 0.41385 0.65882 0.0
H1254 H 0.0469 0.42803 0.58634 0.0
H1255 H 0.01557 0.38963 0.61347 0.0
H1256 H 0.13852 0.57103 0.40519 0.0
H1257 H 0.08552 0.59726 0.33522 0.0
H1258 H 0.07184 0.6198 0.43642 0.0
H1259 H 0.0588 0.62032 0.37968 0.0
Tb1260 Tb 0.79533 0.79925 0.27584 0.0
C1261 C 0.89306 0.75124 0.32459 0.0
C1262 C 0.913 0.7975 0.37503 0.0
C1263 C 0.91908 0.7404 0.37023 0.0
C1264 C 0.89749 0.78508 0.34277 0.0
C1265 C 0.90437 0.72861 0.33777 0.0
C1266 C 0.92339 0.77482 0.38884 0.0
C1267 C 0.88872 0.6858 0.28459 0.0
N1268 N 0.87901 0.74102 0.29327 0.0
C1269 C 0.87832 0.70946 0.27256 0.0
C1270 C 0.90144 0.69524 0.31751 0.0
Tb1271 Tb 0.8638 0.78188 0.27505 0.0
N1272 N 0.88704 0.80603 0.32853 0.0
C1273 C 0.89199 0.84022 0.34531 0.0
C1274 C 0.91786 0.83237 0.39228 0.0
C1275 C 0.90739 0.85386 0.37724 0.0
H1276 H 0.86936 0.70249 0.24682 0.0
H1277 H 0.91073 0.88083 0.39039 0.0
H1278 H 0.93516 0.78377 0.41365 0.0
H1279 H 0.8873 0.6605 0.26835 0.0
H1280 H 0.8828 0.85686 0.335 0.0
H1281 H 0.72398 0.68467 0.18335 0.0
H1282 H 0.92964 0.84292 0.4171 0.0
H1283 H 0.78978 0.8801 0.28544 0.0
H1284 H 0.74937 0.7165 0.23792 0.0
H1285 H 0.77474 0.91332 0.251 0.0
H1286 H 0.92775 0.72335 0.38089 0.0
H1287 H 0.72188 0.71395 0.13985 0.0
H1288 H 0.73091 0.76932 0.12469 0.0
H1289 H 0.90982 0.67705 0.32668 0.0
H1290 H 0.7445 0.83277 0.14345 0.0
N1291 N 0.76632 0.7647 0.22633 0.0
C1292 C 0.75088 0.73044 0.21968 0.0
C1293 C 0.73415 0.72844 0.16395 0.0
C1294 C 0.74681 0.76404 0.17172 0.0
C1295 C 0.73531 0.71186 0.18843 0.0
C1296 C 0.7625 0.7818 0.20362 0.0
H1297 H 0.75886 0.88639 0.19111 0.0
N1298 N 0.78283 0.83367 0.24566 0.0
C1299 C 0.77398 0.88655 0.24 0.0
C1300 C 0.77087 0.81754 0.21376 0.0
C1301 C 0.78248 0.86729 0.25947 0.0
C1302 C 0.76525 0.87134 0.20621 0.0
C1303 C 0.7628 0.83622 0.19283 0.0
O1304 O 0.78447 0.83597 0.31357 0.0
O1305 O 0.83571 0.80496 0.30666 0.0
O1306 O 0.83285 0.73354 0.28166 0.0
O1307 O 0.7873 0.7437 0.277 0.0
O1308 O 0.79736 0.78728 0.32292 0.0
O1309 O 0.75092 0.79029 0.28299 0.0
O1310 O 0.88568 0.76739 0.23392 0.0
O1311 O 0.82814 0.78855 0.24481 0.0
O1312 O 0.82874 0.85002 0.27833 0.0
O1313 O 0.87267 0.83681 0.27402 0.0
O1314 O 0.84246 0.74598 0.22726 0.0
O1315 O 0.90731 0.80982 0.27526 0.0
C1316 C 0.8249 0.79519 0.33086 0.0
C1317 C 0.73518 0.83132 0.32617 0.0
C1318 C 0.68892 0.82092 0.3483 0.0
C1319 C 0.7089 0.80836 0.32905 0.0
C1320 C 0.69514 0.85652 0.36394 0.0
C1321 C 0.74093 0.86682 0.34213 0.0
C1322 C 0.7209 0.87929 0.36063 0.0
C1323 C 0.8038 0.72284 0.28019 0.0
C1324 C 0.75708 0.81872 0.30736 0.0
C1325 C 0.75012 0.81875 0.16007 0.0
C1326 C 0.7423 0.78263 0.14943 0.0
C1327 C 0.82522 0.76267 0.21944 0.0
C1328 C 0.93724 0.78187 0.2417 0.0
C1329 C 0.95516 0.79312 0.21893 0.0
C1330 C 0.98125 0.78357 0.21442 0.0
C1331 C 0.98878 0.76233 0.23243 0.0
C1332 C 0.94589 0.76143 0.25986 0.0
C1333 C 0.97128 0.75146 0.25498 0.0
C1334 C 0.85737 0.85962 0.27652 0.0
C1335 C 0.90969 0.7915 0.24619 0.0
H1336 H 0.70414 0.78089 0.31688 0.0
H1337 H 0.67993 0.86667 0.37859 0.0
H1338 H 0.76088 0.88502 0.34015 0.0
H1339 H 0.72535 0.90674 0.37242 0.0
H1340 H 0.949 0.80933 0.20502 0.0
H1341 H 0.00855 0.75456 0.22935 0.0
H1342 H 0.93319 0.75325 0.27796 0.0
H1343 H 0.97757 0.73544 0.269 0.0
Tb1344 Tb 0.84514 0.28221 0.74245 0.0
C1345 C 0.81185 0.39195 0.8456 0.0
C1346 C 0.85812 0.42745 0.87736 0.0
C1347 C 0.81664 0.45073 0.87911 0.0
C1348 C 0.84072 0.39583 0.85561 0.0
C1349 C 0.79951 0.41945 0.85722 0.0
C1350 C 0.84586 0.45467 0.88926 0.0
C1351 C 0.75338 0.38233 0.82732 0.0
N1352 N 0.79562 0.36083 0.82548 0.0
C1353 C 0.76623 0.35546 0.81753 0.0
C1354 C 0.7701 0.41452 0.84719 0.0
Tb1355 Tb 0.81791 0.31672 0.8168 0.0
N1356 N 0.85183 0.36883 0.84381 0.0
C1357 C 0.88085 0.3729 0.85211 0.0
C1358 C 0.88735 0.43093 0.88656 0.0
C1359 C 0.89886 0.40371 0.87345 0.0
H1360 H 0.75219 0.32993 0.80484 0.0
H1361 H 0.9217 0.40637 0.8797 0.0
H1362 H 0.85885 0.47895 0.90618 0.0
H1363 H 0.73032 0.37778 0.82053 0.0
H1364 H 0.89106 0.35329 0.84181 0.0
H1365 H 0.74037 0.19353 0.67477 0.0
H1366 H 0.90123 0.45468 0.90342 0.0
H1367 H 0.90841 0.26207 0.75643 0.0
H1368 H 0.77012 0.24238 0.71763 0.0
H1369 H 0.93028 0.21682 0.73216 0.0
H1370 H 0.80747 0.47198 0.88845 0.0
H1371 H 0.76203 0.15063 0.64165 0.0
H1372 H 0.80547 0.12929 0.63176 0.0
H1373 H 0.75992 0.43507 0.85547 0.0
H1374 H 0.85672 0.13479 0.64837 0.0
N1375 N 0.81088 0.23172 0.70895 0.0
C1376 C 0.78123 0.22598 0.70314 0.0
C1377 C 0.77579 0.17298 0.66045 0.0
C1378 C 0.80537 0.17697 0.66768 0.0
C1379 C 0.76357 0.19716 0.67892 0.0
C1380 C 0.82239 0.2065 0.6927 0.0
H1381 H 0.9027 0.16626 0.68654 0.0
N1382 N 0.86608 0.23674 0.72793 0.0
C1383 C 0.9078 0.21403 0.72379 0.0
C1384 C 0.85091 0.20908 0.70259 0.0
C1385 C 0.89465 0.23951 0.73813 0.0
C1386 C 0.89228 0.18572 0.69794 0.0
C1387 C 0.86357 0.18295 0.68694 0.0
O1388 O 0.88855 0.30413 0.73825 0.0
O1389 O 0.84868 0.32763 0.7843 0.0
O1390 O 0.78791 0.31577 0.77272 0.0
O1391 O 0.80577 0.2938 0.72363 0.0
O1392 O 0.84662 0.33405 0.73806 0.0
O1393 O 0.85605 0.28361 0.69522 0.0
O1394 O 0.79267 0.32457 0.85544 0.0
O1395 O 0.82123 0.27012 0.78156 0.0
O1396 O 0.87277 0.27861 0.78571 0.0
O1397 O 0.85563 0.30173 0.83456 0.0
O1398 O 0.78174 0.27149 0.79581 0.0
O1399 O 0.82114 0.29271 0.85462 0.0
C1400 C 0.8488 0.34981 0.76881 0.0
C1401 C 0.89451 0.3336 0.69737 0.0
C1402 C 0.89133 0.37055 0.66192 0.0
C1403 C 0.87934 0.34094 0.67182 0.0
C1404 C 0.91797 0.39365 0.67841 0.0
C1405 C 0.92149 0.3567 0.71327 0.0
C1406 C 0.93287 0.38683 0.70416 0.0
C1407 C 0.78619 0.30676 0.73958 0.0
C1408 C 0.88284 0.30167 0.7071 0.0
C1409 C 0.84722 0.15475 0.66086 0.0
C1410 C 0.81812 0.15171 0.65132 0.0
C1411 C 0.79553 0.25145 0.77965 0.0
C1412 C 0.77846 0.27849 0.87892 0.0
C1413 C 0.78706 0.26006 0.89917 0.0
C1414 C 0.7663 0.23659 0.91001 0.0
C1415 C 0.73663 0.2312 0.90036 0.0
C1416 C 0.74865 0.27359 0.86984 0.0
C1417 C 0.72788 0.24978 0.88034 0.0
C1418 C 0.87429 0.28716 0.81866 0.0
C1419 C 0.80108 0.3038 0.86925 0.0
H1420 H 0.85902 0.32295 0.65843 0.0
H1421 H 0.92769 0.41623 0.67048 0.0
H1422 H 0.93387 0.35139 0.73266 0.0
H1423 H 0.95365 0.40444 0.71648 0.0
H1424 H 0.80999 0.26413 0.9068 0.0
H1425 H 0.72042 0.21294 0.90856 0.0
H1426 H 0.74138 0.2879 0.85452 0.0
H1427 H 0.70498 0.24586 0.87309 0.0
Tb1428 Tb 0.8563 0.84491 0.79927 0.0
C1429 C 0.74342 0.737 0.74732 0.0
C1430 C 0.72452 0.71533 0.79166 0.0
C1431 C 0.69119 0.7205 0.74899 0.0
C1432 C 0.74827 0.72957 0.77661 0.0
C1433 C 0.71464 0.7303 0.73204 0.0
C1434 C 0.69613 0.71293 0.77886 0.0
C1435 C 0.73358 0.73307 0.68129 0.0
N1436 N 0.76657 0.74453 0.73109 0.0
C1437 C 0.76157 0.73979 0.6976 0.0
C1438 C 0.71008 0.72983 0.69895 0.0
Tb1439 Tb 0.8124 0.75709 0.76075 0.0
N1440 N 0.77586 0.73074 0.78716 0.0
C1441 C 0.77994 0.71152 0.8082 0.0
C1442 C 0.72976 0.70131 0.81735 0.0
C1443 C 0.75748 0.69833 0.82489 0.0
H1444 H 0.77909 0.74083 0.68274 0.0
H1445 H 0.76147 0.68531 0.84309 0.0
H1446 H 0.67773 0.70295 0.7906 0.0
H1447 H 0.73016 0.72995 0.65497 0.0
H1448 H 0.80106 0.70781 0.81343 0.0
H1449 H 0.92406 0.84596 0.70065 0.0
H1450 H 0.7122 0.69039 0.82971 0.0
H1451 H 0.87444 0.86926 0.88119 0.0
H1452 H 0.87966 0.82772 0.72344 0.0
H1453 H 0.91837 0.89725 0.92156 0.0
H1454 H 0.66905 0.71601 0.73797 0.0
H1455 H 0.96959 0.87992 0.73775 0.0
H1456 H 0.99515 0.90858 0.79548 0.0
H1457 H 0.68835 0.7241 0.68614 0.0
H1458 H 0.99325 0.92189 0.85524 0.0
N1459 N 0.89809 0.85189 0.77414 0.0
C1460 C 0.89853 0.84332 0.74056 0.0
C1461 C 0.94979 0.87201 0.74815 0.0
C1462 C 0.94963 0.87997 0.78232 0.0
C1463 C 0.92416 0.85307 0.72719 0.0
C1464 C 0.92328 0.86885 0.79466 0.0
H1465 H 0.96604 0.9139 0.90239 0.0
N1466 N 0.89678 0.86414 0.83892 0.0
C1467 C 0.92003 0.89056 0.89536 0.0
C1468 C 0.92263 0.875 0.82819 0.0
C1469 C 0.89512 0.87379 0.87224 0.0
C1470 C 0.94681 0.90014 0.88447 0.0
C1471 C 0.94819 0.8935 0.85056 0.0
O1472 O 0.84851 0.88703 0.83375 0.0
O1473 O 0.81322 0.80959 0.78129 0.0
O1474 O 0.81471 0.78693 0.722 0.0
O1475 O 0.84065 0.84429 0.74888 0.0
O1476 O 0.81764 0.84748 0.82415 0.0
O1477 O 0.86517 0.89233 0.7877 0.0
O1478 O 0.8069 0.71792 0.71526 0.0
O1479 O 0.85416 0.79549 0.76612 0.0
O1480 O 0.85974 0.81482 0.83509 0.0
O1481 O 0.81797 0.76856 0.81574 0.0
O1482 O 0.85423 0.74991 0.77471 0.0
O1483 O 0.82965 0.71589 0.75932 0.0
C1484 C 0.79932 0.82157 0.80354 0.0
C1485 C 0.85847 0.94386 0.82549 0.0
C1486 C 0.84478 0.98771 0.80598 0.0
C1487 C 0.85649 0.95975 0.80058 0.0
C1488 C 0.84131 1.0047 0.8382 0.0
C1489 C 0.85447 0.96019 0.85774 0.0
C1490 C 0.84722 0.9915 0.86432 0.0
C1491 C 0.82587 0.82004 0.7218 0.0
C1492 C 0.85768 0.90734 0.81563 0.0
C1493 C 0.97404 0.90604 0.83846 0.0
C1494 C 0.97491 0.89898 0.80443 0.0
C1495 C 0.87086 0.77815 0.77213 0.0
C1496 C 0.80564 0.66244 0.72236 0.0
C1497 C 0.81414 0.6456 0.74446 0.0
C1498 C 0.80371 0.60985 0.73825 0.0
C1499 C 0.78406 0.59041 0.70973 0.0
C1500 C 0.78661 0.64282 0.69341 0.0
C1501 C 0.77597 0.60693 0.6872 0.0
C1502 C 0.83942 0.7887 0.83963 0.0
C1503 C 0.81945 0.69969 0.72873 0.0
H1504 H 0.85868 0.94678 0.77546 0.0
H1505 H 0.83235 0.02659 0.8427 0.0
H1506 H 0.85556 0.94796 0.87733 0.0
H1507 H 0.84386 1.00392 0.88909 0.0
H1508 H 0.83002 0.66008 0.76614 0.0
H1509 H 0.77626 0.56252 0.70417 0.0
H1510 H 0.78051 0.65501 0.67535 0.0
H1511 H 0.76224 0.5918 0.66436 0.0
Tb1512 Tb 0.54331 0.51807 0.49711 0.0
C1513 C 0.61763 0.65405 0.56981 0.0
C1514 C 0.62697 0.68161 0.526 0.0
C1515 C 0.63195 0.71711 0.58243 0.0
C1516 C 0.61965 0.65133 0.53672 0.0
C1517 C 0.624 0.68722 0.59302 0.0
C1518 C 0.6333 0.71431 0.549 0.0
C1519 C 0.61589 0.65976 0.63636 0.0
N1520 N 0.60997 0.62457 0.57942 0.0
C1521 C 0.61006 0.62764 0.61288 0.0
C1522 C 0.62284 0.6897 0.62643 0.0
Tb1523 Tb 0.60809 0.5736 0.53847 0.0
N1524 N 0.61395 0.61929 0.51495 0.0
C1525 C 0.61381 0.61647 0.48179 0.0
C1526 C 0.62761 0.67835 0.49239 0.0
C1527 C 0.62063 0.6456 0.47017 0.0
H1528 H 0.60685 0.60541 0.62238 0.0
H1529 H 0.62026 0.64266 0.44391 0.0
H1530 H 0.63924 0.73766 0.54116 0.0
H1531 H 0.61581 0.66137 0.66235 0.0
H1532 H 0.60737 0.59208 0.46339 0.0
H1533 H 0.52795 0.44238 0.58623 0.0
H1534 H 0.63297 0.70092 0.48328 0.0
H1535 H 0.53968 0.49176 0.41376 0.0
H1536 H 0.54254 0.49477 0.56986 0.0
H1537 H 0.53024 0.43704 0.37038 0.0
H1538 H 0.63709 0.74259 0.59997 0.0
H1539 H 0.51286 0.38562 0.54416 0.0
H1540 H 0.5046 0.35177 0.48493 0.0
H1541 H 0.62785 0.71463 0.64484 0.0
H1542 H 0.50609 0.35031 0.42665 0.0
N1543 N 0.53555 0.4703 0.51773 0.0
C1544 C 0.53548 0.47121 0.55048 0.0
C1545 C 0.51918 0.40905 0.5365 0.0
C1546 C 0.5195 0.4077 0.50319 0.0
C1547 C 0.52754 0.44096 0.56024 0.0
C1548 C 0.52817 0.43903 0.49442 0.0
H1549 H 0.51669 0.38166 0.38409 0.0
N1550 N 0.53777 0.46867 0.4538 0.0
C1551 C 0.52956 0.43695 0.39587 0.0
C1552 C 0.52943 0.4382 0.46157 0.0
C1553 C 0.53572 0.46807 0.42096 0.0
C1554 C 0.52226 0.40577 0.40373 0.0
C1555 C 0.52145 0.40604 0.43674 0.0
O1556 O 0.51578 0.52131 0.45799 0.0
O1557 O 0.5714 0.57077 0.50379 0.0
O1558 O 0.57553 0.56967 0.57573 0.0
O1559 O 0.53035 0.5366 0.54755 0.0
O1560 O 0.52927 0.56572 0.50995 0.0
O1561 O 0.4985 0.49462 0.49335 0.0
O1562 O 0.63518 0.58078 0.58143 0.0
O1563 O 0.57974 0.52105 0.53246 0.0
O1564 O 0.57766 0.51886 0.4599 0.0
O1565 O 0.62193 0.55273 0.48946 0.0
O1566 O 0.62217 0.52576 0.52936 0.0
O1567 O 0.65353 0.59307 0.53945 0.0
C1568 C 0.55285 0.58841 0.50964 0.0
C1569 C 0.46525 0.51193 0.46144 0.0
C1570 C 0.42373 0.53117 0.48031 0.0
C1571 C 0.45126 0.52658 0.48753 0.0
C1572 C 0.41045 0.5208 0.44728 0.0
C1573 C 0.45188 0.50276 0.42865 0.0
C1574 C 0.42454 0.50689 0.42164 0.0
C1575 C 0.5469 0.55668 0.57582 0.0
C1576 C 0.49269 0.50334 0.4667 0.0
C1577 C 0.51246 0.37508 0.44543 0.0
C1578 C 0.51151 0.37591 0.47857 0.0
C1579 C 0.59819 0.50309 0.52842 0.0
C1580 C 0.68227 0.57667 0.57783 0.0
C1581 C 0.69843 0.5622 0.55426 0.0
C1582 C 0.72107 0.54978 0.56447 0.0
C1583 C 0.72666 0.55083 0.59782 0.0
C1584 C 0.68848 0.57777 0.6111 0.0
C1585 C 0.71014 0.56435 0.62086 0.0
C1586 C 0.60673 0.53242 0.46065 0.0
C1587 C 0.6589 0.59119 0.56947 0.0
H1588 H 0.46165 0.53452 0.51292 0.0
H1589 H 0.38937 0.52437 0.44129 0.0
H1590 H 0.46251 0.49197 0.40832 0.0
H1591 H 0.4143 0.49943 0.39626 0.0
H1592 H 0.69375 0.56087 0.52844 0.0
H1593 H 0.74382 0.541 0.60597 0.0
H1594 H 0.67629 0.5888 0.62964 0.0
H1595 H 0.71404 0.56445 0.64638 0.0
Tb1596 Tb 0.10235 0.53537 0.00381 0.0
C1597 C 0.99971 0.49492 0.08027 0.0
C1598 C 0.96876 0.44191 0.04222 0.0
C1599 C 0.96617 0.4535 0.10124 0.0
C1600 C 0.99023 0.47378 0.04836 0.0
C1601 C 0.9876 0.48523 0.1071 0.0
C1602 C 0.95683 0.43184 0.06887 0.0
C1603 C 0.01794 0.53949 0.14325 0.0
N1604 N 0.02093 0.52494 0.08494 0.0
C1605 C 0.02929 0.54789 0.1158 0.0
C1606 C 0.99719 0.50785 0.13894 0.0
Tb1607 Tb 0.03563 0.5376 0.03797 0.0
N1608 N 1.00284 0.48402 0.02343 0.0
C1609 C 0.99392 0.46417 0.99142 0.0
C1610 C 0.96017 0.42102 0.00955 0.0
C1611 C 0.97276 0.43229 0.98401 0.0
H1612 H 0.04434 0.57296 0.11913 0.0
H1613 H 0.96627 0.41642 0.95862 0.0
H1614 H 0.94037 0.40741 0.0647 0.0
H1615 H 0.02492 0.55762 0.16765 0.0
H1616 H 1.00356 0.47238 0.97157 0.0
H1617 H 0.19158 0.63301 0.09103 0.0
H1618 H 0.94388 0.39624 0.00379 0.0
H1619 H 0.10189 0.51872 0.92007 0.0
H1620 H 0.15738 0.57568 0.06866 0.0
H1621 H 0.11452 0.55247 0.88073 0.0
H1622 H 0.95666 0.44553 0.12155 0.0
H1623 H 0.19588 0.67659 0.06018 0.0
H1624 H 0.18366 0.68976 0.00729 0.0
H1625 H 0.98835 0.50145 0.16023 0.0
H1626 H 0.16271 0.66712 0.94864 0.0
N1627 N 0.13907 0.58675 0.02628 0.0
C1628 C 0.1577 0.59436 0.05499 0.0
C1629 C 0.18018 0.65143 0.05032 0.0
C1630 C 0.164 0.64211 0.01911 0.0
C1631 C 0.17785 0.62691 0.06774 0.0
C1632 C 0.144 0.60884 0.00729 0.0
H1633 H 0.13824 0.61537 0.90089 0.0
N1634 N 0.11687 0.56231 0.96323 0.0
C1635 C 0.11935 0.56524 0.90704 0.0
C1636 C 0.13249 0.59607 0.97442 0.0
C1637 C 0.11233 0.5462 0.92968 0.0
C1638 C 0.13258 0.60072 0.91849 0.0
C1639 C 0.14026 0.61637 0.95248 0.0
O1640 O 0.11714 0.50029 0.96817 0.0
O1641 O 0.05802 0.50398 0.00696 0.0
O1642 O 0.06422 0.5249 0.07309 0.0
O1643 O 0.10789 0.54982 0.05716 0.0
O1644 O 0.09152 0.48401 0.01118 0.0
O1645 O 0.13782 0.51958 0.01897 0.0
O1646 O 0.02319 0.58354 0.0503 0.0
O1647 O 0.07465 0.56784 0.02375 0.0
O1648 O 0.07051 0.53062 0.96261 0.0
O1649 O 0.02804 0.53393 0.98577 0.0
O1650 O 0.06288 0.58812 0.0687 0.0
O1651 O 0.9917 0.53646 0.02433 0.0
C1652 C 0.06414 0.47708 0.01154 0.0
C1653 C 0.16687 0.50199 0.97894 0.0
C1654 C 0.21225 0.48654 0.98376 0.0
C1655 C 0.18418 0.48467 0.99204 0.0
C1656 C 0.22261 0.50497 0.96138 0.0
C1657 C 0.17765 0.52079 0.95699 0.0
C1658 C 0.20534 0.52197 0.94806 0.0
C1659 C 0.093 0.53435 0.07657 0.0
C1660 C 0.13808 0.50031 0.98939 0.0
C1661 C 0.15715 0.65092 0.96497 0.0
C1662 C 0.16904 0.66382 0.99836 0.0
C1663 C 0.08103 0.59503 0.04847 0.0
C1664 C 0.97494 0.58239 0.05737 0.0
C1665 C 0.95141 0.59003 0.04196 0.0
C1666 C 0.93468 0.60908 0.06119 0.0
C1667 C 0.94137 0.61937 0.09584 0.0
C1668 C 0.98062 0.59272 0.09206 0.0
C1669 C 0.96383 0.61076 0.11108 0.0
C1670 C 0.04363 0.53276 0.96114 0.0
C1671 C 0.99632 0.56947 0.03754 0.0
H1672 H 0.17609 0.47029 0.00919 0.0
H1673 H 0.24421 0.50655 0.95462 0.0
H1674 H 0.16485 0.53461 0.94687 0.0
H1675 H 0.21356 0.53639 0.93105 0.0
H1676 H 0.94698 0.58267 0.01519 0.0
H1677 H 0.92917 0.63428 0.11118 0.0
H1678 H 0.99894 0.58843 0.10459 0.0
H1679 H 0.9688 0.61901 0.13778 0.0
C1680 C 0.03155 0.1443 0.95419 0.0
C1681 C 0.03341 0.17645 0.97805 0.0
C1682 C 0.04879 0.15073 0.02136 0.0
C1683 C 0.04888 0.11953 0.9972 0.0
N1684 N 0.04592 0.09091 0.93929 0.0
N1685 N 0.04984 0.21174 0.03411 0.0
C1686 C 0.04201 0.11779 0.96328 0.0
C1687 C 0.04379 0.17998 0.01157 0.0
N1688 N 0.01812 0.13795 0.92283 0.0
N1689 N 0.05289 0.15231 0.05404 0.0
H1690 H 0.04644 0.23325 0.0279 0.0
H1691 H 0.0606 0.21746 0.05792 0.0
H1692 H 0.05734 0.13221 0.06195 0.0
H1693 H 0.05025 0.17245 0.07304 0.0
H1694 H 0.0127 0.11376 0.90543 0.0
H1695 H 0.00972 0.15582 0.91508 0.0
H1696 H 0.04434 0.08972 0.91429 0.0
H1697 H 0.05398 0.07172 0.9447 0.0
C1698 C 0.23356 0.85404 0.20346 0.0
C1699 C 0.21227 0.82459 0.18222 0.0
C1700 C 0.23771 0.78749 0.20341 0.0
C1701 C 0.26109 0.81631 0.22151 0.0
N1702 N 0.27965 0.87858 0.24018 0.0
N1703 N 0.19786 0.76297 0.15848 0.0
C1704 C 0.25852 0.85005 0.22182 0.0
C1705 C 0.21587 0.7914 0.18102 0.0
N1706 N 0.2291 0.88586 0.20749 0.0
N1707 N 0.23403 0.75681 0.21075 0.0
H1708 H 0.18142 0.76488 0.14246 0.0
H1709 H 0.20114 0.73848 0.15375 0.0
H1710 H 0.24617 0.75489 0.23114 0.0
H1711 H 0.21626 0.73529 0.20043 0.0
H1712 H 0.24126 0.9082 0.22533 0.0
H1713 H 0.21195 0.88954 0.19376 0.0
H1714 H 0.28179 0.90345 0.23822 0.0
H1715 H 0.2955 0.87732 0.25729 0.0
C1716 C 0.55498 0.88227 0.45825 0.0
C1717 C 0.53905 0.86578 0.47978 0.0
C1718 C 0.54306 0.92578 0.51466 0.0
C1719 C 0.55209 0.94093 0.48863 0.0
N1720 N 0.55836 0.92611 0.43026 0.0
N1721 N 0.51928 0.87541 0.53171 0.0
C1722 C 0.55522 0.91681 0.45882 0.0
C1723 C 0.5331 0.88858 0.50866 0.0
N1724 N 0.572 0.8665 0.43863 0.0
N1725 N 0.5458 0.94627 0.546 0.0
H1726 H 0.51732 0.85039 0.53308 0.0
H1727 H 0.51006 0.88991 0.54986 0.0
H1728 H 0.55271 0.97268 0.5515 0.0
H1729 H 0.54336 0.93699 0.56664 0.0
H1730 H 0.58514 0.87878 0.42402 0.0
H1731 H 0.57724 0.84458 0.44155 0.0
H1732 H 0.55885 0.90836 0.40792 0.0
H1733 H 0.55679 0.94971 0.42766 0.0
C1734 C 0.52853 0.281 0.64849 0.0
C1735 C 0.55051 0.31297 0.66159 0.0
C1736 C 0.52346 0.3285 0.70822 0.0
C1737 C 0.50147 0.29669 0.69508 0.0
N1738 N 0.47934 0.24676 0.64898 0.0
N1739 N 0.56475 0.37078 0.69869 0.0
C1740 C 0.50278 0.27437 0.66385 0.0
C1741 C 0.54664 0.33784 0.68986 0.0
N1742 N 0.53302 0.256 0.62282 0.0
N1743 N 0.52292 0.34916 0.73899 0.0
H1744 H 0.58149 0.37876 0.68541 0.0
H1745 H 0.56144 0.39104 0.71703 0.0
H1746 H 0.50586 0.34392 0.75269 0.0
H1747 H 0.54018 0.37033 0.7518 0.0
H1748 H 0.5193 0.23088 0.61448 0.0
H1749 H 0.55176 0.25939 0.61148 0.0
H1750 H 0.47761 0.23128 0.62485 0.0
H1751 H 0.46038 0.24137 0.65979 0.0
C1752 C 0.0162 0.83489 0.58903 0.0
C1753 C 0.01528 0.79958 0.5823 0.0
C1754 C 0.04192 0.80389 0.53544 0.0
C1755 C 0.04844 0.84051 0.54682 0.0
N1756 N 0.04371 0.89134 0.58737 0.0
N1757 N 0.02723 0.7497 0.54948 0.0
C1758 C 0.03564 0.85623 0.574 0.0
C1759 C 0.02787 0.78369 0.55535 0.0
N1760 N 0.99897 0.84815 0.61036 0.0
N1761 N 0.0488 0.78854 0.50543 0.0
H1762 H 0.01644 0.73412 0.56321 0.0
H1763 H 0.03888 0.73773 0.5325 0.0
H1764 H 0.05835 0.80276 0.48993 0.0
H1765 H 0.04242 0.76188 0.49456 0.0
H1766 H 0.99636 0.87279 0.61348 0.0
H1767 H 0.98496 0.83327 0.6224 0.0
H1768 H 0.03655 0.90353 0.60874 0.0
H1769 H 0.05967 0.9083 0.57935 0.0
C1770 C 0.54803 0.86224 0.83681 0.0
C1771 C 0.56481 0.84337 0.81748 0.0
C1772 C 0.53101 0.83275 0.76764 0.0
C1773 C 0.51325 0.84964 0.7874 0.0
N1774 N 0.50177 0.87495 0.84147 0.0
N1775 N 0.569 0.80398 0.76608 0.0
C1776 C 0.52069 0.86244 0.82227 0.0
C1777 C 0.5555 0.82687 0.78326 0.0
N1778 N 0.55913 0.88181 0.86842 0.0
N1779 N 0.52444 0.82224 0.73395 0.0
H1780 H 0.58646 0.79798 0.77676 0.0
H1781 H 0.56122 0.78833 0.74203 0.0
H1782 H 0.50573 0.82418 0.7216 0.0
H1783 H 0.53851 0.8137 0.71814 0.0
H1784 H 0.54862 0.89734 0.88365 0.0
H1785 H 0.58048 0.88548 0.8781 0.0
H1786 H 0.50416 0.87975 0.86708 0.0
H1787 H 0.48249 0.87813 0.83176 0.0
C1788 C 0.52377 0.16804 0.08548 0.0
C1789 C 0.50359 0.15958 0.10711 0.0
C1790 C 0.52368 0.11242 0.11252 0.0
C1791 C 0.54159 0.11862 0.08779 0.0
N1792 N 0.56952 0.16332 0.06726 0.0
N1793 N 0.48229 0.12276 0.13973 0.0
C1794 C 0.5447 0.14961 0.07886 0.0
C1795 C 0.50303 0.13153 0.12034 0.0
N1796 N 0.52259 0.19329 0.07067 0.0
N1797 N 0.52785 0.0907 0.13047 0.0
H1798 H 0.46712 0.13656 0.14594 0.0
H1799 H 0.47839 0.10027 0.14722 0.0
H1800 H 0.54535 0.08044 0.12928 0.0
H1801 H 0.51672 0.08683 0.15014 0.0
H1802 H 0.53497 0.19802 0.05209 0.0
H1803 H 0.50735 0.2073 0.07475 0.0
H1804 H 0.57458 0.18768 0.06328 0.0
H1805 H 0.58651 0.15189 0.06552 0.0
C1806 C 0.22511 0.33939 0.28257 0.0
C1807 C 0.22073 0.34365 0.31612 0.0
C1808 C 0.27121 0.3464 0.3312 0.0
C1809 C 0.27453 0.33657 0.29697 0.0
N1810 N 0.25486 0.32489 0.23985 0.0
N1811 N 0.24438 0.37273 0.37186 0.0
C1812 C 0.25167 0.33397 0.2726 0.0
C1813 C 0.24519 0.35375 0.34048 0.0
N1814 N 0.20497 0.34395 0.2611 0.0
N1815 N 0.29191 0.34663 0.35498 0.0
H1816 H 0.22711 0.38289 0.37815 0.0
H1817 H 0.26251 0.38329 0.38997 0.0
H1818 H 0.3101 0.33832 0.34965 0.0
H1819 H 0.28898 0.35014 0.37975 0.0
H1820 H 0.20767 0.34401 0.23686 0.0
H1821 H 0.18731 0.35256 0.26901 0.0
H1822 H 0.2378 0.31797 0.22074 0.0
H1823 H 0.27423 0.32185 0.23161 0.0
C1824 C 0.99082 0.05703 0.14197 0.0
C1825 C 0.00858 0.07803 0.17256 0.0
C1826 C 0.04771 0.09438 0.1379 0.0
C1827 C 0.03218 0.07018 0.10749 0.0
N1828 N 0.98279 0.04033 0.08136 0.0
N1829 N 0.05797 0.10825 0.1975 0.0
C1830 C 1.00201 0.05419 0.10983 0.0
C1831 C 0.03811 0.09383 0.16961 0.0
N1832 N 0.96295 0.03965 0.14344 0.0
N1833 N 0.06934 0.12216 0.1367 0.0
H1834 H 0.05281 0.10689 0.22084 0.0
H1835 H 0.08014 0.1176 0.1966 0.0
H1836 H 0.0729 0.12821 0.11462 0.0
H1837 H 0.07953 0.14238 0.15772 0.0
H1838 H 0.94939 0.02053 0.12366 0.0
H1839 H 0.95397 0.04251 0.16548 0.0
H1840 H 0.96054 0.03034 0.0805 0.0
H1841 H 0.98814 0.04334 0.05865 0.0
C1842 C 0.32092 0.70641 0.45739 0.0
C1843 C 0.30939 0.70576 0.48734 0.0
C1844 C 0.27903 0.74224 0.47768 0.0
C1845 C 0.28852 0.74046 0.44642 0.0
N1846 N 0.32513 0.73004 0.41094 0.0
N1847 N 0.27377 0.71747 0.52345 0.0
C1848 C 0.31155 0.72547 0.43758 0.0
C1849 C 0.2877 0.72252 0.4971 0.0
N1850 N 0.33876 0.68615 0.44633 0.0
N1851 N 0.2621 0.7635 0.48892 0.0
H1852 H 0.27863 0.70226 0.53786 0.0
H1853 H 0.25548 0.72562 0.52927 0.0
H1854 H 0.25601 0.77886 0.47531 0.0
H1855 H 0.25674 0.76875 0.51287 0.0
H1856 H 0.34417 0.68098 0.42241 0.0
H1857 H 0.3464 0.67184 0.46001 0.0
H1858 H 0.34398 0.72301 0.40563 0.0
H1859 H 0.31996 0.74438 0.39599 0.0
C1860 C 0.63512 0.04868 0.65911 0.0
C1861 C 0.6484 0.02161 0.64835 0.0
C1862 C 0.62251 1.00519 0.59302 0.0
C1863 C 0.60898 0.03211 0.60338 0.0
N1864 N 0.60372 0.0816 0.64432 0.0
N1865 N 0.66067 0.97993 0.60449 0.0
C1866 C 0.61553 0.05445 0.63601 0.0
C1867 C 0.64385 1.00157 0.61515 0.0
N1868 N 0.64195 0.06919 0.69113 0.0
N1869 N 0.61455 0.98254 0.56205 0.0
H1870 H 0.67615 0.97579 0.62022 0.0
H1871 H 0.66113 0.96827 0.57964 0.0
H1872 H 0.60054 0.9855 0.54408 0.0
H1873 H 0.6204 0.95961 0.55465 0.0
H1874 H 0.63185 0.08789 0.70163 0.0
H1875 H 0.6581 0.06745 0.70774 0.0
H1876 H 0.60908 0.10078 0.66679 0.0
H1877 H 0.58869 0.0856 0.62797 0.0
C1878 C 0.34666 0.29826 0.92341 0.0
C1879 C 0.35085 0.33364 0.9412 0.0
C1880 C 0.34103 0.34607 0.88786 0.0
C1881 C 0.33795 0.31118 0.86951 0.0
N1882 N 0.33555 0.25314 0.87065 0.0
N1883 N 0.36107 0.39249 0.93804 0.0
C1884 C 0.34045 0.28715 0.88768 0.0
C1885 C 0.35046 0.35778 0.92274 0.0
N1886 N 0.34875 0.27523 0.94075 0.0
N1887 N 0.33329 0.36808 0.87241 0.0
H1888 H 0.37 0.40263 0.96287 0.0
H1889 H 0.36431 0.41109 0.92519 0.0
H1890 H 0.32812 0.36182 0.84694 0.0
H1891 H 0.33057 0.39186 0.88513 0.0
H1892 H 0.34954 0.25009 0.93021 0.0
H1893 H 0.35033 0.28147 0.96644 0.0
H1894 H 0.33409 0.23301 0.88128 0.0
H1895 H 0.33253 0.24468 0.84499 0.0
C1896 C 0.02881 0.08761 0.39414 0.0
C1897 C 1.00056 0.06824 0.37574 0.0
C1898 C 1.00189 0.02709 0.40993 0.0
C1899 C 0.02784 0.04837 0.43208 0.0
N1900 N 0.065 0.10209 0.44313 0.0
N1901 N 0.95864 0.02129 0.37302 0.0
C1902 C 0.04081 0.07962 0.42341 0.0
C1903 C 0.98661 0.03902 0.38633 0.0
N1904 N 0.04482 0.11374 0.38338 0.0
N1905 N 0.99447 0.99291 0.40698 0.0
H1906 H 0.94703 0.02886 0.35597 0.0
H1907 H 0.94641 1.00136 0.38137 0.0
H1908 H 0.01095 0.98327 0.41364 0.0
H1909 H 0.97704 0.97473 0.39063 0.0
H1910 H 0.0667 0.12598 0.39208 0.0
H1911 H 0.03659 0.1215 0.36404 0.0
H1912 H 0.07405 0.12705 0.44161 0.0
H1913 H 0.0755 0.09545 0.46168 0.0
C1914 C 0.30312 0.72875 0.61972 0.0
C1915 C 0.29378 0.69214 0.61552 0.0
C1916 C 0.26992 0.70327 0.66478 0.0
C1917 C 0.28778 0.73774 0.67399 0.0
N1918 N 0.30283 0.786 0.65284 0.0
N1919 N 0.26526 0.64455 0.63352 0.0
C1920 C 0.29883 0.75158 0.64908 0.0
C1921 C 0.27558 0.67921 0.63735 0.0
N1922 N 0.31726 0.74167 0.59666 0.0
N1923 N 0.24617 0.69447 0.6801 0.0
H1924 H 0.26908 0.62565 0.61417 0.0
H1925 H 0.25449 0.63471 0.65114 0.0
H1926 H 0.23886 0.71334 0.6959 0.0
H1927 H 0.23128 0.66999 0.67278 0.0
H1928 H 0.32731 0.76785 0.60031 0.0
H1929 H 0.31965 0.72617 0.57396 0.0
H1930 H 0.3073 0.79755 0.63391 0.0
H1931 H 0.29862 0.80214 0.67431 0.0
C1932 C 0.66607 0.02965 0.82299 0.0
C1933 C 0.68319 0.05569 0.81096 0.0
C1934 C 0.66184 0.09847 0.84361 0.0
C1935 C 0.64083 0.07105 0.85007 0.0
N1936 N 0.62213 0.01036 0.84615 0.0
N1937 N 0.69991 0.11518 0.81112 0.0
C1938 C 0.64298 0.0366 0.84033 0.0
C1939 C 0.68213 0.09038 0.82213 0.0
N1940 N 0.67166 0.99823 0.81722 0.0
N1941 N 0.66248 0.13206 0.85826 0.0
H1942 H 0.71614 0.10998 0.79713 0.0
H1943 H 0.69814 0.14023 0.81492 0.0
H1944 H 0.64756 0.13879 0.87379 0.0
H1945 H 0.67896 0.1533 0.8571 0.0
H1946 H 0.66159 0.97903 0.82771 0.0
H1947 H 0.68857 0.99267 0.8045 0.0
H1948 H 0.62079 0.98428 0.83657 0.0
H1949 H 0.60472 0.0144 0.85867 0.0
C1950 C 0.3377 0.36828 0.15358 0.0
C1951 C 0.33884 0.34217 0.12454 0.0
C1952 C 0.33471 0.30123 0.15838 0.0
C1953 C 0.331 0.32643 0.18695 0.0
N1954 N 0.32152 0.38165 0.20756 0.0
N1955 N 0.33125 0.28162 0.09841 0.0
C1956 C 0.33023 0.35923 0.1832 0.0
C1957 C 0.33491 0.30797 0.12673 0.0
N1958 N 0.34537 0.40224 0.15376 0.0
N1959 N 0.34064 0.27186 0.16156 0.0
H1960 H 0.33132 0.28567 0.07503 0.0
H1961 H 0.32517 0.25562 0.09792 0.0
H1962 H 0.34313 0.26688 0.18415 0.0
H1963 H 0.34648 0.25445 0.14245 0.0
H1964 H 0.34826 0.42256 0.17522 0.0
H1965 H 0.35155 0.41039 0.13326 0.0
H1966 H 0.31799 0.40457 0.205 0.0
H1967 H 0.31456 0.37542 0.22865 0.0
C1968 C 0.26723 0.99331 0.02438 0.0
C1969 C 0.29553 0.01417 0.02497 0.0
C1970 C 0.27942 0.06643 0.04053 0.0
C1971 C 0.25304 0.04613 0.0469 0.0
N1972 N 0.2207 0.99025 0.04426 0.0
N1973 N 0.32878 0.06956 0.02915 0.0
C1974 C 0.24628 0.00943 0.03793 0.0
C1975 C 0.30155 0.05048 0.0312 0.0
N1976 N 0.26074 0.95825 0.01133 0.0
N1977 N 0.28298 0.10066 0.04303 0.0
H1978 H 0.34472 0.05814 0.01996 0.0
H1979 H 0.33591 0.09645 0.03729 0.0
H1980 H 0.26692 0.11295 0.0496 0.0
H1981 H 0.30071 0.11627 0.03608 0.0
H1982 H 0.23979 0.94168 0.00734 0.0
H1983 H 0.27607 0.94612 1.00151 0.0
H1984 H 0.21578 0.96375 0.04125 0.0
H1985 H 0.20491 1.00108 0.05471 0.0
C1986 C 0.70349 0.60938 0.0149 0.0
C1987 C 0.7085 0.62059 0.98628 0.0
C1988 C 0.65689 0.59296 0.9632 0.0
C1989 C 0.6517 0.58223 0.99227 0.0
N1990 N 0.67227 0.5711 0.04043 0.0
N1991 N 0.68987 0.62797 0.93539 0.0
C1992 C 0.67559 0.5883 0.01684 0.0
C1993 C 0.68512 0.61377 0.96104 0.0
N1994 N 0.72539 0.61968 0.04078 0.0
N1995 N 0.6354 0.58154 0.93686 0.0
H1996 H 0.71028 0.64293 0.93319 0.0
H1997 H 0.67346 0.62744 0.91782 0.0
H1998 H 0.61544 0.56432 0.93658 0.0
H1999 H 0.63811 0.586 0.91398 0.0
H2000 H 0.72232 0.61631 0.06402 0.0
H2001 H 0.74628 0.63443 0.04 0.0
H2002 H 0.68931 0.57113 0.05692 0.0
H2003 H 0.65287 0.55344 0.04108 0.0
C2004 C 0.74832 0.39109 0.25539 0.0
C2005 C 0.75591 0.42394 0.28115 0.0
C2006 C 0.78848 0.39634 0.30921 0.0
C2007 C 0.78422 0.36567 0.28214 0.0
N2008 N 0.76017 0.3374 0.22668 0.0
N2009 N 0.79571 0.45835 0.32461 0.0
C2010 C 0.76432 0.36446 0.25439 0.0
C2011 C 0.77952 0.42644 0.30565 0.0
N2012 N 0.72509 0.38419 0.23203 0.0
N2013 N 0.80143 0.39749 0.33932 0.0
H2014 H 0.79463 0.48107 0.31925 0.0
H2015 H 0.81363 0.46189 0.34171 0.0
H2016 H 0.80873 0.37723 0.34357 0.0
H2017 H 0.80271 0.41759 0.36055 0.0
H2018 H 0.71598 0.35997 0.21514 0.0
H2019 H 0.71354 0.40197 0.23106 0.0
H2020 H 0.74877 0.33588 0.20431 0.0
H2021 H 0.77038 0.31789 0.22546 0.0
C2022 C 0.9651 0.53249 0.53472 0.0
C2023 C 0.94737 0.51379 0.50465 0.0
C2024 C 0.98698 0.49103 0.48398 0.0
C2025 C 0.00556 0.5111 0.51371 0.0
N2026 N 0.00534 0.53514 0.57226 0.0
N2027 N 0.94263 0.48206 0.44802 0.0
C2028 C 0.9928 0.52769 0.54057 0.0
C2029 C 0.9588 0.49524 0.47841 0.0
N2030 N 0.95491 0.55437 0.5581 0.0
N2031 N 0.99464 0.46485 0.46313 0.0
H2032 H 0.92275 0.48714 0.44374 0.0
H2033 H 0.95025 0.46983 0.42699 0.0
H2034 H 0.01412 0.45944 0.46802 0.0
H2035 H 0.98049 0.44651 0.44323 0.0
H2036 H 0.96757 0.57093 0.57994 0.0
H2037 H 0.93458 0.55839 0.55377 0.0
H2038 H 0.99574 0.54407 0.59296 0.0
H2039 H 0.02341 0.52762 0.57764 0.0
C2040 C 0.33308 0.09148 0.32028 0.0
C2041 C 0.35662 0.07993 0.30778 0.0
C2042 C 0.33978 0.08091 0.25251 0.0
C2043 C 0.3152 0.09017 0.2644 0.0
N2044 N 0.28433 0.09491 0.30712 0.0
N2045 N 0.37518 0.05085 0.25964 0.0
C2046 C 0.3103 0.09173 0.29745 0.0
C2047 C 0.35759 0.07035 0.2731 0.0
N2048 N 0.3334 0.10479 0.3535 0.0
N2049 N 0.34758 0.08459 0.22279 0.0
H2050 H 0.38734 0.04043 0.27344 0.0
H2051 H 0.37467 0.04143 0.23416 0.0
H2052 H 0.33556 0.09289 0.20676 0.0
H2053 H 0.36749 0.0822 0.2155 0.0
H2054 H 0.31797 0.1167 0.36328 0.0
H2055 H 0.35052 0.10727 0.37116 0.0
H2056 H 0.27879 0.09365 0.33033 0.0
H2057 H 0.26738 0.09526 0.2906 0.0
C2058 C 0.38183 0.15833 0.55724 0.0
C2059 C 0.36771 0.15131 0.52471 0.0
C2060 C 0.39491 0.10938 0.50383 0.0
C2061 C 0.40935 0.11655 0.53635 0.0
N2062 N 0.42207 0.15393 0.59218 0.0
N2063 N 0.36612 0.12721 0.46598 0.0
C2064 C 0.40453 0.14304 0.5625 0.0
C2065 C 0.37612 0.12924 0.49766 0.0
N2066 N 0.37307 0.17892 0.58316 0.0
N2067 N 0.39757 0.08212 0.47919 0.0
H2068 H 0.35169 0.14055 0.46039 0.0
H2069 H 0.37406 0.11475 0.44531 0.0
H2070 H 0.41093 0.06672 0.4824 0.0
H2071 H 0.38477 0.07297 0.45616 0.0
H2072 H 0.38019 0.18207 0.60786 0.0
H2073 H 0.35721 0.19131 0.57996 0.0
H2074 H 0.42155 0.17518 0.61134 0.0
H2075 H 0.43913 0.14361 0.59644 0.0
C2076 C 0.7526 0.64717 0.30871 0.0
C2077 C 0.75781 0.61643 0.28897 0.0
C2078 C 0.79196 0.65461 0.26202 0.0
C2079 C 0.78854 0.6858 0.28367 0.0
N2080 N 0.76908 0.70945 0.3329 0.0
N2081 N 0.78552 0.59207 0.24886 0.0
C2082 C 0.76958 0.68123 0.3082 0.0
C2083 C 0.77835 0.62066 0.26619 0.0
N2084 N 0.73069 0.64397 0.32782 0.0
N2085 N 0.80741 0.65708 0.23631 0.0
H2086 H 0.77556 0.56728 0.25045 0.0
H2087 H 0.80261 0.59308 0.23481 0.0
H2088 H 0.81799 0.6807 0.23278 0.0
H2089 H 0.808 0.6359 0.21712 0.0
H2090 H 0.723 0.66457 0.3396 0.0
H2091 H 0.71833 0.62009 0.32948 0.0
H2092 H 0.75872 0.70805 0.35363 0.0
H2093 H 0.78197 0.73404 0.33478 0.0
C2094 C 0.9035 0.4387 0.804 0.0
C2095 C 0.88448 0.45963 0.8121 0.0
C2096 C 0.84285 0.41038 0.78455 0.0
C2097 C 0.86115 0.38807 0.78215 0.0
N2098 N 0.90936 0.38141 0.79007 0.0
N2099 N 0.83627 0.46677 0.80987 0.0
C2100 C 0.89167 0.40247 0.79147 0.0
C2101 C 0.85419 0.4459 0.80218 0.0
N2102 N 0.93292 0.4533 0.80823 0.0
N2103 N 0.81475 0.39779 0.76979 0.0
H2104 H 0.84394 0.49334 0.82119 0.0
H2105 H 0.81371 0.4576 0.80679 0.0
H2106 H 0.80576 0.37199 0.75733 0.0
H2107 H 0.80108 0.41311 0.76762 0.0
H2108 H 0.94742 0.43996 0.79826 0.0
H2109 H 0.94298 0.47947 0.81937 0.0
H2110 H 0.9311 0.38979 0.80045 0.0
H2111 H 0.9015 0.35485 0.78138 0.0
C2112 C 0.11137 0.92522 0.04322 0.0
C2113 C 0.10325 0.91741 0.07299 0.0
C2114 C 0.08285 0.96801 0.08437 0.0
C2115 C 0.08978 0.97529 0.05389 0.0
N2116 N 0.10747 0.9561 1.00201 0.0
N2117 N 0.07444 0.92693 0.1171 0.0
C2118 C 0.10302 0.95239 0.03263 0.0
C2119 C 0.08718 0.9377 0.09217 0.0
N2120 N 0.12799 0.90706 0.02532 0.0
N2121 N 0.07193 0.99029 0.10644 0.0
H2122 H 0.07765 0.90586 0.12432 0.0
H2123 H 0.05889 0.93713 0.12888 0.0
H2124 H 0.06574 0.01076 0.10113 0.0
H2125 H 0.07017 0.98937 0.13066 0.0
H2126 H 0.13762 0.91326 0.00548 0.0
H2127 H 0.13431 0.88736 0.03221 0.0
H2128 H 0.1133 0.93798 0.98365 0.0
H2129 H 0.10309 0.97588 0.99368 0.0
C2130 C 0.91588 0.24881 0.87567 0.0
C2131 C 0.94511 0.27004 0.87916 0.0
C2132 C 0.92785 0.30026 0.84185 0.0
C2133 C 0.89851 0.28047 0.83922 0.0
N2134 N 0.86423 0.24075 0.86058 0.0
N2135 N 0.97408 0.32581 0.87705 0.0
C2136 C 0.89243 0.25642 0.85847 0.0
C2137 C 0.94953 0.29873 0.86572 0.0
N2138 N 0.91019 0.22071 0.88766 0.0
N2139 N 0.93552 0.32054 0.82138 0.0
H2140 H 0.98908 0.32737 0.89675 0.0
H2141 H 0.97736 0.34863 0.87013 0.0
H2142 H 0.92074 0.32182 0.80309 0.0
H2143 H 0.95706 0.33301 0.8203 0.0
H2144 H 0.89025 0.20183 0.88198 0.0
H2145 H 0.92555 0.21506 0.90206 0.0
H2146 H 0.85821 0.22644 0.87718 0.0
H2147 H 0.84663 0.24423 0.84759 0.0
C2148 C 0.61734 0.19755 0.57613 0.0
C2149 C 0.60147 0.21074 0.55535 0.0
C2150 C 0.57572 0.14998 0.52377 0.0
C2151 C 0.58925 0.13695 0.54687 0.0
N2152 N 0.61745 0.15101 0.60041 0.0
N2153 N 0.57613 0.19776 0.50065 0.0
C2154 C 0.60854 0.16156 0.57446 0.0
C2155 C 0.58378 0.18637 0.52655 0.0
N2156 N 0.64242 0.21853 0.59566 0.0
N2157 N 0.55262 0.12838 0.5014 0.0
H2158 H 0.58395 0.22351 0.50058 0.0
H2159 H 0.56567 0.18116 0.47773 0.0
H2160 H 0.54485 0.10219 0.49939 0.0
H2161 H 0.5392 0.13719 0.48739 0.0
H2162 H 0.65578 0.2096 0.60962 0.0
H2163 H 0.65256 0.24296 0.59348 0.0
H2164 H 0.62833 0.16825 0.62291 0.0
H2165 H 0.61235 0.12512 0.60022 0.0
C2166 C 0.63305 0.75609 0.3786 0.0
C2167 C 0.607 0.76161 0.36632 0.0
C2168 C 0.6346 0.79943 0.3363 0.0
C2169 C 0.66089 0.79746 0.35189 0.0
N2170 N 0.68572 0.77636 0.39003 0.0
N2171 N 0.58261 0.7901 0.33526 0.0
C2172 C 0.6603 0.77611 0.37335 0.0
C2173 C 0.60767 0.78367 0.34559 0.0
N2174 N 0.63169 0.73189 0.39543 0.0
N2175 N 0.63542 0.81568 0.31193 0.0
H2176 H 0.56217 0.77748 0.33973 0.0
H2177 H 0.58216 0.8094 0.32389 0.0
H2178 H 0.65477 0.82712 0.30425 0.0
H2179 H 0.61699 0.81514 0.29723 0.0
H2180 H 0.64953 0.72395 0.40204 0.0
H2181 H 0.6122 0.71777 0.40076 0.0
H2182 H 0.68671 0.76458 0.40884 0.0
H2183 H 0.70606 0.79039 0.38663 0.0
C2184 C 0.14051 0.28439 0.47371 0.0
C2185 C 0.12891 0.26543 0.44046 0.0
C2186 C 0.09712 0.22041 0.45852 0.0
C2187 C 0.10867 0.23858 0.49202 0.0
N2188 N 0.14619 0.28371 0.53116 0.0
N2189 N 0.10554 0.21057 0.40142 0.0
C2190 C 0.13212 0.26926 0.49959 0.0
C2191 C 0.11104 0.23131 0.43321 0.0
N2192 N 0.15806 0.31739 0.48053 0.0
N2193 N 0.07141 0.19482 0.45071 0.0
H2194 H 0.1154 0.21896 0.3825 0.0
H2195 H 0.09378 0.18456 0.39489 0.0
H2196 H 0.05888 0.18775 0.4684 0.0
H2197 H 0.06087 0.18356 0.42655 0.0
H2198 H 0.16446 0.3341 0.50439 0.0
H2199 H 0.16537 0.32829 0.46187 0.0
H2200 H 0.16494 0.30445 0.53758 0.0
H2201 H 0.14037 0.27314 0.55047 0.0
C2202 C 0.60299 0.24142 0.19127 0.0
C2203 C 0.59512 0.27075 0.20945 0.0
C2204 C 0.62459 0.27256 0.25981 0.0
C2205 C 0.63269 0.24345 0.24149 0.0
N2206 N 0.63369 0.2032 0.1893 0.0
N2207 N 0.5953 0.31252 0.26096 0.0
C2208 C 0.62296 0.22868 0.20708 0.0
C2209 C 0.60523 0.28601 0.24372 0.0
N2210 N 0.58998 0.22453 0.15944 0.0
N2211 N 0.63643 0.28806 0.29222 0.0
H2212 H 0.58236 0.32412 0.24953 0.0
H2213 H 0.5988 0.32237 0.28658 0.0
H2214 H 0.65005 0.2783 0.30497 0.0
H2215 H 0.63407 0.31143 0.3063 0.0
H2216 H 0.59149 0.20029 0.14638 0.0
H2217 H 0.57598 0.23365 0.14647 0.0
H2218 H 0.63042 0.19428 0.16359 0.0
H2219 H 0.64759 0.1923 0.20017 0.0
C2220 C 0.65159 0.95797 0.93764 0.0
C2221 C 0.64649 0.92678 0.94664 0.0
C2222 C 0.61759 0.94579 0.98687 0.0
C2223 C 0.62221 0.97797 0.98016 0.0
N2224 N 0.64933 0.01755 0.95254 0.0
N2225 N 0.63983 0.90141 0.99127 0.0
C2226 C 0.64129 0.98533 0.95666 0.0
C2227 C 0.63678 0.92628 0.97706 0.0
N2228 N 0.66527 0.96072 0.91076 0.0
N2229 N 0.59202 0.93069 0.99605 0.0
H2230 H 0.65291 0.88561 0.9822 0.0
H2231 H 0.63121 0.899 0.01288 0.0
H2232 H 0.57498 0.94214 0.99808 0.0
H2233 H 0.58704 0.90543 0.99801 0.0
H2234 H 0.6674 0.98145 0.90076 0.0
H2235 H 0.6743 0.94149 0.89845 0.0
H2236 H 0.66425 0.02477 0.93704 0.0
H2237 H 0.64266 0.03775 0.96687 0.0
C2238 C 0.91687 0.74557 0.7088 0.0
C2239 C 0.94517 0.7622 0.72555 0.0
C2240 C 0.92467 0.78618 0.77492 0.0
C2241 C 0.89694 0.77542 0.75583 0.0
N2242 N 0.86858 0.75055 0.70137 0.0
N2243 N 0.97622 0.80507 0.7734 0.0
C2244 C 0.89357 0.75679 0.72178 0.0
C2245 C 0.94932 0.7843 0.75845 0.0
N2246 N 0.91204 0.71825 0.6811 0.0
N2247 N 0.92758 0.79793 0.80859 0.0
H2248 H 0.99481 0.80647 0.76181 0.0
H2249 H 0.97945 0.82373 0.79616 0.0
H2250 H 0.90992 0.79956 0.82145 0.0
H2251 H 0.94722 0.8034 0.82364 0.0
H2252 H 0.89125 0.70346 0.6695 0.0
H2253 H 0.92866 0.70787 0.6724 0.0
H2254 H 0.8663 0.73969 0.67584 0.0
H2255 H 0.85159 0.76001 0.70933 0.0
C2256 C 0.15763 0.05069 0.88809 0.0
C2257 C 0.14966 0.01819 0.86303 0.0
C2258 C 0.11556 0.99624 0.90133 0.0
C2259 C 0.12091 0.02952 0.92519 0.0
N2260 N 0.15743 0.08566 0.94387 0.0
N2261 N 0.11636 0.96102 0.84549 0.0
C2262 C 0.14481 0.05592 0.91917 0.0
C2263 C 0.1272 0.99156 0.86971 0.0
N2264 N 0.17665 0.0779 0.88148 0.0
N2265 N 0.10275 0.96771 0.91076 0.0
H2266 H 0.12485 0.95552 0.82322 0.0
H2267 H 0.09767 0.94231 0.84671 0.0
H2268 H 0.09747 0.96944 0.93457 0.0
H2269 H 0.10124 0.94257 0.89685 0.0
H2270 H 0.18027 0.10359 0.89515 0.0
H2271 H 0.18715 0.07509 0.86047 0.0
H2272 H 0.17727 0.10278 0.94334 0.0
H2273 H 0.15047 0.09228 0.96664 0.0
C2274 C 0.84831 0.39764 0.59966 0.0
C2275 C 0.86511 0.3929 0.57313 0.0
C2276 C 0.89016 0.36132 0.60157 0.0
C2277 C 0.87895 0.37435 0.63068 0.0
N2278 N 0.84688 0.40469 0.65832 0.0
N2279 N 0.90283 0.36738 0.54937 0.0
C2280 C 0.8577 0.39228 0.62999 0.0
C2281 C 0.8859 0.37347 0.57387 0.0
N2282 N 0.82274 0.40563 0.59537 0.0
N2283 N 0.90443 0.33651 0.59996 0.0
H2284 H 0.89693 0.36501 0.52465 0.0
H2285 H 0.9226 0.36205 0.55363 0.0
H2286 H 0.90817 0.32683 0.61976 0.0
H2287 H 0.90996 0.32306 0.57793 0.0
H2288 H 0.80867 0.40702 0.61316 0.0
H2289 H 0.81377 0.40613 0.57242 0.0
H2290 H 0.83366 0.42123 0.66001 0.0
H2291 H 0.85259 0.4 0.68061 0.0
C2292 C 0.4819 0.02955 0.41204 0.0
C2293 C 0.48604 0.06232 0.40721 0.0
C2294 C 0.53764 0.07776 0.42778 0.0
C2295 C 0.53311 0.04453 0.43266 0.0
N2296 N 0.5034 0.98517 0.41571 0.0
N2297 N 0.51544 0.12033 0.4155 0.0
C2298 C 0.50617 0.01933 0.42026 0.0
C2299 C 0.51327 0.08746 0.41709 0.0
N2300 N 0.45468 0.00812 0.40895 0.0
N2301 N 0.56511 0.09889 0.43123 0.0
H2302 H 0.49728 0.12746 0.40812 0.0
H2303 H 0.53416 0.14091 0.42377 0.0
H2304 H 0.58324 0.09026 0.43417 0.0
H2305 H 0.57012 0.12314 0.42712 0.0
H2306 H 0.45097 0.9838 0.41307 0.0
H2307 H 0.43636 0.01637 0.40499 0.0
H2308 H 0.52113 0.97578 0.41944 0.0
H2309 H 0.52113 0.97578 0.41944 0.0
C2310 C 0.82752 0.78111 0.13311 0.0
C2311 C 0.815 0.74731 0.11131 0.0
C2312 C 0.80369 0.72654 0.16045 0.0
C2313 C 0.81828 0.75979 0.18263 0.0
N2314 N 0.84918 0.8172 0.18817 0.0
N2315 N 0.78098 0.69136 0.10543 0.0
C2316 C 0.83099 0.7869 0.16843 0.0
C2317 C 0.80001 0.72112 0.12527 0.0
N2318 N 0.83511 0.80825 0.11986 0.0
N2319 N 0.79456 0.69903 0.17291 0.0
H2320 H 0.77613 0.68603 0.08006 0.0
H2321 H 0.76684 0.67358 0.11459 0.0
H2322 H 0.79429 0.70169 0.19805 0.0
H2323 H 0.78863 0.67334 0.15847 0.0
H2324 H 0.84121 0.83407 0.13392 0.0
H2325 H 0.8319 0.80499 0.09442 0.0
H2326 H 0.86205 0.83614 0.17921 0.0
H2327 H 0.85378 0.82216 0.21349 0.0
C2328 C 0.14924 0.04407 0.64664 0.0
C2329 C 0.1335 0.01732 0.65946 0.0
C2330 C 0.09338 1.00498 0.61185 0.0
C2331 C 0.11013 0.03011 0.59744 0.0
N2332 N 0.15739 0.06935 0.60101 0.0
N2333 N 0.0903 0.97071 0.65177 0.0
C2334 C 0.13894 0.04823 0.61503 0.0
C2335 C 0.1054 0.99764 0.64127 0.0
N2336 N 0.17383 0.06709 0.66556 0.0
N2337 N 0.06569 0.98756 0.5972 0.0
H2338 H 0.09854 0.96407 0.67187 0.0
H2339 H 0.07066 0.95342 0.63972 0.0
H2340 H 0.05719 0.99058 0.57538 0.0
H2341 H 0.05054 0.97183 0.60727 0.0
H2342 H 0.18429 0.0901 0.66065 0.0
H2343 H 0.18251 0.06446 0.6877 0.0
H2344 H 0.17956 0.07969 0.60926 0.0
H2345 H 0.15051 0.07509 0.57993 0.0
C2346 C 0.88082 0.38109 0.40029 0.0
C2347 C 0.86344 0.38381 0.42599 0.0
C2348 C 0.83301 0.32454 0.39861 0.0
C2349 C 0.84991 0.32405 0.37252 0.0
N2350 N 0.89842 0.34159 0.36001 0.0
N2351 N 0.82222 0.35756 0.45036 0.0
C2352 C 0.87687 0.34891 0.3775 0.0
C2353 C 0.83921 0.35532 0.42556 0.0
N2354 N 0.89973 0.40977 0.39633 0.0
N2355 N 0.81402 0.29444 0.39948 0.0
H2356 H 0.82669 0.37849 0.47144 0.0
H2357 H 0.80258 0.33933 0.44933 0.0
H2358 H 0.81327 0.271 0.38249 0.0
H2359 H 0.80219 0.29171 0.41889 0.0
H2360 H 0.91164 0.40913 0.37646 0.0
H2361 H 0.89974 0.43434 0.41016 0.0
H2362 H 0.91923 0.35864 0.36399 0.0
H2363 H 0.89602 0.31677 0.34466 0.0
C2364 C 0.49543 0.02572 0.24842 0.0
C2365 C 0.47088 0.03432 0.23622 0.0
C2366 C 0.46687 0.99197 0.18258 0.0
C2367 C 0.49289 0.98567 0.19374 0.0
N2368 N 0.52758 0.98844 0.23858 0.0
N2369 N 0.42865 0.01971 0.19624 0.0
C2370 C 0.50551 0.9996 0.22733 0.0
C2371 C 0.45496 0.01507 0.20477 0.0
N2372 N 0.51029 0.04425 0.27902 0.0
N2373 N 0.45448 0.97703 0.15031 0.0
H2374 H 0.41922 0.03572 0.21272 0.0
H2375 H 0.4153 1.00641 0.174 0.0
H2376 H 0.46179 0.95843 0.13405 0.0
H2377 H 0.4376 0.98353 0.13919 0.0
H2378 H 0.53008 0.04194 0.28816 0.0
H2379 H 0.50331 0.06328 0.29501 0.0
H2380 H 0.53639 0.99532 0.26332 0.0
H2381 H 0.53561 0.96987 0.2233 0.0
C2382 C 0.82577 0.79016 0.93007 0.0
C2383 C 0.8333 0.76021 0.9331 0.0
C2384 C 0.84855 0.75187 0.87692 0.0
C2385 C 0.83989 0.78106 0.87322 0.0
N2386 N 0.82661 0.83262 0.89985 0.0
N2387 N 0.84978 0.71062 0.90837 0.0
C2388 C 0.83039 0.80154 0.90091 0.0
C2389 C 0.84432 0.74073 0.90625 0.0
N2390 N 0.81304 0.80704 0.95467 0.0
N2391 N 0.8624 0.73591 0.85297 0.0
H2392 H 0.84719 0.70163 0.92917 0.0
H2393 H 0.85508 0.69315 0.88895 0.0
H2394 H 0.86669 0.74415 0.83206 0.0
H2395 H 0.87206 0.7167 0.85488 0.0
H2396 H 0.80359 0.82645 0.95276 0.0
H2397 H 0.80999 0.7998 0.97636 0.0
H2398 H 0.82338 0.85096 0.92015 0.0
H2399 H 0.82845 0.84107 0.87882 0.0
C2400 C 0.86612 0.0655 0.98645 0.0
C2401 C 0.86224 0.0658 0.01954 0.0
C2402 C 0.89829 0.03339 0.01986 0.0
C2403 C 0.90443 0.03759 0.98834 0.0
N2404 N 0.90091 0.06894 0.94817 0.0
N2405 N 0.87766 0.05422 0.06981 0.0
C2406 C 0.89074 0.05773 0.97405 0.0
C2407 C 0.87931 0.05107 0.03706 0.0
N2408 N 0.84534 0.07026 0.96588 0.0
N2409 N 0.90928 0.01152 0.0326 0.0
H2410 H 0.8637 0.06667 0.08263 0.0
H2411 H 0.89162 0.04684 0.08458 0.0
H2412 H 0.92285 0.99791 0.02054 0.0
H2413 H 0.90326 1.00507 0.05392 0.0
H2414 H 0.84672 0.06762 0.94083 0.0
H2415 H 0.82509 0.07201 0.97246 0.0
H2416 H 0.89242 0.08567 0.93853 0.0
H2417 H 0.91975 0.06464 0.93905 0.0
C2418 C 0.45135 0.43832 0.02699 0.0
C2419 C 0.43232 0.4563 0.04252 0.0
C2420 C 0.4742 0.50767 0.06686 0.0
C2421 C 0.49227 0.49068 0.04776 0.0
N2422 N 0.50063 0.43487 0.02941 0.0
N2423 N 0.42529 0.50902 0.07706 0.0
C2424 C 0.48162 0.45443 0.03338 0.0
C2425 C 0.44363 0.4913 0.06242 0.0
N2426 N 0.44054 0.40639 0.00483 0.0
N2427 N 0.48654 0.53669 0.0924 0.0
H2428 H 0.4032 0.49761 0.07636 0.0
H2429 H 0.43166 0.53565 0.08812 0.0
H2430 H 0.50887 0.54546 0.10002 0.0
H2431 H 0.47482 0.54886 0.10913 0.0
H2432 H 0.45355 0.39356 0.9906 0.0
H2433 H 0.41833 0.39473 0.99804 0.0
H2434 H 0.49408 0.4079 0.0213 0.0
H2435 H 0.52246 0.44572 0.03944 0.0
C2436 C 0.39669 0.6782 0.76272 0.0
C2437 C 0.39189 0.65872 0.78685 0.0
C2438 C 0.35973 0.69791 0.80858 0.0
C2439 C 0.3615 0.7143 0.78245 0.0
N2440 N 0.37922 0.71249 0.73038 0.0
N2441 N 0.35654 0.64466 0.82337 0.0
C2442 C 0.37922 0.70193 0.75834 0.0
C2443 C 0.3699 0.66721 0.80697 0.0
N2444 N 0.41877 0.6756 0.74435 0.0
N2445 N 0.34865 0.71183 0.83606 0.0
H2446 H 0.35869 0.6197 0.81895 0.0
H2447 H 0.33969 0.64851 0.83694 0.0
H2448 H 0.34069 0.73322 0.83833 0.0
H2449 H 0.3494 0.7035 0.85728 0.0
H2450 H 0.42574 0.6917 0.72949 0.0
H2451 H 0.4319 0.65965 0.74615 0.0
H2452 H 0.389 0.70259 0.71019 0.0
H2453 H 0.36647 0.72819 0.72605 0.0
C2454 C 0.20631 0.58733 0.54271 0.0
C2455 C 0.21308 0.60672 0.52033 0.0
C2456 C 0.17412 0.63271 0.53671 0.0
C2457 C 0.16026 0.60315 0.54694 0.0
N2458 N 0.16694 0.55291 0.56128 0.0
N2459 N 0.20596 0.65249 0.49901 0.0
C2460 C 0.17791 0.58132 0.55159 0.0
C2461 C 0.1981 0.63146 0.51878 0.0
N2462 N 0.22589 0.5722 0.55286 0.0
N2463 N 0.16481 0.66174 0.54435 0.0
H2464 H 0.22417 0.65247 0.48671 0.0
H2465 H 0.19378 0.66854 0.4941 0.0
H2466 H 0.14948 0.6647 0.56052 0.0
H2467 H 0.17514 0.6842 0.53838 0.0
H2468 H 0.2227 0.55939 0.57111 0.0
H2469 H 0.24655 0.57609 0.54555 0.0
H2470 H 0.17751 0.53407 0.56193 0.0
H2471 H 0.14575 0.54717 0.56481 0.0
C2472 C 0.79229 0.97015 0.72892 0.0
C2473 C 0.79703 1.00378 0.72615 0.0
C2474 C 0.83988 0.02391 0.76798 0.0
C2475 C 0.82983 0.9929 0.777 0.0
N2476 N 0.79382 0.93727 0.76787 0.0
N2477 N 0.82803 0.06097 0.73631 0.0
C2478 C 0.80565 0.96572 0.75755 0.0
C2479 C 0.82263 0.02969 0.74268 0.0
N2480 N 0.77287 0.94342 0.7059 0.0
N2481 N 0.86536 0.04765 0.78384 0.0
H2482 H 0.81561 0.06404 0.71671 0.0
H2483 H 0.84377 0.0832 0.75026 0.0
H2484 H 0.87824 0.04394 0.80265 0.0
H2485 H 0.8746 0.06995 0.77712 0.0
H2486 H 0.76957 0.91762 0.70558 0.0
H2487 H 0.76253 0.94739 0.68533 0.0
H2488 H 0.77477 0.91842 0.75576 0.0
H2489 H 0.80101 0.93414 0.79037 0.0
C2490 C 0.75093 0.94558 0.54678 0.0
C2491 C 0.77413 0.94166 0.5284 0.0
C2492 C 0.74605 0.94559 0.47982 0.0
C2493 C 0.72617 0.95691 0.50028 0.0
N2494 N 0.69928 0.93658 0.54087 0.0
N2495 N 0.79391 0.93704 0.47672 0.0
C2496 C 0.7253 0.94869 0.53082 0.0
C2497 C 0.77146 0.94055 0.49441 0.0
N2498 N 0.75309 0.94605 0.57928 0.0
N2499 N 0.73956 0.93792 0.44634 0.0
H2500 H 0.81309 0.9338 0.48667 0.0
H2501 H 0.79443 0.93994 0.45298 0.0
H2502 H 0.71999 0.93958 0.43556 0.0
H2503 H 0.75175 0.92655 0.42965 0.0
H2504 H 0.73766 0.95216 0.5943 0.0
H2505 H 0.77115 0.94257 0.59156 0.0
H2506 H 0.6974 0.92838 0.56216 0.0
H2507 H 0.68008 0.92781 0.52436 0.0
C2508 C 0.40478 0.45695 0.80979 0.0
C2509 C 0.3971 0.47207 0.78513 0.0
C2510 C 0.3636 0.41364 0.75533 0.0
C2511 C 0.36877 0.40002 0.78242 0.0
N2512 N 0.3879 0.41556 0.83999 0.0
N2513 N 0.36649 0.46434 0.73505 0.0
C2514 C 0.38776 0.42358 0.81078 0.0
C2515 C 0.37581 0.45014 0.75794 0.0
N2516 N 0.42913 0.47412 0.83216 0.0
N2517 N 0.34731 0.39165 0.72675 0.0
H2518 H 0.37543 0.49021 0.73594 0.0
H2519 H 0.34886 0.45124 0.71664 0.0
H2520 H 0.337 0.36584 0.7246 0.0
H2521 H 0.34527 0.39843 0.70483 0.0
H2522 H 0.43717 0.46324 0.8491 0.0
H2523 H 0.44315 0.49723 0.83082 0.0
H2524 H 0.39936 0.43279 0.86223 0.0
H2525 H 0.37325 0.39366 0.84255 0.0
C2526 C 0.28929 0.64546 0.2491 0.0
C2527 C 0.26895 0.6375 0.27103 0.0
C2528 C 0.28359 0.69795 0.30263 0.0
C2529 C 0.29749 0.70694 0.27659 0.0
N2530 N 0.33172 0.6879 0.24351 0.0
N2531 N 0.24629 0.65777 0.31922 0.0
C2532 C 0.30544 0.68048 0.25408 0.0
C2533 C 0.26606 0.66411 0.29811 0.0
N2534 N 0.29367 0.6199 0.22393 0.0
N2535 N 0.29166 0.71997 0.33345 0.0
H2536 H 0.23273 0.63334 0.31737 0.0
H2537 H 0.24189 0.67765 0.33713 0.0
H2538 H 0.30972 0.74144 0.33801 0.0
H2539 H 0.28407 0.71345 0.35416 0.0
H2540 H 0.30572 0.62518 0.20525 0.0
H2541 H 0.28439 0.59365 0.22099 0.0
H2542 H 0.34076 0.66915 0.23035 0.0
H2543 H 0.34584 0.71259 0.25241 0.0
C2544 C 0.53429 0.64551 0.45501 0.0
C2545 C 0.53537 0.6776 0.4786 0.0
C2546 C 0.54906 0.65167 0.52263 0.0
C2547 C 0.55063 0.62088 0.49887 0.0
N2548 N 0.54801 0.59157 0.44116 0.0
N2549 N 0.54965 0.71248 0.5351 0.0
C2550 C 0.5444 0.61899 0.46474 0.0
C2551 C 0.54446 0.6809 0.51246 0.0
N2552 N 0.52163 0.63905 0.42328 0.0
N2553 N 0.55096 0.65273 0.55529 0.0
H2554 H 0.54667 0.73406 0.52871 0.0
H2555 H 0.55949 0.71799 0.55932 0.0
H2556 H 0.55454 0.63252 0.56375 0.0
H2557 H 0.54697 0.67248 0.57365 0.0
H2558 H 0.51668 0.61492 0.40585 0.0
H2559 H 0.51328 0.65671 0.41511 0.0
H2560 H 0.54726 0.59031 0.41616 0.0
H2561 H 0.55459 0.57155 0.44688 0.0
C2562 C 0.73914 0.34098 0.68388 0.0
C2563 C 0.71059 0.31962 0.68275 0.0
C2564 C 0.73128 0.29064 0.71902 0.0
C2565 C 0.76023 0.31063 0.71896 0.0
N2566 N 0.79102 0.34806 0.69195 0.0
N2567 N 0.6823 0.2658 0.68961 0.0
C2568 C 0.76394 0.33353 0.69835 0.0
C2569 C 0.70759 0.29203 0.69751 0.0
N2570 N 0.74276 0.36947 0.67261 0.0
N2571 N 0.72595 0.27001 0.73958 0.0
H2572 H 0.66521 0.26468 0.67247 0.0
H2573 H 0.67975 0.24318 0.69673 0.0
H2574 H 0.74225 0.26674 0.75464 0.0
H2575 H 0.70507 0.25814 0.7434 0.0
H2576 H 0.7626 0.38828 0.67632 0.0
H2577 H 0.72546 0.37578 0.662 0.0
H2578 H 0.79462 0.3618 0.67448 0.0
H2579 H 0.80967 0.34378 0.70171 0.0
C2580 C 0.02786 0.38259 0.01343 0.0
C2581 C 0.03494 0.36314 0.98327 0.0
C2582 C 0.05191 0.41866 0.96892 0.0
C2583 C 0.0472 0.4385 0.99991 0.0
N2584 N 0.0353 0.43776 0.05438 0.0
N2585 N 0.06641 0.3686 0.94086 0.0
C2586 C 0.0361 0.41989 0.02269 0.0
C2587 C 0.05039 0.38272 0.96325 0.0
N2588 N 0.01481 0.36584 0.03474 0.0
N2589 N 0.05919 0.43456 0.94492 0.0
H2590 H 0.07144 0.34562 0.94007 0.0
H2591 H 0.07942 0.38263 0.9274 0.0
H2592 H 0.06131 0.46079 0.94844 0.0
H2593 H 0.06015 0.421 0.92073 0.0
H2594 H 1.0036 0.37694 0.05289 0.0
H2595 H 0.01579 0.34119 0.03486 0.0
H2596 H 0.03113 0.42653 0.07356 0.0
H2597 H 0.04126 0.46453 0.06215 0.0
C2598 C 0.04599 0.83704 0.18412 0.0
C2599 C 0.04998 0.81133 0.15659 0.0
C2600 C 1.00293 0.77265 0.16107 0.0
C2601 C 1.00181 0.7959 0.19183 0.0
N2602 N 0.02305 0.84998 0.23372 0.0
N2603 N 0.03281 0.75291 0.1203 0.0
C2604 C 0.0234 0.82823 0.20346 0.0
C2605 C 0.02833 0.77884 0.14503 0.0
N2606 N 0.06332 0.87027 0.19123 0.0
N2607 N 0.97962 0.74452 0.14728 0.0
H2608 H 0.05125 0.75569 0.10842 0.0
H2609 H 0.01942 0.7276 0.11338 0.0
H2610 H 0.96092 0.73942 0.15859 0.0
H2611 H 0.97766 0.72831 0.12342 0.0
H2612 H 0.05981 0.89091 0.20893 0.0
H2613 H 0.0794 0.87788 0.17704 0.0
H2614 H 0.04012 0.87181 0.24554 0.0
H2615 H 0.00638 0.84506 0.24801 0.0
C2616 C 0.49919 0.31579 0.06746 0.0
C2617 C 0.51521 0.30079 0.0861 0.0
C2618 C 0.55906 0.32563 0.06403 0.0
C2619 C 0.5421 0.33552 0.04152 0.0
N2620 N 0.49436 0.3331 0.01744 0.0
N2621 N 0.55937 0.28443 0.09496 0.0
C2622 C 0.51164 0.32861 0.04194 0.0
C2623 C 0.54492 0.30378 0.08249 0.0
N2624 N 0.4727 0.31942 0.07498 0.0
N2625 N 0.58866 0.33784 0.06861 0.0
H2626 H 0.54939 0.266 0.1064 0.0
H2627 H 0.58032 0.28375 0.0904 0.0
H2628 H 0.59982 0.35503 0.05654 0.0
H2629 H 0.60174 0.33387 0.08706 0.0
H2630 H 0.46148 0.33296 0.06391 0.0
H2631 H 0.46355 0.31271 0.09493 0.0
H2632 H 0.47174 0.32525 0.01504 0.0
H2633 H 0.50239 0.34131 0.99763 0.0
C2634 C 0.04388 0.30275 0.2924 0.0
C2635 C 0.0668 0.33123 0.31184 0.0
C2636 C 0.03687 0.37042 0.30974 0.0
C2637 C 0.01521 0.34271 0.2874 0.0
N2638 N 0.99955 0.28333 0.25358 0.0
N2639 N 0.08721 0.39312 0.33439 0.0
C2640 C 0.01902 0.309 0.27776 0.0
C2641 C 0.06401 0.36539 0.31893 0.0
N2642 N 0.04592 0.26975 0.28777 0.0
N2643 N 0.031 0.40109 0.32346 0.0
H2644 H 0.10712 0.39069 0.34311 0.0
H2645 H 0.08723 0.41864 0.33676 0.0
H2646 H 0.01107 0.40552 0.31799 0.0
H2647 H 0.04475 0.42083 0.34271 0.0
H2648 H 0.02858 0.2478 0.27728 0.0
H2649 H 0.0645 0.26414 0.29622 0.0
H2650 H 1.00272 0.25928 0.24294 0.0
H2651 H 0.98121 0.28697 0.24209 0.0
C2652 C 0.01406 0.64478 0.63271 0.0
C2653 C 0.999 0.65899 0.6125 0.0
C2654 C 0.01314 0.62327 0.56429 0.0
C2655 C 0.03456 0.61621 0.58459 0.0
N2656 N 0.0554 0.62389 0.64119 0.0
N2657 N 0.9879 0.66456 0.55772 0.0
C2658 C 0.03483 0.62756 0.61971 0.0
C2659 C 0.99949 0.64903 0.57796 0.0
N2660 N 0.00838 0.64764 0.66446 0.0
N2661 N 1.00357 0.60361 0.53247 0.0
H2662 H 0.97766 0.68377 0.56584 0.0
H2663 H 0.99076 0.66019 0.53285 0.0
H2664 H 0.01016 0.58199 0.52172 0.0
H2665 H 0.98568 0.60557 0.51855 0.0
H2666 H 0.01634 0.63476 0.67946 0.0
H2667 H 0.99296 0.65964 0.67429 0.0
H2668 H 0.05784 0.63501 0.66666 0.0
H2669 H 0.07185 0.6129 0.63415 0.0
C2670 C 0.72299 0.79929 0.82712 0.0
C2671 C 0.70978 0.81743 0.80982 0.0
C2672 C 0.75244 0.82958 0.78143 0.0
C2673 C 0.76737 0.81581 0.80252 0.0
N2674 N 0.76748 0.79382 0.85031 0.0
N2675 N 0.7119 0.85253 0.77234 0.0
C2676 C 0.75281 0.80245 0.82672 0.0
C2677 C 0.7242 0.83276 0.78691 0.0
N2678 N 0.70686 0.7786 0.84373 0.0
N2679 N 0.7656 0.84105 0.75716 0.0
H2680 H 0.6913 0.85548 0.77588 0.0
H2681 H 0.72279 0.86802 0.75865 0.0
H2682 H 0.78729 0.8431 0.75485 0.0
H2683 H 0.75466 0.84702 0.73837 0.0
H2684 H 0.71496 0.76268 0.85491 0.0
H2685 H 0.68442 0.7742 0.8431 0.0
H2686 H 0.75887 0.78835 0.87099 0.0
H2687 H 0.78905 0.79496 0.85056 0.0
C2688 C 0.52843 0.55061 0.6658 0.0
C2689 C 0.50783 0.56999 0.67336 0.0
C2690 C 0.51045 0.57812 0.61593 0.0
C2691 C 0.53331 0.5616 0.60974 0.0
N2692 N 0.56622 0.53656 0.63366 0.0
N2693 N 0.48227 0.60603 0.65544 0.0
C2694 C 0.54274 0.54921 0.63619 0.0
C2695 C 0.49961 0.58453 0.64813 0.0
N2696 N 0.53395 0.53233 0.68688 0.0
N2697 N 0.49902 0.58823 0.591 0.0
H2698 H 0.47342 0.61017 0.67759 0.0
H2699 H 0.47809 0.62123 0.64067 0.0
H2700 H 0.50719 0.58609 0.56849 0.0
H2701 H 0.48042 0.59673 0.5918 0.0
H2702 H 0.54582 0.51434 0.68163 0.0
H2703 H 0.524 0.53247 0.70817 0.0
H2704 H 0.57691 0.5313 0.65311 0.0
H2705 H 0.57642 0.53399 0.61268 0.0
C2706 C 0.78308 0.20985 0.98679 0.0
C2707 C 0.79889 0.18607 0.97405 0.0
C2708 C 0.78995 0.19218 0.91862 0.0
C2709 C 0.7762 0.21807 0.93187 0.0
N2710 N 0.76409 0.25627 0.97911 0.0
N2711 N 0.82094 0.15746 0.92937 0.0
C2712 C 0.77386 0.22818 0.96612 0.0
C2713 C 0.80351 0.17818 0.94042 0.0
N2714 N 0.7767 0.2147 0.0185 0.0
N2715 N 0.78916 0.18021 0.88511 0.0
H2716 H 0.8301 0.14518 0.94411 0.0
H2717 H 0.82802 0.15428 0.90625 0.0
H2718 H 0.77914 0.18967 0.86831 0.0
H2719 H 0.79619 0.15895 0.87368 0.0
H2720 H 0.76248 0.22873 0.02795 0.0
H2721 H 0.78405 0.2027 0.03483 0.0
H2722 H 0.76504 0.26728 0.00441 0.0
H2723 H 0.75716 0.27046 0.96477 0.0
C2724 C 0.15088 0.55629 0.14826 0.0
C2725 C 0.16484 0.53067 0.13451 0.0
C2726 C 0.12455 0.50148 0.09147 0.0
C2727 C 0.11119 0.52827 0.10246 0.0
N2728 N 0.11271 0.5831 0.14018 0.0
N2729 N 0.16957 0.48596 0.08832 0.0
C2730 C 0.12467 0.55631 0.13071 0.0
C2731 C 0.15328 0.50592 0.10425 0.0
N2732 N 0.16228 0.57989 0.17822 0.0
N2733 N 0.10915 0.47082 0.0701 0.0
H2734 H 0.19113 0.48937 0.09758 0.0
H2735 H 0.16267 0.46892 0.06465 0.0
H2736 H 0.08714 0.46591 0.06379 0.0
H2737 H 0.11712 0.44936 0.0629 0.0
H2738 H 0.15134 0.59642 0.19144 0.0
H2739 H 0.18256 0.58227 0.1904 0.0
H2740 H 0.12302 0.6062 0.1582 0.0
H2741 H 0.09286 0.58266 0.12846 0.0
C2742 C 0.83295 0.84709 0.42141 0.0
C2743 C 0.8429 0.82663 0.43976 0.0
C2744 C 0.84099 0.78398 0.38531 0.0
C2745 C 0.83646 0.80768 0.36778 0.0
N2746 N 0.83407 0.86552 0.37149 0.0
N2747 N 0.85479 0.77298 0.43689 0.0
C2748 C 0.83466 0.84045 0.38668 0.0
C2749 C 0.84679 0.79452 0.42094 0.0
N2750 N 0.81921 0.87094 0.43581 0.0
N2751 N 0.83853 0.75063 0.36802 0.0
H2752 H 0.85316 0.7752 0.46179 0.0
H2753 H 0.86301 0.75278 0.42522 0.0
H2754 H 0.83558 0.74237 0.34235 0.0
H2755 H 0.83777 0.73076 0.37895 0.0
H2756 H 0.80998 0.88448 0.42258 0.0
H2757 H 0.81183 0.87257 0.45859 0.0
H2758 H 0.83556 0.89095 0.38457 0.0
H2759 H 0.83553 0.86195 0.3464 0.0
C2760 C 0.53022 0.57416 0.88837 0.0
C2761 C 0.49937 0.56541 0.87744 0.0
C2762 C 0.4934 0.54058 0.9268 0.0
C2763 C 0.52423 0.55016 0.93812 0.0
N2764 N 0.56974 0.58775 0.93341 0.0
N2765 N 0.45208 0.54453 0.89229 0.0
C2766 C 0.54193 0.56978 0.91958 0.0
C2767 C 0.48132 0.54988 0.89856 0.0
N2768 N 0.54908 0.58794 0.86934 0.0
N2769 N 0.47498 0.52194 0.94315 0.0
H2770 H 0.44243 0.54879 0.87166 0.0
H2771 H 0.43752 0.53808 0.90839 0.0
H2772 H 0.48185 0.51689 0.96477 0.0
H2773 H 0.45322 0.50926 0.93415 0.0
H2774 H 0.57127 0.59039 0.87281 0.0
H2775 H 0.54244 0.59542 0.84909 0.0
H2776 H 0.58292 0.60628 0.92421 0.0
H2777 H 0.57855 0.58702 0.95626 0.0
C2778 C 0.79605 0.18267 0.13982 0.0
C2779 C 0.81378 0.19675 0.11816 0.0
C2780 C 0.81158 0.25492 0.14806 0.0
C2781 C 0.79796 0.24044 0.17164 0.0
N2782 N 0.75952 0.19211 0.17503 0.0
N2783 N 0.82966 0.24496 0.09493 0.0
C2784 C 0.78427 0.20472 0.16278 0.0
C2785 C 0.8188 0.23265 0.12 0.0
N2786 N 0.79164 0.14904 0.14006 0.0
N2787 N 0.81564 0.28942 0.152 0.0
H2788 H 0.83184 0.22892 0.07238 0.0
H2789 H 0.8352 0.27088 0.09542 0.0
H2790 H 0.80846 0.30469 0.17175 0.0
H2791 H 0.82447 0.30254 0.13552 0.0
H2792 H 0.78039 0.13912 0.15736 0.0
H2793 H 0.80186 0.13229 0.12579 0.0
H2794 H 0.74782 0.16601 0.1675 0.0
H2795 H 0.7486 0.20854 0.18855 0.0
C2796 C 0.14454 0.52455 0.30259 0.0
C2797 C 0.16198 0.54961 0.28941 0.0
C2798 C 0.15098 0.5962 0.33063 0.0
C2799 C 0.13112 0.57111 0.3414 0.0
N2800 N 0.10621 0.5115 0.33602 0.0
N2801 N 0.17872 0.60891 0.28749 0.0
C2802 C 0.12725 0.53523 0.32712 0.0
C2803 C 0.16428 0.58533 0.30239 0.0
N2804 N 0.14422 0.49056 0.29136 0.0
N2805 N 0.15799 0.63039 0.34818 0.0
H2806 H 0.19067 0.60284 0.26819 0.0
H2807 H 0.17764 0.63439 0.29323 0.0
H2808 H 0.14883 0.63944 0.36926 0.0
H2809 H 0.17486 0.64935 0.34376 0.0
H2810 H 0.13459 0.47176 0.30252 0.0
H2811 H 0.15514 0.48133 0.27198 0.0
H2812 H 0.10008 0.48509 0.32402 0.0
H2813 H 0.09323 0.51843 0.35403 0.0
C2814 C 0.81489 0.81172 0.62758 0.0
C2815 C 0.83876 0.83887 0.62511 0.0
C2816 C 0.84587 0.86115 0.6863 0.0
C2817 C 0.82615 0.83024 0.68891 0.0
N2818 N 0.77957 0.79375 0.6625 0.0
N2819 N 0.8778 0.88978 0.6536 0.0
C2820 C 0.80726 0.80963 0.65955 0.0
C2821 C 0.85454 0.86353 0.65494 0.0
N2822 N 0.79956 0.78757 0.59952 0.0
N2823 N 0.85251 0.89033 0.71236 0.0
H2824 H 0.88404 0.8941 0.63151 0.0
H2825 H 0.8921 0.90579 0.67455 0.0
H2826 H 0.84039 0.89224 0.73201 0.0
H2827 H 0.86525 0.91431 0.71148 0.0
H2828 H 0.7838 0.76533 0.6 0.0
H2829 H 0.80422 0.78868 0.57594 0.0
H2830 H 0.76338 0.78107 0.64233 0.0
H2831 H 0.77218 0.79889 0.6855 0.0
C2832 C 0.76253 0.48789 0.53011 0.0
C2833 C 0.78704 0.51074 0.5227 0.0
C2834 C 0.76248 0.55639 0.53091 0.0
C2835 C 0.73917 0.53459 0.54108 0.0
N2836 N 0.71176 0.47694 0.53849 0.0
N2837 N 0.8058 0.56073 0.50376 0.0
C2838 C 0.73737 0.49921 0.53618 0.0
C2839 C 0.78535 0.543 0.51882 0.0
N2840 N 0.76397 0.45682 0.53413 0.0
N2841 N 0.76375 0.59035 0.5349 0.0
H2842 H 0.82246 0.55092 0.49425 0.0
H2843 H 0.80455 0.58308 0.49773 0.0
H2844 H 0.74704 0.60081 0.54294 0.0
H2845 H 0.78193 0.60851 0.53172 0.0
H2846 H 0.74801 0.44124 0.54351 0.0
H2847 H 0.78187 0.4473 0.53008 0.0
H2848 H 0.70816 0.45023 0.53265 0.0
H2849 H 0.6932 0.48513 0.54308 0.0
C2850 C 0.20121 0.11159 0.51206 0.0
C2851 C 0.20613 0.12404 0.48419 0.0
C2852 C 0.15416 0.09636 0.46155 0.0
C2853 C 0.1499 0.08241 0.4889 0.0
N2854 N 0.17392 0.06438 0.52992 0.0
N2855 N 0.18828 0.12466 0.42994 0.0
C2856 C 0.17458 0.08692 0.51162 0.0
C2857 C 0.18282 0.1154 0.45818 0.0
N2858 N 0.22223 0.12243 0.53886 0.0
N2859 N 0.13096 0.09117 0.43867 0.0
H2860 H 0.20854 0.13973 0.42743 0.0
H2861 H 0.17334 0.11612 0.40852 0.0
H2862 H 0.11083 0.07409 0.43824 0.0
H2863 H 0.13147 0.10413 0.42059 0.0
H2864 H 0.2184 0.11648 0.56101 0.0
H2865 H 0.24243 0.13981 0.54002 0.0
H2866 H 0.19217 0.06408 0.54444 0.0
H2867 H 0.15618 0.04309 0.52679 0.0
C2868 C 0.28215 0.92735 0.79114 0.0
C2869 C 0.2532 0.92178 0.77501 0.0
C2870 C 0.25496 0.85831 0.75489 0.0
C2871 C 0.28205 0.86371 0.77537 0.0
N2872 N 0.31519 0.90604 0.82061 0.0
N2873 N 0.2116 0.87695 0.74269 0.0
C2874 C 0.29363 0.89902 0.79539 0.0
C2875 C 0.23974 0.88578 0.75691 0.0
N2876 N 0.29999 0.96036 0.80171 0.0
N2877 N 0.24335 0.82635 0.73308 0.0
H2878 H 0.2002 0.89522 0.74321 0.0
H2879 H 0.19895 0.85148 0.73258 0.0
H2880 H 0.2533 0.80651 0.73128 0.0
H2881 H 0.22568 0.82052 0.71497 0.0
H2882 H 0.32181 0.96614 0.81122 0.0
H2883 H 0.29421 0.98122 0.79672 0.0
H2884 H 0.32237 0.92988 0.83859 0.0
H2885 H 0.32397 0.88698 0.82487 0.0
C2886 C 0.47003 0.03576 0.01475 0.0
C2887 C 0.45012 0.0112 0.98896 0.0
C2888 C 0.48443 0.97586 0.9799 0.0
C2889 C 0.50324 1.00012 0.00763 0.0
N2890 N 0.50105 0.03645 0.06093 0.0
N2891 N 0.43952 0.96148 0.94206 0.0
C2892 C 0.49303 0.02614 0.02772 0.0
C2893 C 0.45782 0.98225 0.96981 0.0
N2894 N 0.46464 0.06624 0.02988 0.0
N2895 N 0.49104 0.94606 0.96512 0.0
H2896 H 0.42059 0.96716 0.93472 0.0
H2897 H 0.44383 0.94058 0.92559 0.0
H2898 H 0.50992 0.94088 0.97339 0.0
H2899 H 0.47735 0.92597 0.94617 0.0
H2900 H 0.47929 0.08521 0.04902 0.0
H2901 H 0.44674 0.07297 0.02114 0.0
H2902 H 0.4897 0.05014 0.07699 0.0
H2903 H 0.5155 0.02659 0.07199 0.0
C2904 C 0.85293 0.56536 0.77218 0.0
C2905 C 0.85475 0.58171 0.80647 0.0
C2906 C 0.81332 0.60261 0.79445 0.0
C2907 C 0.81675 0.59367 0.76038 0.0
N2908 N 0.84369 0.57086 0.71756 0.0
N2909 N 0.83644 0.61635 0.85089 0.0
C2910 C 0.83726 0.57569 0.74923 0.0
C2911 C 0.83447 0.59991 0.81802 0.0
N2912 N 0.86632 0.54002 0.76155 0.0
N2913 N 0.79024 0.61439 0.80406 0.0
H2914 H 0.85188 0.61536 0.86879 0.0
H2915 H 0.82396 0.63282 0.86017 0.0
H2916 H 0.77459 0.61655 0.78706 0.0
H2917 H 0.7852 0.61881 0.82815 0.0
H2918 H 0.86399 0.5258 0.73682 0.0
H2919 H 0.87674 0.53048 0.77791 0.0
H2920 H 0.86118 0.56172 0.70993 0.0
H2921 H 0.83348 0.57881 0.69971 0.0
C2922 C 0.86242 0.62929 0.05149 0.0
C2923 C 0.86551 0.6466 0.02646 0.0
C2924 C 0.91506 0.64047 0.0244 0.0
C2925 C 0.9103 0.61927 0.04616 0.0
N2926 N 0.87547 0.58544 0.07221 0.0
N2927 N 0.89247 0.65881 0.98214 0.0
C2928 C 0.88264 0.61102 0.05698 0.0
C2929 C 0.89116 0.6494 0.01083 0.0
N2930 N 0.84136 0.63184 0.07154 0.0
N2931 N 0.94241 0.65345 0.01765 0.0
H2932 H 0.87488 0.66273 0.96953 0.0
H2933 H 0.90991 0.65833 0.96868 0.0
H2934 H 0.96075 0.64885 0.02799 0.0
H2935 H 0.94714 0.67172 0.00447 0.0
H2936 H 0.83995 0.62178 0.09176 0.0
H2937 H 0.82787 0.64774 0.07083 0.0
H2938 H 0.85465 0.57662 0.07808 0.0
H2939 H 0.8893 0.57053 0.07548 0.0
C2940 C 0.27488 0.12155 0.76375 0.0
C2941 C 0.25754 0.11722 0.78956 0.0
C2942 C 0.27042 0.18213 0.81061 0.0
C2943 C 0.28771 0.18693 0.7847 0.0
N2944 N 0.30613 0.15956 0.73647 0.0
N2945 N 0.23514 0.14444 0.83411 0.0
C2946 C 0.28978 0.15598 0.76131 0.0
C2947 C 0.25455 0.14792 0.81201 0.0
N2948 N 0.2766 0.09234 0.74099 0.0
N2949 N 0.27021 0.21048 0.83537 0.0
H2950 H 0.22357 0.12048 0.83633 0.0
H2951 H 0.22848 0.16484 0.84828 0.0
H2952 H 0.28062 0.23546 0.83533 0.0
H2953 H 0.262 0.20938 0.85741 0.0
H2954 H 0.28715 0.09197 0.72025 0.0
H2955 H 0.26655 0.06753 0.74244 0.0
H2956 H 0.31069 0.13941 0.7193 0.0
H2957 H 0.31587 0.18353 0.73311 0.0
C2958 C 0.37174 0.93996 0.28856 0.0
C2959 C 0.39632 0.9569 0.31282 0.0
C2960 C 0.39889 0.90155 0.32025 0.0
C2961 C 0.37434 0.88413 0.29572 0.0
N2962 N 0.34678 0.88684 0.24704 0.0
N2963 N 0.43885 0.95335 0.34308 0.0
C2964 C 0.36325 0.90326 0.27709 0.0
C2965 C 0.41163 0.93748 0.32601 0.0
N2966 N 0.3563 0.9587 0.27668 0.0
N2967 N 0.40981 0.8838 0.33843 0.0
H2968 H 0.44934 0.97923 0.34542 0.0
H2969 H 0.45225 0.94029 0.35141 0.0
H2970 H 0.39992 0.85786 0.33577 0.0
H2971 H 0.42622 0.89535 0.35848 0.0
H2972 H 0.33654 0.94725 0.26119 0.0
H2973 H 0.3624 0.98569 0.28404 0.0
H2974 H 0.34159 0.90009 0.23071 0.0
H2975 H 0.34016 0.86009 0.23739 0.0
C2976 C 0.59562 0.40667 0.52534 0.0
C2977 C 0.60532 0.40874 0.55885 0.0
C2978 C 0.60956 0.47242 0.57266 0.0
C2979 C 0.59896 0.47003 0.53938 0.0
N2980 N 0.59162 0.43583 0.48293 0.0
N2981 N 0.62606 0.44664 0.61341 0.0
C2982 C 0.5947 0.4373 0.51557 0.0
C2983 C 0.61372 0.44256 0.58206 0.0
N2984 N 0.58755 0.37513 0.50214 0.0
N2985 N 0.61561 0.50369 0.59583 0.0
H2986 H 0.6268 0.42624 0.62296 0.0
H2987 H 0.63724 0.47044 0.62983 0.0
H2988 H 0.61461 0.52591 0.58969 0.0
H2989 H 0.61978 0.50761 0.62119 0.0
H2990 H 0.57571 0.37054 0.47911 0.0
H2991 H 0.59204 0.3532 0.50616 0.0
H2992 H 0.59176 0.41441 0.46374 0.0
H2993 H 0.59108 0.45749 0.47541 0.0
C2994 C 0.41817 0.73772 0.36118 0.0
C2995 C 0.44431 0.76514 0.37467 0.0
C2996 C 0.42617 0.79901 0.34214 0.0
C2997 C 0.39833 0.7745 0.33275 0.0
N2998 N 0.36773 0.71983 0.33498 0.0
N2999 N 0.46789 0.82594 0.38441 0.0
C3000 C 0.39425 0.74379 0.34314 0.0
C3001 C 0.44643 0.79702 0.36728 0.0
N3002 N 0.41671 0.70526 0.36346 0.0
N3003 N 0.43469 0.82266 0.32514 0.0
H3004 H 0.48236 0.82608 0.40397 0.0
H3005 H 0.46893 0.85036 0.38161 0.0
H3006 H 0.4218 0.82276 0.30448 0.0
H3007 H 0.45569 0.83927 0.32929 0.0
H3008 H 0.3999 0.68347 0.35085 0.0
H3009 H 0.43343 0.69953 0.37578 0.0
H3010 H 0.36214 0.69869 0.34449 0.0
H3011 H 0.35082 0.7223 0.31998 0.0
C3012 C 0.08733 0.68277 0.03012 0.0
C3013 C 0.10588 0.70615 0.05879 0.0
C3014 C 0.11399 0.65598 0.07463 0.0
C3015 C 0.09249 0.63248 0.04845 0.0
N3016 N 0.05345 0.62663 0.00648 0.0
N3017 N 0.14892 0.7124 0.09422 0.0
C3018 C 0.07805 0.64665 0.02724 0.0
C3019 C 0.1227 0.69211 0.07724 0.0
N3020 N 0.08042 0.69444 0.0041 0.0
N3021 N 0.1252 0.64425 0.0984 0.0
H3022 H 0.15804 0.7368 0.09127 0.0
H3023 H 0.16341 0.70288 0.10592 0.0
H3024 H 0.12035 0.6181 0.09702 0.0
H3025 H 0.138 0.66072 0.12023 0.0
H3026 H 0.0687 0.67799 0.98166 0.0
H3027 H 0.09031 0.7194 1.00297 0.0
H3028 H 0.03976 0.63692 0.99447 0.0
H3029 H 0.0456 0.60019 1.00295 0.0
C3030 C 0.13104 0.25566 0.87718 0.0
C3031 C 0.10499 0.26097 0.86474 0.0
C3032 C 0.13253 0.29927 0.83517 0.0
C3033 C 0.1588 0.29764 0.85111 0.0
N3034 N 0.18366 0.27646 0.88917 0.0
N3035 N 0.08043 0.28925 0.83364 0.0
C3036 C 0.15826 0.27608 0.87236 0.0
C3037 C 0.10558 0.28305 0.84407 0.0
N3038 N 0.12969 0.23112 0.89361 0.0
N3039 N 0.13342 0.31576 0.81099 0.0
H3040 H 0.06005 0.2766 0.83823 0.0
H3041 H 0.07986 0.30843 0.82216 0.0
H3042 H 0.15282 0.32767 0.80371 0.0
H3043 H 0.11505 0.31501 0.79607 0.0
H3044 H 0.1476 0.22343 0.90045 0.0
H3045 H 0.11011 0.2164 0.8982 0.0
H3046 H 0.18461 0.26446 0.90782 0.0
H3047 H 0.20398 0.29077 0.88603 0.0
C3048 C 0.63962 0.79074 0.97728 0.0
C3049 C 0.62945 0.77457 0.94331 0.0
C3050 C 0.60003 0.72363 0.95525 0.0
C3051 C 0.60861 0.74027 0.98973 0.0
N3052 N 0.64187 0.78556 0.03343 0.0
N3053 N 0.61087 0.72207 0.89965 0.0
C3054 C 0.63029 0.77259 1.00079 0.0
C3055 C 0.61373 0.73949 0.93235 0.0
N3056 N 0.65763 0.82361 0.98665 0.0
N3057 N 0.57713 0.69442 0.94423 0.0
H3058 H 0.62084 0.73399 0.88273 0.0
H3059 H 0.60153 0.69546 0.89034 0.0
H3060 H 0.56459 0.68321 0.95989 0.0
H3061 H 0.56857 0.68332 0.91936 0.0
H3062 H 0.66362 0.8389 0.01107 0.0
H3063 H 0.66643 0.83537 0.96908 0.0
H3064 H 0.65895 0.80798 0.04283 0.0
H3065 H 0.63565 0.77244 0.05094 0.0
C3066 C 0.10843 0.73903 0.69507 0.0
C3067 C 0.10481 0.77149 0.71224 0.0
C3068 C 0.13227 0.77042 0.76251 0.0
C3069 C 0.13359 0.73665 0.74611 0.0
N3070 N 0.11969 0.68648 0.69883 0.0
N3071 N 0.10839 0.81516 0.76394 0.0
C3072 C 0.12061 0.72021 0.71296 0.0
C3073 C 0.11556 0.78659 0.74637 0.0
N3074 N 0.10061 0.72662 0.66153 0.0
N3075 N 0.14759 0.78741 0.79325 0.0
H3076 H 0.09636 0.82819 0.75329 0.0
H3077 H 0.11252 0.82448 0.78964 0.0
H3078 H 0.15882 0.7758 0.80677 0.0
H3079 H 0.15063 0.81366 0.80446 0.0
H3080 H 0.10492 0.70459 0.64701 0.0
H3081 H 0.09207 0.74026 0.64774 0.0
H3082 H 0.10804 0.67194 0.67582 0.0
H3083 H 0.12856 0.6721 0.71141 0.0
C3084 C 0.09478 0.41807 0.4333 0.0
C3085 C 0.12348 0.41532 0.43214 0.0
C3086 C 0.14148 0.47382 0.47008 0.0
C3087 C 0.11245 0.47284 0.47567 0.0
N3088 N 0.06195 0.44014 0.46633 0.0
N3089 N 0.17484 0.44013 0.45076 0.0
C3090 C 0.08937 0.44388 0.45837 0.0
C3091 C 0.14725 0.44324 0.4507 0.0
N3092 N 0.07177 0.3954 0.4115 0.0
N3093 N 0.16313 0.50393 0.48241 0.0
H3094 H 0.17954 0.41829 0.43624 0.0
H3095 H 0.19264 0.45829 0.46647 0.0
H3096 H 0.1589 0.52681 0.49506 0.0
H3097 H 0.18442 0.50691 0.47733 0.0
H3098 H 0.07364 0.37598 0.39118 0.0
H3099 H 0.07364 0.37598 0.39118 0.0
H3100 H 0.0445 0.41881 0.45402 0.0
H3101 H 0.05752 0.45674 0.48699 0.0
C3102 C 0.4417 0.28142 0.24301 0.0
C3103 C 0.434 0.24762 0.22026 0.0
C3104 C 0.39289 0.23097 0.24926 0.0
C3105 C 0.39613 0.26632 0.26416 0.0
N3106 N 0.43425 0.31342 0.29681 0.0
N3107 N 0.40494 0.18802 0.20566 0.0
C3108 C 0.42371 0.28889 0.26753 0.0
C3109 C 0.41057 0.22138 0.22483 0.0
N3110 N 0.46595 0.30625 0.24141 0.0
N3111 N 0.37426 0.20731 0.26054 0.0
H3112 H 0.4179 0.18041 0.18785 0.0
H3113 H 0.38667 0.16849 0.20635 0.0
H3114 H 0.36385 0.21557 0.28083 0.0
H3115 H 0.37185 0.1808 0.25263 0.0
H3116 H 0.47123 0.33154 0.25672 0.0
H3117 H 0.47996 0.30218 0.22386 0.0
H3118 H 0.45585 0.32845 0.30275 0.0
H3119 H 0.42159 0.31535 0.31607 0.0
C3120 C 0.66115 0.548 0.39145 0.0
C3121 C 0.65035 0.51765 0.364 0.0
C3122 C 0.61376 0.49612 0.40022 0.0
C3123 C 0.6229 0.52736 0.42751 0.0
N3124 N 0.66386 0.57946 0.44913 0.0
N3125 N 0.61184 0.46488 0.3422 0.0
C3126 C 0.64891 0.55221 0.42296 0.0
C3127 C 0.6253 0.4927 0.36856 0.0
N3128 N 0.68224 0.57468 0.38674 0.0
N3129 N 0.5966 0.46725 0.40574 0.0
H3130 H 0.62032 0.45929 0.31996 0.0
H3131 H 0.59123 0.44868 0.34172 0.0
H3132 H 0.59041 0.46725 0.42872 0.0
H3133 H 0.59199 0.44256 0.38932 0.0
H3134 H 0.68814 0.59975 0.40255 0.0
H3135 H 0.69204 0.57262 0.36524 0.0
H3136 H 0.68501 0.594 0.44932 0.0
H3137 H 0.65709 0.58656 0.47195 0.0
C3138 C 0.34695 0.87115 0.05646 0.0
C3139 C 0.35841 0.90617 0.07511 0.0
C3140 C 0.37788 0.89014 0.12095 0.0
C3141 C 0.36815 0.8549 0.10173 0.0
N3142 N 0.33706 0.81075 0.05545 0.0
N3143 N 0.37336 0.94805 0.12791 0.0
C3144 C 0.35039 0.84493 0.07082 0.0
C3145 C 0.3696 0.91514 0.1086 0.0
N3146 N 0.33461 0.86349 0.02444 0.0
N3147 N 0.39644 0.89995 0.14984 0.0
H3148 H 0.36789 0.96672 0.11831 0.0
H3149 H 0.37855 0.9552 0.15354 0.0
H3150 H 0.40426 0.88258 0.15917 0.0
H3151 H 0.40609 0.92572 0.16307 0.0
H3152 H 0.32879 0.83876 0.00795 0.0
H3153 H 0.33102 0.88269 0.01429 0.0
H3154 H 0.32188 0.80211 0.03423 0.0
H3155 H 0.33976 0.79101 0.06526 0.0
C3156 C 0.98219 0.51857 0.89897 0.0
C3157 C 0.9864 0.55252 0.8959 0.0
C3158 C 0.03515 0.57023 0.9267 0.0
C3159 C 0.02982 0.53673 0.9311 0.0
N3160 N 0.00487 0.47651 0.9109 0.0
N3161 N 0.01832 0.6092 0.9013 0.0
C3162 C 0.00533 0.51003 0.9138 0.0
C3163 C 0.01347 0.57795 0.90805 0.0
N3164 N 0.95581 0.49478 0.8884 0.0
N3165 N 0.06067 0.59462 0.94098 0.0
H3166 H 1.00217 0.61649 0.88959 0.0
H3167 H 0.03835 0.62773 0.90621 0.0
H3168 H 0.07634 0.58961 0.95546 0.0
H3169 H 0.06608 0.62013 0.94012 0.0
H3170 H 0.95084 0.47029 0.892 0.0
H3171 H 0.93819 0.5011 0.87889 0.0
H3172 H 0.98864 0.4552 0.89621 0.0
H3173 H 0.02267 0.47035 0.92057 0.0
C3174 C 0.2977 0.22769 0.62693 0.0
C3175 C 0.31535 0.25301 0.61386 0.0
C3176 C 0.33458 0.2891 0.67159 0.0
C3177 C 0.31874 0.26261 0.68468 0.0
N3178 N 0.29052 0.20303 0.67284 0.0
N3179 N 0.34084 0.31314 0.62496 0.0
C3180 C 0.30184 0.23097 0.66169 0.0
C3181 C 0.33084 0.28529 0.63666 0.0
N3182 N 0.2753 0.20169 0.60691 0.0
N3183 N 0.35592 0.31621 0.69176 0.0
H3184 H 0.33694 0.31168 0.59997 0.0
H3185 H 0.34954 0.3383 0.64028 0.0
H3186 H 0.36082 0.31936 0.71684 0.0
H3187 H 0.37074 0.33379 0.68305 0.0
H3188 H 0.26052 0.1841 0.61563 0.0
H3189 H 0.26814 0.20091 0.58295 0.0
H3190 H 0.28198 0.17799 0.65722 0.0
H3191 H 0.29124 0.20443 0.69786 0.0
C3192 C 0.6272 0.48855 0.13102 0.0
C3193 C 0.634 0.51687 0.16065 0.0
C3194 C 0.60816 0.54661 0.12778 0.0
C3195 C 0.606 0.52163 0.0969 0.0
N3196 N 0.59876 0.46069 0.07631 0.0
N3197 N 0.6345 0.57666 0.18279 0.0
C3198 C 0.61218 0.49044 0.1004 0.0
C3199 C 0.62542 0.54681 0.1575 0.0
N3200 N 0.63439 0.45916 0.13202 0.0
N3201 N 0.58966 0.5666 0.13053 0.0
H3202 H 0.64845 0.5792 0.20378 0.0
H3203 H 0.63085 0.59977 0.1809 0.0
H3204 H 0.57315 0.56189 0.11126 0.0
H3205 H 0.58783 0.58317 0.15301 0.0
H3206 H 0.63323 0.43885 0.11112 0.0
H3207 H 0.64342 0.45606 0.15372 0.0
H3208 H 0.59971 0.43614 0.07671 0.0
H3209 H 0.58208 0.46041 0.05929 0.0
C3210 C 0.352 0.89231 0.91006 0.0
C3211 C 0.37146 0.88564 0.93253 0.0
C3212 C 0.36727 0.83004 0.89234 0.0
C3213 C 0.34485 0.83539 0.87267 0.0
N3214 N 0.30808 0.86542 0.87246 0.0
N3215 N 0.39058 0.84239 0.94818 0.0
C3216 C 0.33462 0.86447 0.8846 0.0
C3217 C 0.37718 0.85277 0.92475 0.0
N3218 N 0.35104 0.92514 0.91146 0.0
N3219 N 0.37965 0.8042 0.88006 0.0
H3220 H 0.39578 0.85669 0.97298 0.0
H3221 H 0.39314 0.81757 0.94368 0.0
H3222 H 0.37302 0.78738 0.85632 0.0
H3223 H 0.39797 0.80154 0.89256 0.0
H3224 H 0.33754 0.93022 0.8942 0.0
H3225 H 0.36629 0.94722 0.92654 0.0
H3226 H 0.29922 0.88561 0.88252 0.0
H3227 H 0.29407 0.8444 0.855 0.0
C3228 C 0.99672 0.51015 0.74374 0.0
C3229 C 0.97598 0.52721 0.73645 0.0
C3230 C 0.96878 0.49324 0.67831 0.0
C3231 C 0.99354 0.48225 0.68508 0.0
N3232 N 0.03254 0.48153 0.7235 0.0
N3233 N 0.94062 0.53368 0.69695 0.0
C3234 C 0.00776 0.49077 0.71761 0.0
C3235 C 0.96107 0.51791 0.70381 0.0
N3236 N 0.0047 0.51077 0.77553 0.0
N3237 N 0.95321 0.48042 0.64733 0.0
H3238 H 0.93505 0.55271 0.71462 0.0
H3239 H 0.93019 0.52963 0.67336 0.0
H3240 H 0.9587 0.46244 0.62836 0.0
H3241 H 0.93373 0.48523 0.64092 0.0
H3242 H 0.01758 0.49603 0.78177 0.0
H3243 H 0.9954 0.52228 0.79526 0.0
H3244 H 0.04593 0.49122 0.74619 0.0
H3245 H 0.04089 0.46607 0.70517 0.0
C3246 C 0.314 0.24163 0.40423 0.0
C3247 C 0.3287 0.2648 0.43533 0.0
C3248 C 0.35967 0.29973 0.40396 0.0
C3249 C 0.34404 0.27733 0.37328 0.0
N3250 N 0.32067 0.2166 0.34812 0.0
N3251 N 0.3612 0.32101 0.46346 0.0
C3252 C 0.32506 0.24531 0.37435 0.0
C3253 C 0.35031 0.29532 0.43467 0.0
N3254 N 0.28894 0.21642 0.40238 0.0
N3255 N 0.38617 0.32137 0.40397 0.0
H3256 H 0.35363 0.31961 0.48584 0.0
H3257 H 0.37496 0.34508 0.46429 0.0
H3258 H 0.39594 0.31926 0.38244 0.0
H3259 H 0.40012 0.3366 0.42543 0.0
H3260 H 0.27682 0.20081 0.37982 0.0
H3261 H 0.27773 0.21453 0.42237 0.0
H3262 H 0.3088 0.19199 0.34844 0.0
H3263 H 0.33335 0.2163 0.32894 0.0
C3264 C 0.38136 0.59165 0.50935 0.0
C3265 C 0.36272 0.57524 0.52907 0.0
C3266 C 0.3904 0.53251 0.52437 0.0
C3267 C 0.40911 0.55007 0.50575 0.0
N3268 N 0.42915 0.6031 0.4924 0.0
N3269 N 0.35427 0.53524 0.56212 0.0
C3270 C 0.40719 0.58245 0.5032 0.0
C3271 C 0.36883 0.54733 0.53894 0.0
N3272 N 0.37303 0.61272 0.49287 0.0
N3273 N 0.39242 0.50115 0.52681 0.0
H3274 H 0.33882 0.5461 0.57348 0.0
H3275 H 0.35944 0.5168 0.57218 0.0
H3276 H 0.40866 0.49052 0.51731 0.0
H3277 H 0.37737 0.48524 0.53691 0.0
H3278 H 0.38533 0.62289 0.47643 0.0
H3279 H 0.35226 0.61595 0.49125 0.0
H3280 H 0.4296 0.62822 0.49224 0.0
H3281 H 0.44817 0.59626 0.48713 0.0
C3282 C 0.94385 0.98381 0.56191 0.0
C3283 C 0.93232 0.94907 0.54149 0.0
C3284 C 0.98155 0.94783 0.53082 0.0
C3285 C 0.99201 0.98424 0.54517 0.0
N3286 N 0.98723 0.02803 0.59202 0.0
N3287 N 0.94035 0.89921 0.50343 0.0
C3288 C 0.97429 1.00029 0.56557 0.0
C3289 C 0.95125 0.93137 0.5252 0.0
N3290 N 0.92589 1.00124 0.57792 0.0
N3291 N 1.00059 0.92828 0.52678 0.0
H3292 H 0.91816 0.88675 0.4979 0.0
H3293 H 0.95315 0.88672 0.48849 0.0
H3294 H 0.02221 0.9387 0.53758 0.0
H3295 H 0.99403 0.90133 0.51851 0.0
H3296 H 0.93256 0.02778 0.58956 0.0
H3297 H 0.90394 0.98975 0.57799 0.0
H3298 H 0.97596 0.03857 0.61039 0.0
H3299 H 0.00975 0.0367 0.59823 0.0
C3300 C 0.89668 0.17782 0.26135 0.0
C3301 C 0.89113 0.15754 0.28476 0.0
C3302 C 0.858 0.19569 0.30574 0.0
C3303 C 0.86078 0.21298 0.2803 0.0
N3304 N 0.8804 0.21331 0.22956 0.0
N3305 N 0.85456 0.14181 0.31947 0.0
C3306 C 0.87933 0.20156 0.25687 0.0
C3307 C 0.86835 0.16509 0.30401 0.0
N3308 N 0.91948 0.17614 0.24396 0.0
N3309 N 0.84596 0.20879 0.33276 0.0
H3310 H 0.85738 0.11716 0.31523 0.0
H3311 H 0.83691 0.14479 0.33195 0.0
H3312 H 0.83849 0.2306 0.33539 0.0
H3313 H 0.8457 0.19956 0.3535 0.0
H3314 H 0.92693 0.19287 0.22983 0.0
H3315 H 0.9327 0.16034 0.24592 0.0
H3316 H 0.89072 0.204 0.20964 0.0
H3317 H 0.86816 0.22961 0.2254 0.0
C3318 C 0.68473 0.09185 1.00344 0.0
C3319 C 0.69893 0.07641 0.02342 0.0
C3320 C 0.66796 0.09021 0.06559 0.0
C3321 C 0.64913 0.09579 0.04238 0.0
N3322 N 0.65322 0.12859 1.00264 0.0
N3323 N 0.70465 0.0626 0.07523 0.0
C3324 C 0.66098 0.10416 0.01456 0.0
C3325 C 0.69066 0.07599 0.05499 0.0
N3326 N 0.69393 0.09514 0.97415 0.0
N3327 N 0.6691 0.10711 0.09787 0.0
H3328 H 0.72111 0.05114 0.06824 0.0
H3329 H 0.69818 0.06092 0.09797 0.0
H3330 H 0.65615 0.12373 0.10481 0.0
H3331 H 0.68602 0.10933 0.11575 0.0
H3332 H 0.68216 0.10227 0.9569 0.0
H3333 H 0.71231 0.08864 0.96593 0.0
H3334 H 0.6627 0.13782 0.98404 0.0
H3335 H 0.64063 0.14359 0.01482 0.0
C3336 C 0.31538 0.51149 0.24137 0.0
C3337 C 0.28745 0.49041 0.22676 0.0
C3338 C 0.29095 0.44764 0.25457 0.0
C3339 C 0.31595 0.47216 0.27505 0.0
N3340 N 0.3577 0.52103 0.28097 0.0
N3341 N 0.25746 0.4327 0.20397 0.0
C3342 C 0.33041 0.50194 0.26583 0.0
C3343 C 0.2791 0.45587 0.22726 0.0
N3344 N 0.32532 0.54224 0.23441 0.0
N3345 N 0.27721 0.41847 0.2627 0.0
H3346 H 0.24801 0.44024 0.18515 0.0
H3347 H 0.25101 0.40631 0.20186 0.0
H3348 H 0.2845 0.41211 0.2834 0.0
H3349 H 0.25742 0.40168 0.25007 0.0
H3350 H 0.34445 0.56108 0.24618 0.0
H3351 H 0.31344 0.54855 0.21648 0.0
H3352 H 0.36983 0.54227 0.27444 0.0
H3353 H 0.36898 0.51407 0.29884 0.0
C3354 C 0.26485 0.47132 0.04593 0.0
C3355 C 0.27548 0.44632 0.02447 0.0
C3356 C 0.23789 0.4405 0.97971 0.0
C3357 C 0.23139 0.47019 0.9992 0.0
N3358 N 0.23929 0.51515 0.05084 0.0
N3359 N 0.27322 0.408 0.96987 0.0
C3360 C 0.24472 0.48571 0.03251 0.0
C3361 C 0.26198 0.4306 0.99119 0.0
N3362 N 0.2737 0.48083 0.07924 0.0
N3363 N 0.22084 0.42164 0.95038 0.0
H3364 H 0.29101 0.40018 0.97692 0.0
H3365 H 0.26628 0.39896 0.9445 0.0
H3366 H 0.20307 0.42835 0.94131 0.0
H3367 H 0.22253 0.39764 0.93686 0.0
H3368 H 0.26461 0.4964 0.09655 0.0
H3369 H 0.28803 0.47017 0.08978 0.0
H3370 H 0.25086 0.52974 0.07393 0.0
H3371 H 0.22462 0.52652 0.04207 0.0
C3372 C 0.86938 0.95309 0.26549 0.0
C3373 C 0.89817 0.97148 0.28124 0.0
C3374 C 0.90238 0.91644 0.29211 0.0
C3375 C 0.87311 0.89769 0.27624 0.0
N3376 N 0.83756 0.89746 0.23353 0.0
N3377 N 0.94443 0.96681 0.30133 0.0
C3378 C 0.85896 0.91595 0.25913 0.0
C3379 C 0.91524 0.95192 0.29206 0.0
N3380 N 0.85169 0.97084 0.25603 0.0
N3381 N 0.91856 0.9011 0.30773 0.0
H3382 H 0.95467 0.99222 0.30182 0.0
H3383 H 0.95901 0.95316 0.30552 0.0
H3384 H 0.91458 0.87466 0.30302 0.0
H3385 H 0.93655 0.91505 0.32548 0.0
H3386 H 0.82966 0.95932 0.24732 0.0
H3387 H 0.85873 0.99742 0.25898 0.0
H3388 H 0.82896 0.90883 0.21743 0.0
H3389 H 0.83134 0.8705 0.22588 0.0
C3390 C 0.7918 0.15557 0.74583 0.0
C3391 C 0.76245 0.13985 0.74598 0.0
C3392 C 0.75408 0.19571 0.76952 0.0
C3393 C 0.78441 0.21242 0.77065 0.0
N3394 N 0.83229 0.20366 0.77324 0.0
N3395 N 0.71379 0.14412 0.74639 0.0
C3396 C 0.80345 0.19122 0.7619 0.0
C3397 C 0.74299 0.1598 0.75365 0.0
N3398 N 0.80847 0.13591 0.73048 0.0
N3399 N 0.73643 0.21222 0.78741 0.0
H3400 H 0.7053 0.11764 0.7351 0.0
H3401 H 0.69824 0.15773 0.74805 0.0
H3402 H 0.74366 0.23559 0.80558 0.0
H3403 H 0.71504 0.20002 0.78918 0.0
H3404 H 0.83004 0.14599 0.72768 0.0
H3405 H 0.79912 0.11008 0.7171 0.0
H3406 H 0.84689 0.18878 0.76938 0.0
H3407 H 0.84031 0.22662 0.79164 0.0
loop_
_geom_bond_atom_site_label_1
_geom_bond_atom_site_label_2
_geom_bond_distance
_geom_bond_site_symmetry_2
_ccdc_geom_bond_type
Mg0 O1 2.028 . S
Mg0 O7 1.986 . S
Mg0 O9 2.114 . S
Mg0 O10 2.251 . S
Mg0 O13 2.010 . S
O1 Mg0 2.028 . S
O1 C4 1.250 . S
O2 Mg3 2.028 . S
O2 C4 1.248 . S
Mg3 O2 2.028 . S
Mg3 O8 2.032 . S
Mg3 O10 2.079 . S
C4 O1 1.250 . S
C4 O2 1.248 . S
C5 O6 1.264 . S
C5 O13 1.249 . S
O6 C5 1.264 . S
O7 Mg0 1.986 . S
O7 C11 1.246 . S
O8 Mg3 2.032 . S
O8 C11 1.259 . S
O9 Mg0 2.114 . S
O9 C12 1.252 . S
O10 Mg0 2.251 . S
O10 Mg3 2.079 . S
O10 C12 1.273 . S
C11 O7 1.246 . S
C11 O8 1.259 . S
C12 O9 1.252 . S
C12 O10 1.273 . S
O13 Mg0 2.010 . S
O13 C5 1.249 . S
Mg14 O15 2.028 . S
Mg14 O21 1.986 . S
Mg14 O23 2.114 1_455 S
Mg14 O24 2.251 1_455 S
Mg14 O27 2.010 . S
O15 Mg14 2.028 . S
O15 C18 1.250 1_455 S
O16 Mg17 2.028 . S
O16 C18 1.248 . S
Mg17 O16 2.028 . S
Mg17 O22 2.032 . S
Mg17 O24 2.079 . S
C18 O15 1.250 1_655 S
C18 O16 1.248 . S
C19 O20 1.264 . S
C19 O27 1.249 . S
O20 C19 1.264 . S
O21 Mg14 1.986 . S
O21 C25 1.246 1_455 S
O22 Mg17 2.032 . S
O22 C25 1.259 . S
O23 Mg14 2.114 1_655 S
O23 C26 1.252 . S
O24 Mg14 2.251 1_655 S
O24 Mg17 2.079 . S
O24 C26 1.273 . S
C25 O21 1.246 1_655 S
C25 O22 1.259 . S
C26 O23 1.252 . S
C26 O24 1.273 . S
O27 Mg14 2.010 . S
O27 C19 1.249 . S
Mg28 O29 2.028 . S
Mg28 O35 1.986 . S
Mg28 O37 2.114 . S
Mg28 O38 2.251 . S
Mg28 O41 2.010 . S
O29 Mg28 2.028 . S
O29 C32 1.250 . S
O30 Mg31 2.028 . S
O30 C32 1.248 . S
Mg31 O30 2.028 . S
Mg31 O36 2.032 . S
Mg31 O38 2.079 . S
C32 O29 1.250 . S
C32 O30 1.248 . S
C33 O34 1.264 . S
C33 O41 1.249 . S
O34 C33 1.264 . S
O35 Mg28 1.986 . S
O35 C39 1.246 . S
O36 Mg31 2.032 . S
O36 C39 1.259 . S
O37 Mg28 2.114 . S
O37 C40 1.252 . S
O38 Mg28 2.251 . S
O38 Mg31 2.079 . S
O38 C40 1.273 . S
C39 O35 1.246 . S
C39 O36 1.259 . S
C40 O37 1.252 . S
C40 O38 1.273 . S
O41 Mg28 2.010 . S
O41 C33 1.249 . S
Mg42 O43 2.028 . S
Mg42 O49 1.986 . S
Mg42 O51 2.114 . S
Mg42 O52 2.251 . S
Mg42 O55 2.010 . S
O43 Mg42 2.028 . S
O43 C46 1.250 . S
O44 Mg45 2.028 . S
O44 C46 1.248 . S
Mg45 O44 2.028 . S
Mg45 O50 2.032 . S
Mg45 O52 2.079 . S
C46 O43 1.250 . S
C46 O44 1.248 . S
C47 O48 1.264 . S
C47 O55 1.249 . S
O48 C47 1.264 . S
O49 Mg42 1.986 . S
O49 C53 1.246 . S
O50 Mg45 2.032 . S
O50 C53 1.259 . S
O51 Mg42 2.114 . S
O51 C54 1.252 . S
O52 Mg42 2.251 . S
O52 Mg45 2.079 . S
O52 C54 1.273 . S
C53 O49 1.246 . S
C53 O50 1.259 . S
C54 O51 1.252 . S
C54 O52 1.273 . S
O55 Mg42 2.010 . S
O55 C47 1.249 . S
Mg56 O57 2.028 . S
Mg56 O63 1.986 . S
Mg56 O65 2.114 . S
Mg56 O66 2.251 . S
Mg56 O69 2.010 . S
O57 Mg56 2.028 . S
O57 C60 1.250 . S
O58 Mg59 2.028 . S
O58 C60 1.248 . S
Mg59 O58 2.028 . S
Mg59 O64 2.032 . S
Mg59 O66 2.079 . S
C60 O57 1.250 . S
C60 O58 1.248 . S
C61 O62 1.264 . S
C61 O69 1.249 . S
O62 C61 1.264 . S
O63 Mg56 1.986 . S
O63 C67 1.246 . S
O64 Mg59 2.032 . S
O64 C67 1.259 . S
O65 Mg56 2.114 . S
O65 C68 1.252 . S
O66 Mg56 2.251 . S
O66 Mg59 2.079 . S
O66 C68 1.273 . S
C67 O63 1.246 . S
C67 O64 1.259 . S
C68 O65 1.252 . S
C68 O66 1.273 . S
O69 Mg56 2.010 . S
O69 C61 1.249 . S
Mg70 O71 2.028 . S
Mg70 O77 1.986 . S
Mg70 O79 2.114 . S
Mg70 O80 2.251 . S
Mg70 O83 2.010 . S
O71 Mg70 2.028 . S
O71 C74 1.250 . S
O72 Mg73 2.028 . S
O72 C74 1.248 . S
Mg73 O72 2.028 . S
Mg73 O78 2.032 . S
Mg73 O80 2.079 . S
C74 O71 1.250 . S
C74 O72 1.248 . S
C75 O76 1.264 . S
C75 O83 1.249 . S
O76 C75 1.264 . S
O77 Mg70 1.986 . S
O77 C81 1.246 . S
O78 Mg73 2.032 . S
O78 C81 1.259 . S
O79 Mg70 2.114 . S
O79 C82 1.252 . S
O80 Mg70 2.251 . S
O80 Mg73 2.079 . S
O80 C82 1.273 . S
C81 O77 1.246 . S
C81 O78 1.259 . S
C82 O79 1.252 . S
C82 O80 1.273 . S
O83 Mg70 2.010 . S
O83 C75 1.249 . S
Mg84 O85 2.028 . S
Mg84 O91 1.986 . S
Mg84 O93 2.114 . S
Mg84 O94 2.251 . S
Mg84 O97 2.010 . S
O85 Mg84 2.028 . S
O85 C88 1.250 . S
O86 Mg87 2.028 . S
O86 C88 1.248 . S
Mg87 O86 2.028 . S
Mg87 O92 2.032 . S
Mg87 O94 2.079 . S
C88 O85 1.250 . S
C88 O86 1.248 . S
C89 O90 1.264 . S
C89 O97 1.249 . S
O90 C89 1.264 . S
O91 Mg84 1.986 . S
O91 C95 1.246 . S
O92 Mg87 2.032 . S
O92 C95 1.259 . S
O93 Mg84 2.114 . S
O93 C96 1.252 . S
O94 Mg84 2.251 . S
O94 Mg87 2.079 . S
O94 C96 1.273 . S
C95 O91 1.246 . S
C95 O92 1.259 . S
C96 O93 1.252 . S
C96 O94 1.273 . S
O97 Mg84 2.010 . S
O97 C89 1.249 . S
Mg98 O99 2.028 . S
Mg98 O105 1.986 . S
Mg98 O107 2.121 . S
Mg98 O108 2.251 1_455 S
Mg98 O111 2.010 . S
O99 Mg98 2.028 . S
O99 C102 1.250 . S
O100 Mg101 2.028 1_455 S
O100 C102 1.248 . S
Mg101 O100 2.028 1_655 S
Mg101 O106 2.032 . S
Mg101 O108 2.079 . S
C102 O99 1.250 . S
C102 O100 1.248 . S
C103 O104 1.264 . S
C103 O111 1.249 . S
O104 C103 1.264 . S
O105 Mg98 1.986 . S
O105 C109 1.246 . S
O106 Mg101 2.032 . S
O106 C109 1.259 1_655 S
O107 Mg98 2.121 . S
O107 C110 1.242 1_455 S
O108 Mg98 2.251 1_655 S
O108 Mg101 2.079 . S
O108 C110 1.273 . S
C109 O105 1.246 . S
C109 O106 1.259 1_455 S
C110 O107 1.242 1_655 S
C110 O108 1.273 . S
O111 Mg98 2.010 . S
O111 C103 1.249 . S
Mg112 O113 2.028 1_545 S
Mg112 O119 1.986 . S
Mg112 O121 2.114 . S
Mg112 O122 2.251 . S
Mg112 O125 2.010 . S
O113 Mg112 2.028 1_565 S
O113 C116 1.250 . S
O114 Mg115 2.028 1_565 S
O114 C116 1.248 . S
Mg115 O114 2.028 1_545 S
Mg115 O120 2.032 . S
Mg115 O122 2.079 . S
C116 O113 1.250 . S
C116 O114 1.248 . S
C117 O118 1.264 . S
C117 O125 1.249 . S
O118 C117 1.264 . S
O119 Mg112 1.986 . S
O119 C123 1.246 . S
O120 Mg115 2.032 . S
O120 C123 1.259 . S
O121 Mg112 2.114 . S
O121 C124 1.252 . S
O122 Mg112 2.251 . S
O122 Mg115 2.079 . S
O122 C124 1.273 . S
C123 O119 1.246 . S
C123 O120 1.259 . S
C124 O121 1.252 . S
C124 O122 1.273 . S
O125 Mg112 2.010 . S
O125 C117 1.249 . S
Mg126 O127 2.028 . S
Mg126 O133 1.986 . S
Mg126 O135 2.114 . S
Mg126 O136 2.251 . S
Mg126 O139 2.010 . S
O127 Mg126 2.028 . S
O127 C130 1.250 . S
O128 Mg129 2.028 . S
O128 C130 1.248 . S
Mg129 O128 2.028 . S
Mg129 O134 2.032 . S
Mg129 O136 2.079 . S
C130 O127 1.250 . S
C130 O128 1.248 . S
C131 O132 1.264 . S
C131 O139 1.249 . S
O132 C131 1.264 . S
O133 Mg126 1.986 . S
O133 C137 1.246 . S
O134 Mg129 2.032 . S
O134 C137 1.259 . S
O135 Mg126 2.114 . S
O135 C138 1.252 . S
O136 Mg126 2.251 . S
O136 Mg129 2.079 . S
O136 C138 1.273 . S
C137 O133 1.246 . S
C137 O134 1.259 . S
C138 O135 1.252 . S
C138 O136 1.273 . S
O139 Mg126 2.010 . S
O139 C131 1.249 . S
Mg140 O141 2.028 1_565 S
Mg140 O147 1.986 . S
Mg140 O149 2.114 1_565 S
Mg140 O150 2.251 . S
Mg140 O153 2.010 . S
O141 Mg140 2.028 1_545 S
O141 C144 1.250 . S
O142 Mg143 2.028 . S
O142 C144 1.248 . S
Mg143 O142 2.028 . S
Mg143 O148 2.032 1_545 S
Mg143 O150 2.079 1_545 S
C144 O141 1.250 . S
C144 O142 1.248 . S
C145 O146 1.264 . S
C145 O153 1.249 . S
O146 C145 1.264 . S
O147 Mg140 1.986 . S
O147 C151 1.246 . S
O148 Mg143 2.032 1_565 S
O148 C151 1.259 . S
O149 Mg140 2.114 1_545 S
O149 C152 1.252 . S
O150 Mg140 2.251 . S
O150 Mg143 2.079 1_565 S
O150 C152 1.273 1_565 S
C151 O147 1.246 . S
C151 O148 1.259 . S
C152 O149 1.252 . S
C152 O150 1.273 1_545 S
O153 Mg140 2.010 . S
O153 C145 1.249 . S
Mg154 O155 2.028 1_554 S
Mg154 O161 1.986 . S
Mg154 O163 2.125 . S
Mg154 O164 2.251 . S
Mg154 O167 2.010 . S
O155 Mg154 2.028 1_556 S
O155 C158 1.250 . S
O156 Mg157 2.028 1_556 S
O156 C158 1.248 . S
Mg157 O156 2.028 1_554 S
Mg157 O162 2.032 . S
Mg157 O164 2.079 . S
C158 O155 1.250 . S
C158 O156 1.248 . S
C159 O160 1.264 1_565 S
C159 O167 1.249 . S
O160 C159 1.264 1_545 S
O161 Mg154 1.986 . S
O161 C165 1.246 . S
O162 Mg157 2.032 . S
O162 C165 1.259 . S
O163 Mg154 2.125 . S
O163 C166 1.263 . S
O164 Mg154 2.251 . S
O164 Mg157 2.079 . S
O164 C166 1.273 . S
C165 O161 1.246 . S
C165 O162 1.259 . S
C166 O163 1.263 . S
C166 O164 1.273 . S
O167 Mg154 2.010 . S
O167 C159 1.249 . S
Mg168 O169 2.028 . S
Mg168 O175 1.986 . S
Mg168 O177 2.114 . S
Mg168 O178 2.251 . S
Mg168 O181 2.010 . S
O169 Mg168 2.028 . S
O169 C172 1.250 1_554 S
O170 Mg171 2.028 1_556 S
O170 C172 1.248 . S
Mg171 O170 2.028 1_554 S
Mg171 O176 2.032 . S
Mg171 O178 2.079 . S
C172 O169 1.250 1_556 S
C172 O170 1.248 . S
C173 O174 1.264 . S
C173 O181 1.249 . S
O174 C173 1.264 . S
O175 Mg168 1.986 . S
O175 C179 1.246 . S
O176 Mg171 2.032 . S
O176 C179 1.259 . S
O177 Mg168 2.114 . S
O177 C180 1.252 . S
O178 Mg168 2.251 . S
O178 Mg171 2.079 . S
O178 C180 1.273 . S
C179 O175 1.246 . S
C179 O176 1.259 . S
C180 O177 1.252 . S
C180 O178 1.273 . S
O181 Mg168 2.010 . S
O181 C173 1.249 . S
Mg182 O183 2.028 . S
Mg182 O189 1.986 1_554 S
Mg182 O191 2.114 . S
Mg182 O192 2.251 . S
Mg182 O195 2.010 . S
O183 Mg182 2.028 . S
O183 C186 1.250 . S
O184 Mg185 2.028 . S
O184 C186 1.248 . S
Mg185 O184 2.028 . S
Mg185 O190 2.032 . S
Mg185 O192 2.079 . S
C186 O183 1.250 . S
C186 O184 1.248 . S
C187 O188 1.264 1_554 S
C187 O195 1.249 . S
O188 C187 1.264 1_556 S
O189 Mg182 1.986 1_556 S
O189 C193 1.246 . S
O190 Mg185 2.032 . S
O190 C193 1.259 1_554 S
O191 Mg182 2.114 . S
O191 C194 1.252 . S
O192 Mg182 2.251 . S
O192 Mg185 2.079 . S
O192 C194 1.273 . S
C193 O189 1.246 . S
C193 O190 1.259 1_556 S
C194 O191 1.252 . S
C194 O192 1.273 . S
O195 Mg182 2.010 . S
O195 C187 1.249 . S
Mg196 O197 2.028 . S
Mg196 O203 1.986 . S
Mg196 O205 2.114 . S
Mg196 O206 2.251 . S
Mg196 O209 2.010 . S
O197 Mg196 2.028 . S
O197 C200 1.250 . S
O198 Mg199 2.028 . S
O198 C200 1.248 . S
Mg199 O198 2.028 . S
Mg199 O204 2.032 . S
Mg199 O206 2.079 . S
C200 O197 1.250 . S
C200 O198 1.248 . S
C201 O202 1.264 . S
C201 O209 1.249 . S
O202 C201 1.264 . S
O203 Mg196 1.986 . S
O203 C207 1.246 . S
O204 Mg199 2.032 . S
O204 C207 1.259 . S
O205 Mg196 2.114 . S
O205 C208 1.252 . S
O206 Mg196 2.251 . S
O206 Mg199 2.079 . S
O206 C208 1.273 . S
C207 O203 1.246 . S
C207 O204 1.259 . S
C208 O205 1.252 . S
C208 O206 1.273 . S
O209 Mg196 2.010 . S
O209 C201 1.249 . S
Mg210 O211 2.028 . S
Mg210 O217 1.986 . S
Mg210 O219 2.114 . S
Mg210 O220 2.251 . S
Mg210 O223 2.010 . S
O211 Mg210 2.028 . S
O211 C214 1.250 . S
O212 Mg213 2.028 . S
O212 C214 1.248 . S
Mg213 O212 2.028 . S
Mg213 O218 2.032 . S
Mg213 O220 2.079 . S
C214 O211 1.250 . S
C214 O212 1.248 . S
C215 O216 1.264 . S
C215 O223 1.249 . S
O216 C215 1.264 . S
O217 Mg210 1.986 . S
O217 C221 1.246 . S
O218 Mg213 2.032 . S
O218 C221 1.259 . S
O219 Mg210 2.114 . S
O219 C222 1.252 . S
O220 Mg210 2.251 . S
O220 Mg213 2.079 . S
O220 C222 1.273 . S
C221 O217 1.246 . S
C221 O218 1.259 . S
C222 O219 1.252 . S
C222 O220 1.273 . S
O223 Mg210 2.010 . S
O223 C215 1.249 . S
Mg224 O225 2.028 . S
Mg224 O231 1.986 . S
Mg224 O233 2.112 . S
Mg224 O234 2.251 . S
Mg224 O237 2.010 . S
O225 Mg224 2.028 . S
O225 C228 1.250 . S
O226 Mg227 2.028 . S
O226 C228 1.248 . S
Mg227 O226 2.028 . S
Mg227 O232 2.032 . S
Mg227 O234 2.079 . S
C228 O225 1.250 . S
C228 O226 1.248 . S
C229 O230 1.264 . S
C229 O237 1.249 1_455 S
O230 C229 1.264 . S
O231 Mg224 1.986 . S
O231 C235 1.246 . S
O232 Mg227 2.032 . S
O232 C235 1.259 . S
O233 Mg224 2.112 . S
O233 C236 1.251 . S
O234 Mg224 2.251 . S
O234 Mg227 2.079 . S
O234 C236 1.273 . S
C235 O231 1.246 . S
C235 O232 1.259 . S
C236 O233 1.251 . S
C236 O234 1.273 . S
O237 Mg224 2.010 . S
O237 C229 1.249 1_655 S
Mg238 O239 2.028 . S
Mg238 O245 1.986 . S
Mg238 O247 2.114 . S
Mg238 O248 2.251 . S
Mg238 O251 2.010 . S
O239 Mg238 2.028 . S
O239 C242 1.250 . S
O240 Mg241 2.028 . S
O240 C242 1.248 . S
Mg241 O240 2.028 . S
Mg241 O246 2.032 . S
Mg241 O248 2.079 . S
C242 O239 1.250 . S
C242 O240 1.248 . S
C243 O244 1.264 . S
C243 O251 1.249 . S
O244 C243 1.264 . S
O245 Mg238 1.986 . S
O245 C249 1.246 . S
O246 Mg241 2.032 . S
O246 C249 1.259 . S
O247 Mg238 2.114 . S
O247 C250 1.252 . S
O248 Mg238 2.251 . S
O248 Mg241 2.079 . S
O248 C250 1.273 . S
C249 O245 1.246 . S
C249 O246 1.259 . S
C250 O247 1.252 . S
C250 O248 1.273 . S
O251 Mg238 2.010 . S
O251 C243 1.249 . S
Mg252 O253 2.028 . S
Mg252 O259 1.986 . S
Mg252 O261 2.114 . S
Mg252 O262 2.251 . S
Mg252 O265 2.010 . S
O253 Mg252 2.028 . S
O253 C256 1.250 . S
O254 Mg255 2.028 . S
O254 C256 1.248 . S
Mg255 O254 2.028 . S
Mg255 O260 2.032 . S
Mg255 O262 2.079 . S
C256 O253 1.250 . S
C256 O254 1.248 . S
C257 O258 1.264 . S
C257 O265 1.249 . S
O258 C257 1.264 . S
O259 Mg252 1.986 . S
O259 C263 1.246 . S
O260 Mg255 2.032 . S
O260 C263 1.259 . S
O261 Mg252 2.114 . S
O261 C264 1.252 . S
O262 Mg252 2.251 . S
O262 Mg255 2.079 . S
O262 C264 1.273 . S
C263 O259 1.246 . S
C263 O260 1.259 . S
C264 O261 1.252 . S
C264 O262 1.273 . S
O265 Mg252 2.010 . S
O265 C257 1.249 . S
Mg266 O267 2.028 . S
Mg266 O273 1.986 . S
Mg266 O275 2.114 . S
Mg266 O276 2.251 . S
Mg266 O279 2.010 . S
O267 Mg266 2.028 . S
O267 C270 1.250 . S
O268 Mg269 2.028 . S
O268 C270 1.248 . S
Mg269 O268 2.028 . S
Mg269 O274 2.032 . S
Mg269 O276 2.079 . S
C270 O267 1.250 . S
C270 O268 1.248 . S
C271 O272 1.264 . S
C271 O279 1.249 . S
O272 C271 1.264 . S
O273 Mg266 1.986 . S
O273 C277 1.246 . S
O274 Mg269 2.032 . S
O274 C277 1.259 . S
O275 Mg266 2.114 . S
O275 C278 1.252 . S
O276 Mg266 2.251 . S
O276 Mg269 2.079 . S
O276 C278 1.273 . S
C277 O273 1.246 . S
C277 O274 1.259 . S
C278 O275 1.252 . S
C278 O276 1.273 . S
O279 Mg266 2.010 . S
O279 C271 1.249 . S
Mg280 O281 2.028 1_556 S
Mg280 O287 1.986 . S
Mg280 O289 2.114 1_556 S
Mg280 O290 2.251 . S
Mg280 O293 2.010 . S
O281 Mg280 2.028 1_554 S
O281 C284 1.250 . S
O282 Mg283 2.028 . S
O282 C284 1.248 . S
Mg283 O282 2.028 . S
Mg283 O288 2.032 1_554 S
Mg283 O290 2.079 1_554 S
C284 O281 1.250 . S
C284 O282 1.248 . S
C285 O286 1.264 . S
C285 O293 1.249 . S
O286 C285 1.264 . S
O287 Mg280 1.986 . S
O287 C291 1.246 . S
O288 Mg283 2.032 1_556 S
O288 C291 1.259 . S
O289 Mg280 2.114 1_554 S
O289 C292 1.251 . S
O290 Mg280 2.251 . S
O290 Mg283 2.079 1_556 S
O290 C292 1.275 1_556 S
C291 O287 1.246 . S
C291 O288 1.259 . S
C292 O289 1.251 . S
C292 O290 1.275 1_554 S
O293 Mg280 2.010 . S
O293 C285 1.249 . S
Mg294 O295 2.028 . S
Mg294 O301 1.986 . S
Mg294 O303 2.114 . S
Mg294 O304 2.251 . S
Mg294 O307 2.010 . S
O295 Mg294 2.028 . S
O295 C298 1.250 . S
O296 Mg297 2.028 . S
O296 C298 1.248 . S
Mg297 O296 2.028 . S
Mg297 O302 2.032 . S
Mg297 O304 2.079 . S
C298 O295 1.250 . S
C298 O296 1.248 . S
C299 O300 1.264 . S
C299 O307 1.249 . S
O300 C299 1.264 . S
O301 Mg294 1.986 . S
O301 C305 1.246 . S
O302 Mg297 2.032 . S
O302 C305 1.259 . S
O303 Mg294 2.114 . S
O303 C306 1.252 . S
O304 Mg294 2.251 . S
O304 Mg297 2.079 . S
O304 C306 1.273 . S
C305 O301 1.246 . S
C305 O302 1.259 . S
C306 O303 1.252 . S
C306 O304 1.273 . S
O307 Mg294 2.010 . S
O307 C299 1.249 . S
Mg308 O309 2.028 . S
Mg308 O315 1.986 . S
Mg308 O317 2.114 . S
Mg308 O318 2.251 . S
Mg308 O321 2.010 . S
O309 Mg308 2.028 . S
O309 C312 1.250 . S
O310 Mg311 2.028 . S
O310 C312 1.248 . S
Mg311 O310 2.028 . S
Mg311 O316 2.032 . S
Mg311 O318 2.079 . S
C312 O309 1.250 . S
C312 O310 1.248 . S
C313 O314 1.264 . S
C313 O321 1.249 . S
O314 C313 1.264 . S
O315 Mg308 1.986 . S
O315 C319 1.246 . S
O316 Mg311 2.032 . S
O316 C319 1.259 . S
O317 Mg308 2.114 . S
O317 C320 1.252 . S
O318 Mg308 2.251 . S
O318 Mg311 2.079 . S
O318 C320 1.273 . S
C319 O315 1.246 . S
C319 O316 1.259 . S
C320 O317 1.252 . S
C320 O318 1.273 . S
O321 Mg308 2.010 . S
O321 C313 1.249 . S
Mg322 O323 2.028 . S
Mg322 O329 1.986 . S
Mg322 O331 2.114 . S
Mg322 O332 2.251 . S
Mg322 O335 2.010 . S
O323 Mg322 2.028 . S
O323 C326 1.250 . S
O324 Mg325 2.028 . S
O324 C326 1.248 . S
Mg325 O324 2.028 . S
Mg325 O330 2.032 . S
Mg325 O332 2.079 . S
C326 O323 1.250 . S
C326 O324 1.248 . S
C327 O328 1.264 . S
C327 O335 1.249 . S
O328 C327 1.264 . S
O329 Mg322 1.986 . S
O329 C333 1.246 . S
O330 Mg325 2.032 . S
O330 C333 1.259 . S
O331 Mg322 2.114 . S
O331 C334 1.252 . S
O332 Mg322 2.251 . S
O332 Mg325 2.079 . S
O332 C334 1.273 . S
C333 O329 1.246 . S
C333 O330 1.259 . S
C334 O331 1.252 . S
C334 O332 1.273 . S
O335 Mg322 2.010 . S
O335 C327 1.249 . S
Tb336 N367 2.660 1_546 S
Tb336 N374 2.600 1_545 S
Tb336 O380 2.546 1_455 S
Tb336 O381 2.610 1_556 S
Tb336 O383 2.320 1_556 S
Tb336 O384 2.552 . S
Tb336 O385 2.413 1_456 S
Tb336 O387 2.362 1_546 S
Tb336 O388 2.421 . S
Tb336 C400 2.833 1_455 S
C337 C340 1.432 . S
C337 C341 1.414 . S
C337 N344 1.359 . S
C338 C340 1.417 . S
C338 C342 1.432 . S
C338 C350 1.410 1_554 S
C339 C341 1.444 . S
C339 C342 1.317 . S
C339 H362 0.929 . S
C340 C337 1.432 . S
C340 C338 1.417 . S
C340 N348 1.360 . S
C341 C337 1.414 . S
C341 C339 1.444 . S
C341 C346 1.385 . S
C342 C338 1.432 . S
C342 C339 1.317 . S
C342 H354 0.930 . S
C343 C345 1.392 . S
C343 C346 1.370 . S
C343 H355 0.931 . S
N344 C337 1.359 . S
N344 C345 1.327 . S
N344 Tb347 2.600 . S
C345 C343 1.392 . S
C345 N344 1.327 . S
C345 H352 0.930 . S
C346 C341 1.385 . S
C346 C343 1.370 . S
C346 H365 0.930 . S
Tb347 N344 2.600 . S
Tb347 N348 2.660 . S
Tb347 O381 2.362 . S
Tb347 O382 2.421 . S
Tb347 O386 2.546 . S
Tb347 O387 2.610 1_545 S
Tb347 O389 2.320 1_554 S
Tb347 O390 2.552 1_545 S
Tb347 O391 2.413 . S
Tb347 C411 2.833 . S
N348 C340 1.360 . S
N348 Tb347 2.660 . S
N348 C349 1.305 1_554 S
C349 N348 1.305 1_556 S
C349 C351 1.407 . S
C349 H356 0.930 . S
C350 C338 1.410 1_556 S
C350 C351 1.345 . S
C350 H358 0.930 . S
C351 C349 1.407 . S
C351 C350 1.345 . S
C351 H353 0.930 . S
H352 C345 0.930 . S
H353 C351 0.930 . S
H354 C342 0.930 . S
H355 C343 0.931 . S
H356 C349 0.930 . S
H357 C371 0.929 . S
H358 C350 0.930 . S
H359 C377 0.930 . S
H360 C368 0.930 . S
H361 C375 0.931 . S
H362 C339 0.929 . S
H363 C369 0.930 . S
H364 C402 0.930 . S
H365 C346 0.930 . S
H366 C401 0.929 . S
N367 Tb336 2.660 1_564 S
N367 C368 1.305 . S
N367 C372 1.360 1_454 S
C368 H360 0.930 . S
C368 N367 1.305 . S
C368 C371 1.407 1_455 S
C369 H363 0.930 . S
C369 C370 1.410 . S
C369 C371 1.345 . S
C370 C369 1.410 . S
C370 C372 1.417 1_554 S
C370 C402 1.432 1_554 S
C371 H357 0.929 . S
C371 C368 1.407 1_655 S
C371 C369 1.345 . S
C372 N367 1.360 1_656 S
C372 C370 1.417 1_556 S
C372 C376 1.432 . S
H373 C378 0.930 . S
N374 Tb336 2.600 1_565 S
N374 C376 1.359 1_455 S
N374 C377 1.327 . S
C375 H361 0.931 . S
C375 C377 1.392 1_655 S
C375 C378 1.370 . S
C376 C372 1.432 . S
C376 N374 1.359 1_655 S
C376 C379 1.414 . S
C377 H359 0.930 . S
C377 N374 1.327 . S
C377 C375 1.392 1_455 S
C378 H373 0.930 . S
C378 C375 1.370 . S
C378 C379 1.385 . S
C379 C376 1.414 . S
C379 C378 1.385 . S
C379 C401 1.444 . S
O380 Tb336 2.546 1_655 S
O380 C400 1.251 . S
O381 Tb336 2.610 1_554 S
O381 Tb347 2.362 . S
O381 C392 1.283 . S
O382 Tb347 2.421 . S
O382 C399 1.262 . S
O383 Tb336 2.320 1_554 S
O383 C399 1.260 . S
O384 Tb336 2.552 . S
O384 C392 1.243 1_556 S
O385 Tb336 2.413 1_654 S
O385 C400 1.256 1_554 S
O386 Tb347 2.546 . S
O386 C411 1.251 . S
O387 Tb336 2.362 1_564 S
O387 Tb347 2.610 1_565 S
O387 C403 1.283 . S
O388 Tb336 2.421 . S
O388 C410 1.262 . S
O389 Tb347 2.320 1_556 S
O389 C410 1.260 . S
O390 Tb347 2.552 1_565 S
O390 C403 1.243 . S
O391 Tb347 2.413 . S
O391 C411 1.256 . S
C392 O381 1.283 . S
C392 O384 1.243 1_554 S
C393 C395 1.382 . S
C393 C397 1.393 1_545 S
C393 C400 1.500 . S
C394 C395 1.400 . S
C394 C396 1.384 . S
C395 C393 1.382 . S
C395 C394 1.400 . S
C395 H412 0.930 1_556 S
C396 C394 1.384 . S
C396 C398 1.392 1_545 S
C396 H413 0.931 . S
C397 C393 1.393 1_565 S
C397 C398 1.401 . S
C397 H414 0.930 . S
C398 C396 1.392 1_565 S
C398 C397 1.401 . S
C398 H415 0.930 . S
C399 O382 1.262 . S
C399 O383 1.260 . S
C400 Tb336 2.833 1_655 S
C400 O380 1.251 . S
C400 O385 1.256 1_556 S
C400 C393 1.500 . S
C401 H366 0.929 . S
C401 C379 1.444 . S
C401 C402 1.317 . S
C402 H364 0.930 . S
C402 C370 1.432 1_556 S
C402 C401 1.317 . S
C403 O387 1.283 . S
C403 O390 1.243 . S
C404 C405 1.382 . S
C404 C408 1.393 . S
C404 C411 1.500 . S
C405 C404 1.382 . S
C405 C406 1.400 . S
C405 H416 0.930 . S
C406 C405 1.400 . S
C406 C407 1.384 . S
C407 C406 1.384 . S
C407 C409 1.392 . S
C407 H417 0.931 . S
C408 C404 1.393 . S
C408 C409 1.401 . S
C408 H418 0.930 . S
C409 C407 1.392 . S
C409 C408 1.401 . S
C409 H419 0.930 . S
C410 O388 1.262 . S
C410 O389 1.260 . S
C411 Tb347 2.833 . S
C411 O386 1.251 . S
C411 O391 1.256 . S
C411 C404 1.500 . S
H412 C395 0.930 1_554 S
H413 C396 0.931 . S
H414 C397 0.930 . S
H415 C398 0.930 . S
H416 C405 0.930 . S
H417 C407 0.931 . S
H418 C408 0.930 . S
H419 C409 0.930 . S
Tb420 N451 2.660 . S
Tb420 N458 2.600 . S
Tb420 O464 2.546 . S
Tb420 O465 2.610 . S
Tb420 O467 2.320 . S
Tb420 O468 2.552 . S
Tb420 O469 2.413 . S
Tb420 O471 2.362 . S
Tb420 O472 2.421 . S
Tb420 C484 2.833 . S
C421 C424 1.432 . S
C421 C425 1.414 . S
C421 N428 1.359 . S
C422 C424 1.417 . S
C422 C426 1.432 . S
C422 C434 1.410 . S
C423 C425 1.444 . S
C423 C426 1.317 . S
C423 H446 0.929 . S
C424 C421 1.432 . S
C424 C422 1.417 . S
C424 N432 1.360 . S
C425 C421 1.414 . S
C425 C423 1.444 . S
C425 C430 1.385 . S
C426 C422 1.432 . S
C426 C423 1.317 . S
C426 H438 0.930 . S
C427 C429 1.392 . S
C427 C430 1.370 . S
C427 H439 0.931 . S
N428 C421 1.359 . S
N428 C429 1.327 . S
N428 Tb431 2.600 . S
C429 C427 1.392 . S
C429 N428 1.327 . S
C429 H436 0.930 . S
C430 C425 1.385 . S
C430 C427 1.370 . S
C430 H449 0.930 . S
Tb431 N428 2.600 . S
Tb431 N432 2.660 . S
Tb431 O465 2.362 . S
Tb431 O466 2.421 . S
Tb431 O470 2.546 . S
Tb431 O471 2.610 . S
Tb431 O473 2.320 . S
Tb431 O474 2.552 . S
Tb431 O475 2.413 . S
Tb431 C495 2.833 . S
N432 C424 1.360 . S
N432 Tb431 2.660 . S
N432 C433 1.305 . S
C433 N432 1.305 . S
C433 C435 1.407 . S
C433 H440 0.930 . S
C434 C422 1.410 . S
C434 C435 1.345 . S
C434 H442 0.930 . S
C435 C433 1.407 . S
C435 C434 1.345 . S
C435 H437 0.930 . S
H436 C429 0.930 . S
H437 C435 0.930 . S
H438 C426 0.930 . S
H439 C427 0.931 . S
H440 C433 0.930 . S
H441 C455 0.930 . S
H442 C434 0.930 . S
H443 C461 0.930 . S
H444 C452 0.930 . S
H445 C459 0.931 . S
H446 C423 0.929 . S
H447 C453 0.930 . S
H448 C486 0.930 . S
H449 C430 0.930 . S
H450 C485 0.929 . S
N451 Tb420 2.660 . S
N451 C452 1.305 . S
N451 C456 1.360 . S
C452 H444 0.930 . S
C452 N451 1.305 . S
C452 C455 1.407 . S
C453 H447 0.930 . S
C453 C454 1.410 . S
C453 C455 1.345 . S
C454 C453 1.410 . S
C454 C456 1.417 . S
C454 C486 1.432 . S
C455 H441 0.930 . S
C455 C452 1.407 . S
C455 C453 1.345 . S
C456 N451 1.360 . S
C456 C454 1.417 . S
C456 C460 1.432 . S
H457 C462 0.930 . S
N458 Tb420 2.600 . S
N458 C460 1.359 . S
N458 C461 1.327 . S
C459 H445 0.931 . S
C459 C461 1.392 . S
C459 C462 1.370 . S
C460 C456 1.432 . S
C460 N458 1.359 . S
C460 C463 1.414 . S
C461 H443 0.930 . S
C461 N458 1.327 . S
C461 C459 1.392 . S
C462 H457 0.930 . S
C462 C459 1.370 . S
C462 C463 1.385 . S
C463 C460 1.414 . S
C463 C462 1.385 . S
C463 C485 1.444 . S
O464 Tb420 2.546 . S
O464 C484 1.251 . S
O465 Tb420 2.610 . S
O465 Tb431 2.362 . S
O465 C476 1.283 . S
O466 Tb431 2.421 . S
O466 C483 1.262 . S
O467 Tb420 2.320 . S
O467 C483 1.260 . S
O468 Tb420 2.552 . S
O468 C476 1.243 . S
O469 Tb420 2.413 . S
O469 C484 1.256 . S
O470 Tb431 2.546 . S
O470 C495 1.251 . S
O471 Tb420 2.362 . S
O471 Tb431 2.610 . S
O471 C487 1.283 . S
O472 Tb420 2.421 . S
O472 C494 1.262 . S
O473 Tb431 2.320 . S
O473 C494 1.260 . S
O474 Tb431 2.552 . S
O474 C487 1.243 . S
O475 Tb431 2.413 . S
O475 C495 1.256 . S
C476 O465 1.283 . S
C476 O468 1.243 . S
C477 C479 1.382 . S
C477 C481 1.393 . S
C477 C484 1.500 . S
C478 C479 1.400 . S
C478 C480 1.384 . S
C479 C477 1.382 . S
C479 C478 1.400 . S
C479 H496 0.930 . S
C480 C478 1.384 . S
C480 C482 1.392 . S
C480 H497 0.931 . S
C481 C477 1.393 . S
C481 C482 1.401 . S
C481 H498 0.930 . S
C482 C480 1.392 . S
C482 C481 1.401 . S
C482 H499 0.930 . S
C483 O466 1.262 . S
C483 O467 1.260 . S
C484 Tb420 2.833 . S
C484 O464 1.251 . S
C484 O469 1.256 . S
C484 C477 1.500 . S
C485 H450 0.929 . S
C485 C463 1.444 . S
C485 C486 1.317 . S
C486 H448 0.930 . S
C486 C454 1.432 . S
C486 C485 1.317 . S
C487 O471 1.283 . S
C487 O474 1.243 . S
C488 C489 1.382 . S
C488 C492 1.393 . S
C488 C495 1.500 . S
C489 C488 1.382 . S
C489 C490 1.400 . S
C489 H500 0.930 . S
C490 C489 1.400 . S
C490 C491 1.384 . S
C491 C490 1.384 . S
C491 C493 1.392 . S
C491 H501 0.931 . S
C492 C488 1.393 . S
C492 C493 1.401 . S
C492 H502 0.930 . S
C493 C491 1.392 . S
C493 C492 1.401 . S
C493 H503 0.930 . S
C494 O472 1.262 . S
C494 O473 1.260 . S
C495 Tb431 2.833 . S
C495 O470 1.251 . S
C495 O475 1.256 . S
C495 C488 1.500 . S
H496 C479 0.930 . S
H497 C480 0.931 . S
H498 C481 0.930 . S
H499 C482 0.930 . S
H500 C489 0.930 . S
H501 C491 0.931 . S
H502 C492 0.930 . S
H503 C493 0.930 . S
Tb504 N535 2.660 . S
Tb504 N542 2.600 . S
Tb504 O548 2.546 . S
Tb504 O549 2.607 1_545 S
Tb504 O551 2.320 . S
Tb504 O552 2.552 1_545 S
Tb504 O553 2.413 . S
Tb504 O555 2.362 . S
Tb504 O556 2.421 . S
Tb504 C568 2.833 . S
C505 C508 1.432 . S
C505 C509 1.414 . S
C505 N512 1.359 1_565 S
C506 C508 1.417 . S
C506 C510 1.432 . S
C506 C518 1.410 . S
C507 C509 1.444 . S
C507 C510 1.317 . S
C507 H530 0.929 . S
C508 C505 1.432 . S
C508 C506 1.417 . S
C508 N516 1.360 . S
C509 C505 1.414 . S
C509 C507 1.444 . S
C509 C514 1.385 . S
C510 C506 1.432 . S
C510 C507 1.317 . S
C510 H522 0.930 . S
C511 C513 1.397 . S
C511 C514 1.364 1_545 S
C511 H523 0.932 . S
N512 C505 1.359 1_545 S
N512 C513 1.327 . S
N512 Tb515 2.600 . S
C513 C511 1.397 . S
C513 N512 1.327 . S
C513 H520 0.930 . S
C514 C509 1.385 . S
C514 C511 1.364 1_565 S
C514 H533 0.930 . S
Tb515 N512 2.600 . S
Tb515 N516 2.660 1_545 S
Tb515 O549 2.357 1_545 S
Tb515 O550 2.421 . S
Tb515 O554 2.546 . S
Tb515 O555 2.610 . S
Tb515 O557 2.320 . S
Tb515 O558 2.552 . S
Tb515 O559 2.413 . S
Tb515 C579 2.833 . S
N516 C508 1.360 . S
N516 Tb515 2.660 1_565 S
N516 C517 1.305 . S
C517 N516 1.305 . S
C517 C519 1.407 . S
C517 H524 0.930 . S
C518 C506 1.410 . S
C518 C519 1.345 . S
C518 H526 0.930 . S
C519 C517 1.407 . S
C519 C518 1.345 . S
C519 H521 0.930 . S
H520 C513 0.930 . S
H521 C519 0.930 . S
H522 C510 0.930 . S
H523 C511 0.932 . S
H524 C517 0.930 . S
H525 C539 0.930 . S
H526 C518 0.930 . S
H527 C545 0.930 . S
H528 C536 0.930 . S
H529 C543 0.931 . S
H530 C507 0.929 . S
H531 C537 0.930 . S
H532 C570 0.930 . S
H533 C514 0.930 . S
H534 C569 0.929 . S
N535 Tb504 2.660 . S
N535 C536 1.305 . S
N535 C540 1.360 . S
C536 H528 0.930 . S
C536 N535 1.305 . S
C536 C539 1.407 . S
C537 H531 0.930 . S
C537 C538 1.410 . S
C537 C539 1.345 . S
C538 C537 1.410 . S
C538 C540 1.417 . S
C538 C570 1.432 . S
C539 H525 0.930 . S
C539 C536 1.407 . S
C539 C537 1.345 . S
C540 N535 1.360 . S
C540 C538 1.417 . S
C540 C544 1.432 . S
H541 C546 0.930 . S
N542 Tb504 2.600 . S
N542 C544 1.359 . S
N542 C545 1.327 . S
C543 H529 0.931 . S
C543 C545 1.392 . S
C543 C546 1.370 . S
C544 C540 1.432 . S
C544 N542 1.359 . S
C544 C547 1.414 . S
C545 H527 0.930 . S
C545 N542 1.327 . S
C545 C543 1.392 . S
C546 H541 0.930 . S
C546 C543 1.370 . S
C546 C547 1.385 . S
C547 C544 1.414 . S
C547 C546 1.385 . S
C547 C569 1.444 . S
O548 Tb504 2.546 . S
O548 C568 1.251 . S
O549 Tb504 2.607 1_565 S
O549 Tb515 2.357 1_565 S
O549 C560 1.288 . S
O550 Tb515 2.421 . S
O550 C567 1.262 . S
O551 Tb504 2.320 . S
O551 C567 1.260 . S
O552 Tb504 2.552 1_565 S
O552 C560 1.243 . S
O553 Tb504 2.413 . S
O553 C568 1.256 . S
O554 Tb515 2.546 . S
O554 C579 1.251 . S
O555 Tb504 2.362 . S
O555 Tb515 2.610 . S
O555 C571 1.283 . S
O556 Tb504 2.421 . S
O556 C578 1.262 . S
O557 Tb515 2.320 . S
O557 C578 1.260 . S
O558 Tb515 2.552 . S
O558 C571 1.243 . S
O559 Tb515 2.413 . S
O559 C579 1.256 . S
C560 O549 1.288 . S
C560 O552 1.243 . S
C561 C563 1.382 . S
C561 C565 1.393 . S
C561 C568 1.500 1_565 S
C562 C563 1.400 . S
C562 C564 1.384 . S
C563 C561 1.382 . S
C563 C562 1.400 . S
C563 H580 0.930 . S
C564 C562 1.384 . S
C564 C566 1.392 . S
C564 H581 0.931 . S
C565 C561 1.393 . S
C565 C566 1.401 . S
C565 H582 0.930 . S
C566 C564 1.392 . S
C566 C565 1.401 . S
C566 H583 0.930 . S
C567 O550 1.262 . S
C567 O551 1.260 . S
C568 Tb504 2.833 . S
C568 O548 1.251 . S
C568 O553 1.256 . S
C568 C561 1.500 1_545 S
C569 H534 0.929 . S
C569 C547 1.444 . S
C569 C570 1.317 . S
C570 H532 0.930 . S
C570 C538 1.432 . S
C570 C569 1.317 . S
C571 O555 1.283 . S
C571 O558 1.243 . S
C572 C573 1.382 . S
C572 C576 1.393 . S
C572 C579 1.500 . S
C573 C572 1.382 . S
C573 C574 1.400 . S
C573 H584 0.930 . S
C574 C573 1.400 . S
C574 C575 1.384 . S
C575 C574 1.384 . S
C575 C577 1.392 . S
C575 H585 0.931 . S
C576 C572 1.393 . S
C576 C577 1.401 . S
C576 H586 0.930 . S
C577 C575 1.392 . S
C577 C576 1.401 . S
C577 H587 0.930 . S
C578 O556 1.262 . S
C578 O557 1.260 . S
C579 Tb515 2.833 . S
C579 O554 1.251 . S
C579 O559 1.256 . S
C579 C572 1.500 . S
H580 C563 0.930 . S
H581 C564 0.931 . S
H582 C565 0.930 . S
H583 C566 0.930 . S
H584 C573 0.930 . S
H585 C575 0.931 . S
H586 C576 0.930 . S
H587 C577 0.930 . S
Tb588 N619 2.660 . S
Tb588 N626 2.600 . S
Tb588 O632 2.546 . S
Tb588 O633 2.610 . S
Tb588 O635 2.320 . S
Tb588 O636 2.552 . S
Tb588 O637 2.413 . S
Tb588 O639 2.362 . S
Tb588 O640 2.421 . S
Tb588 C652 2.833 . S
C589 C592 1.432 . S
C589 C593 1.414 . S
C589 N596 1.359 . S
C590 C592 1.417 . S
C590 C594 1.432 . S
C590 C602 1.410 . S
C591 C593 1.444 . S
C591 C594 1.317 . S
C591 H614 0.929 . S
C592 C589 1.432 . S
C592 C590 1.417 . S
C592 N600 1.360 . S
C593 C589 1.414 . S
C593 C591 1.444 . S
C593 C598 1.385 . S
C594 C590 1.432 . S
C594 C591 1.317 . S
C594 H606 0.930 . S
C595 C597 1.392 . S
C595 C598 1.370 . S
C595 H607 0.931 . S
N596 C589 1.359 . S
N596 C597 1.327 . S
N596 Tb599 2.600 . S
C597 C595 1.392 . S
C597 N596 1.327 . S
C597 H604 0.930 . S
C598 C593 1.385 . S
C598 C595 1.370 . S
C598 H617 0.930 . S
Tb599 N596 2.600 . S
Tb599 N600 2.660 . S
Tb599 O633 2.362 . S
Tb599 O634 2.421 . S
Tb599 O638 2.546 . S
Tb599 O639 2.610 . S
Tb599 O641 2.320 . S
Tb599 O642 2.552 . S
Tb599 O643 2.413 . S
Tb599 C663 2.833 . S
N600 C592 1.360 . S
N600 Tb599 2.660 . S
N600 C601 1.305 . S
C601 N600 1.305 . S
C601 C603 1.407 . S
C601 H608 0.930 . S
C602 C590 1.410 . S
C602 C603 1.345 . S
C602 H610 0.930 . S
C603 C601 1.407 . S
C603 C602 1.345 . S
C603 H605 0.930 . S
H604 C597 0.930 . S
H605 C603 0.930 . S
H606 C594 0.930 . S
H607 C595 0.931 . S
H608 C601 0.930 . S
H609 C623 0.930 . S
H610 C602 0.930 . S
H611 C629 0.930 . S
H612 C620 0.930 . S
H613 C627 0.931 . S
H614 C591 0.929 . S
H615 C621 0.930 . S
H616 C654 0.930 . S
H617 C598 0.930 . S
H618 C653 0.929 . S
N619 Tb588 2.660 . S
N619 C620 1.305 . S
N619 C624 1.360 . S
C620 H612 0.930 . S
C620 N619 1.305 . S
C620 C623 1.407 . S
C621 H615 0.930 . S
C621 C622 1.410 . S
C621 C623 1.345 . S
C622 C621 1.410 . S
C622 C624 1.417 . S
C622 C654 1.432 . S
C623 H609 0.930 . S
C623 C620 1.407 . S
C623 C621 1.345 . S
C624 N619 1.360 . S
C624 C622 1.417 . S
C624 C628 1.432 . S
H625 C630 0.930 . S
N626 Tb588 2.600 . S
N626 C628 1.359 . S
N626 C629 1.327 . S
C627 H613 0.931 . S
C627 C629 1.392 . S
C627 C630 1.370 . S
C628 C624 1.432 . S
C628 N626 1.359 . S
C628 C631 1.414 . S
C629 H611 0.930 . S
C629 N626 1.327 . S
C629 C627 1.392 . S
C630 H625 0.930 . S
C630 C627 1.370 . S
C630 C631 1.385 . S
C631 C628 1.414 . S
C631 C630 1.385 . S
C631 C653 1.444 . S
O632 Tb588 2.546 . S
O632 C652 1.251 . S
O633 Tb588 2.610 . S
O633 Tb599 2.362 . S
O633 C644 1.283 . S
O634 Tb599 2.421 . S
O634 C651 1.262 . S
O635 Tb588 2.320 . S
O635 C651 1.260 . S
O636 Tb588 2.552 . S
O636 C644 1.243 . S
O637 Tb588 2.413 . S
O637 C652 1.256 . S
O638 Tb599 2.546 . S
O638 C663 1.251 . S
O639 Tb588 2.362 . S
O639 Tb599 2.610 . S
O639 C655 1.283 . S
O640 Tb588 2.421 . S
O640 C662 1.262 . S
O641 Tb599 2.320 . S
O641 C662 1.260 . S
O642 Tb599 2.552 . S
O642 C655 1.243 . S
O643 Tb599 2.413 . S
O643 C663 1.256 . S
C644 O633 1.283 . S
C644 O636 1.243 . S
C645 C647 1.382 . S
C645 C649 1.393 . S
C645 C652 1.500 . S
C646 C647 1.400 . S
C646 C648 1.384 . S
C647 C645 1.382 . S
C647 C646 1.400 . S
C647 H664 0.930 . S
C648 C646 1.384 . S
C648 C650 1.392 . S
C648 H665 0.931 . S
C649 C645 1.393 . S
C649 C650 1.401 . S
C649 H666 0.930 . S
C650 C648 1.392 . S
C650 C649 1.401 . S
C650 H667 0.930 . S
C651 O634 1.262 . S
C651 O635 1.260 . S
C652 Tb588 2.833 . S
C652 O632 1.251 . S
C652 O637 1.256 . S
C652 C645 1.500 . S
C653 H618 0.929 . S
C653 C631 1.444 . S
C653 C654 1.317 . S
C654 H616 0.930 . S
C654 C622 1.432 . S
C654 C653 1.317 . S
C655 O639 1.283 . S
C655 O642 1.243 . S
C656 C657 1.382 . S
C656 C660 1.393 . S
C656 C663 1.500 . S
C657 C656 1.382 . S
C657 C658 1.400 . S
C657 H668 0.930 . S
C658 C657 1.400 . S
C658 C659 1.384 . S
C659 C658 1.384 . S
C659 C661 1.392 . S
C659 H669 0.931 . S
C660 C656 1.393 . S
C660 C661 1.401 . S
C660 H670 0.930 . S
C661 C659 1.392 . S
C661 C660 1.401 . S
C661 H671 0.930 . S
C662 O640 1.262 . S
C662 O641 1.260 . S
C663 Tb599 2.833 . S
C663 O638 1.251 . S
C663 O643 1.256 . S
C663 C656 1.500 . S
H664 C647 0.930 . S
H665 C648 0.931 . S
H666 C649 0.930 . S
H667 C650 0.930 . S
H668 C657 0.930 . S
H669 C659 0.931 . S
H670 C660 0.930 . S
H671 C661 0.930 . S
Tb672 N703 2.660 . S
Tb672 N710 2.600 . S
Tb672 O716 2.546 . S
Tb672 O717 2.610 . S
Tb672 O719 2.320 . S
Tb672 O720 2.552 . S
Tb672 O721 2.413 . S
Tb672 O723 2.362 . S
Tb672 O724 2.421 . S
Tb672 C736 2.833 . S
C673 C676 1.432 . S
C673 C677 1.414 . S
C673 N680 1.359 . S
C674 C676 1.417 . S
C674 C678 1.432 . S
C674 C686 1.410 1_455 S
C675 C677 1.444 . S
C675 C678 1.317 . S
C675 H698 0.929 . S
C676 C673 1.432 . S
C676 C674 1.417 . S
C676 N684 1.360 . S
C677 C673 1.414 . S
C677 C675 1.444 . S
C677 C682 1.385 . S
C678 C674 1.432 . S
C678 C675 1.317 . S
C678 H690 0.930 . S
C679 C681 1.392 . S
C679 C682 1.370 . S
C679 H691 0.931 . S
N680 C673 1.359 . S
N680 C681 1.327 . S
N680 Tb683 2.600 . S
C681 C679 1.392 . S
C681 N680 1.327 . S
C681 H688 0.930 . S
C682 C677 1.385 . S
C682 C679 1.370 . S
C682 H701 0.930 . S
Tb683 N680 2.600 . S
Tb683 N684 2.660 . S
Tb683 O717 2.362 1_565 S
Tb683 O718 2.421 1_565 S
Tb683 O722 2.546 . S
Tb683 O723 2.610 1_565 S
Tb683 O725 2.320 . S
Tb683 O726 2.552 . S
Tb683 O727 2.413 . S
Tb683 C747 2.833 . S
N684 C676 1.360 . S
N684 Tb683 2.660 . S
N684 C685 1.305 . S
C685 N684 1.305 . S
C685 C687 1.407 1_455 S
C685 H692 0.930 1_455 S
C686 C674 1.410 1_655 S
C686 C687 1.345 . S
C686 H694 0.930 . S
C687 C685 1.407 1_655 S
C687 C686 1.345 . S
C687 H689 0.930 . S
H688 C681 0.930 . S
H689 C687 0.930 . S
H690 C678 0.930 . S
H691 C679 0.931 . S
H692 C685 0.930 1_655 S
H693 C707 0.930 . S
H694 C686 0.930 . S
H695 C713 0.936 . S
H696 C704 0.930 . S
H697 C711 0.931 1_655 S
H698 C675 0.929 . S
H699 C705 0.930 . S
H700 C738 0.930 . S
H701 C682 0.930 . S
H702 C737 0.929 . S
N703 Tb672 2.660 . S
N703 C704 1.305 . S
N703 C708 1.360 . S
C704 H696 0.930 . S
C704 N703 1.305 . S
C704 C707 1.407 . S
C705 H699 0.930 . S
C705 C706 1.410 . S
C705 C707 1.345 . S
C706 C705 1.410 . S
C706 C708 1.417 . S
C706 C738 1.432 . S
C707 H693 0.930 . S
C707 C704 1.407 . S
C707 C705 1.345 . S
C708 N703 1.360 . S
C708 C706 1.417 . S
C708 C712 1.432 . S
H709 C714 0.930 . S
N710 Tb672 2.600 . S
N710 C712 1.359 . S
N710 C713 1.327 . S
C711 H697 0.931 1_455 S
C711 C713 1.392 . S
C711 C714 1.370 . S
C712 C708 1.432 . S
C712 N710 1.359 . S
C712 C715 1.414 . S
C713 H695 0.936 . S
C713 N710 1.327 . S
C713 C711 1.392 . S
C714 H709 0.930 . S
C714 C711 1.370 . S
C714 C715 1.385 . S
C715 C712 1.414 . S
C715 C714 1.385 . S
C715 C737 1.444 . S
O716 Tb672 2.546 . S
O716 C736 1.251 . S
O717 Tb672 2.610 . S
O717 Tb683 2.362 1_545 S
O717 C728 1.283 . S
O718 Tb683 2.421 1_545 S
O718 C735 1.262 . S
O719 Tb672 2.320 . S
O719 C735 1.260 . S
O720 Tb672 2.552 . S
O720 C728 1.243 . S
O721 Tb672 2.413 . S
O721 C736 1.256 . S
O722 Tb683 2.546 . S
O722 C747 1.251 . S
O723 Tb672 2.362 . S
O723 Tb683 2.610 1_545 S
O723 C739 1.283 . S
O724 Tb672 2.421 . S
O724 C746 1.262 . S
O725 Tb683 2.320 . S
O725 C746 1.260 1_565 S
O726 Tb683 2.552 . S
O726 C739 1.243 1_565 S
O727 Tb683 2.413 . S
O727 C747 1.256 . S
C728 O717 1.283 . S
C728 O720 1.243 . S
C729 C731 1.382 . S
C729 C733 1.393 . S
C729 C736 1.500 . S
C730 C731 1.400 . S
C730 C732 1.384 . S
C731 C729 1.382 . S
C731 C730 1.400 . S
C731 H748 0.930 . S
C732 C730 1.384 . S
C732 C734 1.392 . S
C732 H749 0.931 . S
C733 C729 1.393 . S
C733 C734 1.401 . S
C733 H750 0.930 . S
C734 C732 1.392 . S
C734 C733 1.401 . S
C734 H751 0.930 . S
C735 O718 1.262 . S
C735 O719 1.260 . S
C736 Tb672 2.833 . S
C736 O716 1.251 . S
C736 O721 1.256 . S
C736 C729 1.500 . S
C737 H702 0.929 . S
C737 C715 1.444 . S
C737 C738 1.317 . S
C738 H700 0.930 . S
C738 C706 1.432 . S
C738 C737 1.317 . S
C739 O723 1.283 . S
C739 O726 1.243 1_545 S
C740 C741 1.382 . S
C740 C744 1.393 . S
C740 C747 1.500 . S
C741 C740 1.382 . S
C741 C742 1.400 . S
C741 H752 0.930 . S
C742 C741 1.400 . S
C742 C743 1.384 . S
C743 C742 1.384 . S
C743 C745 1.392 . S
C743 H753 0.931 . S
C744 C740 1.393 . S
C744 C745 1.401 . S
C744 H754 0.930 . S
C745 C743 1.392 . S
C745 C744 1.401 . S
C745 H755 0.930 . S
C746 O724 1.262 . S
C746 O725 1.260 1_545 S
C747 Tb683 2.833 . S
C747 O722 1.251 . S
C747 O727 1.256 . S
C747 C740 1.500 . S
H748 C731 0.930 . S
H749 C732 0.931 . S
H750 C733 0.930 . S
H751 C734 0.930 . S
H752 C741 0.930 . S
H753 C743 0.931 . S
H754 C744 0.930 . S
H755 C745 0.930 . S
Tb756 N787 2.660 . S
Tb756 N794 2.600 . S
Tb756 O800 2.546 . S
Tb756 O801 2.610 . S
Tb756 O803 2.320 . S
Tb756 O804 2.552 . S
Tb756 O805 2.413 . S
Tb756 O807 2.362 . S
Tb756 O808 2.421 . S
Tb756 C820 2.833 . S
C757 C760 1.432 . S
C757 C761 1.414 . S
C757 N764 1.359 . S
C758 C760 1.417 . S
C758 C762 1.432 . S
C758 C770 1.410 . S
C759 C761 1.444 . S
C759 C762 1.317 . S
C759 H782 0.929 . S
C760 C757 1.432 . S
C760 C758 1.417 . S
C760 N768 1.360 . S
C761 C757 1.414 . S
C761 C759 1.444 . S
C761 C766 1.385 . S
C762 C758 1.432 . S
C762 C759 1.317 . S
C762 H774 0.930 . S
C763 C765 1.392 . S
C763 C766 1.370 . S
C763 H775 0.931 . S
N764 C757 1.359 . S
N764 C765 1.327 . S
N764 Tb767 2.600 . S
C765 C763 1.392 . S
C765 N764 1.327 . S
C765 H772 0.930 . S
C766 C761 1.385 . S
C766 C763 1.370 . S
C766 H785 0.930 . S
Tb767 N764 2.600 . S
Tb767 N768 2.660 . S
Tb767 O801 2.362 . S
Tb767 O802 2.421 . S
Tb767 O806 2.546 . S
Tb767 O807 2.610 . S
Tb767 O809 2.320 . S
Tb767 O810 2.552 . S
Tb767 O811 2.413 . S
Tb767 C831 2.833 . S
N768 C760 1.360 . S
N768 Tb767 2.660 . S
N768 C769 1.305 . S
C769 N768 1.305 . S
C769 C771 1.407 . S
C769 H776 0.930 . S
C770 C758 1.410 . S
C770 C771 1.345 . S
C770 H778 0.930 . S
C771 C769 1.407 . S
C771 C770 1.345 . S
C771 H773 0.930 . S
H772 C765 0.930 . S
H773 C771 0.930 . S
H774 C762 0.930 . S
H775 C763 0.931 . S
H776 C769 0.930 . S
H777 C791 0.930 . S
H778 C770 0.930 . S
H779 C797 0.930 . S
H780 C788 0.930 . S
H781 C795 0.931 . S
H782 C759 0.929 . S
H783 C789 0.930 . S
H784 C822 0.930 . S
H785 C766 0.930 . S
H786 C821 0.929 . S
N787 Tb756 2.660 . S
N787 C788 1.305 . S
N787 C792 1.360 . S
C788 H780 0.930 . S
C788 N787 1.305 . S
C788 C791 1.407 . S
C789 H783 0.930 . S
C789 C790 1.410 . S
C789 C791 1.345 . S
C790 C789 1.410 . S
C790 C792 1.417 . S
C790 C822 1.432 . S
C791 H777 0.930 . S
C791 C788 1.407 . S
C791 C789 1.345 . S
C792 N787 1.360 . S
C792 C790 1.417 . S
C792 C796 1.432 . S
H793 C798 0.930 . S
N794 Tb756 2.600 . S
N794 C796 1.359 . S
N794 C797 1.327 . S
C795 H781 0.931 . S
C795 C797 1.392 . S
C795 C798 1.370 . S
C796 C792 1.432 . S
C796 N794 1.359 . S
C796 C799 1.414 . S
C797 H779 0.930 . S
C797 N794 1.327 . S
C797 C795 1.392 . S
C798 H793 0.930 . S
C798 C795 1.370 . S
C798 C799 1.385 . S
C799 C796 1.414 . S
C799 C798 1.385 . S
C799 C821 1.444 . S
O800 Tb756 2.546 . S
O800 C820 1.251 . S
O801 Tb756 2.610 . S
O801 Tb767 2.362 . S
O801 C812 1.283 . S
O802 Tb767 2.421 . S
O802 C819 1.262 . S
O803 Tb756 2.320 . S
O803 C819 1.260 . S
O804 Tb756 2.552 . S
O804 C812 1.243 . S
O805 Tb756 2.413 . S
O805 C820 1.256 . S
O806 Tb767 2.546 . S
O806 C831 1.251 . S
O807 Tb756 2.362 . S
O807 Tb767 2.610 . S
O807 C823 1.283 . S
O808 Tb756 2.421 . S
O808 C830 1.262 . S
O809 Tb767 2.320 . S
O809 C830 1.260 . S
O810 Tb767 2.552 . S
O810 C823 1.243 . S
O811 Tb767 2.413 . S
O811 C831 1.256 . S
C812 O801 1.283 . S
C812 O804 1.243 . S
C813 C815 1.382 . S
C813 C817 1.393 . S
C813 C820 1.500 . S
C814 C815 1.400 . S
C814 C816 1.384 . S
C815 C813 1.382 . S
C815 C814 1.400 . S
C815 H832 0.930 . S
C816 C814 1.384 . S
C816 C818 1.392 . S
C816 H833 0.931 . S
C817 C813 1.393 . S
C817 C818 1.401 . S
C817 H834 0.930 . S
C818 C816 1.392 . S
C818 C817 1.401 . S
C818 H835 0.930 . S
C819 O802 1.262 . S
C819 O803 1.260 . S
C820 Tb756 2.833 . S
C820 O800 1.251 . S
C820 O805 1.256 . S
C820 C813 1.500 . S
C821 H786 0.929 . S
C821 C799 1.444 . S
C821 C822 1.317 . S
C822 H784 0.930 . S
C822 C790 1.432 . S
C822 C821 1.317 . S
C823 O807 1.283 . S
C823 O810 1.243 . S
C824 C825 1.382 . S
C824 C828 1.393 . S
C824 C831 1.500 . S
C825 C824 1.382 . S
C825 C826 1.400 . S
C825 H836 0.930 . S
C826 C825 1.400 . S
C826 C827 1.384 . S
C827 C826 1.384 . S
C827 C829 1.392 . S
C827 H837 0.931 . S
C828 C824 1.393 . S
C828 C829 1.401 . S
C828 H838 0.930 . S
C829 C827 1.392 . S
C829 C828 1.401 . S
C829 H839 0.930 . S
C830 O808 1.262 . S
C830 O809 1.260 . S
C831 Tb767 2.833 . S
C831 O806 1.251 . S
C831 O811 1.256 . S
C831 C824 1.500 . S
H832 C815 0.930 . S
H833 C816 0.931 . S
H834 C817 0.930 . S
H835 C818 0.930 . S
H836 C825 0.930 . S
H837 C827 0.931 . S
H838 C828 0.930 . S
H839 C829 0.930 . S
Tb840 N871 2.660 . S
Tb840 N878 2.600 1_545 S
Tb840 O884 2.546 1_545 S
Tb840 O885 2.610 . S
Tb840 O887 2.320 . S
Tb840 O888 2.552 1_545 S
Tb840 O889 2.413 . S
Tb840 O891 2.362 . S
Tb840 O892 2.421 1_545 S
Tb840 C904 2.833 1_545 S
C841 C844 1.432 . S
C841 C845 1.414 . S
C841 N848 1.359 . S
C842 C844 1.417 1_565 S
C842 C846 1.432 1_565 S
C842 C854 1.410 . S
C843 C845 1.444 . S
C843 C846 1.317 . S
C843 H866 0.929 . S
C844 C841 1.432 . S
C844 C842 1.417 1_545 S
C844 N852 1.360 1_545 S
C845 C841 1.414 . S
C845 C843 1.444 . S
C845 C850 1.385 . S
C846 C842 1.432 1_545 S
C846 C843 1.317 . S
C846 H858 0.930 1_545 S
C847 C849 1.392 . S
C847 C850 1.370 . S
C847 H859 0.931 . S
N848 C841 1.359 . S
N848 C849 1.327 . S
N848 Tb851 2.600 . S
C849 C847 1.392 . S
C849 N848 1.327 . S
C849 H856 0.930 . S
C850 C845 1.385 . S
C850 C847 1.370 . S
C850 H869 0.930 . S
Tb851 N848 2.600 . S
Tb851 N852 2.660 1_545 S
Tb851 O885 2.362 1_556 S
Tb851 O886 2.421 1_556 S
Tb851 O890 2.546 . S
Tb851 O891 2.610 1_556 S
Tb851 O893 2.320 1_545 S
Tb851 O894 2.552 . S
Tb851 O895 2.413 . S
Tb851 C915 2.833 . S
N852 C844 1.360 1_565 S
N852 Tb851 2.660 1_565 S
N852 C853 1.305 . S
C853 N852 1.305 . S
C853 C855 1.407 . S
C853 H860 0.930 . S
C854 C842 1.410 . S
C854 C855 1.345 . S
C854 H862 0.930 . S
C855 C853 1.407 . S
C855 C854 1.345 . S
C855 H857 0.930 . S
H856 C849 0.930 . S
H857 C855 0.930 . S
H858 C846 0.930 1_565 S
H859 C847 0.931 . S
H860 C853 0.930 . S
H861 C875 0.930 . S
H862 C854 0.930 . S
H863 C881 0.930 . S
H864 C872 0.930 . S
H865 C879 0.931 . S
H866 C843 0.929 . S
H867 C873 0.930 . S
H868 C906 0.930 . S
H869 C850 0.930 . S
H870 C905 0.929 . S
N871 Tb840 2.660 . S
N871 C872 1.305 . S
N871 C876 1.360 . S
C872 H864 0.930 . S
C872 N871 1.305 . S
C872 C875 1.407 . S
C873 H867 0.930 . S
C873 C874 1.410 . S
C873 C875 1.345 . S
C874 C873 1.410 . S
C874 C876 1.417 . S
C874 C906 1.432 . S
C875 H861 0.930 . S
C875 C872 1.407 . S
C875 C873 1.345 . S
C876 N871 1.360 . S
C876 C874 1.417 . S
C876 C880 1.432 . S
H877 C882 0.930 . S
N878 Tb840 2.600 1_565 S
N878 C880 1.359 1_565 S
N878 C881 1.327 . S
C879 H865 0.931 . S
C879 C881 1.392 . S
C879 C882 1.370 . S
C880 C876 1.432 . S
C880 N878 1.359 1_545 S
C880 C883 1.414 1_545 S
C881 H863 0.930 . S
C881 N878 1.327 . S
C881 C879 1.392 . S
C882 H877 0.930 . S
C882 C879 1.370 . S
C882 C883 1.385 . S
C883 C880 1.414 1_565 S
C883 C882 1.385 . S
C883 C905 1.444 1_565 S
O884 Tb840 2.546 1_565 S
O884 C904 1.251 . S
O885 Tb840 2.610 . S
O885 Tb851 2.362 1_554 S
O885 C896 1.283 1_545 S
O886 Tb851 2.421 1_554 S
O886 C903 1.262 . S
O887 Tb840 2.320 . S
O887 C903 1.260 . S
O888 Tb840 2.552 1_565 S
O888 C896 1.243 . S
O889 Tb840 2.413 . S
O889 C904 1.256 1_545 S
O890 Tb851 2.546 . S
O890 C915 1.251 . S
O891 Tb840 2.362 . S
O891 Tb851 2.610 1_554 S
O891 C907 1.283 . S
O892 Tb840 2.421 1_565 S
O892 C914 1.262 1_554 S
O893 Tb851 2.320 1_565 S
O893 C914 1.260 . S
O894 Tb851 2.552 . S
O894 C907 1.243 1_556 S
O895 Tb851 2.413 . S
O895 C915 1.256 . S
C896 O885 1.283 1_565 S
C896 O888 1.243 . S
C897 C899 1.382 . S
C897 C901 1.393 . S
C897 C904 1.500 . S
C898 C899 1.400 . S
C898 C900 1.384 . S
C899 C897 1.382 . S
C899 C898 1.400 . S
C899 H916 0.930 1_565 S
C900 C898 1.384 . S
C900 C902 1.392 . S
C900 H917 0.931 . S
C901 C897 1.393 . S
C901 C902 1.401 . S
C901 H918 0.930 . S
C902 C900 1.392 . S
C902 C901 1.401 . S
C902 H919 0.930 . S
C903 O886 1.262 . S
C903 O887 1.260 . S
C904 Tb840 2.833 1_565 S
C904 O884 1.251 . S
C904 O889 1.256 1_565 S
C904 C897 1.500 . S
C905 H870 0.929 . S
C905 C883 1.444 1_545 S
C905 C906 1.317 . S
C906 H868 0.930 . S
C906 C874 1.432 . S
C906 C905 1.317 . S
C907 O891 1.283 . S
C907 O894 1.243 1_554 S
C908 C909 1.382 . S
C908 C912 1.393 . S
C908 C915 1.500 . S
C909 C908 1.382 . S
C909 C910 1.400 . S
C909 H920 0.930 . S
C910 C909 1.400 . S
C910 C911 1.384 . S
C911 C910 1.384 . S
C911 C913 1.392 . S
C911 H921 0.931 . S
C912 C908 1.393 . S
C912 C913 1.401 . S
C912 H922 0.930 . S
C913 C911 1.392 . S
C913 C912 1.401 . S
C913 H923 0.930 . S
C914 O892 1.262 1_556 S
C914 O893 1.260 . S
C915 Tb851 2.833 . S
C915 O890 1.251 . S
C915 O895 1.256 . S
C915 C908 1.500 . S
H916 C899 0.930 1_545 S
H917 C900 0.931 . S
H918 C901 0.930 . S
H919 C902 0.930 . S
H920 C909 0.930 . S
H921 C911 0.931 . S
H922 C912 0.930 . S
H923 C913 0.930 . S
Tb924 N955 2.660 . S
Tb924 N962 2.600 . S
Tb924 O968 2.546 . S
Tb924 O969 2.610 . S
Tb924 O971 2.320 . S
Tb924 O972 2.552 . S
Tb924 O973 2.413 . S
Tb924 O975 2.362 . S
Tb924 O976 2.421 . S
Tb924 C988 2.833 . S
C925 C928 1.432 . S
C925 C929 1.414 . S
C925 N932 1.359 . S
C926 C928 1.417 . S
C926 C930 1.432 . S
C926 C938 1.410 . S
C927 C929 1.444 . S
C927 C930 1.317 . S
C927 H950 0.929 . S
C928 C925 1.432 . S
C928 C926 1.417 . S
C928 N936 1.360 . S
C929 C925 1.414 . S
C929 C927 1.444 . S
C929 C934 1.385 . S
C930 C926 1.432 . S
C930 C927 1.317 . S
C930 H942 0.930 . S
C931 C933 1.392 . S
C931 C934 1.370 . S
C931 H943 0.931 . S
N932 C925 1.359 . S
N932 C933 1.327 . S
N932 Tb935 2.600 . S
C933 C931 1.392 . S
C933 N932 1.327 . S
C933 H940 0.930 . S
C934 C929 1.385 . S
C934 C931 1.370 . S
C934 H953 0.930 . S
Tb935 N932 2.600 . S
Tb935 N936 2.660 . S
Tb935 O969 2.362 . S
Tb935 O970 2.421 . S
Tb935 O974 2.546 . S
Tb935 O975 2.610 . S
Tb935 O977 2.320 . S
Tb935 O978 2.552 . S
Tb935 O979 2.413 . S
Tb935 C999 2.833 . S
N936 C928 1.360 . S
N936 Tb935 2.660 . S
N936 C937 1.305 . S
C937 N936 1.305 . S
C937 C939 1.407 . S
C937 H944 0.930 . S
C938 C926 1.410 . S
C938 C939 1.345 . S
C938 H946 0.930 . S
C939 C937 1.407 . S
C939 C938 1.345 . S
C939 H941 0.930 . S
H940 C933 0.930 . S
H941 C939 0.930 . S
H942 C930 0.930 . S
H943 C931 0.931 . S
H944 C937 0.930 . S
H945 C959 0.930 . S
H946 C938 0.930 . S
H947 C965 0.930 . S
H948 C956 0.930 . S
H949 C963 0.931 . S
H950 C927 0.929 . S
H951 C957 0.930 . S
H952 C990 0.930 . S
H953 C934 0.930 . S
H954 C989 0.929 . S
N955 Tb924 2.660 . S
N955 C956 1.305 . S
N955 C960 1.360 . S
C956 H948 0.930 . S
C956 N955 1.305 . S
C956 C959 1.407 . S
C957 H951 0.930 . S
C957 C958 1.410 . S
C957 C959 1.345 . S
C958 C957 1.410 . S
C958 C960 1.417 . S
C958 C990 1.432 . S
C959 H945 0.930 . S
C959 C956 1.407 . S
C959 C957 1.345 . S
C960 N955 1.360 . S
C960 C958 1.417 . S
C960 C964 1.432 . S
H961 C966 0.930 . S
N962 Tb924 2.600 . S
N962 C964 1.359 . S
N962 C965 1.327 . S
C963 H949 0.931 . S
C963 C965 1.392 . S
C963 C966 1.370 . S
C964 C960 1.432 . S
C964 N962 1.359 . S
C964 C967 1.414 . S
C965 H947 0.930 . S
C965 N962 1.327 . S
C965 C963 1.392 . S
C966 H961 0.930 . S
C966 C963 1.370 . S
C966 C967 1.385 . S
C967 C964 1.414 . S
C967 C966 1.385 . S
C967 C989 1.444 . S
O968 Tb924 2.546 . S
O968 C988 1.251 . S
O969 Tb924 2.610 . S
O969 Tb935 2.362 . S
O969 C980 1.283 . S
O970 Tb935 2.421 . S
O970 C987 1.262 . S
O971 Tb924 2.320 . S
O971 C987 1.260 . S
O972 Tb924 2.552 . S
O972 C980 1.243 . S
O973 Tb924 2.413 . S
O973 C988 1.256 . S
O974 Tb935 2.546 . S
O974 C999 1.251 . S
O975 Tb924 2.362 . S
O975 Tb935 2.610 . S
O975 C991 1.283 . S
O976 Tb924 2.421 . S
O976 C998 1.262 . S
O977 Tb935 2.320 . S
O977 C998 1.260 . S
O978 Tb935 2.552 . S
O978 C991 1.243 . S
O979 Tb935 2.413 . S
O979 C999 1.256 . S
C980 O969 1.283 . S
C980 O972 1.243 . S
C981 C983 1.382 . S
C981 C985 1.393 . S
C981 C988 1.500 . S
C982 C983 1.400 . S
C982 C984 1.384 . S
C983 C981 1.382 . S
C983 C982 1.400 . S
C983 H1000 0.930 . S
C984 C982 1.384 . S
C984 C986 1.392 . S
C984 H1001 0.931 . S
C985 C981 1.393 . S
C985 C986 1.401 . S
C985 H1002 0.930 . S
C986 C984 1.392 . S
C986 C985 1.401 . S
C986 H1003 0.930 . S
C987 O970 1.262 . S
C987 O971 1.260 . S
C988 Tb924 2.833 . S
C988 O968 1.251 . S
C988 O973 1.256 . S
C988 C981 1.500 . S
C989 H954 0.929 . S
C989 C967 1.444 . S
C989 C990 1.317 . S
C990 H952 0.930 . S
C990 C958 1.432 . S
C990 C989 1.317 . S
C991 O975 1.283 . S
C991 O978 1.243 . S
C992 C993 1.382 . S
C992 C996 1.393 . S
C992 C999 1.500 . S
C993 C992 1.382 . S
C993 C994 1.400 . S
C993 H1004 0.930 . S
C994 C993 1.400 . S
C994 C995 1.384 . S
C995 C994 1.384 . S
C995 C997 1.392 . S
C995 H1005 0.931 . S
C996 C992 1.393 . S
C996 C997 1.401 . S
C996 H1006 0.930 . S
C997 C995 1.392 . S
C997 C996 1.401 . S
C997 H1007 0.930 . S
C998 O976 1.262 . S
C998 O977 1.260 . S
C999 Tb935 2.833 . S
C999 O974 1.251 . S
C999 O979 1.256 . S
C999 C992 1.500 . S
H1000 C983 0.930 . S
H1001 C984 0.931 . S
H1002 C985 0.930 . S
H1003 C986 0.930 . S
H1004 C993 0.930 . S
H1005 C995 0.931 . S
H1006 C996 0.930 . S
H1007 C997 0.930 . S
Tb1008 N1039 2.660 . S
Tb1008 N1046 2.600 . S
Tb1008 O1052 2.546 . S
Tb1008 O1053 2.610 1_554 S
Tb1008 O1055 2.320 . S
Tb1008 O1056 2.552 1_554 S
Tb1008 O1057 2.413 . S
Tb1008 O1059 2.362 . S
Tb1008 O1060 2.421 . S
Tb1008 C1072 2.833 . S
C1009 C1012 1.432 . S
C1009 C1013 1.414 . S
C1009 N1016 1.359 . S
C1010 C1012 1.417 . S
C1010 C1014 1.432 . S
C1010 C1022 1.410 . S
C1011 C1013 1.444 . S
C1011 C1014 1.317 . S
C1011 H1034 0.929 . S
C1012 C1009 1.432 . S
C1012 C1010 1.417 . S
C1012 N1020 1.360 . S
C1013 C1009 1.414 . S
C1013 C1011 1.444 . S
C1013 C1018 1.385 . S
C1014 C1010 1.432 . S
C1014 C1011 1.317 . S
C1014 H1026 0.930 . S
C1015 C1017 1.392 . S
C1015 C1018 1.370 . S
C1015 H1027 0.931 . S
N1016 C1009 1.359 . S
N1016 C1017 1.327 . S
N1016 Tb1019 2.613 . S
C1017 C1015 1.392 . S
C1017 N1016 1.327 . S
C1017 H1024 0.930 . S
C1018 C1013 1.385 . S
C1018 C1015 1.370 . S
C1018 H1037 0.930 . S
Tb1019 N1016 2.613 . S
Tb1019 N1020 2.671 . S
Tb1019 O1053 2.370 . S
Tb1019 O1054 2.424 1_556 S
Tb1019 O1058 2.542 1_556 S
Tb1019 O1059 2.599 1_556 S
Tb1019 O1061 2.315 1_556 S
Tb1019 O1062 2.537 1_556 S
Tb1019 O1063 2.407 1_556 S
Tb1019 C1083 2.827 1_556 S
N1020 C1012 1.360 . S
N1020 Tb1019 2.671 . S
N1020 C1021 1.305 . S
C1021 N1020 1.305 . S
C1021 C1023 1.407 . S
C1021 H1028 0.930 . S
C1022 C1010 1.410 . S
C1022 C1023 1.345 . S
C1022 H1030 0.930 . S
C1023 C1021 1.407 . S
C1023 C1022 1.345 . S
C1023 H1025 0.930 . S
H1024 C1017 0.930 . S
H1025 C1023 0.930 . S
H1026 C1014 0.930 . S
H1027 C1015 0.931 . S
H1028 C1021 0.930 . S
H1029 C1043 0.930 . S
H1030 C1022 0.930 . S
H1031 C1049 0.930 . S
H1032 C1040 0.930 . S
H1033 C1047 0.931 . S
H1034 C1011 0.929 . S
H1035 C1041 0.930 . S
H1036 C1074 0.930 . S
H1037 C1018 0.930 . S
H1038 C1073 0.929 . S
N1039 Tb1008 2.660 . S
N1039 C1040 1.305 . S
N1039 C1044 1.360 . S
C1040 H1032 0.930 . S
C1040 N1039 1.305 . S
C1040 C1043 1.407 . S
C1041 H1035 0.930 . S
C1041 C1042 1.410 . S
C1041 C1043 1.345 . S
C1042 C1041 1.410 . S
C1042 C1044 1.417 . S
C1042 C1074 1.432 . S
C1043 H1029 0.930 . S
C1043 C1040 1.407 . S
C1043 C1041 1.345 . S
C1044 N1039 1.360 . S
C1044 C1042 1.417 . S
C1044 C1048 1.432 . S
H1045 C1050 0.930 . S
N1046 Tb1008 2.600 . S
N1046 C1048 1.359 . S
N1046 C1049 1.327 . S
C1047 H1033 0.931 . S
C1047 C1049 1.392 . S
C1047 C1050 1.370 . S
C1048 C1044 1.432 . S
C1048 N1046 1.359 . S
C1048 C1051 1.414 . S
C1049 H1031 0.930 . S
C1049 N1046 1.327 . S
C1049 C1047 1.392 . S
C1050 H1045 0.930 . S
C1050 C1047 1.370 . S
C1050 C1051 1.385 . S
C1051 C1048 1.414 . S
C1051 C1050 1.385 . S
C1051 C1073 1.444 . S
O1052 Tb1008 2.546 . S
O1052 C1072 1.251 . S
O1053 Tb1008 2.610 1_556 S
O1053 Tb1019 2.370 . S
O1053 C1064 1.283 . S
O1054 Tb1019 2.424 1_554 S
O1054 C1071 1.262 . S
O1055 Tb1008 2.320 . S
O1055 C1071 1.260 . S
O1056 Tb1008 2.552 1_556 S
O1056 C1064 1.243 . S
O1057 Tb1008 2.413 . S
O1057 C1072 1.256 . S
O1058 Tb1019 2.542 1_554 S
O1058 C1083 1.251 . S
O1059 Tb1008 2.362 . S
O1059 Tb1019 2.599 1_554 S
O1059 C1075 1.283 . S
O1060 Tb1008 2.421 . S
O1060 C1082 1.262 . S
O1061 Tb1019 2.315 1_554 S
O1061 C1082 1.260 . S
O1062 Tb1019 2.537 1_554 S
O1062 C1075 1.243 . S
O1063 Tb1019 2.407 1_554 S
O1063 C1083 1.256 . S
C1064 O1053 1.283 . S
C1064 O1056 1.243 . S
C1065 C1067 1.382 . S
C1065 C1069 1.393 . S
C1065 C1072 1.500 . S
C1066 C1067 1.400 1_556 S
C1066 C1068 1.384 1_556 S
C1067 C1065 1.382 . S
C1067 C1066 1.400 1_554 S
C1067 H1084 0.930 1_554 S
C1068 C1066 1.384 1_554 S
C1068 C1070 1.392 . S
C1068 H1085 0.931 . S
C1069 C1065 1.393 . S
C1069 C1070 1.401 . S
C1069 H1086 0.930 . S
C1070 C1068 1.392 . S
C1070 C1069 1.401 . S
C1070 H1087 0.930 . S
C1071 O1054 1.262 . S
C1071 O1055 1.260 . S
C1072 Tb1008 2.833 . S
C1072 O1052 1.251 . S
C1072 O1057 1.256 . S
C1072 C1065 1.500 . S
C1073 H1038 0.929 . S
C1073 C1051 1.444 . S
C1073 C1074 1.317 . S
C1074 H1036 0.930 . S
C1074 C1042 1.432 . S
C1074 C1073 1.317 . S
C1075 O1059 1.283 . S
C1075 O1062 1.243 . S
C1076 C1077 1.382 . S
C1076 C1080 1.393 1_554 S
C1076 C1083 1.500 . S
C1077 C1076 1.382 . S
C1077 C1078 1.400 . S
C1077 H1088 0.930 . S
C1078 C1077 1.400 . S
C1078 C1079 1.384 . S
C1079 C1078 1.384 . S
C1079 C1081 1.392 . S
C1079 H1089 0.931 . S
C1080 C1076 1.393 1_556 S
C1080 C1081 1.401 1_556 S
C1080 H1090 0.930 . S
C1081 C1079 1.392 . S
C1081 C1080 1.401 1_554 S
C1081 H1091 0.930 1_554 S
C1082 O1060 1.262 . S
C1082 O1061 1.260 . S
C1083 Tb1019 2.827 1_554 S
C1083 O1058 1.251 . S
C1083 O1063 1.256 . S
C1083 C1076 1.500 . S
H1084 C1067 0.930 1_556 S
H1085 C1068 0.931 . S
H1086 C1069 0.930 . S
H1087 C1070 0.930 . S
H1088 C1077 0.930 . S
H1089 C1079 0.931 . S
H1090 C1080 0.930 . S
H1091 C1081 0.930 1_556 S
Tb1092 N1123 2.660 . S
Tb1092 N1130 2.600 . S
Tb1092 O1136 2.546 . S
Tb1092 O1137 2.610 . S
Tb1092 O1139 2.320 . S
Tb1092 O1140 2.552 . S
Tb1092 O1141 2.413 . S
Tb1092 O1143 2.362 . S
Tb1092 O1144 2.421 . S
Tb1092 C1156 2.833 . S
C1093 C1096 1.432 . S
C1093 C1097 1.414 . S
C1093 N1100 1.359 . S
C1094 C1096 1.417 . S
C1094 C1098 1.432 . S
C1094 C1106 1.410 . S
C1095 C1097 1.444 . S
C1095 C1098 1.317 . S
C1095 H1118 0.929 . S
C1096 C1093 1.432 . S
C1096 C1094 1.417 . S
C1096 N1104 1.360 . S
C1097 C1093 1.414 . S
C1097 C1095 1.444 . S
C1097 C1102 1.385 . S
C1098 C1094 1.432 . S
C1098 C1095 1.317 . S
C1098 H1110 0.930 . S
C1099 C1101 1.392 . S
C1099 C1102 1.370 . S
C1099 H1111 0.931 . S
N1100 C1093 1.359 . S
N1100 C1101 1.327 . S
N1100 Tb1103 2.600 . S
C1101 C1099 1.392 . S
C1101 N1100 1.327 . S
C1101 H1108 0.930 . S
C1102 C1097 1.385 . S
C1102 C1099 1.370 . S
C1102 H1121 0.930 . S
Tb1103 N1100 2.600 . S
Tb1103 N1104 2.660 . S
Tb1103 O1137 2.362 . S
Tb1103 O1138 2.421 . S
Tb1103 O1142 2.546 . S
Tb1103 O1143 2.610 . S
Tb1103 O1145 2.320 . S
Tb1103 O1146 2.552 . S
Tb1103 O1147 2.413 . S
Tb1103 C1167 2.833 . S
N1104 C1096 1.360 . S
N1104 Tb1103 2.660 . S
N1104 C1105 1.305 . S
C1105 N1104 1.305 . S
C1105 C1107 1.407 . S
C1105 H1112 0.930 . S
C1106 C1094 1.410 . S
C1106 C1107 1.345 . S
C1106 H1114 0.930 . S
C1107 C1105 1.407 . S
C1107 C1106 1.345 . S
C1107 H1109 0.930 . S
H1108 C1101 0.930 . S
H1109 C1107 0.930 . S
H1110 C1098 0.930 . S
H1111 C1099 0.931 . S
H1112 C1105 0.930 . S
H1113 C1127 0.930 . S
H1114 C1106 0.930 . S
H1115 C1133 0.930 . S
H1116 C1124 0.930 . S
H1117 C1131 0.931 . S
H1118 C1095 0.929 . S
H1119 C1125 0.930 . S
H1120 C1158 0.930 . S
H1121 C1102 0.930 . S
H1122 C1157 0.929 . S
N1123 Tb1092 2.660 . S
N1123 C1124 1.305 . S
N1123 C1128 1.360 . S
C1124 H1116 0.930 . S
C1124 N1123 1.305 . S
C1124 C1127 1.407 . S
C1125 H1119 0.930 . S
C1125 C1126 1.410 . S
C1125 C1127 1.345 . S
C1126 C1125 1.410 . S
C1126 C1128 1.417 . S
C1126 C1158 1.432 . S
C1127 H1113 0.930 . S
C1127 C1124 1.407 . S
C1127 C1125 1.345 . S
C1128 N1123 1.360 . S
C1128 C1126 1.417 . S
C1128 C1132 1.432 . S
H1129 C1134 0.930 . S
N1130 Tb1092 2.600 . S
N1130 C1132 1.359 . S
N1130 C1133 1.327 . S
C1131 H1117 0.931 . S
C1131 C1133 1.392 . S
C1131 C1134 1.370 . S
C1132 C1128 1.432 . S
C1132 N1130 1.359 . S
C1132 C1135 1.414 . S
C1133 H1115 0.930 . S
C1133 N1130 1.327 . S
C1133 C1131 1.392 . S
C1134 H1129 0.930 . S
C1134 C1131 1.370 . S
C1134 C1135 1.385 . S
C1135 C1132 1.414 . S
C1135 C1134 1.385 . S
C1135 C1157 1.444 . S
O1136 Tb1092 2.546 . S
O1136 C1156 1.251 . S
O1137 Tb1092 2.610 . S
O1137 Tb1103 2.362 . S
O1137 C1148 1.283 . S
O1138 Tb1103 2.421 . S
O1138 C1155 1.262 . S
O1139 Tb1092 2.320 . S
O1139 C1155 1.260 . S
O1140 Tb1092 2.552 . S
O1140 C1148 1.243 . S
O1141 Tb1092 2.413 . S
O1141 C1156 1.256 . S
O1142 Tb1103 2.546 . S
O1142 C1167 1.251 . S
O1143 Tb1092 2.362 . S
O1143 Tb1103 2.610 . S
O1143 C1159 1.283 . S
O1144 Tb1092 2.421 . S
O1144 C1166 1.262 . S
O1145 Tb1103 2.320 . S
O1145 C1166 1.260 . S
O1146 Tb1103 2.552 . S
O1146 C1159 1.243 . S
O1147 Tb1103 2.413 . S
O1147 C1167 1.256 . S
C1148 O1137 1.283 . S
C1148 O1140 1.243 . S
C1149 C1151 1.382 . S
C1149 C1153 1.393 . S
C1149 C1156 1.500 . S
C1150 C1151 1.400 . S
C1150 C1152 1.384 1_655 S
C1151 C1149 1.382 . S
C1151 C1150 1.400 . S
C1151 H1168 0.930 . S
C1152 C1150 1.384 1_455 S
C1152 C1154 1.402 . S
C1152 H1169 0.931 . S
C1153 C1149 1.393 . S
C1153 C1154 1.374 1_655 S
C1153 H1170 0.930 . S
C1154 C1152 1.402 . S
C1154 C1153 1.374 1_455 S
C1154 H1171 0.948 . S
C1155 O1138 1.262 . S
C1155 O1139 1.260 . S
C1156 Tb1092 2.833 . S
C1156 O1136 1.251 . S
C1156 O1141 1.256 . S
C1156 C1149 1.500 . S
C1157 H1122 0.929 . S
C1157 C1135 1.444 . S
C1157 C1158 1.317 . S
C1158 H1120 0.930 . S
C1158 C1126 1.432 . S
C1158 C1157 1.317 . S
C1159 O1143 1.283 . S
C1159 O1146 1.243 . S
C1160 C1161 1.382 . S
C1160 C1164 1.393 . S
C1160 C1167 1.500 . S
C1161 C1160 1.382 . S
C1161 C1162 1.400 . S
C1161 H1172 0.930 . S
C1162 C1161 1.400 . S
C1162 C1163 1.384 . S
C1163 C1162 1.384 . S
C1163 C1165 1.392 . S
C1163 H1173 0.931 . S
C1164 C1160 1.393 . S
C1164 C1165 1.401 . S
C1164 H1174 0.930 . S
C1165 C1163 1.392 . S
C1165 C1164 1.401 . S
C1165 H1175 0.930 . S
C1166 O1144 1.262 . S
C1166 O1145 1.260 . S
C1167 Tb1103 2.833 . S
C1167 O1142 1.251 . S
C1167 O1147 1.256 . S
C1167 C1160 1.500 . S
H1168 C1151 0.930 . S
H1169 C1152 0.931 . S
H1170 C1153 0.930 . S
H1171 C1154 0.948 . S
H1172 C1161 0.930 . S
H1173 C1163 0.931 . S
H1174 C1164 0.930 . S
H1175 C1165 0.930 . S
Tb1176 N1207 2.660 . S
Tb1176 N1214 2.600 . S
Tb1176 O1220 2.546 . S
Tb1176 O1221 2.610 . S
Tb1176 O1223 2.320 . S
Tb1176 O1224 2.552 . S
Tb1176 O1225 2.413 . S
Tb1176 O1227 2.362 . S
Tb1176 O1228 2.421 . S
Tb1176 C1240 2.833 . S
C1177 C1180 1.432 1_455 S
C1177 C1181 1.414 1_455 S
C1177 N1184 1.359 . S
C1178 C1180 1.417 . S
C1178 C1182 1.432 . S
C1178 C1190 1.410 . S
C1179 C1181 1.444 . S
C1179 C1182 1.317 . S
C1179 H1202 0.929 . S
C1180 C1177 1.432 1_655 S
C1180 C1178 1.417 . S
C1180 N1188 1.360 1_655 S
C1181 C1177 1.414 1_655 S
C1181 C1179 1.444 . S
C1181 C1186 1.385 . S
C1182 C1178 1.432 . S
C1182 C1179 1.317 . S
C1182 H1194 0.930 . S
C1183 C1185 1.392 . S
C1183 C1186 1.370 1_455 S
C1183 H1195 0.931 . S
N1184 C1177 1.359 . S
N1184 C1185 1.327 . S
N1184 Tb1187 2.600 . S
C1185 C1183 1.392 . S
C1185 N1184 1.327 . S
C1185 H1192 0.930 . S
C1186 C1181 1.385 . S
C1186 C1183 1.370 1_655 S
C1186 H1205 0.930 . S
Tb1187 N1184 2.600 . S
Tb1187 N1188 2.660 . S
Tb1187 O1221 2.362 . S
Tb1187 O1222 2.421 . S
Tb1187 O1226 2.546 . S
Tb1187 O1227 2.610 . S
Tb1187 O1229 2.320 . S
Tb1187 O1230 2.552 . S
Tb1187 O1231 2.413 . S
Tb1187 C1251 2.833 . S
N1188 C1180 1.360 1_455 S
N1188 Tb1187 2.660 . S
N1188 C1189 1.305 . S
C1189 N1188 1.305 . S
C1189 C1191 1.407 1_455 S
C1189 H1196 0.930 . S
C1190 C1178 1.410 . S
C1190 C1191 1.345 . S
C1190 H1198 0.930 . S
C1191 C1189 1.407 1_655 S
C1191 C1190 1.345 . S
C1191 H1193 0.930 . S
H1192 C1185 0.930 . S
H1193 C1191 0.930 . S
H1194 C1182 0.930 . S
H1195 C1183 0.931 . S
H1196 C1189 0.930 . S
H1197 C1211 0.930 . S
H1198 C1190 0.930 . S
H1199 C1217 0.930 . S
H1200 C1208 0.930 . S
H1201 C1215 0.931 . S
H1202 C1179 0.929 . S
H1203 C1209 0.930 . S
H1204 C1242 0.930 . S
H1205 C1186 0.930 . S
H1206 C1241 0.929 . S
N1207 Tb1176 2.660 . S
N1207 C1208 1.305 . S
N1207 C1212 1.360 . S
C1208 H1200 0.930 . S
C1208 N1207 1.305 . S
C1208 C1211 1.407 . S
C1209 H1203 0.930 . S
C1209 C1210 1.410 . S
C1209 C1211 1.345 . S
C1210 C1209 1.410 . S
C1210 C1212 1.417 . S
C1210 C1242 1.432 . S
C1211 H1197 0.930 . S
C1211 C1208 1.407 . S
C1211 C1209 1.345 . S
C1212 N1207 1.360 . S
C1212 C1210 1.417 . S
C1212 C1216 1.432 . S
H1213 C1218 0.930 . S
N1214 Tb1176 2.600 . S
N1214 C1216 1.359 . S
N1214 C1217 1.327 . S
C1215 H1201 0.931 . S
C1215 C1217 1.392 . S
C1215 C1218 1.370 . S
C1216 C1212 1.432 . S
C1216 N1214 1.359 . S
C1216 C1219 1.414 . S
C1217 H1199 0.930 . S
C1217 N1214 1.327 . S
C1217 C1215 1.392 . S
C1218 H1213 0.930 . S
C1218 C1215 1.370 . S
C1218 C1219 1.385 . S
C1219 C1216 1.414 . S
C1219 C1218 1.385 . S
C1219 C1241 1.444 . S
O1220 Tb1176 2.546 . S
O1220 C1240 1.251 . S
O1221 Tb1176 2.610 . S
O1221 Tb1187 2.362 . S
O1221 C1232 1.283 . S
O1222 Tb1187 2.421 . S
O1222 C1239 1.262 . S
O1223 Tb1176 2.320 . S
O1223 C1239 1.260 . S
O1224 Tb1176 2.552 . S
O1224 C1232 1.243 . S
O1225 Tb1176 2.413 . S
O1225 C1240 1.256 . S
O1226 Tb1187 2.546 . S
O1226 C1251 1.251 . S
O1227 Tb1176 2.362 . S
O1227 Tb1187 2.610 . S
O1227 C1243 1.283 . S
O1228 Tb1176 2.421 . S
O1228 C1250 1.262 . S
O1229 Tb1187 2.320 . S
O1229 C1250 1.260 . S
O1230 Tb1187 2.552 . S
O1230 C1243 1.243 . S
O1231 Tb1187 2.413 . S
O1231 C1251 1.256 . S
C1232 O1221 1.283 . S
C1232 O1224 1.243 . S
C1233 C1235 1.382 . S
C1233 C1237 1.393 . S
C1233 C1240 1.500 . S
C1234 C1235 1.399 1_655 S
C1234 C1236 1.383 1_655 S
C1235 C1233 1.382 . S
C1235 C1234 1.399 1_455 S
C1235 H1252 0.930 . S
C1236 C1234 1.383 1_455 S
C1236 C1238 1.392 . S
C1236 H1253 0.931 1_455 S
C1237 C1233 1.393 . S
C1237 C1238 1.401 . S
C1237 H1254 0.930 . S
C1238 C1236 1.392 . S
C1238 C1237 1.401 . S
C1238 H1255 0.930 . S
C1239 O1222 1.262 . S
C1239 O1223 1.260 . S
C1240 Tb1176 2.833 . S
C1240 O1220 1.251 . S
C1240 O1225 1.256 . S
C1240 C1233 1.500 . S
C1241 H1206 0.929 . S
C1241 C1219 1.444 . S
C1241 C1242 1.317 . S
C1242 H1204 0.930 . S
C1242 C1210 1.432 . S
C1242 C1241 1.317 . S
C1243 O1227 1.283 . S
C1243 O1230 1.243 . S
C1244 C1245 1.382 . S
C1244 C1248 1.393 . S
C1244 C1251 1.500 . S
C1245 C1244 1.382 . S
C1245 C1246 1.400 . S
C1245 H1256 0.930 . S
C1246 C1245 1.400 . S
C1246 C1247 1.384 . S
C1247 C1246 1.384 . S
C1247 C1249 1.392 . S
C1247 H1257 0.931 . S
C1248 C1244 1.393 . S
C1248 C1249 1.401 . S
C1248 H1258 0.930 . S
C1249 C1247 1.392 . S
C1249 C1248 1.401 . S
C1249 H1259 0.930 . S
C1250 O1228 1.262 . S
C1250 O1229 1.260 . S
C1251 Tb1187 2.833 . S
C1251 O1226 1.251 . S
C1251 O1231 1.256 . S
C1251 C1244 1.500 . S
H1252 C1235 0.930 . S
H1253 C1236 0.931 1_655 S
H1254 C1237 0.930 . S
H1255 C1238 0.930 . S
H1256 C1245 0.930 . S
H1257 C1247 0.931 . S
H1258 C1248 0.930 . S
H1259 C1249 0.930 . S
Tb1260 N1291 2.660 . S
Tb1260 N1298 2.600 . S
Tb1260 O1304 2.546 . S
Tb1260 O1305 2.610 . S
Tb1260 O1307 2.320 . S
Tb1260 O1308 2.552 . S
Tb1260 O1309 2.413 . S
Tb1260 O1311 2.362 . S
Tb1260 O1312 2.421 . S
Tb1260 C1324 2.833 . S
C1261 C1264 1.432 . S
C1261 C1265 1.414 . S
C1261 N1268 1.359 . S
C1262 C1264 1.417 . S
C1262 C1266 1.432 . S
C1262 C1274 1.410 . S
C1263 C1265 1.444 . S
C1263 C1266 1.317 . S
C1263 H1286 0.929 . S
C1264 C1261 1.432 . S
C1264 C1262 1.417 . S
C1264 N1272 1.360 . S
C1265 C1261 1.414 . S
C1265 C1263 1.444 . S
C1265 C1270 1.385 . S
C1266 C1262 1.432 . S
C1266 C1263 1.317 . S
C1266 H1278 0.930 . S
C1267 C1269 1.392 . S
C1267 C1270 1.370 . S
C1267 H1279 0.931 . S
N1268 C1261 1.359 . S
N1268 C1269 1.327 . S
N1268 Tb1271 2.600 . S
C1269 C1267 1.392 . S
C1269 N1268 1.327 . S
C1269 H1276 0.930 . S
C1270 C1265 1.385 . S
C1270 C1267 1.370 . S
C1270 H1289 0.930 . S
Tb1271 N1268 2.600 . S
Tb1271 N1272 2.660 . S
Tb1271 O1305 2.362 . S
Tb1271 O1306 2.421 . S
Tb1271 O1310 2.546 . S
Tb1271 O1311 2.610 . S
Tb1271 O1313 2.320 . S
Tb1271 O1314 2.552 . S
Tb1271 O1315 2.413 . S
Tb1271 C1335 2.833 . S
N1272 C1264 1.360 . S
N1272 Tb1271 2.660 . S
N1272 C1273 1.305 . S
C1273 N1272 1.305 . S
C1273 C1275 1.407 . S
C1273 H1280 0.930 . S
C1274 C1262 1.410 . S
C1274 C1275 1.345 . S
C1274 H1282 0.930 . S
C1275 C1273 1.407 . S
C1275 C1274 1.345 . S
C1275 H1277 0.930 . S
H1276 C1269 0.930 . S
H1277 C1275 0.930 . S
H1278 C1266 0.930 . S
H1279 C1267 0.931 . S
H1280 C1273 0.930 . S
H1281 C1295 0.930 . S
H1282 C1274 0.930 . S
H1283 C1301 0.930 . S
H1284 C1292 0.930 . S
H1285 C1299 0.931 . S
H1286 C1263 0.929 . S
H1287 C1293 0.930 . S
H1288 C1326 0.930 . S
H1289 C1270 0.930 . S
H1290 C1325 0.929 . S
N1291 Tb1260 2.660 . S
N1291 C1292 1.305 . S
N1291 C1296 1.360 . S
C1292 H1284 0.930 . S
C1292 N1291 1.305 . S
C1292 C1295 1.407 . S
C1293 H1287 0.930 . S
C1293 C1294 1.410 . S
C1293 C1295 1.345 . S
C1294 C1293 1.410 . S
C1294 C1296 1.417 . S
C1294 C1326 1.432 . S
C1295 H1281 0.930 . S
C1295 C1292 1.407 . S
C1295 C1293 1.345 . S
C1296 N1291 1.360 . S
C1296 C1294 1.417 . S
C1296 C1300 1.432 . S
H1297 C1302 0.930 . S
N1298 Tb1260 2.600 . S
N1298 C1300 1.359 . S
N1298 C1301 1.327 . S
C1299 H1285 0.931 . S
C1299 C1301 1.392 . S
C1299 C1302 1.370 . S
C1300 C1296 1.432 . S
C1300 N1298 1.359 . S
C1300 C1303 1.414 . S
C1301 H1283 0.930 . S
C1301 N1298 1.327 . S
C1301 C1299 1.392 . S
C1302 H1297 0.930 . S
C1302 C1299 1.370 . S
C1302 C1303 1.385 . S
C1303 C1300 1.414 . S
C1303 C1302 1.385 . S
C1303 C1325 1.444 . S
O1304 Tb1260 2.546 . S
O1304 C1324 1.251 . S
O1305 Tb1260 2.610 . S
O1305 Tb1271 2.362 . S
O1305 C1316 1.283 . S
O1306 Tb1271 2.421 . S
O1306 C1323 1.262 . S
O1307 Tb1260 2.320 . S
O1307 C1323 1.260 . S
O1308 Tb1260 2.552 . S
O1308 C1316 1.243 . S
O1309 Tb1260 2.413 . S
O1309 C1324 1.256 . S
O1310 Tb1271 2.546 . S
O1310 C1335 1.251 . S
O1311 Tb1260 2.362 . S
O1311 Tb1271 2.610 . S
O1311 C1327 1.283 . S
O1312 Tb1260 2.421 . S
O1312 C1334 1.262 . S
O1313 Tb1271 2.320 . S
O1313 C1334 1.260 . S
O1314 Tb1271 2.552 . S
O1314 C1327 1.243 . S
O1315 Tb1271 2.413 . S
O1315 C1335 1.256 . S
C1316 O1305 1.283 . S
C1316 O1308 1.243 . S
C1317 C1319 1.382 . S
C1317 C1321 1.393 . S
C1317 C1324 1.500 . S
C1318 C1319 1.400 . S
C1318 C1320 1.384 . S
C1319 C1317 1.382 . S
C1319 C1318 1.400 . S
C1319 H1336 0.930 . S
C1320 C1318 1.384 . S
C1320 C1322 1.392 . S
C1320 H1337 0.931 . S
C1321 C1317 1.393 . S
C1321 C1322 1.401 . S
C1321 H1338 0.930 . S
C1322 C1320 1.392 . S
C1322 C1321 1.401 . S
C1322 H1339 0.930 . S
C1323 O1306 1.262 . S
C1323 O1307 1.260 . S
C1324 Tb1260 2.833 . S
C1324 O1304 1.251 . S
C1324 O1309 1.256 . S
C1324 C1317 1.500 . S
C1325 H1290 0.929 . S
C1325 C1303 1.444 . S
C1325 C1326 1.317 . S
C1326 H1288 0.930 . S
C1326 C1294 1.432 . S
C1326 C1325 1.317 . S
C1327 O1311 1.283 . S
C1327 O1314 1.243 . S
C1328 C1329 1.382 . S
C1328 C1332 1.393 . S
C1328 C1335 1.500 . S
C1329 C1328 1.382 . S
C1329 C1330 1.400 . S
C1329 H1340 0.930 . S
C1330 C1329 1.400 . S
C1330 C1331 1.384 . S
C1331 C1330 1.384 . S
C1331 C1333 1.392 . S
C1331 H1341 0.931 1_655 S
C1332 C1328 1.393 . S
C1332 C1333 1.401 . S
C1332 H1342 0.930 . S
C1333 C1331 1.392 . S
C1333 C1332 1.401 . S
C1333 H1343 0.930 . S
C1334 O1312 1.262 . S
C1334 O1313 1.260 . S
C1335 Tb1271 2.833 . S
C1335 O1310 1.251 . S
C1335 O1315 1.256 . S
C1335 C1328 1.500 . S
H1336 C1319 0.930 . S
H1337 C1320 0.931 . S
H1338 C1321 0.930 . S
H1339 C1322 0.930 . S
H1340 C1329 0.930 . S
H1341 C1331 0.931 1_455 S
H1342 C1332 0.930 . S
H1343 C1333 0.930 . S
Tb1344 N1375 2.660 . S
Tb1344 N1382 2.600 . S
Tb1344 O1388 2.546 . S
Tb1344 O1389 2.610 . S
Tb1344 O1391 2.320 . S
Tb1344 O1392 2.552 . S
Tb1344 O1393 2.413 . S
Tb1344 O1395 2.362 . S
Tb1344 O1396 2.421 . S
Tb1344 C1408 2.833 . S
C1345 C1348 1.432 . S
C1345 C1349 1.414 . S
C1345 N1352 1.359 . S
C1346 C1348 1.417 . S
C1346 C1350 1.432 . S
C1346 C1358 1.410 . S
C1347 C1349 1.444 . S
C1347 C1350 1.317 . S
C1347 H1370 0.929 . S
C1348 C1345 1.432 . S
C1348 C1346 1.417 . S
C1348 N1356 1.360 . S
C1349 C1345 1.414 . S
C1349 C1347 1.444 . S
C1349 C1354 1.385 . S
C1350 C1346 1.432 . S
C1350 C1347 1.317 . S
C1350 H1362 0.930 . S
C1351 C1353 1.392 . S
C1351 C1354 1.370 . S
C1351 H1363 0.931 . S
N1352 C1345 1.359 . S
N1352 C1353 1.327 . S
N1352 Tb1355 2.600 . S
C1353 C1351 1.392 . S
C1353 N1352 1.327 . S
C1353 H1360 0.930 . S
C1354 C1349 1.385 . S
C1354 C1351 1.370 . S
C1354 H1373 0.930 . S
Tb1355 N1352 2.600 . S
Tb1355 N1356 2.660 . S
Tb1355 O1389 2.362 . S
Tb1355 O1390 2.421 . S
Tb1355 O1394 2.546 . S
Tb1355 O1395 2.610 . S
Tb1355 O1397 2.320 . S
Tb1355 O1398 2.552 . S
Tb1355 O1399 2.413 . S
Tb1355 C1419 2.833 . S
N1356 C1348 1.360 . S
N1356 Tb1355 2.660 . S
N1356 C1357 1.305 . S
C1357 N1356 1.305 . S
C1357 C1359 1.407 . S
C1357 H1364 0.930 . S
C1358 C1346 1.410 . S
C1358 C1359 1.345 . S
C1358 H1366 0.930 . S
C1359 C1357 1.407 . S
C1359 C1358 1.345 . S
C1359 H1361 0.930 . S
H1360 C1353 0.930 . S
H1361 C1359 0.930 . S
H1362 C1350 0.930 . S
H1363 C1351 0.931 . S
H1364 C1357 0.930 . S
H1365 C1379 0.930 . S
H1366 C1358 0.930 . S
H1367 C1385 0.930 . S
H1368 C1376 0.930 . S
H1369 C1383 0.931 . S
H1370 C1347 0.929 . S
H1371 C1377 0.930 . S
H1372 C1410 0.930 . S
H1373 C1354 0.930 . S
H1374 C1409 0.929 . S
N1375 Tb1344 2.660 . S
N1375 C1376 1.305 . S
N1375 C1380 1.360 . S
C1376 H1368 0.930 . S
C1376 N1375 1.305 . S
C1376 C1379 1.407 . S
C1377 H1371 0.930 . S
C1377 C1378 1.410 . S
C1377 C1379 1.345 . S
C1378 C1377 1.410 . S
C1378 C1380 1.417 . S
C1378 C1410 1.432 . S
C1379 H1365 0.930 . S
C1379 C1376 1.407 . S
C1379 C1377 1.345 . S
C1380 N1375 1.360 . S
C1380 C1378 1.417 . S
C1380 C1384 1.432 . S
H1381 C1386 0.930 . S
N1382 Tb1344 2.600 . S
N1382 C1384 1.359 . S
N1382 C1385 1.327 . S
C1383 H1369 0.931 . S
C1383 C1385 1.392 . S
C1383 C1386 1.370 . S
C1384 C1380 1.432 . S
C1384 N1382 1.359 . S
C1384 C1387 1.414 . S
C1385 H1367 0.930 . S
C1385 N1382 1.327 . S
C1385 C1383 1.392 . S
C1386 H1381 0.930 . S
C1386 C1383 1.370 . S
C1386 C1387 1.385 . S
C1387 C1384 1.414 . S
C1387 C1386 1.385 . S
C1387 C1409 1.444 . S
O1388 Tb1344 2.546 . S
O1388 C1408 1.251 . S
O1389 Tb1344 2.610 . S
O1389 Tb1355 2.362 . S
O1389 C1400 1.283 . S
O1390 Tb1355 2.421 . S
O1390 C1407 1.262 . S
O1391 Tb1344 2.320 . S
O1391 C1407 1.260 . S
O1392 Tb1344 2.552 . S
O1392 C1400 1.243 . S
O1393 Tb1344 2.413 . S
O1393 C1408 1.256 . S
O1394 Tb1355 2.546 . S
O1394 C1419 1.251 . S
O1395 Tb1344 2.362 . S
O1395 Tb1355 2.610 . S
O1395 C1411 1.283 . S
O1396 Tb1344 2.421 . S
O1396 C1418 1.262 . S
O1397 Tb1355 2.320 . S
O1397 C1418 1.260 . S
O1398 Tb1355 2.552 . S
O1398 C1411 1.243 . S
O1399 Tb1355 2.413 . S
O1399 C1419 1.256 . S
C1400 O1389 1.283 . S
C1400 O1392 1.243 . S
C1401 C1403 1.382 . S
C1401 C1405 1.393 . S
C1401 C1408 1.500 . S
C1402 C1403 1.400 . S
C1402 C1404 1.384 . S
C1403 C1401 1.382 . S
C1403 C1402 1.400 . S
C1403 H1420 0.930 . S
C1404 C1402 1.384 . S
C1404 C1406 1.392 . S
C1404 H1421 0.931 . S
C1405 C1401 1.393 . S
C1405 C1406 1.401 . S
C1405 H1422 0.930 . S
C1406 C1404 1.392 . S
C1406 C1405 1.401 . S
C1406 H1423 0.930 . S
C1407 O1390 1.262 . S
C1407 O1391 1.260 . S
C1408 Tb1344 2.833 . S
C1408 O1388 1.251 . S
C1408 O1393 1.256 . S
C1408 C1401 1.500 . S
C1409 H1374 0.929 . S
C1409 C1387 1.444 . S
C1409 C1410 1.317 . S
C1410 H1372 0.930 . S
C1410 C1378 1.432 . S
C1410 C1409 1.317 . S
C1411 O1395 1.283 . S
C1411 O1398 1.243 . S
C1412 C1413 1.382 . S
C1412 C1416 1.393 . S
C1412 C1419 1.500 . S
C1413 C1412 1.382 . S
C1413 C1414 1.400 . S
C1413 H1424 0.930 . S
C1414 C1413 1.400 . S
C1414 C1415 1.384 . S
C1415 C1414 1.384 . S
C1415 C1417 1.392 . S
C1415 H1425 0.931 . S
C1416 C1412 1.393 . S
C1416 C1417 1.401 . S
C1416 H1426 0.930 . S
C1417 C1415 1.392 . S
C1417 C1416 1.401 . S
C1417 H1427 0.930 . S
C1418 O1396 1.262 . S
C1418 O1397 1.260 . S
C1419 Tb1355 2.833 . S
C1419 O1394 1.251 . S
C1419 O1399 1.256 . S
C1419 C1412 1.500 . S
H1420 C1403 0.930 . S
H1421 C1404 0.931 . S
H1422 C1405 0.930 . S
H1423 C1406 0.930 . S
H1424 C1413 0.930 . S
H1425 C1415 0.931 . S
H1426 C1416 0.930 . S
H1427 C1417 0.930 . S
Tb1428 N1459 2.660 . S
Tb1428 N1466 2.600 . S
Tb1428 O1472 2.546 . S
Tb1428 O1473 2.610 . S
Tb1428 O1475 2.320 . S
Tb1428 O1476 2.552 . S
Tb1428 O1477 2.413 . S
Tb1428 O1479 2.362 . S
Tb1428 O1480 2.421 . S
Tb1428 C1492 2.833 . S
C1429 C1432 1.432 . S
C1429 C1433 1.414 . S
C1429 N1436 1.359 . S
C1430 C1432 1.417 . S
C1430 C1434 1.432 . S
C1430 C1442 1.410 . S
C1431 C1433 1.444 . S
C1431 C1434 1.317 . S
C1431 H1454 0.929 . S
C1432 C1429 1.432 . S
C1432 C1430 1.417 . S
C1432 N1440 1.360 . S
C1433 C1429 1.414 . S
C1433 C1431 1.444 . S
C1433 C1438 1.385 . S
C1434 C1430 1.432 . S
C1434 C1431 1.317 . S
C1434 H1446 0.930 . S
C1435 C1437 1.392 . S
C1435 C1438 1.370 . S
C1435 H1447 0.931 . S
N1436 C1429 1.359 . S
N1436 C1437 1.327 . S
N1436 Tb1439 2.600 . S
C1437 C1435 1.392 . S
C1437 N1436 1.327 . S
C1437 H1444 0.930 . S
C1438 C1433 1.385 . S
C1438 C1435 1.370 . S
C1438 H1457 0.930 . S
Tb1439 N1436 2.600 . S
Tb1439 N1440 2.660 . S
Tb1439 O1473 2.362 . S
Tb1439 O1474 2.421 . S
Tb1439 O1478 2.546 . S
Tb1439 O1479 2.610 . S
Tb1439 O1481 2.320 . S
Tb1439 O1482 2.552 . S
Tb1439 O1483 2.413 . S
Tb1439 C1503 2.833 . S
N1440 C1432 1.360 . S
N1440 Tb1439 2.660 . S
N1440 C1441 1.305 . S
C1441 N1440 1.305 . S
C1441 C1443 1.407 . S
C1441 H1448 0.930 . S
C1442 C1430 1.410 . S
C1442 C1443 1.345 . S
C1442 H1450 0.930 . S
C1443 C1441 1.407 . S
C1443 C1442 1.345 . S
C1443 H1445 0.930 . S
H1444 C1437 0.930 . S
H1445 C1443 0.930 . S
H1446 C1434 0.930 . S
H1447 C1435 0.931 . S
H1448 C1441 0.930 . S
H1449 C1463 0.930 . S
H1450 C1442 0.930 . S
H1451 C1469 0.930 . S
H1452 C1460 0.930 . S
H1453 C1467 0.931 . S
H1454 C1431 0.929 . S
H1455 C1461 0.930 . S
H1456 C1494 0.930 . S
H1457 C1438 0.930 . S
H1458 C1493 0.929 . S
N1459 Tb1428 2.660 . S
N1459 C1460 1.305 . S
N1459 C1464 1.360 . S
C1460 H1452 0.930 . S
C1460 N1459 1.305 . S
C1460 C1463 1.407 . S
C1461 H1455 0.930 . S
C1461 C1462 1.410 . S
C1461 C1463 1.345 . S
C1462 C1461 1.410 . S
C1462 C1464 1.417 . S
C1462 C1494 1.432 . S
C1463 H1449 0.930 . S
C1463 C1460 1.407 . S
C1463 C1461 1.345 . S
C1464 N1459 1.360 . S
C1464 C1462 1.417 . S
C1464 C1468 1.432 . S
H1465 C1470 0.930 . S
N1466 Tb1428 2.600 . S
N1466 C1468 1.359 . S
N1466 C1469 1.327 . S
C1467 H1453 0.931 . S
C1467 C1469 1.392 . S
C1467 C1470 1.370 . S
C1468 C1464 1.432 . S
C1468 N1466 1.359 . S
C1468 C1471 1.414 . S
C1469 H1451 0.930 . S
C1469 N1466 1.327 . S
C1469 C1467 1.392 . S
C1470 H1465 0.930 . S
C1470 C1467 1.370 . S
C1470 C1471 1.385 . S
C1471 C1468 1.414 . S
C1471 C1470 1.385 . S
C1471 C1493 1.444 . S
O1472 Tb1428 2.546 . S
O1472 C1492 1.251 . S
O1473 Tb1428 2.610 . S
O1473 Tb1439 2.362 . S
O1473 C1484 1.283 . S
O1474 Tb1439 2.421 . S
O1474 C1491 1.262 . S
O1475 Tb1428 2.320 . S
O1475 C1491 1.260 . S
O1476 Tb1428 2.552 . S
O1476 C1484 1.243 . S
O1477 Tb1428 2.413 . S
O1477 C1492 1.256 . S
O1478 Tb1439 2.546 . S
O1478 C1503 1.251 . S
O1479 Tb1428 2.362 . S
O1479 Tb1439 2.610 . S
O1479 C1495 1.283 . S
O1480 Tb1428 2.421 . S
O1480 C1502 1.262 . S
O1481 Tb1439 2.320 . S
O1481 C1502 1.260 . S
O1482 Tb1439 2.552 . S
O1482 C1495 1.243 . S
O1483 Tb1439 2.413 . S
O1483 C1503 1.256 . S
C1484 O1473 1.283 . S
C1484 O1476 1.243 . S
C1485 C1487 1.382 . S
C1485 C1489 1.393 . S
C1485 C1492 1.500 . S
C1486 C1487 1.400 . S
C1486 C1488 1.384 1_565 S
C1487 C1485 1.382 . S
C1487 C1486 1.400 . S
C1487 H1504 0.930 . S
C1488 C1486 1.384 1_545 S
C1488 C1490 1.392 . S
C1488 H1505 0.931 . S
C1489 C1485 1.393 . S
C1489 C1490 1.401 1_565 S
C1489 H1506 0.930 . S
C1490 C1488 1.392 . S
C1490 C1489 1.401 1_545 S
C1490 H1507 0.930 . S
C1491 O1474 1.262 . S
C1491 O1475 1.260 . S
C1492 Tb1428 2.833 . S
C1492 O1472 1.251 . S
C1492 O1477 1.256 . S
C1492 C1485 1.500 . S
C1493 H1458 0.929 . S
C1493 C1471 1.444 . S
C1493 C1494 1.317 . S
C1494 H1456 0.930 . S
C1494 C1462 1.432 . S
C1494 C1493 1.317 . S
C1495 O1479 1.283 . S
C1495 O1482 1.243 . S
C1496 C1497 1.382 . S
C1496 C1500 1.393 . S
C1496 C1503 1.500 . S
C1497 C1496 1.382 . S
C1497 C1498 1.400 . S
C1497 H1508 0.930 . S
C1498 C1497 1.400 . S
C1498 C1499 1.384 . S
C1499 C1498 1.384 . S
C1499 C1501 1.392 . S
C1499 H1509 0.931 . S
C1500 C1496 1.393 . S
C1500 C1501 1.401 . S
C1500 H1510 0.930 . S
C1501 C1499 1.392 . S
C1501 C1500 1.401 . S
C1501 H1511 0.930 . S
C1502 O1480 1.262 . S
C1502 O1481 1.260 . S
C1503 Tb1439 2.833 . S
C1503 O1478 1.251 . S
C1503 O1483 1.256 . S
C1503 C1496 1.500 . S
H1504 C1487 0.930 . S
H1505 C1488 0.931 . S
H1506 C1489 0.930 . S
H1507 C1490 0.930 . S
H1508 C1497 0.930 . S
H1509 C1499 0.931 . S
H1510 C1500 0.930 . S
H1511 C1501 0.930 . S
Tb1512 N1543 2.660 . S
Tb1512 N1550 2.600 . S
Tb1512 O1556 2.546 . S
Tb1512 O1557 2.610 . S
Tb1512 O1559 2.320 . S
Tb1512 O1560 2.552 . S
Tb1512 O1561 2.413 . S
Tb1512 O1563 2.362 . S
Tb1512 O1564 2.421 . S
Tb1512 C1576 2.833 . S
C1513 C1516 1.432 . S
C1513 C1517 1.414 . S
C1513 N1520 1.359 . S
C1514 C1516 1.417 . S
C1514 C1518 1.432 . S
C1514 C1526 1.410 . S
C1515 C1517 1.444 . S
C1515 C1518 1.317 . S
C1515 H1538 0.929 . S
C1516 C1513 1.432 . S
C1516 C1514 1.417 . S
C1516 N1524 1.360 . S
C1517 C1513 1.414 . S
C1517 C1515 1.444 . S
C1517 C1522 1.385 . S
C1518 C1514 1.432 . S
C1518 C1515 1.317 . S
C1518 H1530 0.930 . S
C1519 C1521 1.392 . S
C1519 C1522 1.370 . S
C1519 H1531 0.931 . S
N1520 C1513 1.359 . S
N1520 C1521 1.327 . S
N1520 Tb1523 2.600 . S
C1521 C1519 1.392 . S
C1521 N1520 1.327 . S
C1521 H1528 0.930 . S
C1522 C1517 1.385 . S
C1522 C1519 1.370 . S
C1522 H1541 0.930 . S
Tb1523 N1520 2.600 . S
Tb1523 N1524 2.660 . S
Tb1523 O1557 2.362 . S
Tb1523 O1558 2.421 . S
Tb1523 O1562 2.546 . S
Tb1523 O1563 2.610 . S
Tb1523 O1565 2.320 . S
Tb1523 O1566 2.552 . S
Tb1523 O1567 2.413 . S
Tb1523 C1587 2.833 . S
N1524 C1516 1.360 . S
N1524 Tb1523 2.660 . S
N1524 C1525 1.305 . S
C1525 N1524 1.305 . S
C1525 C1527 1.407 . S
C1525 H1532 0.930 . S
C1526 C1514 1.410 . S
C1526 C1527 1.345 . S
C1526 H1534 0.930 . S
C1527 C1525 1.407 . S
C1527 C1526 1.345 . S
C1527 H1529 0.930 . S
H1528 C1521 0.930 . S
H1529 C1527 0.930 . S
H1530 C1518 0.930 . S
H1531 C1519 0.931 . S
H1532 C1525 0.930 . S
H1533 C1547 0.930 . S
H1534 C1526 0.930 . S
H1535 C1553 0.930 . S
H1536 C1544 0.930 . S
H1537 C1551 0.931 . S
H1538 C1515 0.929 . S
H1539 C1545 0.930 . S
H1540 C1578 0.930 . S
H1541 C1522 0.930 . S
H1542 C1577 0.929 . S
N1543 Tb1512 2.660 . S
N1543 C1544 1.305 . S
N1543 C1548 1.360 . S
C1544 H1536 0.930 . S
C1544 N1543 1.305 . S
C1544 C1547 1.407 . S
C1545 H1539 0.930 . S
C1545 C1546 1.410 . S
C1545 C1547 1.345 . S
C1546 C1545 1.410 . S
C1546 C1548 1.417 . S
C1546 C1578 1.432 . S
C1547 H1533 0.930 . S
C1547 C1544 1.407 . S
C1547 C1545 1.345 . S
C1548 N1543 1.360 . S
C1548 C1546 1.417 . S
C1548 C1552 1.432 . S
H1549 C1554 0.930 . S
N1550 Tb1512 2.600 . S
N1550 C1552 1.359 . S
N1550 C1553 1.327 . S
C1551 H1537 0.931 . S
C1551 C1553 1.392 . S
C1551 C1554 1.370 . S
C1552 C1548 1.432 . S
C1552 N1550 1.359 . S
C1552 C1555 1.414 . S
C1553 H1535 0.930 . S
C1553 N1550 1.327 . S
C1553 C1551 1.392 . S
C1554 H1549 0.930 . S
C1554 C1551 1.370 . S
C1554 C1555 1.385 . S
C1555 C1552 1.414 . S
C1555 C1554 1.385 . S
C1555 C1577 1.444 . S
O1556 Tb1512 2.546 . S
O1556 C1576 1.251 . S
O1557 Tb1512 2.610 . S
O1557 Tb1523 2.362 . S
O1557 C1568 1.283 . S
O1558 Tb1523 2.421 . S
O1558 C1575 1.262 . S
O1559 Tb1512 2.320 . S
O1559 C1575 1.260 . S
O1560 Tb1512 2.552 . S
O1560 C1568 1.243 . S
O1561 Tb1512 2.413 . S
O1561 C1576 1.256 . S
O1562 Tb1523 2.546 . S
O1562 C1587 1.251 . S
O1563 Tb1512 2.362 . S
O1563 Tb1523 2.610 . S
O1563 C1579 1.283 . S
O1564 Tb1512 2.421 . S
O1564 C1586 1.262 . S
O1565 Tb1523 2.320 . S
O1565 C1586 1.260 . S
O1566 Tb1523 2.552 . S
O1566 C1579 1.243 . S
O1567 Tb1523 2.413 . S
O1567 C1587 1.256 . S
C1568 O1557 1.283 . S
C1568 O1560 1.243 . S
C1569 C1571 1.382 . S
C1569 C1573 1.393 . S
C1569 C1576 1.500 . S
C1570 C1571 1.400 . S
C1570 C1572 1.384 . S
C1571 C1569 1.382 . S
C1571 C1570 1.400 . S
C1571 H1588 0.930 . S
C1572 C1570 1.384 . S
C1572 C1574 1.392 . S
C1572 H1589 0.931 . S
C1573 C1569 1.393 . S
C1573 C1574 1.401 . S
C1573 H1590 0.930 . S
C1574 C1572 1.392 . S
C1574 C1573 1.401 . S
C1574 H1591 0.930 . S
C1575 O1558 1.262 . S
C1575 O1559 1.260 . S
C1576 Tb1512 2.833 . S
C1576 O1556 1.251 . S
C1576 O1561 1.256 . S
C1576 C1569 1.500 . S
C1577 H1542 0.929 . S
C1577 C1555 1.444 . S
C1577 C1578 1.317 . S
C1578 H1540 0.930 . S
C1578 C1546 1.432 . S
C1578 C1577 1.317 . S
C1579 O1563 1.283 . S
C1579 O1566 1.243 . S
C1580 C1581 1.382 . S
C1580 C1584 1.393 . S
C1580 C1587 1.500 . S
C1581 C1580 1.382 . S
C1581 C1582 1.400 . S
C1581 H1592 0.930 . S
C1582 C1581 1.400 . S
C1582 C1583 1.384 . S
C1583 C1582 1.384 . S
C1583 C1585 1.392 . S
C1583 H1593 0.931 . S
C1584 C1580 1.393 . S
C1584 C1585 1.401 . S
C1584 H1594 0.930 . S
C1585 C1583 1.392 . S
C1585 C1584 1.401 . S
C1585 H1595 0.930 . S
C1586 O1564 1.262 . S
C1586 O1565 1.260 . S
C1587 Tb1523 2.833 . S
C1587 O1562 1.251 . S
C1587 O1567 1.256 . S
C1587 C1580 1.500 . S
H1588 C1571 0.930 . S
H1589 C1572 0.931 . S
H1590 C1573 0.930 . S
H1591 C1574 0.930 . S
H1592 C1581 0.930 . S
H1593 C1583 0.931 . S
H1594 C1584 0.930 . S
H1595 C1585 0.930 . S
Tb1596 N1627 2.660 1_556 S
Tb1596 N1634 2.600 . S
Tb1596 O1640 2.546 . S
Tb1596 O1641 2.610 1_556 S
Tb1596 O1643 2.320 1_556 S
Tb1596 O1644 2.552 . S
Tb1596 O1645 2.413 1_556 S
Tb1596 O1647 2.362 1_556 S
Tb1596 O1648 2.421 . S
Tb1596 C1660 2.833 . S
C1597 C1600 1.432 . S
C1597 C1601 1.414 . S
C1597 N1604 1.359 1_655 S
C1598 C1600 1.417 . S
C1598 C1602 1.432 . S
C1598 C1610 1.410 1_554 S
C1599 C1601 1.444 . S
C1599 C1602 1.317 . S
C1599 H1622 0.929 . S
C1600 C1597 1.432 . S
C1600 C1598 1.417 . S
C1600 N1608 1.360 . S
C1601 C1597 1.414 . S
C1601 C1599 1.444 . S
C1601 C1606 1.385 . S
C1602 C1598 1.432 . S
C1602 C1599 1.317 . S
C1602 H1614 0.930 . S
C1603 C1605 1.392 . S
C1603 C1606 1.370 1_455 S
C1603 H1615 0.931 . S
N1604 C1597 1.359 1_455 S
N1604 C1605 1.327 . S
N1604 Tb1607 2.600 . S
C1605 C1603 1.392 . S
C1605 N1604 1.327 . S
C1605 H1612 0.930 . S
C1606 C1601 1.385 . S
C1606 C1603 1.370 1_655 S
C1606 H1625 0.930 . S
Tb1607 N1604 2.600 . S
Tb1607 N1608 2.660 1_455 S
Tb1607 O1641 2.362 . S
Tb1607 O1642 2.421 . S
Tb1607 O1646 2.546 . S
Tb1607 O1647 2.610 . S
Tb1607 O1649 2.320 1_554 S
Tb1607 O1650 2.552 . S
Tb1607 O1651 2.413 1_455 S
Tb1607 C1671 2.833 1_455 S
N1608 C1600 1.360 . S
N1608 Tb1607 2.660 1_655 S
N1608 C1609 1.305 1_554 S
C1609 N1608 1.305 1_556 S
C1609 C1611 1.407 . S
C1609 H1616 0.930 . S
C1610 C1598 1.410 1_556 S
C1610 C1611 1.345 . S
C1610 H1618 0.930 . S
C1611 C1609 1.407 . S
C1611 C1610 1.345 . S
C1611 H1613 0.930 . S
H1612 C1605 0.930 . S
H1613 C1611 0.930 . S
H1614 C1602 0.930 . S
H1615 C1603 0.931 . S
H1616 C1609 0.930 . S
H1617 C1631 0.930 . S
H1618 C1610 0.930 . S
H1619 C1637 0.930 . S
H1620 C1628 0.930 . S
H1621 C1635 0.931 . S
H1622 C1599 0.929 . S
H1623 C1629 0.930 . S
H1624 C1662 0.930 . S
H1625 C1606 0.930 . S
H1626 C1661 0.929 . S
N1627 Tb1596 2.660 1_554 S
N1627 C1628 1.305 . S
N1627 C1632 1.365 . S
C1628 H1620 0.930 . S
C1628 N1627 1.305 . S
C1628 C1631 1.407 . S
C1629 H1623 0.930 . S
C1629 C1630 1.410 . S
C1629 C1631 1.345 . S
C1630 C1629 1.410 . S
C1630 C1632 1.417 . S
C1630 C1662 1.432 1_554 S
C1631 H1617 0.930 . S
C1631 C1628 1.407 . S
C1631 C1629 1.345 . S
C1632 N1627 1.365 . S
C1632 C1630 1.417 . S
C1632 C1636 1.426 1_554 S
H1633 C1638 0.930 . S
N1634 Tb1596 2.600 . S
N1634 C1636 1.359 . S
N1634 C1637 1.327 . S
C1635 H1621 0.931 . S
C1635 C1637 1.392 . S
C1635 C1638 1.370 . S
C1636 C1632 1.426 1_556 S
C1636 N1634 1.359 . S
C1636 C1639 1.414 . S
C1637 H1619 0.930 . S
C1637 N1634 1.327 . S
C1637 C1635 1.392 . S
C1638 H1633 0.930 . S
C1638 C1635 1.370 . S
C1638 C1639 1.385 . S
C1639 C1636 1.414 . S
C1639 C1638 1.385 . S
C1639 C1661 1.444 . S
O1640 Tb1596 2.546 . S
O1640 C1660 1.251 . S
O1641 Tb1596 2.610 1_554 S
O1641 Tb1607 2.362 . S
O1641 C1652 1.283 . S
O1642 Tb1607 2.421 . S
O1642 C1659 1.262 . S
O1643 Tb1596 2.320 1_554 S
O1643 C1659 1.260 . S
O1644 Tb1596 2.552 . S
O1644 C1652 1.243 1_556 S
O1645 Tb1596 2.413 1_554 S
O1645 C1660 1.256 1_554 S
O1646 Tb1607 2.546 . S
O1646 C1671 1.251 1_455 S
O1647 Tb1596 2.362 1_554 S
O1647 Tb1607 2.610 . S
O1647 C1663 1.283 . S
O1648 Tb1596 2.421 . S
O1648 C1670 1.262 . S
O1649 Tb1607 2.320 1_556 S
O1649 C1670 1.260 . S
O1650 Tb1607 2.552 . S
O1650 C1663 1.243 . S
O1651 Tb1607 2.413 1_655 S
O1651 C1671 1.256 . S
C1652 O1641 1.283 . S
C1652 O1644 1.243 1_554 S
C1653 C1655 1.382 . S
C1653 C1657 1.393 . S
C1653 C1660 1.500 . S
C1654 C1655 1.400 . S
C1654 C1656 1.384 . S
C1655 C1653 1.382 . S
C1655 C1654 1.400 . S
C1655 H1672 0.930 1_556 S
C1656 C1654 1.384 . S
C1656 C1658 1.392 . S
C1656 H1673 0.931 . S
C1657 C1653 1.393 . S
C1657 C1658 1.401 . S
C1657 H1674 0.930 . S
C1658 C1656 1.392 . S
C1658 C1657 1.401 . S
C1658 H1675 0.930 . S
C1659 O1642 1.262 . S
C1659 O1643 1.260 . S
C1660 Tb1596 2.833 . S
C1660 O1640 1.251 . S
C1660 O1645 1.256 1_556 S
C1660 C1653 1.500 . S
C1661 H1626 0.929 . S
C1661 C1639 1.444 . S
C1661 C1662 1.317 . S
C1662 H1624 0.930 . S
C1662 C1630 1.432 1_556 S
C1662 C1661 1.317 . S
C1663 O1647 1.283 . S
C1663 O1650 1.243 . S
C1664 C1665 1.382 . S
C1664 C1668 1.393 . S
C1664 C1671 1.500 . S
C1665 C1664 1.382 . S
C1665 C1666 1.400 . S
C1665 H1676 0.930 . S
C1666 C1665 1.400 . S
C1666 C1667 1.384 . S
C1667 C1666 1.384 . S
C1667 C1669 1.392 . S
C1667 H1677 0.931 . S
C1668 C1664 1.393 . S
C1668 C1669 1.401 . S
C1668 H1678 0.930 . S
C1669 C1667 1.392 . S
C1669 C1668 1.401 . S
C1669 H1679 0.930 . S
C1670 O1648 1.262 . S
C1670 O1649 1.260 . S
C1671 Tb1607 2.833 1_655 S
C1671 O1646 1.251 1_655 S
C1671 O1651 1.256 . S
C1671 C1664 1.500 . S
H1672 C1655 0.930 1_554 S
H1673 C1656 0.931 . S
H1674 C1657 0.930 . S
H1675 C1658 0.930 . S
H1676 C1665 0.930 . S
H1677 C1667 0.931 . S
H1678 C1668 0.930 . S
H1679 C1669 0.930 . S
C1680 C1681 1.363 . S
C1680 C1686 1.379 . S
C1680 N1688 1.350 1_455 S
C1681 C1680 1.363 . S
C1681 C1687 1.363 1_556 S
C1682 C1683 1.363 . S
C1682 C1687 1.379 . S
C1682 N1689 1.356 . S
C1683 C1682 1.363 . S
C1683 C1686 1.363 1_554 S
N1684 C1686 1.356 . S
N1684 H1696 0.984 . S
N1684 H1697 0.985 . S
N1685 C1687 1.356 . S
N1685 H1690 0.984 . S
N1685 H1691 0.985 . S
C1686 C1680 1.379 . S
C1686 C1683 1.363 1_556 S
C1686 N1684 1.356 . S
C1687 C1681 1.363 1_554 S
C1687 C1682 1.379 . S
C1687 N1685 1.356 . S
N1688 C1680 1.350 1_655 S
N1688 H1694 0.987 . S
N1688 H1695 0.989 . S
N1689 C1682 1.356 . S
N1689 H1692 0.984 . S
N1689 H1693 0.985 . S
H1690 N1685 0.984 . S
H1691 N1685 0.985 . S
H1692 N1689 0.984 . S
H1693 N1689 0.985 . S
H1694 N1688 0.987 . S
H1695 N1688 0.989 . S
H1696 N1684 0.984 . S
H1697 N1684 0.985 . S
C1698 C1699 1.363 . S
C1698 C1704 1.379 . S
C1698 N1706 1.356 . S
C1699 C1698 1.363 . S
C1699 C1705 1.363 . S
C1700 C1701 1.363 . S
C1700 C1705 1.379 . S
C1700 N1707 1.356 . S
C1701 C1700 1.363 . S
C1701 C1704 1.363 . S
N1702 C1704 1.356 . S
N1702 H1714 0.984 . S
N1702 H1715 0.985 . S
N1703 C1705 1.356 . S
N1703 H1708 0.984 . S
N1703 H1709 0.985 . S
C1704 C1698 1.379 . S
C1704 C1701 1.363 . S
C1704 N1702 1.356 . S
C1705 C1699 1.363 . S
C1705 C1700 1.379 . S
C1705 N1703 1.356 . S
N1706 C1698 1.356 . S
N1706 H1712 0.984 . S
N1706 H1713 0.984 . S
N1707 C1700 1.356 . S
N1707 H1710 0.984 . S
N1707 H1711 0.985 . S
H1708 N1703 0.984 . S
H1709 N1703 0.985 . S
H1710 N1707 0.984 . S
H1711 N1707 0.985 . S
H1712 N1706 0.984 . S
H1713 N1706 0.984 . S
H1714 N1702 0.984 . S
H1715 N1702 0.985 . S
C1716 C1717 1.363 . S
C1716 C1722 1.379 . S
C1716 N1724 1.356 . S
C1717 C1716 1.363 . S
C1717 C1723 1.363 . S
C1718 C1719 1.363 . S
C1718 C1723 1.379 . S
C1718 N1725 1.356 . S
C1719 C1718 1.363 . S
C1719 C1722 1.363 . S
N1720 C1722 1.356 . S
N1720 H1732 0.984 . S
N1720 H1733 0.985 . S
N1721 C1723 1.356 . S
N1721 H1726 0.984 . S
N1721 H1727 0.985 . S
C1722 C1716 1.379 . S
C1722 C1719 1.363 . S
C1722 N1720 1.356 . S
C1723 C1717 1.363 . S
C1723 C1718 1.379 . S
C1723 N1721 1.356 . S
N1724 C1716 1.356 . S
N1724 H1730 0.984 . S
N1724 H1731 0.984 . S
N1725 C1718 1.356 . S
N1725 H1728 0.984 . S
N1725 H1729 0.985 . S
H1726 N1721 0.984 . S
H1727 N1721 0.985 . S
H1728 N1725 0.984 . S
H1729 N1725 0.985 . S
H1730 N1724 0.984 . S
H1731 N1724 0.984 . S
H1732 N1720 0.984 . S
H1733 N1720 0.985 . S
C1734 C1735 1.363 . S
C1734 C1740 1.379 . S
C1734 N1742 1.356 . S
C1735 C1734 1.363 . S
C1735 C1741 1.363 . S
C1736 C1737 1.363 . S
C1736 C1741 1.379 . S
C1736 N1743 1.356 . S
C1737 C1736 1.363 . S
C1737 C1740 1.363 . S
N1738 C1740 1.356 . S
N1738 H1750 0.984 . S
N1738 H1751 0.985 . S
N1739 C1741 1.356 . S
N1739 H1744 0.984 . S
N1739 H1745 0.985 . S
C1740 C1734 1.379 . S
C1740 C1737 1.363 . S
C1740 N1738 1.356 . S
C1741 C1735 1.363 . S
C1741 C1736 1.379 . S
C1741 N1739 1.356 . S
N1742 C1734 1.356 . S
N1742 H1748 0.984 . S
N1742 H1749 0.984 . S
N1743 C1736 1.356 . S
N1743 H1746 0.984 . S
N1743 H1747 0.985 . S
H1744 N1739 0.984 . S
H1745 N1739 0.985 . S
H1746 N1743 0.984 . S
H1747 N1743 0.985 . S
H1748 N1742 0.984 . S
H1749 N1742 0.984 . S
H1750 N1738 0.984 . S
H1751 N1738 0.985 . S
C1752 C1753 1.363 . S
C1752 C1758 1.379 . S
C1752 N1760 1.356 1_455 S
C1753 C1752 1.363 . S
C1753 C1759 1.363 . S
C1754 C1755 1.363 . S
C1754 C1759 1.379 . S
C1754 N1761 1.356 . S
C1755 C1754 1.363 . S
C1755 C1758 1.363 . S
N1756 C1758 1.356 . S
N1756 H1768 0.984 . S
N1756 H1769 0.985 . S
N1757 C1759 1.356 . S
N1757 H1762 0.984 . S
N1757 H1763 0.985 . S
C1758 C1752 1.379 . S
C1758 C1755 1.363 . S
C1758 N1756 1.356 . S
C1759 C1753 1.363 . S
C1759 C1754 1.379 . S
C1759 N1757 1.356 . S
N1760 C1752 1.356 1_655 S
N1760 H1766 0.984 . S
N1760 H1767 0.984 . S
N1761 C1754 1.356 . S
N1761 H1764 0.984 . S
N1761 H1765 0.985 . S
H1762 N1757 0.984 . S
H1763 N1757 0.985 . S
H1764 N1761 0.984 . S
H1765 N1761 0.985 . S
H1766 N1760 0.984 . S
H1767 N1760 0.984 . S
H1768 N1756 0.984 . S
H1769 N1756 0.985 . S
C1770 C1771 1.363 . S
C1770 C1776 1.379 . S
C1770 N1778 1.356 . S
C1771 C1770 1.363 . S
C1771 C1777 1.363 . S
C1772 C1773 1.363 . S
C1772 C1777 1.379 . S
C1772 N1779 1.356 . S
C1773 C1772 1.363 . S
C1773 C1776 1.363 . S
N1774 C1776 1.356 . S
N1774 H1786 0.984 . S
N1774 H1787 0.985 . S
N1775 C1777 1.356 . S
N1775 H1780 0.984 . S
N1775 H1781 0.985 . S
C1776 C1770 1.379 . S
C1776 C1773 1.363 . S
C1776 N1774 1.356 . S
C1777 C1771 1.363 . S
C1777 C1772 1.379 . S
C1777 N1775 1.356 . S
N1778 C1770 1.356 . S
N1778 H1784 0.984 . S
N1778 H1785 0.984 . S
N1779 C1772 1.356 . S
N1779 H1782 0.984 . S
N1779 H1783 0.985 . S
H1780 N1775 0.984 . S
H1781 N1775 0.985 . S
H1782 N1779 0.984 . S
H1783 N1779 0.985 . S
H1784 N1778 0.984 . S
H1785 N1778 0.984 . S
H1786 N1774 0.984 . S
H1787 N1774 0.985 . S
C1788 C1789 1.363 . S
C1788 C1794 1.379 . S
C1788 N1796 1.356 . S
C1789 C1788 1.363 . S
C1789 C1795 1.363 . S
C1790 C1791 1.363 . S
C1790 C1795 1.379 . S
C1790 N1797 1.356 . S
C1791 C1790 1.363 . S
C1791 C1794 1.363 . S
N1792 C1794 1.356 . S
N1792 H1804 0.984 . S
N1792 H1805 0.985 . S
N1793 C1795 1.356 . S
N1793 H1798 0.984 . S
N1793 H1799 0.985 . S
C1794 C1788 1.379 . S
C1794 C1791 1.363 . S
C1794 N1792 1.356 . S
C1795 C1789 1.363 . S
C1795 C1790 1.379 . S
C1795 N1793 1.356 . S
N1796 C1788 1.356 . S
N1796 H1802 0.984 . S
N1796 H1803 0.984 . S
N1797 C1790 1.356 . S
N1797 H1800 0.984 . S
N1797 H1801 0.985 . S
H1798 N1793 0.984 . S
H1799 N1793 0.985 . S
H1800 N1797 0.984 . S
H1801 N1797 0.985 . S
H1802 N1796 0.984 . S
H1803 N1796 0.984 . S
H1804 N1792 0.984 . S
H1805 N1792 0.985 . S
C1806 C1807 1.363 . S
C1806 C1812 1.379 . S
C1806 N1814 1.356 . S
C1807 C1806 1.363 . S
C1807 C1813 1.363 . S
C1808 C1809 1.363 . S
C1808 C1813 1.379 . S
C1808 N1815 1.356 . S
C1809 C1808 1.363 . S
C1809 C1812 1.363 . S
N1810 C1812 1.356 . S
N1810 H1822 0.984 . S
N1810 H1823 0.985 . S
N1811 C1813 1.356 . S
N1811 H1816 0.984 . S
N1811 H1817 0.985 . S
C1812 C1806 1.379 . S
C1812 C1809 1.363 . S
C1812 N1810 1.356 . S
C1813 C1807 1.363 . S
C1813 C1808 1.379 . S
C1813 N1811 1.356 . S
N1814 C1806 1.356 . S
N1814 H1820 0.984 . S
N1814 H1821 0.984 . S
N1815 C1808 1.356 . S
N1815 H1818 0.984 . S
N1815 H1819 0.985 . S
H1816 N1811 0.984 . S
H1817 N1811 0.985 . S
H1818 N1815 0.984 . S
H1819 N1815 0.985 . S
H1820 N1814 0.984 . S
H1821 N1814 0.984 . S
H1822 N1810 0.984 . S
H1823 N1810 0.985 . S
C1824 C1825 1.363 1_655 S
C1824 C1830 1.379 1_655 S
C1824 N1832 1.356 . S
C1825 C1824 1.363 1_455 S
C1825 C1831 1.363 . S
C1826 C1827 1.363 . S
C1826 C1831 1.379 . S
C1826 N1833 1.356 . S
C1827 C1826 1.363 . S
C1827 C1830 1.363 . S
N1828 C1830 1.356 1_655 S
N1828 H1840 0.984 . S
N1828 H1841 0.985 1_655 S
N1829 C1831 1.356 . S
N1829 H1834 0.984 . S
N1829 H1835 0.985 . S
C1830 C1824 1.379 1_455 S
C1830 C1827 1.363 . S
C1830 N1828 1.356 1_455 S
C1831 C1825 1.363 . S
C1831 C1826 1.379 . S
C1831 N1829 1.356 . S
N1832 C1824 1.356 . S
N1832 H1838 0.984 . S
N1832 H1839 0.984 . S
N1833 C1826 1.356 . S
N1833 H1836 0.984 . S
N1833 H1837 0.985 . S
H1834 N1829 0.984 . S
H1835 N1829 0.985 . S
H1836 N1833 0.984 . S
H1837 N1833 0.985 . S
H1838 N1832 0.984 . S
H1839 N1832 0.984 . S
H1840 N1828 0.984 . S
H1841 N1828 0.985 1_455 S
C1842 C1843 1.363 . S
C1842 C1848 1.379 . S
C1842 N1850 1.356 . S
C1843 C1842 1.363 . S
C1843 C1849 1.363 . S
C1844 C1845 1.363 . S
C1844 C1849 1.379 . S
C1844 N1851 1.356 . S
C1845 C1844 1.363 . S
C1845 C1848 1.363 . S
N1846 C1848 1.356 . S
N1846 H1858 0.984 . S
N1846 H1859 0.985 . S
N1847 C1849 1.356 . S
N1847 H1852 0.984 . S
N1847 H1853 0.985 . S
C1848 C1842 1.379 . S
C1848 C1845 1.363 . S
C1848 N1846 1.356 . S
C1849 C1843 1.363 . S
C1849 C1844 1.379 . S
C1849 N1847 1.356 . S
N1850 C1842 1.356 . S
N1850 H1856 0.984 . S
N1850 H1857 0.984 . S
N1851 C1844 1.356 . S
N1851 H1854 0.984 . S
N1851 H1855 0.985 . S
H1852 N1847 0.984 . S
H1853 N1847 0.985 . S
H1854 N1851 0.984 . S
H1855 N1851 0.985 . S
H1856 N1850 0.984 . S
H1857 N1850 0.984 . S
H1858 N1846 0.984 . S
H1859 N1846 0.985 . S
C1860 C1861 1.363 . S
C1860 C1866 1.379 . S
C1860 N1868 1.356 . S
C1861 C1860 1.363 . S
C1861 C1867 1.363 . S
C1862 C1863 1.363 . S
C1862 C1867 1.379 . S
C1862 N1869 1.356 1_545 S
C1863 C1862 1.363 . S
C1863 C1866 1.363 . S
N1864 C1866 1.356 . S
N1864 H1876 0.984 . S
N1864 H1877 0.985 . S
N1865 C1867 1.356 . S
N1865 H1870 0.984 . S
N1865 H1871 0.985 1_545 S
C1866 C1860 1.379 . S
C1866 C1863 1.363 . S
C1866 N1864 1.356 . S
C1867 C1861 1.363 . S
C1867 C1862 1.379 . S
C1867 N1865 1.356 . S
N1868 C1860 1.356 . S
N1868 H1874 0.984 . S
N1868 H1875 0.984 . S
N1869 C1862 1.356 1_565 S
N1869 H1872 0.984 . S
N1869 H1873 0.985 . S
H1870 N1865 0.984 . S
H1871 N1865 0.985 1_565 S
H1872 N1869 0.984 . S
H1873 N1869 0.985 . S
H1874 N1868 0.984 . S
H1875 N1868 0.984 . S
H1876 N1864 0.984 . S
H1877 N1864 0.985 . S
C1878 C1879 1.363 . S
C1878 C1884 1.379 . S
C1878 N1886 1.356 . S
C1879 C1878 1.363 . S
C1879 C1885 1.363 . S
C1880 C1881 1.363 . S
C1880 C1885 1.379 . S
C1880 N1887 1.356 . S
C1881 C1880 1.363 . S
C1881 C1884 1.363 . S
N1882 C1884 1.356 . S
N1882 H1894 0.984 . S
N1882 H1895 0.985 . S
N1883 C1885 1.356 . S
N1883 H1888 0.984 . S
N1883 H1889 0.985 . S
C1884 C1878 1.379 . S
C1884 C1881 1.363 . S
C1884 N1882 1.356 . S
C1885 C1879 1.363 . S
C1885 C1880 1.379 . S
C1885 N1883 1.356 . S
N1886 C1878 1.356 . S
N1886 H1892 0.984 . S
N1886 H1893 0.984 . S
N1887 C1880 1.356 . S
N1887 H1890 0.984 . S
N1887 H1891 0.985 . S
H1888 N1883 0.984 . S
H1889 N1883 0.985 . S
H1890 N1887 0.984 . S
H1891 N1887 0.985 . S
H1892 N1886 0.984 . S
H1893 N1886 0.984 . S
H1894 N1882 0.984 . S
H1895 N1882 0.985 . S
C1896 C1897 1.363 . S
C1896 C1902 1.379 . S
C1896 N1904 1.356 . S
C1897 C1896 1.363 . S
C1897 C1903 1.363 . S
C1898 C1899 1.363 . S
C1898 C1903 1.379 . S
C1898 N1905 1.356 1_545 S
C1899 C1898 1.363 . S
C1899 C1902 1.363 . S
N1900 C1902 1.356 . S
N1900 H1912 0.984 . S
N1900 H1913 0.985 . S
N1901 C1903 1.356 1_655 S
N1901 H1906 0.984 . S
N1901 H1907 0.956 1_545 S
C1902 C1896 1.379 . S
C1902 C1899 1.363 . S
C1902 N1900 1.356 . S
C1903 C1897 1.363 . S
C1903 C1898 1.379 . S
C1903 N1901 1.356 1_455 S
N1904 C1896 1.356 . S
N1904 H1910 0.984 . S
N1904 H1911 0.984 . S
N1905 C1898 1.356 1_565 S
N1905 H1908 0.984 . S
N1905 H1909 0.981 1_455 S
H1906 N1901 0.984 . S
H1907 N1901 0.956 1_565 S
H1908 N1905 0.984 . S
H1909 N1905 0.981 1_655 S
H1910 N1904 0.984 . S
H1911 N1904 0.984 . S
H1912 N1900 0.984 . S
H1913 N1900 0.985 . S
C1914 C1915 1.363 . S
C1914 C1920 1.379 . S
C1914 N1922 1.356 . S
C1915 C1914 1.363 . S
C1915 C1921 1.363 . S
C1916 C1917 1.363 . S
C1916 C1921 1.379 . S
C1916 N1923 1.356 . S
C1917 C1916 1.363 . S
C1917 C1920 1.363 . S
N1918 C1920 1.356 . S
N1918 H1930 0.984 . S
N1918 H1931 0.985 . S
N1919 C1921 1.356 . S
N1919 H1924 0.984 . S
N1919 H1925 0.985 . S
C1920 C1914 1.379 . S
C1920 C1917 1.363 . S
C1920 N1918 1.356 . S
C1921 C1915 1.363 . S
C1921 C1916 1.379 . S
C1921 N1919 1.356 . S
N1922 C1914 1.356 . S
N1922 H1928 0.984 . S
N1922 H1929 0.984 . S
N1923 C1916 1.356 . S
N1923 H1926 0.984 . S
N1923 H1927 0.985 . S
H1924 N1919 0.984 . S
H1925 N1919 0.985 . S
H1926 N1923 0.984 . S
H1927 N1923 0.985 . S
H1928 N1922 0.984 . S
H1929 N1922 0.984 . S
H1930 N1918 0.984 . S
H1931 N1918 0.985 . S
C1932 C1933 1.363 . S
C1932 C1938 1.379 . S
C1932 N1940 1.356 . S
C1933 C1932 1.363 . S
C1933 C1939 1.363 . S
C1934 C1935 1.363 . S
C1934 C1939 1.379 . S
C1934 N1941 1.356 . S
C1935 C1934 1.363 . S
C1935 C1938 1.363 . S
N1936 C1938 1.356 . S
N1936 H1948 0.984 1_545 S
N1936 H1949 0.985 . S
N1937 C1939 1.356 . S
N1937 H1942 0.984 . S
N1937 H1943 0.985 . S
C1938 C1932 1.379 . S
C1938 C1935 1.363 . S
C1938 N1936 1.356 . S
C1939 C1933 1.363 . S
C1939 C1934 1.379 . S
C1939 N1937 1.356 . S
N1940 C1932 1.356 . S
N1940 H1946 0.984 . S
N1940 H1947 0.984 . S
N1941 C1934 1.356 . S
N1941 H1944 0.984 . S
N1941 H1945 0.985 . S
H1942 N1937 0.984 . S
H1943 N1937 0.985 . S
H1944 N1941 0.984 . S
H1945 N1941 0.985 . S
H1946 N1940 0.984 . S
H1947 N1940 0.984 . S
H1948 N1936 0.984 1_565 S
H1949 N1936 0.985 . S
C1950 C1951 1.363 . S
C1950 C1956 1.379 . S
C1950 N1958 1.356 . S
C1951 C1950 1.363 . S
C1951 C1957 1.363 . S
C1952 C1953 1.363 . S
C1952 C1957 1.379 . S
C1952 N1959 1.356 . S
C1953 C1952 1.363 . S
C1953 C1956 1.363 . S
N1954 C1956 1.356 . S
N1954 H1966 0.984 . S
N1954 H1967 0.985 . S
N1955 C1957 1.356 . S
N1955 H1960 0.984 . S
N1955 H1961 0.985 . S
C1956 C1950 1.379 . S
C1956 C1953 1.363 . S
C1956 N1954 1.356 . S
C1957 C1951 1.363 . S
C1957 C1952 1.379 . S
C1957 N1955 1.356 . S
N1958 C1950 1.356 . S
N1958 H1964 0.984 . S
N1958 H1965 0.984 . S
N1959 C1952 1.356 . S
N1959 H1962 0.984 . S
N1959 H1963 0.985 . S
H1960 N1955 0.984 . S
H1961 N1955 0.985 . S
H1962 N1959 0.984 . S
H1963 N1959 0.985 . S
H1964 N1958 0.984 . S
H1965 N1958 0.984 . S
H1966 N1954 0.984 . S
H1967 N1954 0.985 . S
C1968 C1969 1.363 . S
C1968 C1974 1.379 . S
C1968 N1976 1.356 1_554 S
C1969 C1968 1.363 . S
C1969 C1975 1.363 1_565 S
C1970 C1971 1.363 . S
C1970 C1975 1.379 . S
C1970 N1977 1.356 . S
C1971 C1970 1.363 . S
C1971 C1974 1.363 1_545 S
N1972 C1974 1.356 . S
N1972 H1984 0.984 1_554 S
N1972 H1985 0.985 . S
N1973 C1975 1.356 . S
N1973 H1978 0.984 . S
N1973 H1979 0.985 . S
C1974 C1968 1.379 . S
C1974 C1971 1.363 1_565 S
C1974 N1972 1.356 . S
C1975 C1969 1.363 1_545 S
C1975 C1970 1.379 . S
C1975 N1973 1.356 . S
N1976 C1968 1.356 1_556 S
N1976 H1982 0.984 . S
N1976 H1983 0.984 . S
N1977 C1970 1.356 . S
N1977 H1980 0.984 . S
N1977 H1981 0.985 . S
H1978 N1973 0.984 . S
H1979 N1973 0.985 . S
H1980 N1977 0.984 . S
H1981 N1977 0.985 . S
H1982 N1976 0.984 . S
H1983 N1976 0.984 . S
H1984 N1972 0.984 1_556 S
H1985 N1972 0.985 . S
C1986 C1987 1.363 1_554 S
C1986 C1992 1.379 . S
C1986 N1994 1.356 . S
C1987 C1986 1.363 1_556 S
C1987 C1993 1.363 . S
C1988 C1989 1.363 . S
C1988 C1993 1.379 . S
C1988 N1995 1.356 . S
C1989 C1988 1.363 . S
C1989 C1992 1.363 1_556 S
N1990 C1992 1.356 . S
N1990 H2002 0.984 . S
N1990 H2003 0.985 . S
N1991 C1993 1.356 . S
N1991 H1996 0.984 . S
N1991 H1997 0.985 . S
C1992 C1986 1.379 . S
C1992 C1989 1.363 1_554 S
C1992 N1990 1.356 . S
C1993 C1987 1.363 . S
C1993 C1988 1.379 . S
C1993 N1991 1.356 . S
N1994 C1986 1.356 . S
N1994 H2000 0.984 . S
N1994 H2001 0.984 . S
N1995 C1988 1.356 . S
N1995 H1998 0.984 . S
N1995 H1999 0.985 . S
H1996 N1991 0.984 . S
H1997 N1991 0.985 . S
H1998 N1995 0.984 . S
H1999 N1995 0.985 . S
H2000 N1994 0.984 . S
H2001 N1994 0.984 . S
H2002 N1990 0.984 . S
H2003 N1990 0.985 . S
C2004 C2005 1.363 . S
C2004 C2010 1.379 . S
C2004 N2012 1.356 . S
C2005 C2004 1.363 . S
C2005 C2011 1.363 . S
C2006 C2007 1.363 . S
C2006 C2011 1.379 . S
C2006 N2013 1.356 . S
C2007 C2006 1.363 . S
C2007 C2010 1.363 . S
N2008 C2010 1.356 . S
N2008 H2020 0.984 . S
N2008 H2021 0.985 . S
N2009 C2011 1.356 . S
N2009 H2014 0.984 . S
N2009 H2015 0.985 . S
C2010 C2004 1.379 . S
C2010 C2007 1.363 . S
C2010 N2008 1.356 . S
C2011 C2005 1.363 . S
C2011 C2006 1.379 . S
C2011 N2009 1.356 . S
N2012 C2004 1.356 . S
N2012 H2018 0.984 . S
N2012 H2019 0.984 . S
N2013 C2006 1.356 . S
N2013 H2016 0.984 . S
N2013 H2017 0.985 . S
H2014 N2009 0.984 . S
H2015 N2009 0.985 . S
H2016 N2013 0.984 . S
H2017 N2013 0.985 . S
H2018 N2012 0.984 . S
H2019 N2012 0.984 . S
H2020 N2008 0.984 . S
H2021 N2008 0.985 . S
C2022 C2023 1.363 . S
C2022 C2028 1.379 . S
C2022 N2030 1.356 . S
C2023 C2022 1.363 . S
C2023 C2029 1.363 . S
C2024 C2025 1.363 . S
C2024 C2029 1.379 . S
C2024 N2031 1.356 . S
C2025 C2024 1.363 . S
C2025 C2028 1.363 . S
N2026 C2028 1.356 1_455 S
N2026 H2038 0.984 . S
N2026 H2039 0.985 . S
N2027 C2029 1.356 . S
N2027 H2032 0.984 . S
N2027 H2033 0.985 . S
C2028 C2022 1.379 . S
C2028 C2025 1.363 . S
C2028 N2026 1.356 1_655 S
C2029 C2023 1.363 . S
C2029 C2024 1.379 . S
C2029 N2027 1.356 . S
N2030 C2022 1.356 . S
N2030 H2036 0.984 . S
N2030 H2037 0.984 . S
N2031 C2024 1.356 . S
N2031 H2034 0.984 1_655 S
N2031 H2035 0.985 . S
H2032 N2027 0.984 . S
H2033 N2027 0.985 . S
H2034 N2031 0.984 1_455 S
H2035 N2031 0.985 . S
H2036 N2030 0.984 . S
H2037 N2030 0.984 . S
H2038 N2026 0.984 . S
H2039 N2026 0.985 . S
C2040 C2041 1.363 . S
C2040 C2046 1.379 . S
C2040 N2048 1.356 . S
C2041 C2040 1.363 . S
C2041 C2047 1.363 . S
C2042 C2043 1.363 . S
C2042 C2047 1.379 . S
C2042 N2049 1.356 . S
C2043 C2042 1.363 . S
C2043 C2046 1.363 . S
N2044 C2046 1.356 . S
N2044 H2056 0.984 . S
N2044 H2057 0.985 . S
N2045 C2047 1.356 . S
N2045 H2050 0.984 . S
N2045 H2051 0.985 . S
C2046 C2040 1.379 . S
C2046 C2043 1.363 . S
C2046 N2044 1.356 . S
C2047 C2041 1.363 . S
C2047 C2042 1.379 . S
C2047 N2045 1.356 . S
N2048 C2040 1.356 . S
N2048 H2054 0.984 . S
N2048 H2055 0.984 . S
N2049 C2042 1.356 . S
N2049 H2052 0.984 . S
N2049 H2053 0.985 . S
H2050 N2045 0.984 . S
H2051 N2045 0.985 . S
H2052 N2049 0.984 . S
H2053 N2049 0.985 . S
H2054 N2048 0.984 . S
H2055 N2048 0.984 . S
H2056 N2044 0.984 . S
H2057 N2044 0.985 . S
C2058 C2059 1.363 . S
C2058 C2064 1.379 . S
C2058 N2066 1.356 . S
C2059 C2058 1.363 . S
C2059 C2065 1.363 . S
C2060 C2061 1.363 . S
C2060 C2065 1.379 . S
C2060 N2067 1.356 . S
C2061 C2060 1.363 . S
C2061 C2064 1.363 . S
N2062 C2064 1.356 . S
N2062 H2074 0.984 . S
N2062 H2075 0.985 . S
N2063 C2065 1.356 . S
N2063 H2068 0.984 . S
N2063 H2069 0.985 . S
C2064 C2058 1.379 . S
C2064 C2061 1.363 . S
C2064 N2062 1.356 . S
C2065 C2059 1.363 . S
C2065 C2060 1.379 . S
C2065 N2063 1.356 . S
N2066 C2058 1.356 . S
N2066 H2072 0.984 . S
N2066 H2073 0.984 . S
N2067 C2060 1.356 . S
N2067 H2070 0.984 . S
N2067 H2071 0.985 . S
H2068 N2063 0.984 . S
H2069 N2063 0.985 . S
H2070 N2067 0.984 . S
H2071 N2067 0.985 . S
H2072 N2066 0.984 . S
H2073 N2066 0.984 . S
H2074 N2062 0.984 . S
H2075 N2062 0.985 . S
C2076 C2077 1.363 . S
C2076 C2082 1.379 . S
C2076 N2084 1.356 . S
C2077 C2076 1.363 . S
C2077 C2083 1.363 . S
C2078 C2079 1.363 . S
C2078 C2083 1.379 . S
C2078 N2085 1.356 . S
C2079 C2078 1.363 . S
C2079 C2082 1.363 . S
N2080 C2082 1.356 . S
N2080 H2092 0.984 . S
N2080 H2093 0.985 . S
N2081 C2083 1.356 . S
N2081 H2086 0.984 . S
N2081 H2087 0.985 . S
C2082 C2076 1.379 . S
C2082 C2079 1.363 . S
C2082 N2080 1.356 . S
C2083 C2077 1.363 . S
C2083 C2078 1.379 . S
C2083 N2081 1.356 . S
N2084 C2076 1.356 . S
N2084 H2090 0.984 . S
N2084 H2091 0.984 . S
N2085 C2078 1.356 . S
N2085 H2088 0.984 . S
N2085 H2089 0.985 . S
H2086 N2081 0.984 . S
H2087 N2081 0.985 . S
H2088 N2085 0.984 . S
H2089 N2085 0.985 . S
H2090 N2084 0.984 . S
H2091 N2084 0.984 . S
H2092 N2080 0.984 . S
H2093 N2080 0.985 . S
C2094 C2095 1.363 . S
C2094 C2100 1.379 . S
C2094 N2102 1.356 . S
C2095 C2094 1.363 . S
C2095 C2101 1.363 . S
C2096 C2097 1.363 . S
C2096 C2101 1.379 . S
C2096 N2103 1.356 . S
C2097 C2096 1.363 . S
C2097 C2100 1.363 . S
N2098 C2100 1.356 . S
N2098 H2110 0.984 . S
N2098 H2111 0.985 . S
N2099 C2101 1.356 . S
N2099 H2104 0.984 . S
N2099 H2105 0.985 . S
C2100 C2094 1.379 . S
C2100 C2097 1.363 . S
C2100 N2098 1.356 . S
C2101 C2095 1.363 . S
C2101 C2096 1.379 . S
C2101 N2099 1.356 . S
N2102 C2094 1.356 . S
N2102 H2108 0.984 . S
N2102 H2109 0.984 . S
N2103 C2096 1.356 . S
N2103 H2106 0.984 . S
N2103 H2107 0.985 . S
H2104 N2099 0.984 . S
H2105 N2099 0.985 . S
H2106 N2103 0.984 . S
H2107 N2103 0.985 . S
H2108 N2102 0.984 . S
H2109 N2102 0.984 . S
H2110 N2098 0.984 . S
H2111 N2098 0.985 . S
C2112 C2113 1.363 . S
C2112 C2118 1.379 . S
C2112 N2120 1.356 . S
C2113 C2112 1.363 . S
C2113 C2119 1.363 . S
C2114 C2115 1.363 . S
C2114 C2119 1.379 . S
C2114 N2121 1.356 . S
C2115 C2114 1.363 . S
C2115 C2118 1.363 . S
N2116 C2118 1.356 1_556 S
N2116 H2128 0.984 . S
N2116 H2129 0.985 . S
N2117 C2119 1.356 . S
N2117 H2122 0.984 . S
N2117 H2123 0.985 . S
C2118 C2112 1.379 . S
C2118 C2115 1.363 . S
C2118 N2116 1.356 1_554 S
C2119 C2113 1.363 . S
C2119 C2114 1.379 . S
C2119 N2117 1.356 . S
N2120 C2112 1.356 . S
N2120 H2126 0.984 . S
N2120 H2127 0.984 . S
N2121 C2114 1.356 . S
N2121 H2124 0.984 . S
N2121 H2125 0.985 . S
H2122 N2117 0.984 . S
H2123 N2117 0.985 . S
H2124 N2121 0.984 . S
H2125 N2121 0.985 . S
H2126 N2120 0.984 . S
H2127 N2120 0.984 . S
H2128 N2116 0.984 . S
H2129 N2116 0.985 . S
C2130 C2131 1.363 . S
C2130 C2136 1.379 . S
C2130 N2138 1.356 . S
C2131 C2130 1.363 . S
C2131 C2137 1.363 . S
C2132 C2133 1.363 . S
C2132 C2137 1.379 . S
C2132 N2139 1.356 . S
C2133 C2132 1.363 . S
C2133 C2136 1.363 . S
N2134 C2136 1.356 . S
N2134 H2146 0.984 . S
N2134 H2147 0.985 . S
N2135 C2137 1.356 . S
N2135 H2140 0.984 . S
N2135 H2141 0.985 . S
C2136 C2130 1.379 . S
C2136 C2133 1.363 . S
C2136 N2134 1.356 . S
C2137 C2131 1.363 . S
C2137 C2132 1.379 . S
C2137 N2135 1.356 . S
N2138 C2130 1.356 . S
N2138 H2144 0.984 . S
N2138 H2145 0.984 . S
N2139 C2132 1.356 . S
N2139 H2142 0.984 . S
N2139 H2143 0.985 . S
H2140 N2135 0.984 . S
H2141 N2135 0.985 . S
H2142 N2139 0.984 . S
H2143 N2139 0.985 . S
H2144 N2138 0.984 . S
H2145 N2138 0.984 . S
H2146 N2134 0.984 . S
H2147 N2134 0.985 . S
C2148 C2149 1.363 . S
C2148 C2154 1.379 . S
C2148 N2156 1.356 . S
C2149 C2148 1.363 . S
C2149 C2155 1.363 . S
C2150 C2151 1.363 . S
C2150 C2155 1.379 . S
C2150 N2157 1.356 . S
C2151 C2150 1.363 . S
C2151 C2154 1.363 . S
N2152 C2154 1.356 . S
N2152 H2164 0.984 . S
N2152 H2165 0.985 . S
N2153 C2155 1.356 . S
N2153 H2158 0.984 . S
N2153 H2159 0.985 . S
C2154 C2148 1.379 . S
C2154 C2151 1.363 . S
C2154 N2152 1.356 . S
C2155 C2149 1.363 . S
C2155 C2150 1.379 . S
C2155 N2153 1.356 . S
N2156 C2148 1.356 . S
N2156 H2162 0.984 . S
N2156 H2163 0.984 . S
N2157 C2150 1.356 . S
N2157 H2160 0.984 . S
N2157 H2161 0.985 . S
H2158 N2153 0.984 . S
H2159 N2153 0.985 . S
H2160 N2157 0.984 . S
H2161 N2157 0.985 . S
H2162 N2156 0.984 . S
H2163 N2156 0.984 . S
H2164 N2152 0.984 . S
H2165 N2152 0.985 . S
C2166 C2167 1.363 . S
C2166 C2172 1.379 . S
C2166 N2174 1.356 . S
C2167 C2166 1.363 . S
C2167 C2173 1.363 . S
C2168 C2169 1.363 . S
C2168 C2173 1.379 . S
C2168 N2175 1.356 . S
C2169 C2168 1.363 . S
C2169 C2172 1.363 . S
N2170 C2172 1.356 . S
N2170 H2182 0.984 . S
N2170 H2183 0.985 . S
N2171 C2173 1.356 . S
N2171 H2176 0.984 . S
N2171 H2177 0.985 . S
C2172 C2166 1.379 . S
C2172 C2169 1.363 . S
C2172 N2170 1.356 . S
C2173 C2167 1.363 . S
C2173 C2168 1.379 . S
C2173 N2171 1.356 . S
N2174 C2166 1.356 . S
N2174 H2180 0.984 . S
N2174 H2181 0.984 . S
N2175 C2168 1.356 . S
N2175 H2178 0.984 . S
N2175 H2179 0.985 . S
H2176 N2171 0.984 . S
H2177 N2171 0.985 . S
H2178 N2175 0.984 . S
H2179 N2175 0.985 . S
H2180 N2174 0.984 . S
H2181 N2174 0.984 . S
H2182 N2170 0.984 . S
H2183 N2170 0.985 . S
C2184 C2185 1.363 . S
C2184 C2190 1.379 . S
C2184 N2192 1.356 . S
C2185 C2184 1.363 . S
C2185 C2191 1.363 . S
C2186 C2187 1.363 . S
C2186 C2191 1.379 . S
C2186 N2193 1.356 . S
C2187 C2186 1.363 . S
C2187 C2190 1.363 . S
N2188 C2190 1.356 . S
N2188 H2200 0.984 . S
N2188 H2201 0.985 . S
N2189 C2191 1.356 . S
N2189 H2194 0.984 . S
N2189 H2195 0.985 . S
C2190 C2184 1.379 . S
C2190 C2187 1.363 . S
C2190 N2188 1.356 . S
C2191 C2185 1.363 . S
C2191 C2186 1.379 . S
C2191 N2189 1.356 . S
N2192 C2184 1.356 . S
N2192 H2198 0.984 . S
N2192 H2199 0.984 . S
N2193 C2186 1.356 . S
N2193 H2196 0.984 . S
N2193 H2197 0.985 . S
H2194 N2189 0.984 . S
H2195 N2189 0.985 . S
H2196 N2193 0.984 . S
H2197 N2193 0.985 . S
H2198 N2192 0.984 . S
H2199 N2192 0.984 . S
H2200 N2188 0.984 . S
H2201 N2188 0.985 . S
C2202 C2203 1.363 . S
C2202 C2208 1.379 . S
C2202 N2210 1.356 . S
C2203 C2202 1.363 . S
C2203 C2209 1.363 . S
C2204 C2205 1.363 . S
C2204 C2209 1.379 . S
C2204 N2211 1.356 . S
C2205 C2204 1.363 . S
C2205 C2208 1.363 . S
N2206 C2208 1.356 . S
N2206 H2218 0.984 . S
N2206 H2219 0.985 . S
N2207 C2209 1.356 . S
N2207 H2212 0.984 . S
N2207 H2213 0.985 . S
C2208 C2202 1.379 . S
C2208 C2205 1.363 . S
C2208 N2206 1.356 . S
C2209 C2203 1.363 . S
C2209 C2204 1.379 . S
C2209 N2207 1.356 . S
N2210 C2202 1.356 . S
N2210 H2216 0.984 . S
N2210 H2217 0.984 . S
N2211 C2204 1.356 . S
N2211 H2214 0.984 . S
N2211 H2215 0.985 . S
H2212 N2207 0.984 . S
H2213 N2207 0.985 . S
H2214 N2211 0.984 . S
H2215 N2211 0.985 . S
H2216 N2210 0.984 . S
H2217 N2210 0.984 . S
H2218 N2206 0.984 . S
H2219 N2206 0.985 . S
C2220 C2221 1.363 . S
C2220 C2226 1.379 . S
C2220 N2228 1.356 . S
C2221 C2220 1.363 . S
C2221 C2227 1.363 . S
C2222 C2223 1.363 . S
C2222 C2227 1.379 . S
C2222 N2229 1.356 . S
C2223 C2222 1.363 . S
C2223 C2226 1.363 . S
N2224 C2226 1.356 1_545 S
N2224 H2236 0.984 . S
N2224 H2237 0.985 . S
N2225 C2227 1.356 . S
N2225 H2230 0.984 . S
N2225 H2231 0.985 . S
C2226 C2220 1.379 . S
C2226 C2223 1.363 . S
C2226 N2224 1.356 1_565 S
C2227 C2221 1.363 . S
C2227 C2222 1.379 . S
C2227 N2225 1.356 . S
N2228 C2220 1.356 . S
N2228 H2234 0.984 . S
N2228 H2235 0.984 . S
N2229 C2222 1.356 . S
N2229 H2232 0.984 . S
N2229 H2233 0.985 . S
H2230 N2225 0.984 . S
H2231 N2225 0.985 . S
H2232 N2229 0.984 . S
H2233 N2229 0.985 . S
H2234 N2228 0.984 . S
H2235 N2228 0.984 . S
H2236 N2224 0.984 . S
H2237 N2224 0.985 . S
C2238 C2239 1.363 . S
C2238 C2244 1.379 . S
C2238 N2246 1.356 . S
C2239 C2238 1.363 . S
C2239 C2245 1.363 . S
C2240 C2241 1.363 . S
C2240 C2245 1.379 . S
C2240 N2247 1.356 . S
C2241 C2240 1.363 . S
C2241 C2244 1.363 . S
N2242 C2244 1.356 . S
N2242 H2254 0.984 . S
N2242 H2255 0.985 . S
N2243 C2245 1.356 . S
N2243 H2248 0.984 . S
N2243 H2249 0.985 . S
C2244 C2238 1.379 . S
C2244 C2241 1.363 . S
C2244 N2242 1.356 . S
C2245 C2239 1.363 . S
C2245 C2240 1.379 . S
C2245 N2243 1.356 . S
N2246 C2238 1.356 . S
N2246 H2252 0.984 . S
N2246 H2253 0.984 . S
N2247 C2240 1.356 . S
N2247 H2250 0.984 . S
N2247 H2251 0.985 . S
H2248 N2243 0.984 . S
H2249 N2243 0.985 . S
H2250 N2247 0.984 . S
H2251 N2247 0.985 . S
H2252 N2246 0.984 . S
H2253 N2246 0.984 . S
H2254 N2242 0.984 . S
H2255 N2242 0.985 . S
C2256 C2257 1.363 . S
C2256 C2262 1.379 . S
C2256 N2264 1.356 . S
C2257 C2256 1.363 . S
C2257 C2263 1.363 1_545 S
C2258 C2259 1.363 1_565 S
C2258 C2263 1.379 . S
C2258 N2265 1.356 . S
C2259 C2258 1.363 1_545 S
C2259 C2262 1.363 . S
N2260 C2262 1.356 . S
N2260 H2272 0.984 . S
N2260 H2273 0.985 . S
N2261 C2263 1.356 . S
N2261 H2266 0.984 . S
N2261 H2267 0.985 . S
C2262 C2256 1.379 . S
C2262 C2259 1.363 . S
C2262 N2260 1.356 . S
C2263 C2257 1.363 1_565 S
C2263 C2258 1.379 . S
C2263 N2261 1.356 . S
N2264 C2256 1.356 . S
N2264 H2270 0.984 . S
N2264 H2271 0.984 . S
N2265 C2258 1.356 . S
N2265 H2268 0.984 . S
N2265 H2269 0.985 . S
H2266 N2261 0.984 . S
H2267 N2261 0.985 . S
H2268 N2265 0.984 . S
H2269 N2265 0.985 . S
H2270 N2264 0.984 . S
H2271 N2264 0.984 . S
H2272 N2260 0.984 . S
H2273 N2260 0.985 . S
C2274 C2275 1.363 . S
C2274 C2280 1.379 . S
C2274 N2282 1.356 . S
C2275 C2274 1.363 . S
C2275 C2281 1.363 . S
C2276 C2277 1.363 . S
C2276 C2281 1.379 . S
C2276 N2283 1.356 . S
C2277 C2276 1.363 . S
C2277 C2280 1.363 . S
N2278 C2280 1.356 . S
N2278 H2290 0.984 . S
N2278 H2291 0.985 . S
N2279 C2281 1.356 . S
N2279 H2284 0.984 . S
N2279 H2285 0.985 . S
C2280 C2274 1.379 . S
C2280 C2277 1.363 . S
C2280 N2278 1.356 . S
C2281 C2275 1.363 . S
C2281 C2276 1.379 . S
C2281 N2279 1.356 . S
N2282 C2274 1.356 . S
N2282 H2288 0.984 . S
N2282 H2289 0.984 . S
N2283 C2276 1.356 . S
N2283 H2286 0.984 . S
N2283 H2287 0.985 . S
H2284 N2279 0.984 . S
H2285 N2279 0.985 . S
H2286 N2283 0.984 . S
H2287 N2283 0.985 . S
H2288 N2282 0.984 . S
H2289 N2282 0.984 . S
H2290 N2278 0.984 . S
H2291 N2278 0.985 . S
C2292 C2293 1.363 . S
C2292 C2298 1.379 . S
C2292 N2300 1.356 1_545 S
C2293 C2292 1.363 . S
C2293 C2299 1.363 . S
C2294 C2295 1.363 . S
C2294 C2299 1.379 . S
C2294 N2301 1.356 . S
C2295 C2294 1.363 . S
C2295 C2298 1.363 . S
N2296 C2298 1.356 1_565 S
N2296 H2308 0.984 . S
N2296 H2309 0.985 1_565 S
N2297 C2299 1.356 . S
N2297 H2302 0.984 . S
N2297 H2303 0.985 . S
C2298 C2292 1.379 . S
C2298 C2295 1.363 . S
C2298 N2296 1.356 1_545 S
C2299 C2293 1.363 . S
C2299 C2294 1.379 . S
C2299 N2297 1.356 . S
N2300 C2292 1.356 1_565 S
N2300 H2306 0.984 . S
N2300 H2307 0.984 . S
N2301 C2294 1.356 . S
N2301 H2304 0.984 . S
N2301 H2305 0.985 . S
H2302 N2297 0.984 . S
H2303 N2297 0.985 . S
H2304 N2301 0.984 . S
H2305 N2301 0.985 . S
H2306 N2300 0.984 . S
H2307 N2300 0.984 . S
H2308 N2296 0.984 . S
H2309 N2296 0.985 1_545 S
C2310 C2311 1.363 . S
C2310 C2316 1.379 . S
C2310 N2318 1.356 . S
C2311 C2310 1.363 . S
C2311 C2317 1.363 . S
C2312 C2313 1.363 . S
C2312 C2317 1.379 . S
C2312 N2319 1.356 . S
C2313 C2312 1.363 . S
C2313 C2316 1.363 . S
N2314 C2316 1.356 . S
N2314 H2326 0.984 . S
N2314 H2327 0.985 . S
N2315 C2317 1.356 . S
N2315 H2320 0.984 . S
N2315 H2321 0.985 . S
C2316 C2310 1.379 . S
C2316 C2313 1.363 . S
C2316 N2314 1.356 . S
C2317 C2311 1.363 . S
C2317 C2312 1.379 . S
C2317 N2315 1.356 . S
N2318 C2310 1.356 . S
N2318 H2324 0.984 . S
N2318 H2325 0.984 . S
N2319 C2312 1.356 . S
N2319 H2322 0.984 . S
N2319 H2323 0.985 . S
H2320 N2315 0.984 . S
H2321 N2315 0.985 . S
H2322 N2319 0.984 . S
H2323 N2319 0.985 . S
H2324 N2318 0.984 . S
H2325 N2318 0.984 . S
H2326 N2314 0.984 . S
H2327 N2314 0.985 . S
C2328 C2329 1.363 1_545 S
C2328 C2334 1.379 . S
C2328 N2336 1.356 . S
C2329 C2328 1.363 1_565 S
C2329 C2335 1.363 . S
C2330 C2331 1.363 1_565 S
C2330 C2335 1.379 . S
C2330 N2337 1.356 . S
C2331 C2330 1.363 1_545 S
C2331 C2334 1.363 . S
N2332 C2334 1.356 . S
N2332 H2344 0.984 . S
N2332 H2345 0.985 . S
N2333 C2335 1.356 . S
N2333 H2338 0.984 . S
N2333 H2339 0.985 . S
C2334 C2328 1.379 . S
C2334 C2331 1.363 . S
C2334 N2332 1.356 . S
C2335 C2329 1.363 . S
C2335 C2330 1.379 . S
C2335 N2333 1.356 . S
N2336 C2328 1.356 . S
N2336 H2342 0.984 . S
N2336 H2343 0.984 . S
N2337 C2330 1.356 . S
N2337 H2340 0.984 . S
N2337 H2341 0.985 . S
H2338 N2333 0.984 . S
H2339 N2333 0.985 . S
H2340 N2337 0.984 . S
H2341 N2337 0.985 . S
H2342 N2336 0.984 . S
H2343 N2336 0.984 . S
H2344 N2332 0.984 . S
H2345 N2332 0.985 . S
C2346 C2347 1.363 . S
C2346 C2352 1.379 . S
C2346 N2354 1.356 . S
C2347 C2346 1.363 . S
C2347 C2353 1.363 . S
C2348 C2349 1.363 . S
C2348 C2353 1.379 . S
C2348 N2355 1.356 . S
C2349 C2348 1.363 . S
C2349 C2352 1.363 . S
N2350 C2352 1.356 . S
N2350 H2362 0.984 . S
N2350 H2363 0.985 . S
N2351 C2353 1.356 . S
N2351 H2356 0.984 . S
N2351 H2357 0.985 . S
C2352 C2346 1.379 . S
C2352 C2349 1.363 . S
C2352 N2350 1.356 . S
C2353 C2347 1.363 . S
C2353 C2348 1.379 . S
C2353 N2351 1.356 . S
N2354 C2346 1.356 . S
N2354 H2360 0.984 . S
N2354 H2361 0.984 . S
N2355 C2348 1.356 . S
N2355 H2358 0.984 . S
N2355 H2359 0.985 . S
H2356 N2351 0.984 . S
H2357 N2351 0.985 . S
H2358 N2355 0.984 . S
H2359 N2355 0.985 . S
H2360 N2354 0.984 . S
H2361 N2354 0.984 . S
H2362 N2350 0.984 . S
H2363 N2350 0.985 . S
C2364 C2365 1.363 . S
C2364 C2370 1.379 . S
C2364 N2372 1.356 . S
C2365 C2364 1.363 . S
C2365 C2371 1.363 1_565 S
C2366 C2367 1.363 1_545 S
C2366 C2371 1.379 . S
C2366 N2373 1.356 . S
C2367 C2366 1.363 1_565 S
C2367 C2370 1.363 . S
N2368 C2370 1.356 . S
N2368 H2380 0.984 . S
N2368 H2381 0.985 . S
N2369 C2371 1.356 . S
N2369 H2374 0.984 . S
N2369 H2375 0.985 . S
C2370 C2364 1.379 . S
C2370 C2367 1.363 . S
C2370 N2368 1.356 . S
C2371 C2365 1.363 1_545 S
C2371 C2366 1.379 . S
C2371 N2369 1.356 . S
N2372 C2364 1.356 . S
N2372 H2378 0.984 . S
N2372 H2379 0.984 . S
N2373 C2366 1.356 . S
N2373 H2376 0.984 . S
N2373 H2377 0.985 . S
H2374 N2369 0.984 . S
H2375 N2369 0.985 . S
H2376 N2373 0.984 . S
H2377 N2373 0.985 . S
H2378 N2372 0.984 . S
H2379 N2372 0.984 . S
H2380 N2368 0.984 . S
H2381 N2368 0.985 . S
C2382 C2383 1.363 . S
C2382 C2388 1.379 . S
C2382 N2390 1.356 . S
C2383 C2382 1.363 . S
C2383 C2389 1.363 . S
C2384 C2385 1.363 . S
C2384 C2389 1.379 . S
C2384 N2391 1.356 . S
C2385 C2384 1.363 . S
C2385 C2388 1.363 . S
N2386 C2388 1.356 . S
N2386 H2398 0.984 . S
N2386 H2399 0.985 . S
N2387 C2389 1.356 . S
N2387 H2392 0.984 . S
N2387 H2393 0.985 . S
C2388 C2382 1.379 . S
C2388 C2385 1.363 . S
C2388 N2386 1.356 . S
C2389 C2383 1.363 . S
C2389 C2384 1.379 . S
C2389 N2387 1.356 . S
N2390 C2382 1.356 . S
N2390 H2396 0.984 . S
N2390 H2397 0.984 . S
N2391 C2384 1.356 . S
N2391 H2394 0.984 . S
N2391 H2395 0.985 . S
H2392 N2387 0.984 . S
H2393 N2387 0.985 . S
H2394 N2391 0.984 . S
H2395 N2391 0.985 . S
H2396 N2390 0.984 . S
H2397 N2390 0.984 . S
H2398 N2386 0.984 . S
H2399 N2386 0.985 . S
C2400 C2401 1.363 1_556 S
C2400 C2406 1.379 . S
C2400 N2408 1.356 . S
C2401 C2400 1.363 1_554 S
C2401 C2407 1.363 . S
C2402 C2403 1.363 . S
C2402 C2407 1.379 . S
C2402 N2409 1.356 . S
C2403 C2402 1.363 . S
C2403 C2406 1.363 1_554 S
N2404 C2406 1.356 . S
N2404 H2416 0.984 . S
N2404 H2417 0.985 . S
N2405 C2407 1.356 . S
N2405 H2410 0.984 . S
N2405 H2411 0.985 . S
C2406 C2400 1.379 . S
C2406 C2403 1.363 1_556 S
C2406 N2404 1.356 . S
C2407 C2401 1.363 . S
C2407 C2402 1.379 . S
C2407 N2405 1.356 . S
N2408 C2400 1.356 . S
N2408 H2414 0.984 . S
N2408 H2415 0.984 . S
N2409 C2402 1.356 . S
N2409 H2412 0.984 . S
N2409 H2413 0.985 . S
H2410 N2405 0.984 . S
H2411 N2405 0.985 . S
H2412 N2409 0.984 . S
H2413 N2409 0.985 . S
H2414 N2408 0.984 . S
H2415 N2408 0.984 . S
H2416 N2404 0.984 . S
H2417 N2404 0.985 . S
C2418 C2419 1.363 . S
C2418 C2424 1.379 . S
C2418 N2426 1.356 . S
C2419 C2418 1.363 . S
C2419 C2425 1.363 . S
C2420 C2421 1.363 . S
C2420 C2425 1.379 . S
C2420 N2427 1.356 . S
C2421 C2420 1.363 . S
C2421 C2424 1.363 . S
N2422 C2424 1.356 . S
N2422 H2434 0.984 . S
N2422 H2435 0.985 . S
N2423 C2425 1.356 . S
N2423 H2428 0.984 . S
N2423 H2429 0.985 . S
C2424 C2418 1.379 . S
C2424 C2421 1.363 . S
C2424 N2422 1.356 . S
C2425 C2419 1.363 . S
C2425 C2420 1.379 . S
C2425 N2423 1.356 . S
N2426 C2418 1.356 . S
N2426 H2432 0.984 . S
N2426 H2433 0.984 . S
N2427 C2420 1.356 . S
N2427 H2430 0.984 . S
N2427 H2431 0.985 . S
H2428 N2423 0.984 . S
H2429 N2423 0.985 . S
H2430 N2427 0.984 . S
H2431 N2427 0.985 . S
H2432 N2426 0.984 . S
H2433 N2426 0.984 . S
H2434 N2422 0.984 . S
H2435 N2422 0.985 . S
C2436 C2437 1.363 . S
C2436 C2442 1.379 . S
C2436 N2444 1.356 . S
C2437 C2436 1.363 . S
C2437 C2443 1.363 . S
C2438 C2439 1.363 . S
C2438 C2443 1.379 . S
C2438 N2445 1.356 . S
C2439 C2438 1.363 . S
C2439 C2442 1.363 . S
N2440 C2442 1.356 . S
N2440 H2452 0.984 . S
N2440 H2453 0.985 . S
N2441 C2443 1.356 . S
N2441 H2446 0.984 . S
N2441 H2447 0.985 . S
C2442 C2436 1.379 . S
C2442 C2439 1.363 . S
C2442 N2440 1.356 . S
C2443 C2437 1.363 . S
C2443 C2438 1.379 . S
C2443 N2441 1.356 . S
N2444 C2436 1.356 . S
N2444 H2450 0.984 . S
N2444 H2451 0.984 . S
N2445 C2438 1.356 . S
N2445 H2448 0.984 . S
N2445 H2449 0.985 . S
H2446 N2441 0.984 . S
H2447 N2441 0.985 . S
H2448 N2445 0.984 . S
H2449 N2445 0.985 . S
H2450 N2444 0.984 . S
H2451 N2444 0.984 . S
H2452 N2440 0.984 . S
H2453 N2440 0.985 . S
C2454 C2455 1.363 . S
C2454 C2460 1.379 . S
C2454 N2462 1.356 . S
C2455 C2454 1.363 . S
C2455 C2461 1.363 . S
C2456 C2457 1.363 . S
C2456 C2461 1.379 . S
C2456 N2463 1.356 . S
C2457 C2456 1.363 . S
C2457 C2460 1.363 . S
N2458 C2460 1.356 . S
N2458 H2470 0.984 . S
N2458 H2471 0.985 . S
N2459 C2461 1.356 . S
N2459 H2464 0.984 . S
N2459 H2465 0.985 . S
C2460 C2454 1.379 . S
C2460 C2457 1.363 . S
C2460 N2458 1.356 . S
C2461 C2455 1.363 . S
C2461 C2456 1.379 . S
C2461 N2459 1.356 . S
N2462 C2454 1.356 . S
N2462 H2468 0.984 . S
N2462 H2469 0.984 . S
N2463 C2456 1.356 . S
N2463 H2466 0.984 . S
N2463 H2467 0.985 . S
H2464 N2459 0.984 . S
H2465 N2459 0.985 . S
H2466 N2463 0.984 . S
H2467 N2463 0.985 . S
H2468 N2462 0.984 . S
H2469 N2462 0.984 . S
H2470 N2458 0.984 . S
H2471 N2458 0.985 . S
C2472 C2473 1.363 1_565 S
C2472 C2478 1.379 . S
C2472 N2480 1.356 . S
C2473 C2472 1.363 1_545 S
C2473 C2479 1.363 . S
C2474 C2475 1.363 1_545 S
C2474 C2479 1.379 . S
C2474 N2481 1.356 . S
C2475 C2474 1.363 1_565 S
C2475 C2478 1.363 . S
N2476 C2478 1.356 . S
N2476 H2488 0.984 . S
N2476 H2489 0.985 . S
N2477 C2479 1.356 . S
N2477 H2482 0.984 . S
N2477 H2483 0.985 . S
C2478 C2472 1.379 . S
C2478 C2475 1.363 . S
C2478 N2476 1.356 . S
C2479 C2473 1.363 . S
C2479 C2474 1.379 . S
C2479 N2477 1.356 . S
N2480 C2472 1.356 . S
N2480 H2486 0.984 . S
N2480 H2487 0.984 . S
N2481 C2474 1.356 . S
N2481 H2484 0.984 . S
N2481 H2485 0.985 . S
H2482 N2477 0.984 . S
H2483 N2477 0.985 . S
H2484 N2481 0.984 . S
H2485 N2481 0.985 . S
H2486 N2480 0.984 . S
H2487 N2480 0.984 . S
H2488 N2476 0.984 . S
H2489 N2476 0.985 . S
C2490 C2491 1.363 . S
C2490 C2496 1.379 . S
C2490 N2498 1.356 . S
C2491 C2490 1.363 . S
C2491 C2497 1.363 . S
C2492 C2493 1.363 . S
C2492 C2497 1.379 . S
C2492 N2499 1.356 . S
C2493 C2492 1.363 . S
C2493 C2496 1.363 . S
N2494 C2496 1.356 . S
N2494 H2506 0.984 . S
N2494 H2507 0.985 . S
N2495 C2497 1.356 . S
N2495 H2500 0.984 . S
N2495 H2501 0.985 . S
C2496 C2490 1.379 . S
C2496 C2493 1.363 . S
C2496 N2494 1.356 . S
C2497 C2491 1.363 . S
C2497 C2492 1.379 . S
C2497 N2495 1.356 . S
N2498 C2490 1.356 . S
N2498 H2504 0.984 . S
N2498 H2505 0.984 . S
N2499 C2492 1.356 . S
N2499 H2502 0.984 . S
N2499 H2503 0.985 . S
H2500 N2495 0.984 . S
H2501 N2495 0.985 . S
H2502 N2499 0.984 . S
H2503 N2499 0.985 . S
H2504 N2498 0.984 . S
H2505 N2498 0.984 . S
H2506 N2494 0.984 . S
H2507 N2494 0.985 . S
C2508 C2509 1.363 . S
C2508 C2514 1.379 . S
C2508 N2516 1.356 . S
C2509 C2508 1.363 . S
C2509 C2515 1.363 . S
C2510 C2511 1.363 . S
C2510 C2515 1.379 . S
C2510 N2517 1.356 . S
C2511 C2510 1.363 . S
C2511 C2514 1.363 . S
N2512 C2514 1.356 . S
N2512 H2524 0.984 . S
N2512 H2525 0.985 . S
N2513 C2515 1.356 . S
N2513 H2518 0.984 . S
N2513 H2519 0.985 . S
C2514 C2508 1.379 . S
C2514 C2511 1.363 . S
C2514 N2512 1.356 . S
C2515 C2509 1.363 . S
C2515 C2510 1.379 . S
C2515 N2513 1.356 . S
N2516 C2508 1.356 . S
N2516 H2522 0.984 . S
N2516 H2523 0.984 . S
N2517 C2510 1.356 . S
N2517 H2520 0.984 . S
N2517 H2521 0.985 . S
H2518 N2513 0.984 . S
H2519 N2513 0.985 . S
H2520 N2517 0.984 . S
H2521 N2517 0.985 . S
H2522 N2516 0.984 . S
H2523 N2516 0.984 . S
H2524 N2512 0.984 . S
H2525 N2512 0.985 . S
C2526 C2527 1.363 . S
C2526 C2532 1.379 . S
C2526 N2534 1.356 . S
C2527 C2526 1.363 . S
C2527 C2533 1.363 . S
C2528 C2529 1.363 . S
C2528 C2533 1.379 . S
C2528 N2535 1.356 . S
C2529 C2528 1.363 . S
C2529 C2532 1.363 . S
N2530 C2532 1.356 . S
N2530 H2542 0.984 . S
N2530 H2543 0.985 . S
N2531 C2533 1.356 . S
N2531 H2536 0.984 . S
N2531 H2537 0.985 . S
C2532 C2526 1.379 . S
C2532 C2529 1.363 . S
C2532 N2530 1.356 . S
C2533 C2527 1.363 . S
C2533 C2528 1.379 . S
C2533 N2531 1.356 . S
N2534 C2526 1.356 . S
N2534 H2540 0.984 . S
N2534 H2541 0.984 . S
N2535 C2528 1.356 . S
N2535 H2538 0.984 . S
N2535 H2539 0.985 . S
H2536 N2531 0.984 . S
H2537 N2531 0.985 . S
H2538 N2535 0.984 . S
H2539 N2535 0.985 . S
H2540 N2534 0.984 . S
H2541 N2534 0.984 . S
H2542 N2530 0.984 . S
H2543 N2530 0.985 . S
C2544 C2545 1.363 . S
C2544 C2550 1.379 . S
C2544 N2552 1.356 . S
C2545 C2544 1.363 . S
C2545 C2551 1.363 . S
C2546 C2547 1.363 . S
C2546 C2551 1.379 . S
C2546 N2553 1.356 . S
C2547 C2546 1.363 . S
C2547 C2550 1.363 . S
N2548 C2550 1.356 . S
N2548 H2560 0.984 . S
N2548 H2561 0.985 . S
N2549 C2551 1.356 . S
N2549 H2554 0.984 . S
N2549 H2555 0.985 . S
C2550 C2544 1.379 . S
C2550 C2547 1.363 . S
C2550 N2548 1.356 . S
C2551 C2545 1.363 . S
C2551 C2546 1.379 . S
C2551 N2549 1.356 . S
N2552 C2544 1.356 . S
N2552 H2558 0.984 . S
N2552 H2559 0.984 . S
N2553 C2546 1.356 . S
N2553 H2556 0.984 . S
N2553 H2557 0.985 . S
H2554 N2549 0.984 . S
H2555 N2549 0.985 . S
H2556 N2553 0.984 . S
H2557 N2553 0.985 . S
H2558 N2552 0.984 . S
H2559 N2552 0.984 . S
H2560 N2548 0.984 . S
H2561 N2548 0.985 . S
C2562 C2563 1.363 . S
C2562 C2568 1.379 . S
C2562 N2570 1.356 . S
C2563 C2562 1.363 . S
C2563 C2569 1.363 . S
C2564 C2565 1.363 . S
C2564 C2569 1.379 . S
C2564 N2571 1.356 . S
C2565 C2564 1.363 . S
C2565 C2568 1.363 . S
N2566 C2568 1.356 . S
N2566 H2578 0.984 . S
N2566 H2579 0.985 . S
N2567 C2569 1.356 . S
N2567 H2572 0.984 . S
N2567 H2573 0.985 . S
C2568 C2562 1.379 . S
C2568 C2565 1.363 . S
C2568 N2566 1.356 . S
C2569 C2563 1.363 . S
C2569 C2564 1.379 . S
C2569 N2567 1.356 . S
N2570 C2562 1.356 . S
N2570 H2576 0.984 . S
N2570 H2577 0.984 . S
N2571 C2564 1.356 . S
N2571 H2574 0.984 . S
N2571 H2575 0.985 . S
H2572 N2567 0.984 . S
H2573 N2567 0.985 . S
H2574 N2571 0.984 . S
H2575 N2571 0.985 . S
H2576 N2570 0.984 . S
H2577 N2570 0.984 . S
H2578 N2566 0.984 . S
H2579 N2566 0.985 . S
C2580 C2581 1.363 1_554 S
C2580 C2586 1.379 . S
C2580 N2588 1.356 . S
C2581 C2580 1.363 1_556 S
C2581 C2587 1.363 . S
C2582 C2583 1.363 1_556 S
C2582 C2587 1.379 . S
C2582 N2589 1.356 . S
C2583 C2582 1.363 1_554 S
C2583 C2586 1.363 . S
N2584 C2586 1.356 . S
N2584 H2596 0.984 . S
N2584 H2597 0.985 . S
N2585 C2587 1.356 . S
N2585 H2590 0.984 . S
N2585 H2591 0.985 . S
C2586 C2580 1.379 . S
C2586 C2583 1.363 . S
C2586 N2584 1.356 . S
C2587 C2581 1.363 . S
C2587 C2582 1.379 . S
C2587 N2585 1.356 . S
N2588 C2580 1.356 . S
N2588 H2594 0.984 . S
N2588 H2595 0.984 . S
N2589 C2582 1.356 . S
N2589 H2592 0.984 . S
N2589 H2593 0.985 . S
H2590 N2585 0.984 . S
H2591 N2585 0.985 . S
H2592 N2589 0.984 . S
H2593 N2589 0.985 . S
H2594 N2588 0.984 . S
H2595 N2588 0.984 . S
H2596 N2584 0.984 . S
H2597 N2584 0.985 . S
C2598 C2599 1.363 . S
C2598 C2604 1.379 . S
C2598 N2606 1.356 . S
C2599 C2598 1.363 . S
C2599 C2605 1.363 . S
C2600 C2601 1.363 . S
C2600 C2605 1.379 1_655 S
C2600 N2607 1.356 . S
C2601 C2600 1.363 . S
C2601 C2604 1.363 1_655 S
N2602 C2604 1.356 . S
N2602 H2614 0.984 . S
N2602 H2615 0.985 1_455 S
N2603 C2605 1.356 . S
N2603 H2608 0.984 . S
N2603 H2609 0.985 . S
C2604 C2598 1.379 . S
C2604 C2601 1.363 1_455 S
C2604 N2602 1.356 . S
C2605 C2599 1.363 . S
C2605 C2600 1.379 1_455 S
C2605 N2603 1.356 . S
N2606 C2598 1.356 . S
N2606 H2612 0.984 . S
N2606 H2613 0.984 . S
N2607 C2600 1.356 . S
N2607 H2610 0.984 . S
N2607 H2611 0.985 . S
H2608 N2603 0.984 . S
H2609 N2603 0.985 . S
H2610 N2607 0.984 . S
H2611 N2607 0.985 . S
H2612 N2606 0.984 . S
H2613 N2606 0.984 . S
H2614 N2602 0.984 . S
H2615 N2602 0.985 1_655 S
C2616 C2617 1.363 . S
C2616 C2622 1.379 . S
C2616 N2624 1.356 . S
C2617 C2616 1.363 . S
C2617 C2623 1.363 . S
C2618 C2619 1.363 . S
C2618 C2623 1.379 . S
C2618 N2625 1.356 . S
C2619 C2618 1.363 . S
C2619 C2622 1.363 . S
N2620 C2622 1.356 . S
N2620 H2632 0.984 . S
N2620 H2633 0.985 . S
N2621 C2623 1.356 . S
N2621 H2626 0.984 . S
N2621 H2627 0.985 . S
C2622 C2616 1.379 . S
C2622 C2619 1.363 . S
C2622 N2620 1.356 . S
C2623 C2617 1.363 . S
C2623 C2618 1.379 . S
C2623 N2621 1.356 . S
N2624 C2616 1.356 . S
N2624 H2630 0.984 . S
N2624 H2631 0.984 . S
N2625 C2618 1.356 . S
N2625 H2628 0.984 . S
N2625 H2629 0.985 . S
H2626 N2621 0.984 . S
H2627 N2621 0.985 . S
H2628 N2625 0.984 . S
H2629 N2625 0.985 . S
H2630 N2624 0.984 . S
H2631 N2624 0.984 . S
H2632 N2620 0.984 . S
H2633 N2620 0.985 . S
C2634 C2635 1.363 . S
C2634 C2640 1.379 . S
C2634 N2642 1.356 . S
C2635 C2634 1.363 . S
C2635 C2641 1.363 . S
C2636 C2637 1.363 . S
C2636 C2641 1.379 . S
C2636 N2643 1.356 . S
C2637 C2636 1.363 . S
C2637 C2640 1.363 . S
N2638 C2640 1.356 . S
N2638 H2650 0.984 . S
N2638 H2651 0.985 1_455 S
N2639 C2641 1.356 . S
N2639 H2644 0.984 . S
N2639 H2645 0.985 . S
C2640 C2634 1.379 . S
C2640 C2637 1.363 . S
C2640 N2638 1.356 . S
C2641 C2635 1.363 . S
C2641 C2636 1.379 . S
C2641 N2639 1.356 . S
N2642 C2634 1.356 . S
N2642 H2648 0.984 . S
N2642 H2649 0.984 . S
N2643 C2636 1.356 . S
N2643 H2646 0.984 1_455 S
N2643 H2647 0.985 . S
H2644 N2639 0.984 . S
H2645 N2639 0.985 . S
H2646 N2643 0.984 1_655 S
H2647 N2643 0.985 . S
H2648 N2642 0.984 . S
H2649 N2642 0.984 . S
H2650 N2638 0.984 . S
H2651 N2638 0.985 1_655 S
C2652 C2653 1.363 1_455 S
C2652 C2658 1.379 . S
C2652 N2660 1.356 . S
C2653 C2652 1.363 1_655 S
C2653 C2659 1.363 . S
C2654 C2655 1.363 . S
C2654 C2659 1.379 1_455 S
C2654 N2661 1.356 . S
C2655 C2654 1.363 . S
C2655 C2658 1.363 . S
N2656 C2658 1.356 . S
N2656 H2668 0.984 . S
N2656 H2669 0.985 . S
N2657 C2659 1.356 . S
N2657 H2662 0.984 . S
N2657 H2663 0.985 . S
C2658 C2652 1.379 . S
C2658 C2655 1.363 . S
C2658 N2656 1.356 . S
C2659 C2653 1.363 . S
C2659 C2654 1.379 1_655 S
C2659 N2657 1.356 . S
N2660 C2652 1.356 . S
N2660 H2666 0.984 . S
N2660 H2667 0.984 . S
N2661 C2654 1.356 . S
N2661 H2664 0.984 . S
N2661 H2665 0.985 1_455 S
H2662 N2657 0.984 . S
H2663 N2657 0.985 . S
H2664 N2661 0.984 . S
H2665 N2661 0.985 1_655 S
H2666 N2660 0.984 . S
H2667 N2660 0.984 . S
H2668 N2656 0.984 . S
H2669 N2656 0.985 . S
C2670 C2671 1.363 . S
C2670 C2676 1.379 . S
C2670 N2678 1.356 . S
C2671 C2670 1.363 . S
C2671 C2677 1.363 . S
C2672 C2673 1.363 . S
C2672 C2677 1.379 . S
C2672 N2679 1.356 . S
C2673 C2672 1.363 . S
C2673 C2676 1.363 . S
N2674 C2676 1.356 . S
N2674 H2686 0.984 . S
N2674 H2687 0.985 . S
N2675 C2677 1.356 . S
N2675 H2680 0.984 . S
N2675 H2681 0.985 . S
C2676 C2670 1.379 . S
C2676 C2673 1.363 . S
C2676 N2674 1.356 . S
C2677 C2671 1.363 . S
C2677 C2672 1.379 . S
C2677 N2675 1.356 . S
N2678 C2670 1.356 . S
N2678 H2684 0.984 . S
N2678 H2685 0.984 . S
N2679 C2672 1.356 . S
N2679 H2682 0.984 . S
N2679 H2683 0.985 . S
H2680 N2675 0.984 . S
H2681 N2675 0.985 . S
H2682 N2679 0.984 . S
H2683 N2679 0.985 . S
H2684 N2678 0.984 . S
H2685 N2678 0.984 . S
H2686 N2674 0.984 . S
H2687 N2674 0.985 . S
C2688 C2689 1.363 . S
C2688 C2694 1.379 . S
C2688 N2696 1.356 . S
C2689 C2688 1.363 . S
C2689 C2695 1.363 . S
C2690 C2691 1.363 . S
C2690 C2695 1.379 . S
C2690 N2697 1.356 . S
C2691 C2690 1.363 . S
C2691 C2694 1.363 . S
N2692 C2694 1.356 . S
N2692 H2704 0.984 . S
N2692 H2705 0.985 . S
N2693 C2695 1.356 . S
N2693 H2698 0.984 . S
N2693 H2699 0.985 . S
C2694 C2688 1.379 . S
C2694 C2691 1.363 . S
C2694 N2692 1.356 . S
C2695 C2689 1.363 . S
C2695 C2690 1.379 . S
C2695 N2693 1.356 . S
N2696 C2688 1.356 . S
N2696 H2702 0.984 . S
N2696 H2703 0.984 . S
N2697 C2690 1.356 . S
N2697 H2700 0.984 . S
N2697 H2701 0.985 . S
H2698 N2693 0.984 . S
H2699 N2693 0.985 . S
H2700 N2697 0.984 . S
H2701 N2697 0.985 . S
H2702 N2696 0.984 . S
H2703 N2696 0.984 . S
H2704 N2692 0.984 . S
H2705 N2692 0.985 . S
C2706 C2707 1.363 . S
C2706 C2712 1.379 . S
C2706 N2714 1.356 1_556 S
C2707 C2706 1.363 . S
C2707 C2713 1.363 . S
C2708 C2709 1.363 . S
C2708 C2713 1.379 . S
C2708 N2715 1.356 . S
C2709 C2708 1.363 . S
C2709 C2712 1.363 . S
N2710 C2712 1.356 . S
N2710 H2722 0.984 . S
N2710 H2723 0.985 . S
N2711 C2713 1.356 . S
N2711 H2716 0.984 . S
N2711 H2717 0.985 . S
C2712 C2706 1.379 . S
C2712 C2709 1.363 . S
C2712 N2710 1.356 . S
C2713 C2707 1.363 . S
C2713 C2708 1.379 . S
C2713 N2711 1.356 . S
N2714 C2706 1.356 1_554 S
N2714 H2720 0.984 . S
N2714 H2721 0.984 . S
N2715 C2708 1.356 . S
N2715 H2718 0.984 . S
N2715 H2719 0.985 . S
H2716 N2711 0.984 . S
H2717 N2711 0.985 . S
H2718 N2715 0.984 . S
H2719 N2715 0.985 . S
H2720 N2714 0.984 . S
H2721 N2714 0.984 . S
H2722 N2710 0.984 . S
H2723 N2710 0.985 . S
C2724 C2725 1.363 . S
C2724 C2730 1.379 . S
C2724 N2732 1.356 . S
C2725 C2724 1.363 . S
C2725 C2731 1.363 . S
C2726 C2727 1.363 . S
C2726 C2731 1.379 . S
C2726 N2733 1.356 . S
C2727 C2726 1.363 . S
C2727 C2730 1.363 . S
N2728 C2730 1.356 . S
N2728 H2740 0.984 . S
N2728 H2741 0.985 . S
N2729 C2731 1.356 . S
N2729 H2734 0.984 . S
N2729 H2735 0.985 . S
C2730 C2724 1.379 . S
C2730 C2727 1.363 . S
C2730 N2728 1.356 . S
C2731 C2725 1.363 . S
C2731 C2726 1.379 . S
C2731 N2729 1.356 . S
N2732 C2724 1.356 . S
N2732 H2738 0.984 . S
N2732 H2739 0.984 . S
N2733 C2726 1.356 . S
N2733 H2736 0.984 . S
N2733 H2737 0.985 . S
H2734 N2729 0.984 . S
H2735 N2729 0.985 . S
H2736 N2733 0.984 . S
H2737 N2733 0.985 . S
H2738 N2732 0.984 . S
H2739 N2732 0.984 . S
H2740 N2728 0.984 . S
H2741 N2728 0.985 . S
C2742 C2743 1.363 . S
C2742 C2748 1.379 . S
C2742 N2750 1.356 . S
C2743 C2742 1.363 . S
C2743 C2749 1.363 . S
C2744 C2745 1.363 . S
C2744 C2749 1.379 . S
C2744 N2751 1.356 . S
C2745 C2744 1.363 . S
C2745 C2748 1.363 . S
N2746 C2748 1.356 . S
N2746 H2758 0.984 . S
N2746 H2759 0.985 . S
N2747 C2749 1.356 . S
N2747 H2752 0.984 . S
N2747 H2753 0.985 . S
C2748 C2742 1.379 . S
C2748 C2745 1.363 . S
C2748 N2746 1.356 . S
C2749 C2743 1.363 . S
C2749 C2744 1.379 . S
C2749 N2747 1.356 . S
N2750 C2742 1.356 . S
N2750 H2756 0.984 . S
N2750 H2757 0.984 . S
N2751 C2744 1.356 . S
N2751 H2754 0.984 . S
N2751 H2755 0.985 . S
H2752 N2747 0.984 . S
H2753 N2747 0.985 . S
H2754 N2751 0.984 . S
H2755 N2751 0.985 . S
H2756 N2750 0.984 . S
H2757 N2750 0.984 . S
H2758 N2746 0.984 . S
H2759 N2746 0.985 . S
C2760 C2761 1.363 . S
C2760 C2766 1.379 . S
C2760 N2768 1.356 . S
C2761 C2760 1.363 . S
C2761 C2767 1.363 . S
C2762 C2763 1.363 . S
C2762 C2767 1.379 . S
C2762 N2769 1.356 . S
C2763 C2762 1.363 . S
C2763 C2766 1.363 . S
N2764 C2766 1.356 . S
N2764 H2776 0.984 . S
N2764 H2777 0.985 . S
N2765 C2767 1.356 . S
N2765 H2770 0.984 . S
N2765 H2771 0.985 . S
C2766 C2760 1.379 . S
C2766 C2763 1.363 . S
C2766 N2764 1.356 . S
C2767 C2761 1.363 . S
C2767 C2762 1.379 . S
C2767 N2765 1.356 . S
N2768 C2760 1.356 . S
N2768 H2774 0.984 . S
N2768 H2775 0.984 . S
N2769 C2762 1.356 . S
N2769 H2772 0.984 . S
N2769 H2773 0.985 . S
H2770 N2765 0.984 . S
H2771 N2765 0.985 . S
H2772 N2769 0.984 . S
H2773 N2769 0.985 . S
H2774 N2768 0.984 . S
H2775 N2768 0.984 . S
H2776 N2764 0.984 . S
H2777 N2764 0.985 . S
C2778 C2779 1.363 . S
C2778 C2784 1.379 . S
C2778 N2786 1.356 . S
C2779 C2778 1.363 . S
C2779 C2785 1.363 . S
C2780 C2781 1.363 . S
C2780 C2785 1.379 . S
C2780 N2787 1.356 . S
C2781 C2780 1.363 . S
C2781 C2784 1.363 . S
N2782 C2784 1.356 . S
N2782 H2794 0.984 . S
N2782 H2795 0.985 . S
N2783 C2785 1.356 . S
N2783 H2788 0.984 . S
N2783 H2789 0.985 . S
C2784 C2778 1.379 . S
C2784 C2781 1.363 . S
C2784 N2782 1.356 . S
C2785 C2779 1.363 . S
C2785 C2780 1.379 . S
C2785 N2783 1.356 . S
N2786 C2778 1.356 . S
N2786 H2792 0.984 . S
N2786 H2793 0.984 . S
N2787 C2780 1.356 . S
N2787 H2790 0.984 . S
N2787 H2791 0.985 . S
H2788 N2783 0.984 . S
H2789 N2783 0.985 . S
H2790 N2787 0.984 . S
H2791 N2787 0.985 . S
H2792 N2786 0.984 . S
H2793 N2786 0.984 . S
H2794 N2782 0.984 . S
H2795 N2782 0.985 . S
C2796 C2797 1.363 . S
C2796 C2802 1.379 . S
C2796 N2804 1.356 . S
C2797 C2796 1.363 . S
C2797 C2803 1.363 . S
C2798 C2799 1.363 . S
C2798 C2803 1.379 . S
C2798 N2805 1.356 . S
C2799 C2798 1.363 . S
C2799 C2802 1.363 . S
N2800 C2802 1.356 . S
N2800 H2812 0.984 . S
N2800 H2813 0.985 . S
N2801 C2803 1.356 . S
N2801 H2806 0.984 . S
N2801 H2807 0.985 . S
C2802 C2796 1.379 . S
C2802 C2799 1.363 . S
C2802 N2800 1.356 . S
C2803 C2797 1.363 . S
C2803 C2798 1.379 . S
C2803 N2801 1.356 . S
N2804 C2796 1.356 . S
N2804 H2810 0.984 . S
N2804 H2811 0.984 . S
N2805 C2798 1.356 . S
N2805 H2808 0.984 . S
N2805 H2809 0.985 . S
H2806 N2801 0.984 . S
H2807 N2801 0.985 . S
H2808 N2805 0.984 . S
H2809 N2805 0.985 . S
H2810 N2804 0.984 . S
H2811 N2804 0.984 . S
H2812 N2800 0.984 . S
H2813 N2800 0.985 . S
C2814 C2815 1.363 . S
C2814 C2820 1.379 . S
C2814 N2822 1.356 . S
C2815 C2814 1.363 . S
C2815 C2821 1.363 . S
C2816 C2817 1.363 . S
C2816 C2821 1.379 . S
C2816 N2823 1.356 . S
C2817 C2816 1.363 . S
C2817 C2820 1.363 . S
N2818 C2820 1.356 . S
N2818 H2830 0.984 . S
N2818 H2831 0.985 . S
N2819 C2821 1.356 . S
N2819 H2824 0.984 . S
N2819 H2825 0.985 . S
C2820 C2814 1.379 . S
C2820 C2817 1.363 . S
C2820 N2818 1.356 . S
C2821 C2815 1.363 . S
C2821 C2816 1.379 . S
C2821 N2819 1.356 . S
N2822 C2814 1.356 . S
N2822 H2828 0.984 . S
N2822 H2829 0.984 . S
N2823 C2816 1.356 . S
N2823 H2826 0.984 . S
N2823 H2827 0.985 . S
H2824 N2819 0.984 . S
H2825 N2819 0.985 . S
H2826 N2823 0.984 . S
H2827 N2823 0.985 . S
H2828 N2822 0.984 . S
H2829 N2822 0.984 . S
H2830 N2818 0.984 . S
H2831 N2818 0.985 . S
C2832 C2833 1.363 . S
C2832 C2838 1.379 . S
C2832 N2840 1.356 . S
C2833 C2832 1.363 . S
C2833 C2839 1.363 . S
C2834 C2835 1.363 . S
C2834 C2839 1.379 . S
C2834 N2841 1.356 . S
C2835 C2834 1.363 . S
C2835 C2838 1.363 . S
N2836 C2838 1.356 . S
N2836 H2848 0.984 . S
N2836 H2849 0.985 . S
N2837 C2839 1.356 . S
N2837 H2842 0.984 . S
N2837 H2843 0.985 . S
C2838 C2832 1.379 . S
C2838 C2835 1.363 . S
C2838 N2836 1.356 . S
C2839 C2833 1.363 . S
C2839 C2834 1.379 . S
C2839 N2837 1.356 . S
N2840 C2832 1.356 . S
N2840 H2846 0.984 . S
N2840 H2847 0.984 . S
N2841 C2834 1.356 . S
N2841 H2844 0.984 . S
N2841 H2845 0.985 . S
H2842 N2837 0.984 . S
H2843 N2837 0.985 . S
H2844 N2841 0.984 . S
H2845 N2841 0.985 . S
H2846 N2840 0.984 . S
H2847 N2840 0.984 . S
H2848 N2836 0.984 . S
H2849 N2836 0.985 . S
C2850 C2851 1.363 . S
C2850 C2856 1.379 . S
C2850 N2858 1.356 . S
C2851 C2850 1.363 . S
C2851 C2857 1.363 . S
C2852 C2853 1.363 . S
C2852 C2857 1.379 . S
C2852 N2859 1.356 . S
C2853 C2852 1.363 . S
C2853 C2856 1.363 . S
N2854 C2856 1.356 . S
N2854 H2866 0.984 . S
N2854 H2867 0.985 . S
N2855 C2857 1.356 . S
N2855 H2860 0.984 . S
N2855 H2861 0.985 . S
C2856 C2850 1.379 . S
C2856 C2853 1.363 . S
C2856 N2854 1.356 . S
C2857 C2851 1.363 . S
C2857 C2852 1.379 . S
C2857 N2855 1.356 . S
N2858 C2850 1.356 . S
N2858 H2864 0.984 . S
N2858 H2865 0.984 . S
N2859 C2852 1.356 . S
N2859 H2862 0.984 . S
N2859 H2863 0.985 . S
H2860 N2855 0.984 . S
H2861 N2855 0.985 . S
H2862 N2859 0.984 . S
H2863 N2859 0.985 . S
H2864 N2858 0.984 . S
H2865 N2858 0.984 . S
H2866 N2854 0.984 . S
H2867 N2854 0.985 . S
C2868 C2869 1.363 . S
C2868 C2874 1.379 . S
C2868 N2876 1.356 . S
C2869 C2868 1.363 . S
C2869 C2875 1.363 . S
C2870 C2871 1.363 . S
C2870 C2875 1.379 . S
C2870 N2877 1.356 . S
C2871 C2870 1.363 . S
C2871 C2874 1.363 . S
N2872 C2874 1.356 . S
N2872 H2884 0.984 . S
N2872 H2885 0.985 . S
N2873 C2875 1.356 . S
N2873 H2878 0.984 . S
N2873 H2879 0.985 . S
C2874 C2868 1.379 . S
C2874 C2871 1.363 . S
C2874 N2872 1.356 . S
C2875 C2869 1.363 . S
C2875 C2870 1.379 . S
C2875 N2873 1.356 . S
N2876 C2868 1.356 . S
N2876 H2882 0.984 . S
N2876 H2883 0.984 . S
N2877 C2870 1.356 . S
N2877 H2880 0.984 . S
N2877 H2881 0.985 . S
H2878 N2873 0.984 . S
H2879 N2873 0.985 . S
H2880 N2877 0.984 . S
H2881 N2877 0.985 . S
H2882 N2876 0.984 . S
H2883 N2876 0.984 . S
H2884 N2872 0.984 . S
H2885 N2872 0.985 . S
C2886 C2887 1.365 1_545 S
C2886 C2892 1.379 . S
C2886 N2894 1.356 . S
C2887 C2886 1.365 1_565 S
C2887 C2893 1.364 1_554 S
C2888 C2889 1.363 1_556 S
C2888 C2893 1.379 . S
C2888 N2895 1.356 . S
C2889 C2888 1.363 1_554 S
C2889 C2892 1.363 1_565 S
N2890 C2892 1.356 . S
N2890 H2902 0.984 . S
N2890 H2903 0.985 . S
N2891 C2893 1.356 . S
N2891 H2896 0.984 . S
N2891 H2897 0.985 . S
C2892 C2886 1.379 . S
C2892 C2889 1.363 1_545 S
C2892 N2890 1.356 . S
C2893 C2887 1.364 1_556 S
C2893 C2888 1.379 . S
C2893 N2891 1.356 . S
N2894 C2886 1.356 . S
N2894 H2900 0.984 . S
N2894 H2901 0.984 . S
N2895 C2888 1.356 . S
N2895 H2898 0.984 . S
N2895 H2899 0.985 . S
H2896 N2891 0.984 . S
H2897 N2891 0.985 . S
H2898 N2895 0.984 . S
H2899 N2895 0.985 . S
H2900 N2894 0.984 . S
H2901 N2894 0.984 . S
H2902 N2890 0.984 . S
H2903 N2890 0.985 . S
C2904 C2905 1.363 . S
C2904 C2910 1.379 . S
C2904 N2912 1.356 . S
C2905 C2904 1.363 . S
C2905 C2911 1.363 . S
C2906 C2907 1.363 . S
C2906 C2911 1.379 . S
C2906 N2913 1.356 . S
C2907 C2906 1.363 . S
C2907 C2910 1.363 . S
N2908 C2910 1.356 . S
N2908 H2920 0.984 . S
N2908 H2921 0.985 . S
N2909 C2911 1.356 . S
N2909 H2914 0.984 . S
N2909 H2915 0.985 . S
C2910 C2904 1.379 . S
C2910 C2907 1.363 . S
C2910 N2908 1.356 . S
C2911 C2905 1.363 . S
C2911 C2906 1.379 . S
C2911 N2909 1.356 . S
N2912 C2904 1.356 . S
N2912 H2918 0.984 . S
N2912 H2919 0.984 . S
N2913 C2906 1.356 . S
N2913 H2916 0.984 . S
N2913 H2917 0.985 . S
H2914 N2909 0.984 . S
H2915 N2909 0.985 . S
H2916 N2913 0.984 . S
H2917 N2913 0.985 . S
H2918 N2912 0.984 . S
H2919 N2912 0.984 . S
H2920 N2908 0.984 . S
H2921 N2908 0.985 . S
C2922 C2923 1.363 . S
C2922 C2928 1.379 . S
C2922 N2930 1.356 . S
C2923 C2922 1.363 . S
C2923 C2929 1.363 1_554 S
C2924 C2925 1.363 . S
C2924 C2929 1.379 1_554 S
C2924 N2931 1.356 . S
C2925 C2924 1.363 . S
C2925 C2928 1.363 . S
N2926 C2928 1.356 . S
N2926 H2938 0.984 . S
N2926 H2939 0.985 . S
N2927 C2929 1.356 . S
N2927 H2932 0.984 . S
N2927 H2933 0.985 . S
C2928 C2922 1.379 . S
C2928 C2925 1.363 . S
C2928 N2926 1.356 . S
C2929 C2923 1.363 1_556 S
C2929 C2924 1.379 1_556 S
C2929 N2927 1.356 . S
N2930 C2922 1.356 . S
N2930 H2936 0.984 . S
N2930 H2937 0.984 . S
N2931 C2924 1.356 . S
N2931 H2934 0.984 . S
N2931 H2935 0.985 1_554 S
H2932 N2927 0.984 . S
H2933 N2927 0.985 . S
H2934 N2931 0.984 . S
H2935 N2931 0.985 1_556 S
H2936 N2930 0.984 . S
H2937 N2930 0.984 . S
H2938 N2926 0.984 . S
H2939 N2926 0.985 . S
C2940 C2941 1.363 . S
C2940 C2946 1.379 . S
C2940 N2948 1.356 . S
C2941 C2940 1.363 . S
C2941 C2947 1.363 . S
C2942 C2943 1.363 . S
C2942 C2947 1.379 . S
C2942 N2949 1.356 . S
C2943 C2942 1.363 . S
C2943 C2946 1.363 . S
N2944 C2946 1.356 . S
N2944 H2956 0.984 . S
N2944 H2957 0.985 . S
N2945 C2947 1.356 . S
N2945 H2950 0.984 . S
N2945 H2951 0.985 . S
C2946 C2940 1.379 . S
C2946 C2943 1.363 . S
C2946 N2944 1.356 . S
C2947 C2941 1.363 . S
C2947 C2942 1.379 . S
C2947 N2945 1.356 . S
N2948 C2940 1.356 . S
N2948 H2954 0.984 . S
N2948 H2955 0.984 . S
N2949 C2942 1.356 . S
N2949 H2952 0.984 . S
N2949 H2953 0.985 . S
H2950 N2945 0.984 . S
H2951 N2945 0.985 . S
H2952 N2949 0.984 . S
H2953 N2949 0.985 . S
H2954 N2948 0.984 . S
H2955 N2948 0.984 . S
H2956 N2944 0.984 . S
H2957 N2944 0.985 . S
C2958 C2959 1.363 . S
C2958 C2964 1.379 . S
C2958 N2966 1.356 . S
C2959 C2958 1.363 . S
C2959 C2965 1.363 . S
C2960 C2961 1.363 . S
C2960 C2965 1.379 . S
C2960 N2967 1.356 . S
C2961 C2960 1.363 . S
C2961 C2964 1.363 . S
N2962 C2964 1.356 . S
N2962 H2974 0.984 . S
N2962 H2975 0.985 . S
N2963 C2965 1.356 . S
N2963 H2968 0.984 . S
N2963 H2969 0.985 . S
C2964 C2958 1.379 . S
C2964 C2961 1.363 . S
C2964 N2962 1.356 . S
C2965 C2959 1.363 . S
C2965 C2960 1.379 . S
C2965 N2963 1.356 . S
N2966 C2958 1.356 . S
N2966 H2972 0.984 . S
N2966 H2973 0.984 . S
N2967 C2960 1.356 . S
N2967 H2970 0.984 . S
N2967 H2971 0.985 . S
H2968 N2963 0.984 . S
H2969 N2963 0.985 . S
H2970 N2967 0.984 . S
H2971 N2967 0.985 . S
H2972 N2966 0.984 . S
H2973 N2966 0.984 . S
H2974 N2962 0.984 . S
H2975 N2962 0.985 . S
C2976 C2977 1.363 . S
C2976 C2982 1.379 . S
C2976 N2984 1.356 . S
C2977 C2976 1.363 . S
C2977 C2983 1.363 . S
C2978 C2979 1.363 . S
C2978 C2983 1.379 . S
C2978 N2985 1.356 . S
C2979 C2978 1.363 . S
C2979 C2982 1.363 . S
N2980 C2982 1.356 . S
N2980 H2992 0.984 . S
N2980 H2993 0.985 . S
N2981 C2983 1.356 . S
N2981 H2986 0.984 . S
N2981 H2987 0.985 . S
C2982 C2976 1.379 . S
C2982 C2979 1.363 . S
C2982 N2980 1.356 . S
C2983 C2977 1.363 . S
C2983 C2978 1.379 . S
C2983 N2981 1.356 . S
N2984 C2976 1.356 . S
N2984 H2990 0.984 . S
N2984 H2991 0.984 . S
N2985 C2978 1.356 . S
N2985 H2988 0.984 . S
N2985 H2989 0.985 . S
H2986 N2981 0.984 . S
H2987 N2981 0.985 . S
H2988 N2985 0.984 . S
H2989 N2985 0.985 . S
H2990 N2984 0.984 . S
H2991 N2984 0.984 . S
H2992 N2980 0.984 . S
H2993 N2980 0.985 . S
C2994 C2995 1.363 . S
C2994 C3000 1.379 . S
C2994 N3002 1.356 . S
C2995 C2994 1.363 . S
C2995 C3001 1.363 . S
C2996 C2997 1.363 . S
C2996 C3001 1.379 . S
C2996 N3003 1.356 . S
C2997 C2996 1.363 . S
C2997 C3000 1.363 . S
N2998 C3000 1.356 . S
N2998 H3010 0.984 . S
N2998 H3011 0.985 . S
N2999 C3001 1.356 . S
N2999 H3004 0.984 . S
N2999 H3005 0.985 . S
C3000 C2994 1.379 . S
C3000 C2997 1.363 . S
C3000 N2998 1.356 . S
C3001 C2995 1.363 . S
C3001 C2996 1.379 . S
C3001 N2999 1.356 . S
N3002 C2994 1.356 . S
N3002 H3008 0.984 . S
N3002 H3009 0.984 . S
N3003 C2996 1.356 . S
N3003 H3006 0.984 . S
N3003 H3007 0.985 . S
H3004 N2999 0.984 . S
H3005 N2999 0.985 . S
H3006 N3003 0.984 . S
H3007 N3003 0.985 . S
H3008 N3002 0.984 . S
H3009 N3002 0.984 . S
H3010 N2998 0.984 . S
H3011 N2998 0.985 . S
C3012 C3013 1.363 . S
C3012 C3018 1.379 . S
C3012 N3020 1.356 . S
C3013 C3012 1.363 . S
C3013 C3019 1.363 . S
C3014 C3015 1.363 . S
C3014 C3019 1.379 . S
C3014 N3021 1.356 . S
C3015 C3014 1.363 . S
C3015 C3018 1.363 . S
N3016 C3018 1.356 1_556 S
N3016 H3028 0.984 . S
N3016 H3029 0.985 . S
N3017 C3019 1.356 . S
N3017 H3022 0.984 . S
N3017 H3023 0.985 . S
C3018 C3012 1.379 . S
C3018 C3015 1.363 . S
C3018 N3016 1.356 1_554 S
C3019 C3013 1.363 . S
C3019 C3014 1.379 . S
C3019 N3017 1.356 . S
N3020 C3012 1.356 . S
N3020 H3026 0.984 1_554 S
N3020 H3027 0.984 . S
N3021 C3014 1.356 . S
N3021 H3024 0.984 . S
N3021 H3025 0.985 . S
H3022 N3017 0.984 . S
H3023 N3017 0.985 . S
H3024 N3021 0.984 . S
H3025 N3021 0.985 . S
H3026 N3020 0.984 1_556 S
H3027 N3020 0.984 . S
H3028 N3016 0.984 . S
H3029 N3016 0.985 . S
C3030 C3031 1.363 . S
C3030 C3036 1.379 . S
C3030 N3038 1.356 . S
C3031 C3030 1.363 . S
C3031 C3037 1.363 . S
C3032 C3033 1.363 . S
C3032 C3037 1.379 . S
C3032 N3039 1.356 . S
C3033 C3032 1.363 . S
C3033 C3036 1.363 . S
N3034 C3036 1.356 . S
N3034 H3046 0.984 . S
N3034 H3047 0.985 . S
N3035 C3037 1.356 . S
N3035 H3040 0.984 . S
N3035 H3041 0.985 . S
C3036 C3030 1.379 . S
C3036 C3033 1.363 . S
C3036 N3034 1.356 . S
C3037 C3031 1.363 . S
C3037 C3032 1.379 . S
C3037 N3035 1.356 . S
N3038 C3030 1.356 . S
N3038 H3044 0.984 . S
N3038 H3045 0.984 . S
N3039 C3032 1.356 . S
N3039 H3042 0.984 . S
N3039 H3043 0.985 . S
H3040 N3035 0.984 . S
H3041 N3035 0.985 . S
H3042 N3039 0.984 . S
H3043 N3039 0.985 . S
H3044 N3038 0.984 . S
H3045 N3038 0.984 . S
H3046 N3034 0.984 . S
H3047 N3034 0.985 . S
C3048 C3049 1.363 . S
C3048 C3054 1.379 . S
C3048 N3056 1.356 . S
C3049 C3048 1.363 . S
C3049 C3055 1.363 . S
C3050 C3051 1.363 . S
C3050 C3055 1.379 . S
C3050 N3057 1.356 . S
C3051 C3050 1.363 . S
C3051 C3054 1.363 . S
N3052 C3054 1.356 1_554 S
N3052 H3064 0.984 . S
N3052 H3065 0.985 . S
N3053 C3055 1.356 . S
N3053 H3058 0.984 . S
N3053 H3059 0.985 . S
C3054 C3048 1.379 . S
C3054 C3051 1.363 . S
C3054 N3052 1.356 1_556 S
C3055 C3049 1.363 . S
C3055 C3050 1.379 . S
C3055 N3053 1.356 . S
N3056 C3048 1.356 . S
N3056 H3062 0.984 1_556 S
N3056 H3063 0.984 . S
N3057 C3050 1.356 . S
N3057 H3060 0.984 . S
N3057 H3061 0.985 . S
H3058 N3053 0.984 . S
H3059 N3053 0.985 . S
H3060 N3057 0.984 . S
H3061 N3057 0.985 . S
H3062 N3056 0.984 1_554 S
H3063 N3056 0.984 . S
H3064 N3052 0.984 . S
H3065 N3052 0.985 . S
C3066 C3067 1.363 . S
C3066 C3072 1.379 . S
C3066 N3074 1.356 . S
C3067 C3066 1.363 . S
C3067 C3073 1.363 . S
C3068 C3069 1.363 . S
C3068 C3073 1.379 . S
C3068 N3075 1.356 . S
C3069 C3068 1.363 . S
C3069 C3072 1.363 . S
N3070 C3072 1.356 . S
N3070 H3082 0.984 . S
N3070 H3083 0.985 . S
N3071 C3073 1.356 . S
N3071 H3076 0.984 . S
N3071 H3077 0.985 . S
C3072 C3066 1.379 . S
C3072 C3069 1.363 . S
C3072 N3070 1.356 . S
C3073 C3067 1.363 . S
C3073 C3068 1.379 . S
C3073 N3071 1.356 . S
N3074 C3066 1.356 . S
N3074 H3080 0.984 . S
N3074 H3081 0.984 . S
N3075 C3068 1.356 . S
N3075 H3078 0.984 . S
N3075 H3079 0.985 . S
H3076 N3071 0.984 . S
H3077 N3071 0.985 . S
H3078 N3075 0.984 . S
H3079 N3075 0.985 . S
H3080 N3074 0.984 . S
H3081 N3074 0.984 . S
H3082 N3070 0.984 . S
H3083 N3070 0.985 . S
C3084 C3085 1.363 . S
C3084 C3090 1.379 . S
C3084 N3092 1.356 . S
C3085 C3084 1.363 . S
C3085 C3091 1.363 . S
C3086 C3087 1.363 . S
C3086 C3091 1.379 . S
C3086 N3093 1.356 . S
C3087 C3086 1.363 . S
C3087 C3090 1.363 . S
N3088 C3090 1.356 . S
N3088 H3100 0.984 . S
N3088 H3101 0.985 . S
N3089 C3091 1.356 . S
N3089 H3094 0.984 . S
N3089 H3095 0.985 . S
C3090 C3084 1.379 . S
C3090 C3087 1.363 . S
C3090 N3088 1.356 . S
C3091 C3085 1.363 . S
C3091 C3086 1.379 . S
C3091 N3089 1.356 . S
N3092 C3084 1.356 . S
N3092 H3098 0.984 . S
N3092 H3099 0.984 . S
N3093 C3086 1.356 . S
N3093 H3096 0.984 . S
N3093 H3097 0.985 . S
H3094 N3089 0.984 . S
H3095 N3089 0.985 . S
H3096 N3093 0.984 . S
H3097 N3093 0.985 . S
H3098 N3092 0.984 . S
H3099 N3092 0.984 . S
H3100 N3088 0.984 . S
H3101 N3088 0.985 . S
C3102 C3103 1.363 . S
C3102 C3108 1.379 . S
C3102 N3110 1.356 . S
C3103 C3102 1.363 . S
C3103 C3109 1.363 . S
C3104 C3105 1.363 . S
C3104 C3109 1.379 . S
C3104 N3111 1.356 . S
C3105 C3104 1.363 . S
C3105 C3108 1.363 . S
N3106 C3108 1.356 . S
N3106 H3118 0.984 . S
N3106 H3119 0.985 . S
N3107 C3109 1.356 . S
N3107 H3112 0.984 . S
N3107 H3113 0.985 . S
C3108 C3102 1.379 . S
C3108 C3105 1.363 . S
C3108 N3106 1.356 . S
C3109 C3103 1.363 . S
C3109 C3104 1.379 . S
C3109 N3107 1.356 . S
N3110 C3102 1.356 . S
N3110 H3116 0.984 . S
N3110 H3117 0.984 . S
N3111 C3104 1.356 . S
N3111 H3114 0.984 . S
N3111 H3115 0.985 . S
H3112 N3107 0.984 . S
H3113 N3107 0.985 . S
H3114 N3111 0.984 . S
H3115 N3111 0.985 . S
H3116 N3110 0.984 . S
H3117 N3110 0.984 . S
H3118 N3106 0.984 . S
H3119 N3106 0.985 . S
C3120 C3121 1.363 . S
C3120 C3126 1.379 . S
C3120 N3128 1.356 . S
C3121 C3120 1.363 . S
C3121 C3127 1.363 . S
C3122 C3123 1.363 . S
C3122 C3127 1.379 . S
C3122 N3129 1.356 . S
C3123 C3122 1.363 . S
C3123 C3126 1.363 . S
N3124 C3126 1.356 . S
N3124 H3136 0.984 . S
N3124 H3137 0.985 . S
N3125 C3127 1.356 . S
N3125 H3130 0.984 . S
N3125 H3131 0.985 . S
C3126 C3120 1.379 . S
C3126 C3123 1.363 . S
C3126 N3124 1.356 . S
C3127 C3121 1.363 . S
C3127 C3122 1.379 . S
C3127 N3125 1.356 . S
N3128 C3120 1.356 . S
N3128 H3134 0.984 . S
N3128 H3135 0.984 . S
N3129 C3122 1.356 . S
N3129 H3132 0.984 . S
N3129 H3133 0.985 . S
H3130 N3125 0.984 . S
H3131 N3125 0.985 . S
H3132 N3129 0.984 . S
H3133 N3129 0.985 . S
H3134 N3128 0.984 . S
H3135 N3128 0.984 . S
H3136 N3124 0.984 . S
H3137 N3124 0.985 . S
C3138 C3139 1.363 . S
C3138 C3144 1.379 . S
C3138 N3146 1.356 . S
C3139 C3138 1.363 . S
C3139 C3145 1.363 . S
C3140 C3141 1.363 . S
C3140 C3145 1.379 . S
C3140 N3147 1.356 . S
C3141 C3140 1.363 . S
C3141 C3144 1.363 . S
N3142 C3144 1.356 . S
N3142 H3154 0.984 . S
N3142 H3155 0.985 . S
N3143 C3145 1.356 . S
N3143 H3148 0.984 . S
N3143 H3149 0.985 . S
C3144 C3138 1.379 . S
C3144 C3141 1.363 . S
C3144 N3142 1.356 . S
C3145 C3139 1.363 . S
C3145 C3140 1.379 . S
C3145 N3143 1.356 . S
N3146 C3138 1.356 . S
N3146 H3152 0.984 . S
N3146 H3153 0.984 . S
N3147 C3140 1.356 . S
N3147 H3150 0.984 . S
N3147 H3151 0.985 . S
H3148 N3143 0.984 . S
H3149 N3143 0.985 . S
H3150 N3147 0.984 . S
H3151 N3147 0.985 . S
H3152 N3146 0.984 . S
H3153 N3146 0.984 . S
H3154 N3142 0.984 . S
H3155 N3142 0.985 . S
C3156 C3157 1.363 . S
C3156 C3162 1.379 1_655 S
C3156 N3164 1.356 . S
C3157 C3156 1.363 . S
C3157 C3163 1.340 1_655 S
C3158 C3159 1.363 . S
C3158 C3163 1.406 . S
C3158 N3165 1.356 . S
C3159 C3158 1.363 . S
C3159 C3162 1.363 . S
N3160 C3162 1.356 . S
N3160 H3172 0.984 1_455 S
N3160 H3173 0.985 . S
N3161 C3163 1.344 1_655 S
N3161 H3166 0.984 . S
N3161 H3167 0.985 1_655 S
C3162 C3156 1.379 1_455 S
C3162 C3159 1.363 . S
C3162 N3160 1.356 . S
C3163 C3157 1.340 1_455 S
C3163 C3158 1.406 . S
C3163 N3161 1.344 1_455 S
N3164 C3156 1.356 . S
N3164 H3170 0.984 . S
N3164 H3171 0.984 . S
N3165 C3158 1.356 . S
N3165 H3168 0.984 . S
N3165 H3169 0.985 . S
H3166 N3161 0.984 . S
H3167 N3161 0.985 1_455 S
H3168 N3165 0.984 . S
H3169 N3165 0.985 . S
H3170 N3164 0.984 . S
H3171 N3164 0.984 . S
H3172 N3160 0.984 1_655 S
H3173 N3160 0.985 . S
C3174 C3175 1.363 . S
C3174 C3180 1.379 . S
C3174 N3182 1.356 . S
C3175 C3174 1.363 . S
C3175 C3181 1.363 . S
C3176 C3177 1.363 . S
C3176 C3181 1.379 . S
C3176 N3183 1.356 . S
C3177 C3176 1.363 . S
C3177 C3180 1.363 . S
N3178 C3180 1.356 . S
N3178 H3190 0.984 . S
N3178 H3191 0.985 . S
N3179 C3181 1.356 . S
N3179 H3184 0.984 . S
N3179 H3185 0.985 . S
C3180 C3174 1.379 . S
C3180 C3177 1.363 . S
C3180 N3178 1.356 . S
C3181 C3175 1.363 . S
C3181 C3176 1.379 . S
C3181 N3179 1.356 . S
N3182 C3174 1.356 . S
N3182 H3188 0.984 . S
N3182 H3189 0.984 . S
N3183 C3176 1.356 . S
N3183 H3186 0.984 . S
N3183 H3187 0.985 . S
H3184 N3179 0.984 . S
H3185 N3179 0.985 . S
H3186 N3183 0.984 . S
H3187 N3183 0.985 . S
H3188 N3182 0.984 . S
H3189 N3182 0.984 . S
H3190 N3178 0.984 . S
H3191 N3178 0.985 . S
C3192 C3193 1.363 . S
C3192 C3198 1.379 . S
C3192 N3200 1.356 . S
C3193 C3192 1.363 . S
C3193 C3199 1.363 . S
C3194 C3195 1.363 . S
C3194 C3199 1.379 . S
C3194 N3201 1.356 . S
C3195 C3194 1.363 . S
C3195 C3198 1.363 . S
N3196 C3198 1.356 . S
N3196 H3208 0.984 . S
N3196 H3209 0.985 . S
N3197 C3199 1.356 . S
N3197 H3202 0.984 . S
N3197 H3203 0.985 . S
C3198 C3192 1.379 . S
C3198 C3195 1.363 . S
C3198 N3196 1.356 . S
C3199 C3193 1.363 . S
C3199 C3194 1.379 . S
C3199 N3197 1.356 . S
N3200 C3192 1.356 . S
N3200 H3206 0.984 . S
N3200 H3207 0.984 . S
N3201 C3194 1.356 . S
N3201 H3204 0.984 . S
N3201 H3205 0.985 . S
H3202 N3197 0.984 . S
H3203 N3197 0.985 . S
H3204 N3201 0.984 . S
H3205 N3201 0.985 . S
H3206 N3200 0.984 . S
H3207 N3200 0.984 . S
H3208 N3196 0.984 . S
H3209 N3196 0.985 . S
C3210 C3211 1.363 . S
C3210 C3216 1.379 . S
C3210 N3218 1.356 . S
C3211 C3210 1.363 . S
C3211 C3217 1.363 . S
C3212 C3213 1.363 . S
C3212 C3217 1.379 . S
C3212 N3219 1.356 . S
C3213 C3212 1.363 . S
C3213 C3216 1.363 . S
N3214 C3216 1.356 . S
N3214 H3226 0.984 . S
N3214 H3227 0.985 . S
N3215 C3217 1.356 . S
N3215 H3220 0.984 . S
N3215 H3221 0.985 . S
C3216 C3210 1.379 . S
C3216 C3213 1.363 . S
C3216 N3214 1.356 . S
C3217 C3211 1.363 . S
C3217 C3212 1.379 . S
C3217 N3215 1.356 . S
N3218 C3210 1.356 . S
N3218 H3224 0.984 . S
N3218 H3225 0.984 . S
N3219 C3212 1.356 . S
N3219 H3222 0.984 . S
N3219 H3223 0.985 . S
H3220 N3215 0.984 . S
H3221 N3215 0.985 . S
H3222 N3219 0.984 . S
H3223 N3219 0.985 . S
H3224 N3218 0.984 . S
H3225 N3218 0.984 . S
H3226 N3214 0.984 . S
H3227 N3214 0.985 . S
C3228 C3229 1.363 . S
C3228 C3234 1.379 . S
C3228 N3236 1.356 . S
C3229 C3228 1.363 . S
C3229 C3235 1.363 . S
C3230 C3231 1.363 . S
C3230 C3235 1.379 . S
C3230 N3237 1.356 . S
C3231 C3230 1.363 . S
C3231 C3234 1.363 . S
N3232 C3234 1.356 1_455 S
N3232 H3244 0.984 . S
N3232 H3245 0.985 . S
N3233 C3235 1.356 . S
N3233 H3238 0.984 . S
N3233 H3239 0.985 . S
C3234 C3228 1.379 . S
C3234 C3231 1.363 . S
C3234 N3232 1.356 1_655 S
C3235 C3229 1.363 . S
C3235 C3230 1.379 . S
C3235 N3233 1.356 . S
N3236 C3228 1.356 . S
N3236 H3242 0.998 . S
N3236 H3243 0.984 . S
N3237 C3230 1.356 . S
N3237 H3240 0.984 . S
N3237 H3241 0.985 . S
H3238 N3233 0.984 . S
H3239 N3233 0.985 . S
H3240 N3237 0.984 . S
H3241 N3237 0.985 . S
H3242 N3236 0.998 . S
H3243 N3236 0.984 . S
H3244 N3232 0.984 . S
H3245 N3232 0.985 . S
C3246 C3247 1.363 . S
C3246 C3252 1.379 . S
C3246 N3254 1.356 . S
C3247 C3246 1.363 . S
C3247 C3253 1.363 . S
C3248 C3249 1.363 . S
C3248 C3253 1.379 . S
C3248 N3255 1.356 . S
C3249 C3248 1.363 . S
C3249 C3252 1.363 . S
N3250 C3252 1.356 . S
N3250 H3262 0.984 . S
N3250 H3263 0.985 . S
N3251 C3253 1.356 . S
N3251 H3256 0.984 . S
N3251 H3257 0.985 . S
C3252 C3246 1.379 . S
C3252 C3249 1.363 . S
C3252 N3250 1.356 . S
C3253 C3247 1.363 . S
C3253 C3248 1.379 . S
C3253 N3251 1.356 . S
N3254 C3246 1.356 . S
N3254 H3260 0.984 . S
N3254 H3261 0.984 . S
N3255 C3248 1.356 . S
N3255 H3258 0.984 . S
N3255 H3259 0.985 . S
H3256 N3251 0.984 . S
H3257 N3251 0.985 . S
H3258 N3255 0.984 . S
H3259 N3255 0.985 . S
H3260 N3254 0.984 . S
H3261 N3254 0.984 . S
H3262 N3250 0.984 . S
H3263 N3250 0.985 . S
C3264 C3265 1.363 . S
C3264 C3270 1.379 . S
C3264 N3272 1.356 . S
C3265 C3264 1.363 . S
C3265 C3271 1.363 . S
C3266 C3267 1.363 . S
C3266 C3271 1.379 . S
C3266 N3273 1.356 . S
C3267 C3266 1.363 . S
C3267 C3270 1.363 . S
N3268 C3270 1.356 . S
N3268 H3280 0.984 . S
N3268 H3281 0.985 . S
N3269 C3271 1.356 . S
N3269 H3274 0.984 . S
N3269 H3275 0.985 . S
C3270 C3264 1.379 . S
C3270 C3267 1.363 . S
C3270 N3268 1.356 . S
C3271 C3265 1.363 . S
C3271 C3266 1.379 . S
C3271 N3269 1.356 . S
N3272 C3264 1.356 . S
N3272 H3278 0.984 . S
N3272 H3279 0.984 . S
N3273 C3266 1.356 . S
N3273 H3276 0.984 . S
N3273 H3277 0.985 . S
H3274 N3269 0.984 . S
H3275 N3269 0.985 . S
H3276 N3273 0.984 . S
H3277 N3273 0.985 . S
H3278 N3272 0.984 . S
H3279 N3272 0.984 . S
H3280 N3268 0.984 . S
H3281 N3268 0.985 . S
C3282 C3283 1.363 . S
C3282 C3288 1.379 . S
C3282 N3290 1.356 . S
C3283 C3282 1.363 . S
C3283 C3289 1.363 . S
C3284 C3285 1.363 . S
C3284 C3289 1.379 . S
C3284 N3291 1.320 1_655 S
C3285 C3284 1.363 . S
C3285 C3288 1.363 . S
N3286 C3288 1.356 1_545 S
N3286 H3298 0.984 . S
N3286 H3299 0.985 . S
N3287 C3289 1.356 . S
N3287 H3292 0.984 . S
N3287 H3293 0.985 . S
C3288 C3282 1.379 . S
C3288 C3285 1.363 . S
C3288 N3286 1.356 1_565 S
C3289 C3283 1.363 . S
C3289 C3284 1.379 . S
C3289 N3287 1.356 . S
N3290 C3282 1.356 . S
N3290 H3296 0.984 1_565 S
N3290 H3297 0.984 . S
N3291 C3284 1.320 1_455 S
N3291 H3294 1.007 . S
N3291 H3295 1.000 . S
H3292 N3287 0.984 . S
H3293 N3287 0.985 . S
H3294 N3291 1.007 . S
H3295 N3291 1.000 . S
H3296 N3290 0.984 1_545 S
H3297 N3290 0.984 . S
H3298 N3286 0.984 . S
H3299 N3286 0.985 . S
C3300 C3301 1.363 . S
C3300 C3306 1.379 . S
C3300 N3308 1.356 . S
C3301 C3300 1.363 . S
C3301 C3307 1.363 . S
C3302 C3303 1.363 . S
C3302 C3307 1.379 . S
C3302 N3309 1.356 . S
C3303 C3302 1.363 . S
C3303 C3306 1.363 . S
N3304 C3306 1.356 . S
N3304 H3316 0.984 . S
N3304 H3317 0.985 . S
N3305 C3307 1.356 . S
N3305 H3310 0.984 . S
N3305 H3311 0.985 . S
C3306 C3300 1.379 . S
C3306 C3303 1.363 . S
C3306 N3304 1.356 . S
C3307 C3301 1.363 . S
C3307 C3302 1.379 . S
C3307 N3305 1.356 . S
N3308 C3300 1.356 . S
N3308 H3314 0.984 . S
N3308 H3315 0.984 . S
N3309 C3302 1.356 . S
N3309 H3312 0.984 . S
N3309 H3313 0.985 . S
H3310 N3305 0.984 . S
H3311 N3305 0.985 . S
H3312 N3309 0.984 . S
H3313 N3309 0.985 . S
H3314 N3308 0.984 . S
H3315 N3308 0.984 . S
H3316 N3304 0.984 . S
H3317 N3304 0.985 . S
C3318 C3319 1.363 1_556 S
C3318 C3324 1.379 . S
C3318 N3326 1.356 . S
C3319 C3318 1.363 1_554 S
C3319 C3325 1.363 . S
C3320 C3321 1.363 . S
C3320 C3325 1.379 . S
C3320 N3327 1.356 . S
C3321 C3320 1.363 . S
C3321 C3324 1.363 1_554 S
N3322 C3324 1.356 . S
N3322 H3334 0.984 . S
N3322 H3335 0.985 . S
N3323 C3325 1.356 . S
N3323 H3328 0.984 . S
N3323 H3329 0.985 . S
C3324 C3318 1.379 . S
C3324 C3321 1.363 1_556 S
C3324 N3322 1.356 . S
C3325 C3319 1.363 . S
C3325 C3320 1.379 . S
C3325 N3323 1.356 . S
N3326 C3318 1.356 . S
N3326 H3332 0.984 . S
N3326 H3333 0.984 . S
N3327 C3320 1.356 . S
N3327 H3330 0.984 . S
N3327 H3331 0.985 . S
H3328 N3323 0.984 . S
H3329 N3323 0.985 . S
H3330 N3327 0.984 . S
H3331 N3327 0.985 . S
H3332 N3326 0.984 . S
H3333 N3326 0.984 . S
H3334 N3322 0.984 . S
H3335 N3322 0.985 . S
C3336 C3337 1.363 . S
C3336 C3342 1.379 . S
C3336 N3344 1.356 . S
C3337 C3336 1.363 . S
C3337 C3343 1.363 . S
C3338 C3339 1.363 . S
C3338 C3343 1.379 . S
C3338 N3345 1.356 . S
C3339 C3338 1.363 . S
C3339 C3342 1.363 . S
N3340 C3342 1.356 . S
N3340 H3352 0.984 . S
N3340 H3353 0.985 . S
N3341 C3343 1.356 . S
N3341 H3346 0.984 . S
N3341 H3347 0.985 . S
C3342 C3336 1.379 . S
C3342 C3339 1.363 . S
C3342 N3340 1.356 . S
C3343 C3337 1.363 . S
C3343 C3338 1.379 . S
C3343 N3341 1.356 . S
N3344 C3336 1.356 . S
N3344 H3350 0.984 . S
N3344 H3351 0.984 . S
N3345 C3338 1.356 . S
N3345 H3348 0.984 . S
N3345 H3349 0.985 . S
H3346 N3341 0.984 . S
H3347 N3341 0.985 . S
H3348 N3345 0.984 . S
H3349 N3345 0.985 . S
H3350 N3344 0.984 . S
H3351 N3344 0.984 . S
H3352 N3340 0.984 . S
H3353 N3340 0.985 . S
C3354 C3355 1.363 . S
C3354 C3360 1.379 . S
C3354 N3362 1.356 . S
C3355 C3354 1.363 . S
C3355 C3361 1.363 1_554 S
C3356 C3357 1.376 . S
C3356 C3361 1.379 . S
C3356 N3363 1.356 . S
C3357 C3356 1.376 . S
C3357 C3360 1.334 1_556 S
N3358 C3360 1.356 . S
N3358 H3370 0.984 . S
N3358 H3371 0.985 . S
N3359 C3361 1.356 . S
N3359 H3364 0.959 1_556 S
N3359 H3365 0.985 . S
C3360 C3354 1.379 . S
C3360 C3357 1.334 1_554 S
C3360 N3358 1.356 . S
C3361 C3355 1.363 1_556 S
C3361 C3356 1.379 . S
C3361 N3359 1.356 . S
N3362 C3354 1.356 . S
N3362 H3368 0.984 . S
N3362 H3369 0.984 . S
N3363 C3356 1.356 . S
N3363 H3366 0.984 . S
N3363 H3367 0.985 . S
H3364 N3359 0.959 1_554 S
H3365 N3359 0.985 . S
H3366 N3363 0.984 . S
H3367 N3363 0.985 . S
H3368 N3362 0.984 . S
H3369 N3362 0.984 . S
H3370 N3358 0.984 . S
H3371 N3358 0.985 . S
C3372 C3373 1.363 . S
C3372 C3378 1.379 . S
C3372 N3380 1.356 . S
C3373 C3372 1.363 . S
C3373 C3379 1.363 . S
C3374 C3375 1.363 . S
C3374 C3379 1.379 . S
C3374 N3381 1.356 . S
C3375 C3374 1.363 . S
C3375 C3378 1.363 . S
N3376 C3378 1.356 . S
N3376 H3388 0.984 . S
N3376 H3389 0.985 . S
N3377 C3379 1.356 . S
N3377 H3382 0.984 . S
N3377 H3383 0.985 . S
C3378 C3372 1.379 . S
C3378 C3375 1.363 . S
C3378 N3376 1.356 . S
C3379 C3373 1.363 . S
C3379 C3374 1.379 . S
C3379 N3377 1.356 . S
N3380 C3372 1.356 . S
N3380 H3386 0.984 . S
N3380 H3387 0.984 . S
N3381 C3374 1.356 . S
N3381 H3384 0.984 . S
N3381 H3385 0.985 . S
H3382 N3377 0.984 . S
H3383 N3377 0.985 . S
H3384 N3381 0.984 . S
H3385 N3381 0.985 . S
H3386 N3380 0.984 . S
H3387 N3380 0.984 . S
H3388 N3376 0.984 . S
H3389 N3376 0.985 . S
C3390 C3391 1.363 . S
C3390 C3396 1.379 . S
C3390 N3398 1.356 . S
C3391 C3390 1.363 . S
C3391 C3397 1.363 . S
C3392 C3393 1.363 . S
C3392 C3397 1.379 . S
C3392 N3399 1.356 . S
C3393 C3392 1.363 . S
C3393 C3396 1.363 . S
N3394 C3396 1.356 . S
N3394 H3406 0.984 . S
N3394 H3407 0.985 . S
N3395 C3397 1.356 . S
N3395 H3400 0.984 . S
N3395 H3401 0.985 . S
C3396 C3390 1.379 . S
C3396 C3393 1.363 . S
C3396 N3394 1.356 . S
C3397 C3391 1.363 . S
C3397 C3392 1.379 . S
C3397 N3395 1.356 . S
N3398 C3390 1.356 . S
N3398 H3404 0.984 . S
N3398 H3405 0.984 . S
N3399 C3392 1.356 . S
N3399 H3402 0.984 . S
N3399 H3403 0.985 . S
H3400 N3395 0.984 . S
H3401 N3395 0.985 . S
H3402 N3399 0.984 . S
H3403 N3399 0.985 . S
H3404 N3398 0.984 . S
H3405 N3398 0.984 . S
H3406 N3394 0.984 . S
H3407 N3394 0.985 . S
C1681 C109 2.027 . S
C1683 C392 1.882 . S
C1699 C61 1.947 . S
C1701 C483 2.120 . S
C1717 C74 1.740 . S
C1719 C560 1.716 . S
C1737 C658 1.337 . S
C1735 C96 1.471 . S
C1753 C25 1.530 1_455 S
C1755 C742 1.521 . S
C1773 C814 0.983 . S
C1771 C40 1.083 . S
C1791 C903 1.409 . S
C1789 C46 1.359 . S
C1807 C5 1.183 . S
C1809 C980 1.501 . S
C1827 C399 1.985 . S
C1825 C229 1.786 . S
C1843 C249 0.785 . S
C1845 C490 0.779 . S
C1863 C567 1.087 . S
C1861 C271 0.922 . S
C1881 C644 1.799 . S
C1879 C172 1.819 . S
C1897 C236 2.137 1_455 S
C1899 C728 1.955 . S
C1917 C830 1.316 . S
C1915 C242 1.379 . S
C1935 C910 0.798 . S
C1933 C278 0.829 . S
C1953 C987 1.733 . S
C1951 C179 1.907 . S
C1971 C406 1.392 . S
C1969 C159 1.135 . S
C1987 C285 1.596 . S
C1989 C1071 1.735 1_556 S
C2007 C1159 2.231 . S
C2005 C333 2.385 . S
C2025 C1232 0.724 1_655 S
C2023 C320 0.726 . S
C2041 C123 1.242 . S
C2043 C994 1.286 . S
C2059 C138 1.519 . S
C2061 C574 1.510 . S
C2077 C326 2.258 . S
C2079 C1323 2.195 . S
C2097 C1400 0.753 . S
C2095 C298 0.754 . S
C2115 C403 1.832 . S
C2113 C67 1.887 . S
C2133 C1418 2.086 . S
C2131 C110 2.135 . S
C2149 C88 1.700 . S
C2151 C571 1.689 . S
C2167 C75 1.179 . S
C2169 C1318 1.250 . S
C2187 C730 1.512 . S
C2185 C11 1.419 . S
C2203 C47 0.989 . S
C2205 C1162 0.962 . S
C2223 C914 1.242 . S
C2221 C32 0.984 . S
C2241 C1495 1.555 . S
C2239 C26 1.814 . S
C2259 C410 2.065 . S
C2257 C152 2.192 . S
C2277 C1402 0.787 . S
C2275 C319 0.792 . S
C2293 C124 1.136 . S
C2295 C578 1.087 . S
C2311 C284 1.848 . S
C2313 C1327 1.815 . S
C2329 C145 2.038 . S
C2331 C739 1.945 . S
C2349 C1155 1.228 . S
C2347 C312 1.306 . S
C2365 C117 0.740 1_565 S
C2367 C898 0.732 . S
C2383 C291 1.774 . S
C2385 C1502 1.635 . S
C2401 C194 1.474 . S
C2403 C394 1.458 1_554 S
C2419 C180 1.797 . S
C2421 C1082 1.718 . S
C2437 C263 2.277 . S
C2439 C812 2.118 . S
C2455 C243 0.732 . S
C2457 C1243 0.719 . S
C2475 C1486 1.547 . S
C2473 C277 1.278 . S
C2491 C215 1.427 . S
C2493 C562 1.515 . S
C2511 C662 2.114 . S
C2509 C256 2.128 . S
C2529 C487 0.835 . S
C2527 C200 0.853 . S
C2545 C81 2.027 . S
C2547 C1568 1.882 . S
C2565 C1407 2.119 . S
C2563 C89 1.946 . S
C2581 C102 1.740 . S
C2583 C1652 1.715 . S
C2599 C68 1.471 . S
C2601 C1330 1.337 . S
C2617 C53 1.530 . S
C2619 C1078 1.523 . S
C2637 C1150 0.982 1_455 S
C2635 C12 1.083 . S
C2655 C1239 1.409 . S
C2653 C18 1.357 . S
C2673 C1484 1.501 . S
C2671 C33 1.183 . S
C2691 C1575 1.985 . S
C2689 C257 1.786 . S
C2707 C193 0.785 . S
C2709 C1414 0.779 . S
C2727 C1659 1.088 . S
C2725 C201 0.922 . S
C2745 C1316 1.800 . S
C2743 C214 1.820 . S
C2763 C1064 1.955 . S
C2761 C264 2.137 . S
C2779 C186 1.378 . S
C2781 C1166 1.315 . S
C2799 C1246 0.798 . S
C2797 C208 0.829 . S
C2815 C221 1.908 . S
C2817 C1491 1.733 . S
C2835 C1582 1.392 . S
C2833 C313 1.135 . S
C2851 C131 1.596 . S
C2853 C735 1.735 . S
C2871 C823 2.232 . S
C2869 C151 2.390 . S
C2889 C896 0.724 . S
C2887 C166 0.729 . S
C2907 C1498 1.285 . S
C2905 C305 1.241 . S
C2923 C292 1.518 . S
C2925 C1666 1.510 . S
C2943 C651 2.194 . S
C2941 C144 2.253 . S
C2961 C476 0.753 . S
C2959 C116 0.754 . S
C2977 C95 1.887 . S
C2979 C1579 1.832 . S
C2997 C494 2.086 . S
C2995 C82 2.135 . S
C3013 C60 1.700 . S
C3015 C1663 1.689 . S
C3031 C103 1.179 . S
C3033 C646 1.250 . S
C3049 C39 1.419 . S
C3051 C1066 1.512 . S
C3069 C826 0.961 . S
C3067 C19 0.987 . S
C3085 C4 0.984 . S
C3087 C1250 1.242 . S
C3103 C54 1.812 . S
C3105 C991 1.555 . S
C3123 C1586 2.066 . S
C3121 C334 2.192 . S
C3139 C165 0.792 . S
C3141 C478 0.787 . S
C3159 C1670 1.086 . S
C3157 C306 1.136 . S
C3175 C130 1.849 . S
C3177 C655 1.816 . S
C3193 C327 2.039 . S
C3195 C1075 1.947 . S
C3213 C819 1.228 . S
C3211 C158 1.306 . S
C3229 C299 0.740 . S
C3231 C1234 0.734 . S
C3249 C998 1.635 . S
C3247 C137 1.774 . S
C3267 C1570 1.458 . S
C3265 C250 1.474 . S
C3285 C746 1.719 1_665 S
C3283 C222 1.797 . S
C3301 C235 2.277 . S
C3303 C1148 2.117 . S
C3321 C907 0.719 . S
C3319 C187 0.732 . S
C3337 C207 1.277 . S
C3339 C982 1.546 . S
C3355 C173 1.427 . S
C3357 C1654 1.536 . S
C3375 C1334 2.114 . S
C3373 C228 2.129 1_565 S
C3393 C1411 0.836 . S
C3391 C270 0.854 . S
