# Generated by pormake.
# Topology pyr, (3,6)-cn, num edge types: 1
# Building blocks:
#     Node 0, Type 0, BuildingBlock: WUSLED_clean_sbu_0, # of connection points: 3
#     Node 1, Type 0, BuildingBlock: WUSLED_clean_sbu_0, # of connection points: 3
#     Node 2, Type 0, BuildingBlock: WUSLED_clean_sbu_0, # of connection points: 3
#     Node 3, Type 0, BuildingBlock: WUSLED_clean_sbu_0, # of connection points: 3
#     Node 4, Type 0, BuildingBlock: WUSLED_clean_sbu_0, # of connection points: 3
#     Node 5, Type 0, BuildingBlock: WUSLED_clean_sbu_0, # of connection points: 3
#     Node 6, Type 0, BuildingBlock: WUSLED_clean_sbu_0, # of connection points: 3
#     Node 7, Type 0, BuildingBlock: WUSLED_clean_sbu_0, # of connection points: 3
#     Node 8, Type 1, BuildingBlock: MIFKUJ_clean_sbu_0, # of connection points: 6
#     Node 9, Type 1, BuildingBlock: MIFKUJ_clean_sbu_0, # of connection points: 6
#     Node 10, Type 1, BuildingBlock: MIFKUJ_clean_sbu_0, # of connection points: 6
#     Node 11, Type 1, BuildingBlock: MIFKUJ_clean_sbu_0, # of connection points: 6
#     Edge 12, Type (0, 1), BuildingBlock: EZIPEK_clean_linker_0, # of connection points: 2
#     Edge 13, Type (0, 1), BuildingBlock: EZIPEK_clean_linker_0, # of connection points: 2
#     Edge 14, Type (0, 1), BuildingBlock: EZIPEK_clean_linker_0, # of connection points: 2
#     Edge 15, Type (0, 1), BuildingBlock: EZIPEK_clean_linker_0, # of connection points: 2
#     Edge 16, Type (0, 1), BuildingBlock: EZIPEK_clean_linker_0, # of connection points: 2
#     Edge 17, Type (0, 1), BuildingBlock: EZIPEK_clean_linker_0, # of connection points: 2
#     Edge 18, Type (0, 1), BuildingBlock: EZIPEK_clean_linker_0, # of connection points: 2
#     Edge 19, Type (0, 1), BuildingBlock: EZIPEK_clean_linker_0, # of connection points: 2
#     Edge 20, Type (0, 1), BuildingBlock: EZIPEK_clean_linker_0, # of connection points: 2
#     Edge 21, Type (0, 1), BuildingBlock: EZIPEK_clean_linker_0, # of connection points: 2
#     Edge 22, Type (0, 1), BuildingBlock: EZIPEK_clean_linker_0, # of connection points: 2
#     Edge 23, Type (0, 1), BuildingBlock: EZIPEK_clean_linker_0, # of connection points: 2
#     Edge 24, Type (0, 1), BuildingBlock: EZIPEK_clean_linker_0, # of connection points: 2
#     Edge 25, Type (0, 1), BuildingBlock: EZIPEK_clean_linker_0, # of connection points: 2
#     Edge 26, Type (0, 1), BuildingBlock: EZIPEK_clean_linker_0, # of connection points: 2
#     Edge 27, Type (0, 1), BuildingBlock: EZIPEK_clean_linker_0, # of connection points: 2
#     Edge 28, Type (0, 1), BuildingBlock: EZIPEK_clean_linker_0, # of connection points: 2
#     Edge 29, Type (0, 1), BuildingBlock: EZIPEK_clean_linker_0, # of connection points: 2
#     Edge 30, Type (0, 1), BuildingBlock: EZIPEK_clean_linker_0, # of connection points: 2
#     Edge 31, Type (0, 1), BuildingBlock: EZIPEK_clean_linker_0, # of connection points: 2
#     Edge 32, Type (0, 1), BuildingBlock: EZIPEK_clean_linker_0, # of connection points: 2
#     Edge 33, Type (0, 1), BuildingBlock: EZIPEK_clean_linker_0, # of connection points: 2
#     Edge 34, Type (0, 1), BuildingBlock: EZIPEK_clean_linker_0, # of connection points: 2
#     Edge 35, Type (0, 1), BuildingBlock: EZIPEK_clean_linker_0, # of connection points: 2
# Relax obj value: 0.027
# Max RMSD: 0.084
# Mean RMSD: 0.046
data_MOF--net-pyr--node1-WUSLED_clean_sbu_0--node2-MIFKUJ_clean_sbu_0--edge1-EZIPEK_clean_linker_0
_symmetry_space_group_name_H-M    P1
_symmetry_Int_Tables_number       1
_symmetry_cell_setting            triclinic
loop_
_symmetry_equiv_pos_as_xyz
'x, y, z'
_cell_length_a     40.527514
_cell_length_b     36.817465
_cell_length_c     39.159524
_cell_angle_alpha  85.123557
_cell_angle_beta   88.84666
_cell_angle_gamma 96.440133
loop_
_atom_site_label
_atom_site_type_symbol
_atom_site_fract_x
_atom_site_fract_y
_atom_site_fract_z
_atom_type_partial_charge
C0 C 0.18026 0.2464 0.13702 0.0
C1 C 0.14735 0.24695 0.14885 0.0
C2 C 0.14446 0.30475 0.11482 0.0
C3 C 0.12949 0.2759 0.13767 0.0
C4 C 0.17739 0.30434 0.10325 0.0
C5 C 0.19516 0.27529 0.11424 0.0
U6 U 0.19549 0.16779 0.202 0.0
O7 O 0.20889 0.11265 0.19451 0.0
O8 O 0.24212 0.15051 0.22206 0.0
C9 C 0.23796 0.11892 0.2085 0.0
C10 C 0.19939 0.21616 0.14846 0.0
C11 C 0.26661 0.11 0.18846 0.0
C12 C 0.30451 0.12135 0.13875 0.0
C13 C 0.27673 0.12985 0.15705 0.0
C14 C 0.31212 0.07304 0.18298 0.0
C15 C 0.3224 0.09291 0.15168 0.0
C16 C 0.2844 0.08151 0.20122 0.0
C17 C 0.13666 0.14981 0.28231 0.0
C18 C 0.11297 0.09455 0.31683 0.0
C19 C 0.11917 0.15289 0.34172 0.0
C20 C 0.13289 0.17011 0.31065 0.0
C21 C 0.10873 0.11509 0.34488 0.0
C22 C 0.12691 0.11174 0.28577 0.0
C23 C 0.14878 0.16946 0.24914 0.0
O24 O 0.21661 0.22101 0.17611 0.0
O25 O 0.1835 0.18298 0.14858 0.0
O26 O 0.1443 0.15158 0.22161 0.0
O27 O 0.17789 0.1892 0.24913 0.0
H28 H 0.13551 0.225 0.16667 0.0
H29 H 0.1041 0.27592 0.14687 0.0
H30 H 0.18925 0.32646 0.08562 0.0
H31 H 0.22055 0.27539 0.10499 0.0
H32 H 0.31224 0.13706 0.11472 0.0
H33 H 0.26328 0.152 0.14689 0.0
H34 H 0.32574 0.05113 0.19337 0.0
H35 H 0.27697 0.06598 0.22543 0.0
H36 H 0.10506 0.06533 0.31887 0.0
H37 H 0.11609 0.16913 0.36313 0.0
H38 H 0.14004 0.19948 0.30856 0.0
H39 H 0.12949 0.09535 0.26439 0.0
C40 C 0.26333 0.86372 0.62965 0.0
C41 C 0.26037 0.8961 0.64544 0.0
C42 C 0.20873 0.9031 0.61649 0.0
C43 C 0.23325 0.91573 0.63881 0.0
C44 C 0.21153 0.87056 0.60095 0.0
C45 C 0.23872 0.85099 0.6075 0.0
U46 U 0.33883 0.84553 0.68146 0.0
O47 O 0.35728 0.79372 0.7001 0.0
O48 O 0.3885 0.83378 0.66515 0.0
C49 C 0.38498 0.80084 0.68151 0.0
C50 C 0.29188 0.84306 0.63626 0.0
C51 C 0.39371 0.7711 0.66157 0.0
C52 C 0.38287 0.73082 0.61607 0.0
C53 C 0.37438 0.75977 0.63422 0.0
C54 C 0.43015 0.72465 0.65227 0.0
C55 C 0.41074 0.71304 0.62512 0.0
C56 C 0.42167 0.75352 0.67037 0.0
C57 C 0.36209 0.90074 0.75638 0.0
C58 C 0.40488 0.8832 0.79499 0.0
C59 C 0.38165 0.94052 0.7999 0.0
C60 C 0.36094 0.93312 0.77259 0.0
C61 C 0.40362 0.91551 0.81129 0.0
C62 C 0.38431 0.8759 0.76759 0.0
C63 C 0.34014 0.89296 0.72788 0.0
O64 O 0.32121 0.86201 0.63035 0.0
O65 O 0.28992 0.82196 0.6652 0.0
O66 O 0.32205 0.86086 0.7314 0.0
O67 O 0.35393 0.90087 0.69709 0.0
H68 H 0.27909 0.90621 0.66276 0.0
H69 H 0.23141 0.94081 0.65097 0.0
H70 H 0.19279 0.86052 0.58363 0.0
H71 H 0.2406 0.82599 0.59521 0.0
H72 H 0.3676 0.72205 0.59523 0.0
H73 H 0.35269 0.7731 0.62715 0.0
H74 H 0.45165 0.71111 0.65959 0.0
H75 H 0.43682 0.76198 0.69142 0.0
H76 H 0.42177 0.86371 0.8035 0.0
H77 H 0.38046 0.96558 0.81228 0.0
H78 H 0.34398 0.95258 0.76417 0.0
H79 H 0.38563 0.85084 0.75523 0.0
C80 C 0.61753 0.3799 0.74796 0.0
C81 C 0.63224 0.41639 0.74218 0.0
C82 C 0.60018 0.42498 0.69067 0.0
C83 C 0.62357 0.43879 0.71372 0.0
C84 C 0.58582 0.38841 0.69627 0.0
C85 C 0.59444 0.36608 0.7247 0.0
U86 U 0.67064 0.35336 0.82531 0.0
O87 O 0.65432 0.32994 0.87724 0.0
O88 O 0.68298 0.29858 0.84449 0.0
C89 C 0.66629 0.29868 0.87361 0.0
C90 C 0.62516 0.35596 0.77831 0.0
C91 C 0.64495 0.26445 0.88566 0.0
C92 C 0.59252 0.23207 0.90915 0.0
C93 C 0.611 0.26419 0.89423 0.0
C94 C 0.64123 0.19975 0.90622 0.0
C95 C 0.60765 0.19976 0.91565 0.0
C96 C 0.6597 0.23181 0.89145 0.0
C97 C 0.75065 0.41292 0.84557 0.0
C98 C 0.7789 0.40905 0.89991 0.0
C99 C 0.80672 0.44329 0.84988 0.0
C100 C 0.77881 0.43438 0.83046 0.0
C101 C 0.8069 0.43093 0.88477 0.0
C102 C 0.75097 0.4 0.88041 0.0
C103 C 0.72121 0.40486 0.82464 0.0
O104 O 0.6515 0.33849 0.77541 0.0
O105 O 0.62253 0.36942 0.80817 0.0
O106 O 0.69223 0.40735 0.83942 0.0
O107 O 0.72119 0.37604 0.80701 0.0
H108 H 0.65015 0.42759 0.75979 0.0
H109 H 0.6349 0.46696 0.70979 0.0
H110 H 0.56774 0.37729 0.67879 0.0
H111 H 0.58281 0.33802 0.7287 0.0
H112 H 0.56663 0.23258 0.9163 0.0
H113 H 0.59893 0.28893 0.89018 0.0
H114 H 0.65333 0.17511 0.91109 0.0
H115 H 0.68583 0.23134 0.88534 0.0
H116 H 0.77863 0.39927 0.9268 0.0
H117 H 0.82809 0.46019 0.83779 0.0
H118 H 0.7791 0.44454 0.80365 0.0
H119 H 0.72957 0.38323 0.89256 0.0
C120 C 0.78603 0.59079 0.3215 0.0
C121 C 0.7844 0.59517 0.35681 0.0
C122 C 0.72635 0.56977 0.35975 0.0
C123 C 0.75483 0.58448 0.37583 0.0
C124 C 0.72784 0.56583 0.32441 0.0
C125 C 0.75752 0.57618 0.30545 0.0
U126 U 0.86455 0.65621 0.30338 0.0
O127 O 0.91575 0.64609 0.29085 0.0
O128 O 0.88911 0.68044 0.25485 0.0
C129 C 0.91566 0.66344 0.26011 0.0
C130 C 0.81698 0.60211 0.30108 0.0
C131 C 0.92604 0.64302 0.23176 0.0
C132 C 0.91379 0.5982 0.1902 0.0
C133 C 0.90357 0.61704 0.21744 0.0
C134 C 0.96912 0.63067 0.19173 0.0
C135 C 0.94664 0.60495 0.17714 0.0
C136 C 0.95887 0.64957 0.21883 0.0
C137 C 0.87544 0.73545 0.36327 0.0
C138 C 0.92412 0.77946 0.36856 0.0
C139 C 0.8728 0.78549 0.3994 0.0
C140 C 0.85758 0.75441 0.38555 0.0
C141 C 0.90615 0.79815 0.39114 0.0
C142 C 0.9088 0.74818 0.35463 0.0
C143 C 0.85853 0.7022 0.35028 0.0
O144 O 0.81766 0.63328 0.2819 0.0
O145 O 0.84471 0.59873 0.31731 0.0
O146 O 0.87292 0.67204 0.35568 0.0
O147 O 0.84617 0.70628 0.31961 0.0
H148 H 0.80598 0.60682 0.3697 0.0
H149 H 0.7541 0.58769 0.40307 0.0
H150 H 0.70607 0.55452 0.31162 0.0
H151 H 0.75822 0.57283 0.27823 0.0
H152 H 0.89611 0.57852 0.1792 0.0
H153 H 0.87813 0.61152 0.22721 0.0
H154 H 0.99454 0.63625 0.18192 0.0
H155 H 0.97655 0.66944 0.22962 0.0
H156 H 0.94992 0.78891 0.36201 0.0
H157 H 0.85864 0.79959 0.4168 0.0
H158 H 0.83183 0.74494 0.39247 0.0
H159 H 0.92293 0.73383 0.33743 0.0
C160 C 0.84928 0.77328 0.89464 0.0
C161 C 0.87407 0.76333 0.87282 0.0
C162 C 0.88576 0.71512 0.9156 0.0
C163 C 0.89217 0.73434 0.88323 0.0
C164 C 0.86126 0.72534 0.93754 0.0
C165 C 0.8431 0.75426 0.92709 0.0
U166 U 0.83413 0.85196 0.83032 0.0
O167 O 0.78763 0.86838 0.80883 0.0
O168 O 0.81956 0.90665 0.83733 0.0
C169 C 0.79089 0.89986 0.82263 0.0
C170 C 0.82968 0.8032 0.88359 0.0
C171 C 0.76134 0.90859 0.84153 0.0
C172 C 0.73056 0.91293 0.8948 0.0
C173 C 0.75853 0.90341 0.87752 0.0
C174 C 0.70761 0.93207 0.84038 0.0
C175 C 0.70501 0.92745 0.8763 0.0
C176 C 0.7356 0.92276 0.82314 0.0
C177 C 0.89562 0.87154 0.75267 0.0
C178 C 0.88959 0.91365 0.7025 0.0
C179 C 0.94029 0.8849 0.70964 0.0
C180 C 0.92744 0.86656 0.74057 0.0
C181 C 0.92145 0.90847 0.69036 0.0
C182 C 0.87674 0.89531 0.73358 0.0
C183 C 0.88276 0.85133 0.78506 0.0
O184 O 0.84518 0.83647 0.88407 0.0
O185 O 0.81301 0.79857 0.85555 0.0
O186 O 0.85386 0.83141 0.78385 0.0
O187 O 0.88573 0.86961 0.81244 0.0
H188 H 0.87921 0.77783 0.84769 0.0
H189 H 0.91098 0.72672 0.86603 0.0
H190 H 0.85603 0.71069 0.96258 0.0
H191 H 0.8241 0.76163 0.94422 0.0
H192 H 0.72887 0.90915 0.92254 0.0
H193 H 0.778 0.89229 0.89223 0.0
H194 H 0.68809 0.94322 0.82574 0.0
H195 H 0.73725 0.92686 0.7954 0.0
H196 H 0.87475 0.93176 0.68788 0.0
H197 H 0.9649 0.88062 0.70064 0.0
H198 H 0.94233 0.84832 0.75501 0.0
H199 H 0.85213 0.89951 0.74262 0.0
C200 C 0.62224 0.16363 0.2833 0.0
C201 C 0.6435 0.16192 0.25476 0.0
C202 C 0.5971 0.13514 0.22332 0.0
C203 C 0.63094 0.14792 0.22491 0.0
C204 C 0.57608 0.13597 0.25209 0.0
C205 C 0.58854 0.15025 0.28178 0.0
U206 U 0.68389 0.17454 0.35579 0.0
O207 O 0.70514 0.22421 0.37843 0.0
O208 O 0.67405 0.18113 0.41031 0.0
C209 C 0.68933 0.21472 0.40803 0.0
C210 C 0.63425 0.18013 0.31445 0.0
C211 C 0.67006 0.24267 0.42058 0.0
C212 C 0.62788 0.28437 0.41217 0.0
C213 C 0.64485 0.25634 0.40086 0.0
C214 C 0.66054 0.28462 0.46338 0.0
C215 C 0.63582 0.29886 0.44338 0.0
C216 C 0.67757 0.25669 0.45202 0.0
C217 C 0.75772 0.1176 0.35958 0.0
C218 C 0.79509 0.11416 0.40725 0.0
C219 C 0.80654 0.08538 0.3555 0.0
C220 C 0.77798 0.09732 0.34104 0.0
C221 C 0.8152 0.09356 0.38872 0.0
C222 C 0.7665 0.12621 0.39271 0.0
C223 C 0.72743 0.12903 0.34399 0.0
O224 O 0.63208 0.15794 0.34272 0.0
O225 O 0.66221 0.2022 0.31115 0.0
O226 O 0.72982 0.16297 0.32994 0.0
O227 O 0.69967 0.11922 0.36205 0.0
H228 H 0.66965 0.17184 0.25529 0.0
H229 H 0.64748 0.14752 0.2029 0.0
H230 H 0.54989 0.12628 0.25125 0.0
H231 H 0.57174 0.1513 0.30347 0.0
H232 H 0.60902 0.29524 0.39634 0.0
H233 H 0.63875 0.24577 0.37649 0.0
H234 H 0.66708 0.29567 0.48743 0.0
H235 H 0.69695 0.24646 0.46751 0.0
H236 H 0.80144 0.12064 0.43294 0.0
H237 H 0.82178 0.0695 0.3409 0.0
H238 H 0.77157 0.0905 0.31544 0.0
H239 H 0.75114 0.14195 0.40733 0.0
C240 C 0.29033 0.60248 0.18626 0.0
C241 C 0.2825 0.62697 0.15889 0.0
C242 C 0.23352 0.5855 0.14759 0.0
C243 C 0.25425 0.61851 0.13965 0.0
C244 C 0.24154 0.56103 0.17483 0.0
C245 C 0.2697 0.56948 0.19402 0.0
U246 U 0.36935 0.66356 0.20613 0.0
O247 O 0.38897 0.67859 0.25561 0.0
O248 O 0.41821 0.64844 0.22232 0.0
C249 C 0.41579 0.66204 0.25212 0.0
C250 C 0.3198 0.61078 0.20698 0.0
C251 C 0.42533 0.63924 0.28246 0.0
C252 C 0.41166 0.59659 0.33315 0.0
C253 C 0.40182 0.61581 0.30322 0.0
C254 C 0.46855 0.62338 0.32144 0.0
C255 C 0.44509 0.60053 0.3426 0.0
C256 C 0.45875 0.64252 0.29166 0.0
C257 C 0.39311 0.75342 0.14675 0.0
C258 C 0.44414 0.78669 0.12067 0.0
C259 C 0.39623 0.81894 0.12963 0.0
C260 C 0.37844 0.78632 0.14412 0.0
C261 C 0.42901 0.81926 0.11728 0.0
C262 C 0.42637 0.75401 0.13532 0.0
C263 C 0.37224 0.7187 0.1584 0.0
O264 O 0.34866 0.60935 0.19153 0.0
O265 O 0.31948 0.63931 0.22496 0.0
O266 O 0.35564 0.71799 0.18769 0.0
O267 O 0.38465 0.68782 0.15417 0.0
H268 H 0.29818 0.65256 0.15248 0.0
H269 H 0.24849 0.63768 0.11868 0.0
H270 H 0.22588 0.53543 0.18129 0.0
H271 H 0.27536 0.55024 0.21499 0.0
H272 H 0.39319 0.57915 0.34921 0.0
H273 H 0.37589 0.61288 0.29662 0.0
H274 H 0.4944 0.62684 0.32832 0.0
H275 H 0.47725 0.6605 0.27607 0.0
H276 H 0.46939 0.7864 0.11118 0.0
H277 H 0.3841 0.84376 0.12713 0.0
H278 H 0.35281 0.7866 0.1524 0.0
H279 H 0.43839 0.72913 0.13683 0.0
C280 C 0.10932 0.269 0.71257 0.0
C281 C 0.08266 0.26823 0.6901 0.0
C282 C 0.09642 0.21064 0.67071 0.0
C283 C 0.07633 0.23934 0.66923 0.0
C284 C 0.12247 0.21074 0.69371 0.0
C285 C 0.12895 0.23968 0.71442 0.0
U286 U 0.16927 0.35077 0.73113 0.0
O287 O 0.16177 0.40742 0.74041 0.0
O288 O 0.18529 0.37316 0.77927 0.0
C289 C 0.17333 0.40447 0.77155 0.0
C290 C 0.1174 0.30126 0.73238 0.0
C291 C 0.15295 0.41719 0.79871 0.0
C292 C 0.10046 0.41658 0.8301 0.0
C293 C 0.11917 0.40407 0.80393 0.0
C294 C 0.14913 0.4552 0.84612 0.0
C295 C 0.11537 0.44218 0.85141 0.0
C296 C 0.16776 0.4428 0.81994 0.0
C297 C 0.25049 0.36406 0.67614 0.0
C298 C 0.29197 0.41725 0.6743 0.0
C299 C 0.301 0.36626 0.64123 0.0
C300 C 0.27053 0.34784 0.6536 0.0
C301 C 0.31178 0.40118 0.6513 0.0
C302 C 0.26145 0.39876 0.68671 0.0
C303 C 0.21788 0.34475 0.68727 0.0
O304 O 0.14169 0.29933 0.75402 0.0
O305 O 0.11874 0.33336 0.71459 0.0
O306 O 0.19219 0.36235 0.67946 0.0
O307 O 0.21575 0.32839 0.71852 0.0
H308 H 0.06714 0.29039 0.68819 0.0
H309 H 0.05608 0.23959 0.6516 0.0
H310 H 0.13818 0.18874 0.69514 0.0
H311 H 0.14973 0.23933 0.73136 0.0
H312 H 0.07444 0.40622 0.83388 0.0
H313 H 0.10736 0.38418 0.78785 0.0
H314 H 0.16104 0.47487 0.86235 0.0
H315 H 0.1938 0.45315 0.81632 0.0
H316 H 0.29997 0.44424 0.68224 0.0
H317 H 0.31597 0.35357 0.62344 0.0
H318 H 0.26239 0.32109 0.64518 0.0
H319 H 0.24622 0.41165 0.7041 0.0
Zn320 Zn 0.05298 0.02876 0.54907 0.0
Zn321 Zn 0.97426 0.9934 0.48457 0.0
C322 C 0.0835 0.09155 0.58245 0.0
O323 O 0.11086 0.0841 0.56739 0.0
C324 C 0.94553 0.92567 0.46236 0.0
O325 O 0.92172 0.93201 0.48355 0.0
O326 O 0.09094 0.99851 0.5593 0.0
O327 O 1.01058 0.99774 0.56467 0.0
O328 O 0.96726 0.97715 0.53501 0.0
C329 C 0.09905 0.98894 0.58965 0.0
O330 O 0.0823 0.99867 0.61577 0.0
O331 O 0.05621 0.07226 0.5778 0.0
C332 C 0.93377 0.03689 0.44083 0.0
O333 O 0.95995 0.04051 0.42001 0.0
O334 O 0.93443 0.01887 0.46993 0.0
O335 O 0.01615 0.02611 0.46854 0.0
O336 O 0.05864 0.04747 0.49919 0.0
O337 O 0.97199 0.94788 0.45888 0.0
C338 C 0.98205 0.97987 0.56315 0.0
C339 C 0.04423 0.04488 0.47082 0.0
Zn340 Zn 0.5275 0.98206 0.97304 0.0
Zn341 Zn 0.49996 0.0394 0.05652 0.0
C342 C 0.48914 0.94161 0.9254 0.0
O343 O 0.50277 0.91426 0.94096 0.0
C344 C 0.5396 0.08579 0.09859 0.0
O345 O 0.53827 0.10927 0.07159 0.0
O346 O 0.56946 0.96058 0.9597 0.0
O347 O 0.53969 0.0368 0.97239 0.0
O348 O 0.52441 0.0679 0.01525 0.0
C349 C 0.58693 0.97649 0.9342 0.0
O350 O 0.57773 0.00627 0.91804 0.0
O351 O 0.49564 0.97372 0.93493 0.0
C352 C 0.43979 0.04516 0.09184 0.0
O353 O 0.45174 0.01933 0.11149 0.0
O354 O 0.45585 0.05867 0.06458 0.0
O355 O 0.49138 0.98395 0.05895 0.0
O356 O 0.50617 0.953 0.01565 0.0
O357 O 0.52594 0.05303 0.09793 0.0
C358 C 0.53861 0.06667 0.98618 0.0
C359 C 0.49347 0.95401 0.0455 0.0
Zn360 Zn 0.55811 0.49335 0.48998 0.0
Zn361 Zn 0.48046 0.52516 0.54842 0.0
C362 C 0.6026 0.52217 0.43542 0.0
O363 O 0.57659 0.51071 0.41812 0.0
C364 C 0.43472 0.48193 0.59553 0.0
O365 O 0.45523 0.49688 0.61728 0.0
O366 O 0.56035 0.44172 0.47662 0.0
O367 O 0.56225 0.49353 0.54159 0.0
O368 O 0.52111 0.50971 0.57237 0.0
C369 C 0.57876 0.42182 0.49409 0.0
O370 O 0.5916 0.43335 0.52229 0.0
O371 O 0.60077 0.51927 0.46802 0.0
C372 C 0.44693 0.58897 0.5571 0.0
O373 O 0.42942 0.57688 0.5317 0.0
O374 O 0.47071 0.57193 0.5682 0.0
O375 O 0.48078 0.53555 0.49675 0.0
O376 O 0.52151 0.51766 0.46544 0.0
O377 O 0.44103 0.48844 0.5635 0.0
C378 C 0.55 0.49957 0.57044 0.0
C379 C 0.49485 0.53263 0.46794 0.0
Zn380 Zn 0.97793 0.52506 0.98436 0.0
Zn381 Zn 0.06149 0.49943 0.04413 0.0
C382 C 0.92797 0.48778 0.94614 0.0
O383 O 0.94862 0.50323 0.92146 0.0
C384 C 0.11087 0.53423 0.085 0.0
O385 O 0.08774 0.52217 0.1085 0.0
O386 O 0.96966 0.57347 0.9589 0.0
O387 O 0.98188 0.53479 0.03453 0.0
O388 O 0.02461 0.5222 0.06685 0.0
C389 C 0.94637 0.5896 0.97086 0.0
O390 O 0.93029 0.57545 0.99919 0.0
O391 O 0.93571 0.4911 0.97719 0.0
C392 C 0.08753 0.43143 0.05656 0.0
O393 O 0.10359 0.44417 0.02781 0.0
O394 O 0.06586 0.4496 0.06882 0.0
O395 O 0.05887 0.49312 0.99325 0.0
O396 O 0.01641 0.50574 0.96049 0.0
O397 O 0.10512 0.52965 0.05369 0.0
C398 C 0.99665 0.53439 0.06294 0.0
C399 C 0.04487 0.4947 0.96442 0.0
C400 C 0.10944 0.07321 0.39908 0.0
C401 C 0.09242 0.09724 0.37737 0.0
C402 C 0.04586 0.09052 0.41925 0.0
C403 C 0.06121 0.06345 0.43907 0.0
N404 N 0.10517 0.02436 0.44502 0.0
N405 N 0.042 0.12388 0.36374 0.0
C406 C 0.09242 0.05355 0.42828 0.0
C407 C 0.05992 0.10455 0.3866 0.0
N408 N 0.14216 0.06997 0.39234 0.0
N409 N 0.01862 0.10402 0.43223 0.0
H410 H 0.05129 0.13441 0.33943 0.0
H411 H 0.01692 0.12659 0.36765 0.0
H412 H 1.00803 0.09495 0.45639 0.0
H413 H 1.00856 0.12658 0.42055 0.0
H414 H 0.15687 0.05601 0.40925 0.0
H415 H 0.15547 0.08395 0.3712 0.0
H416 H 0.12598 0.01343 0.43607 0.0
H417 H 0.09331 0.00886 0.46622 0.0
C418 C 0.45724 0.94278 0.83444 0.0
C419 C 0.42529 0.92295 0.84058 0.0
C420 C 0.43595 0.91352 0.90196 0.0
C421 C 0.46716 0.9352 0.8962 0.0
N422 N 0.50716 0.97265 0.8579 0.0
N423 N 0.38207 0.89325 0.87983 0.0
C424 C 0.47763 0.95061 0.86269 0.0
C425 C 0.41405 0.90934 0.87427 0.0
N426 N 0.46841 0.95304 0.80144 0.0
N427 N 0.42742 0.89658 0.93387 0.0
H428 H 0.36559 0.8889 0.86008 0.0
H429 H 0.37095 0.88648 0.90406 0.0
H430 H 0.44198 0.90036 0.95517 0.0
H431 H 0.40699 0.87696 0.93902 0.0
H432 H 0.49272 0.96383 0.79468 0.0
H433 H 0.4538 0.94869 0.78022 0.0
H434 H 0.51443 0.98844 0.83514 0.0
H435 H 0.52409 0.97665 0.8773 0.0
C436 C 0.60899 0.45285 0.62963 0.0
C437 C 0.59017 0.44902 0.66094 0.0
C438 C 0.5527 0.49138 0.63578 0.0
C439 C 0.56804 0.49008 0.60296 0.0
N440 N 0.6211 0.48775 0.57471 0.0
N441 N 0.54348 0.46372 0.69412 0.0
C442 C 0.59929 0.47602 0.60147 0.0
C443 C 0.56198 0.46827 0.66418 0.0
N444 N 0.63548 0.43334 0.62636 0.0
N445 N 0.53189 0.51733 0.64064 0.0
H446 H 0.55017 0.44827 0.71594 0.0
H447 H 0.52032 0.47312 0.69657 0.0
H448 H 0.52907 0.53868 0.62205 0.0
H449 H 0.5217 0.52139 0.66445 0.0
H450 H 0.64756 0.43133 0.60298 0.0
H451 H 0.6439 0.41689 0.64663 0.0
H452 H 0.64522 0.48065 0.5733 0.0
H453 H 0.61694 0.50903 0.55655 0.0
C454 C 0.96355 0.60603 0.11502 0.0
C455 C 0.95753 0.58596 0.1475 0.0
C456 C 0.97281 0.53058 0.12318 0.0
C457 C 0.98227 0.55175 0.0918 0.0
N458 N 0.99294 0.61125 0.06017 0.0
N459 N 0.96056 0.53041 0.18411 0.0
C460 C 0.97921 0.58991 0.08826 0.0
C461 C 0.96319 0.54849 0.15204 0.0
N462 N 0.95363 0.64028 0.10947 0.0
N463 N 0.97215 0.49326 0.1251 0.0
H464 H 0.95344 0.54254 0.2058 0.0
H465 H 0.96793 0.50442 0.18969 0.0
H466 H 0.97894 0.47927 0.10445 0.0
H467 H 0.96221 0.47595 0.14609 0.0
H468 H 0.95414 0.65458 0.0853 0.0
H469 H 0.94197 0.65301 0.12843 0.0
H470 H 0.99485 0.63981 0.05814 0.0
H471 H 1.0054 0.60077 0.04031 0.0
C472 C 0.38439 0.09685 0.14531 0.0
C473 C 0.35269 0.08441 0.13327 0.0
C474 C 0.37903 0.05267 0.08913 0.0
C475 C 0.41025 0.06126 0.10402 0.0
N476 N 0.4431 0.08971 0.14732 0.0
N477 N 0.31894 0.04869 0.09541 0.0
C478 C 0.41307 0.083 0.13233 0.0
C479 C 0.34976 0.06213 0.10535 0.0
N480 N 0.38704 0.12254 0.16867 0.0
N481 N 0.37742 0.03533 0.05958 0.0
H482 H 0.29701 0.05555 0.10629 0.0
H483 H 0.31488 0.02896 0.07798 0.0
H484 H 0.39822 0.02697 0.04772 0.0
H485 H 0.35604 0.03159 0.04541 0.0
H486 H 0.40958 0.13568 0.17589 0.0
H487 H 0.3665 0.13317 0.17877 0.0
H488 H 0.44613 0.10146 0.17047 0.0
H489 H 0.46501 0.08161 0.1376 0.0
C490 C 0.14909 0.91354 0.62575 0.0
C491 C 0.18035 0.92445 0.60888 0.0
C492 C 0.159 0.97876 0.58082 0.0
C493 C 0.12695 0.9664 0.5956 0.0
N494 N 0.0899 0.91795 0.62616 0.0
N495 N 0.21374 0.96339 0.56567 0.0
C496 C 0.12153 0.93266 0.6165 0.0
C497 C 0.18489 0.95585 0.58496 0.0
N498 N 0.14589 0.88543 0.65117 0.0
N499 N 0.16527 0.01314 0.56426 0.0
H500 H 0.23346 0.94753 0.56832 0.0
H501 H 0.21703 0.98342 0.54507 0.0
H502 H 0.14728 0.03111 0.56105 0.0
H503 H 0.18899 0.02517 0.5564 0.0
H504 H 0.12477 0.87896 0.66707 0.0
H505 H 0.16538 0.87037 0.65825 0.0
H506 H 0.08416 0.89169 0.63839 0.0
H507 H 0.06892 0.9304 0.61895 0.0
C508 C 0.83686 0.47342 0.92404 0.0
C509 C 0.83633 0.44195 0.9054 0.0
C510 C 0.89482 0.43704 0.91842 0.0
C511 C 0.89543 0.46868 0.93691 0.0
N512 N 0.86543 0.51219 0.96382 0.0
N513 N 0.86195 0.38935 0.89046 0.0
C514 C 0.86584 0.48516 0.94199 0.0
C515 C 0.86448 0.42232 0.90442 0.0
N516 N 0.81018 0.49316 0.92316 0.0
N517 N 0.92352 0.42156 0.9137 0.0
H518 H 0.84017 0.37808 0.87976 0.0
H519 H 0.88035 0.37176 0.89177 0.0
H520 H 0.94552 0.42994 0.92565 0.0
H521 H 0.92603 0.40144 0.897 0.0
H522 H 0.81046 0.51891 0.93234 0.0
H523 H 0.78821 0.48494 0.91111 0.0
H524 H 0.84389 0.52267 0.9714 0.0
H525 H 0.88624 0.52228 0.97669 0.0
C526 C 0.67643 0.5841 0.39335 0.0
C527 C 0.69503 0.55771 0.38005 0.0
C528 C 0.65193 0.50844 0.40128 0.0
C529 C 0.63468 0.53445 0.41699 0.0
N530 N 0.63221 0.59626 0.43204 0.0
N531 N 0.70409 0.49436 0.37732 0.0
C532 C 0.64758 0.57206 0.41443 0.0
C533 C 0.68377 0.51973 0.38565 0.0
N534 N 0.68549 0.62066 0.38454 0.0
N535 N 0.63778 0.47296 0.40088 0.0
H536 H 0.72779 0.50151 0.36623 0.0
H537 H 0.6988 0.46634 0.38429 0.0
H538 H 0.61523 0.46292 0.41338 0.0
H539 H 0.64735 0.45397 0.38632 0.0
H540 H 0.67103 0.6411 0.39031 0.0
H541 H 0.70623 0.63053 0.36887 0.0
H542 H 0.64245 0.62313 0.43438 0.0
H543 H 0.61017 0.58879 0.44639 0.0
C544 C 0.10735 0.33353 0.07237 0.0
C545 C 0.12577 0.33559 0.10271 0.0
C546 C 0.11533 0.39962 0.10559 0.0
C547 C 0.09677 0.3975 0.07529 0.0
N548 N 0.06813 0.36074 0.03481 0.0
N549 N 0.14177 0.36726 0.15221 0.0
C550 C 0.09066 0.36384 0.06019 0.0
C551 C 0.12788 0.3676 0.12067 0.0
N552 N 0.10666 0.30301 0.05467 0.0
N553 N 0.12244 0.43261 0.11895 0.0
H554 H 0.15191 0.34455 0.16362 0.0
H555 H 0.14093 0.38827 0.16829 0.0
H556 H 0.11282 0.45637 0.10942 0.0
H557 H 0.13942 0.43709 0.13817 0.0
H558 H 0.09706 0.30148 0.03031 0.0
H559 H 0.11759 0.27976 0.06346 0.0
H560 H 0.06025 0.33617 0.02457 0.0
H561 H 0.05475 0.38222 0.02642 0.0
C562 C 0.56488 0.14423 0.91655 0.0
C563 C 0.58893 0.16629 0.93391 0.0
C564 C 0.58187 0.12148 0.98438 0.0
C565 C 0.55566 0.10114 0.96824 0.0
N566 N 0.51827 0.09644 0.92123 0.0
N567 N 0.61578 0.17972 0.98655 0.0
C568 C 0.54608 0.1134 0.93489 0.0
C569 C 0.59606 0.15603 0.96851 0.0
N570 N 0.56073 0.15208 0.88226 0.0
N571 N 0.59443 0.10699 0.01402 0.0
H572 H 0.62658 0.20533 0.97589 0.0
H573 H 0.61892 0.17546 0.01286 0.0
H574 H 0.58546 0.0813 0.02601 0.0
H575 H 0.6158 0.11879 0.02496 0.0
H576 H 0.54632 0.13473 0.86733 0.0
H577 H 0.57384 0.17456 0.86805 0.0
H578 H 0.50803 0.10646 0.89864 0.0
H579 H 0.50359 0.07414 0.93403 0.0
C580 C 0.92289 0.86615 0.38974 0.0
C581 C 0.92195 0.83064 0.4072 0.0
C582 C 0.94008 0.85747 0.45987 0.0
C583 C 0.94091 0.89304 0.44251 0.0
N584 N 0.9392 0.93168 0.38978 0.0
N585 N 0.93601 0.79163 0.45594 0.0
C586 C 0.9345 0.89748 0.40696 0.0
C587 C 0.93262 0.82608 0.44139 0.0
N588 N 0.91115 0.86992 0.35728 0.0
N589 N 0.94571 0.85381 0.49424 0.0
H590 H 0.93062 0.76811 0.44306 0.0
H591 H 0.94667 0.78641 0.47954 0.0
H592 H 0.95328 0.87608 0.50808 0.0
H593 H 0.94144 0.82907 0.50945 0.0
H594 H 0.90725 0.89497 0.34452 0.0
H595 H 0.90342 0.84757 0.34356 0.0
H596 H 0.93837 0.93644 0.36325 0.0
H597 H 0.94633 0.95543 0.40174 0.0
C598 C 0.43651 0.68731 0.57484 0.0
C599 C 0.41914 0.6813 0.60701 0.0
C600 C 0.42171 0.61503 0.60732 0.0
C601 C 0.43745 0.6208 0.57425 0.0
N602 N 0.4561 0.66132 0.5243 0.0
N603 N 0.39031 0.6398 0.65154 0.0
C604 C 0.44362 0.65665 0.55728 0.0
C605 C 0.41041 0.64522 0.62264 0.0
N606 N 0.44725 0.72236 0.56172 0.0
N607 N 0.41773 0.58068 0.6242 0.0
H608 H 0.38169 0.66126 0.6636 0.0
H609 H 0.37992 0.61407 0.66213 0.0
H610 H 0.42382 0.55749 0.61313 0.0
H611 H 0.41028 0.57533 0.64989 0.0
H612 H 0.46323 0.72867 0.54038 0.0
H613 H 0.44208 0.74546 0.57362 0.0
H614 H 0.45758 0.68605 0.50905 0.0
H615 H 0.46312 0.63976 0.51124 0.0
C616 C 0.93798 0.90686 0.62844 0.0
C617 C 0.93528 0.92737 0.65724 0.0
C618 C 0.95935 0.9832 0.62288 0.0
C619 C 0.96546 0.96187 0.59533 0.0
N620 N 0.96625 0.90226 0.5742 0.0
N621 N 0.9479 0.98385 0.6838 0.0
C622 C 0.95618 0.92337 0.59865 0.0
C623 C 0.94718 0.96526 0.65501 0.0
N624 N 0.92257 0.87179 0.62932 0.0
N625 N 0.96397 0.02067 0.61801 0.0
H626 H 0.939 0.97176 0.70776 0.0
H627 H 0.9598 0.01035 0.68455 0.0
H628 H 0.97219 0.03491 0.59468 0.0
H629 H 0.9567 0.03766 0.63603 0.0
H630 H 0.9207 0.85686 0.60787 0.0
H631 H 0.90898 0.85878 0.65071 0.0
H632 H 0.96325 0.87368 0.57703 0.0
H633 H 0.98053 0.91313 0.55251 0.0
C634 C 0.59078 0.08902 0.1792 0.0
C635 C 0.58316 0.12261 0.19095 0.0
C636 C 0.54456 0.12989 0.14423 0.0
C637 C 0.5547 0.09831 0.13039 0.0
N638 N 0.59246 0.05197 0.13108 0.0
N639 N 0.55842 0.17902 0.18053 0.0
C640 C 0.57918 0.07893 0.14689 0.0
C641 C 0.56172 0.14426 0.17222 0.0
N642 N 0.60824 0.06624 0.19931 0.0
N643 N 0.51749 0.14523 0.13186 0.0
H644 H 0.57091 0.19081 0.20062 0.0
H645 H 0.54591 0.1974 0.16543 0.0
H646 H 0.50331 0.13501 0.11216 0.0
H647 H 0.50696 0.16572 0.14358 0.0
H648 H 0.61143 0.03967 0.19373 0.0
H649 H 0.6171 0.07268 0.22314 0.0
H650 H 0.61275 0.03954 0.14031 0.0
H651 H 0.5854 0.04449 0.10696 0.0
C652 C 0.46034 0.54442 0.37791 0.0
C653 C 0.45568 0.5822 0.37542 0.0
C654 C 0.47857 0.58781 0.43257 0.0
C655 C 0.48085 0.54945 0.43624 0.0
N656 N 0.46864 0.49004 0.41489 0.0
N657 N 0.45411 0.63821 0.40283 0.0
C658 C 0.47027 0.52738 0.40956 0.0
C659 C 0.46289 0.60337 0.40355 0.0
N660 N 0.45629 0.52509 0.3497 0.0
N661 N 0.49301 0.60981 0.45585 0.0
H662 H 0.44266 0.6506 0.382 0.0
H663 H 0.45538 0.65352 0.42404 0.0
H664 H 0.50536 0.59979 0.47713 0.0
H665 H 0.4955 0.63836 0.45237 0.0
H666 H 0.46296 0.4987 0.34866 0.0
H667 H 0.44853 0.53646 0.32632 0.0
H668 H 0.45787 0.47224 0.3979 0.0
H669 H 0.47544 0.47661 0.43776 0.0
C670 C 0.08712 0.43163 0.90982 0.0
C671 C 0.09586 0.45521 0.87967 0.0
C672 C 0.07232 0.50546 0.90557 0.0
C673 C 0.0616 0.4811 0.93472 0.0
N674 N 0.05192 0.4191 0.96109 0.0
N675 N 0.09153 0.51235 0.84602 0.0
C676 C 0.06707 0.44362 0.93587 0.0
C677 C 0.08689 0.49152 0.87671 0.0
N678 N 0.09895 0.39825 0.91417 0.0
N679 N 0.06979 0.54214 0.90597 0.0
H680 H 0.10209 0.50302 0.82436 0.0
H681 H 0.08235 0.53752 0.84115 0.0
H682 H 0.05928 0.55336 0.92662 0.0
H683 H 0.08048 0.56183 0.88712 0.0
H684 H 0.09654 0.38173 0.93724 0.0
H685 H 0.11367 0.38836 0.8957 0.0
H686 H 0.05192 0.39081 0.96101 0.0
H687 H 0.03656 0.42669 0.98032 0.0
C688 C 0.64574 0.91425 0.89791 0.0
C689 C 0.67558 0.93854 0.89433 0.0
C690 C 0.64854 0.98464 0.92291 0.0
C691 C 0.61772 0.96215 0.92264 0.0
N692 N 0.58585 0.90751 0.90585 0.0
N693 N 0.70514 0.99815 0.90024 0.0
C694 C 0.61602 0.92728 0.90937 0.0
C695 C 0.67697 0.97408 0.9061 0.0
N696 N 0.64592 0.87861 0.89062 0.0
N697 N 0.65083 0.01555 0.94017 0.0
H698 H 0.72676 0.9911 0.88886 0.0
H699 H 0.70643 0.02581 0.90443 0.0
H700 H 0.63063 0.02385 0.95318 0.0
H701 H 0.67322 0.03114 0.94431 0.0
H702 H 0.62591 0.8585 0.89619 0.0
H703 H 0.66713 0.86835 0.88164 0.0
H704 H 0.58265 0.88392 0.89282 0.0
H705 H 0.5635 0.91632 0.91341 0.0
C706 C 0.84411 0.04173 0.41502 0.0
C707 C 0.84502 0.07961 0.40423 0.0
C708 C 0.90261 0.0901 0.42243 0.0
C709 C 0.90286 0.05168 0.42942 0.0
N710 N 0.87555 0.99022 0.42719 0.0
N711 N 0.87616 0.13941 0.3933 0.0
C712 C 0.87401 0.02726 0.4245 0.0
C713 C 0.87455 0.10375 0.4068 0.0
N714 N 0.81451 0.01973 0.4169 0.0
N715 N 0.9287 0.11359 0.43186 0.0
H716 H 0.85605 0.1505 0.38192 0.0
H717 H 0.8981 0.15721 0.39093 0.0
H718 H 0.94921 0.10447 0.44413 0.0
H719 H 0.92861 0.14194 0.43058 0.0
H720 H 0.8117 0.9928 0.42802 0.0
H721 H 0.79207 0.02937 0.41016 0.0
H722 H 0.85642 0.97128 0.4201 0.0
H723 H 0.89708 0.97847 0.43356 0.0
C724 C 0.17372 0.59208 0.13419 0.0
C725 C 0.20325 0.57613 0.12758 0.0
C726 C 0.17304 0.53463 0.08997 0.0
C727 C 0.14365 0.55125 0.09587 0.0
N728 N 0.11794 0.60132 0.11667 0.0
N729 N 0.23306 0.53844 0.09345 0.0
C730 C 0.14464 0.58173 0.11587 0.0
C731 C 0.20352 0.5494 0.10356 0.0
N732 N 0.17305 0.61597 0.15901 0.0
N733 N 0.1716 0.50342 0.0732 0.0
H734 H 0.25578 0.54856 0.10305 0.0
H735 H 0.23541 0.52198 0.07339 0.0
H736 H 0.15005 0.4917 0.06255 0.0
H737 H 0.19118 0.48748 0.07205 0.0
H738 H 0.15134 0.62517 0.16788 0.0
H739 H 0.19392 0.62465 0.17263 0.0
H740 H 0.1182 0.62593 0.128 0.0
H741 H 0.09653 0.59486 0.10303 0.0
C742 C 0.37421 0.41174 0.64871 0.0
C743 C 0.34334 0.42145 0.63663 0.0
C744 C 0.37225 0.47181 0.59856 0.0
C745 C 0.40323 0.46022 0.60849 0.0
N746 N 0.43374 0.41533 0.63837 0.0
N747 N 0.31278 0.45606 0.59566 0.0
C748 C 0.40423 0.4291 0.63233 0.0
C749 C 0.34231 0.45011 0.61022 0.0
N750 N 0.37484 0.38665 0.67644 0.0
N751 N 0.37126 0.50453 0.57949 0.0
H752 H 0.29022 0.44098 0.60368 0.0
H753 H 0.31103 0.47373 0.57371 0.0
H754 H 0.39246 0.52166 0.57073 0.0
H755 H 0.34941 0.51636 0.57499 0.0
H756 H 0.39651 0.38137 0.68882 0.0
H757 H 0.35333 0.37318 0.6889 0.0
H758 H 0.43561 0.39056 0.65274 0.0
H759 H 0.45615 0.42691 0.6264 0.0
C760 C 0.89242 0.64805 0.91708 0.0
C761 C 0.90411 0.68354 0.9264 0.0
C762 C 0.94705 0.65792 0.96125 0.0
C763 C 0.93522 0.62246 0.95204 0.0
N764 N 0.90223 0.58437 0.91557 0.0
N765 N 0.94567 0.72386 0.95194 0.0
C766 C 0.90965 0.61776 0.92809 0.0
C767 C 0.93248 0.68897 0.94683 0.0
N768 N 0.86409 0.64313 0.89881 0.0
N769 N 0.97174 0.66165 0.98437 0.0
H770 H 0.93529 0.7471 0.94212 0.0
H771 H 0.96809 0.73012 0.9638 0.0
H772 H 0.98456 0.63985 0.99314 0.0
H773 H 0.97882 0.68575 0.99572 0.0
H774 H 0.85198 0.61751 0.89465 0.0
H775 H 0.85127 0.66477 0.88951 0.0
H776 H 0.88603 0.57968 0.89573 0.0
H777 H 0.91465 0.56186 0.92302 0.0
C778 C 0.43646 0.8649 0.06548 0.0
C779 C 0.44656 0.85327 0.09875 0.0
C780 C 0.48986 0.90597 0.0958 0.0
C781 C 0.47761 0.91928 0.06395 0.0
N782 N 0.4346 0.91554 0.02223 0.0
N783 N 0.47962 0.86516 0.14792 0.0
C784 C 0.44967 0.89984 0.04976 0.0
C785 C 0.47243 0.87447 0.11458 0.0
N786 N 0.4149 0.8421 0.0484 0.0
N787 N 0.51868 0.92279 0.10757 0.0
H788 H 0.46754 0.84219 0.16233 0.0
H789 H 0.49563 0.88167 0.16214 0.0
H790 H 0.53202 0.94589 0.09452 0.0
H791 H 0.53082 0.9122 0.12871 0.0
H792 H 0.40952 0.84747 0.02268 0.0
H793 H 0.40477 0.81616 0.0589 0.0
H794 H 0.41185 0.90456 0.01343 0.0
H795 H 0.44312 0.94131 1.01012 0.0
C796 C 0.07321 0.14673 0.65963 0.0
C797 C 0.09099 0.18086 0.64741 0.0
C798 C 0.09866 0.15809 0.59107 0.0
C799 C 0.08456 0.12257 0.60452 0.0
N800 N 0.06241 0.08169 0.65321 0.0
N801 N 0.12429 0.21819 0.60301 0.0
C802 C 0.07262 0.11652 0.63918 0.0
C803 C 0.10471 0.18634 0.61351 0.0
N804 N 0.05651 0.14334 0.69063 0.0
N805 N 0.10495 0.16528 0.55657 0.0
H806 H 0.12872 0.23989 0.61841 0.0
H807 H 0.13819 0.22201 0.58007 0.0
H808 H 0.09985 0.14565 0.53912 0.0
H809 H 0.11205 0.19151 0.54482 0.0
H810 H 0.04007 0.12047 0.69928 0.0
H811 H 0.05688 0.16474 0.70651 0.0
H812 H 0.05704 0.07514 0.67927 0.0
H813 H 0.06202 0.05865 0.63948 0.0
C814 C 0.58694 0.32575 0.4681 0.0
C815 C 0.61994 0.33071 0.4542 0.0
C816 C 0.62566 0.39525 0.46641 0.0
C817 C 0.59215 0.3908 0.47891 0.0
N818 N 0.5391 0.35405 0.48688 0.0
N819 N 0.66804 0.37151 0.43298 0.0
C820 C 0.57215 0.35673 0.47809 0.0
C821 C 0.63854 0.36587 0.45131 0.0
N822 N 0.57028 0.29122 0.47305 0.0
N823 N 0.64542 0.42742 0.46936 0.0
H824 H 0.67825 0.3507 0.42136 0.0
H825 H 0.68091 0.39737 0.42656 0.0
H826 H 0.63657 0.45078 0.47769 0.0
H827 H 0.67106 0.43054 0.465 0.0
H828 H 0.54762 0.28511 0.48644 0.0
H829 H 0.58026 0.26801 0.46583 0.0
H830 H 0.52237 0.33115 0.48343 0.0
H831 H 0.52782 0.37587 0.49542 0.0
loop_
_geom_bond_atom_site_label_1
_geom_bond_atom_site_label_2
_geom_bond_distance
_geom_bond_site_symmetry_2
_ccdc_geom_bond_type
C0 C1 1.264 . S
C0 C5 1.479 . S
C0 C10 1.465 . S
C1 C0 1.264 . S
C1 C3 1.339 . S
C1 H28 0.931 . S
C2 C3 1.395 . S
C2 C4 1.320 . S
C3 C1 1.339 . S
C3 C2 1.395 . S
C3 H29 0.929 . S
C4 C2 1.320 . S
C4 C5 1.405 . S
C4 H30 0.930 . S
C5 C0 1.479 . S
C5 C4 1.405 . S
C5 H31 0.931 . S
U6 O7 2.454 . S
U6 O8 2.458 . S
U6 C9 2.984 . S
U6 C10 2.847 . S
U6 C23 2.882 . S
U6 O24 2.441 . S
U6 O25 2.420 . S
U6 O26 2.455 . S
U6 O27 2.449 . S
O7 U6 2.454 . S
O7 C9 1.353 . S
O8 U6 2.458 . S
O8 C9 1.286 . S
C9 U6 2.984 . S
C9 O7 1.353 . S
C9 O8 1.286 . S
C9 C11 1.363 . S
C10 C0 1.465 . S
C10 U6 2.847 . S
C10 O24 1.249 . S
C10 O25 1.202 . S
C11 C9 1.363 . S
C11 C13 1.408 . S
C11 C16 1.342 . S
C12 C13 1.310 . S
C12 C15 1.461 . S
C12 H32 0.932 . S
C13 C11 1.408 . S
C13 C12 1.310 . S
C13 H33 0.930 . S
C14 C15 1.474 . S
C14 C16 1.285 . S
C14 H34 0.929 . S
C15 C12 1.461 . S
C15 C14 1.474 . S
C16 C11 1.342 . S
C16 C14 1.285 . S
C16 H35 0.930 . S
C17 C20 1.424 . S
C17 C22 1.245 . S
C17 C23 1.428 . S
C18 C21 1.260 . S
C18 C22 1.477 . S
C18 H36 0.932 . S
C19 C20 1.384 . S
C19 C21 1.479 . S
C19 H37 0.929 . S
C20 C17 1.424 . S
C20 C19 1.384 . S
C20 H38 0.928 . S
C21 C18 1.260 . S
C21 C19 1.479 . S
C22 C17 1.245 . S
C22 C18 1.477 . S
C22 H39 0.932 . S
C23 U6 2.882 . S
C23 C17 1.428 . S
C23 O26 1.301 . S
C23 O27 1.282 . S
O24 U6 2.441 . S
O24 C10 1.249 . S
O25 U6 2.420 . S
O25 C10 1.202 . S
O26 U6 2.455 . S
O26 C23 1.301 . S
O27 U6 2.449 . S
O27 C23 1.282 . S
H28 C1 0.931 . S
H29 C3 0.929 . S
H30 C4 0.930 . S
H31 C5 0.931 . S
H32 C12 0.932 . S
H33 C13 0.930 . S
H34 C14 0.929 . S
H35 C16 0.930 . S
H36 C18 0.932 . S
H37 C19 0.929 . S
H38 C20 0.928 . S
H39 C22 0.932 . S
C40 C41 1.264 . S
C40 C45 1.479 . S
C40 C50 1.465 . S
C41 C40 1.264 . S
C41 C43 1.339 . S
C41 H68 0.931 . S
C42 C43 1.395 . S
C42 C44 1.320 . S
C43 C41 1.339 . S
C43 C42 1.395 . S
C43 H69 0.929 . S
C44 C42 1.320 . S
C44 C45 1.405 . S
C44 H70 0.930 . S
C45 C40 1.479 . S
C45 C44 1.405 . S
C45 H71 0.931 . S
U46 O47 2.454 . S
U46 O48 2.458 . S
U46 C49 2.984 . S
U46 C50 2.847 . S
U46 C63 2.882 . S
U46 O64 2.441 . S
U46 O65 2.420 . S
U46 O66 2.455 . S
U46 O67 2.449 . S
O47 U46 2.454 . S
O47 C49 1.353 . S
O48 U46 2.458 . S
O48 C49 1.286 . S
C49 U46 2.984 . S
C49 O47 1.353 . S
C49 O48 1.286 . S
C49 C51 1.363 . S
C50 C40 1.465 . S
C50 U46 2.847 . S
C50 O64 1.249 . S
C50 O65 1.202 . S
C51 C49 1.363 . S
C51 C53 1.408 . S
C51 C56 1.342 . S
C52 C53 1.310 . S
C52 C55 1.461 . S
C52 H72 0.932 . S
C53 C51 1.408 . S
C53 C52 1.310 . S
C53 H73 0.930 . S
C54 C55 1.474 . S
C54 C56 1.285 . S
C54 H74 0.929 . S
C55 C52 1.461 . S
C55 C54 1.474 . S
C56 C51 1.342 . S
C56 C54 1.285 . S
C56 H75 0.930 . S
C57 C60 1.424 . S
C57 C62 1.245 . S
C57 C63 1.428 . S
C58 C61 1.260 . S
C58 C62 1.477 . S
C58 H76 0.932 . S
C59 C60 1.384 . S
C59 C61 1.479 . S
C59 H77 0.929 . S
C60 C57 1.424 . S
C60 C59 1.384 . S
C60 H78 0.928 . S
C61 C58 1.260 . S
C61 C59 1.479 . S
C62 C57 1.245 . S
C62 C58 1.477 . S
C62 H79 0.932 . S
C63 U46 2.882 . S
C63 C57 1.428 . S
C63 O66 1.301 . S
C63 O67 1.282 . S
O64 U46 2.441 . S
O64 C50 1.249 . S
O65 U46 2.420 . S
O65 C50 1.202 . S
O66 U46 2.455 . S
O66 C63 1.301 . S
O67 U46 2.449 . S
O67 C63 1.282 . S
H68 C41 0.931 . S
H69 C43 0.929 . S
H70 C44 0.930 . S
H71 C45 0.931 . S
H72 C52 0.932 . S
H73 C53 0.930 . S
H74 C54 0.929 . S
H75 C56 0.930 . S
H76 C58 0.932 . S
H77 C59 0.929 . S
H78 C60 0.928 . S
H79 C62 0.932 . S
C80 C81 1.264 . S
C80 C85 1.479 . S
C80 C90 1.465 . S
C81 C80 1.264 . S
C81 C83 1.339 . S
C81 H108 0.931 . S
C82 C83 1.395 . S
C82 C84 1.320 . S
C83 C81 1.339 . S
C83 C82 1.395 . S
C83 H109 0.929 . S
C84 C82 1.320 . S
C84 C85 1.405 . S
C84 H110 0.930 . S
C85 C80 1.479 . S
C85 C84 1.405 . S
C85 H111 0.931 . S
U86 O87 2.454 . S
U86 O88 2.458 . S
U86 C89 2.984 . S
U86 C90 2.847 . S
U86 C103 2.882 . S
U86 O104 2.441 . S
U86 O105 2.420 . S
U86 O106 2.455 . S
U86 O107 2.449 . S
O87 U86 2.454 . S
O87 C89 1.353 . S
O88 U86 2.458 . S
O88 C89 1.286 . S
C89 U86 2.984 . S
C89 O87 1.353 . S
C89 O88 1.286 . S
C89 C91 1.363 . S
C90 C80 1.465 . S
C90 U86 2.847 . S
C90 O104 1.249 . S
C90 O105 1.202 . S
C91 C89 1.363 . S
C91 C93 1.408 . S
C91 C96 1.342 . S
C92 C93 1.310 . S
C92 C95 1.461 . S
C92 H112 0.932 . S
C93 C91 1.408 . S
C93 C92 1.310 . S
C93 H113 0.930 . S
C94 C95 1.474 . S
C94 C96 1.285 . S
C94 H114 0.929 . S
C95 C92 1.461 . S
C95 C94 1.474 . S
C96 C91 1.342 . S
C96 C94 1.285 . S
C96 H115 0.930 . S
C97 C100 1.424 . S
C97 C102 1.245 . S
C97 C103 1.428 . S
C98 C101 1.260 . S
C98 C102 1.477 . S
C98 H116 0.932 . S
C99 C100 1.384 . S
C99 C101 1.479 . S
C99 H117 0.929 . S
C100 C97 1.424 . S
C100 C99 1.384 . S
C100 H118 0.928 . S
C101 C98 1.260 . S
C101 C99 1.479 . S
C102 C97 1.245 . S
C102 C98 1.477 . S
C102 H119 0.932 . S
C103 U86 2.882 . S
C103 C97 1.428 . S
C103 O106 1.301 . S
C103 O107 1.282 . S
O104 U86 2.441 . S
O104 C90 1.249 . S
O105 U86 2.420 . S
O105 C90 1.202 . S
O106 U86 2.455 . S
O106 C103 1.301 . S
O107 U86 2.449 . S
O107 C103 1.282 . S
H108 C81 0.931 . S
H109 C83 0.929 . S
H110 C84 0.930 . S
H111 C85 0.931 . S
H112 C92 0.932 . S
H113 C93 0.930 . S
H114 C94 0.929 . S
H115 C96 0.930 . S
H116 C98 0.932 . S
H117 C99 0.929 . S
H118 C100 0.928 . S
H119 C102 0.932 . S
C120 C121 1.264 . S
C120 C125 1.479 . S
C120 C130 1.465 . S
C121 C120 1.264 . S
C121 C123 1.339 . S
C121 H148 0.931 . S
C122 C123 1.395 . S
C122 C124 1.320 . S
C123 C121 1.339 . S
C123 C122 1.395 . S
C123 H149 0.929 . S
C124 C122 1.320 . S
C124 C125 1.405 . S
C124 H150 0.930 . S
C125 C120 1.479 . S
C125 C124 1.405 . S
C125 H151 0.931 . S
U126 O127 2.454 . S
U126 O128 2.458 . S
U126 C129 2.984 . S
U126 C130 2.847 . S
U126 C143 2.882 . S
U126 O144 2.441 . S
U126 O145 2.420 . S
U126 O146 2.455 . S
U126 O147 2.449 . S
O127 U126 2.454 . S
O127 C129 1.353 . S
O128 U126 2.458 . S
O128 C129 1.286 . S
C129 U126 2.984 . S
C129 O127 1.353 . S
C129 O128 1.286 . S
C129 C131 1.363 . S
C130 C120 1.465 . S
C130 U126 2.847 . S
C130 O144 1.249 . S
C130 O145 1.202 . S
C131 C129 1.363 . S
C131 C133 1.408 . S
C131 C136 1.342 . S
C132 C133 1.310 . S
C132 C135 1.461 . S
C132 H152 0.932 . S
C133 C131 1.408 . S
C133 C132 1.310 . S
C133 H153 0.930 . S
C134 C135 1.474 . S
C134 C136 1.285 . S
C134 H154 0.929 . S
C135 C132 1.461 . S
C135 C134 1.474 . S
C136 C131 1.342 . S
C136 C134 1.285 . S
C136 H155 0.930 . S
C137 C140 1.424 . S
C137 C142 1.245 . S
C137 C143 1.428 . S
C138 C141 1.260 . S
C138 C142 1.477 . S
C138 H156 0.932 . S
C139 C140 1.384 . S
C139 C141 1.479 . S
C139 H157 0.929 . S
C140 C137 1.424 . S
C140 C139 1.384 . S
C140 H158 0.928 . S
C141 C138 1.260 . S
C141 C139 1.479 . S
C142 C137 1.245 . S
C142 C138 1.477 . S
C142 H159 0.932 . S
C143 U126 2.882 . S
C143 C137 1.428 . S
C143 O146 1.301 . S
C143 O147 1.282 . S
O144 U126 2.441 . S
O144 C130 1.249 . S
O145 U126 2.420 . S
O145 C130 1.202 . S
O146 U126 2.455 . S
O146 C143 1.301 . S
O147 U126 2.449 . S
O147 C143 1.282 . S
H148 C121 0.931 . S
H149 C123 0.929 . S
H150 C124 0.930 . S
H151 C125 0.931 . S
H152 C132 0.932 . S
H153 C133 0.930 . S
H154 C134 0.929 . S
H155 C136 0.930 . S
H156 C138 0.932 . S
H157 C139 0.929 . S
H158 C140 0.928 . S
H159 C142 0.932 . S
C160 C161 1.264 . S
C160 C165 1.479 . S
C160 C170 1.465 . S
C161 C160 1.264 . S
C161 C163 1.339 . S
C161 H188 0.931 . S
C162 C163 1.395 . S
C162 C164 1.320 . S
C163 C161 1.339 . S
C163 C162 1.395 . S
C163 H189 0.929 . S
C164 C162 1.320 . S
C164 C165 1.405 . S
C164 H190 0.930 . S
C165 C160 1.479 . S
C165 C164 1.405 . S
C165 H191 0.931 . S
U166 O167 2.454 . S
U166 O168 2.458 . S
U166 C169 2.984 . S
U166 C170 2.847 . S
U166 C183 2.882 . S
U166 O184 2.441 . S
U166 O185 2.420 . S
U166 O186 2.455 . S
U166 O187 2.449 . S
O167 U166 2.454 . S
O167 C169 1.353 . S
O168 U166 2.458 . S
O168 C169 1.286 . S
C169 U166 2.984 . S
C169 O167 1.353 . S
C169 O168 1.286 . S
C169 C171 1.363 . S
C170 C160 1.465 . S
C170 U166 2.847 . S
C170 O184 1.249 . S
C170 O185 1.202 . S
C171 C169 1.363 . S
C171 C173 1.408 . S
C171 C176 1.342 . S
C172 C173 1.310 . S
C172 C175 1.461 . S
C172 H192 0.932 . S
C173 C171 1.408 . S
C173 C172 1.310 . S
C173 H193 0.930 . S
C174 C175 1.474 . S
C174 C176 1.285 . S
C174 H194 0.929 . S
C175 C172 1.461 . S
C175 C174 1.474 . S
C176 C171 1.342 . S
C176 C174 1.285 . S
C176 H195 0.930 . S
C177 C180 1.424 . S
C177 C182 1.245 . S
C177 C183 1.428 . S
C178 C181 1.260 . S
C178 C182 1.477 . S
C178 H196 0.932 . S
C179 C180 1.384 . S
C179 C181 1.479 . S
C179 H197 0.929 . S
C180 C177 1.424 . S
C180 C179 1.384 . S
C180 H198 0.928 . S
C181 C178 1.260 . S
C181 C179 1.479 . S
C182 C177 1.245 . S
C182 C178 1.477 . S
C182 H199 0.932 . S
C183 U166 2.882 . S
C183 C177 1.428 . S
C183 O186 1.301 . S
C183 O187 1.282 . S
O184 U166 2.441 . S
O184 C170 1.249 . S
O185 U166 2.420 . S
O185 C170 1.202 . S
O186 U166 2.455 . S
O186 C183 1.301 . S
O187 U166 2.449 . S
O187 C183 1.282 . S
H188 C161 0.931 . S
H189 C163 0.929 . S
H190 C164 0.930 . S
H191 C165 0.931 . S
H192 C172 0.932 . S
H193 C173 0.930 . S
H194 C174 0.929 . S
H195 C176 0.930 . S
H196 C178 0.932 . S
H197 C179 0.929 . S
H198 C180 0.928 . S
H199 C182 0.932 . S
C200 C201 1.264 . S
C200 C205 1.479 . S
C200 C210 1.465 . S
C201 C200 1.264 . S
C201 C203 1.339 . S
C201 H228 0.931 . S
C202 C203 1.395 . S
C202 C204 1.320 . S
C203 C201 1.339 . S
C203 C202 1.395 . S
C203 H229 0.929 . S
C204 C202 1.320 . S
C204 C205 1.405 . S
C204 H230 0.930 . S
C205 C200 1.479 . S
C205 C204 1.405 . S
C205 H231 0.931 . S
U206 O207 2.454 . S
U206 O208 2.458 . S
U206 C209 2.984 . S
U206 C210 2.847 . S
U206 C223 2.882 . S
U206 O224 2.441 . S
U206 O225 2.420 . S
U206 O226 2.455 . S
U206 O227 2.449 . S
O207 U206 2.454 . S
O207 C209 1.353 . S
O208 U206 2.458 . S
O208 C209 1.286 . S
C209 U206 2.984 . S
C209 O207 1.353 . S
C209 O208 1.286 . S
C209 C211 1.363 . S
C210 C200 1.465 . S
C210 U206 2.847 . S
C210 O224 1.249 . S
C210 O225 1.202 . S
C211 C209 1.363 . S
C211 C213 1.408 . S
C211 C216 1.342 . S
C212 C213 1.310 . S
C212 C215 1.461 . S
C212 H232 0.932 . S
C213 C211 1.408 . S
C213 C212 1.310 . S
C213 H233 0.930 . S
C214 C215 1.474 . S
C214 C216 1.285 . S
C214 H234 0.929 . S
C215 C212 1.461 . S
C215 C214 1.474 . S
C216 C211 1.342 . S
C216 C214 1.285 . S
C216 H235 0.930 . S
C217 C220 1.424 . S
C217 C222 1.245 . S
C217 C223 1.428 . S
C218 C221 1.260 . S
C218 C222 1.477 . S
C218 H236 0.932 . S
C219 C220 1.384 . S
C219 C221 1.479 . S
C219 H237 0.929 . S
C220 C217 1.424 . S
C220 C219 1.384 . S
C220 H238 0.928 . S
C221 C218 1.260 . S
C221 C219 1.479 . S
C222 C217 1.245 . S
C222 C218 1.477 . S
C222 H239 0.932 . S
C223 U206 2.882 . S
C223 C217 1.428 . S
C223 O226 1.301 . S
C223 O227 1.282 . S
O224 U206 2.441 . S
O224 C210 1.249 . S
O225 U206 2.420 . S
O225 C210 1.202 . S
O226 U206 2.455 . S
O226 C223 1.301 . S
O227 U206 2.449 . S
O227 C223 1.282 . S
H228 C201 0.931 . S
H229 C203 0.929 . S
H230 C204 0.930 . S
H231 C205 0.931 . S
H232 C212 0.932 . S
H233 C213 0.930 . S
H234 C214 0.929 . S
H235 C216 0.930 . S
H236 C218 0.932 . S
H237 C219 0.929 . S
H238 C220 0.928 . S
H239 C222 0.932 . S
C240 C241 1.264 . S
C240 C245 1.479 . S
C240 C250 1.465 . S
C241 C240 1.264 . S
C241 C243 1.339 . S
C241 H268 0.931 . S
C242 C243 1.395 . S
C242 C244 1.320 . S
C243 C241 1.339 . S
C243 C242 1.395 . S
C243 H269 0.929 . S
C244 C242 1.320 . S
C244 C245 1.405 . S
C244 H270 0.930 . S
C245 C240 1.479 . S
C245 C244 1.405 . S
C245 H271 0.931 . S
U246 O247 2.454 . S
U246 O248 2.458 . S
U246 C249 2.984 . S
U246 C250 2.847 . S
U246 C263 2.882 . S
U246 O264 2.441 . S
U246 O265 2.420 . S
U246 O266 2.455 . S
U246 O267 2.449 . S
O247 U246 2.454 . S
O247 C249 1.353 . S
O248 U246 2.458 . S
O248 C249 1.286 . S
C249 U246 2.984 . S
C249 O247 1.353 . S
C249 O248 1.286 . S
C249 C251 1.363 . S
C250 C240 1.465 . S
C250 U246 2.847 . S
C250 O264 1.249 . S
C250 O265 1.202 . S
C251 C249 1.363 . S
C251 C253 1.408 . S
C251 C256 1.342 . S
C252 C253 1.310 . S
C252 C255 1.461 . S
C252 H272 0.932 . S
C253 C251 1.408 . S
C253 C252 1.310 . S
C253 H273 0.930 . S
C254 C255 1.474 . S
C254 C256 1.285 . S
C254 H274 0.929 . S
C255 C252 1.461 . S
C255 C254 1.474 . S
C256 C251 1.342 . S
C256 C254 1.285 . S
C256 H275 0.930 . S
C257 C260 1.424 . S
C257 C262 1.245 . S
C257 C263 1.428 . S
C258 C261 1.260 . S
C258 C262 1.477 . S
C258 H276 0.932 . S
C259 C260 1.384 . S
C259 C261 1.479 . S
C259 H277 0.929 . S
C260 C257 1.424 . S
C260 C259 1.384 . S
C260 H278 0.928 . S
C261 C258 1.260 . S
C261 C259 1.479 . S
C262 C257 1.245 . S
C262 C258 1.477 . S
C262 H279 0.932 . S
C263 U246 2.882 . S
C263 C257 1.428 . S
C263 O266 1.301 . S
C263 O267 1.282 . S
O264 U246 2.441 . S
O264 C250 1.249 . S
O265 U246 2.420 . S
O265 C250 1.202 . S
O266 U246 2.455 . S
O266 C263 1.301 . S
O267 U246 2.449 . S
O267 C263 1.282 . S
H268 C241 0.931 . S
H269 C243 0.929 . S
H270 C244 0.930 . S
H271 C245 0.931 . S
H272 C252 0.932 . S
H273 C253 0.930 . S
H274 C254 0.929 . S
H275 C256 0.930 . S
H276 C258 0.932 . S
H277 C259 0.929 . S
H278 C260 0.928 . S
H279 C262 0.932 . S
C280 C281 1.264 . S
C280 C285 1.479 . S
C280 C290 1.465 . S
C281 C280 1.264 . S
C281 C283 1.339 . S
C281 H308 0.931 . S
C282 C283 1.395 . S
C282 C284 1.320 . S
C283 C281 1.339 . S
C283 C282 1.395 . S
C283 H309 0.929 . S
C284 C282 1.320 . S
C284 C285 1.405 . S
C284 H310 0.930 . S
C285 C280 1.479 . S
C285 C284 1.405 . S
C285 H311 0.931 . S
U286 O287 2.454 . S
U286 O288 2.458 . S
U286 C289 2.984 . S
U286 C290 2.847 . S
U286 C303 2.882 . S
U286 O304 2.441 . S
U286 O305 2.420 . S
U286 O306 2.455 . S
U286 O307 2.449 . S
O287 U286 2.454 . S
O287 C289 1.353 . S
O288 U286 2.458 . S
O288 C289 1.286 . S
C289 U286 2.984 . S
C289 O287 1.353 . S
C289 O288 1.286 . S
C289 C291 1.363 . S
C290 C280 1.465 . S
C290 U286 2.847 . S
C290 O304 1.249 . S
C290 O305 1.202 . S
C291 C289 1.363 . S
C291 C293 1.408 . S
C291 C296 1.342 . S
C292 C293 1.310 . S
C292 C295 1.461 . S
C292 H312 0.932 . S
C293 C291 1.408 . S
C293 C292 1.310 . S
C293 H313 0.930 . S
C294 C295 1.474 . S
C294 C296 1.285 . S
C294 H314 0.929 . S
C295 C292 1.461 . S
C295 C294 1.474 . S
C296 C291 1.342 . S
C296 C294 1.285 . S
C296 H315 0.930 . S
C297 C300 1.424 . S
C297 C302 1.245 . S
C297 C303 1.428 . S
C298 C301 1.260 . S
C298 C302 1.477 . S
C298 H316 0.932 . S
C299 C300 1.384 . S
C299 C301 1.479 . S
C299 H317 0.929 . S
C300 C297 1.424 . S
C300 C299 1.384 . S
C300 H318 0.928 . S
C301 C298 1.260 . S
C301 C299 1.479 . S
C302 C297 1.245 . S
C302 C298 1.477 . S
C302 H319 0.932 . S
C303 U286 2.882 . S
C303 C297 1.428 . S
C303 O306 1.301 . S
C303 O307 1.282 . S
O304 U286 2.441 . S
O304 C290 1.249 . S
O305 U286 2.420 . S
O305 C290 1.202 . S
O306 U286 2.455 . S
O306 C303 1.301 . S
O307 U286 2.449 . S
O307 C303 1.282 . S
H308 C281 0.931 . S
H309 C283 0.929 . S
H310 C284 0.930 . S
H311 C285 0.931 . S
H312 C292 0.932 . S
H313 C293 0.930 . S
H314 C294 0.929 . S
H315 C296 0.930 . S
H316 C298 0.932 . S
H317 C299 0.929 . S
H318 C300 0.928 . S
H319 C302 0.932 . S
Zn320 O326 1.969 1_545 S
Zn320 O327 1.965 1_545 S
Zn320 O331 2.024 . S
Zn320 O336 1.969 . S
Zn321 O328 1.969 . S
Zn321 O334 1.969 1_565 S
Zn321 O335 1.965 1_665 S
Zn321 O337 2.024 . S
C322 O323 1.229 . S
C322 O331 1.058 . S
O323 C322 1.229 . S
C324 O325 1.229 . S
C324 O337 1.058 . S
O325 C324 1.229 . S
O326 Zn320 1.969 1_565 S
O326 C329 1.267 . S
O327 Zn320 1.965 1_565 S
O327 C338 1.260 1_455 S
O328 Zn321 1.969 . S
O328 C338 1.258 . S
C329 O326 1.267 . S
C329 O330 1.228 . S
O330 C329 1.228 . S
O331 Zn320 2.024 . S
O331 C322 1.058 . S
C332 O333 1.228 . S
C332 O334 1.267 . S
O333 C332 1.228 . S
O334 Zn321 1.969 1_545 S
O334 C332 1.267 . S
O335 Zn321 1.965 1_445 S
O335 C339 1.260 . S
O336 Zn320 1.969 . S
O336 C339 1.258 . S
O337 Zn321 2.024 . S
O337 C324 1.058 . S
C338 O327 1.260 1_655 S
C338 O328 1.258 . S
C339 O335 1.260 . S
C339 O336 1.258 . S
Zn340 O346 1.969 . S
Zn340 O347 1.965 1_565 S
Zn340 O351 2.024 . S
Zn340 O356 1.969 1_556 S
Zn341 O348 1.969 . S
Zn341 O354 1.969 . S
Zn341 O355 1.965 1_545 S
Zn341 O357 2.024 . S
C342 O343 1.229 . S
C342 O351 1.058 . S
O343 C342 1.229 . S
C344 O345 1.229 . S
C344 O357 1.058 . S
O345 C344 1.229 . S
O346 Zn340 1.969 . S
O346 C349 1.267 . S
O347 Zn340 1.965 1_545 S
O347 C358 1.260 . S
O348 Zn341 1.969 . S
O348 C358 1.258 1_554 S
C349 O346 1.267 . S
C349 O350 1.228 . S
O350 C349 1.228 . S
O351 Zn340 2.024 . S
O351 C342 1.058 . S
C352 O353 1.228 . S
C352 O354 1.267 . S
O353 C352 1.228 . S
O354 Zn341 1.969 . S
O354 C352 1.267 . S
O355 Zn341 1.965 1_565 S
O355 C359 1.260 . S
O356 Zn340 1.969 1_554 S
O356 C359 1.258 . S
O357 Zn341 2.024 . S
O357 C344 1.058 . S
C358 O347 1.260 . S
C358 O348 1.258 1_556 S
C359 O355 1.260 . S
C359 O356 1.258 . S
Zn360 O366 1.969 . S
Zn360 O367 1.965 . S
Zn360 O371 2.024 . S
Zn360 O376 1.969 . S
Zn361 O368 1.969 . S
Zn361 O374 1.969 . S
Zn361 O375 1.965 . S
Zn361 O377 2.024 . S
C362 O363 1.229 . S
C362 O371 1.058 . S
O363 C362 1.229 . S
C364 O365 1.229 . S
C364 O377 1.058 . S
O365 C364 1.229 . S
O366 Zn360 1.969 . S
O366 C369 1.267 . S
O367 Zn360 1.965 . S
O367 C378 1.260 . S
O368 Zn361 1.969 . S
O368 C378 1.258 . S
C369 O366 1.267 . S
C369 O370 1.228 . S
O370 C369 1.228 . S
O371 Zn360 2.024 . S
O371 C362 1.058 . S
C372 O373 1.228 . S
C372 O374 1.267 . S
O373 C372 1.228 . S
O374 Zn361 1.969 . S
O374 C372 1.267 . S
O375 Zn361 1.965 . S
O375 C379 1.260 . S
O376 Zn360 1.969 . S
O376 C379 1.258 . S
O377 Zn361 2.024 . S
O377 C364 1.058 . S
C378 O367 1.260 . S
C378 O368 1.258 . S
C379 O375 1.260 . S
C379 O376 1.258 . S
Zn380 O386 1.969 . S
Zn380 O387 1.965 1_556 S
Zn380 O391 2.024 . S
Zn380 O396 1.969 1_655 S
Zn381 O388 1.969 . S
Zn381 O394 1.969 . S
Zn381 O395 1.965 1_554 S
Zn381 O397 2.024 . S
C382 O383 1.229 . S
C382 O391 1.058 . S
O383 C382 1.229 . S
C384 O385 1.229 . S
C384 O397 1.058 . S
O385 C384 1.229 . S
O386 Zn380 1.969 . S
O386 C389 1.267 . S
O387 Zn380 1.965 1_554 S
O387 C398 1.260 . S
O388 Zn381 1.969 . S
O388 C398 1.258 1_455 S
C389 O386 1.267 . S
C389 O390 1.228 . S
O390 C389 1.228 . S
O391 Zn380 2.024 . S
O391 C382 1.058 . S
C392 O393 1.228 . S
C392 O394 1.267 . S
O393 C392 1.228 . S
O394 Zn381 1.969 . S
O394 C392 1.267 . S
O395 Zn381 1.965 1_556 S
O395 C399 1.260 . S
O396 Zn380 1.969 1_455 S
O396 C399 1.258 . S
O397 Zn381 2.024 . S
O397 C384 1.058 . S
C398 O387 1.260 . S
C398 O388 1.258 1_655 S
C399 O395 1.260 . S
C399 O396 1.258 . S
C400 C401 1.363 . S
C400 C406 1.379 . S
C400 N408 1.356 . S
C401 C400 1.363 . S
C401 C407 1.363 . S
C402 C403 1.363 . S
C402 C407 1.379 . S
C402 N409 1.356 . S
C403 C402 1.363 . S
C403 C406 1.363 . S
N404 C406 1.356 . S
N404 H416 0.984 . S
N404 H417 0.985 . S
N405 C407 1.356 . S
N405 H410 0.984 . S
N405 H411 0.985 . S
C406 C400 1.379 . S
C406 C403 1.363 . S
C406 N404 1.356 . S
C407 C401 1.363 . S
C407 C402 1.379 . S
C407 N405 1.356 . S
N408 C400 1.356 . S
N408 H414 0.984 . S
N408 H415 0.984 . S
N409 C402 1.356 . S
N409 H412 0.984 . S
N409 H413 0.985 . S
H410 N405 0.984 . S
H411 N405 0.985 . S
H412 N409 0.984 . S
H413 N409 0.985 . S
H414 N408 0.984 . S
H415 N408 0.984 . S
H416 N404 0.984 . S
H417 N404 0.985 . S
C418 C419 1.363 . S
C418 C424 1.379 . S
C418 N426 1.356 . S
C419 C418 1.363 . S
C419 C425 1.363 . S
C420 C421 1.363 . S
C420 C425 1.379 . S
C420 N427 1.356 . S
C421 C420 1.363 . S
C421 C424 1.363 . S
N422 C424 1.356 . S
N422 H434 0.984 1_565 S
N422 H435 0.982 1_565 S
N423 C425 1.356 . S
N423 H428 0.984 . S
N423 H429 0.985 . S
C424 C418 1.379 . S
C424 C421 1.363 . S
C424 N422 1.356 . S
C425 C419 1.363 . S
C425 C420 1.379 . S
C425 N423 1.356 . S
N426 C418 1.356 . S
N426 H432 0.984 . S
N426 H433 0.984 . S
N427 C420 1.356 . S
N427 H430 0.984 . S
N427 H431 0.985 . S
H428 N423 0.984 . S
H429 N423 0.985 . S
H430 N427 0.984 . S
H431 N427 0.985 . S
H432 N426 0.984 . S
H433 N426 0.984 . S
H434 N422 0.984 1_545 S
H435 N422 0.982 1_545 S
C436 C437 1.363 . S
C436 C442 1.379 . S
C436 N444 1.356 . S
C437 C436 1.363 . S
C437 C443 1.363 . S
C438 C439 1.363 . S
C438 C443 1.379 . S
C438 N445 1.356 . S
C439 C438 1.363 . S
C439 C442 1.363 . S
N440 C442 1.356 . S
N440 H452 0.984 . S
N440 H453 0.985 . S
N441 C443 1.356 . S
N441 H446 0.984 . S
N441 H447 0.985 . S
C442 C436 1.379 . S
C442 C439 1.363 . S
C442 N440 1.356 . S
C443 C437 1.363 . S
C443 C438 1.379 . S
C443 N441 1.356 . S
N444 C436 1.356 . S
N444 H450 0.984 . S
N444 H451 0.984 . S
N445 C438 1.356 . S
N445 H448 0.984 . S
N445 H449 0.985 . S
H446 N441 0.984 . S
H447 N441 0.985 . S
H448 N445 0.984 . S
H449 N445 0.985 . S
H450 N444 0.984 . S
H451 N444 0.984 . S
H452 N440 0.984 . S
H453 N440 0.985 . S
C454 C455 1.363 . S
C454 C460 1.379 . S
C454 N462 1.356 . S
C455 C454 1.363 . S
C455 C461 1.363 . S
C456 C457 1.363 . S
C456 C461 1.379 . S
C456 N463 1.356 . S
C457 C456 1.363 . S
C457 C460 1.363 . S
N458 C460 1.356 . S
N458 H470 0.984 . S
N458 H471 0.985 . S
N459 C461 1.356 . S
N459 H464 0.984 . S
N459 H465 0.985 . S
C460 C454 1.379 . S
C460 C457 1.363 . S
C460 N458 1.356 . S
C461 C455 1.363 . S
C461 C456 1.379 . S
C461 N459 1.356 . S
N462 C454 1.356 . S
N462 H468 0.984 . S
N462 H469 0.984 . S
N463 C456 1.356 . S
N463 H466 0.984 . S
N463 H467 0.985 . S
H464 N459 0.984 . S
H465 N459 0.985 . S
H466 N463 0.984 . S
H467 N463 0.985 . S
H468 N462 0.984 . S
H469 N462 0.984 . S
H470 N458 0.984 . S
H471 N458 0.985 . S
C472 C473 1.363 . S
C472 C478 1.379 . S
C472 N480 1.356 . S
C473 C472 1.363 . S
C473 C479 1.363 . S
C474 C475 1.363 . S
C474 C479 1.379 . S
C474 N481 1.356 . S
C475 C474 1.363 . S
C475 C478 1.363 . S
N476 C478 1.356 . S
N476 H488 0.984 . S
N476 H489 0.985 . S
N477 C479 1.356 . S
N477 H482 0.984 . S
N477 H483 0.985 . S
C478 C472 1.379 . S
C478 C475 1.363 . S
C478 N476 1.356 . S
C479 C473 1.363 . S
C479 C474 1.379 . S
C479 N477 1.356 . S
N480 C472 1.356 . S
N480 H486 0.984 . S
N480 H487 0.984 . S
N481 C474 1.356 . S
N481 H484 0.984 . S
N481 H485 0.985 . S
H482 N477 0.984 . S
H483 N477 0.985 . S
H484 N481 0.984 . S
H485 N481 0.985 . S
H486 N480 0.984 . S
H487 N480 0.984 . S
H488 N476 0.984 . S
H489 N476 0.985 . S
C490 C491 1.363 . S
C490 C496 1.379 . S
C490 N498 1.356 . S
C491 C490 1.363 . S
C491 C497 1.363 . S
C492 C493 1.363 . S
C492 C497 1.379 . S
C492 N499 1.356 . S
C493 C492 1.363 . S
C493 C496 1.363 . S
N494 C496 1.356 . S
N494 H506 0.984 . S
N494 H507 0.985 . S
N495 C497 1.356 . S
N495 H500 0.984 . S
N495 H501 0.985 . S
C496 C490 1.379 . S
C496 C493 1.363 . S
C496 N494 1.356 . S
C497 C491 1.363 . S
C497 C492 1.379 . S
C497 N495 1.356 . S
N498 C490 1.356 . S
N498 H504 0.984 . S
N498 H505 0.984 . S
N499 C492 1.356 . S
N499 H502 0.984 . S
N499 H503 0.985 . S
H500 N495 0.984 . S
H501 N495 0.985 . S
H502 N499 0.984 . S
H503 N499 0.985 . S
H504 N498 0.984 . S
H505 N498 0.984 . S
H506 N494 0.984 . S
H507 N494 0.985 . S
C508 C509 1.363 . S
C508 C514 1.379 . S
C508 N516 1.356 . S
C509 C508 1.363 . S
C509 C515 1.363 . S
C510 C511 1.363 . S
C510 C515 1.379 . S
C510 N517 1.356 . S
C511 C510 1.363 . S
C511 C514 1.363 . S
N512 C514 1.356 . S
N512 H524 0.984 . S
N512 H525 0.985 . S
N513 C515 1.356 . S
N513 H518 0.984 . S
N513 H519 0.985 . S
C514 C508 1.379 . S
C514 C511 1.363 . S
C514 N512 1.356 . S
C515 C509 1.363 . S
C515 C510 1.379 . S
C515 N513 1.356 . S
N516 C508 1.356 . S
N516 H522 0.984 . S
N516 H523 0.984 . S
N517 C510 1.356 . S
N517 H520 0.984 . S
N517 H521 0.985 . S
H518 N513 0.984 . S
H519 N513 0.985 . S
H520 N517 0.984 . S
H521 N517 0.985 . S
H522 N516 0.984 . S
H523 N516 0.984 . S
H524 N512 0.984 . S
H525 N512 0.985 . S
C526 C527 1.363 . S
C526 C532 1.379 . S
C526 N534 1.356 . S
C527 C526 1.363 . S
C527 C533 1.363 . S
C528 C529 1.363 . S
C528 C533 1.379 . S
C528 N535 1.356 . S
C529 C528 1.363 . S
C529 C532 1.363 . S
N530 C532 1.356 . S
N530 H542 0.984 . S
N530 H543 0.985 . S
N531 C533 1.356 . S
N531 H536 0.984 . S
N531 H537 0.985 . S
C532 C526 1.379 . S
C532 C529 1.363 . S
C532 N530 1.356 . S
C533 C527 1.363 . S
C533 C528 1.379 . S
C533 N531 1.356 . S
N534 C526 1.356 . S
N534 H540 0.984 . S
N534 H541 0.984 . S
N535 C528 1.356 . S
N535 H538 0.984 . S
N535 H539 0.985 . S
H536 N531 0.984 . S
H537 N531 0.985 . S
H538 N535 0.984 . S
H539 N535 0.985 . S
H540 N534 0.984 . S
H541 N534 0.984 . S
H542 N530 0.984 . S
H543 N530 0.985 . S
C544 C545 1.363 . S
C544 C550 1.379 . S
C544 N552 1.356 . S
C545 C544 1.363 . S
C545 C551 1.363 . S
C546 C547 1.363 . S
C546 C551 1.379 . S
C546 N553 1.356 . S
C547 C546 1.363 . S
C547 C550 1.363 . S
N548 C550 1.356 . S
N548 H560 0.984 . S
N548 H561 0.985 . S
N549 C551 1.356 . S
N549 H554 0.984 . S
N549 H555 0.985 . S
C550 C544 1.379 . S
C550 C547 1.363 . S
C550 N548 1.356 . S
C551 C545 1.363 . S
C551 C546 1.379 . S
C551 N549 1.356 . S
N552 C544 1.356 . S
N552 H558 0.984 . S
N552 H559 0.984 . S
N553 C546 1.356 . S
N553 H556 0.984 . S
N553 H557 0.985 . S
H554 N549 0.984 . S
H555 N549 0.985 . S
H556 N553 0.984 . S
H557 N553 0.985 . S
H558 N552 0.984 . S
H559 N552 0.984 . S
H560 N548 0.984 . S
H561 N548 0.985 . S
C562 C563 1.363 . S
C562 C568 1.379 . S
C562 N570 1.356 . S
C563 C562 1.363 . S
C563 C569 1.363 . S
C564 C565 1.363 . S
C564 C569 1.379 . S
C564 N571 1.346 1_556 S
C565 C564 1.363 . S
C565 C568 1.363 . S
N566 C568 1.356 . S
N566 H578 0.984 . S
N566 H579 0.985 . S
N567 C569 1.356 . S
N567 H572 0.984 . S
N567 H573 0.985 . S
C568 C562 1.379 . S
C568 C565 1.363 . S
C568 N566 1.356 . S
C569 C563 1.363 . S
C569 C564 1.379 . S
C569 N567 1.356 . S
N570 C562 1.356 . S
N570 H576 0.984 . S
N570 H577 0.984 . S
N571 C564 1.346 1_554 S
N571 H574 0.987 . S
N571 H575 0.992 . S
H572 N567 0.984 . S
H573 N567 0.985 . S
H574 N571 0.987 . S
H575 N571 0.992 . S
H576 N570 0.984 . S
H577 N570 0.984 . S
H578 N566 0.984 . S
H579 N566 0.985 . S
C580 C581 1.363 . S
C580 C586 1.379 . S
C580 N588 1.356 . S
C581 C580 1.363 . S
C581 C587 1.363 . S
C582 C583 1.363 . S
C582 C587 1.379 . S
C582 N589 1.356 . S
C583 C582 1.363 . S
C583 C586 1.363 . S
N584 C586 1.356 . S
N584 H596 0.984 . S
N584 H597 0.985 . S
N585 C587 1.356 . S
N585 H590 0.984 . S
N585 H591 0.985 . S
C586 C580 1.379 . S
C586 C583 1.363 . S
C586 N584 1.356 . S
C587 C581 1.363 . S
C587 C582 1.379 . S
C587 N585 1.356 . S
N588 C580 1.356 . S
N588 H594 0.984 . S
N588 H595 0.984 . S
N589 C582 1.356 . S
N589 H592 0.984 . S
N589 H593 0.985 . S
H590 N585 0.984 . S
H591 N585 0.985 . S
H592 N589 0.984 . S
H593 N589 0.985 . S
H594 N588 0.984 . S
H595 N588 0.984 . S
H596 N584 0.984 . S
H597 N584 0.985 . S
C598 C599 1.363 . S
C598 C604 1.379 . S
C598 N606 1.356 . S
C599 C598 1.363 . S
C599 C605 1.363 . S
C600 C601 1.363 . S
C600 C605 1.379 . S
C600 N607 1.356 . S
C601 C600 1.363 . S
C601 C604 1.363 . S
N602 C604 1.356 . S
N602 H614 0.984 . S
N602 H615 0.985 . S
N603 C605 1.356 . S
N603 H608 0.984 . S
N603 H609 0.985 . S
C604 C598 1.379 . S
C604 C601 1.363 . S
C604 N602 1.356 . S
C605 C599 1.363 . S
C605 C600 1.379 . S
C605 N603 1.356 . S
N606 C598 1.356 . S
N606 H612 0.984 . S
N606 H613 0.984 . S
N607 C600 1.356 . S
N607 H610 0.984 . S
N607 H611 0.985 . S
H608 N603 0.984 . S
H609 N603 0.985 . S
H610 N607 0.984 . S
H611 N607 0.985 . S
H612 N606 0.984 . S
H613 N606 0.984 . S
H614 N602 0.984 . S
H615 N602 0.985 . S
C616 C617 1.363 . S
C616 C622 1.379 . S
C616 N624 1.356 . S
C617 C616 1.363 . S
C617 C623 1.363 . S
C618 C619 1.363 . S
C618 C623 1.379 . S
C618 N625 1.356 . S
C619 C618 1.363 . S
C619 C622 1.363 . S
N620 C622 1.356 . S
N620 H632 0.984 . S
N620 H633 0.985 . S
N621 C623 1.356 . S
N621 H626 0.984 . S
N621 H627 0.985 . S
C622 C616 1.379 . S
C622 C619 1.363 . S
C622 N620 1.356 . S
C623 C617 1.363 . S
C623 C618 1.379 . S
C623 N621 1.356 . S
N624 C616 1.356 . S
N624 H630 0.984 . S
N624 H631 0.984 . S
N625 C618 1.356 . S
N625 H628 0.984 . S
N625 H629 0.985 . S
H626 N621 0.984 . S
H627 N621 0.985 . S
H628 N625 0.984 . S
H629 N625 0.985 . S
H630 N624 0.984 . S
H631 N624 0.984 . S
H632 N620 0.984 . S
H633 N620 0.985 . S
C634 C635 1.363 . S
C634 C640 1.379 . S
C634 N642 1.356 . S
C635 C634 1.363 . S
C635 C641 1.363 . S
C636 C637 1.363 . S
C636 C641 1.379 . S
C636 N643 1.356 . S
C637 C636 1.363 . S
C637 C640 1.363 . S
N638 C640 1.356 . S
N638 H650 0.984 1_545 S
N638 H651 0.985 . S
N639 C641 1.356 . S
N639 H644 0.984 . S
N639 H645 0.985 . S
C640 C634 1.379 . S
C640 C637 1.363 . S
C640 N638 1.356 . S
C641 C635 1.363 . S
C641 C636 1.379 . S
C641 N639 1.356 . S
N642 C634 1.356 . S
N642 H648 0.984 . S
N642 H649 0.984 . S
N643 C636 1.356 . S
N643 H646 0.984 . S
N643 H647 0.985 . S
H644 N639 0.984 . S
H645 N639 0.985 . S
H646 N643 0.984 . S
H647 N643 0.985 . S
H648 N642 0.984 . S
H649 N642 0.984 . S
H650 N638 0.984 1_565 S
H651 N638 0.985 . S
C652 C653 1.363 . S
C652 C658 1.379 . S
C652 N660 1.356 . S
C653 C652 1.363 . S
C653 C659 1.363 . S
C654 C655 1.363 . S
C654 C659 1.379 . S
C654 N661 1.356 . S
C655 C654 1.363 . S
C655 C658 1.363 . S
N656 C658 1.356 . S
N656 H668 0.984 . S
N656 H669 0.985 . S
N657 C659 1.356 . S
N657 H662 0.984 . S
N657 H663 0.985 . S
C658 C652 1.379 . S
C658 C655 1.363 . S
C658 N656 1.356 . S
C659 C653 1.363 . S
C659 C654 1.379 . S
C659 N657 1.356 . S
N660 C652 1.356 . S
N660 H666 0.984 . S
N660 H667 0.984 . S
N661 C654 1.356 . S
N661 H664 0.984 . S
N661 H665 0.985 . S
H662 N657 0.984 . S
H663 N657 0.985 . S
H664 N661 0.984 . S
H665 N661 0.985 . S
H666 N660 0.984 . S
H667 N660 0.984 . S
H668 N656 0.984 . S
H669 N656 0.985 . S
C670 C671 1.363 . S
C670 C676 1.379 . S
C670 N678 1.356 . S
C671 C670 1.363 . S
C671 C677 1.363 . S
C672 C673 1.363 . S
C672 C677 1.379 . S
C672 N679 1.356 . S
C673 C672 1.363 . S
C673 C676 1.363 . S
N674 C676 1.356 . S
N674 H686 0.984 . S
N674 H687 0.985 . S
N675 C677 1.356 . S
N675 H680 0.984 . S
N675 H681 0.985 . S
C676 C670 1.379 . S
C676 C673 1.363 . S
C676 N674 1.356 . S
C677 C671 1.363 . S
C677 C672 1.379 . S
C677 N675 1.356 . S
N678 C670 1.356 . S
N678 H684 0.984 . S
N678 H685 0.984 . S
N679 C672 1.356 . S
N679 H682 0.984 . S
N679 H683 0.985 . S
H680 N675 0.984 . S
H681 N675 0.985 . S
H682 N679 0.984 . S
H683 N679 0.985 . S
H684 N678 0.984 . S
H685 N678 0.984 . S
H686 N674 0.984 . S
H687 N674 0.985 . S
C688 C689 1.363 . S
C688 C694 1.379 . S
C688 N696 1.356 . S
C689 C688 1.363 . S
C689 C695 1.363 . S
C690 C691 1.363 . S
C690 C695 1.379 . S
C690 N697 1.356 . S
C691 C690 1.363 . S
C691 C694 1.363 . S
N692 C694 1.356 . S
N692 H704 0.984 . S
N692 H705 0.985 . S
N693 C695 1.356 . S
N693 H698 0.984 . S
N693 H699 0.985 . S
C694 C688 1.379 . S
C694 C691 1.363 . S
C694 N692 1.356 . S
C695 C689 1.363 . S
C695 C690 1.379 . S
C695 N693 1.356 . S
N696 C688 1.356 . S
N696 H702 0.984 . S
N696 H703 0.984 . S
N697 C690 1.356 . S
N697 H700 0.984 . S
N697 H701 0.985 1_565 S
H698 N693 0.984 . S
H699 N693 0.985 . S
H700 N697 0.984 . S
H701 N697 0.985 1_545 S
H702 N696 0.984 . S
H703 N696 0.984 . S
H704 N692 0.984 . S
H705 N692 0.985 . S
C706 C707 1.363 . S
C706 C712 1.379 . S
C706 N714 1.356 . S
C707 C706 1.363 . S
C707 C713 1.363 . S
C708 C709 1.363 . S
C708 C713 1.379 . S
C708 N715 1.356 . S
C709 C708 1.363 . S
C709 C712 1.363 . S
N710 C712 1.356 . S
N710 H722 0.984 1_545 S
N710 H723 0.985 . S
N711 C713 1.356 . S
N711 H716 0.984 . S
N711 H717 0.985 . S
C712 C706 1.379 . S
C712 C709 1.363 . S
C712 N710 1.356 . S
C713 C707 1.363 . S
C713 C708 1.379 . S
C713 N711 1.356 . S
N714 C706 1.356 . S
N714 H720 0.984 . S
N714 H721 0.984 . S
N715 C708 1.356 . S
N715 H718 0.984 . S
N715 H719 0.985 . S
H716 N711 0.984 . S
H717 N711 0.985 . S
H718 N715 0.984 . S
H719 N715 0.985 . S
H720 N714 0.984 . S
H721 N714 0.984 . S
H722 N710 0.984 1_565 S
H723 N710 0.985 . S
C724 C725 1.363 . S
C724 C730 1.379 . S
C724 N732 1.356 . S
C725 C724 1.363 . S
C725 C731 1.363 . S
C726 C727 1.363 . S
C726 C731 1.379 . S
C726 N733 1.356 . S
C727 C726 1.363 . S
C727 C730 1.363 . S
N728 C730 1.356 . S
N728 H740 0.984 . S
N728 H741 0.985 . S
N729 C731 1.356 . S
N729 H734 0.984 . S
N729 H735 0.985 . S
C730 C724 1.379 . S
C730 C727 1.363 . S
C730 N728 1.356 . S
C731 C725 1.363 . S
C731 C726 1.379 . S
C731 N729 1.356 . S
N732 C724 1.356 . S
N732 H738 0.984 . S
N732 H739 0.984 . S
N733 C726 1.356 . S
N733 H736 0.984 . S
N733 H737 0.985 . S
H734 N729 0.984 . S
H735 N729 0.985 . S
H736 N733 0.984 . S
H737 N733 0.985 . S
H738 N732 0.984 . S
H739 N732 0.984 . S
H740 N728 0.984 . S
H741 N728 0.985 . S
C742 C743 1.363 . S
C742 C748 1.379 . S
C742 N750 1.356 . S
C743 C742 1.363 . S
C743 C749 1.363 . S
C744 C745 1.363 . S
C744 C749 1.379 . S
C744 N751 1.356 . S
C745 C744 1.363 . S
C745 C748 1.363 . S
N746 C748 1.356 . S
N746 H758 0.984 . S
N746 H759 0.985 . S
N747 C749 1.356 . S
N747 H752 0.984 . S
N747 H753 0.985 . S
C748 C742 1.379 . S
C748 C745 1.363 . S
C748 N746 1.356 . S
C749 C743 1.363 . S
C749 C744 1.379 . S
C749 N747 1.356 . S
N750 C742 1.356 . S
N750 H756 0.984 . S
N750 H757 0.984 . S
N751 C744 1.356 . S
N751 H754 0.984 . S
N751 H755 0.985 . S
H752 N747 0.984 . S
H753 N747 0.985 . S
H754 N751 0.984 . S
H755 N751 0.985 . S
H756 N750 0.984 . S
H757 N750 0.984 . S
H758 N746 0.984 . S
H759 N746 0.985 . S
C760 C761 1.363 . S
C760 C766 1.379 . S
C760 N768 1.356 . S
C761 C760 1.363 . S
C761 C767 1.363 . S
C762 C763 1.363 . S
C762 C767 1.379 . S
C762 N769 1.356 . S
C763 C762 1.363 . S
C763 C766 1.363 . S
N764 C766 1.356 . S
N764 H776 0.984 . S
N764 H777 0.985 . S
N765 C767 1.356 . S
N765 H770 0.984 . S
N765 H771 0.985 . S
C766 C760 1.379 . S
C766 C763 1.363 . S
C766 N764 1.356 . S
C767 C761 1.363 . S
C767 C762 1.379 . S
C767 N765 1.356 . S
N768 C760 1.356 . S
N768 H774 0.984 . S
N768 H775 0.984 . S
N769 C762 1.356 . S
N769 H772 0.984 . S
N769 H773 0.985 . S
H770 N765 0.984 . S
H771 N765 0.985 . S
H772 N769 0.984 . S
H773 N769 0.985 . S
H774 N768 0.984 . S
H775 N768 0.984 . S
H776 N764 0.984 . S
H777 N764 0.985 . S
C778 C779 1.363 . S
C778 C784 1.379 . S
C778 N786 1.356 . S
C779 C778 1.363 . S
C779 C785 1.363 . S
C780 C781 1.363 . S
C780 C785 1.379 . S
C780 N787 1.356 . S
C781 C780 1.363 . S
C781 C784 1.363 . S
N782 C784 1.356 . S
N782 H794 0.984 1_554 S
N782 H795 0.985 . S
N783 C785 1.356 . S
N783 H788 0.984 . S
N783 H789 0.985 . S
C784 C778 1.379 . S
C784 C781 1.363 . S
C784 N782 1.356 . S
C785 C779 1.363 . S
C785 C780 1.379 . S
C785 N783 1.356 . S
N786 C778 1.356 . S
N786 H792 0.984 . S
N786 H793 0.984 . S
N787 C780 1.356 . S
N787 H790 0.984 . S
N787 H791 0.985 . S
H788 N783 0.984 . S
H789 N783 0.985 . S
H790 N787 0.984 . S
H791 N787 0.985 . S
H792 N786 0.984 . S
H793 N786 0.984 . S
H794 N782 0.984 1_556 S
H795 N782 0.985 . S
C796 C797 1.363 . S
C796 C802 1.379 . S
C796 N804 1.356 . S
C797 C796 1.363 . S
C797 C803 1.363 . S
C798 C799 1.363 . S
C798 C803 1.379 . S
C798 N805 1.356 . S
C799 C798 1.363 . S
C799 C802 1.363 . S
N800 C802 1.356 . S
N800 H812 0.984 1_455 S
N800 H813 0.985 . S
N801 C803 1.356 . S
N801 H806 0.984 . S
N801 H807 0.985 . S
C802 C796 1.379 . S
C802 C799 1.363 . S
C802 N800 1.356 . S
C803 C797 1.363 . S
C803 C798 1.379 . S
C803 N801 1.356 . S
N804 C796 1.356 . S
N804 H810 0.984 . S
N804 H811 0.984 . S
N805 C798 1.356 . S
N805 H808 0.984 . S
N805 H809 0.985 . S
H806 N801 0.984 . S
H807 N801 0.985 . S
H808 N805 0.984 . S
H809 N805 0.985 . S
H810 N804 0.984 . S
H811 N804 0.984 . S
H812 N800 0.984 1_655 S
H813 N800 0.985 . S
C814 C815 1.363 . S
C814 C820 1.379 . S
C814 N822 1.356 . S
C815 C814 1.363 . S
C815 C821 1.363 . S
C816 C817 1.363 . S
C816 C821 1.379 . S
C816 N823 1.356 . S
C817 C816 1.363 . S
C817 C820 1.363 . S
N818 C820 1.356 . S
N818 H830 0.984 . S
N818 H831 0.985 . S
N819 C821 1.356 . S
N819 H824 0.984 . S
N819 H825 0.985 . S
C820 C814 1.379 . S
C820 C817 1.363 . S
C820 N818 1.356 . S
C821 C815 1.363 . S
C821 C816 1.379 . S
C821 N819 1.356 . S
N822 C814 1.356 . S
N822 H828 0.984 . S
N822 H829 0.984 . S
N823 C816 1.356 . S
N823 H826 0.984 . S
N823 H827 0.985 . S
H824 N819 0.984 . S
H825 N819 0.985 . S
H826 N823 0.984 . S
H827 N823 0.985 . S
H828 N822 0.984 . S
H829 N822 0.984 . S
H830 N818 0.984 . S
H831 N818 0.985 . S
C401 C21 1.528 . S
C403 C339 1.544 . S
C419 C61 1.330 . S
C421 C342 1.300 . S
C439 C378 1.752 . S
C437 C82 1.721 . S
C455 C135 1.710 . S
C457 C398 1.699 . S
C475 C352 1.674 . S
C473 C15 1.713 . S
C493 C329 1.511 . S
C491 C42 1.525 . S
C511 C382 1.573 . S
C509 C101 1.698 . S
C529 C362 1.414 . S
C527 C122 1.490 . S
C545 C2 1.390 . S
C547 C392 1.364 . S
C565 C358 1.593 . S
C563 C95 1.606 . S
C581 C141 1.669 . S
C583 C324 1.662 . S
C599 C55 1.333 . S
C601 C372 1.298 . S
C619 C338 1.562 . S
C617 C181 1.641 . S
C635 C202 1.303 . S
C637 C344 1.284 . S
C653 C255 1.762 . S
C655 C379 1.746 . S
C671 C295 1.694 . S
C673 C399 1.690 . S
C689 C175 1.714 . S
C691 C349 1.666 . S
C709 C332 1.526 . S
C707 C221 1.537 . S
C727 C384 1.518 . S
C725 C242 1.689 . S
C745 C364 1.456 . S
C743 C301 1.505 . S
C761 C162 1.439 . S
C763 C389 1.340 . S
C781 C359 1.638 . S
C779 C261 1.645 . S
C799 C322 1.620 . S
C797 C282 1.656 . S
C815 C215 1.360 . S
C817 C369 1.325 . S
