# Generated by pormake.
# Topology gar, (4,6)-cn, num edge types: 1
# Building blocks:
#     Node 0, Type 0, BuildingBlock: UXUYUI_clean_sbu_0, # of connection points: 4
#     Node 1, Type 0, BuildingBlock: UXUYUI_clean_sbu_0, # of connection points: 4
#     Node 2, Type 0, BuildingBlock: UXUYUI_clean_sbu_0, # of connection points: 4
#     Node 3, Type 0, BuildingBlock: UXUYUI_clean_sbu_0, # of connection points: 4
#     Node 4, Type 0, BuildingBlock: UXUYUI_clean_sbu_0, # of connection points: 4
#     Node 5, Type 0, BuildingBlock: UXUYUI_clean_sbu_0, # of connection points: 4
#     Node 6, Type 0, BuildingBlock: UXUYUI_clean_sbu_0, # of connection points: 4
#     Node 7, Type 0, BuildingBlock: UXUYUI_clean_sbu_0, # of connection points: 4
#     Node 8, Type 0, BuildingBlock: UXUYUI_clean_sbu_0, # of connection points: 4
#     Node 9, Type 0, BuildingBlock: UXUYUI_clean_sbu_0, # of connection points: 4
#     Node 10, Type 0, BuildingBlock: UXUYUI_clean_sbu_0, # of connection points: 4
#     Node 11, Type 0, BuildingBlock: UXUYUI_clean_sbu_0, # of connection points: 4
#     Node 12, Type 0, BuildingBlock: UXUYUI_clean_sbu_0, # of connection points: 4
#     Node 13, Type 0, BuildingBlock: UXUYUI_clean_sbu_0, # of connection points: 4
#     Node 14, Type 0, BuildingBlock: UXUYUI_clean_sbu_0, # of connection points: 4
#     Node 15, Type 0, BuildingBlock: UXUYUI_clean_sbu_0, # of connection points: 4
#     Node 16, Type 0, BuildingBlock: UXUYUI_clean_sbu_0, # of connection points: 4
#     Node 17, Type 0, BuildingBlock: UXUYUI_clean_sbu_0, # of connection points: 4
#     Node 18, Type 0, BuildingBlock: UXUYUI_clean_sbu_0, # of connection points: 4
#     Node 19, Type 0, BuildingBlock: UXUYUI_clean_sbu_0, # of connection points: 4
#     Node 20, Type 0, BuildingBlock: UXUYUI_clean_sbu_0, # of connection points: 4
#     Node 21, Type 0, BuildingBlock: UXUYUI_clean_sbu_0, # of connection points: 4
#     Node 22, Type 0, BuildingBlock: UXUYUI_clean_sbu_0, # of connection points: 4
#     Node 23, Type 0, BuildingBlock: UXUYUI_clean_sbu_0, # of connection points: 4
#     Node 24, Type 1, BuildingBlock: CUKXOW_clean_sbu_0, # of connection points: 6
#     Node 25, Type 1, BuildingBlock: CUKXOW_clean_sbu_0, # of connection points: 6
#     Node 26, Type 1, BuildingBlock: CUKXOW_clean_sbu_0, # of connection points: 6
#     Node 27, Type 1, BuildingBlock: CUKXOW_clean_sbu_0, # of connection points: 6
#     Node 28, Type 1, BuildingBlock: CUKXOW_clean_sbu_0, # of connection points: 6
#     Node 29, Type 1, BuildingBlock: CUKXOW_clean_sbu_0, # of connection points: 6
#     Node 30, Type 1, BuildingBlock: CUKXOW_clean_sbu_0, # of connection points: 6
#     Node 31, Type 1, BuildingBlock: CUKXOW_clean_sbu_0, # of connection points: 6
#     Node 32, Type 1, BuildingBlock: CUKXOW_clean_sbu_0, # of connection points: 6
#     Node 33, Type 1, BuildingBlock: CUKXOW_clean_sbu_0, # of connection points: 6
#     Node 34, Type 1, BuildingBlock: CUKXOW_clean_sbu_0, # of connection points: 6
#     Node 35, Type 1, BuildingBlock: CUKXOW_clean_sbu_0, # of connection points: 6
#     Node 36, Type 1, BuildingBlock: CUKXOW_clean_sbu_0, # of connection points: 6
#     Node 37, Type 1, BuildingBlock: CUKXOW_clean_sbu_0, # of connection points: 6
#     Node 38, Type 1, BuildingBlock: CUKXOW_clean_sbu_0, # of connection points: 6
#     Node 39, Type 1, BuildingBlock: CUKXOW_clean_sbu_0, # of connection points: 6
#     Edge 40, Type (0, 1), BuildingBlock: AJUNOK_clean_linker_0, # of connection points: 2
#     Edge 41, Type (0, 1), BuildingBlock: AJUNOK_clean_linker_0, # of connection points: 2
#     Edge 42, Type (0, 1), BuildingBlock: AJUNOK_clean_linker_0, # of connection points: 2
#     Edge 43, Type (0, 1), BuildingBlock: AJUNOK_clean_linker_0, # of connection points: 2
#     Edge 44, Type (0, 1), BuildingBlock: AJUNOK_clean_linker_0, # of connection points: 2
#     Edge 45, Type (0, 1), BuildingBlock: AJUNOK_clean_linker_0, # of connection points: 2
#     Edge 46, Type (0, 1), BuildingBlock: AJUNOK_clean_linker_0, # of connection points: 2
#     Edge 47, Type (0, 1), BuildingBlock: AJUNOK_clean_linker_0, # of connection points: 2
#     Edge 48, Type (0, 1), BuildingBlock: AJUNOK_clean_linker_0, # of connection points: 2
#     Edge 49, Type (0, 1), BuildingBlock: AJUNOK_clean_linker_0, # of connection points: 2
#     Edge 50, Type (0, 1), BuildingBlock: AJUNOK_clean_linker_0, # of connection points: 2
#     Edge 51, Type (0, 1), BuildingBlock: AJUNOK_clean_linker_0, # of connection points: 2
#     Edge 52, Type (0, 1), BuildingBlock: AJUNOK_clean_linker_0, # of connection points: 2
#     Edge 53, Type (0, 1), BuildingBlock: AJUNOK_clean_linker_0, # of connection points: 2
#     Edge 54, Type (0, 1), BuildingBlock: AJUNOK_clean_linker_0, # of connection points: 2
#     Edge 55, Type (0, 1), BuildingBlock: AJUNOK_clean_linker_0, # of connection points: 2
#     Edge 56, Type (0, 1), BuildingBlock: AJUNOK_clean_linker_0, # of connection points: 2
#     Edge 57, Type (0, 1), BuildingBlock: AJUNOK_clean_linker_0, # of connection points: 2
#     Edge 58, Type (0, 1), BuildingBlock: AJUNOK_clean_linker_0, # of connection points: 2
#     Edge 59, Type (0, 1), BuildingBlock: AJUNOK_clean_linker_0, # of connection points: 2
#     Edge 60, Type (0, 1), BuildingBlock: AJUNOK_clean_linker_0, # of connection points: 2
#     Edge 61, Type (0, 1), BuildingBlock: AJUNOK_clean_linker_0, # of connection points: 2
#     Edge 62, Type (0, 1), BuildingBlock: AJUNOK_clean_linker_0, # of connection points: 2
#     Edge 63, Type (0, 1), BuildingBlock: AJUNOK_clean_linker_0, # of connection points: 2
#     Edge 64, Type (0, 1), BuildingBlock: AJUNOK_clean_linker_0, # of connection points: 2
#     Edge 65, Type (0, 1), BuildingBlock: AJUNOK_clean_linker_0, # of connection points: 2
#     Edge 66, Type (0, 1), BuildingBlock: AJUNOK_clean_linker_0, # of connection points: 2
#     Edge 67, Type (0, 1), BuildingBlock: AJUNOK_clean_linker_0, # of connection points: 2
#     Edge 68, Type (0, 1), BuildingBlock: AJUNOK_clean_linker_0, # of connection points: 2
#     Edge 69, Type (0, 1), BuildingBlock: AJUNOK_clean_linker_0, # of connection points: 2
#     Edge 70, Type (0, 1), BuildingBlock: AJUNOK_clean_linker_0, # of connection points: 2
#     Edge 71, Type (0, 1), BuildingBlock: AJUNOK_clean_linker_0, # of connection points: 2
#     Edge 72, Type (0, 1), BuildingBlock: AJUNOK_clean_linker_0, # of connection points: 2
#     Edge 73, Type (0, 1), BuildingBlock: AJUNOK_clean_linker_0, # of connection points: 2
#     Edge 74, Type (0, 1), BuildingBlock: AJUNOK_clean_linker_0, # of connection points: 2
#     Edge 75, Type (0, 1), BuildingBlock: AJUNOK_clean_linker_0, # of connection points: 2
#     Edge 76, Type (0, 1), BuildingBlock: AJUNOK_clean_linker_0, # of connection points: 2
#     Edge 77, Type (0, 1), BuildingBlock: AJUNOK_clean_linker_0, # of connection points: 2
#     Edge 78, Type (0, 1), BuildingBlock: AJUNOK_clean_linker_0, # of connection points: 2
#     Edge 79, Type (0, 1), BuildingBlock: AJUNOK_clean_linker_0, # of connection points: 2
#     Edge 80, Type (0, 1), BuildingBlock: AJUNOK_clean_linker_0, # of connection points: 2
#     Edge 81, Type (0, 1), BuildingBlock: AJUNOK_clean_linker_0, # of connection points: 2
#     Edge 82, Type (0, 1), BuildingBlock: AJUNOK_clean_linker_0, # of connection points: 2
#     Edge 83, Type (0, 1), BuildingBlock: AJUNOK_clean_linker_0, # of connection points: 2
#     Edge 84, Type (0, 1), BuildingBlock: AJUNOK_clean_linker_0, # of connection points: 2
#     Edge 85, Type (0, 1), BuildingBlock: AJUNOK_clean_linker_0, # of connection points: 2
#     Edge 86, Type (0, 1), BuildingBlock: AJUNOK_clean_linker_0, # of connection points: 2
#     Edge 87, Type (0, 1), BuildingBlock: AJUNOK_clean_linker_0, # of connection points: 2
#     Edge 88, Type (0, 1), BuildingBlock: AJUNOK_clean_linker_0, # of connection points: 2
#     Edge 89, Type (0, 1), BuildingBlock: AJUNOK_clean_linker_0, # of connection points: 2
#     Edge 90, Type (0, 1), BuildingBlock: AJUNOK_clean_linker_0, # of connection points: 2
#     Edge 91, Type (0, 1), BuildingBlock: AJUNOK_clean_linker_0, # of connection points: 2
#     Edge 92, Type (0, 1), BuildingBlock: AJUNOK_clean_linker_0, # of connection points: 2
#     Edge 93, Type (0, 1), BuildingBlock: AJUNOK_clean_linker_0, # of connection points: 2
#     Edge 94, Type (0, 1), BuildingBlock: AJUNOK_clean_linker_0, # of connection points: 2
#     Edge 95, Type (0, 1), BuildingBlock: AJUNOK_clean_linker_0, # of connection points: 2
#     Edge 96, Type (0, 1), BuildingBlock: AJUNOK_clean_linker_0, # of connection points: 2
#     Edge 97, Type (0, 1), BuildingBlock: AJUNOK_clean_linker_0, # of connection points: 2
#     Edge 98, Type (0, 1), BuildingBlock: AJUNOK_clean_linker_0, # of connection points: 2
#     Edge 99, Type (0, 1), BuildingBlock: AJUNOK_clean_linker_0, # of connection points: 2
#     Edge 100, Type (0, 1), BuildingBlock: AJUNOK_clean_linker_0, # of connection points: 2
#     Edge 101, Type (0, 1), BuildingBlock: AJUNOK_clean_linker_0, # of connection points: 2
#     Edge 102, Type (0, 1), BuildingBlock: AJUNOK_clean_linker_0, # of connection points: 2
#     Edge 103, Type (0, 1), BuildingBlock: AJUNOK_clean_linker_0, # of connection points: 2
#     Edge 104, Type (0, 1), BuildingBlock: AJUNOK_clean_linker_0, # of connection points: 2
#     Edge 105, Type (0, 1), BuildingBlock: AJUNOK_clean_linker_0, # of connection points: 2
#     Edge 106, Type (0, 1), BuildingBlock: AJUNOK_clean_linker_0, # of connection points: 2
#     Edge 107, Type (0, 1), BuildingBlock: AJUNOK_clean_linker_0, # of connection points: 2
#     Edge 108, Type (0, 1), BuildingBlock: AJUNOK_clean_linker_0, # of connection points: 2
#     Edge 109, Type (0, 1), BuildingBlock: AJUNOK_clean_linker_0, # of connection points: 2
#     Edge 110, Type (0, 1), BuildingBlock: AJUNOK_clean_linker_0, # of connection points: 2
#     Edge 111, Type (0, 1), BuildingBlock: AJUNOK_clean_linker_0, # of connection points: 2
#     Edge 112, Type (0, 1), BuildingBlock: AJUNOK_clean_linker_0, # of connection points: 2
#     Edge 113, Type (0, 1), BuildingBlock: AJUNOK_clean_linker_0, # of connection points: 2
#     Edge 114, Type (0, 1), BuildingBlock: AJUNOK_clean_linker_0, # of connection points: 2
#     Edge 115, Type (0, 1), BuildingBlock: AJUNOK_clean_linker_0, # of connection points: 2
#     Edge 116, Type (0, 1), BuildingBlock: AJUNOK_clean_linker_0, # of connection points: 2
#     Edge 117, Type (0, 1), BuildingBlock: AJUNOK_clean_linker_0, # of connection points: 2
#     Edge 118, Type (0, 1), BuildingBlock: AJUNOK_clean_linker_0, # of connection points: 2
#     Edge 119, Type (0, 1), BuildingBlock: AJUNOK_clean_linker_0, # of connection points: 2
#     Edge 120, Type (0, 1), BuildingBlock: AJUNOK_clean_linker_0, # of connection points: 2
#     Edge 121, Type (0, 1), BuildingBlock: AJUNOK_clean_linker_0, # of connection points: 2
#     Edge 122, Type (0, 1), BuildingBlock: AJUNOK_clean_linker_0, # of connection points: 2
#     Edge 123, Type (0, 1), BuildingBlock: AJUNOK_clean_linker_0, # of connection points: 2
#     Edge 124, Type (0, 1), BuildingBlock: AJUNOK_clean_linker_0, # of connection points: 2
#     Edge 125, Type (0, 1), BuildingBlock: AJUNOK_clean_linker_0, # of connection points: 2
#     Edge 126, Type (0, 1), BuildingBlock: AJUNOK_clean_linker_0, # of connection points: 2
#     Edge 127, Type (0, 1), BuildingBlock: AJUNOK_clean_linker_0, # of connection points: 2
#     Edge 128, Type (0, 1), BuildingBlock: AJUNOK_clean_linker_0, # of connection points: 2
#     Edge 129, Type (0, 1), BuildingBlock: AJUNOK_clean_linker_0, # of connection points: 2
#     Edge 130, Type (0, 1), BuildingBlock: AJUNOK_clean_linker_0, # of connection points: 2
#     Edge 131, Type (0, 1), BuildingBlock: AJUNOK_clean_linker_0, # of connection points: 2
#     Edge 132, Type (0, 1), BuildingBlock: AJUNOK_clean_linker_0, # of connection points: 2
#     Edge 133, Type (0, 1), BuildingBlock: AJUNOK_clean_linker_0, # of connection points: 2
#     Edge 134, Type (0, 1), BuildingBlock: AJUNOK_clean_linker_0, # of connection points: 2
#     Edge 135, Type (0, 1), BuildingBlock: AJUNOK_clean_linker_0, # of connection points: 2
# Relax obj value: 0.142
# Max RMSD: 0.222
# Mean RMSD: 0.174
data_MOF--net-gar--node1-UXUYUI_clean_sbu_0--node2-CUKXOW_clean_sbu_0--edge1-AJUNOK_clean_linker_0
_symmetry_space_group_name_H-M    P1
_symmetry_Int_Tables_number       1
_symmetry_cell_setting            triclinic
loop_
_symmetry_equiv_pos_as_xyz
'x, y, z'
_cell_length_a     53.723005
_cell_length_b     52.345591
_cell_length_c     52.619986
_cell_angle_alpha  93.755386
_cell_angle_beta   95.085436
_cell_angle_gamma 98.714856
loop_
_atom_site_label
_atom_site_type_symbol
_atom_site_fract_x
_atom_site_fract_y
_atom_site_fract_z
_atom_type_partial_charge
Li0 Li 1.0063 0.27122 0.40743 0.0
Li1 Li 0.03353 0.29818 0.4418 0.0
Li2 Li 0.04987 0.27271 0.4107 0.0
Li3 Li 0.02728 0.24991 0.4425 0.0
C4 C 0.0464 0.31697 0.39072 0.0
N5 N 0.07767 0.34702 0.36156 0.0
C6 C 0.0638 0.33793 0.40238 0.0
C7 C 0.04471 0.31143 0.36422 0.0
C8 C 0.07948 0.35287 0.38729 0.0
C9 C 0.06076 0.3268 0.34982 0.0
C10 C 0.99127 0.28281 0.46422 0.0
C11 C 0.99074 0.29086 0.50973 0.0
N12 N 0.97122 0.30434 0.50546 0.0
C13 C 0.97122 0.29668 0.46022 0.0
C14 C 1.00115 0.27981 0.4891 0.0
C15 C 0.96134 0.30745 0.48135 0.0
C16 C 0.95696 0.25051 0.38516 0.0
N17 N 0.97632 0.27061 0.38615 0.0
C18 C 0.95284 0.29256 0.35649 0.0
C19 C 0.97468 0.29143 0.37237 0.0
C20 C 0.93271 0.27184 0.35457 0.0
C21 C 0.93497 0.25053 0.36904 0.0
H22 H 0.95866 0.23447 0.3968 0.0
H23 H 0.99017 0.30743 0.3741 0.0
C24 C 0.04936 0.33721 0.48393 0.0
N25 N 0.03467 0.32986 0.4615 0.0
C26 C 0.0484 0.36116 0.49698 0.0
C27 C 0.01697 0.36894 0.46373 0.0
C28 C 0.0187 0.34511 0.4513 0.0
C29 C 0.032 0.37725 0.48679 0.0
H30 H 0.06166 0.32449 0.49172 0.0
H31 H 0.00721 0.3386 0.43345 0.0
C32 C 0.00924 0.22402 0.38746 0.0
N33 N 0.97762 0.19 0.35186 0.0
C34 C 0.99776 0.20006 0.39443 0.0
C35 C 1.00491 0.23048 0.36223 0.0
C36 C 0.98176 0.18318 0.3762 0.0
C37 C 0.98879 0.21308 0.34457 0.0
C38 C 0.08432 0.2748 0.45 0.0
C39 C 0.09267 0.25207 0.44126 0.0
C40 C 0.10197 0.29653 0.45936 0.0
C41 C 0.11862 0.25151 0.44193 0.0
C42 C 0.12777 0.29517 0.45974 0.0
N43 N 0.13549 0.27289 0.45108 0.0
C44 C 0.09795 0.28942 0.39239 0.0
C45 C 0.07291 0.25209 0.37027 0.0
C46 C 0.11651 0.28839 0.37567 0.0
N47 N 0.07666 0.27136 0.38944 0.0
C48 C 0.09056 0.25079 0.35265 0.0
C49 C 0.11282 0.26895 0.35537 0.0
H50 H 0.10046 0.30474 0.40758 0.0
H51 H 0.05607 0.23783 0.36837 0.0
C52 C 0.99981 0.20867 0.46479 0.0
N53 N 0.02337 0.22196 0.4633 0.0
C54 C 0.99681 0.18595 0.47746 0.0
C55 C 0.04223 0.19202 0.48792 0.0
C56 C 0.04433 0.21459 0.47517 0.0
C57 C 0.01831 0.1773 0.48864 0.0
H58 H 0.98351 0.21511 0.45515 0.0
H59 H 0.06273 0.22578 0.47411 0.0
O60 O 0.03107 0.30195 0.40517 0.0
O61 O 1.00154 0.27266 0.44383 0.0
O62 O 0.0251 0.24076 0.40505 0.0
O63 O 0.059 0.27573 0.44949 0.0
H64 H 0.06546 0.3424 0.42288 0.0
H65 H 0.03131 0.29529 0.35493 0.0
H66 H 0.09316 0.36905 0.39606 0.0
H67 H 0.0598 0.32263 0.32932 0.0
H68 H 0.99822 0.28879 0.52912 0.0
H69 H 0.96353 0.29922 0.44098 0.0
H70 H 0.01684 0.26928 0.49242 0.0
H71 H 0.94585 0.31831 0.47859 0.0
H72 H 0.95148 0.30978 0.34647 0.0
H73 H 0.91979 0.23422 0.36815 0.0
H74 H 0.06007 0.36692 0.51489 0.0
H75 H 1.00424 0.38093 0.45522 0.0
H76 H 1.00129 0.19444 0.41364 0.0
H77 H 0.01367 0.2489 0.35645 0.0
H78 H 0.9727 0.16462 0.38137 0.0
H79 H 0.98512 0.21795 0.32507 0.0
H80 H 0.07922 0.2352 0.43362 0.0
H81 H 0.09582 0.31433 0.46602 0.0
H82 H 0.12535 0.23411 0.43508 0.0
H83 H 0.14166 0.31186 0.46684 0.0
H84 H 0.13353 0.3027 0.37859 0.0
H85 H 0.08655 0.23595 0.33688 0.0
H86 H 0.97816 0.1747 0.47756 0.0
H87 H 0.05913 0.1856 0.49633 0.0
Li88 Li 1.00145 0.81506 0.60023 0.0
Li89 Li 0.0224 0.79433 0.63414 0.0
Li90 Li 0.99567 0.76808 0.59868 0.0
Li91 Li 0.97724 0.79167 0.63125 0.0
C92 C 0.03475 0.79112 0.57306 0.0
N93 N 0.04875 0.78827 0.52389 0.0
C94 C 0.06 0.79061 0.56901 0.0
C95 C 0.01657 0.79014 0.55216 0.0
C96 C 0.06672 0.78919 0.54398 0.0
C97 C 0.02404 0.7887 0.52743 0.0
C98 C 0.01365 0.84233 0.6552 0.0
C99 C 0.02239 0.85965 0.69925 0.0
N100 N 0.03556 0.88163 0.69162 0.0
C101 C 0.02708 0.8652 0.64777 0.0
C102 C 0.01111 0.83961 0.68114 0.0
C103 C 0.03809 0.8848 0.66648 0.0
C104 C 0.98359 0.8573 0.58029 0.0
N105 N 1.00412 0.84502 0.58218 0.0
C106 C 0.02821 0.87819 0.56151 0.0
C107 C 0.02623 0.85495 0.57322 0.0
C108 C 0.00742 0.89153 0.55959 0.0
C109 C 0.98483 0.88075 0.569 0.0
H110 H 0.96643 0.84905 0.58801 0.0
H111 H 0.04245 0.84507 0.57552 0.0
C112 C 0.05696 0.77149 0.66298 0.0
N113 N 0.05168 0.79494 0.65655 0.0
C114 C 0.07844 0.76993 0.67923 0.0
C115 C 0.08876 0.81672 0.68176 0.0
C116 C 0.06722 0.81734 0.6652 0.0
C117 C 0.09453 0.79277 0.68887 0.0
H118 H 0.04473 0.75395 0.65505 0.0
H119 H 0.06329 0.83562 0.65895 0.0
C120 C 0.94545 0.77594 0.58624 0.0
N121 N 0.89828 0.74693 0.57212 0.0
C122 C 0.93899 0.75178 0.59575 0.0
C123 C 0.92795 0.78536 0.56953 0.0
C124 C 0.91505 0.7374 0.58841 0.0
C125 C 0.90419 0.7704 0.56261 0.0
C126 C 0.99131 0.74865 0.65493 0.0
C127 C 0.98027 0.72268 0.64984 0.0
C128 C 0.99666 0.75927 0.68023 0.0
C129 C 0.97438 0.70782 0.67021 0.0
C130 C 0.99047 0.74378 0.70008 0.0
N131 N 0.97953 0.71859 0.69471 0.0
C132 C 0.01122 0.72185 0.58804 0.0
C133 C 0.97872 0.72868 0.55684 0.0
C134 C 0.01274 0.69793 0.57566 0.0
N135 N 0.99432 0.73654 0.57863 0.0
C136 C 0.97955 0.7047 0.54381 0.0
C137 C 0.99669 0.68902 0.55334 0.0
H138 H 0.02346 0.72879 0.60533 0.0
H139 H 0.96572 0.74097 0.54957 0.0
C140 C 0.94813 0.81732 0.66118 0.0
N141 N 0.95085 0.79309 0.65222 0.0
C142 C 0.93158 0.82074 0.67951 0.0
C143 C 0.9196 0.77416 0.67778 0.0
C144 C 0.93676 0.77163 0.65976 0.0
C145 C 0.91731 0.79897 0.68828 0.0
H146 H 0.95931 0.83404 0.65454 0.0
H147 H 0.93904 0.75257 0.65212 0.0
O148 O 0.02801 0.79253 0.59746 0.0
O149 O 1.00258 0.823 0.63713 0.0
O150 O 0.96877 0.79042 0.59304 0.0
O151 O 0.99723 0.7634 0.63517 0.0
H152 H 0.07425 0.79136 0.58506 0.0
H153 H 0.99693 0.79054 0.55495 0.0
H154 H 0.08622 0.78882 0.54054 0.0
H155 H 0.01019 0.78794 0.51106 0.0
H156 H 0.02061 0.85776 0.71939 0.0
H157 H 0.0292 0.86774 0.62782 0.0
H158 H 1.00039 0.82231 0.68723 0.0
H159 H 0.04866 0.90252 0.66101 0.0
H160 H 0.04577 0.88555 0.55397 0.0
H161 H 0.96842 0.89053 0.56796 0.0
H162 H 0.08282 0.75105 0.68352 0.0
H163 H 0.10099 0.83471 0.68857 0.0
H164 H 0.95235 0.74413 0.6085 0.0
H165 H 0.93271 0.80403 0.56197 0.0
H166 H 0.90982 0.71865 0.59562 0.0
H167 H 0.89046 0.77744 0.54967 0.0
H168 H 0.97627 0.71407 0.63035 0.0
H169 H 1.00561 0.77918 0.68447 0.0
H170 H 0.96577 0.68773 0.66649 0.0
H171 H 0.99444 0.75176 0.71977 0.0
H172 H 0.02608 0.6863 0.58369 0.0
H173 H 0.96713 0.69858 0.52643 0.0
H174 H 0.93023 0.8402 0.687 0.0
H175 H 0.90824 0.75692 0.68336 0.0
Li176 Li 0.50743 0.77201 0.90682 0.0
Li177 Li 0.53414 0.80011 0.94096 0.0
Li178 Li 0.55326 0.77611 0.90774 0.0
Li179 Li 0.53238 0.75489 0.94146 0.0
C180 C 0.53877 0.81838 0.88497 0.0
N181 N 0.55352 0.84934 0.84677 0.0
C182 C 0.55144 0.84365 0.89125 0.0
C183 C 0.53346 0.80887 0.85933 0.0
C184 C 0.55877 0.859 0.87163 0.0
C185 C 0.54114 0.82482 0.84028 0.0
C186 C 0.48996 0.78524 0.96016 0.0
C187 C 0.48484 0.8032 1.00236 0.0
N188 N 0.46255 0.8101 0.99315 0.0
C189 C 0.46693 0.79231 0.95112 0.0
C190 C 0.49894 0.79053 0.98599 0.0
C191 C 0.45338 0.80494 0.9681 0.0
C192 C 0.46148 0.74749 0.87767 0.0
N193 N 0.47749 0.76997 0.88491 0.0
C194 C 0.4509 0.79415 0.86086 0.0
C195 C 0.47249 0.79306 0.87712 0.0
C196 C 0.43439 0.77119 0.85251 0.0
C197 C 0.43978 0.74762 0.86113 0.0
H198 H 0.46528 0.72954 0.88491 0.0
H199 H 0.48505 0.81076 0.88396 0.0
C200 C 0.55296 0.84397 0.97741 0.0
N201 N 0.53471 0.83245 0.95889 0.0
C202 C 0.55161 0.86866 0.98861 0.0
C203 C 0.51229 0.86819 0.96217 0.0
C204 C 0.51479 0.84409 0.95104 0.0
C205 C 0.53122 0.88117 0.98063 0.0
H206 H 0.56869 0.83422 0.9831 0.0
H207 H 0.50082 0.83454 0.936 0.0
C208 C 0.51635 0.72448 0.88778 0.0
N209 N 0.49154 0.68434 0.85377 0.0
C210 C 0.50375 0.70205 0.89686 0.0
C211 C 0.51639 0.72647 0.86142 0.0
C212 C 0.49131 0.68197 0.87934 0.0
C213 C 0.50371 0.70598 0.84454 0.0
C214 C 0.57866 0.77112 0.96209 0.0
C215 C 0.59711 0.75752 0.95336 0.0
C216 C 0.57533 0.77299 0.98813 0.0
C217 C 0.6117 0.74559 0.97089 0.0
C218 C 0.59028 0.76076 1.00504 0.0
N219 N 0.60798 0.74741 0.99614 0.0
C220 C 0.59349 0.7958 0.87848 0.0
C221 C 0.58054 0.75025 0.87628 0.0
C222 C 0.61066 0.79285 0.8605 0.0
N223 N 0.5787 0.7746 0.88567 0.0
C224 C 0.59716 0.74643 0.85817 0.0
C225 C 0.61256 0.76787 0.85022 0.0
H226 H 0.59195 0.81491 0.88661 0.0
H227 H 0.56896 0.73372 0.88275 0.0
C228 C 0.51664 0.72213 0.97966 0.0
N229 N 0.53252 0.72627 0.96112 0.0
C230 C 0.51501 0.69916 0.99188 0.0
C231 C 0.54657 0.68571 0.96605 0.0
C232 C 0.54746 0.70879 0.95427 0.0
C233 C 0.52972 0.68046 0.98463 0.0
H234 H 0.50463 0.73619 0.98433 0.0
H235 H 0.55948 0.71247 0.93905 0.0
O236 O 0.53127 0.80316 0.90389 0.0
O237 O 0.50358 0.77312 0.94378 0.0
O238 O 0.5289 0.74423 0.90459 0.0
O239 O 0.56388 0.78248 0.94519 0.0
H240 H 0.55561 0.85128 0.91105 0.0
H241 H 0.52351 0.78941 0.85421 0.0
H242 H 0.56863 0.87859 0.87616 0.0
H243 H 0.53721 0.81772 0.82033 0.0
H244 H 0.49164 0.80758 0.02237 0.0
H245 H 0.45967 0.78822 0.93119 0.0
H246 H 0.51671 0.78512 0.99324 0.0
H247 H 0.43558 0.81066 0.96137 0.0
H248 H 0.44684 0.81283 0.85549 0.0
H249 H 0.42722 0.72957 0.85535 0.0
H250 H 0.56656 0.87809 1.00281 0.0
H251 H 0.49582 0.87672 0.95608 0.0
H252 H 0.50334 0.70023 0.91717 0.0
H253 H 0.52615 0.74363 0.85409 0.0
H254 H 0.48141 0.66453 0.88608 0.0
H255 H 0.50356 0.70726 0.82409 0.0
H256 H 0.59993 0.75598 0.93325 0.0
H257 H 0.56126 0.78365 0.99517 0.0
H258 H 0.62593 0.73483 0.9644 0.0
H259 H 0.5878 0.76188 0.02524 0.0
H260 H 0.62252 0.8098 0.85495 0.0
H261 H 0.5979 0.7269 0.85043 0.0
H262 H 0.50173 0.69561 0.00607 0.0
H263 H 0.55847 0.67185 0.96029 0.0
Li264 Li 0.50535 0.31748 0.09902 0.0
Li265 Li 0.52276 0.29588 0.13329 0.0
Li266 Li 0.49776 0.27024 0.0985 0.0
Li267 Li 0.47831 0.29632 0.1296 0.0
C268 C 0.55344 0.30686 0.09358 0.0
N269 N 0.59994 0.3346 0.08636 0.0
C270 C 0.56319 0.32948 0.10907 0.0
C271 C 0.5674 0.29827 0.07448 0.0
C272 C 0.5867 0.34325 0.10513 0.0
C273 C 0.59085 0.31258 0.0711 0.0
C274 C 0.51081 0.34464 0.1558 0.0
C275 C 0.50663 0.35954 0.19937 0.0
N276 N 0.52157 0.3823 0.1963 0.0
C277 C 0.52599 0.3683 0.15305 0.0
C278 C 0.5009 0.34031 0.17912 0.0
C279 C 0.53127 0.38704 0.17375 0.0
C280 C 0.49815 0.36654 0.09015 0.0
N281 N 0.50885 0.34668 0.08036 0.0
C282 C 0.52256 0.37104 0.04604 0.0
C283 C 0.52097 0.34837 0.0588 0.0
C284 C 0.51154 0.39184 0.05574 0.0
C285 C 0.49965 0.38959 0.07834 0.0
H286 H 0.48849 0.36445 0.10724 0.0
H287 H 0.52916 0.33211 0.05143 0.0
C288 C 0.56652 0.27793 0.14954 0.0
N289 N 0.55172 0.29556 0.15648 0.0
C290 C 0.58796 0.27518 0.1653 0.0
C291 C 0.57904 0.30938 0.19469 0.0
C292 C 0.55755 0.31119 0.17855 0.0
C293 C 0.59427 0.29105 0.18812 0.0
H294 H 0.56147 0.26588 0.13179 0.0
H295 H 0.54571 0.32501 0.18383 0.0
C296 C 0.44973 0.28018 0.0812 0.0
N297 N 0.40395 0.25192 0.06058 0.0
C298 C 0.43802 0.25974 0.09391 0.0
C299 C 0.4382 0.28624 0.058 0.0
C300 C 0.41487 0.24568 0.08317 0.0
C301 C 0.41504 0.27174 0.04789 0.0
C302 C 0.50503 0.25354 0.15441 0.0
C303 C 0.51731 0.23245 0.14884 0.0
C304 C 0.50341 0.26192 0.17988 0.0
C305 C 0.52804 0.22024 0.16894 0.0
C306 C 0.5144 0.24922 0.19943 0.0
N307 N 0.5264 0.22882 0.1936 0.0
C308 C 0.50688 0.23771 0.05708 0.0
C309 C 0.48052 0.21726 0.08615 0.0
C310 C 0.50724 0.21391 0.04364 0.0
N311 N 0.49397 0.23881 0.07807 0.0
C312 C 0.48025 0.19312 0.07324 0.0
C313 C 0.494 0.19126 0.0519 0.0
H314 H 0.51754 0.25521 0.05129 0.0
H315 H 0.47092 0.21868 0.10328 0.0
C316 C 0.44238 0.32284 0.14874 0.0
N317 N 0.45049 0.2995 0.1476 0.0
C318 C 0.42388 0.32738 0.16462 0.0
C319 C 0.42182 0.28336 0.17689 0.0
C320 C 0.44062 0.2798 0.16105 0.0
C321 C 0.41348 0.3075 0.17898 0.0
H322 H 0.45106 0.33819 0.13807 0.0
H323 H 0.44774 0.26155 0.15988 0.0
O324 O 0.53038 0.29306 0.09692 0.0
O325 O 0.50523 0.32614 0.13561 0.0
O326 O 0.47255 0.29405 0.09108 0.0
O327 O 0.49483 0.26604 0.13502 0.0
H328 H 0.55285 0.3362 0.12411 0.0
H329 H 0.56018 0.28074 0.06236 0.0
H330 H 0.59445 0.36079 0.11702 0.0
H331 H 0.60183 0.30617 0.05635 0.0
H332 H 0.49922 0.35634 0.21755 0.0
H333 H 0.53363 0.37226 0.13512 0.0
H334 H 0.48921 0.32219 0.18174 0.0
H335 H 0.54303 0.40539 0.17187 0.0
H336 H 0.53187 0.37215 0.02862 0.0
H337 H 0.49154 0.40545 0.08679 0.0
H338 H 0.59969 0.26111 0.15958 0.0
H339 H 0.58364 0.32197 0.21219 0.0
H340 H 0.44678 0.25462 0.11174 0.0
H341 H 0.44711 0.30198 0.04791 0.0
H342 H 0.40562 0.22977 0.09278 0.0
H343 H 0.4059 0.27621 0.02993 0.0
H344 H 0.5189 0.22584 0.12922 0.0
H345 H 0.49394 0.27817 0.18452 0.0
H346 H 0.53776 0.20401 0.16492 0.0
H347 H 0.51342 0.25559 0.21924 0.0
H348 H 0.51814 0.21312 0.02732 0.0
H349 H 0.47036 0.17597 0.08056 0.0
H350 H 0.41832 0.34642 0.16619 0.0
H351 H 0.41407 0.26754 0.18757 0.0
Li352 Li 1.00003 0.79478 0.14404 0.0
Li353 Li 0.02593 0.77992 0.17886 0.0
Li354 Li 1.00007 0.74778 0.14326 0.0
Li355 Li 0.97785 0.77247 0.17697 0.0
C356 C 0.04149 0.78738 0.12259 0.0
N357 N 0.06601 0.81113 0.08435 0.0
C358 C 0.05615 0.8119 0.12773 0.0
C359 C 0.03916 0.77499 0.09795 0.0
C360 C 0.06843 0.82358 0.10816 0.0
C361 C 0.05175 0.7873 0.07889 0.0
C362 C 0.01157 0.82285 0.20123 0.0
C363 C 0.01358 0.83733 0.24589 0.0
N364 N 0.03146 0.85776 0.24224 0.0
C365 C 0.02976 0.8441 0.19785 0.0
C366 C 1.00325 0.81949 0.22536 0.0
C367 C 0.03968 0.86147 0.21885 0.0
C368 C 0.99486 0.8464 0.13451 0.0
N369 N 0.99771 0.8234 0.12242 0.0
C370 C 0.99804 0.84254 0.08217 0.0
C371 C 0.99868 0.82101 0.09659 0.0
C372 C 0.99631 0.86673 0.09444 0.0
C373 C 0.99415 0.86834 0.12088 0.0
H374 H 0.99324 0.84779 0.15484 0.0
H375 H 1.00021 0.80249 0.0871 0.0
C376 C 0.06487 0.76393 0.21291 0.0
N377 N 0.05885 0.78425 0.20001 0.0
C378 C 0.08906 0.76485 0.22579 0.0
C379 C 0.10102 0.80739 0.21166 0.0
C380 C 0.07647 0.80581 0.19937 0.0
C381 C 0.10777 0.78671 0.22516 0.0
H382 H 0.05117 0.74653 0.21262 0.0
H383 H 0.07192 0.82157 0.18858 0.0
C384 C 0.95684 0.77239 0.11776 0.0
N385 N 0.93044 0.78667 0.07497 0.0
C386 C 0.94052 0.79058 0.12033 0.0
C387 C 0.95968 0.76135 0.0935 0.0
C388 C 0.92738 0.7976 0.09843 0.0
C389 C 0.94615 0.76883 0.07208 0.0
C390 C 0.99779 0.73221 0.20156 0.0
C391 C 0.98947 0.70556 0.19712 0.0
C392 C 1.00154 0.74378 0.22656 0.0
C393 C 0.98503 0.69084 0.21793 0.0
C394 C 0.99686 0.72841 0.24684 0.0
N395 N 0.98878 0.70248 0.24215 0.0
C396 C 0.02511 0.71125 0.11931 0.0
C397 C 0.98064 0.69824 0.11482 0.0
C398 C 0.02841 0.68905 0.10459 0.0
N399 N 1.00153 0.71565 0.12384 0.0
C400 C 0.98311 0.67547 0.10028 0.0
C401 C 0.00727 0.67081 0.09487 0.0
H402 H 0.04143 0.72524 0.12691 0.0
H403 H 0.96208 0.70212 0.11874 0.0
C404 C 0.93658 0.79318 0.19642 0.0
N405 N 0.94754 0.77134 0.19553 0.0
C406 C 0.9143 0.79395 0.20836 0.0
C407 C 0.91476 0.74976 0.21845 0.0
C408 C 0.9369 0.74974 0.20609 0.0
C409 C 0.90314 0.77212 0.21981 0.0
H410 H 0.94513 0.8101 0.18775 0.0
H411 H 0.94536 0.73232 0.20476 0.0
O412 O 0.02937 0.77561 0.14151 0.0
O413 O 1.00163 0.80568 0.18088 0.0
O414 O 0.97011 0.76551 0.1389 0.0
O415 O 1.00239 0.74687 0.18148 0.0
H416 H 0.0577 0.82199 0.14649 0.0
H417 H 0.02745 0.75627 0.09344 0.0
H418 H 0.07978 0.84259 0.11187 0.0
H419 H 0.05005 0.77797 0.05973 0.0
H420 H 0.00735 0.83496 0.2647 0.0
H421 H 0.03626 0.84707 0.17922 0.0
H422 H 0.98888 0.80336 0.2282 0.0
H423 H 0.0539 0.87792 0.21655 0.0
H424 H 0.99958 0.84044 0.06178 0.0
H425 H 0.99211 0.8865 0.131 0.0
H426 H 0.09317 0.74833 0.23583 0.0
H427 H 0.1148 0.82431 0.20966 0.0
H428 H 0.93821 0.79934 0.139 0.0
H429 H 0.97238 0.74736 0.09122 0.0
H430 H 0.91477 0.81177 0.10009 0.0
H431 H 0.94821 0.76053 0.05315 0.0
H432 H 0.98652 0.69637 0.17781 0.0
H433 H 0.00821 0.76435 0.23024 0.0
H434 H 0.97862 0.67017 0.21483 0.0
H435 H 0.99971 0.73709 0.26632 0.0
H436 H 0.04734 0.68605 0.10099 0.0
H437 H 0.96634 0.66189 0.09298 0.0
H438 H 0.9061 0.81162 0.20895 0.0
H439 H 0.90661 0.73229 0.22656 0.0
Li440 Li 0.53292 0.82286 0.39403 0.0
Li441 Li 0.50768 0.79236 0.35779 0.0
Li442 Li 0.53183 0.77612 0.39244 0.0
Li443 Li 0.55575 0.79716 0.36082 0.0
C444 C 0.48818 0.78181 0.40955 0.0
N445 N 0.4583 0.7524 0.44034 0.0
C446 C 0.47241 0.75916 0.39916 0.0
C447 C 0.48872 0.7896 0.43551 0.0
C448 C 0.45744 0.74453 0.41508 0.0
C449 C 0.47348 0.77443 0.45079 0.0
C450 C 0.52643 0.84192 0.33955 0.0
C451 C 0.52789 0.86089 0.29909 0.0
N452 N 0.51176 0.87697 0.30653 0.0
C453 C 0.51021 0.85889 0.34697 0.0
C454 C 0.53566 0.84314 0.31558 0.0
C455 C 0.50287 0.87636 0.32993 0.0
C456 C 0.55222 0.87202 0.42342 0.0
N457 N 0.53152 0.85426 0.41469 0.0
C458 C 0.50455 0.87946 0.43571 0.0
C459 C 0.508 0.85764 0.42051 0.0
C460 C 0.52546 0.89821 0.44497 0.0
C461 C 0.5496 0.89428 0.43868 0.0
H462 H 0.57075 0.86885 0.41866 0.0
H463 H 0.49182 0.84335 0.41322 0.0
C464 C 0.46419 0.76914 0.32006 0.0
N465 N 0.47442 0.78922 0.33755 0.0
C466 C 0.4396 0.76795 0.30785 0.0
C467 C 0.43596 0.80743 0.33244 0.0
C468 C 0.46053 0.8079 0.34408 0.0
C469 C 0.42513 0.78742 0.3138 0.0
H470 H 0.47478 0.75368 0.31583 0.0
H471 H 0.4683 0.82293 0.35894 0.0
C472 C 0.57672 0.79579 0.41832 0.0
N473 N 0.60582 0.77886 0.45772 0.0
C474 C 0.58985 0.77517 0.41359 0.0
C475 C 0.57851 0.80797 0.44299 0.0
C476 C 0.6044 0.76682 0.43381 0.0
C477 C 0.59332 0.79909 0.46268 0.0
C478 C 0.52913 0.75484 0.33049 0.0
C479 C 0.53337 0.72948 0.32487 0.0
C480 C 0.52497 0.77049 0.31055 0.0
C481 C 0.53323 0.72018 0.29936 0.0
C482 C 0.52488 0.76049 0.28529 0.0
N483 N 0.529 0.73575 0.28025 0.0
C484 C 0.52951 0.72351 0.40306 0.0
C485 C 0.5337 0.75201 0.44053 0.0
C486 C 0.52962 0.7022 0.41769 0.0
N487 N 0.53165 0.74786 0.41455 0.0
C488 C 0.53375 0.73121 0.45595 0.0
C489 C 0.53182 0.70586 0.44455 0.0
H490 H 0.52769 0.72061 0.38246 0.0
H491 H 0.53517 0.77147 0.44935 0.0
C492 C 0.60058 0.81915 0.33666 0.0
N493 N 0.58662 0.79712 0.34343 0.0
C494 C 0.62326 0.81811 0.32539 0.0
C495 C 0.6169 0.77185 0.32828 0.0
C496 C 0.5945 0.77378 0.33953 0.0
C497 C 0.63178 0.79417 0.32107 0.0
H498 H 0.5942 0.83759 0.34009 0.0
H499 H 0.58352 0.75654 0.34546 0.0
O500 O 0.50329 0.7961 0.3944 0.0
O501 O 0.53376 0.82461 0.35591 0.0
O502 O 0.56228 0.80414 0.39885 0.0
O503 O 0.52997 0.76444 0.35542 0.0
H504 H 0.47191 0.75285 0.37909 0.0
H505 H 0.50105 0.80697 0.44385 0.0
H506 H 0.44519 0.72689 0.40736 0.0
H507 H 0.47381 0.78012 0.47097 0.0
H508 H 0.53473 0.86192 0.2804 0.0
H509 H 0.50328 0.85851 0.36563 0.0
H510 H 0.54867 0.83049 0.30976 0.0
H511 H 0.49015 0.88946 0.33534 0.0
H512 H 0.48561 0.8818 0.43992 0.0
H513 H 0.56628 0.90808 0.44575 0.0
H514 H 0.43198 0.75193 0.29389 0.0
H515 H 0.4253 0.82231 0.33854 0.0
H516 H 0.58856 0.76554 0.39459 0.0
H517 H 0.56844 0.82397 0.4469 0.0
H518 H 0.61453 0.75076 0.43049 0.0
H519 H 0.59484 0.80825 0.48191 0.0
H520 H 0.53705 0.71715 0.34002 0.0
H521 H 0.52138 0.78998 0.31451 0.0
H522 H 0.53656 0.70062 0.29477 0.0
H523 H 0.5215 0.77239 0.26968 0.0
H524 H 0.52814 0.68303 0.40805 0.0
H525 H 0.53485 0.73491 0.47654 0.0
H526 H 0.63379 0.8358 0.31976 0.0
H527 H 0.62268 0.753 0.32554 0.0
Li528 Li 0.50285 0.2949 0.64374 0.0
Li529 Li 0.52551 0.27682 0.67946 0.0
Li530 Li 0.50019 0.24717 0.64519 0.0
Li531 Li 0.47801 0.27193 0.67808 0.0
C532 C 0.54578 0.28017 0.62495 0.0
N533 N 0.57786 0.29394 0.58821 0.0
C534 C 0.56973 0.29467 0.63212 0.0
C535 C 0.5382 0.27255 0.59914 0.0
C536 C 0.58565 0.3015 0.61324 0.0
C537 C 0.55469 0.27972 0.58085 0.0
C538 C 0.51376 0.32323 0.69993 0.0
C539 C 0.51608 0.34215 0.74322 0.0
N540 N 0.53449 0.36133 0.73786 0.0
C541 C 0.53261 0.34314 0.69477 0.0
C542 C 0.50532 0.32271 0.72427 0.0
C543 C 0.54289 0.36223 0.71424 0.0
C544 C 0.48146 0.32835 0.60995 0.0
N545 N 0.50343 0.32322 0.62201 0.0
C546 C 0.52685 0.35978 0.60512 0.0
C547 C 0.52587 0.33846 0.6198 0.0
C548 C 0.50441 0.36613 0.59314 0.0
C549 C 0.48152 0.3498 0.59532 0.0
H550 H 0.46379 0.31612 0.61215 0.0
H551 H 0.54303 0.33446 0.62987 0.0
C552 C 0.57403 0.26372 0.6902 0.0
N553 N 0.55897 0.28006 0.69964 0.0
C554 C 0.59876 0.26413 0.70136 0.0
C555 C 0.59274 0.29844 0.73189 0.0
C556 C 0.56786 0.29712 0.72033 0.0
C557 C 0.60853 0.28168 0.7225 0.0
H558 H 0.56685 0.25042 0.67367 0.0
H559 H 0.55586 0.30982 0.72798 0.0
C560 C 0.45487 0.25585 0.62007 0.0
N561 N 0.42055 0.23075 0.58083 0.0
C562 C 0.43234 0.24111 0.6256 0.0
C563 C 0.45986 0.25803 0.59463 0.0
C564 C 0.41524 0.22851 0.60547 0.0
C565 C 0.4423 0.24513 0.57506 0.0
C566 C 0.51307 0.23513 0.70258 0.0
C567 C 0.52707 0.21527 0.69765 0.0
C568 C 0.51348 0.24615 0.72753 0.0
C569 C 0.5415 0.20684 0.71792 0.0
C570 C 0.52814 0.23718 0.74727 0.0
N571 N 0.54175 0.2179 0.74209 0.0
C572 C 0.52421 0.2111 0.61952 0.0
C573 C 0.47982 0.19776 0.61571 0.0
C574 C 0.5274 0.18926 0.60423 0.0
N575 N 0.5007 0.21528 0.62461 0.0
C576 C 0.48217 0.17545 0.60038 0.0
C577 C 0.50621 0.17126 0.59414 0.0
H578 H 0.54061 0.22481 0.62739 0.0
H579 H 0.46135 0.20101 0.62044 0.0
C580 C 0.43147 0.28896 0.68863 0.0
N581 N 0.44726 0.27197 0.69548 0.0
C582 C 0.40905 0.2898 0.70033 0.0
C583 C 0.41913 0.25531 0.72564 0.0
C584 C 0.44136 0.25513 0.71349 0.0
C585 C 0.4027 0.27306 0.71941 0.0
H586 H 0.43635 0.30201 0.6741 0.0
H587 H 0.45389 0.24149 0.71843 0.0
O588 O 0.52995 0.27327 0.64315 0.0
O589 O 0.50326 0.30455 0.68113 0.0
O590 O 0.47184 0.2683 0.63948 0.0
O591 O 0.49963 0.24432 0.68292 0.0
H592 H 0.57581 0.3009 0.65201 0.0
H593 H 0.51983 0.26111 0.59333 0.0
H594 H 0.60418 0.31285 0.61848 0.0
H595 H 0.54907 0.27395 0.5608 0.0
H596 H 0.5098 0.34199 0.76219 0.0
H597 H 0.53934 0.34375 0.67602 0.0
H598 H 0.49062 0.30746 0.72845 0.0
H599 H 0.55756 0.37773 0.71058 0.0
H600 H 0.54502 0.37141 0.6035 0.0
H601 H 0.46377 0.35403 0.58649 0.0
H602 H 0.61031 0.25107 0.69322 0.0
H603 H 0.59945 0.31219 0.74823 0.0
H604 H 0.4282 0.23931 0.64523 0.0
H605 H 0.47706 0.26964 0.59006 0.0
H606 H 0.39777 0.21694 0.60942 0.0
H607 H 0.44593 0.24659 0.55527 0.0
H608 H 0.52703 0.2067 0.67836 0.0
H609 H 0.50283 0.26168 0.73154 0.0
H610 H 0.55259 0.1916 0.71441 0.0
H611 H 0.52877 0.24562 0.76668 0.0
H612 H 0.54632 0.18641 0.60044 0.0
H613 H 0.4654 0.16185 0.59315 0.0
H614 H 0.39708 0.30382 0.69487 0.0
H615 H 0.41481 0.24157 0.73975 0.0
Li616 Li 0.03329 0.32234 0.89418 0.0
Li617 Li 0.00836 0.29141 0.85923 0.0
Li618 Li 0.03342 0.27518 0.89523 0.0
Li619 Li 0.0565 0.29651 0.86218 0.0
C620 C 0.99567 0.29386 0.92016 0.0
N621 N 0.97846 0.29314 0.96807 0.0
C622 C 0.97029 0.28463 0.92271 0.0
C623 C 0.01224 0.30288 0.94194 0.0
C624 C 0.96196 0.28439 0.94711 0.0
C625 C 1.00322 0.30231 0.966 0.0
C626 C 0.02585 0.33914 0.83874 0.0
C627 C 0.02583 0.35506 0.7968 0.0
N628 N 0.00923 0.37099 0.80331 0.0
C629 C 0.00882 0.35565 0.84505 0.0
C630 C 0.03445 0.33879 0.81445 0.0
C631 C 1.00063 0.37162 0.82686 0.0
C632 C 0.05283 0.37133 0.92407 0.0
N633 N 0.03186 0.35469 0.9138 0.0
C634 C 1.00504 0.3819 0.9323 0.0
C635 C 0.00827 0.35971 0.91753 0.0
C636 C 0.02626 0.3993 0.94349 0.0
C637 C 0.05046 0.39387 0.93906 0.0
H638 H 0.07141 0.36712 0.92069 0.0
H639 H 0.99185 0.34631 0.90913 0.0
C640 C 0.9562 0.2696 0.84786 0.0
N641 N 0.97498 0.28575 0.83854 0.0
C642 C 0.93106 0.26678 0.83678 0.0
C643 C 0.94482 0.2964 0.80584 0.0
C644 C 0.9697 0.29867 0.81753 0.0
C645 C 0.92493 0.28049 0.81556 0.0
H646 H 0.96063 0.25932 0.86441 0.0
H647 H 0.98459 0.31113 0.8099 0.0
C648 C 0.08055 0.2975 0.91812 0.0
N649 N 0.11575 0.28406 0.95426 0.0
C650 C 0.09164 0.27542 0.91341 0.0
C651 C 0.08734 0.31277 0.94122 0.0
C652 C 0.10937 0.26892 0.93193 0.0
C653 C 0.10521 0.30567 0.95923 0.0
C654 C 0.03217 0.25177 0.83463 0.0
C655 C 0.04089 0.22796 0.83279 0.0
C656 C 0.0255 0.26339 0.81242 0.0
C657 C 0.04271 0.21609 0.80862 0.0
C658 C 0.02753 0.25089 0.7886 0.0
N659 N 0.03604 0.22769 0.78721 0.0
C660 C 0.02575 0.22249 0.90577 0.0
C661 C 0.04162 0.25052 0.94265 0.0
C662 C 0.02586 0.20081 0.91994 0.0
N663 N 0.0337 0.24678 0.91716 0.0
C664 C 0.04181 0.22938 0.95761 0.0
C665 C 0.03402 0.20404 0.94626 0.0
H666 H 0.01934 0.21992 0.88558 0.0
H667 H 0.04788 0.26989 0.95149 0.0
C668 C 0.09758 0.31785 0.83295 0.0
N669 N 0.0871 0.29649 0.84401 0.0
C670 C 0.11953 0.31754 0.82029 0.0
C671 C 0.12032 0.27371 0.8314 0.0
C672 C 0.09812 0.27467 0.84339 0.0
C673 C 0.13123 0.29524 0.8194 0.0
H674 H 0.08897 0.33522 0.83397 0.0
H675 H 0.08968 0.25785 0.85219 0.0
O676 O 1.00412 0.29445 0.89643 0.0
O677 O 0.03402 0.32332 0.85621 0.0
O678 O 0.06307 0.30412 0.90027 0.0
O679 O 0.03087 0.26394 0.85811 0.0
H680 H 0.9571 0.27785 0.90606 0.0
H681 H 0.03187 0.31027 0.94029 0.0
H682 H 0.94236 0.2773 0.94937 0.0
H683 H 0.01589 0.30918 0.98302 0.0
H684 H 0.03225 0.35494 0.77789 0.0
H685 H 1.0018 0.35595 0.86366 0.0
H686 H 0.0474 0.32587 0.80916 0.0
H687 H 0.98738 0.38445 0.83144 0.0
H688 H 0.98604 0.3852 0.93524 0.0
H689 H 0.06734 0.40701 0.94684 0.0
H690 H 0.91645 0.25462 0.84534 0.0
H691 H 0.94117 0.30719 0.78941 0.0
H692 H 0.08619 0.26312 0.8959 0.0
H693 H 0.07886 0.32987 0.94525 0.0
H694 H 0.11798 0.25176 0.92861 0.0
H695 H 0.11066 0.3173 0.97718 0.0
H696 H 0.04646 0.2189 0.84984 0.0
H697 H 0.01903 0.28194 0.81356 0.0
H698 H 0.0495 0.19769 0.80689 0.0
H699 H 0.02245 0.25967 0.77124 0.0
H700 H 0.01974 0.18167 0.91031 0.0
H701 H 0.04765 0.23292 0.97792 0.0
H702 H 0.12741 0.33466 0.81146 0.0
H703 H 0.12859 0.25608 0.83104 0.0
Li704 Li 0.42756 0.07743 0.28373 0.0
Li705 Li 0.38907 0.04994 0.2576 0.0
Li706 Li 0.42245 0.07329 0.2358 0.0
Li707 Li 0.39339 0.09853 0.25639 0.0
C708 C 0.43987 0.03144 0.24784 0.0
N709 N 0.46985 1.00363 0.22066 0.0
C710 C 0.42874 0.01097 0.23014 0.0
C711 C 0.4662 0.03781 0.25179 0.0
C712 C 0.44424 0.99714 0.21655 0.0
C713 C 0.48105 0.02348 0.23785 0.0
C714 C 0.37513 0.07241 0.30525 0.0
C715 C 0.33662 0.07645 0.32439 0.0
N716 N 0.3445 0.06323 0.3442 0.0
C717 C 0.38295 0.0591 0.32592 0.0
C718 C 0.35189 0.08138 0.30457 0.0
C719 C 0.36715 0.05455 0.34537 0.0
C720 C 0.44584 0.09654 0.33611 0.0
N721 N 0.44687 0.0778 0.31719 0.0
C722 C 0.46854 0.05388 0.34716 0.0
C723 C 0.45817 0.05683 0.32229 0.0
C724 C 0.46703 0.07245 0.36728 0.0
C725 C 0.45591 0.0943 0.36131 0.0
H726 H 0.43632 0.11278 0.33187 0.0
H727 H 0.45819 0.04173 0.30727 0.0
C728 C 0.34974 0.0061 0.24017 0.0
N729 N 0.36697 0.01754 0.2597 0.0
C730 C 0.33505 0.98204 0.2426 0.0
C731 C 0.35661 0.98152 0.28476 0.0
C732 C 0.37084 0.00552 0.28152 0.0
C733 C 0.3383 0.96949 0.2652 0.0
H734 H 0.34765 0.01529 0.22249 0.0
H735 H 0.38553 0.01426 0.2962 0.0
C736 C 0.44907 0.12155 0.24803 0.0
N737 N 0.48429 0.15245 0.22366 0.0
C738 C 0.44143 0.13301 0.22602 0.0
C739 C 0.47451 0.12591 0.25781 0.0
C740 C 0.45957 0.14853 0.21392 0.0
C741 C 0.49206 0.14158 0.24517 0.0
C742 C 0.3611 0.06942 0.21628 0.0
C743 C 0.35653 0.07164 0.19002 0.0
C744 C 0.34086 0.06654 0.23132 0.0
C745 C 0.33169 0.0709 0.17923 0.0
C746 C 0.31629 0.06586 0.21982 0.0
N747 N 0.31225 0.06805 0.19423 0.0
C748 C 0.42594 0.05534 0.18372 0.0
C749 C 0.46543 0.0769 0.20333 0.0
C750 C 0.43664 0.05001 0.16092 0.0
N751 N 0.44023 0.06875 0.20444 0.0
C752 C 0.47688 0.07211 0.18082 0.0
C753 C 0.46248 0.05859 0.15901 0.0
H754 H 0.40618 0.04818 0.18504 0.0
H755 H 0.47688 0.08674 0.22002 0.0
C756 C 0.37359 0.14221 0.2791 0.0
N757 N 0.37425 0.12785 0.25666 0.0
C758 C 0.35827 0.16172 0.28039 0.0
C759 C 0.34486 0.15177 0.23543 0.0
C760 C 0.36073 0.13284 0.23489 0.0
C761 C 0.34319 0.16629 0.25845 0.0
H762 H 0.38446 0.13809 0.29622 0.0
H763 H 0.36184 0.12186 0.21706 0.0
O764 O 0.42503 0.04572 0.26064 0.0
O765 O 0.39053 0.07742 0.28624 0.0
O766 O 0.43166 0.1063 0.26009 0.0
O767 O 0.38536 0.07062 0.22717 0.0
H768 H 0.40834 0.00604 0.22675 0.0
H769 H 0.47502 0.05389 0.26518 0.0
H770 H 0.43592 0.98131 0.20269 0.0
H771 H 0.50146 0.02825 0.24059 0.0
H772 H 0.31856 0.08322 0.32406 0.0
H773 H 0.40095 0.05218 0.3269 0.0
H774 H 0.3457 0.09216 0.289 0.0
H775 H 0.37292 0.04415 0.36141 0.0
H776 H 0.47671 0.03662 0.3508 0.0
H777 H 0.45463 0.10934 0.37604 0.0
H778 H 0.3214 0.97326 0.22689 0.0
H779 H 0.36047 0.97211 0.30208 0.0
H780 H 0.42174 0.1298 0.21831 0.0
H781 H 0.48063 0.11714 0.27488 0.0
H782 H 0.45399 0.15745 0.19679 0.0
H783 H 0.51185 0.14506 0.25243 0.0
H784 H 0.37202 0.07419 0.17813 0.0
H785 H 0.34407 0.06449 0.25156 0.0
H786 H 0.32788 0.07266 0.15894 0.0
H787 H 0.30044 0.06354 0.23124 0.0
H788 H 0.42481 0.03872 0.14514 0.0
H789 H 0.49689 0.07902 0.18052 0.0
H790 H 0.35751 0.17245 0.29854 0.0
H791 H 0.33377 0.15488 0.21801 0.0
Li792 Li 0.27718 0.17029 0.51398 0.0
Li793 Li 0.29145 0.13318 0.49327 0.0
Li794 Li 0.27959 0.16781 0.46919 0.0
Li795 Li 0.24806 0.13718 0.48661 0.0
C796 C 0.32688 0.18507 0.51114 0.0
N797 N 0.36494 0.21592 0.54304 0.0
C798 C 0.34538 0.17387 0.52485 0.0
C799 C 0.32788 0.21198 0.51352 0.0
C800 C 0.36443 0.1898 0.54092 0.0
C801 C 0.34723 0.22723 0.52978 0.0
C802 C 0.25091 0.11867 0.53204 0.0
C803 C 0.22611 0.07744 0.5378 0.0
N804 N 0.21486 0.08904 0.55658 0.0
C805 C 0.2392 0.13018 0.55147 0.0
C806 C 0.24446 0.09208 0.52522 0.0
C807 C 0.22098 0.11486 0.56362 0.0
C808 C 0.26045 0.2062 0.54641 0.0
N809 N 0.27924 0.19184 0.54385 0.0
C810 C 0.29708 0.20473 0.58656 0.0
C811 C 0.29729 0.19067 0.56329 0.0
C812 C 0.2775 0.21919 0.59 0.0
C813 C 0.2591 0.22001 0.56957 0.0
H814 H 0.24578 0.20586 0.53092 0.0
H815 H 0.31128 0.17814 0.56105 0.0
C816 C 0.33261 0.10844 0.48258 0.0
N817 N 0.31428 0.1101 0.49852 0.0
C818 C 0.35107 0.09312 0.48813 0.0
C819 C 0.33175 0.08218 0.52671 0.0
C820 C 0.31345 0.09738 0.5202 0.0
C821 C 0.35083 0.08021 0.51062 0.0
H822 H 0.33337 0.11969 0.46609 0.0
H823 H 0.29917 0.09981 0.53296 0.0
C824 C 0.2407 0.19355 0.47545 0.0
N825 N 0.22108 0.23097 0.44894 0.0
C826 C 0.21831 0.1869 0.45919 0.0
C827 C 0.25299 0.21922 0.47845 0.0
C828 C 0.20871 0.20612 0.44592 0.0
C829 C 0.24282 0.23785 0.46479 0.0
C830 C 0.27967 0.11244 0.44549 0.0
C831 C 0.29463 0.12047 0.42619 0.0
C832 C 0.27514 0.08623 0.45008 0.0
C833 C 0.30504 0.10207 0.41189 0.0
C834 C 0.28593 0.06844 0.43538 0.0
N835 N 0.30053 0.07666 0.41676 0.0
C836 C 0.30778 0.20565 0.44336 0.0
C837 C 0.26752 0.18681 0.42254 0.0
C838 C 0.31104 0.22337 0.42484 0.0
N839 N 0.28601 0.18837 0.44213 0.0
C840 C 0.26982 0.20434 0.40386 0.0
C841 C 0.29159 0.22309 0.40526 0.0
H842 H 0.32229 0.2061 0.45901 0.0
H843 H 0.25064 0.17253 0.42199 0.0
C844 C 0.19875 0.12928 0.49828 0.0
N845 N 0.21467 0.11946 0.48301 0.0
C846 C 0.17475 0.11561 0.4999 0.0
C847 C 0.18334 0.08279 0.4687 0.0
C848 C 0.20741 0.09699 0.46792 0.0
C849 C 0.16712 0.09191 0.48534 0.0
H850 H 0.20519 0.14723 0.51 0.0
H851 H 0.22055 0.08972 0.45597 0.0
O852 O 0.30813 0.1698 0.4952 0.0
O853 O 0.26847 0.1334 0.5196 0.0
O854 O 0.25047 0.17502 0.48846 0.0
O855 O 0.26932 0.13014 0.45964 0.0
H856 H 0.34499 0.15312 0.52325 0.0
H857 H 0.31376 0.22099 0.50305 0.0
H858 H 0.37879 0.1814 0.55173 0.0
H859 H 0.34816 0.24806 0.53187 0.0
H860 H 0.22077 0.05688 0.53259 0.0
H861 H 0.24397 0.15073 0.55697 0.0
H862 H 0.25335 0.08291 0.51019 0.0
H863 H 0.21165 0.12352 0.5786 0.0
H864 H 0.31149 0.20353 0.602 0.0
H865 H 0.24316 0.23011 0.5718 0.0
H866 H 0.366 0.09226 0.47568 0.0
H867 H 0.33142 0.07262 0.54435 0.0
H868 H 0.20859 0.16709 0.4567 0.0
H869 H 0.27026 0.22465 0.49108 0.0
H870 H 0.19145 0.20126 0.43317 0.0
H871 H 0.25222 0.25777 0.46679 0.0
H872 H 0.29827 0.14069 0.4224 0.0
H873 H 0.26367 0.07976 0.46502 0.0
H874 H 0.31674 0.10798 0.39694 0.0
H875 H 0.28272 0.04811 0.43882 0.0
H876 H 0.32809 0.2376 0.42622 0.0
H877 H 0.25464 0.20352 0.38868 0.0
H878 H 0.16249 0.12308 0.51287 0.0
H879 H 0.17782 0.06447 0.45731 0.0
Li880 Li 0.1722 0.03695 0.79631 0.0
Li881 Li 0.14061 0.00768 0.81717 0.0
Li882 Li 0.172 0.98618 0.79528 0.0
Li883 Li 0.13887 1.00446 0.77199 0.0
C884 C 0.17942 0.01548 0.85097 0.0
N885 N 0.17781 0.0177 0.90331 0.0
C886 C 0.18017 0.03933 0.86481 0.0
C887 C 0.17792 0.99277 0.86365 0.0
C888 C 0.17932 0.04004 0.89129 0.0
C889 C 0.17712 0.9943 0.89016 0.0
C890 C 0.11387 0.04495 0.79486 0.0
C891 C 0.06832 0.03964 0.78986 0.0
N892 N 0.06956 0.06545 0.79618 0.0
C893 C 0.11473 0.07142 0.80115 0.0
C894 C 0.09053 0.02891 0.78905 0.0
C895 C 0.09211 0.08142 0.80179 0.0
C896 C 0.17887 0.08584 0.77762 0.0
N897 N 0.18983 0.07187 0.7951 0.0
C898 C 0.22196 0.10851 0.80854 0.0
C899 C 0.21102 0.08265 0.81052 0.0
C900 C 0.21097 0.12336 0.79056 0.0
C901 C 0.18918 0.11157 0.77493 0.0
H902 H 0.16187 0.07699 0.7658 0.0
H903 H 0.21938 0.07126 0.82439 0.0
C904 C 0.11047 0.98549 0.8556 0.0
N905 N 0.12036 0.00778 0.84574 0.0
C906 C 0.09501 0.98627 0.87569 0.0
C907 C 0.09983 0.03278 0.87464 0.0
C908 C 0.11566 0.03116 0.85519 0.0
C909 C 0.08921 0.01018 0.88531 0.0
H910 H 0.11468 0.96711 0.84796 0.0
H911 H 0.1242 0.04868 0.84758 0.0
C912 C 0.17528 0.0073 0.7418 0.0
N913 N 0.17137 1.00026 0.68906 0.0
C914 C 0.17103 0.98229 0.72961 0.0
C915 C 0.17788 0.02874 0.72723 0.0
C916 C 0.16906 0.97913 0.70291 0.0
C917 C 0.17574 0.02478 0.70057 0.0
C918 C 0.11756 0.955 0.78412 0.0
C919 C 0.12492 0.9349 0.76916 0.0
C920 C 0.09224 0.95364 0.78892 0.0
C921 C 0.10666 0.91413 0.75864 0.0
C922 C 0.07454 0.93256 0.77803 0.0
N923 N 0.08205 0.91343 0.76321 0.0
C924 C 0.18497 0.9363 0.80473 0.0
C925 C 0.21223 0.96138 0.77958 0.0
C926 C 0.19809 0.91531 0.80147 0.0
N927 N 0.19214 0.95872 0.79373 0.0
C928 C 0.22587 0.94092 0.77583 0.0
C929 C 0.21889 0.91746 0.78686 0.0
H930 H 0.16869 0.9345 0.81559 0.0
H931 H 0.21732 0.97923 0.77067 0.0
C932 C 0.1166 0.02694 0.73226 0.0
N933 N 0.11801 1.00299 0.74027 0.0
C934 C 0.10471 0.02971 0.7083 0.0
C935 C 0.09532 0.98303 0.70105 0.0
C936 C 0.10742 0.98115 0.72534 0.0
C937 C 0.09447 0.00758 0.69215 0.0
H938 H 0.12563 0.04401 0.74414 0.0
H939 H 0.1092 0.96231 0.73162 0.0
O940 O 0.17937 0.01428 0.82499 0.0
O941 O 0.13586 0.03492 0.79419 0.0
O942 O 0.17614 0.01072 0.76784 0.0
O943 O 0.13523 0.97533 0.79487 0.0
H944 H 0.18108 0.05703 0.85513 0.0
H945 H 0.17712 0.97416 0.85309 0.0
H946 H 0.17974 0.05833 0.90228 0.0
H947 H 0.17586 0.97687 0.90027 0.0
H948 H 0.05011 0.02745 0.78539 0.0
H949 H 0.1327 0.08407 0.80572 0.0
H950 H 0.08961 0.00851 0.78371 0.0
H951 H 0.09248 0.10186 0.80675 0.0
H952 H 0.23897 0.11669 0.82075 0.0
H953 H 0.17994 0.12227 0.76097 0.0
H954 H 0.08808 0.9684 0.88379 0.0
H955 H 0.09595 0.05168 0.88119 0.0
H956 H 0.1689 0.96551 0.74062 0.0
H957 H 0.18123 0.04821 0.73637 0.0
H958 H 0.16555 0.95988 0.6932 0.0
H959 H 0.17745 0.04119 0.68902 0.0
H960 H 0.14444 0.93544 0.76543 0.0
H961 H 0.08631 0.96856 0.80112 0.0
H962 H 0.11205 0.89859 0.74681 0.0
H963 H 0.05486 0.93134 0.78148 0.0
H964 H 0.19208 0.89761 0.81032 0.0
H965 H 0.24139 0.94327 0.76396 0.0
H966 H 0.10409 0.04898 0.70218 0.0
H967 H 0.08766 0.96555 0.68897 0.0
Li968 Li 0.20494 0.91279 0.0297 0.0
Li969 Li 0.2278 0.88089 0.05192 0.0
Li970 Li 0.25139 0.91498 0.02802 0.0
Li971 Li 0.22381 0.87699 1.00263 0.0
C972 C 0.22712 0.93688 0.07609 0.0
N973 N 0.21455 0.97272 0.1116 0.0
C974 C 0.21924 0.92908 0.09937 0.0
C975 C 0.22869 0.96286 0.07085 0.0
C976 C 0.21295 0.94751 0.11708 0.0
C977 C 0.22222 0.98069 0.08905 0.0
C978 C 0.17798 0.85567 0.03505 0.0
C979 C 0.15733 0.81153 0.03566 0.0
N980 N 0.14133 0.81969 0.05197 0.0
C981 C 0.16127 0.86365 0.05168 0.0
C982 C 0.17593 0.82945 0.02679 0.0
C983 C 0.14288 0.84515 0.06006 0.0
C984 C 0.16853 0.94374 0.00854 0.0
N985 N 0.17695 0.93387 0.03047 0.0
C986 C 0.14774 0.95484 0.05348 0.0
C987 C 0.16657 0.93892 0.05263 0.0
C988 C 0.139 0.96575 0.03127 0.0
C989 C 0.14952 0.95955 0.00847 0.0
H990 H 0.1766 0.93938 0.99095 0.0
H991 H 0.17298 0.93078 0.06989 0.0
C992 C 0.2563 0.86745 0.09659 0.0
N993 N 0.23264 0.86238 0.08378 0.0
C994 C 0.26219 0.85546 0.11901 0.0
C995 C 0.21896 0.83417 0.11603 0.0
C996 C 0.21405 0.84602 0.09323 0.0
C997 C 0.24337 0.83869 0.12921 0.0
H998 H 0.27078 0.88096 0.08941 0.0
H999 H 0.19529 0.84212 0.08332 0.0
C1000 C 0.23661 0.93398 0.9856 0.0
N1001 N 0.26248 0.972 0.95963 0.0
C1002 C 0.25163 0.92724 0.96667 0.0
C1003 C 0.2347 0.95999 0.99135 0.0
C1004 C 0.26459 0.94677 0.95375 0.0
C1005 C 0.24793 0.97895 0.97799 0.0
C1006 C 0.26649 0.85858 0.0357 0.0
C1007 C 0.29202 0.86436 0.04514 0.0
C1008 C 0.25353 0.83338 0.03601 0.0
C1009 C 0.30425 0.84466 0.05446 0.0
C1010 C 0.26643 0.81423 0.04548 0.0
N1011 N 0.29132 0.82022 0.05442 0.0
C1012 C 0.29114 0.96041 0.03667 0.0
C1013 C 0.29968 0.92369 0.01218 0.0
C1014 C 0.31548 0.97363 0.03436 0.0
N1015 N 0.28382 0.93579 0.02576 0.0
C1016 C 0.32419 0.93595 0.00978 0.0
C1017 C 0.33238 0.96118 0.02101 0.0
H1018 H 0.27826 0.96971 0.04734 0.0
H1019 H 0.29331 0.90427 1.00337 0.0
C1020 C 0.21104 0.86374 0.94789 0.0
N1021 N 0.22362 0.8569 0.96943 0.0
C1022 C 0.21467 0.85296 0.92352 0.0
C1023 C 0.24341 0.82759 0.94374 0.0
C1024 C 0.2394 0.83894 0.96762 0.0
C1025 C 0.23157 0.83503 0.9211 0.0
H1026 H 0.19905 0.8785 0.94949 0.0
H1027 H 0.24977 0.83403 0.9846 0.0
O1028 O 0.23321 0.91911 0.05851 0.0
O1029 O 0.19595 0.87349 0.02649 0.0
O1030 O 0.22438 0.91523 0.99895 0.0
O1031 O 0.25399 0.87767 0.02701 0.0
H1032 H 0.21786 0.909 0.10364 0.0
H1033 H 0.2345 0.96911 0.05281 0.0
H1034 H 0.20675 0.94177 0.13516 0.0
H1035 H 0.22322 1.00086 0.08523 0.0
H1036 H 0.15556 0.79115 0.02952 0.0
H1037 H 0.16262 0.88386 0.0582 0.0
H1038 H 0.18853 0.82303 0.01364 0.0
H1039 H 0.12988 0.85102 0.07303 0.0
H1040 H 0.14038 0.95886 0.07157 0.0
H1041 H 0.14299 0.96657 0.99058 0.0
H1042 H 0.2812 0.85973 0.12863 0.0
H1043 H 0.20383 0.82136 0.12318 0.0
H1044 H 0.25355 0.90719 0.96224 0.0
H1045 H 0.22324 0.9655 0.00606 0.0
H1046 H 0.27639 0.94187 0.93912 0.0
H1047 H 0.24668 0.99918 0.98225 0.0
H1048 H 0.30221 0.88387 0.04559 0.0
H1049 H 0.23368 0.82873 0.02911 0.0
H1050 H 0.324 0.84885 0.06185 0.0
H1051 H 0.25664 0.79463 0.04579 0.0
H1052 H 0.32125 0.99307 0.04339 0.0
H1053 H 0.33666 0.92581 0.99923 0.0
H1054 H 0.20515 0.85943 0.90668 0.0
H1055 H 0.25612 0.81341 0.94307 0.0
Li1056 Li 0.23783 0.43021 0.04333 0.0
Li1057 Li 0.25218 0.396 0.06685 0.0
Li1058 Li 0.2828 0.42734 0.04875 0.0
Li1059 Li 0.25263 0.39369 0.0227 0.0
C1060 C 0.25305 0.44895 0.09449 0.0
N1061 N 0.23651 0.47909 0.13258 0.0
C1062 C 0.23547 0.43769 0.11017 0.0
C1063 C 0.26226 0.47549 0.09818 0.0
C1064 C 0.22735 0.45327 0.12934 0.0
C1065 C 0.25363 0.49041 0.11752 0.0
C1066 C 0.20453 0.37695 0.02585 0.0
C1067 C 0.18873 0.33449 1.00477 0.0
N1068 N 0.16888 0.34399 0.99304 0.0
C1069 C 0.18384 0.38621 0.01374 0.0
C1070 C 0.20688 0.35081 0.02149 0.0
C1071 C 0.16608 0.36927 0.99716 0.0
C1072 C 0.20838 0.456 0.01222 0.0
N1073 N 0.21466 0.4532 0.03738 0.0
C1074 C 0.18581 0.48088 0.04989 0.0
C1075 C 0.20377 0.46518 0.05617 0.0
C1076 C 0.17894 0.48392 0.02407 0.0
C1077 C 0.19043 0.47139 1.00508 0.0
H1078 H 0.2168 0.44563 0.99765 0.0
H1079 H 0.20833 0.46205 0.07591 0.0
C1080 C 0.26438 0.3791 0.11507 0.0
N1081 N 0.24727 0.37505 0.09408 0.0
C1082 C 0.26321 0.36139 0.13367 0.0
C1083 C 0.22603 0.33655 0.10929 0.0
C1084 C 0.22797 0.35472 0.09114 0.0
C1085 C 0.24408 0.33964 0.13058 0.0
H1086 H 0.2794 0.39559 0.11685 0.0
H1087 H 0.21449 0.35221 0.0744 0.0
C1088 C 0.27022 0.45213 0.00599 0.0
N1089 N 0.28959 0.49617 0.98375 0.0
C1090 C 0.27765 0.45016 0.98127 0.0
C1091 C 0.27259 0.47642 0.01944 0.0
C1092 C 0.28741 0.47268 0.97034 0.0
C1093 C 0.28244 0.49847 0.00785 0.0
C1094 C 0.29267 0.37385 0.06223 0.0
C1095 C 0.31389 0.38445 0.07899 0.0
C1096 C 0.28323 0.3474 0.06156 0.0
C1097 C 0.32517 0.36838 0.09512 0.0
C1098 C 0.295 0.33201 0.07804 0.0
N1099 N 0.31554 0.34273 0.09435 0.0
C1100 C 0.32595 0.46413 0.06927 0.0
C1101 C 0.3277 0.44183 0.02887 0.0
C1102 C 0.34989 0.47845 0.06795 0.0
N1103 N 0.31545 0.44639 0.04978 0.0
C1104 C 0.35149 0.45574 0.02669 0.0
C1105 C 0.36282 0.47431 0.04637 0.0
H1106 H 0.31573 0.46722 0.0857 0.0
H1107 H 0.31876 0.42749 0.01377 0.0
C1108 C 0.23358 0.37751 0.9726 0.0
N1109 N 0.25018 0.37331 0.99226 0.0
C1110 C 0.23375 0.36483 0.94862 0.0
C1111 C 0.26822 0.344 0.96578 0.0
C1112 C 0.26703 0.3567 0.98954 0.0
C1113 C 0.25187 0.34863 0.94491 0.0
H1114 H 0.2208 0.39131 0.9754 0.0
H1115 H 0.28032 0.35429 0.00551 0.0
O1116 O 0.26157 0.43404 0.0759 0.0
O1117 O 0.2221 0.39328 0.04221 0.0
O1118 O 0.26109 0.43022 0.01708 0.0
O1119 O 0.281 0.38935 0.04675 0.0
H1120 H 0.2279 0.41726 0.1074 0.0
H1121 H 0.27584 0.48451 0.08618 0.0
H1122 H 0.21369 0.44486 0.14157 0.0
H1123 H 0.26054 0.51099 0.12056 0.0
H1124 H 0.19045 0.31429 1.00108 0.0
H1125 H 0.18143 0.40623 0.01718 0.0
H1126 H 0.2228 0.34329 0.0306 0.0
H1127 H 0.15002 0.37621 0.9876 0.0
H1128 H 0.17665 0.48968 0.06497 0.0
H1129 H 0.18519 0.47306 0.98496 0.0
H1130 H 0.27727 0.36444 0.15011 0.0
H1131 H 0.2111 0.31993 0.10636 0.0
H1132 H 0.27598 0.43141 0.97071 0.0
H1133 H 0.26699 0.47817 0.03864 0.0
H1134 H 0.29329 0.47148 0.95122 0.0
H1135 H 0.28444 0.51742 0.01803 0.0
H1136 H 0.32138 0.4049 0.07978 0.0
H1137 H 0.26676 0.33896 0.04872 0.0
H1138 H 0.34151 0.37633 0.10834 0.0
H1139 H 0.28775 0.31157 0.07793 0.0
H1140 H 0.35807 0.49278 0.0834 0.0
H1141 H 0.36105 0.45189 0.00989 0.0
H1142 H 0.22056 0.36841 0.93296 0.0
H1143 H 0.28256 0.33178 0.96346 0.0
Li1144 Li 0.8036 0.18837 0.03728 0.0
Li1145 Li 0.8231 0.15493 0.01178 0.0
Li1146 Li 0.79818 0.18743 0.98798 0.0
Li1147 Li 0.77668 0.15156 0.01055 0.0
C1148 C 0.8503 0.21276 0.02283 0.0
N1149 N 0.89018 0.24986 0.04394 0.0
C1150 C 0.86788 0.20656 0.04169 0.0
C1151 C 0.85311 0.23775 0.0145 0.0
C1152 C 0.8879 0.2256 0.05216 0.0
C1153 C 0.87335 0.25627 0.02549 0.0
C1154 C 0.81234 0.13616 0.05762 0.0
C1155 C 0.82189 0.095 0.07026 0.0
N1156 N 0.83519 0.10715 0.09204 0.0
C1157 C 0.82608 0.14825 0.08013 0.0
C1158 C 0.81019 0.10933 0.05262 0.0
C1159 C 0.8375 0.13324 0.09729 0.0
C1160 C 0.77922 0.20504 0.07933 0.0
N1161 N 0.80255 0.20836 0.0706 0.0
C1162 C 0.81964 0.2342 0.10963 0.0
C1163 C 0.82261 0.22288 0.08525 0.0
C1164 C 0.79578 0.23074 0.1192 0.0
C1165 C 0.77538 0.21617 0.1034 0.0
H1166 H 0.76348 0.19327 0.06769 0.0
H1167 H 0.84108 0.22541 0.07839 0.0
C1168 C 0.85451 0.12121 0.98784 0.0
N1169 N 0.85162 0.1344 0.01036 0.0
C1170 C 0.87383 0.10588 0.98615 0.0
C1171 C 0.88704 0.11763 0.0308 0.0
C1172 C 0.8676 0.13278 0.03162 0.0
C1173 C 0.89068 0.10402 0.00778 0.0
H1174 H 0.84176 0.1225 0.97104 0.0
H1175 H 0.86524 0.143 0.04949 0.0
C1176 C 0.76403 0.21175 0.01356 0.0
N1177 N 0.74679 0.25879 0.01351 0.0
C1178 C 0.73819 0.21253 0.00863 0.0
C1179 C 0.78108 0.23482 0.01873 0.0
C1180 C 0.72986 0.23653 0.00855 0.0
C1181 C 0.772 0.25843 0.01861 0.0
C1182 C 0.78254 0.12821 0.96731 0.0
C1183 C 0.76464 0.13197 0.94755 0.0
C1184 C 0.78481 0.10309 0.97361 0.0
C1185 C 0.74917 0.11042 0.93443 0.0
C1186 C 0.769 0.08206 0.96004 0.0
N1187 N 0.75165 0.08612 0.9409 0.0
C1188 C 0.81275 0.21438 0.94267 0.0
C1189 C 0.76931 0.21016 0.94874 0.0
C1190 C 0.8084 0.22618 0.91968 0.0
N1191 N 0.79329 0.20653 0.95679 0.0
C1192 C 0.76425 0.2223 0.92621 0.0
C1193 C 0.78383 0.23029 0.91109 0.0
H1194 H 0.83165 0.21114 0.94902 0.0
H1195 H 0.75384 0.20313 0.95951 0.0
C1196 C 0.74039 0.11115 0.0266 0.0
N1197 N 0.74431 0.12997 0.01011 0.0
C1198 C 0.71589 0.09844 0.02877 0.0
C1199 C 0.69993 0.12447 0.99674 0.0
C1200 C 0.72474 0.13648 0.99501 0.0
C1201 C 0.69514 0.10556 0.01423 0.0
H1202 H 0.75614 0.10658 0.03872 0.0
H1203 H 0.72831 0.15174 0.98229 0.0
O1204 O 0.83063 0.19438 0.01228 0.0
O1205 O 0.80101 0.15053 0.04061 0.0
O1206 O 0.77257 0.18847 0.01303 0.0
O1207 O 0.79749 0.14902 0.98075 0.0
H1208 H 0.86583 0.18741 0.04849 0.0
H1209 H 0.8398 0.24277 0.9997 0.0
H1210 H 0.90154 0.22111 0.06692 0.0
H1211 H 0.87571 0.27572 0.01931 0.0
H1212 H 0.82043 0.07422 0.06661 0.0
H1213 H 0.8281 0.16899 0.08422 0.0
H1214 H 0.79973 0.09969 0.03524 0.0
H1215 H 0.84825 0.14234 0.11475 0.0
H1216 H 0.8359 0.24562 0.12083 0.0
H1217 H 0.75666 0.2128 0.10985 0.0
H1218 H 0.87574 0.09584 0.96795 0.0
H1219 H 0.89891 0.11635 0.04826 0.0
H1220 H 0.72476 0.1948 1.00464 0.0
H1221 H 0.80106 0.23449 0.02286 0.0
H1222 H 0.70993 0.23745 1.00454 0.0
H1223 H 0.78499 0.27646 0.02256 0.0
H1224 H 0.76259 0.15132 0.94255 0.0
H1225 H 0.79858 0.09991 0.98888 0.0
H1226 H 0.73515 0.11301 0.91915 0.0
H1227 H 0.77051 0.0625 0.96473 0.0
H1228 H 0.82415 0.23212 0.90875 0.0
H1229 H 0.74499 0.22479 0.92027 0.0
H1230 H 0.71321 0.08351 0.04201 0.0
H1231 H 0.68457 0.13067 0.9852 0.0
Li1232 Li 0.14382 0.52191 0.28478 0.0
Li1233 Li 0.1089 0.49962 0.30655 0.0
Li1234 Li 0.14018 0.47439 0.28521 0.0
Li1235 Li 0.10823 0.4957 0.25715 0.0
C1236 C 0.16116 0.51437 0.3353 0.0
N1237 N 0.19154 0.54205 0.37612 0.0
C1238 C 0.15217 0.53369 0.34981 0.0
C1239 C 0.18553 0.50893 0.34169 0.0
C1240 C 0.16784 0.54754 0.37032 0.0
C1241 C 0.20061 0.52319 0.36238 0.0
C1242 C 0.0992 0.54883 0.28257 0.0
C1243 C 0.06986 0.57628 0.26735 0.0
N1244 N 0.08141 0.59561 0.28494 0.0
C1245 C 0.11076 0.5689 0.30054 0.0
C1246 C 0.07858 0.55247 0.26586 0.0
C1247 C 0.10151 0.59244 0.3014 0.0
C1248 C 0.159 0.56916 0.26439 0.0
N1249 N 0.16636 0.55434 0.28311 0.0
C1250 C 0.20296 0.58625 0.29628 0.0
C1251 C 0.18819 0.56223 0.29866 0.0
C1252 C 0.1953 0.60228 0.27765 0.0
C1253 C 0.17317 0.59324 0.26134 0.0
H1254 H 0.14186 0.56234 0.25193 0.0
H1255 H 0.19431 0.55001 0.31285 0.0
C1256 C 0.09421 0.48965 0.3573 0.0
N1257 N 0.08941 0.50314 0.33659 0.0
C1258 C 0.08258 0.49362 0.37987 0.0
C1259 C 0.06091 0.52506 0.35957 0.0
C1260 C 0.07289 0.52047 0.33739 0.0
C1261 C 0.06591 0.51187 0.38149 0.0
H1262 H 0.10757 0.47616 0.35654 0.0
H1263 H 0.06914 0.53107 0.32091 0.0
C1264 C 0.16819 0.50378 0.2475 0.0
N1265 N 0.21492 0.52129 0.23162 0.0
C1266 C 0.16982 0.51449 0.22397 0.0
C1267 C 0.19026 0.50193 0.26296 0.0
C1268 C 0.19365 0.52324 0.21628 0.0
C1269 C 0.21373 0.51091 0.2546 0.0
C1270 C 0.07626 0.45648 0.27808 0.0
C1271 C 0.06885 0.42976 0.27298 0.0
C1272 C 0.05793 0.47271 0.27916 0.0
C1273 C 0.04308 0.41965 0.26908 0.0
C1274 C 0.03236 0.46186 0.27519 0.0
N1275 N 0.02553 0.43577 0.27027 0.0
C1276 C 0.17109 0.43952 0.30843 0.0
C1277 C 0.16214 0.43262 0.26345 0.0
C1278 C 0.18657 0.42017 0.30851 0.0
N1279 N 0.15934 0.44551 0.28608 0.0
C1280 C 0.17728 0.41303 0.26268 0.0
C1281 C 0.18982 0.40654 0.28541 0.0
H1282 H 0.1687 0.44999 0.32623 0.0
H1283 H 0.15298 0.43791 0.24586 0.0
C1284 C 0.09848 0.51737 0.21057 0.0
N1285 N 0.08982 0.49646 0.22323 0.0
C1286 C 0.08827 0.5202 0.18565 0.0
C1287 C 0.0596 0.48029 0.18706 0.0
C1288 C 0.07062 0.47804 0.21198 0.0
C1289 C 0.06855 0.50155 0.17344 0.0
H1290 H 0.11356 0.5319 0.21983 0.0
H1291 H 0.06399 0.46142 0.22213 0.0
O1292 O 0.14613 0.50063 0.31512 0.0
O1293 O 0.10796 0.52568 0.28118 0.0
O1294 O 0.14511 0.4957 0.25574 0.0
O1295 O 0.10139 0.4667 0.28152 0.0
H1296 H 0.13329 0.53796 0.34533 0.0
H1297 H 0.19285 0.49412 0.33061 0.0
H1298 H 0.16114 0.56261 0.38166 0.0
H1299 H 0.21956 0.51931 0.36745 0.0
H1300 H 0.0539 0.57938 0.25454 0.0
H1301 H 0.12688 0.56648 0.31344 0.0
H1302 H 0.06934 0.53703 0.25196 0.0
H1303 H 0.11033 0.6082 0.31513 0.0
H1304 H 0.22026 0.59215 0.30884 0.0
H1305 H 0.16657 0.60494 0.24669 0.0
H1306 H 0.08712 0.48295 0.39615 0.0
H1307 H 0.04774 0.53881 0.35945 0.0
H1308 H 0.15292 0.51602 0.21177 0.0
H1309 H 0.18928 0.49393 0.28135 0.0
H1310 H 0.19523 0.53159 0.19811 0.0
H1311 H 0.23098 0.5097 0.2664 0.0
H1312 H 0.08288 0.41699 0.27195 0.0
H1313 H 0.06335 0.49347 0.28286 0.0
H1314 H 0.03705 0.399 0.26508 0.0
H1315 H 0.01794 0.47417 0.27595 0.0
H1316 H 0.19585 0.41584 0.32648 0.0
H1317 H 0.17963 0.4035 0.24435 0.0
H1318 H 0.09569 0.537 0.17607 0.0
H1319 H 0.04464 0.46525 0.17834 0.0
Li1320 Li 0.74243 0.93549 0.53868 0.0
Li1321 Li 0.75589 0.90054 0.5637 0.0
Li1322 Li 0.78705 0.93178 0.54254 0.0
Li1323 Li 0.75572 0.90002 0.51925 0.0
C1324 C 0.76058 0.95318 0.59143 0.0
N1325 N 0.74933 0.98154 0.63384 0.0
C1326 C 0.74224 0.94234 0.60652 0.0
C1327 C 0.77354 0.97827 0.59816 0.0
C1328 C 0.73672 0.95704 0.62781 0.0
C1329 C 0.76748 0.99235 0.6196 0.0
C1330 C 0.70881 0.88224 0.52306 0.0
C1331 C 0.6882 0.83863 0.50958 0.0
N1332 N 0.67452 0.84786 0.49023 0.0
C1333 C 0.69451 0.89129 0.50307 0.0
C1334 C 0.70562 0.85569 0.52639 0.0
C1335 C 0.67729 0.8736 0.48667 0.0
C1336 C 0.71341 0.96634 0.51127 0.0
N1337 N 0.71867 0.95823 0.53493 0.0
C1338 C 0.68547 0.9778 0.55103 0.0
C1339 C 0.7052 0.96367 0.55468 0.0
C1340 C 0.67967 0.98617 0.5268 0.0
C1341 C 0.69404 0.98081 0.50684 0.0
H1342 H 0.72328 0.96045 0.49545 0.0
H1343 H 0.7088 0.95592 0.57283 0.0
C1344 C 0.77361 0.87838 0.60636 0.0
N1345 N 0.75228 0.88042 0.59133 0.0
C1346 C 0.77254 0.8615 0.6257 0.0
C1347 C 0.72745 0.84957 0.61386 0.0
C1348 C 0.72937 0.8669 0.59489 0.0
C1349 C 0.74933 0.84643 0.62917 0.0
H1350 H 0.7915 0.88951 0.60292 0.0
H1351 H 0.71272 0.86928 0.58274 0.0
C1352 C 0.77258 0.96118 0.50528 0.0
N1353 N 0.78754 0.01142 0.49314 0.0
C1354 C 0.77782 0.96611 0.48035 0.0
C1355 C 0.77508 0.98182 0.52403 0.0
C1356 C 0.78534 0.99163 0.47459 0.0
C1357 C 0.7826 0.00707 0.51752 0.0
C1358 C 0.79409 0.87408 0.5337 0.0
C1359 C 0.8084 0.87764 0.51294 0.0
C1360 C 0.79046 0.84998 0.54391 0.0
C1361 C 0.81862 0.85681 0.50248 0.0
C1362 C 0.80106 0.82966 0.53295 0.0
N1363 N 0.81477 0.83346 0.51262 0.0
C1364 C 0.83333 0.96043 0.56667 0.0
C1365 C 0.83048 0.95102 0.52166 0.0
C1366 C 0.85795 0.97367 0.56667 0.0
N1367 N 0.82029 0.94948 0.54432 0.0
C1368 C 0.85482 0.96411 0.52075 0.0
C1369 C 0.86885 0.97552 0.54344 0.0
H1370 H 0.82464 0.95885 0.58438 0.0
H1371 H 0.81963 0.94207 0.50422 0.0
C1372 C 0.74942 0.89008 0.46721 0.0
N1373 N 0.7505 0.87778 0.48909 0.0
C1374 C 0.75031 0.87652 0.44389 0.0
C1375 C 0.75093 0.8373 0.4658 0.0
C1376 C 0.75002 0.85171 0.48879 0.0
C1377 C 0.7522 0.85014 0.44336 0.0
H1378 H 0.74893 0.91063 0.468 0.0
H1379 H 0.75018 0.84231 0.50645 0.0
O1380 O 0.76662 0.93895 0.57081 0.0
O1381 O 0.72589 0.89928 0.5392 0.0
O1382 O 0.76564 0.93615 0.51119 0.0
O1383 O 0.78387 0.89414 0.54419 0.0
H1384 H 0.73195 0.92302 0.60155 0.0
H1385 H 0.78819 0.98679 0.58703 0.0
H1386 H 0.72236 0.94899 0.63949 0.0
H1387 H 0.77726 0.01183 0.62496 0.0
H1388 H 0.68568 0.81803 0.51182 0.0
H1389 H 0.69678 0.91173 0.50015 0.0
H1390 H 0.71684 0.84824 0.54143 0.0
H1391 H 0.66614 0.88034 0.47108 0.0
H1392 H 0.67411 0.98116 0.56657 0.0
H1393 H 0.68929 0.9863 0.48772 0.0
H1394 H 0.78966 0.8602 0.63774 0.0
H1395 H 0.70921 0.83843 0.61623 0.0
H1396 H 0.77635 0.9504 0.46562 0.0
H1397 H 0.77106 0.97846 0.54333 0.0
H1398 H 0.78948 0.99569 0.45538 0.0
H1399 H 0.78451 0.0232 0.53187 0.0
H1400 H 0.8112 0.89611 0.50472 0.0
H1401 H 0.77937 0.84691 0.55995 0.0
H1402 H 0.82954 0.8592 0.48624 0.0
H1403 H 0.79831 0.81084 0.54056 0.0
H1404 H 0.86828 0.98246 0.5845 0.0
H1405 H 0.86277 0.96496 0.50255 0.0
H1406 H 0.75081 0.88672 0.42663 0.0
H1407 H 0.75219 0.81684 0.46576 0.0
Li1408 Li 0.89224 0.06249 0.26762 0.0
Li1409 Li 0.85847 0.03216 0.24451 0.0
Li1410 Li 0.89181 0.06148 0.22218 0.0
Li1411 Li 0.85937 0.08038 0.24671 0.0
C1412 C 0.91457 0.0216 0.2544 0.0
N1413 N 0.95405 1.00011 0.27693 0.0
C1414 C 0.91099 0.00685 0.27534 0.0
C1415 C 0.93815 0.02526 0.24476 0.0
C1416 C 0.93122 0.99623 0.28654 0.0
C1417 C 0.95788 0.01424 0.25643 0.0
C1418 C 0.83158 0.05145 0.27991 0.0
C1419 C 0.7869 0.04498 0.26593 0.0
N1420 N 0.78166 0.04118 0.29033 0.0
C1421 C 0.8257 0.04733 0.30483 0.0
C1422 C 0.81199 0.05011 0.26027 0.0
C1423 C 0.80037 0.04222 0.30971 0.0
C1424 C 0.90339 0.06438 0.32054 0.0
N1425 N 0.91462 0.06552 0.29843 0.0
C1426 C 0.95512 0.0652 0.32112 0.0
C1427 C 0.9401 0.06669 0.29839 0.0
C1428 C 0.94372 0.06267 0.34398 0.0
C1429 C 0.91764 0.06295 0.34367 0.0
H1430 H 0.88323 0.06382 0.32011 0.0
H1431 H 0.94869 0.0679 0.28063 0.0
C1432 C 0.82777 0.98299 0.22377 0.0
N1433 N 0.83938 0.99777 0.245 0.0
C1434 C 0.81595 0.95744 0.22576 0.0
C1435 C 0.82832 0.96288 0.27124 0.0
C1436 C 0.83952 0.98828 0.26845 0.0
C1437 C 0.81621 0.94697 0.24977 0.0
H1438 H 0.82799 0.99086 0.20528 0.0
H1439 H 0.8489 1.00031 0.28505 0.0
C1440 C 0.91327 0.10965 0.26226 0.0
N1441 N 0.94817 0.14326 0.29516 0.0
C1442 C 0.90539 0.12327 0.28303 0.0
C1443 C 0.93887 0.11321 0.25813 0.0
C1444 C 0.92334 0.14015 0.29948 0.0
C1445 C 0.95622 0.13027 0.27501 0.0
C1446 C 0.84167 0.06336 0.19434 0.0
C1447 C 0.85459 0.08309 0.18165 0.0
C1448 C 0.81688 0.05242 0.18521 0.0
C1449 C 0.84233 0.09186 0.16016 0.0
C1450 C 0.80527 0.06171 0.16365 0.0
N1451 N 0.81813 0.08109 0.15168 0.0
C1452 C 0.91146 0.03898 0.18029 0.0
C1453 C 0.92618 0.08411 0.18773 0.0
C1454 C 0.92648 0.03728 0.16012 0.0
N1455 N 0.91158 0.06211 0.19364 0.0
C1456 C 0.94149 0.0833 0.16758 0.0
C1457 C 0.9416 0.05966 0.15338 0.0
H1458 H 0.89995 0.02175 0.18565 0.0
H1459 H 0.92593 0.10229 0.19864 0.0
C1460 C 0.82916 0.11349 0.27134 0.0
N1461 N 0.84012 0.10916 0.2494 0.0
C1462 C 0.81599 0.13433 0.27457 0.0
C1463 C 0.82701 0.14746 0.23343 0.0
C1464 C 0.83953 0.12596 0.23074 0.0
C1465 C 0.81498 0.15194 0.25562 0.0
H1466 H 0.83087 0.10108 0.28672 0.0
H1467 H 0.84932 0.12317 0.21401 0.0
O1468 O 0.89513 0.03246 0.24337 0.0
O1469 O 0.85638 0.05597 0.27486 0.0
O1470 O 0.896 0.09278 0.24619 0.0
O1471 O 0.85343 0.05427 0.21521 0.0
H1472 H 0.89297 1.00406 0.2832 0.0
H1473 H 0.9413 0.03677 0.22867 0.0
H1474 H 0.92879 0.98501 0.30294 0.0
H1475 H 0.97628 0.01703 0.24927 0.0
H1476 H 0.7716 0.04403 0.2509 0.0
H1477 H 0.8405 0.0479 0.32027 0.0
H1478 H 0.816 0.05322 0.24092 0.0
H1479 H 0.7956 0.03902 0.32891 0.0
H1480 H 0.97529 0.06552 0.32076 0.0
H1481 H 0.90822 0.06106 0.36098 0.0
H1482 H 0.80685 0.94595 0.20866 0.0
H1483 H 0.82983 0.95562 0.29002 0.0
H1484 H 0.88566 0.12062 0.28656 0.0
H1485 H 0.94535 0.10257 0.24235 0.0
H1486 H 0.91754 0.15072 0.3157 0.0
H1487 H 0.97612 0.13308 0.27216 0.0
H1488 H 0.87371 0.09187 0.18857 0.0
H1489 H 0.80673 0.03688 0.19465 0.0
H1490 H 0.85205 0.10728 0.15028 0.0
H1491 H 0.78606 0.05348 0.1564 0.0
H1492 H 0.92643 0.01855 0.15004 0.0
H1493 H 0.95285 0.10097 0.16293 0.0
H1494 H 0.80659 0.13642 0.29177 0.0
H1495 H 0.8271 0.16068 0.21843 0.0
Li1496 Li 0.30427 0.68824 0.53582 0.0
Li1497 Li 0.32449 0.65407 0.51042 0.0
Li1498 Li 0.29876 0.68657 0.4869 0.0
Li1499 Li 0.27712 0.65093 0.51056 0.0
C1500 C 0.34683 0.71484 0.52367 0.0
N1501 N 0.37678 0.7572 0.55062 0.0
C1502 C 0.36381 0.71134 0.54436 0.0
C1503 C 0.34509 0.73982 0.51661 0.0
C1504 C 0.37878 0.73303 0.55778 0.0
C1505 C 0.36041 0.761 0.53049 0.0
C1506 C 0.29707 0.63105 0.55461 0.0
C1507 C 0.29467 0.58618 0.5634 0.0
N1508 N 0.28364 0.59123 0.58508 0.0
C1509 C 0.28585 0.63586 0.57704 0.0
C1510 C 0.30165 0.60608 0.54776 0.0
C1511 C 0.27913 0.61544 0.59216 0.0
C1512 C 0.28762 0.72494 0.57164 0.0
N1513 N 0.30477 0.70846 0.56927 0.0
C1514 C 0.31585 0.71392 0.61497 0.0
C1515 C 0.31909 0.70315 0.59043 0.0
C1516 C 0.29752 0.7302 0.61796 0.0
C1517 C 0.2839 0.73619 0.59565 0.0
H1518 H 0.27597 0.72873 0.55506 0.0
H1519 H 0.33225 0.68958 0.58849 0.0
C1520 C 0.35599 0.62027 0.48702 0.0
N1521 N 0.35291 0.63388 0.50923 0.0
C1522 C 0.37519 0.6048 0.48596 0.0
C1523 C 0.38849 0.61799 0.5304 0.0
C1524 C 0.36876 0.63289 0.53074 0.0
C1525 C 0.39196 0.60358 0.50778 0.0
H1526 H 0.34344 0.62128 0.47002 0.0
H1527 H 0.36599 0.6435 0.54833 0.0
C1528 C 0.25745 0.70462 0.50626 0.0
N1529 N 0.2252 0.73893 0.49284 0.0
C1530 C 0.23152 0.69585 0.50075 0.0
C1531 C 0.26702 0.73077 0.50478 0.0
C1532 C 0.21552 0.71352 0.49404 0.0
C1533 C 0.25039 0.74784 0.49803 0.0
C1534 C 0.28654 0.62781 0.4635 0.0
C1535 C 0.27197 0.63232 0.44139 0.0
C1536 C 0.28999 0.6025 0.46803 0.0
C1537 C 0.26098 0.61137 0.42417 0.0
C1538 C 0.27871 0.58207 0.45033 0.0
N1539 N 0.26455 0.58689 0.42896 0.0
C1540 C 0.31392 0.71655 0.44365 0.0
C1541 C 0.26975 0.70589 0.44502 0.0
C1542 C 0.31008 0.72885 0.42089 0.0
N1543 N 0.29386 0.70534 0.4554 0.0
C1544 C 0.2651 0.71846 0.42269 0.0
C1545 C 0.28536 0.73003 0.41012 0.0
H1546 H 0.33297 0.71577 0.45181 0.0
H1547 H 0.25392 0.69617 0.45378 0.0
C1548 C 0.23367 0.63548 0.53431 0.0
N1549 N 0.24467 0.6295 0.51282 0.0
C1550 C 0.20924 0.62355 0.53775 0.0
C1551 C 0.20747 0.59945 0.49678 0.0
C1552 C 0.23201 0.61183 0.49415 0.0
C1553 C 0.19575 0.60531 0.51879 0.0
H1554 H 0.24358 0.65034 0.54842 0.0
H1555 H 0.24043 0.60769 0.47686 0.0
O1556 O 0.33174 0.69391 0.51058 0.0
O1557 O 0.3041 0.65083 0.53976 0.0
O1558 O 0.27347 0.68754 0.51234 0.0
O1559 O 0.29754 0.64808 0.48049 0.0
H1560 H 0.36525 0.6921 0.5501 0.0
H1561 H 0.33209 0.74279 0.50056 0.0
H1562 H 0.39195 0.73064 0.5739 0.0
H1563 H 0.35928 0.78047 0.52526 0.0
H1564 H 0.29809 0.56674 0.55833 0.0
H1565 H 0.28226 0.65512 0.58264 0.0
H1566 H 0.31064 0.60215 0.53065 0.0
H1567 H 0.27036 0.61885 0.60953 0.0
H1568 H 0.32681 0.70864 0.63153 0.0
H1569 H 0.27002 0.74912 0.59672 0.0
H1570 H 0.37711 0.59413 0.46809 0.0
H1571 H 0.40064 0.61738 0.54784 0.0
H1572 H 0.22385 0.6756 0.50143 0.0
H1573 H 0.28707 0.73777 0.50881 0.0
H1574 H 0.19541 0.70702 0.4897 0.0
H1575 H 0.25753 0.76814 0.49686 0.0
H1576 H 0.26914 0.65177 0.43757 0.0
H1577 H 0.30114 0.59866 0.48507 0.0
H1578 H 0.24961 0.61457 0.407 0.0
H1579 H 0.28117 0.56238 0.45362 0.0
H1580 H 0.32631 0.73758 0.41191 0.0
H1581 H 0.24574 0.71858 0.41498 0.0
H1582 H 0.20069 0.62924 0.55468 0.0
H1583 H 0.19765 0.58562 0.48161 0.0
Li1584 Li 0.35293 0.52942 0.73665 0.0
Li1585 Li 0.38806 0.55809 0.76506 0.0
Li1586 Li 0.35585 0.57772 0.74082 0.0
Li1587 Li 0.38743 0.56016 0.71865 0.0
C1588 C 0.33568 0.56336 0.78243 0.0
N1589 N 0.30437 0.58798 0.81105 0.0
C1590 C 0.34559 0.5783 0.80504 0.0
C1591 C 0.30988 0.56084 0.77436 0.0
C1592 C 0.32943 0.5906 0.81926 0.0
C1593 C 0.29436 0.57348 0.7891 0.0
C1594 C 0.40966 0.51731 0.74528 0.0
C1595 C 0.45435 0.51537 0.74969 0.0
N1596 N 0.44953 0.49202 0.7597 0.0
C1597 C 0.4051 0.4932 0.75537 0.0
C1598 C 0.43443 0.52842 0.74223 0.0
C1599 C 0.42553 0.48077 0.76265 0.0
C1600 C 0.34163 0.47536 0.72065 0.0
N1601 N 0.33423 0.49474 0.73525 0.0
C1602 C 0.30617 0.46376 0.75503 0.0
C1603 C 0.31656 0.48943 0.75196 0.0
C1604 C 0.3144 0.44323 0.74121 0.0
C1605 C 0.33188 0.44936 0.72329 0.0
H1606 H 0.35612 0.48001 0.70791 0.0
H1607 H 0.31129 0.50504 0.76374 0.0
C1608 C 0.42343 0.57779 0.8088 0.0
N1609 N 0.40736 0.55712 0.79672 0.0
C1610 C 0.43658 0.57544 0.83246 0.0
C1611 C 0.41606 0.53081 0.83073 0.0
C1612 C 0.40308 0.53414 0.80742 0.0
C1613 C 0.43312 0.55158 0.8434 0.0
H1614 H 0.42583 0.59611 0.80025 0.0
H1615 H 0.38935 0.51845 0.79789 0.0
C1616 C 0.3427 0.56534 0.68742 0.0
N1617 N 0.32879 0.58931 0.64435 0.0
C1618 C 0.35509 0.58999 0.68351 0.0
C1619 C 0.32322 0.55285 0.66947 0.0
C1620 C 0.34781 0.60179 0.6616 0.0
C1621 C 0.31645 0.5653 0.64781 0.0
C1622 C 0.41209 0.6084 0.74295 0.0
C1623 C 0.40699 0.6319 0.73419 0.0
C1624 C 0.43715 0.60489 0.74888 0.0
C1625 C 0.42711 0.65133 0.73103 0.0
C1626 C 0.45675 0.6248 0.7455 0.0
N1627 N 0.45137 0.6474 0.73668 0.0
C1628 C 0.34612 0.62526 0.76291 0.0
C1629 C 0.31552 0.60739 0.72871 0.0
C1630 C 0.33326 0.64619 0.76733 0.0
N1631 N 0.33702 0.60626 0.74403 0.0
C1632 C 0.30226 0.62821 0.7322 0.0
C1633 C 0.31085 0.64781 0.75202 0.0
H1634 H 0.36328 0.62395 0.77483 0.0
H1635 H 0.30855 0.5921 0.71385 0.0
C1636 C 0.41242 0.53843 0.68058 0.0
N1637 N 0.40865 0.56185 0.6909 0.0
C1638 C 0.42771 0.53687 0.66064 0.0
C1639 C 0.435 0.58362 0.66188 0.0
C1640 C 0.4196 0.58429 0.68199 0.0
C1641 C 0.43894 0.55964 0.65076 0.0
H1642 H 0.40354 0.52086 0.68794 0.0
H1643 H 0.41624 0.60274 0.69016 0.0
O1644 O 0.3513 0.55185 0.76787 0.0
O1645 O 0.38993 0.52985 0.73824 0.0
O1646 O 0.34942 0.55348 0.70878 0.0
O1647 O 0.39258 0.58921 0.74622 0.0
H1648 H 0.36558 0.58059 0.81139 0.0
H1649 H 0.30205 0.54962 0.75668 0.0
H1650 H 0.33683 0.60233 0.83676 0.0
H1651 H 0.27438 0.57187 0.78302 0.0
H1652 H 0.47363 0.52377 0.74748 0.0
H1653 H 0.38602 0.48435 0.75786 0.0
H1654 H 0.43823 0.54682 0.734 0.0
H1655 H 0.4223 0.46219 0.77067 0.0
H1656 H 0.2923 0.46004 0.76861 0.0
H1657 H 0.33884 0.4342 0.7123 0.0
H1658 H 0.44942 0.59192 0.84201 0.0
H1659 H 0.41252 0.51234 0.839 0.0
H1660 H 0.37007 0.59991 0.6973 0.0
H1661 H 0.31342 0.53375 0.67231 0.0
H1662 H 0.35726 0.62088 0.65834 0.0
H1663 H 0.30139 0.55589 0.63375 0.0
H1664 H 0.3877 0.63509 0.72977 0.0
H1665 H 0.44145 0.58709 0.75622 0.0
H1666 H 0.42344 0.66954 0.72412 0.0
H1667 H 0.47624 0.62231 0.74996 0.0
H1668 H 0.34061 0.66075 0.78284 0.0
H1669 H 0.28554 0.62898 0.71937 0.0
H1670 H 0.43066 0.51797 0.65296 0.0
H1671 H 0.44324 0.6016 0.65473 0.0
Li1672 Li 0.60702 0.99611 0.80557 0.0
Li1673 Li 0.64184 0.01648 0.78352 0.0
Li1674 Li 0.60465 0.99274 0.75703 0.0
Li1675 Li 0.63658 0.9689 0.78406 0.0
C1676 C 0.58644 0.03597 0.77975 0.0
N1677 N 0.54467 0.06092 0.77674 0.0
C1678 C 0.58938 0.06287 0.78478 0.0
C1679 C 0.56231 0.02177 0.77315 0.0
C1680 C 0.56802 0.07512 0.78321 0.0
C1681 C 0.54141 0.03474 0.7717 0.0
C1682 C 0.66147 0.00967 0.83137 0.0
C1683 C 0.70277 0.01712 0.85505 0.0
N1684 N 0.69719 0.03924 0.86669 0.0
C1685 C 0.65611 0.03243 0.84358 0.0
C1686 C 0.68495 1.00189 0.83712 0.0
C1687 C 0.67444 0.04714 0.86137 0.0
C1688 C 0.58283 0.98217 0.85241 0.0
N1689 N 0.58864 1.00128 0.83647 0.0
C1690 C 0.57161 0.03116 0.86439 0.0
C1691 C 0.58359 0.02559 0.84253 0.0
C1692 C 0.5649 0.01173 0.88082 0.0
C1693 C 0.57096 0.98698 0.8747 0.0
H1694 H 0.58773 0.96322 0.8482 0.0
H1695 H 0.58945 0.04107 0.83083 0.0
C1696 C 0.65511 0.06595 0.76841 0.0
N1697 N 0.66534 0.04825 0.78207 0.0
C1698 C 0.66896 0.09033 0.76618 0.0
C1699 C 0.70448 0.07763 0.79086 0.0
C1700 C 0.68978 0.05342 0.79281 0.0
C1701 C 0.69389 0.09654 0.77769 0.0
H1702 H 0.63604 0.06111 0.7592 0.0
H1703 H 0.69793 0.0389 0.80288 0.0
C1704 C 0.58202 0.94601 0.79227 0.0
N1705 N 0.55065 0.91083 0.81668 0.0
C1706 C 0.59224 0.92867 0.80769 0.0
C1707 C 0.5558 0.94527 0.78902 0.0
C1708 C 0.57608 0.91105 0.81989 0.0
C1709 C 0.54027 0.92742 0.80163 0.0
C1710 C 0.66308 0.99989 0.74468 0.0
C1711 C 0.66251 0.01479 0.72363 0.0
C1712 C 0.68629 0.99576 0.75655 0.0
C1713 C 0.68528 0.02543 0.71481 0.0
C1714 C 0.70864 0.00671 0.74714 0.0
N1715 N 0.70768 0.02121 0.72665 0.0
C1716 C 0.59114 0.01767 0.71338 0.0
C1717 C 0.56926 0.97466 0.71052 0.0
C1718 C 0.58066 0.02135 0.68881 0.0
N1719 N 0.58566 0.99454 0.7237 0.0
C1720 C 0.5581 0.97762 0.68583 0.0
C1721 C 0.56398 1.00118 0.67451 0.0
H1722 H 0.60413 0.03325 0.72413 0.0
H1723 H 0.56519 0.95636 0.71892 0.0
C1724 C 0.66521 0.93082 0.80581 0.0
N1725 N 0.6549 0.93909 0.78382 0.0
C1726 C 0.68021 0.91102 0.80495 0.0
C1727 C 0.6736 0.9083 0.75888 0.0
C1728 C 0.65873 0.92807 0.76062 0.0
C1729 C 0.68479 0.89953 0.78121 0.0
H1730 H 0.66225 0.93997 0.8241 0.0
H1731 H 0.65068 0.93508 0.74334 0.0
O1732 O 0.60716 0.0237 0.78113 0.0
O1733 O 0.64383 0.99508 0.81385 0.0
O1734 O 0.59761 0.96341 0.78024 0.0
O1735 O 0.64111 0.99002 0.75418 0.0
H1736 H 0.60792 0.07412 0.79022 0.0
H1737 H 0.55981 1.00102 0.769 0.0
H1738 H 0.57 0.0959 0.78718 0.0
H1739 H 0.5226 0.024 0.76654 0.0
H1740 H 0.72106 0.0114 0.85965 0.0
H1741 H 0.63811 0.03881 0.83914 0.0
H1742 H 0.68945 0.98443 0.82766 0.0
H1743 H 0.67061 0.06486 0.87091 0.0
H1744 H 0.56809 0.05074 0.86865 0.0
H1745 H 0.5664 0.97142 0.88692 0.0
H1746 H 0.66025 0.10425 0.75553 0.0
H1747 H 0.72369 0.08172 0.79999 0.0
H1748 H 0.61245 0.929 0.81045 0.0
H1749 H 0.54748 0.95822 0.77685 0.0
H1750 H 0.58379 0.89764 0.83198 0.0
H1751 H 0.51996 0.92671 0.79939 0.0
H1752 H 0.64471 0.01822 0.71429 0.0
H1753 H 0.68704 0.98458 0.77311 0.0
H1754 H 0.68514 0.03709 0.69858 0.0
H1755 H 0.72675 1.00381 0.75622 0.0
H1756 H 0.58566 0.03988 0.68102 0.0
H1757 H 0.5456 0.9614 0.67543 0.0
H1758 H 0.68887 0.90547 0.82269 0.0
H1759 H 0.67653 0.90013 0.74014 0.0
Li1760 Li 0.77647 0.67022 0.02032 0.0
Li1761 Li 0.7911 0.63387 1.00107 0.0
Li1762 Li 0.77759 0.66783 0.97502 0.0
Li1763 Li 0.74604 0.63553 0.99575 0.0
C1764 C 0.82542 0.69087 0.00901 0.0
N1765 N 0.86384 0.73172 0.02487 0.0
C1766 C 0.84436 0.68806 0.02816 0.0
C1767 C 0.82616 0.71446 0.9978 0.0
C1768 C 0.86357 0.70894 0.03596 0.0
C1769 C 0.8457 0.73487 0.00612 0.0
C1770 C 0.7693 0.61568 0.0441 0.0
C1771 C 0.76336 0.57082 0.05342 0.0
N1772 N 0.77367 0.57801 0.07787 0.0
C1773 C 0.77968 0.62266 0.06935 0.0
C1774 C 0.76094 0.58959 0.03608 0.0
C1775 C 0.7818 0.60332 0.08611 0.0
C1776 C 0.75921 0.68507 0.06486 0.0
N1777 N 0.77784 0.69269 0.04985 0.0
C1778 C 0.79138 0.73177 0.07645 0.0
C1779 C 0.79376 0.71558 0.05512 0.0
C1780 C 0.77218 0.72437 0.092 0.0
C1781 C 0.75598 0.70075 0.08621 0.0
H1782 H 0.74656 0.66696 0.05988 0.0
H1783 H 0.80784 0.72179 0.04265 0.0
C1784 C 0.82082 0.59412 0.98909 0.0
N1785 N 0.81493 0.61152 0.00701 0.0
C1786 C 0.83965 0.57932 0.99519 0.0
C1787 C 0.8455 0.60024 0.03814 0.0
C1788 C 0.8269 0.61483 0.0311 0.0
C1789 C 0.85228 0.58248 0.01996 0.0
H1790 H 0.81163 0.5922 0.96991 0.0
H1791 H 0.82235 0.62928 0.04475 0.0
C1792 C 0.73744 0.69258 0.00568 0.0
N1793 N 0.71623 0.73061 0.03084 0.0
C1794 C 0.71432 0.68624 0.01578 0.0
C1795 C 0.74965 0.7183 0.00811 0.0
C1796 C 0.70393 0.70574 0.02849 0.0
C1797 C 0.73866 0.73723 0.02097 0.0
C1798 C 0.76905 0.60821 0.95219 0.0
C1799 C 0.78265 0.61096 0.93084 0.0
C1800 C 0.75629 0.58386 0.95661 0.0
C1801 C 0.7836 0.58913 0.91443 0.0
C1802 C 0.75768 0.5625 0.93975 0.0
N1803 N 0.77122 0.56555 0.9192 0.0
C1804 C 0.80071 0.68754 0.93193 0.0
C1805 C 0.76497 0.70484 0.94459 0.0
C1806 C 0.80282 0.70412 0.91219 0.0
N1807 N 0.78168 0.688 0.94726 0.0
C1808 C 0.76706 0.72241 0.92609 0.0
C1809 C 0.7857 0.72177 0.90912 0.0
H1810 H 0.81405 0.67423 0.93491 0.0
H1811 H 0.74991 0.70466 0.95681 0.0
C1812 C 0.7041 0.61239 0.01692 0.0
N1813 N 0.71344 0.61639 0.99412 0.0
C1814 C 0.67973 0.59915 0.01765 0.0
C1815 C 0.67517 0.594 0.97133 0.0
C1816 C 0.6997 0.60748 0.97151 0.0
C1817 C 0.66489 0.59002 0.99466 0.0
H1818 H 0.71544 0.62001 0.03456 0.0
H1819 H 0.70774 0.611 0.95368 0.0
O1820 O 0.80666 0.67048 1.00088 0.0
O1821 O 0.7672 0.63437 0.02742 0.0
O1822 O 0.7482 0.67364 0.99372 0.0
O1823 O 0.76789 0.62939 0.96835 0.0
H1824 H 0.84426 0.67001 0.037 0.0
H1825 H 0.81164 0.71723 0.98318 0.0
H1826 H 0.87829 0.70703 0.05081 0.0
H1827 H 0.84639 0.75326 0.99774 0.0
H1828 H 0.75703 0.55053 0.04745 0.0
H1829 H 0.78636 0.64277 0.07585 0.0
H1830 H 0.75271 0.58389 0.0167 0.0
H1831 H 0.78995 0.60843 0.10566 0.0
H1832 H 0.80419 0.74994 0.08065 0.0
H1833 H 0.74128 0.69434 0.09825 0.0
H1834 H 0.845 0.56643 0.9804 0.0
H1835 H 0.85504 0.60336 0.05737 0.0
H1836 H 0.70456 0.66648 0.01395 0.0
H1837 H 0.76769 0.72349 1.0006 0.0
H1838 H 0.68611 0.70109 0.03655 0.0
H1839 H 0.74804 0.75716 0.02323 0.0
H1840 H 0.79248 0.6297 0.92707 0.0
H1841 H 0.74534 0.58146 0.97277 0.0
H1842 H 0.79419 0.59093 0.89791 0.0
H1843 H 0.74796 0.54352 0.94297 0.0
H1844 H 0.81712 0.70258 0.89917 0.0
H1845 H 0.75365 0.73589 0.92463 0.0
H1846 H 0.67233 0.59668 0.03598 0.0
H1847 H 0.66435 0.58689 0.95324 0.0
Li1848 Li 0.88834 0.54827 0.75761 0.0
Li1849 Li 0.92631 0.5767 0.78383 0.0
Li1850 Li 0.89172 0.5967 0.7557 0.0
Li1851 Li 0.92154 0.57207 0.7359 0.0
C1852 C 0.87356 0.57175 0.805 0.0
N1853 N 0.84299 0.56471 0.8443 0.0
C1854 C 0.88173 0.56019 0.82676 0.0
C1855 C 0.84993 0.57995 0.80333 0.0
C1856 C 0.86598 0.55673 0.84639 0.0
C1857 C 0.83473 0.57614 0.82336 0.0
C1858 C 0.94019 0.53122 0.74868 0.0
C1859 C 0.98207 0.52508 0.73936 0.0
N1860 N 0.9718 0.50466 0.72242 0.0
C1861 C 0.93001 0.5102 0.73123 0.0
C1862 C 0.96639 0.53879 0.75283 0.0
C1863 C 0.94633 0.49701 0.71812 0.0
C1864 C 0.85259 0.50292 0.7381 0.0
N1865 N 0.86668 0.51557 0.75926 0.0
C1866 C 0.8538 0.48001 0.78412 0.0
C1867 C 0.86759 0.50452 0.78195 0.0
C1868 C 0.83925 0.46643 0.7626 0.0
C1869 C 0.83849 0.47834 0.73941 0.0
H1870 H 0.8527 0.5116 0.72003 0.0
H1871 H 0.8797 0.51437 0.79822 0.0
C1872 C 0.94473 0.59606 0.8364 0.0
N1873 N 0.94586 0.57746 0.81736 0.0
C1874 C 0.95518 0.59389 0.8615 0.0
C1875 C 0.96846 0.55393 0.84699 0.0
C1876 C 0.95764 0.55675 0.82226 0.0
C1877 C 0.96687 0.57233 0.86723 0.0
H1878 H 0.93484 0.6121 0.83236 0.0
H1879 H 0.95774 0.54173 0.80719 0.0
C1880 C 0.86019 0.56655 0.71586 0.0
N1881 N 0.8112 0.56322 0.69346 0.0
C1882 C 0.85563 0.5689 0.68961 0.0
C1883 C 0.83986 0.56246 0.73068 0.0
C1884 C 0.83073 0.56718 0.67865 0.0
C1885 C 0.81522 0.56083 0.71902 0.0
C1886 C 0.94682 0.621 0.74754 0.0
C1887 C 0.93853 0.63195 0.72546 0.0
C1888 C 0.97231 0.62631 0.75714 0.0
C1889 C 0.95605 0.64796 0.71313 0.0
C1890 C 0.98923 0.64246 0.74426 0.0
N1891 N 0.98082 0.65284 0.72269 0.0
C1892 C 0.86855 0.6392 0.77645 0.0
C1893 C 0.8603 0.63053 0.73159 0.0
C1894 C 0.8526 0.65818 0.77613 0.0
N1895 N 0.87177 0.62539 0.75443 0.0
C1896 C 0.84404 0.64911 0.73044 0.0
C1897 C 0.83961 0.66298 0.75295 0.0
H1898 H 0.8779 0.63507 0.79444 0.0
H1899 H 0.86351 0.62002 0.71416 0.0
C1900 C 0.92549 0.55391 0.6841 0.0
N1901 N 0.93955 0.56771 0.70475 0.0
C1902 C 0.93636 0.54863 0.6614 0.0
C1903 C 0.97629 0.57158 0.68126 0.0
C1904 C 0.96466 0.57637 0.70366 0.0
C1905 C 0.96213 0.55762 0.65955 0.0
H1906 H 0.90581 0.54642 0.68541 0.0
H1907 H 0.97592 0.58658 0.72029 0.0
O1908 O 0.88903 0.57594 0.78591 0.0
O1909 O 0.92453 0.54485 0.76104 0.0
O1910 O 0.8845 0.56842 0.72688 0.0
O1911 O 0.92997 0.60532 0.75984 0.0
H1912 H 0.89995 0.55372 0.82842 0.0
H1913 H 0.84341 0.5893 0.78685 0.0
H1914 H 0.87204 0.54771 0.8633 0.0
H1915 H 0.81639 0.58238 0.8223 0.0
H1916 H 1.00239 0.53078 0.74226 0.0
H1917 H 0.90972 0.50432 0.72769 0.0
H1918 H 0.97448 0.55534 0.76598 0.0
H1919 H 0.93875 0.48075 0.70445 0.0
H1920 H 0.85523 0.47138 0.80225 0.0
H1921 H 0.82736 0.46862 0.72238 0.0
H1922 H 0.95376 0.60877 0.87636 0.0
H1923 H 0.97705 0.53689 0.85046 0.0
H1924 H 0.87118 0.57226 0.67788 0.0
H1925 H 0.84305 0.56019 0.75088 0.0
H1926 H 0.82692 0.56905 0.65838 0.0
H1927 H 0.7993 0.55759 0.73027 0.0
H1928 H 0.91881 0.62799 0.71788 0.0
H1929 H 0.97892 0.61794 0.77427 0.0
H1930 H 0.94992 0.65647 0.69596 0.0
H1931 H 0.00906 0.64669 0.75137 0.0
H1932 H 0.84986 0.66844 0.79396 0.0
H1933 H 0.83497 0.65255 0.71205 0.0
H1934 H 0.92473 0.53704 0.64566 0.0
H1935 H 0.99623 0.57881 0.68096 0.0
Li1936 Li 0.72813 0.37908 0.5533 0.0
Li1937 Li 0.7042 0.41257 0.53076 0.0
Li1938 Li 0.72329 0.37674 0.50398 0.0
Li1939 Li 0.75042 0.41252 0.5293 0.0
C1940 C 0.67882 0.35564 0.53893 0.0
N1941 N 0.64512 0.32094 0.56125 0.0
C1942 C 0.6611 0.36462 0.55372 0.0
C1943 C 0.67934 0.32907 0.5353 0.0
C1944 C 0.64423 0.34674 0.56489 0.0
C1945 C 0.66216 0.31182 0.54681 0.0
C1946 C 0.74798 0.43768 0.57244 0.0
C1947 C 0.76388 0.48343 0.57945 0.0
N1948 N 0.78313 0.47821 0.59589 0.0
C1949 C 0.76789 0.43274 0.58939 0.0
C1950 C 0.74592 0.46319 0.56736 0.0
C1951 C 0.78548 0.45352 0.60106 0.0
C1952 C 0.756 0.35432 0.59141 0.0
N1953 N 0.7326 0.3606 0.58519 0.0
C1954 C 0.7188 0.34358 0.62407 0.0
C1955 C 0.7142 0.35575 0.60133 0.0
C1956 C 0.74252 0.33609 0.63037 0.0
C1957 C 0.76124 0.34179 0.61364 0.0
H1958 H 0.77082 0.3591 0.57909 0.0
H1959 H 0.69595 0.36149 0.59679 0.0
C1960 C 0.65903 0.43308 0.51122 0.0
N1961 N 0.6763 0.43339 0.53191 0.0
C1962 C 0.63988 0.44873 0.51174 0.0
C1963 C 0.65626 0.46465 0.55488 0.0
C1964 C 0.67496 0.44862 0.55361 0.0
C1965 C 0.63848 0.4652 0.53366 0.0
H1966 H 0.66028 0.42091 0.4941 0.0
H1967 H 0.68858 0.44851 0.57 0.0
C1968 C 0.76285 0.35386 0.52135 0.0
N1969 N 0.78217 0.30987 0.50652 0.0
C1970 C 0.78146 0.35519 0.50433 0.0
C1971 C 0.75387 0.33013 0.53062 0.0
C1972 C 0.791 0.33272 0.49707 0.0
C1973 C 0.76398 0.30813 0.52301 0.0
C1974 C 0.73531 0.43295 0.48601 0.0
C1975 C 0.7551 0.42776 0.47193 0.0
C1976 C 0.7268 0.45683 0.48503 0.0
C1977 C 0.76619 0.44671 0.45714 0.0
C1978 C 0.73837 0.47526 0.46996 0.0
N1979 N 0.75767 0.46987 0.45647 0.0
C1980 C 0.71833 0.36992 0.4487 0.0
C1981 C 0.72528 0.33157 0.46749 0.0
C1982 C 0.72142 0.35883 0.42434 0.0
N1983 N 0.72117 0.35665 0.46997 0.0
C1984 C 0.72868 0.31979 0.4435 0.0
C1985 C 0.72747 0.33367 0.42151 0.0
H1986 H 0.71444 0.38955 0.45061 0.0
H1987 H 0.72662 0.32075 0.48416 0.0
C1988 C 0.80379 0.42096 0.53478 0.0
N1989 N 0.78382 0.43354 0.52925 0.0
C1990 C 0.82856 0.43306 0.53306 0.0
C1991 C 0.81221 0.47148 0.5211 0.0
C1992 C 0.78767 0.45865 0.52316 0.0
C1993 C 0.83304 0.45849 0.52563 0.0
H1994 H 0.80049 0.40128 0.5402 0.0
H1995 H 0.77173 0.46867 0.5195 0.0
O1996 O 0.69553 0.37284 0.52798 0.0
O1997 O 0.73102 0.41759 0.56026 0.0
O1998 O 0.75346 0.37569 0.52879 0.0
O1999 O 0.72412 0.41466 0.50051 0.0
H2000 H 0.66051 0.38517 0.55666 0.0
H2001 H 0.69287 0.32187 0.52373 0.0
H2002 H 0.63046 0.35338 0.57649 0.0
H2003 H 0.66236 0.29118 0.54425 0.0
H2004 H 0.76261 0.50327 0.57562 0.0
H2005 H 0.76984 0.41306 0.5933 0.0
H2006 H 0.73087 0.46727 0.55391 0.0
H2007 H 0.80105 0.45 0.61418 0.0
H2008 H 0.7038 0.33969 0.63641 0.0
H2009 H 0.77994 0.3368 0.61784 0.0
H2010 H 0.62669 0.44845 0.49488 0.0
H2011 H 0.65574 0.47652 0.57241 0.0
H2012 H 0.78837 0.37337 0.49675 0.0
H2013 H 0.73899 0.32859 0.54325 0.0
H2014 H 0.8054 0.33345 0.48391 0.0
H2015 H 0.75721 0.28964 0.53005 0.0
H2016 H 0.76195 0.40938 0.47265 0.0
H2017 H 0.71149 0.46108 0.49585 0.0
H2018 H 0.78161 0.44305 0.44625 0.0
H2019 H 0.73203 0.49386 0.46903 0.0
H2020 H 0.72002 0.37028 0.408 0.0
H2021 H 0.73249 0.30004 0.44225 0.0
H2022 H 0.84404 0.42235 0.53691 0.0
H2023 H 0.81483 0.49136 0.51602 0.0
Li2024 Li 0.64147 0.51026 0.31561 0.0
Li2025 Li 0.67343 0.53923 0.29359 0.0
Li2026 Li 0.63967 0.50747 0.27023 0.0
Li2027 Li 0.6725 0.48837 0.29294 0.0
C2028 C 0.61513 0.54708 0.28573 0.0
N2029 N 0.57105 0.56486 0.26941 0.0
C2030 C 0.61591 0.5727 0.27949 0.0
C2031 C 0.59193 0.53061 0.28399 0.0
C2032 C 0.59343 0.5813 0.2712 0.0
C2033 C 0.56985 0.53992 0.27561 0.0
C2034 C 0.68142 0.51902 0.34858 0.0
C2035 C 0.68465 0.50058 0.38928 0.0
N2036 N 0.68181 0.52369 0.40116 0.0
C2037 C 0.67859 0.5426 0.36114 0.0
C2038 C 0.68449 0.49782 0.36268 0.0
C2039 C 0.67882 0.54456 0.38776 0.0
C2040 C 0.61783 0.48942 0.3587 0.0
N2041 N 0.62179 0.51021 0.34449 0.0
C2042 C 0.59643 0.53321 0.36999 0.0
C2043 C 0.61157 0.5319 0.3499 0.0
C2044 C 0.59207 0.51221 0.38522 0.0
C2045 C 0.60316 0.49011 0.37943 0.0
H2046 H 0.62625 0.47241 0.35409 0.0
H2047 H 0.61519 0.54832 0.33861 0.0
C2048 C 0.68497 0.58632 0.27192 0.0
N2049 N 0.69225 0.57367 0.29239 0.0
C2050 C 0.69621 0.61171 0.26913 0.0
C2051 C 0.72235 0.61109 0.30876 0.0
C2052 C 0.71057 0.58552 0.31076 0.0
C2053 C 0.71531 0.62446 0.28759 0.0
H2054 H 0.67006 0.57673 0.25782 0.0
H2055 H 0.71594 0.57523 0.32703 0.0
C2056 C 0.61821 0.45711 0.28473 0.0
N2057 N 0.58274 0.41382 0.26858 0.0
C2058 C 0.62488 0.43667 0.26968 0.0
C2059 C 0.59368 0.4552 0.29213 0.0
C2060 C 0.60663 0.41504 0.26156 0.0
C2061 C 0.57597 0.43325 0.28361 0.0
C2062 C 0.67637 0.50879 0.23933 0.0
C2063 C 0.66709 0.48433 0.22696 0.0
C2064 C 0.6852 0.52922 0.22502 0.0
C2065 C 0.6662 0.48085 0.20035 0.0
C2066 C 0.68404 0.52496 0.19844 0.0
N2067 N 0.67459 0.50109 0.18674 0.0
C2068 C 0.62124 0.52813 0.22683 0.0
C2069 C 0.60163 0.48458 0.22802 0.0
C2070 C 0.60755 0.53007 0.20352 0.0
N2071 N 0.61813 0.5057 0.23865 0.0
C2072 C 0.58758 0.48562 0.20452 0.0
C2073 C 0.59056 0.50862 0.19203 0.0
H2074 H 0.63464 0.54455 0.2355 0.0
H2075 H 0.59937 0.46688 0.23749 0.0
C2076 C 0.68705 0.4404 0.30663 0.0
N2077 N 0.69162 0.46012 0.29122 0.0
C2078 C 0.69923 0.41866 0.30404 0.0
C2079 C 0.72037 0.43772 0.26958 0.0
C2080 C 0.70803 0.4592 0.27302 0.0
C2081 C 0.71592 0.417 0.28509 0.0
H2082 H 0.67356 0.44132 0.32062 0.0
H2083 H 0.71132 0.47504 0.26093 0.0
O2084 O 0.637 0.53816 0.29345 0.0
O2085 O 0.68045 0.51651 0.32252 0.0
O2086 O 0.63585 0.47841 0.29298 0.0
O2087 O 0.67664 0.51272 0.26531 0.0
H2088 H 0.63366 0.58583 0.28109 0.0
H2089 H 0.59105 0.51079 0.28876 0.0
H2090 H 0.59376 0.60106 0.26621 0.0
H2091 H 0.55178 0.5273 0.27399 0.0
H2092 H 0.68695 0.48433 0.40047 0.0
H2093 H 0.67589 0.55907 0.35039 0.0
H2094 H 0.68657 0.47942 0.35317 0.0
H2095 H 0.67651 0.56264 0.39775 0.0
H2096 H 0.58823 0.55061 0.37356 0.0
H2097 H 0.60098 0.47374 0.39102 0.0
H2098 H 0.68967 0.62143 0.25287 0.0
H2099 H 0.73691 0.62025 0.32349 0.0
H2100 H 0.64392 0.43743 0.26433 0.0
H2101 H 0.58838 0.47037 0.3045 0.0
H2102 H 0.61148 0.39918 0.24974 0.0
H2103 H 0.55688 0.4316 0.28905 0.0
H2104 H 0.66028 0.46833 0.23777 0.0
H2105 H 0.69291 0.54813 0.2343 0.0
H2106 H 0.65878 0.46208 0.19051 0.0
H2107 H 0.69067 0.54065 0.1871 0.0
H2108 H 0.61052 0.54808 0.19435 0.0
H2109 H 0.5744 0.46875 0.19633 0.0
H2110 H 0.69529 0.40308 0.31638 0.0
H2111 H 0.73345 0.43742 0.25507 0.0
Tb2112 Tb 0.02819 0.06388 0.01983 0.0
C2113 C 0.02899 0.02377 0.97091 0.0
Tb2114 Tb 1.00318 0.00684 0.02012 0.0
O2115 O 0.06385 0.057 0.04047 0.0
O2116 O 0.04014 0.02727 0.0192 0.0
O2117 O 0.03135 0.04819 0.98075 0.0
C2118 C 1.00079 0.96108 0.04042 0.0
O2119 O 0.01987 1.00375 0.9836 0.0
C2120 C 0.97173 0.0392 0.00566 0.0
C2121 C 1.00298 0.04695 0.06933 0.0
O2122 O 0.98643 0.96547 0.02031 0.0
O2123 O 0.01605 0.98219 0.04833 0.0
O2124 O 0.96743 0.0142 0.99938 0.0
O2125 O 0.99141 0.0434 0.02116 0.0
O2126 O 0.9997 0.02258 0.05917 0.0
O2127 O 0.01276 0.06691 0.05698 0.0
C2128 C 0.03116 0.11031 1.00091 0.0
O2129 O 0.04618 0.10473 0.01993 0.0
O2130 O 0.01479 0.08993 0.99304 0.0
C2131 C 0.05951 0.03189 0.03514 0.0
Tb2132 Tb 0.27058 0.81416 0.27849 0.0
C2133 C 0.31877 0.78456 0.27455 0.0
Tb2134 Tb 0.26202 0.75723 0.2617 0.0
O2135 O 0.26076 0.80669 0.31741 0.0
O2136 O 0.27675 0.78002 0.29597 0.0
O2137 O 0.3098 0.8069 0.27646 0.0
C2138 C 0.24539 0.70722 0.26684 0.0
O2139 O 0.3033 0.76195 0.27049 0.0
C2140 C 0.26557 0.78796 0.22358 0.0
C2141 C 0.2138 0.78702 0.26498 0.0
O2142 O 0.25471 0.71621 0.24657 0.0
O2143 O 0.24557 0.72635 0.28378 0.0
O2144 O 0.27204 0.76489 0.22283 0.0
O2145 O 0.2558 0.79133 0.24425 0.0
O2146 O 0.22262 0.76458 0.26295 0.0
O2147 O 0.22941 0.8095 0.26954 0.0
C2148 C 0.28763 0.86438 0.27468 0.0
O2149 O 0.27702 0.85496 0.2941 0.0
O2150 O 0.28822 0.84557 0.25759 0.0
C2151 C 0.26696 0.78353 0.31661 0.0
Tb2152 Tb 0.54127 0.03916 0.51473 0.0
C2153 C 0.52712 0.01977 0.56964 0.0
Tb2154 Tb 0.48767 0.02914 0.52518 0.0
O2155 O 0.54355 0.08113 0.51855 0.0
O2156 O 0.51909 0.05747 0.53919 0.0
O2157 O 0.54461 0.02585 0.5537 0.0
C2158 C 0.44064 0.03606 0.531 0.0
O2159 O 0.50285 0.02066 0.56304 0.0
C2160 C 0.50476 0.98864 0.5057 0.0
C2161 C 0.50199 0.05112 0.4719 0.0
O2162 O 0.4469 0.01745 0.51667 0.0
O2163 O 0.46085 0.0503 0.54237 0.0
O2164 O 0.48772 0.98719 0.52187 0.0
O2165 O 0.50973 0.01173 0.50007 0.0
O2166 O 0.48587 0.04947 0.48973 0.0
O2167 O 0.52494 0.04488 0.47642 0.0
C2168 C 0.58538 0.02405 0.51011 0.0
O2169 O 0.58142 0.04788 0.50871 0.0
O2170 O 0.56463 0.00928 0.51361 0.0
C2171 C 0.52523 0.08042 0.53328 0.0
Tb2172 Tb 0.273 0.28986 0.79804 0.0
C2173 C 0.28116 0.33447 0.7597 0.0
Tb2174 Tb 0.25856 0.27659 0.73822 0.0
O2175 O 0.31381 0.28731 0.79865 0.0
O2176 O 0.29039 0.28148 0.76528 0.0
O2177 O 0.27828 0.32823 0.78349 0.0
C2178 C 0.2636 0.26009 0.69104 0.0
O2179 O 0.27703 0.31701 0.73958 0.0
C2180 C 0.21896 0.28508 0.76282 0.0
C2181 C 0.24983 0.23203 0.77662 0.0
O2182 O 0.25412 0.28077 0.69729 0.0
O2183 O 0.26996 0.24875 0.71126 0.0
O2184 O 0.21777 0.28017 0.7381 0.0
O2185 O 0.24156 0.28485 0.77099 0.0
O2186 O 0.25239 0.23806 0.75266 0.0
O2187 O 0.25444 0.24957 0.79665 0.0
C2188 C 0.26725 0.30796 0.84442 0.0
O2189 O 0.2761 0.28662 0.8392 0.0
O2190 O 0.26167 0.31877 0.82367 0.0
C2191 C 0.31309 0.28218 0.77399 0.0
Tb2192 Tb 0.00876 0.02949 0.48698 0.0
C2193 C 0.97147 0.01969 0.52968 0.0
Tb2194 Tb 0.03003 0.0336 0.54593 0.0
O2195 O 0.9964 0.98784 0.48717 0.0
O2196 O 0.02632 0.00699 0.51298 0.0
O2197 O 0.97453 0.02761 0.50648 0.0
C2198 C 0.05048 0.0241 0.59138 0.0
O2199 O 0.99048 0.01815 0.54712 0.0
C2200 C 0.01944 0.07805 0.52982 0.0
C2201 C 0.06784 0.04187 0.50353 0.0
O2202 O 0.02881 0.01227 0.58033 0.0
O2203 O 0.06032 0.04125 0.57692 0.0
O2204 O 0.02715 0.07551 0.55349 0.0
O2205 O 0.01763 0.05618 0.51843 0.0
O2206 O 0.06416 0.03431 0.52669 0.0
O2207 O 0.04903 0.043 0.48561 0.0
C2208 C 0.99238 0.0414 0.44097 0.0
O2209 O 0.00675 0.02392 0.44531 0.0
O2210 O 0.98736 0.05205 0.46251 0.0
C2211 C 0.01179 0.98579 0.5072 0.0
Tb2212 Tb 0.29311 0.78715 0.77915 0.0
C2213 C 0.25378 0.79582 0.81917 0.0
Tb2214 Tb 0.23683 0.77793 0.76035 0.0
O2215 O 0.29457 0.82869 0.78854 0.0
O2216 O 0.26729 0.80864 0.76084 0.0
O2217 O 0.27687 0.79098 0.81564 0.0
C2218 C 0.19092 0.78394 0.74195 0.0
O2219 O 0.23554 0.79353 0.79995 0.0
C2220 C 0.25623 0.73531 0.76551 0.0
C2221 C 0.2761 0.76936 0.72024 0.0
O2222 O 0.19573 0.76955 0.76044 0.0
O2223 O 0.21184 0.79482 0.73411 0.0
O2224 O 0.23545 0.73626 0.75129 0.0
O2225 O 0.2626 0.75668 0.77877 0.0
O2226 O 0.25296 0.77401 0.72382 0.0
O2227 O 0.29446 0.77195 0.73938 0.0
C2228 C 0.33868 0.7802 0.79786 0.0
O2229 O 0.33431 0.79527 0.77983 0.0
O2230 O 0.31751 0.76917 0.80505 0.0
C2231 C 0.2738 0.82988 0.77438 0.0
Tb2232 Tb 0.48542 0.02706 0.01136 0.0
C2233 C 0.52092 0.98436 0.0196 0.0
Tb2234 Tb 0.54115 0.04407 0.02739 0.0
O2235 O 0.48967 0.03479 0.9713 0.0
O2236 O 0.51942 0.02482 0.99402 0.0
O2237 O 0.49752 0.98974 0.01774 0.0
C2238 C 0.58993 0.06351 0.02509 0.0
O2239 O 0.54114 1.00258 0.02096 0.0
C2240 C 0.51255 0.03811 0.06603 0.0
C2241 C 0.50577 0.08675 0.01889 0.0
O2242 O 0.58017 0.0554 0.04541 0.0
O2243 O 0.5722 0.06076 0.0063 0.0
O2244 O 0.53623 0.03511 0.06715 0.0
O2245 O 0.50705 0.04638 0.0446 0.0
O2246 O 0.52917 0.0813 0.01974 0.0
O2247 O 0.48592 0.06834 0.01897 0.0
C2248 C 0.43681 0.00709 0.01344 0.0
O2249 O 0.44516 0.02323 0.99725 0.0
O2250 O 0.45582 1.00206 0.02815 0.0
C2251 C 0.51354 0.03266 0.97248 0.0
Tb2252 Tb 0.23854 0.27187 0.27331 0.0
C2253 C 0.28257 0.28199 0.31921 0.0
Tb2254 Tb 0.29235 0.30079 0.26596 0.0
O2255 O 0.2465 0.23156 0.26883 0.0
O2256 O 0.27406 0.26294 0.2675 0.0
O2257 O 0.25795 0.27871 0.31182 0.0
C2258 C 0.33549 0.31491 0.24614 0.0
O2259 O 0.30024 0.28865 0.30381 0.0
C2260 C 0.25903 0.33011 0.27986 0.0
C2261 C 0.25148 0.2826 0.21856 0.0
O2262 O 0.33237 0.29887 0.26381 0.0
O2263 O 0.31457 0.32369 0.24051 0.0
O2264 O 0.28336 0.33618 0.28583 0.0
O2265 O 0.25513 0.30955 0.26533 0.0
O2266 O 0.27564 0.28506 0.22777 0.0
O2267 O 0.23278 0.27934 0.23347 0.0
C2268 C 0.19421 0.26971 0.29137 0.0
O2269 O 0.19963 0.25257 0.2745 0.0
O2270 O 0.21349 0.28772 0.29774 0.0
C2271 C 0.27043 0.23858 0.26627 0.0
Tb2272 Tb 0.50346 0.53007 0.98872 0.0
C2273 C 0.46396 0.52248 0.03077 0.0
Tb2274 Tb 0.52309 0.53618 0.04776 0.0
O2275 O 0.51545 0.49184 0.98482 0.0
O2276 O 0.50626 0.50666 0.01946 0.0
O2277 O 0.46778 0.52452 0.00623 0.0
C2278 C 0.54078 0.52379 0.09322 0.0
O2279 O 0.48263 0.52513 0.04961 0.0
C2280 C 0.5208 0.58147 0.02889 0.0
C2281 C 0.56144 0.54583 0.00616 0.0
O2282 O 0.52645 0.54138 0.08944 0.0
O2283 O 0.54517 0.51321 0.07135 0.0
O2284 O 0.52807 0.57908 0.05275 0.0
O2285 O 0.51523 0.55899 0.01824 0.0
O2286 O 0.55778 0.53721 0.02896 0.0
O2287 O 0.54261 0.54812 0.98877 0.0
C2288 C 0.48134 0.53586 0.94263 0.0
O2289 O 0.49889 0.52179 0.94721 0.0
O2290 O 0.4762 0.54667 0.96402 0.0
C2291 C 0.51577 0.48877 0.00912 0.0
Tb2292 Tb 0.79119 0.28773 0.28132 0.0
C2293 C 0.75077 0.29428 0.32015 0.0
Tb2294 Tb 0.73636 0.27908 0.26026 0.0
O2295 O 0.79102 0.32864 0.29237 0.0
O2296 O 0.76695 0.30975 0.26137 0.0
O2297 O 0.77407 0.28983 0.31732 0.0
C2298 C 0.68945 0.28367 0.2437 0.0
O2299 O 0.73339 0.2928 0.30023 0.0
C2300 C 0.75587 0.23646 0.26538 0.0
C2301 C 0.77648 0.2717 0.2216 0.0
O2302 O 0.69584 0.26441 0.25569 0.0
O2303 O 0.70938 0.30029 0.24128 0.0
O2304 O 0.73743 0.23851 0.24837 0.0
O2305 O 0.76066 0.25705 0.28007 0.0
O2306 O 0.75355 0.2776 0.22411 0.0
O2307 O 0.79346 0.27235 0.24177 0.0
C2308 C 0.83693 0.28149 0.30021 0.0
O2309 O 0.83249 0.2962 0.2819 0.0
O2310 O 0.81585 0.27056 0.30748 0.0
C2311 C 0.77212 0.33046 0.27584 0.0
Tb2312 Tb 0.98613 0.52413 0.51222 0.0
C2313 C 0.02206 0.48185 0.52159 0.0
Tb2314 Tb 0.04164 0.5418 0.52871 0.0
O2315 O 0.99116 0.53205 0.47225 0.0
O2316 O 0.02049 0.52185 0.49546 0.0
O2317 O 0.99858 0.48714 0.51986 0.0
C2318 C 0.0904 0.56195 0.52725 0.0
O2319 O 0.04196 0.5004 0.52241 0.0
C2320 C 0.0128 0.53663 0.56717 0.0
C2321 C 1.00588 0.58407 0.51887 0.0
O2322 O 0.08096 0.5507 0.54633 0.0
O2323 O 0.07233 0.56193 0.5092 0.0
O2324 O 0.03656 0.53401 0.56867 0.0
O2325 O 0.00732 0.54428 0.54543 0.0
O2326 O 0.02934 0.57872 0.52054 0.0
O2327 O 0.98596 0.56558 0.51828 0.0
C2328 C 0.9375 0.50372 0.51462 0.0
O2329 O 0.94631 0.51591 0.49576 0.0
O2330 O 0.95614 0.50288 0.53181 0.0
C2331 C 0.01508 0.53008 0.47403 0.0
Tb2332 Tb 0.77457 0.79117 0.29826 0.0
C2333 C 0.77975 0.8377 0.26212 0.0
Tb2334 Tb 0.75959 0.77982 0.24008 0.0
O2335 O 0.81455 0.78452 0.29904 0.0
O2336 O 0.79129 0.78116 0.26589 0.0
O2337 O 0.77756 0.83048 0.28571 0.0
C2338 C 0.76366 0.7704 0.19118 0.0
O2339 O 0.77543 0.82094 0.24153 0.0
C2340 C 0.72174 0.78293 0.26805 0.0
C2341 C 0.75481 0.73322 0.27563 0.0
O2342 O 0.74595 0.78178 0.20005 0.0
O2343 O 0.77855 0.76428 0.2097 0.0
O2344 O 0.71978 0.76912 0.24627 0.0
O2345 O 0.7437 0.79612 0.27182 0.0
O2346 O 0.75732 0.74058 0.25219 0.0
O2347 O 0.75838 0.75001 0.2962 0.0
C2348 C 0.77204 0.80401 0.34704 0.0
O2349 O 0.75591 0.78656 0.33307 0.0
O2350 O 0.78963 0.8139 0.33359 0.0
C2351 C 0.81361 0.78001 0.27437 0.0
Tb2352 Tb 0.77116 0.31117 0.77728 0.0
C2353 C 0.8182 0.27905 0.77744 0.0
Tb2354 Tb 0.76099 0.25111 0.76239 0.0
O2355 O 0.76015 0.30497 0.8162 0.0
O2356 O 0.77428 0.27658 0.79547 0.0
O2357 O 0.81008 0.30195 0.77955 0.0
C2358 C 0.74425 0.20181 0.76963 0.0
O2359 O 0.80234 0.25672 0.77175 0.0
C2360 C 0.75972 0.27812 0.72104 0.0
C2361 C 0.71489 0.28352 0.76167 0.0
O2362 O 0.76175 0.20944 0.75487 0.0
O2363 O 0.73666 0.22191 0.78034 0.0
O2364 O 0.75764 0.25291 0.72006 0.0
O2365 O 0.76299 0.28553 0.74449 0.0
O2366 O 0.72293 0.261 0.76481 0.0
O2367 O 0.73083 0.30586 0.76329 0.0
C2368 C 0.79006 0.36059 0.7718 0.0
O2369 O 0.77696 0.35272 0.7903 0.0
O2370 O 0.79212 0.34068 0.75662 0.0
C2371 C 0.76461 0.2811 0.81594 0.0
Tb2372 Tb 0.73588 0.76866 0.76796 0.0
C2373 C 0.77625 0.77543 0.81707 0.0
Tb2374 Tb 0.79179 0.79663 0.7659 0.0
O2375 O 0.74256 0.72885 0.75566 0.0
O2376 O 0.77037 0.76004 0.75794 0.0
O2377 O 0.7523 0.77341 0.80737 0.0
C2378 C 0.83958 0.80745 0.75549 0.0
O2379 O 0.79572 0.78405 0.80438 0.0
C2380 C 0.75809 0.82748 0.77361 0.0
C2381 C 0.75234 0.78793 0.7173 0.0
O2382 O 0.83064 0.78873 0.7687 0.0
O2383 O 0.82182 0.82076 0.74941 0.0
O2384 O 0.7796 0.83472 0.76477 0.0
O2385 O 0.75817 0.80505 0.78104 0.0
O2386 O 0.77582 0.7862 0.72643 0.0
O2387 O 0.73297 0.78439 0.73124 0.0
C2388 C 0.68956 0.75862 0.7821 0.0
O2389 O 0.6973 0.77724 0.76806 0.0
O2390 O 0.70754 0.74516 0.78677 0.0
C2391 C 0.76658 0.73584 0.75384 0.0
Tb2392 Tb 0.5294 0.56711 0.5194 0.0
C2393 C 0.53468 0.52529 0.47324 0.0
Tb2394 Tb 0.50534 0.50616 0.51996 0.0
O2395 O 0.56895 0.56171 0.53157 0.0
O2396 O 0.53968 0.53154 0.52738 0.0
O2397 O 0.53563 0.54993 0.48201 0.0
C2398 C 0.50582 0.4609 0.54022 0.0
O2399 O 0.52457 0.50501 0.48508 0.0
C2400 C 0.47111 0.53664 0.50718 0.0
C2401 C 0.49975 0.54773 0.56598 0.0
O2402 O 0.49349 0.46377 0.51828 0.0
O2403 O 0.51774 0.48326 0.54998 0.0
O2404 O 0.46572 0.51143 0.50758 0.0
O2405 O 0.49482 0.54185 0.51211 0.0
O2406 O 0.49839 0.5231 0.5571 0.0
O2407 O 0.51087 0.56804 0.55486 0.0
C2408 C 0.53042 0.61297 0.5 0.0
O2409 O 0.54237 0.6093 0.52186 0.0
O2410 O 0.51792 0.59105 0.4897 0.0
C2411 C 0.56333 0.5366 0.53235 0.0
Tb2412 Tb 0.0436 0.53967 0.01422 0.0
C2413 C 0.03004 0.51837 0.06853 0.0
Tb2414 Tb 0.98986 0.529 0.0255 0.0
O2415 O 0.04398 0.58152 0.01822 0.0
O2416 O 0.02159 0.55668 0.03973 0.0
O2417 O 0.04677 0.52201 0.05132 0.0
C2418 C 0.9447 0.5406 0.03274 0.0
O2419 O 1.00629 0.52214 0.06335 0.0
C2420 C 0.00717 0.48891 0.00595 0.0
C2421 C 1.00323 0.5507 0.97135 0.0
O2422 O 0.94916 0.51725 0.02727 0.0
O2423 O 0.96551 0.55686 0.03431 0.0
O2424 O 0.98917 0.48702 0.02105 0.0
O2425 O 0.01197 0.51199 1.00025 0.0
O2426 O 0.98633 0.54563 0.98811 0.0
O2427 O 0.02729 0.5479 0.97663 0.0
C2428 C 0.08925 0.52945 0.00663 0.0
O2429 O 0.08463 0.55119 0.01705 0.0
O2430 O 0.06818 0.51399 0.99998 0.0
C2431 C 0.02683 0.57989 0.03432 0.0
C2432 C 0.01271 0.16095 0.95784 0.0
C2433 C 0.03364 0.181 0.96165 0.0
C2434 C 0.01206 0.13855 0.9711 0.0
C2435 C 0.03224 0.13521 0.98886 0.0
H2436 H 0.9966 0.16253 0.94445 0.0
H2437 H 0.99558 0.12362 0.9672 0.0
S2438 S 0.09158 0.18161 0.00598 0.0
N2439 N 0.07528 0.19583 0.98452 0.0
N2440 N 0.07371 0.15381 0.00982 0.0
C2441 C 0.05312 0.15518 0.99332 0.0
C2442 C 0.05389 0.17804 0.97965 0.0
C2443 C 0.14589 0.76464 0.2349 0.0
C2444 C 0.13442 0.78711 0.23709 0.0
C2445 C 0.17109 0.76459 0.24479 0.0
C2446 C 0.18624 0.78705 0.25728 0.0
H2447 H 0.13556 0.747 0.22478 0.0
H2448 H 0.17892 0.74686 0.24187 0.0
S2449 S 0.16507 0.8506 0.26991 0.0
N2450 N 0.14 0.83211 0.25438 0.0
N2451 N 0.18738 0.83217 0.27226 0.0
C2452 C 0.17492 0.80952 0.26011 0.0
C2453 C 0.14913 0.80953 0.25019 0.0
C2454 C 0.50671 0.91895 0.48163 0.0
C2455 C 0.52176 0.92161 0.46106 0.0
C2456 C 0.50178 0.94069 0.49628 0.0
C2457 C 0.51151 0.966 0.49082 0.0
H2458 H 0.4986 0.89985 0.48642 0.0
H2459 H 0.48996 0.93761 0.51178 0.0
S2460 S 0.55158 0.98367 0.43864 0.0
N2461 N 0.54622 0.95166 0.43591 0.0
N2462 N 0.53678 0.99245 0.46316 0.0
C2463 C 0.52671 0.96896 0.47039 0.0
C2464 C 0.5319 0.94681 0.45561 0.0
C2465 C 0.35596 0.2764 0.71995 0.0
C2466 C 0.37962 0.27472 0.7333 0.0
C2467 C 0.3343 0.27833 0.73295 0.0
C2468 C 0.33546 0.27884 0.75984 0.0
H2469 H 0.35414 0.27612 0.69927 0.0
H2470 H 0.31667 0.27985 0.72191 0.0
S2471 S 0.39285 0.27622 0.80391 0.0
N2472 N 0.40273 0.27467 0.77512 0.0
N2473 N 0.36239 0.27794 0.79929 0.0
C2474 C 0.35897 0.2773 0.77333 0.0
C2475 C 0.38089 0.2753 0.76017 0.0
C2476 C 0.98923 0.9198 0.52895 0.0
C2477 C 0.00892 0.91621 0.54717 0.0
C2478 C 0.99036 0.94251 0.51627 0.0
C2479 C 0.01121 0.96245 0.52134 0.0
H2480 H 0.97299 0.90473 0.52409 0.0
H2481 H 0.97478 0.94439 0.50233 0.0
S2482 S 0.06741 0.96309 0.5678 0.0
N2483 N 0.04948 0.93501 0.57038 0.0
N2484 N 0.05198 0.97739 0.54574 0.0
C2485 C 0.03095 0.95932 0.53962 0.0
C2486 C 0.02974 0.93623 0.55271 0.0
C2487 C 0.38773 0.75928 0.84393 0.0
C2488 C 0.41055 0.77217 0.83666 0.0
C2489 C 0.36462 0.76158 0.83072 0.0
C2490 C 0.36352 0.77695 0.80987 0.0
H2491 H 0.38762 0.74798 0.86047 0.0
H2492 H 0.34746 0.75172 0.83735 0.0
S2493 S 0.41797 0.81286 0.78186 0.0
N2494 N 0.43086 0.79932 0.80617 0.0
N2495 N 0.38708 0.80411 0.78157 0.0
C2496 C 0.38616 0.78934 0.80186 0.0
C2497 C 0.40979 0.78687 0.81525 0.0
C2498 C 0.52035 0.15899 0.03708 0.0
C2499 C 0.49626 0.16553 0.03983 0.0
C2500 C 0.52323 0.13372 0.02889 0.0
C2501 C 0.50208 0.11409 0.02313 0.0
H2502 H 0.53719 0.17319 0.04245 0.0
H2503 H 0.54225 0.12939 0.02818 0.0
S2504 S 0.43465 0.1224 0.02424 0.0
N2505 N 0.45082 0.15128 0.03398 0.0
N2506 N 0.456 0.10375 0.01848 0.0
C2507 C 0.47777 0.12086 0.02442 0.0
C2508 C 0.47491 0.14656 0.03286 0.0
C2509 C 0.1438 0.29134 0.32839 0.0
C2510 C 0.13198 0.26806 0.33695 0.0
C2511 C 0.16325 0.29144 0.31252 0.0
C2512 C 0.17108 0.26824 0.3041 0.0
H2513 H 0.13831 0.30972 0.33434 0.0
H2514 H 0.1726 0.30988 0.30721 0.0
S2515 S 0.14657 0.20214 0.32071 0.0
N2516 N 0.12993 0.22115 0.33598 0.0
N2517 N 0.1658 0.22145 0.30489 0.0
C2518 C 0.15893 0.24473 0.31154 0.0
C2519 C 0.1395 0.24461 0.32828 0.0
C2520 C 0.98291 0.06908 0.13372 0.0
C2521 C 0.95703 0.05815 0.13137 0.0
C2522 C 0.99797 0.06607 0.11345 0.0
C2523 C 0.9876 0.05182 0.09044 0.0
H2524 H 0.9917 0.07941 0.15154 0.0
H2525 H 0.01788 0.07425 0.11603 0.0
S2526 S 0.92023 0.02317 0.07306 0.0
N2527 N 0.92128 0.03539 0.10293 0.0
N2528 N 0.94951 0.02932 0.06531 0.0
C2529 C 0.96158 0.04193 0.08746 0.0
C2530 C 0.94632 0.04516 0.10782 0.0
C2531 C 0.26533 0.76276 0.38514 0.0
C2532 C 0.28055 0.74305 0.38589 0.0
C2533 C 0.26085 0.77546 0.36269 0.0
C2534 C 0.27098 0.76873 0.3398 0.0
H2535 H 0.25716 0.76875 0.40222 0.0
H2536 H 0.24941 0.7908 0.36333 0.0
S2537 S 0.31044 0.71689 0.33102 0.0
N2538 N 0.30474 0.7166 0.36134 0.0
N2539 N 0.29607 0.73991 0.31928 0.0
C2540 C 0.28566 0.74852 0.34015 0.0
C2541 C 0.29051 0.73588 0.36311 0.0
C2542 C 0.57044 0.01519 0.63034 0.0
C2543 C 0.55385 0.00472 0.64764 0.0
C2544 C 0.56164 0.01951 0.60525 0.0
C2545 C 0.53571 0.01387 0.59624 0.0
H2546 H 0.59054 0.02005 0.63621 0.0
H2547 H 0.57538 0.02774 0.59297 0.0
S2548 S 0.48423 0.98623 0.6339 0.0
N2549 N 0.51014 0.98876 0.6539 0.0
N2550 N 0.49352 0.99699 0.60692 0.0
C2551 C 0.51887 1.00329 0.61331 0.0
C2552 C 0.52793 0.99864 0.63887 0.0
C2553 C 0.25792 0.3122 0.91441 0.0
C2554 C 0.25528 0.33836 0.91904 0.0
C2555 C 0.26218 0.30242 0.89012 0.0
C2556 C 0.26368 0.31852 0.86987 0.0
H2557 H 0.25659 0.29923 0.92963 0.0
H2558 H 0.26395 0.28212 0.88711 0.0
S2559 S 0.2602 0.38882 0.87258 0.0
N2560 N 0.25629 0.38056 0.90187 0.0
N2561 N 0.26346 0.3619 0.85596 0.0
C2562 C 0.26135 0.34472 0.87426 0.0
C2563 C 0.25733 0.35474 0.89897 0.0
C2564 C 0.95623 0.07333 0.39068 0.0
C2565 C 0.95845 0.05849 0.36799 0.0
C2566 C 0.96793 0.06803 0.41412 0.0
C2567 C 0.98215 0.04765 0.4157 0.0
H2568 H 0.94505 0.0889 0.39034 0.0
H2569 H 0.9654 0.07971 0.4312 0.0
S2570 S 0.99385 1.00319 0.36183 0.0
N2571 N 0.97603 0.02271 0.34845 0.0
N2572 N 0.99828 0.01289 0.39262 0.0
C2573 C 0.98506 0.03306 0.39311 0.0
C2574 C 0.97314 0.03846 0.3692 0.0
C2575 C 0.31143 0.75031 0.66327 0.0
C2576 C 0.29181 0.74006 0.64404 0.0
C2577 C 0.30627 0.75988 0.68767 0.0
C2578 C 0.28125 0.75971 0.69398 0.0
H2579 H 0.33098 0.75124 0.65936 0.0
H2580 H 0.3221 0.7676 0.70164 0.0
S2581 S 0.22297 0.73236 0.65148 0.0
N2582 N 0.24629 0.72849 0.63391 0.0
N2583 N 0.23662 0.74668 0.67916 0.0
C2584 C 0.26147 0.74904 0.67505 0.0
C2585 C 0.26673 0.7392 0.65033 0.0
C2586 C 0.56099 0.01097 0.9285 0.0
C2587 C 0.55186 0.01749 0.90419 0.0
C2588 C 0.54914 0.01675 0.95062 0.0
C2589 C 0.5273 0.02877 0.94932 0.0
H2590 H 0.57758 1.00152 0.93048 0.0
H2591 H 0.55685 0.0112 0.9688 0.0
S2592 S 0.49563 0.04958 0.89035 0.0
N2593 N 0.51961 0.03673 0.88034 0.0
N2594 N 0.4973 0.04717 0.92156 0.0
C2595 C 0.5181 0.03545 0.92516 0.0
C2596 C 0.53032 0.02989 0.90275 0.0
C2597 C 0.26559 0.3102 0.15666 0.0
C2598 C 0.24346 0.32021 0.14955 0.0
C2599 C 0.26702 0.29521 0.17751 0.0
C2600 C 0.24644 0.29004 0.19224 0.0
H2601 H 0.28232 0.315 0.14674 0.0
H2602 H 0.28505 0.28931 0.18314 0.0
S2603 S 0.18272 0.30828 0.17834 0.0
N2604 N 0.19948 0.3213 0.1563 0.0
N2605 N 0.20197 0.29297 0.19573 0.0
C2606 C 0.22335 0.29783 0.18369 0.0
C2607 C 0.22193 0.31308 0.16231 0.0
C2608 C 0.0982 0.97728 0.0466 0.0
C2609 C 0.11893 0.98313 0.03205 0.0
C2610 C 0.07929 0.99322 0.04781 0.0
C2611 C 0.08022 0.01581 0.03465 0.0
H2612 H 0.09633 0.96001 0.05699 0.0
H2613 H 0.06396 0.9879 0.05933 0.0
S2614 S 0.13009 0.04057 0.99406 0.0
N2615 N 0.1391 0.01401 1.00453 0.0
N2616 N 0.10336 0.04329 0.00649 0.0
C2617 C 0.10069 0.02202 0.02009 0.0
C2618 C 0.12 0.00587 0.01882 0.0
C2619 C 0.63299 0.55782 0.0121 0.0
C2620 C 0.63849 0.57729 0.99534 0.0
C2621 C 0.60799 0.54718 0.01492 0.0
C2622 C 0.58759 0.55557 1.00099 0.0
H2623 H 0.64815 0.55103 0.02342 0.0
H2624 H 0.60465 0.53253 0.02838 0.0
S2625 S 0.59195 0.60671 0.95513 0.0
N2626 N 0.62163 0.60493 0.96499 0.0
N2627 N 0.5746 0.58472 0.96992 0.0
C2628 C 0.59286 0.5747 0.98376 0.0
C2629 C 0.61833 0.58562 0.98102 0.0
C2630 C 0.74241 0.38594 0.3036 0.0
C2631 C 0.7292 0.39413 0.28212 0.0
C2632 C 0.75607 0.36524 0.30124 0.0
C2633 C 0.75676 0.35163 0.27741 0.0
H2634 H 0.74265 0.39597 0.32231 0.0
H2635 H 0.76616 0.35982 0.31831 0.0
S2636 S 0.72463 0.36463 0.21544 0.0
N2637 N 0.71706 0.38646 0.23629 0.0
N2638 N 0.74282 0.34752 0.23197 0.0
C2639 C 0.74325 0.3592 0.25586 0.0
C2640 C 0.72951 0.38049 0.25818 0.0
C2641 C 0.87917 0.46974 0.54165 0.0
C2642 C 0.85937 0.47107 0.5226 0.0
C2643 C 0.90426 0.48048 0.53887 0.0
C2644 C 0.91067 0.49286 0.51686 0.0
H2645 H 0.87522 0.46038 0.55894 0.0
H2646 H 0.91878 0.47896 0.55411 0.0
S2647 S 0.86613 0.50107 0.46108 0.0
N2648 N 0.84805 0.48546 0.48072 0.0
N2649 N 0.89519 0.50574 0.47559 0.0
C2650 C 0.89113 0.49442 0.49768 0.0
C2651 C 0.86551 0.48355 0.50054 0.0
C2652 C 0.33273 0.21129 0.26832 0.0
C2653 C 0.32475 0.18497 0.25976 0.0
C2654 C 0.31529 0.2289 0.26955 0.0
C2655 C 0.28918 0.22068 0.26291 0.0
H2656 H 0.3526 0.21833 0.27397 0.0
H2657 H 0.32222 0.24888 0.27635 0.0
S2658 S 0.25859 0.15383 0.23973 0.0
N2659 N 0.28898 0.15176 0.2445 0.0
N2660 N 0.25637 0.18443 0.24743 0.0
C2661 C 0.28107 0.19444 0.2544 0.0
C2662 C 0.29878 0.17672 0.25269 0.0
C2663 C 0.37647 0.0455 0.50262 0.0
C2664 C 0.37179 0.06662 0.51827 0.0
C2665 C 0.39811 0.03425 0.50804 0.0
C2666 C 0.41577 0.04419 0.52898 0.0
H2667 H 0.36372 0.0382 0.48572 0.0
H2668 H 0.4017 0.01869 0.49493 0.0
S2669 S 0.41158 0.09895 0.57593 0.0
N2670 N 0.38575 0.09658 0.55584 0.0
N2671 N 0.42678 0.07566 0.56589 0.0
C2672 C 0.41079 0.06474 0.54525 0.0
C2673 C 0.38866 0.07596 0.53989 0.0
C2674 C 0.72932 0.67091 0.30525 0.0
C2675 C 0.72727 0.65172 0.2848 0.0
C2676 C 0.73874 0.69704 0.30231 0.0
C2677 C 0.74658 0.7051 0.27881 0.0
H2678 H 0.7229 0.66583 0.32347 0.0
H2679 H 0.73929 0.71108 0.31849 0.0
S2680 S 0.74758 0.66179 0.2201 0.0
N2681 N 0.73572 0.64222 0.24088 0.0
N2682 N 0.75322 0.69102 0.23521 0.0
C2683 C 0.74542 0.68585 0.25848 0.0
C2684 C 0.73582 0.65931 0.2615 0.0
C2685 C 0.81112 0.43346 0.78434 0.0
C2686 C 0.82603 0.43949 0.76416 0.0
C2687 C 0.79923 0.40797 0.78658 0.0
C2688 C 0.80193 0.38756 0.7688 0.0
H2689 H 0.80858 0.44859 0.79849 0.0
H2690 H 0.78801 0.40421 0.80244 0.0
S2691 S 0.83986 0.39281 0.71315 0.0
N2692 N 0.84346 0.42269 0.7266 0.0
N2693 N 0.82103 0.37503 0.73059 0.0
C2694 C 0.81681 0.39332 0.74857 0.0
C2695 C 0.82886 0.41921 0.7463 0.0
C2696 C 0.98218 0.8913 0.05738 0.0
C2697 C 0.99789 0.8905 0.08016 0.0
C2698 C 0.9831 0.9141 0.04436 0.0
C2699 C 0.99994 0.93674 0.0536 0.0
H2700 H 0.96878 0.87435 0.04983 0.0
H2701 H 0.9705 0.91402 0.02711 0.0
S2702 S 0.04628 0.94407 0.11147 0.0
N2703 N 0.03167 0.91389 0.11049 0.0
N2704 N 0.03325 0.9565 0.08655 0.0
C2705 C 0.01603 0.93592 0.07609 0.0
C2706 C 0.01506 0.91287 0.08924 0.0
C2707 C 0.88849 0.30218 0.79893 0.0
C2708 C 0.89795 0.27924 0.80439 0.0
C2709 C 0.86301 0.30182 0.78964 0.0
C2710 C 0.84572 0.27846 0.78511 0.0
H2711 H 0.90072 0.32075 0.8025 0.0
H2712 H 0.85681 0.32017 0.78636 0.0
S2713 S 0.86121 0.21268 0.79474 0.0
N2714 N 0.88814 0.23229 0.80338 0.0
N2715 N 0.8405 0.23153 0.78603 0.0
C2716 C 0.85511 0.25528 0.78987 0.0
C2717 C 0.88106 0.25569 0.7995 0.0
C2718 C 0.49936 0.12307 0.58278 0.0
C2719 C 0.50947 0.14828 0.57728 0.0
C2720 C 0.50411 0.10115 0.56819 0.0
C2721 C 0.51888 0.10368 0.5474 0.0
H2722 H 0.48839 0.12024 0.59897 0.0
H2723 H 0.49668 0.08212 0.57368 0.0
S2724 S 0.5475 0.16552 0.52361 0.0
N2725 N 0.53343 0.17451 0.5486 0.0
N2726 N 0.54216 0.13351 0.52113 0.0
C2727 C 0.52827 0.12881 0.54117 0.0
C2728 C 0.52361 0.15104 0.55611 0.0
C2729 C 0.65498 0.77235 0.28855 0.0
C2730 C 0.6554 0.79198 0.3083 0.0
C2731 C 0.67658 0.76957 0.27605 0.0
C2732 C 0.69973 0.78621 0.28271 0.0
H2733 H 0.63763 0.75914 0.28237 0.0
H2734 H 0.67502 0.75423 0.26087 0.0
S2735 S 0.71163 0.84019 0.33378 0.0
N2736 N 0.68152 0.8279 0.33452 0.0
N2737 N 0.72194 0.82286 0.31073 0.0
C2738 C 0.70064 0.80579 0.30258 0.0
C2739 C 0.67855 0.80867 0.31537 0.0
C2740 C 0.00974 0.14747 0.52305 0.0
C2741 C 0.01641 0.15149 0.49828 0.0
C2742 C 0.01025 0.12331 0.53301 0.0
C2743 C 0.01707 0.10254 0.51829 0.0
H2744 H 1.00478 0.16324 0.53496 0.0
H2745 H 1.00554 0.12094 0.55241 0.0
S2746 S 0.03687 0.10408 0.45251 0.0
N2747 N 0.03026 0.13337 0.45936 0.0
N2748 N 0.03139 0.08812 0.47799 0.0
C2749 C 0.02349 0.10645 0.49337 0.0
C2750 C 0.02312 0.13097 0.48337 0.0
C2751 C 0.63638 0.31094 0.2093 0.0
C2752 C 0.61736 0.28921 0.20447 0.0
C2753 C 0.65949 0.30907 0.22281 0.0
C2754 C 0.66408 0.2855 0.23211 0.0
H2755 H 0.63368 0.32925 0.20183 0.0
H2756 H 0.67401 0.32607 0.22553 0.0
S2757 S 0.61934 0.22359 0.22609 0.0
N2758 N 0.60375 0.24394 0.21103 0.0
N2759 N 0.64732 0.24035 0.23678 0.0
C2760 C 0.6448 0.26389 0.22831 0.0
C2761 C 0.62136 0.26576 0.21431 0.0
C2762 C 0.53425 0.91536 0.01713 0.0
C2763 C 0.52983 0.90796 0.99066 0.0
C2764 C 0.53149 0.94033 0.02682 0.0
C2765 C 0.5239 0.95824 0.01028 0.0
H2766 H 0.53941 0.90166 0.03044 0.0
H2767 H 0.53495 0.94551 0.04724 0.0
S2768 S 0.51228 0.94957 0.93957 0.0
N2769 N 0.51988 0.92174 0.94809 0.0
N2770 N 0.51306 0.96775 0.96655 0.0
C2771 C 0.51985 0.9513 0.98391 0.0
C2772 C 0.52323 0.92635 0.97401 0.0
C2773 C 0.88354 0.82126 0.70479 0.0
C2774 C 0.89942 0.8024 0.70753 0.0
C2775 C 0.86536 0.82399 0.72169 0.0
C2776 C 0.86223 0.8078 0.74181 0.0
H2777 H 0.88449 0.83339 0.68888 0.0
H2778 H 0.85285 0.83806 0.71814 0.0
S2779 S 0.90045 0.75695 0.75873 0.0
N2780 N 0.91232 0.76875 0.73325 0.0
N2781 N 0.87733 0.7733 0.76457 0.0
C2782 C 0.87857 0.78954 0.74544 0.0
C2783 C 0.89732 0.78691 0.72834 0.0
C2784 C 0.08 0.03319 0.9258 0.0
C2785 C 0.07325 0.01225 0.90705 0.0
C2786 C 0.06515 0.03681 0.94581 0.0
C2787 C 0.04307 0.01935 0.94848 0.0
H2788 H 0.09711 0.04698 0.92524 0.0
H2789 H 0.07148 0.05326 0.95966 0.0
S2790 S 0.01687 0.961 0.90525 0.0
N2791 N 0.04245 0.97376 0.89248 0.0
N2792 N 0.01533 0.97996 0.93124 0.0
C2793 C 0.03629 0.99791 0.93045 0.0
C2794 C 0.05117 0.99448 0.90952 0.0
C2795 C 0.74417 0.33184 0.67849 0.0
C2796 C 0.74764 0.32173 0.65371 0.0
C2797 C 0.74908 0.31835 0.70043 0.0
C2798 C 0.7571 0.2939 0.69841 0.0
H2799 H 0.73773 0.3504 0.68094 0.0
H2800 H 0.7459 0.32681 0.71896 0.0
S2801 S 0.76886 0.25881 0.6381 0.0
N2802 N 0.75986 0.28581 0.62881 0.0
N2803 N 0.76838 0.2604 0.66949 0.0
C2804 C 0.76064 0.28371 0.67378 0.0
C2805 C 0.75611 0.29759 0.65164 0.0
C2806 C 0.49974 0.06037 0.40011 0.0
C2807 C 0.47611 0.06837 0.39435 0.0
C2808 C 0.50819 0.05547 0.4252 0.0
C2809 C 0.49331 0.05813 0.44572 0.0
H2810 H 0.51187 0.05784 0.38505 0.0
H2811 H 0.5264 0.04911 0.42837 0.0
S2812 S 0.42946 0.0778 0.44081 0.0
N2813 N 0.4377 0.07813 0.41133 0.0
N2814 N 0.45346 0.06925 0.45823 0.0
C2815 C 0.46964 0.06621 0.44021 0.0
C2816 C 0.4611 0.07126 0.41468 0.0
C2817 C 0.7914 0.74556 0.13378 0.0
C2818 C 0.77032 0.74014 0.11549 0.0
C2819 C 0.78922 0.75679 0.158 0.0
C2820 C 0.76597 0.7631 0.16447 0.0
H2821 H 0.80932 0.73982 0.12981 0.0
H2822 H 0.80563 0.75963 0.17205 0.0
S2823 S 0.70599 0.75528 0.12221 0.0
N2824 N 0.72617 0.7437 0.10437 0.0
N2825 N 0.72202 0.7651 0.1503 0.0
C2826 C 0.74514 0.75929 0.14587 0.0
C2827 C 0.74733 0.74762 0.12121 0.0
C2828 C 0.05951 0.99815 0.65648 0.0
C2829 C 0.08404 0.01042 0.66576 0.0
C2830 C 0.04882 1.00233 0.63211 0.0
C2831 C 0.06237 0.01889 0.61637 0.0
H2832 H 0.0483 0.98582 0.66838 0.0
H2833 H 0.02968 0.99294 0.62578 0.0
S2834 S 0.12842 0.05296 0.6307 0.0
N2835 N 0.12241 0.03777 0.65651 0.0
N2836 N 0.10227 0.04592 0.61092 0.0
C2837 C 0.08726 0.03044 0.62507 0.0
C2838 C 0.09812 0.02612 0.64974 0.0
C2839 C 0.71736 0.32425 0.37347 0.0
C2840 C 0.73314 0.32242 0.39597 0.0
C2841 C 0.72281 0.31453 0.34927 0.0
C2842 C 0.74446 0.30277 0.34634 0.0
H2843 H 0.70059 0.33327 0.37455 0.0
H2844 H 0.71014 0.31677 0.33266 0.0
S2845 S 0.79249 0.29392 0.39909 0.0
N2846 N 0.77173 0.30839 0.41352 0.0
N2847 N 0.78192 0.29013 0.36844 0.0
C2848 C 0.76041 0.30085 0.36872 0.0
C2849 C 0.75476 0.31061 0.39335 0.0
C2850 C 0.49842 0.04471 0.13604 0.0
C2851 C 0.47452 0.05293 0.13482 0.0
C2852 C 0.51019 0.0394 0.11379 0.0
C2853 C 0.49874 0.04216 0.08918 0.0
H2854 H 0.50811 0.04215 0.15441 0.0
H2855 H 0.52862 0.03336 0.11597 0.0
S2856 S 0.43648 0.06354 0.07496 0.0
N2857 N 0.44008 0.06395 0.10649 0.0
N2858 N 0.46196 0.05366 0.06498 0.0
C2859 C 0.4748 0.05019 0.08758 0.0
C2860 C 0.46279 0.05561 0.11024 0.0
C2861 C 0.76105 0.73882 0.87406 0.0
C2862 C 0.78482 0.7374 0.88676 0.0
C2863 C 0.75876 0.75265 0.85267 0.0
C2864 C 0.7802 0.76513 0.84228 0.0
H2865 H 0.74384 0.72854 0.88022 0.0
H2866 H 0.73977 0.75246 0.84373 0.0
S2867 S 0.84698 0.76833 0.86896 0.0
N2868 N 0.83038 0.75088 0.88853 0.0
N2869 N 0.82616 0.77595 0.84684 0.0
C2870 C 0.80423 0.76428 0.85489 0.0
C2871 C 0.80653 0.7505 0.87734 0.0
C2872 C 0.9077 0.06306 0.99353 0.0
C2873 C 0.91186 0.08812 0.00642 0.0
C2874 C 0.92715 0.04763 0.99286 0.0
C2875 C 0.95173 0.05653 1.00492 0.0
H2876 H 0.88908 0.05502 0.98433 0.0
H2877 H 0.92273 0.02837 0.98313 0.0
S2878 S 0.97318 0.12139 0.03978 0.0
N2879 N 0.94312 0.12154 0.03024 0.0
N2880 N 0.97907 0.09269 0.02948 0.0
C2881 C 0.9562 0.08174 0.01743 0.0
C2882 C 0.93649 0.09742 0.01807 0.0
C2883 C 0.39304 0.50112 0.02174 0.0
C2884 C 0.38818 0.48892 0.04419 0.0
C2885 C 0.41744 0.51298 0.01808 0.0
C2886 C 0.43792 0.51303 0.03673 0.0
H2887 H 0.37791 0.50108 0.00667 0.0
H2888 H 0.42031 0.52161 1.0002 0.0
S2889 S 0.4349 0.48335 0.09891 0.0
N2890 N 0.4055 0.47752 0.08534 0.0
N2891 N 0.45147 0.49987 0.07873 0.0
C2892 C 0.43311 0.50145 0.05964 0.0
C2893 C 0.40821 0.48937 0.06329 0.0
C2894 C 0.30973 0.69544 0.76185 0.0
C2895 C 0.29667 0.66987 0.75671 0.0
C2896 C 0.29671 0.71654 0.76558 0.0
C2897 C 0.27017 0.71295 0.76435 0.0
H2898 H 0.33015 0.69931 0.76226 0.0
H2899 H 0.3075 0.73579 0.76822 0.0
S2900 S 0.22701 0.65007 0.75332 0.0
N2901 N 0.25556 0.64225 0.7523 0.0
N2902 N 0.23128 0.68196 0.75848 0.0
C2903 C 0.25692 0.68757 0.75961 0.0
C2904 C 0.2701 0.66605 0.75605 0.0
C2905 C 0.15021 0.59339 0.50099 0.0
C2906 C 0.16912 0.59351 0.52134 0.0
C2907 C 0.12484 0.58323 0.50318 0.0
C2908 C 0.11737 0.57263 0.52574 0.0
H2909 H 0.15498 0.60163 0.48336 0.0
H2910 H 0.11097 0.58372 0.48704 0.0
S2911 S 0.15965 0.56707 0.58412 0.0
N2912 N 0.1787 0.58125 0.56446 0.0
N2913 N 0.13102 0.56226 0.5686 0.0
C2914 C 0.13608 0.57234 0.54612 0.0
C2915 C 0.16192 0.58276 0.54392 0.0
C2916 C 0.72084 0.88248 0.76183 0.0
C2917 C 0.70248 0.87992 0.77942 0.0
C2918 C 0.73828 0.86514 0.76002 0.0
C2919 C 0.73813 0.84422 0.77553 0.0
H2920 H 0.72218 0.89844 0.74965 0.0
H2921 H 0.75215 0.8683 0.74635 0.0
S2922 S 0.69394 0.82822 0.82451 0.0
N2923 N 0.68506 0.85419 0.81248 0.0
N2924 N 0.71801 0.82175 0.80908 0.0
C2925 C 0.71975 0.84105 0.79298 0.0
C2926 C 0.70198 0.85888 0.79499 0.0
C2927 C 0.63332 0.98076 0.52419 0.0
C2928 C 0.65622 0.99657 0.5214 0.0
C2929 C 0.61048 0.98977 0.51946 0.0
C2930 C 0.60982 0.01502 0.51211 0.0
H2931 H 0.6331 0.96128 0.53011 0.0
H2932 H 0.59326 0.97697 0.52221 0.0
S2933 S 0.66484 0.06346 0.50122 0.0
N2934 N 0.67728 0.03795 0.50983 0.0
N2935 N 0.6339 0.05545 0.5015 0.0
C2936 C 0.63259 0.0309 0.50878 0.0
C2937 C 0.65596 0.02149 0.51326 0.0
C2938 C 0.29821 0.39642 0.72597 0.0
C2939 C 0.30578 0.41565 0.74632 0.0
C2940 C 0.29029 0.37036 0.73044 0.0
C2941 C 0.28965 0.36232 0.75548 0.0
H2942 H 0.29816 0.40158 0.70636 0.0
H2943 H 0.28453 0.35645 0.71403 0.0
S2944 S 0.30932 0.40494 0.81555 0.0
N2945 N 0.31343 0.4246 0.79249 0.0
N2946 N 0.29831 0.37603 0.801 0.0
C2947 C 0.29747 0.38141 0.77603 0.0
C2948 C 0.30556 0.40789 0.77144 0.0
C2949 C 0.21564 0.63663 0.25136 0.0
C2950 C 0.2098 0.62855 0.27548 0.0
C2951 C 0.22795 0.66187 0.2487 0.0
C2952 C 0.23459 0.68001 0.27003 0.0
H2953 H 0.21049 0.62339 0.23437 0.0
H2954 H 0.23168 0.66739 0.22975 0.0
S2955 S 0.22417 0.66859 0.33744 0.0
N2956 N 0.2121 0.64079 0.32112 0.0
N2957 N 0.23521 0.688 0.31614 0.0
C2958 C 0.22933 0.67206 0.29428 0.0
C2959 C 0.21698 0.64639 0.29701 0.0
C2960 C 0.51347 0.66068 0.45294 0.0
C2961 C 0.53132 0.6831 0.46024 0.0
C2962 C 0.51316 0.63844 0.46636 0.0
C2963 C 0.5306 0.63765 0.48777 0.0
H2964 H 0.49959 0.66023 0.4366 0.0
H2965 H 0.49919 0.62162 0.45972 0.0
S2966 S 0.58123 0.69099 0.51497 0.0
N2967 N 0.56703 0.70304 0.4904 0.0
N2968 N 0.56605 0.66122 0.51594 0.0
C2969 C 0.54823 0.66 0.49572 0.0
C2970 C 0.54867 0.68272 0.4819 0.0
C2971 C 0.65247 0.30553 0.73783 0.0
C2972 C 0.63504 0.28228 0.73447 0.0
C2973 C 0.67799 0.30593 0.74724 0.0
C2974 C 0.68717 0.28314 0.75398 0.0
H2975 H 0.64654 0.32345 0.73238 0.0
H2976 H 0.69071 0.32422 0.74868 0.0
S2977 S 0.64825 0.21756 0.75117 0.0
N2978 N 0.62826 0.23626 0.74028 0.0
N2979 N 0.6757 0.23677 0.75803 0.0
C2980 C 0.66952 0.25991 0.75157 0.0
C2981 C 0.64368 0.25955 0.74182 0.0
C2982 C 1.00459 0.43811 0.95076 0.0
C2983 C 0.02276 0.42296 0.9594 0.0
C2984 C 0.99988 0.45968 0.96581 0.0
C2985 C 0.01298 0.46675 0.99013 0.0
H2986 H 0.9939 0.43325 0.93219 0.0
H2987 H 0.98568 0.47073 0.95851 0.0
S2988 S 0.06268 0.43451 0.02168 0.0
N2989 N 0.05418 0.41723 0.99401 0.0
N2990 N 0.04515 0.45785 0.02208 0.0
C2991 C 0.03136 0.45224 0.99893 0.0
C2992 C 0.03635 0.43035 0.9836 0.0
C2993 C 0.85871 0.78249 0.22189 0.0
C2994 C 0.87981 0.77288 0.23342 0.0
C2995 C 0.83697 0.78404 0.23479 0.0
C2996 C 0.83551 0.77621 0.25978 0.0
H2997 H 0.85906 0.78897 0.20278 0.0
H2998 H 0.82164 0.79233 0.22547 0.0
S2999 S 0.88558 0.75046 0.29886 0.0
N3000 N 0.89772 0.75592 0.27161 0.0
N3001 N 0.85712 0.75884 0.29562 0.0
C3002 C 0.8564 0.76664 0.27148 0.0
C3003 C 0.8784 0.76489 0.25835 0.0
C3004 C 0.53485 0.42805 0.03417 0.0
C3005 C 0.51208 0.41578 0.04232 0.0
C3006 C 0.53592 0.45158 0.02274 0.0
C3007 C 0.51431 0.46345 0.0194 0.0
H3008 H 0.55206 0.41975 0.03724 0.0
H3009 H 0.5538 0.46085 0.01712 0.0
S3010 S 0.4497 0.43823 0.03504 0.0
N3011 N 0.46702 0.41635 0.04419 0.0
N3012 N 0.46935 0.46095 0.02349 0.0
C3013 C 0.49136 0.45118 0.02684 0.0
C3014 C 0.49016 0.42719 0.03812 0.0
C3015 C 0.88576 0.26654 0.35012 0.0
C3016 C 0.90861 0.27341 0.33934 0.0
C3017 C 0.8627 0.26898 0.33697 0.0
C3018 C 0.86165 0.27873 0.31274 0.0
H3019 H 0.88568 0.25977 0.36913 0.0
H3020 H 0.8456 0.26369 0.34618 0.0
S3021 S 0.91563 0.29782 0.27527 0.0
N3022 N 0.9286 0.28881 0.30221 0.0
N3023 N 0.88491 0.29432 0.27786 0.0
C3024 C 0.88415 0.28544 0.30151 0.0
C3025 C 0.90775 0.28257 0.31475 0.0
C3026 C 0.02148 0.65639 0.53606 0.0
C3027 C 0.99788 0.6632 0.54067 0.0
C3028 C 0.02368 0.63108 0.52739 0.0
C3029 C 1.00233 0.61151 0.52313 0.0
H3030 H 0.03854 0.6706 0.53991 0.0
H3031 H 0.04245 0.62668 0.52509 0.0
S3032 S 0.93585 0.61999 0.53073 0.0
N3033 N 0.95256 0.64891 0.53917 0.0
N3034 N 0.95645 0.60131 0.52253 0.0
C3035 C 0.97838 0.61845 0.52638 0.0
C3036 C 0.97621 0.6443 0.53525 0.0
C3037 C 0.6328 0.7787 0.8105 0.0
C3038 C 0.63111 0.76399 0.83188 0.0
C3039 C 0.65089 0.77576 0.79339 0.0
C3040 C 0.6678 0.75804 0.7972 0.0
H3041 H 0.62025 0.79276 0.80715 0.0
H3042 H 0.65223 0.78809 0.77766 0.0
S3043 S 0.67142 0.71539 0.85068 0.0
N3044 N 0.64808 0.7315 0.85621 0.0
N3045 N 0.68166 0.72549 0.82385 0.0
C3046 C 0.6659 0.7428 0.8182 0.0
C3047 C 0.64767 0.74595 0.83566 0.0
C3048 C 0.47812 0.573 0.62856 0.0
C3049 C 0.45392 0.55805 0.62841 0.0
C3050 C 0.49298 0.57022 0.60808 0.0
C3051 C 0.48413 0.55221 0.58705 0.0
H3052 H 0.48587 0.58643 0.64487 0.0
H3053 H 0.51168 0.58162 0.60903 0.0
S3054 S 0.42051 0.51189 0.57536 0.0
N3055 N 0.42072 0.5272 0.60382 0.0
N3056 N 0.4486 0.52162 0.56585 0.0
C3057 C 0.45953 0.53817 0.58616 0.0
C3058 C 0.44444 0.54115 0.60672 0.0
C3059 C 0.76617 0.26446 0.88604 0.0
C3060 C 0.77848 0.24251 0.88645 0.0
C3061 C 0.76134 0.27644 0.86319 0.0
C3062 C 0.76824 0.26682 0.83959 0.0
H3063 H 0.76063 0.27277 0.90367 0.0
H3064 H 0.75235 0.29361 0.86413 0.0
S3065 S 0.79876 0.20822 0.82979 0.0
N3066 N 0.79611 0.21075 0.86084 0.0
N3067 N 0.78681 0.23279 0.81811 0.0
C3068 C 0.77987 0.24436 0.83965 0.0
C3069 C 0.78506 0.23239 0.86296 0.0
C3070 C 0.07437 0.51001 0.12747 0.0
C3071 C 0.05796 0.50433 0.14652 0.0
C3072 C 0.06514 0.51377 0.10233 0.0
C3073 C 0.03902 0.51237 0.09502 0.0
H3074 H 0.09463 0.51158 0.13205 0.0
H3075 H 0.07876 0.51833 0.08866 0.0
S3076 S 0.98794 0.4983 0.13775 0.0
N3077 N 0.01422 0.4975 0.15629 0.0
N3078 N 0.99683 0.50472 0.1093 0.0
C3079 C 0.02235 0.50652 0.11388 0.0
C3080 C 0.0318 0.50244 0.13947 0.0
C3081 C 0.74193 0.81551 0.40774 0.0
C3082 C 0.75838 0.83701 0.41995 0.0
C3083 C 0.74698 0.8042 0.38435 0.0
C3084 C 0.7687 0.81402 0.37284 0.0
H3085 H 0.72475 0.808 0.41591 0.0
H3086 H 0.73345 0.78819 0.3749 0.0
S3087 S 0.81865 0.86866 0.3988 0.0
N3088 N 0.79786 0.86665 0.42016 0.0
N3089 N 0.80746 0.84545 0.37611 0.0
C3090 C 0.78577 0.83488 0.38548 0.0
C3091 C 0.78057 0.84639 0.40914 0.0
C3092 C 0.44368 0.56387 0.89016 0.0
C3093 C 0.44671 0.54824 0.86826 0.0
C3094 C 0.45493 0.55964 0.91425 0.0
C3095 C 0.46982 0.53991 0.91709 0.0
H3096 H 0.43207 0.57903 0.88872 0.0
H3097 H 0.45193 0.57191 0.93074 0.0
S3098 S 0.48451 0.4947 0.86531 0.0
N3099 N 0.46614 0.51294 0.85065 0.0
N3100 N 0.48765 0.5052 0.89589 0.0
C3101 C 0.47344 0.52458 0.89523 0.0
C3102 C 0.46176 0.52869 0.8708 0.0
C3103 C 0.77105 0.25473 0.14905 0.0
C3104 C 0.79195 0.24197 0.14544 0.0
C3105 C 0.76651 0.26465 0.17349 0.0
C3106 C 0.78262 0.2623 0.19561 0.0
H3107 H 0.75803 0.25714 0.13278 0.0
H3108 H 0.75007 0.27413 0.175 0.0
S3109 S 0.83901 0.22886 0.1971 0.0
N3110 N 0.82827 0.22651 0.16652 0.0
N3111 N 0.81992 0.2451 0.21217 0.0
C3112 C 0.80355 0.24946 0.1923 0.0
C3113 C 0.80817 0.23937 0.16738 0.0
C3114 C 0.04363 0.49633 0.4196 0.0
C3115 C 0.05379 0.51702 0.40574 0.0
C3116 C 0.03159 0.50068 0.44193 0.0
C3117 C 0.02903 0.52588 0.45126 0.0
H3118 H 0.04454 0.47652 0.41288 0.0
H3119 H 0.02378 0.48415 0.45169 0.0
S3120 S 0.05471 0.58693 0.42446 0.0
N3121 N 0.06232 0.56397 0.40492 0.0
N3122 N 0.03912 0.57181 0.44623 0.0
C3123 C 0.03958 0.54672 0.43816 0.0
C3124 C 0.05205 0.54238 0.4156 0.0
C3125 C 0.72949 0.82843 0.66654 0.0
C3126 C 0.74794 0.82807 0.64925 0.0
C3127 C 0.7298 0.81359 0.68764 0.0
C3128 C 0.74868 0.79806 0.69214 0.0
H3129 H 0.71554 0.84129 0.66452 0.0
H3130 H 0.71619 0.81567 0.70135 0.0
S3131 S 0.7987 0.78726 0.65027 0.0
N3132 N 0.78349 0.80843 0.6361 0.0
N3133 N 0.78443 0.78089 0.67618 0.0
C3134 C 0.76616 0.7962 0.67408 0.0
C3135 C 0.76573 0.81117 0.65252 0.0
C3136 C 0.59338 0.4746 0.52573 0.0
C3137 C 0.61916 0.48333 0.53417 0.0
C3138 C 0.5752 0.49155 0.5259 0.0
C3139 C 0.58205 0.51806 0.53423 0.0
H3140 H 0.58716 0.45445 0.51899 0.0
H3141 H 0.55579 0.4839 0.51888 0.0
S3142 S 0.647 0.55107 0.55734 0.0
N3143 N 0.6504 0.52063 0.55056 0.0
N3144 N 0.61657 0.55215 0.55082 0.0
C3145 C 0.60771 0.52699 0.54263 0.0
C3146 C 0.62612 0.50977 0.54264 0.0
C3147 C 0.12273 0.07273 0.46959 0.0
C3148 C 0.14286 0.0762 0.48898 0.0
C3149 C 0.09867 0.06048 0.47409 0.0
C3150 C 0.09409 0.05118 0.49808 0.0
H3151 H 0.12538 0.08044 0.45124 0.0
H3152 H 0.08343 0.05914 0.4589 0.0
S3153 S 0.14202 0.05363 0.55414 0.0
N3154 N 0.15768 0.06813 0.53211 0.0
N3155 N 0.11273 0.04478 0.54082 0.0
C3156 C 0.11466 0.05348 0.51717 0.0
C3157 C 0.13899 0.06612 0.51255 0.0
C3158 C 0.22018 0.87004 0.77602 0.0
C3159 C 0.23314 0.89535 0.78306 0.0
C3160 C 0.23334 0.84899 0.77253 0.0
C3161 C 0.25992 0.85236 0.77592 0.0
H3162 H 0.19969 0.86645 0.77324 0.0
H3163 H 0.22255 0.82989 0.7682 0.0
S3164 S 0.3028 0.91431 0.79556 0.0
N3165 N 0.27415 0.92227 0.79421 0.0
N3166 N 0.29871 0.88285 0.78741 0.0
C3167 C 0.27306 0.87748 0.78316 0.0
C3168 C 0.25974 0.89891 0.78667 0.0
C3169 C 0.37905 0.96174 0.02869 0.0
C3170 C 0.35879 0.97384 0.01941 0.0
C3171 C 0.40423 0.97283 0.02688 0.0
C3172 C 0.41005 0.9961 0.01519 0.0
H3173 H 0.37538 0.94361 0.03754 0.0
H3174 H 0.41923 0.96289 0.03438 0.0
S3175 S 0.36394 0.03551 0.98801 0.0
N3176 N 0.34621 0.01055 0.99852 0.0
N3177 N 0.39357 0.03109 0.99451 0.0
C3178 C 0.39001 0.00839 0.0058 0.0
C3179 C 0.36436 0.99735 0.00811 0.0
C3180 C 0.82758 0.70689 0.76492 0.0
C3181 C 0.82111 0.68182 0.75231 0.0
C3182 C 0.81018 0.72457 0.76483 0.0
C3183 C 0.78561 0.71794 0.75215 0.0
H3184 H 0.84622 0.71287 0.77506 0.0
H3185 H 0.81569 0.74309 0.77565 0.0
S3186 S 0.75855 0.65444 0.71758 0.0
N3187 N 0.7878 0.65111 0.72767 0.0
N3188 N 0.75544 0.68427 0.72748 0.0
C3189 C 0.77883 0.69292 0.73975 0.0
C3190 C 0.79648 0.67496 0.73973 0.0
C3191 C 0.89703 0.58529 0.03724 0.0
C3192 C 0.87456 0.56994 0.02595 0.0
C3193 C 0.91932 0.57493 0.04071 0.0
C3194 C 0.91997 0.54891 0.0329 0.0
H3195 H 0.89771 0.60578 0.04242 0.0
H3196 H 0.93639 0.58776 0.04865 0.0
S3197 S 0.86582 0.50002 1.00445 0.0
N3198 N 0.85372 0.52699 0.00878 0.0
N3199 N 0.89616 0.50748 0.01487 0.0
C3200 C 0.89749 0.53296 0.02265 0.0
C3201 C 0.87464 0.54354 0.01917 0.0
C3202 C 0.2252 0.15953 0.76334 0.0
C3203 C 0.2219 0.15096 0.78781 0.0
C3204 C 0.23445 0.18555 0.76001 0.0
C3205 C 0.2407 0.20433 0.78099 0.0
H3206 H 0.22063 0.14596 0.74653 0.0
H3207 H 0.23651 0.19093 0.74069 0.0
S3208 S 0.23488 0.19196 0.84921 0.0
N3209 N 0.22519 0.16338 0.8334 0.0
N3210 N 0.24265 0.21215 0.82736 0.0
C3211 C 0.23753 0.19594 0.80565 0.0
C3212 C 0.22818 0.16936 0.809 0.0
C3213 C 0.3223 0.92363 0.24777 0.0
C3214 C 0.32391 0.94325 0.26772 0.0
C3215 C 0.31016 0.89835 0.25016 0.0
C3216 C 0.29903 0.89166 0.27253 0.0
H3217 H 0.33106 0.92765 0.2304 0.0
H3218 H 0.30983 0.88385 0.23442 0.0
S3219 S 0.29651 0.93617 0.3297 0.0
N3220 N 0.31217 0.95453 0.31013 0.0
N3221 N 0.28954 0.90691 0.31465 0.0
C3222 C 0.29998 0.91115 0.29241 0.0
C3223 C 0.31239 0.93694 0.29001 0.0
C3224 C 0.49132 0.39022 0.55536 0.0
C3225 C 0.50488 0.39034 0.5796 0.0
C3226 C 0.49179 0.41299 0.54243 0.0
C3227 C 0.50577 0.43667 0.55334 0.0
H3228 H 0.48047 0.37234 0.54621 0.0
H3229 H 0.48109 0.41205 0.52386 0.0
S3230 S 0.54329 0.44777 0.61699 0.0
N3231 N 0.5316 0.4166 0.61442 0.0
N3232 N 0.53299 0.45895 0.5901 0.0
C3233 C 0.51922 0.43705 0.57762 0.0
C3234 C 0.51865 0.41402 0.59075 0.0
C3235 C 0.38113 0.76329 0.29897 0.0
C3236 C 0.39862 0.78652 0.30145 0.0
C3237 C 0.3557 0.76254 0.2892 0.0
C3238 C 0.34654 0.785 0.2815 0.0
H3239 H 0.38691 0.74565 0.30544 0.0
H3240 H 0.34295 0.74433 0.28853 0.0
S3241 S 0.3853 0.85012 0.28106 0.0
N3242 N 0.40538 0.83201 0.293 0.0
N3243 N 0.35782 0.83079 0.27517 0.0
C3244 C 0.36411 0.80812 0.28291 0.0
C3245 C 0.38999 0.80884 0.29274 0.0
C3246 C 0.02457 0.6497 0.05759 0.0
C3247 C 0.01071 0.64725 0.07902 0.0
C3248 C 0.02919 0.6278 0.04299 0.0
C3249 C 0.02044 0.60257 0.04944 0.0
H3250 H 0.03194 0.66876 0.05209 0.0
H3251 H 0.03999 0.63071 0.0267 0.0
S3252 S 0.98424 0.58566 0.1046 0.0
N3253 N 0.98856 0.61767 0.10621 0.0
N3254 N 0.99794 0.57652 0.07941 0.0
C3255 C 0.00665 0.59985 0.07094 0.0
C3256 C 1.00159 0.62218 0.08554 0.0
C3257 C 0.17639 0.28709 0.81734 0.0
C3258 C 0.15411 0.29401 0.80526 0.0
C3259 C 0.19773 0.28509 0.80389 0.0
C3260 C 0.19737 0.28937 0.7777 0.0
H3261 H 0.17731 0.28318 0.83733 0.0
H3262 H 0.21432 0.27947 0.81387 0.0
S3263 S 0.14378 0.30773 0.7372 0.0
N3264 N 0.1333 0.30526 0.76565 0.0
N3265 N 0.17289 0.30101 0.7404 0.0
C3266 C 0.17528 0.29636 0.76553 0.0
C3267 C 0.15381 0.29881 0.77927 0.0
C3268 C 0.52799 0.65355 0.02209 0.0
C3269 C 0.52663 0.65503 0.99547 0.0
C3270 C 0.52572 0.62952 0.03261 0.0
C3271 C 0.52171 0.60621 0.01687 0.0
H3272 H 0.53132 0.67107 0.03486 0.0
H3273 H 0.52728 0.62923 0.05326 0.0
S3274 S 0.51569 0.59989 0.94582 0.0
N3275 N 0.52009 0.6314 0.95352 0.0
N3276 N 0.51612 0.58633 0.97326 0.0
C3277 C 0.51988 0.60751 0.9902 0.0
C3278 C 0.52229 0.63193 0.9795 0.0
C3279 C 0.14106 0.80536 0.69738 0.0
C3280 C 0.11851 0.79151 0.70427 0.0
C3281 C 0.16433 0.80312 0.71021 0.0
C3282 C 0.16588 0.7869 0.73033 0.0
H3283 H 0.14082 0.81743 0.68143 0.0
H3284 H 0.18127 0.81381 0.70393 0.0
S3285 S 0.11225 0.74794 0.75693 0.0
N3286 N 0.0989 0.76224 0.73345 0.0
N3287 N 0.14303 0.75767 0.75745 0.0
C3288 C 0.1435 0.77344 0.73794 0.0
C3289 C 0.11969 0.7758 0.72488 0.0
C3290 C 0.00676 0.40963 0.50364 0.0
C3291 C 0.03052 0.40291 0.49958 0.0
C3292 C 1.00438 0.43488 0.51235 0.0
C3293 C 0.02569 0.45446 0.51718 0.0
H3294 H 0.98977 0.39542 0.49929 0.0
H3295 H 0.98552 0.43923 0.51424 0.0
S3296 S 0.09244 0.44615 0.51093 0.0
N3297 N 0.07588 0.41724 0.50211 0.0
N3298 N 0.07165 0.46475 0.51872 0.0
C3299 C 0.04975 0.44759 0.5144 0.0
C3300 C 0.05212 0.4218 0.50553 0.0
C3301 C 0.39685 0.30383 0.22152 0.0
C3302 C 0.39439 0.31191 0.19657 0.0
C3303 C 0.37821 0.30615 0.23803 0.0
C3304 C 0.35664 0.31685 0.23023 0.0
H3305 H 0.41312 0.29525 0.22818 0.0
H3306 H 0.38038 0.29883 0.25677 0.0
S3307 S 0.34121 0.34101 0.16687 0.0
N3308 N 0.36871 0.33099 0.16482 0.0
N3309 N 0.33389 0.33599 0.19614 0.0
C3310 C 0.35429 0.3258 0.20564 0.0
C3311 C 0.37314 0.32318 0.18872 0.0
C3312 C 0.58052 0.53781 0.42302 0.0
C3313 C 0.57701 0.51431 0.40761 0.0
C3314 C 0.56641 0.54107 0.44372 0.0
C3315 C 0.54823 0.52089 0.4503 0.0
H3316 H 0.59457 0.55391 0.41928 0.0
H3317 H 0.57027 0.5596 0.45492 0.0
S3318 S 0.53137 0.45541 0.41617 0.0
N3319 N 0.55348 0.47049 0.40012 0.0
N3320 N 0.52749 0.4764 0.43974 0.0
C3321 C 0.54462 0.49712 0.43532 0.0
C3322 C 0.55888 0.49387 0.41388 0.0
C3323 C 0.26805 0.81043 0.15572 0.0
C3324 C 0.24913 0.82636 0.15361 0.0
C3325 C 0.27335 0.79831 0.17838 0.0
C3326 C 0.26042 0.80208 0.20017 0.0
H3327 H 0.27854 0.80692 0.13952 0.0
H3328 H 0.28771 0.78584 0.17882 0.0
S3329 S 0.20991 0.84305 0.20495 0.0
N3330 N 0.2178 0.84563 0.17549 0.0
N3331 N 0.22816 0.82378 0.21804 0.0
C3332 C 0.24187 0.81851 0.19843 0.0
C3333 C 0.23611 0.83036 0.17521 0.0
C3334 C 1.00041 0.56107 0.89973 0.0
C3335 C 0.97636 0.56826 0.89419 0.0
C3336 C 0.00922 0.55613 0.92471 0.0
C3337 C 0.99424 0.5578 0.94529 0.0
H3338 H 0.01256 0.55922 0.88457 0.0
H3339 H 0.02774 0.55043 0.92775 0.0
S3340 S 0.92956 0.57544 0.94102 0.0
N3341 N 0.93762 0.57647 0.91151 0.0
N3342 N 0.954 0.5674 0.95818 0.0
C3343 C 0.97019 0.56511 0.94001 0.0
C3344 C 0.96132 0.57029 0.91462 0.0
C3345 C 0.27741 0.21613 0.63678 0.0
C3346 C 0.27474 0.23085 0.6156 0.0
C3347 C 0.27382 0.22595 0.66116 0.0
C3348 C 0.26712 0.25066 0.66513 0.0
H3349 H 0.28184 0.19665 0.63448 0.0
H3350 H 0.27601 0.2139 0.67694 0.0
S3351 S 0.25879 0.29738 0.61634 0.0
N3352 N 0.26605 0.2718 0.60028 0.0
N3353 N 0.25849 0.29003 0.64637 0.0
C3354 C 0.26445 0.2657 0.64427 0.0
C3355 C 0.26842 0.25582 0.61939 0.0
C3356 C 0.56332 0.53184 0.16376 0.0
C3357 C 0.57619 0.51063 0.16709 0.0
C3358 C 0.55126 0.53549 0.13989 0.0
C3359 C 0.5519 0.51822 0.11846 0.0
H3360 H 0.5628 0.54589 0.17969 0.0
H3361 H 0.54194 0.55234 0.13812 0.0
S3362 S 0.58215 0.45907 0.11721 0.0
N3363 N 0.58817 0.47165 0.14715 0.0
N3364 N 0.56551 0.47859 0.10216 0.0
C3365 C 0.56416 0.4966 0.1216 0.0
C3366 C 0.57628 0.49275 0.14598 0.0
C3367 C 0.21819 0.81666 0.87521 0.0
C3368 C 0.23756 0.8249 0.89524 0.0
C3369 C 0.22352 0.80709 0.85091 0.0
C3370 C 0.24848 0.80528 0.84544 0.0
H3371 H 0.19866 0.81738 0.87839 0.0
H3372 H 0.20785 0.80103 0.8363 0.0
S3373 S 0.3064 0.82652 0.89052 0.0
N3374 N 0.28297 0.83218 0.90725 0.0
N3375 N 0.29294 0.81396 0.86213 0.0
C3376 C 0.26807 0.8138 0.86524 0.0
C3377 C 0.26264 0.82363 0.88991 0.0
C3378 C 0.99826 0.54379 0.63698 0.0
C3379 C 0.97434 0.55192 0.63551 0.0
C3380 C 0.01016 0.53837 0.61485 0.0
C3381 C 0.99884 0.54098 0.59014 0.0
H3382 H 0.00786 0.54135 0.65544 0.0
H3383 H 0.02858 0.53233 0.61721 0.0
S3384 S 0.9366 0.56219 0.57539 0.0
N3385 N 0.93998 0.56267 0.60692 0.0
N3386 N 0.96223 0.55245 0.56563 0.0
C3387 C 0.97491 0.54902 0.58833 0.0
C3388 C 0.96273 0.55446 0.61086 0.0
C3389 C 0.27425 0.258 0.38366 0.0
C3390 C 0.29334 0.24256 0.38645 0.0
C3391 C 0.27253 0.27316 0.36297 0.0
C3392 C 0.28973 0.27319 0.34434 0.0
H3393 H 0.25981 0.25728 0.39685 0.0
H3394 H 0.25659 0.28355 0.36063 0.0
S3395 S 0.34447 0.23761 0.34453 0.0
N3396 N 0.33092 0.22956 0.37046 0.0
N3397 N 0.32773 0.25808 0.3312 0.0
C3398 C 0.31011 0.25937 0.34805 0.0
C3399 C 0.31185 0.24392 0.36923 0.0
C3400 C 0.40742 0.56103 0.49723 0.0
C3401 C 0.41273 0.58724 0.50695 0.0
C3402 C 0.4265 0.5452 0.49703 0.0
C3403 C 0.45194 0.55489 0.50598 0.0
H3404 H 0.38819 0.55248 0.49026 0.0
H3405 H 0.42118 0.52504 0.48992 0.0
S3406 S 0.47603 0.62258 0.53259 0.0
N3407 N 0.44547 0.62231 0.52529 0.0
N3408 N 0.48109 0.59293 0.52456 0.0
C3409 C 0.45752 0.58124 0.51527 0.0
C3410 C 0.43803 0.59725 0.51586 0.0
C3411 C 0.90002 0.00717 0.52469 0.0
C3412 C 0.89498 0.98867 0.54251 0.0
C3413 C 0.92486 0.0178 0.52129 0.0
C3414 C 0.94552 0.0103 0.53561 0.0
H3415 H 0.88463 0.01308 0.51292 0.0
H3416 H 0.92785 0.03164 0.507 0.0
S3417 S 0.94222 0.96197 0.58436 0.0
N3418 N 0.91239 0.96309 0.57449 0.0
N3419 N 0.95923 0.98304 0.56826 0.0
C3420 C 0.94068 0.99219 0.55393 0.0
C3421 C 0.91535 0.98138 0.55735 0.0
C3422 C 0.7856 0.18088 0.23772 0.0
C3423 C 0.80098 0.17441 0.25867 0.0
C3424 C 0.77125 0.201 0.24021 0.0
C3425 C 0.7716 0.21555 0.26373 0.0
H3426 H 0.78418 0.16996 0.2193 0.0
H3427 H 0.75976 0.20517 0.22347 0.0
S3428 S 0.80881 0.20706 0.32445 0.0
N3429 N 0.81644 0.18527 0.30363 0.0
N3430 N 0.78811 0.22188 0.30848 0.0
C3431 C 0.78686 0.20948 0.28481 0.0
C3432 C 0.80183 0.18921 0.28225 0.0
C3433 C 0.65076 0.08668 0.99614 0.0
C3434 C 0.66857 0.09406 0.01765 0.0
C3435 C 0.62543 0.07682 0.99882 0.0
C3436 C 0.61687 0.07376 0.0231 0.0
H3437 H 0.65645 0.08846 0.97701 0.0
H3438 H 0.61248 0.07146 0.98167 0.0
S3439 S 0.65529 0.09119 0.08561 0.0
N3440 N 0.67536 0.09857 0.0642 0.0
N3441 N 0.62793 0.07933 0.0691 0.0
C3442 C 0.63436 0.08094 0.04479 0.0
C3443 C 0.66014 0.09122 0.0421 0.0
C3444 C 0.23127 0.3911 0.29778 0.0
C3445 C 0.20666 0.38616 0.28491 0.0
C3446 C 0.24785 0.37272 0.29645 0.0
C3447 C 0.24052 0.34855 0.2823 0.0
H3448 H 0.23802 0.40961 0.30849 0.0
H3449 H 0.26671 0.37767 0.30632 0.0
S3450 S 0.17739 0.32518 0.24679 0.0
N3451 N 0.17528 0.35456 0.25894 0.0
N3452 N 0.20641 0.32042 0.25588 0.0
C3453 C 0.21575 0.34315 0.26981 0.0
C3454 C 0.19888 0.36182 0.27123 0.0
C3455 C 0.13714 0.48493 1.00061 0.0
C3456 C 0.15793 0.49783 0.01697 0.0
C3457 C 0.11544 0.49621 0.99613 0.0
C3458 C 0.11392 0.52078 0.00776 0.0
H3459 H 0.13714 0.46546 0.99223 0.0
H3460 H 0.09934 0.48508 0.98438 0.0
S3461 S 0.16427 0.56335 0.05034 0.0
N3462 N 0.17661 0.53702 0.04336 0.0
N3463 N 0.13556 0.55841 0.03499 0.0
C3464 C 0.13507 0.53447 0.02311 0.0
C3465 C 0.15716 0.52288 0.02777 0.0
C3466 C 0.80915 0.89947 0.23454 0.0
C3467 C 0.80508 0.91933 0.25239 0.0
C3468 C 0.80042 0.87323 0.23753 0.0
C3469 C 0.78748 0.86568 0.25862 0.0
H3470 H 0.8198 0.90414 0.21847 0.0
H3471 H 0.80452 0.85871 0.22354 0.0
S3472 S 0.76935 0.90997 0.3093 0.0
N3473 N 0.78501 0.92948 0.2907 0.0
N3474 N 0.76943 0.88028 0.29669 0.0
C3475 C 0.78267 0.88529 0.27624 0.0
C3476 C 0.79125 0.91203 0.27304 0.0
C3477 C 0.69703 0.14465 0.78423 0.0
C3478 C 0.70808 0.12306 0.77657 0.0
C3479 C 0.70923 0.16998 0.78237 0.0
C3480 C 0.73279 0.17474 0.7724 0.0
H3481 H 0.67873 0.14192 0.79169 0.0
H3482 H 0.69982 0.18594 0.78833 0.0
S3483 S 0.76992 0.12504 0.74994 0.0
N3484 N 0.74417 0.10809 0.75905 0.0
N3485 N 0.76696 0.15585 0.75517 0.0
C3486 C 0.74419 0.1534 0.76485 0.0
C3487 C 0.73189 0.12752 0.76709 0.0
loop_
_geom_bond_atom_site_label_1
_geom_bond_atom_site_label_2
_geom_bond_distance
_geom_bond_site_symmetry_2
_ccdc_geom_bond_type
Li0 N17 1.990 . S
Li0 O60 1.956 1_655 S
Li0 O61 1.970 . S
Li0 O62 1.961 1_655 S
Li1 N25 1.990 . S
Li1 O60 1.970 . S
Li1 O61 1.956 1_455 S
Li1 O63 1.961 . S
Li2 N47 1.990 . S
Li2 O60 1.961 . S
Li2 O62 1.956 . S
Li2 O63 1.970 . S
Li3 N53 1.990 . S
Li3 O61 1.961 1_455 S
Li3 O62 1.970 . S
Li3 O63 1.956 . S
C4 C6 1.348 . S
C4 C7 1.356 . S
C4 O60 1.325 . S
N5 C8 1.314 . S
N5 C9 1.279 . S
C6 C4 1.348 . S
C6 C8 1.353 . S
C6 H64 0.929 . S
C7 C4 1.356 . S
C7 C9 1.358 . S
C7 H65 0.930 . S
C8 N5 1.314 . S
C8 C6 1.353 . S
C8 H66 0.930 . S
C9 N5 1.279 . S
C9 C7 1.358 . S
C9 H67 0.930 . S
C10 C13 1.348 . S
C10 C14 1.356 . S
C10 O61 1.325 . S
C11 N12 1.279 . S
C11 C14 1.358 . S
C11 H68 0.930 . S
N12 C11 1.279 . S
N12 C15 1.314 . S
C13 C10 1.348 . S
C13 C15 1.353 . S
C13 H69 0.929 . S
C14 C10 1.356 . S
C14 C11 1.358 . S
C14 H70 0.930 . S
C15 N12 1.314 . S
C15 C13 1.353 . S
C15 H71 0.930 . S
C16 N17 1.314 . S
C16 C21 1.353 . S
C16 H22 0.930 . S
N17 Li0 1.990 . S
N17 C16 1.314 . S
N17 C19 1.279 . S
C18 C19 1.358 . S
C18 C20 1.356 . S
C18 H72 0.930 . S
C19 N17 1.279 . S
C19 C18 1.358 . S
C19 H23 0.930 . S
C20 C18 1.356 . S
C20 C21 1.348 . S
C21 C16 1.353 . S
C21 C20 1.348 . S
C21 H73 0.929 . S
H22 C16 0.930 . S
H23 C19 0.930 . S
C24 N25 1.314 . S
C24 C26 1.353 . S
C24 H30 0.930 . S
N25 Li1 1.990 . S
N25 C24 1.314 . S
N25 C28 1.279 . S
C26 C24 1.353 . S
C26 C29 1.348 . S
C26 H74 0.929 . S
C27 C28 1.358 . S
C27 C29 1.356 . S
C27 H75 0.930 1_455 S
C28 N25 1.279 . S
C28 C27 1.358 . S
C28 H31 0.930 1_455 S
C29 C26 1.348 . S
C29 C27 1.356 . S
H30 C24 0.930 . S
H31 C28 0.930 1_655 S
C32 C34 1.348 . S
C32 C35 1.356 . S
C32 O62 1.325 . S
N33 C36 1.314 . S
N33 C37 1.279 . S
C34 C32 1.348 . S
C34 C36 1.353 . S
C34 H76 0.929 . S
C35 C32 1.356 . S
C35 C37 1.358 . S
C35 H77 0.930 . S
C36 N33 1.314 . S
C36 C34 1.353 . S
C36 H78 0.930 . S
C37 N33 1.279 . S
C37 C35 1.358 . S
C37 H79 0.930 1_455 S
C38 C39 1.348 . S
C38 C40 1.356 . S
C38 O63 1.325 . S
C39 C38 1.348 . S
C39 C41 1.353 . S
C39 H80 0.929 . S
C40 C38 1.356 . S
C40 C42 1.358 . S
C40 H81 0.930 . S
C41 C39 1.353 . S
C41 N43 1.314 . S
C41 H82 0.930 . S
C42 C40 1.358 . S
C42 N43 1.279 . S
C42 H83 0.930 . S
N43 C41 1.314 . S
N43 C42 1.279 . S
C44 C46 1.353 . S
C44 N47 1.314 . S
C44 H50 0.930 . S
C45 N47 1.279 . S
C45 C48 1.358 . S
C45 H51 0.930 . S
C46 C44 1.353 . S
C46 C49 1.348 . S
C46 H84 0.929 . S
N47 Li2 1.990 . S
N47 C44 1.314 . S
N47 C45 1.279 . S
C48 C45 1.358 . S
C48 C49 1.356 . S
C48 H85 0.930 . S
C49 C46 1.348 . S
C49 C48 1.356 . S
H50 C44 0.930 . S
H51 C45 0.930 . S
C52 N53 1.314 1_655 S
C52 C54 1.353 . S
C52 H58 0.930 . S
N53 Li3 1.990 . S
N53 C52 1.314 1_455 S
N53 C56 1.279 . S
C54 C52 1.353 . S
C54 C57 1.348 1_655 S
C54 H86 0.929 . S
C55 C56 1.358 . S
C55 C57 1.356 . S
C55 H87 0.930 . S
C56 N53 1.279 . S
C56 C55 1.358 . S
C56 H59 0.930 . S
C57 C54 1.348 1_455 S
C57 C55 1.356 . S
H58 C52 0.930 . S
H59 C56 0.930 . S
O60 Li0 1.956 1_455 S
O60 Li1 1.970 . S
O60 Li2 1.961 . S
O60 C4 1.325 . S
O61 Li0 1.970 . S
O61 Li1 1.956 1_655 S
O61 Li3 1.961 1_655 S
O61 C10 1.325 . S
O62 Li0 1.961 1_455 S
O62 Li2 1.956 . S
O62 Li3 1.970 . S
O62 C32 1.325 . S
O63 Li1 1.961 . S
O63 Li2 1.970 . S
O63 Li3 1.956 . S
O63 C38 1.325 . S
H64 C6 0.929 . S
H65 C7 0.930 . S
H66 C8 0.930 . S
H67 C9 0.930 . S
H68 C11 0.930 . S
H69 C13 0.929 . S
H70 C14 0.930 . S
H71 C15 0.930 . S
H72 C18 0.930 . S
H73 C21 0.929 . S
H74 C26 0.929 . S
H75 C27 0.930 1_655 S
H76 C34 0.929 . S
H77 C35 0.930 . S
H78 C36 0.930 . S
H79 C37 0.930 1_655 S
H80 C39 0.929 . S
H81 C40 0.930 . S
H82 C41 0.930 . S
H83 C42 0.930 . S
H84 C46 0.929 . S
H85 C48 0.930 . S
H86 C54 0.929 . S
H87 C55 0.930 . S
Li88 N105 1.990 . S
Li88 O148 1.956 . S
Li88 O149 1.970 . S
Li88 O150 1.961 1_455 S
Li89 N113 1.990 . S
Li89 O148 1.970 . S
Li89 O149 1.956 . S
Li89 O151 1.955 1_455 S
Li90 N135 1.990 . S
Li90 O148 1.961 1_655 S
Li90 O150 1.956 . S
Li90 O151 1.970 . S
Li91 N141 1.990 . S
Li91 O149 1.961 1_655 S
Li91 O150 1.970 . S
Li91 O151 1.964 . S
C92 C94 1.348 . S
C92 C95 1.356 . S
C92 O148 1.325 . S
N93 C96 1.314 . S
N93 C97 1.279 . S
C94 C92 1.348 . S
C94 C96 1.353 . S
C94 H152 0.929 . S
C95 C92 1.356 . S
C95 C97 1.358 . S
C95 H153 0.930 . S
C96 N93 1.314 . S
C96 C94 1.353 . S
C96 H154 0.930 . S
C97 N93 1.279 . S
C97 C95 1.358 . S
C97 H155 0.930 . S
C98 C101 1.348 . S
C98 C102 1.356 . S
C98 O149 1.325 . S
C99 N100 1.279 . S
C99 C102 1.358 . S
C99 H156 0.930 . S
N100 C99 1.279 . S
N100 C103 1.314 . S
C101 C98 1.348 . S
C101 C103 1.353 . S
C101 H157 0.929 . S
C102 C98 1.356 . S
C102 C99 1.358 . S
C102 H158 0.930 1_455 S
C103 N100 1.314 . S
C103 C101 1.353 . S
C103 H159 0.930 . S
C104 N105 1.314 1_655 S
C104 C109 1.353 . S
C104 H110 0.930 . S
N105 Li88 1.990 . S
N105 C104 1.314 1_455 S
N105 C107 1.279 . S
C106 C107 1.358 . S
C106 C108 1.356 . S
C106 H160 0.930 . S
C107 N105 1.279 . S
C107 C106 1.358 . S
C107 H111 0.930 . S
C108 C106 1.356 . S
C108 C109 1.348 1_455 S
C109 C104 1.353 . S
C109 C108 1.348 1_655 S
C109 H161 0.929 . S
H110 C104 0.930 . S
H111 C107 0.930 . S
C112 N113 1.314 . S
C112 C114 1.353 . S
C112 H118 0.930 . S
N113 Li89 1.990 . S
N113 C112 1.314 . S
N113 C116 1.279 . S
C114 C112 1.353 . S
C114 C117 1.348 . S
C114 H162 0.929 . S
C115 C116 1.358 . S
C115 C117 1.356 . S
C115 H163 0.930 . S
C116 N113 1.279 . S
C116 C115 1.358 . S
C116 H119 0.930 . S
C117 C114 1.348 . S
C117 C115 1.356 . S
H118 C112 0.930 . S
H119 C116 0.930 . S
C120 C122 1.348 . S
C120 C123 1.356 . S
C120 O150 1.325 . S
N121 C124 1.314 . S
N121 C125 1.279 . S
C122 C120 1.348 . S
C122 C124 1.353 . S
C122 H164 0.929 . S
C123 C120 1.356 . S
C123 C125 1.358 . S
C123 H165 0.930 . S
C124 N121 1.314 . S
C124 C122 1.353 . S
C124 H166 0.930 . S
C125 N121 1.279 . S
C125 C123 1.358 . S
C125 H167 0.930 . S
C126 C127 1.348 . S
C126 C128 1.356 1_655 S
C126 O151 1.325 . S
C127 C126 1.348 . S
C127 C129 1.353 . S
C127 H168 0.929 . S
C128 C126 1.356 1_455 S
C128 C130 1.358 . S
C128 H169 0.930 . S
C129 C127 1.353 . S
C129 N131 1.314 . S
C129 H170 0.930 . S
C130 C128 1.358 . S
C130 N131 1.279 1_455 S
C130 H171 0.930 . S
N131 C129 1.314 . S
N131 C130 1.279 1_655 S
C132 C134 1.353 . S
C132 N135 1.314 1_455 S
C132 H138 0.930 . S
C133 N135 1.279 . S
C133 C136 1.358 . S
C133 H139 0.930 . S
C134 C132 1.353 . S
C134 C137 1.348 1_455 S
C134 H172 0.929 . S
N135 Li90 1.990 . S
N135 C132 1.314 1_655 S
N135 C133 1.279 . S
C136 C133 1.358 . S
C136 C137 1.356 . S
C136 H173 0.930 . S
C137 C134 1.348 1_655 S
C137 C136 1.356 . S
H138 C132 0.930 . S
H139 C133 0.930 . S
C140 N141 1.314 . S
C140 C142 1.353 . S
C140 H146 0.930 . S
N141 Li91 1.990 . S
N141 C140 1.314 . S
N141 C144 1.279 . S
C142 C140 1.353 . S
C142 C145 1.348 . S
C142 H174 0.929 . S
C143 C144 1.358 . S
C143 C145 1.356 . S
C143 H175 0.930 . S
C144 N141 1.279 . S
C144 C143 1.358 . S
C144 H147 0.930 . S
C145 C142 1.348 . S
C145 C143 1.356 . S
H146 C140 0.930 . S
H147 C144 0.930 . S
O148 Li88 1.956 . S
O148 Li89 1.970 . S
O148 Li90 1.961 1_455 S
O148 C92 1.325 . S
O149 Li88 1.970 . S
O149 Li89 1.956 . S
O149 Li91 1.961 1_455 S
O149 C98 1.325 . S
O150 Li88 1.961 1_655 S
O150 Li90 1.956 . S
O150 Li91 1.970 . S
O150 C120 1.325 . S
O151 Li89 1.955 1_655 S
O151 Li90 1.970 . S
O151 Li91 1.964 . S
O151 C126 1.325 . S
H152 C94 0.929 . S
H153 C95 0.930 . S
H154 C96 0.930 . S
H155 C97 0.930 . S
H156 C99 0.930 . S
H157 C101 0.929 . S
H158 C102 0.930 1_655 S
H159 C103 0.930 . S
H160 C106 0.930 . S
H161 C109 0.929 . S
H162 C114 0.929 . S
H163 C115 0.930 . S
H164 C122 0.929 . S
H165 C123 0.930 . S
H166 C124 0.930 . S
H167 C125 0.930 . S
H168 C127 0.929 . S
H169 C128 0.930 . S
H170 C129 0.930 . S
H171 C130 0.930 . S
H172 C134 0.929 . S
H173 C136 0.930 . S
H174 C142 0.929 . S
H175 C143 0.930 . S
Li176 N193 1.990 . S
Li176 O236 1.956 . S
Li176 O237 1.970 . S
Li176 O238 1.961 . S
Li177 N201 1.990 . S
Li177 O236 1.970 . S
Li177 O237 1.956 . S
Li177 O239 1.961 . S
Li178 N223 1.990 . S
Li178 O236 1.961 . S
Li178 O238 1.956 . S
Li178 O239 1.970 . S
Li179 N229 1.990 . S
Li179 O237 1.961 . S
Li179 O238 1.970 . S
Li179 O239 1.956 . S
C180 C182 1.348 . S
C180 C183 1.356 . S
C180 O236 1.325 . S
N181 C184 1.314 . S
N181 C185 1.279 . S
C182 C180 1.348 . S
C182 C184 1.353 . S
C182 H240 0.929 . S
C183 C180 1.356 . S
C183 C185 1.358 . S
C183 H241 0.930 . S
C184 N181 1.314 . S
C184 C182 1.353 . S
C184 H242 0.930 . S
C185 N181 1.279 . S
C185 C183 1.358 . S
C185 H243 0.930 . S
C186 C189 1.348 . S
C186 C190 1.356 . S
C186 O237 1.325 . S
C187 N188 1.279 . S
C187 C190 1.358 . S
C187 H244 0.930 . S
N188 C187 1.279 . S
N188 C191 1.314 . S
C189 C186 1.348 . S
C189 C191 1.353 . S
C189 H245 0.929 . S
C190 C186 1.356 . S
C190 C187 1.358 . S
C190 H246 0.930 . S
C191 N188 1.314 . S
C191 C189 1.353 . S
C191 H247 0.930 . S
C192 N193 1.314 . S
C192 C197 1.353 . S
C192 H198 0.930 . S
N193 Li176 1.990 . S
N193 C192 1.314 . S
N193 C195 1.279 . S
C194 C195 1.358 . S
C194 C196 1.356 . S
C194 H248 0.930 . S
C195 N193 1.279 . S
C195 C194 1.358 . S
C195 H199 0.930 . S
C196 C194 1.356 . S
C196 C197 1.348 . S
C197 C192 1.353 . S
C197 C196 1.348 . S
C197 H249 0.929 . S
H198 C192 0.930 . S
H199 C195 0.930 . S
C200 N201 1.314 . S
C200 C202 1.353 . S
C200 H206 0.930 . S
N201 Li177 1.990 . S
N201 C200 1.314 . S
N201 C204 1.279 . S
C202 C200 1.353 . S
C202 C205 1.348 . S
C202 H250 0.929 . S
C203 C204 1.358 . S
C203 C205 1.356 . S
C203 H251 0.930 . S
C204 N201 1.279 . S
C204 C203 1.358 . S
C204 H207 0.930 . S
C205 C202 1.348 . S
C205 C203 1.356 . S
H206 C200 0.930 . S
H207 C204 0.930 . S
C208 C210 1.348 . S
C208 C211 1.356 . S
C208 O238 1.325 . S
N209 C212 1.314 . S
N209 C213 1.279 . S
C210 C208 1.348 . S
C210 C212 1.353 . S
C210 H252 0.929 . S
C211 C208 1.356 . S
C211 C213 1.358 . S
C211 H253 0.930 . S
C212 N209 1.314 . S
C212 C210 1.353 . S
C212 H254 0.930 . S
C213 N209 1.279 . S
C213 C211 1.358 . S
C213 H255 0.930 . S
C214 C215 1.348 . S
C214 C216 1.356 . S
C214 O239 1.325 . S
C215 C214 1.348 . S
C215 C217 1.353 . S
C215 H256 0.929 . S
C216 C214 1.356 . S
C216 C218 1.358 . S
C216 H257 0.930 . S
C217 C215 1.353 . S
C217 N219 1.314 . S
C217 H258 0.930 . S
C218 C216 1.358 . S
C218 N219 1.279 . S
C218 H259 0.930 . S
N219 C217 1.314 . S
N219 C218 1.279 . S
C220 C222 1.353 . S
C220 N223 1.314 . S
C220 H226 0.930 . S
C221 N223 1.279 . S
C221 C224 1.358 . S
C221 H227 0.930 . S
C222 C220 1.353 . S
C222 C225 1.348 . S
C222 H260 0.929 . S
N223 Li178 1.990 . S
N223 C220 1.314 . S
N223 C221 1.279 . S
C224 C221 1.358 . S
C224 C225 1.356 . S
C224 H261 0.930 . S
C225 C222 1.348 . S
C225 C224 1.356 . S
H226 C220 0.930 . S
H227 C221 0.930 . S
C228 N229 1.314 . S
C228 C230 1.353 . S
C228 H234 0.930 . S
N229 Li179 1.990 . S
N229 C228 1.314 . S
N229 C232 1.279 . S
C230 C228 1.353 . S
C230 C233 1.348 . S
C230 H262 0.929 . S
C231 C232 1.358 . S
C231 C233 1.356 . S
C231 H263 0.930 . S
C232 N229 1.279 . S
C232 C231 1.358 . S
C232 H235 0.930 . S
C233 C230 1.348 . S
C233 C231 1.356 . S
H234 C228 0.930 . S
H235 C232 0.930 . S
O236 Li176 1.956 . S
O236 Li177 1.970 . S
O236 Li178 1.961 . S
O236 C180 1.325 . S
O237 Li176 1.970 . S
O237 Li177 1.956 . S
O237 Li179 1.961 . S
O237 C186 1.325 . S
O238 Li176 1.961 . S
O238 Li178 1.956 . S
O238 Li179 1.970 . S
O238 C208 1.325 . S
O239 Li177 1.961 . S
O239 Li178 1.970 . S
O239 Li179 1.956 . S
O239 C214 1.325 . S
H240 C182 0.929 . S
H241 C183 0.930 . S
H242 C184 0.930 . S
H243 C185 0.930 . S
H244 C187 0.930 . S
H245 C189 0.929 . S
H246 C190 0.930 . S
H247 C191 0.930 . S
H248 C194 0.930 . S
H249 C197 0.929 . S
H250 C202 0.929 . S
H251 C203 0.930 . S
H252 C210 0.929 . S
H253 C211 0.930 . S
H254 C212 0.930 . S
H255 C213 0.930 . S
H256 C215 0.929 . S
H257 C216 0.930 . S
H258 C217 0.930 . S
H259 C218 0.930 . S
H260 C222 0.929 . S
H261 C224 0.930 . S
H262 C230 0.929 . S
H263 C231 0.930 . S
Li264 N281 1.990 . S
Li264 O324 1.956 . S
Li264 O325 1.970 . S
Li264 O326 1.961 . S
Li265 N289 1.990 . S
Li265 O324 1.970 . S
Li265 O325 1.956 . S
Li265 O327 1.961 . S
Li266 N311 1.990 . S
Li266 O324 1.961 . S
Li266 O326 1.956 . S
Li266 O327 1.970 . S
Li267 N317 1.990 . S
Li267 O325 1.961 . S
Li267 O326 1.970 . S
Li267 O327 1.956 . S
C268 C270 1.348 . S
C268 C271 1.356 . S
C268 O324 1.325 . S
N269 C272 1.314 . S
N269 C273 1.279 . S
C270 C268 1.348 . S
C270 C272 1.353 . S
C270 H328 0.929 . S
C271 C268 1.356 . S
C271 C273 1.358 . S
C271 H329 0.930 . S
C272 N269 1.314 . S
C272 C270 1.353 . S
C272 H330 0.930 . S
C273 N269 1.279 . S
C273 C271 1.358 . S
C273 H331 0.930 . S
C274 C277 1.348 . S
C274 C278 1.356 . S
C274 O325 1.325 . S
C275 N276 1.279 . S
C275 C278 1.358 . S
C275 H332 0.930 . S
N276 C275 1.279 . S
N276 C279 1.314 . S
C277 C274 1.348 . S
C277 C279 1.353 . S
C277 H333 0.929 . S
C278 C274 1.356 . S
C278 C275 1.358 . S
C278 H334 0.930 . S
C279 N276 1.314 . S
C279 C277 1.353 . S
C279 H335 0.930 . S
C280 N281 1.314 . S
C280 C285 1.353 . S
C280 H286 0.930 . S
N281 Li264 1.990 . S
N281 C280 1.314 . S
N281 C283 1.279 . S
C282 C283 1.358 . S
C282 C284 1.356 . S
C282 H336 0.930 . S
C283 N281 1.279 . S
C283 C282 1.358 . S
C283 H287 0.930 . S
C284 C282 1.356 . S
C284 C285 1.348 . S
C285 C280 1.353 . S
C285 C284 1.348 . S
C285 H337 0.929 . S
H286 C280 0.930 . S
H287 C283 0.930 . S
C288 N289 1.314 . S
C288 C290 1.353 . S
C288 H294 0.930 . S
N289 Li265 1.990 . S
N289 C288 1.314 . S
N289 C292 1.279 . S
C290 C288 1.353 . S
C290 C293 1.348 . S
C290 H338 0.929 . S
C291 C292 1.358 . S
C291 C293 1.356 . S
C291 H339 0.930 . S
C292 N289 1.279 . S
C292 C291 1.358 . S
C292 H295 0.930 . S
C293 C290 1.348 . S
C293 C291 1.356 . S
H294 C288 0.930 . S
H295 C292 0.930 . S
C296 C298 1.348 . S
C296 C299 1.356 . S
C296 O326 1.325 . S
N297 C300 1.314 . S
N297 C301 1.279 . S
C298 C296 1.348 . S
C298 C300 1.353 . S
C298 H340 0.929 . S
C299 C296 1.356 . S
C299 C301 1.358 . S
C299 H341 0.930 . S
C300 N297 1.314 . S
C300 C298 1.353 . S
C300 H342 0.930 . S
C301 N297 1.279 . S
C301 C299 1.358 . S
C301 H343 0.930 . S
C302 C303 1.348 . S
C302 C304 1.356 . S
C302 O327 1.325 . S
C303 C302 1.348 . S
C303 C305 1.353 . S
C303 H344 0.929 . S
C304 C302 1.356 . S
C304 C306 1.358 . S
C304 H345 0.930 . S
C305 C303 1.353 . S
C305 N307 1.314 . S
C305 H346 0.930 . S
C306 C304 1.358 . S
C306 N307 1.279 . S
C306 H347 0.930 . S
N307 C305 1.314 . S
N307 C306 1.279 . S
C308 C310 1.353 . S
C308 N311 1.314 . S
C308 H314 0.930 . S
C309 N311 1.279 . S
C309 C312 1.358 . S
C309 H315 0.930 . S
C310 C308 1.353 . S
C310 C313 1.348 . S
C310 H348 0.929 . S
N311 Li266 1.990 . S
N311 C308 1.314 . S
N311 C309 1.279 . S
C312 C309 1.358 . S
C312 C313 1.356 . S
C312 H349 0.930 . S
C313 C310 1.348 . S
C313 C312 1.356 . S
H314 C308 0.930 . S
H315 C309 0.930 . S
C316 N317 1.314 . S
C316 C318 1.353 . S
C316 H322 0.930 . S
N317 Li267 1.990 . S
N317 C316 1.314 . S
N317 C320 1.279 . S
C318 C316 1.353 . S
C318 C321 1.348 . S
C318 H350 0.929 . S
C319 C320 1.358 . S
C319 C321 1.356 . S
C319 H351 0.930 . S
C320 N317 1.279 . S
C320 C319 1.358 . S
C320 H323 0.930 . S
C321 C318 1.348 . S
C321 C319 1.356 . S
H322 C316 0.930 . S
H323 C320 0.930 . S
O324 Li264 1.956 . S
O324 Li265 1.970 . S
O324 Li266 1.961 . S
O324 C268 1.325 . S
O325 Li264 1.970 . S
O325 Li265 1.956 . S
O325 Li267 1.961 . S
O325 C274 1.325 . S
O326 Li264 1.961 . S
O326 Li266 1.956 . S
O326 Li267 1.970 . S
O326 C296 1.325 . S
O327 Li265 1.961 . S
O327 Li266 1.970 . S
O327 Li267 1.956 . S
O327 C302 1.325 . S
H328 C270 0.929 . S
H329 C271 0.930 . S
H330 C272 0.930 . S
H331 C273 0.930 . S
H332 C275 0.930 . S
H333 C277 0.929 . S
H334 C278 0.930 . S
H335 C279 0.930 . S
H336 C282 0.930 . S
H337 C285 0.929 . S
H338 C290 0.929 . S
H339 C291 0.930 . S
H340 C298 0.929 . S
H341 C299 0.930 . S
H342 C300 0.930 . S
H343 C301 0.930 . S
H344 C303 0.929 . S
H345 C304 0.930 . S
H346 C305 0.930 . S
H347 C306 0.930 . S
H348 C310 0.929 . S
H349 C312 0.930 . S
H350 C318 0.929 . S
H351 C319 0.930 . S
Li352 N369 1.990 . S
Li352 O412 1.956 . S
Li352 O413 1.970 . S
Li352 O414 1.961 1_455 S
Li353 N377 1.990 . S
Li353 O412 1.970 . S
Li353 O413 1.956 . S
Li353 O415 1.961 . S
Li354 N399 1.991 1_455 S
Li354 O412 1.961 . S
Li354 O414 1.956 1_455 S
Li354 O415 1.970 . S
Li355 N405 1.990 . S
Li355 O413 1.961 1_655 S
Li355 O414 1.970 . S
Li355 O415 1.956 1_655 S
C356 C358 1.348 . S
C356 C359 1.356 . S
C356 O412 1.325 . S
N357 C360 1.314 . S
N357 C361 1.279 . S
C358 C356 1.348 . S
C358 C360 1.353 . S
C358 H416 0.929 . S
C359 C356 1.356 . S
C359 C361 1.358 . S
C359 H417 0.930 . S
C360 N357 1.314 . S
C360 C358 1.353 . S
C360 H418 0.930 . S
C361 N357 1.279 . S
C361 C359 1.358 . S
C361 H419 0.930 . S
C362 C365 1.348 . S
C362 C366 1.356 . S
C362 O413 1.325 . S
C363 N364 1.279 . S
C363 C366 1.358 . S
C363 H420 0.930 . S
N364 C363 1.279 . S
N364 C367 1.314 . S
C365 C362 1.348 . S
C365 C367 1.353 . S
C365 H421 0.929 . S
C366 C362 1.356 . S
C366 C363 1.358 . S
C366 H422 0.930 . S
C367 N364 1.314 . S
C367 C365 1.353 . S
C367 H423 0.930 . S
C368 N369 1.314 1_655 S
C368 C373 1.353 . S
C368 H374 0.930 . S
N369 Li352 1.990 . S
N369 C368 1.314 1_455 S
N369 C371 1.279 . S
C370 C371 1.358 . S
C370 C372 1.356 . S
C370 H424 0.930 . S
C371 N369 1.279 . S
C371 C370 1.358 . S
C371 H375 0.930 . S
C372 C370 1.356 . S
C372 C373 1.348 1_455 S
C373 C368 1.353 . S
C373 C372 1.348 1_655 S
C373 H425 0.929 . S
H374 C368 0.930 . S
H375 C371 0.930 . S
C376 N377 1.314 . S
C376 C378 1.353 . S
C376 H382 0.930 . S
N377 Li353 1.990 . S
N377 C376 1.314 . S
N377 C380 1.279 . S
C378 C376 1.353 . S
C378 C381 1.348 . S
C378 H426 0.929 . S
C379 C380 1.358 . S
C379 C381 1.356 . S
C379 H427 0.930 . S
C380 N377 1.279 . S
C380 C379 1.358 . S
C380 H383 0.930 . S
C381 C378 1.348 . S
C381 C379 1.356 . S
H382 C376 0.930 . S
H383 C380 0.930 . S
C384 C386 1.348 . S
C384 C387 1.356 . S
C384 O414 1.325 . S
N385 C388 1.314 . S
N385 C389 1.279 . S
C386 C384 1.348 . S
C386 C388 1.353 . S
C386 H428 0.929 . S
C387 C384 1.356 . S
C387 C389 1.358 . S
C387 H429 0.930 . S
C388 N385 1.314 . S
C388 C386 1.353 . S
C388 H430 0.930 . S
C389 N385 1.279 . S
C389 C387 1.358 . S
C389 H431 0.930 . S
C390 C391 1.348 1_455 S
C390 C392 1.356 . S
C390 O415 1.325 . S
C391 C390 1.348 1_655 S
C391 C393 1.353 . S
C391 H432 0.929 . S
C392 C390 1.356 . S
C392 C394 1.358 . S
C392 H433 0.930 . S
C393 C391 1.353 . S
C393 N395 1.314 1_655 S
C393 H434 0.930 . S
C394 C392 1.358 . S
C394 N395 1.279 . S
C394 H435 0.930 . S
N395 C393 1.314 1_455 S
N395 C394 1.279 . S
C396 C398 1.353 . S
C396 N399 1.301 1_455 S
C396 H402 0.930 . S
C397 N399 1.291 . S
C397 C400 1.358 . S
C397 H403 0.930 . S
C398 C396 1.353 . S
C398 C401 1.348 1_455 S
C398 H436 0.929 . S
N399 Li354 1.991 1_655 S
N399 C396 1.301 1_655 S
N399 C397 1.291 . S
C400 C397 1.358 . S
C400 C401 1.356 . S
C400 H437 0.930 . S
C401 C398 1.348 1_655 S
C401 C400 1.356 . S
H402 C396 0.930 . S
H403 C397 0.930 . S
C404 N405 1.314 . S
C404 C406 1.353 . S
C404 H410 0.930 . S
N405 Li355 1.990 . S
N405 C404 1.314 . S
N405 C408 1.279 . S
C406 C404 1.353 . S
C406 C409 1.348 . S
C406 H438 0.929 . S
C407 C408 1.358 . S
C407 C409 1.356 . S
C407 H439 0.930 . S
C408 N405 1.279 . S
C408 C407 1.358 . S
C408 H411 0.930 . S
C409 C406 1.348 . S
C409 C407 1.356 . S
H410 C404 0.930 . S
H411 C408 0.930 . S
O412 Li352 1.956 . S
O412 Li353 1.970 . S
O412 Li354 1.961 . S
O412 C356 1.325 . S
O413 Li352 1.970 . S
O413 Li353 1.956 . S
O413 Li355 1.961 1_455 S
O413 C362 1.325 . S
O414 Li352 1.961 1_655 S
O414 Li354 1.956 1_655 S
O414 Li355 1.970 . S
O414 C384 1.325 . S
O415 Li353 1.961 . S
O415 Li354 1.970 . S
O415 Li355 1.956 1_455 S
O415 C390 1.325 . S
H416 C358 0.929 . S
H417 C359 0.930 . S
H418 C360 0.930 . S
H419 C361 0.930 . S
H420 C363 0.930 . S
H421 C365 0.929 . S
H422 C366 0.930 . S
H423 C367 0.930 . S
H424 C370 0.930 . S
H425 C373 0.929 . S
H426 C378 0.929 . S
H427 C379 0.930 . S
H428 C386 0.929 . S
H429 C387 0.930 . S
H430 C388 0.930 . S
H431 C389 0.930 . S
H432 C391 0.929 . S
H433 C392 0.930 . S
H434 C393 0.930 . S
H435 C394 0.930 . S
H436 C398 0.929 . S
H437 C400 0.930 . S
H438 C406 0.929 . S
H439 C407 0.930 . S
Li440 N457 1.990 . S
Li440 O500 1.956 . S
Li440 O501 1.970 . S
Li440 O502 1.961 . S
Li441 N465 1.990 . S
Li441 O500 1.970 . S
Li441 O501 1.956 . S
Li441 O503 1.961 . S
Li442 N487 1.990 . S
Li442 O500 1.961 . S
Li442 O502 1.956 . S
Li442 O503 1.970 . S
Li443 N493 1.990 . S
Li443 O501 1.961 . S
Li443 O502 1.970 . S
Li443 O503 1.956 . S
C444 C446 1.348 . S
C444 C447 1.356 . S
C444 O500 1.325 . S
N445 C448 1.314 . S
N445 C449 1.279 . S
C446 C444 1.348 . S
C446 C448 1.353 . S
C446 H504 0.929 . S
C447 C444 1.356 . S
C447 C449 1.358 . S
C447 H505 0.930 . S
C448 N445 1.314 . S
C448 C446 1.353 . S
C448 H506 0.930 . S
C449 N445 1.279 . S
C449 C447 1.358 . S
C449 H507 0.930 . S
C450 C453 1.348 . S
C450 C454 1.356 . S
C450 O501 1.325 . S
C451 N452 1.279 . S
C451 C454 1.358 . S
C451 H508 0.930 . S
N452 C451 1.279 . S
N452 C455 1.314 . S
C453 C450 1.348 . S
C453 C455 1.353 . S
C453 H509 0.929 . S
C454 C450 1.356 . S
C454 C451 1.358 . S
C454 H510 0.930 . S
C455 N452 1.314 . S
C455 C453 1.353 . S
C455 H511 0.930 . S
C456 N457 1.314 . S
C456 C461 1.353 . S
C456 H462 0.930 . S
N457 Li440 1.990 . S
N457 C456 1.314 . S
N457 C459 1.279 . S
C458 C459 1.358 . S
C458 C460 1.356 . S
C458 H512 0.930 . S
C459 N457 1.279 . S
C459 C458 1.358 . S
C459 H463 0.930 . S
C460 C458 1.356 . S
C460 C461 1.348 . S
C461 C456 1.353 . S
C461 C460 1.348 . S
C461 H513 0.929 . S
H462 C456 0.930 . S
H463 C459 0.930 . S
C464 N465 1.314 . S
C464 C466 1.353 . S
C464 H470 0.930 . S
N465 Li441 1.990 . S
N465 C464 1.314 . S
N465 C468 1.279 . S
C466 C464 1.353 . S
C466 C469 1.348 . S
C466 H514 0.929 . S
C467 C468 1.358 . S
C467 C469 1.356 . S
C467 H515 0.930 . S
C468 N465 1.279 . S
C468 C467 1.358 . S
C468 H471 0.930 . S
C469 C466 1.348 . S
C469 C467 1.356 . S
H470 C464 0.930 . S
H471 C468 0.930 . S
C472 C474 1.348 . S
C472 C475 1.356 . S
C472 O502 1.325 . S
N473 C476 1.314 . S
N473 C477 1.279 . S
C474 C472 1.348 . S
C474 C476 1.353 . S
C474 H516 0.929 . S
C475 C472 1.356 . S
C475 C477 1.358 . S
C475 H517 0.930 . S
C476 N473 1.314 . S
C476 C474 1.353 . S
C476 H518 0.930 . S
C477 N473 1.279 . S
C477 C475 1.358 . S
C477 H519 0.930 . S
C478 C479 1.348 . S
C478 C480 1.356 . S
C478 O503 1.325 . S
C479 C478 1.348 . S
C479 C481 1.353 . S
C479 H520 0.929 . S
C480 C478 1.356 . S
C480 C482 1.358 . S
C480 H521 0.930 . S
C481 C479 1.353 . S
C481 N483 1.314 . S
C481 H522 0.930 . S
C482 C480 1.358 . S
C482 N483 1.279 . S
C482 H523 0.930 . S
N483 C481 1.314 . S
N483 C482 1.279 . S
C484 C486 1.353 . S
C484 N487 1.314 . S
C484 H490 0.930 . S
C485 N487 1.279 . S
C485 C488 1.358 . S
C485 H491 0.930 . S
C486 C484 1.353 . S
C486 C489 1.348 . S
C486 H524 0.929 . S
N487 Li442 1.990 . S
N487 C484 1.314 . S
N487 C485 1.279 . S
C488 C485 1.358 . S
C488 C489 1.356 . S
C488 H525 0.930 . S
C489 C486 1.348 . S
C489 C488 1.356 . S
H490 C484 0.930 . S
H491 C485 0.930 . S
C492 N493 1.314 . S
C492 C494 1.353 . S
C492 H498 0.930 . S
N493 Li443 1.990 . S
N493 C492 1.314 . S
N493 C496 1.279 . S
C494 C492 1.353 . S
C494 C497 1.348 . S
C494 H526 0.929 . S
C495 C496 1.358 . S
C495 C497 1.356 . S
C495 H527 0.930 . S
C496 N493 1.279 . S
C496 C495 1.358 . S
C496 H499 0.930 . S
C497 C494 1.348 . S
C497 C495 1.356 . S
H498 C492 0.930 . S
H499 C496 0.930 . S
O500 Li440 1.956 . S
O500 Li441 1.970 . S
O500 Li442 1.961 . S
O500 C444 1.325 . S
O501 Li440 1.970 . S
O501 Li441 1.956 . S
O501 Li443 1.961 . S
O501 C450 1.325 . S
O502 Li440 1.961 . S
O502 Li442 1.956 . S
O502 Li443 1.970 . S
O502 C472 1.325 . S
O503 Li441 1.961 . S
O503 Li442 1.970 . S
O503 Li443 1.956 . S
O503 C478 1.325 . S
H504 C446 0.929 . S
H505 C447 0.930 . S
H506 C448 0.930 . S
H507 C449 0.930 . S
H508 C451 0.930 . S
H509 C453 0.929 . S
H510 C454 0.930 . S
H511 C455 0.930 . S
H512 C458 0.930 . S
H513 C461 0.929 . S
H514 C466 0.929 . S
H515 C467 0.930 . S
H516 C474 0.929 . S
H517 C475 0.930 . S
H518 C476 0.930 . S
H519 C477 0.930 . S
H520 C479 0.929 . S
H521 C480 0.930 . S
H522 C481 0.930 . S
H523 C482 0.930 . S
H524 C486 0.929 . S
H525 C488 0.930 . S
H526 C494 0.929 . S
H527 C495 0.930 . S
Li528 N545 1.990 . S
Li528 O588 1.956 . S
Li528 O589 1.970 . S
Li528 O590 1.961 . S
Li529 N553 1.990 . S
Li529 O588 1.970 . S
Li529 O589 1.956 . S
Li529 O591 1.961 . S
Li530 N575 1.990 . S
Li530 O588 1.961 . S
Li530 O590 1.956 . S
Li530 O591 1.970 . S
Li531 N581 1.990 . S
Li531 O589 1.961 . S
Li531 O590 1.970 . S
Li531 O591 1.956 . S
C532 C534 1.348 . S
C532 C535 1.356 . S
C532 O588 1.325 . S
N533 C536 1.314 . S
N533 C537 1.279 . S
C534 C532 1.348 . S
C534 C536 1.353 . S
C534 H592 0.929 . S
C535 C532 1.356 . S
C535 C537 1.358 . S
C535 H593 0.930 . S
C536 N533 1.314 . S
C536 C534 1.353 . S
C536 H594 0.930 . S
C537 N533 1.279 . S
C537 C535 1.358 . S
C537 H595 0.930 . S
C538 C541 1.348 . S
C538 C542 1.356 . S
C538 O589 1.325 . S
C539 N540 1.279 . S
C539 C542 1.358 . S
C539 H596 0.930 . S
N540 C539 1.279 . S
N540 C543 1.314 . S
C541 C538 1.348 . S
C541 C543 1.353 . S
C541 H597 0.929 . S
C542 C538 1.356 . S
C542 C539 1.358 . S
C542 H598 0.930 . S
C543 N540 1.314 . S
C543 C541 1.353 . S
C543 H599 0.930 . S
C544 N545 1.314 . S
C544 C549 1.353 . S
C544 H550 0.930 . S
N545 Li528 1.990 . S
N545 C544 1.314 . S
N545 C547 1.279 . S
C546 C547 1.358 . S
C546 C548 1.356 . S
C546 H600 0.930 . S
C547 N545 1.279 . S
C547 C546 1.358 . S
C547 H551 0.930 . S
C548 C546 1.356 . S
C548 C549 1.348 . S
C549 C544 1.353 . S
C549 C548 1.348 . S
C549 H601 0.929 . S
H550 C544 0.930 . S
H551 C547 0.930 . S
C552 N553 1.314 . S
C552 C554 1.353 . S
C552 H558 0.930 . S
N553 Li529 1.990 . S
N553 C552 1.314 . S
N553 C556 1.279 . S
C554 C552 1.353 . S
C554 C557 1.348 . S
C554 H602 0.929 . S
C555 C556 1.358 . S
C555 C557 1.356 . S
C555 H603 0.930 . S
C556 N553 1.279 . S
C556 C555 1.358 . S
C556 H559 0.930 . S
C557 C554 1.348 . S
C557 C555 1.356 . S
H558 C552 0.930 . S
H559 C556 0.930 . S
C560 C562 1.348 . S
C560 C563 1.356 . S
C560 O590 1.325 . S
N561 C564 1.314 . S
N561 C565 1.279 . S
C562 C560 1.348 . S
C562 C564 1.353 . S
C562 H604 0.929 . S
C563 C560 1.356 . S
C563 C565 1.358 . S
C563 H605 0.930 . S
C564 N561 1.314 . S
C564 C562 1.353 . S
C564 H606 0.930 . S
C565 N561 1.279 . S
C565 C563 1.358 . S
C565 H607 0.930 . S
C566 C567 1.348 . S
C566 C568 1.356 . S
C566 O591 1.325 . S
C567 C566 1.348 . S
C567 C569 1.353 . S
C567 H608 0.929 . S
C568 C566 1.356 . S
C568 C570 1.358 . S
C568 H609 0.930 . S
C569 C567 1.353 . S
C569 N571 1.314 . S
C569 H610 0.930 . S
C570 C568 1.358 . S
C570 N571 1.279 . S
C570 H611 0.930 . S
N571 C569 1.314 . S
N571 C570 1.279 . S
C572 C574 1.353 . S
C572 N575 1.314 . S
C572 H578 0.930 . S
C573 N575 1.279 . S
C573 C576 1.358 . S
C573 H579 0.930 . S
C574 C572 1.353 . S
C574 C577 1.348 . S
C574 H612 0.929 . S
N575 Li530 1.990 . S
N575 C572 1.314 . S
N575 C573 1.279 . S
C576 C573 1.358 . S
C576 C577 1.356 . S
C576 H613 0.930 . S
C577 C574 1.348 . S
C577 C576 1.356 . S
H578 C572 0.930 . S
H579 C573 0.930 . S
C580 N581 1.314 . S
C580 C582 1.353 . S
C580 H586 0.930 . S
N581 Li531 1.990 . S
N581 C580 1.314 . S
N581 C584 1.279 . S
C582 C580 1.353 . S
C582 C585 1.348 . S
C582 H614 0.929 . S
C583 C584 1.358 . S
C583 C585 1.356 . S
C583 H615 0.930 . S
C584 N581 1.279 . S
C584 C583 1.358 . S
C584 H587 0.930 . S
C585 C582 1.348 . S
C585 C583 1.356 . S
H586 C580 0.930 . S
H587 C584 0.930 . S
O588 Li528 1.956 . S
O588 Li529 1.970 . S
O588 Li530 1.961 . S
O588 C532 1.325 . S
O589 Li528 1.970 . S
O589 Li529 1.956 . S
O589 Li531 1.961 . S
O589 C538 1.325 . S
O590 Li528 1.961 . S
O590 Li530 1.956 . S
O590 Li531 1.970 . S
O590 C560 1.325 . S
O591 Li529 1.961 . S
O591 Li530 1.970 . S
O591 Li531 1.956 . S
O591 C566 1.325 . S
H592 C534 0.929 . S
H593 C535 0.930 . S
H594 C536 0.930 . S
H595 C537 0.930 . S
H596 C539 0.930 . S
H597 C541 0.929 . S
H598 C542 0.930 . S
H599 C543 0.930 . S
H600 C546 0.930 . S
H601 C549 0.929 . S
H602 C554 0.929 . S
H603 C555 0.930 . S
H604 C562 0.929 . S
H605 C563 0.930 . S
H606 C564 0.930 . S
H607 C565 0.930 . S
H608 C567 0.929 . S
H609 C568 0.930 . S
H610 C569 0.930 . S
H611 C570 0.930 . S
H612 C574 0.929 . S
H613 C576 0.930 . S
H614 C582 0.929 . S
H615 C583 0.930 . S
Li616 N633 1.990 . S
Li616 O676 1.956 1_455 S
Li616 O677 1.970 . S
Li616 O678 1.961 . S
Li617 N641 1.990 . S
Li617 O676 1.970 . S
Li617 O677 1.956 1_655 S
Li617 O679 1.961 1_655 S
Li618 N663 1.990 . S
Li618 O676 1.961 1_455 S
Li618 O678 1.956 . S
Li618 O679 1.970 . S
Li619 N669 1.990 . S
Li619 O677 1.961 . S
Li619 O678 1.970 . S
Li619 O679 1.956 . S
C620 C622 1.348 . S
C620 C623 1.356 . S
C620 O676 1.325 . S
N621 C624 1.314 . S
N621 C625 1.279 . S
C622 C620 1.348 . S
C622 C624 1.353 . S
C622 H680 0.929 . S
C623 C620 1.356 . S
C623 C625 1.358 . S
C623 H681 0.930 . S
C624 N621 1.314 . S
C624 C622 1.353 . S
C624 H682 0.930 . S
C625 N621 1.279 . S
C625 C623 1.358 . S
C625 H683 0.930 . S
C626 C629 1.348 . S
C626 C630 1.356 . S
C626 O677 1.325 . S
C627 N628 1.279 . S
C627 C630 1.358 . S
C627 H684 0.930 . S
N628 C627 1.279 . S
N628 C631 1.314 . S
C629 C626 1.348 . S
C629 C631 1.353 . S
C629 H685 0.929 . S
C630 C626 1.356 . S
C630 C627 1.358 . S
C630 H686 0.930 . S
C631 N628 1.314 . S
C631 C629 1.353 . S
C631 H687 0.930 . S
C632 N633 1.314 . S
C632 C637 1.353 . S
C632 H638 0.930 . S
N633 Li616 1.990 . S
N633 C632 1.314 . S
N633 C635 1.279 1_455 S
C634 C635 1.358 1_455 S
C634 C636 1.356 . S
C634 H688 0.930 1_455 S
C635 N633 1.279 1_655 S
C635 C634 1.358 1_655 S
C635 H639 0.930 . S
C636 C634 1.356 . S
C636 C637 1.348 . S
C637 C632 1.353 . S
C637 C636 1.348 . S
C637 H689 0.929 . S
H638 C632 0.930 . S
H639 C635 0.930 . S
C640 N641 1.314 . S
C640 C642 1.353 . S
C640 H646 0.930 . S
N641 Li617 1.990 . S
N641 C640 1.314 . S
N641 C644 1.279 . S
C642 C640 1.353 . S
C642 C645 1.348 . S
C642 H690 0.929 . S
C643 C644 1.358 . S
C643 C645 1.356 . S
C643 H691 0.930 . S
C644 N641 1.279 . S
C644 C643 1.358 . S
C644 H647 0.930 . S
C645 C642 1.348 . S
C645 C643 1.356 . S
H646 C640 0.930 . S
H647 C644 0.930 . S
C648 C650 1.348 . S
C648 C651 1.356 . S
C648 O678 1.325 . S
N649 C652 1.314 . S
N649 C653 1.279 . S
C650 C648 1.348 . S
C650 C652 1.353 . S
C650 H692 0.929 . S
C651 C648 1.356 . S
C651 C653 1.358 . S
C651 H693 0.930 . S
C652 N649 1.314 . S
C652 C650 1.353 . S
C652 H694 0.930 . S
C653 N649 1.279 . S
C653 C651 1.358 . S
C653 H695 0.930 . S
C654 C655 1.348 . S
C654 C656 1.356 1_455 S
C654 O679 1.325 . S
C655 C654 1.348 . S
C655 C657 1.353 . S
C655 H696 0.929 . S
C656 C654 1.356 1_655 S
C656 C658 1.358 . S
C656 H697 0.930 . S
C657 C655 1.353 . S
C657 N659 1.315 1_455 S
C657 H698 0.930 . S
C658 C656 1.358 . S
C658 N659 1.279 . S
C658 H699 0.930 . S
N659 C657 1.315 1_655 S
N659 C658 1.279 . S
C660 C662 1.353 . S
C660 N663 1.314 1_655 S
C660 H666 0.930 . S
C661 N663 1.279 . S
C661 C664 1.358 . S
C661 H667 0.930 . S
C662 C660 1.353 . S
C662 C665 1.348 1_655 S
C662 H700 0.929 . S
N663 Li618 1.990 . S
N663 C660 1.314 1_455 S
N663 C661 1.279 . S
C664 C661 1.358 . S
C664 C665 1.356 . S
C664 H701 0.930 . S
C665 C662 1.348 1_455 S
C665 C664 1.356 . S
H666 C660 0.930 . S
H667 C661 0.930 . S
C668 N669 1.314 . S
C668 C670 1.353 . S
C668 H674 0.930 . S
N669 Li619 1.990 . S
N669 C668 1.314 . S
N669 C672 1.279 . S
C670 C668 1.353 . S
C670 C673 1.348 . S
C670 H702 0.929 . S
C671 C672 1.358 . S
C671 C673 1.356 . S
C671 H703 0.930 . S
C672 N669 1.279 . S
C672 C671 1.358 . S
C672 H675 0.930 . S
C673 C670 1.348 . S
C673 C671 1.356 . S
H674 C668 0.930 . S
H675 C672 0.930 . S
O676 Li616 1.956 1_655 S
O676 Li617 1.970 . S
O676 Li618 1.961 1_655 S
O676 C620 1.325 . S
O677 Li616 1.970 . S
O677 Li617 1.956 1_455 S
O677 Li619 1.961 . S
O677 C626 1.325 . S
O678 Li616 1.961 . S
O678 Li618 1.956 . S
O678 Li619 1.970 . S
O678 C648 1.325 . S
O679 Li617 1.961 1_455 S
O679 Li618 1.970 . S
O679 Li619 1.956 . S
O679 C654 1.325 . S
H680 C622 0.929 . S
H681 C623 0.930 . S
H682 C624 0.930 . S
H683 C625 0.930 . S
H684 C627 0.930 . S
H685 C629 0.929 . S
H686 C630 0.930 . S
H687 C631 0.930 . S
H688 C634 0.930 1_655 S
H689 C637 0.929 . S
H690 C642 0.929 . S
H691 C643 0.930 . S
H692 C650 0.929 . S
H693 C651 0.930 . S
H694 C652 0.930 . S
H695 C653 0.930 . S
H696 C655 0.929 . S
H697 C656 0.930 . S
H698 C657 0.930 . S
H699 C658 0.930 . S
H700 C662 0.929 . S
H701 C664 0.930 . S
H702 C670 0.929 . S
H703 C671 0.930 . S
Li704 N721 1.990 . S
Li704 O764 1.956 . S
Li704 O765 1.970 . S
Li704 O766 1.961 . S
Li705 N729 1.990 1_545 S
Li705 O764 1.970 . S
Li705 O765 1.956 . S
Li705 O767 1.961 . S
Li706 N751 1.990 . S
Li706 O764 1.961 . S
Li706 O766 1.956 . S
Li706 O767 1.970 . S
Li707 N757 1.990 . S
Li707 O765 1.961 . S
Li707 O766 1.970 . S
Li707 O767 1.956 . S
C708 C710 1.348 1_545 S
C708 C711 1.356 . S
C708 O764 1.325 . S
N709 C712 1.314 . S
N709 C713 1.279 . S
C710 C708 1.348 1_565 S
C710 C712 1.353 . S
C710 H768 0.929 . S
C711 C708 1.356 . S
C711 C713 1.358 1_545 S
C711 H769 0.930 . S
C712 N709 1.314 . S
C712 C710 1.353 . S
C712 H770 0.930 . S
C713 N709 1.279 . S
C713 C711 1.358 1_565 S
C713 H771 0.930 . S
C714 C717 1.348 . S
C714 C718 1.356 . S
C714 O765 1.325 . S
C715 N716 1.279 . S
C715 C718 1.358 . S
C715 H772 0.930 . S
N716 C715 1.279 . S
N716 C719 1.314 . S
C717 C714 1.348 . S
C717 C719 1.353 . S
C717 H773 0.929 . S
C718 C714 1.356 . S
C718 C715 1.358 . S
C718 H774 0.930 . S
C719 N716 1.314 . S
C719 C717 1.353 . S
C719 H775 0.930 . S
C720 N721 1.314 . S
C720 C725 1.353 . S
C720 H726 0.930 . S
N721 Li704 1.990 . S
N721 C720 1.314 . S
N721 C723 1.279 . S
C722 C723 1.358 . S
C722 C724 1.356 . S
C722 H776 0.930 . S
C723 N721 1.279 . S
C723 C722 1.358 . S
C723 H727 0.930 . S
C724 C722 1.356 . S
C724 C725 1.348 . S
C725 C720 1.353 . S
C725 C724 1.348 . S
C725 H777 0.929 . S
H726 C720 0.930 . S
H727 C723 0.930 . S
C728 N729 1.314 . S
C728 C730 1.353 . S
C728 H734 0.930 . S
N729 Li705 1.990 1_565 S
N729 C728 1.314 . S
N729 C732 1.279 . S
C730 C728 1.353 . S
C730 C733 1.348 . S
C730 H778 0.929 . S
C731 C732 1.358 . S
C731 C733 1.356 . S
C731 H779 0.930 . S
C732 N729 1.279 . S
C732 C731 1.358 . S
C732 H735 0.930 . S
C733 C730 1.348 . S
C733 C731 1.356 . S
H734 C728 0.930 . S
H735 C732 0.930 . S
C736 C738 1.348 . S
C736 C739 1.356 . S
C736 O766 1.325 . S
N737 C740 1.314 . S
N737 C741 1.279 . S
C738 C736 1.348 . S
C738 C740 1.353 . S
C738 H780 0.929 . S
C739 C736 1.356 . S
C739 C741 1.358 . S
C739 H781 0.930 . S
C740 N737 1.314 . S
C740 C738 1.353 . S
C740 H782 0.930 . S
C741 N737 1.279 . S
C741 C739 1.358 . S
C741 H783 0.930 . S
C742 C743 1.348 . S
C742 C744 1.356 . S
C742 O767 1.325 . S
C743 C742 1.348 . S
C743 C745 1.353 . S
C743 H784 0.929 . S
C744 C742 1.356 . S
C744 C746 1.358 . S
C744 H785 0.930 . S
C745 C743 1.353 . S
C745 N747 1.314 . S
C745 H786 0.930 . S
C746 C744 1.358 . S
C746 N747 1.279 . S
C746 H787 0.930 . S
N747 C745 1.314 . S
N747 C746 1.279 . S
C748 C750 1.353 . S
C748 N751 1.314 . S
C748 H754 0.930 . S
C749 N751 1.279 . S
C749 C752 1.358 . S
C749 H755 0.930 . S
C750 C748 1.353 . S
C750 C753 1.348 . S
C750 H788 0.929 . S
N751 Li706 1.990 . S
N751 C748 1.314 . S
N751 C749 1.279 . S
C752 C749 1.358 . S
C752 C753 1.356 . S
C752 H789 0.930 . S
C753 C750 1.348 . S
C753 C752 1.356 . S
H754 C748 0.930 . S
H755 C749 0.930 . S
C756 N757 1.314 . S
C756 C758 1.353 . S
C756 H762 0.930 . S
N757 Li707 1.990 . S
N757 C756 1.314 . S
N757 C760 1.279 . S
C758 C756 1.353 . S
C758 C761 1.348 . S
C758 H790 0.929 . S
C759 C760 1.358 . S
C759 C761 1.356 . S
C759 H791 0.930 . S
C760 N757 1.279 . S
C760 C759 1.358 . S
C760 H763 0.930 . S
C761 C758 1.348 . S
C761 C759 1.356 . S
H762 C756 0.930 . S
H763 C760 0.930 . S
O764 Li704 1.956 . S
O764 Li705 1.970 . S
O764 Li706 1.961 . S
O764 C708 1.325 . S
O765 Li704 1.970 . S
O765 Li705 1.956 . S
O765 Li707 1.961 . S
O765 C714 1.325 . S
O766 Li704 1.961 . S
O766 Li706 1.956 . S
O766 Li707 1.970 . S
O766 C736 1.325 . S
O767 Li705 1.961 . S
O767 Li706 1.970 . S
O767 Li707 1.956 . S
O767 C742 1.325 . S
H768 C710 0.929 . S
H769 C711 0.930 . S
H770 C712 0.930 . S
H771 C713 0.930 . S
H772 C715 0.930 . S
H773 C717 0.929 . S
H774 C718 0.930 . S
H775 C719 0.930 . S
H776 C722 0.930 . S
H777 C725 0.929 . S
H778 C730 0.929 . S
H779 C731 0.930 . S
H780 C738 0.929 . S
H781 C739 0.930 . S
H782 C740 0.930 . S
H783 C741 0.930 . S
H784 C743 0.929 . S
H785 C744 0.930 . S
H786 C745 0.930 . S
H787 C746 0.930 . S
H788 C750 0.929 . S
H789 C752 0.930 . S
H790 C758 0.929 . S
H791 C759 0.930 . S
Li792 N809 1.990 . S
Li792 O852 1.956 . S
Li792 O853 1.970 . S
Li792 O854 1.961 . S
Li793 N817 1.990 . S
Li793 O852 1.970 . S
Li793 O853 1.956 . S
Li793 O855 1.961 . S
Li794 N839 1.990 . S
Li794 O852 1.961 . S
Li794 O854 1.956 . S
Li794 O855 1.970 . S
Li795 N845 1.990 . S
Li795 O853 1.961 . S
Li795 O854 1.970 . S
Li795 O855 1.956 . S
C796 C798 1.348 . S
C796 C799 1.356 . S
C796 O852 1.325 . S
N797 C800 1.314 . S
N797 C801 1.279 . S
C798 C796 1.348 . S
C798 C800 1.353 . S
C798 H856 0.929 . S
C799 C796 1.356 . S
C799 C801 1.358 . S
C799 H857 0.930 . S
C800 N797 1.314 . S
C800 C798 1.353 . S
C800 H858 0.930 . S
C801 N797 1.279 . S
C801 C799 1.358 . S
C801 H859 0.930 . S
C802 C805 1.348 . S
C802 C806 1.356 . S
C802 O853 1.325 . S
C803 N804 1.279 . S
C803 C806 1.358 . S
C803 H860 0.930 . S
N804 C803 1.279 . S
N804 C807 1.314 . S
C805 C802 1.348 . S
C805 C807 1.353 . S
C805 H861 0.929 . S
C806 C802 1.356 . S
C806 C803 1.358 . S
C806 H862 0.930 . S
C807 N804 1.314 . S
C807 C805 1.353 . S
C807 H863 0.930 . S
C808 N809 1.314 . S
C808 C813 1.353 . S
C808 H814 0.930 . S
N809 Li792 1.990 . S
N809 C808 1.314 . S
N809 C811 1.279 . S
C810 C811 1.358 . S
C810 C812 1.356 . S
C810 H864 0.930 . S
C811 N809 1.279 . S
C811 C810 1.358 . S
C811 H815 0.930 . S
C812 C810 1.356 . S
C812 C813 1.348 . S
C813 C808 1.353 . S
C813 C812 1.348 . S
C813 H865 0.929 . S
H814 C808 0.930 . S
H815 C811 0.930 . S
C816 N817 1.314 . S
C816 C818 1.353 . S
C816 H822 0.930 . S
N817 Li793 1.990 . S
N817 C816 1.314 . S
N817 C820 1.279 . S
C818 C816 1.353 . S
C818 C821 1.348 . S
C818 H866 0.929 . S
C819 C820 1.358 . S
C819 C821 1.356 . S
C819 H867 0.930 . S
C820 N817 1.279 . S
C820 C819 1.358 . S
C820 H823 0.930 . S
C821 C818 1.348 . S
C821 C819 1.356 . S
H822 C816 0.930 . S
H823 C820 0.930 . S
C824 C826 1.348 . S
C824 C827 1.356 . S
C824 O854 1.325 . S
N825 C828 1.314 . S
N825 C829 1.279 . S
C826 C824 1.348 . S
C826 C828 1.353 . S
C826 H868 0.929 . S
C827 C824 1.356 . S
C827 C829 1.358 . S
C827 H869 0.930 . S
C828 N825 1.314 . S
C828 C826 1.353 . S
C828 H870 0.930 . S
C829 N825 1.279 . S
C829 C827 1.358 . S
C829 H871 0.930 . S
C830 C831 1.348 . S
C830 C832 1.356 . S
C830 O855 1.325 . S
C831 C830 1.348 . S
C831 C833 1.353 . S
C831 H872 0.929 . S
C832 C830 1.356 . S
C832 C834 1.358 . S
C832 H873 0.930 . S
C833 C831 1.353 . S
C833 N835 1.314 . S
C833 H874 0.930 . S
C834 C832 1.358 . S
C834 N835 1.279 . S
C834 H875 0.930 . S
N835 C833 1.314 . S
N835 C834 1.279 . S
C836 C838 1.353 . S
C836 N839 1.314 . S
C836 H842 0.930 . S
C837 N839 1.279 . S
C837 C840 1.358 . S
C837 H843 0.930 . S
C838 C836 1.353 . S
C838 C841 1.348 . S
C838 H876 0.929 . S
N839 Li794 1.990 . S
N839 C836 1.314 . S
N839 C837 1.279 . S
C840 C837 1.358 . S
C840 C841 1.356 . S
C840 H877 0.930 . S
C841 C838 1.348 . S
C841 C840 1.356 . S
H842 C836 0.930 . S
H843 C837 0.930 . S
C844 N845 1.314 . S
C844 C846 1.353 . S
C844 H850 0.930 . S
N845 Li795 1.990 . S
N845 C844 1.314 . S
N845 C848 1.279 . S
C846 C844 1.353 . S
C846 C849 1.348 . S
C846 H878 0.929 . S
C847 C848 1.358 . S
C847 C849 1.356 . S
C847 H879 0.930 . S
C848 N845 1.279 . S
C848 C847 1.358 . S
C848 H851 0.930 . S
C849 C846 1.348 . S
C849 C847 1.356 . S
H850 C844 0.930 . S
H851 C848 0.930 . S
O852 Li792 1.956 . S
O852 Li793 1.970 . S
O852 Li794 1.961 . S
O852 C796 1.325 . S
O853 Li792 1.970 . S
O853 Li793 1.956 . S
O853 Li795 1.961 . S
O853 C802 1.325 . S
O854 Li792 1.961 . S
O854 Li794 1.956 . S
O854 Li795 1.970 . S
O854 C824 1.325 . S
O855 Li793 1.961 . S
O855 Li794 1.970 . S
O855 Li795 1.956 . S
O855 C830 1.325 . S
H856 C798 0.929 . S
H857 C799 0.930 . S
H858 C800 0.930 . S
H859 C801 0.930 . S
H860 C803 0.930 . S
H861 C805 0.929 . S
H862 C806 0.930 . S
H863 C807 0.930 . S
H864 C810 0.930 . S
H865 C813 0.929 . S
H866 C818 0.929 . S
H867 C819 0.930 . S
H868 C826 0.929 . S
H869 C827 0.930 . S
H870 C828 0.930 . S
H871 C829 0.930 . S
H872 C831 0.929 . S
H873 C832 0.930 . S
H874 C833 0.930 . S
H875 C834 0.930 . S
H876 C838 0.929 . S
H877 C840 0.930 . S
H878 C846 0.929 . S
H879 C847 0.930 . S
Li880 N897 1.990 . S
Li880 O940 1.956 . S
Li880 O941 1.970 . S
Li880 O942 1.961 . S
Li881 N905 1.990 . S
Li881 O940 1.971 1_565 S
Li881 O941 1.950 1_565 S
Li881 O943 1.966 . S
Li882 N927 1.990 . S
Li882 O940 1.961 1_565 S
Li882 O942 1.956 1_565 S
Li882 O943 1.970 . S
Li883 N933 1.990 . S
Li883 O941 1.961 1_565 S
Li883 O942 1.970 1_565 S
Li883 O943 1.956 . S
C884 C886 1.348 . S
C884 C887 1.356 . S
C884 O940 1.325 . S
N885 C888 1.314 . S
N885 C889 1.279 . S
C886 C884 1.348 . S
C886 C888 1.353 . S
C886 H944 0.929 . S
C887 C884 1.356 . S
C887 C889 1.358 . S
C887 H945 0.930 . S
C888 N885 1.314 . S
C888 C886 1.353 . S
C888 H946 0.930 . S
C889 N885 1.279 . S
C889 C887 1.358 . S
C889 H947 0.930 . S
C890 C893 1.348 . S
C890 C894 1.356 . S
C890 O941 1.325 . S
C891 N892 1.279 . S
C891 C894 1.358 . S
C891 H948 0.930 . S
N892 C891 1.279 . S
N892 C895 1.314 . S
C893 C890 1.348 . S
C893 C895 1.353 . S
C893 H949 0.929 . S
C894 C890 1.356 . S
C894 C891 1.358 . S
C894 H950 0.930 . S
C895 N892 1.314 . S
C895 C893 1.353 . S
C895 H951 0.930 . S
C896 N897 1.314 . S
C896 C901 1.353 . S
C896 H902 0.930 . S
N897 Li880 1.990 . S
N897 C896 1.314 . S
N897 C899 1.279 . S
C898 C899 1.358 . S
C898 C900 1.356 . S
C898 H952 0.930 . S
C899 N897 1.279 . S
C899 C898 1.358 . S
C899 H903 0.930 . S
C900 C898 1.356 . S
C900 C901 1.348 . S
C901 C896 1.353 . S
C901 C900 1.348 . S
C901 H953 0.929 . S
H902 C896 0.930 . S
H903 C899 0.930 . S
C904 N905 1.314 . S
C904 C906 1.353 . S
C904 H910 0.930 . S
N905 Li881 1.990 . S
N905 C904 1.314 . S
N905 C908 1.279 1_565 S
C906 C904 1.353 . S
C906 C909 1.348 . S
C906 H954 0.929 . S
C907 C908 1.358 . S
C907 C909 1.356 1_545 S
C907 H955 0.930 . S
C908 N905 1.279 1_545 S
C908 C907 1.358 . S
C908 H911 0.930 . S
C909 C906 1.348 . S
C909 C907 1.356 1_565 S
H910 C904 0.930 . S
H911 C908 0.930 . S
C912 C914 1.348 1_545 S
C912 C915 1.356 . S
C912 O942 1.325 . S
N913 C916 1.314 1_545 S
N913 C917 1.279 . S
C914 C912 1.348 1_565 S
C914 C916 1.353 . S
C914 H956 0.929 . S
C915 C912 1.356 . S
C915 C917 1.358 . S
C915 H957 0.930 . S
C916 N913 1.314 1_565 S
C916 C914 1.353 . S
C916 H958 0.930 . S
C917 N913 1.279 . S
C917 C915 1.358 . S
C917 H959 0.930 . S
C918 C919 1.348 . S
C918 C920 1.356 . S
C918 O943 1.325 . S
C919 C918 1.348 . S
C919 C921 1.353 . S
C919 H960 0.929 . S
C920 C918 1.356 . S
C920 C922 1.358 . S
C920 H961 0.930 . S
C921 C919 1.353 . S
C921 N923 1.314 . S
C921 H962 0.930 . S
C922 C920 1.358 . S
C922 N923 1.279 . S
C922 H963 0.930 . S
N923 C921 1.314 . S
N923 C922 1.279 . S
C924 C926 1.353 . S
C924 N927 1.314 . S
C924 H930 0.930 . S
C925 N927 1.279 . S
C925 C928 1.358 . S
C925 H931 0.930 . S
C926 C924 1.353 . S
C926 C929 1.348 . S
C926 H964 0.929 . S
N927 Li882 1.990 . S
N927 C924 1.314 . S
N927 C925 1.279 . S
C928 C925 1.358 . S
C928 C929 1.356 . S
C928 H965 0.930 . S
C929 C926 1.348 . S
C929 C928 1.356 . S
H930 C924 0.930 . S
H931 C925 0.930 . S
C932 N933 1.314 1_545 S
C932 C934 1.353 . S
C932 H938 0.930 . S
N933 Li883 1.990 . S
N933 C932 1.314 1_565 S
N933 C936 1.279 . S
C934 C932 1.353 . S
C934 C937 1.348 1_545 S
C934 H966 0.929 . S
C935 C936 1.358 . S
C935 C937 1.356 . S
C935 H967 0.930 . S
C936 N933 1.279 . S
C936 C935 1.358 . S
C936 H939 0.930 . S
C937 C934 1.348 1_565 S
C937 C935 1.356 . S
H938 C932 0.930 . S
H939 C936 0.930 . S
O940 Li880 1.956 . S
O940 Li881 1.971 1_545 S
O940 Li882 1.961 1_545 S
O940 C884 1.325 . S
O941 Li880 1.970 . S
O941 Li881 1.950 1_545 S
O941 Li883 1.961 1_545 S
O941 C890 1.325 . S
O942 Li880 1.961 . S
O942 Li882 1.956 1_545 S
O942 Li883 1.970 1_545 S
O942 C912 1.325 . S
O943 Li881 1.966 . S
O943 Li882 1.970 . S
O943 Li883 1.956 . S
O943 C918 1.325 . S
H944 C886 0.929 . S
H945 C887 0.930 . S
H946 C888 0.930 . S
H947 C889 0.930 . S
H948 C891 0.930 . S
H949 C893 0.929 . S
H950 C894 0.930 . S
H951 C895 0.930 . S
H952 C898 0.930 . S
H953 C901 0.929 . S
H954 C906 0.929 . S
H955 C907 0.930 . S
H956 C914 0.929 . S
H957 C915 0.930 . S
H958 C916 0.930 . S
H959 C917 0.930 . S
H960 C919 0.929 . S
H961 C920 0.930 . S
H962 C921 0.930 . S
H963 C922 0.930 . S
H964 C926 0.929 . S
H965 C928 0.930 . S
H966 C934 0.929 . S
H967 C935 0.930 . S
Li968 N985 1.990 . S
Li968 O1028 1.956 . S
Li968 O1029 1.970 . S
Li968 O1030 1.961 . S
Li969 N993 1.990 . S
Li969 O1028 1.970 . S
Li969 O1029 1.956 . S
Li969 O1031 1.961 . S
Li970 N1015 1.990 . S
Li970 O1028 1.961 . S
Li970 O1030 1.956 . S
Li970 O1031 1.970 . S
Li971 N1021 1.990 1_554 S
Li971 O1029 1.961 . S
Li971 O1030 1.970 . S
Li971 O1031 1.956 . S
C972 C974 1.348 . S
C972 C975 1.356 . S
C972 O1028 1.325 . S
N973 C976 1.314 . S
N973 C977 1.279 . S
C974 C972 1.348 . S
C974 C976 1.353 . S
C974 H1032 0.929 . S
C975 C972 1.356 . S
C975 C977 1.358 . S
C975 H1033 0.930 . S
C976 N973 1.314 . S
C976 C974 1.353 . S
C976 H1034 0.930 . S
C977 N973 1.279 . S
C977 C975 1.358 . S
C977 H1035 0.930 . S
C978 C981 1.348 . S
C978 C982 1.356 . S
C978 O1029 1.325 . S
C979 N980 1.279 . S
C979 C982 1.358 . S
C979 H1036 0.930 . S
N980 C979 1.279 . S
N980 C983 1.314 . S
C981 C978 1.348 . S
C981 C983 1.353 . S
C981 H1037 0.929 . S
C982 C978 1.356 . S
C982 C979 1.358 . S
C982 H1038 0.930 . S
C983 N980 1.314 . S
C983 C981 1.353 . S
C983 H1039 0.930 . S
C984 N985 1.314 . S
C984 C989 1.353 . S
C984 H990 0.930 1_554 S
N985 Li968 1.990 . S
N985 C984 1.314 . S
N985 C987 1.279 . S
C986 C987 1.358 . S
C986 C988 1.356 . S
C986 H1040 0.930 . S
C987 N985 1.279 . S
C987 C986 1.358 . S
C987 H991 0.930 . S
C988 C986 1.356 . S
C988 C989 1.348 . S
C989 C984 1.353 . S
C989 C988 1.348 . S
C989 H1041 0.929 1_554 S
H990 C984 0.930 1_556 S
H991 C987 0.930 . S
C992 N993 1.314 . S
C992 C994 1.353 . S
C992 H998 0.930 . S
N993 Li969 1.990 . S
N993 C992 1.314 . S
N993 C996 1.279 . S
C994 C992 1.353 . S
C994 C997 1.348 . S
C994 H1042 0.929 . S
C995 C996 1.358 . S
C995 C997 1.356 . S
C995 H1043 0.930 . S
C996 N993 1.279 . S
C996 C995 1.358 . S
C996 H999 0.930 . S
C997 C994 1.348 . S
C997 C995 1.356 . S
H998 C992 0.930 . S
H999 C996 0.930 . S
C1000 C1002 1.348 . S
C1000 C1003 1.356 . S
C1000 O1030 1.325 1_556 S
N1001 C1004 1.314 . S
N1001 C1005 1.279 . S
C1002 C1000 1.348 . S
C1002 C1004 1.353 . S
C1002 H1044 0.929 . S
C1003 C1000 1.356 . S
C1003 C1005 1.358 . S
C1003 H1045 0.899 1_556 S
C1004 N1001 1.314 . S
C1004 C1002 1.353 . S
C1004 H1046 0.930 . S
C1005 N1001 1.279 . S
C1005 C1003 1.358 . S
C1005 H1047 0.930 . S
C1006 C1007 1.348 . S
C1006 C1008 1.356 . S
C1006 O1031 1.325 . S
C1007 C1006 1.348 . S
C1007 C1009 1.353 . S
C1007 H1048 0.929 . S
C1008 C1006 1.356 . S
C1008 C1010 1.358 . S
C1008 H1049 0.930 . S
C1009 C1007 1.353 . S
C1009 N1011 1.314 . S
C1009 H1050 0.930 . S
C1010 C1008 1.358 . S
C1010 N1011 1.279 . S
C1010 H1051 0.930 . S
N1011 C1009 1.314 . S
N1011 C1010 1.279 . S
C1012 C1014 1.353 . S
C1012 N1015 1.314 . S
C1012 H1018 0.930 . S
C1013 N1015 1.279 . S
C1013 C1016 1.358 . S
C1013 H1019 0.930 1_554 S
C1014 C1012 1.353 . S
C1014 C1017 1.348 . S
C1014 H1052 0.929 . S
N1015 Li970 1.990 . S
N1015 C1012 1.314 . S
N1015 C1013 1.279 . S
C1016 C1013 1.358 . S
C1016 C1017 1.356 . S
C1016 H1053 0.930 . S
C1017 C1014 1.348 . S
C1017 C1016 1.356 . S
H1018 C1012 0.930 . S
H1019 C1013 0.930 1_556 S
C1020 N1021 1.314 . S
C1020 C1022 1.353 . S
C1020 H1026 0.930 . S
N1021 Li971 1.990 1_556 S
N1021 C1020 1.314 . S
N1021 C1024 1.279 . S
C1022 C1020 1.353 . S
C1022 C1025 1.348 . S
C1022 H1054 0.929 . S
C1023 C1024 1.358 . S
C1023 C1025 1.356 . S
C1023 H1055 0.930 . S
C1024 N1021 1.279 . S
C1024 C1023 1.358 . S
C1024 H1027 0.930 . S
C1025 C1022 1.348 . S
C1025 C1023 1.356 . S
H1026 C1020 0.930 . S
H1027 C1024 0.930 . S
O1028 Li968 1.956 . S
O1028 Li969 1.970 . S
O1028 Li970 1.961 . S
O1028 C972 1.325 . S
O1029 Li968 1.970 . S
O1029 Li969 1.956 . S
O1029 Li971 1.961 . S
O1029 C978 1.325 . S
O1030 Li968 1.961 . S
O1030 Li970 1.956 . S
O1030 Li971 1.970 . S
O1030 C1000 1.325 1_554 S
O1031 Li969 1.961 . S
O1031 Li970 1.970 . S
O1031 Li971 1.956 . S
O1031 C1006 1.325 . S
H1032 C974 0.929 . S
H1033 C975 0.930 . S
H1034 C976 0.930 . S
H1035 C977 0.930 . S
H1036 C979 0.930 . S
H1037 C981 0.929 . S
H1038 C982 0.930 . S
H1039 C983 0.930 . S
H1040 C986 0.930 . S
H1041 C989 0.929 1_556 S
H1042 C994 0.929 . S
H1043 C995 0.930 . S
H1044 C1002 0.929 . S
H1045 C1003 0.899 1_554 S
H1046 C1004 0.930 . S
H1047 C1005 0.930 . S
H1048 C1007 0.929 . S
H1049 C1008 0.930 . S
H1050 C1009 0.930 . S
H1051 C1010 0.930 . S
H1052 C1014 0.929 . S
H1053 C1016 0.930 . S
H1054 C1022 0.929 . S
H1055 C1023 0.930 . S
Li1056 N1073 1.990 . S
Li1056 O1116 1.956 . S
Li1056 O1117 1.970 . S
Li1056 O1118 1.963 . S
Li1057 N1081 1.990 . S
Li1057 O1116 1.970 . S
Li1057 O1117 1.956 . S
Li1057 O1119 1.961 . S
Li1058 N1103 1.990 . S
Li1058 O1116 1.961 . S
Li1058 O1118 1.958 . S
Li1058 O1119 1.970 . S
Li1059 N1109 1.990 1_554 S
Li1059 O1117 1.961 . S
Li1059 O1118 1.971 . S
Li1059 O1119 1.956 . S
C1060 C1062 1.348 . S
C1060 C1063 1.356 . S
C1060 O1116 1.325 . S
N1061 C1064 1.314 . S
N1061 C1065 1.279 . S
C1062 C1060 1.348 . S
C1062 C1064 1.353 . S
C1062 H1120 0.929 . S
C1063 C1060 1.356 . S
C1063 C1065 1.358 . S
C1063 H1121 0.930 . S
C1064 N1061 1.314 . S
C1064 C1062 1.353 . S
C1064 H1122 0.930 . S
C1065 N1061 1.279 . S
C1065 C1063 1.358 . S
C1065 H1123 0.930 . S
C1066 C1069 1.348 . S
C1066 C1070 1.356 . S
C1066 O1117 1.325 . S
C1067 N1068 1.279 . S
C1067 C1070 1.358 . S
C1067 H1124 0.930 . S
N1068 C1067 1.279 . S
N1068 C1071 1.314 . S
C1069 C1066 1.348 . S
C1069 C1071 1.353 . S
C1069 H1125 0.929 . S
C1070 C1066 1.356 . S
C1070 C1067 1.358 . S
C1070 H1126 0.930 . S
C1071 N1068 1.314 . S
C1071 C1069 1.353 . S
C1071 H1127 0.930 . S
C1072 N1073 1.314 . S
C1072 C1077 1.353 . S
C1072 H1078 0.930 1_554 S
N1073 Li1056 1.990 . S
N1073 C1072 1.314 . S
N1073 C1075 1.279 . S
C1074 C1075 1.358 . S
C1074 C1076 1.356 . S
C1074 H1128 0.930 . S
C1075 N1073 1.279 . S
C1075 C1074 1.358 . S
C1075 H1079 0.930 . S
C1076 C1074 1.356 . S
C1076 C1077 1.348 . S
C1077 C1072 1.353 . S
C1077 C1076 1.348 . S
C1077 H1129 0.929 1_554 S
H1078 C1072 0.930 1_556 S
H1079 C1075 0.930 . S
C1080 N1081 1.314 . S
C1080 C1082 1.353 . S
C1080 H1086 0.930 . S
N1081 Li1057 1.990 . S
N1081 C1080 1.314 . S
N1081 C1084 1.279 . S
C1082 C1080 1.353 . S
C1082 C1085 1.348 . S
C1082 H1130 0.929 . S
C1083 C1084 1.358 . S
C1083 C1085 1.356 . S
C1083 H1131 0.930 . S
C1084 N1081 1.279 . S
C1084 C1083 1.358 . S
C1084 H1087 0.930 . S
C1085 C1082 1.348 . S
C1085 C1083 1.356 . S
H1086 C1080 0.930 . S
H1087 C1084 0.930 . S
C1088 C1090 1.348 . S
C1088 C1091 1.356 . S
C1088 O1118 1.322 1_556 S
N1089 C1092 1.314 . S
N1089 C1093 1.279 . S
C1090 C1088 1.348 . S
C1090 C1092 1.353 . S
C1090 H1132 0.929 . S
C1091 C1088 1.356 . S
C1091 C1093 1.358 . S
C1091 H1133 0.971 . S
C1092 N1089 1.314 . S
C1092 C1090 1.353 . S
C1092 H1134 0.930 . S
C1093 N1089 1.279 . S
C1093 C1091 1.358 . S
C1093 H1135 0.930 . S
C1094 C1095 1.348 . S
C1094 C1096 1.356 . S
C1094 O1119 1.325 . S
C1095 C1094 1.348 . S
C1095 C1097 1.353 . S
C1095 H1136 0.929 . S
C1096 C1094 1.356 . S
C1096 C1098 1.358 . S
C1096 H1137 0.930 . S
C1097 C1095 1.353 . S
C1097 N1099 1.314 . S
C1097 H1138 0.930 . S
C1098 C1096 1.358 . S
C1098 N1099 1.279 . S
C1098 H1139 0.930 . S
N1099 C1097 1.314 . S
N1099 C1098 1.279 . S
C1100 C1102 1.353 . S
C1100 N1103 1.314 . S
C1100 H1106 0.930 . S
C1101 N1103 1.279 . S
C1101 C1104 1.358 . S
C1101 H1107 0.930 1_554 S
C1102 C1100 1.353 . S
C1102 C1105 1.348 . S
C1102 H1140 0.929 . S
N1103 Li1058 1.990 . S
N1103 C1100 1.314 . S
N1103 C1101 1.279 . S
C1104 C1101 1.358 . S
C1104 C1105 1.356 . S
C1104 H1141 0.919 1_554 S
C1105 C1102 1.348 . S
C1105 C1104 1.356 . S
H1106 C1100 0.930 . S
H1107 C1101 0.930 1_556 S
C1108 N1109 1.314 . S
C1108 C1110 1.353 . S
C1108 H1114 0.930 . S
N1109 Li1059 1.990 1_556 S
N1109 C1108 1.314 . S
N1109 C1112 1.279 . S
C1110 C1108 1.353 . S
C1110 C1113 1.348 . S
C1110 H1142 0.929 . S
C1111 C1112 1.358 . S
C1111 C1113 1.356 . S
C1111 H1143 0.930 . S
C1112 N1109 1.279 . S
C1112 C1111 1.358 . S
C1112 H1115 0.930 . S
C1113 C1110 1.348 . S
C1113 C1111 1.356 . S
H1114 C1108 0.930 . S
H1115 C1112 0.930 . S
O1116 Li1056 1.956 . S
O1116 Li1057 1.970 . S
O1116 Li1058 1.961 . S
O1116 C1060 1.325 . S
O1117 Li1056 1.970 . S
O1117 Li1057 1.956 . S
O1117 Li1059 1.961 . S
O1117 C1066 1.325 . S
O1118 Li1056 1.963 . S
O1118 Li1058 1.958 . S
O1118 Li1059 1.971 . S
O1118 C1088 1.322 1_554 S
O1119 Li1057 1.961 . S
O1119 Li1058 1.970 . S
O1119 Li1059 1.956 . S
O1119 C1094 1.325 . S
H1120 C1062 0.929 . S
H1121 C1063 0.930 . S
H1122 C1064 0.930 . S
H1123 C1065 0.930 . S
H1124 C1067 0.930 . S
H1125 C1069 0.929 . S
H1126 C1070 0.930 . S
H1127 C1071 0.930 . S
H1128 C1074 0.930 . S
H1129 C1077 0.929 1_556 S
H1130 C1082 0.929 . S
H1131 C1083 0.930 . S
H1132 C1090 0.929 . S
H1133 C1091 0.971 . S
H1134 C1092 0.930 . S
H1135 C1093 0.930 . S
H1136 C1095 0.929 . S
H1137 C1096 0.930 . S
H1138 C1097 0.930 . S
H1139 C1098 0.930 . S
H1140 C1102 0.929 . S
H1141 C1104 0.919 1_556 S
H1142 C1110 0.929 . S
H1143 C1111 0.930 . S
Li1144 N1161 1.990 . S
Li1144 O1204 1.956 . S
Li1144 O1205 1.970 . S
Li1144 O1206 1.968 . S
Li1145 N1169 1.990 . S
Li1145 O1204 1.970 . S
Li1145 O1205 1.956 . S
Li1145 O1207 1.961 1_554 S
Li1146 N1191 1.990 . S
Li1146 O1204 1.961 1_556 S
Li1146 O1206 1.948 1_556 S
Li1146 O1207 1.970 . S
Li1147 N1197 1.990 . S
Li1147 O1205 1.961 1_556 S
Li1147 O1206 1.970 1_556 S
Li1147 O1207 1.956 . S
C1148 C1150 1.348 . S
C1148 C1151 1.364 . S
C1148 O1204 1.325 . S
N1149 C1152 1.314 . S
N1149 C1153 1.279 . S
C1150 C1148 1.348 . S
C1150 C1152 1.353 . S
C1150 H1208 0.929 . S
C1151 C1148 1.364 . S
C1151 C1153 1.358 . S
C1151 H1209 0.924 1_554 S
C1152 N1149 1.314 . S
C1152 C1150 1.353 . S
C1152 H1210 0.930 . S
C1153 N1149 1.279 . S
C1153 C1151 1.358 . S
C1153 H1211 0.931 1_554 S
C1154 C1157 1.348 . S
C1154 C1158 1.356 . S
C1154 O1205 1.325 . S
C1155 N1156 1.279 . S
C1155 C1158 1.358 . S
C1155 H1212 0.930 . S
N1156 C1155 1.279 . S
N1156 C1159 1.314 . S
C1157 C1154 1.348 . S
C1157 C1159 1.353 . S
C1157 H1213 0.929 . S
C1158 C1154 1.356 . S
C1158 C1155 1.358 . S
C1158 H1214 0.930 . S
C1159 N1156 1.314 . S
C1159 C1157 1.353 . S
C1159 H1215 0.930 . S
C1160 N1161 1.314 . S
C1160 C1165 1.353 . S
C1160 H1166 0.930 . S
N1161 Li1144 1.990 . S
N1161 C1160 1.314 . S
N1161 C1163 1.279 . S
C1162 C1163 1.358 . S
C1162 C1164 1.356 . S
C1162 H1216 0.930 . S
C1163 N1161 1.279 . S
C1163 C1162 1.358 . S
C1163 H1167 0.930 . S
C1164 C1162 1.356 . S
C1164 C1165 1.348 . S
C1165 C1160 1.353 . S
C1165 C1164 1.348 . S
C1165 H1217 0.929 . S
H1166 C1160 0.930 . S
H1167 C1163 0.930 . S
C1168 N1169 1.314 1_556 S
C1168 C1170 1.353 . S
C1168 H1174 0.930 . S
N1169 Li1145 1.990 . S
N1169 C1168 1.314 1_554 S
N1169 C1172 1.279 . S
C1170 C1168 1.353 . S
C1170 C1173 1.348 1_556 S
C1170 H1218 0.929 . S
C1171 C1172 1.358 . S
C1171 C1173 1.356 . S
C1171 H1219 0.930 . S
C1172 N1169 1.279 . S
C1172 C1171 1.358 . S
C1172 H1175 0.930 . S
C1173 C1170 1.348 1_554 S
C1173 C1171 1.356 . S
H1174 C1168 0.930 . S
H1175 C1172 0.930 . S
C1176 C1178 1.354 . S
C1176 C1179 1.352 1_556 S
C1176 O1206 1.325 1_556 S
N1177 C1180 1.314 . S
N1177 C1181 1.279 1_556 S
C1178 C1176 1.354 . S
C1178 C1180 1.353 . S
C1178 H1220 0.929 . S
C1179 C1176 1.352 1_554 S
C1179 C1181 1.358 . S
C1179 H1221 0.930 . S
C1180 N1177 1.314 . S
C1180 C1178 1.353 . S
C1180 H1222 0.930 . S
C1181 N1177 1.279 1_554 S
C1181 C1179 1.358 . S
C1181 H1223 0.930 . S
C1182 C1183 1.348 . S
C1182 C1184 1.356 . S
C1182 O1207 1.325 . S
C1183 C1182 1.348 . S
C1183 C1185 1.353 . S
C1183 H1224 0.929 . S
C1184 C1182 1.356 . S
C1184 C1186 1.358 . S
C1184 H1225 0.930 . S
C1185 C1183 1.353 . S
C1185 N1187 1.314 . S
C1185 H1226 0.930 . S
C1186 C1184 1.358 . S
C1186 N1187 1.279 . S
C1186 H1227 0.930 . S
N1187 C1185 1.314 . S
N1187 C1186 1.279 . S
C1188 C1190 1.353 . S
C1188 N1191 1.314 . S
C1188 H1194 0.930 . S
C1189 N1191 1.279 . S
C1189 C1192 1.358 . S
C1189 H1195 0.930 . S
C1190 C1188 1.353 . S
C1190 C1193 1.348 . S
C1190 H1228 0.929 . S
N1191 Li1146 1.990 . S
N1191 C1188 1.314 . S
N1191 C1189 1.279 . S
C1192 C1189 1.358 . S
C1192 C1193 1.356 . S
C1192 H1229 0.930 . S
C1193 C1190 1.348 . S
C1193 C1192 1.356 . S
H1194 C1188 0.930 . S
H1195 C1189 0.930 . S
C1196 N1197 1.314 1_554 S
C1196 C1198 1.353 . S
C1196 H1202 0.930 . S
N1197 Li1147 1.990 . S
N1197 C1196 1.314 1_556 S
N1197 C1200 1.279 . S
C1198 C1196 1.353 . S
C1198 C1201 1.348 1_554 S
C1198 H1230 0.929 . S
C1199 C1200 1.358 . S
C1199 C1201 1.356 . S
C1199 H1231 0.930 . S
C1200 N1197 1.279 . S
C1200 C1199 1.358 . S
C1200 H1203 0.930 . S
C1201 C1198 1.348 1_556 S
C1201 C1199 1.356 . S
H1202 C1196 0.930 . S
H1203 C1200 0.930 . S
O1204 Li1144 1.956 . S
O1204 Li1145 1.970 . S
O1204 Li1146 1.961 1_554 S
O1204 C1148 1.325 . S
O1205 Li1144 1.970 . S
O1205 Li1145 1.956 . S
O1205 Li1147 1.961 1_554 S
O1205 C1154 1.325 . S
O1206 Li1144 1.968 . S
O1206 Li1146 1.948 1_554 S
O1206 Li1147 1.970 1_554 S
O1206 C1176 1.325 1_554 S
O1207 Li1145 1.961 1_556 S
O1207 Li1146 1.970 . S
O1207 Li1147 1.956 . S
O1207 C1182 1.325 . S
H1208 C1150 0.929 . S
H1209 C1151 0.924 1_556 S
H1210 C1152 0.930 . S
H1211 C1153 0.931 1_556 S
H1212 C1155 0.930 . S
H1213 C1157 0.929 . S
H1214 C1158 0.930 . S
H1215 C1159 0.930 . S
H1216 C1162 0.930 . S
H1217 C1165 0.929 . S
H1218 C1170 0.929 . S
H1219 C1171 0.930 . S
H1220 C1178 0.929 . S
H1221 C1179 0.930 . S
H1222 C1180 0.930 . S
H1223 C1181 0.930 . S
H1224 C1183 0.929 . S
H1225 C1184 0.930 . S
H1226 C1185 0.930 . S
H1227 C1186 0.930 . S
H1228 C1190 0.929 . S
H1229 C1192 0.930 . S
H1230 C1198 0.929 . S
H1231 C1199 0.930 . S
Li1232 N1249 1.990 . S
Li1232 O1292 1.956 . S
Li1232 O1293 1.970 . S
Li1232 O1294 1.961 . S
Li1233 N1257 1.990 . S
Li1233 O1292 1.970 . S
Li1233 O1293 1.956 . S
Li1233 O1295 1.961 . S
Li1234 N1279 1.990 . S
Li1234 O1292 1.961 . S
Li1234 O1294 1.956 . S
Li1234 O1295 1.970 . S
Li1235 N1285 1.990 . S
Li1235 O1293 1.961 . S
Li1235 O1294 1.970 . S
Li1235 O1295 1.956 . S
C1236 C1238 1.348 . S
C1236 C1239 1.356 . S
C1236 O1292 1.325 . S
N1237 C1240 1.314 . S
N1237 C1241 1.279 . S
C1238 C1236 1.348 . S
C1238 C1240 1.353 . S
C1238 H1296 0.929 . S
C1239 C1236 1.356 . S
C1239 C1241 1.358 . S
C1239 H1297 0.930 . S
C1240 N1237 1.314 . S
C1240 C1238 1.353 . S
C1240 H1298 0.930 . S
C1241 N1237 1.279 . S
C1241 C1239 1.358 . S
C1241 H1299 0.930 . S
C1242 C1245 1.348 . S
C1242 C1246 1.356 . S
C1242 O1293 1.325 . S
C1243 N1244 1.279 . S
C1243 C1246 1.358 . S
C1243 H1300 0.930 . S
N1244 C1243 1.279 . S
N1244 C1247 1.314 . S
C1245 C1242 1.348 . S
C1245 C1247 1.353 . S
C1245 H1301 0.929 . S
C1246 C1242 1.356 . S
C1246 C1243 1.358 . S
C1246 H1302 0.930 . S
C1247 N1244 1.314 . S
C1247 C1245 1.353 . S
C1247 H1303 0.930 . S
C1248 N1249 1.314 . S
C1248 C1253 1.353 . S
C1248 H1254 0.930 . S
N1249 Li1232 1.990 . S
N1249 C1248 1.314 . S
N1249 C1251 1.279 . S
C1250 C1251 1.358 . S
C1250 C1252 1.356 . S
C1250 H1304 0.930 . S
C1251 N1249 1.279 . S
C1251 C1250 1.358 . S
C1251 H1255 0.930 . S
C1252 C1250 1.356 . S
C1252 C1253 1.348 . S
C1253 C1248 1.353 . S
C1253 C1252 1.348 . S
C1253 H1305 0.929 . S
H1254 C1248 0.930 . S
H1255 C1251 0.930 . S
C1256 N1257 1.314 . S
C1256 C1258 1.353 . S
C1256 H1262 0.930 . S
N1257 Li1233 1.990 . S
N1257 C1256 1.314 . S
N1257 C1260 1.279 . S
C1258 C1256 1.353 . S
C1258 C1261 1.348 . S
C1258 H1306 0.929 . S
C1259 C1260 1.358 . S
C1259 C1261 1.356 . S
C1259 H1307 0.930 . S
C1260 N1257 1.279 . S
C1260 C1259 1.358 . S
C1260 H1263 0.930 . S
C1261 C1258 1.348 . S
C1261 C1259 1.356 . S
H1262 C1256 0.930 . S
H1263 C1260 0.930 . S
C1264 C1266 1.348 . S
C1264 C1267 1.356 . S
C1264 O1294 1.325 . S
N1265 C1268 1.314 . S
N1265 C1269 1.279 . S
C1266 C1264 1.348 . S
C1266 C1268 1.353 . S
C1266 H1308 0.929 . S
C1267 C1264 1.356 . S
C1267 C1269 1.358 . S
C1267 H1309 0.930 . S
C1268 N1265 1.314 . S
C1268 C1266 1.353 . S
C1268 H1310 0.930 . S
C1269 N1265 1.279 . S
C1269 C1267 1.358 . S
C1269 H1311 0.930 . S
C1270 C1271 1.348 . S
C1270 C1272 1.356 . S
C1270 O1295 1.325 . S
C1271 C1270 1.348 . S
C1271 C1273 1.353 . S
C1271 H1312 0.929 . S
C1272 C1270 1.356 . S
C1272 C1274 1.358 . S
C1272 H1313 0.930 . S
C1273 C1271 1.353 . S
C1273 N1275 1.314 . S
C1273 H1314 0.930 . S
C1274 C1272 1.358 . S
C1274 N1275 1.279 . S
C1274 H1315 0.930 . S
N1275 C1273 1.314 . S
N1275 C1274 1.279 . S
C1276 C1278 1.353 . S
C1276 N1279 1.314 . S
C1276 H1282 0.930 . S
C1277 N1279 1.279 . S
C1277 C1280 1.358 . S
C1277 H1283 0.930 . S
C1278 C1276 1.353 . S
C1278 C1281 1.348 . S
C1278 H1316 0.929 . S
N1279 Li1234 1.990 . S
N1279 C1276 1.314 . S
N1279 C1277 1.279 . S
C1280 C1277 1.358 . S
C1280 C1281 1.356 . S
C1280 H1317 0.930 . S
C1281 C1278 1.348 . S
C1281 C1280 1.356 . S
H1282 C1276 0.930 . S
H1283 C1277 0.930 . S
C1284 N1285 1.314 . S
C1284 C1286 1.353 . S
C1284 H1290 0.930 . S
N1285 Li1235 1.990 . S
N1285 C1284 1.314 . S
N1285 C1288 1.279 . S
C1286 C1284 1.353 . S
C1286 C1289 1.348 . S
C1286 H1318 0.929 . S
C1287 C1288 1.358 . S
C1287 C1289 1.356 . S
C1287 H1319 0.930 . S
C1288 N1285 1.279 . S
C1288 C1287 1.358 . S
C1288 H1291 0.930 . S
C1289 C1286 1.348 . S
C1289 C1287 1.356 . S
H1290 C1284 0.930 . S
H1291 C1288 0.930 . S
O1292 Li1232 1.956 . S
O1292 Li1233 1.970 . S
O1292 Li1234 1.961 . S
O1292 C1236 1.325 . S
O1293 Li1232 1.970 . S
O1293 Li1233 1.956 . S
O1293 Li1235 1.961 . S
O1293 C1242 1.325 . S
O1294 Li1232 1.961 . S
O1294 Li1234 1.956 . S
O1294 Li1235 1.970 . S
O1294 C1264 1.325 . S
O1295 Li1233 1.961 . S
O1295 Li1234 1.970 . S
O1295 Li1235 1.956 . S
O1295 C1270 1.325 . S
H1296 C1238 0.929 . S
H1297 C1239 0.930 . S
H1298 C1240 0.930 . S
H1299 C1241 0.930 . S
H1300 C1243 0.930 . S
H1301 C1245 0.929 . S
H1302 C1246 0.930 . S
H1303 C1247 0.930 . S
H1304 C1250 0.930 . S
H1305 C1253 0.929 . S
H1306 C1258 0.929 . S
H1307 C1259 0.930 . S
H1308 C1266 0.929 . S
H1309 C1267 0.930 . S
H1310 C1268 0.930 . S
H1311 C1269 0.930 . S
H1312 C1271 0.929 . S
H1313 C1272 0.930 . S
H1314 C1273 0.930 . S
H1315 C1274 0.930 . S
H1316 C1278 0.929 . S
H1317 C1280 0.930 . S
H1318 C1286 0.929 . S
H1319 C1287 0.930 . S
Li1320 N1337 1.990 . S
Li1320 O1380 1.956 . S
Li1320 O1381 1.970 . S
Li1320 O1382 1.961 . S
Li1321 N1345 1.990 . S
Li1321 O1380 1.970 . S
Li1321 O1381 1.956 . S
Li1321 O1383 1.961 . S
Li1322 N1367 1.990 . S
Li1322 O1380 1.961 . S
Li1322 O1382 1.956 . S
Li1322 O1383 1.970 . S
Li1323 N1373 1.990 . S
Li1323 O1381 1.961 . S
Li1323 O1382 1.970 . S
Li1323 O1383 1.956 . S
C1324 C1326 1.348 . S
C1324 C1327 1.356 . S
C1324 O1380 1.325 . S
N1325 C1328 1.314 . S
N1325 C1329 1.279 . S
C1326 C1324 1.348 . S
C1326 C1328 1.353 . S
C1326 H1384 0.929 . S
C1327 C1324 1.356 . S
C1327 C1329 1.358 . S
C1327 H1385 0.930 . S
C1328 N1325 1.314 . S
C1328 C1326 1.353 . S
C1328 H1386 0.930 . S
C1329 N1325 1.279 . S
C1329 C1327 1.358 . S
C1329 H1387 0.930 . S
C1330 C1333 1.348 . S
C1330 C1334 1.356 . S
C1330 O1381 1.325 . S
C1331 N1332 1.279 . S
C1331 C1334 1.358 . S
C1331 H1388 0.930 . S
N1332 C1331 1.279 . S
N1332 C1335 1.314 . S
C1333 C1330 1.348 . S
C1333 C1335 1.353 . S
C1333 H1389 0.929 . S
C1334 C1330 1.356 . S
C1334 C1331 1.358 . S
C1334 H1390 0.930 . S
C1335 N1332 1.314 . S
C1335 C1333 1.353 . S
C1335 H1391 0.930 . S
C1336 N1337 1.314 . S
C1336 C1341 1.353 . S
C1336 H1342 0.930 . S
N1337 Li1320 1.990 . S
N1337 C1336 1.314 . S
N1337 C1339 1.279 . S
C1338 C1339 1.358 . S
C1338 C1340 1.356 . S
C1338 H1392 0.930 . S
C1339 N1337 1.279 . S
C1339 C1338 1.358 . S
C1339 H1343 0.930 . S
C1340 C1338 1.356 . S
C1340 C1341 1.348 . S
C1341 C1336 1.353 . S
C1341 C1340 1.348 . S
C1341 H1393 0.929 . S
H1342 C1336 0.930 . S
H1343 C1339 0.930 . S
C1344 N1345 1.314 . S
C1344 C1346 1.353 . S
C1344 H1350 0.930 . S
N1345 Li1321 1.990 . S
N1345 C1344 1.314 . S
N1345 C1348 1.279 . S
C1346 C1344 1.353 . S
C1346 C1349 1.348 . S
C1346 H1394 0.929 . S
C1347 C1348 1.358 . S
C1347 C1349 1.356 . S
C1347 H1395 0.930 . S
C1348 N1345 1.279 . S
C1348 C1347 1.358 . S
C1348 H1351 0.930 . S
C1349 C1346 1.348 . S
C1349 C1347 1.356 . S
H1350 C1344 0.930 . S
H1351 C1348 0.930 . S
C1352 C1354 1.348 . S
C1352 C1355 1.356 . S
C1352 O1382 1.325 . S
N1353 C1356 1.314 . S
N1353 C1357 1.279 . S
C1354 C1352 1.348 . S
C1354 C1356 1.353 . S
C1354 H1396 0.929 . S
C1355 C1352 1.356 . S
C1355 C1357 1.358 . S
C1355 H1397 0.930 . S
C1356 N1353 1.314 . S
C1356 C1354 1.353 . S
C1356 H1398 0.930 . S
C1357 N1353 1.279 . S
C1357 C1355 1.358 . S
C1357 H1399 0.930 . S
C1358 C1359 1.348 . S
C1358 C1360 1.356 . S
C1358 O1383 1.325 . S
C1359 C1358 1.348 . S
C1359 C1361 1.353 . S
C1359 H1400 0.929 . S
C1360 C1358 1.356 . S
C1360 C1362 1.358 . S
C1360 H1401 0.930 . S
C1361 C1359 1.353 . S
C1361 N1363 1.314 . S
C1361 H1402 0.930 . S
C1362 C1360 1.358 . S
C1362 N1363 1.279 . S
C1362 H1403 0.930 . S
N1363 C1361 1.314 . S
N1363 C1362 1.279 . S
C1364 C1366 1.353 . S
C1364 N1367 1.314 . S
C1364 H1370 0.930 . S
C1365 N1367 1.279 . S
C1365 C1368 1.358 . S
C1365 H1371 0.930 . S
C1366 C1364 1.353 . S
C1366 C1369 1.348 . S
C1366 H1404 0.929 . S
N1367 Li1322 1.990 . S
N1367 C1364 1.314 . S
N1367 C1365 1.279 . S
C1368 C1365 1.358 . S
C1368 C1369 1.356 . S
C1368 H1405 0.930 . S
C1369 C1366 1.348 . S
C1369 C1368 1.356 . S
H1370 C1364 0.930 . S
H1371 C1365 0.930 . S
C1372 N1373 1.314 . S
C1372 C1374 1.353 . S
C1372 H1378 0.930 . S
N1373 Li1323 1.990 . S
N1373 C1372 1.314 . S
N1373 C1376 1.279 . S
C1374 C1372 1.353 . S
C1374 C1377 1.348 . S
C1374 H1406 0.929 . S
C1375 C1376 1.358 . S
C1375 C1377 1.356 . S
C1375 H1407 0.930 . S
C1376 N1373 1.279 . S
C1376 C1375 1.358 . S
C1376 H1379 0.930 . S
C1377 C1374 1.348 . S
C1377 C1375 1.356 . S
H1378 C1372 0.930 . S
H1379 C1376 0.930 . S
O1380 Li1320 1.956 . S
O1380 Li1321 1.970 . S
O1380 Li1322 1.961 . S
O1380 C1324 1.325 . S
O1381 Li1320 1.970 . S
O1381 Li1321 1.956 . S
O1381 Li1323 1.961 . S
O1381 C1330 1.325 . S
O1382 Li1320 1.961 . S
O1382 Li1322 1.956 . S
O1382 Li1323 1.970 . S
O1382 C1352 1.325 . S
O1383 Li1321 1.961 . S
O1383 Li1322 1.970 . S
O1383 Li1323 1.956 . S
O1383 C1358 1.325 . S
H1384 C1326 0.929 . S
H1385 C1327 0.930 . S
H1386 C1328 0.930 . S
H1387 C1329 0.930 . S
H1388 C1331 0.930 . S
H1389 C1333 0.929 . S
H1390 C1334 0.930 . S
H1391 C1335 0.930 . S
H1392 C1338 0.930 . S
H1393 C1341 0.929 . S
H1394 C1346 0.929 . S
H1395 C1347 0.930 . S
H1396 C1354 0.929 . S
H1397 C1355 0.930 . S
H1398 C1356 0.930 . S
H1399 C1357 0.930 . S
H1400 C1359 0.929 . S
H1401 C1360 0.930 . S
H1402 C1361 0.930 . S
H1403 C1362 0.930 . S
H1404 C1366 0.929 . S
H1405 C1368 0.930 . S
H1406 C1374 0.929 . S
H1407 C1375 0.930 . S
Li1408 N1425 1.990 . S
Li1408 O1468 1.956 . S
Li1408 O1469 1.970 . S
Li1408 O1470 1.961 . S
Li1409 N1433 1.999 . S
Li1409 O1468 1.970 . S
Li1409 O1469 1.956 . S
Li1409 O1471 1.961 . S
Li1410 N1455 1.990 . S
Li1410 O1468 1.961 . S
Li1410 O1470 1.956 . S
Li1410 O1471 1.970 . S
Li1411 N1461 1.990 . S
Li1411 O1469 1.961 . S
Li1411 O1470 1.970 . S
Li1411 O1471 1.956 . S
C1412 C1414 1.348 1_545 S
C1412 C1415 1.356 . S
C1412 O1468 1.325 . S
N1413 C1416 1.314 . S
N1413 C1417 1.302 . S
C1414 C1412 1.348 1_565 S
C1414 C1416 1.353 . S
C1414 H1472 0.929 . S
C1415 C1412 1.356 . S
C1415 C1417 1.337 1_545 S
C1415 H1473 0.930 . S
C1416 N1413 1.314 . S
C1416 C1414 1.353 . S
C1416 H1474 0.930 . S
C1417 N1413 1.302 . S
C1417 C1415 1.337 1_565 S
C1417 H1475 0.929 1_565 S
C1418 C1421 1.348 . S
C1418 C1422 1.356 . S
C1418 O1469 1.325 . S
C1419 N1420 1.279 . S
C1419 C1422 1.358 . S
C1419 H1476 0.930 . S
N1420 C1419 1.279 . S
N1420 C1423 1.314 . S
C1421 C1418 1.348 . S
C1421 C1423 1.353 . S
C1421 H1477 0.929 . S
C1422 C1418 1.356 . S
C1422 C1419 1.358 . S
C1422 H1478 0.930 . S
C1423 N1420 1.314 . S
C1423 C1421 1.353 . S
C1423 H1479 0.930 . S
C1424 N1425 1.314 . S
C1424 C1429 1.353 . S
C1424 H1430 0.930 . S
N1425 Li1408 1.990 . S
N1425 C1424 1.314 . S
N1425 C1427 1.279 . S
C1426 C1427 1.358 . S
C1426 C1428 1.356 . S
C1426 H1480 0.930 . S
C1427 N1425 1.279 . S
C1427 C1426 1.358 . S
C1427 H1431 0.930 . S
C1428 C1426 1.356 . S
C1428 C1429 1.348 . S
C1429 C1424 1.353 . S
C1429 C1428 1.348 . S
C1429 H1481 0.929 . S
H1430 C1424 0.930 . S
H1431 C1427 0.930 . S
C1432 N1433 1.308 1_565 S
C1432 C1434 1.353 . S
C1432 H1438 0.930 . S
N1433 Li1409 1.999 . S
N1433 C1432 1.308 1_545 S
N1433 C1436 1.275 1_545 S
C1434 C1432 1.353 . S
C1434 C1437 1.348 . S
C1434 H1482 0.929 . S
C1435 C1436 1.358 . S
C1435 C1437 1.356 . S
C1435 H1483 0.930 . S
C1436 N1433 1.275 1_565 S
C1436 C1435 1.358 . S
C1436 H1439 0.921 1_565 S
C1437 C1434 1.348 . S
C1437 C1435 1.356 . S
H1438 C1432 0.930 . S
H1439 C1436 0.921 1_545 S
C1440 C1442 1.348 . S
C1440 C1443 1.356 . S
C1440 O1470 1.325 . S
N1441 C1444 1.314 . S
N1441 C1445 1.279 . S
C1442 C1440 1.348 . S
C1442 C1444 1.353 . S
C1442 H1484 0.929 . S
C1443 C1440 1.356 . S
C1443 C1445 1.358 . S
C1443 H1485 0.930 . S
C1444 N1441 1.314 . S
C1444 C1442 1.353 . S
C1444 H1486 0.930 . S
C1445 N1441 1.279 . S
C1445 C1443 1.358 . S
C1445 H1487 0.930 . S
C1446 C1447 1.348 . S
C1446 C1448 1.356 . S
C1446 O1471 1.325 . S
C1447 C1446 1.348 . S
C1447 C1449 1.353 . S
C1447 H1488 0.929 . S
C1448 C1446 1.356 . S
C1448 C1450 1.358 . S
C1448 H1489 0.930 . S
C1449 C1447 1.353 . S
C1449 N1451 1.314 . S
C1449 H1490 0.930 . S
C1450 C1448 1.358 . S
C1450 N1451 1.279 . S
C1450 H1491 0.930 . S
N1451 C1449 1.314 . S
N1451 C1450 1.279 . S
C1452 C1454 1.353 . S
C1452 N1455 1.314 . S
C1452 H1458 0.930 . S
C1453 N1455 1.279 . S
C1453 C1456 1.358 . S
C1453 H1459 0.930 . S
C1454 C1452 1.353 . S
C1454 C1457 1.348 . S
C1454 H1492 0.929 . S
N1455 Li1410 1.990 . S
N1455 C1452 1.314 . S
N1455 C1453 1.279 . S
C1456 C1453 1.358 . S
C1456 C1457 1.356 . S
C1456 H1493 0.930 . S
C1457 C1454 1.348 . S
C1457 C1456 1.356 . S
H1458 C1452 0.930 . S
H1459 C1453 0.930 . S
C1460 N1461 1.314 . S
C1460 C1462 1.353 . S
C1460 H1466 0.930 . S
N1461 Li1411 1.990 . S
N1461 C1460 1.314 . S
N1461 C1464 1.279 . S
C1462 C1460 1.353 . S
C1462 C1465 1.348 . S
C1462 H1494 0.929 . S
C1463 C1464 1.358 . S
C1463 C1465 1.356 . S
C1463 H1495 0.930 . S
C1464 N1461 1.279 . S
C1464 C1463 1.358 . S
C1464 H1467 0.930 . S
C1465 C1462 1.348 . S
C1465 C1463 1.356 . S
H1466 C1460 0.930 . S
H1467 C1464 0.930 . S
O1468 Li1408 1.956 . S
O1468 Li1409 1.970 . S
O1468 Li1410 1.961 . S
O1468 C1412 1.325 . S
O1469 Li1408 1.970 . S
O1469 Li1409 1.956 . S
O1469 Li1411 1.961 . S
O1469 C1418 1.325 . S
O1470 Li1408 1.961 . S
O1470 Li1410 1.956 . S
O1470 Li1411 1.970 . S
O1470 C1440 1.325 . S
O1471 Li1409 1.961 . S
O1471 Li1410 1.970 . S
O1471 Li1411 1.956 . S
O1471 C1446 1.325 . S
H1472 C1414 0.929 . S
H1473 C1415 0.930 . S
H1474 C1416 0.930 . S
H1475 C1417 0.929 1_545 S
H1476 C1419 0.930 . S
H1477 C1421 0.929 . S
H1478 C1422 0.930 . S
H1479 C1423 0.930 . S
H1480 C1426 0.930 . S
H1481 C1429 0.929 . S
H1482 C1434 0.929 . S
H1483 C1435 0.930 . S
H1484 C1442 0.929 . S
H1485 C1443 0.930 . S
H1486 C1444 0.930 . S
H1487 C1445 0.930 . S
H1488 C1447 0.929 . S
H1489 C1448 0.930 . S
H1490 C1449 0.930 . S
H1491 C1450 0.930 . S
H1492 C1454 0.929 . S
H1493 C1456 0.930 . S
H1494 C1462 0.929 . S
H1495 C1463 0.930 . S
Li1496 N1513 1.990 . S
Li1496 O1556 1.956 . S
Li1496 O1557 1.970 . S
Li1496 O1558 1.961 . S
Li1497 N1521 1.990 . S
Li1497 O1556 1.970 . S
Li1497 O1557 1.956 . S
Li1497 O1559 1.961 . S
Li1498 N1543 1.990 . S
Li1498 O1556 1.961 . S
Li1498 O1558 1.956 . S
Li1498 O1559 1.970 . S
Li1499 N1549 1.990 . S
Li1499 O1557 1.961 . S
Li1499 O1558 1.970 . S
Li1499 O1559 1.956 . S
C1500 C1502 1.348 . S
C1500 C1503 1.356 . S
C1500 O1556 1.325 . S
N1501 C1504 1.314 . S
N1501 C1505 1.279 . S
C1502 C1500 1.348 . S
C1502 C1504 1.353 . S
C1502 H1560 0.929 . S
C1503 C1500 1.356 . S
C1503 C1505 1.358 . S
C1503 H1561 0.930 . S
C1504 N1501 1.314 . S
C1504 C1502 1.353 . S
C1504 H1562 0.930 . S
C1505 N1501 1.279 . S
C1505 C1503 1.358 . S
C1505 H1563 0.930 . S
C1506 C1509 1.348 . S
C1506 C1510 1.356 . S
C1506 O1557 1.325 . S
C1507 N1508 1.279 . S
C1507 C1510 1.358 . S
C1507 H1564 0.930 . S
N1508 C1507 1.279 . S
N1508 C1511 1.314 . S
C1509 C1506 1.348 . S
C1509 C1511 1.353 . S
C1509 H1565 0.929 . S
C1510 C1506 1.356 . S
C1510 C1507 1.358 . S
C1510 H1566 0.930 . S
C1511 N1508 1.314 . S
C1511 C1509 1.353 . S
C1511 H1567 0.930 . S
C1512 N1513 1.314 . S
C1512 C1517 1.353 . S
C1512 H1518 0.930 . S
N1513 Li1496 1.990 . S
N1513 C1512 1.314 . S
N1513 C1515 1.279 . S
C1514 C1515 1.358 . S
C1514 C1516 1.356 . S
C1514 H1568 0.930 . S
C1515 N1513 1.279 . S
C1515 C1514 1.358 . S
C1515 H1519 0.930 . S
C1516 C1514 1.356 . S
C1516 C1517 1.348 . S
C1517 C1512 1.353 . S
C1517 C1516 1.348 . S
C1517 H1569 0.929 . S
H1518 C1512 0.930 . S
H1519 C1515 0.930 . S
C1520 N1521 1.314 . S
C1520 C1522 1.353 . S
C1520 H1526 0.930 . S
N1521 Li1497 1.990 . S
N1521 C1520 1.314 . S
N1521 C1524 1.279 . S
C1522 C1520 1.353 . S
C1522 C1525 1.348 . S
C1522 H1570 0.929 . S
C1523 C1524 1.358 . S
C1523 C1525 1.356 . S
C1523 H1571 0.930 . S
C1524 N1521 1.279 . S
C1524 C1523 1.358 . S
C1524 H1527 0.930 . S
C1525 C1522 1.348 . S
C1525 C1523 1.356 . S
H1526 C1520 0.930 . S
H1527 C1524 0.930 . S
C1528 C1530 1.348 . S
C1528 C1531 1.356 . S
C1528 O1558 1.325 . S
N1529 C1532 1.314 . S
N1529 C1533 1.279 . S
C1530 C1528 1.348 . S
C1530 C1532 1.353 . S
C1530 H1572 0.929 . S
C1531 C1528 1.356 . S
C1531 C1533 1.358 . S
C1531 H1573 0.930 . S
C1532 N1529 1.314 . S
C1532 C1530 1.353 . S
C1532 H1574 0.930 . S
C1533 N1529 1.279 . S
C1533 C1531 1.358 . S
C1533 H1575 0.930 . S
C1534 C1535 1.348 . S
C1534 C1536 1.356 . S
C1534 O1559 1.325 . S
C1535 C1534 1.348 . S
C1535 C1537 1.353 . S
C1535 H1576 0.929 . S
C1536 C1534 1.356 . S
C1536 C1538 1.358 . S
C1536 H1577 0.930 . S
C1537 C1535 1.353 . S
C1537 N1539 1.314 . S
C1537 H1578 0.930 . S
C1538 C1536 1.358 . S
C1538 N1539 1.279 . S
C1538 H1579 0.930 . S
N1539 C1537 1.314 . S
N1539 C1538 1.279 . S
C1540 C1542 1.353 . S
C1540 N1543 1.314 . S
C1540 H1546 0.930 . S
C1541 N1543 1.279 . S
C1541 C1544 1.358 . S
C1541 H1547 0.930 . S
C1542 C1540 1.353 . S
C1542 C1545 1.348 . S
C1542 H1580 0.929 . S
N1543 Li1498 1.990 . S
N1543 C1540 1.314 . S
N1543 C1541 1.279 . S
C1544 C1541 1.358 . S
C1544 C1545 1.356 . S
C1544 H1581 0.930 . S
C1545 C1542 1.348 . S
C1545 C1544 1.356 . S
H1546 C1540 0.930 . S
H1547 C1541 0.930 . S
C1548 N1549 1.314 . S
C1548 C1550 1.353 . S
C1548 H1554 0.930 . S
N1549 Li1499 1.990 . S
N1549 C1548 1.314 . S
N1549 C1552 1.279 . S
C1550 C1548 1.353 . S
C1550 C1553 1.348 . S
C1550 H1582 0.929 . S
C1551 C1552 1.358 . S
C1551 C1553 1.356 . S
C1551 H1583 0.930 . S
C1552 N1549 1.279 . S
C1552 C1551 1.358 . S
C1552 H1555 0.930 . S
C1553 C1550 1.348 . S
C1553 C1551 1.356 . S
H1554 C1548 0.930 . S
H1555 C1552 0.930 . S
O1556 Li1496 1.956 . S
O1556 Li1497 1.970 . S
O1556 Li1498 1.961 . S
O1556 C1500 1.325 . S
O1557 Li1496 1.970 . S
O1557 Li1497 1.956 . S
O1557 Li1499 1.961 . S
O1557 C1506 1.325 . S
O1558 Li1496 1.961 . S
O1558 Li1498 1.956 . S
O1558 Li1499 1.970 . S
O1558 C1528 1.325 . S
O1559 Li1497 1.961 . S
O1559 Li1498 1.970 . S
O1559 Li1499 1.956 . S
O1559 C1534 1.325 . S
H1560 C1502 0.929 . S
H1561 C1503 0.930 . S
H1562 C1504 0.930 . S
H1563 C1505 0.930 . S
H1564 C1507 0.930 . S
H1565 C1509 0.929 . S
H1566 C1510 0.930 . S
H1567 C1511 0.930 . S
H1568 C1514 0.930 . S
H1569 C1517 0.929 . S
H1570 C1522 0.929 . S
H1571 C1523 0.930 . S
H1572 C1530 0.929 . S
H1573 C1531 0.930 . S
H1574 C1532 0.930 . S
H1575 C1533 0.930 . S
H1576 C1535 0.929 . S
H1577 C1536 0.930 . S
H1578 C1537 0.930 . S
H1579 C1538 0.930 . S
H1580 C1542 0.929 . S
H1581 C1544 0.930 . S
H1582 C1550 0.929 . S
H1583 C1551 0.930 . S
Li1584 N1601 1.990 . S
Li1584 O1644 1.956 . S
Li1584 O1645 1.970 . S
Li1584 O1646 1.961 . S
Li1585 N1609 1.990 . S
Li1585 O1644 1.970 . S
Li1585 O1645 1.956 . S
Li1585 O1647 1.961 . S
Li1586 N1631 1.990 . S
Li1586 O1644 1.961 . S
Li1586 O1646 1.956 . S
Li1586 O1647 1.970 . S
Li1587 N1637 1.990 . S
Li1587 O1645 1.961 . S
Li1587 O1646 1.970 . S
Li1587 O1647 1.956 . S
C1588 C1590 1.348 . S
C1588 C1591 1.356 . S
C1588 O1644 1.325 . S
N1589 C1592 1.314 . S
N1589 C1593 1.279 . S
C1590 C1588 1.348 . S
C1590 C1592 1.353 . S
C1590 H1648 0.929 . S
C1591 C1588 1.356 . S
C1591 C1593 1.358 . S
C1591 H1649 0.930 . S
C1592 N1589 1.314 . S
C1592 C1590 1.353 . S
C1592 H1650 0.930 . S
C1593 N1589 1.279 . S
C1593 C1591 1.358 . S
C1593 H1651 0.930 . S
C1594 C1597 1.348 . S
C1594 C1598 1.356 . S
C1594 O1645 1.325 . S
C1595 N1596 1.279 . S
C1595 C1598 1.358 . S
C1595 H1652 0.930 . S
N1596 C1595 1.279 . S
N1596 C1599 1.314 . S
C1597 C1594 1.348 . S
C1597 C1599 1.353 . S
C1597 H1653 0.929 . S
C1598 C1594 1.356 . S
C1598 C1595 1.358 . S
C1598 H1654 0.930 . S
C1599 N1596 1.314 . S
C1599 C1597 1.353 . S
C1599 H1655 0.930 . S
C1600 N1601 1.314 . S
C1600 C1605 1.353 . S
C1600 H1606 0.930 . S
N1601 Li1584 1.990 . S
N1601 C1600 1.314 . S
N1601 C1603 1.279 . S
C1602 C1603 1.358 . S
C1602 C1604 1.356 . S
C1602 H1656 0.930 . S
C1603 N1601 1.279 . S
C1603 C1602 1.358 . S
C1603 H1607 0.930 . S
C1604 C1602 1.356 . S
C1604 C1605 1.348 . S
C1605 C1600 1.353 . S
C1605 C1604 1.348 . S
C1605 H1657 0.929 . S
H1606 C1600 0.930 . S
H1607 C1603 0.930 . S
C1608 N1609 1.314 . S
C1608 C1610 1.353 . S
C1608 H1614 0.930 . S
N1609 Li1585 1.990 . S
N1609 C1608 1.314 . S
N1609 C1612 1.279 . S
C1610 C1608 1.353 . S
C1610 C1613 1.348 . S
C1610 H1658 0.929 . S
C1611 C1612 1.358 . S
C1611 C1613 1.356 . S
C1611 H1659 0.930 . S
C1612 N1609 1.279 . S
C1612 C1611 1.358 . S
C1612 H1615 0.930 . S
C1613 C1610 1.348 . S
C1613 C1611 1.356 . S
H1614 C1608 0.930 . S
H1615 C1612 0.930 . S
C1616 C1618 1.348 . S
C1616 C1619 1.356 . S
C1616 O1646 1.325 . S
N1617 C1620 1.314 . S
N1617 C1621 1.279 . S
C1618 C1616 1.348 . S
C1618 C1620 1.353 . S
C1618 H1660 0.929 . S
C1619 C1616 1.356 . S
C1619 C1621 1.358 . S
C1619 H1661 0.930 . S
C1620 N1617 1.314 . S
C1620 C1618 1.353 . S
C1620 H1662 0.930 . S
C1621 N1617 1.279 . S
C1621 C1619 1.358 . S
C1621 H1663 0.930 . S
C1622 C1623 1.348 . S
C1622 C1624 1.356 . S
C1622 O1647 1.325 . S
C1623 C1622 1.348 . S
C1623 C1625 1.353 . S
C1623 H1664 0.929 . S
C1624 C1622 1.356 . S
C1624 C1626 1.358 . S
C1624 H1665 0.930 . S
C1625 C1623 1.353 . S
C1625 N1627 1.314 . S
C1625 H1666 0.930 . S
C1626 C1624 1.358 . S
C1626 N1627 1.279 . S
C1626 H1667 0.930 . S
N1627 C1625 1.314 . S
N1627 C1626 1.279 . S
C1628 C1630 1.353 . S
C1628 N1631 1.314 . S
C1628 H1634 0.930 . S
C1629 N1631 1.279 . S
C1629 C1632 1.358 . S
C1629 H1635 0.930 . S
C1630 C1628 1.353 . S
C1630 C1633 1.348 . S
C1630 H1668 0.929 . S
N1631 Li1586 1.990 . S
N1631 C1628 1.314 . S
N1631 C1629 1.279 . S
C1632 C1629 1.358 . S
C1632 C1633 1.356 . S
C1632 H1669 0.930 . S
C1633 C1630 1.348 . S
C1633 C1632 1.356 . S
H1634 C1628 0.930 . S
H1635 C1629 0.930 . S
C1636 N1637 1.314 . S
C1636 C1638 1.353 . S
C1636 H1642 0.930 . S
N1637 Li1587 1.990 . S
N1637 C1636 1.314 . S
N1637 C1640 1.279 . S
C1638 C1636 1.353 . S
C1638 C1641 1.348 . S
C1638 H1670 0.929 . S
C1639 C1640 1.358 . S
C1639 C1641 1.356 . S
C1639 H1671 0.930 . S
C1640 N1637 1.279 . S
C1640 C1639 1.358 . S
C1640 H1643 0.930 . S
C1641 C1638 1.348 . S
C1641 C1639 1.356 . S
H1642 C1636 0.930 . S
H1643 C1640 0.930 . S
O1644 Li1584 1.956 . S
O1644 Li1585 1.970 . S
O1644 Li1586 1.961 . S
O1644 C1588 1.325 . S
O1645 Li1584 1.970 . S
O1645 Li1585 1.956 . S
O1645 Li1587 1.961 . S
O1645 C1594 1.325 . S
O1646 Li1584 1.961 . S
O1646 Li1586 1.956 . S
O1646 Li1587 1.970 . S
O1646 C1616 1.325 . S
O1647 Li1585 1.961 . S
O1647 Li1586 1.970 . S
O1647 Li1587 1.956 . S
O1647 C1622 1.325 . S
H1648 C1590 0.929 . S
H1649 C1591 0.930 . S
H1650 C1592 0.930 . S
H1651 C1593 0.930 . S
H1652 C1595 0.930 . S
H1653 C1597 0.929 . S
H1654 C1598 0.930 . S
H1655 C1599 0.930 . S
H1656 C1602 0.930 . S
H1657 C1605 0.929 . S
H1658 C1610 0.929 . S
H1659 C1611 0.930 . S
H1660 C1618 0.929 . S
H1661 C1619 0.930 . S
H1662 C1620 0.930 . S
H1663 C1621 0.930 . S
H1664 C1623 0.929 . S
H1665 C1624 0.930 . S
H1666 C1625 0.930 . S
H1667 C1626 0.930 . S
H1668 C1630 0.929 . S
H1669 C1632 0.930 . S
H1670 C1638 0.929 . S
H1671 C1639 0.930 . S
Li1672 N1689 1.990 . S
Li1672 O1732 1.956 . S
Li1672 O1733 1.970 . S
Li1672 O1734 1.961 1_545 S
Li1673 N1697 1.990 . S
Li1673 O1732 1.970 . S
Li1673 O1733 1.956 . S
Li1673 O1735 1.961 . S
Li1674 N1719 1.990 . S
Li1674 O1732 1.961 . S
Li1674 O1734 1.956 1_545 S
Li1674 O1735 1.970 . S
Li1675 N1725 1.990 . S
Li1675 O1733 1.961 1_565 S
Li1675 O1734 1.970 . S
Li1675 O1735 1.956 1_565 S
C1676 C1678 1.348 . S
C1676 C1679 1.356 . S
C1676 O1732 1.325 . S
N1677 C1680 1.314 . S
N1677 C1681 1.279 . S
C1678 C1676 1.348 . S
C1678 C1680 1.353 . S
C1678 H1736 0.929 . S
C1679 C1676 1.356 . S
C1679 C1681 1.358 . S
C1679 H1737 0.930 . S
C1680 N1677 1.314 . S
C1680 C1678 1.353 . S
C1680 H1738 0.930 . S
C1681 N1677 1.279 . S
C1681 C1679 1.358 . S
C1681 H1739 0.930 . S
C1682 C1685 1.348 . S
C1682 C1686 1.356 . S
C1682 O1733 1.325 . S
C1683 N1684 1.279 . S
C1683 C1686 1.358 . S
C1683 H1740 0.930 . S
N1684 C1683 1.279 . S
N1684 C1687 1.314 . S
C1685 C1682 1.348 . S
C1685 C1687 1.353 . S
C1685 H1741 0.929 . S
C1686 C1682 1.356 . S
C1686 C1683 1.358 . S
C1686 H1742 0.930 . S
C1687 N1684 1.314 . S
C1687 C1685 1.353 . S
C1687 H1743 0.930 . S
C1688 N1689 1.314 1_565 S
C1688 C1693 1.353 . S
C1688 H1694 0.930 . S
N1689 Li1672 1.990 . S
N1689 C1688 1.314 1_545 S
N1689 C1691 1.279 . S
C1690 C1691 1.358 . S
C1690 C1692 1.356 . S
C1690 H1744 0.930 . S
C1691 N1689 1.279 . S
C1691 C1690 1.358 . S
C1691 H1695 0.930 . S
C1692 C1690 1.356 . S
C1692 C1693 1.348 1_545 S
C1693 C1688 1.353 . S
C1693 C1692 1.348 1_565 S
C1693 H1745 0.929 . S
H1694 C1688 0.930 . S
H1695 C1691 0.930 . S
C1696 N1697 1.314 . S
C1696 C1698 1.353 . S
C1696 H1702 0.930 . S
N1697 Li1673 1.990 . S
N1697 C1696 1.314 . S
N1697 C1700 1.279 . S
C1698 C1696 1.353 . S
C1698 C1701 1.348 . S
C1698 H1746 0.929 . S
C1699 C1700 1.358 . S
C1699 C1701 1.356 . S
C1699 H1747 0.930 . S
C1700 N1697 1.279 . S
C1700 C1699 1.358 . S
C1700 H1703 0.930 . S
C1701 C1698 1.348 . S
C1701 C1699 1.356 . S
H1702 C1696 0.930 . S
H1703 C1700 0.930 . S
C1704 C1706 1.348 . S
C1704 C1707 1.356 . S
C1704 O1734 1.325 . S
N1705 C1708 1.314 . S
N1705 C1709 1.279 . S
C1706 C1704 1.348 . S
C1706 C1708 1.353 . S
C1706 H1748 0.929 . S
C1707 C1704 1.356 . S
C1707 C1709 1.358 . S
C1707 H1749 0.930 . S
C1708 N1705 1.314 . S
C1708 C1706 1.353 . S
C1708 H1750 0.930 . S
C1709 N1705 1.279 . S
C1709 C1707 1.358 . S
C1709 H1751 0.930 . S
C1710 C1711 1.348 . S
C1710 C1712 1.356 . S
C1710 O1735 1.325 . S
C1711 C1710 1.348 . S
C1711 C1713 1.353 . S
C1711 H1752 0.929 1_545 S
C1712 C1710 1.356 . S
C1712 C1714 1.358 . S
C1712 H1753 0.930 . S
C1713 C1711 1.353 . S
C1713 N1715 1.314 . S
C1713 H1754 0.934 . S
C1714 C1712 1.358 . S
C1714 N1715 1.279 . S
C1714 H1755 0.930 . S
N1715 C1713 1.314 . S
N1715 C1714 1.279 . S
C1716 C1718 1.353 . S
C1716 N1719 1.314 . S
C1716 H1722 0.930 . S
C1717 N1719 1.279 1_565 S
C1717 C1720 1.358 . S
C1717 H1723 0.930 . S
C1718 C1716 1.353 . S
C1718 C1721 1.383 . S
C1718 H1756 0.929 . S
N1719 Li1674 1.990 . S
N1719 C1716 1.314 . S
N1719 C1717 1.279 1_545 S
C1720 C1717 1.358 . S
C1720 C1721 1.319 1_565 S
C1720 H1757 0.930 . S
C1721 C1718 1.383 . S
C1721 C1720 1.319 1_545 S
H1722 C1716 0.930 . S
H1723 C1717 0.930 . S
C1724 N1725 1.314 . S
C1724 C1726 1.353 . S
C1724 H1730 0.930 . S
N1725 Li1675 1.990 . S
N1725 C1724 1.314 . S
N1725 C1728 1.279 . S
C1726 C1724 1.353 . S
C1726 C1729 1.348 . S
C1726 H1758 0.929 . S
C1727 C1728 1.358 . S
C1727 C1729 1.356 . S
C1727 H1759 0.930 . S
C1728 N1725 1.279 . S
C1728 C1727 1.358 . S
C1728 H1731 0.930 . S
C1729 C1726 1.348 . S
C1729 C1727 1.356 . S
H1730 C1724 0.930 . S
H1731 C1728 0.930 . S
O1732 Li1672 1.956 . S
O1732 Li1673 1.970 . S
O1732 Li1674 1.961 . S
O1732 C1676 1.325 . S
O1733 Li1672 1.970 . S
O1733 Li1673 1.956 . S
O1733 Li1675 1.961 1_545 S
O1733 C1682 1.325 . S
O1734 Li1672 1.961 1_565 S
O1734 Li1674 1.956 1_565 S
O1734 Li1675 1.970 . S
O1734 C1704 1.325 . S
O1735 Li1673 1.961 . S
O1735 Li1674 1.970 . S
O1735 Li1675 1.956 1_545 S
O1735 C1710 1.325 . S
H1736 C1678 0.929 . S
H1737 C1679 0.930 . S
H1738 C1680 0.930 . S
H1739 C1681 0.930 . S
H1740 C1683 0.930 . S
H1741 C1685 0.929 . S
H1742 C1686 0.930 . S
H1743 C1687 0.930 . S
H1744 C1690 0.930 . S
H1745 C1693 0.929 . S
H1746 C1698 0.929 . S
H1747 C1699 0.930 . S
H1748 C1706 0.929 . S
H1749 C1707 0.930 . S
H1750 C1708 0.930 . S
H1751 C1709 0.930 . S
H1752 C1711 0.929 1_565 S
H1753 C1712 0.930 . S
H1754 C1713 0.934 . S
H1755 C1714 0.930 . S
H1756 C1718 0.929 . S
H1757 C1720 0.930 . S
H1758 C1726 0.929 . S
H1759 C1727 0.930 . S
Li1760 N1777 1.990 . S
Li1760 O1820 1.956 . S
Li1760 O1821 1.970 . S
Li1760 O1822 1.961 . S
Li1761 N1785 1.990 . S
Li1761 O1820 1.970 . S
Li1761 O1821 1.956 . S
Li1761 O1823 1.961 1_554 S
Li1762 N1807 1.990 . S
Li1762 O1820 1.961 1_556 S
Li1762 O1822 1.956 1_556 S
Li1762 O1823 1.970 . S
Li1763 N1813 1.990 . S
Li1763 O1821 1.961 1_556 S
Li1763 O1822 1.970 1_556 S
Li1763 O1823 1.956 . S
C1764 C1766 1.348 . S
C1764 C1767 1.356 . S
C1764 O1820 1.325 . S
N1765 C1768 1.314 . S
N1765 C1769 1.279 . S
C1766 C1764 1.348 . S
C1766 C1768 1.353 . S
C1766 H1824 0.929 . S
C1767 C1764 1.356 . S
C1767 C1769 1.358 . S
C1767 H1825 0.930 1_554 S
C1768 N1765 1.314 . S
C1768 C1766 1.353 . S
C1768 H1826 0.930 . S
C1769 N1765 1.279 . S
C1769 C1767 1.358 . S
C1769 H1827 0.930 . S
C1770 C1773 1.348 . S
C1770 C1774 1.356 . S
C1770 O1821 1.325 . S
C1771 N1772 1.279 . S
C1771 C1774 1.358 . S
C1771 H1828 0.930 . S
N1772 C1771 1.279 . S
N1772 C1775 1.314 . S
C1773 C1770 1.348 . S
C1773 C1775 1.353 . S
C1773 H1829 0.929 . S
C1774 C1770 1.356 . S
C1774 C1771 1.358 . S
C1774 H1830 0.930 . S
C1775 N1772 1.314 . S
C1775 C1773 1.353 . S
C1775 H1831 0.930 . S
C1776 N1777 1.314 . S
C1776 C1781 1.353 . S
C1776 H1782 0.930 . S
N1777 Li1760 1.990 . S
N1777 C1776 1.314 . S
N1777 C1779 1.279 . S
C1778 C1779 1.358 . S
C1778 C1780 1.356 . S
C1778 H1832 0.930 . S
C1779 N1777 1.279 . S
C1779 C1778 1.358 . S
C1779 H1783 0.930 . S
C1780 C1778 1.356 . S
C1780 C1781 1.348 . S
C1781 C1776 1.353 . S
C1781 C1780 1.348 . S
C1781 H1833 0.929 . S
H1782 C1776 0.930 . S
H1783 C1779 0.930 . S
C1784 N1785 1.314 1_556 S
C1784 C1786 1.353 . S
C1784 H1790 0.930 . S
N1785 Li1761 1.990 . S
N1785 C1784 1.314 1_554 S
N1785 C1788 1.279 . S
C1786 C1784 1.353 . S
C1786 C1789 1.348 1_556 S
C1786 H1834 0.929 . S
C1787 C1788 1.358 . S
C1787 C1789 1.356 . S
C1787 H1835 0.930 . S
C1788 N1785 1.279 . S
C1788 C1787 1.358 . S
C1788 H1791 0.930 . S
C1789 C1786 1.348 1_554 S
C1789 C1787 1.356 . S
H1790 C1784 0.930 . S
H1791 C1788 0.930 . S
C1792 C1794 1.348 1_554 S
C1792 C1795 1.356 . S
C1792 O1822 1.325 . S
N1793 C1796 1.314 . S
N1793 C1797 1.279 1_556 S
C1794 C1792 1.348 1_556 S
C1794 C1796 1.353 . S
C1794 H1836 0.929 . S
C1795 C1792 1.356 . S
C1795 C1797 1.358 . S
C1795 H1837 0.930 . S
C1796 N1793 1.314 . S
C1796 C1794 1.353 . S
C1796 H1838 0.930 . S
C1797 N1793 1.279 1_554 S
C1797 C1795 1.358 . S
C1797 H1839 0.930 . S
C1798 C1799 1.348 . S
C1798 C1800 1.356 . S
C1798 O1823 1.325 . S
C1799 C1798 1.348 . S
C1799 C1801 1.353 . S
C1799 H1840 0.929 . S
C1800 C1798 1.356 . S
C1800 C1802 1.358 . S
C1800 H1841 0.930 . S
C1801 C1799 1.353 . S
C1801 N1803 1.314 . S
C1801 H1842 0.930 . S
C1802 C1800 1.358 . S
C1802 N1803 1.279 . S
C1802 H1843 0.930 . S
N1803 C1801 1.314 . S
N1803 C1802 1.279 . S
C1804 C1806 1.353 . S
C1804 N1807 1.314 . S
C1804 H1810 0.930 . S
C1805 N1807 1.279 . S
C1805 C1808 1.358 . S
C1805 H1811 0.930 . S
C1806 C1804 1.353 . S
C1806 C1809 1.348 . S
C1806 H1844 0.929 . S
N1807 Li1762 1.990 . S
N1807 C1804 1.314 . S
N1807 C1805 1.279 . S
C1808 C1805 1.358 . S
C1808 C1809 1.356 . S
C1808 H1845 0.930 . S
C1809 C1806 1.348 . S
C1809 C1808 1.356 . S
H1810 C1804 0.930 . S
H1811 C1805 0.930 . S
C1812 N1813 1.314 1_554 S
C1812 C1814 1.353 . S
C1812 H1818 0.930 . S
N1813 Li1763 1.990 . S
N1813 C1812 1.314 1_556 S
N1813 C1816 1.279 . S
C1814 C1812 1.353 . S
C1814 C1817 1.348 1_554 S
C1814 H1846 0.929 . S
C1815 C1816 1.358 . S
C1815 C1817 1.356 . S
C1815 H1847 0.930 . S
C1816 N1813 1.279 . S
C1816 C1815 1.358 . S
C1816 H1819 0.930 . S
C1817 C1814 1.348 1_556 S
C1817 C1815 1.356 . S
H1818 C1812 0.930 . S
H1819 C1816 0.930 . S
O1820 Li1760 1.956 . S
O1820 Li1761 1.970 . S
O1820 Li1762 1.961 1_554 S
O1820 C1764 1.325 . S
O1821 Li1760 1.970 . S
O1821 Li1761 1.956 . S
O1821 Li1763 1.961 1_554 S
O1821 C1770 1.325 . S
O1822 Li1760 1.961 . S
O1822 Li1762 1.956 1_554 S
O1822 Li1763 1.970 1_554 S
O1822 C1792 1.325 . S
O1823 Li1761 1.961 1_556 S
O1823 Li1762 1.970 . S
O1823 Li1763 1.956 . S
O1823 C1798 1.325 . S
H1824 C1766 0.929 . S
H1825 C1767 0.930 1_556 S
H1826 C1768 0.930 . S
H1827 C1769 0.930 . S
H1828 C1771 0.930 . S
H1829 C1773 0.929 . S
H1830 C1774 0.930 . S
H1831 C1775 0.930 . S
H1832 C1778 0.930 . S
H1833 C1781 0.929 . S
H1834 C1786 0.929 . S
H1835 C1787 0.930 . S
H1836 C1794 0.929 . S
H1837 C1795 0.930 . S
H1838 C1796 0.930 . S
H1839 C1797 0.930 . S
H1840 C1799 0.929 . S
H1841 C1800 0.930 . S
H1842 C1801 0.930 . S
H1843 C1802 0.930 . S
H1844 C1806 0.929 . S
H1845 C1808 0.930 . S
H1846 C1814 0.929 . S
H1847 C1815 0.930 . S
Li1848 N1865 1.990 . S
Li1848 O1908 1.956 . S
Li1848 O1909 1.970 . S
Li1848 O1910 1.961 . S
Li1849 N1873 1.990 . S
Li1849 O1908 1.970 . S
Li1849 O1909 1.956 . S
Li1849 O1911 1.961 . S
Li1850 N1895 1.990 . S
Li1850 O1908 1.961 . S
Li1850 O1910 1.956 . S
Li1850 O1911 1.970 . S
Li1851 N1901 1.990 . S
Li1851 O1909 1.961 . S
Li1851 O1910 1.970 . S
Li1851 O1911 1.956 . S
C1852 C1854 1.348 . S
C1852 C1855 1.356 . S
C1852 O1908 1.325 . S
N1853 C1856 1.314 . S
N1853 C1857 1.279 . S
C1854 C1852 1.348 . S
C1854 C1856 1.353 . S
C1854 H1912 0.929 . S
C1855 C1852 1.356 . S
C1855 C1857 1.358 . S
C1855 H1913 0.930 . S
C1856 N1853 1.314 . S
C1856 C1854 1.353 . S
C1856 H1914 0.930 . S
C1857 N1853 1.279 . S
C1857 C1855 1.358 . S
C1857 H1915 0.930 . S
C1858 C1861 1.348 . S
C1858 C1862 1.356 . S
C1858 O1909 1.325 . S
C1859 N1860 1.279 . S
C1859 C1862 1.358 . S
C1859 H1916 0.930 . S
N1860 C1859 1.279 . S
N1860 C1863 1.314 . S
C1861 C1858 1.348 . S
C1861 C1863 1.353 . S
C1861 H1917 0.929 . S
C1862 C1858 1.356 . S
C1862 C1859 1.358 . S
C1862 H1918 0.930 . S
C1863 N1860 1.314 . S
C1863 C1861 1.353 . S
C1863 H1919 0.930 . S
C1864 N1865 1.314 . S
C1864 C1869 1.353 . S
C1864 H1870 0.930 . S
N1865 Li1848 1.990 . S
N1865 C1864 1.314 . S
N1865 C1867 1.279 . S
C1866 C1867 1.358 . S
C1866 C1868 1.356 . S
C1866 H1920 0.930 . S
C1867 N1865 1.279 . S
C1867 C1866 1.358 . S
C1867 H1871 0.930 . S
C1868 C1866 1.356 . S
C1868 C1869 1.348 . S
C1869 C1864 1.353 . S
C1869 C1868 1.348 . S
C1869 H1921 0.929 . S
H1870 C1864 0.930 . S
H1871 C1867 0.930 . S
C1872 N1873 1.314 . S
C1872 C1874 1.353 . S
C1872 H1878 0.930 . S
N1873 Li1849 1.990 . S
N1873 C1872 1.314 . S
N1873 C1876 1.279 . S
C1874 C1872 1.353 . S
C1874 C1877 1.348 . S
C1874 H1922 0.929 . S
C1875 C1876 1.358 . S
C1875 C1877 1.356 . S
C1875 H1923 0.930 . S
C1876 N1873 1.279 . S
C1876 C1875 1.358 . S
C1876 H1879 0.930 . S
C1877 C1874 1.348 . S
C1877 C1875 1.356 . S
H1878 C1872 0.930 . S
H1879 C1876 0.930 . S
C1880 C1882 1.348 . S
C1880 C1883 1.356 . S
C1880 O1910 1.325 . S
N1881 C1884 1.314 . S
N1881 C1885 1.279 . S
C1882 C1880 1.348 . S
C1882 C1884 1.353 . S
C1882 H1924 0.929 . S
C1883 C1880 1.356 . S
C1883 C1885 1.358 . S
C1883 H1925 0.930 . S
C1884 N1881 1.314 . S
C1884 C1882 1.353 . S
C1884 H1926 0.930 . S
C1885 N1881 1.279 . S
C1885 C1883 1.358 . S
C1885 H1927 0.930 . S
C1886 C1887 1.348 . S
C1886 C1888 1.356 . S
C1886 O1911 1.325 . S
C1887 C1886 1.348 . S
C1887 C1889 1.353 . S
C1887 H1928 0.929 . S
C1888 C1886 1.356 . S
C1888 C1890 1.358 . S
C1888 H1929 0.930 . S
C1889 C1887 1.353 . S
C1889 N1891 1.314 . S
C1889 H1930 0.930 . S
C1890 C1888 1.358 . S
C1890 N1891 1.279 . S
C1890 H1931 0.930 . S
N1891 C1889 1.314 . S
N1891 C1890 1.279 . S
C1892 C1894 1.353 . S
C1892 N1895 1.314 . S
C1892 H1898 0.930 . S
C1893 N1895 1.279 . S
C1893 C1896 1.358 . S
C1893 H1899 0.930 . S
C1894 C1892 1.353 . S
C1894 C1897 1.348 . S
C1894 H1932 0.929 . S
N1895 Li1850 1.990 . S
N1895 C1892 1.314 . S
N1895 C1893 1.279 . S
C1896 C1893 1.358 . S
C1896 C1897 1.356 . S
C1896 H1933 0.930 . S
C1897 C1894 1.348 . S
C1897 C1896 1.356 . S
H1898 C1892 0.930 . S
H1899 C1893 0.930 . S
C1900 N1901 1.314 . S
C1900 C1902 1.353 . S
C1900 H1906 0.930 . S
N1901 Li1851 1.990 . S
N1901 C1900 1.314 . S
N1901 C1904 1.279 . S
C1902 C1900 1.353 . S
C1902 C1905 1.348 . S
C1902 H1934 0.929 . S
C1903 C1904 1.358 . S
C1903 C1905 1.356 . S
C1903 H1935 0.930 . S
C1904 N1901 1.279 . S
C1904 C1903 1.358 . S
C1904 H1907 0.930 . S
C1905 C1902 1.348 . S
C1905 C1903 1.356 . S
H1906 C1900 0.930 . S
H1907 C1904 0.930 . S
O1908 Li1848 1.956 . S
O1908 Li1849 1.970 . S
O1908 Li1850 1.961 . S
O1908 C1852 1.325 . S
O1909 Li1848 1.970 . S
O1909 Li1849 1.956 . S
O1909 Li1851 1.961 . S
O1909 C1858 1.325 . S
O1910 Li1848 1.961 . S
O1910 Li1850 1.956 . S
O1910 Li1851 1.970 . S
O1910 C1880 1.325 . S
O1911 Li1849 1.961 . S
O1911 Li1850 1.970 . S
O1911 Li1851 1.956 . S
O1911 C1886 1.325 . S
H1912 C1854 0.929 . S
H1913 C1855 0.930 . S
H1914 C1856 0.930 . S
H1915 C1857 0.930 . S
H1916 C1859 0.930 . S
H1917 C1861 0.929 . S
H1918 C1862 0.930 . S
H1919 C1863 0.930 . S
H1920 C1866 0.930 . S
H1921 C1869 0.929 . S
H1922 C1874 0.929 . S
H1923 C1875 0.930 . S
H1924 C1882 0.929 . S
H1925 C1883 0.930 . S
H1926 C1884 0.930 . S
H1927 C1885 0.930 . S
H1928 C1887 0.929 . S
H1929 C1888 0.930 . S
H1930 C1889 0.930 . S
H1931 C1890 0.930 . S
H1932 C1894 0.929 . S
H1933 C1896 0.930 . S
H1934 C1902 0.929 . S
H1935 C1903 0.930 . S
Li1936 N1953 1.990 . S
Li1936 O1996 1.956 . S
Li1936 O1997 1.970 . S
Li1936 O1998 1.961 . S
Li1937 N1961 1.990 . S
Li1937 O1996 1.970 . S
Li1937 O1997 1.956 . S
Li1937 O1999 1.961 . S
Li1938 N1983 1.990 . S
Li1938 O1996 1.961 . S
Li1938 O1998 1.956 . S
Li1938 O1999 1.970 . S
Li1939 N1989 1.990 . S
Li1939 O1997 1.961 . S
Li1939 O1998 1.970 . S
Li1939 O1999 1.956 . S
C1940 C1942 1.348 . S
C1940 C1943 1.356 . S
C1940 O1996 1.325 . S
N1941 C1944 1.314 . S
N1941 C1945 1.279 . S
C1942 C1940 1.348 . S
C1942 C1944 1.353 . S
C1942 H2000 0.929 . S
C1943 C1940 1.356 . S
C1943 C1945 1.358 . S
C1943 H2001 0.930 . S
C1944 N1941 1.314 . S
C1944 C1942 1.353 . S
C1944 H2002 0.930 . S
C1945 N1941 1.279 . S
C1945 C1943 1.358 . S
C1945 H2003 0.930 . S
C1946 C1949 1.348 . S
C1946 C1950 1.356 . S
C1946 O1997 1.325 . S
C1947 N1948 1.279 . S
C1947 C1950 1.358 . S
C1947 H2004 0.930 . S
N1948 C1947 1.279 . S
N1948 C1951 1.314 . S
C1949 C1946 1.348 . S
C1949 C1951 1.353 . S
C1949 H2005 0.929 . S
C1950 C1946 1.356 . S
C1950 C1947 1.358 . S
C1950 H2006 0.930 . S
C1951 N1948 1.314 . S
C1951 C1949 1.353 . S
C1951 H2007 0.930 . S
C1952 N1953 1.314 . S
C1952 C1957 1.353 . S
C1952 H1958 0.930 . S
N1953 Li1936 1.990 . S
N1953 C1952 1.314 . S
N1953 C1955 1.279 . S
C1954 C1955 1.358 . S
C1954 C1956 1.356 . S
C1954 H2008 0.930 . S
C1955 N1953 1.279 . S
C1955 C1954 1.358 . S
C1955 H1959 0.930 . S
C1956 C1954 1.356 . S
C1956 C1957 1.348 . S
C1957 C1952 1.353 . S
C1957 C1956 1.348 . S
C1957 H2009 0.929 . S
H1958 C1952 0.930 . S
H1959 C1955 0.930 . S
C1960 N1961 1.314 . S
C1960 C1962 1.353 . S
C1960 H1966 0.930 . S
N1961 Li1937 1.990 . S
N1961 C1960 1.314 . S
N1961 C1964 1.279 . S
C1962 C1960 1.353 . S
C1962 C1965 1.348 . S
C1962 H2010 0.929 . S
C1963 C1964 1.358 . S
C1963 C1965 1.356 . S
C1963 H2011 0.930 . S
C1964 N1961 1.279 . S
C1964 C1963 1.358 . S
C1964 H1967 0.930 . S
C1965 C1962 1.348 . S
C1965 C1963 1.356 . S
H1966 C1960 0.930 . S
H1967 C1964 0.930 . S
C1968 C1970 1.348 . S
C1968 C1971 1.356 . S
C1968 O1998 1.325 . S
N1969 C1972 1.314 . S
N1969 C1973 1.279 . S
C1970 C1968 1.348 . S
C1970 C1972 1.353 . S
C1970 H2012 0.929 . S
C1971 C1968 1.356 . S
C1971 C1973 1.358 . S
C1971 H2013 0.930 . S
C1972 N1969 1.314 . S
C1972 C1970 1.353 . S
C1972 H2014 0.930 . S
C1973 N1969 1.279 . S
C1973 C1971 1.358 . S
C1973 H2015 0.930 . S
C1974 C1975 1.348 . S
C1974 C1976 1.356 . S
C1974 O1999 1.325 . S
C1975 C1974 1.348 . S
C1975 C1977 1.353 . S
C1975 H2016 0.929 . S
C1976 C1974 1.356 . S
C1976 C1978 1.358 . S
C1976 H2017 0.930 . S
C1977 C1975 1.353 . S
C1977 N1979 1.314 . S
C1977 H2018 0.930 . S
C1978 C1976 1.358 . S
C1978 N1979 1.279 . S
C1978 H2019 0.930 . S
N1979 C1977 1.314 . S
N1979 C1978 1.279 . S
C1980 C1982 1.353 . S
C1980 N1983 1.314 . S
C1980 H1986 0.930 . S
C1981 N1983 1.279 . S
C1981 C1984 1.358 . S
C1981 H1987 0.930 . S
C1982 C1980 1.353 . S
C1982 C1985 1.348 . S
C1982 H2020 0.929 . S
N1983 Li1938 1.990 . S
N1983 C1980 1.314 . S
N1983 C1981 1.279 . S
C1984 C1981 1.358 . S
C1984 C1985 1.356 . S
C1984 H2021 0.930 . S
C1985 C1982 1.348 . S
C1985 C1984 1.356 . S
H1986 C1980 0.930 . S
H1987 C1981 0.930 . S
C1988 N1989 1.314 . S
C1988 C1990 1.353 . S
C1988 H1994 0.930 . S
N1989 Li1939 1.990 . S
N1989 C1988 1.314 . S
N1989 C1992 1.279 . S
C1990 C1988 1.353 . S
C1990 C1993 1.348 . S
C1990 H2022 0.929 . S
C1991 C1992 1.358 . S
C1991 C1993 1.356 . S
C1991 H2023 0.930 . S
C1992 N1989 1.279 . S
C1992 C1991 1.358 . S
C1992 H1995 0.930 . S
C1993 C1990 1.348 . S
C1993 C1991 1.356 . S
H1994 C1988 0.930 . S
H1995 C1992 0.930 . S
O1996 Li1936 1.956 . S
O1996 Li1937 1.970 . S
O1996 Li1938 1.961 . S
O1996 C1940 1.325 . S
O1997 Li1936 1.970 . S
O1997 Li1937 1.956 . S
O1997 Li1939 1.961 . S
O1997 C1946 1.325 . S
O1998 Li1936 1.961 . S
O1998 Li1938 1.956 . S
O1998 Li1939 1.970 . S
O1998 C1968 1.325 . S
O1999 Li1937 1.961 . S
O1999 Li1938 1.970 . S
O1999 Li1939 1.956 . S
O1999 C1974 1.325 . S
H2000 C1942 0.929 . S
H2001 C1943 0.930 . S
H2002 C1944 0.930 . S
H2003 C1945 0.930 . S
H2004 C1947 0.930 . S
H2005 C1949 0.929 . S
H2006 C1950 0.930 . S
H2007 C1951 0.930 . S
H2008 C1954 0.930 . S
H2009 C1957 0.929 . S
H2010 C1962 0.929 . S
H2011 C1963 0.930 . S
H2012 C1970 0.929 . S
H2013 C1971 0.930 . S
H2014 C1972 0.930 . S
H2015 C1973 0.930 . S
H2016 C1975 0.929 . S
H2017 C1976 0.930 . S
H2018 C1977 0.930 . S
H2019 C1978 0.930 . S
H2020 C1982 0.929 . S
H2021 C1984 0.930 . S
H2022 C1990 0.929 . S
H2023 C1991 0.930 . S
Li2024 N2041 1.990 . S
Li2024 O2084 1.956 . S
Li2024 O2085 1.970 . S
Li2024 O2086 1.961 . S
Li2025 N2049 1.990 . S
Li2025 O2084 1.970 . S
Li2025 O2085 1.956 . S
Li2025 O2087 1.961 . S
Li2026 N2071 1.990 . S
Li2026 O2084 1.961 . S
Li2026 O2086 1.956 . S
Li2026 O2087 1.970 . S
Li2027 N2077 1.990 . S
Li2027 O2085 1.961 . S
Li2027 O2086 1.970 . S
Li2027 O2087 1.956 . S
C2028 C2030 1.348 . S
C2028 C2031 1.356 . S
C2028 O2084 1.325 . S
N2029 C2032 1.314 . S
N2029 C2033 1.279 . S
C2030 C2028 1.348 . S
C2030 C2032 1.353 . S
C2030 H2088 0.929 . S
C2031 C2028 1.356 . S
C2031 C2033 1.358 . S
C2031 H2089 0.930 . S
C2032 N2029 1.314 . S
C2032 C2030 1.353 . S
C2032 H2090 0.930 . S
C2033 N2029 1.279 . S
C2033 C2031 1.358 . S
C2033 H2091 0.930 . S
C2034 C2037 1.348 . S
C2034 C2038 1.356 . S
C2034 O2085 1.325 . S
C2035 N2036 1.279 . S
C2035 C2038 1.358 . S
C2035 H2092 0.930 . S
N2036 C2035 1.279 . S
N2036 C2039 1.314 . S
C2037 C2034 1.348 . S
C2037 C2039 1.353 . S
C2037 H2093 0.929 . S
C2038 C2034 1.356 . S
C2038 C2035 1.358 . S
C2038 H2094 0.930 . S
C2039 N2036 1.314 . S
C2039 C2037 1.353 . S
C2039 H2095 0.930 . S
C2040 N2041 1.314 . S
C2040 C2045 1.353 . S
C2040 H2046 0.930 . S
N2041 Li2024 1.990 . S
N2041 C2040 1.314 . S
N2041 C2043 1.279 . S
C2042 C2043 1.358 . S
C2042 C2044 1.356 . S
C2042 H2096 0.930 . S
C2043 N2041 1.279 . S
C2043 C2042 1.358 . S
C2043 H2047 0.930 . S
C2044 C2042 1.356 . S
C2044 C2045 1.348 . S
C2045 C2040 1.353 . S
C2045 C2044 1.348 . S
C2045 H2097 0.929 . S
H2046 C2040 0.930 . S
H2047 C2043 0.930 . S
C2048 N2049 1.314 . S
C2048 C2050 1.353 . S
C2048 H2054 0.930 . S
N2049 Li2025 1.990 . S
N2049 C2048 1.314 . S
N2049 C2052 1.279 . S
C2050 C2048 1.353 . S
C2050 C2053 1.348 . S
C2050 H2098 0.929 . S
C2051 C2052 1.358 . S
C2051 C2053 1.356 . S
C2051 H2099 0.930 . S
C2052 N2049 1.279 . S
C2052 C2051 1.358 . S
C2052 H2055 0.930 . S
C2053 C2050 1.348 . S
C2053 C2051 1.356 . S
H2054 C2048 0.930 . S
H2055 C2052 0.930 . S
C2056 C2058 1.348 . S
C2056 C2059 1.356 . S
C2056 O2086 1.325 . S
N2057 C2060 1.314 . S
N2057 C2061 1.279 . S
C2058 C2056 1.348 . S
C2058 C2060 1.353 . S
C2058 H2100 0.929 . S
C2059 C2056 1.356 . S
C2059 C2061 1.358 . S
C2059 H2101 0.930 . S
C2060 N2057 1.314 . S
C2060 C2058 1.353 . S
C2060 H2102 0.930 . S
C2061 N2057 1.279 . S
C2061 C2059 1.358 . S
C2061 H2103 0.930 . S
C2062 C2063 1.348 . S
C2062 C2064 1.356 . S
C2062 O2087 1.325 . S
C2063 C2062 1.348 . S
C2063 C2065 1.353 . S
C2063 H2104 0.929 . S
C2064 C2062 1.356 . S
C2064 C2066 1.358 . S
C2064 H2105 0.930 . S
C2065 C2063 1.353 . S
C2065 N2067 1.314 . S
C2065 H2106 0.930 . S
C2066 C2064 1.358 . S
C2066 N2067 1.279 . S
C2066 H2107 0.930 . S
N2067 C2065 1.314 . S
N2067 C2066 1.279 . S
C2068 C2070 1.353 . S
C2068 N2071 1.314 . S
C2068 H2074 0.930 . S
C2069 N2071 1.279 . S
C2069 C2072 1.358 . S
C2069 H2075 0.930 . S
C2070 C2068 1.353 . S
C2070 C2073 1.348 . S
C2070 H2108 0.929 . S
N2071 Li2026 1.990 . S
N2071 C2068 1.314 . S
N2071 C2069 1.279 . S
C2072 C2069 1.358 . S
C2072 C2073 1.356 . S
C2072 H2109 0.930 . S
C2073 C2070 1.348 . S
C2073 C2072 1.356 . S
H2074 C2068 0.930 . S
H2075 C2069 0.930 . S
C2076 N2077 1.314 . S
C2076 C2078 1.353 . S
C2076 H2082 0.930 . S
N2077 Li2027 1.990 . S
N2077 C2076 1.314 . S
N2077 C2080 1.279 . S
C2078 C2076 1.353 . S
C2078 C2081 1.348 . S
C2078 H2110 0.929 . S
C2079 C2080 1.358 . S
C2079 C2081 1.356 . S
C2079 H2111 0.930 . S
C2080 N2077 1.279 . S
C2080 C2079 1.358 . S
C2080 H2083 0.930 . S
C2081 C2078 1.348 . S
C2081 C2079 1.356 . S
H2082 C2076 0.930 . S
H2083 C2080 0.930 . S
O2084 Li2024 1.956 . S
O2084 Li2025 1.970 . S
O2084 Li2026 1.961 . S
O2084 C2028 1.325 . S
O2085 Li2024 1.970 . S
O2085 Li2025 1.956 . S
O2085 Li2027 1.961 . S
O2085 C2034 1.325 . S
O2086 Li2024 1.961 . S
O2086 Li2026 1.956 . S
O2086 Li2027 1.970 . S
O2086 C2056 1.325 . S
O2087 Li2025 1.961 . S
O2087 Li2026 1.970 . S
O2087 Li2027 1.956 . S
O2087 C2062 1.325 . S
H2088 C2030 0.929 . S
H2089 C2031 0.930 . S
H2090 C2032 0.930 . S
H2091 C2033 0.930 . S
H2092 C2035 0.930 . S
H2093 C2037 0.929 . S
H2094 C2038 0.930 . S
H2095 C2039 0.930 . S
H2096 C2042 0.930 . S
H2097 C2045 0.929 . S
H2098 C2050 0.929 . S
H2099 C2051 0.930 . S
H2100 C2058 0.929 . S
H2101 C2059 0.930 . S
H2102 C2060 0.930 . S
H2103 C2061 0.930 . S
H2104 C2063 0.929 . S
H2105 C2064 0.930 . S
H2106 C2065 0.930 . S
H2107 C2066 0.930 . S
H2108 C2070 0.929 . S
H2109 C2072 0.930 . S
H2110 C2078 0.929 . S
H2111 C2079 0.930 . S
Tb2112 O2115 2.453 . S
Tb2112 O2116 2.596 . S
Tb2112 O2117 2.374 1_554 S
Tb2112 O2125 2.343 1_455 S
Tb2112 O2127 2.353 . S
Tb2112 O2129 2.427 . S
Tb2112 O2130 2.513 1_554 S
C2113 O2117 1.251 . S
C2113 O2119 1.263 . S
Tb2114 O2116 2.343 1_665 S
Tb2114 O2119 2.353 1_664 S
Tb2114 O2122 2.427 1_655 S
Tb2114 O2123 2.497 1_655 S
Tb2114 O2124 2.453 1_564 S
Tb2114 O2125 2.596 1_565 S
Tb2114 O2126 2.374 1_565 S
O2115 Tb2112 2.453 . S
O2115 C2131 1.245 . S
O2116 Tb2112 2.596 . S
O2116 Tb2114 2.343 1_445 S
O2116 C2131 1.259 . S
O2117 Tb2112 2.374 1_556 S
O2117 C2113 1.251 . S
C2118 O2122 1.275 . S
C2118 O2123 1.264 . S
O2119 C2113 1.263 . S
O2119 Tb2114 2.353 1_446 S
C2120 O2124 1.242 1_554 S
C2120 O2125 1.264 . S
C2121 O2126 1.250 . S
C2121 O2127 1.263 1_655 S
O2122 Tb2114 2.427 1_455 S
O2122 C2118 1.275 . S
O2123 Tb2114 2.497 1_455 S
O2123 C2118 1.264 . S
O2124 Tb2114 2.453 1_546 S
O2124 C2120 1.242 1_556 S
O2125 Tb2112 2.343 1_655 S
O2125 Tb2114 2.596 1_545 S
O2125 C2120 1.264 . S
O2126 Tb2114 2.374 1_545 S
O2126 C2121 1.250 . S
O2127 Tb2112 2.353 . S
O2127 C2121 1.263 1_455 S
C2128 O2129 1.275 1_556 S
C2128 O2130 1.246 . S
O2129 Tb2112 2.427 . S
O2129 C2128 1.275 1_554 S
O2130 Tb2112 2.513 1_556 S
O2130 C2128 1.246 . S
C2131 O2115 1.245 . S
C2131 O2116 1.259 . S
Tb2132 O2135 2.453 . S
Tb2132 O2136 2.596 . S
Tb2132 O2137 2.374 . S
Tb2132 O2145 2.343 . S
Tb2132 O2147 2.353 . S
Tb2132 O2149 2.427 . S
Tb2132 O2150 2.513 . S
C2133 O2137 1.251 . S
C2133 O2139 1.263 . S
Tb2134 O2136 2.343 . S
Tb2134 O2139 2.353 . S
Tb2134 O2142 2.427 . S
Tb2134 O2143 2.513 . S
Tb2134 O2144 2.453 . S
Tb2134 O2145 2.596 . S
Tb2134 O2146 2.374 . S
O2135 Tb2132 2.453 . S
O2135 C2151 1.245 . S
O2136 Tb2132 2.596 . S
O2136 Tb2134 2.343 . S
O2136 C2151 1.259 . S
O2137 Tb2132 2.374 . S
O2137 C2133 1.251 . S
C2138 O2142 1.275 . S
C2138 O2143 1.246 . S
O2139 C2133 1.263 . S
O2139 Tb2134 2.353 . S
C2140 O2144 1.245 . S
C2140 O2145 1.259 . S
C2141 O2146 1.250 . S
C2141 O2147 1.263 . S
O2142 Tb2134 2.427 . S
O2142 C2138 1.275 . S
O2143 Tb2134 2.513 . S
O2143 C2138 1.246 . S
O2144 Tb2134 2.453 . S
O2144 C2140 1.245 . S
O2145 Tb2132 2.343 . S
O2145 Tb2134 2.596 . S
O2145 C2140 1.259 . S
O2146 Tb2134 2.374 . S
O2146 C2141 1.250 . S
O2147 Tb2132 2.353 . S
O2147 C2141 1.263 . S
C2148 O2149 1.275 . S
C2148 O2150 1.246 . S
O2149 Tb2132 2.427 . S
O2149 C2148 1.275 . S
O2150 Tb2132 2.513 . S
O2150 C2148 1.246 . S
C2151 O2135 1.245 . S
C2151 O2136 1.259 . S
Tb2152 O2155 2.453 . S
Tb2152 O2156 2.596 . S
Tb2152 O2157 2.374 . S
Tb2152 O2165 2.343 . S
Tb2152 O2167 2.353 . S
Tb2152 O2169 2.427 . S
Tb2152 O2170 2.513 . S
C2153 O2157 1.251 . S
C2153 O2159 1.263 . S
Tb2154 O2156 2.343 . S
Tb2154 O2159 2.353 . S
Tb2154 O2162 2.427 . S
Tb2154 O2163 2.513 . S
Tb2154 O2164 2.453 1_545 S
Tb2154 O2165 2.596 . S
Tb2154 O2166 2.374 . S
O2155 Tb2152 2.453 . S
O2155 C2171 1.245 . S
O2156 Tb2152 2.596 . S
O2156 Tb2154 2.343 . S
O2156 C2171 1.259 . S
O2157 Tb2152 2.374 . S
O2157 C2153 1.251 . S
C2158 O2162 1.275 . S
C2158 O2163 1.246 . S
O2159 C2153 1.263 . S
O2159 Tb2154 2.353 . S
C2160 O2164 1.245 . S
C2160 O2165 1.259 1_565 S
C2161 O2166 1.250 . S
C2161 O2167 1.263 . S
O2162 Tb2154 2.427 . S
O2162 C2158 1.275 . S
O2163 Tb2154 2.513 . S
O2163 C2158 1.246 . S
O2164 Tb2154 2.453 1_565 S
O2164 C2160 1.245 . S
O2165 Tb2152 2.343 . S
O2165 Tb2154 2.596 . S
O2165 C2160 1.259 1_545 S
O2166 Tb2154 2.374 . S
O2166 C2161 1.250 . S
O2167 Tb2152 2.353 . S
O2167 C2161 1.263 . S
C2168 O2169 1.275 . S
C2168 O2170 1.246 . S
O2169 Tb2152 2.427 . S
O2169 C2168 1.275 . S
O2170 Tb2152 2.513 . S
O2170 C2168 1.246 . S
C2171 O2155 1.245 . S
C2171 O2156 1.259 . S
Tb2172 O2175 2.453 . S
Tb2172 O2176 2.596 . S
Tb2172 O2177 2.374 . S
Tb2172 O2185 2.343 . S
Tb2172 O2187 2.353 . S
Tb2172 O2189 2.427 . S
Tb2172 O2190 2.513 . S
C2173 O2177 1.251 . S
C2173 O2179 1.263 . S
Tb2174 O2176 2.343 . S
Tb2174 O2179 2.353 . S
Tb2174 O2182 2.427 . S
Tb2174 O2183 2.513 . S
Tb2174 O2184 2.453 . S
Tb2174 O2185 2.596 . S
Tb2174 O2186 2.374 . S
O2175 Tb2172 2.453 . S
O2175 C2191 1.245 . S
O2176 Tb2172 2.596 . S
O2176 Tb2174 2.343 . S
O2176 C2191 1.259 . S
O2177 Tb2172 2.374 . S
O2177 C2173 1.251 . S
C2178 O2182 1.275 . S
C2178 O2183 1.246 . S
O2179 C2173 1.263 . S
O2179 Tb2174 2.353 . S
C2180 O2184 1.245 . S
C2180 O2185 1.259 . S
C2181 O2186 1.250 . S
C2181 O2187 1.263 . S
O2182 Tb2174 2.427 . S
O2182 C2178 1.275 . S
O2183 Tb2174 2.513 . S
O2183 C2178 1.246 . S
O2184 Tb2174 2.453 . S
O2184 C2180 1.245 . S
O2185 Tb2172 2.343 . S
O2185 Tb2174 2.596 . S
O2185 C2180 1.259 . S
O2186 Tb2174 2.374 . S
O2186 C2181 1.250 . S
O2187 Tb2172 2.353 . S
O2187 C2181 1.263 . S
C2188 O2189 1.275 . S
C2188 O2190 1.246 . S
O2189 Tb2172 2.427 . S
O2189 C2188 1.275 . S
O2190 Tb2172 2.513 . S
O2190 C2188 1.246 . S
C2191 O2175 1.245 . S
C2191 O2176 1.259 . S
Tb2192 O2195 2.453 1_545 S
Tb2192 O2196 2.596 . S
Tb2192 O2197 2.374 1_455 S
Tb2192 O2205 2.343 . S
Tb2192 O2207 2.353 . S
Tb2192 O2209 2.427 . S
Tb2192 O2210 2.513 1_455 S
C2193 O2197 1.251 . S
C2193 O2199 1.263 . S
Tb2194 O2196 2.343 . S
Tb2194 O2199 2.353 1_455 S
Tb2194 O2202 2.427 . S
Tb2194 O2203 2.513 . S
Tb2194 O2204 2.453 . S
Tb2194 O2205 2.596 . S
Tb2194 O2206 2.374 . S
O2195 Tb2192 2.453 1_565 S
O2195 C2211 1.245 . S
O2196 Tb2192 2.596 . S
O2196 Tb2194 2.343 . S
O2196 C2211 1.259 1_545 S
O2197 Tb2192 2.374 1_655 S
O2197 C2193 1.251 . S
C2198 O2202 1.275 . S
C2198 O2203 1.246 . S
O2199 C2193 1.263 . S
O2199 Tb2194 2.353 1_655 S
C2200 O2204 1.245 . S
C2200 O2205 1.259 . S
C2201 O2206 1.250 . S
C2201 O2207 1.263 . S
O2202 Tb2194 2.427 . S
O2202 C2198 1.275 . S
O2203 Tb2194 2.513 . S
O2203 C2198 1.246 . S
O2204 Tb2194 2.453 . S
O2204 C2200 1.245 . S
O2205 Tb2192 2.343 . S
O2205 Tb2194 2.596 . S
O2205 C2200 1.259 . S
O2206 Tb2194 2.374 . S
O2206 C2201 1.250 . S
O2207 Tb2192 2.353 . S
O2207 C2201 1.263 . S
C2208 O2209 1.275 1_655 S
C2208 O2210 1.246 . S
O2209 Tb2192 2.427 . S
O2209 C2208 1.275 1_455 S
O2210 Tb2192 2.513 1_655 S
O2210 C2208 1.246 . S
C2211 O2195 1.245 . S
C2211 O2196 1.259 1_565 S
Tb2212 O2215 2.453 . S
Tb2212 O2216 2.596 . S
Tb2212 O2217 2.374 . S
Tb2212 O2225 2.343 . S
Tb2212 O2227 2.353 . S
Tb2212 O2229 2.427 . S
Tb2212 O2230 2.513 . S
C2213 O2217 1.251 . S
C2213 O2219 1.263 . S
Tb2214 O2216 2.343 . S
Tb2214 O2219 2.353 . S
Tb2214 O2222 2.427 . S
Tb2214 O2223 2.513 . S
Tb2214 O2224 2.453 . S
Tb2214 O2225 2.596 . S
Tb2214 O2226 2.374 . S
O2215 Tb2212 2.453 . S
O2215 C2231 1.245 . S
O2216 Tb2212 2.596 . S
O2216 Tb2214 2.343 . S
O2216 C2231 1.259 . S
O2217 Tb2212 2.374 . S
O2217 C2213 1.251 . S
C2218 O2222 1.275 . S
C2218 O2223 1.246 . S
O2219 C2213 1.263 . S
O2219 Tb2214 2.353 . S
C2220 O2224 1.245 . S
C2220 O2225 1.259 . S
C2221 O2226 1.250 . S
C2221 O2227 1.263 . S
O2222 Tb2214 2.427 . S
O2222 C2218 1.275 . S
O2223 Tb2214 2.513 . S
O2223 C2218 1.246 . S
O2224 Tb2214 2.453 . S
O2224 C2220 1.245 . S
O2225 Tb2212 2.343 . S
O2225 Tb2214 2.596 . S
O2225 C2220 1.259 . S
O2226 Tb2214 2.374 . S
O2226 C2221 1.250 . S
O2227 Tb2212 2.353 . S
O2227 C2221 1.263 . S
C2228 O2229 1.275 . S
C2228 O2230 1.246 . S
O2229 Tb2212 2.427 . S
O2229 C2228 1.275 . S
O2230 Tb2212 2.513 . S
O2230 C2228 1.246 . S
C2231 O2215 1.245 . S
C2231 O2216 1.259 . S
Tb2232 O2235 2.453 . S
Tb2232 O2236 2.596 . S
Tb2232 O2237 2.374 1_545 S
Tb2232 O2245 2.343 1_556 S
Tb2232 O2247 2.353 1_556 S
Tb2232 O2249 2.427 1_556 S
Tb2232 O2250 2.513 1_546 S
C2233 O2237 1.250 1_554 S
C2233 O2239 1.263 . S
Tb2234 O2236 2.343 1_554 S
Tb2234 O2239 2.353 1_545 S
Tb2234 O2242 2.427 . S
Tb2234 O2243 2.513 . S
Tb2234 O2244 2.453 . S
Tb2234 O2245 2.596 . S
Tb2234 O2246 2.374 . S
O2235 Tb2232 2.453 . S
O2235 C2251 1.245 . S
O2236 Tb2232 2.596 . S
O2236 Tb2234 2.343 1_556 S
O2236 C2251 1.259 . S
O2237 Tb2232 2.374 1_565 S
O2237 C2233 1.250 1_556 S
C2238 O2242 1.275 . S
C2238 O2243 1.246 . S
O2239 C2233 1.263 . S
O2239 Tb2234 2.353 1_565 S
C2240 O2244 1.245 . S
C2240 O2245 1.259 . S
C2241 O2246 1.250 . S
C2241 O2247 1.263 . S
O2242 Tb2234 2.427 . S
O2242 C2238 1.275 . S
O2243 Tb2234 2.513 . S
O2243 C2238 1.246 . S
O2244 Tb2234 2.453 . S
O2244 C2240 1.245 . S
O2245 Tb2232 2.343 1_554 S
O2245 Tb2234 2.596 . S
O2245 C2240 1.259 . S
O2246 Tb2234 2.374 . S
O2246 C2241 1.250 . S
O2247 Tb2232 2.353 1_554 S
O2247 C2241 1.263 . S
C2248 O2249 1.275 . S
C2248 O2250 1.246 1_545 S
O2249 Tb2232 2.427 1_554 S
O2249 C2248 1.275 . S
O2250 Tb2232 2.513 1_564 S
O2250 C2248 1.246 1_565 S
C2251 O2235 1.245 . S
C2251 O2236 1.259 . S
Tb2252 O2255 2.453 . S
Tb2252 O2256 2.596 . S
Tb2252 O2257 2.374 . S
Tb2252 O2265 2.343 . S
Tb2252 O2267 2.353 . S
Tb2252 O2269 2.427 . S
Tb2252 O2270 2.513 . S
C2253 O2257 1.251 . S
C2253 O2259 1.263 . S
Tb2254 O2256 2.343 . S
Tb2254 O2259 2.353 . S
Tb2254 O2262 2.427 . S
Tb2254 O2263 2.513 . S
Tb2254 O2264 2.453 . S
Tb2254 O2265 2.596 . S
Tb2254 O2266 2.374 . S
O2255 Tb2252 2.453 . S
O2255 C2271 1.245 . S
O2256 Tb2252 2.596 . S
O2256 Tb2254 2.343 . S
O2256 C2271 1.259 . S
O2257 Tb2252 2.374 . S
O2257 C2253 1.251 . S
C2258 O2262 1.275 . S
C2258 O2263 1.246 . S
O2259 C2253 1.263 . S
O2259 Tb2254 2.353 . S
C2260 O2264 1.245 . S
C2260 O2265 1.259 . S
C2261 O2266 1.250 . S
C2261 O2267 1.263 . S
O2262 Tb2254 2.427 . S
O2262 C2258 1.275 . S
O2263 Tb2254 2.513 . S
O2263 C2258 1.246 . S
O2264 Tb2254 2.453 . S
O2264 C2260 1.245 . S
O2265 Tb2252 2.343 . S
O2265 Tb2254 2.596 . S
O2265 C2260 1.259 . S
O2266 Tb2254 2.374 . S
O2266 C2261 1.250 . S
O2267 Tb2252 2.353 . S
O2267 C2261 1.263 . S
C2268 O2269 1.275 . S
C2268 O2270 1.246 . S
O2269 Tb2252 2.427 . S
O2269 C2268 1.275 . S
O2270 Tb2252 2.513 . S
O2270 C2268 1.246 . S
C2271 O2255 1.245 . S
C2271 O2256 1.259 . S
Tb2272 O2275 2.453 1_556 S
Tb2272 O2276 2.596 1_556 S
Tb2272 O2277 2.371 1_556 S
Tb2272 O2285 2.343 . S
Tb2272 O2287 2.353 . S
Tb2272 O2289 2.427 . S
Tb2272 O2290 2.513 . S
C2273 O2277 1.255 . S
C2273 O2279 1.263 . S
Tb2274 O2276 2.343 . S
Tb2274 O2279 2.353 . S
Tb2274 O2282 2.427 . S
Tb2274 O2283 2.513 . S
Tb2274 O2284 2.453 . S
Tb2274 O2285 2.596 1_554 S
Tb2274 O2286 2.374 . S
O2275 Tb2272 2.453 1_554 S
O2275 C2291 1.245 . S
O2276 Tb2272 2.596 1_554 S
O2276 Tb2274 2.343 . S
O2276 C2291 1.259 . S
O2277 Tb2272 2.371 1_554 S
O2277 C2273 1.255 . S
C2278 O2282 1.275 . S
C2278 O2283 1.246 . S
O2279 C2273 1.263 . S
O2279 Tb2274 2.353 . S
C2280 O2284 1.245 . S
C2280 O2285 1.259 1_554 S
C2281 O2286 1.250 . S
C2281 O2287 1.263 1_554 S
O2282 Tb2274 2.427 . S
O2282 C2278 1.275 . S
O2283 Tb2274 2.513 . S
O2283 C2278 1.246 . S
O2284 Tb2274 2.453 . S
O2284 C2280 1.245 . S
O2285 Tb2272 2.343 . S
O2285 Tb2274 2.596 1_556 S
O2285 C2280 1.259 1_556 S
O2286 Tb2274 2.374 . S
O2286 C2281 1.250 . S
O2287 Tb2272 2.353 . S
O2287 C2281 1.263 1_556 S
C2288 O2289 1.275 . S
C2288 O2290 1.246 . S
O2289 Tb2272 2.427 . S
O2289 C2288 1.275 . S
O2290 Tb2272 2.513 . S
O2290 C2288 1.246 . S
C2291 O2275 1.245 . S
C2291 O2276 1.259 . S
Tb2292 O2295 2.453 . S
Tb2292 O2296 2.596 . S
Tb2292 O2297 2.374 . S
Tb2292 O2305 2.343 . S
Tb2292 O2307 2.353 . S
Tb2292 O2309 2.427 . S
Tb2292 O2310 2.513 . S
C2293 O2297 1.251 . S
C2293 O2299 1.263 . S
Tb2294 O2296 2.343 . S
Tb2294 O2299 2.353 . S
Tb2294 O2302 2.427 . S
Tb2294 O2303 2.513 . S
Tb2294 O2304 2.453 . S
Tb2294 O2305 2.596 . S
Tb2294 O2306 2.374 . S
O2295 Tb2292 2.453 . S
O2295 C2311 1.245 . S
O2296 Tb2292 2.596 . S
O2296 Tb2294 2.343 . S
O2296 C2311 1.259 . S
O2297 Tb2292 2.374 . S
O2297 C2293 1.251 . S
C2298 O2302 1.275 . S
C2298 O2303 1.246 . S
O2299 C2293 1.263 . S
O2299 Tb2294 2.353 . S
C2300 O2304 1.245 . S
C2300 O2305 1.259 . S
C2301 O2306 1.250 . S
C2301 O2307 1.263 . S
O2302 Tb2294 2.427 . S
O2302 C2298 1.275 . S
O2303 Tb2294 2.513 . S
O2303 C2298 1.246 . S
O2304 Tb2294 2.453 . S
O2304 C2300 1.245 . S
O2305 Tb2292 2.343 . S
O2305 Tb2294 2.596 . S
O2305 C2300 1.259 . S
O2306 Tb2294 2.374 . S
O2306 C2301 1.250 . S
O2307 Tb2292 2.353 . S
O2307 C2301 1.263 . S
C2308 O2309 1.275 . S
C2308 O2310 1.246 . S
O2309 Tb2292 2.427 . S
O2309 C2308 1.275 . S
O2310 Tb2292 2.513 . S
O2310 C2308 1.246 . S
C2311 O2295 1.245 . S
C2311 O2296 1.259 . S
Tb2312 O2315 2.432 1_655 S
Tb2312 O2316 2.596 1_655 S
Tb2312 O2317 2.374 . S
Tb2312 O2325 2.343 . S
Tb2312 O2327 2.353 . S
Tb2312 O2329 2.427 . S
Tb2312 O2330 2.513 . S
C2313 O2317 1.251 1_455 S
C2313 O2319 1.263 . S
Tb2314 O2316 2.343 . S
Tb2314 O2319 2.353 . S
Tb2314 O2322 2.427 . S
Tb2314 O2323 2.513 . S
Tb2314 O2324 2.453 . S
Tb2314 O2325 2.596 1_455 S
Tb2314 O2326 2.374 . S
O2315 Tb2312 2.432 1_455 S
O2315 C2331 1.278 . S
O2316 Tb2312 2.596 1_455 S
O2316 Tb2314 2.343 . S
O2316 C2331 1.259 . S
O2317 Tb2312 2.374 . S
O2317 C2313 1.251 1_655 S
C2318 O2322 1.275 . S
C2318 O2323 1.246 . S
O2319 C2313 1.263 . S
O2319 Tb2314 2.353 . S
C2320 O2324 1.245 1_655 S
C2320 O2325 1.259 . S
C2321 O2326 1.250 . S
C2321 O2327 1.263 1_455 S
O2322 Tb2314 2.427 . S
O2322 C2318 1.275 . S
O2323 Tb2314 2.513 . S
O2323 C2318 1.246 . S
O2324 Tb2314 2.453 . S
O2324 C2320 1.245 1_455 S
O2325 Tb2312 2.343 . S
O2325 Tb2314 2.596 1_655 S
O2325 C2320 1.259 . S
O2326 Tb2314 2.374 . S
O2326 C2321 1.250 . S
O2327 Tb2312 2.353 . S
O2327 C2321 1.263 1_655 S
C2328 O2329 1.275 . S
C2328 O2330 1.246 . S
O2329 Tb2312 2.427 . S
O2329 C2328 1.275 . S
O2330 Tb2312 2.513 . S
O2330 C2328 1.246 . S
C2331 O2315 1.278 . S
C2331 O2316 1.259 . S
Tb2332 O2335 2.453 . S
Tb2332 O2336 2.596 . S
Tb2332 O2337 2.374 . S
Tb2332 O2345 2.343 . S
Tb2332 O2347 2.353 . S
Tb2332 O2349 2.427 . S
Tb2332 O2350 2.513 . S
C2333 O2337 1.251 . S
C2333 O2339 1.263 . S
Tb2334 O2336 2.343 . S
Tb2334 O2339 2.353 . S
Tb2334 O2342 2.427 . S
Tb2334 O2343 2.513 . S
Tb2334 O2344 2.453 . S
Tb2334 O2345 2.596 . S
Tb2334 O2346 2.374 . S
O2335 Tb2332 2.453 . S
O2335 C2351 1.245 . S
O2336 Tb2332 2.596 . S
O2336 Tb2334 2.343 . S
O2336 C2351 1.259 . S
O2337 Tb2332 2.374 . S
O2337 C2333 1.251 . S
C2338 O2342 1.275 . S
C2338 O2343 1.246 . S
O2339 C2333 1.263 . S
O2339 Tb2334 2.353 . S
C2340 O2344 1.245 . S
C2340 O2345 1.259 . S
C2341 O2346 1.250 . S
C2341 O2347 1.263 . S
O2342 Tb2334 2.427 . S
O2342 C2338 1.275 . S
O2343 Tb2334 2.513 . S
O2343 C2338 1.246 . S
O2344 Tb2334 2.453 . S
O2344 C2340 1.245 . S
O2345 Tb2332 2.343 . S
O2345 Tb2334 2.596 . S
O2345 C2340 1.259 . S
O2346 Tb2334 2.374 . S
O2346 C2341 1.250 . S
O2347 Tb2332 2.353 . S
O2347 C2341 1.263 . S
C2348 O2349 1.275 . S
C2348 O2350 1.246 . S
O2349 Tb2332 2.427 . S
O2349 C2348 1.275 . S
O2350 Tb2332 2.513 . S
O2350 C2348 1.246 . S
C2351 O2335 1.245 . S
C2351 O2336 1.259 . S
Tb2352 O2355 2.453 . S
Tb2352 O2356 2.596 . S
Tb2352 O2357 2.374 . S
Tb2352 O2365 2.343 . S
Tb2352 O2367 2.353 . S
Tb2352 O2369 2.427 . S
Tb2352 O2370 2.513 . S
C2353 O2357 1.251 . S
C2353 O2359 1.263 . S
Tb2354 O2356 2.343 . S
Tb2354 O2359 2.353 . S
Tb2354 O2362 2.427 . S
Tb2354 O2363 2.513 . S
Tb2354 O2364 2.453 . S
Tb2354 O2365 2.596 . S
Tb2354 O2366 2.374 . S
O2355 Tb2352 2.453 . S
O2355 C2371 1.245 . S
O2356 Tb2352 2.596 . S
O2356 Tb2354 2.343 . S
O2356 C2371 1.259 . S
O2357 Tb2352 2.374 . S
O2357 C2353 1.251 . S
C2358 O2362 1.275 . S
C2358 O2363 1.246 . S
O2359 C2353 1.263 . S
O2359 Tb2354 2.353 . S
C2360 O2364 1.245 . S
C2360 O2365 1.259 . S
C2361 O2366 1.250 . S
C2361 O2367 1.263 . S
O2362 Tb2354 2.427 . S
O2362 C2358 1.275 . S
O2363 Tb2354 2.513 . S
O2363 C2358 1.246 . S
O2364 Tb2354 2.453 . S
O2364 C2360 1.245 . S
O2365 Tb2352 2.343 . S
O2365 Tb2354 2.596 . S
O2365 C2360 1.259 . S
O2366 Tb2354 2.374 . S
O2366 C2361 1.250 . S
O2367 Tb2352 2.353 . S
O2367 C2361 1.263 . S
C2368 O2369 1.275 . S
C2368 O2370 1.246 . S
O2369 Tb2352 2.427 . S
O2369 C2368 1.275 . S
O2370 Tb2352 2.513 . S
O2370 C2368 1.246 . S
C2371 O2355 1.245 . S
C2371 O2356 1.259 . S
Tb2372 O2375 2.453 . S
Tb2372 O2376 2.596 . S
Tb2372 O2377 2.374 . S
Tb2372 O2385 2.343 . S
Tb2372 O2387 2.353 . S
Tb2372 O2389 2.427 . S
Tb2372 O2390 2.513 . S
C2373 O2377 1.251 . S
C2373 O2379 1.263 . S
Tb2374 O2376 2.343 . S
Tb2374 O2379 2.353 . S
Tb2374 O2382 2.427 . S
Tb2374 O2383 2.513 . S
Tb2374 O2384 2.453 . S
Tb2374 O2385 2.596 . S
Tb2374 O2386 2.374 . S
O2375 Tb2372 2.453 . S
O2375 C2391 1.245 . S
O2376 Tb2372 2.596 . S
O2376 Tb2374 2.343 . S
O2376 C2391 1.259 . S
O2377 Tb2372 2.374 . S
O2377 C2373 1.251 . S
C2378 O2382 1.275 . S
C2378 O2383 1.246 . S
O2379 C2373 1.263 . S
O2379 Tb2374 2.353 . S
C2380 O2384 1.245 . S
C2380 O2385 1.259 . S
C2381 O2386 1.250 . S
C2381 O2387 1.263 . S
O2382 Tb2374 2.427 . S
O2382 C2378 1.275 . S
O2383 Tb2374 2.513 . S
O2383 C2378 1.246 . S
O2384 Tb2374 2.453 . S
O2384 C2380 1.245 . S
O2385 Tb2372 2.343 . S
O2385 Tb2374 2.596 . S
O2385 C2380 1.259 . S
O2386 Tb2374 2.374 . S
O2386 C2381 1.250 . S
O2387 Tb2372 2.353 . S
O2387 C2381 1.263 . S
C2388 O2389 1.275 . S
C2388 O2390 1.246 . S
O2389 Tb2372 2.427 . S
O2389 C2388 1.275 . S
O2390 Tb2372 2.513 . S
O2390 C2388 1.246 . S
C2391 O2375 1.245 . S
C2391 O2376 1.259 . S
Tb2392 O2395 2.453 . S
Tb2392 O2396 2.596 . S
Tb2392 O2397 2.374 . S
Tb2392 O2405 2.343 . S
Tb2392 O2407 2.353 . S
Tb2392 O2409 2.427 . S
Tb2392 O2410 2.513 . S
C2393 O2397 1.251 . S
C2393 O2399 1.263 . S
Tb2394 O2396 2.343 . S
Tb2394 O2399 2.353 . S
Tb2394 O2402 2.427 . S
Tb2394 O2403 2.513 . S
Tb2394 O2404 2.453 . S
Tb2394 O2405 2.596 . S
Tb2394 O2406 2.374 . S
O2395 Tb2392 2.453 . S
O2395 C2411 1.245 . S
O2396 Tb2392 2.596 . S
O2396 Tb2394 2.343 . S
O2396 C2411 1.259 . S
O2397 Tb2392 2.374 . S
O2397 C2393 1.251 . S
C2398 O2402 1.275 . S
C2398 O2403 1.246 . S
O2399 C2393 1.263 . S
O2399 Tb2394 2.353 . S
C2400 O2404 1.245 . S
C2400 O2405 1.259 . S
C2401 O2406 1.250 . S
C2401 O2407 1.263 . S
O2402 Tb2394 2.427 . S
O2402 C2398 1.275 . S
O2403 Tb2394 2.513 . S
O2403 C2398 1.246 . S
O2404 Tb2394 2.453 . S
O2404 C2400 1.245 . S
O2405 Tb2392 2.343 . S
O2405 Tb2394 2.596 . S
O2405 C2400 1.259 . S
O2406 Tb2394 2.374 . S
O2406 C2401 1.250 . S
O2407 Tb2392 2.353 . S
O2407 C2401 1.263 . S
C2408 O2409 1.275 . S
C2408 O2410 1.246 . S
O2409 Tb2392 2.427 . S
O2409 C2408 1.275 . S
O2410 Tb2392 2.513 . S
O2410 C2408 1.246 . S
C2411 O2395 1.245 . S
C2411 O2396 1.259 . S
Tb2412 O2415 2.453 . S
Tb2412 O2416 2.596 . S
Tb2412 O2417 2.374 . S
Tb2412 O2425 2.343 . S
Tb2412 O2427 2.353 1_554 S
Tb2412 O2429 2.427 1_554 S
Tb2412 O2430 2.513 . S
C2413 O2417 1.251 . S
C2413 O2419 1.263 1_455 S
Tb2414 O2416 2.343 1_655 S
Tb2414 O2419 2.353 . S
Tb2414 O2422 2.427 . S
Tb2414 O2423 2.513 . S
Tb2414 O2424 2.453 . S
Tb2414 O2425 2.596 1_655 S
Tb2414 O2426 2.374 1_554 S
O2415 Tb2412 2.453 . S
O2415 C2431 1.245 . S
O2416 Tb2412 2.596 . S
O2416 Tb2414 2.343 1_455 S
O2416 C2431 1.259 . S
O2417 Tb2412 2.374 . S
O2417 C2413 1.251 . S
C2418 O2422 1.275 . S
C2418 O2423 1.246 . S
O2419 C2413 1.263 1_655 S
O2419 Tb2414 2.353 . S
C2420 O2424 1.219 1_456 S
C2420 O2425 1.270 1_556 S
C2421 O2426 1.251 1_455 S
C2421 O2427 1.262 . S
O2422 Tb2414 2.427 . S
O2422 C2418 1.275 . S
O2423 Tb2414 2.513 . S
O2423 C2418 1.246 . S
O2424 Tb2414 2.453 . S
O2424 C2420 1.219 1_654 S
O2425 Tb2412 2.343 . S
O2425 Tb2414 2.596 1_455 S
O2425 C2420 1.270 1_554 S
O2426 Tb2414 2.374 1_556 S
O2426 C2421 1.251 1_655 S
O2427 Tb2412 2.353 1_556 S
O2427 C2421 1.262 . S
C2428 O2429 1.275 . S
C2428 O2430 1.246 1_556 S
O2429 Tb2412 2.427 1_556 S
O2429 C2428 1.275 . S
O2430 Tb2412 2.513 . S
O2430 C2428 1.246 1_554 S
C2431 O2415 1.245 . S
C2431 O2416 1.259 . S
C2432 C2433 1.369 1_655 S
C2432 C2434 1.419 . S
C2432 H2436 0.930 . S
C2433 C2432 1.369 1_455 S
C2433 C2442 1.429 . S
C2434 C2432 1.419 . S
C2434 C2435 1.363 1_655 S
C2434 H2437 0.929 . S
C2435 C2434 1.363 1_455 S
C2435 C2441 1.428 . S
H2436 C2432 0.930 . S
H2437 C2434 0.929 . S
S2438 N2439 1.613 . S
S2438 N2440 1.610 . S
N2439 S2438 1.613 . S
N2439 C2442 1.350 . S
N2440 S2438 1.610 . S
N2440 C2441 1.351 . S
C2441 C2435 1.428 . S
C2441 N2440 1.351 . S
C2441 C2442 1.434 . S
C2442 C2433 1.429 . S
C2442 N2439 1.350 . S
C2442 C2441 1.434 . S
C2443 C2444 1.369 . S
C2443 C2445 1.419 . S
C2443 H2447 0.930 . S
C2444 C2443 1.369 . S
C2444 C2453 1.429 . S
C2445 C2443 1.419 . S
C2445 C2446 1.363 . S
C2445 H2448 0.929 . S
C2446 C2445 1.363 . S
C2446 C2452 1.428 . S
H2447 C2443 0.930 . S
H2448 C2445 0.929 . S
S2449 N2450 1.613 . S
S2449 N2451 1.610 . S
N2450 S2449 1.613 . S
N2450 C2453 1.350 . S
N2451 S2449 1.610 . S
N2451 C2452 1.351 . S
C2452 C2446 1.428 . S
C2452 N2451 1.351 . S
C2452 C2453 1.434 . S
C2453 C2444 1.429 . S
C2453 N2450 1.350 . S
C2453 C2452 1.434 . S
C2454 C2455 1.369 . S
C2454 C2456 1.419 . S
C2454 H2458 0.930 . S
C2455 C2454 1.369 . S
C2455 C2464 1.429 . S
C2456 C2454 1.419 . S
C2456 C2457 1.363 . S
C2456 H2459 0.929 . S
C2457 C2456 1.363 . S
C2457 C2463 1.428 . S
H2458 C2454 0.930 . S
H2459 C2456 0.929 . S
S2460 N2461 1.613 . S
S2460 N2462 1.610 . S
N2461 S2460 1.613 . S
N2461 C2464 1.350 . S
N2462 S2460 1.610 . S
N2462 C2463 1.351 . S
C2463 C2457 1.428 . S
C2463 N2462 1.351 . S
C2463 C2464 1.434 . S
C2464 C2455 1.429 . S
C2464 N2461 1.350 . S
C2464 C2463 1.434 . S
C2465 C2466 1.369 . S
C2465 C2467 1.419 . S
C2465 H2469 0.930 . S
C2466 C2465 1.369 . S
C2466 C2475 1.429 . S
C2467 C2465 1.419 . S
C2467 C2468 1.363 . S
C2467 H2470 0.929 . S
C2468 C2467 1.363 . S
C2468 C2474 1.428 . S
H2469 C2465 0.930 . S
H2470 C2467 0.929 . S
S2471 N2472 1.613 . S
S2471 N2473 1.610 . S
N2472 S2471 1.613 . S
N2472 C2475 1.350 . S
N2473 S2471 1.610 . S
N2473 C2474 1.351 . S
C2474 C2468 1.428 . S
C2474 N2473 1.351 . S
C2474 C2475 1.434 . S
C2475 C2466 1.429 . S
C2475 N2472 1.350 . S
C2475 C2474 1.434 . S
C2476 C2477 1.369 1_655 S
C2476 C2478 1.419 . S
C2476 H2480 0.930 . S
C2477 C2476 1.369 1_455 S
C2477 C2486 1.429 . S
C2478 C2476 1.419 . S
C2478 C2479 1.363 1_655 S
C2478 H2481 0.929 . S
C2479 C2478 1.363 1_455 S
C2479 C2485 1.428 . S
H2480 C2476 0.930 . S
H2481 C2478 0.929 . S
S2482 N2483 1.613 . S
S2482 N2484 1.610 . S
N2483 S2482 1.613 . S
N2483 C2486 1.350 . S
N2484 S2482 1.610 . S
N2484 C2485 1.351 . S
C2485 C2479 1.428 . S
C2485 N2484 1.351 . S
C2485 C2486 1.434 . S
C2486 C2477 1.429 . S
C2486 N2483 1.350 . S
C2486 C2485 1.434 . S
C2487 C2488 1.369 . S
C2487 C2489 1.419 . S
C2487 H2491 0.930 . S
C2488 C2487 1.369 . S
C2488 C2497 1.429 . S
C2489 C2487 1.419 . S
C2489 C2490 1.363 . S
C2489 H2492 0.929 . S
C2490 C2489 1.363 . S
C2490 C2496 1.428 . S
H2491 C2487 0.930 . S
H2492 C2489 0.929 . S
S2493 N2494 1.613 . S
S2493 N2495 1.610 . S
N2494 S2493 1.613 . S
N2494 C2497 1.350 . S
N2495 S2493 1.610 . S
N2495 C2496 1.351 . S
C2496 C2490 1.428 . S
C2496 N2495 1.351 . S
C2496 C2497 1.434 . S
C2497 C2488 1.429 . S
C2497 N2494 1.350 . S
C2497 C2496 1.434 . S
C2498 C2499 1.369 . S
C2498 C2500 1.419 . S
C2498 H2502 0.930 . S
C2499 C2498 1.369 . S
C2499 C2508 1.429 . S
C2500 C2498 1.419 . S
C2500 C2501 1.363 . S
C2500 H2503 0.929 . S
C2501 C2500 1.363 . S
C2501 C2507 1.428 . S
H2502 C2498 0.930 . S
H2503 C2500 0.929 . S
S2504 N2505 1.613 1_556 S
S2504 N2506 1.610 . S
N2505 S2504 1.613 1_554 S
N2505 C2508 1.350 . S
N2506 S2504 1.610 . S
N2506 C2507 1.351 1_556 S
C2507 C2501 1.428 . S
C2507 N2506 1.351 1_554 S
C2507 C2508 1.434 . S
C2508 C2499 1.429 . S
C2508 N2505 1.350 . S
C2508 C2507 1.434 . S
C2509 C2510 1.369 . S
C2509 C2511 1.419 . S
C2509 H2513 0.930 . S
C2510 C2509 1.369 . S
C2510 C2519 1.429 . S
C2511 C2509 1.419 . S
C2511 C2512 1.363 . S
C2511 H2514 0.929 . S
C2512 C2511 1.363 . S
C2512 C2518 1.428 . S
H2513 C2509 0.930 . S
H2514 C2511 0.929 . S
S2515 N2516 1.613 . S
S2515 N2517 1.610 . S
N2516 S2515 1.613 . S
N2516 C2519 1.350 . S
N2517 S2515 1.610 . S
N2517 C2518 1.351 . S
C2518 C2512 1.428 . S
C2518 N2517 1.351 . S
C2518 C2519 1.434 . S
C2519 C2510 1.429 . S
C2519 N2516 1.350 . S
C2519 C2518 1.434 . S
C2520 C2521 1.369 . S
C2520 C2522 1.419 . S
C2520 H2524 0.930 . S
C2521 C2520 1.369 . S
C2521 C2530 1.429 . S
C2522 C2520 1.419 . S
C2522 C2523 1.363 . S
C2522 H2525 0.929 1_655 S
C2523 C2522 1.363 . S
C2523 C2529 1.428 . S
H2524 C2520 0.930 . S
H2525 C2522 0.929 1_455 S
S2526 N2527 1.613 1_565 S
S2526 N2528 1.610 1_565 S
N2527 S2526 1.613 1_545 S
N2527 C2530 1.350 . S
N2528 S2526 1.610 1_545 S
N2528 C2529 1.351 . S
C2529 C2523 1.428 . S
C2529 N2528 1.351 . S
C2529 C2530 1.434 . S
C2530 C2521 1.429 . S
C2530 N2527 1.350 . S
C2530 C2529 1.434 . S
C2531 C2532 1.369 . S
C2531 C2533 1.419 . S
C2531 H2535 0.930 . S
C2532 C2531 1.369 . S
C2532 C2541 1.429 . S
C2533 C2531 1.419 . S
C2533 C2534 1.363 . S
C2533 H2536 0.929 . S
C2534 C2533 1.363 . S
C2534 C2540 1.428 . S
H2535 C2531 0.930 . S
H2536 C2533 0.929 . S
S2537 N2538 1.613 . S
S2537 N2539 1.610 . S
N2538 S2537 1.613 . S
N2538 C2541 1.350 . S
N2539 S2537 1.610 . S
N2539 C2540 1.351 . S
C2540 C2534 1.428 . S
C2540 N2539 1.351 . S
C2540 C2541 1.434 . S
C2541 C2532 1.429 . S
C2541 N2538 1.350 . S
C2541 C2540 1.434 . S
C2542 C2543 1.369 . S
C2542 C2544 1.419 . S
C2542 H2546 0.930 . S
C2543 C2542 1.369 . S
C2543 C2552 1.429 1_545 S
C2544 C2542 1.419 . S
C2544 C2545 1.363 . S
C2544 H2547 0.929 . S
C2545 C2544 1.363 . S
C2545 C2551 1.427 1_545 S
H2546 C2542 0.930 . S
H2547 C2544 0.929 . S
S2548 N2549 1.613 . S
S2548 N2550 1.610 . S
N2549 S2548 1.613 . S
N2549 C2552 1.350 . S
N2550 S2548 1.610 . S
N2550 C2551 1.352 . S
C2551 C2545 1.427 1_565 S
C2551 N2550 1.352 . S
C2551 C2552 1.434 . S
C2552 C2543 1.429 1_565 S
C2552 N2549 1.350 . S
C2552 C2551 1.434 . S
C2553 C2554 1.369 . S
C2553 C2555 1.419 . S
C2553 H2557 0.930 . S
C2554 C2553 1.369 . S
C2554 C2563 1.429 . S
C2555 C2553 1.419 . S
C2555 C2556 1.363 . S
C2555 H2558 0.929 . S
C2556 C2555 1.363 . S
C2556 C2562 1.428 . S
H2557 C2553 0.930 . S
H2558 C2555 0.929 . S
S2559 N2560 1.613 . S
S2559 N2561 1.610 . S
N2560 S2559 1.613 . S
N2560 C2563 1.350 . S
N2561 S2559 1.610 . S
N2561 C2562 1.351 . S
C2562 C2556 1.428 . S
C2562 N2561 1.351 . S
C2562 C2563 1.434 . S
C2563 C2554 1.429 . S
C2563 N2560 1.350 . S
C2563 C2562 1.434 . S
C2564 C2565 1.369 . S
C2564 C2566 1.419 . S
C2564 H2568 0.930 . S
C2565 C2564 1.369 . S
C2565 C2574 1.429 . S
C2566 C2564 1.419 . S
C2566 C2567 1.363 . S
C2566 H2569 0.929 . S
C2567 C2566 1.363 . S
C2567 C2573 1.428 . S
H2568 C2564 0.930 . S
H2569 C2566 0.929 . S
S2570 N2571 1.613 1_565 S
S2570 N2572 1.610 1_565 S
N2571 S2570 1.613 1_545 S
N2571 C2574 1.350 . S
N2572 S2570 1.610 1_545 S
N2572 C2573 1.351 . S
C2573 C2567 1.428 . S
C2573 N2572 1.351 . S
C2573 C2574 1.434 . S
C2574 C2565 1.429 . S
C2574 N2571 1.350 . S
C2574 C2573 1.434 . S
C2575 C2576 1.369 . S
C2575 C2577 1.419 . S
C2575 H2579 0.930 . S
C2576 C2575 1.369 . S
C2576 C2585 1.429 . S
C2577 C2575 1.419 . S
C2577 C2578 1.363 . S
C2577 H2580 0.929 . S
C2578 C2577 1.363 . S
C2578 C2584 1.428 . S
H2579 C2575 0.930 . S
H2580 C2577 0.929 . S
S2581 N2582 1.613 . S
S2581 N2583 1.610 . S
N2582 S2581 1.613 . S
N2582 C2585 1.350 . S
N2583 S2581 1.610 . S
N2583 C2584 1.351 . S
C2584 C2578 1.428 . S
C2584 N2583 1.351 . S
C2584 C2585 1.434 . S
C2585 C2576 1.429 . S
C2585 N2582 1.350 . S
C2585 C2584 1.434 . S
C2586 C2587 1.369 . S
C2586 C2588 1.419 . S
C2586 H2590 0.930 . S
C2587 C2586 1.369 . S
C2587 C2596 1.429 . S
C2588 C2586 1.419 . S
C2588 C2589 1.363 . S
C2588 H2591 0.929 . S
C2589 C2588 1.363 . S
C2589 C2595 1.428 . S
H2590 C2586 0.930 . S
H2591 C2588 0.929 . S
S2592 N2593 1.613 . S
S2592 N2594 1.610 . S
N2593 S2592 1.613 . S
N2593 C2596 1.350 . S
N2594 S2592 1.610 . S
N2594 C2595 1.351 . S
C2595 C2589 1.428 . S
C2595 N2594 1.351 . S
C2595 C2596 1.434 . S
C2596 C2587 1.429 . S
C2596 N2593 1.350 . S
C2596 C2595 1.434 . S
C2597 C2598 1.369 . S
C2597 C2599 1.419 . S
C2597 H2601 0.930 . S
C2598 C2597 1.369 . S
C2598 C2607 1.429 . S
C2599 C2597 1.419 . S
C2599 C2600 1.363 . S
C2599 H2602 0.929 . S
C2600 C2599 1.363 . S
C2600 C2606 1.428 . S
H2601 C2597 0.930 . S
H2602 C2599 0.929 . S
S2603 N2604 1.613 . S
S2603 N2605 1.610 . S
N2604 S2603 1.613 . S
N2604 C2607 1.350 . S
N2605 S2603 1.610 . S
N2605 C2606 1.351 . S
C2606 C2600 1.428 . S
C2606 N2605 1.351 . S
C2606 C2607 1.434 . S
C2607 C2598 1.429 . S
C2607 N2604 1.350 . S
C2607 C2606 1.434 . S
C2608 C2609 1.369 . S
C2608 C2610 1.419 . S
C2608 H2612 0.930 . S
C2609 C2608 1.369 . S
C2609 C2618 1.412 1_565 S
C2610 C2608 1.419 . S
C2610 C2611 1.347 1_565 S
C2610 H2613 0.929 . S
C2611 C2610 1.347 1_545 S
C2611 C2617 1.434 . S
H2612 C2608 0.930 . S
H2613 C2610 0.929 . S
S2614 N2615 1.615 . S
S2614 N2616 1.604 1_556 S
N2615 S2614 1.615 . S
N2615 C2618 1.355 1_556 S
N2616 S2614 1.604 1_554 S
N2616 C2617 1.358 . S
C2617 C2611 1.434 . S
C2617 N2616 1.358 . S
C2617 C2618 1.444 . S
C2618 C2609 1.412 1_545 S
C2618 N2615 1.355 1_554 S
C2618 C2617 1.444 . S
C2619 C2620 1.369 1_554 S
C2619 C2621 1.419 . S
C2619 H2623 0.930 . S
C2620 C2619 1.369 1_556 S
C2620 C2629 1.429 . S
C2621 C2619 1.419 . S
C2621 C2622 1.369 . S
C2621 H2624 0.929 . S
C2622 C2621 1.369 . S
C2622 C2628 1.414 1_554 S
H2623 C2619 0.930 . S
H2624 C2621 0.929 . S
S2625 N2626 1.613 . S
S2625 N2627 1.610 . S
N2626 S2625 1.613 . S
N2626 C2629 1.350 . S
N2627 S2625 1.610 . S
N2627 C2628 1.351 . S
C2628 C2622 1.414 1_556 S
C2628 N2627 1.351 . S
C2628 C2629 1.434 . S
C2629 C2620 1.429 . S
C2629 N2626 1.350 . S
C2629 C2628 1.434 . S
C2630 C2631 1.369 . S
C2630 C2632 1.419 . S
C2630 H2634 0.930 . S
C2631 C2630 1.369 . S
C2631 C2640 1.429 . S
C2632 C2630 1.419 . S
C2632 C2633 1.363 . S
C2632 H2635 0.929 . S
C2633 C2632 1.363 . S
C2633 C2639 1.428 . S
H2634 C2630 0.930 . S
H2635 C2632 0.929 . S
S2636 N2637 1.613 . S
S2636 N2638 1.610 . S
N2637 S2636 1.613 . S
N2637 C2640 1.350 . S
N2638 S2636 1.610 . S
N2638 C2639 1.351 . S
C2639 C2633 1.428 . S
C2639 N2638 1.351 . S
C2639 C2640 1.434 . S
C2640 C2631 1.429 . S
C2640 N2637 1.350 . S
C2640 C2639 1.434 . S
C2641 C2642 1.369 . S
C2641 C2643 1.419 . S
C2641 H2645 0.930 . S
C2642 C2641 1.369 . S
C2642 C2651 1.429 . S
C2643 C2641 1.419 . S
C2643 C2644 1.363 . S
C2643 H2646 0.929 . S
C2644 C2643 1.363 . S
C2644 C2650 1.428 . S
H2645 C2641 0.930 . S
H2646 C2643 0.929 . S
S2647 N2648 1.613 . S
S2647 N2649 1.610 . S
N2648 S2647 1.613 . S
N2648 C2651 1.350 . S
N2649 S2647 1.610 . S
N2649 C2650 1.351 . S
C2650 C2644 1.428 . S
C2650 N2649 1.351 . S
C2650 C2651 1.434 . S
C2651 C2642 1.429 . S
C2651 N2648 1.350 . S
C2651 C2650 1.434 . S
C2652 C2653 1.369 . S
C2652 C2654 1.419 . S
C2652 H2656 0.930 . S
C2653 C2652 1.369 . S
C2653 C2662 1.429 . S
C2654 C2652 1.419 . S
C2654 C2655 1.363 . S
C2654 H2657 0.929 . S
C2655 C2654 1.363 . S
C2655 C2661 1.428 . S
H2656 C2652 0.930 . S
H2657 C2654 0.929 . S
S2658 N2659 1.613 . S
S2658 N2660 1.610 . S
N2659 S2658 1.613 . S
N2659 C2662 1.350 . S
N2660 S2658 1.610 . S
N2660 C2661 1.351 . S
C2661 C2655 1.428 . S
C2661 N2660 1.351 . S
C2661 C2662 1.434 . S
C2662 C2653 1.429 . S
C2662 N2659 1.350 . S
C2662 C2661 1.434 . S
C2663 C2664 1.369 . S
C2663 C2665 1.419 . S
C2663 H2667 0.930 . S
C2664 C2663 1.369 . S
C2664 C2673 1.429 . S
C2665 C2663 1.419 . S
C2665 C2666 1.363 . S
C2665 H2668 0.929 . S
C2666 C2665 1.363 . S
C2666 C2672 1.428 . S
H2667 C2663 0.930 . S
H2668 C2665 0.929 . S
S2669 N2670 1.613 . S
S2669 N2671 1.610 . S
N2670 S2669 1.613 . S
N2670 C2673 1.350 . S
N2671 S2669 1.610 . S
N2671 C2672 1.351 . S
C2672 C2666 1.428 . S
C2672 N2671 1.351 . S
C2672 C2673 1.434 . S
C2673 C2664 1.429 . S
C2673 N2670 1.350 . S
C2673 C2672 1.434 . S
C2674 C2675 1.369 . S
C2674 C2676 1.419 . S
C2674 H2678 0.930 . S
C2675 C2674 1.369 . S
C2675 C2684 1.429 . S
C2676 C2674 1.419 . S
C2676 C2677 1.363 . S
C2676 H2679 0.929 . S
C2677 C2676 1.363 . S
C2677 C2683 1.428 . S
H2678 C2674 0.930 . S
H2679 C2676 0.929 . S
S2680 N2681 1.613 . S
S2680 N2682 1.610 . S
N2681 S2680 1.613 . S
N2681 C2684 1.350 . S
N2682 S2680 1.610 . S
N2682 C2683 1.351 . S
C2683 C2677 1.428 . S
C2683 N2682 1.351 . S
C2683 C2684 1.434 . S
C2684 C2675 1.429 . S
C2684 N2681 1.350 . S
C2684 C2683 1.434 . S
C2685 C2686 1.369 . S
C2685 C2687 1.419 . S
C2685 H2689 0.930 . S
C2686 C2685 1.369 . S
C2686 C2695 1.429 . S
C2687 C2685 1.419 . S
C2687 C2688 1.363 . S
C2687 H2690 0.929 . S
C2688 C2687 1.363 . S
C2688 C2694 1.428 . S
H2689 C2685 0.930 . S
H2690 C2687 0.929 . S
S2691 N2692 1.613 . S
S2691 N2693 1.610 . S
N2692 S2691 1.613 . S
N2692 C2695 1.350 . S
N2693 S2691 1.610 . S
N2693 C2694 1.351 . S
C2694 C2688 1.428 . S
C2694 N2693 1.351 . S
C2694 C2695 1.434 . S
C2695 C2686 1.429 . S
C2695 N2692 1.350 . S
C2695 C2694 1.434 . S
C2696 C2697 1.369 . S
C2696 C2698 1.419 . S
C2696 H2700 0.930 . S
C2697 C2696 1.369 . S
C2697 C2706 1.429 . S
C2698 C2696 1.419 . S
C2698 C2699 1.363 . S
C2698 H2701 0.929 . S
C2699 C2698 1.363 . S
C2699 C2705 1.428 . S
H2700 C2696 0.930 . S
H2701 C2698 0.929 . S
S2702 N2703 1.613 1_655 S
S2702 N2704 1.605 1_655 S
N2703 S2702 1.613 1_455 S
N2703 C2706 1.350 . S
N2704 S2702 1.605 1_455 S
N2704 C2705 1.363 . S
C2705 C2699 1.428 . S
C2705 N2704 1.363 . S
C2705 C2706 1.434 . S
C2706 C2697 1.429 . S
C2706 N2703 1.350 . S
C2706 C2705 1.434 . S
C2707 C2708 1.369 . S
C2707 C2709 1.419 . S
C2707 H2711 0.930 . S
C2708 C2707 1.369 . S
C2708 C2717 1.429 . S
C2709 C2707 1.419 . S
C2709 C2710 1.363 . S
C2709 H2712 0.929 . S
C2710 C2709 1.363 . S
C2710 C2716 1.428 . S
H2711 C2707 0.930 . S
H2712 C2709 0.929 . S
S2713 N2714 1.613 . S
S2713 N2715 1.610 . S
N2714 S2713 1.613 . S
N2714 C2717 1.350 . S
N2715 S2713 1.610 . S
N2715 C2716 1.351 . S
C2716 C2710 1.428 . S
C2716 N2715 1.351 . S
C2716 C2717 1.434 . S
C2717 C2708 1.429 . S
C2717 N2714 1.350 . S
C2717 C2716 1.434 . S
C2718 C2719 1.369 . S
C2718 C2720 1.419 . S
C2718 H2722 0.930 . S
C2719 C2718 1.369 . S
C2719 C2728 1.429 . S
C2720 C2718 1.419 . S
C2720 C2721 1.363 . S
C2720 H2723 0.929 . S
C2721 C2720 1.363 . S
C2721 C2727 1.428 . S
H2722 C2718 0.930 . S
H2723 C2720 0.929 . S
S2724 N2725 1.613 . S
S2724 N2726 1.610 . S
N2725 S2724 1.613 . S
N2725 C2728 1.350 . S
N2726 S2724 1.610 . S
N2726 C2727 1.351 . S
C2727 C2721 1.428 . S
C2727 N2726 1.351 . S
C2727 C2728 1.434 . S
C2728 C2719 1.429 . S
C2728 N2725 1.350 . S
C2728 C2727 1.434 . S
C2729 C2730 1.369 . S
C2729 C2731 1.419 . S
C2729 H2733 0.930 . S
C2730 C2729 1.369 . S
C2730 C2739 1.429 . S
C2731 C2729 1.419 . S
C2731 C2732 1.363 . S
C2731 H2734 0.929 . S
C2732 C2731 1.363 . S
C2732 C2738 1.428 . S
H2733 C2729 0.930 . S
H2734 C2731 0.929 . S
S2735 N2736 1.613 . S
S2735 N2737 1.610 . S
N2736 S2735 1.613 . S
N2736 C2739 1.350 . S
N2737 S2735 1.610 . S
N2737 C2738 1.351 . S
C2738 C2732 1.428 . S
C2738 N2737 1.351 . S
C2738 C2739 1.434 . S
C2739 C2730 1.429 . S
C2739 N2736 1.350 . S
C2739 C2738 1.434 . S
C2740 C2741 1.385 . S
C2740 C2742 1.419 1_455 S
C2740 H2744 0.914 1_455 S
C2741 C2740 1.385 . S
C2741 C2750 1.429 . S
C2742 C2740 1.419 1_655 S
C2742 C2743 1.363 1_655 S
C2742 H2745 0.929 . S
C2743 C2742 1.363 1_455 S
C2743 C2749 1.428 . S
H2744 C2740 0.914 1_655 S
H2745 C2742 0.929 . S
S2746 N2747 1.613 . S
S2746 N2748 1.610 . S
N2747 S2746 1.613 . S
N2747 C2750 1.350 . S
N2748 S2746 1.610 . S
N2748 C2749 1.351 . S
C2749 C2743 1.428 . S
C2749 N2748 1.351 . S
C2749 C2750 1.434 . S
C2750 C2741 1.429 . S
C2750 N2747 1.350 . S
C2750 C2749 1.434 . S
C2751 C2752 1.369 . S
C2751 C2753 1.419 . S
C2751 H2755 0.930 . S
C2752 C2751 1.369 . S
C2752 C2761 1.429 . S
C2753 C2751 1.419 . S
C2753 C2754 1.363 . S
C2753 H2756 0.929 . S
C2754 C2753 1.363 . S
C2754 C2760 1.428 . S
H2755 C2751 0.930 . S
H2756 C2753 0.929 . S
S2757 N2758 1.613 . S
S2757 N2759 1.610 . S
N2758 S2757 1.613 . S
N2758 C2761 1.350 . S
N2759 S2757 1.610 . S
N2759 C2760 1.351 . S
C2760 C2754 1.428 . S
C2760 N2759 1.351 . S
C2760 C2761 1.434 . S
C2761 C2752 1.429 . S
C2761 N2758 1.350 . S
C2761 C2760 1.434 . S
C2762 C2763 1.369 . S
C2762 C2764 1.419 1_556 S
C2762 H2766 0.930 1_556 S
C2763 C2762 1.369 . S
C2763 C2772 1.429 . S
C2764 C2762 1.419 1_554 S
C2764 C2765 1.363 1_554 S
C2764 H2767 0.929 . S
C2765 C2764 1.363 1_556 S
C2765 C2771 1.428 . S
H2766 C2762 0.930 1_554 S
H2767 C2764 0.929 . S
S2768 N2769 1.613 . S
S2768 N2770 1.610 . S
N2769 S2768 1.613 . S
N2769 C2772 1.350 . S
N2770 S2768 1.610 . S
N2770 C2771 1.351 . S
C2771 C2765 1.428 . S
C2771 N2770 1.351 . S
C2771 C2772 1.434 . S
C2772 C2763 1.429 . S
C2772 N2769 1.350 . S
C2772 C2771 1.434 . S
C2773 C2774 1.369 . S
C2773 C2775 1.419 . S
C2773 H2777 0.930 . S
C2774 C2773 1.369 . S
C2774 C2783 1.429 . S
C2775 C2773 1.419 . S
C2775 C2776 1.363 . S
C2775 H2778 0.929 . S
C2776 C2775 1.363 . S
C2776 C2782 1.428 . S
H2777 C2773 0.930 . S
H2778 C2775 0.929 . S
S2779 N2780 1.613 . S
S2779 N2781 1.610 . S
N2780 S2779 1.613 . S
N2780 C2783 1.350 . S
N2781 S2779 1.610 . S
N2781 C2782 1.351 . S
C2782 C2776 1.428 . S
C2782 N2781 1.351 . S
C2782 C2783 1.434 . S
C2783 C2774 1.429 . S
C2783 N2780 1.350 . S
C2783 C2782 1.434 . S
C2784 C2785 1.369 1_545 S
C2784 C2786 1.419 . S
C2784 H2788 0.930 . S
C2785 C2784 1.369 1_565 S
C2785 C2794 1.429 . S
C2786 C2784 1.419 . S
C2786 C2787 1.363 . S
C2786 H2789 0.929 . S
C2787 C2786 1.363 . S
C2787 C2793 1.428 1_545 S
H2788 C2784 0.930 . S
H2789 C2786 0.929 . S
S2790 N2791 1.613 1_655 S
S2790 N2792 1.610 . S
N2791 S2790 1.613 1_455 S
N2791 C2794 1.350 . S
N2792 S2790 1.610 . S
N2792 C2793 1.351 1_655 S
C2793 C2787 1.428 1_565 S
C2793 N2792 1.351 1_455 S
C2793 C2794 1.434 . S
C2794 C2785 1.429 . S
C2794 N2791 1.350 . S
C2794 C2793 1.434 . S
C2795 C2796 1.369 . S
C2795 C2797 1.419 . S
C2795 H2799 0.930 . S
C2796 C2795 1.369 . S
C2796 C2805 1.429 . S
C2797 C2795 1.419 . S
C2797 C2798 1.363 . S
C2797 H2800 0.929 . S
C2798 C2797 1.363 . S
C2798 C2804 1.428 . S
H2799 C2795 0.930 . S
H2800 C2797 0.929 . S
S2801 N2802 1.613 . S
S2801 N2803 1.610 . S
N2802 S2801 1.613 . S
N2802 C2805 1.350 . S
N2803 S2801 1.610 . S
N2803 C2804 1.351 . S
C2804 C2798 1.428 . S
C2804 N2803 1.351 . S
C2804 C2805 1.434 . S
C2805 C2796 1.429 . S
C2805 N2802 1.350 . S
C2805 C2804 1.434 . S
C2806 C2807 1.369 . S
C2806 C2808 1.419 . S
C2806 H2810 0.930 . S
C2807 C2806 1.369 . S
C2807 C2816 1.429 . S
C2808 C2806 1.419 . S
C2808 C2809 1.363 . S
C2808 H2811 0.929 . S
C2809 C2808 1.363 . S
C2809 C2815 1.428 . S
H2810 C2806 0.930 . S
H2811 C2808 0.929 . S
S2812 N2813 1.613 . S
S2812 N2814 1.610 . S
N2813 S2812 1.613 . S
N2813 C2816 1.350 . S
N2814 S2812 1.610 . S
N2814 C2815 1.351 . S
C2815 C2809 1.428 . S
C2815 N2814 1.351 . S
C2815 C2816 1.434 . S
C2816 C2807 1.429 . S
C2816 N2813 1.350 . S
C2816 C2815 1.434 . S
C2817 C2818 1.369 . S
C2817 C2819 1.419 . S
C2817 H2821 0.930 . S
C2818 C2817 1.369 . S
C2818 C2827 1.429 . S
C2819 C2817 1.419 . S
C2819 C2820 1.363 . S
C2819 H2822 0.929 . S
C2820 C2819 1.363 . S
C2820 C2826 1.428 . S
H2821 C2817 0.930 . S
H2822 C2819 0.929 . S
S2823 N2824 1.613 . S
S2823 N2825 1.610 . S
N2824 S2823 1.613 . S
N2824 C2827 1.350 . S
N2825 S2823 1.610 . S
N2825 C2826 1.351 . S
C2826 C2820 1.428 . S
C2826 N2825 1.351 . S
C2826 C2827 1.434 . S
C2827 C2818 1.429 . S
C2827 N2824 1.350 . S
C2827 C2826 1.434 . S
C2828 C2829 1.369 . S
C2828 C2830 1.419 . S
C2828 H2832 0.930 . S
C2829 C2828 1.369 . S
C2829 C2838 1.429 1_565 S
C2830 C2828 1.419 . S
C2830 C2831 1.363 1_565 S
C2830 H2833 0.929 . S
C2831 C2830 1.363 1_545 S
C2831 C2837 1.428 . S
H2832 C2828 0.930 . S
H2833 C2830 0.929 . S
S2834 N2835 1.613 . S
S2834 N2836 1.610 . S
N2835 S2834 1.613 . S
N2835 C2838 1.350 . S
N2836 S2834 1.610 . S
N2836 C2837 1.351 . S
C2837 C2831 1.428 . S
C2837 N2836 1.351 . S
C2837 C2838 1.434 . S
C2838 C2829 1.429 1_545 S
C2838 N2835 1.350 . S
C2838 C2837 1.434 . S
C2839 C2840 1.369 . S
C2839 C2841 1.419 . S
C2839 H2843 0.930 . S
C2840 C2839 1.369 . S
C2840 C2849 1.429 . S
C2841 C2839 1.419 . S
C2841 C2842 1.363 . S
C2841 H2844 0.929 . S
C2842 C2841 1.363 . S
C2842 C2848 1.428 . S
H2843 C2839 0.930 . S
H2844 C2841 0.929 . S
S2845 N2846 1.613 . S
S2845 N2847 1.610 . S
N2846 S2845 1.613 . S
N2846 C2849 1.350 . S
N2847 S2845 1.610 . S
N2847 C2848 1.351 . S
C2848 C2842 1.428 . S
C2848 N2847 1.351 . S
C2848 C2849 1.434 . S
C2849 C2840 1.429 . S
C2849 N2846 1.350 . S
C2849 C2848 1.434 . S
C2850 C2851 1.369 . S
C2850 C2852 1.419 . S
C2850 H2854 0.930 . S
C2851 C2850 1.369 . S
C2851 C2860 1.429 . S
C2852 C2850 1.419 . S
C2852 C2853 1.363 . S
C2852 H2855 0.929 . S
C2853 C2852 1.363 . S
C2853 C2859 1.428 . S
H2854 C2850 0.930 . S
H2855 C2852 0.929 . S
S2856 N2857 1.613 . S
S2856 N2858 1.610 . S
N2857 S2856 1.613 . S
N2857 C2860 1.350 . S
N2858 S2856 1.610 . S
N2858 C2859 1.351 . S
C2859 C2853 1.428 . S
C2859 N2858 1.351 . S
C2859 C2860 1.434 . S
C2860 C2851 1.429 . S
C2860 N2857 1.350 . S
C2860 C2859 1.434 . S
C2861 C2862 1.369 . S
C2861 C2863 1.419 . S
C2861 H2865 0.930 . S
C2862 C2861 1.369 . S
C2862 C2871 1.429 . S
C2863 C2861 1.419 . S
C2863 C2864 1.363 . S
C2863 H2866 0.929 . S
C2864 C2863 1.363 . S
C2864 C2870 1.428 . S
H2865 C2861 0.930 . S
H2866 C2863 0.929 . S
S2867 N2868 1.613 . S
S2867 N2869 1.610 . S
N2868 S2867 1.613 . S
N2868 C2871 1.350 . S
N2869 S2867 1.610 . S
N2869 C2870 1.351 . S
C2870 C2864 1.428 . S
C2870 N2869 1.351 . S
C2870 C2871 1.434 . S
C2871 C2862 1.429 . S
C2871 N2868 1.350 . S
C2871 C2870 1.434 . S
C2872 C2873 1.369 1_556 S
C2872 C2874 1.419 . S
C2872 H2876 0.930 . S
C2873 C2872 1.369 1_554 S
C2873 C2882 1.429 . S
C2874 C2872 1.419 . S
C2874 C2875 1.335 1_556 S
C2874 H2877 0.929 . S
C2875 C2874 1.335 1_554 S
C2875 C2881 1.460 . S
H2876 C2872 0.930 . S
H2877 C2874 0.929 . S
S2878 N2879 1.613 . S
S2878 N2880 1.610 . S
N2879 S2878 1.613 . S
N2879 C2882 1.350 . S
N2880 S2878 1.610 . S
N2880 C2881 1.351 . S
C2881 C2875 1.460 . S
C2881 N2880 1.351 . S
C2881 C2882 1.434 . S
C2882 C2873 1.429 . S
C2882 N2879 1.350 . S
C2882 C2881 1.434 . S
C2883 C2884 1.369 . S
C2883 C2885 1.419 . S
C2883 H2887 0.930 . S
C2884 C2883 1.369 . S
C2884 C2893 1.429 . S
C2885 C2883 1.419 . S
C2885 C2886 1.363 . S
C2885 H2888 0.929 . S
C2886 C2885 1.363 . S
C2886 C2892 1.428 . S
H2887 C2883 0.930 . S
H2888 C2885 0.929 . S
S2889 N2890 1.613 . S
S2889 N2891 1.610 . S
N2890 S2889 1.613 . S
N2890 C2893 1.350 . S
N2891 S2889 1.610 . S
N2891 C2892 1.351 . S
C2892 C2886 1.428 . S
C2892 N2891 1.351 . S
C2892 C2893 1.434 . S
C2893 C2884 1.429 . S
C2893 N2890 1.350 . S
C2893 C2892 1.434 . S
C2894 C2895 1.369 . S
C2894 C2896 1.419 . S
C2894 H2898 0.930 . S
C2895 C2894 1.369 . S
C2895 C2904 1.429 . S
C2896 C2894 1.419 . S
C2896 C2897 1.363 . S
C2896 H2899 0.929 . S
C2897 C2896 1.363 . S
C2897 C2903 1.428 . S
H2898 C2894 0.930 . S
H2899 C2896 0.929 . S
S2900 N2901 1.613 . S
S2900 N2902 1.610 . S
N2901 S2900 1.613 . S
N2901 C2904 1.350 . S
N2902 S2900 1.610 . S
N2902 C2903 1.351 . S
C2903 C2897 1.428 . S
C2903 N2902 1.351 . S
C2903 C2904 1.434 . S
C2904 C2895 1.429 . S
C2904 N2901 1.350 . S
C2904 C2903 1.434 . S
C2905 C2906 1.369 . S
C2905 C2907 1.419 . S
C2905 H2909 0.930 . S
C2906 C2905 1.369 . S
C2906 C2915 1.429 . S
C2907 C2905 1.419 . S
C2907 C2908 1.363 . S
C2907 H2910 0.929 . S
C2908 C2907 1.363 . S
C2908 C2914 1.428 . S
H2909 C2905 0.930 . S
H2910 C2907 0.929 . S
S2911 N2912 1.613 . S
S2911 N2913 1.610 . S
N2912 S2911 1.613 . S
N2912 C2915 1.350 . S
N2913 S2911 1.610 . S
N2913 C2914 1.351 . S
C2914 C2908 1.428 . S
C2914 N2913 1.351 . S
C2914 C2915 1.434 . S
C2915 C2906 1.429 . S
C2915 N2912 1.350 . S
C2915 C2914 1.434 . S
C2916 C2917 1.369 . S
C2916 C2918 1.419 . S
C2916 H2920 0.930 . S
C2917 C2916 1.369 . S
C2917 C2926 1.429 . S
C2918 C2916 1.419 . S
C2918 C2919 1.363 . S
C2918 H2921 0.929 . S
C2919 C2918 1.363 . S
C2919 C2925 1.428 . S
H2920 C2916 0.930 . S
H2921 C2918 0.929 . S
S2922 N2923 1.613 . S
S2922 N2924 1.610 . S
N2923 S2922 1.613 . S
N2923 C2926 1.350 . S
N2924 S2922 1.610 . S
N2924 C2925 1.351 . S
C2925 C2919 1.428 . S
C2925 N2924 1.351 . S
C2925 C2926 1.434 . S
C2926 C2917 1.429 . S
C2926 N2923 1.350 . S
C2926 C2925 1.434 . S
C2927 C2928 1.369 . S
C2927 C2929 1.419 . S
C2927 H2931 0.930 . S
C2928 C2927 1.369 . S
C2928 C2937 1.429 . S
C2929 C2927 1.419 . S
C2929 C2930 1.363 . S
C2929 H2932 0.929 . S
C2930 C2929 1.363 . S
C2930 C2936 1.428 . S
H2931 C2927 0.930 . S
H2932 C2929 0.929 . S
S2933 N2934 1.613 . S
S2933 N2935 1.610 . S
N2934 S2933 1.613 . S
N2934 C2937 1.350 . S
N2935 S2933 1.610 . S
N2935 C2936 1.351 . S
C2936 C2930 1.428 . S
C2936 N2935 1.351 . S
C2936 C2937 1.434 . S
C2937 C2928 1.429 . S
C2937 N2934 1.350 . S
C2937 C2936 1.434 . S
C2938 C2939 1.369 . S
C2938 C2940 1.419 . S
C2938 H2942 0.930 . S
C2939 C2938 1.369 . S
C2939 C2948 1.429 . S
C2940 C2938 1.419 . S
C2940 C2941 1.363 . S
C2940 H2943 0.929 . S
C2941 C2940 1.363 . S
C2941 C2947 1.428 . S
H2942 C2938 0.930 . S
H2943 C2940 0.929 . S
S2944 N2945 1.613 . S
S2944 N2946 1.610 . S
N2945 S2944 1.613 . S
N2945 C2948 1.350 . S
N2946 S2944 1.610 . S
N2946 C2947 1.351 . S
C2947 C2941 1.428 . S
C2947 N2946 1.351 . S
C2947 C2948 1.434 . S
C2948 C2939 1.429 . S
C2948 N2945 1.350 . S
C2948 C2947 1.434 . S
C2949 C2950 1.369 . S
C2949 C2951 1.419 . S
C2949 H2953 0.930 . S
C2950 C2949 1.369 . S
C2950 C2959 1.429 . S
C2951 C2949 1.419 . S
C2951 C2952 1.363 . S
C2951 H2954 0.929 . S
C2952 C2951 1.363 . S
C2952 C2958 1.428 . S
H2953 C2949 0.930 . S
H2954 C2951 0.929 . S
S2955 N2956 1.613 . S
S2955 N2957 1.610 . S
N2956 S2955 1.613 . S
N2956 C2959 1.350 . S
N2957 S2955 1.610 . S
N2957 C2958 1.351 . S
C2958 C2952 1.428 . S
C2958 N2957 1.351 . S
C2958 C2959 1.434 . S
C2959 C2950 1.429 . S
C2959 N2956 1.350 . S
C2959 C2958 1.434 . S
C2960 C2961 1.369 . S
C2960 C2962 1.419 . S
C2960 H2964 0.930 . S
C2961 C2960 1.369 . S
C2961 C2970 1.429 . S
C2962 C2960 1.419 . S
C2962 C2963 1.363 . S
C2962 H2965 0.929 . S
C2963 C2962 1.363 . S
C2963 C2969 1.428 . S
H2964 C2960 0.930 . S
H2965 C2962 0.929 . S
S2966 N2967 1.613 . S
S2966 N2968 1.610 . S
N2967 S2966 1.613 . S
N2967 C2970 1.350 . S
N2968 S2966 1.610 . S
N2968 C2969 1.351 . S
C2969 C2963 1.428 . S
C2969 N2968 1.351 . S
C2969 C2970 1.434 . S
C2970 C2961 1.429 . S
C2970 N2967 1.350 . S
C2970 C2969 1.434 . S
C2971 C2972 1.369 . S
C2971 C2973 1.419 . S
C2971 H2975 0.930 . S
C2972 C2971 1.369 . S
C2972 C2981 1.429 . S
C2973 C2971 1.419 . S
C2973 C2974 1.363 . S
C2973 H2976 0.929 . S
C2974 C2973 1.363 . S
C2974 C2980 1.428 . S
H2975 C2971 0.930 . S
H2976 C2973 0.929 . S
S2977 N2978 1.613 . S
S2977 N2979 1.610 . S
N2978 S2977 1.613 . S
N2978 C2981 1.350 . S
N2979 S2977 1.610 . S
N2979 C2980 1.351 . S
C2980 C2974 1.428 . S
C2980 N2979 1.351 . S
C2980 C2981 1.434 . S
C2981 C2972 1.429 . S
C2981 N2978 1.350 . S
C2981 C2980 1.434 . S
C2982 C2983 1.369 . S
C2982 C2984 1.419 1_455 S
C2982 H2986 0.930 1_455 S
C2983 C2982 1.369 . S
C2983 C2992 1.429 . S
C2984 C2982 1.419 1_655 S
C2984 C2985 1.363 1_655 S
C2984 H2987 0.929 . S
C2985 C2984 1.363 1_455 S
C2985 C2991 1.428 . S
H2986 C2982 0.930 1_655 S
H2987 C2984 0.929 . S
S2988 N2989 1.613 . S
S2988 N2990 1.610 . S
N2989 S2988 1.613 . S
N2989 C2992 1.350 1_554 S
N2990 S2988 1.610 . S
N2990 C2991 1.351 1_554 S
C2991 C2985 1.428 . S
C2991 N2990 1.351 1_556 S
C2991 C2992 1.434 . S
C2992 C2983 1.429 . S
C2992 N2989 1.350 1_556 S
C2992 C2991 1.434 . S
C2993 C2994 1.369 . S
C2993 C2995 1.419 . S
C2993 H2997 0.930 . S
C2994 C2993 1.369 . S
C2994 C3003 1.429 . S
C2995 C2993 1.419 . S
C2995 C2996 1.363 . S
C2995 H2998 0.929 . S
C2996 C2995 1.363 . S
C2996 C3002 1.428 . S
H2997 C2993 0.930 . S
H2998 C2995 0.929 . S
S2999 N3000 1.613 . S
S2999 N3001 1.610 . S
N3000 S2999 1.613 . S
N3000 C3003 1.350 . S
N3001 S2999 1.610 . S
N3001 C3002 1.351 . S
C3002 C2996 1.428 . S
C3002 N3001 1.351 . S
C3002 C3003 1.434 . S
C3003 C2994 1.429 . S
C3003 N3000 1.350 . S
C3003 C3002 1.434 . S
C3004 C3005 1.369 . S
C3004 C3006 1.419 . S
C3004 H3008 0.930 . S
C3005 C3004 1.369 . S
C3005 C3014 1.429 . S
C3006 C3004 1.419 . S
C3006 C3007 1.363 . S
C3006 H3009 0.929 . S
C3007 C3006 1.363 . S
C3007 C3013 1.428 . S
H3008 C3004 0.930 . S
H3009 C3006 0.929 . S
S3010 N3011 1.613 1_556 S
S3010 N3012 1.610 1_556 S
N3011 S3010 1.613 1_554 S
N3011 C3014 1.350 . S
N3012 S3010 1.610 1_554 S
N3012 C3013 1.351 . S
C3013 C3007 1.428 . S
C3013 N3012 1.351 . S
C3013 C3014 1.434 . S
C3014 C3005 1.429 . S
C3014 N3011 1.350 . S
C3014 C3013 1.434 . S
C3015 C3016 1.369 . S
C3015 C3017 1.419 . S
C3015 H3019 0.930 . S
C3016 C3015 1.369 . S
C3016 C3025 1.429 . S
C3017 C3015 1.419 . S
C3017 C3018 1.363 . S
C3017 H3020 0.929 . S
C3018 C3017 1.363 . S
C3018 C3024 1.428 . S
H3019 C3015 0.930 . S
H3020 C3017 0.929 . S
S3021 N3022 1.613 . S
S3021 N3023 1.610 . S
N3022 S3021 1.613 . S
N3022 C3025 1.350 . S
N3023 S3021 1.610 . S
N3023 C3024 1.351 . S
C3024 C3018 1.428 . S
C3024 N3023 1.351 . S
C3024 C3025 1.434 . S
C3025 C3016 1.429 . S
C3025 N3022 1.350 . S
C3025 C3024 1.434 . S
C3026 C3027 1.369 1_455 S
C3026 C3028 1.419 . S
C3026 H3030 0.930 . S
C3027 C3026 1.369 1_655 S
C3027 C3036 1.429 . S
C3028 C3026 1.419 . S
C3028 C3029 1.363 1_455 S
C3028 H3031 0.929 . S
C3029 C3028 1.363 1_655 S
C3029 C3035 1.428 . S
H3030 C3026 0.930 . S
H3031 C3028 0.929 . S
S3032 N3033 1.613 . S
S3032 N3034 1.610 . S
N3033 S3032 1.613 . S
N3033 C3036 1.350 . S
N3034 S3032 1.610 . S
N3034 C3035 1.351 . S
C3035 C3029 1.428 . S
C3035 N3034 1.351 . S
C3035 C3036 1.434 . S
C3036 C3027 1.429 . S
C3036 N3033 1.350 . S
C3036 C3035 1.434 . S
C3037 C3038 1.369 . S
C3037 C3039 1.419 . S
C3037 H3041 0.930 . S
C3038 C3037 1.369 . S
C3038 C3047 1.429 . S
C3039 C3037 1.419 . S
C3039 C3040 1.363 . S
C3039 H3042 0.929 . S
C3040 C3039 1.363 . S
C3040 C3046 1.428 . S
H3041 C3037 0.930 . S
H3042 C3039 0.929 . S
S3043 N3044 1.613 . S
S3043 N3045 1.610 . S
N3044 S3043 1.613 . S
N3044 C3047 1.350 . S
N3045 S3043 1.610 . S
N3045 C3046 1.351 . S
C3046 C3040 1.428 . S
C3046 N3045 1.351 . S
C3046 C3047 1.434 . S
C3047 C3038 1.429 . S
C3047 N3044 1.350 . S
C3047 C3046 1.434 . S
C3048 C3049 1.369 . S
C3048 C3050 1.419 . S
C3048 H3052 0.930 . S
C3049 C3048 1.369 . S
C3049 C3058 1.429 . S
C3050 C3048 1.419 . S
C3050 C3051 1.363 . S
C3050 H3053 0.929 . S
C3051 C3050 1.363 . S
C3051 C3057 1.428 . S
H3052 C3048 0.930 . S
H3053 C3050 0.929 . S
S3054 N3055 1.613 . S
S3054 N3056 1.610 . S
N3055 S3054 1.613 . S
N3055 C3058 1.350 . S
N3056 S3054 1.610 . S
N3056 C3057 1.351 . S
C3057 C3051 1.428 . S
C3057 N3056 1.351 . S
C3057 C3058 1.434 . S
C3058 C3049 1.429 . S
C3058 N3055 1.350 . S
C3058 C3057 1.434 . S
C3059 C3060 1.369 . S
C3059 C3061 1.419 . S
C3059 H3063 0.930 . S
C3060 C3059 1.369 . S
C3060 C3069 1.429 . S
C3061 C3059 1.419 . S
C3061 C3062 1.363 . S
C3061 H3064 0.929 . S
C3062 C3061 1.363 . S
C3062 C3068 1.428 . S
H3063 C3059 0.930 . S
H3064 C3061 0.929 . S
S3065 N3066 1.613 . S
S3065 N3067 1.610 . S
N3066 S3065 1.613 . S
N3066 C3069 1.350 . S
N3067 S3065 1.610 . S
N3067 C3068 1.351 . S
C3068 C3062 1.428 . S
C3068 N3067 1.351 . S
C3068 C3069 1.434 . S
C3069 C3060 1.429 . S
C3069 N3066 1.350 . S
C3069 C3068 1.434 . S
C3070 C3071 1.369 . S
C3070 C3072 1.419 . S
C3070 H3074 0.930 . S
C3071 C3070 1.369 . S
C3071 C3080 1.429 . S
C3072 C3070 1.419 . S
C3072 C3073 1.363 . S
C3072 H3075 0.929 . S
C3073 C3072 1.363 . S
C3073 C3079 1.428 . S
H3074 C3070 0.930 . S
H3075 C3072 0.929 . S
S3076 N3077 1.613 . S
S3076 N3078 1.610 . S
N3077 S3076 1.613 . S
N3077 C3080 1.350 1_655 S
N3078 S3076 1.610 . S
N3078 C3079 1.351 1_655 S
C3079 C3073 1.428 . S
C3079 N3078 1.351 1_455 S
C3079 C3080 1.434 . S
C3080 C3071 1.429 . S
C3080 N3077 1.350 1_455 S
C3080 C3079 1.434 . S
C3081 C3082 1.369 . S
C3081 C3083 1.419 . S
C3081 H3085 0.930 . S
C3082 C3081 1.369 . S
C3082 C3091 1.429 . S
C3083 C3081 1.419 . S
C3083 C3084 1.363 . S
C3083 H3086 0.929 . S
C3084 C3083 1.363 . S
C3084 C3090 1.428 . S
H3085 C3081 0.930 . S
H3086 C3083 0.929 . S
S3087 N3088 1.613 . S
S3087 N3089 1.610 . S
N3088 S3087 1.613 . S
N3088 C3091 1.350 . S
N3089 S3087 1.610 . S
N3089 C3090 1.351 . S
C3090 C3084 1.428 . S
C3090 N3089 1.351 . S
C3090 C3091 1.434 . S
C3091 C3082 1.429 . S
C3091 N3088 1.350 . S
C3091 C3090 1.434 . S
C3092 C3093 1.369 . S
C3092 C3094 1.419 . S
C3092 H3096 0.930 . S
C3093 C3092 1.369 . S
C3093 C3102 1.429 . S
C3094 C3092 1.419 . S
C3094 C3095 1.363 . S
C3094 H3097 0.929 . S
C3095 C3094 1.363 . S
C3095 C3101 1.428 . S
H3096 C3092 0.930 . S
H3097 C3094 0.929 . S
S3098 N3099 1.613 . S
S3098 N3100 1.610 . S
N3099 S3098 1.613 . S
N3099 C3102 1.350 . S
N3100 S3098 1.610 . S
N3100 C3101 1.351 . S
C3101 C3095 1.428 . S
C3101 N3100 1.351 . S
C3101 C3102 1.434 . S
C3102 C3093 1.429 . S
C3102 N3099 1.350 . S
C3102 C3101 1.434 . S
C3103 C3104 1.369 . S
C3103 C3105 1.419 . S
C3103 H3107 0.930 . S
C3104 C3103 1.369 . S
C3104 C3113 1.429 . S
C3105 C3103 1.419 . S
C3105 C3106 1.363 . S
C3105 H3108 0.929 . S
C3106 C3105 1.363 . S
C3106 C3112 1.428 . S
H3107 C3103 0.930 . S
H3108 C3105 0.929 . S
S3109 N3110 1.613 . S
S3109 N3111 1.610 . S
N3110 S3109 1.613 . S
N3110 C3113 1.350 . S
N3111 S3109 1.610 . S
N3111 C3112 1.351 . S
C3112 C3106 1.428 . S
C3112 N3111 1.351 . S
C3112 C3113 1.434 . S
C3113 C3104 1.429 . S
C3113 N3110 1.350 . S
C3113 C3112 1.434 . S
C3114 C3115 1.369 . S
C3114 C3116 1.419 . S
C3114 H3118 0.930 . S
C3115 C3114 1.369 . S
C3115 C3124 1.429 . S
C3116 C3114 1.419 . S
C3116 C3117 1.363 . S
C3116 H3119 0.929 . S
C3117 C3116 1.363 . S
C3117 C3123 1.428 . S
H3118 C3114 0.930 . S
H3119 C3116 0.929 . S
S3120 N3121 1.613 . S
S3120 N3122 1.610 . S
N3121 S3120 1.613 . S
N3121 C3124 1.350 . S
N3122 S3120 1.610 . S
N3122 C3123 1.351 . S
C3123 C3117 1.428 . S
C3123 N3122 1.351 . S
C3123 C3124 1.434 . S
C3124 C3115 1.429 . S
C3124 N3121 1.350 . S
C3124 C3123 1.434 . S
C3125 C3126 1.369 . S
C3125 C3127 1.419 . S
C3125 H3129 0.930 . S
C3126 C3125 1.369 . S
C3126 C3135 1.429 . S
C3127 C3125 1.419 . S
C3127 C3128 1.363 . S
C3127 H3130 0.929 . S
C3128 C3127 1.363 . S
C3128 C3134 1.428 . S
H3129 C3125 0.930 . S
H3130 C3127 0.929 . S
S3131 N3132 1.613 . S
S3131 N3133 1.610 . S
N3132 S3131 1.613 . S
N3132 C3135 1.350 . S
N3133 S3131 1.610 . S
N3133 C3134 1.351 . S
C3134 C3128 1.428 . S
C3134 N3133 1.351 . S
C3134 C3135 1.434 . S
C3135 C3126 1.429 . S
C3135 N3132 1.350 . S
C3135 C3134 1.434 . S
C3136 C3137 1.369 . S
C3136 C3138 1.419 . S
C3136 H3140 0.930 . S
C3137 C3136 1.369 . S
C3137 C3146 1.429 . S
C3138 C3136 1.419 . S
C3138 C3139 1.363 . S
C3138 H3141 0.929 . S
C3139 C3138 1.363 . S
C3139 C3145 1.428 . S
H3140 C3136 0.930 . S
H3141 C3138 0.929 . S
S3142 N3143 1.613 . S
S3142 N3144 1.610 . S
N3143 S3142 1.613 . S
N3143 C3146 1.350 . S
N3144 S3142 1.610 . S
N3144 C3145 1.351 . S
C3145 C3139 1.428 . S
C3145 N3144 1.351 . S
C3145 C3146 1.434 . S
C3146 C3137 1.429 . S
C3146 N3143 1.350 . S
C3146 C3145 1.434 . S
C3147 C3148 1.369 . S
C3147 C3149 1.419 . S
C3147 H3151 0.930 . S
C3148 C3147 1.369 . S
C3148 C3157 1.429 . S
C3149 C3147 1.419 . S
C3149 C3150 1.363 . S
C3149 H3152 0.929 . S
C3150 C3149 1.363 . S
C3150 C3156 1.428 . S
H3151 C3147 0.930 . S
H3152 C3149 0.929 . S
S3153 N3154 1.613 . S
S3153 N3155 1.610 . S
N3154 S3153 1.613 . S
N3154 C3157 1.350 . S
N3155 S3153 1.610 . S
N3155 C3156 1.351 . S
C3156 C3150 1.428 . S
C3156 N3155 1.351 . S
C3156 C3157 1.434 . S
C3157 C3148 1.429 . S
C3157 N3154 1.350 . S
C3157 C3156 1.434 . S
C3158 C3159 1.369 . S
C3158 C3160 1.419 . S
C3158 H3162 0.930 . S
C3159 C3158 1.369 . S
C3159 C3168 1.429 . S
C3160 C3158 1.419 . S
C3160 C3161 1.363 . S
C3160 H3163 0.929 . S
C3161 C3160 1.363 . S
C3161 C3167 1.428 . S
H3162 C3158 0.930 . S
H3163 C3160 0.929 . S
S3164 N3165 1.613 . S
S3164 N3166 1.610 . S
N3165 S3164 1.613 . S
N3165 C3168 1.350 . S
N3166 S3164 1.610 . S
N3166 C3167 1.351 . S
C3167 C3161 1.428 . S
C3167 N3166 1.351 . S
C3167 C3168 1.434 . S
C3168 C3159 1.429 . S
C3168 N3165 1.350 . S
C3168 C3167 1.434 . S
C3169 C3170 1.369 . S
C3169 C3171 1.419 . S
C3169 H3173 0.930 . S
C3170 C3169 1.369 . S
C3170 C3179 1.429 1_565 S
C3171 C3169 1.419 . S
C3171 C3172 1.363 1_565 S
C3171 H3174 0.929 1_554 S
C3172 C3171 1.363 1_545 S
C3172 C3178 1.428 . S
H3173 C3169 0.930 . S
H3174 C3171 0.929 1_556 S
S3175 N3176 1.613 . S
S3175 N3177 1.610 . S
N3176 S3175 1.613 . S
N3176 C3179 1.350 . S
N3177 S3175 1.610 . S
N3177 C3178 1.351 . S
C3178 C3172 1.428 . S
C3178 N3177 1.351 . S
C3178 C3179 1.434 . S
C3179 C3170 1.429 1_545 S
C3179 N3176 1.350 . S
C3179 C3178 1.434 . S
C3180 C3181 1.369 . S
C3180 C3182 1.419 . S
C3180 H3184 0.930 . S
C3181 C3180 1.369 . S
C3181 C3190 1.429 . S
C3182 C3180 1.419 . S
C3182 C3183 1.363 . S
C3182 H3185 0.929 . S
C3183 C3182 1.363 . S
C3183 C3189 1.428 . S
H3184 C3180 0.930 . S
H3185 C3182 0.929 . S
S3186 N3187 1.613 . S
S3186 N3188 1.610 . S
N3187 S3186 1.613 . S
N3187 C3190 1.350 . S
N3188 S3186 1.610 . S
N3188 C3189 1.351 . S
C3189 C3183 1.428 . S
C3189 N3188 1.351 . S
C3189 C3190 1.434 . S
C3190 C3181 1.429 . S
C3190 N3187 1.350 . S
C3190 C3189 1.434 . S
C3191 C3192 1.369 . S
C3191 C3193 1.419 . S
C3191 H3195 0.930 . S
C3192 C3191 1.369 . S
C3192 C3201 1.429 . S
C3193 C3191 1.419 . S
C3193 C3194 1.363 . S
C3193 H3196 0.929 . S
C3194 C3193 1.363 . S
C3194 C3200 1.428 . S
H3195 C3191 0.930 . S
H3196 C3193 0.929 . S
S3197 N3198 1.624 . S
S3197 N3199 1.610 . S
N3198 S3197 1.624 . S
N3198 C3201 1.358 . S
N3199 S3197 1.610 . S
N3199 C3200 1.351 . S
C3200 C3194 1.428 . S
C3200 N3199 1.351 . S
C3200 C3201 1.434 . S
C3201 C3192 1.429 . S
C3201 N3198 1.358 . S
C3201 C3200 1.434 . S
C3202 C3203 1.369 . S
C3202 C3204 1.419 . S
C3202 H3206 0.930 . S
C3203 C3202 1.369 . S
C3203 C3212 1.429 . S
C3204 C3202 1.419 . S
C3204 C3205 1.363 . S
C3204 H3207 0.929 . S
C3205 C3204 1.363 . S
C3205 C3211 1.428 . S
H3206 C3202 0.930 . S
H3207 C3204 0.929 . S
S3208 N3209 1.613 . S
S3208 N3210 1.610 . S
N3209 S3208 1.613 . S
N3209 C3212 1.350 . S
N3210 S3208 1.610 . S
N3210 C3211 1.351 . S
C3211 C3205 1.428 . S
C3211 N3210 1.351 . S
C3211 C3212 1.434 . S
C3212 C3203 1.429 . S
C3212 N3209 1.350 . S
C3212 C3211 1.434 . S
C3213 C3214 1.369 . S
C3213 C3215 1.419 . S
C3213 H3217 0.930 . S
C3214 C3213 1.369 . S
C3214 C3223 1.429 . S
C3215 C3213 1.419 . S
C3215 C3216 1.363 . S
C3215 H3218 0.929 . S
C3216 C3215 1.363 . S
C3216 C3222 1.428 . S
H3217 C3213 0.930 . S
H3218 C3215 0.929 . S
S3219 N3220 1.613 . S
S3219 N3221 1.610 . S
N3220 S3219 1.613 . S
N3220 C3223 1.350 . S
N3221 S3219 1.610 . S
N3221 C3222 1.351 . S
C3222 C3216 1.428 . S
C3222 N3221 1.351 . S
C3222 C3223 1.434 . S
C3223 C3214 1.429 . S
C3223 N3220 1.350 . S
C3223 C3222 1.434 . S
C3224 C3225 1.369 . S
C3224 C3226 1.419 . S
C3224 H3228 0.930 . S
C3225 C3224 1.369 . S
C3225 C3234 1.429 . S
C3226 C3224 1.419 . S
C3226 C3227 1.363 . S
C3226 H3229 0.929 . S
C3227 C3226 1.363 . S
C3227 C3233 1.428 . S
H3228 C3224 0.930 . S
H3229 C3226 0.929 . S
S3230 N3231 1.613 . S
S3230 N3232 1.610 . S
N3231 S3230 1.613 . S
N3231 C3234 1.350 . S
N3232 S3230 1.610 . S
N3232 C3233 1.351 . S
C3233 C3227 1.428 . S
C3233 N3232 1.351 . S
C3233 C3234 1.434 . S
C3234 C3225 1.429 . S
C3234 N3231 1.350 . S
C3234 C3233 1.434 . S
C3235 C3236 1.369 . S
C3235 C3237 1.419 . S
C3235 H3239 0.930 . S
C3236 C3235 1.369 . S
C3236 C3245 1.429 . S
C3237 C3235 1.419 . S
C3237 C3238 1.363 . S
C3237 H3240 0.929 . S
C3238 C3237 1.363 . S
C3238 C3244 1.428 . S
H3239 C3235 0.930 . S
H3240 C3237 0.929 . S
S3241 N3242 1.613 . S
S3241 N3243 1.610 . S
N3242 S3241 1.613 . S
N3242 C3245 1.350 . S
N3243 S3241 1.610 . S
N3243 C3244 1.351 . S
C3244 C3238 1.428 . S
C3244 N3243 1.351 . S
C3244 C3245 1.434 . S
C3245 C3236 1.429 . S
C3245 N3242 1.350 . S
C3245 C3244 1.434 . S
C3246 C3247 1.358 1_455 S
C3246 C3248 1.436 . S
C3246 H3250 0.924 1_455 S
C3247 C3246 1.358 1_655 S
C3247 C3256 1.429 . S
C3248 C3246 1.436 . S
C3248 C3249 1.363 . S
C3248 H3251 0.929 . S
C3249 C3248 1.363 . S
C3249 C3255 1.428 . S
H3250 C3246 0.924 1_655 S
H3251 C3248 0.929 . S
S3252 N3253 1.613 1_455 S
S3252 N3254 1.610 . S
N3253 S3252 1.613 1_655 S
N3253 C3256 1.350 . S
N3254 S3252 1.610 . S
N3254 C3255 1.351 . S
C3255 C3249 1.428 . S
C3255 N3254 1.351 . S
C3255 C3256 1.434 1_455 S
C3256 C3247 1.429 . S
C3256 N3253 1.350 . S
C3256 C3255 1.434 1_655 S
C3257 C3258 1.369 . S
C3257 C3259 1.419 . S
C3257 H3261 0.930 . S
C3258 C3257 1.369 . S
C3258 C3267 1.429 . S
C3259 C3257 1.419 . S
C3259 C3260 1.363 . S
C3259 H3262 0.929 . S
C3260 C3259 1.363 . S
C3260 C3266 1.428 . S
H3261 C3257 0.930 . S
H3262 C3259 0.929 . S
S3263 N3264 1.613 . S
S3263 N3265 1.610 . S
N3264 S3263 1.613 . S
N3264 C3267 1.350 . S
N3265 S3263 1.610 . S
N3265 C3266 1.351 . S
C3266 C3260 1.428 . S
C3266 N3265 1.351 . S
C3266 C3267 1.434 . S
C3267 C3258 1.429 . S
C3267 N3264 1.350 . S
C3267 C3266 1.434 . S
C3268 C3269 1.369 . S
C3268 C3270 1.439 . S
C3268 H3272 0.905 1_556 S
C3269 C3268 1.369 . S
C3269 C3278 1.429 . S
C3270 C3268 1.439 . S
C3270 C3271 1.389 . S
C3270 H3273 0.882 1_556 S
C3271 C3270 1.389 . S
C3271 C3277 1.428 . S
H3272 C3268 0.905 1_554 S
H3273 C3270 0.882 1_554 S
S3274 N3275 1.613 . S
S3274 N3276 1.610 . S
N3275 S3274 1.613 . S
N3275 C3278 1.350 . S
N3276 S3274 1.610 . S
N3276 C3277 1.351 . S
C3277 C3271 1.428 . S
C3277 N3276 1.351 . S
C3277 C3278 1.434 . S
C3278 C3269 1.429 . S
C3278 N3275 1.350 . S
C3278 C3277 1.434 . S
C3279 C3280 1.369 . S
C3279 C3281 1.419 . S
C3279 H3283 0.930 . S
C3280 C3279 1.369 . S
C3280 C3289 1.429 . S
C3281 C3279 1.419 . S
C3281 C3282 1.363 . S
C3281 H3284 0.929 . S
C3282 C3281 1.363 . S
C3282 C3288 1.428 . S
H3283 C3279 0.930 . S
H3284 C3281 0.929 . S
S3285 N3286 1.613 . S
S3285 N3287 1.610 . S
N3286 S3285 1.613 . S
N3286 C3289 1.350 . S
N3287 S3285 1.610 . S
N3287 C3288 1.351 . S
C3288 C3282 1.428 . S
C3288 N3287 1.351 . S
C3288 C3289 1.434 . S
C3289 C3280 1.429 . S
C3289 N3286 1.350 . S
C3289 C3288 1.434 . S
C3290 C3291 1.369 . S
C3290 C3292 1.419 . S
C3290 H3294 0.930 . S
C3291 C3290 1.369 . S
C3291 C3300 1.429 . S
C3292 C3290 1.419 . S
C3292 C3293 1.363 . S
C3292 H3295 0.929 . S
C3293 C3292 1.363 . S
C3293 C3299 1.428 . S
H3294 C3290 0.930 . S
H3295 C3292 0.929 . S
S3296 N3297 1.613 . S
S3296 N3298 1.610 . S
N3297 S3296 1.613 . S
N3297 C3300 1.350 . S
N3298 S3296 1.610 . S
N3298 C3299 1.351 . S
C3299 C3293 1.428 . S
C3299 N3298 1.351 . S
C3299 C3300 1.434 . S
C3300 C3291 1.429 . S
C3300 N3297 1.350 . S
C3300 C3299 1.434 . S
C3301 C3302 1.369 . S
C3301 C3303 1.419 . S
C3301 H3305 0.930 . S
C3302 C3301 1.369 . S
C3302 C3311 1.429 . S
C3303 C3301 1.419 . S
C3303 C3304 1.363 . S
C3303 H3306 0.929 . S
C3304 C3303 1.363 . S
C3304 C3310 1.428 . S
H3305 C3301 0.930 . S
H3306 C3303 0.929 . S
S3307 N3308 1.613 . S
S3307 N3309 1.610 . S
N3308 S3307 1.613 . S
N3308 C3311 1.350 . S
N3309 S3307 1.610 . S
N3309 C3310 1.351 . S
C3310 C3304 1.428 . S
C3310 N3309 1.351 . S
C3310 C3311 1.434 . S
C3311 C3302 1.429 . S
C3311 N3308 1.350 . S
C3311 C3310 1.434 . S
C3312 C3313 1.369 . S
C3312 C3314 1.419 . S
C3312 H3316 0.930 . S
C3313 C3312 1.369 . S
C3313 C3322 1.429 . S
C3314 C3312 1.419 . S
C3314 C3315 1.363 . S
C3314 H3317 0.929 . S
C3315 C3314 1.363 . S
C3315 C3321 1.428 . S
H3316 C3312 0.930 . S
H3317 C3314 0.929 . S
S3318 N3319 1.613 . S
S3318 N3320 1.610 . S
N3319 S3318 1.613 . S
N3319 C3322 1.350 . S
N3320 S3318 1.610 . S
N3320 C3321 1.351 . S
C3321 C3315 1.428 . S
C3321 N3320 1.351 . S
C3321 C3322 1.434 . S
C3322 C3313 1.429 . S
C3322 N3319 1.350 . S
C3322 C3321 1.434 . S
C3323 C3324 1.369 . S
C3323 C3325 1.419 . S
C3323 H3327 0.930 . S
C3324 C3323 1.369 . S
C3324 C3333 1.429 . S
C3325 C3323 1.419 . S
C3325 C3326 1.363 . S
C3325 H3328 0.929 . S
C3326 C3325 1.363 . S
C3326 C3332 1.428 . S
H3327 C3323 0.930 . S
H3328 C3325 0.929 . S
S3329 N3330 1.613 . S
S3329 N3331 1.610 . S
N3330 S3329 1.613 . S
N3330 C3333 1.350 . S
N3331 S3329 1.610 . S
N3331 C3332 1.351 . S
C3332 C3326 1.428 . S
C3332 N3331 1.351 . S
C3332 C3333 1.434 . S
C3333 C3324 1.429 . S
C3333 N3330 1.350 . S
C3333 C3332 1.434 . S
C3334 C3335 1.369 1_455 S
C3334 C3336 1.419 . S
C3334 H3338 0.930 . S
C3335 C3334 1.369 1_655 S
C3335 C3344 1.429 . S
C3336 C3334 1.419 . S
C3336 C3337 1.363 1_455 S
C3336 H3339 0.929 . S
C3337 C3336 1.363 1_655 S
C3337 C3343 1.428 . S
H3338 C3334 0.930 . S
H3339 C3336 0.929 . S
S3340 N3341 1.613 . S
S3340 N3342 1.610 . S
N3341 S3340 1.613 . S
N3341 C3344 1.350 . S
N3342 S3340 1.610 . S
N3342 C3343 1.351 . S
C3343 C3337 1.428 . S
C3343 N3342 1.351 . S
C3343 C3344 1.434 . S
C3344 C3335 1.429 . S
C3344 N3341 1.350 . S
C3344 C3343 1.434 . S
C3345 C3346 1.369 . S
C3345 C3347 1.419 . S
C3345 H3349 0.930 . S
C3346 C3345 1.369 . S
C3346 C3355 1.429 . S
C3347 C3345 1.419 . S
C3347 C3348 1.363 . S
C3347 H3350 0.929 . S
C3348 C3347 1.363 . S
C3348 C3354 1.428 . S
H3349 C3345 0.930 . S
H3350 C3347 0.929 . S
S3351 N3352 1.613 . S
S3351 N3353 1.610 . S
N3352 S3351 1.613 . S
N3352 C3355 1.350 . S
N3353 S3351 1.610 . S
N3353 C3354 1.351 . S
C3354 C3348 1.428 . S
C3354 N3353 1.351 . S
C3354 C3355 1.434 . S
C3355 C3346 1.429 . S
C3355 N3352 1.350 . S
C3355 C3354 1.434 . S
C3356 C3357 1.369 . S
C3356 C3358 1.419 . S
C3356 H3360 0.930 . S
C3357 C3356 1.369 . S
C3357 C3366 1.429 . S
C3358 C3356 1.419 . S
C3358 C3359 1.363 . S
C3358 H3361 0.929 . S
C3359 C3358 1.363 . S
C3359 C3365 1.428 . S
H3360 C3356 0.930 . S
H3361 C3358 0.929 . S
S3362 N3363 1.613 . S
S3362 N3364 1.610 . S
N3363 S3362 1.613 . S
N3363 C3366 1.350 . S
N3364 S3362 1.610 . S
N3364 C3365 1.351 . S
C3365 C3359 1.428 . S
C3365 N3364 1.351 . S
C3365 C3366 1.434 . S
C3366 C3357 1.429 . S
C3366 N3363 1.350 . S
C3366 C3365 1.434 . S
C3367 C3368 1.369 . S
C3367 C3369 1.419 . S
C3367 H3371 0.930 . S
C3368 C3367 1.369 . S
C3368 C3377 1.429 . S
C3369 C3367 1.419 . S
C3369 C3370 1.363 . S
C3369 H3372 0.929 . S
C3370 C3369 1.363 . S
C3370 C3376 1.428 . S
H3371 C3367 0.930 . S
H3372 C3369 0.929 . S
S3373 N3374 1.613 . S
S3373 N3375 1.610 . S
N3374 S3373 1.613 . S
N3374 C3377 1.350 . S
N3375 S3373 1.610 . S
N3375 C3376 1.351 . S
C3376 C3370 1.428 . S
C3376 N3375 1.351 . S
C3376 C3377 1.434 . S
C3377 C3368 1.429 . S
C3377 N3374 1.350 . S
C3377 C3376 1.434 . S
C3378 C3379 1.369 . S
C3378 C3380 1.404 1_655 S
C3378 H3382 0.930 1_655 S
C3379 C3378 1.369 . S
C3379 C3388 1.429 . S
C3380 C3378 1.404 1_455 S
C3380 C3381 1.337 1_455 S
C3380 H3383 0.973 . S
C3381 C3380 1.337 1_655 S
C3381 C3387 1.428 . S
H3382 C3378 0.930 1_455 S
H3383 C3380 0.973 . S
S3384 N3385 1.613 . S
S3384 N3386 1.610 . S
N3385 S3384 1.613 . S
N3385 C3388 1.350 . S
N3386 S3384 1.610 . S
N3386 C3387 1.351 . S
C3387 C3381 1.428 . S
C3387 N3386 1.351 . S
C3387 C3388 1.434 . S
C3388 C3379 1.429 . S
C3388 N3385 1.350 . S
C3388 C3387 1.434 . S
C3389 C3390 1.369 . S
C3389 C3391 1.419 . S
C3389 H3393 0.930 . S
C3390 C3389 1.369 . S
C3390 C3399 1.429 . S
C3391 C3389 1.419 . S
C3391 C3392 1.363 . S
C3391 H3394 0.929 . S
C3392 C3391 1.363 . S
C3392 C3398 1.428 . S
H3393 C3389 0.930 . S
H3394 C3391 0.929 . S
S3395 N3396 1.613 . S
S3395 N3397 1.610 . S
N3396 S3395 1.613 . S
N3396 C3399 1.350 . S
N3397 S3395 1.610 . S
N3397 C3398 1.351 . S
C3398 C3392 1.428 . S
C3398 N3397 1.351 . S
C3398 C3399 1.434 . S
C3399 C3390 1.429 . S
C3399 N3396 1.350 . S
C3399 C3398 1.434 . S
C3400 C3401 1.369 . S
C3400 C3402 1.419 . S
C3400 H3404 0.930 . S
C3401 C3400 1.369 . S
C3401 C3410 1.429 . S
C3402 C3400 1.419 . S
C3402 C3403 1.363 . S
C3402 H3405 0.929 . S
C3403 C3402 1.363 . S
C3403 C3409 1.428 . S
H3404 C3400 0.930 . S
H3405 C3402 0.929 . S
S3406 N3407 1.613 . S
S3406 N3408 1.610 . S
N3407 S3406 1.613 . S
N3407 C3410 1.350 . S
N3408 S3406 1.610 . S
N3408 C3409 1.351 . S
C3409 C3403 1.428 . S
C3409 N3408 1.351 . S
C3409 C3410 1.434 . S
C3410 C3401 1.429 . S
C3410 N3407 1.350 . S
C3410 C3409 1.434 . S
C3411 C3412 1.369 1_545 S
C3411 C3413 1.419 . S
C3411 H3415 0.930 . S
C3412 C3411 1.369 1_565 S
C3412 C3421 1.429 . S
C3413 C3411 1.419 . S
C3413 C3414 1.363 1_545 S
C3413 H3416 0.929 . S
C3414 C3413 1.363 1_565 S
C3414 C3420 1.428 . S
H3415 C3411 0.930 . S
H3416 C3413 0.929 . S
S3417 N3418 1.613 . S
S3417 N3419 1.610 . S
N3418 S3417 1.613 . S
N3418 C3421 1.350 . S
N3419 S3417 1.610 . S
N3419 C3420 1.351 . S
C3420 C3414 1.428 . S
C3420 N3419 1.351 . S
C3420 C3421 1.434 . S
C3421 C3412 1.429 . S
C3421 N3418 1.350 . S
C3421 C3420 1.434 . S
C3422 C3423 1.369 . S
C3422 C3424 1.419 . S
C3422 H3426 0.930 . S
C3423 C3422 1.369 . S
C3423 C3432 1.429 . S
C3424 C3422 1.419 . S
C3424 C3425 1.363 . S
C3424 H3427 0.929 . S
C3425 C3424 1.363 . S
C3425 C3431 1.428 . S
H3426 C3422 0.930 . S
H3427 C3424 0.929 . S
S3428 N3429 1.613 . S
S3428 N3430 1.610 . S
N3429 S3428 1.613 . S
N3429 C3432 1.350 . S
N3430 S3428 1.610 . S
N3430 C3431 1.351 . S
C3431 C3425 1.428 . S
C3431 N3430 1.351 . S
C3431 C3432 1.434 . S
C3432 C3423 1.429 . S
C3432 N3429 1.350 . S
C3432 C3431 1.434 . S
C3433 C3434 1.369 . S
C3433 C3435 1.419 . S
C3433 H3437 0.930 . S
C3434 C3433 1.369 . S
C3434 C3443 1.429 1_556 S
C3435 C3433 1.419 . S
C3435 C3436 1.363 1_556 S
C3435 H3438 0.929 . S
C3436 C3435 1.363 1_554 S
C3436 C3442 1.428 . S
H3437 C3433 0.930 . S
H3438 C3435 0.929 . S
S3439 N3440 1.613 . S
S3439 N3441 1.610 . S
N3440 S3439 1.613 . S
N3440 C3443 1.350 . S
N3441 S3439 1.610 . S
N3441 C3442 1.351 . S
C3442 C3436 1.428 . S
C3442 N3441 1.351 . S
C3442 C3443 1.434 . S
C3443 C3434 1.429 1_554 S
C3443 N3440 1.350 . S
C3443 C3442 1.434 . S
C3444 C3445 1.369 . S
C3444 C3446 1.419 . S
C3444 H3448 0.930 . S
C3445 C3444 1.369 . S
C3445 C3454 1.429 . S
C3446 C3444 1.419 . S
C3446 C3447 1.363 . S
C3446 H3449 0.929 . S
C3447 C3446 1.363 . S
C3447 C3453 1.428 . S
H3448 C3444 0.930 . S
H3449 C3446 0.929 . S
S3450 N3451 1.613 . S
S3450 N3452 1.610 . S
N3451 S3450 1.613 . S
N3451 C3454 1.350 . S
N3452 S3450 1.610 . S
N3452 C3453 1.351 . S
C3453 C3447 1.428 . S
C3453 N3452 1.351 . S
C3453 C3454 1.434 . S
C3454 C3445 1.429 . S
C3454 N3451 1.350 . S
C3454 C3453 1.434 . S
C3455 C3456 1.390 . S
C3455 C3457 1.408 1_554 S
C3455 H3459 0.920 1_554 S
C3456 C3455 1.390 . S
C3456 C3465 1.429 . S
C3457 C3455 1.408 1_556 S
C3457 C3458 1.363 . S
C3457 H3460 0.929 . S
C3458 C3457 1.363 . S
C3458 C3464 1.428 1_556 S
H3459 C3455 0.920 1_556 S
H3460 C3457 0.929 . S
S3461 N3462 1.613 . S
S3461 N3463 1.610 . S
N3462 S3461 1.613 . S
N3462 C3465 1.350 . S
N3463 S3461 1.610 . S
N3463 C3464 1.351 . S
C3464 C3458 1.428 1_554 S
C3464 N3463 1.351 . S
C3464 C3465 1.434 . S
C3465 C3456 1.429 . S
C3465 N3462 1.350 . S
C3465 C3464 1.434 . S
C3466 C3467 1.369 . S
C3466 C3468 1.419 . S
C3466 H3470 0.930 . S
C3467 C3466 1.369 . S
C3467 C3476 1.429 . S
C3468 C3466 1.419 . S
C3468 C3469 1.363 . S
C3468 H3471 0.929 . S
C3469 C3468 1.363 . S
C3469 C3475 1.428 . S
H3470 C3466 0.930 . S
H3471 C3468 0.929 . S
S3472 N3473 1.613 . S
S3472 N3474 1.610 . S
N3473 S3472 1.613 . S
N3473 C3476 1.350 . S
N3474 S3472 1.610 . S
N3474 C3475 1.351 . S
C3475 C3469 1.428 . S
C3475 N3474 1.351 . S
C3475 C3476 1.434 . S
C3476 C3467 1.429 . S
C3476 N3473 1.350 . S
C3476 C3475 1.434 . S
C3477 C3478 1.369 . S
C3477 C3479 1.419 . S
C3477 H3481 0.930 . S
C3478 C3477 1.369 . S
C3478 C3487 1.429 . S
C3479 C3477 1.419 . S
C3479 C3480 1.363 . S
C3479 H3482 0.929 . S
C3480 C3479 1.363 . S
C3480 C3486 1.428 . S
H3481 C3477 0.930 . S
H3482 C3479 0.929 . S
S3483 N3484 1.613 . S
S3483 N3485 1.610 . S
N3484 S3483 1.613 . S
N3484 C3487 1.350 . S
N3485 S3483 1.610 . S
N3485 C3486 1.351 . S
C3486 C3480 1.428 . S
C3486 N3485 1.351 . S
C3486 C3487 1.434 . S
C3487 C3478 1.429 . S
C3487 N3484 1.350 . S
C3487 C3486 1.434 . S
C2433 C665 1.162 . S
C2435 C2128 1.132 . S
C2444 C381 1.345 . S
C2446 C2141 1.332 . S
C2455 C460 1.349 . S
C2457 C2160 1.363 . S
C2468 C2191 1.881 . S
C2466 C585 1.965 . S
C2477 C108 1.710 . S
C2479 C2211 1.658 . S
C2490 C2228 0.943 . S
C2488 C196 0.926 . S
C2501 C2241 1.490 . S
C2499 C313 1.480 . S
C2510 C49 0.946 . S
C2512 C2268 0.928 . S
C2523 C2121 1.204 . S
C2521 C1457 1.207 . S
C2532 C1545 1.522 . S
C2534 C2151 1.481 . S
C2545 C2153 1.807 . S
C2543 C1721 1.827 . S
C2556 C2188 1.078 . S
C2554 C1113 1.019 . S
C2565 C1428 1.264 . S
C2567 C2208 1.335 . S
C2578 C2221 1.895 . S
C2576 C1516 1.850 . S
C2589 C2251 1.296 . S
C2587 C1692 1.352 . S
C2600 C2261 1.219 . S
C2598 C1085 1.237 . S
C2611 C2131 1.523 . S
C2609 C988 1.566 . S
C2620 C1817 1.814 . S
C2622 C2281 1.828 . S
C2633 C2311 1.578 . S
C2631 C2081 1.600 . S
C2644 C2328 1.275 . S
C2642 C1993 1.246 . S
C2653 C761 1.882 . S
C2655 C2271 1.834 . S
C2664 C821 1.248 . S
C2666 C2158 1.188 . S
C2675 C2053 1.911 . S
C2677 C2341 1.913 . S
C2688 C2368 0.980 . S
C2686 C1868 0.975 . S
C2699 C2118 1.129 . S
C2697 C372 1.161 . S
C2710 C2353 1.332 . S
C2708 C645 1.340 . S
C2719 C577 1.352 . S
C2721 C2171 1.354 . S
C2730 C497 1.958 . S
C2732 C2340 1.883 . S
C2743 C2200 1.655 . S
C2741 C57 1.708 . S
C2752 C293 0.922 . S
C2754 C2298 0.938 . S
C2765 C2233 1.490 1_556 S
C2763 C205 1.470 . S
C2776 C2378 0.934 . S
C2774 C145 0.948 . S
C2787 C2113 1.202 . S
C2785 C909 1.207 . S
C2798 C2360 1.469 . S
C2796 C1956 1.525 . S
C2807 C724 1.807 . S
C2809 C2161 1.804 . S
C2818 C1780 1.027 . S
C2820 C2338 1.069 . S
C2829 C937 1.265 . S
C2831 C2198 1.327 . S
C2842 C2293 1.894 . S
C2840 C1985 1.844 . S
C2851 C753 1.347 . S
C2853 C2240 1.300 . S
C2862 C1809 1.240 . S
C2864 C2373 1.212 . S
C2873 C1173 1.561 . S
C2875 C2120 1.513 . S
C2884 C1105 1.811 . S
C2886 C2273 1.813 . S
C2895 C1633 1.602 . S
C2897 C2220 1.570 . S
C2906 C1553 1.248 . S
C2908 C2318 1.270 . S
C2919 C2380 1.836 . S
C2917 C1729 1.879 . S
C2928 C1340 1.248 . S
C2930 C2168 1.185 1_565 S
C2941 C2173 1.914 . S
C2939 C1604 1.903 . S
C2952 C2138 0.975 . S
C2950 C1252 0.970 . S
C2961 C489 1.162 . S
C2963 C2408 1.132 . S
C2974 C2361 1.330 . S
C2972 C557 1.345 . S
C2983 C636 1.356 . S
C2985 C2420 1.374 . S
C2994 C409 1.964 . S
C2996 C2351 1.883 . S
C3005 C284 1.713 . S
C3007 C2291 1.651 . S
C3018 C2308 0.943 . S
C3016 C20 0.928 . S
C3029 C2321 1.492 1_655 S
C3027 C137 1.474 . S
C3040 C2388 0.932 . S
C3038 C225 0.948 . S
C3051 C2401 1.204 . S
C3049 C1641 1.207 . S
C3060 C1193 1.521 . S
C3062 C2371 1.484 . S
C3073 C2413 1.809 . S
C3071 C1289 1.815 . S
C3084 C2348 1.078 . S
C3082 C1377 1.019 . S
C3095 C2288 1.335 . S
C3093 C1613 1.267 . S
C3104 C1164 1.853 . S
C3106 C2301 1.893 . S
C3117 C2331 1.304 . S
C3115 C1261 1.348 . S
C3126 C1349 1.243 . S
C3128 C2381 1.212 . S
C3139 C2411 1.511 . S
C3137 C1965 1.565 . S
C3148 C849 1.816 . S
C3150 C2201 1.811 . S
C3161 C2231 1.574 . S
C3159 C929 1.605 . S
C3172 C2248 1.277 . S
C3170 C1017 1.254 . S
C3183 C2391 1.834 . S
C3181 C1897 1.882 . S
C3192 C1789 1.250 . S
C3194 C2418 1.181 . S
C3205 C2181 1.916 . S
C3203 C900 1.905 . S
C3216 C2148 0.981 . S
C3214 C733 0.970 . S
C3225 C548 1.161 . S
C3227 C2398 1.129 . S
C3238 C2133 1.326 . S
C3236 C469 1.339 . S
C3247 C401 1.347 . S
C3249 C2431 1.358 . S
C3258 C673 1.960 . S
C3260 C2180 1.879 . S
C3269 C233 1.707 . S
C3271 C2280 1.655 1_556 S
C3282 C2218 0.937 . S
C3280 C117 0.917 . S
C3291 C29 1.472 . S
C3293 C2313 1.490 . S
C3302 C321 0.945 . S
C3304 C2258 0.925 . S
C3315 C2393 1.203 . S
C3313 C2044 1.208 . S
C3324 C997 1.526 . S
C3326 C2140 1.473 . S
C3337 C2421 1.805 1_655 S
C3335 C1877 1.804 . S
C3346 C812 1.026 . S
C3348 C2178 1.069 . S
C3357 C2073 1.272 . S
C3359 C2278 1.330 . S
C3370 C2213 1.893 . S
C3368 C1025 1.843 . S
C3379 C1905 1.347 . S
C3381 C2320 1.300 . S
C3392 C2253 1.216 . S
C3390 C841 1.235 . S
C3403 C2400 1.514 . S
C3401 C1525 1.561 . S
C3414 C2193 1.813 1_565 S
C3412 C1369 1.811 . S
C3423 C1465 1.601 . S
C3425 C2300 1.576 . S
C3436 C2238 1.270 . S
C3434 C1201 1.245 . S
C3445 C1281 1.879 . S
C3447 C2260 1.837 . S
C3456 C1076 1.255 . S
C3458 C2428 1.175 . S
C3469 C2333 1.910 . S
C3467 C1437 1.907 . S
C3480 C2358 0.980 . S
C3478 C1701 0.978 . S
