# Generated by pormake.
# Topology wbl, (4,4)-cn, num edge types: 1
# Building blocks:
#     Node 0, Type 0, BuildingBlock: MUDLON_clean_sbu_0, # of connection points: 4
#     Node 1, Type 0, BuildingBlock: MUDLON_clean_sbu_0, # of connection points: 4
#     Node 2, Type 0, BuildingBlock: MUDLON_clean_sbu_0, # of connection points: 4
#     Node 3, Type 0, BuildingBlock: MUDLON_clean_sbu_0, # of connection points: 4
#     Node 4, Type 0, BuildingBlock: MUDLON_clean_sbu_0, # of connection points: 4
#     Node 5, Type 0, BuildingBlock: MUDLON_clean_sbu_0, # of connection points: 4
#     Node 6, Type 0, BuildingBlock: MUDLON_clean_sbu_0, # of connection points: 4
#     Node 7, Type 0, BuildingBlock: MUDLON_clean_sbu_0, # of connection points: 4
#     Node 8, Type 1, BuildingBlock: QUQFOY_clean_sbu_3, # of connection points: 4
#     Node 9, Type 1, BuildingBlock: QUQFOY_clean_sbu_3, # of connection points: 4
#     Node 10, Type 1, BuildingBlock: QUQFOY_clean_sbu_3, # of connection points: 4
#     Node 11, Type 1, BuildingBlock: QUQFOY_clean_sbu_3, # of connection points: 4
#     Node 12, Type 1, BuildingBlock: QUQFOY_clean_sbu_3, # of connection points: 4
#     Node 13, Type 1, BuildingBlock: QUQFOY_clean_sbu_3, # of connection points: 4
#     Node 14, Type 1, BuildingBlock: QUQFOY_clean_sbu_3, # of connection points: 4
#     Node 15, Type 1, BuildingBlock: QUQFOY_clean_sbu_3, # of connection points: 4
#     Edge 16, Type (0, 1), BuildingBlock: XIVTED_clean_linker_0, # of connection points: 2
#     Edge 17, Type (0, 1), BuildingBlock: XIVTED_clean_linker_0, # of connection points: 2
#     Edge 18, Type (0, 1), BuildingBlock: XIVTED_clean_linker_0, # of connection points: 2
#     Edge 19, Type (0, 1), BuildingBlock: XIVTED_clean_linker_0, # of connection points: 2
#     Edge 20, Type (0, 1), BuildingBlock: XIVTED_clean_linker_0, # of connection points: 2
#     Edge 21, Type (0, 1), BuildingBlock: XIVTED_clean_linker_0, # of connection points: 2
#     Edge 22, Type (0, 1), BuildingBlock: XIVTED_clean_linker_0, # of connection points: 2
#     Edge 23, Type (0, 1), BuildingBlock: XIVTED_clean_linker_0, # of connection points: 2
#     Edge 24, Type (0, 1), BuildingBlock: XIVTED_clean_linker_0, # of connection points: 2
#     Edge 25, Type (0, 1), BuildingBlock: XIVTED_clean_linker_0, # of connection points: 2
#     Edge 26, Type (0, 1), BuildingBlock: XIVTED_clean_linker_0, # of connection points: 2
#     Edge 27, Type (0, 1), BuildingBlock: XIVTED_clean_linker_0, # of connection points: 2
#     Edge 28, Type (0, 1), BuildingBlock: XIVTED_clean_linker_0, # of connection points: 2
#     Edge 29, Type (0, 1), BuildingBlock: XIVTED_clean_linker_0, # of connection points: 2
#     Edge 30, Type (0, 1), BuildingBlock: XIVTED_clean_linker_0, # of connection points: 2
#     Edge 31, Type (0, 1), BuildingBlock: XIVTED_clean_linker_0, # of connection points: 2
#     Edge 32, Type (0, 1), BuildingBlock: XIVTED_clean_linker_0, # of connection points: 2
#     Edge 33, Type (0, 1), BuildingBlock: XIVTED_clean_linker_0, # of connection points: 2
#     Edge 34, Type (0, 1), BuildingBlock: XIVTED_clean_linker_0, # of connection points: 2
#     Edge 35, Type (0, 1), BuildingBlock: XIVTED_clean_linker_0, # of connection points: 2
#     Edge 36, Type (0, 1), BuildingBlock: XIVTED_clean_linker_0, # of connection points: 2
#     Edge 37, Type (0, 1), BuildingBlock: XIVTED_clean_linker_0, # of connection points: 2
#     Edge 38, Type (0, 1), BuildingBlock: XIVTED_clean_linker_0, # of connection points: 2
#     Edge 39, Type (0, 1), BuildingBlock: XIVTED_clean_linker_0, # of connection points: 2
#     Edge 40, Type (0, 1), BuildingBlock: XIVTED_clean_linker_0, # of connection points: 2
#     Edge 41, Type (0, 1), BuildingBlock: XIVTED_clean_linker_0, # of connection points: 2
#     Edge 42, Type (0, 1), BuildingBlock: XIVTED_clean_linker_0, # of connection points: 2
#     Edge 43, Type (0, 1), BuildingBlock: XIVTED_clean_linker_0, # of connection points: 2
#     Edge 44, Type (0, 1), BuildingBlock: XIVTED_clean_linker_0, # of connection points: 2
#     Edge 45, Type (0, 1), BuildingBlock: XIVTED_clean_linker_0, # of connection points: 2
#     Edge 46, Type (0, 1), BuildingBlock: XIVTED_clean_linker_0, # of connection points: 2
#     Edge 47, Type (0, 1), BuildingBlock: XIVTED_clean_linker_0, # of connection points: 2
# Relax obj value: 0.236
# Max RMSD: 0.222
# Mean RMSD: 0.173
data_MOF--net-wbl--node1-MUDLON_clean_sbu_0--node2-QUQFOY_clean_sbu_3--edge1-XIVTED_clean_linker_0
_symmetry_space_group_name_H-M    P1
_symmetry_Int_Tables_number       1
_symmetry_cell_setting            triclinic
loop_
_symmetry_equiv_pos_as_xyz
'x, y, z'
_cell_length_a     35.23298
_cell_length_b     35.66364
_cell_length_c     77.489305
_cell_angle_alpha  90.476549
_cell_angle_beta   90.14979
_cell_angle_gamma 89.896267
loop_
_atom_site_label
_atom_site_type_symbol
_atom_site_fract_x
_atom_site_fract_y
_atom_site_fract_z
_atom_type_partial_charge
Mg0 Mg 0.00292 0.00806 0.34088 0.0
C1 C 0.98589 0.92321 0.35017 0.0
O2 O 0.97089 0.89064 0.34604 0.0
C3 C 0.93878 0.02759 0.31655 0.0
O4 O 0.94202 0.99163 0.31302 0.0
C5 C 0.07365 0.98384 0.32207 0.0
O6 O 0.05589 0.95162 0.32321 0.0
O7 O 0.05845 0.013 0.32868 0.0
O8 O 0.98475 0.94943 0.33909 0.0
O9 O 0.00192 0.02708 0.36755 0.0
C10 C 0.97237 0.01822 0.37594 0.0
O11 O 0.94493 0.00032 0.36786 0.0
O12 O 0.96143 0.04242 0.3274 0.0
Mg13 Mg 0.10493 0.51504 0.57485 0.0
C14 C 0.17992 0.53922 0.58802 0.0
O15 O 0.16614 0.57125 0.58257 0.0
C16 C 0.09944 0.43613 0.55898 0.0
O17 O 0.13449 0.4333 0.56465 0.0
C18 C 0.12115 0.57497 0.54886 0.0
O19 O 0.14738 0.5502 0.54481 0.0
O20 O 0.09793 0.56744 0.5609 0.0
O21 O 0.16341 0.5091 0.58337 0.0
O22 O 0.07943 0.51541 0.60041 0.0
C23 C 0.09143 0.48718 0.60877 0.0
O24 O 0.11148 0.46172 0.60049 0.0
O25 O 0.08178 0.46701 0.5609 0.0
Mg26 Mg 0.64235 0.60794 0.83341 0.0
C27 C 0.62828 0.6854 0.846 0.0
O28 O 0.59564 0.6791 0.83828 0.0
C29 C 0.71569 0.59814 0.81298 0.0
O30 O 0.71959 0.63392 0.81674 0.0
C31 C 0.58461 0.60871 0.80455 0.0
O32 O 0.61571 0.60649 0.79527 0.0
O33 O 0.58718 0.60857 0.8209 0.0
O34 O 0.65607 0.664 0.84243 0.0
O35 O 0.64181 0.5807 0.85834 0.0
C36 C 0.67198 0.58887 0.86659 0.0
O37 O 0.69897 0.60695 0.85848 0.0
O38 O 0.68602 0.5811 0.81787 0.0
Mg39 Mg 0.51076 0.14364 0.07826 0.0
C40 C 0.56712 0.16418 0.10645 0.0
O41 O 0.57206 0.19365 0.09667 0.0
C42 C 0.54055 0.07034 0.06498 0.0
O43 O 0.56953 0.08195 0.07428 0.0
C44 C 0.56431 0.18762 0.05633 0.0
O45 O 0.58229 0.15542 0.05737 0.0
O46 O 0.5319 0.19084 0.0634 0.0
O47 O 0.54542 0.13798 0.10127 0.0
O48 O 0.45655 0.15279 0.0907 0.0
C49 C 0.43784 0.12373 0.09476 0.0
O50 O 0.44605 0.09188 0.08698 0.0
O51 O 0.51131 0.09108 0.06388 0.0
Mg52 Mg 0.1561 0.53867 0.93609 0.0
C53 C 0.13121 0.55969 0.90032 0.0
O54 O 0.10239 0.53821 0.90437 0.0
C55 C 0.09695 0.53653 0.96455 0.0
O56 O 0.12721 0.54041 0.97434 0.0
C57 C 0.23084 0.54541 0.95554 0.0
O58 O 0.23484 0.51084 0.94983 0.0
O59 O 0.20032 0.56302 0.95223 0.0
O60 O 0.15529 0.56851 0.91191 0.0
O61 O 0.16994 0.48431 0.92539 0.0
C62 C 0.14248 0.46197 0.92273 0.0
O63 O 0.11213 0.46531 0.93243 0.0
O64 O 0.10066 0.53634 0.94824 0.0
Mg65 Mg 0.64123 0.64394 0.19163 0.0
C66 C 0.6102 0.61495 0.15771 0.0
O67 O 0.63442 0.58769 0.16067 0.0
C68 C 0.61496 0.57513 0.21186 0.0
O69 O 0.58099 0.58637 0.20712 0.0
C70 C 0.58805 0.69845 0.20735 0.0
O71 O 0.56527 0.6715 0.20213 0.0
O72 O 0.62363 0.69428 0.20534 0.0
O73 O 0.60382 0.63908 0.16953 0.0
O74 O 0.69416 0.64974 0.17792 0.0
C75 C 0.71474 0.62069 0.17614 0.0
O76 O 0.70958 0.59256 0.18671 0.0
O77 O 0.64376 0.59412 0.20748 0.0
Mg78 Mg 0.50207 0.14319 0.43705 0.0
C79 C 0.52672 0.21307 0.42031 0.0
O80 O 0.55835 0.20362 0.42818 0.0
C81 C 0.45161 0.10128 0.46252 0.0
O82 O 0.48405 0.09339 0.47005 0.0
C83 C 0.55577 0.1516 0.46787 0.0
O84 O 0.52499 0.16334 0.47579 0.0
O85 O 0.55382 0.14095 0.4522 0.0
O86 O 0.49605 0.19763 0.42509 0.0
O87 O 0.5069 0.10989 0.41371 0.0
C88 C 0.48008 0.11826 0.40343 0.0
O89 O 0.45334 0.14122 0.40884 0.0
O90 O 0.4511 0.12255 0.44944 0.0
Mg91 Mg 0.02228 0.00108 0.69355 0.0
C92 C 0.07754 0.98634 0.66424 0.0
O93 O 0.08835 0.9589 0.67434 0.0
C94 C 0.04782 0.06544 0.7171 0.0
O95 O 0.07913 0.04548 0.71809 0.0
C96 C 0.03553 0.92186 0.70637 0.0
O97 O 0.00428 0.91581 0.69749 0.0
O98 O 0.04847 0.95504 0.70747 0.0
O99 O 0.05281 0.00958 0.66964 0.0
O100 O 0.96658 0.98949 0.68301 0.0
C101 C 0.94268 0.01623 0.68277 0.0
O102 O 0.94751 0.04445 0.69355 0.0
O103 O 0.02023 0.05313 0.70816 0.0
C104 C 0.58807 0.69277 0.03507 0.0
O105 O 0.618 0.70525 0.0281 0.0
Cd106 Cd 0.61789 0.73908 0.0014 0.0
O107 O 0.55593 0.69697 0.02779 0.0
Cd108 Cd 0.53023 0.72547 0.00099 0.0
C109 C 0.55961 0.81153 0.01392 0.0
O110 O 0.5797 0.70882 0.97975 0.0
O111 O 0.53886 0.75102 0.97231 0.0
O112 O 0.49122 0.66972 -0.00256 0.0
C113 C 0.56636 0.72995 0.96807 0.0
O114 O 0.59235 0.80001 0.00939 0.0
C115 C 0.45964 0.68674 -0.00353 0.0
O116 O 0.53104 0.78961 0.0133 0.0
O117 O 0.46051 0.72227 -0.00204 0.0
C118 C 0.42475 0.06078 0.21579 0.0
O119 O 0.45693 0.06903 0.22212 0.0
Cd120 Cd 0.48187 0.04113 0.24769 0.0
O121 O 0.40265 0.03846 0.22366 0.0
Cd122 Cd 0.40329 0.00593 0.25215 0.0
C123 C 0.47237 0.94671 0.23954 0.0
O124 O 0.43734 0.05119 0.27043 0.0
O125 O 0.43369 -0.00532 0.28005 0.0
O126 O 0.34049 0.03089 0.25878 0.0
C127 C 0.44194 0.02876 0.28287 0.0
O128 O 0.49432 0.97463 0.24195 0.0
C129 C 0.32519 -0.00044 0.26199 0.0
O130 O 0.43658 0.9504 0.2412 0.0
O131 O 0.34576 0.97058 0.25987 0.0
C132 C 0.08482 0.96038 0.47044 0.0
O133 O 0.08571 0.99247 0.47762 0.0
Cd134 Cd 0.11487 0.00262 0.50568 0.0
O135 O 0.10018 0.93235 0.47775 0.0
Cd136 Cd 0.13727 0.92027 0.50426 0.0
C137 C 0.20614 0.98301 0.49555 0.0
O138 O 0.10126 0.9552 0.52669 0.0
O139 O 0.15788 0.93625 0.53314 0.0
O140 O 0.10329 0.8615 0.50791 0.0
C141 C 0.1267 0.95032 0.53815 0.0
O142 O 0.18283 0.00711 0.50148 0.0
C143 C 0.13235 0.84044 0.50794 0.0
O144 O 0.1962 0.949 0.4931 0.0
O145 O 0.16421 0.8563 0.50561 0.0
C146 C 0.20794 0.57042 0.77651 0.0
O147 O 0.22401 0.5424 0.76943 0.0
Cd148 Cd 0.25531 0.54547 0.74181 0.0
O149 O 0.20795 0.6022 0.76918 0.0
Cd150 Cd 0.23407 0.62988 0.74255 0.0
C151 C 0.32444 0.60731 0.75337 0.0
O152 O 0.21944 0.58042 0.72107 0.0
O153 O 0.25862 0.62369 0.71335 0.0
O154 O 0.17496 0.66475 0.74002 0.0
C155 C 0.23878 0.59541 0.70915 0.0
O156 O 0.31614 0.57479 0.74764 0.0
C157 C 0.18985 0.69706 0.7393 0.0
O158 O 0.29911 0.63278 0.75466 0.0
O159 O 0.22584 0.69856 0.74042 0.0
C160 C 0.9223 0.06804 0.50038 0.0
O161 O 0.90447 0.04365 0.50902 0.0
Cd162 Cd 0.87301 0.05458 0.53592 0.0
O163 O 0.9251 0.10171 0.50592 0.0
Cd164 Cd 0.90338 0.13832 0.53165 0.0
C165 C 0.81062 0.12146 0.52218 0.0
O166 O 0.91556 0.09051 0.55319 0.0
O167 O 0.88269 0.13766 0.56216 0.0
O168 O 0.96335 0.17322 0.53208 0.0
C169 C 0.89935 0.10709 0.56565 0.0
O170 O 0.81536 0.08919 0.52876 0.0
C171 C 0.94808 0.20551 0.532 0.0
O172 O 0.83845 0.14385 0.52036 0.0
O173 O 0.91205 0.20655 0.53141 0.0
C174 C 0.07395 0.44601 0.73581 0.0
O175 O 0.10405 0.43732 0.74389 0.0
Cd176 Cd 0.10474 0.4068 0.77141 0.0
O177 O 0.04158 0.44062 0.74262 0.0
Cd178 Cd 0.01553 0.41723 0.7703 0.0
C179 C 0.04887 0.33043 0.76116 0.0
O180 O 0.06384 0.4388 0.79107 0.0
O181 O 0.02448 0.39676 0.79989 0.0
O182 O 0.97563 0.47277 0.77112 0.0
C183 C 0.05148 0.41902 0.80339 0.0
O184 O 0.08095 0.34389 0.7656 0.0
C185 C 0.94439 0.45571 0.77307 0.0
O186 O 0.0195 0.35137 0.76042 0.0
O187 O 0.94579 0.42007 0.77327 0.0
C188 C 0.71948 0.55353 -0.00766 0.0
O189 O 0.73113 0.58149 0.00112 0.0
Cd190 Cd 0.76352 0.57773 0.02834 0.0
O191 O 0.7232 0.52035 -0.00191 0.0
Cd192 Cd 0.74815 0.48891 0.02426 0.0
C193 C 0.83672 0.52013 0.01508 0.0
O194 O 0.73002 0.53528 0.04605 0.0
O195 O 0.7701 0.4931 0.05422 0.0
O196 O 0.69041 0.45167 0.02472 0.0
C197 C 0.7496 0.52116 0.05813 0.0
O198 O 0.8254 0.55146 0.02121 0.0
C199 C 0.70666 0.41991 0.02512 0.0
O200 O 0.81392 0.49257 0.01325 0.0
O201 O 0.74276 0.41988 0.02463 0.0
C202 C 0.59122 0.209 0.29732 0.0
O203 O 0.58181 0.17907 0.28946 0.0
Cd204 Cd 0.61483 0.16011 0.26355 0.0
O205 O 0.61536 0.23103 0.29065 0.0
Cd206 Cd 0.65118 0.23794 0.26343 0.0
C207 C 0.70897 0.16805 0.27552 0.0
O208 O 0.6107 0.20663 0.24149 0.0
O209 O 0.66914 0.21787 0.2347 0.0
O210 O 0.61971 0.29792 0.2614 0.0
C211 C 0.63642 0.20706 0.23001 0.0
O212 O 0.6808 0.14759 0.27126 0.0
C213 C 0.64932 0.3175 0.25932 0.0
O214 O 0.70629 0.20372 0.27516 0.0
O215 O 0.68096 0.30021 0.25973 0.0
H216 H 0.11526 0.92586 0.30862 0.0
H217 H 0.27736 0.0576 0.26995 0.0
H218 H 0.1155 0.04639 0.31422 0.0
H219 H 0.28462 0.93679 0.27056 0.0
H220 H 0.21556 0.05405 0.28403 0.0
H221 H 0.17505 0.92943 0.29291 0.0
C222 C 0.12787 0.95312 0.30656 0.0
C223 C 0.1103 0.9859 0.3128 0.0
C224 C 0.23057 0.0283 0.28103 0.0
C225 C 0.17887 0.99015 0.29469 0.0
C226 C 0.26582 0.03028 0.27291 0.0
C227 C 0.28628 -0.00258 0.26909 0.0
C228 C 0.21552 0.9932 0.28536 0.0
C229 C 0.26988 0.96283 0.27327 0.0
C230 C 0.16207 0.95511 0.29757 0.0
C231 C 0.12806 0.0204 0.30971 0.0
N232 N 0.23553 0.96164 0.28122 0.0
N233 N 0.16133 0.02162 0.30086 0.0
H234 H 0.17543 0.60502 0.52791 0.0
H235 H 0.06899 0.80193 0.51754 0.0
H236 H 0.06744 0.63056 0.55146 0.0
H237 H 0.18829 0.78662 0.50703 0.0
H238 H 0.06482 0.73621 0.52592 0.0
H239 H 0.1773 0.66848 0.51622 0.0
C240 C 0.15194 0.62384 0.53051 0.0
C241 C 0.12127 0.61246 0.54076 0.0
C242 C 0.09187 0.74717 0.52171 0.0
C243 C 0.12328 0.68515 0.52736 0.0
C244 C 0.09428 0.78467 0.51684 0.0
C245 C 0.12912 0.79988 0.51164 0.0
C246 C 0.12446 0.7245 0.52126 0.0
C247 C 0.1609 0.77611 0.51102 0.0
C248 C 0.15314 0.66012 0.52388 0.0
C249 C 0.09171 0.63815 0.54371 0.0
N250 N 0.15783 0.7396 0.5158 0.0
N251 N 0.09346 0.67327 0.53705 0.0
H252 H 0.56654 0.59359 0.77087 0.0
H253 H 0.34897 0.65546 0.77888 0.0
H254 H 0.51752 0.63223 0.81883 0.0
H255 H 0.38902 0.57402 0.74166 0.0
H256 H 0.41363 0.65971 0.79079 0.0
H257 H 0.50403 0.5984 0.75719 0.0
C258 C 0.54268 0.60322 0.77851 0.0
C259 C 0.54714 0.61213 0.79606 0.0
C260 C 0.40818 0.64121 0.77991 0.0
C261 C 0.47579 0.6182 0.78043 0.0
C262 C 0.37146 0.63899 0.77305 0.0
C263 C 0.36367 0.61416 0.75936 0.0
C264 C 0.43725 0.61899 0.77278 0.0
C265 C 0.39376 0.59325 0.75233 0.0
C266 C 0.50705 0.60593 0.7707 0.0
C267 C 0.51523 0.62462 0.80531 0.0
N268 N 0.42921 0.59613 0.75911 0.0
N269 N 0.48086 0.62735 0.79738 0.0
H270 H 0.48173 0.03041 0.05042 0.0
H271 H 0.61626 0.86183 0.02013 0.0
H272 H 0.60233 0.02545 0.06012 0.0
H273 H 0.49437 0.85037 0.02266 0.0
H274 H 0.61074 0.92514 0.03159 0.0
H275 H 0.48505 0.96765 0.03721 0.0
C276 C 0.5089 0.01624 0.04969 0.0
C277 C 0.54182 0.03316 0.0564 0.0
C278 C 0.58514 0.90886 0.02966 0.0
C279 C 0.54576 0.96169 0.04131 0.0
C280 C 0.58822 0.87262 0.02304 0.0
C281 C 0.55571 0.85053 0.02046 0.0
C282 C 0.54927 0.92355 0.03369 0.0
C283 C 0.52021 0.8663 0.0245 0.0
C284 C 0.51071 0.98041 0.04223 0.0
C285 C 0.57621 0.01348 0.05519 0.0
N286 N 0.5179 0.90193 0.03092 0.0
N287 N 0.57727 0.9789 0.04777 0.0
H288 H 0.30005 0.51637 0.96456 0.0
H289 H 0.38761 0.71503 -0.00766 0.0
H290 H 0.23484 0.61894 0.96614 0.0
H291 H 0.4506 0.61112 -0.00753 0.0
H292 H 0.33025 0.68003 0.9845 0.0
H293 H 0.35434 0.55016 0.97658 0.0
C294 C 0.29703 0.54595 0.96755 0.0
C295 C 0.26286 0.56486 0.96421 0.0
C296 C 0.35658 0.66488 0.98636 0.0
C297 C 0.32514 0.6039 0.97791 0.0
C298 C 0.38933 0.68485 -0.00915 0.0
C299 C 0.42402 0.66602 -0.00703 0.0
C300 C 0.35857 0.62581 0.98392 0.0
C301 C 0.42454 0.62686 -0.00911 0.0
C302 C 0.32809 0.56527 0.97441 0.0
C303 C 0.26065 0.60321 0.96843 0.0
N304 N 0.39242 0.60814 0.98639 0.0
N305 N 0.29143 0.6215 0.97493 0.0
H306 H 0.62597 0.76299 0.21635 0.0
H307 H 0.43519 0.88017 0.23367 0.0
H308 H 0.51345 0.71573 0.21288 0.0
H309 H 0.54746 0.92844 0.23568 0.0
H310 H 0.46352 0.81916 0.22704 0.0
H311 H 0.59796 0.82319 0.22482 0.0
C312 C 0.59541 0.76517 0.21749 0.0
C313 C 0.57203 0.73428 0.21383 0.0
C314 C 0.48196 0.84311 0.22893 0.0
C315 C 0.53975 0.80316 0.2234 0.0
C316 C 0.46578 0.878 0.23269 0.0
C317 C 0.48893 0.90958 0.2352 0.0
C318 C 0.52161 0.83968 0.22767 0.0
C319 C 0.52843 0.90495 0.23381 0.0
C320 C 0.57941 0.79959 0.22227 0.0
C321 C 0.5326 0.73879 0.21551 0.0
N322 N 0.54349 0.87071 0.23014 0.0
N323 N 0.51773 0.77258 0.22011 0.0
H324 H 0.43227 0.07927 0.49505 0.0
H325 H 0.24929 0.9641 0.46743 0.0
H326 H 0.39163 0.07996 0.44249 0.0
H327 H 0.25029 0.03094 0.51406 0.0
H328 H 0.31097 0.99143 0.45948 0.0
H329 H 0.37377 0.04692 0.5037 0.0
C330 C 0.41108 0.07254 0.48536 0.0
C331 C 0.41646 0.08257 0.46809 0.0
C332 C 0.2977 -0.00031 0.47152 0.0
C333 C 0.35064 0.04477 0.47774 0.0
C334 C 0.26283 0.984 0.4761 0.0
C335 C 0.24485 -0.0045 0.49136 0.0
C336 C 0.31493 0.02609 0.48256 0.0
C337 C 0.26327 0.0216 0.50212 0.0
C338 C 0.37789 0.05416 0.49029 0.0
C339 C 0.38826 0.07311 0.45599 0.0
N340 N 0.29747 0.03591 0.49757 0.0
N341 N 0.35664 0.05441 0.46102 0.0
H342 H 0.10709 0.9226 0.72045 0.0
H343 H 0.1131 0.70046 0.7346 0.0
H344 H 0.01388 0.84834 0.70847 0.0
H345 H 0.21258 0.77069 0.73762 0.0
H346 H 0.07466 0.7557 0.7284 0.0
H347 H 0.14425 0.86866 0.73015 0.0
C348 C 0.09429 0.89502 0.72 0.0
C349 C 0.05731 0.88999 0.71355 0.0
C350 C 0.10486 0.75911 0.73047 0.0
C351 C 0.09978 0.82814 0.72462 0.0
C352 C 0.12687 0.72756 0.73406 0.0
C353 C 0.16621 0.7309 0.73655 0.0
C354 C 0.12219 0.79443 0.72941 0.0
C355 C 0.18239 0.76679 0.73572 0.0
C356 C 0.1156 0.86422 0.72548 0.0
C357 C 0.04229 0.85357 0.71325 0.0
N358 N 0.16033 0.79716 0.73218 0.0
N359 N 0.06359 0.82408 0.71866 0.0
H360 H 0.7192 0.52284 0.80561 0.0
H361 H 0.93402 0.53157 0.77257 0.0
H362 H 0.78336 0.62528 0.80102 0.0
H363 H 0.87356 0.42801 0.78048 0.0
H364 H 0.8767 0.56645 0.78003 0.0
H365 H 0.77294 0.48799 0.79362 0.0
C366 C 0.74446 0.53809 0.80196 0.0
C367 C 0.74683 0.57708 0.80446 0.0
C368 C 0.87582 0.5361 0.78004 0.0
C369 C 0.80854 0.53723 0.79074 0.0
C370 C 0.90857 0.51612 0.77574 0.0
C371 C 0.90869 0.47677 0.77601 0.0
C372 C 0.84282 0.51668 0.78469 0.0
C373 C 0.87479 0.45832 0.78016 0.0
C374 C 0.77517 0.51812 0.79514 0.0
C375 C 0.78028 0.59526 0.79944 0.0
N376 N 0.84328 0.47844 0.78445 0.0
N377 N 0.80985 0.57517 0.79291 0.0
H378 H 0.63596 0.19106 0.0429 0.0
H379 H 0.62979 0.41303 0.02854 0.0
H380 H 0.53719 0.25954 0.053 0.0
H381 H 0.73264 0.34727 0.02626 0.0
H382 H 0.59375 0.35593 0.03394 0.0
H383 H 0.66976 0.24669 0.03319 0.0
C384 C 0.62121 0.21773 0.04294 0.0
C385 C 0.58369 0.22062 0.0489 0.0
C386 C 0.62417 0.35393 0.03217 0.0
C387 C 0.62243 0.28458 0.03781 0.0
C388 C 0.6448 0.38653 0.02904 0.0
C389 C 0.68438 0.38499 0.02703 0.0
C390 C 0.64316 0.31939 0.03328 0.0
C391 C 0.70221 0.34981 0.02779 0.0
C392 C 0.64063 0.24953 0.03743 0.0
C393 C 0.56611 0.25597 0.0486 0.0
N394 N 0.68149 0.31844 0.03092 0.0
N395 N 0.58569 0.28658 0.04323 0.0
H396 H 0.88311 0.00305 0.29462 0.0
H397 H 0.77284 0.19964 0.29036 0.0
H398 H 0.92249 0.10249 0.32125 0.0
H399 H 0.72703 0.09393 0.27256 0.0
H400 H 0.83095 0.16685 0.29932 0.0
H401 H 0.82908 0.03847 0.28372 0.0
C402 C 0.88055 0.03242 0.29811 0.0
C403 C 0.90732 0.04972 0.30896 0.0
C404 C 0.80812 0.15096 0.29342 0.0
C405 C 0.84517 0.09058 0.29652 0.0
C406 C 0.775 0.16965 0.28828 0.0
C407 C 0.74487 0.14952 0.28077 0.0
C408 C 0.81119 0.11199 0.29088 0.0
C409 C 0.74929 0.11067 0.27839 0.0
C410 C 0.84956 0.05264 0.29191 0.0
C411 C 0.90246 0.08795 0.31298 0.0
N412 N 0.78172 0.09327 0.28341 0.0
N413 N 0.87189 0.10709 0.3068 0.0
H414 H 0.12695 0.36463 0.55455 0.0
H415 H 0.92325 0.27831 0.53148 0.0
H416 H 0.0255 0.43117 0.5481 0.0
H417 H 0.02521 0.21176 0.53578 0.0
H418 H 0.96109 0.33499 0.53577 0.0
H419 H 0.09121 0.30883 0.54587 0.0
C420 C 0.09726 0.36761 0.55117 0.0
C421 C 0.07918 0.40268 0.55218 0.0
C422 C 0.97527 0.30802 0.53567 0.0
C423 C 0.03798 0.33877 0.54233 0.0
C424 C 0.95364 0.27562 0.53321 0.0
C425 C 0.97104 0.24019 0.53336 0.0
C426 C 0.01461 0.30506 0.53839 0.0
C427 C 0.01057 0.23846 0.53562 0.0
C428 C 0.07684 0.33569 0.54623 0.0
C429 C 0.04063 0.40475 0.5476 0.0
N430 N 0.03097 0.2704 0.53816 0.0
N431 N 0.0213 0.37324 0.543 0.0
H432 H 0.56894 0.1449 0.50252 0.0
H433 H 0.79319 0.16905 0.49581 0.0
H434 H 0.62627 0.15756 0.45378 0.0
H435 H 0.7418 0.09688 0.53355 0.0
H436 H 0.73019 0.18034 0.48326 0.0
H437 H 0.631 0.14192 0.51703 0.0
C438 C 0.59456 0.14734 0.49492 0.0
C439 C 0.59261 0.15114 0.47694 0.0
C440 C 0.73282 0.16234 0.49439 0.0
C441 C 0.66314 0.14853 0.4934 0.0
C442 C 0.76861 0.15607 0.50161 0.0
C443 C 0.77265 0.13179 0.51565 0.0
C444 C 0.7009 0.14487 0.50152 0.0
C445 C 0.7399 0.11551 0.52262 0.0
C446 C 0.62981 0.14554 0.50318 0.0
C447 C 0.6266 0.15417 0.46766 0.0
N448 N 0.70532 0.12239 0.5155 0.0
N449 N 0.66052 0.15297 0.47601 0.0
H450 H 0.98819 0.11494 0.71645 0.0
H451 H 0.10372 0.27707 0.76517 0.0
H452 H 0.10188 0.10169 0.73644 0.0
H453 H 0.98916 0.2917 0.74642 0.0
H454 H 0.10172 0.21172 0.75606 0.0
H455 H 0.98628 0.17837 0.72862 0.0
C456 C 0.01269 0.12525 0.72349 0.0
C457 C 0.04538 0.10298 0.72533 0.0
C458 C 0.07692 0.22909 0.75398 0.0
C459 C 0.04334 0.17567 0.73926 0.0
C460 C 0.07802 0.26654 0.75917 0.0
C461 C 0.04663 0.29012 0.75645 0.0
C462 C 0.04425 0.21486 0.74589 0.0
C463 C 0.01407 0.27463 0.74873 0.0
C464 C 0.01155 0.16151 0.73042 0.0
C465 C 0.07617 0.11785 0.73462 0.0
N466 N 0.0138 0.238 0.74362 0.0
N467 N 0.07444 0.15328 0.74115 0.0
H468 H 0.03238 0.50965 0.94908 0.0
H469 H 0.89773 0.55788 0.02786 0.0
H470 H 0.07548 0.55056 -0.0021 0.0
H471 H 0.86612 0.47653 0.98892 0.0
H472 H 0.96211 0.5587 0.01626 0.0
H473 H 0.97003 0.50095 0.96236 0.0
C474 C 0.02872 0.51687 0.96258 0.0
C475 C 0.05912 0.53109 0.97238 0.0
C476 C 0.94124 0.54037 0.01035 0.0
C477 C 0.98791 0.52125 0.98759 0.0
C478 C 0.90448 0.53992 0.01694 0.0
C479 C 0.87656 0.51717 0.0093 0.0
C480 C 0.95003 0.51852 -0.00424 0.0
C481 C 0.88688 0.49435 -0.00477 0.0
C482 C -0.00678 0.51162 0.97017 0.0
C483 C 0.05284 0.5396 -0.01014 0.0
N484 N 0.92272 0.496 0.98873 0.0
N485 N 0.01785 0.5349 -0.00314 0.0
H486 H 0.56005 0.52866 0.22458 0.0
H487 H 0.70627 0.36674 0.2509 0.0
H488 H 0.68165 0.54015 0.22044 0.0
H489 H 0.58513 0.3602 0.25843 0.0
H490 H 0.69862 0.43169 0.24134 0.0
H491 H 0.56924 0.46809 0.23846 0.0
C492 C 0.58869 0.51856 0.22667 0.0
C493 C 0.62009 0.53946 0.22124 0.0
C494 C 0.67378 0.41611 0.24524 0.0
C495 C 0.63089 0.46993 0.23708 0.0
C496 C 0.67816 0.37908 0.25073 0.0
C497 C 0.64628 0.35792 0.25536 0.0
C498 C 0.63725 0.43197 0.2443 0.0
C499 C 0.61051 0.37533 0.25489 0.0
C500 C 0.59395 0.48394 0.23462 0.0
C501 C 0.65658 0.52497 0.22437 0.0
N502 N 0.60696 0.41116 0.24933 0.0
N503 N 0.66096 0.491 0.23196 0.0
H504 H 0.04692 0.96606 0.36027 0.0
H505 H 0.0528 0.89721 0.45673 0.0
H506 H 0.96118 0.8917 0.37987 0.0
H507 H 0.0785 0.01228 0.44466 0.0
H508 H 0.02848 0.88824 0.42731 0.0
H509 H 0.06953 0.97678 0.39 0.0
C510 C 0.03278 0.9522 0.37083 0.0
C511 C 0.00142 0.92895 0.36772 0.0
C512 C 0.03933 0.91546 0.43117 0.0
C513 C 0.02793 0.93978 0.40142 0.0
C514 C 0.05322 0.9206 0.4479 0.0
C515 C 0.06767 0.95554 0.45312 0.0
C516 C 0.04091 0.94512 0.41943 0.0
C517 C 0.06746 0.98494 0.44116 0.0
C518 C 0.0457 0.95824 0.38772 0.0
C519 C 0.98506 0.91037 0.38175 0.0
N520 N 0.05477 0.97894 0.42476 0.0
N521 N -0.00149 0.91615 0.39801 0.0
H522 H 0.22716 0.59464 0.59939 0.0
H523 H 0.20215 0.5332 0.69625 0.0
H524 H 0.18419 0.48583 0.61324 0.0
H525 H 0.27406 0.62503 0.68108 0.0
H526 H 0.19814 0.51316 0.66598 0.0
H527 H 0.24964 0.60352 0.62896 0.0
C528 C 0.22332 0.5722 0.60856 0.0
C529 C 0.20326 0.53971 0.60391 0.0
C530 C 0.21524 0.53738 0.66932 0.0
C531 C 0.22778 0.55015 0.63794 0.0
C532 C 0.21736 0.54895 0.68659 0.0
C533 C 0.23813 0.58108 0.69118 0.0
C534 C 0.23371 0.55834 0.65656 0.0
C535 C 0.25745 0.60028 0.67813 0.0
C536 C 0.23596 0.57735 0.62548 0.0
C537 C 0.1992 0.51148 0.6163 0.0
N538 N 0.25441 0.58887 0.66142 0.0
N539 N 0.21051 0.51771 0.63288 0.0
H540 H 0.57567 0.73551 0.85803 0.0
H541 H 0.62735 0.69069 0.95516 0.0
H542 H 0.67926 0.67929 0.8727 0.0
H543 H 0.54054 0.76999 0.94057 0.0
H544 H 0.64938 0.68904 0.9252 0.0
H545 H 0.56574 0.75338 0.88816 0.0
C546 C 0.59681 0.72767 0.86753 0.0
C547 C 0.62796 0.70528 0.86286 0.0
C548 C 0.62582 0.70717 0.92861 0.0
C549 C 0.61624 0.72472 0.89748 0.0
C550 C 0.61312 0.70796 0.94569 0.0
C551 C 0.58181 0.73021 0.95034 0.0
C552 C 0.60684 0.72853 0.91607 0.0
C553 C 0.56459 0.75219 0.93755 0.0
C554 C 0.59102 0.7377 0.88477 0.0
C555 C 0.65457 0.69615 0.87572 0.0
N556 N 0.57707 0.75049 0.921 0.0
N557 N 0.64767 0.70518 0.8925 0.0
H558 H 0.43721 0.17786 0.12013 0.0
H559 H 0.37404 0.03201 0.1922 0.0
H560 H 0.39579 0.06665 0.10839 0.0
H561 H 0.45143 0.12408 0.20055 0.0
H562 H 0.36385 0.05355 0.16252 0.0
H563 H 0.42261 0.16783 0.15051 0.0
C564 C 0.424 0.15173 0.12382 0.0
C565 C 0.41855 0.12268 0.11172 0.0
C566 C 0.38255 0.06931 0.17098 0.0
C567 C 0.40215 0.11101 0.14653 0.0
C568 C 0.38832 0.05711 0.1879 0.0
C569 C 0.41407 0.07597 0.19875 0.0
C570 C 0.40223 0.10087 0.16502 0.0
C571 C 0.4318 0.10836 0.19253 0.0
C572 C 0.41596 0.14595 0.14121 0.0
C573 C 0.40111 0.08955 0.11732 0.0
N574 N 0.42573 0.11963 0.17606 0.0
N575 N 0.39412 0.08434 0.13438 0.0
H576 H 0.20165 0.56453 0.88628 0.0
H577 H 0.14805 0.60881 0.79068 0.0
H578 H 0.08283 0.56537 0.87263 0.0
H579 H 0.23295 0.52543 0.8024 0.0
H580 H 0.12664 0.60677 0.8209 0.0
H581 H 0.21783 0.56541 0.8556 0.0
C582 C 0.17895 0.5657 0.87684 0.0
C583 C 0.1408 0.56522 0.88198 0.0
C584 C 0.1497 0.58876 0.81672 0.0
C585 C 0.15925 0.5663 0.84698 0.0
C586 C 0.16194 0.58992 0.79958 0.0
C587 C 0.19222 0.56715 0.79408 0.0
C588 C 0.1688 0.56569 0.82846 0.0
C589 C 0.20933 0.54321 0.80609 0.0
C590 C 0.18824 0.56574 0.85938 0.0
C591 C 0.11256 0.56593 0.86916 0.0
N592 N 0.19782 0.54356 0.82281 0.0
N593 N 0.12234 0.56678 0.85217 0.0
H594 H 0.59141 0.68311 0.14452 0.0
H595 H 0.54346 0.63775 0.04902 0.0
H596 H 0.60567 0.56687 0.12986 0.0
H597 H 0.63664 0.712 0.06094 0.0
H598 H 0.54512 0.61524 0.07907 0.0
H599 H 0.58473 0.6992 0.11404 0.0
C600 C 0.59216 0.66081 0.13496 0.0
C601 C 0.59913 0.62353 0.13974 0.0
C602 C 0.56524 0.63624 0.07494 0.0
C603 C 0.59113 0.64194 0.10499 0.0
C604 C 0.56432 0.6491 0.05792 0.0
C605 C 0.5901 0.67661 0.05253 0.0
C606 C 0.59114 0.65209 0.08663 0.0
C607 C 0.61653 0.69053 0.06454 0.0
C608 C 0.58866 0.67013 0.11761 0.0
C609 C 0.60034 0.59592 0.12669 0.0
N610 N 0.61596 0.67857 0.08112 0.0
N611 N 0.59632 0.60566 0.10982 0.0
H612 H 0.44788 0.15392 0.37639 0.0
H613 H 0.46436 0.98629 0.31037 0.0
H614 H 0.51239 0.05492 0.38914 0.0
H615 H 0.44939 0.10097 0.29425 0.0
H616 H 0.48015 0.00884 0.33948 0.0
H617 H 0.44558 0.13333 0.34641 0.0
C618 C 0.46162 0.12778 0.37286 0.0
C619 C 0.48012 0.10589 0.38526 0.0
C620 C 0.4739 0.029 0.32949 0.0
C621 C 0.47715 0.08193 0.35094 0.0
C622 C 0.46473 0.0162 0.31292 0.0
C623 C 0.45516 0.04183 0.29996 0.0
C624 C 0.47279 0.06758 0.33312 0.0
C625 C 0.45636 0.08024 0.30389 0.0
C626 C 0.46049 0.11618 0.35571 0.0
C627 C 0.49776 0.07249 0.37993 0.0
N628 N 0.46447 0.09194 0.3202 0.0
N629 N 0.49536 0.06115 0.36314 0.0
H630 H 0.13583 0.94754 0.64915 0.0
H631 H 0.06614 0.98705 0.55301 0.0
H632 H 0.04488 0.0246 0.63748 0.0
H633 H 0.17367 0.93534 0.56522 0.0
H634 H 0.05663 0.0002 0.58383 0.0
H635 H 0.14958 0.94215 0.61834 0.0
C636 C 0.11902 0.96365 0.64012 0.0
C637 C 0.08914 0.98648 0.6459 0.0
C638 C 0.08241 0.98621 0.57972 0.0
C639 C 0.10429 0.97999 0.61057 0.0
C640 C 0.08777 0.9786 0.56215 0.0
C641 C 0.12066 0.95994 0.55654 0.0
C642 C 0.10995 0.97471 0.59174 0.0
C643 C 0.14784 0.94972 0.56894 0.0
C644 C 0.12686 0.96055 0.62252 0.0
C645 C 0.06828 0.00674 0.6336 0.0
N646 N 0.14175 0.95699 0.58593 0.0
N647 N 0.07597 0.00269 0.6165 0.0
H648 H 0.7167 0.62793 0.88874 0.0
H649 H 0.68583 0.50216 0.97048 0.0
H650 H 0.63426 0.53857 0.88733 0.0
H651 H 0.7199 0.61828 0.97376 0.0
H652 H 0.6692 0.51134 0.94002 0.0
H653 H 0.7221 0.62093 0.9198 0.0
C654 C 0.6998 0.60664 0.89497 0.0
C655 C 0.67514 0.58361 0.88542 0.0
C656 C 0.67983 0.53483 0.94754 0.0
C657 C 0.68146 0.5753 0.92112 0.0
C658 C 0.68942 0.52965 0.96489 0.0
C659 C 0.7047 0.5594 0.97466 0.0
C660 C 0.68622 0.56978 0.93991 0.0
C661 C 0.70849 0.59445 0.96675 0.0
C662 C 0.7027 0.60289 0.91275 0.0
C663 C 0.65367 0.5568 0.89425 0.0
N664 N 0.69984 0.59849 0.9498 0.0
N665 N 0.65766 0.55302 0.91166 0.0
H666 H 0.54129 0.12339 0.13378 0.0
H667 H 0.68176 0.21893 0.20213 0.0
H668 H 0.62466 0.20644 0.12005 0.0
H669 H 0.57366 0.17186 0.21646 0.0
H670 H 0.6679 0.20424 0.17192 0.0
H671 H 0.56003 0.13038 0.16409 0.0
C672 C 0.56398 0.14262 0.1371 0.0
C673 C 0.58143 0.16447 0.12439 0.0
C674 C 0.64728 0.19702 0.18169 0.0
C675 C 0.60283 0.17255 0.15898 0.0
C676 C 0.65518 0.20529 0.19894 0.0
C677 C 0.62868 0.19681 0.21182 0.0
C678 C 0.61285 0.1797 0.17727 0.0
C679 C 0.59473 0.17912 0.20692 0.0
C680 C 0.5744 0.14678 0.1544 0.0
C681 C 0.61038 0.18919 0.12945 0.0
N682 N 0.58777 0.1711 0.19 0.0
N683 N 0.62017 0.19258 0.14636 0.0
H684 H 0.01389 0.06693 0.39611 0.0
H685 H 0.91504 0.00094 0.48339 0.0
H686 H 0.92689 0.98216 0.39869 0.0
H687 H 0.96346 0.11139 0.47793 0.0
H688 H 0.93299 0.98646 0.45372 0.0
H689 H 0.00814 0.07665 0.42746 0.0
C690 C -0.00633 0.05037 0.40326 0.0
C691 C 0.9703 0.02422 0.39478 0.0
C692 C 0.93991 0.01377 0.45907 0.0
C693 C 0.96422 0.03461 0.43044 0.0
C694 C 0.9298 0.02208 0.47604 0.0
C695 C 0.93722 0.05769 0.48312 0.0
C696 C 0.95778 0.04114 0.44907 0.0
C697 C 0.95676 0.08374 0.47294 0.0
C698 C 0.99044 0.05592 0.42109 0.0
C699 C 0.94491 0.00316 0.40466 0.0
N700 N 0.96616 0.07504 0.45636 0.0
N701 N 0.94257 0.0088 0.42195 0.0
H702 H 0.13671 0.44753 0.6302 0.0
H703 H 0.01682 0.47343 0.7151 0.0
H704 H 0.03981 0.52177 0.63061 0.0
H705 H 0.13691 0.44892 0.71535 0.0
H706 H 0.0211 0.4884 0.68429 0.0
H707 H 0.1335 0.44355 0.66141 0.0
C708 C 0.11458 0.46296 0.63686 0.0
C709 C 0.08835 0.48492 0.62776 0.0
C710 C 0.04651 0.48022 0.69121 0.0
C711 C 0.08435 0.48011 0.66369 0.0
C712 C 0.04413 0.47157 0.70875 0.0
C713 C 0.0765 0.45949 0.71781 0.0
C714 C 0.08132 0.47612 0.68265 0.0
C715 C 0.11115 0.45784 0.70893 0.0
C716 C 0.11296 0.46085 0.65474 0.0
C717 C 0.06052 0.50449 0.63716 0.0
N718 N 0.11251 0.46553 0.69182 0.0
N719 N 0.05892 0.50127 0.65468 0.0
H720 H 0.58621 0.24987 0.4055 0.0
H721 H 0.53039 0.17648 0.31347 0.0
H722 H 0.4737 0.20851 0.39433 0.0
H723 H 0.6166 0.26111 0.32071 0.0
H724 H 0.50874 0.18799 0.34305 0.0
H725 H 0.59721 0.25674 0.37456 0.0
C726 C 0.56347 0.24307 0.39658 0.0
C727 C 0.52929 0.22781 0.40253 0.0
C728 C 0.53202 0.20442 0.33805 0.0
C729 C 0.54211 0.23455 0.3671 0.0
C730 C 0.54455 0.1977 0.32121 0.0
C731 C 0.57558 0.21764 0.31464 0.0
C732 C 0.55108 0.23076 0.34849 0.0
C733 C 0.59268 0.24496 0.32525 0.0
C734 C 0.56983 0.24685 0.3789 0.0
C735 C 0.50075 0.21974 0.39035 0.0
N736 N 0.58059 0.25032 0.34172 0.0
N737 N 0.50814 0.22227 0.37318 0.0
H738 H 0.89606 0.07544 0.67509 0.0
H739 H 0.92234 0.03694 0.57485 0.0
H740 H 0.93951 0.97177 0.65373 0.0
H741 H 0.87031 0.13731 0.5955 0.0
H742 H 0.92079 0.00933 0.60351 0.0
H743 H 0.8763 0.09424 0.64621 0.0
C744 C 0.9006 0.05617 0.66441 0.0
C745 C 0.92038 0.02237 0.6668 0.0
C746 C 0.90936 0.03726 0.60179 0.0
C747 C 0.89847 0.04409 0.63366 0.0
C748 C 0.91045 0.05315 0.58542 0.0
C749 C 0.8969 0.08969 0.58284 0.0
C750 C 0.89496 0.05817 0.61576 0.0
C751 C 0.88138 0.10917 0.59696 0.0
C752 C 0.88951 0.06706 0.64788 0.0
C753 C 0.92499 -0.00161 0.65249 0.0
N754 N 0.88122 0.09333 0.61287 0.0
N755 N 0.91486 0.01006 0.63649 0.0
H756 H 0.18408 0.47628 0.89364 0.0
H757 H 0.03044 0.37946 0.8318 0.0
H758 H 0.08972 0.41072 0.91197 0.0
H759 H 0.11266 0.46038 0.81447 0.0
H760 H 0.05852 0.38225 0.86059 0.0
H761 H 0.1658 0.46108 0.86403 0.0
C762 C 0.16017 0.45776 0.89149 0.0
C763 C 0.13816 0.44498 0.90535 0.0
C764 C 0.07056 0.39926 0.85048 0.0
C765 C 0.11687 0.42791 0.8714 0.0
C766 C 0.0545 0.39774 0.83403 0.0
C767 C 0.06903 0.41996 0.82073 0.0
C768 C 0.10145 0.42313 0.8537 0.0
C769 C 0.10039 0.44296 0.82437 0.0
C770 C 0.14953 0.44943 0.87453 0.0
C771 C 0.10731 0.42138 0.90169 0.0
N772 N 0.11546 0.44408 0.84054 0.0
N773 N 0.09735 0.41392 0.88507 0.0
H774 H 0.71012 0.66282 0.14676 0.0
H775 H 0.78622 0.49546 0.08691 0.0
H776 H 0.75897 0.56079 0.16669 0.0
H777 H 0.71712 0.58711 0.06872 0.0
H778 H 0.78724 0.52446 0.11563 0.0
H779 H 0.72514 0.64167 0.11758 0.0
C780 C 0.72493 0.63642 0.14508 0.0
C781 C 0.7328 0.61327 0.15923 0.0
C782 C 0.77207 0.53831 0.10533 0.0
C783 C 0.74953 0.58868 0.12576 0.0
C784 C 0.77139 0.52175 0.08894 0.0
C785 C 0.75123 0.53872 0.07545 0.0
C786 C 0.75259 0.57217 0.1082 0.0
C787 C 0.7327 0.57288 0.07877 0.0
C788 C 0.73316 0.6242 0.12835 0.0
C789 C 0.75199 0.57934 0.15617 0.0
N790 N 0.73372 0.5884 0.09484 0.0
N791 N 0.75926 0.56783 0.13974 0.0
loop_
_geom_bond_atom_site_label_1
_geom_bond_atom_site_label_2
_geom_bond_distance
_geom_bond_site_symmetry_2
_ccdc_geom_bond_type
Mg0 O7 2.141 . S
Mg0 O8 2.048 1_545 S
Mg0 O9 2.048 1_455 S
Mg0 O12 2.141 1_455 S
C1 O2 1.313 . S
C1 O8 1.195 . S
O2 C1 1.313 . S
C3 O4 1.245 . S
C3 O12 1.289 . S
O4 C3 1.245 . S
C5 O6 1.245 . S
C5 O7 1.289 1_565 S
O6 C5 1.245 . S
O7 Mg0 2.141 . S
O7 C5 1.289 1_545 S
O8 Mg0 2.048 1_565 S
O8 C1 1.195 . S
O9 Mg0 2.048 1_655 S
O9 C10 1.195 . S
C10 O9 1.195 . S
C10 O11 1.313 1_545 S
O11 C10 1.313 1_565 S
O12 Mg0 2.141 1_655 S
O12 C3 1.289 . S
Mg13 O20 2.141 . S
Mg13 O21 2.048 . S
Mg13 O22 2.048 . S
Mg13 O25 2.141 . S
C14 O15 1.313 . S
C14 O21 1.195 . S
O15 C14 1.313 . S
C16 O17 1.245 . S
C16 O25 1.289 . S
O17 C16 1.245 . S
C18 O19 1.245 . S
C18 O20 1.289 . S
O19 C18 1.245 . S
O20 Mg13 2.141 . S
O20 C18 1.289 . S
O21 Mg13 2.048 . S
O21 C14 1.195 . S
O22 Mg13 2.048 . S
O22 C23 1.195 . S
C23 O22 1.195 . S
C23 O24 1.313 . S
O24 C23 1.313 . S
O25 Mg13 2.141 . S
O25 C16 1.289 . S
Mg26 O33 2.141 . S
Mg26 O34 2.048 . S
Mg26 O35 2.048 . S
Mg26 O38 2.141 . S
C27 O28 1.313 . S
C27 O34 1.195 . S
O28 C27 1.313 . S
C29 O30 1.245 . S
C29 O38 1.289 . S
O30 C29 1.245 . S
C31 O32 1.245 . S
C31 O33 1.289 . S
O32 C31 1.245 . S
O33 Mg26 2.141 . S
O33 C31 1.289 . S
O34 Mg26 2.048 . S
O34 C27 1.195 . S
O35 Mg26 2.048 . S
O35 C36 1.195 . S
C36 O35 1.195 . S
C36 O37 1.313 . S
O37 C36 1.313 . S
O38 Mg26 2.141 . S
O38 C29 1.289 . S
Mg39 O46 2.141 . S
Mg39 O47 2.048 . S
Mg39 O48 2.048 . S
Mg39 O51 2.141 . S
C40 O41 1.313 . S
C40 O47 1.195 . S
O41 C40 1.313 . S
C42 O43 1.245 . S
C42 O51 1.289 . S
O43 C42 1.245 . S
C44 O45 1.245 . S
C44 O46 1.289 . S
O45 C44 1.245 . S
O46 Mg39 2.141 . S
O46 C44 1.289 . S
O47 Mg39 2.048 . S
O47 C40 1.195 . S
O48 Mg39 2.048 . S
O48 C49 1.195 . S
C49 O48 1.195 . S
C49 O50 1.313 . S
O50 C49 1.313 . S
O51 Mg39 2.141 . S
O51 C42 1.289 . S
Mg52 O59 2.141 . S
Mg52 O60 2.048 . S
Mg52 O61 2.048 . S
Mg52 O64 2.141 . S
C53 O54 1.313 . S
C53 O60 1.195 . S
O54 C53 1.313 . S
C55 O56 1.245 . S
C55 O64 1.289 . S
O56 C55 1.245 . S
C57 O58 1.245 . S
C57 O59 1.289 . S
O58 C57 1.245 . S
O59 Mg52 2.141 . S
O59 C57 1.289 . S
O60 Mg52 2.048 . S
O60 C53 1.195 . S
O61 Mg52 2.048 . S
O61 C62 1.195 . S
C62 O61 1.195 . S
C62 O63 1.313 . S
O63 C62 1.313 . S
O64 Mg52 2.141 . S
O64 C55 1.289 . S
Mg65 O72 2.141 . S
Mg65 O73 2.048 . S
Mg65 O74 2.048 . S
Mg65 O77 2.141 . S
C66 O67 1.313 . S
C66 O73 1.195 . S
O67 C66 1.313 . S
C68 O69 1.245 . S
C68 O77 1.289 . S
O69 C68 1.245 . S
C70 O71 1.245 . S
C70 O72 1.289 . S
O71 C70 1.245 . S
O72 Mg65 2.141 . S
O72 C70 1.289 . S
O73 Mg65 2.048 . S
O73 C66 1.195 . S
O74 Mg65 2.048 . S
O74 C75 1.195 . S
C75 O74 1.195 . S
C75 O76 1.313 . S
O76 C75 1.313 . S
O77 Mg65 2.141 . S
O77 C68 1.289 . S
Mg78 O85 2.141 . S
Mg78 O86 2.048 . S
Mg78 O87 2.048 . S
Mg78 O90 2.141 . S
C79 O80 1.313 . S
C79 O86 1.195 . S
O80 C79 1.313 . S
C81 O82 1.245 . S
C81 O90 1.289 . S
O82 C81 1.245 . S
C83 O84 1.245 . S
C83 O85 1.289 . S
O84 C83 1.245 . S
O85 Mg78 2.141 . S
O85 C83 1.289 . S
O86 Mg78 2.048 . S
O86 C79 1.195 . S
O87 Mg78 2.048 . S
O87 C88 1.195 . S
C88 O87 1.195 . S
C88 O89 1.313 . S
O89 C88 1.313 . S
O90 Mg78 2.141 . S
O90 C81 1.289 . S
Mg91 O98 2.141 . S
Mg91 O99 2.048 . S
Mg91 O100 2.048 1_465 S
Mg91 O103 2.141 1_465 S
C92 O93 1.313 . S
C92 O99 1.195 . S
O93 C92 1.313 . S
C94 O95 1.245 1_655 S
C94 O103 1.289 . S
O95 C94 1.245 1_455 S
C96 O97 1.245 . S
C96 O98 1.289 . S
O97 C96 1.245 . S
O98 Mg91 2.141 . S
O98 C96 1.289 . S
O99 Mg91 2.048 . S
O99 C92 1.195 . S
O100 Mg91 2.048 1_645 S
O100 C101 1.195 . S
C101 O100 1.195 . S
C101 O102 1.313 1_655 S
O102 C101 1.313 1_455 S
O103 Mg91 2.141 1_645 S
O103 C94 1.289 . S
C104 O105 1.306 . S
C104 O107 1.160 . S
O105 C104 1.306 . S
O105 Cd106 2.228 . S
Cd106 O105 2.228 . S
Cd106 O110 2.269 1_554 S
Cd106 O114 2.277 . S
O107 C104 1.160 . S
O107 Cd108 2.203 . S
Cd108 O107 2.203 . S
Cd108 O110 2.408 1_554 S
Cd108 O111 2.333 1_554 S
Cd108 O112 2.352 . S
Cd108 O116 2.277 . S
Cd108 O117 2.356 . S
C109 O114 1.209 . S
C109 O116 1.226 . S
O110 Cd106 2.269 1_556 S
O110 Cd108 2.408 1_556 S
O110 C113 1.326 . S
O111 Cd108 2.333 1_556 S
O111 C113 1.214 . S
O112 Cd108 2.352 . S
O112 C115 1.258 . S
C113 O110 1.326 . S
C113 O111 1.214 . S
O114 Cd106 2.277 . S
O114 C109 1.209 . S
C115 O112 1.258 . S
C115 O117 1.282 . S
O116 Cd108 2.277 . S
O116 C109 1.226 . S
O117 Cd108 2.356 . S
O117 C115 1.282 . S
C118 O119 1.306 . S
C118 O121 1.160 . S
O119 C118 1.306 . S
O119 Cd120 2.228 . S
Cd120 O119 2.228 . S
Cd120 O124 2.273 . S
Cd120 O128 2.277 . S
O121 C118 1.160 . S
O121 Cd122 2.203 . S
Cd122 O121 2.203 . S
Cd122 O124 2.411 . S
Cd122 O125 2.333 . S
Cd122 O126 2.352 . S
Cd122 O130 2.277 . S
Cd122 O131 2.356 . S
C123 O128 1.209 . S
C123 O130 1.226 . S
O124 Cd120 2.273 . S
O124 Cd122 2.411 . S
O124 C127 1.320 . S
O125 Cd122 2.333 . S
O125 C127 1.214 . S
O126 Cd122 2.352 . S
O126 C129 1.258 . S
C127 O124 1.320 . S
C127 O125 1.214 . S
O128 Cd120 2.277 . S
O128 C123 1.209 . S
C129 O126 1.258 . S
C129 O131 1.282 . S
O130 Cd122 2.277 . S
O130 C123 1.226 . S
O131 Cd122 2.356 . S
O131 C129 1.282 . S
C132 O133 1.306 . S
C132 O135 1.160 . S
O133 C132 1.306 . S
O133 Cd134 2.228 . S
Cd134 O133 2.228 . S
Cd134 O138 2.273 . S
Cd134 O142 2.277 . S
O135 C132 1.160 . S
O135 Cd136 2.203 . S
Cd136 O135 2.203 . S
Cd136 O138 2.411 . S
Cd136 O139 2.333 . S
Cd136 O140 2.352 . S
Cd136 O144 2.277 . S
Cd136 O145 2.356 . S
C137 O142 1.209 . S
C137 O144 1.226 . S
O138 Cd134 2.273 . S
O138 Cd136 2.411 . S
O138 C141 1.320 . S
O139 Cd136 2.333 . S
O139 C141 1.214 . S
O140 Cd136 2.352 . S
O140 C143 1.258 . S
C141 O138 1.320 . S
C141 O139 1.214 . S
O142 Cd134 2.277 . S
O142 C137 1.209 . S
C143 O140 1.258 . S
C143 O145 1.282 . S
O144 Cd136 2.277 . S
O144 C137 1.226 . S
O145 Cd136 2.356 . S
O145 C143 1.282 . S
C146 O147 1.306 . S
C146 O149 1.160 . S
O147 C146 1.306 . S
O147 Cd148 2.228 . S
Cd148 O147 2.228 . S
Cd148 O152 2.273 . S
Cd148 O156 2.277 . S
O149 C146 1.160 . S
O149 Cd150 2.203 . S
Cd150 O149 2.203 . S
Cd150 O152 2.411 . S
Cd150 O153 2.333 . S
Cd150 O154 2.352 . S
Cd150 O158 2.277 . S
Cd150 O159 2.356 . S
C151 O156 1.209 . S
C151 O158 1.226 . S
O152 Cd148 2.273 . S
O152 Cd150 2.411 . S
O152 C155 1.320 . S
O153 Cd150 2.333 . S
O153 C155 1.214 . S
O154 Cd150 2.352 . S
O154 C157 1.258 . S
C155 O152 1.320 . S
C155 O153 1.214 . S
O156 Cd148 2.277 . S
O156 C151 1.209 . S
C157 O154 1.258 . S
C157 O159 1.282 . S
O158 Cd150 2.277 . S
O158 C151 1.226 . S
O159 Cd150 2.356 . S
O159 C157 1.282 . S
C160 O161 1.306 . S
C160 O163 1.160 . S
O161 C160 1.306 . S
O161 Cd162 2.228 . S
Cd162 O161 2.228 . S
Cd162 O166 2.273 . S
Cd162 O170 2.277 . S
O163 C160 1.160 . S
O163 Cd164 2.203 . S
Cd164 O163 2.203 . S
Cd164 O166 2.411 . S
Cd164 O167 2.333 . S
Cd164 O168 2.352 . S
Cd164 O172 2.277 . S
Cd164 O173 2.356 . S
C165 O170 1.209 . S
C165 O172 1.226 . S
O166 Cd162 2.273 . S
O166 Cd164 2.411 . S
O166 C169 1.320 . S
O167 Cd164 2.333 . S
O167 C169 1.214 . S
O168 Cd164 2.352 . S
O168 C171 1.258 . S
C169 O166 1.320 . S
C169 O167 1.214 . S
O170 Cd162 2.277 . S
O170 C165 1.209 . S
C171 O168 1.258 . S
C171 O173 1.282 . S
O172 Cd164 2.277 . S
O172 C165 1.226 . S
O173 Cd164 2.356 . S
O173 C171 1.282 . S
C174 O175 1.306 1_655 S
C174 O177 1.160 . S
O175 C174 1.306 1_455 S
O175 Cd176 2.228 . S
Cd176 O175 2.228 . S
Cd176 O180 2.273 1_455 S
Cd176 O184 2.277 1_455 S
O177 C174 1.160 . S
O177 Cd178 2.203 . S
Cd178 O177 2.203 . S
Cd178 O180 2.411 . S
Cd178 O181 2.333 . S
Cd178 O182 2.352 . S
Cd178 O186 2.277 . S
Cd178 O187 2.356 . S
C179 O184 1.209 . S
C179 O186 1.226 . S
O180 Cd176 2.273 1_655 S
O180 Cd178 2.411 . S
O180 C183 1.320 . S
O181 Cd178 2.333 . S
O181 C183 1.214 . S
O182 Cd178 2.352 . S
O182 C185 1.258 . S
C183 O180 1.320 . S
C183 O181 1.214 . S
O184 Cd176 2.277 1_655 S
O184 C179 1.209 . S
C185 O182 1.258 . S
C185 O187 1.282 . S
O186 Cd178 2.277 . S
O186 C179 1.226 . S
O187 Cd178 2.356 . S
O187 C185 1.282 . S
C188 O189 1.306 1_556 S
C188 O191 1.160 1_556 S
O189 C188 1.306 1_554 S
O189 Cd190 2.228 . S
Cd190 O189 2.228 . S
Cd190 O194 2.273 . S
Cd190 O198 2.277 . S
O191 C188 1.160 1_554 S
O191 Cd192 2.203 . S
Cd192 O191 2.203 . S
Cd192 O194 2.411 . S
Cd192 O195 2.333 . S
Cd192 O196 2.352 . S
Cd192 O200 2.277 . S
Cd192 O201 2.356 . S
C193 O198 1.209 . S
C193 O200 1.226 . S
O194 Cd190 2.273 . S
O194 Cd192 2.411 . S
O194 C197 1.320 . S
O195 Cd192 2.333 . S
O195 C197 1.214 . S
O196 Cd192 2.352 . S
O196 C199 1.258 . S
C197 O194 1.320 . S
C197 O195 1.214 . S
O198 Cd190 2.277 . S
O198 C193 1.209 . S
C199 O196 1.258 . S
C199 O201 1.282 . S
O200 Cd192 2.277 . S
O200 C193 1.226 . S
O201 Cd192 2.356 . S
O201 C199 1.282 . S
C202 O203 1.306 . S
C202 O205 1.160 . S
O203 C202 1.306 . S
O203 Cd204 2.228 . S
Cd204 O203 2.228 . S
Cd204 O208 2.273 . S
Cd204 O212 2.277 . S
O205 C202 1.160 . S
O205 Cd206 2.203 . S
Cd206 O205 2.203 . S
Cd206 O208 2.411 . S
Cd206 O209 2.333 . S
Cd206 O210 2.352 . S
Cd206 O214 2.277 . S
Cd206 O215 2.356 . S
C207 O212 1.209 . S
C207 O214 1.226 . S
O208 Cd204 2.273 . S
O208 Cd206 2.411 . S
O208 C211 1.320 . S
O209 Cd206 2.333 . S
O209 C211 1.214 . S
O210 Cd206 2.352 . S
O210 C213 1.258 . S
C211 O208 1.320 . S
C211 O209 1.214 . S
O212 Cd204 2.277 . S
O212 C207 1.209 . S
C213 O210 1.258 . S
C213 O215 1.282 . S
O214 Cd206 2.277 . S
O214 C207 1.226 . S
O215 Cd206 2.356 . S
O215 C213 1.282 . S
H216 C222 0.930 . S
H217 C226 0.930 . S
H218 C231 0.929 . S
H219 C229 0.929 . S
H220 C224 0.929 . S
H221 C230 0.929 . S
C222 H216 0.930 . S
C222 C223 1.367 . S
C222 C230 1.378 . S
C223 C222 1.367 . S
C223 C231 1.433 . S
C224 H220 0.929 . S
C224 C226 1.378 . S
C224 C228 1.350 . S
C225 C228 1.463 . S
C225 C230 1.350 . S
C225 N233 1.427 . S
C226 H217 0.930 . S
C226 C224 1.378 . S
C226 C227 1.367 . S
C227 C226 1.367 . S
C227 C229 1.433 . S
C228 C224 1.350 . S
C228 C225 1.463 . S
C228 N232 1.427 . S
C229 H219 0.929 . S
C229 C227 1.433 . S
C229 N232 1.384 . S
C230 H221 0.929 . S
C230 C222 1.378 . S
C230 C225 1.350 . S
C231 H218 0.929 . S
C231 C223 1.433 . S
C231 N233 1.384 . S
N232 C228 1.427 . S
N232 C229 1.384 . S
N233 C225 1.427 . S
N233 C231 1.384 . S
H234 C240 0.930 . S
H235 C244 0.930 . S
H236 C249 0.929 . S
H237 C247 0.929 . S
H238 C242 0.929 . S
H239 C248 0.929 . S
C240 H234 0.930 . S
C240 C241 1.367 . S
C240 C248 1.378 . S
C241 C240 1.367 . S
C241 C249 1.433 . S
C242 H238 0.929 . S
C242 C244 1.378 . S
C242 C246 1.350 . S
C243 C246 1.463 . S
C243 C248 1.350 . S
C243 N251 1.427 . S
C244 H235 0.930 . S
C244 C242 1.378 . S
C244 C245 1.367 . S
C245 C244 1.367 . S
C245 C247 1.433 . S
C246 C242 1.350 . S
C246 C243 1.463 . S
C246 N250 1.427 . S
C247 H237 0.929 . S
C247 C245 1.433 . S
C247 N250 1.384 . S
C248 H239 0.929 . S
C248 C240 1.378 . S
C248 C243 1.350 . S
C249 H236 0.929 . S
C249 C241 1.433 . S
C249 N251 1.384 . S
N250 C246 1.427 . S
N250 C247 1.384 . S
N251 C243 1.427 . S
N251 C249 1.384 . S
H252 C258 0.930 . S
H253 C262 0.930 . S
H254 C267 0.929 . S
H255 C265 0.929 . S
H256 C260 0.929 . S
H257 C266 0.929 . S
C258 H252 0.930 . S
C258 C259 1.367 . S
C258 C266 1.378 . S
C259 C258 1.367 . S
C259 C267 1.433 . S
C260 H256 0.929 . S
C260 C262 1.378 . S
C260 C264 1.350 . S
C261 C264 1.463 . S
C261 C266 1.350 . S
C261 N269 1.427 . S
C262 H253 0.930 . S
C262 C260 1.378 . S
C262 C263 1.367 . S
C263 C262 1.367 . S
C263 C265 1.433 . S
C264 C260 1.350 . S
C264 C261 1.463 . S
C264 N268 1.427 . S
C265 H255 0.929 . S
C265 C263 1.433 . S
C265 N268 1.384 . S
C266 H257 0.929 . S
C266 C258 1.378 . S
C266 C261 1.350 . S
C267 H254 0.929 . S
C267 C259 1.433 . S
C267 N269 1.384 . S
N268 C264 1.427 . S
N268 C265 1.384 . S
N269 C261 1.427 . S
N269 C267 1.384 . S
H270 C276 0.930 . S
H271 C280 0.930 . S
H272 C285 0.929 . S
H273 C283 0.929 . S
H274 C278 0.929 . S
H275 C284 0.929 1_565 S
C276 H270 0.930 . S
C276 C277 1.367 . S
C276 C284 1.378 . S
C277 C276 1.367 . S
C277 C285 1.433 . S
C278 H274 0.929 . S
C278 C280 1.378 . S
C278 C282 1.350 . S
C279 C282 1.463 1_545 S
C279 C284 1.350 . S
C279 N287 1.427 . S
C280 H271 0.930 . S
C280 C278 1.378 . S
C280 C281 1.367 . S
C281 C280 1.367 . S
C281 C283 1.433 . S
C282 C278 1.350 . S
C282 C279 1.463 1_565 S
C282 N286 1.427 . S
C283 H273 0.929 . S
C283 C281 1.433 . S
C283 N286 1.384 . S
C284 H275 0.929 1_545 S
C284 C276 1.378 . S
C284 C279 1.350 . S
C285 H272 0.929 . S
C285 C277 1.433 . S
C285 N287 1.384 . S
N286 C282 1.427 . S
N286 C283 1.384 . S
N287 C279 1.427 . S
N287 C285 1.384 . S
H288 C294 0.930 . S
H289 C298 0.930 . S
H290 C303 0.929 . S
H291 C301 0.929 . S
H292 C296 0.929 . S
H293 C302 0.929 1_554 S
C294 H288 0.930 . S
C294 C295 1.367 . S
C294 C302 1.378 . S
C295 C294 1.367 . S
C295 C303 1.433 . S
C296 H292 0.929 . S
C296 C298 1.378 . S
C296 C300 1.350 . S
C297 C300 1.463 . S
C297 C302 1.350 . S
C297 N305 1.427 . S
C298 H289 0.930 . S
C298 C296 1.378 . S
C298 C299 1.423 . S
C299 C298 1.423 . S
C299 C301 1.398 1_556 S
C300 C296 1.350 . S
C300 C297 1.463 . S
C300 N304 1.427 1_556 S
C301 H291 0.929 . S
C301 C299 1.398 1_554 S
C301 N304 1.384 . S
C302 H293 0.929 1_556 S
C302 C294 1.378 . S
C302 C297 1.350 . S
C303 H290 0.929 . S
C303 C295 1.433 . S
C303 N305 1.384 . S
N304 C300 1.427 1_554 S
N304 C301 1.384 . S
N305 C297 1.427 . S
N305 C303 1.384 . S
H306 C312 0.930 . S
H307 C316 0.930 . S
H308 C321 0.929 . S
H309 C319 0.929 . S
H310 C314 0.929 . S
H311 C320 0.929 . S
C312 H306 0.930 . S
C312 C313 1.367 . S
C312 C320 1.378 . S
C313 C312 1.367 . S
C313 C321 1.433 . S
C314 H310 0.929 . S
C314 C316 1.378 . S
C314 C318 1.350 . S
C315 C318 1.463 . S
C315 C320 1.350 . S
C315 N323 1.427 . S
C316 H307 0.930 . S
C316 C314 1.378 . S
C316 C317 1.367 . S
C317 C316 1.367 . S
C317 C319 1.433 . S
C318 C314 1.350 . S
C318 C315 1.463 . S
C318 N322 1.427 . S
C319 H309 0.929 . S
C319 C317 1.433 . S
C319 N322 1.384 . S
C320 H311 0.929 . S
C320 C312 1.378 . S
C320 C315 1.350 . S
C321 H308 0.929 . S
C321 C313 1.433 . S
C321 N323 1.384 . S
N322 C318 1.427 . S
N322 C319 1.384 . S
N323 C315 1.427 . S
N323 C321 1.384 . S
H324 C330 0.930 . S
H325 C334 0.930 . S
H326 C339 0.929 . S
H327 C337 0.929 . S
H328 C332 0.929 . S
H329 C338 0.929 . S
C330 H324 0.930 . S
C330 C331 1.367 . S
C330 C338 1.378 . S
C331 C330 1.367 . S
C331 C339 1.433 . S
C332 H328 0.929 . S
C332 C334 1.378 . S
C332 C336 1.350 . S
C333 C336 1.463 1_545 S
C333 C338 1.350 . S
C333 N341 1.427 . S
C334 H325 0.930 . S
C334 C332 1.378 . S
C334 C335 1.367 . S
C335 C334 1.367 . S
C335 C337 1.433 . S
C336 C332 1.350 . S
C336 C333 1.463 1_565 S
C336 N340 1.427 . S
C337 H327 0.929 . S
C337 C335 1.433 . S
C337 N340 1.384 . S
C338 H329 0.929 . S
C338 C330 1.378 . S
C338 C333 1.350 . S
C339 H326 0.929 . S
C339 C331 1.433 . S
C339 N341 1.384 . S
N340 C336 1.427 . S
N340 C337 1.384 . S
N341 C333 1.427 . S
N341 C339 1.384 . S
H342 C348 0.930 . S
H343 C352 0.930 . S
H344 C357 0.929 . S
H345 C355 0.929 . S
H346 C350 0.929 . S
H347 C356 0.929 . S
C348 H342 0.930 . S
C348 C349 1.367 . S
C348 C356 1.378 . S
C349 C348 1.367 . S
C349 C357 1.433 . S
C350 H346 0.929 . S
C350 C352 1.378 . S
C350 C354 1.350 . S
C351 C354 1.463 . S
C351 C356 1.350 . S
C351 N359 1.427 . S
C352 H343 0.930 . S
C352 C350 1.378 . S
C352 C353 1.367 . S
C353 C352 1.367 . S
C353 C355 1.433 . S
C354 C350 1.350 . S
C354 C351 1.463 . S
C354 N358 1.427 . S
C355 H345 0.929 . S
C355 C353 1.433 . S
C355 N358 1.384 . S
C356 H347 0.929 . S
C356 C348 1.378 . S
C356 C351 1.350 . S
C357 H344 0.929 . S
C357 C349 1.433 . S
C357 N359 1.384 . S
N358 C354 1.427 . S
N358 C355 1.384 . S
N359 C351 1.427 . S
N359 C357 1.384 . S
H360 C366 0.930 . S
H361 C370 0.930 . S
H362 C375 0.929 . S
H363 C373 0.929 . S
H364 C368 0.929 . S
H365 C374 0.929 . S
C366 H360 0.930 . S
C366 C367 1.367 . S
C366 C374 1.378 . S
C367 C366 1.367 . S
C367 C375 1.433 . S
C368 H364 0.929 . S
C368 C370 1.378 . S
C368 C372 1.350 . S
C369 C372 1.463 . S
C369 C374 1.350 . S
C369 N377 1.427 . S
C370 H361 0.930 . S
C370 C368 1.378 . S
C370 C371 1.367 . S
C371 C370 1.367 . S
C371 C373 1.433 . S
C372 C368 1.350 . S
C372 C369 1.463 . S
C372 N376 1.427 . S
C373 H363 0.929 . S
C373 C371 1.433 . S
C373 N376 1.384 . S
C374 H365 0.929 . S
C374 C366 1.378 . S
C374 C369 1.350 . S
C375 H362 0.929 . S
C375 C367 1.433 . S
C375 N377 1.384 . S
N376 C372 1.427 . S
N376 C373 1.384 . S
N377 C369 1.427 . S
N377 C375 1.384 . S
H378 C384 0.930 . S
H379 C388 0.930 . S
H380 C393 0.929 . S
H381 C391 0.929 . S
H382 C386 0.929 . S
H383 C392 0.929 . S
C384 H378 0.930 . S
C384 C385 1.367 . S
C384 C392 1.378 . S
C385 C384 1.367 . S
C385 C393 1.433 . S
C386 H382 0.929 . S
C386 C388 1.378 . S
C386 C390 1.350 . S
C387 C390 1.463 . S
C387 C392 1.350 . S
C387 N395 1.427 . S
C388 H379 0.930 . S
C388 C386 1.378 . S
C388 C389 1.367 . S
C389 C388 1.367 . S
C389 C391 1.433 . S
C390 C386 1.350 . S
C390 C387 1.463 . S
C390 N394 1.427 . S
C391 H381 0.929 . S
C391 C389 1.433 . S
C391 N394 1.384 . S
C392 H383 0.929 . S
C392 C384 1.378 . S
C392 C387 1.350 . S
C393 H380 0.929 . S
C393 C385 1.433 . S
C393 N395 1.384 . S
N394 C390 1.427 . S
N394 C391 1.384 . S
N395 C387 1.427 . S
N395 C393 1.384 . S
H396 C402 0.930 . S
H397 C406 0.930 . S
H398 C411 0.929 . S
H399 C409 0.929 . S
H400 C404 0.929 . S
H401 C410 0.929 . S
C402 H396 0.930 . S
C402 C403 1.367 . S
C402 C410 1.378 . S
C403 C402 1.367 . S
C403 C411 1.433 . S
C404 H400 0.929 . S
C404 C406 1.378 . S
C404 C408 1.350 . S
C405 C408 1.463 . S
C405 C410 1.350 . S
C405 N413 1.427 . S
C406 H397 0.930 . S
C406 C404 1.378 . S
C406 C407 1.367 . S
C407 C406 1.367 . S
C407 C409 1.433 . S
C408 C404 1.350 . S
C408 C405 1.463 . S
C408 N412 1.427 . S
C409 H399 0.929 . S
C409 C407 1.433 . S
C409 N412 1.384 . S
C410 H401 0.929 . S
C410 C402 1.378 . S
C410 C405 1.350 . S
C411 H398 0.929 . S
C411 C403 1.433 . S
C411 N413 1.384 . S
N412 C408 1.427 . S
N412 C409 1.384 . S
N413 C405 1.427 . S
N413 C411 1.384 . S
H414 C420 0.930 . S
H415 C424 0.930 . S
H416 C429 0.929 . S
H417 C427 0.929 . S
H418 C422 0.929 . S
H419 C428 0.929 . S
C420 H414 0.930 . S
C420 C421 1.367 . S
C420 C428 1.378 . S
C421 C420 1.367 . S
C421 C429 1.433 . S
C422 H418 0.929 . S
C422 C424 1.378 . S
C422 C426 1.350 . S
C423 C426 1.463 1_455 S
C423 C428 1.350 . S
C423 N431 1.427 . S
C424 H415 0.930 . S
C424 C422 1.378 . S
C424 C425 1.367 . S
C425 C424 1.367 . S
C425 C427 1.433 . S
C426 C422 1.350 . S
C426 C423 1.463 1_655 S
C426 N430 1.428 . S
C427 H417 0.929 . S
C427 C425 1.433 . S
C427 N430 1.386 . S
C428 H419 0.929 . S
C428 C420 1.378 . S
C428 C423 1.350 . S
C429 H416 0.929 . S
C429 C421 1.433 . S
C429 N431 1.384 . S
N430 C426 1.428 . S
N430 C427 1.386 . S
N431 C423 1.427 . S
N431 C429 1.384 . S
H432 C438 0.930 . S
H433 C442 0.930 . S
H434 C447 0.929 . S
H435 C445 0.929 . S
H436 C440 0.929 . S
H437 C446 0.929 . S
C438 H432 0.930 . S
C438 C439 1.367 . S
C438 C446 1.378 . S
C439 C438 1.367 . S
C439 C447 1.433 . S
C440 H436 0.929 . S
C440 C442 1.378 . S
C440 C444 1.350 . S
C441 C444 1.463 . S
C441 C446 1.350 . S
C441 N449 1.427 . S
C442 H433 0.930 . S
C442 C440 1.378 . S
C442 C443 1.367 . S
C443 C442 1.367 . S
C443 C445 1.433 . S
C444 C440 1.350 . S
C444 C441 1.463 . S
C444 N448 1.427 . S
C445 H435 0.929 . S
C445 C443 1.433 . S
C445 N448 1.384 . S
C446 H437 0.929 . S
C446 C438 1.378 . S
C446 C441 1.350 . S
C447 H434 0.929 . S
C447 C439 1.433 . S
C447 N449 1.384 . S
N448 C444 1.427 . S
N448 C445 1.384 . S
N449 C441 1.427 . S
N449 C447 1.384 . S
H450 C456 0.930 . S
H451 C460 0.930 . S
H452 C465 0.922 1_455 S
H453 C463 0.929 . S
H454 C458 0.944 . S
H455 C464 0.929 . S
C456 H450 0.930 . S
C456 C457 1.367 . S
C456 C464 1.378 . S
C457 C456 1.367 . S
C457 C465 1.439 . S
C458 H454 0.944 . S
C458 C460 1.378 . S
C458 C462 1.350 . S
C459 C462 1.463 . S
C459 C464 1.350 . S
C459 N467 1.427 . S
C460 H451 0.930 . S
C460 C458 1.378 . S
C460 C461 1.367 . S
C461 C460 1.367 . S
C461 C463 1.433 . S
C462 C458 1.350 . S
C462 C459 1.463 . S
C462 N466 1.427 . S
C463 H453 0.929 . S
C463 C461 1.433 . S
C463 N466 1.384 . S
C464 H455 0.929 . S
C464 C456 1.378 . S
C464 C459 1.350 . S
C465 H452 0.922 1_655 S
C465 C457 1.439 . S
C465 N467 1.385 . S
N466 C462 1.427 . S
N466 C463 1.384 . S
N467 C459 1.427 . S
N467 C465 1.385 . S
H468 C474 0.930 . S
H469 C478 0.930 . S
H470 C483 0.929 . S
H471 C481 0.929 . S
H472 C476 0.929 . S
H473 C482 0.929 . S
C474 H468 0.930 . S
C474 C475 1.367 . S
C474 C482 1.378 . S
C475 C474 1.367 . S
C475 C483 1.433 . S
C476 H472 0.929 . S
C476 C478 1.378 . S
C476 C480 1.350 1_554 S
C477 C480 1.463 1_455 S
C477 C482 1.350 . S
C477 N485 1.427 . S
C478 H469 0.930 . S
C478 C476 1.378 . S
C478 C479 1.367 . S
C479 C478 1.367 . S
C479 C481 1.433 . S
C480 C476 1.350 1_556 S
C480 C477 1.463 1_655 S
C480 N484 1.427 . S
C481 H471 0.929 . S
C481 C479 1.433 . S
C481 N484 1.384 1_554 S
C482 H473 0.929 . S
C482 C474 1.378 . S
C482 C477 1.350 . S
C483 H470 0.929 . S
C483 C475 1.433 . S
C483 N485 1.384 . S
N484 C480 1.427 . S
N484 C481 1.384 1_556 S
N485 C477 1.427 . S
N485 C483 1.384 . S
H486 C492 0.930 . S
H487 C496 0.930 . S
H488 C501 0.929 . S
H489 C499 0.929 . S
H490 C494 0.929 . S
H491 C500 0.929 . S
C492 H486 0.930 . S
C492 C493 1.367 . S
C492 C500 1.378 . S
C493 C492 1.367 . S
C493 C501 1.433 . S
C494 H490 0.929 . S
C494 C496 1.378 . S
C494 C498 1.350 . S
C495 C498 1.463 . S
C495 C500 1.350 . S
C495 N503 1.427 . S
C496 H487 0.930 . S
C496 C494 1.378 . S
C496 C497 1.367 . S
C497 C496 1.367 . S
C497 C499 1.433 . S
C498 C494 1.350 . S
C498 C495 1.463 . S
C498 N502 1.427 . S
C499 H489 0.929 . S
C499 C497 1.433 . S
C499 N502 1.384 . S
C500 H491 0.929 . S
C500 C492 1.378 . S
C500 C495 1.350 . S
C501 H488 0.929 . S
C501 C493 1.433 . S
C501 N503 1.384 . S
N502 C498 1.427 . S
N502 C499 1.384 . S
N503 C495 1.427 . S
N503 C501 1.384 . S
H504 C510 0.930 . S
H505 C514 0.930 . S
H506 C519 0.929 . S
H507 C517 0.929 . S
H508 C512 0.929 . S
H509 C518 0.929 . S
C510 H504 0.930 . S
C510 C511 1.367 . S
C510 C518 1.378 . S
C511 C510 1.367 . S
C511 C519 1.433 . S
C512 H508 0.929 . S
C512 C514 1.378 . S
C512 C516 1.350 . S
C513 C516 1.463 . S
C513 C518 1.350 . S
C513 N521 1.427 . S
C514 H505 0.930 . S
C514 C512 1.378 . S
C514 C515 1.367 . S
C515 C514 1.367 . S
C515 C517 1.433 . S
C516 C512 1.350 . S
C516 C513 1.463 . S
C516 N520 1.427 . S
C517 H507 0.929 . S
C517 C515 1.433 . S
C517 N520 1.384 . S
C518 H509 0.929 . S
C518 C510 1.378 . S
C518 C513 1.350 . S
C519 H506 0.929 . S
C519 C511 1.433 . S
C519 N521 1.384 . S
N520 C516 1.427 . S
N520 C517 1.384 . S
N521 C513 1.427 . S
N521 C519 1.384 . S
H522 C528 0.930 . S
H523 C532 0.930 . S
H524 C537 0.929 . S
H525 C535 0.929 . S
H526 C530 0.929 . S
H527 C536 0.929 . S
C528 H522 0.930 . S
C528 C529 1.367 . S
C528 C536 1.378 . S
C529 C528 1.367 . S
C529 C537 1.433 . S
C530 H526 0.929 . S
C530 C532 1.378 . S
C530 C534 1.350 . S
C531 C534 1.463 . S
C531 C536 1.350 . S
C531 N539 1.427 . S
C532 H523 0.930 . S
C532 C530 1.378 . S
C532 C533 1.367 . S
C533 C532 1.367 . S
C533 C535 1.433 . S
C534 C530 1.350 . S
C534 C531 1.463 . S
C534 N538 1.427 . S
C535 H525 0.929 . S
C535 C533 1.433 . S
C535 N538 1.384 . S
C536 H527 0.929 . S
C536 C528 1.378 . S
C536 C531 1.350 . S
C537 H524 0.929 . S
C537 C529 1.433 . S
C537 N539 1.384 . S
N538 C534 1.427 . S
N538 C535 1.384 . S
N539 C531 1.427 . S
N539 C537 1.384 . S
H540 C546 0.930 . S
H541 C550 0.930 . S
H542 C555 0.929 . S
H543 C553 0.929 . S
H544 C548 0.929 . S
H545 C554 0.929 . S
C546 H540 0.930 . S
C546 C547 1.367 . S
C546 C554 1.378 . S
C547 C546 1.367 . S
C547 C555 1.433 . S
C548 H544 0.929 . S
C548 C550 1.378 . S
C548 C552 1.350 . S
C549 C552 1.463 . S
C549 C554 1.350 . S
C549 N557 1.427 . S
C550 H541 0.930 . S
C550 C548 1.378 . S
C550 C551 1.367 . S
C551 C550 1.367 . S
C551 C553 1.433 . S
C552 C548 1.350 . S
C552 C549 1.463 . S
C552 N556 1.427 . S
C553 H543 0.929 . S
C553 C551 1.433 . S
C553 N556 1.384 . S
C554 H545 0.929 . S
C554 C546 1.378 . S
C554 C549 1.350 . S
C555 H542 0.929 . S
C555 C547 1.433 . S
C555 N557 1.384 . S
N556 C552 1.427 . S
N556 C553 1.384 . S
N557 C549 1.427 . S
N557 C555 1.384 . S
H558 C564 0.930 . S
H559 C568 0.930 . S
H560 C573 0.929 . S
H561 C571 0.929 . S
H562 C566 0.929 . S
H563 C572 0.929 . S
C564 H558 0.930 . S
C564 C565 1.367 . S
C564 C572 1.378 . S
C565 C564 1.367 . S
C565 C573 1.433 . S
C566 H562 0.929 . S
C566 C568 1.378 . S
C566 C570 1.350 1_565 S
C567 C570 1.463 . S
C567 C572 1.350 . S
C567 N575 1.427 . S
C568 H559 0.930 . S
C568 C566 1.378 . S
C568 C569 1.367 . S
C569 C568 1.367 . S
C569 C571 1.433 1_565 S
C570 C566 1.350 1_545 S
C570 C567 1.463 . S
C570 N574 1.427 . S
C571 H561 0.929 . S
C571 C569 1.433 1_545 S
C571 N574 1.384 . S
C572 H563 0.929 . S
C572 C564 1.378 . S
C572 C567 1.350 . S
C573 H560 0.929 . S
C573 C565 1.433 . S
C573 N575 1.384 . S
N574 C570 1.427 . S
N574 C571 1.384 . S
N575 C567 1.427 . S
N575 C573 1.384 . S
H576 C582 0.930 . S
H577 C586 0.930 . S
H578 C591 0.929 . S
H579 C589 0.929 . S
H580 C584 0.929 . S
H581 C590 0.929 . S
C582 H576 0.930 . S
C582 C583 1.367 . S
C582 C590 1.378 . S
C583 C582 1.367 . S
C583 C591 1.433 . S
C584 H580 0.929 . S
C584 C586 1.378 . S
C584 C588 1.350 . S
C585 C588 1.463 . S
C585 C590 1.350 . S
C585 N593 1.427 . S
C586 H577 0.930 . S
C586 C584 1.378 . S
C586 C587 1.367 . S
C587 C586 1.367 . S
C587 C589 1.433 . S
C588 C584 1.350 . S
C588 C585 1.463 . S
C588 N592 1.427 . S
C589 H579 0.929 . S
C589 C587 1.433 . S
C589 N592 1.384 . S
C590 H581 0.929 . S
C590 C582 1.378 . S
C590 C585 1.350 . S
C591 H578 0.929 . S
C591 C583 1.433 . S
C591 N593 1.384 . S
N592 C588 1.427 . S
N592 C589 1.384 . S
N593 C585 1.427 . S
N593 C591 1.384 . S
H594 C600 0.930 . S
H595 C604 0.930 . S
H596 C609 0.929 . S
H597 C607 0.929 . S
H598 C602 0.929 . S
H599 C608 0.929 . S
C600 H594 0.930 . S
C600 C601 1.367 . S
C600 C608 1.378 . S
C601 C600 1.367 . S
C601 C609 1.433 . S
C602 H598 0.929 . S
C602 C604 1.378 . S
C602 C606 1.350 . S
C603 C606 1.463 . S
C603 C608 1.350 . S
C603 N611 1.427 . S
C604 H595 0.930 . S
C604 C602 1.378 . S
C604 C605 1.367 . S
C605 C604 1.367 . S
C605 C607 1.433 . S
C606 C602 1.350 . S
C606 C603 1.463 . S
C606 N610 1.427 . S
C607 H597 0.929 . S
C607 C605 1.433 . S
C607 N610 1.384 . S
C608 H599 0.929 . S
C608 C600 1.378 . S
C608 C603 1.350 . S
C609 H596 0.929 . S
C609 C601 1.433 . S
C609 N611 1.384 . S
N610 C606 1.427 . S
N610 C607 1.384 . S
N611 C603 1.427 . S
N611 C609 1.384 . S
H612 C618 0.930 . S
H613 C622 0.930 . S
H614 C627 0.929 . S
H615 C625 0.929 . S
H616 C620 0.929 . S
H617 C626 0.929 . S
C618 H612 0.930 . S
C618 C619 1.367 . S
C618 C626 1.378 . S
C619 C618 1.367 . S
C619 C627 1.433 . S
C620 H616 0.929 . S
C620 C622 1.378 . S
C620 C624 1.350 1_565 S
C621 C624 1.463 . S
C621 C626 1.350 . S
C621 N629 1.427 . S
C622 H613 0.930 . S
C622 C620 1.378 . S
C622 C623 1.367 . S
C623 C622 1.367 . S
C623 C625 1.433 1_565 S
C624 C620 1.350 1_545 S
C624 C621 1.463 . S
C624 N628 1.427 . S
C625 H615 0.929 . S
C625 C623 1.433 1_545 S
C625 N628 1.384 . S
C626 H617 0.929 . S
C626 C618 1.378 . S
C626 C621 1.350 . S
C627 H614 0.929 . S
C627 C619 1.433 . S
C627 N629 1.384 . S
N628 C624 1.427 . S
N628 C625 1.384 . S
N629 C621 1.427 . S
N629 C627 1.384 . S
H630 C636 0.930 . S
H631 C640 0.930 . S
H632 C645 0.929 . S
H633 C643 0.929 . S
H634 C638 0.929 . S
H635 C644 0.929 . S
C636 H630 0.930 . S
C636 C637 1.367 . S
C636 C644 1.378 . S
C637 C636 1.367 . S
C637 C645 1.433 . S
C638 H634 0.929 . S
C638 C640 1.378 . S
C638 C642 1.350 . S
C639 C642 1.463 . S
C639 C644 1.350 . S
C639 N647 1.427 . S
C640 H631 0.930 . S
C640 C638 1.378 . S
C640 C641 1.367 . S
C641 C640 1.367 . S
C641 C643 1.433 . S
C642 C638 1.350 . S
C642 C639 1.463 . S
C642 N646 1.427 . S
C643 H633 0.929 . S
C643 C641 1.433 . S
C643 N646 1.384 . S
C644 H635 0.929 . S
C644 C636 1.378 . S
C644 C639 1.350 . S
C645 H632 0.929 . S
C645 C637 1.433 . S
C645 N647 1.384 . S
N646 C642 1.427 . S
N646 C643 1.384 . S
N647 C639 1.427 . S
N647 C645 1.384 . S
H648 C654 0.930 . S
H649 C658 0.930 . S
H650 C663 0.929 . S
H651 C661 0.929 . S
H652 C656 0.929 . S
H653 C662 0.929 . S
C654 H648 0.930 . S
C654 C655 1.367 . S
C654 C662 1.378 . S
C655 C654 1.367 . S
C655 C663 1.433 . S
C656 H652 0.929 . S
C656 C658 1.378 . S
C656 C660 1.350 . S
C657 C660 1.463 . S
C657 C662 1.350 . S
C657 N665 1.427 . S
C658 H649 0.930 . S
C658 C656 1.378 . S
C658 C659 1.367 . S
C659 C658 1.367 . S
C659 C661 1.433 . S
C660 C656 1.350 . S
C660 C657 1.463 . S
C660 N664 1.427 . S
C661 H651 0.929 . S
C661 C659 1.433 . S
C661 N664 1.384 . S
C662 H653 0.929 . S
C662 C654 1.378 . S
C662 C657 1.350 . S
C663 H650 0.929 . S
C663 C655 1.433 . S
C663 N665 1.384 . S
N664 C660 1.427 . S
N664 C661 1.384 . S
N665 C657 1.427 . S
N665 C663 1.384 . S
H666 C672 0.930 . S
H667 C676 0.930 . S
H668 C681 0.929 . S
H669 C679 0.929 . S
H670 C674 0.929 . S
H671 C680 0.929 . S
C672 H666 0.930 . S
C672 C673 1.367 . S
C672 C680 1.378 . S
C673 C672 1.367 . S
C673 C681 1.433 . S
C674 H670 0.929 . S
C674 C676 1.378 . S
C674 C678 1.350 . S
C675 C678 1.463 . S
C675 C680 1.350 . S
C675 N683 1.427 . S
C676 H667 0.930 . S
C676 C674 1.378 . S
C676 C677 1.367 . S
C677 C676 1.367 . S
C677 C679 1.433 . S
C678 C674 1.350 . S
C678 C675 1.463 . S
C678 N682 1.427 . S
C679 H669 0.929 . S
C679 C677 1.433 . S
C679 N682 1.384 . S
C680 H671 0.929 . S
C680 C672 1.378 . S
C680 C675 1.350 . S
C681 H668 0.929 . S
C681 C673 1.433 . S
C681 N683 1.384 . S
N682 C678 1.427 . S
N682 C679 1.384 . S
N683 C675 1.427 . S
N683 C681 1.384 . S
H684 C690 0.930 . S
H685 C694 0.930 . S
H686 C699 0.929 . S
H687 C697 0.929 . S
H688 C692 0.929 . S
H689 C698 0.929 . S
C690 H684 0.930 . S
C690 C691 1.367 . S
C690 C698 1.378 . S
C691 C690 1.367 . S
C691 C699 1.433 . S
C692 H688 0.929 . S
C692 C694 1.378 . S
C692 C696 1.350 . S
C693 C696 1.463 . S
C693 C698 1.350 . S
C693 N701 1.427 . S
C694 H685 0.930 . S
C694 C692 1.378 . S
C694 C695 1.367 . S
C695 C694 1.367 . S
C695 C697 1.433 . S
C696 C692 1.350 . S
C696 C693 1.463 . S
C696 N700 1.427 . S
C697 H687 0.929 . S
C697 C695 1.433 . S
C697 N700 1.384 . S
C698 H689 0.929 . S
C698 C690 1.378 . S
C698 C693 1.350 . S
C699 H686 0.929 . S
C699 C691 1.433 . S
C699 N701 1.384 . S
N700 C696 1.427 . S
N700 C697 1.384 . S
N701 C693 1.427 . S
N701 C699 1.384 . S
H702 C708 0.930 . S
H703 C712 0.930 . S
H704 C717 0.929 . S
H705 C715 0.929 . S
H706 C710 0.929 . S
H707 C716 0.929 . S
C708 H702 0.930 . S
C708 C709 1.367 . S
C708 C716 1.378 . S
C709 C708 1.367 . S
C709 C717 1.433 . S
C710 H706 0.929 . S
C710 C712 1.378 1_455 S
C710 C714 1.350 . S
C711 C714 1.463 . S
C711 C716 1.350 . S
C711 N719 1.427 . S
C712 H703 0.930 . S
C712 C710 1.378 1_655 S
C712 C713 1.367 . S
C713 C712 1.367 . S
C713 C715 1.433 1_655 S
C714 C710 1.350 . S
C714 C711 1.463 . S
C714 N718 1.427 . S
C715 H705 0.929 . S
C715 C713 1.433 1_455 S
C715 N718 1.384 . S
C716 H707 0.929 . S
C716 C708 1.378 . S
C716 C711 1.350 . S
C717 H704 0.929 . S
C717 C709 1.433 . S
C717 N719 1.384 . S
N718 C714 1.427 . S
N718 C715 1.384 . S
N719 C711 1.427 . S
N719 C717 1.384 . S
H720 C726 0.930 . S
H721 C730 0.930 . S
H722 C735 0.929 . S
H723 C733 0.929 . S
H724 C728 0.929 . S
H725 C734 0.929 . S
C726 H720 0.930 . S
C726 C727 1.367 . S
C726 C734 1.378 . S
C727 C726 1.367 . S
C727 C735 1.433 . S
C728 H724 0.929 . S
C728 C730 1.378 . S
C728 C732 1.350 . S
C729 C732 1.463 . S
C729 C734 1.350 . S
C729 N737 1.427 . S
C730 H721 0.930 . S
C730 C728 1.378 . S
C730 C731 1.367 . S
C731 C730 1.367 . S
C731 C733 1.433 . S
C732 C728 1.350 . S
C732 C729 1.463 . S
C732 N736 1.427 . S
C733 H723 0.929 . S
C733 C731 1.433 . S
C733 N736 1.384 . S
C734 H725 0.929 . S
C734 C726 1.378 . S
C734 C729 1.350 . S
C735 H722 0.929 . S
C735 C727 1.433 . S
C735 N737 1.384 . S
N736 C732 1.427 . S
N736 C733 1.384 . S
N737 C729 1.427 . S
N737 C735 1.384 . S
H738 C744 0.930 1_455 S
H739 C748 0.930 . S
H740 C753 0.929 . S
H741 C751 0.929 . S
H742 C746 0.929 . S
H743 C752 0.929 . S
C744 H738 0.930 1_655 S
C744 C745 1.367 . S
C744 C752 1.378 . S
C745 C744 1.367 . S
C745 C753 1.433 . S
C746 H742 0.929 . S
C746 C748 1.378 . S
C746 C750 1.350 . S
C747 C750 1.463 . S
C747 C752 1.350 . S
C747 N755 1.427 . S
C748 H739 0.930 . S
C748 C746 1.378 . S
C748 C749 1.367 . S
C749 C748 1.367 . S
C749 C751 1.433 . S
C750 C746 1.350 . S
C750 C747 1.463 . S
C750 N754 1.427 . S
C751 H741 0.929 . S
C751 C749 1.433 . S
C751 N754 1.384 . S
C752 H743 0.929 . S
C752 C744 1.378 . S
C752 C747 1.350 . S
C753 H740 0.929 . S
C753 C745 1.433 . S
C753 N755 1.384 . S
N754 C750 1.427 . S
N754 C751 1.384 . S
N755 C747 1.427 . S
N755 C753 1.384 . S
H756 C762 0.930 . S
H757 C766 0.930 . S
H758 C771 0.929 . S
H759 C769 0.929 . S
H760 C764 0.929 . S
H761 C770 0.929 . S
C762 H756 0.930 . S
C762 C763 1.367 . S
C762 C770 1.378 . S
C763 C762 1.367 . S
C763 C771 1.433 . S
C764 H760 0.929 . S
C764 C766 1.378 . S
C764 C768 1.350 . S
C765 C768 1.463 . S
C765 C770 1.350 . S
C765 N773 1.427 . S
C766 H757 0.930 . S
C766 C764 1.378 . S
C766 C767 1.367 . S
C767 C766 1.367 . S
C767 C769 1.433 . S
C768 C764 1.350 . S
C768 C765 1.463 . S
C768 N772 1.427 . S
C769 H759 0.929 . S
C769 C767 1.433 . S
C769 N772 1.384 . S
C770 H761 0.929 . S
C770 C762 1.378 . S
C770 C765 1.350 . S
C771 H758 0.929 . S
C771 C763 1.433 . S
C771 N773 1.384 . S
N772 C768 1.427 . S
N772 C769 1.384 . S
N773 C765 1.427 . S
N773 C771 1.384 . S
H774 C780 0.930 . S
H775 C784 0.930 . S
H776 C789 0.929 . S
H777 C787 0.929 . S
H778 C782 0.929 . S
H779 C788 0.929 . S
C780 H774 0.930 . S
C780 C781 1.367 . S
C780 C788 1.378 . S
C781 C780 1.367 . S
C781 C789 1.433 . S
C782 H778 0.929 . S
C782 C784 1.378 . S
C782 C786 1.350 . S
C783 C786 1.463 . S
C783 C788 1.350 . S
C783 N791 1.427 . S
C784 H775 0.930 . S
C784 C782 1.378 . S
C784 C785 1.367 . S
C785 C784 1.367 . S
C785 C787 1.433 . S
C786 C782 1.350 . S
C786 C783 1.463 . S
C786 N790 1.427 . S
C787 H777 0.929 . S
C787 C785 1.433 . S
C787 N790 1.384 . S
C788 H779 0.929 . S
C788 C780 1.378 . S
C788 C783 1.350 . S
C789 H776 0.929 . S
C789 C781 1.433 . S
C789 N791 1.384 . S
N790 C786 1.427 . S
N790 C787 1.384 . S
N791 C783 1.427 . S
N791 C789 1.384 . S
C227 C129 1.244 . S
C223 C5 1.245 . S
C245 C143 1.279 . S
C241 C18 1.293 . S
C263 C151 1.272 . S
C259 C31 1.286 . S
C277 C42 1.163 . S
C281 C109 1.204 . S
C295 C57 1.404 . S
C299 C115 1.413 1_556 S
C313 C70 1.457 . S
C317 C123 1.481 . S
C335 C137 1.497 . S
C331 C81 1.507 . S
C353 C157 1.463 . S
C349 C96 1.426 . S
C367 C29 1.426 . S
C371 C185 1.427 . S
C389 C199 1.456 . S
C385 C44 1.429 . S
C403 C3 1.465 . S
C407 C207 1.462 . S
C425 C171 1.447 . S
C421 C16 1.457 . S
C439 C83 1.247 . S
C443 C165 1.231 . S
C457 C94 1.209 . S
C461 C179 1.256 . S
C479 C193 1.284 . S
C475 C55 1.243 . S
C493 C68 1.262 . S
C497 C213 1.315 . S
C515 C132 1.346 . S
C511 C1 1.386 . S
C533 C155 1.360 . S
C529 C14 1.386 . S
C547 C27 1.355 . S
C551 C113 1.329 . S
C565 C49 1.356 . S
C569 C118 1.307 . S
C583 C53 1.640 . S
C587 C146 1.658 . S
C605 C104 1.675 . S
C601 C66 1.646 . S
C623 C127 1.695 . S
C619 C88 1.709 . S
C641 C141 1.691 . S
C637 C92 1.635 . S
C659 C188 1.663 . S
C655 C36 1.706 . S
C677 C211 1.676 . S
C673 C40 1.625 . S
C691 C10 1.693 . S
C695 C160 1.645 . S
C713 C174 1.662 . S
C709 C23 1.704 . S
C731 C202 1.328 . S
C727 C79 1.383 . S
C745 C101 1.357 . S
C749 C169 1.349 . S
C767 C183 1.351 1_455 S
C763 C62 1.358 . S
C785 C197 1.400 . S
C781 C75 1.399 . S
