# Generated by pormake.
# Topology iac, (4,6)-cn, num edge types: 1
# Building blocks:
#     Node 0, Type 0, BuildingBlock: NAHDIM_clean_sbu_0, # of connection points: 4
#     Node 1, Type 0, BuildingBlock: NAHDIM_clean_sbu_0, # of connection points: 4
#     Node 2, Type 0, BuildingBlock: NAHDIM_clean_sbu_0, # of connection points: 4
#     Node 3, Type 0, BuildingBlock: NAHDIM_clean_sbu_0, # of connection points: 4
#     Node 4, Type 0, BuildingBlock: NAHDIM_clean_sbu_0, # of connection points: 4
#     Node 5, Type 0, BuildingBlock: NAHDIM_clean_sbu_0, # of connection points: 4
#     Node 6, Type 0, BuildingBlock: NAHDIM_clean_sbu_0, # of connection points: 4
#     Node 7, Type 0, BuildingBlock: NAHDIM_clean_sbu_0, # of connection points: 4
#     Node 8, Type 0, BuildingBlock: NAHDIM_clean_sbu_0, # of connection points: 4
#     Node 9, Type 0, BuildingBlock: NAHDIM_clean_sbu_0, # of connection points: 4
#     Node 10, Type 0, BuildingBlock: NAHDIM_clean_sbu_0, # of connection points: 4
#     Node 11, Type 0, BuildingBlock: NAHDIM_clean_sbu_0, # of connection points: 4
#     Node 12, Type 0, BuildingBlock: NAHDIM_clean_sbu_0, # of connection points: 4
#     Node 13, Type 0, BuildingBlock: NAHDIM_clean_sbu_0, # of connection points: 4
#     Node 14, Type 0, BuildingBlock: NAHDIM_clean_sbu_0, # of connection points: 4
#     Node 15, Type 0, BuildingBlock: NAHDIM_clean_sbu_0, # of connection points: 4
#     Node 16, Type 0, BuildingBlock: NAHDIM_clean_sbu_0, # of connection points: 4
#     Node 17, Type 0, BuildingBlock: NAHDIM_clean_sbu_0, # of connection points: 4
#     Node 18, Type 0, BuildingBlock: NAHDIM_clean_sbu_0, # of connection points: 4
#     Node 19, Type 0, BuildingBlock: NAHDIM_clean_sbu_0, # of connection points: 4
#     Node 20, Type 0, BuildingBlock: NAHDIM_clean_sbu_0, # of connection points: 4
#     Node 21, Type 0, BuildingBlock: NAHDIM_clean_sbu_0, # of connection points: 4
#     Node 22, Type 0, BuildingBlock: NAHDIM_clean_sbu_0, # of connection points: 4
#     Node 23, Type 0, BuildingBlock: NAHDIM_clean_sbu_0, # of connection points: 4
#     Node 24, Type 1, BuildingBlock: JUFBIX_clean_sbu_0, # of connection points: 6
#     Node 25, Type 1, BuildingBlock: JUFBIX_clean_sbu_0, # of connection points: 6
#     Node 26, Type 1, BuildingBlock: JUFBIX_clean_sbu_0, # of connection points: 6
#     Node 27, Type 1, BuildingBlock: JUFBIX_clean_sbu_0, # of connection points: 6
#     Node 28, Type 1, BuildingBlock: JUFBIX_clean_sbu_0, # of connection points: 6
#     Node 29, Type 1, BuildingBlock: JUFBIX_clean_sbu_0, # of connection points: 6
#     Node 30, Type 1, BuildingBlock: JUFBIX_clean_sbu_0, # of connection points: 6
#     Node 31, Type 1, BuildingBlock: JUFBIX_clean_sbu_0, # of connection points: 6
#     Node 32, Type 1, BuildingBlock: JUFBIX_clean_sbu_0, # of connection points: 6
#     Node 33, Type 1, BuildingBlock: JUFBIX_clean_sbu_0, # of connection points: 6
#     Node 34, Type 1, BuildingBlock: JUFBIX_clean_sbu_0, # of connection points: 6
#     Node 35, Type 1, BuildingBlock: JUFBIX_clean_sbu_0, # of connection points: 6
#     Node 36, Type 1, BuildingBlock: JUFBIX_clean_sbu_0, # of connection points: 6
#     Node 37, Type 1, BuildingBlock: JUFBIX_clean_sbu_0, # of connection points: 6
#     Node 38, Type 1, BuildingBlock: JUFBIX_clean_sbu_0, # of connection points: 6
#     Node 39, Type 1, BuildingBlock: JUFBIX_clean_sbu_0, # of connection points: 6
#     Edge 40, Type (0, 1), BuildingBlock: XIVTED_clean_linker_0, # of connection points: 2
#     Edge 41, Type (0, 1), BuildingBlock: XIVTED_clean_linker_0, # of connection points: 2
#     Edge 42, Type (0, 1), BuildingBlock: XIVTED_clean_linker_0, # of connection points: 2
#     Edge 43, Type (0, 1), BuildingBlock: XIVTED_clean_linker_0, # of connection points: 2
#     Edge 44, Type (0, 1), BuildingBlock: XIVTED_clean_linker_0, # of connection points: 2
#     Edge 45, Type (0, 1), BuildingBlock: XIVTED_clean_linker_0, # of connection points: 2
#     Edge 46, Type (0, 1), BuildingBlock: XIVTED_clean_linker_0, # of connection points: 2
#     Edge 47, Type (0, 1), BuildingBlock: XIVTED_clean_linker_0, # of connection points: 2
#     Edge 48, Type (0, 1), BuildingBlock: XIVTED_clean_linker_0, # of connection points: 2
#     Edge 49, Type (0, 1), BuildingBlock: XIVTED_clean_linker_0, # of connection points: 2
#     Edge 50, Type (0, 1), BuildingBlock: XIVTED_clean_linker_0, # of connection points: 2
#     Edge 51, Type (0, 1), BuildingBlock: XIVTED_clean_linker_0, # of connection points: 2
#     Edge 52, Type (0, 1), BuildingBlock: XIVTED_clean_linker_0, # of connection points: 2
#     Edge 53, Type (0, 1), BuildingBlock: XIVTED_clean_linker_0, # of connection points: 2
#     Edge 54, Type (0, 1), BuildingBlock: XIVTED_clean_linker_0, # of connection points: 2
#     Edge 55, Type (0, 1), BuildingBlock: XIVTED_clean_linker_0, # of connection points: 2
#     Edge 56, Type (0, 1), BuildingBlock: XIVTED_clean_linker_0, # of connection points: 2
#     Edge 57, Type (0, 1), BuildingBlock: XIVTED_clean_linker_0, # of connection points: 2
#     Edge 58, Type (0, 1), BuildingBlock: XIVTED_clean_linker_0, # of connection points: 2
#     Edge 59, Type (0, 1), BuildingBlock: XIVTED_clean_linker_0, # of connection points: 2
#     Edge 60, Type (0, 1), BuildingBlock: XIVTED_clean_linker_0, # of connection points: 2
#     Edge 61, Type (0, 1), BuildingBlock: XIVTED_clean_linker_0, # of connection points: 2
#     Edge 62, Type (0, 1), BuildingBlock: XIVTED_clean_linker_0, # of connection points: 2
#     Edge 63, Type (0, 1), BuildingBlock: XIVTED_clean_linker_0, # of connection points: 2
#     Edge 64, Type (0, 1), BuildingBlock: XIVTED_clean_linker_0, # of connection points: 2
#     Edge 65, Type (0, 1), BuildingBlock: XIVTED_clean_linker_0, # of connection points: 2
#     Edge 66, Type (0, 1), BuildingBlock: XIVTED_clean_linker_0, # of connection points: 2
#     Edge 67, Type (0, 1), BuildingBlock: XIVTED_clean_linker_0, # of connection points: 2
#     Edge 68, Type (0, 1), BuildingBlock: XIVTED_clean_linker_0, # of connection points: 2
#     Edge 69, Type (0, 1), BuildingBlock: XIVTED_clean_linker_0, # of connection points: 2
#     Edge 70, Type (0, 1), BuildingBlock: XIVTED_clean_linker_0, # of connection points: 2
#     Edge 71, Type (0, 1), BuildingBlock: XIVTED_clean_linker_0, # of connection points: 2
#     Edge 72, Type (0, 1), BuildingBlock: XIVTED_clean_linker_0, # of connection points: 2
#     Edge 73, Type (0, 1), BuildingBlock: XIVTED_clean_linker_0, # of connection points: 2
#     Edge 74, Type (0, 1), BuildingBlock: XIVTED_clean_linker_0, # of connection points: 2
#     Edge 75, Type (0, 1), BuildingBlock: XIVTED_clean_linker_0, # of connection points: 2
#     Edge 76, Type (0, 1), BuildingBlock: XIVTED_clean_linker_0, # of connection points: 2
#     Edge 77, Type (0, 1), BuildingBlock: XIVTED_clean_linker_0, # of connection points: 2
#     Edge 78, Type (0, 1), BuildingBlock: XIVTED_clean_linker_0, # of connection points: 2
#     Edge 79, Type (0, 1), BuildingBlock: XIVTED_clean_linker_0, # of connection points: 2
#     Edge 80, Type (0, 1), BuildingBlock: XIVTED_clean_linker_0, # of connection points: 2
#     Edge 81, Type (0, 1), BuildingBlock: XIVTED_clean_linker_0, # of connection points: 2
#     Edge 82, Type (0, 1), BuildingBlock: XIVTED_clean_linker_0, # of connection points: 2
#     Edge 83, Type (0, 1), BuildingBlock: XIVTED_clean_linker_0, # of connection points: 2
#     Edge 84, Type (0, 1), BuildingBlock: XIVTED_clean_linker_0, # of connection points: 2
#     Edge 85, Type (0, 1), BuildingBlock: XIVTED_clean_linker_0, # of connection points: 2
#     Edge 86, Type (0, 1), BuildingBlock: XIVTED_clean_linker_0, # of connection points: 2
#     Edge 87, Type (0, 1), BuildingBlock: XIVTED_clean_linker_0, # of connection points: 2
#     Edge 88, Type (0, 1), BuildingBlock: XIVTED_clean_linker_0, # of connection points: 2
#     Edge 89, Type (0, 1), BuildingBlock: XIVTED_clean_linker_0, # of connection points: 2
#     Edge 90, Type (0, 1), BuildingBlock: XIVTED_clean_linker_0, # of connection points: 2
#     Edge 91, Type (0, 1), BuildingBlock: XIVTED_clean_linker_0, # of connection points: 2
#     Edge 92, Type (0, 1), BuildingBlock: XIVTED_clean_linker_0, # of connection points: 2
#     Edge 93, Type (0, 1), BuildingBlock: XIVTED_clean_linker_0, # of connection points: 2
#     Edge 94, Type (0, 1), BuildingBlock: XIVTED_clean_linker_0, # of connection points: 2
#     Edge 95, Type (0, 1), BuildingBlock: XIVTED_clean_linker_0, # of connection points: 2
#     Edge 96, Type (0, 1), BuildingBlock: XIVTED_clean_linker_0, # of connection points: 2
#     Edge 97, Type (0, 1), BuildingBlock: XIVTED_clean_linker_0, # of connection points: 2
#     Edge 98, Type (0, 1), BuildingBlock: XIVTED_clean_linker_0, # of connection points: 2
#     Edge 99, Type (0, 1), BuildingBlock: XIVTED_clean_linker_0, # of connection points: 2
#     Edge 100, Type (0, 1), BuildingBlock: XIVTED_clean_linker_0, # of connection points: 2
#     Edge 101, Type (0, 1), BuildingBlock: XIVTED_clean_linker_0, # of connection points: 2
#     Edge 102, Type (0, 1), BuildingBlock: XIVTED_clean_linker_0, # of connection points: 2
#     Edge 103, Type (0, 1), BuildingBlock: XIVTED_clean_linker_0, # of connection points: 2
#     Edge 104, Type (0, 1), BuildingBlock: XIVTED_clean_linker_0, # of connection points: 2
#     Edge 105, Type (0, 1), BuildingBlock: XIVTED_clean_linker_0, # of connection points: 2
#     Edge 106, Type (0, 1), BuildingBlock: XIVTED_clean_linker_0, # of connection points: 2
#     Edge 107, Type (0, 1), BuildingBlock: XIVTED_clean_linker_0, # of connection points: 2
#     Edge 108, Type (0, 1), BuildingBlock: XIVTED_clean_linker_0, # of connection points: 2
#     Edge 109, Type (0, 1), BuildingBlock: XIVTED_clean_linker_0, # of connection points: 2
#     Edge 110, Type (0, 1), BuildingBlock: XIVTED_clean_linker_0, # of connection points: 2
#     Edge 111, Type (0, 1), BuildingBlock: XIVTED_clean_linker_0, # of connection points: 2
#     Edge 112, Type (0, 1), BuildingBlock: XIVTED_clean_linker_0, # of connection points: 2
#     Edge 113, Type (0, 1), BuildingBlock: XIVTED_clean_linker_0, # of connection points: 2
#     Edge 114, Type (0, 1), BuildingBlock: XIVTED_clean_linker_0, # of connection points: 2
#     Edge 115, Type (0, 1), BuildingBlock: XIVTED_clean_linker_0, # of connection points: 2
#     Edge 116, Type (0, 1), BuildingBlock: XIVTED_clean_linker_0, # of connection points: 2
#     Edge 117, Type (0, 1), BuildingBlock: XIVTED_clean_linker_0, # of connection points: 2
#     Edge 118, Type (0, 1), BuildingBlock: XIVTED_clean_linker_0, # of connection points: 2
#     Edge 119, Type (0, 1), BuildingBlock: XIVTED_clean_linker_0, # of connection points: 2
#     Edge 120, Type (0, 1), BuildingBlock: XIVTED_clean_linker_0, # of connection points: 2
#     Edge 121, Type (0, 1), BuildingBlock: XIVTED_clean_linker_0, # of connection points: 2
#     Edge 122, Type (0, 1), BuildingBlock: XIVTED_clean_linker_0, # of connection points: 2
#     Edge 123, Type (0, 1), BuildingBlock: XIVTED_clean_linker_0, # of connection points: 2
#     Edge 124, Type (0, 1), BuildingBlock: XIVTED_clean_linker_0, # of connection points: 2
#     Edge 125, Type (0, 1), BuildingBlock: XIVTED_clean_linker_0, # of connection points: 2
#     Edge 126, Type (0, 1), BuildingBlock: XIVTED_clean_linker_0, # of connection points: 2
#     Edge 127, Type (0, 1), BuildingBlock: XIVTED_clean_linker_0, # of connection points: 2
#     Edge 128, Type (0, 1), BuildingBlock: XIVTED_clean_linker_0, # of connection points: 2
#     Edge 129, Type (0, 1), BuildingBlock: XIVTED_clean_linker_0, # of connection points: 2
#     Edge 130, Type (0, 1), BuildingBlock: XIVTED_clean_linker_0, # of connection points: 2
#     Edge 131, Type (0, 1), BuildingBlock: XIVTED_clean_linker_0, # of connection points: 2
#     Edge 132, Type (0, 1), BuildingBlock: XIVTED_clean_linker_0, # of connection points: 2
#     Edge 133, Type (0, 1), BuildingBlock: XIVTED_clean_linker_0, # of connection points: 2
#     Edge 134, Type (0, 1), BuildingBlock: XIVTED_clean_linker_0, # of connection points: 2
#     Edge 135, Type (0, 1), BuildingBlock: XIVTED_clean_linker_0, # of connection points: 2
# Relax obj value: 0.247
# Max RMSD: 0.238
# Mean RMSD: 0.154
data_MOF--net-iac--node1-NAHDIM_clean_sbu_0--node2-JUFBIX_clean_sbu_0--edge1-XIVTED_clean_linker_0
_symmetry_space_group_name_H-M    P1
_symmetry_Int_Tables_number       1
_symmetry_cell_setting            triclinic
loop_
_symmetry_equiv_pos_as_xyz
'x, y, z'
_cell_length_a     55.739035
_cell_length_b     55.614956
_cell_length_c     53.88125
_cell_angle_alpha  89.066142
_cell_angle_beta   88.322371
_cell_angle_gamma 89.084853
loop_
_atom_site_label
_atom_site_type_symbol
_atom_site_fract_x
_atom_site_fract_y
_atom_site_fract_z
_atom_type_partial_charge
C0 C 0.97182 0.27728 0.17162 0.0
O1 O 0.97416 0.26439 0.15147 0.0
O2 O 0.02369 0.25065 0.14256 0.0
Zn3 Zn 0.02308 0.28374 0.16028 0.0
O4 O 0.02752 0.31351 0.13674 0.0
C5 C 0.06492 0.30096 0.18741 0.0
O6 O 0.05925 0.3214 0.17634 0.0
O7 O 0.99037 0.28752 0.17961 0.0
C8 C 0.01033 0.32454 0.12603 0.0
O9 O 0.98866 0.31567 0.12826 0.0
C10 C 0.01854 0.24616 0.12019 0.0
O11 O 0.01254 0.26412 0.10537 0.0
O12 O 0.05176 0.28275 0.18416 0.0
C13 C 0.07553 0.72559 0.36018 0.0
O14 O 0.06291 0.71068 0.37423 0.0
O15 O 0.0345 0.73525 0.40692 0.0
Zn16 Zn 0.04469 0.76113 0.38311 0.0
O17 O 0.05395 0.79019 0.40174 0.0
C18 C 0.01202 0.76613 0.34162 0.0
O19 O 0.025 0.74947 0.33029 0.0
O20 O 0.07106 0.74809 0.36084 0.0
C21 C 0.03835 0.7962 0.41825 0.0
O22 O 0.01994 0.78213 0.42266 0.0
C23 C 0.0475 0.73041 0.42535 0.0
O24 O 0.06627 0.74369 0.42923 0.0
O25 O 0.01714 0.77239 0.36333 0.0
C26 C 0.4707 0.78202 0.67193 0.0
O27 O 0.47228 0.77508 0.64874 0.0
O28 O 0.52264 0.75104 0.64464 0.0
Zn29 Zn 0.52172 0.78462 0.66159 0.0
O30 O 0.52167 0.81375 0.63683 0.0
C31 C 0.56095 0.77081 0.69666 0.0
O32 O 0.54987 0.75015 0.69849 0.0
O33 O 0.49002 0.78728 0.68264 0.0
C34 C 0.52919 0.83367 0.6449 0.0
O35 O 0.53681 0.83417 0.66773 0.0
C36 C 0.51696 0.74672 0.62237 0.0
O37 O 0.51053 0.76483 0.60795 0.0
O38 O 0.5521 0.78746 0.68295 0.0
C39 C 0.59367 0.25499 0.89943 0.0
O40 O 0.58808 0.25515 0.92327 0.0
O41 O 0.53247 0.24419 0.91357 0.0
Zn42 Zn 0.54593 0.2729 0.89572 0.0
O43 O 0.54538 0.30162 0.91743 0.0
C44 C 0.5178 0.26829 0.85119 0.0
O45 O 0.52379 0.24535 0.85192 0.0
O46 O 0.57878 0.26331 0.88397 0.0
C47 C 0.52438 0.30829 0.92441 0.0
O48 O 0.50606 0.29511 0.91861 0.0
C49 C 0.53386 0.24202 0.93696 0.0
O50 O 0.54199 0.25996 0.94968 0.0
O51 O 0.52575 0.28224 0.86728 0.0
C52 C 0.18158 0.94578 0.31692 0.0
O53 O 0.15941 0.95317 0.32148 0.0
O54 O 0.17534 0.98366 0.25137 0.0
Zn55 Zn 0.18351 0.98903 0.28676 0.0
O56 O 0.15254 -0.00023 0.30283 0.0
C57 C 0.21158 0.03034 0.27248 0.0
O58 O 0.2034 0.0262 0.25036 0.0
O59 O 0.19537 0.95844 0.30297 0.0
C60 C 0.14272 0.01947 0.29602 0.0
O61 O 0.1535 0.03307 0.2791 0.0
C62 C 0.15897 0.96844 0.24837 0.0
O63 O 0.15133 0.95562 0.26762 0.0
O64 O 0.20653 0.01591 0.2903 0.0
C65 C 0.22697 0.9273 0.49695 0.0
O66 O 0.24535 0.93603 0.50837 0.0
O67 O 0.24128 0.87795 0.54581 0.0
Zn68 Zn 0.25022 0.8834 0.51012 0.0
O69 O 0.25213 0.85158 0.49355 0.0
C70 C 0.29294 0.90665 0.5257 0.0
O71 O 0.28339 0.90277 0.54794 0.0
O72 O 0.22524 0.90467 0.49496 0.0
C73 C 0.26912 0.83701 0.4987 0.0
O74 O 0.28526 0.84334 0.51454 0.0
C75 C 0.22529 0.86297 0.55237 0.0
O76 O 0.21411 0.85123 0.5353 0.0
O77 O 0.28216 0.89949 0.5068 0.0
C78 C 0.37416 0.09865 0.75812 0.0
O79 O 0.39591 0.09215 0.76446 0.0
O80 O 0.38198 0.03573 0.74462 0.0
Zn81 Zn 0.36299 0.05062 0.77236 0.0
O82 O 0.38125 0.04922 0.80356 0.0
C83 C 0.31895 0.02926 0.75954 0.0
O84 O 0.32539 0.03664 0.73706 0.0
O85 O 0.35696 0.08413 0.76128 0.0
C86 C 0.38558 0.02856 0.8129 0.0
O87 O 0.37748 0.00946 0.80202 0.0
C88 C 0.40474 0.03606 0.74436 0.0
O89 O 0.4157 0.04337 0.76406 0.0
O90 O 0.33218 0.03378 0.77759 0.0
C91 C 0.31683 0.13959 0.04423 0.0
O92 O 0.31594 0.16108 0.05398 0.0
O93 O 0.26602 0.17165 0.06638 0.0
Zn94 Zn 0.26849 0.15409 0.033 0.0
O95 O 0.27254 0.177 0.00287 0.0
C96 C 0.22969 0.11886 0.04347 0.0
O97 O 0.24195 0.11348 0.06332 0.0
O98 O 0.29826 0.13192 0.03377 0.0
C99 C 0.26897 0.16795 0.98173 0.0
O100 O 0.26302 0.14521 0.98089 0.0
C101 C 0.27258 0.19317 0.06981 0.0
O102 O 0.28053 0.20598 0.05067 0.0
O103 O 0.23763 0.13496 0.02841 0.0
C104 C 0.70471 0.42837 0.00477 0.0
O105 O 0.70511 0.40545 -0.00075 0.0
O106 O 0.72897 0.40379 0.07121 0.0
Zn107 Zn 0.74204 0.41475 0.03829 0.0
O108 O 0.75145 0.38651 0.01726 0.0
C109 C 0.79124 0.42211 0.04674 0.0
O110 O 0.79124 0.39853 0.04858 0.0
O111 O 0.71864 0.43597 0.02102 0.0
C112 C 0.76578 0.39029 -0.0011 0.0
O113 O 0.77247 0.41239 0.99366 0.0
C114 C 0.71731 0.38447 0.0739 0.0
O115 O 0.71276 0.37177 0.05428 0.0
O116 O 0.77163 0.43346 0.04344 0.0
C117 C 0.87587 0.60198 0.25068 0.0
O118 O 0.89873 0.59623 0.25213 0.0
O119 O 0.88673 0.53979 0.23856 0.0
Zn120 Zn 0.86793 0.55347 0.26712 0.0
O121 O 0.88702 0.55128 0.29774 0.0
C122 C 0.82345 0.53068 0.25635 0.0
O123 O 0.82831 0.53753 0.23333 0.0
O124 O 0.86 0.58694 0.25746 0.0
C125 C 0.89134 0.53008 0.30566 0.0
O126 O 0.88273 0.51179 0.29381 0.0
C127 C 0.90949 0.54024 0.23842 0.0
O128 O 0.92034 0.54743 0.25823 0.0
O129 O 0.83779 0.53574 0.27327 0.0
C130 C 0.80716 0.61745 0.52821 0.0
O131 O 0.79235 0.6081 0.51263 0.0
O132 O 0.76671 0.67621 0.56737 0.0
Zn133 Zn 0.76928 0.65521 0.53647 0.0
O134 O 0.77178 0.67597 0.50449 0.0
C135 C 0.72072 0.64056 0.52559 0.0
O136 O 0.72 0.66262 0.51652 0.0
O137 O 0.80078 0.63634 0.53983 0.0
C138 C 0.7687 0.66633 0.48353 0.0
O139 O 0.76371 0.64334 0.48303 0.0
C140 C 0.76798 0.66567 0.5885 0.0
O141 O 0.76957 0.64207 0.58928 0.0
O142 O 0.74001 0.63295 0.53543 0.0
C143 C 0.69526 0.45934 0.82238 0.0
O144 O 0.70687 0.47669 0.83284 0.0
O145 O 0.66433 0.4959 0.75803 0.0
Zn146 Zn 0.66963 0.49709 0.79442 0.0
O147 O 0.63769 0.50622 0.80925 0.0
C148 C 0.70607 0.53291 0.7868 0.0
O149 O 0.70625 0.52553 0.76376 0.0
O150 O 0.67952 0.46446 0.80651 0.0
C151 C 0.6286 0.52628 0.80246 0.0
O152 O 0.64076 0.54023 0.7869 0.0
C153 C 0.65015 0.47941 0.75223 0.0
O154 O 0.64267 0.46419 0.76959 0.0
O155 O 0.69268 0.52255 0.80299 0.0
C156 C 0.05502 0.76914 0.87246 0.0
O157 O 0.04517 0.74814 0.87691 0.0
O158 O 0.01859 0.75562 0.92805 0.0
Zn159 Zn 0.01593 0.78698 0.90647 0.0
O160 O 0.0174 0.81761 0.9281 0.0
C161 C 0.97492 0.77003 0.87698 0.0
O162 O 0.98608 0.74911 0.87871 0.0
O163 O 0.04544 0.78778 0.88237 0.0
C164 C 0.01917 0.83808 0.91714 0.0
O165 O 0.01965 0.83873 0.89274 0.0
C166 C 0.00084 0.74431 0.93782 0.0
O167 O 0.97909 0.75321 0.93502 0.0
O168 O 0.9842 0.78825 0.88691 0.0
C169 C 0.95524 0.2936 0.66466 0.0
O170 O 0.95486 0.30261 0.64198 0.0
O171 O 0.01024 0.26281 0.62809 0.0
Zn172 Zn 0.0052 0.2883 0.65331 0.0
O173 O 0.00476 0.32024 0.63669 0.0
C174 C 0.03725 0.26552 0.68555 0.0
O175 O 0.0242 0.24704 0.67985 0.0
O176 O 0.97473 0.28502 0.67291 0.0
C177 C 0.00117 0.33892 0.64954 0.0
O178 O 0.9987 0.33681 0.67381 0.0
C179 C 0.02613 0.26645 0.6111 0.0
O180 O 0.03731 0.28707 0.6101 0.0
O181 O 0.03225 0.28609 0.67639 0.0
C182 C 0.56461 0.2911 0.3919 0.0
O183 O 0.56573 0.29931 0.41456 0.0
O184 O 0.51506 0.25711 0.43092 0.0
Zn185 Zn 0.51451 0.28766 0.40789 0.0
O186 O 0.51703 0.3193 0.42794 0.0
C187 C 0.47463 0.27177 0.37633 0.0
O188 O 0.48616 0.25099 0.377 0.0
O189 O 0.54423 0.28494 0.38415 0.0
C190 C 0.5176 0.33959 0.41645 0.0
O191 O 0.51637 0.33977 0.39213 0.0
C192 C 0.49658 0.24558 0.43865 0.0
O193 O 0.47523 0.25391 0.43289 0.0
O194 O 0.48327 0.28949 0.38771 0.0
C195 C 0.45001 0.80531 0.17174 0.0
O196 O 0.45143 0.81876 0.1515 0.0
O197 O 0.50492 0.76984 0.13414 0.0
Zn198 Zn 0.49936 0.7951 0.15968 0.0
O199 O 0.50121 0.82724 0.14349 0.0
C200 C 0.52886 0.77061 0.19322 0.0
O201 O 0.51562 0.75267 0.18639 0.0
O202 O 0.46797 0.79251 0.17797 0.0
C203 C 0.50086 0.84623 0.1562 0.0
O204 O 0.49994 0.84456 0.18056 0.0
C205 C 0.52071 0.77388 0.11714 0.0
O206 O 0.53152 0.7947 0.11626 0.0
O207 O 0.52504 0.79147 0.18416 0.0
C208 C 0.92042 0.08991 0.73042 0.0
O209 O 0.94197 0.0897 0.73967 0.0
O210 O 0.95616 0.03591 0.69841 0.0
Zn211 Zn 0.93168 0.04026 0.72568 0.0
O212 O 0.94733 0.04138 0.75851 0.0
C213 C 0.91522 0.99252 0.73475 0.0
O214 O 0.93679 0.98958 0.74364 0.0
O215 O 0.91245 0.07068 0.72161 0.0
C216 C 0.93378 0.04126 0.77786 0.0
O217 O 0.91049 0.03936 0.77553 0.0
C218 C 0.97568 0.04736 0.69663 0.0
O219 O 0.98043 0.06351 0.71324 0.0
O220 O 0.90909 0.01286 0.72577 0.0
C221 C 0.84288 0.15219 0.52467 0.0
O222 O 0.84177 0.17542 0.52866 0.0
O223 O 0.78949 0.18537 0.54128 0.0
Zn224 Zn 0.79295 0.15914 0.51653 0.0
O225 O 0.79263 0.17285 0.48218 0.0
C226 C 0.75946 0.13092 0.54408 0.0
O227 O 0.77253 0.13805 0.56241 0.0
O228 O 0.8238 0.14111 0.52018 0.0
C229 C 0.80281 0.19267 0.47715 0.0
O230 O 0.81275 0.20447 0.49499 0.0
C231 C 0.76938 0.19631 0.54337 0.0
O232 O 0.75212 0.19083 0.52846 0.0
O233 O 0.76531 0.13714 0.52197 0.0
C234 C 0.66774 0.9722 0.32087 0.0
O235 O 0.6449 0.97839 0.32135 0.0
O236 O 0.65647 0.03001 0.28194 0.0
Zn237 Zn 0.67554 0.02262 0.3121 0.0
O238 O 0.65649 0.0321 0.34219 0.0
C239 C 0.71872 0.03844 0.2897 0.0
O240 O 0.71306 0.02205 0.27367 0.0
O241 O 0.68358 0.98793 0.31619 0.0
C242 C 0.63373 0.03212 0.34169 0.0
O243 O 0.62324 0.02764 0.32079 0.0
C244 C 0.65145 0.01516 0.26532 0.0
O245 O 0.65939 0.99285 0.26698 0.0
O246 O 0.70549 0.04131 0.30904 0.0
C247 C 0.72377 0.9364 0.02197 0.0
O248 O 0.72408 0.91544 0.01107 0.0
O249 O 0.77515 0.90333 0.06356 0.0
Zn250 Zn 0.7734 0.92232 0.03067 0.0
O251 O 0.77194 0.8994 0.00122 0.0
C252 C 0.81407 0.95117 0.04515 0.0
O253 O 0.80485 0.9466 0.06742 0.0
O254 O 0.74286 0.94355 0.03181 0.0
C255 C 0.77155 0.9082 0.97924 0.0
O256 O 0.77271 0.93166 0.97624 0.0
C257 C 0.75805 0.89039 0.07209 0.0
O258 O 0.7387 0.88844 0.05898 0.0
O259 O 0.80358 0.94307 0.02638 0.0
C260 C 0.33665 0.67333 0.02199 0.0
O261 O 0.33551 0.69644 0.01662 0.0
O262 O 0.28773 0.7109 0.03675 0.0
Zn263 Zn 0.28686 0.67949 0.01907 0.0
O264 O 0.2852 0.68509 0.98251 0.0
C265 C 0.23977 0.6697 0.03985 0.0
O266 O 0.23789 0.69326 0.03995 0.0
O267 O 0.31734 0.6617 0.02482 0.0
C268 C 0.26572 0.68957 0.97165 0.0
O269 O 0.2454 0.69034 0.98461 0.0
C270 C 0.27802 0.73056 0.02962 0.0
O271 O 0.26614 0.73144 0.00895 0.0
O272 O 0.25911 0.65981 0.03182 0.0
C273 C 0.17065 0.47145 0.81556 0.0
O274 O 0.1476 0.47676 0.81623 0.0
O275 O 0.15737 0.5274 0.77369 0.0
Zn276 Zn 0.17697 0.52169 0.80381 0.0
O277 O 0.15811 0.53201 0.83372 0.0
C278 C 0.22003 0.53693 0.78054 0.0
O279 O 0.2144 0.52002 0.76507 0.0
O280 O 0.18582 0.48746 0.80954 0.0
C281 C 0.13536 0.53139 0.83357 0.0
O282 O 0.12473 0.52593 0.81302 0.0
C283 C 0.15128 0.5116 0.75847 0.0
O284 O 0.15861 0.48921 0.76148 0.0
O285 O 0.20667 0.54057 0.79964 0.0
C286 C 0.22313 0.43379 0.52201 0.0
O287 O 0.22381 0.41231 0.51221 0.0
O288 O 0.27353 0.39926 0.55816 0.0
Zn289 Zn 0.27326 0.42183 0.52761 0.0
O290 O 0.27317 0.40324 0.4949 0.0
C291 C 0.32246 0.43706 0.53644 0.0
O292 O 0.32392 0.41559 0.54685 0.0
O293 O 0.24242 0.44229 0.53014 0.0
C294 C 0.26792 0.38113 0.49302 0.0
O295 O 0.26276 0.36859 0.5133 0.0
C296 C 0.27597 0.40844 0.57944 0.0
O297 O 0.27862 0.43181 0.58081 0.0
O298 O 0.30272 0.44378 0.52695 0.0
C299 C 0.41174 0.59773 0.20949 0.0
O300 O 0.4346 0.60186 0.21243 0.0
O301 O 0.45223 0.5437 0.19921 0.0
Zn302 Zn 0.4256 0.54958 0.22394 0.0
O303 O 0.43881 0.55765 0.25679 0.0
C304 C 0.40914 0.50334 0.24281 0.0
O305 O 0.42683 0.50479 0.25827 0.0
O306 O 0.40405 0.57653 0.21278 0.0
C307 C 0.42492 0.5592 0.27582 0.0
O308 O 0.40186 0.55548 0.27363 0.0
C309 C 0.47239 0.55403 0.19929 0.0
O310 O 0.47659 0.56988 0.21638 0.0
O311 O 0.40575 0.5201 0.22697 0.0
Co312 Co 0.0191 0.04546 0.0117 0.0
C313 C 0.01588 0.07739 0.05171 0.0
Co314 Co 0.02424 0.02801 0.04797 0.0
C315 C 0.00238 0.05344 0.9625 0.0
C316 C 0.0249 0.08187 0.97378 0.0
N317 N 0.01507 0.061 0.98169 0.0
N318 N 0.004 0.06866 0.94282 0.0
C319 C 0.01819 0.08658 0.94979 0.0
H320 H 0.99271 0.03671 0.96274 0.0
H321 H 0.03643 0.09277 0.98465 0.0
C322 C 0.02731 0.99623 0.00754 0.0
N323 N 0.02835 0.01192 0.07782 0.0
C324 C 0.04599 0.01443 0.09414 0.0
C325 C 0.01619 0.99242 0.08596 0.0
N326 N 0.0456 0.99701 0.11191 0.0
C327 C 0.0267 0.98326 0.10688 0.0
C328 C 0.97658 0.02818 0.03338 0.0
O329 O 0.02465 0.01559 0.99497 0.0
O330 O 0.02789 0.99757 0.03108 0.0
O331 O 0.99053 0.02308 0.05098 0.0
O332 O 0.98523 0.03846 0.0139 0.0
O333 O 0.02057 0.05858 0.06467 0.0
H334 H 0.00146 0.98454 0.07649 0.0
H335 H 0.05934 0.0283 0.09244 0.0
O336 O 0.01353 0.07522 0.02843 0.0
O337 O 0.0529 0.05236 0.00965 0.0
O338 O 0.058 0.03318 0.04486 0.0
C339 C 0.06678 0.04536 0.02674 0.0
H340 H 0.02333 0.10196 0.93838 0.0
H341 H 0.0216 0.96691 0.11669 0.0
Co342 Co 0.27416 0.74499 0.29324 0.0
C343 C 0.28892 0.71844 0.25225 0.0
Co344 Co 0.25762 0.75651 0.2583 0.0
C345 C 0.27839 0.73583 0.34528 0.0
C346 C 0.31049 0.7255 0.32528 0.0
N347 N 0.28802 0.73413 0.32216 0.0
N348 N 0.29405 0.72922 0.36285 0.0
C349 C 0.3143 0.72257 0.35031 0.0
H350 H 0.26079 0.74359 0.3492 0.0
H351 H 0.32369 0.7228 0.31042 0.0
C352 C 0.24371 0.78381 0.2992 0.0
N353 N 0.24369 0.76783 0.22973 0.0
C354 C 0.25485 0.77217 0.20768 0.0
C355 C 0.22071 0.77495 0.22666 0.0
N356 N 0.23984 0.7818 0.19086 0.0
C357 C 0.21826 0.78348 0.20273 0.0
C358 C 0.23088 0.72313 0.284 0.0
O359 O 0.25846 0.77045 0.31067 0.0
O360 O 0.24042 0.78039 0.27636 0.0
O361 O 0.23237 0.73529 0.26392 0.0
O362 O 0.24729 0.72479 0.29979 0.0
O363 O 0.27512 0.73244 0.2402 0.0
H364 H 0.2067 0.77413 0.24096 0.0
H365 H 0.27361 0.7679 0.204 0.0
O366 O 0.2901 0.72033 0.27561 0.0
O367 O 0.30071 0.76505 0.28643 0.0
O368 O 0.28319 0.77784 0.25271 0.0
C369 C 0.30083 0.77832 0.26702 0.0
H370 H 0.33105 0.71722 0.35859 0.0
H371 H 0.20188 0.79034 0.19476 0.0
Co372 Co 0.49951 0.03445 0.5316 0.0
C373 C 0.51128 0.08328 0.52577 0.0
Co374 Co 0.53201 0.04422 0.55092 0.0
C375 C 0.45469 0.0122 0.52377 0.0
C376 C 0.46572 0.03368 0.49229 0.0
N377 N 0.47226 0.02674 0.51525 0.0
N378 N 0.4374 0.00966 0.50708 0.0
C379 C 0.44428 0.02314 0.48718 0.0
H380 H 0.45492 0.00322 0.54174 0.0
H381 H 0.47598 0.04549 0.48004 0.0
C382 C 0.52036 0.99537 0.55657 0.0
N383 N 0.55934 0.05161 0.56744 0.0
C384 C 0.57918 0.06218 0.55785 0.0
C385 C 0.56459 0.04588 0.5911 0.0
N386 N 0.59678 0.06305 0.57447 0.0
C387 C 0.5876 0.05295 0.5955 0.0
C388 C 0.49086 0.04775 0.58014 0.0
O389 O 0.50338 0.00133 0.54232 0.0
O390 O 0.53502 0.01145 0.56254 0.0
O391 O 0.51325 0.05147 0.57946 0.0
O392 O 0.48088 0.04059 0.56079 0.0
O393 O 0.52894 0.07707 0.53908 0.0
H394 H 0.55271 0.0365 0.60406 0.0
H395 H 0.58074 0.06879 0.53889 0.0
O396 O 0.49582 0.06752 0.52097 0.0
O397 O 0.51817 0.02825 0.50261 0.0
O398 O 0.55068 0.03684 0.52231 0.0
C399 C 0.54076 0.03059 0.5026 0.0
H400 H 0.43448 0.02535 0.47023 0.0
H401 H 0.5971 0.05 0.61254 0.0
Co402 Co 0.29352 0.2958 0.78423 0.0
C403 C 0.27464 0.30947 0.73804 0.0
Co404 Co 0.2618 0.27573 0.77387 0.0
C405 C 0.34206 0.30301 0.79585 0.0
C406 C 0.3244 0.33669 0.78852 0.0
N407 N 0.32048 0.31289 0.79103 0.0
N408 N 0.35951 0.31946 0.79578 0.0
C409 C 0.34848 0.34082 0.79153 0.0
H410 H 0.34501 0.28388 0.79855 0.0
H411 H 0.31091 0.34996 0.78354 0.0
C412 C 0.28053 0.26217 0.8202 0.0
N413 N 0.23532 0.25805 0.76704 0.0
C414 C 0.21376 0.26615 0.75967 0.0
C415 C 0.23299 0.23406 0.76988 0.0
N416 N 0.19792 0.24819 0.75795 0.0
C417 C 0.21002 0.22793 0.76428 0.0
C418 C 0.30401 0.25494 0.75711 0.0
O419 O 0.29601 0.2782 0.81509 0.0
O420 O 0.26442 0.25829 0.80459 0.0
O421 O 0.28143 0.25274 0.7577 0.0
O422 O 0.31313 0.27253 0.76786 0.0
O423 O 0.25932 0.29325 0.74309 0.0
H424 H 0.24698 0.22188 0.77612 0.0
H425 H 0.20984 0.28492 0.75571 0.0
O426 O 0.29083 0.31341 0.75357 0.0
O427 O 0.27392 0.31877 0.80038 0.0
O428 O 0.24204 0.29903 0.79004 0.0
C429 C 0.25127 0.31666 0.80077 0.0
H430 H 0.35733 0.35795 0.78948 0.0
H431 H 0.20269 0.21003 0.76539 0.0
Co432 Co 0.03069 0.0329 0.4783 0.0
C433 C 0.04113 0.04402 0.52641 0.0
Co434 Co 0.05015 0.06684 0.4811 0.0
C435 C 0.02362 0.98375 0.46517 0.0
C436 C 0.99474 0.99733 0.48817 0.0
N437 N 0.01527 0.00389 0.47624 0.0
N438 N 0.00942 0.96474 0.47008 0.0
C439 C 0.99108 0.9733 0.4844 0.0
H440 H 0.04053 0.98276 0.45485 0.0
H441 H 0.98369 0.00898 0.49981 0.0
C442 C 0.0399 0.05517 0.43299 0.0
N443 N 0.06517 0.09585 0.48406 0.0
C444 C 0.05961 0.11147 0.50217 0.0
C445 C 0.08255 0.10658 0.47012 0.0
N446 N 0.07278 0.1315 0.50041 0.0
C447 C 0.08719 0.12872 0.48011 0.0
C448 C 0.08053 0.02812 0.47531 0.0
O449 O 0.03027 0.03698 0.44354 0.0
O450 O 0.04946 0.07098 0.44616 0.0
O451 O 0.0803 0.05079 0.47779 0.0
O452 O 0.06081 0.01704 0.47526 0.0
O453 O 0.0508 0.06226 0.51613 0.0
H454 H 0.09113 0.0989 0.45374 0.0
H455 H 0.04557 0.10843 0.51612 0.0
O456 O 0.03122 0.02874 0.51303 0.0
O457 O 0.00088 0.04903 0.48147 0.0
O458 O 0.0199 0.0829 0.48458 0.0
C459 C 0.00033 0.07156 0.48459 0.0
H460 H 0.9764 0.96286 0.49221 0.0
H461 H 0.10014 0.14165 0.4731 0.0
Co462 Co 0.26041 0.80158 0.77159 0.0
C463 C 0.21522 0.77928 0.78015 0.0
Co464 Co 0.25683 0.76592 0.75535 0.0
C465 C 0.2642 0.85276 0.77617 0.0
C466 C 0.25256 0.83557 0.81013 0.0
N467 N 0.26036 0.831 0.78671 0.0
N468 N 0.25878 0.87077 0.79195 0.0
C469 C 0.25165 0.85999 0.81343 0.0
H470 H 0.2703 0.85528 0.75707 0.0
H471 H 0.24673 0.82205 0.82355 0.0
C472 C 0.30219 0.78794 0.74709 0.0
N473 N 0.25685 0.73651 0.73993 0.0
C474 C 0.25644 0.71451 0.75071 0.0
C475 C 0.26189 0.73248 0.71567 0.0
N476 N 0.26149 0.69697 0.73428 0.0
C477 C 0.26462 0.70817 0.71212 0.0
C478 C 0.24332 0.80342 0.72414 0.0
O479 O 0.29348 0.80497 0.76027 0.0
O480 O 0.28897 0.77013 0.74281 0.0
O481 O 0.24471 0.78073 0.72641 0.0
O482 O 0.24984 0.81636 0.74181 0.0
O483 O 0.22453 0.76172 0.76817 0.0
H484 H 0.26484 0.74637 0.70168 0.0
H485 H 0.25328 0.71146 0.77041 0.0
O486 O 0.22767 0.79798 0.78286 0.0
O487 O 0.27066 0.78682 0.80119 0.0
O488 O 0.26869 0.75127 0.78469 0.0
C489 C 0.2729 0.76417 0.8032 0.0
H490 H 0.24525 0.86906 0.83002 0.0
H491 H 0.26977 0.69954 0.69486 0.0
Co492 Co 0.517 0.03169 0.02225 0.0
C493 C 0.5648 0.02464 0.03446 0.0
Co494 Co 0.52597 0.04888 0.05713 0.0
C495 C 0.49495 0.02544 0.97542 0.0
C496 C 0.51715 0.99525 0.98539 0.0
N497 N 0.5097 0.01716 0.99307 0.0
N498 N 0.49273 0.00949 0.95705 0.0
C499 C 0.50672 0.99047 0.96324 0.0
H500 H 0.48545 0.04253 0.97647 0.0
H501 H 0.52908 0.98336 0.99547 0.0
C502 C 0.47817 0.05583 0.0447 0.0
N503 N 0.53363 0.06256 0.08667 0.0
C504 C 0.5461 0.05113 0.10442 0.0
C505 C 0.5286 0.08458 0.09573 0.0
N506 N 0.54908 0.06492 0.12435 0.0
C507 C 0.53822 0.08613 0.11898 0.0
C508 C 0.53169 0.07878 0.0165 0.0
O509 O 0.48455 0.04279 0.02642 0.0
O510 O 0.49362 0.06075 0.06073 0.0
O511 O 0.53428 0.07713 0.03979 0.0
O512 O 0.52457 0.06067 0.0048 0.0
O513 O 0.55845 0.03695 0.05327 0.0
H514 H 0.5186 0.09852 0.08611 0.0
H515 H 0.55322 0.03302 0.10251 0.0
O516 O 0.54938 0.02064 0.01821 0.0
O517 O 0.5093 0.00301 0.0398 0.0
O518 O 0.5174 0.02055 0.07453 0.0
C519 C 0.5107 0.00215 0.06324 0.0
H520 H 0.5092 0.97424 0.9526 0.0
H521 H 0.53707 0.10151 0.13103 0.0
Co522 Co 0.26543 0.26731 0.29136 0.0
C523 C 0.31369 0.28111 0.29414 0.0
Co524 Co 0.27302 0.30245 0.27393 0.0
C525 C 0.25215 0.21781 0.29601 0.0
C526 C 0.26719 0.23062 0.3293 0.0
N527 N 0.26036 0.23778 0.30651 0.0
N528 N 0.254 0.1983 0.31111 0.0
C529 C 0.26327 0.20637 0.3322 0.0
H530 H 0.24562 0.2175 0.27732 0.0
H531 H 0.27563 0.24203 0.34246 0.0
C532 C 0.22471 0.28846 0.27138 0.0
N533 N 0.27837 0.33179 0.25856 0.0
C534 C 0.29463 0.34836 0.26422 0.0
C535 C 0.26751 0.34074 0.2383 0.0
N536 N 0.29452 0.36728 0.24819 0.0
C537 C 0.27733 0.36255 0.23193 0.0
C538 C 0.27719 0.26443 0.24079 0.0
O539 O 0.23202 0.2699 0.28325 0.0
O540 O 0.2396 0.30502 0.26617 0.0
O541 O 0.2793 0.28701 0.24292 0.0
O542 O 0.27186 0.25194 0.26008 0.0
O543 O 0.30646 0.29958 0.2821 0.0
H544 H 0.25365 0.33177 0.22849 0.0
H545 H 0.30682 0.34613 0.27936 0.0
O546 O 0.29875 0.2646 0.29936 0.0
O547 O 0.25906 0.28312 0.32246 0.0
O548 O 0.26681 0.31798 0.30477 0.0
C549 C 0.26136 0.30577 0.32422 0.0
H550 H 0.26812 0.19537 0.34809 0.0
H551 H 0.27226 0.37388 0.21638 0.0
Co552 Co 0.5191 0.54496 0.98182 0.0
C553 C 0.53305 0.55449 0.02927 0.0
Co554 Co 0.54018 0.57799 0.98398 0.0
C555 C 0.50943 0.49644 0.96853 0.0
C556 C 0.48264 0.5104 0.99385 0.0
N557 N 0.50239 0.51664 0.98032 0.0
N558 N 0.49527 0.47769 0.9746 0.0
C559 C 0.47818 0.48646 0.99031 0.0
H560 H 0.52526 0.49528 0.95648 0.0
H561 H 0.47296 0.52209 0.00664 0.0
C562 C 0.52663 0.56772 0.93646 0.0
N563 N 0.55647 0.60637 0.98657 0.0
C564 C 0.55265 0.62155 0.00547 0.0
C565 C 0.57291 0.61724 0.97151 0.0
N566 N 0.56596 0.64143 0.00312 0.0
C567 C 0.57869 0.63904 0.98163 0.0
C568 C 0.56857 0.53833 0.97556 0.0
O569 O 0.51673 0.5498 0.94728 0.0
O570 O 0.53762 0.58283 0.94928 0.0
O571 O 0.56942 0.5609 0.97854 0.0
O572 O 0.5484 0.52805 0.9765 0.0
O573 O 0.54271 0.57264 0.01881 0.0
H574 H 0.57991 0.60999 0.95421 0.0
H575 H 0.53955 0.61844 0.02036 0.0
O576 O 0.52166 0.53998 0.01627 0.0
O577 O 0.49016 0.56213 0.98724 0.0
O578 O 0.51085 0.59509 0.9895 0.0
C579 C 0.4908 0.58461 0.99058 0.0
H580 H 0.46442 0.47599 -0.00016 0.0
H581 H 0.59112 0.65207 0.97381 0.0
Co582 Co 0.76691 0.30421 0.28086 0.0
C583 C 0.72203 0.28313 0.29394 0.0
Co584 Co 0.76054 0.26905 0.26451 0.0
C585 C 0.77133 0.3552 0.28417 0.0
C586 C 0.76412 0.33864 0.31966 0.0
N587 N 0.76896 0.33365 0.2956 0.0
N588 N 0.76765 0.37352 0.29998 0.0
C589 C 0.76337 0.36317 0.32243 0.0
H590 H 0.775 0.35735 0.26444 0.0
H591 H 0.76008 0.32535 0.334 0.0
C592 C 0.80573 0.29017 0.252 0.0
N593 N 0.75848 0.2396 0.24956 0.0
C594 C 0.75734 0.21777 0.26065 0.0
C595 C 0.76233 0.23512 0.22521 0.0
N596 N 0.76081 0.19984 0.24431 0.0
C597 C 0.76368 0.21068 0.22191 0.0
C598 C 0.74467 0.30667 0.2354 0.0
O599 O 0.79827 0.30747 0.26552 0.0
O600 O 0.792 0.27241 0.2492 0.0
O601 O 0.74649 0.28396 0.23673 0.0
O602 O 0.75269 0.31908 0.25277 0.0
O603 O 0.72898 0.26584 0.2801 0.0
H604 H 0.7654 0.24874 0.21096 0.0
H605 H 0.75479 0.21513 0.28048 0.0
O606 O 0.73588 0.30083 0.29625 0.0
O607 O 0.7809 0.28936 0.30867 0.0
O608 O 0.77452 0.2542 0.2927 0.0
C609 C 0.7823 0.26663 0.3102 0.0
H610 H 0.75892 0.37257 0.33942 0.0
H611 H 0.76772 0.2017 0.20459 0.0
Co612 Co 0.01544 0.52529 0.51858 0.0
C613 C 0.06224 0.51848 0.53328 0.0
Co614 Co 0.02211 0.54278 0.5539 0.0
C615 C 0.99685 0.52038 0.47019 0.0
C616 C 0.01678 0.489 0.48127 0.0
N617 N 0.00974 0.51107 0.48885 0.0
N618 N 0.9954 0.505 0.45125 0.0
C619 C 0.00791 0.48518 0.45812 0.0
H620 H 0.98809 0.53788 0.47088 0.0
H621 H 0.02742 0.47642 0.49202 0.0
C622 C 0.97518 0.54916 0.53859 0.0
N623 N 0.02814 0.5564 0.58391 0.0
C624 C 0.04033 0.54531 0.60209 0.0
C625 C 0.0227 0.57849 0.59258 0.0
N626 N 0.0429 0.55944 0.62184 0.0
C627 C 0.0319 0.58046 0.61597 0.0
C628 C 0.03041 0.57243 0.51368 0.0
O629 O 0.98305 0.53615 0.5209 0.0
O630 O 0.98938 0.55462 0.55566 0.0
O631 O 0.03141 0.57114 0.53715 0.0
O632 O 0.02391 0.55424 0.50175 0.0
O633 O 0.05492 0.53081 0.55177 0.0
H634 H 0.01301 0.5923 0.58245 0.0
H635 H 0.04787 0.52733 0.60046 0.0
O636 O 0.04768 0.51436 0.51626 0.0
O637 O 0.00692 0.49661 0.53548 0.0
O638 O 0.01267 0.51431 0.57073 0.0
C639 C 0.00685 0.49583 0.559 0.0
H640 H 0.01044 0.46909 0.44726 0.0
H641 H 0.03066 0.59612 0.62764 0.0
Co642 Co 0.78495 0.79433 0.28515 0.0
C643 C 0.76381 0.80731 0.23991 0.0
Co644 Co 0.75276 0.77401 0.27686 0.0
C645 C 0.83413 0.80241 0.29357 0.0
C646 C 0.81501 0.83584 0.28979 0.0
N647 N 0.81201 0.8118 0.29058 0.0
N648 N 0.85092 0.81945 0.29417 0.0
C649 C 0.83904 0.84063 0.29217 0.0
H650 H 0.83796 0.78329 0.29489 0.0
H651 H 0.8008 0.84896 0.2868 0.0
C652 C 0.7738 0.76082 0.32202 0.0
N653 N 0.72613 0.75603 0.27151 0.0
C654 C 0.70414 0.76399 0.26542 0.0
C655 C 0.7241 0.73201 0.27446 0.0
N656 N 0.68832 0.74592 0.2646 0.0
C657 C 0.70086 0.72572 0.27017 0.0
C658 C 0.79443 0.75347 0.25798 0.0
O659 O 0.78892 0.77698 0.31607 0.0
O660 O 0.75697 0.75677 0.30733 0.0
O661 O 0.77188 0.75106 0.25978 0.0
O662 O 0.80395 0.77115 0.26816 0.0
O663 O 0.74868 0.7913 0.24631 0.0
H664 H 0.7385 0.71993 0.27986 0.0
H665 H 0.6999 0.78272 0.26166 0.0
O666 O 0.78087 0.81158 0.25433 0.0
O667 O 0.76592 0.81726 0.30195 0.0
O668 O 0.73352 0.79729 0.29387 0.0
C669 C 0.74331 0.81508 0.30375 0.0
H670 H 0.84723 0.85816 0.2915 0.0
H671 H 0.69368 0.70778 0.27159 0.0
Co672 Co 0.79089 0.25505 0.81473 0.0
C673 C 0.80272 0.21647 0.78491 0.0
Co674 Co 0.76944 0.25343 0.78121 0.0
C675 C 0.80016 0.26272 0.86543 0.0
C676 C 0.83271 0.25427 0.8452 0.0
N677 N 0.80871 0.25611 0.84292 0.0
N678 N 0.81778 0.26573 0.88159 0.0
C679 C 0.83838 0.26047 0.86898 0.0
H680 H 0.78149 0.26738 0.86925 0.0
H681 H 0.84532 0.25026 0.83013 0.0
C682 C 0.75829 0.2926 0.81067 0.0
N683 N 0.75144 0.25289 0.75312 0.0
C684 C 0.75988 0.25065 0.7296 0.0
C685 C 0.72756 0.25635 0.75123 0.0
N686 N 0.74231 0.25276 0.71299 0.0
C687 C 0.72186 0.2562 0.72654 0.0
C688 C 0.7486 0.23006 0.82141 0.0
O689 O 0.77509 0.2842 0.82377 0.0
O690 O 0.7527 0.28164 0.79125 0.0
O691 O 0.74657 0.23463 0.79842 0.0
O692 O 0.7669 0.23736 0.83243 0.0
O693 O 0.78649 0.2252 0.77118 0.0
H694 H 0.71519 0.25925 0.76678 0.0
H695 H 0.77865 0.24748 0.72483 0.0
O696 O 0.80677 0.22635 0.80543 0.0
O697 O 0.81462 0.27271 0.79692 0.0
O698 O 0.79251 0.27233 0.76401 0.0
C699 C 0.81157 0.27848 0.77433 0.0
H700 H 0.85625 0.26239 0.87597 0.0
H701 H 0.70415 0.25888 0.71917 0.0
Co702 Co 0.76392 0.76675 0.79739 0.0
C703 C 0.81204 0.78015 0.79853 0.0
Co704 Co 0.77128 0.79976 0.77581 0.0
C705 C 0.75054 0.71785 0.80653 0.0
C706 C 0.76418 0.73372 0.83904 0.0
N707 N 0.75832 0.73876 0.81538 0.0
N708 N 0.75177 0.69981 0.82348 0.0
C709 C 0.76009 0.70976 0.84411 0.0
H710 H 0.74477 0.71573 0.78771 0.0
H711 H 0.77208 0.74632 0.85139 0.0
C712 C 0.72312 0.78578 0.77474 0.0
N713 N 0.77735 0.8275 0.75777 0.0
C714 C 0.79346 0.84433 0.76297 0.0
C715 C 0.76826 0.83452 0.73585 0.0
N716 N 0.79511 0.86145 0.74504 0.0
C717 C 0.77913 0.85547 0.72798 0.0
C718 C 0.77553 0.75879 0.7472 0.0
O719 O 0.73061 0.76895 0.789 0.0
O720 O 0.73789 0.80178 0.76727 0.0
O721 O 0.7777 0.78147 0.74669 0.0
O722 O 0.77024 0.74843 0.76781 0.0
O723 O 0.8048 0.79737 0.78465 0.0
H724 H 0.75517 0.82463 0.72585 0.0
H725 H 0.80407 0.84379 0.77948 0.0
O726 O 0.79705 0.76432 0.80564 0.0
O727 O 0.75777 0.78551 0.8267 0.0
O728 O 0.76485 0.81824 0.80476 0.0
C729 C 0.75977 0.80827 0.82562 0.0
H730 H 0.7642 0.70017 0.86114 0.0
H731 H 0.77626 0.86495 0.71059 0.0
Co732 Co 0.5165 0.54941 0.50753 0.0
C733 C 0.51449 0.57975 0.54921 0.0
Co734 Co 0.52503 0.53122 0.54265 0.0
C735 C 0.497 0.56004 0.45965 0.0
C736 C 0.5196 0.58798 0.47194 0.0
N737 N 0.5106 0.56638 0.47867 0.0
N738 N 0.49728 0.57676 0.44122 0.0
C739 C 0.51151 0.59436 0.44886 0.0
H740 H 0.48757 0.5432 0.4591 0.0
H741 H 0.53143 0.59832 0.48304 0.0
C742 C 0.52687 0.50094 0.50078 0.0
N743 N 0.53076 0.51382 0.57128 0.0
C744 C 0.54714 0.5172 0.58876 0.0
C745 C 0.5203 0.49282 0.57761 0.0
N746 N 0.54738 0.499 0.6057 0.0
C747 C 0.53042 0.4837 0.59869 0.0
C748 C 0.47632 0.52953 0.53038 0.0
O749 O 0.52194 0.52036 0.48904 0.0
O750 O 0.52953 0.50191 0.52411 0.0
O751 O 0.49168 0.52433 0.54664 0.0
O752 O 0.48308 0.54141 0.51113 0.0
O753 O 0.52054 0.5607 0.56112 0.0
H754 H 0.50678 0.48419 0.567 0.0
H755 H 0.5589 0.53249 0.58872 0.0
O756 O 0.51101 0.57828 0.52605 0.0
O757 O 0.54992 0.55732 0.50407 0.0
O758 O 0.55845 0.53829 0.53862 0.0
C759 C 0.56528 0.55113 0.52008 0.0
H760 H 0.51568 0.61071 0.43856 0.0
H761 H 0.52625 0.46659 0.60749 0.0
Co762 Co 0.00436 0.53177 0.02546 0.0
C763 C 0.01666 0.57995 0.02017 0.0
Co764 Co 0.03738 0.53985 0.04478 0.0
C765 C 0.95732 0.51411 0.02014 0.0
C766 C 0.97157 0.52713 0.98524 0.0
N767 N 0.97672 0.52455 0.00949 0.0
N768 N 0.94033 0.51 0.00364 0.0
C769 C 0.94915 0.51793 0.98154 0.0
H770 H 0.95594 0.50884 0.03956 0.0
H771 H 0.98346 0.53485 0.97114 0.0
C772 C 0.02421 0.49148 0.04967 0.0
N773 N 0.06503 0.54685 0.06099 0.0
C774 C 0.08161 0.56314 0.05396 0.0
C775 C 0.073 0.5371 0.08238 0.0
N776 N 0.0996 0.56398 0.07006 0.0
C777 C 0.0944 0.54753 0.08794 0.0
C778 C 0.99665 0.54444 0.07436 0.0
O779 O 0.00724 0.4989 0.03614 0.0
O780 O 0.04012 0.5064 0.05556 0.0
O781 O 0.01926 0.54661 0.07387 0.0
O782 O 0.98627 0.53862 0.05476 0.0
O783 O 0.03413 0.57331 0.03359 0.0
H784 H 0.06378 0.52343 0.09332 0.0
H785 H 0.08066 0.57401 0.03715 0.0
O786 O 0.00122 0.56445 0.01478 0.0
O787 O 0.02274 0.52503 0.99642 0.0
O788 O 0.05564 0.53308 0.01576 0.0
C789 C 0.04538 0.52714 0.99612 0.0
H790 H 0.94004 0.51711 0.9641 0.0
H791 H 0.10504 0.54369 0.10406 0.0
H792 H 0.02839 0.20369 0.14571 0.0
H793 H 0.00447 0.12016 0.02873 0.0
H794 H 0.00775 0.2306 0.07377 0.0
H795 H 0.02489 0.09098 0.09986 0.0
H796 H 0.00492 0.16049 0.0457 0.0
H797 H 0.02693 0.16248 0.13007 0.0
C798 C 0.02359 0.20101 0.12664 0.0
C799 C 0.01823 0.22084 0.11108 0.0
C800 C 0.00923 0.14533 0.05771 0.0
C801 C 0.01644 0.17348 0.09303 0.0
C802 C 0.00891 0.12215 0.04802 0.0
C803 C 0.01461 0.10192 0.06283 0.0
C804 C 0.01536 0.14866 0.08253 0.0
C805 C 0.02028 0.10593 0.08771 0.0
C806 C 0.02273 0.17741 0.11772 0.0
C807 C 0.01208 0.21605 0.08653 0.0
N808 N 0.02058 0.12878 0.09673 0.0
N809 N 0.01137 0.19302 0.07835 0.0
H810 H 0.10549 0.68791 0.371 0.0
H811 H 0.19173 0.71904 0.25529 0.0
H812 H 0.09176 0.74275 0.31543 0.0
H813 H 0.21825 0.69976 0.32761 0.0
H814 H 0.15109 0.71051 0.27047 0.0
H815 H 0.14283 0.67681 0.34826 0.0
C816 C 0.11009 0.69721 0.35372 0.0
C817 C 0.09594 0.71651 0.34516 0.0
C818 C 0.16593 0.70751 0.28275 0.0
C819 C 0.13778 0.70356 0.31907 0.0
C820 C 0.18914 0.71233 0.27416 0.0
C821 C 0.20828 0.71089 0.29052 0.0
C822 C 0.16195 0.70108 0.30774 0.0
C823 C 0.2039 0.70164 0.31458 0.0
C824 C 0.13127 0.69086 0.34085 0.0
C825 C 0.10251 0.72804 0.32278 0.0
N826 N 0.181 0.69755 0.32269 0.0
N827 N 0.12309 0.72145 0.31052 0.0
H828 H 0.55328 0.87475 0.65365 0.0
H829 H 0.49322 0.95552 0.54698 0.0
H830 H 0.50496 0.84485 0.60165 0.0
H831 H 0.5521 0.97819 0.59078 0.0
H832 H 0.49607 0.91536 0.56658 0.0
H833 H 0.5519 0.91287 0.63092 0.0
C834 C 0.54238 0.87613 0.63735 0.0
C835 C 0.52918 0.8564 0.62967 0.0
C836 C 0.50844 0.9291 0.57176 0.0
C837 C 0.52735 0.90064 0.60335 0.0
C838 C 0.50683 0.95207 0.56058 0.0
C839 C 0.52244 0.97042 0.56717 0.0
C840 C 0.52564 0.9244 0.58988 0.0
C841 C 0.53966 0.96476 0.58499 0.0
C842 C 0.54164 0.89802 0.6243 0.0
C843 C 0.5155 0.85948 0.60826 0.0
N844 N 0.54068 0.94244 0.59573 0.0
N845 N 0.51479 0.88122 0.59597 0.0
H846 H 0.48981 0.24265 0.82031 0.0
H847 H 0.39325 0.34896 0.81319 0.0
H848 H 0.50204 0.31466 0.84543 0.0
H849 H 0.3836 0.27883 0.7822 0.0
H850 H 0.43542 0.33854 0.81978 0.0
H851 H 0.45338 0.25722 0.80045 0.0
C852 C 0.48508 0.26159 0.82128 0.0
C853 C 0.49866 0.27734 0.835 0.0
C854 C 0.42411 0.32551 0.81132 0.0
C855 C 0.45694 0.29407 0.81268 0.0
C856 C 0.40006 0.33149 0.80755 0.0
C857 C 0.38477 0.31454 0.79775 0.0
C858 C 0.43282 0.30239 0.80528 0.0
C859 C 0.39453 0.29216 0.79063 0.0
C860 C 0.46424 0.2699 0.81 0.0
C861 C 0.49183 0.30176 0.83544 0.0
N862 N 0.41785 0.28664 0.7948 0.0
N863 N 0.47123 0.3093 0.82481 0.0
H864 H 0.06579 0.83484 0.40418 0.0
H865 H 0.99327 0.92466 0.49438 0.0
H866 H 0.01058 0.8124 0.45708 0.0
H867 H 0.03782 0.94822 0.43199 0.0
H868 H 0.00323 0.88309 0.48433 0.0
H869 H 0.06053 0.87616 0.41851 0.0
C870 C 0.05285 0.83853 0.41908 0.0
C871 C 0.0384 0.82025 0.42928 0.0
C872 C 0.01085 0.89738 0.47286 0.0
C873 C 0.03214 0.86736 0.44551 0.0
C874 C 0.00498 0.92116 0.47845 0.0
C875 C 0.01459 0.94006 0.46393 0.0
C876 C 0.02649 0.89241 0.45265 0.0
C877 C 0.03015 0.9343 0.44385 0.0
C878 C 0.04973 0.86213 0.42711 0.0
C879 C 0.02191 0.82602 0.44851 0.0
N880 N 0.03559 0.91098 0.43878 0.0
N881 N 0.0191 0.84911 0.45589 0.0
H882 H 0.45705 0.80438 0.71609 0.0
H883 H 0.32144 0.75907 0.71112 0.0
H884 H 0.42897 0.7631 0.6567 0.0
H885 H 0.34038 0.81691 0.75886 0.0
H886 H 0.36231 0.75801 0.69413 0.0
H887 H 0.41623 0.80693 0.73507 0.0
C888 C 0.44241 0.79578 0.7071 0.0
C889 C 0.44656 0.7835 0.68471 0.0
C890 C 0.35764 0.77102 0.70828 0.0
C891 C 0.3999 0.78627 0.70636 0.0
C892 C 0.3342 0.77162 0.71808 0.0
C893 C 0.32727 0.78816 0.7365 0.0
C894 C 0.37475 0.78688 0.71697 0.0
C895 C 0.34482 0.80394 0.74462 0.0
C896 C 0.41911 0.79735 0.71788 0.0
C897 C 0.4268 0.77282 0.67388 0.0
N898 N 0.36778 0.80285 0.7349 0.0
N899 N 0.40455 0.77438 0.6848 0.0
H900 H 0.52 0.20036 0.91555 0.0
H901 H 0.54713 0.12038 0.03627 0.0
H902 H 0.5413 0.22932 0.98533 0.0
H903 H 0.52144 0.09096 0.96843 0.0
H904 H 0.5464 0.16029 0.01712 0.0
H905 H 0.5203 0.16013 0.93436 0.0
C906 C 0.52448 0.1983 0.93491 0.0
C907 C 0.53076 0.21821 0.94888 0.0
C908 C 0.54102 0.14512 0.00636 0.0
C909 C 0.53145 0.17224 0.97035 0.0
C910 C 0.54157 0.12228 0.01723 0.0
C911 C 0.53428 0.10232 0.00393 0.0
C912 C 0.53309 0.14807 0.982 0.0
C913 C 0.52725 0.10587 0.97933 0.0
C914 C 0.52477 0.17532 0.94558 0.0
C915 C 0.5364 0.21449 0.97385 0.0
N916 N 0.52672 0.12837 0.96918 0.0
N917 N 0.53675 0.19192 0.98374 0.0
H918 H 0.0965 0.33669 0.19658 0.0
H919 H 0.18971 0.25376 0.27202 0.0
H920 H 0.08469 0.26133 0.21179 0.0
H921 H 0.20278 0.32708 0.24869 0.0
H922 H 0.15004 0.25653 0.25329 0.0
H923 H 0.13398 0.33379 0.21864 0.0
C924 C 0.10168 0.31949 0.20465 0.0
C925 C 0.08726 0.2992 0.20215 0.0
C926 C 0.16155 0.27204 0.25241 0.0
C927 C 0.1307 0.29574 0.22769 0.0
C928 C 0.18419 0.27052 0.26321 0.0
C929 C 0.19974 0.29022 0.26201 0.0
C930 C 0.15426 0.29346 0.24037 0.0
C931 C 0.19155 0.31139 0.25015 0.0
C932 C 0.12323 0.31785 0.21728 0.0
C933 C 0.09515 0.27746 0.21317 0.0
N934 N 0.16952 0.3124 0.23983 0.0
N935 N 0.11632 0.27629 0.22537 0.0
H936 H 0.12037 0.94122 0.23789 0.0
H937 H 0.09183 0.01246 0.11204 0.0
H938 H 0.16597 0.99674 0.20667 0.0
H939 H 0.04003 0.97029 0.15426 0.0
H940 H 0.12151 0.00307 0.14325 0.0
H941 H 0.09376 0.94675 0.20311 0.0
C942 C 0.12499 0.95435 0.22354 0.0
C943 C 0.14528 0.96875 0.22534 0.0
C944 C 0.10363 0.99587 0.14561 0.0
C945 C 0.11472 0.97532 0.18561 0.0
C946 C 0.08655 0.0014 0.1279 0.0
C947 C 0.06323 0.99224 0.13049 0.0
C948 C 0.09743 0.98097 0.16597 0.0
C949 C 0.05777 0.97755 0.15126 0.0
C950 C 0.10969 0.9576 0.20376 0.0
C951 C 0.15043 0.98537 0.2061 0.0
N952 N 0.07474 0.97237 0.16816 0.0
N953 N 0.1351 0.98835 0.1871 0.0
H954 H 0.23468 0.81331 0.47438 0.0
H955 H 0.32905 0.7411 0.39442 0.0
H956 H 0.30954 0.80892 0.4925 0.0
H957 H 0.25276 0.7304 0.39063 0.0
H958 H 0.32254 0.76061 0.43427 0.0
H959 H 0.24054 0.77881 0.44744 0.0
C960 C 0.25231 0.80488 0.47288 0.0
C961 C 0.27177 0.81423 0.48527 0.0
C962 C 0.30725 0.75352 0.425 0.0
C963 C 0.2787 0.77488 0.45428 0.0
C964 C 0.31098 0.74222 0.40226 0.0
C965 C 0.29132 0.73474 0.3888 0.0
C966 C 0.2837 0.75758 0.43413 0.0
C967 C 0.26833 0.73665 0.39999 0.0
C968 C 0.25564 0.78508 0.45761 0.0
C969 C 0.29413 0.8024 0.48303 0.0
N970 N 0.26509 0.74838 0.42174 0.0
N971 N 0.29712 0.7836 0.46738 0.0
H972 H 0.38735 0.02338 0.69957 0.0
H973 H 0.50744 0.06053 0.62513 0.0
H974 H 0.4523 0.04441 0.73468 0.0
H975 H 0.44413 0.03547 0.58975 0.0
H976 H 0.48701 0.05561 0.66542 0.0
H977 H 0.40801 0.02682 0.65918 0.0
C978 C 0.40606 0.02839 0.69882 0.0
C979 C 0.41808 0.03383 0.72051 0.0
C980 C 0.47753 0.05129 0.64885 0.0
C981 C 0.44166 0.03817 0.67436 0.0
C982 C 0.48911 0.05429 0.62581 0.0
C983 C 0.47746 0.04837 0.60406 0.0
C984 C 0.45414 0.04231 0.65015 0.0
C985 C 0.45376 0.0403 0.60606 0.0
C986 C 0.41779 0.0305 0.67574 0.0
C987 C 0.44231 0.04015 0.71844 0.0
N988 N 0.4429 0.03739 0.62875 0.0
N989 N 0.45326 0.04236 0.69572 0.0
H990 H 0.25492 0.15527 0.93579 0.0
H991 H 0.30535 0.27131 0.86261 0.0
H992 H 0.28812 0.21323 0.97373 0.0
H993 H 0.25531 0.22182 0.83263 0.0
H994 H 0.30307 0.24895 0.9024 0.0
H995 H 0.2587 0.17804 0.89697 0.0
C996 C 0.26305 0.17283 0.93601 0.0
C997 C 0.27117 0.18231 0.9582 0.0
C998 C 0.29264 0.24303 0.88707 0.0
C999 C 0.2757 0.20864 0.91333 0.0
C1000 C 0.29401 0.2557 0.86431 0.0
C1001 C 0.28049 0.24847 0.84418 0.0
C1002 C 0.27787 0.22282 0.88961 0.0
C1003 C 0.26602 0.22815 0.84756 0.0
C1004 C 0.26515 0.18587 0.91374 0.0
C1005 C 0.28151 0.20523 0.95712 0.0
N1006 N 0.26517 0.21608 0.86971 0.0
N1007 N 0.28357 0.21759 0.93505 0.0
H1008 H 0.12615 0.06565 0.30189 0.0
H1009 H 0.02652 0.0215 0.39992 0.0
H1010 H 0.10831 0.99174 0.31817 0.0
H1011 H 0.06303 0.08916 0.40416 0.0
H1012 H 0.04432 0.01585 0.35852 0.0
H1013 H 0.09194 0.07862 0.3284 0.0
C1014 C 0.11472 0.05219 0.31061 0.0
C1015 C 0.12028 0.02762 0.30841 0.0
C1016 C 0.04791 0.03223 0.36828 0.0
C1017 C 0.08121 0.04224 0.33816 0.0
C1018 C 0.03771 0.03553 0.39189 0.0
C1019 C 0.04399 0.05545 0.40583 0.0
C1020 C 0.06446 0.04894 0.35865 0.0
C1021 C 0.05822 0.07323 0.39428 0.0
C1022 C 0.09526 0.05959 0.32566 0.0
C1023 C 0.10489 0.01087 0.31989 0.0
N1024 N 0.06846 0.0693 0.37151 0.0
N1025 N 0.08617 0.01849 0.3345 0.0
H1026 H 0.20125 0.82466 0.57298 0.0
H1027 H 0.24521 0.85079 0.70969 0.0
H1028 H 0.24101 0.88741 0.59212 0.0
H1029 H 0.22289 0.78118 0.68544 0.0
H1030 H 0.23518 0.8678 0.66907 0.0
H1031 H 0.20033 0.81211 0.61672 0.0
C1032 C 0.20947 0.83597 0.58642 0.0
C1033 C 0.22156 0.85689 0.5789 0.0
C1034 C 0.23227 0.84885 0.67277 0.0
C1035 C 0.2206 0.84266 0.62877 0.0
C1036 C 0.23796 0.83914 0.69592 0.0
C1037 C 0.2352 0.81447 0.70077 0.0
C1038 C 0.22365 0.83379 0.65447 0.0
C1039 C 0.2256 0.80024 0.68235 0.0
C1040 C 0.20901 0.82876 0.61134 0.0
C1041 C 0.2318 0.87095 0.59709 0.0
N1042 N 0.22032 0.81008 0.65993 0.0
N1043 N 0.23127 0.86346 0.62118 0.0
H1044 H 0.40582 0.06432 0.83905 0.0
H1045 H 0.47267 0.97357 0.93166 0.0
H1046 H 0.39996 0.98706 0.83642 0.0
H1047 H 0.47797 0.05082 0.93445 0.0
H1048 H 0.44622 0.97808 0.89656 0.0
H1049 H 0.43207 0.05969 0.87428 0.0
C1050 C 0.40999 0.04637 0.84593 0.0
C1051 C 0.40072 0.02603 0.83477 0.0
C1052 C 0.45317 0.99405 0.90485 0.0
C1053 C 0.43083 0.02061 0.87502 0.0
C1054 C 0.46842 0.99148 0.92478 0.0
C1055 C 0.47755 0.01186 0.93602 0.0
C1056 C 0.44703 0.01717 0.89606 0.0
C1057 C 0.4711 0.03464 0.92657 0.0
C1058 C 0.42501 0.04375 0.86603 0.0
C1059 C 0.40672 0.00323 0.84446 0.0
N1060 N 0.45624 0.03668 0.90713 0.0
N1061 N 0.42146 0.00113 0.86402 0.0
H1062 H 0.26101 0.17074 0.11448 0.0
H1063 H 0.28915 0.286 0.19609 0.0
H1064 H 0.28542 0.23839 0.08349 0.0
H1065 H 0.26823 0.21764 0.22826 0.0
H1066 H 0.28826 0.26853 0.15484 0.0
H1067 H 0.26333 0.18735 0.15619 0.0
C1068 C 0.26677 0.1891 0.11639 0.0
C1069 C 0.27298 0.20316 0.09532 0.0
C1070 C 0.28398 0.25727 0.17089 0.0
C1071 C 0.2758 0.2223 0.14319 0.0
C1072 C 0.28456 0.26724 0.19454 0.0
C1073 C 0.2788 0.2533 0.21581 0.0
C1074 C 0.27745 0.23315 0.16829 0.0
C1075 C 0.2729 0.22909 0.21247 0.0
C1076 C 0.26816 0.19856 0.14026 0.0
C1077 C 0.28041 0.22683 0.09909 0.0
N1078 N 0.27228 0.21984 0.18921 0.0
N1079 N 0.28159 0.2356 0.12246 0.0
H1080 H 0.19858 0.12616 0.00508 0.0
H1081 H 0.10094 0.03358 0.0607 0.0
H1082 H 0.20774 0.08382 0.07205 0.0
H1083 H 0.09052 0.07594 0.99395 0.0
H1084 H 0.14106 0.05013 0.06357 0.0
H1085 H 0.16001 0.10669 -0.00065 0.0
C1086 C 0.19256 0.11273 0.01855 0.0
C1087 C 0.20651 0.10673 0.03915 0.0
C1088 C 0.13011 0.05571 0.04817 0.0
C1089 C 0.1622 0.0843 0.03266 0.0
C1090 C 0.10715 0.04617 0.04646 0.0
C1091 C 0.09219 0.05333 0.02703 0.0
C1092 C 0.13834 0.07269 0.03041 0.0
C1093 C 0.10136 0.06981 0.00922 0.0
C1094 C 0.1705 0.10161 0.01525 0.0
C1095 C 0.19768 0.08914 0.05593 0.0
N1096 N 0.12373 0.07901 0.01141 0.0
N1097 N 0.17616 0.07865 0.05235 0.0
H1098 H 0.66605 0.41759 0.97696 0.0
H1099 H 0.615 0.55252 0.98044 0.0
H1100 H 0.70362 0.47729 0.00711 0.0
H1101 H 0.57247 0.49085 0.96395 0.0
H1102 H 0.65074 0.52648 0.981 0.0
H1103 H 0.63476 0.44561 0.96299 0.0
C1104 C 0.66786 0.43661 0.98037 0.0
C1105 C 0.68718 0.4451 0.99363 0.0
C1106 C 0.6336 0.51873 0.97698 0.0
C1107 C 0.65162 0.47713 0.97774 0.0
C1108 C 0.61323 0.53358 0.97661 0.0
C1109 C 0.5907 0.52373 0.97262 0.0
C1110 C 0.63136 0.49392 0.97329 0.0
C1111 C 0.58945 0.49911 0.96754 0.0
C1112 C 0.65001 0.45257 0.97243 0.0
C1113 C 0.68878 0.46993 0.99736 0.0
N1114 N 0.60948 0.48499 0.96828 0.0
N1115 N 0.6711 0.48505 0.98966 0.0
H1116 H 0.80325 0.52026 0.3017 0.0
H1117 H 0.75893 0.39451 0.2551 0.0
H1118 H 0.80082 0.50124 0.22448 0.0
H1119 H 0.7751 0.41047 0.33093 0.0
H1120 H 0.76303 0.437 0.24421 0.0
H1121 H 0.78046 0.48447 0.31283 0.0
C1122 C 0.79746 0.50878 0.28703 0.0
C1123 C 0.8045 0.51324 0.26221 0.0
C1124 C 0.76536 0.43121 0.26329 0.0
C1125 C 0.77885 0.47215 0.27484 0.0
C1126 C 0.7633 0.4069 0.26949 0.0
C1127 C 0.76739 0.39877 0.29386 0.0
C1128 C 0.77152 0.44747 0.28158 0.0
C1129 C 0.77201 0.41584 0.3119 0.0
C1130 C 0.7845 0.48833 0.2934 0.0
C1131 C 0.79609 0.49817 0.24389 0.0
N1132 N 0.77428 0.43934 0.30531 0.0
N1133 N 0.78414 0.47789 0.25063 0.0
H1134 H 0.84186 0.63093 0.56028 0.0
H1135 H 0.94001 0.53684 0.50717 0.0
H1136 H 0.82812 0.57942 0.50356 0.0
H1137 H 0.95264 0.58205 0.56967 0.0
H1138 H 0.89906 0.55258 0.50578 0.0
H1139 H 0.88233 0.6137 0.56418 0.0
C1140 C 0.84729 0.61596 0.54869 0.0
C1141 C 0.83149 0.60667 0.5315 0.0
C1142 C 0.91068 0.55904 0.51989 0.0
C1143 C 0.87793 0.5869 0.53584 0.0
C1144 C 0.93417 0.55004 0.5207 0.0
C1145 C 0.9499 0.55812 0.53857 0.0
C1146 C 0.9027 0.57644 0.53696 0.0
C1147 C 0.94116 0.57527 0.5556 0.0
C1148 C 0.87042 0.60611 0.55096 0.0
C1149 C 0.83959 0.58722 0.51704 0.0
N1150 N 0.91819 0.58394 0.5543 0.0
N1151 N 0.86221 0.57809 0.51947 0.0
H1152 H 0.22568 0.04676 0.31727 0.0
H1153 H 0.25348 0.17897 0.26503 0.0
H1154 H 0.22205 0.06718 0.23977 0.0
H1155 H 0.24494 0.16103 0.34305 0.0
H1156 H 0.24633 0.13718 0.25515 0.0
H1157 H 0.23823 0.08736 0.32656 0.0
C1158 C 0.22782 0.05968 0.30214 0.0
C1159 C 0.22258 0.05362 0.27771 0.0
C1160 C 0.24604 0.1424 0.27443 0.0
C1161 C 0.23672 0.1002 0.28831 0.0
C1162 C 0.24991 0.16635 0.28012 0.0
C1163 C 0.24961 0.17367 0.30497 0.0
C1164 C 0.24192 0.12556 0.29369 0.0
C1165 C 0.24551 0.15624 0.32368 0.0
C1166 C 0.23486 0.08291 0.3075 0.0
C1167 C 0.22575 0.0711 0.25888 0.0
N1168 N 0.24178 0.13301 0.31765 0.0
N1169 N 0.23245 0.09367 0.2646 0.0
H1170 H 0.3167 0.91918 0.48233 0.0
H1171 H 0.4142 0.99683 0.55007 0.0
H1172 H 0.31939 0.92637 0.56189 0.0
H1173 H 0.4127 0.98893 0.47058 0.0
H1174 H 0.37958 0.9708 0.55467 0.0
H1175 H 0.35214 0.94426 0.47756 0.0
C1176 C 0.3248 0.92594 0.49881 0.0
C1177 C 0.31505 0.92072 0.52256 0.0
C1178 C 0.38681 0.97474 0.53621 0.0
C1179 C 0.35551 0.94952 0.5172 0.0
C1180 C 0.40667 0.98953 0.53357 0.0
C1181 C 0.41645 0.99499 0.5099 0.0
C1182 C 0.3766 0.96531 0.51501 0.0
C1183 C 0.40561 0.98539 0.48915 0.0
C1184 C 0.34501 0.9403 0.49606 0.0
C1185 C 0.32629 0.92996 0.54323 0.0
N1186 N 0.38628 0.97096 0.4922 0.0
N1187 N 0.34589 0.94396 0.54006 0.0
H1188 H 0.90071 0.64412 0.25084 0.0
H1189 H 0.78006 0.71714 0.22882 0.0
H1190 H 0.8337 0.61373 0.22965 0.0
H1191 H 0.84314 0.74761 0.25982 0.0
H1192 H 0.80399 0.6822 0.21614 0.0
H1193 H 0.88425 0.68442 0.24192 0.0
C1194 C 0.88273 0.64594 0.24388 0.0
C1195 C 0.8682 0.62581 0.2417 0.0
C1196 C 0.81271 0.69669 0.22537 0.0
C1197 C 0.84947 0.67138 0.23137 0.0
C1198 C 0.79904 0.7166 0.23265 0.0
C1199 C 0.80951 0.73484 0.24608 0.0
C1200 C 0.83686 0.69486 0.23203 0.0
C1201 C 0.83428 0.73361 0.24999 0.0
C1202 C 0.87337 0.66886 0.23878 0.0
C1203 C 0.84519 0.62895 0.23229 0.0
N1204 N 0.84706 0.7136 0.2435 0.0
N1205 N 0.83641 0.65135 0.22779 0.0
H1206 H 0.7333 0.44061 0.84821 0.0
H1207 H 0.71665 0.3108 0.79233 0.0
H1208 H 0.67214 0.41998 0.80647 0.0
H1209 H 0.77208 0.32621 0.84382 0.0
H1210 H 0.69857 0.35016 0.80021 0.0
H1211 H 0.74631 0.39833 0.85007 0.0
C1212 C 0.72245 0.42719 0.83974 0.0
C1213 C 0.70185 0.43386 0.82679 0.0
C1214 C 0.71456 0.34491 0.81 0.0
C1215 C 0.71663 0.38568 0.82873 0.0
C1216 C 0.72493 0.32245 0.80543 0.0
C1217 C 0.74605 0.31539 0.8172 0.0
C1218 C 0.72556 0.36062 0.82619 0.0
C1219 C 0.75586 0.33106 0.83423 0.0
C1220 C 0.72988 0.40308 0.8408 0.0
C1221 C 0.68838 0.41573 0.8163 0.0
N1222 N 0.7457 0.35313 0.83798 0.0
N1223 N 0.69615 0.39254 0.81726 0.0
H1224 H 0.02197 0.88379 0.89794 0.0
H1225 H 0.02881 0.95064 0.02871 0.0
H1226 H 0.02041 0.84524 0.96809 0.0
H1227 H 0.0268 0.98721 0.95756 0.0
H1228 H 0.02728 0.91194 0.0075 0.0
H1229 H 0.02499 0.92145 0.91995 0.0
C1230 C 0.02225 0.88316 0.91803 0.0
C1231 C 0.02089 0.86108 0.93107 0.0
C1232 C 0.02727 0.92843 0.99654 0.0
C1233 C 0.02444 0.90476 0.9567 0.0
C1234 C 0.02825 0.95059 0.00864 0.0
C1235 C 0.02801 0.97239 0.99497 0.0
C1236 C 0.02607 0.92792 0.9705 0.0
C1237 C 0.02709 0.97101 0.96898 0.0
C1238 C 0.02399 0.90482 0.93064 0.0
C1239 C 0.02138 0.86172 0.95717 0.0
N1240 N 0.02613 0.94929 0.9577 0.0
N1241 N 0.02311 0.88315 0.96909 0.0
H1242 H 0.95307 0.28613 0.71472 0.0
H1243 H 0.8113 0.29215 0.72534 0.0
H1244 H 0.90906 0.30548 0.65262 0.0
H1245 H 0.85703 0.28779 0.78867 0.0
H1246 H 0.84641 0.30067 0.69871 0.0
H1247 H 0.91785 0.289 0.74227 0.0
C1248 C 0.93595 0.29094 0.70686 0.0
C1249 C 0.9339 0.29527 0.68129 0.0
C1250 C 0.84869 0.29827 0.71849 0.0
C1251 C 0.89347 0.29872 0.7128 0.0
C1252 C 0.82866 0.29347 0.73373 0.0
C1253 C 0.83135 0.28883 0.75919 0.0
C1254 C 0.87152 0.29817 0.72881 0.0
C1255 C 0.85418 0.29095 0.76909 0.0
C1256 C 0.91587 0.29279 0.72265 0.0
C1257 C 0.91135 0.3018 0.6722 0.0
N1258 N 0.87347 0.29508 0.75379 0.0
N1259 N 0.8919 0.30309 0.68795 0.0
H1260 H 0.46097 0.214 0.4517 0.0
H1261 H 0.54498 0.11919 0.52416 0.0
H1262 H 0.53717 0.2237 0.45803 0.0
H1263 H 0.47315 0.10407 0.50186 0.0
H1264 H 0.54181 0.15898 0.50389 0.0
H1265 H 0.4645 0.17548 0.47374 0.0
C1266 C 0.47849 0.20813 0.4578 0.0
C1267 C 0.49881 0.2223 0.45286 0.0
C1268 C 0.52672 0.14697 0.50351 0.0
C1269 C 0.50296 0.17775 0.47843 0.0
C1270 C 0.52846 0.12426 0.51521 0.0
C1271 C 0.50928 0.10812 0.51482 0.0
C1272 C 0.50555 0.15384 0.4915 0.0
C1273 C 0.48842 0.11577 0.5027 0.0
C1274 C 0.48049 0.18599 0.47037 0.0
C1275 C 0.52099 0.21348 0.46131 0.0
N1276 N 0.48712 0.13797 0.49164 0.0
N1277 N 0.52247 0.19185 0.47368 0.0
H1278 H 0.55522 0.80397 0.21638 0.0
H1279 H 0.66027 0.71127 0.24631 0.0
H1280 H 0.54952 0.72745 0.20613 0.0
H1281 H 0.65911 0.7851 0.26999 0.0
H1282 H 0.61872 0.71607 0.23391 0.0
H1283 H 0.59225 0.79689 0.23849 0.0
C1284 C 0.56167 0.78564 0.219 0.0
C1285 C 0.54951 0.76628 0.20915 0.0
C1286 C 0.62751 0.73115 0.24204 0.0
C1287 C 0.59194 0.75806 0.23421 0.0
C1288 C 0.65123 0.7284 0.24918 0.0
C1289 C 0.66335 0.74793 0.25884 0.0
C1290 C 0.61591 0.75361 0.24443 0.0
C1291 C 0.65074 0.76976 0.26199 0.0
C1292 C 0.58278 0.78161 0.23167 0.0
C1293 C 0.55846 0.7429 0.2133 0.0
N1294 N 0.62778 0.77207 0.25458 0.0
N1295 N 0.57937 0.73945 0.22525 0.0
H1296 H 0.01416 0.21921 0.61481 0.0
H1297 H 0.07944 0.17879 0.48883 0.0
H1298 H 0.05503 0.26928 0.56914 0.0
H1299 H 0.06047 0.13011 0.54915 0.0
H1300 H 0.0693 0.21285 0.51596 0.0
H1301 H 0.02814 0.18669 0.58811 0.0
C1302 C 0.02597 0.22339 0.59906 0.0
C1303 C 0.03347 0.24696 0.59418 0.0
C1304 C 0.06759 0.19467 0.52322 0.0
C1305 C 0.04966 0.20977 0.56359 0.0
C1306 C 0.0735 0.1753 0.50784 0.0
C1307 C 0.07035 0.15166 0.51666 0.0
C1308 C 0.05838 0.19017 0.54738 0.0
C1309 C 0.06251 0.14805 0.54139 0.0
C1310 C 0.03411 0.20478 0.58393 0.0
C1311 C 0.04889 0.25131 0.57357 0.0
N1312 N 0.05656 0.16707 0.55577 0.0
N1313 N 0.05645 0.23285 0.55891 0.0
H1314 H 0.57241 0.26739 0.34735 0.0
H1315 H 0.70774 0.31279 0.33135 0.0
H1316 H 0.60822 0.31029 0.40058 0.0
H1317 H 0.68238 0.25402 0.28841 0.0
H1318 H 0.66949 0.31421 0.35404 0.0
H1319 H 0.61042 0.26428 0.32289 0.0
C1320 C 0.58816 0.27621 0.35387 0.0
C1321 C 0.58702 0.28914 0.37612 0.0
C1322 C 0.67217 0.30092 0.33972 0.0
C1323 C 0.63047 0.28573 0.34818 0.0
C1324 C 0.6941 0.30012 0.32662 0.0
C1325 C 0.69845 0.28322 0.30783 0.0
C1326 C 0.654 0.28488 0.33406 0.0
C1327 C 0.67991 0.26728 0.30277 0.0
C1328 C 0.60987 0.27433 0.33995 0.0
C1329 C 0.60809 0.30008 0.38365 0.0
N1330 N 0.65843 0.26857 0.31572 0.0
N1331 N 0.62876 0.29821 0.36973 0.0
H1332 H 0.50255 0.89094 0.17672 0.0
H1333 H 0.49838 0.95873 0.04482 0.0
H1334 H 0.49812 0.85504 0.10653 0.0
H1335 H 0.51237 0.99454 0.11335 0.0
H1336 H 0.49371 0.92101 0.06803 0.0
H1337 H 0.50217 0.92968 0.15451 0.0
C1338 C 0.50147 0.89121 0.15667 0.0
C1339 C 0.50052 0.86978 0.14342 0.0
C1340 C 0.49769 0.93715 0.07801 0.0
C1341 C 0.49994 0.91382 0.11803 0.0
C1342 C 0.50029 0.95868 0.06477 0.0
C1343 C 0.50592 0.97972 0.07717 0.0
C1344 C 0.50076 0.93668 0.10379 0.0
C1345 C 0.50814 0.97868 0.10305 0.0
C1346 C 0.50124 0.91329 0.14403 0.0
C1347 C 0.49905 0.87113 0.11749 0.0
N1348 N 0.50567 0.95744 0.11552 0.0
N1349 N 0.49883 0.89278 0.10564 0.0
H1350 H 0.94667 0.7333 0.86244 0.0
H1351 H 0.84581 0.81604 0.79843 0.0
H1352 H 0.94927 0.81078 0.86246 0.0
H1353 H 0.83536 0.74191 0.82032 0.0
H1354 H 0.88574 0.81421 0.81679 0.0
H1355 H 0.90808 0.73594 0.84221 0.0
C1356 C 0.93921 0.75093 0.85813 0.0
C1357 C 0.95139 0.77185 0.86431 0.0
C1358 C 0.87471 0.79834 0.81747 0.0
C1359 C 0.90683 0.77499 0.84076 0.0
C1360 C 0.85196 0.79931 0.80683 0.0
C1361 C 0.8371 0.77908 0.80775 0.0
C1362 C 0.88289 0.77688 0.82882 0.0
C1363 C 0.84607 0.75798 0.81913 0.0
C1364 C 0.91704 0.7524 0.8466 0.0
C1365 C 0.94057 0.79415 0.85819 0.0
N1366 N 0.86827 0.75743 0.82908 0.0
N1367 N 0.91901 0.79513 0.84671 0.0
H1368 H 0.91119 0.03617 0.82332 0.0
H1369 H 0.02228 0.08328 0.89806 0.0
H1370 H 0.97932 0.0545 0.78839 0.0
H1371 H 0.96221 0.04697 0.93327 0.0
H1372 H 0.00498 0.07669 0.85759 0.0
H1373 H 0.92803 0.04337 0.86387 0.0
C1374 C 0.9297 0.04165 0.82418 0.0
C1375 C 0.94391 0.04469 0.80248 0.0
C1376 C 0.99559 0.07016 0.87418 0.0
C1377 C 0.96317 0.05314 0.8487 0.0
C1378 C 0.00536 0.07409 0.89726 0.0
C1379 C 0.99366 0.0656 0.91899 0.0
C1380 C 0.97387 0.05787 0.87288 0.0
C1381 C 0.97192 0.05352 0.91692 0.0
C1382 C 0.9393 0.04572 0.84732 0.0
C1383 C 0.96778 0.05183 0.80467 0.0
N1384 N 0.96268 0.05006 0.89425 0.0
N1385 N 0.97664 0.05592 0.82739 0.0
H1386 H 0.72569 0.21174 0.56193 0.0
H1387 H 0.78216 0.26242 0.68463 0.0
H1388 H 0.80176 0.21609 0.57377 0.0
H1389 H 0.70871 0.23969 0.68044 0.0
H1390 H 0.78794 0.25492 0.64041 0.0
H1391 H 0.7178 0.23175 0.60151 0.0
C1392 C 0.74073 0.2173 0.57262 0.0
C1393 C 0.76442 0.21191 0.56481 0.0
C1394 C 0.7705 0.25178 0.64914 0.0
C1395 C 0.75551 0.23467 0.60995 0.0
C1396 C 0.76722 0.25588 0.67444 0.0
C1397 C 0.74506 0.25109 0.68643 0.0
C1398 C 0.75149 0.24288 0.63569 0.0
C1399 C 0.72611 0.24349 0.67202 0.0
C1400 C 0.73621 0.22861 0.59523 0.0
C1401 C 0.78322 0.21958 0.57932 0.0
N1402 N 0.72984 0.23934 0.64743 0.0
N1403 N 0.77836 0.23038 0.60133 0.0
H1404 H 0.58519 0.02781 0.34823 0.0
H1405 H 0.58916 0.03573 0.49597 0.0
H1406 H 0.64992 0.03937 0.38828 0.0
H1407 H 0.52479 0.02142 0.4563 0.0
H1408 H 0.6118 0.03678 0.45661 0.0
H1409 H 0.56252 0.0263 0.38763 0.0
C1410 C 0.5946 0.03024 0.3653 0.0
C1411 C 0.61948 0.03364 0.36502 0.0
C1412 C 0.59275 0.03328 0.45652 0.0
C1413 C 0.59374 0.03167 0.41009 0.0
C1414 C 0.57983 0.03255 0.47899 0.0
C1415 C 0.55506 0.02852 0.47936 0.0
C1416 C 0.58078 0.03002 0.43429 0.0
C1417 C 0.54388 0.02458 0.45684 0.0
C1418 C 0.58168 0.02924 0.38778 0.0
C1419 C 0.63076 0.03665 0.38765 0.0
N1420 N 0.55683 0.02556 0.43516 0.0
N1421 N 0.6178 0.03551 0.40931 0.0
H1422 H 0.79386 0.89278 0.10611 0.0
H1423 H 0.72917 0.80358 0.20497 0.0
H1424 H 0.72537 0.86021 0.09472 0.0
H1425 H 0.79499 0.84018 0.219 0.0
H1426 H 0.72782 0.82373 0.16432 0.0
H1427 H 0.79511 0.87308 0.14707 0.0
C1428 C 0.77911 0.88145 0.11215 0.0
C1429 C 0.75948 0.87818 0.09684 0.0
C1430 C 0.74254 0.82741 0.1763 0.0
C1431 C 0.76079 0.85554 0.14388 0.0
C1432 C 0.74331 0.81591 0.19957 0.0
C1433 C 0.76222 0.82015 0.21552 0.0
C1434 C 0.76086 0.84327 0.16875 0.0
C1435 C 0.78004 0.83634 0.2074 0.0
C1436 C 0.77981 0.87024 0.1356 0.0
C1437 C 0.74088 0.86331 0.1058 0.0
N1438 N 0.77895 0.84722 0.18461 0.0
N1439 N 0.74201 0.85257 0.12863 0.0
H1440 H 0.9776 0.00871 0.66639 0.0
H1441 H 0.05319 0.07698 0.56106 0.0
H1442 H 0.01032 0.07739 0.67742 0.0
H1443 H 0.0246 0.0058 0.55379 0.0
H1444 H 0.04343 0.07508 0.6056 0.0
H1445 H 0.00025 0.00484 0.62735 0.0
C1446 C 0.98976 0.0229 0.66066 0.0
C1447 C 0.99179 0.0436 0.67487 0.0
C1448 C 0.03967 0.05973 0.59431 0.0
C1449 C 0.01761 0.03945 0.63002 0.0
C1450 C 0.04526 0.06079 0.5689 0.0
C1451 C 0.03927 0.04169 0.55366 0.0
C1452 C 0.02794 0.03949 0.60441 0.0
C1453 C 0.02916 0.02111 0.56479 0.0
C1454 C 0.00276 0.02066 0.63838 0.0
C1455 C 0.00809 0.06123 0.66684 0.0
N1456 N 0.02353 0.02069 0.58942 0.0
N1457 N 0.02011 0.05896 0.64466 0.0
H1458 H 0.78851 0.1705 0.43534 0.0
H1459 H 0.80197 0.28779 0.35006 0.0
H1460 H 0.81849 0.2366 0.46059 0.0
H1461 H 0.78169 0.21874 0.32248 0.0
H1462 H 0.81082 0.26875 0.38991 0.0
H1463 H 0.78803 0.18727 0.39329 0.0
C1464 C 0.79505 0.18854 0.43202 0.0
C1465 C 0.80332 0.20229 0.45152 0.0
C1466 C 0.8047 0.25771 0.37506 0.0
C1467 C 0.80282 0.22159 0.40343 0.0
C1468 C 0.79965 0.26857 0.35229 0.0
C1469 C 0.79081 0.25486 0.33304 0.0
C1470 C 0.80065 0.23304 0.37865 0.0
C1471 C 0.7883 0.23001 0.33689 0.0
C1472 C 0.79488 0.19806 0.40798 0.0
C1473 C 0.81182 0.22544 0.44612 0.0
N1474 N 0.79293 0.21994 0.35938 0.0
N1475 N 0.81115 0.23446 0.42258 0.0
H1476 H 0.63632 0.06088 0.25388 0.0
H1477 H 0.55497 0.01987 0.14327 0.0
H1478 H 0.6313 0.98733 0.23029 0.0
H1479 H 0.57218 0.09404 0.15559 0.0
H1480 H 0.5796 0.00782 0.17799 0.0
H1481 H 0.60996 0.07347 0.22053 0.0
C1482 C 0.62969 0.04736 0.24167 0.0
C1483 C 0.63604 0.02299 0.24484 0.0
C1484 C 0.57801 0.02674 0.17313 0.0
C1485 C 0.60576 0.03732 0.20679 0.0
C1486 C 0.564 0.03365 0.15323 0.0
C1487 C 0.56182 0.058 0.14624 0.0
C1488 C 0.58986 0.04429 0.18632 0.0
C1489 C 0.57334 0.0751 0.16036 0.0
C1490 C 0.61466 0.0546 0.22264 0.0
C1491 C 0.62694 0.0063 0.22847 0.0
N1492 N 0.587 0.0679 0.1797 0.0
N1493 N 0.6122 0.01378 0.21017 0.0
H1494 H 0.7668 0.85884 0.97773 0.0
H1495 H 0.76114 0.85726 0.82897 0.0
H1496 H 0.77008 0.92212 0.9304 0.0
H1497 H 0.75621 0.7929 0.87454 0.0
H1498 H 0.76303 0.8811 0.8664 0.0
H1499 H 0.76207 0.83421 0.9408 0.0
C1500 C 0.76656 0.86757 0.95962 0.0
C1501 C 0.76892 0.89265 0.95725 0.0
C1502 C 0.76139 0.86178 0.86831 0.0
C1503 C 0.7634 0.86454 0.91487 0.0
C1504 C 0.76023 0.84811 0.84687 0.0
C1505 C 0.75849 0.82296 0.8485 0.0
C1506 C 0.76096 0.85034 0.89178 0.0
C1507 C 0.75745 0.81222 0.87233 0.0
C1508 C 0.7638 0.85349 0.93854 0.0
C1509 C 0.76838 0.90291 0.93326 0.0
N1510 N 0.75884 0.82594 0.893 0.0
N1511 N 0.76572 0.88886 0.91312 0.0
H1512 H 0.83843 0.96569 0.00212 0.0
H1513 H 0.95124 0.01331 0.07482 0.0
H1514 H 0.84206 0.96754 0.08196 0.0
H1515 H 0.94415 0.02424 0.9959 0.0
H1516 H 0.91114 0.99643 0.07724 0.0
H1517 H 0.87688 0.98674 -0.00119 0.0
C1518 C 0.84721 0.97057 0.01894 0.0
C1519 C 0.83692 0.96471 0.04237 0.0
C1520 C 0.91819 0.00267 0.05938 0.0
C1521 C 0.88102 0.98875 0.03868 0.0
C1522 C 0.94116 0.01237 0.05798 0.0
C1523 C 0.95117 0.02028 0.03512 0.0
C1524 C 0.90501 0.00047 0.03772 0.0
C1525 C 0.93714 0.01851 0.01395 0.0
C1526 C 0.86915 0.98264 0.01703 0.0
C1527 C 0.84919 0.97157 0.06349 0.0
N1528 N 0.91487 0.00861 0.01572 0.0
N1529 N 0.87053 0.98304 0.06113 0.0
H1530 H 0.34489 0.62516 0.02873 0.0
H1531 H 0.48548 0.63311 0.99695 0.0
H1532 H 0.38137 0.69212 0.01434 0.0
H1533 H 0.44582 0.56697 -0.00123 0.0
H1534 H 0.4485 0.65509 0.00806 0.0
H1535 H 0.38304 0.60361 0.02338 0.0
C1536 C 0.36096 0.63536 0.02467 0.0
C1537 C 0.35993 0.66045 0.02168 0.0
C1538 C 0.44792 0.63577 0.00602 0.0
C1539 C 0.40358 0.63588 0.01537 0.0
C1540 C 0.46898 0.62323 -0.00037 0.0
C1541 C 0.46864 0.59821 0.99673 0.0
C1542 C 0.42646 0.62316 0.00965 0.0
C1543 C 0.44685 0.58628 0.00061 0.0
C1544 C 0.38272 0.62303 0.02152 0.0
C1545 C 0.38134 0.67275 0.01659 0.0
N1546 N 0.42661 0.59888 0.00685 0.0
N1547 N 0.40231 0.6603 0.01341 0.0
H1548 H 0.23814 0.54709 0.7339 0.0
H1549 H 0.27564 0.6764 0.77753 0.0
H1550 H 0.24184 0.56851 0.81031 0.0
H1551 H 0.25485 0.65993 0.70325 0.0
H1552 H 0.27609 0.63356 0.78786 0.0
H1553 H 0.25795 0.58435 0.72099 0.0
C1554 C 0.24377 0.55928 0.74801 0.0
C1555 C 0.23777 0.55515 0.77315 0.0
C1556 C 0.27174 0.63931 0.7692 0.0
C1557 C 0.2601 0.59764 0.75854 0.0
C1558 C 0.2712 0.66377 0.76337 0.0
C1559 C 0.26444 0.67175 0.73971 0.0
C1560 C 0.26534 0.62274 0.75129 0.0
C1561 C 0.25987 0.65454 0.72179 0.0
C1562 C 0.25493 0.58059 0.74061 0.0
C1563 C 0.24563 0.57138 0.79067 0.0
N1564 N 0.26001 0.63081 0.72807 0.0
N1565 N 0.25602 0.59218 0.783 0.0
H1566 H 0.18206 0.42439 0.49804 0.0
H1567 H 0.10013 0.52518 0.56434 0.0
H1568 H 0.2114 0.47435 0.5491 0.0
H1569 H 0.08061 0.4875 0.49867 0.0
H1570 H 0.14011 0.50577 0.56155 0.0
H1571 H 0.14381 0.44601 0.50069 0.0
C1572 C 0.18049 0.43995 0.50984 0.0
C1573 C 0.20005 0.44753 0.52337 0.0
C1574 C 0.12706 0.50192 0.54772 0.0
C1575 C 0.15592 0.47249 0.5266 0.0
C1576 C 0.10425 0.51295 0.54931 0.0
C1577 C 0.08692 0.50798 0.53173 0.0
C1578 C 0.13244 0.48561 0.52859 0.0
C1579 C 0.09329 0.49196 0.51267 0.0
C1580 C 0.15859 0.45237 0.51129 0.0
C1581 C 0.19683 0.46792 0.53828 0.0
N1582 N 0.11537 0.4813 0.51172 0.0
N1583 N 0.17513 0.47963 0.53963 0.0
H1584 H 0.921 0.94768 0.7556 0.0
H1585 H 0.78999 0.90439 0.72106 0.0
H1586 H 0.86995 0.99238 0.71656 0.0
H1587 H 0.83913 0.86224 0.7651 0.0
H1588 H 0.81952 0.93644 0.71793 0.0
H1589 H 0.89161 0.91559 0.75803 0.0
C1590 C 0.90364 0.95073 0.74748 0.0
C1591 C 0.89791 0.97274 0.73588 0.0
C1592 C 0.82379 0.92019 0.72834 0.0
C1593 C 0.86419 0.93613 0.73862 0.0
C1594 C 0.80699 0.90188 0.73002 0.0
C1595 C 0.81205 0.88068 0.74344 0.0
C1596 C 0.84586 0.91718 0.74003 0.0
C1597 C 0.83428 0.87843 0.75492 0.0
C1598 C 0.88684 0.93242 0.74892 0.0
C1599 C 0.87512 0.9757 0.72571 0.0
N1600 N 0.85037 0.89643 0.75291 0.0
N1601 N 0.85909 0.9576 0.72732 0.0
H1602 H 0.73836 0.12012 0.58933 0.0
H1603 H 0.62149 0.0655 0.53034 0.0
H1604 H 0.72896 0.11277 0.51055 0.0
H1605 H 0.62731 0.07945 0.60851 0.0
H1606 H 0.66207 0.08008 0.52317 0.0
H1607 H 0.69917 0.10196 0.59718 0.0
C1608 C 0.72816 0.1145 0.57369 0.0
C1609 C 0.73687 0.11808 0.54924 0.0
C1610 C 0.65449 0.07995 0.54191 0.0
C1611 C 0.69203 0.09744 0.55809 0.0
C1612 C 0.6312 0.0718 0.546 0.0
C1613 C 0.62084 0.07145 0.57006 0.0
C1614 C 0.66759 0.08782 0.562 0.0
C1615 C 0.63461 0.07926 0.5897 0.0
C1616 C 0.70576 0.10422 0.57819 0.0
C1617 C 0.72289 0.11047 0.5297 0.0
N1618 N 0.65727 0.0872 0.58522 0.0
N1619 N 0.70112 0.10059 0.53455 0.0
H1620 H 0.21351 0.45882 0.8345 0.0
H1621 H 0.20274 0.32337 0.79653 0.0
H1622 H 0.14735 0.42889 0.81033 0.0
H1623 H 0.26497 0.35331 0.82975 0.0
H1624 H 0.17956 0.35936 0.80816 0.0
H1625 H 0.23006 0.41844 0.83962 0.0
C1626 C 0.20242 0.44363 0.83043 0.0
C1627 C 0.17928 0.44706 0.82147 0.0
C1628 C 0.19815 0.35782 0.81332 0.0
C1629 C 0.19816 0.40076 0.82694 0.0
C1630 C 0.21139 0.3373 0.8067 0.0
C1631 C 0.23595 0.33572 0.81164 0.0
C1632 C 0.20968 0.37677 0.82482 0.0
C1633 C 0.24621 0.35408 0.82506 0.0
C1634 C 0.21181 0.42056 0.83347 0.0
C1635 C 0.16542 0.42687 0.81701 0.0
N1636 N 0.23311 0.37401 0.83085 0.0
N1637 N 0.17528 0.40446 0.8193 0.0
H1638 H 0.42029 0.64576 0.21307 0.0
H1639 H 0.28194 0.68608 0.21504 0.0
H1640 H 0.36378 0.5957 0.19991 0.0
H1641 H 0.3361 0.71629 0.26023 0.0
H1642 H 0.31275 0.65849 0.19697 0.0
H1643 H 0.39019 0.678 0.2167 0.0
C1644 C 0.40162 0.64161 0.21045 0.0
C1645 C 0.39446 0.61792 0.20677 0.0
C1646 C 0.31779 0.67143 0.21062 0.0
C1647 C 0.36005 0.65468 0.21088 0.0
C1648 C 0.30033 0.68704 0.22085 0.0
C1649 C 0.3066 0.70296 0.23938 0.0
C1650 C 0.34155 0.67249 0.21858 0.0
C1651 C 0.33058 0.70383 0.24631 0.0
C1652 C 0.38447 0.66 0.21259 0.0
C1653 C 0.37 0.61366 0.20326 0.0
N1654 N 0.34719 0.68879 0.23592 0.0
N1655 N 0.35357 0.63185 0.20572 0.0
H1656 H 0.52851 0.70379 0.6465 0.0
H1657 H 0.50055 0.62285 0.52855 0.0
H1658 H 0.50457 0.73195 0.57622 0.0
H1659 H 0.52576 0.59209 0.59721 0.0
H1660 H 0.50096 0.66263 0.54678 0.0
H1661 H 0.52709 0.66288 0.62988 0.0
C1662 C 0.52299 0.70145 0.6276 0.0
C1663 C 0.51669 0.72155 0.6128 0.0
C1664 C 0.50633 0.64725 0.558 0.0
C1665 C 0.51493 0.67457 0.59363 0.0
C1666 C 0.50603 0.62437 0.54758 0.0
C1667 C 0.51308 0.60385 0.56129 0.0
C1668 C 0.51381 0.65 0.58247 0.0
C1669 C 0.52006 0.60728 0.5859 0.0
C1670 C 0.52215 0.67804 0.61812 0.0
C1671 C 0.50964 0.7172 0.58843 0.0
N1672 N 0.52032 0.62985 0.59564 0.0
N1673 N 0.50896 0.69436 0.57972 0.0
H1674 H 0.63341 0.24343 0.92618 0.0
H1675 H 0.70851 0.20976 0.80361 0.0
H1676 H 0.60537 0.2409 0.85243 0.0
H1677 H 0.74085 0.23028 0.87181 0.0
H1678 H 0.66976 0.20744 0.82555 0.0
H1679 H 0.67169 0.22689 0.91001 0.0
C1680 C 0.63526 0.23923 0.90666 0.0
C1681 C 0.61644 0.24403 0.89048 0.0
C1682 C 0.68543 0.21194 0.83584 0.0
C1683 C 0.65975 0.22476 0.8721 0.0
C1684 C 0.70758 0.21313 0.82337 0.0
C1685 C 0.72773 0.22094 0.83577 0.0
C1686 C 0.68346 0.21881 0.86077 0.0
C1687 C 0.72562 0.22463 0.86145 0.0
C1688 C 0.65701 0.2297 0.8975 0.0
C1689 C 0.61961 0.23799 0.86544 0.0
N1690 N 0.70367 0.22412 0.87304 0.0
N1691 N 0.64092 0.22882 0.85699 0.0
H1692 H 0.97892 0.34895 0.09631 0.0
H1693 H 0.05743 0.46832 0.0794 0.0
H1694 H 0.04983 0.35425 0.12554 0.0
H1695 H 0.99106 0.4566 0.04251 0.0
H1696 H 0.05552 0.42714 0.09668 0.0
H1697 H 0.98352 0.38855 0.07679 0.0
C1698 C 0.99557 0.35837 0.09855 0.0
C1699 C 0.014 0.34808 0.11268 0.0
C1700 C 0.04146 0.43356 0.08468 0.0
C1701 C 0.01935 0.39403 0.09033 0.0
C1702 C 0.04255 0.4571 0.07478 0.0
C1703 C 0.02439 0.4661 0.0594 0.0
C1704 C 0.02199 0.41887 0.07935 0.0
C1705 C 0.00552 0.45061 0.0542 0.0
C1706 C 0.99818 0.38109 0.08734 0.0
C1707 C 0.03514 0.36134 0.11478 0.0
N1708 N 0.00479 0.42797 0.0642 0.0
N1709 N 0.03717 0.38364 0.1039 0.0
H1710 H 0.98909 0.80768 0.35483 0.0
H1711 H 0.87655 0.78309 0.27334 0.0
H1712 H 0.98742 0.75048 0.30172 0.0
H1713 H 0.883 0.84624 0.31784 0.0
H1714 H 0.91862 0.77305 0.28015 0.0
H1715 H 0.95208 0.8243 0.33838 0.0
C1716 C 0.98098 0.79869 0.33956 0.0
C1717 C 0.99108 0.77742 0.32988 0.0
C1718 C 0.91098 0.78927 0.2882 0.0
C1719 C 0.94861 0.79634 0.31102 0.0
C1720 C 0.88695 0.7949 0.28446 0.0
C1721 C 0.87629 0.81524 0.29551 0.0
C1722 C 0.92437 0.80394 0.30336 0.0
C1723 C 0.89061 0.83034 0.30916 0.0
C1724 C 0.95989 0.80828 0.3301 0.0
C1725 C 0.98008 0.76678 0.30984 0.0
N1726 N 0.91389 0.82417 0.31305 0.0
N1727 N 0.95918 0.77618 0.30129 0.0
H1728 H 0.48164 0.32814 0.94039 0.0
H1729 H 0.53842 0.45622 0.96451 0.0
H1730 H 0.55755 0.34234 0.93429 0.0
H1731 H 0.46257 0.44232 0.97191 0.0
H1732 H 0.54582 0.41408 0.95515 0.0
H1733 H 0.47447 0.3691 0.95466 0.0
C1734 C 0.49684 0.33979 0.94229 0.0
C1735 C 0.52021 0.3319 0.93592 0.0
C1736 C 0.52754 0.4202 0.95882 0.0
C1737 C 0.51209 0.37884 0.95203 0.0
C1738 C 0.52326 0.44436 0.96392 0.0
C1739 C 0.49977 0.45288 0.9687 0.0
C1740 C 0.5082 0.40438 0.95844 0.0
C1741 C 0.48093 0.43648 0.96838 0.0
C1742 C 0.49271 0.3632 0.95038 0.0
C1743 C 0.53922 0.34773 0.93886 0.0
N1744 N 0.48555 0.413 0.96322 0.0
N1745 N 0.53471 0.37052 0.94652 0.0
H1746 H 0.9313 0.25286 0.16159 0.0
H1747 H 0.84337 0.32108 0.25897 0.0
H1748 H 0.95681 0.30726 0.21008 0.0
H1749 H 0.82442 0.25843 0.21808 0.0
H1750 H 0.8841 0.31862 0.24009 0.0
H1751 H 0.8915 0.25688 0.18086 0.0
C1752 C 0.92859 0.2657 0.17634 0.0
C1753 C 0.94764 0.27972 0.18417 0.0
C1754 C 0.87098 0.30546 0.23527 0.0
C1755 C 0.90146 0.28452 0.20651 0.0
C1756 C 0.84768 0.3069 0.24596 0.0
C1757 C 0.83031 0.28994 0.24015 0.0
C1758 C 0.87695 0.28703 0.21848 0.0
C1759 C 0.83707 0.27192 0.22323 0.0
C1760 C 0.90572 0.26797 0.18741 0.0
C1761 C 0.94276 0.29601 0.20347 0.0
N1762 N 0.8597 0.271 0.21305 0.0
N1763 N 0.92016 0.29802 0.21393 0.0
H1764 H 0.01693 0.69427 0.41537 0.0
H1765 H 0.05106 0.61245 0.5319 0.0
H1766 H 0.0696 0.71542 0.46771 0.0
H1767 H 0.01941 0.58484 0.46614 0.0
H1768 H 0.05492 0.65168 0.5111 0.0
H1769 H 0.01356 0.65558 0.43693 0.0
C1770 C 0.02762 0.69087 0.43155 0.0
C1771 C 0.04365 0.70803 0.43974 0.0
C1772 C 0.04729 0.63696 0.50121 0.0
C1773 C 0.03996 0.66376 0.46434 0.0
C1774 C 0.0451 0.61461 0.51303 0.0
C1775 C 0.03489 0.59542 0.50069 0.0
C1776 C 0.0389 0.64015 0.47708 0.0
C1777 C 0.02746 0.59914 0.47628 0.0
C1778 C 0.02582 0.66871 0.44372 0.0
C1779 C 0.0571 0.70262 0.46076 0.0
N1780 N 0.02944 0.62117 0.46533 0.0
N1781 N 0.05496 0.68089 0.47239 0.0
H1782 H 0.58283 0.7398 0.7294 0.0
H1783 H 0.70111 0.81864 0.74358 0.0
H1784 H 0.592 0.80921 0.69379 0.0
H1785 H 0.68811 0.7521 0.78363 0.0
H1786 H 0.66129 0.81609 0.72568 0.0
H1787 H 0.62111 0.74445 0.74958 0.0
C1788 C 0.59282 0.7561 0.72583 0.0
C1789 C 0.58401 0.77411 0.70974 0.0
C1790 C 0.66707 0.80212 0.73851 0.0
C1791 C 0.62836 0.77954 0.73295 0.0
C1792 C 0.68984 0.80359 0.74882 0.0
C1793 C 0.69813 0.78558 0.76526 0.0
C1794 C 0.65235 0.78242 0.74447 0.0
C1795 C 0.68261 0.76647 0.77115 0.0
C1796 C 0.61478 0.75874 0.73744 0.0
C1797 C 0.59796 0.79482 0.70601 0.0
N1798 N 0.66065 0.76536 0.76072 0.0
N1799 N 0.61941 0.7969 0.7174 0.0
H1800 H 0.65779 0.51108 0.71329 0.0
H1801 H 0.54035 0.47053 0.64653 0.0
H1802 H 0.61636 0.44908 0.73588 0.0
H1803 H 0.59101 0.51939 0.61161 0.0
H1804 H 0.56793 0.4635 0.67996 0.0
H1805 H 0.63406 0.51495 0.67587 0.0
C1806 C 0.64396 0.49808 0.71021 0.0
C1807 C 0.63884 0.47989 0.72785 0.0
C1808 C 0.5731 0.47567 0.66491 0.0
C1809 C 0.61154 0.48443 0.68543 0.0
C1810 C 0.55733 0.47968 0.64573 0.0
C1811 C 0.56333 0.49551 0.62604 0.0
C1812 C 0.595 0.48775 0.66468 0.0
C1813 C 0.58545 0.50726 0.62648 0.0
C1814 C 0.6304 0.50035 0.6889 0.0
C1815 C 0.62079 0.46352 0.72291 0.0
N1816 N 0.60048 0.50319 0.64556 0.0
N1817 N 0.60761 0.46635 0.7023 0.0
H1818 H 0.80433 0.3908 0.96656 0.0
H1819 H 0.78219 0.26074 0.91609 0.0
H1820 H 0.75102 0.34357 -0.00066 0.0
H1821 H 0.8461 0.30076 0.89812 0.0
H1822 H 0.7719 0.28927 0.94896 0.0
H1823 H 0.82092 0.35722 0.9427 0.0
C1824 C 0.7961 0.37335 0.96872 0.0
C1825 C 0.77608 0.37001 0.98469 0.0
C1826 C 0.78845 0.29155 0.93821 0.0
C1827 C 0.79504 0.33148 0.95755 0.0
C1828 C 0.79431 0.27525 0.91954 0.0
C1829 C 0.81487 0.27858 0.90436 0.0
C1830 C 0.80307 0.31153 0.94134 0.0
C1831 C 0.83013 0.29755 0.90951 0.0
C1832 C 0.80572 0.35413 0.95526 0.0
C1833 C 0.76637 0.34695 0.98707 0.0
N1834 N 0.82367 0.31362 0.92729 0.0
N1835 N 0.77579 0.32858 0.97342 0.0
H1836 H 0.9578 0.54474 0.23014 0.0
H1837 H 0.94867 0.5373 0.08273 0.0
H1838 H 0.89214 0.53009 0.1929 0.0
H1839 H 0.01384 0.55362 0.12011 0.0
H1840 H 0.92761 0.53433 0.12297 0.0
H1841 H 0.97905 0.54621 0.18996 0.0
C1842 C 0.94791 0.54154 0.21354 0.0
C1843 C 0.92314 0.53749 0.21483 0.0
C1844 C 0.94649 0.53867 0.12235 0.0
C1845 C 0.94724 0.53948 0.16883 0.0
C1846 C 0.95848 0.54054 0.09938 0.0
C1847 C 0.98304 0.5457 0.0981 0.0
C1848 C 0.95918 0.54195 0.14413 0.0
C1849 C 0.99489 0.54962 0.12025 0.0
C1850 C 0.96002 0.54253 0.19059 0.0
C1851 C 0.91123 0.5334 0.19274 0.0
N1852 N 0.98285 0.54756 0.14239 0.0
N1853 N 0.92338 0.53467 0.1706 0.0
H1854 H 0.75516 0.65259 0.4377 0.0
H1855 H 0.79952 0.77069 0.36369 0.0
H1856 H 0.7858 0.71232 0.47513 0.0
H1857 H 0.75051 0.7195 0.33489 0.0
H1858 H 0.79903 0.7481 0.40341 0.0
H1859 H 0.75764 0.67537 0.39874 0.0
C1860 C 0.76246 0.67052 0.43777 0.0
C1861 C 0.77022 0.68053 0.45985 0.0
C1862 C 0.78844 0.74186 0.38834 0.0
C1863 C 0.77325 0.70685 0.41489 0.0
C1864 C 0.78881 0.75465 0.36563 0.0
C1865 C 0.77501 0.74703 0.34588 0.0
C1866 C 0.77445 0.72111 0.39117 0.0
C1867 C 0.76137 0.72617 0.34954 0.0
C1868 C 0.76382 0.68357 0.41544 0.0
C1869 C 0.77949 0.70392 0.45861 0.0
N1870 N 0.7615 0.71398 0.37161 0.0
N1871 N 0.78083 0.71626 0.4365 0.0
H1872 H 0.59279 0.49898 0.82283 0.0
H1873 H 0.54886 0.60171 0.90688 0.0
H1874 H 0.61235 0.57261 0.8076 0.0
H1875 H 0.5122 0.53406 0.90388 0.0
H1876 H 0.56605 0.59459 0.86549 0.0
H1877 H 0.55813 0.51315 0.84738 0.0
C1878 C 0.58956 0.51816 0.82442 0.0
C1879 C 0.6057 0.53467 0.81376 0.0
C1880 C 0.55368 0.58162 0.87355 0.0
C1881 C 0.5663 0.55107 0.84204 0.0
C1882 C 0.54381 0.58571 0.89721 0.0
C1883 C 0.52982 0.56801 0.9092 0.0
C1884 C 0.54982 0.55953 0.86216 0.0
C1885 C 0.52348 0.54787 0.89562 0.0
C1886 C 0.56966 0.52629 0.83826 0.0
C1887 C 0.60047 0.55931 0.81588 0.0
N1888 N 0.53412 0.54382 0.87308 0.0
N1889 N 0.58151 0.56681 0.83034 0.0
H1890 H 0.72016 0.40782 0.11781 0.0
H1891 H 0.72535 0.2853 0.19543 0.0
H1892 H 0.70466 0.3386 0.08743 0.0
H1893 H 0.73991 0.35489 0.22558 0.0
H1894 H 0.71138 0.3051 0.15766 0.0
H1895 H 0.72046 0.38954 0.15919 0.0
C1896 C 0.71646 0.38881 0.1199 0.0
C1897 C 0.71286 0.37458 0.09912 0.0
C1898 C 0.71738 0.31605 0.17264 0.0
C1899 C 0.71349 0.35349 0.14639 0.0
C1900 C 0.72542 0.30476 0.19419 0.0
C1901 C 0.73416 0.31847 0.2135 0.0
C1902 C 0.71823 0.3412 0.17034 0.0
C1903 C 0.73359 0.34361 0.21101 0.0
C1904 C 0.71666 0.37838 0.14355 0.0
C1905 C 0.70779 0.35017 0.10293 0.0
N1906 N 0.72602 0.35416 0.18968 0.0
N1907 N 0.70866 0.34028 0.12611 0.0
H1908 H 0.90466 0.48706 0.32674 0.0
H1909 H 0.985 0.54748 0.42844 0.0
H1910 H 0.91361 0.56371 0.33295 0.0
H1911 H 0.97501 0.47093 0.4236 0.0
H1912 H 0.95989 0.55364 0.39255 0.0
H1913 H 0.93122 0.48063 0.36152 0.0
C1914 C 0.91217 0.50254 0.33545 0.0
C1915 C 0.90689 0.52596 0.32699 0.0
C1916 C 0.96323 0.53548 0.39928 0.0
C1917 C 0.93734 0.51873 0.36668 0.0
C1918 C 0.97749 0.53197 0.41984 0.0
C1919 C 0.98195 0.50867 0.42913 0.0
C1920 C 0.95332 0.51554 0.38793 0.0
C1921 C 0.97218 0.48917 0.41694 0.0
C1922 C 0.92737 0.49885 0.35527 0.0
C1923 C 0.91716 0.54535 0.33891 0.0
N1924 N 0.9582 0.49306 0.39701 0.0
N1925 N 0.9319 0.54129 0.35817 0.0
H1926 H 0.76772 0.64793 0.63617 0.0
H1927 H 0.78214 0.7762 0.69957 0.0
H1928 H 0.77075 0.71477 0.59446 0.0
H1929 H 0.77114 0.71005 0.74104 0.0
H1930 H 0.78049 0.75386 0.66094 0.0
H1931 H 0.77083 0.67023 0.67453 0.0
C1932 C 0.76898 0.66733 0.63503 0.0
C1933 C 0.76893 0.67944 0.61193 0.0
C1934 C 0.77855 0.7442 0.67848 0.0
C1935 C 0.77269 0.70522 0.6561 0.0
C1936 C 0.77962 0.75694 0.7006 0.0
C1937 C 0.77681 0.74503 0.7237 0.0
C1938 C 0.7747 0.7193 0.67932 0.0
C1939 C 0.77345 0.72003 0.72374 0.0
C1940 C 0.77078 0.68007 0.65703 0.0
C1941 C 0.77063 0.70464 0.61179 0.0
N1942 N 0.77244 0.70806 0.70195 0.0
N1943 N 0.7725 0.71666 0.6335 0.0
H1944 H 0.71091 0.59745 0.54994 0.0
H1945 H 0.58372 0.5832 0.48573 0.0
H1946 H 0.6814 0.64834 0.49733 0.0
H1947 H 0.60305 0.54249 0.55123 0.0
H1948 H 0.6224 0.60314 0.48607 0.0
H1949 H 0.67433 0.57348 0.54737 0.0
C1950 C 0.69685 0.60353 0.53777 0.0
C1951 C 0.69925 0.62506 0.52394 0.0
C1952 C 0.61829 0.58973 0.5003 0.0
C1953 C 0.65745 0.59761 0.52075 0.0
C1954 C 0.5962 0.57819 0.50004 0.0
C1955 C 0.58997 0.56111 0.51851 0.0
C1956 C 0.63454 0.58419 0.5191 0.0
C1957 C 0.60701 0.55553 0.5366 0.0
C1958 C 0.67595 0.58987 0.53636 0.0
C1959 C 0.68037 0.63201 0.5085 0.0
N1960 N 0.62845 0.56707 0.53649 0.0
N1961 N 0.66041 0.61837 0.50732 0.0
H1962 H 0.22422 0.97637 0.49971 0.0
H1963 H 0.08681 0.98103 0.46322 0.0
H1964 H 0.18524 0.91498 0.47534 0.0
H1965 H 0.12605 0.04388 0.48307 0.0
H1966 H 0.12391 0.95744 0.46372 0.0
H1967 H 0.18984 0.00222 0.48987 0.0
C1968 C 0.20852 0.96835 0.49207 0.0
C1969 C 0.20745 0.94344 0.48864 0.0
C1970 C 0.12451 0.97643 0.46777 0.0
C1971 C 0.16808 0.97287 0.47746 0.0
C1972 C 0.10329 0.98992 0.46754 0.0
C1973 C 0.10331 0.01439 0.47342 0.0
C1974 C 0.14592 0.98741 0.47416 0.0
C1975 C 0.12523 0.02501 0.47859 0.0
C1976 C 0.18891 0.98313 0.48645 0.0
C1977 C 0.18676 0.93406 0.47851 0.0
N1978 N 0.14566 0.01136 0.47911 0.0
N1979 N 0.1678 0.94876 0.47351 0.0
H1980 H 0.2965 0.01643 0.80318 0.0
H1981 H 0.25593 0.89327 0.7469 0.0
H1982 H 0.29813 0.00166 0.72474 0.0
H1983 H 0.26317 0.9065 0.82505 0.0
H1984 H 0.26152 0.93604 0.7382 0.0
H1985 H 0.27318 0.98027 0.81088 0.0
C1986 C 0.29151 0.00581 0.78751 0.0
C1987 C 0.2998 0.0116 0.76337 0.0
C1988 C 0.26156 0.92959 0.75728 0.0
C1989 C 0.27357 0.97003 0.77208 0.0
C1990 C 0.25865 0.90513 0.76225 0.0
C1991 C 0.2597 0.89617 0.78672 0.0
C1992 C 0.26562 0.94515 0.7769 0.0
C1993 C 0.26238 0.91254 0.80592 0.0
C1994 C 0.27824 0.98514 0.79192 0.0
C1995 C 0.29242 0.99757 0.7437 0.0
N1996 N 0.26556 0.93619 0.80056 0.0
N1997 N 0.28015 0.97705 0.74854 0.0
H1998 H 0.32938 0.09809 0.01914 0.0
H1999 H 0.45991 0.0884 0.07822 0.0
H2000 H 0.35599 0.14816 0.07175 0.0
H2001 H 0.44003 0.04714 0.01507 0.0
H2002 H 0.41997 0.10718 0.07919 0.0
H2003 H 0.36793 0.07604 0.02033 0.0
C2004 C 0.34323 0.10437 0.03103 0.0
C2005 C 0.33944 0.1251 0.04527 0.0
C2006 C 0.42429 0.09395 0.06516 0.0
C2007 C 0.3835 0.09993 0.0468 0.0
C2008 C 0.44711 0.08314 0.06466 0.0
C2009 C 0.45344 0.06619 0.04649 0.0
C2010 C 0.4075 0.08774 0.04746 0.0
C2011 C 0.436 0.06015 0.02938 0.0
C2012 C 0.36525 0.09182 0.03165 0.0
C2013 C 0.35808 0.1324 0.06031 0.0
N2014 N 0.41388 0.07093 0.03025 0.0
N2015 N 0.37921 0.11987 0.06068 0.0
H2016 H 0.73133 0.56336 0.75573 0.0
H2017 H 0.73804 0.66594 0.85755 0.0
H2018 H 0.70767 0.55388 0.83226 0.0
H2019 H 0.75704 0.67628 0.77994 0.0
H2020 H 0.73105 0.62342 0.84979 0.0
H2021 H 0.74566 0.60325 0.76553 0.0
C2022 C 0.72943 0.56953 0.77466 0.0
C2023 C 0.71801 0.5554 0.79313 0.0
C2024 C 0.7368 0.63501 0.83448 0.0
C2025 C 0.73413 0.6011 0.80442 0.0
C2026 C 0.74082 0.65924 0.83893 0.0
C2027 C 0.7478 0.67473 0.81932 0.0
C2028 C 0.73989 0.62623 0.81026 0.0
C2029 C 0.75111 0.66514 0.7955 0.0
C2030 C 0.73752 0.59235 0.78023 0.0
C2031 C 0.71614 0.56427 0.81738 0.0
N2032 N 0.74705 0.64154 0.79164 0.0
N2033 N 0.7239 0.58666 0.82227 0.0
H2034 H 0.80034 0.46854 0.05822 0.0
H2035 H 0.92054 0.47497 0.97732 0.0
H2036 H 0.83311 0.40492 0.02628 0.0
H2037 H 0.91003 0.51839 0.04234 0.0
H2038 H 0.88401 0.45276 0.98918 0.0
H2039 H 0.83698 0.49082 0.04754 0.0
C2040 C 0.81536 0.45926 0.04921 0.0
C2041 C 0.81392 0.4349 0.04326 0.0
C2042 C 0.88973 0.46723 0.00074 0.0
C2043 C 0.85515 0.46025 0.03038 0.0
C2044 C 0.91028 0.47996 0.99387 0.0
C2045 C 0.91804 0.49837 0.00895 0.0
C2046 C 0.87674 0.47345 0.02247 0.0
C2047 C 0.90449 0.50416 0.0304 0.0
C2048 C 0.83613 0.47192 0.04312 0.0
C2049 C 0.83371 0.42363 0.03145 0.0
N2050 N 0.88433 0.49181 0.03651 0.0
N2051 N 0.85348 0.43651 0.02506 0.0
H2052 H 0.33783 0.11224 0.72837 0.0
H2053 H 0.35234 0.248 0.76226 0.0
H2054 H 0.39958 0.13968 0.76447 0.0
H2055 H 0.29072 0.21866 0.7274 0.0
H2056 H 0.37513 0.21136 0.75229 0.0
H2057 H 0.32599 0.15313 0.71697 0.0
C2058 C 0.349 0.12695 0.7337 0.0
C2059 C 0.36926 0.12279 0.74803 0.0
C2060 C 0.35679 0.21317 0.74633 0.0
C2061 C 0.35568 0.1696 0.73542 0.0
C2062 C 0.34378 0.23407 0.75201 0.0
C2063 C 0.31941 0.23592 0.74635 0.0
C2064 C 0.34521 0.19413 0.73507 0.0
C2065 C 0.30929 0.21761 0.73273 0.0
C2066 C 0.34233 0.15028 0.72708 0.0
C2067 C 0.38355 0.14229 0.75382 0.0
N2068 N 0.32213 0.19726 0.72795 0.0
N2069 N 0.37616 0.16502 0.748 0.0
H2070 H 0.15308 0.90714 0.32652 0.0
H2071 H 0.26246 0.81334 0.33329 0.0
H2072 H 0.22719 0.92863 0.32341 0.0
H2073 H 0.19878 0.80151 0.29187 0.0
H2074 H 0.2456 0.85245 0.34632 0.0
H2075 H 0.16636 0.86509 0.33071 0.0
C2076 C 0.17211 0.90307 0.32737 0.0
C2077 C 0.18913 0.92126 0.3242 0.0
C2078 C 0.23515 0.84093 0.33491 0.0
C2079 C 0.20423 0.87352 0.32934 0.0
C2080 C 0.24465 0.81869 0.32759 0.0
C2081 C 0.23201 0.80451 0.3113 0.0
C2082 C 0.21272 0.84854 0.32631 0.0
C2083 C 0.20912 0.81217 0.30423 0.0
C2084 C 0.17962 0.87913 0.3297 0.0
C2085 C 0.21355 0.91503 0.32542 0.0
N2086 N 0.20021 0.83379 0.31168 0.0
N2087 N 0.22043 0.89158 0.32771 0.0
H2088 H 0.52273 0.34756 0.46676 0.0
H2089 H 0.52214 0.49196 0.45102 0.0
H2090 H 0.51736 0.38521 0.39647 0.0
H2091 H 0.53257 0.45551 0.52125 0.0
H2092 H 0.52051 0.45286 0.43096 0.0
H2093 H 0.5262 0.3865 0.4873 0.0
C2094 C 0.52227 0.36393 0.45562 0.0
C2095 C 0.51971 0.36292 0.42976 0.0
C2096 C 0.52328 0.45336 0.45075 0.0
C2097 C 0.52369 0.40775 0.45324 0.0
C2098 C 0.52428 0.47577 0.46224 0.0
C2099 C 0.52759 0.47722 0.48793 0.0
C2100 C 0.52544 0.43199 0.46495 0.0
C2101 C 0.5301 0.45542 0.5014 0.0
C2102 C 0.52429 0.38621 0.46737 0.0
C2103 C 0.51928 0.38489 0.4164 0.0
N2104 N 0.52888 0.43382 0.48982 0.0
N2105 N 0.52119 0.40623 0.42823 0.0
H2106 H 0.40742 0.8289 0.16349 0.0
H2107 H 0.34534 0.77506 0.28697 0.0
H2108 H 0.44364 0.78427 0.21751 0.0
H2109 H 0.3064 0.80939 0.22762 0.0
H2110 H 0.38294 0.78721 0.26646 0.0
H2111 H 0.37165 0.82947 0.19084 0.0
C2112 C 0.40787 0.81927 0.18111 0.0
C2113 C 0.42837 0.80618 0.18806 0.0
C2114 C 0.36614 0.79244 0.25816 0.0
C2115 C 0.38773 0.80701 0.21949 0.0
C2116 C 0.34467 0.78567 0.26996 0.0
C2117 C 0.32278 0.79079 0.25869 0.0
C2118 C 0.36562 0.80431 0.23497 0.0
C2119 C 0.32294 0.80471 0.23672 0.0
C2120 C 0.3875 0.8197 0.19675 0.0
C2121 C 0.42809 0.79429 0.21123 0.0
N2122 N 0.34409 0.81065 0.22533 0.0
N2123 N 0.40802 0.79486 0.22605 0.0
H2124 H 0.04305 0.72166 0.9521 0.0
H2125 H 0.97735 0.60153 -0.00026 0.0
H2126 H 0.96625 0.71294 0.95424 0.0
H2127 H 0.05089 0.61559 0.01675 0.0
H2128 H 0.97401 0.64156 0.98086 0.0
H2129 H 0.04739 0.68242 0.9735 0.0
C2130 C 0.0271 0.71158 0.95707 0.0
C2131 C 0.00422 0.72077 0.95128 0.0
C2132 C 0.99088 0.63603 0.98881 0.0
C2133 C 0.00912 0.67566 0.97565 0.0
C2134 C 0.99283 0.61307 -0.00038 0.0
C2135 C 0.01444 0.60504 0.00998 0.0
C2136 C 0.01077 0.65127 0.98789 0.0
C2137 C 0.03383 0.62099 0.00916 0.0
C2138 C 0.0296 0.68919 0.96935 0.0
C2139 C 0.98426 0.70678 0.95827 0.0
N2140 N 0.0316 0.64324 0.99816 0.0
N2141 N 0.98719 0.68503 0.96987 0.0
H2142 H 0.05851 0.22316 0.70013 0.0
H2143 H 0.16883 0.28777 0.76107 0.0
H2144 H 0.06491 0.30022 0.70493 0.0
H2145 H 0.17036 0.21338 0.73919 0.0
H2146 H 0.12778 0.29152 0.74702 0.0
H2147 H 0.09645 0.2182 0.72143 0.0
C2148 C 0.06776 0.23902 0.70589 0.0
C2149 C 0.05873 0.26214 0.70052 0.0
C2150 C 0.13711 0.27435 0.7454 0.0
C2151 C 0.10199 0.2566 0.72478 0.0
C2152 C 0.16062 0.27223 0.75325 0.0
C2153 C 0.17326 0.2503 0.75099 0.0
C2154 C 0.12608 0.25439 0.7353 0.0
C2155 C 0.16135 0.2306 0.74138 0.0
C2156 C 0.08943 0.23618 0.71795 0.0
C2157 C 0.07139 0.28207 0.70847 0.0
N2158 N 0.13845 0.23315 0.73375 0.0
N2159 N 0.09247 0.27884 0.7201 0.0
H2160 H 0.51105 0.72608 0.12121 0.0
H2161 H 0.57077 0.68898 0.99165 0.0
H2162 H 0.54796 0.77803 0.07418 0.0
H2163 H 0.55793 0.6392 0.05262 0.0
H2164 H 0.56143 0.72248 0.01978 0.0
H2165 H 0.52538 0.69423 0.09377 0.0
C2166 C 0.52206 0.7308 0.10501 0.0
C2167 C 0.52832 0.75471 0.09993 0.0
C2168 C 0.56095 0.70419 0.02697 0.0
C2169 C 0.5449 0.71832 0.0685 0.0
C2170 C 0.56642 0.68516 0.011 0.0
C2171 C 0.56467 0.66135 0.01977 0.0
C2172 C 0.55356 0.69918 0.05165 0.0
C2173 C 0.55886 0.65728 0.04498 0.0
C2174 C 0.53042 0.71259 0.08946 0.0
C2175 C 0.54278 0.75977 0.07876 0.0
N2176 N 0.55322 0.67597 0.05994 0.0
N2177 N 0.55052 0.7417 0.06368 0.0
H2178 H 0.07915 0.73296 0.84757 0.0
H2179 H 0.18991 0.81526 0.80368 0.0
H2180 H 0.08291 0.80881 0.86226 0.0
H2181 H 0.18439 0.74077 0.78373 0.0
H2182 H 0.15063 0.81312 0.82468 0.0
H2183 H 0.11717 0.73538 0.82385 0.0
C2184 C 0.08789 0.75018 0.84576 0.0
C2185 C 0.07769 0.77072 0.85706 0.0
C2186 C 0.15789 0.79723 0.81565 0.0
C2187 C 0.12156 0.77357 0.82983 0.0
C2188 C 0.18041 0.79842 0.80358 0.0
C2189 C 0.19063 0.77814 0.79183 0.0
C2190 C 0.14529 0.77555 0.81622 0.0
C2191 C 0.17729 0.75688 0.79245 0.0
C2192 C 0.10966 0.75152 0.83217 0.0
C2193 C 0.08998 0.79249 0.85394 0.0
N2194 N 0.15541 0.75612 0.80452 0.0
N2195 N 0.11122 0.7933 0.84076 0.0
H2196 H 0.9977 0.3833 0.67081 0.0
H2197 H 0.99606 0.4524 0.53961 0.0
H2198 H 0.99979 0.34817 0.59984 0.0
H2199 H 0.0059 0.48796 0.6092 0.0
H2200 H 0.9914 0.41436 0.56221 0.0
H2201 H 0.99527 0.42225 0.64915 0.0
C2202 C 0.99758 0.38378 0.65071 0.0
C2203 C 0.99917 0.36253 0.63707 0.0
C2204 C 0.99443 0.43052 0.57255 0.0
C2205 C 0.99626 0.4068 0.61231 0.0
C2206 C 0.99702 0.45224 0.55967 0.0
C2207 C 0.00161 0.47329 0.57255 0.0
C2208 C 0.99646 0.42987 0.59847 0.0
C2209 C 0.00256 0.47209 0.59854 0.0
C2210 C 0.99618 0.40598 0.63838 0.0
C2211 C 0.99882 0.36413 0.61108 0.0
N2212 N 0.00018 0.45066 0.61066 0.0
N2213 N 0.99746 0.3859 0.59955 0.0
H2214 H 0.44856 0.31289 0.3643 0.0
H2215 H 0.33722 0.24136 0.31268 0.0
H2216 H 0.44757 0.23568 0.35816 0.0
H2217 H 0.34665 0.31721 0.29848 0.0
H2218 H 0.37656 0.23942 0.33163 0.0
H2219 H 0.41027 0.31545 0.34276 0.0
C2220 C 0.44035 0.29648 0.35846 0.0
C2221 C 0.45144 0.27402 0.36312 0.0
C2222 C 0.37014 0.25648 0.32423 0.0
C2223 C 0.40741 0.27683 0.33855 0.0
C2224 C 0.34763 0.2576 0.31336 0.0
C2225 C 0.33854 0.27946 0.3038 0.0
C2226 C 0.38373 0.27744 0.32604 0.0
C2227 C 0.35294 0.29992 0.30539 0.0
C2228 C 0.41851 0.29797 0.34607 0.0
C2229 C 0.43985 0.25341 0.35499 0.0
N2230 N 0.37467 0.29846 0.31646 0.0
N2231 N 0.41853 0.2553 0.34332 0.0
H2232 H 0.46961 0.57523 0.28564 0.0
H2233 H 0.45529 0.55518 0.43198 0.0
H2234 H 0.40304 0.55345 0.32163 0.0
H2235 H 0.5129 0.59548 0.3971 0.0
H2236 H 0.43659 0.55226 0.3916 0.0
H2237 H 0.48658 0.58091 0.32633 0.0
C2238 C 0.45854 0.57171 0.30212 0.0
C2239 C 0.43491 0.56379 0.30028 0.0
C2240 C 0.45325 0.56186 0.39284 0.0
C2241 C 0.45427 0.5701 0.34687 0.0
C2242 C 0.46399 0.56338 0.41581 0.0
C2243 C 0.48568 0.57554 0.41782 0.0
C2244 C 0.46447 0.57232 0.37173 0.0
C2245 C 0.49607 0.58614 0.39638 0.0
C2246 C 0.46822 0.57503 0.32533 0.0
C2247 C 0.42133 0.55961 0.32223 0.0
N2248 N 0.48546 0.58414 0.37418 0.0
N2249 N 0.43128 0.56265 0.34466 0.0
H2250 H 0.3108 0.74393 0.06278 0.0
H2251 H 0.20892 0.78325 0.15267 0.0
H2252 H 0.23983 0.76107 0.03734 0.0
H2253 H 0.28355 0.79137 0.16963 0.0
H2254 H 0.22005 0.78252 0.10868 0.0
H2255 H 0.30267 0.7683 0.09937 0.0
C2256 C 0.29372 0.75341 0.06465 0.0
C2257 C 0.27578 0.75021 0.04742 0.0
C2258 C 0.23396 0.78501 0.12198 0.0
C2259 C 0.26601 0.77741 0.08948 0.0
C2260 C 0.22759 0.78542 0.14719 0.0
C2261 C 0.24543 0.78644 0.16498 0.0
C2262 C 0.25833 0.78523 0.1146 0.0
C2263 C 0.26931 0.78945 0.15664 0.0
C2264 C 0.28905 0.76734 0.08551 0.0
C2265 C 0.25404 0.76298 0.05042 0.0
N2266 N 0.27513 0.78817 0.13208 0.0
N2267 N 0.24946 0.7755 0.07152 0.0
H2268 H 0.08702 0.526 0.84096 0.0
H2269 H 0.09364 0.53259 0.98861 0.0
H2270 H 0.15206 0.53952 0.87978 0.0
H2271 H 0.02861 0.51831 0.95007 0.0
H2272 H 0.1155 0.53451 0.94881 0.0
H2273 H 0.06509 0.52382 0.88076 0.0
C2274 C 0.09664 0.52875 0.85783 0.0
C2275 C 0.12141 0.53284 0.85709 0.0
C2276 C 0.09647 0.53083 0.94907 0.0
C2277 C 0.09653 0.53007 0.90261 0.0
C2278 C 0.08401 0.5296 0.97179 0.0
C2279 C 0.05927 0.52536 0.97261 0.0
C2280 C 0.08408 0.52786 0.92705 0.0
C2281 C 0.04769 0.52165 0.95027 0.0
C2282 C 0.08414 0.52736 0.88055 0.0
C2283 C 0.13298 0.53625 0.87951 0.0
N2284 N 0.06019 0.52312 0.92834 0.0
N2285 N 0.12044 0.53468 0.90139 0.0
H2286 H 0.29057 0.42109 0.62526 0.0
H2287 H 0.24928 0.30048 0.69608 0.0
H2288 H 0.26128 0.36152 0.58642 0.0
H2289 H 0.2988 0.35061 0.72588 0.0
H2290 H 0.24963 0.32393 0.65699 0.0
H2291 H 0.28992 0.3969 0.66344 0.0
C2292 C 0.28398 0.40289 0.62473 0.0
C2293 C 0.27599 0.39336 0.60251 0.0
C2294 C 0.26042 0.32974 0.67211 0.0
C2295 C 0.27502 0.36547 0.64649 0.0
C2296 C 0.26015 0.31643 0.69446 0.0
C2297 C 0.27405 0.32355 0.71434 0.0
C2298 C 0.2744 0.35051 0.66973 0.0
C2299 C 0.28785 0.34435 0.7111 0.0
C2300 C 0.28368 0.38905 0.64658 0.0
C2301 C 0.26771 0.36959 0.60307 0.0
N2302 N 0.28758 0.3571 0.68934 0.0
N2303 N 0.2673 0.35651 0.62474 0.0
H2304 H 0.47656 0.51473 0.17016 0.0
H2305 H 0.54693 0.58655 0.06404 0.0
H2306 H 0.50692 0.58455 0.1809 0.0
H2307 H 0.5191 0.51512 0.05637 0.0
H2308 H 0.53988 0.58318 0.10899 0.0
H2309 H 0.4995 0.51135 0.13122 0.0
C2310 C 0.48835 0.52923 0.16442 0.0
C2311 C 0.48951 0.55016 0.17842 0.0
C2312 C 0.53574 0.56809 0.0975 0.0
C2313 C 0.51549 0.54667 0.13362 0.0
C2314 C 0.53977 0.56999 0.07185 0.0
C2315 C 0.53307 0.55129 0.05645 0.0
C2316 C 0.52489 0.54738 0.10766 0.0
C2317 C 0.52406 0.53018 0.06752 0.0
C2318 C 0.50149 0.5273 0.14219 0.0
C2319 C 0.50537 0.56821 0.17044 0.0
N2320 N 0.51992 0.52894 0.09241 0.0
N2321 N 0.51739 0.56629 0.14823 0.0
H2322 H 0.29786 0.6759 0.93521 0.0
H2323 H 0.26734 0.78557 0.84798 0.0
H2324 H 0.23629 0.72221 0.94938 0.0
H2325 H 0.28524 0.71732 0.81442 0.0
H2326 H 0.2658 0.76568 0.88864 0.0
H2327 H 0.30181 0.69339 0.89306 0.0
C2328 C 0.28508 0.68957 0.92933 0.0
C2329 C 0.26669 0.69767 0.94561 0.0
C2330 C 0.27029 0.75518 0.87234 0.0
C2331 C 0.27161 0.718 0.89831 0.0
C2332 C 0.27144 0.76649 0.84918 0.0
C2333 C 0.27631 0.75301 0.8278 0.0
C2334 C 0.27454 0.73036 0.87418 0.0
C2335 C 0.28133 0.7283 0.8305 0.0
C2336 C 0.28736 0.69945 0.90543 0.0
C2337 C 0.25058 0.71539 0.93728 0.0
N2338 N 0.28035 0.71766 0.85341 0.0
N2339 N 0.25365 0.72528 0.91426 0.0
H2340 H 0.12934 0.48206 0.72618 0.0
H2341 H 0.0661 0.58989 0.65159 0.0
H2342 H 0.13591 0.55676 0.74524 0.0
H2343 H 0.05034 0.51499 0.64165 0.0
H2344 H 0.09202 0.57838 0.68582 0.0
H2345 H 0.10131 0.49397 0.69402 0.0
C2346 C 0.12495 0.50096 0.72355 0.0
C2347 C 0.13497 0.51843 0.73839 0.0
C2348 C 0.08278 0.56449 0.67619 0.0
C2349 C 0.10288 0.53219 0.70175 0.0
C2350 C 0.06786 0.57108 0.65678 0.0
C2351 C 0.05628 0.55336 0.64354 0.0
C2352 C 0.08613 0.54003 0.68232 0.0
C2353 C 0.05936 0.52921 0.65094 0.0
C2354 C 0.10886 0.50775 0.70528 0.0
C2355 C 0.12858 0.54267 0.73423 0.0
N2356 N 0.07411 0.52325 0.66971 0.0
N2357 N 0.11298 0.54884 0.71626 0.0
H2358 H 0.25742 0.33438 0.48252 0.0
H2359 H 0.26737 0.35342 0.33457 0.0
H2360 H 0.27486 0.40213 0.44677 0.0
H2361 H 0.25264 0.28499 0.37027 0.0
H2362 H 0.26841 0.37188 0.37537 0.0
H2363 H 0.25434 0.31633 0.44169 0.0
C2364 C 0.26065 0.3455 0.46611 0.0
C2365 C 0.26647 0.36987 0.4682 0.0
C2366 C 0.26482 0.35285 0.37432 0.0
C2367 C 0.26284 0.3492 0.42115 0.0
C2368 C 0.26412 0.34228 0.35096 0.0
C2369 C 0.25987 0.31755 0.34887 0.0
C2370 C 0.26128 0.33867 0.3959 0.0
C2371 C 0.25592 0.3041 0.37089 0.0
C2372 C 0.25884 0.33514 0.44274 0.0
C2373 C 0.27039 0.38329 0.44616 0.0
N2374 N 0.25679 0.3148 0.39342 0.0
N2375 N 0.2685 0.3728 0.42362 0.0
H2376 H 0.33079 0.47814 0.50807 0.0
H2377 H 0.45819 0.50122 0.56811 0.0
H2378 H 0.36272 0.43231 0.56385 0.0
H2379 H 0.43851 0.53407 0.49832 0.0
H2380 H 0.41995 0.48063 0.57019 0.0
H2381 H 0.36699 0.50298 0.50727 0.0
C2382 C 0.34531 0.47336 0.52023 0.0
C2383 C 0.3437 0.453 0.53598 0.0
C2384 C 0.42387 0.49244 0.55446 0.0
C2385 C 0.385 0.48148 0.53533 0.0
C2386 C 0.44572 0.50437 0.5533 0.0
C2387 C 0.45174 0.51942 0.53294 0.0
C2388 C 0.40761 0.49554 0.53521 0.0
C2389 C 0.43469 0.52266 0.51437 0.0
C2390 C 0.36598 0.48751 0.5197 0.0
C2391 C 0.36313 0.4477 0.55128 0.0
N2392 N 0.41343 0.51075 0.5159 0.0
N2393 N 0.38283 0.46182 0.5506 0.0
H2394 H 0.85128 0.10435 0.51704 0.0
H2395 H 0.99288 0.11902 0.49568 0.0
H2396 H 0.88771 0.17154 0.52566 0.0
H2397 H 0.95554 0.05239 0.48672 0.0
H2398 H 0.95478 0.13854 0.50761 0.0
H2399 H 0.8898 0.0847 0.50783 0.0
C2400 C 0.86742 0.11494 0.5172 0.0
C2401 C 0.86628 0.13966 0.52194 0.0
C2402 C 0.95494 0.11967 0.50298 0.0
C2403 C 0.91043 0.11731 0.51116 0.0
C2404 C 0.97665 0.10854 0.49604 0.0
C2405 C 0.97735 0.08406 0.49011 0.0
C2406 C 0.93383 0.1062 0.50399 0.0
C2407 C 0.95582 0.07132 0.49106 0.0
C2408 C 0.88941 0.10372 0.51186 0.0
C2409 C 0.88777 0.15245 0.52203 0.0
N2410 N 0.93495 0.08254 0.4979 0.0
N2411 N 0.90899 0.14114 0.51652 0.0
H2412 H 0.73693 0.04945 0.24331 0.0
H2413 H 0.77414 0.17886 0.28776 0.0
H2414 H 0.73942 0.07046 0.31996 0.0
H2415 H 0.75269 0.16289 0.21353 0.0
H2416 H 0.77359 0.13604 0.29809 0.0
H2417 H 0.75596 0.08724 0.23088 0.0
C2418 C 0.74211 0.06169 0.25757 0.0
C2419 C 0.73603 0.05721 0.28265 0.0
C2420 C 0.76928 0.14192 0.27946 0.0
C2421 C 0.75748 0.10033 0.26856 0.0
C2422 C 0.76931 0.16638 0.27361 0.0
C2423 C 0.76276 0.17454 0.24993 0.0
C2424 C 0.76263 0.12549 0.26152 0.0
C2425 C 0.75763 0.15742 0.23206 0.0
C2426 C 0.75282 0.0833 0.25044 0.0
C2427 C 0.74331 0.07354 0.30037 0.0
N2428 N 0.75736 0.1337 0.23833 0.0
N2429 N 0.75329 0.09463 0.29295 0.0
H2430 H 0.68343 0.92979 0.99565 0.0
H2431 H 0.60337 0.03048 0.06461 0.0
H2432 H 0.7124 0.97614 0.05042 0.0
H2433 H 0.58218 0.99396 -0.00115 0.0
H2434 H 0.6429 0.01047 0.06105 0.0
H2435 H 0.64577 0.95253 0.99799 0.0
C2436 C 0.68191 0.94481 0.00819 0.0
C2437 C 0.70118 0.95099 0.0229 0.0
C2438 C 0.62962 0.00699 0.04734 0.0
C2439 C 0.65772 0.97723 0.02578 0.0
C2440 C 0.60704 0.0184 0.04935 0.0
C2441 C 0.58935 0.01391 0.03201 0.0
C2442 C 0.63448 0.9908 0.028 0.0
C2443 C 0.59518 0.99803 0.01266 0.0
C2444 C 0.66034 0.95786 0.00946 0.0
C2445 C 0.69805 0.97075 0.0387 0.0
N2446 N 0.6171 0.987 0.01129 0.0
N2447 N 0.67669 0.98307 0.03985 0.0
H2448 H 0.40548 0.4681 0.27887 0.0
H2449 H 0.30513 0.39692 0.20885 0.0
H2450 H 0.37543 0.49189 0.20952 0.0
H2451 H 0.32107 0.38365 0.28593 0.0
H2452 H 0.3331 0.42997 0.20778 0.0
H2453 H 0.37723 0.43478 0.28061 0.0
C2454 C 0.39302 0.46627 0.26399 0.0
C2455 C 0.39277 0.48278 0.24404 0.0
C2456 C 0.33042 0.41985 0.22496 0.0
C2457 C 0.36055 0.44485 0.24591 0.0
C2458 C 0.31428 0.401 0.22565 0.0
C2459 C 0.3106 0.38734 0.24753 0.0
C2460 C 0.34315 0.42507 0.24623 0.0
C2461 C 0.3235 0.39337 0.26853 0.0
C2462 C 0.37685 0.44734 0.26505 0.0
C2463 C 0.3762 0.47963 0.2253 0.0
N2464 N 0.33926 0.41175 0.26733 0.0
N2465 N 0.3608 0.461 0.22667 0.0
H2466 H 0.19304 0.6842 0.04667 0.0
H2467 H 0.14493 0.55365 0.08394 0.0
H2468 H 0.23941 0.62137 0.05014 0.0
H2469 H 0.10034 0.60974 0.05258 0.0
H2470 H 0.17965 0.58014 0.0793 0.0
H2471 H 0.15857 0.65879 0.05662 0.0
C2472 C 0.19599 0.6651 0.04972 0.0
C2473 C 0.21907 0.65483 0.0474 0.0
C2474 C 0.16223 0.58662 0.07352 0.0
C2475 C 0.17982 0.62578 0.05887 0.0
C2476 C 0.14247 0.57161 0.07629 0.0
C2477 C 0.11989 0.57954 0.06845 0.0
C2478 C 0.15919 0.60978 0.06322 0.0
C2479 C 0.11757 0.60288 0.05849 0.0
C2480 C 0.17632 0.65063 0.0553 0.0
C2481 C 0.22188 0.62997 0.05155 0.0
N2482 N 0.13699 0.61723 0.05619 0.0
N2483 N 0.20244 0.61626 0.05709 0.0
H2484 H 0.64163 0.93123 0.31604 0.0
H2485 H 0.75817 0.84917 0.33509 0.0
H2486 H 0.71102 0.95646 0.33662 0.0
H2487 H 0.69537 0.82476 0.29844 0.0
H2488 H 0.73622 0.8855 0.3472 0.0
H2489 H 0.65675 0.88964 0.31992 0.0
C2490 C 0.6599 0.92798 0.32169 0.0
C2491 C 0.67531 0.94717 0.32551 0.0
C2492 C 0.72709 0.87206 0.33681 0.0
C2493 C 0.69246 0.90009 0.33027 0.0
C2494 C 0.73961 0.85133 0.32991 0.0
C2495 C 0.72871 0.83431 0.31523 0.0
C2496 C 0.70365 0.87595 0.32864 0.0
C2497 C 0.70449 0.83769 0.30947 0.0
C2498 C 0.66848 0.90433 0.32391 0.0
C2499 C 0.69873 0.94213 0.33298 0.0
N2500 N 0.69285 0.85846 0.31576 0.0
N2501 N 0.70663 0.91908 0.33494 0.0
H2502 H 0.929 0.13035 0.75649 0.0
H2503 H 0.79795 0.18813 0.74407 0.0
H2504 H 0.87463 0.09671 0.71397 0.0
H2505 H 0.84448 0.20094 0.80504 0.0
H2506 H 0.8273 0.15846 0.7279 0.0
H2507 H 0.89998 0.16161 0.7684 0.0
C2508 C 0.91105 0.12969 0.74938 0.0
C2509 C 0.90414 0.11073 0.73446 0.0
C2510 C 0.83091 0.16775 0.74487 0.0
C2511 C 0.87081 0.14636 0.74821 0.0
C2512 C 0.81419 0.18456 0.75415 0.0
C2513 C 0.81873 0.1969 0.776 0.0
C2514 C 0.85239 0.16367 0.75736 0.0
C2515 C 0.84012 0.19174 0.78824 0.0
C2516 C 0.89445 0.14745 0.75634 0.0
C2517 C 0.88063 0.1109 0.72571 0.0
N2518 N 0.85621 0.17564 0.77865 0.0
N2519 N 0.86471 0.12841 0.73283 0.0
loop_
_geom_bond_atom_site_label_1
_geom_bond_atom_site_label_2
_geom_bond_distance
_geom_bond_site_symmetry_2
_ccdc_geom_bond_type
C0 O1 1.160 . S
C0 O7 1.185 . S
O1 C0 1.160 . S
O2 Zn3 1.899 . S
O2 C10 1.284 . S
Zn3 O2 1.899 . S
Zn3 O4 2.032 . S
Zn3 O7 2.086 1_455 S
Zn3 O12 1.977 . S
O4 Zn3 2.032 . S
O4 C8 1.278 . S
C5 O6 1.203 . S
C5 O12 1.267 . S
O6 C5 1.203 . S
O7 C0 1.185 . S
O7 Zn3 2.086 1_655 S
C8 O4 1.278 . S
C8 O9 1.211 . S
O9 C8 1.211 . S
C10 O2 1.284 . S
C10 O11 1.273 . S
O11 C10 1.273 . S
O12 Zn3 1.977 . S
O12 C5 1.267 . S
C13 O14 1.160 . S
C13 O20 1.185 . S
O14 C13 1.160 . S
O15 Zn16 1.899 . S
O15 C23 1.284 . S
Zn16 O15 1.899 . S
Zn16 O17 2.032 . S
Zn16 O20 2.086 . S
Zn16 O25 1.977 . S
O17 Zn16 2.032 . S
O17 C21 1.278 . S
C18 O19 1.194 1_455 S
C18 O25 1.299 . S
O19 C18 1.194 1_655 S
O20 C13 1.185 . S
O20 Zn16 2.086 . S
C21 O17 1.278 . S
C21 O22 1.211 . S
O22 C21 1.211 . S
C23 O15 1.284 . S
C23 O24 1.273 . S
O24 C23 1.273 . S
O25 Zn16 1.977 . S
O25 C18 1.299 . S
C26 O27 1.160 . S
C26 O33 1.185 . S
O27 C26 1.160 . S
O28 Zn29 1.899 . S
O28 C36 1.284 . S
Zn29 O28 1.899 . S
Zn29 O30 2.032 . S
Zn29 O33 2.086 . S
Zn29 O38 1.977 . S
O30 Zn29 2.032 . S
O30 C34 1.278 . S
C31 O32 1.203 . S
C31 O38 1.267 . S
O32 C31 1.203 . S
O33 C26 1.185 . S
O33 Zn29 2.086 . S
C34 O30 1.278 . S
C34 O35 1.211 . S
O35 C34 1.211 . S
C36 O28 1.284 . S
C36 O37 1.273 . S
O37 C36 1.273 . S
O38 Zn29 1.977 . S
O38 C31 1.267 . S
C39 O40 1.160 . S
C39 O46 1.185 . S
O40 C39 1.160 . S
O41 Zn42 1.899 . S
O41 C49 1.284 . S
Zn42 O41 1.899 . S
Zn42 O43 2.032 . S
Zn42 O46 2.086 . S
Zn42 O51 1.977 . S
O43 Zn42 2.032 . S
O43 C47 1.278 . S
C44 O45 1.203 . S
C44 O51 1.267 . S
O45 C44 1.203 . S
O46 C39 1.185 . S
O46 Zn42 2.086 . S
C47 O43 1.278 . S
C47 O48 1.211 . S
O48 C47 1.211 . S
C49 O41 1.284 . S
C49 O50 1.273 . S
O50 C49 1.273 . S
O51 Zn42 1.977 . S
O51 C44 1.267 . S
C52 O53 1.160 . S
C52 O59 1.185 . S
O53 C52 1.160 . S
O54 Zn55 1.899 . S
O54 C62 1.284 . S
Zn55 O54 1.899 . S
Zn55 O56 2.032 1_545 S
Zn55 O59 2.086 1_545 S
Zn55 O64 1.977 . S
O56 Zn55 2.032 1_565 S
O56 C60 1.278 1_565 S
C57 O58 1.203 . S
C57 O64 1.267 . S
O58 C57 1.203 . S
O59 C52 1.185 . S
O59 Zn55 2.086 1_565 S
C60 O56 1.278 1_545 S
C60 O61 1.211 . S
O61 C60 1.211 . S
C62 O54 1.284 . S
C62 O63 1.273 . S
O63 C62 1.273 . S
O64 Zn55 1.977 . S
O64 C57 1.267 . S
C65 O66 1.160 . S
C65 O72 1.185 . S
O66 C65 1.160 . S
O67 Zn68 1.899 . S
O67 C75 1.284 . S
Zn68 O67 1.899 . S
Zn68 O69 2.032 . S
Zn68 O72 2.086 . S
Zn68 O77 1.977 . S
O69 Zn68 2.032 . S
O69 C73 1.278 . S
C70 O71 1.203 . S
C70 O77 1.267 . S
O71 C70 1.203 . S
O72 C65 1.185 . S
O72 Zn68 2.086 . S
C73 O69 1.278 . S
C73 O74 1.211 . S
O74 C73 1.211 . S
C75 O67 1.284 . S
C75 O76 1.273 . S
O76 C75 1.273 . S
O77 Zn68 1.977 . S
O77 C70 1.267 . S
C78 O79 1.160 . S
C78 O85 1.185 . S
O79 C78 1.160 . S
O80 Zn81 1.899 . S
O80 C88 1.284 . S
Zn81 O80 1.899 . S
Zn81 O82 2.032 . S
Zn81 O85 2.086 . S
Zn81 O90 1.977 . S
O82 Zn81 2.032 . S
O82 C86 1.278 . S
C83 O84 1.203 . S
C83 O90 1.267 . S
O84 C83 1.203 . S
O85 C78 1.185 . S
O85 Zn81 2.086 . S
C86 O82 1.278 . S
C86 O87 1.211 . S
O87 C86 1.211 . S
C88 O80 1.284 . S
C88 O89 1.273 . S
O89 C88 1.273 . S
O90 Zn81 1.977 . S
O90 C83 1.267 . S
C91 O92 1.160 . S
C91 O98 1.185 . S
O92 C91 1.160 . S
O93 Zn94 1.899 . S
O93 C101 1.284 . S
Zn94 O93 1.899 . S
Zn94 O95 2.032 . S
Zn94 O98 2.086 . S
Zn94 O103 1.977 . S
O95 Zn94 2.032 . S
O95 C99 1.278 1_554 S
C96 O97 1.203 . S
C96 O103 1.267 . S
O97 C96 1.203 . S
O98 C91 1.185 . S
O98 Zn94 2.086 . S
C99 O95 1.278 1_556 S
C99 O100 1.211 . S
O100 C99 1.211 . S
C101 O93 1.284 . S
C101 O102 1.273 . S
O102 C101 1.273 . S
O103 Zn94 1.977 . S
O103 C96 1.267 . S
C104 O105 1.160 . S
C104 O111 1.185 . S
O105 C104 1.160 . S
O106 Zn107 1.899 . S
O106 C114 1.284 . S
Zn107 O106 1.899 . S
Zn107 O108 2.032 . S
Zn107 O111 2.086 . S
Zn107 O116 1.977 . S
O108 Zn107 2.032 . S
O108 C112 1.278 . S
C109 O110 1.203 . S
C109 O116 1.267 . S
O110 C109 1.203 . S
O111 C104 1.185 . S
O111 Zn107 2.086 . S
C112 O108 1.278 . S
C112 O113 1.211 . S
O113 C112 1.211 . S
C114 O106 1.284 . S
C114 O115 1.273 . S
O115 C114 1.273 . S
O116 Zn107 1.977 . S
O116 C109 1.267 . S
C117 O118 1.160 . S
C117 O124 1.185 . S
O118 C117 1.160 . S
O119 Zn120 1.899 . S
O119 C127 1.284 . S
Zn120 O119 1.899 . S
Zn120 O121 2.032 . S
Zn120 O124 2.086 . S
Zn120 O129 1.977 . S
O121 Zn120 2.032 . S
O121 C125 1.278 . S
C122 O123 1.203 . S
C122 O129 1.267 . S
O123 C122 1.203 . S
O124 C117 1.185 . S
O124 Zn120 2.086 . S
C125 O121 1.278 . S
C125 O126 1.211 . S
O126 C125 1.211 . S
C127 O119 1.284 . S
C127 O128 1.273 . S
O128 C127 1.273 . S
O129 Zn120 1.977 . S
O129 C122 1.267 . S
C130 O131 1.160 . S
C130 O137 1.185 . S
O131 C130 1.160 . S
O132 Zn133 1.899 . S
O132 C140 1.284 . S
Zn133 O132 1.899 . S
Zn133 O134 2.032 . S
Zn133 O137 2.086 . S
Zn133 O142 1.977 . S
O134 Zn133 2.032 . S
O134 C138 1.278 . S
C135 O136 1.203 . S
C135 O142 1.267 . S
O136 C135 1.203 . S
O137 C130 1.185 . S
O137 Zn133 2.086 . S
C138 O134 1.278 . S
C138 O139 1.211 . S
O139 C138 1.211 . S
C140 O132 1.284 . S
C140 O141 1.273 . S
O141 C140 1.273 . S
O142 Zn133 1.977 . S
O142 C135 1.267 . S
C143 O144 1.160 . S
C143 O150 1.185 . S
O144 C143 1.160 . S
O145 Zn146 1.899 . S
O145 C153 1.284 . S
Zn146 O145 1.899 . S
Zn146 O147 2.032 . S
Zn146 O150 2.086 . S
Zn146 O155 1.977 . S
O147 Zn146 2.032 . S
O147 C151 1.278 . S
C148 O149 1.203 . S
C148 O155 1.267 . S
O149 C148 1.203 . S
O150 C143 1.185 . S
O150 Zn146 2.086 . S
C151 O147 1.278 . S
C151 O152 1.211 . S
O152 C151 1.211 . S
C153 O145 1.284 . S
C153 O154 1.273 . S
O154 C153 1.273 . S
O155 Zn146 1.977 . S
O155 C148 1.267 . S
C156 O157 1.160 . S
C156 O163 1.185 . S
O157 C156 1.160 . S
O158 Zn159 1.899 . S
O158 C166 1.284 . S
Zn159 O158 1.899 . S
Zn159 O160 2.032 . S
Zn159 O163 2.086 . S
Zn159 O168 1.977 1_455 S
O160 Zn159 2.032 . S
O160 C164 1.278 . S
C161 O162 1.203 . S
C161 O168 1.267 . S
O162 C161 1.203 . S
O163 C156 1.185 . S
O163 Zn159 2.086 . S
C164 O160 1.278 . S
C164 O165 1.211 1_455 S
O165 C164 1.211 1_655 S
C166 O158 1.284 . S
C166 O167 1.273 . S
O167 C166 1.273 . S
O168 Zn159 1.977 1_655 S
O168 C161 1.267 . S
C169 O170 1.160 . S
C169 O176 1.185 . S
O170 C169 1.160 . S
O171 Zn172 1.899 . S
O171 C179 1.284 1_655 S
Zn172 O171 1.899 . S
Zn172 O173 2.032 . S
Zn172 O176 2.086 . S
Zn172 O181 1.977 1_655 S
O173 Zn172 2.032 . S
O173 C177 1.278 1_655 S
C174 O175 1.203 . S
C174 O181 1.267 . S
O175 C174 1.203 . S
O176 C169 1.185 . S
O176 Zn172 2.086 . S
C177 O173 1.278 1_455 S
C177 O178 1.211 . S
O178 C177 1.211 . S
C179 O171 1.284 1_455 S
C179 O180 1.273 . S
O180 C179 1.273 . S
O181 Zn172 1.977 1_455 S
O181 C174 1.267 . S
C182 O183 1.160 . S
C182 O189 1.185 . S
O183 C182 1.160 . S
O184 Zn185 1.899 . S
O184 C192 1.284 . S
Zn185 O184 1.899 . S
Zn185 O186 2.032 . S
Zn185 O189 2.086 . S
Zn185 O194 1.977 . S
O186 Zn185 2.032 . S
O186 C190 1.278 . S
C187 O188 1.203 . S
C187 O194 1.267 . S
O188 C187 1.203 . S
O189 C182 1.185 . S
O189 Zn185 2.086 . S
C190 O186 1.278 . S
C190 O191 1.211 . S
O191 C190 1.211 . S
C192 O184 1.284 . S
C192 O193 1.273 . S
O193 C192 1.273 . S
O194 Zn185 1.977 . S
O194 C187 1.267 . S
C195 O196 1.160 . S
C195 O202 1.185 . S
O196 C195 1.160 . S
O197 Zn198 1.899 . S
O197 C205 1.284 . S
Zn198 O197 1.899 . S
Zn198 O199 2.032 . S
Zn198 O202 2.086 . S
Zn198 O207 1.977 . S
O199 Zn198 2.032 . S
O199 C203 1.278 . S
C200 O201 1.203 . S
C200 O207 1.267 . S
O201 C200 1.203 . S
O202 C195 1.185 . S
O202 Zn198 2.086 . S
C203 O199 1.278 . S
C203 O204 1.211 . S
O204 C203 1.211 . S
C205 O197 1.284 . S
C205 O206 1.273 . S
O206 C205 1.273 . S
O207 Zn198 1.977 . S
O207 C200 1.267 . S
C208 O209 1.160 . S
C208 O215 1.185 . S
O209 C208 1.160 . S
O210 Zn211 1.899 . S
O210 C218 1.284 . S
Zn211 O210 1.899 . S
Zn211 O212 2.032 . S
Zn211 O215 2.086 . S
Zn211 O220 1.977 . S
O212 Zn211 2.032 . S
O212 C216 1.278 . S
C213 O214 1.203 . S
C213 O220 1.267 . S
O214 C213 1.203 . S
O215 C208 1.185 . S
O215 Zn211 2.086 . S
C216 O212 1.278 . S
C216 O217 1.211 . S
O217 C216 1.211 . S
C218 O210 1.284 . S
C218 O219 1.273 . S
O219 C218 1.273 . S
O220 Zn211 1.977 . S
O220 C213 1.267 . S
C221 O222 1.160 . S
C221 O228 1.185 . S
O222 C221 1.160 . S
O223 Zn224 1.899 . S
O223 C231 1.284 . S
Zn224 O223 1.899 . S
Zn224 O225 2.032 . S
Zn224 O228 2.086 . S
Zn224 O233 1.977 . S
O225 Zn224 2.032 . S
O225 C229 1.278 . S
C226 O227 1.203 . S
C226 O233 1.267 . S
O227 C226 1.203 . S
O228 C221 1.185 . S
O228 Zn224 2.086 . S
C229 O225 1.278 . S
C229 O230 1.211 . S
O230 C229 1.211 . S
C231 O223 1.284 . S
C231 O232 1.273 . S
O232 C231 1.273 . S
O233 Zn224 1.977 . S
O233 C226 1.267 . S
C234 O235 1.160 . S
C234 O241 1.185 . S
O235 C234 1.160 . S
O236 Zn237 1.899 . S
O236 C244 1.284 . S
Zn237 O236 1.899 . S
Zn237 O238 2.032 1_545 S
Zn237 O241 2.086 1_545 S
Zn237 O246 1.977 . S
O238 Zn237 2.032 1_565 S
O238 C242 1.278 1_565 S
C239 O240 1.203 . S
C239 O246 1.267 . S
O240 C239 1.203 . S
O241 C234 1.185 . S
O241 Zn237 2.086 1_565 S
C242 O238 1.278 1_545 S
C242 O243 1.211 . S
O243 C242 1.211 . S
C244 O236 1.284 . S
C244 O245 1.273 . S
O245 C244 1.273 . S
O246 Zn237 1.977 . S
O246 C239 1.267 . S
C247 O248 1.160 . S
C247 O254 1.185 . S
O248 C247 1.160 . S
O249 Zn250 1.899 . S
O249 C257 1.284 . S
Zn250 O249 1.899 . S
Zn250 O251 2.032 1_554 S
Zn250 O254 2.086 . S
Zn250 O259 1.977 . S
O251 Zn250 2.032 1_556 S
O251 C255 1.278 . S
C252 O253 1.203 . S
C252 O259 1.267 . S
O253 C252 1.203 . S
O254 C247 1.185 . S
O254 Zn250 2.086 . S
C255 O251 1.278 . S
C255 O256 1.211 . S
O256 C255 1.211 . S
C257 O249 1.284 . S
C257 O258 1.273 . S
O258 C257 1.273 . S
O259 Zn250 1.977 . S
O259 C252 1.267 . S
C260 O261 1.160 . S
C260 O267 1.185 1_554 S
O261 C260 1.160 . S
O262 Zn263 1.899 . S
O262 C270 1.284 . S
Zn263 O262 1.899 . S
Zn263 O264 2.032 1_554 S
Zn263 O267 2.086 1_554 S
Zn263 O272 1.977 1_554 S
O264 Zn263 2.032 1_556 S
O264 C268 1.278 . S
C265 O266 1.203 . S
C265 O272 1.267 1_554 S
O266 C265 1.203 . S
O267 C260 1.185 1_556 S
O267 Zn263 2.086 1_556 S
C268 O264 1.278 . S
C268 O269 1.211 . S
O269 C268 1.211 . S
C270 O262 1.284 . S
C270 O271 1.273 . S
O271 C270 1.273 . S
O272 Zn263 1.977 1_556 S
O272 C265 1.267 1_556 S
C273 O274 1.160 . S
C273 O280 1.185 . S
O274 C273 1.160 . S
O275 Zn276 1.899 . S
O275 C283 1.284 . S
Zn276 O275 1.899 . S
Zn276 O277 2.032 . S
Zn276 O280 2.086 . S
Zn276 O285 1.977 . S
O277 Zn276 2.032 . S
O277 C281 1.278 . S
C278 O279 1.203 . S
C278 O285 1.267 . S
O279 C278 1.203 . S
O280 C273 1.185 . S
O280 Zn276 2.086 . S
C281 O277 1.278 . S
C281 O282 1.211 . S
O282 C281 1.211 . S
C283 O275 1.284 . S
C283 O284 1.273 . S
O284 C283 1.273 . S
O285 Zn276 1.977 . S
O285 C278 1.267 . S
C286 O287 1.160 . S
C286 O293 1.185 . S
O287 C286 1.160 . S
O288 Zn289 1.899 . S
O288 C296 1.284 . S
Zn289 O288 1.899 . S
Zn289 O290 2.032 . S
Zn289 O293 2.086 . S
Zn289 O298 1.977 . S
O290 Zn289 2.032 . S
O290 C294 1.278 . S
C291 O292 1.203 . S
C291 O298 1.267 . S
O292 C291 1.203 . S
O293 C286 1.185 . S
O293 Zn289 2.086 . S
C294 O290 1.278 . S
C294 O295 1.211 . S
O295 C294 1.211 . S
C296 O288 1.284 . S
C296 O297 1.273 . S
O297 C296 1.273 . S
O298 Zn289 1.977 . S
O298 C291 1.267 . S
C299 O300 1.160 . S
C299 O306 1.185 . S
O300 C299 1.160 . S
O301 Zn302 1.899 . S
O301 C309 1.284 . S
Zn302 O301 1.899 . S
Zn302 O303 2.032 . S
Zn302 O306 2.086 . S
Zn302 O311 1.977 . S
O303 Zn302 2.032 . S
O303 C307 1.278 . S
C304 O305 1.203 . S
C304 O311 1.267 . S
O305 C304 1.203 . S
O306 C299 1.185 . S
O306 Zn302 2.086 . S
C307 O303 1.278 . S
C307 O308 1.211 . S
O308 C307 1.211 . S
C309 O301 1.284 . S
C309 O310 1.273 . S
O310 C309 1.273 . S
O311 Zn302 1.977 . S
O311 C304 1.267 . S
Co312 N317 2.057 1_554 S
Co312 O329 2.021 1_554 S
Co312 O332 2.062 1_455 S
Co312 O336 2.117 . S
Co312 O337 2.019 . S
C313 O333 1.259 . S
C313 O336 1.258 . S
Co314 N323 2.057 . S
Co314 O330 2.092 1_545 S
Co314 O331 2.020 1_455 S
Co314 O333 2.021 . S
Co314 O338 2.062 . S
C315 N317 1.312 1_655 S
C315 N318 1.354 . S
C315 H320 0.928 1_655 S
C316 N317 1.375 1_655 S
C316 C319 1.350 . S
C316 H321 0.932 . S
N317 Co312 2.057 1_556 S
N317 C315 1.312 1_455 S
N317 C316 1.375 1_455 S
N318 C315 1.354 . S
N318 C319 1.373 . S
C319 C316 1.350 . S
C319 N318 1.373 . S
C319 H340 0.931 . S
H320 C315 0.928 1_455 S
H321 C316 0.932 . S
C322 O329 1.259 1_564 S
C322 O330 1.268 . S
N323 Co314 2.057 . S
N323 C324 1.316 . S
N323 C325 1.375 1_545 S
C324 N323 1.316 . S
C324 N326 1.347 . S
C324 H335 0.931 . S
C325 N323 1.375 1_565 S
C325 C327 1.350 . S
C325 H334 0.930 . S
N326 C324 1.347 . S
N326 C327 1.373 1_545 S
C327 C325 1.350 . S
C327 N326 1.373 1_565 S
C327 H341 0.931 . S
C328 O331 1.256 . S
C328 O332 1.255 . S
O329 Co312 2.021 1_556 S
O329 C322 1.259 1_546 S
O330 Co314 2.092 1_565 S
O330 C322 1.268 . S
O331 Co314 2.020 1_655 S
O331 C328 1.256 . S
O332 Co312 2.062 1_655 S
O332 C328 1.255 . S
O333 C313 1.259 . S
O333 Co314 2.021 . S
H334 C325 0.930 . S
H335 C324 0.931 . S
O336 Co312 2.117 . S
O336 C313 1.258 . S
O337 Co312 2.019 . S
O337 C339 1.278 . S
O338 Co314 2.062 . S
O338 C339 1.255 . S
C339 O337 1.278 . S
C339 O338 1.255 . S
H340 C319 0.931 . S
H341 C327 0.931 . S
Co342 N347 2.057 . S
Co342 O359 2.021 . S
Co342 O362 2.062 . S
Co342 O366 2.117 . S
Co342 O367 2.020 . S
C343 O363 1.259 . S
C343 O366 1.258 . S
Co344 N353 2.057 . S
Co344 O360 2.117 . S
Co344 O361 2.020 . S
Co344 O363 2.021 . S
Co344 O368 2.062 . S
C345 N347 1.316 . S
C345 N348 1.347 . S
C345 H350 0.931 . S
C346 N347 1.375 . S
C346 C349 1.350 . S
C346 H351 0.930 . S
N347 Co342 2.057 . S
N347 C345 1.316 . S
N347 C346 1.375 . S
N348 C345 1.347 . S
N348 C349 1.373 . S
C349 C346 1.350 . S
C349 N348 1.373 . S
C349 H370 0.931 . S
H350 C345 0.931 . S
H351 C346 0.930 . S
C352 O359 1.259 . S
C352 O360 1.258 . S
N353 Co344 2.057 . S
N353 C354 1.316 . S
N353 C355 1.375 . S
C354 N353 1.316 . S
C354 N356 1.347 . S
C354 H365 0.931 . S
C355 N353 1.375 . S
C355 C357 1.350 . S
C355 H364 0.930 . S
N356 C354 1.347 . S
N356 C357 1.373 . S
C357 C355 1.350 . S
C357 N356 1.373 . S
C357 H371 0.931 . S
C358 O361 1.256 . S
C358 O362 1.255 . S
O359 Co342 2.021 . S
O359 C352 1.259 . S
O360 Co344 2.117 . S
O360 C352 1.258 . S
O361 Co344 2.020 . S
O361 C358 1.256 . S
O362 Co342 2.062 . S
O362 C358 1.255 . S
O363 C343 1.259 . S
O363 Co344 2.021 . S
H364 C355 0.930 . S
H365 C354 0.931 . S
O366 Co342 2.117 . S
O366 C343 1.258 . S
O367 Co342 2.020 . S
O367 C369 1.256 . S
O368 Co344 2.062 . S
O368 C369 1.255 . S
C369 O367 1.256 . S
C369 O368 1.255 . S
H370 C349 0.931 . S
H371 C357 0.931 . S
Co372 N377 2.057 . S
Co372 O389 2.021 1_545 S
Co372 O392 2.062 . S
Co372 O396 2.117 . S
Co372 O397 2.020 . S
C373 O393 1.259 . S
C373 O396 1.258 . S
Co374 N383 2.057 . S
Co374 O390 2.117 . S
Co374 O391 2.020 . S
Co374 O393 2.021 . S
Co374 O398 2.062 . S
C375 N377 1.322 . S
C375 N378 1.348 . S
C375 H380 0.925 1_545 S
C376 N377 1.375 . S
C376 C379 1.350 . S
C376 H381 0.930 . S
N377 Co372 2.057 . S
N377 C375 1.322 . S
N377 C376 1.375 . S
N378 C375 1.348 . S
N378 C379 1.373 . S
C379 C376 1.350 . S
C379 N378 1.373 . S
C379 H400 0.931 . S
H380 C375 0.925 1_565 S
H381 C376 0.930 . S
C382 O389 1.259 . S
C382 O390 1.258 1_565 S
N383 Co374 2.057 . S
N383 C384 1.316 . S
N383 C385 1.375 . S
C384 N383 1.316 . S
C384 N386 1.347 . S
C384 H395 0.931 . S
C385 N383 1.375 . S
C385 C387 1.350 . S
C385 H394 0.930 . S
N386 C384 1.347 . S
N386 C387 1.373 . S
C387 C385 1.350 . S
C387 N386 1.373 . S
C387 H401 0.931 . S
C388 O391 1.256 . S
C388 O392 1.255 . S
O389 Co372 2.021 1_565 S
O389 C382 1.259 . S
O390 Co374 2.117 . S
O390 C382 1.258 1_545 S
O391 Co374 2.020 . S
O391 C388 1.256 . S
O392 Co372 2.062 . S
O392 C388 1.255 . S
O393 C373 1.259 . S
O393 Co374 2.021 . S
H394 C385 0.930 . S
H395 C384 0.931 . S
O396 Co372 2.117 . S
O396 C373 1.258 . S
O397 Co372 2.020 . S
O397 C399 1.256 . S
O398 Co374 2.062 . S
O398 C399 1.255 . S
C399 O397 1.256 . S
C399 O398 1.255 . S
H400 C379 0.931 . S
H401 C387 0.931 . S
Co402 N407 2.057 . S
Co402 O419 2.021 . S
Co402 O422 2.062 . S
Co402 O426 2.117 . S
Co402 O427 2.020 . S
C403 O423 1.259 . S
C403 O426 1.258 . S
Co404 N413 2.057 . S
Co404 O420 2.117 . S
Co404 O421 2.020 . S
Co404 O423 2.021 . S
Co404 O428 2.062 . S
C405 N407 1.316 . S
C405 N408 1.347 . S
C405 H410 0.931 . S
C406 N407 1.375 . S
C406 C409 1.350 . S
C406 H411 0.930 . S
N407 Co402 2.057 . S
N407 C405 1.316 . S
N407 C406 1.375 . S
N408 C405 1.347 . S
N408 C409 1.373 . S
C409 C406 1.350 . S
C409 N408 1.373 . S
C409 H430 0.931 . S
H410 C405 0.931 . S
H411 C406 0.930 . S
C412 O419 1.259 . S
C412 O420 1.258 . S
N413 Co404 2.057 . S
N413 C414 1.316 . S
N413 C415 1.375 . S
C414 N413 1.316 . S
C414 N416 1.347 . S
C414 H425 0.931 . S
C415 N413 1.375 . S
C415 C417 1.350 . S
C415 H424 0.930 . S
N416 C414 1.347 . S
N416 C417 1.373 . S
C417 C415 1.350 . S
C417 N416 1.373 . S
C417 H431 0.931 . S
C418 O421 1.256 . S
C418 O422 1.255 . S
O419 Co402 2.021 . S
O419 C412 1.259 . S
O420 Co404 2.117 . S
O420 C412 1.258 . S
O421 Co404 2.020 . S
O421 C418 1.256 . S
O422 Co402 2.062 . S
O422 C418 1.255 . S
O423 C403 1.259 . S
O423 Co404 2.021 . S
H424 C415 0.930 . S
H425 C414 0.931 . S
O426 Co402 2.117 . S
O426 C403 1.258 . S
O427 Co402 2.020 . S
O427 C429 1.256 . S
O428 Co404 2.062 . S
O428 C429 1.255 . S
C429 O427 1.256 . S
C429 O428 1.255 . S
H430 C409 0.931 . S
H431 C417 0.931 . S
Co432 N437 2.057 1_545 S
Co432 O449 2.021 . S
Co432 O452 2.062 . S
Co432 O456 2.117 . S
Co432 O457 2.020 1_455 S
C433 O453 1.259 . S
C433 O456 1.258 . S
Co434 N443 2.057 . S
Co434 O450 2.117 . S
Co434 O451 2.020 . S
Co434 O453 2.021 . S
Co434 O458 2.062 1_455 S
C435 N437 1.316 . S
C435 N438 1.347 . S
C435 H440 0.931 . S
C436 N437 1.375 1_655 S
C436 C439 1.350 . S
C436 H441 0.930 . S
N437 Co432 2.057 1_565 S
N437 C435 1.316 . S
N437 C436 1.375 1_455 S
N438 C435 1.347 . S
N438 C439 1.373 1_455 S
C439 C436 1.350 . S
C439 N438 1.373 1_655 S
C439 H460 0.931 . S
H440 C435 0.931 . S
H441 C436 0.930 . S
C442 O449 1.259 . S
C442 O450 1.258 . S
N443 Co434 2.057 . S
N443 C444 1.316 . S
N443 C445 1.375 . S
C444 N443 1.316 . S
C444 N446 1.347 . S
C444 H455 0.931 . S
C445 N443 1.375 . S
C445 C447 1.350 . S
C445 H454 0.930 . S
N446 C444 1.347 . S
N446 C447 1.373 . S
C447 C445 1.350 . S
C447 N446 1.373 . S
C447 H461 0.931 . S
C448 O451 1.256 . S
C448 O452 1.255 . S
O449 Co432 2.021 . S
O449 C442 1.259 . S
O450 Co434 2.117 . S
O450 C442 1.258 . S
O451 Co434 2.020 . S
O451 C448 1.256 . S
O452 Co432 2.062 . S
O452 C448 1.255 . S
O453 C433 1.259 . S
O453 Co434 2.021 . S
H454 C445 0.930 . S
H455 C444 0.931 . S
O456 Co432 2.117 . S
O456 C433 1.258 . S
O457 Co432 2.020 1_655 S
O457 C459 1.256 . S
O458 Co434 2.062 1_655 S
O458 C459 1.255 . S
C459 O457 1.256 . S
C459 O458 1.255 . S
H460 C439 0.931 . S
H461 C447 0.931 . S
Co462 N467 2.057 . S
Co462 O479 2.021 . S
Co462 O482 2.062 . S
Co462 O486 2.117 . S
Co462 O487 2.020 . S
C463 O483 1.259 . S
C463 O486 1.258 . S
Co464 N473 2.057 . S
Co464 O480 2.117 . S
Co464 O481 2.020 . S
Co464 O483 2.021 . S
Co464 O488 2.062 . S
C465 N467 1.316 . S
C465 N468 1.347 . S
C465 H470 0.931 . S
C466 N467 1.375 . S
C466 C469 1.350 . S
C466 H471 0.930 . S
N467 Co462 2.057 . S
N467 C465 1.316 . S
N467 C466 1.375 . S
N468 C465 1.347 . S
N468 C469 1.373 . S
C469 C466 1.350 . S
C469 N468 1.373 . S
C469 H490 0.931 . S
H470 C465 0.931 . S
H471 C466 0.930 . S
C472 O479 1.259 . S
C472 O480 1.258 . S
N473 Co464 2.057 . S
N473 C474 1.316 . S
N473 C475 1.375 . S
C474 N473 1.316 . S
C474 N476 1.347 . S
C474 H485 0.931 . S
C475 N473 1.375 . S
C475 C477 1.350 . S
C475 H484 0.930 . S
N476 C474 1.347 . S
N476 C477 1.373 . S
C477 C475 1.350 . S
C477 N476 1.373 . S
C477 H491 0.931 . S
C478 O481 1.256 . S
C478 O482 1.255 . S
O479 Co462 2.021 . S
O479 C472 1.259 . S
O480 Co464 2.117 . S
O480 C472 1.258 . S
O481 Co464 2.020 . S
O481 C478 1.256 . S
O482 Co462 2.062 . S
O482 C478 1.255 . S
O483 C463 1.259 . S
O483 Co464 2.021 . S
H484 C475 0.930 . S
H485 C474 0.931 . S
O486 Co462 2.117 . S
O486 C463 1.258 . S
O487 Co462 2.020 . S
O487 C489 1.256 . S
O488 Co464 2.062 . S
O488 C489 1.255 . S
C489 O487 1.256 . S
C489 O488 1.255 . S
H490 C469 0.931 . S
H491 C477 0.931 . S
Co492 N497 2.057 1_554 S
Co492 O509 2.021 . S
Co492 O512 2.062 1_554 S
Co492 O516 2.117 . S
Co492 O517 2.020 1_545 S
C493 O513 1.259 . S
C493 O516 1.258 . S
Co494 N503 2.057 . S
Co494 O510 2.117 . S
Co494 O511 2.020 . S
Co494 O513 2.021 . S
Co494 O518 2.062 . S
C495 N497 1.316 . S
C495 N498 1.347 . S
C495 H500 0.931 . S
C496 N497 1.375 . S
C496 C499 1.350 . S
C496 H501 0.930 . S
N497 Co492 2.057 1_556 S
N497 C495 1.316 . S
N497 C496 1.375 . S
N498 C495 1.347 . S
N498 C499 1.373 . S
C499 C496 1.350 . S
C499 N498 1.373 . S
C499 H520 0.931 . S
H500 C495 0.931 . S
H501 C496 0.930 . S
C502 O509 1.259 . S
C502 O510 1.258 . S
N503 Co494 2.057 . S
N503 C504 1.316 . S
N503 C505 1.375 . S
C504 N503 1.316 . S
C504 N506 1.347 . S
C504 H515 0.931 . S
C505 N503 1.375 . S
C505 C507 1.350 . S
C505 H514 0.930 . S
N506 C504 1.347 . S
N506 C507 1.373 . S
C507 C505 1.350 . S
C507 N506 1.373 . S
C507 H521 0.931 . S
C508 O511 1.256 . S
C508 O512 1.255 1_554 S
O509 Co492 2.021 . S
O509 C502 1.259 . S
O510 Co494 2.117 . S
O510 C502 1.258 . S
O511 Co494 2.020 . S
O511 C508 1.256 . S
O512 Co492 2.062 1_556 S
O512 C508 1.255 1_556 S
O513 C493 1.259 . S
O513 Co494 2.021 . S
H514 C505 0.930 . S
H515 C504 0.931 . S
O516 Co492 2.117 . S
O516 C493 1.258 . S
O517 Co492 2.020 1_565 S
O517 C519 1.256 . S
O518 Co494 2.062 . S
O518 C519 1.255 1_545 S
C519 O517 1.256 . S
C519 O518 1.255 1_565 S
H520 C499 0.931 . S
H521 C507 0.931 . S
Co522 N527 2.057 . S
Co522 O539 2.021 . S
Co522 O542 2.062 . S
Co522 O546 2.117 . S
Co522 O547 2.020 . S
C523 O543 1.259 . S
C523 O546 1.258 . S
Co524 N533 2.057 . S
Co524 O540 2.117 . S
Co524 O541 2.020 . S
Co524 O543 2.021 . S
Co524 O548 2.062 . S
C525 N527 1.316 . S
C525 N528 1.347 . S
C525 H530 0.931 . S
C526 N527 1.375 . S
C526 C529 1.350 . S
C526 H531 0.930 . S
N527 Co522 2.057 . S
N527 C525 1.316 . S
N527 C526 1.375 . S
N528 C525 1.347 . S
N528 C529 1.373 . S
C529 C526 1.350 . S
C529 N528 1.373 . S
C529 H550 0.931 . S
H530 C525 0.931 . S
H531 C526 0.930 . S
C532 O539 1.259 . S
C532 O540 1.258 . S
N533 Co524 2.057 . S
N533 C534 1.316 . S
N533 C535 1.375 . S
C534 N533 1.316 . S
C534 N536 1.347 . S
C534 H545 0.931 . S
C535 N533 1.375 . S
C535 C537 1.350 . S
C535 H544 0.930 . S
N536 C534 1.347 . S
N536 C537 1.373 . S
C537 C535 1.350 . S
C537 N536 1.373 . S
C537 H551 0.931 . S
C538 O541 1.256 . S
C538 O542 1.255 . S
O539 Co522 2.021 . S
O539 C532 1.259 . S
O540 Co524 2.117 . S
O540 C532 1.258 . S
O541 Co524 2.020 . S
O541 C538 1.256 . S
O542 Co522 2.062 . S
O542 C538 1.255 . S
O543 C523 1.259 . S
O543 Co524 2.021 . S
H544 C535 0.930 . S
H545 C534 0.931 . S
O546 Co522 2.117 . S
O546 C523 1.258 . S
O547 Co522 2.020 . S
O547 C549 1.256 . S
O548 Co524 2.062 . S
O548 C549 1.255 . S
C549 O547 1.256 . S
C549 O548 1.255 . S
H550 C529 0.931 . S
H551 C537 0.931 . S
Co552 N557 2.057 . S
Co552 O569 2.021 1_554 S
Co552 O572 2.062 . S
Co552 O576 2.117 . S
Co552 O577 2.020 . S
C553 O573 1.259 . S
C553 O576 1.258 . S
Co554 N563 2.057 . S
Co554 O570 2.117 1_554 S
Co554 O571 2.020 . S
Co554 O573 2.021 . S
Co554 O578 2.062 . S
C555 N557 1.316 1_556 S
C555 N558 1.352 . S
C555 H560 0.931 . S
C556 N557 1.375 . S
C556 C559 1.350 . S
C556 H561 0.930 . S
N557 Co552 2.057 . S
N557 C555 1.316 1_554 S
N557 C556 1.375 . S
N558 C555 1.352 . S
N558 C559 1.348 1_556 S
C559 C556 1.350 . S
C559 N558 1.348 1_554 S
C559 H580 0.931 . S
H560 C555 0.931 . S
H561 C556 0.930 . S
C562 O569 1.259 . S
C562 O570 1.258 . S
N563 Co554 2.057 . S
N563 C564 1.316 . S
N563 C565 1.375 . S
C564 N563 1.316 . S
C564 N566 1.347 . S
C564 H575 0.931 . S
C565 N563 1.375 . S
C565 C567 1.350 . S
C565 H574 0.930 . S
N566 C564 1.347 . S
N566 C567 1.373 . S
C567 C565 1.350 . S
C567 N566 1.373 . S
C567 H581 0.931 . S
C568 O571 1.256 . S
C568 O572 1.255 . S
O569 Co552 2.021 1_556 S
O569 C562 1.259 . S
O570 Co554 2.117 1_556 S
O570 C562 1.258 . S
O571 Co554 2.020 . S
O571 C568 1.256 . S
O572 Co552 2.062 . S
O572 C568 1.255 . S
O573 C553 1.259 . S
O573 Co554 2.021 . S
H574 C565 0.930 . S
H575 C564 0.931 . S
O576 Co552 2.117 . S
O576 C553 1.258 . S
O577 Co552 2.020 . S
O577 C579 1.256 . S
O578 Co554 2.062 . S
O578 C579 1.255 . S
C579 O577 1.256 . S
C579 O578 1.255 . S
H580 C559 0.931 . S
H581 C567 0.931 . S
Co582 N587 2.057 . S
Co582 O599 2.021 . S
Co582 O602 2.062 . S
Co582 O606 2.117 . S
Co582 O607 2.020 . S
C583 O603 1.259 . S
C583 O606 1.258 . S
Co584 N593 2.057 . S
Co584 O600 2.117 . S
Co584 O601 2.020 . S
Co584 O603 2.021 . S
Co584 O608 2.062 . S
C585 N587 1.316 . S
C585 N588 1.347 . S
C585 H590 0.931 . S
C586 N587 1.375 . S
C586 C589 1.350 . S
C586 H591 0.930 . S
N587 Co582 2.057 . S
N587 C585 1.316 . S
N587 C586 1.375 . S
N588 C585 1.347 . S
N588 C589 1.373 . S
C589 C586 1.350 . S
C589 N588 1.373 . S
C589 H610 0.931 . S
H590 C585 0.931 . S
H591 C586 0.930 . S
C592 O599 1.259 . S
C592 O600 1.258 . S
N593 Co584 2.057 . S
N593 C594 1.316 . S
N593 C595 1.375 . S
C594 N593 1.316 . S
C594 N596 1.347 . S
C594 H605 0.931 . S
C595 N593 1.375 . S
C595 C597 1.350 . S
C595 H604 0.930 . S
N596 C594 1.347 . S
N596 C597 1.373 . S
C597 C595 1.350 . S
C597 N596 1.373 . S
C597 H611 0.931 . S
C598 O601 1.256 . S
C598 O602 1.255 . S
O599 Co582 2.021 . S
O599 C592 1.259 . S
O600 Co584 2.117 . S
O600 C592 1.258 . S
O601 Co584 2.020 . S
O601 C598 1.256 . S
O602 Co582 2.062 . S
O602 C598 1.255 . S
O603 C583 1.259 . S
O603 Co584 2.021 . S
H604 C595 0.930 . S
H605 C594 0.931 . S
O606 Co582 2.117 . S
O606 C583 1.258 . S
O607 Co582 2.020 . S
O607 C609 1.256 . S
O608 Co584 2.062 . S
O608 C609 1.255 . S
C609 O607 1.256 . S
C609 O608 1.255 . S
H610 C589 0.931 . S
H611 C597 0.931 . S
Co612 N617 2.057 . S
Co612 O629 2.021 1_455 S
Co612 O632 2.062 . S
Co612 O636 2.117 . S
Co612 O637 2.020 . S
C613 O633 1.259 . S
C613 O636 1.258 . S
Co614 N623 2.057 . S
Co614 O630 2.117 1_455 S
Co614 O631 2.020 . S
Co614 O633 2.021 . S
Co614 O638 2.062 . S
C615 N617 1.316 1_655 S
C615 N618 1.347 . S
C615 H620 0.931 . S
C616 N617 1.375 . S
C616 C619 1.350 . S
C616 H621 0.930 . S
N617 Co612 2.057 . S
N617 C615 1.316 1_455 S
N617 C616 1.375 . S
N618 C615 1.347 . S
N618 C619 1.373 1_655 S
C619 C616 1.350 . S
C619 N618 1.373 1_455 S
C619 H640 0.931 . S
H620 C615 0.931 . S
H621 C616 0.930 . S
C622 O629 1.259 . S
C622 O630 1.258 . S
N623 Co614 2.057 . S
N623 C624 1.316 . S
N623 C625 1.375 . S
C624 N623 1.316 . S
C624 N626 1.347 . S
C624 H635 0.931 . S
C625 N623 1.375 . S
C625 C627 1.350 . S
C625 H634 0.930 . S
N626 C624 1.347 . S
N626 C627 1.373 . S
C627 C625 1.350 . S
C627 N626 1.373 . S
C627 H641 0.931 . S
C628 O631 1.256 . S
C628 O632 1.255 . S
O629 Co612 2.021 1_655 S
O629 C622 1.259 . S
O630 Co614 2.117 1_655 S
O630 C622 1.258 . S
O631 Co614 2.020 . S
O631 C628 1.256 . S
O632 Co612 2.062 . S
O632 C628 1.255 . S
O633 C613 1.259 . S
O633 Co614 2.021 . S
H634 C625 0.930 . S
H635 C624 0.931 . S
O636 Co612 2.117 . S
O636 C613 1.258 . S
O637 Co612 2.020 . S
O637 C639 1.256 . S
O638 Co614 2.062 . S
O638 C639 1.255 . S
C639 O637 1.256 . S
C639 O638 1.255 . S
H640 C619 0.931 . S
H641 C627 0.931 . S
Co642 N647 2.057 . S
Co642 O659 2.021 . S
Co642 O662 2.062 . S
Co642 O666 2.117 . S
Co642 O667 2.020 . S
C643 O663 1.259 . S
C643 O666 1.258 . S
Co644 N653 2.057 . S
Co644 O660 2.117 . S
Co644 O661 2.020 . S
Co644 O663 2.021 . S
Co644 O668 2.062 . S
C645 N647 1.316 . S
C645 N648 1.347 . S
C645 H650 0.931 . S
C646 N647 1.375 . S
C646 C649 1.350 . S
C646 H651 0.930 . S
N647 Co642 2.057 . S
N647 C645 1.316 . S
N647 C646 1.375 . S
N648 C645 1.347 . S
N648 C649 1.373 . S
C649 C646 1.350 . S
C649 N648 1.373 . S
C649 H670 0.931 . S
H650 C645 0.931 . S
H651 C646 0.930 . S
C652 O659 1.259 . S
C652 O660 1.258 . S
N653 Co644 2.057 . S
N653 C654 1.316 . S
N653 C655 1.375 . S
C654 N653 1.316 . S
C654 N656 1.347 . S
C654 H665 0.931 . S
C655 N653 1.375 . S
C655 C657 1.350 . S
C655 H664 0.930 . S
N656 C654 1.347 . S
N656 C657 1.373 . S
C657 C655 1.350 . S
C657 N656 1.373 . S
C657 H671 0.931 . S
C658 O661 1.256 . S
C658 O662 1.255 . S
O659 Co642 2.021 . S
O659 C652 1.259 . S
O660 Co644 2.117 . S
O660 C652 1.258 . S
O661 Co644 2.020 . S
O661 C658 1.256 . S
O662 Co642 2.062 . S
O662 C658 1.255 . S
O663 C643 1.259 . S
O663 Co644 2.021 . S
H664 C655 0.930 . S
H665 C654 0.931 . S
O666 Co642 2.117 . S
O666 C643 1.258 . S
O667 Co642 2.020 . S
O667 C669 1.256 . S
O668 Co644 2.062 . S
O668 C669 1.255 . S
C669 O667 1.256 . S
C669 O668 1.255 . S
H670 C649 0.931 . S
H671 C657 0.931 . S
Co672 N677 2.057 . S
Co672 O689 2.021 . S
Co672 O692 2.062 . S
Co672 O696 2.117 . S
Co672 O697 2.020 . S
C673 O693 1.259 . S
C673 O696 1.258 . S
Co674 N683 2.057 . S
Co674 O690 2.117 . S
Co674 O691 2.020 . S
Co674 O693 2.021 . S
Co674 O698 2.062 . S
C675 N677 1.316 . S
C675 N678 1.347 . S
C675 H680 0.931 . S
C676 N677 1.375 . S
C676 C679 1.350 . S
C676 H681 0.930 . S
N677 Co672 2.057 . S
N677 C675 1.316 . S
N677 C676 1.375 . S
N678 C675 1.347 . S
N678 C679 1.373 . S
C679 C676 1.350 . S
C679 N678 1.373 . S
C679 H700 0.931 . S
H680 C675 0.931 . S
H681 C676 0.930 . S
C682 O689 1.259 . S
C682 O690 1.258 . S
N683 Co674 2.057 . S
N683 C684 1.316 . S
N683 C685 1.375 . S
C684 N683 1.316 . S
C684 N686 1.347 . S
C684 H695 0.931 . S
C685 N683 1.375 . S
C685 C687 1.350 . S
C685 H694 0.930 . S
N686 C684 1.347 . S
N686 C687 1.373 . S
C687 C685 1.350 . S
C687 N686 1.373 . S
C687 H701 0.931 . S
C688 O691 1.256 . S
C688 O692 1.255 . S
O689 Co672 2.021 . S
O689 C682 1.259 . S
O690 Co674 2.117 . S
O690 C682 1.258 . S
O691 Co674 2.020 . S
O691 C688 1.256 . S
O692 Co672 2.062 . S
O692 C688 1.255 . S
O693 C673 1.259 . S
O693 Co674 2.021 . S
H694 C685 0.930 . S
H695 C684 0.931 . S
O696 Co672 2.117 . S
O696 C673 1.258 . S
O697 Co672 2.020 . S
O697 C699 1.256 . S
O698 Co674 2.062 . S
O698 C699 1.255 . S
C699 O697 1.256 . S
C699 O698 1.255 . S
H700 C679 0.931 . S
H701 C687 0.931 . S
Co702 N707 2.057 . S
Co702 O719 2.021 . S
Co702 O722 2.062 . S
Co702 O726 2.117 . S
Co702 O727 2.020 . S
C703 O723 1.259 . S
C703 O726 1.258 . S
Co704 N713 2.057 . S
Co704 O720 2.117 . S
Co704 O721 2.020 . S
Co704 O723 2.021 . S
Co704 O728 2.062 . S
C705 N707 1.316 . S
C705 N708 1.347 . S
C705 H710 0.931 . S
C706 N707 1.375 . S
C706 C709 1.350 . S
C706 H711 0.930 . S
N707 Co702 2.057 . S
N707 C705 1.316 . S
N707 C706 1.375 . S
N708 C705 1.347 . S
N708 C709 1.373 . S
C709 C706 1.350 . S
C709 N708 1.373 . S
C709 H730 0.931 . S
H710 C705 0.931 . S
H711 C706 0.930 . S
C712 O719 1.259 . S
C712 O720 1.258 . S
N713 Co704 2.057 . S
N713 C714 1.316 . S
N713 C715 1.375 . S
C714 N713 1.316 . S
C714 N716 1.347 . S
C714 H725 0.931 . S
C715 N713 1.375 . S
C715 C717 1.350 . S
C715 H724 0.930 . S
N716 C714 1.347 . S
N716 C717 1.373 . S
C717 C715 1.350 . S
C717 N716 1.373 . S
C717 H731 0.931 . S
C718 O721 1.256 . S
C718 O722 1.255 . S
O719 Co702 2.021 . S
O719 C712 1.259 . S
O720 Co704 2.117 . S
O720 C712 1.258 . S
O721 Co704 2.020 . S
O721 C718 1.256 . S
O722 Co702 2.062 . S
O722 C718 1.255 . S
O723 C703 1.259 . S
O723 Co704 2.021 . S
H724 C715 0.930 . S
H725 C714 0.931 . S
O726 Co702 2.117 . S
O726 C703 1.258 . S
O727 Co702 2.020 . S
O727 C729 1.256 . S
O728 Co704 2.062 . S
O728 C729 1.255 . S
C729 O727 1.256 . S
C729 O728 1.255 . S
H730 C709 0.931 . S
H731 C717 0.931 . S
Co732 N737 2.057 . S
Co732 O749 2.021 . S
Co732 O752 2.062 . S
Co732 O756 2.117 . S
Co732 O757 2.020 . S
C733 O753 1.259 . S
C733 O756 1.258 . S
Co734 N743 2.057 . S
Co734 O750 2.117 . S
Co734 O751 2.020 . S
Co734 O753 2.021 . S
Co734 O758 2.062 . S
C735 N737 1.316 . S
C735 N738 1.347 . S
C735 H740 0.931 . S
C736 N737 1.375 . S
C736 C739 1.350 . S
C736 H741 0.930 . S
N737 Co732 2.057 . S
N737 C735 1.316 . S
N737 C736 1.375 . S
N738 C735 1.347 . S
N738 C739 1.373 . S
C739 C736 1.350 . S
C739 N738 1.373 . S
C739 H760 0.931 . S
H740 C735 0.931 . S
H741 C736 0.930 . S
C742 O749 1.259 . S
C742 O750 1.258 . S
N743 Co734 2.057 . S
N743 C744 1.316 . S
N743 C745 1.375 . S
C744 N743 1.316 . S
C744 N746 1.347 . S
C744 H755 0.931 . S
C745 N743 1.375 . S
C745 C747 1.350 . S
C745 H754 0.930 . S
N746 C744 1.347 . S
N746 C747 1.373 . S
C747 C745 1.350 . S
C747 N746 1.373 . S
C747 H761 0.931 . S
C748 O751 1.256 . S
C748 O752 1.255 . S
O749 Co732 2.021 . S
O749 C742 1.259 . S
O750 Co734 2.117 . S
O750 C742 1.258 . S
O751 Co734 2.020 . S
O751 C748 1.256 . S
O752 Co732 2.062 . S
O752 C748 1.255 . S
O753 C733 1.259 . S
O753 Co734 2.021 . S
H754 C745 0.930 . S
H755 C744 0.931 . S
O756 Co732 2.117 . S
O756 C733 1.258 . S
O757 Co732 2.020 . S
O757 C759 1.256 . S
O758 Co734 2.062 . S
O758 C759 1.255 . S
C759 O757 1.256 . S
C759 O758 1.255 . S
H760 C739 0.931 . S
H761 C747 0.931 . S
Co762 N767 2.057 1_455 S
Co762 O779 2.021 . S
Co762 O782 2.062 1_455 S
Co762 O786 2.117 . S
Co762 O787 2.020 1_554 S
C763 O783 1.259 . S
C763 O786 1.258 . S
Co764 N773 2.057 . S
Co764 O780 2.117 . S
Co764 O781 2.020 . S
Co764 O783 2.021 . S
Co764 O788 2.060 1_554 S
C765 N767 1.316 . S
C765 N768 1.347 . S
C765 H770 0.931 . S
C766 N767 1.372 1_556 S
C766 C769 1.349 . S
C766 H771 0.932 . S
N767 Co762 2.057 1_655 S
N767 C765 1.316 . S
N767 C766 1.372 1_554 S
N768 C765 1.347 . S
N768 C769 1.358 1_554 S
C769 C766 1.349 . S
C769 N768 1.358 1_556 S
C769 H790 0.946 . S
H770 C765 0.931 . S
H771 C766 0.932 . S
C772 O779 1.259 . S
C772 O780 1.258 . S
N773 Co764 2.057 . S
N773 C774 1.316 . S
N773 C775 1.375 . S
C774 N773 1.316 . S
C774 N776 1.347 . S
C774 H785 0.931 . S
C775 N773 1.375 . S
C775 C777 1.350 . S
C775 H784 0.930 . S
N776 C774 1.347 . S
N776 C777 1.373 . S
C777 C775 1.350 . S
C777 N776 1.373 . S
C777 H791 0.931 . S
C778 O781 1.256 . S
C778 O782 1.255 1_455 S
O779 Co762 2.021 . S
O779 C772 1.259 . S
O780 Co764 2.117 . S
O780 C772 1.258 . S
O781 Co764 2.020 . S
O781 C778 1.256 . S
O782 Co762 2.062 1_655 S
O782 C778 1.255 1_655 S
O783 C763 1.259 . S
O783 Co764 2.021 . S
H784 C775 0.930 . S
H785 C774 0.931 . S
O786 Co762 2.117 . S
O786 C763 1.258 . S
O787 Co762 2.020 1_556 S
O787 C789 1.256 . S
O788 Co764 2.060 1_556 S
O788 C789 1.256 . S
C789 O787 1.256 . S
C789 O788 1.256 . S
H790 C769 0.946 . S
H791 C777 0.931 . S
H792 C798 0.930 1_655 S
H793 C802 0.930 . S
H794 C807 0.929 . S
H795 C805 0.929 . S
H796 C800 0.929 . S
H797 C806 0.929 1_655 S
C798 H792 0.930 1_455 S
C798 C799 1.367 . S
C798 C806 1.378 . S
C799 C798 1.367 . S
C799 C807 1.433 . S
C800 H796 0.929 . S
C800 C802 1.378 . S
C800 C804 1.350 . S
C801 C804 1.463 . S
C801 C806 1.350 . S
C801 N809 1.427 . S
C802 H793 0.930 . S
C802 C800 1.378 . S
C802 C803 1.367 . S
C803 C802 1.367 . S
C803 C805 1.433 1_455 S
C804 C800 1.350 . S
C804 C801 1.463 . S
C804 N808 1.427 1_455 S
C805 H795 0.929 . S
C805 C803 1.433 1_655 S
C805 N808 1.384 . S
C806 H797 0.929 1_455 S
C806 C798 1.378 . S
C806 C801 1.350 . S
C807 H794 0.929 . S
C807 C799 1.433 . S
C807 N809 1.384 . S
N808 C804 1.427 1_655 S
N808 C805 1.384 . S
N809 C801 1.427 . S
N809 C807 1.384 . S
H810 C816 0.930 . S
H811 C820 0.930 . S
H812 C825 0.929 . S
H813 C823 0.929 . S
H814 C818 0.929 . S
H815 C824 0.929 . S
C816 H810 0.930 . S
C816 C817 1.367 . S
C816 C824 1.378 . S
C817 C816 1.367 . S
C817 C825 1.433 . S
C818 H814 0.929 . S
C818 C820 1.378 . S
C818 C822 1.350 . S
C819 C822 1.463 . S
C819 C824 1.350 . S
C819 N827 1.427 . S
C820 H811 0.930 . S
C820 C818 1.378 . S
C820 C821 1.367 . S
C821 C820 1.367 . S
C821 C823 1.433 . S
C822 C818 1.350 . S
C822 C819 1.463 . S
C822 N826 1.427 . S
C823 H813 0.929 . S
C823 C821 1.433 . S
C823 N826 1.384 . S
C824 H815 0.929 . S
C824 C816 1.378 . S
C824 C819 1.350 . S
C825 H812 0.929 . S
C825 C817 1.433 . S
C825 N827 1.384 . S
N826 C822 1.427 . S
N826 C823 1.384 . S
N827 C819 1.427 . S
N827 C825 1.384 . S
H828 C834 0.930 . S
H829 C838 0.930 . S
H830 C843 0.929 . S
H831 C841 0.929 . S
H832 C836 0.929 . S
H833 C842 0.929 . S
C834 H828 0.930 . S
C834 C835 1.367 . S
C834 C842 1.378 . S
C835 C834 1.367 . S
C835 C843 1.433 . S
C836 H832 0.929 . S
C836 C838 1.378 . S
C836 C840 1.350 . S
C837 C840 1.463 . S
C837 C842 1.350 . S
C837 N845 1.427 . S
C838 H829 0.930 . S
C838 C836 1.378 . S
C838 C839 1.367 . S
C839 C838 1.367 . S
C839 C841 1.433 . S
C840 C836 1.350 . S
C840 C837 1.463 . S
C840 N844 1.427 . S
C841 H831 0.929 . S
C841 C839 1.433 . S
C841 N844 1.384 . S
C842 H833 0.929 . S
C842 C834 1.378 . S
C842 C837 1.350 . S
C843 H830 0.929 . S
C843 C835 1.433 . S
C843 N845 1.384 . S
N844 C840 1.427 . S
N844 C841 1.384 . S
N845 C837 1.427 . S
N845 C843 1.384 . S
H846 C852 0.930 . S
H847 C856 0.930 . S
H848 C861 0.929 . S
H849 C859 0.929 . S
H850 C854 0.929 . S
H851 C860 0.929 . S
C852 H846 0.930 . S
C852 C853 1.367 . S
C852 C860 1.378 . S
C853 C852 1.367 . S
C853 C861 1.433 . S
C854 H850 0.929 . S
C854 C856 1.378 . S
C854 C858 1.350 . S
C855 C858 1.463 . S
C855 C860 1.350 . S
C855 N863 1.427 . S
C856 H847 0.930 . S
C856 C854 1.378 . S
C856 C857 1.367 . S
C857 C856 1.367 . S
C857 C859 1.433 . S
C858 C854 1.350 . S
C858 C855 1.463 . S
C858 N862 1.427 . S
C859 H849 0.929 . S
C859 C857 1.433 . S
C859 N862 1.384 . S
C860 H851 0.929 . S
C860 C852 1.378 . S
C860 C855 1.350 . S
C861 H848 0.929 . S
C861 C853 1.433 . S
C861 N863 1.384 . S
N862 C858 1.427 . S
N862 C859 1.384 . S
N863 C855 1.427 . S
N863 C861 1.384 . S
H864 C870 0.930 . S
H865 C874 0.930 . S
H866 C879 0.929 . S
H867 C877 0.929 . S
H868 C872 0.929 . S
H869 C878 0.929 . S
C870 H864 0.930 . S
C870 C871 1.367 . S
C870 C878 1.378 . S
C871 C870 1.367 . S
C871 C879 1.433 . S
C872 H868 0.929 . S
C872 C874 1.378 . S
C872 C876 1.350 . S
C873 C876 1.463 . S
C873 C878 1.350 . S
C873 N881 1.427 . S
C874 H865 0.930 . S
C874 C872 1.378 . S
C874 C875 1.367 . S
C875 C874 1.367 . S
C875 C877 1.433 . S
C876 C872 1.350 . S
C876 C873 1.463 . S
C876 N880 1.427 . S
C877 H867 0.929 . S
C877 C875 1.433 . S
C877 N880 1.384 . S
C878 H869 0.929 . S
C878 C870 1.378 . S
C878 C873 1.350 . S
C879 H866 0.929 . S
C879 C871 1.433 . S
C879 N881 1.384 . S
N880 C876 1.427 . S
N880 C877 1.384 . S
N881 C873 1.427 . S
N881 C879 1.384 . S
H882 C888 0.930 . S
H883 C892 0.930 . S
H884 C897 0.929 . S
H885 C895 0.929 . S
H886 C890 0.929 . S
H887 C896 0.929 . S
C888 H882 0.930 . S
C888 C889 1.367 . S
C888 C896 1.378 . S
C889 C888 1.367 . S
C889 C897 1.433 . S
C890 H886 0.929 . S
C890 C892 1.378 . S
C890 C894 1.350 . S
C891 C894 1.463 . S
C891 C896 1.350 . S
C891 N899 1.427 . S
C892 H883 0.930 . S
C892 C890 1.378 . S
C892 C893 1.367 . S
C893 C892 1.367 . S
C893 C895 1.433 . S
C894 C890 1.350 . S
C894 C891 1.463 . S
C894 N898 1.427 . S
C895 H885 0.929 . S
C895 C893 1.433 . S
C895 N898 1.384 . S
C896 H887 0.929 . S
C896 C888 1.378 . S
C896 C891 1.350 . S
C897 H884 0.929 . S
C897 C889 1.433 . S
C897 N899 1.384 . S
N898 C894 1.427 . S
N898 C895 1.384 . S
N899 C891 1.427 . S
N899 C897 1.384 . S
H900 C906 0.930 . S
H901 C910 0.930 . S
H902 C915 0.929 . S
H903 C913 0.929 1_554 S
H904 C908 0.929 . S
H905 C914 0.929 . S
C906 H900 0.930 . S
C906 C907 1.367 . S
C906 C914 1.378 . S
C907 C906 1.367 . S
C907 C915 1.433 . S
C908 H904 0.929 . S
C908 C910 1.378 . S
C908 C912 1.350 . S
C909 C912 1.463 . S
C909 C914 1.350 . S
C909 N917 1.427 . S
C910 H901 0.930 . S
C910 C908 1.378 . S
C910 C911 1.366 . S
C911 C910 1.366 . S
C911 C913 1.433 . S
C912 C908 1.350 . S
C912 C909 1.463 . S
C912 N916 1.427 . S
C913 H903 0.929 1_556 S
C913 C911 1.433 . S
C913 N916 1.384 . S
C914 H905 0.929 . S
C914 C906 1.378 . S
C914 C909 1.350 . S
C915 H902 0.929 . S
C915 C907 1.433 . S
C915 N917 1.384 . S
N916 C912 1.427 . S
N916 C913 1.384 . S
N917 C909 1.427 . S
N917 C915 1.384 . S
H918 C924 0.930 . S
H919 C928 0.930 . S
H920 C933 0.929 . S
H921 C931 0.929 . S
H922 C926 0.929 . S
H923 C932 0.929 . S
C924 H918 0.930 . S
C924 C925 1.367 . S
C924 C932 1.378 . S
C925 C924 1.367 . S
C925 C933 1.433 . S
C926 H922 0.929 . S
C926 C928 1.378 . S
C926 C930 1.350 . S
C927 C930 1.463 . S
C927 C932 1.350 . S
C927 N935 1.427 . S
C928 H919 0.930 . S
C928 C926 1.378 . S
C928 C929 1.367 . S
C929 C928 1.367 . S
C929 C931 1.433 . S
C930 C926 1.350 . S
C930 C927 1.463 . S
C930 N934 1.427 . S
C931 H921 0.929 . S
C931 C929 1.433 . S
C931 N934 1.384 . S
C932 H923 0.929 . S
C932 C924 1.378 . S
C932 C927 1.350 . S
C933 H920 0.929 . S
C933 C925 1.433 . S
C933 N935 1.384 . S
N934 C930 1.427 . S
N934 C931 1.384 . S
N935 C927 1.427 . S
N935 C933 1.384 . S
H936 C942 0.930 . S
H937 C946 0.930 . S
H938 C951 0.929 . S
H939 C949 0.929 . S
H940 C944 0.929 . S
H941 C950 0.929 . S
C942 H936 0.930 . S
C942 C943 1.367 . S
C942 C950 1.378 . S
C943 C942 1.367 . S
C943 C951 1.433 1_545 S
C944 H940 0.929 . S
C944 C946 1.378 . S
C944 C948 1.350 1_565 S
C945 C948 1.463 . S
C945 C950 1.350 . S
C945 N953 1.427 1_545 S
C946 H937 0.930 . S
C946 C944 1.378 . S
C946 C947 1.367 1_565 S
C947 C946 1.367 1_545 S
C947 C949 1.433 . S
C948 C944 1.350 1_545 S
C948 C945 1.463 . S
C948 N952 1.427 . S
C949 H939 0.929 . S
C949 C947 1.433 . S
C949 N952 1.384 . S
C950 H941 0.929 . S
C950 C942 1.378 . S
C950 C945 1.350 . S
C951 H938 0.929 . S
C951 C943 1.433 1_565 S
C951 N953 1.384 . S
N952 C948 1.427 . S
N952 C949 1.384 . S
N953 C945 1.427 1_565 S
N953 C951 1.384 . S
H954 C960 0.930 . S
H955 C964 0.930 . S
H956 C969 0.929 . S
H957 C967 0.929 . S
H958 C962 0.929 . S
H959 C968 0.929 . S
C960 H954 0.930 . S
C960 C961 1.367 . S
C960 C968 1.378 . S
C961 C960 1.367 . S
C961 C969 1.433 . S
C962 H958 0.929 . S
C962 C964 1.378 . S
C962 C966 1.350 . S
C963 C966 1.463 . S
C963 C968 1.350 . S
C963 N971 1.427 . S
C964 H955 0.930 . S
C964 C962 1.378 . S
C964 C965 1.367 . S
C965 C964 1.367 . S
C965 C967 1.433 . S
C966 C962 1.350 . S
C966 C963 1.463 . S
C966 N970 1.427 . S
C967 H957 0.929 . S
C967 C965 1.433 . S
C967 N970 1.384 . S
C968 H959 0.929 . S
C968 C960 1.378 . S
C968 C963 1.350 . S
C969 H956 0.929 . S
C969 C961 1.433 . S
C969 N971 1.384 . S
N970 C966 1.427 . S
N970 C967 1.384 . S
N971 C963 1.427 . S
N971 C969 1.384 . S
H972 C978 0.930 . S
H973 C982 0.930 . S
H974 C987 0.929 . S
H975 C985 0.929 . S
H976 C980 0.929 . S
H977 C986 0.929 . S
C978 H972 0.930 . S
C978 C979 1.367 . S
C978 C986 1.378 . S
C979 C978 1.367 . S
C979 C987 1.433 . S
C980 H976 0.929 . S
C980 C982 1.378 . S
C980 C984 1.350 . S
C981 C984 1.463 . S
C981 C986 1.350 . S
C981 N989 1.427 . S
C982 H973 0.930 . S
C982 C980 1.378 . S
C982 C983 1.367 . S
C983 C982 1.367 . S
C983 C985 1.433 . S
C984 C980 1.350 . S
C984 C981 1.463 . S
C984 N988 1.427 . S
C985 H975 0.929 . S
C985 C983 1.433 . S
C985 N988 1.384 . S
C986 H977 0.929 . S
C986 C978 1.378 . S
C986 C981 1.350 . S
C987 H974 0.929 . S
C987 C979 1.433 . S
C987 N989 1.384 . S
N988 C984 1.427 . S
N988 C985 1.384 . S
N989 C981 1.427 . S
N989 C987 1.384 . S
H990 C996 0.930 . S
H991 C1000 0.930 . S
H992 C1005 0.929 . S
H993 C1003 0.929 . S
H994 C998 0.929 . S
H995 C1004 0.929 . S
C996 H990 0.930 . S
C996 C997 1.367 . S
C996 C1004 1.378 . S
C997 C996 1.367 . S
C997 C1005 1.433 . S
C998 H994 0.929 . S
C998 C1000 1.378 . S
C998 C1002 1.350 . S
C999 C1002 1.463 . S
C999 C1004 1.350 . S
C999 N1007 1.427 . S
C1000 H991 0.930 . S
C1000 C998 1.378 . S
C1000 C1001 1.367 . S
C1001 C1000 1.367 . S
C1001 C1003 1.433 . S
C1002 C998 1.350 . S
C1002 C999 1.463 . S
C1002 N1006 1.427 . S
C1003 H993 0.929 . S
C1003 C1001 1.433 . S
C1003 N1006 1.384 . S
C1004 H995 0.929 . S
C1004 C996 1.378 . S
C1004 C999 1.350 . S
C1005 H992 0.929 . S
C1005 C997 1.433 . S
C1005 N1007 1.384 . S
N1006 C1002 1.427 . S
N1006 C1003 1.384 . S
N1007 C999 1.427 . S
N1007 C1005 1.384 . S
H1008 C1014 0.930 . S
H1009 C1018 0.930 . S
H1010 C1023 0.929 . S
H1011 C1021 0.929 . S
H1012 C1016 0.889 1_565 S
H1013 C1022 0.929 . S
C1014 H1008 0.930 . S
C1014 C1015 1.367 . S
C1014 C1022 1.378 . S
C1015 C1014 1.367 . S
C1015 C1023 1.433 1_545 S
C1016 H1012 0.889 1_545 S
C1016 C1018 1.378 . S
C1016 C1020 1.350 . S
C1017 C1020 1.463 . S
C1017 C1022 1.350 . S
C1017 N1025 1.463 . S
C1018 H1009 0.930 . S
C1018 C1016 1.378 . S
C1018 C1019 1.367 . S
C1019 C1018 1.367 . S
C1019 C1021 1.433 . S
C1020 C1016 1.350 . S
C1020 C1017 1.463 . S
C1020 N1024 1.427 . S
C1021 H1011 0.929 . S
C1021 C1019 1.433 . S
C1021 N1024 1.384 . S
C1022 H1013 0.929 . S
C1022 C1014 1.378 . S
C1022 C1017 1.350 . S
C1023 H1010 0.929 . S
C1023 C1015 1.433 1_565 S
C1023 N1025 1.373 1_565 S
N1024 C1020 1.427 . S
N1024 C1021 1.384 . S
N1025 C1017 1.463 . S
N1025 C1023 1.373 1_545 S
H1026 C1032 0.930 . S
H1027 C1036 0.930 . S
H1028 C1041 0.929 . S
H1029 C1039 0.929 . S
H1030 C1034 0.929 . S
H1031 C1040 0.929 . S
C1032 H1026 0.930 . S
C1032 C1033 1.367 . S
C1032 C1040 1.378 . S
C1033 C1032 1.367 . S
C1033 C1041 1.433 . S
C1034 H1030 0.929 . S
C1034 C1036 1.378 . S
C1034 C1038 1.350 . S
C1035 C1038 1.463 . S
C1035 C1040 1.350 . S
C1035 N1043 1.427 . S
C1036 H1027 0.930 . S
C1036 C1034 1.378 . S
C1036 C1037 1.367 . S
C1037 C1036 1.367 . S
C1037 C1039 1.433 . S
C1038 C1034 1.350 . S
C1038 C1035 1.463 . S
C1038 N1042 1.427 . S
C1039 H1029 0.929 . S
C1039 C1037 1.433 . S
C1039 N1042 1.384 . S
C1040 H1031 0.929 . S
C1040 C1032 1.378 . S
C1040 C1035 1.350 . S
C1041 H1028 0.929 . S
C1041 C1033 1.433 . S
C1041 N1043 1.384 . S
N1042 C1038 1.427 . S
N1042 C1039 1.384 . S
N1043 C1035 1.427 . S
N1043 C1041 1.384 . S
H1044 C1050 0.930 . S
H1045 C1054 0.930 1_565 S
H1046 C1059 0.929 . S
H1047 C1057 0.929 . S
H1048 C1052 0.929 . S
H1049 C1058 0.929 . S
C1050 H1044 0.930 . S
C1050 C1051 1.367 . S
C1050 C1058 1.378 . S
C1051 C1050 1.367 . S
C1051 C1059 1.433 . S
C1052 H1048 0.929 . S
C1052 C1054 1.378 . S
C1052 C1056 1.350 . S
C1053 C1056 1.463 . S
C1053 C1058 1.350 . S
C1053 N1061 1.427 . S
C1054 H1045 0.930 1_545 S
C1054 C1052 1.378 . S
C1054 C1055 1.367 . S
C1055 C1054 1.367 . S
C1055 C1057 1.433 . S
C1056 C1052 1.350 . S
C1056 C1053 1.463 . S
C1056 N1060 1.427 . S
C1057 H1047 0.929 . S
C1057 C1055 1.433 . S
C1057 N1060 1.384 . S
C1058 H1049 0.929 . S
C1058 C1050 1.378 . S
C1058 C1053 1.350 . S
C1059 H1046 0.929 . S
C1059 C1051 1.433 . S
C1059 N1061 1.384 . S
N1060 C1056 1.427 . S
N1060 C1057 1.384 . S
N1061 C1053 1.427 . S
N1061 C1059 1.384 . S
H1062 C1068 0.930 . S
H1063 C1072 0.930 . S
H1064 C1077 0.929 . S
H1065 C1075 0.929 . S
H1066 C1070 0.929 . S
H1067 C1076 0.929 . S
C1068 H1062 0.930 . S
C1068 C1069 1.367 . S
C1068 C1076 1.378 . S
C1069 C1068 1.367 . S
C1069 C1077 1.433 . S
C1070 H1066 0.929 . S
C1070 C1072 1.378 . S
C1070 C1074 1.350 . S
C1071 C1074 1.463 . S
C1071 C1076 1.350 . S
C1071 N1079 1.427 . S
C1072 H1063 0.930 . S
C1072 C1070 1.378 . S
C1072 C1073 1.367 . S
C1073 C1072 1.367 . S
C1073 C1075 1.433 . S
C1074 C1070 1.350 . S
C1074 C1071 1.463 . S
C1074 N1078 1.427 . S
C1075 H1065 0.929 . S
C1075 C1073 1.433 . S
C1075 N1078 1.384 . S
C1076 H1067 0.929 . S
C1076 C1068 1.378 . S
C1076 C1071 1.350 . S
C1077 H1064 0.929 . S
C1077 C1069 1.433 . S
C1077 N1079 1.384 . S
N1078 C1074 1.427 . S
N1078 C1075 1.384 . S
N1079 C1071 1.427 . S
N1079 C1077 1.384 . S
H1080 C1086 0.930 1_556 S
H1081 C1090 0.930 . S
H1082 C1095 0.929 . S
H1083 C1093 0.929 . S
H1084 C1088 0.929 . S
H1085 C1094 0.929 1_556 S
C1086 H1080 0.930 1_554 S
C1086 C1087 1.367 . S
C1086 C1094 1.378 . S
C1087 C1086 1.367 . S
C1087 C1095 1.433 . S
C1088 H1084 0.929 . S
C1088 C1090 1.378 . S
C1088 C1092 1.350 . S
C1089 C1092 1.463 . S
C1089 C1094 1.350 . S
C1089 N1097 1.427 . S
C1090 H1081 0.930 . S
C1090 C1088 1.378 . S
C1090 C1091 1.367 . S
C1091 C1090 1.367 . S
C1091 C1093 1.433 1_554 S
C1092 C1088 1.350 . S
C1092 C1089 1.463 . S
C1092 N1096 1.442 . S
C1093 H1083 0.929 . S
C1093 C1091 1.433 1_556 S
C1093 N1096 1.381 1_556 S
C1094 H1085 0.929 1_554 S
C1094 C1086 1.378 . S
C1094 C1089 1.350 . S
C1095 H1082 0.929 . S
C1095 C1087 1.433 . S
C1095 N1097 1.384 . S
N1096 C1092 1.442 . S
N1096 C1093 1.381 1_554 S
N1097 C1089 1.427 . S
N1097 C1095 1.384 . S
H1098 C1104 0.930 . S
H1099 C1108 0.930 . S
H1100 C1113 0.929 . S
H1101 C1111 0.929 . S
H1102 C1106 0.929 . S
H1103 C1112 0.929 . S
C1104 H1098 0.930 . S
C1104 C1105 1.367 . S
C1104 C1112 1.378 . S
C1105 C1104 1.367 . S
C1105 C1113 1.433 . S
C1106 H1102 0.929 . S
C1106 C1108 1.378 . S
C1106 C1110 1.350 . S
C1107 C1110 1.463 . S
C1107 C1112 1.350 . S
C1107 N1115 1.427 . S
C1108 H1099 0.930 . S
C1108 C1106 1.378 . S
C1108 C1109 1.367 . S
C1109 C1108 1.367 . S
C1109 C1111 1.433 . S
C1110 C1106 1.350 . S
C1110 C1107 1.463 . S
C1110 N1114 1.427 . S
C1111 H1101 0.929 . S
C1111 C1109 1.433 . S
C1111 N1114 1.384 . S
C1112 H1103 0.929 . S
C1112 C1104 1.378 . S
C1112 C1107 1.350 . S
C1113 H1100 0.929 . S
C1113 C1105 1.433 . S
C1113 N1115 1.384 . S
N1114 C1110 1.427 . S
N1114 C1111 1.384 . S
N1115 C1107 1.427 . S
N1115 C1113 1.384 . S
H1116 C1122 0.930 . S
H1117 C1126 0.930 . S
H1118 C1131 0.929 . S
H1119 C1129 0.929 . S
H1120 C1124 0.929 . S
H1121 C1130 0.929 . S
C1122 H1116 0.930 . S
C1122 C1123 1.367 . S
C1122 C1130 1.378 . S
C1123 C1122 1.367 . S
C1123 C1131 1.433 . S
C1124 H1120 0.929 . S
C1124 C1126 1.378 . S
C1124 C1128 1.350 . S
C1125 C1128 1.463 . S
C1125 C1130 1.350 . S
C1125 N1133 1.427 . S
C1126 H1117 0.930 . S
C1126 C1124 1.378 . S
C1126 C1127 1.367 . S
C1127 C1126 1.367 . S
C1127 C1129 1.433 . S
C1128 C1124 1.350 . S
C1128 C1125 1.463 . S
C1128 N1132 1.427 . S
C1129 H1119 0.929 . S
C1129 C1127 1.433 . S
C1129 N1132 1.384 . S
C1130 H1121 0.929 . S
C1130 C1122 1.378 . S
C1130 C1125 1.350 . S
C1131 H1118 0.929 . S
C1131 C1123 1.433 . S
C1131 N1133 1.384 . S
N1132 C1128 1.427 . S
N1132 C1129 1.384 . S
N1133 C1125 1.427 . S
N1133 C1131 1.384 . S
H1134 C1140 0.930 . S
H1135 C1144 0.930 . S
H1136 C1149 0.929 . S
H1137 C1147 0.929 . S
H1138 C1142 0.929 . S
H1139 C1148 0.929 . S
C1140 H1134 0.930 . S
C1140 C1141 1.367 . S
C1140 C1148 1.378 . S
C1141 C1140 1.367 . S
C1141 C1149 1.433 . S
C1142 H1138 0.929 . S
C1142 C1144 1.378 . S
C1142 C1146 1.350 . S
C1143 C1146 1.463 . S
C1143 C1148 1.350 . S
C1143 N1151 1.427 . S
C1144 H1135 0.930 . S
C1144 C1142 1.378 . S
C1144 C1145 1.367 . S
C1145 C1144 1.367 . S
C1145 C1147 1.433 . S
C1146 C1142 1.350 . S
C1146 C1143 1.463 . S
C1146 N1150 1.427 . S
C1147 H1137 0.929 . S
C1147 C1145 1.433 . S
C1147 N1150 1.384 . S
C1148 H1139 0.929 . S
C1148 C1140 1.378 . S
C1148 C1143 1.350 . S
C1149 H1136 0.929 . S
C1149 C1141 1.433 . S
C1149 N1151 1.384 . S
N1150 C1146 1.427 . S
N1150 C1147 1.384 . S
N1151 C1143 1.427 . S
N1151 C1149 1.384 . S
H1152 C1158 0.930 . S
H1153 C1162 0.930 . S
H1154 C1167 0.929 . S
H1155 C1165 0.929 . S
H1156 C1160 0.929 . S
H1157 C1166 0.929 . S
C1158 H1152 0.930 . S
C1158 C1159 1.367 . S
C1158 C1166 1.378 . S
C1159 C1158 1.367 . S
C1159 C1167 1.433 . S
C1160 H1156 0.929 . S
C1160 C1162 1.378 . S
C1160 C1164 1.350 . S
C1161 C1164 1.463 . S
C1161 C1166 1.350 . S
C1161 N1169 1.427 . S
C1162 H1153 0.930 . S
C1162 C1160 1.378 . S
C1162 C1163 1.367 . S
C1163 C1162 1.367 . S
C1163 C1165 1.433 . S
C1164 C1160 1.350 . S
C1164 C1161 1.463 . S
C1164 N1168 1.427 . S
C1165 H1155 0.929 . S
C1165 C1163 1.433 . S
C1165 N1168 1.384 . S
C1166 H1157 0.929 . S
C1166 C1158 1.378 . S
C1166 C1161 1.350 . S
C1167 H1154 0.929 . S
C1167 C1159 1.433 . S
C1167 N1169 1.384 . S
N1168 C1164 1.427 . S
N1168 C1165 1.384 . S
N1169 C1161 1.427 . S
N1169 C1167 1.384 . S
H1170 C1176 0.930 . S
H1171 C1180 0.930 1_545 S
H1172 C1185 0.929 . S
H1173 C1183 0.929 . S
H1174 C1178 0.929 . S
H1175 C1184 0.929 . S
C1176 H1170 0.930 . S
C1176 C1177 1.367 . S
C1176 C1184 1.378 . S
C1177 C1176 1.367 . S
C1177 C1185 1.433 . S
C1178 H1174 0.929 . S
C1178 C1180 1.378 . S
C1178 C1182 1.350 . S
C1179 C1182 1.463 . S
C1179 C1184 1.350 . S
C1179 N1187 1.427 . S
C1180 H1171 0.930 1_565 S
C1180 C1178 1.378 . S
C1180 C1181 1.367 . S
C1181 C1180 1.367 . S
C1181 C1183 1.433 . S
C1182 C1178 1.350 . S
C1182 C1179 1.463 . S
C1182 N1186 1.427 . S
C1183 H1173 0.929 . S
C1183 C1181 1.433 . S
C1183 N1186 1.384 . S
C1184 H1175 0.929 . S
C1184 C1176 1.378 . S
C1184 C1179 1.350 . S
C1185 H1172 0.929 . S
C1185 C1177 1.433 . S
C1185 N1187 1.384 . S
N1186 C1182 1.427 . S
N1186 C1183 1.384 . S
N1187 C1179 1.427 . S
N1187 C1185 1.384 . S
H1188 C1194 0.930 . S
H1189 C1198 0.930 . S
H1190 C1203 0.929 . S
H1191 C1201 0.929 . S
H1192 C1196 0.929 . S
H1193 C1202 0.929 . S
C1194 H1188 0.930 . S
C1194 C1195 1.367 . S
C1194 C1202 1.378 . S
C1195 C1194 1.367 . S
C1195 C1203 1.433 . S
C1196 H1192 0.929 . S
C1196 C1198 1.378 . S
C1196 C1200 1.350 . S
C1197 C1200 1.463 . S
C1197 C1202 1.350 . S
C1197 N1205 1.427 . S
C1198 H1189 0.930 . S
C1198 C1196 1.378 . S
C1198 C1199 1.367 . S
C1199 C1198 1.367 . S
C1199 C1201 1.433 . S
C1200 C1196 1.350 . S
C1200 C1197 1.463 . S
C1200 N1204 1.427 . S
C1201 H1191 0.929 . S
C1201 C1199 1.433 . S
C1201 N1204 1.384 . S
C1202 H1193 0.929 . S
C1202 C1194 1.378 . S
C1202 C1197 1.350 . S
C1203 H1190 0.929 . S
C1203 C1195 1.433 . S
C1203 N1205 1.384 . S
N1204 C1200 1.427 . S
N1204 C1201 1.384 . S
N1205 C1197 1.427 . S
N1205 C1203 1.384 . S
H1206 C1212 0.930 . S
H1207 C1216 0.930 . S
H1208 C1221 0.929 . S
H1209 C1219 0.929 . S
H1210 C1214 0.929 . S
H1211 C1220 0.929 . S
C1212 H1206 0.930 . S
C1212 C1213 1.367 . S
C1212 C1220 1.378 . S
C1213 C1212 1.367 . S
C1213 C1221 1.433 . S
C1214 H1210 0.929 . S
C1214 C1216 1.378 . S
C1214 C1218 1.350 . S
C1215 C1218 1.463 . S
C1215 C1220 1.350 . S
C1215 N1223 1.427 . S
C1216 H1207 0.930 . S
C1216 C1214 1.378 . S
C1216 C1217 1.367 . S
C1217 C1216 1.367 . S
C1217 C1219 1.433 . S
C1218 C1214 1.350 . S
C1218 C1215 1.463 . S
C1218 N1222 1.427 . S
C1219 H1209 0.929 . S
C1219 C1217 1.433 . S
C1219 N1222 1.384 . S
C1220 H1211 0.929 . S
C1220 C1212 1.378 . S
C1220 C1215 1.350 . S
C1221 H1208 0.929 . S
C1221 C1213 1.433 . S
C1221 N1223 1.384 . S
N1222 C1218 1.427 . S
N1222 C1219 1.384 . S
N1223 C1215 1.427 . S
N1223 C1221 1.384 . S
H1224 C1230 0.909 1_655 S
H1225 C1234 0.930 . S
H1226 C1239 0.929 . S
H1227 C1237 0.929 . S
H1228 C1232 0.929 1_554 S
H1229 C1238 0.929 . S
C1230 H1224 0.909 1_455 S
C1230 C1231 1.367 . S
C1230 C1238 1.378 . S
C1231 C1230 1.367 . S
C1231 C1239 1.433 . S
C1232 H1228 0.929 1_556 S
C1232 C1234 1.378 1_556 S
C1232 C1236 1.350 . S
C1233 C1236 1.463 . S
C1233 C1238 1.350 . S
C1233 N1241 1.427 . S
C1234 H1225 0.930 . S
C1234 C1232 1.378 1_554 S
C1234 C1235 1.367 1_554 S
C1235 C1234 1.367 1_556 S
C1235 C1237 1.433 . S
C1236 C1232 1.350 . S
C1236 C1233 1.463 . S
C1236 N1240 1.427 . S
C1237 H1227 0.929 . S
C1237 C1235 1.433 . S
C1237 N1240 1.384 . S
C1238 H1229 0.929 . S
C1238 C1230 1.378 . S
C1238 C1233 1.350 . S
C1239 H1226 0.929 . S
C1239 C1231 1.433 . S
C1239 N1241 1.384 . S
N1240 C1236 1.427 . S
N1240 C1237 1.384 . S
N1241 C1233 1.427 . S
N1241 C1239 1.384 . S
H1242 C1248 0.930 . S
H1243 C1252 0.930 . S
H1244 C1257 0.929 . S
H1245 C1255 0.929 . S
H1246 C1250 0.929 . S
H1247 C1256 0.929 . S
C1248 H1242 0.930 . S
C1248 C1249 1.367 . S
C1248 C1256 1.378 . S
C1249 C1248 1.367 . S
C1249 C1257 1.433 . S
C1250 H1246 0.929 . S
C1250 C1252 1.378 . S
C1250 C1254 1.350 . S
C1251 C1254 1.463 . S
C1251 C1256 1.350 . S
C1251 N1259 1.427 . S
C1252 H1243 0.930 . S
C1252 C1250 1.378 . S
C1252 C1253 1.367 . S
C1253 C1252 1.367 . S
C1253 C1255 1.433 . S
C1254 C1250 1.350 . S
C1254 C1251 1.463 . S
C1254 N1258 1.427 . S
C1255 H1245 0.929 . S
C1255 C1253 1.433 . S
C1255 N1258 1.384 . S
C1256 H1247 0.929 . S
C1256 C1248 1.378 . S
C1256 C1251 1.350 . S
C1257 H1244 0.929 . S
C1257 C1249 1.433 . S
C1257 N1259 1.384 . S
N1258 C1254 1.427 . S
N1258 C1255 1.384 . S
N1259 C1251 1.427 . S
N1259 C1257 1.384 . S
H1260 C1266 0.930 . S
H1261 C1270 0.930 . S
H1262 C1275 0.929 . S
H1263 C1273 0.929 . S
H1264 C1268 0.929 . S
H1265 C1274 0.929 . S
C1266 H1260 0.930 . S
C1266 C1267 1.367 . S
C1266 C1274 1.378 . S
C1267 C1266 1.367 . S
C1267 C1275 1.433 . S
C1268 H1264 0.929 . S
C1268 C1270 1.378 . S
C1268 C1272 1.350 . S
C1269 C1272 1.463 . S
C1269 C1274 1.350 . S
C1269 N1277 1.427 . S
C1270 H1261 0.930 . S
C1270 C1268 1.378 . S
C1270 C1271 1.367 . S
C1271 C1270 1.367 . S
C1271 C1273 1.433 . S
C1272 C1268 1.350 . S
C1272 C1269 1.463 . S
C1272 N1276 1.427 . S
C1273 H1263 0.929 . S
C1273 C1271 1.433 . S
C1273 N1276 1.384 . S
C1274 H1265 0.929 . S
C1274 C1266 1.378 . S
C1274 C1269 1.350 . S
C1275 H1262 0.929 . S
C1275 C1267 1.433 . S
C1275 N1277 1.384 . S
N1276 C1272 1.427 . S
N1276 C1273 1.384 . S
N1277 C1269 1.427 . S
N1277 C1275 1.384 . S
H1278 C1284 0.930 . S
H1279 C1288 0.930 . S
H1280 C1293 0.929 . S
H1281 C1291 0.929 . S
H1282 C1286 0.929 . S
H1283 C1292 0.929 . S
C1284 H1278 0.930 . S
C1284 C1285 1.367 . S
C1284 C1292 1.378 . S
C1285 C1284 1.367 . S
C1285 C1293 1.433 . S
C1286 H1282 0.929 . S
C1286 C1288 1.378 . S
C1286 C1290 1.350 . S
C1287 C1290 1.463 . S
C1287 C1292 1.350 . S
C1287 N1295 1.427 . S
C1288 H1279 0.930 . S
C1288 C1286 1.378 . S
C1288 C1289 1.367 . S
C1289 C1288 1.367 . S
C1289 C1291 1.433 . S
C1290 C1286 1.350 . S
C1290 C1287 1.463 . S
C1290 N1294 1.427 . S
C1291 H1281 0.929 . S
C1291 C1289 1.433 . S
C1291 N1294 1.384 . S
C1292 H1283 0.929 . S
C1292 C1284 1.378 . S
C1292 C1287 1.350 . S
C1293 H1280 0.929 . S
C1293 C1285 1.433 . S
C1293 N1295 1.384 . S
N1294 C1290 1.427 . S
N1294 C1291 1.384 . S
N1295 C1287 1.427 . S
N1295 C1293 1.384 . S
H1296 C1302 0.930 . S
H1297 C1306 0.930 . S
H1298 C1311 0.929 . S
H1299 C1309 0.929 . S
H1300 C1304 0.929 . S
H1301 C1310 0.929 1_655 S
C1302 H1296 0.930 . S
C1302 C1303 1.367 1_655 S
C1302 C1310 1.378 1_655 S
C1303 C1302 1.367 1_455 S
C1303 C1311 1.433 . S
C1304 H1300 0.929 . S
C1304 C1306 1.378 . S
C1304 C1308 1.350 . S
C1305 C1308 1.463 . S
C1305 C1310 1.350 . S
C1305 N1313 1.427 . S
C1306 H1297 0.930 . S
C1306 C1304 1.378 . S
C1306 C1307 1.367 . S
C1307 C1306 1.367 . S
C1307 C1309 1.433 . S
C1308 C1304 1.350 . S
C1308 C1305 1.463 . S
C1308 N1312 1.427 . S
C1309 H1299 0.929 . S
C1309 C1307 1.433 . S
C1309 N1312 1.384 . S
C1310 H1301 0.929 1_455 S
C1310 C1302 1.378 1_455 S
C1310 C1305 1.350 . S
C1311 H1298 0.929 . S
C1311 C1303 1.433 . S
C1311 N1313 1.384 . S
N1312 C1308 1.427 . S
N1312 C1309 1.384 . S
N1313 C1305 1.427 . S
N1313 C1311 1.384 . S
H1314 C1320 0.930 . S
H1315 C1324 0.930 . S
H1316 C1329 0.929 . S
H1317 C1327 0.929 . S
H1318 C1322 0.929 . S
H1319 C1328 0.929 . S
C1320 H1314 0.930 . S
C1320 C1321 1.367 . S
C1320 C1328 1.378 . S
C1321 C1320 1.367 . S
C1321 C1329 1.433 . S
C1322 H1318 0.929 . S
C1322 C1324 1.378 . S
C1322 C1326 1.350 . S
C1323 C1326 1.463 . S
C1323 C1328 1.350 . S
C1323 N1331 1.427 . S
C1324 H1315 0.930 . S
C1324 C1322 1.378 . S
C1324 C1325 1.367 . S
C1325 C1324 1.367 . S
C1325 C1327 1.433 . S
C1326 C1322 1.350 . S
C1326 C1323 1.463 . S
C1326 N1330 1.427 . S
C1327 H1317 0.929 . S
C1327 C1325 1.433 . S
C1327 N1330 1.384 . S
C1328 H1319 0.929 . S
C1328 C1320 1.378 . S
C1328 C1323 1.350 . S
C1329 H1316 0.929 . S
C1329 C1321 1.433 . S
C1329 N1331 1.384 . S
N1330 C1326 1.427 . S
N1330 C1327 1.384 . S
N1331 C1323 1.427 . S
N1331 C1329 1.384 . S
H1332 C1338 0.930 . S
H1333 C1342 0.930 . S
H1334 C1347 0.929 . S
H1335 C1345 0.929 . S
H1336 C1340 0.929 . S
H1337 C1346 0.929 . S
C1338 H1332 0.930 . S
C1338 C1339 1.367 . S
C1338 C1346 1.378 . S
C1339 C1338 1.367 . S
C1339 C1347 1.433 . S
C1340 H1336 0.929 . S
C1340 C1342 1.378 . S
C1340 C1344 1.350 . S
C1341 C1344 1.463 . S
C1341 C1346 1.350 . S
C1341 N1349 1.427 . S
C1342 H1333 0.930 . S
C1342 C1340 1.378 . S
C1342 C1343 1.367 . S
C1343 C1342 1.367 . S
C1343 C1345 1.433 . S
C1344 C1340 1.350 . S
C1344 C1341 1.463 . S
C1344 N1348 1.427 . S
C1345 H1335 0.929 . S
C1345 C1343 1.433 . S
C1345 N1348 1.384 . S
C1346 H1337 0.929 . S
C1346 C1338 1.378 . S
C1346 C1341 1.350 . S
C1347 H1334 0.929 . S
C1347 C1339 1.433 . S
C1347 N1349 1.384 . S
N1348 C1344 1.427 . S
N1348 C1345 1.384 . S
N1349 C1341 1.427 . S
N1349 C1347 1.384 . S
H1350 C1356 0.930 . S
H1351 C1360 0.930 . S
H1352 C1365 0.929 . S
H1353 C1363 0.929 . S
H1354 C1358 0.929 . S
H1355 C1364 0.929 . S
C1356 H1350 0.930 . S
C1356 C1357 1.367 . S
C1356 C1364 1.378 . S
C1357 C1356 1.367 . S
C1357 C1365 1.433 . S
C1358 H1354 0.929 . S
C1358 C1360 1.378 . S
C1358 C1362 1.350 . S
C1359 C1362 1.463 . S
C1359 C1364 1.350 . S
C1359 N1367 1.427 . S
C1360 H1351 0.930 . S
C1360 C1358 1.378 . S
C1360 C1361 1.367 . S
C1361 C1360 1.367 . S
C1361 C1363 1.433 . S
C1362 C1358 1.350 . S
C1362 C1359 1.463 . S
C1362 N1366 1.427 . S
C1363 H1353 0.929 . S
C1363 C1361 1.433 . S
C1363 N1366 1.384 . S
C1364 H1355 0.929 . S
C1364 C1356 1.378 . S
C1364 C1359 1.350 . S
C1365 H1352 0.929 . S
C1365 C1357 1.433 . S
C1365 N1367 1.384 . S
N1366 C1362 1.427 . S
N1366 C1363 1.384 . S
N1367 C1359 1.427 . S
N1367 C1365 1.384 . S
H1368 C1374 0.930 . S
H1369 C1378 0.930 . S
H1370 C1383 0.929 . S
H1371 C1381 0.929 . S
H1372 C1376 0.929 . S
H1373 C1382 0.929 . S
C1374 H1368 0.930 . S
C1374 C1375 1.367 . S
C1374 C1382 1.378 . S
C1375 C1374 1.367 . S
C1375 C1383 1.433 . S
C1376 H1372 0.929 . S
C1376 C1378 1.378 . S
C1376 C1380 1.350 . S
C1377 C1380 1.463 . S
C1377 C1382 1.350 . S
C1377 N1385 1.427 . S
C1378 H1369 0.930 . S
C1378 C1376 1.378 . S
C1378 C1379 1.367 . S
C1379 C1378 1.367 . S
C1379 C1381 1.433 . S
C1380 C1376 1.350 . S
C1380 C1377 1.463 . S
C1380 N1384 1.427 . S
C1381 H1371 0.929 . S
C1381 C1379 1.433 . S
C1381 N1384 1.384 . S
C1382 H1373 0.929 . S
C1382 C1374 1.378 . S
C1382 C1377 1.350 . S
C1383 H1370 0.929 . S
C1383 C1375 1.433 . S
C1383 N1385 1.384 . S
N1384 C1380 1.427 . S
N1384 C1381 1.384 . S
N1385 C1377 1.427 . S
N1385 C1383 1.384 . S
H1386 C1392 0.930 . S
H1387 C1396 0.930 . S
H1388 C1401 0.929 . S
H1389 C1399 0.929 . S
H1390 C1394 0.929 . S
H1391 C1400 0.929 . S
C1392 H1386 0.930 . S
C1392 C1393 1.367 . S
C1392 C1400 1.378 . S
C1393 C1392 1.367 . S
C1393 C1401 1.433 . S
C1394 H1390 0.929 . S
C1394 C1396 1.378 . S
C1394 C1398 1.350 . S
C1395 C1398 1.463 . S
C1395 C1400 1.350 . S
C1395 N1403 1.427 . S
C1396 H1387 0.930 . S
C1396 C1394 1.378 . S
C1396 C1397 1.367 . S
C1397 C1396 1.367 . S
C1397 C1399 1.433 . S
C1398 C1394 1.350 . S
C1398 C1395 1.463 . S
C1398 N1402 1.427 . S
C1399 H1389 0.929 . S
C1399 C1397 1.433 . S
C1399 N1402 1.384 . S
C1400 H1391 0.929 . S
C1400 C1392 1.378 . S
C1400 C1395 1.350 . S
C1401 H1388 0.929 . S
C1401 C1393 1.433 . S
C1401 N1403 1.384 . S
N1402 C1398 1.427 . S
N1402 C1399 1.384 . S
N1403 C1395 1.427 . S
N1403 C1401 1.384 . S
H1404 C1410 0.930 . S
H1405 C1414 0.930 . S
H1406 C1419 0.929 1_565 S
H1407 C1417 0.929 . S
H1408 C1412 0.929 . S
H1409 C1418 0.929 . S
C1410 H1404 0.930 . S
C1410 C1411 1.367 . S
C1410 C1418 1.378 . S
C1411 C1410 1.367 . S
C1411 C1419 1.433 . S
C1412 H1408 0.929 . S
C1412 C1414 1.378 . S
C1412 C1416 1.350 . S
C1413 C1416 1.463 . S
C1413 C1418 1.350 . S
C1413 N1421 1.427 . S
C1414 H1405 0.930 . S
C1414 C1412 1.378 . S
C1414 C1415 1.367 . S
C1415 C1414 1.367 . S
C1415 C1417 1.433 . S
C1416 C1412 1.350 . S
C1416 C1413 1.463 . S
C1416 N1420 1.427 . S
C1417 H1407 0.929 . S
C1417 C1415 1.433 . S
C1417 N1420 1.384 . S
C1418 H1409 0.929 . S
C1418 C1410 1.378 . S
C1418 C1413 1.350 . S
C1419 H1406 0.929 1_545 S
C1419 C1411 1.433 . S
C1419 N1421 1.384 . S
N1420 C1416 1.427 . S
N1420 C1417 1.384 . S
N1421 C1413 1.427 . S
N1421 C1419 1.384 . S
H1422 C1428 0.930 . S
H1423 C1432 0.930 . S
H1424 C1437 0.929 . S
H1425 C1435 0.929 . S
H1426 C1430 0.929 . S
H1427 C1436 0.929 . S
C1428 H1422 0.930 . S
C1428 C1429 1.367 . S
C1428 C1436 1.378 . S
C1429 C1428 1.367 . S
C1429 C1437 1.433 . S
C1430 H1426 0.929 . S
C1430 C1432 1.378 . S
C1430 C1434 1.350 . S
C1431 C1434 1.463 . S
C1431 C1436 1.350 . S
C1431 N1439 1.427 . S
C1432 H1423 0.930 . S
C1432 C1430 1.378 . S
C1432 C1433 1.367 . S
C1433 C1432 1.367 . S
C1433 C1435 1.433 . S
C1434 C1430 1.350 . S
C1434 C1431 1.463 . S
C1434 N1438 1.427 . S
C1435 H1425 0.929 . S
C1435 C1433 1.433 . S
C1435 N1438 1.384 . S
C1436 H1427 0.929 . S
C1436 C1428 1.378 . S
C1436 C1431 1.350 . S
C1437 H1424 0.929 . S
C1437 C1429 1.433 . S
C1437 N1439 1.384 . S
N1438 C1434 1.427 . S
N1438 C1435 1.384 . S
N1439 C1431 1.427 . S
N1439 C1437 1.384 . S
H1440 C1446 0.930 . S
H1441 C1450 0.930 1_455 S
H1442 C1455 0.929 . S
H1443 C1453 0.929 1_565 S
H1444 C1448 0.929 . S
H1445 C1454 0.929 . S
C1446 H1440 0.930 . S
C1446 C1447 1.367 . S
C1446 C1454 1.378 . S
C1447 C1446 1.367 . S
C1447 C1455 1.433 . S
C1448 H1444 0.929 . S
C1448 C1450 1.378 . S
C1448 C1452 1.350 . S
C1449 C1452 1.463 . S
C1449 C1454 1.350 . S
C1449 N1457 1.427 . S
C1450 H1441 0.930 1_655 S
C1450 C1448 1.378 . S
C1450 C1451 1.367 . S
C1451 C1450 1.367 . S
C1451 C1453 1.433 . S
C1452 C1448 1.350 . S
C1452 C1449 1.463 . S
C1452 N1456 1.427 . S
C1453 H1443 0.929 1_545 S
C1453 C1451 1.433 . S
C1453 N1456 1.384 . S
C1454 H1445 0.929 . S
C1454 C1446 1.378 . S
C1454 C1449 1.350 . S
C1455 H1442 0.929 . S
C1455 C1447 1.433 . S
C1455 N1457 1.384 . S
N1456 C1452 1.427 . S
N1456 C1453 1.384 . S
N1457 C1449 1.427 . S
N1457 C1455 1.384 . S
H1458 C1464 0.930 . S
H1459 C1468 0.930 . S
H1460 C1473 0.929 . S
H1461 C1471 0.929 . S
H1462 C1466 0.929 . S
H1463 C1472 0.929 . S
C1464 H1458 0.930 . S
C1464 C1465 1.367 . S
C1464 C1472 1.378 . S
C1465 C1464 1.367 . S
C1465 C1473 1.433 . S
C1466 H1462 0.929 . S
C1466 C1468 1.378 . S
C1466 C1470 1.350 . S
C1467 C1470 1.463 . S
C1467 C1472 1.350 . S
C1467 N1475 1.427 . S
C1468 H1459 0.930 . S
C1468 C1466 1.378 . S
C1468 C1469 1.367 . S
C1469 C1468 1.367 . S
C1469 C1471 1.433 . S
C1470 C1466 1.350 . S
C1470 C1467 1.463 . S
C1470 N1474 1.427 . S
C1471 H1461 0.929 . S
C1471 C1469 1.433 . S
C1471 N1474 1.384 . S
C1472 H1463 0.929 . S
C1472 C1464 1.378 . S
C1472 C1467 1.350 . S
C1473 H1460 0.929 . S
C1473 C1465 1.433 . S
C1473 N1475 1.384 . S
N1474 C1470 1.427 . S
N1474 C1471 1.384 . S
N1475 C1467 1.427 . S
N1475 C1473 1.384 . S
H1476 C1482 0.930 . S
H1477 C1486 0.930 . S
H1478 C1491 0.929 . S
H1479 C1489 0.929 . S
H1480 C1484 0.920 1_565 S
H1481 C1490 0.929 . S
C1482 H1476 0.930 . S
C1482 C1483 1.367 . S
C1482 C1490 1.378 . S
C1483 C1482 1.367 . S
C1483 C1491 1.433 1_545 S
C1484 H1480 0.920 1_545 S
C1484 C1486 1.378 . S
C1484 C1488 1.350 . S
C1485 C1488 1.463 . S
C1485 C1490 1.350 . S
C1485 N1493 1.427 . S
C1486 H1477 0.930 . S
C1486 C1484 1.378 . S
C1486 C1487 1.367 . S
C1487 C1486 1.367 . S
C1487 C1489 1.433 . S
C1488 C1484 1.350 . S
C1488 C1485 1.463 . S
C1488 N1492 1.427 . S
C1489 H1479 0.929 . S
C1489 C1487 1.433 . S
C1489 N1492 1.384 . S
C1490 H1481 0.929 . S
C1490 C1482 1.378 . S
C1490 C1485 1.350 . S
C1491 H1478 0.929 . S
C1491 C1483 1.433 1_565 S
C1491 N1493 1.384 1_565 S
N1492 C1488 1.427 . S
N1492 C1489 1.384 . S
N1493 C1485 1.427 . S
N1493 C1491 1.384 1_545 S
H1494 C1500 0.930 . S
H1495 C1504 0.930 . S
H1496 C1509 0.929 . S
H1497 C1507 0.929 . S
H1498 C1502 0.929 . S
H1499 C1508 0.929 . S
C1500 H1494 0.930 . S
C1500 C1501 1.367 . S
C1500 C1508 1.378 . S
C1501 C1500 1.367 . S
C1501 C1509 1.433 . S
C1502 H1498 0.929 . S
C1502 C1504 1.378 . S
C1502 C1506 1.350 . S
C1503 C1506 1.463 . S
C1503 C1508 1.350 . S
C1503 N1511 1.427 . S
C1504 H1495 0.930 . S
C1504 C1502 1.378 . S
C1504 C1505 1.367 . S
C1505 C1504 1.367 . S
C1505 C1507 1.433 . S
C1506 C1502 1.350 . S
C1506 C1503 1.463 . S
C1506 N1510 1.427 . S
C1507 H1497 0.929 . S
C1507 C1505 1.433 . S
C1507 N1510 1.384 . S
C1508 H1499 0.929 . S
C1508 C1500 1.378 . S
C1508 C1503 1.350 . S
C1509 H1496 0.929 . S
C1509 C1501 1.433 . S
C1509 N1511 1.384 . S
N1510 C1506 1.427 . S
N1510 C1507 1.384 . S
N1511 C1503 1.427 . S
N1511 C1509 1.384 . S
H1512 C1518 0.930 1_556 S
H1513 C1522 0.930 . S
H1514 C1527 0.929 . S
H1515 C1525 0.903 1_556 S
H1516 C1520 0.929 . S
H1517 C1526 0.929 1_556 S
C1518 H1512 0.930 1_554 S
C1518 C1519 1.367 . S
C1518 C1526 1.378 . S
C1519 C1518 1.367 . S
C1519 C1527 1.433 . S
C1520 H1516 0.929 . S
C1520 C1522 1.378 . S
C1520 C1524 1.350 . S
C1521 C1524 1.463 . S
C1521 C1526 1.350 . S
C1521 N1529 1.427 . S
C1522 H1513 0.930 . S
C1522 C1520 1.378 . S
C1522 C1523 1.367 1_565 S
C1523 C1522 1.367 1_545 S
C1523 C1525 1.433 . S
C1524 C1520 1.350 . S
C1524 C1521 1.463 . S
C1524 N1528 1.448 . S
C1525 H1515 0.903 1_554 S
C1525 C1523 1.433 . S
C1525 N1528 1.365 1_545 S
C1526 H1517 0.929 1_554 S
C1526 C1518 1.378 . S
C1526 C1521 1.350 . S
C1527 H1514 0.929 . S
C1527 C1519 1.433 . S
C1527 N1529 1.384 . S
N1528 C1524 1.448 . S
N1528 C1525 1.365 1_565 S
N1529 C1521 1.427 . S
N1529 C1527 1.384 . S
H1530 C1536 0.930 . S
H1531 C1540 0.930 . S
H1532 C1545 0.929 . S
H1533 C1543 0.929 . S
H1534 C1538 0.929 . S
H1535 C1544 0.929 . S
C1536 H1530 0.930 . S
C1536 C1537 1.367 1_554 S
C1536 C1544 1.378 . S
C1537 C1536 1.367 1_556 S
C1537 C1545 1.433 . S
C1538 H1534 0.929 . S
C1538 C1540 1.378 . S
C1538 C1542 1.350 1_556 S
C1539 C1542 1.463 . S
C1539 C1544 1.350 . S
C1539 N1547 1.427 1_554 S
C1540 H1531 0.930 . S
C1540 C1538 1.378 . S
C1540 C1541 1.367 1_556 S
C1541 C1540 1.367 1_554 S
C1541 C1543 1.433 . S
C1542 C1538 1.350 1_554 S
C1542 C1539 1.463 . S
C1542 N1546 1.427 . S
C1543 H1533 0.929 . S
C1543 C1541 1.433 . S
C1543 N1546 1.384 . S
C1544 H1535 0.929 . S
C1544 C1536 1.378 . S
C1544 C1539 1.350 . S
C1545 H1532 0.929 . S
C1545 C1537 1.433 . S
C1545 N1547 1.384 . S
N1546 C1542 1.427 . S
N1546 C1543 1.384 . S
N1547 C1539 1.427 1_556 S
N1547 C1545 1.384 . S
H1548 C1554 0.930 . S
H1549 C1558 0.930 . S
H1550 C1563 0.929 . S
H1551 C1561 0.929 . S
H1552 C1556 0.929 . S
H1553 C1562 0.929 . S
C1554 H1548 0.930 . S
C1554 C1555 1.367 . S
C1554 C1562 1.378 . S
C1555 C1554 1.367 . S
C1555 C1563 1.433 . S
C1556 H1552 0.929 . S
C1556 C1558 1.378 . S
C1556 C1560 1.350 . S
C1557 C1560 1.463 . S
C1557 C1562 1.350 . S
C1557 N1565 1.427 . S
C1558 H1549 0.930 . S
C1558 C1556 1.378 . S
C1558 C1559 1.367 . S
C1559 C1558 1.367 . S
C1559 C1561 1.433 . S
C1560 C1556 1.350 . S
C1560 C1557 1.463 . S
C1560 N1564 1.427 . S
C1561 H1551 0.929 . S
C1561 C1559 1.433 . S
C1561 N1564 1.384 . S
C1562 H1553 0.929 . S
C1562 C1554 1.378 . S
C1562 C1557 1.350 . S
C1563 H1550 0.929 . S
C1563 C1555 1.433 . S
C1563 N1565 1.384 . S
N1564 C1560 1.427 . S
N1564 C1561 1.384 . S
N1565 C1557 1.427 . S
N1565 C1563 1.384 . S
H1566 C1572 0.930 . S
H1567 C1576 0.930 . S
H1568 C1581 0.929 . S
H1569 C1579 0.929 . S
H1570 C1574 0.929 . S
H1571 C1580 0.929 . S
C1572 H1566 0.930 . S
C1572 C1573 1.367 . S
C1572 C1580 1.378 . S
C1573 C1572 1.367 . S
C1573 C1581 1.433 . S
C1574 H1570 0.929 . S
C1574 C1576 1.378 . S
C1574 C1578 1.350 . S
C1575 C1578 1.463 . S
C1575 C1580 1.350 . S
C1575 N1583 1.427 . S
C1576 H1567 0.930 . S
C1576 C1574 1.378 . S
C1576 C1577 1.367 . S
C1577 C1576 1.367 . S
C1577 C1579 1.433 . S
C1578 C1574 1.350 . S
C1578 C1575 1.463 . S
C1578 N1582 1.427 . S
C1579 H1569 0.929 . S
C1579 C1577 1.433 . S
C1579 N1582 1.384 . S
C1580 H1571 0.929 . S
C1580 C1572 1.378 . S
C1580 C1575 1.350 . S
C1581 H1568 0.929 . S
C1581 C1573 1.433 . S
C1581 N1583 1.384 . S
N1582 C1578 1.427 . S
N1582 C1579 1.384 . S
N1583 C1575 1.427 . S
N1583 C1581 1.384 . S
H1584 C1590 0.930 . S
H1585 C1594 0.930 . S
H1586 C1599 0.945 . S
H1587 C1597 0.929 . S
H1588 C1592 0.929 . S
H1589 C1598 0.929 . S
C1590 H1584 0.930 . S
C1590 C1591 1.367 1_565 S
C1590 C1598 1.378 . S
C1591 C1590 1.367 1_545 S
C1591 C1599 1.435 . S
C1592 H1588 0.929 . S
C1592 C1594 1.378 . S
C1592 C1596 1.350 . S
C1593 C1596 1.463 . S
C1593 C1598 1.350 . S
C1593 N1601 1.427 . S
C1594 H1585 0.930 . S
C1594 C1592 1.378 . S
C1594 C1595 1.367 . S
C1595 C1594 1.367 . S
C1595 C1597 1.433 . S
C1596 C1592 1.350 . S
C1596 C1593 1.463 . S
C1596 N1600 1.427 . S
C1597 H1587 0.929 . S
C1597 C1595 1.433 . S
C1597 N1600 1.384 . S
C1598 H1589 0.929 . S
C1598 C1590 1.378 . S
C1598 C1593 1.350 . S
C1599 H1586 0.945 . S
C1599 C1591 1.435 . S
C1599 N1601 1.366 1_545 S
N1600 C1596 1.427 . S
N1600 C1597 1.384 . S
N1601 C1593 1.427 . S
N1601 C1599 1.366 1_565 S
H1602 C1608 0.930 . S
H1603 C1612 0.930 . S
H1604 C1617 0.929 . S
H1605 C1615 0.929 . S
H1606 C1610 0.929 . S
H1607 C1616 0.929 . S
C1608 H1602 0.930 . S
C1608 C1609 1.367 . S
C1608 C1616 1.378 . S
C1609 C1608 1.367 . S
C1609 C1617 1.433 . S
C1610 H1606 0.929 . S
C1610 C1612 1.378 . S
C1610 C1614 1.350 . S
C1611 C1614 1.463 . S
C1611 C1616 1.350 . S
C1611 N1619 1.427 . S
C1612 H1603 0.930 . S
C1612 C1610 1.378 . S
C1612 C1613 1.367 . S
C1613 C1612 1.367 . S
C1613 C1615 1.433 . S
C1614 C1610 1.350 . S
C1614 C1611 1.463 . S
C1614 N1618 1.427 . S
C1615 H1605 0.929 . S
C1615 C1613 1.433 . S
C1615 N1618 1.384 . S
C1616 H1607 0.929 . S
C1616 C1608 1.378 . S
C1616 C1611 1.350 . S
C1617 H1604 0.929 . S
C1617 C1609 1.433 . S
C1617 N1619 1.384 . S
N1618 C1614 1.427 . S
N1618 C1615 1.384 . S
N1619 C1611 1.427 . S
N1619 C1617 1.384 . S
H1620 C1626 0.930 . S
H1621 C1630 0.930 . S
H1622 C1635 0.929 . S
H1623 C1633 0.929 . S
H1624 C1628 0.929 . S
H1625 C1634 0.929 . S
C1626 H1620 0.930 . S
C1626 C1627 1.367 . S
C1626 C1634 1.378 . S
C1627 C1626 1.367 . S
C1627 C1635 1.433 . S
C1628 H1624 0.929 . S
C1628 C1630 1.378 . S
C1628 C1632 1.350 . S
C1629 C1632 1.463 . S
C1629 C1634 1.350 . S
C1629 N1637 1.427 . S
C1630 H1621 0.930 . S
C1630 C1628 1.378 . S
C1630 C1631 1.367 . S
C1631 C1630 1.367 . S
C1631 C1633 1.433 . S
C1632 C1628 1.350 . S
C1632 C1629 1.463 . S
C1632 N1636 1.427 . S
C1633 H1623 0.929 . S
C1633 C1631 1.433 . S
C1633 N1636 1.384 . S
C1634 H1625 0.929 . S
C1634 C1626 1.378 . S
C1634 C1629 1.350 . S
C1635 H1622 0.929 . S
C1635 C1627 1.433 . S
C1635 N1637 1.384 . S
N1636 C1632 1.427 . S
N1636 C1633 1.384 . S
N1637 C1629 1.427 . S
N1637 C1635 1.384 . S
H1638 C1644 0.930 . S
H1639 C1648 0.930 . S
H1640 C1653 0.929 . S
H1641 C1651 0.929 . S
H1642 C1646 0.929 . S
H1643 C1652 0.929 . S
C1644 H1638 0.930 . S
C1644 C1645 1.367 . S
C1644 C1652 1.378 . S
C1645 C1644 1.367 . S
C1645 C1653 1.433 . S
C1646 H1642 0.929 . S
C1646 C1648 1.378 . S
C1646 C1650 1.350 . S
C1647 C1650 1.463 . S
C1647 C1652 1.350 . S
C1647 N1655 1.427 . S
C1648 H1639 0.930 . S
C1648 C1646 1.378 . S
C1648 C1649 1.367 . S
C1649 C1648 1.367 . S
C1649 C1651 1.433 . S
C1650 C1646 1.350 . S
C1650 C1647 1.463 . S
C1650 N1654 1.427 . S
C1651 H1641 0.929 . S
C1651 C1649 1.433 . S
C1651 N1654 1.384 . S
C1652 H1643 0.929 . S
C1652 C1644 1.378 . S
C1652 C1647 1.350 . S
C1653 H1640 0.929 . S
C1653 C1645 1.433 . S
C1653 N1655 1.384 . S
N1654 C1650 1.427 . S
N1654 C1651 1.384 . S
N1655 C1647 1.427 . S
N1655 C1653 1.384 . S
H1656 C1662 0.930 . S
H1657 C1666 0.930 . S
H1658 C1671 0.929 . S
H1659 C1669 0.929 . S
H1660 C1664 0.929 . S
H1661 C1670 0.929 . S
C1662 H1656 0.930 . S
C1662 C1663 1.367 . S
C1662 C1670 1.378 . S
C1663 C1662 1.367 . S
C1663 C1671 1.433 . S
C1664 H1660 0.929 . S
C1664 C1666 1.378 . S
C1664 C1668 1.350 . S
C1665 C1668 1.463 . S
C1665 C1670 1.350 . S
C1665 N1673 1.427 . S
C1666 H1657 0.930 . S
C1666 C1664 1.378 . S
C1666 C1667 1.367 . S
C1667 C1666 1.367 . S
C1667 C1669 1.433 . S
C1668 C1664 1.350 . S
C1668 C1665 1.463 . S
C1668 N1672 1.427 . S
C1669 H1659 0.929 . S
C1669 C1667 1.433 . S
C1669 N1672 1.384 . S
C1670 H1661 0.929 . S
C1670 C1662 1.378 . S
C1670 C1665 1.350 . S
C1671 H1658 0.929 . S
C1671 C1663 1.433 . S
C1671 N1673 1.384 . S
N1672 C1668 1.427 . S
N1672 C1669 1.384 . S
N1673 C1665 1.427 . S
N1673 C1671 1.384 . S
H1674 C1680 0.930 . S
H1675 C1684 0.930 . S
H1676 C1689 0.929 . S
H1677 C1687 0.929 . S
H1678 C1682 0.929 . S
H1679 C1688 0.929 . S
C1680 H1674 0.930 . S
C1680 C1681 1.367 . S
C1680 C1688 1.378 . S
C1681 C1680 1.367 . S
C1681 C1689 1.433 . S
C1682 H1678 0.929 . S
C1682 C1684 1.378 . S
C1682 C1686 1.350 . S
C1683 C1686 1.463 . S
C1683 C1688 1.350 . S
C1683 N1691 1.427 . S
C1684 H1675 0.930 . S
C1684 C1682 1.378 . S
C1684 C1685 1.367 . S
C1685 C1684 1.367 . S
C1685 C1687 1.433 . S
C1686 C1682 1.350 . S
C1686 C1683 1.463 . S
C1686 N1690 1.427 . S
C1687 H1677 0.929 . S
C1687 C1685 1.433 . S
C1687 N1690 1.384 . S
C1688 H1679 0.929 . S
C1688 C1680 1.378 . S
C1688 C1683 1.350 . S
C1689 H1676 0.929 . S
C1689 C1681 1.433 . S
C1689 N1691 1.384 . S
N1690 C1686 1.427 . S
N1690 C1687 1.384 . S
N1691 C1683 1.427 . S
N1691 C1689 1.384 . S
H1692 C1698 0.930 . S
H1693 C1702 0.930 . S
H1694 C1707 0.929 . S
H1695 C1705 0.929 . S
H1696 C1700 0.929 . S
H1697 C1706 0.929 . S
C1698 H1692 0.930 . S
C1698 C1699 1.367 . S
C1698 C1706 1.378 . S
C1699 C1698 1.367 . S
C1699 C1707 1.433 . S
C1700 H1696 0.929 . S
C1700 C1702 1.378 . S
C1700 C1704 1.350 . S
C1701 C1704 1.463 . S
C1701 C1706 1.350 . S
C1701 N1709 1.427 . S
C1702 H1693 0.930 . S
C1702 C1700 1.378 . S
C1702 C1703 1.367 . S
C1703 C1702 1.367 . S
C1703 C1705 1.433 . S
C1704 C1700 1.350 . S
C1704 C1701 1.463 . S
C1704 N1708 1.427 . S
C1705 H1695 0.929 . S
C1705 C1703 1.433 . S
C1705 N1708 1.384 . S
C1706 H1697 0.929 . S
C1706 C1698 1.378 . S
C1706 C1701 1.350 . S
C1707 H1694 0.929 . S
C1707 C1699 1.433 . S
C1707 N1709 1.384 . S
N1708 C1704 1.427 . S
N1708 C1705 1.384 . S
N1709 C1701 1.427 . S
N1709 C1707 1.384 . S
H1710 C1716 0.930 . S
H1711 C1720 0.930 . S
H1712 C1725 0.929 . S
H1713 C1723 0.929 . S
H1714 C1718 0.929 . S
H1715 C1724 0.929 . S
C1716 H1710 0.930 . S
C1716 C1717 1.367 . S
C1716 C1724 1.378 . S
C1717 C1716 1.367 . S
C1717 C1725 1.433 . S
C1718 H1714 0.929 . S
C1718 C1720 1.378 . S
C1718 C1722 1.350 . S
C1719 C1722 1.463 . S
C1719 C1724 1.350 . S
C1719 N1727 1.427 . S
C1720 H1711 0.930 . S
C1720 C1718 1.378 . S
C1720 C1721 1.367 . S
C1721 C1720 1.367 . S
C1721 C1723 1.433 . S
C1722 C1718 1.350 . S
C1722 C1719 1.463 . S
C1722 N1726 1.427 . S
C1723 H1713 0.929 . S
C1723 C1721 1.433 . S
C1723 N1726 1.384 . S
C1724 H1715 0.929 . S
C1724 C1716 1.378 . S
C1724 C1719 1.350 . S
C1725 H1712 0.929 . S
C1725 C1717 1.433 . S
C1725 N1727 1.384 . S
N1726 C1722 1.427 . S
N1726 C1723 1.384 . S
N1727 C1719 1.427 . S
N1727 C1725 1.384 . S
H1728 C1734 0.930 . S
H1729 C1738 0.930 1_554 S
H1730 C1743 0.929 . S
H1731 C1741 0.929 . S
H1732 C1736 0.929 . S
H1733 C1742 0.929 . S
C1734 H1728 0.930 . S
C1734 C1735 1.367 . S
C1734 C1742 1.378 . S
C1735 C1734 1.367 . S
C1735 C1743 1.433 . S
C1736 H1732 0.929 . S
C1736 C1738 1.378 . S
C1736 C1740 1.350 . S
C1737 C1740 1.463 . S
C1737 C1742 1.350 . S
C1737 N1745 1.427 . S
C1738 H1729 0.930 1_556 S
C1738 C1736 1.378 . S
C1738 C1739 1.367 . S
C1739 C1738 1.367 . S
C1739 C1741 1.433 . S
C1740 C1736 1.350 . S
C1740 C1737 1.463 . S
C1740 N1744 1.427 . S
C1741 H1731 0.929 . S
C1741 C1739 1.433 . S
C1741 N1744 1.384 . S
C1742 H1733 0.929 . S
C1742 C1734 1.378 . S
C1742 C1737 1.350 . S
C1743 H1730 0.929 . S
C1743 C1735 1.433 . S
C1743 N1745 1.384 . S
N1744 C1740 1.427 . S
N1744 C1741 1.384 . S
N1745 C1737 1.427 . S
N1745 C1743 1.384 . S
H1746 C1752 0.930 . S
H1747 C1756 0.930 . S
H1748 C1761 0.929 . S
H1749 C1759 0.929 . S
H1750 C1754 0.929 . S
H1751 C1760 0.929 . S
C1752 H1746 0.930 . S
C1752 C1753 1.367 . S
C1752 C1760 1.378 . S
C1753 C1752 1.367 . S
C1753 C1761 1.433 . S
C1754 H1750 0.929 . S
C1754 C1756 1.378 . S
C1754 C1758 1.350 . S
C1755 C1758 1.463 . S
C1755 C1760 1.350 . S
C1755 N1763 1.427 . S
C1756 H1747 0.930 . S
C1756 C1754 1.378 . S
C1756 C1757 1.367 . S
C1757 C1756 1.367 . S
C1757 C1759 1.433 . S
C1758 C1754 1.350 . S
C1758 C1755 1.463 . S
C1758 N1762 1.427 . S
C1759 H1749 0.929 . S
C1759 C1757 1.433 . S
C1759 N1762 1.384 . S
C1760 H1751 0.929 . S
C1760 C1752 1.378 . S
C1760 C1755 1.350 . S
C1761 H1748 0.929 . S
C1761 C1753 1.433 . S
C1761 N1763 1.384 . S
N1762 C1758 1.427 . S
N1762 C1759 1.384 . S
N1763 C1755 1.427 . S
N1763 C1761 1.384 . S
H1764 C1770 0.930 . S
H1765 C1774 0.930 . S
H1766 C1779 0.929 . S
H1767 C1777 0.929 . S
H1768 C1772 0.929 . S
H1769 C1778 0.929 . S
C1770 H1764 0.930 . S
C1770 C1771 1.367 . S
C1770 C1778 1.378 . S
C1771 C1770 1.367 . S
C1771 C1779 1.433 . S
C1772 H1768 0.929 . S
C1772 C1774 1.378 . S
C1772 C1776 1.350 . S
C1773 C1776 1.463 . S
C1773 C1778 1.350 . S
C1773 N1781 1.427 . S
C1774 H1765 0.930 . S
C1774 C1772 1.378 . S
C1774 C1775 1.367 . S
C1775 C1774 1.367 . S
C1775 C1777 1.433 . S
C1776 C1772 1.350 . S
C1776 C1773 1.463 . S
C1776 N1780 1.427 . S
C1777 H1767 0.929 . S
C1777 C1775 1.433 . S
C1777 N1780 1.384 . S
C1778 H1769 0.929 . S
C1778 C1770 1.378 . S
C1778 C1773 1.350 . S
C1779 H1766 0.929 . S
C1779 C1771 1.433 . S
C1779 N1781 1.384 . S
N1780 C1776 1.427 . S
N1780 C1777 1.384 . S
N1781 C1773 1.427 . S
N1781 C1779 1.384 . S
H1782 C1788 0.930 . S
H1783 C1792 0.930 . S
H1784 C1797 0.929 . S
H1785 C1795 0.929 . S
H1786 C1790 0.929 . S
H1787 C1796 0.929 . S
C1788 H1782 0.930 . S
C1788 C1789 1.367 . S
C1788 C1796 1.378 . S
C1789 C1788 1.367 . S
C1789 C1797 1.433 . S
C1790 H1786 0.929 . S
C1790 C1792 1.378 . S
C1790 C1794 1.350 . S
C1791 C1794 1.463 . S
C1791 C1796 1.350 . S
C1791 N1799 1.427 . S
C1792 H1783 0.930 . S
C1792 C1790 1.378 . S
C1792 C1793 1.367 . S
C1793 C1792 1.367 . S
C1793 C1795 1.433 . S
C1794 C1790 1.350 . S
C1794 C1791 1.463 . S
C1794 N1798 1.427 . S
C1795 H1785 0.929 . S
C1795 C1793 1.433 . S
C1795 N1798 1.384 . S
C1796 H1787 0.929 . S
C1796 C1788 1.378 . S
C1796 C1791 1.350 . S
C1797 H1784 0.929 . S
C1797 C1789 1.433 . S
C1797 N1799 1.384 . S
N1798 C1794 1.427 . S
N1798 C1795 1.384 . S
N1799 C1791 1.427 . S
N1799 C1797 1.384 . S
H1800 C1806 0.930 . S
H1801 C1810 0.930 . S
H1802 C1815 0.929 . S
H1803 C1813 0.929 . S
H1804 C1808 0.929 . S
H1805 C1814 0.929 . S
C1806 H1800 0.930 . S
C1806 C1807 1.367 . S
C1806 C1814 1.378 . S
C1807 C1806 1.367 . S
C1807 C1815 1.433 . S
C1808 H1804 0.929 . S
C1808 C1810 1.378 . S
C1808 C1812 1.350 . S
C1809 C1812 1.463 . S
C1809 C1814 1.350 . S
C1809 N1817 1.427 . S
C1810 H1801 0.930 . S
C1810 C1808 1.378 . S
C1810 C1811 1.367 . S
C1811 C1810 1.367 . S
C1811 C1813 1.433 . S
C1812 C1808 1.350 . S
C1812 C1809 1.463 . S
C1812 N1816 1.427 . S
C1813 H1803 0.929 . S
C1813 C1811 1.433 . S
C1813 N1816 1.384 . S
C1814 H1805 0.929 . S
C1814 C1806 1.378 . S
C1814 C1809 1.350 . S
C1815 H1802 0.929 . S
C1815 C1807 1.433 . S
C1815 N1817 1.384 . S
N1816 C1812 1.427 . S
N1816 C1813 1.384 . S
N1817 C1809 1.427 . S
N1817 C1815 1.384 . S
H1818 C1824 0.930 1_554 S
H1819 C1828 0.930 . S
H1820 C1833 0.929 . S
H1821 C1831 0.929 . S
H1822 C1826 0.929 . S
H1823 C1832 0.929 . S
C1824 H1818 0.930 1_556 S
C1824 C1825 1.365 1_556 S
C1824 C1832 1.378 . S
C1825 C1824 1.365 1_554 S
C1825 C1833 1.411 1_554 S
C1826 H1822 0.929 . S
C1826 C1828 1.378 . S
C1826 C1830 1.350 . S
C1827 C1830 1.463 . S
C1827 C1832 1.350 . S
C1827 N1835 1.427 . S
C1828 H1819 0.930 . S
C1828 C1826 1.378 . S
C1828 C1829 1.367 . S
C1829 C1828 1.367 . S
C1829 C1831 1.433 . S
C1830 C1826 1.350 . S
C1830 C1827 1.463 . S
C1830 N1834 1.427 . S
C1831 H1821 0.929 . S
C1831 C1829 1.433 . S
C1831 N1834 1.384 . S
C1832 H1823 0.929 . S
C1832 C1824 1.378 . S
C1832 C1827 1.350 . S
C1833 H1820 0.929 . S
C1833 C1825 1.411 1_556 S
C1833 N1835 1.384 . S
N1834 C1830 1.427 . S
N1834 C1831 1.384 . S
N1835 C1827 1.427 . S
N1835 C1833 1.384 . S
H1836 C1842 0.930 . S
H1837 C1846 0.930 . S
H1838 C1851 0.929 . S
H1839 C1849 0.929 . S
H1840 C1844 0.929 . S
H1841 C1850 0.929 . S
C1842 H1836 0.930 . S
C1842 C1843 1.367 . S
C1842 C1850 1.378 . S
C1843 C1842 1.367 . S
C1843 C1851 1.433 . S
C1844 H1840 0.929 . S
C1844 C1846 1.378 . S
C1844 C1848 1.350 . S
C1845 C1848 1.463 . S
C1845 C1850 1.350 . S
C1845 N1853 1.427 . S
C1846 H1837 0.930 . S
C1846 C1844 1.378 . S
C1846 C1847 1.367 . S
C1847 C1846 1.367 . S
C1847 C1849 1.433 1_655 S
C1848 C1844 1.350 . S
C1848 C1845 1.463 . S
C1848 N1852 1.427 . S
C1849 H1839 0.929 . S
C1849 C1847 1.433 1_455 S
C1849 N1852 1.384 1_455 S
C1850 H1841 0.929 . S
C1850 C1842 1.378 . S
C1850 C1845 1.350 . S
C1851 H1838 0.929 . S
C1851 C1843 1.433 . S
C1851 N1853 1.384 . S
N1852 C1848 1.427 . S
N1852 C1849 1.384 1_655 S
N1853 C1845 1.427 . S
N1853 C1851 1.384 . S
H1854 C1860 0.930 . S
H1855 C1864 0.930 . S
H1856 C1869 0.929 . S
H1857 C1867 0.929 . S
H1858 C1862 0.929 . S
H1859 C1868 0.929 . S
C1860 H1854 0.930 . S
C1860 C1861 1.367 . S
C1860 C1868 1.378 . S
C1861 C1860 1.367 . S
C1861 C1869 1.433 . S
C1862 H1858 0.929 . S
C1862 C1864 1.378 . S
C1862 C1866 1.350 . S
C1863 C1866 1.463 . S
C1863 C1868 1.350 . S
C1863 N1871 1.427 . S
C1864 H1855 0.930 . S
C1864 C1862 1.378 . S
C1864 C1865 1.367 . S
C1865 C1864 1.367 . S
C1865 C1867 1.433 . S
C1866 C1862 1.350 . S
C1866 C1863 1.463 . S
C1866 N1870 1.427 . S
C1867 H1857 0.929 . S
C1867 C1865 1.433 . S
C1867 N1870 1.384 . S
C1868 H1859 0.929 . S
C1868 C1860 1.378 . S
C1868 C1863 1.350 . S
C1869 H1856 0.929 . S
C1869 C1861 1.433 . S
C1869 N1871 1.384 . S
N1870 C1866 1.427 . S
N1870 C1867 1.384 . S
N1871 C1863 1.427 . S
N1871 C1869 1.384 . S
H1872 C1878 0.930 . S
H1873 C1882 0.930 . S
H1874 C1887 0.929 . S
H1875 C1885 0.929 . S
H1876 C1880 0.929 . S
H1877 C1886 0.929 . S
C1878 H1872 0.930 . S
C1878 C1879 1.367 . S
C1878 C1886 1.378 . S
C1879 C1878 1.367 . S
C1879 C1887 1.433 . S
C1880 H1876 0.929 . S
C1880 C1882 1.378 . S
C1880 C1884 1.350 . S
C1881 C1884 1.463 . S
C1881 C1886 1.350 . S
C1881 N1889 1.427 . S
C1882 H1873 0.930 . S
C1882 C1880 1.378 . S
C1882 C1883 1.367 . S
C1883 C1882 1.367 . S
C1883 C1885 1.433 . S
C1884 C1880 1.350 . S
C1884 C1881 1.463 . S
C1884 N1888 1.427 . S
C1885 H1875 0.929 . S
C1885 C1883 1.433 . S
C1885 N1888 1.384 . S
C1886 H1877 0.929 . S
C1886 C1878 1.378 . S
C1886 C1881 1.350 . S
C1887 H1874 0.929 . S
C1887 C1879 1.433 . S
C1887 N1889 1.384 . S
N1888 C1884 1.427 . S
N1888 C1885 1.384 . S
N1889 C1881 1.427 . S
N1889 C1887 1.384 . S
H1890 C1896 0.930 . S
H1891 C1900 0.930 . S
H1892 C1905 0.929 . S
H1893 C1903 0.929 . S
H1894 C1898 0.929 . S
H1895 C1904 0.929 . S
C1896 H1890 0.930 . S
C1896 C1897 1.367 . S
C1896 C1904 1.378 . S
C1897 C1896 1.367 . S
C1897 C1905 1.433 . S
C1898 H1894 0.929 . S
C1898 C1900 1.378 . S
C1898 C1902 1.350 . S
C1899 C1902 1.463 . S
C1899 C1904 1.350 . S
C1899 N1907 1.427 . S
C1900 H1891 0.930 . S
C1900 C1898 1.378 . S
C1900 C1901 1.367 . S
C1901 C1900 1.367 . S
C1901 C1903 1.433 . S
C1902 C1898 1.350 . S
C1902 C1899 1.463 . S
C1902 N1906 1.427 . S
C1903 H1893 0.929 . S
C1903 C1901 1.433 . S
C1903 N1906 1.384 . S
C1904 H1895 0.929 . S
C1904 C1896 1.378 . S
C1904 C1899 1.350 . S
C1905 H1892 0.929 . S
C1905 C1897 1.433 . S
C1905 N1907 1.384 . S
N1906 C1902 1.427 . S
N1906 C1903 1.384 . S
N1907 C1899 1.427 . S
N1907 C1905 1.384 . S
H1908 C1914 0.930 . S
H1909 C1918 0.930 . S
H1910 C1923 0.929 . S
H1911 C1921 0.929 . S
H1912 C1916 0.929 . S
H1913 C1922 0.929 . S
C1914 H1908 0.930 . S
C1914 C1915 1.367 . S
C1914 C1922 1.378 . S
C1915 C1914 1.367 . S
C1915 C1923 1.433 . S
C1916 H1912 0.929 . S
C1916 C1918 1.378 . S
C1916 C1920 1.350 . S
C1917 C1920 1.463 . S
C1917 C1922 1.350 . S
C1917 N1925 1.427 . S
C1918 H1909 0.930 . S
C1918 C1916 1.378 . S
C1918 C1919 1.367 . S
C1919 C1918 1.367 . S
C1919 C1921 1.433 . S
C1920 C1916 1.350 . S
C1920 C1917 1.463 . S
C1920 N1924 1.427 . S
C1921 H1911 0.929 . S
C1921 C1919 1.433 . S
C1921 N1924 1.384 . S
C1922 H1913 0.929 . S
C1922 C1914 1.378 . S
C1922 C1917 1.350 . S
C1923 H1910 0.929 . S
C1923 C1915 1.433 . S
C1923 N1925 1.384 . S
N1924 C1920 1.427 . S
N1924 C1921 1.384 . S
N1925 C1917 1.427 . S
N1925 C1923 1.384 . S
H1926 C1932 0.930 . S
H1927 C1936 0.930 . S
H1928 C1941 0.929 . S
H1929 C1939 0.929 . S
H1930 C1934 0.929 . S
H1931 C1940 0.929 . S
C1932 H1926 0.930 . S
C1932 C1933 1.367 . S
C1932 C1940 1.378 . S
C1933 C1932 1.367 . S
C1933 C1941 1.433 . S
C1934 H1930 0.929 . S
C1934 C1936 1.378 . S
C1934 C1938 1.350 . S
C1935 C1938 1.463 . S
C1935 C1940 1.350 . S
C1935 N1943 1.427 . S
C1936 H1927 0.930 . S
C1936 C1934 1.378 . S
C1936 C1937 1.367 . S
C1937 C1936 1.367 . S
C1937 C1939 1.433 . S
C1938 C1934 1.350 . S
C1938 C1935 1.463 . S
C1938 N1942 1.427 . S
C1939 H1929 0.929 . S
C1939 C1937 1.433 . S
C1939 N1942 1.384 . S
C1940 H1931 0.929 . S
C1940 C1932 1.378 . S
C1940 C1935 1.350 . S
C1941 H1928 0.929 . S
C1941 C1933 1.433 . S
C1941 N1943 1.384 . S
N1942 C1938 1.427 . S
N1942 C1939 1.384 . S
N1943 C1935 1.427 . S
N1943 C1941 1.384 . S
H1944 C1950 0.930 . S
H1945 C1954 0.930 . S
H1946 C1959 0.929 . S
H1947 C1957 0.929 . S
H1948 C1952 0.929 . S
H1949 C1958 0.929 . S
C1950 H1944 0.930 . S
C1950 C1951 1.367 . S
C1950 C1958 1.378 . S
C1951 C1950 1.367 . S
C1951 C1959 1.433 . S
C1952 H1948 0.929 . S
C1952 C1954 1.378 . S
C1952 C1956 1.350 . S
C1953 C1956 1.463 . S
C1953 C1958 1.350 . S
C1953 N1961 1.427 . S
C1954 H1945 0.930 . S
C1954 C1952 1.378 . S
C1954 C1955 1.367 . S
C1955 C1954 1.367 . S
C1955 C1957 1.433 . S
C1956 C1952 1.350 . S
C1956 C1953 1.463 . S
C1956 N1960 1.427 . S
C1957 H1947 0.929 . S
C1957 C1955 1.433 . S
C1957 N1960 1.384 . S
C1958 H1949 0.929 . S
C1958 C1950 1.378 . S
C1958 C1953 1.350 . S
C1959 H1946 0.929 . S
C1959 C1951 1.433 . S
C1959 N1961 1.384 . S
N1960 C1956 1.427 . S
N1960 C1957 1.384 . S
N1961 C1953 1.427 . S
N1961 C1959 1.384 . S
H1962 C1968 0.930 . S
H1963 C1972 0.930 . S
H1964 C1977 0.929 . S
H1965 C1975 0.929 . S
H1966 C1970 0.929 . S
H1967 C1976 0.929 . S
C1968 H1962 0.930 . S
C1968 C1969 1.367 . S
C1968 C1976 1.378 . S
C1969 C1968 1.367 . S
C1969 C1977 1.433 . S
C1970 H1966 0.929 . S
C1970 C1972 1.378 . S
C1970 C1974 1.350 . S
C1971 C1974 1.463 . S
C1971 C1976 1.350 . S
C1971 N1979 1.427 . S
C1972 H1963 0.930 . S
C1972 C1970 1.378 . S
C1972 C1973 1.367 1_565 S
C1973 C1972 1.367 1_545 S
C1973 C1975 1.433 . S
C1974 C1970 1.350 . S
C1974 C1971 1.463 . S
C1974 N1978 1.427 1_565 S
C1975 H1965 0.929 . S
C1975 C1973 1.433 . S
C1975 N1978 1.384 . S
C1976 H1967 0.929 . S
C1976 C1968 1.378 . S
C1976 C1971 1.350 . S
C1977 H1964 0.929 . S
C1977 C1969 1.433 . S
C1977 N1979 1.384 . S
N1978 C1974 1.427 1_545 S
N1978 C1975 1.384 . S
N1979 C1971 1.427 . S
N1979 C1977 1.384 . S
H1980 C1986 0.930 1_545 S
H1981 C1990 0.930 . S
H1982 C1995 0.929 . S
H1983 C1993 0.929 . S
H1984 C1988 0.929 . S
H1985 C1994 0.929 . S
C1986 H1980 0.930 1_565 S
C1986 C1987 1.367 . S
C1986 C1994 1.378 . S
C1987 C1986 1.367 . S
C1987 C1995 1.430 . S
C1988 H1984 0.929 . S
C1988 C1990 1.378 . S
C1988 C1992 1.350 . S
C1989 C1992 1.463 . S
C1989 C1994 1.350 . S
C1989 N1997 1.427 . S
C1990 H1981 0.930 . S
C1990 C1988 1.378 . S
C1990 C1991 1.367 . S
C1991 C1990 1.367 . S
C1991 C1993 1.433 . S
C1992 C1988 1.350 . S
C1992 C1989 1.463 . S
C1992 N1996 1.427 . S
C1993 H1983 0.929 . S
C1993 C1991 1.433 . S
C1993 N1996 1.384 . S
C1994 H1985 0.929 . S
C1994 C1986 1.378 . S
C1994 C1989 1.350 . S
C1995 H1982 0.929 . S
C1995 C1987 1.430 . S
C1995 N1997 1.384 . S
N1996 C1992 1.427 . S
N1996 C1993 1.384 . S
N1997 C1989 1.427 . S
N1997 C1995 1.384 . S
H1998 C2004 0.930 . S
H1999 C2008 0.930 . S
H2000 C2013 0.929 . S
H2001 C2011 0.929 . S
H2002 C2006 0.929 . S
H2003 C2012 0.929 . S
C2004 H1998 0.930 . S
C2004 C2005 1.367 . S
C2004 C2012 1.378 . S
C2005 C2004 1.367 . S
C2005 C2013 1.433 . S
C2006 H2002 0.929 . S
C2006 C2008 1.378 . S
C2006 C2010 1.350 . S
C2007 C2010 1.463 . S
C2007 C2012 1.350 . S
C2007 N2015 1.427 . S
C2008 H1999 0.930 . S
C2008 C2006 1.378 . S
C2008 C2009 1.367 . S
C2009 C2008 1.367 . S
C2009 C2011 1.433 . S
C2010 C2006 1.350 . S
C2010 C2007 1.463 . S
C2010 N2014 1.427 . S
C2011 H2001 0.929 . S
C2011 C2009 1.433 . S
C2011 N2014 1.384 . S
C2012 H2003 0.929 . S
C2012 C2004 1.378 . S
C2012 C2007 1.350 . S
C2013 H2000 0.929 . S
C2013 C2005 1.433 . S
C2013 N2015 1.384 . S
N2014 C2010 1.427 . S
N2014 C2011 1.384 . S
N2015 C2007 1.427 . S
N2015 C2013 1.384 . S
H2016 C2022 0.930 . S
H2017 C2026 0.930 . S
H2018 C2031 0.929 . S
H2019 C2029 0.929 . S
H2020 C2024 0.929 . S
H2021 C2030 0.929 . S
C2022 H2016 0.930 . S
C2022 C2023 1.367 . S
C2022 C2030 1.378 . S
C2023 C2022 1.367 . S
C2023 C2031 1.433 . S
C2024 H2020 0.929 . S
C2024 C2026 1.378 . S
C2024 C2028 1.350 . S
C2025 C2028 1.463 . S
C2025 C2030 1.350 . S
C2025 N2033 1.427 . S
C2026 H2017 0.930 . S
C2026 C2024 1.378 . S
C2026 C2027 1.367 . S
C2027 C2026 1.367 . S
C2027 C2029 1.433 . S
C2028 C2024 1.350 . S
C2028 C2025 1.463 . S
C2028 N2032 1.427 . S
C2029 H2019 0.929 . S
C2029 C2027 1.433 . S
C2029 N2032 1.384 . S
C2030 H2021 0.929 . S
C2030 C2022 1.378 . S
C2030 C2025 1.350 . S
C2031 H2018 0.929 . S
C2031 C2023 1.433 . S
C2031 N2033 1.384 . S
N2032 C2028 1.427 . S
N2032 C2029 1.384 . S
N2033 C2025 1.427 . S
N2033 C2031 1.384 . S
H2034 C2040 0.930 . S
H2035 C2044 0.930 1_556 S
H2036 C2049 0.929 . S
H2037 C2047 0.929 . S
H2038 C2042 0.929 . S
H2039 C2048 0.929 . S
C2040 H2034 0.930 . S
C2040 C2041 1.367 . S
C2040 C2048 1.378 . S
C2041 C2040 1.367 . S
C2041 C2049 1.433 . S
C2042 H2038 0.929 . S
C2042 C2044 1.378 . S
C2042 C2046 1.350 . S
C2043 C2046 1.463 . S
C2043 C2048 1.350 . S
C2043 N2051 1.427 . S
C2044 H2035 0.930 1_554 S
C2044 C2042 1.378 . S
C2044 C2045 1.367 . S
C2045 C2044 1.367 . S
C2045 C2047 1.433 . S
C2046 C2042 1.350 . S
C2046 C2043 1.463 . S
C2046 N2050 1.427 . S
C2047 H2037 0.929 . S
C2047 C2045 1.433 . S
C2047 N2050 1.384 . S
C2048 H2039 0.929 . S
C2048 C2040 1.378 . S
C2048 C2043 1.350 . S
C2049 H2036 0.929 . S
C2049 C2041 1.433 . S
C2049 N2051 1.384 . S
N2050 C2046 1.427 . S
N2050 C2047 1.384 . S
N2051 C2043 1.427 . S
N2051 C2049 1.384 . S
H2052 C2058 0.930 . S
H2053 C2062 0.930 . S
H2054 C2067 0.929 . S
H2055 C2065 0.929 . S
H2056 C2060 0.929 . S
H2057 C2066 0.929 . S
C2058 H2052 0.930 . S
C2058 C2059 1.367 . S
C2058 C2066 1.378 . S
C2059 C2058 1.367 . S
C2059 C2067 1.433 . S
C2060 H2056 0.929 . S
C2060 C2062 1.378 . S
C2060 C2064 1.350 . S
C2061 C2064 1.463 . S
C2061 C2066 1.350 . S
C2061 N2069 1.427 . S
C2062 H2053 0.930 . S
C2062 C2060 1.378 . S
C2062 C2063 1.367 . S
C2063 C2062 1.367 . S
C2063 C2065 1.433 . S
C2064 C2060 1.350 . S
C2064 C2061 1.463 . S
C2064 N2068 1.427 . S
C2065 H2055 0.929 . S
C2065 C2063 1.433 . S
C2065 N2068 1.384 . S
C2066 H2057 0.929 . S
C2066 C2058 1.378 . S
C2066 C2061 1.350 . S
C2067 H2054 0.929 . S
C2067 C2059 1.433 . S
C2067 N2069 1.384 . S
N2068 C2064 1.427 . S
N2068 C2065 1.384 . S
N2069 C2061 1.427 . S
N2069 C2067 1.384 . S
H2070 C2076 0.930 . S
H2071 C2080 0.930 . S
H2072 C2085 0.929 . S
H2073 C2083 0.929 . S
H2074 C2078 0.929 . S
H2075 C2084 0.929 . S
C2076 H2070 0.930 . S
C2076 C2077 1.367 . S
C2076 C2084 1.378 . S
C2077 C2076 1.367 . S
C2077 C2085 1.433 . S
C2078 H2074 0.929 . S
C2078 C2080 1.378 . S
C2078 C2082 1.350 . S
C2079 C2082 1.463 . S
C2079 C2084 1.350 . S
C2079 N2087 1.427 . S
C2080 H2071 0.930 . S
C2080 C2078 1.378 . S
C2080 C2081 1.367 . S
C2081 C2080 1.367 . S
C2081 C2083 1.433 . S
C2082 C2078 1.350 . S
C2082 C2079 1.463 . S
C2082 N2086 1.427 . S
C2083 H2073 0.929 . S
C2083 C2081 1.433 . S
C2083 N2086 1.384 . S
C2084 H2075 0.929 . S
C2084 C2076 1.378 . S
C2084 C2079 1.350 . S
C2085 H2072 0.929 . S
C2085 C2077 1.433 . S
C2085 N2087 1.384 . S
N2086 C2082 1.427 . S
N2086 C2083 1.384 . S
N2087 C2079 1.427 . S
N2087 C2085 1.384 . S
H2088 C2094 0.930 . S
H2089 C2098 0.930 . S
H2090 C2103 0.929 . S
H2091 C2101 0.929 . S
H2092 C2096 0.929 . S
H2093 C2102 0.929 . S
C2094 H2088 0.930 . S
C2094 C2095 1.367 . S
C2094 C2102 1.378 . S
C2095 C2094 1.367 . S
C2095 C2103 1.433 . S
C2096 H2092 0.929 . S
C2096 C2098 1.378 . S
C2096 C2100 1.350 . S
C2097 C2100 1.463 . S
C2097 C2102 1.350 . S
C2097 N2105 1.427 . S
C2098 H2089 0.930 . S
C2098 C2096 1.378 . S
C2098 C2099 1.367 . S
C2099 C2098 1.367 . S
C2099 C2101 1.433 . S
C2100 C2096 1.350 . S
C2100 C2097 1.463 . S
C2100 N2104 1.427 . S
C2101 H2091 0.929 . S
C2101 C2099 1.433 . S
C2101 N2104 1.384 . S
C2102 H2093 0.929 . S
C2102 C2094 1.378 . S
C2102 C2097 1.350 . S
C2103 H2090 0.929 . S
C2103 C2095 1.433 . S
C2103 N2105 1.384 . S
N2104 C2100 1.427 . S
N2104 C2101 1.384 . S
N2105 C2097 1.427 . S
N2105 C2103 1.384 . S
H2106 C2112 0.930 . S
H2107 C2116 0.930 . S
H2108 C2121 0.929 . S
H2109 C2119 0.929 . S
H2110 C2114 0.929 . S
H2111 C2120 0.929 . S
C2112 H2106 0.930 . S
C2112 C2113 1.367 . S
C2112 C2120 1.378 . S
C2113 C2112 1.367 . S
C2113 C2121 1.433 . S
C2114 H2110 0.929 . S
C2114 C2116 1.378 . S
C2114 C2118 1.350 . S
C2115 C2118 1.463 . S
C2115 C2120 1.350 . S
C2115 N2123 1.427 . S
C2116 H2107 0.930 . S
C2116 C2114 1.378 . S
C2116 C2117 1.367 . S
C2117 C2116 1.367 . S
C2117 C2119 1.433 . S
C2118 C2114 1.350 . S
C2118 C2115 1.463 . S
C2118 N2122 1.427 . S
C2119 H2109 0.929 . S
C2119 C2117 1.433 . S
C2119 N2122 1.384 . S
C2120 H2111 0.929 . S
C2120 C2112 1.378 . S
C2120 C2115 1.350 . S
C2121 H2108 0.929 . S
C2121 C2113 1.433 . S
C2121 N2123 1.384 . S
N2122 C2118 1.427 . S
N2122 C2119 1.384 . S
N2123 C2115 1.427 . S
N2123 C2121 1.384 . S
H2124 C2130 0.930 . S
H2125 C2134 0.930 1_655 S
H2126 C2139 0.929 . S
H2127 C2137 0.929 . S
H2128 C2132 0.953 1_655 S
H2129 C2138 0.929 . S
C2130 H2124 0.930 . S
C2130 C2131 1.367 . S
C2130 C2138 1.378 . S
C2131 C2130 1.367 . S
C2131 C2139 1.433 . S
C2132 H2128 0.953 1_455 S
C2132 C2134 1.396 . S
C2132 C2136 1.309 1_554 S
C2133 C2136 1.463 . S
C2133 C2138 1.350 . S
C2133 N2141 1.427 . S
C2134 H2125 0.930 1_455 S
C2134 C2132 1.396 . S
C2134 C2135 1.367 1_554 S
C2135 C2134 1.367 1_556 S
C2135 C2137 1.433 . S
C2136 C2132 1.309 1_556 S
C2136 C2133 1.463 . S
C2136 N2140 1.427 . S
C2137 H2127 0.929 . S
C2137 C2135 1.433 . S
C2137 N2140 1.384 . S
C2138 H2129 0.929 . S
C2138 C2130 1.378 . S
C2138 C2133 1.350 . S
C2139 H2126 0.929 . S
C2139 C2131 1.433 . S
C2139 N2141 1.384 . S
N2140 C2136 1.427 . S
N2140 C2137 1.384 . S
N2141 C2133 1.427 . S
N2141 C2139 1.384 . S
H2142 C2148 0.930 . S
H2143 C2152 0.930 . S
H2144 C2157 0.929 . S
H2145 C2155 0.929 . S
H2146 C2150 0.929 . S
H2147 C2156 0.929 . S
C2148 H2142 0.930 . S
C2148 C2149 1.367 . S
C2148 C2156 1.378 . S
C2149 C2148 1.367 . S
C2149 C2157 1.433 . S
C2150 H2146 0.929 . S
C2150 C2152 1.378 . S
C2150 C2154 1.350 . S
C2151 C2154 1.463 . S
C2151 C2156 1.350 . S
C2151 N2159 1.427 . S
C2152 H2143 0.930 . S
C2152 C2150 1.378 . S
C2152 C2153 1.367 . S
C2153 C2152 1.367 . S
C2153 C2155 1.433 . S
C2154 C2150 1.350 . S
C2154 C2151 1.463 . S
C2154 N2158 1.427 . S
C2155 H2145 0.929 . S
C2155 C2153 1.433 . S
C2155 N2158 1.384 . S
C2156 H2147 0.929 . S
C2156 C2148 1.378 . S
C2156 C2151 1.350 . S
C2157 H2144 0.929 . S
C2157 C2149 1.433 . S
C2157 N2159 1.384 . S
N2158 C2154 1.427 . S
N2158 C2155 1.384 . S
N2159 C2151 1.427 . S
N2159 C2157 1.384 . S
H2160 C2166 0.930 . S
H2161 C2170 0.930 . S
H2162 C2175 0.929 . S
H2163 C2173 0.929 . S
H2164 C2168 0.929 . S
H2165 C2174 0.929 . S
C2166 H2160 0.930 . S
C2166 C2167 1.367 . S
C2166 C2174 1.378 . S
C2167 C2166 1.367 . S
C2167 C2175 1.433 . S
C2168 H2164 0.929 . S
C2168 C2170 1.378 . S
C2168 C2172 1.350 . S
C2169 C2172 1.463 . S
C2169 C2174 1.350 . S
C2169 N2177 1.427 . S
C2170 H2161 0.930 . S
C2170 C2168 1.378 . S
C2170 C2171 1.367 . S
C2171 C2170 1.367 . S
C2171 C2173 1.433 . S
C2172 C2168 1.350 . S
C2172 C2169 1.463 . S
C2172 N2176 1.427 . S
C2173 H2163 0.929 . S
C2173 C2171 1.433 . S
C2173 N2176 1.384 . S
C2174 H2165 0.929 . S
C2174 C2166 1.378 . S
C2174 C2169 1.350 . S
C2175 H2162 0.929 . S
C2175 C2167 1.433 . S
C2175 N2177 1.384 . S
N2176 C2172 1.427 . S
N2176 C2173 1.384 . S
N2177 C2169 1.427 . S
N2177 C2175 1.384 . S
H2178 C2184 0.930 . S
H2179 C2188 0.930 . S
H2180 C2193 0.929 . S
H2181 C2191 0.929 . S
H2182 C2186 0.929 . S
H2183 C2192 0.929 . S
C2184 H2178 0.930 . S
C2184 C2185 1.367 . S
C2184 C2192 1.378 . S
C2185 C2184 1.367 . S
C2185 C2193 1.433 . S
C2186 H2182 0.929 . S
C2186 C2188 1.378 . S
C2186 C2190 1.350 . S
C2187 C2190 1.463 . S
C2187 C2192 1.350 . S
C2187 N2195 1.427 . S
C2188 H2179 0.930 . S
C2188 C2186 1.378 . S
C2188 C2189 1.367 . S
C2189 C2188 1.367 . S
C2189 C2191 1.433 . S
C2190 C2186 1.350 . S
C2190 C2187 1.463 . S
C2190 N2194 1.427 . S
C2191 H2181 0.929 . S
C2191 C2189 1.433 . S
C2191 N2194 1.384 . S
C2192 H2183 0.929 . S
C2192 C2184 1.378 . S
C2192 C2187 1.350 . S
C2193 H2180 0.929 . S
C2193 C2185 1.433 . S
C2193 N2195 1.384 . S
N2194 C2190 1.427 . S
N2194 C2191 1.384 . S
N2195 C2187 1.427 . S
N2195 C2193 1.384 . S
H2196 C2202 0.930 . S
H2197 C2206 0.930 . S
H2198 C2211 0.929 . S
H2199 C2209 0.929 . S
H2200 C2204 0.929 . S
H2201 C2210 0.929 . S
C2202 H2196 0.930 . S
C2202 C2203 1.401 . S
C2202 C2210 1.378 . S
C2203 C2202 1.401 . S
C2203 C2211 1.402 1_455 S
C2204 H2200 0.929 . S
C2204 C2206 1.378 . S
C2204 C2208 1.350 1_655 S
C2205 C2208 1.463 . S
C2205 C2210 1.350 . S
C2205 N2213 1.427 1_455 S
C2206 H2197 0.930 . S
C2206 C2204 1.378 . S
C2206 C2207 1.367 1_655 S
C2207 C2206 1.367 1_455 S
C2207 C2209 1.433 . S
C2208 C2204 1.350 1_455 S
C2208 C2205 1.463 . S
C2208 N2212 1.427 . S
C2209 H2199 0.929 . S
C2209 C2207 1.433 . S
C2209 N2212 1.384 . S
C2210 H2201 0.929 . S
C2210 C2202 1.378 . S
C2210 C2205 1.350 . S
C2211 H2198 0.929 . S
C2211 C2203 1.402 1_655 S
C2211 N2213 1.384 . S
N2212 C2208 1.427 . S
N2212 C2209 1.384 . S
N2213 C2205 1.427 1_655 S
N2213 C2211 1.384 . S
H2214 C2220 0.930 . S
H2215 C2224 0.930 . S
H2216 C2229 0.929 . S
H2217 C2227 0.929 . S
H2218 C2222 0.929 . S
H2219 C2228 0.929 . S
C2220 H2214 0.930 . S
C2220 C2221 1.367 . S
C2220 C2228 1.378 . S
C2221 C2220 1.367 . S
C2221 C2229 1.433 . S
C2222 H2218 0.929 . S
C2222 C2224 1.378 . S
C2222 C2226 1.350 . S
C2223 C2226 1.463 . S
C2223 C2228 1.350 . S
C2223 N2231 1.427 . S
C2224 H2215 0.930 . S
C2224 C2222 1.378 . S
C2224 C2225 1.367 . S
C2225 C2224 1.367 . S
C2225 C2227 1.433 . S
C2226 C2222 1.350 . S
C2226 C2223 1.463 . S
C2226 N2230 1.427 . S
C2227 H2217 0.929 . S
C2227 C2225 1.433 . S
C2227 N2230 1.384 . S
C2228 H2219 0.929 . S
C2228 C2220 1.378 . S
C2228 C2223 1.350 . S
C2229 H2216 0.929 . S
C2229 C2221 1.433 . S
C2229 N2231 1.384 . S
N2230 C2226 1.427 . S
N2230 C2227 1.384 . S
N2231 C2223 1.427 . S
N2231 C2229 1.384 . S
H2232 C2238 0.930 . S
H2233 C2242 0.930 . S
H2234 C2247 0.929 . S
H2235 C2245 0.929 . S
H2236 C2240 0.929 . S
H2237 C2246 0.929 . S
C2238 H2232 0.930 . S
C2238 C2239 1.367 . S
C2238 C2246 1.378 . S
C2239 C2238 1.367 . S
C2239 C2247 1.433 . S
C2240 H2236 0.929 . S
C2240 C2242 1.378 . S
C2240 C2244 1.350 . S
C2241 C2244 1.463 . S
C2241 C2246 1.350 . S
C2241 N2249 1.427 . S
C2242 H2233 0.930 . S
C2242 C2240 1.378 . S
C2242 C2243 1.367 . S
C2243 C2242 1.367 . S
C2243 C2245 1.433 . S
C2244 C2240 1.350 . S
C2244 C2241 1.463 . S
C2244 N2248 1.427 . S
C2245 H2235 0.929 . S
C2245 C2243 1.433 . S
C2245 N2248 1.384 . S
C2246 H2237 0.929 . S
C2246 C2238 1.378 . S
C2246 C2241 1.350 . S
C2247 H2234 0.929 . S
C2247 C2239 1.433 . S
C2247 N2249 1.384 . S
N2248 C2244 1.427 . S
N2248 C2245 1.384 . S
N2249 C2241 1.427 . S
N2249 C2247 1.384 . S
H2250 C2256 0.930 . S
H2251 C2260 0.930 . S
H2252 C2265 0.929 . S
H2253 C2263 0.929 . S
H2254 C2258 0.929 . S
H2255 C2264 0.929 . S
C2256 H2250 0.930 . S
C2256 C2257 1.367 . S
C2256 C2264 1.378 . S
C2257 C2256 1.367 . S
C2257 C2265 1.433 . S
C2258 H2254 0.929 . S
C2258 C2260 1.378 . S
C2258 C2262 1.350 . S
C2259 C2262 1.463 . S
C2259 C2264 1.350 . S
C2259 N2267 1.427 . S
C2260 H2251 0.930 . S
C2260 C2258 1.378 . S
C2260 C2261 1.367 . S
C2261 C2260 1.367 . S
C2261 C2263 1.433 . S
C2262 C2258 1.350 . S
C2262 C2259 1.463 . S
C2262 N2266 1.427 . S
C2263 H2253 0.929 . S
C2263 C2261 1.433 . S
C2263 N2266 1.384 . S
C2264 H2255 0.929 . S
C2264 C2256 1.378 . S
C2264 C2259 1.350 . S
C2265 H2252 0.929 . S
C2265 C2257 1.433 . S
C2265 N2267 1.384 . S
N2266 C2262 1.427 . S
N2266 C2263 1.384 . S
N2267 C2259 1.427 . S
N2267 C2265 1.384 . S
H2268 C2274 0.930 . S
H2269 C2278 0.930 . S
H2270 C2283 0.929 . S
H2271 C2281 0.929 . S
H2272 C2276 0.929 . S
H2273 C2282 0.929 . S
C2274 H2268 0.930 . S
C2274 C2275 1.367 . S
C2274 C2282 1.378 . S
C2275 C2274 1.367 . S
C2275 C2283 1.433 . S
C2276 H2272 0.929 . S
C2276 C2278 1.378 . S
C2276 C2280 1.350 . S
C2277 C2280 1.463 . S
C2277 C2282 1.350 . S
C2277 N2285 1.427 . S
C2278 H2269 0.930 . S
C2278 C2276 1.378 . S
C2278 C2279 1.367 . S
C2279 C2278 1.367 . S
C2279 C2281 1.433 . S
C2280 C2276 1.350 . S
C2280 C2277 1.463 . S
C2280 N2284 1.427 . S
C2281 H2271 0.929 . S
C2281 C2279 1.433 . S
C2281 N2284 1.384 . S
C2282 H2273 0.929 . S
C2282 C2274 1.378 . S
C2282 C2277 1.350 . S
C2283 H2270 0.929 . S
C2283 C2275 1.433 . S
C2283 N2285 1.384 . S
N2284 C2280 1.427 . S
N2284 C2281 1.384 . S
N2285 C2277 1.427 . S
N2285 C2283 1.384 . S
H2286 C2292 0.930 . S
H2287 C2296 0.930 . S
H2288 C2301 0.929 . S
H2289 C2299 0.929 . S
H2290 C2294 0.929 . S
H2291 C2300 0.929 . S
C2292 H2286 0.930 . S
C2292 C2293 1.367 . S
C2292 C2300 1.378 . S
C2293 C2292 1.367 . S
C2293 C2301 1.433 . S
C2294 H2290 0.929 . S
C2294 C2296 1.378 . S
C2294 C2298 1.350 . S
C2295 C2298 1.463 . S
C2295 C2300 1.350 . S
C2295 N2303 1.427 . S
C2296 H2287 0.930 . S
C2296 C2294 1.378 . S
C2296 C2297 1.367 . S
C2297 C2296 1.367 . S
C2297 C2299 1.433 . S
C2298 C2294 1.350 . S
C2298 C2295 1.463 . S
C2298 N2302 1.427 . S
C2299 H2289 0.929 . S
C2299 C2297 1.433 . S
C2299 N2302 1.384 . S
C2300 H2291 0.929 . S
C2300 C2292 1.378 . S
C2300 C2295 1.350 . S
C2301 H2288 0.929 . S
C2301 C2293 1.433 . S
C2301 N2303 1.384 . S
N2302 C2298 1.427 . S
N2302 C2299 1.384 . S
N2303 C2295 1.427 . S
N2303 C2301 1.384 . S
H2304 C2310 0.930 . S
H2305 C2314 0.930 . S
H2306 C2319 0.929 . S
H2307 C2317 0.929 . S
H2308 C2312 0.929 . S
H2309 C2318 0.929 . S
C2310 H2304 0.930 . S
C2310 C2311 1.367 . S
C2310 C2318 1.378 . S
C2311 C2310 1.367 . S
C2311 C2319 1.433 . S
C2312 H2308 0.929 . S
C2312 C2314 1.378 . S
C2312 C2316 1.350 . S
C2313 C2316 1.463 . S
C2313 C2318 1.350 . S
C2313 N2321 1.427 . S
C2314 H2305 0.930 . S
C2314 C2312 1.378 . S
C2314 C2315 1.367 . S
C2315 C2314 1.367 . S
C2315 C2317 1.433 . S
C2316 C2312 1.350 . S
C2316 C2313 1.463 . S
C2316 N2320 1.427 . S
C2317 H2307 0.929 . S
C2317 C2315 1.433 . S
C2317 N2320 1.384 . S
C2318 H2309 0.929 . S
C2318 C2310 1.378 . S
C2318 C2313 1.350 . S
C2319 H2306 0.929 . S
C2319 C2311 1.433 . S
C2319 N2321 1.384 . S
N2320 C2316 1.427 . S
N2320 C2317 1.384 . S
N2321 C2313 1.427 . S
N2321 C2319 1.384 . S
H2322 C2328 0.930 . S
H2323 C2332 0.930 . S
H2324 C2337 0.929 . S
H2325 C2335 0.929 . S
H2326 C2330 0.929 . S
H2327 C2336 0.929 . S
C2328 H2322 0.930 . S
C2328 C2329 1.367 . S
C2328 C2336 1.378 . S
C2329 C2328 1.367 . S
C2329 C2337 1.433 . S
C2330 H2326 0.929 . S
C2330 C2332 1.378 . S
C2330 C2334 1.350 . S
C2331 C2334 1.463 . S
C2331 C2336 1.350 . S
C2331 N2339 1.427 . S
C2332 H2323 0.930 . S
C2332 C2330 1.378 . S
C2332 C2333 1.367 . S
C2333 C2332 1.367 . S
C2333 C2335 1.433 . S
C2334 C2330 1.350 . S
C2334 C2331 1.463 . S
C2334 N2338 1.427 . S
C2335 H2325 0.929 . S
C2335 C2333 1.433 . S
C2335 N2338 1.384 . S
C2336 H2327 0.929 . S
C2336 C2328 1.378 . S
C2336 C2331 1.350 . S
C2337 H2324 0.929 . S
C2337 C2329 1.433 . S
C2337 N2339 1.384 . S
N2338 C2334 1.427 . S
N2338 C2335 1.384 . S
N2339 C2331 1.427 . S
N2339 C2337 1.384 . S
H2340 C2346 0.930 . S
H2341 C2350 0.930 . S
H2342 C2355 0.929 . S
H2343 C2353 0.929 . S
H2344 C2348 0.929 . S
H2345 C2354 0.929 . S
C2346 H2340 0.930 . S
C2346 C2347 1.367 . S
C2346 C2354 1.378 . S
C2347 C2346 1.367 . S
C2347 C2355 1.433 . S
C2348 H2344 0.929 . S
C2348 C2350 1.378 . S
C2348 C2352 1.350 . S
C2349 C2352 1.463 . S
C2349 C2354 1.350 . S
C2349 N2357 1.427 . S
C2350 H2341 0.930 . S
C2350 C2348 1.378 . S
C2350 C2351 1.367 . S
C2351 C2350 1.367 . S
C2351 C2353 1.433 . S
C2352 C2348 1.350 . S
C2352 C2349 1.463 . S
C2352 N2356 1.427 . S
C2353 H2343 0.929 . S
C2353 C2351 1.433 . S
C2353 N2356 1.384 . S
C2354 H2345 0.929 . S
C2354 C2346 1.378 . S
C2354 C2349 1.350 . S
C2355 H2342 0.929 . S
C2355 C2347 1.433 . S
C2355 N2357 1.384 . S
N2356 C2352 1.427 . S
N2356 C2353 1.384 . S
N2357 C2349 1.427 . S
N2357 C2355 1.384 . S
H2358 C2364 0.930 . S
H2359 C2368 0.930 . S
H2360 C2373 0.929 . S
H2361 C2371 0.929 . S
H2362 C2366 0.929 . S
H2363 C2372 0.929 . S
C2364 H2358 0.930 . S
C2364 C2365 1.367 . S
C2364 C2372 1.378 . S
C2365 C2364 1.367 . S
C2365 C2373 1.433 . S
C2366 H2362 0.929 . S
C2366 C2368 1.378 . S
C2366 C2370 1.350 . S
C2367 C2370 1.463 . S
C2367 C2372 1.350 . S
C2367 N2375 1.427 . S
C2368 H2359 0.930 . S
C2368 C2366 1.378 . S
C2368 C2369 1.367 . S
C2369 C2368 1.367 . S
C2369 C2371 1.433 . S
C2370 C2366 1.350 . S
C2370 C2367 1.463 . S
C2370 N2374 1.427 . S
C2371 H2361 0.929 . S
C2371 C2369 1.433 . S
C2371 N2374 1.384 . S
C2372 H2363 0.929 . S
C2372 C2364 1.378 . S
C2372 C2367 1.350 . S
C2373 H2360 0.929 . S
C2373 C2365 1.433 . S
C2373 N2375 1.384 . S
N2374 C2370 1.427 . S
N2374 C2371 1.384 . S
N2375 C2367 1.427 . S
N2375 C2373 1.384 . S
H2376 C2382 0.930 . S
H2377 C2386 0.930 . S
H2378 C2391 0.929 . S
H2379 C2389 0.929 . S
H2380 C2384 0.929 . S
H2381 C2390 0.929 . S
C2382 H2376 0.930 . S
C2382 C2383 1.367 . S
C2382 C2390 1.378 . S
C2383 C2382 1.367 . S
C2383 C2391 1.433 . S
C2384 H2380 0.929 . S
C2384 C2386 1.378 . S
C2384 C2388 1.350 . S
C2385 C2388 1.463 . S
C2385 C2390 1.350 . S
C2385 N2393 1.427 . S
C2386 H2377 0.930 . S
C2386 C2384 1.378 . S
C2386 C2387 1.367 . S
C2387 C2386 1.367 . S
C2387 C2389 1.433 . S
C2388 C2384 1.350 . S
C2388 C2385 1.463 . S
C2388 N2392 1.427 . S
C2389 H2379 0.929 . S
C2389 C2387 1.433 . S
C2389 N2392 1.384 . S
C2390 H2381 0.929 . S
C2390 C2382 1.378 . S
C2390 C2385 1.350 . S
C2391 H2378 0.929 . S
C2391 C2383 1.433 . S
C2391 N2393 1.384 . S
N2392 C2388 1.427 . S
N2392 C2389 1.384 . S
N2393 C2385 1.427 . S
N2393 C2391 1.384 . S
H2394 C2400 0.930 . S
H2395 C2404 0.930 . S
H2396 C2409 0.929 . S
H2397 C2407 0.929 . S
H2398 C2402 0.929 . S
H2399 C2408 0.929 . S
C2400 H2394 0.930 . S
C2400 C2401 1.367 . S
C2400 C2408 1.378 . S
C2401 C2400 1.367 . S
C2401 C2409 1.433 . S
C2402 H2398 0.929 . S
C2402 C2404 1.378 . S
C2402 C2406 1.350 . S
C2403 C2406 1.463 . S
C2403 C2408 1.350 . S
C2403 N2411 1.427 . S
C2404 H2395 0.930 . S
C2404 C2402 1.378 . S
C2404 C2405 1.367 . S
C2405 C2404 1.367 . S
C2405 C2407 1.433 . S
C2406 C2402 1.350 . S
C2406 C2403 1.463 . S
C2406 N2410 1.427 . S
C2407 H2397 0.929 . S
C2407 C2405 1.433 . S
C2407 N2410 1.384 . S
C2408 H2399 0.929 . S
C2408 C2400 1.378 . S
C2408 C2403 1.350 . S
C2409 H2396 0.929 . S
C2409 C2401 1.433 . S
C2409 N2411 1.384 . S
N2410 C2406 1.427 . S
N2410 C2407 1.384 . S
N2411 C2403 1.427 . S
N2411 C2409 1.384 . S
H2412 C2418 0.930 . S
H2413 C2422 0.930 . S
H2414 C2427 0.929 . S
H2415 C2425 0.929 . S
H2416 C2420 0.929 . S
H2417 C2426 0.929 . S
C2418 H2412 0.930 . S
C2418 C2419 1.367 . S
C2418 C2426 1.378 . S
C2419 C2418 1.367 . S
C2419 C2427 1.433 . S
C2420 H2416 0.929 . S
C2420 C2422 1.378 . S
C2420 C2424 1.350 . S
C2421 C2424 1.463 . S
C2421 C2426 1.350 . S
C2421 N2429 1.427 . S
C2422 H2413 0.930 . S
C2422 C2420 1.378 . S
C2422 C2423 1.367 . S
C2423 C2422 1.367 . S
C2423 C2425 1.433 . S
C2424 C2420 1.350 . S
C2424 C2421 1.463 . S
C2424 N2428 1.427 . S
C2425 H2415 0.929 . S
C2425 C2423 1.433 . S
C2425 N2428 1.384 . S
C2426 H2417 0.929 . S
C2426 C2418 1.378 . S
C2426 C2421 1.350 . S
C2427 H2414 0.929 . S
C2427 C2419 1.433 . S
C2427 N2429 1.384 . S
N2428 C2424 1.427 . S
N2428 C2425 1.384 . S
N2429 C2421 1.427 . S
N2429 C2427 1.384 . S
H2430 C2436 0.930 1_556 S
H2431 C2440 0.930 . S
H2432 C2445 0.929 . S
H2433 C2443 0.929 . S
H2434 C2438 0.929 . S
H2435 C2444 0.918 1_556 S
C2436 H2430 0.930 1_554 S
C2436 C2437 1.367 . S
C2436 C2444 1.379 . S
C2437 C2436 1.367 . S
C2437 C2445 1.433 . S
C2438 H2434 0.929 . S
C2438 C2440 1.378 . S
C2438 C2442 1.350 1_545 S
C2439 C2442 1.463 . S
C2439 C2444 1.359 . S
C2439 N2447 1.427 . S
C2440 H2431 0.930 . S
C2440 C2438 1.378 . S
C2440 C2441 1.367 . S
C2441 C2440 1.367 . S
C2441 C2443 1.433 1_544 S
C2442 C2438 1.350 1_565 S
C2442 C2439 1.463 . S
C2442 N2446 1.427 1_554 S
C2443 H2433 0.929 . S
C2443 C2441 1.433 1_566 S
C2443 N2446 1.384 . S
C2444 H2435 0.918 1_554 S
C2444 C2436 1.379 . S
C2444 C2439 1.359 . S
C2445 H2432 0.929 . S
C2445 C2437 1.433 . S
C2445 N2447 1.384 . S
N2446 C2442 1.427 1_556 S
N2446 C2443 1.384 . S
N2447 C2439 1.427 . S
N2447 C2445 1.384 . S
H2448 C2454 0.930 . S
H2449 C2458 0.930 . S
H2450 C2463 0.929 . S
H2451 C2461 0.929 . S
H2452 C2456 0.929 . S
H2453 C2462 0.929 . S
C2454 H2448 0.930 . S
C2454 C2455 1.367 . S
C2454 C2462 1.378 . S
C2455 C2454 1.367 . S
C2455 C2463 1.433 . S
C2456 H2452 0.929 . S
C2456 C2458 1.378 . S
C2456 C2460 1.350 . S
C2457 C2460 1.463 . S
C2457 C2462 1.350 . S
C2457 N2465 1.427 . S
C2458 H2449 0.930 . S
C2458 C2456 1.378 . S
C2458 C2459 1.367 . S
C2459 C2458 1.367 . S
C2459 C2461 1.433 . S
C2460 C2456 1.350 . S
C2460 C2457 1.463 . S
C2460 N2464 1.427 . S
C2461 H2451 0.929 . S
C2461 C2459 1.433 . S
C2461 N2464 1.384 . S
C2462 H2453 0.929 . S
C2462 C2454 1.378 . S
C2462 C2457 1.350 . S
C2463 H2450 0.929 . S
C2463 C2455 1.433 . S
C2463 N2465 1.384 . S
N2464 C2460 1.427 . S
N2464 C2461 1.384 . S
N2465 C2457 1.427 . S
N2465 C2463 1.384 . S
H2466 C2472 0.930 . S
H2467 C2476 0.930 . S
H2468 C2481 0.929 . S
H2469 C2479 0.929 . S
H2470 C2474 0.929 . S
H2471 C2480 0.929 . S
C2472 H2466 0.930 . S
C2472 C2473 1.367 . S
C2472 C2480 1.378 . S
C2473 C2472 1.367 . S
C2473 C2481 1.433 . S
C2474 H2470 0.929 . S
C2474 C2476 1.378 . S
C2474 C2478 1.350 . S
C2475 C2478 1.463 . S
C2475 C2480 1.350 . S
C2475 N2483 1.427 . S
C2476 H2467 0.930 . S
C2476 C2474 1.378 . S
C2476 C2477 1.367 . S
C2477 C2476 1.367 . S
C2477 C2479 1.433 . S
C2478 C2474 1.350 . S
C2478 C2475 1.463 . S
C2478 N2482 1.427 . S
C2479 H2469 0.929 . S
C2479 C2477 1.433 . S
C2479 N2482 1.384 . S
C2480 H2471 0.929 . S
C2480 C2472 1.378 . S
C2480 C2475 1.350 . S
C2481 H2468 0.929 . S
C2481 C2473 1.433 . S
C2481 N2483 1.384 . S
N2482 C2478 1.427 . S
N2482 C2479 1.384 . S
N2483 C2475 1.427 . S
N2483 C2481 1.384 . S
H2484 C2490 0.930 . S
H2485 C2494 0.930 . S
H2486 C2499 0.929 . S
H2487 C2497 0.929 . S
H2488 C2492 0.929 . S
H2489 C2498 0.929 . S
C2490 H2484 0.930 . S
C2490 C2491 1.367 . S
C2490 C2498 1.378 . S
C2491 C2490 1.367 . S
C2491 C2499 1.433 . S
C2492 H2488 0.929 . S
C2492 C2494 1.378 . S
C2492 C2496 1.350 . S
C2493 C2496 1.463 . S
C2493 C2498 1.350 . S
C2493 N2501 1.427 . S
C2494 H2485 0.930 . S
C2494 C2492 1.378 . S
C2494 C2495 1.367 . S
C2495 C2494 1.367 . S
C2495 C2497 1.433 . S
C2496 C2492 1.350 . S
C2496 C2493 1.463 . S
C2496 N2500 1.427 . S
C2497 H2487 0.929 . S
C2497 C2495 1.433 . S
C2497 N2500 1.384 . S
C2498 H2489 0.929 . S
C2498 C2490 1.378 . S
C2498 C2493 1.350 . S
C2499 H2486 0.929 . S
C2499 C2491 1.433 . S
C2499 N2501 1.384 . S
N2500 C2496 1.427 . S
N2500 C2497 1.384 . S
N2501 C2493 1.427 . S
N2501 C2499 1.384 . S
H2502 C2508 0.930 . S
H2503 C2512 0.930 . S
H2504 C2517 0.929 . S
H2505 C2515 0.929 . S
H2506 C2510 0.929 . S
H2507 C2516 0.929 . S
C2508 H2502 0.930 . S
C2508 C2509 1.367 . S
C2508 C2516 1.378 . S
C2509 C2508 1.367 . S
C2509 C2517 1.433 . S
C2510 H2506 0.929 . S
C2510 C2512 1.378 . S
C2510 C2514 1.350 . S
C2511 C2514 1.463 . S
C2511 C2516 1.350 . S
C2511 N2519 1.427 . S
C2512 H2503 0.930 . S
C2512 C2510 1.378 . S
C2512 C2513 1.367 . S
C2513 C2512 1.367 . S
C2513 C2515 1.433 . S
C2514 C2510 1.350 . S
C2514 C2511 1.463 . S
C2514 N2518 1.427 . S
C2515 H2505 0.929 . S
C2515 C2513 1.433 . S
C2515 N2518 1.384 . S
C2516 H2507 0.929 . S
C2516 C2508 1.378 . S
C2516 C2511 1.350 . S
C2517 H2504 0.929 . S
C2517 C2509 1.433 . S
C2517 N2519 1.384 . S
N2518 C2514 1.427 . S
N2518 C2515 1.384 . S
N2519 C2511 1.427 . S
N2519 C2517 1.384 . S
C803 C313 1.740 . S
C799 C10 1.763 . S
C817 C13 0.849 . S
C821 C358 0.859 . S
C835 C34 1.610 . S
C839 C382 1.641 . S
C857 N408 0.966 . S
C853 C44 0.958 . S
C871 C21 0.988 . S
C875 N438 1.041 . S
C893 C472 1.464 . S
C889 C26 1.438 . S
C911 C508 1.095 1_556 S
C907 C49 1.093 . S
C925 C5 1.662 . S
C929 C532 1.664 . S
C943 C62 0.891 . S
C947 N326 0.890 . S
C961 C73 0.971 . S
C965 N348 1.004 . S
C983 C388 0.906 . S
C979 C88 0.907 . S
C1001 C412 1.653 . S
C997 C99 1.628 . S
C1015 C60 1.058 . S
C1019 C442 1.078 . S
C1037 C478 0.950 . S
C1033 C75 0.949 . S
C1055 N498 0.996 . S
C1051 C86 0.963 . S
C1073 C538 1.607 . S
C1069 C101 1.622 . S
C1091 C339 1.585 . S
C1087 C96 1.581 . S
C1109 C568 0.879 . S
C1105 C104 0.868 . S
C1123 C122 0.980 . S
C1127 N588 0.989 . S
C1145 C622 1.463 . S
C1141 C130 1.439 . S
C1159 C57 0.822 . S
C1163 N528 0.824 . S
C1181 N378 0.999 1_565 S
C1177 C70 0.983 . S
C1195 C117 0.887 . S
C1199 C658 0.891 . S
C1217 C682 0.877 . S
C1213 C143 0.872 . S
C1231 C164 1.816 . S
C1235 C322 1.830 1_556 S
C1253 C699 0.949 . S
C1249 C169 0.925 . S
C1267 C192 1.742 . S
C1271 C373 1.713 . S
C1285 C200 1.003 . S
C1289 N656 1.026 . S
C1307 N446 1.098 . S
C1303 C179 1.096 . S
C1325 C583 1.530 . S
C1321 C182 1.518 . S
C1343 C519 1.197 . S
C1339 C203 1.160 . S
C1361 C703 1.734 . S
C1357 C161 1.725 . S
C1379 N318 0.939 . S
C1375 C216 0.923 . S
C1393 C231 1.046 . S
C1397 N686 1.060 . S
C1415 C399 0.996 . S
C1411 C242 0.980 . S
C1429 C257 1.760 . S
C1433 C643 1.731 . S
C1447 C218 1.194 . S
C1451 C433 1.166 1_655 S
C1465 C229 1.025 . S
C1469 C609 1.057 . S
C1487 N506 1.040 . S
C1483 C244 1.030 . S
C1501 C255 1.689 . S
C1505 C729 1.685 . S
C1519 C252 1.642 . S
C1523 C328 1.665 . S
C1537 C260 0.940 1_556 S
C1541 C579 0.956 . S
C1555 C278 1.004 . S
C1559 N476 1.044 . S
C1573 C286 1.538 . S
C1577 C613 1.537 . S
C1595 N716 0.862 . S
C1591 C213 0.848 . S
C1613 N386 1.052 . S
C1609 C226 1.008 . S
C1631 C429 0.967 . S
C1627 C273 0.941 . S
C1649 C343 0.941 . S
C1645 C299 0.964 . S
C1663 C36 1.764 . S
C1667 C733 1.743 . S
C1685 C688 0.860 . S
C1681 C39 0.849 . S
C1703 C772 1.645 . S
C1699 C8 1.619 . S
C1717 C18 0.925 1_655 S
C1721 N648 0.962 . S
C1735 C47 0.983 . S
C1739 N558 1.055 . S
C1757 C592 1.453 . S
C1753 C0 1.425 . S
C1775 C628 1.091 . S
C1771 C23 1.096 . S
C1793 C712 1.668 . S
C1789 C31 1.669 . S
C1811 N746 0.889 . S
C1807 C153 0.895 . S
C1825 C112 0.975 . S
C1829 N678 1.003 . S
C1843 C127 0.898 . S
C1847 C778 0.901 1_655 S
C1865 C652 1.653 . S
C1861 C138 1.628 . S
C1883 C562 1.090 . S
C1879 C151 1.070 . S
C1897 C114 0.958 . S
C1901 C598 0.955 . S
C1919 N618 0.997 . S
C1915 C125 0.947 . S
C1933 C140 1.622 . S
C1937 C718 1.610 . S
C1955 C759 1.591 . S
C1951 C135 1.582 . S
C1973 C448 0.870 . S
C1969 C65 0.869 . S
C1991 N468 0.988 . S
C1987 C83 0.981 1_565 S
C2005 C91 1.446 . S
C2009 C502 1.468 . S
C2027 N708 0.816 . S
C2023 C148 0.807 . S
C2041 C109 0.994 . S
C2045 N768 1.004 . S
C2063 C418 0.880 . S
C2059 C78 0.876 . S
C2081 C352 0.870 . S
C2077 C52 0.858 . S
C2095 C190 1.825 . S
C2099 C742 1.823 . S
C2117 C369 0.951 . S
C2113 C195 0.920 . S
C2135 C763 1.715 1_556 S
C2131 C166 1.743 . S
C2149 C174 0.984 . S
C2153 N416 1.023 . S
C2167 C205 1.096 . S
C2171 N566 1.098 . S
C2185 C156 1.514 . S
C2189 C463 1.530 . S
C2203 C177 1.169 . S
C2207 C639 1.198 . S
C2221 C187 1.732 . S
C2225 C523 1.741 . S
C2243 N738 0.946 . S
C2239 C307 0.937 . S
C2257 C270 1.057 . S
C2261 N356 1.056 . S
C2279 C789 0.999 . S
C2275 C281 0.974 . S
C2293 C296 1.757 . S
C2297 C403 1.728 . S
C2311 C309 1.195 . S
C2315 C553 1.167 . S
C2333 C489 1.057 . S
C2329 C268 1.030 . S
C2347 C283 1.037 . S
C2351 N626 1.043 . S
C2369 C549 1.688 . S
C2365 C294 1.687 . S
C2387 C748 1.659 . S
C2383 C291 1.640 . S
C2405 C459 0.960 . S
C2401 C221 0.936 . S
C2419 C239 1.001 . S
C2423 N596 1.043 . S
C2441 C493 1.537 . S
C2437 C247 1.537 . S
C2459 N536 0.863 . S
C2455 C304 0.858 . S
C2473 C265 1.011 . S
C2477 N776 1.051 . S
C2495 C669 0.962 . S
C2491 C234 0.952 . S
C2513 C673 0.938 . S
C2509 C208 0.968 . S
