# Generated by pormake.
# Topology iac, (4,6)-cn, num edge types: 1
# Building blocks:
#     Node 0, Type 0, BuildingBlock: CEKHIL_clean_sbu_0, # of connection points: 4
#     Node 1, Type 0, BuildingBlock: CEKHIL_clean_sbu_0, # of connection points: 4
#     Node 2, Type 0, BuildingBlock: CEKHIL_clean_sbu_0, # of connection points: 4
#     Node 3, Type 0, BuildingBlock: CEKHIL_clean_sbu_0, # of connection points: 4
#     Node 4, Type 0, BuildingBlock: CEKHIL_clean_sbu_0, # of connection points: 4
#     Node 5, Type 0, BuildingBlock: CEKHIL_clean_sbu_0, # of connection points: 4
#     Node 6, Type 0, BuildingBlock: CEKHIL_clean_sbu_0, # of connection points: 4
#     Node 7, Type 0, BuildingBlock: CEKHIL_clean_sbu_0, # of connection points: 4
#     Node 8, Type 0, BuildingBlock: CEKHIL_clean_sbu_0, # of connection points: 4
#     Node 9, Type 0, BuildingBlock: CEKHIL_clean_sbu_0, # of connection points: 4
#     Node 10, Type 0, BuildingBlock: CEKHIL_clean_sbu_0, # of connection points: 4
#     Node 11, Type 0, BuildingBlock: CEKHIL_clean_sbu_0, # of connection points: 4
#     Node 12, Type 0, BuildingBlock: CEKHIL_clean_sbu_0, # of connection points: 4
#     Node 13, Type 0, BuildingBlock: CEKHIL_clean_sbu_0, # of connection points: 4
#     Node 14, Type 0, BuildingBlock: CEKHIL_clean_sbu_0, # of connection points: 4
#     Node 15, Type 0, BuildingBlock: CEKHIL_clean_sbu_0, # of connection points: 4
#     Node 16, Type 0, BuildingBlock: CEKHIL_clean_sbu_0, # of connection points: 4
#     Node 17, Type 0, BuildingBlock: CEKHIL_clean_sbu_0, # of connection points: 4
#     Node 18, Type 0, BuildingBlock: CEKHIL_clean_sbu_0, # of connection points: 4
#     Node 19, Type 0, BuildingBlock: CEKHIL_clean_sbu_0, # of connection points: 4
#     Node 20, Type 0, BuildingBlock: CEKHIL_clean_sbu_0, # of connection points: 4
#     Node 21, Type 0, BuildingBlock: CEKHIL_clean_sbu_0, # of connection points: 4
#     Node 22, Type 0, BuildingBlock: CEKHIL_clean_sbu_0, # of connection points: 4
#     Node 23, Type 0, BuildingBlock: CEKHIL_clean_sbu_0, # of connection points: 4
#     Node 24, Type 1, BuildingBlock: FUNLAD_clean_sbu_0, # of connection points: 6
#     Node 25, Type 1, BuildingBlock: FUNLAD_clean_sbu_0, # of connection points: 6
#     Node 26, Type 1, BuildingBlock: FUNLAD_clean_sbu_0, # of connection points: 6
#     Node 27, Type 1, BuildingBlock: FUNLAD_clean_sbu_0, # of connection points: 6
#     Node 28, Type 1, BuildingBlock: FUNLAD_clean_sbu_0, # of connection points: 6
#     Node 29, Type 1, BuildingBlock: FUNLAD_clean_sbu_0, # of connection points: 6
#     Node 30, Type 1, BuildingBlock: FUNLAD_clean_sbu_0, # of connection points: 6
#     Node 31, Type 1, BuildingBlock: FUNLAD_clean_sbu_0, # of connection points: 6
#     Node 32, Type 1, BuildingBlock: FUNLAD_clean_sbu_0, # of connection points: 6
#     Node 33, Type 1, BuildingBlock: FUNLAD_clean_sbu_0, # of connection points: 6
#     Node 34, Type 1, BuildingBlock: FUNLAD_clean_sbu_0, # of connection points: 6
#     Node 35, Type 1, BuildingBlock: FUNLAD_clean_sbu_0, # of connection points: 6
#     Node 36, Type 1, BuildingBlock: FUNLAD_clean_sbu_0, # of connection points: 6
#     Node 37, Type 1, BuildingBlock: FUNLAD_clean_sbu_0, # of connection points: 6
#     Node 38, Type 1, BuildingBlock: FUNLAD_clean_sbu_0, # of connection points: 6
#     Node 39, Type 1, BuildingBlock: FUNLAD_clean_sbu_0, # of connection points: 6
#     Edge 40, Type (0, 1), BuildingBlock: XUDNAN_clean_linker_2, # of connection points: 2
#     Edge 41, Type (0, 1), BuildingBlock: XUDNAN_clean_linker_2, # of connection points: 2
#     Edge 42, Type (0, 1), BuildingBlock: XUDNAN_clean_linker_2, # of connection points: 2
#     Edge 43, Type (0, 1), BuildingBlock: XUDNAN_clean_linker_2, # of connection points: 2
#     Edge 44, Type (0, 1), BuildingBlock: XUDNAN_clean_linker_2, # of connection points: 2
#     Edge 45, Type (0, 1), BuildingBlock: XUDNAN_clean_linker_2, # of connection points: 2
#     Edge 46, Type (0, 1), BuildingBlock: XUDNAN_clean_linker_2, # of connection points: 2
#     Edge 47, Type (0, 1), BuildingBlock: XUDNAN_clean_linker_2, # of connection points: 2
#     Edge 48, Type (0, 1), BuildingBlock: XUDNAN_clean_linker_2, # of connection points: 2
#     Edge 49, Type (0, 1), BuildingBlock: XUDNAN_clean_linker_2, # of connection points: 2
#     Edge 50, Type (0, 1), BuildingBlock: XUDNAN_clean_linker_2, # of connection points: 2
#     Edge 51, Type (0, 1), BuildingBlock: XUDNAN_clean_linker_2, # of connection points: 2
#     Edge 52, Type (0, 1), BuildingBlock: XUDNAN_clean_linker_2, # of connection points: 2
#     Edge 53, Type (0, 1), BuildingBlock: XUDNAN_clean_linker_2, # of connection points: 2
#     Edge 54, Type (0, 1), BuildingBlock: XUDNAN_clean_linker_2, # of connection points: 2
#     Edge 55, Type (0, 1), BuildingBlock: XUDNAN_clean_linker_2, # of connection points: 2
#     Edge 56, Type (0, 1), BuildingBlock: XUDNAN_clean_linker_2, # of connection points: 2
#     Edge 57, Type (0, 1), BuildingBlock: XUDNAN_clean_linker_2, # of connection points: 2
#     Edge 58, Type (0, 1), BuildingBlock: XUDNAN_clean_linker_2, # of connection points: 2
#     Edge 59, Type (0, 1), BuildingBlock: XUDNAN_clean_linker_2, # of connection points: 2
#     Edge 60, Type (0, 1), BuildingBlock: XUDNAN_clean_linker_2, # of connection points: 2
#     Edge 61, Type (0, 1), BuildingBlock: XUDNAN_clean_linker_2, # of connection points: 2
#     Edge 62, Type (0, 1), BuildingBlock: XUDNAN_clean_linker_2, # of connection points: 2
#     Edge 63, Type (0, 1), BuildingBlock: XUDNAN_clean_linker_2, # of connection points: 2
#     Edge 64, Type (0, 1), BuildingBlock: XUDNAN_clean_linker_2, # of connection points: 2
#     Edge 65, Type (0, 1), BuildingBlock: XUDNAN_clean_linker_2, # of connection points: 2
#     Edge 66, Type (0, 1), BuildingBlock: XUDNAN_clean_linker_2, # of connection points: 2
#     Edge 67, Type (0, 1), BuildingBlock: XUDNAN_clean_linker_2, # of connection points: 2
#     Edge 68, Type (0, 1), BuildingBlock: XUDNAN_clean_linker_2, # of connection points: 2
#     Edge 69, Type (0, 1), BuildingBlock: XUDNAN_clean_linker_2, # of connection points: 2
#     Edge 70, Type (0, 1), BuildingBlock: XUDNAN_clean_linker_2, # of connection points: 2
#     Edge 71, Type (0, 1), BuildingBlock: XUDNAN_clean_linker_2, # of connection points: 2
#     Edge 72, Type (0, 1), BuildingBlock: XUDNAN_clean_linker_2, # of connection points: 2
#     Edge 73, Type (0, 1), BuildingBlock: XUDNAN_clean_linker_2, # of connection points: 2
#     Edge 74, Type (0, 1), BuildingBlock: XUDNAN_clean_linker_2, # of connection points: 2
#     Edge 75, Type (0, 1), BuildingBlock: XUDNAN_clean_linker_2, # of connection points: 2
#     Edge 76, Type (0, 1), BuildingBlock: XUDNAN_clean_linker_2, # of connection points: 2
#     Edge 77, Type (0, 1), BuildingBlock: XUDNAN_clean_linker_2, # of connection points: 2
#     Edge 78, Type (0, 1), BuildingBlock: XUDNAN_clean_linker_2, # of connection points: 2
#     Edge 79, Type (0, 1), BuildingBlock: XUDNAN_clean_linker_2, # of connection points: 2
#     Edge 80, Type (0, 1), BuildingBlock: XUDNAN_clean_linker_2, # of connection points: 2
#     Edge 81, Type (0, 1), BuildingBlock: XUDNAN_clean_linker_2, # of connection points: 2
#     Edge 82, Type (0, 1), BuildingBlock: XUDNAN_clean_linker_2, # of connection points: 2
#     Edge 83, Type (0, 1), BuildingBlock: XUDNAN_clean_linker_2, # of connection points: 2
#     Edge 84, Type (0, 1), BuildingBlock: XUDNAN_clean_linker_2, # of connection points: 2
#     Edge 85, Type (0, 1), BuildingBlock: XUDNAN_clean_linker_2, # of connection points: 2
#     Edge 86, Type (0, 1), BuildingBlock: XUDNAN_clean_linker_2, # of connection points: 2
#     Edge 87, Type (0, 1), BuildingBlock: XUDNAN_clean_linker_2, # of connection points: 2
#     Edge 88, Type (0, 1), BuildingBlock: XUDNAN_clean_linker_2, # of connection points: 2
#     Edge 89, Type (0, 1), BuildingBlock: XUDNAN_clean_linker_2, # of connection points: 2
#     Edge 90, Type (0, 1), BuildingBlock: XUDNAN_clean_linker_2, # of connection points: 2
#     Edge 91, Type (0, 1), BuildingBlock: XUDNAN_clean_linker_2, # of connection points: 2
#     Edge 92, Type (0, 1), BuildingBlock: XUDNAN_clean_linker_2, # of connection points: 2
#     Edge 93, Type (0, 1), BuildingBlock: XUDNAN_clean_linker_2, # of connection points: 2
#     Edge 94, Type (0, 1), BuildingBlock: XUDNAN_clean_linker_2, # of connection points: 2
#     Edge 95, Type (0, 1), BuildingBlock: XUDNAN_clean_linker_2, # of connection points: 2
#     Edge 96, Type (0, 1), BuildingBlock: XUDNAN_clean_linker_2, # of connection points: 2
#     Edge 97, Type (0, 1), BuildingBlock: XUDNAN_clean_linker_2, # of connection points: 2
#     Edge 98, Type (0, 1), BuildingBlock: XUDNAN_clean_linker_2, # of connection points: 2
#     Edge 99, Type (0, 1), BuildingBlock: XUDNAN_clean_linker_2, # of connection points: 2
#     Edge 100, Type (0, 1), BuildingBlock: XUDNAN_clean_linker_2, # of connection points: 2
#     Edge 101, Type (0, 1), BuildingBlock: XUDNAN_clean_linker_2, # of connection points: 2
#     Edge 102, Type (0, 1), BuildingBlock: XUDNAN_clean_linker_2, # of connection points: 2
#     Edge 103, Type (0, 1), BuildingBlock: XUDNAN_clean_linker_2, # of connection points: 2
#     Edge 104, Type (0, 1), BuildingBlock: XUDNAN_clean_linker_2, # of connection points: 2
#     Edge 105, Type (0, 1), BuildingBlock: XUDNAN_clean_linker_2, # of connection points: 2
#     Edge 106, Type (0, 1), BuildingBlock: XUDNAN_clean_linker_2, # of connection points: 2
#     Edge 107, Type (0, 1), BuildingBlock: XUDNAN_clean_linker_2, # of connection points: 2
#     Edge 108, Type (0, 1), BuildingBlock: XUDNAN_clean_linker_2, # of connection points: 2
#     Edge 109, Type (0, 1), BuildingBlock: XUDNAN_clean_linker_2, # of connection points: 2
#     Edge 110, Type (0, 1), BuildingBlock: XUDNAN_clean_linker_2, # of connection points: 2
#     Edge 111, Type (0, 1), BuildingBlock: XUDNAN_clean_linker_2, # of connection points: 2
#     Edge 112, Type (0, 1), BuildingBlock: XUDNAN_clean_linker_2, # of connection points: 2
#     Edge 113, Type (0, 1), BuildingBlock: XUDNAN_clean_linker_2, # of connection points: 2
#     Edge 114, Type (0, 1), BuildingBlock: XUDNAN_clean_linker_2, # of connection points: 2
#     Edge 115, Type (0, 1), BuildingBlock: XUDNAN_clean_linker_2, # of connection points: 2
#     Edge 116, Type (0, 1), BuildingBlock: XUDNAN_clean_linker_2, # of connection points: 2
#     Edge 117, Type (0, 1), BuildingBlock: XUDNAN_clean_linker_2, # of connection points: 2
#     Edge 118, Type (0, 1), BuildingBlock: XUDNAN_clean_linker_2, # of connection points: 2
#     Edge 119, Type (0, 1), BuildingBlock: XUDNAN_clean_linker_2, # of connection points: 2
#     Edge 120, Type (0, 1), BuildingBlock: XUDNAN_clean_linker_2, # of connection points: 2
#     Edge 121, Type (0, 1), BuildingBlock: XUDNAN_clean_linker_2, # of connection points: 2
#     Edge 122, Type (0, 1), BuildingBlock: XUDNAN_clean_linker_2, # of connection points: 2
#     Edge 123, Type (0, 1), BuildingBlock: XUDNAN_clean_linker_2, # of connection points: 2
#     Edge 124, Type (0, 1), BuildingBlock: XUDNAN_clean_linker_2, # of connection points: 2
#     Edge 125, Type (0, 1), BuildingBlock: XUDNAN_clean_linker_2, # of connection points: 2
#     Edge 126, Type (0, 1), BuildingBlock: XUDNAN_clean_linker_2, # of connection points: 2
#     Edge 127, Type (0, 1), BuildingBlock: XUDNAN_clean_linker_2, # of connection points: 2
#     Edge 128, Type (0, 1), BuildingBlock: XUDNAN_clean_linker_2, # of connection points: 2
#     Edge 129, Type (0, 1), BuildingBlock: XUDNAN_clean_linker_2, # of connection points: 2
#     Edge 130, Type (0, 1), BuildingBlock: XUDNAN_clean_linker_2, # of connection points: 2
#     Edge 131, Type (0, 1), BuildingBlock: XUDNAN_clean_linker_2, # of connection points: 2
#     Edge 132, Type (0, 1), BuildingBlock: XUDNAN_clean_linker_2, # of connection points: 2
#     Edge 133, Type (0, 1), BuildingBlock: XUDNAN_clean_linker_2, # of connection points: 2
#     Edge 134, Type (0, 1), BuildingBlock: XUDNAN_clean_linker_2, # of connection points: 2
#     Edge 135, Type (0, 1), BuildingBlock: XUDNAN_clean_linker_2, # of connection points: 2
# Relax obj value: 0.320
# Max RMSD: 0.281
# Mean RMSD: 0.132
data_MOF--net-iac--node1-CEKHIL_clean_sbu_0--node2-FUNLAD_clean_sbu_0--edge1-XUDNAN_clean_linker_2
_symmetry_space_group_name_H-M    P1
_symmetry_Int_Tables_number       1
_symmetry_cell_setting            triclinic
loop_
_symmetry_equiv_pos_as_xyz
'x, y, z'
_cell_length_a     55.223541
_cell_length_b     52.685665
_cell_length_c     58.21583
_cell_angle_alpha  89.871541
_cell_angle_beta   92.148079
_cell_angle_gamma 90.41758
loop_
_atom_site_label
_atom_site_type_symbol
_atom_site_fract_x
_atom_site_fract_y
_atom_site_fract_z
_atom_type_partial_charge
Co0 Co 0.03572 0.23947 0.16078 0.0
O1 O 1.00291 0.23481 0.16949 0.0
O2 O 0.03548 0.22201 0.18993 0.0
C3 C 0.0334 0.28001 0.15009 0.0
O4 O 0.07211 0.24224 0.1578 0.0
Co5 Co 0.04807 0.25152 0.11021 0.0
O6 O 0.08102 0.2589 0.12342 0.0
C7 C 0.03235 0.20012 0.12293 0.0
C8 C 0.01204 0.22358 0.18765 0.0
C9 C 0.08712 0.25192 0.14377 0.0
O10 O 0.03412 0.20614 0.14426 0.0
O11 O 0.03535 0.21601 0.1066 0.0
O12 O 0.03616 0.27424 0.17175 0.0
O13 O 0.02907 0.26132 0.13617 0.0
Co14 Co 0.04332 0.76102 0.39583 0.0
O15 O 0.07918 0.76134 0.39882 0.0
O16 O 0.05812 0.75048 0.36766 0.0
C17 C 0.03681 0.79932 0.4132 0.0
O18 O 0.00755 0.75971 0.38334 0.0
Co19 Co 0.00679 0.76201 0.43476 0.0
O20 O 0.98067 0.76586 0.41068 0.0
C21 C 0.03634 0.71637 0.42851 0.0
C22 C 0.07934 0.75387 0.3775 0.0
C23 C 0.98551 0.76284 0.38966 0.0
O24 O 0.04226 0.72439 0.40832 0.0
O25 O 0.02448 0.73 0.44226 0.0
O26 O 0.0434 0.7986 0.39196 0.0
O27 O 0.03595 0.77758 0.42325 0.0
Co28 Co 0.54851 0.74244 0.64836 0.0
O29 O 0.51609 0.73472 0.65673 0.0
O30 O 0.5475 0.74014 0.68129 0.0
C31 C 0.54 0.77318 0.62296 0.0
O32 O 0.58423 0.75172 0.64598 0.0
Co33 Co 0.56519 0.7343 0.59836 0.0
O34 O 0.5931 0.75559 0.60872 0.0
C35 C 0.55856 0.69055 0.6293 0.0
C36 C 0.52452 0.73532 0.67786 0.0
C37 C 0.59843 0.75869 0.63 0.0
O38 O 0.55516 0.70521 0.64638 0.0
O39 O 0.56145 0.69835 0.60875 0.0
O40 O 0.54066 0.77802 0.64486 0.0
O41 O 0.54127 0.74951 0.61743 0.0
Co42 Co 0.5502 0.26763 0.89599 0.0
O43 O 0.58496 0.26644 0.90339 0.0
O44 O 0.56927 0.2611 0.86859 0.0
C45 C 0.54296 0.30357 0.91723 0.0
O46 O 0.51548 0.2688 0.88051 0.0
Co47 Co 0.51079 0.2637 0.93245 0.0
O48 O 0.48682 0.27012 0.90695 0.0
C49 C 0.54072 0.21903 0.92271 0.0
C50 C 0.58873 0.26232 0.88182 0.0
C51 C 0.49296 0.27047 0.88608 0.0
O52 O 0.54748 0.22953 0.90376 0.0
O53 O 0.52832 0.23088 0.93735 0.0
O54 O 0.55138 0.30547 0.89669 0.0
O55 O 0.54055 0.2806 0.92437 0.0
Co56 Co 0.15263 0.99271 0.26201 0.0
O57 O 0.15413 0.95588 0.26468 0.0
O58 O 0.18472 0.98154 0.2569 0.0
C59 C 0.13151 0.00068 0.29363 0.0
O60 O 0.16049 0.03007 0.25884 0.0
Co61 Co 0.10707 0.02576 0.25517 0.0
O62 O 0.12853 0.05537 0.26238 0.0
C63 C 0.12528 0.99688 0.21589 0.0
C64 C 0.177 0.95863 0.26029 0.0
C65 C 0.15121 0.05215 0.26086 0.0
O66 O 0.14379 0.9896 0.22818 0.0
O67 O 0.10827 0.01044 0.22364 0.0
O68 O 0.15464 0.9962 0.29544 0.0
O69 O 0.12159 0.99821 0.27327 0.0
Co70 Co 0.27835 0.90799 0.55045 0.0
O71 O 0.24335 0.90394 0.55101 0.0
O72 O 0.26315 0.94025 0.55583 0.0
C73 C 0.284 0.88494 0.51858 0.0
O74 O 0.31361 0.92067 0.54926 0.0
Co75 Co 0.3145 0.863 0.55457 0.0
O76 O 0.33878 0.8879 0.54429 0.0
C77 C 0.28915 0.88025 0.59549 0.0
C78 C 0.24247 0.92833 0.55415 0.0
C79 C 0.33463 0.91162 0.54482 0.0
O80 O 0.2811 0.90009 0.58469 0.0
O81 O 0.30108 0.86275 0.58587 0.0
O82 O 0.27669 0.90829 0.51677 0.0
O83 O 0.2854 0.87584 0.53916 0.0
Co84 Co 0.41256 0.03012 0.75415 0.0
O85 O 0.41899 0.06556 0.74794 0.0
O86 O 0.3827 0.04741 0.74572 0.0
C87 C 0.43511 0.02785 0.78714 0.0
O88 O 0.39797 0.99506 0.76054 0.0
Co89 Co 0.45264 0.98901 0.75772 0.0
O90 O 0.42722 0.96759 0.77131 0.0
C91 C 0.43694 0.00961 0.71221 0.0
C92 C 0.39578 0.06789 0.74414 0.0
C93 C 0.40494 0.97352 0.76892 0.0
O94 O 0.41911 0.02157 0.72087 0.0
O95 O 0.45273 0.99721 0.72422 0.0
O96 O 0.41318 0.03663 0.78732 0.0
O97 O 0.44311 0.02252 0.76724 0.0
Co98 Co 0.31367 0.14474 0.02925 0.0
O99 O 0.34825 0.14164 0.02708 0.0
O100 O 0.32317 0.11136 0.03856 0.0
C101 C 0.30517 0.16309 0.99536 0.0
O102 O 0.27759 0.13963 0.03234 0.0
Co103 Co 0.28759 0.19652 0.03118 0.0
O104 O 0.25812 0.17584 0.02337 0.0
C105 C 0.32153 0.18066 0.06816 0.0
C106 C 0.34508 0.11846 0.03423 0.0
C107 C 0.25843 0.15185 0.026 0.0
O108 O 0.31863 0.15757 0.06156 0.0
O109 O 0.31258 0.19953 0.05699 0.0
O110 O 0.30893 0.13878 0.99649 0.0
O111 O 0.30978 0.17572 0.01409 0.0
Co112 Co 0.78676 0.40635 0.04938 0.0
O113 O 0.75292 0.39719 0.05165 0.0
O114 O 0.76732 0.43638 0.05435 0.0
C115 C 0.79401 0.38257 0.01822 0.0
O116 O 0.82018 0.4236 0.04684 0.0
Co117 Co 0.82804 0.36616 0.05371 0.0
O118 O 0.84851 0.39379 0.04199 0.0
C119 C 0.80112 0.38073 0.09448 0.0
C120 C 0.74869 0.42116 0.05452 0.0
C121 C 0.84196 0.41691 0.04223 0.0
O122 O 0.79152 0.39985 0.08367 0.0
O123 O 0.81453 0.36445 0.08493 0.0
O124 O 0.78401 0.40474 0.01559 0.0
O125 O 0.79726 0.37505 0.03912 0.0
Co126 Co 0.90041 0.51974 0.2603 0.0
O127 O 0.89763 0.55629 0.25759 0.0
O128 O 0.86744 0.52901 0.25178 0.0
C129 C 0.92177 0.52047 0.294 0.0
O130 O 0.89485 0.48125 0.26305 0.0
Co131 Co 0.949 0.49086 0.26286 0.0
O132 O 0.92932 0.46373 0.27674 0.0
C133 C 0.93076 0.51196 0.21832 0.0
C134 C 0.87469 0.55251 0.25302 0.0
C135 C 0.90651 0.46272 0.27273 0.0
O136 O 0.91026 0.51776 0.22695 0.0
O137 O 0.94845 0.50238 0.23014 0.0
O138 O 0.89829 0.52214 0.29378 0.0
O139 O 0.93149 0.51963 0.27425 0.0
Co140 Co 0.83055 0.59677 0.49596 0.0
O141 O 0.85553 0.57212 0.4973 0.0
O142 O 0.82682 0.57593 0.52292 0.0
C143 C 0.82002 0.59249 0.45869 0.0
O144 O 0.80115 0.6189 0.49923 0.0
Co145 Co 0.83458 0.64505 0.46579 0.0
O146 O 0.79904 0.64698 0.47015 0.0
C147 C 0.86082 0.64325 0.51064 0.0
C148 C 0.84576 0.5641 0.51594 0.0
C149 C 0.78951 0.63527 0.48677 0.0
O150 O 0.85119 0.62144 0.51459 0.0
O151 O 0.85783 0.65502 0.4915 0.0
O152 O 0.81195 0.57636 0.47357 0.0
O153 O 0.83643 0.60822 0.46646 0.0
Co154 Co 0.66902 0.49567 0.76039 0.0
O155 O 0.67476 0.46066 0.76859 0.0
O156 O 0.70168 0.48655 0.75338 0.0
C157 C 0.65042 0.50676 0.79278 0.0
O158 O 0.67069 0.53275 0.75068 0.0
Co159 Co 0.61703 0.51727 0.75402 0.0
O160 O 0.63386 0.55049 0.75111 0.0
C161 C 0.63627 0.48434 0.7183 0.0
C162 C 0.69645 0.46413 0.76119 0.0
C163 C 0.65665 0.55206 0.74858 0.0
O164 O 0.65742 0.48537 0.72837 0.0
O165 O 0.61737 0.49374 0.72699 0.0
O166 O 0.67394 0.5058 0.79265 0.0
O167 O 0.63917 0.49879 0.77433 0.0
Co168 Co 0.98025 0.82488 0.87571 0.0
O169 O 0.01082 0.83957 0.88538 0.0
O170 O 0.00575 0.81068 0.85797 0.0
C171 C 0.96319 0.86371 0.87524 0.0
O172 O 0.95191 0.80576 0.86049 0.0
Co173 Co 0.93469 0.82917 0.90375 0.0
O174 O 0.91705 0.81264 0.87786 0.0
C175 C 0.97327 0.79338 0.91816 0.0
C176 C 0.0203 0.82569 0.86977 0.0
C177 C 0.92896 0.80249 0.86208 0.0
O178 O 0.98445 0.79787 0.89964 0.0
O179 O 0.95389 0.80473 0.9236 0.0
O180 O 0.97334 0.85483 0.85715 0.0
O181 O 0.96207 0.84788 0.89222 0.0
Co182 Co 0.03081 0.25959 0.66258 0.0
O183 O 0.99518 0.25801 0.66312 0.0
O184 O 0.01949 0.25149 0.69315 0.0
C185 C 0.03226 0.29656 0.64163 0.0
O186 O 0.06809 0.26116 0.6705 0.0
Co187 Co 0.06007 0.26074 0.61777 0.0
O188 O 0.08747 0.27128 0.63842 0.0
C189 C 0.03628 0.21292 0.63222 0.0
C190 C 0.99732 0.25346 0.68503 0.0
C191 C 0.08751 0.26789 0.6601 0.0
O192 O 0.03212 0.22203 0.65248 0.0
O193 O 0.04498 0.22641 0.61616 0.0
O194 O 0.02948 0.2975 0.66372 0.0
O195 O 0.03291 0.27405 0.63342 0.0
Co196 Co 0.48742 0.31372 0.37238 0.0
O197 O 0.52089 0.30563 0.37104 0.0
O198 O 0.49245 0.29306 0.34551 0.0
C199 C 0.49428 0.35498 0.3794 0.0
O200 O 0.45109 0.31846 0.36908 0.0
Co201 Co 0.46823 0.33592 0.41818 0.0
O202 O 0.4368 0.33696 0.40069 0.0
C203 C 0.47912 0.28138 0.41402 0.0
C204 C 0.51527 0.29396 0.35201 0.0
C205 C 0.4336 0.32682 0.38092 0.0
O206 O 0.48159 0.28331 0.39222 0.0
O207 O 0.47671 0.3003 0.4275 0.0
O208 O 0.49386 0.34695 0.35834 0.0
O209 O 0.49205 0.3379 0.39501 0.0
Co210 Co 0.52124 0.76661 0.16076 0.0
O211 O 0.48535 0.76669 0.15996 0.0
O212 O 0.50822 0.75321 0.18897 0.0
C213 C 0.52509 0.80744 0.14706 0.0
O214 O 0.55749 0.76469 0.17125 0.0
Co215 Co 0.55577 0.77516 0.12136 0.0
O216 O 0.58288 0.77784 0.14457 0.0
C217 C 0.52991 0.72553 0.12511 0.0
C218 C 0.48653 0.75826 0.18101 0.0
C219 C 0.57908 0.77045 0.16493 0.0
O220 O 0.5221 0.73142 0.14518 0.0
O221 O 0.54169 0.74117 0.1128 0.0
O222 O 0.5211 0.80298 0.16857 0.0
O223 O 0.52617 0.78744 0.13439 0.0
Co224 Co 0.89674 0.99867 0.80947 0.0
O225 O 0.89716 0.03521 0.81227 0.0
O226 O 0.86762 0.01265 0.79537 0.0
C227 C 0.90869 0.99244 0.84656 0.0
O228 O 0.88881 0.96151 0.80315 0.0
Co229 Co 0.94071 0.96427 0.81787 0.0
O230 O 0.91828 0.9348 0.81446 0.0
C231 C 0.93356 0.99072 0.77298 0.0
C232 C 0.87593 0.03473 0.8019 0.0
C233 C 0.8972 0.93898 0.80585 0.0
O234 O 0.9136 1.0003 0.77954 0.0
O235 O 0.9475 0.97729 0.78616 0.0
O236 O 0.88599 0.99586 0.84082 0.0
O237 O 0.92356 0.99306 0.82993 0.0
Co238 Co 0.78527 0.12082 0.49592 0.0
O239 O 0.81988 0.11672 0.49358 0.0
O240 O 0.79493 0.08659 0.50475 0.0
C241 C 0.77926 0.14121 0.46176 0.0
O242 O 0.74842 0.11804 0.50017 0.0
Co243 Co 0.76404 0.17601 0.49656 0.0
O244 O 0.73285 0.15747 0.49839 0.0
C245 C 0.78896 0.15499 0.53797 0.0
C246 C 0.81702 0.09356 0.5006 0.0
C247 C 0.73041 0.13355 0.50096 0.0
O248 O 0.7897 0.1327 0.5289 0.0
O249 O 0.78241 0.17482 0.52668 0.0
O250 O 0.7806 0.11658 0.46216 0.0
O251 O 0.78369 0.15214 0.48113 0.0
Co252 Co 0.67268 0.0142 0.3133 0.0
O253 O 0.67715 0.97802 0.31587 0.0
O254 O 0.70637 0.00576 0.30931 0.0
C255 C 0.64896 0.01854 0.3439 0.0
O256 O 0.67491 0.05278 0.30969 0.0
Co257 Co 0.62022 0.03511 0.30382 0.0
O258 O 0.63715 0.06847 0.30539 0.0
C259 C 0.64642 0.01138 0.26665 0.0
C260 C 0.69981 0.98218 0.31195 0.0
C261 C 0.66013 0.07145 0.30663 0.0
O262 O 0.66614 0.01132 0.27912 0.0
O263 O 0.62571 0.01687 0.27436 0.0
O264 O 0.67237 0.01736 0.34708 0.0
O265 O 0.641 0.01447 0.32321 0.0
Co266 Co 0.75222 0.85782 -0.00105 0.0
O267 O 0.7218 0.85857 0.01378 0.0
O268 O 0.74992 0.88886 0.01594 0.0
C269 C 0.7361 0.84532 0.96492 0.0
O270 O 0.78504 0.86469 0.98596 0.0
Co271 Co 0.77383 0.80953 0.97774 0.0
O272 O 0.79981 0.83198 0.96652 0.0
C273 C 0.78069 0.81979 0.02778 0.0
C274 C 0.72826 0.88115 0.02067 0.0
C275 C 0.80157 0.85458 0.97412 0.0
O276 O 0.76863 0.84051 0.02582 0.0
O277 O 0.7836 0.80447 0.01106 0.0
O278 O 0.73597 0.86911 0.97065 0.0
O279 O 0.74483 0.82968 0.98018 0.0
Co280 Co 0.29536 0.62032 0.99496 0.0
O281 O 0.32951 0.62542 0.99163 0.0
O282 O 0.31337 0.59013 0.00495 0.0
C283 C 0.28572 0.63593 0.95957 0.0
O284 O 0.26055 0.6083 0.0001 0.0
Co285 Co 0.26024 0.66628 0.99213 0.0
O286 O 0.23459 0.63989 0.99125 0.0
C287 C 0.28841 0.65523 0.03544 0.0
C288 C 0.33265 0.60237 -0.00122 0.0
C289 C 0.23884 0.61707 0.99737 0.0
O290 O 0.29709 0.63483 0.02692 0.0
O291 O 0.27523 0.67089 0.02376 0.0
O292 O 0.29196 0.61236 0.96223 0.0
O293 O 0.28658 0.64943 0.978 0.0
Co294 Co 0.16924 0.51738 0.82261 0.0
O295 O 0.16349 0.48122 0.82437 0.0
O296 O 0.19511 0.49897 0.80842 0.0
C297 C 0.15993 0.52473 0.85964 0.0
O298 O 0.1825 0.55336 0.8179 0.0
Co299 Co 0.13026 0.55825 0.8323 0.0
O300 O 0.15663 0.58341 0.82867 0.0
C301 C 0.12817 0.5286 0.78881 0.0
C302 C 0.1839 0.47833 0.81432 0.0
C303 C 0.1769 0.57682 0.8209 0.0
O304 O 0.14968 0.51968 0.79252 0.0
O305 O 0.11703 0.54167 0.80359 0.0
O306 O 0.1815 0.51695 0.85499 0.0
O307 O 0.14496 0.52692 0.84238 0.0
Co308 Co 0.26461 0.41489 0.48798 0.0
O309 O 0.23862 0.42616 0.50598 0.0
O310 O 0.26977 0.45011 0.49581 0.0
C311 C 0.24018 0.39588 0.46151 0.0
O312 O 0.29463 0.4102 0.46975 0.0
Co313 Co 0.27461 0.35825 0.47867 0.0
O314 O 0.3022 0.3699 0.46042 0.0
C315 C 0.2859 0.38091 0.52448 0.0
C316 C 0.24929 0.44819 0.50601 0.0
C317 C 0.30785 0.39336 0.46051 0.0
O318 O 0.28273 0.40337 0.51643 0.0
O319 O 0.28118 0.3607 0.51289 0.0
O320 O 0.24473 0.42003 0.46012 0.0
O321 O 0.24985 0.38413 0.47902 0.0
Co322 Co 0.40457 0.50762 0.31599 0.0
O323 O 0.41348 0.5429 0.31386 0.0
O324 O 0.37643 0.52753 0.30727 0.0
C325 C 0.42568 0.50281 0.34993 0.0
O326 O 0.38723 0.47346 0.31742 0.0
Co327 Co 0.44027 0.46362 0.31834 0.0
O328 O 0.41232 0.44075 0.32315 0.0
C329 C 0.43027 0.48996 0.27405 0.0
C330 C 0.39072 0.54717 0.30911 0.0
C331 C 0.39106 0.44966 0.32054 0.0
O332 O 0.41251 0.50193 0.28275 0.0
O333 O 0.44459 0.4757 0.28601 0.0
O334 O 0.4036 0.5112 0.34945 0.0
O335 O 0.43411 0.49729 0.33016 0.0
C336 C 0.99856 0.00921 0.99343 0.0
N337 N 0.99 0.96011 0.04766 0.0
C338 C 0.96778 0.97105 0.04674 0.0
C339 C 0.94721 0.95629 0.04194 0.0
C340 C 0.94959 0.92998 0.03875 0.0
C341 C 0.97225 0.91888 0.04393 0.0
C342 C 0.99246 0.93446 0.04812 0.0
Zn343 Zn 0.01775 0.98139 0.0359 0.0
C344 C 0.03857 0.95429 0.9954 0.0
N345 N 0.07223 0.02407 0.00417 0.0
C346 C 0.06904 0.04931 0.00015 0.0
C347 C 0.09414 0.01296 0.00195 0.0
C348 C 0.1142 0.0275 0.99637 0.0
C349 C 0.11175 0.05379 0.99315 0.0
C350 C 0.08874 0.06466 0.99467 0.0
Zn351 Zn 0.04528 0.00259 0.01704 0.0
O352 O 0.99287 0.99717 0.01133 0.0
C353 C 0.02191 0.0315 0.05488 0.0
O354 O 0.02062 0.01508 0.99076 0.0
H355 H 0.09629 0.99293 0.00551 0.0
H356 H 0.96627 0.99151 0.04648 0.0
H357 H 0.05142 0.05772 0.00203 0.0
O358 O 0.01116 0.01078 0.05929 0.0
O359 O 0.03604 0.03266 0.0382 0.0
H360 H 0.01033 0.92618 0.04891 0.0
O361 O 0.06974 0.98985 0.04392 0.0
O362 O 0.04262 0.96557 0.06 0.0
O363 O 0.0535 0.97267 0.99507 0.0
O364 O 0.02392 0.95285 0.01166 0.0
C365 C 0.06406 0.97438 0.05968 0.0
H366 H 0.93026 0.96592 0.03826 0.0
H367 H 0.97482 0.89859 0.04266 0.0
H368 H 0.1317 0.01842 0.99577 0.0
H369 H 0.08613 0.08486 0.9922 0.0
C370 C 0.33207 0.76254 0.26564 0.0
N371 N 0.26837 0.7306 0.23712 0.0
C372 C 0.27398 0.74414 0.21812 0.0
C373 C 0.27368 0.73254 0.19668 0.0
C374 C 0.26764 0.7067 0.19474 0.0
C375 C 0.26036 0.69356 0.21437 0.0
C376 C 0.2608 0.706 0.23557 0.0
Zn377 Zn 0.27874 0.74613 0.26786 0.0
C378 C 0.30266 0.70803 0.29891 0.0
N379 N 0.30372 0.77856 0.33117 0.0
C380 C 0.31435 0.80194 0.33254 0.0
C381 C 0.29828 0.76533 0.35041 0.0
C382 C 0.30319 0.77562 0.37207 0.0
C383 C 0.31347 0.79996 0.37403 0.0
C384 C 0.31923 0.81318 0.35398 0.0
Zn385 Zn 0.29261 0.76315 0.30045 0.0
O386 O 0.31418 0.75402 0.25349 0.0
C387 C 0.2697 0.80158 0.2697 0.0
O388 O 0.32849 0.76843 0.28651 0.0
H389 H 0.2894 0.74701 0.34897 0.0
H390 H 0.28047 0.76348 0.21978 0.0
H391 H 0.31845 0.81215 0.31701 0.0
O392 O 0.26515 0.78231 0.25715 0.0
O393 O 0.28181 0.79908 0.28849 0.0
H394 H 0.25658 0.69557 0.25095 0.0
O395 O 0.25625 0.75744 0.31402 0.0
O396 O 0.24377 0.73838 0.28231 0.0
O397 O 0.30401 0.72723 0.312 0.0
O398 O 0.29236 0.71015 0.27913 0.0
C399 C 0.23922 0.74641 0.30238 0.0
H400 H 0.27977 0.74332 0.18209 0.0
H401 H 0.25532 0.67367 0.21351 0.0
H402 H 0.29808 0.76504 0.38714 0.0
H403 H 0.32719 0.83202 0.35489 0.0
C404 C 0.51519 0.02616 0.56588 0.0
N405 N 0.55621 0.97528 0.52895 0.0
C406 C 0.57215 0.97249 0.54711 0.0
C407 C 0.58136 0.9486 0.55257 0.0
C408 C 0.57362 0.92748 0.53946 0.0
C409 C 0.55867 0.93139 0.51976 0.0
C410 C 0.5502 0.95561 0.51476 0.0
Zn411 Zn 0.53919 0.00843 0.52338 0.0
C412 C 0.4864 0.00115 0.51137 0.0
N413 N 0.50301 0.07746 0.51152 0.0
C414 C 0.50449 0.09803 0.52557 0.0
C415 C 0.49012 0.07801 0.49119 0.0
C416 C 0.47896 0.10015 0.4837 0.0
C417 C 0.48088 0.12207 0.4973 0.0
C418 C 0.49341 0.12074 0.51876 0.0
Zn419 Zn 0.52058 0.04477 0.51855 0.0
O420 O 0.52935 0.00961 0.55806 0.0
C421 C 0.57273 0.05307 0.5306 0.0
O422 O 0.5089 0.0449 0.55326 0.0
H423 H 0.48915 0.06143 0.48029 0.0
H424 H 0.57681 0.98855 0.55798 0.0
H425 H 0.51478 0.09701 0.54172 0.0
O426 O 0.57262 0.02893 0.53024 0.0
O427 O 0.5528 0.06479 0.52769 0.0
H428 H 0.53774 0.95844 0.50022 0.0
O429 O 0.53247 0.0441 0.48371 0.0
O430 O 0.54888 0.0068 0.48908 0.0
O431 O 0.4884 0.02502 0.5096 0.0
O432 O 0.50525 0.9883 0.5165 0.0
C433 C 0.54454 0.02567 0.47613 0.0
H434 H 0.59319 0.94644 0.5677 0.0
H435 H 0.55196 0.9157 0.50928 0.0
H436 H 0.47006 0.10033 0.46681 0.0
H437 H 0.49518 0.13718 0.52983 0.0
C438 C 0.31202 0.23077 0.75249 0.0
N439 N 0.27271 0.24864 0.80957 0.0
C440 C 0.25996 0.22642 0.80885 0.0
C441 C 0.25146 0.21586 0.82912 0.0
C442 C 0.25587 0.22868 0.84998 0.0
C443 C 0.26885 0.25164 0.85004 0.0
C444 C 0.27725 0.26121 0.82963 0.0
Zn445 Zn 0.28584 0.26529 0.78134 0.0
C446 C 0.33916 0.28348 0.79133 0.0
N447 N 0.31435 0.30521 0.72515 0.0
C448 C 0.31418 0.291 0.70568 0.0
C449 C 0.31978 0.33046 0.72466 0.0
C450 C 0.32336 0.34269 0.70369 0.0
C451 C 0.32177 0.32858 0.68322 0.0
C452 C 0.31851 0.3022 0.68464 0.0
Zn453 Zn 0.30183 0.28805 0.75388 0.0
O454 O 0.29825 0.22987 0.76944 0.0
C455 C 0.24922 0.2705 0.74278 0.0
O456 O 0.31612 0.25213 0.74312 0.0
H457 H 0.32002 0.34145 0.74033 0.0
H458 H 0.25661 0.21682 0.79262 0.0
H459 H 0.30935 0.27114 0.70606 0.0
O460 O 0.25072 0.26022 0.76263 0.0
O461 O 0.26796 0.28166 0.73546 0.0
H462 H 0.28769 0.27865 0.82985 0.0
O463 O 0.28739 0.32354 0.76556 0.0
O464 O 0.27287 0.30061 0.7932 0.0
O465 O 0.33543 0.29445 0.77203 0.0
O466 O 0.32177 0.27069 0.79968 0.0
C467 C 0.275 0.32204 0.78347 0.0
H468 H 0.24177 0.19791 0.82857 0.0
H469 H 0.27327 0.26168 0.86589 0.0
H470 H 0.32585 0.36308 0.70344 0.0
H471 H 0.31791 0.29038 0.66942 0.0
C472 C 0.07466 0.99 0.53788 0.0
N473 N 0.03966 0.02907 0.4831 0.0
C474 C 0.06175 0.0402 0.48054 0.0
C475 C 0.07021 0.04499 0.45853 0.0
C476 C 0.05566 0.03853 0.43905 0.0
C477 C 0.03241 0.02855 0.44232 0.0
C478 C 0.02483 0.02381 0.4645 0.0
Zn479 Zn 0.03029 0.01264 0.51366 0.0
C480 C 0.02071 0.95552 0.50459 0.0
N481 N 0.01203 0.97306 0.57454 0.0
C482 C 0.0252 0.9795 0.5939 0.0
C483 C 0.98989 0.96172 0.57576 0.0
C484 C 0.97905 0.95916 0.59694 0.0
C485 C 0.99122 0.96821 0.61694 0.0
C486 C 0.0151 0.97716 0.61542 0.0
Zn487 Zn 0.02162 0.98949 0.54436 0.0
O488 O 0.06751 0.00453 0.52156 0.0
C489 C 0.03075 0.04605 0.5544 0.0
O490 O 0.0591 0.98001 0.55078 0.0
H491 H 0.97972 0.95675 0.56016 0.0
H492 H 0.07342 0.04405 0.49548 0.0
H493 H 0.04262 0.98878 0.59255 0.0
O494 O 0.03369 0.04807 0.5328 0.0
O495 O 0.0264 0.02424 0.56268 0.0
H496 H 0.00767 0.0143 0.46671 0.0
O497 O 0.98439 0.99908 0.53741 0.0
O498 O 0.99261 0.02117 0.50675 0.0
O499 O 0.01659 0.95525 0.52594 0.0
O500 O 0.02679 0.97641 0.49524 0.0
C501 C 0.97713 0.01277 0.52056 0.0
H502 H 0.08821 0.05287 0.45676 0.0
H503 H 0.02072 0.02287 0.42784 0.0
H504 H 0.96073 0.95174 0.59746 0.0
H505 H 0.02508 0.98448 0.63039 0.0
C506 C 0.27396 0.80219 0.74691 0.0
N507 N 0.33209 0.759 0.77366 0.0
C508 C 0.33655 0.75269 0.75159 0.0
C509 C 0.35997 0.74622 0.74556 0.0
C510 C 0.37884 0.74556 0.76255 0.0
C511 C 0.37328 0.75107 0.78531 0.0
C512 C 0.34997 0.75836 0.79037 0.0
Zn513 Zn 0.2991 0.77179 0.78287 0.0
C514 C 0.30502 0.82456 0.80237 0.0
N515 N 0.23301 0.80027 0.80639 0.0
C516 C 0.21294 0.79751 0.79235 0.0
C517 C 0.23174 0.81043 0.82775 0.0
C518 C 0.20947 0.81778 0.83597 0.0
C519 C 0.18835 0.81477 0.822 0.0
C520 C 0.19032 0.80476 0.79981 0.0
Zn521 Zn 0.26524 0.78731 0.79597 0.0
O522 O 0.29279 0.78888 0.75063 0.0
C523 C 0.25984 0.7342 0.77705 0.0
O524 O 0.25868 0.80415 0.76263 0.0
H525 H 0.24796 0.81234 0.83861 0.0
H526 H 0.32214 0.7534 0.73852 0.0
H527 H 0.21443 0.78932 0.77544 0.0
O528 O 0.28189 0.73744 0.77205 0.0
O529 O 0.24845 0.7525 0.78578 0.0
H530 H 0.34642 0.76404 0.80773 0.0
O531 O 0.27176 0.76983 0.82909 0.0
O532 O 0.30451 0.75442 0.81473 0.0
O533 O 0.28262 0.82196 0.80621 0.0
O534 O 0.31629 0.80602 0.79396 0.0
C535 C 0.28998 0.7553 0.83098 0.0
H536 H 0.36324 0.74266 0.72766 0.0
H537 H 0.38686 0.75028 0.79918 0.0
H538 H 0.20877 0.82507 0.8533 0.0
H539 H 0.17456 0.80245 0.78835 0.0
C540 C 0.53511 0.96655 0.05551 0.0
N541 N 0.56372 0.03929 0.0701 0.0
C542 C 0.55165 0.03725 0.08994 0.0
C543 C 0.56403 0.04027 0.11104 0.0
C544 C 0.58925 0.04444 0.11171 0.0
C545 C 0.60059 0.04935 0.09093 0.0
C546 C 0.58729 0.047 0.07019 0.0
Zn547 Zn 0.54923 0.02174 0.04163 0.0
C548 C 0.5884 0.99116 0.02044 0.0
N549 N 0.52193 0.979 0.98279 0.0
C550 C 0.49812 0.98269 0.97664 0.0
C551 C 0.53735 0.9699 0.96706 0.0
C552 C 0.52987 0.96745 0.94397 0.0
C553 C 0.50647 0.9751 0.93668 0.0
C554 C 0.4901 0.98125 0.95366 0.0
Zn555 Zn 0.53624 0.99635 0.01281 0.0
O556 O 0.54238 0.98838 0.06242 0.0
C557 C 0.49747 0.02663 0.03585 0.0
O558 O 0.53035 0.96331 0.03409 0.0
H559 H 0.55606 0.96624 0.97173 0.0
H560 H 0.53292 0.03107 0.08953 0.0
H561 H 0.48537 0.98884 0.98896 0.0
O562 O 0.51486 0.03595 0.04794 0.0
O563 O 0.50162 0.01012 0.02071 0.0
H564 H 0.59648 0.04885 0.05419 0.0
O565 O 0.54267 0.03021 0.99186 0.0
O566 O 0.55549 0.05419 0.02063 0.0
O567 O 0.57142 0.98279 0.00721 0.0
O568 O 0.58382 0.00762 0.03541 0.0
C569 C 0.55034 0.05172 -0.00074 0.0
H570 H 0.55422 0.03747 0.12661 0.0
H571 H 0.61991 0.05277 0.09042 0.0
H572 H 0.54291 0.96124 0.93179 0.0
H573 H 0.47175 0.98704 0.94931 0.0
C574 C 0.24261 0.21224 0.27594 0.0
N575 N 0.30348 0.24681 0.24927 0.0
C576 C 0.31501 0.22437 0.2531 0.0
C577 C 0.33237 0.21611 0.23804 0.0
C578 C 0.33785 0.23119 0.21899 0.0
C579 C 0.32688 0.25507 0.21648 0.0
C580 C 0.30961 0.26249 0.23185 0.0
Zn581 Zn 0.27502 0.2564 0.26833 0.0
C582 C 0.23228 0.27265 0.24024 0.0
N583 N 0.21594 0.2758 0.30896 0.0
C584 C 0.20821 0.25989 0.32562 0.0
C585 C 0.20625 0.29924 0.30591 0.0
C586 C 0.19053 0.30881 0.32182 0.0
C587 C 0.18448 0.29393 0.3409 0.0
C588 C 0.19194 0.26845 0.34158 0.0
Zn589 Zn 0.24451 0.26633 0.28998 0.0
O590 O 0.2617 0.21894 0.266 0.0
C591 C 0.28732 0.25167 0.31818 0.0
O592 O 0.23151 0.22837 0.28774 0.0
H593 H 0.21217 0.31132 0.29214 0.0
H594 H 0.30995 0.21232 0.26723 0.0
H595 H 0.21587 0.24114 0.32751 0.0
O596 O 0.29525 0.24773 0.29832 0.0
O597 O 0.26544 0.25837 0.32008 0.0
H598 H 0.3002 0.28024 0.22917 0.0
O599 O 0.2581 0.30439 0.2922 0.0
O600 O 0.28872 0.29382 0.27141 0.0
O601 O 0.22427 0.27479 0.26027 0.0
O602 O 0.25401 0.26559 0.23791 0.0
C603 C 0.27799 0.31023 0.2832 0.0
H604 H 0.34046 0.1976 0.24056 0.0
H605 H 0.33019 0.2671 0.2018 0.0
H606 H 0.1854 0.32854 0.32029 0.0
H607 H 0.18713 0.25597 0.35552 0.0
C608 C 0.58484 0.49403 0.048 0.0
N609 N 0.56277 0.52823 0.98534 0.0
C610 C 0.58023 0.51292 0.97718 0.0
C611 C 0.58947 0.51716 0.95555 0.0
C612 C 0.58063 0.53729 0.94191 0.0
C613 C 0.56319 0.5534 0.95103 0.0
C614 C 0.55448 0.54852 0.97293 0.0
Zn615 Zn 0.54728 0.51663 0.01523 0.0
C616 C 0.5335 0.46076 0.01075 0.0
N617 N 0.51541 0.48985 0.07668 0.0
C618 C 0.5267 0.49635 0.09702 0.0
C619 C 0.49257 0.47991 0.07595 0.0
C620 C 0.47966 0.47763 0.09609 0.0
C621 C 0.49044 0.48545 0.11717 0.0
C622 C 0.51455 0.49417 0.11755 0.0
Zn623 Zn 0.53105 0.50147 0.04695 0.0
O624 O 0.58242 0.50654 0.02935 0.0
C625 C 0.54346 0.55785 0.05059 0.0
O626 O 0.56611 0.48926 0.05942 0.0
H627 H 0.48386 0.47497 0.05961 0.0
H628 H 0.58633 0.4966 0.98701 0.0
H629 H 0.54468 0.50464 0.09722 0.0
O630 O 0.55 0.55408 0.03008 0.0
O631 O 0.53623 0.53896 0.06224 0.0
H632 H 0.54051 0.5604 0.97964 0.0
O633 O 0.49638 0.51363 0.03389 0.0
O634 O 0.51206 0.52653 0.00183 0.0
O635 O 0.52569 0.4644 0.03086 0.0
O636 O 0.54343 0.47925 0.00054 0.0
C637 C 0.49366 0.52378 0.01416 0.0
H638 H 0.60252 0.50392 0.94914 0.0
H639 H 0.55597 0.56924 0.94115 0.0
H640 H 0.46121 0.47051 0.09508 0.0
H641 H 0.52349 0.50066 0.13336 0.0
C642 C 0.77357 0.29092 0.23831 0.0
N643 N 0.82165 0.24128 0.27335 0.0
C644 C 0.82428 0.22774 0.25376 0.0
C645 C 0.84629 0.21611 0.24959 0.0
C646 C 0.86573 0.21859 0.2657 0.0
C647 C 0.86224 0.23197 0.2861 0.0
C648 C 0.83991 0.24319 0.28961 0.0
Zn649 Zn 0.79025 0.25981 0.27837 0.0
C650 C 0.80164 0.31394 0.29508 0.0
N651 N 0.72565 0.29974 0.29074 0.0
C652 C 0.70963 0.29647 0.27261 0.0
C653 C 0.71825 0.3085 0.31127 0.0
C654 C 0.69358 0.31261 0.3145 0.0
C655 C 0.67656 0.30751 0.29643 0.0
C656 C 0.68505 0.30034 0.27506 0.0
Zn657 Zn 0.75857 0.2832 0.28666 0.0
O658 O 0.79 0.2749 0.24369 0.0
C659 C 0.74733 0.22886 0.27072 0.0
O660 O 0.75816 0.29652 0.25297 0.0
H661 H 0.73119 0.31065 0.32556 0.0
H662 H 0.80948 0.22651 0.2411 0.0
H663 H 0.71544 0.28862 0.25664 0.0
O664 O 0.76996 0.22692 0.26815 0.0
O665 O 0.73892 0.24991 0.27714 0.0
H666 H 0.83733 0.25394 0.30513 0.0
O667 O 0.75944 0.26951 0.3209 0.0
O668 O 0.78997 0.24526 0.31248 0.0
O669 O 0.77878 0.31648 0.2961 0.0
O670 O 0.81028 0.29265 0.28929 0.0
C671 C 0.77451 0.25231 0.32673 0.0
H672 H 0.84839 0.20631 0.23346 0.0
H673 H 0.87679 0.23421 0.29895 0.0
H674 H 0.6878 0.31846 0.33124 0.0
H675 H 0.67273 0.29562 0.26077 0.0
C676 C 0.04524 0.45581 0.5515 0.0
N677 N 0.05589 0.52729 0.58218 0.0
C678 C 0.04141 0.51699 0.5982 0.0
C679 C 0.04651 0.52067 0.62145 0.0
C680 C 0.06684 0.53502 0.62866 0.0
C681 C 0.08144 0.54589 0.61191 0.0
C682 C 0.07553 0.54181 0.58853 0.0
Zn683 Zn 0.04873 0.51431 0.54945 0.0
C684 C 0.09361 0.50263 0.52589 0.0
N685 N 0.03261 0.4818 0.48285 0.0
C686 C 0.00958 0.47373 0.47743 0.0
C687 C 0.04812 0.48751 0.46592 0.0
C688 C 0.03999 0.48783 0.44296 0.0
C689 C 0.01532 0.48353 0.43723 0.0
C690 C 1.0004 0.47491 0.45473 0.0
Zn691 Zn 0.04124 0.49491 0.51579 0.0
O692 O 0.04793 0.4758 0.56365 0.0
C693 C 0.99654 0.50696 0.54093 0.0
O694 O 0.04256 0.45802 0.52978 0.0
H695 H 0.06634 0.49392 0.4701 0.0
H696 H 0.02642 0.50473 0.59309 0.0
H697 H 0.99749 0.46841 0.49078 0.0
O698 O 0.0117 0.5176 0.55464 0.0
O699 O 0.00392 0.49645 0.52294 0.0
H700 H 0.08709 0.54944 0.57557 0.0
O701 O 0.04035 0.53154 0.50182 0.0
O702 O 0.04948 0.5525 0.53351 0.0
O703 O 0.079 0.49423 0.51027 0.0
O704 O 0.08569 0.51104 0.54451 0.0
C705 C 0.04517 0.55247 0.51174 0.0
H706 H 0.03511 0.51136 0.63371 0.0
H707 H 0.09732 0.55707 0.61682 0.0
H708 H 0.0527 0.4932 0.43008 0.0
H709 H 0.98133 0.471 0.45147 0.0
C710 C 0.79238 0.71586 0.2661 0.0
N711 N 0.76082 0.74931 0.32179 0.0
C712 C 0.74413 0.73018 0.31997 0.0
C713 C 0.73958 0.71491 0.33885 0.0
C714 C 0.75274 0.71915 0.35949 0.0
C715 C 0.76734 0.74102 0.36176 0.0
C716 C 0.77117 0.75603 0.34245 0.0
Zn717 Zn 0.77545 0.76126 0.29216 0.0
C718 C 0.83004 0.7692 0.29707 0.0
N719 N 0.80511 0.78163 0.22872 0.0
C720 C 0.79951 0.76592 0.21078 0.0
C721 C 0.81924 0.80267 0.22612 0.0
C722 C 0.828 0.80875 0.20453 0.0
C723 C 0.82259 0.79257 0.18594 0.0
C724 C 0.80834 0.77089 0.18924 0.0
Zn725 Zn 0.79105 0.77186 0.25913 0.0
O726 O 0.78149 0.72216 0.28401 0.0
C727 C 0.73659 0.76378 0.25403 0.0
O728 O 0.79864 0.73301 0.25218 0.0
H729 H 0.8234 0.81487 0.24067 0.0
H730 H 0.73637 0.72481 0.30337 0.0
H731 H 0.78783 0.74964 0.21305 0.0
O732 O 0.7402 0.75977 0.27541 0.0
O733 O 0.75486 0.76897 0.24209 0.0
H734 H 0.78429 0.77137 0.34349 0.0
O735 O 0.78417 0.81064 0.2669 0.0
O736 O 0.76923 0.8001 0.30011 0.0
O737 O 0.82642 0.77459 0.27587 0.0
O738 O 0.81181 0.76303 0.30876 0.0
C739 C 0.77469 0.81711 0.28559 0.0
H740 H 0.72841 0.69806 0.33642 0.0
H741 H 0.77775 0.74478 0.37754 0.0
H742 H 0.83864 0.82588 0.20232 0.0
H743 H 0.80329 0.75843 0.17504 0.0
C744 C 0.84124 0.25789 0.76704 0.0
N745 N 0.77257 0.23794 0.73757 0.0
C746 C 0.78254 0.24942 0.71923 0.0
C747 C 0.78162 0.23768 0.69784 0.0
C748 C 0.77004 0.21396 0.69512 0.0
C749 C 0.75803 0.20363 0.71391 0.0
C750 C 0.75962 0.21598 0.73516 0.0
Zn751 Zn 0.78536 0.24976 0.76902 0.0
C752 C 0.80351 0.20414 0.79552 0.0
N753 N 0.81687 0.27075 0.83366 0.0
C754 C 0.8283 0.29367 0.83563 0.0
C755 C 0.81114 0.25704 0.85254 0.0
C756 C 0.81581 0.26688 0.87448 0.0
C757 C 0.82614 0.29118 0.87693 0.0
C758 C 0.83294 0.30441 0.85725 0.0
Zn759 Zn 0.80345 0.25932 0.80232 0.0
O760 O 0.82252 0.25123 0.75493 0.0
C761 C 0.7846 0.30456 0.77504 0.0
O762 O 0.83838 0.26376 0.78795 0.0
H763 H 0.80175 0.23905 0.85057 0.0
H764 H 0.79306 0.26667 0.72157 0.0
H765 H 0.83272 0.30422 0.82038 0.0
O766 O 0.77968 0.28791 0.75986 0.0
O767 O 0.79405 0.29792 0.79435 0.0
H768 H 0.75201 0.20707 0.75005 0.0
O769 O 0.76865 0.25464 0.81682 0.0
O770 O 0.74861 0.24845 0.78418 0.0
O771 O 0.8123 0.22044 0.80966 0.0
O772 O 0.79103 0.21162 0.77812 0.0
C773 C 0.74844 0.25106 0.80604 0.0
H774 H 0.79147 0.24635 0.6841 0.0
H775 H 0.74847 0.18566 0.71251 0.0
H776 H 0.81011 0.25623 0.8893 0.0
H777 H 0.8411 0.32314 0.85856 0.0
C778 C 0.75425 0.70477 0.72727 0.0
N779 N 0.81587 0.73137 0.69215 0.0
C780 C 0.81697 0.70673 0.68536 0.0
C781 C 0.83036 0.69996 0.66648 0.0
C782 C 0.84386 0.71846 0.65486 0.0
C783 C 0.84329 0.74354 0.66309 0.0
C784 C 0.8287 0.74968 0.68128 0.0
Zn785 Zn 0.79468 0.74113 0.71923 0.0
C786 C 0.75319 0.773 0.70478 0.0
N787 N 0.7523 0.7622 0.77518 0.0
C788 C 0.74479 0.74436 0.79031 0.0
C789 C 0.7465 0.78706 0.77744 0.0
C790 C 0.73366 0.79508 0.79616 0.0
C791 C 0.72654 0.77728 0.81263 0.0
C792 C 0.73167 0.75151 0.8092 0.0
Zn793 Zn 0.77305 0.7522 0.74889 0.0
O794 O 0.77258 0.70716 0.71482 0.0
C795 C 0.81494 0.72137 0.76366 0.0
O796 O 0.7504 0.72119 0.7425 0.0
H797 H 0.75253 0.80087 0.76509 0.0
H798 H 0.80719 0.69215 0.69427 0.0
H799 H 0.7495 0.72466 0.78803 0.0
O800 O 0.81871 0.72223 0.74226 0.0
O801 O 0.79566 0.73093 0.77104 0.0
H802 H 0.82766 0.76927 0.68643 0.0
O803 O 0.79566 0.78362 0.75587 0.0
O804 O 0.81561 0.77543 0.72496 0.0
O805 O 0.75085 0.77344 0.72637 0.0
O806 O 0.77051 0.76063 0.69651 0.0
C807 C 0.8124 0.7892 0.74246 0.0
H808 H 0.8294 0.68041 0.66093 0.0
H809 H 0.85375 0.75862 0.65556 0.0
H810 H 0.73055 0.81519 0.79829 0.0
H811 H 0.72631 0.73715 0.82138 0.0
C812 C 0.52335 0.52052 0.49268 0.0
N813 N 0.50492 0.46692 0.54004 0.0
C814 C 0.48392 0.48013 0.53862 0.0
C815 C 0.46293 0.46878 0.52954 0.0
C816 C 0.463 0.44305 0.52281 0.0
C817 C 0.4841 0.42895 0.52829 0.0
C818 C 0.5051 0.44142 0.53658 0.0
Zn819 Zn 0.53481 0.48843 0.53411 0.0
C820 C 0.56131 0.4628 0.49505 0.0
N821 N 0.59549 0.53041 0.5131 0.0
C822 C 0.59006 0.55526 0.50915 0.0
C823 C 0.61868 0.52197 0.51275 0.0
C824 C 0.63754 0.53896 0.50855 0.0
C825 C 0.6323 0.56466 0.50443 0.0
C826 C 0.60825 0.57274 0.50454 0.0
Zn827 Zn 0.56752 0.50712 0.52092 0.0
O828 O 0.51349 0.50681 0.50761 0.0
C829 C 0.54107 0.53286 0.56002 0.0
O830 O 0.54589 0.52504 0.49491 0.0
H831 H 0.62254 0.50217 0.51601 0.0
H832 H 0.48416 0.50043 0.54128 0.0
H833 H 0.57158 0.5617 0.50995 0.0
O834 O 0.52545 0.51514 0.55872 0.0
O835 O 0.55818 0.53343 0.54605 0.0
H836 H 0.52203 0.43122 0.53785 0.0
O837 O 0.58884 0.48827 0.54679 0.0
O838 O 0.55612 0.47005 0.55994 0.0
O839 O 0.57678 0.48071 0.49588 0.0
O840 O 0.5447 0.46219 0.50954 0.0
C841 C 0.5789 0.47407 0.56152 0.0
H842 H 0.44779 0.48118 0.52601 0.0
H843 H 0.48518 0.40886 0.52482 0.0
H844 H 0.65599 0.53212 0.50848 0.0
H845 H 0.60365 0.59249 0.50171 0.0
C846 C 0.01569 0.54227 0.07605 0.0
N847 N 0.05368 0.48262 0.04755 0.0
C848 C 0.06385 0.48144 0.06914 0.0
C849 C 0.06988 0.45821 0.07895 0.0
C850 C 0.06559 0.43582 0.06641 0.0
C851 C 0.05617 0.43763 0.04366 0.0
C852 C 0.05022 0.46143 0.03452 0.0
Zn853 Zn 0.04207 0.51727 0.03733 0.0
C854 C 0.99053 0.51619 0.02002 0.0
N855 N 0.01806 0.59092 0.0202 0.0
C856 C 0.02579 0.61054 0.03382 0.0
C857 C 0.0054 0.59493 6e-05 0.0
C858 C 1.00093 0.61962 0.99244 0.0
C859 C 0.00995 0.64012 0.00557 0.0
C860 C 0.02209 0.63548 0.02668 0.0
Zn861 Zn 0.02882 0.55556 0.02911 0.0
O862 O 0.02625 0.52204 0.07026 0.0
C863 C 0.08077 0.55568 0.04561 0.0
O864 O 0.01544 0.561 0.06231 0.0
H865 H 0.99962 0.579 0.98948 0.0
H866 H 0.06638 0.49851 0.07923 0.0
H867 H 0.03569 0.60685 0.04984 0.0
O868 O 0.07586 0.53246 0.04887 0.0
O869 O 0.06397 0.57036 0.03846 0.0
H870 H 0.04213 0.46293 0.01736 0.0
O871 O 0.0423 0.55046 0.99602 0.0
O872 O 0.05778 0.51319 0.0043 0.0
O873 O 0.99407 0.54008 0.01931 0.0
O874 O 0.00822 0.50179 0.02555 0.0
C875 C 0.05538 0.53185 0.99047 0.0
H876 H 0.07654 0.45785 0.09667 0.0
H877 H 0.05278 0.42083 0.03332 0.0
H878 H 0.99166 0.62265 0.97593 0.0
H879 H 0.02916 0.65097 0.03722 0.0
H880 H 0.03875 0.17729 0.08172 0.0
H881 H 0.01466 0.16261 0.15068 0.0
H882 H 0.00692 0.11769 0.14037 0.0
H883 H 0.99635 0.13578 0.05141 0.0
H884 H 0.01832 0.12583 0.03121 0.0
H885 H 0.02057 0.15697 0.04383 0.0
H886 H 0.06457 0.14747 0.05844 0.0
H887 H 0.06244 0.11635 0.04583 0.0
H888 H 0.07035 0.11977 0.07598 0.0
H889 H 1.00286 0.07382 0.12231 0.0
H890 H 0.00478 0.03484 0.09859 0.0
H891 H 0.03224 0.07966 0.04245 0.0
C892 C 0.03158 0.16476 0.09462 0.0
C893 C 0.02716 0.17344 0.11693 0.0
C894 C 0.01817 0.15631 0.13344 0.0
C895 C 0.01363 0.13081 0.12773 0.0
C896 C 0.01829 0.12288 0.10554 0.0
C897 C 0.02717 0.13938 0.08932 0.0
C898 C 0.03187 0.1261 0.06704 0.0
C899 C 0.01581 0.13681 0.04721 0.0
C900 C 0.05891 0.1275 0.06152 0.0
C901 C 0.02433 0.0995 0.07324 0.0
C902 C 0.01637 0.09789 0.09541 0.0
C903 C 0.00896 0.07488 0.10488 0.0
C904 C 0.01002 0.05291 0.09133 0.0
C905 C 0.01867 0.05434 0.06878 0.0
C906 C 0.0256 0.07797 0.05968 0.0
H907 H 0.12775 0.76875 0.38789 0.0
H908 H 0.08251 0.72887 0.33697 0.0
H909 H 0.11804 0.72188 0.31363 0.0
H910 H 0.16554 0.80047 0.34692 0.0
H911 H 0.19319 0.79792 0.36419 0.0
H912 H 0.16446 0.79914 0.37781 0.0
H913 H 0.17416 0.75696 0.39893 0.0
H914 H 0.20293 0.75562 0.38534 0.0
H915 H 0.18189 0.7294 0.3825 0.0
H916 H 0.15808 0.71955 0.29488 0.0
H917 H 0.19987 0.72271 0.28175 0.0
H918 H 0.22095 0.76456 0.34356 0.0
C919 C 0.12539 0.75835 0.37194 0.0
C920 C 0.10203 0.74929 0.36446 0.0
C921 C 0.09994 0.73606 0.34326 0.0
C922 C 0.12014 0.73193 0.32979 0.0
C923 C 0.14272 0.74119 0.33744 0.0
C924 C 0.14558 0.75418 0.35799 0.0
C925 C 0.17199 0.76268 0.36163 0.0
C926 C 0.1739 0.79178 0.3627 0.0
C927 C 0.18342 0.75043 0.3834 0.0
C928 C 0.18337 0.75244 0.33999 0.0
C929 C 0.16604 0.74004 0.32638 0.0
C930 C 0.1718 0.72917 0.30545 0.0
C931 C 0.19574 0.73107 0.29811 0.0
C932 C 0.21406 0.7438 0.31149 0.0
C933 C 0.2076 0.75455 0.33286 0.0
H934 H 0.54634 0.82351 0.63171 0.0
H935 H 0.54599 0.76795 0.57673 0.0
H936 H 0.5607 0.80077 0.55016 0.0
H937 H 0.52446 0.87488 0.59747 0.0
H938 H 0.54273 0.89814 0.61294 0.0
H939 H 0.53327 0.86967 0.62724 0.0
H940 H 0.57831 0.86012 0.63824 0.0
H941 H 0.58792 0.88819 0.62326 0.0
H942 H 0.59994 0.85766 0.61593 0.0
H943 H 0.57508 0.83983 0.52968 0.0
H944 H 0.5815 0.88347 0.51537 0.0
H945 H 0.57122 0.9126 0.58402 0.0
C946 C 0.54921 0.81823 0.61406 0.0
C947 C 0.54527 0.79321 0.60629 0.0
C948 C 0.54906 0.78707 0.58303 0.0
C949 C 0.55763 0.80547 0.56789 0.0
C950 C 0.56218 0.8298 0.57636 0.0
C951 C 0.55769 0.83628 0.59878 0.0
C952 C 0.56252 0.86404 0.60332 0.0
C953 C 0.53937 0.87747 0.61065 0.0
C954 C 0.58342 0.8677 0.62125 0.0
C955 C 0.56986 0.87236 0.57975 0.0
C956 C 0.57008 0.8523 0.56453 0.0
C957 C 0.57504 0.85571 0.54144 0.0
C958 C 0.57864 0.88052 0.53348 0.0
C959 C 0.57683 0.90146 0.54855 0.0
C960 C 0.57335 0.89708 0.57212 0.0
H961 H 0.44399 0.26067 0.88999 0.0
H962 H 0.49616 0.28636 0.84096 0.0
H963 H 0.46267 0.29303 0.81208 0.0
H964 H 0.40495 0.22651 0.84862 0.0
H965 H 0.37745 0.23477 0.86248 0.0
H966 H 0.40547 0.23212 0.87917 0.0
H967 H 0.40013 0.27784 0.89425 0.0
H968 H 0.37218 0.28068 0.87749 0.0
H969 H 0.39619 0.30358 0.87402 0.0
H970 H 0.42283 0.29888 0.78902 0.0
H971 H 0.38114 0.29978 0.77246 0.0
H972 H 0.35441 0.26813 0.83566 0.0
C973 C 0.44847 0.26766 0.87316 0.0
C974 C 0.47297 0.2731 0.86791 0.0
C975 C 0.47777 0.28197 0.84552 0.0
C976 C 0.45876 0.28592 0.82901 0.0
C977 C 0.4349 0.28063 0.83489 0.0
C978 C 0.42975 0.27135 0.85636 0.0
C979 C 0.40259 0.26662 0.85819 0.0
C980 C 0.39731 0.23832 0.86236 0.0
C981 C 0.39216 0.28317 0.87711 0.0
C982 C 0.39314 0.27493 0.83446 0.0
C983 C 0.41211 0.28314 0.82139 0.0
C984 C 0.40795 0.29231 0.79911 0.0
C985 C 0.38403 0.29285 0.78987 0.0
C986 C 0.36417 0.28404 0.80261 0.0
C987 C 0.369 0.27498 0.82533 0.0
H988 H 0.05314 0.84976 0.41012 0.0
H989 H 1.00211 0.80115 0.44464 0.0
H990 H 0.99112 0.83635 0.46934 0.0
H991 H 0.07454 0.8823 0.46003 0.0
H992 H 0.0772 0.91318 0.44694 0.0
H993 H 0.07973 0.88503 0.42973 0.0
H994 H 0.04518 0.90085 0.40218 0.0
H995 H 0.04266 0.92916 0.41925 0.0
H996 H 0.01643 0.90924 0.41363 0.0
H997 H 0.9883 0.87439 0.49327 0.0
H998 H 0.99214 0.91499 0.51395 0.0
H999 H 0.04381 0.94168 0.46479 0.0
C1000 C 0.03921 0.84681 0.42247 0.0
C1001 C 0.02845 0.82248 0.42526 0.0
C1002 C 0.01073 0.81933 0.44205 0.0
C1003 C 0.00426 0.83935 0.45624 0.0
C1004 C 0.01558 0.86275 0.45363 0.0
C1005 C 0.03251 0.86685 0.43709 0.0
C1006 C 0.04265 0.89382 0.43909 0.0
C1007 C 0.07017 0.89355 0.44425 0.0
C1008 C 0.03635 0.90918 0.41723 0.0
C1009 C 0.02911 0.90378 0.45957 0.0
C1010 C 0.01359 0.88538 0.46755 0.0
C1011 C 1.00011 0.88913 0.487 0.0
C1012 C 1.0025 0.91226 0.49872 0.0
C1013 C 0.01809 0.93166 0.49097 0.0
C1014 C 0.03143 0.92739 0.47093 0.0
H1015 H 0.48071 0.71155 0.67669 0.0
H1016 H 0.53128 0.75301 0.72164 0.0
H1017 H 0.50057 0.7545 0.75139 0.0
H1018 H 0.43091 0.74487 0.68724 0.0
H1019 H 0.40954 0.71884 0.68712 0.0
H1020 H 0.43671 0.71638 0.67129 0.0
H1021 H 0.44848 0.67524 0.69334 0.0
H1022 H 0.42105 0.6773 0.70906 0.0
H1023 H 0.44998 0.6753 0.72433 0.0
H1024 H 0.46231 0.76002 0.77162 0.0
H1025 H 0.42055 0.76531 0.78324 0.0
H1026 H 0.39534 0.71606 0.72728 0.0
C1027 C 0.48552 0.72024 0.69309 0.0
C1028 C 0.5082 0.73224 0.69698 0.0
C1029 C 0.51399 0.74357 0.71849 0.0
C1030 C 0.49669 0.74448 0.73545 0.0
C1031 C 0.47406 0.73336 0.73073 0.0
C1032 C 0.46865 0.72088 0.7103 0.0
C1033 C 0.44239 0.71245 0.70867 0.0
C1034 C 0.42913 0.72383 0.68732 0.0
C1035 C 0.44036 0.68334 0.70887 0.0
C1036 C 0.43348 0.72368 0.73064 0.0
C1037 C 0.45207 0.73543 0.74322 0.0
C1038 C 0.44774 0.75001 0.76248 0.0
C1039 C 0.42379 0.75277 0.76901 0.0
C1040 C 0.40435 0.74074 0.75649 0.0
C1041 C 0.40955 0.72557 0.73732 0.0
H1042 H 0.54614 0.19879 0.96567 0.0
H1043 H 0.54812 0.17796 0.89377 0.0
H1044 H 0.5526 0.13264 0.90526 0.0
H1045 H 0.59016 0.15229 0.98747 0.0
H1046 H 0.57417 0.14711 0.01352 0.0
H1047 H 0.57266 0.17752 -0.00066 0.0
H1048 H 0.52578 0.17446 0.99747 0.0
H1049 H 0.52713 0.14401 0.01149 0.0
H1050 H 0.5112 0.14727 0.98407 0.0
H1051 H 0.55271 0.0885 0.92559 0.0
H1052 H 0.55187 0.05151 0.95197 0.0
H1053 H 0.5516 0.10249 0.0103 0.0
C1054 C 0.5478 0.1848 0.95223 0.0
C1055 C 0.54669 0.19206 0.92873 0.0
C1056 C 0.54908 0.17301 0.91185 0.0
C1057 C 0.5515 0.14718 0.91827 0.0
C1058 C 0.55188 0.14072 0.94166 0.0
C1059 C 0.55046 0.15919 0.95833 0.0
C1060 C 0.55083 0.14769 0.98227 0.0
C1061 C 0.5733 0.15668 0.99648 0.0
C1062 C 0.52734 0.15372 0.99453 0.0
C1063 C 0.55233 0.11969 0.97665 0.0
C1064 C 0.55279 0.11592 0.95315 0.0
C1065 C 0.55273 0.09142 0.94399 0.0
C1066 C 0.55221 0.07046 0.95914 0.0
C1067 C 0.55201 0.07396 0.9833 0.0
C1068 C 0.55223 0.09904 0.992 0.0
H1069 H 0.10018 0.26699 0.18663 0.0
H1070 H 0.1296 0.24927 0.12062 0.0
H1071 H 0.1712 0.25744 0.13687 0.0
H1072 H 0.14318 0.31822 0.20138 0.0
H1073 H 0.14396 0.30993 0.23145 0.0
H1074 H 0.1169 0.30415 0.21392 0.0
H1075 H 0.11762 0.2566 0.22575 0.0
H1076 H 0.14447 0.26231 0.24341 0.0
H1077 H 0.14453 0.2383 0.22142 0.0
H1078 H 0.20975 0.26285 0.16245 0.0
H1079 H 0.24089 0.266 0.19418 0.0
H1080 H 0.18455 0.28354 0.24157 0.0
C1081 C 0.11539 0.26487 0.17557 0.0
C1082 C 0.11192 0.25715 0.15256 0.0
C1083 C 0.13208 0.25507 0.1384 0.0
C1084 C 0.15566 0.25974 0.14745 0.0
C1085 C 0.15848 0.26713 0.17042 0.0
C1086 C 0.13875 0.26999 0.18412 0.0
C1087 C 0.14628 0.27739 0.20834 0.0
C1088 C 0.13703 0.304 0.2141 0.0
C1089 C 0.13773 0.25746 0.22574 0.0
C1090 C 0.17343 0.27731 0.2065 0.0
C1091 C 0.1803 0.27148 0.18455 0.0
C1092 C 0.20458 0.26796 0.17958 0.0
C1093 C 0.22213 0.26982 0.19766 0.0
C1094 C 0.21517 0.27517 0.2203 0.0
C1095 C 0.19059 0.27976 0.22443 0.0
H1096 H 0.11364 0.0263 0.17876 0.0
H1097 H 0.13087 0.94914 0.19892 0.0
H1098 H 0.12109 0.93459 0.15912 0.0
H1099 H 0.06442 0.01358 0.14249 0.0
H1100 H 0.07118 0.0372 0.12118 0.0
H1101 H 0.08172 0.04155 0.1505 0.0
H1102 H 0.12586 0.04625 0.13729 0.0
H1103 H 0.1154 0.04195 0.10784 0.0
H1104 H 0.13865 0.02166 0.12011 0.0
H1105 H 0.1019 0.92799 0.11911 0.0
H1106 H 0.08029 0.93079 0.08095 0.0
H1107 H 0.08106 0.01274 0.08587 0.0
C1108 C 0.11585 0.00644 0.1746 0.0
C1109 C 0.12292 0.98876 0.19172 0.0
C1110 C 0.12563 0.96292 0.18586 0.0
C1111 C 0.12007 0.95453 0.16336 0.0
C1112 C 0.11259 0.9724 0.14689 0.0
C1113 C 0.11112 0.99793 0.15213 0.0
C1114 C 0.10207 0.01325 0.1316 0.0
C1115 C 0.07845 0.0272 0.13676 0.0
C1116 C 0.12167 0.03187 0.12375 0.0
C1117 C 0.09763 0.99226 0.11425 0.0
C1118 C 0.10364 0.96876 0.12335 0.0
C1119 C 0.09798 0.94632 0.11149 0.0
C1120 C 0.08575 0.94802 0.0899 0.0
C1121 C 0.07997 0.97198 0.08032 0.0
C1122 C 0.08636 0.99427 0.09248 0.0
H1123 H 0.27973 0.89647 0.47242 0.0
H1124 H 0.3088 0.84054 0.52072 0.0
H1125 H 0.32415 0.81579 0.48876 0.0
H1126 H 0.25833 0.8521 0.43125 0.0
H1127 H 0.26534 0.87113 0.40657 0.0
H1128 H 0.25913 0.88624 0.43337 0.0
H1129 H 0.30046 0.90982 0.43262 0.0
H1130 H 0.30687 0.89458 0.40584 0.0
H1131 H 0.32788 0.89183 0.43016 0.0
H1132 H 0.33367 0.79531 0.45219 0.0
H1133 H 0.33434 0.77883 0.41256 0.0
H1134 H 0.29856 0.84697 0.3873 0.0
C1135 C 0.28965 0.87921 0.47623 0.0
C1136 C 0.29329 0.87059 0.49908 0.0
C1137 C 0.30593 0.84767 0.50339 0.0
C1138 C 0.31486 0.83349 0.48534 0.0
C1139 C 0.31093 0.8424 0.46303 0.0
C1140 C 0.2985 0.86461 0.45832 0.0
C1141 C 0.29495 0.86862 0.43262 0.0
C1142 C 0.26783 0.86956 0.42555 0.0
C1143 C 0.30834 0.89264 0.42486 0.0
C1144 C 0.30674 0.84485 0.42375 0.0
C1145 C 0.31618 0.83024 0.44162 0.0
C1146 C 0.32662 0.80668 0.43798 0.0
C1147 C 0.32687 0.79746 0.41548 0.0
C1148 C 0.31665 0.81172 0.39697 0.0
C1149 C 0.30698 0.83597 0.40111 0.0
H1150 H 0.44554 0.04951 0.68283 0.0
H1151 H 0.43785 0.9677 0.68627 0.0
H1152 H 0.45506 0.96381 0.64804 0.0
H1153 H 0.43361 0.0547 0.61777 0.0
H1154 H 0.45576 0.07978 0.61545 0.0
H1155 H 0.43882 0.07663 0.6412 0.0
H1156 H 0.47911 0.07482 0.66529 0.0
H1157 H 0.4962 0.07726 0.63965 0.0
H1158 H 0.50107 0.05089 0.65901 0.0
H1159 H 0.47976 0.96766 0.61417 0.0
H1160 H 0.50474 0.97937 0.58176 0.0
H1161 H 0.49555 0.05922 0.5974 0.0
C1162 C 0.44635 0.03098 0.6749 0.0
C1163 C 0.43991 0.00887 0.68718 0.0
C1164 C 0.44224 0.98479 0.67687 0.0
C1165 C 0.45215 0.98241 0.65524 0.0
C1166 C 0.45953 0.00434 0.64404 0.0
C1167 C 0.45622 0.02826 0.65309 0.0
C1168 C 0.4674 0.04845 0.63791 0.0
C1169 C 0.44772 0.06593 0.62746 0.0
C1170 C 0.48711 0.06375 0.65128 0.0
C1171 C 0.47831 0.03199 0.61958 0.0
C1172 C 0.47353 0.00662 0.62365 0.0
C1173 C 0.48319 0.98748 0.61047 0.0
C1174 C 0.49766 0.99436 0.59226 0.0
C1175 C 0.50219 0.02022 0.58706 0.0
C1176 C 0.4923 0.03932 0.60092 0.0
H1177 H 0.29864 0.1436 0.95216 0.0
H1178 H 0.28135 0.20839 0.99422 0.0
H1179 H 0.25638 0.22598 0.96232 0.0
H1180 H 0.30972 0.17934 0.90434 0.0
H1181 H 0.29822 0.1564 0.88366 0.0
H1182 H 0.30962 0.14598 0.91133 0.0
H1183 H 0.26861 0.12316 0.91779 0.0
H1184 H 0.25693 0.13418 0.89021 0.0
H1185 H 0.24088 0.141 0.91586 0.0
H1186 H 0.2372 0.23901 0.92576 0.0
H1187 H 0.23367 0.25187 0.8851 0.0
H1188 H 0.26616 0.18101 0.86519 0.0
C1189 C 0.28916 0.16123 0.95474 0.0
C1190 C 0.29136 0.17428 0.97583 0.0
C1191 C 0.2795 0.19775 0.97838 0.0
C1192 C 0.26502 0.20778 0.96043 0.0
C1193 C 0.26296 0.19434 0.93988 0.0
C1194 C 0.2752 0.17188 0.93672 0.0
C1195 C 0.27382 0.16383 0.91177 0.0
C1196 C 0.29935 0.16127 0.90222 0.0
C1197 C 0.25918 0.13907 0.90874 0.0
C1198 C 0.26021 0.1861 0.90122 0.0
C1199 C 0.25308 0.2028 0.91794 0.0
C1200 C 0.24237 0.22598 0.91249 0.0
C1201 C 0.24043 0.23312 0.88939 0.0
C1202 C 0.24973 0.21739 0.8722 0.0
C1203 C 0.25842 0.19303 0.87803 0.0
H1204 H 0.14444 1.00033 0.3398 0.0
H1205 H 0.08716 0.02313 0.29116 0.0
H1206 H 0.06355 0.03934 0.32299 0.0
H1207 H 0.10523 0.97766 0.38226 0.0
H1208 H 0.12409 0.98818 0.40638 0.0
H1209 H 0.13756 0.98052 0.37961 0.0
H1210 H 0.15732 0.02527 0.37864 0.0
H1211 H 0.14372 0.03312 0.40536 0.0
H1212 H 0.13851 0.05296 0.38042 0.0
H1213 H 0.04517 0.05123 0.3599 0.0
H1214 H 0.032 0.05528 0.39977 0.0
H1215 H 0.10033 0.0236 0.42494 0.0
C1216 C 0.12707 0.00903 0.33587 0.0
C1217 C 0.11774 0.01065 0.31296 0.0
C1218 C 0.09474 0.02174 0.30853 0.0
C1219 C 0.08122 0.03113 0.3265 0.0
C1220 C 0.09084 0.02919 0.34888 0.0
C1221 C 0.11315 0.01826 0.35368 0.0
C1222 C 0.11846 0.01687 0.37942 0.0
C1223 C 0.1215 0.98917 0.38738 0.0
C1224 C 0.14083 0.03302 0.38636 0.0
C1225 C 0.09549 0.02836 0.38828 0.0
C1226 C 0.07997 0.03563 0.37033 0.0
C1227 C 0.05722 0.04574 0.37411 0.0
C1228 C 0.04987 0.0479 0.39681 0.0
C1229 C 0.06513 0.03984 0.41549 0.0
C1230 C 0.08845 0.03043 0.41108 0.0
H1231 H 0.31594 0.85259 0.62624 0.0
H1232 H 0.25047 0.89742 0.61988 0.0
H1233 H 0.23931 0.88331 0.65888 0.0
H1234 H 0.29051 0.80008 0.65195 0.0
H1235 H 0.31643 0.7932 0.6706 0.0
H1236 H 0.32049 0.80927 0.64371 0.0
H1237 H 0.34258 0.84653 0.66489 0.0
H1238 H 0.33902 0.83033 0.69185 0.0
H1239 H 0.32804 0.86226 0.68809 0.0
H1240 H 0.23404 0.86039 0.69771 0.0
H1241 H 0.23662 0.83395 0.73301 0.0
H1242 H 0.30537 0.80413 0.71191 0.0
C1243 C 0.29943 0.85988 0.63315 0.0
C1244 C 0.28405 0.87611 0.62003 0.0
C1245 C 0.26265 0.8852 0.62975 0.0
C1246 C 0.25612 0.87712 0.6518 0.0
C1247 C 0.27133 0.86022 0.66387 0.0
C1248 C 0.29274 0.85207 0.6549 0.0
C1249 C 0.3056 0.83315 0.67052 0.0
C1250 C 0.30841 0.80741 0.65847 0.0
C1251 C 0.33027 0.84371 0.67936 0.0
C1252 C 0.28789 0.83136 0.68957 0.0
C1253 C 0.26826 0.84714 0.68564 0.0
C1254 C 0.24944 0.84814 0.70096 0.0
C1255 C 0.251 0.83294 0.72089 0.0
C1256 C 0.27116 0.81687 0.72522 0.0
C1257 C 0.28966 0.81609 0.70916 0.0
H1258 H 0.41895 0.00965 0.82823 0.0
H1259 H 0.48374 0.03076 0.79268 0.0
H1260 H 0.50907 0.01753 0.82637 0.0
H1261 H 0.43941 0.02849 0.88529 0.0
H1262 H 0.42576 0.0017 0.89928 0.0
H1263 H 0.41263 0.01358 0.87263 0.0
H1264 H 0.41579 0.96881 0.85467 0.0
H1265 H 0.42913 0.95685 0.88123 0.0
H1266 H 0.44476 0.95326 0.85481 0.0
H1267 H 0.52715 0.0038 0.86391 0.0
H1268 H 0.5374 0.99021 0.90324 0.0
H1269 H 0.46132 0.97314 0.91363 0.0
C1270 C 0.43845 0.01177 0.82778 0.0
C1271 C 0.4495 0.02153 0.80811 0.0
C1272 C 0.47504 0.02346 0.80773 0.0
C1273 C 0.48954 0.01594 0.82672 0.0
C1274 C 0.47821 0.00606 0.84576 0.0
C1275 C 0.45329 0.00378 0.84646 0.0
C1276 C 0.44594 0.99184 0.8689 0.0
C1277 C 0.43 0.00999 0.88232 0.0
C1278 C 0.43315 0.96617 0.86464 0.0
C1279 C 0.47059 0.98839 0.88085 0.0
C1280 C 0.48889 0.99672 0.86713 0.0
C1281 C 0.51305 0.99678 0.87472 0.0
C1282 C 0.5187 0.98862 0.89716 0.0
C1283 C 0.50031 0.98013 0.91185 0.0
C1284 C 0.47595 0.97958 0.90318 0.0
H1285 H 0.31991 0.15469 0.1085 0.0
H1286 H 0.35359 0.21915 0.07592 0.0
H1287 H 0.37314 0.23157 0.113 0.0
H1288 H 0.30102 0.18636 0.15283 0.0
H1289 H 0.30523 0.16203 0.17443 0.0
H1290 H 0.30115 0.1533 0.14485 0.0
H1291 H 0.34163 0.1286 0.14748 0.0
H1292 H 0.34593 0.1377 0.17722 0.0
H1293 H 0.36909 0.14466 0.15709 0.0
H1294 H 0.38092 0.24269 0.15321 0.0
H1295 H 0.37168 0.25468 0.19278 0.0
H1296 H 0.33146 0.18445 0.20032 0.0
C1297 C 0.33226 0.17076 0.10916 0.0
C1298 C 0.33552 0.18588 0.08956 0.0
C1299 C 0.35099 0.20735 0.0909 0.0
C1300 C 0.36242 0.21431 0.11181 0.0
C1301 C 0.35808 0.19967 0.13122 0.0
C1302 C 0.34328 0.17831 0.1301 0.0
C1303 C 0.3372 0.16918 0.15388 0.0
C1304 C 0.30953 0.16768 0.15664 0.0
C1305 C 0.34919 0.14351 0.15923 0.0
C1306 C 0.34886 0.19011 0.16835 0.0
C1307 C 0.3619 0.20676 0.15507 0.0
C1308 C 0.37131 0.2295 0.16392 0.0
C1309 C 0.3659 0.23624 0.18639 0.0
C1310 C 0.35084 0.22048 0.19952 0.0
C1311 C 0.34357 0.19649 0.19088 0.0
H1312 H 0.21003 0.15609 0.03552 0.0
H1313 H 0.26086 0.11403 0.99555 0.0
H1314 H 0.22732 0.08859 0.97832 0.0
H1315 H 0.17465 0.10254 0.04958 0.0
H1316 H 0.14605 0.11886 0.04834 0.0
H1317 H 0.17357 0.13615 0.05521 0.0
H1318 H 0.16376 0.16718 0.02156 0.0
H1319 H 0.13632 0.1497 0.01443 0.0
H1320 H 0.1585 0.15485 0.99293 0.0
H1321 H 0.18954 0.06618 0.96711 0.0
H1322 H 0.14992 0.04429 0.966 0.0
H1323 H 0.12329 0.0986 0.01484 0.0
C1324 C 0.21388 0.14166 0.02298 0.0
C1325 C 0.23785 0.13683 0.01683 0.0
C1326 C 0.24253 0.1177 0.0006 0.0
C1327 C 0.22361 0.10339 0.99053 0.0
C1328 C 0.20015 0.10834 0.99702 0.0
C1329 C 0.19516 0.12672 0.01309 0.0
C1330 C 0.16861 0.1261 0.01879 0.0
C1331 C 0.16555 0.12057 0.0445 0.0
C1332 C 0.15606 0.15094 0.01149 0.0
C1333 C 0.15975 0.10409 0.0039 0.0
C1334 C 0.17816 0.0946 0.99108 0.0
C1335 C 0.17489 0.07349 0.97694 0.0
C1336 C 0.15239 0.06113 0.97649 0.0
C1337 C 0.1336 0.06973 0.99035 0.0
C1338 C 0.13716 0.09192 0.00371 0.0
H1339 H 0.72624 0.46363 0.0363 0.0
H1340 H 0.71486 0.3988 0.08066 0.0
H1341 H 0.67285 0.41272 0.08651 0.0
H1342 H 0.68816 0.50917 0.06556 0.0
H1343 H 0.67614 0.52293 0.03919 0.0
H1344 H 0.70609 0.50949 0.04031 0.0
H1345 H 0.69407 0.48007 0.0061 0.0
H1346 H 0.66415 0.49348 0.00483 0.0
H1347 H 0.66785 0.45967 0.00794 0.0
H1348 H 0.63193 0.43336 0.08726 0.0
H1349 H 0.59361 0.45608 0.07929 0.0
H1350 H 0.63001 0.50568 0.03173 0.0
C1351 C 0.71496 0.45266 0.04752 0.0
C1352 C 0.72384 0.43034 0.05834 0.0
C1353 C 0.7084 0.41602 0.07235 0.0
C1354 C 0.68456 0.42385 0.07584 0.0
C1355 C 0.67622 0.44583 0.06485 0.0
C1356 C 0.69081 0.45985 0.05069 0.0
C1357 C 0.67664 0.4814 0.03929 0.0
C1358 C 0.6874 0.50728 0.04652 0.0
C1359 C 0.67562 0.47847 0.01298 0.0
C1360 C 0.65185 0.47724 0.0492 0.0
C1361 C 0.65217 0.45691 0.06424 0.0
C1362 C 0.63147 0.4493 0.0755 0.0
C1363 C 0.60977 0.46243 0.07092 0.0
C1364 C 0.60869 0.48273 0.0549 0.0
C1365 C 0.63019 0.49032 0.04413 0.0
H1366 H 0.85812 0.44943 0.26418 0.0
H1367 H 0.92512 0.4226 0.29713 0.0
H1368 H 0.90435 0.38371 0.30912 0.0
H1369 H 0.81749 0.42378 0.30677 0.0
H1370 H 0.79425 0.41469 0.28575 0.0
H1371 H 0.8139 0.44131 0.28024 0.0
H1372 H 0.82635 0.42061 0.24214 0.0
H1373 H 0.80657 0.39409 0.24745 0.0
H1374 H 0.83818 0.3888 0.24261 0.0
H1375 H 0.87769 0.34661 0.3157 0.0
H1376 H 0.84637 0.31295 0.31575 0.0
H1377 H 0.79566 0.36316 0.28007 0.0
C1378 C 0.86839 0.43543 0.274 0.0
C1379 C 0.89337 0.43923 0.27959 0.0
C1380 C 0.90607 0.42028 0.29244 0.0
C1381 C 0.89439 0.39807 0.29948 0.0
C1382 C 0.86989 0.39492 0.2937 0.0
C1383 C 0.85697 0.41297 0.28122 0.0
C1384 C 0.83094 0.40419 0.27665 0.0
C1385 C 0.81309 0.42206 0.28803 0.0
C1386 C 0.82518 0.40178 0.25068 0.0
C1387 C 0.83143 0.37833 0.28832 0.0
C1388 C 0.85413 0.37349 0.29806 0.0
C1389 C 0.85972 0.35031 0.30846 0.0
C1390 C 0.84181 0.33133 0.30848 0.0
C1391 C 0.81849 0.33567 0.29842 0.0
C1392 C 0.8131 0.35966 0.28857 0.0
H1393 H 0.86491 0.52188 0.49931 0.0
H1394 H 0.85536 0.56359 0.56206 0.0
H1395 H 0.88983 0.54096 0.58049 0.0
H1396 H 0.89654 0.46103 0.52924 0.0
H1397 H 0.91578 0.45912 0.50498 0.0
H1398 H 0.88453 0.46839 0.5008 0.0
H1399 H 0.89869 0.50903 0.48011 0.0
H1400 H 0.92972 0.50054 0.48476 0.0
H1401 H 0.91929 0.53066 0.49504 0.0
H1402 H 0.93208 0.52886 0.58593 0.0
H1403 H 0.97565 0.52417 0.57976 0.0
H1404 H 0.95912 0.48988 0.51333 0.0
C1405 C 0.86921 0.52478 0.51742 0.0
C1406 C 0.85779 0.54415 0.52942 0.0
C1407 C 0.86379 0.54836 0.55285 0.0
C1408 C 0.88341 0.5356 0.56339 0.0
C1409 C 0.89626 0.51846 0.55028 0.0
C1410 C 0.88882 0.51226 0.52795 0.0
C1411 C 0.90823 0.49792 0.51579 0.0
C1412 C 0.90083 0.46995 0.51253 0.0
C1413 C 0.91433 0.51032 0.49261 0.0
C1414 C 0.92888 0.50044 0.53337 0.0
C1415 C 0.92139 0.51126 0.55354 0.0
C1416 C 0.93799 0.51945 0.57063 0.0
C1417 C 0.96273 0.51705 0.56683 0.0
C1418 C 0.97063 0.50681 0.54596 0.0
C1419 C 0.95349 0.49755 0.52951 0.0
H1420 H 0.14303 0.10111 0.27561 0.0
H1421 H 0.19748 0.05291 0.24642 0.0
H1422 H 0.2265 0.08845 0.24761 0.0
H1423 H 0.15968 0.15886 0.24576 0.0
H1424 H 0.15455 0.17916 0.26995 0.0
H1425 H 0.13753 0.15005 0.26637 0.0
H1426 H 0.15192 0.13575 0.30723 0.0
H1427 H 0.16911 0.16475 0.31088 0.0
H1428 H 0.18393 0.13455 0.31448 0.0
H1429 H 0.24976 0.12853 0.2517 0.0
H1430 H 0.26607 0.17161 0.25859 0.0
H1431 H 0.19742 0.19417 0.28609 0.0
C1432 C 0.16099 0.09813 0.26931 0.0
C1433 C 0.16793 0.0742 0.26093 0.0
C1434 C 0.19171 0.071 0.25304 0.0
C1435 C 0.20838 0.09108 0.25359 0.0
C1436 C 0.2011 0.11428 0.26218 0.0
C1437 C 0.17803 0.118 0.26991 0.0
C1438 C 0.17517 0.14488 0.27862 0.0
C1439 C 0.15557 0.15907 0.26432 0.0
C1440 C 0.16971 0.14497 0.30433 0.0
C1441 C 0.20022 0.15553 0.27452 0.0
C1442 C 0.21481 0.13753 0.26496 0.0
C1443 C 0.23857 0.14284 0.25923 0.0
C1444 C 0.24766 0.16735 0.26322 0.0
C1445 C 0.23305 0.18619 0.27296 0.0
C1446 C 0.20908 0.18008 0.27882 0.0
H1447 H 0.38367 0.90273 0.54814 0.0
H1448 H 0.33096 0.96002 0.52777 0.0
H1449 H 0.36404 0.98762 0.51447 0.0
H1450 H 0.42976 0.94725 0.56949 0.0
H1451 H 0.45451 0.92838 0.55988 0.0
H1452 H 0.42661 0.91322 0.56755 0.0
H1453 H 0.42347 0.89195 0.52743 0.0
H1454 H 0.45115 0.90741 0.51952 0.0
H1455 H 0.42386 0.91147 0.50197 0.0
H1456 H 0.40259 0.00833 0.50227 0.0
H1457 H 0.44422 0.02346 0.49664 0.0
H1458 H 0.47248 0.95342 0.52616 0.0
C1459 C 0.37907 0.92114 0.54097 0.0
C1460 C 0.35465 0.92919 0.53894 0.0
C1461 C 0.34948 0.9535 0.52964 0.0
C1462 C 0.36815 0.96921 0.52187 0.0
C1463 C 0.39194 0.96048 0.52373 0.0
C1464 C 0.39752 0.93722 0.53344 0.0
C1465 C 0.4247 0.93282 0.53429 0.0
C1466 C 0.43447 0.93028 0.55928 0.0
C1467 C 0.43116 0.90953 0.51994 0.0
C1468 C 0.43355 0.95718 0.52335 0.0
C1469 C 0.41429 0.97272 0.51721 0.0
C1470 C 0.41779 0.99635 0.50708 0.0
C1471 C 0.44158 0.00472 0.50385 0.0
C1472 C 0.46173 0.98963 0.51087 0.0
C1473 C 0.45753 0.96528 0.5203 0.0
H1474 H 0.88412 0.60292 0.24433 0.0
H1475 H 0.82612 0.55043 0.25995 0.0
H1476 H 0.79798 0.58639 0.26317 0.0
H1477 H 0.8689 0.65157 0.28198 0.0
H1478 H 0.87595 0.67739 0.26294 0.0
H1479 H 0.89121 0.64751 0.26048 0.0
H1480 H 0.87726 0.6446 0.21757 0.0
H1481 H 0.86208 0.67461 0.21986 0.0
H1482 H 0.84547 0.64701 0.20969 0.0
H1483 H 0.77771 0.62849 0.26984 0.0
H1484 H 0.76544 0.67333 0.27436 0.0
H1485 H 0.83517 0.69826 0.25061 0.0
C1486 C 0.86539 0.59899 0.24803 0.0
C1487 C 0.85731 0.57386 0.2519 0.0
C1488 C 0.83268 0.56949 0.25675 0.0
C1489 C 0.81657 0.58982 0.25871 0.0
C1490 C 0.82522 0.61441 0.25528 0.0
C1491 C 0.84892 0.61904 0.24953 0.0
C1492 C 0.85364 0.64728 0.24685 0.0
C1493 C 0.87361 0.65646 0.26409 0.0
C1494 C 0.85998 0.65375 0.22201 0.0
C1495 C 0.82912 0.65782 0.25259 0.0
C1496 C 0.81302 0.63856 0.25762 0.0
C1497 C 0.78996 0.64371 0.26539 0.0
C1498 C 0.78315 0.66917 0.26797 0.0
C1499 C 0.79916 0.68913 0.26235 0.0
C1500 C 0.82234 0.68331 0.25439 0.0
H1501 H 0.70036 0.4241 0.79101 0.0
H1502 H 0.7321 0.45716 0.73076 0.0
H1503 H 0.76006 0.42078 0.72878 0.0
H1504 H 0.75773 0.39984 0.81621 0.0
H1505 H 0.74365 0.37173 0.82754 0.0
H1506 H 0.7266 0.40066 0.82445 0.0
H1507 H 0.69371 0.37691 0.79969 0.0
H1508 H 0.71065 0.34797 0.8027 0.0
H1509 H 0.70239 0.35992 0.77447 0.0
H1510 H 0.78101 0.37836 0.73086 0.0
H1511 H 0.79658 0.33516 0.73942 0.0
H1512 H 0.75456 0.33222 0.80071 0.0
C1513 C 0.71334 0.42372 0.77752 0.0
C1514 C 0.71407 0.44326 0.76094 0.0
C1515 C 0.73137 0.44234 0.74365 0.0
C1516 C 0.74726 0.42177 0.74238 0.0
C1517 C 0.74596 0.40265 0.75889 0.0
C1518 C 0.72976 0.40369 0.7764 0.0
C1519 C 0.73216 0.38079 0.79208 0.0
C1520 C 0.74054 0.38874 0.81652 0.0
C1521 C 0.70831 0.3655 0.79222 0.0
C1522 C 0.75176 0.36635 0.78028 0.0
C1523 C 0.75936 0.37916 0.76105 0.0
C1524 C 0.77569 0.36846 0.7462 0.0
C1525 C 0.78441 0.34401 0.75113 0.0
C1526 C 0.77719 0.33093 0.77098 0.0
C1527 C 0.76091 0.34233 0.78584 0.0
H1528 H 0.94402 0.88856 0.9104 0.0
H1529 H 0.99569 0.89722 0.85676 0.0
H1530 H 0.02116 0.92445 0.88218 0.0
H1531 H 0.95676 0.95066 0.94326 0.0
H1532 H 0.95415 0.93362 0.96995 0.0
H1533 H 0.93597 0.92425 0.94501 0.0
H1534 H 0.95251 0.87907 0.95054 0.0
H1535 H 0.97354 0.88771 0.97356 0.0
H1536 H 0.98446 0.87337 0.94803 0.0
H1537 H 0.04574 0.9416 0.91669 0.0
H1538 H 0.06316 0.95383 0.95498 0.0
H1539 H 0.99768 0.92663 0.98633 0.0
C1540 C 0.95978 0.89775 0.90343 0.0
C1541 C 0.96816 0.89028 0.88193 0.0
C1542 C 0.98896 0.90245 0.87332 0.0
C1543 C 1.00384 0.91762 0.88785 0.0
C1544 C 0.99723 0.92072 0.91054 0.0
C1545 C 0.97522 0.91186 0.91805 0.0
C1546 C 0.97411 0.91335 0.9439 0.0
C1547 C 0.95406 0.93156 0.95095 0.0
C1548 C 0.97093 0.88681 0.95461 0.0
C1549 C 0.99896 0.92403 0.94979 0.0
C1550 C 0.01199 0.92857 0.93043 0.0
C1551 C 0.03557 0.93829 0.93196 0.0
C1552 C 0.04549 0.94475 0.95379 0.0
C1553 C 0.03197 0.94093 0.97375 0.0
C1554 C 0.00877 0.92954 0.97157 0.0
H1555 H 0.94744 0.25318 0.67345 0.0
H1556 H 0.99855 0.25207 0.73191 0.0
H1557 H 0.96466 0.25327 0.7582 0.0
H1558 H 0.90397 0.29522 0.69778 0.0
H1559 H 0.87757 0.27874 0.68613 0.0
H1560 H 0.90568 0.27754 0.67142 0.0
H1561 H 0.90442 0.22847 0.67272 0.0
H1562 H 0.87624 0.22954 0.68734 0.0
H1563 H 0.90166 0.21254 0.69995 0.0
H1564 H 0.92565 0.25676 0.77859 0.0
H1565 H 0.884 0.25887 0.79193 0.0
H1566 H 0.85612 0.25549 0.72126 0.0
C1567 C 0.95148 0.253 0.69179 0.0
C1568 C 0.97597 0.25253 0.70047 0.0
C1569 C 0.98022 0.25234 0.72465 0.0
C1570 C 0.96098 0.2531 0.73981 0.0
C1571 C 0.93722 0.25379 0.73078 0.0
C1572 C 0.93229 0.25343 0.70734 0.0
C1573 C 0.90487 0.25394 0.70242 0.0
C1574 C 0.8976 0.27778 0.68862 0.0
C1575 C 0.89629 0.22968 0.68986 0.0
C1576 C 0.89528 0.2549 0.72671 0.0
C1577 C 0.91442 0.25498 0.74271 0.0
C1578 C 0.91055 0.25652 0.76619 0.0
C1579 C 0.88666 0.25781 0.77362 0.0
C1580 C 0.86644 0.25732 0.75782 0.0
C1581 C 0.87099 0.25579 0.73392 0.0
H1582 H 0.50429 0.2608 0.45035 0.0
H1583 H 0.4459 0.24622 0.40018 0.0
H1584 H 0.43618 0.20601 0.42007 0.0
H1585 H 0.5244 0.19619 0.45306 0.0
H1586 H 0.53297 0.19774 0.48321 0.0
H1587 H 0.53374 0.22599 0.46585 0.0
H1588 H 0.50556 0.24809 0.49424 0.0
H1589 H 0.50418 0.21957 0.51131 0.0
H1590 H 0.47663 0.23389 0.50011 0.0
H1591 H 0.43223 0.1685 0.44594 0.0
H1592 H 0.43984 0.13101 0.47046 0.0
H1593 H 0.50352 0.16832 0.5012 0.0
C1594 C 0.48958 0.24896 0.44359 0.0
C1595 C 0.47578 0.25623 0.4239 0.0
C1596 C 0.45674 0.24053 0.4152 0.0
C1597 C 0.4509 0.21797 0.42654 0.0
C1598 C 0.46456 0.21147 0.44625 0.0
C1599 C 0.48393 0.22611 0.45433 0.0
C1600 C 0.49718 0.2136 0.47446 0.0
C1601 C 0.52362 0.20804 0.4688 0.0
C1602 C 0.49579 0.22976 0.49632 0.0
C1603 C 0.48236 0.18949 0.4763 0.0
C1604 C 0.46323 0.18901 0.46031 0.0
C1605 C 0.44727 0.16852 0.4584 0.0
C1606 C 0.4518 0.14732 0.47235 0.0
C1607 C 0.47252 0.14655 0.48748 0.0
C1608 C 0.48737 0.16836 0.49008 0.0
H1609 H 0.62794 0.77984 0.15796 0.0
H1610 H 0.57872 0.7552 0.21016 0.0
H1611 H 0.61338 0.75058 0.23783 0.0
H1612 H 0.67702 0.73756 0.1743 0.0
H1613 H 0.70057 0.76037 0.16872 0.0
H1614 H 0.67197 0.76189 0.15285 0.0
H1615 H 0.66684 0.80849 0.16564 0.0
H1616 H 0.69545 0.80713 0.18151 0.0
H1617 H 0.66843 0.81609 0.19584 0.0
H1618 H 0.65337 0.74866 0.26012 0.0
H1619 H 0.69546 0.74977 0.27555 0.0
H1620 H 0.71981 0.7755 0.2093 0.0
C1621 C 0.62437 0.77347 0.17521 0.0
C1622 C 0.60031 0.76789 0.18173 0.0
C1623 C 0.59675 0.75962 0.20456 0.0
C1624 C 0.61641 0.75692 0.22047 0.0
C1625 C 0.63977 0.76252 0.21346 0.0
C1626 C 0.64387 0.77065 0.19137 0.0
C1627 C 0.67084 0.77544 0.18834 0.0
C1628 C 0.68068 0.75776 0.16996 0.0
C1629 C 0.67567 0.80346 0.18249 0.0
C1630 C 0.68126 0.76875 0.21218 0.0
C1631 C 0.66293 0.76135 0.22634 0.0
C1632 C 0.66783 0.75441 0.24914 0.0
C1633 C 0.69194 0.75512 0.25777 0.0
C1634 C 0.71123 0.7627 0.24376 0.0
C1635 C 0.70565 0.76952 0.22053 0.0
H1636 H 0.03513 0.19272 0.58911 0.0
H1637 H 0.02823 0.17086 0.66055 0.0
H1638 H 0.02565 0.12558 0.64842 0.0
H1639 H 0.99501 0.14561 0.56352 0.0
H1640 H 0.0136 0.14143 0.53904 0.0
H1641 H 0.01329 0.17159 0.55353 0.0
H1642 H 0.05998 0.16988 0.55947 0.0
H1643 H 0.06045 0.13963 0.5452 0.0
H1644 H 0.07362 0.14291 0.57385 0.0
H1645 H 0.02579 0.08218 0.62761 0.0
H1646 H 0.02704 0.04576 0.60118 0.0
H1647 H 0.03503 0.09724 0.54361 0.0
C1648 C 0.03293 0.17861 0.60244 0.0
C1649 C 0.03198 0.18561 0.62598 0.0
C1650 C 0.0289 0.16619 0.64249 0.0
C1651 C 0.02754 0.1404 0.6357 0.0
C1652 C 0.02926 0.13437 0.61235 0.0
C1653 C 0.03174 0.15309 0.59603 0.0
C1654 C 0.03386 0.14209 0.57211 0.0
C1655 C 0.01268 0.15069 0.55611 0.0
C1656 C 0.05844 0.14904 0.56208 0.0
C1657 C 0.03224 0.11399 0.57729 0.0
C1658 C 0.02956 0.10987 0.60058 0.0
C1659 C 0.02782 0.08536 0.60941 0.0
C1660 C 0.02861 0.06473 0.59415 0.0
C1661 C 0.03119 0.06847 0.57015 0.0
C1662 C 0.03314 0.09358 0.56177 0.0
H1663 H 0.55904 0.27573 0.36549 0.0
H1664 H 0.51603 0.29895 0.30545 0.0
H1665 H 0.55329 0.30267 0.28334 0.0
H1666 H 0.60359 0.31766 0.36091 0.0
H1667 H 0.62871 0.29779 0.36973 0.0
H1668 H 0.5989 0.29073 0.37945 0.0
H1669 H 0.60034 0.24535 0.36257 0.0
H1670 H 0.63069 0.25177 0.35366 0.0
H1671 H 0.60779 0.24107 0.33295 0.0
H1672 H 0.59537 0.31333 0.27113 0.0
H1673 H 0.639 0.32165 0.26679 0.0
H1674 H 0.65427 0.28973 0.3346 0.0
C1675 C 0.55741 0.28028 0.34734 0.0
C1676 C 0.53483 0.28683 0.33701 0.0
C1677 C 0.5332 0.29334 0.31345 0.0
C1678 C 0.55429 0.29577 0.30087 0.0
C1679 C 0.57658 0.29105 0.31211 0.0
C1680 C 0.57819 0.28254 0.3346 0.0
C1681 C 0.60426 0.28083 0.34338 0.0
C1682 C 0.60912 0.29776 0.36461 0.0
C1683 C 0.61118 0.2531 0.34843 0.0
C1684 C 0.61703 0.29098 0.32277 0.0
C1685 C 0.60081 0.2967 0.30488 0.0
C1686 C 0.6083 0.30815 0.28474 0.0
C1687 C 0.6331 0.31293 0.2825 0.0
C1688 C 0.65016 0.30615 0.30026 0.0
C1689 C 0.64181 0.29535 0.32074 0.0
H1690 H 0.52726 0.82189 0.10142 0.0
H1691 H 0.52787 0.85254 0.17054 0.0
H1692 H 0.53036 0.89601 0.15463 0.0
H1693 H 0.56895 0.86801 0.07769 0.0
H1694 H 0.55296 0.86964 0.05018 0.0
H1695 H 0.55194 0.84091 0.06698 0.0
H1696 H 0.50505 0.84235 0.06531 0.0
H1697 H 0.50593 0.87114 0.0486 0.0
H1698 H 0.48997 0.87037 0.07505 0.0
H1699 H 0.53293 0.93638 0.13118 0.0
H1700 H 0.53477 0.97052 0.10227 0.0
H1701 H 0.53115 0.9144 0.04775 0.0
C1702 C 0.52808 0.83774 0.11324 0.0
C1703 C 0.52747 0.83366 0.13735 0.0
C1704 C 0.52836 0.85503 0.15209 0.0
C1705 C 0.52977 0.87985 0.14317 0.0
C1706 C 0.53015 0.8832 0.11938 0.0
C1707 C 0.52931 0.86273 0.10458 0.0
C1708 C 0.52955 0.87165 0.07966 0.0
C1709 C 0.5522 0.86198 0.06794 0.0
C1710 C 0.50624 0.86339 0.06638 0.0
C1711 C 0.53056 0.90034 0.08273 0.0
C1712 C 0.53105 0.90652 0.10582 0.0
C1713 C 0.53246 0.9317 0.11308 0.0
C1714 C 0.5335 0.95103 0.09644 0.0
C1715 C 0.53294 0.94536 0.07259 0.0
C1716 C 0.53134 0.91952 0.06576 0.0
H1717 H 0.88255 0.78463 0.86466 0.0
H1718 H 0.94697 0.77867 0.82451 0.0
H1719 H 0.92626 0.74661 0.79981 0.0
H1720 H 0.86361 0.71645 0.85954 0.0
H1721 H 0.83199 0.72475 0.85747 0.0
H1722 H 0.85308 0.74411 0.87424 0.0
H1723 H 0.84019 0.78405 0.85067 0.0
H1724 H 0.81863 0.76488 0.8346 0.0
H1725 H 0.84101 0.78303 0.81979 0.0
H1726 H 0.89731 0.71986 0.7768 0.0
H1727 H 0.86101 0.70698 0.75387 0.0
H1728 H 0.81589 0.7286 0.80993 0.0
C1729 C 0.89246 0.77642 0.85084 0.0
C1730 C 0.9164 0.78416 0.84655 0.0
C1731 C 0.92862 0.77302 0.82817 0.0
C1732 C 0.91712 0.75454 0.81424 0.0
C1733 C 0.8936 0.74713 0.81914 0.0
C1734 C 0.88137 0.75786 0.83694 0.0
C1735 C 0.85531 0.74893 0.83701 0.0
C1736 C 0.85074 0.73258 0.85833 0.0
C1737 C 0.83777 0.77156 0.8354 0.0
C1738 C 0.85426 0.73299 0.8154 0.0
C1739 C 0.87676 0.7314 0.80582 0.0
C1740 C 0.8797 0.72054 0.78431 0.0
C1741 C 0.85892 0.71312 0.77143 0.0
C1742 C 0.83559 0.71714 0.78001 0.0
C1743 C 0.83348 0.72512 0.80298 0.0
H1744 H 0.95502 0.00179 0.86242 0.0
H1745 H 0.88239 0.98671 0.88525 0.0
H1746 H 0.89694 0.9929 0.92563 0.0
H1747 H 0.98682 0.9711 0.90875 0.0
H1748 H 0.0113 0.99388 0.91039 0.0
H1749 H 0.99512 0.98825 0.88341 0.0
H1750 H 0.98484 0.03606 0.88015 0.0
H1751 H 1.00086 0.04205 0.90715 0.0
H1752 H 0.96963 0.05135 0.90318 0.0
H1753 H 0.91975 0.99992 0.9634 0.0
H1754 H 0.94941 0.00479 0.99587 0.0
H1755 H 0.00663 0.01725 0.94789 0.0
C1756 C 0.94218 0.99956 0.8759 0.0
C1757 C 0.91759 0.99363 0.87076 0.0
C1758 C 0.90133 0.99116 0.88887 0.0
C1759 C 0.90939 0.99479 0.9118 0.0
C1760 C 0.93365 0.00126 0.91621 0.0
C1761 C 0.9498 0.00356 0.89876 0.0
C1762 C 0.97496 0.01045 0.90804 0.0
C1763 C 0.99317 0.9897 0.90229 0.0
C1764 C 0.98304 0.03653 0.8991 0.0
C1765 C 0.97058 0.01126 0.93352 0.0
C1766 C 0.9466 0.00607 0.93787 0.0
C1767 C 0.93849 0.00433 0.96018 0.0
C1768 C 0.95547 0.00723 0.97851 0.0
C1769 C 0.98028 0.01181 0.97442 0.0
C1770 C 0.98772 0.01445 0.9516 0.0
H1771 H 0.78958 0.19934 0.56181 0.0
H1772 H 0.79432 0.11772 0.57134 0.0
H1773 H 0.79095 0.12364 0.61333 0.0
H1774 H 0.82106 0.21895 0.61543 0.0
H1775 H 0.80075 0.24517 0.61889 0.0
H1776 H 0.80742 0.23433 0.59051 0.0
H1777 H 0.76141 0.22845 0.5813 0.0
H1778 H 0.75459 0.23868 0.60977 0.0
H1779 H 0.74379 0.20826 0.59945 0.0
H1780 H 0.78362 0.13905 0.65427 0.0
H1781 H 0.77539 0.16225 0.68994 0.0
H1782 H 0.77109 0.23271 0.65116 0.0
C1783 C 0.79051 0.18261 0.57263 0.0
C1784 C 0.79226 0.15803 0.56319 0.0
C1785 C 0.79322 0.13677 0.57815 0.0
C1786 C 0.79116 0.13995 0.60201 0.0
C1787 C 0.78813 0.16445 0.61048 0.0
C1788 C 0.78803 0.18538 0.59616 0.0
C1789 C 0.78265 0.20952 0.60887 0.0
C1790 C 0.80426 0.22808 0.6084 0.0
C1791 C 0.75922 0.22194 0.59927 0.0
C1792 C 0.77942 0.19898 0.63266 0.0
C1793 C 0.78287 0.17304 0.63343 0.0
C1794 C 0.78089 0.15937 0.6538 0.0
C1795 C 0.77586 0.17271 0.67393 0.0
C1796 C 0.77255 0.19941 0.67347 0.0
C1797 C 0.7739 0.21243 0.65234 0.0
H1798 H 0.6499 0.0019 0.3886 0.0
H1799 H 0.6096 0.04893 0.33965 0.0
H1800 H 0.57875 0.05668 0.3683 0.0
H1801 H 0.59821 0.97159 0.41056 0.0
H1802 H 0.60994 0.96981 0.43983 0.0
H1803 H 0.63045 0.97014 0.41651 0.0
H1804 H 0.65288 0.00935 0.43416 0.0
H1805 H 0.63264 0.00871 0.45771 0.0
H1806 H 0.63581 0.03723 0.44089 0.0
H1807 H 0.55183 0.05886 0.40213 0.0
H1808 H 0.53018 0.05388 0.43843 0.0
H1809 H 0.58608 0.00252 0.46401 0.0
C1810 C 0.63485 0.01428 0.38419 0.0
C1811 C 0.63224 0.02512 0.36208 0.0
C1812 C 0.61197 0.04057 0.35656 0.0
C1813 C 0.59436 0.04511 0.37273 0.0
C1814 C 0.59708 0.0337 0.39424 0.0
C1815 C 0.61675 0.01852 0.4 0.0
C1816 C 0.6144 0.00708 0.42371 0.0
C1817 C 0.61317 0.97793 0.42257 0.0
C1818 C 0.63517 0.01615 0.44008 0.0
C1819 C 0.59036 0.01813 0.43026 0.0
C1820 C 0.58081 0.03371 0.41317 0.0
C1821 C 0.55905 0.04658 0.41561 0.0
C1822 C 0.54684 0.0436 0.43619 0.0
C1823 C 0.55622 0.0275 0.45379 0.0
C1824 C 0.57818 0.01453 0.45063 0.0
H1825 H 0.77795 0.84624 0.06809 0.0
H1826 H 0.81236 0.78111 0.03774 0.0
H1827 H 0.83444 0.77286 0.07449 0.0
H1828 H 0.83027 0.86557 0.1067 0.0
H1829 H 0.81068 0.87422 0.12945 0.0
H1830 H 0.80035 0.8775 0.09985 0.0
H1831 H 0.76275 0.84933 0.10751 0.0
H1832 H 0.77272 0.84649 0.13709 0.0
H1833 H 0.76707 0.81833 0.12013 0.0
H1834 H 0.84843 0.76819 0.11501 0.0
H1835 H 0.84961 0.7648 0.15735 0.0
H1836 H 0.80725 0.83331 0.16149 0.0
C1837 C 0.79035 0.83042 0.06904 0.0
C1838 C 0.79338 0.81433 0.05001 0.0
C1839 C 0.80963 0.79368 0.05209 0.0
C1840 C 0.82252 0.78902 0.07281 0.0
C1841 C 0.81916 0.8053 0.0912 0.0
C1842 C 0.80337 0.8255 0.08956 0.0
C1843 C 0.80087 0.83835 0.11254 0.0
C1844 C 0.81117 0.86552 0.1121 0.0
C1845 C 0.77429 0.83808 0.11974 0.0
C1846 C 0.8166 0.82127 0.12765 0.0
C1847 C 0.82757 0.80276 0.11486 0.0
C1848 C 0.84052 0.78292 0.12518 0.0
C1849 C 0.8412 0.78117 0.14918 0.0
C1850 C 0.82894 0.79913 0.16241 0.0
C1851 C 0.81749 0.82 0.15162 0.0
H1852 H 0.97498 0.9752 0.75247 0.0
H1853 H 0.90504 0.0101 0.73764 0.0
H1854 H 0.91214 0.00755 0.69616 0.0
H1855 H 0.00675 0.00605 0.70559 0.0
H1856 H 0.02455 0.9783 0.70018 0.0
H1857 H 0.01456 0.98446 0.72873 0.0
H1858 H 0.99444 0.93989 0.72948 0.0
H1859 H 0.00398 0.93375 0.70079 0.0
H1860 H 0.97236 0.93126 0.7072 0.0
H1861 H 0.92531 0.99822 0.65638 0.0
H1862 H 0.9458 0.98729 0.62085 0.0
H1863 H 0.00725 0.95867 0.66149 0.0
C1864 C 0.96129 0.98273 0.74057 0.0
C1865 C 0.93942 0.99285 0.74841 0.0
C1866 C 0.922 0.00238 0.73215 0.0
C1867 C 0.92579 0.00089 0.70852 0.0
C1868 C 0.94717 0.99002 0.70141 0.0
C1869 C 0.96482 0.98151 0.71694 0.0
C1870 C 0.98605 0.97034 0.70478 0.0
C1871 C 0.00935 0.98571 0.71013 0.0
C1872 C 0.98939 0.94214 0.71093 0.0
C1873 C 0.97743 0.97362 0.67997 0.0
C1874 C 0.9549 0.98489 0.67843 0.0
C1875 C 0.943 0.98948 0.65736 0.0
C1876 C 0.95467 0.98292 0.63728 0.0
C1877 C 0.97805 0.97194 0.63841 0.0
C1878 C 0.98941 0.96706 0.6601 0.0
H1879 H 0.79687 0.13984 0.41808 0.0
H1880 H 0.74565 0.17812 0.46045 0.0
H1881 H 0.73811 0.2098 0.43008 0.0
H1882 H 0.82368 0.1946 0.39683 0.0
H1883 H 0.82762 0.18334 0.368 0.0
H1884 H 0.82673 0.1611 0.39148 0.0
H1885 H 0.79147 0.1366 0.3708 0.0
H1886 H 0.79238 0.15854 0.34704 0.0
H1887 H 0.7645 0.1534 0.36155 0.0
H1888 H 0.73886 0.23969 0.39729 0.0
H1889 H 0.74581 0.26465 0.36223 0.0
H1890 H 0.79733 0.20832 0.34072 0.0
C1891 C 0.78345 0.15438 0.4205 0.0
C1892 C 0.77156 0.15637 0.44149 0.0
C1893 C 0.75479 0.17615 0.44448 0.0
C1894 C 0.7504 0.19429 0.42731 0.0
C1895 C 0.76304 0.19251 0.40719 0.0
C1896 C 0.77902 0.17295 0.40349 0.0
C1897 C 0.79133 0.17664 0.38082 0.0
C1898 C 0.81898 0.17907 0.38452 0.0
C1899 C 0.78451 0.15501 0.36405 0.0
C1900 C 0.78024 0.20159 0.37283 0.0
C1901 C 0.76382 0.21024 0.38825 0.0
C1902 C 0.75152 0.23304 0.38494 0.0
C1903 C 0.75571 0.24717 0.36505 0.0
C1904 C 0.7722 0.23857 0.34877 0.0
C1905 C 0.78476 0.21555 0.35291 0.0
H1906 H 0.61437 0.98876 0.23656 0.0
H1907 H 0.68047 0.03356 0.24062 0.0
H1908 H 0.67523 0.04419 0.1994 0.0
H1909 H 0.62156 0.96647 0.17436 0.0
H1910 H 0.58923 0.96806 0.16909 0.0
H1911 H 0.60136 0.95961 0.19723 0.0
H1912 H 0.57663 0.99598 0.21461 0.0
H1913 H 0.56514 0.0052 0.18658 0.0
H1914 H 0.58107 0.02805 0.20464 0.0
H1915 H 0.65724 0.05826 0.16112 0.0
H1916 H 0.63216 0.06799 0.12628 0.0
H1917 H 0.57982 0.01081 0.14634 0.0
C1918 C 0.62835 0.99971 0.22842 0.0
C1919 C 0.64788 0.0102 0.24155 0.0
C1920 C 0.66563 0.02496 0.23065 0.0
C1921 C 0.66269 0.03127 0.20731 0.0
C1922 C 0.64229 0.02201 0.19513 0.0
C1923 C 0.62591 0.00574 0.2051 0.0
C1924 C 0.60454 1.00001 0.18892 0.0
C1925 C 0.60416 0.97187 0.18198 0.0
C1926 C 0.58045 0.00779 0.19932 0.0
C1927 C 0.61066 0.01688 0.16892 0.0
C1928 C 0.6325 0.02936 0.1727 0.0
C1929 C 0.64053 0.0479 0.15758 0.0
C1930 C 0.62609 0.05336 0.13785 0.0
C1931 C 0.60391 0.04021 0.13335 0.0
C1932 C 0.59638 0.02164 0.14919 0.0
H1933 H 0.74545 0.80031 0.94464 0.0
H1934 H 0.70673 0.87096 0.9342 0.0
H1935 H 0.6929 0.85666 0.89543 0.0
H1936 H 0.76878 0.79871 0.89112 0.0
H1937 H 0.76721 0.76471 0.88794 0.0
H1938 H 0.76978 0.77844 0.91612 0.0
H1939 H 0.73078 0.75433 0.92735 0.0
H1940 H 0.72796 0.74077 0.89896 0.0
H1941 H 0.70318 0.75835 0.91024 0.0
H1942 H 0.68738 0.83698 0.85665 0.0
H1943 H 0.69446 0.81599 0.81965 0.0
H1944 H 0.73863 0.7595 0.85541 0.0
C1945 C 0.73358 0.81249 0.93439 0.0
C1946 C 0.72697 0.83659 0.94231 0.0
C1947 C 0.71193 0.85236 0.92832 0.0
C1948 C 0.70379 0.84429 0.90643 0.0
C1949 C 0.7109 0.82046 0.89895 0.0
C1950 C 0.72562 0.80488 0.91248 0.0
C1951 C 0.73363 0.78191 0.89938 0.0
C1952 C 0.76148 0.78091 0.89858 0.0
C1953 C 0.72326 0.75739 0.90959 0.0
C1954 C 0.72202 0.78756 0.87605 0.0
C1955 C 0.70839 0.80945 0.87629 0.0
C1956 C 0.69773 0.81963 0.85629 0.0
C1957 C 0.70197 0.80768 0.83536 0.0
C1958 C 0.71712 0.78613 0.83465 0.0
C1959 C 0.72644 0.7755 0.85539 0.0
H1960 H 0.8144 0.89823 0.99659 0.0
H1961 H 0.84315 0.83923 0.95353 0.0
H1962 H 0.8847 0.85395 0.96386 0.0
H1963 H 0.86322 0.94703 0.98846 0.0
H1964 H 0.86208 0.95653 0.01812 0.0
H1965 H 0.83504 0.94517 0.00306 0.0
H1966 H 0.82973 0.91142 0.03498 0.0
H1967 H 0.85712 0.92199 0.04974 0.0
H1968 H 0.85378 0.88923 0.04129 0.0
H1969 H 0.92273 0.87054 0.98381 0.0
H1970 H 0.9545 0.89084 0.00824 0.0
H1971 H 0.90003 0.93624 0.0406 0.0
C1972 C 0.8293 0.88895 0.98852 0.0
C1973 C 0.82544 0.86753 0.97422 0.0
C1974 C 0.8456 0.85577 0.96442 0.0
C1975 C 0.86928 0.86391 0.97029 0.0
C1976 C 0.87239 0.88385 0.98586 0.0
C1977 C 0.85292 0.8965 0.99452 0.0
C1978 C 0.8609 0.91539 0.01287 0.0
C1979 C 0.85497 0.94265 0.00516 0.0
C1980 C 0.84972 0.90911 0.03607 0.0
C1981 C 0.88787 0.91085 0.01373 0.0
C1982 C 0.89419 0.89285 0.99786 0.0
C1983 C 0.91801 0.88493 0.99606 0.0
C1984 C 0.93592 0.89635 0.01034 0.0
C1985 C 0.92997 0.91537 0.02638 0.0
C1986 C 0.90544 0.9222 0.02829 0.0
H1987 H 0.35512 0.56611 0.02712 0.0
H1988 H 0.36463 0.61204 0.96611 0.0
H1989 H 0.40524 0.59418 0.96187 0.0
H1990 H 0.41593 0.57473 0.04936 0.0
H1991 H 0.41894 0.54312 0.06097 0.0
H1992 H 0.38951 0.55754 0.05825 0.0
H1993 H 0.37364 0.51926 0.03409 0.0
H1994 H 0.40309 0.50478 0.03668 0.0
H1995 H 0.38913 0.51032 0.00865 0.0
H1996 H 0.44499 0.5728 0.96436 0.0
H1997 H 0.48326 0.55147 0.97534 0.0
H1998 H 0.45008 0.52051 0.03593 0.0
C1999 C 0.3657 0.57207 0.01275 0.0
C2000 C 0.35667 0.59036 0.99685 0.0
C2001 C 0.3712 0.59811 0.97852 0.0
C2002 C 0.39426 0.58797 0.97586 0.0
C2003 C 0.40282 0.57022 0.99185 0.0
C2004 C 0.38919 0.56245 0.01009 0.0
C2005 C 0.40372 0.54452 0.02569 0.0
C2006 C 0.40723 0.55565 0.05 0.0
C2007 C 0.39167 0.51815 0.02631 0.0
C2008 C 0.42754 0.54372 0.01341 0.0
C2009 C 0.4264 0.55841 0.99375 0.0
C2010 C 0.44613 0.56114 0.97969 0.0
C2011 C 0.46781 0.54889 0.98605 0.0
C2012 C 0.46977 0.53425 0.00646 0.0
C2013 C 0.44918 0.53144 0.02015 0.0
H2014 H 0.1719 0.62843 0.82533 0.0
H2015 H 0.21936 0.57142 0.79804 0.0
H2016 H 0.24455 0.60541 0.78161 0.0
H2017 H 0.17289 0.67094 0.77795 0.0
H2018 H 0.17308 0.69921 0.79534 0.0
H2019 H 0.1592 0.6705 0.80559 0.0
H2020 H 0.18668 0.67201 0.84272 0.0
H2021 H 0.20024 0.701 0.83276 0.0
H2022 H 0.21909 0.67427 0.84039 0.0
H2023 H 0.26442 0.64622 0.76772 0.0
H2024 H 0.27875 0.68999 0.76033 0.0
H2025 H 0.21732 0.71955 0.79593 0.0
C2026 C 0.18768 0.62297 0.81607 0.0
C2027 C 0.19357 0.59712 0.81302 0.0
C2028 C 0.21445 0.59102 0.80074 0.0
C2029 C 0.22882 0.61021 0.79121 0.0
C2030 C 0.22211 0.63545 0.7941 0.0
C2031 C 0.20217 0.64182 0.80646 0.0
C2032 C 0.19891 0.67031 0.80736 0.0
C2033 C 0.17458 0.67819 0.79587 0.0
C2034 C 0.20139 0.67996 0.83228 0.0
C2035 C 0.22002 0.67903 0.79341 0.0
C2036 C 0.23325 0.6587 0.7859 0.0
C2037 C 0.2541 0.66225 0.77343 0.0
C2038 C 0.26202 0.6872 0.76917 0.0
C2039 C 0.24906 0.7083 0.77728 0.0
C2040 C 0.22747 0.70395 0.78908 0.0
H2041 H 0.22468 0.45351 0.54473 0.0
H2042 H 0.24153 0.49067 0.48096 0.0
H2043 H 0.20471 0.51652 0.48314 0.0
H2044 H 0.16961 0.44256 0.53477 0.0
H2045 H 0.15665 0.44929 0.56204 0.0
H2046 H 0.18797 0.44097 0.56103 0.0
H2047 H 0.20116 0.48255 0.58158 0.0
H2048 H 0.16966 0.49073 0.58371 0.0
H2049 H 0.19032 0.51259 0.57063 0.0
H2050 H 0.16078 0.52414 0.48402 0.0
H2051 H 0.1165 0.52251 0.48938 0.0
H2052 H 0.12869 0.48423 0.5546 0.0
C2053 C 0.22142 0.46848 0.53224 0.0
C2054 C 0.23573 0.47043 0.51283 0.0
C2055 C 0.2309 0.48943 0.4962 0.0
C2056 C 0.20991 0.50404 0.49723 0.0
C2057 C 0.19468 0.49993 0.51547 0.0
C2058 C 0.2008 0.48354 0.53338 0.0
C2059 C 0.17991 0.47979 0.54919 0.0
C2060 C 0.17316 0.45149 0.55187 0.0
C2061 C 0.1856 0.49216 0.57266 0.0
C2062 C 0.16037 0.49413 0.53593 0.0
C2063 C 0.16925 0.50588 0.51666 0.0
C2064 C 0.15379 0.51616 0.4996 0.0
C2065 C 0.12875 0.51478 0.50254 0.0
C2066 C 0.11963 0.50347 0.52247 0.0
C2067 C 0.13556 0.49347 0.5395 0.0
H2068 H 0.88415 0.89114 0.82143 0.0
H2069 H 0.88211 0.94037 0.76158 0.0
H2070 H 0.86327 0.90606 0.73822 0.0
H2071 H 0.89512 0.83166 0.79201 0.0
H2072 H 0.87493 0.81309 0.80901 0.0
H2073 H 0.88992 0.84063 0.82127 0.0
H2074 H 0.84865 0.85973 0.83139 0.0
H2075 H 0.83342 0.83211 0.8196 0.0
H2076 H 0.82526 0.86325 0.80918 0.0
H2077 H 0.84613 0.86642 0.72085 0.0
H2078 H 0.82491 0.8258 0.71201 0.0
H2079 H 0.83327 0.80362 0.78355 0.0
C2080 C 0.87968 0.89454 0.80342 0.0
C2081 C 0.8845 0.91831 0.79322 0.0
C2082 C 0.8783 0.92231 0.76968 0.0
C2083 C 0.86784 0.90289 0.75623 0.0
C2084 C 0.86329 0.87965 0.76665 0.0
C2085 C 0.86848 0.87547 0.7898 0.0
C2086 C 0.85981 0.8493 0.79695 0.0
C2087 C 0.88121 0.8327 0.8053 0.0
C2088 C 0.84064 0.85122 0.81536 0.0
C2089 C 0.84881 0.83972 0.77426 0.0
C2090 C 0.85167 0.85727 0.7569 0.0
C2091 C 0.84358 0.85256 0.73431 0.0
C2092 C 0.83168 0.82948 0.7294 0.0
C2093 C 0.82744 0.81188 0.74715 0.0
C2094 C 0.83627 0.81697 0.76978 0.0
H2095 H 0.71127 0.08397 0.50138 0.0
H2096 H 0.69347 0.16267 0.51508 0.0
H2097 H 0.65331 0.14966 0.52692 0.0
H2098 H 0.65171 0.06689 0.47776 0.0
H2099 H 0.65168 0.03553 0.4902 0.0
H2100 H 0.67991 0.05058 0.48342 0.0
H2101 H 0.6954 0.04404 0.52559 0.0
H2102 H 0.66699 0.0293 0.53241 0.0
H2103 H 0.67807 0.05634 0.54867 0.0
H2104 H 0.61495 0.12959 0.53674 0.0
H2105 H 0.57857 0.10304 0.54106 0.0
H2106 H 0.61883 0.03668 0.52094 0.0
C2107 C 0.69892 0.0984 0.5069 0.0
C2108 C 0.70582 0.12441 0.50718 0.0
C2109 C 0.6889 0.14265 0.51445 0.0
C2110 C 0.66592 0.13548 0.52143 0.0
C2111 C 0.65973 0.10991 0.52105 0.0
C2112 C 0.67548 0.09157 0.51378 0.0
C2113 C 0.66334 0.06553 0.51418 0.0
C2114 C 0.66156 0.05396 0.48994 0.0
C2115 C 0.67676 0.04775 0.53123 0.0
C2116 C 0.6384 0.07235 0.52258 0.0
C2117 C 0.63698 0.09808 0.52663 0.0
C2118 C 0.6158 0.10936 0.53374 0.0
C2119 C 0.59522 0.09409 0.53619 0.0
C2120 C 0.59582 0.06775 0.53155 0.0
C2121 C 0.6179 0.05667 0.52506 0.0
H2122 H 0.22114 0.46392 0.78655 0.0
H2123 H 0.1712 0.435 0.83635 0.0
H2124 H 0.1903 0.393 0.83467 0.0
H2125 H 0.22106 0.40618 0.75193 0.0
H2126 H 0.25264 0.40887 0.74546 0.0
H2127 H 0.23536 0.43701 0.75069 0.0
H2128 H 0.26664 0.45024 0.78278 0.0
H2129 H 0.28389 0.42201 0.77779 0.0
H2130 H 0.2735 0.42861 0.80613 0.0
H2131 H 0.21552 0.35499 0.82934 0.0
H2132 H 0.2423 0.32099 0.81722 0.0
H2133 H 0.27513 0.37245 0.76871 0.0
C2134 C 0.2142 0.44869 0.797 0.0
C2135 C 0.19467 0.4528 0.81166 0.0
C2136 C 0.18602 0.43234 0.82495 0.0
C2137 C 0.19685 0.40842 0.82421 0.0
C2138 C 0.21618 0.40503 0.80985 0.0
C2139 C 0.22457 0.42439 0.79616 0.0
C2140 C 0.24512 0.41513 0.78167 0.0
C2141 C 0.23812 0.4169 0.75591 0.0
C2142 C 0.26868 0.42988 0.78744 0.0
C2143 C 0.24701 0.38764 0.78955 0.0
C2144 C 0.23027 0.38247 0.80602 0.0
C2145 C 0.22858 0.35873 0.81633 0.0
C2146 C 0.24403 0.33952 0.80934 0.0
C2147 C 0.2609 0.34389 0.79192 0.0
C2148 C 0.26249 0.36845 0.78205 0.0
H2149 H 0.35013 0.56556 0.28588 0.0
H2150 H 0.4095 0.58717 0.33294 0.0
H2151 H 0.39168 0.6296 0.33707 0.0
H2152 H 0.34686 0.6272 0.25699 0.0
H2153 H 0.31437 0.62601 0.25285 0.0
H2154 H 0.33148 0.59703 0.25397 0.0
H2155 H 0.30509 0.58069 0.28686 0.0
H2156 H 0.28815 0.60979 0.28607 0.0
H2157 H 0.30287 0.59941 0.31257 0.0
H2158 H 0.36644 0.66818 0.33834 0.0
H2159 H 0.33918 0.70427 0.33125 0.0
H2160 H 0.29772 0.6599 0.28052 0.0
C2161 C 0.3594 0.57936 0.29688 0.0
C2162 C 0.38113 0.57317 0.30916 0.0
C2163 C 0.39293 0.59165 0.32328 0.0
C2164 C 0.38284 0.6157 0.3259 0.0
C2165 C 0.36121 0.62111 0.31391 0.0
C2166 C 0.34991 0.60379 0.29922 0.0
C2167 C 0.32752 0.61517 0.28744 0.0
C2168 C 0.33023 0.61643 0.26126 0.0
C2169 C 0.30455 0.60038 0.29361 0.0
C2170 C 0.32795 0.64146 0.29803 0.0
C2171 C 0.34731 0.6442 0.31358 0.0
C2172 C 0.35134 0.66641 0.32604 0.0
C2173 C 0.33561 0.68674 0.322 0.0
C2174 C 0.31634 0.68492 0.3053 0.0
C2175 C 0.3123 0.66183 0.29337 0.0
H2176 H 0.59082 0.65607 0.61653 0.0
H2177 H 0.5215 0.66436 0.64767 0.0
H2178 H 0.51225 0.61906 0.64025 0.0
H2179 H 0.57306 0.62582 0.57217 0.0
H2180 H 0.59752 0.60369 0.56939 0.0
H2181 H 0.60283 0.63287 0.58445 0.0
H2182 H 0.61806 0.60867 0.62091 0.0
H2183 H 0.61352 0.57913 0.6057 0.0
H2184 H 0.59954 0.58398 0.63281 0.0
H2185 H 0.50562 0.57846 0.61875 0.0
H2186 H 0.50445 0.54461 0.58918 0.0
H2187 H 0.57856 0.56312 0.57301 0.0
C2188 C 0.57439 0.64778 0.62298 0.0
C2189 C 0.55691 0.66318 0.63271 0.0
C2190 C 0.53522 0.65242 0.64053 0.0
C2191 C 0.52985 0.62677 0.63634 0.0
C2192 C 0.54671 0.61231 0.62494 0.0
C2193 C 0.569 0.62225 0.61912 0.0
C2194 C 0.58231 0.60451 0.60377 0.0
C2195 C 0.58928 0.61751 0.58113 0.0
C2196 C 0.60467 0.59341 0.61657 0.0
C2197 C 0.56299 0.58451 0.59976 0.0
C2198 C 0.54286 0.58872 0.61259 0.0
C2199 C 0.5216 0.57445 0.60922 0.0
C2200 C 0.52096 0.5555 0.59225 0.0
C2201 C 0.54131 0.55155 0.57871 0.0
C2202 C 0.56265 0.56581 0.58303 0.0
H2203 H 0.60515 0.26102 0.83644 0.0
H2204 H 0.63022 0.25659 0.90791 0.0
H2205 H 0.67211 0.25197 0.89578 0.0
H2206 H 0.64838 0.21558 0.814 0.0
H2207 H 0.65336 0.23306 0.78792 0.0
H2208 H 0.62477 0.23542 0.80171 0.0
H2209 H 0.62964 0.28424 0.80353 0.0
H2210 H 0.65821 0.28201 0.78971 0.0
H2211 H 0.65663 0.29785 0.81702 0.0
H2212 H 0.71137 0.24825 0.87685 0.0
H2213 H 0.74635 0.24683 0.85233 0.0
H2214 H 0.69865 0.25416 0.79163 0.0
C2215 C 0.61946 0.25893 0.84951 0.0
C2216 C 0.61405 0.25911 0.87331 0.0
C2217 C 0.63354 0.25654 0.88969 0.0
C2218 C 0.65756 0.25385 0.88293 0.0
C2219 C 0.66228 0.25383 0.85957 0.0
C2220 C 0.64391 0.25639 0.843 0.0
C2221 C 0.65457 0.25635 0.81904 0.0
C2222 C 0.64467 0.23376 0.80482 0.0
C2223 C 0.64945 0.28162 0.80659 0.0
C2224 C 0.6817 0.25337 0.82483 0.0
C2225 C 0.68545 0.25189 0.84841 0.0
C2226 C 0.70861 0.24938 0.85838 0.0
C2227 C 0.72851 0.24861 0.84412 0.0
C2228 C 0.72569 0.25035 0.81979 0.0
C2229 C 0.70169 0.25257 0.81005 0.0
H2230 H 0.01525 0.30464 0.11243 0.0
H2231 H 0.07037 0.30956 0.16731 0.0
H2232 H 0.0876 0.3478 0.1491 0.0
H2233 H 0.05146 0.32562 0.06616 0.0
H2234 H 0.0277 0.34413 0.05242 0.0
H2235 H 0.02019 0.31661 0.06921 0.0
H2236 H 0.99289 0.34389 0.09462 0.0
H2237 H 0.99984 0.37129 0.07752 0.0
H2238 H 0.00535 0.37205 0.10823 0.0
H2239 H 0.09947 0.38432 0.12412 0.0
H2240 H 0.10081 0.42147 0.09837 0.0
H2241 H 0.03569 0.39432 0.0618 0.0
C2242 C 0.03081 0.31398 0.12065 0.0
C2243 C 0.04151 0.30447 0.1412 0.0
C2244 C 0.06179 0.31697 0.15168 0.0
C2245 C 0.07186 0.33841 0.14132 0.0
C2246 C 0.06114 0.3471 0.12075 0.0
C2247 C 0.04073 0.33566 0.11084 0.0
C2248 C 0.03169 0.34976 0.08961 0.0
C2249 C 0.03284 0.33303 0.06808 0.0
C2250 C 0.00593 0.35986 0.09269 0.0
C2251 C 0.05015 0.37104 0.08919 0.0
C2252 C 0.06729 0.36884 0.10698 0.0
C2253 C 0.08602 0.38641 0.11025 0.0
C2254 C 0.08658 0.40746 0.09558 0.0
C2255 C 0.06818 0.41101 0.07823 0.0
C2256 C 0.05023 0.39207 0.07462 0.0
H2257 H 0.93603 0.75987 0.39648 0.0
H2258 H 0.98791 0.76714 0.34261 0.0
H2259 H 0.9541 0.76975 0.31365 0.0
H2260 H 0.89265 0.7205 0.3637 0.0
H2261 H 0.86654 0.735 0.37576 0.0
H2262 H 0.89476 0.73365 0.39228 0.0
H2263 H 0.89396 0.78241 0.39754 0.0
H2264 H 0.8658 0.78391 0.38095 0.0
H2265 H 0.89146 0.80264 0.37256 0.0
H2266 H 0.91439 0.77314 0.29044 0.0
H2267 H 0.87242 0.77447 0.27457 0.0
H2268 H 0.84556 0.76347 0.34304 0.0
C2269 C 0.94036 0.76195 0.37859 0.0
C2270 C 0.96491 0.76336 0.37198 0.0
C2271 C 0.96948 0.76594 0.34828 0.0
C2272 C 0.95031 0.76752 0.33165 0.0
C2273 C 0.92644 0.76625 0.33879 0.0
C2274 C 0.92139 0.76327 0.3617 0.0
C2275 C 0.89409 0.76209 0.36474 0.0
C2276 C 0.88657 0.73627 0.37471 0.0
C2277 C 0.88585 0.78407 0.37984 0.0
C2278 C 0.88454 0.76513 0.34001 0.0
C2279 C 0.90357 0.76761 0.32536 0.0
C2280 C 0.89942 0.77109 0.30179 0.0
C2281 C 0.87538 0.77189 0.29292 0.0
C2282 C 0.85541 0.76909 0.30742 0.0
C2283 C 0.86026 0.76565 0.33137 0.0
H2284 H 0.55603 0.35491 0.91331 0.0
H2285 H 0.5174 0.30198 0.95617 0.0
H2286 H 0.51001 0.33615 0.98368 0.0
H2287 H 0.58548 0.38917 0.95971 0.0
H2288 H 0.58309 0.41991 0.94619 0.0
H2289 H 0.58433 0.39174 0.9288 0.0
H2290 H 0.54407 0.4042 0.90766 0.0
H2291 H 0.5428 0.43247 0.92493 0.0
H2292 H 0.51773 0.41035 0.92409 0.0
H2293 H 0.50809 0.3755 0.00789 0.0
H2294 H 0.51126 0.41757 0.02648 0.0
H2295 H 0.55115 0.44601 0.96882 0.0
C2296 C 0.5457 0.35064 0.9283 0.0
C2297 C 0.5372 0.32557 0.93237 0.0
C2298 C 0.5241 0.32086 0.95248 0.0
C2299 C 0.51978 0.34022 0.96831 0.0
C2300 C 0.52867 0.36452 0.96407 0.0
C2301 C 0.54129 0.3699 0.94453 0.0
C2302 C 0.54944 0.39762 0.94465 0.0
C2303 C 0.57723 0.39972 0.94485 0.0
C2304 C 0.53781 0.41201 0.92411 0.0
C2305 C 0.53957 0.40677 0.96729 0.0
C2306 C 0.52761 0.38733 0.97816 0.0
C2307 C 0.51732 0.39091 -0.00054 0.0
C2308 C 0.51924 0.41494 0.00994 0.0
C2309 C 0.53137 0.43532 -0.00076 0.0
C2310 C 0.54162 0.43099 0.97752 0.0
H2311 H 0.99563 0.24807 0.22439 0.0
H2312 H 0.99099 0.17709 0.18733 0.0
H2313 H 0.95644 0.16362 0.21048 0.0
H2314 H 0.97286 0.2228 0.28202 0.0
H2315 H 0.95638 0.25173 0.28616 0.0
H2316 H 0.98462 0.2525 0.27158 0.0
H2317 H 0.96314 0.27467 0.23672 0.0
H2318 H 0.93495 0.27379 0.25102 0.0
H2319 H 0.93695 0.25974 0.22295 0.0
H2320 H 0.91766 0.1624 0.2306 0.0
H2321 H 0.87817 0.17316 0.24654 0.0
H2322 H 0.90792 0.24511 0.27056 0.0
C2323 C 0.98804 0.22918 0.22214 0.0
C2324 C 0.99607 0.2132 0.20475 0.0
C2325 C 0.98525 0.18914 0.20114 0.0
C2326 C 0.96571 0.18139 0.2142 0.0
C2327 C 0.95743 0.19799 0.23077 0.0
C2328 C 0.96849 0.22129 0.235 0.0
C2329 C 0.95393 0.23729 0.25094 0.0
C2330 C 0.96778 0.24131 0.27405 0.0
C2331 C 0.94682 0.26285 0.23972 0.0
C2332 C 0.93214 0.22017 0.25368 0.0
C2333 C 0.93473 0.19732 0.24242 0.0
C2334 C 0.91568 0.17988 0.24006 0.0
C2335 C 0.89329 0.1862 0.24899 0.0
C2336 C 0.89015 0.20982 0.25998 0.0
C2337 C 0.91005 0.22658 0.2629 0.0
H2338 H 0.03517 0.69867 0.4728 0.0
H2339 H 0.05064 0.67444 0.40366 0.0
H2340 H 0.05653 0.63049 0.41819 0.0
H2341 H 0.07843 0.65708 0.50327 0.0
H2342 H 0.05861 0.65157 0.52671 0.0
H2343 H 0.05721 0.68113 0.5111 0.0
H2344 H 0.01135 0.67393 0.50247 0.0
H2345 H 0.0126 0.64431 0.51793 0.0
H2346 H 1.00118 0.64503 0.48853 0.0
H2347 H 0.05744 0.58875 0.4399 0.0
H2348 H 0.05532 0.55276 0.46661 0.0
H2349 H 0.03997 0.60411 0.52236 0.0
C2350 C 0.04002 0.68426 0.4606 0.0
C2351 C 0.04236 0.69018 0.4369 0.0
C2352 C 0.04884 0.67057 0.42179 0.0
C2353 C 0.05215 0.64552 0.42994 0.0
C2354 C 0.04918 0.6404 0.4533 0.0
C2355 C 0.0435 0.65932 0.46844 0.0
C2356 C 0.04069 0.64884 0.49261 0.0
C2357 C 0.05988 0.66034 0.50941 0.0
C2358 C 0.01493 0.65329 0.50086 0.0
C2359 C 0.04524 0.62082 0.48874 0.0
C2360 C 0.05012 0.61646 0.46591 0.0
C2361 C 0.05387 0.59207 0.4578 0.0
C2362 C 0.0525 0.57167 0.47322 0.0
C2363 C 0.04749 0.57543 0.49676 0.0
C2364 C 0.0441 0.60052 0.50463 0.0
H2365 H 0.6159 0.77156 0.67307 0.0
H2366 H 0.6355 0.76989 0.60155 0.0
H2367 H 0.67707 0.78308 0.61289 0.0
H2368 H 0.65777 0.82598 0.69109 0.0
H2369 H 0.66434 0.81121 0.71856 0.0
H2370 H 0.63495 0.80697 0.70447 0.0
H2371 H 0.63992 0.75806 0.70681 0.0
H2372 H 0.66907 0.76222 0.72098 0.0
H2373 H 0.66626 0.74373 0.695 0.0
H2374 H 0.71771 0.78691 0.63225 0.0
H2375 H 0.75369 0.78164 0.65829 0.0
H2376 H 0.70756 0.78375 0.71692 0.0
C2377 C 0.62874 0.77463 0.65972 0.0
C2378 C 0.62245 0.76955 0.63647 0.0
C2379 C 0.63986 0.77363 0.61952 0.0
C2380 C 0.66351 0.78132 0.62576 0.0
C2381 C 0.66936 0.78535 0.64894 0.0
C2382 C 0.65237 0.78248 0.66564 0.0
C2383 C 0.66385 0.78493 0.6895 0.0
C2384 C 0.65468 0.8087 0.70162 0.0
C2385 C 0.65953 0.7608 0.70389 0.0
C2386 C 0.69017 0.7879 0.68365 0.0
C2387 C 0.69298 0.78857 0.66016 0.0
C2388 C 0.71578 0.78726 0.65068 0.0
C2389 C 0.73611 0.78422 0.66556 0.0
C2390 C 0.7334 0.78259 0.68958 0.0
C2391 C 0.71027 0.78565 0.69867 0.0
H2392 H 0.59457 0.46923 0.69539 0.0
H2393 H 0.67205 0.47728 0.68742 0.0
H2394 H 0.66642 0.46773 0.64603 0.0
H2395 H 0.58407 0.41817 0.65057 0.0
H2396 H 0.55533 0.43171 0.64168 0.0
H2397 H 0.56609 0.4342 0.67122 0.0
H2398 H 0.56159 0.48313 0.66912 0.0
H2399 H 0.55092 0.48078 0.63969 0.0
H2400 H 0.57679 0.50056 0.64712 0.0
H2401 H 0.65132 0.46623 0.60469 0.0
H2402 H 0.62831 0.47077 0.56766 0.0
H2403 H 0.56105 0.46146 0.60294 0.0
C2404 C 0.61047 0.46823 0.6851 0.0
C2405 C 0.63375 0.47402 0.69466 0.0
C2406 C 0.65405 0.47271 0.68055 0.0
C2407 C 0.65102 0.46729 0.65699 0.0
C2408 C 0.62766 0.46268 0.64794 0.0
C2409 C 0.60778 0.46263 0.66169 0.0
C2410 C 0.58436 0.45968 0.64758 0.0
C2411 C 0.57172 0.43443 0.65309 0.0
C2412 C 0.56745 0.48239 0.65108 0.0
C2413 C 0.59402 0.45948 0.62361 0.0
C2414 C 0.61905 0.46092 0.62412 0.0
C2415 C 0.63178 0.46431 0.60407 0.0
C2416 C 0.61857 0.4669 0.58311 0.0
C2417 C 0.59292 0.46601 0.58238 0.0
C2418 C 0.58065 0.46141 0.60283 0.0
H2419 H 0.78935 0.39162 0.9714 0.0
H2420 H 0.81949 0.33887 0.02213 0.0
H2421 H 0.83452 0.31224 0.99136 0.0
H2422 H 0.76831 0.34482 0.93202 0.0
H2423 H 0.7754 0.36248 0.90656 0.0
H2424 H 0.76888 0.37903 0.93259 0.0
H2425 H 0.81006 0.40277 0.9311 0.0
H2426 H 0.81674 0.38617 0.90507 0.0
H2427 H 0.83762 0.38482 0.92959 0.0
H2428 H 0.84345 0.28931 0.95584 0.0
H2429 H 0.84513 0.27111 0.91684 0.0
H2430 H 0.80974 0.33806 0.88851 0.0
C2431 C 0.79939 0.37465 0.97597 0.0
C2432 C 0.80337 0.36747 -0.00082 0.0
C2433 C 0.81631 0.34493 0.0045 0.0
C2434 C 0.82502 0.32963 0.98713 0.0
C2435 C 0.82071 0.33707 0.96446 0.0
C2436 C 0.80822 0.35899 0.95874 0.0
C2437 C 0.80482 0.36159 0.93288 0.0
C2438 C 0.77775 0.36199 0.9256 0.0
C2439 C 0.81811 0.38525 0.92415 0.0
C2440 C 0.81684 0.33742 0.92514 0.0
C2441 C 0.82606 0.32371 0.94368 0.0
C2442 C 0.83662 0.29999 0.94111 0.0
C2443 C 0.83745 0.28978 0.91898 0.0
C2444 C 0.82783 0.30333 0.89978 0.0
C2445 C 0.81776 0.32762 0.90289 0.0
H2446 H 0.95975 0.48606 0.18994 0.0
H2447 H 0.91448 0.55279 0.1927 0.0
H2448 H 0.93102 0.56794 0.15602 0.0
H2449 H 0.01106 0.51541 0.17068 0.0
H2450 H 0.01984 0.49027 0.15183 0.0
H2451 H 1.0023 0.48305 0.17647 0.0
H2452 H 0.96915 0.46139 0.15046 0.0
H2453 H 0.98691 0.46794 0.12576 0.0
H2454 H 0.95597 0.47854 0.1263 0.0
H2455 H 0.95672 0.57805 0.12151 0.0
H2456 H 0.98478 0.57958 0.08944 0.0
H2457 H 0.01266 0.50565 0.10954 0.0
C2458 C 0.95278 0.50353 0.1825 0.0
C2459 C 0.93574 0.51822 0.1941 0.0
C2460 C 0.92723 0.54105 0.18392 0.0
C2461 C 0.93672 0.54989 0.16322 0.0
C2462 C 0.95439 0.53546 0.15281 0.0
C2463 C 0.96187 0.51244 0.16187 0.0
C2464 C 0.9816 0.50083 0.14793 0.0
C2465 C 0.00508 0.49719 0.16261 0.0
C2466 C 0.97288 0.47569 0.13696 0.0
C2467 C 0.98465 0.52125 0.12994 0.0
C2468 C 0.96883 0.54108 0.133 0.0
C2469 C 0.96894 0.56246 0.11883 0.0
C2470 C 0.98513 0.56324 0.10077 0.0
C2471 C 1.00102 0.54276 0.09694 0.0
C2472 C 1.00083 0.52165 0.11196 0.0
H2473 H 0.83568 0.61857 0.42253 0.0
H2474 H 0.77132 0.58471 0.45031 0.0
H2475 H 0.74571 0.61175 0.42478 0.0
H2476 H 0.81722 0.67733 0.42583 0.0
H2477 H 0.83014 0.68965 0.40006 0.0
H2478 H 0.84355 0.66267 0.41431 0.0
H2479 H 0.83872 0.63555 0.3773 0.0
H2480 H 0.8264 0.66287 0.36245 0.0
H2481 H 0.80957 0.63342 0.36239 0.0
H2482 H 0.72765 0.64886 0.4021 0.0
H2483 H 0.71909 0.68896 0.3807 0.0
H2484 H 0.79603 0.6995 0.37147 0.0
C2485 C 0.81621 0.61584 0.42225 0.0
C2486 C 0.80543 0.59959 0.43815 0.0
C2487 C 0.7799 0.59677 0.43785 0.0
C2488 C 0.76522 0.61226 0.42358 0.0
C2489 C 0.77649 0.63006 0.4097 0.0
C2490 C 0.80147 0.6314 0.40852 0.0
C2491 C 0.80947 0.65423 0.39501 0.0
C2492 C 0.82605 0.67199 0.40969 0.0
C2493 C 0.82175 0.64602 0.37297 0.0
C2494 C 0.78525 0.66619 0.38966 0.0
C2495 C 0.76632 0.65193 0.39784 0.0
C2496 C 0.74233 0.65999 0.39536 0.0
C2497 C 0.73765 0.68285 0.38354 0.0
C2498 C 0.75698 0.69748 0.37506 0.0
C2499 C 0.78097 0.68903 0.37837 0.0
H2500 H 0.66697 0.51248 0.83762 0.0
H2501 H 0.60352 0.52248 0.79239 0.0
H2502 H 0.5801 0.5363 0.82528 0.0
H2503 H 0.63585 0.48545 0.88305 0.0
H2504 H 0.65411 0.50017 0.90568 0.0
H2505 H 0.66686 0.49428 0.87823 0.0
H2506 H 0.67829 0.5419 0.87476 0.0
H2507 H 0.66553 0.54793 0.90226 0.0
H2508 H 0.65516 0.5656 0.87728 0.0
H2509 H 0.56261 0.5458 0.86326 0.0
H2510 H 0.55169 0.54775 0.9039 0.0
H2511 H 0.62615 0.53114 0.92495 0.0
C2512 C 0.6483 0.5181 0.83461 0.0
C2513 C 0.63712 0.51664 0.81242 0.0
C2514 C 0.61249 0.52355 0.80922 0.0
C2515 C 0.59904 0.53155 0.82779 0.0
C2516 C 0.61045 0.53246 0.84951 0.0
C2517 C 0.6345 0.52585 0.85306 0.0
C2518 C 0.64176 0.52635 0.87844 0.0
C2519 C 0.65013 0.49999 0.88683 0.0
C2520 C 0.66135 0.54666 0.88347 0.0
C2521 C 0.61789 0.53361 0.88859 0.0
C2522 C 0.60019 0.53748 0.87158 0.0
C2523 C 0.57639 0.54316 0.87674 0.0
C2524 C 0.57039 0.5444 0.89991 0.0
C2525 C 0.58805 0.53974 0.91768 0.0
C2526 C 0.61221 0.53479 0.9118 0.0
H2527 H 0.82755 0.3532 0.126 0.0
H2528 H 0.75989 0.39394 0.11645 0.0
H2529 H 0.74572 0.37551 0.15279 0.0
H2530 H 0.8034 0.29702 0.14512 0.0
H2531 H 0.8272 0.28994 0.16614 0.0
H2532 H 0.83368 0.30901 0.14141 0.0
H2533 H 0.85023 0.34538 0.16761 0.0
H2534 H 0.84447 0.32612 0.19246 0.0
H2535 H 0.83172 0.35744 0.18994 0.0
H2536 H 0.73719 0.34852 0.18727 0.0
H2537 H 0.73656 0.31945 0.22039 0.0
H2538 H 0.80996 0.29592 0.20727 0.0
C2539 C 0.81 0.35883 0.13186 0.0
C2540 C 0.79481 0.37508 0.11844 0.0
C2541 C 0.77194 0.38184 0.12661 0.0
C2542 C 0.76368 0.37127 0.14711 0.0
C2543 C 0.77866 0.35426 0.15925 0.0
C2544 C 0.80156 0.34853 0.1522 0.0
C2545 C 0.81371 0.32888 0.16773 0.0
C2546 C 0.81985 0.30479 0.15429 0.0
C2547 C 0.83637 0.34013 0.18018 0.0
C2548 C 0.79378 0.3238 0.1843 0.0
C2549 C 0.77377 0.33871 0.17913 0.0
C2550 C 0.75287 0.33703 0.19164 0.0
C2551 C 0.75267 0.3203 0.21035 0.0
C2552 C 0.77324 0.30536 0.21645 0.0
C2553 C 0.79391 0.3069 0.20296 0.0
H2554 H 0.91671 0.4896 0.33177 0.0
H2555 H 0.96194 0.54824 0.30287 0.0
H2556 H 0.99055 0.54501 0.33633 0.0
H2557 H 0.92694 0.50622 0.3924 0.0
H2558 H 0.92838 0.47368 0.40193 0.0
H2559 H 0.91032 0.48191 0.37663 0.0
H2560 H 0.93368 0.44915 0.35299 0.0
H2561 H 0.95191 0.44094 0.37819 0.0
H2562 H 0.96625 0.45122 0.35243 0.0
H2563 H 0.01365 0.5362 0.37243 0.0
H2564 H 0.03149 0.52145 0.40898 0.0
H2565 H 0.97436 0.46436 0.41324 0.0
C2566 C 0.9324 0.50205 0.33287 0.0
C2567 C 0.93705 0.51955 0.31514 0.0
C2568 C 0.95809 0.53498 0.31653 0.0
C2569 C 0.9744 0.53325 0.3354 0.0
C2570 C 0.96962 0.5156 0.35249 0.0
C2571 C 0.94928 0.50012 0.35143 0.0
C2572 C 0.94944 0.48179 0.3716 0.0
C2573 C 0.92746 0.48617 0.38652 0.0
C2574 C 0.95038 0.45413 0.3633 0.0
C2575 C 0.97293 0.48959 0.38415 0.0
C2576 C 0.98405 0.50926 0.37283 0.0
C2577 C 0.00538 0.52049 0.38131 0.0
C2578 C 0.01561 0.51158 0.40208 0.0
C2579 C 0.00488 0.49114 0.41414 0.0
C2580 C 0.98323 0.47996 0.40475 0.0
H2581 H 0.86981 0.62596 0.55459 0.0
H2582 H 0.87608 0.69284 0.51145 0.0
H2583 H 0.88192 0.71928 0.54585 0.0
H2584 H 0.83431 0.64916 0.59171 0.0
H2585 H 0.84692 0.63525 0.61778 0.0
H2586 H 0.85133 0.62011 0.59073 0.0
H2587 H 0.89784 0.62163 0.59772 0.0
H2588 H 0.89369 0.63625 0.62527 0.0
H2589 H 0.91267 0.65138 0.60468 0.0
H2590 H 0.87277 0.73903 0.58244 0.0
H2591 H 0.85594 0.75039 0.61899 0.0
H2592 H 0.86086 0.67146 0.641 0.0
C2593 C 0.87364 0.64598 0.55235 0.0
C2594 C 0.87219 0.6573 0.5303 0.0
C2595 C 0.87703 0.68363 0.52811 0.0
C2596 C 0.88043 0.69888 0.54761 0.0
C2597 C 0.87967 0.68745 0.56917 0.0
C2598 C 0.87728 0.66145 0.57171 0.0
C2599 C 0.87367 0.65437 0.59662 0.0
C2600 C 0.85016 0.63883 0.59934 0.0
C2601 C 0.89579 0.64006 0.60667 0.0
C2602 C 0.8719 0.68052 0.60715 0.0
C2603 C 0.87584 0.6993 0.59111 0.0
C2604 C 0.87086 0.72463 0.59554 0.0
C2605 C 0.86128 0.73091 0.61669 0.0
C2606 C 0.85703 0.71202 0.63358 0.0
C2607 C 0.86345 0.68662 0.62878 0.0
H2608 H 0.76467 0.61735 0.52281 0.0
H2609 H 0.75496 0.65619 0.45734 0.0
H2610 H 0.71094 0.64804 0.45804 0.0
H2611 H 0.72984 0.56829 0.50927 0.0
H2612 H 0.71691 0.56323 0.5369 0.0
H2613 H 0.74594 0.57847 0.5352 0.0
H2614 H 0.73065 0.61759 0.55715 0.0
H2615 H 0.70157 0.6022 0.55953 0.0
H2616 H 0.70346 0.63342 0.54698 0.0
H2617 H 0.66984 0.62803 0.46199 0.0
H2618 H 0.63545 0.59904 0.46938 0.0
H2619 H 0.67319 0.5716 0.53102 0.0
C2620 C 0.7532 0.62512 0.50907 0.0
C2621 C 0.76323 0.63736 0.49003 0.0
C2622 C 0.74765 0.64696 0.47224 0.0
C2623 C 0.72259 0.64238 0.47248 0.0
C2624 C 0.71351 0.62856 0.49078 0.0
C2625 C 0.72836 0.62045 0.50896 0.0
C2626 C 0.71519 0.60266 0.52471 0.0
C2627 C 0.72771 0.57664 0.5266 0.0
C2628 C 0.71256 0.6147 0.5485 0.0
C2629 C 0.69104 0.60075 0.51184 0.0
C2630 C 0.6901 0.61633 0.49267 0.0
C2631 C 0.67019 0.6162 0.47722 0.0
C2632 C 0.65084 0.59964 0.48146 0.0
C2633 C 0.65191 0.58315 0.50069 0.0
C2634 C 0.67207 0.58403 0.51617 0.0
H2635 H 0.19613 0.90894 0.55843 0.0
H2636 H 0.236 0.97927 0.54903 0.0
H2637 H 0.19751 0.0026 0.54533 0.0
H2638 H 0.14734 0.9217 0.51886 0.0
H2639 H 0.12417 0.90787 0.53605 0.0
H2640 H 0.15483 0.89656 0.5389 0.0
H2641 H 0.15544 0.90575 0.5826 0.0
H2642 H 0.12472 0.917 0.5799 0.0
H2643 H 0.14818 0.9371 0.59248 0.0
H2644 H 0.15501 0.01771 0.53871 0.0
H2645 H 0.11091 0.02445 0.53358 0.0
H2646 H 0.09772 0.94545 0.55039 0.0
C2647 C 0.19674 0.92929 0.55585 0.0
C2648 C 0.21915 0.94227 0.55399 0.0
C2649 C 0.21914 0.96891 0.55063 0.0
C2650 C 0.19733 0.98234 0.54843 0.0
C2651 C 0.17559 0.969 0.55002 0.0
C2652 C 0.17506 0.94314 0.55403 0.0
C2653 C 0.14909 0.9335 0.555 0.0
C2654 C 0.14354 0.91374 0.53608 0.0
C2655 C 0.14407 0.9227 0.57892 0.0
C2656 C 0.13516 0.95788 0.55043 0.0
C2657 C 0.15088 0.97806 0.54743 0.0
C2658 C 0.14252 0.00217 0.54145 0.0
C2659 C 0.11746 0.0058 0.53849 0.0
C2660 C 0.10095 0.98559 0.54192 0.0
C2661 C 0.10995 0.96135 0.54816 0.0
H2662 H 0.41051 0.92222 0.77527 0.0
H2663 H 0.35758 0.98241 0.77908 0.0
H2664 H 0.32725 0.9513 0.79217 0.0
H2665 H 0.3695 0.87561 0.75252 0.0
H2666 H 0.38362 0.84966 0.76803 0.0
H2667 H 0.40133 0.87704 0.76056 0.0
H2668 H 0.41453 0.88284 0.80346 0.0
H2669 H 0.39656 0.85562 0.81107 0.0
H2670 H 0.39174 0.88578 0.82466 0.0
H2671 H 0.30237 0.91311 0.80407 0.0
H2672 H 0.2839 0.87076 0.80956 0.0
H2673 H 0.35303 0.83571 0.79698 0.0
C2674 C 0.3926 0.92895 0.77903 0.0
C2675 C 0.38648 0.95483 0.77625 0.0
C2676 C 0.3627 0.9627 0.78102 0.0
C2677 C 0.3454 0.94519 0.78863 0.0
C2678 C 0.3521 0.91984 0.79128 0.0
C2679 C 0.37507 0.91171 0.78637 0.0
C2680 C 0.37728 0.88322 0.78912 0.0
C2681 C 0.38328 0.87065 0.7662 0.0
C2682 C 0.39615 0.87648 0.80822 0.0
C2683 C 0.35188 0.87649 0.79611 0.0
C2684 C 0.3377 0.89789 0.79761 0.0
C2685 C 0.31335 0.89625 0.80305 0.0
C2686 C 0.30305 0.87209 0.80629 0.0
C2687 C 0.317 0.84985 0.80381 0.0
C2688 C 0.34189 0.85229 0.79922 0.0
H2689 H 0.3935 0.12946 0.03955 0.0
H2690 H 0.34187 0.06703 0.03431 0.0
H2691 H 0.37546 0.03644 0.0366 0.0
H2692 H 0.43856 0.10278 0.00593 0.0
H2693 H 0.4638 0.11439 0.02352 0.0
H2694 H 0.43566 0.13143 0.02245 0.0
H2695 H 0.43382 0.12845 0.06681 0.0
H2696 H 0.46199 0.11137 0.068 0.0
H2697 H 0.43552 0.09781 0.08061 0.0
H2698 H 0.41427 0.01308 0.03518 0.0
H2699 H 0.45647 0.99798 0.03347 0.0
H2700 H 0.48292 0.07506 0.04308 0.0
C2701 C 0.38933 0.10934 0.03904 0.0
C2702 C 0.36521 0.10051 0.03667 0.0
C2703 C 0.3603 0.07411 0.0362 0.0
C2704 C 0.37922 0.05661 0.03748 0.0
C2705 C 0.40283 0.06589 0.03965 0.0
C2706 C 0.40799 0.09159 0.04077 0.0
C2707 C 0.43501 0.09646 0.04293 0.0
C2708 C 0.44376 0.11219 0.02249 0.0
C2709 C 0.44199 0.10928 0.06596 0.0
C2710 C 0.44421 0.06951 0.04223 0.0
C2711 C 0.42533 0.05219 0.04022 0.0
C2712 C 0.42924 0.02634 0.03727 0.0
C2713 C 0.45316 0.01796 0.03625 0.0
C2714 C 0.47268 0.03538 0.03859 0.0
C2715 C 0.46819 0.06137 0.0419 0.0
H2716 H 0.70475 0.56412 0.74275 0.0
H2717 H 0.6326 0.59666 0.74043 0.0
H2718 H 0.64994 0.63817 0.73027 0.0
H2719 H 0.73459 0.61667 0.76881 0.0
H2720 H 0.76179 0.61388 0.75284 0.0
H2721 H 0.74358 0.58617 0.75816 0.0
H2722 H 0.74011 0.57727 0.7144 0.0
H2723 H 0.75818 0.60512 0.70893 0.0
H2724 H 0.72857 0.60155 0.69515 0.0
H2725 H 0.67476 0.67656 0.72349 0.0
H2726 H 0.70604 0.71012 0.72179 0.0
H2727 H 0.76238 0.65335 0.72728 0.0
C2728 C 0.69254 0.5799 0.7399 0.0
C2729 C 0.66725 0.57701 0.74237 0.0
C2730 C 0.652 0.59827 0.73866 0.0
C2731 C 0.66166 0.62195 0.73275 0.0
C2732 C 0.6866 0.62411 0.73046 0.0
C2733 C 0.70188 0.60372 0.73395 0.0
C2734 C 0.72818 0.61162 0.73167 0.0
C2735 C 0.74289 0.6068 0.75421 0.0
C2736 C 0.73942 0.59808 0.71132 0.0
C2737 C 0.72529 0.63977 0.72694 0.0
C2738 C 0.70108 0.64644 0.72611 0.0
C2739 C 0.69373 0.67155 0.7237 0.0
C2740 C 0.71159 0.69044 0.72272 0.0
C2741 C 0.73646 0.68413 0.72395 0.0
C2742 C 0.74344 0.65846 0.72557 0.0
H2743 H 0.89083 0.4099 0.03986 0.0
H2744 H 0.83574 0.46808 0.03304 0.0
H2745 H 0.86747 0.49957 0.02357 0.0
H2746 H 0.93636 0.44887 0.06694 0.0
H2747 H 0.96083 0.43374 0.05273 0.0
H2748 H 0.93356 0.41617 0.05811 0.0
H2749 H 0.92873 0.40553 0.0147 0.0
H2750 H 0.95586 0.42336 0.00917 0.0
H2751 H 0.92784 0.43095 0.99391 0.0
H2752 H 0.90615 0.52482 0.01544 0.0
H2753 H 0.94776 0.54187 0.01226 0.0
H2754 H 0.97663 0.46645 0.02454 0.0
C2755 C 0.88525 0.42922 0.03628 0.0
C2756 C 0.86065 0.43643 0.03711 0.0
C2757 C 0.85441 0.46205 0.03255 0.0
C2758 C 0.87232 0.48003 0.02704 0.0
C2759 C 0.89637 0.47211 0.02621 0.0
C2760 C 0.90279 0.4473 0.03089 0.0
C2761 C 0.92989 0.44359 0.02981 0.0
C2762 C 0.94079 0.4351 0.05329 0.0
C2763 C 0.93592 0.42474 0.01076 0.0
C2764 C 0.93788 0.47024 0.02387 0.0
C2765 C 0.91834 0.48645 0.02169 0.0
C2766 C 0.92152 0.51222 0.017 0.0
C2767 C 0.94525 0.52172 0.01511 0.0
C2768 C 0.96555 0.50551 0.01799 0.0
C2769 C 0.96159 0.47935 0.02196 0.0
H2770 H 0.35221 0.0852 0.75839 0.0
H2771 H 0.41513 0.10748 0.72065 0.0
H2772 H 0.3982 0.15056 0.71531 0.0
H2773 H 0.30681 0.12432 0.72685 0.0
H2774 H 0.29135 0.13241 0.75253 0.0
H2775 H 0.30674 0.10247 0.75073 0.0
H2776 H 0.33186 0.11312 0.78799 0.0
H2777 H 0.31657 0.14304 0.78989 0.0
H2778 H 0.34918 0.14225 0.78955 0.0
H2779 H 0.3753 0.19159 0.71548 0.0
H2780 H 0.35037 0.22874 0.72423 0.0
H2781 H 0.30371 0.18085 0.76457 0.0
C2782 C 0.3621 0.09902 0.74855 0.0
C2783 C 0.38476 0.09298 0.73954 0.0
C2784 C 0.39764 0.11173 0.72747 0.0
C2785 C 0.38812 0.13619 0.7243 0.0
C2786 C 0.36586 0.1417 0.73364 0.0
C2787 C 0.35312 0.12373 0.74573 0.0
C2788 C 0.33088 0.13527 0.75603 0.0
C2789 C 0.30756 0.12288 0.74592 0.0
C2790 C 0.33222 0.1333 0.78243 0.0
C2791 C 0.33327 0.16258 0.74809 0.0
C2792 C 0.35331 0.16574 0.73481 0.0
C2793 C 0.35953 0.18932 0.7258 0.0
C2794 C 0.34519 0.21033 0.73084 0.0
C2795 C 0.32506 0.20778 0.7451 0.0
C2796 C 0.31892 0.18345 0.75356 0.0
H2797 H 0.16715 0.90689 0.25975 0.0
H2798 H 0.22584 0.96222 0.25894 0.0
H2799 H 0.25547 0.92784 0.25791 0.0
H2800 H 0.19754 0.86187 0.29606 0.0
H2801 H 0.18569 0.83431 0.28106 0.0
H2802 H 0.16862 0.86329 0.28069 0.0
H2803 H 0.16713 0.86286 0.23614 0.0
H2804 H 0.18435 0.83392 0.23641 0.0
H2805 H 0.19501 0.86132 0.22107 0.0
H2806 H 0.27909 0.88843 0.26059 0.0
H2807 H 0.29535 0.84507 0.2656 0.0
H2808 H 0.22234 0.81428 0.26194 0.0
C2809 C 0.18623 0.91168 0.25923 0.0
C2810 C 0.19414 0.93726 0.25943 0.0
C2811 C 0.21927 0.9428 0.25872 0.0
C2812 C 0.23631 0.9234 0.2581 0.0
C2813 C 0.22802 0.89845 0.25791 0.0
C2814 C 0.20362 0.89242 0.25832 0.0
C2815 C 0.19987 0.86385 0.25855 0.0
C2816 C 0.18718 0.85534 0.28039 0.0
C2817 C 0.18575 0.85497 0.23674 0.0
C2818 C 0.22597 0.85497 0.25873 0.0
C2819 C 0.24186 0.87533 0.25836 0.0
C2820 C 0.2669 0.87225 0.26037 0.0
C2821 C 0.27597 0.84767 0.26317 0.0
C2822 C 0.26007 0.82659 0.26349 0.0
C2823 C 0.2348 0.83018 0.26091 0.0
H2824 H 0.47718 0.38082 0.41415 0.0
H2825 H 0.53091 0.3838 0.36205 0.0
H2826 H 0.55502 0.41477 0.38561 0.0
H2827 H 0.48688 0.44677 0.43875 0.0
H2828 H 0.48266 0.43465 0.46725 0.0
H2829 H 0.46625 0.42058 0.44304 0.0
H2830 H 0.48359 0.37692 0.45524 0.0
H2831 H 0.50184 0.39025 0.47844 0.0
H2832 H 0.51595 0.37231 0.45638 0.0
H2833 H 0.5759 0.44088 0.41891 0.0
H2834 H 0.58905 0.46062 0.45618 0.0
H2835 H 0.52449 0.43013 0.48684 0.0
C2836 C 0.49331 0.38916 0.40714 0.0
C2837 C 0.50217 0.38038 0.38639 0.0
C2838 C 0.52363 0.39097 0.37777 0.0
C2839 C 0.53758 0.40823 0.39121 0.0
C2840 C 0.52962 0.41434 0.413 0.0
C2841 C 0.5077 0.4053 0.42064 0.0
C2842 C 0.50471 0.41061 0.44571 0.0
C2843 C 0.48383 0.42922 0.4489 0.0
C2844 C 0.50133 0.38606 0.45973 0.0
C2845 C 0.52872 0.423 0.45138 0.0
C2846 C 0.54266 0.42601 0.43238 0.0
C2847 C 0.56506 0.43855 0.43388 0.0
C2848 C 0.57257 0.44935 0.45514 0.0
C2849 C 0.55795 0.44671 0.47452 0.0
C2850 C 0.53638 0.43236 0.47258 0.0
H2851 H 0.43624 0.75972 0.17006 0.0
H2852 H 0.48832 0.75557 0.22764 0.0
H2853 H 0.45515 0.75751 0.25457 0.0
H2854 H 0.39397 0.80213 0.19596 0.0
H2855 H 0.36707 0.78627 0.18466 0.0
H2856 H 0.39476 0.78484 0.16931 0.0
H2857 H 0.39278 0.73578 0.16996 0.0
H2858 H 0.36499 0.73709 0.18517 0.0
H2859 H 0.39037 0.71946 0.19704 0.0
H2860 H 0.41673 0.76239 0.27591 0.0
H2861 H 0.37528 0.76441 0.29011 0.0
H2862 H 0.34616 0.76197 0.21986 0.0
C2863 C 0.44062 0.75905 0.18832 0.0
C2864 C 0.46522 0.75752 0.19654 0.0
C2865 C 0.46989 0.75662 0.22068 0.0
C2866 C 0.45107 0.75786 0.23624 0.0
C2867 C 0.42722 0.75959 0.22771 0.0
C2868 C 0.42179 0.75971 0.20432 0.0
C2869 C 0.39431 0.76076 0.20001 0.0
C2870 C 0.38711 0.78494 0.18669 0.0
C2871 C 0.38507 0.73685 0.18729 0.0
C2872 C 0.38533 0.76149 0.22455 0.0
C2873 C 0.40476 0.76113 0.24018 0.0
C2874 C 0.40138 0.76244 0.2638 0.0
C2875 C 0.37765 0.76374 0.27174 0.0
C2876 C 0.35718 0.76335 0.25629 0.0
C2877 C 0.36127 0.76225 0.23226 0.0
H2878 H 0.94813 0.75631 0.9396 0.0
H2879 H 0.02054 0.78624 0.93085 0.0
H2880 H 0.03744 0.75225 0.95597 0.0
H2881 H 0.95639 0.73341 -0.001 0.0
H2882 H 0.93876 0.705 0.99349 0.0
H2883 H 0.93209 0.73355 0.97743 0.0
H2884 H 0.93706 0.70914 0.93929 0.0
H2885 H 0.94374 0.68057 0.9552 0.0
H2886 H 0.96483 0.69239 0.93477 0.0
H2887 H 0.04643 0.71446 0.9806 0.0
H2888 H 0.04759 0.67256 -0.00019 0.0
H2889 H 0.96964 0.66541 0.98983 0.0
C2890 C 0.96748 0.75592 0.94342 0.0
C2891 C 0.98312 0.7739 0.93375 0.0
C2892 C 0.00839 0.77256 0.93835 0.0
C2893 C 0.01808 0.75349 0.95265 0.0
C2894 C 1.0022 0.73582 0.9618 0.0
C2895 C 0.97747 0.73665 0.95716 0.0
C2896 C 0.96469 0.71385 0.96705 0.0
C2897 C 0.94693 0.72194 0.98533 0.0
C2898 C 0.95184 0.69806 0.94794 0.0
C2899 C 0.98613 0.69991 0.97774 0.0
C2900 C 0.00752 0.71319 0.97495 0.0
C2901 C 0.02981 0.70394 0.98302 0.0
C2902 C 0.0303 0.68025 0.99393 0.0
C2903 C 0.00869 0.66605 0.99625 0.0
C2904 C 0.98634 0.67607 0.98824 0.0
H2905 H 0.10806 0.24506 0.70058 0.0
H2906 H 0.12166 0.30158 0.64806 0.0
H2907 H 0.163 0.30755 0.66376 0.0
H2908 H 0.14528 0.27738 0.74696 0.0
H2909 H 0.15688 0.2482 0.75911 0.0
H2910 H 0.12737 0.24868 0.74478 0.0
H2911 H 0.14045 0.21275 0.71782 0.0
H2912 H 0.17006 0.21234 0.73193 0.0
H2913 H 0.16713 0.21699 0.70127 0.0
H2914 H 0.20344 0.3058 0.68201 0.0
H2915 H 0.2409 0.29966 0.70497 0.0
H2916 H 0.20408 0.24561 0.7484 0.0
C2917 C 0.11963 0.25902 0.69273 0.0
C2918 C 0.11133 0.27275 0.67284 0.0
C2919 C 0.12735 0.29059 0.66304 0.0
C2920 C 0.15102 0.29419 0.67186 0.0
C2921 C 0.15889 0.27998 0.69081 0.0
C2922 C 0.14377 0.26299 0.70148 0.0
C2923 C 0.15765 0.25018 0.72159 0.0
C2924 C 0.1461 0.25649 0.74448 0.0
C2925 C 0.15889 0.22135 0.71793 0.0
C2926 C 0.18279 0.2625 0.72019 0.0
C2927 C 0.18281 0.27949 0.7021 0.0
C2928 C 0.20361 0.29275 0.6964 0.0
C2929 C 0.22499 0.28896 0.70961 0.0
C2930 C 0.22582 0.27216 0.72871 0.0
C2931 C 0.20422 0.25866 0.73402 0.0
H2932 H 0.53892 0.67553 0.1406 0.0
H2933 H 0.51026 0.71945 0.08277 0.0
H2934 H 0.51059 0.68156 0.0583 0.0
H2935 H 0.57851 0.63776 0.1101 0.0
H2936 H 0.57321 0.60825 0.12489 0.0
H2937 H 0.56869 0.63798 0.13929 0.0
H2938 H 0.52461 0.62499 0.14757 0.0
H2939 H 0.52913 0.595 0.13356 0.0
H2940 H 0.50443 0.61513 0.12415 0.0
H2941 H 0.51992 0.6417 0.03827 0.0
H2942 H 0.52986 0.59873 0.02518 0.0
H2943 H 0.54896 0.57697 0.09544 0.0
C2944 C 0.53179 0.67683 0.12307 0.0
C2945 C 0.52429 0.70061 0.11372 0.0
C2946 C 0.51586 0.70156 0.09042 0.0
C2947 C 0.51613 0.68011 0.07627 0.0
C2948 C 0.5246 0.65736 0.08555 0.0
C2949 C 0.53159 0.65518 0.10854 0.0
C2950 C 0.54015 0.62812 0.11362 0.0
C2951 C 0.56672 0.62804 0.12251 0.0
C2952 C 0.52359 0.61503 0.13074 0.0
C2953 C 0.53746 0.61591 0.08984 0.0
C2954 C 0.52875 0.63342 0.07395 0.0
C2955 C 0.52628 0.62765 0.05062 0.0
C2956 C 0.53224 0.60319 0.04329 0.0
C2957 C 0.54018 0.58434 0.05917 0.0
C2958 C 0.5428 0.59088 0.08286 0.0
H2959 H 0.0474 0.79484 0.84295 0.0
H2960 H 0.05173 0.86183 0.8863 0.0
H2961 H 0.09498 0.86679 0.87817 0.0
H2962 H 0.10632 0.77056 0.85991 0.0
H2963 H 0.11246 0.75888 0.83166 0.0
H2964 H 0.08169 0.76075 0.84067 0.0
H2965 H 0.07053 0.78835 0.80495 0.0
H2966 H 0.10132 0.78669 0.79591 0.0
H2967 H 0.08741 0.81713 0.7999 0.0
H2968 H 0.13736 0.86506 0.86492 0.0
H2969 H 0.17692 0.85546 0.84875 0.0
H2970 H 0.14548 0.78865 0.81535 0.0
C2971 C 0.05748 0.81052 0.85072 0.0
C2972 C 0.04627 0.82794 0.86523 0.0
C2973 C 0.06002 0.84818 0.87519 0.0
C2974 C 0.08456 0.85124 0.87062 0.0
C2975 C 0.09508 0.83381 0.85618 0.0
C2976 C 0.08207 0.81375 0.8465 0.0
C2977 C 0.09792 0.79745 0.83195 0.0
C2978 C 0.0997 0.77031 0.84164 0.0
C2979 C 0.08874 0.79742 0.80668 0.0
C2980 C 0.12179 0.81157 0.83493 0.0
C2981 C 0.11972 0.83254 0.84888 0.0
C2982 C 0.13929 0.84859 0.85408 0.0
C2983 C 0.1617 0.8429 0.84492 0.0
C2984 C 0.16435 0.82127 0.83084 0.0
C2985 C 0.14402 0.80552 0.82577 0.0
H2986 H 0.03292 0.34915 0.65124 0.0
H2987 H 0.03934 0.2943 0.59613 0.0
H2988 H 0.04433 0.32867 0.56857 0.0
H2989 H 0.99882 0.39527 0.61735 0.0
H2990 H 0.01372 0.42275 0.62991 0.0
H2991 H 0.0113 0.39391 0.64639 0.0
H2992 H 0.05785 0.3936 0.65341 0.0
H2993 H 0.06039 0.42246 0.63695 0.0
H2994 H 0.07724 0.39479 0.62919 0.0
H2995 H 0.04726 0.36761 0.5461 0.0
H2996 H 0.04866 0.41052 0.52965 0.0
H2997 H 0.04109 0.44266 0.59767 0.0
C2998 C 0.03553 0.34447 0.63341 0.0
C2999 C 0.03581 0.31878 0.62607 0.0
C3000 C 0.03914 0.3136 0.60247 0.0
C3001 C 0.04199 0.33307 0.5865 0.0
C3002 C 0.04155 0.35799 0.59411 0.0
C3003 C 0.03848 0.36397 0.61692 0.0
C3004 C 0.03843 0.39275 0.61992 0.0
C3005 C 0.01412 0.40169 0.62893 0.0
C3006 C 0.05975 0.40141 0.63581 0.0
C3007 C 0.04174 0.40165 0.59525 0.0
C3008 C 0.04349 0.38109 0.58079 0.0
C3009 C 0.04604 0.38394 0.55722 0.0
C3010 C 0.04678 0.40848 0.54802 0.0
C3011 C 0.04506 0.4301 0.56227 0.0
C3012 C 0.04264 0.42656 0.58631 0.0
H3013 H 0.41997 0.29015 0.35002 0.0
H3014 H 0.39096 0.34531 0.39685 0.0
H3015 H 0.35026 0.32605 0.391 0.0
H3016 H 0.36956 0.28604 0.30929 0.0
H3017 H 0.37382 0.25253 0.30581 0.0
H3018 H 0.39923 0.2725 0.3139 0.0
H3019 H 0.40676 0.24194 0.34889 0.0
H3020 H 0.37982 0.22384 0.34128 0.0
H3021 H 0.38342 0.23784 0.36943 0.0
H3022 H 0.3128 0.30126 0.37942 0.0
H3023 H 0.28049 0.27822 0.35773 0.0
H3024 H 0.33476 0.23798 0.32026 0.0
C3025 C 0.40502 0.29862 0.35869 0.0
C3026 C 0.40864 0.31938 0.37377 0.0
C3027 C 0.38859 0.32948 0.38512 0.0
C3028 C 0.3655 0.31844 0.38217 0.0
C3029 C 0.36288 0.29721 0.36805 0.0
C3030 C 0.38203 0.28766 0.35623 0.0
C3031 C 0.37444 0.26496 0.34178 0.0
C3032 C 0.37955 0.26933 0.31622 0.0
C3033 C 0.38685 0.24072 0.3509 0.0
C3034 C 0.34761 0.26433 0.34605 0.0
C3035 C 0.34142 0.28256 0.3618 0.0
C3036 C 0.31743 0.28676 0.36723 0.0
C3037 C 0.29917 0.27334 0.35497 0.0
C3038 C 0.30513 0.2564 0.33719 0.0
C3039 C 0.32967 0.25064 0.33388 0.0
H3040 H 0.4167 0.50275 0.39665 0.0
H3041 H 0.47317 0.51454 0.34768 0.0
H3042 H 0.50189 0.52613 0.37912 0.0
H3043 H 0.43697 0.55318 0.43767 0.0
H3044 H 0.43045 0.53449 0.46271 0.0
H3045 H 0.41287 0.5299 0.4363 0.0
H3046 H 0.42302 0.4825 0.43726 0.0
H3047 H 0.44115 0.48633 0.46343 0.0
H3048 H 0.454 0.47264 0.43833 0.0
H3049 H 0.5245 0.53717 0.41462 0.0
H3050 H 0.54306 0.53786 0.45354 0.0
H3051 H 0.47437 0.51453 0.48134 0.0
C3052 C 0.4351 0.50787 0.39266 0.0
C3053 C 0.44266 0.50782 0.36969 0.0
C3054 C 0.46695 0.51429 0.36511 0.0
C3055 C 0.48338 0.52124 0.38283 0.0
C3056 C 0.47544 0.52134 0.4052 0.0
C3057 C 0.45209 0.51433 0.41038 0.0
C3058 C 0.4493 0.51375 0.43629 0.0
C3059 C 0.43133 0.53405 0.44367 0.0
C3060 C 0.44144 0.48724 0.44437 0.0
C3061 C 0.47503 0.52044 0.44463 0.0
C3062 C 0.48935 0.52582 0.42628 0.0
C3063 C 0.51358 0.53289 0.42921 0.0
C3064 C 0.52393 0.53339 0.45147 0.0
C3065 C 0.51027 0.52616 0.47057 0.0
C3066 C 0.48527 0.52026 0.46712 0.0
H3067 H 0.27311 0.69635 0.05924 0.0
H3068 H 0.30898 0.62372 0.06851 0.0
H3069 H 0.30716 0.62854 0.11066 0.0
H3070 H 0.3012 0.72805 0.10912 0.0
H3071 H 0.2738 0.74479 0.11511 0.0
H3072 H 0.28007 0.73631 0.08599 0.0
H3073 H 0.23859 0.71298 0.08236 0.0
H3074 H 0.2324 0.72092 0.11161 0.0
H3075 H 0.2317 0.68822 0.10257 0.0
H3076 H 0.29886 0.6404 0.15189 0.0
H3077 H 0.28814 0.66004 0.18865 0.0
H3078 H 0.2562 0.72362 0.15127 0.0
C3079 C 0.28102 0.68158 0.07003 0.0
C3080 C 0.2912 0.65964 0.0605 0.0
C3081 C 0.30121 0.64078 0.07538 0.0
C3082 C 0.30013 0.64328 0.09933 0.0
C3083 C 0.28906 0.66473 0.10805 0.0
C3084 C 0.27996 0.68367 0.09381 0.0
C3085 C 0.26826 0.70448 0.10723 0.0
C3086 C 0.28164 0.72991 0.10418 0.0
C3087 C 0.24113 0.70676 0.10054 0.0
C3088 C 0.272 0.69425 0.13131 0.0
C3089 C 0.28401 0.67132 0.13151 0.0
C3090 C 0.28948 0.65836 0.15192 0.0
C3091 C 0.28306 0.66951 0.17268 0.0
C3092 C 0.27129 0.69334 0.1728 0.0
C3093 C 0.26535 0.7055 0.15175 0.0
H3094 H 0.14911 0.4923 0.89457 0.0
H3095 H 0.14994 0.57157 0.87484 0.0
H3096 H 0.12458 0.58193 0.90751 0.0
H3097 H 0.08952 0.48908 0.90784 0.0
H3098 H 0.09252 0.4685 0.93254 0.0
H3099 H 0.11454 0.46735 0.91056 0.0
H3100 H 0.14927 0.47634 0.94061 0.0
H3101 H 0.12743 0.47677 0.96287 0.0
H3102 H 0.14747 0.50352 0.95922 0.0
H3103 H 0.09398 0.5827 0.93737 0.0
H3104 H 0.06426 0.57535 0.96698 0.0
H3105 H 0.08308 0.49541 0.9692 0.0
C3106 C 0.14499 0.51197 0.89798 0.0
C3107 C 0.15208 0.53135 0.88272 0.0
C3108 C 0.14526 0.55668 0.88678 0.0
C3109 C 0.13069 0.56267 0.90517 0.0
C3110 C 0.12305 0.54305 0.91933 0.0
C3111 C 0.13036 0.51827 0.91636 0.0
C3112 C 0.11796 0.50061 0.93307 0.0
C3113 C 0.10274 0.48019 0.92023 0.0
C3114 C 0.13665 0.4886 0.94995 0.0
C3115 C 0.10191 0.51921 0.94523 0.0
C3116 C 0.10523 0.54355 0.93694 0.0
C3117 C 0.09152 0.56381 0.94428 0.0
C3118 C 0.07442 0.55931 0.96098 0.0
C3119 C 0.07115 0.53473 0.97047 0.0
C3120 C 0.0851 0.51439 0.96233 0.0
H3121 H 0.27371 0.34379 0.55413 0.0
H3122 H 0.31757 0.412 0.54877 0.0
H3123 H 0.33243 0.40637 0.58922 0.0
H3124 H 0.25566 0.35547 0.61175 0.0
H3125 H 0.25576 0.32229 0.61935 0.0
H3126 H 0.24944 0.33174 0.59002 0.0
H3127 H 0.28435 0.30315 0.5768 0.0
H3128 H 0.29086 0.29373 0.60611 0.0
H3129 H 0.31443 0.30752 0.58937 0.0
H3130 H 0.34328 0.39168 0.63037 0.0
H3131 H 0.34702 0.37098 0.66863 0.0
H3132 H 0.29296 0.31513 0.64623 0.0
C3133 C 0.28657 0.35745 0.56142 0.0
C3134 C 0.29475 0.37812 0.54843 0.0
C3135 C 0.31116 0.39598 0.5586 0.0
C3136 C 0.31972 0.3929 0.58146 0.0
C3137 C 0.31129 0.37215 0.59383 0.0
C3138 C 0.29483 0.35496 0.58417 0.0
C3139 C 0.28774 0.33483 0.6011 0.0
C3140 C 0.26054 0.33618 0.60583 0.0
C3141 C 0.29478 0.30824 0.59285 0.0
C3142 C 0.30311 0.34301 0.62173 0.0
C3143 C 0.31671 0.36444 0.61735 0.0
C3144 C 0.33258 0.37496 0.63401 0.0
C3145 C 0.33453 0.36315 0.65569 0.0
C3146 C 0.32056 0.34119 0.66041 0.0
C3147 C 0.3045 0.33139 0.64314 0.0
H3148 H 0.47059 0.47549 0.25172 0.0
H3149 H 0.39961 0.50899 0.23974 0.0
H3150 H 0.40661 0.51027 0.19796 0.0
H3151 H 0.5011 0.51204 0.20942 0.0
H3152 H 0.52025 0.48618 0.20148 0.0
H3153 H 0.50933 0.48787 0.23018 0.0
H3154 H 0.49094 0.44267 0.22565 0.0
H3155 H 0.50166 0.4409 0.19687 0.0
H3156 H 0.46996 0.43601 0.20192 0.0
H3157 H 0.42152 0.50694 0.15715 0.0
H3158 H 0.44395 0.50226 0.12144 0.0
H3159 H 0.50508 0.47126 0.16091 0.0
C3160 C 0.45642 0.4831 0.24039 0.0
C3161 C 0.43445 0.49203 0.24906 0.0
C3162 C 0.41659 0.50207 0.23355 0.0
C3163 C 0.42037 0.50277 0.20978 0.0
C3164 C 0.44216 0.49351 0.20186 0.0
C3165 C 0.45994 0.48409 0.21678 0.0
C3166 C 0.48198 0.47574 0.20415 0.0
C3167 C 0.50449 0.4914 0.21176 0.0
C3168 C 0.48638 0.44713 0.20734 0.0
C3169 C 0.47388 0.48189 0.17969 0.0
C3170 C 0.45081 0.49196 0.17865 0.0
C3171 C 0.43957 0.49906 0.1578 0.0
C3172 C 0.45239 0.49613 0.13759 0.0
C3173 C 0.47626 0.48633 0.13837 0.0
C3174 C 0.48694 0.47895 0.15975 0.0
H3175 H 0.26519 0.6818 0.94863 0.0
H3176 H 0.30245 0.6179 0.91945 0.0
H3177 H 0.30667 0.64179 0.88334 0.0
H3178 H 0.2327 0.70068 0.89316 0.0
H3179 H 0.23507 0.73396 0.90006 0.0
H3180 H 0.2327 0.7108 0.92272 0.0
H3181 H 0.27221 0.72878 0.94206 0.0
H3182 H 0.27505 0.75153 0.91918 0.0
H3183 H 0.29949 0.72996 0.92599 0.0
H3184 H 0.31286 0.67429 0.85364 0.0
H3185 H 0.31372 0.71086 0.82767 0.0
H3186 H 0.26934 0.75358 0.87384 0.0
C3187 C 0.27363 0.67264 0.93438 0.0
C3188 C 0.28355 0.64805 0.93677 0.0
C3189 C 0.29457 0.63663 0.91789 0.0
C3190 C 0.29719 0.65011 0.89738 0.0
C3191 C 0.28816 0.6747 0.89591 0.0
C3192 C 0.27592 0.68564 0.91356 0.0
C3193 C 0.26831 0.71256 0.90745 0.0
C3194 C 0.24054 0.71461 0.90574 0.0
C3195 C 0.27944 0.73183 0.9247 0.0
C3196 C 0.27918 0.71537 0.88404 0.0
C3197 C 0.29065 0.69328 0.87792 0.0
C3198 C 0.30351 0.69152 0.85797 0.0
C3199 C 0.30412 0.71261 0.84347 0.0
C3200 C 0.29161 0.7352 0.84872 0.0
C3201 C 0.27902 0.7366 0.86937 0.0
H3202 H 0.14754 0.52233 0.74583 0.0
H3203 H 0.07967 0.52872 0.78075 0.0
H3204 H 0.05758 0.53255 0.74362 0.0
H3205 H 0.13441 0.56656 0.70188 0.0
H3206 H 0.14773 0.54915 0.67897 0.0
H3207 H 0.15891 0.5449 0.70819 0.0
H3208 H 0.151 0.49647 0.70537 0.0
H3209 H 0.14035 0.5005 0.67596 0.0
H3210 H 0.12132 0.48502 0.69631 0.0
H3211 H 0.04314 0.54066 0.70418 0.0
H3212 H 0.03546 0.54441 0.66245 0.0
H3213 H 0.11153 0.53024 0.65132 0.0
C3214 C 0.12798 0.52383 0.74556 0.0
C3215 C 0.11537 0.52546 0.76622 0.0
C3216 C 0.08978 0.52771 0.76518 0.0
C3217 C 0.07702 0.52997 0.74417 0.0
C3218 C 0.09001 0.52962 0.72423 0.0
C3219 C 0.11477 0.52594 0.72453 0.0
C3220 C 0.12396 0.52635 0.70024 0.0
C3221 C 0.14234 0.54804 0.69715 0.0
C3222 C 0.13479 0.50055 0.69411 0.0
C3223 C 0.10051 0.53127 0.6865 0.0
C3224 C 0.08129 0.53333 0.70086 0.0
C3225 C 0.05791 0.53858 0.69264 0.0
C3226 C 0.05375 0.54072 0.66892 0.0
C3227 C 0.07279 0.53724 0.65362 0.0
C3228 C 0.09663 0.53309 0.6626 0.0
H3229 H 0.2358 0.34522 0.4547 0.0
H3230 H 0.20636 0.4175 0.43216 0.0
H3231 H 0.17815 0.39525 0.40492 0.0
H3232 H 0.23999 0.32082 0.40181 0.0
H3233 H 0.23302 0.28851 0.40961 0.0
H3234 H 0.24567 0.30978 0.43084 0.0
H3235 H 0.2091 0.3002 0.45642 0.0
H3236 H 0.19601 0.27945 0.43463 0.0
H3237 H 0.17869 0.30554 0.44519 0.0
H3238 H 0.15786 0.36617 0.37657 0.0
H3239 H 0.15423 0.33532 0.34492 0.0
H3240 H 0.19872 0.28263 0.38503 0.0
C3241 C 0.22294 0.35628 0.44444 0.0
C3242 C 0.22306 0.38294 0.44552 0.0
C3243 C 0.2065 0.39696 0.43149 0.0
C3244 C 0.19016 0.38447 0.41628 0.0
C3245 C 0.19064 0.35802 0.4154 0.0
C3246 C 0.20686 0.34413 0.42898 0.0
C3247 C 0.20722 0.31662 0.42184 0.0
C3248 C 0.23297 0.30849 0.41563 0.0
C3249 C 0.19715 0.29945 0.44065 0.0
C3250 C 0.19005 0.31756 0.40101 0.0
C3251 C 0.17972 0.34125 0.39824 0.0
C3252 C 0.16563 0.34747 0.37869 0.0
C3253 C 0.16377 0.32983 0.36072 0.0
C3254 C 0.17675 0.30673 0.36214 0.0
C3255 C 0.18829 0.29985 0.3833 0.0
H3256 H 0.32903 0.43869 0.47039 0.0
H3257 H 0.34442 0.36421 0.44307 0.0
H3258 H 0.38814 0.37179 0.45108 0.0
H3259 H 0.38751 0.47222 0.4588 0.0
H3260 H 0.38787 0.48724 0.4866 0.0
H3261 H 0.35944 0.4806 0.47148 0.0
H3262 H 0.34441 0.45534 0.50622 0.0
H3263 H 0.37238 0.46154 0.52187 0.0
H3264 H 0.36217 0.42927 0.51756 0.0
H3265 H 0.4291 0.38427 0.46945 0.0
H3266 H 0.46229 0.39997 0.49466 0.0
H3267 H 0.41578 0.46088 0.51704 0.0
C3268 C 0.34154 0.42436 0.46497 0.0
C3269 C 0.33319 0.40081 0.45616 0.0
C3270 C 0.35035 0.3825 0.44971 0.0
C3271 C 0.37525 0.38662 0.45433 0.0
C3272 C 0.38253 0.40898 0.46552 0.0
C3273 C 0.36605 0.4276 0.4706 0.0
C3274 C 0.37695 0.44719 0.4869 0.0
C3275 C 0.37802 0.47337 0.47525 0.0
C3276 C 0.36317 0.44836 0.50945 0.0
C3277 C 0.40191 0.43631 0.49088 0.0
C3278 C 0.40518 0.41482 0.47791 0.0
C3279 C 0.4267 0.40123 0.47954 0.0
C3280 C 0.44544 0.41019 0.49444 0.0
C3281 C 0.44241 0.43218 0.50822 0.0
C3282 C 0.41987 0.44481 0.50647 0.0
H3283 H 0.86371 0.10129 0.48723 0.0
H3284 H 0.81833 0.0472 0.5223 0.0
H3285 H 0.85401 0.01985 0.5299 0.0
H3286 H 0.90185 0.05447 0.46029 0.0
H3287 H 0.92889 0.07369 0.4636 0.0
H3288 H 0.89969 0.0886 0.46044 0.0
H3289 H 0.90812 0.1131 0.49847 0.0
H3290 H 0.93731 0.09827 0.50175 0.0
H3291 H 0.916 0.0957 0.52436 0.0
H3292 H 0.89538 0.99981 0.53589 0.0
H3293 H 0.93853 0.9876 0.53818 0.0
H3294 H 0.95676 0.05368 0.49754 0.0
C3295 C 0.86121 0.08361 0.49638 0.0
C3296 C 0.83815 0.07642 0.5042 0.0
C3297 C 0.83574 0.0531 0.51608 0.0
C3298 C 0.85594 0.03745 0.5205 0.0
C3299 C 0.87843 0.04522 0.51271 0.0
C3300 C 0.88113 0.06765 0.50071 0.0
C3301 C 0.9073 0.07174 0.49435 0.0
C3302 C 0.90955 0.07214 0.46811 0.0
C3303 C 0.91779 0.09615 0.5054 0.0
C3304 C 0.91902 0.04828 0.50491 0.0
C3305 C 0.90206 0.03327 0.5155 0.0
C3306 C 0.90873 0.01127 0.52741 0.0
C3307 C 0.93332 0.00451 0.52865 0.0
C3308 C 0.95104 0.0195 0.51783 0.0
C3309 C 0.94363 0.04156 0.50564 0.0
H3310 H 0.7081 0.0874 0.30393 0.0
H3311 H 0.63387 0.11431 0.29776 0.0
H3312 H 0.64846 0.15574 0.28472 0.0
H3313 H 0.73361 0.14756 0.32537 0.0
H3314 H 0.7613 0.14428 0.31025 0.0
H3315 H 0.7451 0.11644 0.31931 0.0
H3316 H 0.74354 0.10011 0.27729 0.0
H3317 H 0.7593 0.12819 0.26806 0.0
H3318 H 0.73035 0.11975 0.2548 0.0
H3319 H 0.67012 0.1938 0.27139 0.0
H3320 H 0.69852 0.22874 0.26355 0.0
H3321 H 0.75924 0.17877 0.27862 0.0
C3322 C 0.69493 0.10208 0.30009 0.0
C3323 C 0.66975 0.09732 0.3018 0.0
C3324 C 0.65321 0.11721 0.29659 0.0
C3325 C 0.66129 0.14089 0.289 0.0
C3326 C 0.68603 0.14468 0.28684 0.0
C3327 C 0.70272 0.12611 0.29263 0.0
C3328 C 0.72838 0.13576 0.2894 0.0
C3329 C 0.74295 0.13602 0.31245 0.0
C3330 C 0.74114 0.12001 0.27131 0.0
C3331 C 0.72337 0.16253 0.28078 0.0
C3332 C 0.69876 0.16708 0.27928 0.0
C3333 C 0.68945 0.19051 0.27245 0.0
C3334 C 0.70573 0.2102 0.2679 0.0
C3335 C 0.73107 0.20642 0.27021 0.0
C3336 C 0.73998 0.18205 0.27617 0.0
H3337 H 0.6794 0.87606 0.01652 0.0
H3338 H 0.73643 0.92754 0.04073 0.0
H3339 H 0.70621 0.96155 0.04449 0.0
H3340 H 0.65077 0.91841 0.98084 0.0
H3341 H 0.62023 0.90789 0.98565 0.0
H3342 H 0.64496 0.88605 0.98929 0.0
H3343 H 0.6331 0.87641 0.0311 0.0
H3344 H 0.60778 0.89759 0.02738 0.0
H3345 H 0.62951 0.90226 0.05089 0.0
H3346 H 0.67046 0.99088 0.04175 0.0
H3347 H 0.63133 0.01273 0.03487 0.0
H3348 H 0.59902 0.94251 0.00928 0.0
C3349 C 0.68542 0.89416 0.02351 0.0
C3350 C 0.71017 0.89916 0.0286 0.0
C3351 C 0.71747 0.92332 0.03699 0.0
C3352 C 0.70047 0.94274 0.03908 0.0
C3353 C 0.67638 0.93759 0.0326 0.0
C3354 C 0.66882 0.9138 0.02526 0.0
C3355 C 0.64246 0.91373 0.01719 0.0
C3356 C 0.63945 0.90607 0.99174 0.0
C3357 C 0.62732 0.89648 0.03256 0.0
C3358 C 0.63653 0.94136 0.02056 0.0
C3359 C 0.65619 0.95475 0.02979 0.0
C3360 C 0.65493 0.98058 0.03459 0.0
C3361 C 0.63276 0.99285 0.03044 0.0
C3362 C 0.6124 0.97934 0.02119 0.0
C3363 C 0.61448 0.9534 0.01586 0.0
H3364 H 0.39192 0.39788 0.31548 0.0
H3365 H 0.34266 0.46135 0.32036 0.0
H3366 H 0.30794 0.43248 0.31238 0.0
H3367 H 0.36284 0.36748 0.26902 0.0
H3368 H 0.3679 0.3357 0.27962 0.0
H3369 H 0.38858 0.36085 0.28801 0.0
H3370 H 0.3819 0.35046 0.33062 0.0
H3371 H 0.36028 0.32587 0.32292 0.0
H3372 H 0.35172 0.35128 0.34139 0.0
H3373 H 0.27848 0.39647 0.30231 0.0
H3374 H 0.25728 0.35655 0.29064 0.0
H3375 H 0.32632 0.31793 0.29027 0.0
C3376 C 0.37383 0.4057 0.3153 0.0
C3377 C 0.37008 0.43192 0.31863 0.0
C3378 C 0.34605 0.44133 0.31793 0.0
C3379 C 0.32618 0.42508 0.31339 0.0
C3380 C 0.3306 0.39947 0.30955 0.0
C3381 C 0.35385 0.38985 0.31056 0.0
C3382 C 0.35385 0.36182 0.30506 0.0
C3383 C 0.3692 0.35615 0.28418 0.0
C3384 C 0.36248 0.34646 0.32626 0.0
C3385 C 0.32715 0.3574 0.29967 0.0
C3386 C 0.31389 0.37915 0.3029 0.0
C3387 C 0.28872 0.37937 0.29961 0.0
C3388 C 0.27684 0.35672 0.29291 0.0
C3389 C 0.29025 0.33445 0.28903 0.0
C3390 C 0.3157 0.3349 0.29248 0.0
H3391 H 0.19067 0.6259 0.98778 0.0
H3392 H 0.23928 0.57411 0.0244 0.0
H3393 H 0.20411 0.55372 0.04224 0.0
H3394 H 0.15129 0.63644 0.03199 0.0
H3395 H 0.12401 0.63708 0.014 0.0
H3396 H 0.15255 0.64607 0.00231 0.0
H3397 H 0.14692 0.61223 0.97017 0.0
H3398 H 0.11801 0.6037 0.98139 0.0
H3399 H 0.14069 0.57975 0.97789 0.0
H3400 H 0.16339 0.54068 0.05783 0.0
H3401 H 0.1204 0.53316 0.06654 0.0
H3402 H 0.09921 0.59471 0.02061 0.0
C3403 C 0.19397 0.60996 -0.00078 0.0
C3404 C 0.21783 0.60164 0.00467 0.0
C3405 C 0.22122 0.58071 0.01976 0.0
C3406 C 0.20135 0.56915 0.03014 0.0
C3407 C 0.1782 0.57859 0.02511 0.0
C3408 C 0.17442 0.59821 0.00965 0.0
C3409 C 0.14785 0.6051 0.00731 0.0
C3410 C 0.1437 0.63282 0.01433 0.0
C3411 C 0.13778 0.59988 0.98274 0.0
C3412 C 0.1373 0.58678 0.02438 0.0
C3413 C 0.15503 0.5715 0.03437 0.0
C3414 C 0.14941 0.55259 0.05014 0.0
C3415 C 0.12497 0.54861 0.05515 0.0
C3416 C 0.10648 0.56365 0.04462 0.0
C3417 C 0.11293 0.58335 0.02946 0.0
H3418 H 0.69359 0.93262 0.32489 0.0
H3419 H 0.74392 0.98331 0.29189 0.0
H3420 H 0.76997 0.94674 0.28338 0.0
H3421 H 0.7399 0.89001 0.3506 0.0
H3422 H 0.72114 0.86218 0.34618 0.0
H3423 H 0.70737 0.89255 0.35085 0.0
H3424 H 0.68198 0.88755 0.31278 0.0
H3425 H 0.69573 0.85727 0.30793 0.0
H3426 H 0.69718 0.88184 0.28643 0.0
H3427 H 0.78799 0.90395 0.27468 0.0
H3428 H 0.79847 0.85878 0.26948 0.0
H3429 H 0.73788 0.83636 0.31043 0.0
C3430 C 0.71028 0.93609 0.31618 0.0
C3431 C 0.71674 0.96082 0.30904 0.0
C3432 C 0.73869 0.96456 0.29764 0.0
C3433 C 0.75357 0.94389 0.29268 0.0
C3434 C 0.74643 0.91967 0.29959 0.0
C3435 C 0.7255 0.91574 0.31142 0.0
C3436 C 0.72164 0.8878 0.31654 0.0
C3437 C 0.72258 0.88285 0.34259 0.0
C3438 C 0.69772 0.87805 0.30524 0.0
C3439 C 0.74337 0.87651 0.30526 0.0
C3440 C 0.7574 0.89519 0.29548 0.0
C3441 C 0.7774 0.88922 0.28265 0.0
C3442 C 0.78317 0.86353 0.27972 0.0
C3443 C 0.76921 0.84413 0.28984 0.0
C3444 C 0.74921 0.85081 0.30295 0.0
H3445 H 0.88698 0.08278 0.81755 0.0
H3446 H 0.83153 0.03913 0.78001 0.0
H3447 H 0.80598 0.07729 0.77677 0.0
H3448 H 0.84621 0.12127 0.84963 0.0
H3449 H 0.86455 0.14962 0.84796 0.0
H3450 H 0.87861 0.11887 0.8476 0.0
H3451 H 0.89845 0.13003 0.80918 0.0
H3452 H 0.88467 0.16088 0.80956 0.0
H3453 H 0.87962 0.14043 0.78505 0.0
H3454 H 0.78694 0.11996 0.77669 0.0
H3455 H 0.77611 0.16519 0.77828 0.0
H3456 H 0.84327 0.18149 0.81671 0.0
C3457 C 0.86949 0.08127 0.80858 0.0
C3458 C 0.86125 0.05797 0.79898 0.0
C3459 C 0.83824 0.05677 0.78745 0.0
C3460 C 0.82355 0.07831 0.78561 0.0
C3461 C 0.83209 0.10089 0.79547 0.0
C3462 C 0.85454 0.10259 0.80665 0.0
C3463 C 0.85953 0.12933 0.81533 0.0
C3464 C 0.86239 0.12979 0.8417 0.0
C3465 C 0.88189 0.14084 0.8041 0.0
C3466 C 0.83645 0.14245 0.80707 0.0
C3467 C 0.82086 0.12559 0.79574 0.0
C3468 C 0.79889 0.1333 0.78566 0.0
C3469 C 0.79289 0.15902 0.78669 0.0
C3470 C 0.80874 0.17677 0.79781 0.0
C3471 C 0.83059 0.16825 0.80853 0.0
loop_
_geom_bond_atom_site_label_1
_geom_bond_atom_site_label_2
_geom_bond_distance
_geom_bond_site_symmetry_2
_ccdc_geom_bond_type
Co0 O1 2.216 . S
Co0 O2 2.091 . S
Co0 O4 2.004 . S
Co0 O10 2.021 . S
Co0 O12 2.137 . S
Co0 O13 2.244 . S
O1 Co0 2.216 . S
O1 C8 1.247 . S
O2 Co0 2.091 . S
O2 C8 1.261 . S
C3 O12 1.247 . S
C3 O13 1.272 . S
O4 Co0 2.004 . S
O4 C9 1.259 . S
Co5 O6 2.061 . S
Co5 O11 2.052 . S
Co5 O13 2.135 . S
O6 Co5 2.061 . S
O6 C9 1.235 . S
C7 O10 1.238 . S
C7 O11 1.241 . S
C8 O1 1.247 . S
C8 O2 1.261 . S
C9 O4 1.259 . S
C9 O6 1.235 . S
O10 Co0 2.021 . S
O10 C7 1.238 . S
O11 Co5 2.052 . S
O11 C7 1.241 . S
O12 Co0 2.137 . S
O12 C3 1.247 . S
O13 Co0 2.244 . S
O13 C3 1.272 . S
O13 Co5 2.135 . S
Co14 O15 2.216 . S
Co14 O16 2.091 . S
Co14 O18 2.004 . S
Co14 O24 2.021 . S
Co14 O26 2.137 . S
Co14 O27 2.244 . S
O15 Co14 2.216 . S
O15 C22 1.247 . S
O16 Co14 2.091 . S
O16 C22 1.261 . S
C17 O26 1.247 . S
C17 O27 1.272 . S
O18 Co14 2.004 . S
O18 C23 1.259 1_455 S
Co19 O20 2.061 . S
Co19 O25 2.052 1_655 S
Co19 O27 2.135 1_655 S
O20 Co19 2.061 . S
O20 C23 1.235 . S
C21 O24 1.238 . S
C21 O25 1.241 . S
C22 O15 1.247 . S
C22 O16 1.261 . S
C23 O18 1.259 1_655 S
C23 O20 1.235 . S
O24 Co14 2.021 . S
O24 C21 1.238 . S
O25 Co19 2.052 1_455 S
O25 C21 1.241 . S
O26 Co14 2.137 . S
O26 C17 1.247 . S
O27 Co14 2.244 . S
O27 C17 1.272 . S
O27 Co19 2.135 1_455 S
Co28 O29 2.216 . S
Co28 O30 2.091 . S
Co28 O32 2.004 . S
Co28 O38 2.021 . S
Co28 O40 2.137 . S
Co28 O41 2.244 . S
O29 Co28 2.216 . S
O29 C36 1.247 . S
O30 Co28 2.091 . S
O30 C36 1.261 . S
C31 O40 1.247 . S
C31 O41 1.272 . S
O32 Co28 2.004 . S
O32 C37 1.259 . S
Co33 O34 2.061 . S
Co33 O39 2.052 . S
Co33 O41 2.135 . S
O34 Co33 2.061 . S
O34 C37 1.235 . S
C35 O38 1.238 . S
C35 O39 1.241 . S
C36 O29 1.247 . S
C36 O30 1.261 . S
C37 O32 1.259 . S
C37 O34 1.235 . S
O38 Co28 2.021 . S
O38 C35 1.238 . S
O39 Co33 2.052 . S
O39 C35 1.241 . S
O40 Co28 2.137 . S
O40 C31 1.247 . S
O41 Co28 2.244 . S
O41 C31 1.272 . S
O41 Co33 2.135 . S
Co42 O43 2.216 . S
Co42 O44 2.091 . S
Co42 O46 2.004 . S
Co42 O52 2.021 . S
Co42 O54 2.137 . S
Co42 O55 2.244 . S
O43 Co42 2.216 . S
O43 C50 1.247 . S
O44 Co42 2.091 . S
O44 C50 1.261 . S
C45 O54 1.247 . S
C45 O55 1.272 . S
O46 Co42 2.004 . S
O46 C51 1.259 . S
Co47 O48 2.061 . S
Co47 O53 2.052 . S
Co47 O55 2.135 . S
O48 Co47 2.061 . S
O48 C51 1.235 . S
C49 O52 1.238 . S
C49 O53 1.241 . S
C50 O43 1.247 . S
C50 O44 1.261 . S
C51 O46 1.259 . S
C51 O48 1.235 . S
O52 Co42 2.021 . S
O52 C49 1.238 . S
O53 Co47 2.052 . S
O53 C49 1.241 . S
O54 Co42 2.137 . S
O54 C45 1.247 . S
O55 Co42 2.244 . S
O55 C45 1.272 . S
O55 Co47 2.135 . S
Co56 O57 2.216 1_545 S
Co56 O58 2.091 1_545 S
Co56 O60 2.004 . S
Co56 O66 2.021 . S
Co56 O68 2.137 . S
Co56 O69 2.244 . S
O57 Co56 2.216 1_565 S
O57 C64 1.247 . S
O58 Co56 2.091 1_565 S
O58 C64 1.261 . S
C59 O68 1.247 . S
C59 O69 1.272 . S
O60 Co56 2.004 . S
O60 C65 1.259 . S
Co61 O62 2.061 . S
Co61 O67 2.052 . S
Co61 O69 2.135 . S
O62 Co61 2.061 . S
O62 C65 1.235 . S
C63 O66 1.238 . S
C63 O67 1.241 . S
C64 O57 1.247 . S
C64 O58 1.261 . S
C65 O60 1.259 . S
C65 O62 1.235 . S
O66 Co56 2.021 . S
O66 C63 1.238 . S
O67 Co61 2.052 . S
O67 C63 1.241 . S
O68 Co56 2.137 . S
O68 C59 1.247 . S
O69 Co56 2.244 . S
O69 C59 1.272 . S
O69 Co61 2.135 . S
Co70 O71 2.216 . S
Co70 O72 2.091 . S
Co70 O74 2.004 . S
Co70 O80 2.021 . S
Co70 O82 2.137 . S
Co70 O83 2.244 . S
O71 Co70 2.216 . S
O71 C78 1.247 . S
O72 Co70 2.091 . S
O72 C78 1.261 . S
C73 O82 1.247 . S
C73 O83 1.272 . S
O74 Co70 2.004 . S
O74 C79 1.259 . S
Co75 O76 2.061 . S
Co75 O81 2.052 . S
Co75 O83 2.135 . S
O76 Co75 2.061 . S
O76 C79 1.235 . S
C77 O80 1.238 . S
C77 O81 1.241 . S
C78 O71 1.247 . S
C78 O72 1.261 . S
C79 O74 1.259 . S
C79 O76 1.235 . S
O80 Co70 2.021 . S
O80 C77 1.238 . S
O81 Co75 2.052 . S
O81 C77 1.241 . S
O82 Co70 2.137 . S
O82 C73 1.247 . S
O83 Co70 2.244 . S
O83 C73 1.272 . S
O83 Co75 2.135 . S
Co84 O85 2.216 . S
Co84 O86 2.091 . S
Co84 O88 2.004 1_545 S
Co84 O94 2.021 . S
Co84 O96 2.137 . S
Co84 O97 2.244 . S
O85 Co84 2.216 . S
O85 C92 1.247 . S
O86 Co84 2.091 . S
O86 C92 1.261 . S
C87 O96 1.247 . S
C87 O97 1.272 . S
O88 Co84 2.004 1_565 S
O88 C93 1.259 . S
Co89 O90 2.061 . S
Co89 O95 2.052 . S
Co89 O97 2.135 1_565 S
O90 Co89 2.061 . S
O90 C93 1.235 . S
C91 O94 1.238 . S
C91 O95 1.241 1_545 S
C92 O85 1.247 . S
C92 O86 1.261 . S
C93 O88 1.259 . S
C93 O90 1.235 . S
O94 Co84 2.021 . S
O94 C91 1.238 . S
O95 Co89 2.052 . S
O95 C91 1.241 1_565 S
O96 Co84 2.137 . S
O96 C87 1.247 . S
O97 Co84 2.244 . S
O97 C87 1.272 . S
O97 Co89 2.135 1_545 S
Co98 O99 2.216 . S
Co98 O100 2.091 . S
Co98 O102 2.004 . S
Co98 O108 2.021 . S
Co98 O110 2.137 1_554 S
Co98 O111 2.244 . S
O99 Co98 2.216 . S
O99 C106 1.247 . S
O100 Co98 2.091 . S
O100 C106 1.261 . S
C101 O110 1.247 . S
C101 O111 1.272 1_556 S
O102 Co98 2.004 . S
O102 C107 1.259 . S
Co103 O104 2.061 . S
Co103 O109 2.052 . S
Co103 O111 2.135 . S
O104 Co103 2.061 . S
O104 C107 1.235 . S
C105 O108 1.238 . S
C105 O109 1.241 . S
C106 O99 1.247 . S
C106 O100 1.261 . S
C107 O102 1.259 . S
C107 O104 1.235 . S
O108 Co98 2.021 . S
O108 C105 1.238 . S
O109 Co103 2.052 . S
O109 C105 1.241 . S
O110 Co98 2.137 1_556 S
O110 C101 1.247 . S
O111 Co98 2.244 . S
O111 C101 1.272 1_554 S
O111 Co103 2.135 . S
Co112 O113 2.216 . S
Co112 O114 2.091 . S
Co112 O116 2.004 . S
Co112 O122 2.021 . S
Co112 O124 2.137 . S
Co112 O125 2.244 . S
O113 Co112 2.216 . S
O113 C120 1.247 . S
O114 Co112 2.091 . S
O114 C120 1.261 . S
C115 O124 1.247 . S
C115 O125 1.272 . S
O116 Co112 2.004 . S
O116 C121 1.259 . S
Co117 O118 2.061 . S
Co117 O123 2.052 . S
Co117 O125 2.135 . S
O118 Co117 2.061 . S
O118 C121 1.235 . S
C119 O122 1.238 . S
C119 O123 1.241 . S
C120 O113 1.247 . S
C120 O114 1.261 . S
C121 O116 1.259 . S
C121 O118 1.235 . S
O122 Co112 2.021 . S
O122 C119 1.238 . S
O123 Co117 2.052 . S
O123 C119 1.241 . S
O124 Co112 2.137 . S
O124 C115 1.247 . S
O125 Co112 2.244 . S
O125 C115 1.272 . S
O125 Co117 2.135 . S
Co126 O127 2.216 . S
Co126 O128 2.091 . S
Co126 O130 2.004 . S
Co126 O136 2.021 . S
Co126 O138 2.137 . S
Co126 O139 2.244 . S
O127 Co126 2.216 . S
O127 C134 1.247 . S
O128 Co126 2.091 . S
O128 C134 1.261 . S
C129 O138 1.247 . S
C129 O139 1.272 . S
O130 Co126 2.004 . S
O130 C135 1.259 . S
Co131 O132 2.061 . S
Co131 O137 2.052 . S
Co131 O139 2.135 . S
O132 Co131 2.061 . S
O132 C135 1.235 . S
C133 O136 1.238 . S
C133 O137 1.241 . S
C134 O127 1.247 . S
C134 O128 1.261 . S
C135 O130 1.259 . S
C135 O132 1.235 . S
O136 Co126 2.021 . S
O136 C133 1.238 . S
O137 Co131 2.052 . S
O137 C133 1.241 . S
O138 Co126 2.137 . S
O138 C129 1.247 . S
O139 Co126 2.244 . S
O139 C129 1.272 . S
O139 Co131 2.135 . S
Co140 O141 2.216 . S
Co140 O142 2.091 . S
Co140 O144 2.004 . S
Co140 O150 2.021 . S
Co140 O152 2.137 . S
Co140 O153 2.244 . S
O141 Co140 2.216 . S
O141 C148 1.247 . S
O142 Co140 2.091 . S
O142 C148 1.261 . S
C143 O152 1.247 . S
C143 O153 1.272 . S
O144 Co140 2.004 . S
O144 C149 1.259 . S
Co145 O146 2.061 . S
Co145 O151 2.052 . S
Co145 O153 2.135 . S
O146 Co145 2.061 . S
O146 C149 1.235 . S
C147 O150 1.238 . S
C147 O151 1.241 . S
C148 O141 1.247 . S
C148 O142 1.261 . S
C149 O144 1.259 . S
C149 O146 1.235 . S
O150 Co140 2.021 . S
O150 C147 1.238 . S
O151 Co145 2.052 . S
O151 C147 1.241 . S
O152 Co140 2.137 . S
O152 C143 1.247 . S
O153 Co140 2.244 . S
O153 C143 1.272 . S
O153 Co145 2.135 . S
Co154 O155 2.216 . S
Co154 O156 2.091 . S
Co154 O158 2.004 . S
Co154 O164 2.021 . S
Co154 O166 2.137 . S
Co154 O167 2.244 . S
O155 Co154 2.216 . S
O155 C162 1.247 . S
O156 Co154 2.091 . S
O156 C162 1.261 . S
C157 O166 1.247 . S
C157 O167 1.272 . S
O158 Co154 2.004 . S
O158 C163 1.259 . S
Co159 O160 2.061 . S
Co159 O165 2.052 . S
Co159 O167 2.135 . S
O160 Co159 2.061 . S
O160 C163 1.235 . S
C161 O164 1.238 . S
C161 O165 1.241 . S
C162 O155 1.247 . S
C162 O156 1.261 . S
C163 O158 1.259 . S
C163 O160 1.235 . S
O164 Co154 2.021 . S
O164 C161 1.238 . S
O165 Co159 2.052 . S
O165 C161 1.241 . S
O166 Co154 2.137 . S
O166 C157 1.247 . S
O167 Co154 2.244 . S
O167 C157 1.272 . S
O167 Co159 2.135 . S
Co168 O169 2.216 . S
Co168 O170 2.091 . S
Co168 O172 2.004 1_455 S
Co168 O178 2.021 . S
Co168 O180 2.137 . S
Co168 O181 2.244 1_455 S
O169 Co168 2.216 . S
O169 C176 1.247 . S
O170 Co168 2.091 . S
O170 C176 1.261 . S
C171 O180 1.247 . S
C171 O181 1.272 1_455 S
O172 Co168 2.004 1_655 S
O172 C177 1.259 . S
Co173 O174 2.061 . S
Co173 O179 2.052 . S
Co173 O181 2.135 . S
O174 Co173 2.061 . S
O174 C177 1.235 . S
C175 O178 1.238 1_655 S
C175 O179 1.241 . S
C176 O169 1.247 . S
C176 O170 1.261 . S
C177 O172 1.259 . S
C177 O174 1.235 . S
O178 Co168 2.021 . S
O178 C175 1.238 1_455 S
O179 Co173 2.052 . S
O179 C175 1.241 . S
O180 Co168 2.137 . S
O180 C171 1.247 . S
O181 Co168 2.244 1_655 S
O181 C171 1.272 1_655 S
O181 Co173 2.135 . S
Co182 O183 2.216 1_455 S
Co182 O184 2.091 . S
Co182 O186 2.004 . S
Co182 O192 2.021 . S
Co182 O194 2.137 . S
Co182 O195 2.244 . S
O183 Co182 2.216 1_655 S
O183 C190 1.247 . S
O184 Co182 2.091 . S
O184 C190 1.261 1_455 S
C185 O194 1.247 . S
C185 O195 1.272 . S
O186 Co182 2.004 . S
O186 C191 1.259 . S
Co187 O188 2.061 . S
Co187 O193 2.052 . S
Co187 O195 2.135 . S
O188 Co187 2.061 . S
O188 C191 1.235 . S
C189 O192 1.238 . S
C189 O193 1.241 . S
C190 O183 1.247 . S
C190 O184 1.261 1_655 S
C191 O186 1.259 . S
C191 O188 1.235 . S
O192 Co182 2.021 . S
O192 C189 1.238 . S
O193 Co187 2.052 . S
O193 C189 1.241 . S
O194 Co182 2.137 . S
O194 C185 1.247 . S
O195 Co182 2.244 . S
O195 C185 1.272 . S
O195 Co187 2.135 . S
Co196 O197 2.216 . S
Co196 O198 2.091 . S
Co196 O200 2.004 . S
Co196 O206 2.021 . S
Co196 O208 2.137 . S
Co196 O209 2.244 . S
O197 Co196 2.216 . S
O197 C204 1.247 . S
O198 Co196 2.091 . S
O198 C204 1.261 . S
C199 O208 1.247 . S
C199 O209 1.272 . S
O200 Co196 2.004 . S
O200 C205 1.259 . S
Co201 O202 2.061 . S
Co201 O207 2.052 . S
Co201 O209 2.135 . S
O202 Co201 2.061 . S
O202 C205 1.235 . S
C203 O206 1.238 . S
C203 O207 1.241 . S
C204 O197 1.247 . S
C204 O198 1.261 . S
C205 O200 1.259 . S
C205 O202 1.235 . S
O206 Co196 2.021 . S
O206 C203 1.238 . S
O207 Co201 2.052 . S
O207 C203 1.241 . S
O208 Co196 2.137 . S
O208 C199 1.247 . S
O209 Co196 2.244 . S
O209 C199 1.272 . S
O209 Co201 2.135 . S
Co210 O211 2.216 . S
Co210 O212 2.091 . S
Co210 O214 2.004 . S
Co210 O220 2.021 . S
Co210 O222 2.137 . S
Co210 O223 2.244 . S
O211 Co210 2.216 . S
O211 C218 1.247 . S
O212 Co210 2.091 . S
O212 C218 1.261 . S
C213 O222 1.247 . S
C213 O223 1.272 . S
O214 Co210 2.004 . S
O214 C219 1.259 . S
Co215 O216 2.061 . S
Co215 O221 2.052 . S
Co215 O223 2.135 . S
O216 Co215 2.061 . S
O216 C219 1.235 . S
C217 O220 1.238 . S
C217 O221 1.241 . S
C218 O211 1.247 . S
C218 O212 1.261 . S
C219 O214 1.259 . S
C219 O216 1.235 . S
O220 Co210 2.021 . S
O220 C217 1.238 . S
O221 Co215 2.052 . S
O221 C217 1.241 . S
O222 Co210 2.137 . S
O222 C213 1.247 . S
O223 Co210 2.244 . S
O223 C213 1.272 . S
O223 Co215 2.135 . S
Co224 O225 2.216 . S
Co224 O226 2.091 . S
Co224 O228 2.004 1_545 S
Co224 O234 2.021 . S
Co224 O236 2.137 . S
Co224 O237 2.244 1_545 S
O225 Co224 2.216 . S
O225 C232 1.247 . S
O226 Co224 2.091 . S
O226 C232 1.261 . S
C227 O236 1.247 . S
C227 O237 1.272 1_545 S
O228 Co224 2.004 1_565 S
O228 C233 1.259 . S
Co229 O230 2.061 . S
Co229 O235 2.052 . S
Co229 O237 2.135 . S
O230 Co229 2.061 . S
O230 C233 1.235 . S
C231 O234 1.238 . S
C231 O235 1.241 1_545 S
C232 O225 1.247 . S
C232 O226 1.261 . S
C233 O228 1.259 . S
C233 O230 1.235 . S
O234 Co224 2.021 . S
O234 C231 1.238 . S
O235 Co229 2.052 . S
O235 C231 1.241 1_565 S
O236 Co224 2.137 . S
O236 C227 1.247 . S
O237 Co224 2.244 1_565 S
O237 C227 1.272 1_565 S
O237 Co229 2.135 . S
Co238 O239 2.216 . S
Co238 O240 2.091 . S
Co238 O242 2.004 . S
Co238 O248 2.021 . S
Co238 O250 2.137 . S
Co238 O251 2.244 . S
O239 Co238 2.216 . S
O239 C246 1.247 . S
O240 Co238 2.091 . S
O240 C246 1.261 . S
C241 O250 1.247 . S
C241 O251 1.272 . S
O242 Co238 2.004 . S
O242 C247 1.259 . S
Co243 O244 2.061 . S
Co243 O249 2.052 . S
Co243 O251 2.135 . S
O244 Co243 2.061 . S
O244 C247 1.235 . S
C245 O248 1.238 . S
C245 O249 1.241 . S
C246 O239 1.247 . S
C246 O240 1.261 . S
C247 O242 1.259 . S
C247 O244 1.235 . S
O248 Co238 2.021 . S
O248 C245 1.238 . S
O249 Co243 2.052 . S
O249 C245 1.241 . S
O250 Co238 2.137 . S
O250 C241 1.247 . S
O251 Co238 2.244 . S
O251 C241 1.272 . S
O251 Co243 2.135 . S
Co252 O253 2.216 1_545 S
Co252 O254 2.091 1_545 S
Co252 O256 2.004 . S
Co252 O262 2.021 . S
Co252 O264 2.137 . S
Co252 O265 2.244 . S
O253 Co252 2.216 1_565 S
O253 C260 1.247 . S
O254 Co252 2.091 1_565 S
O254 C260 1.261 . S
C255 O264 1.247 . S
C255 O265 1.272 . S
O256 Co252 2.004 . S
O256 C261 1.259 . S
Co257 O258 2.061 . S
Co257 O263 2.052 . S
Co257 O265 2.135 . S
O258 Co257 2.061 . S
O258 C261 1.235 . S
C259 O262 1.238 . S
C259 O263 1.241 . S
C260 O253 1.247 . S
C260 O254 1.261 . S
C261 O256 1.259 . S
C261 O258 1.235 . S
O262 Co252 2.021 . S
O262 C259 1.238 . S
O263 Co257 2.052 . S
O263 C259 1.241 . S
O264 Co252 2.137 . S
O264 C255 1.247 . S
O265 Co252 2.244 . S
O265 C255 1.272 . S
O265 Co257 2.135 . S
Co266 O267 2.216 . S
Co266 O268 2.091 . S
Co266 O270 2.004 . S
Co266 O276 2.021 . S
Co266 O278 2.137 1_554 S
Co266 O279 2.244 . S
O267 Co266 2.216 . S
O267 C274 1.247 . S
O268 Co266 2.091 . S
O268 C274 1.261 . S
C269 O278 1.247 . S
C269 O279 1.272 1_556 S
O270 Co266 2.004 . S
O270 C275 1.259 . S
Co271 O272 2.061 . S
Co271 O277 2.052 . S
Co271 O279 2.135 . S
O272 Co271 2.061 . S
O272 C275 1.235 . S
C273 O276 1.238 . S
C273 O277 1.241 . S
C274 O267 1.247 . S
C274 O268 1.261 . S
C275 O270 1.259 . S
C275 O272 1.235 . S
O276 Co266 2.021 . S
O276 C273 1.238 . S
O277 Co271 2.052 . S
O277 C273 1.241 . S
O278 Co266 2.137 1_556 S
O278 C269 1.247 . S
O279 Co266 2.244 . S
O279 C269 1.272 1_554 S
O279 Co271 2.135 . S
Co280 O281 2.216 . S
Co280 O282 2.087 1_556 S
Co280 O284 2.004 . S
Co280 O290 2.021 1_556 S
Co280 O292 2.137 . S
Co280 O293 2.244 . S
O281 Co280 2.216 . S
O281 C288 1.243 1_556 S
O282 Co280 2.087 1_554 S
O282 C288 1.261 . S
C283 O292 1.247 . S
C283 O293 1.272 . S
O284 Co280 2.004 . S
O284 C289 1.259 . S
Co285 O286 2.061 1_556 S
Co285 O291 2.052 1_556 S
Co285 O293 2.135 . S
O286 Co285 2.061 1_554 S
O286 C289 1.234 1_554 S
C287 O290 1.238 . S
C287 O291 1.241 . S
C288 O281 1.243 1_554 S
C288 O282 1.261 . S
C289 O284 1.259 . S
C289 O286 1.234 1_556 S
O290 Co280 2.021 1_554 S
O290 C287 1.238 . S
O291 Co285 2.052 1_554 S
O291 C287 1.241 . S
O292 Co280 2.137 . S
O292 C283 1.247 . S
O293 Co280 2.244 . S
O293 C283 1.272 . S
O293 Co285 2.135 . S
Co294 O295 2.216 . S
Co294 O296 2.091 . S
Co294 O298 2.004 . S
Co294 O304 2.021 . S
Co294 O306 2.137 . S
Co294 O307 2.244 . S
O295 Co294 2.216 . S
O295 C302 1.247 . S
O296 Co294 2.091 . S
O296 C302 1.261 . S
C297 O306 1.247 . S
C297 O307 1.272 . S
O298 Co294 2.004 . S
O298 C303 1.259 . S
Co299 O300 2.061 . S
Co299 O305 2.052 . S
Co299 O307 2.135 . S
O300 Co299 2.061 . S
O300 C303 1.235 . S
C301 O304 1.238 . S
C301 O305 1.241 . S
C302 O295 1.247 . S
C302 O296 1.261 . S
C303 O298 1.259 . S
C303 O300 1.235 . S
O304 Co294 2.021 . S
O304 C301 1.238 . S
O305 Co299 2.052 . S
O305 C301 1.241 . S
O306 Co294 2.137 . S
O306 C297 1.247 . S
O307 Co294 2.244 . S
O307 C297 1.272 . S
O307 Co299 2.135 . S
Co308 O309 2.216 . S
Co308 O310 2.091 . S
Co308 O312 2.004 . S
Co308 O318 2.021 . S
Co308 O320 2.137 . S
Co308 O321 2.244 . S
O309 Co308 2.216 . S
O309 C316 1.247 . S
O310 Co308 2.091 . S
O310 C316 1.261 . S
C311 O320 1.247 . S
C311 O321 1.272 . S
O312 Co308 2.004 . S
O312 C317 1.259 . S
Co313 O314 2.061 . S
Co313 O319 2.052 . S
Co313 O321 2.135 . S
O314 Co313 2.061 . S
O314 C317 1.235 . S
C315 O318 1.238 . S
C315 O319 1.241 . S
C316 O309 1.247 . S
C316 O310 1.261 . S
C317 O312 1.259 . S
C317 O314 1.235 . S
O318 Co308 2.021 . S
O318 C315 1.238 . S
O319 Co313 2.052 . S
O319 C315 1.241 . S
O320 Co308 2.137 . S
O320 C311 1.247 . S
O321 Co308 2.244 . S
O321 C311 1.272 . S
O321 Co313 2.135 . S
Co322 O323 2.216 . S
Co322 O324 2.091 . S
Co322 O326 2.004 . S
Co322 O332 2.021 . S
Co322 O334 2.137 . S
Co322 O335 2.244 . S
O323 Co322 2.216 . S
O323 C330 1.247 . S
O324 Co322 2.091 . S
O324 C330 1.261 . S
C325 O334 1.247 . S
C325 O335 1.272 . S
O326 Co322 2.004 . S
O326 C331 1.259 . S
Co327 O328 2.061 . S
Co327 O333 2.052 . S
Co327 O335 2.135 . S
O328 Co327 2.061 . S
O328 C331 1.235 . S
C329 O332 1.238 . S
C329 O333 1.241 . S
C330 O323 1.247 . S
C330 O324 1.261 . S
C331 O326 1.259 . S
C331 O328 1.235 . S
O332 Co322 2.021 . S
O332 C329 1.238 . S
O333 Co327 2.052 . S
O333 C329 1.241 . S
O334 Co322 2.137 . S
O334 C325 1.247 . S
O335 Co322 2.244 . S
O335 C325 1.272 . S
O335 Co327 2.135 . S
C336 O352 1.253 1_455 S
C336 O354 1.254 . S
N337 C338 1.333 1_565 S
N337 C342 1.307 . S
N337 Zn343 2.020 1_665 S
C338 N337 1.333 1_545 S
C338 C339 1.381 . S
C338 H356 0.952 . S
C339 C338 1.381 . S
C339 C340 1.385 1_545 S
C339 H366 0.953 . S
C340 C339 1.385 1_565 S
C340 C341 1.357 . S
C341 C340 1.357 . S
C341 C342 1.370 . S
C341 H367 0.950 . S
C342 N337 1.307 . S
C342 C341 1.370 . S
C342 H360 0.948 . S
Zn343 N337 2.020 1_445 S
Zn343 O352 2.035 1_454 S
Zn343 O358 2.034 . S
Zn343 O362 2.025 1_545 S
Zn343 O364 2.024 1_545 S
C344 O363 1.246 . S
C344 O364 1.249 . S
N345 C346 1.307 1_554 S
N345 C347 1.333 . S
N345 Zn351 2.020 . S
C346 N345 1.307 1_556 S
C346 C350 1.370 . S
C346 H357 0.948 . S
C347 N345 1.333 . S
C347 C348 1.379 . S
C347 H355 0.952 . S
C348 C347 1.379 . S
C348 C349 1.394 . S
C348 H368 0.949 . S
C349 C348 1.394 . S
C349 C350 1.355 1_554 S
C350 C346 1.370 . S
C350 C349 1.355 1_556 S
C350 H369 0.950 . S
Zn351 N345 2.020 . S
Zn351 O354 2.025 1_554 S
Zn351 O359 2.024 . S
Zn351 O361 2.039 . S
Zn351 O363 2.034 1_545 S
O352 C336 1.253 1_655 S
O352 Zn343 2.035 1_656 S
C353 O358 1.246 . S
C353 O359 1.249 . S
O354 C336 1.254 . S
O354 Zn351 2.025 1_556 S
H355 C347 0.952 . S
H356 C338 0.952 . S
H357 C346 0.948 . S
O358 Zn343 2.034 . S
O358 C353 1.246 . S
O359 Zn351 2.024 . S
O359 C353 1.249 . S
H360 C342 0.948 . S
O361 Zn351 2.039 . S
O361 C365 1.251 1_545 S
O362 Zn343 2.025 1_565 S
O362 C365 1.254 . S
O363 C344 1.246 . S
O363 Zn351 2.034 1_565 S
O364 Zn343 2.024 1_565 S
O364 C344 1.249 . S
C365 O361 1.251 1_565 S
C365 O362 1.254 . S
H366 C339 0.953 . S
H367 C341 0.950 . S
H368 C348 0.949 . S
H369 C350 0.950 . S
C370 O386 1.251 . S
C370 O388 1.254 . S
N371 C372 1.333 . S
N371 C376 1.307 . S
N371 Zn377 2.020 . S
C372 N371 1.333 . S
C372 C373 1.379 . S
C372 H390 0.952 . S
C373 C372 1.379 . S
C373 C374 1.390 . S
C373 H400 0.949 . S
C374 C373 1.390 . S
C374 C375 1.357 . S
C375 C374 1.357 . S
C375 C376 1.370 . S
C375 H401 0.950 . S
C376 N371 1.307 . S
C376 C375 1.370 . S
C376 H394 0.948 . S
Zn377 N371 2.020 . S
Zn377 O386 2.039 . S
Zn377 O392 2.034 . S
Zn377 O396 2.025 . S
Zn377 O398 2.024 . S
C378 O397 1.246 . S
C378 O398 1.249 . S
N379 C380 1.307 . S
N379 C381 1.333 . S
N379 Zn385 2.020 . S
C380 N379 1.307 . S
C380 C384 1.370 . S
C380 H391 0.948 . S
C381 N379 1.333 . S
C381 C382 1.379 . S
C381 H389 0.952 . S
C382 C381 1.379 . S
C382 C383 1.390 . S
C382 H402 0.949 . S
C383 C382 1.390 . S
C383 C384 1.357 . S
C384 C380 1.370 . S
C384 C383 1.357 . S
C384 H403 0.950 . S
Zn385 N379 2.020 . S
Zn385 O388 2.025 . S
Zn385 O393 2.024 . S
Zn385 O395 2.039 . S
Zn385 O397 2.034 . S
O386 C370 1.251 . S
O386 Zn377 2.039 . S
C387 O392 1.246 . S
C387 O393 1.249 . S
O388 C370 1.254 . S
O388 Zn385 2.025 . S
H389 C381 0.952 . S
H390 C372 0.952 . S
H391 C380 0.948 . S
O392 Zn377 2.034 . S
O392 C387 1.246 . S
O393 Zn385 2.024 . S
O393 C387 1.249 . S
H394 C376 0.948 . S
O395 Zn385 2.039 . S
O395 C399 1.251 . S
O396 Zn377 2.025 . S
O396 C399 1.254 . S
O397 C378 1.246 . S
O397 Zn385 2.034 . S
O398 Zn377 2.024 . S
O398 C378 1.249 . S
C399 O395 1.251 . S
C399 O396 1.254 . S
H400 C373 0.949 . S
H401 C375 0.950 . S
H402 C382 0.949 . S
H403 C384 0.950 . S
C404 O420 1.288 . S
C404 O422 1.254 . S
N405 C406 1.333 . S
N405 C410 1.307 . S
N405 Zn411 2.020 . S
C406 N405 1.333 . S
C406 C407 1.379 . S
C406 H424 0.952 . S
C407 C406 1.379 . S
C407 C408 1.390 . S
C407 H434 0.949 . S
C408 C407 1.390 . S
C408 C409 1.357 . S
C409 C408 1.357 . S
C409 C410 1.370 . S
C409 H435 0.950 . S
C410 N405 1.307 . S
C410 C409 1.370 . S
C410 H428 0.948 . S
Zn411 N405 2.020 . S
Zn411 O420 2.024 1_565 S
Zn411 O426 2.034 1_565 S
Zn411 O430 2.025 . S
Zn411 O432 2.024 . S
C412 O431 1.246 1_565 S
C412 O432 1.249 . S
N413 C414 1.307 . S
N413 C415 1.333 . S
N413 Zn419 2.020 . S
C414 N413 1.307 . S
C414 C418 1.370 . S
C414 H425 0.948 . S
C415 N413 1.333 . S
C415 C416 1.379 . S
C415 H423 0.952 . S
C416 C415 1.379 . S
C416 C417 1.390 . S
C416 H436 0.949 . S
C417 C416 1.390 . S
C417 C418 1.357 . S
C418 C414 1.370 . S
C418 C417 1.357 . S
C418 H437 0.950 . S
Zn419 N413 2.020 . S
Zn419 O422 2.025 . S
Zn419 O427 2.024 . S
Zn419 O429 2.039 . S
Zn419 O431 2.034 . S
O420 C404 1.288 . S
O420 Zn411 2.024 1_545 S
C421 O426 1.246 . S
C421 O427 1.249 . S
O422 C404 1.254 . S
O422 Zn419 2.025 . S
H423 C415 0.952 . S
H424 C406 0.952 . S
H425 C414 0.948 . S
O426 Zn411 2.034 1_545 S
O426 C421 1.246 . S
O427 Zn419 2.024 . S
O427 C421 1.249 . S
H428 C410 0.948 . S
O429 Zn419 2.039 . S
O429 C433 1.251 . S
O430 Zn411 2.025 . S
O430 C433 1.254 1_565 S
O431 C412 1.246 1_545 S
O431 Zn419 2.034 . S
O432 Zn411 2.024 . S
O432 C412 1.249 . S
C433 O429 1.251 . S
C433 O430 1.254 1_545 S
H434 C407 0.949 . S
H435 C409 0.950 . S
H436 C416 0.949 . S
H437 C418 0.950 . S
C438 O454 1.251 . S
C438 O456 1.254 . S
N439 C440 1.333 . S
N439 C444 1.307 . S
N439 Zn445 2.020 . S
C440 N439 1.333 . S
C440 C441 1.379 . S
C440 H458 0.952 . S
C441 C440 1.379 . S
C441 C442 1.390 . S
C441 H468 0.949 . S
C442 C441 1.390 . S
C442 C443 1.357 . S
C443 C442 1.357 . S
C443 C444 1.370 . S
C443 H469 0.950 . S
C444 N439 1.307 . S
C444 C443 1.370 . S
C444 H462 0.948 . S
Zn445 N439 2.020 . S
Zn445 O454 2.039 . S
Zn445 O460 2.034 . S
Zn445 O464 2.025 . S
Zn445 O466 2.024 . S
C446 O465 1.246 . S
C446 O466 1.249 . S
N447 C448 1.307 . S
N447 C449 1.333 . S
N447 Zn453 2.020 . S
C448 N447 1.307 . S
C448 C452 1.370 . S
C448 H459 0.948 . S
C449 N447 1.333 . S
C449 C450 1.379 . S
C449 H457 0.952 . S
C450 C449 1.379 . S
C450 C451 1.390 . S
C450 H470 0.949 . S
C451 C450 1.390 . S
C451 C452 1.357 . S
C452 C448 1.370 . S
C452 C451 1.357 . S
C452 H471 0.950 . S
Zn453 N447 2.020 . S
Zn453 O456 2.025 . S
Zn453 O461 2.024 . S
Zn453 O463 2.039 . S
Zn453 O465 2.034 . S
O454 C438 1.251 . S
O454 Zn445 2.039 . S
C455 O460 1.246 . S
C455 O461 1.249 . S
O456 C438 1.254 . S
O456 Zn453 2.025 . S
H457 C449 0.952 . S
H458 C440 0.952 . S
H459 C448 0.948 . S
O460 Zn445 2.034 . S
O460 C455 1.246 . S
O461 Zn453 2.024 . S
O461 C455 1.249 . S
H462 C444 0.948 . S
O463 Zn453 2.039 . S
O463 C467 1.251 . S
O464 Zn445 2.025 . S
O464 C467 1.254 . S
O465 C446 1.246 . S
O465 Zn453 2.034 . S
O466 Zn445 2.024 . S
O466 C446 1.249 . S
C467 O463 1.251 . S
C467 O464 1.254 . S
H468 C441 0.949 . S
H469 C443 0.950 . S
H470 C450 0.949 . S
H471 C452 0.950 . S
C472 O488 1.251 1_565 S
C472 O490 1.254 . S
N473 C474 1.333 . S
N473 C478 1.307 . S
N473 Zn479 2.020 . S
C474 N473 1.333 . S
C474 C475 1.379 . S
C474 H492 0.952 . S
C475 C474 1.379 . S
C475 C476 1.390 . S
C475 H502 0.949 . S
C476 C475 1.390 . S
C476 C477 1.357 . S
C477 C476 1.357 . S
C477 C478 1.370 . S
C477 H503 0.950 . S
C478 N473 1.307 . S
C478 C477 1.370 . S
C478 H496 0.948 . S
Zn479 N473 2.020 . S
Zn479 O488 2.039 . S
Zn479 O494 2.034 . S
Zn479 O498 2.025 . S
Zn479 O500 2.024 1_545 S
C480 O499 1.246 . S
C480 O500 1.249 . S
N481 C482 1.307 . S
N481 C483 1.333 1_455 S
N481 Zn487 2.020 1_565 S
C482 N481 1.307 . S
C482 C486 1.370 . S
C482 H493 0.951 . S
C483 N481 1.333 1_655 S
C483 C484 1.379 . S
C483 H491 0.952 . S
C484 C483 1.379 . S
C484 C485 1.390 . S
C484 H504 0.949 . S
C485 C484 1.390 . S
C485 C486 1.357 1_655 S
C486 C482 1.370 . S
C486 C485 1.357 1_455 S
C486 H505 0.950 . S
Zn487 N481 2.020 1_545 S
Zn487 O490 2.025 1_545 S
Zn487 O495 2.024 . S
Zn487 O497 2.039 1_455 S
Zn487 O499 2.034 1_545 S
O488 C472 1.251 1_545 S
O488 Zn479 2.039 . S
C489 O494 1.246 . S
C489 O495 1.249 . S
O490 C472 1.254 . S
O490 Zn487 2.025 1_565 S
H491 C483 0.952 . S
H492 C474 0.952 . S
H493 C482 0.951 . S
O494 Zn479 2.034 . S
O494 C489 1.246 . S
O495 Zn487 2.024 . S
O495 C489 1.249 . S
H496 C478 0.948 . S
O497 Zn487 2.039 1_655 S
O497 C501 1.251 . S
O498 Zn479 2.025 . S
O498 C501 1.254 1_455 S
O499 C480 1.246 . S
O499 Zn487 2.034 1_565 S
O500 Zn479 2.024 1_565 S
O500 C480 1.249 . S
C501 O497 1.251 . S
C501 O498 1.254 1_655 S
H502 C475 0.949 . S
H503 C477 0.950 . S
H504 C484 0.949 . S
H505 C486 0.950 . S
C506 O522 1.251 . S
C506 O524 1.254 . S
N507 C508 1.333 . S
N507 C512 1.307 . S
N507 Zn513 2.020 . S
C508 N507 1.333 . S
C508 C509 1.379 . S
C508 H526 0.952 . S
C509 C508 1.379 . S
C509 C510 1.390 . S
C509 H536 0.949 . S
C510 C509 1.390 . S
C510 C511 1.357 . S
C511 C510 1.357 . S
C511 C512 1.370 . S
C511 H537 0.950 . S
C512 N507 1.307 . S
C512 C511 1.370 . S
C512 H530 0.948 . S
Zn513 N507 2.020 . S
Zn513 O522 2.039 . S
Zn513 O528 2.034 . S
Zn513 O532 2.025 . S
Zn513 O534 2.024 . S
C514 O533 1.246 . S
C514 O534 1.249 . S
N515 C516 1.307 . S
N515 C517 1.333 . S
N515 Zn521 2.020 . S
C516 N515 1.307 . S
C516 C520 1.370 . S
C516 H527 0.948 . S
C517 N515 1.333 . S
C517 C518 1.379 . S
C517 H525 0.952 . S
C518 C517 1.379 . S
C518 C519 1.390 . S
C518 H538 0.949 . S
C519 C518 1.390 . S
C519 C520 1.357 . S
C520 C516 1.370 . S
C520 C519 1.357 . S
C520 H539 0.950 . S
Zn521 N515 2.020 . S
Zn521 O524 2.025 . S
Zn521 O529 2.024 . S
Zn521 O531 2.039 . S
Zn521 O533 2.034 . S
O522 C506 1.251 . S
O522 Zn513 2.039 . S
C523 O528 1.246 . S
C523 O529 1.249 . S
O524 C506 1.254 . S
O524 Zn521 2.025 . S
H525 C517 0.952 . S
H526 C508 0.952 . S
H527 C516 0.948 . S
O528 Zn513 2.034 . S
O528 C523 1.246 . S
O529 Zn521 2.024 . S
O529 C523 1.249 . S
H530 C512 0.948 . S
O531 Zn521 2.039 . S
O531 C535 1.251 . S
O532 Zn513 2.025 . S
O532 C535 1.254 . S
O533 C514 1.246 . S
O533 Zn521 2.034 . S
O534 Zn513 2.024 . S
O534 C514 1.249 . S
C535 O531 1.251 . S
C535 O532 1.254 . S
H536 C509 0.949 . S
H537 C511 0.950 . S
H538 C518 0.949 . S
H539 C520 0.950 . S
C540 O556 1.251 . S
C540 O558 1.254 . S
N541 C542 1.333 . S
N541 C546 1.307 . S
N541 Zn547 2.020 . S
C542 N541 1.333 . S
C542 C543 1.379 . S
C542 H560 0.952 . S
C543 C542 1.379 . S
C543 C544 1.390 . S
C543 H570 0.949 . S
C544 C543 1.390 . S
C544 C545 1.357 . S
C545 C544 1.357 . S
C545 C546 1.370 . S
C545 H571 0.950 . S
C546 N541 1.307 . S
C546 C545 1.370 . S
C546 H564 0.948 . S
Zn547 N541 2.020 . S
Zn547 O556 2.039 1_545 S
Zn547 O562 2.034 . S
Zn547 O566 2.025 . S
Zn547 O568 2.024 . S
C548 O567 1.246 . S
C548 O568 1.249 1_565 S
N549 C550 1.307 . S
N549 C551 1.333 1_565 S
N549 Zn555 2.020 1_566 S
C550 N549 1.307 . S
C550 C554 1.370 . S
C550 H561 0.948 . S
C551 N549 1.333 1_545 S
C551 C552 1.381 . S
C551 H559 0.952 . S
C552 C551 1.381 . S
C552 C553 1.384 1_545 S
C552 H572 0.953 . S
C553 C552 1.384 1_565 S
C553 C554 1.357 . S
C554 C550 1.370 . S
C554 C553 1.357 . S
C554 H573 0.950 . S
Zn555 N549 2.020 1_544 S
Zn555 O558 2.025 1_545 S
Zn555 O563 2.024 . S
Zn555 O565 2.039 1_554 S
Zn555 O567 2.034 1_545 S
O556 C540 1.251 . S
O556 Zn547 2.039 1_565 S
C557 O562 1.246 . S
C557 O563 1.249 . S
O558 C540 1.254 . S
O558 Zn555 2.025 1_565 S
H559 C551 0.952 . S
H560 C542 0.952 . S
H561 C550 0.948 . S
O562 Zn547 2.034 . S
O562 C557 1.246 . S
O563 Zn555 2.024 . S
O563 C557 1.249 . S
H564 C546 0.948 . S
O565 Zn555 2.039 1_556 S
O565 C569 1.251 1_556 S
O566 Zn547 2.025 . S
O566 C569 1.254 . S
O567 C548 1.246 . S
O567 Zn555 2.034 1_565 S
O568 Zn547 2.024 . S
O568 C548 1.249 1_545 S
C569 O565 1.251 1_554 S
C569 O566 1.254 . S
H570 C543 0.949 . S
H571 C545 0.950 . S
H572 C552 0.953 . S
H573 C554 0.950 . S
C574 O590 1.251 . S
C574 O592 1.254 . S
N575 C576 1.333 . S
N575 C580 1.307 . S
N575 Zn581 2.020 . S
C576 N575 1.333 . S
C576 C577 1.379 . S
C576 H594 0.952 . S
C577 C576 1.379 . S
C577 C578 1.390 . S
C577 H604 0.949 . S
C578 C577 1.390 . S
C578 C579 1.357 . S
C579 C578 1.357 . S
C579 C580 1.370 . S
C579 H605 0.950 . S
C580 N575 1.307 . S
C580 C579 1.370 . S
C580 H598 0.948 . S
Zn581 N575 2.020 . S
Zn581 O590 2.039 . S
Zn581 O596 2.034 . S
Zn581 O600 2.025 . S
Zn581 O602 2.024 . S
C582 O601 1.246 . S
C582 O602 1.249 . S
N583 C584 1.307 . S
N583 C585 1.333 . S
N583 Zn589 2.020 . S
C584 N583 1.307 . S
C584 C588 1.370 . S
C584 H595 0.948 . S
C585 N583 1.333 . S
C585 C586 1.379 . S
C585 H593 0.952 . S
C586 C585 1.379 . S
C586 C587 1.390 . S
C586 H606 0.949 . S
C587 C586 1.390 . S
C587 C588 1.357 . S
C588 C584 1.370 . S
C588 C587 1.357 . S
C588 H607 0.950 . S
Zn589 N583 2.020 . S
Zn589 O592 2.025 . S
Zn589 O597 2.024 . S
Zn589 O599 2.039 . S
Zn589 O601 2.034 . S
O590 C574 1.251 . S
O590 Zn581 2.039 . S
C591 O596 1.246 . S
C591 O597 1.249 . S
O592 C574 1.254 . S
O592 Zn589 2.025 . S
H593 C585 0.952 . S
H594 C576 0.952 . S
H595 C584 0.948 . S
O596 Zn581 2.034 . S
O596 C591 1.246 . S
O597 Zn589 2.024 . S
O597 C591 1.249 . S
H598 C580 0.948 . S
O599 Zn589 2.039 . S
O599 C603 1.251 . S
O600 Zn581 2.025 . S
O600 C603 1.254 . S
O601 C582 1.246 . S
O601 Zn589 2.034 . S
O602 Zn581 2.024 . S
O602 C582 1.249 . S
C603 O599 1.251 . S
C603 O600 1.254 . S
H604 C577 0.949 . S
H605 C579 0.950 . S
H606 C586 0.949 . S
H607 C588 0.950 . S
C608 O624 1.251 . S
C608 O626 1.254 . S
N609 C610 1.333 . S
N609 C614 1.307 . S
N609 Zn615 2.020 1_556 S
C610 N609 1.333 . S
C610 C611 1.379 . S
C610 H628 0.952 . S
C611 C610 1.379 . S
C611 C612 1.390 . S
C611 H638 0.949 . S
C612 C611 1.390 . S
C612 C613 1.357 . S
C613 C612 1.357 . S
C613 C614 1.370 . S
C613 H639 0.950 . S
C614 N609 1.307 . S
C614 C613 1.370 . S
C614 H632 0.948 . S
Zn615 N609 2.020 1_554 S
Zn615 O624 2.039 . S
Zn615 O630 2.034 . S
Zn615 O634 2.027 . S
Zn615 O636 2.024 1_554 S
C616 O635 1.246 . S
C616 O636 1.249 1_554 S
N617 C618 1.307 . S
N617 C619 1.333 . S
N617 Zn623 2.020 . S
C618 N617 1.307 . S
C618 C622 1.370 . S
C618 H629 0.948 . S
C619 N617 1.333 . S
C619 C620 1.379 . S
C619 H627 0.952 . S
C620 C619 1.379 . S
C620 C621 1.390 . S
C620 H640 0.949 . S
C621 C620 1.390 . S
C621 C622 1.357 . S
C622 C618 1.370 . S
C622 C621 1.357 . S
C622 H641 0.950 . S
Zn623 N617 2.020 . S
Zn623 O626 2.025 . S
Zn623 O631 2.024 . S
Zn623 O633 2.039 . S
Zn623 O635 2.034 . S
O624 C608 1.251 . S
O624 Zn615 2.039 . S
C625 O630 1.246 . S
C625 O631 1.249 . S
O626 C608 1.254 . S
O626 Zn623 2.025 . S
H627 C619 0.952 . S
H628 C610 0.952 . S
H629 C618 0.948 . S
O630 Zn615 2.034 . S
O630 C625 1.246 . S
O631 Zn623 2.024 . S
O631 C625 1.249 . S
H632 C614 0.948 . S
O633 Zn623 2.039 . S
O633 C637 1.251 . S
O634 Zn615 2.027 . S
O634 C637 1.280 . S
O635 C616 1.246 . S
O635 Zn623 2.034 . S
O636 Zn615 2.024 1_556 S
O636 C616 1.249 1_556 S
C637 O633 1.251 . S
C637 O634 1.280 . S
H638 C611 0.949 . S
H639 C613 0.950 . S
H640 C620 0.949 . S
H641 C622 0.950 . S
C642 O658 1.251 . S
C642 O660 1.254 . S
N643 C644 1.333 . S
N643 C648 1.307 . S
N643 Zn649 2.020 . S
C644 N643 1.333 . S
C644 C645 1.379 . S
C644 H662 0.952 . S
C645 C644 1.379 . S
C645 C646 1.390 . S
C645 H672 0.949 . S
C646 C645 1.390 . S
C646 C647 1.357 . S
C647 C646 1.357 . S
C647 C648 1.370 . S
C647 H673 0.950 . S
C648 N643 1.307 . S
C648 C647 1.370 . S
C648 H666 0.948 . S
Zn649 N643 2.020 . S
Zn649 O658 2.039 . S
Zn649 O664 2.034 . S
Zn649 O668 2.025 . S
Zn649 O670 2.024 . S
C650 O669 1.246 . S
C650 O670 1.249 . S
N651 C652 1.307 . S
N651 C653 1.333 . S
N651 Zn657 2.020 . S
C652 N651 1.307 . S
C652 C656 1.370 . S
C652 H663 0.948 . S
C653 N651 1.333 . S
C653 C654 1.379 . S
C653 H661 0.952 . S
C654 C653 1.379 . S
C654 C655 1.390 . S
C654 H674 0.949 . S
C655 C654 1.390 . S
C655 C656 1.357 . S
C656 C652 1.370 . S
C656 C655 1.357 . S
C656 H675 0.950 . S
Zn657 N651 2.020 . S
Zn657 O660 2.025 . S
Zn657 O665 2.024 . S
Zn657 O667 2.039 . S
Zn657 O669 2.034 . S
O658 C642 1.251 . S
O658 Zn649 2.039 . S
C659 O664 1.246 . S
C659 O665 1.249 . S
O660 C642 1.254 . S
O660 Zn657 2.025 . S
H661 C653 0.952 . S
H662 C644 0.952 . S
H663 C652 0.948 . S
O664 Zn649 2.034 . S
O664 C659 1.246 . S
O665 Zn657 2.024 . S
O665 C659 1.249 . S
H666 C648 0.948 . S
O667 Zn657 2.039 . S
O667 C671 1.251 . S
O668 Zn649 2.025 . S
O668 C671 1.254 . S
O669 C650 1.246 . S
O669 Zn657 2.034 . S
O670 Zn649 2.024 . S
O670 C650 1.249 . S
C671 O667 1.251 . S
C671 O668 1.254 . S
H672 C645 0.949 . S
H673 C647 0.950 . S
H674 C654 0.949 . S
H675 C656 0.950 . S
C676 O692 1.251 . S
C676 O694 1.254 . S
N677 C678 1.333 . S
N677 C682 1.307 . S
N677 Zn683 2.020 . S
C678 N677 1.333 . S
C678 C679 1.379 . S
C678 H696 0.952 . S
C679 C678 1.379 . S
C679 C680 1.390 . S
C679 H706 0.949 . S
C680 C679 1.390 . S
C680 C681 1.357 . S
C681 C680 1.357 . S
C681 C682 1.370 . S
C681 H707 0.950 . S
C682 N677 1.307 . S
C682 C681 1.370 . S
C682 H700 0.948 . S
Zn683 N677 2.020 . S
Zn683 O692 2.039 . S
Zn683 O698 2.034 . S
Zn683 O702 2.025 . S
Zn683 O704 2.024 . S
C684 O703 1.246 . S
C684 O704 1.249 . S
N685 C686 1.307 1_455 S
N685 C687 1.333 . S
N685 Zn691 2.020 . S
C686 N685 1.307 1_655 S
C686 C690 1.370 . S
C686 H697 0.948 . S
C687 N685 1.333 . S
C687 C688 1.379 . S
C687 H695 0.952 . S
C688 C687 1.379 . S
C688 C689 1.390 1_455 S
C688 H708 0.949 . S
C689 C688 1.390 1_655 S
C689 C690 1.357 . S
C690 C686 1.370 . S
C690 C689 1.357 . S
C690 H709 0.950 . S
Zn691 N685 2.020 . S
Zn691 O694 2.025 . S
Zn691 O699 2.024 1_455 S
Zn691 O701 2.039 . S
Zn691 O703 2.034 . S
O692 C676 1.251 . S
O692 Zn683 2.039 . S
C693 O698 1.246 1_655 S
C693 O699 1.249 . S
O694 C676 1.254 . S
O694 Zn691 2.025 . S
H695 C687 0.952 . S
H696 C678 0.952 . S
H697 C686 0.948 . S
O698 Zn683 2.034 . S
O698 C693 1.246 1_455 S
O699 Zn691 2.024 1_655 S
O699 C693 1.249 . S
H700 C682 0.948 . S
O701 Zn691 2.039 . S
O701 C705 1.251 . S
O702 Zn683 2.025 . S
O702 C705 1.254 . S
O703 C684 1.246 . S
O703 Zn691 2.034 . S
O704 Zn683 2.024 . S
O704 C684 1.249 . S
C705 O701 1.251 . S
C705 O702 1.254 . S
H706 C679 0.949 . S
H707 C681 0.950 . S
H708 C688 0.949 . S
H709 C690 0.950 . S
C710 O726 1.251 . S
C710 O728 1.254 . S
N711 C712 1.333 . S
N711 C716 1.307 . S
N711 Zn717 2.020 . S
C712 N711 1.333 . S
C712 C713 1.379 . S
C712 H730 0.952 . S
C713 C712 1.379 . S
C713 C714 1.390 . S
C713 H740 0.949 . S
C714 C713 1.390 . S
C714 C715 1.357 . S
C715 C714 1.357 . S
C715 C716 1.370 . S
C715 H741 0.950 . S
C716 N711 1.307 . S
C716 C715 1.370 . S
C716 H734 0.948 . S
Zn717 N711 2.020 . S
Zn717 O726 2.039 . S
Zn717 O732 2.034 . S
Zn717 O736 2.025 . S
Zn717 O738 2.024 . S
C718 O737 1.246 . S
C718 O738 1.249 . S
N719 C720 1.307 . S
N719 C721 1.333 . S
N719 Zn725 2.020 . S
C720 N719 1.307 . S
C720 C724 1.370 . S
C720 H731 0.948 . S
C721 N719 1.333 . S
C721 C722 1.379 . S
C721 H729 0.952 . S
C722 C721 1.379 . S
C722 C723 1.390 . S
C722 H742 0.949 . S
C723 C722 1.390 . S
C723 C724 1.357 . S
C724 C720 1.370 . S
C724 C723 1.357 . S
C724 H743 0.950 . S
Zn725 N719 2.020 . S
Zn725 O728 2.025 . S
Zn725 O733 2.024 . S
Zn725 O735 2.039 . S
Zn725 O737 2.034 . S
O726 C710 1.251 . S
O726 Zn717 2.039 . S
C727 O732 1.246 . S
C727 O733 1.249 . S
O728 C710 1.254 . S
O728 Zn725 2.025 . S
H729 C721 0.952 . S
H730 C712 0.952 . S
H731 C720 0.948 . S
O732 Zn717 2.034 . S
O732 C727 1.246 . S
O733 Zn725 2.024 . S
O733 C727 1.249 . S
H734 C716 0.948 . S
O735 Zn725 2.039 . S
O735 C739 1.251 . S
O736 Zn717 2.025 . S
O736 C739 1.254 . S
O737 C718 1.246 . S
O737 Zn725 2.034 . S
O738 Zn717 2.024 . S
O738 C718 1.249 . S
C739 O735 1.251 . S
C739 O736 1.254 . S
H740 C713 0.949 . S
H741 C715 0.950 . S
H742 C722 0.949 . S
H743 C724 0.950 . S
C744 O760 1.251 . S
C744 O762 1.254 . S
N745 C746 1.333 . S
N745 C750 1.307 . S
N745 Zn751 2.020 . S
C746 N745 1.333 . S
C746 C747 1.379 . S
C746 H764 0.952 . S
C747 C746 1.379 . S
C747 C748 1.390 . S
C747 H774 0.949 . S
C748 C747 1.390 . S
C748 C749 1.357 . S
C749 C748 1.357 . S
C749 C750 1.370 . S
C749 H775 0.950 . S
C750 N745 1.307 . S
C750 C749 1.370 . S
C750 H768 0.948 . S
Zn751 N745 2.020 . S
Zn751 O760 2.039 . S
Zn751 O766 2.034 . S
Zn751 O770 2.025 . S
Zn751 O772 2.024 . S
C752 O771 1.246 . S
C752 O772 1.249 . S
N753 C754 1.307 . S
N753 C755 1.333 . S
N753 Zn759 2.020 . S
C754 N753 1.307 . S
C754 C758 1.370 . S
C754 H765 0.948 . S
C755 N753 1.333 . S
C755 C756 1.379 . S
C755 H763 0.952 . S
C756 C755 1.379 . S
C756 C757 1.390 . S
C756 H776 0.949 . S
C757 C756 1.390 . S
C757 C758 1.357 . S
C758 C754 1.370 . S
C758 C757 1.357 . S
C758 H777 0.950 . S
Zn759 N753 2.020 . S
Zn759 O762 2.025 . S
Zn759 O767 2.024 . S
Zn759 O769 2.039 . S
Zn759 O771 2.034 . S
O760 C744 1.251 . S
O760 Zn751 2.039 . S
C761 O766 1.246 . S
C761 O767 1.249 . S
O762 C744 1.254 . S
O762 Zn759 2.025 . S
H763 C755 0.952 . S
H764 C746 0.952 . S
H765 C754 0.948 . S
O766 Zn751 2.034 . S
O766 C761 1.246 . S
O767 Zn759 2.024 . S
O767 C761 1.249 . S
H768 C750 0.948 . S
O769 Zn759 2.039 . S
O769 C773 1.251 . S
O770 Zn751 2.025 . S
O770 C773 1.254 . S
O771 C752 1.246 . S
O771 Zn759 2.034 . S
O772 Zn751 2.024 . S
O772 C752 1.249 . S
C773 O769 1.251 . S
C773 O770 1.254 . S
H774 C747 0.949 . S
H775 C749 0.950 . S
H776 C756 0.949 . S
H777 C758 0.950 . S
C778 O794 1.251 . S
C778 O796 1.254 . S
N779 C780 1.333 . S
N779 C784 1.307 . S
N779 Zn785 2.020 . S
C780 N779 1.333 . S
C780 C781 1.379 . S
C780 H798 0.952 . S
C781 C780 1.379 . S
C781 C782 1.390 . S
C781 H808 0.949 . S
C782 C781 1.390 . S
C782 C783 1.357 . S
C783 C782 1.357 . S
C783 C784 1.370 . S
C783 H809 0.950 . S
C784 N779 1.307 . S
C784 C783 1.370 . S
C784 H802 0.948 . S
Zn785 N779 2.020 . S
Zn785 O794 2.039 . S
Zn785 O800 2.034 . S
Zn785 O804 2.025 . S
Zn785 O806 2.024 . S
C786 O805 1.246 . S
C786 O806 1.249 . S
N787 C788 1.307 . S
N787 C789 1.333 . S
N787 Zn793 2.020 . S
C788 N787 1.307 . S
C788 C792 1.370 . S
C788 H799 0.948 . S
C789 N787 1.333 . S
C789 C790 1.379 . S
C789 H797 0.952 . S
C790 C789 1.379 . S
C790 C791 1.390 . S
C790 H810 0.949 . S
C791 C790 1.390 . S
C791 C792 1.357 . S
C792 C788 1.370 . S
C792 C791 1.357 . S
C792 H811 0.950 . S
Zn793 N787 2.020 . S
Zn793 O796 2.025 . S
Zn793 O801 2.024 . S
Zn793 O803 2.039 . S
Zn793 O805 2.034 . S
O794 C778 1.251 . S
O794 Zn785 2.039 . S
C795 O800 1.246 . S
C795 O801 1.249 . S
O796 C778 1.254 . S
O796 Zn793 2.025 . S
H797 C789 0.952 . S
H798 C780 0.952 . S
H799 C788 0.948 . S
O800 Zn785 2.034 . S
O800 C795 1.246 . S
O801 Zn793 2.024 . S
O801 C795 1.249 . S
H802 C784 0.948 . S
O803 Zn793 2.039 . S
O803 C807 1.251 . S
O804 Zn785 2.025 . S
O804 C807 1.254 . S
O805 C786 1.246 . S
O805 Zn793 2.034 . S
O806 Zn785 2.024 . S
O806 C786 1.249 . S
C807 O803 1.251 . S
C807 O804 1.254 . S
H808 C781 0.949 . S
H809 C783 0.950 . S
H810 C790 0.949 . S
H811 C792 0.950 . S
C812 O828 1.251 . S
C812 O830 1.254 . S
N813 C814 1.333 . S
N813 C818 1.307 . S
N813 Zn819 2.020 . S
C814 N813 1.333 . S
C814 C815 1.379 . S
C814 H832 0.952 . S
C815 C814 1.379 . S
C815 C816 1.390 . S
C815 H842 0.949 . S
C816 C815 1.390 . S
C816 C817 1.357 . S
C817 C816 1.357 . S
C817 C818 1.370 . S
C817 H843 0.950 . S
C818 N813 1.307 . S
C818 C817 1.370 . S
C818 H836 0.948 . S
Zn819 N813 2.020 . S
Zn819 O828 2.039 . S
Zn819 O834 2.034 . S
Zn819 O838 2.025 . S
Zn819 O840 2.024 . S
C820 O839 1.246 . S
C820 O840 1.249 . S
N821 C822 1.307 . S
N821 C823 1.333 . S
N821 Zn827 2.020 . S
C822 N821 1.307 . S
C822 C826 1.370 . S
C822 H833 0.948 . S
C823 N821 1.333 . S
C823 C824 1.379 . S
C823 H831 0.952 . S
C824 C823 1.379 . S
C824 C825 1.390 . S
C824 H844 0.949 . S
C825 C824 1.390 . S
C825 C826 1.357 . S
C826 C822 1.370 . S
C826 C825 1.357 . S
C826 H845 0.950 . S
Zn827 N821 2.020 . S
Zn827 O830 2.025 . S
Zn827 O835 2.024 . S
Zn827 O837 2.039 . S
Zn827 O839 2.034 . S
O828 C812 1.251 . S
O828 Zn819 2.039 . S
C829 O834 1.246 . S
C829 O835 1.249 . S
O830 C812 1.254 . S
O830 Zn827 2.025 . S
H831 C823 0.952 . S
H832 C814 0.952 . S
H833 C822 0.948 . S
O834 Zn819 2.034 . S
O834 C829 1.246 . S
O835 Zn827 2.024 . S
O835 C829 1.249 . S
H836 C818 0.948 . S
O837 Zn827 2.039 . S
O837 C841 1.251 . S
O838 Zn819 2.025 . S
O838 C841 1.254 . S
O839 C820 1.246 . S
O839 Zn827 2.034 . S
O840 Zn819 2.024 . S
O840 C820 1.249 . S
C841 O837 1.251 . S
C841 O838 1.254 . S
H842 C815 0.949 . S
H843 C817 0.950 . S
H844 C824 0.949 . S
H845 C826 0.950 . S
C846 O862 1.251 . S
C846 O864 1.254 . S
N847 C848 1.333 . S
N847 C852 1.307 . S
N847 Zn853 2.020 . S
C848 N847 1.333 . S
C848 C849 1.379 . S
C848 H866 0.952 . S
C849 C848 1.379 . S
C849 C850 1.390 . S
C849 H876 0.949 . S
C850 C849 1.390 . S
C850 C851 1.357 . S
C851 C850 1.357 . S
C851 C852 1.370 . S
C851 H877 0.950 . S
C852 N847 1.307 . S
C852 C851 1.370 . S
C852 H870 0.948 . S
Zn853 N847 2.020 . S
Zn853 O862 2.039 . S
Zn853 O868 2.034 . S
Zn853 O872 2.023 . S
Zn853 O874 2.024 . S
C854 O873 1.246 . S
C854 O874 1.249 1_655 S
N855 C856 1.307 . S
N855 C857 1.333 1_554 S
N855 Zn861 2.020 . S
C856 N855 1.307 . S
C856 C860 1.370 . S
C856 H867 0.948 . S
C857 N855 1.333 1_556 S
C857 C858 1.392 . S
C857 H865 0.952 . S
C858 C857 1.392 . S
C858 C859 1.383 1_455 S
C858 H878 0.942 1_455 S
C859 C858 1.383 1_655 S
C859 C860 1.346 1_656 S
C860 C856 1.370 . S
C860 C859 1.346 1_454 S
C860 H879 0.950 . S
Zn861 N855 2.020 . S
Zn861 O864 2.025 . S
Zn861 O869 2.024 . S
Zn861 O871 2.039 1_554 S
Zn861 O873 2.034 1_455 S
O862 C846 1.251 . S
O862 Zn853 2.039 . S
C863 O868 1.246 . S
C863 O869 1.249 . S
O864 C846 1.254 . S
O864 Zn861 2.025 . S
H865 C857 0.952 . S
H866 C848 0.952 . S
H867 C856 0.948 . S
O868 Zn853 2.034 . S
O868 C863 1.246 . S
O869 Zn861 2.024 . S
O869 C863 1.249 . S
H870 C852 0.948 . S
O871 Zn861 2.039 1_556 S
O871 C875 1.251 . S
O872 Zn853 2.023 . S
O872 C875 1.256 1_554 S
O873 C854 1.246 . S
O873 Zn861 2.034 1_655 S
O874 Zn853 2.024 . S
O874 C854 1.249 1_455 S
C875 O871 1.251 . S
C875 O872 1.256 1_556 S
H876 C849 0.949 . S
H877 C851 0.950 . S
H878 C858 0.942 1_655 S
H879 C860 0.950 . S
H880 C892 0.930 . S
H881 C894 0.930 . S
H882 C895 0.930 . S
H883 C899 0.966 . S
H884 C899 0.959 . S
H885 C899 0.961 . S
H886 C900 0.960 . S
H887 C900 0.961 . S
H888 C900 0.959 . S
H889 C903 0.929 . S
H890 C904 0.931 . S
H891 C906 0.930 . S
C892 H880 0.930 . S
C892 C893 1.399 . S
C892 C897 1.399 . S
C893 C892 1.399 . S
C893 C894 1.376 . S
C894 H881 0.930 . S
C894 C893 1.376 . S
C894 C895 1.388 . S
C895 H882 0.930 . S
C895 C894 1.388 . S
C895 C896 1.390 . S
C896 C895 1.390 . S
C896 C897 1.394 . S
C896 C902 1.465 . S
C897 C892 1.399 . S
C897 C896 1.394 . S
C897 C898 1.516 . S
C898 C897 1.516 . S
C898 C899 1.502 . S
C898 C900 1.561 . S
C898 C901 1.526 . S
C899 H883 0.966 . S
C899 H884 0.959 . S
C899 H885 0.961 . S
C899 C898 1.502 . S
C900 H886 0.960 . S
C900 H887 0.961 . S
C900 H888 0.959 . S
C900 C898 1.561 . S
C901 C898 1.526 . S
C901 C902 1.396 . S
C901 C906 1.390 . S
C902 C896 1.465 . S
C902 C901 1.396 . S
C902 C903 1.399 . S
C903 H889 0.929 . S
C903 C902 1.399 . S
C903 C904 1.385 . S
C904 H890 0.931 . S
C904 C903 1.385 . S
C904 C905 1.389 . S
C905 C904 1.389 . S
C905 C906 1.387 . S
C906 H891 0.930 . S
C906 C901 1.390 . S
C906 C905 1.387 . S
H907 C919 0.930 . S
H908 C921 0.930 . S
H909 C922 0.930 . S
H910 C926 0.959 . S
H911 C926 0.959 . S
H912 C926 0.961 . S
H913 C927 0.960 . S
H914 C927 0.961 . S
H915 C927 0.959 . S
H916 C930 0.929 . S
H917 C931 0.931 . S
H918 C933 0.930 . S
C919 H907 0.930 . S
C919 C920 1.399 . S
C919 C924 1.399 . S
C920 C919 1.399 . S
C920 C921 1.376 . S
C921 H908 0.930 . S
C921 C920 1.376 . S
C921 C922 1.388 . S
C922 H909 0.930 . S
C922 C921 1.388 . S
C922 C923 1.390 . S
C923 C922 1.390 . S
C923 C924 1.394 . S
C923 C929 1.465 . S
C924 C919 1.399 . S
C924 C923 1.394 . S
C924 C925 1.516 . S
C925 C924 1.516 . S
C925 C926 1.502 . S
C925 C927 1.561 . S
C925 C928 1.526 . S
C926 H910 0.959 . S
C926 H911 0.959 . S
C926 H912 0.961 . S
C926 C925 1.502 . S
C927 H913 0.960 . S
C927 H914 0.961 . S
C927 H915 0.959 . S
C927 C925 1.561 . S
C928 C925 1.526 . S
C928 C929 1.396 . S
C928 C933 1.390 . S
C929 C923 1.465 . S
C929 C928 1.396 . S
C929 C930 1.399 . S
C930 H916 0.929 . S
C930 C929 1.399 . S
C930 C931 1.385 . S
C931 H917 0.931 . S
C931 C930 1.385 . S
C931 C932 1.389 . S
C932 C931 1.389 . S
C932 C933 1.387 . S
C933 H918 0.930 . S
C933 C928 1.390 . S
C933 C932 1.387 . S
H934 C946 0.930 . S
H935 C948 0.930 . S
H936 C949 0.930 . S
H937 C953 0.959 . S
H938 C953 0.959 . S
H939 C953 0.961 . S
H940 C954 0.960 . S
H941 C954 0.961 . S
H942 C954 0.959 . S
H943 C957 0.929 . S
H944 C958 0.931 . S
H945 C960 0.930 . S
C946 H934 0.930 . S
C946 C947 1.399 . S
C946 C951 1.399 . S
C947 C946 1.399 . S
C947 C948 1.376 . S
C948 H935 0.930 . S
C948 C947 1.376 . S
C948 C949 1.388 . S
C949 H936 0.930 . S
C949 C948 1.388 . S
C949 C950 1.390 . S
C950 C949 1.390 . S
C950 C951 1.394 . S
C950 C956 1.465 . S
C951 C946 1.399 . S
C951 C950 1.394 . S
C951 C952 1.516 . S
C952 C951 1.516 . S
C952 C953 1.502 . S
C952 C954 1.561 . S
C952 C955 1.526 . S
C953 H937 0.959 . S
C953 H938 0.959 . S
C953 H939 0.961 . S
C953 C952 1.502 . S
C954 H940 0.960 . S
C954 H941 0.961 . S
C954 H942 0.959 . S
C954 C952 1.561 . S
C955 C952 1.526 . S
C955 C956 1.396 . S
C955 C960 1.390 . S
C956 C950 1.465 . S
C956 C955 1.396 . S
C956 C957 1.399 . S
C957 H943 0.929 . S
C957 C956 1.399 . S
C957 C958 1.385 . S
C958 H944 0.931 . S
C958 C957 1.385 . S
C958 C959 1.389 . S
C959 C958 1.389 . S
C959 C960 1.387 . S
C960 H945 0.930 . S
C960 C955 1.390 . S
C960 C959 1.387 . S
H961 C973 0.930 . S
H962 C975 0.930 . S
H963 C976 0.930 . S
H964 C980 0.959 . S
H965 C980 0.959 . S
H966 C980 0.961 . S
H967 C981 0.960 . S
H968 C981 0.961 . S
H969 C981 0.959 . S
H970 C984 0.929 . S
H971 C985 0.931 . S
H972 C987 0.930 . S
C973 H961 0.930 . S
C973 C974 1.399 . S
C973 C978 1.399 . S
C974 C973 1.399 . S
C974 C975 1.376 . S
C975 H962 0.930 . S
C975 C974 1.376 . S
C975 C976 1.388 . S
C976 H963 0.930 . S
C976 C975 1.388 . S
C976 C977 1.390 . S
C977 C976 1.390 . S
C977 C978 1.394 . S
C977 C983 1.465 . S
C978 C973 1.399 . S
C978 C977 1.394 . S
C978 C979 1.516 . S
C979 C978 1.516 . S
C979 C980 1.502 . S
C979 C981 1.561 . S
C979 C982 1.526 . S
C980 H964 0.959 . S
C980 H965 0.959 . S
C980 H966 0.961 . S
C980 C979 1.502 . S
C981 H967 0.960 . S
C981 H968 0.961 . S
C981 H969 0.959 . S
C981 C979 1.561 . S
C982 C979 1.526 . S
C982 C983 1.396 . S
C982 C987 1.390 . S
C983 C977 1.465 . S
C983 C982 1.396 . S
C983 C984 1.399 . S
C984 H970 0.929 . S
C984 C983 1.399 . S
C984 C985 1.385 . S
C985 H971 0.931 . S
C985 C984 1.385 . S
C985 C986 1.389 . S
C986 C985 1.389 . S
C986 C987 1.387 . S
C987 H972 0.930 . S
C987 C982 1.390 . S
C987 C986 1.387 . S
H988 C1000 0.930 . S
H989 C1002 0.930 . S
H990 C1003 0.930 . S
H991 C1007 0.959 . S
H992 C1007 0.959 . S
H993 C1007 0.961 . S
H994 C1008 0.960 . S
H995 C1008 0.961 . S
H996 C1008 0.959 . S
H997 C1011 0.929 . S
H998 C1012 0.931 . S
H999 C1014 0.930 . S
C1000 H988 0.930 . S
C1000 C1001 1.399 . S
C1000 C1005 1.399 . S
C1001 C1000 1.399 . S
C1001 C1002 1.376 . S
C1002 H989 0.930 . S
C1002 C1001 1.376 . S
C1002 C1003 1.388 . S
C1003 H990 0.930 . S
C1003 C1002 1.388 . S
C1003 C1004 1.390 . S
C1004 C1003 1.390 . S
C1004 C1005 1.394 . S
C1004 C1010 1.465 . S
C1005 C1000 1.399 . S
C1005 C1004 1.394 . S
C1005 C1006 1.516 . S
C1006 C1005 1.516 . S
C1006 C1007 1.502 . S
C1006 C1008 1.561 1_455 S
C1006 C1009 1.526 . S
C1007 H991 0.959 . S
C1007 H992 0.959 . S
C1007 H993 0.961 . S
C1007 C1006 1.502 . S
C1008 H994 0.960 . S
C1008 H995 0.961 . S
C1008 H996 0.959 . S
C1008 C1006 1.561 1_655 S
C1009 C1006 1.526 . S
C1009 C1010 1.396 . S
C1009 C1014 1.390 . S
C1010 C1004 1.465 . S
C1010 C1009 1.396 . S
C1010 C1011 1.399 . S
C1011 H997 0.929 . S
C1011 C1010 1.399 . S
C1011 C1012 1.385 . S
C1012 H998 0.931 . S
C1012 C1011 1.385 . S
C1012 C1013 1.389 . S
C1013 C1012 1.389 . S
C1013 C1014 1.387 . S
C1014 H999 0.930 . S
C1014 C1009 1.390 . S
C1014 C1013 1.387 . S
H1015 C1027 0.930 . S
H1016 C1029 0.930 . S
H1017 C1030 0.930 . S
H1018 C1034 0.959 . S
H1019 C1034 0.959 . S
H1020 C1034 0.961 . S
H1021 C1035 0.960 . S
H1022 C1035 0.961 . S
H1023 C1035 0.959 . S
H1024 C1038 0.929 . S
H1025 C1039 0.931 . S
H1026 C1041 0.930 . S
C1027 H1015 0.930 . S
C1027 C1028 1.399 . S
C1027 C1032 1.399 . S
C1028 C1027 1.399 . S
C1028 C1029 1.376 . S
C1029 H1016 0.930 . S
C1029 C1028 1.376 . S
C1029 C1030 1.388 . S
C1030 H1017 0.930 . S
C1030 C1029 1.388 . S
C1030 C1031 1.390 . S
C1031 C1030 1.390 . S
C1031 C1032 1.394 . S
C1031 C1037 1.465 . S
C1032 C1027 1.399 . S
C1032 C1031 1.394 . S
C1032 C1033 1.516 . S
C1033 C1032 1.516 . S
C1033 C1034 1.502 . S
C1033 C1035 1.561 . S
C1033 C1036 1.526 . S
C1034 H1018 0.959 . S
C1034 H1019 0.959 . S
C1034 H1020 0.961 . S
C1034 C1033 1.502 . S
C1035 H1021 0.960 . S
C1035 H1022 0.961 . S
C1035 H1023 0.959 . S
C1035 C1033 1.561 . S
C1036 C1033 1.526 . S
C1036 C1037 1.396 . S
C1036 C1041 1.390 . S
C1037 C1031 1.465 . S
C1037 C1036 1.396 . S
C1037 C1038 1.399 . S
C1038 H1024 0.929 . S
C1038 C1037 1.399 . S
C1038 C1039 1.385 . S
C1039 H1025 0.931 . S
C1039 C1038 1.385 . S
C1039 C1040 1.389 . S
C1040 C1039 1.389 . S
C1040 C1041 1.387 . S
C1041 H1026 0.930 . S
C1041 C1036 1.390 . S
C1041 C1040 1.387 . S
H1042 C1054 0.930 . S
H1043 C1056 0.930 . S
H1044 C1057 0.930 . S
H1045 C1061 0.959 . S
H1046 C1061 0.959 . S
H1047 C1061 0.961 . S
H1048 C1062 0.960 . S
H1049 C1062 0.961 . S
H1050 C1062 0.959 . S
H1051 C1065 0.929 . S
H1052 C1066 0.931 . S
H1053 C1068 0.930 . S
C1054 H1042 0.930 . S
C1054 C1055 1.399 . S
C1054 C1059 1.399 . S
C1055 C1054 1.399 . S
C1055 C1056 1.376 . S
C1056 H1043 0.930 . S
C1056 C1055 1.376 . S
C1056 C1057 1.388 . S
C1057 H1044 0.930 . S
C1057 C1056 1.388 . S
C1057 C1058 1.390 . S
C1058 C1057 1.390 . S
C1058 C1059 1.394 . S
C1058 C1064 1.465 . S
C1059 C1054 1.399 . S
C1059 C1058 1.394 . S
C1059 C1060 1.516 . S
C1060 C1059 1.516 . S
C1060 C1061 1.502 . S
C1060 C1062 1.561 . S
C1060 C1063 1.526 . S
C1061 H1045 0.959 . S
C1061 H1046 0.959 . S
C1061 H1047 0.961 . S
C1061 C1060 1.502 . S
C1062 H1048 0.960 . S
C1062 H1049 0.961 . S
C1062 H1050 0.959 . S
C1062 C1060 1.561 . S
C1063 C1060 1.526 . S
C1063 C1064 1.396 . S
C1063 C1068 1.390 . S
C1064 C1058 1.465 . S
C1064 C1063 1.396 . S
C1064 C1065 1.400 1_556 S
C1065 H1051 0.929 . S
C1065 C1064 1.400 1_554 S
C1065 C1066 1.384 . S
C1066 H1052 0.931 . S
C1066 C1065 1.384 . S
C1066 C1067 1.389 1_554 S
C1067 C1066 1.389 1_556 S
C1067 C1068 1.387 . S
C1068 H1053 0.930 . S
C1068 C1063 1.390 . S
C1068 C1067 1.387 . S
H1069 C1081 0.930 . S
H1070 C1083 0.930 . S
H1071 C1084 0.930 . S
H1072 C1088 0.959 . S
H1073 C1088 0.959 . S
H1074 C1088 0.961 . S
H1075 C1089 0.960 . S
H1076 C1089 0.961 . S
H1077 C1089 0.959 . S
H1078 C1092 0.929 . S
H1079 C1093 0.931 . S
H1080 C1095 0.930 . S
C1081 H1069 0.930 . S
C1081 C1082 1.399 . S
C1081 C1086 1.399 . S
C1082 C1081 1.399 . S
C1082 C1083 1.376 . S
C1083 H1070 0.930 . S
C1083 C1082 1.376 . S
C1083 C1084 1.388 . S
C1084 H1071 0.930 . S
C1084 C1083 1.388 . S
C1084 C1085 1.390 . S
C1085 C1084 1.390 . S
C1085 C1086 1.394 . S
C1085 C1091 1.465 . S
C1086 C1081 1.399 . S
C1086 C1085 1.394 . S
C1086 C1087 1.516 . S
C1087 C1086 1.516 . S
C1087 C1088 1.502 . S
C1087 C1089 1.561 . S
C1087 C1090 1.526 . S
C1088 H1072 0.959 . S
C1088 H1073 0.959 . S
C1088 H1074 0.961 . S
C1088 C1087 1.502 . S
C1089 H1075 0.960 . S
C1089 H1076 0.961 . S
C1089 H1077 0.959 . S
C1089 C1087 1.561 . S
C1090 C1087 1.526 . S
C1090 C1091 1.396 . S
C1090 C1095 1.390 . S
C1091 C1085 1.465 . S
C1091 C1090 1.396 . S
C1091 C1092 1.399 . S
C1092 H1078 0.929 . S
C1092 C1091 1.399 . S
C1092 C1093 1.385 . S
C1093 H1079 0.931 . S
C1093 C1092 1.385 . S
C1093 C1094 1.389 . S
C1094 C1093 1.389 . S
C1094 C1095 1.387 . S
C1095 H1080 0.930 . S
C1095 C1090 1.390 . S
C1095 C1094 1.387 . S
H1096 C1108 0.930 . S
H1097 C1110 0.930 . S
H1098 C1111 0.930 . S
H1099 C1115 0.959 . S
H1100 C1115 0.959 . S
H1101 C1115 0.961 . S
H1102 C1116 0.960 . S
H1103 C1116 0.961 . S
H1104 C1116 0.959 . S
H1105 C1119 0.929 . S
H1106 C1120 0.931 . S
H1107 C1122 0.930 . S
C1108 H1096 0.930 . S
C1108 C1109 1.399 . S
C1108 C1113 1.399 . S
C1109 C1108 1.399 . S
C1109 C1110 1.376 1_545 S
C1110 H1097 0.930 . S
C1110 C1109 1.376 1_565 S
C1110 C1111 1.388 . S
C1111 H1098 0.930 . S
C1111 C1110 1.388 . S
C1111 C1112 1.390 . S
C1112 C1111 1.390 . S
C1112 C1113 1.394 1_565 S
C1112 C1118 1.465 . S
C1113 C1108 1.399 . S
C1113 C1112 1.394 1_545 S
C1113 C1114 1.516 . S
C1114 C1113 1.516 . S
C1114 C1115 1.502 . S
C1114 C1116 1.561 . S
C1114 C1117 1.526 . S
C1115 H1099 0.959 . S
C1115 H1100 0.959 . S
C1115 H1101 0.961 . S
C1115 C1114 1.502 . S
C1116 H1102 0.960 . S
C1116 H1103 0.961 . S
C1116 H1104 0.959 . S
C1116 C1114 1.561 . S
C1117 C1114 1.526 . S
C1117 C1118 1.396 1_545 S
C1117 C1122 1.390 . S
C1118 C1112 1.465 . S
C1118 C1117 1.396 1_565 S
C1118 C1119 1.399 . S
C1119 H1105 0.929 . S
C1119 C1118 1.399 . S
C1119 C1120 1.385 . S
C1120 H1106 0.931 . S
C1120 C1119 1.385 . S
C1120 C1121 1.389 . S
C1121 C1120 1.389 . S
C1121 C1122 1.387 1_565 S
C1122 H1107 0.930 . S
C1122 C1117 1.390 . S
C1122 C1121 1.387 1_545 S
H1123 C1135 0.930 . S
H1124 C1137 0.930 . S
H1125 C1138 0.930 . S
H1126 C1142 0.959 . S
H1127 C1142 0.959 . S
H1128 C1142 0.961 . S
H1129 C1143 0.960 . S
H1130 C1143 0.961 . S
H1131 C1143 0.959 . S
H1132 C1146 0.929 . S
H1133 C1147 0.931 . S
H1134 C1149 0.930 . S
C1135 H1123 0.930 . S
C1135 C1136 1.399 . S
C1135 C1140 1.399 . S
C1136 C1135 1.399 . S
C1136 C1137 1.376 . S
C1137 H1124 0.930 . S
C1137 C1136 1.376 . S
C1137 C1138 1.388 . S
C1138 H1125 0.930 . S
C1138 C1137 1.388 . S
C1138 C1139 1.390 . S
C1139 C1138 1.390 . S
C1139 C1140 1.394 . S
C1139 C1145 1.465 . S
C1140 C1135 1.399 . S
C1140 C1139 1.394 . S
C1140 C1141 1.516 . S
C1141 C1140 1.516 . S
C1141 C1142 1.502 . S
C1141 C1143 1.561 . S
C1141 C1144 1.526 . S
C1142 H1126 0.959 . S
C1142 H1127 0.959 . S
C1142 H1128 0.961 . S
C1142 C1141 1.502 . S
C1143 H1129 0.960 . S
C1143 H1130 0.961 . S
C1143 H1131 0.959 . S
C1143 C1141 1.561 . S
C1144 C1141 1.526 . S
C1144 C1145 1.396 . S
C1144 C1149 1.390 . S
C1145 C1139 1.465 . S
C1145 C1144 1.396 . S
C1145 C1146 1.399 . S
C1146 H1132 0.929 . S
C1146 C1145 1.399 . S
C1146 C1147 1.385 . S
C1147 H1133 0.931 . S
C1147 C1146 1.385 . S
C1147 C1148 1.389 . S
C1148 C1147 1.389 . S
C1148 C1149 1.387 . S
C1149 H1134 0.930 . S
C1149 C1144 1.390 . S
C1149 C1148 1.387 . S
H1150 C1162 0.930 . S
H1151 C1164 0.930 . S
H1152 C1165 0.930 . S
H1153 C1169 0.959 . S
H1154 C1169 0.959 . S
H1155 C1169 0.961 . S
H1156 C1170 0.960 . S
H1157 C1170 0.961 . S
H1158 C1170 0.959 . S
H1159 C1173 0.929 . S
H1160 C1174 0.931 . S
H1161 C1176 0.930 . S
C1162 H1150 0.930 . S
C1162 C1163 1.399 . S
C1162 C1167 1.399 . S
C1163 C1162 1.399 . S
C1163 C1164 1.376 1_545 S
C1164 H1151 0.930 . S
C1164 C1163 1.376 1_565 S
C1164 C1165 1.388 . S
C1165 H1152 0.930 . S
C1165 C1164 1.388 . S
C1165 C1166 1.390 1_565 S
C1166 C1165 1.390 1_545 S
C1166 C1167 1.394 . S
C1166 C1172 1.465 . S
C1167 C1162 1.399 . S
C1167 C1166 1.394 . S
C1167 C1168 1.516 . S
C1168 C1167 1.516 . S
C1168 C1169 1.502 . S
C1168 C1170 1.561 . S
C1168 C1171 1.526 . S
C1169 H1153 0.959 . S
C1169 H1154 0.959 . S
C1169 H1155 0.961 . S
C1169 C1168 1.502 . S
C1170 H1156 0.960 . S
C1170 H1157 0.961 . S
C1170 H1158 0.959 . S
C1170 C1168 1.561 . S
C1171 C1168 1.526 . S
C1171 C1172 1.396 . S
C1171 C1176 1.390 . S
C1172 C1166 1.465 . S
C1172 C1171 1.396 . S
C1172 C1173 1.399 1_545 S
C1173 H1159 0.929 . S
C1173 C1172 1.399 1_565 S
C1173 C1174 1.385 . S
C1174 H1160 0.931 . S
C1174 C1173 1.385 . S
C1174 C1175 1.389 1_565 S
C1175 C1174 1.389 1_545 S
C1175 C1176 1.387 . S
C1176 H1161 0.930 . S
C1176 C1171 1.390 . S
C1176 C1175 1.387 . S
H1177 C1189 0.930 . S
H1178 C1191 0.930 . S
H1179 C1192 0.930 . S
H1180 C1196 0.959 . S
H1181 C1196 0.959 . S
H1182 C1196 0.961 . S
H1183 C1197 0.960 . S
H1184 C1197 0.961 . S
H1185 C1197 0.959 . S
H1186 C1200 0.929 . S
H1187 C1201 0.931 . S
H1188 C1203 0.930 . S
C1189 H1177 0.930 . S
C1189 C1190 1.399 . S
C1189 C1194 1.399 . S
C1190 C1189 1.399 . S
C1190 C1191 1.376 . S
C1191 H1178 0.930 . S
C1191 C1190 1.376 . S
C1191 C1192 1.388 . S
C1192 H1179 0.930 . S
C1192 C1191 1.388 . S
C1192 C1193 1.390 . S
C1193 C1192 1.390 . S
C1193 C1194 1.394 . S
C1193 C1199 1.465 . S
C1194 C1189 1.399 . S
C1194 C1193 1.394 . S
C1194 C1195 1.516 . S
C1195 C1194 1.516 . S
C1195 C1196 1.502 . S
C1195 C1197 1.561 . S
C1195 C1198 1.526 . S
C1196 H1180 0.959 . S
C1196 H1181 0.959 . S
C1196 H1182 0.961 . S
C1196 C1195 1.502 . S
C1197 H1183 0.960 . S
C1197 H1184 0.961 . S
C1197 H1185 0.959 . S
C1197 C1195 1.561 . S
C1198 C1195 1.526 . S
C1198 C1199 1.396 . S
C1198 C1203 1.390 . S
C1199 C1193 1.465 . S
C1199 C1198 1.396 . S
C1199 C1200 1.399 . S
C1200 H1186 0.929 . S
C1200 C1199 1.399 . S
C1200 C1201 1.385 . S
C1201 H1187 0.931 . S
C1201 C1200 1.385 . S
C1201 C1202 1.389 . S
C1202 C1201 1.389 . S
C1202 C1203 1.387 . S
C1203 H1188 0.930 . S
C1203 C1198 1.390 . S
C1203 C1202 1.387 . S
H1204 C1216 0.930 . S
H1205 C1218 0.930 . S
H1206 C1219 0.930 . S
H1207 C1223 0.959 1_565 S
H1208 C1223 0.959 . S
H1209 C1223 0.961 1_565 S
H1210 C1224 0.960 . S
H1211 C1224 0.961 . S
H1212 C1224 0.959 . S
H1213 C1227 0.929 . S
H1214 C1228 0.931 . S
H1215 C1230 0.930 . S
C1216 H1204 0.930 . S
C1216 C1217 1.399 . S
C1216 C1221 1.399 . S
C1217 C1216 1.399 . S
C1217 C1218 1.376 . S
C1218 H1205 0.930 . S
C1218 C1217 1.376 . S
C1218 C1219 1.388 . S
C1219 H1206 0.930 . S
C1219 C1218 1.388 . S
C1219 C1220 1.390 . S
C1220 C1219 1.390 . S
C1220 C1221 1.394 . S
C1220 C1226 1.465 . S
C1221 C1216 1.399 . S
C1221 C1220 1.394 . S
C1221 C1222 1.516 . S
C1222 C1221 1.516 . S
C1222 C1223 1.502 . S
C1222 C1224 1.561 . S
C1222 C1225 1.526 . S
C1223 H1207 0.959 1_545 S
C1223 H1208 0.959 . S
C1223 H1209 0.961 1_545 S
C1223 C1222 1.502 . S
C1224 H1210 0.960 . S
C1224 H1211 0.961 . S
C1224 H1212 0.959 . S
C1224 C1222 1.561 . S
C1225 C1222 1.526 . S
C1225 C1226 1.396 . S
C1225 C1230 1.390 . S
C1226 C1220 1.465 . S
C1226 C1225 1.396 . S
C1226 C1227 1.399 . S
C1227 H1213 0.929 . S
C1227 C1226 1.399 . S
C1227 C1228 1.385 . S
C1228 H1214 0.931 . S
C1228 C1227 1.385 . S
C1228 C1229 1.389 . S
C1229 C1228 1.389 . S
C1229 C1230 1.387 . S
C1230 H1215 0.930 . S
C1230 C1225 1.390 . S
C1230 C1229 1.387 . S
H1231 C1243 0.930 . S
H1232 C1245 0.930 . S
H1233 C1246 0.930 . S
H1234 C1250 0.959 . S
H1235 C1250 0.959 . S
H1236 C1250 0.961 . S
H1237 C1251 0.960 . S
H1238 C1251 0.961 . S
H1239 C1251 0.959 . S
H1240 C1254 0.929 . S
H1241 C1255 0.931 . S
H1242 C1257 0.930 . S
C1243 H1231 0.930 . S
C1243 C1244 1.399 . S
C1243 C1248 1.399 . S
C1244 C1243 1.399 . S
C1244 C1245 1.376 . S
C1245 H1232 0.930 . S
C1245 C1244 1.376 . S
C1245 C1246 1.388 . S
C1246 H1233 0.930 . S
C1246 C1245 1.388 . S
C1246 C1247 1.390 . S
C1247 C1246 1.390 . S
C1247 C1248 1.394 . S
C1247 C1253 1.465 . S
C1248 C1243 1.399 . S
C1248 C1247 1.394 . S
C1248 C1249 1.516 . S
C1249 C1248 1.516 . S
C1249 C1250 1.502 . S
C1249 C1251 1.561 . S
C1249 C1252 1.526 . S
C1250 H1234 0.959 . S
C1250 H1235 0.959 . S
C1250 H1236 0.961 . S
C1250 C1249 1.502 . S
C1251 H1237 0.960 . S
C1251 H1238 0.961 . S
C1251 H1239 0.959 . S
C1251 C1249 1.561 . S
C1252 C1249 1.526 . S
C1252 C1253 1.396 . S
C1252 C1257 1.390 . S
C1253 C1247 1.465 . S
C1253 C1252 1.396 . S
C1253 C1254 1.399 . S
C1254 H1240 0.929 . S
C1254 C1253 1.399 . S
C1254 C1255 1.385 . S
C1255 H1241 0.931 . S
C1255 C1254 1.385 . S
C1255 C1256 1.389 . S
C1256 C1255 1.389 . S
C1256 C1257 1.387 . S
C1257 H1242 0.930 . S
C1257 C1252 1.390 . S
C1257 C1256 1.387 . S
H1258 C1270 0.930 . S
H1259 C1272 0.930 . S
H1260 C1273 0.930 . S
H1261 C1277 0.959 . S
H1262 C1277 0.959 . S
H1263 C1277 0.961 . S
H1264 C1278 0.960 . S
H1265 C1278 0.961 . S
H1266 C1278 0.959 . S
H1267 C1281 0.929 . S
H1268 C1282 0.931 . S
H1269 C1284 0.930 . S
C1270 H1258 0.930 . S
C1270 C1271 1.399 1_565 S
C1270 C1275 1.399 . S
C1271 C1270 1.399 1_545 S
C1271 C1272 1.376 . S
C1272 H1259 0.930 . S
C1272 C1271 1.376 . S
C1272 C1273 1.388 . S
C1273 H1260 0.930 . S
C1273 C1272 1.388 . S
C1273 C1274 1.390 . S
C1274 C1273 1.390 . S
C1274 C1275 1.394 1_545 S
C1274 C1280 1.465 . S
C1275 C1270 1.399 . S
C1275 C1274 1.394 1_565 S
C1275 C1276 1.516 . S
C1276 C1275 1.516 . S
C1276 C1277 1.502 . S
C1276 C1278 1.561 . S
C1276 C1279 1.526 . S
C1277 H1261 0.959 . S
C1277 H1262 0.959 . S
C1277 H1263 0.961 . S
C1277 C1276 1.502 . S
C1278 H1264 0.960 . S
C1278 H1265 0.961 . S
C1278 H1266 0.959 . S
C1278 C1276 1.561 . S
C1279 C1276 1.526 . S
C1279 C1280 1.396 1_565 S
C1279 C1284 1.390 . S
C1280 C1274 1.465 . S
C1280 C1279 1.396 1_545 S
C1280 C1281 1.399 . S
C1281 H1267 0.929 . S
C1281 C1280 1.399 . S
C1281 C1282 1.385 . S
C1282 H1268 0.931 . S
C1282 C1281 1.385 . S
C1282 C1283 1.389 1_545 S
C1283 C1282 1.389 1_565 S
C1283 C1284 1.387 . S
C1284 H1269 0.930 . S
C1284 C1279 1.390 . S
C1284 C1283 1.387 . S
H1285 C1297 0.930 . S
H1286 C1299 0.930 . S
H1287 C1300 0.930 . S
H1288 C1304 0.959 . S
H1289 C1304 0.959 . S
H1290 C1304 0.961 . S
H1291 C1305 0.960 . S
H1292 C1305 0.961 . S
H1293 C1305 0.959 . S
H1294 C1308 0.929 . S
H1295 C1309 0.931 . S
H1296 C1311 0.930 . S
C1297 H1285 0.930 . S
C1297 C1298 1.399 . S
C1297 C1302 1.399 . S
C1298 C1297 1.399 . S
C1298 C1299 1.376 . S
C1299 H1286 0.930 . S
C1299 C1298 1.376 . S
C1299 C1300 1.388 . S
C1300 H1287 0.930 . S
C1300 C1299 1.388 . S
C1300 C1301 1.390 . S
C1301 C1300 1.390 . S
C1301 C1302 1.394 . S
C1301 C1307 1.465 . S
C1302 C1297 1.399 . S
C1302 C1301 1.394 . S
C1302 C1303 1.516 . S
C1303 C1302 1.516 . S
C1303 C1304 1.502 . S
C1303 C1305 1.561 . S
C1303 C1306 1.526 . S
C1304 H1288 0.959 . S
C1304 H1289 0.959 . S
C1304 H1290 0.961 . S
C1304 C1303 1.502 . S
C1305 H1291 0.960 . S
C1305 H1292 0.961 . S
C1305 H1293 0.959 . S
C1305 C1303 1.561 . S
C1306 C1303 1.526 . S
C1306 C1307 1.396 . S
C1306 C1311 1.390 . S
C1307 C1301 1.465 . S
C1307 C1306 1.396 . S
C1307 C1308 1.399 . S
C1308 H1294 0.929 . S
C1308 C1307 1.399 . S
C1308 C1309 1.385 . S
C1309 H1295 0.931 . S
C1309 C1308 1.385 . S
C1309 C1310 1.389 . S
C1310 C1309 1.389 . S
C1310 C1311 1.387 . S
C1311 H1296 0.930 . S
C1311 C1306 1.390 . S
C1311 C1310 1.387 . S
H1312 C1324 0.930 . S
H1313 C1326 0.930 . S
H1314 C1327 0.930 . S
H1315 C1331 0.959 . S
H1316 C1331 0.959 1_556 S
H1317 C1331 0.961 . S
H1318 C1332 0.960 . S
H1319 C1332 0.961 . S
H1320 C1332 0.959 . S
H1321 C1335 0.929 . S
H1322 C1336 0.931 . S
H1323 C1338 0.930 . S
C1324 H1312 0.930 . S
C1324 C1325 1.399 . S
C1324 C1329 1.399 . S
C1325 C1324 1.399 . S
C1325 C1326 1.376 . S
C1326 H1313 0.930 . S
C1326 C1325 1.376 . S
C1326 C1327 1.388 . S
C1327 H1314 0.930 . S
C1327 C1326 1.388 . S
C1327 C1328 1.390 . S
C1328 C1327 1.390 . S
C1328 C1329 1.394 . S
C1328 C1334 1.465 . S
C1329 C1324 1.399 . S
C1329 C1328 1.394 . S
C1329 C1330 1.516 1_554 S
C1330 C1329 1.516 1_556 S
C1330 C1331 1.502 1_556 S
C1330 C1332 1.561 . S
C1330 C1333 1.524 1_556 S
C1331 H1315 0.959 . S
C1331 H1316 0.959 1_554 S
C1331 H1317 0.961 . S
C1331 C1330 1.502 1_554 S
C1332 H1318 0.960 . S
C1332 H1319 0.961 . S
C1332 H1320 0.959 . S
C1332 C1330 1.561 . S
C1333 C1330 1.524 1_554 S
C1333 C1334 1.401 . S
C1333 C1338 1.387 1_554 S
C1334 C1328 1.465 . S
C1334 C1333 1.401 . S
C1334 C1335 1.399 . S
C1335 H1321 0.929 . S
C1335 C1334 1.399 . S
C1335 C1336 1.385 . S
C1336 H1322 0.931 . S
C1336 C1335 1.385 . S
C1336 C1337 1.368 1_554 S
C1337 C1336 1.368 1_556 S
C1337 C1338 1.399 . S
C1338 H1323 0.930 . S
C1338 C1333 1.387 1_556 S
C1338 C1337 1.399 . S
H1339 C1351 0.930 . S
H1340 C1353 0.930 . S
H1341 C1354 0.930 . S
H1342 C1358 0.959 . S
H1343 C1358 0.959 1_556 S
H1344 C1358 0.965 . S
H1345 C1359 0.981 . S
H1346 C1359 0.989 . S
H1347 C1359 0.942 1_554 S
H1348 C1362 0.929 . S
H1349 C1363 0.931 . S
H1350 C1365 0.930 . S
C1351 H1339 0.930 . S
C1351 C1352 1.399 . S
C1351 C1356 1.399 . S
C1352 C1351 1.399 . S
C1352 C1353 1.376 . S
C1353 H1340 0.930 . S
C1353 C1352 1.376 . S
C1353 C1354 1.388 . S
C1354 H1341 0.930 . S
C1354 C1353 1.388 . S
C1354 C1355 1.390 . S
C1355 C1354 1.390 . S
C1355 C1356 1.394 . S
C1355 C1361 1.465 . S
C1356 C1351 1.399 . S
C1356 C1355 1.394 . S
C1356 C1357 1.516 . S
C1357 C1356 1.516 . S
C1357 C1358 1.502 . S
C1357 C1359 1.531 1_554 S
C1357 C1360 1.526 . S
C1358 H1342 0.959 . S
C1358 H1343 0.959 1_554 S
C1358 H1344 0.965 . S
C1358 C1357 1.502 . S
C1359 H1345 0.981 . S
C1359 H1346 0.989 . S
C1359 H1347 0.942 1_556 S
C1359 C1357 1.531 1_556 S
C1360 C1357 1.526 . S
C1360 C1361 1.396 . S
C1360 C1365 1.390 . S
C1361 C1355 1.465 . S
C1361 C1360 1.396 . S
C1361 C1362 1.399 . S
C1362 H1348 0.929 . S
C1362 C1361 1.399 . S
C1362 C1363 1.385 . S
C1363 H1349 0.931 . S
C1363 C1362 1.385 . S
C1363 C1364 1.389 . S
C1364 C1363 1.389 . S
C1364 C1365 1.387 . S
C1365 H1350 0.930 . S
C1365 C1360 1.390 . S
C1365 C1364 1.387 . S
H1366 C1378 0.930 . S
H1367 C1380 0.930 . S
H1368 C1381 0.930 . S
H1369 C1385 0.959 . S
H1370 C1385 0.959 . S
H1371 C1385 0.961 . S
H1372 C1386 0.960 . S
H1373 C1386 0.961 . S
H1374 C1386 0.959 . S
H1375 C1389 0.929 . S
H1376 C1390 0.931 . S
H1377 C1392 0.930 . S
C1378 H1366 0.930 . S
C1378 C1379 1.399 . S
C1378 C1383 1.399 . S
C1379 C1378 1.399 . S
C1379 C1380 1.376 . S
C1380 H1367 0.930 . S
C1380 C1379 1.376 . S
C1380 C1381 1.388 . S
C1381 H1368 0.930 . S
C1381 C1380 1.388 . S
C1381 C1382 1.390 . S
C1382 C1381 1.390 . S
C1382 C1383 1.394 . S
C1382 C1388 1.465 . S
C1383 C1378 1.399 . S
C1383 C1382 1.394 . S
C1383 C1384 1.516 . S
C1384 C1383 1.516 . S
C1384 C1385 1.502 . S
C1384 C1386 1.561 . S
C1384 C1387 1.526 . S
C1385 H1369 0.959 . S
C1385 H1370 0.959 . S
C1385 H1371 0.961 . S
C1385 C1384 1.502 . S
C1386 H1372 0.960 . S
C1386 H1373 0.961 . S
C1386 H1374 0.959 . S
C1386 C1384 1.561 . S
C1387 C1384 1.526 . S
C1387 C1388 1.396 . S
C1387 C1392 1.390 . S
C1388 C1382 1.465 . S
C1388 C1387 1.396 . S
C1388 C1389 1.399 . S
C1389 H1375 0.929 . S
C1389 C1388 1.399 . S
C1389 C1390 1.385 . S
C1390 H1376 0.931 . S
C1390 C1389 1.385 . S
C1390 C1391 1.389 . S
C1391 C1390 1.389 . S
C1391 C1392 1.387 . S
C1392 H1377 0.930 . S
C1392 C1387 1.390 . S
C1392 C1391 1.387 . S
H1393 C1405 0.930 . S
H1394 C1407 0.930 . S
H1395 C1408 0.930 . S
H1396 C1412 0.959 . S
H1397 C1412 0.959 . S
H1398 C1412 0.961 . S
H1399 C1413 0.960 . S
H1400 C1413 0.961 . S
H1401 C1413 0.959 . S
H1402 C1416 0.929 . S
H1403 C1417 0.931 . S
H1404 C1419 0.930 . S
C1405 H1393 0.930 . S
C1405 C1406 1.399 . S
C1405 C1410 1.399 . S
C1406 C1405 1.399 . S
C1406 C1407 1.376 . S
C1407 H1394 0.930 . S
C1407 C1406 1.376 . S
C1407 C1408 1.388 . S
C1408 H1395 0.930 . S
C1408 C1407 1.388 . S
C1408 C1409 1.390 . S
C1409 C1408 1.390 . S
C1409 C1410 1.394 . S
C1409 C1415 1.465 . S
C1410 C1405 1.399 . S
C1410 C1409 1.394 . S
C1410 C1411 1.516 . S
C1411 C1410 1.516 . S
C1411 C1412 1.502 . S
C1411 C1413 1.561 . S
C1411 C1414 1.526 . S
C1412 H1396 0.959 . S
C1412 H1397 0.959 . S
C1412 H1398 0.961 . S
C1412 C1411 1.502 . S
C1413 H1399 0.960 . S
C1413 H1400 0.961 . S
C1413 H1401 0.959 . S
C1413 C1411 1.561 . S
C1414 C1411 1.526 . S
C1414 C1415 1.396 . S
C1414 C1419 1.390 . S
C1415 C1409 1.465 . S
C1415 C1414 1.396 . S
C1415 C1416 1.399 . S
C1416 H1402 0.929 . S
C1416 C1415 1.399 . S
C1416 C1417 1.385 . S
C1417 H1403 0.931 . S
C1417 C1416 1.385 . S
C1417 C1418 1.389 . S
C1418 C1417 1.389 . S
C1418 C1419 1.387 . S
C1419 H1404 0.930 . S
C1419 C1414 1.390 . S
C1419 C1418 1.387 . S
H1420 C1432 0.930 . S
H1421 C1434 0.930 . S
H1422 C1435 0.930 . S
H1423 C1439 0.959 . S
H1424 C1439 0.959 . S
H1425 C1439 0.961 . S
H1426 C1440 0.960 . S
H1427 C1440 0.961 . S
H1428 C1440 0.959 . S
H1429 C1443 0.929 . S
H1430 C1444 0.931 . S
H1431 C1446 0.930 . S
C1432 H1420 0.930 . S
C1432 C1433 1.399 . S
C1432 C1437 1.399 . S
C1433 C1432 1.399 . S
C1433 C1434 1.376 . S
C1434 H1421 0.930 . S
C1434 C1433 1.376 . S
C1434 C1435 1.388 . S
C1435 H1422 0.930 . S
C1435 C1434 1.388 . S
C1435 C1436 1.390 . S
C1436 C1435 1.390 . S
C1436 C1437 1.394 . S
C1436 C1442 1.465 . S
C1437 C1432 1.399 . S
C1437 C1436 1.394 . S
C1437 C1438 1.516 . S
C1438 C1437 1.516 . S
C1438 C1439 1.502 . S
C1438 C1440 1.561 . S
C1438 C1441 1.526 . S
C1439 H1423 0.959 . S
C1439 H1424 0.959 . S
C1439 H1425 0.961 . S
C1439 C1438 1.502 . S
C1440 H1426 0.960 . S
C1440 H1427 0.961 . S
C1440 H1428 0.959 . S
C1440 C1438 1.561 . S
C1441 C1438 1.526 . S
C1441 C1442 1.396 . S
C1441 C1446 1.390 . S
C1442 C1436 1.465 . S
C1442 C1441 1.396 . S
C1442 C1443 1.399 . S
C1443 H1429 0.929 . S
C1443 C1442 1.399 . S
C1443 C1444 1.385 . S
C1444 H1430 0.931 . S
C1444 C1443 1.385 . S
C1444 C1445 1.389 . S
C1445 C1444 1.389 . S
C1445 C1446 1.387 . S
C1446 H1431 0.930 . S
C1446 C1441 1.390 . S
C1446 C1445 1.387 . S
H1447 C1459 0.930 . S
H1448 C1461 0.930 . S
H1449 C1462 0.930 . S
H1450 C1466 0.959 . S
H1451 C1466 0.959 . S
H1452 C1466 0.961 . S
H1453 C1467 0.960 . S
H1454 C1467 0.961 . S
H1455 C1467 0.959 . S
H1456 C1470 0.929 . S
H1457 C1471 0.931 . S
H1458 C1473 0.930 . S
C1459 H1447 0.930 . S
C1459 C1460 1.399 . S
C1459 C1464 1.399 . S
C1460 C1459 1.399 . S
C1460 C1461 1.376 . S
C1461 H1448 0.930 . S
C1461 C1460 1.376 . S
C1461 C1462 1.388 . S
C1462 H1449 0.930 . S
C1462 C1461 1.388 . S
C1462 C1463 1.390 . S
C1463 C1462 1.390 . S
C1463 C1464 1.394 . S
C1463 C1469 1.465 . S
C1464 C1459 1.399 . S
C1464 C1463 1.394 . S
C1464 C1465 1.516 . S
C1465 C1464 1.516 . S
C1465 C1466 1.502 . S
C1465 C1467 1.561 . S
C1465 C1468 1.526 . S
C1466 H1450 0.959 . S
C1466 H1451 0.959 . S
C1466 H1452 0.961 . S
C1466 C1465 1.502 . S
C1467 H1453 0.960 . S
C1467 H1454 0.961 . S
C1467 H1455 0.959 . S
C1467 C1465 1.561 . S
C1468 C1465 1.526 . S
C1468 C1469 1.396 . S
C1468 C1473 1.390 . S
C1469 C1463 1.465 . S
C1469 C1468 1.396 . S
C1469 C1470 1.399 . S
C1470 H1456 0.929 . S
C1470 C1469 1.399 . S
C1470 C1471 1.385 . S
C1471 H1457 0.931 . S
C1471 C1470 1.385 . S
C1471 C1472 1.389 . S
C1472 C1471 1.389 . S
C1472 C1473 1.387 . S
C1473 H1458 0.930 . S
C1473 C1468 1.390 . S
C1473 C1472 1.387 . S
H1474 C1486 0.930 . S
H1475 C1488 0.930 . S
H1476 C1489 0.930 . S
H1477 C1493 0.959 . S
H1478 C1493 0.959 . S
H1479 C1493 0.961 . S
H1480 C1494 0.960 . S
H1481 C1494 0.961 . S
H1482 C1494 0.959 . S
H1483 C1497 0.929 . S
H1484 C1498 0.931 . S
H1485 C1500 0.930 . S
C1486 H1474 0.930 . S
C1486 C1487 1.399 . S
C1486 C1491 1.399 . S
C1487 C1486 1.399 . S
C1487 C1488 1.376 . S
C1488 H1475 0.930 . S
C1488 C1487 1.376 . S
C1488 C1489 1.388 . S
C1489 H1476 0.930 . S
C1489 C1488 1.388 . S
C1489 C1490 1.390 . S
C1490 C1489 1.390 . S
C1490 C1491 1.394 . S
C1490 C1496 1.465 . S
C1491 C1486 1.399 . S
C1491 C1490 1.394 . S
C1491 C1492 1.516 . S
C1492 C1491 1.516 . S
C1492 C1493 1.502 . S
C1492 C1494 1.561 . S
C1492 C1495 1.526 . S
C1493 H1477 0.959 . S
C1493 H1478 0.959 . S
C1493 H1479 0.961 . S
C1493 C1492 1.502 . S
C1494 H1480 0.960 . S
C1494 H1481 0.961 . S
C1494 H1482 0.959 . S
C1494 C1492 1.561 . S
C1495 C1492 1.526 . S
C1495 C1496 1.396 . S
C1495 C1500 1.390 . S
C1496 C1490 1.465 . S
C1496 C1495 1.396 . S
C1496 C1497 1.399 . S
C1497 H1483 0.929 . S
C1497 C1496 1.399 . S
C1497 C1498 1.385 . S
C1498 H1484 0.931 . S
C1498 C1497 1.385 . S
C1498 C1499 1.389 . S
C1499 C1498 1.389 . S
C1499 C1500 1.387 . S
C1500 H1485 0.930 . S
C1500 C1495 1.390 . S
C1500 C1499 1.387 . S
H1501 C1513 0.930 . S
H1502 C1515 0.930 . S
H1503 C1516 0.930 . S
H1504 C1520 0.959 . S
H1505 C1520 0.959 . S
H1506 C1520 0.961 . S
H1507 C1521 0.960 . S
H1508 C1521 0.961 . S
H1509 C1521 0.959 . S
H1510 C1524 0.929 . S
H1511 C1525 0.931 . S
H1512 C1527 0.930 . S
C1513 H1501 0.930 . S
C1513 C1514 1.399 . S
C1513 C1518 1.399 . S
C1514 C1513 1.399 . S
C1514 C1515 1.376 . S
C1515 H1502 0.930 . S
C1515 C1514 1.376 . S
C1515 C1516 1.388 . S
C1516 H1503 0.930 . S
C1516 C1515 1.388 . S
C1516 C1517 1.390 . S
C1517 C1516 1.390 . S
C1517 C1518 1.394 . S
C1517 C1523 1.465 . S
C1518 C1513 1.399 . S
C1518 C1517 1.394 . S
C1518 C1519 1.516 . S
C1519 C1518 1.516 . S
C1519 C1520 1.502 . S
C1519 C1521 1.561 . S
C1519 C1522 1.526 . S
C1520 H1504 0.959 . S
C1520 H1505 0.959 . S
C1520 H1506 0.961 . S
C1520 C1519 1.502 . S
C1521 H1507 0.960 . S
C1521 H1508 0.961 . S
C1521 H1509 0.959 . S
C1521 C1519 1.561 . S
C1522 C1519 1.526 . S
C1522 C1523 1.396 . S
C1522 C1527 1.390 . S
C1523 C1517 1.465 . S
C1523 C1522 1.396 . S
C1523 C1524 1.399 . S
C1524 H1510 0.929 . S
C1524 C1523 1.399 . S
C1524 C1525 1.385 . S
C1525 H1511 0.931 . S
C1525 C1524 1.385 . S
C1525 C1526 1.389 . S
C1526 C1525 1.389 . S
C1526 C1527 1.387 . S
C1527 H1512 0.930 . S
C1527 C1522 1.390 . S
C1527 C1526 1.387 . S
H1528 C1540 0.930 1_655 S
H1529 C1542 0.930 . S
H1530 C1543 0.930 . S
H1531 C1547 0.959 . S
H1532 C1547 0.959 1_554 S
H1533 C1547 0.961 . S
H1534 C1548 0.960 . S
H1535 C1548 0.961 1_554 S
H1536 C1548 0.959 . S
H1537 C1551 0.929 . S
H1538 C1552 0.931 . S
H1539 C1554 0.893 1_554 S
C1540 H1528 0.930 1_455 S
C1540 C1541 1.399 . S
C1540 C1545 1.399 . S
C1541 C1540 1.399 . S
C1541 C1542 1.376 . S
C1542 H1529 0.930 . S
C1542 C1541 1.376 . S
C1542 C1543 1.388 . S
C1543 H1530 0.930 . S
C1543 C1542 1.388 . S
C1543 C1544 1.390 . S
C1544 C1543 1.390 . S
C1544 C1545 1.394 . S
C1544 C1550 1.465 . S
C1545 C1540 1.399 . S
C1545 C1544 1.394 . S
C1545 C1546 1.516 . S
C1546 C1545 1.516 . S
C1546 C1547 1.502 1_455 S
C1546 C1548 1.561 . S
C1546 C1549 1.526 . S
C1547 H1531 0.959 . S
C1547 H1532 0.959 1_556 S
C1547 H1533 0.961 . S
C1547 C1546 1.502 1_655 S
C1548 H1534 0.960 . S
C1548 H1535 0.961 1_556 S
C1548 H1536 0.959 . S
C1548 C1546 1.561 . S
C1549 C1546 1.526 . S
C1549 C1550 1.396 . S
C1549 C1554 1.422 . S
C1550 C1544 1.465 . S
C1550 C1549 1.396 . S
C1550 C1551 1.399 . S
C1551 H1537 0.929 . S
C1551 C1550 1.399 . S
C1551 C1552 1.385 . S
C1552 H1538 0.931 . S
C1552 C1551 1.385 . S
C1552 C1553 1.389 . S
C1553 C1552 1.389 . S
C1553 C1554 1.392 . S
C1554 H1539 0.893 1_556 S
C1554 C1549 1.422 . S
C1554 C1553 1.392 . S
H1555 C1567 0.930 . S
H1556 C1569 0.930 . S
H1557 C1570 0.930 . S
H1558 C1574 0.959 . S
H1559 C1574 0.959 . S
H1560 C1574 0.961 . S
H1561 C1575 0.960 . S
H1562 C1575 0.961 . S
H1563 C1575 0.959 . S
H1564 C1578 0.929 . S
H1565 C1579 0.931 . S
H1566 C1581 0.930 . S
C1567 H1555 0.930 . S
C1567 C1568 1.399 . S
C1567 C1572 1.399 . S
C1568 C1567 1.399 . S
C1568 C1569 1.376 . S
C1569 H1556 0.930 . S
C1569 C1568 1.376 . S
C1569 C1570 1.388 . S
C1570 H1557 0.930 . S
C1570 C1569 1.388 . S
C1570 C1571 1.390 . S
C1571 C1570 1.390 . S
C1571 C1572 1.394 . S
C1571 C1577 1.465 . S
C1572 C1567 1.399 . S
C1572 C1571 1.394 . S
C1572 C1573 1.516 . S
C1573 C1572 1.516 . S
C1573 C1574 1.502 . S
C1573 C1575 1.561 . S
C1573 C1576 1.526 . S
C1574 H1558 0.959 . S
C1574 H1559 0.959 . S
C1574 H1560 0.961 . S
C1574 C1573 1.502 . S
C1575 H1561 0.960 . S
C1575 H1562 0.961 . S
C1575 H1563 0.959 . S
C1575 C1573 1.561 . S
C1576 C1573 1.526 . S
C1576 C1577 1.396 . S
C1576 C1581 1.390 . S
C1577 C1571 1.465 . S
C1577 C1576 1.396 . S
C1577 C1578 1.399 . S
C1578 H1564 0.929 . S
C1578 C1577 1.399 . S
C1578 C1579 1.385 . S
C1579 H1565 0.931 . S
C1579 C1578 1.385 . S
C1579 C1580 1.389 . S
C1580 C1579 1.389 . S
C1580 C1581 1.387 . S
C1581 H1566 0.930 . S
C1581 C1576 1.390 . S
C1581 C1580 1.387 . S
H1582 C1594 0.930 . S
H1583 C1596 0.930 . S
H1584 C1597 0.930 . S
H1585 C1601 0.959 . S
H1586 C1601 0.959 . S
H1587 C1601 0.961 . S
H1588 C1602 0.960 . S
H1589 C1602 0.961 . S
H1590 C1602 0.959 . S
H1591 C1605 0.929 . S
H1592 C1606 0.931 . S
H1593 C1608 0.930 . S
C1594 H1582 0.930 . S
C1594 C1595 1.399 . S
C1594 C1599 1.399 . S
C1595 C1594 1.399 . S
C1595 C1596 1.376 . S
C1596 H1583 0.930 . S
C1596 C1595 1.376 . S
C1596 C1597 1.388 . S
C1597 H1584 0.930 . S
C1597 C1596 1.388 . S
C1597 C1598 1.390 . S
C1598 C1597 1.390 . S
C1598 C1599 1.394 . S
C1598 C1604 1.465 . S
C1599 C1594 1.399 . S
C1599 C1598 1.394 . S
C1599 C1600 1.516 . S
C1600 C1599 1.516 . S
C1600 C1601 1.502 . S
C1600 C1602 1.561 . S
C1600 C1603 1.526 . S
C1601 H1585 0.959 . S
C1601 H1586 0.959 . S
C1601 H1587 0.961 . S
C1601 C1600 1.502 . S
C1602 H1588 0.960 . S
C1602 H1589 0.961 . S
C1602 H1590 0.959 . S
C1602 C1600 1.561 . S
C1603 C1600 1.526 . S
C1603 C1604 1.396 . S
C1603 C1608 1.390 . S
C1604 C1598 1.465 . S
C1604 C1603 1.396 . S
C1604 C1605 1.399 . S
C1605 H1591 0.929 . S
C1605 C1604 1.399 . S
C1605 C1606 1.385 . S
C1606 H1592 0.931 . S
C1606 C1605 1.385 . S
C1606 C1607 1.389 . S
C1607 C1606 1.389 . S
C1607 C1608 1.387 . S
C1608 H1593 0.930 . S
C1608 C1603 1.390 . S
C1608 C1607 1.387 . S
H1609 C1621 0.930 . S
H1610 C1623 0.930 . S
H1611 C1624 0.930 . S
H1612 C1628 0.959 . S
H1613 C1628 0.959 . S
H1614 C1628 0.961 . S
H1615 C1629 0.960 . S
H1616 C1629 0.961 . S
H1617 C1629 0.959 . S
H1618 C1632 0.929 . S
H1619 C1633 0.931 . S
H1620 C1635 0.930 . S
C1621 H1609 0.930 . S
C1621 C1622 1.399 . S
C1621 C1626 1.399 . S
C1622 C1621 1.399 . S
C1622 C1623 1.376 . S
C1623 H1610 0.930 . S
C1623 C1622 1.376 . S
C1623 C1624 1.388 . S
C1624 H1611 0.930 . S
C1624 C1623 1.388 . S
C1624 C1625 1.390 . S
C1625 C1624 1.390 . S
C1625 C1626 1.394 . S
C1625 C1631 1.465 . S
C1626 C1621 1.399 . S
C1626 C1625 1.394 . S
C1626 C1627 1.516 . S
C1627 C1626 1.516 . S
C1627 C1628 1.502 . S
C1627 C1629 1.561 . S
C1627 C1630 1.526 . S
C1628 H1612 0.959 . S
C1628 H1613 0.959 . S
C1628 H1614 0.961 . S
C1628 C1627 1.502 . S
C1629 H1615 0.960 . S
C1629 H1616 0.961 . S
C1629 H1617 0.959 . S
C1629 C1627 1.561 . S
C1630 C1627 1.526 . S
C1630 C1631 1.396 . S
C1630 C1635 1.390 . S
C1631 C1625 1.465 . S
C1631 C1630 1.396 . S
C1631 C1632 1.399 . S
C1632 H1618 0.929 . S
C1632 C1631 1.399 . S
C1632 C1633 1.385 . S
C1633 H1619 0.931 . S
C1633 C1632 1.385 . S
C1633 C1634 1.389 . S
C1634 C1633 1.389 . S
C1634 C1635 1.387 . S
C1635 H1620 0.930 . S
C1635 C1630 1.390 . S
C1635 C1634 1.387 . S
H1636 C1648 0.930 . S
H1637 C1650 0.930 . S
H1638 C1651 0.930 . S
H1639 C1655 0.959 . S
H1640 C1655 0.959 . S
H1641 C1655 0.961 . S
H1642 C1656 0.960 . S
H1643 C1656 0.961 . S
H1644 C1656 0.959 . S
H1645 C1659 0.929 . S
H1646 C1660 0.931 . S
H1647 C1662 0.930 . S
C1648 H1636 0.930 . S
C1648 C1649 1.399 . S
C1648 C1653 1.399 . S
C1649 C1648 1.399 . S
C1649 C1650 1.376 . S
C1650 H1637 0.930 . S
C1650 C1649 1.376 . S
C1650 C1651 1.388 . S
C1651 H1638 0.930 . S
C1651 C1650 1.388 . S
C1651 C1652 1.390 . S
C1652 C1651 1.390 . S
C1652 C1653 1.394 . S
C1652 C1658 1.465 . S
C1653 C1648 1.399 . S
C1653 C1652 1.394 . S
C1653 C1654 1.516 . S
C1654 C1653 1.516 . S
C1654 C1655 1.502 . S
C1654 C1656 1.561 . S
C1654 C1657 1.526 . S
C1655 H1639 0.959 . S
C1655 H1640 0.959 . S
C1655 H1641 0.961 . S
C1655 C1654 1.502 . S
C1656 H1642 0.960 . S
C1656 H1643 0.961 . S
C1656 H1644 0.959 . S
C1656 C1654 1.561 . S
C1657 C1654 1.526 . S
C1657 C1658 1.396 . S
C1657 C1662 1.390 . S
C1658 C1652 1.465 . S
C1658 C1657 1.396 . S
C1658 C1659 1.399 . S
C1659 H1645 0.929 . S
C1659 C1658 1.399 . S
C1659 C1660 1.385 . S
C1660 H1646 0.931 . S
C1660 C1659 1.385 . S
C1660 C1661 1.389 . S
C1661 C1660 1.389 . S
C1661 C1662 1.387 . S
C1662 H1647 0.930 . S
C1662 C1657 1.390 . S
C1662 C1661 1.387 . S
H1663 C1675 0.930 . S
H1664 C1677 0.930 . S
H1665 C1678 0.930 . S
H1666 C1682 0.959 . S
H1667 C1682 0.959 . S
H1668 C1682 0.961 . S
H1669 C1683 0.960 . S
H1670 C1683 0.961 . S
H1671 C1683 0.959 . S
H1672 C1686 0.929 . S
H1673 C1687 0.931 . S
H1674 C1689 0.930 . S
C1675 H1663 0.930 . S
C1675 C1676 1.399 . S
C1675 C1680 1.399 . S
C1676 C1675 1.399 . S
C1676 C1677 1.376 . S
C1677 H1664 0.930 . S
C1677 C1676 1.376 . S
C1677 C1678 1.388 . S
C1678 H1665 0.930 . S
C1678 C1677 1.388 . S
C1678 C1679 1.390 . S
C1679 C1678 1.390 . S
C1679 C1680 1.394 . S
C1679 C1685 1.465 . S
C1680 C1675 1.399 . S
C1680 C1679 1.394 . S
C1680 C1681 1.516 . S
C1681 C1680 1.516 . S
C1681 C1682 1.502 . S
C1681 C1683 1.561 . S
C1681 C1684 1.526 . S
C1682 H1666 0.959 . S
C1682 H1667 0.959 . S
C1682 H1668 0.961 . S
C1682 C1681 1.502 . S
C1683 H1669 0.960 . S
C1683 H1670 0.961 . S
C1683 H1671 0.959 . S
C1683 C1681 1.561 . S
C1684 C1681 1.526 . S
C1684 C1685 1.396 . S
C1684 C1689 1.390 . S
C1685 C1679 1.465 . S
C1685 C1684 1.396 . S
C1685 C1686 1.399 . S
C1686 H1672 0.929 . S
C1686 C1685 1.399 . S
C1686 C1687 1.385 . S
C1687 H1673 0.931 . S
C1687 C1686 1.385 . S
C1687 C1688 1.389 . S
C1688 C1687 1.389 . S
C1688 C1689 1.387 . S
C1689 H1674 0.930 . S
C1689 C1684 1.390 . S
C1689 C1688 1.387 . S
H1690 C1702 0.930 . S
H1691 C1704 0.930 . S
H1692 C1705 0.930 . S
H1693 C1709 0.959 . S
H1694 C1709 0.959 . S
H1695 C1709 0.961 . S
H1696 C1710 0.960 . S
H1697 C1710 0.961 . S
H1698 C1710 0.959 . S
H1699 C1713 0.929 . S
H1700 C1714 0.931 . S
H1701 C1716 0.930 . S
C1702 H1690 0.930 . S
C1702 C1703 1.399 . S
C1702 C1707 1.399 . S
C1703 C1702 1.399 . S
C1703 C1704 1.376 . S
C1704 H1691 0.930 . S
C1704 C1703 1.376 . S
C1704 C1705 1.388 . S
C1705 H1692 0.930 . S
C1705 C1704 1.388 . S
C1705 C1706 1.390 . S
C1706 C1705 1.390 . S
C1706 C1707 1.394 . S
C1706 C1712 1.465 . S
C1707 C1702 1.399 . S
C1707 C1706 1.394 . S
C1707 C1708 1.516 . S
C1708 C1707 1.516 . S
C1708 C1709 1.502 . S
C1708 C1710 1.561 . S
C1708 C1711 1.526 . S
C1709 H1693 0.959 . S
C1709 H1694 0.959 . S
C1709 H1695 0.961 . S
C1709 C1708 1.502 . S
C1710 H1696 0.960 . S
C1710 H1697 0.961 . S
C1710 H1698 0.959 . S
C1710 C1708 1.561 . S
C1711 C1708 1.526 . S
C1711 C1712 1.396 . S
C1711 C1716 1.390 . S
C1712 C1706 1.465 . S
C1712 C1711 1.396 . S
C1712 C1713 1.399 . S
C1713 H1699 0.929 . S
C1713 C1712 1.399 . S
C1713 C1714 1.385 . S
C1714 H1700 0.931 . S
C1714 C1713 1.385 . S
C1714 C1715 1.389 . S
C1715 C1714 1.389 . S
C1715 C1716 1.387 . S
C1716 H1701 0.930 . S
C1716 C1711 1.390 . S
C1716 C1715 1.387 . S
H1717 C1729 0.930 . S
H1718 C1731 0.930 . S
H1719 C1732 0.930 . S
H1720 C1736 0.959 . S
H1721 C1736 0.959 . S
H1722 C1736 0.961 . S
H1723 C1737 0.960 . S
H1724 C1737 0.961 . S
H1725 C1737 0.959 . S
H1726 C1740 0.929 . S
H1727 C1741 0.931 . S
H1728 C1743 0.930 . S
C1729 H1717 0.930 . S
C1729 C1730 1.399 . S
C1729 C1734 1.399 . S
C1730 C1729 1.399 . S
C1730 C1731 1.376 . S
C1731 H1718 0.930 . S
C1731 C1730 1.376 . S
C1731 C1732 1.388 . S
C1732 H1719 0.930 . S
C1732 C1731 1.388 . S
C1732 C1733 1.390 . S
C1733 C1732 1.390 . S
C1733 C1734 1.394 . S
C1733 C1739 1.465 . S
C1734 C1729 1.399 . S
C1734 C1733 1.394 . S
C1734 C1735 1.516 . S
C1735 C1734 1.516 . S
C1735 C1736 1.502 . S
C1735 C1737 1.561 . S
C1735 C1738 1.526 . S
C1736 H1720 0.959 . S
C1736 H1721 0.959 . S
C1736 H1722 0.961 . S
C1736 C1735 1.502 . S
C1737 H1723 0.960 . S
C1737 H1724 0.961 . S
C1737 H1725 0.959 . S
C1737 C1735 1.561 . S
C1738 C1735 1.526 . S
C1738 C1739 1.396 . S
C1738 C1743 1.390 . S
C1739 C1733 1.465 . S
C1739 C1738 1.396 . S
C1739 C1740 1.399 . S
C1740 H1726 0.929 . S
C1740 C1739 1.399 . S
C1740 C1741 1.385 . S
C1741 H1727 0.931 . S
C1741 C1740 1.385 . S
C1741 C1742 1.389 . S
C1742 C1741 1.389 . S
C1742 C1743 1.387 . S
C1743 H1728 0.930 . S
C1743 C1738 1.390 . S
C1743 C1742 1.387 . S
H1744 C1756 0.930 . S
H1745 C1758 0.930 . S
H1746 C1759 0.930 . S
H1747 C1763 0.959 1_455 S
H1748 C1763 0.959 1_455 S
H1749 C1763 0.961 . S
H1750 C1764 0.960 . S
H1751 C1764 0.961 . S
H1752 C1764 0.959 . S
H1753 C1767 0.929 . S
H1754 C1768 0.910 1_565 S
H1755 C1770 0.930 1_455 S
C1756 H1744 0.930 . S
C1756 C1757 1.399 . S
C1756 C1761 1.399 . S
C1757 C1756 1.399 . S
C1757 C1758 1.376 1_545 S
C1758 H1745 0.930 . S
C1758 C1757 1.376 1_565 S
C1758 C1759 1.388 . S
C1759 H1746 0.930 . S
C1759 C1758 1.388 . S
C1759 C1760 1.390 1_565 S
C1760 C1759 1.390 1_545 S
C1760 C1761 1.394 . S
C1760 C1766 1.465 . S
C1761 C1756 1.399 . S
C1761 C1760 1.394 . S
C1761 C1762 1.516 . S
C1762 C1761 1.516 . S
C1762 C1763 1.502 . S
C1762 C1764 1.561 . S
C1762 C1765 1.526 . S
C1763 H1747 0.959 1_655 S
C1763 H1748 0.959 1_655 S
C1763 H1749 0.961 . S
C1763 C1762 1.502 . S
C1764 H1750 0.960 . S
C1764 H1751 0.961 . S
C1764 H1752 0.959 . S
C1764 C1762 1.561 . S
C1765 C1762 1.526 . S
C1765 C1766 1.396 . S
C1765 C1770 1.390 . S
C1766 C1760 1.465 . S
C1766 C1765 1.396 . S
C1766 C1767 1.399 1_545 S
C1767 H1753 0.929 . S
C1767 C1766 1.399 1_565 S
C1767 C1768 1.374 1_565 S
C1768 H1754 0.910 1_545 S
C1768 C1767 1.374 1_545 S
C1768 C1769 1.429 . S
C1769 C1768 1.429 . S
C1769 C1770 1.388 . S
C1770 H1755 0.930 1_655 S
C1770 C1765 1.390 . S
C1770 C1769 1.388 . S
H1771 C1783 0.930 . S
H1772 C1785 0.930 . S
H1773 C1786 0.930 . S
H1774 C1790 0.959 . S
H1775 C1790 0.959 . S
H1776 C1790 0.961 . S
H1777 C1791 0.960 . S
H1778 C1791 0.961 . S
H1779 C1791 0.959 . S
H1780 C1794 0.929 . S
H1781 C1795 0.931 . S
H1782 C1797 0.930 . S
C1783 H1771 0.930 . S
C1783 C1784 1.399 . S
C1783 C1788 1.399 . S
C1784 C1783 1.399 . S
C1784 C1785 1.376 . S
C1785 H1772 0.930 . S
C1785 C1784 1.376 . S
C1785 C1786 1.388 . S
C1786 H1773 0.930 . S
C1786 C1785 1.388 . S
C1786 C1787 1.390 . S
C1787 C1786 1.390 . S
C1787 C1788 1.394 . S
C1787 C1793 1.465 . S
C1788 C1783 1.399 . S
C1788 C1787 1.394 . S
C1788 C1789 1.516 . S
C1789 C1788 1.516 . S
C1789 C1790 1.502 . S
C1789 C1791 1.561 . S
C1789 C1792 1.526 . S
C1790 H1774 0.959 . S
C1790 H1775 0.959 . S
C1790 H1776 0.961 . S
C1790 C1789 1.502 . S
C1791 H1777 0.960 . S
C1791 H1778 0.961 . S
C1791 H1779 0.959 . S
C1791 C1789 1.561 . S
C1792 C1789 1.526 . S
C1792 C1793 1.396 . S
C1792 C1797 1.390 . S
C1793 C1787 1.465 . S
C1793 C1792 1.396 . S
C1793 C1794 1.399 . S
C1794 H1780 0.929 . S
C1794 C1793 1.399 . S
C1794 C1795 1.385 . S
C1795 H1781 0.931 . S
C1795 C1794 1.385 . S
C1795 C1796 1.389 . S
C1796 C1795 1.389 . S
C1796 C1797 1.387 . S
C1797 H1782 0.930 . S
C1797 C1792 1.390 . S
C1797 C1796 1.387 . S
H1798 C1810 0.930 . S
H1799 C1812 0.934 . S
H1800 C1813 0.929 . S
H1801 C1817 0.959 1_565 S
H1802 C1817 0.959 . S
H1803 C1817 0.961 . S
H1804 C1818 0.960 . S
H1805 C1818 0.961 . S
H1806 C1818 0.959 . S
H1807 C1821 0.929 . S
H1808 C1822 0.931 . S
H1809 C1824 0.930 . S
C1810 H1798 0.930 . S
C1810 C1811 1.399 . S
C1810 C1815 1.399 . S
C1811 C1810 1.399 . S
C1811 C1812 1.376 . S
C1812 H1799 0.934 . S
C1812 C1811 1.376 . S
C1812 C1813 1.389 1_545 S
C1813 H1800 0.929 . S
C1813 C1812 1.389 1_565 S
C1813 C1814 1.390 1_565 S
C1814 C1813 1.390 1_545 S
C1814 C1815 1.394 . S
C1814 C1820 1.465 . S
C1815 C1810 1.399 . S
C1815 C1814 1.394 . S
C1815 C1816 1.516 . S
C1816 C1815 1.516 . S
C1816 C1817 1.502 . S
C1816 C1818 1.561 . S
C1816 C1819 1.526 . S
C1817 H1801 0.959 1_545 S
C1817 H1802 0.959 . S
C1817 H1803 0.961 . S
C1817 C1816 1.502 . S
C1818 H1804 0.960 . S
C1818 H1805 0.961 . S
C1818 H1806 0.959 . S
C1818 C1816 1.561 . S
C1819 C1816 1.526 . S
C1819 C1820 1.396 . S
C1819 C1824 1.390 . S
C1820 C1814 1.465 . S
C1820 C1819 1.396 . S
C1820 C1821 1.399 1_545 S
C1821 H1807 0.929 . S
C1821 C1820 1.399 1_565 S
C1821 C1822 1.385 . S
C1822 H1808 0.931 . S
C1822 C1821 1.385 . S
C1822 C1823 1.390 . S
C1823 C1822 1.390 . S
C1823 C1824 1.386 1_565 S
C1824 H1809 0.930 . S
C1824 C1819 1.390 . S
C1824 C1823 1.386 1_545 S
H1825 C1837 0.930 . S
H1826 C1839 0.930 . S
H1827 C1840 0.930 . S
H1828 C1844 0.959 . S
H1829 C1844 0.959 . S
H1830 C1844 0.961 . S
H1831 C1845 0.960 . S
H1832 C1845 0.961 . S
H1833 C1845 0.959 . S
H1834 C1848 0.929 . S
H1835 C1849 0.931 . S
H1836 C1851 0.930 . S
C1837 H1825 0.930 . S
C1837 C1838 1.399 . S
C1837 C1842 1.399 . S
C1838 C1837 1.399 . S
C1838 C1839 1.376 . S
C1839 H1826 0.930 . S
C1839 C1838 1.376 . S
C1839 C1840 1.388 . S
C1840 H1827 0.930 . S
C1840 C1839 1.388 . S
C1840 C1841 1.390 . S
C1841 C1840 1.390 . S
C1841 C1842 1.394 . S
C1841 C1847 1.465 . S
C1842 C1837 1.399 . S
C1842 C1841 1.394 . S
C1842 C1843 1.516 . S
C1843 C1842 1.516 . S
C1843 C1844 1.502 . S
C1843 C1845 1.561 . S
C1843 C1846 1.526 . S
C1844 H1828 0.959 . S
C1844 H1829 0.959 . S
C1844 H1830 0.961 . S
C1844 C1843 1.502 . S
C1845 H1831 0.960 . S
C1845 H1832 0.961 . S
C1845 H1833 0.959 . S
C1845 C1843 1.561 . S
C1846 C1843 1.526 . S
C1846 C1847 1.396 . S
C1846 C1851 1.390 . S
C1847 C1841 1.465 . S
C1847 C1846 1.396 . S
C1847 C1848 1.399 . S
C1848 H1834 0.929 . S
C1848 C1847 1.399 . S
C1848 C1849 1.385 . S
C1849 H1835 0.931 . S
C1849 C1848 1.385 . S
C1849 C1850 1.389 . S
C1850 C1849 1.389 . S
C1850 C1851 1.387 . S
C1851 H1836 0.930 . S
C1851 C1846 1.390 . S
C1851 C1850 1.387 . S
H1852 C1864 0.930 . S
H1853 C1866 0.930 . S
H1854 C1867 0.930 . S
H1855 C1871 0.959 . S
H1856 C1871 0.959 . S
H1857 C1871 0.961 . S
H1858 C1872 0.960 . S
H1859 C1872 0.961 . S
H1860 C1872 0.959 . S
H1861 C1875 0.929 . S
H1862 C1876 0.931 . S
H1863 C1878 0.930 . S
C1864 H1852 0.930 . S
C1864 C1865 1.399 1_565 S
C1864 C1869 1.399 . S
C1865 C1864 1.399 1_545 S
C1865 C1866 1.376 . S
C1866 H1853 0.930 . S
C1866 C1865 1.376 . S
C1866 C1867 1.388 . S
C1867 H1854 0.930 . S
C1867 C1866 1.388 . S
C1867 C1868 1.390 . S
C1868 C1867 1.390 . S
C1868 C1869 1.394 1_545 S
C1868 C1874 1.460 1_545 S
C1869 C1864 1.399 . S
C1869 C1868 1.394 1_565 S
C1869 C1870 1.516 . S
C1870 C1869 1.516 . S
C1870 C1871 1.502 . S
C1870 C1872 1.561 . S
C1870 C1873 1.526 . S
C1871 H1855 0.959 . S
C1871 H1856 0.959 . S
C1871 H1857 0.961 . S
C1871 C1870 1.502 . S
C1872 H1858 0.960 . S
C1872 H1859 0.961 . S
C1872 H1860 0.959 . S
C1872 C1870 1.561 . S
C1873 C1870 1.526 . S
C1873 C1874 1.426 . S
C1873 C1878 1.390 . S
C1874 C1868 1.460 1_565 S
C1874 C1873 1.426 . S
C1874 C1875 1.381 1_565 S
C1875 H1861 0.929 . S
C1875 C1874 1.381 1_545 S
C1875 C1876 1.385 . S
C1876 H1862 0.931 . S
C1876 C1875 1.385 . S
C1876 C1877 1.389 1_545 S
C1877 C1876 1.389 1_565 S
C1877 C1878 1.387 . S
C1878 H1863 0.930 . S
C1878 C1873 1.390 . S
C1878 C1877 1.387 . S
H1879 C1891 0.930 . S
H1880 C1893 0.930 . S
H1881 C1894 0.930 . S
H1882 C1898 0.959 . S
H1883 C1898 0.959 . S
H1884 C1898 0.961 . S
H1885 C1899 0.960 . S
H1886 C1899 0.961 . S
H1887 C1899 0.959 . S
H1888 C1902 0.929 . S
H1889 C1903 0.931 . S
H1890 C1905 0.930 . S
C1891 H1879 0.930 . S
C1891 C1892 1.399 . S
C1891 C1896 1.399 . S
C1892 C1891 1.399 . S
C1892 C1893 1.376 . S
C1893 H1880 0.930 . S
C1893 C1892 1.376 . S
C1893 C1894 1.388 . S
C1894 H1881 0.930 . S
C1894 C1893 1.388 . S
C1894 C1895 1.390 . S
C1895 C1894 1.390 . S
C1895 C1896 1.394 . S
C1895 C1901 1.465 . S
C1896 C1891 1.399 . S
C1896 C1895 1.394 . S
C1896 C1897 1.516 . S
C1897 C1896 1.516 . S
C1897 C1898 1.502 . S
C1897 C1899 1.561 . S
C1897 C1900 1.526 . S
C1898 H1882 0.959 . S
C1898 H1883 0.959 . S
C1898 H1884 0.961 . S
C1898 C1897 1.502 . S
C1899 H1885 0.960 . S
C1899 H1886 0.961 . S
C1899 H1887 0.959 . S
C1899 C1897 1.561 . S
C1900 C1897 1.526 . S
C1900 C1901 1.396 . S
C1900 C1905 1.390 . S
C1901 C1895 1.465 . S
C1901 C1900 1.396 . S
C1901 C1902 1.399 . S
C1902 H1888 0.929 . S
C1902 C1901 1.399 . S
C1902 C1903 1.385 . S
C1903 H1889 0.931 . S
C1903 C1902 1.385 . S
C1903 C1904 1.389 . S
C1904 C1903 1.389 . S
C1904 C1905 1.387 . S
C1905 H1890 0.930 . S
C1905 C1900 1.390 . S
C1905 C1904 1.387 . S
H1906 C1918 0.930 1_565 S
H1907 C1920 0.930 . S
H1908 C1921 0.930 . S
H1909 C1925 0.959 1_545 S
H1910 C1925 0.959 . S
H1911 C1925 0.961 . S
H1912 C1926 0.960 . S
H1913 C1926 0.961 . S
H1914 C1926 0.959 . S
H1915 C1929 0.929 . S
H1916 C1930 0.931 . S
H1917 C1932 0.930 . S
C1918 H1906 0.930 1_545 S
C1918 C1919 1.399 . S
C1918 C1923 1.399 . S
C1919 C1918 1.399 . S
C1919 C1920 1.376 . S
C1920 H1907 0.930 . S
C1920 C1919 1.376 . S
C1920 C1921 1.388 . S
C1921 H1908 0.930 . S
C1921 C1920 1.388 . S
C1921 C1922 1.390 . S
C1922 C1921 1.390 . S
C1922 C1923 1.394 . S
C1922 C1928 1.465 . S
C1923 C1918 1.399 . S
C1923 C1922 1.394 . S
C1923 C1924 1.516 1_545 S
C1924 C1923 1.516 1_565 S
C1924 C1925 1.502 . S
C1924 C1926 1.561 . S
C1924 C1927 1.526 1_565 S
C1925 H1909 0.959 1_565 S
C1925 H1910 0.959 . S
C1925 H1911 0.961 . S
C1925 C1924 1.502 . S
C1926 H1912 0.960 . S
C1926 H1913 0.961 . S
C1926 H1914 0.959 . S
C1926 C1924 1.561 . S
C1927 C1924 1.526 1_545 S
C1927 C1928 1.396 . S
C1927 C1932 1.390 . S
C1928 C1922 1.465 . S
C1928 C1927 1.396 . S
C1928 C1929 1.399 . S
C1929 H1915 0.929 . S
C1929 C1928 1.399 . S
C1929 C1930 1.385 . S
C1930 H1916 0.931 . S
C1930 C1929 1.385 . S
C1930 C1931 1.389 . S
C1931 C1930 1.389 . S
C1931 C1932 1.387 . S
C1932 H1917 0.930 . S
C1932 C1927 1.390 . S
C1932 C1931 1.387 . S
H1933 C1945 0.930 . S
H1934 C1947 0.930 . S
H1935 C1948 0.930 . S
H1936 C1952 0.959 . S
H1937 C1952 0.959 . S
H1938 C1952 0.961 . S
H1939 C1953 0.960 . S
H1940 C1953 0.961 . S
H1941 C1953 0.959 . S
H1942 C1956 0.929 . S
H1943 C1957 0.931 . S
H1944 C1959 0.930 . S
C1945 H1933 0.930 . S
C1945 C1946 1.399 . S
C1945 C1950 1.399 . S
C1946 C1945 1.399 . S
C1946 C1947 1.376 . S
C1947 H1934 0.930 . S
C1947 C1946 1.376 . S
C1947 C1948 1.388 . S
C1948 H1935 0.930 . S
C1948 C1947 1.388 . S
C1948 C1949 1.390 . S
C1949 C1948 1.390 . S
C1949 C1950 1.394 . S
C1949 C1955 1.465 . S
C1950 C1945 1.399 . S
C1950 C1949 1.394 . S
C1950 C1951 1.516 . S
C1951 C1950 1.516 . S
C1951 C1952 1.502 . S
C1951 C1953 1.561 . S
C1951 C1954 1.526 . S
C1952 H1936 0.959 . S
C1952 H1937 0.959 . S
C1952 H1938 0.961 . S
C1952 C1951 1.502 . S
C1953 H1939 0.960 . S
C1953 H1940 0.961 . S
C1953 H1941 0.959 . S
C1953 C1951 1.561 . S
C1954 C1951 1.526 . S
C1954 C1955 1.396 . S
C1954 C1959 1.390 . S
C1955 C1949 1.465 . S
C1955 C1954 1.396 . S
C1955 C1956 1.399 . S
C1956 H1942 0.929 . S
C1956 C1955 1.399 . S
C1956 C1957 1.385 . S
C1957 H1943 0.931 . S
C1957 C1956 1.385 . S
C1957 C1958 1.389 . S
C1958 C1957 1.389 . S
C1958 C1959 1.387 . S
C1959 H1944 0.930 . S
C1959 C1954 1.390 . S
C1959 C1958 1.387 . S
H1960 C1972 0.930 . S
H1961 C1974 0.911 1_556 S
H1962 C1975 0.930 . S
H1963 C1979 0.959 1_545 S
H1964 C1979 0.959 1_545 S
H1965 C1979 0.961 . S
H1966 C1980 0.960 . S
H1967 C1980 0.961 . S
H1968 C1980 0.959 . S
H1969 C1983 0.929 . S
H1970 C1984 0.931 . S
H1971 C1986 0.930 . S
C1972 H1960 0.930 . S
C1972 C1973 1.399 . S
C1972 C1977 1.399 . S
C1973 C1972 1.399 . S
C1973 C1974 1.376 . S
C1974 H1961 0.911 1_554 S
C1974 C1973 1.376 . S
C1974 C1975 1.388 . S
C1975 H1962 0.930 . S
C1975 C1974 1.388 . S
C1975 C1976 1.390 . S
C1976 C1975 1.390 . S
C1976 C1977 1.394 . S
C1976 C1982 1.465 . S
C1977 C1972 1.399 . S
C1977 C1976 1.394 . S
C1977 C1978 1.516 . S
C1978 C1977 1.516 . S
C1978 C1979 1.502 . S
C1978 C1980 1.561 . S
C1978 C1981 1.526 . S
C1979 H1963 0.959 1_565 S
C1979 H1964 0.959 1_565 S
C1979 H1965 0.961 . S
C1979 C1978 1.502 . S
C1980 H1966 0.960 . S
C1980 H1967 0.961 . S
C1980 H1968 0.959 . S
C1980 C1978 1.561 . S
C1981 C1978 1.526 . S
C1981 C1982 1.396 . S
C1981 C1986 1.390 . S
C1982 C1976 1.465 . S
C1982 C1981 1.396 . S
C1982 C1983 1.399 . S
C1983 H1969 0.929 . S
C1983 C1982 1.399 . S
C1983 C1984 1.385 . S
C1984 H1970 0.931 . S
C1984 C1983 1.385 . S
C1984 C1985 1.389 . S
C1985 C1984 1.389 . S
C1985 C1986 1.387 . S
C1986 H1971 0.930 . S
C1986 C1981 1.390 . S
C1986 C1985 1.387 . S
H1987 C1999 0.930 . S
H1988 C2001 0.930 . S
H1989 C2002 0.930 . S
H1990 C2006 0.959 . S
H1991 C2006 0.959 . S
H1992 C2006 0.961 . S
H1993 C2007 0.960 . S
H1994 C2007 0.961 . S
H1995 C2007 0.959 . S
H1996 C2010 0.929 . S
H1997 C2011 0.931 . S
H1998 C2013 0.930 . S
C1999 H1987 0.930 . S
C1999 C2000 1.399 . S
C1999 C2004 1.399 . S
C2000 C1999 1.399 . S
C2000 C2001 1.376 1_554 S
C2001 H1988 0.930 . S
C2001 C2000 1.376 1_556 S
C2001 C2002 1.388 . S
C2002 H1989 0.930 . S
C2002 C2001 1.388 . S
C2002 C2003 1.390 . S
C2003 C2002 1.390 . S
C2003 C2004 1.394 1_556 S
C2003 C2009 1.465 . S
C2004 C1999 1.399 . S
C2004 C2003 1.394 1_554 S
C2004 C2005 1.516 . S
C2005 C2004 1.516 . S
C2005 C2006 1.502 . S
C2005 C2007 1.561 . S
C2005 C2008 1.526 . S
C2006 H1990 0.959 . S
C2006 H1991 0.959 . S
C2006 H1992 0.961 . S
C2006 C2005 1.502 . S
C2007 H1993 0.960 . S
C2007 H1994 0.961 . S
C2007 H1995 0.959 . S
C2007 C2005 1.561 . S
C2008 C2005 1.526 . S
C2008 C2009 1.396 1_554 S
C2008 C2013 1.390 . S
C2009 C2003 1.465 . S
C2009 C2008 1.396 1_556 S
C2009 C2010 1.399 . S
C2010 H1996 0.929 . S
C2010 C2009 1.399 . S
C2010 C2011 1.385 . S
C2011 H1997 0.931 . S
C2011 C2010 1.385 . S
C2011 C2012 1.389 1_556 S
C2012 C2011 1.389 1_554 S
C2012 C2013 1.387 . S
C2013 H1998 0.930 . S
C2013 C2008 1.390 . S
C2013 C2012 1.387 . S
H2014 C2026 0.930 . S
H2015 C2028 0.930 . S
H2016 C2029 0.930 . S
H2017 C2033 0.959 . S
H2018 C2033 0.959 . S
H2019 C2033 0.961 . S
H2020 C2034 0.960 . S
H2021 C2034 0.961 . S
H2022 C2034 0.959 . S
H2023 C2037 0.929 . S
H2024 C2038 0.931 . S
H2025 C2040 0.930 . S
C2026 H2014 0.930 . S
C2026 C2027 1.399 . S
C2026 C2031 1.399 . S
C2027 C2026 1.399 . S
C2027 C2028 1.376 . S
C2028 H2015 0.930 . S
C2028 C2027 1.376 . S
C2028 C2029 1.388 . S
C2029 H2016 0.930 . S
C2029 C2028 1.388 . S
C2029 C2030 1.390 . S
C2030 C2029 1.390 . S
C2030 C2031 1.394 . S
C2030 C2036 1.465 . S
C2031 C2026 1.399 . S
C2031 C2030 1.394 . S
C2031 C2032 1.516 . S
C2032 C2031 1.516 . S
C2032 C2033 1.502 . S
C2032 C2034 1.561 . S
C2032 C2035 1.526 . S
C2033 H2017 0.959 . S
C2033 H2018 0.959 . S
C2033 H2019 0.961 . S
C2033 C2032 1.502 . S
C2034 H2020 0.960 . S
C2034 H2021 0.961 . S
C2034 H2022 0.959 . S
C2034 C2032 1.561 . S
C2035 C2032 1.526 . S
C2035 C2036 1.396 . S
C2035 C2040 1.390 . S
C2036 C2030 1.465 . S
C2036 C2035 1.396 . S
C2036 C2037 1.399 . S
C2037 H2023 0.929 . S
C2037 C2036 1.399 . S
C2037 C2038 1.385 . S
C2038 H2024 0.931 . S
C2038 C2037 1.385 . S
C2038 C2039 1.389 . S
C2039 C2038 1.389 . S
C2039 C2040 1.387 . S
C2040 H2025 0.930 . S
C2040 C2035 1.390 . S
C2040 C2039 1.387 . S
H2041 C2053 0.930 . S
H2042 C2055 0.930 . S
H2043 C2056 0.930 . S
H2044 C2060 0.959 . S
H2045 C2060 0.959 . S
H2046 C2060 0.961 . S
H2047 C2061 0.960 . S
H2048 C2061 0.961 . S
H2049 C2061 0.959 . S
H2050 C2064 0.929 . S
H2051 C2065 0.931 . S
H2052 C2067 0.930 . S
C2053 H2041 0.930 . S
C2053 C2054 1.399 . S
C2053 C2058 1.399 . S
C2054 C2053 1.399 . S
C2054 C2055 1.376 . S
C2055 H2042 0.930 . S
C2055 C2054 1.376 . S
C2055 C2056 1.388 . S
C2056 H2043 0.930 . S
C2056 C2055 1.388 . S
C2056 C2057 1.390 . S
C2057 C2056 1.390 . S
C2057 C2058 1.394 . S
C2057 C2063 1.465 . S
C2058 C2053 1.399 . S
C2058 C2057 1.394 . S
C2058 C2059 1.516 . S
C2059 C2058 1.516 . S
C2059 C2060 1.502 . S
C2059 C2061 1.561 . S
C2059 C2062 1.526 . S
C2060 H2044 0.959 . S
C2060 H2045 0.959 . S
C2060 H2046 0.961 . S
C2060 C2059 1.502 . S
C2061 H2047 0.960 . S
C2061 H2048 0.961 . S
C2061 H2049 0.959 . S
C2061 C2059 1.561 . S
C2062 C2059 1.526 . S
C2062 C2063 1.396 . S
C2062 C2067 1.390 . S
C2063 C2057 1.465 . S
C2063 C2062 1.396 . S
C2063 C2064 1.399 . S
C2064 H2050 0.929 . S
C2064 C2063 1.399 . S
C2064 C2065 1.385 . S
C2065 H2051 0.931 . S
C2065 C2064 1.385 . S
C2065 C2066 1.389 . S
C2066 C2065 1.389 . S
C2066 C2067 1.387 . S
C2067 H2052 0.930 . S
C2067 C2062 1.390 . S
C2067 C2066 1.387 . S
H2068 C2080 0.930 . S
H2069 C2082 0.930 . S
H2070 C2083 0.930 . S
H2071 C2087 0.959 . S
H2072 C2087 0.959 . S
H2073 C2087 0.961 . S
H2074 C2088 0.960 . S
H2075 C2088 0.961 . S
H2076 C2088 0.959 . S
H2077 C2091 0.929 . S
H2078 C2092 0.931 . S
H2079 C2094 0.930 . S
C2080 H2068 0.930 . S
C2080 C2081 1.399 . S
C2080 C2085 1.399 . S
C2081 C2080 1.399 . S
C2081 C2082 1.376 . S
C2082 H2069 0.930 . S
C2082 C2081 1.376 . S
C2082 C2083 1.388 . S
C2083 H2070 0.930 . S
C2083 C2082 1.388 . S
C2083 C2084 1.390 . S
C2084 C2083 1.390 . S
C2084 C2085 1.394 . S
C2084 C2090 1.465 . S
C2085 C2080 1.399 . S
C2085 C2084 1.394 . S
C2085 C2086 1.516 . S
C2086 C2085 1.516 . S
C2086 C2087 1.502 . S
C2086 C2088 1.561 . S
C2086 C2089 1.526 . S
C2087 H2071 0.959 . S
C2087 H2072 0.959 . S
C2087 H2073 0.961 . S
C2087 C2086 1.502 . S
C2088 H2074 0.960 . S
C2088 H2075 0.961 . S
C2088 H2076 0.959 . S
C2088 C2086 1.561 . S
C2089 C2086 1.526 . S
C2089 C2090 1.396 . S
C2089 C2094 1.390 . S
C2090 C2084 1.465 . S
C2090 C2089 1.396 . S
C2090 C2091 1.399 . S
C2091 H2077 0.929 . S
C2091 C2090 1.399 . S
C2091 C2092 1.385 . S
C2092 H2078 0.931 . S
C2092 C2091 1.385 . S
C2092 C2093 1.389 . S
C2093 C2092 1.389 . S
C2093 C2094 1.387 . S
C2094 H2079 0.930 . S
C2094 C2089 1.390 . S
C2094 C2093 1.387 . S
H2095 C2107 0.930 . S
H2096 C2109 0.930 . S
H2097 C2110 0.930 . S
H2098 C2114 0.959 . S
H2099 C2114 0.959 . S
H2100 C2114 0.961 . S
H2101 C2115 0.960 . S
H2102 C2115 0.961 . S
H2103 C2115 0.959 . S
H2104 C2118 0.929 . S
H2105 C2119 0.931 . S
H2106 C2121 0.930 . S
C2107 H2095 0.930 . S
C2107 C2108 1.399 . S
C2107 C2112 1.399 . S
C2108 C2107 1.399 . S
C2108 C2109 1.376 . S
C2109 H2096 0.930 . S
C2109 C2108 1.376 . S
C2109 C2110 1.388 . S
C2110 H2097 0.930 . S
C2110 C2109 1.388 . S
C2110 C2111 1.390 . S
C2111 C2110 1.390 . S
C2111 C2112 1.394 . S
C2111 C2117 1.465 . S
C2112 C2107 1.399 . S
C2112 C2111 1.394 . S
C2112 C2113 1.516 . S
C2113 C2112 1.516 . S
C2113 C2114 1.502 . S
C2113 C2115 1.561 . S
C2113 C2116 1.526 . S
C2114 H2098 0.959 . S
C2114 H2099 0.959 . S
C2114 H2100 0.961 . S
C2114 C2113 1.502 . S
C2115 H2101 0.960 . S
C2115 H2102 0.961 . S
C2115 H2103 0.959 . S
C2115 C2113 1.561 . S
C2116 C2113 1.526 . S
C2116 C2117 1.396 . S
C2116 C2121 1.390 . S
C2117 C2111 1.465 . S
C2117 C2116 1.396 . S
C2117 C2118 1.399 . S
C2118 H2104 0.929 . S
C2118 C2117 1.399 . S
C2118 C2119 1.385 . S
C2119 H2105 0.931 . S
C2119 C2118 1.385 . S
C2119 C2120 1.389 . S
C2120 C2119 1.389 . S
C2120 C2121 1.387 . S
C2121 H2106 0.930 . S
C2121 C2116 1.390 . S
C2121 C2120 1.387 . S
H2122 C2134 0.930 . S
H2123 C2136 0.930 . S
H2124 C2137 0.930 . S
H2125 C2141 0.959 . S
H2126 C2141 0.959 . S
H2127 C2141 0.961 . S
H2128 C2142 0.960 . S
H2129 C2142 0.961 . S
H2130 C2142 0.959 . S
H2131 C2145 0.929 . S
H2132 C2146 0.931 . S
H2133 C2148 0.930 . S
C2134 H2122 0.930 . S
C2134 C2135 1.399 . S
C2134 C2139 1.399 . S
C2135 C2134 1.399 . S
C2135 C2136 1.376 . S
C2136 H2123 0.930 . S
C2136 C2135 1.376 . S
C2136 C2137 1.388 . S
C2137 H2124 0.930 . S
C2137 C2136 1.388 . S
C2137 C2138 1.390 . S
C2138 C2137 1.390 . S
C2138 C2139 1.394 . S
C2138 C2144 1.465 . S
C2139 C2134 1.399 . S
C2139 C2138 1.394 . S
C2139 C2140 1.516 . S
C2140 C2139 1.516 . S
C2140 C2141 1.502 . S
C2140 C2142 1.561 . S
C2140 C2143 1.526 . S
C2141 H2125 0.959 . S
C2141 H2126 0.959 . S
C2141 H2127 0.961 . S
C2141 C2140 1.502 . S
C2142 H2128 0.960 . S
C2142 H2129 0.961 . S
C2142 H2130 0.959 . S
C2142 C2140 1.561 . S
C2143 C2140 1.526 . S
C2143 C2144 1.396 . S
C2143 C2148 1.390 . S
C2144 C2138 1.465 . S
C2144 C2143 1.396 . S
C2144 C2145 1.399 . S
C2145 H2131 0.929 . S
C2145 C2144 1.399 . S
C2145 C2146 1.385 . S
C2146 H2132 0.931 . S
C2146 C2145 1.385 . S
C2146 C2147 1.389 . S
C2147 C2146 1.389 . S
C2147 C2148 1.387 . S
C2148 H2133 0.930 . S
C2148 C2143 1.390 . S
C2148 C2147 1.387 . S
H2149 C2161 0.930 . S
H2150 C2163 0.930 . S
H2151 C2164 0.930 . S
H2152 C2168 0.959 . S
H2153 C2168 0.959 . S
H2154 C2168 0.961 . S
H2155 C2169 0.960 . S
H2156 C2169 0.961 . S
H2157 C2169 0.959 . S
H2158 C2172 0.929 . S
H2159 C2173 0.931 . S
H2160 C2175 0.930 . S
C2161 H2149 0.930 . S
C2161 C2162 1.399 . S
C2161 C2166 1.399 . S
C2162 C2161 1.399 . S
C2162 C2163 1.376 . S
C2163 H2150 0.930 . S
C2163 C2162 1.376 . S
C2163 C2164 1.388 . S
C2164 H2151 0.930 . S
C2164 C2163 1.388 . S
C2164 C2165 1.390 . S
C2165 C2164 1.390 . S
C2165 C2166 1.394 . S
C2165 C2171 1.465 . S
C2166 C2161 1.399 . S
C2166 C2165 1.394 . S
C2166 C2167 1.516 . S
C2167 C2166 1.516 . S
C2167 C2168 1.502 . S
C2167 C2169 1.561 . S
C2167 C2170 1.526 . S
C2168 H2152 0.959 . S
C2168 H2153 0.959 . S
C2168 H2154 0.961 . S
C2168 C2167 1.502 . S
C2169 H2155 0.960 . S
C2169 H2156 0.961 . S
C2169 H2157 0.959 . S
C2169 C2167 1.561 . S
C2170 C2167 1.526 . S
C2170 C2171 1.396 . S
C2170 C2175 1.390 . S
C2171 C2165 1.465 . S
C2171 C2170 1.396 . S
C2171 C2172 1.399 . S
C2172 H2158 0.929 . S
C2172 C2171 1.399 . S
C2172 C2173 1.385 . S
C2173 H2159 0.931 . S
C2173 C2172 1.385 . S
C2173 C2174 1.389 . S
C2174 C2173 1.389 . S
C2174 C2175 1.387 . S
C2175 H2160 0.930 . S
C2175 C2170 1.390 . S
C2175 C2174 1.387 . S
H2176 C2188 0.930 . S
H2177 C2190 0.930 . S
H2178 C2191 0.930 . S
H2179 C2195 0.959 . S
H2180 C2195 0.959 . S
H2181 C2195 0.961 . S
H2182 C2196 0.960 . S
H2183 C2196 0.961 . S
H2184 C2196 0.959 . S
H2185 C2199 0.929 . S
H2186 C2200 0.931 . S
H2187 C2202 0.930 . S
C2188 H2176 0.930 . S
C2188 C2189 1.399 . S
C2188 C2193 1.399 . S
C2189 C2188 1.399 . S
C2189 C2190 1.376 . S
C2190 H2177 0.930 . S
C2190 C2189 1.376 . S
C2190 C2191 1.388 . S
C2191 H2178 0.930 . S
C2191 C2190 1.388 . S
C2191 C2192 1.390 . S
C2192 C2191 1.390 . S
C2192 C2193 1.394 . S
C2192 C2198 1.465 . S
C2193 C2188 1.399 . S
C2193 C2192 1.394 . S
C2193 C2194 1.516 . S
C2194 C2193 1.516 . S
C2194 C2195 1.502 . S
C2194 C2196 1.561 . S
C2194 C2197 1.526 . S
C2195 H2179 0.959 . S
C2195 H2180 0.959 . S
C2195 H2181 0.961 . S
C2195 C2194 1.502 . S
C2196 H2182 0.960 . S
C2196 H2183 0.961 . S
C2196 H2184 0.959 . S
C2196 C2194 1.561 . S
C2197 C2194 1.526 . S
C2197 C2198 1.396 . S
C2197 C2202 1.390 . S
C2198 C2192 1.465 . S
C2198 C2197 1.396 . S
C2198 C2199 1.399 . S
C2199 H2185 0.929 . S
C2199 C2198 1.399 . S
C2199 C2200 1.385 . S
C2200 H2186 0.931 . S
C2200 C2199 1.385 . S
C2200 C2201 1.389 . S
C2201 C2200 1.389 . S
C2201 C2202 1.387 . S
C2202 H2187 0.930 . S
C2202 C2197 1.390 . S
C2202 C2201 1.387 . S
H2203 C2215 0.930 . S
H2204 C2217 0.930 . S
H2205 C2218 0.930 . S
H2206 C2222 0.959 . S
H2207 C2222 0.959 . S
H2208 C2222 0.961 . S
H2209 C2223 0.960 . S
H2210 C2223 0.961 . S
H2211 C2223 0.959 . S
H2212 C2226 0.929 . S
H2213 C2227 0.931 . S
H2214 C2229 0.930 . S
C2215 H2203 0.930 . S
C2215 C2216 1.399 . S
C2215 C2220 1.399 . S
C2216 C2215 1.399 . S
C2216 C2217 1.376 . S
C2217 H2204 0.930 . S
C2217 C2216 1.376 . S
C2217 C2218 1.388 . S
C2218 H2205 0.930 . S
C2218 C2217 1.388 . S
C2218 C2219 1.390 . S
C2219 C2218 1.390 . S
C2219 C2220 1.394 . S
C2219 C2225 1.465 . S
C2220 C2215 1.399 . S
C2220 C2219 1.394 . S
C2220 C2221 1.516 . S
C2221 C2220 1.516 . S
C2221 C2222 1.502 . S
C2221 C2223 1.561 . S
C2221 C2224 1.526 . S
C2222 H2206 0.959 . S
C2222 H2207 0.959 . S
C2222 H2208 0.961 . S
C2222 C2221 1.502 . S
C2223 H2209 0.960 . S
C2223 H2210 0.961 . S
C2223 H2211 0.959 . S
C2223 C2221 1.561 . S
C2224 C2221 1.526 . S
C2224 C2225 1.396 . S
C2224 C2229 1.390 . S
C2225 C2219 1.465 . S
C2225 C2224 1.396 . S
C2225 C2226 1.399 . S
C2226 H2212 0.929 . S
C2226 C2225 1.399 . S
C2226 C2227 1.385 . S
C2227 H2213 0.931 . S
C2227 C2226 1.385 . S
C2227 C2228 1.389 . S
C2228 C2227 1.389 . S
C2228 C2229 1.387 . S
C2229 H2214 0.930 . S
C2229 C2224 1.390 . S
C2229 C2228 1.387 . S
H2230 C2242 0.930 . S
H2231 C2244 0.930 . S
H2232 C2245 0.930 . S
H2233 C2249 0.959 . S
H2234 C2249 0.959 . S
H2235 C2249 0.961 . S
H2236 C2250 0.960 . S
H2237 C2250 0.961 . S
H2238 C2250 0.959 . S
H2239 C2253 0.929 . S
H2240 C2254 0.931 . S
H2241 C2256 0.930 . S
C2242 H2230 0.930 . S
C2242 C2243 1.399 . S
C2242 C2247 1.399 . S
C2243 C2242 1.399 . S
C2243 C2244 1.376 . S
C2244 H2231 0.930 . S
C2244 C2243 1.376 . S
C2244 C2245 1.388 . S
C2245 H2232 0.930 . S
C2245 C2244 1.388 . S
C2245 C2246 1.390 . S
C2246 C2245 1.390 . S
C2246 C2247 1.394 . S
C2246 C2252 1.465 . S
C2247 C2242 1.399 . S
C2247 C2246 1.394 . S
C2247 C2248 1.516 . S
C2248 C2247 1.516 . S
C2248 C2249 1.502 . S
C2248 C2250 1.561 . S
C2248 C2251 1.526 . S
C2249 H2233 0.959 . S
C2249 H2234 0.959 . S
C2249 H2235 0.961 . S
C2249 C2248 1.502 . S
C2250 H2236 0.960 . S
C2250 H2237 0.961 . S
C2250 H2238 0.959 . S
C2250 C2248 1.561 . S
C2251 C2248 1.526 . S
C2251 C2252 1.396 . S
C2251 C2256 1.390 . S
C2252 C2246 1.465 . S
C2252 C2251 1.396 . S
C2252 C2253 1.399 . S
C2253 H2239 0.929 . S
C2253 C2252 1.399 . S
C2253 C2254 1.385 . S
C2254 H2240 0.931 . S
C2254 C2253 1.385 . S
C2254 C2255 1.389 . S
C2255 C2254 1.389 . S
C2255 C2256 1.387 . S
C2256 H2241 0.930 . S
C2256 C2251 1.390 . S
C2256 C2255 1.387 . S
H2257 C2269 0.930 . S
H2258 C2271 0.930 . S
H2259 C2272 0.930 . S
H2260 C2276 0.959 . S
H2261 C2276 0.959 . S
H2262 C2276 0.961 . S
H2263 C2277 0.960 . S
H2264 C2277 0.961 . S
H2265 C2277 0.959 . S
H2266 C2280 0.929 . S
H2267 C2281 0.931 . S
H2268 C2283 0.930 . S
C2269 H2257 0.930 . S
C2269 C2270 1.399 . S
C2269 C2274 1.399 . S
C2270 C2269 1.399 . S
C2270 C2271 1.376 . S
C2271 H2258 0.930 . S
C2271 C2270 1.376 . S
C2271 C2272 1.388 . S
C2272 H2259 0.930 . S
C2272 C2271 1.388 . S
C2272 C2273 1.390 . S
C2273 C2272 1.390 . S
C2273 C2274 1.394 . S
C2273 C2279 1.465 . S
C2274 C2269 1.399 . S
C2274 C2273 1.394 . S
C2274 C2275 1.516 . S
C2275 C2274 1.516 . S
C2275 C2276 1.502 . S
C2275 C2277 1.561 . S
C2275 C2278 1.526 . S
C2276 H2260 0.959 . S
C2276 H2261 0.959 . S
C2276 H2262 0.961 . S
C2276 C2275 1.502 . S
C2277 H2263 0.960 . S
C2277 H2264 0.961 . S
C2277 H2265 0.959 . S
C2277 C2275 1.561 . S
C2278 C2275 1.526 . S
C2278 C2279 1.396 . S
C2278 C2283 1.390 . S
C2279 C2273 1.465 . S
C2279 C2278 1.396 . S
C2279 C2280 1.399 . S
C2280 H2266 0.929 . S
C2280 C2279 1.399 . S
C2280 C2281 1.385 . S
C2281 H2267 0.931 . S
C2281 C2280 1.385 . S
C2281 C2282 1.389 . S
C2282 C2281 1.389 . S
C2282 C2283 1.387 . S
C2283 H2268 0.930 . S
C2283 C2278 1.390 . S
C2283 C2282 1.387 . S
H2284 C2296 0.930 . S
H2285 C2298 0.930 . S
H2286 C2299 0.930 . S
H2287 C2303 0.959 . S
H2288 C2303 0.959 . S
H2289 C2303 0.961 . S
H2290 C2304 0.960 . S
H2291 C2304 0.961 . S
H2292 C2304 0.959 . S
H2293 C2307 0.929 . S
H2294 C2308 0.931 . S
H2295 C2310 0.930 . S
C2296 H2284 0.930 . S
C2296 C2297 1.399 . S
C2296 C2301 1.399 . S
C2297 C2296 1.399 . S
C2297 C2298 1.376 . S
C2298 H2285 0.930 . S
C2298 C2297 1.376 . S
C2298 C2299 1.388 . S
C2299 H2286 0.930 . S
C2299 C2298 1.388 . S
C2299 C2300 1.390 . S
C2300 C2299 1.390 . S
C2300 C2301 1.394 . S
C2300 C2306 1.465 . S
C2301 C2296 1.399 . S
C2301 C2300 1.394 . S
C2301 C2302 1.516 . S
C2302 C2301 1.516 . S
C2302 C2303 1.502 . S
C2302 C2304 1.561 . S
C2302 C2305 1.526 . S
C2303 H2287 0.959 . S
C2303 H2288 0.959 . S
C2303 H2289 0.961 . S
C2303 C2302 1.502 . S
C2304 H2290 0.960 . S
C2304 H2291 0.961 . S
C2304 H2292 0.959 . S
C2304 C2302 1.561 . S
C2305 C2302 1.526 . S
C2305 C2306 1.396 . S
C2305 C2310 1.390 . S
C2306 C2300 1.465 . S
C2306 C2305 1.396 . S
C2306 C2307 1.399 . S
C2307 H2293 0.929 . S
C2307 C2306 1.399 . S
C2307 C2308 1.385 . S
C2308 H2294 0.931 . S
C2308 C2307 1.385 . S
C2308 C2309 1.389 . S
C2309 C2308 1.389 . S
C2309 C2310 1.387 . S
C2310 H2295 0.930 . S
C2310 C2305 1.390 . S
C2310 C2309 1.387 . S
H2311 C2323 0.930 1_455 S
H2312 C2325 0.930 . S
H2313 C2326 0.930 . S
H2314 C2330 0.959 . S
H2315 C2330 0.959 . S
H2316 C2330 0.961 . S
H2317 C2331 0.960 . S
H2318 C2331 0.961 . S
H2319 C2331 0.959 . S
H2320 C2334 0.929 . S
H2321 C2335 0.931 . S
H2322 C2337 0.930 . S
C2323 H2311 0.930 1_655 S
C2323 C2324 1.402 . S
C2323 C2328 1.399 . S
C2324 C2323 1.402 . S
C2324 C2325 1.383 . S
C2325 H2312 0.930 . S
C2325 C2324 1.383 . S
C2325 C2326 1.388 . S
C2326 H2313 0.930 . S
C2326 C2325 1.388 . S
C2326 C2327 1.390 . S
C2327 C2326 1.390 . S
C2327 C2328 1.394 . S
C2327 C2333 1.465 . S
C2328 C2323 1.399 . S
C2328 C2327 1.394 . S
C2328 C2329 1.516 . S
C2329 C2328 1.516 . S
C2329 C2330 1.502 . S
C2329 C2331 1.561 . S
C2329 C2332 1.526 . S
C2330 H2314 0.959 . S
C2330 H2315 0.959 . S
C2330 H2316 0.961 . S
C2330 C2329 1.502 . S
C2331 H2317 0.960 . S
C2331 H2318 0.961 . S
C2331 H2319 0.959 . S
C2331 C2329 1.561 . S
C2332 C2329 1.526 . S
C2332 C2333 1.396 . S
C2332 C2337 1.390 . S
C2333 C2327 1.465 . S
C2333 C2332 1.396 . S
C2333 C2334 1.399 . S
C2334 H2320 0.929 . S
C2334 C2333 1.399 . S
C2334 C2335 1.385 . S
C2335 H2321 0.931 . S
C2335 C2334 1.385 . S
C2335 C2336 1.389 . S
C2336 C2335 1.389 . S
C2336 C2337 1.387 . S
C2337 H2322 0.930 . S
C2337 C2332 1.390 . S
C2337 C2336 1.387 . S
H2338 C2350 0.930 . S
H2339 C2352 0.930 . S
H2340 C2353 0.930 . S
H2341 C2357 0.959 . S
H2342 C2357 0.959 . S
H2343 C2357 0.961 . S
H2344 C2358 0.960 . S
H2345 C2358 0.961 . S
H2346 C2358 0.958 . S
H2347 C2361 0.929 . S
H2348 C2362 0.931 . S
H2349 C2364 0.930 . S
C2350 H2338 0.930 . S
C2350 C2351 1.399 . S
C2350 C2355 1.399 . S
C2351 C2350 1.399 . S
C2351 C2352 1.376 . S
C2352 H2339 0.930 . S
C2352 C2351 1.376 . S
C2352 C2353 1.388 . S
C2353 H2340 0.930 . S
C2353 C2352 1.388 . S
C2353 C2354 1.390 . S
C2354 C2353 1.390 . S
C2354 C2355 1.394 . S
C2354 C2360 1.465 . S
C2355 C2350 1.399 . S
C2355 C2354 1.394 . S
C2355 C2356 1.516 . S
C2356 C2355 1.516 . S
C2356 C2357 1.502 . S
C2356 C2358 1.561 . S
C2356 C2359 1.526 . S
C2357 H2341 0.959 . S
C2357 H2342 0.959 . S
C2357 H2343 0.961 . S
C2357 C2356 1.502 . S
C2358 H2344 0.960 . S
C2358 H2345 0.961 . S
C2358 H2346 0.958 . S
C2358 C2356 1.561 . S
C2359 C2356 1.526 . S
C2359 C2360 1.396 . S
C2359 C2364 1.390 . S
C2360 C2354 1.465 . S
C2360 C2359 1.396 . S
C2360 C2361 1.399 . S
C2361 H2347 0.929 . S
C2361 C2360 1.399 . S
C2361 C2362 1.385 . S
C2362 H2348 0.931 . S
C2362 C2361 1.385 . S
C2362 C2363 1.389 . S
C2363 C2362 1.389 . S
C2363 C2364 1.387 . S
C2364 H2349 0.930 . S
C2364 C2359 1.390 . S
C2364 C2363 1.387 . S
H2365 C2377 0.930 . S
H2366 C2379 0.930 . S
H2367 C2380 0.930 . S
H2368 C2384 0.959 . S
H2369 C2384 0.959 . S
H2370 C2384 0.961 . S
H2371 C2385 0.960 . S
H2372 C2385 0.961 . S
H2373 C2385 0.959 . S
H2374 C2388 0.929 . S
H2375 C2389 0.931 . S
H2376 C2391 0.930 . S
C2377 H2365 0.930 . S
C2377 C2378 1.399 . S
C2377 C2382 1.399 . S
C2378 C2377 1.399 . S
C2378 C2379 1.376 . S
C2379 H2366 0.930 . S
C2379 C2378 1.376 . S
C2379 C2380 1.388 . S
C2380 H2367 0.930 . S
C2380 C2379 1.388 . S
C2380 C2381 1.390 . S
C2381 C2380 1.390 . S
C2381 C2382 1.394 . S
C2381 C2387 1.465 . S
C2382 C2377 1.399 . S
C2382 C2381 1.394 . S
C2382 C2383 1.516 . S
C2383 C2382 1.516 . S
C2383 C2384 1.502 . S
C2383 C2385 1.561 . S
C2383 C2386 1.526 . S
C2384 H2368 0.959 . S
C2384 H2369 0.959 . S
C2384 H2370 0.961 . S
C2384 C2383 1.502 . S
C2385 H2371 0.960 . S
C2385 H2372 0.961 . S
C2385 H2373 0.959 . S
C2385 C2383 1.561 . S
C2386 C2383 1.526 . S
C2386 C2387 1.396 . S
C2386 C2391 1.390 . S
C2387 C2381 1.465 . S
C2387 C2386 1.396 . S
C2387 C2388 1.399 . S
C2388 H2374 0.929 . S
C2388 C2387 1.399 . S
C2388 C2389 1.385 . S
C2389 H2375 0.931 . S
C2389 C2388 1.385 . S
C2389 C2390 1.389 . S
C2390 C2389 1.389 . S
C2390 C2391 1.387 . S
C2391 H2376 0.930 . S
C2391 C2386 1.390 . S
C2391 C2390 1.387 . S
H2392 C2404 0.930 . S
H2393 C2406 0.930 . S
H2394 C2407 0.930 . S
H2395 C2411 0.959 . S
H2396 C2411 0.959 . S
H2397 C2411 0.961 . S
H2398 C2412 0.960 . S
H2399 C2412 0.961 . S
H2400 C2412 0.959 . S
H2401 C2415 0.929 . S
H2402 C2416 0.931 . S
H2403 C2418 0.930 . S
C2404 H2392 0.930 . S
C2404 C2405 1.399 . S
C2404 C2409 1.399 . S
C2405 C2404 1.399 . S
C2405 C2406 1.376 . S
C2406 H2393 0.930 . S
C2406 C2405 1.376 . S
C2406 C2407 1.388 . S
C2407 H2394 0.930 . S
C2407 C2406 1.388 . S
C2407 C2408 1.390 . S
C2408 C2407 1.390 . S
C2408 C2409 1.394 . S
C2408 C2414 1.465 . S
C2409 C2404 1.399 . S
C2409 C2408 1.394 . S
C2409 C2410 1.516 . S
C2410 C2409 1.516 . S
C2410 C2411 1.502 . S
C2410 C2412 1.561 . S
C2410 C2413 1.526 . S
C2411 H2395 0.959 . S
C2411 H2396 0.959 . S
C2411 H2397 0.961 . S
C2411 C2410 1.502 . S
C2412 H2398 0.960 . S
C2412 H2399 0.961 . S
C2412 H2400 0.959 . S
C2412 C2410 1.561 . S
C2413 C2410 1.526 . S
C2413 C2414 1.396 . S
C2413 C2418 1.390 . S
C2414 C2408 1.465 . S
C2414 C2413 1.396 . S
C2414 C2415 1.399 . S
C2415 H2401 0.929 . S
C2415 C2414 1.399 . S
C2415 C2416 1.385 . S
C2416 H2402 0.931 . S
C2416 C2415 1.385 . S
C2416 C2417 1.389 . S
C2417 C2416 1.389 . S
C2417 C2418 1.387 . S
C2418 H2403 0.930 . S
C2418 C2413 1.390 . S
C2418 C2417 1.387 . S
H2419 C2431 0.930 . S
H2420 C2433 0.930 1_554 S
H2421 C2434 0.930 . S
H2422 C2438 0.959 . S
H2423 C2438 0.959 . S
H2424 C2438 0.961 . S
H2425 C2439 0.960 . S
H2426 C2439 0.961 . S
H2427 C2439 0.959 . S
H2428 C2442 0.929 . S
H2429 C2443 0.931 . S
H2430 C2445 0.930 . S
C2431 H2419 0.930 . S
C2431 C2432 1.399 . S
C2431 C2436 1.399 . S
C2432 C2431 1.399 . S
C2432 C2433 1.376 . S
C2433 H2420 0.930 1_556 S
C2433 C2432 1.376 . S
C2433 C2434 1.388 . S
C2434 H2421 0.930 . S
C2434 C2433 1.388 . S
C2434 C2435 1.390 . S
C2435 C2434 1.390 . S
C2435 C2436 1.394 . S
C2435 C2441 1.465 . S
C2436 C2431 1.399 . S
C2436 C2435 1.394 . S
C2436 C2437 1.516 . S
C2437 C2436 1.516 . S
C2437 C2438 1.502 . S
C2437 C2439 1.561 . S
C2437 C2440 1.526 . S
C2438 H2422 0.959 . S
C2438 H2423 0.959 . S
C2438 H2424 0.961 . S
C2438 C2437 1.502 . S
C2439 H2425 0.960 . S
C2439 H2426 0.961 . S
C2439 H2427 0.959 . S
C2439 C2437 1.561 . S
C2440 C2437 1.526 . S
C2440 C2441 1.396 . S
C2440 C2445 1.390 . S
C2441 C2435 1.465 . S
C2441 C2440 1.396 . S
C2441 C2442 1.399 . S
C2442 H2428 0.929 . S
C2442 C2441 1.399 . S
C2442 C2443 1.385 . S
C2443 H2429 0.931 . S
C2443 C2442 1.385 . S
C2443 C2444 1.389 . S
C2444 C2443 1.389 . S
C2444 C2445 1.387 . S
C2445 H2430 0.930 . S
C2445 C2440 1.390 . S
C2445 C2444 1.387 . S
H2446 C2458 0.930 . S
H2447 C2460 0.930 . S
H2448 C2461 0.930 . S
H2449 C2465 0.959 . S
H2450 C2465 0.959 . S
H2451 C2465 0.961 . S
H2452 C2466 0.960 . S
H2453 C2466 0.961 . S
H2454 C2466 0.959 . S
H2455 C2469 0.929 . S
H2456 C2470 0.931 . S
H2457 C2472 0.930 . S
C2458 H2446 0.930 . S
C2458 C2459 1.399 . S
C2458 C2463 1.399 . S
C2459 C2458 1.399 . S
C2459 C2460 1.376 . S
C2460 H2447 0.930 . S
C2460 C2459 1.376 . S
C2460 C2461 1.388 . S
C2461 H2448 0.930 . S
C2461 C2460 1.388 . S
C2461 C2462 1.390 . S
C2462 C2461 1.390 . S
C2462 C2463 1.394 . S
C2462 C2468 1.465 . S
C2463 C2458 1.399 . S
C2463 C2462 1.394 . S
C2463 C2464 1.516 . S
C2464 C2463 1.516 . S
C2464 C2465 1.502 . S
C2464 C2466 1.561 . S
C2464 C2467 1.526 . S
C2465 H2449 0.959 . S
C2465 H2450 0.959 . S
C2465 H2451 0.961 . S
C2465 C2464 1.502 . S
C2466 H2452 0.960 . S
C2466 H2453 0.961 . S
C2466 H2454 0.959 . S
C2466 C2464 1.561 . S
C2467 C2464 1.526 . S
C2467 C2468 1.396 . S
C2467 C2472 1.390 . S
C2468 C2462 1.465 . S
C2468 C2467 1.396 . S
C2468 C2469 1.399 . S
C2469 H2455 0.929 . S
C2469 C2468 1.399 . S
C2469 C2470 1.385 . S
C2470 H2456 0.931 . S
C2470 C2469 1.385 . S
C2470 C2471 1.385 1_655 S
C2471 C2470 1.385 1_455 S
C2471 C2472 1.382 1_455 S
C2472 H2457 0.930 . S
C2472 C2467 1.390 . S
C2472 C2471 1.382 1_655 S
H2473 C2485 0.930 . S
H2474 C2487 0.930 . S
H2475 C2488 0.930 . S
H2476 C2492 0.959 . S
H2477 C2492 0.959 . S
H2478 C2492 0.961 . S
H2479 C2493 0.960 . S
H2480 C2493 0.961 . S
H2481 C2493 0.959 . S
H2482 C2496 0.929 . S
H2483 C2497 0.931 . S
H2484 C2499 0.930 . S
C2485 H2473 0.930 . S
C2485 C2486 1.399 . S
C2485 C2490 1.399 . S
C2486 C2485 1.399 . S
C2486 C2487 1.376 . S
C2487 H2474 0.930 . S
C2487 C2486 1.376 . S
C2487 C2488 1.388 . S
C2488 H2475 0.930 . S
C2488 C2487 1.388 . S
C2488 C2489 1.390 . S
C2489 C2488 1.390 . S
C2489 C2490 1.394 . S
C2489 C2495 1.465 . S
C2490 C2485 1.399 . S
C2490 C2489 1.394 . S
C2490 C2491 1.516 . S
C2491 C2490 1.516 . S
C2491 C2492 1.502 . S
C2491 C2493 1.561 . S
C2491 C2494 1.526 . S
C2492 H2476 0.959 . S
C2492 H2477 0.959 . S
C2492 H2478 0.961 . S
C2492 C2491 1.502 . S
C2493 H2479 0.960 . S
C2493 H2480 0.961 . S
C2493 H2481 0.959 . S
C2493 C2491 1.561 . S
C2494 C2491 1.526 . S
C2494 C2495 1.396 . S
C2494 C2499 1.390 . S
C2495 C2489 1.465 . S
C2495 C2494 1.396 . S
C2495 C2496 1.399 . S
C2496 H2482 0.929 . S
C2496 C2495 1.399 . S
C2496 C2497 1.385 . S
C2497 H2483 0.931 . S
C2497 C2496 1.385 . S
C2497 C2498 1.389 . S
C2498 C2497 1.389 . S
C2498 C2499 1.387 . S
C2499 H2484 0.930 . S
C2499 C2494 1.390 . S
C2499 C2498 1.387 . S
H2500 C2512 0.930 . S
H2501 C2514 0.930 . S
H2502 C2515 0.930 . S
H2503 C2519 0.959 . S
H2504 C2519 0.959 . S
H2505 C2519 0.961 . S
H2506 C2520 0.960 . S
H2507 C2520 0.961 . S
H2508 C2520 0.959 . S
H2509 C2523 0.929 . S
H2510 C2524 0.931 . S
H2511 C2526 0.930 . S
C2512 H2500 0.930 . S
C2512 C2513 1.399 . S
C2512 C2517 1.399 . S
C2513 C2512 1.399 . S
C2513 C2514 1.376 . S
C2514 H2501 0.930 . S
C2514 C2513 1.376 . S
C2514 C2515 1.388 . S
C2515 H2502 0.930 . S
C2515 C2514 1.388 . S
C2515 C2516 1.390 . S
C2516 C2515 1.390 . S
C2516 C2517 1.394 . S
C2516 C2522 1.465 . S
C2517 C2512 1.399 . S
C2517 C2516 1.394 . S
C2517 C2518 1.516 . S
C2518 C2517 1.516 . S
C2518 C2519 1.502 . S
C2518 C2520 1.561 . S
C2518 C2521 1.526 . S
C2519 H2503 0.959 . S
C2519 H2504 0.959 . S
C2519 H2505 0.961 . S
C2519 C2518 1.502 . S
C2520 H2506 0.960 . S
C2520 H2507 0.961 . S
C2520 H2508 0.959 . S
C2520 C2518 1.561 . S
C2521 C2518 1.526 . S
C2521 C2522 1.396 . S
C2521 C2526 1.390 . S
C2522 C2516 1.465 . S
C2522 C2521 1.396 . S
C2522 C2523 1.399 . S
C2523 H2509 0.929 . S
C2523 C2522 1.399 . S
C2523 C2524 1.385 . S
C2524 H2510 0.931 . S
C2524 C2523 1.385 . S
C2524 C2525 1.389 . S
C2525 C2524 1.389 . S
C2525 C2526 1.387 . S
C2526 H2511 0.930 . S
C2526 C2521 1.390 . S
C2526 C2525 1.387 . S
H2527 C2539 0.930 . S
H2528 C2541 0.930 . S
H2529 C2542 0.930 . S
H2530 C2546 0.959 . S
H2531 C2546 0.959 . S
H2532 C2546 0.961 . S
H2533 C2547 0.960 . S
H2534 C2547 0.961 . S
H2535 C2547 0.959 . S
H2536 C2550 0.929 . S
H2537 C2551 0.931 . S
H2538 C2553 0.930 . S
C2539 H2527 0.930 . S
C2539 C2540 1.399 . S
C2539 C2544 1.399 . S
C2540 C2539 1.399 . S
C2540 C2541 1.376 . S
C2541 H2528 0.930 . S
C2541 C2540 1.376 . S
C2541 C2542 1.388 . S
C2542 H2529 0.930 . S
C2542 C2541 1.388 . S
C2542 C2543 1.390 . S
C2543 C2542 1.390 . S
C2543 C2544 1.394 . S
C2543 C2549 1.465 . S
C2544 C2539 1.399 . S
C2544 C2543 1.394 . S
C2544 C2545 1.516 . S
C2545 C2544 1.516 . S
C2545 C2546 1.502 . S
C2545 C2547 1.561 . S
C2545 C2548 1.526 . S
C2546 H2530 0.959 . S
C2546 H2531 0.959 . S
C2546 H2532 0.961 . S
C2546 C2545 1.502 . S
C2547 H2533 0.960 . S
C2547 H2534 0.961 . S
C2547 H2535 0.959 . S
C2547 C2545 1.561 . S
C2548 C2545 1.526 . S
C2548 C2549 1.396 . S
C2548 C2553 1.390 . S
C2549 C2543 1.465 . S
C2549 C2548 1.396 . S
C2549 C2550 1.399 . S
C2550 H2536 0.929 . S
C2550 C2549 1.399 . S
C2550 C2551 1.385 . S
C2551 H2537 0.931 . S
C2551 C2550 1.385 . S
C2551 C2552 1.389 . S
C2552 C2551 1.389 . S
C2552 C2553 1.387 . S
C2553 H2538 0.930 . S
C2553 C2548 1.390 . S
C2553 C2552 1.387 . S
H2554 C2566 0.930 . S
H2555 C2568 0.930 . S
H2556 C2569 0.930 . S
H2557 C2573 0.959 . S
H2558 C2573 0.959 . S
H2559 C2573 0.961 . S
H2560 C2574 0.960 . S
H2561 C2574 0.961 . S
H2562 C2574 0.959 . S
H2563 C2577 0.929 . S
H2564 C2578 0.931 1_455 S
H2565 C2580 0.930 . S
C2566 H2554 0.930 . S
C2566 C2567 1.399 . S
C2566 C2571 1.399 . S
C2567 C2566 1.399 . S
C2567 C2568 1.376 . S
C2568 H2555 0.930 . S
C2568 C2567 1.376 . S
C2568 C2569 1.388 . S
C2569 H2556 0.930 . S
C2569 C2568 1.388 . S
C2569 C2570 1.390 . S
C2570 C2569 1.390 . S
C2570 C2571 1.394 . S
C2570 C2576 1.465 . S
C2571 C2566 1.399 . S
C2571 C2570 1.394 . S
C2571 C2572 1.516 . S
C2572 C2571 1.516 . S
C2572 C2573 1.502 . S
C2572 C2574 1.561 . S
C2572 C2575 1.526 . S
C2573 H2557 0.959 . S
C2573 H2558 0.959 . S
C2573 H2559 0.961 . S
C2573 C2572 1.502 . S
C2574 H2560 0.960 . S
C2574 H2561 0.961 . S
C2574 H2562 0.959 . S
C2574 C2572 1.561 . S
C2575 C2572 1.526 . S
C2575 C2576 1.396 . S
C2575 C2580 1.390 . S
C2576 C2570 1.465 . S
C2576 C2575 1.396 . S
C2576 C2577 1.399 . S
C2577 H2563 0.929 . S
C2577 C2576 1.399 . S
C2577 C2578 1.385 . S
C2578 H2564 0.931 1_655 S
C2578 C2577 1.385 . S
C2578 C2579 1.389 . S
C2579 C2578 1.389 . S
C2579 C2580 1.387 . S
C2580 H2565 0.930 . S
C2580 C2575 1.390 . S
C2580 C2579 1.387 . S
H2581 C2593 0.930 . S
H2582 C2595 0.930 . S
H2583 C2596 0.930 . S
H2584 C2600 0.959 . S
H2585 C2600 0.959 . S
H2586 C2600 0.961 . S
H2587 C2601 0.960 . S
H2588 C2601 0.961 . S
H2589 C2601 0.959 . S
H2590 C2604 0.929 . S
H2591 C2605 0.931 . S
H2592 C2607 0.930 . S
C2593 H2581 0.930 . S
C2593 C2594 1.399 . S
C2593 C2598 1.399 . S
C2594 C2593 1.399 . S
C2594 C2595 1.376 . S
C2595 H2582 0.930 . S
C2595 C2594 1.376 . S
C2595 C2596 1.388 . S
C2596 H2583 0.930 . S
C2596 C2595 1.388 . S
C2596 C2597 1.390 . S
C2597 C2596 1.390 . S
C2597 C2598 1.394 . S
C2597 C2603 1.465 . S
C2598 C2593 1.399 . S
C2598 C2597 1.394 . S
C2598 C2599 1.516 . S
C2599 C2598 1.516 . S
C2599 C2600 1.502 . S
C2599 C2601 1.561 . S
C2599 C2602 1.526 . S
C2600 H2584 0.959 . S
C2600 H2585 0.959 . S
C2600 H2586 0.961 . S
C2600 C2599 1.502 . S
C2601 H2587 0.960 . S
C2601 H2588 0.961 . S
C2601 H2589 0.959 . S
C2601 C2599 1.561 . S
C2602 C2599 1.526 . S
C2602 C2603 1.396 . S
C2602 C2607 1.390 . S
C2603 C2597 1.465 . S
C2603 C2602 1.396 . S
C2603 C2604 1.399 . S
C2604 H2590 0.929 . S
C2604 C2603 1.399 . S
C2604 C2605 1.385 . S
C2605 H2591 0.931 . S
C2605 C2604 1.385 . S
C2605 C2606 1.389 . S
C2606 C2605 1.389 . S
C2606 C2607 1.387 . S
C2607 H2592 0.930 . S
C2607 C2602 1.390 . S
C2607 C2606 1.387 . S
H2608 C2620 0.930 . S
H2609 C2622 0.930 . S
H2610 C2623 0.930 . S
H2611 C2627 0.959 . S
H2612 C2627 0.959 . S
H2613 C2627 0.961 . S
H2614 C2628 0.960 . S
H2615 C2628 0.961 . S
H2616 C2628 0.959 . S
H2617 C2631 0.929 . S
H2618 C2632 0.931 . S
H2619 C2634 0.930 . S
C2620 H2608 0.930 . S
C2620 C2621 1.399 . S
C2620 C2625 1.399 . S
C2621 C2620 1.399 . S
C2621 C2622 1.376 . S
C2622 H2609 0.930 . S
C2622 C2621 1.376 . S
C2622 C2623 1.388 . S
C2623 H2610 0.930 . S
C2623 C2622 1.388 . S
C2623 C2624 1.390 . S
C2624 C2623 1.390 . S
C2624 C2625 1.394 . S
C2624 C2630 1.465 . S
C2625 C2620 1.399 . S
C2625 C2624 1.394 . S
C2625 C2626 1.516 . S
C2626 C2625 1.516 . S
C2626 C2627 1.502 . S
C2626 C2628 1.561 . S
C2626 C2629 1.526 . S
C2627 H2611 0.959 . S
C2627 H2612 0.959 . S
C2627 H2613 0.961 . S
C2627 C2626 1.502 . S
C2628 H2614 0.960 . S
C2628 H2615 0.961 . S
C2628 H2616 0.959 . S
C2628 C2626 1.561 . S
C2629 C2626 1.526 . S
C2629 C2630 1.396 . S
C2629 C2634 1.390 . S
C2630 C2624 1.465 . S
C2630 C2629 1.396 . S
C2630 C2631 1.399 . S
C2631 H2617 0.929 . S
C2631 C2630 1.399 . S
C2631 C2632 1.385 . S
C2632 H2618 0.931 . S
C2632 C2631 1.385 . S
C2632 C2633 1.389 . S
C2633 C2632 1.389 . S
C2633 C2634 1.387 . S
C2634 H2619 0.930 . S
C2634 C2629 1.390 . S
C2634 C2633 1.387 . S
H2635 C2647 0.930 . S
H2636 C2649 0.930 . S
H2637 C2650 0.930 . S
H2638 C2654 0.959 . S
H2639 C2654 0.959 . S
H2640 C2654 0.961 . S
H2641 C2655 0.960 . S
H2642 C2655 0.961 . S
H2643 C2655 0.992 . S
H2644 C2658 0.929 . S
H2645 C2659 0.931 . S
H2646 C2661 0.930 . S
C2647 H2635 0.930 . S
C2647 C2648 1.399 . S
C2647 C2652 1.399 . S
C2648 C2647 1.399 . S
C2648 C2649 1.376 . S
C2649 H2636 0.930 . S
C2649 C2648 1.376 . S
C2649 C2650 1.388 . S
C2650 H2637 0.930 . S
C2650 C2649 1.388 . S
C2650 C2651 1.390 . S
C2651 C2650 1.390 . S
C2651 C2652 1.394 . S
C2651 C2657 1.465 . S
C2652 C2647 1.399 . S
C2652 C2651 1.394 . S
C2652 C2653 1.516 . S
C2653 C2652 1.516 . S
C2653 C2654 1.502 . S
C2653 C2655 1.561 . S
C2653 C2656 1.526 . S
C2654 H2638 0.959 . S
C2654 H2639 0.959 . S
C2654 H2640 0.961 . S
C2654 C2653 1.502 . S
C2655 H2641 0.960 . S
C2655 H2642 0.961 . S
C2655 H2643 0.992 . S
C2655 C2653 1.561 . S
C2656 C2653 1.526 . S
C2656 C2657 1.396 . S
C2656 C2661 1.390 . S
C2657 C2651 1.465 . S
C2657 C2656 1.396 . S
C2657 C2658 1.399 . S
C2658 H2644 0.929 . S
C2658 C2657 1.399 . S
C2658 C2659 1.385 . S
C2659 H2645 0.931 . S
C2659 C2658 1.385 . S
C2659 C2660 1.389 . S
C2660 C2659 1.389 . S
C2660 C2661 1.387 . S
C2661 H2646 0.930 . S
C2661 C2656 1.390 . S
C2661 C2660 1.387 . S
H2662 C2674 0.930 . S
H2663 C2676 0.930 . S
H2664 C2677 0.930 . S
H2665 C2681 0.959 . S
H2666 C2681 0.959 . S
H2667 C2681 0.961 . S
H2668 C2682 0.960 . S
H2669 C2682 0.961 . S
H2670 C2682 0.959 . S
H2671 C2685 0.929 . S
H2672 C2686 0.931 . S
H2673 C2688 0.930 . S
C2674 H2662 0.930 . S
C2674 C2675 1.399 . S
C2674 C2679 1.399 . S
C2675 C2674 1.399 . S
C2675 C2676 1.376 . S
C2676 H2663 0.930 . S
C2676 C2675 1.376 . S
C2676 C2677 1.388 . S
C2677 H2664 0.930 . S
C2677 C2676 1.388 . S
C2677 C2678 1.390 . S
C2678 C2677 1.390 . S
C2678 C2679 1.394 . S
C2678 C2684 1.465 . S
C2679 C2674 1.399 . S
C2679 C2678 1.394 . S
C2679 C2680 1.516 . S
C2680 C2679 1.516 . S
C2680 C2681 1.502 . S
C2680 C2682 1.561 . S
C2680 C2683 1.526 . S
C2681 H2665 0.959 . S
C2681 H2666 0.959 . S
C2681 H2667 0.961 . S
C2681 C2680 1.502 . S
C2682 H2668 0.960 . S
C2682 H2669 0.961 . S
C2682 H2670 0.959 . S
C2682 C2680 1.561 . S
C2683 C2680 1.526 . S
C2683 C2684 1.396 . S
C2683 C2688 1.390 . S
C2684 C2678 1.465 . S
C2684 C2683 1.396 . S
C2684 C2685 1.399 . S
C2685 H2671 0.929 . S
C2685 C2684 1.399 . S
C2685 C2686 1.385 . S
C2686 H2672 0.931 . S
C2686 C2685 1.385 . S
C2686 C2687 1.389 . S
C2687 C2686 1.389 . S
C2687 C2688 1.387 . S
C2688 H2673 0.930 . S
C2688 C2683 1.390 . S
C2688 C2687 1.387 . S
H2689 C2701 0.930 . S
H2690 C2703 0.930 1_556 S
H2691 C2704 0.930 1_556 S
H2692 C2708 0.959 . S
H2693 C2708 0.959 . S
H2694 C2708 0.961 . S
H2695 C2709 0.960 . S
H2696 C2709 0.961 . S
H2697 C2709 0.959 . S
H2698 C2712 0.929 1_556 S
H2699 C2713 0.931 . S
H2700 C2715 0.930 . S
C2701 H2689 0.930 . S
C2701 C2702 1.399 . S
C2701 C2706 1.399 . S
C2702 C2701 1.399 . S
C2702 C2703 1.376 . S
C2703 H2690 0.930 1_554 S
C2703 C2702 1.376 . S
C2703 C2704 1.388 . S
C2704 H2691 0.930 1_554 S
C2704 C2703 1.388 . S
C2704 C2705 1.390 . S
C2705 C2704 1.390 . S
C2705 C2706 1.394 . S
C2705 C2711 1.465 . S
C2706 C2701 1.399 . S
C2706 C2705 1.394 . S
C2706 C2707 1.516 . S
C2707 C2706 1.516 . S
C2707 C2708 1.502 . S
C2707 C2709 1.561 . S
C2707 C2710 1.526 . S
C2708 H2692 0.959 . S
C2708 H2693 0.959 . S
C2708 H2694 0.961 . S
C2708 C2707 1.502 . S
C2709 H2695 0.960 . S
C2709 H2696 0.961 . S
C2709 H2697 0.959 . S
C2709 C2707 1.561 . S
C2710 C2707 1.526 . S
C2710 C2711 1.396 . S
C2710 C2715 1.390 . S
C2711 C2705 1.465 . S
C2711 C2710 1.396 . S
C2711 C2712 1.399 . S
C2712 H2698 0.929 1_554 S
C2712 C2711 1.399 . S
C2712 C2713 1.385 . S
C2713 H2699 0.931 . S
C2713 C2712 1.385 . S
C2713 C2714 1.389 . S
C2714 C2713 1.389 . S
C2714 C2715 1.387 . S
C2715 H2700 0.930 . S
C2715 C2710 1.390 . S
C2715 C2714 1.387 . S
H2716 C2728 0.930 . S
H2717 C2730 0.930 . S
H2718 C2731 0.930 . S
H2719 C2735 0.959 . S
H2720 C2735 0.959 . S
H2721 C2735 0.961 . S
H2722 C2736 0.960 . S
H2723 C2736 0.961 . S
H2724 C2736 0.959 . S
H2725 C2739 0.929 . S
H2726 C2740 0.931 . S
H2727 C2742 0.930 . S
C2728 H2716 0.930 . S
C2728 C2729 1.399 . S
C2728 C2733 1.399 . S
C2729 C2728 1.399 . S
C2729 C2730 1.376 . S
C2730 H2717 0.930 . S
C2730 C2729 1.376 . S
C2730 C2731 1.388 . S
C2731 H2718 0.930 . S
C2731 C2730 1.388 . S
C2731 C2732 1.390 . S
C2732 C2731 1.390 . S
C2732 C2733 1.394 . S
C2732 C2738 1.465 . S
C2733 C2728 1.399 . S
C2733 C2732 1.394 . S
C2733 C2734 1.516 . S
C2734 C2733 1.516 . S
C2734 C2735 1.502 . S
C2734 C2736 1.561 . S
C2734 C2737 1.526 . S
C2735 H2719 0.959 . S
C2735 H2720 0.959 . S
C2735 H2721 0.961 . S
C2735 C2734 1.502 . S
C2736 H2722 0.960 . S
C2736 H2723 0.961 . S
C2736 H2724 0.959 . S
C2736 C2734 1.561 . S
C2737 C2734 1.526 . S
C2737 C2738 1.396 . S
C2737 C2742 1.390 . S
C2738 C2732 1.465 . S
C2738 C2737 1.396 . S
C2738 C2739 1.399 . S
C2739 H2725 0.929 . S
C2739 C2738 1.399 . S
C2739 C2740 1.385 . S
C2740 H2726 0.931 . S
C2740 C2739 1.385 . S
C2740 C2741 1.389 . S
C2741 C2740 1.389 . S
C2741 C2742 1.387 . S
C2742 H2727 0.930 . S
C2742 C2737 1.390 . S
C2742 C2741 1.387 . S
H2743 C2755 0.930 . S
H2744 C2757 0.930 . S
H2745 C2758 0.930 . S
H2746 C2762 0.959 . S
H2747 C2762 0.959 . S
H2748 C2762 0.961 . S
H2749 C2763 0.960 . S
H2750 C2763 0.961 . S
H2751 C2763 0.959 . S
H2752 C2766 0.929 . S
H2753 C2767 0.931 1_556 S
H2754 C2769 0.930 . S
C2755 H2743 0.930 . S
C2755 C2756 1.399 . S
C2755 C2760 1.399 . S
C2756 C2755 1.399 . S
C2756 C2757 1.376 . S
C2757 H2744 0.930 . S
C2757 C2756 1.376 . S
C2757 C2758 1.388 . S
C2758 H2745 0.930 . S
C2758 C2757 1.388 . S
C2758 C2759 1.390 . S
C2759 C2758 1.390 . S
C2759 C2760 1.394 . S
C2759 C2765 1.465 . S
C2760 C2755 1.399 . S
C2760 C2759 1.394 . S
C2760 C2761 1.516 . S
C2761 C2760 1.516 . S
C2761 C2762 1.502 . S
C2761 C2763 1.561 . S
C2761 C2764 1.526 . S
C2762 H2746 0.959 . S
C2762 H2747 0.959 . S
C2762 H2748 0.961 . S
C2762 C2761 1.502 . S
C2763 H2749 0.960 . S
C2763 H2750 0.961 . S
C2763 H2751 0.959 . S
C2763 C2761 1.561 . S
C2764 C2761 1.526 . S
C2764 C2765 1.396 . S
C2764 C2769 1.390 . S
C2765 C2759 1.465 . S
C2765 C2764 1.396 . S
C2765 C2766 1.399 . S
C2766 H2752 0.929 . S
C2766 C2765 1.399 . S
C2766 C2767 1.385 . S
C2767 H2753 0.931 1_554 S
C2767 C2766 1.385 . S
C2767 C2768 1.389 . S
C2768 C2767 1.389 . S
C2768 C2769 1.387 . S
C2769 H2754 0.930 . S
C2769 C2764 1.390 . S
C2769 C2768 1.387 . S
H2770 C2782 0.930 . S
H2771 C2784 0.930 . S
H2772 C2785 0.930 . S
H2773 C2789 0.959 . S
H2774 C2789 0.959 . S
H2775 C2789 0.961 . S
H2776 C2790 0.960 . S
H2777 C2790 0.961 . S
H2778 C2790 0.959 . S
H2779 C2793 0.929 . S
H2780 C2794 0.931 . S
H2781 C2796 0.930 . S
C2782 H2770 0.930 . S
C2782 C2783 1.399 . S
C2782 C2787 1.399 . S
C2783 C2782 1.399 . S
C2783 C2784 1.376 . S
C2784 H2771 0.930 . S
C2784 C2783 1.376 . S
C2784 C2785 1.388 . S
C2785 H2772 0.930 . S
C2785 C2784 1.388 . S
C2785 C2786 1.390 . S
C2786 C2785 1.390 . S
C2786 C2787 1.394 . S
C2786 C2792 1.465 . S
C2787 C2782 1.399 . S
C2787 C2786 1.394 . S
C2787 C2788 1.516 . S
C2788 C2787 1.516 . S
C2788 C2789 1.502 . S
C2788 C2790 1.561 . S
C2788 C2791 1.526 . S
C2789 H2773 0.959 . S
C2789 H2774 0.959 . S
C2789 H2775 0.961 . S
C2789 C2788 1.502 . S
C2790 H2776 0.960 . S
C2790 H2777 0.961 . S
C2790 H2778 0.959 . S
C2790 C2788 1.561 . S
C2791 C2788 1.526 . S
C2791 C2792 1.396 . S
C2791 C2796 1.390 . S
C2792 C2786 1.465 . S
C2792 C2791 1.396 . S
C2792 C2793 1.399 . S
C2793 H2779 0.929 . S
C2793 C2792 1.399 . S
C2793 C2794 1.385 . S
C2794 H2780 0.931 . S
C2794 C2793 1.385 . S
C2794 C2795 1.389 . S
C2795 C2794 1.389 . S
C2795 C2796 1.387 . S
C2796 H2781 0.930 . S
C2796 C2791 1.390 . S
C2796 C2795 1.387 . S
H2797 C2809 0.930 . S
H2798 C2811 0.930 . S
H2799 C2812 0.930 . S
H2800 C2816 0.959 . S
H2801 C2816 0.959 . S
H2802 C2816 0.961 . S
H2803 C2817 0.960 . S
H2804 C2817 0.961 . S
H2805 C2817 0.959 . S
H2806 C2820 0.929 . S
H2807 C2821 0.931 . S
H2808 C2823 0.930 . S
C2809 H2797 0.930 . S
C2809 C2810 1.399 . S
C2809 C2814 1.399 . S
C2810 C2809 1.399 . S
C2810 C2811 1.376 . S
C2811 H2798 0.930 . S
C2811 C2810 1.376 . S
C2811 C2812 1.388 . S
C2812 H2799 0.930 . S
C2812 C2811 1.388 . S
C2812 C2813 1.390 . S
C2813 C2812 1.390 . S
C2813 C2814 1.394 . S
C2813 C2819 1.465 . S
C2814 C2809 1.399 . S
C2814 C2813 1.394 . S
C2814 C2815 1.516 . S
C2815 C2814 1.516 . S
C2815 C2816 1.502 . S
C2815 C2817 1.561 . S
C2815 C2818 1.526 . S
C2816 H2800 0.959 . S
C2816 H2801 0.959 . S
C2816 H2802 0.961 . S
C2816 C2815 1.502 . S
C2817 H2803 0.960 . S
C2817 H2804 0.961 . S
C2817 H2805 0.959 . S
C2817 C2815 1.561 . S
C2818 C2815 1.526 . S
C2818 C2819 1.396 . S
C2818 C2823 1.390 . S
C2819 C2813 1.465 . S
C2819 C2818 1.396 . S
C2819 C2820 1.399 . S
C2820 H2806 0.929 . S
C2820 C2819 1.399 . S
C2820 C2821 1.385 . S
C2821 H2807 0.931 . S
C2821 C2820 1.385 . S
C2821 C2822 1.389 . S
C2822 C2821 1.389 . S
C2822 C2823 1.387 . S
C2823 H2808 0.930 . S
C2823 C2818 1.390 . S
C2823 C2822 1.387 . S
H2824 C2836 0.930 . S
H2825 C2838 0.930 . S
H2826 C2839 0.930 . S
H2827 C2843 0.959 . S
H2828 C2843 0.959 . S
H2829 C2843 0.961 . S
H2830 C2844 0.960 . S
H2831 C2844 0.961 . S
H2832 C2844 0.959 . S
H2833 C2847 0.929 . S
H2834 C2848 0.931 . S
H2835 C2850 0.930 . S
C2836 H2824 0.930 . S
C2836 C2837 1.399 . S
C2836 C2841 1.399 . S
C2837 C2836 1.399 . S
C2837 C2838 1.376 . S
C2838 H2825 0.930 . S
C2838 C2837 1.376 . S
C2838 C2839 1.388 . S
C2839 H2826 0.930 . S
C2839 C2838 1.388 . S
C2839 C2840 1.390 . S
C2840 C2839 1.390 . S
C2840 C2841 1.394 . S
C2840 C2846 1.465 . S
C2841 C2836 1.399 . S
C2841 C2840 1.394 . S
C2841 C2842 1.516 . S
C2842 C2841 1.516 . S
C2842 C2843 1.502 . S
C2842 C2844 1.561 . S
C2842 C2845 1.526 . S
C2843 H2827 0.959 . S
C2843 H2828 0.959 . S
C2843 H2829 0.961 . S
C2843 C2842 1.502 . S
C2844 H2830 0.960 . S
C2844 H2831 0.961 . S
C2844 H2832 0.959 . S
C2844 C2842 1.561 . S
C2845 C2842 1.526 . S
C2845 C2846 1.396 . S
C2845 C2850 1.390 . S
C2846 C2840 1.465 . S
C2846 C2845 1.396 . S
C2846 C2847 1.399 . S
C2847 H2833 0.929 . S
C2847 C2846 1.399 . S
C2847 C2848 1.385 . S
C2848 H2834 0.931 . S
C2848 C2847 1.385 . S
C2848 C2849 1.389 . S
C2849 C2848 1.389 . S
C2849 C2850 1.387 . S
C2850 H2835 0.930 . S
C2850 C2845 1.390 . S
C2850 C2849 1.387 . S
H2851 C2863 0.930 . S
H2852 C2865 0.930 . S
H2853 C2866 0.930 . S
H2854 C2870 0.959 . S
H2855 C2870 0.959 . S
H2856 C2870 0.961 . S
H2857 C2871 0.960 . S
H2858 C2871 0.961 . S
H2859 C2871 0.959 . S
H2860 C2874 0.929 . S
H2861 C2875 0.931 . S
H2862 C2877 0.930 . S
C2863 H2851 0.930 . S
C2863 C2864 1.399 . S
C2863 C2868 1.399 . S
C2864 C2863 1.399 . S
C2864 C2865 1.376 . S
C2865 H2852 0.930 . S
C2865 C2864 1.376 . S
C2865 C2866 1.388 . S
C2866 H2853 0.930 . S
C2866 C2865 1.388 . S
C2866 C2867 1.390 . S
C2867 C2866 1.390 . S
C2867 C2868 1.394 . S
C2867 C2873 1.465 . S
C2868 C2863 1.399 . S
C2868 C2867 1.394 . S
C2868 C2869 1.516 . S
C2869 C2868 1.516 . S
C2869 C2870 1.502 . S
C2869 C2871 1.561 . S
C2869 C2872 1.526 . S
C2870 H2854 0.959 . S
C2870 H2855 0.959 . S
C2870 H2856 0.961 . S
C2870 C2869 1.502 . S
C2871 H2857 0.960 . S
C2871 H2858 0.961 . S
C2871 H2859 0.959 . S
C2871 C2869 1.561 . S
C2872 C2869 1.526 . S
C2872 C2873 1.396 . S
C2872 C2877 1.390 . S
C2873 C2867 1.465 . S
C2873 C2872 1.396 . S
C2873 C2874 1.399 . S
C2874 H2860 0.929 . S
C2874 C2873 1.399 . S
C2874 C2875 1.385 . S
C2875 H2861 0.931 . S
C2875 C2874 1.385 . S
C2875 C2876 1.389 . S
C2876 C2875 1.389 . S
C2876 C2877 1.387 . S
C2877 H2862 0.930 . S
C2877 C2872 1.390 . S
C2877 C2876 1.387 . S
H2878 C2890 0.930 . S
H2879 C2892 0.930 . S
H2880 C2893 0.930 . S
H2881 C2897 0.959 . S
H2882 C2897 0.959 . S
H2883 C2897 0.961 . S
H2884 C2898 0.960 . S
H2885 C2898 0.961 . S
H2886 C2898 0.959 . S
H2887 C2901 0.929 . S
H2888 C2902 0.931 1_554 S
H2889 C2904 0.930 . S
C2890 H2878 0.930 . S
C2890 C2891 1.399 1_655 S
C2890 C2895 1.399 . S
C2891 C2890 1.399 1_455 S
C2891 C2892 1.376 . S
C2892 H2879 0.930 . S
C2892 C2891 1.376 . S
C2892 C2893 1.388 . S
C2893 H2880 0.930 . S
C2893 C2892 1.388 . S
C2893 C2894 1.390 . S
C2894 C2893 1.390 . S
C2894 C2895 1.394 1_455 S
C2894 C2900 1.465 . S
C2895 C2890 1.399 . S
C2895 C2894 1.394 1_655 S
C2895 C2896 1.516 . S
C2896 C2895 1.516 . S
C2896 C2897 1.502 . S
C2896 C2898 1.561 1_655 S
C2896 C2899 1.526 . S
C2897 H2881 0.959 . S
C2897 H2882 0.959 . S
C2897 H2883 0.961 . S
C2897 C2896 1.502 . S
C2898 H2884 0.960 . S
C2898 H2885 0.961 . S
C2898 H2886 0.959 . S
C2898 C2896 1.561 1_455 S
C2899 C2896 1.526 . S
C2899 C2900 1.396 1_655 S
C2899 C2904 1.390 . S
C2900 C2894 1.465 . S
C2900 C2899 1.396 1_455 S
C2900 C2901 1.399 . S
C2901 H2887 0.929 . S
C2901 C2900 1.399 . S
C2901 C2902 1.385 . S
C2902 H2888 0.931 1_556 S
C2902 C2901 1.385 . S
C2902 C2903 1.389 1_455 S
C2903 C2902 1.389 1_655 S
C2903 C2904 1.387 . S
C2904 H2889 0.930 . S
C2904 C2899 1.390 . S
C2904 C2903 1.387 . S
H2905 C2917 0.930 . S
H2906 C2919 0.930 . S
H2907 C2920 0.930 . S
H2908 C2924 0.959 . S
H2909 C2924 0.959 . S
H2910 C2924 0.961 . S
H2911 C2925 0.960 . S
H2912 C2925 0.961 . S
H2913 C2925 0.959 . S
H2914 C2928 0.929 . S
H2915 C2929 0.931 . S
H2916 C2931 0.930 . S
C2917 H2905 0.930 . S
C2917 C2918 1.399 . S
C2917 C2922 1.399 . S
C2918 C2917 1.399 . S
C2918 C2919 1.376 . S
C2919 H2906 0.930 . S
C2919 C2918 1.376 . S
C2919 C2920 1.388 . S
C2920 H2907 0.930 . S
C2920 C2919 1.388 . S
C2920 C2921 1.390 . S
C2921 C2920 1.390 . S
C2921 C2922 1.394 . S
C2921 C2927 1.465 . S
C2922 C2917 1.399 . S
C2922 C2921 1.394 . S
C2922 C2923 1.516 . S
C2923 C2922 1.516 . S
C2923 C2924 1.502 . S
C2923 C2925 1.561 . S
C2923 C2926 1.526 . S
C2924 H2908 0.959 . S
C2924 H2909 0.959 . S
C2924 H2910 0.961 . S
C2924 C2923 1.502 . S
C2925 H2911 0.960 . S
C2925 H2912 0.961 . S
C2925 H2913 0.959 . S
C2925 C2923 1.561 . S
C2926 C2923 1.526 . S
C2926 C2927 1.396 . S
C2926 C2931 1.390 . S
C2927 C2921 1.465 . S
C2927 C2926 1.396 . S
C2927 C2928 1.399 . S
C2928 H2914 0.929 . S
C2928 C2927 1.399 . S
C2928 C2929 1.385 . S
C2929 H2915 0.931 . S
C2929 C2928 1.385 . S
C2929 C2930 1.389 . S
C2930 C2929 1.389 . S
C2930 C2931 1.387 . S
C2931 H2916 0.930 . S
C2931 C2926 1.390 . S
C2931 C2930 1.387 . S
H2932 C2944 0.930 . S
H2933 C2946 0.930 . S
H2934 C2947 0.930 . S
H2935 C2951 0.959 . S
H2936 C2951 0.959 . S
H2937 C2951 0.961 . S
H2938 C2952 0.960 . S
H2939 C2952 0.961 . S
H2940 C2952 0.959 . S
H2941 C2955 0.929 . S
H2942 C2956 0.931 . S
H2943 C2958 0.930 . S
C2944 H2932 0.930 . S
C2944 C2945 1.399 . S
C2944 C2949 1.399 . S
C2945 C2944 1.399 . S
C2945 C2946 1.376 . S
C2946 H2933 0.930 . S
C2946 C2945 1.376 . S
C2946 C2947 1.388 . S
C2947 H2934 0.930 . S
C2947 C2946 1.388 . S
C2947 C2948 1.390 . S
C2948 C2947 1.390 . S
C2948 C2949 1.394 . S
C2948 C2954 1.465 . S
C2949 C2944 1.399 . S
C2949 C2948 1.394 . S
C2949 C2950 1.516 . S
C2950 C2949 1.516 . S
C2950 C2951 1.502 . S
C2950 C2952 1.561 . S
C2950 C2953 1.526 . S
C2951 H2935 0.959 . S
C2951 H2936 0.959 . S
C2951 H2937 0.961 . S
C2951 C2950 1.502 . S
C2952 H2938 0.960 . S
C2952 H2939 0.961 . S
C2952 H2940 0.959 . S
C2952 C2950 1.561 . S
C2953 C2950 1.526 . S
C2953 C2954 1.396 . S
C2953 C2958 1.390 . S
C2954 C2948 1.465 . S
C2954 C2953 1.396 . S
C2954 C2955 1.399 . S
C2955 H2941 0.929 . S
C2955 C2954 1.399 . S
C2955 C2956 1.385 . S
C2956 H2942 0.931 . S
C2956 C2955 1.385 . S
C2956 C2957 1.389 . S
C2957 C2956 1.389 . S
C2957 C2958 1.387 . S
C2958 H2943 0.930 . S
C2958 C2953 1.390 . S
C2958 C2957 1.387 . S
H2959 C2971 0.930 . S
H2960 C2973 0.930 . S
H2961 C2974 0.930 . S
H2962 C2978 0.959 . S
H2963 C2978 0.959 . S
H2964 C2978 0.961 . S
H2965 C2979 0.960 . S
H2966 C2979 0.961 . S
H2967 C2979 0.959 . S
H2968 C2982 0.929 . S
H2969 C2983 0.931 . S
H2970 C2985 0.930 . S
C2971 H2959 0.930 . S
C2971 C2972 1.399 . S
C2971 C2976 1.399 . S
C2972 C2971 1.399 . S
C2972 C2973 1.376 . S
C2973 H2960 0.930 . S
C2973 C2972 1.376 . S
C2973 C2974 1.388 . S
C2974 H2961 0.930 . S
C2974 C2973 1.388 . S
C2974 C2975 1.390 . S
C2975 C2974 1.390 . S
C2975 C2976 1.394 . S
C2975 C2981 1.465 . S
C2976 C2971 1.399 . S
C2976 C2975 1.394 . S
C2976 C2977 1.516 . S
C2977 C2976 1.516 . S
C2977 C2978 1.502 . S
C2977 C2979 1.561 . S
C2977 C2980 1.526 . S
C2978 H2962 0.959 . S
C2978 H2963 0.959 . S
C2978 H2964 0.961 . S
C2978 C2977 1.502 . S
C2979 H2965 0.960 . S
C2979 H2966 0.961 . S
C2979 H2967 0.959 . S
C2979 C2977 1.561 . S
C2980 C2977 1.526 . S
C2980 C2981 1.396 . S
C2980 C2985 1.390 . S
C2981 C2975 1.465 . S
C2981 C2980 1.396 . S
C2981 C2982 1.399 . S
C2982 H2968 0.929 . S
C2982 C2981 1.399 . S
C2982 C2983 1.385 . S
C2983 H2969 0.931 . S
C2983 C2982 1.385 . S
C2983 C2984 1.389 . S
C2984 C2983 1.389 . S
C2984 C2985 1.387 . S
C2985 H2970 0.930 . S
C2985 C2980 1.390 . S
C2985 C2984 1.387 . S
H2986 C2998 0.930 . S
H2987 C3000 0.930 . S
H2988 C3001 0.930 . S
H2989 C3005 0.959 . S
H2990 C3005 0.959 . S
H2991 C3005 0.961 . S
H2992 C3006 0.960 . S
H2993 C3006 0.961 . S
H2994 C3006 0.959 . S
H2995 C3009 0.929 . S
H2996 C3010 0.931 . S
H2997 C3012 0.930 . S
C2998 H2986 0.930 . S
C2998 C2999 1.399 . S
C2998 C3003 1.399 . S
C2999 C2998 1.399 . S
C2999 C3000 1.376 . S
C3000 H2987 0.930 . S
C3000 C2999 1.376 . S
C3000 C3001 1.388 . S
C3001 H2988 0.930 . S
C3001 C3000 1.388 . S
C3001 C3002 1.390 . S
C3002 C3001 1.390 . S
C3002 C3003 1.394 . S
C3002 C3008 1.465 . S
C3003 C2998 1.399 . S
C3003 C3002 1.394 . S
C3003 C3004 1.516 . S
C3004 C3003 1.516 . S
C3004 C3005 1.502 1_455 S
C3004 C3006 1.561 . S
C3004 C3007 1.526 . S
C3005 H2989 0.959 . S
C3005 H2990 0.959 . S
C3005 H2991 0.961 . S
C3005 C3004 1.502 1_655 S
C3006 H2992 0.960 . S
C3006 H2993 0.961 . S
C3006 H2994 0.959 . S
C3006 C3004 1.561 . S
C3007 C3004 1.526 . S
C3007 C3008 1.396 . S
C3007 C3012 1.390 . S
C3008 C3002 1.465 . S
C3008 C3007 1.396 . S
C3008 C3009 1.399 . S
C3009 H2995 0.929 . S
C3009 C3008 1.399 . S
C3009 C3010 1.385 . S
C3010 H2996 0.931 . S
C3010 C3009 1.385 . S
C3010 C3011 1.389 . S
C3011 C3010 1.389 . S
C3011 C3012 1.387 . S
C3012 H2997 0.930 . S
C3012 C3007 1.390 . S
C3012 C3011 1.387 . S
H3013 C3025 0.930 . S
H3014 C3027 0.930 . S
H3015 C3028 0.930 . S
H3016 C3032 0.959 . S
H3017 C3032 0.959 . S
H3018 C3032 0.961 . S
H3019 C3033 0.960 . S
H3020 C3033 0.961 . S
H3021 C3033 0.959 . S
H3022 C3036 0.929 . S
H3023 C3037 0.931 . S
H3024 C3039 0.930 . S
C3025 H3013 0.930 . S
C3025 C3026 1.399 . S
C3025 C3030 1.399 . S
C3026 C3025 1.399 . S
C3026 C3027 1.376 . S
C3027 H3014 0.930 . S
C3027 C3026 1.376 . S
C3027 C3028 1.388 . S
C3028 H3015 0.930 . S
C3028 C3027 1.388 . S
C3028 C3029 1.390 . S
C3029 C3028 1.390 . S
C3029 C3030 1.394 . S
C3029 C3035 1.465 . S
C3030 C3025 1.399 . S
C3030 C3029 1.394 . S
C3030 C3031 1.516 . S
C3031 C3030 1.516 . S
C3031 C3032 1.502 . S
C3031 C3033 1.561 . S
C3031 C3034 1.526 . S
C3032 H3016 0.959 . S
C3032 H3017 0.959 . S
C3032 H3018 0.961 . S
C3032 C3031 1.502 . S
C3033 H3019 0.960 . S
C3033 H3020 0.961 . S
C3033 H3021 0.959 . S
C3033 C3031 1.561 . S
C3034 C3031 1.526 . S
C3034 C3035 1.396 . S
C3034 C3039 1.390 . S
C3035 C3029 1.465 . S
C3035 C3034 1.396 . S
C3035 C3036 1.399 . S
C3036 H3022 0.929 . S
C3036 C3035 1.399 . S
C3036 C3037 1.385 . S
C3037 H3023 0.931 . S
C3037 C3036 1.385 . S
C3037 C3038 1.389 . S
C3038 C3037 1.389 . S
C3038 C3039 1.387 . S
C3039 H3024 0.930 . S
C3039 C3034 1.390 . S
C3039 C3038 1.387 . S
H3040 C3052 0.930 . S
H3041 C3054 0.930 . S
H3042 C3055 0.930 . S
H3043 C3059 0.959 . S
H3044 C3059 0.959 . S
H3045 C3059 0.961 . S
H3046 C3060 0.960 . S
H3047 C3060 0.961 . S
H3048 C3060 0.959 . S
H3049 C3063 0.929 . S
H3050 C3064 0.931 . S
H3051 C3066 0.930 . S
C3052 H3040 0.930 . S
C3052 C3053 1.399 . S
C3052 C3057 1.399 . S
C3053 C3052 1.399 . S
C3053 C3054 1.376 . S
C3054 H3041 0.930 . S
C3054 C3053 1.376 . S
C3054 C3055 1.388 . S
C3055 H3042 0.930 . S
C3055 C3054 1.388 . S
C3055 C3056 1.390 . S
C3056 C3055 1.390 . S
C3056 C3057 1.394 . S
C3056 C3062 1.465 . S
C3057 C3052 1.399 . S
C3057 C3056 1.394 . S
C3057 C3058 1.516 . S
C3058 C3057 1.516 . S
C3058 C3059 1.502 . S
C3058 C3060 1.561 . S
C3058 C3061 1.526 . S
C3059 H3043 0.959 . S
C3059 H3044 0.959 . S
C3059 H3045 0.961 . S
C3059 C3058 1.502 . S
C3060 H3046 0.960 . S
C3060 H3047 0.961 . S
C3060 H3048 0.959 . S
C3060 C3058 1.561 . S
C3061 C3058 1.526 . S
C3061 C3062 1.396 . S
C3061 C3066 1.390 . S
C3062 C3056 1.465 . S
C3062 C3061 1.396 . S
C3062 C3063 1.399 . S
C3063 H3049 0.929 . S
C3063 C3062 1.399 . S
C3063 C3064 1.385 . S
C3064 H3050 0.931 . S
C3064 C3063 1.385 . S
C3064 C3065 1.389 . S
C3065 C3064 1.389 . S
C3065 C3066 1.387 . S
C3066 H3051 0.930 . S
C3066 C3061 1.390 . S
C3066 C3065 1.387 . S
H3067 C3079 0.930 . S
H3068 C3081 0.930 . S
H3069 C3082 0.930 . S
H3070 C3086 0.959 . S
H3071 C3086 0.959 . S
H3072 C3086 0.961 . S
H3073 C3087 0.960 . S
H3074 C3087 0.961 . S
H3075 C3087 0.959 . S
H3076 C3090 0.929 . S
H3077 C3091 0.931 . S
H3078 C3093 0.930 . S
C3079 H3067 0.930 . S
C3079 C3080 1.399 . S
C3079 C3084 1.399 . S
C3080 C3079 1.399 . S
C3080 C3081 1.376 . S
C3081 H3068 0.930 . S
C3081 C3080 1.376 . S
C3081 C3082 1.388 . S
C3082 H3069 0.930 . S
C3082 C3081 1.388 . S
C3082 C3083 1.390 . S
C3083 C3082 1.390 . S
C3083 C3084 1.394 . S
C3083 C3089 1.465 . S
C3084 C3079 1.399 . S
C3084 C3083 1.394 . S
C3084 C3085 1.516 . S
C3085 C3084 1.516 . S
C3085 C3086 1.502 . S
C3085 C3087 1.561 . S
C3085 C3088 1.526 . S
C3086 H3070 0.959 . S
C3086 H3071 0.959 . S
C3086 H3072 0.961 . S
C3086 C3085 1.502 . S
C3087 H3073 0.960 . S
C3087 H3074 0.961 . S
C3087 H3075 0.959 . S
C3087 C3085 1.561 . S
C3088 C3085 1.526 . S
C3088 C3089 1.396 . S
C3088 C3093 1.390 . S
C3089 C3083 1.465 . S
C3089 C3088 1.396 . S
C3089 C3090 1.399 . S
C3090 H3076 0.929 . S
C3090 C3089 1.399 . S
C3090 C3091 1.385 . S
C3091 H3077 0.931 . S
C3091 C3090 1.385 . S
C3091 C3092 1.389 . S
C3092 C3091 1.389 . S
C3092 C3093 1.387 . S
C3093 H3078 0.930 . S
C3093 C3088 1.390 . S
C3093 C3092 1.387 . S
H3094 C3106 0.930 . S
H3095 C3108 0.930 . S
H3096 C3109 0.930 . S
H3097 C3113 0.959 . S
H3098 C3113 0.959 . S
H3099 C3113 0.961 . S
H3100 C3114 0.960 . S
H3101 C3114 0.961 . S
H3102 C3114 0.959 . S
H3103 C3117 0.929 . S
H3104 C3118 0.931 . S
H3105 C3120 0.930 . S
C3106 H3094 0.930 . S
C3106 C3107 1.399 . S
C3106 C3111 1.399 . S
C3107 C3106 1.399 . S
C3107 C3108 1.376 . S
C3108 H3095 0.930 . S
C3108 C3107 1.376 . S
C3108 C3109 1.388 . S
C3109 H3096 0.930 . S
C3109 C3108 1.388 . S
C3109 C3110 1.390 . S
C3110 C3109 1.390 . S
C3110 C3111 1.394 . S
C3110 C3116 1.465 . S
C3111 C3106 1.399 . S
C3111 C3110 1.394 . S
C3111 C3112 1.516 . S
C3112 C3111 1.516 . S
C3112 C3113 1.502 . S
C3112 C3114 1.561 . S
C3112 C3115 1.526 . S
C3113 H3097 0.959 . S
C3113 H3098 0.959 . S
C3113 H3099 0.961 . S
C3113 C3112 1.502 . S
C3114 H3100 0.960 . S
C3114 H3101 0.961 . S
C3114 H3102 0.959 . S
C3114 C3112 1.561 . S
C3115 C3112 1.526 . S
C3115 C3116 1.396 . S
C3115 C3120 1.390 . S
C3116 C3110 1.465 . S
C3116 C3115 1.396 . S
C3116 C3117 1.399 . S
C3117 H3103 0.929 . S
C3117 C3116 1.399 . S
C3117 C3118 1.385 . S
C3118 H3104 0.931 . S
C3118 C3117 1.385 . S
C3118 C3119 1.389 . S
C3119 C3118 1.389 . S
C3119 C3120 1.387 . S
C3120 H3105 0.930 . S
C3120 C3115 1.390 . S
C3120 C3119 1.387 . S
H3121 C3133 0.930 . S
H3122 C3135 0.930 . S
H3123 C3136 0.930 . S
H3124 C3140 0.959 . S
H3125 C3140 0.959 . S
H3126 C3140 0.961 . S
H3127 C3141 0.960 . S
H3128 C3141 0.961 . S
H3129 C3141 0.959 . S
H3130 C3144 0.929 . S
H3131 C3145 0.931 . S
H3132 C3147 0.930 . S
C3133 H3121 0.930 . S
C3133 C3134 1.399 . S
C3133 C3138 1.399 . S
C3134 C3133 1.399 . S
C3134 C3135 1.376 . S
C3135 H3122 0.930 . S
C3135 C3134 1.376 . S
C3135 C3136 1.388 . S
C3136 H3123 0.930 . S
C3136 C3135 1.388 . S
C3136 C3137 1.390 . S
C3137 C3136 1.390 . S
C3137 C3138 1.394 . S
C3137 C3143 1.465 . S
C3138 C3133 1.399 . S
C3138 C3137 1.394 . S
C3138 C3139 1.516 . S
C3139 C3138 1.516 . S
C3139 C3140 1.502 . S
C3139 C3141 1.561 . S
C3139 C3142 1.526 . S
C3140 H3124 0.959 . S
C3140 H3125 0.959 . S
C3140 H3126 0.961 . S
C3140 C3139 1.502 . S
C3141 H3127 0.960 . S
C3141 H3128 0.961 . S
C3141 H3129 0.959 . S
C3141 C3139 1.561 . S
C3142 C3139 1.526 . S
C3142 C3143 1.396 . S
C3142 C3147 1.390 . S
C3143 C3137 1.465 . S
C3143 C3142 1.396 . S
C3143 C3144 1.399 . S
C3144 H3130 0.929 . S
C3144 C3143 1.399 . S
C3144 C3145 1.385 . S
C3145 H3131 0.931 . S
C3145 C3144 1.385 . S
C3145 C3146 1.389 . S
C3146 C3145 1.389 . S
C3146 C3147 1.387 . S
C3147 H3132 0.930 . S
C3147 C3142 1.390 . S
C3147 C3146 1.387 . S
H3148 C3160 0.930 . S
H3149 C3162 0.930 . S
H3150 C3163 0.930 . S
H3151 C3167 0.959 . S
H3152 C3167 0.959 . S
H3153 C3167 0.961 . S
H3154 C3168 0.960 . S
H3155 C3168 0.961 . S
H3156 C3168 0.959 . S
H3157 C3171 0.929 . S
H3158 C3172 0.931 . S
H3159 C3174 0.930 . S
C3160 H3148 0.930 . S
C3160 C3161 1.399 . S
C3160 C3165 1.399 . S
C3161 C3160 1.399 . S
C3161 C3162 1.376 . S
C3162 H3149 0.930 . S
C3162 C3161 1.376 . S
C3162 C3163 1.388 . S
C3163 H3150 0.930 . S
C3163 C3162 1.388 . S
C3163 C3164 1.390 . S
C3164 C3163 1.390 . S
C3164 C3165 1.394 . S
C3164 C3170 1.465 . S
C3165 C3160 1.399 . S
C3165 C3164 1.394 . S
C3165 C3166 1.516 . S
C3166 C3165 1.516 . S
C3166 C3167 1.502 . S
C3166 C3168 1.561 . S
C3166 C3169 1.526 . S
C3167 H3151 0.959 . S
C3167 H3152 0.959 . S
C3167 H3153 0.961 . S
C3167 C3166 1.502 . S
C3168 H3154 0.960 . S
C3168 H3155 0.961 . S
C3168 H3156 0.959 . S
C3168 C3166 1.561 . S
C3169 C3166 1.526 . S
C3169 C3170 1.396 . S
C3169 C3174 1.390 . S
C3170 C3164 1.465 . S
C3170 C3169 1.396 . S
C3170 C3171 1.399 . S
C3171 H3157 0.929 . S
C3171 C3170 1.399 . S
C3171 C3172 1.385 . S
C3172 H3158 0.931 . S
C3172 C3171 1.385 . S
C3172 C3173 1.389 . S
C3173 C3172 1.389 . S
C3173 C3174 1.387 . S
C3174 H3159 0.930 . S
C3174 C3169 1.390 . S
C3174 C3173 1.387 . S
H3175 C3187 0.930 . S
H3176 C3189 0.930 . S
H3177 C3190 0.930 . S
H3178 C3194 0.959 . S
H3179 C3194 0.959 . S
H3180 C3194 0.961 . S
H3181 C3195 0.960 . S
H3182 C3195 0.961 . S
H3183 C3195 0.959 . S
H3184 C3198 0.929 . S
H3185 C3199 0.931 . S
H3186 C3201 0.930 . S
C3187 H3175 0.930 . S
C3187 C3188 1.399 . S
C3187 C3192 1.399 . S
C3188 C3187 1.399 . S
C3188 C3189 1.376 . S
C3189 H3176 0.930 . S
C3189 C3188 1.376 . S
C3189 C3190 1.388 . S
C3190 H3177 0.930 . S
C3190 C3189 1.388 . S
C3190 C3191 1.390 . S
C3191 C3190 1.390 . S
C3191 C3192 1.394 . S
C3191 C3197 1.465 . S
C3192 C3187 1.399 . S
C3192 C3191 1.394 . S
C3192 C3193 1.516 . S
C3193 C3192 1.516 . S
C3193 C3194 1.502 . S
C3193 C3195 1.561 . S
C3193 C3196 1.526 . S
C3194 H3178 0.959 . S
C3194 H3179 0.959 . S
C3194 H3180 0.961 . S
C3194 C3193 1.502 . S
C3195 H3181 0.960 . S
C3195 H3182 0.961 . S
C3195 H3183 0.959 . S
C3195 C3193 1.561 . S
C3196 C3193 1.526 . S
C3196 C3197 1.396 . S
C3196 C3201 1.390 . S
C3197 C3191 1.465 . S
C3197 C3196 1.396 . S
C3197 C3198 1.399 . S
C3198 H3184 0.929 . S
C3198 C3197 1.399 . S
C3198 C3199 1.385 . S
C3199 H3185 0.931 . S
C3199 C3198 1.385 . S
C3199 C3200 1.389 . S
C3200 C3199 1.389 . S
C3200 C3201 1.387 . S
C3201 H3186 0.930 . S
C3201 C3196 1.390 . S
C3201 C3200 1.387 . S
H3202 C3214 0.930 . S
H3203 C3216 0.930 . S
H3204 C3217 0.930 . S
H3205 C3221 0.959 . S
H3206 C3221 0.959 . S
H3207 C3221 0.961 . S
H3208 C3222 0.960 . S
H3209 C3222 0.961 . S
H3210 C3222 0.959 . S
H3211 C3225 0.929 . S
H3212 C3226 0.931 . S
H3213 C3228 0.930 . S
C3214 H3202 0.930 . S
C3214 C3215 1.399 . S
C3214 C3219 1.399 . S
C3215 C3214 1.399 . S
C3215 C3216 1.376 . S
C3216 H3203 0.930 . S
C3216 C3215 1.376 . S
C3216 C3217 1.388 . S
C3217 H3204 0.930 . S
C3217 C3216 1.388 . S
C3217 C3218 1.390 . S
C3218 C3217 1.390 . S
C3218 C3219 1.394 . S
C3218 C3224 1.465 . S
C3219 C3214 1.399 . S
C3219 C3218 1.394 . S
C3219 C3220 1.516 . S
C3220 C3219 1.516 . S
C3220 C3221 1.502 . S
C3220 C3222 1.561 . S
C3220 C3223 1.526 . S
C3221 H3205 0.959 . S
C3221 H3206 0.959 . S
C3221 H3207 0.961 . S
C3221 C3220 1.502 . S
C3222 H3208 0.960 . S
C3222 H3209 0.961 . S
C3222 H3210 0.959 . S
C3222 C3220 1.561 . S
C3223 C3220 1.526 . S
C3223 C3224 1.396 . S
C3223 C3228 1.390 . S
C3224 C3218 1.465 . S
C3224 C3223 1.396 . S
C3224 C3225 1.399 . S
C3225 H3211 0.929 . S
C3225 C3224 1.399 . S
C3225 C3226 1.385 . S
C3226 H3212 0.931 . S
C3226 C3225 1.385 . S
C3226 C3227 1.389 . S
C3227 C3226 1.389 . S
C3227 C3228 1.387 . S
C3228 H3213 0.930 . S
C3228 C3223 1.390 . S
C3228 C3227 1.387 . S
H3229 C3241 0.930 . S
H3230 C3243 0.930 . S
H3231 C3244 0.930 . S
H3232 C3248 0.959 . S
H3233 C3248 0.959 . S
H3234 C3248 0.961 . S
H3235 C3249 0.960 . S
H3236 C3249 0.961 . S
H3237 C3249 0.959 . S
H3238 C3252 0.929 . S
H3239 C3253 0.931 . S
H3240 C3255 0.930 . S
C3241 H3229 0.930 . S
C3241 C3242 1.399 . S
C3241 C3246 1.399 . S
C3242 C3241 1.399 . S
C3242 C3243 1.376 . S
C3243 H3230 0.930 . S
C3243 C3242 1.376 . S
C3243 C3244 1.388 . S
C3244 H3231 0.930 . S
C3244 C3243 1.388 . S
C3244 C3245 1.390 . S
C3245 C3244 1.390 . S
C3245 C3246 1.394 . S
C3245 C3251 1.465 . S
C3246 C3241 1.399 . S
C3246 C3245 1.394 . S
C3246 C3247 1.516 . S
C3247 C3246 1.516 . S
C3247 C3248 1.502 . S
C3247 C3249 1.561 . S
C3247 C3250 1.526 . S
C3248 H3232 0.959 . S
C3248 H3233 0.959 . S
C3248 H3234 0.961 . S
C3248 C3247 1.502 . S
C3249 H3235 0.960 . S
C3249 H3236 0.961 . S
C3249 H3237 0.959 . S
C3249 C3247 1.561 . S
C3250 C3247 1.526 . S
C3250 C3251 1.396 . S
C3250 C3255 1.390 . S
C3251 C3245 1.465 . S
C3251 C3250 1.396 . S
C3251 C3252 1.399 . S
C3252 H3238 0.929 . S
C3252 C3251 1.399 . S
C3252 C3253 1.385 . S
C3253 H3239 0.931 . S
C3253 C3252 1.385 . S
C3253 C3254 1.389 . S
C3254 C3253 1.389 . S
C3254 C3255 1.387 . S
C3255 H3240 0.930 . S
C3255 C3250 1.390 . S
C3255 C3254 1.387 . S
H3256 C3268 0.930 . S
H3257 C3270 0.930 . S
H3258 C3271 0.930 . S
H3259 C3275 0.959 . S
H3260 C3275 0.959 . S
H3261 C3275 0.961 . S
H3262 C3276 0.960 . S
H3263 C3276 0.961 . S
H3264 C3276 0.959 . S
H3265 C3279 0.929 . S
H3266 C3280 0.931 . S
H3267 C3282 0.930 . S
C3268 H3256 0.930 . S
C3268 C3269 1.399 . S
C3268 C3273 1.399 . S
C3269 C3268 1.399 . S
C3269 C3270 1.376 . S
C3270 H3257 0.930 . S
C3270 C3269 1.376 . S
C3270 C3271 1.388 . S
C3271 H3258 0.930 . S
C3271 C3270 1.388 . S
C3271 C3272 1.390 . S
C3272 C3271 1.390 . S
C3272 C3273 1.394 . S
C3272 C3278 1.465 . S
C3273 C3268 1.399 . S
C3273 C3272 1.394 . S
C3273 C3274 1.516 . S
C3274 C3273 1.516 . S
C3274 C3275 1.502 . S
C3274 C3276 1.561 . S
C3274 C3277 1.526 . S
C3275 H3259 0.959 . S
C3275 H3260 0.959 . S
C3275 H3261 0.961 . S
C3275 C3274 1.502 . S
C3276 H3262 0.960 . S
C3276 H3263 0.961 . S
C3276 H3264 0.959 . S
C3276 C3274 1.561 . S
C3277 C3274 1.526 . S
C3277 C3278 1.396 . S
C3277 C3282 1.390 . S
C3278 C3272 1.465 . S
C3278 C3277 1.396 . S
C3278 C3279 1.399 . S
C3279 H3265 0.929 . S
C3279 C3278 1.399 . S
C3279 C3280 1.385 . S
C3280 H3266 0.931 . S
C3280 C3279 1.385 . S
C3280 C3281 1.389 . S
C3281 C3280 1.389 . S
C3281 C3282 1.387 . S
C3282 H3267 0.930 . S
C3282 C3277 1.390 . S
C3282 C3281 1.387 . S
H3283 C3295 0.930 . S
H3284 C3297 0.930 . S
H3285 C3298 0.930 . S
H3286 C3302 0.959 . S
H3287 C3302 0.959 . S
H3288 C3302 0.961 . S
H3289 C3303 0.960 . S
H3290 C3303 0.961 . S
H3291 C3303 0.959 . S
H3292 C3306 0.929 . S
H3293 C3307 0.931 . S
H3294 C3309 0.930 . S
C3295 H3283 0.930 . S
C3295 C3296 1.399 . S
C3295 C3300 1.399 . S
C3296 C3295 1.399 . S
C3296 C3297 1.376 . S
C3297 H3284 0.930 . S
C3297 C3296 1.376 . S
C3297 C3298 1.388 . S
C3298 H3285 0.930 . S
C3298 C3297 1.388 . S
C3298 C3299 1.390 . S
C3299 C3298 1.390 . S
C3299 C3300 1.394 . S
C3299 C3305 1.465 . S
C3300 C3295 1.399 . S
C3300 C3299 1.394 . S
C3300 C3301 1.516 . S
C3301 C3300 1.516 . S
C3301 C3302 1.502 . S
C3301 C3303 1.561 . S
C3301 C3304 1.526 . S
C3302 H3286 0.959 . S
C3302 H3287 0.959 . S
C3302 H3288 0.961 . S
C3302 C3301 1.502 . S
C3303 H3289 0.960 . S
C3303 H3290 0.961 . S
C3303 H3291 0.959 . S
C3303 C3301 1.561 . S
C3304 C3301 1.526 . S
C3304 C3305 1.396 . S
C3304 C3309 1.390 . S
C3305 C3299 1.465 . S
C3305 C3304 1.396 . S
C3305 C3306 1.399 . S
C3306 H3292 0.929 . S
C3306 C3305 1.399 . S
C3306 C3307 1.385 . S
C3307 H3293 0.931 . S
C3307 C3306 1.385 . S
C3307 C3308 1.389 . S
C3308 C3307 1.389 . S
C3308 C3309 1.387 . S
C3309 H3294 0.930 . S
C3309 C3304 1.390 . S
C3309 C3308 1.387 . S
H3310 C3322 0.930 . S
H3311 C3324 0.930 . S
H3312 C3325 0.930 . S
H3313 C3329 0.959 . S
H3314 C3329 0.959 . S
H3315 C3329 0.961 . S
H3316 C3330 0.960 . S
H3317 C3330 0.961 . S
H3318 C3330 0.959 . S
H3319 C3333 0.929 . S
H3320 C3334 0.931 . S
H3321 C3336 0.930 . S
C3322 H3310 0.930 . S
C3322 C3323 1.399 . S
C3322 C3327 1.399 . S
C3323 C3322 1.399 . S
C3323 C3324 1.376 . S
C3324 H3311 0.930 . S
C3324 C3323 1.376 . S
C3324 C3325 1.388 . S
C3325 H3312 0.930 . S
C3325 C3324 1.388 . S
C3325 C3326 1.390 . S
C3326 C3325 1.390 . S
C3326 C3327 1.394 . S
C3326 C3332 1.465 . S
C3327 C3322 1.399 . S
C3327 C3326 1.394 . S
C3327 C3328 1.516 . S
C3328 C3327 1.516 . S
C3328 C3329 1.502 . S
C3328 C3330 1.561 . S
C3328 C3331 1.526 . S
C3329 H3313 0.959 . S
C3329 H3314 0.959 . S
C3329 H3315 0.961 . S
C3329 C3328 1.502 . S
C3330 H3316 0.960 . S
C3330 H3317 0.961 . S
C3330 H3318 0.959 . S
C3330 C3328 1.561 . S
C3331 C3328 1.526 . S
C3331 C3332 1.396 . S
C3331 C3336 1.390 . S
C3332 C3326 1.465 . S
C3332 C3331 1.396 . S
C3332 C3333 1.399 . S
C3333 H3319 0.929 . S
C3333 C3332 1.399 . S
C3333 C3334 1.385 . S
C3334 H3320 0.931 . S
C3334 C3333 1.385 . S
C3334 C3335 1.389 . S
C3335 C3334 1.389 . S
C3335 C3336 1.387 . S
C3336 H3321 0.930 . S
C3336 C3331 1.390 . S
C3336 C3335 1.387 . S
H3337 C3349 0.930 1_556 S
H3338 C3351 0.930 . S
H3339 C3352 0.930 . S
H3340 C3356 0.952 1_545 S
H3341 C3356 0.959 . S
H3342 C3356 0.961 . S
H3343 C3357 0.960 . S
H3344 C3357 0.961 . S
H3345 C3357 0.959 . S
H3346 C3360 0.929 . S
H3347 C3361 0.931 . S
H3348 C3363 0.899 1_556 S
C3349 H3337 0.930 1_554 S
C3349 C3350 1.399 . S
C3349 C3354 1.399 . S
C3350 C3349 1.399 . S
C3350 C3351 1.376 . S
C3351 H3338 0.930 . S
C3351 C3350 1.376 . S
C3351 C3352 1.388 . S
C3352 H3339 0.930 . S
C3352 C3351 1.388 . S
C3352 C3353 1.390 . S
C3353 C3352 1.390 . S
C3353 C3354 1.394 . S
C3353 C3359 1.465 . S
C3354 C3349 1.399 . S
C3354 C3353 1.394 . S
C3354 C3355 1.516 1_554 S
C3355 C3354 1.516 1_556 S
C3355 C3356 1.502 . S
C3355 C3357 1.561 . S
C3355 C3358 1.526 1_556 S
C3356 H3340 0.952 1_565 S
C3356 H3341 0.959 . S
C3356 H3342 0.961 . S
C3356 C3355 1.502 . S
C3357 H3343 0.960 . S
C3357 H3344 0.961 . S
C3357 H3345 0.959 . S
C3357 C3355 1.561 . S
C3358 C3355 1.526 1_554 S
C3358 C3359 1.396 . S
C3358 C3363 1.398 . S
C3359 C3353 1.465 . S
C3359 C3358 1.396 . S
C3359 C3360 1.399 . S
C3360 H3346 0.929 . S
C3360 C3359 1.399 . S
C3360 C3361 1.385 . S
C3361 H3347 0.931 . S
C3361 C3360 1.385 . S
C3361 C3362 1.389 . S
C3362 C3361 1.389 . S
C3362 C3363 1.411 . S
C3363 H3348 0.899 1_554 S
C3363 C3358 1.398 . S
C3363 C3362 1.411 . S
H3364 C3376 0.930 . S
H3365 C3378 0.930 . S
H3366 C3379 0.930 . S
H3367 C3383 0.959 . S
H3368 C3383 0.959 . S
H3369 C3383 0.961 . S
H3370 C3384 0.960 . S
H3371 C3384 0.961 . S
H3372 C3384 0.959 . S
H3373 C3387 0.929 . S
H3374 C3388 0.931 . S
H3375 C3390 0.930 . S
C3376 H3364 0.930 . S
C3376 C3377 1.399 . S
C3376 C3381 1.399 . S
C3377 C3376 1.399 . S
C3377 C3378 1.376 . S
C3378 H3365 0.930 . S
C3378 C3377 1.376 . S
C3378 C3379 1.388 . S
C3379 H3366 0.930 . S
C3379 C3378 1.388 . S
C3379 C3380 1.390 . S
C3380 C3379 1.390 . S
C3380 C3381 1.394 . S
C3380 C3386 1.465 . S
C3381 C3376 1.399 . S
C3381 C3380 1.394 . S
C3381 C3382 1.516 . S
C3382 C3381 1.516 . S
C3382 C3383 1.502 . S
C3382 C3384 1.561 . S
C3382 C3385 1.526 . S
C3383 H3367 0.959 . S
C3383 H3368 0.959 . S
C3383 H3369 0.961 . S
C3383 C3382 1.502 . S
C3384 H3370 0.960 . S
C3384 H3371 0.961 . S
C3384 H3372 0.959 . S
C3384 C3382 1.561 . S
C3385 C3382 1.526 . S
C3385 C3386 1.396 . S
C3385 C3390 1.390 . S
C3386 C3380 1.465 . S
C3386 C3385 1.396 . S
C3386 C3387 1.399 . S
C3387 H3373 0.929 . S
C3387 C3386 1.399 . S
C3387 C3388 1.385 . S
C3388 H3374 0.931 . S
C3388 C3387 1.385 . S
C3388 C3389 1.389 . S
C3389 C3388 1.389 . S
C3389 C3390 1.387 . S
C3390 H3375 0.930 . S
C3390 C3385 1.390 . S
C3390 C3389 1.387 . S
H3391 C3403 0.930 . S
H3392 C3405 0.930 . S
H3393 C3406 0.930 . S
H3394 C3410 0.959 . S
H3395 C3410 0.959 . S
H3396 C3410 0.961 . S
H3397 C3411 0.960 . S
H3398 C3411 0.961 . S
H3399 C3411 0.959 1_554 S
H3400 C3414 0.929 . S
H3401 C3415 0.931 . S
H3402 C3417 0.930 . S
C3403 H3391 0.930 . S
C3403 C3404 1.399 1_556 S
C3403 C3408 1.399 1_556 S
C3404 C3403 1.399 1_554 S
C3404 C3405 1.376 . S
C3405 H3392 0.930 . S
C3405 C3404 1.376 . S
C3405 C3406 1.388 . S
C3406 H3393 0.930 . S
C3406 C3405 1.388 . S
C3406 C3407 1.390 . S
C3407 C3406 1.390 . S
C3407 C3408 1.394 . S
C3407 C3413 1.465 . S
C3408 C3403 1.399 1_554 S
C3408 C3407 1.394 . S
C3408 C3409 1.516 1_554 S
C3409 C3408 1.516 1_556 S
C3409 C3410 1.502 . S
C3409 C3411 1.561 . S
C3409 C3412 1.526 1_556 S
C3410 H3394 0.959 . S
C3410 H3395 0.959 . S
C3410 H3396 0.961 . S
C3410 C3409 1.502 . S
C3411 H3397 0.960 . S
C3411 H3398 0.961 . S
C3411 H3399 0.959 1_556 S
C3411 C3409 1.561 . S
C3412 C3409 1.526 1_554 S
C3412 C3413 1.396 . S
C3412 C3417 1.390 . S
C3413 C3407 1.465 . S
C3413 C3412 1.396 . S
C3413 C3414 1.399 . S
C3414 H3400 0.929 . S
C3414 C3413 1.399 . S
C3414 C3415 1.385 . S
C3415 H3401 0.931 . S
C3415 C3414 1.385 . S
C3415 C3416 1.389 . S
C3416 C3415 1.389 . S
C3416 C3417 1.387 . S
C3417 H3402 0.930 . S
C3417 C3412 1.390 . S
C3417 C3416 1.387 . S
H3418 C3430 0.930 . S
H3419 C3432 0.930 . S
H3420 C3433 0.930 . S
H3421 C3437 0.959 . S
H3422 C3437 0.959 . S
H3423 C3437 0.961 . S
H3424 C3438 0.960 . S
H3425 C3438 0.961 . S
H3426 C3438 0.959 . S
H3427 C3441 0.929 . S
H3428 C3442 0.931 . S
H3429 C3444 0.930 . S
C3430 H3418 0.930 . S
C3430 C3431 1.399 . S
C3430 C3435 1.399 . S
C3431 C3430 1.399 . S
C3431 C3432 1.376 . S
C3432 H3419 0.930 . S
C3432 C3431 1.376 . S
C3432 C3433 1.388 . S
C3433 H3420 0.930 . S
C3433 C3432 1.388 . S
C3433 C3434 1.390 . S
C3434 C3433 1.390 . S
C3434 C3435 1.394 . S
C3434 C3440 1.465 . S
C3435 C3430 1.399 . S
C3435 C3434 1.394 . S
C3435 C3436 1.516 . S
C3436 C3435 1.516 . S
C3436 C3437 1.502 . S
C3436 C3438 1.561 . S
C3436 C3439 1.526 . S
C3437 H3421 0.959 . S
C3437 H3422 0.959 . S
C3437 H3423 0.961 . S
C3437 C3436 1.502 . S
C3438 H3424 0.960 . S
C3438 H3425 0.961 . S
C3438 H3426 0.959 . S
C3438 C3436 1.561 . S
C3439 C3436 1.526 . S
C3439 C3440 1.396 . S
C3439 C3444 1.390 . S
C3440 C3434 1.465 . S
C3440 C3439 1.396 . S
C3440 C3441 1.399 . S
C3441 H3427 0.929 . S
C3441 C3440 1.399 . S
C3441 C3442 1.385 . S
C3442 H3428 0.931 . S
C3442 C3441 1.385 . S
C3442 C3443 1.389 . S
C3443 C3442 1.389 . S
C3443 C3444 1.387 . S
C3444 H3429 0.930 . S
C3444 C3439 1.390 . S
C3444 C3443 1.387 . S
H3445 C3457 0.930 . S
H3446 C3459 0.930 . S
H3447 C3460 0.930 . S
H3448 C3464 0.959 . S
H3449 C3464 0.959 . S
H3450 C3464 0.961 . S
H3451 C3465 0.960 . S
H3452 C3465 0.961 . S
H3453 C3465 0.959 . S
H3454 C3468 0.929 . S
H3455 C3469 0.931 . S
H3456 C3471 0.930 . S
C3457 H3445 0.930 . S
C3457 C3458 1.399 . S
C3457 C3462 1.399 . S
C3458 C3457 1.399 . S
C3458 C3459 1.376 . S
C3459 H3446 0.930 . S
C3459 C3458 1.376 . S
C3459 C3460 1.388 . S
C3460 H3447 0.930 . S
C3460 C3459 1.388 . S
C3460 C3461 1.390 . S
C3461 C3460 1.390 . S
C3461 C3462 1.394 . S
C3461 C3467 1.465 . S
C3462 C3457 1.399 . S
C3462 C3461 1.394 . S
C3462 C3463 1.516 . S
C3463 C3462 1.516 . S
C3463 C3464 1.502 . S
C3463 C3465 1.561 . S
C3463 C3466 1.526 . S
C3464 H3448 0.959 . S
C3464 H3449 0.959 . S
C3464 H3450 0.961 . S
C3464 C3463 1.502 . S
C3465 H3451 0.960 . S
C3465 H3452 0.961 . S
C3465 H3453 0.959 . S
C3465 C3463 1.561 . S
C3466 C3463 1.526 . S
C3466 C3467 1.396 . S
C3466 C3471 1.390 . S
C3467 C3461 1.465 . S
C3467 C3466 1.396 . S
C3467 C3468 1.399 . S
C3468 H3454 0.929 . S
C3468 C3467 1.399 . S
C3468 C3469 1.385 . S
C3469 H3455 0.931 . S
C3469 C3468 1.385 . S
C3469 C3470 1.389 . S
C3470 C3469 1.389 . S
C3470 C3471 1.387 . S
C3471 H3456 0.930 . S
C3471 C3466 1.390 . S
C3471 C3470 1.387 . S
C905 C353 1.040 . S
C893 C7 1.096 . S
C920 C22 1.890 . S
C932 C399 1.879 . S
C947 C31 0.945 . S
C959 C408 0.954 . S
C986 C446 1.700 . S
C974 C51 1.711 . S
C1001 C17 1.681 . S
C1013 C480 1.677 . S
C1040 C510 0.790 . S
C1028 C36 0.805 . S
C1067 C569 1.688 1_556 S
C1055 C49 1.647 . S
C1082 C9 0.981 . S
C1094 C582 1.041 . S
C1109 C63 1.421 . S
C1121 C365 1.409 . S
C1136 C73 1.193 . S
C1148 C383 1.211 . S
C1175 C404 1.687 . S
C1163 C91 1.649 . S
C1202 C442 0.828 . S
C1190 C101 0.808 . S
C1217 C59 1.306 . S
C1229 C476 1.297 . S
C1256 C506 1.641 . S
C1244 C77 1.605 . S
C1283 C553 1.226 . S
C1271 C87 1.270 . S
C1310 C578 0.752 . S
C1298 C105 0.709 . S
C1337 C349 0.689 1_556 S
C1325 C107 0.740 . S
C1364 C608 1.607 . S
C1352 C120 1.608 . S
C1379 C135 1.430 . S
C1391 C650 1.369 . S
C1418 C693 0.575 . S
C1406 C148 0.558 . S
C1433 C65 1.383 . S
C1445 C574 1.310 . S
C1472 C412 1.524 . S
C1460 C79 1.469 . S
C1487 C134 1.329 . S
C1499 C710 1.346 . S
C1526 C761 1.565 . S
C1514 C162 1.567 . S
C1541 C171 1.034 . S
C1553 C344 1.028 1_556 S
C1580 C744 1.822 . S
C1568 C190 1.841 . S
C1595 C203 0.925 . S
C1607 C417 0.926 . S
C1622 C219 1.669 . S
C1634 C727 1.648 . S
C1661 C489 1.630 . S
C1649 C189 1.581 . S
C1688 C655 0.829 . S
C1676 C204 0.781 . S
C1715 C540 1.615 . S
C1703 C213 1.630 . S
C1742 C795 0.937 . S
C1730 C177 1.019 . S
C1769 C336 1.307 1_655 S
C1757 C227 1.374 . S
C1784 C245 1.135 . S
C1796 C748 1.150 . S
C1823 C433 1.668 1_565 S
C1811 C255 1.667 . S
C1838 C273 0.794 . S
C1850 C723 0.793 . S
C1865 C231 1.281 . S
C1877 C485 1.227 . S
C1892 C241 1.598 . S
C1904 C671 1.574 . S
C1931 C544 1.248 . S
C1919 C259 1.135 . S
C1946 C269 0.661 . S
C1958 C791 0.734 . S
C1973 C275 0.634 . S
C1985 C340 0.612 . S
C2000 C288 1.564 . S
C2012 C637 1.572 . S
C2027 C303 1.384 . S
C2039 C523 1.378 . S
C2054 C316 0.457 . S
C2066 C684 0.565 . S
C2093 C807 1.338 . S
C2081 C233 1.320 . S
C2120 C421 1.428 . S
C2108 C247 1.460 . S
C2147 C467 1.312 . S
C2135 C302 1.307 . S
C2174 C378 1.533 . S
C2162 C330 1.514 . S
C2189 C35 1.113 . S
C2201 C829 1.061 . S
C2228 C773 1.876 . S
C2216 C50 1.891 . S
C2255 C850 0.931 . S
C2243 C3 0.944 . S
C2270 C23 1.732 . S
C2282 C718 1.693 . S
C2297 C45 1.684 . S
C2309 C616 1.658 1_556 S
C2336 C646 0.831 . S
C2324 C8 0.828 1_655 S
C2363 C705 1.654 . S
C2351 C21 1.657 . S
C2390 C786 0.984 . S
C2378 C37 1.026 . S
C2417 C841 1.409 . S
C2405 C161 1.421 . S
C2432 C115 1.185 1_556 S
C2444 C757 1.213 . S
C2459 C133 1.704 . S
C2471 C846 1.717 . S
C2498 C714 0.868 . S
C2486 C143 0.803 . S
C2525 C612 1.252 . S
C2513 C157 1.322 . S
C2540 C119 1.620 . S
C2552 C642 1.595 . S
C2579 C689 1.221 . S
C2567 C129 1.271 . S
C2594 C147 0.659 . S
C2606 C782 0.654 . S
C2633 C825 0.718 . S
C2621 C149 0.722 . S
C2660 C472 1.592 . S
C2648 C78 1.590 . S
C2687 C514 1.376 . S
C2675 C93 1.431 . S
C2702 C106 0.516 . S
C2714 C557 0.496 . S
C2741 C778 1.307 . S
C2729 C163 1.379 . S
C2756 C121 1.473 . S
C2768 C854 1.504 . S
C2795 C438 1.343 . S
C2783 C92 1.351 . S
C2822 C387 1.541 . S
C2810 C64 1.538 . S
C2837 C199 1.009 . S
C2849 C820 1.058 . S
C2876 C370 1.845 . S
C2864 C218 1.820 . S
C2903 C859 0.924 . S
C2891 C175 0.911 1_455 S
C2918 C191 1.664 . S
C2930 C455 1.614 . S
C2945 C217 1.593 . S
C2957 C625 1.624 . S
C2972 C176 0.783 . S
C2984 C519 0.828 . S
C2999 C185 1.640 . S
C3011 C676 1.619 . S
C3026 C205 0.948 . S
C3038 C591 1.010 . S
C3065 C812 1.374 . S
C3053 C325 1.358 . S
C3080 C287 1.170 . S
C3092 C374 1.127 . S
C3119 C875 1.623 . S
C3107 C297 1.682 . S
C3134 C315 0.749 . S
C3146 C451 0.840 . S
C3161 C329 1.261 . S
C3173 C621 1.246 . S
C3200 C535 1.568 . S
C3188 C283 1.585 . S
C3215 C301 1.158 . S
C3227 C680 1.240 . S
C3254 C587 0.713 . S
C3242 C311 0.667 . S
C3281 C816 0.685 . S
C3269 C317 0.616 . S
C3308 C501 1.573 . S
C3296 C246 1.565 . S
C3323 C261 1.369 . S
C3335 C659 1.323 . S
C3362 C548 0.454 . S
C3350 C274 0.537 . S
C3389 C603 1.328 . S
C3377 C331 1.337 . S
C3404 C289 1.445 1_554 S
C3416 C863 1.480 . S
C3443 C739 1.315 . S
C3431 C260 1.299 . S
C3470 C752 1.503 . S
C3458 C232 1.528 . S
