# Generated by pormake.
# Topology gar, (4,6)-cn, num edge types: 1
# Building blocks:
#     Node 0, Type 0, BuildingBlock: AZAVOO_clean_sbu_0, # of connection points: 4
#     Node 1, Type 0, BuildingBlock: AZAVOO_clean_sbu_0, # of connection points: 4
#     Node 2, Type 0, BuildingBlock: AZAVOO_clean_sbu_0, # of connection points: 4
#     Node 3, Type 0, BuildingBlock: AZAVOO_clean_sbu_0, # of connection points: 4
#     Node 4, Type 0, BuildingBlock: AZAVOO_clean_sbu_0, # of connection points: 4
#     Node 5, Type 0, BuildingBlock: AZAVOO_clean_sbu_0, # of connection points: 4
#     Node 6, Type 0, BuildingBlock: AZAVOO_clean_sbu_0, # of connection points: 4
#     Node 7, Type 0, BuildingBlock: AZAVOO_clean_sbu_0, # of connection points: 4
#     Node 8, Type 0, BuildingBlock: AZAVOO_clean_sbu_0, # of connection points: 4
#     Node 9, Type 0, BuildingBlock: AZAVOO_clean_sbu_0, # of connection points: 4
#     Node 10, Type 0, BuildingBlock: AZAVOO_clean_sbu_0, # of connection points: 4
#     Node 11, Type 0, BuildingBlock: AZAVOO_clean_sbu_0, # of connection points: 4
#     Node 12, Type 0, BuildingBlock: AZAVOO_clean_sbu_0, # of connection points: 4
#     Node 13, Type 0, BuildingBlock: AZAVOO_clean_sbu_0, # of connection points: 4
#     Node 14, Type 0, BuildingBlock: AZAVOO_clean_sbu_0, # of connection points: 4
#     Node 15, Type 0, BuildingBlock: AZAVOO_clean_sbu_0, # of connection points: 4
#     Node 16, Type 0, BuildingBlock: AZAVOO_clean_sbu_0, # of connection points: 4
#     Node 17, Type 0, BuildingBlock: AZAVOO_clean_sbu_0, # of connection points: 4
#     Node 18, Type 0, BuildingBlock: AZAVOO_clean_sbu_0, # of connection points: 4
#     Node 19, Type 0, BuildingBlock: AZAVOO_clean_sbu_0, # of connection points: 4
#     Node 20, Type 0, BuildingBlock: AZAVOO_clean_sbu_0, # of connection points: 4
#     Node 21, Type 0, BuildingBlock: AZAVOO_clean_sbu_0, # of connection points: 4
#     Node 22, Type 0, BuildingBlock: AZAVOO_clean_sbu_0, # of connection points: 4
#     Node 23, Type 0, BuildingBlock: AZAVOO_clean_sbu_0, # of connection points: 4
#     Node 24, Type 1, BuildingBlock: MIFKUJ_clean_sbu_0, # of connection points: 6
#     Node 25, Type 1, BuildingBlock: MIFKUJ_clean_sbu_0, # of connection points: 6
#     Node 26, Type 1, BuildingBlock: MIFKUJ_clean_sbu_0, # of connection points: 6
#     Node 27, Type 1, BuildingBlock: MIFKUJ_clean_sbu_0, # of connection points: 6
#     Node 28, Type 1, BuildingBlock: MIFKUJ_clean_sbu_0, # of connection points: 6
#     Node 29, Type 1, BuildingBlock: MIFKUJ_clean_sbu_0, # of connection points: 6
#     Node 30, Type 1, BuildingBlock: MIFKUJ_clean_sbu_0, # of connection points: 6
#     Node 31, Type 1, BuildingBlock: MIFKUJ_clean_sbu_0, # of connection points: 6
#     Node 32, Type 1, BuildingBlock: MIFKUJ_clean_sbu_0, # of connection points: 6
#     Node 33, Type 1, BuildingBlock: MIFKUJ_clean_sbu_0, # of connection points: 6
#     Node 34, Type 1, BuildingBlock: MIFKUJ_clean_sbu_0, # of connection points: 6
#     Node 35, Type 1, BuildingBlock: MIFKUJ_clean_sbu_0, # of connection points: 6
#     Node 36, Type 1, BuildingBlock: MIFKUJ_clean_sbu_0, # of connection points: 6
#     Node 37, Type 1, BuildingBlock: MIFKUJ_clean_sbu_0, # of connection points: 6
#     Node 38, Type 1, BuildingBlock: MIFKUJ_clean_sbu_0, # of connection points: 6
#     Node 39, Type 1, BuildingBlock: MIFKUJ_clean_sbu_0, # of connection points: 6
#     Edge 40, Type (0, 1), BuildingBlock: OJICUG_clean_linker_0, # of connection points: 2
#     Edge 41, Type (0, 1), BuildingBlock: OJICUG_clean_linker_0, # of connection points: 2
#     Edge 42, Type (0, 1), BuildingBlock: OJICUG_clean_linker_0, # of connection points: 2
#     Edge 43, Type (0, 1), BuildingBlock: OJICUG_clean_linker_0, # of connection points: 2
#     Edge 44, Type (0, 1), BuildingBlock: OJICUG_clean_linker_0, # of connection points: 2
#     Edge 45, Type (0, 1), BuildingBlock: OJICUG_clean_linker_0, # of connection points: 2
#     Edge 46, Type (0, 1), BuildingBlock: OJICUG_clean_linker_0, # of connection points: 2
#     Edge 47, Type (0, 1), BuildingBlock: OJICUG_clean_linker_0, # of connection points: 2
#     Edge 48, Type (0, 1), BuildingBlock: OJICUG_clean_linker_0, # of connection points: 2
#     Edge 49, Type (0, 1), BuildingBlock: OJICUG_clean_linker_0, # of connection points: 2
#     Edge 50, Type (0, 1), BuildingBlock: OJICUG_clean_linker_0, # of connection points: 2
#     Edge 51, Type (0, 1), BuildingBlock: OJICUG_clean_linker_0, # of connection points: 2
#     Edge 52, Type (0, 1), BuildingBlock: OJICUG_clean_linker_0, # of connection points: 2
#     Edge 53, Type (0, 1), BuildingBlock: OJICUG_clean_linker_0, # of connection points: 2
#     Edge 54, Type (0, 1), BuildingBlock: OJICUG_clean_linker_0, # of connection points: 2
#     Edge 55, Type (0, 1), BuildingBlock: OJICUG_clean_linker_0, # of connection points: 2
#     Edge 56, Type (0, 1), BuildingBlock: OJICUG_clean_linker_0, # of connection points: 2
#     Edge 57, Type (0, 1), BuildingBlock: OJICUG_clean_linker_0, # of connection points: 2
#     Edge 58, Type (0, 1), BuildingBlock: OJICUG_clean_linker_0, # of connection points: 2
#     Edge 59, Type (0, 1), BuildingBlock: OJICUG_clean_linker_0, # of connection points: 2
#     Edge 60, Type (0, 1), BuildingBlock: OJICUG_clean_linker_0, # of connection points: 2
#     Edge 61, Type (0, 1), BuildingBlock: OJICUG_clean_linker_0, # of connection points: 2
#     Edge 62, Type (0, 1), BuildingBlock: OJICUG_clean_linker_0, # of connection points: 2
#     Edge 63, Type (0, 1), BuildingBlock: OJICUG_clean_linker_0, # of connection points: 2
#     Edge 64, Type (0, 1), BuildingBlock: OJICUG_clean_linker_0, # of connection points: 2
#     Edge 65, Type (0, 1), BuildingBlock: OJICUG_clean_linker_0, # of connection points: 2
#     Edge 66, Type (0, 1), BuildingBlock: OJICUG_clean_linker_0, # of connection points: 2
#     Edge 67, Type (0, 1), BuildingBlock: OJICUG_clean_linker_0, # of connection points: 2
#     Edge 68, Type (0, 1), BuildingBlock: OJICUG_clean_linker_0, # of connection points: 2
#     Edge 69, Type (0, 1), BuildingBlock: OJICUG_clean_linker_0, # of connection points: 2
#     Edge 70, Type (0, 1), BuildingBlock: OJICUG_clean_linker_0, # of connection points: 2
#     Edge 71, Type (0, 1), BuildingBlock: OJICUG_clean_linker_0, # of connection points: 2
#     Edge 72, Type (0, 1), BuildingBlock: OJICUG_clean_linker_0, # of connection points: 2
#     Edge 73, Type (0, 1), BuildingBlock: OJICUG_clean_linker_0, # of connection points: 2
#     Edge 74, Type (0, 1), BuildingBlock: OJICUG_clean_linker_0, # of connection points: 2
#     Edge 75, Type (0, 1), BuildingBlock: OJICUG_clean_linker_0, # of connection points: 2
#     Edge 76, Type (0, 1), BuildingBlock: OJICUG_clean_linker_0, # of connection points: 2
#     Edge 77, Type (0, 1), BuildingBlock: OJICUG_clean_linker_0, # of connection points: 2
#     Edge 78, Type (0, 1), BuildingBlock: OJICUG_clean_linker_0, # of connection points: 2
#     Edge 79, Type (0, 1), BuildingBlock: OJICUG_clean_linker_0, # of connection points: 2
#     Edge 80, Type (0, 1), BuildingBlock: OJICUG_clean_linker_0, # of connection points: 2
#     Edge 81, Type (0, 1), BuildingBlock: OJICUG_clean_linker_0, # of connection points: 2
#     Edge 82, Type (0, 1), BuildingBlock: OJICUG_clean_linker_0, # of connection points: 2
#     Edge 83, Type (0, 1), BuildingBlock: OJICUG_clean_linker_0, # of connection points: 2
#     Edge 84, Type (0, 1), BuildingBlock: OJICUG_clean_linker_0, # of connection points: 2
#     Edge 85, Type (0, 1), BuildingBlock: OJICUG_clean_linker_0, # of connection points: 2
#     Edge 86, Type (0, 1), BuildingBlock: OJICUG_clean_linker_0, # of connection points: 2
#     Edge 87, Type (0, 1), BuildingBlock: OJICUG_clean_linker_0, # of connection points: 2
#     Edge 88, Type (0, 1), BuildingBlock: OJICUG_clean_linker_0, # of connection points: 2
#     Edge 89, Type (0, 1), BuildingBlock: OJICUG_clean_linker_0, # of connection points: 2
#     Edge 90, Type (0, 1), BuildingBlock: OJICUG_clean_linker_0, # of connection points: 2
#     Edge 91, Type (0, 1), BuildingBlock: OJICUG_clean_linker_0, # of connection points: 2
#     Edge 92, Type (0, 1), BuildingBlock: OJICUG_clean_linker_0, # of connection points: 2
#     Edge 93, Type (0, 1), BuildingBlock: OJICUG_clean_linker_0, # of connection points: 2
#     Edge 94, Type (0, 1), BuildingBlock: OJICUG_clean_linker_0, # of connection points: 2
#     Edge 95, Type (0, 1), BuildingBlock: OJICUG_clean_linker_0, # of connection points: 2
#     Edge 96, Type (0, 1), BuildingBlock: OJICUG_clean_linker_0, # of connection points: 2
#     Edge 97, Type (0, 1), BuildingBlock: OJICUG_clean_linker_0, # of connection points: 2
#     Edge 98, Type (0, 1), BuildingBlock: OJICUG_clean_linker_0, # of connection points: 2
#     Edge 99, Type (0, 1), BuildingBlock: OJICUG_clean_linker_0, # of connection points: 2
#     Edge 100, Type (0, 1), BuildingBlock: OJICUG_clean_linker_0, # of connection points: 2
#     Edge 101, Type (0, 1), BuildingBlock: OJICUG_clean_linker_0, # of connection points: 2
#     Edge 102, Type (0, 1), BuildingBlock: OJICUG_clean_linker_0, # of connection points: 2
#     Edge 103, Type (0, 1), BuildingBlock: OJICUG_clean_linker_0, # of connection points: 2
#     Edge 104, Type (0, 1), BuildingBlock: OJICUG_clean_linker_0, # of connection points: 2
#     Edge 105, Type (0, 1), BuildingBlock: OJICUG_clean_linker_0, # of connection points: 2
#     Edge 106, Type (0, 1), BuildingBlock: OJICUG_clean_linker_0, # of connection points: 2
#     Edge 107, Type (0, 1), BuildingBlock: OJICUG_clean_linker_0, # of connection points: 2
#     Edge 108, Type (0, 1), BuildingBlock: OJICUG_clean_linker_0, # of connection points: 2
#     Edge 109, Type (0, 1), BuildingBlock: OJICUG_clean_linker_0, # of connection points: 2
#     Edge 110, Type (0, 1), BuildingBlock: OJICUG_clean_linker_0, # of connection points: 2
#     Edge 111, Type (0, 1), BuildingBlock: OJICUG_clean_linker_0, # of connection points: 2
#     Edge 112, Type (0, 1), BuildingBlock: OJICUG_clean_linker_0, # of connection points: 2
#     Edge 113, Type (0, 1), BuildingBlock: OJICUG_clean_linker_0, # of connection points: 2
#     Edge 114, Type (0, 1), BuildingBlock: OJICUG_clean_linker_0, # of connection points: 2
#     Edge 115, Type (0, 1), BuildingBlock: OJICUG_clean_linker_0, # of connection points: 2
#     Edge 116, Type (0, 1), BuildingBlock: OJICUG_clean_linker_0, # of connection points: 2
#     Edge 117, Type (0, 1), BuildingBlock: OJICUG_clean_linker_0, # of connection points: 2
#     Edge 118, Type (0, 1), BuildingBlock: OJICUG_clean_linker_0, # of connection points: 2
#     Edge 119, Type (0, 1), BuildingBlock: OJICUG_clean_linker_0, # of connection points: 2
#     Edge 120, Type (0, 1), BuildingBlock: OJICUG_clean_linker_0, # of connection points: 2
#     Edge 121, Type (0, 1), BuildingBlock: OJICUG_clean_linker_0, # of connection points: 2
#     Edge 122, Type (0, 1), BuildingBlock: OJICUG_clean_linker_0, # of connection points: 2
#     Edge 123, Type (0, 1), BuildingBlock: OJICUG_clean_linker_0, # of connection points: 2
#     Edge 124, Type (0, 1), BuildingBlock: OJICUG_clean_linker_0, # of connection points: 2
#     Edge 125, Type (0, 1), BuildingBlock: OJICUG_clean_linker_0, # of connection points: 2
#     Edge 126, Type (0, 1), BuildingBlock: OJICUG_clean_linker_0, # of connection points: 2
#     Edge 127, Type (0, 1), BuildingBlock: OJICUG_clean_linker_0, # of connection points: 2
#     Edge 128, Type (0, 1), BuildingBlock: OJICUG_clean_linker_0, # of connection points: 2
#     Edge 129, Type (0, 1), BuildingBlock: OJICUG_clean_linker_0, # of connection points: 2
#     Edge 130, Type (0, 1), BuildingBlock: OJICUG_clean_linker_0, # of connection points: 2
#     Edge 131, Type (0, 1), BuildingBlock: OJICUG_clean_linker_0, # of connection points: 2
#     Edge 132, Type (0, 1), BuildingBlock: OJICUG_clean_linker_0, # of connection points: 2
#     Edge 133, Type (0, 1), BuildingBlock: OJICUG_clean_linker_0, # of connection points: 2
#     Edge 134, Type (0, 1), BuildingBlock: OJICUG_clean_linker_0, # of connection points: 2
#     Edge 135, Type (0, 1), BuildingBlock: OJICUG_clean_linker_0, # of connection points: 2
# Relax obj value: 0.137
# Max RMSD: 0.328
# Mean RMSD: 0.181
data_MOF--net-gar--node1-AZAVOO_clean_sbu_0--node2-MIFKUJ_clean_sbu_0--edge1-OJICUG_clean_linker_0
_symmetry_space_group_name_H-M    P1
_symmetry_Int_Tables_number       1
_symmetry_cell_setting            triclinic
loop_
_symmetry_equiv_pos_as_xyz
'x, y, z'
_cell_length_a     43.355576
_cell_length_b     40.866156
_cell_length_c     40.291008
_cell_angle_alpha  98.284919
_cell_angle_beta   94.636961
_cell_angle_gamma 101.2477
loop_
_atom_site_label
_atom_site_type_symbol
_atom_site_fract_x
_atom_site_fract_y
_atom_site_fract_z
_atom_type_partial_charge
Mg0 Mg 0.00624 0.2645 0.39218 0.0
O1 O 0.01679 0.3154 0.42855 0.0
O2 O 0.97946 0.31231 0.46381 0.0
Mg3 Mg 0.94172 0.26368 0.44512 0.0
C4 C 0.0048 0.32788 0.45415 0.0
C5 C 0.0633 0.25758 0.35166 0.0
O6 O 0.04019 0.23637 0.33181 0.0
O7 O 0.01856 0.23534 0.43419 0.0
O8 O 0.9754 0.23036 0.4614 0.0
O9 O 0.97821 0.28501 0.35363 0.0
O10 O 0.95795 0.26017 0.39433 0.0
C11 C 0.00218 0.22313 0.45627 0.0
C12 C 0.9536 0.2747 0.36854 0.0
O13 O 0.05706 0.27367 0.37889 0.0
Mg14 Mg 0.9869 0.76238 0.67378 0.0
O15 O 0.98305 0.70979 0.64378 0.0
O16 O 0.93672 0.69467 0.61146 0.0
Mg17 Mg 0.90852 0.73581 0.62604 0.0
C18 C 0.96366 0.68905 0.62128 0.0
C19 C 0.05492 0.74895 0.69628 0.0
O20 O 0.03893 0.72393 0.70909 0.0
O21 O 0.9918 0.78533 0.62588 0.0
O22 O 0.94215 0.77277 0.60057 0.0
O23 O 0.96575 0.74138 0.7176 0.0
O24 O 0.93842 0.75457 0.67475 0.0
C25 C 0.97121 0.78762 0.60229 0.0
C26 C 0.93861 0.74353 0.70303 0.0
O27 O 0.04021 0.76801 0.68191 0.0
Mg28 Mg 0.50736 0.76634 0.88655 0.0
O29 O 0.51803 0.81677 0.92402 0.0
O30 O 0.48084 0.81251 0.95951 0.0
Mg31 Mg 0.44361 0.76372 0.94112 0.0
C32 C 0.50596 0.82861 0.9499 0.0
C33 C 0.56394 0.7597 0.84442 0.0
O34 O 0.5408 0.73821 0.82489 0.0
O35 O 0.52077 0.7364 0.92755 0.0
O36 O 0.47828 0.73113 0.95583 0.0
O37 O 0.4782 0.78757 0.84945 0.0
O38 O 0.45929 0.76191 0.89026 0.0
C39 C 0.50494 0.72404 0.94996 0.0
C40 C 0.45422 0.77721 0.86523 0.0
O41 O 0.55786 0.77581 0.87175 0.0
Mg42 Mg 0.49405 0.2678 0.16712 0.0
O43 O 0.48707 0.21376 0.13946 0.0
O44 O 0.44031 0.20018 0.10792 0.0
Mg45 Mg 0.41468 0.24375 0.1211 0.0
C46 C 0.46666 0.19324 0.11776 0.0
C47 C 0.56111 0.25176 0.19047 0.0
O48 O 0.5446 0.22852 0.20509 0.0
O49 O 0.4994 0.28773 0.11756 0.0
O50 O 0.44941 0.27679 0.09338 0.0
O51 O 0.4719 0.25125 0.2127 0.0
O52 O 0.44612 0.26384 0.16847 0.0
C53 C 0.47878 0.28992 0.09394 0.0
C54 C 0.44556 0.25516 0.19778 0.0
O55 O 0.54701 0.27046 0.17482 0.0
Mg56 Mg 0.02554 0.79262 0.16726 0.0
O57 O 0.02413 0.74041 0.13707 0.0
O58 O 0.98385 0.72892 0.09619 0.0
Mg59 Mg 0.95568 0.77094 0.10474 0.0
C60 C 0.00784 0.72123 0.11126 0.0
C61 C 0.08758 0.80595 0.21795 0.0
O62 O 0.06996 0.81962 0.23864 0.0
O63 O 0.04042 0.81955 0.12337 0.0
O64 O -0.00514 0.81045 0.0898 0.0
O65 O -0.00479 0.76971 0.20407 0.0
O66 O 0.97719 0.78614 0.15775 0.0
C67 C 0.02389 0.82513 0.0978 0.0
C68 C 0.97132 0.77309 0.18431 0.0
O69 O 0.07621 0.79405 0.18757 0.0
Mg70 Mg 0.46791 0.68753 0.35938 0.0
O71 O 0.4786 0.74081 0.39062 0.0
O72 O 0.43899 0.74598 0.42201 0.0
Mg73 Mg 0.40363 0.69554 0.41148 0.0
C74 C 0.46552 0.75807 0.41221 0.0
C75 C 0.53094 0.7202 0.33339 0.0
O76 O 0.51328 0.74146 0.32601 0.0
O77 O 0.48136 0.66669 0.40674 0.0
O78 O 0.44195 0.67251 0.43805 0.0
O79 O 0.44258 0.70561 0.31793 0.0
O80 O 0.41967 0.68701 0.36073 0.0
C81 C 0.46825 0.66367 0.43368 0.0
C82 C 0.41794 0.70127 0.33418 0.0
O83 O 0.51902 0.69515 0.34704 0.0
Mg84 Mg 0.51687 0.28851 0.66083 0.0
O85 O 0.51727 0.23795 0.628 0.0
O86 O 0.47455 0.22517 0.58997 0.0
Mg87 Mg 0.44486 0.26493 0.60056 0.0
C88 C 0.50026 0.2188 0.60256 0.0
C89 C 0.57778 0.30156 0.71215 0.0
O90 O 0.55821 0.31196 0.73251 0.0
O91 O 0.5292 0.31681 0.61684 0.0
O92 O 0.48297 0.30377 0.58384 0.0
O93 O 0.48873 0.26255 0.6976 0.0
O94 O 0.46808 0.27932 0.65275 0.0
C95 C 0.51167 0.31979 0.59073 0.0
C96 C 0.46382 0.26483 0.67878 0.0
O97 O 0.56825 0.29192 0.6809 0.0
Mg98 Mg 0.97177 0.2196 0.86395 0.0
O99 O 0.98272 0.27221 0.89618 0.0
O100 O 0.94369 0.27601 0.92868 0.0
Mg101 Mg 0.90668 0.22655 0.91506 0.0
C102 C 0.97007 0.28861 0.91886 0.0
C103 C 0.0359 0.24845 0.83652 0.0
O104 O 0.01945 0.2697 0.82639 0.0
O105 O 0.98336 0.19677 0.91026 0.0
O106 O 0.94165 0.19778 0.93913 0.0
O107 O 0.94707 0.23827 0.8224 0.0
O108 O 0.92382 0.21902 0.86479 0.0
C109 C 0.96842 0.18986 0.93522 0.0
C110 C 0.92212 0.23296 0.8381 0.0
O111 O 0.02291 0.2257 0.8524 0.0
Mg112 Mg 0.4144 0.04907 0.31305 0.0
O113 O 0.38983 0.99353 0.30933 0.0
O114 O 0.364 0.98779 0.35462 0.0
Mg115 Mg 0.37503 0.03954 0.38864 0.0
C116 C 0.37178 0.9755 0.3263 0.0
C117 C 0.43553 0.01709 0.24713 0.0
O118 O 0.44664 -0.00021 0.26866 0.0
O119 O 0.36681 0.06139 0.30127 0.0
O120 O 0.34406 0.05878 0.34884 0.0
O121 O 0.45826 0.04016 0.33751 0.0
O122 O 0.41956 0.05403 0.36556 0.0
C123 C 0.34378 0.06435 0.31837 0.0
C124 C 0.4466 0.04505 0.36594 0.0
O125 O 0.42051 0.03959 0.25762 0.0
Mg126 Mg 0.26195 0.10779 0.47391 0.0
O127 O 0.26178 0.13945 0.5259 0.0
O128 O 0.30685 0.17811 0.53774 0.0
Mg129 Mg 0.33778 0.16717 0.49504 0.0
C130 C 0.27986 0.16438 0.5454 0.0
C131 C 0.19617 0.05918 0.46908 0.0
O132 O 0.21404 0.03707 0.46239 0.0
O133 O 0.25724 0.15127 0.44443 0.0
O134 O 0.30592 0.18366 0.45418 0.0
O135 O 0.28164 0.06992 0.49894 0.0
O136 O 0.31125 0.11375 0.48237 0.0
C137 C 0.27787 0.17627 0.43875 0.0
C138 C 0.30952 0.08759 0.49724 0.0
O139 O 0.20857 0.09055 0.47299 0.0
Mg140 Mg 0.12338 0.00709 0.79759 0.0
O141 O 0.15241 0.061 0.80158 0.0
O142 O 0.18488 0.07326 0.84947 0.0
Mg143 Mg 0.17194 0.02885 0.8787 0.0
C144 C 0.17466 0.08096 0.82163 0.0
C145 C 0.08929 0.01622 0.72779 0.0
O146 O 0.07043 0.02939 0.74724 0.0
O147 O 0.16712 0.98504 0.78869 0.0
O148 O 0.19394 0.99543 0.84018 0.0
O149 O 0.08427 0.02542 0.82328 0.0
O150 O 0.12438 0.01001 0.84972 0.0
C151 C 0.19038 0.98228 0.80895 0.0
C152 C 0.09828 0.02042 0.85117 0.0
O153 O 0.1123 0.00573 0.74114 0.0
Mg154 Mg 0.2744 0.90511 0.01855 0.0
O155 O 0.25943 0.86514 0.97041 0.0
O156 O 0.29498 0.8319 0.97003 0.0
Mg157 Mg 0.33359 0.85176 0.01379 0.0
C158 C 0.26995 0.8396 0.95731 0.0
C159 C 0.22481 0.94572 0.03976 0.0
O160 O 0.24769 0.95687 0.06461 0.0
O161 O 0.25829 0.86549 0.05143 0.0
O162 O 0.29768 0.83738 0.04985 0.0
O163 O 0.30418 0.9403 0.9904 0.0
O164 O 0.32022 0.90068 0.01514 0.0
C165 C 0.27205 0.84285 0.06078 0.0
C166 C 0.32615 0.92403 -0.00305 0.0
O167 O 0.22765 0.9222 0.01651 0.0
Mg168 Mg 0.28526 0.3943 0.06547 0.0
O169 O 0.27609 0.36467 0.01122 0.0
O170 O 0.31318 0.33414 0.00357 0.0
Mg171 Mg 0.34757 0.34622 0.05239 0.0
C172 C 0.2885 0.3438 0.99267 0.0
C173 C 0.22827 0.42538 0.04065 0.0
O174 O 0.24991 0.43796 0.02228 0.0
O175 O 0.26905 0.34587 0.08859 0.0
O176 O 0.30981 0.32017 0.0834 0.0
O177 O 0.31565 0.43835 0.0484 0.0
O178 O 0.33406 0.39581 0.06455 0.0
C179 C 0.28311 0.32203 0.09413 0.0
C180 C 0.33928 0.42377 0.05256 0.0
O181 O 0.23508 0.40577 0.06078 0.0
Mg182 Mg 0.78023 0.12199 0.01162 0.0
O183 O 0.79155 0.1562 0.06227 0.0
O184 O 0.8396 0.18919 0.06791 0.0
Mg185 Mg 0.86087 0.17107 0.01975 0.0
C186 C 0.81306 0.17991 0.07893 0.0
C187 C 0.71403 0.13415 0.03148 0.0
O188 O 0.72813 0.16622 0.03585 0.0
O189 O 0.77533 0.16749 0.98733 0.0
O190 O 0.8257 0.19485 0.99017 0.0
O191 O 0.79875 0.08126 0.03152 0.0
O192 O 0.82744 0.12103 0.00805 0.0
C193 C 0.79615 0.1919 0.98121 0.0
C194 C 0.82559 0.09426 0.02191 0.0
O195 O 0.72897 0.11153 0.02119 0.0
Mg196 Mg 0.1266 0.49125 0.27522 0.0
O197 O 0.15508 0.54444 0.27439 0.0
O198 O 0.18843 0.55914 0.32201 0.0
Mg199 Mg 0.17846 0.51787 0.35458 0.0
C200 C 0.17719 0.56533 0.29385 0.0
C201 C 0.0813 0.47531 0.21107 0.0
O202 O 0.06267 0.46717 0.23406 0.0
O203 O 0.16921 0.46759 0.26662 0.0
O204 O 0.19701 0.48055 0.31758 0.0
O205 O 0.08957 0.51416 0.29815 0.0
O206 O 0.13054 0.50208 0.32702 0.0
C207 C 0.19239 0.46517 0.28715 0.0
C208 C 0.10608 0.5157 0.32678 0.0
O209 O 0.11089 0.48505 0.21971 0.0
Mg210 Mg 0.78437 0.89009 0.57002 0.0
O211 O 0.77548 0.86147 0.51551 0.0
O212 O 0.81272 0.83121 0.50744 0.0
Mg213 Mg 0.84711 0.84313 0.55622 0.0
C214 C 0.78791 0.84077 0.49679 0.0
C215 C 0.72594 0.92006 0.54792 0.0
O216 O 0.74713 0.93595 0.53102 0.0
O217 O 0.76822 0.84095 0.5907 0.0
O218 O 0.80904 0.81537 0.58588 0.0
O219 O 0.81403 0.93517 0.55418 0.0
O220 O 0.83298 0.89236 0.56906 0.0
C221 C 0.78193 0.81682 0.59574 0.0
C222 C 0.83787 0.92078 0.55787 0.0
O223 O 0.73389 0.89946 0.56619 0.0
Mg224 Mg 0.89744 0.01398 0.25883 0.0
O225 O 0.85969 0.96275 0.252 0.0
O226 O 0.83064 0.97005 0.29503 0.0
Mg227 Mg 0.84926 0.01995 0.32991 0.0
C228 C 0.83651 0.95229 0.26847 0.0
C229 C 0.94332 0.02268 0.20623 0.0
O230 O 0.95718 0.04258 0.23418 0.0
O231 O 0.85969 0.04296 0.24183 0.0
O232 O 0.83491 0.04779 0.28832 0.0
O233 O 0.93167 0.99435 0.29179 0.0
O234 O 0.89481 0.02004 0.31045 0.0
C235 C 0.83903 0.05413 0.25873 0.0
C236 C 0.91764 0.00528 0.31696 0.0
O237 O 0.91542 0.00534 0.20642 0.0
Mg238 Mg 0.28404 0.636 0.52205 0.0
O239 O 0.29366 0.67061 0.57206 0.0
O240 O 0.3389 0.70867 0.57703 0.0
Mg241 Mg 0.36027 0.69516 0.52794 0.0
C242 C 0.31354 0.69592 0.58856 0.0
C243 C 0.21685 0.63997 0.54368 0.0
O244 O 0.22923 0.67254 0.54903 0.0
O245 O 0.27258 0.67902 0.49747 0.0
O246 O 0.32015 0.71307 0.4998 0.0
O247 O 0.30973 0.60022 0.54256 0.0
O248 O 0.33163 0.6429 0.5179 0.0
C249 C 0.29025 0.70578 0.49125 0.0
C250 C 0.33464 0.61775 0.53284 0.0
O251 O 0.23331 0.61913 0.53252 0.0
Mg252 Mg 0.39836 0.51731 0.75301 0.0
O253 O 0.36124 0.46576 0.74681 0.0
O254 O 0.33344 0.47176 0.79115 0.0
Mg255 Mg 0.3527 0.52139 0.82648 0.0
C256 C 0.33888 0.45458 0.764 0.0
C257 C 0.44425 0.52117 0.70015 0.0
O258 O 0.46025 0.53466 0.72965 0.0
O259 O 0.35987 0.54705 0.7389 0.0
O260 O 0.33692 0.55046 0.78667 0.0
O261 O 0.43383 0.49699 0.78395 0.0
O262 O 0.39745 0.52192 0.80504 0.0
C263 C 0.33992 0.55782 0.75725 0.0
C264 C 0.42041 0.50689 0.81 0.0
O265 O 0.41453 0.50958 0.69922 0.0
Mg266 Mg 0.62493 0.99 0.76898 0.0
O267 O 0.65423 0.04287 0.76785 0.0
O268 O 0.68762 0.05729 0.81543 0.0
Mg269 Mg 0.67744 0.01634 0.84825 0.0
C270 C 0.67658 0.06354 0.78723 0.0
C271 C 0.57753 0.97618 0.70751 0.0
O272 O 0.56088 0.97066 0.73273 0.0
O273 O 0.66708 0.96509 0.75999 0.0
O274 O 0.69493 0.97854 0.81096 0.0
O275 O 0.58863 0.01374 0.7932 0.0
O276 O 0.62939 0.00071 0.82117 0.0
C277 C 0.6902 0.9627 0.78071 0.0
C278 C 0.605 0.01439 0.82165 0.0
O279 O 0.60756 0.98365 0.71323 0.0
Mg280 Mg 0.76744 0.60706 0.97155 0.0
O281 O 0.77435 0.6406 0.02365 0.0
O282 O 0.82303 0.67279 0.03032 0.0
Mg283 Mg 0.84636 0.66156 0.98196 0.0
C284 C 0.7966 0.66285 0.04139 0.0
C285 C 0.70068 0.56146 0.96913 0.0
O286 O 0.71655 0.53928 0.95635 0.0
O287 O 0.761 0.65094 0.94346 0.0
O288 O 0.81051 0.68109 0.94835 0.0
O289 O 0.78973 0.56892 0.99459 0.0
O290 O 0.81614 0.61032 0.97197 0.0
C291 C 0.78134 0.67558 0.93663 0.0
C292 C 0.81659 0.58513 0.98771 0.0
O293 O 0.71477 0.5923 0.97721 0.0
Mg294 Mg 0.90848 0.55045 0.80683 0.0
O295 O 0.8823 0.49557 0.80328 0.0
O296 O 0.85758 0.49 0.84931 0.0
Mg297 Mg 0.8713 0.54146 0.8839 0.0
C298 C 0.86421 0.47779 0.8204 0.0
C299 C 0.92704 0.51635 0.74188 0.0
O300 O 0.93641 0.49887 0.76423 0.0
O301 O 0.86126 0.56467 0.79696 0.0
O302 O 0.84029 0.56226 0.84561 0.0
O303 O 0.95266 0.54011 0.82963 0.0
O304 O 0.91486 0.55459 0.85895 0.0
C305 C 0.83914 0.56828 0.81528 0.0
C306 C 0.94158 0.54501 0.85836 0.0
O307 O 0.91338 0.54036 0.75135 0.0
Mg308 Mg 0.77879 0.39404 0.51347 0.0
O309 O 0.76469 0.35683 0.46364 0.0
O310 O 0.79771 0.32084 0.46316 0.0
Mg311 Mg 0.83464 0.33732 0.50901 0.0
C312 C 0.77426 0.33095 0.4499 0.0
C313 C 0.72854 0.43611 0.53427 0.0
O314 O 0.73076 0.41278 0.50921 0.0
O315 O 0.75912 0.35339 0.54342 0.0
O316 O 0.79679 0.32308 0.54352 0.0
O317 O 0.81073 0.42961 0.48831 0.0
O318 O 0.82443 0.38809 0.51188 0.0
C319 C 0.77103 0.32969 0.55313 0.0
C320 C 0.83193 0.41247 0.49512 0.0
O321 O 0.73162 0.4133 0.51027 0.0
Mg322 Mg 0.62359 0.50751 0.29229 0.0
O323 O 0.6548 0.56047 0.29631 0.0
O324 O 0.68812 0.57054 0.34359 0.0
Mg325 Mg 0.67381 0.5264 0.37271 0.0
C326 C 0.67789 0.57924 0.31626 0.0
C327 C 0.58856 0.51558 0.22212 0.0
O328 O 0.56907 0.52799 0.24127 0.0
O329 O 0.66554 0.48255 0.28203 0.0
O330 O 0.69226 0.49032 0.33329 0.0
O331 O 0.58582 0.52795 0.31891 0.0
O332 O 0.62581 0.51202 0.34463 0.0
C333 C 0.68793 0.47744 0.30196 0.0
C334 C 0.6005 0.52385 0.34683 0.0
O335 O 0.61198 0.50599 0.2358 0.0
Zn336 Zn 0.05793 0.01889 0.0442 0.0
Zn337 Zn 0.99032 0.02048 0.01558 0.0
C338 C 0.05558 0.95686 0.06363 0.0
O339 O 0.07272 0.97882 0.08857 0.0
C340 C -0.00318 0.08057 0.99285 0.0
O341 O 0.98444 0.05712 0.96685 0.0
O342 O 0.10552 0.02259 0.05477 0.0
O343 O 0.05423 0.03648 -0.00073 0.0
O344 O 0.01072 0.00044 0.97607 0.0
C345 C 0.11427 0.00447 0.03025 0.0
O346 O 0.0937 0.99174 0.00366 0.0
O347 O 0.04309 0.96778 0.03884 0.0
C348 C 0.93069 0.02874 0.02929 0.0
O349 O 0.94704 0.03656 0.05919 0.0
O350 O 0.94361 0.01728 0.00408 0.0
O351 O -0.00633 0.00092 0.05868 0.0
O352 O 0.0359 0.0373 0.08405 0.0
O353 O 0.0042 0.07172 0.02101 0.0
C354 C 0.03746 0.01852 0.97322 0.0
C355 C 0.00886 0.01878 0.08557 0.0
Zn356 Zn 0.25416 0.77249 0.31329 0.0
Zn357 Zn 0.26887 0.77665 0.24623 0.0
C358 C 0.2091 0.70713 0.29171 0.0
O359 O 0.18683 0.72367 0.2993 0.0
C360 C 0.31357 0.83857 0.26366 0.0
O361 O 0.32756 0.8222 0.24091 0.0
O362 O 0.24907 0.77642 0.36238 0.0
O363 O 0.3017 0.77908 0.31214 0.0
O364 O 0.29638 0.74668 0.26267 0.0
C365 C 0.25884 0.75284 0.37441 0.0
O366 O 0.27051 0.73091 0.3548 0.0
O367 O 0.23764 0.72304 0.29427 0.0
C368 C 0.25441 0.79836 0.18669 0.0
O369 O 0.23918 0.81478 0.20803 0.0
O370 O 0.27134 0.77908 0.19743 0.0
O371 O 0.22218 0.76349 0.24762 0.0
O372 O 0.22614 0.80069 0.29313 0.0
O373 O 0.28675 0.82418 0.2708 0.0
C374 C 0.31159 0.75763 0.29177 0.0
C375 C 0.21044 0.78493 0.26561 0.0
Zn376 Zn 0.4774 0.01953 0.53574 0.0
Zn377 Zn 0.54162 0.95922 0.5091 0.0
C378 C 0.51904 0.08541 0.55792 0.0
O379 O 0.53157 0.07054 0.58081 0.0
C380 C 0.52885 0.89509 0.46863 0.0
O381 O 0.55258 0.91068 0.45458 0.0
O382 O 0.43036 0.02034 0.53108 0.0
O383 O 0.49105 0.98795 0.50029 0.0
O384 O 0.5304 0.98401 0.47121 0.0
C385 C 0.42368 0.04769 0.54522 0.0
O386 O 0.44578 0.06981 0.56546 0.0
O387 O 0.499 0.0675 0.53428 0.0
C388 C 0.59681 0.93927 0.53467 0.0
O389 O 0.57492 0.91955 0.54765 0.0
O390 O 0.58854 0.96023 0.51704 0.0
O391 O 0.52485 0.97843 0.552 0.0
O392 O 0.49351 0.00639 0.57956 0.0
O393 O 0.51941 0.911 0.49399 0.0
C394 C 0.50554 0.99545 0.47548 0.0
C395 C 0.51555 0.98969 0.57974 0.0
Zn396 Zn 0.28526 0.24396 0.7491 0.0
Zn397 Zn 0.22378 0.2704 0.78379 0.0
C398 C 0.26133 0.19918 0.68529 0.0
O399 O 0.26566 0.17562 0.70312 0.0
C400 C 0.23996 0.30501 0.85083 0.0
O401 O 0.22223 0.3235 0.83752 0.0
O402 O 0.32918 0.23598 0.74435 0.0
O403 O 0.29249 0.29506 0.76029 0.0
O404 O 0.24502 0.30765 0.75971 0.0
C405 C 0.33981 0.25042 0.72048 0.0
O406 O 0.32266 0.26847 0.7056 0.0
O407 O 0.26435 0.2294 0.7004 0.0
C408 C 0.16525 0.25432 0.80759 0.0
O409 O 0.18138 0.23409 0.82036 0.0
O410 O 0.17871 0.27448 0.78928 0.0
O411 O 0.21872 0.22133 0.76251 0.0
O412 O 0.26528 0.21413 0.78117 0.0
O413 O 0.2457 0.27951 0.83204 0.0
C414 C 0.27462 0.31604 0.7577 0.0
C415 C 0.23543 0.20406 0.77687 0.0
Zn416 Zn 0.02125 0.96492 0.52067 0.0
Zn417 Zn 0.01004 0.03493 0.51338 0.0
C418 C 0.05933 0.98557 0.58293 0.0
O419 O 0.07705 0.96885 0.56508 0.0
C420 C 0.96756 0.0199 0.45582 0.0
O421 O 0.95218 0.03416 0.47867 0.0
O422 O 0.02175 0.91618 0.52396 0.0
O423 O 0.97576 0.96401 0.50564 0.0
O424 O 0.97643 0.011 0.53987 0.0
C425 C 0.00125 0.90542 0.54284 0.0
O426 O 0.98517 0.9263 0.55759 0.0
O427 O 0.0332 0.98912 0.56872 0.0
C428 C 0.02673 0.10137 0.49915 0.0
O429 O 0.04648 0.08629 0.48283 0.0
O430 O 0.00805 0.08449 0.51637 0.0
O431 O 0.05671 0.03414 0.52154 0.0
O432 O 0.05403 0.98373 0.49217 0.0
O433 O -0.00468 0.01623 0.46459 0.0
C434 C 0.96177 0.98158 0.52555 0.0
C435 C 0.06922 0.01383 0.50268 0.0
Zn436 Zn 0.25092 0.80606 0.75333 0.0
Zn437 Zn 0.26908 0.73557 0.76908 0.0
C438 C 0.1913 0.78544 0.71362 0.0
O439 O 0.20604 0.80672 0.69567 0.0
C440 C 0.32407 0.75753 0.81232 0.0
O441 O 0.30428 0.73953 0.82911 0.0
O442 O 0.24685 0.85417 0.75113 0.0
O443 O 0.26034 0.80438 0.80242 0.0
O444 O 0.24418 0.75035 0.80661 0.0
C445 C 0.25985 0.87843 0.77454 0.0
O446 O 0.28043 0.87309 0.79786 0.0
O447 O 0.20649 0.7792 0.73944 0.0
C448 C 0.29174 0.67719 0.74523 0.0
O449 O 0.30703 0.69962 0.72883 0.0
O450 O 0.27248 0.68627 0.76525 0.0
O451 O 0.25189 0.74086 0.72332 0.0
O452 O 0.28048 0.79053 0.72102 0.0
O453 O 0.31439 0.76127 0.7827 0.0
C454 C 0.24905 0.7816 0.81918 0.0
C455 C 0.27092 0.75959 0.70829 0.0
Zn456 Zn 0.52807 0.03682 0.00255 0.0
Zn457 Zn 0.50871 0.00836 0.06049 0.0
C458 C 0.58073 0.0879 0.03081 0.0
O459 O 0.5624 0.10585 0.01754 0.0
C460 C 0.45617 0.96533 0.01975 0.0
O461 O 0.46865 0.94285 0.03329 0.0
O462 O 0.53629 0.04847 0.95699 0.0
O463 O 0.5214 0.98569 0.99341 0.0
O464 O 0.53803 0.97826 0.04407 0.0
C465 C 0.5617 0.0394 0.94976 0.0
O466 O 0.57647 0.02466 0.97114 0.0
O467 O 0.56988 0.05661 0.0305 0.0
C468 C 0.47041 0.00918 0.11192 0.0
O469 O 0.45784 0.02614 0.09105 0.0
O470 O 0.49394 0.99664 0.10391 0.0
O471 O 0.52208 0.05906 0.07061 0.0
O472 O 0.49597 0.06159 0.02259 0.0
O473 O 0.46956 0.99629 0.02742 0.0
C474 C 0.53273 0.9677 0.01247 0.0
C475 C 0.5047 0.07376 0.05354 0.0
Zn476 Zn 0.26652 0.20272 0.25041 0.0
Zn477 Zn 0.24338 0.28067 0.27802 0.0
C478 C 0.32761 0.24851 0.25553 0.0
O479 O 0.31058 0.27107 0.25096 0.0
C480 C 0.19144 0.27875 0.31537 0.0
O481 O 0.21438 0.29879 0.33647 0.0
O482 O 0.26504 0.15254 0.24386 0.0
O483 O 0.24304 0.21351 0.29133 0.0
O484 O 0.26991 0.26397 0.31364 0.0
C485 C 0.25399 0.13471 0.26531 0.0
O486 O 0.23429 0.1457 0.28505 0.0
O487 O 0.31387 0.2196 0.26065 0.0
C488 C 0.23413 0.34173 0.26323 0.0
O489 O 0.21594 0.31921 0.23952 0.0
O490 O 0.25063 0.33149 0.28559 0.0
O491 O 0.24762 0.2687 0.22819 0.0
O492 O 0.25553 0.21882 0.2059 0.0
O493 O 0.19785 0.26598 0.28669 0.0
C494 C 0.25871 0.23357 0.31678 0.0
C495 C 0.25083 0.24805 0.20261 0.0
Zn496 Zn 0.52367 0.46687 0.01351 0.0
Zn497 Zn 0.51217 0.53599 0.00675 0.0
C498 C 0.56106 0.48615 0.07682 0.0
O499 O 0.57934 0.47002 0.05918 0.0
C500 C 0.47032 0.51903 0.94825 0.0
O501 O 0.45382 0.53214 0.97064 0.0
O502 O 0.52605 0.4184 0.01497 0.0
O503 O 0.47757 0.46476 -0.00043 0.0
O504 O 0.47824 0.51226 0.03306 0.0
C505 C 0.5058 0.40591 0.03323 0.0
O506 O 0.48857 0.4252 0.04849 0.0
O507 O 0.53515 0.48979 0.06215 0.0
C508 C 0.52929 0.60212 0.99234 0.0
O509 O 0.54947 0.58704 0.97678 0.0
O510 O 0.51005 0.5853 0.00907 0.0
O511 O 0.55887 0.53623 0.01688 0.0
O512 O 0.5563 0.48703 0.98546 0.0
O513 O 0.49846 0.51691 0.95763 0.0
C514 C 0.46365 0.48259 0.01934 0.0
C515 C 0.57175 0.51662 -0.0023 0.0
Zn516 Zn 0.75818 0.30177 0.24338 0.0
Zn517 Zn 0.7721 0.23182 0.26034 0.0
C518 C 0.69768 0.28287 0.20532 0.0
O519 O 0.71269 0.30344 0.18688 0.0
C520 C 0.82575 0.25093 0.30559 0.0
O521 O 0.80474 0.23205 0.32038 0.0
O522 O 0.75584 0.35101 0.24273 0.0
O523 O 0.76943 0.30046 0.2927 0.0
O524 O 0.74655 0.248 0.29628 0.0
C525 C 0.73681 0.35976 0.26309 0.0
O526 O 0.72173 0.33725 0.27952 0.0
O527 O 0.71297 0.27624 0.23088 0.0
C528 C 0.7921 0.1719 0.23824 0.0
O529 O 0.80744 0.19299 0.22052 0.0
O530 O 0.77361 0.1825 0.25834 0.0
O531 O 0.75629 0.23547 0.21346 0.0
O532 O 0.7861 0.28401 0.20943 0.0
O533 O 0.81772 0.25618 0.276 0.0
C534 C 0.75524 0.27905 0.30938 0.0
C535 C 0.77528 0.25301 0.1974 0.0
Zn536 Zn 0.03186 0.53673 0.50749 0.0
Zn537 Zn 0.01131 0.50712 0.56296 0.0
C538 C 0.08372 0.58831 0.53843 0.0
O539 O 0.06536 0.6066 0.52581 0.0
C540 C 0.96125 0.4621 0.52346 0.0
O541 O 0.97403 0.4426 0.54118 0.0
O542 O 0.03984 0.54979 0.46268 0.0
O543 O 0.02637 0.4857 0.49732 0.0
O544 O 0.0417 0.47765 0.54814 0.0
C545 C 0.06625 0.54356 0.45528 0.0
O546 O 0.08287 0.53024 0.47637 0.0
O547 O 0.0732 0.55674 0.53657 0.0
C548 C 0.96947 0.50642 0.61039 0.0
O549 O 0.95809 0.52289 0.58823 0.0
O550 O -0.00597 0.49469 0.60493 0.0
O551 O 0.02376 0.55793 0.57452 0.0
O552 O -0.00169 0.56015 0.52621 0.0
O553 O 0.97351 0.49343 0.52794 0.0
C554 C 0.03694 0.46727 0.51646 0.0
C555 C 0.00637 0.57238 0.5572 0.0
Zn556 Zn 0.78773 0.74203 0.24421 0.0
Zn557 Zn 0.72146 0.76726 0.28905 0.0
C558 C 0.78513 0.69679 0.18346 0.0
O559 O 0.80385 0.68523 0.20408 0.0
C560 C 0.73536 0.79851 0.35652 0.0
O561 O 0.71642 0.81605 0.3436 0.0
O562 O 0.83476 0.74506 0.24554 0.0
O563 O 0.78315 0.79104 0.25039 0.0
O564 O 0.74181 0.80846 0.27008 0.0
C565 C 0.84478 0.75976 0.22157 0.0
O566 O 0.82496 0.7723 0.20321 0.0
O567 O 0.77154 0.72009 0.19545 0.0
C568 C 0.66266 0.74242 0.30922 0.0
O569 O 0.68078 0.7238 0.32163 0.0
O570 O 0.67491 0.76519 0.29289 0.0
O571 O 0.72318 0.72209 0.26215 0.0
O572 O 0.76942 0.71136 0.27624 0.0
O573 O 0.74233 0.77402 0.33733 0.0
C574 C 0.76817 0.81444 0.25786 0.0
C575 C 0.73958 0.70422 0.27601 0.0
Zn576 Zn 0.74648 0.27227 0.81275 0.0
Zn577 Zn 0.76014 0.27895 0.74362 0.0
C578 C 0.70706 0.20563 0.78877 0.0
O579 O 0.68405 0.22062 0.79741 0.0
C580 C 0.80208 0.34236 0.75673 0.0
O581 O 0.81639 0.32522 0.73493 0.0
O582 O 0.74463 0.27084 0.86238 0.0
O583 O 0.79332 0.28882 0.80974 0.0
O584 O 0.79119 0.25392 0.76252 0.0
C585 C 0.76401 0.25323 0.87135 0.0
O586 O 0.77912 0.23861 0.8486 0.0
O587 O 0.73515 0.22288 0.7917 0.0
C588 C 0.74377 0.29189 0.67955 0.0
O589 O 0.72537 0.30752 0.69749 0.0
O590 O 0.76255 0.27686 0.69428 0.0
O591 O 0.71385 0.26374 0.74629 0.0
O592 O 0.71387 0.29672 0.79416 0.0
O593 O 0.77549 0.32806 0.76452 0.0
C594 C 0.8063 0.26931 0.79055 0.0
C595 C 0.70015 0.28268 0.76506 0.0
Zn596 Zn 0.75263 0.7061 0.75139 0.0
Zn597 Zn 0.74645 0.78078 0.77576 0.0
C598 C 0.82158 0.71631 0.76328 0.0
O599 O 0.8161 0.69106 0.78028 0.0
C600 C 0.69243 0.77938 0.80861 0.0
O601 O 0.71512 0.79922 0.83017 0.0
O602 O 0.75532 0.6569 0.74615 0.0
O603 O 0.73539 0.71696 0.79615 0.0
O604 O 0.7703 0.76402 0.81339 0.0
C605 C 0.74639 0.6389 0.76827 0.0
O606 O 0.72708 0.64886 0.78915 0.0
O607 O 0.7986 0.72873 0.75277 0.0
C608 C 0.7366 0.84113 0.75932 0.0
O609 O 0.72108 0.81811 0.7343 0.0
O610 O 0.75213 0.83164 0.7831 0.0
O611 O 0.75707 0.77087 0.72781 0.0
O612 O 0.73288 0.71795 0.70853 0.0
O613 O 0.69957 0.76594 0.78048 0.0
C614 C 0.75442 0.73641 0.81969 0.0
C615 C 0.74502 0.74748 0.70331 0.0
Zn616 Zn 0.56454 0.51305 0.54636 0.0
Zn617 Zn 0.50642 0.5539 0.52247 0.0
C618 C 0.53693 0.43742 0.52782 0.0
O619 O 0.52768 0.4392 0.49639 0.0
C620 C 0.54033 0.6242 0.54243 0.0
O621 O 0.56004 0.649 0.56245 0.0
O622 O 0.6116 0.51526 0.55627 0.0
O623 O 0.5597 0.52298 0.4983 0.0
O624 O 0.51938 0.54121 0.47664 0.0
C625 C 0.61877 0.49533 0.53205 0.0
O626 O 0.59674 0.48062 0.50722 0.0
O627 O 0.54967 0.46401 0.5484 0.0
C628 C 0.45373 0.57727 0.54349 0.0
O629 O 0.468 0.57515 0.57286 0.0
O630 O 0.46621 0.56969 0.51677 0.0
O631 O 0.49705 0.51749 0.55182 0.0
O632 O 0.54233 0.53487 0.58393 0.0
O633 O 0.53861 0.59399 0.54784 0.0
C634 C 0.5452 0.53162 0.47342 0.0
C635 C 0.51235 0.52441 0.5811 0.0
Zn636 Zn 0.98607 0.51798 0.03801 0.0
Zn637 Zn 0.05227 0.48884 0.01452 0.0
C638 C 0.01596 0.58228 0.07687 0.0
O639 O 0.00927 0.5654 0.10166 0.0
C640 C 0.03256 0.42618 0.97448 0.0
O641 O 0.05388 0.4424 0.95792 0.0
O642 O 0.94023 0.52409 0.03651 0.0
O643 O 0.99028 0.49304 0.99279 0.0
O644 O 0.03696 0.51492 0.97951 0.0
C645 C 0.93614 0.54667 0.01875 0.0
O646 O 0.96029 0.5614 0.00477 0.0
O647 O 0.01153 0.56633 0.04678 0.0
C648 C 0.10517 0.46209 0.03211 0.0
O649 O 0.08339 0.44756 0.04925 0.0
O650 O 0.09807 0.48304 0.01364 0.0
O651 O 0.04908 0.50895 0.06248 0.0
O652 O 5e-05 0.49346 0.07427 0.0
O653 O 0.02624 0.44142 0.00209 0.0
C654 C 0.00693 0.50879 0.97338 0.0
C655 C 0.02966 0.49596 0.0814 0.0
C656 C 0.00869 0.15693 0.95169 0.0
C657 C 0.98079 0.16847 0.95779 0.0
H658 H 0.03634 0.12002 0.9594 0.0
C659 C 0.96296 0.15579 0.9826 0.0
H660 H 0.02329 0.16635 0.93312 0.0
C661 C 0.97099 0.12959 -0.00185 0.0
C662 C -0.00311 0.11575 0.98913 0.0
H663 H 0.94148 0.16423 0.98817 0.0
H664 H 0.95521 0.11802 0.0147 0.0
C665 C 0.01647 0.1306 0.967 0.0
C666 C 0.13604 0.78294 0.20908 0.0
C667 C 0.11956 0.80208 0.23021 0.0
H668 H 0.17732 0.76245 0.20375 0.0
C669 C 0.13351 0.81628 0.2632 0.0
H670 H 0.12604 0.7716 0.18354 0.0
C671 C 0.16325 0.81112 0.27485 0.0
C672 C 0.17936 0.79144 0.25378 0.0
H673 H 0.12139 0.83118 0.28009 0.0
H674 H 0.1734 0.82216 0.30041 0.0
C675 C 0.16547 0.77757 0.22075 0.0
C676 C 0.4699 0.81151 0.45315 0.0
C677 C 0.48181 0.79313 0.42667 0.0
H678 H 0.4755 0.85799 0.4873 0.0
C679 C 0.50953 0.80851 0.41437 0.0
H680 H 0.44866 0.80042 0.46332 0.0
C681 C 0.52486 0.84159 0.4281 0.0
C682 C 0.51291 0.85992 0.45453 0.0
H683 H 0.51937 0.7951 0.39401 0.0
H684 H 0.5461 0.85276 0.41797 0.0
C685 C 0.48533 0.84451 0.46699 0.0
C686 C 0.40561 0.25634 0.66568 0.0
C687 C 0.43151 0.25416 0.68789 0.0
H688 H 0.35644 0.25634 0.65858 0.0
C689 C 0.42621 0.2461 0.72005 0.0
H690 H 0.40856 0.26232 0.64075 0.0
C691 C 0.3958 0.24279 0.7305 0.0
C692 C 0.37062 0.24771 0.70889 0.0
H693 H 0.44573 0.24424 0.73773 0.0
H694 H 0.39242 0.23838 0.75595 0.0
C695 C 0.37559 0.25315 0.67603 0.0
C696 C 0.01196 0.82854 0.57942 0.0
C697 C 0.98013 0.81241 0.57951 0.0
H698 H 0.04387 0.87093 0.56656 0.0
C699 C 0.95631 0.82384 0.56151 0.0
H700 H 0.03088 0.82018 0.59286 0.0
C701 C 0.96378 0.85293 0.54704 0.0
C702 C -0.00478 0.87056 0.54943 0.0
H703 H 0.93158 0.812 0.56085 0.0
H704 H 0.94473 0.86281 0.53573 0.0
C705 C 0.01948 0.8574 0.56423 0.0
C706 C 0.39741 0.77313 0.87399 0.0
C707 C 0.42164 0.77948 0.85322 0.0
H708 H 0.34774 0.76195 0.87745 0.0
C709 C 0.41361 0.7834 0.81968 0.0
H710 H 0.40268 0.77045 0.90001 0.0
C711 C 0.38175 0.7783 0.80651 0.0
C712 C 0.35755 0.76932 0.82677 0.0
H713 H 0.43178 0.78829 0.80304 0.0
H714 H 0.3761 0.77949 0.78008 0.0
C715 C 0.3658 0.76819 0.86096 0.0
C716 C 0.5002 0.14984 0.11724 0.0
C717 C 0.47502 0.16154 0.10204 0.0
H718 H 0.52918 0.113 0.1139 0.0
C719 C 0.45933 0.14382 0.07078 0.0
H720 H 0.51279 0.16288 0.1413 0.0
C721 C 0.4691 0.11545 0.05477 0.0
C722 C 0.49443 0.10397 0.06994 0.0
H723 H 0.43998 0.15232 0.05829 0.0
H724 H 0.45675 0.10245 0.0306 0.0
C725 C 0.50964 0.12126 0.1015 0.0
C726 C 0.12109 0.28392 0.36442 0.0
C727 C 0.09611 0.26257 0.34243 0.0
H728 H 0.17063 0.30558 0.37321 0.0
C729 C 0.10279 0.24606 0.31155 0.0
H730 H 0.11682 0.29696 0.38843 0.0
C731 C 0.13376 0.25103 0.30274 0.0
C732 C 0.15869 0.27255 0.3247 0.0
H733 H 0.08409 0.2294 0.29403 0.0
H734 H 0.13811 0.23814 0.2787 0.0
C735 C 0.152 0.2888 0.35568 0.0
C736 C 0.99031 0.04236 0.17577 0.0
C737 C 0.96049 0.02094 0.17563 0.0
H738 H 0.02909 0.05857 0.1478 0.0
C739 C 0.94761 0.99802 0.14617 0.0
H740 H 0.00107 0.06032 0.19808 0.0
C741 C 0.96387 0.99684 0.11751 0.0
C742 C -0.00662 0.01876 0.11733 0.0
H743 H 0.92489 0.98102 0.14516 0.0
H744 H 0.95294 0.97895 0.09521 0.0
C745 C 0.00653 0.04133 0.14698 0.0
C746 C 0.24703 0.7126 0.44983 0.0
C747 C 0.27681 0.72586 0.46848 0.0
H748 H 0.21764 0.7117 0.40422 0.0
C749 C 0.29603 0.75485 0.46029 0.0
H750 H 0.23148 0.69055 0.45573 0.0
C751 C 0.28771 0.76719 0.43109 0.0
C752 C 0.26008 0.75081 0.41014 0.0
H753 H 0.31888 0.76598 0.4745 0.0
H754 H 0.30447 0.78704 0.42305 0.0
C755 C 0.2389 0.72481 0.42051 0.0
C756 C 0.52954 0.98065 0.67136 0.0
C757 C 0.56128 0.9773 0.67419 0.0
H758 H 0.49028 0.9876 0.63928 0.0
C759 C 0.57747 0.97673 0.64538 0.0
H760 H 0.51646 0.98134 0.69317 0.0
C761 C 0.56225 0.97984 0.61442 0.0
C762 C 0.53079 0.98413 0.61188 0.0
H763 H 0.60193 0.9742 0.64683 0.0
H764 H 0.57543 0.98 0.59272 0.0
C765 C 0.51455 0.98438 0.64058 0.0
C766 C 0.2518 0.34725 0.94244 0.0
C767 C 0.27502 0.33219 0.95676 0.0
H768 H 0.22287 0.3507 0.89811 0.0
C769 C 0.28618 0.30725 0.93596 0.0
H770 H 0.24266 0.36659 0.95752 0.0
C771 C 0.27464 0.29795 0.90162 0.0
C772 C 0.25193 0.31365 0.88728 0.0
H773 H 0.30405 0.29507 0.9461 0.0
H774 H 0.28383 0.27887 0.88625 0.0
C775 C 0.24054 0.33822 0.90819 0.0
C776 C 0.95854 0.99642 0.36054 0.0
C777 C 0.9286 0.00329 0.35214 0.0
H778 H -0.00536 0.99638 0.40024 0.0
C779 C 0.91061 0.01205 0.37818 0.0
H780 H 0.97299 0.98962 0.34102 0.0
C781 C 0.92285 0.01583 0.4118 0.0
C782 C 0.95353 0.01116 0.42029 0.0
H783 H 0.88746 0.0173 0.37284 0.0
H784 H 0.9086 0.02369 0.43112 0.0
C785 C 0.97097 0.0004 0.39441 0.0
C786 C 0.27928 0.69505 0.63495 0.0
C787 C 0.3049 0.71212 0.62062 0.0
H788 H 0.24834 0.69685 0.67314 0.0
C789 C 0.31982 0.74529 0.6356 0.0
H790 H 0.26723 0.66947 0.62415 0.0
C791 C 0.30875 0.76126 0.66404 0.0
C792 C 0.28277 0.74415 0.67786 0.0
H793 H 0.33948 0.75914 0.62493 0.0
H794 H 0.32047 0.78685 0.67516 0.0
C795 C 0.26833 0.71087 0.66306 0.0
C796 C 0.61633 0.03528 0.88327 0.0
C797 C 0.59517 0.02856 0.85376 0.0
H798 H 0.62217 0.04497 0.93704 0.0
C799 C 0.56365 0.0318 0.85594 0.0
H800 H 0.64086 0.03389 0.8825 0.0
C801 C 0.55282 0.0383 0.88752 0.0
C802 C 0.57353 0.0416 0.91697 0.0
H803 H 0.54687 0.02698 0.83348 0.0
H804 H 0.52794 0.03815 0.88886 0.0
C805 C 0.60562 0.04177 0.91458 0.0
C806 C 0.28507 0.2715 0.12337 0.0
C807 C 0.27033 0.29828 0.11719 0.0
H808 H 0.29001 0.23406 0.15474 0.0
C809 C 0.24563 0.30442 0.13624 0.0
H810 H 0.3041 0.26583 0.10921 0.0
C811 C 0.23766 0.28617 0.16236 0.0
C812 C 0.25385 0.26102 0.17001 0.0
H813 H 0.23357 0.32461 0.13227 0.0
H814 H 0.21961 0.29275 0.17753 0.0
C815 C 0.27682 0.253 0.14935 0.0
C816 C 0.17716 0.95595 0.00736 0.0
C817 C 0.19721 0.9619 0.03764 0.0
H818 H 0.13614 0.96558 0.98111 0.0
C819 C 0.19101 0.984 0.06533 0.0
H820 H 0.18149 0.93947 0.98543 0.0
C821 C 0.16463 -0.00095 0.06296 0.0
C822 C 0.14429 0.99246 0.03275 0.0
H823 H 0.2062 0.98922 0.08898 0.0
H824 H 0.15981 0.01513 0.0849 0.0
C825 C 0.15121 0.97118 0.00488 0.0
C826 C 0.65164 0.5729 0.99359 0.0
C827 C 0.66739 0.5503 0.97562 0.0
H828 H 0.60928 0.57998 0.01486 0.0
C829 C 0.65131 0.51659 0.96474 0.0
H830 H 0.66335 0.59901 0.00242 0.0
C831 C 0.62025 0.50568 0.97178 0.0
C832 C 0.60461 0.52818 0.99005 0.0
H833 H 0.66273 0.49852 0.95083 0.0
H834 H 0.6086 0.47953 0.96308 0.0
C835 C 0.62065 0.56194 0.00082 0.0
C836 C 0.72605 0.44043 0.31305 0.0
C837 C 0.70663 0.45215 0.28972 0.0
H838 H 0.75096 0.40171 0.32246 0.0
C839 C 0.70216 0.43623 0.25572 0.0
H840 H 0.73017 0.45199 0.33939 0.0
C841 C 0.71477 0.40763 0.24595 0.0
C842 C 0.7318 0.39451 0.27008 0.0
H843 H 0.68744 0.44461 0.23705 0.0
H844 H 0.70917 0.39435 0.22023 0.0
C845 C 0.73813 0.41168 0.30339 0.0
C846 C 0.87733 0.45824 0.4904 0.0
C847 C 0.86495 0.42364 0.48926 0.0
H848 H 0.91859 0.498 0.50227 0.0
C849 C 0.88563 0.40129 0.49045 0.0
H850 H 0.86182 0.47594 0.48916 0.0
C851 C 0.91801 0.41385 0.49805 0.0
C852 C 0.92994 0.44887 0.50446 0.0
H853 H 0.8767 0.37439 0.48846 0.0
H854 H 0.93327 0.39631 0.50179 0.0
C855 C 0.90982 0.47087 0.49804 0.0
C856 C 0.2927 0.08452 0.32157 0.0
C857 C 0.31694 0.0766 0.30274 0.0
H858 H 0.25309 0.10849 0.32413 0.0
C859 C 0.31659 0.08279 0.26925 0.0
H860 H 0.29201 0.07974 0.34728 0.0
C861 C 0.29423 0.09915 0.25591 0.0
C862 C 0.27164 0.10962 0.27571 0.0
H863 H 0.33454 0.07648 0.25373 0.0
H864 H 0.29583 0.10532 0.23076 0.0
C865 C 0.27021 0.1008 0.30815 0.0
C866 C 0.36576 0.1018 0.52365 0.0
C867 C 0.33817 0.07748 0.51123 0.0
H868 H 0.41412 0.11135 0.54488 0.0
C869 C 0.33842 0.04309 0.51117 0.0
H870 H 0.36623 0.12844 0.52415 0.0
C871 C 0.3661 0.03313 0.52237 0.0
C872 C 0.3937 0.0575 0.53479 0.0
H873 H 0.31746 0.02379 0.50152 0.0
H874 H 0.36593 0.00646 0.52128 0.0
C875 C 0.39311 0.09194 0.53573 0.0
C876 C 0.72497 0.62719 0.31993 0.0
C877 C 0.69353 0.61182 0.30698 0.0
H878 H 0.76437 0.66821 0.31993 0.0
C879 C 0.67731 0.62749 0.28436 0.0
H880 H 0.73815 0.61569 0.33732 0.0
C881 C 0.69215 0.65772 0.27483 0.0
C882 C 0.72378 0.67274 0.28719 0.0
H883 H 0.65304 0.61643 0.27406 0.0
H884 H 0.67894 0.66906 0.25731 0.0
C885 C 0.74004 0.65716 0.30987 0.0
C886 C 0.85971 0.4268 0.77621 0.0
C887 C 0.84898 0.44259 0.80511 0.0
H888 H 0.85331 0.38291 0.73836 0.0
C889 C 0.82259 0.42504 0.81806 0.0
H890 H 0.87994 0.43958 0.76554 0.0
C891 C 0.80703 0.39262 0.80215 0.0
C892 C 0.81778 0.37696 0.77322 0.0
H893 H 0.81358 0.43655 0.84015 0.0
H894 H 0.78673 0.37976 0.81264 0.0
C895 C 0.84439 0.39431 0.76057 0.0
C896 C 0.06478 0.87684 0.09554 0.0
C897 C 0.03619 0.85471 0.08167 0.0
H898 H 0.09318 0.9266 0.10054 0.0
C899 C 0.01665 0.8647 0.05696 0.0
H900 H 0.0806 0.86997 0.11431 0.0
C901 C 0.0239 0.89741 0.04909 0.0
C902 C 0.0507 0.92056 0.0659 0.0
H903 H -0.00543 0.84817 0.04546 0.0
H904 H 0.00743 0.90522 0.03172 0.0
C905 C 0.07185 0.90947 0.08787 0.0
C906 C 0.87598 0.25967 0.84876 0.0
C907 C 0.89318 0.24343 0.82604 0.0
H908 H 0.83588 0.28233 0.85505 0.0
C909 C 0.88267 0.23732 0.79139 0.0
H910 H 0.88396 0.26515 0.87553 0.0
C911 C 0.85458 0.24604 0.77974 0.0
C912 C 0.83708 0.26202 0.80245 0.0
H913 H 0.89574 0.22495 0.77341 0.0
H914 H 0.84653 0.24016 0.75298 0.0
C915 C 0.84853 0.26954 0.83698 0.0
C916 C 0.53221 0.17416 0.60619 0.0
C917 C 0.50954 0.18721 0.58818 0.0
H918 H 0.55348 0.13164 0.6104 0.0
C919 C 0.49415 0.16857 0.55723 0.0
H920 H 0.54474 0.18805 0.62996 0.0
C921 C 0.49948 0.1365 0.5458 0.0
C922 C 0.52003 0.12215 0.56529 0.0
H923 H 0.47697 0.17814 0.5424 0.0
H924 H 0.4859 0.12216 0.52273 0.0
C925 C 0.53733 0.14186 0.5949 0.0
C926 C 0.57764 0.75294 0.31078 0.0
C927 C 0.56447 0.72572 0.32653 0.0
H928 H 0.619 0.77961 0.29281 0.0
C929 C 0.58376 0.70397 0.33604 0.0
H930 H 0.56341 0.77016 0.30311 0.0
C931 C 0.61553 0.70944 0.33022 0.0
C932 C 0.62879 0.73674 0.31467 0.0
H933 H 0.57441 0.68276 0.3482 0.0
H934 H 0.62969 0.69219 0.338 0.0
C935 C 0.60948 0.75835 0.30484 0.0
C936 C -0.00735 0.17945 0.49441 0.0
C937 C 0.01207 0.19598 0.47283 0.0
H938 H 0.98206 0.13667 0.51983 0.0
C939 C 0.03868 0.18333 0.46382 0.0
H940 H 0.97205 0.18854 0.50209 0.0
C941 C 0.04434 0.15354 0.47399 0.0
C942 C 0.02359 0.13569 0.49346 0.0
H943 H 0.05428 0.19543 0.44744 0.0
H944 H 0.06427 0.14374 0.4653 0.0
C945 C -0.00165 0.14963 0.50461 0.0
C946 C 0.61261 0.27765 0.17199 0.0
C947 C 0.596 0.25711 0.19262 0.0
H948 H 0.65757 0.30135 0.15941 0.0
C949 C 0.61314 0.24288 0.21578 0.0
H950 H 0.60012 0.28873 0.15361 0.0
C951 C 0.64628 0.25028 0.21923 0.0
C952 C 0.66284 0.27177 0.19933 0.0
H953 H 0.60101 0.22685 0.23194 0.0
H954 H 0.6589 0.2398 0.23802 0.0
C955 C 0.64561 0.28477 0.1752 0.0
C956 C 0.52989 0.88927 0.94886 0.0
C957 C 0.51918 0.86357 0.96744 0.0
H958 H 0.5424 0.94267 0.9487 0.0
C959 C 0.51749 0.87234 0.00221 0.0
H960 H 0.53127 0.88328 0.92201 0.0
C961 C 0.5248 0.90628 0.01773 0.0
C962 C 0.53281 0.93214 -0.00152 0.0
H963 H 0.50939 0.85299 0.01715 0.0
H964 H 0.52191 0.91233 0.04421 0.0
C965 C 0.5362 0.92325 0.96412 0.0
C966 C 0.88274 0.74859 0.70753 0.0
C967 C 0.90902 0.7362 0.719 0.0
H968 H 0.83516 0.75308 0.71313 0.0
C969 C 0.90697 0.71868 0.74657 0.0
H970 H 0.88365 0.76263 0.68665 0.0
C971 C 0.87883 0.71293 0.76175 0.0
C972 C 0.8525 0.72521 0.75003 0.0
H973 H 0.92694 0.70909 0.75612 0.0
H974 H 0.87759 0.69862 0.78241 0.0
C975 C 0.85498 0.74344 0.72301 0.0
C976 C 0.08311 0.99437 0.90114 0.0
C977 C 0.08234 0.02061 0.88225 0.0
H978 H 0.06747 0.9719 0.94335 0.0
C979 C 0.06477 0.04508 0.89225 0.0
H980 H 0.09586 0.97472 0.89353 0.0
C981 C 0.04941 0.04405 0.92158 0.0
C982 C 0.05036 0.01781 0.94043 0.0
H983 H 0.06352 0.0653 0.87785 0.0
H984 H 0.03697 0.0638 0.92962 0.0
C985 C 0.06678 0.99264 0.92956 0.0
C986 C 0.73451 0.32557 0.59796 0.0
C987 C 0.75797 0.31336 0.58079 0.0
H988 H 0.7115 0.32815 0.6429 0.0
C989 C 0.77264 0.28938 0.59386 0.0
H990 H 0.72249 0.34375 0.5884 0.0
C991 C 0.76653 0.28068 0.62522 0.0
C992 C 0.74552 0.29564 0.64394 0.0
H993 H 0.79045 0.27902 0.581 0.0
H994 H 0.77962 0.26374 0.63557 0.0
C995 C 0.72833 0.31676 0.6293 0.0
C996 C 0.49421 0.0326 0.39624 0.0
C997 C 0.46302 0.03751 0.3966 0.0
H998 H 0.53241 0.01623 0.42128 0.0
C999 C 0.44754 0.03291 0.42536 0.0
H1000 H 0.50701 0.03647 0.37465 0.0
C1001 C 0.46219 0.02116 0.45217 0.0
C1002 C 0.49264 0.01422 0.45083 0.0
H1003 H 0.42363 0.03673 0.42652 0.0
H1004 H 0.44894 0.01577 0.473 0.0
C1005 C 0.50889 0.02117 0.42308 0.0
C1006 C 0.82005 0.68276 0.10121 0.0
C1007 C 0.79316 0.67431 0.07728 0.0
H1008 H 0.83822 0.69563 0.15342 0.0
C1009 C 0.76322 0.67437 0.0885 0.0
H1010 H 0.84341 0.68271 0.0935 0.0
C1011 C 0.76033 0.68255 0.12304 0.0
C1012 C 0.78721 0.68954 0.14684 0.0
H1013 H 0.74208 0.66791 0.07061 0.0
H1014 H 0.73711 0.6824 0.1312 0.0
C1015 C 0.81705 0.68982 0.13557 0.0
C1016 C 0.05509 0.01845 0.67508 0.0
C1017 C 0.08275 0.01136 0.69056 0.0
H1018 H 0.02595 0.016 0.62882 0.0
C1019 C 0.1036 0.99807 0.67009 0.0
H1020 H 0.03858 0.02881 0.69012 0.0
C1021 C 0.09644 0.99085 0.63508 0.0
C1022 C 0.06821 0.99668 0.61965 0.0
H1023 H 0.12524 0.99254 0.68114 0.0
H1024 H 0.11273 0.97989 0.6202 0.0
C1025 C 0.04786 0.01114 0.63995 0.0
C1026 C 0.75561 0.33624 0.39153 0.0
C1027 C 0.7617 0.31544 0.41498 0.0
H1028 H 0.74966 0.34106 0.33952 0.0
C1029 C 0.76117 0.28114 0.40358 0.0
H1030 H 0.75624 0.36284 0.39963 0.0
C1031 C 0.75646 0.26835 0.36903 0.0
C1032 C 0.75336 0.29002 0.34549 0.0
H1033 H 0.76587 0.26465 0.42129 0.0
H1034 H 0.75748 0.2422 0.36079 0.0
C1035 C 0.75201 0.32378 0.35707 0.0
C1036 C 0.42809 0.02854 0.1882 0.0
C1037 C 0.44237 0.01228 0.21171 0.0
H1038 H 0.4255 0.03993 0.13815 0.0
C1039 C 0.46431 0.99278 0.20143 0.0
H1040 H 0.4109 0.04352 0.19528 0.0
C1041 C 0.47284 0.99082 0.16861 0.0
C1042 C 0.45938 0.00814 0.14549 0.0
H1043 H 0.47563 0.97985 0.219 0.0
H1044 H 0.49049 0.97643 0.16162 0.0
C1045 C 0.43643 0.0264 0.1554 0.0
C1046 C 0.74293 0.68454 0.89026 0.0
C1047 C 0.77214 0.6954 0.91052 0.0
H1048 H 0.71439 0.68926 0.84603 0.0
C1049 C 0.79406 0.72279 0.90269 0.0
H1050 H 0.72542 0.66364 0.89542 0.0
C1051 C 0.78771 0.73749 0.87419 0.0
C1052 C 0.75941 0.72497 0.85272 0.0
H1053 H 0.81677 0.73198 0.91777 0.0
H1054 H 0.80563 0.75747 0.86806 0.0
C1055 C 0.7367 0.69909 0.86171 0.0
C1056 C 0.87304 0.07835 -0.00135 0.0
C1057 C 0.85219 0.0769 0.0236 0.0
H1058 H 0.91359 0.06249 0.97996 0.0
C1059 C 0.85574 0.05695 0.04864 0.0
H1060 H 0.87047 0.09319 0.97878 0.0
C1061 C 0.88061 0.03983 0.04955 0.0
C1062 C 0.90152 0.04141 0.02471 0.0
H1063 H 0.83976 0.05525 0.06795 0.0
H1064 H 0.88387 0.02581 0.06998 0.0
C1065 C 0.89727 0.0603 -0.00108 0.0
C1066 C 0.39023 0.41813 0.02922 0.0
C1067 C 0.3708 0.43874 0.04349 0.0
H1068 H 0.43404 0.41585 0.00909 0.0
C1069 C 0.38175 0.47406 0.04918 0.0
H1070 H 0.38226 0.3909 0.02415 0.0
C1071 C 0.41195 0.48845 0.04161 0.0
C1072 C 0.43142 0.46784 0.02721 0.0
H1073 H 0.36719 0.49054 0.06017 0.0
H1074 H 0.41994 0.51568 0.0468 0.0
C1075 C 0.41992 0.43253 0.02058 0.0
C1076 C 0.29731 0.59062 0.76496 0.0
C1077 C 0.32274 0.58364 0.7474 0.0
H1078 H 0.26756 0.62547 0.77811 0.0
C1079 C 0.33471 0.60539 0.72535 0.0
H1080 H 0.28725 0.57419 0.78191 0.0
C1081 C 0.32336 0.63497 0.72325 0.0
C1082 C 0.29983 0.64334 0.74314 0.0
H1083 H 0.35429 0.60083 0.71152 0.0
H1084 H 0.33422 0.65212 0.70734 0.0
C1085 C 0.28603 0.62012 0.76289 0.0
C1086 C 0.17162 0.59306 0.54771 0.0
C1087 C 0.18332 0.62764 0.54779 0.0
H1088 H 0.13087 0.55355 0.54563 0.0
C1089 C 0.16229 0.64982 0.54958 0.0
H1090 H 0.18735 0.57543 0.5468 0.0
C1091 C 0.12983 0.63725 0.54873 0.0
C1092 C 0.11795 0.60237 0.5465 0.0
H1093 H 0.17067 0.67664 0.54991 0.0
H1094 H 0.11395 0.65467 0.54833 0.0
C1095 C 0.13926 0.58057 0.54729 0.0
C1096 C 0.70128 0.91464 0.7407 0.0
C1097 C 0.70866 0.9364 0.77184 0.0
H1098 H 0.70487 0.86756 0.71218 0.0
C1099 C 0.73017 0.92931 0.79662 0.0
H1100 H 0.68516 0.91951 0.72091 0.0
C1101 C 0.74126 0.89928 0.79175 0.0
C1102 C 0.73122 0.87595 0.76194 0.0
H1103 H 0.73675 0.94575 0.82079 0.0
H1104 H 0.756 0.89344 0.81217 0.0
C1105 C 0.71251 0.88474 0.73579 0.0
C1106 C 0.67006 0.90804 0.56246 0.0
C1107 C 0.69314 0.92581 0.54535 0.0
H1108 H 0.62175 0.89849 0.57264 0.0
C1109 C 0.68448 0.94891 0.52549 0.0
H1110 H 0.67591 0.89014 0.57804 0.0
C1111 C 0.65336 0.95379 0.52245 0.0
C1112 C 0.63019 0.9356 0.53913 0.0
H1113 H 0.70167 0.9631 0.51204 0.0
H1114 H 0.6474 0.97147 0.50665 0.0
C1115 C 0.63897 0.91286 0.55936 0.0
C1116 C 0.28927 0.41148 0.76394 0.0
C1117 C 0.3204 0.41929 0.75531 0.0
H1118 H 0.25026 0.37293 0.77106 0.0
C1119 C 0.33507 0.39265 0.74406 0.0
H1120 H 0.27737 0.43151 0.77278 0.0
C1121 C 0.31974 0.359 0.74377 0.0
C1122 C 0.28921 0.35129 0.75414 0.0
H1123 H 0.35913 0.39784 0.73764 0.0
H1124 H 0.33225 0.33908 0.73643 0.0
C1125 C 0.27374 0.37789 0.76305 0.0
C1126 C 0.16401 0.61644 0.27408 0.0
C1127 C 0.1869 0.59982 0.28647 0.0
H1128 H 0.15305 0.664 0.26654 0.0
C1129 C 0.21793 0.61807 0.29664 0.0
H1130 H 0.13981 0.60292 0.26641 0.0
C1131 C 0.22563 0.65273 0.29603 0.0
C1132 C 0.20215 0.66989 0.2862 0.0
H1133 H 0.23592 0.60578 0.30635 0.0
H1134 H 0.24949 0.6664 0.3053 0.0
C1135 C 0.17149 0.65135 0.27439 0.0
C1136 C 0.50694 0.63075 0.45461 0.0
C1137 C 0.48502 0.65142 0.46145 0.0
H1138 H 0.54163 0.60593 0.47514 0.0
C1139 C 0.48065 0.66189 0.49525 0.0
H1140 H 0.51099 0.62243 0.42887 0.0
C1141 C 0.49832 0.65253 0.52162 0.0
C1142 C 0.52014 0.63194 0.51466 0.0
H1143 H 0.46417 0.67805 0.50139 0.0
H1144 H 0.49504 0.66149 0.54747 0.0
C1145 C 0.52422 0.62098 0.481 0.0
C1146 C 0.62726 0.27982 0.7055 0.0
C1147 C 0.60952 0.29808 0.72583 0.0
H1148 H 0.66915 0.26021 0.70207 0.0
C1149 C 0.62183 0.3115 0.75953 0.0
H1150 H 0.61845 0.26892 0.67954 0.0
C1151 C 0.65133 0.30671 0.77256 0.0
C1152 C 0.66884 0.28809 0.7522 0.0
H1153 H 0.60867 0.32565 0.77587 0.0
H1154 H 0.66028 0.31738 0.79853 0.0
C1155 C 0.65638 0.2747 0.71856 0.0
C1156 C 0.01265 0.33992 0.91994 0.0
C1157 C 0.9863 0.3236 0.93377 0.0
H1158 H 0.04773 0.38498 0.92186 0.0
C1159 C 0.97545 0.34123 0.9616 0.0
H1160 H 0.02165 0.32716 0.8985 0.0
C1161 C 0.9906 0.37449 0.97517 0.0
C1162 C 0.01669 0.39083 0.96097 0.0
H1163 H 0.95526 0.32938 0.97294 0.0
H1164 H 0.98168 0.38749 -0.00349 0.0
C1165 C 0.02758 0.37316 0.9333 0.0
C1166 C 0.93154 0.75522 0.22383 0.0
C1167 C 0.93852 0.76531 0.19287 0.0
H1168 H 0.89605 0.74555 0.25752 0.0
C1169 C 0.91414 0.77155 0.17114 0.0
H1170 H 0.94992 0.75035 0.24114 0.0
C1171 C 0.88381 0.76921 0.18057 0.0
C1172 C 0.87694 0.76044 0.21197 0.0
H1173 H 0.91855 0.77947 0.14717 0.0
H1174 H 0.86581 0.77476 0.16325 0.0
C1175 C 0.90084 0.75267 0.23328 0.0
C1176 C 0.51943 0.33144 0.07176 0.0
C1177 C 0.48801 0.31329 0.06991 0.0
H1178 H 0.55001 0.37554 0.06042 0.0
C1179 C 0.46431 0.32207 0.0491 0.0
H1180 H 0.53828 0.32514 0.08731 0.0
C1181 C 0.47104 0.35096 0.03423 0.0
C1182 C 0.50168 0.37094 0.03904 0.0
H1183 H 0.43994 0.30849 0.0467 0.0
H1184 H 0.45181 0.35906 0.02101 0.0
C1185 C 0.52625 0.36013 0.05625 0.0
C1186 C 0.89548 0.26594 0.37232 0.0
C1187 C 0.92119 0.27541 0.35422 0.0
H1188 H 0.84537 0.2514 0.37129 0.0
C1189 C 0.91513 0.28097 0.32083 0.0
H1190 H 0.89919 0.26169 0.39809 0.0
C1191 C 0.88395 0.27477 0.30517 0.0
C1192 C 0.85841 0.26297 0.32272 0.0
H1193 H 0.93446 0.28825 0.30618 0.0
H1194 H 0.87998 0.27756 0.27894 0.0
C1195 C 0.86452 0.25988 0.35681 0.0
C1196 C 0.95867 0.6405 0.57372 0.0
C1197 C 0.97363 0.6584 0.6052 0.0
H1198 H 0.95762 0.59955 0.53352 0.0
C1199 C -0.00071 0.64764 0.62064 0.0
H1200 H 0.93896 0.64828 0.56105 0.0
C1201 C 0.00978 0.61969 0.60502 0.0
C1202 C -0.00482 0.60211 0.57335 0.0
H1203 H 0.01135 0.66082 0.64489 0.0
H1204 H 0.02959 0.61207 0.61766 0.0
C1205 C 0.9695 0.61277 0.55783 0.0
C1206 C 0.62172 0.7862 0.85667 0.0
C1207 C 0.59672 0.76463 0.83493 0.0
H1208 H 0.67125 0.80758 0.86547 0.0
C1209 C 0.60342 0.74767 0.80423 0.0
H1210 H 0.61748 0.79962 0.88051 0.0
C1211 C 0.63445 0.75226 0.79549 0.0
C1212 C 0.65941 0.77384 0.81733 0.0
H1213 H 0.58469 0.73083 0.78688 0.0
H1214 H 0.63886 0.73893 0.77168 0.0
C1215 C 0.65264 0.7907 0.84801 0.0
C1216 C 0.44519 0.50914 0.63672 0.0
C1217 C 0.46123 0.52058 0.66931 0.0
H1218 H 0.44861 0.50127 0.58344 0.0
C1219 C 0.49433 0.53238 0.67253 0.0
H1220 H 0.41979 0.49991 0.63322 0.0
C1221 C 0.51088 0.53317 0.6441 0.0
C1222 C 0.49488 0.52225 0.61148 0.0
H1223 H 0.50763 0.54133 0.69717 0.0
H1224 H 0.53624 0.54274 0.64774 0.0
C1225 C 0.4618 0.50996 0.60817 0.0
C1226 C 0.75428 0.21135 0.94701 0.0
C1227 C 0.78629 0.21517 0.95957 0.0
H1228 H 0.72173 0.22177 0.90881 0.0
C1229 C 0.80937 0.23842 0.94763 0.0
H1230 H 0.73587 0.19396 0.95601 0.0
C1231 C 0.80115 0.25423 0.92086 0.0
C1232 C 0.76974 0.24757 0.90605 0.0
H1233 H 0.83416 0.24239 0.957 0.0
H1234 H 0.81977 0.26953 0.90999 0.0
C1235 C 0.74605 0.22754 0.92032 0.0
C1236 C 0.0348 0.47147 0.16853 0.0
C1237 C 0.06777 0.47744 0.1769 0.0
H1238 H -0.00329 0.47275 0.13169 0.0
C1239 C 0.08781 0.48789 0.15308 0.0
H1240 H 0.01874 0.46334 0.1864 0.0
C1241 C 0.07525 0.49343 0.12201 0.0
C1242 C 0.04232 0.48858 0.11396 0.0
H1243 H 0.11331 0.49257 0.15869 0.0
H1244 H 0.09151 0.50208 0.10453 0.0
C1245 C 0.02217 0.477 0.13729 0.0
C1246 C 0.78504 0.80388 0.44022 0.0
C1247 C 0.77371 0.82853 0.46123 0.0
H1248 H 0.78175 0.7748 0.39072 0.0
C1249 C 0.74915 0.84222 0.4476 0.0
H1250 H 0.8039 0.79272 0.44986 0.0
C1251 C 0.73668 0.83212 0.41379 0.0
C1252 C 0.74824 0.80786 0.39266 0.0
H1253 H 0.73978 0.86123 0.4629 0.0
H1254 H 0.718 0.84357 0.4042 0.0
C1255 C 0.77234 0.79356 0.40632 0.0
C1256 C 0.41239 0.50546 0.87036 0.0
C1257 C 0.43204 0.50331 0.84448 0.0
H1258 H 0.40901 0.51167 0.92332 0.0
C1259 C 0.46382 0.50182 0.85271 0.0
H1260 H 0.38767 0.50568 0.86493 0.0
C1261 C 0.47622 0.50517 0.88654 0.0
C1262 C 0.45693 0.50997 0.91249 0.0
H1263 H 0.47953 0.50009 0.83324 0.0
H1264 H 0.50116 0.50573 0.89239 0.0
C1265 C 0.42467 0.50879 0.90395 0.0
C1266 C 0.82293 0.23092 0.12512 0.0
C1267 C 0.80517 0.19871 0.1103 0.0
H1268 H 0.82718 0.274 0.16417 0.0
C1269 C 0.77765 0.18535 0.12409 0.0
H1270 H 0.84409 0.24206 0.11484 0.0
C1271 C 0.76794 0.20358 0.15171 0.0
C1272 C 0.78543 0.23578 0.16656 0.0
H1273 H 0.76326 0.16073 0.11338 0.0
H1274 H 0.74657 0.19221 0.1615 0.0
C1275 C 0.81306 0.24939 0.15302 0.0
C1276 C 0.11879 0.54209 0.38694 0.0
C1277 C 0.09653 0.53122 0.35835 0.0
H1278 H 0.12634 0.55546 0.44055 0.0
C1279 C 0.06452 0.5316 0.36126 0.0
H1280 H 0.14369 0.54337 0.3853 0.0
C1281 C 0.05452 0.53898 0.39308 0.0
C1282 C 0.07657 0.54597 0.42195 0.0
H1283 H 0.04694 0.52365 0.33941 0.0
H1284 H 0.02945 0.53634 0.39524 0.0
C1285 C 0.10888 0.54935 0.41854 0.0
C1286 C 0.73978 0.79557 0.63154 0.0
C1287 C 0.76786 0.79229 0.6173 0.0
H1288 H 0.7099 0.78272 0.66967 0.0
C1289 C 0.78431 0.76813 0.62731 0.0
H1290 H 0.72634 0.8137 0.62445 0.0
C1291 C 0.77452 0.75008 0.65306 0.0
C1292 C 0.74801 0.75562 0.66909 0.0
H1293 H 0.80596 0.76477 0.61692 0.0
H1294 H 0.78915 0.7339 0.66229 0.0
C1295 C 0.73012 0.77759 0.6573 0.0
C1296 C 0.69617 0.47355 0.5624 0.0
C1297 C 0.7019 0.45359 0.53305 0.0
H1298 H 0.66511 0.50293 0.58543 0.0
C1299 C 0.68213 0.45075 0.503 0.0
H1300 H 0.71143 0.47639 0.58575 0.0
C1301 C 0.65631 0.46623 0.50268 0.0
C1302 C 0.64937 0.48467 0.53241 0.0
H1303 H 0.68628 0.43617 0.47974 0.0
H1304 H 0.64116 0.46282 0.47916 0.0
C1305 C 0.66994 0.48894 0.56218 0.0
C1306 C 0.1481 0.01338 0.46817 0.0
C1307 C 0.16303 0.04777 0.47581 0.0
H1308 H 0.10676 0.97565 0.47051 0.0
C1309 C 0.14664 0.07091 0.49182 0.0
H1310 H 0.16011 0.99492 0.45588 0.0
C1311 C 0.1163 0.05981 0.50065 0.0
C1312 C 0.10142 0.02539 0.49326 0.0
H1313 H 0.15752 0.09754 0.49827 0.0
H1314 H 0.10456 0.0783 0.51337 0.0
C1315 C 0.11755 0.00233 0.47663 0.0
C1316 C 0.2045 0.9385 0.76569 0.0
C1317 C 0.21197 0.96014 0.79701 0.0
H1318 H 0.21401 0.89584 0.73378 0.0
C1319 C 0.23845 0.95773 0.8184 0.0
H1320 H 0.18441 0.93975 0.74846 0.0
C1321 C 0.25554 0.93265 0.80988 0.0
C1322 C 0.24645 0.90926 0.77985 0.0
H1323 H 0.24516 0.97422 0.84254 0.0
H1324 H 0.27476 0.93046 0.82779 0.0
C1325 C 0.22151 0.91328 0.75724 0.0
C1326 C 0.37767 0.9107 0.98499 0.0
C1327 C 0.35845 0.9346 0.98871 0.0
H1328 H 0.42459 0.902 0.99177 0.0
C1329 C 0.37234 0.96915 0.99359 0.0
H1330 H 0.36737 0.88391 0.97995 0.0
C1331 C 0.40517 0.9796 0.00018 0.0
C1332 C 0.42407 0.95545 0.0019 0.0
H1333 H 0.35789 0.98802 -0.0037 0.0
H1334 H 0.41527 0.00637 0.00736 0.0
C1335 C 0.41037 0.92106 0.9917 0.0
C1336 C 0.78811 0.58797 0.82106 0.0
C1337 C 0.81216 0.58142 0.80127 0.0
H1338 H 0.74786 0.61064 0.8258 0.0
C1339 C 0.81119 0.58937 0.7684 0.0
H1340 H 0.7879 0.58186 0.84633 0.0
C1341 C 0.78813 0.60571 0.75655 0.0
C1342 C 0.76546 0.61445 0.77725 0.0
H1343 H 0.82906 0.58429 0.75223 0.0
H1344 H 0.78913 0.61309 0.73183 0.0
C1345 C 0.76495 0.60425 0.80914 0.0
C1346 C 0.87482 0.59205 0.98641 0.0
C1347 C 0.84695 0.57558 -0.00253 0.0
H1348 H 0.92426 0.59597 0.98448 0.0
C1349 C 0.84853 0.54951 0.01654 0.0
H1350 H 0.87457 0.61196 0.9714 0.0
C1351 C 0.87748 0.54006 0.0241 0.0
C1352 C 0.90523 0.55646 0.01256 0.0
H1353 H 0.82741 0.53626 0.02536 0.0
H1354 H 0.87806 0.51976 0.03854 0.0
C1355 C 0.90346 0.58267 0.99384 0.0
C1356 C 0.17391 0.12719 0.78694 0.0
C1357 C 0.18992 0.1132 0.81129 0.0
H1358 H 0.17556 0.16688 0.75732 0.0
C1359 C 0.22107 0.1295 0.82443 0.0
H1360 H 0.1499 0.11532 0.77632 0.0
C1361 C 0.23604 0.15876 0.81301 0.0
C1362 C 0.21998 0.17272 0.78866 0.0
H1363 H 0.23415 0.11927 0.84305 0.0
H1364 H 0.26012 0.17058 0.82344 0.0
C1365 C 0.18864 0.15675 0.77602 0.0
C1366 C 0.33183 0.92158 0.32443 0.0
C1367 C 0.35794 0.93977 0.31158 0.0
H1368 H 0.29709 0.87545 0.31917 0.0
C1369 C 0.36969 0.92404 0.28336 0.0
H1370 H 0.32208 0.93299 0.34603 0.0
C1371 C 0.35547 0.89105 0.26813 0.0
C1372 C 0.32896 0.87316 0.2805 0.0
H1373 H 0.38979 0.93728 0.27283 0.0
H1374 H 0.365 0.87979 0.24628 0.0
C1375 C 0.31737 0.88867 0.30893 0.0
C1376 C 0.54768 0.37349 0.58414 0.0
C1377 C 0.5227 0.34634 0.57052 0.0
H1378 H 0.57159 0.42366 0.5812 0.0
C1379 C 0.50508 0.34759 0.53991 0.0
H1380 H 0.56176 0.37333 0.60757 0.0
C1381 C 0.5107 0.37655 0.52471 0.0
C1382 C 0.53381 0.40478 0.5401 0.0
H1383 H 0.48582 0.32688 0.52858 0.0
H1384 H 0.49582 0.37753 0.5021 0.0
C1385 C 0.55306 0.40248 0.56918 0.0
C1386 C 0.37297 0.72957 0.34761 0.0
C1387 C 0.39016 0.71489 0.32367 0.0
H1388 H 0.33529 0.75567 0.35634 0.0
C1389 C 0.38173 0.7149 0.28926 0.0
H1390 H 0.37929 0.73047 0.3743 0.0
C1391 C 0.3562 0.72875 0.27888 0.0
C1392 C 0.33916 0.74379 0.30278 0.0
H1393 H 0.39472 0.70388 0.27029 0.0
H1394 H 0.35001 0.72798 0.25214 0.0
C1395 C 0.34797 0.7443 0.33729 0.0
C1396 C 0.00494 0.66999 0.06758 0.0
C1397 C 0.01508 0.6876 0.10048 0.0
H1398 H -0.00154 0.62305 0.03385 0.0
C1399 C 0.02973 0.67152 0.12399 0.0
H1400 H -0.0062 0.68182 0.04885 0.0
C1401 C 0.03187 0.63768 0.1156 0.0
C1402 C 0.02016 0.61952 0.08328 0.0
H1403 H 0.03781 0.6844 0.14955 0.0
H1404 H 0.04147 0.6253 0.13485 0.0
C1405 C 0.00783 0.6364 0.05893 0.0
C1406 C 0.08664 0.22816 0.84093 0.0
C1407 C 0.06908 0.25048 0.82918 0.0
H1408 H 0.13052 0.21189 0.84331 0.0
C1409 C 0.08346 0.27437 0.81022 0.0
H1410 H 0.07633 0.20945 0.85561 0.0
C1411 C 0.11473 0.27575 0.80307 0.0
C1412 C 0.13219 0.25332 0.81482 0.0
H1413 H 0.07057 0.29193 0.80079 0.0
H1414 H 0.12519 0.29436 0.78838 0.0
C1415 C 0.11779 0.22957 0.83386 0.0
C1416 C 0.49654 0.68109 0.98881 0.0
C1417 C 0.51514 0.69688 0.96616 0.0
H1418 H 0.48641 0.63884 0.01497 0.0
C1419 C 0.54095 0.68344 0.95585 0.0
H1420 H 0.4766 0.69083 -0.00245 0.0
C1421 C 0.54653 0.65356 0.9659 0.0
C1422 C 0.52645 0.63645 0.98648 0.0
H1423 H 0.55588 0.69496 0.93858 0.0
H1424 H 0.56577 0.64311 0.95625 0.0
C1425 C 0.50211 0.65118 -0.00118 0.0
C1426 C 0.10607 0.77774 0.67931 0.0
C1427 C 0.08987 0.75572 0.69891 0.0
H1428 H 0.15071 0.80384 0.66812 0.0
C1429 C 0.1074 0.7413 0.72154 0.0
H1430 H 0.09326 0.78897 0.66133 0.0
C1431 C 0.14051 0.75001 0.72559 0.0
C1432 C 0.15664 0.77299 0.70678 0.0
H1433 H 0.09557 0.72413 0.73688 0.0
H1434 H 0.15341 0.73936 0.744 0.0
C1435 C 0.13906 0.78613 0.68307 0.0
C1436 C 0.01818 0.37181 0.50638 0.0
C1437 C 0.01886 0.36275 0.47147 0.0
H1438 H 0.02516 0.41205 0.54854 0.0
C1439 C 0.03018 0.38805 0.45266 0.0
H1440 H 0.00973 0.35276 0.52151 0.0
C1441 C 0.03809 0.42206 0.4679 0.0
C1442 C 0.03577 0.43137 0.50246 0.0
H1443 H 0.0309 0.38181 0.42571 0.0
H1444 H 0.04469 0.44124 0.45231 0.0
C1445 C 0.02719 0.40574 0.52187 0.0
C1446 C 0.40925 0.23344 0.2393 0.0
C1447 C 0.4164 0.2538 0.21454 0.0
H1448 H 0.37498 0.21552 0.27182 0.0
C1449 C 0.3955 0.27427 0.20582 0.0
H1450 H 0.42513 0.21764 0.24661 0.0
C1451 C 0.36772 0.27402 0.22091 0.0
C1452 C 0.35966 0.25263 0.24455 0.0
H1453 H 0.40061 0.29064 0.18719 0.0
H1454 H 0.35187 0.28955 0.21284 0.0
C1455 C 0.38076 0.23244 0.25382 0.0
C1456 C 0.6036 0.52341 0.409 0.0
C1457 C 0.58731 0.52927 0.3796 0.0
H1458 H 0.60339 0.51982 0.46122 0.0
C1459 C 0.55723 0.53714 0.38145 0.0
H1460 H 0.62676 0.51726 0.40863 0.0
C1461 C 0.54344 0.53815 0.41186 0.0
C1462 C 0.55943 0.5312 0.44099 0.0
H1463 H 0.54398 0.54169 0.35922 0.0
H1464 H 0.52011 0.54389 0.41239 0.0
C1465 C 0.58992 0.52446 0.43923 0.0
C1466 C 0.2756 0.79988 0.09812 0.0
C1467 C 0.2613 0.82585 0.08891 0.0
H1468 H 0.28472 0.77083 0.13647 0.0
C1469 C 0.24083 0.83888 0.11 0.0
H1470 H 0.29112 0.7889 0.08213 0.0
C1471 C 0.23722 0.82848 0.1412 0.0
C1472 C 0.254 0.80491 0.15172 0.0
H1473 H 0.2293 0.85872 0.10352 0.0
H1474 H 0.22259 0.84027 0.15774 0.0
C1475 C 0.27204 0.78956 0.1293 0.0
C1476 C 0.9414 0.52294 0.91275 0.0
C1477 C 0.95833 0.53731 0.88849 0.0
H1478 H 0.94345 0.50129 0.95766 0.0
C1479 C 0.99156 0.54247 0.89208 0.0
H1480 H 0.91581 0.51813 0.91022 0.0
C1481 C 0.00767 0.53368 0.91985 0.0
C1482 C 0.99069 0.51881 0.94397 0.0
H1483 H 0.00509 0.55344 0.87345 0.0
H1484 H 0.03327 0.53814 0.92219 0.0
C1485 C 0.95737 0.51321 0.93985 0.0
C1486 C 0.28269 0.208 0.59715 0.0
C1487 C 0.27091 0.17504 0.57954 0.0
H1488 H 0.28771 0.24189 0.64404 0.0
C1489 C 0.2528 0.15123 0.5961 0.0
H1490 H 0.29668 0.22691 0.58511 0.0
C1491 C 0.24837 0.15954 0.63012 0.0
C1492 C 0.26105 0.19214 0.64806 0.0
H1493 H 0.24355 0.12554 0.58334 0.0
H1494 H 0.23583 0.14013 0.64271 0.0
C1495 C 0.27738 0.21661 0.63088 0.0
C1496 C 0.55482 0.51747 0.16893 0.0
C1497 C 0.58247 0.51076 0.18482 0.0
H1498 H 0.52633 0.51512 0.12225 0.0
C1499 C 0.60386 0.49803 0.1647 0.0
H1500 H 0.5379 0.52739 0.18368 0.0
C1501 C 0.59729 0.4911 0.12961 0.0
C1502 C 0.56916 0.49669 0.11373 0.0
H1503 H 0.6255 0.49276 0.17606 0.0
H1504 H 0.61403 0.48064 0.115 0.0
C1505 C 0.54821 0.51048 0.13372 0.0
C1506 C 0.24434 0.8386 0.89959 0.0
C1507 C 0.256 0.82113 0.92365 0.0
H1508 H 0.23314 0.83944 0.84708 0.0
C1509 C 0.2596 0.78779 0.91351 0.0
H1510 H 0.24142 0.86432 0.90668 0.0
C1511 C 0.25432 0.77329 0.87941 0.0
C1512 C 0.24616 0.79231 0.85504 0.0
H1513 H 0.26836 0.77372 0.9317 0.0
H1514 H 0.25914 0.7484 0.87202 0.0
C1515 C 0.23981 0.82443 0.86548 0.0
C1516 C 0.9226 0.5267 0.68246 0.0
C1517 C 0.93518 0.51046 0.7071 0.0
H1518 H 0.92332 0.53772 0.63236 0.0
C1519 C 0.95713 0.4903 0.69875 0.0
H1520 H 0.90543 0.54215 0.68809 0.0
C1521 C 0.9676 0.48791 0.66681 0.0
C1522 C 0.95604 0.50541 0.64268 0.0
H1523 H 0.96713 0.47737 0.71725 0.0
H1524 H 0.98535 0.47317 0.66137 0.0
C1525 C 0.93283 0.52408 0.6505 0.0
C1526 C 0.29235 0.22266 0.40392 0.0
C1527 C 0.27068 0.19425 0.41018 0.0
H1528 H 0.30551 0.25756 0.36977 0.0
C1529 C 0.24383 0.18089 0.3866 0.0
H1530 H 0.31331 0.23373 0.42145 0.0
C1531 C 0.23962 0.19437 0.35688 0.0
C1532 C 0.262 0.22171 0.34992 0.0
H1533 H 0.22659 0.1591 0.39038 0.0
H1534 H 0.21895 0.18298 0.33907 0.0
C1535 C 0.28793 0.23637 0.37426 0.0
C1536 C 0.3859 0.61353 0.51196 0.0
C1537 C 0.36545 0.60845 0.53685 0.0
H1538 H 0.42944 0.60629 0.49395 0.0
C1539 C 0.37421 0.59337 0.56427 0.0
H1540 H 0.37939 0.62478 0.49036 0.0
C1541 C 0.40342 0.58383 0.5669 0.0
C1542 C 0.42356 0.58829 0.54155 0.0
H1543 H 0.35864 0.58919 0.58365 0.0
H1544 H 0.40991 0.57229 0.58829 0.0
C1545 C 0.41447 0.60295 0.51397 0.0
C1546 C 0.88859 0.91627 0.53382 0.0
C1547 C 0.86923 0.93637 0.54904 0.0
H1548 H 0.93226 0.91493 0.51315 0.0
C1549 C 0.88007 0.97169 0.55588 0.0
H1550 H 0.88067 0.88907 0.52787 0.0
C1551 C 0.91019 0.98657 0.54852 0.0
C1552 C 0.92961 0.96647 0.53319 0.0
H1553 H 0.86551 0.98775 0.56762 0.0
H1554 H 0.91816 0.01378 0.55461 0.0
C1555 C 0.91816 0.9312 0.52539 0.0
C1556 C 0.83467 0.09936 0.22359 0.0
C1557 C 0.82217 0.0792 0.24672 0.0
H1558 H 0.83482 0.14465 0.20266 0.0
C1559 C 0.79636 0.08711 0.26298 0.0
H1560 H 0.85451 0.09397 0.21065 0.0
C1561 C 0.78529 0.11626 0.25872 0.0
C1562 C 0.79969 0.13809 0.23799 0.0
H1563 H 0.78585 0.07182 0.28064 0.0
H1564 H 0.76655 0.12253 0.27305 0.0
C1565 C 0.82351 0.12857 0.21926 0.0
C1566 C 0.66816 0.0905 0.04042 0.0
C1567 C 0.68052 0.12401 0.03667 0.0
H1568 H 0.62688 0.053 0.04254 0.0
C1569 C 0.66021 0.14681 0.03581 0.0
H1570 H 0.68338 0.07251 0.0417 0.0
C1571 C 0.62768 0.13557 0.03614 0.0
C1572 C 0.6151 0.10148 0.03771 0.0
H1573 H 0.66919 0.17285 0.03313 0.0
H1574 H 0.61229 0.15321 0.03359 0.0
C1575 C 0.63579 0.07939 0.04117 0.0
C1576 C 0.20333 0.41812 0.24596 0.0
C1577 C 0.21064 0.43887 0.27769 0.0
H1578 H 0.20556 0.37106 0.21641 0.0
C1579 C 0.23132 0.43036 0.30232 0.0
H1580 H 0.18794 0.42415 0.22623 0.0
C1581 C 0.24128 0.39972 0.29674 0.0
C1582 C 0.23084 0.37724 0.26642 0.0
H1583 H 0.23783 0.44603 0.32692 0.0
H1584 H 0.25516 0.39262 0.31707 0.0
C1585 C 0.21334 0.38757 0.2404 0.0
C1586 C 0.18986 0.45727 0.01675 0.0
C1587 C 0.19675 0.43474 0.03832 0.0
H1588 H 0.15575 0.48372 -0.00214 0.0
C1589 C 0.17334 0.42162 0.05781 0.0
H1590 H 0.20734 0.46794 0.00138 0.0
C1591 C 0.14383 0.43072 0.05577 0.0
C1592 C 0.13688 0.4532 0.03421 0.0
H1593 H 0.17778 0.40429 0.07471 0.0
H1594 H 0.12642 0.42002 0.0712 0.0
C1595 C 0.16029 0.46641 0.01474 0.0
C1596 C 0.82922 0.89057 0.24385 0.0
C1597 C 0.81681 0.91751 0.25915 0.0
H1598 H 0.82367 0.83684 0.23148 0.0
C1599 C 0.78651 0.9103 0.27006 0.0
H1600 H 0.85251 0.89522 0.23534 0.0
C1601 C 0.76991 0.87694 0.26783 0.0
C1602 C 0.78324 0.84979 0.25482 0.0
H1603 H 0.77609 0.93049 0.28172 0.0
H1604 H 0.7473 0.87249 0.27786 0.0
C1605 C 0.81268 0.85706 0.24185 0.0
C1606 C 0.66385 0.11457 0.76694 0.0
C1607 C 0.68654 0.0981 0.78 0.0
H1608 H 0.65257 0.16211 0.75997 0.0
C1609 C 0.71728 0.11668 0.79143 0.0
H1610 H 0.63989 0.10085 0.75827 0.0
C1611 C 0.72469 0.15155 0.79174 0.0
C1612 C 0.70119 0.16846 0.78153 0.0
H1613 H 0.73514 0.10452 0.80166 0.0
H1614 H 0.74815 0.16554 0.80225 0.0
C1615 C 0.67101 0.1496 0.76815 0.0
loop_
_geom_bond_atom_site_label_1
_geom_bond_atom_site_label_2
_geom_bond_distance
_geom_bond_site_symmetry_2
_ccdc_geom_bond_type
Mg0 O1 2.028 . S
Mg0 O7 1.986 . S
Mg0 O9 2.114 . S
Mg0 O10 2.251 1_455 S
Mg0 O13 2.010 . S
O1 Mg0 2.028 . S
O1 C4 1.250 . S
O2 Mg3 2.028 1_455 S
O2 C4 1.248 . S
Mg3 O2 2.028 1_655 S
Mg3 O8 2.032 . S
Mg3 O10 2.079 . S
C4 O1 1.250 . S
C4 O2 1.248 . S
C5 O6 1.264 . S
C5 O13 1.249 . S
O6 C5 1.264 . S
O7 Mg0 1.986 . S
O7 C11 1.246 . S
O8 Mg3 2.032 . S
O8 C11 1.259 1_655 S
O9 Mg0 2.114 . S
O9 C12 1.252 1_455 S
O10 Mg0 2.251 1_655 S
O10 Mg3 2.079 . S
O10 C12 1.273 . S
C11 O7 1.246 . S
C11 O8 1.259 1_455 S
C12 O9 1.252 1_655 S
C12 O10 1.273 . S
O13 Mg0 2.010 . S
O13 C5 1.249 . S
Mg14 O15 2.028 . S
Mg14 O21 1.986 . S
Mg14 O23 2.114 1_455 S
Mg14 O24 2.251 1_455 S
Mg14 O27 2.010 . S
O15 Mg14 2.028 . S
O15 C18 1.250 1_455 S
O16 Mg17 2.028 . S
O16 C18 1.248 . S
Mg17 O16 2.028 . S
Mg17 O22 2.032 . S
Mg17 O24 2.079 . S
C18 O15 1.250 1_655 S
C18 O16 1.248 . S
C19 O20 1.264 . S
C19 O27 1.249 . S
O20 C19 1.264 . S
O21 Mg14 1.986 . S
O21 C25 1.246 . S
O22 Mg17 2.032 . S
O22 C25 1.259 1_655 S
O23 Mg14 2.114 1_655 S
O23 C26 1.252 . S
O24 Mg14 2.251 1_655 S
O24 Mg17 2.079 . S
O24 C26 1.273 . S
C25 O21 1.246 . S
C25 O22 1.259 1_455 S
C26 O23 1.252 . S
C26 O24 1.273 . S
O27 Mg14 2.010 . S
O27 C19 1.249 . S
Mg28 O29 2.028 . S
Mg28 O35 1.986 . S
Mg28 O37 2.114 . S
Mg28 O38 2.251 . S
Mg28 O41 2.010 . S
O29 Mg28 2.028 . S
O29 C32 1.250 . S
O30 Mg31 2.028 . S
O30 C32 1.248 . S
Mg31 O30 2.028 . S
Mg31 O36 2.032 . S
Mg31 O38 2.079 . S
C32 O29 1.250 . S
C32 O30 1.248 . S
C33 O34 1.264 . S
C33 O41 1.249 . S
O34 C33 1.264 . S
O35 Mg28 1.986 . S
O35 C39 1.246 . S
O36 Mg31 2.032 . S
O36 C39 1.259 . S
O37 Mg28 2.114 . S
O37 C40 1.252 . S
O38 Mg28 2.251 . S
O38 Mg31 2.079 . S
O38 C40 1.273 . S
C39 O35 1.246 . S
C39 O36 1.259 . S
C40 O37 1.252 . S
C40 O38 1.273 . S
O41 Mg28 2.010 . S
O41 C33 1.249 . S
Mg42 O43 2.028 . S
Mg42 O49 1.986 . S
Mg42 O51 2.114 . S
Mg42 O52 2.251 . S
Mg42 O55 2.010 . S
O43 Mg42 2.028 . S
O43 C46 1.250 . S
O44 Mg45 2.028 . S
O44 C46 1.248 . S
Mg45 O44 2.028 . S
Mg45 O50 2.032 . S
Mg45 O52 2.079 . S
C46 O43 1.250 . S
C46 O44 1.248 . S
C47 O48 1.264 . S
C47 O55 1.249 . S
O48 C47 1.264 . S
O49 Mg42 1.986 . S
O49 C53 1.246 . S
O50 Mg45 2.032 . S
O50 C53 1.259 . S
O51 Mg42 2.114 . S
O51 C54 1.252 . S
O52 Mg42 2.251 . S
O52 Mg45 2.079 . S
O52 C54 1.273 . S
C53 O49 1.246 . S
C53 O50 1.259 . S
C54 O51 1.252 . S
C54 O52 1.273 . S
O55 Mg42 2.010 . S
O55 C47 1.249 . S
Mg56 O57 2.028 . S
Mg56 O63 1.986 . S
Mg56 O65 2.114 . S
Mg56 O66 2.251 1_455 S
Mg56 O69 2.010 . S
O57 Mg56 2.028 . S
O57 C60 1.250 . S
O58 Mg59 2.028 1_455 S
O58 C60 1.248 . S
Mg59 O58 2.028 1_655 S
Mg59 O64 2.032 1_655 S
Mg59 O66 2.079 . S
C60 O57 1.250 . S
C60 O58 1.248 . S
C61 O62 1.264 . S
C61 O69 1.249 . S
O62 C61 1.264 . S
O63 Mg56 1.986 . S
O63 C67 1.246 . S
O64 Mg59 2.032 1_455 S
O64 C67 1.259 . S
O65 Mg56 2.114 . S
O65 C68 1.252 1_455 S
O66 Mg56 2.251 1_655 S
O66 Mg59 2.079 . S
O66 C68 1.273 . S
C67 O63 1.246 . S
C67 O64 1.259 . S
C68 O65 1.252 1_655 S
C68 O66 1.273 . S
O69 Mg56 2.010 . S
O69 C61 1.249 . S
Mg70 O71 2.028 . S
Mg70 O77 1.986 . S
Mg70 O79 2.114 . S
Mg70 O80 2.251 . S
Mg70 O83 2.010 . S
O71 Mg70 2.028 . S
O71 C74 1.250 . S
O72 Mg73 2.028 . S
O72 C74 1.248 . S
Mg73 O72 2.028 . S
Mg73 O78 2.032 . S
Mg73 O80 2.079 . S
C74 O71 1.250 . S
C74 O72 1.248 . S
C75 O76 1.264 . S
C75 O83 1.249 . S
O76 C75 1.264 . S
O77 Mg70 1.986 . S
O77 C81 1.246 . S
O78 Mg73 2.032 . S
O78 C81 1.259 . S
O79 Mg70 2.114 . S
O79 C82 1.252 . S
O80 Mg70 2.251 . S
O80 Mg73 2.079 . S
O80 C82 1.273 . S
C81 O77 1.246 . S
C81 O78 1.259 . S
C82 O79 1.252 . S
C82 O80 1.273 . S
O83 Mg70 2.010 . S
O83 C75 1.249 . S
Mg84 O85 2.028 . S
Mg84 O91 1.986 . S
Mg84 O93 2.114 . S
Mg84 O94 2.251 . S
Mg84 O97 2.010 . S
O85 Mg84 2.028 . S
O85 C88 1.250 . S
O86 Mg87 2.028 . S
O86 C88 1.248 . S
Mg87 O86 2.028 . S
Mg87 O92 2.032 . S
Mg87 O94 2.079 . S
C88 O85 1.250 . S
C88 O86 1.248 . S
C89 O90 1.264 . S
C89 O97 1.249 . S
O90 C89 1.264 . S
O91 Mg84 1.986 . S
O91 C95 1.246 . S
O92 Mg87 2.032 . S
O92 C95 1.259 . S
O93 Mg84 2.114 . S
O93 C96 1.252 . S
O94 Mg84 2.251 . S
O94 Mg87 2.079 . S
O94 C96 1.273 . S
C95 O91 1.246 . S
C95 O92 1.259 . S
C96 O93 1.252 . S
C96 O94 1.273 . S
O97 Mg84 2.010 . S
O97 C89 1.249 . S
Mg98 O99 2.028 1_655 S
Mg98 O105 1.986 1_655 S
Mg98 O107 2.114 . S
Mg98 O108 2.251 . S
Mg98 O111 2.010 1_655 S
O99 Mg98 2.028 1_455 S
O99 C102 1.250 1_455 S
O100 Mg101 2.028 . S
O100 C102 1.248 . S
Mg101 O100 2.028 . S
Mg101 O106 2.032 . S
Mg101 O108 2.079 . S
C102 O99 1.250 1_655 S
C102 O100 1.248 . S
C103 O104 1.264 . S
C103 O111 1.249 . S
O104 C103 1.264 . S
O105 Mg98 1.986 1_455 S
O105 C109 1.246 1_455 S
O106 Mg101 2.032 . S
O106 C109 1.259 . S
O107 Mg98 2.114 . S
O107 C110 1.252 . S
O108 Mg98 2.251 . S
O108 Mg101 2.079 . S
O108 C110 1.273 . S
C109 O105 1.246 1_655 S
C109 O106 1.259 . S
C110 O107 1.252 . S
C110 O108 1.273 . S
O111 Mg98 2.010 1_455 S
O111 C103 1.249 . S
Mg112 O113 2.028 1_545 S
Mg112 O119 1.986 . S
Mg112 O121 2.114 . S
Mg112 O122 2.251 . S
Mg112 O125 2.010 . S
O113 Mg112 2.028 1_565 S
O113 C116 1.250 . S
O114 Mg115 2.028 1_565 S
O114 C116 1.248 . S
Mg115 O114 2.028 1_545 S
Mg115 O120 2.032 . S
Mg115 O122 2.079 . S
C116 O113 1.250 . S
C116 O114 1.248 . S
C117 O118 1.264 . S
C117 O125 1.249 . S
O118 C117 1.264 . S
O119 Mg112 1.986 . S
O119 C123 1.246 . S
O120 Mg115 2.032 . S
O120 C123 1.259 . S
O121 Mg112 2.114 . S
O121 C124 1.252 . S
O122 Mg112 2.251 . S
O122 Mg115 2.079 . S
O122 C124 1.273 . S
C123 O119 1.246 . S
C123 O120 1.259 . S
C124 O121 1.252 . S
C124 O122 1.273 . S
O125 Mg112 2.010 . S
O125 C117 1.249 . S
Mg126 O127 2.028 . S
Mg126 O133 1.986 . S
Mg126 O135 2.114 . S
Mg126 O136 2.251 . S
Mg126 O139 2.010 . S
O127 Mg126 2.028 . S
O127 C130 1.250 . S
O128 Mg129 2.028 . S
O128 C130 1.248 . S
Mg129 O128 2.028 . S
Mg129 O134 2.032 . S
Mg129 O136 2.079 . S
C130 O127 1.250 . S
C130 O128 1.248 . S
C131 O132 1.264 . S
C131 O139 1.249 . S
O132 C131 1.264 . S
O133 Mg126 1.986 . S
O133 C137 1.246 . S
O134 Mg129 2.032 . S
O134 C137 1.259 . S
O135 Mg126 2.114 . S
O135 C138 1.252 . S
O136 Mg126 2.251 . S
O136 Mg129 2.079 . S
O136 C138 1.273 . S
C137 O133 1.246 . S
C137 O134 1.259 . S
C138 O135 1.252 . S
C138 O136 1.273 . S
O139 Mg126 2.010 . S
O139 C131 1.249 . S
Mg140 O141 2.028 . S
Mg140 O147 1.986 1_545 S
Mg140 O149 2.114 . S
Mg140 O150 2.251 . S
Mg140 O153 2.010 1_545 S
O141 Mg140 2.028 . S
O141 C144 1.250 . S
O142 Mg143 2.028 . S
O142 C144 1.248 . S
Mg143 O142 2.028 . S
Mg143 O148 2.032 1_545 S
Mg143 O150 2.079 . S
C144 O141 1.250 . S
C144 O142 1.248 . S
C145 O146 1.268 . S
C145 O153 1.252 . S
O146 C145 1.268 . S
O147 Mg140 1.986 1_565 S
O147 C151 1.246 . S
O148 Mg143 2.032 1_565 S
O148 C151 1.259 . S
O149 Mg140 2.114 . S
O149 C152 1.252 . S
O150 Mg140 2.251 . S
O150 Mg143 2.079 . S
O150 C152 1.273 . S
C151 O147 1.246 . S
C151 O148 1.259 . S
C152 O149 1.252 . S
C152 O150 1.273 . S
O153 Mg140 2.010 1_565 S
O153 C145 1.252 . S
Mg154 O155 2.028 1_554 S
Mg154 O161 1.986 . S
Mg154 O163 2.114 . S
Mg154 O164 2.251 . S
Mg154 O167 2.010 . S
O155 Mg154 2.028 1_556 S
O155 C158 1.250 . S
O156 Mg157 2.028 1_556 S
O156 C158 1.248 . S
Mg157 O156 2.028 1_554 S
Mg157 O162 2.032 . S
Mg157 O164 2.079 . S
C158 O155 1.250 . S
C158 O156 1.248 . S
C159 O160 1.264 . S
C159 O167 1.249 . S
O160 C159 1.264 . S
O161 Mg154 1.986 . S
O161 C165 1.246 . S
O162 Mg157 2.032 . S
O162 C165 1.259 . S
O163 Mg154 2.114 . S
O163 C166 1.252 . S
O164 Mg154 2.251 . S
O164 Mg157 2.079 . S
O164 C166 1.273 . S
C165 O161 1.246 . S
C165 O162 1.259 . S
C166 O163 1.252 . S
C166 O164 1.273 . S
O167 Mg154 2.010 . S
O167 C159 1.249 . S
Mg168 O169 2.028 . S
Mg168 O175 1.986 . S
Mg168 O177 2.114 . S
Mg168 O178 2.251 . S
Mg168 O181 2.010 . S
O169 Mg168 2.028 . S
O169 C172 1.250 . S
O170 Mg171 2.028 . S
O170 C172 1.248 . S
Mg171 O170 2.028 . S
Mg171 O176 2.032 . S
Mg171 O178 2.079 . S
C172 O169 1.250 . S
C172 O170 1.248 . S
C173 O174 1.264 . S
C173 O181 1.249 . S
O174 C173 1.264 . S
O175 Mg168 1.986 . S
O175 C179 1.246 . S
O176 Mg171 2.032 . S
O176 C179 1.259 . S
O177 Mg168 2.114 . S
O177 C180 1.252 . S
O178 Mg168 2.251 . S
O178 Mg171 2.079 . S
O178 C180 1.273 . S
C179 O175 1.246 . S
C179 O176 1.259 . S
C180 O177 1.252 . S
C180 O178 1.273 . S
O181 Mg168 2.010 . S
O181 C173 1.249 . S
Mg182 O183 2.028 . S
Mg182 O189 1.997 . S
Mg182 O191 2.114 . S
Mg182 O192 2.251 . S
Mg182 O195 2.010 . S
O183 Mg182 2.028 . S
O183 C186 1.250 . S
O184 Mg185 2.028 . S
O184 C186 1.248 . S
Mg185 O184 2.028 . S
Mg185 O190 2.032 . S
Mg185 O192 2.079 . S
C186 O183 1.250 . S
C186 O184 1.248 . S
C187 O188 1.264 . S
C187 O195 1.249 . S
O188 C187 1.264 . S
O189 Mg182 1.997 . S
O189 C193 1.239 1_554 S
O190 Mg185 2.032 . S
O190 C193 1.259 1_554 S
O191 Mg182 2.114 . S
O191 C194 1.252 . S
O192 Mg182 2.251 . S
O192 Mg185 2.079 . S
O192 C194 1.273 . S
C193 O189 1.239 1_556 S
C193 O190 1.259 1_556 S
C194 O191 1.252 . S
C194 O192 1.273 . S
O195 Mg182 2.010 . S
O195 C187 1.249 . S
Mg196 O197 2.028 . S
Mg196 O203 1.986 . S
Mg196 O205 2.114 . S
Mg196 O206 2.251 . S
Mg196 O209 2.010 . S
O197 Mg196 2.028 . S
O197 C200 1.250 . S
O198 Mg199 2.028 . S
O198 C200 1.248 . S
Mg199 O198 2.028 . S
Mg199 O204 2.032 . S
Mg199 O206 2.079 . S
C200 O197 1.250 . S
C200 O198 1.248 . S
C201 O202 1.264 . S
C201 O209 1.249 . S
O202 C201 1.264 . S
O203 Mg196 1.986 . S
O203 C207 1.246 . S
O204 Mg199 2.032 . S
O204 C207 1.259 . S
O205 Mg196 2.114 . S
O205 C208 1.252 . S
O206 Mg196 2.251 . S
O206 Mg199 2.079 . S
O206 C208 1.273 . S
C207 O203 1.246 . S
C207 O204 1.259 . S
C208 O205 1.252 . S
C208 O206 1.273 . S
O209 Mg196 2.010 . S
O209 C201 1.249 . S
Mg210 O211 2.028 . S
Mg210 O217 1.986 . S
Mg210 O219 2.114 . S
Mg210 O220 2.251 . S
Mg210 O223 2.010 . S
O211 Mg210 2.028 . S
O211 C214 1.250 . S
O212 Mg213 2.028 . S
O212 C214 1.248 . S
Mg213 O212 2.028 . S
Mg213 O218 2.032 . S
Mg213 O220 2.079 . S
C214 O211 1.250 . S
C214 O212 1.248 . S
C215 O216 1.264 . S
C215 O223 1.249 . S
O216 C215 1.264 . S
O217 Mg210 1.986 . S
O217 C221 1.246 . S
O218 Mg213 2.032 . S
O218 C221 1.259 . S
O219 Mg210 2.114 . S
O219 C222 1.252 . S
O220 Mg210 2.251 . S
O220 Mg213 2.079 . S
O220 C222 1.273 . S
C221 O217 1.246 . S
C221 O218 1.259 . S
C222 O219 1.252 . S
C222 O220 1.273 . S
O223 Mg210 2.010 . S
O223 C215 1.249 . S
Mg224 O225 2.028 1_545 S
Mg224 O231 1.986 . S
Mg224 O233 2.113 1_545 S
Mg224 O234 2.251 . S
Mg224 O237 2.010 . S
O225 Mg224 2.028 1_565 S
O225 C228 1.250 . S
O226 Mg227 2.028 1_565 S
O226 C228 1.248 . S
Mg227 O226 2.028 1_545 S
Mg227 O232 2.032 . S
Mg227 O234 2.079 . S
C228 O225 1.250 . S
C228 O226 1.248 . S
C229 O230 1.264 . S
C229 O237 1.249 . S
O230 C229 1.264 . S
O231 Mg224 1.986 . S
O231 C235 1.246 . S
O232 Mg227 2.032 . S
O232 C235 1.259 . S
O233 Mg224 2.113 1_565 S
O233 C236 1.252 1_565 S
O234 Mg224 2.251 . S
O234 Mg227 2.079 . S
O234 C236 1.273 . S
C235 O231 1.246 . S
C235 O232 1.259 . S
C236 O233 1.252 1_545 S
C236 O234 1.273 . S
O237 Mg224 2.010 . S
O237 C229 1.249 . S
Mg238 O239 2.028 . S
Mg238 O245 1.986 . S
Mg238 O247 2.114 . S
Mg238 O248 2.251 . S
Mg238 O251 2.010 . S
O239 Mg238 2.028 . S
O239 C242 1.250 . S
O240 Mg241 2.028 . S
O240 C242 1.248 . S
Mg241 O240 2.028 . S
Mg241 O246 2.032 . S
Mg241 O248 2.079 . S
C242 O239 1.250 . S
C242 O240 1.248 . S
C243 O244 1.264 . S
C243 O251 1.249 . S
O244 C243 1.264 . S
O245 Mg238 1.986 . S
O245 C249 1.246 . S
O246 Mg241 2.032 . S
O246 C249 1.259 . S
O247 Mg238 2.114 . S
O247 C250 1.252 . S
O248 Mg238 2.251 . S
O248 Mg241 2.079 . S
O248 C250 1.273 . S
C249 O245 1.246 . S
C249 O246 1.259 . S
C250 O247 1.252 . S
C250 O248 1.273 . S
O251 Mg238 2.010 . S
O251 C243 1.249 . S
Mg252 O253 2.028 . S
Mg252 O259 1.986 . S
Mg252 O261 2.114 . S
Mg252 O262 2.251 . S
Mg252 O265 2.010 . S
O253 Mg252 2.028 . S
O253 C256 1.250 . S
O254 Mg255 2.028 . S
O254 C256 1.248 . S
Mg255 O254 2.028 . S
Mg255 O260 2.032 . S
Mg255 O262 2.079 . S
C256 O253 1.250 . S
C256 O254 1.248 . S
C257 O258 1.264 . S
C257 O265 1.249 . S
O258 C257 1.264 . S
O259 Mg252 1.986 . S
O259 C263 1.246 . S
O260 Mg255 2.032 . S
O260 C263 1.259 . S
O261 Mg252 2.114 . S
O261 C264 1.252 . S
O262 Mg252 2.251 . S
O262 Mg255 2.079 . S
O262 C264 1.273 . S
C263 O259 1.246 . S
C263 O260 1.259 . S
C264 O261 1.252 . S
C264 O262 1.273 . S
O265 Mg252 2.010 . S
O265 C257 1.249 . S
Mg266 O267 2.028 1_565 S
Mg266 O273 1.986 . S
Mg266 O275 2.114 1_565 S
Mg266 O276 2.251 . S
Mg266 O279 2.010 . S
O267 Mg266 2.028 1_545 S
O267 C270 1.250 . S
O268 Mg269 2.028 . S
O268 C270 1.248 . S
Mg269 O268 2.028 . S
Mg269 O274 2.032 1_545 S
Mg269 O276 2.079 1_545 S
C270 O267 1.250 . S
C270 O268 1.248 . S
C271 O272 1.264 . S
C271 O279 1.249 . S
O272 C271 1.264 . S
O273 Mg266 1.986 . S
O273 C277 1.246 . S
O274 Mg269 2.032 1_565 S
O274 C277 1.259 . S
O275 Mg266 2.114 1_545 S
O275 C278 1.252 . S
O276 Mg266 2.251 . S
O276 Mg269 2.079 1_565 S
O276 C278 1.273 1_565 S
C277 O273 1.246 . S
C277 O274 1.259 . S
C278 O275 1.252 . S
C278 O276 1.273 1_545 S
O279 Mg266 2.010 . S
O279 C271 1.249 . S
Mg280 O281 2.028 1_556 S
Mg280 O287 1.986 . S
Mg280 O289 2.114 1_556 S
Mg280 O290 2.251 . S
Mg280 O293 2.010 . S
O281 Mg280 2.028 1_554 S
O281 C284 1.250 . S
O282 Mg283 2.028 . S
O282 C284 1.248 . S
Mg283 O282 2.028 . S
Mg283 O288 2.032 1_554 S
Mg283 O290 2.079 1_554 S
C284 O281 1.250 . S
C284 O282 1.248 . S
C285 O286 1.264 . S
C285 O293 1.249 . S
O286 C285 1.264 . S
O287 Mg280 1.986 . S
O287 C291 1.246 . S
O288 Mg283 2.032 1_556 S
O288 C291 1.259 . S
O289 Mg280 2.114 1_554 S
O289 C292 1.252 . S
O290 Mg280 2.251 . S
O290 Mg283 2.079 1_556 S
O290 C292 1.273 1_556 S
C291 O287 1.246 . S
C291 O288 1.259 . S
C292 O289 1.252 . S
C292 O290 1.273 1_554 S
O293 Mg280 2.010 . S
O293 C285 1.249 . S
Mg294 O295 2.028 . S
Mg294 O301 1.986 . S
Mg294 O303 2.114 . S
Mg294 O304 2.251 . S
Mg294 O307 2.010 . S
O295 Mg294 2.028 . S
O295 C298 1.250 . S
O296 Mg297 2.028 . S
O296 C298 1.248 . S
Mg297 O296 2.028 . S
Mg297 O302 2.032 . S
Mg297 O304 2.079 . S
C298 O295 1.250 . S
C298 O296 1.248 . S
C299 O300 1.264 . S
C299 O307 1.249 . S
O300 C299 1.264 . S
O301 Mg294 1.986 . S
O301 C305 1.246 . S
O302 Mg297 2.032 . S
O302 C305 1.259 . S
O303 Mg294 2.114 . S
O303 C306 1.252 . S
O304 Mg294 2.251 . S
O304 Mg297 2.079 . S
O304 C306 1.273 . S
C305 O301 1.246 . S
C305 O302 1.259 . S
C306 O303 1.252 . S
C306 O304 1.273 . S
O307 Mg294 2.010 . S
O307 C299 1.249 . S
Mg308 O309 2.028 . S
Mg308 O315 1.986 . S
Mg308 O317 2.114 . S
Mg308 O318 2.251 . S
Mg308 O321 2.010 . S
O309 Mg308 2.028 . S
O309 C312 1.250 . S
O310 Mg311 2.028 . S
O310 C312 1.248 . S
Mg311 O310 2.028 . S
Mg311 O316 2.032 . S
Mg311 O318 2.079 . S
C312 O309 1.250 . S
C312 O310 1.248 . S
C313 O314 1.264 . S
C313 O321 1.249 . S
O314 C313 1.264 . S
O315 Mg308 1.986 . S
O315 C319 1.246 . S
O316 Mg311 2.032 . S
O316 C319 1.259 . S
O317 Mg308 2.114 . S
O317 C320 1.252 . S
O318 Mg308 2.251 . S
O318 Mg311 2.079 . S
O318 C320 1.273 . S
C319 O315 1.246 . S
C319 O316 1.259 . S
C320 O317 1.252 . S
C320 O318 1.273 . S
O321 Mg308 2.010 . S
O321 C313 1.249 . S
Mg322 O323 2.028 . S
Mg322 O329 1.986 . S
Mg322 O331 2.114 . S
Mg322 O332 2.251 . S
Mg322 O335 2.010 . S
O323 Mg322 2.028 . S
O323 C326 1.250 . S
O324 Mg325 2.028 . S
O324 C326 1.248 . S
Mg325 O324 2.028 . S
Mg325 O330 2.032 . S
Mg325 O332 2.079 . S
C326 O323 1.250 . S
C326 O324 1.248 . S
C327 O328 1.264 . S
C327 O335 1.249 . S
O328 C327 1.264 . S
O329 Mg322 1.986 . S
O329 C333 1.246 . S
O330 Mg325 2.032 . S
O330 C333 1.259 . S
O331 Mg322 2.114 . S
O331 C334 1.252 . S
O332 Mg322 2.251 . S
O332 Mg325 2.079 . S
O332 C334 1.273 . S
C333 O329 1.246 . S
C333 O330 1.259 . S
C334 O331 1.252 . S
C334 O332 1.273 . S
O335 Mg322 2.010 . S
O335 C327 1.249 . S
Zn336 O342 1.969 . S
Zn336 O343 1.965 1_565 S
Zn336 O347 2.024 . S
Zn336 O352 1.969 . S
Zn337 O344 1.969 1_654 S
Zn337 O350 1.969 1_554 S
Zn337 O351 1.965 . S
Zn337 O353 2.024 1_655 S
C338 O339 1.229 . S
C338 O347 1.058 . S
O339 C338 1.229 . S
C340 O341 1.229 1_454 S
C340 O353 1.058 . S
O341 C340 1.229 1_656 S
O342 Zn336 1.969 . S
O342 C345 1.267 . S
O343 Zn336 1.965 1_545 S
O343 C354 1.260 1_554 S
O344 Zn337 1.969 1_456 S
O344 C354 1.258 . S
C345 O342 1.267 . S
C345 O346 1.228 . S
O346 C345 1.228 . S
O347 Zn336 2.024 . S
O347 C338 1.058 . S
C348 O349 1.210 1_556 S
C348 O350 1.280 . S
O349 C348 1.210 1_554 S
O350 Zn337 1.969 1_556 S
O350 C348 1.280 . S
O351 Zn337 1.965 . S
O351 C355 1.260 1_655 S
O352 Zn336 1.969 . S
O352 C355 1.258 1_565 S
O353 Zn337 2.024 1_455 S
O353 C340 1.058 . S
C354 O343 1.260 1_556 S
C354 O344 1.258 . S
C355 O351 1.260 1_455 S
C355 O352 1.258 1_545 S
Zn356 O362 1.969 . S
Zn356 O363 1.965 . S
Zn356 O367 2.024 . S
Zn356 O372 1.969 . S
Zn357 O364 1.969 . S
Zn357 O370 1.969 . S
Zn357 O371 1.965 . S
Zn357 O373 2.024 . S
C358 O359 1.229 . S
C358 O367 1.058 . S
O359 C358 1.229 . S
C360 O361 1.229 . S
C360 O373 1.058 . S
O361 C360 1.229 . S
O362 Zn356 1.969 . S
O362 C365 1.267 . S
O363 Zn356 1.965 . S
O363 C374 1.260 . S
O364 Zn357 1.969 . S
O364 C374 1.258 . S
C365 O362 1.267 . S
C365 O366 1.228 . S
O366 C365 1.228 . S
O367 Zn356 2.024 . S
O367 C358 1.058 . S
C368 O369 1.228 . S
C368 O370 1.267 . S
O369 C368 1.228 . S
O370 Zn357 1.969 . S
O370 C368 1.267 . S
O371 Zn357 1.965 . S
O371 C375 1.260 . S
O372 Zn356 1.969 . S
O372 C375 1.258 . S
O373 Zn357 2.024 . S
O373 C360 1.058 . S
C374 O363 1.260 . S
C374 O364 1.258 . S
C375 O371 1.260 . S
C375 O372 1.258 . S
Zn376 O382 1.969 . S
Zn376 O383 1.965 . S
Zn376 O387 2.024 . S
Zn376 O392 1.969 . S
Zn377 O384 1.969 . S
Zn377 O390 1.969 . S
Zn377 O391 1.965 1_565 S
Zn377 O393 2.024 . S
C378 O379 1.229 . S
C378 O387 1.058 . S
O379 C378 1.229 . S
C380 O381 1.229 . S
C380 O393 1.058 . S
O381 C380 1.229 . S
O382 Zn376 1.969 . S
O382 C385 1.267 . S
O383 Zn376 1.965 . S
O383 C394 1.260 . S
O384 Zn377 1.969 . S
O384 C394 1.258 1_565 S
C385 O382 1.267 . S
C385 O386 1.228 . S
O386 C385 1.228 . S
O387 Zn376 2.024 . S
O387 C378 1.058 . S
C388 O389 1.228 . S
C388 O390 1.267 . S
O389 C388 1.228 . S
O390 Zn377 1.969 . S
O390 C388 1.267 . S
O391 Zn377 1.965 1_545 S
O391 C395 1.260 . S
O392 Zn376 1.969 . S
O392 C395 1.258 . S
O393 Zn377 2.024 . S
O393 C380 1.058 . S
C394 O383 1.260 . S
C394 O384 1.258 1_545 S
C395 O391 1.260 . S
C395 O392 1.258 . S
Zn396 O402 1.969 . S
Zn396 O403 1.965 . S
Zn396 O407 2.024 . S
Zn396 O412 1.969 . S
Zn397 O404 1.969 . S
Zn397 O410 1.969 . S
Zn397 O411 1.965 . S
Zn397 O413 2.024 . S
C398 O399 1.229 . S
C398 O407 1.058 . S
O399 C398 1.229 . S
C400 O401 1.229 . S
C400 O413 1.058 . S
O401 C400 1.229 . S
O402 Zn396 1.969 . S
O402 C405 1.267 . S
O403 Zn396 1.965 . S
O403 C414 1.260 . S
O404 Zn397 1.969 . S
O404 C414 1.258 . S
C405 O402 1.267 . S
C405 O406 1.228 . S
O406 C405 1.228 . S
O407 Zn396 2.024 . S
O407 C398 1.058 . S
C408 O409 1.228 . S
C408 O410 1.267 . S
O409 C408 1.228 . S
O410 Zn397 1.969 . S
O410 C408 1.267 . S
O411 Zn397 1.965 . S
O411 C415 1.260 . S
O412 Zn396 1.969 . S
O412 C415 1.258 . S
O413 Zn397 2.024 . S
O413 C400 1.058 . S
C414 O403 1.260 . S
C414 O404 1.258 . S
C415 O411 1.260 . S
C415 O412 1.258 . S
Zn416 O422 1.969 . S
Zn416 O423 1.965 1_455 S
Zn416 O427 2.024 1_565 S
Zn416 O432 1.969 1_565 S
Zn417 O424 1.991 . S
Zn417 O430 1.982 . S
Zn417 O431 1.940 1_655 S
Zn417 O433 2.010 1_655 S
C418 O419 1.229 1_545 S
C418 O427 1.058 . S
O419 C418 1.229 1_565 S
C420 O421 1.229 . S
C420 O433 1.032 1_655 S
O421 C420 1.229 . S
O422 Zn416 1.969 . S
O422 C425 1.267 . S
O423 Zn416 1.965 1_655 S
O423 C434 1.260 . S
O424 Zn417 1.991 . S
O424 C434 1.258 1_545 S
C425 O422 1.267 . S
C425 O426 1.228 . S
O426 C425 1.228 . S
O427 Zn416 2.024 1_545 S
O427 C418 1.058 . S
C428 O429 1.228 . S
C428 O430 1.267 1_455 S
O429 C428 1.228 . S
O430 Zn417 1.982 . S
O430 C428 1.267 1_655 S
O431 Zn417 1.940 1_455 S
O431 C435 1.260 . S
O432 Zn416 1.969 1_545 S
O432 C435 1.258 . S
O433 Zn417 2.010 1_455 S
O433 C420 1.032 1_455 S
C434 O423 1.260 . S
C434 O424 1.258 1_565 S
C435 O431 1.260 . S
C435 O432 1.258 . S
Zn436 O442 1.969 . S
Zn436 O443 1.965 . S
Zn436 O447 2.024 . S
Zn436 O452 1.969 . S
Zn437 O444 1.969 . S
Zn437 O450 1.969 . S
Zn437 O451 1.965 . S
Zn437 O453 2.024 . S
C438 O439 1.229 . S
C438 O447 1.058 . S
O439 C438 1.229 . S
C440 O441 1.229 . S
C440 O453 1.058 . S
O441 C440 1.229 . S
O442 Zn436 1.969 . S
O442 C445 1.267 . S
O443 Zn436 1.965 . S
O443 C454 1.260 . S
O444 Zn437 1.969 . S
O444 C454 1.258 . S
C445 O442 1.267 . S
C445 O446 1.228 . S
O446 C445 1.228 . S
O447 Zn436 2.024 . S
O447 C438 1.058 . S
C448 O449 1.228 . S
C448 O450 1.267 . S
O449 C448 1.228 . S
O450 Zn437 1.969 . S
O450 C448 1.267 . S
O451 Zn437 1.965 . S
O451 C455 1.260 . S
O452 Zn436 1.969 . S
O452 C455 1.258 . S
O453 Zn437 2.024 . S
O453 C440 1.058 . S
C454 O443 1.260 . S
C454 O444 1.258 . S
C455 O451 1.260 . S
C455 O452 1.258 . S
Zn456 O462 1.969 . S
Zn456 O463 1.965 1_545 S
Zn456 O467 2.024 1_556 S
Zn456 O472 1.969 1_556 S
Zn457 O464 1.969 . S
Zn457 O470 1.969 . S
Zn457 O471 1.965 1_565 S
Zn457 O473 2.024 . S
C458 O459 1.229 . S
C458 O467 1.058 . S
O459 C458 1.229 . S
C460 O461 1.229 . S
C460 O473 1.058 . S
O461 C460 1.229 . S
O462 Zn456 1.969 . S
O462 C465 1.267 . S
O463 Zn456 1.965 1_565 S
O463 C474 1.260 1_556 S
O464 Zn457 1.969 . S
O464 C474 1.258 . S
C465 O462 1.267 . S
C465 O466 1.228 . S
O466 C465 1.228 . S
O467 Zn456 2.024 1_554 S
O467 C458 1.058 . S
C468 O469 1.228 1_565 S
C468 O470 1.267 . S
O469 C468 1.228 1_545 S
O470 Zn457 1.969 . S
O470 C468 1.267 . S
O471 Zn457 1.965 1_545 S
O471 C475 1.260 . S
O472 Zn456 1.969 1_554 S
O472 C475 1.258 . S
O473 Zn457 2.024 . S
O473 C460 1.058 . S
C474 O463 1.260 1_554 S
C474 O464 1.258 . S
C475 O471 1.260 . S
C475 O472 1.258 . S
Zn476 O482 1.969 . S
Zn476 O483 1.965 . S
Zn476 O487 2.024 . S
Zn476 O492 1.969 . S
Zn477 O484 1.969 . S
Zn477 O490 1.969 . S
Zn477 O491 1.965 . S
Zn477 O493 2.024 . S
C478 O479 1.229 . S
C478 O487 1.058 . S
O479 C478 1.229 . S
C480 O481 1.229 . S
C480 O493 1.058 . S
O481 C480 1.229 . S
O482 Zn476 1.969 . S
O482 C485 1.267 . S
O483 Zn476 1.965 . S
O483 C494 1.260 . S
O484 Zn477 1.969 . S
O484 C494 1.258 . S
C485 O482 1.267 . S
C485 O486 1.228 . S
O486 C485 1.228 . S
O487 Zn476 2.024 . S
O487 C478 1.058 . S
C488 O489 1.228 . S
C488 O490 1.267 . S
O489 C488 1.228 . S
O490 Zn477 1.969 . S
O490 C488 1.267 . S
O491 Zn477 1.965 . S
O491 C495 1.260 . S
O492 Zn476 1.969 . S
O492 C495 1.258 . S
O493 Zn477 2.024 . S
O493 C480 1.058 . S
C494 O483 1.260 . S
C494 O484 1.258 . S
C495 O491 1.260 . S
C495 O492 1.258 . S
Zn496 O502 1.969 . S
Zn496 O503 1.965 . S
Zn496 O507 2.024 . S
Zn496 O512 1.969 . S
Zn497 O504 1.969 1_556 S
Zn497 O510 1.969 1_556 S
Zn497 O511 1.965 1_556 S
Zn497 O513 2.024 . S
C498 O499 1.229 . S
C498 O507 1.058 . S
O499 C498 1.229 . S
C500 O501 1.229 . S
C500 O513 1.058 . S
O501 C500 1.229 . S
O502 Zn496 1.969 . S
O502 C505 1.267 . S
O503 Zn496 1.965 . S
O503 C514 1.260 . S
O504 Zn497 1.969 1_554 S
O504 C514 1.258 . S
C505 O502 1.267 . S
C505 O506 1.228 . S
O506 C505 1.228 . S
O507 Zn496 2.024 . S
O507 C498 1.058 . S
C508 O509 1.228 . S
C508 O510 1.267 1_556 S
O509 C508 1.228 . S
O510 Zn497 1.969 1_554 S
O510 C508 1.267 1_554 S
O511 Zn497 1.965 1_554 S
O511 C515 1.260 . S
O512 Zn496 1.969 . S
O512 C515 1.258 . S
O513 Zn497 2.024 . S
O513 C500 1.058 . S
C514 O503 1.260 . S
C514 O504 1.258 . S
C515 O511 1.260 . S
C515 O512 1.258 . S
Zn516 O522 1.969 . S
Zn516 O523 1.965 . S
Zn516 O527 2.024 . S
Zn516 O532 1.969 . S
Zn517 O524 1.969 . S
Zn517 O530 1.969 . S
Zn517 O531 1.965 . S
Zn517 O533 2.024 . S
C518 O519 1.229 . S
C518 O527 1.058 . S
O519 C518 1.229 . S
C520 O521 1.229 . S
C520 O533 1.058 . S
O521 C520 1.229 . S
O522 Zn516 1.969 . S
O522 C525 1.267 . S
O523 Zn516 1.965 . S
O523 C534 1.260 . S
O524 Zn517 1.969 . S
O524 C534 1.258 . S
C525 O522 1.267 . S
C525 O526 1.228 . S
O526 C525 1.228 . S
O527 Zn516 2.024 . S
O527 C518 1.058 . S
C528 O529 1.228 . S
C528 O530 1.267 . S
O529 C528 1.228 . S
O530 Zn517 1.969 . S
O530 C528 1.267 . S
O531 Zn517 1.965 . S
O531 C535 1.260 . S
O532 Zn516 1.969 . S
O532 C535 1.258 . S
O533 Zn517 2.024 . S
O533 C520 1.058 . S
C534 O523 1.260 . S
C534 O524 1.258 . S
C535 O531 1.260 . S
C535 O532 1.258 . S
Zn536 O542 1.969 . S
Zn536 O543 1.965 . S
Zn536 O547 2.024 . S
Zn536 O552 1.969 . S
Zn537 O544 1.969 1_655 S
Zn537 O550 1.969 . S
Zn537 O551 1.965 1_655 S
Zn537 O553 2.024 . S
C538 O539 1.229 . S
C538 O547 1.058 . S
O539 C538 1.229 . S
C540 O541 1.229 . S
C540 O553 1.058 . S
O541 C540 1.229 . S
O542 Zn536 1.969 . S
O542 C545 1.267 . S
O543 Zn536 1.965 . S
O543 C554 1.260 . S
O544 Zn537 1.969 1_455 S
O544 C554 1.258 . S
C545 O542 1.267 . S
C545 O546 1.228 . S
O546 C545 1.228 . S
O547 Zn536 2.024 . S
O547 C538 1.058 . S
C548 O549 1.228 . S
C548 O550 1.267 . S
O549 C548 1.228 . S
O550 Zn537 1.969 . S
O550 C548 1.267 . S
O551 Zn537 1.965 1_455 S
O551 C555 1.260 . S
O552 Zn536 1.969 . S
O552 C555 1.258 . S
O553 Zn537 2.024 . S
O553 C540 1.058 . S
C554 O543 1.260 . S
C554 O544 1.258 . S
C555 O551 1.260 . S
C555 O552 1.258 . S
Zn556 O562 1.969 . S
Zn556 O563 1.965 . S
Zn556 O567 2.024 . S
Zn556 O572 1.969 . S
Zn557 O564 1.969 . S
Zn557 O570 1.969 . S
Zn557 O571 1.965 . S
Zn557 O573 2.024 . S
C558 O559 1.229 . S
C558 O567 1.058 . S
O559 C558 1.229 . S
C560 O561 1.229 . S
C560 O573 1.058 . S
O561 C560 1.229 . S
O562 Zn556 1.969 . S
O562 C565 1.267 . S
O563 Zn556 1.965 . S
O563 C574 1.260 . S
O564 Zn557 1.969 . S
O564 C574 1.258 . S
C565 O562 1.267 . S
C565 O566 1.228 . S
O566 C565 1.228 . S
O567 Zn556 2.024 . S
O567 C558 1.058 . S
C568 O569 1.228 . S
C568 O570 1.267 . S
O569 C568 1.228 . S
O570 Zn557 1.969 . S
O570 C568 1.267 . S
O571 Zn557 1.965 . S
O571 C575 1.260 . S
O572 Zn556 1.969 . S
O572 C575 1.258 . S
O573 Zn557 2.024 . S
O573 C560 1.058 . S
C574 O563 1.260 . S
C574 O564 1.258 . S
C575 O571 1.260 . S
C575 O572 1.258 . S
Zn576 O582 1.969 . S
Zn576 O583 1.965 . S
Zn576 O587 2.024 . S
Zn576 O592 1.969 . S
Zn577 O584 1.969 . S
Zn577 O590 1.969 . S
Zn577 O591 1.965 . S
Zn577 O593 2.024 . S
C578 O579 1.229 . S
C578 O587 1.058 . S
O579 C578 1.229 . S
C580 O581 1.229 . S
C580 O593 1.058 . S
O581 C580 1.229 . S
O582 Zn576 1.969 . S
O582 C585 1.267 . S
O583 Zn576 1.965 . S
O583 C594 1.260 . S
O584 Zn577 1.969 . S
O584 C594 1.258 . S
C585 O582 1.267 . S
C585 O586 1.228 . S
O586 C585 1.228 . S
O587 Zn576 2.024 . S
O587 C578 1.058 . S
C588 O589 1.228 . S
C588 O590 1.267 . S
O589 C588 1.228 . S
O590 Zn577 1.969 . S
O590 C588 1.267 . S
O591 Zn577 1.965 . S
O591 C595 1.260 . S
O592 Zn576 1.969 . S
O592 C595 1.258 . S
O593 Zn577 2.024 . S
O593 C580 1.058 . S
C594 O583 1.260 . S
C594 O584 1.258 . S
C595 O591 1.260 . S
C595 O592 1.258 . S
Zn596 O602 1.969 . S
Zn596 O603 1.965 . S
Zn596 O607 2.024 . S
Zn596 O612 1.969 . S
Zn597 O604 1.969 . S
Zn597 O610 1.969 . S
Zn597 O611 1.965 . S
Zn597 O613 2.024 . S
C598 O599 1.229 . S
C598 O607 1.058 . S
O599 C598 1.229 . S
C600 O601 1.229 . S
C600 O613 1.058 . S
O601 C600 1.229 . S
O602 Zn596 1.969 . S
O602 C605 1.267 . S
O603 Zn596 1.965 . S
O603 C614 1.260 . S
O604 Zn597 1.969 . S
O604 C614 1.258 . S
C605 O602 1.267 . S
C605 O606 1.228 . S
O606 C605 1.228 . S
O607 Zn596 2.024 . S
O607 C598 1.058 . S
C608 O609 1.228 . S
C608 O610 1.267 . S
O609 C608 1.228 . S
O610 Zn597 1.969 . S
O610 C608 1.267 . S
O611 Zn597 1.965 . S
O611 C615 1.260 . S
O612 Zn596 1.969 . S
O612 C615 1.258 . S
O613 Zn597 2.024 . S
O613 C600 1.058 . S
C614 O603 1.260 . S
C614 O604 1.258 . S
C615 O611 1.260 . S
C615 O612 1.258 . S
Zn616 O622 1.969 . S
Zn616 O623 1.965 . S
Zn616 O627 2.024 . S
Zn616 O632 1.969 . S
Zn617 O624 1.969 . S
Zn617 O630 1.969 . S
Zn617 O631 1.965 . S
Zn617 O633 2.024 . S
C618 O619 1.229 . S
C618 O627 1.058 . S
O619 C618 1.229 . S
C620 O621 1.229 . S
C620 O633 1.058 . S
O621 C620 1.229 . S
O622 Zn616 1.969 . S
O622 C625 1.267 . S
O623 Zn616 1.965 . S
O623 C634 1.260 . S
O624 Zn617 1.969 . S
O624 C634 1.258 . S
C625 O622 1.267 . S
C625 O626 1.228 . S
O626 C625 1.228 . S
O627 Zn616 2.024 . S
O627 C618 1.058 . S
C628 O629 1.228 . S
C628 O630 1.267 . S
O629 C628 1.228 . S
O630 Zn617 1.969 . S
O630 C628 1.267 . S
O631 Zn617 1.965 . S
O631 C635 1.260 . S
O632 Zn616 1.969 . S
O632 C635 1.258 . S
O633 Zn617 2.024 . S
O633 C620 1.058 . S
C634 O623 1.260 . S
C634 O624 1.258 . S
C635 O631 1.260 . S
C635 O632 1.258 . S
Zn636 O642 1.969 . S
Zn636 O643 1.965 . S
Zn636 O647 2.024 1_655 S
Zn636 O652 1.969 1_655 S
Zn637 O644 1.969 1_554 S
Zn637 O650 1.969 1_554 S
Zn637 O651 1.965 . S
Zn637 O653 2.024 . S
C638 O639 1.207 1_455 S
C638 O647 1.058 . S
O639 C638 1.207 1_655 S
C640 O641 1.229 . S
C640 O653 1.058 1_556 S
O641 C640 1.229 . S
O642 Zn636 1.969 . S
O642 C645 1.267 . S
O643 Zn636 1.965 . S
O643 C654 1.260 1_654 S
O644 Zn637 1.969 1_556 S
O644 C654 1.258 . S
C645 O642 1.267 . S
C645 O646 1.228 . S
O646 C645 1.228 . S
O647 Zn636 2.024 1_455 S
O647 C638 1.058 . S
C648 O649 1.228 . S
C648 O650 1.267 1_554 S
O649 C648 1.228 . S
O650 Zn637 1.969 1_556 S
O650 C648 1.267 1_556 S
O651 Zn637 1.965 . S
O651 C655 1.260 . S
O652 Zn636 1.969 1_455 S
O652 C655 1.258 . S
O653 Zn637 2.024 . S
O653 C640 1.058 1_554 S
C654 O643 1.260 1_456 S
C654 O644 1.258 . S
C655 O651 1.260 . S
C655 O652 1.258 . S
C656 C657 1.387 1_455 S
C656 H660 0.950 . S
C656 C665 1.390 . S
C657 C656 1.387 1_655 S
C657 C659 1.387 . S
H658 C665 0.950 . S
C659 C657 1.387 . S
C659 C661 1.403 . S
C659 H663 0.950 . S
H660 C656 0.950 . S
C661 C659 1.403 . S
C661 C662 1.390 1_655 S
C661 H664 0.934 1_556 S
C662 C661 1.390 1_455 S
C662 C665 1.387 . S
H663 C659 0.950 . S
H664 C661 0.934 1_554 S
C665 C656 1.390 . S
C665 H658 0.950 . S
C665 C662 1.387 . S
C666 C667 1.387 . S
C666 H670 0.950 . S
C666 C675 1.390 . S
C667 C666 1.387 . S
C667 C669 1.387 . S
H668 C675 0.950 . S
C669 C667 1.387 . S
C669 C671 1.390 . S
C669 H673 0.950 . S
H670 C666 0.950 . S
C671 C669 1.390 . S
C671 C672 1.387 . S
C671 H674 0.950 . S
C672 C671 1.387 . S
C672 C675 1.387 . S
H673 C669 0.950 . S
H674 C671 0.950 . S
C675 C666 1.390 . S
C675 H668 0.950 . S
C675 C672 1.387 . S
C676 C677 1.387 . S
C676 H680 0.950 . S
C676 C685 1.390 . S
C677 C676 1.387 . S
C677 C679 1.387 . S
H678 C685 0.950 . S
C679 C677 1.387 . S
C679 C681 1.390 . S
C679 H683 0.950 . S
H680 C676 0.950 . S
C681 C679 1.390 . S
C681 C682 1.387 . S
C681 H684 0.950 . S
C682 C681 1.387 . S
C682 C685 1.387 . S
H683 C679 0.950 . S
H684 C681 0.950 . S
C685 C676 1.390 . S
C685 H678 0.950 . S
C685 C682 1.387 . S
C686 C687 1.387 . S
C686 H690 0.950 . S
C686 C695 1.390 . S
C687 C686 1.387 . S
C687 C689 1.387 . S
H688 C695 0.950 . S
C689 C687 1.387 . S
C689 C691 1.390 . S
C689 H693 0.950 . S
H690 C686 0.950 . S
C691 C689 1.390 . S
C691 C692 1.387 . S
C691 H694 0.950 . S
C692 C691 1.387 . S
C692 C695 1.387 . S
H693 C689 0.950 . S
H694 C691 0.950 . S
C695 C686 1.390 . S
C695 H688 0.950 . S
C695 C692 1.387 . S
C696 C697 1.387 . S
C696 H700 0.950 1_455 S
C696 C705 1.390 . S
C697 C696 1.387 . S
C697 C699 1.387 . S
H698 C705 0.950 . S
C699 C697 1.387 . S
C699 C701 1.390 . S
C699 H703 0.950 . S
H700 C696 0.950 1_655 S
C701 C699 1.390 . S
C701 C702 1.387 . S
C701 H704 0.950 . S
C702 C701 1.387 . S
C702 C705 1.387 . S
H703 C699 0.950 . S
H704 C701 0.950 . S
C705 C696 1.390 . S
C705 H698 0.950 . S
C705 C702 1.387 . S
C706 C707 1.387 . S
C706 H710 0.950 . S
C706 C715 1.390 . S
C707 C706 1.387 . S
C707 C709 1.387 . S
H708 C715 0.950 . S
C709 C707 1.387 . S
C709 C711 1.390 . S
C709 H713 0.950 . S
H710 C706 0.950 . S
C711 C709 1.390 . S
C711 C712 1.387 . S
C711 H714 0.950 . S
C712 C711 1.387 . S
C712 C715 1.387 . S
H713 C709 0.950 . S
H714 C711 0.950 . S
C715 C706 1.390 . S
C715 H708 0.950 . S
C715 C712 1.387 . S
C716 C717 1.387 . S
C716 H720 0.950 . S
C716 C725 1.390 . S
C717 C716 1.387 . S
C717 C719 1.387 . S
H718 C725 0.950 . S
C719 C717 1.387 . S
C719 C721 1.390 . S
C719 H723 0.950 . S
H720 C716 0.950 . S
C721 C719 1.390 . S
C721 C722 1.387 . S
C721 H724 0.950 . S
C722 C721 1.387 . S
C722 C725 1.387 . S
H723 C719 0.950 . S
H724 C721 0.950 . S
C725 C716 1.390 . S
C725 H718 0.950 . S
C725 C722 1.387 . S
C726 C727 1.387 . S
C726 H730 0.950 . S
C726 C735 1.390 . S
C727 C726 1.387 . S
C727 C729 1.387 . S
H728 C735 0.950 . S
C729 C727 1.387 . S
C729 C731 1.390 . S
C729 H733 0.950 . S
H730 C726 0.950 . S
C731 C729 1.390 . S
C731 C732 1.387 . S
C731 H734 0.950 . S
C732 C731 1.387 . S
C732 C735 1.387 . S
H733 C729 0.950 . S
H734 C731 0.950 . S
C735 C726 1.390 . S
C735 H728 0.950 . S
C735 C732 1.387 . S
C736 C737 1.387 1_565 S
C736 H740 0.950 . S
C736 C745 1.390 . S
C737 C736 1.387 1_545 S
C737 C739 1.387 . S
H738 C745 0.950 1_455 S
C739 C737 1.387 . S
C739 C741 1.390 . S
C739 H743 0.950 . S
H740 C736 0.950 . S
C741 C739 1.390 . S
C741 C742 1.387 . S
C741 H744 0.950 . S
C742 C741 1.387 . S
C742 C745 1.387 1_545 S
H743 C739 0.950 . S
H744 C741 0.950 . S
C745 C736 1.390 . S
C745 H738 0.950 1_655 S
C745 C742 1.387 1_565 S
C746 C747 1.387 . S
C746 H750 0.950 . S
C746 C755 1.390 . S
C747 C746 1.387 . S
C747 C749 1.387 . S
H748 C755 0.950 . S
C749 C747 1.387 . S
C749 C751 1.390 . S
C749 H753 0.950 . S
H750 C746 0.950 . S
C751 C749 1.390 . S
C751 C752 1.387 . S
C751 H754 0.950 . S
C752 C751 1.387 . S
C752 C755 1.387 . S
H753 C749 0.950 . S
H754 C751 0.950 . S
C755 C746 1.390 . S
C755 H748 0.950 . S
C755 C752 1.387 . S
C756 C757 1.387 . S
C756 H760 0.950 . S
C756 C765 1.390 . S
C757 C756 1.387 . S
C757 C759 1.387 1_565 S
H758 C765 0.950 . S
C759 C757 1.387 1_545 S
C759 C761 1.390 . S
C759 H763 0.950 . S
H760 C756 0.950 . S
C761 C759 1.390 . S
C761 C762 1.406 . S
C761 H764 0.950 . S
C762 C761 1.406 . S
C762 C765 1.361 1_545 S
H763 C759 0.950 . S
H764 C761 0.950 . S
C765 C756 1.390 . S
C765 H758 0.950 . S
C765 C762 1.361 1_565 S
C766 C767 1.387 . S
C766 H770 0.950 . S
C766 C775 1.390 . S
C767 C766 1.387 . S
C767 C769 1.387 . S
H768 C775 0.950 . S
C769 C767 1.387 . S
C769 C771 1.390 . S
C769 H773 0.950 . S
H770 C766 0.950 . S
C771 C769 1.390 . S
C771 C772 1.387 . S
C771 H774 0.950 . S
C772 C771 1.387 . S
C772 C775 1.387 . S
H773 C769 0.950 . S
H774 C771 0.950 . S
C775 C766 1.390 . S
C775 H768 0.950 . S
C775 C772 1.387 . S
C776 C777 1.387 1_565 S
C776 H780 0.950 . S
C776 C785 1.390 . S
C777 C776 1.387 1_545 S
C777 C779 1.387 . S
H778 C785 0.950 . S
C779 C777 1.387 . S
C779 C781 1.390 . S
C779 H783 0.950 . S
H780 C776 0.950 . S
C781 C779 1.390 . S
C781 C782 1.387 . S
C781 H784 0.950 . S
C782 C781 1.387 . S
C782 C785 1.387 1_545 S
H783 C779 0.950 . S
H784 C781 0.950 . S
C785 C776 1.390 . S
C785 H778 0.950 . S
C785 C782 1.387 1_565 S
C786 C787 1.387 . S
C786 H790 0.950 . S
C786 C795 1.390 . S
C787 C786 1.387 . S
C787 C789 1.387 . S
H788 C795 0.950 . S
C789 C787 1.387 . S
C789 C791 1.390 . S
C789 H793 0.950 . S
H790 C786 0.950 . S
C791 C789 1.390 . S
C791 C792 1.387 . S
C791 H794 0.950 . S
C792 C791 1.387 . S
C792 C795 1.387 . S
H793 C789 0.950 . S
H794 C791 0.950 . S
C795 C786 1.390 . S
C795 H788 0.950 . S
C795 C792 1.387 . S
C796 C797 1.387 . S
C796 H800 0.950 . S
C796 C805 1.390 . S
C797 C796 1.387 . S
C797 C799 1.387 1_545 S
H798 C805 0.950 . S
C799 C797 1.387 1_565 S
C799 C801 1.390 . S
C799 H803 0.950 . S
H800 C796 0.950 . S
C801 C799 1.390 . S
C801 C802 1.387 1_565 S
C801 H804 0.950 . S
C802 C801 1.387 1_545 S
C802 C805 1.387 . S
H803 C799 0.950 . S
H804 C801 0.950 . S
C805 C796 1.390 . S
C805 H798 0.950 . S
C805 C802 1.387 . S
C806 C807 1.387 . S
C806 H810 0.950 . S
C806 C815 1.390 . S
C807 C806 1.387 . S
C807 C809 1.387 . S
H808 C815 0.950 . S
C809 C807 1.387 . S
C809 C811 1.390 . S
C809 H813 0.950 . S
H810 C806 0.950 . S
C811 C809 1.390 . S
C811 C812 1.387 . S
C811 H814 0.950 . S
C812 C811 1.387 . S
C812 C815 1.387 . S
H813 C809 0.950 . S
H814 C811 0.950 . S
C815 C806 1.390 . S
C815 H808 0.950 . S
C815 C812 1.387 . S
C816 C817 1.387 1_556 S
C816 H820 0.950 . S
C816 C825 1.390 1_556 S
C817 C816 1.387 1_554 S
C817 C819 1.387 . S
H818 C825 0.950 1_556 S
C819 C817 1.387 . S
C819 C821 1.390 . S
C819 H823 0.950 . S
H820 C816 0.950 . S
C821 C819 1.390 . S
C821 C822 1.387 . S
C821 H824 0.950 . S
C822 C821 1.387 . S
C822 C825 1.387 . S
H823 C819 0.950 . S
H824 C821 0.950 . S
C825 C816 1.390 1_554 S
C825 H818 0.950 1_554 S
C825 C822 1.387 . S
C826 C827 1.385 . S
C826 H830 0.950 . S
C826 C835 1.390 . S
C827 C826 1.385 . S
C827 C829 1.389 1_554 S
H828 C835 0.950 . S
C829 C827 1.389 1_556 S
C829 C831 1.390 . S
C829 H833 0.950 . S
H830 C826 0.950 . S
C831 C829 1.390 . S
C831 C832 1.387 1_556 S
C831 H834 0.950 . S
C832 C831 1.387 1_554 S
C832 C835 1.387 . S
H833 C829 0.950 . S
H834 C831 0.950 . S
C835 C826 1.390 . S
C835 H828 0.950 . S
C835 C832 1.387 . S
C836 C837 1.387 . S
C836 H840 0.950 . S
C836 C845 1.390 . S
C837 C836 1.387 . S
C837 C839 1.387 . S
H838 C845 0.950 . S
C839 C837 1.387 . S
C839 C841 1.390 . S
C839 H843 0.950 . S
H840 C836 0.950 . S
C841 C839 1.390 . S
C841 C842 1.387 . S
C841 H844 0.950 . S
C842 C841 1.387 . S
C842 C845 1.387 . S
H843 C839 0.950 . S
H844 C841 0.950 . S
C845 C836 1.390 . S
C845 H838 0.950 . S
C845 C842 1.387 . S
C846 C847 1.387 . S
C846 H850 0.950 . S
C846 C855 1.390 . S
C847 C846 1.387 . S
C847 C849 1.387 . S
H848 C855 0.950 . S
C849 C847 1.387 . S
C849 C851 1.390 . S
C849 H853 0.950 . S
H850 C846 0.950 . S
C851 C849 1.390 . S
C851 C852 1.387 . S
C851 H854 0.950 . S
C852 C851 1.387 . S
C852 C855 1.387 . S
H853 C849 0.950 . S
H854 C851 0.950 . S
C855 C846 1.390 . S
C855 H848 0.950 . S
C855 C852 1.387 . S
C856 C857 1.387 . S
C856 H860 0.950 . S
C856 C865 1.390 . S
C857 C856 1.387 . S
C857 C859 1.387 . S
H858 C865 0.950 . S
C859 C857 1.387 . S
C859 C861 1.390 . S
C859 H863 0.950 . S
H860 C856 0.950 . S
C861 C859 1.390 . S
C861 C862 1.387 . S
C861 H864 0.950 . S
C862 C861 1.387 . S
C862 C865 1.387 . S
H863 C859 0.950 . S
H864 C861 0.950 . S
C865 C856 1.390 . S
C865 H858 0.950 . S
C865 C862 1.387 . S
C866 C867 1.387 . S
C866 H870 0.950 . S
C866 C875 1.390 . S
C867 C866 1.387 . S
C867 C869 1.387 . S
H868 C875 0.950 . S
C869 C867 1.387 . S
C869 C871 1.390 . S
C869 H873 0.950 . S
H870 C866 0.950 . S
C871 C869 1.390 . S
C871 C872 1.387 . S
C871 H874 0.950 . S
C872 C871 1.387 . S
C872 C875 1.387 . S
H873 C869 0.950 . S
H874 C871 0.950 . S
C875 C866 1.390 . S
C875 H868 0.950 . S
C875 C872 1.387 . S
C876 C877 1.387 . S
C876 H880 0.950 . S
C876 C885 1.390 . S
C877 C876 1.387 . S
C877 C879 1.387 . S
H878 C885 0.950 . S
C879 C877 1.387 . S
C879 C881 1.390 . S
C879 H883 0.950 . S
H880 C876 0.950 . S
C881 C879 1.390 . S
C881 C882 1.387 . S
C881 H884 0.950 . S
C882 C881 1.387 . S
C882 C885 1.387 . S
H883 C879 0.950 . S
H884 C881 0.950 . S
C885 C876 1.390 . S
C885 H878 0.950 . S
C885 C882 1.387 . S
C886 C887 1.387 . S
C886 H890 0.950 . S
C886 C895 1.390 . S
C887 C886 1.387 . S
C887 C889 1.387 . S
H888 C895 0.950 . S
C889 C887 1.387 . S
C889 C891 1.390 . S
C889 H893 0.950 . S
H890 C886 0.950 . S
C891 C889 1.390 . S
C891 C892 1.387 . S
C891 H894 0.950 . S
C892 C891 1.387 . S
C892 C895 1.387 . S
H893 C889 0.950 . S
H894 C891 0.950 . S
C895 C886 1.390 . S
C895 H888 0.950 . S
C895 C892 1.387 . S
C896 C897 1.387 . S
C896 H900 0.950 . S
C896 C905 1.390 . S
C897 C896 1.387 . S
C897 C899 1.387 . S
H898 C905 0.950 . S
C899 C897 1.387 . S
C899 C901 1.390 1_455 S
C899 H903 0.950 1_455 S
H900 C896 0.950 . S
C901 C899 1.390 1_655 S
C901 C902 1.387 1_655 S
C901 H904 0.950 . S
C902 C901 1.387 1_455 S
C902 C905 1.387 . S
H903 C899 0.950 1_655 S
H904 C901 0.950 . S
C905 C896 1.390 . S
C905 H898 0.950 . S
C905 C902 1.387 . S
C906 C907 1.387 . S
C906 H910 0.950 . S
C906 C915 1.390 . S
C907 C906 1.387 . S
C907 C909 1.387 . S
H908 C915 0.950 . S
C909 C907 1.387 . S
C909 C911 1.390 . S
C909 H913 0.950 . S
H910 C906 0.950 . S
C911 C909 1.390 . S
C911 C912 1.387 . S
C911 H914 0.950 . S
C912 C911 1.387 . S
C912 C915 1.387 . S
H913 C909 0.950 . S
H914 C911 0.950 . S
C915 C906 1.390 . S
C915 H908 0.950 . S
C915 C912 1.387 . S
C916 C917 1.387 . S
C916 H920 0.950 . S
C916 C925 1.390 . S
C917 C916 1.387 . S
C917 C919 1.387 . S
H918 C925 0.950 . S
C919 C917 1.387 . S
C919 C921 1.390 . S
C919 H923 0.950 . S
H920 C916 0.950 . S
C921 C919 1.390 . S
C921 C922 1.387 . S
C921 H924 0.950 . S
C922 C921 1.387 . S
C922 C925 1.387 . S
H923 C919 0.950 . S
H924 C921 0.950 . S
C925 C916 1.390 . S
C925 H918 0.950 . S
C925 C922 1.387 . S
C926 C927 1.387 . S
C926 H930 0.950 . S
C926 C935 1.390 . S
C927 C926 1.387 . S
C927 C929 1.387 . S
H928 C935 0.950 . S
C929 C927 1.387 . S
C929 C931 1.390 . S
C929 H933 0.950 . S
H930 C926 0.950 . S
C931 C929 1.390 . S
C931 C932 1.387 . S
C931 H934 0.950 . S
C932 C931 1.387 . S
C932 C935 1.387 . S
H933 C929 0.950 . S
H934 C931 0.950 . S
C935 C926 1.390 . S
C935 H928 0.950 . S
C935 C932 1.387 . S
C936 C937 1.387 1_655 S
C936 H940 0.950 . S
C936 C945 1.390 . S
C937 C936 1.387 1_455 S
C937 C939 1.387 . S
H938 C945 0.950 . S
C939 C937 1.387 . S
C939 C941 1.390 . S
C939 H943 0.950 . S
H940 C936 0.950 . S
C941 C939 1.390 . S
C941 C942 1.387 . S
C941 H944 0.950 . S
C942 C941 1.387 . S
C942 C945 1.387 1_455 S
H943 C939 0.950 . S
H944 C941 0.950 . S
C945 C936 1.390 . S
C945 H938 0.950 . S
C945 C942 1.387 1_655 S
C946 C947 1.387 . S
C946 H950 0.950 . S
C946 C955 1.390 . S
C947 C946 1.387 . S
C947 C949 1.387 . S
H948 C955 0.950 . S
C949 C947 1.387 . S
C949 C951 1.390 . S
C949 H953 0.950 . S
H950 C946 0.950 . S
C951 C949 1.390 . S
C951 C952 1.387 . S
C951 H954 0.950 . S
C952 C951 1.387 . S
C952 C955 1.387 . S
H953 C949 0.950 . S
H954 C951 0.950 . S
C955 C946 1.390 . S
C955 H948 0.950 . S
C955 C952 1.387 . S
C956 C957 1.387 . S
C956 H960 0.950 . S
C956 C965 1.390 . S
C957 C956 1.387 . S
C957 C959 1.387 . S
H958 C965 0.950 . S
C959 C957 1.387 . S
C959 C961 1.390 1_556 S
C959 H963 0.950 1_556 S
H960 C956 0.950 . S
C961 C959 1.390 1_554 S
C961 C962 1.387 1_554 S
C961 H964 0.950 . S
C962 C961 1.387 1_556 S
C962 C965 1.387 . S
H963 C959 0.950 1_554 S
H964 C961 0.950 . S
C965 C956 1.390 . S
C965 H958 0.950 . S
C965 C962 1.387 . S
C966 C967 1.387 . S
C966 H970 0.950 . S
C966 C975 1.390 . S
C967 C966 1.387 . S
C967 C969 1.387 . S
H968 C975 0.950 . S
C969 C967 1.387 . S
C969 C971 1.390 . S
C969 H973 0.950 . S
H970 C966 0.950 . S
C971 C969 1.390 . S
C971 C972 1.387 . S
C971 H974 0.950 . S
C972 C971 1.387 . S
C972 C975 1.387 . S
H973 C969 0.950 . S
H974 C971 0.950 . S
C975 C966 1.390 . S
C975 H968 0.950 . S
C975 C972 1.387 . S
C976 C977 1.387 1_565 S
C976 H980 0.950 . S
C976 C985 1.390 . S
C977 C976 1.387 1_545 S
C977 C979 1.387 . S
H978 C985 0.950 . S
C979 C977 1.387 . S
C979 C981 1.390 . S
C979 H983 0.950 . S
H980 C976 0.950 . S
C981 C979 1.390 . S
C981 C982 1.387 1_545 S
C981 H984 0.950 . S
C982 C981 1.387 1_565 S
C982 C985 1.387 . S
H983 C979 0.950 . S
H984 C981 0.950 . S
C985 C976 1.390 . S
C985 H978 0.950 . S
C985 C982 1.387 . S
C986 C987 1.387 . S
C986 H990 0.950 . S
C986 C995 1.390 . S
C987 C986 1.387 . S
C987 C989 1.387 . S
H988 C995 0.950 . S
C989 C987 1.387 . S
C989 C991 1.390 . S
C989 H993 0.950 . S
H990 C986 0.950 . S
C991 C989 1.390 . S
C991 C992 1.387 . S
C991 H994 0.950 . S
C992 C991 1.387 . S
C992 C995 1.387 . S
H993 C989 0.950 . S
H994 C991 0.950 . S
C995 C986 1.390 . S
C995 H988 0.950 . S
C995 C992 1.387 . S
C996 C997 1.387 . S
C996 H1000 0.950 1_545 S
C996 C1005 1.390 . S
C997 C996 1.387 . S
C997 C999 1.387 . S
H998 C1005 0.950 1_565 S
C999 C997 1.387 . S
C999 C1001 1.390 . S
C999 H1003 0.950 . S
H1000 C996 0.950 1_565 S
C1001 C999 1.390 . S
C1001 C1002 1.387 . S
C1001 H1004 0.950 . S
C1002 C1001 1.387 . S
C1002 C1005 1.387 . S
H1003 C999 0.950 . S
H1004 C1001 0.950 . S
C1005 C996 1.390 . S
C1005 H998 0.950 1_545 S
C1005 C1002 1.387 . S
C1006 C1007 1.387 . S
C1006 H1010 0.950 . S
C1006 C1015 1.390 . S
C1007 C1006 1.387 . S
C1007 C1009 1.387 . S
H1008 C1015 0.950 . S
C1009 C1007 1.387 . S
C1009 C1011 1.390 . S
C1009 H1013 0.950 . S
H1010 C1006 0.950 . S
C1011 C1009 1.390 . S
C1011 C1012 1.387 . S
C1011 H1014 0.950 . S
C1012 C1011 1.387 . S
C1012 C1015 1.387 . S
H1013 C1009 0.950 . S
H1014 C1011 0.950 . S
C1015 C1006 1.390 . S
C1015 H1008 0.950 . S
C1015 C1012 1.387 . S
C1016 C1017 1.387 . S
C1016 H1020 0.950 . S
C1016 C1025 1.390 . S
C1017 C1016 1.387 . S
C1017 C1019 1.387 1_545 S
H1018 C1025 0.950 . S
C1019 C1017 1.387 1_565 S
C1019 C1021 1.390 . S
C1019 H1023 0.950 . S
H1020 C1016 0.950 . S
C1021 C1019 1.390 . S
C1021 C1022 1.387 1_565 S
C1021 H1024 0.950 . S
C1022 C1021 1.387 1_545 S
C1022 C1025 1.387 . S
H1023 C1019 0.950 . S
H1024 C1021 0.950 . S
C1025 C1016 1.390 . S
C1025 H1018 0.950 . S
C1025 C1022 1.387 . S
C1026 C1027 1.387 . S
C1026 H1030 0.950 . S
C1026 C1035 1.390 . S
C1027 C1026 1.387 . S
C1027 C1029 1.387 . S
H1028 C1035 0.950 . S
C1029 C1027 1.387 . S
C1029 C1031 1.390 . S
C1029 H1033 0.950 . S
H1030 C1026 0.950 . S
C1031 C1029 1.390 . S
C1031 C1032 1.387 . S
C1031 H1034 0.950 . S
C1032 C1031 1.387 . S
C1032 C1035 1.387 . S
H1033 C1029 0.950 . S
H1034 C1031 0.950 . S
C1035 C1026 1.390 . S
C1035 H1028 0.950 . S
C1035 C1032 1.387 . S
C1036 C1037 1.387 . S
C1036 H1040 0.950 . S
C1036 C1045 1.390 . S
C1037 C1036 1.387 . S
C1037 C1039 1.387 1_545 S
H1038 C1045 0.950 . S
C1039 C1037 1.387 1_565 S
C1039 C1041 1.390 . S
C1039 H1043 0.950 . S
H1040 C1036 0.950 . S
C1041 C1039 1.390 . S
C1041 C1042 1.387 . S
C1041 H1044 0.950 . S
C1042 C1041 1.387 . S
C1042 C1045 1.387 1_565 S
H1043 C1039 0.950 . S
H1044 C1041 0.950 . S
C1045 C1036 1.390 . S
C1045 H1038 0.950 . S
C1045 C1042 1.387 1_545 S
C1046 C1047 1.387 . S
C1046 H1050 0.950 . S
C1046 C1055 1.390 . S
C1047 C1046 1.387 . S
C1047 C1049 1.387 . S
H1048 C1055 0.950 . S
C1049 C1047 1.387 . S
C1049 C1051 1.390 . S
C1049 H1053 0.950 . S
H1050 C1046 0.950 . S
C1051 C1049 1.390 . S
C1051 C1052 1.387 . S
C1051 H1054 0.950 . S
C1052 C1051 1.387 . S
C1052 C1055 1.387 . S
H1053 C1049 0.950 . S
H1054 C1051 0.950 . S
C1055 C1046 1.390 . S
C1055 H1048 0.950 . S
C1055 C1052 1.387 . S
C1056 C1057 1.397 . S
C1056 H1060 0.944 1_554 S
C1056 C1065 1.386 1_554 S
C1057 C1056 1.397 . S
C1057 C1059 1.387 . S
H1058 C1065 0.950 . S
C1059 C1057 1.387 . S
C1059 C1061 1.390 . S
C1059 H1063 0.950 . S
H1060 C1056 0.944 1_556 S
C1061 C1059 1.390 . S
C1061 C1062 1.387 . S
C1061 H1064 0.950 . S
C1062 C1061 1.387 . S
C1062 C1065 1.387 1_554 S
H1063 C1059 0.950 . S
H1064 C1061 0.950 . S
C1065 C1056 1.386 1_556 S
C1065 H1058 0.950 . S
C1065 C1062 1.387 1_556 S
C1066 C1067 1.387 . S
C1066 H1070 0.950 . S
C1066 C1075 1.390 . S
C1067 C1066 1.387 . S
C1067 C1069 1.387 . S
H1068 C1075 0.950 . S
C1069 C1067 1.387 . S
C1069 C1071 1.390 . S
C1069 H1073 0.950 . S
H1070 C1066 0.950 . S
C1071 C1069 1.390 . S
C1071 C1072 1.387 . S
C1071 H1074 0.950 . S
C1072 C1071 1.387 . S
C1072 C1075 1.387 . S
H1073 C1069 0.950 . S
H1074 C1071 0.950 . S
C1075 C1066 1.390 . S
C1075 H1068 0.950 . S
C1075 C1072 1.387 . S
C1076 C1077 1.387 . S
C1076 H1080 0.950 . S
C1076 C1085 1.390 . S
C1077 C1076 1.387 . S
C1077 C1079 1.387 . S
H1078 C1085 0.950 . S
C1079 C1077 1.387 . S
C1079 C1081 1.390 . S
C1079 H1083 0.950 . S
H1080 C1076 0.950 . S
C1081 C1079 1.390 . S
C1081 C1082 1.387 . S
C1081 H1084 0.950 . S
C1082 C1081 1.387 . S
C1082 C1085 1.387 . S
H1083 C1079 0.950 . S
H1084 C1081 0.950 . S
C1085 C1076 1.390 . S
C1085 H1078 0.950 . S
C1085 C1082 1.387 . S
C1086 C1087 1.387 . S
C1086 H1090 0.950 . S
C1086 C1095 1.390 . S
C1087 C1086 1.387 . S
C1087 C1089 1.387 . S
H1088 C1095 0.950 . S
C1089 C1087 1.387 . S
C1089 C1091 1.390 . S
C1089 H1093 0.950 . S
H1090 C1086 0.950 . S
C1091 C1089 1.390 . S
C1091 C1092 1.387 . S
C1091 H1094 0.950 . S
C1092 C1091 1.387 . S
C1092 C1095 1.387 . S
H1093 C1089 0.950 . S
H1094 C1091 0.950 . S
C1095 C1086 1.390 . S
C1095 H1088 0.950 . S
C1095 C1092 1.387 . S
C1096 C1097 1.387 . S
C1096 H1100 0.950 . S
C1096 C1105 1.390 . S
C1097 C1096 1.387 . S
C1097 C1099 1.387 . S
H1098 C1105 0.950 . S
C1099 C1097 1.387 . S
C1099 C1101 1.390 . S
C1099 H1103 0.950 . S
H1100 C1096 0.950 . S
C1101 C1099 1.390 . S
C1101 C1102 1.387 . S
C1101 H1104 0.950 . S
C1102 C1101 1.387 . S
C1102 C1105 1.387 . S
H1103 C1099 0.950 . S
H1104 C1101 0.950 . S
C1105 C1096 1.390 . S
C1105 H1098 0.950 . S
C1105 C1102 1.387 . S
C1106 C1107 1.387 . S
C1106 H1110 0.950 . S
C1106 C1115 1.390 . S
C1107 C1106 1.387 . S
C1107 C1109 1.387 . S
H1108 C1115 0.950 . S
C1109 C1107 1.387 . S
C1109 C1111 1.390 . S
C1109 H1113 0.950 . S
H1110 C1106 0.950 . S
C1111 C1109 1.390 . S
C1111 C1112 1.387 . S
C1111 H1114 0.950 . S
C1112 C1111 1.387 . S
C1112 C1115 1.387 . S
H1113 C1109 0.950 . S
H1114 C1111 0.950 . S
C1115 C1106 1.390 . S
C1115 H1108 0.950 . S
C1115 C1112 1.387 . S
C1116 C1117 1.387 . S
C1116 H1120 0.950 . S
C1116 C1125 1.390 . S
C1117 C1116 1.387 . S
C1117 C1119 1.387 . S
H1118 C1125 0.950 . S
C1119 C1117 1.387 . S
C1119 C1121 1.390 . S
C1119 H1123 0.950 . S
H1120 C1116 0.950 . S
C1121 C1119 1.390 . S
C1121 C1122 1.387 . S
C1121 H1124 0.950 . S
C1122 C1121 1.387 . S
C1122 C1125 1.387 . S
H1123 C1119 0.950 . S
H1124 C1121 0.950 . S
C1125 C1116 1.390 . S
C1125 H1118 0.950 . S
C1125 C1122 1.387 . S
C1126 C1127 1.387 . S
C1126 H1130 0.950 . S
C1126 C1135 1.390 . S
C1127 C1126 1.387 . S
C1127 C1129 1.387 . S
H1128 C1135 0.950 . S
C1129 C1127 1.387 . S
C1129 C1131 1.390 . S
C1129 H1133 0.950 . S
H1130 C1126 0.950 . S
C1131 C1129 1.390 . S
C1131 C1132 1.387 . S
C1131 H1134 0.950 . S
C1132 C1131 1.387 . S
C1132 C1135 1.387 . S
H1133 C1129 0.950 . S
H1134 C1131 0.950 . S
C1135 C1126 1.390 . S
C1135 H1128 0.950 . S
C1135 C1132 1.387 . S
C1136 C1137 1.387 . S
C1136 H1140 0.950 . S
C1136 C1145 1.390 . S
C1137 C1136 1.387 . S
C1137 C1139 1.387 . S
H1138 C1145 0.950 . S
C1139 C1137 1.387 . S
C1139 C1141 1.390 . S
C1139 H1143 0.950 . S
H1140 C1136 0.950 . S
C1141 C1139 1.390 . S
C1141 C1142 1.387 . S
C1141 H1144 0.950 . S
C1142 C1141 1.387 . S
C1142 C1145 1.387 . S
H1143 C1139 0.950 . S
H1144 C1141 0.950 . S
C1145 C1136 1.390 . S
C1145 H1138 0.950 . S
C1145 C1142 1.387 . S
C1146 C1147 1.387 . S
C1146 H1150 0.950 . S
C1146 C1155 1.390 . S
C1147 C1146 1.387 . S
C1147 C1149 1.387 . S
H1148 C1155 0.950 . S
C1149 C1147 1.387 . S
C1149 C1151 1.390 . S
C1149 H1153 0.950 . S
H1150 C1146 0.950 . S
C1151 C1149 1.390 . S
C1151 C1152 1.387 . S
C1151 H1154 0.950 . S
C1152 C1151 1.387 . S
C1152 C1155 1.387 . S
H1153 C1149 0.950 . S
H1154 C1151 0.950 . S
C1155 C1146 1.390 . S
C1155 H1148 0.950 . S
C1155 C1152 1.387 . S
C1156 C1157 1.387 1_655 S
C1156 H1160 0.950 . S
C1156 C1165 1.390 . S
C1157 C1156 1.387 1_455 S
C1157 C1159 1.387 . S
H1158 C1165 0.950 . S
C1159 C1157 1.387 . S
C1159 C1161 1.390 . S
C1159 H1163 0.950 . S
H1160 C1156 0.950 . S
C1161 C1159 1.390 . S
C1161 C1162 1.387 . S
C1161 H1164 0.950 1_556 S
C1162 C1161 1.387 . S
C1162 C1165 1.387 1_455 S
H1163 C1159 0.950 . S
H1164 C1161 0.950 1_554 S
C1165 C1156 1.390 . S
C1165 H1158 0.950 . S
C1165 C1162 1.387 1_655 S
C1166 C1167 1.387 . S
C1166 H1170 0.950 . S
C1166 C1175 1.390 . S
C1167 C1166 1.387 . S
C1167 C1169 1.387 . S
H1168 C1175 0.950 . S
C1169 C1167 1.387 . S
C1169 C1171 1.390 . S
C1169 H1173 0.950 . S
H1170 C1166 0.950 . S
C1171 C1169 1.390 . S
C1171 C1172 1.387 . S
C1171 H1174 0.950 . S
C1172 C1171 1.387 . S
C1172 C1175 1.387 . S
H1173 C1169 0.950 . S
H1174 C1171 0.950 . S
C1175 C1166 1.390 . S
C1175 H1168 0.950 . S
C1175 C1172 1.387 . S
C1176 C1177 1.387 . S
C1176 H1180 0.950 . S
C1176 C1185 1.390 . S
C1177 C1176 1.387 . S
C1177 C1179 1.387 . S
H1178 C1185 0.950 . S
C1179 C1177 1.387 . S
C1179 C1181 1.390 . S
C1179 H1183 0.950 . S
H1180 C1176 0.950 . S
C1181 C1179 1.390 . S
C1181 C1182 1.387 . S
C1181 H1184 0.950 . S
C1182 C1181 1.387 . S
C1182 C1185 1.387 . S
H1183 C1179 0.950 . S
H1184 C1181 0.950 . S
C1185 C1176 1.390 . S
C1185 H1178 0.950 . S
C1185 C1182 1.387 . S
C1186 C1187 1.387 . S
C1186 H1190 0.950 . S
C1186 C1195 1.390 . S
C1187 C1186 1.387 . S
C1187 C1189 1.387 . S
H1188 C1195 0.950 . S
C1189 C1187 1.387 . S
C1189 C1191 1.390 . S
C1189 H1193 0.950 . S
H1190 C1186 0.950 . S
C1191 C1189 1.390 . S
C1191 C1192 1.387 . S
C1191 H1194 0.950 . S
C1192 C1191 1.387 . S
C1192 C1195 1.387 . S
H1193 C1189 0.950 . S
H1194 C1191 0.950 . S
C1195 C1186 1.390 . S
C1195 H1188 0.950 . S
C1195 C1192 1.387 . S
C1196 C1197 1.390 1_655 S
C1196 H1200 0.958 . S
C1196 C1205 1.381 1_655 S
C1197 C1196 1.390 1_455 S
C1197 C1199 1.387 . S
H1198 C1205 0.950 . S
C1199 C1197 1.387 . S
C1199 C1201 1.390 . S
C1199 H1203 0.950 . S
H1200 C1196 0.958 . S
C1201 C1199 1.390 . S
C1201 C1202 1.387 . S
C1201 H1204 0.950 . S
C1202 C1201 1.387 . S
C1202 C1205 1.387 . S
H1203 C1199 0.950 . S
H1204 C1201 0.950 . S
C1205 C1196 1.381 1_455 S
C1205 H1198 0.950 . S
C1205 C1202 1.387 . S
C1206 C1207 1.387 . S
C1206 H1210 0.950 . S
C1206 C1215 1.390 . S
C1207 C1206 1.387 . S
C1207 C1209 1.387 . S
H1208 C1215 0.950 . S
C1209 C1207 1.387 . S
C1209 C1211 1.390 . S
C1209 H1213 0.950 . S
H1210 C1206 0.950 . S
C1211 C1209 1.390 . S
C1211 C1212 1.387 . S
C1211 H1214 0.950 . S
C1212 C1211 1.387 . S
C1212 C1215 1.387 . S
H1213 C1209 0.950 . S
H1214 C1211 0.950 . S
C1215 C1206 1.390 . S
C1215 H1208 0.950 . S
C1215 C1212 1.387 . S
C1216 C1217 1.387 . S
C1216 H1220 0.950 . S
C1216 C1225 1.390 . S
C1217 C1216 1.387 . S
C1217 C1219 1.387 . S
H1218 C1225 0.950 . S
C1219 C1217 1.387 . S
C1219 C1221 1.390 . S
C1219 H1223 0.950 . S
H1220 C1216 0.950 . S
C1221 C1219 1.390 . S
C1221 C1222 1.387 . S
C1221 H1224 0.950 . S
C1222 C1221 1.387 . S
C1222 C1225 1.387 . S
H1223 C1219 0.950 . S
H1224 C1221 0.950 . S
C1225 C1216 1.390 . S
C1225 H1218 0.950 . S
C1225 C1222 1.387 . S
C1226 C1227 1.387 . S
C1226 H1230 0.950 . S
C1226 C1235 1.390 . S
C1227 C1226 1.387 . S
C1227 C1229 1.387 . S
H1228 C1235 0.950 . S
C1229 C1227 1.387 . S
C1229 C1231 1.390 . S
C1229 H1233 0.950 . S
H1230 C1226 0.950 . S
C1231 C1229 1.390 . S
C1231 C1232 1.387 . S
C1231 H1234 0.950 . S
C1232 C1231 1.387 . S
C1232 C1235 1.387 . S
H1233 C1229 0.950 . S
H1234 C1231 0.950 . S
C1235 C1226 1.390 . S
C1235 H1228 0.950 . S
C1235 C1232 1.387 . S
C1236 C1237 1.387 . S
C1236 H1240 0.950 . S
C1236 C1245 1.390 . S
C1237 C1236 1.387 . S
C1237 C1239 1.387 . S
H1238 C1245 0.950 . S
C1239 C1237 1.387 . S
C1239 C1241 1.390 . S
C1239 H1243 0.950 . S
H1240 C1236 0.950 . S
C1241 C1239 1.390 . S
C1241 C1242 1.387 . S
C1241 H1244 0.950 . S
C1242 C1241 1.387 . S
C1242 C1245 1.387 . S
H1243 C1239 0.950 . S
H1244 C1241 0.950 . S
C1245 C1236 1.390 . S
C1245 H1238 0.950 . S
C1245 C1242 1.387 . S
C1246 C1247 1.387 . S
C1246 H1250 0.950 . S
C1246 C1255 1.390 . S
C1247 C1246 1.387 . S
C1247 C1249 1.387 . S
H1248 C1255 0.950 . S
C1249 C1247 1.387 . S
C1249 C1251 1.390 . S
C1249 H1253 0.950 . S
H1250 C1246 0.950 . S
C1251 C1249 1.390 . S
C1251 C1252 1.387 . S
C1251 H1254 0.950 . S
C1252 C1251 1.387 . S
C1252 C1255 1.387 . S
H1253 C1249 0.950 . S
H1254 C1251 0.950 . S
C1255 C1246 1.390 . S
C1255 H1248 0.950 . S
C1255 C1252 1.387 . S
C1256 C1257 1.387 . S
C1256 H1260 0.950 . S
C1256 C1265 1.390 . S
C1257 C1256 1.387 . S
C1257 C1259 1.387 . S
H1258 C1265 0.950 . S
C1259 C1257 1.387 . S
C1259 C1261 1.390 . S
C1259 H1263 0.950 . S
H1260 C1256 0.950 . S
C1261 C1259 1.390 . S
C1261 C1262 1.387 . S
C1261 H1264 0.950 . S
C1262 C1261 1.387 . S
C1262 C1265 1.387 . S
H1263 C1259 0.950 . S
H1264 C1261 0.950 . S
C1265 C1256 1.390 . S
C1265 H1258 0.950 . S
C1265 C1262 1.387 . S
C1266 C1267 1.387 . S
C1266 H1270 0.950 . S
C1266 C1275 1.390 . S
C1267 C1266 1.387 . S
C1267 C1269 1.387 . S
H1268 C1275 0.950 . S
C1269 C1267 1.387 . S
C1269 C1271 1.390 . S
C1269 H1273 0.950 . S
H1270 C1266 0.950 . S
C1271 C1269 1.390 . S
C1271 C1272 1.387 . S
C1271 H1274 0.950 . S
C1272 C1271 1.387 . S
C1272 C1275 1.387 . S
H1273 C1269 0.950 . S
H1274 C1271 0.950 . S
C1275 C1266 1.390 . S
C1275 H1268 0.950 . S
C1275 C1272 1.387 . S
C1276 C1277 1.387 . S
C1276 H1280 0.950 . S
C1276 C1285 1.390 . S
C1277 C1276 1.387 . S
C1277 C1279 1.387 . S
H1278 C1285 0.950 . S
C1279 C1277 1.387 . S
C1279 C1281 1.390 . S
C1279 H1283 0.950 . S
H1280 C1276 0.950 . S
C1281 C1279 1.390 . S
C1281 C1282 1.387 . S
C1281 H1284 0.950 . S
C1282 C1281 1.387 . S
C1282 C1285 1.387 . S
H1283 C1279 0.950 . S
H1284 C1281 0.950 . S
C1285 C1276 1.390 . S
C1285 H1278 0.950 . S
C1285 C1282 1.387 . S
C1286 C1287 1.387 . S
C1286 H1290 0.950 . S
C1286 C1295 1.390 . S
C1287 C1286 1.387 . S
C1287 C1289 1.387 . S
H1288 C1295 0.950 . S
C1289 C1287 1.387 . S
C1289 C1291 1.390 . S
C1289 H1293 0.950 . S
H1290 C1286 0.950 . S
C1291 C1289 1.390 . S
C1291 C1292 1.387 . S
C1291 H1294 0.950 . S
C1292 C1291 1.387 . S
C1292 C1295 1.387 . S
H1293 C1289 0.950 . S
H1294 C1291 0.950 . S
C1295 C1286 1.390 . S
C1295 H1288 0.950 . S
C1295 C1292 1.387 . S
C1296 C1297 1.387 . S
C1296 H1300 0.950 . S
C1296 C1305 1.390 . S
C1297 C1296 1.387 . S
C1297 C1299 1.387 . S
H1298 C1305 0.950 . S
C1299 C1297 1.387 . S
C1299 C1301 1.390 . S
C1299 H1303 0.950 . S
H1300 C1296 0.950 . S
C1301 C1299 1.390 . S
C1301 C1302 1.387 . S
C1301 H1304 0.950 . S
C1302 C1301 1.387 . S
C1302 C1305 1.387 . S
H1303 C1299 0.950 . S
H1304 C1301 0.950 . S
C1305 C1296 1.390 . S
C1305 H1298 0.950 . S
C1305 C1302 1.387 . S
C1306 C1307 1.387 . S
C1306 H1310 0.950 . S
C1306 C1315 1.390 . S
C1307 C1306 1.387 . S
C1307 C1309 1.387 . S
H1308 C1315 0.950 . S
C1309 C1307 1.387 . S
C1309 C1311 1.390 . S
C1309 H1313 0.950 . S
H1310 C1306 0.950 . S
C1311 C1309 1.390 . S
C1311 C1312 1.387 . S
C1311 H1314 0.950 . S
C1312 C1311 1.387 . S
C1312 C1315 1.387 . S
H1313 C1309 0.950 . S
H1314 C1311 0.950 . S
C1315 C1306 1.390 . S
C1315 H1308 0.950 . S
C1315 C1312 1.387 . S
C1316 C1317 1.387 . S
C1316 H1320 0.950 . S
C1316 C1325 1.390 . S
C1317 C1316 1.387 . S
C1317 C1319 1.387 . S
H1318 C1325 0.950 . S
C1319 C1317 1.387 . S
C1319 C1321 1.390 . S
C1319 H1323 0.950 . S
H1320 C1316 0.950 . S
C1321 C1319 1.390 . S
C1321 C1322 1.387 . S
C1321 H1324 0.950 . S
C1322 C1321 1.387 . S
C1322 C1325 1.387 . S
H1323 C1319 0.950 . S
H1324 C1321 0.950 . S
C1325 C1316 1.390 . S
C1325 H1318 0.950 . S
C1325 C1322 1.387 . S
C1326 C1327 1.387 . S
C1326 H1330 0.950 . S
C1326 C1335 1.390 . S
C1327 C1326 1.387 . S
C1327 C1329 1.387 1_554 S
H1328 C1335 0.950 . S
C1329 C1327 1.387 1_556 S
C1329 C1331 1.390 . S
C1329 H1333 0.950 . S
H1330 C1326 0.950 . S
C1331 C1329 1.390 . S
C1331 C1332 1.387 1_556 S
C1331 H1334 0.950 . S
C1332 C1331 1.387 1_554 S
C1332 C1335 1.387 . S
H1333 C1329 0.950 . S
H1334 C1331 0.950 . S
C1335 C1326 1.390 . S
C1335 H1328 0.950 . S
C1335 C1332 1.387 . S
C1336 C1337 1.387 . S
C1336 H1340 0.950 . S
C1336 C1345 1.390 . S
C1337 C1336 1.387 . S
C1337 C1339 1.387 . S
H1338 C1345 0.950 . S
C1339 C1337 1.387 . S
C1339 C1341 1.390 . S
C1339 H1343 0.950 . S
H1340 C1336 0.950 . S
C1341 C1339 1.390 . S
C1341 C1342 1.387 . S
C1341 H1344 0.950 . S
C1342 C1341 1.387 . S
C1342 C1345 1.387 . S
H1343 C1339 0.950 . S
H1344 C1341 0.950 . S
C1345 C1336 1.390 . S
C1345 H1338 0.950 . S
C1345 C1342 1.387 . S
C1346 C1347 1.387 1_556 S
C1346 H1350 0.950 . S
C1346 C1355 1.401 . S
C1347 C1346 1.387 1_554 S
C1347 C1349 1.387 . S
H1348 C1355 0.971 . S
C1349 C1347 1.387 . S
C1349 C1351 1.390 . S
C1349 H1353 0.950 . S
H1350 C1346 0.950 . S
C1351 C1349 1.390 . S
C1351 C1352 1.387 . S
C1351 H1354 0.950 . S
C1352 C1351 1.387 . S
C1352 C1355 1.356 1_554 S
H1353 C1349 0.950 . S
H1354 C1351 0.950 . S
C1355 C1346 1.401 . S
C1355 H1348 0.971 . S
C1355 C1352 1.356 1_556 S
C1356 C1357 1.387 . S
C1356 H1360 0.950 . S
C1356 C1365 1.390 . S
C1357 C1356 1.387 . S
C1357 C1359 1.387 . S
H1358 C1365 0.950 . S
C1359 C1357 1.387 . S
C1359 C1361 1.390 . S
C1359 H1363 0.950 . S
H1360 C1356 0.950 . S
C1361 C1359 1.390 . S
C1361 C1362 1.387 . S
C1361 H1364 0.950 . S
C1362 C1361 1.387 . S
C1362 C1365 1.387 . S
H1363 C1359 0.950 . S
H1364 C1361 0.950 . S
C1365 C1356 1.390 . S
C1365 H1358 0.950 . S
C1365 C1362 1.387 . S
C1366 C1367 1.387 . S
C1366 H1370 0.950 . S
C1366 C1375 1.390 . S
C1367 C1366 1.387 . S
C1367 C1369 1.387 . S
H1368 C1375 0.950 . S
C1369 C1367 1.387 . S
C1369 C1371 1.390 . S
C1369 H1373 0.950 . S
H1370 C1366 0.950 . S
C1371 C1369 1.390 . S
C1371 C1372 1.387 . S
C1371 H1374 0.950 . S
C1372 C1371 1.387 . S
C1372 C1375 1.387 . S
H1373 C1369 0.950 . S
H1374 C1371 0.950 . S
C1375 C1366 1.390 . S
C1375 H1368 0.950 . S
C1375 C1372 1.387 . S
C1376 C1377 1.387 . S
C1376 H1380 0.950 . S
C1376 C1385 1.390 . S
C1377 C1376 1.387 . S
C1377 C1379 1.387 . S
H1378 C1385 0.950 . S
C1379 C1377 1.387 . S
C1379 C1381 1.390 . S
C1379 H1383 0.950 . S
H1380 C1376 0.950 . S
C1381 C1379 1.390 . S
C1381 C1382 1.387 . S
C1381 H1384 0.950 . S
C1382 C1381 1.387 . S
C1382 C1385 1.387 . S
H1383 C1379 0.950 . S
H1384 C1381 0.950 . S
C1385 C1376 1.390 . S
C1385 H1378 0.950 . S
C1385 C1382 1.387 . S
C1386 C1387 1.387 . S
C1386 H1390 0.950 . S
C1386 C1395 1.390 . S
C1387 C1386 1.387 . S
C1387 C1389 1.387 . S
H1388 C1395 0.950 . S
C1389 C1387 1.387 . S
C1389 C1391 1.390 . S
C1389 H1393 0.950 . S
H1390 C1386 0.950 . S
C1391 C1389 1.390 . S
C1391 C1392 1.387 . S
C1391 H1394 0.950 . S
C1392 C1391 1.387 . S
C1392 C1395 1.387 . S
H1393 C1389 0.950 . S
H1394 C1391 0.950 . S
C1395 C1386 1.390 . S
C1395 H1388 0.950 . S
C1395 C1392 1.387 . S
C1396 C1397 1.387 . S
C1396 H1400 0.950 1_455 S
C1396 C1405 1.390 . S
C1397 C1396 1.387 . S
C1397 C1399 1.387 . S
H1398 C1405 0.950 1_655 S
C1399 C1397 1.387 . S
C1399 C1401 1.390 . S
C1399 H1403 0.950 . S
H1400 C1396 0.950 1_655 S
C1401 C1399 1.390 . S
C1401 C1402 1.387 . S
C1401 H1404 0.950 . S
C1402 C1401 1.387 . S
C1402 C1405 1.387 . S
H1403 C1399 0.950 . S
H1404 C1401 0.950 . S
C1405 C1396 1.390 . S
C1405 H1398 0.950 1_455 S
C1405 C1402 1.387 . S
C1406 C1407 1.387 . S
C1406 H1410 0.950 . S
C1406 C1415 1.390 . S
C1407 C1406 1.387 . S
C1407 C1409 1.387 . S
H1408 C1415 0.950 . S
C1409 C1407 1.387 . S
C1409 C1411 1.390 . S
C1409 H1413 0.950 . S
H1410 C1406 0.950 . S
C1411 C1409 1.390 . S
C1411 C1412 1.387 . S
C1411 H1414 0.950 . S
C1412 C1411 1.387 . S
C1412 C1415 1.387 . S
H1413 C1409 0.950 . S
H1414 C1411 0.950 . S
C1415 C1406 1.390 . S
C1415 H1408 0.950 . S
C1415 C1412 1.387 . S
C1416 C1417 1.387 . S
C1416 H1420 0.950 . S
C1416 C1425 1.390 . S
C1417 C1416 1.387 . S
C1417 C1419 1.387 . S
H1418 C1425 0.950 . S
C1419 C1417 1.387 . S
C1419 C1421 1.390 1_556 S
C1419 H1423 0.950 1_556 S
H1420 C1416 0.950 . S
C1421 C1419 1.390 1_554 S
C1421 C1422 1.387 1_554 S
C1421 H1424 0.950 . S
C1422 C1421 1.387 1_556 S
C1422 C1425 1.387 . S
H1423 C1419 0.950 1_554 S
H1424 C1421 0.950 . S
C1425 C1416 1.390 . S
C1425 H1418 0.950 . S
C1425 C1422 1.387 . S
C1426 C1427 1.387 . S
C1426 H1430 0.950 . S
C1426 C1435 1.390 . S
C1427 C1426 1.387 . S
C1427 C1429 1.387 . S
H1428 C1435 0.950 . S
C1429 C1427 1.387 . S
C1429 C1431 1.390 . S
C1429 H1433 0.950 . S
H1430 C1426 0.950 . S
C1431 C1429 1.390 . S
C1431 C1432 1.387 . S
C1431 H1434 0.950 . S
C1432 C1431 1.387 . S
C1432 C1435 1.387 . S
H1433 C1429 0.950 . S
H1434 C1431 0.950 . S
C1435 C1426 1.390 . S
C1435 H1428 0.950 . S
C1435 C1432 1.387 . S
C1436 C1437 1.387 . S
C1436 H1440 0.950 . S
C1436 C1445 1.390 . S
C1437 C1436 1.387 . S
C1437 C1439 1.387 . S
H1438 C1445 0.950 . S
C1439 C1437 1.387 . S
C1439 C1441 1.390 . S
C1439 H1443 0.950 . S
H1440 C1436 0.950 . S
C1441 C1439 1.390 . S
C1441 C1442 1.387 . S
C1441 H1444 0.950 . S
C1442 C1441 1.387 . S
C1442 C1445 1.387 . S
H1443 C1439 0.950 . S
H1444 C1441 0.950 . S
C1445 C1436 1.390 . S
C1445 H1438 0.950 . S
C1445 C1442 1.387 . S
C1446 C1447 1.387 . S
C1446 H1450 0.950 . S
C1446 C1455 1.390 . S
C1447 C1446 1.387 . S
C1447 C1449 1.387 . S
H1448 C1455 0.950 . S
C1449 C1447 1.387 . S
C1449 C1451 1.390 . S
C1449 H1453 0.950 . S
H1450 C1446 0.950 . S
C1451 C1449 1.390 . S
C1451 C1452 1.387 . S
C1451 H1454 0.950 . S
C1452 C1451 1.387 . S
C1452 C1455 1.387 . S
H1453 C1449 0.950 . S
H1454 C1451 0.950 . S
C1455 C1446 1.390 . S
C1455 H1448 0.950 . S
C1455 C1452 1.387 . S
C1456 C1457 1.387 . S
C1456 H1460 0.950 . S
C1456 C1465 1.390 . S
C1457 C1456 1.387 . S
C1457 C1459 1.387 . S
H1458 C1465 0.950 . S
C1459 C1457 1.387 . S
C1459 C1461 1.390 . S
C1459 H1463 0.950 . S
H1460 C1456 0.950 . S
C1461 C1459 1.390 . S
C1461 C1462 1.387 . S
C1461 H1464 0.950 . S
C1462 C1461 1.387 . S
C1462 C1465 1.387 . S
H1463 C1459 0.950 . S
H1464 C1461 0.950 . S
C1465 C1456 1.390 . S
C1465 H1458 0.950 . S
C1465 C1462 1.387 . S
C1466 C1467 1.387 . S
C1466 H1470 0.950 . S
C1466 C1475 1.390 . S
C1467 C1466 1.387 . S
C1467 C1469 1.387 . S
H1468 C1475 0.950 . S
C1469 C1467 1.387 . S
C1469 C1471 1.390 . S
C1469 H1473 0.950 . S
H1470 C1466 0.950 . S
C1471 C1469 1.390 . S
C1471 C1472 1.387 . S
C1471 H1474 0.950 . S
C1472 C1471 1.387 . S
C1472 C1475 1.387 . S
H1473 C1469 0.950 . S
H1474 C1471 0.950 . S
C1475 C1466 1.390 . S
C1475 H1468 0.950 . S
C1475 C1472 1.387 . S
C1476 C1477 1.387 . S
C1476 H1480 0.950 . S
C1476 C1485 1.390 . S
C1477 C1476 1.387 . S
C1477 C1479 1.387 . S
H1478 C1485 0.948 1_455 S
C1479 C1477 1.387 . S
C1479 C1481 1.390 . S
C1479 H1483 0.950 . S
H1480 C1476 0.950 . S
C1481 C1479 1.390 . S
C1481 C1482 1.387 . S
C1481 H1484 0.950 . S
C1482 C1481 1.387 . S
C1482 C1485 1.387 . S
H1483 C1479 0.950 . S
H1484 C1481 0.950 . S
C1485 C1476 1.390 . S
C1485 H1478 0.948 1_655 S
C1485 C1482 1.387 . S
C1486 C1487 1.387 . S
C1486 H1490 0.950 . S
C1486 C1495 1.390 . S
C1487 C1486 1.387 . S
C1487 C1489 1.387 . S
H1488 C1495 0.950 . S
C1489 C1487 1.387 . S
C1489 C1491 1.390 . S
C1489 H1493 0.950 . S
H1490 C1486 0.950 . S
C1491 C1489 1.390 . S
C1491 C1492 1.387 . S
C1491 H1494 0.950 . S
C1492 C1491 1.387 . S
C1492 C1495 1.387 . S
H1493 C1489 0.950 . S
H1494 C1491 0.950 . S
C1495 C1486 1.390 . S
C1495 H1488 0.950 . S
C1495 C1492 1.387 . S
C1496 C1497 1.387 . S
C1496 H1500 0.950 . S
C1496 C1505 1.390 . S
C1497 C1496 1.387 . S
C1497 C1499 1.387 . S
H1498 C1505 0.950 . S
C1499 C1497 1.387 . S
C1499 C1501 1.390 . S
C1499 H1503 0.950 . S
H1500 C1496 0.950 . S
C1501 C1499 1.390 . S
C1501 C1502 1.387 . S
C1501 H1504 0.950 . S
C1502 C1501 1.387 . S
C1502 C1505 1.387 . S
H1503 C1499 0.950 . S
H1504 C1501 0.950 . S
C1505 C1496 1.390 . S
C1505 H1498 0.950 . S
C1505 C1502 1.387 . S
C1506 C1507 1.387 . S
C1506 H1510 0.950 . S
C1506 C1515 1.390 . S
C1507 C1506 1.387 . S
C1507 C1509 1.387 . S
H1508 C1515 0.950 . S
C1509 C1507 1.387 . S
C1509 C1511 1.390 . S
C1509 H1513 0.950 . S
H1510 C1506 0.950 . S
C1511 C1509 1.390 . S
C1511 C1512 1.387 . S
C1511 H1514 0.950 . S
C1512 C1511 1.387 . S
C1512 C1515 1.387 . S
H1513 C1509 0.950 . S
H1514 C1511 0.950 . S
C1515 C1506 1.390 . S
C1515 H1508 0.950 . S
C1515 C1512 1.387 . S
C1516 C1517 1.387 . S
C1516 H1520 0.950 . S
C1516 C1525 1.390 . S
C1517 C1516 1.387 . S
C1517 C1519 1.387 . S
H1518 C1525 0.950 . S
C1519 C1517 1.387 . S
C1519 C1521 1.390 . S
C1519 H1523 0.959 . S
H1520 C1516 0.950 . S
C1521 C1519 1.390 . S
C1521 C1522 1.387 . S
C1521 H1524 0.950 1_655 S
C1522 C1521 1.387 . S
C1522 C1525 1.387 . S
H1523 C1519 0.959 . S
H1524 C1521 0.950 1_455 S
C1525 C1516 1.390 . S
C1525 H1518 0.950 . S
C1525 C1522 1.387 . S
C1526 C1527 1.387 . S
C1526 H1530 0.950 . S
C1526 C1535 1.390 . S
C1527 C1526 1.387 . S
C1527 C1529 1.387 . S
H1528 C1535 0.950 . S
C1529 C1527 1.387 . S
C1529 C1531 1.390 . S
C1529 H1533 0.950 . S
H1530 C1526 0.950 . S
C1531 C1529 1.390 . S
C1531 C1532 1.387 . S
C1531 H1534 0.950 . S
C1532 C1531 1.387 . S
C1532 C1535 1.387 . S
H1533 C1529 0.950 . S
H1534 C1531 0.950 . S
C1535 C1526 1.390 . S
C1535 H1528 0.950 . S
C1535 C1532 1.387 . S
C1536 C1537 1.387 . S
C1536 H1540 0.950 . S
C1536 C1545 1.390 . S
C1537 C1536 1.387 . S
C1537 C1539 1.387 . S
H1538 C1545 0.950 . S
C1539 C1537 1.387 . S
C1539 C1541 1.390 . S
C1539 H1543 0.950 . S
H1540 C1536 0.950 . S
C1541 C1539 1.390 . S
C1541 C1542 1.387 . S
C1541 H1544 0.950 . S
C1542 C1541 1.387 . S
C1542 C1545 1.387 . S
H1543 C1539 0.950 . S
H1544 C1541 0.950 . S
C1545 C1536 1.390 . S
C1545 H1538 0.950 . S
C1545 C1542 1.387 . S
C1546 C1547 1.387 . S
C1546 H1550 0.950 . S
C1546 C1555 1.390 . S
C1547 C1546 1.387 . S
C1547 C1549 1.387 . S
H1548 C1555 0.950 . S
C1549 C1547 1.387 . S
C1549 C1551 1.390 . S
C1549 H1553 0.950 . S
H1550 C1546 0.950 . S
C1551 C1549 1.390 . S
C1551 C1552 1.387 . S
C1551 H1554 0.950 1_565 S
C1552 C1551 1.387 . S
C1552 C1555 1.387 . S
H1553 C1549 0.950 . S
H1554 C1551 0.950 1_545 S
C1555 C1546 1.390 . S
C1555 H1548 0.950 . S
C1555 C1552 1.387 . S
C1556 C1557 1.387 . S
C1556 H1560 0.950 . S
C1556 C1565 1.390 . S
C1557 C1556 1.387 . S
C1557 C1559 1.387 . S
H1558 C1565 0.950 . S
C1559 C1557 1.387 . S
C1559 C1561 1.390 . S
C1559 H1563 0.950 . S
H1560 C1556 0.950 . S
C1561 C1559 1.390 . S
C1561 C1562 1.387 . S
C1561 H1564 0.950 . S
C1562 C1561 1.387 . S
C1562 C1565 1.387 . S
H1563 C1559 0.950 . S
H1564 C1561 0.950 . S
C1565 C1556 1.390 . S
C1565 H1558 0.950 . S
C1565 C1562 1.387 . S
C1566 C1567 1.387 . S
C1566 H1570 0.950 . S
C1566 C1575 1.390 . S
C1567 C1566 1.387 . S
C1567 C1569 1.387 . S
H1568 C1575 0.950 . S
C1569 C1567 1.387 . S
C1569 C1571 1.390 . S
C1569 H1573 0.950 1_554 S
H1570 C1566 0.950 . S
C1571 C1569 1.390 . S
C1571 C1572 1.387 . S
C1571 H1574 0.950 1_554 S
C1572 C1571 1.387 . S
C1572 C1575 1.387 . S
H1573 C1569 0.950 1_556 S
H1574 C1571 0.950 1_556 S
C1575 C1566 1.390 . S
C1575 H1568 0.950 . S
C1575 C1572 1.387 . S
C1576 C1577 1.387 . S
C1576 H1580 0.950 . S
C1576 C1585 1.390 . S
C1577 C1576 1.387 . S
C1577 C1579 1.387 . S
H1578 C1585 0.950 . S
C1579 C1577 1.387 . S
C1579 C1581 1.390 . S
C1579 H1583 0.950 . S
H1580 C1576 0.950 . S
C1581 C1579 1.390 . S
C1581 C1582 1.387 . S
C1581 H1584 0.950 . S
C1582 C1581 1.387 . S
C1582 C1585 1.387 . S
H1583 C1579 0.950 . S
H1584 C1581 0.950 . S
C1585 C1576 1.390 . S
C1585 H1578 0.950 . S
C1585 C1582 1.387 . S
C1586 C1587 1.387 . S
C1586 H1590 0.950 . S
C1586 C1595 1.390 . S
C1587 C1586 1.387 . S
C1587 C1589 1.387 . S
H1588 C1595 0.950 . S
C1589 C1587 1.387 . S
C1589 C1591 1.390 1_554 S
C1589 H1593 0.950 1_554 S
H1590 C1586 0.950 . S
C1591 C1589 1.390 1_556 S
C1591 C1592 1.387 1_556 S
C1591 H1594 0.950 . S
C1592 C1591 1.387 1_554 S
C1592 C1595 1.387 . S
H1593 C1589 0.950 1_556 S
H1594 C1591 0.950 . S
C1595 C1586 1.390 . S
C1595 H1588 0.950 . S
C1595 C1592 1.387 . S
C1596 C1597 1.387 . S
C1596 H1600 0.950 . S
C1596 C1605 1.390 . S
C1597 C1596 1.387 . S
C1597 C1599 1.387 . S
H1598 C1605 0.950 . S
C1599 C1597 1.387 . S
C1599 C1601 1.390 . S
C1599 H1603 0.950 . S
H1600 C1596 0.950 . S
C1601 C1599 1.390 . S
C1601 C1602 1.387 . S
C1601 H1604 0.950 . S
C1602 C1601 1.387 . S
C1602 C1605 1.387 . S
H1603 C1599 0.950 . S
H1604 C1601 0.950 . S
C1605 C1596 1.390 . S
C1605 H1598 0.950 . S
C1605 C1602 1.387 . S
C1606 C1607 1.387 . S
C1606 H1610 0.950 . S
C1606 C1615 1.390 . S
C1607 C1606 1.387 . S
C1607 C1609 1.387 . S
H1608 C1615 0.950 . S
C1609 C1607 1.387 . S
C1609 C1611 1.390 . S
C1609 H1613 0.950 . S
H1610 C1606 0.950 . S
C1611 C1609 1.390 . S
C1611 C1612 1.387 . S
C1611 H1614 0.950 . S
C1612 C1611 1.387 . S
C1612 C1615 1.387 . S
H1613 C1609 0.950 . S
H1614 C1611 0.950 . S
C1615 C1606 1.390 . S
C1615 H1608 0.950 . S
C1615 C1612 1.387 . S
C657 C109 1.466 . S
C662 C340 1.229 1_556 S
C667 C61 1.360 . S
C672 C375 1.484 . S
C677 C74 1.186 . S
C682 C380 1.116 . S
C692 C405 1.422 . S
C687 C96 1.484 . S
C697 C25 1.418 . S
C702 C425 1.368 . S
C712 C440 1.071 . S
C707 C40 1.161 . S
C722 C475 1.557 . S
C717 C46 1.580 . S
C727 C5 1.076 . S
C732 C480 1.234 . S
C742 C355 1.488 1_655 S
C737 C229 1.226 . S
C747 C249 1.180 . S
C752 C365 1.122 . S
C762 C395 1.346 . S
C757 C271 1.213 . S
C772 C400 1.282 . S
C767 C172 1.335 1_556 S
C777 C236 1.259 . S
C782 C420 1.162 . S
C792 C455 1.581 . S
C787 C242 1.604 . S
C802 C465 1.031 . S
C797 C278 1.083 . S
C812 C495 1.622 . S
C807 C179 1.695 . S
C822 C345 1.344 . S
C817 C159 1.101 . S
C827 C285 1.561 1_554 S
C832 C515 1.691 . S
C842 C525 1.412 . S
C837 C333 1.526 . S
C852 C540 1.043 . S
C847 C320 1.123 . S
C857 C123 1.498 . S
C862 C485 1.303 . S
C867 C138 1.617 . S
C872 C385 1.506 . S
C877 C326 1.867 . S
C882 C575 1.849 . S
C892 C580 1.097 . S
C887 C298 1.153 . S
C902 C338 1.233 . S
C897 C67 1.445 . S
C912 C594 1.439 . S
C907 C110 1.463 . S
C917 C88 1.216 . S
C922 C378 1.126 . S
C927 C75 1.253 . S
C932 C568 1.374 . S
C942 C428 1.336 . S
C937 C11 1.369 . S
C947 C47 1.025 . S
C952 C518 1.068 . S
C962 C474 1.481 1_556 S
C957 C32 1.439 . S
C972 C598 1.276 . S
C967 C26 1.571 . S
C982 C354 1.596 1_565 S
C977 C152 1.722 . S
C992 C588 1.114 . S
C987 C319 1.120 . S
C997 C124 1.353 . S
C1002 C394 1.332 . S
C1007 C284 1.388 . S
C1012 C558 1.298 . S
C1017 C145 1.087 1_545 S
C1022 C418 1.132 . S
C1032 C534 1.490 . S
C1027 C312 1.454 . S
C1037 C117 0.931 . S
C1042 C468 0.949 . S
C1047 C291 1.633 . S
C1052 C614 1.563 . S
C1057 C194 1.634 . S
C1062 C348 1.395 1_554 S
C1067 C180 1.674 . S
C1072 C514 1.659 . S
C1077 C263 1.390 . S
C1082 C448 1.350 . S
C1087 C243 0.930 . S
C1092 C538 1.012 . S
C1102 C608 1.315 . S
C1097 C277 1.456 . S
C1107 C215 1.440 . S
C1112 C388 1.468 . S
C1122 C414 1.770 . S
C1117 C256 1.682 . S
C1132 C358 1.143 . S
C1127 C200 1.234 . S
C1137 C81 1.466 . S
C1142 C620 1.225 . S
C1152 C595 1.484 . S
C1147 C89 1.360 . S
C1157 C102 1.189 1_455 S
C1162 C640 1.119 . S
C1167 C68 1.484 . S
C1172 C565 1.422 . S
C1177 C53 1.418 . S
C1182 C505 1.370 . S
C1192 C520 1.070 . S
C1187 C12 1.161 . S
C1202 C555 1.557 . S
C1197 C18 1.580 1_455 S
C1212 C600 1.234 . S
C1207 C33 1.076 . S
C1222 C635 1.489 . S
C1217 C257 1.228 . S
C1227 C193 1.180 . S
C1232 C585 1.122 . S
C1242 C655 1.332 . S
C1237 C201 1.213 . S
C1252 C560 1.277 . S
C1247 C214 1.332 . S
C1262 C500 1.162 . S
C1257 C264 1.260 . S
C1267 C186 1.603 . S
C1272 C535 1.579 . S
C1282 C545 1.029 . S
C1277 C208 1.084 . S
C1287 C221 1.695 . S
C1292 C615 1.624 . S
C1302 C625 1.346 . S
C1297 C313 1.103 . S
C1307 C131 1.558 . S
C1312 C435 1.690 . S
C1322 C445 1.415 . S
C1317 C151 1.526 . S
C1332 C460 1.043 . S
C1327 C166 1.123 . S
C1342 C605 1.303 . S
C1337 C305 1.498 . S
C1347 C292 1.617 . S
C1352 C645 1.502 . S
C1362 C415 1.849 . S
C1357 C144 1.867 . S
C1372 C360 1.101 . S
C1367 C116 1.155 . S
C1377 C95 1.443 . S
C1382 C618 1.228 . S
C1392 C374 1.440 . S
C1387 C82 1.463 . S
C1397 C60 1.217 . S
C1402 C638 1.129 . S
C1407 C103 1.256 . S
C1412 C408 1.374 . S
C1417 C39 1.368 . S
C1422 C508 1.335 . S
C1432 C438 1.068 . S
C1427 C19 1.025 . S
C1437 C4 1.436 . S
C1442 C554 1.483 . S
C1447 C54 1.572 . S
C1452 C478 1.280 . S
C1462 C634 1.595 . S
C1457 C334 1.722 . S
C1467 C165 1.122 . S
C1472 C368 1.113 . S
C1482 C654 1.330 1_655 S
C1477 C306 1.354 . S
C1487 C130 1.387 . S
C1492 C398 1.303 . S
C1497 C327 1.096 . S
C1502 C498 1.135 . S
C1512 C454 1.490 . S
C1507 C158 1.453 . S
C1517 C299 0.932 . S
C1522 C548 0.946 . S
C1532 C494 1.560 . S
C1527 C137 1.632 . S
C1542 C628 1.400 . S
C1537 C250 1.635 . S
C1552 C434 1.659 . S
C1547 C222 1.674 . S
C1557 C235 1.389 . S
C1562 C528 1.353 . S
C1572 C458 1.012 . S
C1567 C187 0.929 . S
C1577 C207 1.457 . S
C1582 C488 1.315 . S
C1587 C173 1.441 . S
C1592 C648 1.472 . S
C1602 C574 1.769 . S
C1597 C228 1.682 . S
C1612 C578 1.143 . S
C1607 C270 1.234 . S
