# Generated by pormake.
# Topology anh, (6,3)-cn, num edge types: 1
# Building blocks:
#     Node 0, Type 0, BuildingBlock: BETDEL_clean_sbu_0, # of connection points: 6
#     Node 1, Type 0, BuildingBlock: BETDEL_clean_sbu_0, # of connection points: 6
#     Node 2, Type 0, BuildingBlock: BETDEL_clean_sbu_0, # of connection points: 6
#     Node 3, Type 1, BuildingBlock: OLANEW_clean_sbu_2, # of connection points: 3
#     Node 4, Type 1, BuildingBlock: OLANEW_clean_sbu_2, # of connection points: 3
#     Node 5, Type 1, BuildingBlock: OLANEW_clean_sbu_2, # of connection points: 3
#     Node 6, Type 1, BuildingBlock: OLANEW_clean_sbu_2, # of connection points: 3
#     Node 7, Type 1, BuildingBlock: OLANEW_clean_sbu_2, # of connection points: 3
#     Node 8, Type 1, BuildingBlock: OLANEW_clean_sbu_2, # of connection points: 3
#     Edge 9, Type (0, 1), BuildingBlock: EZIPEK_clean_linker_0, # of connection points: 2
#     Edge 10, Type (0, 1), BuildingBlock: EZIPEK_clean_linker_0, # of connection points: 2
#     Edge 11, Type (0, 1), BuildingBlock: EZIPEK_clean_linker_0, # of connection points: 2
#     Edge 12, Type (0, 1), BuildingBlock: EZIPEK_clean_linker_0, # of connection points: 2
#     Edge 13, Type (0, 1), BuildingBlock: EZIPEK_clean_linker_0, # of connection points: 2
#     Edge 14, Type (0, 1), BuildingBlock: EZIPEK_clean_linker_0, # of connection points: 2
#     Edge 15, Type (0, 1), BuildingBlock: EZIPEK_clean_linker_0, # of connection points: 2
#     Edge 16, Type (0, 1), BuildingBlock: EZIPEK_clean_linker_0, # of connection points: 2
#     Edge 17, Type (0, 1), BuildingBlock: EZIPEK_clean_linker_0, # of connection points: 2
#     Edge 18, Type (0, 1), BuildingBlock: EZIPEK_clean_linker_0, # of connection points: 2
#     Edge 19, Type (0, 1), BuildingBlock: EZIPEK_clean_linker_0, # of connection points: 2
#     Edge 20, Type (0, 1), BuildingBlock: EZIPEK_clean_linker_0, # of connection points: 2
#     Edge 21, Type (0, 1), BuildingBlock: EZIPEK_clean_linker_0, # of connection points: 2
#     Edge 22, Type (0, 1), BuildingBlock: EZIPEK_clean_linker_0, # of connection points: 2
#     Edge 23, Type (0, 1), BuildingBlock: EZIPEK_clean_linker_0, # of connection points: 2
#     Edge 24, Type (0, 1), BuildingBlock: EZIPEK_clean_linker_0, # of connection points: 2
#     Edge 25, Type (0, 1), BuildingBlock: EZIPEK_clean_linker_0, # of connection points: 2
#     Edge 26, Type (0, 1), BuildingBlock: EZIPEK_clean_linker_0, # of connection points: 2
# Relax obj value: 0.097
# Max RMSD: 0.107
# Mean RMSD: 0.103
data_MOF--net-anh--node1-BETDEL_clean_sbu_0--node2-OLANEW_clean_sbu_2--edge1-EZIPEK_clean_linker_0
_symmetry_space_group_name_H-M    P1
_symmetry_Int_Tables_number       1
_symmetry_cell_setting            triclinic
loop_
_symmetry_equiv_pos_as_xyz
'x, y, z'
_cell_length_a     25.344523
_cell_length_b     25.303221
_cell_length_c     35.893151
_cell_angle_alpha  89.647784
_cell_angle_beta   89.797995
_cell_angle_gamma 120.04521
loop_
_atom_site_label
_atom_site_type_symbol
_atom_site_fract_x
_atom_site_fract_y
_atom_site_fract_z
_atom_type_partial_charge
Dy0 Dy 0.04372 0.45802 0.16521 0.0
C1 C 0.86444 0.53448 0.17519 0.0
C2 C 0.12601 0.41991 0.15221 0.0
Dy3 Dy 0.94826 0.49987 0.16107 0.0
O4 O 0.10112 0.41861 0.18409 0.0
O5 O 0.10531 0.44233 0.12729 0.0
O6 O 0.06291 0.48456 0.22503 0.0
O7 O 0.97677 0.45808 0.20313 0.0
C8 C 0.01079 0.48133 0.23098 0.0
C9 C 0.98456 0.47932 0.09514 0.0
O10 O 0.03311 0.59097 0.16712 0.0
O11 O 0.10534 0.55971 0.16347 0.0
O12 O 0.87427 0.51779 0.14304 0.0
O13 O 0.90264 0.53527 0.19955 0.0
O14 O 0.93086 0.47211 0.10134 0.0
O15 O 0.0176 0.50288 0.12327 0.0
O16 O 0.95789 0.36855 0.15493 0.0
O17 O 0.88763 0.39935 0.16911 0.0
C18 C 0.09045 0.60296 0.16686 0.0
C19 C 0.9013 0.3565 0.16132 0.0
Dy20 Dy 0.46151 0.00262 0.50098 0.0
C21 C 0.71005 0.17567 0.52404 0.0
C22 C 0.34487 0.91296 0.48723 0.0
Dy23 Dy 0.59808 0.08214 0.50266 0.0
O24 O 0.36255 0.94641 0.51686 0.0
O25 O 0.39048 0.93004 0.46435 0.0
O26 O 0.45808 0.03181 0.55921 0.0
O27 O 0.53089 0.02033 0.54327 0.0
C28 C 0.50876 0.03553 0.56978 0.0
C29 C 0.55549 0.04999 0.4335 0.0
O30 O 0.59336 0.99176 0.51167 0.0
O31 O 0.49053 0.93218 0.49819 0.0
O32 O 0.70079 0.13579 0.49841 0.0
O33 O 0.65768 0.16322 0.53776 0.0
O34 O 0.61099 0.06656 0.44304 0.0
O35 O 0.52948 0.06127 0.45984 0.0
O36 O 0.46477 0.09125 0.48985 0.0
O37 O 0.56566 0.14999 0.5076 0.0
C38 C 0.54437 0.93779 0.5052 0.0
C39 C 0.51254 0.14445 0.49865 0.0
Dy40 Dy 0.56053 0.58349 0.83149 0.0
C41 C 0.50843 0.33785 0.84059 0.0
C42 C 0.59536 0.70352 0.82172 0.0
Dy43 Dy 0.52004 0.44996 0.8311 0.0
O44 O 0.6152 0.68228 0.84784 0.0
O45 O 0.55913 0.65968 0.79992 0.0
O46 O 0.51888 0.57234 0.88827 0.0
O47 O 0.55682 0.51905 0.87417 0.0
C48 C 0.52763 0.52849 0.89908 0.0
C49 C 0.5146 0.49465 0.76381 0.0
O50 O 0.43133 0.4453 0.8448 0.0
O51 O 0.4607 0.54107 0.8206 0.0
O52 O 0.48973 0.36329 0.86455 0.0
O53 O 0.53172 0.37271 0.81157 0.0
O54 O 0.47597 0.44023 0.77591 0.0
O55 O 0.5561 0.52163 0.78762 0.0
O56 O 0.65321 0.59341 0.82674 0.0
O57 O 0.62094 0.49053 0.8361 0.0
C58 C 0.41831 0.4873 0.8334 0.0
C59 C 0.66449 0.54806 0.83162 0.0
O60 O 0.55005 0.01822 0.25649 0.0
Cd61 Cd 0.56638 0.02173 0.18919 0.0
O62 O 0.44982 0.9763 0.26254 0.0
Cd63 Cd 0.42147 0.94715 0.20534 0.0
O64 O 0.34332 0.8743 0.17614 0.0
C65 C 0.30611 0.83186 0.1978 0.0
O66 O 0.31758 0.83603 0.23367 0.0
C67 C 0.50278 0.0013 0.27662 0.0
C68 C 0.68049 0.1239 0.17419 0.0
O69 O 0.63183 0.12744 0.17308 0.0
O70 O 0.67544 0.0718 0.18105 0.0
O71 O 0.57532 0.52114 0.5847 0.0
Cd72 Cd 0.56653 0.50448 0.51747 0.0
O73 O 0.5032 0.5454 0.58783 0.0
Cd74 Cd 0.51785 0.58295 0.53142 0.0
O75 O 0.53692 0.67109 0.50814 0.0
C76 C 0.53145 0.7054 0.53174 0.0
O77 O 0.51629 0.68585 0.56626 0.0
C78 C 0.53832 0.53018 0.60383 0.0
C79 C 0.53726 0.38345 0.50553 0.0
O80 O 0.5928 0.42687 0.50646 0.0
O81 O 0.49512 0.39705 0.50897 0.0
O82 O 0.07449 0.49359 0.92008 0.0
Cd83 Cd 0.08668 0.49341 0.85266 0.0
O84 O 0.99556 0.50833 0.9218 0.0
Cd85 Cd 0.98106 0.51842 0.86287 0.0
O86 O 0.90898 0.52933 0.83709 0.0
C87 C 0.90099 0.57117 0.85054 0.0
O88 O 0.93897 0.60766 0.87578 0.0
C89 C 0.03452 0.4991 0.93833 0.0
C90 C 0.18811 0.48071 0.84045 0.0
O91 O 0.19338 0.53362 0.84286 0.0
O92 O 0.13481 0.43349 0.84263 0.0
O93 O 0.00552 0.54118 0.40057 0.0
Cd94 Cd 0.01493 0.5701 0.46585 0.0
O95 O 0.92015 0.54214 0.39135 0.0
Cd96 Cd 0.90742 0.5375 0.45155 0.0
O97 O 0.88236 0.46691 0.49415 0.0
C98 C 0.85855 0.41409 0.47992 0.0
O99 O 0.85411 0.40918 0.44351 0.0
C100 C 0.96439 0.53727 0.37871 0.0
C101 C 0.11888 0.68389 0.47364 0.0
O102 O 0.12104 0.63465 0.47763 0.0
O103 O 0.06736 0.67966 0.46665 0.0
O104 O 0.53207 0.03273 0.7489 0.0
Cd105 Cd 0.54875 0.01382 0.81335 0.0
O106 O 0.62907 0.09292 0.73773 0.0
Cd107 Cd 0.64517 0.10238 0.79752 0.0
O108 O 0.60642 0.14176 0.83504 0.0
C109 C 0.58679 0.17118 0.81644 0.0
O110 O 0.59208 0.17329 0.77997 0.0
C111 C 0.57454 0.06606 0.72605 0.0
C112 C 0.5766 0.92078 0.81668 0.0
O113 O 0.52174 0.90962 0.82096 0.0
O114 O 0.61895 0.97611 0.81126 0.0
O115 O 0.51088 0.45943 0.07707 0.0
Cd116 Cd 0.50799 0.45407 0.14519 0.0
O117 O 0.53582 0.55622 0.07557 0.0
Cd118 Cd 0.50648 0.54815 0.1331 0.0
O119 O 0.41254 0.49369 0.15196 0.0
C120 C 0.37586 0.50492 0.13432 0.0
O121 O 0.39769 0.5485 0.10891 0.0
C122 C 0.52659 0.50833 0.05871 0.0
C123 C 0.62721 0.49976 0.16833 0.0
O124 O 0.5923 0.44271 0.16224 0.0
O125 O 0.60507 0.53534 0.16539 0.0
C126 C 0.21789 0.42191 0.17912 0.0
C127 C 0.1823 0.41579 0.14744 0.0
C128 C 0.27119 0.44271 0.10782 0.0
C129 C 0.30899 0.46671 0.13963 0.0
N130 N 0.31733 0.48002 0.2066 0.0
N131 N 0.17073 0.40452 0.08101 0.0
C132 C 0.28223 0.4555 0.17574 0.0
C133 C 0.20758 0.42075 0.11145 0.0
N134 N 0.19038 0.39475 0.21206 0.0
N135 N 0.29593 0.43923 0.07465 0.0
H136 H 0.12329 0.38054 0.08343 0.0
H137 H 0.18691 0.41471 0.05369 0.0
H138 H 0.34181 0.45216 0.07172 0.0
H139 H 0.27037 0.41823 0.05107 0.0
H140 H 0.21466 0.39476 0.23544 0.0
H141 H 0.14349 0.36485 0.21409 0.0
H142 H 0.29876 0.47801 0.23289 0.0
H143 H 0.36462 0.50706 0.20563 0.0
C144 C 0.8172 0.25282 0.50415 0.0
C145 C 0.76611 0.23664 0.52744 0.0
C146 C 0.7912 0.34284 0.53111 0.0
C147 C 0.83619 0.35793 0.50294 0.0
N148 N 0.90699 0.3343 0.47305 0.0
N149 N 0.72874 0.26939 0.57876 0.0
C150 C 0.85431 0.31501 0.49296 0.0
C151 C 0.76152 0.28295 0.54639 0.0
N152 N 0.82927 0.20863 0.49266 0.0
N153 N 0.77304 0.3833 0.54121 0.0
H154 H 0.7099 0.22628 0.59125 0.0
H155 H 0.7271 0.30232 0.59523 0.0
H156 H 0.79269 0.4276 0.53066 0.0
H157 H 0.73531 0.37127 0.5583 0.0
H158 H 0.8613 0.21513 0.47227 0.0
H159 H 0.80709 0.16491 0.50448 0.0
H160 H 0.92488 0.30651 0.46616 0.0
H161 H 0.93566 0.38012 0.46587 0.0
C162 C 0.61873 0.80105 0.78955 0.0
C163 C 0.59944 0.76395 0.82215 0.0
C164 C 0.57961 0.83833 0.8532 0.0
C165 C 0.59038 0.87058 0.81908 0.0
N166 N 0.61574 0.88103 0.7536 0.0
N167 N 0.55117 0.74198 0.8831 0.0
C168 C 0.60941 0.85196 0.78695 0.0
C169 C 0.57777 0.7814 0.8537 0.0
N170 N 0.64675 0.78803 0.76138 0.0
N171 N 0.57184 0.86256 0.8853 0.0
H172 H 0.54621 0.69862 0.8845 0.0
H173 H 0.52837 0.74982 0.90465 0.0
H174 H 0.57315 0.90442 0.88596 0.0
H175 H 0.57029 0.84427 0.91164 0.0
H176 H 0.66718 0.81656 0.73842 0.0
H177 H 0.65439 0.75118 0.76259 0.0
H178 H 0.62258 0.86526 0.72834 0.0
H179 H 0.60987 0.91881 0.75068 0.0
C180 C 0.76554 0.50324 0.20897 0.0
C181 C 0.81094 0.54169 0.18266 0.0
C182 C 0.73831 0.56388 0.15164 0.0
C183 C 0.69225 0.52345 0.1769 0.0
N184 N 0.66588 0.4709 0.23601 0.0
N185 N 0.8466 0.62363 0.13789 0.0
C186 C 0.70736 0.49869 0.20781 0.0
C187 C 0.79921 0.5773 0.1571 0.0
N188 N 0.77597 0.46761 0.23318 0.0
N189 N 0.72347 0.58584 0.12093 0.0
H190 H 0.89172 0.63453 0.14192 0.0
H191 H 0.84198 0.65485 0.12117 0.0
H192 H 0.67948 0.57709 0.11553 0.0
H193 H 0.75405 0.60929 0.0993 0.0
H194 H 0.74177 0.43277 0.2492 0.0
H195 H 0.81801 0.47022 0.23608 0.0
H196 H 0.676 0.45692 0.26101 0.0
H197 H 0.62311 0.46751 0.23584 0.0
C198 C 0.26722 0.81039 0.51245 0.0
C199 C 0.2858 0.85553 0.48392 0.0
C200 C 0.19622 0.78655 0.44727 0.0
C201 C 0.17481 0.74417 0.47749 0.0
N202 N 0.18331 0.7218 0.54191 0.0
N203 N 0.26383 0.89091 0.42674 0.0
C204 C 0.20835 0.75792 0.51101 0.0
C205 C 0.2491 0.84487 0.45201 0.0
N206 N 0.30695 0.81557 0.53981 0.0
N207 N 0.16785 0.77013 0.41352 0.0
H208 H 0.30216 0.93419 0.42938 0.0
H209 H 0.23539 0.88793 0.405 0.0
H210 H 0.12957 0.7276 0.40871 0.0
H211 H 0.18531 0.79654 0.38943 0.0
H212 H 0.29769 0.78073 0.55889 0.0
H213 H 0.35174 0.85157 0.54112 0.0
H214 H 0.20321 0.73338 0.56815 0.0
H215 H 0.13971 0.68347 0.54224 0.0
C216 C 0.56373 0.28903 0.86761 0.0
C217 C 0.51361 0.28303 0.84688 0.0
C218 C 0.49828 0.18762 0.82055 0.0
C219 C 0.55618 0.20139 0.83424 0.0
N220 N 0.64437 0.26431 0.87185 0.0
N221 N 0.4296 0.22545 0.80584 0.0
C222 C 0.58831 0.25081 0.85902 0.0
C223 C 0.47907 0.23122 0.82453 0.0
N224 N 0.58881 0.33251 0.89454 0.0
N225 N 0.46218 0.13288 0.80366 0.0
H226 H 0.4129 0.25525 0.80999 0.0
H227 H 0.40663 0.19285 0.78546 0.0
H228 H 0.47514 0.09984 0.80116 0.0
H229 H 0.4176 0.1179 0.79539 0.0
H230 H 0.62221 0.33607 0.91283 0.0
H231 H 0.57194 0.36146 0.90096 0.0
H232 H 0.67335 0.30418 0.88603 0.0
H233 H 0.66381 0.23729 0.86659 0.0
C234 C 0.51594 0.832 0.48357 0.0
C235 C 0.54695 0.88039 0.50943 0.0
C236 C 0.57972 0.8175 0.5434 0.0
C237 C 0.54113 0.76654 0.5212 0.0
N238 N 0.46384 0.72294 0.47374 0.0
N239 N 0.59515 0.91152 0.56976 0.0
C240 C 0.50727 0.77315 0.49199 0.0
C241 C 0.57584 0.87144 0.5408 0.0
N242 N 0.49513 0.84198 0.45071 0.0
N243 N 0.62059 0.81467 0.56686 0.0
H244 H 0.58818 0.94865 0.57112 0.0
H245 H 0.61113 0.90353 0.59466 0.0
H246 H 0.62581 0.77637 0.56885 0.0
H247 H 0.65365 0.85254 0.58111 0.0
H248 H 0.47886 0.81038 0.42919 0.0
H249 H 0.49897 0.88359 0.4434 0.0
H250 H 0.4329 0.7245 0.45537 0.0
H251 H 0.45457 0.67867 0.47943 0.0
C252 C 0.74504 0.55047 0.87205 0.0
C253 C 0.72791 0.56154 0.83658 0.0
C254 C 0.82768 0.58629 0.81094 0.0
C255 C 0.84188 0.5687 0.8454 0.0
N256 N 0.81022 0.52414 0.9069 0.0
N257 N 0.74937 0.58461 0.77119 0.0
C258 C 0.79965 0.54839 0.87555 0.0
C259 C 0.76843 0.57847 0.8057 0.0
N260 N 0.70955 0.54313 0.90263 0.0
N261 N 0.87123 0.61151 0.7836 0.0
H262 H 0.70676 0.5803 0.76661 0.0
H263 H 0.77401 0.59014 0.74679 0.0
H264 H 0.91462 0.61694 0.78647 0.0
H265 H 0.86605 0.63105 0.75928 0.0
H266 H 0.72292 0.54161 0.92983 0.0
H267 H 0.66914 0.54442 0.90117 0.0
H268 H 0.77783 0.50212 0.92789 0.0
H269 H 0.84924 0.52078 0.91056 0.0
C270 C 0.14065 0.70773 0.19713 0.0
C271 C 0.14117 0.66747 0.16967 0.0
C272 C 0.24938 0.73953 0.1568 0.0
C273 C 0.2486 0.77957 0.18396 0.0
N274 N 0.18949 0.81123 0.22039 0.0
N275 N 0.18985 0.65662 0.11461 0.0
C276 C 0.19281 0.76666 0.20097 0.0
C277 C 0.19365 0.68712 0.14669 0.0
N278 N 0.09253 0.68923 0.22121 0.0
N279 N 0.30337 0.74935 0.14206 0.0
H280 H 0.14905 0.61983 0.10537 0.0
H281 H 0.22524 0.67215 0.09516 0.0
H282 H 0.3454 0.78681 0.14882 0.0
H283 H 0.30681 0.71758 0.12542 0.0
H284 H 0.09393 0.7143 0.24448 0.0
H285 H 0.05319 0.6467 0.22056 0.0
H286 H 0.14863 0.80658 0.23022 0.0
H287 H 0.22661 0.85531 0.22303 0.0
C288 C 0.54469 0.24651 0.46937 0.0
C289 C 0.5093 0.20135 0.4966 0.0
C290 C 0.4887 0.27449 0.52882 0.0
C291 C 0.52274 0.31914 0.50097 0.0
N292 N 0.56968 0.34298 0.44008 0.0
N293 N 0.43756 0.16784 0.54775 0.0
C294 C 0.54671 0.30369 0.46982 0.0
C295 C 0.47756 0.21377 0.52466 0.0
N296 N 0.57763 0.23534 0.44354 0.0
N297 N 0.47061 0.29095 0.56051 0.0
H298 H 0.42991 0.12341 0.54642 0.0
H299 H 0.40822 0.17241 0.56611 0.0
H300 H 0.47853 0.33493 0.5651 0.0
H301 H 0.45223 0.26246 0.58371 0.0
H302 H 0.61026 0.26895 0.42611 0.0
H303 H 0.57516 0.19315 0.44096 0.0
H304 H 0.5822 0.33185 0.41494 0.0
H305 H 0.57059 0.38465 0.43912 0.0
C306 C 0.32251 0.4701 0.80223 0.0
C307 C 0.3549 0.47569 0.8356 0.0
C308 C 0.27529 0.48024 0.87224 0.0
C309 C 0.24304 0.47451 0.83889 0.0
N310 N 0.22874 0.45321 0.77332 0.0
N311 N 0.35885 0.47711 0.90273 0.0
C312 C 0.26439 0.4659 0.80421 0.0
C313 C 0.32996 0.47752 0.87075 0.0
N314 N 0.34816 0.4704 0.76859 0.0
N315 N 0.25454 0.49035 0.90519 0.0
H316 H 0.40066 0.47887 0.90268 0.0
H317 H 0.34002 0.4712 0.92928 0.0
H318 H 0.21314 0.48957 0.90774 0.0
H319 H 0.27939 0.50264 0.92975 0.0
H320 H 0.33106 0.47432 0.74306 0.0
H321 H 0.38866 0.46949 0.76616 0.0
H322 H 0.23845 0.44033 0.74788 0.0
H323 H 0.18664 0.45128 0.77378 0.0
C324 C 0.84085 0.25535 0.19356 0.0
C325 C 0.8506 0.29243 0.1616 0.0
C326 C 0.75494 0.21248 0.13476 0.0
C327 C 0.74115 0.17939 0.16887 0.0
N328 N 0.76775 0.17182 0.23245 0.0
N329 N 0.81732 0.30842 0.10195 0.0
C330 C 0.78362 0.20097 0.19859 0.0
C331 C 0.80784 0.27142 0.13214 0.0
N332 N 0.8861 0.27241 0.21926 0.0
N333 N 0.71832 0.18665 0.10459 0.0
H334 H 0.85735 0.35008 0.09799 0.0
H335 H 0.78457 0.29937 0.08174 0.0
H336 H 0.67971 0.14322 0.10548 0.0
H337 H 0.72887 0.20559 0.0779 0.0
H338 H 0.88433 0.24432 0.24112 0.0
H339 H 0.92794 0.31275 0.217 0.0
H340 H 0.79363 0.18935 0.25641 0.0
H341 H 0.72611 0.13235 0.23761 0.0
C342 C 0.00112 0.43527 0.03706 0.0
C343 C 0.00892 0.48711 0.05675 0.0
C344 C 0.04418 0.5494 -0.00037 0.0
C345 C 0.03363 0.49681 0.97959 0.0
N346 N 0.01333 0.39291 0.97928 0.0
N347 N 0.04643 0.59548 0.05921 0.0
C348 C 0.01617 0.44084 0.99843 0.0
C349 C 0.03356 0.54496 0.03879 0.0
N350 N 0.97676 0.38012 0.05508 0.0
N351 N 0.06294 0.60321 0.98081 0.0
H352 H 0.03647 0.59373 0.08752 0.0
H353 H 0.0702 0.64 0.04898 0.0
H354 H 0.07596 0.60936 0.9528 0.0
H355 H 0.06434 0.64152 0.99227 0.0
H356 H 0.96251 0.33873 0.04184 0.0
H357 H 0.96821 0.37523 0.08365 0.0
H358 H 0.00739 0.35314 0.99186 0.0
H359 H 0.02073 0.39401 0.95065 0.0
C360 C 0.50336 0.05836 0.37472 0.0
C361 C 0.53275 0.03133 0.39467 0.0
C362 C 0.53017 0.97543 0.33807 0.0
C363 C 0.50961 0.00928 0.31743 0.0
N364 N 0.48274 0.08793 0.31448 0.0
N365 N 0.57734 0.96579 0.39389 0.0
C366 C 0.49718 0.05157 0.33535 0.0
C367 C 0.54693 0.99027 0.37591 0.0
N368 N 0.48146 0.09084 0.39276 0.0
N369 N 0.53163 0.92739 0.32182 0.0
H370 H 0.58523 0.96905 0.42243 0.0
H371 H 0.59712 0.94383 0.38011 0.0
H372 H 0.51945 0.91498 0.29415 0.0
H373 H 0.53917 0.89623 0.33656 0.0
H374 H 0.45283 0.10411 0.38025 0.0
H375 H 0.48714 0.10076 0.42085 0.0
H376 H 0.48119 0.12531 0.32515 0.0
H377 H 0.47732 0.08413 0.28565 0.0
C378 C 0.521 0.55547 0.70645 0.0
C379 C 0.52541 0.50709 0.72327 0.0
C380 C 0.53385 0.47101 0.66165 0.0
C381 C 0.53591 0.52308 0.645 0.0
N382 N 0.54847 0.62359 0.65333 0.0
N383 N 0.55364 0.42939 0.7171 0.0
C384 C 0.53453 0.56802 0.66791 0.0
C385 C 0.53738 0.46813 0.70095 0.0
N386 N 0.50155 0.58795 0.72674 0.0
N387 N 0.52512 0.42267 0.6404 0.0
H388 H 0.55952 0.42798 0.74574 0.0
H389 H 0.56808 0.40405 0.70175 0.0
H390 H 0.51848 0.42085 0.61171 0.0
H391 H 0.51752 0.38147 0.65187 0.0
H392 H 0.4919 0.61986 0.7149 0.0
H393 H 0.48914 0.57839 0.75466 0.0
H394 H 0.55332 0.65962 0.66971 0.0
H395 H 0.56213 0.63609 0.62571 0.0
C396 C 0.48169 0.02128 0.63787 0.0
C397 C 0.52741 0.04052 0.60977 0.0
C398 C 0.6059 0.09075 0.65769 0.0
C399 C 0.55994 0.06886 0.68574 0.0
N400 N 0.456 0.04256 0.69846 0.0
N401 N 0.63403 0.07659 0.59607 0.0
C402 C 0.49823 0.04251 0.67473 0.0
C403 C 0.58982 0.07031 0.62045 0.0
N404 N 0.42278 0.97819 0.6303 0.0
N405 N 0.66381 0.13606 0.66541 0.0
H406 H 0.62541 0.06023 0.56911 0.0
H407 H 0.6788 0.09156 0.60405 0.0
H408 H 0.67508 0.16065 0.69007 0.0
H409 H 0.69794 0.15677 0.64522 0.0
H410 H 0.38893 0.95898 0.65079 0.0
H411 H 0.40981 0.95496 0.6051 0.0
H412 H 0.41135 0.02837 0.69056 0.0
H413 H 0.46799 0.06565 0.72375 0.0
C414 C 0.48566 0.46582 0.95715 0.0
C415 C 0.53297 0.51798 0.93913 0.0
C416 C 0.58363 0.55495 0.99915 0.0
C417 C 0.53066 0.50885 0.01753 0.0
N418 N 0.42634 0.42573 0.01355 0.0
N419 N 0.62729 0.61414 0.94263 0.0
C420 C 0.4805 0.46517 0.99647 0.0
C421 C 0.5823 0.56308 0.96002 0.0
N422 N 0.44587 0.41663 0.9368 0.0
N423 N 0.63575 0.58948 0.01889 0.0
H424 H 0.62994 0.62018 0.91378 0.0
H425 H 0.66021 0.65192 0.95696 0.0
H426 H 0.6388 0.58338 0.04741 0.0
H427 H 0.67748 0.61972 0.00648 0.0
H428 H 0.41396 0.37505 0.94879 0.0
H429 H 0.4492 0.41565 0.90795 0.0
H430 H 0.38669 0.39778 0.99882 0.0
H431 H 0.41893 0.42514 0.04214 0.0
C432 C 0.03695 0.55397 0.2845 0.0
C433 C 0.99381 0.49872 0.26679 0.0
C434 C 0.92642 0.47158 0.32176 0.0
C435 C 0.96924 0.5272 0.33862 0.0
N436 N 0.05601 0.62812 0.3326 0.0
N437 N 0.893 0.40845 0.26697 0.0
C438 C 0.02168 0.57038 0.31889 0.0
C439 C 0.93676 0.45916 0.28462 0.0
N440 N 0.09335 0.59066 0.26913 0.0
N441 N 0.87817 0.42847 0.34221 0.0
H442 H 0.90049 0.39121 0.24263 0.0
H443 H 0.84777 0.3842 0.27593 0.0
H444 H 0.8683 0.43589 0.36921 0.0
H445 H 0.85005 0.38374 0.33354 0.0
H446 H 0.12935 0.6254 0.28372 0.0
H447 H 0.10551 0.58597 0.24222 0.0
H448 H 0.09099 0.664 0.31759 0.0
H449 H 0.0454 0.64189 0.35752 0.0
loop_
_geom_bond_atom_site_label_1
_geom_bond_atom_site_label_2
_geom_bond_distance
_geom_bond_site_symmetry_2
_ccdc_geom_bond_type
Dy0 O4 2.398 . S
Dy0 O5 2.491 . S
Dy0 O6 2.403 . S
Dy0 O7 2.664 . S
Dy0 O11 2.326 . S
Dy0 O15 2.310 . S
Dy0 O16 2.351 1_455 S
C1 O12 1.185 . S
C1 O13 1.355 . S
C2 O4 1.185 . S
C2 O5 1.355 . S
Dy3 O7 2.310 1_655 S
Dy3 O10 2.351 1_655 S
Dy3 O12 2.398 . S
Dy3 O13 2.491 . S
Dy3 O14 2.403 . S
Dy3 O15 2.664 1_655 S
Dy3 O17 2.326 . S
O4 Dy0 2.398 . S
O4 C2 1.185 . S
O5 Dy0 2.491 . S
O5 C2 1.355 . S
O6 Dy0 2.403 . S
O6 C8 1.254 . S
O7 Dy0 2.664 . S
O7 Dy3 2.310 1_455 S
O7 C8 1.268 . S
C8 O6 1.254 . S
C8 O7 1.268 . S
C9 O14 1.254 1_455 S
C9 O15 1.268 . S
O10 Dy3 2.351 1_455 S
O10 C18 1.249 . S
O11 Dy0 2.326 . S
O11 C18 1.267 . S
O12 C1 1.185 . S
O12 Dy3 2.398 . S
O13 C1 1.355 . S
O13 Dy3 2.491 . S
O14 Dy3 2.403 . S
O14 C9 1.254 1_655 S
O15 Dy0 2.310 . S
O15 Dy3 2.664 1_455 S
O15 C9 1.268 . S
O16 Dy0 2.351 1_655 S
O16 C19 1.249 . S
O17 Dy3 2.326 . S
O17 C19 1.267 . S
C18 O10 1.249 . S
C18 O11 1.267 . S
C19 O16 1.249 . S
C19 O17 1.267 . S
Dy20 O24 2.398 . S
Dy20 O25 2.491 . S
Dy20 O26 2.403 . S
Dy20 O27 2.664 1_565 S
Dy20 O31 2.326 . S
Dy20 O35 2.310 1_565 S
Dy20 O36 2.351 1_565 S
C21 O32 1.185 . S
C21 O33 1.355 . S
C22 O24 1.185 . S
C22 O25 1.355 . S
Dy23 O27 2.310 . S
Dy23 O30 2.351 1_545 S
Dy23 O32 2.398 . S
Dy23 O33 2.491 . S
Dy23 O34 2.403 . S
Dy23 O35 2.664 . S
Dy23 O37 2.326 . S
O24 Dy20 2.398 . S
O24 C22 1.185 . S
O25 Dy20 2.491 . S
O25 C22 1.355 . S
O26 Dy20 2.403 . S
O26 C28 1.254 1_565 S
O27 Dy20 2.664 1_545 S
O27 Dy23 2.310 . S
O27 C28 1.268 . S
C28 O26 1.254 1_545 S
C28 O27 1.268 . S
C29 O34 1.254 . S
C29 O35 1.268 . S
O30 Dy23 2.351 1_565 S
O30 C38 1.249 . S
O31 Dy20 2.326 . S
O31 C38 1.267 . S
O32 C21 1.185 . S
O32 Dy23 2.398 . S
O33 C21 1.355 . S
O33 Dy23 2.491 . S
O34 Dy23 2.403 . S
O34 C29 1.254 . S
O35 Dy20 2.310 1_545 S
O35 Dy23 2.664 . S
O35 C29 1.268 . S
O36 Dy20 2.351 1_545 S
O36 C39 1.249 . S
O37 Dy23 2.326 . S
O37 C39 1.267 . S
C38 O30 1.249 . S
C38 O31 1.267 . S
C39 O36 1.249 . S
C39 O37 1.267 . S
Dy40 O44 2.398 . S
Dy40 O45 2.491 . S
Dy40 O46 2.403 . S
Dy40 O47 2.664 . S
Dy40 O51 2.326 . S
Dy40 O55 2.310 . S
Dy40 O56 2.351 . S
C41 O52 1.185 . S
C41 O53 1.355 . S
C42 O44 1.185 . S
C42 O45 1.355 . S
Dy43 O47 2.310 . S
Dy43 O50 2.351 . S
Dy43 O52 2.398 . S
Dy43 O53 2.491 . S
Dy43 O54 2.403 . S
Dy43 O55 2.664 . S
Dy43 O57 2.326 . S
O44 Dy40 2.398 . S
O44 C42 1.185 . S
O45 Dy40 2.491 . S
O45 C42 1.355 . S
O46 Dy40 2.403 . S
O46 C48 1.254 . S
O47 Dy40 2.664 . S
O47 Dy43 2.310 . S
O47 C48 1.268 . S
C48 O46 1.254 . S
C48 O47 1.268 . S
C49 O54 1.254 . S
C49 O55 1.268 . S
O50 Dy43 2.351 . S
O50 C58 1.249 . S
O51 Dy40 2.326 . S
O51 C58 1.267 . S
O52 C41 1.185 . S
O52 Dy43 2.398 . S
O53 C41 1.355 . S
O53 Dy43 2.491 . S
O54 Dy43 2.403 . S
O54 C49 1.254 . S
O55 Dy40 2.310 . S
O55 Dy43 2.664 . S
O55 C49 1.268 . S
O56 Dy40 2.351 . S
O56 C59 1.249 . S
O57 Dy43 2.326 . S
O57 C59 1.267 . S
C58 O50 1.249 . S
C58 O51 1.267 . S
C59 O56 1.249 . S
C59 O57 1.267 . S
O60 Cd61 2.300 . S
O60 C67 1.275 1_545 S
Cd61 O60 2.300 . S
Cd61 O69 2.381 . S
Cd61 O70 2.378 . S
O62 Cd63 2.385 . S
O62 C67 1.255 . S
Cd63 O62 2.385 . S
Cd63 O64 2.317 . S
O64 Cd63 2.317 . S
O64 C65 1.232 . S
C65 O64 1.232 . S
C65 O66 1.218 . S
O66 C65 1.218 . S
C67 O60 1.275 1_565 S
C67 O62 1.255 . S
C68 O69 1.258 . S
C68 O70 1.256 . S
O69 Cd61 2.381 . S
O69 C68 1.258 . S
O70 Cd61 2.378 . S
O70 C68 1.256 . S
O71 Cd72 2.300 . S
O71 C78 1.275 . S
Cd72 O71 2.300 . S
Cd72 O80 2.381 . S
Cd72 O81 2.378 . S
O73 Cd74 2.385 . S
O73 C78 1.255 . S
Cd74 O73 2.385 . S
Cd74 O75 2.317 . S
O75 Cd74 2.317 . S
O75 C76 1.232 . S
C76 O75 1.232 . S
C76 O77 1.218 . S
O77 C76 1.218 . S
C78 O71 1.275 . S
C78 O73 1.255 . S
C79 O80 1.258 . S
C79 O81 1.256 . S
O80 Cd72 2.381 . S
O80 C79 1.258 . S
O81 Cd72 2.378 . S
O81 C79 1.256 . S
O82 Cd83 2.300 . S
O82 C89 1.275 . S
Cd83 O82 2.300 . S
Cd83 O91 2.381 . S
Cd83 O92 2.378 . S
O84 Cd85 2.385 . S
O84 C89 1.255 1_655 S
Cd85 O84 2.385 . S
Cd85 O86 2.317 . S
O86 Cd85 2.317 . S
O86 C87 1.232 . S
C87 O86 1.232 . S
C87 O88 1.218 . S
O88 C87 1.218 . S
C89 O82 1.275 . S
C89 O84 1.255 1_455 S
C90 O91 1.258 . S
C90 O92 1.256 . S
O91 Cd83 2.381 . S
O91 C90 1.258 . S
O92 Cd83 2.378 . S
O92 C90 1.256 . S
O93 Cd94 2.300 . S
O93 C100 1.275 1_455 S
Cd94 O93 2.300 . S
Cd94 O102 2.381 . S
Cd94 O103 2.378 . S
O95 Cd96 2.385 . S
O95 C100 1.255 . S
Cd96 O95 2.385 . S
Cd96 O97 2.317 . S
O97 Cd96 2.317 . S
O97 C98 1.232 . S
C98 O97 1.232 . S
C98 O99 1.218 . S
O99 C98 1.218 . S
C100 O93 1.275 1_655 S
C100 O95 1.255 . S
C101 O102 1.258 . S
C101 O103 1.256 . S
O102 Cd94 2.381 . S
O102 C101 1.258 . S
O103 Cd94 2.378 . S
O103 C101 1.256 . S
O104 Cd105 2.300 1_565 S
O104 C111 1.275 1_565 S
Cd105 O104 2.300 1_545 S
Cd105 O113 2.381 1_545 S
Cd105 O114 2.378 1_545 S
O106 Cd107 2.385 . S
O106 C111 1.255 . S
Cd107 O106 2.385 . S
Cd107 O108 2.317 . S
O108 Cd107 2.317 . S
O108 C109 1.232 . S
C109 O108 1.232 . S
C109 O110 1.218 . S
O110 C109 1.218 . S
C111 O104 1.275 1_545 S
C111 O106 1.255 . S
C112 O113 1.258 . S
C112 O114 1.256 . S
O113 Cd105 2.381 1_565 S
O113 C112 1.258 . S
O114 Cd105 2.378 1_565 S
O114 C112 1.256 . S
O115 Cd116 2.300 . S
O115 C122 1.275 . S
Cd116 O115 2.300 . S
Cd116 O124 2.381 . S
Cd116 O125 2.378 . S
O117 Cd118 2.385 . S
O117 C122 1.255 . S
Cd118 O117 2.385 . S
Cd118 O119 2.317 . S
O119 Cd118 2.317 . S
O119 C120 1.232 . S
C120 O119 1.232 . S
C120 O121 1.218 . S
O121 C120 1.218 . S
C122 O115 1.275 . S
C122 O117 1.255 . S
C123 O124 1.258 . S
C123 O125 1.256 . S
O124 Cd116 2.381 . S
O124 C123 1.258 . S
O125 Cd116 2.378 . S
O125 C123 1.256 . S
C126 C127 1.363 . S
C126 C132 1.379 . S
C126 N134 1.356 . S
C127 C126 1.363 . S
C127 C133 1.363 . S
C128 C129 1.363 . S
C128 C133 1.379 . S
C128 N135 1.356 . S
C129 C128 1.363 . S
C129 C132 1.363 . S
N130 C132 1.356 . S
N130 H142 0.984 . S
N130 H143 0.985 . S
N131 C133 1.356 . S
N131 H136 0.984 . S
N131 H137 0.985 . S
C132 C126 1.379 . S
C132 C129 1.363 . S
C132 N130 1.356 . S
C133 C127 1.363 . S
C133 C128 1.379 . S
C133 N131 1.356 . S
N134 C126 1.356 . S
N134 H140 0.984 . S
N134 H141 0.984 . S
N135 C128 1.356 . S
N135 H138 0.984 . S
N135 H139 0.985 . S
H136 N131 0.984 . S
H137 N131 0.985 . S
H138 N135 0.984 . S
H139 N135 0.985 . S
H140 N134 0.984 . S
H141 N134 0.984 . S
H142 N130 0.984 . S
H143 N130 0.985 . S
C144 C145 1.363 . S
C144 C150 1.379 . S
C144 N152 1.356 . S
C145 C144 1.363 . S
C145 C151 1.363 . S
C146 C147 1.363 . S
C146 C151 1.379 . S
C146 N153 1.356 . S
C147 C146 1.363 . S
C147 C150 1.363 . S
N148 C150 1.356 . S
N148 H160 0.984 . S
N148 H161 0.985 . S
N149 C151 1.356 . S
N149 H154 0.984 . S
N149 H155 0.985 . S
C150 C144 1.379 . S
C150 C147 1.363 . S
C150 N148 1.356 . S
C151 C145 1.363 . S
C151 C146 1.379 . S
C151 N149 1.356 . S
N152 C144 1.356 . S
N152 H158 0.984 . S
N152 H159 0.984 . S
N153 C146 1.356 . S
N153 H156 0.984 . S
N153 H157 0.985 . S
H154 N149 0.984 . S
H155 N149 0.985 . S
H156 N153 0.984 . S
H157 N153 0.985 . S
H158 N152 0.984 . S
H159 N152 0.984 . S
H160 N148 0.984 . S
H161 N148 0.985 . S
C162 C163 1.363 . S
C162 C168 1.379 . S
C162 N170 1.356 . S
C163 C162 1.363 . S
C163 C169 1.363 . S
C164 C165 1.363 . S
C164 C169 1.379 . S
C164 N171 1.356 . S
C165 C164 1.363 . S
C165 C168 1.363 . S
N166 C168 1.356 . S
N166 H178 0.984 . S
N166 H179 0.985 . S
N167 C169 1.356 . S
N167 H172 0.984 . S
N167 H173 0.985 . S
C168 C162 1.379 . S
C168 C165 1.363 . S
C168 N166 1.356 . S
C169 C163 1.363 . S
C169 C164 1.379 . S
C169 N167 1.356 . S
N170 C162 1.356 . S
N170 H176 0.984 . S
N170 H177 0.984 . S
N171 C164 1.356 . S
N171 H174 0.984 . S
N171 H175 0.985 . S
H172 N167 0.984 . S
H173 N167 0.985 . S
H174 N171 0.984 . S
H175 N171 0.985 . S
H176 N170 0.984 . S
H177 N170 0.984 . S
H178 N166 0.984 . S
H179 N166 0.985 . S
C180 C181 1.363 . S
C180 C186 1.379 . S
C180 N188 1.356 . S
C181 C180 1.363 . S
C181 C187 1.363 . S
C182 C183 1.363 . S
C182 C187 1.379 . S
C182 N189 1.356 . S
C183 C182 1.363 . S
C183 C186 1.363 . S
N184 C186 1.356 . S
N184 H196 0.984 . S
N184 H197 0.985 . S
N185 C187 1.356 . S
N185 H190 0.984 . S
N185 H191 0.985 . S
C186 C180 1.379 . S
C186 C183 1.363 . S
C186 N184 1.356 . S
C187 C181 1.363 . S
C187 C182 1.379 . S
C187 N185 1.356 . S
N188 C180 1.356 . S
N188 H194 0.984 . S
N188 H195 0.984 . S
N189 C182 1.356 . S
N189 H192 0.984 . S
N189 H193 0.985 . S
H190 N185 0.984 . S
H191 N185 0.985 . S
H192 N189 0.984 . S
H193 N189 0.985 . S
H194 N188 0.984 . S
H195 N188 0.984 . S
H196 N184 0.984 . S
H197 N184 0.985 . S
C198 C199 1.363 . S
C198 C204 1.379 . S
C198 N206 1.356 . S
C199 C198 1.363 . S
C199 C205 1.363 . S
C200 C201 1.363 . S
C200 C205 1.379 . S
C200 N207 1.356 . S
C201 C200 1.363 . S
C201 C204 1.363 . S
N202 C204 1.356 . S
N202 H214 0.984 . S
N202 H215 0.985 . S
N203 C205 1.356 . S
N203 H208 0.984 . S
N203 H209 0.985 . S
C204 C198 1.379 . S
C204 C201 1.363 . S
C204 N202 1.356 . S
C205 C199 1.363 . S
C205 C200 1.379 . S
C205 N203 1.356 . S
N206 C198 1.356 . S
N206 H212 0.984 . S
N206 H213 0.984 . S
N207 C200 1.356 . S
N207 H210 0.984 . S
N207 H211 0.985 . S
H208 N203 0.984 . S
H209 N203 0.985 . S
H210 N207 0.984 . S
H211 N207 0.985 . S
H212 N206 0.984 . S
H213 N206 0.984 . S
H214 N202 0.984 . S
H215 N202 0.985 . S
C216 C217 1.363 . S
C216 C222 1.379 . S
C216 N224 1.356 . S
C217 C216 1.363 . S
C217 C223 1.363 . S
C218 C219 1.363 . S
C218 C223 1.379 . S
C218 N225 1.356 . S
C219 C218 1.363 . S
C219 C222 1.363 . S
N220 C222 1.356 . S
N220 H232 0.984 . S
N220 H233 0.985 . S
N221 C223 1.356 . S
N221 H226 0.984 . S
N221 H227 0.985 . S
C222 C216 1.379 . S
C222 C219 1.363 . S
C222 N220 1.356 . S
C223 C217 1.363 . S
C223 C218 1.379 . S
C223 N221 1.356 . S
N224 C216 1.356 . S
N224 H230 0.984 . S
N224 H231 0.984 . S
N225 C218 1.356 . S
N225 H228 0.984 . S
N225 H229 0.985 . S
H226 N221 0.984 . S
H227 N221 0.985 . S
H228 N225 0.984 . S
H229 N225 0.985 . S
H230 N224 0.984 . S
H231 N224 0.984 . S
H232 N220 0.984 . S
H233 N220 0.985 . S
C234 C235 1.363 . S
C234 C240 1.379 . S
C234 N242 1.356 . S
C235 C234 1.363 . S
C235 C241 1.363 . S
C236 C237 1.363 . S
C236 C241 1.379 . S
C236 N243 1.356 . S
C237 C236 1.363 . S
C237 C240 1.363 . S
N238 C240 1.356 . S
N238 H250 0.984 . S
N238 H251 0.985 . S
N239 C241 1.356 . S
N239 H244 0.984 . S
N239 H245 0.985 . S
C240 C234 1.379 . S
C240 C237 1.363 . S
C240 N238 1.356 . S
C241 C235 1.363 . S
C241 C236 1.379 . S
C241 N239 1.356 . S
N242 C234 1.356 . S
N242 H248 0.984 . S
N242 H249 0.984 . S
N243 C236 1.356 . S
N243 H246 0.984 . S
N243 H247 0.985 . S
H244 N239 0.984 . S
H245 N239 0.985 . S
H246 N243 0.984 . S
H247 N243 0.985 . S
H248 N242 0.984 . S
H249 N242 0.984 . S
H250 N238 0.984 . S
H251 N238 0.985 . S
C252 C253 1.363 . S
C252 C258 1.379 . S
C252 N260 1.356 . S
C253 C252 1.363 . S
C253 C259 1.363 . S
C254 C255 1.363 . S
C254 C259 1.379 . S
C254 N261 1.356 . S
C255 C254 1.363 . S
C255 C258 1.363 . S
N256 C258 1.356 . S
N256 H268 0.984 . S
N256 H269 0.985 . S
N257 C259 1.356 . S
N257 H262 0.984 . S
N257 H263 0.985 . S
C258 C252 1.379 . S
C258 C255 1.363 . S
C258 N256 1.356 . S
C259 C253 1.363 . S
C259 C254 1.379 . S
C259 N257 1.356 . S
N260 C252 1.356 . S
N260 H266 0.984 . S
N260 H267 0.984 . S
N261 C254 1.356 . S
N261 H264 0.984 . S
N261 H265 0.985 . S
H262 N257 0.984 . S
H263 N257 0.985 . S
H264 N261 0.984 . S
H265 N261 0.985 . S
H266 N260 0.984 . S
H267 N260 0.984 . S
H268 N256 0.984 . S
H269 N256 0.985 . S
C270 C271 1.363 . S
C270 C276 1.379 . S
C270 N278 1.356 . S
C271 C270 1.363 . S
C271 C277 1.363 . S
C272 C273 1.363 . S
C272 C277 1.379 . S
C272 N279 1.356 . S
C273 C272 1.363 . S
C273 C276 1.363 . S
N274 C276 1.356 . S
N274 H286 0.984 . S
N274 H287 0.985 . S
N275 C277 1.356 . S
N275 H280 0.984 . S
N275 H281 0.985 . S
C276 C270 1.379 . S
C276 C273 1.363 . S
C276 N274 1.356 . S
C277 C271 1.363 . S
C277 C272 1.379 . S
C277 N275 1.356 . S
N278 C270 1.356 . S
N278 H284 0.984 . S
N278 H285 0.984 . S
N279 C272 1.356 . S
N279 H282 0.984 . S
N279 H283 0.985 . S
H280 N275 0.984 . S
H281 N275 0.985 . S
H282 N279 0.984 . S
H283 N279 0.985 . S
H284 N278 0.984 . S
H285 N278 0.984 . S
H286 N274 0.984 . S
H287 N274 0.985 . S
C288 C289 1.363 . S
C288 C294 1.379 . S
C288 N296 1.356 . S
C289 C288 1.363 . S
C289 C295 1.363 . S
C290 C291 1.363 . S
C290 C295 1.379 . S
C290 N297 1.356 . S
C291 C290 1.363 . S
C291 C294 1.363 . S
N292 C294 1.356 . S
N292 H304 0.984 . S
N292 H305 0.985 . S
N293 C295 1.356 . S
N293 H298 0.984 . S
N293 H299 0.985 . S
C294 C288 1.379 . S
C294 C291 1.363 . S
C294 N292 1.356 . S
C295 C289 1.363 . S
C295 C290 1.379 . S
C295 N293 1.356 . S
N296 C288 1.356 . S
N296 H302 0.984 . S
N296 H303 0.984 . S
N297 C290 1.356 . S
N297 H300 0.984 . S
N297 H301 0.985 . S
H298 N293 0.984 . S
H299 N293 0.985 . S
H300 N297 0.984 . S
H301 N297 0.985 . S
H302 N296 0.984 . S
H303 N296 0.984 . S
H304 N292 0.984 . S
H305 N292 0.985 . S
C306 C307 1.363 . S
C306 C312 1.379 . S
C306 N314 1.356 . S
C307 C306 1.363 . S
C307 C313 1.363 . S
C308 C309 1.363 . S
C308 C313 1.379 . S
C308 N315 1.356 . S
C309 C308 1.363 . S
C309 C312 1.363 . S
N310 C312 1.356 . S
N310 H322 0.984 . S
N310 H323 0.985 . S
N311 C313 1.356 . S
N311 H316 0.984 . S
N311 H317 0.985 . S
C312 C306 1.379 . S
C312 C309 1.363 . S
C312 N310 1.356 . S
C313 C307 1.363 . S
C313 C308 1.379 . S
C313 N311 1.356 . S
N314 C306 1.356 . S
N314 H320 0.984 . S
N314 H321 0.984 . S
N315 C308 1.356 . S
N315 H318 0.984 . S
N315 H319 0.985 . S
H316 N311 0.984 . S
H317 N311 0.985 . S
H318 N315 0.984 . S
H319 N315 0.985 . S
H320 N314 0.984 . S
H321 N314 0.984 . S
H322 N310 0.984 . S
H323 N310 0.985 . S
C324 C325 1.363 . S
C324 C330 1.379 . S
C324 N332 1.356 . S
C325 C324 1.363 . S
C325 C331 1.363 . S
C326 C327 1.363 . S
C326 C331 1.379 . S
C326 N333 1.356 . S
C327 C326 1.363 . S
C327 C330 1.363 . S
N328 C330 1.356 . S
N328 H340 0.984 . S
N328 H341 0.985 . S
N329 C331 1.356 . S
N329 H334 0.984 . S
N329 H335 0.985 . S
C330 C324 1.379 . S
C330 C327 1.363 . S
C330 N328 1.356 . S
C331 C325 1.363 . S
C331 C326 1.379 . S
C331 N329 1.356 . S
N332 C324 1.356 . S
N332 H338 0.984 . S
N332 H339 0.984 . S
N333 C326 1.356 . S
N333 H336 0.984 . S
N333 H337 0.985 . S
H334 N329 0.984 . S
H335 N329 0.985 . S
H336 N333 0.984 . S
H337 N333 0.985 . S
H338 N332 0.984 . S
H339 N332 0.984 . S
H340 N328 0.984 . S
H341 N328 0.985 . S
C342 C343 1.363 . S
C342 C348 1.379 1_554 S
C342 N350 1.356 . S
C343 C342 1.363 . S
C343 C349 1.363 . S
C344 C345 1.363 1_554 S
C344 C349 1.379 . S
C344 N351 1.356 1_554 S
C345 C344 1.363 1_556 S
C345 C348 1.363 . S
N346 C348 1.356 . S
N346 H358 0.984 . S
N346 H359 0.985 . S
N347 C349 1.356 . S
N347 H352 0.984 . S
N347 H353 0.985 . S
C348 C342 1.379 1_556 S
C348 C345 1.363 . S
C348 N346 1.356 . S
C349 C343 1.363 . S
C349 C344 1.379 . S
C349 N347 1.356 . S
N350 C342 1.356 . S
N350 H356 0.984 . S
N350 H357 0.984 . S
N351 C344 1.356 1_556 S
N351 H354 0.984 . S
N351 H355 0.985 . S
H352 N347 0.984 . S
H353 N347 0.985 . S
H354 N351 0.984 . S
H355 N351 0.985 . S
H356 N350 0.984 . S
H357 N350 0.984 . S
H358 N346 0.984 . S
H359 N346 0.985 . S
C360 C361 1.363 . S
C360 C366 1.379 . S
C360 N368 1.356 . S
C361 C360 1.363 . S
C361 C367 1.363 1_545 S
C362 C363 1.363 . S
C362 C367 1.379 . S
C362 N369 1.356 . S
C363 C362 1.363 . S
C363 C366 1.363 1_565 S
N364 C366 1.356 . S
N364 H376 0.984 . S
N364 H377 0.985 . S
N365 C367 1.356 . S
N365 H370 0.984 . S
N365 H371 0.985 . S
C366 C360 1.379 . S
C366 C363 1.363 1_545 S
C366 N364 1.356 . S
C367 C361 1.363 1_565 S
C367 C362 1.379 . S
C367 N365 1.356 . S
N368 C360 1.356 . S
N368 H374 0.984 . S
N368 H375 0.984 . S
N369 C362 1.356 . S
N369 H372 0.984 . S
N369 H373 0.985 . S
H370 N365 0.984 . S
H371 N365 0.985 . S
H372 N369 0.984 . S
H373 N369 0.985 . S
H374 N368 0.984 . S
H375 N368 0.984 . S
H376 N364 0.984 . S
H377 N364 0.985 . S
C378 C379 1.363 . S
C378 C384 1.379 . S
C378 N386 1.356 . S
C379 C378 1.363 . S
C379 C385 1.363 . S
C380 C381 1.363 . S
C380 C385 1.379 . S
C380 N387 1.356 . S
C381 C380 1.363 . S
C381 C384 1.363 . S
N382 C384 1.356 . S
N382 H394 0.984 . S
N382 H395 0.985 . S
N383 C385 1.356 . S
N383 H388 0.984 . S
N383 H389 0.985 . S
C384 C378 1.379 . S
C384 C381 1.363 . S
C384 N382 1.356 . S
C385 C379 1.363 . S
C385 C380 1.379 . S
C385 N383 1.356 . S
N386 C378 1.356 . S
N386 H392 0.984 . S
N386 H393 0.984 . S
N387 C380 1.356 . S
N387 H390 0.984 . S
N387 H391 0.985 . S
H388 N383 0.984 . S
H389 N383 0.985 . S
H390 N387 0.984 . S
H391 N387 0.985 . S
H392 N386 0.984 . S
H393 N386 0.984 . S
H394 N382 0.984 . S
H395 N382 0.985 . S
C396 C397 1.363 1_565 S
C396 C402 1.379 1_565 S
C396 N404 1.356 . S
C397 C396 1.363 1_545 S
C397 C403 1.363 . S
C398 C399 1.363 . S
C398 C403 1.379 . S
C398 N405 1.356 . S
C399 C398 1.363 . S
C399 C402 1.363 . S
N400 C402 1.356 1_565 S
N400 H412 0.984 . S
N400 H413 0.985 . S
N401 C403 1.356 . S
N401 H406 0.984 . S
N401 H407 0.985 . S
C402 C396 1.379 1_545 S
C402 C399 1.363 . S
C402 N400 1.356 1_545 S
C403 C397 1.363 . S
C403 C398 1.379 . S
C403 N401 1.356 . S
N404 C396 1.356 . S
N404 H410 0.984 . S
N404 H411 0.984 . S
N405 C398 1.356 . S
N405 H408 0.984 . S
N405 H409 0.985 . S
H406 N401 0.984 . S
H407 N401 0.985 . S
H408 N405 0.984 . S
H409 N405 0.985 . S
H410 N404 0.984 . S
H411 N404 0.984 . S
H412 N400 0.984 . S
H413 N400 0.985 . S
C414 C415 1.363 . S
C414 C420 1.379 . S
C414 N422 1.356 . S
C415 C414 1.363 . S
C415 C421 1.363 . S
C416 C417 1.363 . S
C416 C421 1.379 1_554 S
C416 N423 1.356 . S
C417 C416 1.363 . S
C417 C420 1.363 1_554 S
N418 C420 1.356 1_554 S
N418 H430 0.984 . S
N418 H431 0.985 . S
N419 C421 1.356 . S
N419 H424 0.984 . S
N419 H425 0.985 . S
C420 C414 1.379 . S
C420 C417 1.363 1_556 S
C420 N418 1.356 1_556 S
C421 C415 1.363 . S
C421 C416 1.379 1_556 S
C421 N419 1.356 . S
N422 C414 1.356 . S
N422 H428 0.984 . S
N422 H429 0.984 . S
N423 C416 1.356 . S
N423 H426 0.984 . S
N423 H427 0.985 . S
H424 N419 0.984 . S
H425 N419 0.985 . S
H426 N423 0.984 . S
H427 N423 0.985 . S
H428 N422 0.984 . S
H429 N422 0.984 . S
H430 N418 0.984 . S
H431 N418 0.985 . S
C432 C433 1.363 . S
C432 C438 1.379 . S
C432 N440 1.356 . S
C433 C432 1.363 . S
C433 C439 1.363 1_455 S
C434 C435 1.363 . S
C434 C439 1.379 . S
C434 N441 1.356 . S
C435 C434 1.363 . S
C435 C438 1.363 1_655 S
N436 C438 1.356 . S
N436 H448 0.984 . S
N436 H449 0.985 . S
N437 C439 1.356 . S
N437 H442 0.984 . S
N437 H443 0.985 . S
C438 C432 1.379 . S
C438 C435 1.363 1_455 S
C438 N436 1.356 . S
C439 C433 1.363 1_655 S
C439 C434 1.379 . S
C439 N437 1.356 . S
N440 C432 1.356 . S
N440 H446 0.984 . S
N440 H447 0.984 . S
N441 C434 1.356 . S
N441 H444 0.984 . S
N441 H445 0.985 . S
H442 N437 0.984 . S
H443 N437 0.985 . S
H444 N441 0.984 . S
H445 N441 0.985 . S
H446 N440 0.984 . S
H447 N440 0.984 . S
H448 N436 0.984 . S
H449 N436 0.985 . S
C127 C2 1.179 . S
C129 C120 1.013 . S
C145 C21 1.126 . S
C147 C98 1.004 . S
C163 C42 1.020 . S
C165 C112 0.999 . S
C181 C1 0.975 . S
C183 C123 0.950 . S
C201 C101 0.998 . S
C199 C22 1.019 . S
C219 C109 1.003 . S
C217 C41 1.124 . S
C235 C38 2.018 . S
C237 C76 1.739 . S
C253 C59 2.078 . S
C255 C87 1.773 . S
C271 C18 2.017 . S
C273 C65 1.738 . S
C291 C79 1.822 . S
C289 C39 1.889 . S
C309 C90 1.775 . S
C307 C58 1.855 . S
C325 C19 1.889 . S
C327 C68 1.822 . S
C345 C89 1.502 . S
C343 C9 1.510 . S
C361 C29 1.541 . S
C363 C67 1.511 . S
C379 C49 1.541 . S
C381 C78 1.509 . S
C399 C111 1.381 . S
C397 C28 1.416 . S
C417 C122 1.370 . S
C415 C48 1.433 . S
C433 C8 1.418 . S
C435 C100 1.381 . S
