# Generated by pormake.
# Topology llj, (12,3)-cn, num edge types: 1
# Building blocks:
#     Node 0, Type 0, BuildingBlock: QEWDON_clean_sbu_0, # of connection points: 12
#     Node 1, Type 0, BuildingBlock: QEWDON_clean_sbu_0, # of connection points: 12
#     Node 2, Type 1, BuildingBlock: WUSLED_clean_sbu_0, # of connection points: 3
#     Node 3, Type 1, BuildingBlock: WUSLED_clean_sbu_0, # of connection points: 3
#     Node 4, Type 1, BuildingBlock: WUSLED_clean_sbu_0, # of connection points: 3
#     Node 5, Type 1, BuildingBlock: WUSLED_clean_sbu_0, # of connection points: 3
#     Node 6, Type 1, BuildingBlock: WUSLED_clean_sbu_0, # of connection points: 3
#     Node 7, Type 1, BuildingBlock: WUSLED_clean_sbu_0, # of connection points: 3
#     Node 8, Type 1, BuildingBlock: WUSLED_clean_sbu_0, # of connection points: 3
#     Node 9, Type 1, BuildingBlock: WUSLED_clean_sbu_0, # of connection points: 3
#     Edge 10, Type (0, 1), BuildingBlock: UVAHIK_clean_linker_0, # of connection points: 2
#     Edge 11, Type (0, 1), BuildingBlock: UVAHIK_clean_linker_0, # of connection points: 2
#     Edge 12, Type (0, 1), BuildingBlock: UVAHIK_clean_linker_0, # of connection points: 2
#     Edge 13, Type (0, 1), BuildingBlock: UVAHIK_clean_linker_0, # of connection points: 2
#     Edge 14, Type (0, 1), BuildingBlock: UVAHIK_clean_linker_0, # of connection points: 2
#     Edge 15, Type (0, 1), BuildingBlock: UVAHIK_clean_linker_0, # of connection points: 2
#     Edge 16, Type (0, 1), BuildingBlock: UVAHIK_clean_linker_0, # of connection points: 2
#     Edge 17, Type (0, 1), BuildingBlock: UVAHIK_clean_linker_0, # of connection points: 2
#     Edge 18, Type (0, 1), BuildingBlock: UVAHIK_clean_linker_0, # of connection points: 2
#     Edge 19, Type (0, 1), BuildingBlock: UVAHIK_clean_linker_0, # of connection points: 2
#     Edge 20, Type (0, 1), BuildingBlock: UVAHIK_clean_linker_0, # of connection points: 2
#     Edge 21, Type (0, 1), BuildingBlock: UVAHIK_clean_linker_0, # of connection points: 2
#     Edge 22, Type (0, 1), BuildingBlock: UVAHIK_clean_linker_0, # of connection points: 2
#     Edge 23, Type (0, 1), BuildingBlock: UVAHIK_clean_linker_0, # of connection points: 2
#     Edge 24, Type (0, 1), BuildingBlock: UVAHIK_clean_linker_0, # of connection points: 2
#     Edge 25, Type (0, 1), BuildingBlock: UVAHIK_clean_linker_0, # of connection points: 2
#     Edge 26, Type (0, 1), BuildingBlock: UVAHIK_clean_linker_0, # of connection points: 2
#     Edge 27, Type (0, 1), BuildingBlock: UVAHIK_clean_linker_0, # of connection points: 2
#     Edge 28, Type (0, 1), BuildingBlock: UVAHIK_clean_linker_0, # of connection points: 2
#     Edge 29, Type (0, 1), BuildingBlock: UVAHIK_clean_linker_0, # of connection points: 2
#     Edge 30, Type (0, 1), BuildingBlock: UVAHIK_clean_linker_0, # of connection points: 2
#     Edge 31, Type (0, 1), BuildingBlock: UVAHIK_clean_linker_0, # of connection points: 2
#     Edge 32, Type (0, 1), BuildingBlock: UVAHIK_clean_linker_0, # of connection points: 2
#     Edge 33, Type (0, 1), BuildingBlock: UVAHIK_clean_linker_0, # of connection points: 2
# Relax obj value: 0.010
# Max RMSD: 0.046
# Mean RMSD: 0.044
data_MOF--net-llj--node1-QEWDON_clean_sbu_0--node2-WUSLED_clean_sbu_0--edge1-UVAHIK_clean_linker_0
_symmetry_space_group_name_H-M    P1
_symmetry_Int_Tables_number       1
_symmetry_cell_setting            triclinic
loop_
_symmetry_equiv_pos_as_xyz
'x, y, z'
_cell_length_a     57.901822
_cell_length_b     57.902722
_cell_length_c     40.281464
_cell_angle_alpha  90.244666
_cell_angle_beta   90.188906
_cell_angle_gamma 90.075887
loop_
_atom_site_label
_atom_site_type_symbol
_atom_site_fract_x
_atom_site_fract_y
_atom_site_fract_z
_atom_type_partial_charge
Zn0 Zn 0.95976 0.05117 0.98482 0.0
Zn1 Zn 0.95986 0.0474 0.06367 0.0
O2 O 0.9808 0.04585 0.02447 0.0
H3 H 0.99486 0.03694 0.02333 0.0
C4 C 0.92954 0.00612 0.94576 0.0
O5 O 0.92709 0.01416 0.9761 0.0
Zn6 Zn 0.03775 0.95246 0.06419 0.0
Zn7 Zn 0.04231 0.94731 0.98517 0.0
O8 O 0.01964 0.9549 0.02178 0.0
H9 H 0.00641 0.9648 0.01838 0.0
Zn10 Zn 0.94932 0.9675 0.98235 0.0
O11 O 0.96123 0.98486 0.0226 0.0
Zn12 Zn 0.9562 0.96376 0.06115 0.0
H13 H 0.97302 0.99669 0.0215 0.0
Zn14 Zn 0.05045 0.04043 0.99333 0.0
O15 O 0.0384 0.01952 0.0295 0.0
H16 H 0.02766 0.00698 0.02566 0.0
Zn17 Zn 0.04179 0.0375 0.07167 0.0
C18 C 0.06436 0.0035 0.94823 0.0
O19 O 0.06124 0.99131 0.97528 0.0
O20 O 0.93031 0.0689 0.99758 0.0
O21 O 0.93159 0.06703 0.05271 0.0
O22 O 0.0707 0.92969 0.00232 0.0
O23 O 0.0662 0.93214 0.05713 0.0
O24 O 0.92933 0.93939 0.99423 0.0
O25 O 0.93335 0.93806 0.04914 0.0
C26 C 0.9987 0.05949 0.10531 0.0
O27 O 0.07033 0.0672 0.01131 0.0
O28 O 0.06514 0.064 0.06585 0.0
O29 O 0.02892 0.93745 0.93931 0.0
C30 C 0.922 0.07395 0.02594 0.0
O31 O 0.97517 0.06049 0.94038 0.0
C32 C 0.99598 0.94135 0.09816 0.0
O33 O 0.93896 0.98653 0.94152 0.0
C34 C 0.07723 0.92486 0.03173 0.0
O35 O 0.06067 0.02512 0.94915 0.0
C36 C 0.94518 0.00395 0.10048 0.0
O37 O 0.97694 0.06161 0.10228 0.0
O38 O 0.00951 0.04864 0.08263 0.0
C39 C 0.92456 0.93032 0.02218 0.0
O40 O 0.01772 0.93873 0.10019 0.0
O41 O 0.9878 0.9518 0.07307 0.0
C42 C 0.05184 0.99411 0.10477 0.0
O43 O 0.94453 0.982 0.10031 0.0
O44 O 0.95196 0.0143 0.07448 0.0
C45 C 0.07458 0.07381 0.04093 0.0
O46 O 0.05237 0.01597 0.10789 0.0
O47 O 0.04547 0.98532 0.07724 0.0
C48 C 0.01686 0.91912 0.9379 0.0
O49 O 0.01327 0.90745 0.96533 0.0
C50 C 0.99705 0.06106 0.93824 0.0
O51 O 0.00953 0.05494 0.96401 0.0
Zn52 Zn 0.46006 0.55586 0.48364 0.0
Zn53 Zn 0.46068 0.55064 0.56242 0.0
O54 O 0.48108 0.54858 0.5226 0.0
H55 H 0.49501 0.53954 0.52078 0.0
C56 C 0.43251 0.49967 0.4473 0.0
O57 O 0.43607 0.51173 0.47454 0.0
Zn58 Zn 0.53636 0.45304 0.56683 0.0
Zn59 Zn 0.53917 0.4507 0.48686 0.0
O60 O 0.51762 0.45693 0.52537 0.0
H61 H 0.50327 0.4653 0.52348 0.0
Zn62 Zn 0.44832 0.4625 0.49058 0.0
O63 O 0.45979 0.48353 0.52725 0.0
Zn64 Zn 0.45513 0.46597 0.56929 0.0
H65 H 0.47103 0.49567 0.524 0.0
Zn66 Zn 0.55175 0.53601 0.49118 0.0
O67 O 0.53819 0.51786 0.52936 0.0
H68 H 0.52717 0.5054 0.52684 0.0
Zn69 Zn 0.54223 0.53754 0.5698 0.0
C70 C 0.58265 0.50642 0.45411 0.0
O71 O 0.59339 0.50714 0.48289 0.0
O72 O 0.43051 0.573 0.49778 0.0
O73 O 0.43264 0.57081 0.55285 0.0
O74 O 0.56836 0.43316 0.50146 0.0
O75 O 0.56528 0.43406 0.55659 0.0
O76 O 0.42917 0.43518 0.50808 0.0
O77 O 0.43198 0.43962 0.5629 0.0
C78 C 0.5 0.56038 0.60415 0.0
O79 O 0.57131 0.56394 0.50628 0.0
O80 O 0.56517 0.56388 0.56078 0.0
O81 O 0.52426 0.44105 0.44182 0.0
C82 C 0.42266 0.5779 0.52647 0.0
O83 O 0.4761 0.56837 0.44149 0.0
C84 C 0.49522 0.43896 0.60127 0.0
O85 O 0.43671 0.47813 0.4474 0.0
C86 C 0.57579 0.42773 0.53022 0.0
O87 O 0.56381 0.5174 0.45076 0.0
C88 C 0.44537 0.50977 0.60148 0.0
O89 O 0.47841 0.56377 0.60109 0.0
O90 O 0.51031 0.54947 0.58104 0.0
C91 C 0.42391 0.42905 0.53746 0.0
O92 O 0.51691 0.43573 0.60033 0.0
O93 O 0.48662 0.45373 0.5815 0.0
C94 C 0.554 0.49579 0.60688 0.0
O95 O 0.44439 0.488 0.60491 0.0
O96 O 0.45209 0.51804 0.57398 0.0
C97 C 0.57497 0.57231 0.53514 0.0
O98 O 0.55481 0.51775 0.60672 0.0
O99 O 0.54399 0.48556 0.58271 0.0
C100 C 0.51574 0.42087 0.43932 0.0
O101 O 0.51667 0.40711 0.46515 0.0
C102 C 0.4845 0.5886 0.44365 0.0
O103 O 0.48253 0.59995 0.47183 0.0
C104 C 0.35632 0.30123 0.92149 0.0
C105 C 0.36187 0.32487 0.92096 0.0
C106 C 0.37564 0.32132 0.86413 0.0
C107 C 0.37129 0.33483 0.89249 0.0
C108 C 0.37026 0.29763 0.86479 0.0
C109 C 0.36058 0.28772 0.89317 0.0
U110 U 0.35505 0.29348 0.0152 0.0
O111 O 0.32588 0.29203 0.05 0.0
O112 O 0.34962 0.26263 0.04589 0.0
C113 C 0.33034 0.27065 0.05868 0.0
C114 C 0.34641 0.29041 0.95138 0.0
C115 C 0.31042 0.25486 0.05812 0.0
C116 C 0.28533 0.2275 0.02959 0.0
C117 C 0.30461 0.24213 0.02957 0.0
C118 C 0.27743 0.23833 0.08659 0.0
C119 C 0.27145 0.22546 0.0581 0.0
C120 C 0.29674 0.25284 0.08657 0.0
C121 C 0.39849 0.32729 0.06792 0.0
C122 C 0.3974 0.32742 0.1282 0.0
C123 C 0.42761 0.34822 0.09942 0.0
C124 C 0.41832 0.34114 0.06897 0.0
C125 C 0.41719 0.34158 0.12943 0.0
C126 C 0.38813 0.32034 0.09768 0.0
C127 C 0.38869 0.32053 0.03564 0.0
O128 O 0.36 0.27589 0.96707 0.0
O129 O 0.33509 0.30427 0.9715 0.0
O130 O 0.36761 0.3279 0.02982 0.0
O131 O 0.39182 0.29885 0.02699 0.0
H132 H 0.35903 0.33566 0.94259 0.0
H133 H 0.37558 0.35305 0.89289 0.0
H134 H 0.37332 0.28683 0.84324 0.0
H135 H 0.35649 0.26945 0.89306 0.0
H136 H 0.28143 0.21766 0.00735 0.0
H137 H 0.31494 0.24353 0.00729 0.0
H138 H 0.26697 0.23754 0.10878 0.0
H139 H 0.30089 0.26266 0.10877 0.0
H140 H 0.38881 0.32219 0.1508 0.0
H141 H 0.44306 0.35878 0.09945 0.0
H142 H 0.42658 0.34657 0.04619 0.0
H143 H 0.37277 0.30963 0.09726 0.0
C144 C 0.70517 0.36858 0.11826 0.0
C145 C 0.69265 0.38901 0.11338 0.0
C146 C 0.68661 0.39259 0.17299 0.0
C147 C 0.68349 0.40095 0.14052 0.0
C148 C 0.6994 0.37219 0.17767 0.0
C149 C 0.70859 0.3603 0.1505 0.0
U150 U 0.70816 0.35803 0.0254 0.0
O151 O 0.73754 0.34801 0.99386 0.0
O152 O 0.7069 0.32574 0.99672 0.0
C153 C 0.72829 0.3279 0.98636 0.0
C154 C 0.71405 0.35543 0.08985 0.0
C155 C 0.74312 0.30777 0.99221 0.0
C156 C 0.75683 0.27714 0.0282 0.0
C157 C 0.74323 0.29673 0.02314 0.0
C158 C 0.77088 0.27984 0.97173 0.0
C159 C 0.77074 0.26835 0.00249 0.0
C160 C 0.75714 0.29935 0.96665 0.0
C161 C 0.67385 0.39619 0.96679 0.0
C162 C 0.67138 0.38763 0.9078 0.0
C163 C 0.65279 0.42179 0.93013 0.0
C164 C 0.66063 0.4161 0.96189 0.0
C165 C 0.65803 0.4076 0.90272 0.0
C166 C 0.67927 0.38199 0.9396 0.0
C167 C 0.68151 0.39018 0.00039 0.0
O168 O 0.69844 0.34333 0.07361 0.0
O169 O 0.72815 0.36677 0.07025 0.0
O170 O 0.70361 0.39334 0.00649 0.0
O171 O 0.67363 0.37039 0.01155 0.0
H172 H 0.68984 0.3956 0.08856 0.0
H173 H 0.674 0.41675 0.13608 0.0
H174 H 0.70186 0.36511 0.20226 0.0
H175 H 0.71811 0.34447 0.15463 0.0
H176 H 0.75607 0.26862 0.05205 0.0
H177 H 0.73257 0.30309 0.04326 0.0
H178 H 0.78169 0.27383 0.9516 0.0
H179 H 0.75739 0.3078 0.94271 0.0
H180 H 0.67592 0.3765 0.88715 0.0
H181 H 0.64229 0.43711 0.92714 0.0
H182 H 0.65623 0.42717 0.98268 0.0
H183 H 0.68953 0.36654 0.94303 0.0
C184 C 0.62958 0.71235 0.11667 0.0
C185 C 0.60906 0.70021 0.11028 0.0
C186 C 0.60365 0.69406 0.16949 0.0
C187 C 0.59617 0.69119 0.13646 0.0
C188 C 0.62409 0.70657 0.17573 0.0
C189 C 0.63695 0.71562 0.14949 0.0
U190 U 0.64253 0.71282 0.02497 0.0
O191 O 0.65362 0.74064 0.99164 0.0
O192 O 0.67555 0.71009 0.99843 0.0
C193 C 0.67383 0.73101 0.98616 0.0
C194 C 0.64386 0.72057 0.08911 0.0
C195 C 0.69402 0.74587 0.99201 0.0
C196 C 0.7154 0.77294 0.02666 0.0
C197 C 0.69575 0.75943 0.02088 0.0
C198 C 0.73187 0.75924 0.97497 0.0
C199 C 0.73372 0.77289 0.00383 0.0
C200 C 0.71215 0.74587 0.9691 0.0
C201 C 0.60344 0.67684 0.96811 0.0
C202 C 0.60962 0.67324 0.9087 0.0
C203 C 0.57774 0.65314 0.93472 0.0
C204 C 0.58426 0.66223 0.9655 0.0
C205 C 0.59031 0.65855 0.90592 0.0
C206 C 0.61613 0.68234 0.9396 0.0
C207 C 0.61006 0.68588 0.00085 0.0
O208 O 0.65614 0.70444 0.07447 0.0
O209 O 0.63341 0.73439 0.06805 0.0
O210 O 0.6074 0.70824 0.00506 0.0
O211 O 0.62971 0.67808 0.01271 0.0
H212 H 0.60317 0.69747 0.085 0.0
H213 H 0.58036 0.68194 0.13081 0.0
H214 H 0.63048 0.70885 0.20083 0.0
H215 H 0.65286 0.72482 0.15478 0.0
H216 H 0.71644 0.78309 0.04926 0.0
H217 H 0.682 0.75942 0.03906 0.0
H218 H 0.7456 0.75905 0.95676 0.0
H219 H 0.71112 0.73542 0.94676 0.0
H220 H 0.61953 0.67789 0.88697 0.0
H221 H 0.56303 0.64159 0.93357 0.0
H222 H 0.57437 0.65773 0.98734 0.0
H223 H 0.63103 0.69364 0.94129 0.0
C224 C 0.29623 0.6292 0.11633 0.0
C225 C 0.31313 0.61239 0.11028 0.0
C226 C 0.31766 0.6063 0.16972 0.0
C227 C 0.32376 0.60102 0.13676 0.0
C228 C 0.30038 0.62289 0.17553 0.0
C229 C 0.28977 0.63425 0.14901 0.0
U230 U 0.29038 0.64085 0.02406 0.0
O231 O 0.25983 0.6502 0.99431 0.0
O232 O 0.28963 0.67362 0.99694 0.0
C233 C 0.26808 0.67079 0.98741 0.0
C234 C 0.28591 0.64212 0.08881 0.0
C235 C 0.25273 0.69022 0.99505 0.0
C236 C 0.23793 0.71858 0.03411 0.0
C237 C 0.25162 0.69928 0.02736 0.0
C238 C 0.22574 0.71948 0.97651 0.0
C239 C 0.22501 0.72908 0.00868 0.0
C240 C 0.23953 0.70024 0.96977 0.0
C241 C 0.32548 0.60526 0.96245 0.0
C242 C 0.33449 0.61745 0.90628 0.0
C243 C 0.34092 0.57776 0.92275 0.0
C244 C 0.33274 0.58286 0.95453 0.0
C245 C 0.3421 0.59504 0.89837 0.0
C246 C 0.32612 0.62249 0.93803 0.0
C247 C 0.3179 0.61047 0.99646 0.0
O248 O 0.3004 0.65532 0.07249 0.0
O249 O 0.27204 0.63022 0.06928 0.0
O250 O 0.29607 0.60617 0.00286 0.0
O251 O 0.32513 0.63029 0.00872 0.0
H252 H 0.31835 0.60836 0.0851 0.0
H253 H 0.33717 0.58853 0.13144 0.0
H254 H 0.29504 0.6271 0.20057 0.0
H255 H 0.2767 0.64717 0.15405 0.0
H256 H 0.23798 0.72563 0.05906 0.0
H257 H 0.26169 0.69167 0.04722 0.0
H258 H 0.21568 0.72686 0.95649 0.0
H259 H 0.24009 0.69334 0.94474 0.0
H260 H 0.33496 0.63104 0.8879 0.0
H261 H 0.34689 0.5604 0.91752 0.0
H262 H 0.33236 0.56936 0.97308 0.0
H263 H 0.3204 0.63988 0.94362 0.0
C264 C 0.85779 0.8043 0.41963 0.0
C265 C 0.8815 0.80937 0.41972 0.0
C266 C 0.87799 0.82776 0.36558 0.0
C267 C 0.89152 0.82085 0.39289 0.0
C268 C 0.85422 0.82251 0.36562 0.0
C269 C 0.84426 0.81087 0.39237 0.0
U270 U 0.85556 0.79389 0.51235 0.0
O271 O 0.82607 0.79342 0.54676 0.0
O272 O 0.84812 0.7628 0.54155 0.0
C273 C 0.82918 0.77159 0.55435 0.0
C274 C 0.8468 0.79326 0.44844 0.0
C275 C 0.80842 0.7569 0.55274 0.0
C276 C 0.78408 0.7287 0.52448 0.0
C277 C 0.80373 0.74282 0.52506 0.0
C278 C 0.77337 0.74292 0.57893 0.0
C279 C 0.76865 0.72853 0.55147 0.0
C280 C 0.79307 0.7569 0.57955 0.0
C281 C 0.90139 0.82377 0.56635 0.0
C282 C 0.89889 0.8277 0.6263 0.0
C283 C 0.93371 0.83942 0.5977 0.0
C284 C 0.92383 0.83279 0.56744 0.0
C285 C 0.92127 0.83723 0.62749 0.0
C286 C 0.88904 0.821 0.59598 0.0
C287 C 0.89093 0.8181 0.53404 0.0
O288 O 0.85901 0.77723 0.46345 0.0
O289 O 0.83672 0.80759 0.46918 0.0
O290 O 0.87039 0.82698 0.52866 0.0
O291 O 0.89262 0.79644 0.5245 0.0
H292 H 0.89227 0.80462 0.44065 0.0
H293 H 0.90991 0.82424 0.39356 0.0
H294 H 0.84318 0.82785 0.34532 0.0
H295 H 0.82588 0.80732 0.39201 0.0
H296 H 0.78118 0.71768 0.50309 0.0
H297 H 0.81533 0.74261 0.50402 0.0
H298 H 0.76172 0.74359 0.59988 0.0
H299 H 0.79633 0.76775 0.60105 0.0
H300 H 0.88874 0.82596 0.64869 0.0
H301 H 0.95112 0.84629 0.59775 0.0
H302 H 0.93364 0.83493 0.54479 0.0
H303 H 0.87167 0.81402 0.59557 0.0
C304 C 0.20032 0.87243 0.61845 0.0
C305 C 0.18382 0.88951 0.61176 0.0
C306 C 0.17818 0.89572 0.671 0.0
C307 C 0.17283 0.90106 0.6378 0.0
C308 C 0.19507 0.87884 0.67748 0.0
C309 C 0.20603 0.86728 0.65139 0.0
U310 U 0.20692 0.86124 0.52643 0.0
O311 O 0.23749 0.85194 0.49684 0.0
O312 O 0.20744 0.82879 0.49813 0.0
C313 C 0.22901 0.83157 0.48891 0.0
C314 C 0.21094 0.85939 0.59122 0.0
C315 C 0.24423 0.81183 0.49544 0.0
C316 C 0.2578 0.78137 0.53185 0.0
C317 C 0.24409 0.80084 0.52642 0.0
C318 C 0.27251 0.78417 0.47575 0.0
C319 C 0.27203 0.77265 0.50646 0.0
C320 C 0.25868 0.80355 0.47029 0.0
C321 C 0.1724 0.89784 0.46556 0.0
C322 C 0.16349 0.88629 0.40887 0.0
C323 C 0.15712 0.92582 0.42662 0.0
C324 C 0.16524 0.92036 0.45832 0.0
C325 C 0.15592 0.90879 0.40165 0.0
C326 C 0.17179 0.88089 0.44053 0.0
C327 C 0.17982 0.89221 0.49948 0.0
O328 O 0.19654 0.84635 0.57417 0.0
O329 O 0.22514 0.87121 0.57236 0.0
O330 O 0.20167 0.8962 0.50637 0.0
O331 O 0.17234 0.87234 0.51092 0.0
H332 H 0.17917 0.89361 0.58638 0.0
H333 H 0.15973 0.91374 0.63192 0.0
H334 H 0.19983 0.87456 0.70274 0.0
H335 H 0.21878 0.85416 0.65693 0.0
H336 H 0.25681 0.77283 0.55567 0.0
H337 H 0.23307 0.80709 0.5462 0.0
H338 H 0.28359 0.77821 0.45587 0.0
H339 H 0.25911 0.81196 0.44632 0.0
H340 H 0.16299 0.8729 0.39002 0.0
H341 H 0.1512 0.94324 0.4219 0.0
H342 H 0.1656 0.93364 0.47734 0.0
H343 H 0.17744 0.86342 0.4456 0.0
C344 C 0.13247 0.20293 0.61896 0.0
C345 C 0.11453 0.18753 0.61116 0.0
C346 C 0.10907 0.17938 0.66984 0.0
C347 C 0.10291 0.17586 0.63638 0.0
C348 C 0.12696 0.19504 0.67748 0.0
C349 C 0.13857 0.20672 0.65219 0.0
U350 U 0.14211 0.21239 0.52751 0.0
O351 O 0.15019 0.24395 0.49951 0.0
O352 O 0.17401 0.21449 0.49837 0.0
C353 C 0.17066 0.23629 0.49077 0.0
C354 C 0.14519 0.21453 0.59239 0.0
C355 C 0.19008 0.25168 0.49872 0.0
C356 C 0.2181 0.26667 0.53832 0.0
C357 C 0.19895 0.2528 0.53114 0.0
C358 C 0.21931 0.27893 0.48089 0.0
C359 C 0.22867 0.27974 0.5132 0.0
C360 C 0.2002 0.26497 0.47373 0.0
C361 C 0.10337 0.17829 0.46734 0.0
C362 C 0.11008 0.17493 0.408 0.0
C363 C 0.0757 0.15821 0.43233 0.0
C364 C 0.08266 0.16607 0.46359 0.0
C365 C 0.08936 0.16243 0.40417 0.0
C366 C 0.11701 0.18286 0.43938 0.0
C367 C 0.11071 0.18537 0.50076 0.0
O368 O 0.15803 0.2008 0.57413 0.0
O369 O 0.13304 0.22923 0.57475 0.0
O370 O 0.10673 0.20702 0.5088 0.0
O371 O 0.13123 0.17811 0.50998 0.0
H372 H 0.1097 0.18435 0.58553 0.0
H373 H 0.08944 0.16371 0.62962 0.0
H374 H 0.13192 0.19835 0.70301 0.0
H375 H 0.15239 0.21859 0.65857 0.0
H376 H 0.22498 0.26667 0.56335 0.0
H377 H 0.19127 0.24264 0.55077 0.0
H378 H 0.22675 0.28908 0.4611 0.0
H379 H 0.19345 0.2644 0.44862 0.0
H380 H 0.12086 0.17864 0.38676 0.0
H381 H 0.05985 0.14833 0.43037 0.0
H382 H 0.072 0.16232 0.48497 0.0
H383 H 0.13307 0.19234 0.44191 0.0
C384 C 0.79691 0.13708 0.61304 0.0
C385 C 0.81674 0.12353 0.60874 0.0
C386 C 0.81765 0.11524 0.66796 0.0
C387 C 0.82706 0.11276 0.63596 0.0
C388 C 0.79747 0.12851 0.67194 0.0
C389 C 0.78723 0.13937 0.64468 0.0
U390 U 0.7917 0.14618 0.52026 0.0
O391 O 0.76138 0.15443 0.48935 0.0
O392 O 0.79102 0.17809 0.49107 0.0
C393 C 0.76953 0.17489 0.4815 0.0
C394 C 0.78661 0.14925 0.58478 0.0
C395 C 0.75402 0.19438 0.48825 0.0
C396 C 0.73891 0.22326 0.52623 0.0
C397 C 0.75289 0.20407 0.52017 0.0
C398 C 0.72649 0.22283 0.46871 0.0
C399 C 0.72567 0.23301 0.50051 0.0
C400 C 0.7406 0.20369 0.46264 0.0
C401 C 0.82818 0.1082 0.46248 0.0
C402 C 0.84335 0.1177 0.40799 0.0
C403 C 0.84091 0.07775 0.42524 0.0
C404 C 0.83153 0.08472 0.45556 0.0
C405 C 0.84732 0.09416 0.40128 0.0
C406 C 0.83379 0.12465 0.43828 0.0
C407 C 0.81973 0.11508 0.49551 0.0
O408 O 0.80102 0.16221 0.56793 0.0
O409 O 0.77296 0.13673 0.56573 0.0
O410 O 0.79781 0.11089 0.50148 0.0
O411 O 0.82668 0.13536 0.50647 0.0
H412 H 0.82442 0.12156 0.5844 0.0
H413 H 0.84273 0.10294 0.63202 0.0
H414 H 0.78955 0.13046 0.6961 0.0
H415 H 0.77184 0.14968 0.64834 0.0
H416 H 0.73894 0.23078 0.55089 0.0
H417 H 0.76312 0.19701 0.54028 0.0
H418 H 0.71622 0.22962 0.44849 0.0
H419 H 0.74117 0.19629 0.43791 0.0
H420 H 0.84821 0.13083 0.39026 0.0
H421 H 0.84322 0.05946 0.42066 0.0
H422 H 0.82717 0.07176 0.47383 0.0
H423 H 0.83123 0.1429 0.44299 0.0
C424 C 0.09972 0.1055 0.01922 0.0
C425 C 0.09203 0.09225 0.04621 0.0
C426 C 0.11771 0.12137 0.02313 0.0
C427 C 0.16895 0.1325 0.07403 0.0
H428 H 0.16806 0.19228 0.03102 0.0
C429 C 0.24464 0.19752 0.08642 0.0
C430 C 0.2506 0.21031 0.05808 0.0
C431 C 0.22471 0.18384 0.08673 0.0
C432 C 0.16872 0.17554 0.04287 0.0
H433 H 0.09685 0.08584 0.09881 0.0
H434 H 0.1285 0.11356 0.10556 0.0
H435 H 0.13376 0.16784 0.02919 0.0
H436 H 0.24012 0.21862 0.00777 0.0
H437 H 0.2059 0.1942 0.00789 0.0
H438 H 0.20407 0.13988 0.08701 0.0
C439 C 0.12057 0.11151 0.08133 0.0
C440 C 0.149 0.16159 0.04195 0.0
C441 C 0.10235 0.09576 0.0775 0.0
C442 C 0.23624 0.20884 0.02992 0.0
C443 C 0.21638 0.19508 0.03018 0.0
C444 C 0.18874 0.1464 0.07478 0.0
C445 C 0.12861 0.12428 0.05407 0.0
C446 C 0.14896 0.13983 0.05725 0.0
C447 C 0.21027 0.18249 0.05864 0.0
C448 C 0.18896 0.16801 0.05892 0.0
H449 H 0.09214 0.10331 0.99478 0.0
H450 H 0.12363 0.13078 0.00158 0.0
H451 H 0.16956 0.11568 0.08566 0.0
H452 H 0.25543 0.19798 0.10842 0.0
H453 H 0.22049 0.17455 0.10919 0.0
C454 C 0.88967 0.09548 0.99874 0.0
C455 C 0.90212 0.08995 0.02766 0.0
C456 C 0.87293 0.11281 0.99927 0.0
C457 C 0.85949 0.16627 0.04287 0.0
H458 H 0.80144 0.16249 0.9949 0.0
C459 C 0.79582 0.24295 0.03805 0.0
C460 C 0.7847 0.24709 0.00756 0.0
C461 C 0.80864 0.2228 0.04288 0.0
C462 C 0.81769 0.16391 0.00814 0.0
H463 H 0.90594 0.09754 0.08021 0.0
H464 H 0.87674 0.12796 0.081 0.0
H465 H 0.82576 0.12827 0.99963 0.0
H466 H 0.77821 0.23307 0.95835 0.0
H467 H 0.80125 0.19846 0.96632 0.0
H468 H 0.85194 0.20202 0.05046 0.0
C469 C 0.8801 0.11893 0.05791 0.0
C470 C 0.83154 0.14427 0.01097 0.0
C471 C 0.8967 0.10141 0.05748 0.0
C472 C 0.78678 0.23061 0.98201 0.0
C473 C 0.79971 0.21055 0.98677 0.0
C474 C 0.84574 0.18596 0.03981 0.0
C475 C 0.86839 0.1251 0.02866 0.0
C476 C 0.85269 0.14531 0.02807 0.0
C477 C 0.81077 0.20635 0.01729 0.0
C478 C 0.82479 0.1851 0.02208 0.0
H479 H 0.89334 0.08692 0.97538 0.0
H480 H 0.86429 0.11728 0.97629 0.0
H481 H 0.87588 0.16767 0.05577 0.0
H482 H 0.79481 0.25537 0.05816 0.0
H483 H 0.81674 0.22005 0.06681 0.0
C484 C 0.90085 0.90126 0.05352 0.0
C485 C 0.90762 0.91112 0.02319 0.0
C486 C 0.88375 0.88416 0.05426 0.0
C487 C 0.85238 0.8423 0.00036 0.0
H488 H 0.80443 0.84722 0.06694 0.0
C489 C 0.77676 0.77769 0.00441 0.0
C490 C 0.75471 0.787 0.01003 0.0
C491 C 0.79652 0.79117 0.00924 0.0
C492 C 0.81764 0.84566 0.04811 0.0
H493 H 0.90203 0.91031 0.96985 0.0
H494 H 0.87221 0.88091 0.97127 0.0
H495 H 0.83727 0.87362 0.06879 0.0
H496 H 0.73608 0.81766 0.02533 0.0
H497 H 0.77053 0.84135 0.03322 0.0
H498 H 0.83234 0.8151 0.97876 0.0
C499 C 0.88026 0.88609 0.99443 0.0
C500 C 0.83663 0.8606 0.04943 0.0
C501 C 0.8973 0.90312 0.99368 0.0
C502 C 0.75286 0.80996 0.02111 0.0
C503 C 0.77262 0.82349 0.02574 0.0
C504 C 0.8334 0.82745 0.99898 0.0
C505 C 0.87312 0.87653 0.02472 0.0
C506 C 0.85404 0.85933 0.02525 0.0
C507 C 0.7947 0.81432 0.01959 0.0
C508 C 0.81562 0.82914 0.02256 0.0
H509 H 0.90849 0.90697 0.07671 0.0
H510 H 0.87881 0.87695 0.07798 0.0
H511 H 0.86565 0.84064 0.98161 0.0
H512 H 0.77874 0.75993 0.9964 0.0
H513 H 0.81326 0.78342 0.00485 0.0
C514 C 0.11143 0.90382 0.00914 0.0
C515 C 0.09681 0.90874 0.03604 0.0
C516 C 0.12794 0.88637 0.01144 0.0
C517 C 0.13747 0.83156 0.05276 0.0
H518 H 0.19836 0.83589 0.01349 0.0
C519 C 0.19921 0.7531 0.04529 0.0
C520 C 0.21144 0.75038 0.01541 0.0
C521 C 0.18683 0.77336 0.0517 0.0
C522 C 0.18134 0.83434 0.02434 0.0
H523 H 0.08882 0.89993 0.08704 0.0
H524 H 0.11764 0.86917 0.09088 0.0
H525 H 0.17461 0.87048 0.01867 0.0
H526 H 0.22042 0.76702 0.96904 0.0
H527 H 0.19825 0.80185 0.97964 0.0
H528 H 0.14375 0.79531 0.0573 0.0
C529 C 0.11618 0.87884 0.06801 0.0
C530 C 0.16781 0.85418 0.02745 0.0
C531 C 0.0998 0.89653 0.06586 0.0
C532 C 0.21096 0.76837 0.99211 0.0
C533 C 0.19853 0.78854 0.99845 0.0
C534 C 0.15093 0.81167 0.04945 0.0
C535 C 0.1301 0.87331 0.04058 0.0
C536 C 0.14558 0.85292 0.04113 0.0
C537 C 0.18636 0.79134 0.02835 0.0
C538 C 0.17286 0.81275 0.03459 0.0
H539 H 0.10966 0.91297 0.98588 0.0
H540 H 0.13829 0.88239 0.9898 0.0
H541 H 0.12027 0.83002 0.06304 0.0
H542 H 0.19903 0.7395 0.06366 0.0
H543 H 0.17778 0.77499 0.07507 0.0
C544 C 0.60085 0.60255 0.51085 0.0
C545 C 0.59212 0.59122 0.53898 0.0
C546 C 0.61847 0.61893 0.51394 0.0
C547 C 0.66702 0.63486 0.56785 0.0
H548 H 0.66723 0.69139 0.5166 0.0
C549 C 0.74032 0.70235 0.58019 0.0
C550 C 0.74777 0.71342 0.55108 0.0
C551 C 0.72063 0.68834 0.57995 0.0
C552 C 0.6676 0.67556 0.53079 0.0
H553 H 0.59471 0.58878 0.59261 0.0
H554 H 0.62563 0.61737 0.59793 0.0
H555 H 0.63368 0.66592 0.51436 0.0
H556 H 0.74006 0.71841 0.49886 0.0
H557 H 0.70625 0.6934 0.49816 0.0
H558 H 0.70111 0.64411 0.58367 0.0
C559 C 0.61884 0.61341 0.57346 0.0
C560 C 0.6483 0.66101 0.52961 0.0
C561 C 0.60103 0.59715 0.57042 0.0
C562 C 0.73503 0.70999 0.52167 0.0
C563 C 0.7154 0.69588 0.52139 0.0
C564 C 0.68639 0.64932 0.56886 0.0
C565 C 0.62793 0.62429 0.5452 0.0
C566 C 0.64785 0.64043 0.54796 0.0
C567 C 0.70789 0.6849 0.55054 0.0
C568 C 0.687 0.6698 0.55018 0.0
H569 H 0.59437 0.59846 0.48625 0.0
H570 H 0.62521 0.62685 0.49167 0.0
H571 H 0.66734 0.61895 0.58189 0.0
H572 H 0.74984 0.70431 0.60322 0.0
H573 H 0.71528 0.68039 0.60296 0.0
C574 C 0.39003 0.5997 0.50052 0.0
C575 C 0.4028 0.59389 0.52902 0.0
C576 C 0.37329 0.617 0.5018 0.0
C577 C 0.36013 0.66998 0.54681 0.0
H578 H 0.30194 0.66664 0.49913 0.0
C579 C 0.29672 0.74703 0.54233 0.0
C580 C 0.28585 0.75132 0.51169 0.0
C581 C 0.30939 0.72679 0.54725 0.0
C582 C 0.31822 0.66793 0.51232 0.0
H583 H 0.40718 0.60093 0.58164 0.0
H584 H 0.37795 0.63131 0.58375 0.0
H585 H 0.32618 0.63234 0.50327 0.0
H586 H 0.2796 0.73743 0.46235 0.0
H587 H 0.30234 0.70266 0.47048 0.0
H588 H 0.35266 0.70572 0.55492 0.0
C589 C 0.38108 0.62252 0.5604 0.0
C590 C 0.33203 0.64825 0.51482 0.0
C591 C 0.3977 0.60504 0.55921 0.0
C592 C 0.288 0.73488 0.48611 0.0
C593 C 0.30075 0.71472 0.49097 0.0
C594 C 0.34641 0.68972 0.54412 0.0
C595 C 0.36903 0.62897 0.53155 0.0
C596 C 0.35327 0.64915 0.5317 0.0
C597 C 0.31157 0.71038 0.52161 0.0
C598 C 0.32543 0.68903 0.52642 0.0
H599 H 0.39345 0.59139 0.4769 0.0
H600 H 0.3644 0.62169 0.47911 0.0
H601 H 0.37658 0.67128 0.55959 0.0
H602 H 0.29562 0.75942 0.56248 0.0
H603 H 0.31734 0.72393 0.57125 0.0
C604 C 0.39485 0.40739 0.5716 0.0
C605 C 0.40703 0.41008 0.54171 0.0
C606 C 0.37705 0.39108 0.57395 0.0
C607 C 0.3529 0.33873 0.53416 0.0
H608 H 0.29357 0.36216 0.56322 0.0
C609 C 0.26796 0.29428 0.49745 0.0
C610 C 0.24976 0.2936 0.52042 0.0
C611 C 0.28793 0.307 0.50421 0.0
C612 C 0.31007 0.35516 0.5556 0.0
H613 H 0.41096 0.39691 0.49152 0.0
H614 H 0.38025 0.36843 0.49578 0.0
H615 H 0.32797 0.38625 0.56907 0.0
H616 H 0.23829 0.30598 0.56853 0.0
H617 H 0.27342 0.32781 0.58066 0.0
H618 H 0.33509 0.30778 0.52028 0.0
C619 C 0.38432 0.37895 0.51733 0.0
C620 C 0.32978 0.36898 0.55898 0.0
C621 C 0.40183 0.39539 0.51484 0.0
C622 C 0.25206 0.30595 0.55042 0.0
C623 C 0.27211 0.31865 0.55723 0.0
C624 C 0.33327 0.32487 0.53098 0.0
C625 C 0.37143 0.37692 0.54665 0.0
C626 C 0.35128 0.36111 0.54753 0.0
C627 C 0.2903 0.3193 0.53421 0.0
C628 C 0.3115 0.33313 0.54086 0.0
H629 H 0.39848 0.41843 0.59277 0.0
H630 H 0.36748 0.38974 0.59692 0.0
H631 H 0.36933 0.33211 0.52555 0.0
H632 H 0.26693 0.28474 0.47431 0.0
H633 H 0.30141 0.30742 0.48565 0.0
C634 C 0.59978 0.39922 0.56187 0.0
C635 C 0.59568 0.41178 0.53264 0.0
C636 C 0.61625 0.38157 0.56236 0.0
C637 C 0.66636 0.35733 0.51756 0.0
H638 H 0.6437 0.29842 0.54945 0.0
C639 C 0.71038 0.27163 0.48273 0.0
C640 C 0.71158 0.25407 0.50666 0.0
C641 C 0.69758 0.29163 0.48868 0.0
C642 C 0.6505 0.31479 0.54095 0.0
H643 H 0.60672 0.41669 0.48171 0.0
H644 H 0.63552 0.38612 0.48273 0.0
H645 H 0.62016 0.33295 0.55633 0.0
H646 H 0.69994 0.24375 0.55557 0.0
H647 H 0.67816 0.27894 0.56634 0.0
H648 H 0.69663 0.33922 0.50197 0.0
C649 C 0.62595 0.38981 0.5052 0.0
C650 C 0.63699 0.33458 0.54493 0.0
C651 C 0.60935 0.40726 0.50458 0.0
C652 C 0.69962 0.25702 0.53672 0.0
C653 C 0.6869 0.27711 0.54275 0.0
C654 C 0.67994 0.33757 0.51379 0.0
C655 C 0.62915 0.37637 0.53379 0.0
C656 C 0.64461 0.35598 0.53278 0.0
C657 C 0.68576 0.29469 0.51882 0.0
C658 C 0.67201 0.31597 0.52491 0.0
H659 H 0.58956 0.40228 0.58393 0.0
H660 H 0.61855 0.37164 0.58486 0.0
H661 H 0.67278 0.37365 0.50829 0.0
H662 H 0.71961 0.27009 0.45948 0.0
H663 H 0.69679 0.30462 0.46945 0.0
C664 C 0.03428 0.0679 0.13996 0.0
C665 C 0.01026 0.0692 0.13521 0.0
C666 C 0.04459 0.07733 0.16849 0.0
C667 C 0.03039 0.09554 0.25419 0.0
H668 H 0.0862 0.13243 0.24882 0.0
C669 C 0.05874 0.15394 0.36171 0.0
C670 C 0.0821 0.15326 0.37124 0.0
C671 C 0.05145 0.1436 0.33214 0.0
C672 C 0.07074 0.12197 0.25072 0.0
H673 H 0.97825 0.08156 0.15698 0.0
H674 H 0.9961 0.09805 0.20604 0.0
H675 H 0.07092 0.1136 0.19879 0.0
H676 H 0.11624 0.14178 0.35658 0.0
H677 H 0.10344 0.12381 0.30461 0.0
H678 H 0.02994 0.10406 0.30585 0.0
C679 C 0.00704 0.08949 0.18804 0.0
C680 C 0.06203 0.11115 0.22213 0.0
C681 C 0.99681 0.08013 0.15967 0.0
C682 C 0.09815 0.14276 0.34982 0.0
C683 C 0.09083 0.13243 0.3201 0.0
C684 C 0.03902 0.10637 0.28262 0.0
C685 C 0.03102 0.08814 0.19292 0.0
C686 C 0.04153 0.09813 0.22348 0.0
C687 C 0.06732 0.13236 0.3113 0.0
C688 C 0.05906 0.12001 0.28113 0.0
H689 H 0.04514 0.05963 0.12182 0.0
H690 H 0.06311 0.07588 0.17162 0.0
H691 H 0.01487 0.08519 0.25626 0.0
H692 H 0.04602 0.16233 0.37728 0.0
H693 H 0.03329 0.14429 0.32565 0.0
C694 C 0.94288 0.00602 0.162 0.0
C695 C 0.93901 0.0165 0.13113 0.0
C696 C 0.93486 0.01628 0.19112 0.0
C697 C 0.91047 0.07028 0.22706 0.0
H698 H 0.88396 0.02733 0.29005 0.0
C699 C 0.85369 0.09767 0.33958 0.0
C700 C 0.85867 0.08672 0.3699 0.0
C701 C 0.86435 0.0904 0.3102 0.0
C702 C 0.89147 0.03954 0.27286 0.0
H703 H 0.92415 0.04609 0.10656 0.0
H704 H 0.90969 0.06402 0.15741 0.0
H705 H 0.90152 0.0127 0.2395 0.0
H706 H 0.87947 0.06008 0.39311 0.0
H707 H 0.89757 0.04715 0.34189 0.0
H708 H 0.89977 0.09714 0.26051 0.0
C709 C 0.91937 0.04808 0.15923 0.0
C710 C 0.90165 0.03117 0.2439 0.0
C711 C 0.92768 0.03788 0.13004 0.0
C712 C 0.87476 0.06854 0.37015 0.0
C713 C 0.88524 0.06119 0.34082 0.0
C714 C 0.90005 0.07869 0.25602 0.0
C715 C 0.92239 0.03709 0.19005 0.0
C716 C 0.91149 0.04638 0.22075 0.0
C717 C 0.88006 0.07193 0.31051 0.0
C718 C 0.89063 0.06335 0.27932 0.0
H719 H 0.95182 0.98962 0.16359 0.0
H720 H 0.93808 0.00763 0.21446 0.0
H721 H 0.91801 0.08248 0.2099 0.0
H722 H 0.84122 0.11156 0.33839 0.0
H723 H 0.85987 0.09885 0.28712 0.0
C724 C 0.98784 0.93574 0.15832 0.0
C725 C 0.98103 0.93293 0.12507 0.0
C726 C 0.97471 0.92614 0.18387 0.0
C727 C 0.93507 0.87819 0.19982 0.0
H728 H 0.92261 0.91063 0.2822 0.0
C729 C 0.88136 0.8366 0.30455 0.0
C730 C 0.88855 0.84066 0.33747 0.0
C731 C 0.89126 0.84878 0.27825 0.0
C732 C 0.92616 0.90122 0.25951 0.0
H733 H 0.95583 0.91731 0.09232 0.0
H734 H 0.93254 0.90078 0.13687 0.0
H735 H 0.94211 0.9307 0.23709 0.0
H736 H 0.91164 0.86112 0.36835 0.0
H737 H 0.92946 0.88162 0.32255 0.0
H738 H 0.91977 0.84854 0.22234 0.0
C739 C 0.94783 0.91065 0.14327 0.0
C740 C 0.93726 0.91277 0.23362 0.0
C741 C 0.96087 0.92047 0.11777 0.0
C742 C 0.90587 0.85725 0.34334 0.0
C743 C 0.91587 0.86931 0.31704 0.0
C744 C 0.92415 0.86658 0.22577 0.0
C745 C 0.95475 0.91318 0.1766 0.0
C746 C 0.94194 0.90135 0.20355 0.0
C747 C 0.90871 0.86525 0.28412 0.0
C748 C 0.91966 0.87788 0.25606 0.0
H749 H 0.00348 0.94515 0.16451 0.0
H750 H 0.98064 0.92816 0.20925 0.0
H751 H 0.93875 0.86881 0.17712 0.0
H752 H 0.86825 0.8238 0.29898 0.0
H753 H 0.88509 0.84536 0.2533 0.0
C754 C 0.05013 0.9863 0.16513 0.0
C755 C 0.05787 0.97976 0.13353 0.0
C756 C 0.05881 0.97552 0.19342 0.0
C757 C 0.09436 0.92649 0.22418 0.0
H758 H 0.10923 0.97033 0.29414 0.0
C759 C 0.12984 0.8997 0.35344 0.0
C760 C 0.1461 0.91443 0.36861 0.0
C761 C 0.1192 0.90594 0.32357 0.0
C762 C 0.10543 0.95786 0.27475 0.0
H763 H 0.08028 0.95665 0.10641 0.0
H764 H 0.09579 0.9378 0.1559 0.0
H765 H 0.08924 0.98347 0.24478 0.0
H766 H 0.16488 0.9466 0.36355 0.0
H767 H 0.14662 0.95736 0.31127 0.0
H768 H 0.11132 0.90103 0.25404 0.0
C769 C 0.08258 0.95086 0.15889 0.0
C770 C 0.09357 0.96533 0.24662 0.0
C771 C 0.07363 0.96152 0.13049 0.0
C772 C 0.15211 0.9351 0.35273 0.0
C773 C 0.1416 0.94127 0.32282 0.0
C774 C 0.10632 0.919 0.25242 0.0
C775 C 0.07581 0.95829 0.19073 0.0
C776 C 0.08783 0.94977 0.22098 0.0
C777 C 0.12468 0.927 0.30821 0.0
C778 C 0.11207 0.93465 0.27798 0.0
H779 H 0.03788 0.0003 0.16801 0.0
H780 H 0.05276 0.98126 0.21749 0.0
H781 H 0.09013 0.91405 0.20494 0.0
H782 H 0.12471 0.88374 0.36527 0.0
H783 H 0.1061 0.89465 0.31318 0.0
C784 C 0.07793 0.00568 0.88931 0.0
C785 C 0.07333 0.99244 0.91772 0.0
C786 C 0.08772 0.99545 0.86121 0.0
C787 C 0.09804 0.93922 0.8201 0.0
H788 H 0.14921 0.97131 0.77878 0.0
C789 C 0.15853 0.89451 0.72643 0.0
C790 C 0.16574 0.90726 0.69869 0.0
C791 C 0.14641 0.90519 0.75217 0.0
C792 C 0.13475 0.96225 0.78972 0.0
H793 H 0.07483 0.95798 0.93856 0.0
H794 H 0.09188 0.94018 0.88955 0.0
H795 H 0.12882 0.98938 0.82489 0.0
H796 H 0.1661 0.94132 0.6765 0.0
H797 H 0.14456 0.95988 0.72117 0.0
H798 H 0.10403 0.91203 0.78504 0.0
C799 C 0.08782 0.95842 0.88893 0.0
C800 C 0.12306 0.97262 0.81614 0.0
C801 C 0.07814 0.96866 0.91709 0.0
C802 C 0.16061 0.93096 0.69737 0.0
C803 C 0.14847 0.94165 0.72313 0.0
C804 C 0.1097 0.92886 0.79362 0.0
C805 C 0.09301 0.97176 0.86084 0.0
C806 C 0.10468 0.96115 0.83178 0.0
C807 C 0.14118 0.92887 0.75081 0.0
C808 C 0.12831 0.94018 0.77828 0.0
H809 H 0.0743 0.02402 0.88891 0.0
H810 H 0.09122 0.00612 0.83977 0.0
H811 H 0.08373 0.93009 0.83133 0.0
H812 H 0.16196 0.87617 0.72806 0.0
H813 H 0.14131 0.8949 0.77332 0.0
C814 C 0.99503 0.07749 0.88084 0.0
C815 C 0.00832 0.0702 0.90811 0.0
C816 C 0.00559 0.0877 0.85342 0.0
C817 C 0.06191 0.09539 0.81158 0.0
H818 H 0.03349 0.15093 0.77683 0.0
C819 C 0.10976 0.15713 0.72318 0.0
C820 C 0.09714 0.16645 0.69655 0.0
C821 C 0.09862 0.14456 0.74797 0.0
C822 C 0.0415 0.13528 0.78594 0.0
H823 H 0.04318 0.0674 0.92758 0.0
H824 H 0.06157 0.08524 0.87984 0.0
H825 H 0.01455 0.12971 0.8212 0.0
H826 H 0.06287 0.17013 0.67536 0.0
H827 H 0.04348 0.14789 0.71835 0.0
H828 H 0.08897 0.1011 0.77647 0.0
C829 C 0.04301 0.0829 0.8795 0.0
C830 C 0.03063 0.1231 0.81135 0.0
C831 C 0.03244 0.07273 0.90694 0.0
C832 C 0.07311 0.16299 0.69537 0.0
C833 C 0.06197 0.15044 0.72018 0.0
C834 C 0.07278 0.10758 0.78615 0.0
C835 C 0.02967 0.09081 0.85265 0.0
C836 C 0.04077 0.10309 0.8246 0.0
C837 C 0.0746 0.14104 0.74673 0.0
C838 C 0.06277 0.12774 0.77318 0.0
H839 H 0.9764 0.07566 0.88086 0.0
H840 H 0.99488 0.09329 0.83289 0.0
H841 H 0.07 0.07987 0.82095 0.0
H842 H 0.12832 0.15926 0.72465 0.0
H843 H 0.10881 0.13778 0.7683 0.0
C844 C 0.92097 0.00942 0.88499 0.0
C845 C 0.92013 0.01898 0.91709 0.0
C846 C 0.91085 0.02088 0.85821 0.0
C847 C 0.86661 0.06487 0.83915 0.0
H848 H 0.8941 0.06281 0.75153 0.0
C849 C 0.83062 0.11629 0.72757 0.0
C850 C 0.82915 0.10444 0.69708 0.0
C851 C 0.84199 0.10643 0.75466 0.0
C852 C 0.88614 0.06337 0.77582 0.0
H853 H 0.90851 0.04838 0.94604 0.0
H854 H 0.89138 0.06867 0.89922 0.0
H855 H 0.91432 0.04534 0.79829 0.0
H856 H 0.83804 0.07261 0.67153 0.0
H857 H 0.85813 0.05556 0.71871 0.0
H858 H 0.8385 0.08305 0.81658 0.0
C859 C 0.89944 0.05207 0.89483 0.0
C860 C 0.8977 0.05335 0.80262 0.0
C861 C 0.90945 0.04053 0.92166 0.0
C862 C 0.83919 0.0824 0.69443 0.0
C863 C 0.85069 0.07261 0.72146 0.0
C864 C 0.85513 0.07502 0.81238 0.0
C865 C 0.89977 0.04225 0.86284 0.0
C866 C 0.888 0.05382 0.83458 0.0
C867 C 0.85228 0.08455 0.75182 0.0
C868 C 0.86469 0.07423 0.78039 0.0
H869 H 0.92902 0.99282 0.8806 0.0
H870 H 0.91118 0.01265 0.83403 0.0
H871 H 0.85844 0.06523 0.86329 0.0
H872 H 0.82342 0.13344 0.73035 0.0
H873 H 0.84316 0.11614 0.77765 0.0
C874 C 0.01127 0.92296 0.87633 0.0
C875 C 0.00714 0.91086 0.90592 0.0
C876 C 0.00212 0.91501 0.84619 0.0
C877 C 0.97932 0.86252 0.80511 0.0
H878 H 0.95212 0.90594 0.74334 0.0
C879 C 0.92817 0.83285 0.68891 0.0
C880 C 0.93142 0.84539 0.65947 0.0
C881 C 0.93753 0.84074 0.71895 0.0
C882 C 0.9599 0.89361 0.76011 0.0
H883 H 0.99012 0.88093 0.927 0.0
H884 H 0.97411 0.86717 0.87452 0.0
H885 H 0.96838 0.91996 0.79557 0.0
H886 H 0.94691 0.87625 0.63873 0.0
H887 H 0.96369 0.88967 0.69082 0.0
H888 H 0.97094 0.83617 0.76963 0.0
C889 C 0.98461 0.88267 0.87455 0.0
C890 C 0.96921 0.90166 0.79007 0.0
C891 C 0.99369 0.89064 0.90467 0.0
C892 C 0.9443 0.86599 0.66082 0.0
C893 C 0.95367 0.87386 0.69081 0.0
C894 C 0.97006 0.85447 0.77511 0.0
C895 C 0.98872 0.89474 0.84495 0.0
C896 C 0.97901 0.88621 0.81294 0.0
C897 C 0.95037 0.86137 0.72028 0.0
C898 C 0.96022 0.86991 0.75224 0.0
H899 H 0.02163 0.93855 0.8764 0.0
H900 H 0.00582 0.92456 0.82377 0.0
H901 H 0.98704 0.85021 0.82198 0.0
H902 H 0.91853 0.8168 0.68873 0.0
H903 H 0.93445 0.83081 0.74122 0.0
C904 C 0.53607 0.56863 0.63774 0.0
C905 C 0.5119 0.56866 0.63461 0.0
C906 C 0.54669 0.57694 0.66675 0.0
C907 C 0.53429 0.58941 0.75514 0.0
H908 H 0.58626 0.63156 0.75007 0.0
C909 C 0.55967 0.64703 0.86498 0.0
C910 C 0.5832 0.64871 0.87331 0.0
C911 C 0.55273 0.63651 0.83538 0.0
C912 C 0.57193 0.61959 0.75188 0.0
H913 H 0.4799 0.57728 0.65985 0.0
H914 H 0.49827 0.59187 0.70976 0.0
H915 H 0.57118 0.61358 0.6993 0.0
H916 H 0.61795 0.64111 0.85655 0.0
H917 H 0.60575 0.62284 0.80446 0.0
H918 H 0.53468 0.59567 0.80746 0.0
C919 C 0.50913 0.58522 0.69008 0.0
C920 C 0.56334 0.60926 0.72285 0.0
C921 C 0.49859 0.57701 0.66122 0.0
C922 C 0.59969 0.64024 0.85075 0.0
C923 C 0.59272 0.62975 0.82097 0.0
C924 C 0.5428 0.59975 0.78401 0.0
C925 C 0.53328 0.58528 0.69327 0.0
C926 C 0.54411 0.59442 0.72413 0.0
C927 C 0.56914 0.62745 0.81326 0.0
C928 C 0.56141 0.6153 0.78266 0.0
H929 H 0.54681 0.56242 0.61783 0.0
H930 H 0.56536 0.57665 0.66854 0.0
H931 H 0.5198 0.57765 0.75707 0.0
H932 H 0.54654 0.65384 0.88142 0.0
H933 H 0.53445 0.63548 0.82977 0.0
C934 C 0.44791 0.51853 0.6616 0.0
C935 C 0.43976 0.52461 0.63003 0.0
C936 C 0.43951 0.52962 0.68985 0.0
C937 C 0.40366 0.57843 0.72087 0.0
H938 H 0.3892 0.5345 0.79022 0.0
C939 C 0.36805 0.60464 0.85052 0.0
C940 C 0.35189 0.58973 0.8652 0.0
C941 C 0.3787 0.59865 0.82057 0.0
C942 C 0.3929 0.547 0.77101 0.0
H943 H 0.4171 0.54742 0.60287 0.0
H944 H 0.40199 0.56677 0.65238 0.0
H945 H 0.40927 0.52152 0.7409 0.0
H946 H 0.33322 0.55752 0.8591 0.0
H947 H 0.35152 0.54717 0.80674 0.0
H948 H 0.38653 0.60378 0.75094 0.0
C949 C 0.41528 0.55379 0.65534 0.0
C950 C 0.4048 0.53962 0.7429 0.0
C951 C 0.42397 0.54282 0.62695 0.0
C952 C 0.34593 0.56915 0.8487 0.0
C953 C 0.35646 0.56322 0.81873 0.0
C954 C 0.39167 0.58584 0.74913 0.0
C955 C 0.42236 0.5467 0.68718 0.0
C956 C 0.41038 0.55521 0.71747 0.0
C957 C 0.37333 0.57765 0.80465 0.0
C958 C 0.38605 0.57014 0.77445 0.0
H959 H 0.46022 0.50459 0.6645 0.0
H960 H 0.4458 0.52416 0.71392 0.0
H961 H 0.40775 0.59088 0.70177 0.0
H962 H 0.37312 0.62054 0.8628 0.0
H963 H 0.39175 0.61005 0.81056 0.0
C964 C 0.48995 0.40501 0.63853 0.0
C965 C 0.48095 0.42535 0.62467 0.0
C966 C 0.47743 0.39256 0.66202 0.0
C967 C 0.41888 0.38608 0.69949 0.0
H968 H 0.45395 0.35916 0.7718 0.0
C969 C 0.37814 0.35318 0.82215 0.0
C970 C 0.38619 0.3319 0.83424 0.0
C971 C 0.38866 0.36357 0.79478 0.0
C972 C 0.44393 0.36637 0.7516 0.0
H973 H 0.45152 0.44825 0.62452 0.0
H974 H 0.42983 0.42705 0.6661 0.0
H975 H 0.47409 0.37932 0.72768 0.0
H976 H 0.41145 0.30477 0.82701 0.0
H977 H 0.42996 0.32304 0.77935 0.0
H978 H 0.38864 0.37363 0.7244 0.0
C979 C 0.44641 0.42037 0.6583 0.0
C980 C 0.45547 0.37788 0.72615 0.0
C981 C 0.45889 0.43267 0.63444 0.0
C982 C 0.40479 0.3211 0.81813 0.0
C983 C 0.41548 0.33163 0.79103 0.0
C984 C 0.40731 0.37477 0.72523 0.0
C985 C 0.45566 0.40028 0.67275 0.0
C986 C 0.44314 0.38785 0.69966 0.0
C987 C 0.40763 0.35304 0.7792 0.0
C988 C 0.41974 0.36476 0.75151 0.0
H989 H 0.50681 0.39867 0.63129 0.0
H990 H 0.48492 0.37688 0.67185 0.0
H991 H 0.4088 0.39322 0.67932 0.0
H992 H 0.36371 0.36181 0.8339 0.0
H993 H 0.38233 0.38014 0.78634 0.0
C994 C 0.56585 0.45901 0.63618 0.0
C995 C 0.56517 0.48326 0.63469 0.0
C996 C 0.57718 0.44788 0.66244 0.0
C997 C 0.62239 0.4579 0.72532 0.0
H998 H 0.59181 0.4105 0.77681 0.0
C999 C 0.6501 0.43673 0.85829 0.0
C1000 C 0.64953 0.41369 0.86905 0.0
C1001 C 0.64143 0.44271 0.82715 0.0
C1002 C 0.60077 0.42341 0.76235 0.0
H1003 H 0.57577 0.51477 0.66011 0.0
H1004 H 0.5954 0.49548 0.70527 0.0
H1005 H 0.57341 0.42516 0.72636 0.0
H1006 H 0.63951 0.37881 0.85537 0.0
H1007 H 0.62459 0.38926 0.80059 0.0
H1008 H 0.64955 0.45653 0.76132 0.0
C1009 C 0.58739 0.48502 0.68605 0.0
C1010 C 0.59022 0.4318 0.73349 0.0
C1011 C 0.57596 0.49606 0.66015 0.0
C1012 C 0.64036 0.39669 0.84769 0.0
C1013 C 0.63161 0.4027 0.81647 0.0
C1014 C 0.63295 0.44948 0.75398 0.0
C1015 C 0.58828 0.46084 0.68741 0.0
C1016 C 0.60066 0.44958 0.71525 0.0
C1017 C 0.63198 0.42581 0.8059 0.0
C1018 C 0.62199 0.43261 0.77335 0.0
H1019 H 0.55789 0.44862 0.61707 0.0
H1020 H 0.57763 0.42918 0.66289 0.0
H1021 H 0.63103 0.4713 0.71136 0.0
H1022 H 0.65728 0.45019 0.87399 0.0
H1023 H 0.64171 0.46072 0.82 0.0
C1024 C 0.61461 0.48328 0.42875 0.0
C1025 C 0.59281 0.49373 0.42575 0.0
C1026 C 0.62464 0.47206 0.40163 0.0
C1027 C 0.61101 0.44501 0.32092 0.0
H1028 H 0.67572 0.45629 0.30228 0.0
C1029 C 0.65376 0.41402 0.19954 0.0
C1030 C 0.67615 0.40479 0.2018 0.0
C1031 C 0.64366 0.42496 0.22684 0.0
C1032 C 0.65771 0.45273 0.30735 0.0
H1033 H 0.56423 0.50018 0.39207 0.0
H1034 H 0.58177 0.48059 0.34474 0.0
H1035 H 0.65779 0.47464 0.35029 0.0
H1036 H 0.70565 0.40023 0.23446 0.0
H1037 H 0.68784 0.41884 0.28231 0.0
H1038 H 0.61092 0.423 0.27812 0.0
C1039 C 0.59106 0.48102 0.36812 0.0
C1040 C 0.64744 0.46325 0.33485 0.0
C1041 C 0.58107 0.49234 0.3952 0.0
C1042 C 0.68827 0.40692 0.23197 0.0
C1043 C 0.67816 0.41784 0.25929 0.0
C1044 C 0.6213 0.43442 0.29347 0.0
C1045 C 0.61304 0.47092 0.37097 0.0
C1046 C 0.62397 0.45953 0.34192 0.0
C1047 C 0.65569 0.4269 0.2571 0.0
C1048 C 0.64476 0.43817 0.28632 0.0
H1049 H 0.62407 0.48395 0.45197 0.0
H1050 H 0.64145 0.46416 0.40472 0.0
H1051 H 0.59298 0.44156 0.32597 0.0
H1052 H 0.64383 0.41246 0.1768 0.0
H1053 H 0.62644 0.43201 0.22415 0.0
C1054 C 0.50557 0.62168 0.4178 0.0
C1055 C 0.49628 0.59932 0.41503 0.0
C1056 C 0.51669 0.63191 0.39088 0.0
C1057 C 0.54605 0.61804 0.31228 0.0
H1058 H 0.53518 0.68265 0.29269 0.0
C1059 C 0.58124 0.66115 0.19391 0.0
C1060 C 0.59053 0.6835 0.19722 0.0
C1061 C 0.56929 0.65096 0.22012 0.0
C1062 C 0.53859 0.66466 0.29804 0.0
H1063 H 0.49136 0.57014 0.38176 0.0
H1064 H 0.51068 0.58809 0.33466 0.0
H1065 H 0.51517 0.66461 0.33903 0.0
H1066 H 0.59422 0.71278 0.23057 0.0
H1067 H 0.57375 0.69481 0.27658 0.0
H1068 H 0.56956 0.6181 0.27142 0.0
C1069 C 0.50955 0.59761 0.3578 0.0
C1070 C 0.52711 0.65432 0.32458 0.0
C1071 C 0.49838 0.58738 0.38473 0.0
C1072 C 0.58747 0.69546 0.22732 0.0
C1073 C 0.57552 0.68526 0.25356 0.0
C1074 C 0.55755 0.62839 0.28576 0.0
C1075 C 0.51881 0.62 0.36057 0.0
C1076 C 0.53075 0.6309 0.33205 0.0
C1077 C 0.56636 0.66285 0.2503 0.0
C1078 C 0.55398 0.65183 0.27836 0.0
H1079 H 0.50432 0.63133 0.44081 0.0
H1080 H 0.52391 0.64905 0.39396 0.0
H1081 H 0.54949 0.60006 0.31768 0.0
H1082 H 0.58351 0.65134 0.17121 0.0
H1083 H 0.56224 0.63378 0.21666 0.0
C1084 C 0.41764 0.53453 0.41748 0.0
C1085 C 0.42259 0.51077 0.41747 0.0
C1086 C 0.40723 0.54479 0.3899 0.0
C1087 C 0.3713 0.53061 0.31693 0.0
H1088 H 0.39004 0.59127 0.28667 0.0
C1089 C 0.33514 0.57137 0.19679 0.0
C1090 C 0.32972 0.59501 0.19794 0.0
C1091 C 0.34688 0.56092 0.22312 0.0
C1092 C 0.38444 0.57442 0.29503 0.0
H1093 H 0.42103 0.47927 0.38815 0.0
H1094 H 0.40306 0.49724 0.33996 0.0
H1095 H 0.41026 0.57345 0.33317 0.0
H1096 H 0.33256 0.62626 0.22759 0.0
H1097 H 0.35257 0.60796 0.27377 0.0
H1098 H 0.34539 0.53162 0.27895 0.0
C1099 C 0.4069 0.50786 0.36149 0.0
C1100 C 0.39605 0.56421 0.32166 0.0
C1101 C 0.41734 0.4976 0.38904 0.0
C1102 C 0.33623 0.60795 0.22607 0.0
C1103 C 0.34798 0.59753 0.25236 0.0
C1104 C 0.35969 0.54083 0.29032 0.0
C1105 C 0.40153 0.53152 0.36172 0.0
C1106 C 0.38956 0.54222 0.33297 0.0
C1107 C 0.35349 0.57391 0.25117 0.0
C1108 C 0.36607 0.56288 0.27913 0.0
H1109 H 0.42149 0.54518 0.43897 0.0
H1110 H 0.40313 0.56303 0.39099 0.0
H1111 H 0.36564 0.51381 0.32538 0.0
H1112 H 0.33019 0.56087 0.17562 0.0
H1113 H 0.35104 0.54273 0.2213 0.0
C1114 C 0.50377 0.42754 0.38016 0.0
C1115 C 0.50508 0.41286 0.40781 0.0
C1116 C 0.49383 0.41982 0.35041 0.0
C1117 C 0.47937 0.36655 0.30398 0.0
H1118 H 0.4391 0.40695 0.25371 0.0
C1119 C 0.42796 0.3347 0.18918 0.0
C1120 C 0.42681 0.34963 0.16179 0.0
C1121 C 0.43714 0.34232 0.21948 0.0
C1122 C 0.45051 0.39553 0.26726 0.0
H1123 H 0.49683 0.37858 0.42589 0.0
H1124 H 0.47942 0.36521 0.37411 0.0
H1125 H 0.45587 0.4205 0.30588 0.0
H1126 H 0.43409 0.38444 0.14504 0.0
H1127 H 0.45052 0.39755 0.19756 0.0
H1128 H 0.47411 0.34161 0.2653 0.0
C1129 C 0.4863 0.3826 0.3753 0.0
C1130 C 0.46012 0.40331 0.29717 0.0
C1131 C 0.49618 0.39033 0.40506 0.0
C1132 C 0.43497 0.37239 0.16549 0.0
C1133 C 0.44413 0.38 0.19576 0.0
C1134 C 0.46978 0.35878 0.27404 0.0
C1135 C 0.48504 0.39724 0.3476 0.0
C1136 C 0.47469 0.38892 0.31587 0.0
C1137 C 0.44535 0.36507 0.22313 0.0
C1138 C 0.45527 0.37319 0.25526 0.0
H1139 H 0.51049 0.44498 0.38142 0.0
H1140 H 0.49337 0.43145 0.32943 0.0
H1141 H 0.49079 0.35515 0.31753 0.0
H1142 H 0.42202 0.317 0.18711 0.0
H1143 H 0.4376 0.33042 0.24015 0.0
loop_
_geom_bond_atom_site_label_1
_geom_bond_atom_site_label_2
_geom_bond_distance
_geom_bond_site_symmetry_2
_ccdc_geom_bond_type
Zn0 O2 1.933 1_556 S
Zn0 O20 1.985 . S
Zn0 O31 1.955 . S
Zn1 O2 1.911 . S
Zn1 O21 1.970 . S
Zn1 O37 1.945 . S
Zn1 O44 1.981 . S
O2 Zn0 1.933 1_554 S
O2 Zn1 1.911 . S
O2 H3 0.841 1_655 S
H3 O2 0.841 1_455 S
C4 O5 1.246 . S
C4 O33 1.276 1_545 S
O5 C4 1.246 . S
Zn6 O8 1.911 . S
Zn6 O23 1.970 . S
Zn6 O40 1.945 . S
Zn6 O47 1.981 . S
Zn7 O8 1.933 1_556 S
Zn7 O22 1.985 . S
Zn7 O29 1.955 . S
O8 Zn6 1.911 . S
O8 Zn7 1.933 1_554 S
O8 H9 0.841 1_455 S
H9 O8 0.841 1_655 S
Zn10 O11 1.933 1_556 S
Zn10 O24 1.985 . S
Zn10 O33 1.955 . S
O11 Zn10 1.933 1_554 S
O11 Zn12 1.911 . S
O11 H13 0.841 1_565 S
Zn12 O11 1.911 . S
Zn12 O25 1.970 . S
Zn12 O41 1.981 . S
Zn12 O43 1.945 . S
H13 O11 0.841 1_545 S
Zn14 O15 1.933 1_556 S
Zn14 O27 1.992 . S
Zn14 O35 1.955 . S
O15 Zn14 1.933 1_554 S
O15 H16 0.841 1_545 S
O15 Zn17 1.911 . S
H16 O15 0.841 1_565 S
Zn17 O15 1.911 . S
Zn17 O28 1.970 . S
Zn17 O38 1.981 . S
Zn17 O46 1.945 . S
C18 O19 1.246 . S
C18 O35 1.276 1_565 S
O19 C18 1.246 . S
O20 Zn0 1.985 . S
O20 C30 1.245 1_556 S
O21 Zn1 1.970 . S
O21 C30 1.263 . S
O22 Zn7 1.985 . S
O22 C34 1.245 1_556 S
O23 Zn6 1.970 . S
O23 C34 1.263 . S
O24 Zn10 1.985 . S
O24 C39 1.245 1_556 S
O25 Zn12 1.970 . S
O25 C39 1.263 . S
C26 O37 1.262 1_455 S
C26 O38 1.245 . S
O27 Zn14 1.992 . S
O27 C45 1.217 1_556 S
O28 Zn17 1.970 . S
O28 C45 1.263 . S
O29 Zn7 1.955 . S
O29 C48 1.276 1_455 S
C30 O20 1.245 1_554 S
C30 O21 1.263 . S
O31 Zn0 1.955 . S
O31 C50 1.276 1_655 S
C32 O40 1.262 1_655 S
C32 O41 1.245 . S
O33 C4 1.276 1_565 S
O33 Zn10 1.955 . S
C34 O22 1.245 1_554 S
C34 O23 1.263 . S
O35 Zn14 1.955 . S
O35 C18 1.276 1_545 S
C36 O43 1.262 1_545 S
C36 O44 1.245 . S
O37 Zn1 1.945 . S
O37 C26 1.262 1_655 S
O38 Zn17 1.981 . S
O38 C26 1.245 . S
C39 O24 1.245 1_554 S
C39 O25 1.263 . S
O40 Zn6 1.945 . S
O40 C32 1.262 1_455 S
O41 Zn12 1.981 . S
O41 C32 1.245 . S
C42 O46 1.262 1_565 S
C42 O47 1.245 . S
O43 Zn12 1.945 . S
O43 C36 1.262 1_565 S
O44 Zn1 1.981 . S
O44 C36 1.245 . S
C45 O27 1.217 1_554 S
C45 O28 1.263 . S
O46 Zn17 1.945 . S
O46 C42 1.262 1_545 S
O47 Zn6 1.981 . S
O47 C42 1.245 . S
C48 O29 1.276 1_655 S
C48 O49 1.246 . S
O49 C48 1.246 . S
C50 O31 1.276 1_455 S
C50 O51 1.246 . S
O51 C50 1.246 . S
Zn52 O54 1.933 . S
Zn52 O72 1.985 . S
Zn52 O83 1.955 . S
Zn53 O54 1.911 . S
Zn53 O73 1.970 . S
Zn53 O89 1.945 . S
Zn53 O96 1.981 . S
O54 Zn52 1.933 . S
O54 Zn53 1.911 . S
O54 H55 0.841 . S
H55 O54 0.841 . S
C56 O57 1.246 . S
C56 O85 1.276 . S
O57 C56 1.246 . S
Zn58 O60 1.911 . S
Zn58 O75 1.970 . S
Zn58 O92 1.945 . S
Zn58 O99 1.981 . S
Zn59 O60 1.933 . S
Zn59 O74 1.985 . S
Zn59 O81 1.955 . S
O60 Zn58 1.911 . S
O60 Zn59 1.933 . S
O60 H61 0.841 . S
H61 O60 0.841 . S
Zn62 O63 1.933 . S
Zn62 O76 1.985 . S
Zn62 O85 1.955 . S
O63 Zn62 1.933 . S
O63 Zn64 1.911 . S
O63 H65 0.841 . S
Zn64 O63 1.911 . S
Zn64 O77 1.970 . S
Zn64 O93 1.981 . S
Zn64 O95 1.945 . S
H65 O63 0.841 . S
Zn66 O67 1.933 . S
Zn66 O79 1.985 . S
Zn66 O87 1.955 . S
O67 Zn66 1.933 . S
O67 H68 0.841 . S
O67 Zn69 1.911 . S
H68 O67 0.841 . S
Zn69 O67 1.911 . S
Zn69 O80 1.970 . S
Zn69 O90 1.981 . S
Zn69 O98 1.945 . S
C70 O71 1.246 . S
C70 O87 1.276 . S
O71 C70 1.246 . S
O72 Zn52 1.985 . S
O72 C82 1.245 . S
O73 Zn53 1.970 . S
O73 C82 1.263 . S
O74 Zn59 1.985 . S
O74 C86 1.245 . S
O75 Zn58 1.970 . S
O75 C86 1.263 . S
O76 Zn62 1.985 . S
O76 C91 1.245 . S
O77 Zn64 1.970 . S
O77 C91 1.263 . S
C78 O89 1.262 . S
C78 O90 1.245 . S
O79 Zn66 1.985 . S
O79 C97 1.245 . S
O80 Zn69 1.970 . S
O80 C97 1.263 . S
O81 Zn59 1.955 . S
O81 C100 1.276 . S
C82 O72 1.245 . S
C82 O73 1.263 . S
O83 Zn52 1.955 . S
O83 C102 1.276 . S
C84 O92 1.262 . S
C84 O93 1.245 . S
O85 C56 1.276 . S
O85 Zn62 1.955 . S
C86 O74 1.245 . S
C86 O75 1.263 . S
O87 Zn66 1.955 . S
O87 C70 1.276 . S
C88 O95 1.262 . S
C88 O96 1.245 . S
O89 Zn53 1.945 . S
O89 C78 1.262 . S
O90 Zn69 1.981 . S
O90 C78 1.245 . S
C91 O76 1.245 . S
C91 O77 1.263 . S
O92 Zn58 1.945 . S
O92 C84 1.262 . S
O93 Zn64 1.981 . S
O93 C84 1.245 . S
C94 O98 1.262 . S
C94 O99 1.245 . S
O95 Zn64 1.945 . S
O95 C88 1.262 . S
O96 Zn53 1.981 . S
O96 C88 1.245 . S
C97 O79 1.245 . S
C97 O80 1.263 . S
O98 Zn69 1.945 . S
O98 C94 1.262 . S
O99 Zn58 1.981 . S
O99 C94 1.245 . S
C100 O81 1.276 . S
C100 O101 1.246 . S
O101 C100 1.246 . S
C102 O83 1.276 . S
C102 O103 1.246 . S
O103 C102 1.246 . S
C104 C105 1.264 . S
C104 C109 1.479 . S
C104 C114 1.465 . S
C105 C104 1.264 . S
C105 C107 1.339 . S
C105 H132 0.931 . S
C106 C107 1.395 . S
C106 C108 1.320 . S
C107 C105 1.339 . S
C107 C106 1.395 . S
C107 H133 0.929 . S
C108 C106 1.320 . S
C108 C109 1.405 . S
C108 H134 0.930 . S
C109 C104 1.479 . S
C109 C108 1.405 . S
C109 H135 0.931 . S
U110 O111 2.454 1_554 S
U110 O112 2.458 . S
U110 C113 2.984 . S
U110 C114 2.847 1_554 S
U110 C127 2.882 . S
U110 O128 2.441 1_554 S
U110 O129 2.420 1_554 S
U110 O130 2.455 . S
U110 O131 2.449 . S
O111 U110 2.454 1_556 S
O111 C113 1.353 1_556 S
O112 U110 2.458 . S
O112 C113 1.286 . S
C113 U110 2.984 . S
C113 O111 1.353 1_554 S
C113 O112 1.286 . S
C113 C115 1.363 . S
C114 C104 1.465 . S
C114 U110 2.847 1_556 S
C114 O128 1.249 . S
C114 O129 1.202 . S
C115 C113 1.363 . S
C115 C117 1.408 1_554 S
C115 C120 1.342 . S
C116 C117 1.310 . S
C116 C119 1.461 1_556 S
C116 H136 0.932 . S
C117 C115 1.408 1_556 S
C117 C116 1.310 . S
C117 H137 0.930 . S
C118 C119 1.474 . S
C118 C120 1.285 . S
C118 H138 0.929 . S
C119 C116 1.461 1_554 S
C119 C118 1.474 . S
C120 C115 1.342 . S
C120 C118 1.285 . S
C120 H139 0.930 . S
C121 C124 1.424 . S
C121 C126 1.245 . S
C121 C127 1.428 . S
C122 C125 1.260 . S
C122 C126 1.477 . S
C122 H140 0.932 . S
C123 C124 1.384 . S
C123 C125 1.479 . S
C123 H141 0.929 . S
C124 C121 1.424 . S
C124 C123 1.384 . S
C124 H142 0.928 . S
C125 C122 1.260 . S
C125 C123 1.479 . S
C126 C121 1.245 . S
C126 C122 1.477 . S
C126 H143 0.932 . S
C127 U110 2.882 . S
C127 C121 1.428 . S
C127 O130 1.301 . S
C127 O131 1.282 . S
O128 U110 2.441 1_556 S
O128 C114 1.249 . S
O129 U110 2.420 1_556 S
O129 C114 1.202 . S
O130 U110 2.455 . S
O130 C127 1.301 . S
O131 U110 2.449 . S
O131 C127 1.282 . S
H132 C105 0.931 . S
H133 C107 0.929 . S
H134 C108 0.930 . S
H135 C109 0.931 . S
H136 C116 0.932 . S
H137 C117 0.930 . S
H138 C118 0.929 . S
H139 C120 0.930 . S
H140 C122 0.932 . S
H141 C123 0.929 . S
H142 C124 0.928 . S
H143 C126 0.932 . S
C144 C145 1.264 . S
C144 C149 1.479 . S
C144 C154 1.465 . S
C145 C144 1.264 . S
C145 C147 1.339 . S
C145 H172 0.931 . S
C146 C147 1.395 . S
C146 C148 1.320 . S
C147 C145 1.339 . S
C147 C146 1.395 . S
C147 H173 0.929 . S
C148 C146 1.320 . S
C148 C149 1.405 . S
C148 H174 0.930 . S
C149 C144 1.479 . S
C149 C148 1.405 . S
C149 H175 0.931 . S
U150 O151 2.454 . S
U150 O152 2.470 . S
U150 C153 2.984 . S
U150 C154 2.847 . S
U150 C167 2.882 1_554 S
U150 O168 2.441 . S
U150 O169 2.420 . S
U150 O170 2.455 1_554 S
U150 O171 2.449 1_554 S
O151 U150 2.454 . S
O151 C153 1.353 . S
O152 U150 2.470 . S
O152 C153 1.306 . S
C153 U150 2.984 . S
C153 O151 1.353 . S
C153 O152 1.306 . S
C153 C155 1.363 . S
C154 C144 1.465 . S
C154 U150 2.847 . S
C154 O168 1.249 . S
C154 O169 1.202 . S
C155 C153 1.363 . S
C155 C157 1.408 . S
C155 C160 1.342 1_554 S
C156 C157 1.310 . S
C156 C159 1.461 . S
C156 H176 0.932 . S
C157 C155 1.408 . S
C157 C156 1.310 . S
C157 H177 0.930 . S
C158 C159 1.474 1_556 S
C158 C160 1.285 . S
C158 H178 0.929 . S
C159 C156 1.461 . S
C159 C158 1.474 1_554 S
C160 C155 1.342 1_556 S
C160 C158 1.285 . S
C160 H179 0.930 . S
C161 C164 1.424 . S
C161 C166 1.245 . S
C161 C167 1.428 . S
C162 C165 1.260 . S
C162 C166 1.477 . S
C162 H180 0.932 . S
C163 C164 1.384 . S
C163 C165 1.479 . S
C163 H181 0.929 . S
C164 C161 1.424 . S
C164 C163 1.384 . S
C164 H182 0.928 . S
C165 C162 1.260 . S
C165 C163 1.479 . S
C166 C161 1.245 . S
C166 C162 1.477 . S
C166 H183 0.932 . S
C167 U150 2.882 1_556 S
C167 C161 1.428 . S
C167 O170 1.301 . S
C167 O171 1.282 . S
O168 U150 2.441 . S
O168 C154 1.249 . S
O169 U150 2.420 . S
O169 C154 1.202 . S
O170 U150 2.455 1_556 S
O170 C167 1.301 . S
O171 U150 2.449 1_556 S
O171 C167 1.282 . S
H172 C145 0.931 . S
H173 C147 0.929 . S
H174 C148 0.930 . S
H175 C149 0.931 . S
H176 C156 0.932 . S
H177 C157 0.930 . S
H178 C158 0.929 . S
H179 C160 0.930 . S
H180 C162 0.932 . S
H181 C163 0.929 . S
H182 C164 0.928 . S
H183 C166 0.932 . S
C184 C185 1.264 . S
C184 C189 1.479 . S
C184 C194 1.465 . S
C185 C184 1.264 . S
C185 C187 1.339 . S
C185 H212 0.931 . S
C186 C187 1.395 . S
C186 C188 1.320 . S
C187 C185 1.339 . S
C187 C186 1.395 . S
C187 H213 0.929 . S
C188 C186 1.320 . S
C188 C189 1.405 . S
C188 H214 0.930 . S
C189 C184 1.479 . S
C189 C188 1.405 . S
C189 H215 0.931 . S
U190 O191 2.454 . S
U190 O192 2.469 . S
U190 C193 2.984 . S
U190 C194 2.847 . S
U190 C207 2.882 1_554 S
U190 O208 2.441 . S
U190 O209 2.420 . S
U190 O210 2.455 1_554 S
U190 O211 2.449 1_554 S
O191 U190 2.454 . S
O191 C193 1.353 . S
O192 U190 2.469 . S
O192 C193 1.306 . S
C193 U190 2.984 . S
C193 O191 1.353 . S
C193 O192 1.306 . S
C193 C195 1.363 . S
C194 C184 1.465 . S
C194 U190 2.847 . S
C194 O208 1.249 . S
C194 O209 1.202 . S
C195 C193 1.363 . S
C195 C197 1.408 . S
C195 C200 1.342 1_554 S
C196 C197 1.310 . S
C196 C199 1.461 . S
C196 H216 0.932 . S
C197 C195 1.408 . S
C197 C196 1.310 . S
C197 H217 0.930 . S
C198 C199 1.474 1_556 S
C198 C200 1.285 . S
C198 H218 0.929 . S
C199 C196 1.461 . S
C199 C198 1.474 1_554 S
C200 C195 1.342 1_556 S
C200 C198 1.285 . S
C200 H219 0.930 . S
C201 C204 1.424 . S
C201 C206 1.245 . S
C201 C207 1.428 . S
C202 C205 1.260 . S
C202 C206 1.477 . S
C202 H220 0.932 . S
C203 C204 1.384 . S
C203 C205 1.479 . S
C203 H221 0.929 . S
C204 C201 1.424 . S
C204 C203 1.384 . S
C204 H222 0.928 . S
C205 C202 1.260 . S
C205 C203 1.479 . S
C206 C201 1.245 . S
C206 C202 1.477 . S
C206 H223 0.932 . S
C207 U190 2.882 1_556 S
C207 C201 1.428 . S
C207 O210 1.301 . S
C207 O211 1.282 . S
O208 U190 2.441 . S
O208 C194 1.249 . S
O209 U190 2.420 . S
O209 C194 1.202 . S
O210 U190 2.455 1_556 S
O210 C207 1.301 . S
O211 U190 2.449 1_556 S
O211 C207 1.282 . S
H212 C185 0.931 . S
H213 C187 0.929 . S
H214 C188 0.930 . S
H215 C189 0.931 . S
H216 C196 0.932 . S
H217 C197 0.930 . S
H218 C198 0.929 . S
H219 C200 0.930 . S
H220 C202 0.932 . S
H221 C203 0.929 . S
H222 C204 0.928 . S
H223 C206 0.932 . S
C224 C225 1.264 . S
C224 C229 1.479 . S
C224 C234 1.465 . S
C225 C224 1.264 . S
C225 C227 1.339 . S
C225 H252 0.931 . S
C226 C227 1.395 . S
C226 C228 1.320 . S
C227 C225 1.339 . S
C227 C226 1.395 . S
C227 H253 0.929 . S
C228 C226 1.320 . S
C228 C229 1.405 . S
C228 H254 0.930 . S
C229 C224 1.479 . S
C229 C228 1.405 . S
C229 H255 0.931 . S
U230 O231 2.454 . S
U230 O232 2.448 1_554 S
U230 C233 2.984 . S
U230 C234 2.847 . S
U230 C247 2.882 1_554 S
U230 O248 2.441 . S
U230 O249 2.420 . S
U230 O250 2.455 1_554 S
U230 O251 2.449 1_554 S
O231 U230 2.454 . S
O231 C233 1.353 . S
O232 U230 2.448 1_556 S
O232 C233 1.268 1_556 S
C233 U230 2.984 . S
C233 O231 1.353 . S
C233 O232 1.268 1_554 S
C233 C235 1.363 . S
C234 C224 1.465 . S
C234 U230 2.847 . S
C234 O248 1.249 . S
C234 O249 1.202 . S
C235 C233 1.363 . S
C235 C237 1.408 . S
C235 C240 1.342 1_554 S
C236 C237 1.310 . S
C236 C239 1.461 . S
C236 H256 0.932 . S
C237 C235 1.408 . S
C237 C236 1.310 . S
C237 H257 0.930 . S
C238 C239 1.474 1_556 S
C238 C240 1.285 . S
C238 H258 0.929 . S
C239 C236 1.461 . S
C239 C238 1.474 1_554 S
C240 C235 1.342 1_556 S
C240 C238 1.285 . S
C240 H259 0.930 . S
C241 C244 1.424 . S
C241 C246 1.245 . S
C241 C247 1.428 . S
C242 C245 1.260 . S
C242 C246 1.477 . S
C242 H260 0.932 . S
C243 C244 1.384 . S
C243 C245 1.479 . S
C243 H261 0.929 . S
C244 C241 1.424 . S
C244 C243 1.384 . S
C244 H262 0.928 . S
C245 C242 1.260 . S
C245 C243 1.479 . S
C246 C241 1.245 . S
C246 C242 1.477 . S
C246 H263 0.932 . S
C247 U230 2.882 1_556 S
C247 C241 1.428 . S
C247 O250 1.301 . S
C247 O251 1.282 . S
O248 U230 2.441 . S
O248 C234 1.249 . S
O249 U230 2.420 . S
O249 C234 1.202 . S
O250 U230 2.455 1_556 S
O250 C247 1.301 . S
O251 U230 2.449 1_556 S
O251 C247 1.282 . S
H252 C225 0.931 . S
H253 C227 0.929 . S
H254 C228 0.930 . S
H255 C229 0.931 . S
H256 C236 0.932 . S
H257 C237 0.930 . S
H258 C238 0.929 . S
H259 C240 0.930 . S
H260 C242 0.932 . S
H261 C243 0.929 . S
H262 C244 0.928 . S
H263 C246 0.932 . S
C264 C265 1.264 . S
C264 C269 1.479 . S
C264 C274 1.465 . S
C265 C264 1.264 . S
C265 C267 1.339 . S
C265 H292 0.931 . S
C266 C267 1.395 . S
C266 C268 1.320 . S
C267 C265 1.339 . S
C267 C266 1.395 . S
C267 H293 0.929 . S
C268 C266 1.320 . S
C268 C269 1.405 . S
C268 H294 0.930 . S
C269 C264 1.479 . S
C269 C268 1.405 . S
C269 H295 0.931 . S
U270 O271 2.454 . S
U270 O272 2.458 . S
U270 C273 2.984 . S
U270 C274 2.847 . S
U270 C287 2.882 . S
U270 O288 2.441 . S
U270 O289 2.420 . S
U270 O290 2.455 . S
U270 O291 2.449 . S
O271 U270 2.454 . S
O271 C273 1.353 . S
O272 U270 2.458 . S
O272 C273 1.286 . S
C273 U270 2.984 . S
C273 O271 1.353 . S
C273 O272 1.286 . S
C273 C275 1.363 . S
C274 C264 1.465 . S
C274 U270 2.847 . S
C274 O288 1.249 . S
C274 O289 1.202 . S
C275 C273 1.363 . S
C275 C277 1.408 . S
C275 C280 1.342 . S
C276 C277 1.310 . S
C276 C279 1.461 . S
C276 H296 0.932 . S
C277 C275 1.408 . S
C277 C276 1.310 . S
C277 H297 0.930 . S
C278 C279 1.474 . S
C278 C280 1.285 . S
C278 H298 0.929 . S
C279 C276 1.461 . S
C279 C278 1.474 . S
C280 C275 1.342 . S
C280 C278 1.285 . S
C280 H299 0.930 . S
C281 C284 1.424 . S
C281 C286 1.245 . S
C281 C287 1.428 . S
C282 C285 1.260 . S
C282 C286 1.477 . S
C282 H300 0.932 . S
C283 C284 1.384 . S
C283 C285 1.479 . S
C283 H301 0.929 . S
C284 C281 1.424 . S
C284 C283 1.384 . S
C284 H302 0.928 . S
C285 C282 1.260 . S
C285 C283 1.479 . S
C286 C281 1.245 . S
C286 C282 1.477 . S
C286 H303 0.932 . S
C287 U270 2.882 . S
C287 C281 1.428 . S
C287 O290 1.301 . S
C287 O291 1.282 . S
O288 U270 2.441 . S
O288 C274 1.249 . S
O289 U270 2.420 . S
O289 C274 1.202 . S
O290 U270 2.455 . S
O290 C287 1.301 . S
O291 U270 2.449 . S
O291 C287 1.282 . S
H292 C265 0.931 . S
H293 C267 0.929 . S
H294 C268 0.930 . S
H295 C269 0.931 . S
H296 C276 0.932 . S
H297 C277 0.930 . S
H298 C278 0.929 . S
H299 C280 0.930 . S
H300 C282 0.932 . S
H301 C283 0.929 . S
H302 C284 0.928 . S
H303 C286 0.932 . S
C304 C305 1.264 . S
C304 C309 1.479 . S
C304 C314 1.465 . S
C305 C304 1.264 . S
C305 C307 1.339 . S
C305 H332 0.931 . S
C306 C307 1.395 . S
C306 C308 1.320 . S
C307 C305 1.339 . S
C307 C306 1.395 . S
C307 H333 0.929 . S
C308 C306 1.320 . S
C308 C309 1.405 . S
C308 H334 0.930 . S
C309 C304 1.479 . S
C309 C308 1.405 . S
C309 H335 0.931 . S
U310 O311 2.454 . S
U310 O312 2.458 . S
U310 C313 2.984 . S
U310 C314 2.847 . S
U310 C327 2.882 . S
U310 O328 2.441 . S
U310 O329 2.420 . S
U310 O330 2.455 . S
U310 O331 2.449 . S
O311 U310 2.454 . S
O311 C313 1.353 . S
O312 U310 2.458 . S
O312 C313 1.286 . S
C313 U310 2.984 . S
C313 O311 1.353 . S
C313 O312 1.286 . S
C313 C315 1.363 . S
C314 C304 1.465 . S
C314 U310 2.847 . S
C314 O328 1.249 . S
C314 O329 1.202 . S
C315 C313 1.363 . S
C315 C317 1.408 . S
C315 C320 1.342 . S
C316 C317 1.310 . S
C316 C319 1.461 . S
C316 H336 0.932 . S
C317 C315 1.408 . S
C317 C316 1.310 . S
C317 H337 0.930 . S
C318 C319 1.474 . S
C318 C320 1.285 . S
C318 H338 0.929 . S
C319 C316 1.461 . S
C319 C318 1.474 . S
C320 C315 1.342 . S
C320 C318 1.285 . S
C320 H339 0.930 . S
C321 C324 1.424 . S
C321 C326 1.245 . S
C321 C327 1.428 . S
C322 C325 1.260 . S
C322 C326 1.477 . S
C322 H340 0.932 . S
C323 C324 1.384 . S
C323 C325 1.479 . S
C323 H341 0.929 . S
C324 C321 1.424 . S
C324 C323 1.384 . S
C324 H342 0.928 . S
C325 C322 1.260 . S
C325 C323 1.479 . S
C326 C321 1.245 . S
C326 C322 1.477 . S
C326 H343 0.932 . S
C327 U310 2.882 . S
C327 C321 1.428 . S
C327 O330 1.301 . S
C327 O331 1.282 . S
O328 U310 2.441 . S
O328 C314 1.249 . S
O329 U310 2.420 . S
O329 C314 1.202 . S
O330 U310 2.455 . S
O330 C327 1.301 . S
O331 U310 2.449 . S
O331 C327 1.282 . S
H332 C305 0.931 . S
H333 C307 0.929 . S
H334 C308 0.930 . S
H335 C309 0.931 . S
H336 C316 0.932 . S
H337 C317 0.930 . S
H338 C318 0.929 . S
H339 C320 0.930 . S
H340 C322 0.932 . S
H341 C323 0.929 . S
H342 C324 0.928 . S
H343 C326 0.932 . S
C344 C345 1.264 . S
C344 C349 1.479 . S
C344 C354 1.465 . S
C345 C344 1.264 . S
C345 C347 1.339 . S
C345 H372 0.931 . S
C346 C347 1.395 . S
C346 C348 1.320 . S
C347 C345 1.339 . S
C347 C346 1.395 . S
C347 H373 0.929 . S
C348 C346 1.320 . S
C348 C349 1.405 . S
C348 H374 0.930 . S
C349 C344 1.479 . S
C349 C348 1.405 . S
C349 H375 0.931 . S
U350 O351 2.454 . S
U350 O352 2.458 . S
U350 C353 2.984 . S
U350 C354 2.847 . S
U350 C367 2.882 . S
U350 O368 2.441 . S
U350 O369 2.420 . S
U350 O370 2.455 . S
U350 O371 2.449 . S
O351 U350 2.454 . S
O351 C353 1.353 . S
O352 U350 2.458 . S
O352 C353 1.286 . S
C353 U350 2.984 . S
C353 O351 1.353 . S
C353 O352 1.286 . S
C353 C355 1.363 . S
C354 C344 1.465 . S
C354 U350 2.847 . S
C354 O368 1.249 . S
C354 O369 1.202 . S
C355 C353 1.363 . S
C355 C357 1.408 . S
C355 C360 1.342 . S
C356 C357 1.310 . S
C356 C359 1.461 . S
C356 H376 0.932 . S
C357 C355 1.408 . S
C357 C356 1.310 . S
C357 H377 0.930 . S
C358 C359 1.474 . S
C358 C360 1.285 . S
C358 H378 0.929 . S
C359 C356 1.461 . S
C359 C358 1.474 . S
C360 C355 1.342 . S
C360 C358 1.285 . S
C360 H379 0.930 . S
C361 C364 1.424 . S
C361 C366 1.245 . S
C361 C367 1.428 . S
C362 C365 1.260 . S
C362 C366 1.477 . S
C362 H380 0.932 . S
C363 C364 1.384 . S
C363 C365 1.479 . S
C363 H381 0.929 . S
C364 C361 1.424 . S
C364 C363 1.384 . S
C364 H382 0.928 . S
C365 C362 1.260 . S
C365 C363 1.479 . S
C366 C361 1.245 . S
C366 C362 1.477 . S
C366 H383 0.932 . S
C367 U350 2.882 . S
C367 C361 1.428 . S
C367 O370 1.301 . S
C367 O371 1.282 . S
O368 U350 2.441 . S
O368 C354 1.249 . S
O369 U350 2.420 . S
O369 C354 1.202 . S
O370 U350 2.455 . S
O370 C367 1.301 . S
O371 U350 2.449 . S
O371 C367 1.282 . S
H372 C345 0.931 . S
H373 C347 0.929 . S
H374 C348 0.930 . S
H375 C349 0.931 . S
H376 C356 0.932 . S
H377 C357 0.930 . S
H378 C358 0.929 . S
H379 C360 0.930 . S
H380 C362 0.932 . S
H381 C363 0.929 . S
H382 C364 0.928 . S
H383 C366 0.932 . S
C384 C385 1.264 . S
C384 C389 1.479 . S
C384 C394 1.465 . S
C385 C384 1.264 . S
C385 C387 1.339 . S
C385 H412 0.931 . S
C386 C387 1.395 . S
C386 C388 1.320 . S
C387 C385 1.339 . S
C387 C386 1.395 . S
C387 H413 0.929 . S
C388 C386 1.320 . S
C388 C389 1.405 . S
C388 H414 0.930 . S
C389 C384 1.479 . S
C389 C388 1.405 . S
C389 H415 0.931 . S
U390 O391 2.454 . S
U390 O392 2.458 . S
U390 C393 2.984 . S
U390 C394 2.847 . S
U390 C407 2.882 . S
U390 O408 2.441 . S
U390 O409 2.420 . S
U390 O410 2.455 . S
U390 O411 2.449 . S
O391 U390 2.454 . S
O391 C393 1.353 . S
O392 U390 2.458 . S
O392 C393 1.286 . S
C393 U390 2.984 . S
C393 O391 1.353 . S
C393 O392 1.286 . S
C393 C395 1.363 . S
C394 C384 1.465 . S
C394 U390 2.847 . S
C394 O408 1.249 . S
C394 O409 1.202 . S
C395 C393 1.363 . S
C395 C397 1.408 . S
C395 C400 1.342 . S
C396 C397 1.310 . S
C396 C399 1.461 . S
C396 H416 0.932 . S
C397 C395 1.408 . S
C397 C396 1.310 . S
C397 H417 0.930 . S
C398 C399 1.474 . S
C398 C400 1.285 . S
C398 H418 0.929 . S
C399 C396 1.461 . S
C399 C398 1.474 . S
C400 C395 1.342 . S
C400 C398 1.285 . S
C400 H419 0.930 . S
C401 C404 1.424 . S
C401 C406 1.245 . S
C401 C407 1.428 . S
C402 C405 1.260 . S
C402 C406 1.477 . S
C402 H420 0.932 . S
C403 C404 1.384 . S
C403 C405 1.479 . S
C403 H421 0.929 . S
C404 C401 1.424 . S
C404 C403 1.384 . S
C404 H422 0.928 . S
C405 C402 1.260 . S
C405 C403 1.479 . S
C406 C401 1.245 . S
C406 C402 1.477 . S
C406 H423 0.932 . S
C407 U390 2.882 . S
C407 C401 1.428 . S
C407 O410 1.301 . S
C407 O411 1.282 . S
O408 U390 2.441 . S
O408 C394 1.249 . S
O409 U390 2.420 . S
O409 C394 1.202 . S
O410 U390 2.455 . S
O410 C407 1.301 . S
O411 U390 2.449 . S
O411 C407 1.282 . S
H412 C385 0.931 . S
H413 C387 0.929 . S
H414 C388 0.930 . S
H415 C389 0.931 . S
H416 C396 0.932 . S
H417 C397 0.930 . S
H418 C398 0.929 . S
H419 C400 0.930 . S
H420 C402 0.932 . S
H421 C403 0.929 . S
H422 C404 0.928 . S
H423 C406 0.932 . S
C424 C425 1.349 . S
C424 C426 1.327 . S
C424 H449 0.950 . S
C425 C424 1.349 . S
C425 C441 1.349 . S
C426 C424 1.327 . S
C426 C445 1.429 . S
C426 H450 0.950 . S
C427 C444 1.574 . S
C427 C446 1.368 . S
C427 H451 0.949 . S
H428 C432 0.949 . S
C429 C430 1.349 . S
C429 C431 1.327 . S
C429 H452 0.950 . S
C430 C429 1.349 . S
C430 C442 1.349 . S
C431 C429 1.327 . S
C431 C447 1.429 . S
C431 H453 0.950 . S
C432 H428 0.949 . S
C432 C440 1.574 . S
C432 C448 1.368 . S
H433 C441 0.950 . S
H434 C439 0.950 . S
H435 C440 0.949 . S
H436 C442 0.950 . S
H437 C443 0.950 . S
H438 C444 0.949 . S
C439 H434 0.950 . S
C439 C441 1.327 . S
C439 C445 1.429 . S
C440 C432 1.574 . S
C440 H435 0.949 . S
C440 C446 1.368 . S
C441 C425 1.349 . S
C441 H433 0.950 . S
C441 C439 1.327 . S
C442 C430 1.349 . S
C442 H436 0.950 . S
C442 C443 1.327 . S
C443 H437 0.950 . S
C443 C442 1.327 . S
C443 C447 1.429 . S
C444 C427 1.574 . S
C444 H438 0.949 . S
C444 C448 1.368 . S
C445 C426 1.429 . S
C445 C439 1.429 . S
C445 C446 1.523 . S
C446 C427 1.368 . S
C446 C440 1.368 . S
C446 C445 1.523 . S
C447 C431 1.429 . S
C447 C443 1.429 . S
C447 C448 1.523 . S
C448 C432 1.368 . S
C448 C444 1.368 . S
C448 C447 1.523 . S
H449 C424 0.950 . S
H450 C426 0.950 . S
H451 C427 0.949 . S
H452 C429 0.950 . S
H453 C431 0.950 . S
C454 C455 1.349 . S
C454 C456 1.327 . S
C454 H479 0.950 1_554 S
C455 C454 1.349 . S
C455 C471 1.349 . S
C456 C454 1.327 . S
C456 C475 1.429 . S
C456 H480 0.950 1_554 S
C457 C474 1.574 . S
C457 C476 1.368 . S
C457 H481 0.949 . S
H458 C462 0.949 . S
C459 C460 1.349 . S
C459 C461 1.327 . S
C459 H482 0.950 . S
C460 C459 1.349 . S
C460 C472 1.349 1_554 S
C461 C459 1.327 . S
C461 C477 1.429 . S
C461 H483 0.950 . S
C462 H458 0.949 . S
C462 C470 1.575 . S
C462 C478 1.368 1_556 S
H463 C471 0.950 . S
H464 C469 0.950 . S
H465 C470 0.972 . S
H466 C472 0.950 . S
H467 C473 0.950 . S
H468 C474 0.949 . S
C469 H464 0.950 . S
C469 C471 1.327 . S
C469 C475 1.429 . S
C470 C462 1.575 . S
C470 H465 0.972 . S
C470 C476 1.343 1_556 S
C471 C455 1.349 . S
C471 H463 0.950 . S
C471 C469 1.327 . S
C472 C460 1.349 1_556 S
C472 H466 0.950 . S
C472 C473 1.327 . S
C473 H467 0.950 . S
C473 C472 1.327 . S
C473 C477 1.429 1_556 S
C474 C457 1.574 . S
C474 H468 0.949 . S
C474 C478 1.368 . S
C475 C456 1.429 . S
C475 C469 1.429 . S
C475 C476 1.523 . S
C476 C457 1.368 . S
C476 C470 1.343 1_554 S
C476 C475 1.523 . S
C477 C461 1.429 . S
C477 C473 1.429 1_554 S
C477 C478 1.523 . S
C478 C462 1.368 1_554 S
C478 C474 1.368 . S
C478 C477 1.523 . S
H479 C454 0.950 1_556 S
H480 C456 0.950 1_556 S
H481 C457 0.949 . S
H482 C459 0.950 . S
H483 C461 0.950 . S
C484 C485 1.349 . S
C484 C486 1.327 . S
C484 H509 0.950 . S
C485 C484 1.349 . S
C485 C501 1.367 . S
C486 C484 1.327 . S
C486 C505 1.429 . S
C486 H510 0.950 . S
C487 C504 1.574 . S
C487 C506 1.368 1_556 S
C487 H511 0.949 . S
H488 C492 0.949 . S
C489 C490 1.349 1_556 S
C489 C491 1.327 . S
C489 H512 0.950 . S
C490 C489 1.349 1_554 S
C490 C502 1.349 . S
C491 C489 1.327 . S
C491 C507 1.429 1_556 S
C491 H513 0.950 . S
C492 H488 0.949 . S
C492 C500 1.574 . S
C492 C508 1.368 . S
H493 C501 0.932 1_556 S
H494 C499 0.955 . S
H495 C500 0.949 . S
H496 C502 0.950 . S
H497 C503 0.950 . S
H498 C504 0.949 . S
C499 H494 0.955 . S
C499 C501 1.327 1_556 S
C499 C505 1.423 1_556 S
C500 C492 1.574 . S
C500 H495 0.949 . S
C500 C506 1.368 . S
C501 C485 1.367 . S
C501 H493 0.932 1_554 S
C501 C499 1.327 1_554 S
C502 C490 1.349 . S
C502 H496 0.950 . S
C502 C503 1.327 . S
C503 H497 0.950 . S
C503 C502 1.327 . S
C503 C507 1.429 . S
C504 C487 1.574 . S
C504 H498 0.949 . S
C504 C508 1.368 1_556 S
C505 C486 1.429 . S
C505 C499 1.423 1_554 S
C505 C506 1.523 . S
C506 C487 1.368 1_554 S
C506 C500 1.368 . S
C506 C505 1.523 . S
C507 C491 1.429 1_554 S
C507 C503 1.429 . S
C507 C508 1.523 . S
C508 C492 1.368 . S
C508 C504 1.368 1_554 S
C508 C507 1.523 . S
H509 C484 0.950 . S
H510 C486 0.950 . S
H511 C487 0.949 . S
H512 C489 0.950 . S
H513 C491 0.950 . S
C514 C515 1.349 . S
C514 C516 1.328 . S
C514 H539 0.950 1_554 S
C515 C514 1.349 . S
C515 C531 1.349 . S
C516 C514 1.328 . S
C516 C535 1.446 . S
C516 H540 0.931 1_554 S
C517 C534 1.574 . S
C517 C536 1.368 . S
C517 H541 0.949 . S
H518 C522 0.949 . S
C519 C520 1.349 . S
C519 C521 1.327 . S
C519 H542 0.950 . S
C520 C519 1.349 . S
C520 C532 1.349 1_554 S
C521 C519 1.327 . S
C521 C537 1.429 . S
C521 H543 0.950 . S
C522 H518 0.949 . S
C522 C530 1.574 . S
C522 C538 1.368 1_556 S
H523 C531 0.950 . S
H524 C529 0.950 . S
H525 C530 0.949 . S
H526 C532 0.950 . S
H527 C533 0.950 . S
H528 C534 0.949 . S
C529 H524 0.950 . S
C529 C531 1.327 . S
C529 C535 1.429 . S
C530 C522 1.574 . S
C530 H525 0.949 . S
C530 C536 1.368 1_556 S
C531 C515 1.349 . S
C531 H523 0.950 . S
C531 C529 1.327 . S
C532 C520 1.349 1_556 S
C532 H526 0.950 . S
C532 C533 1.327 . S
C533 H527 0.950 . S
C533 C532 1.327 . S
C533 C537 1.429 1_556 S
C534 C517 1.574 . S
C534 H528 0.949 . S
C534 C538 1.368 . S
C535 C516 1.446 . S
C535 C529 1.429 . S
C535 C536 1.523 . S
C536 C517 1.368 . S
C536 C530 1.368 1_554 S
C536 C535 1.523 . S
C537 C521 1.429 . S
C537 C533 1.429 1_554 S
C537 C538 1.523 . S
C538 C522 1.368 1_554 S
C538 C534 1.368 . S
C538 C537 1.523 . S
H539 C514 0.950 1_556 S
H540 C516 0.931 1_556 S
H541 C517 0.949 . S
H542 C519 0.950 . S
H543 C521 0.950 . S
C544 C545 1.349 . S
C544 C546 1.327 . S
C544 H569 0.950 . S
C545 C544 1.349 . S
C545 C561 1.349 . S
C546 C544 1.327 . S
C546 C565 1.429 . S
C546 H570 0.950 . S
C547 C564 1.574 . S
C547 C566 1.368 . S
C547 H571 0.949 . S
H548 C552 0.949 . S
C549 C550 1.349 . S
C549 C551 1.327 . S
C549 H572 0.950 . S
C550 C549 1.349 . S
C550 C562 1.349 . S
C551 C549 1.327 . S
C551 C567 1.429 . S
C551 H573 0.950 . S
C552 H548 0.949 . S
C552 C560 1.574 . S
C552 C568 1.368 . S
H553 C561 0.950 . S
H554 C559 0.950 . S
H555 C560 0.949 . S
H556 C562 0.950 . S
H557 C563 0.950 . S
H558 C564 0.949 . S
C559 H554 0.950 . S
C559 C561 1.327 . S
C559 C565 1.429 . S
C560 C552 1.574 . S
C560 H555 0.949 . S
C560 C566 1.368 . S
C561 C545 1.349 . S
C561 H553 0.950 . S
C561 C559 1.327 . S
C562 C550 1.349 . S
C562 H556 0.950 . S
C562 C563 1.327 . S
C563 H557 0.950 . S
C563 C562 1.327 . S
C563 C567 1.429 . S
C564 C547 1.574 . S
C564 H558 0.949 . S
C564 C568 1.368 . S
C565 C546 1.429 . S
C565 C559 1.429 . S
C565 C566 1.523 . S
C566 C547 1.368 . S
C566 C560 1.368 . S
C566 C565 1.523 . S
C567 C551 1.429 . S
C567 C563 1.429 . S
C567 C568 1.523 . S
C568 C552 1.368 . S
C568 C564 1.368 . S
C568 C567 1.523 . S
H569 C544 0.950 . S
H570 C546 0.950 . S
H571 C547 0.949 . S
H572 C549 0.950 . S
H573 C551 0.950 . S
C574 C575 1.349 . S
C574 C576 1.327 . S
C574 H599 0.950 . S
C575 C574 1.349 . S
C575 C591 1.349 . S
C576 C574 1.327 . S
C576 C595 1.429 . S
C576 H600 0.950 . S
C577 C594 1.574 . S
C577 C596 1.368 . S
C577 H601 0.949 . S
H578 C582 0.949 . S
C579 C580 1.349 . S
C579 C581 1.327 . S
C579 H602 0.950 . S
C580 C579 1.349 . S
C580 C592 1.349 . S
C581 C579 1.327 . S
C581 C597 1.429 . S
C581 H603 0.950 . S
C582 H578 0.949 . S
C582 C590 1.574 . S
C582 C598 1.368 . S
H583 C591 0.950 . S
H584 C589 0.950 . S
H585 C590 0.949 . S
H586 C592 0.950 . S
H587 C593 0.950 . S
H588 C594 0.949 . S
C589 H584 0.950 . S
C589 C591 1.327 . S
C589 C595 1.429 . S
C590 C582 1.574 . S
C590 H585 0.949 . S
C590 C596 1.368 . S
C591 C575 1.349 . S
C591 H583 0.950 . S
C591 C589 1.327 . S
C592 C580 1.349 . S
C592 H586 0.950 . S
C592 C593 1.327 . S
C593 H587 0.950 . S
C593 C592 1.327 . S
C593 C597 1.429 . S
C594 C577 1.574 . S
C594 H588 0.949 . S
C594 C598 1.368 . S
C595 C576 1.429 . S
C595 C589 1.429 . S
C595 C596 1.523 . S
C596 C577 1.368 . S
C596 C590 1.368 . S
C596 C595 1.523 . S
C597 C581 1.429 . S
C597 C593 1.429 . S
C597 C598 1.523 . S
C598 C582 1.368 . S
C598 C594 1.368 . S
C598 C597 1.523 . S
H599 C574 0.950 . S
H600 C576 0.950 . S
H601 C577 0.949 . S
H602 C579 0.950 . S
H603 C581 0.950 . S
C604 C605 1.349 . S
C604 C606 1.327 . S
C604 H629 0.950 . S
C605 C604 1.349 . S
C605 C621 1.349 . S
C606 C604 1.327 . S
C606 C625 1.429 . S
C606 H630 0.950 . S
C607 C624 1.574 . S
C607 C626 1.368 . S
C607 H631 0.949 . S
H608 C612 0.949 . S
C609 C610 1.349 . S
C609 C611 1.327 . S
C609 H632 0.950 . S
C610 C609 1.349 . S
C610 C622 1.349 . S
C611 C609 1.327 . S
C611 C627 1.429 . S
C611 H633 0.950 . S
C612 H608 0.949 . S
C612 C620 1.574 . S
C612 C628 1.368 . S
H613 C621 0.950 . S
H614 C619 0.950 . S
H615 C620 0.949 . S
H616 C622 0.950 . S
H617 C623 0.950 . S
H618 C624 0.949 . S
C619 H614 0.950 . S
C619 C621 1.327 . S
C619 C625 1.429 . S
C620 C612 1.574 . S
C620 H615 0.949 . S
C620 C626 1.368 . S
C621 C605 1.349 . S
C621 H613 0.950 . S
C621 C619 1.327 . S
C622 C610 1.349 . S
C622 H616 0.950 . S
C622 C623 1.327 . S
C623 H617 0.950 . S
C623 C622 1.327 . S
C623 C627 1.429 . S
C624 C607 1.574 . S
C624 H618 0.949 . S
C624 C628 1.368 . S
C625 C606 1.429 . S
C625 C619 1.429 . S
C625 C626 1.523 . S
C626 C607 1.368 . S
C626 C620 1.368 . S
C626 C625 1.523 . S
C627 C611 1.429 . S
C627 C623 1.429 . S
C627 C628 1.523 . S
C628 C612 1.368 . S
C628 C624 1.368 . S
C628 C627 1.523 . S
H629 C604 0.950 . S
H630 C606 0.950 . S
H631 C607 0.949 . S
H632 C609 0.950 . S
H633 C611 0.950 . S
C634 C635 1.349 . S
C634 C636 1.327 . S
C634 H659 0.950 . S
C635 C634 1.349 . S
C635 C651 1.349 . S
C636 C634 1.327 . S
C636 C655 1.429 . S
C636 H660 0.950 . S
C637 C654 1.574 . S
C637 C656 1.368 . S
C637 H661 0.949 . S
H638 C642 0.949 . S
C639 C640 1.349 . S
C639 C641 1.327 . S
C639 H662 0.950 . S
C640 C639 1.349 . S
C640 C652 1.349 . S
C641 C639 1.327 . S
C641 C657 1.429 . S
C641 H663 0.950 . S
C642 H638 0.949 . S
C642 C650 1.574 . S
C642 C658 1.368 . S
H643 C651 0.950 . S
H644 C649 0.950 . S
H645 C650 0.949 . S
H646 C652 0.950 . S
H647 C653 0.950 . S
H648 C654 0.949 . S
C649 H644 0.950 . S
C649 C651 1.327 . S
C649 C655 1.429 . S
C650 C642 1.574 . S
C650 H645 0.949 . S
C650 C656 1.368 . S
C651 C635 1.349 . S
C651 H643 0.950 . S
C651 C649 1.327 . S
C652 C640 1.349 . S
C652 H646 0.950 . S
C652 C653 1.327 . S
C653 H647 0.950 . S
C653 C652 1.327 . S
C653 C657 1.429 . S
C654 C637 1.574 . S
C654 H648 0.949 . S
C654 C658 1.368 . S
C655 C636 1.429 . S
C655 C649 1.429 . S
C655 C656 1.523 . S
C656 C637 1.368 . S
C656 C650 1.368 . S
C656 C655 1.523 . S
C657 C641 1.429 . S
C657 C653 1.429 . S
C657 C658 1.523 . S
C658 C642 1.368 . S
C658 C654 1.368 . S
C658 C657 1.523 . S
H659 C634 0.950 . S
H660 C636 0.950 . S
H661 C637 0.949 . S
H662 C639 0.950 . S
H663 C641 0.950 . S
C664 C665 1.349 . S
C664 C666 1.327 . S
C664 H689 0.950 . S
C665 C664 1.349 . S
C665 C681 1.349 . S
C666 C664 1.327 . S
C666 C685 1.429 . S
C666 H690 0.950 . S
C667 C684 1.574 . S
C667 C686 1.368 . S
C667 H691 0.949 . S
H668 C672 0.949 . S
C669 C670 1.349 . S
C669 C671 1.327 . S
C669 H692 0.950 . S
C670 C669 1.349 . S
C670 C682 1.349 . S
C671 C669 1.327 . S
C671 C687 1.429 . S
C671 H693 0.950 . S
C672 H668 0.949 . S
C672 C680 1.574 . S
C672 C688 1.368 . S
H673 C681 0.950 1_655 S
H674 C679 0.950 . S
H675 C680 0.949 . S
H676 C682 0.950 . S
H677 C683 0.950 . S
H678 C684 0.949 . S
C679 H674 0.950 . S
C679 C681 1.327 . S
C679 C685 1.429 . S
C680 C672 1.574 . S
C680 H675 0.949 . S
C680 C686 1.368 . S
C681 C665 1.349 . S
C681 H673 0.950 1_455 S
C681 C679 1.327 . S
C682 C670 1.349 . S
C682 H676 0.950 . S
C682 C683 1.327 . S
C683 H677 0.950 . S
C683 C682 1.327 . S
C683 C687 1.429 . S
C684 C667 1.574 . S
C684 H678 0.949 . S
C684 C688 1.368 . S
C685 C666 1.429 . S
C685 C679 1.429 . S
C685 C686 1.523 . S
C686 C667 1.368 . S
C686 C680 1.368 . S
C686 C685 1.523 . S
C687 C671 1.429 . S
C687 C683 1.429 . S
C687 C688 1.523 . S
C688 C672 1.368 . S
C688 C684 1.368 . S
C688 C687 1.523 . S
H689 C664 0.950 . S
H690 C666 0.950 . S
H691 C667 0.949 . S
H692 C669 0.950 . S
H693 C671 0.950 . S
C694 C695 1.349 . S
C694 C696 1.327 . S
C694 H719 0.950 . S
C695 C694 1.349 . S
C695 C711 1.349 . S
C696 C694 1.327 . S
C696 C715 1.429 . S
C696 H720 0.950 . S
C697 C714 1.574 . S
C697 C716 1.368 . S
C697 H721 0.949 . S
H698 C702 0.949 . S
C699 C700 1.349 . S
C699 C701 1.327 . S
C699 H722 0.950 . S
C700 C699 1.349 . S
C700 C712 1.349 . S
C701 C699 1.327 . S
C701 C717 1.429 . S
C701 H723 0.950 . S
C702 H698 0.949 . S
C702 C710 1.574 . S
C702 C718 1.368 . S
H703 C711 0.950 . S
H704 C709 0.950 . S
H705 C710 0.949 . S
H706 C712 0.950 . S
H707 C713 0.950 . S
H708 C714 0.949 . S
C709 H704 0.950 . S
C709 C711 1.327 . S
C709 C715 1.429 . S
C710 C702 1.574 . S
C710 H705 0.949 . S
C710 C716 1.368 . S
C711 C695 1.349 . S
C711 H703 0.950 . S
C711 C709 1.327 . S
C712 C700 1.349 . S
C712 H706 0.950 . S
C712 C713 1.327 . S
C713 H707 0.950 . S
C713 C712 1.327 . S
C713 C717 1.429 . S
C714 C697 1.574 . S
C714 H708 0.949 . S
C714 C718 1.368 . S
C715 C696 1.429 . S
C715 C709 1.429 . S
C715 C716 1.523 . S
C716 C697 1.368 . S
C716 C710 1.368 . S
C716 C715 1.523 . S
C717 C701 1.429 . S
C717 C713 1.429 . S
C717 C718 1.523 . S
C718 C702 1.368 . S
C718 C714 1.368 . S
C718 C717 1.523 . S
H719 C694 0.950 . S
H720 C696 0.950 . S
H721 C697 0.949 . S
H722 C699 0.950 . S
H723 C701 0.950 . S
C724 C725 1.349 . S
C724 C726 1.327 . S
C724 H749 0.950 . S
C725 C724 1.349 . S
C725 C741 1.349 . S
C726 C724 1.327 . S
C726 C745 1.429 . S
C726 H750 0.950 . S
C727 C744 1.574 . S
C727 C746 1.368 . S
C727 H751 0.949 . S
H728 C732 0.949 . S
C729 C730 1.349 . S
C729 C731 1.327 . S
C729 H752 0.950 . S
C730 C729 1.349 . S
C730 C742 1.349 . S
C731 C729 1.327 . S
C731 C747 1.429 . S
C731 H753 0.950 . S
C732 H728 0.949 . S
C732 C740 1.574 . S
C732 C748 1.368 . S
H733 C741 0.950 . S
H734 C739 0.950 . S
H735 C740 0.949 . S
H736 C742 0.950 . S
H737 C743 0.950 . S
H738 C744 0.949 . S
C739 H734 0.950 . S
C739 C741 1.327 . S
C739 C745 1.429 . S
C740 C732 1.574 . S
C740 H735 0.949 . S
C740 C746 1.368 . S
C741 C725 1.349 . S
C741 H733 0.950 . S
C741 C739 1.327 . S
C742 C730 1.349 . S
C742 H736 0.950 . S
C742 C743 1.327 . S
C743 H737 0.950 . S
C743 C742 1.327 . S
C743 C747 1.429 . S
C744 C727 1.574 . S
C744 H738 0.949 . S
C744 C748 1.368 . S
C745 C726 1.429 . S
C745 C739 1.429 . S
C745 C746 1.523 . S
C746 C727 1.368 . S
C746 C740 1.368 . S
C746 C745 1.523 . S
C747 C731 1.429 . S
C747 C743 1.429 . S
C747 C748 1.523 . S
C748 C732 1.368 . S
C748 C744 1.368 . S
C748 C747 1.523 . S
H749 C724 0.950 . S
H750 C726 0.950 . S
H751 C727 0.949 . S
H752 C729 0.950 . S
H753 C731 0.950 . S
C754 C755 1.349 . S
C754 C756 1.327 . S
C754 H779 0.950 . S
C755 C754 1.349 . S
C755 C771 1.349 . S
C756 C754 1.327 . S
C756 C775 1.429 . S
C756 H780 0.950 . S
C757 C774 1.574 . S
C757 C776 1.368 . S
C757 H781 0.949 . S
H758 C762 0.949 . S
C759 C760 1.349 . S
C759 C761 1.327 . S
C759 H782 0.950 . S
C760 C759 1.349 . S
C760 C772 1.349 . S
C761 C759 1.327 . S
C761 C777 1.429 . S
C761 H783 0.950 . S
C762 H758 0.949 . S
C762 C770 1.574 . S
C762 C778 1.368 . S
H763 C771 0.950 . S
H764 C769 0.950 . S
H765 C770 0.949 . S
H766 C772 0.950 . S
H767 C773 0.950 . S
H768 C774 0.949 . S
C769 H764 0.950 . S
C769 C771 1.327 . S
C769 C775 1.429 . S
C770 C762 1.574 . S
C770 H765 0.949 . S
C770 C776 1.368 . S
C771 C755 1.349 . S
C771 H763 0.950 . S
C771 C769 1.327 . S
C772 C760 1.349 . S
C772 H766 0.950 . S
C772 C773 1.327 . S
C773 H767 0.950 . S
C773 C772 1.327 . S
C773 C777 1.429 . S
C774 C757 1.574 . S
C774 H768 0.949 . S
C774 C778 1.368 . S
C775 C756 1.429 . S
C775 C769 1.429 . S
C775 C776 1.523 . S
C776 C757 1.368 . S
C776 C770 1.368 . S
C776 C775 1.523 . S
C777 C761 1.429 . S
C777 C773 1.429 . S
C777 C778 1.523 . S
C778 C762 1.368 . S
C778 C774 1.368 . S
C778 C777 1.523 . S
H779 C754 0.950 . S
H780 C756 0.950 . S
H781 C757 0.949 . S
H782 C759 0.950 . S
H783 C761 0.950 . S
C784 C785 1.349 . S
C784 C786 1.327 . S
C784 H809 0.950 1_565 S
C785 C784 1.349 . S
C785 C801 1.349 . S
C786 C784 1.327 . S
C786 C805 1.429 . S
C786 H810 0.950 . S
C787 C804 1.574 . S
C787 C806 1.368 . S
C787 H811 0.949 . S
H788 C792 0.949 . S
C789 C790 1.349 . S
C789 C791 1.327 . S
C789 H812 0.950 . S
C790 C789 1.349 . S
C790 C802 1.349 . S
C791 C789 1.327 . S
C791 C807 1.429 . S
C791 H813 0.950 . S
C792 H788 0.949 . S
C792 C800 1.574 . S
C792 C808 1.368 . S
H793 C801 0.950 . S
H794 C799 0.950 . S
H795 C800 0.949 . S
H796 C802 0.950 . S
H797 C803 0.950 . S
H798 C804 0.949 . S
C799 H794 0.950 . S
C799 C801 1.327 . S
C799 C805 1.429 . S
C800 C792 1.574 . S
C800 H795 0.949 . S
C800 C806 1.368 . S
C801 C785 1.349 . S
C801 H793 0.950 . S
C801 C799 1.327 . S
C802 C790 1.349 . S
C802 H796 0.950 . S
C802 C803 1.327 . S
C803 H797 0.950 . S
C803 C802 1.327 . S
C803 C807 1.429 . S
C804 C787 1.574 . S
C804 H798 0.949 . S
C804 C808 1.368 . S
C805 C786 1.429 . S
C805 C799 1.429 . S
C805 C806 1.523 . S
C806 C787 1.368 . S
C806 C800 1.368 . S
C806 C805 1.523 . S
C807 C791 1.429 . S
C807 C803 1.429 . S
C807 C808 1.523 . S
C808 C792 1.368 . S
C808 C804 1.368 . S
C808 C807 1.523 . S
H809 C784 0.950 1_545 S
H810 C786 0.950 . S
H811 C787 0.949 . S
H812 C789 0.950 . S
H813 C791 0.950 . S
C814 C815 1.349 . S
C814 C816 1.327 . S
C814 H839 0.950 1_455 S
C815 C814 1.349 . S
C815 C831 1.349 . S
C816 C814 1.327 . S
C816 C835 1.429 . S
C816 H840 0.950 . S
C817 C834 1.574 . S
C817 C836 1.368 . S
C817 H841 0.949 . S
H818 C822 0.949 . S
C819 C820 1.349 . S
C819 C821 1.327 . S
C819 H842 0.950 . S
C820 C819 1.349 . S
C820 C832 1.349 . S
C821 C819 1.327 . S
C821 C837 1.429 . S
C821 H843 0.950 . S
C822 H818 0.949 . S
C822 C830 1.574 . S
C822 C838 1.368 . S
H823 C831 0.950 . S
H824 C829 0.950 . S
H825 C830 0.949 . S
H826 C832 0.950 . S
H827 C833 0.950 . S
H828 C834 0.949 . S
C829 H824 0.950 . S
C829 C831 1.327 . S
C829 C835 1.429 . S
C830 C822 1.574 . S
C830 H825 0.949 . S
C830 C836 1.368 . S
C831 C815 1.349 . S
C831 H823 0.950 . S
C831 C829 1.327 . S
C832 C820 1.349 . S
C832 H826 0.950 . S
C832 C833 1.327 . S
C833 H827 0.950 . S
C833 C832 1.327 . S
C833 C837 1.429 . S
C834 C817 1.574 . S
C834 H828 0.949 . S
C834 C838 1.368 . S
C835 C816 1.429 . S
C835 C829 1.429 . S
C835 C836 1.523 . S
C836 C817 1.368 . S
C836 C830 1.368 . S
C836 C835 1.523 . S
C837 C821 1.429 . S
C837 C833 1.429 . S
C837 C838 1.523 . S
C838 C822 1.368 . S
C838 C834 1.368 . S
C838 C837 1.523 . S
H839 C814 0.950 1_655 S
H840 C816 0.950 . S
H841 C817 0.949 . S
H842 C819 0.950 . S
H843 C821 0.950 . S
C844 C845 1.349 . S
C844 C846 1.327 . S
C844 H869 0.950 . S
C845 C844 1.349 . S
C845 C861 1.349 . S
C846 C844 1.327 . S
C846 C865 1.429 . S
C846 H870 0.950 . S
C847 C864 1.574 . S
C847 C866 1.368 . S
C847 H871 0.949 . S
H848 C852 0.949 . S
C849 C850 1.349 . S
C849 C851 1.327 . S
C849 H872 0.950 . S
C850 C849 1.349 . S
C850 C862 1.349 . S
C851 C849 1.327 . S
C851 C867 1.429 . S
C851 H873 0.950 . S
C852 H848 0.949 . S
C852 C860 1.574 . S
C852 C868 1.368 . S
H853 C861 0.950 . S
H854 C859 0.950 . S
H855 C860 0.949 . S
H856 C862 0.950 . S
H857 C863 0.950 . S
H858 C864 0.949 . S
C859 H854 0.950 . S
C859 C861 1.327 . S
C859 C865 1.429 . S
C860 C852 1.574 . S
C860 H855 0.949 . S
C860 C866 1.368 . S
C861 C845 1.349 . S
C861 H853 0.950 . S
C861 C859 1.327 . S
C862 C850 1.349 . S
C862 H856 0.950 . S
C862 C863 1.327 . S
C863 H857 0.950 . S
C863 C862 1.327 . S
C863 C867 1.429 . S
C864 C847 1.574 . S
C864 H858 0.949 . S
C864 C868 1.368 . S
C865 C846 1.429 . S
C865 C859 1.429 . S
C865 C866 1.523 . S
C866 C847 1.368 . S
C866 C860 1.368 . S
C866 C865 1.523 . S
C867 C851 1.429 . S
C867 C863 1.429 . S
C867 C868 1.523 . S
C868 C852 1.368 . S
C868 C864 1.368 . S
C868 C867 1.523 . S
H869 C844 0.950 . S
H870 C846 0.950 . S
H871 C847 0.949 . S
H872 C849 0.950 . S
H873 C851 0.950 . S
C874 C875 1.349 . S
C874 C876 1.327 . S
C874 H899 0.950 . S
C875 C874 1.349 . S
C875 C891 1.349 . S
C876 C874 1.327 . S
C876 C895 1.429 . S
C876 H900 0.950 . S
C877 C894 1.574 . S
C877 C896 1.368 . S
C877 H901 0.949 . S
H878 C882 0.949 . S
C879 C880 1.349 . S
C879 C881 1.327 . S
C879 H902 0.950 . S
C880 C879 1.349 . S
C880 C892 1.349 . S
C881 C879 1.327 . S
C881 C897 1.429 . S
C881 H903 0.950 . S
C882 H878 0.949 . S
C882 C890 1.574 . S
C882 C898 1.368 . S
H883 C891 0.950 . S
H884 C889 0.950 . S
H885 C890 0.949 . S
H886 C892 0.950 . S
H887 C893 0.950 . S
H888 C894 0.949 . S
C889 H884 0.950 . S
C889 C891 1.327 . S
C889 C895 1.429 . S
C890 C882 1.574 . S
C890 H885 0.949 . S
C890 C896 1.368 . S
C891 C875 1.349 . S
C891 H883 0.950 . S
C891 C889 1.327 . S
C892 C880 1.349 . S
C892 H886 0.950 . S
C892 C893 1.327 . S
C893 H887 0.950 . S
C893 C892 1.327 . S
C893 C897 1.429 . S
C894 C877 1.574 . S
C894 H888 0.949 . S
C894 C898 1.368 . S
C895 C876 1.429 . S
C895 C889 1.429 . S
C895 C896 1.523 . S
C896 C877 1.368 . S
C896 C890 1.368 . S
C896 C895 1.523 . S
C897 C881 1.429 . S
C897 C893 1.429 . S
C897 C898 1.523 . S
C898 C882 1.368 . S
C898 C894 1.368 . S
C898 C897 1.523 . S
H899 C874 0.950 . S
H900 C876 0.950 . S
H901 C877 0.949 . S
H902 C879 0.950 . S
H903 C881 0.950 . S
C904 C905 1.349 . S
C904 C906 1.327 . S
C904 H929 0.950 . S
C905 C904 1.349 . S
C905 C921 1.349 . S
C906 C904 1.327 . S
C906 C925 1.429 . S
C906 H930 0.950 . S
C907 C924 1.574 . S
C907 C926 1.368 . S
C907 H931 0.949 . S
H908 C912 0.949 . S
C909 C910 1.349 . S
C909 C911 1.327 . S
C909 H932 0.950 . S
C910 C909 1.349 . S
C910 C922 1.349 . S
C911 C909 1.327 . S
C911 C927 1.429 . S
C911 H933 0.950 . S
C912 H908 0.949 . S
C912 C920 1.574 . S
C912 C928 1.368 . S
H913 C921 0.950 . S
H914 C919 0.950 . S
H915 C920 0.949 . S
H916 C922 0.950 . S
H917 C923 0.950 . S
H918 C924 0.949 . S
C919 H914 0.950 . S
C919 C921 1.327 . S
C919 C925 1.429 . S
C920 C912 1.574 . S
C920 H915 0.949 . S
C920 C926 1.368 . S
C921 C905 1.349 . S
C921 H913 0.950 . S
C921 C919 1.327 . S
C922 C910 1.349 . S
C922 H916 0.950 . S
C922 C923 1.327 . S
C923 H917 0.950 . S
C923 C922 1.327 . S
C923 C927 1.429 . S
C924 C907 1.574 . S
C924 H918 0.949 . S
C924 C928 1.368 . S
C925 C906 1.429 . S
C925 C919 1.429 . S
C925 C926 1.523 . S
C926 C907 1.368 . S
C926 C920 1.368 . S
C926 C925 1.523 . S
C927 C911 1.429 . S
C927 C923 1.429 . S
C927 C928 1.523 . S
C928 C912 1.368 . S
C928 C924 1.368 . S
C928 C927 1.523 . S
H929 C904 0.950 . S
H930 C906 0.950 . S
H931 C907 0.949 . S
H932 C909 0.950 . S
H933 C911 0.950 . S
C934 C935 1.349 . S
C934 C936 1.327 . S
C934 H959 0.950 . S
C935 C934 1.349 . S
C935 C951 1.349 . S
C936 C934 1.327 . S
C936 C955 1.429 . S
C936 H960 0.950 . S
C937 C954 1.574 . S
C937 C956 1.368 . S
C937 H961 0.949 . S
H938 C942 0.949 . S
C939 C940 1.349 . S
C939 C941 1.327 . S
C939 H962 0.950 . S
C940 C939 1.349 . S
C940 C952 1.349 . S
C941 C939 1.327 . S
C941 C957 1.429 . S
C941 H963 0.950 . S
C942 H938 0.949 . S
C942 C950 1.574 . S
C942 C958 1.368 . S
H943 C951 0.950 . S
H944 C949 0.950 . S
H945 C950 0.949 . S
H946 C952 0.950 . S
H947 C953 0.950 . S
H948 C954 0.949 . S
C949 H944 0.950 . S
C949 C951 1.327 . S
C949 C955 1.429 . S
C950 C942 1.574 . S
C950 H945 0.949 . S
C950 C956 1.368 . S
C951 C935 1.349 . S
C951 H943 0.950 . S
C951 C949 1.327 . S
C952 C940 1.349 . S
C952 H946 0.950 . S
C952 C953 1.327 . S
C953 H947 0.950 . S
C953 C952 1.327 . S
C953 C957 1.429 . S
C954 C937 1.574 . S
C954 H948 0.949 . S
C954 C958 1.368 . S
C955 C936 1.429 . S
C955 C949 1.429 . S
C955 C956 1.523 . S
C956 C937 1.368 . S
C956 C950 1.368 . S
C956 C955 1.523 . S
C957 C941 1.429 . S
C957 C953 1.429 . S
C957 C958 1.523 . S
C958 C942 1.368 . S
C958 C954 1.368 . S
C958 C957 1.523 . S
H959 C934 0.950 . S
H960 C936 0.950 . S
H961 C937 0.949 . S
H962 C939 0.950 . S
H963 C941 0.950 . S
C964 C965 1.349 . S
C964 C966 1.327 . S
C964 H989 0.950 . S
C965 C964 1.349 . S
C965 C981 1.349 . S
C966 C964 1.327 . S
C966 C985 1.429 . S
C966 H990 0.950 . S
C967 C984 1.574 . S
C967 C986 1.368 . S
C967 H991 0.949 . S
H968 C972 0.949 . S
C969 C970 1.349 . S
C969 C971 1.327 . S
C969 H992 0.950 . S
C970 C969 1.349 . S
C970 C982 1.349 . S
C971 C969 1.327 . S
C971 C987 1.429 . S
C971 H993 0.950 . S
C972 H968 0.949 . S
C972 C980 1.574 . S
C972 C988 1.368 . S
H973 C981 0.950 . S
H974 C979 0.950 . S
H975 C980 0.949 . S
H976 C982 0.950 . S
H977 C983 0.950 . S
H978 C984 0.949 . S
C979 H974 0.950 . S
C979 C981 1.327 . S
C979 C985 1.429 . S
C980 C972 1.574 . S
C980 H975 0.949 . S
C980 C986 1.368 . S
C981 C965 1.349 . S
C981 H973 0.950 . S
C981 C979 1.327 . S
C982 C970 1.349 . S
C982 H976 0.950 . S
C982 C983 1.327 . S
C983 H977 0.950 . S
C983 C982 1.327 . S
C983 C987 1.429 . S
C984 C967 1.574 . S
C984 H978 0.949 . S
C984 C988 1.368 . S
C985 C966 1.429 . S
C985 C979 1.429 . S
C985 C986 1.523 . S
C986 C967 1.368 . S
C986 C980 1.368 . S
C986 C985 1.523 . S
C987 C971 1.429 . S
C987 C983 1.429 . S
C987 C988 1.523 . S
C988 C972 1.368 . S
C988 C984 1.368 . S
C988 C987 1.523 . S
H989 C964 0.950 . S
H990 C966 0.950 . S
H991 C967 0.949 . S
H992 C969 0.950 . S
H993 C971 0.950 . S
C994 C995 1.349 . S
C994 C996 1.327 . S
C994 H1019 0.950 . S
C995 C994 1.349 . S
C995 C1011 1.349 . S
C996 C994 1.327 . S
C996 C1015 1.429 . S
C996 H1020 0.950 . S
C997 C1014 1.574 . S
C997 C1016 1.368 . S
C997 H1021 0.949 . S
H998 C1002 0.949 . S
C999 C1000 1.349 . S
C999 C1001 1.327 . S
C999 H1022 0.950 . S
C1000 C999 1.349 . S
C1000 C1012 1.349 . S
C1001 C999 1.327 . S
C1001 C1017 1.429 . S
C1001 H1023 0.950 . S
C1002 H998 0.949 . S
C1002 C1010 1.574 . S
C1002 C1018 1.368 . S
H1003 C1011 0.950 . S
H1004 C1009 0.950 . S
H1005 C1010 0.949 . S
H1006 C1012 0.950 . S
H1007 C1013 0.950 . S
H1008 C1014 0.949 . S
C1009 H1004 0.950 . S
C1009 C1011 1.327 . S
C1009 C1015 1.429 . S
C1010 C1002 1.574 . S
C1010 H1005 0.949 . S
C1010 C1016 1.368 . S
C1011 C995 1.349 . S
C1011 H1003 0.950 . S
C1011 C1009 1.327 . S
C1012 C1000 1.349 . S
C1012 H1006 0.950 . S
C1012 C1013 1.327 . S
C1013 H1007 0.950 . S
C1013 C1012 1.327 . S
C1013 C1017 1.429 . S
C1014 C997 1.574 . S
C1014 H1008 0.949 . S
C1014 C1018 1.368 . S
C1015 C996 1.429 . S
C1015 C1009 1.429 . S
C1015 C1016 1.523 . S
C1016 C997 1.368 . S
C1016 C1010 1.368 . S
C1016 C1015 1.523 . S
C1017 C1001 1.429 . S
C1017 C1013 1.429 . S
C1017 C1018 1.523 . S
C1018 C1002 1.368 . S
C1018 C1014 1.368 . S
C1018 C1017 1.523 . S
H1019 C994 0.950 . S
H1020 C996 0.950 . S
H1021 C997 0.949 . S
H1022 C999 0.950 . S
H1023 C1001 0.950 . S
C1024 C1025 1.349 . S
C1024 C1026 1.327 . S
C1024 H1049 0.950 . S
C1025 C1024 1.349 . S
C1025 C1041 1.349 . S
C1026 C1024 1.327 . S
C1026 C1045 1.429 . S
C1026 H1050 0.950 . S
C1027 C1044 1.574 . S
C1027 C1046 1.368 . S
C1027 H1051 0.949 . S
H1028 C1032 0.949 . S
C1029 C1030 1.349 . S
C1029 C1031 1.327 . S
C1029 H1052 0.950 . S
C1030 C1029 1.349 . S
C1030 C1042 1.349 . S
C1031 C1029 1.327 . S
C1031 C1047 1.429 . S
C1031 H1053 0.950 . S
C1032 H1028 0.949 . S
C1032 C1040 1.574 . S
C1032 C1048 1.368 . S
H1033 C1041 0.950 . S
H1034 C1039 0.950 . S
H1035 C1040 0.949 . S
H1036 C1042 0.950 . S
H1037 C1043 0.950 . S
H1038 C1044 0.949 . S
C1039 H1034 0.950 . S
C1039 C1041 1.327 . S
C1039 C1045 1.429 . S
C1040 C1032 1.574 . S
C1040 H1035 0.949 . S
C1040 C1046 1.368 . S
C1041 C1025 1.349 . S
C1041 H1033 0.950 . S
C1041 C1039 1.327 . S
C1042 C1030 1.349 . S
C1042 H1036 0.950 . S
C1042 C1043 1.327 . S
C1043 H1037 0.950 . S
C1043 C1042 1.327 . S
C1043 C1047 1.429 . S
C1044 C1027 1.574 . S
C1044 H1038 0.949 . S
C1044 C1048 1.368 . S
C1045 C1026 1.429 . S
C1045 C1039 1.429 . S
C1045 C1046 1.523 . S
C1046 C1027 1.368 . S
C1046 C1040 1.368 . S
C1046 C1045 1.523 . S
C1047 C1031 1.429 . S
C1047 C1043 1.429 . S
C1047 C1048 1.523 . S
C1048 C1032 1.368 . S
C1048 C1044 1.368 . S
C1048 C1047 1.523 . S
H1049 C1024 0.950 . S
H1050 C1026 0.950 . S
H1051 C1027 0.949 . S
H1052 C1029 0.950 . S
H1053 C1031 0.950 . S
C1054 C1055 1.349 . S
C1054 C1056 1.327 . S
C1054 H1079 0.950 . S
C1055 C1054 1.349 . S
C1055 C1071 1.349 . S
C1056 C1054 1.327 . S
C1056 C1075 1.429 . S
C1056 H1080 0.950 . S
C1057 C1074 1.574 . S
C1057 C1076 1.368 . S
C1057 H1081 0.949 . S
H1058 C1062 0.949 . S
C1059 C1060 1.349 . S
C1059 C1061 1.327 . S
C1059 H1082 0.950 . S
C1060 C1059 1.349 . S
C1060 C1072 1.349 . S
C1061 C1059 1.327 . S
C1061 C1077 1.429 . S
C1061 H1083 0.950 . S
C1062 H1058 0.949 . S
C1062 C1070 1.574 . S
C1062 C1078 1.368 . S
H1063 C1071 0.950 . S
H1064 C1069 0.950 . S
H1065 C1070 0.949 . S
H1066 C1072 0.950 . S
H1067 C1073 0.950 . S
H1068 C1074 0.949 . S
C1069 H1064 0.950 . S
C1069 C1071 1.327 . S
C1069 C1075 1.429 . S
C1070 C1062 1.574 . S
C1070 H1065 0.949 . S
C1070 C1076 1.368 . S
C1071 C1055 1.349 . S
C1071 H1063 0.950 . S
C1071 C1069 1.327 . S
C1072 C1060 1.349 . S
C1072 H1066 0.950 . S
C1072 C1073 1.327 . S
C1073 H1067 0.950 . S
C1073 C1072 1.327 . S
C1073 C1077 1.429 . S
C1074 C1057 1.574 . S
C1074 H1068 0.949 . S
C1074 C1078 1.368 . S
C1075 C1056 1.429 . S
C1075 C1069 1.429 . S
C1075 C1076 1.523 . S
C1076 C1057 1.368 . S
C1076 C1070 1.368 . S
C1076 C1075 1.523 . S
C1077 C1061 1.429 . S
C1077 C1073 1.429 . S
C1077 C1078 1.523 . S
C1078 C1062 1.368 . S
C1078 C1074 1.368 . S
C1078 C1077 1.523 . S
H1079 C1054 0.950 . S
H1080 C1056 0.950 . S
H1081 C1057 0.949 . S
H1082 C1059 0.950 . S
H1083 C1061 0.950 . S
C1084 C1085 1.349 . S
C1084 C1086 1.327 . S
C1084 H1109 0.950 . S
C1085 C1084 1.349 . S
C1085 C1101 1.349 . S
C1086 C1084 1.327 . S
C1086 C1105 1.429 . S
C1086 H1110 0.950 . S
C1087 C1104 1.574 . S
C1087 C1106 1.368 . S
C1087 H1111 0.949 . S
H1088 C1092 0.949 . S
C1089 C1090 1.349 . S
C1089 C1091 1.327 . S
C1089 H1112 0.950 . S
C1090 C1089 1.349 . S
C1090 C1102 1.349 . S
C1091 C1089 1.327 . S
C1091 C1107 1.429 . S
C1091 H1113 0.950 . S
C1092 H1088 0.949 . S
C1092 C1100 1.574 . S
C1092 C1108 1.368 . S
H1093 C1101 0.950 . S
H1094 C1099 0.950 . S
H1095 C1100 0.949 . S
H1096 C1102 0.950 . S
H1097 C1103 0.950 . S
H1098 C1104 0.949 . S
C1099 H1094 0.950 . S
C1099 C1101 1.327 . S
C1099 C1105 1.429 . S
C1100 C1092 1.574 . S
C1100 H1095 0.949 . S
C1100 C1106 1.368 . S
C1101 C1085 1.349 . S
C1101 H1093 0.950 . S
C1101 C1099 1.327 . S
C1102 C1090 1.349 . S
C1102 H1096 0.950 . S
C1102 C1103 1.327 . S
C1103 H1097 0.950 . S
C1103 C1102 1.327 . S
C1103 C1107 1.429 . S
C1104 C1087 1.574 . S
C1104 H1098 0.949 . S
C1104 C1108 1.368 . S
C1105 C1086 1.429 . S
C1105 C1099 1.429 . S
C1105 C1106 1.523 . S
C1106 C1087 1.368 . S
C1106 C1100 1.368 . S
C1106 C1105 1.523 . S
C1107 C1091 1.429 . S
C1107 C1103 1.429 . S
C1107 C1108 1.523 . S
C1108 C1092 1.368 . S
C1108 C1104 1.368 . S
C1108 C1107 1.523 . S
H1109 C1084 0.950 . S
H1110 C1086 0.950 . S
H1111 C1087 0.949 . S
H1112 C1089 0.950 . S
H1113 C1091 0.950 . S
C1114 C1115 1.349 . S
C1114 C1116 1.327 . S
C1114 H1139 0.950 . S
C1115 C1114 1.349 . S
C1115 C1131 1.349 . S
C1116 C1114 1.327 . S
C1116 C1135 1.429 . S
C1116 H1140 0.950 . S
C1117 C1134 1.574 . S
C1117 C1136 1.368 . S
C1117 H1141 0.949 . S
H1118 C1122 0.949 . S
C1119 C1120 1.349 . S
C1119 C1121 1.327 . S
C1119 H1142 0.950 . S
C1120 C1119 1.349 . S
C1120 C1132 1.349 . S
C1121 C1119 1.327 . S
C1121 C1137 1.429 . S
C1121 H1143 0.950 . S
C1122 H1118 0.949 . S
C1122 C1130 1.574 . S
C1122 C1138 1.368 . S
H1123 C1131 0.950 . S
H1124 C1129 0.950 . S
H1125 C1130 0.949 . S
H1126 C1132 0.950 . S
H1127 C1133 0.950 . S
H1128 C1134 0.949 . S
C1129 H1124 0.950 . S
C1129 C1131 1.327 . S
C1129 C1135 1.429 . S
C1130 C1122 1.574 . S
C1130 H1125 0.949 . S
C1130 C1136 1.368 . S
C1131 C1115 1.349 . S
C1131 H1123 0.950 . S
C1131 C1129 1.327 . S
C1132 C1120 1.349 . S
C1132 H1126 0.950 . S
C1132 C1133 1.327 . S
C1133 H1127 0.950 . S
C1133 C1132 1.327 . S
C1133 C1137 1.429 . S
C1134 C1117 1.574 . S
C1134 H1128 0.949 . S
C1134 C1138 1.368 . S
C1135 C1116 1.429 . S
C1135 C1129 1.429 . S
C1135 C1136 1.523 . S
C1136 C1117 1.368 . S
C1136 C1130 1.368 . S
C1136 C1135 1.523 . S
C1137 C1121 1.429 . S
C1137 C1133 1.429 . S
C1137 C1138 1.523 . S
C1138 C1122 1.368 . S
C1138 C1134 1.368 . S
C1138 C1137 1.523 . S
H1139 C1114 0.950 . S
H1140 C1116 0.950 . S
H1141 C1117 0.949 . S
H1142 C1119 0.950 . S
H1143 C1121 0.950 . S
C425 C45 1.667 . S
C430 C119 1.675 . S
C455 C30 1.667 . S
C460 C159 1.682 . S
C485 C39 1.667 . S
C490 C199 1.681 . S
C520 C239 1.682 . S
C515 C34 1.667 . S
C545 C97 1.667 . S
C550 C279 1.675 . S
C580 C319 1.682 . S
C575 C82 1.667 . S
C610 C359 1.681 . S
C605 C91 1.667 . S
C640 C399 1.682 . S
C635 C86 1.667 . S
C670 C365 1.579 . S
C665 C26 1.511 . S
C700 C405 1.606 . S
C695 C36 1.536 . S
C730 C266 1.513 . S
C725 C32 1.500 . S
C760 C325 1.605 . S
C755 C42 1.536 . S
C785 C18 1.567 . S
C790 C306 1.658 . S
C820 C346 1.683 . S
C815 C50 1.592 . S
C845 C4 1.567 . S
C850 C386 1.657 . S
C875 C48 1.603 . S
C880 C285 1.619 . S
C910 C205 1.579 . S
C905 C78 1.511 . S
C935 C88 1.536 . S
C940 C245 1.606 . S
C970 C106 1.513 . S
C965 C84 1.500 . S
C1000 C165 1.605 . S
C995 C94 1.536 . S
C1030 C146 1.658 . S
C1025 C70 1.567 . S
C1060 C186 1.683 . S
C1055 C102 1.591 . S
C1085 C56 1.567 . S
C1090 C226 1.657 . S
C1115 C100 1.603 . S
C1120 C125 1.619 . S
