# Generated by pormake.
# Topology gar, (4,6)-cn, num edge types: 1
# Building blocks:
#     Node 0, Type 0, BuildingBlock: GALJAG_clean_sbu_0, # of connection points: 4
#     Node 1, Type 0, BuildingBlock: GALJAG_clean_sbu_0, # of connection points: 4
#     Node 2, Type 0, BuildingBlock: GALJAG_clean_sbu_0, # of connection points: 4
#     Node 3, Type 0, BuildingBlock: GALJAG_clean_sbu_0, # of connection points: 4
#     Node 4, Type 0, BuildingBlock: GALJAG_clean_sbu_0, # of connection points: 4
#     Node 5, Type 0, BuildingBlock: GALJAG_clean_sbu_0, # of connection points: 4
#     Node 6, Type 0, BuildingBlock: GALJAG_clean_sbu_0, # of connection points: 4
#     Node 7, Type 0, BuildingBlock: GALJAG_clean_sbu_0, # of connection points: 4
#     Node 8, Type 0, BuildingBlock: GALJAG_clean_sbu_0, # of connection points: 4
#     Node 9, Type 0, BuildingBlock: GALJAG_clean_sbu_0, # of connection points: 4
#     Node 10, Type 0, BuildingBlock: GALJAG_clean_sbu_0, # of connection points: 4
#     Node 11, Type 0, BuildingBlock: GALJAG_clean_sbu_0, # of connection points: 4
#     Node 12, Type 0, BuildingBlock: GALJAG_clean_sbu_0, # of connection points: 4
#     Node 13, Type 0, BuildingBlock: GALJAG_clean_sbu_0, # of connection points: 4
#     Node 14, Type 0, BuildingBlock: GALJAG_clean_sbu_0, # of connection points: 4
#     Node 15, Type 0, BuildingBlock: GALJAG_clean_sbu_0, # of connection points: 4
#     Node 16, Type 0, BuildingBlock: GALJAG_clean_sbu_0, # of connection points: 4
#     Node 17, Type 0, BuildingBlock: GALJAG_clean_sbu_0, # of connection points: 4
#     Node 18, Type 0, BuildingBlock: GALJAG_clean_sbu_0, # of connection points: 4
#     Node 19, Type 0, BuildingBlock: GALJAG_clean_sbu_0, # of connection points: 4
#     Node 20, Type 0, BuildingBlock: GALJAG_clean_sbu_0, # of connection points: 4
#     Node 21, Type 0, BuildingBlock: GALJAG_clean_sbu_0, # of connection points: 4
#     Node 22, Type 0, BuildingBlock: GALJAG_clean_sbu_0, # of connection points: 4
#     Node 23, Type 0, BuildingBlock: GALJAG_clean_sbu_0, # of connection points: 4
#     Node 24, Type 1, BuildingBlock: BETFEN_clean_sbu_0, # of connection points: 6
#     Node 25, Type 1, BuildingBlock: BETFEN_clean_sbu_0, # of connection points: 6
#     Node 26, Type 1, BuildingBlock: BETFEN_clean_sbu_0, # of connection points: 6
#     Node 27, Type 1, BuildingBlock: BETFEN_clean_sbu_0, # of connection points: 6
#     Node 28, Type 1, BuildingBlock: BETFEN_clean_sbu_0, # of connection points: 6
#     Node 29, Type 1, BuildingBlock: BETFEN_clean_sbu_0, # of connection points: 6
#     Node 30, Type 1, BuildingBlock: BETFEN_clean_sbu_0, # of connection points: 6
#     Node 31, Type 1, BuildingBlock: BETFEN_clean_sbu_0, # of connection points: 6
#     Node 32, Type 1, BuildingBlock: BETFEN_clean_sbu_0, # of connection points: 6
#     Node 33, Type 1, BuildingBlock: BETFEN_clean_sbu_0, # of connection points: 6
#     Node 34, Type 1, BuildingBlock: BETFEN_clean_sbu_0, # of connection points: 6
#     Node 35, Type 1, BuildingBlock: BETFEN_clean_sbu_0, # of connection points: 6
#     Node 36, Type 1, BuildingBlock: BETFEN_clean_sbu_0, # of connection points: 6
#     Node 37, Type 1, BuildingBlock: BETFEN_clean_sbu_0, # of connection points: 6
#     Node 38, Type 1, BuildingBlock: BETFEN_clean_sbu_0, # of connection points: 6
#     Node 39, Type 1, BuildingBlock: BETFEN_clean_sbu_0, # of connection points: 6
#     Edge 40, Type (0, 1), BuildingBlock: TEMPAE_clean_linker_10, # of connection points: 2
#     Edge 41, Type (0, 1), BuildingBlock: TEMPAE_clean_linker_10, # of connection points: 2
#     Edge 42, Type (0, 1), BuildingBlock: TEMPAE_clean_linker_10, # of connection points: 2
#     Edge 43, Type (0, 1), BuildingBlock: TEMPAE_clean_linker_10, # of connection points: 2
#     Edge 44, Type (0, 1), BuildingBlock: TEMPAE_clean_linker_10, # of connection points: 2
#     Edge 45, Type (0, 1), BuildingBlock: TEMPAE_clean_linker_10, # of connection points: 2
#     Edge 46, Type (0, 1), BuildingBlock: TEMPAE_clean_linker_10, # of connection points: 2
#     Edge 47, Type (0, 1), BuildingBlock: TEMPAE_clean_linker_10, # of connection points: 2
#     Edge 48, Type (0, 1), BuildingBlock: TEMPAE_clean_linker_10, # of connection points: 2
#     Edge 49, Type (0, 1), BuildingBlock: TEMPAE_clean_linker_10, # of connection points: 2
#     Edge 50, Type (0, 1), BuildingBlock: TEMPAE_clean_linker_10, # of connection points: 2
#     Edge 51, Type (0, 1), BuildingBlock: TEMPAE_clean_linker_10, # of connection points: 2
#     Edge 52, Type (0, 1), BuildingBlock: TEMPAE_clean_linker_10, # of connection points: 2
#     Edge 53, Type (0, 1), BuildingBlock: TEMPAE_clean_linker_10, # of connection points: 2
#     Edge 54, Type (0, 1), BuildingBlock: TEMPAE_clean_linker_10, # of connection points: 2
#     Edge 55, Type (0, 1), BuildingBlock: TEMPAE_clean_linker_10, # of connection points: 2
#     Edge 56, Type (0, 1), BuildingBlock: TEMPAE_clean_linker_10, # of connection points: 2
#     Edge 57, Type (0, 1), BuildingBlock: TEMPAE_clean_linker_10, # of connection points: 2
#     Edge 58, Type (0, 1), BuildingBlock: TEMPAE_clean_linker_10, # of connection points: 2
#     Edge 59, Type (0, 1), BuildingBlock: TEMPAE_clean_linker_10, # of connection points: 2
#     Edge 60, Type (0, 1), BuildingBlock: TEMPAE_clean_linker_10, # of connection points: 2
#     Edge 61, Type (0, 1), BuildingBlock: TEMPAE_clean_linker_10, # of connection points: 2
#     Edge 62, Type (0, 1), BuildingBlock: TEMPAE_clean_linker_10, # of connection points: 2
#     Edge 63, Type (0, 1), BuildingBlock: TEMPAE_clean_linker_10, # of connection points: 2
#     Edge 64, Type (0, 1), BuildingBlock: TEMPAE_clean_linker_10, # of connection points: 2
#     Edge 65, Type (0, 1), BuildingBlock: TEMPAE_clean_linker_10, # of connection points: 2
#     Edge 66, Type (0, 1), BuildingBlock: TEMPAE_clean_linker_10, # of connection points: 2
#     Edge 67, Type (0, 1), BuildingBlock: TEMPAE_clean_linker_10, # of connection points: 2
#     Edge 68, Type (0, 1), BuildingBlock: TEMPAE_clean_linker_10, # of connection points: 2
#     Edge 69, Type (0, 1), BuildingBlock: TEMPAE_clean_linker_10, # of connection points: 2
#     Edge 70, Type (0, 1), BuildingBlock: TEMPAE_clean_linker_10, # of connection points: 2
#     Edge 71, Type (0, 1), BuildingBlock: TEMPAE_clean_linker_10, # of connection points: 2
#     Edge 72, Type (0, 1), BuildingBlock: TEMPAE_clean_linker_10, # of connection points: 2
#     Edge 73, Type (0, 1), BuildingBlock: TEMPAE_clean_linker_10, # of connection points: 2
#     Edge 74, Type (0, 1), BuildingBlock: TEMPAE_clean_linker_10, # of connection points: 2
#     Edge 75, Type (0, 1), BuildingBlock: TEMPAE_clean_linker_10, # of connection points: 2
#     Edge 76, Type (0, 1), BuildingBlock: TEMPAE_clean_linker_10, # of connection points: 2
#     Edge 77, Type (0, 1), BuildingBlock: TEMPAE_clean_linker_10, # of connection points: 2
#     Edge 78, Type (0, 1), BuildingBlock: TEMPAE_clean_linker_10, # of connection points: 2
#     Edge 79, Type (0, 1), BuildingBlock: TEMPAE_clean_linker_10, # of connection points: 2
#     Edge 80, Type (0, 1), BuildingBlock: TEMPAE_clean_linker_10, # of connection points: 2
#     Edge 81, Type (0, 1), BuildingBlock: TEMPAE_clean_linker_10, # of connection points: 2
#     Edge 82, Type (0, 1), BuildingBlock: TEMPAE_clean_linker_10, # of connection points: 2
#     Edge 83, Type (0, 1), BuildingBlock: TEMPAE_clean_linker_10, # of connection points: 2
#     Edge 84, Type (0, 1), BuildingBlock: TEMPAE_clean_linker_10, # of connection points: 2
#     Edge 85, Type (0, 1), BuildingBlock: TEMPAE_clean_linker_10, # of connection points: 2
#     Edge 86, Type (0, 1), BuildingBlock: TEMPAE_clean_linker_10, # of connection points: 2
#     Edge 87, Type (0, 1), BuildingBlock: TEMPAE_clean_linker_10, # of connection points: 2
#     Edge 88, Type (0, 1), BuildingBlock: TEMPAE_clean_linker_10, # of connection points: 2
#     Edge 89, Type (0, 1), BuildingBlock: TEMPAE_clean_linker_10, # of connection points: 2
#     Edge 90, Type (0, 1), BuildingBlock: TEMPAE_clean_linker_10, # of connection points: 2
#     Edge 91, Type (0, 1), BuildingBlock: TEMPAE_clean_linker_10, # of connection points: 2
#     Edge 92, Type (0, 1), BuildingBlock: TEMPAE_clean_linker_10, # of connection points: 2
#     Edge 93, Type (0, 1), BuildingBlock: TEMPAE_clean_linker_10, # of connection points: 2
#     Edge 94, Type (0, 1), BuildingBlock: TEMPAE_clean_linker_10, # of connection points: 2
#     Edge 95, Type (0, 1), BuildingBlock: TEMPAE_clean_linker_10, # of connection points: 2
#     Edge 96, Type (0, 1), BuildingBlock: TEMPAE_clean_linker_10, # of connection points: 2
#     Edge 97, Type (0, 1), BuildingBlock: TEMPAE_clean_linker_10, # of connection points: 2
#     Edge 98, Type (0, 1), BuildingBlock: TEMPAE_clean_linker_10, # of connection points: 2
#     Edge 99, Type (0, 1), BuildingBlock: TEMPAE_clean_linker_10, # of connection points: 2
#     Edge 100, Type (0, 1), BuildingBlock: TEMPAE_clean_linker_10, # of connection points: 2
#     Edge 101, Type (0, 1), BuildingBlock: TEMPAE_clean_linker_10, # of connection points: 2
#     Edge 102, Type (0, 1), BuildingBlock: TEMPAE_clean_linker_10, # of connection points: 2
#     Edge 103, Type (0, 1), BuildingBlock: TEMPAE_clean_linker_10, # of connection points: 2
#     Edge 104, Type (0, 1), BuildingBlock: TEMPAE_clean_linker_10, # of connection points: 2
#     Edge 105, Type (0, 1), BuildingBlock: TEMPAE_clean_linker_10, # of connection points: 2
#     Edge 106, Type (0, 1), BuildingBlock: TEMPAE_clean_linker_10, # of connection points: 2
#     Edge 107, Type (0, 1), BuildingBlock: TEMPAE_clean_linker_10, # of connection points: 2
#     Edge 108, Type (0, 1), BuildingBlock: TEMPAE_clean_linker_10, # of connection points: 2
#     Edge 109, Type (0, 1), BuildingBlock: TEMPAE_clean_linker_10, # of connection points: 2
#     Edge 110, Type (0, 1), BuildingBlock: TEMPAE_clean_linker_10, # of connection points: 2
#     Edge 111, Type (0, 1), BuildingBlock: TEMPAE_clean_linker_10, # of connection points: 2
#     Edge 112, Type (0, 1), BuildingBlock: TEMPAE_clean_linker_10, # of connection points: 2
#     Edge 113, Type (0, 1), BuildingBlock: TEMPAE_clean_linker_10, # of connection points: 2
#     Edge 114, Type (0, 1), BuildingBlock: TEMPAE_clean_linker_10, # of connection points: 2
#     Edge 115, Type (0, 1), BuildingBlock: TEMPAE_clean_linker_10, # of connection points: 2
#     Edge 116, Type (0, 1), BuildingBlock: TEMPAE_clean_linker_10, # of connection points: 2
#     Edge 117, Type (0, 1), BuildingBlock: TEMPAE_clean_linker_10, # of connection points: 2
#     Edge 118, Type (0, 1), BuildingBlock: TEMPAE_clean_linker_10, # of connection points: 2
#     Edge 119, Type (0, 1), BuildingBlock: TEMPAE_clean_linker_10, # of connection points: 2
#     Edge 120, Type (0, 1), BuildingBlock: TEMPAE_clean_linker_10, # of connection points: 2
#     Edge 121, Type (0, 1), BuildingBlock: TEMPAE_clean_linker_10, # of connection points: 2
#     Edge 122, Type (0, 1), BuildingBlock: TEMPAE_clean_linker_10, # of connection points: 2
#     Edge 123, Type (0, 1), BuildingBlock: TEMPAE_clean_linker_10, # of connection points: 2
#     Edge 124, Type (0, 1), BuildingBlock: TEMPAE_clean_linker_10, # of connection points: 2
#     Edge 125, Type (0, 1), BuildingBlock: TEMPAE_clean_linker_10, # of connection points: 2
#     Edge 126, Type (0, 1), BuildingBlock: TEMPAE_clean_linker_10, # of connection points: 2
#     Edge 127, Type (0, 1), BuildingBlock: TEMPAE_clean_linker_10, # of connection points: 2
#     Edge 128, Type (0, 1), BuildingBlock: TEMPAE_clean_linker_10, # of connection points: 2
#     Edge 129, Type (0, 1), BuildingBlock: TEMPAE_clean_linker_10, # of connection points: 2
#     Edge 130, Type (0, 1), BuildingBlock: TEMPAE_clean_linker_10, # of connection points: 2
#     Edge 131, Type (0, 1), BuildingBlock: TEMPAE_clean_linker_10, # of connection points: 2
#     Edge 132, Type (0, 1), BuildingBlock: TEMPAE_clean_linker_10, # of connection points: 2
#     Edge 133, Type (0, 1), BuildingBlock: TEMPAE_clean_linker_10, # of connection points: 2
#     Edge 134, Type (0, 1), BuildingBlock: TEMPAE_clean_linker_10, # of connection points: 2
#     Edge 135, Type (0, 1), BuildingBlock: TEMPAE_clean_linker_10, # of connection points: 2
# Relax obj value: 0.209
# Max RMSD: 0.311
# Mean RMSD: 0.179
data_MOF--net-gar--node1-GALJAG_clean_sbu_0--node2-BETFEN_clean_sbu_0--edge1-TEMPAE_clean_linker_10
_symmetry_space_group_name_H-M    P1
_symmetry_Int_Tables_number       1
_symmetry_cell_setting            triclinic
loop_
_symmetry_equiv_pos_as_xyz
'x, y, z'
_cell_length_a     64.597363
_cell_length_b     57.442756
_cell_length_c     57.629345
_cell_angle_alpha  94.514226
_cell_angle_beta   98.575057
_cell_angle_gamma 101.92899
loop_
_atom_site_label
_atom_site_type_symbol
_atom_site_fract_x
_atom_site_fract_y
_atom_site_fract_z
_atom_type_partial_charge
In0 In 0.03723 0.31649 0.41475 0.0
O1 O 0.04627 0.30691 0.37868 0.0
O2 O 0.07183 0.32157 0.4068 0.0
C3 C 0.99881 0.31407 0.38807 0.0
C4 C 0.03686 0.27416 0.43615 0.0
C5 C 0.04262 0.36377 0.43562 0.0
O6 O 0.01562 0.31328 0.37959 0.0
O7 O 1.00093 0.31434 0.41036 0.0
O8 O 0.04692 0.34714 0.44738 0.0
O9 O 0.03638 0.35677 0.41406 0.0
C10 C 0.06625 0.31313 0.38533 0.0
O11 O 0.0532 0.29101 0.43782 0.0
O12 O 0.0202 0.27917 0.42517 0.0
In13 In 0.08658 0.83942 0.64864 0.0
O14 O 0.09944 0.86787 0.62415 0.0
O15 O 0.07319 0.87291 0.64007 0.0
C16 C 0.07931 0.79509 0.62233 0.0
C17 C 0.12598 0.84421 0.67562 0.0
C18 C 0.05544 0.83593 0.67624 0.0
O19 O 0.06945 0.81108 0.61628 0.0
O20 O 0.09311 0.80176 0.64074 0.0
O21 O 0.07396 0.84925 0.6828 0.0
O22 O 0.05278 0.82454 0.65598 0.0
C23 C 0.08639 0.88101 0.62708 0.0
O24 O 0.10869 0.83485 0.68226 0.0
O25 O 0.12343 0.85205 0.65577 0.0
In26 In 0.53582 0.81556 0.91526 0.0
O27 O 0.54382 0.8039 0.879 0.0
O28 O 0.5698 0.81898 0.90676 0.0
C29 C 0.49932 0.81712 0.88617 0.0
C30 C 0.53619 0.77346 0.93683 0.0
C31 C 0.54135 0.8617 0.9388 0.0
O32 O 0.51778 0.8241 0.88109 0.0
O33 O 0.49914 0.8083 0.90558 0.0
O34 O 0.52673 0.84422 0.94133 0.0
O35 O 0.55426 0.8555 0.92647 0.0
C36 C 0.56395 0.81002 0.88544 0.0
O37 O 0.55221 0.79081 0.93916 0.0
O38 O 0.51959 0.77783 0.92515 0.0
In39 In 0.58695 0.34017 0.14763 0.0
O40 O 0.56395 0.30591 0.12594 0.0
O41 O 0.59705 0.30743 0.13001 0.0
C42 C 0.59008 0.3817 0.12582 0.0
C43 C 0.55482 0.3393 0.17391 0.0
C44 C 0.62643 0.34456 0.17425 0.0
O45 O 0.58402 0.361 0.11457 0.0
O46 O 0.59474 0.38146 0.14781 0.0
O47 O 0.6095 0.34251 0.18319 0.0
O48 O 0.62345 0.34495 0.15214 0.0
C49 C 0.57848 0.29528 0.12185 0.0
O50 O 0.57141 0.33154 0.18064 0.0
O51 O 0.55447 0.34727 0.1541 0.0
In52 In 0.09042 0.8435 0.1438 0.0
O53 O 0.07017 0.81044 0.11877 0.0
O54 O 0.10319 0.81195 0.1289 0.0
C55 C 0.08994 0.88502 0.12285 0.0
C56 C 0.05568 0.83308 0.16548 0.0
C57 C 0.12856 0.85038 0.17387 0.0
O58 O 0.08677 0.86467 0.11107 0.0
O59 O 0.09395 0.88445 0.14489 0.0
O60 O 0.11065 0.84722 0.18089 0.0
O61 O 0.12731 0.85127 0.15186 0.0
C62 C 0.08526 0.79964 0.11858 0.0
O63 O 0.07191 0.82425 0.17029 0.0
O64 O 0.05744 0.84819 0.15078 0.0
In65 In 0.5319 0.81474 0.42451 0.0
O66 O 0.55081 0.81175 0.39337 0.0
O67 O 0.5683 0.82651 0.42727 0.0
C68 C 0.49174 0.81375 0.39851 0.0
C69 C 0.53741 0.7769 0.4497 0.0
C70 C 0.5353 0.85792 0.44875 0.0
O71 O 0.50906 0.81921 0.39047 0.0
O72 O 0.49442 0.80701 0.41887 0.0
O73 O 0.52547 0.83875 0.45509 0.0
O74 O 0.54347 0.85521 0.4305 0.0
C75 C 0.569 0.82103 0.40584 0.0
O76 O 0.54196 0.7985 0.45847 0.0
O77 O 0.5291 0.77383 0.42802 0.0
In78 In 0.59044 0.34342 0.64364 0.0
O79 O 0.57345 0.31253 0.61418 0.0
O80 O 0.60329 0.31035 0.63327 0.0
C81 C 0.58837 0.38607 0.62522 0.0
C82 C 0.55503 0.32978 0.66343 0.0
C83 C 0.62847 0.34997 0.67392 0.0
O84 O 0.59556 0.36983 0.61513 0.0
O85 O 0.58286 0.38112 0.64466 0.0
O86 O 0.61041 0.34303 0.68007 0.0
O87 O 0.62737 0.35486 0.6528 0.0
C88 C 0.58731 0.30014 0.61804 0.0
O89 O 0.5737 0.33558 0.67551 0.0
O90 O 0.55425 0.33163 0.64168 0.0
In91 In 0.032 0.31363 0.92336 0.0
O92 O 0.04304 0.29883 0.95796 0.0
O93 O 0.02815 0.27331 0.92868 0.0
C94 C 0.03535 0.35684 0.94691 0.0
C95 C 0.06916 0.31971 0.9049 0.0
C96 C 0.99205 0.31234 0.89736 0.0
O97 O 0.02986 0.33771 0.95612 0.0
O98 O 0.03928 0.35395 0.92621 0.0
O99 O 1.00878 0.31367 0.88818 0.0
O100 O 0.99513 0.30972 0.91903 0.0
C101 C 0.03731 0.27696 0.95003 0.0
O102 O 0.0538 0.30172 0.89813 0.0
O103 O 0.06556 0.33442 0.92029 0.0
In104 In 0.46764 0.16792 0.32291 0.0
O105 O 0.4935 0.16875 0.29987 0.0
O106 O 0.46045 0.15728 0.28382 0.0
C107 C 0.48691 0.16741 0.36718 0.0
C108 C 0.4442 0.20098 0.31842 0.0
C109 C 0.44979 0.12217 0.31867 0.0
O110 O 0.49781 0.17515 0.35169 0.0
O111 O 0.46692 0.16388 0.36095 0.0
O112 O 0.43877 0.13791 0.31824 0.0
O113 O 0.46981 0.12936 0.3211 0.0
C114 C 0.47986 0.15975 0.28148 0.0
O115 O 0.43854 0.18192 0.32739 0.0
O116 O 0.46285 0.20462 0.31308 0.0
In117 In 0.2883 0.22278 0.5172 0.0
O118 O 0.30253 0.25501 0.54688 0.0
O119 O 0.2799 0.22575 0.55441 0.0
C120 C 0.29166 0.24224 0.47479 0.0
C121 C 0.32231 0.20253 0.52761 0.0
C122 C 0.24825 0.19332 0.51057 0.0
O123 O 0.28244 0.25056 0.4904 0.0
O124 O 0.29895 0.22438 0.48046 0.0
O125 O 0.26523 0.18552 0.51113 0.0
O126 O 0.25138 0.21591 0.51205 0.0
C127 C 0.29245 0.24552 0.56219 0.0
O128 O 0.30334 0.19029 0.52155 0.0
O129 O 0.32418 0.22486 0.52781 0.0
In130 In 0.19403 0.10556 0.85782 0.0
O131 O 0.16282 0.0966 0.83203 0.0
O132 O 0.19244 0.10256 0.81866 0.0
C133 C 0.17455 0.10521 0.89483 0.0
C134 C 0.21189 0.06895 0.84939 0.0
C135 C 0.21541 0.15037 0.85952 0.0
O136 O 0.16572 0.10707 0.87432 0.0
O137 O 0.19367 0.10259 0.89691 0.0
O138 O 0.22414 0.13432 0.86756 0.0
O139 O 0.19557 0.14412 0.85193 0.0
C140 C 0.17226 0.09703 0.81439 0.0
O141 O 0.22256 0.09025 0.85414 0.0
O142 O 0.19252 0.06561 0.8522 0.0
In143 In 0.32781 0.94008 0.04514 0.0
O144 O 0.31177 0.91369 0.06968 0.0
O145 O 0.34433 0.9307 0.08055 0.0
C146 C 0.32233 0.91736 0.999 0.0
C147 C 0.29868 0.96612 0.05491 0.0
C148 C 0.36613 0.97007 0.04507 0.0
O149 O 0.33237 0.91044 0.01677 0.0
O150 O 0.31389 0.93448 1.00458 0.0
O151 O 0.34883 0.97727 0.04354 0.0
O152 O 0.36401 0.94796 0.04656 0.0
C153 C 0.32803 0.91747 0.08585 0.0
O154 O 0.3183 0.97201 0.06406 0.0
O155 O 0.29375 0.94749 0.04018 0.0
In156 In 0.3303 0.43466 0.04766 0.0
O157 O 0.33025 0.40198 0.06917 0.0
O158 O 0.32332 0.43287 0.0861 0.0
C159 C 0.32624 0.40894 1.00461 0.0
C160 C 0.29395 0.45247 0.04335 0.0
C161 C 0.37092 0.46373 0.04901 0.0
O162 O 0.33507 0.40261 0.0234 0.0
O163 O 0.31872 0.4272 0.00781 0.0
O164 O 0.35413 0.46618 0.03618 0.0
O165 O 0.36721 0.44786 0.06273 0.0
C166 C 0.32515 0.41148 0.08743 0.0
O167 O 0.31261 0.4659 0.04736 0.0
O168 O 0.29363 0.43036 0.04219 0.0
In169 In 0.79282 0.21874 0.02343 0.0
O170 O 0.80895 0.19042 0.00655 0.0
O171 O 0.82866 0.2172 0.03215 0.0
C172 C 0.75196 0.19195 0.01953 0.0
C173 C 0.7987 0.24242 0.06841 0.0
C174 C 0.78963 0.24199 0.98395 0.0
O175 O 0.76828 0.18284 0.0228 0.0
O176 O 0.7564 0.21439 0.01944 0.0
O177 O 0.80204 0.25148 1.00291 0.0
O178 O 0.77913 0.22123 0.98505 0.0
C179 C 0.8276 0.19921 0.01771 0.0
O180 O 0.79777 0.25292 0.04991 0.0
O181 O 0.79649 0.21999 0.06427 0.0
In182 In 0.15987 0.49128 0.24999 0.0
O183 O 0.18605 0.47456 0.24113 0.0
O184 O 0.16251 0.45357 0.25777 0.0
C185 C 0.18377 0.53576 0.25614 0.0
C186 C 0.13409 0.48779 0.20888 0.0
C187 C 0.14524 0.50161 0.28926 0.0
O188 O 0.18919 0.5192 0.26694 0.0
O189 O 0.16684 0.52963 0.24102 0.0
O190 O 0.13246 0.49261 0.27039 0.0
O191 O 0.16474 0.50235 0.28872 0.0
C192 C 0.18007 0.45559 0.25011 0.0
O193 O 0.12687 0.48447 0.22787 0.0
O194 O 0.15423 0.49127 0.21055 0.0
In195 In 0.83041 0.93115 0.54634 0.0
O196 O 0.8178 0.89701 0.56359 0.0
O197 O 0.8373 0.92622 0.58657 0.0
C198 C 0.826 0.90777 0.50265 0.0
C199 C 0.7947 0.95054 0.54054 0.0
C200 C 0.87182 0.95709 0.54658 0.0
O201 O 0.83407 0.89996 0.52106 0.0
O202 O 0.81978 0.92695 0.50642 0.0
O203 O 0.85955 0.96412 0.55954 0.0
O204 O 0.86354 0.93721 0.53456 0.0
C205 C 0.82602 0.90516 0.58462 0.0
O206 O 0.81356 0.96341 0.54382 0.0
O207 O 0.79411 0.92857 0.54104 0.0
In208 In 0.91698 0.04526 0.20106 0.0
O209 O 0.94378 0.03893 0.18364 0.0
O210 O 0.9211 0.05499 0.16381 0.0
C211 C 0.94166 0.05532 0.24293 0.0
C212 C 0.90106 0.08372 0.20849 0.0
C213 C 0.89864 1.00014 0.20514 0.0
O214 O 0.94914 0.05539 0.22397 0.0
O215 O 0.92149 0.05065 0.24085 0.0
O216 O 0.88788 0.01319 0.1941 0.0
O217 O 0.91824 0.00928 0.21149 0.0
C218 C 0.93911 0.04924 0.16584 0.0
O219 O 0.889 0.06296 0.20412 0.0
O220 O 0.9206 0.08499 0.20757 0.0
In221 In 0.29179 0.71744 0.523 0.0
O222 O 0.30769 0.68555 0.51598 0.0
O223 O 0.32792 0.72018 0.5228 0.0
C224 C 0.25138 0.68911 0.5179 0.0
C225 C 0.29934 0.74243 0.56789 0.0
C226 C 0.28734 0.73792 0.482 0.0
O227 O 0.26762 0.68383 0.52954 0.0
O228 O 0.25544 0.70852 0.50895 0.0
O229 O 0.284 0.74766 0.50119 0.0
O230 O 0.29305 0.71834 0.48372 0.0
C231 C 0.32646 0.69811 0.51743 0.0
O232 O 0.30435 0.75218 0.54998 0.0
O233 O 0.29077 0.72044 0.56319 0.0
In234 In 0.41766 0.54214 0.70218 0.0
O235 O 0.39119 0.5632 0.70216 0.0
O236 O 0.42406 0.58117 0.71323 0.0
C237 C 0.39675 0.49769 0.70375 0.0
C238 C 0.43935 0.54429 0.66674 0.0
C239 C 0.44187 0.55001 0.74423 0.0
O240 O 0.38654 0.51339 0.6974 0.0
O241 O 0.41686 0.50418 0.70682 0.0
O242 O 0.44904 0.55593 0.7259 0.0
O243 O 0.42227 0.53985 0.74146 0.0
C244 C 0.40468 0.58247 0.71065 0.0
O245 O 0.44244 0.53188 0.68334 0.0
O246 O 0.42311 0.55343 0.66622 0.0
In247 In 0.65993 0.99286 0.74816 0.0
O248 O 0.69105 0.98228 0.75558 0.0
O249 O 0.66307 0.95385 0.74856 0.0
C250 C 0.67713 0.03942 0.75021 0.0
C251 C 0.63733 0.98869 0.70507 0.0
C252 C 0.64571 1.00008 0.78848 0.0
O253 O 0.68746 0.02372 0.74555 0.0
O254 O 0.65798 0.03153 0.75251 0.0
O255 O 0.63303 0.98972 0.76998 0.0
O256 O 0.66535 1.00322 0.78714 0.0
C257 C 0.68332 0.96013 0.75373 0.0
O258 O 0.62861 0.98394 0.72283 0.0
O259 O 0.65754 0.99327 0.70875 0.0
In260 In 0.7889 0.72181 0.01662 0.0
O261 O 0.80599 0.69052 0.01574 0.0
O262 O 0.82377 0.72423 0.03322 0.0
C263 C 0.74922 0.69164 0.01161 0.0
C264 C 0.79222 0.74574 0.06085 0.0
C265 C 0.79197 0.74084 0.97393 0.0
O266 O 0.76657 0.68458 0.01571 0.0
O267 O 0.75186 0.7137 0.00914 0.0
O268 O 0.78422 0.75033 0.99023 0.0
O269 O 0.79818 0.72225 0.97922 0.0
C270 C 0.82361 0.70257 0.02741 0.0
O271 O 0.80411 0.75356 0.04632 0.0
O272 O 0.77819 0.72711 0.05257 0.0
In273 In 0.96941 0.67001 0.82392 0.0
O274 O 0.93697 0.67697 0.81882 0.0
O275 O 0.9616 0.70634 0.81432 0.0
C276 C 0.94591 0.62716 0.82646 0.0
C277 C 0.9813 0.65977 0.78258 0.0
C278 C 0.99437 0.67193 0.86597 0.0
O279 O 0.93938 0.64609 0.83014 0.0
O280 O 0.96494 0.62984 0.82263 0.0
O281 O 1.00099 0.66918 0.8467 0.0
O282 O 0.97657 0.67793 0.86412 0.0
C283 C 0.94164 0.69772 0.81302 0.0
O284 O 0.99134 0.67854 0.79596 0.0
O285 O 0.96545 0.64775 0.78966 0.0
In286 In 0.82857 0.43903 0.54521 0.0
O287 O 0.8217 0.40674 0.56781 0.0
O288 O 0.84022 0.43998 0.58495 0.0
C289 C 0.82351 0.41719 0.49894 0.0
C290 C 0.79759 0.46202 0.55559 0.0
C291 C 0.86633 0.46912 0.54366 0.0
O292 O 0.8353 0.41164 0.51625 0.0
O293 O 0.81301 0.43219 0.50517 0.0
O294 O 0.84843 0.4745 0.53787 0.0
O295 O 0.8652 0.4486 0.55048 0.0
C296 C 0.83139 0.4188 0.5872 0.0
O297 O 0.81715 0.47219 0.55775 0.0
O298 O 0.79318 0.44028 0.54682 0.0
In299 In 0.6965 0.60752 0.35846 0.0
O300 O 0.72445 0.58942 0.35871 0.0
O301 O 0.69261 0.56866 0.34613 0.0
C302 C 0.7206 0.65146 0.36204 0.0
C303 C 0.67374 0.60029 0.3154 0.0
C304 C 0.67831 0.60714 0.39657 0.0
O305 O 0.72847 0.63388 0.36761 0.0
O306 O 0.70058 0.64682 0.35537 0.0
O307 O 0.67297 0.61798 0.37933 0.0
O308 O 0.69296 0.59598 0.39463 0.0
C309 C 0.71253 0.56975 0.3489 0.0
O310 O 0.66499 0.59589 0.33324 0.0
O311 O 0.6936 0.60944 0.31958 0.0
Pr312 Pr 0.04465 0.08161 0.03893 0.0
Pr313 Pr 0.09572 0.10011 0.06096 0.0
C314 C 1.00236 0.08135 0.03095 0.0
C315 C 0.98758 0.09739 0.02379 0.0
C316 C 0.9722 0.09081 1.00304 0.0
C317 C 0.95633 0.10388 0.99766 0.0
C318 C 0.95562 0.12405 0.01274 0.0
C319 C 0.97163 0.13145 0.03284 0.0
C320 C 0.98737 0.11822 0.03839 0.0
C321 C 0.07349 0.08346 0.00814 0.0
C322 C 0.06993 0.14065 0.04158 0.0
C323 C 0.13827 0.10164 0.06903 0.0
C324 C 0.15338 0.08551 0.07395 0.0
C325 C 0.17039 0.09188 0.09321 0.0
C326 C 0.18628 0.07847 0.09644 0.0
C327 C 0.18532 0.0582 0.08064 0.0
C328 C 0.16785 0.05117 0.06199 0.0
C329 C 0.15209 0.0647 0.05861 0.0
C330 C 0.06677 0.09902 0.09142 0.0
C331 C 0.07026 0.0407 0.05714 0.0
O332 O 0.01441 0.08668 0.05191 0.0
O333 O 0.01203 0.07268 0.01486 0.0
O334 O 0.07446 0.09802 0.02568 0.0
O335 O 0.0557 0.06697 1.00425 0.0
O336 O 0.08929 0.13586 0.04664 0.0
O337 O 0.05208 0.12418 0.04139 0.0
O338 O 0.12663 0.09842 0.04787 0.0
O339 O 0.12793 0.10742 0.0858 0.0
O340 O 0.06599 0.08383 0.07439 0.0
O341 O 0.08414 0.11608 0.0947 0.0
O342 O 0.05093 0.04567 0.05264 0.0
O343 O 0.08818 0.05729 0.05769 0.0
H344 H 0.97195 0.07497 0.99139 0.0
H345 H 0.9442 0.09784 0.98203 0.0
H346 H 0.97134 0.14681 0.04487 0.0
H347 H 0.99892 0.12391 0.05453 0.0
H348 H 0.17177 0.10772 0.10536 0.0
H349 H 0.19956 0.08419 0.11099 0.0
H350 H 0.16684 0.03573 0.04946 0.0
H351 H 0.13924 0.0592 0.04358 0.0
Pr352 Pr 0.31079 0.86004 0.30258 0.0
Pr353 Pr 0.30554 0.81558 0.27916 0.0
C354 C 0.32158 0.90528 0.32299 0.0
C355 C 0.32608 0.92792 0.31322 0.0
C356 C 0.32514 0.94908 0.32631 0.0
C357 C 0.33413 0.97098 0.31918 0.0
C358 C 0.34406 0.97141 0.2991 0.0
C359 C 0.34239 0.95033 0.28446 0.0
C360 C 0.3335 0.92864 0.2916 0.0
C361 C 0.26864 0.8446 0.27794 0.0
C362 C 0.32099 0.8573 0.24716 0.0
C363 C 0.28873 0.77055 0.25973 0.0
C364 C 0.27877 0.74859 0.26874 0.0
C365 C 0.29119 0.73584 0.28269 0.0
C366 C 0.28141 0.71466 0.2905 0.0
C367 C 0.25912 0.70588 0.28434 0.0
C368 C 0.24662 0.71932 0.27145 0.0
C369 C 0.25638 0.74047 0.26367 0.0
C370 C 0.34791 0.82949 0.30483 0.0
C371 C 0.29483 0.81777 0.33315 0.0
O372 O 0.3356 0.89209 0.32086 0.0
O373 O 0.30173 0.89328 0.31782 0.0
O374 O 0.2854 0.84315 0.2696 0.0
O375 O 0.27337 0.85309 0.30005 0.0
O376 O 0.31233 0.83443 0.24601 0.0
O377 O 0.32453 0.87072 0.26766 0.0
O378 O 0.27782 0.78727 0.25959 0.0
O379 O 0.30939 0.77874 0.26639 0.0
O380 O 0.33121 0.83246 0.31274 0.0
O381 O 0.34289 0.81985 0.28299 0.0
O382 O 0.30667 0.83952 0.33535 0.0
O383 O 0.28901 0.80557 0.3121 0.0
H384 H 0.31907 0.94866 0.34285 0.0
H385 H 0.33541 0.98727 0.33066 0.0
H386 H 0.35008 0.95049 0.26896 0.0
H387 H 0.3343 0.91251 0.28133 0.0
H388 H 0.30846 0.74191 0.28719 0.0
H389 H 0.29135 0.70469 0.30062 0.0
H390 H 0.22944 0.71283 0.26616 0.0
H391 H 0.24643 0.75017 0.25315 0.0
Pr392 Pr 0.5808 0.0767 0.5351 0.0
Pr393 Pr 0.53 0.07274 0.5424 0.0
C394 C 0.62094 0.06876 0.5398 0.0
C395 C 0.63337 0.0508 0.53325 0.0
C396 C 0.64624 0.05433 0.5156 0.0
C397 C 0.66063 0.03959 0.51216 0.0
C398 C 0.66263 0.02116 0.52648 0.0
C399 C 0.6488 0.01673 0.54309 0.0
C400 C 0.63439 0.03132 0.54645 0.0
C401 C 0.55434 0.0843 0.49441 0.0
C402 C 0.5436 0.02544 0.51943 0.0
C403 C 0.48986 0.07695 0.54518 0.0
C404 C 0.47684 0.0945 0.54946 0.0
C405 C 0.4625 0.09032 0.56552 0.0
C406 C 0.44801 0.10501 0.56781 0.0
C407 C 0.44762 0.1239 0.55388 0.0
C408 C 0.46285 0.12895 0.53889 0.0
C409 C 0.47746 0.11442 0.53677 0.0
C410 C 0.55622 0.05591 0.57608 0.0
C411 C 0.56662 0.12541 0.55669 0.0
O412 O 0.6079 0.06321 0.55482 0.0
O413 O 0.61358 0.08119 0.52359 0.0
O414 O 0.54945 0.079 0.51376 0.0
O415 O 0.57472 0.08534 0.49507 0.0
O416 O 0.52746 0.03643 0.51945 0.0
O417 O 0.56389 0.03622 0.52719 0.0
O418 O 0.49725 0.07621 0.52514 0.0
O419 O 0.50326 0.07359 0.56334 0.0
O420 O 0.56211 0.07454 0.56628 0.0
O421 O 0.53593 0.04619 0.56943 0.0
O422 O 0.5829 0.11584 0.55225 0.0
O423 O 0.54635 0.11337 0.5534 0.0
H424 H 0.64589 0.06916 0.50516 0.0
H425 H 0.67107 0.04353 0.49925 0.0
H426 H 0.64968 1.00245 0.55415 0.0
H427 H 0.62471 0.02789 0.56015 0.0
H428 H 0.46191 0.0751 0.57558 0.0
H429 H 0.43632 0.10075 0.57938 0.0
H430 H 0.46285 0.14359 0.52812 0.0
H431 H 0.48862 0.11823 0.52455 0.0
Pr432 Pr 0.29165 0.32226 0.78466 0.0
Pr433 Pr 0.34061 0.31848 0.7903 0.0
C434 C 0.25066 0.31921 0.79134 0.0
C435 C 0.2372 0.32583 0.80855 0.0
C436 C 0.22549 0.34352 0.80396 0.0
C437 C 0.21028 0.34764 0.81782 0.0
C438 C 0.20623 0.33406 0.8366 0.0
C439 C 0.21884 0.31731 0.84209 0.0
C440 C 0.2341 0.31318 0.82819 0.0
C441 C 0.31954 0.36173 0.77466 0.0
C442 C 0.32432 0.33832 0.83754 0.0
C443 C 0.38157 0.31728 0.78741 0.0
C444 C 0.39497 0.31115 0.77021 0.0
C445 C 0.40682 0.2935 0.77438 0.0
C446 C 0.4218 0.28972 0.76008 0.0
C447 C 0.42528 0.30379 0.74161 0.0
C448 C 0.41249 0.32036 0.73654 0.0
C449 C 0.39732 0.32385 0.75058 0.0
C450 C 0.31199 0.2805 0.80184 0.0
C451 C 0.30868 0.30404 0.73672 0.0
O452 O 0.26121 0.30245 0.79579 0.0
O453 O 0.26111 0.33633 0.78102 0.0
O454 O 0.32384 0.34965 0.79129 0.0
O455 O 0.29966 0.35535 0.76418 0.0
O456 O 0.34154 0.33902 0.82746 0.0
O457 O 0.30465 0.33034 0.82551 0.0
O458 O 0.37393 0.33662 0.78535 0.0
O459 O 0.36816 0.29952 0.79369 0.0
O460 O 0.30861 0.29141 0.78407 0.0
O461 O 0.33115 0.28847 0.81394 0.0
O462 O 0.29132 0.30458 0.74633 0.0
O463 O 0.32837 0.31033 0.74914 0.0
H464 H 0.22748 0.35361 0.78903 0.0
H465 H 0.20119 0.361 0.81335 0.0
H466 H 0.21613 0.30645 0.85635 0.0
H467 H 0.24284 0.29941 0.83229 0.0
H468 H 0.40515 0.28332 0.78931 0.0
H469 H 0.43155 0.27689 0.76431 0.0
H470 H 0.41484 0.33127 0.72225 0.0
H471 H 0.38804 0.33709 0.74659 0.0
Pr472 Pr 0.06122 0.06091 0.50559 0.0
Pr473 Pr 0.06063 0.0848 0.54596 0.0
C474 C 0.05281 0.03916 0.46162 0.0
C475 C 0.04856 0.0486 0.43927 0.0
C476 C 0.05668 0.04019 0.41989 0.0
C477 C 0.05064 0.04735 0.3979 0.0
C478 C 0.03671 0.06306 0.39554 0.0
C479 C 0.0303 0.07325 0.4153 0.0
C480 C 0.0361 0.06592 0.43714 0.0
C481 C 0.10304 0.08806 0.52207 0.0
C482 C 0.04983 0.11566 0.5033 0.0
C483 C 0.06898 0.10456 0.59067 0.0
C484 C 0.07958 0.09576 0.61118 0.0
C485 C 0.06964 0.09322 0.63107 0.0
C486 C 0.07938 0.08423 0.65049 0.0
C487 C 0.09916 0.07786 0.65011 0.0
C488 C 0.10858 0.07925 0.62979 0.0
C489 C 0.09878 0.08803 0.61033 0.0
C490 C 0.01918 0.05629 0.5295 0.0
C491 C 0.07433 0.03215 0.54878 0.0
O492 O 0.03806 0.03906 0.47488 0.0
O493 O 0.07234 0.04663 0.47311 0.0
O494 O 0.08603 0.0958 0.52206 0.0
O495 O 0.09852 0.0654 0.5146 0.0
O496 O 0.05457 0.11735 0.52635 0.0
O497 O 0.04956 0.09511 0.491 0.0
O498 O 0.08106 0.11176 0.57523 0.0
O499 O 0.05023 0.09142 0.58115 0.0
O500 O 0.03654 0.04915 0.53019 0.0
O501 O 0.02319 0.07934 0.53492 0.0
O502 O 0.06602 0.02872 0.52633 0.0
O503 O 0.0769 0.05367 0.56014 0.0
H504 H 0.06666 0.02719 0.42153 0.0
H505 H 0.05537 0.03922 0.38249 0.0
H506 H 0.01915 0.08502 0.41347 0.0
H507 H 0.02973 0.0727 0.45196 0.0
H508 H 0.05456 0.09852 0.63168 0.0
H509 H 0.07208 0.0835 0.66625 0.0
H510 H 0.12387 0.07439 0.62936 0.0
H511 H 0.10642 0.0891 0.59482 0.0
Pr512 Pr 0.31069 0.81233 0.78577 0.0
Pr513 Pr 0.32336 0.86609 0.77398 0.0
C514 C 0.30797 0.76514 0.78556 0.0
C515 C 0.32292 0.75001 0.78137 0.0
C516 C 0.31943 0.72692 0.78819 0.0
C517 C 0.33379 0.71246 0.78468 0.0
C518 C 0.35197 0.72104 0.77447 0.0
C519 C 0.35586 0.74464 0.76854 0.0
C520 C 0.34137 0.75901 0.7719 0.0
C521 C 0.31124 0.84219 0.82759 0.0
C522 C 0.36219 0.84131 0.79406 0.0
C523 C 0.32741 0.91328 0.77287 0.0
C524 C 0.31143 0.92797 0.77136 0.0
C525 C 0.3143 0.94821 0.75915 0.0
C526 C 0.29952 0.96283 0.75851 0.0
C527 C 0.28166 0.957 0.76977 0.0
C528 C 0.27805 0.93593 0.78067 0.0
C529 C 0.29285 0.92141 0.78142 0.0
C530 C 0.32243 0.83443 0.733 0.0
C531 C 0.27199 0.83709 0.76313 0.0
O532 O 0.29984 0.77454 0.76731 0.0
O533 O 0.31421 0.78022 0.80469 0.0
O534 O 0.3153 0.84967 0.80807 0.0
O535 O 0.30469 0.81912 0.82446 0.0
O536 O 0.35682 0.86205 0.79207 0.0
O537 O 0.3481 0.82066 0.78891 0.0
O538 O 0.33085 0.90371 0.79257 0.0
O539 O 0.32601 0.89854 0.75403 0.0
O540 O 0.31894 0.8291 0.75314 0.0
O541 O 0.32736 0.85753 0.73392 0.0
O542 O 0.27747 0.81651 0.76633 0.0
O543 O 0.28578 0.85797 0.76849 0.0
H544 H 0.30544 0.71996 0.79592 0.0
H545 H 0.3302 0.69427 0.78915 0.0
H546 H 0.36988 0.75181 0.76094 0.0
H547 H 0.34446 0.77703 0.76691 0.0
H548 H 0.3283 0.9531 0.75081 0.0
H549 H 0.30257 0.97927 0.75034 0.0
H550 H 0.26451 0.93154 0.78985 0.0
H551 H 0.29015 0.90551 0.7905 0.0
Pr552 Pr 0.56188 0.07614 0.04425 0.0
Pr553 Pr 0.54612 0.08986 0.99467 0.0
C554 C 0.56661 0.07361 0.09093 0.0
C555 C 0.55284 0.07803 0.10805 0.0
C556 C 0.55348 0.06666 0.12868 0.0
C557 C 0.54024 0.07072 0.14495 0.0
C558 C 0.52628 0.08628 0.14071 0.0
C559 C 0.52478 0.0965 0.11934 0.0
C560 C 0.53789 0.0923 0.10306 0.0
C561 C 0.5586 0.03492 0.01249 0.0
C562 C 0.50933 0.06769 0.02473 0.0
C563 C 0.53766 0.09272 0.94815 0.0
C564 C 0.54985 0.08893 0.9293 0.0
C565 C 0.55509 0.1071 0.91485 0.0
C566 C 0.56985 0.10557 0.8997 0.0
C567 C 0.57951 0.08584 0.89897 0.0
C568 C 0.5736 0.06734 0.91288 0.0
C569 C 0.5591 0.06897 0.92807 0.0
C570 C 0.5489 0.13015 0.02737 0.0
C571 C 0.59904 0.10132 0.01553 0.0
O572 O 0.5762 0.09227 0.08182 0.0
O573 O 0.55821 0.05509 0.07532 0.0
O574 O 0.55418 0.05444 0.0062 0.0
O575 O 0.56697 0.03791 0.03463 0.0
O576 O 0.51292 0.07127 1.00326 0.0
O577 O 0.52506 0.07181 0.0429 0.0
O578 O 0.52932 0.07384 0.95782 0.0
O579 O 0.547 0.11114 0.96355 0.0
O580 O 0.55316 0.11036 0.0323 0.0
O581 O 0.54147 0.1286 1.00508 0.0
O582 O 0.59479 0.09639 0.03654 0.0
O583 O 0.5838 0.097 0.9966 0.0
H584 H 0.56448 0.05499 0.13238 0.0
H585 H 0.54169 0.06269 0.16133 0.0
H586 H 0.51392 0.10832 0.1156 0.0
H587 H 0.53657 0.10047 0.08676 0.0
H588 H 0.54837 0.12287 0.91596 0.0
H589 H 0.57409 0.11999 0.88906 0.0
H590 H 0.58031 0.05154 0.91217 0.0
H591 H 0.55565 0.0549 0.93931 0.0
Pr592 Pr 0.27945 0.29598 0.26609 0.0
Pr593 Pr 0.32633 0.33246 0.27861 0.0
C594 C 0.23794 0.27438 0.26593 0.0
C595 C 0.21877 0.27992 0.27455 0.0
C596 C 0.19816 0.2683 0.26276 0.0
C597 C 0.17979 0.27261 0.27104 0.0
C598 C 0.18161 0.28879 0.29128 0.0
C599 C 0.20232 0.30085 0.30275 0.0
C600 C 0.22069 0.29646 0.2945 0.0
C601 C 0.2951 0.31829 0.22812 0.0
C602 C 0.28532 0.35396 0.2856 0.0
C603 C 0.36599 0.35461 0.27234 0.0
C604 C 0.38591 0.3482 0.26631 0.0
C605 C 0.40547 0.35619 0.28193 0.0
C606 C 0.42473 0.35233 0.27554 0.0
C607 C 0.425 0.34052 0.25322 0.0
C608 C 0.40522 0.33174 0.23798 0.0
C609 C 0.38596 0.33543 0.24445 0.0
C610 C 0.31589 0.31044 0.31938 0.0
C611 C 0.32156 0.27597 0.26392 0.0
O612 O 0.25389 0.27201 0.2818 0.0
O613 O 0.24436 0.28576 0.24863 0.0
O614 O 0.29692 0.32797 0.24905 0.0
O615 O 0.28469 0.29596 0.22616 0.0
O616 O 0.30522 0.36007 0.28159 0.0
O617 O 0.2749 0.33154 0.28536 0.0
O618 O 0.3491 0.35003 0.2557 0.0
O619 O 0.3612 0.3508 0.2932 0.0
O620 O 0.3051 0.30702 0.29878 0.0
O621 O 0.33312 0.3268 0.31946 0.0
O622 O 0.30242 0.26935 0.26983 0.0
O623 O 0.32752 0.29713 0.25697 0.0
H624 H 0.19627 0.25565 0.24721 0.0
H625 H 0.16414 0.26326 0.26157 0.0
H626 H 0.20436 0.31326 0.31851 0.0
H627 H 0.23639 0.30578 0.30387 0.0
H628 H 0.40595 0.36593 0.29895 0.0
H629 H 0.43947 0.35891 0.28804 0.0
H630 H 0.4046 0.32279 0.22056 0.0
H631 H 0.3712 0.32886 0.23198 0.0
Pr632 Pr 0.56018 0.5594 1.00472 0.0
Pr633 Pr 0.56285 0.58477 0.04568 0.0
C634 C 0.54868 0.53394 0.96222 0.0
C635 C 0.54359 0.53971 0.93824 0.0
C636 C 0.55941 0.55263 0.92695 0.0
C637 C 0.55339 0.56126 0.90568 0.0
C638 C 0.53163 0.55731 0.89604 0.0
C639 C 0.51601 0.5435 0.90674 0.0
C640 C 0.52198 0.53455 0.92761 0.0
C641 C 0.6027 0.58618 0.01823 0.0
C642 C 0.55086 0.61485 1.00249 0.0
C643 C 0.57376 0.60503 0.09012 0.0
C644 C 0.58229 0.59471 0.11082 0.0
C645 C 0.57039 0.59131 0.12917 0.0
C646 C 0.57853 0.58193 0.14915 0.0
C647 C 0.59861 0.57601 0.15088 0.0
C648 C 0.60986 0.57776 0.13196 0.0
C649 C 0.60168 0.58696 0.11189 0.0
C650 C 0.52041 0.55776 0.03203 0.0
C651 C 0.57494 0.5318 0.04821 0.0
O652 O 0.53498 0.53785 0.9758 0.0
O653 O 0.56866 0.54076 0.97266 0.0
O654 O 0.58604 0.59426 0.01934 0.0
O655 O 0.59763 0.56354 0.01066 0.0
O656 O 0.55821 0.61719 0.02521 0.0
O657 O 0.54793 0.59348 0.99031 0.0
O658 O 0.58638 0.60935 0.07454 0.0
O659 O 0.5539 0.59529 0.08079 0.0
O660 O 0.53719 0.54966 0.03143 0.0
O661 O 0.52547 0.58079 0.03777 0.0
O662 O 0.56439 0.52773 0.02662 0.0
O663 O 0.57938 0.5537 0.05904 0.0
H664 H 0.57623 0.55668 0.93482 0.0
H665 H 0.56553 0.57144 0.89708 0.0
H666 H 0.49915 0.53972 0.89895 0.0
H667 H 0.5096 0.52443 0.93595 0.0
H668 H 0.55518 0.59663 0.12835 0.0
H669 H 0.56998 0.58103 0.16399 0.0
H670 H 0.62563 0.57367 0.13343 0.0
H671 H 0.61092 0.58873 0.09765 0.0
Pr672 Pr 0.8104 0.31397 0.28531 0.0
Pr673 Pr 0.82613 0.3677 0.27361 0.0
C674 C 0.80662 0.26662 0.28401 0.0
C675 C 0.82192 0.25112 0.28299 0.0
C676 C 0.82017 0.23157 0.29614 0.0
C677 C 0.83378 0.21584 0.29461 0.0
C678 C 0.84932 0.21944 0.27985 0.0
C679 C 0.85218 0.24004 0.26803 0.0
C680 C 0.83854 0.25587 0.26962 0.0
C681 C 0.8125 0.3445 0.32703 0.0
C682 C 0.86307 0.34037 0.29431 0.0
C683 C 0.83161 0.41511 0.27308 0.0
C684 C 0.8163 0.43058 0.27339 0.0
C685 C 0.81759 0.4496 0.25952 0.0
C686 C 0.80249 0.46384 0.25904 0.0
C687 C 0.78596 0.45922 0.27252 0.0
C688 C 0.78434 0.43955 0.28573 0.0
C689 C 0.79928 0.42524 0.28601 0.0
C690 C 0.82423 0.33534 0.23312 0.0
C691 C 0.77331 0.34086 0.2629 0.0
O692 O 0.80171 0.27698 0.26513 0.0
O693 O 0.80954 0.28065 0.3037 0.0
O694 O 0.81704 0.35159 0.3075 0.0
O695 O 0.805 0.32153 0.32406 0.0
O696 O 0.85915 0.36161 0.29098 0.0
O697 O 0.84781 0.32058 0.29051 0.0
O698 O 0.8362 0.40531 0.29243 0.0
O699 O 0.82833 0.40027 0.25389 0.0
O700 O 0.81993 0.33059 0.25312 0.0
O701 O 0.83176 0.3582 0.23425 0.0
O702 O 0.77751 0.31996 0.26743 0.0
O703 O 0.78835 0.36096 0.26659 0.0
H704 H 0.80784 0.22808 0.30706 0.0
H705 H 0.8315 0.20017 0.30405 0.0
H706 H 0.86404 0.2431 0.2565 0.0
H707 H 0.84055 0.27133 0.25987 0.0
H708 H 0.83029 0.45345 0.24912 0.0
H709 H 0.80393 0.47865 0.24842 0.0
H710 H 0.772 0.43568 0.29658 0.0
H711 H 0.79765 0.41017 0.2963 0.0
Pr712 Pr 0.0602 0.57604 0.54401 0.0
Pr713 Pr 0.0464 0.59113 0.49358 0.0
C714 C 0.06478 0.57341 0.59059 0.0
C715 C 0.051 0.57609 0.6081 0.0
C716 C 0.05304 0.56413 0.62823 0.0
C717 C 0.04078 0.56732 0.64566 0.0
C718 C 0.02629 0.58244 0.64303 0.0
C719 C 0.02301 0.59296 0.62202 0.0
C720 C 0.03531 0.58975 0.60455 0.0
C721 C 0.05699 0.53545 0.51136 0.0
C722 C 1.0084 0.56781 0.52177 0.0
C723 C 0.0384 0.59529 0.44733 0.0
C724 C 0.0504 0.59155 0.42831 0.0
C725 C 0.0577 0.61079 0.4158 0.0
C726 C 0.07277 0.60916 0.4011 0.0
C727 C 0.08067 0.58829 0.39895 0.0
C728 C 0.07252 0.56867 0.41053 0.0
C729 C 0.05762 0.57031 0.42522 0.0
C730 C 0.04879 0.63047 0.52759 0.0
C731 C 0.09848 0.60029 0.51593 0.0
O732 O 0.07305 0.59278 0.58162 0.0
O733 O 0.05751 0.5547 0.57497 0.0
O734 O 0.05346 0.55552 0.50571 0.0
O735 O 0.06382 0.53712 0.53382 0.0
O736 O 0.01311 0.57141 0.50071 0.0
O737 O 0.02316 0.57214 0.54093 0.0
O738 O 0.02951 0.5763 0.45648 0.0
O739 O 0.0482 0.6132 0.46315 0.0
O740 O 0.05221 0.61014 0.53147 0.0
O741 O 0.04281 0.63034 0.50517 0.0
O742 O 0.09361 0.59601 0.53687 0.0
O743 O 0.08388 0.59619 0.4965 0.0
H744 H 0.06461 0.55295 0.63082 0.0
H745 H 0.04342 0.55904 0.66178 0.0
H746 H 0.01199 0.60482 0.61981 0.0
H747 H 0.03309 0.59851 0.58868 0.0
H748 H 0.05248 0.62744 0.41827 0.0
H749 H 0.07877 0.62438 0.3921 0.0
H750 H 0.07798 0.55212 0.40855 0.0
H751 H 0.05244 0.55529 0.43482 0.0
Pr752 Pr 0.79126 0.82309 0.28313 0.0
Pr753 Pr 0.84022 0.82019 0.28834 0.0
C754 C 0.75044 0.82153 0.28988 0.0
C755 C 0.73688 0.8266 0.30764 0.0
C756 C 0.72593 0.84531 0.30532 0.0
C757 C 0.71063 0.84827 0.31956 0.0
C758 C 0.70575 0.8325 0.33647 0.0
C759 C 0.71765 0.81465 0.33971 0.0
C760 C 0.73295 0.81168 0.32546 0.0
C761 C 0.81897 0.86262 0.27262 0.0
C762 C 0.82407 0.83961 0.3354 0.0
C763 C 0.88143 0.82119 0.28491 0.0
C764 C 0.89482 0.81287 0.2688 0.0
C765 C 0.90911 0.79881 0.27708 0.0
C766 C 0.92405 0.79337 0.26353 0.0
C767 C 0.92485 0.80178 0.2414 0.0
C768 C 0.90965 0.81451 0.2324 0.0
C769 C 0.89475 0.82008 0.24602 0.0
C770 C 0.81278 0.7822 0.3016 0.0
C771 C 0.80768 0.80383 0.23523 0.0
O772 O 0.75952 0.80318 0.2915 0.0
O773 O 0.7623 0.8398 0.28241 0.0
O774 O 0.82312 0.85096 0.28957 0.0
O775 O 0.79951 0.85518 0.26117 0.0
O776 O 0.84103 0.84198 0.32471 0.0
O777 O 0.80447 0.82997 0.32396 0.0
O778 O 0.87188 0.83842 0.27901 0.0
O779 O 0.86983 0.80483 0.29505 0.0
O780 O 0.8086 0.79235 0.28343 0.0
O781 O 0.83216 0.79073 0.31291 0.0
O782 O 0.79045 0.80504 0.24484 0.0
O783 O 0.82742 0.80992 0.24747 0.0
H784 H 0.72855 0.8571 0.29176 0.0
H785 H 0.70182 0.86215 0.31639 0.0
H786 H 0.71473 0.80248 0.3529 0.0
H787 H 0.74116 0.79719 0.32793 0.0
H788 H 0.90935 0.79289 0.29449 0.0
H789 H 0.9356 0.78347 0.27076 0.0
H790 H 0.91013 0.82137 0.21546 0.0
H791 H 0.88379 0.83078 0.2391 0.0
Pr792 Pr 0.81229 0.35872 0.80316 0.0
Pr793 Pr 0.8091 0.31393 0.77874 0.0
C794 C 0.83203 0.4009 0.82712 0.0
C795 C 0.83792 0.4248 0.81977 0.0
C796 C 0.82336 0.43994 0.81812 0.0
C797 C 0.82909 0.46226 0.81019 0.0
C798 C 0.84934 0.46948 0.80375 0.0
C799 C 0.86363 0.45415 0.80493 0.0
C800 C 0.85805 0.4321 0.81304 0.0
C801 C 0.77119 0.35121 0.77701 0.0
C802 C 0.82039 0.35736 0.74718 0.0
C803 C 0.79873 0.2677 0.76151 0.0
C804 C 0.78568 0.24716 0.76985 0.0
C805 C 0.7929 0.22587 0.77085 0.0
C806 C 0.78009 0.20581 0.77763 0.0
C807 C 0.7599 0.20693 0.78326 0.0
C808 C 0.75332 0.22868 0.78388 0.0
C809 C 0.76626 0.24882 0.77742 0.0
C810 C 0.85054 0.33229 0.80436 0.0
C811 C 0.79323 0.31498 0.83114 0.0
O812 O 0.84231 0.38546 0.81907 0.0
O813 O 0.81156 0.39195 0.82648 0.0
O814 O 0.78298 0.33611 0.77517 0.0
O815 O 0.77987 0.36914 0.79291 0.0
O816 O 0.81304 0.33417 0.74569 0.0
O817 O 0.82382 0.37067 0.76769 0.0
O818 O 0.78856 0.28339 0.75299 0.0
O819 O 0.81686 0.27735 0.77528 0.0
O820 O 0.83312 0.33165 0.81208 0.0
O821 O 0.84665 0.32476 0.78194 0.0
O822 O 0.80018 0.33826 0.83338 0.0
O823 O 0.79344 0.30186 0.81144 0.0
H824 H 0.80769 0.43468 0.82314 0.0
H825 H 0.81804 0.47414 0.8097 0.0
H826 H 0.87961 0.4597 0.80076 0.0
H827 H 0.86965 0.42085 0.81422 0.0
H828 H 0.80809 0.22455 0.76563 0.0
H829 H 0.78526 0.18903 0.77685 0.0
H830 H 0.73774 0.22972 0.78816 0.0
H831 H 0.76071 0.26537 0.77752 0.0
Pr832 Pr 0.77756 0.79509 0.76458 0.0
Pr833 Pr 0.825 0.82883 0.77646 0.0
C834 C 0.7355 0.77499 0.76322 0.0
C835 C 0.71662 0.77989 0.77294 0.0
C836 C 0.69587 0.76907 0.76094 0.0
C837 C 0.67771 0.77272 0.77008 0.0
C838 C 0.67994 0.78759 0.79126 0.0
C839 C 0.7007 0.79896 0.803 0.0
C840 C 0.7189 0.79506 0.79398 0.0
C841 C 0.79479 0.81452 0.72618 0.0
C842 C 0.78518 0.853 0.783 0.0
C843 C 0.86457 0.85052 0.76959 0.0
C844 C 0.88448 0.84401 0.76353 0.0
C845 C 0.90282 0.84614 0.78088 0.0
C846 C 0.92226 0.84264 0.77456 0.0
C847 C 0.92379 0.83731 0.75073 0.0
C848 C 0.90526 0.83414 0.73357 0.0
C849 C 0.88588 0.83737 0.73986 0.0
C850 C 0.81425 0.80866 0.81793 0.0
C851 C 0.81792 0.77111 0.76293 0.0
O852 O 0.75105 0.76995 0.77791 0.0
O853 O 0.74248 0.78865 0.74767 0.0
O854 O 0.79615 0.82526 0.74651 0.0
O855 O 0.78417 0.7924 0.725 0.0
O856 O 0.8049 0.85768 0.77828 0.0
O857 O 0.77426 0.83107 0.78404 0.0
O858 O 0.8476 0.84543 0.75303 0.0
O859 O 0.8599 0.84751 0.79066 0.0
O860 O 0.80289 0.80532 0.79762 0.0
O861 O 0.83197 0.82406 0.81739 0.0
O862 O 0.79882 0.76709 0.76926 0.0
O863 O 0.82727 0.79223 0.75794 0.0
H864 H 0.69371 0.75752 0.74456 0.0
H865 H 0.66189 0.7639 0.76064 0.0
H866 H 0.70282 0.81041 0.81942 0.0
H867 H 0.73472 0.80372 0.80353 0.0
H868 H 0.90234 0.85125 0.79926 0.0
H869 H 0.93631 0.84522 0.78814 0.0
H870 H 0.90593 0.82974 0.7151 0.0
H871 H 0.87216 0.83541 0.72595 0.0
Pr872 Pr 0.54507 0.5827 0.53703 0.0
Pr873 Pr 0.59643 0.59982 0.56197 0.0
C874 C 0.50302 0.58373 0.52679 0.0
C875 C 0.48853 0.59981 0.5191 0.0
C876 C 0.47176 0.5922 0.49973 0.0
C877 C 0.45566 0.6052 0.49514 0.0
C878 C 0.4559 0.62594 0.51002 0.0
C879 C 0.47349 0.63439 0.52837 0.0
C880 C 0.48961 0.62158 0.53281 0.0
C881 C 0.57483 0.58487 0.50743 0.0
C882 C 0.57178 0.64134 0.5419 0.0
C883 C 0.63857 0.59886 0.57066 0.0
C884 C 0.65297 0.58189 0.57545 0.0
C885 C 0.66696 0.58414 0.59714 0.0
C886 C 0.68268 0.57036 0.60009 0.0
C887 C 0.68484 0.55438 0.58126 0.0
C888 C 0.67018 0.55133 0.56009 0.0
C889 C 0.65446 0.56477 0.55723 0.0
C890 C 0.56625 0.59717 0.5913 0.0
C891 C 0.56949 0.54072 0.55667 0.0
O892 O 0.51471 0.58975 0.54776 0.0
O893 O 0.513 0.57439 0.51144 0.0
O894 O 0.57619 0.59863 0.52581 0.0
O895 O 0.55621 0.56986 0.5021 0.0
O896 O 0.59093 0.63603 0.54742 0.0
O897 O 0.55358 0.62528 0.54116 0.0
O898 O 0.62685 0.59547 0.54966 0.0
O899 O 0.62861 0.60596 0.58726 0.0
O900 O 0.56552 0.58372 0.5729 0.0
O901 O 0.58459 0.61279 0.5969 0.0
O902 O 0.55034 0.54561 0.54977 0.0
O903 O 0.58768 0.55729 0.55917 0.0
H904 H 0.47051 0.57556 0.48882 0.0
H905 H 0.44238 0.59824 0.48081 0.0
H906 H 0.47441 0.65055 0.53988 0.0
H907 H 0.50239 0.62825 0.54773 0.0
H908 H 0.6663 0.59717 0.61149 0.0
H909 H 0.69378 0.57306 0.61662 0.0
H910 H 0.6713 0.53895 0.54538 0.0
H911 H 0.64403 0.56231 0.54026 0.0
Pr912 Pr 0.07921 0.57738 0.03856 0.0
Pr913 Pr 0.03102 0.57112 0.04156 0.0
C914 C 0.11945 0.57135 0.03697 0.0
C915 C 0.13249 0.55326 0.03323 0.0
C916 C 0.14443 0.55466 0.01466 0.0
C917 C 0.15914 0.54008 0.01251 0.0
C918 C 0.16225 0.52383 0.02892 0.0
C919 C 0.14965 0.52155 0.04686 0.0
C920 C 0.13481 0.53603 0.04895 0.0
C921 C 0.05584 0.5964 1.00342 0.0
C922 C 0.04509 0.52471 0.01931 0.0
C923 C 0.99025 0.57474 0.04262 0.0
C924 C 0.97718 0.59272 0.04582 0.0
C925 C 0.97022 0.59681 0.06747 0.0
C926 C 0.95655 0.61248 0.07004 0.0
C927 C 0.94917 0.6241 0.05086 0.0
C928 C 0.95643 0.62008 0.02931 0.0
C929 C 0.97033 0.60477 0.02689 0.0
C930 C 0.05436 0.5518 0.07615 0.0
C931 C 0.06534 0.6237 0.06234 0.0
O932 O 0.11163 0.57284 0.05663 0.0
O933 O 0.10663 0.57529 0.01862 0.0
O934 O 0.04923 0.57637 0.01052 0.0
O935 O 0.07524 0.60659 0.01372 0.0
O936 O 0.02856 0.53498 0.01864 0.0
O937 O 0.06472 0.53647 0.0286 0.0
O938 O 0.99821 0.57335 0.02304 0.0
O939 O 1.00329 0.57162 0.06119 0.0
O940 O 0.06077 0.57193 0.06927 0.0
O941 O 0.035 0.54143 0.06593 0.0
O942 O 0.08195 0.61379 0.06119 0.0
O943 O 0.04538 0.61215 0.05391 0.0
H944 H 0.14305 0.56778 1.00233 0.0
H945 H 0.16883 0.54233 0.9987 0.0
H946 H 0.15189 0.50919 0.05979 0.0
H947 H 0.1258 0.53436 0.06337 0.0
H948 H 0.97511 0.58763 0.08236 0.0
H949 H 0.95167 0.61527 0.08702 0.0
H950 H 0.95081 0.62806 0.01387 0.0
H951 H 0.97522 0.60191 0.0099 0.0
C952 C 0.05412 0.26319 0.9873 0.0
C953 C 0.04198 0.25749 0.96443 0.0
C954 C 0.05941 0.24525 1.00093 0.0
C955 C 0.05244 0.2208 0.99163 0.0
C956 C 0.04004 0.2149 0.9686 0.0
C957 C 0.035 0.23325 0.95532 0.0
C958 C 0.07259 0.2525 0.02531 0.0
C959 C 0.03206 0.18915 0.95797 0.0
C960 C 0.0817 0.17462 0.01788 0.0
C961 C 0.06729 0.16334 0.03169 0.0
C962 C 0.07716 0.19336 1.00488 0.0
C963 C 0.05794 0.20144 0.00602 0.0
C964 C 0.04377 0.19065 0.02066 0.0
C965 C 0.04851 0.17169 0.03306 0.0
C966 C 0.09253 0.2039 0.98918 0.0
C967 C 0.02333 0.19881 0.02289 0.0
H968 H 0.0597 0.28182 0.99454 0.0
H969 H 0.02563 0.22859 0.93771 0.0
H970 H 0.06396 0.2435 0.03856 0.0
H971 H 0.08798 0.24664 0.02611 0.0
H972 H 0.07619 0.27216 0.03034 0.0
H973 H 0.02347 0.18751 0.93952 0.0
H974 H 0.04572 0.18016 0.95815 0.0
H975 H 0.02098 0.17941 0.96872 0.0
H976 H 0.09602 0.168 0.01625 0.0
H977 H 0.0372 0.16302 0.04355 0.0
H978 H 0.09786 0.22355 0.99395 0.0
H979 H 0.08426 0.20084 0.97053 0.0
H980 H 0.10691 0.19598 0.99044 0.0
H981 H 0.02718 0.21809 0.0297 0.0
H982 H 0.01397 0.18855 0.03492 0.0
H983 H 0.01307 0.19677 1.00529 0.0
C984 C 0.16891 0.85831 0.1822 0.0
C985 C 0.14915 0.85089 0.18975 0.0
C986 C 0.18842 0.85767 0.19657 0.0
C987 C 0.18825 0.8488 0.21884 0.0
C988 C 0.1683 0.84119 0.22648 0.0
C989 C 0.14907 0.84261 0.21202 0.0
C990 C 0.20925 0.86646 0.18786 0.0
C991 C 0.16722 0.83118 0.24983 0.0
C992 C 0.23779 0.82671 0.24519 0.0
C993 C 0.248 0.84531 0.26298 0.0
C994 C 0.21809 0.82731 0.2311 0.0
C995 C 0.20889 0.84752 0.23414 0.0
C996 C 0.21949 0.86658 0.2518 0.0
C997 C 0.23866 0.86503 0.26626 0.0
C998 C 0.207 0.80618 0.21316 0.0
C999 C 0.21088 0.8889 0.25509 0.0
H1000 H 0.16913 0.86469 0.16501 0.0
H1001 H 0.13389 0.83661 0.21792 0.0
H1002 H 0.22026 0.8802 0.20122 0.0
H1003 H 0.21734 0.85143 0.18528 0.0
H1004 H 0.20679 0.87427 0.1709 0.0
H1005 H 0.15043 0.82455 0.25252 0.0
H1006 H 0.17568 0.81624 0.25087 0.0
H1007 H 0.17547 0.84521 0.26451 0.0
H1008 H 0.24496 0.81143 0.24264 0.0
H1009 H 0.2467 0.87962 0.27979 0.0
H1010 H 0.20601 0.81175 0.19511 0.0
H1011 H 0.1903 0.79952 0.21611 0.0
H1012 H 0.21548 0.79123 0.21399 0.0
H1013 H 0.21056 0.89778 0.23866 0.0
H1014 H 0.22072 0.90188 0.26994 0.0
H1015 H 0.19413 0.88423 0.25844 0.0
C1016 C 0.52274 0.88481 0.47709 0.0
C1017 C 0.53641 0.88181 0.46092 0.0
C1018 C 0.52269 0.9077 0.48753 0.0
C1019 C 0.53682 0.92793 0.48182 0.0
C1020 C 0.55104 0.92491 0.46594 0.0
C1021 C 0.55059 0.90187 0.45558 0.0
C1022 C 0.50733 0.91029 0.5044 0.0
C1023 C 0.56671 0.94602 0.45985 0.0
C1024 C 0.52484 0.98978 0.49065 0.0
C1025 C 0.53948 0.99978 0.51115 0.0
C1026 C 0.52355 0.96615 0.48103 0.0
C1027 C 0.53688 0.9523 0.49255 0.0
C1028 C 0.55096 0.9621 0.51385 0.0
C1029 C 0.55216 0.98577 0.52281 0.0
C1030 C 0.50867 0.95636 0.45801 0.0
C1031 C 0.56528 0.94788 0.5268 0.0
H1032 H 0.51173 0.86931 0.48119 0.0
H1033 H 0.56132 0.89956 0.44322 0.0
H1034 H 0.51633 0.91953 0.5217 0.0
H1035 H 0.4963 0.92152 0.49742 0.0
H1036 H 0.4976 0.89273 0.50725 0.0
H1037 H 0.57606 0.9407 0.44643 0.0
H1038 H 0.55803 0.95951 0.45302 0.0
H1039 H 0.57811 0.95485 0.47598 0.0
H1040 H 0.51524 1.00077 0.48154 0.0
H1041 H 0.56337 0.99353 0.53882 0.0
H1042 H 0.49801 0.93906 0.45992 0.0
H1043 H 0.51824 0.95281 0.44418 0.0
H1044 H 0.49861 0.96892 0.45189 0.0
H1045 H 0.55546 0.931 0.531 0.0
H1046 H 0.57492 0.95801 0.54349 0.0
H1047 H 0.57643 0.94291 0.51538 0.0
C1048 C 0.51531 0.32201 0.66145 0.0
C1049 C 0.53557 0.32134 0.67375 0.0
C1050 C 0.49677 0.31541 0.67154 0.0
C1051 C 0.49852 0.30757 0.69428 0.0
C1052 C 0.51874 0.30529 0.70606 0.0
C1053 C 0.53711 0.31252 0.69579 0.0
C1054 C 0.4755 0.31807 0.65841 0.0
C1055 C 0.52105 0.29606 0.7299 0.0
C1056 C 0.45955 0.32513 0.73158 0.0
C1057 C 0.44406 0.30381 0.72982 0.0
C1058 C 0.47754 0.32625 0.72057 0.0
C1059 C 0.48002 0.30557 0.70717 0.0
C1060 C 0.46457 0.28376 0.70565 0.0
C1061 C 0.44674 0.2831 0.71718 0.0
C1062 C 0.49379 0.34975 0.72307 0.0
C1063 C 0.46648 0.26136 0.69138 0.0
H1064 H 0.51402 0.32856 0.64428 0.0
H1065 H 0.55269 0.31142 0.70509 0.0
H1066 H 0.46314 0.30133 0.65764 0.0
H1067 H 0.47003 0.33258 0.66799 0.0
H1068 H 0.47651 0.32243 0.64011 0.0
H1069 H 0.53748 0.29337 0.73579 0.0
H1070 H 0.51739 0.30892 0.74325 0.0
H1071 H 0.50937 0.27879 0.7293 0.0
H1072 H 0.45757 0.341 0.74174 0.0
H1073 H 0.4347 0.2666 0.71592 0.0
H1074 H 0.49483 0.35592 0.70542 0.0
H1075 H 0.50993 0.34734 0.73068 0.0
H1076 H 0.48968 0.36399 0.73454 0.0
H1077 H 0.46171 0.26279 0.67233 0.0
H1078 H 0.45593 0.24509 0.69592 0.0
H1079 H 0.48329 0.25911 0.69409 0.0
C1080 C 0.06779 0.9131 0.61311 0.0
C1081 C 0.08652 0.90411 0.61653 0.0
C1082 C 0.06735 0.93467 0.60303 0.0
C1083 C 0.08626 0.94825 0.59674 0.0
C1084 C 0.10544 0.93966 0.6009 0.0
C1085 C 0.10527 0.9176 0.61038 0.0
C1086 C 0.04642 0.94266 0.59862 0.0
C1087 C 0.1262 0.95386 0.59546 0.0
C1088 C 0.0776 0.98907 0.54829 0.0
C1089 C 0.07947 0.01145 0.5612 0.0
C1090 C 0.08054 0.96876 0.55957 0.0
C1091 C 0.08546 0.97055 0.58457 0.0
C1092 C 0.08821 0.99332 0.59768 0.0
C1093 C 0.08513 0.01338 0.5859 0.0
C1094 C 0.07773 0.94514 0.54468 0.0
C1095 C 0.09373 0.99647 0.62427 0.0
H1096 H 0.05324 0.90293 0.61785 0.0
H1097 H 0.11994 0.91109 0.61333 0.0
H1098 H 0.04837 0.96096 0.60762 0.0
H1099 H 0.04167 0.94341 0.57942 0.0
H1100 H 0.03323 0.93046 0.60491 0.0
H1101 H 0.13985 0.94514 0.60016 0.0
H1102 H 0.12447 0.95618 0.57639 0.0
H1103 H 0.1301 0.97203 0.60535 0.0
H1104 H 0.07342 0.98723 0.52921 0.0
H1105 H 0.08665 0.03048 0.59615 0.0
H1106 H 0.06409 0.93197 0.54905 0.0
H1107 H 0.0923 0.9378 0.54864 0.0
H1108 H 0.07464 0.94678 0.52546 0.0
H1109 H 0.07936 0.98855 0.63175 0.0
H1110 H 0.09911 0.01566 0.6315 0.0
H1111 H 0.10654 0.987 0.63031 0.0
C1112 C 0.45931 0.81099 0.87635 0.0
C1113 C 0.4797 0.82071 0.87134 0.0
C1114 C 0.44072 0.81534 0.86298 0.0
C1115 C 0.44264 0.82986 0.84431 0.0
C1116 C 0.46319 0.83976 0.83926 0.0
C1117 C 0.48146 0.83496 0.85275 0.0
C1118 C 0.41903 0.80444 0.86885 0.0
C1119 C 0.46587 0.85557 0.8197 0.0
C1120 C 0.39294 0.82137 0.79754 0.0
C1121 C 0.38425 0.84067 0.80448 0.0
C1122 C 0.41239 0.81818 0.80981 0.0
C1123 C 0.4231 0.83438 0.82984 0.0
C1124 C 0.4147 0.85436 0.83649 0.0
C1125 C 0.39544 0.85742 0.82351 0.0
C1126 C 0.42101 0.79695 0.80183 0.0
C1127 C 0.42536 0.87172 0.85806 0.0
H1128 H 0.45786 0.80003 0.89075 0.0
H1129 H 0.4972 0.84274 0.84895 0.0
H1130 H 0.41029 0.81868 0.87248 0.0
H1131 H 0.40922 0.79216 0.85351 0.0
H1132 H 0.42032 0.79426 0.88442 0.0
H1133 H 0.48297 0.86183 0.81796 0.0
H1134 H 0.45691 0.84569 0.80263 0.0
H1135 H 0.45902 0.87145 0.82309 0.0
H1136 H 0.38424 0.80843 0.78279 0.0
H1137 H 0.38849 0.87212 0.82913 0.0
H1138 H 0.42038 0.78426 0.81539 0.0
H1139 H 0.43807 0.80283 0.79983 0.0
H1140 H 0.41172 0.78726 0.78479 0.0
H1141 H 0.42348 0.86263 0.87416 0.0
H1142 H 0.41827 0.88774 0.85923 0.0
H1143 H 0.44282 0.87768 0.85805 0.0
C1144 C 0.55328 0.25711 0.10107 0.0
C1145 C 0.57429 0.27045 0.10922 0.0
C1146 C 0.54928 0.23365 0.08929 0.0
C1147 C 0.56666 0.22304 0.08541 0.0
C1148 C 0.58791 0.23639 0.09383 0.0
C1149 C 0.59144 0.25977 0.10558 0.0
C1150 C 0.52638 0.22028 0.08073 0.0
C1151 C 0.60703 0.22626 0.08987 0.0
C1152 C 0.55666 0.15481 0.06779 0.0
C1153 C 0.55397 0.1534 0.04307 0.0
C1154 C 0.56061 0.17723 0.08184 0.0
C1155 C 0.56263 0.19885 0.07102 0.0
C1156 C 0.56056 0.19738 0.0461 0.0
C1157 C 0.55599 0.17486 0.03256 0.0
C1158 C 0.56237 0.17777 0.10826 0.0
C1159 C 0.5631 0.21969 0.0336 0.0
H1160 H 0.53988 0.26504 0.10383 0.0
H1161 H 0.60775 0.26979 0.11181 0.0
H1162 H 0.5234 0.21665 0.06119 0.0
H1163 H 0.52352 0.2027 0.08783 0.0
H1164 H 0.51461 0.23041 0.08605 0.0
H1165 H 0.62238 0.23774 0.0995 0.0
H1166 H 0.60536 0.20807 0.09559 0.0
H1167 H 0.60784 0.22457 0.07073 0.0
H1168 H 0.55524 0.13844 0.07612 0.0
H1169 H 0.55422 0.17411 0.01349 0.0
H1170 H 0.55012 0.18666 0.11436 0.0
H1171 H 0.57834 0.18846 0.11705 0.0
H1172 H 0.56012 0.15954 0.11403 0.0
H1173 H 0.55034 0.22931 0.03661 0.0
H1174 H 0.56221 0.21564 0.01426 0.0
H1175 H 0.57875 0.23202 0.04088 0.0
C1176 C 0.10198 0.30619 0.37871 0.0
C1177 C 0.08172 0.30972 0.36942 0.0
C1178 C 0.11651 0.30187 0.36387 0.0
C1179 C 0.11104 0.30195 0.33911 0.0
C1180 C 0.09059 0.30569 0.32961 0.0
C1181 C 0.07602 0.30906 0.34484 0.0
C1182 C 0.13777 0.29712 0.37472 0.0
C1183 C 0.08402 0.30611 0.30341 0.0
C1184 C 0.16049 0.31545 0.3096 0.0
C1185 C 0.16211 0.29246 0.30096 0.0
C1186 C 0.14319 0.31889 0.32068 0.0
C1187 C 0.12719 0.29888 0.3236 0.0
C1188 C 0.12807 0.27578 0.31372 0.0
C1189 C 0.14547 0.27286 0.30253 0.0
C1190 C 0.14237 0.34394 0.32994 0.0
C1191 C 0.11134 0.2539 0.31615 0.0
H1192 H 0.10629 0.30625 0.39763 0.0
H1193 H 0.06028 0.31159 0.33755 0.0
H1194 H 0.13994 0.27993 0.36629 0.0
H1195 H 0.15107 0.31147 0.3715 0.0
H1196 H 0.13909 0.29626 0.39405 0.0
H1197 H 0.06928 0.31316 0.29933 0.0
H1198 H 0.09711 0.31723 0.29601 0.0
H1199 H 0.08084 0.28767 0.29429 0.0
H1200 H 0.17294 0.33078 0.30793 0.0
H1201 H 0.14652 0.25502 0.29594 0.0
H1202 H 0.14513 0.34585 0.34953 0.0
H1203 H 0.12625 0.34739 0.32393 0.0
H1204 H 0.15463 0.35777 0.32408 0.0
H1205 H 0.114 0.2494 0.33458 0.0
H1206 H 0.1121 0.23814 0.30408 0.0
H1207 H 0.09496 0.25732 0.31247 0.0
C1208 C 0.95367 0.06213 0.12986 0.0
C1209 C 0.95647 0.06056 0.15412 0.0
C1210 C 0.97134 0.0718 0.11937 0.0
C1211 C 0.99177 0.08039 0.13376 0.0
C1212 C 0.99418 0.08022 0.15846 0.0
C1213 C 0.97651 0.07014 0.1683 0.0
C1214 C 0.96847 0.0715 0.09287 0.0
C1215 C 0.0157 0.08928 0.17436 0.0
C1216 C 0.04088 0.07262 0.10943 0.0
C1217 C 0.04972 0.096 0.10545 0.0
C1218 C 0.02177 0.06732 0.11824 0.0
C1219 C 0.01126 0.08596 0.12308 0.0
C1220 C 0.02033 0.1098 0.11953 0.0
C1221 C 0.0397 0.11461 0.11069 0.0
C1222 C 0.01287 0.04174 0.12229 0.0
C1223 C 1.00933 0.12993 0.12453 0.0
H1224 H 0.93804 0.05492 0.11911 0.0
H1225 H 0.97847 0.0695 0.18726 0.0
H1226 H 0.97641 0.08903 0.08799 0.0
H1227 H 0.97621 0.05776 0.08541 0.0
H1228 H 0.95126 0.06728 0.08461 0.0
H1229 H 0.01434 0.08995 0.19338 0.0
H1230 H 0.02665 0.07735 0.17084 0.0
H1231 H 0.02327 0.10746 0.17066 0.0
H1232 H 0.04871 0.05826 0.105 0.0
H1233 H 0.04638 0.13252 0.10682 0.0
H1234 H 0.99619 0.03547 0.1126 0.0
H1235 H 0.01234 0.04072 0.14134 0.0
H1236 H 0.02265 0.02927 0.11649 0.0
H1237 H 0.99353 0.12656 0.11275 0.0
H1238 H 0.01897 0.14758 0.12179 0.0
H1239 H 1.00625 0.13073 0.14297 0.0
C1240 C 0.29344 0.73942 0.4402 0.0
C1241 C 0.28491 0.74833 0.45919 0.0
C1242 C 0.29236 0.74969 0.41883 0.0
C1243 C 0.2822 0.76916 0.41616 0.0
C1244 C 0.27237 0.77724 0.43473 0.0
C1245 C 0.2741 0.76697 0.45615 0.0
C1246 C 0.30286 0.74033 0.39944 0.0
C1247 C 0.26029 0.79696 0.43202 0.0
C1248 C 0.30409 0.81429 0.37611 0.0
C1249 C 0.29025 0.80628 0.35454 0.0
C1250 C 0.3014 0.8025 0.39624 0.0
C1251 C 0.284 0.78262 0.39509 0.0
C1252 C 0.26937 0.77508 0.37358 0.0
C1253 C 0.27294 0.7867 0.35342 0.0
C1254 C 0.31776 0.81078 0.41852 0.0
C1255 C 0.25027 0.75437 0.37141 0.0
H1256 H 0.30157 0.7248 0.44227 0.0
H1257 H 0.26703 0.77357 0.47054 0.0
H1258 H 0.29114 0.73533 0.38276 0.0
H1259 H 0.31621 0.7546 0.39617 0.0
H1260 H 0.30932 0.72445 0.40386 0.0
H1261 H 0.25156 0.7994 0.44694 0.0
H1262 H 0.27164 0.81409 0.43109 0.0
H1263 H 0.24858 0.79295 0.41527 0.0
H1264 H 0.31763 0.82926 0.37706 0.0
H1265 H 0.26215 0.78045 0.3368 0.0
H1266 H 0.32564 0.796 0.4234 0.0
H1267 H 0.30974 0.81556 0.43336 0.0
H1268 H 0.33035 0.82653 0.41652 0.0
H1269 H 0.25508 0.7375 0.36626 0.0
H1270 H 0.23704 0.75631 0.35749 0.0
H1271 H 0.24408 0.75272 0.3883 0.0
C1272 C 0.61571 0.016 0.68967 0.0
C1273 C 0.62588 0.99731 0.68503 0.0
C1274 C 0.60673 0.02712 0.67129 0.0
C1275 C 0.60736 0.01866 0.64778 0.0
C1276 C 0.61787 0.99993 0.643 0.0
C1277 C 0.62748 0.98971 0.66189 0.0
C1278 C 0.59622 0.04755 0.67706 0.0
C1279 C 0.6186 0.9905 0.61801 0.0
C1280 C 0.56092 0.02584 0.60338 0.0
C1281 C 0.56993 0.0464 0.59376 0.0
C1282 C 0.5731 0.01655 0.62086 0.0
C1283 C 0.59498 0.02771 0.6283 0.0
C1284 C 0.60438 0.04818 0.61826 0.0
C1285 C 0.5915 0.05772 0.60145 0.0
C1286 C 0.56237 0.99516 0.63178 0.0
C1287 C 0.62776 0.06039 0.62573 0.0
H1288 H 0.61535 0.02239 0.7078 0.0
H1289 H 0.63596 0.97567 0.65863 0.0
H1290 H 0.60213 0.063 0.66757 0.0
H1291 H 0.57862 0.0418 0.6711 0.0
H1292 H 0.59932 0.05366 0.69629 0.0
H1293 H 0.62821 0.97658 0.61736 0.0
H1294 H 0.60205 0.98266 0.60854 0.0
H1295 H 0.62552 1.00538 0.60835 0.0
H1296 H 0.54414 0.01721 0.59761 0.0
H1297 H 0.59824 0.07409 0.59457 0.0
H1298 H 0.56293 1.00018 0.65089 0.0
H1299 H 0.57109 0.98053 0.63017 0.0
H1300 H 0.54532 0.9882 0.62342 0.0
H1301 H 0.63011 0.07044 0.64351 0.0
H1302 H 0.63337 0.07314 0.61327 0.0
H1303 H 0.63795 0.04703 0.62693 0.0
C1304 C 0.31724 0.40687 0.96062 0.0
C1305 C 0.32609 0.39741 0.98055 0.0
C1306 C 0.31797 0.39726 0.93764 0.0
C1307 C 0.32765 0.37754 0.93439 0.0
C1308 C 0.33654 0.36783 0.95442 0.0
C1309 C 0.3357 0.3779 0.97726 0.0
C1310 C 0.30828 0.4082 0.91683 0.0
C1311 C 0.34693 0.34677 0.95169 0.0
C1312 C 0.30957 0.3391 0.87511 0.0
C1313 C 0.32641 0.34723 0.86287 0.0
C1314 C 0.31005 0.34839 0.89848 0.0
C1315 C 0.32772 0.36654 0.90999 0.0
C1316 C 0.34499 0.3746 0.89789 0.0
C1317 C 0.34422 0.3647 0.87451 0.0
C1318 C 0.29136 0.3391 0.91066 0.0
C1319 C 0.36389 0.3943 0.90935 0.0
H1320 H 0.30987 0.42203 0.96296 0.0
H1321 H 0.3427 0.37059 0.99255 0.0
H1322 H 0.32017 0.41294 0.90497 0.0
H1323 H 0.29437 0.39496 0.90641 0.0
H1324 H 0.30275 0.42453 0.92236 0.0
H1325 H 0.35308 0.34127 0.96898 0.0
H1326 H 0.33518 0.3313 0.94121 0.0
H1327 H 0.36047 0.35134 0.94187 0.0
H1328 H 0.29581 0.32546 0.86631 0.0
H1329 H 0.35719 0.37123 0.8651 0.0
H1330 H 0.28311 0.3537 0.91462 0.0
H1331 H 0.29718 0.333 0.92774 0.0
H1332 H 0.27945 0.32399 0.89974 0.0
H1333 H 0.35848 0.41126 0.91216 0.0
H1334 H 0.37678 0.39722 0.89841 0.0
H1335 H 0.3707 0.39006 0.92694 0.0
C1336 C 0.97553 0.05242 0.26669 0.0
C1337 C 0.95553 0.05834 0.26561 0.0
C1338 C 0.98883 0.05394 0.28828 0.0
C1339 C 0.98195 0.06206 0.30895 0.0
C1340 C 0.96181 0.06825 0.308 0.0
C1341 C 0.9486 0.06609 0.28611 0.0
C1342 C 0.00995 0.04632 0.28904 0.0
C1343 C 0.95425 0.07694 0.33 0.0
C1344 C 1.00799 0.04253 0.36403 0.0
C1345 C 0.02388 0.06304 0.3728 0.0
C1346 C 0.99361 0.04226 0.34353 0.0
C1347 C 0.99563 0.06297 0.33166 0.0
C1348 C 0.01161 0.08385 0.34059 0.0
C1349 C 0.02557 0.08373 0.3615 0.0
C1350 C 0.97646 0.01986 0.3345 0.0
C1351 C 0.01408 0.10601 0.32791 0.0
H1352 H 0.98054 0.04596 0.25069 0.0
H1353 H 0.93299 0.07055 0.28499 0.0
H1354 H 0.02338 0.06114 0.29785 0.0
H1355 H 0.01002 0.03095 0.29955 0.0
H1356 H 0.01302 0.04094 0.27114 0.0
H1357 H 0.93785 0.0804 0.32614 0.0
H1358 H 0.95424 0.06353 0.34285 0.0
H1359 H 0.96548 0.09371 0.33866 0.0
H1360 H 1.00659 0.02688 0.37358 0.0
H1361 H 0.03773 0.09961 0.36899 0.0
H1362 H 0.97876 0.01254 0.31691 0.0
H1363 H 0.96035 0.02412 0.33229 0.0
H1364 H 0.97669 1.00571 0.34658 0.0
H1365 H 0.01833 0.1019 0.31031 0.0
H1366 H 0.02671 0.12107 0.33788 0.0
H1367 H 0.99865 0.11184 0.32492 0.0
C1368 C 0.29313 0.74453 0.61023 0.0
C1369 C 0.30287 0.75545 0.59239 0.0
C1370 C 0.29594 0.75636 0.63335 0.0
C1371 C 0.30918 0.77973 0.63929 0.0
C1372 C 0.31923 0.79078 0.62136 0.0
C1373 C 0.31585 0.77866 0.59823 0.0
C1374 C 0.28435 0.74391 0.65135 0.0
C1375 C 0.3338 0.8154 0.62667 0.0
C1376 C 0.30164 0.82098 0.69202 0.0
C1377 C 0.31768 0.81815 0.71025 0.0
C1378 C 0.2984 0.80825 0.66924 0.0
C1379 C 0.31201 0.79276 0.66398 0.0
C1380 C 0.3283 0.78989 0.6824 0.0
C1381 C 0.33075 0.80232 0.7053 0.0
C1382 C 0.28052 0.81168 0.65066 0.0
C1383 C 0.34355 0.77411 0.67775 0.0
H1384 H 0.28298 0.72669 0.60604 0.0
H1385 H 0.32357 0.78732 0.58473 0.0
H1386 H 0.29603 0.74245 0.66705 0.0
H1387 H 0.27333 0.75465 0.65741 0.0
H1388 H 0.27488 0.72567 0.64418 0.0
H1389 H 0.34009 0.82182 0.61085 0.0
H1390 H 0.32509 0.82843 0.63358 0.0
H1391 H 0.34757 0.81511 0.64061 0.0
H1392 H 0.29163 0.83341 0.69556 0.0
H1393 H 0.34347 0.80039 0.71907 0.0
H1394 H 0.27001 0.79407 0.64315 0.0
H1395 H 0.28734 0.82001 0.63594 0.0
H1396 H 0.27054 0.82319 0.65779 0.0
H1397 H 0.33452 0.75528 0.673 0.0
H1398 H 0.3562 0.77488 0.69331 0.0
H1399 H 0.35136 0.77957 0.66254 0.0
C1400 C 0.65165 0.03838 0.81362 0.0
C1401 C 0.6387 0.01547 0.8058 0.0
C1402 C 0.64437 0.05521 0.82721 0.0
C1403 C 0.62406 0.04857 0.83394 0.0
C1404 C 0.61088 0.02544 0.82615 0.0
C1405 C 0.61822 0.00929 0.81164 0.0
C1406 C 0.65821 0.08016 0.83401 0.0
C1407 C 0.58914 0.01768 0.83328 0.0
C1408 C 0.61263 0.07363 0.89133 0.0
C1409 C 0.59516 0.08349 0.88328 0.0
C1410 C 0.62342 0.06355 0.87538 0.0
C1411 C 0.61728 0.06472 0.85099 0.0
C1412 C 0.60216 0.07826 0.84316 0.0
C1413 C 0.59086 0.0872 0.85947 0.0
C1414 C 0.6394 0.04915 0.88447 0.0
C1415 C 0.59664 0.08154 0.81743 0.0
H1416 H 0.6672 0.04355 0.80827 0.0
H1417 H 0.60806 0.99184 0.80497 0.0
H1418 H 0.64916 0.09351 0.82764 0.0
H1419 H 0.66237 0.08416 0.85347 0.0
H1420 H 0.67334 0.08259 0.82661 0.0
H1421 H 0.58176 0.9985 0.82729 0.0
H1422 H 0.59055 0.02062 0.85278 0.0
H1423 H 0.57814 0.02859 0.82557 0.0
H1424 H 0.61653 0.07177 0.90997 0.0
H1425 H 0.57766 0.09536 0.85327 0.0
H1426 H 0.65445 0.05422 0.87723 0.0
H1427 H 0.63256 0.02986 0.87856 0.0
H1428 H 0.64344 0.05155 0.90406 0.0
H1429 H 0.61142 0.08586 0.80951 0.0
H1430 H 0.58771 0.09599 0.81495 0.0
H1431 H 0.58651 0.06465 0.80762 0.0
C1432 C 0.33569 0.38594 0.119 0.0
C1433 C 0.32089 0.39828 0.10831 0.0
C1434 C 0.3319 0.37348 0.13875 0.0
C1435 C 0.31231 0.3722 0.14754 0.0
C1436 C 0.29707 0.38421 0.13636 0.0
C1437 C 0.30174 0.39749 0.11734 0.0
C1438 C 0.34898 0.36177 0.15033 0.0
C1439 C 0.27567 0.38279 0.14431 0.0
C1440 C 0.29481 0.32053 0.18431 0.0
C1441 C 0.29992 0.33193 0.20758 0.0
C1442 C 0.29854 0.33334 0.16476 0.0
C1443 C 0.30782 0.35831 0.1683 0.0
C1444 C 0.313 0.36989 0.1918 0.0
C1445 C 0.30896 0.35667 0.21101 0.0
C1446 C 0.2923 0.32013 0.14021 0.0
C1447 C 0.323 0.39633 0.19673 0.0
H1448 H 0.35053 0.38648 0.1122 0.0
H1449 H 0.29009 0.40674 0.10904 0.0
H1450 H 0.35295 0.36789 0.16955 0.0
H1451 H 0.3429 0.34207 0.14833 0.0
H1452 H 0.36392 0.36582 0.14262 0.0
H1453 H 0.2649 0.39147 0.13273 0.0
H1454 H 0.26754 0.3638 0.14444 0.0
H1455 H 0.27811 0.39164 0.16262 0.0
H1456 H 0.28768 0.30151 0.18132 0.0
H1457 H 0.31285 0.3658 0.22881 0.0
H1458 H 0.30667 0.3214 0.13157 0.0
H1459 H 0.28085 0.32852 0.12929 0.0
H1460 H 0.28479 0.30091 0.14026 0.0
H1461 H 0.33865 0.40008 0.19044 0.0
H1462 H 0.32565 0.40287 0.21583 0.0
H1463 H 0.31259 0.40667 0.18692 0.0
C1464 C 0.28541 0.99199 0.08405 0.0
C1465 C 0.28273 0.97975 0.06134 0.0
C1466 C 0.27021 1.00467 0.09046 0.0
C1467 C 0.2522 1.00577 0.07351 0.0
C1468 C 0.2496 0.99357 0.05051 0.0
C1469 C 0.26464 0.98038 0.04488 0.0
C1470 C 0.27315 0.01616 0.11555 0.0
C1471 C 0.23108 0.99479 0.03164 0.0
C1472 C 0.20008 0.02143 0.08635 0.0
C1473 C 0.20331 0.04554 0.08222 0.0
C1474 C 0.2165 0.00874 0.08544 0.0
C1475 C 0.23626 0.02012 0.07923 0.0
C1476 C 0.23983 0.04478 0.07606 0.0
C1477 C 0.22341 0.05724 0.07788 0.0
C1478 C 0.21251 0.98299 0.09056 0.0
C1479 C 0.26064 0.05776 0.06963 0.0
H1480 H 0.29919 0.9912 0.09701 0.0
H1481 H 0.26251 0.971 0.02732 0.0
H1482 H 0.26975 0.03432 0.11614 0.0
H1483 H 0.26162 1.00517 0.125 0.0
H1484 H 0.28964 0.01747 0.12523 0.0
H1485 H 0.23179 0.98516 0.0144 0.0
H1486 H 0.21565 0.98687 0.03714 0.0
H1487 H 0.23107 0.01377 0.02921 0.0
H1488 H 0.18462 0.01245 0.09001 0.0
H1489 H 0.22592 0.07591 0.07476 0.0
H1490 H 0.22622 0.98005 0.10319 0.0
H1491 H 0.21118 0.97106 0.07407 0.0
H1492 H 0.19755 0.97771 0.09804 0.0
H1493 H 0.27439 0.05624 0.083 0.0
H1494 H 0.26111 0.07705 0.06832 0.0
H1495 H 0.26284 0.04936 0.05242 0.0
C1496 C 0.70883 0.68439 0.00614 0.0
C1497 C 0.72763 0.67579 0.01141 0.0
C1498 C 0.68842 0.67003 0.00688 0.0
C1499 C 0.68658 0.64646 0.01338 0.0
C1500 C 0.70553 0.63768 0.0187 0.0
C1501 C 0.72572 0.65232 0.01751 0.0
C1502 C 0.66879 0.68016 1.00075 0.0
C1503 C 0.70452 0.61282 0.02588 0.0
C1504 C 0.63541 0.61799 0.03644 0.0
C1505 C 0.62403 0.60169 0.0171 0.0
C1506 C 0.65588 0.63229 0.03564 0.0
C1507 C 0.66489 0.63103 0.01465 0.0
C1508 C 0.65312 0.61493 0.9949 0.0
C1509 C 0.63309 0.6002 0.99651 0.0
C1510 C 0.66805 0.6485 0.0574 0.0
C1511 C 0.66154 0.61351 0.97189 0.0
H1512 H 0.71007 0.70249 1.00148 0.0
H1513 H 0.7401 0.64548 0.02173 0.0
H1514 H 0.65711 0.66806 0.98656 0.0
H1515 H 0.66075 0.6814 0.01638 0.0
H1516 H 0.67275 0.69825 0.99482 0.0
H1517 H 0.72072 0.60916 0.03093 0.0
H1518 H 0.69577 0.61039 0.04101 0.0
H1519 H 0.69548 0.59933 0.01107 0.0
H1520 H 0.62851 0.61913 0.05241 0.0
H1521 H 0.62424 0.58782 0.98142 0.0
H1522 H 0.67105 0.66741 0.05357 0.0
H1523 H 0.68394 0.64413 0.06259 0.0
H1524 H 0.65926 0.64685 0.07256 0.0
H1525 H 0.66365 0.63124 0.96508 0.0
H1526 H 0.6506 0.59998 0.95823 0.0
H1527 H 0.67752 0.60895 0.97472 0.0
C1528 C 0.71468 0.55 0.31038 0.0
C1529 C 0.72093 0.55285 0.33494 0.0
C1530 C 0.72388 0.53585 0.29591 0.0
C1531 C 0.73881 0.52342 0.30656 0.0
C1532 C 0.74477 0.5259 0.33151 0.0
C1533 C 0.73609 0.54116 0.34545 0.0
C1534 C 0.71754 0.53445 0.26944 0.0
C1535 C 0.76037 0.51248 0.34345 0.0
C1536 C 0.75045 0.46776 0.27757 0.0
C1537 C 0.77191 0.47619 0.27515 0.0
C1538 C 0.73867 0.4834 0.28615 0.0
C1539 C 0.74857 0.50792 0.29195 0.0
C1540 C 0.76919 0.51694 0.28668 0.0
C1541 C 0.78079 0.50089 0.27858 0.0
C1542 C 0.71634 0.47342 0.29079 0.0
C1543 C 0.77959 0.54332 0.29125 0.0
H1544 H 0.70311 0.55955 0.30242 0.0
H1545 H 0.7409 0.54377 0.36449 0.0
H1546 H 0.7307 0.53149 0.25999 0.0
H1547 H 0.7035 0.51934 0.2634 0.0
H1548 H 0.71277 0.55107 0.26428 0.0
H1549 H 0.76225 0.51532 0.36301 0.0
H1550 H 0.75481 0.49301 0.33762 0.0
H1551 H 0.77634 0.51843 0.3383 0.0
H1552 H 0.7433 0.44875 0.2741 0.0
H1553 H 0.79731 0.50759 0.2766 0.0
H1554 H 0.70498 0.48369 0.2826 0.0
H1555 H 0.7163 0.47527 0.3101 0.0
H1556 H 0.71043 0.45422 0.28379 0.0
H1557 H 0.76811 0.55406 0.28428 0.0
H1558 H 0.79422 0.54778 0.28305 0.0
H1559 H 0.78419 0.54868 0.31056 0.0
C1560 C 0.9064 0.47851 0.5485 0.0
C1561 C 0.8869 0.4852 0.54167 0.0
C1562 C 0.92594 0.49307 0.54555 0.0
C1563 C 0.92593 0.51482 0.53556 0.0
C1564 C 0.90633 0.52186 0.52905 0.0
C1565 C 0.88704 0.50697 0.53219 0.0
C1566 C 0.94655 0.48501 0.55278 0.0
C1567 C 0.90573 0.54493 0.51836 0.0
C1568 C 0.97899 0.56045 0.54552 0.0
C1569 C 0.98627 0.55653 0.52413 0.0
C1570 C 0.95907 0.54752 0.54923 0.0
C1571 C 0.94638 0.52988 0.53132 0.0
C1572 C 0.95349 0.52619 0.5095 0.0
C1573 C 0.97328 0.53978 0.50606 0.0
C1574 C 0.9519 0.55229 0.57257 0.0
C1575 C 0.94066 0.50714 0.49019 0.0
H1576 H 0.90639 0.46174 0.55591 0.0
H1577 H 0.87201 0.51224 0.52689 0.0
H1578 H 0.95478 0.48338 0.53734 0.0
H1579 H 0.95758 0.49857 0.56629 0.0
H1580 H 0.94378 0.46753 0.56011 0.0
H1581 H 0.8893 0.54838 0.51525 0.0
H1582 H 0.91654 0.56023 0.53013 0.0
H1583 H 0.91165 0.54424 0.50126 0.0
H1584 H 0.98906 0.57341 0.55951 0.0
H1585 H 0.97905 0.53645 0.48966 0.0
H1586 H 0.95127 0.53629 0.58226 0.0
H1587 H 0.93549 0.55573 0.56961 0.0
H1588 H 0.96287 0.56785 0.5839 0.0
H1589 H 0.94004 0.48921 0.49631 0.0
H1590 H 0.94769 0.50761 0.47372 0.0
H1591 H 0.92388 0.5093 0.48605 0.0
C1592 C 0.41278 0.21718 0.32504 0.0
C1593 C 0.42827 0.21488 0.31095 0.0
C1594 C 0.39493 0.22622 0.31657 0.0
C1595 C 0.39217 0.23223 0.29315 0.0
C1596 C 0.40778 0.2299 0.27878 0.0
C1597 C 0.4259 0.22157 0.28803 0.0
C1598 C 0.37904 0.22932 0.33269 0.0
C1599 C 0.40517 0.23589 0.25361 0.0
C1600 C 0.33596 0.2388 0.26821 0.0
C1601 C 0.3389 0.2637 0.27096 0.0
C1602 C 0.35344 0.22814 0.27456 0.0
C1603 C 0.37385 0.24284 0.2845 0.0
C1604 C 0.37666 0.26797 0.28748 0.0
C1605 C 0.3592 0.27803 0.28058 0.0
C1606 C 0.35018 0.20127 0.27048 0.0
C1607 C 0.3979 0.28432 0.29865 0.0
H1608 H 0.41451 0.21155 0.34261 0.0
H1609 H 0.4376 0.21904 0.27693 0.0
H1610 H 0.3775 0.24825 0.33443 0.0
H1611 H 0.36295 0.21816 0.32502 0.0
H1612 H 0.38384 0.22429 0.3506 0.0
H1613 H 0.4173 0.2303 0.24394 0.0
H1614 H 0.3889 0.22704 0.24397 0.0
H1615 H 0.40682 0.25548 0.25344 0.0
H1616 H 0.32027 0.22782 0.2607 0.0
H1617 H 0.36141 0.29735 0.28319 0.0
H1618 H 0.35307 0.19393 0.2876 0.0
H1619 H 0.36195 0.19646 0.2598 0.0
H1620 H 0.33371 0.19255 0.26124 0.0
H1621 H 0.40187 0.28111 0.31736 0.0
H1622 H 0.39767 0.30356 0.29811 0.0
H1623 H 0.411 0.28048 0.28958 0.0
C1624 C 0.33777 0.16828 0.54056 0.0
C1625 C 0.34089 0.19168 0.53428 0.0
C1626 C 0.35526 0.15766 0.5466 0.0
C1627 C 0.37629 0.1706 0.54588 0.0
C1628 C 0.37956 0.19443 0.54008 0.0
C1629 C 0.36182 0.20477 0.53454 0.0
C1630 C 0.35121 0.13239 0.55323 0.0
C1631 C 0.40173 0.20867 0.53882 0.0
C1632 C 0.42474 0.14765 0.57264 0.0
C1633 C 0.42964 0.13618 0.55246 0.0
C1634 C 0.40738 0.15905 0.57089 0.0
C1635 C 0.39453 0.15841 0.54855 0.0
C1636 C 0.39926 0.14635 0.52829 0.0
C1637 C 0.41684 0.13554 0.53049 0.0
C1638 C 0.40291 0.17192 0.59282 0.0
C1639 C 0.38575 0.14482 0.50423 0.0
H1640 H 0.32163 0.15825 0.54075 0.0
H1641 H 0.36429 0.2229 0.52977 0.0
H1642 H 0.3566 0.12052 0.54037 0.0
H1643 H 0.36068 0.13191 0.57084 0.0
H1644 H 0.33398 0.12506 0.5537 0.0
H1645 H 0.40173 0.22745 0.53547 0.0
H1646 H 0.41282 0.20885 0.55554 0.0
H1647 H 0.40821 0.20007 0.52443 0.0
H1648 H 0.43466 0.14795 0.58963 0.0
H1649 H 0.42045 0.12619 0.51501 0.0
H1650 H 0.38621 0.1647 0.59539 0.0
H1651 H 0.4044 0.19121 0.59076 0.0
H1652 H 0.41409 0.17024 0.60891 0.0
H1653 H 0.36887 0.13595 0.5047 0.0
H1654 H 0.3916 0.13465 0.49032 0.0
H1655 H 0.38579 0.16309 0.49922 0.0
C1656 C 0.72463 0.69433 0.35626 0.0
C1657 C 0.73392 0.67455 0.35928 0.0
C1658 C 0.73606 0.71507 0.3489 0.0
C1659 C 0.75688 0.71549 0.34395 0.0
C1660 C 0.76666 0.69597 0.34806 0.0
C1661 C 0.75511 0.67579 0.35607 0.0
C1662 C 0.72547 0.73591 0.34524 0.0
C1663 C 0.7888 0.69576 0.34259 0.0
C1664 C 0.77973 0.75065 0.29785 0.0
C1665 C 0.79647 0.76733 0.31212 0.0
C1666 C 0.76563 0.73431 0.30808 0.0
C1667 C 0.76819 0.73551 0.33303 0.0
C1668 C 0.78385 0.75387 0.34738 0.0
C1669 C 0.79815 0.76938 0.3367 0.0
C1670 C 0.74919 0.71469 0.2923 0.0
C1671 C 0.78631 0.75622 0.37398 0.0
H1672 H 0.70818 0.69327 0.35883 0.0
H1673 H 0.76217 0.66037 0.35825 0.0
H1674 H 0.73694 0.75318 0.3519 0.0
H1675 H 0.72008 0.73618 0.32609 0.0
H1676 H 0.71125 0.73464 0.3542 0.0
H1677 H 0.79407 0.67917 0.34698 0.0
H1678 H 0.78893 0.69725 0.32353 0.0
H1679 H 0.80069 0.71136 0.35263 0.0
H1680 H 0.77848 0.7495 0.27879 0.0
H1681 H 0.81089 0.78286 0.34759 0.0
H1682 H 0.73309 0.71363 0.2972 0.0
H1683 H 0.75347 0.69718 0.29467 0.0
H1684 H 0.74821 0.71746 0.27334 0.0
H1685 H 0.77045 0.75515 0.37956 0.0
H1686 H 0.79726 0.77335 0.38229 0.0
H1687 H 0.79287 0.74122 0.38079 0.0
C1688 C 0.93645 0.58343 0.82713 0.0
C1689 C 0.93084 0.60438 0.82042 0.0
C1690 C 0.92176 0.56153 0.82082 0.0
C1691 C 0.90162 0.56098 0.80684 0.0
C1692 C 0.89656 0.58201 0.79884 0.0
C1693 C 0.91118 0.60367 0.80613 0.0
C1694 C 0.92738 0.53926 0.82986 0.0
C1695 C 0.87546 0.58171 0.78332 0.0
C1696 C 0.86978 0.49946 0.78239 0.0
C1697 C 0.85753 0.49433 0.80019 0.0
C1698 C 0.88364 0.52178 0.78357 0.0
C1699 C 0.88493 0.53896 0.80294 0.0
C1700 C 0.87113 0.53458 0.81973 0.0
C1701 C 0.8574 0.51219 0.81804 0.0
C1702 C 0.89801 0.52626 0.76525 0.0
C1703 C 0.87228 0.55268 0.84067 0.0
H1704 H 0.95197 0.58433 0.83781 0.0
H1705 H 0.90738 0.62006 0.80036 0.0
H1706 H 0.91619 0.53216 0.84179 0.0
H1707 H 0.9255 0.52513 0.81497 0.0
H1708 H 0.94407 0.54274 0.8397 0.0
H1709 H 0.87529 0.59909 0.77617 0.0
H1710 H 0.87209 0.56735 0.76834 0.0
H1711 H 0.86223 0.57781 0.79369 0.0
H1712 H 0.8697 0.48543 0.7686 0.0
H1713 H 0.84809 0.50798 0.83195 0.0
H1714 H 0.91472 0.52612 0.77317 0.0
H1715 H 0.89818 0.54413 0.75915 0.0
H1716 H 0.8929 0.51242 0.74971 0.0
H1717 H 0.88792 0.55493 0.85255 0.0
H1718 H 0.85922 0.54713 0.85097 0.0
H1719 H 0.8713 0.57041 0.8348 0.0
C1720 C 0.09477 0.93 0.12577 0.0
C1721 C 0.08805 0.9076 0.11203 0.0
C1722 C 0.09225 0.95138 0.11623 0.0
C1723 C 0.08241 0.95054 0.09237 0.0
C1724 C 0.07577 0.92799 0.07836 0.0
C1725 C 0.07877 0.90691 0.08826 0.0
C1726 C 0.09991 0.97488 0.13186 0.0
C1727 C 0.06532 0.9261 0.05286 0.0
C1728 C 0.05653 1.0025 0.07449 0.0
C1729 C 0.07249 0.01669 0.06436 0.0
C1730 C 0.05953 0.98106 0.08359 0.0
C1731 C 0.0788 0.97316 0.08222 0.0
C1732 C 0.09475 0.98719 0.07151 0.0
C1733 C 0.09151 0.00878 0.06302 0.0
C1734 C 0.04225 0.96711 0.09524 0.0
C1735 C 0.11556 0.97978 0.06954 0.0
H1736 H 0.102 0.93086 0.14413 0.0
H1737 H 0.07344 0.88977 0.07746 0.0
H1738 H 0.11094 0.98775 0.12344 0.0
H1739 H 0.08601 0.98287 0.13419 0.0
H1740 H 0.10838 0.97277 0.14955 0.0
H1741 H 0.06091 0.90733 0.0443 0.0
H1742 H 0.05062 0.93338 0.05163 0.0
H1743 H 0.07639 0.93702 0.04286 0.0
H1744 H 0.04194 0.00858 0.07607 0.0
H1745 H 0.10404 0.0196 0.0554 0.0
H1746 H 0.04879 0.96607 0.11397 0.0
H1747 H 0.0369 0.94849 0.08642 0.0
H1748 H 0.0281 0.97535 0.09468 0.0
H1749 H 0.12546 0.98182 0.08735 0.0
H1750 H 0.125 0.99077 0.05806 0.0
H1751 H 0.11245 0.96066 0.06235 0.0
C1752 C 0.95337 0.31533 0.89622 0.0
C1753 C 0.97103 0.3157 0.8845 0.0
C1754 C 0.93373 0.31938 0.88468 0.0
C1755 C 0.93144 0.32395 0.86069 0.0
C1756 C 0.94938 0.32489 0.84895 0.0
C1757 C 0.96882 0.32072 0.86089 0.0
C1758 C 0.9153 0.31846 0.89813 0.0
C1759 C 0.94802 0.33035 0.82366 0.0
C1760 C 0.87626 0.30819 0.82076 0.0
C1761 C 0.87075 0.33047 0.81973 0.0
C1762 C 0.89551 0.30581 0.83459 0.0
C1763 C 0.91007 0.32632 0.84738 0.0
C1764 C 0.9044 0.34893 0.84659 0.0
C1765 C 0.88469 0.35067 0.83307 0.0
C1766 C 0.90036 0.28126 0.83528 0.0
C1767 C 0.91918 0.37136 0.85989 0.0
H1768 H 0.95489 0.31188 0.91455 0.0
H1769 H 0.98238 0.32152 0.85172 0.0
H1770 H 0.90916 0.33507 0.89703 0.0
H1771 H 0.90189 0.30328 0.89006 0.0
H1772 H 0.91997 0.31627 0.91704 0.0
H1773 H 0.96353 0.3314 0.81722 0.0
H1774 H 0.93557 0.31628 0.81209 0.0
H1775 H 0.94311 0.34763 0.82194 0.0
H1776 H 0.8654 0.29249 0.81071 0.0
H1777 H 0.88042 0.36792 0.83248 0.0
H1778 H 0.90361 0.27732 0.85385 0.0
H1779 H 0.91501 0.28074 0.82754 0.0
H1780 H 0.88694 0.26696 0.82541 0.0
H1781 H 0.91921 0.37097 0.87911 0.0
H1782 H 0.91412 0.38782 0.85465 0.0
H1783 H 0.9359 0.3724 0.85689 0.0
C1784 C 0.5645 0.2623 0.5945 0.0
C1785 C 0.58425 0.27483 0.60775 0.0
C1786 C 0.56113 0.2378 0.5863 0.0
C1787 C 0.5779 0.22552 0.59146 0.0
C1788 C 0.59779 0.23811 0.60493 0.0
C1789 C 0.60071 0.26252 0.61285 0.0
C1790 C 0.53953 0.22498 0.5724 0.0
C1791 C 0.61597 0.22569 0.61117 0.0
C1792 C 0.56447 0.15727 0.58753 0.0
C1793 C 0.57082 0.15089 0.56614 0.0
C1794 C 0.56679 0.18144 0.59611 0.0
C1795 C 0.57495 0.19966 0.58252 0.0
C1796 C 0.58097 0.19316 0.56063 0.0
C1797 C 0.57915 0.16885 0.55288 0.0
C1798 C 0.56045 0.18743 0.61966 0.0
C1799 C 0.58894 0.21192 0.5452 0.0
H1800 H 0.55154 0.27154 0.59087 0.0
H1801 H 0.61593 0.27195 0.62332 0.0
H1802 H 0.54153 0.21523 0.55576 0.0
H1803 H 0.53148 0.21149 0.5828 0.0
H1804 H 0.52885 0.23745 0.56802 0.0
H1805 H 0.63025 0.23783 0.62227 0.0
H1806 H 0.6106 0.21019 0.62083 0.0
H1807 H 0.6208 0.21864 0.59481 0.0
H1808 H 0.55777 0.14327 0.59761 0.0
H1809 H 0.58354 0.16382 0.53605 0.0
H1810 H 0.54691 0.19662 0.61716 0.0
H1811 H 0.57404 0.19992 0.63144 0.0
H1812 H 0.55553 0.17125 0.62861 0.0
H1813 H 0.57663 0.22253 0.54079 0.0
H1814 H 0.59259 0.20397 0.5285 0.0
H1815 H 0.60364 0.22451 0.55487 0.0
C1816 C 0.59006 0.82716 0.37244 0.0
C1817 C 0.58965 0.82553 0.39652 0.0
C1818 C 0.60964 0.83147 0.36372 0.0
C1819 C 0.6293 0.83347 0.37929 0.0
C1820 C 0.62899 0.8325 0.40373 0.0
C1821 C 0.60925 0.82882 0.41205 0.0
C1822 C 0.60929 0.83344 0.33773 0.0
C1823 C 0.64948 0.83472 0.42103 0.0
C1824 C 0.6733 0.81184 0.35216 0.0
C1825 C 0.68711 0.83326 0.34906 0.0
C1826 C 0.65483 0.81184 0.36233 0.0
C1827 C 0.64973 0.8338 0.36965 0.0
C1828 C 0.66386 0.85559 0.36717 0.0
C1829 C 0.68228 0.85506 0.35681 0.0
C1830 C 0.64048 0.78816 0.36485 0.0
C1831 C 0.65928 0.87949 0.37479 0.0
H1832 H 0.57506 0.8252 0.3604 0.0
H1833 H 0.60915 0.8279 0.43075 0.0
H1834 H 0.62064 0.85002 0.33519 0.0
H1835 H 0.61466 0.81808 0.32954 0.0
H1836 H 0.59304 0.83366 0.32831 0.0
H1837 H 0.64656 0.83353 0.43946 0.0
H1838 H 0.6577 0.82036 0.41611 0.0
H1839 H 0.66059 0.85209 0.42037 0.0
H1840 H 0.67653 0.79488 0.34592 0.0
H1841 H 0.69287 0.87177 0.35473 0.0
H1842 H 0.62438 0.78649 0.35411 0.0
H1843 H 0.6383 0.78731 0.38353 0.0
H1844 H 0.64705 0.77266 0.35913 0.0
H1845 H 0.64604 0.88296 0.36184 0.0
H1846 H 0.67354 0.8944 0.3758 0.0
H1847 H 0.654 0.87954 0.39224 0.0
C1848 C 0.019 0.23201 0.44384 0.0
C1849 C 0.03768 0.25007 0.4449 0.0
C1850 C 0.01989 0.20929 0.45165 0.0
C1851 C 0.03995 0.20404 0.46063 0.0
C1852 C 0.05885 0.22202 0.46114 0.0
C1853 C 0.05748 0.24461 0.4535 0.0
C1854 C 0.99927 0.19095 0.45058 0.0
C1855 C 0.08067 0.21737 0.46981 0.0
C1856 C 0.04376 0.1579 0.50536 0.0
C1857 C 0.04589 0.13743 0.49161 0.0
C1858 C 0.0413 0.17913 0.49541 0.0
C1859 C 0.04123 0.18057 0.47092 0.0
C1860 C 0.04316 0.15985 0.45681 0.0
C1861 C 0.04527 0.13862 0.46722 0.0
C1862 C 0.039 0.20025 0.51134 0.0
C1863 C 0.04306 0.16001 0.43064 0.0
H1864 H 1.00358 0.23567 0.43702 0.0
H1865 H 0.07211 0.25805 0.45411 0.0
H1866 H 0.99997 0.17401 0.44038 0.0
H1867 H 0.99715 0.18683 0.46868 0.0
H1868 H 0.98503 0.19718 0.44231 0.0
H1869 H 0.09391 0.23264 0.46826 0.0
H1870 H 0.08193 0.21391 0.48859 0.0
H1871 H 0.08283 0.20112 0.45954 0.0
H1872 H 0.04411 0.15745 0.52417 0.0
H1873 H 0.04689 0.12309 0.45626 0.0
H1874 H 0.02407 0.20597 0.50452 0.0
H1875 H 0.05265 0.21561 0.51146 0.0
H1876 H 0.03853 0.19615 0.52979 0.0
H1877 H 0.02655 0.15955 0.42159 0.0
H1878 H 0.04832 0.14432 0.42292 0.0
H1879 H 0.05366 0.17663 0.42694 0.0
C1880 C 0.65098 0.34648 0.21295 0.0
C1881 C 0.64791 0.34521 0.18822 0.0
C1882 C 0.67112 0.34621 0.22615 0.0
C1883 C 0.68857 0.34445 0.21435 0.0
C1884 C 0.68556 0.34327 0.1894 0.0
C1885 C 0.66533 0.34375 0.17667 0.0
C1886 C 0.67371 0.34767 0.25273 0.0
C1887 C 0.70363 0.34111 0.17607 0.0
C1888 C 0.74606 0.36383 0.24762 0.0
C1889 C 0.75113 0.3418 0.25206 0.0
C1890 C 0.72571 0.36498 0.23575 0.0
C1891 C 0.70994 0.34359 0.22802 0.0
C1892 C 0.71481 0.32131 0.23279 0.0
C1893 C 0.7353 0.32068 0.24476 0.0
C1894 C 0.72127 0.38912 0.23105 0.0
C1895 C 0.69849 0.29808 0.22487 0.0
H1896 H 0.63762 0.34761 0.22202 0.0
H1897 H 0.6631 0.34262 0.15757 0.0
H1898 H 0.67881 0.33158 0.25886 0.0
H1899 H 0.68649 0.36347 0.26081 0.0
H1900 H 0.65864 0.34907 0.25927 0.0
H1901 H 0.69894 0.34131 0.15676 0.0
H1902 H 0.71774 0.35601 0.18266 0.0
H1903 H 0.70875 0.32416 0.17913 0.0
H1904 H 0.75811 0.38028 0.25313 0.0
H1905 H 0.73902 0.30353 0.24796 0.0
H1906 H 0.70679 0.39168 0.23823 0.0
H1907 H 0.71795 0.39 0.21173 0.0
H1908 H 0.73495 0.40411 0.23901 0.0
H1909 H 0.68387 0.29829 0.23276 0.0
H1910 H 0.70476 0.28225 0.22991 0.0
H1911 H 0.69356 0.29602 0.2054 0.0
C1912 C 0.56093 0.90547 0.9479 0.0
C1913 C 0.54235 0.88755 0.9476 0.0
C1914 C 0.56207 0.92984 0.95563 0.0
C1915 C 0.54408 0.93708 0.96298 0.0
C1916 C 0.52493 0.91919 0.96171 0.0
C1917 C 0.52437 0.89482 0.95435 0.0
C1918 C 0.58285 0.94788 0.95657 0.0
C1919 C 0.50499 0.92581 0.9683 0.0
C1920 C 0.55689 0.99086 0.01084 0.0
C1921 C 0.55393 0.01042 0.99843 0.0
C1922 C 0.5532 0.96732 0.99961 0.0
C1923 C 0.54634 0.96243 0.97486 0.0
C1924 C 0.54274 0.98194 0.96204 0.0
C1925 C 0.54655 1.00563 0.97391 0.0
C1926 C 0.557 0.94758 0.01443 0.0
C1927 C 0.53525 0.97795 0.93571 0.0
H1928 H 0.57485 0.90036 0.94241 0.0
H1929 H 0.50968 0.88144 0.95364 0.0
H1930 H 0.57991 0.96311 0.94684 0.0
H1931 H 0.58958 0.9552 0.9752 0.0
H1932 H 0.59499 0.93996 0.94893 0.0
H1933 H 0.49097 0.91035 0.96486 0.0
H1934 H 0.50791 0.93268 0.9873 0.0
H1935 H 0.50096 0.94038 0.95815 0.0
H1936 H 0.56223 0.99389 0.02978 0.0
H1937 H 0.54394 0.02031 0.96397 0.0
H1938 H 0.56968 0.93936 0.00845 0.0
H1939 H 0.54216 0.9333 0.01222 0.0
H1940 H 0.56197 0.95411 0.03352 0.0
H1941 H 0.54907 0.97649 0.92677 0.0
H1942 H 0.52851 0.99298 0.92919 0.0
H1943 H 0.52294 0.96101 0.93057 0.0
C1944 C 0.01804 0.81842 0.68237 0.0
C1945 C 0.03788 0.83435 0.69054 0.0
C1946 C 1.00067 0.8177 0.69461 0.0
C1947 C 1.00303 0.83343 0.71551 0.0
C1948 C 0.02329 0.84891 0.72438 0.0
C1949 C 0.04048 0.84914 0.71184 0.0
C1950 C 0.97951 0.8007 0.68461 0.0
C1951 C 0.02659 0.86576 0.74672 0.0
C1952 C 0.95146 0.85149 0.72601 0.0
C1953 C 0.94485 0.83704 0.74321 0.0
C1954 C 0.97072 0.85108 0.71764 0.0
C1955 C 0.98367 0.8355 0.72633 0.0
C1956 C 0.97733 0.82119 0.74414 0.0
C1957 C 0.95804 0.82226 0.75252 0.0
C1958 C 0.97698 0.86704 0.69906 0.0
C1959 C 0.99042 0.80409 0.7537 0.0
H1960 H 0.0159 0.80676 0.66607 0.0
H1961 H 0.0558 0.86136 0.7184 0.0
H1962 H 0.97345 0.79014 0.69848 0.0
H1963 H 0.96742 0.81105 0.67848 0.0
H1964 H 0.98081 0.78812 0.66951 0.0
H1965 H 0.04329 0.87664 0.75135 0.0
H1966 H 0.01541 0.87803 0.7447 0.0
H1967 H 0.02289 0.85542 0.76164 0.0
H1968 H 0.94146 0.8632 0.71904 0.0
H1969 H 0.95294 0.81101 0.76578 0.0
H1970 H 0.97705 0.85589 0.68246 0.0
H1971 H 0.99346 0.87811 0.70493 0.0
H1972 H 0.96584 0.87914 0.69518 0.0
H1973 H 0.98866 0.78876 0.74004 0.0
H1974 H 0.98521 0.79701 0.76979 0.0
H1975 H 1.00772 0.81293 0.75793 0.0
C1976 C 0.17082 0.09979 0.93651 0.0
C1977 C 0.16271 0.10567 0.9144 0.0
C1978 C 0.1581 0.09777 0.95419 0.0
C1979 C 0.13703 0.10156 0.9492 0.0
C1980 C 0.12942 0.10912 0.92747 0.0
C1981 C 0.14242 0.11111 0.91029 0.0
C1982 C 0.16675 0.09045 0.97765 0.0
C1983 C 0.10719 0.11404 0.92193 0.0
C1984 C 0.09216 0.06889 0.97714 0.0
C1985 C 0.08997 0.0872 0.99329 0.0
C1986 C 0.10835 0.07306 0.96335 0.0
C1987 C 0.12217 0.09608 0.96584 0.0
C1988 C 0.1201 0.11452 0.98233 0.0
C1989 C 0.10403 0.10978 0.99595 0.0
C1990 C 0.11027 0.05317 0.94562 0.0
C1991 C 0.13435 0.13938 0.98508 0.0
H1992 H 0.18669 0.09598 0.93968 0.0
H1993 H 0.13636 0.11624 0.89331 0.0
H1994 H 0.16349 0.10197 0.99243 0.0
H1995 H 0.15849 0.07178 0.97901 0.0
H1996 H 0.1843 0.09148 0.97983 0.0
H1997 H 0.10434 0.12113 0.90462 0.0
H1998 H 0.09494 0.09727 0.92157 0.0
H1999 H 0.10473 0.12716 0.93585 0.0
H2000 H 0.08133 0.05147 0.97533 0.0
H2001 H 0.10225 0.12404 0.00839 0.0
H2002 H 0.12701 0.05069 0.94806 0.0
H2003 H 0.1064 0.05804 0.92747 0.0
H2004 H 0.09933 0.0359 0.94712 0.0
H2005 H 0.15138 0.13849 0.99028 0.0
H2006 H 0.13021 0.15178 0.99854 0.0
H2007 H 0.13302 0.14709 0.96801 0.0
C2008 C 0.82648 0.38551 0.61376 0.0
C2009 C 0.83134 0.41 0.61105 0.0
C2010 C 0.82609 0.37752 0.63636 0.0
C2011 C 0.82997 0.39434 0.65683 0.0
C2012 C 0.83492 0.4191 0.65415 0.0
C2013 C 0.83583 0.42656 0.63148 0.0
C2014 C 0.82141 0.35099 0.63833 0.0
C2015 C 0.83892 0.4378 0.67522 0.0
C2016 C 0.80557 0.37236 0.71009 0.0
C2017 C 0.8234 0.36855 0.72515 0.0
C2018 C 0.80761 0.38127 0.68822 0.0
C2019 C 0.82793 0.38606 0.68082 0.0
C2020 C 0.84608 0.38256 0.69628 0.0
C2021 C 0.84359 0.37389 0.71823 0.0
C2022 C 0.78792 0.38544 0.67293 0.0
C2023 C 0.86805 0.38717 0.68933 0.0
H2024 H 0.82313 0.37255 0.59821 0.0
H2025 H 0.83955 0.44556 0.62971 0.0
H2026 H 0.83423 0.34665 0.65124 0.0
H2027 H 0.80608 0.34562 0.64501 0.0
H2028 H 0.82023 0.34022 0.62112 0.0
H2029 H 0.84153 0.4563 0.67012 0.0
H2030 H 0.82508 0.43484 0.6848 0.0
H2031 H 0.85325 0.43624 0.68773 0.0
H2032 H 0.78992 0.36817 0.7154 0.0
H2033 H 0.85737 0.37074 0.72976 0.0
H2034 H 0.78454 0.3737 0.65596 0.0
H2035 H 0.79079 0.40424 0.6687 0.0
H2036 H 0.7735 0.38185 0.68158 0.0
H2037 H 0.86831 0.37338 0.67483 0.0
H2038 H 0.88084 0.38657 0.70432 0.0
H2039 H 0.8718 0.40486 0.6826 0.0
C2040 C 0.48195 0.13774 0.39598 0.0
C2041 C 0.4957 0.15633 0.38761 0.0
C2042 C 0.48986 0.12406 0.4128 0.0
C2043 C 0.51198 0.12975 0.42231 0.0
C2044 C 0.52593 0.14875 0.41428 0.0
C2045 C 0.51767 0.16157 0.39666 0.0
C2046 C 0.47456 0.10328 0.41999 0.0
C2047 C 0.54963 0.15533 0.42416 0.0
C2048 C 0.53018 0.11105 0.48228 0.0
C2049 C 0.54083 0.09323 0.47605 0.0
C2050 C 0.52038 0.1229 0.46489 0.0
C2051 C 0.52057 0.11598 0.44079 0.0
C2052 C 0.52986 0.09663 0.43446 0.0
C2053 C 0.54042 0.08588 0.45227 0.0
C2054 C 0.51086 0.14361 0.47234 0.0
C2055 C 0.52889 0.08751 0.40894 0.0
H2056 H 0.46498 0.13309 0.3886 0.0
H2057 H 0.52836 0.17555 0.38988 0.0
H2058 H 0.48151 0.08715 0.42025 0.0
H2059 H 0.47165 0.1079 0.43808 0.0
H2060 H 0.45883 0.09865 0.40791 0.0
H2061 H 0.55809 0.17136 0.41701 0.0
H2062 H 0.5521 0.15892 0.4437 0.0
H2063 H 0.5571 0.14015 0.41986 0.0
H2064 H 0.53068 0.11671 0.50081 0.0
H2065 H 0.54852 0.07184 0.44766 0.0
H2066 H 0.49377 0.14041 0.46398 0.0
H2067 H 0.51943 0.16021 0.46624 0.0
H2068 H 0.5119 0.14658 0.49181 0.0
H2069 H 0.51191 0.08229 0.39992 0.0
H2070 H 0.5363 0.0718 0.40708 0.0
H2071 H 0.53723 0.10187 0.39965 0.0
C2072 C 0.81495 0.76986 0.09805 0.0
C2073 C 0.79514 0.75602 0.08609 0.0
C2074 C 0.81801 0.77778 0.12246 0.0
C2075 C 0.80077 0.77207 0.1352 0.0
C2076 C 0.78075 0.75827 0.12308 0.0
C2077 C 0.77826 0.75029 0.09888 0.0
C2078 C 0.83983 0.79178 0.13472 0.0
C2079 C 0.76188 0.75176 0.13576 0.0
C2080 C 0.81085 0.77395 0.20268 0.0
C2081 C 0.80523 0.79538 0.20977 0.0
C2082 C 0.80967 0.76621 0.17857 0.0
C2083 C 0.80333 0.78061 0.16109 0.0
C2084 C 0.79828 0.80267 0.16837 0.0
C2085 C 0.79902 0.80963 0.19257 0.0
C2086 C 0.81515 0.74258 0.17183 0.0
C2087 C 0.79222 0.81903 0.15055 0.0
H2088 H 0.82825 0.77394 0.08848 0.0
H2089 H 0.76295 0.73947 0.08989 0.0
H2090 H 0.83839 0.80837 0.14498 0.0
H2091 H 0.847 0.78091 0.14742 0.0
H2092 H 0.85099 0.79668 0.12208 0.0
H2093 H 0.7474 0.74088 0.12389 0.0
H2094 H 0.76611 0.74149 0.15061 0.0
H2095 H 0.75787 0.76828 0.14339 0.0
H2096 H 0.816 0.76312 0.21605 0.0
H2097 H 0.79523 0.82652 0.1981 0.0
H2098 H 0.82905 0.74554 0.16237 0.0
H2099 H 0.80145 0.73075 0.1596 0.0
H2100 H 0.81915 0.73316 0.18744 0.0
H2101 H 0.80535 0.82395 0.14022 0.0
H2102 H 0.78906 0.83571 0.159 0.0
H2103 H 0.77768 0.80959 0.1379 0.0
C2104 C 0.16812 0.07464 0.77542 0.0
C2105 C 0.16079 0.09015 0.79053 0.0
C2106 C 0.15783 0.06837 0.75207 0.0
C2107 C 0.14056 0.07878 0.74378 0.0
C2108 C 0.133 0.09432 0.75916 0.0
C2109 C 0.14302 0.09943 0.78272 0.0
C2110 C 0.16586 0.05133 0.73613 0.0
C2111 C 0.11508 0.10638 0.75052 0.0
C2112 C 0.13125 0.09036 0.68052 0.0
C2113 C 0.11163 0.07428 0.67221 0.0
C2114 C 0.14139 0.09132 0.70373 0.0
C2115 C 0.13175 0.07542 0.71854 0.0
C2116 C 0.11276 0.05793 0.7097 0.0
C2117 C 0.10268 0.05775 0.68648 0.0
C2118 C 0.16139 0.11061 0.71287 0.0
C2119 C 0.10257 0.04035 0.72507 0.0
H2120 H 0.18184 0.0674 0.78193 0.0
H2121 H 0.13766 0.11152 0.79474 0.0
H2122 H 0.15222 0.0373 0.7263 0.0
H2123 H 0.17378 0.0612 0.72289 0.0
H2124 H 0.17757 0.04253 0.74614 0.0
H2125 H 0.11133 0.11812 0.76484 0.0
H2126 H 0.11959 0.11741 0.73632 0.0
H2127 H 0.10032 0.09274 0.74285 0.0
H2128 H 0.13784 0.10336 0.66938 0.0
H2129 H 0.08744 0.04541 0.67975 0.0
H2130 H 0.17438 0.10274 0.7216 0.0
H2131 H 0.15788 0.12351 0.72631 0.0
H2132 H 0.16738 0.12062 0.6986 0.0
H2133 H 0.11465 0.03119 0.73375 0.0
H2134 H 0.08886 0.02664 0.71486 0.0
H2135 H 0.09669 0.05003 0.73926 0.0
C2136 C 0.80819 0.41329 0.45506 0.0
C2137 C 0.82311 0.40827 0.47334 0.0
C2138 C 0.80779 0.40543 0.43097 0.0
C2139 C 0.82284 0.39231 0.42444 0.0
C2140 C 0.83841 0.38786 0.44278 0.0
C2141 C 0.83827 0.39568 0.46679 0.0
C2142 C 0.79079 0.41067 0.41245 0.0
C2143 C 0.85523 0.37465 0.43705 0.0
C2144 C 0.80518 0.34692 0.36856 0.0
C2145 C 0.81497 0.3586 0.35107 0.0
C2146 C 0.80773 0.35761 0.39201 0.0
C2147 C 0.82064 0.38095 0.399 0.0
C2148 C 0.83079 0.39303 0.38154 0.0
C2149 C 0.82776 0.38184 0.35784 0.0
C2150 C 0.79655 0.34365 0.40946 0.0
C2151 C 0.84495 0.41777 0.38791 0.0
H2152 H 0.79652 0.42322 0.45961 0.0
H2153 H 0.85021 0.39201 0.48049 0.0
H2154 H 0.79833 0.41959 0.39845 0.0
H2155 H 0.7799 0.39362 0.40394 0.0
H2156 H 0.78107 0.42226 0.41996 0.0
H2157 H 0.86674 0.37334 0.453 0.0
H2158 H 0.84743 0.35629 0.42856 0.0
H2159 H 0.86429 0.38391 0.42425 0.0
H2160 H 0.79535 0.32895 0.36394 0.0
H2161 H 0.83573 0.39109 0.34483 0.0
H2162 H 0.78581 0.35386 0.41698 0.0
H2163 H 0.80857 0.341 0.42432 0.0
H2164 H 0.78686 0.3258 0.40132 0.0
H2165 H 0.83486 0.43083 0.39082 0.0
H2166 H 0.85428 0.42331 0.3738 0.0
H2167 H 0.85627 0.41862 0.40461 0.0
C2168 C 0.50458 0.14021 0.26176 0.0
C2169 C 0.48551 0.14838 0.26025 0.0
C2170 C 0.5089 0.12669 0.24245 0.0
C2171 C 0.49402 0.12181 0.22104 0.0
C2172 C 0.47451 0.12953 0.21963 0.0
C2173 C 0.47041 0.14259 0.23935 0.0
C2174 C 0.52958 0.11807 0.24477 0.0
C2175 C 0.45817 0.12435 0.19716 0.0
C2176 C 0.51924 0.11932 0.16627 0.0
C2177 C 0.51586 0.09467 0.15985 0.0
C2178 C 0.51178 0.12822 0.18589 0.0
C2179 C 0.50041 0.11205 0.1993 0.0
C2180 C 0.49614 0.08706 0.1924 0.0
C2181 C 0.50421 0.0786 0.17281 0.0
C2182 C 0.51672 0.15497 0.19273 0.0
C2183 C 0.48374 0.0693 0.20605 0.0
H2184 H 0.5159 0.14388 0.2782 0.0
H2185 H 0.45537 0.14835 0.23839 0.0
H2186 H 0.52626 0.09863 0.23876 0.0
H2187 H 0.54013 0.12748 0.23331 0.0
H2188 H 0.53838 0.12127 0.26323 0.0
H2189 H 0.44371 0.1315 0.19903 0.0
H2190 H 0.46545 0.13237 0.18254 0.0
H2191 H 0.45309 0.10474 0.19198 0.0
H2192 H 0.52854 0.13171 0.15645 0.0
H2193 H 0.50162 0.0595 0.16776 0.0
H2194 H 0.52697 0.15949 0.21043 0.0
H2195 H 0.50167 0.16109 0.19387 0.0
H2196 H 0.52517 0.16509 0.17995 0.0
H2197 H 0.49401 0.06808 0.22294 0.0
H2198 H 0.47857 0.05114 0.19607 0.0
H2199 H 0.46935 0.0752 0.21046 0.0
C2200 C 0.80753 0.74297 0.93616 0.0
C2201 C 0.79368 0.75032 0.95047 0.0
C2202 C 0.80954 0.75166 0.9141 0.0
C2203 C 0.79712 0.76788 0.90558 0.0
C2204 C 0.78272 0.77491 0.91971 0.0
C2205 C 0.78135 0.76631 0.94197 0.0
C2206 C 0.82535 0.74381 0.90008 0.0
C2207 C 0.76872 0.7916 0.9113 0.0
C2208 C 0.82008 0.80942 0.86207 0.0
C2209 C 0.80849 0.79845 0.83997 0.0
C2210 C 0.81613 0.80003 0.8833 0.0
C2211 C 0.80036 0.77868 0.88279 0.0
C2212 C 0.78838 0.76756 0.86048 0.0
C2213 C 0.79247 0.77762 0.83941 0.0
C2214 C 0.82917 0.8129 0.90638 0.0
C2215 C 0.77163 0.74463 0.85876 0.0
H2216 H 0.81717 0.73064 0.94241 0.0
H2217 H 0.7704 0.77193 0.95262 0.0
H2218 H 0.8171 0.7359 0.88205 0.0
H2219 H 0.83792 0.75958 0.89814 0.0
H2220 H 0.83326 0.73047 0.90857 0.0
H2221 H 0.75818 0.79524 0.92408 0.0
H2222 H 0.77885 0.80885 0.90835 0.0
H2223 H 0.7585 0.78371 0.89413 0.0
H2224 H 0.83244 0.82555 0.86282 0.0
H2225 H 0.78352 0.76883 0.82248 0.0
H2226 H 0.83873 0.80106 0.91511 0.0
H2227 H 0.81835 0.81731 0.91849 0.0
H2228 H 0.8403 0.82973 0.90396 0.0
H2229 H 0.77965 0.72979 0.86298 0.0
H2230 H 0.76182 0.73987 0.84082 0.0
H2231 H 0.76082 0.74611 0.8718 0.0
C2232 C 0.84824 0.17802 0.99231 0.0
C2233 C 0.84672 0.18938 0.01429 0.0
C2234 C 0.86649 0.16899 0.98902 0.0
C2235 C 0.88315 0.17022 0.00846 0.0
C2236 C 0.88165 0.18184 0.03062 0.0
C2237 C 0.86375 0.19168 0.03309 0.0
C2238 C 0.86774 0.15799 0.96475 0.0
C2239 C 0.89869 0.18325 0.052 0.0
C2240 C 0.91644 0.12245 0.01071 0.0
C2241 C 0.9369 0.13561 0.00907 0.0
C2242 C 0.89875 0.13331 0.00978 0.0
C2243 C 0.90133 0.15789 0.00645 0.0
C2244 C 0.92176 0.1709 1.00331 0.0
C2245 C 0.93941 0.15976 1.00517 0.0
C2246 C 0.87747 0.11868 0.01346 0.0
C2247 C 0.92497 0.19659 0.99803 0.0
H2248 H 0.83532 0.17654 0.97755 0.0
H2249 H 0.86273 0.20054 0.05007 0.0
H2250 H 0.88438 0.16264 0.96099 0.0
H2251 H 0.8629 0.13822 0.96373 0.0
H2252 H 0.85688 0.16397 0.95076 0.0
H2253 H 0.8948 0.19211 0.06813 0.0
H2254 H 0.90057 0.16496 0.05533 0.0
H2255 H 0.91438 0.19337 0.04879 0.0
H2256 H 0.91448 0.10379 0.01373 0.0
H2257 H 0.95518 0.16989 1.00357 0.0
H2258 H 0.86492 0.11854 0.99805 0.0
H2259 H 0.87248 0.1269 0.0292 0.0
H2260 H 0.87813 0.09986 0.016 0.0
H2261 H 0.91331 0.19795 0.98223 0.0
H2262 H 0.94148 0.20382 0.99476 0.0
H2263 H 0.92184 0.208 0.01296 0.0
C2264 C 0.39625 0.48903 0.02657 0.0
C2265 C 0.39308 0.47683 0.04644 0.0
C2266 C 0.41696 0.50065 0.02316 0.0
C2267 C 0.43526 0.50069 0.04022 0.0
C2268 C 0.43218 0.48825 0.06025 0.0
C2269 C 0.41129 0.47635 0.06299 0.0
C2270 C 0.41925 0.51285 1.00114 0.0
C2271 C 0.45097 0.48791 0.07911 0.0
C2272 C 0.49246 0.51828 0.02506 0.0
C2273 C 0.49865 0.54278 0.03349 0.0
C2274 C 0.47193 0.50441 0.02682 0.0
C2275 C 0.45729 0.51501 0.03785 0.0
C2276 C 0.46367 0.53966 0.04658 0.0
C2277 C 0.48396 0.55317 0.04404 0.0
C2278 C 0.46581 0.47844 0.01663 0.0
C2279 C 0.44905 0.55189 0.05881 0.0
H2280 H 0.38246 0.48922 0.01338 0.0
H2281 H 0.40919 0.46687 0.0783 0.0
H2282 H 0.42641 0.53222 0.00595 0.0
H2283 H 0.4303 0.50527 0.99129 0.0
H2284 H 0.40362 0.51079 0.98925 0.0
H2285 H 0.44621 0.47657 0.09302 0.0
H2286 H 0.46351 0.48114 0.07117 0.0
H2287 H 0.45828 0.50642 0.0875 0.0
H2288 H 0.50358 0.50999 0.01682 0.0
H2289 H 0.48848 0.57199 0.05078 0.0
H2290 H 0.45128 0.4754 1.00283 0.0
H2291 H 0.46173 0.46688 0.03056 0.0
H2292 H 0.47888 0.47273 0.0087 0.0
H2293 H 0.43419 0.55168 0.04627 0.0
H2294 H 0.45674 0.57076 0.0658 0.0
H2295 H 0.44423 0.54205 0.07366 0.0
C2296 C 0.41515 0.62386 0.7309 0.0
C2297 C 0.39883 0.60446 0.71955 0.0
C2298 C 0.41025 0.64435 0.74138 0.0
C2299 C 0.38852 0.64542 0.74042 0.0
C2300 C 0.37197 0.62599 0.72885 0.0
C2301 C 0.37734 0.60564 0.71854 0.0
C2302 C 0.42831 0.66458 0.75385 0.0
C2303 C 0.34859 0.62669 0.72749 0.0
C2304 C 0.37 0.68728 0.78247 0.0
C2305 C 0.36528 0.70444 0.76772 0.0
C2306 C 0.37875 0.6685 0.77426 0.0
C2307 C 0.38292 0.66709 0.75086 0.0
C2308 C 0.37993 0.68545 0.73663 0.0
C2309 C 0.37105 0.70391 0.74521 0.0
C2310 C 0.38235 0.64949 0.7901 0.0
C2311 C 0.38486 0.68479 0.71181 0.0
H2312 H 0.43185 0.6229 0.732 0.0
H2313 H 0.36477 0.59057 0.70999 0.0
H2314 H 0.42592 0.68203 0.74832 0.0
H2315 H 0.42848 0.66547 0.77318 0.0
H2316 H 0.44424 0.66218 0.75038 0.0
H2317 H 0.33771 0.61002 0.71801 0.0
H2318 H 0.34482 0.62931 0.74555 0.0
H2319 H 0.34523 0.64209 0.71826 0.0
H2320 H 0.36604 0.68801 0.80011 0.0
H2321 H 0.36739 0.71707 0.73368 0.0
H2322 H 0.3989 0.64668 0.79082 0.0
H2323 H 0.37116 0.63222 0.78278 0.0
H2324 H 0.3798 0.65419 0.80838 0.0
H2325 H 0.40144 0.68232 0.71175 0.0
H2326 H 0.3832 0.70139 0.70375 0.0
H2327 H 0.37377 0.6693 0.70057 0.0
C2328 C 0.21365 0.67462 0.4959 0.0
C2329 C 0.22921 0.67437 0.51564 0.0
C2330 C 0.19235 0.66147 0.49402 0.0
C2331 C 0.18623 0.64845 0.51273 0.0
C2332 C 0.20195 0.6481 0.53263 0.0
C2333 C 0.22328 0.66071 0.53366 0.0
C2334 C 0.17634 0.66203 0.47225 0.0
C2335 C 0.19608 0.6349 0.55317 0.0
C2336 C 0.12823 0.63655 0.52325 0.0
C2337 C 0.1207 0.61236 0.51448 0.0
C2338 C 0.14924 0.64869 0.52199 0.0
C2339 C 0.16325 0.63617 0.51223 0.0
C2340 C 0.15552 0.61171 0.50308 0.0
C2341 C 0.13423 0.60016 0.50407 0.0
C2342 C 0.15647 0.67491 0.53125 0.0
C2343 C 0.16977 0.59773 0.4923 0.0
H2344 H 0.21818 0.68506 0.48184 0.0
H2345 H 0.23519 0.66059 0.54902 0.0
H2346 H 0.16652 0.64381 0.46575 0.0
H2347 H 0.16522 0.67339 0.47668 0.0
H2348 H 0.1843 0.66938 0.45775 0.0
H2349 H 0.21018 0.63601 0.56718 0.0
H2350 H 0.1839 0.64251 0.56102 0.0
H2351 H 0.1888 0.61577 0.54697 0.0
H2352 H 0.11756 0.64604 0.53094 0.0
H2353 H 0.12824 0.5815 0.49708 0.0
H2354 H 0.16171 0.68543 0.517 0.0
H2355 H 0.17049 0.67764 0.54567 0.0
H2356 H 0.14357 0.68212 0.53805 0.0
H2357 H 0.1746 0.60581 0.47652 0.0
H2358 H 0.16168 0.57863 0.48695 0.0
H2359 H 0.18467 0.59863 0.50505 0.0
C2360 C 0.69076 0.91916 0.74968 0.0
C2361 C 0.69745 0.94351 0.75802 0.0
C2362 C 0.7051 0.90393 0.75301 0.0
C2363 C 0.72613 0.91337 0.76564 0.0
C2364 C 0.73277 0.9379 0.77421 0.0
C2365 C 0.71839 0.9527 0.77013 0.0
C2366 C 0.69788 0.87799 0.74279 0.0
C2367 C 0.75521 0.94864 0.78737 0.0
C2368 C 0.75706 0.87191 0.79542 0.0
C2369 C 0.7726 0.87128 0.78108 0.0
C2370 C 0.74172 0.88558 0.79051 0.0
C2371 C 0.74148 0.89791 0.7702 0.0
C2372 C 0.75715 0.8972 0.75556 0.0
C2373 C 0.77282 0.88418 0.76149 0.0
C2374 C 0.72578 0.88678 0.80701 0.0
C2375 C 0.75692 0.90897 0.733 0.0
H2376 H 0.67459 0.9122 0.74012 0.0
H2377 H 0.72358 0.97158 0.77658 0.0
H2378 H 0.71033 0.87241 0.73367 0.0
H2379 H 0.69545 0.86655 0.75722 0.0
H2380 H 0.68256 0.87459 0.73009 0.0
H2381 H 0.75726 0.96771 0.79433 0.0
H2382 H 0.75912 0.93838 0.80235 0.0
H2383 H 0.76698 0.94754 0.77535 0.0
H2384 H 0.75672 0.86137 0.81022 0.0
H2385 H 0.78445 0.88293 0.74996 0.0
H2386 H 0.7093 0.87864 0.79761 0.0
H2387 H 0.72624 0.90574 0.81304 0.0
H2388 H 0.72904 0.87727 0.82276 0.0
H2389 H 0.7473 0.89579 0.71819 0.0
H2390 H 0.77342 0.91446 0.72899 0.0
H2391 H 0.74973 0.92489 0.73353 0.0
C2392 C 0.7755 0.9838 0.5319 0.0
C2393 C 0.7747 0.95984 0.5357 0.0
C2394 C 0.75657 0.99252 0.5275 0.0
C2395 C 0.7363 0.97704 0.52718 0.0
C2396 C 0.73537 0.95264 0.53019 0.0
C2397 C 0.7545 0.94435 0.53432 0.0
C2398 C 0.75827 0.01851 0.52381 0.0
C2399 C 0.71415 0.93536 0.52951 0.0
C2400 C 0.69315 1.00608 0.54745 0.0
C2401 C 0.68055 0.00841 0.52609 0.0
C2402 C 0.71101 0.99564 0.5479 0.0
C2403 C 0.7165 0.98699 0.52646 0.0
C2404 C 0.70343 0.98853 0.50477 0.0
C2405 C 0.68579 0.99953 0.50483 0.0
C2406 C 0.72429 0.99432 0.57145 0.0
C2407 C 0.70827 0.97904 0.48149 0.0
H2408 H 0.79095 0.9958 0.53247 0.0
H2409 H 0.75362 0.92569 0.53686 0.0
H2410 H 0.74773 0.02002 0.50719 0.0
H2411 H 0.75267 0.02783 0.53848 0.0
H2412 H 0.77496 0.02785 0.52296 0.0
H2413 H 0.71609 0.91688 0.53188 0.0
H2414 H 0.70585 0.94143 0.5436 0.0
H2415 H 0.70356 0.93494 0.51238 0.0
H2416 H 0.68942 0.01316 0.56394 0.0
H2417 H 0.67606 1.00111 0.48824 0.0
H2418 H 0.74096 1.00467 0.57225 0.0
H2419 H 0.72509 0.97547 0.57352 0.0
H2420 H 0.71768 1.00147 0.58653 0.0
H2421 H 0.72253 0.99126 0.4772 0.0
H2422 H 0.69462 0.97763 0.46684 0.0
H2423 H 0.71211 0.96116 0.48249 0.0
C2424 C 0.3971 0.47406 0.73723 0.0
C2425 C 0.38718 0.47697 0.71462 0.0
C2426 C 0.38808 0.45566 0.74945 0.0
C2427 C 0.36913 0.43931 0.73829 0.0
C2428 C 0.3594 0.44169 0.7151 0.0
C2429 C 0.36834 0.46099 0.70364 0.0
C2430 C 0.3986 0.45403 0.77435 0.0
C2431 C 0.33943 0.42401 0.70261 0.0
C2432 C 0.35191 0.3787 0.75862 0.0
C2433 C 0.33448 0.38217 0.7691 0.0
C2434 C 0.36426 0.39767 0.7495 0.0
C2435 C 0.35882 0.42027 0.75114 0.0
C2436 C 0.34213 0.42413 0.76326 0.0
C2437 C 0.32986 0.40479 0.77185 0.0
C2438 C 0.38203 0.39315 0.73667 0.0
C2439 C 0.3366 0.44836 0.76615 0.0
H2440 H 0.41163 0.48679 0.74575 0.0
H2441 H 0.36084 0.46344 0.68616 0.0
H2442 H 0.3866 0.45227 0.78638 0.0
H2443 H 0.40546 0.43787 0.77471 0.0
H2444 H 0.41171 0.46994 0.78135 0.0
H2445 H 0.33483 0.42738 0.68403 0.0
H2446 H 0.34196 0.40548 0.70269 0.0
H2447 H 0.32586 0.42508 0.7121 0.0
H2448 H 0.35499 0.36091 0.75621 0.0
H2449 H 0.3163 0.40714 0.78012 0.0
H2450 H 0.39686 0.40723 0.74269 0.0
H2451 H 0.37715 0.39376 0.71748 0.0
H2452 H 0.38581 0.37549 0.73932 0.0
H2453 H 0.35125 0.46233 0.77347 0.0
H2454 H 0.32455 0.4488 0.77798 0.0
H2455 H 0.33005 0.45304 0.74865 0.0
C2456 C 0.20529 0.56794 0.28634 0.0
C2457 C 0.1947 0.56073 0.26306 0.0
C2458 C 0.21497 0.59195 0.29376 0.0
C2459 C 0.21457 0.60876 0.27721 0.0
C2460 C 0.20366 0.60159 0.25373 0.0
C2461 C 0.19354 0.57756 0.247 0.0
C2462 C 0.22593 0.59928 0.31909 0.0
C2463 C 0.20328 0.61912 0.23554 0.0
C2464 C 0.22868 0.67556 0.29356 0.0
C2465 C 0.24933 0.6812 0.28782 0.0
C2466 C 0.21741 0.65172 0.29151 0.0
C2467 C 0.22721 0.63341 0.28368 0.0
C2468 C 0.24865 0.63891 0.27971 0.0
C2469 C 0.25946 0.66282 0.28177 0.0
C2470 C 0.19458 0.64627 0.29609 0.0
C2471 C 0.25962 0.6197 0.2715 0.0
H2472 H 0.20571 0.55484 0.29887 0.0
H2473 H 0.18513 0.57182 0.22907 0.0
H2474 H 0.24342 0.60593 0.31975 0.0
H2475 H 0.21977 0.61418 0.32698 0.0
H2476 H 0.22346 0.58423 0.3301 0.0
H2477 H 0.19296 0.61087 0.21849 0.0
H2478 H 0.19736 0.63475 0.24218 0.0
H2479 H 0.21982 0.62593 0.23222 0.0
H2480 H 0.22097 0.68983 0.29853 0.0
H2481 H 0.27531 0.6671 0.27699 0.0
H2482 H 0.192 0.6313 0.30713 0.0
H2483 H 0.18341 0.64054 0.27907 0.0
H2484 H 0.19036 0.66209 0.30499 0.0
H2485 H 0.25815 0.60519 0.28315 0.0
H2486 H 0.27692 0.62685 0.27123 0.0
H2487 H 0.25168 0.61162 0.25341 0.0
C2488 C 0.55749 0.76309 0.48498 0.0
C2489 C 0.54265 0.75734 0.46376 0.0
C2490 C 0.56322 0.74522 0.49846 0.0
C2491 C 0.5537 0.72075 0.49093 0.0
C2492 C 0.5385 0.7148 0.46964 0.0
C2493 C 0.53333 0.73308 0.45624 0.0
C2494 C 0.57961 0.75257 0.52079 0.0
C2495 C 0.52751 0.68908 0.46111 0.0
C2496 C 0.58194 0.67259 0.51482 0.0
C2497 C 0.56968 0.66408 0.53182 0.0
C2498 C 0.57695 0.69092 0.50143 0.0
C2499 C 0.55955 0.70149 0.5054 0.0
C2500 C 0.54767 0.69348 0.52318 0.0
C2501 C 0.55266 0.67476 0.53585 0.0
C2502 C 0.58975 0.69832 0.48233 0.0
C2503 C 0.52933 0.70438 0.52856 0.0
H2504 H 0.56495 0.78172 0.49095 0.0
H2505 H 0.52179 0.72839 0.43999 0.0
H2506 H 0.57262 0.74578 0.53607 0.0
H2507 H 0.59362 0.74449 0.51937 0.0
H2508 H 0.58537 0.77232 0.52447 0.0
H2509 H 0.51689 0.68722 0.44372 0.0
H2510 H 0.53963 0.67813 0.45962 0.0
H2511 H 0.51769 0.68159 0.47414 0.0
H2512 H 0.59469 0.66397 0.51104 0.0
H2513 H 0.5429 0.66806 0.54868 0.0
H2514 H 0.59681 0.71785 0.48538 0.0
H2515 H 0.579 0.69475 0.46492 0.0
H2516 H 0.60288 0.68863 0.48149 0.0
H2517 H 0.53529 0.72383 0.53424 0.0
H2518 H 0.52148 0.69598 0.54267 0.0
H2519 H 0.51708 0.70242 0.51242 0.0
C2520 C 0.66883 0.36175 0.68385 0.0
C2521 C 0.64916 0.35022 0.68953 0.0
C2522 C 0.6885 0.36125 0.698 0.0
C2523 C 0.68865 0.34848 0.71811 0.0
C2524 C 0.66882 0.33659 0.72375 0.0
C2525 C 0.64937 0.33782 0.70959 0.0
C2526 C 0.70917 0.37452 0.6915 0.0
C2527 C 0.6681 0.32258 0.74481 0.0
C2528 C 0.74123 0.33139 0.74337 0.0
C2529 C 0.74972 0.34942 0.76228 0.0
C2530 C 0.72127 0.33064 0.72903 0.0
C2531 C 0.70951 0.34833 0.73365 0.0
C2532 C 0.71791 0.36629 0.75297 0.0
C2533 C 0.73781 0.36663 0.76692 0.0
C2534 C 0.71285 0.31106 0.70877 0.0
C2535 C 0.70606 0.3855 0.75869 0.0
H2536 H 0.66884 0.37131 0.66837 0.0
H2537 H 0.63429 0.32864 0.714 0.0
H2538 H 0.71802 0.38814 0.7063 0.0
H2539 H 0.71964 0.36191 0.68845 0.0
H2540 H 0.70639 0.38364 0.67539 0.0
H2541 H 0.6516 0.31255 0.74557 0.0
H2542 H 0.67872 0.3097 0.7443 0.0
H2543 H 0.67414 0.33497 0.7613 0.0
H2544 H 0.75028 0.31803 0.7396 0.0
H2545 H 0.74416 0.38064 0.78149 0.0
H2546 H 0.7115 0.31901 0.69183 0.0
H2547 H 0.69651 0.30124 0.71036 0.0
H2548 H 0.72338 0.29807 0.70805 0.0
H2549 H 0.70489 0.39661 0.74385 0.0
H2550 H 0.71414 0.3974 0.77506 0.0
H2551 H 0.68945 0.37729 0.76086 0.0
C2552 C 0.03015 0.38374 0.98086 0.0
C2553 C 0.03671 0.38089 0.95891 0.0
C2554 C 0.03068 0.40664 0.99178 0.0
C2555 C 0.03797 0.42703 0.98045 0.0
C2556 C 0.04491 0.42423 0.95845 0.0
C2557 C 0.04417 0.40119 0.94794 0.0
C2558 C 0.02334 0.40904 0.01535 0.0
C2559 C 0.05321 0.44558 0.94604 0.0
C2560 C 0.02315 0.48634 0.9961 0.0
C2561 C 0.04221 0.4992 0.01037 0.0
C2562 C 0.02133 0.46252 0.98666 0.0
C2563 C 0.03891 0.45144 0.99175 0.0
C2564 C 0.0579 0.46415 0.00667 0.0
C2565 C 0.05928 0.48778 0.01583 0.0
C2566 C 1.00087 0.44941 0.97067 0.0
C2567 C 0.077 0.453 0.01259 0.0
H2568 H 0.02441 0.36808 0.9894 0.0
H2569 H 0.0494 0.39909 0.93103 0.0
H2570 H 0.03643 0.42047 0.02863 0.0
H2571 H 1.0096 0.41797 0.01381 0.0
H2572 H 0.01837 0.39143 0.02196 0.0
H2573 H 0.05746 0.44026 0.92872 0.0
H2574 H 0.04095 0.4565 0.94315 0.0
H2575 H 0.06769 0.45718 0.95727 0.0
H2576 H 1.0099 0.49502 0.99187 0.0
H2577 H 0.07399 0.49741 0.02715 0.0
H2578 H 0.99457 0.43207 0.97711 0.0
H2579 H 1.00425 0.44531 0.95265 0.0
H2580 H 0.98825 0.45999 0.9695 0.0
H2581 H 0.07235 0.43682 0.02158 0.0
H2582 H 0.09071 0.46553 0.02421 0.0
H2583 H 0.08248 0.44722 0.99617 0.0
C2584 C 0.02005 0.83888 0.17345 0.0
C2585 C 0.03572 0.82522 0.17509 0.0
C2586 C 1.0011 0.83176 0.18267 0.0
C2587 C 0.99755 0.81022 0.19334 0.0
C2588 C 0.01282 0.79572 0.19393 0.0
C2589 C 0.03189 0.80355 0.18507 0.0
C2590 C 0.9852 0.84774 0.18171 0.0
C2591 C 1.00904 0.77204 0.20403 0.0
C2592 C 0.9641 0.81079 0.24182 0.0
C2593 C 0.94342 0.80058 0.22953 0.0
C2594 C 0.98194 0.81312 0.23039 0.0
C2595 C 0.9791 0.80449 0.20617 0.0
C2596 C 0.95839 0.79262 0.19406 0.0
C2597 C 0.94065 0.79128 0.20579 0.0
C2598 C 1.00365 0.82614 0.24392 0.0
C2599 C 0.95472 0.78221 0.16854 0.0
H2600 H 0.02282 0.85545 0.16544 0.0
H2601 H 0.04373 0.79261 0.18579 0.0
H2602 H 0.96922 0.83759 0.17243 0.0
H2603 H 0.98338 0.85383 0.19991 0.0
H2604 H 0.9902 0.86372 0.17251 0.0
H2605 H 0.02201 0.76234 0.20218 0.0
H2606 H 1.00794 0.77491 0.22303 0.0
H2607 H 0.9935 0.76054 0.19496 0.0
H2608 H 0.96617 0.81814 0.26015 0.0
H2609 H 0.92462 0.78325 0.19636 0.0
H2610 H 1.00938 0.84276 0.23596 0.0
H2611 H 0.01557 0.81487 0.24281 0.0
H2612 H 1.00322 0.83104 0.26285 0.0
H2613 H 0.95303 0.79653 0.15703 0.0
H2614 H 0.9398 0.76792 0.16408 0.0
H2615 H 0.96843 0.77468 0.16443 0.0
C2616 C 0.59702 0.42688 0.1281 0.0
C2617 C 0.59082 0.40441 0.11442 0.0
C2618 C 0.59656 0.44834 0.11781 0.0
C2619 C 0.5896 0.44753 0.09315 0.0
C2620 C 0.58409 0.42496 0.07916 0.0
C2621 C 0.58473 0.40379 0.08991 0.0
C2622 C 0.60292 0.47187 0.13347 0.0
C2623 C 0.57703 0.42313 0.0528 0.0
C2624 C 0.56307 0.49694 0.07006 0.0
C2625 C 0.57948 0.51134 0.06087 0.0
C2626 C 0.56633 0.4765 0.08086 0.0
C2627 C 0.58644 0.46991 0.08229 0.0
C2628 C 0.60313 0.48451 0.07298 0.0
C2629 C 0.59947 0.50509 0.06249 0.0
C2630 C 0.54809 0.46178 0.0906 0.0
C2631 C 0.62487 0.47847 0.07413 0.0
H2632 H 0.60191 0.4277 0.14703 0.0
H2633 H 0.58009 0.38663 0.07909 0.0
H2634 H 0.61458 0.48499 0.12604 0.0
H2635 H 0.58855 0.47948 0.13428 0.0
H2636 H 0.61014 0.46986 0.15173 0.0
H2637 H 0.57403 0.40445 0.04424 0.0
H2638 H 0.5621 0.42982 0.0489 0.0
H2639 H 0.58949 0.43455 0.04478 0.0
H2640 H 0.54754 0.50164 0.06864 0.0
H2641 H 0.61213 0.51608 0.0552 0.0
H2642 H 0.55307 0.46094 0.10974 0.0
H2643 H 0.54401 0.44315 0.08177 0.0
H2644 H 0.53346 0.46923 0.08815 0.0
H2645 H 0.63333 0.48183 0.0927 0.0
H2646 H 0.635 0.4894 0.06319 0.0
H2647 H 0.62321 0.45924 0.06814 0.0
C2648 C 0.96053 0.3183 0.38255 0.0
C2649 C 0.97917 0.31749 0.37311 0.0
C2650 C 0.94245 0.32324 0.36867 0.0
C2651 C 0.94317 0.3277 0.34493 0.0
C2652 C 0.96202 0.32715 0.33541 0.0
C2653 C 0.97972 0.32187 0.34955 0.0
C2654 C 0.92254 0.32359 0.37936 0.0
C2655 C 0.96355 0.33232 0.31035 0.0
C2656 C 0.8896 0.31537 0.30405 0.0
C2657 C 0.88494 0.33816 0.3043 0.0
C2658 C 0.90875 0.31188 0.31664 0.0
C2659 C 0.9238 0.33172 0.32972 0.0
C2660 C 0.91984 0.35505 0.32891 0.0
C2661 C 0.90037 0.35801 0.31623 0.0
C2662 C 0.91238 0.28674 0.31677 0.0
C2663 C 0.93567 0.37673 0.34229 0.0
H2664 H 0.96009 0.31517 0.40079 0.0
H2665 H 0.99418 0.32164 0.3422 0.0
H2666 H 0.91832 0.34129 0.37832 0.0
H2667 H 0.9088 0.30995 0.36917 0.0
H2668 H 0.92461 0.31997 0.39812 0.0
H2669 H 0.97949 0.33151 0.30572 0.0
H2670 H 0.95101 0.31926 0.2978 0.0
H2671 H 0.96059 0.3504 0.30788 0.0
H2672 H 0.8779 0.29996 0.29459 0.0
H2673 H 0.89689 0.37569 0.31652 0.0
H2674 H 0.91289 0.28145 0.33492 0.0
H2675 H 0.92806 0.28595 0.31147 0.0
H2676 H 0.89957 0.27345 0.30469 0.0
H2677 H 0.93499 0.37688 0.36142 0.0
H2678 H 0.93212 0.3937 0.33652 0.0
H2679 H 0.95232 0.37614 0.34001 0.0
C2680 C 0.08926 0.75532 0.61462 0.0
C2681 C 0.07477 0.77022 0.60976 0.0
C2682 C 0.08536 0.73177 0.6032 0.0
C2683 C 0.06623 0.7224 0.58672 0.0
C2684 C 0.05123 0.73715 0.58229 0.0
C2685 C 0.05576 0.76085 0.5936 0.0
C2686 C 0.10208 0.71716 0.60829 0.0
C2687 C 0.03035 0.72786 0.56547 0.0
C2688 C 0.06477 0.67428 0.53623 0.0
C2689 C 0.05473 0.65304 0.54424 0.0
C2690 C 0.0692 0.69656 0.55017 0.0
C2691 C 0.06275 0.69814 0.5726 0.0
C2692 C 0.05268 0.67666 0.58092 0.0
C2693 C 0.04917 0.65433 0.56685 0.0
C2694 C 0.0806 0.71856 0.5407 0.0
C2695 C 0.04523 0.67727 0.6045 0.0
H2696 H 0.10395 0.76225 0.62716 0.0
H2697 H 0.04427 0.77199 0.58997 0.0
H2698 H 0.09471 0.69961 0.61358 0.0
H2699 H 0.10872 0.71353 0.59203 0.0
H2700 H 0.11551 0.7264 0.6225 0.0
H2701 H 0.01967 0.74074 0.56518 0.0
H2702 H 0.03361 0.72418 0.54733 0.0
H2703 H 0.02177 0.71069 0.57053 0.0
H2704 H 0.06924 0.67345 0.51882 0.0
H2705 H 0.04125 0.63808 0.57309 0.0
H2706 H 0.09494 0.72796 0.55367 0.0
H2707 H 0.06983 0.73121 0.53801 0.0
H2708 H 0.08578 0.71418 0.52366 0.0
H2709 H 0.05937 0.68127 0.61886 0.0
H2710 H 0.03479 0.65993 0.6068 0.0
H2711 H 0.03629 0.69165 0.60651 0.0
C2712 C 0.60141 0.81026 0.87878 0.0
C2713 C 0.57952 0.80669 0.8695 0.0
C2714 C 0.61646 0.80681 0.86428 0.0
C2715 C 0.60962 0.79997 0.83971 0.0
C2716 C 0.58753 0.79665 0.83012 0.0
C2717 C 0.57272 0.79981 0.84516 0.0
C2718 C 0.63973 0.81026 0.87538 0.0
C2719 C 0.57948 0.78962 0.80403 0.0
C2720 C 0.65556 0.81289 0.80461 0.0
C2721 C 0.6607 0.79043 0.8016 0.0
C2722 C 0.63802 0.81591 0.81552 0.0
C2723 C 0.62578 0.79618 0.82441 0.0
C2724 C 0.63055 0.77329 0.82068 0.0
C2725 C 0.64779 0.77067 0.80911 0.0
C2726 C 0.63289 0.84034 0.81806 0.0
C2727 C 0.61818 0.75179 0.83001 0.0
H2728 H 0.60682 0.81549 0.89754 0.0
H2729 H 0.55583 0.79702 0.83782 0.0
H2730 H 0.6454 0.79361 0.87162 0.0
H2731 H 0.64975 0.8247 0.8676 0.0
H2732 H 0.64239 0.81501 0.89482 0.0
H2733 H 0.56257 0.79108 0.79888 0.0
H2734 H 0.58966 0.80103 0.79353 0.0
H2735 H 0.58044 0.77083 0.79928 0.0
H2736 H 0.66535 0.82812 0.79848 0.0
H2737 H 0.65174 0.75328 0.80673 0.0
H2738 H 0.63653 0.84776 0.83694 0.0
H2739 H 0.61552 0.83898 0.8119 0.0
H2740 H 0.64224 0.85309 0.8079 0.0
H2741 H 0.62211 0.75398 0.84958 0.0
H2742 H 0.62207 0.73484 0.82322 0.0
H2743 H 0.60065 0.75029 0.82517 0.0
C2744 C 0.4603 0.57647 0.6481 0.0
C2745 C 0.4571 0.55315 0.65451 0.0
C2746 C 0.47967 0.58718 0.6414 0.0
C2747 C 0.49593 0.57411 0.64107 0.0
C2748 C 0.49286 0.55071 0.64791 0.0
C2749 C 0.47337 0.54043 0.65436 0.0
C2750 C 0.48245 0.61207 0.63389 0.0
C2751 C 0.50992 0.53623 0.64772 0.0
C2752 C 0.52958 0.57737 0.59401 0.0
C2753 C 0.54869 0.59316 0.60485 0.0
C2754 C 0.5117 0.57341 0.6049 0.0
C2755 C 0.51394 0.58243 0.62878 0.0
C2756 C 0.53374 0.59693 0.6408 0.0
C2757 C 0.55078 0.60311 0.62824 0.0
C2758 C 0.49065 0.55874 0.591 0.0
C2759 C 0.53709 0.60514 0.66686 0.0
H2760 H 0.44798 0.58661 0.64907 0.0
H2761 H 0.47102 0.52258 0.65988 0.0
H2762 H 0.49818 0.62337 0.64257 0.0
H2763 H 0.48224 0.61103 0.61454 0.0
H2764 H 0.46955 0.62097 0.63815 0.0
H2765 H 0.50637 0.52004 0.65706 0.0
H2766 H 0.51101 0.53032 0.62924 0.0
H2767 H 0.52586 0.54732 0.6561 0.0
H2768 H 0.52851 0.56775 0.57686 0.0
H2769 H 0.5659 0.61455 0.63694 0.0
H2770 H 0.47733 0.56766 0.59348 0.0
H2771 H 0.48691 0.54087 0.59734 0.0
H2772 H 0.49107 0.55607 0.57179 0.0
H2773 H 0.52776 0.61891 0.66995 0.0
H2774 H 0.55427 0.61291 0.67418 0.0
H2775 H 0.53124 0.58995 0.67672 0.0
C2776 C 0.77013 0.24465 0.94366 0.0
C2777 C 0.78766 0.25369 0.96191 0.0
C2778 C 0.76838 0.25473 0.92218 0.0
C2779 C 0.7849 0.27382 0.91856 0.0
C2780 C 0.80248 0.28321 0.93707 0.0
C2781 C 0.8035 0.27323 0.95862 0.0
C2782 C 0.74902 0.24463 0.90329 0.0
C2783 C 0.8206 0.30332 0.93383 0.0
C2784 C 0.79469 0.28164 0.85589 0.0
C2785 C 0.78825 0.30307 0.85211 0.0
C2786 C 0.79337 0.27176 0.87728 0.0
C2787 C 0.78461 0.28307 0.89502 0.0
C2788 C 0.77683 0.30393 0.89068 0.0
C2789 C 0.77921 0.31402 0.86948 0.0
C2790 C 0.80233 0.24984 0.88128 0.0
C2791 C 0.76614 0.31563 0.9085 0.0
H2792 H 0.75773 0.22962 0.94614 0.0
H2793 H 0.81707 0.28023 0.97263 0.0
H2794 H 0.74262 0.25926 0.89539 0.0
H2795 H 0.75369 0.23389 0.88891 0.0
H2796 H 0.73599 0.2329 0.91029 0.0
H2797 H 0.83331 0.30827 0.94974 0.0
H2798 H 0.82793 0.298 0.91858 0.0
H2799 H 0.81434 0.31941 0.92985 0.0
H2800 H 0.80191 0.27327 0.8426 0.0
H2801 H 0.77409 0.33053 0.86651 0.0
H2802 H 0.78957 0.23501 0.88469 0.0
H2803 H 0.81513 0.25383 0.89711 0.0
H2804 H 0.80914 0.24361 0.86594 0.0
H2805 H 0.75215 0.30248 0.91217 0.0
H2806 H 0.76055 0.33145 0.90227 0.0
H2807 H 0.7774 0.32136 0.92544 0.0
C2808 C 0.12776 0.49109 0.16588 0.0
C2809 C 0.12085 0.49268 0.18773 0.0
C2810 C 0.11729 0.49967 0.14641 0.0
C2811 C 0.10004 0.51067 0.14926 0.0
C2812 C 0.09283 0.51201 0.17123 0.0
C2813 C 0.10315 0.50261 0.19016 0.0
C2814 C 0.12503 0.49757 0.12302 0.0
C2815 C 0.07477 0.52416 0.17497 0.0
C2816 C 0.08583 0.55484 0.10772 0.0
C2817 C 0.06699 0.54114 0.09384 0.0
C2818 C 0.09712 0.54498 0.12567 0.0
C2819 C 0.08941 0.52085 0.12931 0.0
C2820 C 0.07085 0.50674 0.11468 0.0
C2821 C 0.05976 0.51714 0.09714 0.0
C2822 C 0.11678 0.56056 0.1412 0.0
C2823 C 0.06248 0.48082 0.11786 0.0
H2824 H 0.14162 0.48359 0.16418 0.0
H2825 H 0.09813 0.50429 0.20724 0.0
H2826 H 0.11139 0.48926 0.10873 0.0
H2827 H 0.13194 0.51566 0.11854 0.0
H2828 H 0.13745 0.48675 0.12329 0.0
H2829 H 0.07156 0.52426 0.19338 0.0
H2830 H 0.07874 0.54295 0.17083 0.0
H2831 H 0.05984 0.51495 0.16281 0.0
H2832 H 0.0914 0.57341 0.10499 0.0
H2833 H 0.04531 0.50649 0.0861 0.0
H2834 H 0.13076 0.5522 0.14087 0.0
H2835 H 0.11406 0.56223 0.15976 0.0
H2836 H 0.12089 0.5788 0.13562 0.0
H2837 H 0.0753 0.47072 0.11698 0.0
H2838 H 0.04836 0.47208 0.10425 0.0
H2839 H 0.05777 0.47954 0.13553 0.0
C2840 C 0.81375 0.9039 0.45898 0.0
C2841 C 0.8257 0.89677 0.47846 0.0
C2842 C 0.81422 0.8946 0.43582 0.0
C2843 C 0.82711 0.87795 0.43204 0.0
C2844 C 0.83927 0.87079 0.45165 0.0
C2845 C 0.83831 0.88016 0.47463 0.0
C2846 C 0.80081 0.90248 0.41541 0.0
C2847 C 0.8534 0.85332 0.44831 0.0
C2848 C 0.81164 0.8373 0.3741 0.0
C2849 C 0.82639 0.84844 0.36064 0.0
C2850 C 0.81205 0.8464 0.39749 0.0
C2851 C 0.82735 0.86746 0.4076 0.0
C2852 C 0.84253 0.87863 0.39421 0.0
C2853 C 0.84202 0.86881 0.37091 0.0
C2854 C 0.79578 0.83371 0.41119 0.0
C2855 C 0.85878 0.90141 0.4042 0.0
H2856 H 0.80399 0.91676 0.46184 0.0
H2857 H 0.84778 0.87482 0.48961 0.0
H2858 H 0.81094 0.9092 0.40237 0.0
H2859 H 0.78829 0.88695 0.40621 0.0
H2860 H 0.79281 0.91674 0.42122 0.0
H2861 H 0.86201 0.84973 0.46537 0.0
H2862 H 0.84356 0.83613 0.43881 0.0
H2863 H 0.86542 0.86045 0.43729 0.0
H2864 H 0.79959 0.82146 0.36623 0.0
H2865 H 0.85327 0.87761 0.36044 0.0
H2866 H 0.78499 0.84556 0.41542 0.0
H2867 H 0.80401 0.82958 0.42818 0.0
H2868 H 0.78583 0.81675 0.40122 0.0
H2869 H 0.85035 0.91611 0.40707 0.0
H2870 H 0.87049 0.90685 0.39226 0.0
H2871 H 0.86768 0.89922 0.4216 0.0
C2872 C 0.45235 0.53959 0.78417 0.0
C2873 C 0.45545 0.55528 0.7671 0.0
C2874 C 0.46666 0.54355 0.80543 0.0
C2875 C 0.48385 0.56397 0.80949 0.0
C2876 C 0.48641 0.58038 0.79265 0.0
C2877 C 0.4722 0.57565 0.77136 0.0
C2878 C 0.4638 0.52557 0.82314 0.0
C2879 C 0.50448 0.60242 0.79688 0.0
C2880 C 0.5085 0.57893 0.87306 0.0
C2881 C 0.52461 0.56596 0.87396 0.0
C2882 C 0.49571 0.57978 0.85163 0.0
C2883 C 0.49964 0.56763 0.83105 0.0
C2884 C 0.51744 0.5568 0.83161 0.0
C2885 C 0.52989 0.55611 0.85334 0.0
C2886 C 0.47677 0.59143 0.85142 0.0
C2887 C 0.52192 0.54368 0.8098 0.0
H2888 H 0.4393 0.52381 0.78049 0.0
H2889 H 0.47422 0.5878 0.75797 0.0
H2890 H 0.47813 0.51766 0.82613 0.0
H2891 H 0.46233 0.5346 0.84036 0.0
H2892 H 0.44939 0.51082 0.8172 0.0
H2893 H 0.50317 0.61426 0.78265 0.0
H2894 H 0.50465 0.61282 0.814 0.0
H2895 H 0.5201 0.59702 0.79795 0.0
H2896 H 0.50466 0.58643 0.88935 0.0
H2897 H 0.54231 0.5459 0.85444 0.0
H2898 H 0.46174 0.57735 0.84875 0.0
H2899 H 0.4756 0.60258 0.83662 0.0
H2900 H 0.47778 0.6028 0.86825 0.0
H2901 H 0.51005 0.52634 0.80525 0.0
H2902 H 0.53826 0.53995 0.81254 0.0
H2903 H 0.52027 0.5541 0.79448 0.0
C2904 C 0.80352 0.2428 0.11295 0.0
C2905 C 0.80226 0.25533 0.09296 0.0
C2906 C 0.80703 0.25471 0.13613 0.0
C2907 C 0.80926 0.27992 0.13978 0.0
C2908 C 0.80793 0.29264 0.11961 0.0
C2909 C 0.80456 0.28029 0.09663 0.0
C2910 C 0.80843 0.24025 0.15682 0.0
C2911 C 0.81017 0.31942 0.12228 0.0
C2912 C 0.79949 0.30819 0.19913 0.0
C2913 C 0.82043 0.31853 0.21089 0.0
C2914 C 0.79563 0.29576 0.17609 0.0
C2915 C 0.81311 0.29293 0.16457 0.0
C2916 C 0.83429 0.3029 0.17674 0.0
C2917 C 0.83764 0.3159 0.19941 0.0
C2918 C 0.77278 0.28642 0.16367 0.0
C2919 C 0.85351 0.30007 0.16571 0.0
H2920 H 0.80182 0.22356 0.11049 0.0
H2921 H 0.80371 0.29027 0.08145 0.0
H2922 H 0.82385 0.2474 0.16902 0.0
H2923 H 0.79533 0.24181 0.16689 0.0
H2924 H 0.80722 0.22099 0.15123 0.0
H2925 H 0.80688 0.32645 0.10501 0.0
H2926 H 0.79902 0.32444 0.13369 0.0
H2927 H 0.82671 0.32834 0.13102 0.0
H2928 H 0.78606 0.31079 0.20751 0.0
H2929 H 0.85384 0.32424 0.20815 0.0
H2930 H 0.76977 0.26682 0.15867 0.0
H2931 H 0.77012 0.29482 0.1471 0.0
H2932 H 0.76092 0.29011 0.17479 0.0
H2933 H 0.85305 0.28076 0.1615 0.0
H2934 H 0.86892 0.30854 0.17747 0.0
H2935 H 0.85306 0.30818 0.14886 0.0
C2936 C 0.11915 0.51138 0.31394 0.0
C2937 C 0.13922 0.51714 0.30712 0.0
C2938 C 0.11292 0.5276 0.32942 0.0
C2939 C 0.12678 0.55038 0.33711 0.0
C2940 C 0.1468 0.55651 0.32961 0.0
C2941 C 0.15302 0.53951 0.31512 0.0
C2942 C 0.09149 0.5204 0.33741 0.0
C2943 C 0.16155 0.58095 0.33663 0.0
C2944 C 0.09384 0.59011 0.36067 0.0
C2945 C 0.09713 0.58617 0.38444 0.0
C2946 C 0.10561 0.58094 0.34509 0.0
C2947 C 0.12035 0.56725 0.35368 0.0
C2948 C 0.12573 0.5662 0.3782 0.0
C2949 C 0.11415 0.57604 0.3934 0.0
C2950 C 0.1006 0.58372 0.31917 0.0
C2951 C 0.14142 0.5519 0.38821 0.0
H2952 H 0.10845 0.49422 0.30728 0.0
H2953 H 0.16834 0.54416 0.30919 0.0
H2954 H 0.09349 0.52343 0.35695 0.0
H2955 H 0.08058 0.5316 0.33008 0.0
H2956 H 0.08368 0.50129 0.33159 0.0
H2957 H 0.17466 0.58414 0.326 0.0
H2958 H 0.1524 0.59524 0.33453 0.0
H2959 H 0.16891 0.58263 0.35551 0.0
H2960 H 0.08088 0.59839 0.35388 0.0
H2961 H 0.11701 0.57375 0.41203 0.0
H2962 H 0.08894 0.5675 0.30995 0.0
H2963 H 0.11528 0.58571 0.31097 0.0
H2964 H 0.09341 0.59946 0.31633 0.0
H2965 H 0.13295 0.53282 0.38685 0.0
H2966 H 0.14794 0.55815 0.40714 0.0
H2967 H 0.15501 0.55287 0.3784 0.0
C2968 C 0.80293 0.87359 0.60354 0.0
C2969 C 0.82179 0.89143 0.6052 0.0
C2970 C 0.79823 0.86092 0.62288 0.0
C2971 C 0.81306 0.86547 0.64442 0.0
C2972 C 0.83233 0.8832 0.64602 0.0
C2973 C 0.83626 0.89619 0.62664 0.0
C2974 C 0.77709 0.84307 0.62043 0.0
C2975 C 0.849 0.88824 0.66816 0.0
C2976 C 0.79482 0.84984 0.70296 0.0
C2977 C 0.79948 0.82722 0.70517 0.0
C2978 C 0.79865 0.86211 0.68316 0.0
C2979 C 0.80827 0.8521 0.66535 0.0
C2980 C 0.81329 0.82933 0.6677 0.0
C2981 C 0.80842 0.81699 0.68724 0.0
C2982 C 0.79203 0.88567 0.68115 0.0
C2983 C 0.824 0.81807 0.64964 0.0
H2984 H 0.79148 0.86992 0.58719 0.0
H2985 H 0.85089 0.90984 0.62813 0.0
H2986 H 0.77984 0.82519 0.62408 0.0
H2987 H 0.76768 0.84866 0.63364 0.0
H2988 H 0.76735 0.84136 0.60254 0.0
H2989 H 0.86331 0.90216 0.66655 0.0
H2990 H 0.84202 0.89428 0.6834 0.0
H2991 H 0.85423 0.87155 0.67216 0.0
H2992 H 0.78757 0.8577 0.71648 0.0
H2993 H 0.8121 0.79954 0.6888 0.0
H2994 H 0.78106 0.88476 0.66418 0.0
H2995 H 0.80631 0.90019 0.68115 0.0
H2996 H 0.78381 0.89049 0.69584 0.0
H2997 H 0.81288 0.81335 0.63252 0.0
H2998 H 0.82884 0.80159 0.65512 0.0
H2999 H 0.83844 0.83099 0.64667 0.0
C3000 C 0.75941 0.46545 0.55603 0.0
C3001 C 0.78146 0.47464 0.56351 0.0
C3002 C 0.7442 0.47804 0.56249 0.0
C3003 C 0.75114 0.50021 0.5771 0.0
C3004 C 0.77332 0.50878 0.58592 0.0
C3005 C 0.7882 0.49606 0.57883 0.0
C3006 C 0.72072 0.4681 0.55287 0.0
C3007 C 0.78137 0.53168 0.60243 0.0
C3008 C 0.71599 0.54483 0.56471 0.0
C3009 C 0.70322 0.54228 0.58238 0.0
C3010 C 0.73211 0.53195 0.5635 0.0
C3011 C 0.73557 0.51582 0.58029 0.0
C3012 C 0.72342 0.51401 0.59894 0.0
C3013 C 0.70737 0.52731 0.59979 0.0
C3014 C 0.74503 0.53512 0.54374 0.0
C3015 C 0.72669 0.49736 0.61746 0.0
H3016 H 0.75405 0.44876 0.54448 0.0
H3017 H 0.80519 0.503 0.58523 0.0
H3018 H 0.71131 0.46699 0.56751 0.0
H3019 H 0.71465 0.48033 0.54091 0.0
H3020 H 0.71777 0.45003 0.54293 0.0
H3021 H 0.79904 0.53559 0.60831 0.0
H3022 H 0.77716 0.54697 0.59361 0.0
H3023 H 0.77344 0.53045 0.61824 0.0
H3024 H 0.71309 0.55673 0.55148 0.0
H3025 H 0.69755 0.52532 0.61353 0.0
H3026 H 0.74232 0.51786 0.53242 0.0
H3027 H 0.76242 0.54049 0.55111 0.0
H3028 H 0.74078 0.54886 0.53252 0.0
H3029 H 0.71825 0.47882 0.61013 0.0
H3030 H 0.72014 0.50223 0.63349 0.0
H3031 H 0.74395 0.49745 0.62267 0.0
C3032 C 0.20832 0.18708 0.50961 0.0
C3033 C 0.22667 0.17745 0.51038 0.0
C3034 C 0.18809 0.17269 0.51098 0.0
C3035 C 0.18598 0.14797 0.51347 0.0
C3036 C 0.20445 0.1381 0.51404 0.0
C3037 C 0.22446 0.15287 0.51238 0.0
C3038 C 0.16895 0.18405 0.50998 0.0
C3039 C 0.20312 0.11193 0.51671 0.0
C3040 C 0.13791 0.11656 0.54003 0.0
C3041 C 0.12401 0.10374 0.52002 0.0
C3042 C 0.15818 0.13069 0.53819 0.0
C3043 C 0.16456 0.13257 0.51573 0.0
C3044 C 0.15035 0.1198 0.49544 0.0
C3045 C 0.13042 0.10538 0.49787 0.0
C3046 C 0.17292 0.1434 0.56037 0.0
C3047 C 0.15611 0.12155 0.4711 0.0
H3048 H 0.2098 0.20603 0.50815 0.0
H3049 H 0.2385 0.1452 0.51311 0.0
H3050 H 0.15591 0.17425 0.49566 0.0
H3051 H 0.16263 0.18283 0.52681 0.0
H3052 H 0.17297 0.20318 0.50689 0.0
H3053 H 0.21908 0.10724 0.51823 0.0
H3054 H 0.19609 0.10722 0.53261 0.0
H3055 H 0.19236 0.10077 0.50124 0.0
H3056 H 0.13307 0.11519 0.55718 0.0
H3057 H 0.11968 0.09551 0.48234 0.0
H3058 H 0.17644 0.16302 0.55947 0.0
H3059 H 0.18845 0.13775 0.5619 0.0
H3060 H 0.16593 0.13968 0.57652 0.0
H3061 H 0.15823 0.14038 0.46707 0.0
H3062 H 0.14362 0.11006 0.45718 0.0
H3063 H 0.17159 0.11625 0.4704 0.0
C3064 C 0.21484 0.02758 0.83643 0.0
C3065 C 0.21909 0.05199 0.83401 0.0
C3066 C 0.22219 0.01179 0.82152 0.0
C3067 C 0.23328 0.02077 0.80351 0.0
C3068 C 0.2356 0.04503 0.79959 0.0
C3069 C 0.22883 0.0605 0.81523 0.0
C3070 C 0.21933 0.98587 0.82595 0.0
C3071 C 0.24613 0.05482 0.77962 0.0
C3072 C 0.27934 0.99262 0.7943 0.0
C3073 C 0.26993 0.97526 0.77528 0.0
C3074 C 0.26762 0.00801 0.80316 0.0
C3075 C 0.24613 1.00622 0.79226 0.0
C3076 C 0.23702 0.98976 0.7719 0.0
C3077 C 0.24898 0.97393 0.76389 0.0
C3078 C 0.27795 0.02535 0.82492 0.0
C3079 C 0.21452 0.98813 0.75914 0.0
H3080 H 0.2066 0.02108 0.85051 0.0
H3081 H 0.23109 0.07932 0.8127 0.0
H3082 H 0.21215 0.97403 0.80934 0.0
H3083 H 0.23525 0.98199 0.83214 0.0
H3084 H 0.20895 0.98138 0.83943 0.0
H3085 H 0.24406 0.07324 0.77711 0.0
H3086 H 0.26356 0.05524 0.78328 0.0
H3087 H 0.23929 0.043 0.76288 0.0
H3088 H 0.29558 0.99326 0.80302 0.0
H3089 H 0.24188 0.96029 0.74916 0.0
H3090 H 0.26857 0.02166 0.83939 0.0
H3091 H 0.27797 0.04398 0.82112 0.0
H3092 H 0.29477 0.02419 0.83127 0.0
H3093 H 0.20298 0.97595 0.76762 0.0
H3094 H 0.2126 0.98072 0.74035 0.0
H3095 H 0.21021 1.00587 0.75985 0.0
C3096 C 0.38992 0.01092 0.04737 0.0
C3097 C 0.38716 0.98594 0.04439 0.0
C3098 C 0.40968 0.02598 0.04581 0.0
C3099 C 0.42688 0.01579 0.04066 0.0
C3100 C 0.4243 0.99058 0.03824 0.0
C3101 C 0.40453 0.97598 0.04028 0.0
C3102 C 0.41205 0.05278 0.04918 0.0
C3103 C 0.44234 0.97901 0.03307 0.0
C3104 C 0.47018 0.04967 0.01016 0.0
C3105 C 0.48745 0.05701 0.02892 0.0
C3106 C 0.45013 0.03694 0.01393 0.0
C3107 C 0.44735 0.0313 0.03694 0.0
C3108 C 0.46452 0.03933 0.05604 0.0
C3109 C 0.48424 0.05227 0.05183 0.0
C3110 C 0.43211 0.02876 0.99316 0.0
C3111 C 0.46229 0.03385 0.08088 0.0
H3112 H 0.37661 0.01868 0.05087 0.0
H3113 H 0.40252 0.95668 0.03809 0.0
H3114 H 0.42644 0.0612 0.06251 0.0
H3115 H 0.41442 0.06025 0.03235 0.0
H3116 H 0.39778 0.05789 0.05495 0.0
H3117 H 0.43793 0.95919 0.03234 0.0
H3118 H 0.44683 0.98372 0.0159 0.0
H3119 H 0.45676 0.98588 0.04684 0.0
H3120 H 0.47246 0.05326 0.99242 0.0
H3121 H 0.49739 0.05801 0.06655 0.0
H3122 H 0.41754 0.0347 0.99691 0.0
H3123 H 0.42793 0.0089 0.9902 0.0
H3124 H 0.43641 0.03574 0.97667 0.0
H3125 H 0.45078 0.04353 0.08749 0.0
H3126 H 0.47783 0.03924 0.09325 0.0
H3127 H 0.45581 0.01444 0.08113 0.0
C3128 C 0.92723 0.73341 0.80102 0.0
C3129 C 0.92414 0.70896 0.80344 0.0
C3130 C 0.90965 0.74326 0.7927 0.0
C3131 C 0.88883 0.7281 0.78658 0.0
C3132 C 0.88594 0.7033 0.78803 0.0
C3133 C 0.90355 0.6941 0.79654 0.0
C3134 C 0.91321 0.76986 0.79118 0.0
C3135 C 0.86413 0.68645 0.78102 0.0
C3136 C 0.83887 0.75157 0.791 0.0
C3137 C 0.83218 0.7548 0.76751 0.0
C3138 C 0.85772 0.74355 0.79753 0.0
C3139 C 0.86963 0.73796 0.77995 0.0
C3140 C 0.86225 0.74004 0.75598 0.0
C3141 C 0.84379 0.74899 0.75011 0.0
C3142 C 0.86529 0.74186 0.82331 0.0
C3143 C 0.87417 0.73358 0.73666 0.0
H3144 H 0.94315 0.74483 0.80612 0.0
H3145 H 0.90107 0.67502 0.79783 0.0
H3146 H 0.90578 0.77344 0.77358 0.0
H3147 H 0.90534 0.77811 0.80451 0.0
H3148 H 0.93054 0.77873 0.79436 0.0
H3149 H 0.86492 0.66739 0.78188 0.0
H3150 H 0.85314 0.69092 0.7929 0.0
H3151 H 0.85697 0.68854 0.76278 0.0
H3152 H 0.83029 0.75711 0.80453 0.0
H3153 H 0.83889 0.75238 0.73209 0.0
H3154 H 0.8818 0.75294 0.82896 0.0
H3155 H 0.86591 0.72309 0.82601 0.0
H3156 H 0.85467 0.74794 0.83487 0.0
H3157 H 0.88971 0.74669 0.73845 0.0
H3158 H 0.86491 0.73355 0.71879 0.0
H3159 H 0.87778 0.71564 0.73817 0.0
C3160 C 0.84348 0.66989 0.023 0.0
C3161 C 0.84261 0.69226 0.03388 0.0
C3162 C 0.86168 0.66028 0.02839 0.0
C3163 C 0.87928 0.6731 0.04546 0.0
C3164 C 0.87822 0.69535 0.0571 0.0
C3165 C 0.86 0.70483 0.05093 0.0
C3166 C 0.86221 0.63654 0.01548 0.0
C3167 C 0.89633 0.70919 0.07595 0.0
C3168 C 0.91711 0.63378 0.06669 0.0
C3169 C 0.9331 0.63925 0.05261 0.0
C3170 C 0.90039 0.64608 0.06602 0.0
C3171 C 0.89906 0.66353 0.05017 0.0
C3172 C 0.91572 0.67008 0.03696 0.0
C3173 C 0.93274 0.65828 0.03878 0.0
C3174 C 0.88362 0.63957 0.08146 0.0
C3175 C 0.91488 0.68835 0.01958 0.0
H3176 H 0.83006 0.66009 0.00989 0.0
H3177 H 0.85933 0.72204 0.05959 0.0
H3178 H 0.87671 0.63837 0.00697 0.0
H3179 H 0.86318 0.62313 0.0282 0.0
H3180 H 0.84778 0.62955 1.00171 0.0
H3181 H 0.89208 0.72491 0.085 0.0
H3182 H 0.90074 0.69739 0.08934 0.0
H3183 H 0.91077 0.71561 0.06798 0.0
H3184 H 0.91702 0.6192 0.07752 0.0
H3185 H 0.9454 0.66349 0.0286 0.0
H3186 H 0.86884 0.62814 0.07066 0.0
H3187 H 0.87931 0.65586 0.08921 0.0
H3188 H 0.88921 0.62958 0.09602 0.0
H3189 H 0.90187 0.68077 1.00438 0.0
H3190 H 0.93022 0.69345 0.01279 0.0
H3191 H 0.91111 0.70476 0.02775 0.0
C3192 C 0.24461 0.16917 0.84032 0.0
C3193 C 0.22806 0.17179 0.85266 0.0
C3194 C 0.25551 0.18843 0.83056 0.0
C3195 C 0.25023 0.21096 0.83423 0.0
C3196 C 0.23337 0.21369 0.84655 0.0
C3197 C 0.22205 0.19372 0.85529 0.0
C3198 C 0.27287 0.18472 0.81664 0.0
C3199 C 0.22761 0.23767 0.85074 0.0
C3200 C 0.29877 0.2591 0.83386 0.0
C3201 C 0.29513 0.26443 0.81058 0.0
C3202 C 0.28333 0.24292 0.84239 0.0
C3203 C 0.26399 0.23184 0.8271 0.0
C3204 C 0.25971 0.23818 0.80394 0.0
C3205 C 0.27552 0.25447 0.79586 0.0
C3206 C 0.28831 0.23651 0.86723 0.0
C3207 C 0.23925 0.22655 0.78717 0.0
H3208 H 0.24852 0.15178 0.8376 0.0
H3209 H 0.20876 0.19525 0.86436 0.0
H3210 H 0.27024 0.19169 0.79927 0.0
H3211 H 0.28875 0.19479 0.82632 0.0
H3212 H 0.27343 0.16554 0.81353 0.0
H3213 H 0.21378 0.2366 0.86028 0.0
H3214 H 0.24161 0.25076 0.86121 0.0
H3215 H 0.22364 0.24474 0.83366 0.0
H3216 H 0.31387 0.2672 0.84531 0.0
H3217 H 0.27277 0.25888 0.77786 0.0
H3218 H 0.29111 0.21806 0.86656 0.0
H3219 H 0.27453 0.23683 0.87658 0.0
H3220 H 0.30281 0.24889 0.87767 0.0
H3221 H 0.24058 0.20865 0.77962 0.0
H3222 H 0.23622 0.23734 0.77236 0.0
H3223 H 0.22521 0.22392 0.79643 0.0
C3224 C 0.43496 0.08518 0.29263 0.0
C3225 C 0.43977 0.09723 0.31537 0.0
C3226 C 0.42132 0.06256 0.28824 0.0
C3227 C 0.41268 0.05239 0.3072 0.0
C3228 C 0.41907 0.06385 0.33058 0.0
C3229 C 0.43256 0.08653 0.33437 0.0
C3230 C 0.41473 0.0506 0.26317 0.0
C3231 C 0.41043 0.05306 0.35122 0.0
C3232 C 0.35672 0.01459 0.2965 0.0
C3233 C 0.36102 0.99189 0.29751 0.0
C3234 C 0.37361 0.03456 0.2986 0.0
C3235 C 0.39497 0.03137 0.3023 0.0
C3236 C 0.39932 0.00838 0.3028 0.0
C3237 C 0.38215 0.98875 0.3002 0.0
C3238 C 0.36867 0.0591 0.29785 0.0
C3239 C 0.42201 1.00467 0.30719 0.0
H3240 H 0.44079 0.09405 0.27816 0.0
H3241 H 0.43663 0.09638 0.3519 0.0
H3242 H 0.41504 0.03133 0.26239 0.0
H3243 H 0.39801 0.05181 0.25646 0.0
H3244 H 0.4253 0.05915 0.25124 0.0
H3245 H 0.41909 0.06297 0.36843 0.0
H3246 H 0.39318 0.05339 0.34983 0.0
H3247 H 0.41169 0.03408 0.35102 0.0
H3248 H 0.34027 0.01667 0.29468 0.0
H3249 H 0.38526 0.971 0.3015 0.0
H3250 H 0.37688 0.0687 0.28464 0.0
H3251 H 0.37481 0.06984 0.3153 0.0
H3252 H 0.35117 0.05822 0.29335 0.0
H3253 H 0.4309 0.01214 0.29343 0.0
H3254 H 0.4225 0.98545 0.30721 0.0
H3255 H 0.43065 0.01439 0.32445 0.0
C3256 C 0.57087 0.42132 0.62195 0.0
C3257 C 0.58569 0.40861 0.61483 0.0
C3258 C 0.5676 0.44225 0.61201 0.0
C3259 C 0.57973 0.45123 0.59477 0.0
C3260 C 0.59501 0.43869 0.58782 0.0
C3261 C 0.59759 0.41745 0.59766 0.0
C3262 C 0.55112 0.45479 0.62001 0.0
C3263 C 0.60893 0.44797 0.57025 0.0
C3264 C 0.55862 0.49532 0.55521 0.0
C3265 C 0.57131 0.51746 0.56596 0.0
C3266 C 0.56147 0.47364 0.56406 0.0
C3267 C 0.57687 0.47407 0.58461 0.0
C3268 C 0.58936 0.49651 0.59571 0.0
C3269 C 0.58657 0.51771 0.58618 0.0
C3270 C 0.54819 0.45018 0.55126 0.0
C3271 C 0.60556 0.49826 0.61792 0.0
H3272 H 0.56151 0.41464 0.63511 0.0
H3273 H 0.60921 0.40795 0.59217 0.0
H3274 H 0.55897 0.47334 0.62791 0.0
H3275 H 0.53902 0.45608 0.60461 0.0
H3276 H 0.5427 0.44538 0.63321 0.0
H3277 H 0.61917 0.43557 0.56562 0.0
H3278 H 0.59882 0.45084 0.55387 0.0
H3279 H 0.6195 0.46556 0.57773 0.0
H3280 H 0.54686 0.4949 0.53957 0.0
H3281 H 0.59624 0.53474 0.59491 0.0
H3282 H 0.53856 0.44038 0.56331 0.0
H3283 H 0.5589 0.43875 0.54573 0.0
H3284 H 0.53717 0.45268 0.53538 0.0
H3285 H 0.59707 0.49265 0.63263 0.0
H3286 H 0.61537 0.51674 0.62317 0.0
H3287 H 0.61648 0.48602 0.61554 0.0
C3288 C 0.45125 0.80861 0.39466 0.0
C3289 C 0.47036 0.81674 0.38591 0.0
C3290 C 0.43115 0.81172 0.38316 0.0
C3291 C 0.42987 0.82355 0.36241 0.0
C3292 C 0.44926 0.83254 0.35404 0.0
C3293 C 0.46906 0.82887 0.36565 0.0
C3294 C 0.41118 0.80192 0.39304 0.0
C3295 C 0.44908 0.84621 0.33274 0.0
C3296 C 0.37858 0.80923 0.31546 0.0
C3297 C 0.36851 0.8281 0.32028 0.0
C3298 C 0.39792 0.80724 0.32946 0.0
C3299 C 0.40831 0.82504 0.34847 0.0
C3300 C 0.39824 0.84429 0.35341 0.0
C3301 C 0.3783 0.84527 0.33967 0.0
C3302 C 0.4073 0.78591 0.32384 0.0
C3303 C 0.40852 0.864 0.37313 0.0
H3304 H 0.45194 0.79956 0.41047 0.0
H3305 H 0.48366 0.83576 0.35892 0.0
H3306 H 0.40264 0.81636 0.39654 0.0
H3307 H 0.40009 0.78804 0.37988 0.0
H3308 H 0.41481 0.79392 0.40969 0.0
H3309 H 0.4655 0.85326 0.32912 0.0
H3310 H 0.43956 0.83441 0.31693 0.0
H3311 H 0.44124 0.86145 0.33545 0.0
H3312 H 0.37107 0.79563 0.30082 0.0
H3313 H 0.37067 0.85988 0.34369 0.0
H3314 H 0.41003 0.77665 0.33985 0.0
H3315 H 0.42309 0.79196 0.31833 0.0
H3316 H 0.3967 0.77283 0.30953 0.0
H3317 H 0.40615 0.85739 0.39032 0.0
H3318 H 0.4014 0.87995 0.37154 0.0
H3319 H 0.42607 0.86957 0.37339 0.0
C3320 C 0.09842 0.76162 0.11553 0.0
C3321 C 0.08185 0.77373 0.11008 0.0
C3322 C 0.09526 0.73681 0.10929 0.0
C3323 C 0.07513 0.72368 0.09684 0.0
C3324 C 0.05818 0.73569 0.09161 0.0
C3325 C 0.0617 0.76052 0.0984 0.0
C3326 C 0.1135 0.72462 0.11603 0.0
C3327 C 0.03634 0.72227 0.07882 0.0
C3328 C 0.07645 0.66708 0.0583 0.0
C3329 C 0.06888 0.64906 0.07187 0.0
C3330 C 0.07804 0.69133 0.06603 0.0
C3331 C 0.07234 0.69775 0.08811 0.0
C3332 C 0.06465 0.67944 0.10188 0.0
C3333 C 0.06282 0.65528 0.09345 0.0
C3334 C 0.08557 0.7101 0.05041 0.0
C3335 C 0.05874 0.68525 0.1257 0.0
H3336 H 0.11388 0.77149 0.12509 0.0
H3337 H 0.04865 0.76959 0.09458 0.0
H3338 H 0.1082 0.70949 0.12619 0.0
H3339 H 0.11831 0.71707 0.09987 0.0
H3340 H 0.12776 0.73705 0.12684 0.0
H3341 H 0.02482 0.73413 0.07608 0.0
H3342 H 0.03779 0.71369 0.06138 0.0
H3343 H 0.02965 0.70776 0.08902 0.0
H3344 H 0.08063 0.66213 0.04133 0.0
H3345 H 0.05671 0.64121 0.10376 0.0
H3346 H 0.10057 0.72249 0.05967 0.0
H3347 H 0.07333 0.72092 0.04662 0.0
H3348 H 0.08862 0.70215 0.03339 0.0
H3349 H 0.07365 0.69165 0.13887 0.0
H3350 H 0.04894 0.66932 0.13172 0.0
H3351 H 0.04974 0.69973 0.12537 0.0
C3352 C 0.103 0.34652 0.89777 0.0
C3353 C 0.09004 0.32337 0.89623 0.0
C3354 C 0.12295 0.35042 0.88994 0.0
C3355 C 0.13039 0.33065 0.88075 0.0
C3356 C 0.11766 0.3072 0.87992 0.0
C3357 C 0.09754 0.30386 0.88734 0.0
C3358 C 0.13569 0.37577 0.89084 0.0
C3359 C 0.12528 0.28557 0.87101 0.0
C3360 C 0.16783 0.33691 0.8354 0.0
C3361 C 0.18755 0.3357 0.84874 0.0
C3362 C 0.14944 0.33631 0.84583 0.0
C3363 C 0.15058 0.33435 0.8703 0.0
C3364 C 0.17064 0.3342 0.88414 0.0
C3365 C 0.18885 0.33475 0.8732 0.0
C3366 C 0.12853 0.33686 0.8304 0.0
C3367 C 0.17276 0.33298 0.91042 0.0
H3368 H 0.09732 0.3617 0.90471 0.0
H3369 H 0.08781 0.28593 0.88653 0.0
H3370 H 0.15281 0.37722 0.89835 0.0
H3371 H 0.13512 0.38092 0.87263 0.0
H3372 H 0.1293 0.38877 0.90146 0.0
H3373 H 0.11404 0.2685 0.87252 0.0
H3374 H 0.12708 0.28635 0.85222 0.0
H3375 H 0.1413 0.28554 0.88115 0.0
H3376 H 0.16651 0.33739 0.81648 0.0
H3377 H 0.20408 0.33424 0.88375 0.0
H3378 H 0.12139 0.3511 0.83791 0.0
H3379 H 0.11693 0.31954 0.82982 0.0
H3380 H 0.1306 0.34006 0.81204 0.0
H3381 H 0.16782 0.34846 0.91897 0.0
H3382 H 0.18944 0.33304 0.91872 0.0
H3383 H 0.16189 0.31651 0.91404 0.0
C3384 C 0.51941 0.73456 0.95194 0.0
C3385 C 0.53725 0.74935 0.9452 0.0
C3386 C 0.52045 0.71192 0.95983 0.0
C3387 C 0.53953 0.70312 0.96024 0.0
C3388 C 0.55721 0.71759 0.9524 0.0
C3389 C 0.55602 0.7405 0.94548 0.0
C3390 C 0.50125 0.69763 0.96829 0.0
C3391 C 0.57752 0.70879 0.95127 0.0
C3392 C 0.55276 0.65944 1.00474 0.0
C3393 C 0.54714 0.63688 0.99111 0.0
C3394 C 0.55018 0.68069 0.99496 0.0
C3395 C 0.5417 0.67995 0.97068 0.0
C3396 C 0.53588 0.65722 0.95672 0.0
C3397 C 0.53864 0.6361 0.96704 0.0
C3398 C 0.55671 0.70412 0.01078 0.0
C3399 C 0.52657 0.65505 0.93085 0.0
H3400 H 0.50474 0.74096 0.95162 0.0
H3401 H 0.56975 0.75137 0.93978 0.0
H3402 H 0.49636 0.67943 0.95847 0.0
H3403 H 0.50557 0.69547 0.98725 0.0
H3404 H 0.48732 0.70629 0.96609 0.0
H3405 H 0.58933 0.7213 0.94336 0.0
H3406 H 0.58508 0.7065 0.96928 0.0
H3407 H 0.57366 0.69101 0.94063 0.0
H3408 H 0.55943 0.66064 0.0233 0.0
H3409 H 0.53415 0.61897 0.95619 0.0
H3410 H 0.54287 0.71283 0.01038 0.0
H3411 H 0.56961 0.71648 1.00425 0.0
H3412 H 0.5626 0.70179 0.02939 0.0
H3413 H 0.50974 0.65718 0.92896 0.0
H3414 H 0.52658 0.63736 0.92155 0.0
H3415 H 0.53564 0.66936 0.92205 0.0
C3416 C 0.14931 0.82929 0.70714 0.0
C3417 C 0.14746 0.84415 0.6891 0.0
C3418 C 0.16951 0.82778 0.71916 0.0
C3419 C 0.18839 0.84175 0.71333 0.0
C3420 C 0.18665 0.85704 0.69533 0.0
C3421 C 0.16622 0.85789 0.68329 0.0
C3422 C 0.17065 0.81106 0.73803 0.0
C3423 C 0.20638 0.87218 0.68851 0.0
C3424 C 0.23962 0.85465 0.75906 0.0
C3425 C 0.25005 0.83711 0.75146 0.0
C3426 C 0.21949 0.85622 0.74694 0.0
C3427 C 0.2099 0.84039 0.72624 0.0
C3428 C 0.22066 0.82294 0.71823 0.0
C3429 C 0.24043 0.82122 0.73121 0.0
C3430 C 0.20856 0.87492 0.75625 0.0
C3431 C 0.21144 0.80632 0.6958 0.0
H3432 H 0.13492 0.8184 0.71156 0.0
H3433 H 0.16493 0.86933 0.66929 0.0
H3434 H 0.1799 0.79765 0.73331 0.0
H3435 H 0.17923 0.8213 0.75509 0.0
H3436 H 0.1545 0.80142 0.74051 0.0
H3437 H 0.20228 0.88451 0.67551 0.0
H3438 H 0.21691 0.88295 0.70435 0.0
H3439 H 0.21577 0.86041 0.68071 0.0
H3440 H 0.24722 0.86711 0.77457 0.0
H3441 H 0.2488 0.80806 0.72498 0.0
H3442 H 0.19253 0.86618 0.75984 0.0
H3443 H 0.20599 0.88727 0.74278 0.0
H3444 H 0.21803 0.88562 0.77274 0.0
H3445 H 0.19621 0.79429 0.69797 0.0
H3446 H 0.22263 0.79517 0.69094 0.0
H3447 H 0.20762 0.81676 0.68096 0.0
C3448 C 0.06186 0.4028 0.46104 0.0
C3449 C 0.04369 0.38916 0.44573 0.0
C3450 C 0.0633 0.42721 0.46913 0.0
C3451 C 0.04582 0.43833 0.46275 0.0
C3452 C 0.02726 0.42437 0.44761 0.0
C3453 C 0.02667 0.40039 0.43888 0.0
C3454 C 0.0837 0.44123 0.48455 0.0
C3455 C 1.00778 0.43462 0.44088 0.0
C3456 C 0.0438 0.49094 0.50741 0.0
C3457 C 0.05143 0.5114 0.49656 0.0
C3458 C 0.04097 0.46747 0.49618 0.0
C3459 C 0.04644 0.46373 0.47346 0.0
C3460 C 0.05339 0.48434 0.46191 0.0
C3461 C 0.05563 0.50786 0.47347 0.0
C3462 C 0.0325 0.44656 0.50903 0.0
C3463 C 0.05954 0.48167 0.4378 0.0
H3464 H 0.07525 0.39458 0.46618 0.0
H3465 H 0.01255 0.39013 0.427 0.0
H3466 H 0.08945 0.45833 0.47737 0.0
H3467 H 0.08052 0.4458 0.50255 0.0
H3468 H 0.09664 0.43109 0.48594 0.0
H3469 H 0.99401 0.421 0.43065 0.0
H3470 H 1.00276 0.44207 0.45695 0.0
H3471 H 0.01178 0.44953 0.43007 0.0
H3472 H 0.04026 0.4933 0.52514 0.0
H3473 H 0.06169 0.52338 0.46489 0.0
H3474 H 0.04521 0.43655 0.51364 0.0
H3475 H 0.01883 0.43399 0.49744 0.0
H3476 H 0.02707 0.45231 0.52553 0.0
H3477 H 0.075 0.47588 0.43939 0.0
H3478 H 0.06141 0.49873 0.42967 0.0
H3479 H 0.04738 0.46769 0.42581 0.0
C3480 C 0.53731 0.32904 0.20932 0.0
C3481 C 0.53708 0.33906 0.18784 0.0
C3482 C 0.52029 0.32853 0.22223 0.0
C3483 C 0.50254 0.33817 0.21342 0.0
C3484 C 0.50243 0.34858 0.19192 0.0
C3485 C 0.5196 0.34888 0.17945 0.0
C3486 C 0.52118 0.31731 0.24506 0.0
C3487 C 0.48402 0.3593 0.18193 0.0
C3488 C 0.44705 0.31863 0.23018 0.0
C3489 C 0.44577 0.33857 0.24525 0.0
C3490 C 0.46572 0.31779 0.22055 0.0
C3491 C 0.48381 0.33723 0.22622 0.0
C3492 C 0.48311 0.35677 0.24247 0.0
C3493 C 0.46414 0.3573 0.25161 0.0
C3494 C 0.46578 0.29644 0.20354 0.0
C3495 C 0.50216 0.37762 0.24953 0.0
H3496 H 0.55074 0.32143 0.216 0.0
H3497 H 0.51928 0.35678 0.16297 0.0
H3498 H 0.51721 0.3291 0.25916 0.0
H3499 H 0.50904 0.30016 0.24255 0.0
H3500 H 0.53721 0.31364 0.25115 0.0
H3501 H 0.48636 0.36681 0.16509 0.0
H3502 H 0.46882 0.34545 0.17875 0.0
H3503 H 0.48216 0.37379 0.19484 0.0
H3504 H 0.43329 0.30371 0.22558 0.0
H3505 H 0.46351 0.37293 0.26306 0.0
H3506 H 0.47995 0.28891 0.20921 0.0
H3507 H 0.467 0.30216 0.18575 0.0
H3508 H 0.45104 0.2821 0.20212 0.0
H3509 H 0.51679 0.37109 0.25586 0.0
H3510 H 0.49968 0.39057 0.26365 0.0
H3511 H 0.50519 0.38717 0.23395 0.0
C3512 C 0.66612 0.58731 0.43018 0.0
C3513 C 0.66691 0.60638 0.41648 0.0
C3514 C 0.6523 0.58446 0.44669 0.0
C3515 C 0.63926 0.60113 0.44926 0.0
C3516 C 0.64105 0.62126 0.43652 0.0
C3517 C 0.65497 0.62365 0.42019 0.0
C3518 C 0.65087 0.56309 0.46053 0.0
C3519 C 0.6275 0.63954 0.43919 0.0
C3520 C 0.58683 0.57744 0.46918 0.0
C3521 C 0.59103 0.58871 0.49225 0.0
C3522 C 0.6023 0.58202 0.4546 0.0
C3523 C 0.62272 0.59673 0.46413 0.0
C3524 C 0.62707 0.60785 0.48751 0.0
C3525 C 0.61064 0.6048 0.50079 0.0
C3526 C 0.59671 0.57158 0.429 0.0
C3527 C 0.64903 0.62265 0.49857 0.0
H3528 H 0.67545 0.57402 0.42718 0.0
H3529 H 0.65595 0.63858 0.4097 0.0
H3530 H 0.65206 0.56885 0.47962 0.0
H3531 H 0.63506 0.55057 0.45462 0.0
H3532 H 0.66367 0.55326 0.45822 0.0
H3533 H 0.63071 0.65391 0.42752 0.0
H3534 H 0.61022 0.63062 0.43497 0.0
H3535 H 0.63066 0.64799 0.45771 0.0
H3536 H 0.57129 0.56573 0.46235 0.0
H3537 H 0.61321 0.61508 0.51788 0.0
H3538 H 0.60732 0.55934 0.42526 0.0
H3539 H 0.59941 0.58614 0.41747 0.0
H3540 H 0.57974 0.56153 0.42418 0.0
H3541 H 0.66125 0.61175 0.49746 0.0
H3542 H 0.64981 0.62918 0.51742 0.0
H3543 H 0.65351 0.6383 0.48882 0.0
C3544 C 0.34704 0.90943 0.12499 0.0
C3545 C 0.32775 0.90937 0.10996 0.0
C3546 C 0.34721 0.90286 0.14814 0.0
C3547 C 0.32767 0.8965 0.15691 0.0
C3548 C 0.30823 0.89737 0.14215 0.0
C3549 C 0.30846 0.90343 0.11885 0.0
C3550 C 0.36834 0.90238 0.16312 0.0
C3551 C 0.28714 0.89201 0.15108 0.0
C3552 C 0.32273 0.85288 0.20376 0.0
C3553 C 0.32467 0.86796 0.22475 0.0
C3554 C 0.3241 0.86203 0.18193 0.0
C3555 C 0.32728 0.88704 0.18063 0.0
C3556 C 0.32955 0.90249 0.20182 0.0
C3557 C 0.3284 0.8928 0.22356 0.0
C3558 C 0.32184 0.84478 0.16007 0.0
C3559 C 0.33314 0.92928 0.2017 0.0
H3560 H 0.36209 0.9144 0.11853 0.0
H3561 H 0.29353 0.90402 0.10774 0.0
H3562 H 0.37065 0.91414 0.17993 0.0
H3563 H 0.36822 0.88394 0.16768 0.0
H3564 H 0.3822 0.90833 0.15404 0.0
H3565 H 0.27362 0.8949 0.13812 0.0
H3566 H 0.28348 0.87315 0.15505 0.0
H3567 H 0.28828 0.90358 0.1678 0.0
H3568 H 0.31987 0.83367 0.20429 0.0
H3569 H 0.32983 0.90472 0.2395 0.0
H3570 H 0.33602 0.84972 0.15126 0.0
H3571 H 0.30748 0.84589 0.14735 0.0
H3572 H 0.32025 0.82596 0.16408 0.0
H3573 H 0.35021 0.93668 0.2007 0.0
H3574 H 0.32947 0.93809 0.218 0.0
H3575 H 0.32316 0.934 0.18615 0.0
C3576 C 0.01732 0.64653 0.88495 0.0
C3577 C 1.00303 0.66166 0.88704 0.0
C3578 C 0.02332 0.63355 0.90343 0.0
C3579 C 0.01519 0.6361 0.92474 0.0
C3580 C 1.00049 0.651 0.92686 0.0
C3581 C 0.99449 0.66353 0.90792 0.0
C3582 C 0.03855 0.61728 0.90025 0.0
C3583 C 0.99144 0.65404 0.94932 0.0
C3584 C 0.02516 0.59314 0.97011 0.0
C3585 C 0.04421 0.6064 0.9841 0.0
C3586 C 0.01511 0.60263 0.95082 0.0
C3587 C 0.02439 0.62588 0.94572 0.0
C3588 C 0.04329 0.63943 0.96028 0.0
C3589 C 0.05293 0.62953 0.97925 0.0
C3590 C 0.99501 0.58761 0.93559 0.0
C3591 C 0.05369 0.66426 0.95549 0.0
H3592 H 0.02342 0.64431 0.86857 0.0
H3593 H 0.98297 0.67465 0.90938 0.0
H3594 H 0.05377 0.62394 0.91289 0.0
H3595 H 0.03151 0.59899 0.90414 0.0
H3596 H 0.04232 0.61611 0.88206 0.0
H3597 H 0.9786 0.66431 0.94735 0.0
H3598 H 0.98482 0.63631 0.95482 0.0
H3599 H 1.00448 0.66362 0.96375 0.0
H3600 H 0.01839 0.57523 0.97392 0.0
H3601 H 0.06756 0.6399 0.99018 0.0
H3602 H 0.99852 0.58249 0.91786 0.0
H3603 H 0.98233 0.59801 0.93305 0.0
H3604 H 0.98868 0.571 0.94331 0.0
H3605 H 0.05903 0.66334 0.93808 0.0
H3606 H 0.06781 0.67282 0.96917 0.0
H3607 H 0.04192 0.67589 0.95474 0.0
C3608 C 0.31356 0.27321 0.59825 0.0
C3609 C 0.29545 0.25554 0.58754 0.0
C3610 C 0.31674 0.28139 0.62262 0.0
C3611 C 0.30136 0.27189 0.63662 0.0
C3612 C 0.28313 0.25404 0.62581 0.0
C3613 C 0.28048 0.24608 0.60159 0.0
C3614 C 0.33669 0.29997 0.63347 0.0
C3615 C 0.26636 0.24323 0.63987 0.0
C3616 C 0.31633 0.2774 0.70406 0.0
C3617 C 0.30641 0.29563 0.71123 0.0
C3618 C 0.31487 0.26949 0.67996 0.0
C3619 C 0.30392 0.28072 0.66244 0.0
C3620 C 0.2944 0.29964 0.66969 0.0
C3621 C 0.2954 0.30656 0.69396 0.0
C3622 C 0.32489 0.24895 0.67328 0.0
C3623 C 0.28327 0.31273 0.65175 0.0
H3624 H 0.32545 0.28031 0.5877 0.0
H3625 H 0.26652 0.2323 0.59361 0.0
H3626 H 0.33233 0.31526 0.64311 0.0
H3627 H 0.34685 0.2921 0.64652 0.0
H3628 H 0.34635 0.30681 0.62004 0.0
H3629 H 0.25336 0.22913 0.62903 0.0
H3630 H 0.27392 0.23528 0.65496 0.0
H3631 H 0.25908 0.25741 0.64729 0.0
H3632 H 0.32496 0.26901 0.71742 0.0
H3633 H 0.28808 0.32098 0.69946 0.0
H3634 H 0.33768 0.25506 0.66283 0.0
H3635 H 0.31267 0.23444 0.66199 0.0
H3636 H 0.33198 0.24145 0.68898 0.0
H3637 H 0.29457 0.32036 0.64014 0.0
H3638 H 0.27721 0.32746 0.66015 0.0
H3639 H 0.26959 0.30003 0.64034 0.0
C3640 C 0.67397 0.58824 0.27352 0.0
C3641 C 0.66235 0.59275 0.29138 0.0
C3642 C 0.66354 0.58102 0.25034 0.0
C3643 C 0.64115 0.57899 0.24505 0.0
C3644 C 0.62923 0.58274 0.26315 0.0
C3645 C 0.64003 0.58933 0.28634 0.0
C3646 C 0.67658 0.57686 0.23134 0.0
C3647 C 0.60535 0.58129 0.25779 0.0
C3648 C 0.62104 0.59758 0.18672 0.0
C3649 C 0.61035 0.57558 0.1742 0.0
C3650 C 0.63133 0.5988 0.20984 0.0
C3651 C 0.63095 0.57734 0.22035 0.0
C3652 C 0.62062 0.55489 0.20748 0.0
C3653 C 0.61021 0.55426 0.18425 0.0
C3654 C 0.64215 0.62308 0.22311 0.0
C3655 C 0.62047 0.53178 0.21827 0.0
H3656 H 0.69124 0.59046 0.27764 0.0
H3657 H 0.63116 0.59266 0.30035 0.0
H3658 H 0.66934 0.5594 0.2206 0.0
H3659 H 0.67652 0.59097 0.21926 0.0
H3660 H 0.69352 0.5771 0.23877 0.0
H3661 H 0.59828 0.58315 0.27408 0.0
H3662 H 0.60221 0.59574 0.24697 0.0
H3663 H 0.59703 0.56398 0.24731 0.0
H3664 H 0.62092 0.61391 0.17847 0.0
H3665 H 0.60183 0.53737 0.1741 0.0
H3666 H 0.65944 0.6239 0.22912 0.0
H3667 H 0.6349 0.62607 0.23906 0.0
H3668 H 0.64074 0.63794 0.21215 0.0
H3669 H 0.63718 0.52955 0.22305 0.0
H3670 H 0.61107 0.51594 0.20607 0.0
H3671 H 0.61361 0.53228 0.23479 0.0
C3672 C 0.33864 0.89826 0.96675 0.0
C3673 C 0.32162 0.90747 0.97364 0.0
C3674 C 0.33862 0.89003 0.9428 0.0
C3675 C 0.32083 0.89015 0.92498 0.0
C3676 C 0.3036 0.89937 0.93195 0.0
C3677 C 0.30439 0.90825 0.95586 0.0
C3678 C 0.35778 0.88131 0.93655 0.0
C3679 C 0.28392 0.89924 0.91417 0.0
C3680 C 0.32292 0.8806 0.85755 0.0
C3681 C 0.31387 0.85594 0.85188 0.0
C3682 C 0.32564 0.89198 0.88114 0.0
C3683 C 0.31916 0.87857 0.8997 0.0
C3684 C 0.31027 0.85371 0.89391 0.0
C3685 C 0.30783 0.84293 0.87048 0.0
C3686 C 0.33564 0.91836 0.8863 0.0
C3687 C 0.30322 0.83825 0.91256 0.0
H3688 H 0.35229 0.89795 0.98009 0.0
H3689 H 0.29116 0.91536 0.96076 0.0
H3690 H 0.35283 0.86233 0.92875 0.0
H3691 H 0.36456 0.89184 0.92303 0.0
H3692 H 0.37059 0.88286 0.95214 0.0
H3693 H 0.27219 0.90775 0.92195 0.0
H3694 H 0.28854 0.90879 0.89909 0.0
H3695 H 0.27592 0.8805 0.90702 0.0
H3696 H 0.32802 0.89096 0.84368 0.0
H3697 H 0.30107 0.82386 0.86678 0.0
H3698 H 0.35033 0.92125 0.89987 0.0
H3699 H 0.32439 0.92791 0.89368 0.0
H3700 H 0.33997 0.92641 0.87029 0.0
H3701 H 0.31723 0.83826 0.92628 0.0
H3702 H 0.29579 0.81942 0.90515 0.0
H3703 H 0.29147 0.84563 0.92142 0.0
C3704 C 0.99194 0.66097 0.74277 0.0
C3705 C 0.98918 0.64922 0.76274 0.0
C3706 C 0.99635 0.64879 0.72262 0.0
C3707 C 0.99827 0.62465 0.7229 0.0
C3708 C 0.99566 0.61292 0.74324 0.0
C3709 C 0.99105 0.62537 0.76289 0.0
C3710 C 0.99876 0.66156 0.70095 0.0
C3711 C 0.99785 0.58732 0.74433 0.0
C3712 C 0.9964 0.58879 0.66417 0.0
C3713 C 0.01835 0.59115 0.66386 0.0
C3714 C 0.98944 0.59895 0.68375 0.0
C3715 C 1.0049 0.61233 0.70273 0.0
C3716 C 0.02703 0.61431 0.70249 0.0
C3717 C 0.03346 0.60352 0.6831 0.0
C3718 C 0.96568 0.59571 0.68399 0.0
C3719 C 0.04398 0.62845 0.72237 0.0
H3720 H 0.98991 0.67923 0.74264 0.0
H3721 H 0.98867 0.61636 0.77846 0.0
H3722 H 0.01474 0.6616 0.69606 0.0
H3723 H 0.9865 0.65189 0.68583 0.0
H3724 H 0.99695 0.68035 0.70364 0.0
H3725 H 0.99384 0.58038 0.76095 0.0
H3726 H 0.98721 0.57554 0.72916 0.0
H3727 H 0.01457 0.58608 0.74308 0.0
H3728 H 0.98482 0.57913 0.64916 0.0
H3729 H 0.05044 0.60547 0.68256 0.0
H3730 H 0.96105 0.61318 0.68275 0.0
H3731 H 0.96175 0.58939 0.70085 0.0
H3732 H 0.95587 0.58272 0.66913 0.0
H3733 H 0.04296 0.64755 0.72366 0.0
H3734 H 0.06047 0.62737 0.7198 0.0
H3735 H 0.04122 0.62184 0.73947 0.0
C3736 C 0.27907 0.26459 0.44098 0.0
C3737 C 0.29396 0.25235 0.45173 0.0
C3738 C 0.28086 0.27343 0.41889 0.0
C3739 C 0.29831 0.27065 0.40732 0.0
C3740 C 0.31356 0.2586 0.41835 0.0
C3741 C 0.31104 0.24936 0.44007 0.0
C3742 C 0.26393 0.28564 0.40783 0.0
C3743 C 0.3328 0.25575 0.40734 0.0
C3744 C 0.29666 0.2774 0.34076 0.0
C3745 C 0.30949 0.30045 0.34127 0.0
C3746 C 0.29269 0.26754 0.36196 0.0
C3747 C 0.30125 0.28119 0.38431 0.0
C3748 C 0.31351 0.3048 0.3847 0.0
C3749 C 0.31768 0.31391 0.36339 0.0
C3750 C 0.27983 0.24222 0.36047 0.0
C3751 C 0.32261 0.32044 0.40775 0.0
H3752 H 0.26571 0.26685 0.44963 0.0
H3753 H 0.32275 0.24009 0.4482 0.0
H3754 H 0.27147 0.3039 0.40432 0.0
H3755 H 0.25575 0.2755 0.39059 0.0
H3756 H 0.25168 0.287 0.41919 0.0
H3757 H 0.34301 0.24557 0.41775 0.0
H3758 H 0.32749 0.24639 0.38918 0.0
H3759 H 0.34273 0.27365 0.40591 0.0
H3760 H 0.29038 0.26674 0.32385 0.0
H3761 H 0.3275 0.33178 0.36406 0.0
H3762 H 0.26612 0.2418 0.37007 0.0
H3763 H 0.29002 0.23095 0.36915 0.0
H3764 H 0.27358 0.23419 0.34193 0.0
H3765 H 0.30954 0.32217 0.41781 0.0
H3766 H 0.33116 0.33865 0.40511 0.0
H3767 H 0.33398 0.31203 0.41877 0.0
C3768 C 0.34267 0.66324 0.50672 0.0
C3769 C 0.34507 0.68797 0.5125 0.0
C3770 C 0.36031 0.6534 0.5029 0.0
C3771 C 0.38096 0.66859 0.50493 0.0
C3772 C 0.38323 0.69369 0.50945 0.0
C3773 C 0.36533 0.70305 0.51323 0.0
C3774 C 0.35701 0.62661 0.49765 0.0
C3775 C 0.40476 0.71063 0.51098 0.0
C3776 C 0.42889 0.64316 0.52858 0.0
C3777 C 0.43703 0.63744 0.50813 0.0
C3778 C 0.41081 0.65327 0.5276 0.0
C3779 C 0.40048 0.65812 0.50563 0.0
C3780 C 0.40876 0.65271 0.48485 0.0
C3781 C 0.42676 0.64216 0.48631 0.0
C3782 C 0.40259 0.65853 0.55021 0.0
C3783 C 0.39851 0.65778 0.46105 0.0
H3784 H 0.32703 0.65145 0.50563 0.0
H3785 H 0.3673 0.72222 0.51713 0.0
H3786 H 0.36416 0.62215 0.48199 0.0
H3787 H 0.36531 0.6194 0.51282 0.0
H3788 H 0.33975 0.61748 0.49434 0.0
H3789 H 0.40371 0.7297 0.51346 0.0
H3790 H 0.41623 0.70718 0.52596 0.0
H3791 H 0.41145 0.70751 0.49465 0.0
H3792 H 0.43644 0.6392 0.54546 0.0
H3793 H 0.43295 0.63783 0.47041 0.0
H3794 H 0.38577 0.64836 0.54884 0.0
H3795 H 0.40257 0.67785 0.55311 0.0
H3796 H 0.41242 0.65374 0.56586 0.0
H3797 H 0.38309 0.64459 0.45509 0.0
H3798 H 0.40892 0.65655 0.4475 0.0
H3799 H 0.3949 0.67586 0.46216 0.0
C3800 C 0.90803 0.98466 0.56354 0.0
C3801 C 0.89362 0.97114 0.54417 0.0
C3802 C 0.92889 0.99697 0.56108 0.0
C3803 C 0.93534 0.9968 0.53852 0.0
C3804 C 0.92065 0.98335 0.51889 0.0
C3805 C 0.90032 0.97037 0.52204 0.0
C3806 C 0.94416 0.01006 0.58273 0.0
C3807 C 0.92628 0.98281 0.49439 0.0
C3808 C 0.97935 0.0501 0.52944 0.0
C3809 C 0.99765 0.04037 0.53023 0.0
C3810 C 0.95915 0.03609 0.53168 0.0
C3811 C 0.95691 0.01159 0.53527 0.0
C3812 C 0.9753 1.00151 0.53577 0.0
C3813 C 0.99532 0.01591 0.53314 0.0
C3814 C 0.9401 0.04764 0.53024 0.0
C3815 C 0.97404 0.97568 0.53986 0.0
H3816 H 0.9032 0.9851 0.58076 0.0
H3817 H 0.88937 0.95997 0.50693 0.0
H3818 H 0.95956 1.00415 0.58409 0.0
H3819 H 0.94779 0.02956 0.58126 0.0
H3820 H 0.93751 0.00699 0.59921 0.0
H3821 H 0.91247 0.97342 0.48069 0.0
H3822 H 0.93182 1.00131 0.49005 0.0
H3823 H 0.93966 0.97355 0.4936 0.0
H3824 H 0.98083 0.06889 0.52714 0.0
H3825 H 1.0093 0.00813 0.53398 0.0
H3826 H 0.93388 0.0472 0.54717 0.0
H3827 H 0.92697 0.03743 0.51622 0.0
H3828 H 0.94417 0.06654 0.52641 0.0
H3829 H 0.97108 0.97326 0.55809 0.0
H3830 H 0.98904 0.96984 0.53754 0.0
H3831 H 0.96042 0.96379 0.52762 0.0
C3832 C 0.89075 0.12282 0.20809 0.0
C3833 C 0.89457 0.10369 0.22024 0.0
C3834 C 0.88596 0.14276 0.21996 0.0
C3835 C 0.88559 0.14355 0.24455 0.0
C3836 C 0.89057 0.12465 0.25704 0.0
C3837 C 0.89479 0.10473 0.2446 0.0
C3838 C 0.88064 0.16258 0.20609 0.0
C3839 C 0.89084 0.12511 0.28333 0.0
C3840 C 0.88176 0.20355 0.27399 0.0
C3841 C 0.85957 0.19975 0.27358 0.0
C3842 C 0.89082 0.18492 0.26578 0.0
C3843 C 0.87718 0.16252 0.25633 0.0
C3844 C 0.85488 0.15854 0.25658 0.0
C3845 C 0.8464 0.17717 0.26536 0.0
C3846 C 0.9148 0.18932 0.26672 0.0
C3847 C 0.83978 0.13496 0.24649 0.0
H3848 H 0.89131 0.12203 0.18933 0.0
H3849 H 0.89851 0.09003 0.25395 0.0
H3850 H 0.86394 0.16415 0.20705 0.0
H3851 H 0.89141 0.17995 0.21386 0.0
H3852 H 0.88219 0.15945 0.18722 0.0
H3853 H 0.89934 0.11181 0.291 0.0
H3854 H 0.89868 0.14316 0.29258 0.0
H3855 H 0.87412 0.12087 0.28681 0.0
H3856 H 0.89189 0.22105 0.2805 0.0
H3857 H 0.8292 0.17439 0.26478 0.0
H3858 H 0.91853 0.18961 0.24856 0.0
H3859 H 0.92113 0.17459 0.27449 0.0
H3860 H 0.92333 0.20658 0.27724 0.0
H3861 H 0.84025 0.13151 0.22737 0.0
H3862 H 0.82293 0.13466 0.24867 0.0
H3863 H 0.8449 0.12006 0.25519 0.0
C3864 C 0.71214 0.18921 0.01141 0.0
C3865 C 0.72934 0.17769 0.0154 0.0
C3866 C 0.69066 0.17633 0.00821 0.0
C3867 C 0.6861 0.15125 0.00911 0.0
C3868 C 0.70333 0.13935 0.0118 0.0
C3869 C 0.72471 0.15267 0.015 0.0
C3870 C 0.67286 0.18973 1.0047 0.0
C3871 C 0.69914 0.11253 0.01191 0.0
C3872 C 0.63623 0.12365 0.03384 0.0
C3873 C 0.62144 0.11319 0.01346 0.0
C3874 C 0.65708 0.13613 0.03247 0.0
C3875 C 0.66369 0.13797 0.01019 0.0
C3876 C 0.64892 0.12722 0.98948 0.0
C3877 C 0.62793 0.11522 0.99135 0.0
C3878 C 0.67204 0.14763 0.05499 0.0
C3879 C 0.65495 0.12874 0.96525 0.0
H3880 H 0.71546 0.20847 0.01116 0.0
H3881 H 0.73781 0.1435 0.01751 0.0
H3882 H 0.66056 0.18093 0.98927 0.0
H3883 H 0.66483 0.18937 0.02044 0.0
H3884 H 0.67886 0.2087 1.00192 0.0
H3885 H 0.71401 0.10565 0.01211 0.0
H3886 H 0.69206 0.1075 0.0277 0.0
H3887 H 0.68732 0.10359 0.99612 0.0
H3888 H 0.63139 0.12257 0.051 0.0
H3889 H 0.61662 0.10742 0.97544 0.0
H3890 H 0.67715 0.1672 0.05428 0.0
H3891 H 0.68671 0.14027 0.05688 0.0
H3892 H 0.66446 0.14472 0.07092 0.0
H3893 H 0.65328 0.1463 0.95941 0.0
H3894 H 0.64431 0.11447 0.95206 0.0
H3895 H 0.67185 0.12736 0.96538 0.0
C3896 C 0.21586 0.44681 0.25132 0.0
C3897 C 0.19454 0.43937 0.25463 0.0
C3898 C 0.23095 0.4334 0.25789 0.0
C3899 C 0.2244 0.41178 0.2675 0.0
C3900 C 0.20281 0.40382 0.27051 0.0
C3901 C 0.18807 0.41798 0.26425 0.0
C3902 C 0.25389 0.44237 0.25446 0.0
C3903 C 0.19537 0.38049 0.28031 0.0
C3904 C 0.25889 0.36782 0.25904 0.0
C3905 C 0.27155 0.37062 0.2814 0.0
C3906 C 0.24301 0.3807 0.2545 0.0
C3907 C 0.24003 0.39687 0.27281 0.0
C3908 C 0.253 0.39996 0.29542 0.0
C3909 C 0.26872 0.38654 0.29955 0.0
C3910 C 0.22938 0.37692 0.23021 0.0
C3911 C 0.25029 0.41743 0.31509 0.0
H3912 H 0.22098 0.46353 0.24412 0.0
H3913 H 0.1716 0.41241 0.26697 0.0
H3914 H 0.26506 0.44323 0.27127 0.0
H3915 H 0.25811 0.42974 0.24131 0.0
H3916 H 0.25657 0.46039 0.24822 0.0
H3917 H 0.17781 0.37637 0.28046 0.0
H3918 H 0.19932 0.36552 0.26971 0.0
H3919 H 0.20392 0.38128 0.29864 0.0
H3920 H 0.26114 0.35504 0.24524 0.0
H3921 H 0.27845 0.38812 0.31687 0.0
H3922 H 0.23173 0.39387 0.22196 0.0
H3923 H 0.21213 0.37166 0.23161 0.0
H3924 H 0.23331 0.36289 0.2183 0.0
H3925 H 0.25384 0.43589 0.30999 0.0
H3926 H 0.26102 0.41688 0.33191 0.0
H3927 H 0.23342 0.41349 0.31812 0.0
C3928 C 0.25685 0.45293 0.05118 0.0
C3929 C 0.27394 0.46168 0.03954 0.0
C3930 C 0.23792 0.46177 0.04808 0.0
C3931 C 0.23557 0.47901 0.03213 0.0
C3932 C 0.25238 0.48687 0.01934 0.0
C3933 C 0.27154 0.47856 0.02362 0.0
C3934 C 0.22066 0.45313 0.06238 0.0
C3935 C 0.25021 0.50428 1.00132 0.0
C3936 C 0.17939 0.49112 0.01422 0.0
C3937 C 0.18061 0.5119 0.02931 0.0
C3938 C 0.19714 0.4802 0.01469 0.0
C3939 C 0.21653 0.49044 0.03056 0.0
C3940 C 0.21773 0.51166 0.04552 0.0
C3941 C 0.19978 0.52203 0.04475 0.0
C3942 C 0.1951 0.45775 0.99828 0.0
C3943 C 0.23797 0.52337 0.06259 0.0
H3944 H 0.25857 0.43969 0.06331 0.0
H3945 H 0.28452 0.48493 0.01416 0.0
H3946 H 0.21741 0.46858 0.07293 0.0
H3947 H 0.2055 0.44431 0.05042 0.0
H3948 H 0.22517 0.44025 0.07456 0.0
H3949 H 0.26346 0.50638 0.99085 0.0
H3950 H 0.2347 0.49818 0.98903 0.0
H3951 H 0.25024 0.52207 0.01035 0.0
H3952 H 0.16456 0.48338 1.00217 0.0
H3953 H 0.20073 0.53825 0.05622 0.0
H3954 H 0.196 0.44246 0.00871 0.0
H3955 H 0.20858 0.45982 0.98818 0.0
H3956 H 0.1797 0.45327 0.98563 0.0
H3957 H 0.24201 0.51068 0.07519 0.0
H3958 H 0.23639 0.53997 0.07277 0.0
H3959 H 0.2516 0.52793 0.0529 0.0
C3960 C 0.90029 0.97231 0.23546 0.0
C3961 C 0.88904 0.9784 0.21484 0.0
C3962 C 0.89096 0.95362 0.24723 0.0
C3963 C 0.87021 0.94015 0.23758 0.0
C3964 C 0.85899 0.94568 0.21638 0.0
C3965 C 0.86844 0.96512 0.2054 0.0
C3966 C 0.90318 0.94867 0.27013 0.0
C3967 C 0.83684 0.93131 0.2056 0.0
C3968 C 0.84907 0.87801 0.25247 0.0
C3969 C 0.83426 0.88248 0.2666 0.0
C3970 C 0.86207 0.89695 0.24402 0.0
C3971 C 0.8598 0.92057 0.24983 0.0
C3972 C 0.84584 0.92515 0.26552 0.0
C3973 C 0.83301 0.90585 0.27364 0.0
C3974 C 0.87718 0.89156 0.22776 0.0
C3975 C 0.84374 0.95027 0.27282 0.0
H3976 H 0.91616 0.98284 0.24306 0.0
H3977 H 0.85976 0.96998 0.18959 0.0
H3978 H 0.89287 0.94707 0.28395 0.0
H3979 H 0.9081 0.93141 0.26743 0.0
H3980 H 0.91782 0.96293 0.27679 0.0
H3981 H 0.83077 0.93713 0.18844 0.0
H3982 H 0.83703 0.91202 0.20279 0.0
H3983 H 0.82543 0.93318 0.21788 0.0
H3984 H 0.84977 0.8597 0.24717 0.0
H3985 H 0.82156 0.90894 0.28487 0.0
H3986 H 0.89344 0.90309 0.23373 0.0
H3987 H 0.87138 0.89557 0.20973 0.0
H3988 H 0.87846 0.87253 0.22683 0.0
H3989 H 0.85981 0.96201 0.27951 0.0
H3990 H 0.83359 0.95082 0.28672 0.0
H3991 H 0.83649 0.95782 0.25726 0.0
C3992 C 0.70679 0.07388 0.74829 0.0
C3993 C 0.68724 0.06486 0.75543 0.0
C3994 C 0.7172 0.0979 0.75455 0.0
C3995 C 0.70802 0.11282 0.7688 0.0
C3996 C 0.68822 0.1038 0.77597 0.0
C3997 C 0.67794 0.07985 0.76903 0.0
C3998 C 0.73798 0.10728 0.74592 0.0
C3999 C 0.67816 0.11922 0.79137 0.0
C4000 C 0.74857 0.16785 0.79856 0.0
C4001 C 0.74423 0.18457 0.78323 0.0
C4002 C 0.73575 0.14462 0.79513 0.0
C4003 C 0.71895 0.13811 0.77545 0.0
C4004 C 0.71392 0.15536 0.76067 0.0
C4005 C 0.72653 0.17858 0.76497 0.0
C4006 C 0.74086 0.12674 0.81171 0.0
C4007 C 0.69642 0.14885 0.73921 0.0
H4008 H 0.71389 0.06218 0.73779 0.0
H4009 H 0.66291 0.07271 0.77482 0.0
H4010 H 0.73692 0.12343 0.73684 0.0
H4011 H 0.75131 0.11264 0.76115 0.0
H4012 H 0.74203 0.09375 0.73353 0.0
H4013 H 0.66126 0.11062 0.79219 0.0
H4014 H 0.68755 0.12248 0.80953 0.0
H4015 H 0.67845 0.13692 0.78487 0.0
H4016 H 0.76239 0.17272 0.81261 0.0
H4017 H 0.72353 0.19159 0.75296 0.0
H4018 H 0.74769 0.11319 0.80249 0.0
H4019 H 0.72598 0.11712 0.81727 0.0
H4020 H 0.75258 0.13542 0.8277 0.0
H4021 H 0.70129 0.13698 0.72588 0.0
H4022 H 0.69319 0.16488 0.731 0.0
H4023 H 0.68128 0.13884 0.74388 0.0
loop_
_geom_bond_atom_site_label_1
_geom_bond_atom_site_label_2
_geom_bond_distance
_geom_bond_site_symmetry_2
_ccdc_geom_bond_type
In0 O1 2.294 . S
In0 O2 2.326 . S
In0 O6 2.266 1_455 S
In0 O7 2.326 1_455 S
In0 O8 2.266 . S
In0 O9 2.326 . S
In0 O11 2.294 . S
In0 O12 2.326 . S
O1 In0 2.294 . S
O1 C10 1.240 . S
O2 In0 2.326 . S
O2 C10 1.252 . S
C3 O6 1.252 . S
C3 O7 1.260 . S
C4 O11 1.240 . S
C4 O12 1.252 . S
C5 O8 1.252 . S
C5 O9 1.260 . S
O6 In0 2.266 1_655 S
O6 C3 1.252 . S
O7 In0 2.326 1_655 S
O7 C3 1.260 . S
O8 In0 2.266 . S
O8 C5 1.252 . S
O9 In0 2.326 . S
O9 C5 1.260 . S
C10 O1 1.240 . S
C10 O2 1.252 . S
O11 In0 2.294 . S
O11 C4 1.240 . S
O12 In0 2.326 . S
O12 C4 1.252 . S
In13 O14 2.294 . S
In13 O15 2.326 . S
In13 O19 2.266 . S
In13 O20 2.326 . S
In13 O21 2.266 . S
In13 O22 2.326 . S
In13 O24 2.294 . S
In13 O25 2.326 . S
O14 In13 2.294 . S
O14 C23 1.240 . S
O15 In13 2.326 . S
O15 C23 1.252 . S
C16 O19 1.252 . S
C16 O20 1.260 . S
C17 O24 1.240 . S
C17 O25 1.252 . S
C18 O21 1.252 . S
C18 O22 1.260 . S
O19 In13 2.266 . S
O19 C16 1.252 . S
O20 In13 2.326 . S
O20 C16 1.260 . S
O21 In13 2.266 . S
O21 C18 1.252 . S
O22 In13 2.326 . S
O22 C18 1.260 . S
C23 O14 1.240 . S
C23 O15 1.252 . S
O24 In13 2.294 . S
O24 C17 1.240 . S
O25 In13 2.326 . S
O25 C17 1.252 . S
In26 O27 2.294 . S
In26 O28 2.326 . S
In26 O32 2.266 . S
In26 O33 2.326 . S
In26 O34 2.266 . S
In26 O35 2.326 . S
In26 O37 2.294 . S
In26 O38 2.326 . S
O27 In26 2.294 . S
O27 C36 1.240 . S
O28 In26 2.326 . S
O28 C36 1.252 . S
C29 O32 1.252 . S
C29 O33 1.260 . S
C30 O37 1.240 . S
C30 O38 1.252 . S
C31 O34 1.252 . S
C31 O35 1.260 . S
O32 In26 2.266 . S
O32 C29 1.252 . S
O33 In26 2.326 . S
O33 C29 1.260 . S
O34 In26 2.266 . S
O34 C31 1.252 . S
O35 In26 2.326 . S
O35 C31 1.260 . S
C36 O27 1.240 . S
C36 O28 1.252 . S
O37 In26 2.294 . S
O37 C30 1.240 . S
O38 In26 2.326 . S
O38 C30 1.252 . S
In39 O40 2.294 . S
In39 O41 2.326 . S
In39 O45 2.266 . S
In39 O46 2.326 . S
In39 O47 2.266 . S
In39 O48 2.326 . S
In39 O50 2.294 . S
In39 O51 2.326 . S
O40 In39 2.294 . S
O40 C49 1.240 . S
O41 In39 2.326 . S
O41 C49 1.252 . S
C42 O45 1.252 . S
C42 O46 1.260 . S
C43 O50 1.240 . S
C43 O51 1.252 . S
C44 O47 1.252 . S
C44 O48 1.260 . S
O45 In39 2.266 . S
O45 C42 1.252 . S
O46 In39 2.326 . S
O46 C42 1.260 . S
O47 In39 2.266 . S
O47 C44 1.252 . S
O48 In39 2.326 . S
O48 C44 1.260 . S
C49 O40 1.240 . S
C49 O41 1.252 . S
O50 In39 2.294 . S
O50 C43 1.240 . S
O51 In39 2.326 . S
O51 C43 1.252 . S
In52 O53 2.294 . S
In52 O54 2.326 . S
In52 O58 2.266 . S
In52 O59 2.326 . S
In52 O60 2.266 . S
In52 O61 2.326 . S
In52 O63 2.294 . S
In52 O64 2.326 . S
O53 In52 2.294 . S
O53 C62 1.240 . S
O54 In52 2.326 . S
O54 C62 1.252 . S
C55 O58 1.252 . S
C55 O59 1.260 . S
C56 O63 1.240 . S
C56 O64 1.252 . S
C57 O60 1.252 . S
C57 O61 1.260 . S
O58 In52 2.266 . S
O58 C55 1.252 . S
O59 In52 2.326 . S
O59 C55 1.260 . S
O60 In52 2.266 . S
O60 C57 1.252 . S
O61 In52 2.326 . S
O61 C57 1.260 . S
C62 O53 1.240 . S
C62 O54 1.252 . S
O63 In52 2.294 . S
O63 C56 1.240 . S
O64 In52 2.326 . S
O64 C56 1.252 . S
In65 O66 2.294 . S
In65 O67 2.326 . S
In65 O71 2.266 . S
In65 O72 2.326 . S
In65 O73 2.266 . S
In65 O74 2.326 . S
In65 O76 2.294 . S
In65 O77 2.326 . S
O66 In65 2.294 . S
O66 C75 1.240 . S
O67 In65 2.326 . S
O67 C75 1.252 . S
C68 O71 1.252 . S
C68 O72 1.260 . S
C69 O76 1.240 . S
C69 O77 1.252 . S
C70 O73 1.252 . S
C70 O74 1.260 . S
O71 In65 2.266 . S
O71 C68 1.252 . S
O72 In65 2.326 . S
O72 C68 1.260 . S
O73 In65 2.266 . S
O73 C70 1.252 . S
O74 In65 2.326 . S
O74 C70 1.260 . S
C75 O66 1.240 . S
C75 O67 1.252 . S
O76 In65 2.294 . S
O76 C69 1.240 . S
O77 In65 2.326 . S
O77 C69 1.252 . S
In78 O79 2.294 . S
In78 O80 2.326 . S
In78 O84 2.266 . S
In78 O85 2.326 . S
In78 O86 2.266 . S
In78 O87 2.326 . S
In78 O89 2.294 . S
In78 O90 2.326 . S
O79 In78 2.294 . S
O79 C88 1.240 . S
O80 In78 2.326 . S
O80 C88 1.252 . S
C81 O84 1.252 . S
C81 O85 1.260 . S
C82 O89 1.240 . S
C82 O90 1.252 . S
C83 O86 1.252 . S
C83 O87 1.260 . S
O84 In78 2.266 . S
O84 C81 1.252 . S
O85 In78 2.326 . S
O85 C81 1.260 . S
O86 In78 2.266 . S
O86 C83 1.252 . S
O87 In78 2.326 . S
O87 C83 1.260 . S
C88 O79 1.240 . S
C88 O80 1.252 . S
O89 In78 2.294 . S
O89 C82 1.240 . S
O90 In78 2.326 . S
O90 C82 1.252 . S
In91 O92 2.294 . S
In91 O93 2.326 . S
In91 O97 2.266 . S
In91 O98 2.326 . S
In91 O99 2.258 1_455 S
In91 O100 2.326 1_455 S
In91 O102 2.294 . S
In91 O103 2.326 . S
O92 In91 2.294 . S
O92 C101 1.240 . S
O93 In91 2.326 . S
O93 C101 1.252 . S
C94 O97 1.252 . S
C94 O98 1.260 . S
C95 O102 1.240 . S
C95 O103 1.252 . S
C96 O99 1.263 . S
C96 O100 1.260 . S
O97 In91 2.266 . S
O97 C94 1.252 . S
O98 In91 2.326 . S
O98 C94 1.260 . S
O99 In91 2.258 1_655 S
O99 C96 1.263 . S
O100 In91 2.326 1_655 S
O100 C96 1.260 . S
C101 O92 1.240 . S
C101 O93 1.252 . S
O102 In91 2.294 . S
O102 C95 1.240 . S
O103 In91 2.326 . S
O103 C95 1.252 . S
In104 O105 2.294 . S
In104 O106 2.326 . S
In104 O110 2.266 . S
In104 O111 2.326 . S
In104 O112 2.266 . S
In104 O113 2.326 . S
In104 O115 2.294 . S
In104 O116 2.326 . S
O105 In104 2.294 . S
O105 C114 1.240 . S
O106 In104 2.326 . S
O106 C114 1.252 . S
C107 O110 1.252 . S
C107 O111 1.260 . S
C108 O115 1.240 . S
C108 O116 1.252 . S
C109 O112 1.252 . S
C109 O113 1.260 . S
O110 In104 2.266 . S
O110 C107 1.252 . S
O111 In104 2.326 . S
O111 C107 1.260 . S
O112 In104 2.266 . S
O112 C109 1.252 . S
O113 In104 2.326 . S
O113 C109 1.260 . S
C114 O105 1.240 . S
C114 O106 1.252 . S
O115 In104 2.294 . S
O115 C108 1.240 . S
O116 In104 2.326 . S
O116 C108 1.252 . S
In117 O118 2.294 . S
In117 O119 2.326 . S
In117 O123 2.266 . S
In117 O124 2.326 . S
In117 O125 2.266 . S
In117 O126 2.326 . S
In117 O128 2.294 . S
In117 O129 2.326 . S
O118 In117 2.294 . S
O118 C127 1.240 . S
O119 In117 2.326 . S
O119 C127 1.252 . S
C120 O123 1.252 . S
C120 O124 1.260 . S
C121 O128 1.240 . S
C121 O129 1.252 . S
C122 O125 1.252 . S
C122 O126 1.260 . S
O123 In117 2.266 . S
O123 C120 1.252 . S
O124 In117 2.326 . S
O124 C120 1.260 . S
O125 In117 2.266 . S
O125 C122 1.252 . S
O126 In117 2.326 . S
O126 C122 1.260 . S
C127 O118 1.240 . S
C127 O119 1.252 . S
O128 In117 2.294 . S
O128 C121 1.240 . S
O129 In117 2.326 . S
O129 C121 1.252 . S
In130 O131 2.294 . S
In130 O132 2.326 . S
In130 O136 2.266 . S
In130 O137 2.326 . S
In130 O138 2.266 . S
In130 O139 2.326 . S
In130 O141 2.294 . S
In130 O142 2.326 . S
O131 In130 2.294 . S
O131 C140 1.240 . S
O132 In130 2.326 . S
O132 C140 1.252 . S
C133 O136 1.252 . S
C133 O137 1.260 . S
C134 O141 1.240 . S
C134 O142 1.252 . S
C135 O138 1.252 . S
C135 O139 1.260 . S
O136 In130 2.266 . S
O136 C133 1.252 . S
O137 In130 2.326 . S
O137 C133 1.260 . S
O138 In130 2.266 . S
O138 C135 1.252 . S
O139 In130 2.326 . S
O139 C135 1.260 . S
C140 O131 1.240 . S
C140 O132 1.252 . S
O141 In130 2.294 . S
O141 C134 1.240 . S
O142 In130 2.326 . S
O142 C134 1.252 . S
In143 O144 2.294 . S
In143 O145 2.326 . S
In143 O149 2.266 . S
In143 O150 2.326 . S
In143 O151 2.266 . S
In143 O152 2.326 . S
In143 O154 2.294 . S
In143 O155 2.326 . S
O144 In143 2.294 . S
O144 C153 1.240 . S
O145 In143 2.326 . S
O145 C153 1.252 . S
C146 O149 1.252 . S
C146 O150 1.260 . S
C147 O154 1.240 . S
C147 O155 1.252 . S
C148 O151 1.252 . S
C148 O152 1.260 . S
O149 In143 2.266 . S
O149 C146 1.252 . S
O150 In143 2.326 . S
O150 C146 1.260 . S
O151 In143 2.266 . S
O151 C148 1.252 . S
O152 In143 2.326 . S
O152 C148 1.260 . S
C153 O144 1.240 . S
C153 O145 1.252 . S
O154 In143 2.294 . S
O154 C147 1.240 . S
O155 In143 2.326 . S
O155 C147 1.252 . S
In156 O157 2.294 . S
In156 O158 2.326 . S
In156 O162 2.266 . S
In156 O163 2.326 1_554 S
In156 O164 2.266 . S
In156 O165 2.326 . S
In156 O167 2.294 . S
In156 O168 2.326 . S
O157 In156 2.294 . S
O157 C166 1.240 . S
O158 In156 2.326 . S
O158 C166 1.252 . S
C159 O162 1.252 1_556 S
C159 O163 1.260 . S
C160 O167 1.240 . S
C160 O168 1.252 . S
C161 O164 1.252 . S
C161 O165 1.260 . S
O162 In156 2.266 . S
O162 C159 1.252 1_554 S
O163 In156 2.326 1_556 S
O163 C159 1.260 . S
O164 In156 2.266 . S
O164 C161 1.252 . S
O165 In156 2.326 . S
O165 C161 1.260 . S
C166 O157 1.240 . S
C166 O158 1.252 . S
O167 In156 2.294 . S
O167 C160 1.240 . S
O168 In156 2.326 . S
O168 C160 1.252 . S
In169 O170 2.294 . S
In169 O171 2.326 . S
In169 O175 2.266 1_554 S
In169 O176 2.326 1_554 S
In169 O177 2.264 1_554 S
In169 O178 2.322 1_554 S
In169 O180 2.296 . S
In169 O181 2.330 . S
O170 In169 2.294 . S
O170 C179 1.240 . S
O171 In169 2.326 . S
O171 C179 1.252 . S
C172 O175 1.252 . S
C172 O176 1.260 . S
C173 O180 1.240 . S
C173 O181 1.252 . S
C174 O177 1.252 . S
C174 O178 1.260 . S
O175 In169 2.266 1_556 S
O175 C172 1.252 . S
O176 In169 2.326 1_556 S
O176 C172 1.260 . S
O177 In169 2.264 1_556 S
O177 C174 1.252 . S
O178 In169 2.322 1_556 S
O178 C174 1.260 . S
C179 O170 1.240 . S
C179 O171 1.252 . S
O180 In169 2.296 . S
O180 C173 1.240 . S
O181 In169 2.330 . S
O181 C173 1.252 . S
In182 O183 2.294 . S
In182 O184 2.326 . S
In182 O188 2.266 . S
In182 O189 2.326 . S
In182 O190 2.266 . S
In182 O191 2.326 . S
In182 O193 2.294 . S
In182 O194 2.326 . S
O183 In182 2.294 . S
O183 C192 1.240 . S
O184 In182 2.326 . S
O184 C192 1.252 . S
C185 O188 1.252 . S
C185 O189 1.260 . S
C186 O193 1.240 . S
C186 O194 1.252 . S
C187 O190 1.252 . S
C187 O191 1.260 . S
O188 In182 2.266 . S
O188 C185 1.252 . S
O189 In182 2.326 . S
O189 C185 1.260 . S
O190 In182 2.266 . S
O190 C187 1.252 . S
O191 In182 2.326 . S
O191 C187 1.260 . S
C192 O183 1.240 . S
C192 O184 1.252 . S
O193 In182 2.294 . S
O193 C186 1.240 . S
O194 In182 2.326 . S
O194 C186 1.252 . S
In195 O196 2.294 . S
In195 O197 2.326 . S
In195 O201 2.266 . S
In195 O202 2.326 . S
In195 O203 2.266 . S
In195 O204 2.326 . S
In195 O206 2.294 . S
In195 O207 2.326 . S
O196 In195 2.294 . S
O196 C205 1.240 . S
O197 In195 2.326 . S
O197 C205 1.252 . S
C198 O201 1.252 . S
C198 O202 1.260 . S
C199 O206 1.240 . S
C199 O207 1.252 . S
C200 O203 1.252 . S
C200 O204 1.260 . S
O201 In195 2.266 . S
O201 C198 1.252 . S
O202 In195 2.326 . S
O202 C198 1.260 . S
O203 In195 2.266 . S
O203 C200 1.252 . S
O204 In195 2.326 . S
O204 C200 1.260 . S
C205 O196 1.240 . S
C205 O197 1.252 . S
O206 In195 2.294 . S
O206 C199 1.240 . S
O207 In195 2.326 . S
O207 C199 1.252 . S
In208 O209 2.294 . S
In208 O210 2.326 . S
In208 O214 2.266 . S
In208 O215 2.326 . S
In208 O216 2.266 . S
In208 O217 2.326 . S
In208 O219 2.294 . S
In208 O220 2.326 . S
O209 In208 2.294 . S
O209 C218 1.240 . S
O210 In208 2.326 . S
O210 C218 1.252 . S
C211 O214 1.252 . S
C211 O215 1.260 . S
C212 O219 1.240 . S
C212 O220 1.252 . S
C213 O216 1.252 1_565 S
C213 O217 1.260 1_565 S
O214 In208 2.266 . S
O214 C211 1.252 . S
O215 In208 2.326 . S
O215 C211 1.260 . S
O216 In208 2.266 . S
O216 C213 1.252 1_545 S
O217 In208 2.326 . S
O217 C213 1.260 1_545 S
C218 O209 1.240 . S
C218 O210 1.252 . S
O219 In208 2.294 . S
O219 C212 1.240 . S
O220 In208 2.326 . S
O220 C212 1.252 . S
In221 O222 2.294 . S
In221 O223 2.326 . S
In221 O227 2.266 . S
In221 O228 2.326 . S
In221 O229 2.266 . S
In221 O230 2.326 . S
In221 O232 2.294 . S
In221 O233 2.326 . S
O222 In221 2.294 . S
O222 C231 1.240 . S
O223 In221 2.326 . S
O223 C231 1.252 . S
C224 O227 1.252 . S
C224 O228 1.260 . S
C225 O232 1.240 . S
C225 O233 1.252 . S
C226 O229 1.252 . S
C226 O230 1.260 . S
O227 In221 2.266 . S
O227 C224 1.252 . S
O228 In221 2.326 . S
O228 C224 1.260 . S
O229 In221 2.266 . S
O229 C226 1.252 . S
O230 In221 2.326 . S
O230 C226 1.260 . S
C231 O222 1.240 . S
C231 O223 1.252 . S
O232 In221 2.294 . S
O232 C225 1.240 . S
O233 In221 2.326 . S
O233 C225 1.252 . S
In234 O235 2.294 . S
In234 O236 2.326 . S
In234 O240 2.266 . S
In234 O241 2.326 . S
In234 O242 2.266 . S
In234 O243 2.326 . S
In234 O245 2.294 . S
In234 O246 2.326 . S
O235 In234 2.294 . S
O235 C244 1.240 . S
O236 In234 2.326 . S
O236 C244 1.252 . S
C237 O240 1.252 . S
C237 O241 1.260 . S
C238 O245 1.240 . S
C238 O246 1.252 . S
C239 O242 1.252 . S
C239 O243 1.260 . S
O240 In234 2.266 . S
O240 C237 1.252 . S
O241 In234 2.326 . S
O241 C237 1.260 . S
O242 In234 2.266 . S
O242 C239 1.252 . S
O243 In234 2.326 . S
O243 C239 1.260 . S
C244 O235 1.240 . S
C244 O236 1.252 . S
O245 In234 2.294 . S
O245 C238 1.240 . S
O246 In234 2.326 . S
O246 C238 1.252 . S
In247 O248 2.296 1_545 S
In247 O249 2.329 1_545 S
In247 O253 2.265 . S
In247 O254 2.323 . S
In247 O255 2.266 . S
In247 O256 2.326 . S
In247 O258 2.294 1_545 S
In247 O259 2.326 1_545 S
O248 In247 2.296 1_565 S
O248 C257 1.240 . S
O249 In247 2.329 1_565 S
O249 C257 1.252 . S
C250 O253 1.252 . S
C250 O254 1.260 . S
C251 O258 1.240 . S
C251 O259 1.252 . S
C252 O255 1.252 . S
C252 O256 1.260 . S
O253 In247 2.265 . S
O253 C250 1.252 . S
O254 In247 2.323 . S
O254 C250 1.260 . S
O255 In247 2.266 . S
O255 C252 1.252 . S
O256 In247 2.326 . S
O256 C252 1.260 . S
C257 O248 1.240 . S
C257 O249 1.252 . S
O258 In247 2.294 1_565 S
O258 C251 1.240 . S
O259 In247 2.326 1_565 S
O259 C251 1.252 . S
In260 O261 2.294 . S
In260 O262 2.326 . S
In260 O266 2.266 . S
In260 O267 2.326 . S
In260 O268 2.266 1_554 S
In260 O269 2.326 1_554 S
In260 O271 2.294 . S
In260 O272 2.326 . S
O261 In260 2.294 . S
O261 C270 1.240 . S
O262 In260 2.326 . S
O262 C270 1.252 . S
C263 O266 1.252 . S
C263 O267 1.260 . S
C264 O271 1.240 . S
C264 O272 1.252 . S
C265 O268 1.252 . S
C265 O269 1.260 . S
O266 In260 2.266 . S
O266 C263 1.252 . S
O267 In260 2.326 . S
O267 C263 1.260 . S
O268 In260 2.266 1_556 S
O268 C265 1.252 . S
O269 In260 2.326 1_556 S
O269 C265 1.260 . S
C270 O261 1.240 . S
C270 O262 1.252 . S
O271 In260 2.294 . S
O271 C264 1.240 . S
O272 In260 2.326 . S
O272 C264 1.252 . S
In273 O274 2.294 . S
In273 O275 2.326 . S
In273 O279 2.266 . S
In273 O280 2.326 . S
In273 O281 2.266 . S
In273 O282 2.326 . S
In273 O284 2.294 . S
In273 O285 2.326 . S
O274 In273 2.294 . S
O274 C283 1.240 . S
O275 In273 2.326 . S
O275 C283 1.252 . S
C276 O279 1.252 . S
C276 O280 1.260 . S
C277 O284 1.240 . S
C277 O285 1.252 . S
C278 O281 1.252 . S
C278 O282 1.260 . S
O279 In273 2.266 . S
O279 C276 1.252 . S
O280 In273 2.326 . S
O280 C276 1.260 . S
O281 In273 2.266 . S
O281 C278 1.252 . S
O282 In273 2.326 . S
O282 C278 1.260 . S
C283 O274 1.240 . S
C283 O275 1.252 . S
O284 In273 2.294 . S
O284 C277 1.240 . S
O285 In273 2.326 . S
O285 C277 1.252 . S
In286 O287 2.294 . S
In286 O288 2.326 . S
In286 O292 2.266 . S
In286 O293 2.326 . S
In286 O294 2.266 . S
In286 O295 2.326 . S
In286 O297 2.294 . S
In286 O298 2.326 . S
O287 In286 2.294 . S
O287 C296 1.240 . S
O288 In286 2.326 . S
O288 C296 1.252 . S
C289 O292 1.252 . S
C289 O293 1.260 . S
C290 O297 1.240 . S
C290 O298 1.252 . S
C291 O294 1.252 . S
C291 O295 1.260 . S
O292 In286 2.266 . S
O292 C289 1.252 . S
O293 In286 2.326 . S
O293 C289 1.260 . S
O294 In286 2.266 . S
O294 C291 1.252 . S
O295 In286 2.326 . S
O295 C291 1.260 . S
C296 O287 1.240 . S
C296 O288 1.252 . S
O297 In286 2.294 . S
O297 C290 1.240 . S
O298 In286 2.326 . S
O298 C290 1.252 . S
In299 O300 2.294 . S
In299 O301 2.326 . S
In299 O305 2.266 . S
In299 O306 2.326 . S
In299 O307 2.266 . S
In299 O308 2.326 . S
In299 O310 2.294 . S
In299 O311 2.326 . S
O300 In299 2.294 . S
O300 C309 1.240 . S
O301 In299 2.326 . S
O301 C309 1.252 . S
C302 O305 1.252 . S
C302 O306 1.260 . S
C303 O310 1.240 . S
C303 O311 1.252 . S
C304 O307 1.252 . S
C304 O308 1.260 . S
O305 In299 2.266 . S
O305 C302 1.252 . S
O306 In299 2.326 . S
O306 C302 1.260 . S
O307 In299 2.266 . S
O307 C304 1.252 . S
O308 In299 2.326 . S
O308 C304 1.260 . S
C309 O300 1.240 . S
C309 O301 1.252 . S
O310 In299 2.294 . S
O310 C303 1.240 . S
O311 In299 2.326 . S
O311 C303 1.252 . S
Pr312 C314 2.880 1_455 S
Pr312 O332 2.562 . S
Pr312 O333 2.490 1_554 S
Pr312 O334 2.695 . S
Pr312 O335 2.512 1_554 S
Pr312 O337 2.437 . S
Pr312 O340 2.436 . S
Pr312 O342 2.438 . S
Pr313 C323 2.880 . S
Pr313 O334 2.436 . S
Pr313 O336 2.438 . S
Pr313 O338 2.562 . S
Pr313 O339 2.490 . S
Pr313 O340 2.695 . S
Pr313 O341 2.512 . S
Pr313 O343 2.437 . S
C314 Pr312 2.880 1_655 S
C314 C315 1.491 . S
C314 O332 1.254 1_655 S
C314 O333 1.225 1_654 S
C315 C314 1.491 . S
C315 C316 1.392 1_554 S
C315 C320 1.356 . S
C316 C315 1.392 1_556 S
C316 C317 1.368 . S
C316 H344 0.929 . S
C317 C316 1.368 . S
C317 C318 1.386 . S
C317 H345 0.929 . S
C318 C317 1.386 . S
C318 C319 1.373 1_556 S
C319 C318 1.373 1_554 S
C319 C320 1.409 . S
C319 H346 0.931 . S
C320 C315 1.356 . S
C320 C319 1.409 . S
C320 H347 0.930 . S
C321 O334 1.270 . S
C321 O335 1.248 1_554 S
C322 O336 1.267 . S
C322 O337 1.278 . S
C323 Pr313 2.880 . S
C323 C324 1.491 . S
C323 O338 1.254 . S
C323 O339 1.225 . S
C324 C323 1.491 . S
C324 C325 1.392 . S
C324 C329 1.356 . S
C325 C324 1.392 . S
C325 C326 1.368 . S
C325 H348 0.929 . S
C326 C325 1.368 . S
C326 C327 1.386 . S
C326 H349 0.929 . S
C327 C326 1.386 . S
C327 C328 1.373 . S
C328 C327 1.373 . S
C328 C329 1.409 . S
C328 H350 0.931 . S
C329 C324 1.356 . S
C329 C328 1.409 . S
C329 H351 0.930 . S
C330 O340 1.270 . S
C330 O341 1.248 . S
C331 O342 1.267 . S
C331 O343 1.278 . S
O332 Pr312 2.562 . S
O332 C314 1.254 1_455 S
O333 Pr312 2.490 1_556 S
O333 C314 1.225 1_456 S
O334 Pr312 2.695 . S
O334 Pr313 2.436 . S
O334 C321 1.270 . S
O335 Pr312 2.512 1_556 S
O335 C321 1.248 1_556 S
O336 Pr313 2.438 . S
O336 C322 1.267 . S
O337 Pr312 2.437 . S
O337 C322 1.278 . S
O338 Pr313 2.562 . S
O338 C323 1.254 . S
O339 Pr313 2.490 . S
O339 C323 1.225 . S
O340 Pr312 2.436 . S
O340 Pr313 2.695 . S
O340 C330 1.270 . S
O341 Pr313 2.512 . S
O341 C330 1.248 . S
O342 Pr312 2.438 . S
O342 C331 1.267 . S
O343 Pr313 2.437 . S
O343 C331 1.278 . S
H344 C316 0.929 . S
H345 C317 0.929 . S
H346 C319 0.931 . S
H347 C320 0.930 . S
H348 C325 0.929 . S
H349 C326 0.929 . S
H350 C328 0.931 . S
H351 C329 0.930 . S
Pr352 C354 2.880 . S
Pr352 O372 2.562 . S
Pr352 O373 2.490 . S
Pr352 O374 2.695 . S
Pr352 O375 2.512 . S
Pr352 O377 2.437 . S
Pr352 O380 2.436 . S
Pr352 O382 2.438 . S
Pr353 C363 2.880 . S
Pr353 O374 2.436 . S
Pr353 O376 2.438 . S
Pr353 O378 2.562 . S
Pr353 O379 2.490 . S
Pr353 O380 2.695 . S
Pr353 O381 2.512 . S
Pr353 O383 2.437 . S
C354 Pr352 2.880 . S
C354 C355 1.491 . S
C354 O372 1.254 . S
C354 O373 1.225 . S
C355 C354 1.491 . S
C355 C356 1.392 . S
C355 C360 1.356 . S
C356 C355 1.392 . S
C356 C357 1.368 . S
C356 H384 0.929 . S
C357 C356 1.368 . S
C357 C358 1.386 . S
C357 H385 0.929 . S
C358 C357 1.386 . S
C358 C359 1.373 . S
C359 C358 1.373 . S
C359 C360 1.409 . S
C359 H386 0.931 . S
C360 C355 1.356 . S
C360 C359 1.409 . S
C360 H387 0.930 . S
C361 O374 1.270 . S
C361 O375 1.248 . S
C362 O376 1.267 . S
C362 O377 1.278 . S
C363 Pr353 2.880 . S
C363 C364 1.491 . S
C363 O378 1.254 . S
C363 O379 1.225 . S
C364 C363 1.491 . S
C364 C365 1.392 . S
C364 C369 1.356 . S
C365 C364 1.392 . S
C365 C366 1.368 . S
C365 H388 0.929 . S
C366 C365 1.368 . S
C366 C367 1.386 . S
C366 H389 0.929 . S
C367 C366 1.386 . S
C367 C368 1.373 . S
C368 C367 1.373 . S
C368 C369 1.409 . S
C368 H390 0.931 . S
C369 C364 1.356 . S
C369 C368 1.409 . S
C369 H391 0.930 . S
C370 O380 1.270 . S
C370 O381 1.248 . S
C371 O382 1.267 . S
C371 O383 1.278 . S
O372 Pr352 2.562 . S
O372 C354 1.254 . S
O373 Pr352 2.490 . S
O373 C354 1.225 . S
O374 Pr352 2.695 . S
O374 Pr353 2.436 . S
O374 C361 1.270 . S
O375 Pr352 2.512 . S
O375 C361 1.248 . S
O376 Pr353 2.438 . S
O376 C362 1.267 . S
O377 Pr352 2.437 . S
O377 C362 1.278 . S
O378 Pr353 2.562 . S
O378 C363 1.254 . S
O379 Pr353 2.490 . S
O379 C363 1.225 . S
O380 Pr352 2.436 . S
O380 Pr353 2.695 . S
O380 C370 1.270 . S
O381 Pr353 2.512 . S
O381 C370 1.248 . S
O382 Pr352 2.438 . S
O382 C371 1.267 . S
O383 Pr353 2.437 . S
O383 C371 1.278 . S
H384 C356 0.929 . S
H385 C357 0.929 . S
H386 C359 0.931 . S
H387 C360 0.930 . S
H388 C365 0.929 . S
H389 C366 0.929 . S
H390 C368 0.931 . S
H391 C369 0.930 . S
Pr392 C394 2.880 . S
Pr392 O412 2.562 . S
Pr392 O413 2.490 . S
Pr392 O414 2.695 . S
Pr392 O415 2.512 . S
Pr392 O417 2.437 . S
Pr392 O420 2.436 . S
Pr392 O422 2.438 . S
Pr393 C403 2.880 . S
Pr393 O414 2.436 . S
Pr393 O416 2.438 . S
Pr393 O418 2.562 . S
Pr393 O419 2.490 . S
Pr393 O420 2.695 . S
Pr393 O421 2.512 . S
Pr393 O423 2.437 . S
C394 Pr392 2.880 . S
C394 C395 1.491 . S
C394 O412 1.254 . S
C394 O413 1.225 . S
C395 C394 1.491 . S
C395 C396 1.392 . S
C395 C400 1.356 . S
C396 C395 1.392 . S
C396 C397 1.368 . S
C396 H424 0.929 . S
C397 C396 1.368 . S
C397 C398 1.386 . S
C397 H425 0.929 . S
C398 C397 1.386 . S
C398 C399 1.373 1_545 S
C399 C398 1.373 1_565 S
C399 C400 1.409 1_565 S
C399 H426 0.931 . S
C400 C395 1.356 . S
C400 C399 1.409 1_545 S
C400 H427 0.930 . S
C401 O414 1.270 . S
C401 O415 1.248 . S
C402 O416 1.267 . S
C402 O417 1.278 . S
C403 Pr393 2.880 . S
C403 C404 1.491 . S
C403 O418 1.254 . S
C403 O419 1.225 . S
C404 C403 1.491 . S
C404 C405 1.392 . S
C404 C409 1.356 . S
C405 C404 1.392 . S
C405 C406 1.368 . S
C405 H428 0.929 . S
C406 C405 1.368 . S
C406 C407 1.386 . S
C406 H429 0.929 . S
C407 C406 1.386 . S
C407 C408 1.373 . S
C408 C407 1.373 . S
C408 C409 1.409 . S
C408 H430 0.931 . S
C409 C404 1.356 . S
C409 C408 1.409 . S
C409 H431 0.930 . S
C410 O420 1.270 . S
C410 O421 1.248 . S
C411 O422 1.267 . S
C411 O423 1.278 . S
O412 Pr392 2.562 . S
O412 C394 1.254 . S
O413 Pr392 2.490 . S
O413 C394 1.225 . S
O414 Pr392 2.695 . S
O414 Pr393 2.436 . S
O414 C401 1.270 . S
O415 Pr392 2.512 . S
O415 C401 1.248 . S
O416 Pr393 2.438 . S
O416 C402 1.267 . S
O417 Pr392 2.437 . S
O417 C402 1.278 . S
O418 Pr393 2.562 . S
O418 C403 1.254 . S
O419 Pr393 2.490 . S
O419 C403 1.225 . S
O420 Pr392 2.436 . S
O420 Pr393 2.695 . S
O420 C410 1.270 . S
O421 Pr393 2.512 . S
O421 C410 1.248 . S
O422 Pr392 2.438 . S
O422 C411 1.267 . S
O423 Pr393 2.437 . S
O423 C411 1.278 . S
H424 C396 0.929 . S
H425 C397 0.929 . S
H426 C399 0.931 . S
H427 C400 0.930 . S
H428 C405 0.929 . S
H429 C406 0.929 . S
H430 C408 0.931 . S
H431 C409 0.930 . S
Pr432 C434 2.880 . S
Pr432 O452 2.562 . S
Pr432 O453 2.490 . S
Pr432 O454 2.695 . S
Pr432 O455 2.512 . S
Pr432 O457 2.437 . S
Pr432 O460 2.436 . S
Pr432 O462 2.438 . S
Pr433 C443 2.880 . S
Pr433 O454 2.436 . S
Pr433 O456 2.438 . S
Pr433 O458 2.562 . S
Pr433 O459 2.490 . S
Pr433 O460 2.695 . S
Pr433 O461 2.512 . S
Pr433 O463 2.437 . S
C434 Pr432 2.880 . S
C434 C435 1.491 . S
C434 O452 1.254 . S
C434 O453 1.225 . S
C435 C434 1.491 . S
C435 C436 1.392 . S
C435 C440 1.356 . S
C436 C435 1.392 . S
C436 C437 1.368 . S
C436 H464 0.929 . S
C437 C436 1.368 . S
C437 C438 1.386 . S
C437 H465 0.929 . S
C438 C437 1.386 . S
C438 C439 1.373 . S
C439 C438 1.373 . S
C439 C440 1.409 . S
C439 H466 0.931 . S
C440 C435 1.356 . S
C440 C439 1.409 . S
C440 H467 0.930 . S
C441 O454 1.270 . S
C441 O455 1.248 . S
C442 O456 1.267 . S
C442 O457 1.278 . S
C443 Pr433 2.880 . S
C443 C444 1.491 . S
C443 O458 1.254 . S
C443 O459 1.225 . S
C444 C443 1.491 . S
C444 C445 1.392 . S
C444 C449 1.356 . S
C445 C444 1.392 . S
C445 C446 1.368 . S
C445 H468 0.929 . S
C446 C445 1.368 . S
C446 C447 1.386 . S
C446 H469 0.929 . S
C447 C446 1.386 . S
C447 C448 1.373 . S
C448 C447 1.373 . S
C448 C449 1.409 . S
C448 H470 0.931 . S
C449 C444 1.356 . S
C449 C448 1.409 . S
C449 H471 0.930 . S
C450 O460 1.270 . S
C450 O461 1.248 . S
C451 O462 1.267 . S
C451 O463 1.278 . S
O452 Pr432 2.562 . S
O452 C434 1.254 . S
O453 Pr432 2.490 . S
O453 C434 1.225 . S
O454 Pr432 2.695 . S
O454 Pr433 2.436 . S
O454 C441 1.270 . S
O455 Pr432 2.512 . S
O455 C441 1.248 . S
O456 Pr433 2.438 . S
O456 C442 1.267 . S
O457 Pr432 2.437 . S
O457 C442 1.278 . S
O458 Pr433 2.562 . S
O458 C443 1.254 . S
O459 Pr433 2.490 . S
O459 C443 1.225 . S
O460 Pr432 2.436 . S
O460 Pr433 2.695 . S
O460 C450 1.270 . S
O461 Pr433 2.512 . S
O461 C450 1.248 . S
O462 Pr432 2.438 . S
O462 C451 1.267 . S
O463 Pr433 2.437 . S
O463 C451 1.278 . S
H464 C436 0.929 . S
H465 C437 0.929 . S
H466 C439 0.931 . S
H467 C440 0.930 . S
H468 C445 0.929 . S
H469 C446 0.929 . S
H470 C448 0.931 . S
H471 C449 0.930 . S
Pr472 C474 2.880 . S
Pr472 O492 2.562 . S
Pr472 O493 2.490 . S
Pr472 O494 2.695 . S
Pr472 O495 2.512 . S
Pr472 O497 2.437 . S
Pr472 O500 2.436 . S
Pr472 O502 2.438 . S
Pr473 C483 2.880 . S
Pr473 O494 2.436 . S
Pr473 O496 2.438 . S
Pr473 O498 2.562 . S
Pr473 O499 2.490 . S
Pr473 O500 2.695 . S
Pr473 O501 2.512 . S
Pr473 O503 2.437 . S
C474 Pr472 2.880 . S
C474 C475 1.491 . S
C474 O492 1.254 . S
C474 O493 1.225 . S
C475 C474 1.491 . S
C475 C476 1.392 . S
C475 C480 1.356 . S
C476 C475 1.392 . S
C476 C477 1.368 . S
C476 H504 0.929 . S
C477 C476 1.368 . S
C477 C478 1.386 . S
C477 H505 0.929 . S
C478 C477 1.386 . S
C478 C479 1.373 1_455 S
C479 C478 1.373 1_655 S
C479 C480 1.409 1_655 S
C479 H506 0.931 . S
C480 C475 1.356 . S
C480 C479 1.409 1_455 S
C480 H507 0.930 1_455 S
C481 O494 1.270 . S
C481 O495 1.248 . S
C482 O496 1.267 . S
C482 O497 1.278 . S
C483 Pr473 2.880 . S
C483 C484 1.491 . S
C483 O498 1.254 . S
C483 O499 1.225 . S
C484 C483 1.491 . S
C484 C485 1.392 . S
C484 C489 1.356 . S
C485 C484 1.392 . S
C485 C486 1.368 . S
C485 H508 0.929 . S
C486 C485 1.368 . S
C486 C487 1.386 . S
C486 H509 0.929 . S
C487 C486 1.386 . S
C487 C488 1.373 . S
C488 C487 1.373 . S
C488 C489 1.409 . S
C488 H510 0.931 . S
C489 C484 1.356 . S
C489 C488 1.409 . S
C489 H511 0.930 . S
C490 O500 1.270 . S
C490 O501 1.248 . S
C491 O502 1.267 . S
C491 O503 1.278 . S
O492 Pr472 2.562 . S
O492 C474 1.254 . S
O493 Pr472 2.490 . S
O493 C474 1.225 . S
O494 Pr472 2.695 . S
O494 Pr473 2.436 . S
O494 C481 1.270 . S
O495 Pr472 2.512 . S
O495 C481 1.248 . S
O496 Pr473 2.438 . S
O496 C482 1.267 . S
O497 Pr472 2.437 . S
O497 C482 1.278 . S
O498 Pr473 2.562 . S
O498 C483 1.254 . S
O499 Pr473 2.490 . S
O499 C483 1.225 . S
O500 Pr472 2.436 . S
O500 Pr473 2.695 . S
O500 C490 1.270 . S
O501 Pr473 2.512 . S
O501 C490 1.248 . S
O502 Pr472 2.438 . S
O502 C491 1.267 . S
O503 Pr473 2.437 . S
O503 C491 1.278 . S
H504 C476 0.929 . S
H505 C477 0.929 . S
H506 C479 0.931 . S
H507 C480 0.930 1_655 S
H508 C485 0.929 . S
H509 C486 0.929 . S
H510 C488 0.931 . S
H511 C489 0.930 . S
Pr512 C514 2.880 . S
Pr512 O532 2.562 . S
Pr512 O533 2.490 . S
Pr512 O534 2.695 . S
Pr512 O535 2.512 . S
Pr512 O537 2.437 . S
Pr512 O540 2.436 . S
Pr512 O542 2.438 . S
Pr513 C523 2.880 . S
Pr513 O534 2.436 . S
Pr513 O536 2.438 . S
Pr513 O538 2.562 . S
Pr513 O539 2.490 . S
Pr513 O540 2.695 . S
Pr513 O541 2.512 . S
Pr513 O543 2.437 . S
C514 Pr512 2.880 . S
C514 C515 1.491 . S
C514 O532 1.254 . S
C514 O533 1.225 . S
C515 C514 1.491 . S
C515 C516 1.392 . S
C515 C520 1.356 . S
C516 C515 1.392 . S
C516 C517 1.368 . S
C516 H544 0.929 . S
C517 C516 1.368 . S
C517 C518 1.386 . S
C517 H545 0.929 . S
C518 C517 1.386 . S
C518 C519 1.373 . S
C519 C518 1.373 . S
C519 C520 1.409 . S
C519 H546 0.931 . S
C520 C515 1.356 . S
C520 C519 1.409 . S
C520 H547 0.930 . S
C521 O534 1.270 . S
C521 O535 1.248 . S
C522 O536 1.267 . S
C522 O537 1.278 . S
C523 Pr513 2.880 . S
C523 C524 1.491 . S
C523 O538 1.254 . S
C523 O539 1.225 . S
C524 C523 1.491 . S
C524 C525 1.392 . S
C524 C529 1.356 . S
C525 C524 1.392 . S
C525 C526 1.368 . S
C525 H548 0.929 . S
C526 C525 1.368 . S
C526 C527 1.386 . S
C526 H549 0.929 . S
C527 C526 1.386 . S
C527 C528 1.373 . S
C528 C527 1.373 . S
C528 C529 1.409 . S
C528 H550 0.931 . S
C529 C524 1.356 . S
C529 C528 1.409 . S
C529 H551 0.930 . S
C530 O540 1.270 . S
C530 O541 1.248 . S
C531 O542 1.267 . S
C531 O543 1.278 . S
O532 Pr512 2.562 . S
O532 C514 1.254 . S
O533 Pr512 2.490 . S
O533 C514 1.225 . S
O534 Pr512 2.695 . S
O534 Pr513 2.436 . S
O534 C521 1.270 . S
O535 Pr512 2.512 . S
O535 C521 1.248 . S
O536 Pr513 2.438 . S
O536 C522 1.267 . S
O537 Pr512 2.437 . S
O537 C522 1.278 . S
O538 Pr513 2.562 . S
O538 C523 1.254 . S
O539 Pr513 2.490 . S
O539 C523 1.225 . S
O540 Pr512 2.436 . S
O540 Pr513 2.695 . S
O540 C530 1.270 . S
O541 Pr513 2.512 . S
O541 C530 1.248 . S
O542 Pr512 2.438 . S
O542 C531 1.267 . S
O543 Pr513 2.437 . S
O543 C531 1.278 . S
H544 C516 0.929 . S
H545 C517 0.929 . S
H546 C519 0.931 . S
H547 C520 0.930 . S
H548 C525 0.929 . S
H549 C526 0.929 . S
H550 C528 0.931 . S
H551 C529 0.930 . S
Pr552 C554 2.880 . S
Pr552 O572 2.562 . S
Pr552 O573 2.490 . S
Pr552 O574 2.695 . S
Pr552 O575 2.512 . S
Pr552 O577 2.437 . S
Pr552 O580 2.436 . S
Pr552 O582 2.438 . S
Pr553 C563 2.880 . S
Pr553 O574 2.436 1_556 S
Pr553 O576 2.438 . S
Pr553 O578 2.562 . S
Pr553 O579 2.490 . S
Pr553 O580 2.695 1_556 S
Pr553 O581 2.512 . S
Pr553 O583 2.437 . S
C554 Pr552 2.880 . S
C554 C555 1.491 . S
C554 O572 1.254 . S
C554 O573 1.225 . S
C555 C554 1.491 . S
C555 C556 1.392 . S
C555 C560 1.356 . S
C556 C555 1.392 . S
C556 C557 1.368 . S
C556 H584 0.929 . S
C557 C556 1.368 . S
C557 C558 1.386 . S
C557 H585 0.929 . S
C558 C557 1.386 . S
C558 C559 1.373 . S
C559 C558 1.373 . S
C559 C560 1.409 . S
C559 H586 0.931 . S
C560 C555 1.356 . S
C560 C559 1.409 . S
C560 H587 0.930 . S
C561 O574 1.270 . S
C561 O575 1.248 . S
C562 O576 1.267 1_554 S
C562 O577 1.278 . S
C563 Pr553 2.880 . S
C563 C564 1.491 . S
C563 O578 1.254 . S
C563 O579 1.225 . S
C564 C563 1.491 . S
C564 C565 1.392 . S
C564 C569 1.356 . S
C565 C564 1.392 . S
C565 C566 1.368 . S
C565 H588 0.929 . S
C566 C565 1.368 . S
C566 C567 1.386 . S
C566 H589 0.929 . S
C567 C566 1.386 . S
C567 C568 1.373 . S
C568 C567 1.373 . S
C568 C569 1.409 . S
C568 H590 0.931 . S
C569 C564 1.356 . S
C569 C568 1.409 . S
C569 H591 0.930 . S
C570 O580 1.270 . S
C570 O581 1.248 1_554 S
C571 O582 1.267 . S
C571 O583 1.278 1_554 S
O572 Pr552 2.562 . S
O572 C554 1.254 . S
O573 Pr552 2.490 . S
O573 C554 1.225 . S
O574 Pr552 2.695 . S
O574 Pr553 2.436 1_554 S
O574 C561 1.270 . S
O575 Pr552 2.512 . S
O575 C561 1.248 . S
O576 Pr553 2.438 . S
O576 C562 1.267 1_556 S
O577 Pr552 2.437 . S
O577 C562 1.278 . S
O578 Pr553 2.562 . S
O578 C563 1.254 . S
O579 Pr553 2.490 . S
O579 C563 1.225 . S
O580 Pr552 2.436 . S
O580 Pr553 2.695 1_554 S
O580 C570 1.270 . S
O581 Pr553 2.512 . S
O581 C570 1.248 1_556 S
O582 Pr552 2.438 . S
O582 C571 1.267 . S
O583 Pr553 2.437 . S
O583 C571 1.278 1_556 S
H584 C556 0.929 . S
H585 C557 0.929 . S
H586 C559 0.931 . S
H587 C560 0.930 . S
H588 C565 0.929 . S
H589 C566 0.929 . S
H590 C568 0.931 . S
H591 C569 0.930 . S
Pr592 C594 2.880 . S
Pr592 O612 2.562 . S
Pr592 O613 2.490 . S
Pr592 O614 2.695 . S
Pr592 O615 2.512 . S
Pr592 O617 2.437 . S
Pr592 O620 2.436 . S
Pr592 O622 2.438 . S
Pr593 C603 2.880 . S
Pr593 O614 2.436 . S
Pr593 O616 2.438 . S
Pr593 O618 2.562 . S
Pr593 O619 2.490 . S
Pr593 O620 2.695 . S
Pr593 O621 2.512 . S
Pr593 O623 2.437 . S
C594 Pr592 2.880 . S
C594 C595 1.491 . S
C594 O612 1.254 . S
C594 O613 1.225 . S
C595 C594 1.491 . S
C595 C596 1.392 . S
C595 C600 1.356 . S
C596 C595 1.392 . S
C596 C597 1.368 . S
C596 H624 0.929 . S
C597 C596 1.368 . S
C597 C598 1.386 . S
C597 H625 0.929 . S
C598 C597 1.386 . S
C598 C599 1.373 . S
C599 C598 1.373 . S
C599 C600 1.409 . S
C599 H626 0.931 . S
C600 C595 1.356 . S
C600 C599 1.409 . S
C600 H627 0.930 . S
C601 O614 1.270 . S
C601 O615 1.248 . S
C602 O616 1.267 . S
C602 O617 1.278 . S
C603 Pr593 2.880 . S
C603 C604 1.491 . S
C603 O618 1.254 . S
C603 O619 1.225 . S
C604 C603 1.491 . S
C604 C605 1.392 . S
C604 C609 1.356 . S
C605 C604 1.392 . S
C605 C606 1.368 . S
C605 H628 0.929 . S
C606 C605 1.368 . S
C606 C607 1.386 . S
C606 H629 0.929 . S
C607 C606 1.386 . S
C607 C608 1.373 . S
C608 C607 1.373 . S
C608 C609 1.409 . S
C608 H630 0.931 . S
C609 C604 1.356 . S
C609 C608 1.409 . S
C609 H631 0.930 . S
C610 O620 1.270 . S
C610 O621 1.248 . S
C611 O622 1.267 . S
C611 O623 1.278 . S
O612 Pr592 2.562 . S
O612 C594 1.254 . S
O613 Pr592 2.490 . S
O613 C594 1.225 . S
O614 Pr592 2.695 . S
O614 Pr593 2.436 . S
O614 C601 1.270 . S
O615 Pr592 2.512 . S
O615 C601 1.248 . S
O616 Pr593 2.438 . S
O616 C602 1.267 . S
O617 Pr592 2.437 . S
O617 C602 1.278 . S
O618 Pr593 2.562 . S
O618 C603 1.254 . S
O619 Pr593 2.490 . S
O619 C603 1.225 . S
O620 Pr592 2.436 . S
O620 Pr593 2.695 . S
O620 C610 1.270 . S
O621 Pr593 2.512 . S
O621 C610 1.248 . S
O622 Pr592 2.438 . S
O622 C611 1.267 . S
O623 Pr593 2.437 . S
O623 C611 1.278 . S
H624 C596 0.929 . S
H625 C597 0.929 . S
H626 C599 0.931 . S
H627 C600 0.930 . S
H628 C605 0.929 . S
H629 C606 0.929 . S
H630 C608 0.931 . S
H631 C609 0.930 . S
Pr632 C634 2.880 . S
Pr632 O652 2.562 . S
Pr632 O653 2.490 . S
Pr632 O654 2.695 1_556 S
Pr632 O655 2.512 . S
Pr632 O657 2.437 . S
Pr632 O660 2.436 1_556 S
Pr632 O662 2.438 1_556 S
Pr633 C643 2.880 . S
Pr633 O654 2.436 . S
Pr633 O656 2.438 . S
Pr633 O658 2.562 . S
Pr633 O659 2.490 . S
Pr633 O660 2.695 . S
Pr633 O661 2.512 . S
Pr633 O663 2.437 . S
C634 Pr632 2.880 . S
C634 C635 1.491 . S
C634 O652 1.254 . S
C634 O653 1.225 . S
C635 C634 1.491 . S
C635 C636 1.392 . S
C635 C640 1.356 . S
C636 C635 1.392 . S
C636 C637 1.368 . S
C636 H664 0.929 . S
C637 C636 1.368 . S
C637 C638 1.386 . S
C637 H665 0.929 . S
C638 C637 1.386 . S
C638 C639 1.373 . S
C639 C638 1.373 . S
C639 C640 1.409 . S
C639 H666 0.931 . S
C640 C635 1.356 . S
C640 C639 1.409 . S
C640 H667 0.930 . S
C641 O654 1.270 . S
C641 O655 1.248 1_554 S
C642 O656 1.267 1_556 S
C642 O657 1.278 . S
C643 Pr633 2.880 . S
C643 C644 1.491 . S
C643 O658 1.254 . S
C643 O659 1.225 . S
C644 C643 1.491 . S
C644 C645 1.392 . S
C644 C649 1.356 . S
C645 C644 1.392 . S
C645 C646 1.368 . S
C645 H668 0.929 . S
C646 C645 1.368 . S
C646 C647 1.386 . S
C646 H669 0.929 . S
C647 C646 1.386 . S
C647 C648 1.373 . S
C648 C647 1.373 . S
C648 C649 1.409 . S
C648 H670 0.931 . S
C649 C644 1.356 . S
C649 C648 1.409 . S
C649 H671 0.930 . S
C650 O660 1.270 . S
C650 O661 1.248 . S
C651 O662 1.267 . S
C651 O663 1.278 . S
O652 Pr632 2.562 . S
O652 C634 1.254 . S
O653 Pr632 2.490 . S
O653 C634 1.225 . S
O654 Pr632 2.695 1_554 S
O654 Pr633 2.436 . S
O654 C641 1.270 . S
O655 Pr632 2.512 . S
O655 C641 1.248 1_556 S
O656 Pr633 2.438 . S
O656 C642 1.267 1_554 S
O657 Pr632 2.437 . S
O657 C642 1.278 . S
O658 Pr633 2.562 . S
O658 C643 1.254 . S
O659 Pr633 2.490 . S
O659 C643 1.225 . S
O660 Pr632 2.436 1_554 S
O660 Pr633 2.695 . S
O660 C650 1.270 . S
O661 Pr633 2.512 . S
O661 C650 1.248 . S
O662 Pr632 2.438 1_554 S
O662 C651 1.267 . S
O663 Pr633 2.437 . S
O663 C651 1.278 . S
H664 C636 0.929 . S
H665 C637 0.929 . S
H666 C639 0.931 . S
H667 C640 0.930 . S
H668 C645 0.929 . S
H669 C646 0.929 . S
H670 C648 0.931 . S
H671 C649 0.930 . S
Pr672 C674 2.880 . S
Pr672 O692 2.562 . S
Pr672 O693 2.490 . S
Pr672 O694 2.695 . S
Pr672 O695 2.512 . S
Pr672 O697 2.437 . S
Pr672 O700 2.436 . S
Pr672 O702 2.438 . S
Pr673 C683 2.880 . S
Pr673 O694 2.436 . S
Pr673 O696 2.438 . S
Pr673 O698 2.562 . S
Pr673 O699 2.490 . S
Pr673 O700 2.695 . S
Pr673 O701 2.512 . S
Pr673 O703 2.437 . S
C674 Pr672 2.880 . S
C674 C675 1.491 . S
C674 O692 1.254 . S
C674 O693 1.225 . S
C675 C674 1.491 . S
C675 C676 1.392 . S
C675 C680 1.356 . S
C676 C675 1.392 . S
C676 C677 1.368 . S
C676 H704 0.929 . S
C677 C676 1.368 . S
C677 C678 1.386 . S
C677 H705 0.929 . S
C678 C677 1.386 . S
C678 C679 1.373 . S
C679 C678 1.373 . S
C679 C680 1.409 . S
C679 H706 0.931 . S
C680 C675 1.356 . S
C680 C679 1.409 . S
C680 H707 0.930 . S
C681 O694 1.270 . S
C681 O695 1.248 . S
C682 O696 1.267 . S
C682 O697 1.278 . S
C683 Pr673 2.880 . S
C683 C684 1.491 . S
C683 O698 1.254 . S
C683 O699 1.225 . S
C684 C683 1.491 . S
C684 C685 1.392 . S
C684 C689 1.356 . S
C685 C684 1.392 . S
C685 C686 1.368 . S
C685 H708 0.929 . S
C686 C685 1.368 . S
C686 C687 1.386 . S
C686 H709 0.929 . S
C687 C686 1.386 . S
C687 C688 1.373 . S
C688 C687 1.373 . S
C688 C689 1.409 . S
C688 H710 0.931 . S
C689 C684 1.356 . S
C689 C688 1.409 . S
C689 H711 0.930 . S
C690 O700 1.270 . S
C690 O701 1.248 . S
C691 O702 1.267 . S
C691 O703 1.278 . S
O692 Pr672 2.562 . S
O692 C674 1.254 . S
O693 Pr672 2.490 . S
O693 C674 1.225 . S
O694 Pr672 2.695 . S
O694 Pr673 2.436 . S
O694 C681 1.270 . S
O695 Pr672 2.512 . S
O695 C681 1.248 . S
O696 Pr673 2.438 . S
O696 C682 1.267 . S
O697 Pr672 2.437 . S
O697 C682 1.278 . S
O698 Pr673 2.562 . S
O698 C683 1.254 . S
O699 Pr673 2.490 . S
O699 C683 1.225 . S
O700 Pr672 2.436 . S
O700 Pr673 2.695 . S
O700 C690 1.270 . S
O701 Pr673 2.512 . S
O701 C690 1.248 . S
O702 Pr672 2.438 . S
O702 C691 1.267 . S
O703 Pr673 2.437 . S
O703 C691 1.278 . S
H704 C676 0.929 . S
H705 C677 0.929 . S
H706 C679 0.931 . S
H707 C680 0.930 . S
H708 C685 0.929 . S
H709 C686 0.929 . S
H710 C688 0.931 . S
H711 C689 0.930 . S
Pr712 C714 2.880 . S
Pr712 O732 2.562 . S
Pr712 O733 2.490 . S
Pr712 O734 2.695 . S
Pr712 O735 2.512 . S
Pr712 O737 2.437 . S
Pr712 O740 2.436 . S
Pr712 O742 2.438 . S
Pr713 C723 2.880 . S
Pr713 O734 2.436 . S
Pr713 O736 2.471 . S
Pr713 O738 2.562 . S
Pr713 O739 2.490 . S
Pr713 O740 2.695 . S
Pr713 O741 2.512 . S
Pr713 O743 2.437 . S
C714 Pr712 2.880 . S
C714 C715 1.491 . S
C714 O732 1.254 . S
C714 O733 1.225 . S
C715 C714 1.491 . S
C715 C716 1.392 . S
C715 C720 1.356 . S
C716 C715 1.392 . S
C716 C717 1.368 . S
C716 H744 0.929 . S
C717 C716 1.368 . S
C717 C718 1.386 1_455 S
C717 H745 0.929 . S
C718 C717 1.386 1_655 S
C718 C719 1.373 . S
C719 C718 1.373 . S
C719 C720 1.409 1_655 S
C719 H746 0.931 . S
C720 C715 1.356 . S
C720 C719 1.409 1_455 S
C720 H747 0.930 . S
C721 O734 1.270 . S
C721 O735 1.248 . S
C722 O736 1.258 1_655 S
C722 O737 1.278 1_655 S
C723 Pr713 2.880 . S
C723 C724 1.491 . S
C723 O738 1.254 . S
C723 O739 1.225 . S
C724 C723 1.491 . S
C724 C725 1.392 . S
C724 C729 1.356 . S
C725 C724 1.392 . S
C725 C726 1.368 . S
C725 H748 0.929 . S
C726 C725 1.368 . S
C726 C727 1.386 . S
C726 H749 0.929 . S
C727 C726 1.386 . S
C727 C728 1.373 . S
C728 C727 1.373 . S
C728 C729 1.409 . S
C728 H750 0.931 . S
C729 C724 1.356 . S
C729 C728 1.409 . S
C729 H751 0.930 . S
C730 O740 1.270 . S
C730 O741 1.248 . S
C731 O742 1.267 . S
C731 O743 1.278 . S
O732 Pr712 2.562 . S
O732 C714 1.254 . S
O733 Pr712 2.490 . S
O733 C714 1.225 . S
O734 Pr712 2.695 . S
O734 Pr713 2.436 . S
O734 C721 1.270 . S
O735 Pr712 2.512 . S
O735 C721 1.248 . S
O736 Pr713 2.471 . S
O736 C722 1.258 1_455 S
O737 Pr712 2.437 . S
O737 C722 1.278 1_455 S
O738 Pr713 2.562 . S
O738 C723 1.254 . S
O739 Pr713 2.490 . S
O739 C723 1.225 . S
O740 Pr712 2.436 . S
O740 Pr713 2.695 . S
O740 C730 1.270 . S
O741 Pr713 2.512 . S
O741 C730 1.248 . S
O742 Pr712 2.438 . S
O742 C731 1.267 . S
O743 Pr713 2.437 . S
O743 C731 1.278 . S
H744 C716 0.929 . S
H745 C717 0.929 . S
H746 C719 0.931 . S
H747 C720 0.930 . S
H748 C725 0.929 . S
H749 C726 0.929 . S
H750 C728 0.931 . S
H751 C729 0.930 . S
Pr752 C754 2.880 . S
Pr752 O772 2.562 . S
Pr752 O773 2.490 . S
Pr752 O774 2.695 . S
Pr752 O775 2.512 . S
Pr752 O777 2.437 . S
Pr752 O780 2.436 . S
Pr752 O782 2.438 . S
Pr753 C763 2.880 . S
Pr753 O774 2.436 . S
Pr753 O776 2.438 . S
Pr753 O778 2.562 . S
Pr753 O779 2.490 . S
Pr753 O780 2.695 . S
Pr753 O781 2.512 . S
Pr753 O783 2.437 . S
C754 Pr752 2.880 . S
C754 C755 1.491 . S
C754 O772 1.254 . S
C754 O773 1.225 . S
C755 C754 1.491 . S
C755 C756 1.392 . S
C755 C760 1.356 . S
C756 C755 1.392 . S
C756 C757 1.368 . S
C756 H784 0.929 . S
C757 C756 1.368 . S
C757 C758 1.386 . S
C757 H785 0.929 . S
C758 C757 1.386 . S
C758 C759 1.373 . S
C759 C758 1.373 . S
C759 C760 1.409 . S
C759 H786 0.931 . S
C760 C755 1.356 . S
C760 C759 1.409 . S
C760 H787 0.930 . S
C761 O774 1.270 . S
C761 O775 1.248 . S
C762 O776 1.267 . S
C762 O777 1.278 . S
C763 Pr753 2.880 . S
C763 C764 1.491 . S
C763 O778 1.254 . S
C763 O779 1.225 . S
C764 C763 1.491 . S
C764 C765 1.392 . S
C764 C769 1.356 . S
C765 C764 1.392 . S
C765 C766 1.368 . S
C765 H788 0.929 . S
C766 C765 1.368 . S
C766 C767 1.386 . S
C766 H789 0.929 . S
C767 C766 1.386 . S
C767 C768 1.373 . S
C768 C767 1.373 . S
C768 C769 1.409 . S
C768 H790 0.931 . S
C769 C764 1.356 . S
C769 C768 1.409 . S
C769 H791 0.930 . S
C770 O780 1.270 . S
C770 O781 1.248 . S
C771 O782 1.267 . S
C771 O783 1.278 . S
O772 Pr752 2.562 . S
O772 C754 1.254 . S
O773 Pr752 2.490 . S
O773 C754 1.225 . S
O774 Pr752 2.695 . S
O774 Pr753 2.436 . S
O774 C761 1.270 . S
O775 Pr752 2.512 . S
O775 C761 1.248 . S
O776 Pr753 2.438 . S
O776 C762 1.267 . S
O777 Pr752 2.437 . S
O777 C762 1.278 . S
O778 Pr753 2.562 . S
O778 C763 1.254 . S
O779 Pr753 2.490 . S
O779 C763 1.225 . S
O780 Pr752 2.436 . S
O780 Pr753 2.695 . S
O780 C770 1.270 . S
O781 Pr753 2.512 . S
O781 C770 1.248 . S
O782 Pr752 2.438 . S
O782 C771 1.267 . S
O783 Pr753 2.437 . S
O783 C771 1.278 . S
H784 C756 0.929 . S
H785 C757 0.929 . S
H786 C759 0.931 . S
H787 C760 0.930 . S
H788 C765 0.929 . S
H789 C766 0.929 . S
H790 C768 0.931 . S
H791 C769 0.930 . S
Pr792 C794 2.880 . S
Pr792 O812 2.562 . S
Pr792 O813 2.490 . S
Pr792 O814 2.695 . S
Pr792 O815 2.512 . S
Pr792 O817 2.437 . S
Pr792 O820 2.436 . S
Pr792 O822 2.438 . S
Pr793 C803 2.880 . S
Pr793 O814 2.436 . S
Pr793 O816 2.438 . S
Pr793 O818 2.562 . S
Pr793 O819 2.490 . S
Pr793 O820 2.695 . S
Pr793 O821 2.512 . S
Pr793 O823 2.437 . S
C794 Pr792 2.880 . S
C794 C795 1.491 . S
C794 O812 1.254 . S
C794 O813 1.225 . S
C795 C794 1.491 . S
C795 C796 1.392 . S
C795 C800 1.356 . S
C796 C795 1.392 . S
C796 C797 1.368 . S
C796 H824 0.929 . S
C797 C796 1.368 . S
C797 C798 1.386 . S
C797 H825 0.929 . S
C798 C797 1.386 . S
C798 C799 1.373 . S
C799 C798 1.373 . S
C799 C800 1.409 . S
C799 H826 0.931 . S
C800 C795 1.356 . S
C800 C799 1.409 . S
C800 H827 0.930 . S
C801 O814 1.270 . S
C801 O815 1.248 . S
C802 O816 1.267 . S
C802 O817 1.278 . S
C803 Pr793 2.880 . S
C803 C804 1.491 . S
C803 O818 1.254 . S
C803 O819 1.225 . S
C804 C803 1.491 . S
C804 C805 1.392 . S
C804 C809 1.356 . S
C805 C804 1.392 . S
C805 C806 1.368 . S
C805 H828 0.929 . S
C806 C805 1.368 . S
C806 C807 1.386 . S
C806 H829 0.929 . S
C807 C806 1.386 . S
C807 C808 1.373 . S
C808 C807 1.373 . S
C808 C809 1.409 . S
C808 H830 0.931 . S
C809 C804 1.356 . S
C809 C808 1.409 . S
C809 H831 0.930 . S
C810 O820 1.270 . S
C810 O821 1.248 . S
C811 O822 1.267 . S
C811 O823 1.278 . S
O812 Pr792 2.562 . S
O812 C794 1.254 . S
O813 Pr792 2.490 . S
O813 C794 1.225 . S
O814 Pr792 2.695 . S
O814 Pr793 2.436 . S
O814 C801 1.270 . S
O815 Pr792 2.512 . S
O815 C801 1.248 . S
O816 Pr793 2.438 . S
O816 C802 1.267 . S
O817 Pr792 2.437 . S
O817 C802 1.278 . S
O818 Pr793 2.562 . S
O818 C803 1.254 . S
O819 Pr793 2.490 . S
O819 C803 1.225 . S
O820 Pr792 2.436 . S
O820 Pr793 2.695 . S
O820 C810 1.270 . S
O821 Pr793 2.512 . S
O821 C810 1.248 . S
O822 Pr792 2.438 . S
O822 C811 1.267 . S
O823 Pr793 2.437 . S
O823 C811 1.278 . S
H824 C796 0.929 . S
H825 C797 0.929 . S
H826 C799 0.931 . S
H827 C800 0.930 . S
H828 C805 0.929 . S
H829 C806 0.929 . S
H830 C808 0.931 . S
H831 C809 0.930 . S
Pr832 C834 2.880 . S
Pr832 O852 2.562 . S
Pr832 O853 2.490 . S
Pr832 O854 2.695 . S
Pr832 O855 2.512 . S
Pr832 O857 2.437 . S
Pr832 O860 2.436 . S
Pr832 O862 2.438 . S
Pr833 C843 2.880 . S
Pr833 O854 2.436 . S
Pr833 O856 2.438 . S
Pr833 O858 2.562 . S
Pr833 O859 2.490 . S
Pr833 O860 2.695 . S
Pr833 O861 2.512 . S
Pr833 O863 2.437 . S
C834 Pr832 2.880 . S
C834 C835 1.491 . S
C834 O852 1.254 . S
C834 O853 1.225 . S
C835 C834 1.491 . S
C835 C836 1.392 . S
C835 C840 1.356 . S
C836 C835 1.392 . S
C836 C837 1.368 . S
C836 H864 0.929 . S
C837 C836 1.368 . S
C837 C838 1.386 . S
C837 H865 0.929 . S
C838 C837 1.386 . S
C838 C839 1.373 . S
C839 C838 1.373 . S
C839 C840 1.409 . S
C839 H866 0.931 . S
C840 C835 1.356 . S
C840 C839 1.409 . S
C840 H867 0.930 . S
C841 O854 1.270 . S
C841 O855 1.248 . S
C842 O856 1.267 . S
C842 O857 1.278 . S
C843 Pr833 2.880 . S
C843 C844 1.491 . S
C843 O858 1.254 . S
C843 O859 1.225 . S
C844 C843 1.491 . S
C844 C845 1.392 . S
C844 C849 1.356 . S
C845 C844 1.392 . S
C845 C846 1.368 . S
C845 H868 0.929 . S
C846 C845 1.368 . S
C846 C847 1.386 . S
C846 H869 0.929 . S
C847 C846 1.386 . S
C847 C848 1.373 . S
C848 C847 1.373 . S
C848 C849 1.409 . S
C848 H870 0.931 . S
C849 C844 1.356 . S
C849 C848 1.409 . S
C849 H871 0.930 . S
C850 O860 1.270 . S
C850 O861 1.248 . S
C851 O862 1.267 . S
C851 O863 1.278 . S
O852 Pr832 2.562 . S
O852 C834 1.254 . S
O853 Pr832 2.490 . S
O853 C834 1.225 . S
O854 Pr832 2.695 . S
O854 Pr833 2.436 . S
O854 C841 1.270 . S
O855 Pr832 2.512 . S
O855 C841 1.248 . S
O856 Pr833 2.438 . S
O856 C842 1.267 . S
O857 Pr832 2.437 . S
O857 C842 1.278 . S
O858 Pr833 2.562 . S
O858 C843 1.254 . S
O859 Pr833 2.490 . S
O859 C843 1.225 . S
O860 Pr832 2.436 . S
O860 Pr833 2.695 . S
O860 C850 1.270 . S
O861 Pr833 2.512 . S
O861 C850 1.248 . S
O862 Pr832 2.438 . S
O862 C851 1.267 . S
O863 Pr833 2.437 . S
O863 C851 1.278 . S
H864 C836 0.929 . S
H865 C837 0.929 . S
H866 C839 0.931 . S
H867 C840 0.930 . S
H868 C845 0.929 . S
H869 C846 0.929 . S
H870 C848 0.931 . S
H871 C849 0.930 . S
Pr872 C874 2.880 . S
Pr872 O892 2.562 . S
Pr872 O893 2.490 . S
Pr872 O894 2.695 . S
Pr872 O895 2.512 . S
Pr872 O897 2.437 . S
Pr872 O900 2.436 . S
Pr872 O902 2.438 . S
Pr873 C883 2.880 . S
Pr873 O894 2.436 . S
Pr873 O896 2.438 . S
Pr873 O898 2.562 . S
Pr873 O899 2.490 . S
Pr873 O900 2.695 . S
Pr873 O901 2.512 . S
Pr873 O903 2.437 . S
C874 Pr872 2.880 . S
C874 C875 1.491 . S
C874 O892 1.254 . S
C874 O893 1.225 . S
C875 C874 1.491 . S
C875 C876 1.392 . S
C875 C880 1.356 . S
C876 C875 1.392 . S
C876 C877 1.368 . S
C876 H904 0.929 . S
C877 C876 1.368 . S
C877 C878 1.386 . S
C877 H905 0.929 . S
C878 C877 1.386 . S
C878 C879 1.373 . S
C879 C878 1.373 . S
C879 C880 1.409 . S
C879 H906 0.931 . S
C880 C875 1.356 . S
C880 C879 1.409 . S
C880 H907 0.930 . S
C881 O894 1.270 . S
C881 O895 1.248 . S
C882 O896 1.267 . S
C882 O897 1.278 . S
C883 Pr873 2.880 . S
C883 C884 1.491 . S
C883 O898 1.254 . S
C883 O899 1.225 . S
C884 C883 1.491 . S
C884 C885 1.392 . S
C884 C889 1.356 . S
C885 C884 1.392 . S
C885 C886 1.368 . S
C885 H908 0.929 . S
C886 C885 1.368 . S
C886 C887 1.386 . S
C886 H909 0.929 . S
C887 C886 1.386 . S
C887 C888 1.373 . S
C888 C887 1.373 . S
C888 C889 1.409 . S
C888 H910 0.931 . S
C889 C884 1.356 . S
C889 C888 1.409 . S
C889 H911 0.930 . S
C890 O900 1.270 . S
C890 O901 1.248 . S
C891 O902 1.267 . S
C891 O903 1.278 . S
O892 Pr872 2.562 . S
O892 C874 1.254 . S
O893 Pr872 2.490 . S
O893 C874 1.225 . S
O894 Pr872 2.695 . S
O894 Pr873 2.436 . S
O894 C881 1.270 . S
O895 Pr872 2.512 . S
O895 C881 1.248 . S
O896 Pr873 2.438 . S
O896 C882 1.267 . S
O897 Pr872 2.437 . S
O897 C882 1.278 . S
O898 Pr873 2.562 . S
O898 C883 1.254 . S
O899 Pr873 2.490 . S
O899 C883 1.225 . S
O900 Pr872 2.436 . S
O900 Pr873 2.695 . S
O900 C890 1.270 . S
O901 Pr873 2.512 . S
O901 C890 1.248 . S
O902 Pr872 2.438 . S
O902 C891 1.267 . S
O903 Pr873 2.437 . S
O903 C891 1.278 . S
H904 C876 0.929 . S
H905 C877 0.929 . S
H906 C879 0.931 . S
H907 C880 0.930 . S
H908 C885 0.929 . S
H909 C886 0.929 . S
H910 C888 0.931 . S
H911 C889 0.930 . S
Pr912 C914 2.880 . S
Pr912 O932 2.562 . S
Pr912 O933 2.490 . S
Pr912 O934 2.695 . S
Pr912 O935 2.512 1_554 S
Pr912 O937 2.437 . S
Pr912 O940 2.436 . S
Pr912 O942 2.438 . S
Pr913 C923 2.880 1_455 S
Pr913 O934 2.436 . S
Pr913 O936 2.438 . S
Pr913 O938 2.562 1_455 S
Pr913 O939 2.490 1_455 S
Pr913 O940 2.695 . S
Pr913 O941 2.512 . S
Pr913 O943 2.437 . S
C914 Pr912 2.880 . S
C914 C915 1.491 . S
C914 O932 1.254 . S
C914 O933 1.225 . S
C915 C914 1.491 . S
C915 C916 1.392 1_554 S
C915 C920 1.356 . S
C916 C915 1.392 1_556 S
C916 C917 1.368 . S
C916 H944 0.929 . S
C917 C916 1.368 . S
C917 C918 1.386 1_556 S
C917 H945 0.929 . S
C918 C917 1.386 1_554 S
C918 C919 1.373 . S
C919 C918 1.373 . S
C919 C920 1.409 . S
C919 H946 0.931 . S
C920 C915 1.356 . S
C920 C919 1.409 . S
C920 H947 0.930 . S
C921 O934 1.270 1_556 S
C921 O935 1.248 . S
C922 O936 1.267 . S
C922 O937 1.278 . S
C923 Pr913 2.880 1_655 S
C923 C924 1.491 . S
C923 O938 1.254 . S
C923 O939 1.225 . S
C924 C923 1.491 . S
C924 C925 1.392 . S
C924 C929 1.356 . S
C925 C924 1.392 . S
C925 C926 1.368 . S
C925 H948 0.929 . S
C926 C925 1.368 . S
C926 C927 1.386 . S
C926 H949 0.929 . S
C927 C926 1.386 . S
C927 C928 1.373 . S
C928 C927 1.373 . S
C928 C929 1.409 . S
C928 H950 0.931 . S
C929 C924 1.356 . S
C929 C928 1.409 . S
C929 H951 0.930 . S
C930 O940 1.270 . S
C930 O941 1.248 . S
C931 O942 1.267 . S
C931 O943 1.278 . S
O932 Pr912 2.562 . S
O932 C914 1.254 . S
O933 Pr912 2.490 . S
O933 C914 1.225 . S
O934 Pr912 2.695 . S
O934 Pr913 2.436 . S
O934 C921 1.270 1_554 S
O935 Pr912 2.512 1_556 S
O935 C921 1.248 . S
O936 Pr913 2.438 . S
O936 C922 1.267 . S
O937 Pr912 2.437 . S
O937 C922 1.278 . S
O938 Pr913 2.562 1_655 S
O938 C923 1.254 . S
O939 Pr913 2.490 1_655 S
O939 C923 1.225 . S
O940 Pr912 2.436 . S
O940 Pr913 2.695 . S
O940 C930 1.270 . S
O941 Pr913 2.512 . S
O941 C930 1.248 . S
O942 Pr912 2.438 . S
O942 C931 1.267 . S
O943 Pr913 2.437 . S
O943 C931 1.278 . S
H944 C916 0.929 . S
H945 C917 0.929 . S
H946 C919 0.931 . S
H947 C920 0.930 . S
H948 C925 0.929 . S
H949 C926 0.929 . S
H950 C928 0.931 . S
H951 C929 0.930 . S
C952 C953 1.391 . S
C952 C954 1.394 . S
C952 H968 0.931 . S
C953 C952 1.391 . S
C953 C957 1.376 . S
C954 C952 1.394 . S
C954 C955 1.369 . S
C954 C958 1.531 1_556 S
C955 C954 1.369 . S
C955 C956 1.410 . S
C955 C963 1.529 . S
C956 C955 1.410 . S
C956 C957 1.392 . S
C956 C959 1.511 . S
C957 C953 1.376 . S
C957 C956 1.392 . S
C957 H969 0.929 . S
C958 C954 1.531 1_554 S
C958 H970 0.960 . S
C958 H971 0.962 . S
C958 H972 0.960 . S
C959 C956 1.511 . S
C959 H973 0.961 . S
C959 H974 0.961 . S
C959 H975 0.961 1_455 S
C960 C961 1.370 . S
C960 C962 1.363 1_554 S
C960 H976 0.931 . S
C961 C960 1.370 . S
C961 C965 1.408 . S
C962 C960 1.363 1_556 S
C962 C963 1.380 . S
C962 C966 1.524 . S
C963 C955 1.529 . S
C963 C962 1.380 . S
C963 C964 1.368 1_556 S
C964 C963 1.368 1_554 S
C964 C965 1.404 . S
C964 C967 1.539 . S
C965 C961 1.408 . S
C965 C964 1.404 . S
C965 H977 0.930 . S
C966 C962 1.524 . S
C966 H978 0.956 . S
C966 H979 0.961 . S
C966 H980 0.961 . S
C967 C964 1.539 . S
C967 H981 0.958 . S
C967 H982 0.961 1_455 S
C967 H983 0.960 . S
H968 C952 0.931 . S
H969 C957 0.929 . S
H970 C958 0.960 . S
H971 C958 0.962 . S
H972 C958 0.960 . S
H973 C959 0.961 . S
H974 C959 0.961 . S
H975 C959 0.961 1_655 S
H976 C960 0.931 . S
H977 C965 0.930 . S
H978 C966 0.956 . S
H979 C966 0.961 . S
H980 C966 0.961 . S
H981 C967 0.958 . S
H982 C967 0.961 1_655 S
H983 C967 0.960 . S
C984 C985 1.391 . S
C984 C986 1.394 . S
C984 H1000 0.931 . S
C985 C984 1.391 . S
C985 C989 1.376 . S
C986 C984 1.394 . S
C986 C987 1.369 . S
C986 C990 1.531 . S
C987 C986 1.369 . S
C987 C988 1.410 . S
C987 C995 1.503 . S
C988 C987 1.410 . S
C988 C989 1.392 . S
C988 C991 1.511 . S
C989 C985 1.376 . S
C989 C988 1.392 . S
C989 H1001 0.929 . S
C990 C986 1.531 . S
C990 H1002 0.960 . S
C990 H1003 0.962 . S
C990 H1004 0.960 . S
C991 C988 1.511 . S
C991 H1005 0.961 . S
C991 H1006 0.961 . S
C991 H1007 0.961 . S
C992 C993 1.370 . S
C992 C994 1.363 . S
C992 H1008 0.931 . S
C993 C992 1.370 . S
C993 C997 1.408 . S
C994 C992 1.363 . S
C994 C995 1.370 . S
C994 C998 1.524 . S
C995 C987 1.503 . S
C995 C994 1.370 . S
C995 C996 1.403 . S
C996 C995 1.403 . S
C996 C997 1.404 . S
C996 C999 1.539 . S
C997 C993 1.408 . S
C997 C996 1.404 . S
C997 H1009 0.930 . S
C998 C994 1.524 . S
C998 H1010 0.956 . S
C998 H1011 0.961 . S
C998 H1012 0.961 . S
C999 C996 1.539 . S
C999 H1013 0.958 . S
C999 H1014 0.961 . S
C999 H1015 0.960 . S
H1000 C984 0.931 . S
H1001 C989 0.929 . S
H1002 C990 0.960 . S
H1003 C990 0.962 . S
H1004 C990 0.960 . S
H1005 C991 0.961 . S
H1006 C991 0.961 . S
H1007 C991 0.961 . S
H1008 C992 0.931 . S
H1009 C997 0.930 . S
H1010 C998 0.956 . S
H1011 C998 0.961 . S
H1012 C998 0.961 . S
H1013 C999 0.958 . S
H1014 C999 0.961 . S
H1015 C999 0.960 . S
C1016 C1017 1.391 . S
C1016 C1018 1.394 . S
C1016 H1032 0.931 . S
C1017 C1016 1.391 . S
C1017 C1021 1.376 . S
C1018 C1016 1.394 . S
C1018 C1019 1.369 . S
C1018 C1022 1.531 . S
C1019 C1018 1.369 . S
C1019 C1020 1.410 . S
C1019 C1027 1.503 . S
C1020 C1019 1.410 . S
C1020 C1021 1.392 . S
C1020 C1023 1.511 . S
C1021 C1017 1.376 . S
C1021 C1020 1.392 . S
C1021 H1033 0.929 . S
C1022 C1018 1.531 . S
C1022 H1034 0.960 . S
C1022 H1035 0.962 . S
C1022 H1036 0.960 . S
C1023 C1020 1.511 . S
C1023 H1037 0.961 . S
C1023 H1038 0.961 . S
C1023 H1039 0.961 . S
C1024 C1025 1.370 . S
C1024 C1026 1.363 . S
C1024 H1040 0.931 . S
C1025 C1024 1.370 . S
C1025 C1029 1.408 . S
C1026 C1024 1.363 . S
C1026 C1027 1.370 . S
C1026 C1030 1.524 . S
C1027 C1019 1.503 . S
C1027 C1026 1.370 . S
C1027 C1028 1.403 . S
C1028 C1027 1.403 . S
C1028 C1029 1.404 . S
C1028 C1031 1.539 . S
C1029 C1025 1.408 . S
C1029 C1028 1.404 . S
C1029 H1041 0.930 . S
C1030 C1026 1.524 . S
C1030 H1042 0.956 . S
C1030 H1043 0.961 . S
C1030 H1044 0.961 . S
C1031 C1028 1.539 . S
C1031 H1045 0.958 . S
C1031 H1046 0.961 . S
C1031 H1047 0.960 . S
H1032 C1016 0.931 . S
H1033 C1021 0.929 . S
H1034 C1022 0.960 . S
H1035 C1022 0.962 . S
H1036 C1022 0.960 . S
H1037 C1023 0.961 . S
H1038 C1023 0.961 . S
H1039 C1023 0.961 . S
H1040 C1024 0.931 . S
H1041 C1029 0.930 . S
H1042 C1030 0.956 . S
H1043 C1030 0.961 . S
H1044 C1030 0.961 . S
H1045 C1031 0.958 . S
H1046 C1031 0.961 . S
H1047 C1031 0.960 . S
C1048 C1049 1.391 . S
C1048 C1050 1.394 . S
C1048 H1064 0.931 . S
C1049 C1048 1.391 . S
C1049 C1053 1.376 . S
C1050 C1048 1.394 . S
C1050 C1051 1.369 . S
C1050 C1054 1.531 . S
C1051 C1050 1.369 . S
C1051 C1052 1.410 . S
C1051 C1059 1.503 . S
C1052 C1051 1.410 . S
C1052 C1053 1.392 . S
C1052 C1055 1.511 . S
C1053 C1049 1.376 . S
C1053 C1052 1.392 . S
C1053 H1065 0.929 . S
C1054 C1050 1.531 . S
C1054 H1066 0.960 . S
C1054 H1067 0.962 . S
C1054 H1068 0.960 . S
C1055 C1052 1.511 . S
C1055 H1069 0.961 . S
C1055 H1070 0.961 . S
C1055 H1071 0.961 . S
C1056 C1057 1.370 . S
C1056 C1058 1.363 . S
C1056 H1072 0.931 . S
C1057 C1056 1.370 . S
C1057 C1061 1.408 . S
C1058 C1056 1.363 . S
C1058 C1059 1.370 . S
C1058 C1062 1.524 . S
C1059 C1051 1.503 . S
C1059 C1058 1.370 . S
C1059 C1060 1.403 . S
C1060 C1059 1.403 . S
C1060 C1061 1.404 . S
C1060 C1063 1.539 . S
C1061 C1057 1.408 . S
C1061 C1060 1.404 . S
C1061 H1073 0.930 . S
C1062 C1058 1.524 . S
C1062 H1074 0.956 . S
C1062 H1075 0.961 . S
C1062 H1076 0.961 . S
C1063 C1060 1.539 . S
C1063 H1077 0.958 . S
C1063 H1078 0.961 . S
C1063 H1079 0.960 . S
H1064 C1048 0.931 . S
H1065 C1053 0.929 . S
H1066 C1054 0.960 . S
H1067 C1054 0.962 . S
H1068 C1054 0.960 . S
H1069 C1055 0.961 . S
H1070 C1055 0.961 . S
H1071 C1055 0.961 . S
H1072 C1056 0.931 . S
H1073 C1061 0.930 . S
H1074 C1062 0.956 . S
H1075 C1062 0.961 . S
H1076 C1062 0.961 . S
H1077 C1063 0.958 . S
H1078 C1063 0.961 . S
H1079 C1063 0.960 . S
C1080 C1081 1.391 . S
C1080 C1082 1.394 . S
C1080 H1096 0.931 . S
C1081 C1080 1.391 . S
C1081 C1085 1.376 . S
C1082 C1080 1.394 . S
C1082 C1083 1.369 . S
C1082 C1086 1.531 . S
C1083 C1082 1.369 . S
C1083 C1084 1.410 . S
C1083 C1091 1.503 . S
C1084 C1083 1.410 . S
C1084 C1085 1.392 . S
C1084 C1087 1.511 . S
C1085 C1081 1.376 . S
C1085 C1084 1.392 . S
C1085 H1097 0.929 . S
C1086 C1082 1.531 . S
C1086 H1098 0.960 . S
C1086 H1099 0.962 . S
C1086 H1100 0.960 . S
C1087 C1084 1.511 . S
C1087 H1101 0.961 . S
C1087 H1102 0.961 . S
C1087 H1103 0.961 . S
C1088 C1089 1.364 1_565 S
C1088 C1090 1.363 . S
C1088 H1104 0.931 . S
C1089 C1088 1.364 1_545 S
C1089 C1093 1.409 . S
C1090 C1088 1.363 . S
C1090 C1091 1.370 . S
C1090 C1094 1.524 . S
C1091 C1083 1.503 . S
C1091 C1090 1.370 . S
C1091 C1092 1.403 . S
C1092 C1091 1.403 . S
C1092 C1093 1.404 1_565 S
C1092 C1095 1.539 . S
C1093 C1089 1.409 . S
C1093 C1092 1.404 1_545 S
C1093 H1105 0.930 . S
C1094 C1090 1.524 . S
C1094 H1106 0.956 . S
C1094 H1107 0.961 . S
C1094 H1108 0.961 . S
C1095 C1092 1.539 . S
C1095 H1109 0.958 . S
C1095 H1110 0.961 1_565 S
C1095 H1111 0.960 . S
H1096 C1080 0.931 . S
H1097 C1085 0.929 . S
H1098 C1086 0.960 . S
H1099 C1086 0.962 . S
H1100 C1086 0.960 . S
H1101 C1087 0.961 . S
H1102 C1087 0.961 . S
H1103 C1087 0.961 . S
H1104 C1088 0.931 . S
H1105 C1093 0.930 . S
H1106 C1094 0.956 . S
H1107 C1094 0.961 . S
H1108 C1094 0.961 . S
H1109 C1095 0.958 . S
H1110 C1095 0.961 1_545 S
H1111 C1095 0.960 . S
C1112 C1113 1.391 . S
C1112 C1114 1.394 . S
C1112 H1128 0.931 . S
C1113 C1112 1.391 . S
C1113 C1117 1.376 . S
C1114 C1112 1.394 . S
C1114 C1115 1.369 . S
C1114 C1118 1.531 . S
C1115 C1114 1.369 . S
C1115 C1116 1.410 . S
C1115 C1123 1.503 . S
C1116 C1115 1.410 . S
C1116 C1117 1.392 . S
C1116 C1119 1.511 . S
C1117 C1113 1.376 . S
C1117 C1116 1.392 . S
C1117 H1129 0.929 . S
C1118 C1114 1.531 . S
C1118 H1130 0.960 . S
C1118 H1131 0.962 . S
C1118 H1132 0.960 . S
C1119 C1116 1.511 . S
C1119 H1133 0.961 . S
C1119 H1134 0.961 . S
C1119 H1135 0.961 . S
C1120 C1121 1.370 . S
C1120 C1122 1.363 . S
C1120 H1136 0.931 . S
C1121 C1120 1.370 . S
C1121 C1125 1.408 . S
C1122 C1120 1.363 . S
C1122 C1123 1.370 . S
C1122 C1126 1.524 . S
C1123 C1115 1.503 . S
C1123 C1122 1.370 . S
C1123 C1124 1.403 . S
C1124 C1123 1.403 . S
C1124 C1125 1.404 . S
C1124 C1127 1.539 . S
C1125 C1121 1.408 . S
C1125 C1124 1.404 . S
C1125 H1137 0.930 . S
C1126 C1122 1.524 . S
C1126 H1138 0.956 . S
C1126 H1139 0.961 . S
C1126 H1140 0.961 . S
C1127 C1124 1.539 . S
C1127 H1141 0.958 . S
C1127 H1142 0.961 . S
C1127 H1143 0.960 . S
H1128 C1112 0.931 . S
H1129 C1117 0.929 . S
H1130 C1118 0.960 . S
H1131 C1118 0.962 . S
H1132 C1118 0.960 . S
H1133 C1119 0.961 . S
H1134 C1119 0.961 . S
H1135 C1119 0.961 . S
H1136 C1120 0.931 . S
H1137 C1125 0.930 . S
H1138 C1126 0.956 . S
H1139 C1126 0.961 . S
H1140 C1126 0.961 . S
H1141 C1127 0.958 . S
H1142 C1127 0.961 . S
H1143 C1127 0.960 . S
C1144 C1145 1.391 . S
C1144 C1146 1.394 . S
C1144 H1160 0.931 . S
C1145 C1144 1.391 . S
C1145 C1149 1.376 . S
C1146 C1144 1.394 . S
C1146 C1147 1.369 . S
C1146 C1150 1.531 . S
C1147 C1146 1.369 . S
C1147 C1148 1.410 . S
C1147 C1155 1.503 . S
C1148 C1147 1.410 . S
C1148 C1149 1.392 . S
C1148 C1151 1.511 . S
C1149 C1145 1.376 . S
C1149 C1148 1.392 . S
C1149 H1161 0.929 . S
C1150 C1146 1.531 . S
C1150 H1162 0.960 . S
C1150 H1163 0.962 . S
C1150 H1164 0.960 . S
C1151 C1148 1.511 . S
C1151 H1165 0.961 . S
C1151 H1166 0.961 . S
C1151 H1167 0.961 . S
C1152 C1153 1.370 . S
C1152 C1154 1.363 . S
C1152 H1168 0.931 . S
C1153 C1152 1.370 . S
C1153 C1157 1.408 . S
C1154 C1152 1.363 . S
C1154 C1155 1.370 . S
C1154 C1158 1.524 . S
C1155 C1147 1.503 . S
C1155 C1154 1.370 . S
C1155 C1156 1.403 . S
C1156 C1155 1.403 . S
C1156 C1157 1.404 . S
C1156 C1159 1.539 . S
C1157 C1153 1.408 . S
C1157 C1156 1.404 . S
C1157 H1169 0.930 . S
C1158 C1154 1.524 . S
C1158 H1170 0.956 . S
C1158 H1171 0.961 . S
C1158 H1172 0.961 . S
C1159 C1156 1.539 . S
C1159 H1173 0.958 . S
C1159 H1174 0.961 . S
C1159 H1175 0.960 . S
H1160 C1144 0.931 . S
H1161 C1149 0.929 . S
H1162 C1150 0.960 . S
H1163 C1150 0.962 . S
H1164 C1150 0.960 . S
H1165 C1151 0.961 . S
H1166 C1151 0.961 . S
H1167 C1151 0.961 . S
H1168 C1152 0.931 . S
H1169 C1157 0.930 . S
H1170 C1158 0.956 . S
H1171 C1158 0.961 . S
H1172 C1158 0.961 . S
H1173 C1159 0.958 . S
H1174 C1159 0.961 . S
H1175 C1159 0.960 . S
C1176 C1177 1.391 . S
C1176 C1178 1.394 . S
C1176 H1192 0.931 . S
C1177 C1176 1.391 . S
C1177 C1181 1.376 . S
C1178 C1176 1.394 . S
C1178 C1179 1.369 . S
C1178 C1182 1.531 . S
C1179 C1178 1.369 . S
C1179 C1180 1.410 . S
C1179 C1187 1.503 . S
C1180 C1179 1.410 . S
C1180 C1181 1.392 . S
C1180 C1183 1.511 . S
C1181 C1177 1.376 . S
C1181 C1180 1.392 . S
C1181 H1193 0.929 . S
C1182 C1178 1.531 . S
C1182 H1194 0.960 . S
C1182 H1195 0.962 . S
C1182 H1196 0.960 . S
C1183 C1180 1.511 . S
C1183 H1197 0.961 . S
C1183 H1198 0.961 . S
C1183 H1199 0.961 . S
C1184 C1185 1.370 . S
C1184 C1186 1.363 . S
C1184 H1200 0.931 . S
C1185 C1184 1.370 . S
C1185 C1189 1.408 . S
C1186 C1184 1.363 . S
C1186 C1187 1.370 . S
C1186 C1190 1.524 . S
C1187 C1179 1.503 . S
C1187 C1186 1.370 . S
C1187 C1188 1.403 . S
C1188 C1187 1.403 . S
C1188 C1189 1.404 . S
C1188 C1191 1.539 . S
C1189 C1185 1.408 . S
C1189 C1188 1.404 . S
C1189 H1201 0.930 . S
C1190 C1186 1.524 . S
C1190 H1202 0.956 . S
C1190 H1203 0.961 . S
C1190 H1204 0.961 . S
C1191 C1188 1.539 . S
C1191 H1205 0.958 . S
C1191 H1206 0.961 . S
C1191 H1207 0.960 . S
H1192 C1176 0.931 . S
H1193 C1181 0.929 . S
H1194 C1182 0.960 . S
H1195 C1182 0.962 . S
H1196 C1182 0.960 . S
H1197 C1183 0.961 . S
H1198 C1183 0.961 . S
H1199 C1183 0.961 . S
H1200 C1184 0.931 . S
H1201 C1189 0.930 . S
H1202 C1190 0.956 . S
H1203 C1190 0.961 . S
H1204 C1190 0.961 . S
H1205 C1191 0.958 . S
H1206 C1191 0.961 . S
H1207 C1191 0.960 . S
C1208 C1209 1.391 . S
C1208 C1210 1.394 . S
C1208 H1224 0.931 . S
C1209 C1208 1.391 . S
C1209 C1213 1.376 . S
C1210 C1208 1.394 . S
C1210 C1211 1.369 . S
C1210 C1214 1.531 . S
C1211 C1210 1.369 . S
C1211 C1212 1.410 . S
C1211 C1219 1.498 1_655 S
C1212 C1211 1.410 . S
C1212 C1213 1.392 . S
C1212 C1215 1.511 1_655 S
C1213 C1209 1.376 . S
C1213 C1212 1.392 . S
C1213 H1225 0.929 . S
C1214 C1210 1.531 . S
C1214 H1226 0.960 . S
C1214 H1227 0.962 . S
C1214 H1228 0.960 . S
C1215 C1212 1.511 1_455 S
C1215 H1229 0.961 . S
C1215 H1230 0.961 . S
C1215 H1231 0.961 . S
C1216 C1217 1.370 . S
C1216 C1218 1.363 . S
C1216 H1232 0.931 . S
C1217 C1216 1.370 . S
C1217 C1221 1.408 . S
C1218 C1216 1.363 . S
C1218 C1219 1.375 . S
C1218 C1222 1.524 . S
C1219 C1211 1.498 1_455 S
C1219 C1218 1.375 . S
C1219 C1220 1.403 . S
C1220 C1219 1.403 . S
C1220 C1221 1.404 . S
C1220 C1223 1.539 1_455 S
C1221 C1217 1.408 . S
C1221 C1220 1.404 . S
C1221 H1233 0.930 . S
C1222 C1218 1.524 . S
C1222 H1234 0.956 1_455 S
C1222 H1235 0.961 . S
C1222 H1236 0.961 . S
C1223 C1220 1.539 1_655 S
C1223 H1237 0.958 . S
C1223 H1238 0.961 1_655 S
C1223 H1239 0.960 . S
H1224 C1208 0.931 . S
H1225 C1213 0.929 . S
H1226 C1214 0.960 . S
H1227 C1214 0.962 . S
H1228 C1214 0.960 . S
H1229 C1215 0.961 . S
H1230 C1215 0.961 . S
H1231 C1215 0.961 . S
H1232 C1216 0.931 . S
H1233 C1221 0.930 . S
H1234 C1222 0.956 1_655 S
H1235 C1222 0.961 . S
H1236 C1222 0.961 . S
H1237 C1223 0.958 . S
H1238 C1223 0.961 1_455 S
H1239 C1223 0.960 . S
C1240 C1241 1.391 . S
C1240 C1242 1.394 . S
C1240 H1256 0.931 . S
C1241 C1240 1.391 . S
C1241 C1245 1.376 . S
C1242 C1240 1.394 . S
C1242 C1243 1.369 . S
C1242 C1246 1.531 . S
C1243 C1242 1.369 . S
C1243 C1244 1.410 . S
C1243 C1251 1.503 . S
C1244 C1243 1.410 . S
C1244 C1245 1.392 . S
C1244 C1247 1.511 . S
C1245 C1241 1.376 . S
C1245 C1244 1.392 . S
C1245 H1257 0.929 . S
C1246 C1242 1.531 . S
C1246 H1258 0.960 . S
C1246 H1259 0.962 . S
C1246 H1260 0.960 . S
C1247 C1244 1.511 . S
C1247 H1261 0.961 . S
C1247 H1262 0.961 . S
C1247 H1263 0.961 . S
C1248 C1249 1.370 . S
C1248 C1250 1.363 . S
C1248 H1264 0.931 . S
C1249 C1248 1.370 . S
C1249 C1253 1.408 . S
C1250 C1248 1.363 . S
C1250 C1251 1.370 . S
C1250 C1254 1.524 . S
C1251 C1243 1.503 . S
C1251 C1250 1.370 . S
C1251 C1252 1.403 . S
C1252 C1251 1.403 . S
C1252 C1253 1.404 . S
C1252 C1255 1.539 . S
C1253 C1249 1.408 . S
C1253 C1252 1.404 . S
C1253 H1265 0.930 . S
C1254 C1250 1.524 . S
C1254 H1266 0.956 . S
C1254 H1267 0.961 . S
C1254 H1268 0.961 . S
C1255 C1252 1.539 . S
C1255 H1269 0.958 . S
C1255 H1270 0.961 . S
C1255 H1271 0.960 . S
H1256 C1240 0.931 . S
H1257 C1245 0.929 . S
H1258 C1246 0.960 . S
H1259 C1246 0.962 . S
H1260 C1246 0.960 . S
H1261 C1247 0.961 . S
H1262 C1247 0.961 . S
H1263 C1247 0.961 . S
H1264 C1248 0.931 . S
H1265 C1253 0.930 . S
H1266 C1254 0.956 . S
H1267 C1254 0.961 . S
H1268 C1254 0.961 . S
H1269 C1255 0.958 . S
H1270 C1255 0.961 . S
H1271 C1255 0.960 . S
C1272 C1273 1.391 1_545 S
C1272 C1274 1.394 . S
C1272 H1288 0.931 . S
C1273 C1272 1.391 1_565 S
C1273 C1277 1.376 . S
C1274 C1272 1.394 . S
C1274 C1275 1.369 . S
C1274 C1278 1.531 . S
C1275 C1274 1.369 . S
C1275 C1276 1.410 1_545 S
C1275 C1283 1.503 . S
C1276 C1275 1.410 1_565 S
C1276 C1277 1.392 . S
C1276 C1279 1.511 . S
C1277 C1273 1.376 . S
C1277 C1276 1.392 . S
C1277 H1289 0.929 . S
C1278 C1274 1.531 . S
C1278 H1290 0.960 . S
C1278 H1291 0.962 . S
C1278 H1292 0.960 . S
C1279 C1276 1.511 . S
C1279 H1293 0.961 . S
C1279 H1294 0.961 . S
C1279 H1295 0.961 . S
C1280 C1281 1.370 . S
C1280 C1282 1.363 . S
C1280 H1296 0.931 . S
C1281 C1280 1.370 . S
C1281 C1285 1.408 . S
C1282 C1280 1.363 . S
C1282 C1283 1.370 . S
C1282 C1286 1.524 1_545 S
C1283 C1275 1.503 . S
C1283 C1282 1.370 . S
C1283 C1284 1.403 . S
C1284 C1283 1.403 . S
C1284 C1285 1.404 . S
C1284 C1287 1.539 . S
C1285 C1281 1.408 . S
C1285 C1284 1.404 . S
C1285 H1297 0.930 . S
C1286 C1282 1.524 1_565 S
C1286 H1298 0.955 1_565 S
C1286 H1299 0.961 . S
C1286 H1300 0.961 . S
C1287 C1284 1.539 . S
C1287 H1301 0.958 . S
C1287 H1302 0.961 . S
C1287 H1303 0.960 . S
H1288 C1272 0.931 . S
H1289 C1277 0.929 . S
H1290 C1278 0.960 . S
H1291 C1278 0.962 . S
H1292 C1278 0.960 . S
H1293 C1279 0.961 . S
H1294 C1279 0.961 . S
H1295 C1279 0.961 . S
H1296 C1280 0.931 . S
H1297 C1285 0.930 . S
H1298 C1286 0.955 1_545 S
H1299 C1286 0.961 . S
H1300 C1286 0.961 . S
H1301 C1287 0.958 . S
H1302 C1287 0.961 . S
H1303 C1287 0.960 . S
C1304 C1305 1.391 . S
C1304 C1306 1.394 . S
C1304 H1320 0.931 . S
C1305 C1304 1.391 . S
C1305 C1309 1.376 . S
C1306 C1304 1.394 . S
C1306 C1307 1.369 . S
C1306 C1310 1.531 . S
C1307 C1306 1.369 . S
C1307 C1308 1.410 . S
C1307 C1315 1.503 . S
C1308 C1307 1.410 . S
C1308 C1309 1.392 . S
C1308 C1311 1.511 . S
C1309 C1305 1.376 . S
C1309 C1308 1.392 . S
C1309 H1321 0.929 . S
C1310 C1306 1.531 . S
C1310 H1322 0.960 . S
C1310 H1323 0.962 . S
C1310 H1324 0.960 . S
C1311 C1308 1.511 . S
C1311 H1325 0.961 . S
C1311 H1326 0.961 . S
C1311 H1327 0.961 . S
C1312 C1313 1.370 . S
C1312 C1314 1.363 . S
C1312 H1328 0.931 . S
C1313 C1312 1.370 . S
C1313 C1317 1.408 . S
C1314 C1312 1.363 . S
C1314 C1315 1.370 . S
C1314 C1318 1.524 . S
C1315 C1307 1.503 . S
C1315 C1314 1.370 . S
C1315 C1316 1.403 . S
C1316 C1315 1.403 . S
C1316 C1317 1.404 . S
C1316 C1319 1.539 . S
C1317 C1313 1.408 . S
C1317 C1316 1.404 . S
C1317 H1329 0.930 . S
C1318 C1314 1.524 . S
C1318 H1330 0.956 . S
C1318 H1331 0.961 . S
C1318 H1332 0.961 . S
C1319 C1316 1.539 . S
C1319 H1333 0.958 . S
C1319 H1334 0.961 . S
C1319 H1335 0.960 . S
H1320 C1304 0.931 . S
H1321 C1309 0.929 . S
H1322 C1310 0.960 . S
H1323 C1310 0.962 . S
H1324 C1310 0.960 . S
H1325 C1311 0.961 . S
H1326 C1311 0.961 . S
H1327 C1311 0.961 . S
H1328 C1312 0.931 . S
H1329 C1317 0.930 . S
H1330 C1318 0.956 . S
H1331 C1318 0.961 . S
H1332 C1318 0.961 . S
H1333 C1319 0.958 . S
H1334 C1319 0.961 . S
H1335 C1319 0.960 . S
C1336 C1337 1.391 . S
C1336 C1338 1.394 . S
C1336 H1352 0.931 . S
C1337 C1336 1.391 . S
C1337 C1341 1.376 . S
C1338 C1336 1.394 . S
C1338 C1339 1.369 . S
C1338 C1342 1.531 . S
C1339 C1338 1.369 . S
C1339 C1340 1.410 . S
C1339 C1347 1.503 . S
C1340 C1339 1.410 . S
C1340 C1341 1.392 . S
C1340 C1343 1.511 . S
C1341 C1337 1.376 . S
C1341 C1340 1.392 . S
C1341 H1353 0.929 . S
C1342 C1338 1.531 . S
C1342 H1354 0.960 1_655 S
C1342 H1355 0.962 . S
C1342 H1356 0.960 . S
C1343 C1340 1.511 . S
C1343 H1357 0.961 . S
C1343 H1358 0.961 . S
C1343 H1359 0.961 . S
C1344 C1345 1.370 1_655 S
C1344 C1346 1.363 . S
C1344 H1360 0.931 . S
C1345 C1344 1.370 1_455 S
C1345 C1349 1.408 . S
C1346 C1344 1.363 . S
C1346 C1347 1.370 . S
C1346 C1350 1.524 . S
C1347 C1339 1.503 . S
C1347 C1346 1.370 . S
C1347 C1348 1.401 . S
C1348 C1347 1.401 . S
C1348 C1349 1.405 1_655 S
C1348 C1351 1.539 1_655 S
C1349 C1345 1.408 . S
C1349 C1348 1.405 1_455 S
C1349 H1361 0.930 . S
C1350 C1346 1.524 . S
C1350 H1362 0.956 . S
C1350 H1363 0.961 . S
C1350 H1364 0.961 . S
C1351 C1348 1.539 1_455 S
C1351 H1365 0.958 . S
C1351 H1366 0.961 . S
C1351 H1367 0.960 1_455 S
H1352 C1336 0.931 . S
H1353 C1341 0.929 . S
H1354 C1342 0.960 1_455 S
H1355 C1342 0.962 . S
H1356 C1342 0.960 . S
H1357 C1343 0.961 . S
H1358 C1343 0.961 . S
H1359 C1343 0.961 . S
H1360 C1344 0.931 . S
H1361 C1349 0.930 . S
H1362 C1350 0.956 . S
H1363 C1350 0.961 . S
H1364 C1350 0.961 . S
H1365 C1351 0.958 . S
H1366 C1351 0.961 . S
H1367 C1351 0.960 1_655 S
C1368 C1369 1.391 . S
C1368 C1370 1.394 . S
C1368 H1384 0.931 . S
C1369 C1368 1.391 . S
C1369 C1373 1.376 . S
C1370 C1368 1.394 . S
C1370 C1371 1.369 . S
C1370 C1374 1.531 . S
C1371 C1370 1.369 . S
C1371 C1372 1.410 . S
C1371 C1379 1.503 . S
C1372 C1371 1.410 . S
C1372 C1373 1.392 . S
C1372 C1375 1.511 . S
C1373 C1369 1.376 . S
C1373 C1372 1.392 . S
C1373 H1385 0.929 . S
C1374 C1370 1.531 . S
C1374 H1386 0.960 . S
C1374 H1387 0.962 . S
C1374 H1388 0.960 . S
C1375 C1372 1.511 . S
C1375 H1389 0.961 . S
C1375 H1390 0.961 . S
C1375 H1391 0.961 . S
C1376 C1377 1.370 . S
C1376 C1378 1.363 . S
C1376 H1392 0.931 . S
C1377 C1376 1.370 . S
C1377 C1381 1.408 . S
C1378 C1376 1.363 . S
C1378 C1379 1.370 . S
C1378 C1382 1.524 . S
C1379 C1371 1.503 . S
C1379 C1378 1.370 . S
C1379 C1380 1.403 . S
C1380 C1379 1.403 . S
C1380 C1381 1.404 . S
C1380 C1383 1.539 . S
C1381 C1377 1.408 . S
C1381 C1380 1.404 . S
C1381 H1393 0.930 . S
C1382 C1378 1.524 . S
C1382 H1394 0.956 . S
C1382 H1395 0.961 . S
C1382 H1396 0.961 . S
C1383 C1380 1.539 . S
C1383 H1397 0.958 . S
C1383 H1398 0.961 . S
C1383 H1399 0.960 . S
H1384 C1368 0.931 . S
H1385 C1373 0.929 . S
H1386 C1374 0.960 . S
H1387 C1374 0.962 . S
H1388 C1374 0.960 . S
H1389 C1375 0.961 . S
H1390 C1375 0.961 . S
H1391 C1375 0.961 . S
H1392 C1376 0.931 . S
H1393 C1381 0.930 . S
H1394 C1382 0.956 . S
H1395 C1382 0.961 . S
H1396 C1382 0.961 . S
H1397 C1383 0.958 . S
H1398 C1383 0.961 . S
H1399 C1383 0.960 . S
C1400 C1401 1.391 . S
C1400 C1402 1.394 . S
C1400 H1416 0.931 . S
C1401 C1400 1.391 . S
C1401 C1405 1.376 . S
C1402 C1400 1.394 . S
C1402 C1403 1.369 . S
C1402 C1406 1.531 . S
C1403 C1402 1.369 . S
C1403 C1404 1.410 . S
C1403 C1411 1.503 . S
C1404 C1403 1.410 . S
C1404 C1405 1.392 . S
C1404 C1407 1.511 . S
C1405 C1401 1.376 . S
C1405 C1404 1.392 . S
C1405 H1417 0.929 1_545 S
C1406 C1402 1.531 . S
C1406 H1418 0.960 . S
C1406 H1419 0.962 . S
C1406 H1420 0.960 . S
C1407 C1404 1.511 . S
C1407 H1421 0.964 . S
C1407 H1422 0.961 . S
C1407 H1423 0.961 . S
C1408 C1409 1.370 . S
C1408 C1410 1.363 . S
C1408 H1424 0.931 . S
C1409 C1408 1.370 . S
C1409 C1413 1.408 . S
C1410 C1408 1.363 . S
C1410 C1411 1.370 . S
C1410 C1414 1.524 . S
C1411 C1403 1.503 . S
C1411 C1410 1.370 . S
C1411 C1412 1.403 . S
C1412 C1411 1.403 . S
C1412 C1413 1.404 . S
C1412 C1415 1.539 . S
C1413 C1409 1.408 . S
C1413 C1412 1.404 . S
C1413 H1425 0.930 . S
C1414 C1410 1.524 . S
C1414 H1426 0.956 . S
C1414 H1427 0.961 . S
C1414 H1428 0.961 . S
C1415 C1412 1.539 . S
C1415 H1429 0.958 . S
C1415 H1430 0.961 . S
C1415 H1431 0.960 . S
H1416 C1400 0.931 . S
H1417 C1405 0.929 1_565 S
H1418 C1406 0.960 . S
H1419 C1406 0.962 . S
H1420 C1406 0.960 . S
H1421 C1407 0.964 . S
H1422 C1407 0.961 . S
H1423 C1407 0.961 . S
H1424 C1408 0.931 . S
H1425 C1413 0.930 . S
H1426 C1414 0.956 . S
H1427 C1414 0.961 . S
H1428 C1414 0.961 . S
H1429 C1415 0.958 . S
H1430 C1415 0.961 . S
H1431 C1415 0.960 . S
C1432 C1433 1.391 . S
C1432 C1434 1.394 . S
C1432 H1448 0.931 . S
C1433 C1432 1.391 . S
C1433 C1437 1.376 . S
C1434 C1432 1.394 . S
C1434 C1435 1.369 . S
C1434 C1438 1.531 . S
C1435 C1434 1.369 . S
C1435 C1436 1.410 . S
C1435 C1443 1.503 . S
C1436 C1435 1.410 . S
C1436 C1437 1.392 . S
C1436 C1439 1.511 . S
C1437 C1433 1.376 . S
C1437 C1436 1.392 . S
C1437 H1449 0.929 . S
C1438 C1434 1.531 . S
C1438 H1450 0.960 . S
C1438 H1451 0.962 . S
C1438 H1452 0.960 . S
C1439 C1436 1.511 . S
C1439 H1453 0.961 . S
C1439 H1454 0.961 . S
C1439 H1455 0.961 . S
C1440 C1441 1.370 . S
C1440 C1442 1.363 . S
C1440 H1456 0.931 . S
C1441 C1440 1.370 . S
C1441 C1445 1.408 . S
C1442 C1440 1.363 . S
C1442 C1443 1.370 . S
C1442 C1446 1.524 . S
C1443 C1435 1.503 . S
C1443 C1442 1.370 . S
C1443 C1444 1.403 . S
C1444 C1443 1.403 . S
C1444 C1445 1.404 . S
C1444 C1447 1.539 . S
C1445 C1441 1.408 . S
C1445 C1444 1.404 . S
C1445 H1457 0.930 . S
C1446 C1442 1.524 . S
C1446 H1458 0.956 . S
C1446 H1459 0.961 . S
C1446 H1460 0.961 . S
C1447 C1444 1.539 . S
C1447 H1461 0.958 . S
C1447 H1462 0.961 . S
C1447 H1463 0.960 . S
H1448 C1432 0.931 . S
H1449 C1437 0.929 . S
H1450 C1438 0.960 . S
H1451 C1438 0.962 . S
H1452 C1438 0.960 . S
H1453 C1439 0.961 . S
H1454 C1439 0.961 . S
H1455 C1439 0.961 . S
H1456 C1440 0.931 . S
H1457 C1445 0.930 . S
H1458 C1446 0.956 . S
H1459 C1446 0.961 . S
H1460 C1446 0.961 . S
H1461 C1447 0.958 . S
H1462 C1447 0.961 . S
H1463 C1447 0.960 . S
C1464 C1465 1.391 . S
C1464 C1466 1.394 . S
C1464 H1480 0.931 . S
C1465 C1464 1.391 . S
C1465 C1469 1.376 . S
C1466 C1464 1.394 . S
C1466 C1467 1.369 1_565 S
C1466 C1470 1.531 1_565 S
C1467 C1466 1.369 1_545 S
C1467 C1468 1.410 1_545 S
C1467 C1475 1.503 . S
C1468 C1467 1.410 1_565 S
C1468 C1469 1.392 . S
C1468 C1471 1.511 . S
C1469 C1465 1.376 . S
C1469 C1468 1.392 . S
C1469 H1481 0.929 . S
C1470 C1466 1.531 1_545 S
C1470 H1482 0.960 . S
C1470 H1483 0.962 1_545 S
C1470 H1484 0.960 . S
C1471 C1468 1.511 . S
C1471 H1485 0.961 . S
C1471 H1486 0.961 . S
C1471 H1487 0.961 1_565 S
C1472 C1473 1.370 . S
C1472 C1474 1.377 . S
C1472 H1488 0.931 . S
C1473 C1472 1.370 . S
C1473 C1477 1.408 . S
C1474 C1472 1.377 . S
C1474 C1475 1.380 . S
C1474 C1478 1.501 1_545 S
C1475 C1467 1.503 . S
C1475 C1474 1.380 . S
C1475 C1476 1.403 . S
C1476 C1475 1.403 . S
C1476 C1477 1.404 . S
C1476 C1479 1.539 . S
C1477 C1473 1.408 . S
C1477 C1476 1.404 . S
C1477 H1489 0.930 . S
C1478 C1474 1.501 1_565 S
C1478 H1490 0.956 . S
C1478 H1491 0.961 . S
C1478 H1492 0.961 . S
C1479 C1476 1.539 . S
C1479 H1493 0.958 . S
C1479 H1494 0.961 . S
C1479 H1495 0.960 . S
H1480 C1464 0.931 . S
H1481 C1469 0.929 . S
H1482 C1470 0.960 . S
H1483 C1470 0.962 1_565 S
H1484 C1470 0.960 . S
H1485 C1471 0.961 . S
H1486 C1471 0.961 . S
H1487 C1471 0.961 1_545 S
H1488 C1472 0.931 . S
H1489 C1477 0.930 . S
H1490 C1478 0.956 . S
H1491 C1478 0.961 . S
H1492 C1478 0.961 . S
H1493 C1479 0.958 . S
H1494 C1479 0.961 . S
H1495 C1479 0.960 . S
C1496 C1497 1.391 . S
C1496 C1498 1.390 . S
C1496 H1512 0.931 1_554 S
C1497 C1496 1.391 . S
C1497 C1501 1.376 . S
C1498 C1496 1.390 . S
C1498 C1499 1.376 . S
C1498 C1502 1.528 1_554 S
C1499 C1498 1.376 . S
C1499 C1500 1.410 . S
C1499 C1507 1.503 . S
C1500 C1499 1.410 . S
C1500 C1501 1.392 . S
C1500 C1503 1.511 . S
C1501 C1497 1.376 . S
C1501 C1500 1.392 . S
C1501 H1513 0.929 . S
C1502 C1498 1.528 1_556 S
C1502 H1514 0.960 . S
C1502 H1515 0.962 1_556 S
C1502 H1516 0.960 . S
C1503 C1500 1.511 . S
C1503 H1517 0.961 . S
C1503 H1518 0.961 . S
C1503 H1519 0.940 1_554 S
C1504 C1505 1.370 . S
C1504 C1506 1.363 . S
C1504 H1520 0.931 . S
C1505 C1504 1.370 . S
C1505 C1509 1.408 1_554 S
C1506 C1504 1.363 . S
C1506 C1507 1.370 . S
C1506 C1510 1.524 . S
C1507 C1499 1.503 . S
C1507 C1506 1.370 . S
C1507 C1508 1.403 1_554 S
C1508 C1507 1.403 1_556 S
C1508 C1509 1.404 . S
C1508 C1511 1.539 . S
C1509 C1505 1.408 1_556 S
C1509 C1508 1.404 . S
C1509 H1521 0.930 . S
C1510 C1506 1.524 . S
C1510 H1522 0.956 . S
C1510 H1523 0.961 . S
C1510 H1524 0.961 . S
C1511 C1508 1.539 . S
C1511 H1525 0.958 . S
C1511 H1526 0.961 . S
C1511 H1527 0.960 . S
H1512 C1496 0.931 1_556 S
H1513 C1501 0.929 . S
H1514 C1502 0.960 . S
H1515 C1502 0.962 1_554 S
H1516 C1502 0.960 . S
H1517 C1503 0.961 . S
H1518 C1503 0.961 . S
H1519 C1503 0.940 1_556 S
H1520 C1504 0.931 . S
H1521 C1509 0.930 . S
H1522 C1510 0.956 . S
H1523 C1510 0.961 . S
H1524 C1510 0.961 . S
H1525 C1511 0.958 . S
H1526 C1511 0.961 . S
H1527 C1511 0.960 . S
C1528 C1529 1.391 . S
C1528 C1530 1.394 . S
C1528 H1544 0.931 . S
C1529 C1528 1.391 . S
C1529 C1533 1.376 . S
C1530 C1528 1.394 . S
C1530 C1531 1.369 . S
C1530 C1534 1.531 . S
C1531 C1530 1.369 . S
C1531 C1532 1.410 . S
C1531 C1539 1.503 . S
C1532 C1531 1.410 . S
C1532 C1533 1.392 . S
C1532 C1535 1.511 . S
C1533 C1529 1.376 . S
C1533 C1532 1.392 . S
C1533 H1545 0.929 . S
C1534 C1530 1.531 . S
C1534 H1546 0.960 . S
C1534 H1547 0.962 . S
C1534 H1548 0.960 . S
C1535 C1532 1.511 . S
C1535 H1549 0.961 . S
C1535 H1550 0.961 . S
C1535 H1551 0.961 . S
C1536 C1537 1.370 . S
C1536 C1538 1.363 . S
C1536 H1552 0.931 . S
C1537 C1536 1.370 . S
C1537 C1541 1.408 . S
C1538 C1536 1.363 . S
C1538 C1539 1.370 . S
C1538 C1542 1.524 . S
C1539 C1531 1.503 . S
C1539 C1538 1.370 . S
C1539 C1540 1.403 . S
C1540 C1539 1.403 . S
C1540 C1541 1.404 . S
C1540 C1543 1.539 . S
C1541 C1537 1.408 . S
C1541 C1540 1.404 . S
C1541 H1553 0.930 . S
C1542 C1538 1.524 . S
C1542 H1554 0.956 . S
C1542 H1555 0.961 . S
C1542 H1556 0.961 . S
C1543 C1540 1.539 . S
C1543 H1557 0.958 . S
C1543 H1558 0.961 . S
C1543 H1559 0.960 . S
H1544 C1528 0.931 . S
H1545 C1533 0.929 . S
H1546 C1534 0.960 . S
H1547 C1534 0.962 . S
H1548 C1534 0.960 . S
H1549 C1535 0.961 . S
H1550 C1535 0.961 . S
H1551 C1535 0.961 . S
H1552 C1536 0.931 . S
H1553 C1541 0.930 . S
H1554 C1542 0.956 . S
H1555 C1542 0.961 . S
H1556 C1542 0.961 . S
H1557 C1543 0.958 . S
H1558 C1543 0.961 . S
H1559 C1543 0.960 . S
C1560 C1561 1.391 . S
C1560 C1562 1.394 . S
C1560 H1576 0.931 . S
C1561 C1560 1.391 . S
C1561 C1565 1.376 . S
C1562 C1560 1.394 . S
C1562 C1563 1.369 . S
C1562 C1566 1.531 . S
C1563 C1562 1.369 . S
C1563 C1564 1.410 . S
C1563 C1571 1.503 . S
C1564 C1563 1.410 . S
C1564 C1565 1.392 . S
C1564 C1567 1.511 . S
C1565 C1561 1.376 . S
C1565 C1564 1.392 . S
C1565 H1577 0.929 . S
C1566 C1562 1.531 . S
C1566 H1578 0.960 . S
C1566 H1579 0.962 . S
C1566 H1580 0.960 . S
C1567 C1564 1.511 . S
C1567 H1581 0.961 . S
C1567 H1582 0.961 . S
C1567 H1583 0.961 . S
C1568 C1569 1.370 . S
C1568 C1570 1.363 . S
C1568 H1584 0.931 . S
C1569 C1568 1.370 . S
C1569 C1573 1.408 . S
C1570 C1568 1.363 . S
C1570 C1571 1.370 . S
C1570 C1574 1.524 . S
C1571 C1563 1.503 . S
C1571 C1570 1.370 . S
C1571 C1572 1.403 . S
C1572 C1571 1.403 . S
C1572 C1573 1.404 . S
C1572 C1575 1.539 . S
C1573 C1569 1.408 . S
C1573 C1572 1.404 . S
C1573 H1585 0.930 . S
C1574 C1570 1.524 . S
C1574 H1586 0.956 . S
C1574 H1587 0.961 . S
C1574 H1588 0.961 . S
C1575 C1572 1.539 . S
C1575 H1589 0.958 . S
C1575 H1590 0.961 . S
C1575 H1591 0.960 . S
H1576 C1560 0.931 . S
H1577 C1565 0.929 . S
H1578 C1566 0.960 . S
H1579 C1566 0.962 . S
H1580 C1566 0.960 . S
H1581 C1567 0.961 . S
H1582 C1567 0.961 . S
H1583 C1567 0.961 . S
H1584 C1568 0.931 . S
H1585 C1573 0.930 . S
H1586 C1574 0.956 . S
H1587 C1574 0.961 . S
H1588 C1574 0.961 . S
H1589 C1575 0.958 . S
H1590 C1575 0.961 . S
H1591 C1575 0.960 . S
C1592 C1593 1.391 . S
C1592 C1594 1.394 . S
C1592 H1608 0.931 . S
C1593 C1592 1.391 . S
C1593 C1597 1.376 . S
C1594 C1592 1.394 . S
C1594 C1595 1.369 . S
C1594 C1598 1.531 . S
C1595 C1594 1.369 . S
C1595 C1596 1.410 . S
C1595 C1603 1.503 . S
C1596 C1595 1.410 . S
C1596 C1597 1.392 . S
C1596 C1599 1.511 . S
C1597 C1593 1.376 . S
C1597 C1596 1.392 . S
C1597 H1609 0.929 . S
C1598 C1594 1.531 . S
C1598 H1610 0.960 . S
C1598 H1611 0.962 . S
C1598 H1612 0.960 . S
C1599 C1596 1.511 . S
C1599 H1613 0.961 . S
C1599 H1614 0.961 . S
C1599 H1615 0.961 . S
C1600 C1601 1.370 . S
C1600 C1602 1.363 . S
C1600 H1616 0.931 . S
C1601 C1600 1.370 . S
C1601 C1605 1.408 . S
C1602 C1600 1.363 . S
C1602 C1603 1.370 . S
C1602 C1606 1.524 . S
C1603 C1595 1.503 . S
C1603 C1602 1.370 . S
C1603 C1604 1.403 . S
C1604 C1603 1.403 . S
C1604 C1605 1.404 . S
C1604 C1607 1.539 . S
C1605 C1601 1.408 . S
C1605 C1604 1.404 . S
C1605 H1617 0.930 . S
C1606 C1602 1.524 . S
C1606 H1618 0.956 . S
C1606 H1619 0.961 . S
C1606 H1620 0.961 . S
C1607 C1604 1.539 . S
C1607 H1621 0.958 . S
C1607 H1622 0.961 . S
C1607 H1623 0.960 . S
H1608 C1592 0.931 . S
H1609 C1597 0.929 . S
H1610 C1598 0.960 . S
H1611 C1598 0.962 . S
H1612 C1598 0.960 . S
H1613 C1599 0.961 . S
H1614 C1599 0.961 . S
H1615 C1599 0.961 . S
H1616 C1600 0.931 . S
H1617 C1605 0.930 . S
H1618 C1606 0.956 . S
H1619 C1606 0.961 . S
H1620 C1606 0.961 . S
H1621 C1607 0.958 . S
H1622 C1607 0.961 . S
H1623 C1607 0.960 . S
C1624 C1625 1.391 . S
C1624 C1626 1.394 . S
C1624 H1640 0.931 . S
C1625 C1624 1.391 . S
C1625 C1629 1.376 . S
C1626 C1624 1.394 . S
C1626 C1627 1.369 . S
C1626 C1630 1.531 . S
C1627 C1626 1.369 . S
C1627 C1628 1.410 . S
C1627 C1635 1.503 . S
C1628 C1627 1.410 . S
C1628 C1629 1.392 . S
C1628 C1631 1.511 . S
C1629 C1625 1.376 . S
C1629 C1628 1.392 . S
C1629 H1641 0.929 . S
C1630 C1626 1.531 . S
C1630 H1642 0.960 . S
C1630 H1643 0.962 . S
C1630 H1644 0.960 . S
C1631 C1628 1.511 . S
C1631 H1645 0.961 . S
C1631 H1646 0.961 . S
C1631 H1647 0.961 . S
C1632 C1633 1.370 . S
C1632 C1634 1.363 . S
C1632 H1648 0.931 . S
C1633 C1632 1.370 . S
C1633 C1637 1.408 . S
C1634 C1632 1.363 . S
C1634 C1635 1.370 . S
C1634 C1638 1.524 . S
C1635 C1627 1.503 . S
C1635 C1634 1.370 . S
C1635 C1636 1.403 . S
C1636 C1635 1.403 . S
C1636 C1637 1.404 . S
C1636 C1639 1.539 . S
C1637 C1633 1.408 . S
C1637 C1636 1.404 . S
C1637 H1649 0.930 . S
C1638 C1634 1.524 . S
C1638 H1650 0.956 . S
C1638 H1651 0.961 . S
C1638 H1652 0.961 . S
C1639 C1636 1.539 . S
C1639 H1653 0.958 . S
C1639 H1654 0.961 . S
C1639 H1655 0.960 . S
H1640 C1624 0.931 . S
H1641 C1629 0.929 . S
H1642 C1630 0.960 . S
H1643 C1630 0.962 . S
H1644 C1630 0.960 . S
H1645 C1631 0.961 . S
H1646 C1631 0.961 . S
H1647 C1631 0.961 . S
H1648 C1632 0.931 . S
H1649 C1637 0.930 . S
H1650 C1638 0.956 . S
H1651 C1638 0.961 . S
H1652 C1638 0.961 . S
H1653 C1639 0.958 . S
H1654 C1639 0.961 . S
H1655 C1639 0.960 . S
C1656 C1657 1.391 . S
C1656 C1658 1.394 . S
C1656 H1672 0.931 . S
C1657 C1656 1.391 . S
C1657 C1661 1.376 . S
C1658 C1656 1.394 . S
C1658 C1659 1.369 . S
C1658 C1662 1.531 . S
C1659 C1658 1.369 . S
C1659 C1660 1.410 . S
C1659 C1667 1.503 . S
C1660 C1659 1.410 . S
C1660 C1661 1.392 . S
C1660 C1663 1.511 . S
C1661 C1657 1.376 . S
C1661 C1660 1.392 . S
C1661 H1673 0.929 . S
C1662 C1658 1.531 . S
C1662 H1674 0.960 . S
C1662 H1675 0.962 . S
C1662 H1676 0.960 . S
C1663 C1660 1.511 . S
C1663 H1677 0.961 . S
C1663 H1678 0.961 . S
C1663 H1679 0.961 . S
C1664 C1665 1.370 . S
C1664 C1666 1.363 . S
C1664 H1680 0.931 . S
C1665 C1664 1.370 . S
C1665 C1669 1.408 . S
C1666 C1664 1.363 . S
C1666 C1667 1.370 . S
C1666 C1670 1.524 . S
C1667 C1659 1.503 . S
C1667 C1666 1.370 . S
C1667 C1668 1.403 . S
C1668 C1667 1.403 . S
C1668 C1669 1.404 . S
C1668 C1671 1.539 . S
C1669 C1665 1.408 . S
C1669 C1668 1.404 . S
C1669 H1681 0.930 . S
C1670 C1666 1.524 . S
C1670 H1682 0.956 . S
C1670 H1683 0.961 . S
C1670 H1684 0.961 . S
C1671 C1668 1.539 . S
C1671 H1685 0.958 . S
C1671 H1686 0.961 . S
C1671 H1687 0.960 . S
H1672 C1656 0.931 . S
H1673 C1661 0.929 . S
H1674 C1662 0.960 . S
H1675 C1662 0.962 . S
H1676 C1662 0.960 . S
H1677 C1663 0.961 . S
H1678 C1663 0.961 . S
H1679 C1663 0.961 . S
H1680 C1664 0.931 . S
H1681 C1669 0.930 . S
H1682 C1670 0.956 . S
H1683 C1670 0.961 . S
H1684 C1670 0.961 . S
H1685 C1671 0.958 . S
H1686 C1671 0.961 . S
H1687 C1671 0.960 . S
C1688 C1689 1.391 . S
C1688 C1690 1.394 . S
C1688 H1704 0.931 . S
C1689 C1688 1.391 . S
C1689 C1693 1.376 . S
C1690 C1688 1.394 . S
C1690 C1691 1.369 . S
C1690 C1694 1.531 . S
C1691 C1690 1.369 . S
C1691 C1692 1.410 . S
C1691 C1699 1.503 . S
C1692 C1691 1.410 . S
C1692 C1693 1.392 . S
C1692 C1695 1.511 . S
C1693 C1689 1.376 . S
C1693 C1692 1.392 . S
C1693 H1705 0.929 . S
C1694 C1690 1.531 . S
C1694 H1706 0.960 . S
C1694 H1707 0.962 . S
C1694 H1708 0.960 . S
C1695 C1692 1.511 . S
C1695 H1709 0.961 . S
C1695 H1710 0.961 . S
C1695 H1711 0.961 . S
C1696 C1697 1.370 . S
C1696 C1698 1.363 . S
C1696 H1712 0.931 . S
C1697 C1696 1.370 . S
C1697 C1701 1.408 . S
C1698 C1696 1.363 . S
C1698 C1699 1.370 . S
C1698 C1702 1.524 . S
C1699 C1691 1.503 . S
C1699 C1698 1.370 . S
C1699 C1700 1.403 . S
C1700 C1699 1.403 . S
C1700 C1701 1.404 . S
C1700 C1703 1.539 . S
C1701 C1697 1.408 . S
C1701 C1700 1.404 . S
C1701 H1713 0.930 . S
C1702 C1698 1.524 . S
C1702 H1714 0.956 . S
C1702 H1715 0.961 . S
C1702 H1716 0.961 . S
C1703 C1700 1.539 . S
C1703 H1717 0.958 . S
C1703 H1718 0.961 . S
C1703 H1719 0.960 . S
H1704 C1688 0.931 . S
H1705 C1693 0.929 . S
H1706 C1694 0.960 . S
H1707 C1694 0.962 . S
H1708 C1694 0.960 . S
H1709 C1695 0.961 . S
H1710 C1695 0.961 . S
H1711 C1695 0.961 . S
H1712 C1696 0.931 . S
H1713 C1701 0.930 . S
H1714 C1702 0.956 . S
H1715 C1702 0.961 . S
H1716 C1702 0.961 . S
H1717 C1703 0.958 . S
H1718 C1703 0.961 . S
H1719 C1703 0.960 . S
C1720 C1721 1.391 . S
C1720 C1722 1.394 . S
C1720 H1736 0.931 . S
C1721 C1720 1.391 . S
C1721 C1725 1.376 . S
C1722 C1720 1.394 . S
C1722 C1723 1.369 . S
C1722 C1726 1.531 . S
C1723 C1722 1.369 . S
C1723 C1724 1.410 . S
C1723 C1731 1.503 . S
C1724 C1723 1.410 . S
C1724 C1725 1.392 . S
C1724 C1727 1.511 . S
C1725 C1721 1.376 . S
C1725 C1724 1.392 . S
C1725 H1737 0.929 . S
C1726 C1722 1.531 . S
C1726 H1738 0.960 . S
C1726 H1739 0.962 . S
C1726 H1740 0.960 . S
C1727 C1724 1.511 . S
C1727 H1741 0.961 . S
C1727 H1742 0.961 . S
C1727 H1743 0.961 . S
C1728 C1729 1.370 1_565 S
C1728 C1730 1.363 . S
C1728 H1744 0.931 1_565 S
C1729 C1728 1.370 1_545 S
C1729 C1733 1.412 . S
C1730 C1728 1.363 . S
C1730 C1731 1.370 . S
C1730 C1734 1.524 . S
C1731 C1723 1.503 . S
C1731 C1730 1.370 . S
C1731 C1732 1.403 . S
C1732 C1731 1.403 . S
C1732 C1733 1.397 1_565 S
C1732 C1735 1.539 . S
C1733 C1729 1.412 . S
C1733 C1732 1.397 1_545 S
C1733 H1745 0.933 . S
C1734 C1730 1.524 . S
C1734 H1746 0.956 . S
C1734 H1747 0.961 . S
C1734 H1748 0.961 . S
C1735 C1732 1.539 . S
C1735 H1749 0.958 . S
C1735 H1750 0.961 . S
C1735 H1751 0.960 . S
H1736 C1720 0.931 . S
H1737 C1725 0.929 . S
H1738 C1726 0.960 . S
H1739 C1726 0.962 . S
H1740 C1726 0.960 . S
H1741 C1727 0.961 . S
H1742 C1727 0.961 . S
H1743 C1727 0.961 . S
H1744 C1728 0.931 1_545 S
H1745 C1733 0.933 . S
H1746 C1734 0.956 . S
H1747 C1734 0.961 . S
H1748 C1734 0.961 . S
H1749 C1735 0.958 . S
H1750 C1735 0.961 . S
H1751 C1735 0.960 . S
C1752 C1753 1.391 . S
C1752 C1754 1.394 . S
C1752 H1768 0.931 . S
C1753 C1752 1.391 . S
C1753 C1757 1.376 . S
C1754 C1752 1.394 . S
C1754 C1755 1.369 . S
C1754 C1758 1.531 . S
C1755 C1754 1.369 . S
C1755 C1756 1.410 . S
C1755 C1763 1.503 . S
C1756 C1755 1.410 . S
C1756 C1757 1.392 . S
C1756 C1759 1.511 . S
C1757 C1753 1.376 . S
C1757 C1756 1.392 . S
C1757 H1769 0.929 . S
C1758 C1754 1.531 . S
C1758 H1770 0.960 . S
C1758 H1771 0.962 . S
C1758 H1772 0.960 . S
C1759 C1756 1.511 . S
C1759 H1773 0.961 . S
C1759 H1774 0.961 . S
C1759 H1775 0.961 . S
C1760 C1761 1.370 . S
C1760 C1762 1.363 . S
C1760 H1776 0.931 . S
C1761 C1760 1.370 . S
C1761 C1765 1.408 . S
C1762 C1760 1.363 . S
C1762 C1763 1.370 . S
C1762 C1766 1.524 . S
C1763 C1755 1.503 . S
C1763 C1762 1.370 . S
C1763 C1764 1.403 . S
C1764 C1763 1.403 . S
C1764 C1765 1.404 . S
C1764 C1767 1.539 . S
C1765 C1761 1.408 . S
C1765 C1764 1.404 . S
C1765 H1777 0.930 . S
C1766 C1762 1.524 . S
C1766 H1778 0.956 . S
C1766 H1779 0.961 . S
C1766 H1780 0.961 . S
C1767 C1764 1.539 . S
C1767 H1781 0.958 . S
C1767 H1782 0.961 . S
C1767 H1783 0.960 . S
H1768 C1752 0.931 . S
H1769 C1757 0.929 . S
H1770 C1758 0.960 . S
H1771 C1758 0.962 . S
H1772 C1758 0.960 . S
H1773 C1759 0.961 . S
H1774 C1759 0.961 . S
H1775 C1759 0.961 . S
H1776 C1760 0.931 . S
H1777 C1765 0.930 . S
H1778 C1766 0.956 . S
H1779 C1766 0.961 . S
H1780 C1766 0.961 . S
H1781 C1767 0.958 . S
H1782 C1767 0.961 . S
H1783 C1767 0.960 . S
C1784 C1785 1.391 . S
C1784 C1786 1.394 . S
C1784 H1800 0.931 . S
C1785 C1784 1.391 . S
C1785 C1789 1.376 . S
C1786 C1784 1.394 . S
C1786 C1787 1.369 . S
C1786 C1790 1.531 . S
C1787 C1786 1.369 . S
C1787 C1788 1.410 . S
C1787 C1795 1.503 . S
C1788 C1787 1.410 . S
C1788 C1789 1.392 . S
C1788 C1791 1.511 . S
C1789 C1785 1.376 . S
C1789 C1788 1.392 . S
C1789 H1801 0.929 . S
C1790 C1786 1.531 . S
C1790 H1802 0.960 . S
C1790 H1803 0.962 . S
C1790 H1804 0.960 . S
C1791 C1788 1.511 . S
C1791 H1805 0.961 . S
C1791 H1806 0.961 . S
C1791 H1807 0.961 . S
C1792 C1793 1.370 . S
C1792 C1794 1.363 . S
C1792 H1808 0.931 . S
C1793 C1792 1.370 . S
C1793 C1797 1.408 . S
C1794 C1792 1.363 . S
C1794 C1795 1.370 . S
C1794 C1798 1.524 . S
C1795 C1787 1.503 . S
C1795 C1794 1.370 . S
C1795 C1796 1.403 . S
C1796 C1795 1.403 . S
C1796 C1797 1.404 . S
C1796 C1799 1.539 . S
C1797 C1793 1.408 . S
C1797 C1796 1.404 . S
C1797 H1809 0.930 . S
C1798 C1794 1.524 . S
C1798 H1810 0.956 . S
C1798 H1811 0.961 . S
C1798 H1812 0.961 . S
C1799 C1796 1.539 . S
C1799 H1813 0.958 . S
C1799 H1814 0.961 . S
C1799 H1815 0.960 . S
H1800 C1784 0.931 . S
H1801 C1789 0.929 . S
H1802 C1790 0.960 . S
H1803 C1790 0.962 . S
H1804 C1790 0.960 . S
H1805 C1791 0.961 . S
H1806 C1791 0.961 . S
H1807 C1791 0.961 . S
H1808 C1792 0.931 . S
H1809 C1797 0.930 . S
H1810 C1798 0.956 . S
H1811 C1798 0.961 . S
H1812 C1798 0.961 . S
H1813 C1799 0.958 . S
H1814 C1799 0.961 . S
H1815 C1799 0.960 . S
C1816 C1817 1.391 . S
C1816 C1818 1.394 . S
C1816 H1832 0.931 . S
C1817 C1816 1.391 . S
C1817 C1821 1.376 . S
C1818 C1816 1.394 . S
C1818 C1819 1.369 . S
C1818 C1822 1.531 . S
C1819 C1818 1.369 . S
C1819 C1820 1.410 . S
C1819 C1827 1.503 . S
C1820 C1819 1.410 . S
C1820 C1821 1.392 . S
C1820 C1823 1.511 . S
C1821 C1817 1.376 . S
C1821 C1820 1.392 . S
C1821 H1833 0.929 . S
C1822 C1818 1.531 . S
C1822 H1834 0.960 . S
C1822 H1835 0.962 . S
C1822 H1836 0.960 . S
C1823 C1820 1.511 . S
C1823 H1837 0.961 . S
C1823 H1838 0.961 . S
C1823 H1839 0.961 . S
C1824 C1825 1.370 . S
C1824 C1826 1.363 . S
C1824 H1840 0.931 . S
C1825 C1824 1.370 . S
C1825 C1829 1.408 . S
C1826 C1824 1.363 . S
C1826 C1827 1.370 . S
C1826 C1830 1.524 . S
C1827 C1819 1.503 . S
C1827 C1826 1.370 . S
C1827 C1828 1.403 . S
C1828 C1827 1.403 . S
C1828 C1829 1.404 . S
C1828 C1831 1.539 . S
C1829 C1825 1.408 . S
C1829 C1828 1.404 . S
C1829 H1841 0.930 . S
C1830 C1826 1.524 . S
C1830 H1842 0.956 . S
C1830 H1843 0.961 . S
C1830 H1844 0.961 . S
C1831 C1828 1.539 . S
C1831 H1845 0.958 . S
C1831 H1846 0.961 . S
C1831 H1847 0.960 . S
H1832 C1816 0.931 . S
H1833 C1821 0.929 . S
H1834 C1822 0.960 . S
H1835 C1822 0.962 . S
H1836 C1822 0.960 . S
H1837 C1823 0.961 . S
H1838 C1823 0.961 . S
H1839 C1823 0.961 . S
H1840 C1824 0.931 . S
H1841 C1829 0.930 . S
H1842 C1830 0.956 . S
H1843 C1830 0.961 . S
H1844 C1830 0.961 . S
H1845 C1831 0.958 . S
H1846 C1831 0.961 . S
H1847 C1831 0.960 . S
C1848 C1849 1.391 . S
C1848 C1850 1.394 . S
C1848 H1864 0.931 1_455 S
C1849 C1848 1.391 . S
C1849 C1853 1.376 . S
C1850 C1848 1.394 . S
C1850 C1851 1.369 . S
C1850 C1854 1.531 1_455 S
C1851 C1850 1.369 . S
C1851 C1852 1.410 . S
C1851 C1859 1.503 . S
C1852 C1851 1.410 . S
C1852 C1853 1.392 . S
C1852 C1855 1.511 . S
C1853 C1849 1.376 . S
C1853 C1852 1.392 . S
C1853 H1865 0.929 . S
C1854 C1850 1.531 1_655 S
C1854 H1866 0.960 . S
C1854 H1867 0.962 . S
C1854 H1868 0.960 . S
C1855 C1852 1.511 . S
C1855 H1869 0.961 . S
C1855 H1870 0.961 . S
C1855 H1871 0.961 . S
C1856 C1857 1.370 . S
C1856 C1858 1.363 . S
C1856 H1872 0.931 . S
C1857 C1856 1.370 . S
C1857 C1861 1.408 . S
C1858 C1856 1.363 . S
C1858 C1859 1.370 . S
C1858 C1862 1.524 . S
C1859 C1851 1.503 . S
C1859 C1858 1.370 . S
C1859 C1860 1.403 . S
C1860 C1859 1.403 . S
C1860 C1861 1.404 . S
C1860 C1863 1.539 . S
C1861 C1857 1.408 . S
C1861 C1860 1.404 . S
C1861 H1873 0.930 . S
C1862 C1858 1.524 . S
C1862 H1874 0.956 . S
C1862 H1875 0.961 . S
C1862 H1876 0.961 . S
C1863 C1860 1.539 . S
C1863 H1877 0.958 . S
C1863 H1878 0.961 . S
C1863 H1879 0.960 . S
H1864 C1848 0.931 1_655 S
H1865 C1853 0.929 . S
H1866 C1854 0.960 . S
H1867 C1854 0.962 . S
H1868 C1854 0.960 . S
H1869 C1855 0.961 . S
H1870 C1855 0.961 . S
H1871 C1855 0.961 . S
H1872 C1856 0.931 . S
H1873 C1861 0.930 . S
H1874 C1862 0.956 . S
H1875 C1862 0.961 . S
H1876 C1862 0.961 . S
H1877 C1863 0.958 . S
H1878 C1863 0.961 . S
H1879 C1863 0.960 . S
C1880 C1881 1.391 . S
C1880 C1882 1.394 . S
C1880 H1896 0.931 . S
C1881 C1880 1.391 . S
C1881 C1885 1.376 . S
C1882 C1880 1.394 . S
C1882 C1883 1.369 . S
C1882 C1886 1.531 . S
C1883 C1882 1.369 . S
C1883 C1884 1.410 . S
C1883 C1891 1.503 . S
C1884 C1883 1.410 . S
C1884 C1885 1.392 . S
C1884 C1887 1.511 . S
C1885 C1881 1.376 . S
C1885 C1884 1.392 . S
C1885 H1897 0.929 . S
C1886 C1882 1.531 . S
C1886 H1898 0.960 . S
C1886 H1899 0.962 . S
C1886 H1900 0.960 . S
C1887 C1884 1.511 . S
C1887 H1901 0.961 . S
C1887 H1902 0.961 . S
C1887 H1903 0.961 . S
C1888 C1889 1.370 . S
C1888 C1890 1.363 . S
C1888 H1904 0.931 . S
C1889 C1888 1.370 . S
C1889 C1893 1.408 . S
C1890 C1888 1.363 . S
C1890 C1891 1.370 . S
C1890 C1894 1.524 . S
C1891 C1883 1.503 . S
C1891 C1890 1.370 . S
C1891 C1892 1.403 . S
C1892 C1891 1.403 . S
C1892 C1893 1.404 . S
C1892 C1895 1.539 . S
C1893 C1889 1.408 . S
C1893 C1892 1.404 . S
C1893 H1905 0.930 . S
C1894 C1890 1.524 . S
C1894 H1906 0.956 . S
C1894 H1907 0.961 . S
C1894 H1908 0.961 . S
C1895 C1892 1.539 . S
C1895 H1909 0.958 . S
C1895 H1910 0.961 . S
C1895 H1911 0.960 . S
H1896 C1880 0.931 . S
H1897 C1885 0.929 . S
H1898 C1886 0.960 . S
H1899 C1886 0.962 . S
H1900 C1886 0.960 . S
H1901 C1887 0.961 . S
H1902 C1887 0.961 . S
H1903 C1887 0.961 . S
H1904 C1888 0.931 . S
H1905 C1893 0.930 . S
H1906 C1894 0.956 . S
H1907 C1894 0.961 . S
H1908 C1894 0.961 . S
H1909 C1895 0.958 . S
H1910 C1895 0.961 . S
H1911 C1895 0.960 . S
C1912 C1913 1.391 . S
C1912 C1914 1.394 . S
C1912 H1928 0.931 . S
C1913 C1912 1.391 . S
C1913 C1917 1.376 . S
C1914 C1912 1.394 . S
C1914 C1915 1.369 . S
C1914 C1918 1.531 . S
C1915 C1914 1.369 . S
C1915 C1916 1.410 . S
C1915 C1923 1.503 . S
C1916 C1915 1.410 . S
C1916 C1917 1.392 . S
C1916 C1919 1.511 . S
C1917 C1913 1.376 . S
C1917 C1916 1.392 . S
C1917 H1929 0.929 . S
C1918 C1914 1.531 . S
C1918 H1930 0.960 . S
C1918 H1931 0.962 . S
C1918 H1932 0.960 . S
C1919 C1916 1.511 . S
C1919 H1933 0.961 . S
C1919 H1934 0.961 . S
C1919 H1935 0.961 . S
C1920 C1921 1.367 1_564 S
C1920 C1922 1.361 1_554 S
C1920 H1936 0.937 . S
C1921 C1920 1.367 1_546 S
C1921 C1925 1.408 . S
C1922 C1920 1.361 1_556 S
C1922 C1923 1.370 . S
C1922 C1926 1.497 1_556 S
C1923 C1915 1.503 . S
C1923 C1922 1.370 . S
C1923 C1924 1.403 . S
C1924 C1923 1.403 . S
C1924 C1925 1.404 1_565 S
C1924 C1927 1.539 . S
C1925 C1921 1.408 . S
C1925 C1924 1.404 1_545 S
C1925 H1937 0.930 . S
C1926 C1922 1.497 1_554 S
C1926 H1938 0.941 1_554 S
C1926 H1939 0.958 1_554 S
C1926 H1940 1.008 . S
C1927 C1924 1.539 . S
C1927 H1941 0.958 . S
C1927 H1942 0.961 . S
C1927 H1943 0.960 . S
H1928 C1912 0.931 . S
H1929 C1917 0.929 . S
H1930 C1918 0.960 . S
H1931 C1918 0.962 . S
H1932 C1918 0.960 . S
H1933 C1919 0.961 . S
H1934 C1919 0.961 . S
H1935 C1919 0.961 . S
H1936 C1920 0.937 . S
H1937 C1925 0.930 . S
H1938 C1926 0.941 1_556 S
H1939 C1926 0.958 1_556 S
H1940 C1926 1.008 . S
H1941 C1927 0.958 . S
H1942 C1927 0.961 . S
H1943 C1927 0.960 . S
C1944 C1945 1.391 . S
C1944 C1946 1.394 1_455 S
C1944 H1960 0.931 . S
C1945 C1944 1.391 . S
C1945 C1949 1.376 . S
C1946 C1944 1.394 1_655 S
C1946 C1947 1.369 . S
C1946 C1950 1.531 . S
C1947 C1946 1.369 . S
C1947 C1948 1.410 1_655 S
C1947 C1955 1.503 . S
C1948 C1947 1.410 1_455 S
C1948 C1949 1.392 . S
C1948 C1951 1.511 . S
C1949 C1945 1.376 . S
C1949 C1948 1.392 . S
C1949 H1961 0.929 . S
C1950 C1946 1.531 . S
C1950 H1962 0.960 . S
C1950 H1963 0.962 . S
C1950 H1964 0.960 . S
C1951 C1948 1.511 . S
C1951 H1965 0.961 . S
C1951 H1966 0.961 . S
C1951 H1967 0.961 . S
C1952 C1953 1.370 . S
C1952 C1954 1.363 . S
C1952 H1968 0.931 . S
C1953 C1952 1.370 . S
C1953 C1957 1.408 . S
C1954 C1952 1.363 . S
C1954 C1955 1.370 . S
C1954 C1958 1.524 . S
C1955 C1947 1.503 . S
C1955 C1954 1.370 . S
C1955 C1956 1.403 . S
C1956 C1955 1.403 . S
C1956 C1957 1.404 . S
C1956 C1959 1.539 . S
C1957 C1953 1.408 . S
C1957 C1956 1.404 . S
C1957 H1969 0.930 . S
C1958 C1954 1.524 . S
C1958 H1970 0.956 . S
C1958 H1971 0.961 . S
C1958 H1972 0.961 . S
C1959 C1956 1.539 . S
C1959 H1973 0.958 . S
C1959 H1974 0.961 . S
C1959 H1975 0.960 1_655 S
H1960 C1944 0.931 . S
H1961 C1949 0.929 . S
H1962 C1950 0.960 . S
H1963 C1950 0.962 . S
H1964 C1950 0.960 . S
H1965 C1951 0.961 . S
H1966 C1951 0.961 . S
H1967 C1951 0.961 . S
H1968 C1952 0.931 . S
H1969 C1957 0.930 . S
H1970 C1958 0.956 . S
H1971 C1958 0.961 . S
H1972 C1958 0.961 . S
H1973 C1959 0.958 . S
H1974 C1959 0.961 . S
H1975 C1959 0.960 1_455 S
C1976 C1977 1.391 . S
C1976 C1978 1.394 . S
C1976 H1992 0.931 . S
C1977 C1976 1.391 . S
C1977 C1981 1.376 . S
C1978 C1976 1.394 . S
C1978 C1979 1.369 . S
C1978 C1982 1.531 . S
C1979 C1978 1.369 . S
C1979 C1980 1.410 . S
C1979 C1987 1.503 . S
C1980 C1979 1.410 . S
C1980 C1981 1.392 . S
C1980 C1983 1.511 . S
C1981 C1977 1.376 . S
C1981 C1980 1.392 . S
C1981 H1993 0.929 . S
C1982 C1978 1.531 . S
C1982 H1994 0.960 . S
C1982 H1995 0.962 . S
C1982 H1996 0.960 . S
C1983 C1980 1.511 . S
C1983 H1997 0.961 . S
C1983 H1998 0.961 . S
C1983 H1999 0.961 . S
C1984 C1985 1.370 . S
C1984 C1986 1.363 . S
C1984 H2000 0.931 . S
C1985 C1984 1.370 . S
C1985 C1989 1.408 . S
C1986 C1984 1.363 . S
C1986 C1987 1.370 . S
C1986 C1990 1.524 . S
C1987 C1979 1.503 . S
C1987 C1986 1.370 . S
C1987 C1988 1.403 . S
C1988 C1987 1.403 . S
C1988 C1989 1.404 . S
C1988 C1991 1.539 . S
C1989 C1985 1.408 . S
C1989 C1988 1.404 . S
C1989 H2001 0.930 . S
C1990 C1986 1.524 . S
C1990 H2002 0.956 . S
C1990 H2003 0.961 . S
C1990 H2004 0.961 . S
C1991 C1988 1.539 . S
C1991 H2005 0.958 . S
C1991 H2006 0.961 . S
C1991 H2007 0.960 . S
H1992 C1976 0.931 . S
H1993 C1981 0.929 . S
H1994 C1982 0.960 . S
H1995 C1982 0.962 . S
H1996 C1982 0.960 . S
H1997 C1983 0.961 . S
H1998 C1983 0.961 . S
H1999 C1983 0.961 . S
H2000 C1984 0.931 . S
H2001 C1989 0.930 . S
H2002 C1990 0.956 . S
H2003 C1990 0.961 . S
H2004 C1990 0.961 . S
H2005 C1991 0.958 . S
H2006 C1991 0.961 . S
H2007 C1991 0.960 . S
C2008 C2009 1.391 . S
C2008 C2010 1.394 . S
C2008 H2024 0.931 . S
C2009 C2008 1.391 . S
C2009 C2013 1.376 . S
C2010 C2008 1.394 . S
C2010 C2011 1.369 . S
C2010 C2014 1.531 . S
C2011 C2010 1.369 . S
C2011 C2012 1.410 . S
C2011 C2019 1.503 . S
C2012 C2011 1.410 . S
C2012 C2013 1.392 . S
C2012 C2015 1.511 . S
C2013 C2009 1.376 . S
C2013 C2012 1.392 . S
C2013 H2025 0.929 . S
C2014 C2010 1.531 . S
C2014 H2026 0.960 . S
C2014 H2027 0.962 . S
C2014 H2028 0.960 . S
C2015 C2012 1.511 . S
C2015 H2029 0.961 . S
C2015 H2030 0.961 . S
C2015 H2031 0.961 . S
C2016 C2017 1.370 . S
C2016 C2018 1.363 . S
C2016 H2032 0.931 . S
C2017 C2016 1.370 . S
C2017 C2021 1.408 . S
C2018 C2016 1.363 . S
C2018 C2019 1.370 . S
C2018 C2022 1.524 . S
C2019 C2011 1.503 . S
C2019 C2018 1.370 . S
C2019 C2020 1.403 . S
C2020 C2019 1.403 . S
C2020 C2021 1.404 . S
C2020 C2023 1.539 . S
C2021 C2017 1.408 . S
C2021 C2020 1.404 . S
C2021 H2033 0.930 . S
C2022 C2018 1.524 . S
C2022 H2034 0.956 . S
C2022 H2035 0.961 . S
C2022 H2036 0.961 . S
C2023 C2020 1.539 . S
C2023 H2037 0.958 . S
C2023 H2038 0.961 . S
C2023 H2039 0.960 . S
H2024 C2008 0.931 . S
H2025 C2013 0.929 . S
H2026 C2014 0.960 . S
H2027 C2014 0.962 . S
H2028 C2014 0.960 . S
H2029 C2015 0.961 . S
H2030 C2015 0.961 . S
H2031 C2015 0.961 . S
H2032 C2016 0.931 . S
H2033 C2021 0.930 . S
H2034 C2022 0.956 . S
H2035 C2022 0.961 . S
H2036 C2022 0.961 . S
H2037 C2023 0.958 . S
H2038 C2023 0.961 . S
H2039 C2023 0.960 . S
C2040 C2041 1.391 . S
C2040 C2042 1.394 . S
C2040 H2056 0.931 . S
C2041 C2040 1.391 . S
C2041 C2045 1.376 . S
C2042 C2040 1.394 . S
C2042 C2043 1.369 . S
C2042 C2046 1.531 . S
C2043 C2042 1.369 . S
C2043 C2044 1.410 . S
C2043 C2051 1.503 . S
C2044 C2043 1.410 . S
C2044 C2045 1.392 . S
C2044 C2047 1.511 . S
C2045 C2041 1.376 . S
C2045 C2044 1.392 . S
C2045 H2057 0.929 . S
C2046 C2042 1.531 . S
C2046 H2058 0.960 . S
C2046 H2059 0.962 . S
C2046 H2060 0.960 . S
C2047 C2044 1.511 . S
C2047 H2061 0.961 . S
C2047 H2062 0.961 . S
C2047 H2063 0.961 . S
C2048 C2049 1.370 . S
C2048 C2050 1.363 . S
C2048 H2064 0.931 . S
C2049 C2048 1.370 . S
C2049 C2053 1.408 . S
C2050 C2048 1.363 . S
C2050 C2051 1.370 . S
C2050 C2054 1.524 . S
C2051 C2043 1.503 . S
C2051 C2050 1.370 . S
C2051 C2052 1.403 . S
C2052 C2051 1.403 . S
C2052 C2053 1.404 . S
C2052 C2055 1.539 . S
C2053 C2049 1.408 . S
C2053 C2052 1.404 . S
C2053 H2065 0.930 . S
C2054 C2050 1.524 . S
C2054 H2066 0.956 . S
C2054 H2067 0.961 . S
C2054 H2068 0.961 . S
C2055 C2052 1.539 . S
C2055 H2069 0.958 . S
C2055 H2070 0.961 . S
C2055 H2071 0.960 . S
H2056 C2040 0.931 . S
H2057 C2045 0.929 . S
H2058 C2046 0.960 . S
H2059 C2046 0.962 . S
H2060 C2046 0.960 . S
H2061 C2047 0.961 . S
H2062 C2047 0.961 . S
H2063 C2047 0.961 . S
H2064 C2048 0.931 . S
H2065 C2053 0.930 . S
H2066 C2054 0.956 . S
H2067 C2054 0.961 . S
H2068 C2054 0.961 . S
H2069 C2055 0.958 . S
H2070 C2055 0.961 . S
H2071 C2055 0.960 . S
C2072 C2073 1.391 . S
C2072 C2074 1.394 . S
C2072 H2088 0.931 . S
C2073 C2072 1.391 . S
C2073 C2077 1.376 . S
C2074 C2072 1.394 . S
C2074 C2075 1.369 . S
C2074 C2078 1.531 . S
C2075 C2074 1.369 . S
C2075 C2076 1.410 . S
C2075 C2083 1.503 . S
C2076 C2075 1.410 . S
C2076 C2077 1.392 . S
C2076 C2079 1.511 . S
C2077 C2073 1.376 . S
C2077 C2076 1.392 . S
C2077 H2089 0.929 . S
C2078 C2074 1.531 . S
C2078 H2090 0.960 . S
C2078 H2091 0.962 . S
C2078 H2092 0.960 . S
C2079 C2076 1.511 . S
C2079 H2093 0.961 . S
C2079 H2094 0.961 . S
C2079 H2095 0.961 . S
C2080 C2081 1.370 . S
C2080 C2082 1.363 . S
C2080 H2096 0.931 . S
C2081 C2080 1.370 . S
C2081 C2085 1.408 . S
C2082 C2080 1.363 . S
C2082 C2083 1.370 . S
C2082 C2086 1.524 . S
C2083 C2075 1.503 . S
C2083 C2082 1.370 . S
C2083 C2084 1.403 . S
C2084 C2083 1.403 . S
C2084 C2085 1.404 . S
C2084 C2087 1.539 . S
C2085 C2081 1.408 . S
C2085 C2084 1.404 . S
C2085 H2097 0.930 . S
C2086 C2082 1.524 . S
C2086 H2098 0.956 . S
C2086 H2099 0.961 . S
C2086 H2100 0.961 . S
C2087 C2084 1.539 . S
C2087 H2101 0.958 . S
C2087 H2102 0.961 . S
C2087 H2103 0.960 . S
H2088 C2072 0.931 . S
H2089 C2077 0.929 . S
H2090 C2078 0.960 . S
H2091 C2078 0.962 . S
H2092 C2078 0.960 . S
H2093 C2079 0.961 . S
H2094 C2079 0.961 . S
H2095 C2079 0.961 . S
H2096 C2080 0.931 . S
H2097 C2085 0.930 . S
H2098 C2086 0.956 . S
H2099 C2086 0.961 . S
H2100 C2086 0.961 . S
H2101 C2087 0.958 . S
H2102 C2087 0.961 . S
H2103 C2087 0.960 . S
C2104 C2105 1.391 . S
C2104 C2106 1.394 . S
C2104 H2120 0.931 . S
C2105 C2104 1.391 . S
C2105 C2109 1.376 . S
C2106 C2104 1.394 . S
C2106 C2107 1.369 . S
C2106 C2110 1.531 . S
C2107 C2106 1.369 . S
C2107 C2108 1.410 . S
C2107 C2115 1.503 . S
C2108 C2107 1.410 . S
C2108 C2109 1.392 . S
C2108 C2111 1.511 . S
C2109 C2105 1.376 . S
C2109 C2108 1.392 . S
C2109 H2121 0.929 . S
C2110 C2106 1.531 . S
C2110 H2122 0.960 . S
C2110 H2123 0.962 . S
C2110 H2124 0.960 . S
C2111 C2108 1.511 . S
C2111 H2125 0.961 . S
C2111 H2126 0.961 . S
C2111 H2127 0.961 . S
C2112 C2113 1.370 . S
C2112 C2114 1.363 . S
C2112 H2128 0.931 . S
C2113 C2112 1.370 . S
C2113 C2117 1.408 . S
C2114 C2112 1.363 . S
C2114 C2115 1.370 . S
C2114 C2118 1.524 . S
C2115 C2107 1.503 . S
C2115 C2114 1.370 . S
C2115 C2116 1.403 . S
C2116 C2115 1.403 . S
C2116 C2117 1.404 . S
C2116 C2119 1.539 . S
C2117 C2113 1.408 . S
C2117 C2116 1.404 . S
C2117 H2129 0.930 . S
C2118 C2114 1.524 . S
C2118 H2130 0.956 . S
C2118 H2131 0.961 . S
C2118 H2132 0.961 . S
C2119 C2116 1.539 . S
C2119 H2133 0.958 . S
C2119 H2134 0.961 . S
C2119 H2135 0.960 . S
H2120 C2104 0.931 . S
H2121 C2109 0.929 . S
H2122 C2110 0.960 . S
H2123 C2110 0.962 . S
H2124 C2110 0.960 . S
H2125 C2111 0.961 . S
H2126 C2111 0.961 . S
H2127 C2111 0.961 . S
H2128 C2112 0.931 . S
H2129 C2117 0.930 . S
H2130 C2118 0.956 . S
H2131 C2118 0.961 . S
H2132 C2118 0.961 . S
H2133 C2119 0.958 . S
H2134 C2119 0.961 . S
H2135 C2119 0.960 . S
C2136 C2137 1.391 . S
C2136 C2138 1.394 . S
C2136 H2152 0.931 . S
C2137 C2136 1.391 . S
C2137 C2141 1.376 . S
C2138 C2136 1.394 . S
C2138 C2139 1.369 . S
C2138 C2142 1.531 . S
C2139 C2138 1.369 . S
C2139 C2140 1.410 . S
C2139 C2147 1.503 . S
C2140 C2139 1.410 . S
C2140 C2141 1.392 . S
C2140 C2143 1.511 . S
C2141 C2137 1.376 . S
C2141 C2140 1.392 . S
C2141 H2153 0.929 . S
C2142 C2138 1.531 . S
C2142 H2154 0.960 . S
C2142 H2155 0.962 . S
C2142 H2156 0.960 . S
C2143 C2140 1.511 . S
C2143 H2157 0.961 . S
C2143 H2158 0.961 . S
C2143 H2159 0.961 . S
C2144 C2145 1.370 . S
C2144 C2146 1.363 . S
C2144 H2160 0.931 . S
C2145 C2144 1.370 . S
C2145 C2149 1.408 . S
C2146 C2144 1.363 . S
C2146 C2147 1.370 . S
C2146 C2150 1.524 . S
C2147 C2139 1.503 . S
C2147 C2146 1.370 . S
C2147 C2148 1.403 . S
C2148 C2147 1.403 . S
C2148 C2149 1.404 . S
C2148 C2151 1.539 . S
C2149 C2145 1.408 . S
C2149 C2148 1.404 . S
C2149 H2161 0.930 . S
C2150 C2146 1.524 . S
C2150 H2162 0.956 . S
C2150 H2163 0.961 . S
C2150 H2164 0.961 . S
C2151 C2148 1.539 . S
C2151 H2165 0.958 . S
C2151 H2166 0.961 . S
C2151 H2167 0.960 . S
H2152 C2136 0.931 . S
H2153 C2141 0.929 . S
H2154 C2142 0.960 . S
H2155 C2142 0.962 . S
H2156 C2142 0.960 . S
H2157 C2143 0.961 . S
H2158 C2143 0.961 . S
H2159 C2143 0.961 . S
H2160 C2144 0.931 . S
H2161 C2149 0.930 . S
H2162 C2150 0.956 . S
H2163 C2150 0.961 . S
H2164 C2150 0.961 . S
H2165 C2151 0.958 . S
H2166 C2151 0.961 . S
H2167 C2151 0.960 . S
C2168 C2169 1.391 . S
C2168 C2170 1.394 . S
C2168 H2184 0.931 . S
C2169 C2168 1.391 . S
C2169 C2173 1.376 . S
C2170 C2168 1.394 . S
C2170 C2171 1.369 . S
C2170 C2174 1.531 . S
C2171 C2170 1.369 . S
C2171 C2172 1.410 . S
C2171 C2179 1.503 . S
C2172 C2171 1.410 . S
C2172 C2173 1.392 . S
C2172 C2175 1.511 . S
C2173 C2169 1.376 . S
C2173 C2172 1.392 . S
C2173 H2185 0.929 . S
C2174 C2170 1.531 . S
C2174 H2186 0.960 . S
C2174 H2187 0.962 . S
C2174 H2188 0.960 . S
C2175 C2172 1.511 . S
C2175 H2189 0.961 . S
C2175 H2190 0.961 . S
C2175 H2191 0.961 . S
C2176 C2177 1.370 . S
C2176 C2178 1.363 . S
C2176 H2192 0.931 . S
C2177 C2176 1.370 . S
C2177 C2181 1.408 . S
C2178 C2176 1.363 . S
C2178 C2179 1.370 . S
C2178 C2182 1.524 . S
C2179 C2171 1.503 . S
C2179 C2178 1.370 . S
C2179 C2180 1.403 . S
C2180 C2179 1.403 . S
C2180 C2181 1.404 . S
C2180 C2183 1.539 . S
C2181 C2177 1.408 . S
C2181 C2180 1.404 . S
C2181 H2193 0.930 . S
C2182 C2178 1.524 . S
C2182 H2194 0.956 . S
C2182 H2195 0.961 . S
C2182 H2196 0.961 . S
C2183 C2180 1.539 . S
C2183 H2197 0.958 . S
C2183 H2198 0.961 . S
C2183 H2199 0.960 . S
H2184 C2168 0.931 . S
H2185 C2173 0.929 . S
H2186 C2174 0.960 . S
H2187 C2174 0.962 . S
H2188 C2174 0.960 . S
H2189 C2175 0.961 . S
H2190 C2175 0.961 . S
H2191 C2175 0.961 . S
H2192 C2176 0.931 . S
H2193 C2181 0.930 . S
H2194 C2182 0.956 . S
H2195 C2182 0.961 . S
H2196 C2182 0.961 . S
H2197 C2183 0.958 . S
H2198 C2183 0.961 . S
H2199 C2183 0.960 . S
C2200 C2201 1.391 . S
C2200 C2202 1.394 . S
C2200 H2216 0.931 . S
C2201 C2200 1.391 . S
C2201 C2205 1.376 . S
C2202 C2200 1.394 . S
C2202 C2203 1.369 . S
C2202 C2206 1.531 . S
C2203 C2202 1.369 . S
C2203 C2204 1.410 . S
C2203 C2211 1.503 . S
C2204 C2203 1.410 . S
C2204 C2205 1.392 . S
C2204 C2207 1.511 . S
C2205 C2201 1.376 . S
C2205 C2204 1.392 . S
C2205 H2217 0.929 . S
C2206 C2202 1.531 . S
C2206 H2218 0.960 . S
C2206 H2219 0.962 . S
C2206 H2220 0.960 . S
C2207 C2204 1.511 . S
C2207 H2221 0.961 . S
C2207 H2222 0.961 . S
C2207 H2223 0.961 . S
C2208 C2209 1.370 . S
C2208 C2210 1.363 . S
C2208 H2224 0.931 . S
C2209 C2208 1.370 . S
C2209 C2213 1.408 . S
C2210 C2208 1.363 . S
C2210 C2211 1.370 . S
C2210 C2214 1.524 . S
C2211 C2203 1.503 . S
C2211 C2210 1.370 . S
C2211 C2212 1.403 . S
C2212 C2211 1.403 . S
C2212 C2213 1.404 . S
C2212 C2215 1.539 . S
C2213 C2209 1.408 . S
C2213 C2212 1.404 . S
C2213 H2225 0.930 . S
C2214 C2210 1.524 . S
C2214 H2226 0.956 . S
C2214 H2227 0.961 . S
C2214 H2228 0.961 . S
C2215 C2212 1.539 . S
C2215 H2229 0.958 . S
C2215 H2230 0.961 . S
C2215 H2231 0.960 . S
H2216 C2200 0.931 . S
H2217 C2205 0.929 . S
H2218 C2206 0.960 . S
H2219 C2206 0.962 . S
H2220 C2206 0.960 . S
H2221 C2207 0.961 . S
H2222 C2207 0.961 . S
H2223 C2207 0.961 . S
H2224 C2208 0.931 . S
H2225 C2213 0.930 . S
H2226 C2214 0.956 . S
H2227 C2214 0.961 . S
H2228 C2214 0.961 . S
H2229 C2215 0.958 . S
H2230 C2215 0.961 . S
H2231 C2215 0.960 . S
C2232 C2233 1.391 1_556 S
C2232 C2234 1.394 . S
C2232 H2248 0.931 . S
C2233 C2232 1.391 1_554 S
C2233 C2237 1.376 . S
C2234 C2232 1.394 . S
C2234 C2235 1.369 . S
C2234 C2238 1.531 . S
C2235 C2234 1.369 . S
C2235 C2236 1.410 1_556 S
C2235 C2243 1.503 . S
C2236 C2235 1.410 1_554 S
C2236 C2237 1.392 . S
C2236 C2239 1.511 . S
C2237 C2233 1.376 . S
C2237 C2236 1.392 . S
C2237 H2249 0.929 . S
C2238 C2234 1.531 . S
C2238 H2250 0.960 . S
C2238 H2251 0.962 . S
C2238 H2252 0.960 . S
C2239 C2236 1.511 . S
C2239 H2253 0.961 . S
C2239 H2254 0.961 . S
C2239 H2255 0.961 . S
C2240 C2241 1.370 . S
C2240 C2242 1.363 . S
C2240 H2256 0.931 . S
C2241 C2240 1.370 . S
C2241 C2245 1.408 . S
C2242 C2240 1.363 . S
C2242 C2243 1.370 . S
C2242 C2246 1.524 1_556 S
C2243 C2235 1.503 . S
C2243 C2242 1.370 . S
C2243 C2244 1.403 . S
C2244 C2243 1.403 . S
C2244 C2245 1.404 . S
C2244 C2247 1.539 . S
C2245 C2241 1.408 . S
C2245 C2244 1.404 . S
C2245 H2257 0.930 . S
C2246 C2242 1.524 1_554 S
C2246 H2258 0.956 1_554 S
C2246 H2259 0.960 . S
C2246 H2260 0.961 . S
C2247 C2244 1.539 . S
C2247 H2261 0.958 . S
C2247 H2262 0.961 . S
C2247 H2263 0.960 . S
H2248 C2232 0.931 . S
H2249 C2237 0.929 . S
H2250 C2238 0.960 . S
H2251 C2238 0.962 . S
H2252 C2238 0.960 . S
H2253 C2239 0.961 . S
H2254 C2239 0.961 . S
H2255 C2239 0.961 . S
H2256 C2240 0.931 . S
H2257 C2245 0.930 . S
H2258 C2246 0.956 1_556 S
H2259 C2246 0.960 . S
H2260 C2246 0.961 . S
H2261 C2247 0.958 . S
H2262 C2247 0.961 . S
H2263 C2247 0.960 . S
C2264 C2265 1.391 . S
C2264 C2266 1.394 . S
C2264 H2280 0.937 . S
C2265 C2264 1.391 . S
C2265 C2269 1.376 . S
C2266 C2264 1.394 . S
C2266 C2267 1.369 . S
C2266 C2270 1.531 1_554 S
C2267 C2266 1.369 . S
C2267 C2268 1.410 . S
C2267 C2275 1.503 . S
C2268 C2267 1.410 . S
C2268 C2269 1.392 . S
C2268 C2271 1.511 . S
C2269 C2265 1.376 . S
C2269 C2268 1.392 . S
C2269 H2281 0.929 . S
C2270 C2266 1.531 1_556 S
C2270 H2282 0.960 . S
C2270 H2283 0.962 . S
C2270 H2284 0.960 . S
C2271 C2268 1.511 . S
C2271 H2285 0.961 . S
C2271 H2286 0.961 . S
C2271 H2287 0.961 . S
C2272 C2273 1.370 . S
C2272 C2274 1.363 . S
C2272 H2288 0.931 . S
C2273 C2272 1.370 . S
C2273 C2277 1.408 . S
C2274 C2272 1.363 . S
C2274 C2275 1.370 . S
C2274 C2278 1.524 . S
C2275 C2267 1.503 . S
C2275 C2274 1.370 . S
C2275 C2276 1.403 . S
C2276 C2275 1.403 . S
C2276 C2277 1.404 . S
C2276 C2279 1.539 . S
C2277 C2273 1.408 . S
C2277 C2276 1.404 . S
C2277 H2289 0.930 . S
C2278 C2274 1.524 . S
C2278 H2290 0.956 1_554 S
C2278 H2291 0.961 . S
C2278 H2292 0.961 . S
C2279 C2276 1.539 . S
C2279 H2293 0.958 . S
C2279 H2294 0.961 . S
C2279 H2295 0.960 . S
H2280 C2264 0.937 . S
H2281 C2269 0.929 . S
H2282 C2270 0.960 . S
H2283 C2270 0.962 . S
H2284 C2270 0.960 . S
H2285 C2271 0.961 . S
H2286 C2271 0.961 . S
H2287 C2271 0.961 . S
H2288 C2272 0.931 . S
H2289 C2277 0.930 . S
H2290 C2278 0.956 1_556 S
H2291 C2278 0.961 . S
H2292 C2278 0.961 . S
H2293 C2279 0.958 . S
H2294 C2279 0.961 . S
H2295 C2279 0.960 . S
C2296 C2297 1.391 . S
C2296 C2298 1.394 . S
C2296 H2312 0.931 . S
C2297 C2296 1.391 . S
C2297 C2301 1.376 . S
C2298 C2296 1.394 . S
C2298 C2299 1.369 . S
C2298 C2302 1.531 . S
C2299 C2298 1.369 . S
C2299 C2300 1.410 . S
C2299 C2307 1.503 . S
C2300 C2299 1.410 . S
C2300 C2301 1.392 . S
C2300 C2303 1.511 . S
C2301 C2297 1.376 . S
C2301 C2300 1.392 . S
C2301 H2313 0.929 . S
C2302 C2298 1.531 . S
C2302 H2314 0.960 . S
C2302 H2315 0.962 . S
C2302 H2316 0.960 . S
C2303 C2300 1.511 . S
C2303 H2317 0.961 . S
C2303 H2318 0.961 . S
C2303 H2319 0.961 . S
C2304 C2305 1.370 . S
C2304 C2306 1.363 . S
C2304 H2320 0.931 . S
C2305 C2304 1.370 . S
C2305 C2309 1.408 . S
C2306 C2304 1.363 . S
C2306 C2307 1.370 . S
C2306 C2310 1.524 . S
C2307 C2299 1.503 . S
C2307 C2306 1.370 . S
C2307 C2308 1.403 . S
C2308 C2307 1.403 . S
C2308 C2309 1.404 . S
C2308 C2311 1.539 . S
C2309 C2305 1.408 . S
C2309 C2308 1.404 . S
C2309 H2321 0.930 . S
C2310 C2306 1.524 . S
C2310 H2322 0.956 . S
C2310 H2323 0.961 . S
C2310 H2324 0.961 . S
C2311 C2308 1.539 . S
C2311 H2325 0.958 . S
C2311 H2326 0.961 . S
C2311 H2327 0.960 . S
H2312 C2296 0.931 . S
H2313 C2301 0.929 . S
H2314 C2302 0.960 . S
H2315 C2302 0.962 . S
H2316 C2302 0.960 . S
H2317 C2303 0.961 . S
H2318 C2303 0.961 . S
H2319 C2303 0.961 . S
H2320 C2304 0.931 . S
H2321 C2309 0.930 . S
H2322 C2310 0.956 . S
H2323 C2310 0.961 . S
H2324 C2310 0.961 . S
H2325 C2311 0.958 . S
H2326 C2311 0.961 . S
H2327 C2311 0.960 . S
C2328 C2329 1.391 . S
C2328 C2330 1.394 . S
C2328 H2344 0.931 . S
C2329 C2328 1.391 . S
C2329 C2333 1.376 . S
C2330 C2328 1.394 . S
C2330 C2331 1.369 . S
C2330 C2334 1.531 . S
C2331 C2330 1.369 . S
C2331 C2332 1.410 . S
C2331 C2339 1.503 . S
C2332 C2331 1.410 . S
C2332 C2333 1.392 . S
C2332 C2335 1.511 . S
C2333 C2329 1.376 . S
C2333 C2332 1.392 . S
C2333 H2345 0.929 . S
C2334 C2330 1.531 . S
C2334 H2346 0.960 . S
C2334 H2347 0.962 . S
C2334 H2348 0.960 . S
C2335 C2332 1.511 . S
C2335 H2349 0.961 . S
C2335 H2350 0.961 . S
C2335 H2351 0.961 . S
C2336 C2337 1.370 . S
C2336 C2338 1.363 . S
C2336 H2352 0.931 . S
C2337 C2336 1.370 . S
C2337 C2341 1.408 . S
C2338 C2336 1.363 . S
C2338 C2339 1.370 . S
C2338 C2342 1.524 . S
C2339 C2331 1.503 . S
C2339 C2338 1.370 . S
C2339 C2340 1.403 . S
C2340 C2339 1.403 . S
C2340 C2341 1.404 . S
C2340 C2343 1.539 . S
C2341 C2337 1.408 . S
C2341 C2340 1.404 . S
C2341 H2353 0.930 . S
C2342 C2338 1.524 . S
C2342 H2354 0.956 . S
C2342 H2355 0.961 . S
C2342 H2356 0.961 . S
C2343 C2340 1.539 . S
C2343 H2357 0.958 . S
C2343 H2358 0.961 . S
C2343 H2359 0.960 . S
H2344 C2328 0.931 . S
H2345 C2333 0.929 . S
H2346 C2334 0.960 . S
H2347 C2334 0.962 . S
H2348 C2334 0.960 . S
H2349 C2335 0.961 . S
H2350 C2335 0.961 . S
H2351 C2335 0.961 . S
H2352 C2336 0.931 . S
H2353 C2341 0.930 . S
H2354 C2342 0.956 . S
H2355 C2342 0.961 . S
H2356 C2342 0.961 . S
H2357 C2343 0.958 . S
H2358 C2343 0.961 . S
H2359 C2343 0.960 . S
C2360 C2361 1.391 . S
C2360 C2362 1.394 . S
C2360 H2376 0.931 . S
C2361 C2360 1.391 . S
C2361 C2365 1.376 . S
C2362 C2360 1.394 . S
C2362 C2363 1.369 . S
C2362 C2366 1.531 . S
C2363 C2362 1.369 . S
C2363 C2364 1.410 . S
C2363 C2371 1.503 . S
C2364 C2363 1.410 . S
C2364 C2365 1.392 . S
C2364 C2367 1.511 . S
C2365 C2361 1.376 . S
C2365 C2364 1.392 . S
C2365 H2377 0.929 . S
C2366 C2362 1.531 . S
C2366 H2378 0.960 . S
C2366 H2379 0.962 . S
C2366 H2380 0.960 . S
C2367 C2364 1.511 . S
C2367 H2381 0.961 . S
C2367 H2382 0.961 . S
C2367 H2383 0.961 . S
C2368 C2369 1.370 . S
C2368 C2370 1.363 . S
C2368 H2384 0.931 . S
C2369 C2368 1.370 . S
C2369 C2373 1.408 . S
C2370 C2368 1.363 . S
C2370 C2371 1.370 . S
C2370 C2374 1.524 . S
C2371 C2363 1.503 . S
C2371 C2370 1.370 . S
C2371 C2372 1.403 . S
C2372 C2371 1.403 . S
C2372 C2373 1.404 . S
C2372 C2375 1.539 . S
C2373 C2369 1.408 . S
C2373 C2372 1.404 . S
C2373 H2385 0.930 . S
C2374 C2370 1.524 . S
C2374 H2386 0.956 . S
C2374 H2387 0.961 . S
C2374 H2388 0.961 . S
C2375 C2372 1.539 . S
C2375 H2389 0.958 . S
C2375 H2390 0.961 . S
C2375 H2391 0.960 . S
H2376 C2360 0.931 . S
H2377 C2365 0.929 . S
H2378 C2366 0.960 . S
H2379 C2366 0.962 . S
H2380 C2366 0.960 . S
H2381 C2367 0.961 . S
H2382 C2367 0.961 . S
H2383 C2367 0.961 . S
H2384 C2368 0.931 . S
H2385 C2373 0.930 . S
H2386 C2374 0.956 . S
H2387 C2374 0.961 . S
H2388 C2374 0.961 . S
H2389 C2375 0.958 . S
H2390 C2375 0.961 . S
H2391 C2375 0.960 . S
C2392 C2393 1.391 . S
C2392 C2394 1.394 . S
C2392 H2408 0.931 . S
C2393 C2392 1.391 . S
C2393 C2397 1.376 . S
C2394 C2392 1.394 . S
C2394 C2395 1.369 . S
C2394 C2398 1.531 1_565 S
C2395 C2394 1.369 . S
C2395 C2396 1.410 . S
C2395 C2403 1.503 . S
C2396 C2395 1.410 . S
C2396 C2397 1.392 . S
C2396 C2399 1.511 . S
C2397 C2393 1.376 . S
C2397 C2396 1.392 . S
C2397 H2409 0.929 . S
C2398 C2394 1.531 1_545 S
C2398 H2410 0.960 . S
C2398 H2411 0.962 . S
C2398 H2412 0.960 . S
C2399 C2396 1.511 . S
C2399 H2413 0.961 . S
C2399 H2414 0.961 . S
C2399 H2415 0.961 . S
C2400 C2401 1.370 . S
C2400 C2402 1.363 . S
C2400 H2416 0.931 1_565 S
C2401 C2400 1.370 . S
C2401 C2405 1.408 . S
C2402 C2400 1.363 . S
C2402 C2403 1.370 . S
C2402 C2406 1.524 . S
C2403 C2395 1.503 . S
C2403 C2402 1.370 . S
C2403 C2404 1.403 . S
C2404 C2403 1.403 . S
C2404 C2405 1.404 . S
C2404 C2407 1.539 . S
C2405 C2401 1.408 . S
C2405 C2404 1.404 . S
C2405 H2417 0.930 . S
C2406 C2402 1.524 . S
C2406 H2418 0.956 . S
C2406 H2419 0.961 . S
C2406 H2420 0.961 . S
C2407 C2404 1.539 . S
C2407 H2421 0.958 . S
C2407 H2422 0.961 . S
C2407 H2423 0.960 . S
H2408 C2392 0.931 . S
H2409 C2397 0.929 . S
H2410 C2398 0.960 . S
H2411 C2398 0.962 . S
H2412 C2398 0.960 . S
H2413 C2399 0.961 . S
H2414 C2399 0.961 . S
H2415 C2399 0.961 . S
H2416 C2400 0.931 1_545 S
H2417 C2405 0.930 . S
H2418 C2406 0.956 . S
H2419 C2406 0.961 . S
H2420 C2406 0.961 . S
H2421 C2407 0.958 . S
H2422 C2407 0.961 . S
H2423 C2407 0.960 . S
C2424 C2425 1.391 . S
C2424 C2426 1.394 . S
C2424 H2440 0.931 . S
C2425 C2424 1.391 . S
C2425 C2429 1.376 . S
C2426 C2424 1.394 . S
C2426 C2427 1.369 . S
C2426 C2430 1.531 . S
C2427 C2426 1.369 . S
C2427 C2428 1.410 . S
C2427 C2435 1.503 . S
C2428 C2427 1.410 . S
C2428 C2429 1.392 . S
C2428 C2431 1.511 . S
C2429 C2425 1.376 . S
C2429 C2428 1.392 . S
C2429 H2441 0.929 . S
C2430 C2426 1.531 . S
C2430 H2442 0.960 . S
C2430 H2443 0.962 . S
C2430 H2444 0.960 . S
C2431 C2428 1.511 . S
C2431 H2445 0.961 . S
C2431 H2446 0.961 . S
C2431 H2447 0.961 . S
C2432 C2433 1.370 . S
C2432 C2434 1.363 . S
C2432 H2448 0.931 . S
C2433 C2432 1.370 . S
C2433 C2437 1.408 . S
C2434 C2432 1.363 . S
C2434 C2435 1.370 . S
C2434 C2438 1.524 . S
C2435 C2427 1.503 . S
C2435 C2434 1.370 . S
C2435 C2436 1.403 . S
C2436 C2435 1.403 . S
C2436 C2437 1.404 . S
C2436 C2439 1.539 . S
C2437 C2433 1.408 . S
C2437 C2436 1.404 . S
C2437 H2449 0.930 . S
C2438 C2434 1.524 . S
C2438 H2450 0.956 . S
C2438 H2451 0.961 . S
C2438 H2452 0.961 . S
C2439 C2436 1.539 . S
C2439 H2453 0.958 . S
C2439 H2454 0.961 . S
C2439 H2455 0.960 . S
H2440 C2424 0.931 . S
H2441 C2429 0.929 . S
H2442 C2430 0.960 . S
H2443 C2430 0.962 . S
H2444 C2430 0.960 . S
H2445 C2431 0.961 . S
H2446 C2431 0.961 . S
H2447 C2431 0.961 . S
H2448 C2432 0.931 . S
H2449 C2437 0.930 . S
H2450 C2438 0.956 . S
H2451 C2438 0.961 . S
H2452 C2438 0.961 . S
H2453 C2439 0.958 . S
H2454 C2439 0.961 . S
H2455 C2439 0.960 . S
C2456 C2457 1.391 . S
C2456 C2458 1.394 . S
C2456 H2472 0.931 . S
C2457 C2456 1.391 . S
C2457 C2461 1.376 . S
C2458 C2456 1.394 . S
C2458 C2459 1.369 . S
C2458 C2462 1.531 . S
C2459 C2458 1.369 . S
C2459 C2460 1.410 . S
C2459 C2467 1.503 . S
C2460 C2459 1.410 . S
C2460 C2461 1.392 . S
C2460 C2463 1.511 . S
C2461 C2457 1.376 . S
C2461 C2460 1.392 . S
C2461 H2473 0.929 . S
C2462 C2458 1.531 . S
C2462 H2474 0.960 . S
C2462 H2475 0.962 . S
C2462 H2476 0.960 . S
C2463 C2460 1.511 . S
C2463 H2477 0.961 . S
C2463 H2478 0.961 . S
C2463 H2479 0.961 . S
C2464 C2465 1.370 . S
C2464 C2466 1.363 . S
C2464 H2480 0.931 . S
C2465 C2464 1.370 . S
C2465 C2469 1.408 . S
C2466 C2464 1.363 . S
C2466 C2467 1.370 . S
C2466 C2470 1.524 . S
C2467 C2459 1.503 . S
C2467 C2466 1.370 . S
C2467 C2468 1.403 . S
C2468 C2467 1.403 . S
C2468 C2469 1.404 . S
C2468 C2471 1.539 . S
C2469 C2465 1.408 . S
C2469 C2468 1.404 . S
C2469 H2481 0.930 . S
C2470 C2466 1.524 . S
C2470 H2482 0.956 . S
C2470 H2483 0.961 . S
C2470 H2484 0.961 . S
C2471 C2468 1.539 . S
C2471 H2485 0.958 . S
C2471 H2486 0.961 . S
C2471 H2487 0.960 . S
H2472 C2456 0.931 . S
H2473 C2461 0.929 . S
H2474 C2462 0.960 . S
H2475 C2462 0.962 . S
H2476 C2462 0.960 . S
H2477 C2463 0.961 . S
H2478 C2463 0.961 . S
H2479 C2463 0.961 . S
H2480 C2464 0.931 . S
H2481 C2469 0.930 . S
H2482 C2470 0.956 . S
H2483 C2470 0.961 . S
H2484 C2470 0.961 . S
H2485 C2471 0.958 . S
H2486 C2471 0.961 . S
H2487 C2471 0.960 . S
C2488 C2489 1.391 . S
C2488 C2490 1.394 . S
C2488 H2504 0.931 . S
C2489 C2488 1.391 . S
C2489 C2493 1.376 . S
C2490 C2488 1.394 . S
C2490 C2491 1.369 . S
C2490 C2494 1.531 . S
C2491 C2490 1.369 . S
C2491 C2492 1.410 . S
C2491 C2499 1.503 . S
C2492 C2491 1.410 . S
C2492 C2493 1.392 . S
C2492 C2495 1.511 . S
C2493 C2489 1.376 . S
C2493 C2492 1.392 . S
C2493 H2505 0.929 . S
C2494 C2490 1.531 . S
C2494 H2506 0.960 . S
C2494 H2507 0.962 . S
C2494 H2508 0.960 . S
C2495 C2492 1.511 . S
C2495 H2509 0.961 . S
C2495 H2510 0.961 . S
C2495 H2511 0.961 . S
C2496 C2497 1.370 . S
C2496 C2498 1.363 . S
C2496 H2512 0.931 . S
C2497 C2496 1.370 . S
C2497 C2501 1.408 . S
C2498 C2496 1.363 . S
C2498 C2499 1.370 . S
C2498 C2502 1.524 . S
C2499 C2491 1.503 . S
C2499 C2498 1.370 . S
C2499 C2500 1.403 . S
C2500 C2499 1.403 . S
C2500 C2501 1.404 . S
C2500 C2503 1.539 . S
C2501 C2497 1.408 . S
C2501 C2500 1.404 . S
C2501 H2513 0.930 . S
C2502 C2498 1.524 . S
C2502 H2514 0.956 . S
C2502 H2515 0.961 . S
C2502 H2516 0.961 . S
C2503 C2500 1.539 . S
C2503 H2517 0.958 . S
C2503 H2518 0.961 . S
C2503 H2519 0.960 . S
H2504 C2488 0.931 . S
H2505 C2493 0.929 . S
H2506 C2494 0.960 . S
H2507 C2494 0.962 . S
H2508 C2494 0.960 . S
H2509 C2495 0.961 . S
H2510 C2495 0.961 . S
H2511 C2495 0.961 . S
H2512 C2496 0.931 . S
H2513 C2501 0.930 . S
H2514 C2502 0.956 . S
H2515 C2502 0.961 . S
H2516 C2502 0.961 . S
H2517 C2503 0.958 . S
H2518 C2503 0.961 . S
H2519 C2503 0.960 . S
C2520 C2521 1.391 . S
C2520 C2522 1.394 . S
C2520 H2536 0.931 . S
C2521 C2520 1.391 . S
C2521 C2525 1.376 . S
C2522 C2520 1.394 . S
C2522 C2523 1.369 . S
C2522 C2526 1.531 . S
C2523 C2522 1.369 . S
C2523 C2524 1.410 . S
C2523 C2531 1.503 . S
C2524 C2523 1.410 . S
C2524 C2525 1.392 . S
C2524 C2527 1.511 . S
C2525 C2521 1.376 . S
C2525 C2524 1.392 . S
C2525 H2537 0.929 . S
C2526 C2522 1.531 . S
C2526 H2538 0.960 . S
C2526 H2539 0.962 . S
C2526 H2540 0.960 . S
C2527 C2524 1.511 . S
C2527 H2541 0.961 . S
C2527 H2542 0.961 . S
C2527 H2543 0.961 . S
C2528 C2529 1.370 . S
C2528 C2530 1.363 . S
C2528 H2544 0.931 . S
C2529 C2528 1.370 . S
C2529 C2533 1.408 . S
C2530 C2528 1.363 . S
C2530 C2531 1.370 . S
C2530 C2534 1.524 . S
C2531 C2523 1.503 . S
C2531 C2530 1.370 . S
C2531 C2532 1.403 . S
C2532 C2531 1.403 . S
C2532 C2533 1.404 . S
C2532 C2535 1.539 . S
C2533 C2529 1.408 . S
C2533 C2532 1.404 . S
C2533 H2545 0.930 . S
C2534 C2530 1.524 . S
C2534 H2546 0.956 . S
C2534 H2547 0.961 . S
C2534 H2548 0.961 . S
C2535 C2532 1.539 . S
C2535 H2549 0.958 . S
C2535 H2550 0.961 . S
C2535 H2551 0.960 . S
H2536 C2520 0.931 . S
H2537 C2525 0.929 . S
H2538 C2526 0.960 . S
H2539 C2526 0.962 . S
H2540 C2526 0.960 . S
H2541 C2527 0.961 . S
H2542 C2527 0.961 . S
H2543 C2527 0.961 . S
H2544 C2528 0.931 . S
H2545 C2533 0.930 . S
H2546 C2534 0.956 . S
H2547 C2534 0.961 . S
H2548 C2534 0.961 . S
H2549 C2535 0.958 . S
H2550 C2535 0.961 . S
H2551 C2535 0.960 . S
C2552 C2553 1.391 . S
C2552 C2554 1.394 . S
C2552 H2568 0.931 . S
C2553 C2552 1.391 . S
C2553 C2557 1.376 . S
C2554 C2552 1.394 . S
C2554 C2555 1.369 . S
C2554 C2558 1.531 1_556 S
C2555 C2554 1.369 . S
C2555 C2556 1.410 . S
C2555 C2563 1.503 . S
C2556 C2555 1.410 . S
C2556 C2557 1.392 . S
C2556 C2559 1.511 . S
C2557 C2553 1.376 . S
C2557 C2556 1.392 . S
C2557 H2569 0.929 . S
C2558 C2554 1.531 1_554 S
C2558 H2570 0.960 . S
C2558 H2571 0.962 . S
C2558 H2572 0.960 . S
C2559 C2556 1.511 . S
C2559 H2573 0.961 . S
C2559 H2574 0.961 . S
C2559 H2575 0.961 . S
C2560 C2561 1.370 1_556 S
C2560 C2562 1.363 . S
C2560 H2576 0.931 . S
C2561 C2560 1.370 1_554 S
C2561 C2565 1.408 . S
C2562 C2560 1.363 . S
C2562 C2563 1.370 . S
C2562 C2566 1.537 . S
C2563 C2555 1.503 . S
C2563 C2562 1.370 . S
C2563 C2564 1.403 1_556 S
C2564 C2563 1.403 1_554 S
C2564 C2565 1.404 . S
C2564 C2567 1.539 . S
C2565 C2561 1.408 . S
C2565 C2564 1.404 . S
C2565 H2577 0.930 . S
C2566 C2562 1.537 . S
C2566 H2578 0.950 1_455 S
C2566 H2579 0.970 . S
C2566 H2580 0.945 1_455 S
C2567 C2564 1.539 . S
C2567 H2581 0.958 . S
C2567 H2582 0.961 . S
C2567 H2583 0.960 1_554 S
H2568 C2552 0.931 . S
H2569 C2557 0.929 . S
H2570 C2558 0.960 . S
H2571 C2558 0.962 . S
H2572 C2558 0.960 . S
H2573 C2559 0.961 . S
H2574 C2559 0.961 . S
H2575 C2559 0.961 . S
H2576 C2560 0.931 . S
H2577 C2565 0.930 . S
H2578 C2566 0.950 1_655 S
H2579 C2566 0.970 . S
H2580 C2566 0.945 1_655 S
H2581 C2567 0.958 . S
H2582 C2567 0.961 . S
H2583 C2567 0.960 1_556 S
C2584 C2585 1.391 . S
C2584 C2586 1.394 1_455 S
C2584 H2600 0.931 . S
C2585 C2584 1.391 . S
C2585 C2589 1.376 . S
C2586 C2584 1.394 1_655 S
C2586 C2587 1.369 . S
C2586 C2590 1.531 . S
C2587 C2586 1.369 . S
C2587 C2588 1.410 . S
C2587 C2595 1.503 . S
C2588 C2587 1.410 . S
C2588 C2589 1.392 1_655 S
C2588 C2591 1.511 . S
C2589 C2585 1.376 . S
C2589 C2588 1.392 1_455 S
C2589 H2601 0.929 . S
C2590 C2586 1.531 . S
C2590 H2602 0.960 . S
C2590 H2603 0.962 . S
C2590 H2604 0.960 . S
C2591 C2588 1.511 . S
C2591 H2605 0.961 1_655 S
C2591 H2606 0.961 . S
C2591 H2607 0.961 . S
C2592 C2593 1.370 . S
C2592 C2594 1.363 . S
C2592 H2608 0.931 . S
C2593 C2592 1.370 . S
C2593 C2597 1.408 . S
C2594 C2592 1.363 . S
C2594 C2595 1.370 . S
C2594 C2598 1.524 . S
C2595 C2587 1.503 . S
C2595 C2594 1.370 . S
C2595 C2596 1.403 . S
C2596 C2595 1.403 . S
C2596 C2597 1.404 . S
C2596 C2599 1.539 . S
C2597 C2593 1.408 . S
C2597 C2596 1.404 . S
C2597 H2609 0.930 . S
C2598 C2594 1.524 . S
C2598 H2610 0.956 . S
C2598 H2611 0.961 1_655 S
C2598 H2612 0.961 . S
C2599 C2596 1.539 . S
C2599 H2613 0.958 . S
C2599 H2614 0.961 . S
C2599 H2615 0.960 . S
H2600 C2584 0.931 . S
H2601 C2589 0.929 . S
H2602 C2590 0.960 . S
H2603 C2590 0.962 . S
H2604 C2590 0.960 . S
H2605 C2591 0.961 1_455 S
H2606 C2591 0.961 . S
H2607 C2591 0.961 . S
H2608 C2592 0.931 . S
H2609 C2597 0.930 . S
H2610 C2598 0.956 . S
H2611 C2598 0.961 1_455 S
H2612 C2598 0.961 . S
H2613 C2599 0.958 . S
H2614 C2599 0.961 . S
H2615 C2599 0.960 . S
C2616 C2617 1.391 . S
C2616 C2618 1.394 . S
C2616 H2632 0.931 . S
C2617 C2616 1.391 . S
C2617 C2621 1.376 . S
C2618 C2616 1.394 . S
C2618 C2619 1.369 . S
C2618 C2622 1.531 . S
C2619 C2618 1.369 . S
C2619 C2620 1.410 . S
C2619 C2627 1.503 . S
C2620 C2619 1.410 . S
C2620 C2621 1.392 . S
C2620 C2623 1.511 . S
C2621 C2617 1.376 . S
C2621 C2620 1.392 . S
C2621 H2633 0.929 . S
C2622 C2618 1.531 . S
C2622 H2634 0.960 . S
C2622 H2635 0.962 . S
C2622 H2636 0.960 . S
C2623 C2620 1.511 . S
C2623 H2637 0.961 . S
C2623 H2638 0.961 . S
C2623 H2639 0.961 . S
C2624 C2625 1.370 . S
C2624 C2626 1.363 . S
C2624 H2640 0.931 . S
C2625 C2624 1.370 . S
C2625 C2629 1.408 . S
C2626 C2624 1.363 . S
C2626 C2627 1.370 . S
C2626 C2630 1.524 . S
C2627 C2619 1.503 . S
C2627 C2626 1.370 . S
C2627 C2628 1.403 . S
C2628 C2627 1.403 . S
C2628 C2629 1.404 . S
C2628 C2631 1.539 . S
C2629 C2625 1.408 . S
C2629 C2628 1.404 . S
C2629 H2641 0.930 . S
C2630 C2626 1.524 . S
C2630 H2642 0.956 . S
C2630 H2643 0.961 . S
C2630 H2644 0.961 . S
C2631 C2628 1.539 . S
C2631 H2645 0.958 . S
C2631 H2646 0.961 . S
C2631 H2647 0.960 . S
H2632 C2616 0.931 . S
H2633 C2621 0.929 . S
H2634 C2622 0.960 . S
H2635 C2622 0.962 . S
H2636 C2622 0.960 . S
H2637 C2623 0.961 . S
H2638 C2623 0.961 . S
H2639 C2623 0.961 . S
H2640 C2624 0.931 . S
H2641 C2629 0.930 . S
H2642 C2630 0.956 . S
H2643 C2630 0.961 . S
H2644 C2630 0.961 . S
H2645 C2631 0.958 . S
H2646 C2631 0.961 . S
H2647 C2631 0.960 . S
C2648 C2649 1.391 . S
C2648 C2650 1.394 . S
C2648 H2664 0.931 . S
C2649 C2648 1.391 . S
C2649 C2653 1.376 . S
C2650 C2648 1.394 . S
C2650 C2651 1.369 . S
C2650 C2654 1.531 . S
C2651 C2650 1.369 . S
C2651 C2652 1.410 . S
C2651 C2659 1.503 . S
C2652 C2651 1.410 . S
C2652 C2653 1.392 . S
C2652 C2655 1.511 . S
C2653 C2649 1.376 . S
C2653 C2652 1.392 . S
C2653 H2665 0.929 . S
C2654 C2650 1.531 . S
C2654 H2666 0.960 . S
C2654 H2667 0.962 . S
C2654 H2668 0.960 . S
C2655 C2652 1.511 . S
C2655 H2669 0.961 . S
C2655 H2670 0.961 . S
C2655 H2671 0.961 . S
C2656 C2657 1.370 . S
C2656 C2658 1.363 . S
C2656 H2672 0.931 . S
C2657 C2656 1.370 . S
C2657 C2661 1.408 . S
C2658 C2656 1.363 . S
C2658 C2659 1.370 . S
C2658 C2662 1.524 . S
C2659 C2651 1.503 . S
C2659 C2658 1.370 . S
C2659 C2660 1.403 . S
C2660 C2659 1.403 . S
C2660 C2661 1.404 . S
C2660 C2663 1.539 . S
C2661 C2657 1.408 . S
C2661 C2660 1.404 . S
C2661 H2673 0.930 . S
C2662 C2658 1.524 . S
C2662 H2674 0.956 . S
C2662 H2675 0.961 . S
C2662 H2676 0.961 . S
C2663 C2660 1.539 . S
C2663 H2677 0.958 . S
C2663 H2678 0.961 . S
C2663 H2679 0.960 . S
H2664 C2648 0.931 . S
H2665 C2653 0.929 . S
H2666 C2654 0.960 . S
H2667 C2654 0.962 . S
H2668 C2654 0.960 . S
H2669 C2655 0.961 . S
H2670 C2655 0.961 . S
H2671 C2655 0.961 . S
H2672 C2656 0.931 . S
H2673 C2661 0.930 . S
H2674 C2662 0.956 . S
H2675 C2662 0.961 . S
H2676 C2662 0.961 . S
H2677 C2663 0.958 . S
H2678 C2663 0.961 . S
H2679 C2663 0.960 . S
C2680 C2681 1.391 . S
C2680 C2682 1.394 . S
C2680 H2696 0.931 . S
C2681 C2680 1.391 . S
C2681 C2685 1.376 . S
C2682 C2680 1.394 . S
C2682 C2683 1.369 . S
C2682 C2686 1.531 . S
C2683 C2682 1.369 . S
C2683 C2684 1.410 . S
C2683 C2691 1.503 . S
C2684 C2683 1.410 . S
C2684 C2685 1.392 . S
C2684 C2687 1.511 . S
C2685 C2681 1.376 . S
C2685 C2684 1.392 . S
C2685 H2697 0.929 . S
C2686 C2682 1.531 . S
C2686 H2698 0.960 . S
C2686 H2699 0.962 . S
C2686 H2700 0.960 . S
C2687 C2684 1.511 . S
C2687 H2701 0.961 . S
C2687 H2702 0.961 . S
C2687 H2703 0.961 . S
C2688 C2689 1.370 . S
C2688 C2690 1.363 . S
C2688 H2704 0.931 . S
C2689 C2688 1.370 . S
C2689 C2693 1.408 . S
C2690 C2688 1.363 . S
C2690 C2691 1.370 . S
C2690 C2694 1.524 . S
C2691 C2683 1.503 . S
C2691 C2690 1.370 . S
C2691 C2692 1.403 . S
C2692 C2691 1.403 . S
C2692 C2693 1.404 . S
C2692 C2695 1.539 . S
C2693 C2689 1.408 . S
C2693 C2692 1.404 . S
C2693 H2705 0.930 . S
C2694 C2690 1.524 . S
C2694 H2706 0.956 . S
C2694 H2707 0.961 . S
C2694 H2708 0.961 . S
C2695 C2692 1.539 . S
C2695 H2709 0.958 . S
C2695 H2710 0.961 . S
C2695 H2711 0.960 . S
H2696 C2680 0.931 . S
H2697 C2685 0.929 . S
H2698 C2686 0.960 . S
H2699 C2686 0.962 . S
H2700 C2686 0.960 . S
H2701 C2687 0.961 . S
H2702 C2687 0.961 . S
H2703 C2687 0.961 . S
H2704 C2688 0.931 . S
H2705 C2693 0.930 . S
H2706 C2694 0.956 . S
H2707 C2694 0.961 . S
H2708 C2694 0.961 . S
H2709 C2695 0.958 . S
H2710 C2695 0.961 . S
H2711 C2695 0.960 . S
C2712 C2713 1.391 . S
C2712 C2714 1.394 . S
C2712 H2728 0.931 . S
C2713 C2712 1.391 . S
C2713 C2717 1.376 . S
C2714 C2712 1.394 . S
C2714 C2715 1.369 . S
C2714 C2718 1.531 . S
C2715 C2714 1.369 . S
C2715 C2716 1.410 . S
C2715 C2723 1.503 . S
C2716 C2715 1.410 . S
C2716 C2717 1.392 . S
C2716 C2719 1.511 . S
C2717 C2713 1.376 . S
C2717 C2716 1.392 . S
C2717 H2729 0.929 . S
C2718 C2714 1.531 . S
C2718 H2730 0.960 . S
C2718 H2731 0.962 . S
C2718 H2732 0.960 . S
C2719 C2716 1.511 . S
C2719 H2733 0.961 . S
C2719 H2734 0.961 . S
C2719 H2735 0.961 . S
C2720 C2721 1.370 . S
C2720 C2722 1.363 . S
C2720 H2736 0.931 . S
C2721 C2720 1.370 . S
C2721 C2725 1.408 . S
C2722 C2720 1.363 . S
C2722 C2723 1.370 . S
C2722 C2726 1.524 . S
C2723 C2715 1.503 . S
C2723 C2722 1.370 . S
C2723 C2724 1.403 . S
C2724 C2723 1.403 . S
C2724 C2725 1.404 . S
C2724 C2727 1.539 . S
C2725 C2721 1.408 . S
C2725 C2724 1.404 . S
C2725 H2737 0.930 . S
C2726 C2722 1.524 . S
C2726 H2738 0.956 . S
C2726 H2739 0.961 . S
C2726 H2740 0.961 . S
C2727 C2724 1.539 . S
C2727 H2741 0.958 . S
C2727 H2742 0.961 . S
C2727 H2743 0.960 . S
H2728 C2712 0.931 . S
H2729 C2717 0.929 . S
H2730 C2718 0.960 . S
H2731 C2718 0.962 . S
H2732 C2718 0.960 . S
H2733 C2719 0.961 . S
H2734 C2719 0.961 . S
H2735 C2719 0.961 . S
H2736 C2720 0.931 . S
H2737 C2725 0.930 . S
H2738 C2726 0.956 . S
H2739 C2726 0.961 . S
H2740 C2726 0.961 . S
H2741 C2727 0.958 . S
H2742 C2727 0.961 . S
H2743 C2727 0.960 . S
C2744 C2745 1.391 . S
C2744 C2746 1.394 . S
C2744 H2760 0.931 . S
C2745 C2744 1.391 . S
C2745 C2749 1.376 . S
C2746 C2744 1.394 . S
C2746 C2747 1.369 . S
C2746 C2750 1.531 . S
C2747 C2746 1.369 . S
C2747 C2748 1.410 . S
C2747 C2755 1.503 . S
C2748 C2747 1.410 . S
C2748 C2749 1.392 . S
C2748 C2751 1.511 . S
C2749 C2745 1.376 . S
C2749 C2748 1.392 . S
C2749 H2761 0.929 . S
C2750 C2746 1.531 . S
C2750 H2762 0.960 . S
C2750 H2763 0.962 . S
C2750 H2764 0.960 . S
C2751 C2748 1.511 . S
C2751 H2765 0.961 . S
C2751 H2766 0.961 . S
C2751 H2767 0.961 . S
C2752 C2753 1.370 . S
C2752 C2754 1.363 . S
C2752 H2768 0.931 . S
C2753 C2752 1.370 . S
C2753 C2757 1.408 . S
C2754 C2752 1.363 . S
C2754 C2755 1.370 . S
C2754 C2758 1.524 . S
C2755 C2747 1.503 . S
C2755 C2754 1.370 . S
C2755 C2756 1.403 . S
C2756 C2755 1.403 . S
C2756 C2757 1.404 . S
C2756 C2759 1.539 . S
C2757 C2753 1.408 . S
C2757 C2756 1.404 . S
C2757 H2769 0.930 . S
C2758 C2754 1.524 . S
C2758 H2770 0.956 . S
C2758 H2771 0.961 . S
C2758 H2772 0.961 . S
C2759 C2756 1.539 . S
C2759 H2773 0.958 . S
C2759 H2774 0.961 . S
C2759 H2775 0.960 . S
H2760 C2744 0.931 . S
H2761 C2749 0.929 . S
H2762 C2750 0.960 . S
H2763 C2750 0.962 . S
H2764 C2750 0.960 . S
H2765 C2751 0.961 . S
H2766 C2751 0.961 . S
H2767 C2751 0.961 . S
H2768 C2752 0.931 . S
H2769 C2757 0.930 . S
H2770 C2758 0.956 . S
H2771 C2758 0.961 . S
H2772 C2758 0.961 . S
H2773 C2759 0.958 . S
H2774 C2759 0.961 . S
H2775 C2759 0.960 . S
C2776 C2777 1.391 . S
C2776 C2778 1.394 . S
C2776 H2792 0.931 . S
C2777 C2776 1.391 . S
C2777 C2781 1.376 . S
C2778 C2776 1.394 . S
C2778 C2779 1.369 . S
C2778 C2782 1.531 . S
C2779 C2778 1.369 . S
C2779 C2780 1.410 . S
C2779 C2787 1.503 . S
C2780 C2779 1.410 . S
C2780 C2781 1.392 . S
C2780 C2783 1.511 . S
C2781 C2777 1.376 . S
C2781 C2780 1.392 . S
C2781 H2793 0.929 . S
C2782 C2778 1.531 . S
C2782 H2794 0.960 . S
C2782 H2795 0.962 . S
C2782 H2796 0.960 . S
C2783 C2780 1.511 . S
C2783 H2797 0.961 . S
C2783 H2798 0.961 . S
C2783 H2799 0.961 . S
C2784 C2785 1.370 . S
C2784 C2786 1.363 . S
C2784 H2800 0.931 . S
C2785 C2784 1.370 . S
C2785 C2789 1.408 . S
C2786 C2784 1.363 . S
C2786 C2787 1.370 . S
C2786 C2790 1.524 . S
C2787 C2779 1.503 . S
C2787 C2786 1.370 . S
C2787 C2788 1.403 . S
C2788 C2787 1.403 . S
C2788 C2789 1.404 . S
C2788 C2791 1.539 . S
C2789 C2785 1.408 . S
C2789 C2788 1.404 . S
C2789 H2801 0.930 . S
C2790 C2786 1.524 . S
C2790 H2802 0.956 . S
C2790 H2803 0.961 . S
C2790 H2804 0.961 . S
C2791 C2788 1.539 . S
C2791 H2805 0.958 . S
C2791 H2806 0.961 . S
C2791 H2807 0.960 . S
H2792 C2776 0.931 . S
H2793 C2781 0.929 . S
H2794 C2782 0.960 . S
H2795 C2782 0.962 . S
H2796 C2782 0.960 . S
H2797 C2783 0.961 . S
H2798 C2783 0.961 . S
H2799 C2783 0.961 . S
H2800 C2784 0.931 . S
H2801 C2789 0.930 . S
H2802 C2790 0.956 . S
H2803 C2790 0.961 . S
H2804 C2790 0.961 . S
H2805 C2791 0.958 . S
H2806 C2791 0.961 . S
H2807 C2791 0.960 . S
C2808 C2809 1.391 . S
C2808 C2810 1.394 . S
C2808 H2824 0.931 . S
C2809 C2808 1.391 . S
C2809 C2813 1.376 . S
C2810 C2808 1.394 . S
C2810 C2811 1.369 . S
C2810 C2814 1.531 . S
C2811 C2810 1.369 . S
C2811 C2812 1.410 . S
C2811 C2819 1.503 . S
C2812 C2811 1.410 . S
C2812 C2813 1.392 . S
C2812 C2815 1.511 . S
C2813 C2809 1.376 . S
C2813 C2812 1.392 . S
C2813 H2825 0.929 . S
C2814 C2810 1.531 . S
C2814 H2826 0.960 . S
C2814 H2827 0.962 . S
C2814 H2828 0.960 . S
C2815 C2812 1.511 . S
C2815 H2829 0.961 . S
C2815 H2830 0.961 . S
C2815 H2831 0.961 . S
C2816 C2817 1.370 . S
C2816 C2818 1.363 . S
C2816 H2832 0.931 . S
C2817 C2816 1.370 . S
C2817 C2821 1.408 . S
C2818 C2816 1.363 . S
C2818 C2819 1.370 . S
C2818 C2822 1.524 . S
C2819 C2811 1.503 . S
C2819 C2818 1.370 . S
C2819 C2820 1.403 . S
C2820 C2819 1.403 . S
C2820 C2821 1.404 . S
C2820 C2823 1.539 . S
C2821 C2817 1.408 . S
C2821 C2820 1.404 . S
C2821 H2833 0.930 . S
C2822 C2818 1.524 . S
C2822 H2834 0.956 . S
C2822 H2835 0.961 . S
C2822 H2836 0.961 . S
C2823 C2820 1.539 . S
C2823 H2837 0.958 . S
C2823 H2838 0.961 . S
C2823 H2839 0.960 . S
H2824 C2808 0.931 . S
H2825 C2813 0.929 . S
H2826 C2814 0.960 . S
H2827 C2814 0.962 . S
H2828 C2814 0.960 . S
H2829 C2815 0.961 . S
H2830 C2815 0.961 . S
H2831 C2815 0.961 . S
H2832 C2816 0.931 . S
H2833 C2821 0.930 . S
H2834 C2822 0.956 . S
H2835 C2822 0.961 . S
H2836 C2822 0.961 . S
H2837 C2823 0.958 . S
H2838 C2823 0.961 . S
H2839 C2823 0.960 . S
C2840 C2841 1.391 . S
C2840 C2842 1.394 . S
C2840 H2856 0.931 . S
C2841 C2840 1.391 . S
C2841 C2845 1.376 . S
C2842 C2840 1.394 . S
C2842 C2843 1.369 . S
C2842 C2846 1.531 . S
C2843 C2842 1.369 . S
C2843 C2844 1.410 . S
C2843 C2851 1.503 . S
C2844 C2843 1.410 . S
C2844 C2845 1.392 . S
C2844 C2847 1.511 . S
C2845 C2841 1.376 . S
C2845 C2844 1.392 . S
C2845 H2857 0.929 . S
C2846 C2842 1.531 . S
C2846 H2858 0.960 . S
C2846 H2859 0.962 . S
C2846 H2860 0.960 . S
C2847 C2844 1.511 . S
C2847 H2861 0.961 . S
C2847 H2862 0.961 . S
C2847 H2863 0.961 . S
C2848 C2849 1.370 . S
C2848 C2850 1.363 . S
C2848 H2864 0.931 . S
C2849 C2848 1.370 . S
C2849 C2853 1.408 . S
C2850 C2848 1.363 . S
C2850 C2851 1.370 . S
C2850 C2854 1.524 . S
C2851 C2843 1.503 . S
C2851 C2850 1.370 . S
C2851 C2852 1.403 . S
C2852 C2851 1.403 . S
C2852 C2853 1.404 . S
C2852 C2855 1.539 . S
C2853 C2849 1.408 . S
C2853 C2852 1.404 . S
C2853 H2865 0.930 . S
C2854 C2850 1.524 . S
C2854 H2866 0.956 . S
C2854 H2867 0.961 . S
C2854 H2868 0.961 . S
C2855 C2852 1.539 . S
C2855 H2869 0.958 . S
C2855 H2870 0.961 . S
C2855 H2871 0.960 . S
H2856 C2840 0.931 . S
H2857 C2845 0.929 . S
H2858 C2846 0.960 . S
H2859 C2846 0.962 . S
H2860 C2846 0.960 . S
H2861 C2847 0.961 . S
H2862 C2847 0.961 . S
H2863 C2847 0.961 . S
H2864 C2848 0.931 . S
H2865 C2853 0.930 . S
H2866 C2854 0.956 . S
H2867 C2854 0.961 . S
H2868 C2854 0.961 . S
H2869 C2855 0.958 . S
H2870 C2855 0.961 . S
H2871 C2855 0.960 . S
C2872 C2873 1.391 . S
C2872 C2874 1.394 . S
C2872 H2888 0.931 . S
C2873 C2872 1.391 . S
C2873 C2877 1.376 . S
C2874 C2872 1.394 . S
C2874 C2875 1.369 . S
C2874 C2878 1.531 . S
C2875 C2874 1.369 . S
C2875 C2876 1.410 . S
C2875 C2883 1.503 . S
C2876 C2875 1.410 . S
C2876 C2877 1.392 . S
C2876 C2879 1.511 . S
C2877 C2873 1.376 . S
C2877 C2876 1.392 . S
C2877 H2889 0.929 . S
C2878 C2874 1.531 . S
C2878 H2890 0.960 . S
C2878 H2891 0.962 . S
C2878 H2892 0.960 . S
C2879 C2876 1.511 . S
C2879 H2893 0.961 . S
C2879 H2894 0.961 . S
C2879 H2895 0.961 . S
C2880 C2881 1.370 . S
C2880 C2882 1.363 . S
C2880 H2896 0.931 . S
C2881 C2880 1.370 . S
C2881 C2885 1.408 . S
C2882 C2880 1.363 . S
C2882 C2883 1.370 . S
C2882 C2886 1.524 . S
C2883 C2875 1.503 . S
C2883 C2882 1.370 . S
C2883 C2884 1.403 . S
C2884 C2883 1.403 . S
C2884 C2885 1.404 . S
C2884 C2887 1.539 . S
C2885 C2881 1.408 . S
C2885 C2884 1.404 . S
C2885 H2897 0.930 . S
C2886 C2882 1.524 . S
C2886 H2898 0.956 . S
C2886 H2899 0.961 . S
C2886 H2900 0.961 . S
C2887 C2884 1.539 . S
C2887 H2901 0.958 . S
C2887 H2902 0.961 . S
C2887 H2903 0.960 . S
H2888 C2872 0.931 . S
H2889 C2877 0.929 . S
H2890 C2878 0.960 . S
H2891 C2878 0.962 . S
H2892 C2878 0.960 . S
H2893 C2879 0.961 . S
H2894 C2879 0.961 . S
H2895 C2879 0.961 . S
H2896 C2880 0.931 . S
H2897 C2885 0.930 . S
H2898 C2886 0.956 . S
H2899 C2886 0.961 . S
H2900 C2886 0.961 . S
H2901 C2887 0.958 . S
H2902 C2887 0.961 . S
H2903 C2887 0.960 . S
C2904 C2905 1.391 . S
C2904 C2906 1.394 . S
C2904 H2920 0.931 . S
C2905 C2904 1.391 . S
C2905 C2909 1.376 . S
C2906 C2904 1.394 . S
C2906 C2907 1.369 . S
C2906 C2910 1.531 . S
C2907 C2906 1.369 . S
C2907 C2908 1.410 . S
C2907 C2915 1.503 . S
C2908 C2907 1.410 . S
C2908 C2909 1.392 . S
C2908 C2911 1.511 . S
C2909 C2905 1.376 . S
C2909 C2908 1.392 . S
C2909 H2921 0.929 . S
C2910 C2906 1.531 . S
C2910 H2922 0.960 . S
C2910 H2923 0.962 . S
C2910 H2924 0.960 . S
C2911 C2908 1.511 . S
C2911 H2925 0.961 . S
C2911 H2926 0.961 . S
C2911 H2927 0.961 . S
C2912 C2913 1.370 . S
C2912 C2914 1.363 . S
C2912 H2928 0.931 . S
C2913 C2912 1.370 . S
C2913 C2917 1.408 . S
C2914 C2912 1.363 . S
C2914 C2915 1.370 . S
C2914 C2918 1.524 . S
C2915 C2907 1.503 . S
C2915 C2914 1.370 . S
C2915 C2916 1.403 . S
C2916 C2915 1.403 . S
C2916 C2917 1.404 . S
C2916 C2919 1.539 . S
C2917 C2913 1.408 . S
C2917 C2916 1.404 . S
C2917 H2929 0.930 . S
C2918 C2914 1.524 . S
C2918 H2930 0.956 . S
C2918 H2931 0.961 . S
C2918 H2932 0.961 . S
C2919 C2916 1.539 . S
C2919 H2933 0.958 . S
C2919 H2934 0.961 . S
C2919 H2935 0.960 . S
H2920 C2904 0.931 . S
H2921 C2909 0.929 . S
H2922 C2910 0.960 . S
H2923 C2910 0.962 . S
H2924 C2910 0.960 . S
H2925 C2911 0.961 . S
H2926 C2911 0.961 . S
H2927 C2911 0.961 . S
H2928 C2912 0.931 . S
H2929 C2917 0.930 . S
H2930 C2918 0.956 . S
H2931 C2918 0.961 . S
H2932 C2918 0.961 . S
H2933 C2919 0.958 . S
H2934 C2919 0.961 . S
H2935 C2919 0.960 . S
C2936 C2937 1.391 . S
C2936 C2938 1.394 . S
C2936 H2952 0.931 . S
C2937 C2936 1.391 . S
C2937 C2941 1.376 . S
C2938 C2936 1.394 . S
C2938 C2939 1.369 . S
C2938 C2942 1.531 . S
C2939 C2938 1.369 . S
C2939 C2940 1.410 . S
C2939 C2947 1.503 . S
C2940 C2939 1.410 . S
C2940 C2941 1.392 . S
C2940 C2943 1.511 . S
C2941 C2937 1.376 . S
C2941 C2940 1.392 . S
C2941 H2953 0.929 . S
C2942 C2938 1.531 . S
C2942 H2954 0.960 . S
C2942 H2955 0.962 . S
C2942 H2956 0.960 . S
C2943 C2940 1.511 . S
C2943 H2957 0.961 . S
C2943 H2958 0.961 . S
C2943 H2959 0.961 . S
C2944 C2945 1.370 . S
C2944 C2946 1.363 . S
C2944 H2960 0.931 . S
C2945 C2944 1.370 . S
C2945 C2949 1.408 . S
C2946 C2944 1.363 . S
C2946 C2947 1.370 . S
C2946 C2950 1.524 . S
C2947 C2939 1.503 . S
C2947 C2946 1.370 . S
C2947 C2948 1.403 . S
C2948 C2947 1.403 . S
C2948 C2949 1.404 . S
C2948 C2951 1.539 . S
C2949 C2945 1.408 . S
C2949 C2948 1.404 . S
C2949 H2961 0.930 . S
C2950 C2946 1.524 . S
C2950 H2962 0.956 . S
C2950 H2963 0.961 . S
C2950 H2964 0.961 . S
C2951 C2948 1.539 . S
C2951 H2965 0.958 . S
C2951 H2966 0.961 . S
C2951 H2967 0.960 . S
H2952 C2936 0.931 . S
H2953 C2941 0.929 . S
H2954 C2942 0.960 . S
H2955 C2942 0.962 . S
H2956 C2942 0.960 . S
H2957 C2943 0.961 . S
H2958 C2943 0.961 . S
H2959 C2943 0.961 . S
H2960 C2944 0.931 . S
H2961 C2949 0.930 . S
H2962 C2950 0.956 . S
H2963 C2950 0.961 . S
H2964 C2950 0.961 . S
H2965 C2951 0.958 . S
H2966 C2951 0.961 . S
H2967 C2951 0.960 . S
C2968 C2969 1.391 . S
C2968 C2970 1.394 . S
C2968 H2984 0.931 . S
C2969 C2968 1.391 . S
C2969 C2973 1.376 . S
C2970 C2968 1.394 . S
C2970 C2971 1.369 . S
C2970 C2974 1.531 . S
C2971 C2970 1.369 . S
C2971 C2972 1.410 . S
C2971 C2979 1.503 . S
C2972 C2971 1.410 . S
C2972 C2973 1.392 . S
C2972 C2975 1.511 . S
C2973 C2969 1.376 . S
C2973 C2972 1.392 . S
C2973 H2985 0.929 . S
C2974 C2970 1.531 . S
C2974 H2986 0.960 . S
C2974 H2987 0.962 . S
C2974 H2988 0.960 . S
C2975 C2972 1.511 . S
C2975 H2989 0.961 . S
C2975 H2990 0.961 . S
C2975 H2991 0.961 . S
C2976 C2977 1.370 . S
C2976 C2978 1.363 . S
C2976 H2992 0.931 . S
C2977 C2976 1.370 . S
C2977 C2981 1.408 . S
C2978 C2976 1.363 . S
C2978 C2979 1.370 . S
C2978 C2982 1.524 . S
C2979 C2971 1.503 . S
C2979 C2978 1.370 . S
C2979 C2980 1.403 . S
C2980 C2979 1.403 . S
C2980 C2981 1.404 . S
C2980 C2983 1.539 . S
C2981 C2977 1.408 . S
C2981 C2980 1.404 . S
C2981 H2993 0.930 . S
C2982 C2978 1.524 . S
C2982 H2994 0.956 . S
C2982 H2995 0.961 . S
C2982 H2996 0.961 . S
C2983 C2980 1.539 . S
C2983 H2997 0.958 . S
C2983 H2998 0.961 . S
C2983 H2999 0.960 . S
H2984 C2968 0.931 . S
H2985 C2973 0.929 . S
H2986 C2974 0.960 . S
H2987 C2974 0.962 . S
H2988 C2974 0.960 . S
H2989 C2975 0.961 . S
H2990 C2975 0.961 . S
H2991 C2975 0.961 . S
H2992 C2976 0.931 . S
H2993 C2981 0.930 . S
H2994 C2982 0.956 . S
H2995 C2982 0.961 . S
H2996 C2982 0.961 . S
H2997 C2983 0.958 . S
H2998 C2983 0.961 . S
H2999 C2983 0.960 . S
C3000 C3001 1.391 . S
C3000 C3002 1.394 . S
C3000 H3016 0.931 . S
C3001 C3000 1.391 . S
C3001 C3005 1.376 . S
C3002 C3000 1.394 . S
C3002 C3003 1.369 . S
C3002 C3006 1.531 . S
C3003 C3002 1.369 . S
C3003 C3004 1.410 . S
C3003 C3011 1.503 . S
C3004 C3003 1.410 . S
C3004 C3005 1.392 . S
C3004 C3007 1.511 . S
C3005 C3001 1.376 . S
C3005 C3004 1.392 . S
C3005 H3017 0.929 . S
C3006 C3002 1.531 . S
C3006 H3018 0.960 . S
C3006 H3019 0.962 . S
C3006 H3020 0.960 . S
C3007 C3004 1.511 . S
C3007 H3021 0.961 . S
C3007 H3022 0.961 . S
C3007 H3023 0.961 . S
C3008 C3009 1.370 . S
C3008 C3010 1.363 . S
C3008 H3024 0.931 . S
C3009 C3008 1.370 . S
C3009 C3013 1.408 . S
C3010 C3008 1.363 . S
C3010 C3011 1.370 . S
C3010 C3014 1.524 . S
C3011 C3003 1.503 . S
C3011 C3010 1.370 . S
C3011 C3012 1.403 . S
C3012 C3011 1.403 . S
C3012 C3013 1.404 . S
C3012 C3015 1.539 . S
C3013 C3009 1.408 . S
C3013 C3012 1.404 . S
C3013 H3025 0.930 . S
C3014 C3010 1.524 . S
C3014 H3026 0.956 . S
C3014 H3027 0.961 . S
C3014 H3028 0.961 . S
C3015 C3012 1.539 . S
C3015 H3029 0.958 . S
C3015 H3030 0.961 . S
C3015 H3031 0.960 . S
H3016 C3000 0.931 . S
H3017 C3005 0.929 . S
H3018 C3006 0.960 . S
H3019 C3006 0.962 . S
H3020 C3006 0.960 . S
H3021 C3007 0.961 . S
H3022 C3007 0.961 . S
H3023 C3007 0.961 . S
H3024 C3008 0.931 . S
H3025 C3013 0.930 . S
H3026 C3014 0.956 . S
H3027 C3014 0.961 . S
H3028 C3014 0.961 . S
H3029 C3015 0.958 . S
H3030 C3015 0.961 . S
H3031 C3015 0.960 . S
C3032 C3033 1.391 . S
C3032 C3034 1.394 . S
C3032 H3048 0.931 . S
C3033 C3032 1.391 . S
C3033 C3037 1.376 . S
C3034 C3032 1.394 . S
C3034 C3035 1.369 . S
C3034 C3038 1.531 . S
C3035 C3034 1.369 . S
C3035 C3036 1.410 . S
C3035 C3043 1.503 . S
C3036 C3035 1.410 . S
C3036 C3037 1.392 . S
C3036 C3039 1.511 . S
C3037 C3033 1.376 . S
C3037 C3036 1.392 . S
C3037 H3049 0.929 . S
C3038 C3034 1.531 . S
C3038 H3050 0.960 . S
C3038 H3051 0.962 . S
C3038 H3052 0.960 . S
C3039 C3036 1.511 . S
C3039 H3053 0.961 . S
C3039 H3054 0.961 . S
C3039 H3055 0.961 . S
C3040 C3041 1.370 . S
C3040 C3042 1.363 . S
C3040 H3056 0.931 . S
C3041 C3040 1.370 . S
C3041 C3045 1.408 . S
C3042 C3040 1.363 . S
C3042 C3043 1.370 . S
C3042 C3046 1.524 . S
C3043 C3035 1.503 . S
C3043 C3042 1.370 . S
C3043 C3044 1.403 . S
C3044 C3043 1.403 . S
C3044 C3045 1.404 . S
C3044 C3047 1.539 . S
C3045 C3041 1.408 . S
C3045 C3044 1.404 . S
C3045 H3057 0.930 . S
C3046 C3042 1.524 . S
C3046 H3058 0.956 . S
C3046 H3059 0.961 . S
C3046 H3060 0.961 . S
C3047 C3044 1.539 . S
C3047 H3061 0.958 . S
C3047 H3062 0.961 . S
C3047 H3063 0.960 . S
H3048 C3032 0.931 . S
H3049 C3037 0.929 . S
H3050 C3038 0.960 . S
H3051 C3038 0.962 . S
H3052 C3038 0.960 . S
H3053 C3039 0.961 . S
H3054 C3039 0.961 . S
H3055 C3039 0.961 . S
H3056 C3040 0.931 . S
H3057 C3045 0.930 . S
H3058 C3046 0.956 . S
H3059 C3046 0.961 . S
H3060 C3046 0.961 . S
H3061 C3047 0.958 . S
H3062 C3047 0.961 . S
H3063 C3047 0.960 . S
C3064 C3065 1.391 . S
C3064 C3066 1.394 . S
C3064 H3080 0.931 . S
C3065 C3064 1.391 . S
C3065 C3069 1.376 . S
C3066 C3064 1.394 . S
C3066 C3067 1.369 . S
C3066 C3070 1.531 1_545 S
C3067 C3066 1.369 . S
C3067 C3068 1.410 . S
C3067 C3075 1.503 . S
C3068 C3067 1.410 . S
C3068 C3069 1.392 . S
C3068 C3071 1.511 . S
C3069 C3065 1.376 . S
C3069 C3068 1.392 . S
C3069 H3081 0.929 . S
C3070 C3066 1.531 1_565 S
C3070 H3082 0.960 . S
C3070 H3083 0.962 . S
C3070 H3084 0.960 . S
C3071 C3068 1.511 . S
C3071 H3085 0.961 . S
C3071 H3086 0.961 . S
C3071 H3087 0.961 . S
C3072 C3073 1.370 . S
C3072 C3074 1.363 1_565 S
C3072 H3088 0.931 . S
C3073 C3072 1.370 . S
C3073 C3077 1.408 . S
C3074 C3072 1.363 1_545 S
C3074 C3075 1.370 . S
C3074 C3078 1.524 . S
C3075 C3067 1.503 . S
C3075 C3074 1.370 . S
C3075 C3076 1.403 1_545 S
C3076 C3075 1.403 1_565 S
C3076 C3077 1.404 . S
C3076 C3079 1.539 . S
C3077 C3073 1.408 . S
C3077 C3076 1.404 . S
C3077 H3089 0.930 . S
C3078 C3074 1.524 . S
C3078 H3090 0.956 . S
C3078 H3091 0.961 . S
C3078 H3092 0.961 . S
C3079 C3076 1.539 . S
C3079 H3093 0.958 . S
C3079 H3094 0.961 . S
C3079 H3095 0.960 1_565 S
H3080 C3064 0.931 . S
H3081 C3069 0.929 . S
H3082 C3070 0.960 . S
H3083 C3070 0.962 . S
H3084 C3070 0.960 . S
H3085 C3071 0.961 . S
H3086 C3071 0.961 . S
H3087 C3071 0.961 . S
H3088 C3072 0.931 . S
H3089 C3077 0.930 . S
H3090 C3078 0.956 . S
H3091 C3078 0.961 . S
H3092 C3078 0.961 . S
H3093 C3079 0.958 . S
H3094 C3079 0.961 . S
H3095 C3079 0.960 1_545 S
C3096 C3097 1.401 . S
C3096 C3098 1.388 1_565 S
C3096 H3112 0.926 1_565 S
C3097 C3096 1.401 . S
C3097 C3101 1.376 . S
C3098 C3096 1.388 1_545 S
C3098 C3099 1.369 . S
C3098 C3102 1.531 . S
C3099 C3098 1.369 . S
C3099 C3100 1.410 1_545 S
C3099 C3107 1.503 . S
C3100 C3099 1.410 1_565 S
C3100 C3101 1.392 . S
C3100 C3103 1.511 . S
C3101 C3097 1.376 . S
C3101 C3100 1.392 . S
C3101 H3113 0.929 . S
C3102 C3098 1.531 . S
C3102 H3114 0.960 . S
C3102 H3115 0.962 . S
C3102 H3116 0.960 . S
C3103 C3100 1.511 . S
C3103 H3117 0.961 . S
C3103 H3118 0.961 . S
C3103 H3119 0.961 . S
C3104 C3105 1.370 . S
C3104 C3106 1.363 . S
C3104 H3120 0.931 1_554 S
C3105 C3104 1.370 . S
C3105 C3109 1.408 . S
C3106 C3104 1.363 . S
C3106 C3107 1.370 . S
C3106 C3110 1.524 1_554 S
C3107 C3099 1.503 . S
C3107 C3106 1.370 . S
C3107 C3108 1.403 . S
C3108 C3107 1.403 . S
C3108 C3109 1.404 . S
C3108 C3111 1.539 . S
C3109 C3105 1.408 . S
C3109 C3108 1.404 . S
C3109 H3121 0.930 . S
C3110 C3106 1.524 1_556 S
C3110 H3122 0.956 1_556 S
C3110 H3123 0.961 . S
C3110 H3124 0.961 . S
C3111 C3108 1.539 . S
C3111 H3125 0.958 . S
C3111 H3126 0.961 . S
C3111 H3127 0.960 . S
H3112 C3096 0.926 1_545 S
H3113 C3101 0.929 . S
H3114 C3102 0.960 . S
H3115 C3102 0.962 . S
H3116 C3102 0.960 . S
H3117 C3103 0.961 . S
H3118 C3103 0.961 . S
H3119 C3103 0.961 . S
H3120 C3104 0.931 1_556 S
H3121 C3109 0.930 . S
H3122 C3110 0.956 1_554 S
H3123 C3110 0.961 . S
H3124 C3110 0.961 . S
H3125 C3111 0.958 . S
H3126 C3111 0.961 . S
H3127 C3111 0.960 . S
C3128 C3129 1.391 . S
C3128 C3130 1.394 . S
C3128 H3144 0.931 . S
C3129 C3128 1.391 . S
C3129 C3133 1.376 . S
C3130 C3128 1.394 . S
C3130 C3131 1.369 . S
C3130 C3134 1.531 . S
C3131 C3130 1.369 . S
C3131 C3132 1.410 . S
C3131 C3139 1.503 . S
C3132 C3131 1.410 . S
C3132 C3133 1.392 . S
C3132 C3135 1.511 . S
C3133 C3129 1.376 . S
C3133 C3132 1.392 . S
C3133 H3145 0.929 . S
C3134 C3130 1.531 . S
C3134 H3146 0.960 . S
C3134 H3147 0.962 . S
C3134 H3148 0.960 . S
C3135 C3132 1.511 . S
C3135 H3149 0.961 . S
C3135 H3150 0.961 . S
C3135 H3151 0.961 . S
C3136 C3137 1.370 . S
C3136 C3138 1.363 . S
C3136 H3152 0.931 . S
C3137 C3136 1.370 . S
C3137 C3141 1.408 . S
C3138 C3136 1.363 . S
C3138 C3139 1.370 . S
C3138 C3142 1.524 . S
C3139 C3131 1.503 . S
C3139 C3138 1.370 . S
C3139 C3140 1.403 . S
C3140 C3139 1.403 . S
C3140 C3141 1.404 . S
C3140 C3143 1.539 . S
C3141 C3137 1.408 . S
C3141 C3140 1.404 . S
C3141 H3153 0.930 . S
C3142 C3138 1.524 . S
C3142 H3154 0.956 . S
C3142 H3155 0.961 . S
C3142 H3156 0.961 . S
C3143 C3140 1.539 . S
C3143 H3157 0.958 . S
C3143 H3158 0.961 . S
C3143 H3159 0.960 . S
H3144 C3128 0.931 . S
H3145 C3133 0.929 . S
H3146 C3134 0.960 . S
H3147 C3134 0.962 . S
H3148 C3134 0.960 . S
H3149 C3135 0.961 . S
H3150 C3135 0.961 . S
H3151 C3135 0.961 . S
H3152 C3136 0.931 . S
H3153 C3141 0.930 . S
H3154 C3142 0.956 . S
H3155 C3142 0.961 . S
H3156 C3142 0.961 . S
H3157 C3143 0.958 . S
H3158 C3143 0.961 . S
H3159 C3143 0.960 . S
C3160 C3161 1.391 . S
C3160 C3162 1.394 . S
C3160 H3176 0.931 . S
C3161 C3160 1.391 . S
C3161 C3165 1.376 . S
C3162 C3160 1.394 . S
C3162 C3163 1.369 . S
C3162 C3166 1.531 . S
C3163 C3162 1.369 . S
C3163 C3164 1.410 . S
C3163 C3171 1.503 . S
C3164 C3163 1.410 . S
C3164 C3165 1.392 . S
C3164 C3167 1.511 . S
C3165 C3161 1.376 . S
C3165 C3164 1.392 . S
C3165 H3177 0.929 . S
C3166 C3162 1.531 . S
C3166 H3178 0.960 . S
C3166 H3179 0.962 . S
C3166 H3180 0.979 . S
C3167 C3164 1.511 . S
C3167 H3181 0.961 . S
C3167 H3182 0.961 . S
C3167 H3183 0.961 . S
C3168 C3169 1.370 . S
C3168 C3170 1.363 . S
C3168 H3184 0.931 . S
C3169 C3168 1.370 . S
C3169 C3173 1.408 . S
C3170 C3168 1.363 . S
C3170 C3171 1.370 . S
C3170 C3174 1.524 . S
C3171 C3163 1.503 . S
C3171 C3170 1.370 . S
C3171 C3172 1.403 . S
C3172 C3171 1.403 . S
C3172 C3173 1.404 . S
C3172 C3175 1.539 . S
C3173 C3169 1.408 . S
C3173 C3172 1.404 . S
C3173 H3185 0.930 . S
C3174 C3170 1.524 . S
C3174 H3186 0.956 . S
C3174 H3187 0.961 . S
C3174 H3188 0.961 . S
C3175 C3172 1.539 . S
C3175 H3189 0.958 . S
C3175 H3190 0.961 . S
C3175 H3191 0.960 . S
H3176 C3160 0.931 . S
H3177 C3165 0.929 . S
H3178 C3166 0.960 . S
H3179 C3166 0.962 . S
H3180 C3166 0.979 . S
H3181 C3167 0.961 . S
H3182 C3167 0.961 . S
H3183 C3167 0.961 . S
H3184 C3168 0.931 . S
H3185 C3173 0.930 . S
H3186 C3174 0.956 . S
H3187 C3174 0.961 . S
H3188 C3174 0.961 . S
H3189 C3175 0.958 . S
H3190 C3175 0.961 . S
H3191 C3175 0.960 . S
C3192 C3193 1.391 . S
C3192 C3194 1.394 . S
C3192 H3208 0.931 . S
C3193 C3192 1.391 . S
C3193 C3197 1.376 . S
C3194 C3192 1.394 . S
C3194 C3195 1.369 . S
C3194 C3198 1.531 . S
C3195 C3194 1.369 . S
C3195 C3196 1.410 . S
C3195 C3203 1.503 . S
C3196 C3195 1.410 . S
C3196 C3197 1.392 . S
C3196 C3199 1.511 . S
C3197 C3193 1.376 . S
C3197 C3196 1.392 . S
C3197 H3209 0.929 . S
C3198 C3194 1.531 . S
C3198 H3210 0.960 . S
C3198 H3211 0.962 . S
C3198 H3212 0.960 . S
C3199 C3196 1.511 . S
C3199 H3213 0.961 . S
C3199 H3214 0.961 . S
C3199 H3215 0.961 . S
C3200 C3201 1.370 . S
C3200 C3202 1.363 . S
C3200 H3216 0.931 . S
C3201 C3200 1.370 . S
C3201 C3205 1.408 . S
C3202 C3200 1.363 . S
C3202 C3203 1.370 . S
C3202 C3206 1.524 . S
C3203 C3195 1.503 . S
C3203 C3202 1.370 . S
C3203 C3204 1.403 . S
C3204 C3203 1.403 . S
C3204 C3205 1.404 . S
C3204 C3207 1.539 . S
C3205 C3201 1.408 . S
C3205 C3204 1.404 . S
C3205 H3217 0.930 . S
C3206 C3202 1.524 . S
C3206 H3218 0.956 . S
C3206 H3219 0.961 . S
C3206 H3220 0.961 . S
C3207 C3204 1.539 . S
C3207 H3221 0.958 . S
C3207 H3222 0.961 . S
C3207 H3223 0.960 . S
H3208 C3192 0.931 . S
H3209 C3197 0.929 . S
H3210 C3198 0.960 . S
H3211 C3198 0.962 . S
H3212 C3198 0.960 . S
H3213 C3199 0.961 . S
H3214 C3199 0.961 . S
H3215 C3199 0.961 . S
H3216 C3200 0.931 . S
H3217 C3205 0.930 . S
H3218 C3206 0.956 . S
H3219 C3206 0.961 . S
H3220 C3206 0.961 . S
H3221 C3207 0.958 . S
H3222 C3207 0.961 . S
H3223 C3207 0.960 . S
C3224 C3225 1.391 . S
C3224 C3226 1.394 . S
C3224 H3240 0.931 . S
C3225 C3224 1.391 . S
C3225 C3229 1.376 . S
C3226 C3224 1.394 . S
C3226 C3227 1.369 . S
C3226 C3230 1.531 . S
C3227 C3226 1.369 . S
C3227 C3228 1.410 . S
C3227 C3235 1.503 . S
C3228 C3227 1.410 . S
C3228 C3229 1.392 . S
C3228 C3231 1.511 . S
C3229 C3225 1.376 . S
C3229 C3228 1.392 . S
C3229 H3241 0.929 . S
C3230 C3226 1.531 . S
C3230 H3242 0.960 . S
C3230 H3243 0.962 . S
C3230 H3244 0.960 . S
C3231 C3228 1.511 . S
C3231 H3245 0.961 . S
C3231 H3246 0.961 . S
C3231 H3247 0.961 . S
C3232 C3233 1.370 1_545 S
C3232 C3234 1.363 . S
C3232 H3248 0.931 . S
C3233 C3232 1.370 1_565 S
C3233 C3237 1.408 . S
C3234 C3232 1.363 . S
C3234 C3235 1.370 . S
C3234 C3238 1.524 . S
C3235 C3227 1.503 . S
C3235 C3234 1.370 . S
C3235 C3236 1.403 . S
C3236 C3235 1.403 . S
C3236 C3237 1.404 1_545 S
C3236 C3239 1.539 1_545 S
C3237 C3233 1.408 . S
C3237 C3236 1.404 1_565 S
C3237 H3249 0.930 . S
C3238 C3234 1.524 . S
C3238 H3250 0.956 . S
C3238 H3251 0.961 . S
C3238 H3252 0.961 . S
C3239 C3236 1.539 1_565 S
C3239 H3253 0.958 . S
C3239 H3254 0.961 . S
C3239 H3255 0.960 1_565 S
H3240 C3224 0.931 . S
H3241 C3229 0.929 . S
H3242 C3230 0.960 . S
H3243 C3230 0.962 . S
H3244 C3230 0.960 . S
H3245 C3231 0.961 . S
H3246 C3231 0.961 . S
H3247 C3231 0.961 . S
H3248 C3232 0.931 . S
H3249 C3237 0.930 . S
H3250 C3238 0.956 . S
H3251 C3238 0.961 . S
H3252 C3238 0.961 . S
H3253 C3239 0.958 . S
H3254 C3239 0.961 . S
H3255 C3239 0.960 1_545 S
C3256 C3257 1.391 . S
C3256 C3258 1.394 . S
C3256 H3272 0.931 . S
C3257 C3256 1.391 . S
C3257 C3261 1.376 . S
C3258 C3256 1.394 . S
C3258 C3259 1.369 . S
C3258 C3262 1.531 . S
C3259 C3258 1.369 . S
C3259 C3260 1.410 . S
C3259 C3267 1.503 . S
C3260 C3259 1.410 . S
C3260 C3261 1.392 . S
C3260 C3263 1.511 . S
C3261 C3257 1.376 . S
C3261 C3260 1.392 . S
C3261 H3273 0.929 . S
C3262 C3258 1.531 . S
C3262 H3274 0.960 . S
C3262 H3275 0.962 . S
C3262 H3276 0.960 . S
C3263 C3260 1.511 . S
C3263 H3277 0.961 . S
C3263 H3278 0.961 . S
C3263 H3279 0.961 . S
C3264 C3265 1.370 . S
C3264 C3266 1.363 . S
C3264 H3280 0.931 . S
C3265 C3264 1.370 . S
C3265 C3269 1.408 . S
C3266 C3264 1.363 . S
C3266 C3267 1.370 . S
C3266 C3270 1.524 . S
C3267 C3259 1.503 . S
C3267 C3266 1.370 . S
C3267 C3268 1.403 . S
C3268 C3267 1.403 . S
C3268 C3269 1.404 . S
C3268 C3271 1.539 . S
C3269 C3265 1.408 . S
C3269 C3268 1.404 . S
C3269 H3281 0.930 . S
C3270 C3266 1.524 . S
C3270 H3282 0.956 . S
C3270 H3283 0.961 . S
C3270 H3284 0.961 . S
C3271 C3268 1.539 . S
C3271 H3285 0.958 . S
C3271 H3286 0.961 . S
C3271 H3287 0.960 . S
H3272 C3256 0.931 . S
H3273 C3261 0.929 . S
H3274 C3262 0.960 . S
H3275 C3262 0.962 . S
H3276 C3262 0.960 . S
H3277 C3263 0.961 . S
H3278 C3263 0.961 . S
H3279 C3263 0.961 . S
H3280 C3264 0.931 . S
H3281 C3269 0.930 . S
H3282 C3270 0.956 . S
H3283 C3270 0.961 . S
H3284 C3270 0.961 . S
H3285 C3271 0.958 . S
H3286 C3271 0.961 . S
H3287 C3271 0.960 . S
C3288 C3289 1.391 . S
C3288 C3290 1.394 . S
C3288 H3304 0.931 . S
C3289 C3288 1.391 . S
C3289 C3293 1.376 . S
C3290 C3288 1.394 . S
C3290 C3291 1.369 . S
C3290 C3294 1.531 . S
C3291 C3290 1.369 . S
C3291 C3292 1.410 . S
C3291 C3299 1.503 . S
C3292 C3291 1.410 . S
C3292 C3293 1.392 . S
C3292 C3295 1.511 . S
C3293 C3289 1.376 . S
C3293 C3292 1.392 . S
C3293 H3305 0.929 . S
C3294 C3290 1.531 . S
C3294 H3306 0.960 . S
C3294 H3307 0.962 . S
C3294 H3308 0.960 . S
C3295 C3292 1.511 . S
C3295 H3309 0.961 . S
C3295 H3310 0.961 . S
C3295 H3311 0.961 . S
C3296 C3297 1.370 . S
C3296 C3298 1.363 . S
C3296 H3312 0.931 . S
C3297 C3296 1.370 . S
C3297 C3301 1.408 . S
C3298 C3296 1.363 . S
C3298 C3299 1.370 . S
C3298 C3302 1.524 . S
C3299 C3291 1.503 . S
C3299 C3298 1.370 . S
C3299 C3300 1.403 . S
C3300 C3299 1.403 . S
C3300 C3301 1.404 . S
C3300 C3303 1.539 . S
C3301 C3297 1.408 . S
C3301 C3300 1.404 . S
C3301 H3313 0.930 . S
C3302 C3298 1.524 . S
C3302 H3314 0.956 . S
C3302 H3315 0.961 . S
C3302 H3316 0.961 . S
C3303 C3300 1.539 . S
C3303 H3317 0.958 . S
C3303 H3318 0.961 . S
C3303 H3319 0.960 . S
H3304 C3288 0.931 . S
H3305 C3293 0.929 . S
H3306 C3294 0.960 . S
H3307 C3294 0.962 . S
H3308 C3294 0.960 . S
H3309 C3295 0.961 . S
H3310 C3295 0.961 . S
H3311 C3295 0.961 . S
H3312 C3296 0.931 . S
H3313 C3301 0.930 . S
H3314 C3302 0.956 . S
H3315 C3302 0.961 . S
H3316 C3302 0.961 . S
H3317 C3303 0.958 . S
H3318 C3303 0.961 . S
H3319 C3303 0.960 . S
C3320 C3321 1.391 . S
C3320 C3322 1.394 . S
C3320 H3336 0.931 . S
C3321 C3320 1.391 . S
C3321 C3325 1.376 . S
C3322 C3320 1.394 . S
C3322 C3323 1.369 . S
C3322 C3326 1.531 . S
C3323 C3322 1.369 . S
C3323 C3324 1.410 . S
C3323 C3331 1.503 . S
C3324 C3323 1.410 . S
C3324 C3325 1.392 . S
C3324 C3327 1.511 . S
C3325 C3321 1.376 . S
C3325 C3324 1.392 . S
C3325 H3337 0.929 . S
C3326 C3322 1.531 . S
C3326 H3338 0.960 . S
C3326 H3339 0.962 . S
C3326 H3340 0.960 . S
C3327 C3324 1.511 . S
C3327 H3341 0.961 . S
C3327 H3342 0.961 . S
C3327 H3343 0.961 . S
C3328 C3329 1.370 . S
C3328 C3330 1.363 . S
C3328 H3344 0.931 . S
C3329 C3328 1.370 . S
C3329 C3333 1.408 . S
C3330 C3328 1.363 . S
C3330 C3331 1.370 . S
C3330 C3334 1.524 . S
C3331 C3323 1.503 . S
C3331 C3330 1.370 . S
C3331 C3332 1.403 . S
C3332 C3331 1.403 . S
C3332 C3333 1.404 . S
C3332 C3335 1.539 . S
C3333 C3329 1.408 . S
C3333 C3332 1.404 . S
C3333 H3345 0.930 . S
C3334 C3330 1.524 . S
C3334 H3346 0.956 . S
C3334 H3347 0.961 . S
C3334 H3348 0.961 . S
C3335 C3332 1.539 . S
C3335 H3349 0.958 . S
C3335 H3350 0.961 . S
C3335 H3351 0.960 . S
H3336 C3320 0.931 . S
H3337 C3325 0.929 . S
H3338 C3326 0.960 . S
H3339 C3326 0.962 . S
H3340 C3326 0.960 . S
H3341 C3327 0.961 . S
H3342 C3327 0.961 . S
H3343 C3327 0.961 . S
H3344 C3328 0.931 . S
H3345 C3333 0.930 . S
H3346 C3334 0.956 . S
H3347 C3334 0.961 . S
H3348 C3334 0.961 . S
H3349 C3335 0.958 . S
H3350 C3335 0.961 . S
H3351 C3335 0.960 . S
C3352 C3353 1.391 . S
C3352 C3354 1.394 . S
C3352 H3368 0.931 . S
C3353 C3352 1.391 . S
C3353 C3357 1.376 . S
C3354 C3352 1.394 . S
C3354 C3355 1.369 . S
C3354 C3358 1.531 . S
C3355 C3354 1.369 . S
C3355 C3356 1.410 . S
C3355 C3363 1.503 . S
C3356 C3355 1.410 . S
C3356 C3357 1.392 . S
C3356 C3359 1.511 . S
C3357 C3353 1.376 . S
C3357 C3356 1.392 . S
C3357 H3369 0.929 . S
C3358 C3354 1.531 . S
C3358 H3370 0.960 . S
C3358 H3371 0.962 . S
C3358 H3372 0.960 . S
C3359 C3356 1.511 . S
C3359 H3373 0.961 . S
C3359 H3374 0.961 . S
C3359 H3375 0.961 . S
C3360 C3361 1.370 . S
C3360 C3362 1.363 . S
C3360 H3376 0.931 . S
C3361 C3360 1.370 . S
C3361 C3365 1.408 . S
C3362 C3360 1.363 . S
C3362 C3363 1.370 . S
C3362 C3366 1.524 . S
C3363 C3355 1.503 . S
C3363 C3362 1.370 . S
C3363 C3364 1.403 . S
C3364 C3363 1.403 . S
C3364 C3365 1.404 . S
C3364 C3367 1.539 . S
C3365 C3361 1.408 . S
C3365 C3364 1.404 . S
C3365 H3377 0.930 . S
C3366 C3362 1.524 . S
C3366 H3378 0.956 . S
C3366 H3379 0.961 . S
C3366 H3380 0.961 . S
C3367 C3364 1.539 . S
C3367 H3381 0.958 . S
C3367 H3382 0.961 . S
C3367 H3383 0.960 . S
H3368 C3352 0.931 . S
H3369 C3357 0.929 . S
H3370 C3358 0.960 . S
H3371 C3358 0.962 . S
H3372 C3358 0.960 . S
H3373 C3359 0.961 . S
H3374 C3359 0.961 . S
H3375 C3359 0.961 . S
H3376 C3360 0.931 . S
H3377 C3365 0.930 . S
H3378 C3366 0.956 . S
H3379 C3366 0.961 . S
H3380 C3366 0.961 . S
H3381 C3367 0.958 . S
H3382 C3367 0.961 . S
H3383 C3367 0.960 . S
C3384 C3385 1.391 . S
C3384 C3386 1.394 . S
C3384 H3400 0.931 . S
C3385 C3384 1.391 . S
C3385 C3389 1.376 . S
C3386 C3384 1.394 . S
C3386 C3387 1.369 . S
C3386 C3390 1.531 . S
C3387 C3386 1.369 . S
C3387 C3388 1.410 . S
C3387 C3395 1.503 . S
C3388 C3387 1.410 . S
C3388 C3389 1.392 . S
C3388 C3391 1.511 . S
C3389 C3385 1.376 . S
C3389 C3388 1.392 . S
C3389 H3401 0.929 . S
C3390 C3386 1.531 . S
C3390 H3402 0.960 . S
C3390 H3403 0.962 . S
C3390 H3404 0.960 . S
C3391 C3388 1.511 . S
C3391 H3405 0.961 . S
C3391 H3406 0.961 . S
C3391 H3407 0.961 . S
C3392 C3393 1.370 . S
C3392 C3394 1.363 . S
C3392 H3408 0.931 1_556 S
C3393 C3392 1.370 . S
C3393 C3397 1.408 . S
C3394 C3392 1.363 . S
C3394 C3395 1.370 . S
C3394 C3398 1.524 . S
C3395 C3387 1.503 . S
C3395 C3394 1.370 . S
C3395 C3396 1.403 . S
C3396 C3395 1.403 . S
C3396 C3397 1.404 . S
C3396 C3399 1.539 . S
C3397 C3393 1.408 . S
C3397 C3396 1.404 . S
C3397 H3409 0.930 . S
C3398 C3394 1.524 . S
C3398 H3410 0.956 . S
C3398 H3411 0.961 . S
C3398 H3412 0.961 1_556 S
C3399 C3396 1.539 . S
C3399 H3413 0.958 . S
C3399 H3414 0.961 . S
C3399 H3415 0.960 . S
H3400 C3384 0.931 . S
H3401 C3389 0.929 . S
H3402 C3390 0.960 . S
H3403 C3390 0.962 . S
H3404 C3390 0.960 . S
H3405 C3391 0.961 . S
H3406 C3391 0.961 . S
H3407 C3391 0.961 . S
H3408 C3392 0.931 1_554 S
H3409 C3397 0.930 . S
H3410 C3398 0.956 . S
H3411 C3398 0.961 . S
H3412 C3398 0.961 1_554 S
H3413 C3399 0.958 . S
H3414 C3399 0.961 . S
H3415 C3399 0.960 . S
C3416 C3417 1.391 . S
C3416 C3418 1.394 . S
C3416 H3432 0.931 . S
C3417 C3416 1.391 . S
C3417 C3421 1.376 . S
C3418 C3416 1.394 . S
C3418 C3419 1.369 . S
C3418 C3422 1.531 . S
C3419 C3418 1.369 . S
C3419 C3420 1.410 . S
C3419 C3427 1.503 . S
C3420 C3419 1.410 . S
C3420 C3421 1.392 . S
C3420 C3423 1.511 . S
C3421 C3417 1.376 . S
C3421 C3420 1.392 . S
C3421 H3433 0.929 . S
C3422 C3418 1.531 . S
C3422 H3434 0.960 . S
C3422 H3435 0.962 . S
C3422 H3436 0.960 . S
C3423 C3420 1.511 . S
C3423 H3437 0.961 . S
C3423 H3438 0.961 . S
C3423 H3439 0.961 . S
C3424 C3425 1.370 . S
C3424 C3426 1.363 . S
C3424 H3440 0.931 . S
C3425 C3424 1.370 . S
C3425 C3429 1.408 . S
C3426 C3424 1.363 . S
C3426 C3427 1.370 . S
C3426 C3430 1.524 . S
C3427 C3419 1.503 . S
C3427 C3426 1.370 . S
C3427 C3428 1.403 . S
C3428 C3427 1.403 . S
C3428 C3429 1.404 . S
C3428 C3431 1.539 . S
C3429 C3425 1.408 . S
C3429 C3428 1.404 . S
C3429 H3441 0.930 . S
C3430 C3426 1.524 . S
C3430 H3442 0.956 . S
C3430 H3443 0.961 . S
C3430 H3444 0.961 . S
C3431 C3428 1.539 . S
C3431 H3445 0.958 . S
C3431 H3446 0.961 . S
C3431 H3447 0.960 . S
H3432 C3416 0.931 . S
H3433 C3421 0.929 . S
H3434 C3422 0.960 . S
H3435 C3422 0.962 . S
H3436 C3422 0.960 . S
H3437 C3423 0.961 . S
H3438 C3423 0.961 . S
H3439 C3423 0.961 . S
H3440 C3424 0.931 . S
H3441 C3429 0.930 . S
H3442 C3430 0.956 . S
H3443 C3430 0.961 . S
H3444 C3430 0.961 . S
H3445 C3431 0.958 . S
H3446 C3431 0.961 . S
H3447 C3431 0.960 . S
C3448 C3449 1.391 . S
C3448 C3450 1.394 . S
C3448 H3464 0.931 . S
C3449 C3448 1.391 . S
C3449 C3453 1.376 . S
C3450 C3448 1.394 . S
C3450 C3451 1.369 . S
C3450 C3454 1.531 . S
C3451 C3450 1.369 . S
C3451 C3452 1.410 . S
C3451 C3459 1.503 . S
C3452 C3451 1.410 . S
C3452 C3453 1.392 . S
C3452 C3455 1.511 1_455 S
C3453 C3449 1.376 . S
C3453 C3452 1.392 . S
C3453 H3465 0.929 1_455 S
C3454 C3450 1.531 . S
C3454 H3466 0.960 . S
C3454 H3467 0.962 . S
C3454 H3468 0.960 . S
C3455 C3452 1.511 1_655 S
C3455 H3469 0.961 . S
C3455 H3470 0.961 . S
C3455 H3471 0.961 . S
C3456 C3457 1.370 . S
C3456 C3458 1.363 . S
C3456 H3472 0.931 . S
C3457 C3456 1.370 . S
C3457 C3461 1.408 . S
C3458 C3456 1.363 . S
C3458 C3459 1.370 . S
C3458 C3462 1.524 . S
C3459 C3451 1.503 . S
C3459 C3458 1.370 . S
C3459 C3460 1.403 . S
C3460 C3459 1.403 . S
C3460 C3461 1.404 . S
C3460 C3463 1.539 . S
C3461 C3457 1.408 . S
C3461 C3460 1.404 . S
C3461 H3473 0.930 . S
C3462 C3458 1.524 . S
C3462 H3474 0.956 . S
C3462 H3475 0.961 . S
C3462 H3476 0.961 . S
C3463 C3460 1.539 . S
C3463 H3477 0.958 . S
C3463 H3478 0.961 . S
C3463 H3479 0.960 . S
H3464 C3448 0.931 . S
H3465 C3453 0.929 1_655 S
H3466 C3454 0.960 . S
H3467 C3454 0.962 . S
H3468 C3454 0.960 . S
H3469 C3455 0.961 . S
H3470 C3455 0.961 . S
H3471 C3455 0.961 . S
H3472 C3456 0.931 . S
H3473 C3461 0.930 . S
H3474 C3462 0.956 . S
H3475 C3462 0.961 . S
H3476 C3462 0.961 . S
H3477 C3463 0.958 . S
H3478 C3463 0.961 . S
H3479 C3463 0.960 . S
C3480 C3481 1.391 . S
C3480 C3482 1.394 . S
C3480 H3496 0.931 . S
C3481 C3480 1.391 . S
C3481 C3485 1.376 . S
C3482 C3480 1.394 . S
C3482 C3483 1.369 . S
C3482 C3486 1.531 . S
C3483 C3482 1.369 . S
C3483 C3484 1.410 . S
C3483 C3491 1.503 . S
C3484 C3483 1.410 . S
C3484 C3485 1.392 . S
C3484 C3487 1.511 . S
C3485 C3481 1.376 . S
C3485 C3484 1.392 . S
C3485 H3497 0.929 . S
C3486 C3482 1.531 . S
C3486 H3498 0.960 . S
C3486 H3499 0.962 . S
C3486 H3500 0.960 . S
C3487 C3484 1.511 . S
C3487 H3501 0.961 . S
C3487 H3502 0.961 . S
C3487 H3503 0.961 . S
C3488 C3489 1.370 . S
C3488 C3490 1.363 . S
C3488 H3504 0.931 . S
C3489 C3488 1.370 . S
C3489 C3493 1.408 . S
C3490 C3488 1.363 . S
C3490 C3491 1.370 . S
C3490 C3494 1.524 . S
C3491 C3483 1.503 . S
C3491 C3490 1.370 . S
C3491 C3492 1.403 . S
C3492 C3491 1.403 . S
C3492 C3493 1.404 . S
C3492 C3495 1.539 . S
C3493 C3489 1.408 . S
C3493 C3492 1.404 . S
C3493 H3505 0.930 . S
C3494 C3490 1.524 . S
C3494 H3506 0.956 . S
C3494 H3507 0.961 . S
C3494 H3508 0.961 . S
C3495 C3492 1.539 . S
C3495 H3509 0.958 . S
C3495 H3510 0.961 . S
C3495 H3511 0.960 . S
H3496 C3480 0.931 . S
H3497 C3485 0.929 . S
H3498 C3486 0.960 . S
H3499 C3486 0.962 . S
H3500 C3486 0.960 . S
H3501 C3487 0.961 . S
H3502 C3487 0.961 . S
H3503 C3487 0.961 . S
H3504 C3488 0.931 . S
H3505 C3493 0.930 . S
H3506 C3494 0.956 . S
H3507 C3494 0.961 . S
H3508 C3494 0.961 . S
H3509 C3495 0.958 . S
H3510 C3495 0.961 . S
H3511 C3495 0.960 . S
C3512 C3513 1.391 . S
C3512 C3514 1.394 . S
C3512 H3528 0.931 . S
C3513 C3512 1.391 . S
C3513 C3517 1.376 . S
C3514 C3512 1.394 . S
C3514 C3515 1.369 . S
C3514 C3518 1.531 . S
C3515 C3514 1.369 . S
C3515 C3516 1.410 . S
C3515 C3523 1.503 . S
C3516 C3515 1.410 . S
C3516 C3517 1.392 . S
C3516 C3519 1.511 . S
C3517 C3513 1.376 . S
C3517 C3516 1.392 . S
C3517 H3529 0.929 . S
C3518 C3514 1.531 . S
C3518 H3530 0.960 . S
C3518 H3531 0.962 . S
C3518 H3532 0.960 . S
C3519 C3516 1.511 . S
C3519 H3533 0.961 . S
C3519 H3534 0.961 . S
C3519 H3535 0.961 . S
C3520 C3521 1.370 . S
C3520 C3522 1.363 . S
C3520 H3536 0.931 . S
C3521 C3520 1.370 . S
C3521 C3525 1.408 . S
C3522 C3520 1.363 . S
C3522 C3523 1.370 . S
C3522 C3526 1.524 . S
C3523 C3515 1.503 . S
C3523 C3522 1.370 . S
C3523 C3524 1.403 . S
C3524 C3523 1.403 . S
C3524 C3525 1.404 . S
C3524 C3527 1.539 . S
C3525 C3521 1.408 . S
C3525 C3524 1.404 . S
C3525 H3537 0.930 . S
C3526 C3522 1.524 . S
C3526 H3538 0.956 . S
C3526 H3539 0.961 . S
C3526 H3540 0.961 . S
C3527 C3524 1.539 . S
C3527 H3541 0.958 . S
C3527 H3542 0.961 . S
C3527 H3543 0.960 . S
H3528 C3512 0.931 . S
H3529 C3517 0.929 . S
H3530 C3518 0.960 . S
H3531 C3518 0.962 . S
H3532 C3518 0.960 . S
H3533 C3519 0.961 . S
H3534 C3519 0.961 . S
H3535 C3519 0.961 . S
H3536 C3520 0.931 . S
H3537 C3525 0.930 . S
H3538 C3526 0.956 . S
H3539 C3526 0.961 . S
H3540 C3526 0.961 . S
H3541 C3527 0.958 . S
H3542 C3527 0.961 . S
H3543 C3527 0.960 . S
C3544 C3545 1.391 . S
C3544 C3546 1.394 . S
C3544 H3560 0.931 . S
C3545 C3544 1.391 . S
C3545 C3549 1.376 . S
C3546 C3544 1.394 . S
C3546 C3547 1.369 . S
C3546 C3550 1.531 . S
C3547 C3546 1.369 . S
C3547 C3548 1.410 . S
C3547 C3555 1.503 . S
C3548 C3547 1.410 . S
C3548 C3549 1.392 . S
C3548 C3551 1.511 . S
C3549 C3545 1.376 . S
C3549 C3548 1.392 . S
C3549 H3561 0.929 . S
C3550 C3546 1.531 . S
C3550 H3562 0.960 . S
C3550 H3563 0.962 . S
C3550 H3564 0.960 . S
C3551 C3548 1.511 . S
C3551 H3565 0.961 . S
C3551 H3566 0.961 . S
C3551 H3567 0.961 . S
C3552 C3553 1.370 . S
C3552 C3554 1.363 . S
C3552 H3568 0.931 . S
C3553 C3552 1.370 . S
C3553 C3557 1.408 . S
C3554 C3552 1.363 . S
C3554 C3555 1.370 . S
C3554 C3558 1.524 . S
C3555 C3547 1.503 . S
C3555 C3554 1.370 . S
C3555 C3556 1.403 . S
C3556 C3555 1.403 . S
C3556 C3557 1.404 . S
C3556 C3559 1.539 . S
C3557 C3553 1.408 . S
C3557 C3556 1.404 . S
C3557 H3569 0.930 . S
C3558 C3554 1.524 . S
C3558 H3570 0.956 . S
C3558 H3571 0.961 . S
C3558 H3572 0.961 . S
C3559 C3556 1.539 . S
C3559 H3573 0.958 . S
C3559 H3574 0.961 . S
C3559 H3575 0.960 . S
H3560 C3544 0.931 . S
H3561 C3549 0.929 . S
H3562 C3550 0.960 . S
H3563 C3550 0.962 . S
H3564 C3550 0.960 . S
H3565 C3551 0.961 . S
H3566 C3551 0.961 . S
H3567 C3551 0.961 . S
H3568 C3552 0.931 . S
H3569 C3557 0.930 . S
H3570 C3558 0.956 . S
H3571 C3558 0.961 . S
H3572 C3558 0.961 . S
H3573 C3559 0.958 . S
H3574 C3559 0.961 . S
H3575 C3559 0.960 . S
C3576 C3577 1.391 . S
C3576 C3578 1.394 1_655 S
C3576 H3592 0.931 1_655 S
C3577 C3576 1.391 . S
C3577 C3581 1.376 . S
C3578 C3576 1.394 1_455 S
C3578 C3579 1.369 . S
C3578 C3582 1.531 . S
C3579 C3578 1.369 . S
C3579 C3580 1.410 1_455 S
C3579 C3587 1.503 . S
C3580 C3579 1.410 1_655 S
C3580 C3581 1.392 . S
C3580 C3583 1.511 . S
C3581 C3577 1.376 . S
C3581 C3580 1.392 . S
C3581 H3593 0.929 . S
C3582 C3578 1.531 . S
C3582 H3594 0.960 . S
C3582 H3595 0.962 . S
C3582 H3596 0.960 . S
C3583 C3580 1.511 . S
C3583 H3597 0.961 . S
C3583 H3598 0.961 . S
C3583 H3599 0.961 . S
C3584 C3585 1.370 . S
C3584 C3586 1.363 1_455 S
C3584 H3600 0.931 1_455 S
C3585 C3584 1.370 . S
C3585 C3589 1.408 . S
C3586 C3584 1.363 1_655 S
C3586 C3587 1.370 1_655 S
C3586 C3590 1.524 . S
C3587 C3579 1.503 . S
C3587 C3586 1.370 1_455 S
C3587 C3588 1.403 . S
C3588 C3587 1.403 . S
C3588 C3589 1.404 . S
C3588 C3591 1.539 . S
C3589 C3585 1.408 . S
C3589 C3588 1.404 . S
C3589 H3601 0.930 . S
C3590 C3586 1.524 . S
C3590 H3602 0.956 . S
C3590 H3603 0.961 . S
C3590 H3604 0.961 . S
C3591 C3588 1.539 . S
C3591 H3605 0.958 . S
C3591 H3606 0.961 . S
C3591 H3607 0.960 . S
H3592 C3576 0.931 1_455 S
H3593 C3581 0.929 . S
H3594 C3582 0.960 . S
H3595 C3582 0.962 . S
H3596 C3582 0.960 . S
H3597 C3583 0.961 . S
H3598 C3583 0.961 . S
H3599 C3583 0.961 . S
H3600 C3584 0.931 1_655 S
H3601 C3589 0.930 . S
H3602 C3590 0.956 . S
H3603 C3590 0.961 . S
H3604 C3590 0.961 . S
H3605 C3591 0.958 . S
H3606 C3591 0.961 . S
H3607 C3591 0.960 . S
C3608 C3609 1.391 . S
C3608 C3610 1.394 . S
C3608 H3624 0.931 . S
C3609 C3608 1.391 . S
C3609 C3613 1.376 . S
C3610 C3608 1.394 . S
C3610 C3611 1.369 . S
C3610 C3614 1.531 . S
C3611 C3610 1.369 . S
C3611 C3612 1.410 . S
C3611 C3619 1.503 . S
C3612 C3611 1.410 . S
C3612 C3613 1.392 . S
C3612 C3615 1.511 . S
C3613 C3609 1.376 . S
C3613 C3612 1.392 . S
C3613 H3625 0.929 . S
C3614 C3610 1.531 . S
C3614 H3626 0.960 . S
C3614 H3627 0.962 . S
C3614 H3628 0.960 . S
C3615 C3612 1.511 . S
C3615 H3629 0.961 . S
C3615 H3630 0.961 . S
C3615 H3631 0.961 . S
C3616 C3617 1.370 . S
C3616 C3618 1.363 . S
C3616 H3632 0.931 . S
C3617 C3616 1.370 . S
C3617 C3621 1.408 . S
C3618 C3616 1.363 . S
C3618 C3619 1.370 . S
C3618 C3622 1.524 . S
C3619 C3611 1.503 . S
C3619 C3618 1.370 . S
C3619 C3620 1.403 . S
C3620 C3619 1.403 . S
C3620 C3621 1.404 . S
C3620 C3623 1.539 . S
C3621 C3617 1.408 . S
C3621 C3620 1.404 . S
C3621 H3633 0.930 . S
C3622 C3618 1.524 . S
C3622 H3634 0.956 . S
C3622 H3635 0.961 . S
C3622 H3636 0.961 . S
C3623 C3620 1.539 . S
C3623 H3637 0.958 . S
C3623 H3638 0.961 . S
C3623 H3639 0.960 . S
H3624 C3608 0.931 . S
H3625 C3613 0.929 . S
H3626 C3614 0.960 . S
H3627 C3614 0.962 . S
H3628 C3614 0.960 . S
H3629 C3615 0.961 . S
H3630 C3615 0.961 . S
H3631 C3615 0.961 . S
H3632 C3616 0.931 . S
H3633 C3621 0.930 . S
H3634 C3622 0.956 . S
H3635 C3622 0.961 . S
H3636 C3622 0.961 . S
H3637 C3623 0.958 . S
H3638 C3623 0.961 . S
H3639 C3623 0.960 . S
C3640 C3641 1.391 . S
C3640 C3642 1.394 . S
C3640 H3656 0.931 . S
C3641 C3640 1.391 . S
C3641 C3645 1.376 . S
C3642 C3640 1.394 . S
C3642 C3643 1.369 . S
C3642 C3646 1.531 . S
C3643 C3642 1.369 . S
C3643 C3644 1.410 . S
C3643 C3651 1.503 . S
C3644 C3643 1.410 . S
C3644 C3645 1.392 . S
C3644 C3647 1.511 . S
C3645 C3641 1.376 . S
C3645 C3644 1.392 . S
C3645 H3657 0.929 . S
C3646 C3642 1.531 . S
C3646 H3658 0.960 . S
C3646 H3659 0.962 . S
C3646 H3660 0.960 . S
C3647 C3644 1.511 . S
C3647 H3661 0.961 . S
C3647 H3662 0.961 . S
C3647 H3663 0.961 . S
C3648 C3649 1.370 . S
C3648 C3650 1.363 . S
C3648 H3664 0.931 . S
C3649 C3648 1.370 . S
C3649 C3653 1.408 . S
C3650 C3648 1.363 . S
C3650 C3651 1.370 . S
C3650 C3654 1.524 . S
C3651 C3643 1.503 . S
C3651 C3650 1.370 . S
C3651 C3652 1.403 . S
C3652 C3651 1.403 . S
C3652 C3653 1.404 . S
C3652 C3655 1.539 . S
C3653 C3649 1.408 . S
C3653 C3652 1.404 . S
C3653 H3665 0.930 . S
C3654 C3650 1.524 . S
C3654 H3666 0.956 . S
C3654 H3667 0.961 . S
C3654 H3668 0.961 . S
C3655 C3652 1.539 . S
C3655 H3669 0.958 . S
C3655 H3670 0.961 . S
C3655 H3671 0.960 . S
H3656 C3640 0.931 . S
H3657 C3645 0.929 . S
H3658 C3646 0.960 . S
H3659 C3646 0.962 . S
H3660 C3646 0.960 . S
H3661 C3647 0.961 . S
H3662 C3647 0.961 . S
H3663 C3647 0.961 . S
H3664 C3648 0.931 . S
H3665 C3653 0.930 . S
H3666 C3654 0.956 . S
H3667 C3654 0.961 . S
H3668 C3654 0.961 . S
H3669 C3655 0.958 . S
H3670 C3655 0.961 . S
H3671 C3655 0.960 . S
C3672 C3673 1.391 . S
C3672 C3674 1.394 . S
C3672 H3688 0.931 . S
C3673 C3672 1.391 . S
C3673 C3677 1.376 . S
C3674 C3672 1.394 . S
C3674 C3675 1.369 . S
C3674 C3678 1.531 . S
C3675 C3674 1.369 . S
C3675 C3676 1.410 . S
C3675 C3683 1.503 . S
C3676 C3675 1.410 . S
C3676 C3677 1.392 . S
C3676 C3679 1.511 . S
C3677 C3673 1.376 . S
C3677 C3676 1.392 . S
C3677 H3689 0.929 . S
C3678 C3674 1.531 . S
C3678 H3690 0.960 . S
C3678 H3691 0.962 . S
C3678 H3692 0.960 . S
C3679 C3676 1.511 . S
C3679 H3693 0.961 . S
C3679 H3694 0.961 . S
C3679 H3695 0.961 . S
C3680 C3681 1.370 . S
C3680 C3682 1.363 . S
C3680 H3696 0.931 . S
C3681 C3680 1.370 . S
C3681 C3685 1.408 . S
C3682 C3680 1.363 . S
C3682 C3683 1.370 . S
C3682 C3686 1.524 . S
C3683 C3675 1.503 . S
C3683 C3682 1.370 . S
C3683 C3684 1.403 . S
C3684 C3683 1.403 . S
C3684 C3685 1.404 . S
C3684 C3687 1.539 . S
C3685 C3681 1.408 . S
C3685 C3684 1.404 . S
C3685 H3697 0.930 . S
C3686 C3682 1.524 . S
C3686 H3698 0.956 . S
C3686 H3699 0.961 . S
C3686 H3700 0.961 . S
C3687 C3684 1.539 . S
C3687 H3701 0.958 . S
C3687 H3702 0.961 . S
C3687 H3703 0.960 . S
H3688 C3672 0.931 . S
H3689 C3677 0.929 . S
H3690 C3678 0.960 . S
H3691 C3678 0.962 . S
H3692 C3678 0.960 . S
H3693 C3679 0.961 . S
H3694 C3679 0.961 . S
H3695 C3679 0.961 . S
H3696 C3680 0.931 . S
H3697 C3685 0.930 . S
H3698 C3686 0.956 . S
H3699 C3686 0.961 . S
H3700 C3686 0.961 . S
H3701 C3687 0.958 . S
H3702 C3687 0.961 . S
H3703 C3687 0.960 . S
C3704 C3705 1.391 . S
C3704 C3706 1.394 . S
C3704 H3720 0.931 . S
C3705 C3704 1.391 . S
C3705 C3709 1.376 . S
C3706 C3704 1.394 . S
C3706 C3707 1.369 . S
C3706 C3710 1.531 . S
C3707 C3706 1.369 . S
C3707 C3708 1.410 . S
C3707 C3715 1.503 . S
C3708 C3707 1.410 . S
C3708 C3709 1.392 . S
C3708 C3711 1.511 . S
C3709 C3705 1.376 . S
C3709 C3708 1.392 . S
C3709 H3721 0.929 . S
C3710 C3706 1.531 . S
C3710 H3722 0.960 . S
C3710 H3723 0.962 . S
C3710 H3724 0.960 . S
C3711 C3708 1.511 . S
C3711 H3725 0.961 . S
C3711 H3726 0.961 . S
C3711 H3727 0.961 1_655 S
C3712 C3713 1.370 . S
C3712 C3714 1.363 . S
C3712 H3728 0.931 . S
C3713 C3712 1.370 . S
C3713 C3717 1.408 1_655 S
C3714 C3712 1.363 . S
C3714 C3715 1.370 . S
C3714 C3718 1.524 . S
C3715 C3707 1.503 . S
C3715 C3714 1.370 . S
C3715 C3716 1.403 1_655 S
C3716 C3715 1.403 1_455 S
C3716 C3717 1.404 . S
C3716 C3719 1.539 . S
C3717 C3713 1.408 1_455 S
C3717 C3716 1.404 . S
C3717 H3729 0.930 . S
C3718 C3714 1.524 . S
C3718 H3730 0.956 . S
C3718 H3731 0.961 . S
C3718 H3732 0.961 . S
C3719 C3716 1.539 . S
C3719 H3733 0.958 . S
C3719 H3734 0.961 . S
C3719 H3735 0.960 . S
H3720 C3704 0.931 . S
H3721 C3709 0.929 . S
H3722 C3710 0.960 . S
H3723 C3710 0.962 . S
H3724 C3710 0.960 . S
H3725 C3711 0.961 . S
H3726 C3711 0.961 . S
H3727 C3711 0.961 1_455 S
H3728 C3712 0.931 . S
H3729 C3717 0.930 . S
H3730 C3718 0.956 . S
H3731 C3718 0.961 . S
H3732 C3718 0.961 . S
H3733 C3719 0.958 . S
H3734 C3719 0.961 . S
H3735 C3719 0.960 . S
C3736 C3737 1.391 . S
C3736 C3738 1.394 . S
C3736 H3752 0.931 . S
C3737 C3736 1.391 . S
C3737 C3741 1.376 . S
C3738 C3736 1.394 . S
C3738 C3739 1.369 . S
C3738 C3742 1.531 . S
C3739 C3738 1.369 . S
C3739 C3740 1.410 . S
C3739 C3747 1.503 . S
C3740 C3739 1.410 . S
C3740 C3741 1.392 . S
C3740 C3743 1.511 . S
C3741 C3737 1.376 . S
C3741 C3740 1.392 . S
C3741 H3753 0.929 . S
C3742 C3738 1.531 . S
C3742 H3754 0.960 . S
C3742 H3755 0.962 . S
C3742 H3756 0.960 . S
C3743 C3740 1.511 . S
C3743 H3757 0.961 . S
C3743 H3758 0.961 . S
C3743 H3759 0.961 . S
C3744 C3745 1.370 . S
C3744 C3746 1.363 . S
C3744 H3760 0.931 . S
C3745 C3744 1.370 . S
C3745 C3749 1.408 . S
C3746 C3744 1.363 . S
C3746 C3747 1.370 . S
C3746 C3750 1.524 . S
C3747 C3739 1.503 . S
C3747 C3746 1.370 . S
C3747 C3748 1.403 . S
C3748 C3747 1.403 . S
C3748 C3749 1.404 . S
C3748 C3751 1.539 . S
C3749 C3745 1.408 . S
C3749 C3748 1.404 . S
C3749 H3761 0.930 . S
C3750 C3746 1.524 . S
C3750 H3762 0.956 . S
C3750 H3763 0.961 . S
C3750 H3764 0.961 . S
C3751 C3748 1.539 . S
C3751 H3765 0.958 . S
C3751 H3766 0.961 . S
C3751 H3767 0.960 . S
H3752 C3736 0.931 . S
H3753 C3741 0.929 . S
H3754 C3742 0.960 . S
H3755 C3742 0.962 . S
H3756 C3742 0.960 . S
H3757 C3743 0.961 . S
H3758 C3743 0.961 . S
H3759 C3743 0.961 . S
H3760 C3744 0.931 . S
H3761 C3749 0.930 . S
H3762 C3750 0.956 . S
H3763 C3750 0.961 . S
H3764 C3750 0.961 . S
H3765 C3751 0.958 . S
H3766 C3751 0.961 . S
H3767 C3751 0.960 . S
C3768 C3769 1.391 . S
C3768 C3770 1.394 . S
C3768 H3784 0.931 . S
C3769 C3768 1.391 . S
C3769 C3773 1.376 . S
C3770 C3768 1.394 . S
C3770 C3771 1.369 . S
C3770 C3774 1.531 . S
C3771 C3770 1.369 . S
C3771 C3772 1.410 . S
C3771 C3779 1.503 . S
C3772 C3771 1.410 . S
C3772 C3773 1.392 . S
C3772 C3775 1.511 . S
C3773 C3769 1.376 . S
C3773 C3772 1.392 . S
C3773 H3785 0.929 . S
C3774 C3770 1.531 . S
C3774 H3786 0.960 . S
C3774 H3787 0.962 . S
C3774 H3788 0.960 . S
C3775 C3772 1.511 . S
C3775 H3789 0.961 . S
C3775 H3790 0.961 . S
C3775 H3791 0.961 . S
C3776 C3777 1.370 . S
C3776 C3778 1.363 . S
C3776 H3792 0.931 . S
C3777 C3776 1.370 . S
C3777 C3781 1.408 . S
C3778 C3776 1.363 . S
C3778 C3779 1.370 . S
C3778 C3782 1.524 . S
C3779 C3771 1.503 . S
C3779 C3778 1.370 . S
C3779 C3780 1.403 . S
C3780 C3779 1.403 . S
C3780 C3781 1.404 . S
C3780 C3783 1.539 . S
C3781 C3777 1.408 . S
C3781 C3780 1.404 . S
C3781 H3793 0.930 . S
C3782 C3778 1.524 . S
C3782 H3794 0.956 . S
C3782 H3795 0.961 . S
C3782 H3796 0.961 . S
C3783 C3780 1.539 . S
C3783 H3797 0.958 . S
C3783 H3798 0.961 . S
C3783 H3799 0.960 . S
H3784 C3768 0.931 . S
H3785 C3773 0.929 . S
H3786 C3774 0.960 . S
H3787 C3774 0.962 . S
H3788 C3774 0.960 . S
H3789 C3775 0.961 . S
H3790 C3775 0.961 . S
H3791 C3775 0.961 . S
H3792 C3776 0.931 . S
H3793 C3781 0.930 . S
H3794 C3782 0.956 . S
H3795 C3782 0.961 . S
H3796 C3782 0.961 . S
H3797 C3783 0.958 . S
H3798 C3783 0.961 . S
H3799 C3783 0.960 . S
C3800 C3801 1.391 . S
C3800 C3802 1.394 . S
C3800 H3816 0.931 . S
C3801 C3800 1.391 . S
C3801 C3805 1.376 . S
C3802 C3800 1.394 . S
C3802 C3803 1.369 . S
C3802 C3806 1.531 . S
C3803 C3802 1.369 . S
C3803 C3804 1.410 . S
C3803 C3811 1.503 . S
C3804 C3803 1.410 . S
C3804 C3805 1.392 . S
C3804 C3807 1.511 . S
C3805 C3801 1.376 . S
C3805 C3804 1.392 . S
C3805 H3817 0.929 . S
C3806 C3802 1.531 . S
C3806 H3818 0.960 . S
C3806 H3819 0.962 1_565 S
C3806 H3820 0.960 . S
C3807 C3804 1.511 . S
C3807 H3821 0.961 . S
C3807 H3822 0.961 . S
C3807 H3823 0.961 . S
C3808 C3809 1.370 . S
C3808 C3810 1.363 . S
C3808 H3824 0.931 . S
C3809 C3808 1.370 . S
C3809 C3813 1.408 . S
C3810 C3808 1.363 . S
C3810 C3811 1.370 1_545 S
C3810 C3814 1.524 . S
C3811 C3803 1.503 . S
C3811 C3810 1.370 1_565 S
C3811 C3812 1.403 . S
C3812 C3811 1.403 . S
C3812 C3813 1.404 1_565 S
C3812 C3815 1.539 . S
C3813 C3809 1.408 . S
C3813 C3812 1.404 1_545 S
C3813 H3825 0.930 1_545 S
C3814 C3810 1.524 . S
C3814 H3826 0.956 . S
C3814 H3827 0.961 . S
C3814 H3828 0.961 . S
C3815 C3812 1.539 . S
C3815 H3829 0.958 . S
C3815 H3830 0.961 . S
C3815 H3831 0.960 . S
H3816 C3800 0.931 . S
H3817 C3805 0.929 . S
H3818 C3806 0.960 . S
H3819 C3806 0.962 1_545 S
H3820 C3806 0.960 . S
H3821 C3807 0.961 . S
H3822 C3807 0.961 . S
H3823 C3807 0.961 . S
H3824 C3808 0.931 . S
H3825 C3813 0.930 1_565 S
H3826 C3814 0.956 . S
H3827 C3814 0.961 . S
H3828 C3814 0.961 . S
H3829 C3815 0.958 . S
H3830 C3815 0.961 . S
H3831 C3815 0.960 . S
C3832 C3833 1.391 . S
C3832 C3834 1.394 . S
C3832 H3848 0.931 . S
C3833 C3832 1.391 . S
C3833 C3837 1.376 . S
C3834 C3832 1.394 . S
C3834 C3835 1.369 . S
C3834 C3838 1.531 . S
C3835 C3834 1.369 . S
C3835 C3836 1.410 . S
C3835 C3843 1.503 . S
C3836 C3835 1.410 . S
C3836 C3837 1.392 . S
C3836 C3839 1.511 . S
C3837 C3833 1.376 . S
C3837 C3836 1.392 . S
C3837 H3849 0.929 . S
C3838 C3834 1.531 . S
C3838 H3850 0.960 . S
C3838 H3851 0.962 . S
C3838 H3852 0.960 . S
C3839 C3836 1.511 . S
C3839 H3853 0.961 . S
C3839 H3854 0.961 . S
C3839 H3855 0.961 . S
C3840 C3841 1.370 . S
C3840 C3842 1.363 . S
C3840 H3856 0.931 . S
C3841 C3840 1.370 . S
C3841 C3845 1.408 . S
C3842 C3840 1.363 . S
C3842 C3843 1.370 . S
C3842 C3846 1.524 . S
C3843 C3835 1.503 . S
C3843 C3842 1.370 . S
C3843 C3844 1.403 . S
C3844 C3843 1.403 . S
C3844 C3845 1.404 . S
C3844 C3847 1.539 . S
C3845 C3841 1.408 . S
C3845 C3844 1.404 . S
C3845 H3857 0.930 . S
C3846 C3842 1.524 . S
C3846 H3858 0.956 . S
C3846 H3859 0.961 . S
C3846 H3860 0.961 . S
C3847 C3844 1.539 . S
C3847 H3861 0.958 . S
C3847 H3862 0.961 . S
C3847 H3863 0.960 . S
H3848 C3832 0.931 . S
H3849 C3837 0.929 . S
H3850 C3838 0.960 . S
H3851 C3838 0.962 . S
H3852 C3838 0.960 . S
H3853 C3839 0.961 . S
H3854 C3839 0.961 . S
H3855 C3839 0.961 . S
H3856 C3840 0.931 . S
H3857 C3845 0.930 . S
H3858 C3846 0.956 . S
H3859 C3846 0.961 . S
H3860 C3846 0.961 . S
H3861 C3847 0.958 . S
H3862 C3847 0.961 . S
H3863 C3847 0.960 . S
C3864 C3865 1.391 . S
C3864 C3866 1.394 . S
C3864 H3880 0.931 . S
C3865 C3864 1.391 . S
C3865 C3869 1.376 . S
C3866 C3864 1.394 . S
C3866 C3867 1.369 . S
C3866 C3870 1.531 . S
C3867 C3866 1.369 . S
C3867 C3868 1.410 . S
C3867 C3875 1.503 . S
C3868 C3867 1.410 . S
C3868 C3869 1.392 . S
C3868 C3871 1.511 . S
C3869 C3865 1.376 . S
C3869 C3868 1.392 . S
C3869 H3881 0.929 . S
C3870 C3866 1.531 . S
C3870 H3882 0.960 . S
C3870 H3883 0.931 1_556 S
C3870 H3884 0.960 . S
C3871 C3868 1.511 . S
C3871 H3885 0.952 1_556 S
C3871 H3886 0.961 1_556 S
C3871 H3887 0.961 . S
C3872 C3873 1.370 . S
C3872 C3874 1.363 . S
C3872 H3888 0.931 . S
C3873 C3872 1.370 . S
C3873 C3877 1.408 1_554 S
C3874 C3872 1.363 . S
C3874 C3875 1.370 1_554 S
C3874 C3878 1.524 . S
C3875 C3867 1.503 . S
C3875 C3874 1.370 1_556 S
C3875 C3876 1.403 . S
C3876 C3875 1.403 . S
C3876 C3877 1.404 . S
C3876 C3879 1.539 . S
C3877 C3873 1.408 1_556 S
C3877 C3876 1.404 . S
C3877 H3889 0.930 . S
C3878 C3874 1.524 . S
C3878 H3890 0.956 . S
C3878 H3891 0.961 . S
C3878 H3892 0.961 . S
C3879 C3876 1.539 . S
C3879 H3893 0.958 . S
C3879 H3894 0.961 . S
C3879 H3895 0.960 . S
H3880 C3864 0.931 . S
H3881 C3869 0.929 . S
H3882 C3870 0.960 . S
H3883 C3870 0.931 1_554 S
H3884 C3870 0.960 . S
H3885 C3871 0.952 1_554 S
H3886 C3871 0.961 1_554 S
H3887 C3871 0.961 . S
H3888 C3872 0.931 . S
H3889 C3877 0.930 . S
H3890 C3878 0.956 . S
H3891 C3878 0.961 . S
H3892 C3878 0.961 . S
H3893 C3879 0.958 . S
H3894 C3879 0.961 . S
H3895 C3879 0.960 . S
C3896 C3897 1.391 . S
C3896 C3898 1.394 . S
C3896 H3912 0.931 . S
C3897 C3896 1.391 . S
C3897 C3901 1.376 . S
C3898 C3896 1.394 . S
C3898 C3899 1.369 . S
C3898 C3902 1.531 . S
C3899 C3898 1.369 . S
C3899 C3900 1.410 . S
C3899 C3907 1.503 . S
C3900 C3899 1.410 . S
C3900 C3901 1.392 . S
C3900 C3903 1.511 . S
C3901 C3897 1.376 . S
C3901 C3900 1.392 . S
C3901 H3913 0.929 . S
C3902 C3898 1.531 . S
C3902 H3914 0.960 . S
C3902 H3915 0.962 . S
C3902 H3916 0.960 . S
C3903 C3900 1.511 . S
C3903 H3917 0.961 . S
C3903 H3918 0.961 . S
C3903 H3919 0.961 . S
C3904 C3905 1.370 . S
C3904 C3906 1.363 . S
C3904 H3920 0.931 . S
C3905 C3904 1.370 . S
C3905 C3909 1.408 . S
C3906 C3904 1.363 . S
C3906 C3907 1.370 . S
C3906 C3910 1.524 . S
C3907 C3899 1.503 . S
C3907 C3906 1.370 . S
C3907 C3908 1.403 . S
C3908 C3907 1.403 . S
C3908 C3909 1.404 . S
C3908 C3911 1.539 . S
C3909 C3905 1.408 . S
C3909 C3908 1.404 . S
C3909 H3921 0.930 . S
C3910 C3906 1.524 . S
C3910 H3922 0.956 . S
C3910 H3923 0.961 . S
C3910 H3924 0.961 . S
C3911 C3908 1.539 . S
C3911 H3925 0.958 . S
C3911 H3926 0.961 . S
C3911 H3927 0.960 . S
H3912 C3896 0.931 . S
H3913 C3901 0.929 . S
H3914 C3902 0.960 . S
H3915 C3902 0.962 . S
H3916 C3902 0.960 . S
H3917 C3903 0.961 . S
H3918 C3903 0.961 . S
H3919 C3903 0.961 . S
H3920 C3904 0.931 . S
H3921 C3909 0.930 . S
H3922 C3910 0.956 . S
H3923 C3910 0.961 . S
H3924 C3910 0.961 . S
H3925 C3911 0.958 . S
H3926 C3911 0.961 . S
H3927 C3911 0.960 . S
C3928 C3929 1.391 . S
C3928 C3930 1.394 . S
C3928 H3944 0.931 . S
C3929 C3928 1.391 . S
C3929 C3933 1.376 . S
C3930 C3928 1.394 . S
C3930 C3931 1.369 . S
C3930 C3934 1.531 . S
C3931 C3930 1.369 . S
C3931 C3932 1.410 . S
C3931 C3939 1.503 . S
C3932 C3931 1.410 . S
C3932 C3933 1.392 . S
C3932 C3935 1.511 1_554 S
C3933 C3929 1.376 . S
C3933 C3932 1.392 . S
C3933 H3945 0.929 . S
C3934 C3930 1.531 . S
C3934 H3946 0.960 . S
C3934 H3947 0.962 . S
C3934 H3948 0.960 . S
C3935 C3932 1.511 1_556 S
C3935 H3949 0.961 . S
C3935 H3950 0.961 . S
C3935 H3951 0.971 . S
C3936 C3937 1.370 1_556 S
C3936 C3938 1.364 . S
C3936 H3952 0.931 . S
C3937 C3936 1.370 1_554 S
C3937 C3941 1.408 . S
C3938 C3936 1.364 . S
C3938 C3939 1.368 1_556 S
C3938 C3942 1.526 . S
C3939 C3931 1.503 . S
C3939 C3938 1.368 1_554 S
C3939 C3940 1.403 . S
C3940 C3939 1.403 . S
C3940 C3941 1.404 . S
C3940 C3943 1.539 . S
C3941 C3937 1.408 . S
C3941 C3940 1.404 . S
C3941 H3953 0.930 . S
C3942 C3938 1.526 . S
C3942 H3954 0.981 . S
C3942 H3955 0.961 . S
C3942 H3956 0.961 . S
C3943 C3940 1.539 . S
C3943 H3957 0.958 . S
C3943 H3958 0.961 . S
C3943 H3959 0.960 . S
H3944 C3928 0.931 . S
H3945 C3933 0.929 . S
H3946 C3934 0.960 . S
H3947 C3934 0.962 . S
H3948 C3934 0.960 . S
H3949 C3935 0.961 . S
H3950 C3935 0.961 . S
H3951 C3935 0.971 . S
H3952 C3936 0.931 . S
H3953 C3941 0.930 . S
H3954 C3942 0.981 . S
H3955 C3942 0.961 . S
H3956 C3942 0.961 . S
H3957 C3943 0.958 . S
H3958 C3943 0.961 . S
H3959 C3943 0.960 . S
C3960 C3961 1.391 . S
C3960 C3962 1.394 . S
C3960 H3976 0.931 . S
C3961 C3960 1.391 . S
C3961 C3965 1.376 . S
C3962 C3960 1.394 . S
C3962 C3963 1.369 . S
C3962 C3966 1.531 . S
C3963 C3962 1.369 . S
C3963 C3964 1.410 . S
C3963 C3971 1.503 . S
C3964 C3963 1.410 . S
C3964 C3965 1.392 . S
C3964 C3967 1.511 . S
C3965 C3961 1.376 . S
C3965 C3964 1.392 . S
C3965 H3977 0.929 . S
C3966 C3962 1.531 . S
C3966 H3978 0.960 . S
C3966 H3979 0.962 . S
C3966 H3980 0.960 . S
C3967 C3964 1.511 . S
C3967 H3981 0.961 . S
C3967 H3982 0.961 . S
C3967 H3983 0.961 . S
C3968 C3969 1.370 . S
C3968 C3970 1.363 . S
C3968 H3984 0.931 . S
C3969 C3968 1.370 . S
C3969 C3973 1.408 . S
C3970 C3968 1.363 . S
C3970 C3971 1.370 . S
C3970 C3974 1.524 . S
C3971 C3963 1.503 . S
C3971 C3970 1.370 . S
C3971 C3972 1.403 . S
C3972 C3971 1.403 . S
C3972 C3973 1.404 . S
C3972 C3975 1.539 . S
C3973 C3969 1.408 . S
C3973 C3972 1.404 . S
C3973 H3985 0.930 . S
C3974 C3970 1.524 . S
C3974 H3986 0.956 . S
C3974 H3987 0.961 . S
C3974 H3988 0.961 . S
C3975 C3972 1.539 . S
C3975 H3989 0.958 . S
C3975 H3990 0.961 . S
C3975 H3991 0.960 . S
H3976 C3960 0.931 . S
H3977 C3965 0.929 . S
H3978 C3966 0.960 . S
H3979 C3966 0.962 . S
H3980 C3966 0.960 . S
H3981 C3967 0.961 . S
H3982 C3967 0.961 . S
H3983 C3967 0.961 . S
H3984 C3968 0.931 . S
H3985 C3973 0.930 . S
H3986 C3974 0.956 . S
H3987 C3974 0.961 . S
H3988 C3974 0.961 . S
H3989 C3975 0.958 . S
H3990 C3975 0.961 . S
H3991 C3975 0.960 . S
C3992 C3993 1.391 . S
C3992 C3994 1.394 . S
C3992 H4008 0.931 . S
C3993 C3992 1.391 . S
C3993 C3997 1.376 . S
C3994 C3992 1.394 . S
C3994 C3995 1.369 . S
C3994 C3998 1.531 . S
C3995 C3994 1.369 . S
C3995 C3996 1.410 . S
C3995 C4003 1.503 . S
C3996 C3995 1.410 . S
C3996 C3997 1.392 . S
C3996 C3999 1.511 . S
C3997 C3993 1.376 . S
C3997 C3996 1.392 . S
C3997 H4009 0.929 . S
C3998 C3994 1.531 . S
C3998 H4010 0.960 . S
C3998 H4011 0.962 . S
C3998 H4012 0.960 . S
C3999 C3996 1.511 . S
C3999 H4013 0.961 . S
C3999 H4014 0.961 . S
C3999 H4015 0.961 . S
C4000 C4001 1.370 . S
C4000 C4002 1.363 . S
C4000 H4016 0.931 . S
C4001 C4000 1.370 . S
C4001 C4005 1.408 . S
C4002 C4000 1.363 . S
C4002 C4003 1.370 . S
C4002 C4006 1.524 . S
C4003 C3995 1.503 . S
C4003 C4002 1.370 . S
C4003 C4004 1.403 . S
C4004 C4003 1.403 . S
C4004 C4005 1.404 . S
C4004 C4007 1.539 . S
C4005 C4001 1.408 . S
C4005 C4004 1.404 . S
C4005 H4017 0.930 . S
C4006 C4002 1.524 . S
C4006 H4018 0.956 . S
C4006 H4019 0.961 . S
C4006 H4020 0.961 . S
C4007 C4004 1.539 . S
C4007 H4021 0.958 . S
C4007 H4022 0.961 . S
C4007 H4023 0.960 . S
H4008 C3992 0.931 . S
H4009 C3997 0.929 . S
H4010 C3998 0.960 . S
H4011 C3998 0.962 . S
H4012 C3998 0.960 . S
H4013 C3999 0.961 . S
H4014 C3999 0.961 . S
H4015 C3999 0.961 . S
H4016 C4000 0.931 . S
H4017 C4005 0.930 . S
H4018 C4006 0.956 . S
H4019 C4006 0.961 . S
H4020 C4006 0.961 . S
H4021 C4007 0.958 . S
H4022 C4007 0.961 . S
H4023 C4007 0.960 . S
C953 C101 2.090 . S
C961 C322 2.011 . S
C985 C57 1.762 . S
C993 C361 1.734 . S
C1017 C70 1.210 . S
C1025 C402 1.209 1_565 S
C1057 C447 1.447 . S
C1049 C82 1.463 . S
C1081 C23 1.945 . S
C1089 C491 1.931 . S
C1121 C522 1.285 . S
C1113 C29 1.353 . S
C1153 C570 1.905 . S
C1145 C49 1.883 . S
C1177 C10 1.824 . S
C1185 C598 1.776 . S
C1217 C330 1.596 . S
C1209 C218 1.529 . S
C1241 C226 1.300 . S
C1249 C371 1.266 . S
C1281 C410 1.388 . S
C1273 C251 1.318 . S
C1313 C442 1.281 . S
C1305 C159 1.303 . S
C1337 C211 0.177 . S
C1345 C478 0.322 . S
C1377 C530 2.146 . S
C1369 C225 2.147 . S
C1409 C567 1.141 . S
C1401 C252 1.116 . S
C1441 C601 1.942 . S
C1433 C166 1.954 . S
C1473 C327 1.939 . S
C1465 C147 2.017 . S
C1497 C263 1.927 . S
C1505 C641 1.893 . S
C1537 C687 1.363 . S
C1529 C309 1.349 . S
C1569 C722 1.455 . S
C1561 C291 1.524 . S
C1593 C108 2.025 . S
C1601 C611 1.965 . S
C1625 C121 1.418 . S
C1633 C407 1.365 . S
C1657 C302 1.250 . S
C1665 C770 1.266 . S
C1697 C798 0.455 . S
C1689 C276 0.414 . S
C1729 C331 2.258 . S
C1721 C55 2.306 . S
C1761 C810 1.935 . S
C1753 C96 1.965 . S
C1785 C88 1.702 . S
C1793 C411 1.689 . S
C1817 C75 1.590 . S
C1825 C758 1.583 . S
C1857 C482 2.337 . S
C1849 C4 2.365 . S
C1881 C44 1.525 . S
C1889 C691 1.509 . S
C1921 C561 2.183 1_556 S
C1913 C31 2.189 . S
C1953 C847 1.713 . S
C1945 C18 1.744 . S
C1985 C321 1.634 1_556 S
C1977 C133 1.633 . S
C2017 C802 1.795 . S
C2009 C296 1.839 . S
C2041 C107 1.631 . S
C2049 C401 1.676 . S
C2073 C264 1.781 . S
C2081 C771 1.775 . S
C2105 C140 0.375 . S
C2113 C487 0.425 . S
C2145 C681 2.417 . S
C2137 C289 2.431 . S
C2169 C114 1.063 . S
C2177 C558 1.126 . S
C2201 C265 2.131 . S
C2209 C850 2.125 . S
C2233 C179 1.920 . S
C2241 C318 1.875 . S
C2265 C161 2.147 . S
C2273 C650 2.095 . S
C2297 C244 1.382 . S
C2305 C518 1.325 . S
C2329 C224 1.719 . S
C2337 C731 1.697 . S
C2369 C842 1.996 . S
C2361 C257 2.043 . S
C2393 C199 1.523 . S
C2401 C398 1.522 1_565 S
C2433 C441 1.534 . S
C2425 C237 1.503 . S
C2465 C367 0.637 . S
C2457 C185 0.614 . S
C2489 C69 2.088 . S
C2497 C882 2.014 . S
C2529 C801 1.737 . S
C2521 C83 1.758 . S
C2553 C94 1.213 . S
C2561 C922 1.206 . S
C2585 C56 1.473 . S
C2593 C767 1.441 . S
C2617 C42 1.953 . S
C2625 C651 1.939 . S
C2657 C682 1.295 . S
C2649 C3 1.340 . S
C2689 C730 1.920 . S
C2681 C16 1.915 . S
C2721 C838 1.773 . S
C2713 C36 1.834 . S
C2753 C890 1.592 . S
C2745 C238 1.501 . S
C2777 C174 1.283 . S
C2785 C811 1.265 . S
C2817 C930 1.375 . S
C2809 C186 1.349 . S
C2849 C762 1.279 . S
C2841 C198 1.303 . S
C2881 C638 0.332 . S
C2873 C239 0.185 . S
C2905 C173 2.144 . S
C2913 C690 2.139 . S
C2945 C727 1.107 . S
C2937 C187 1.210 . S
C2969 C205 1.940 . S
C2977 C841 1.949 . S
C3009 C887 1.949 . S
C3001 C290 2.014 . S
C3033 C122 1.929 . S
C3041 C481 1.893 . S
C3073 C527 1.368 . S
C3065 C134 1.365 . S
C3105 C562 1.458 . S
C3097 C148 1.545 . S
C3137 C851 1.979 . S
C3129 C283 1.987 . S
C3161 C270 1.426 . S
C3169 C927 1.365 . S
C3201 C450 1.280 . S
C3193 C135 1.194 . S
C3233 C358 0.402 . S
C3225 C109 0.501 . S
C3257 C81 2.304 . S
C3265 C891 2.248 . S
C3297 C370 1.934 . S
C3289 C68 1.967 . S
C3321 C62 1.697 . S
C3329 C931 1.685 . S
C3353 C95 1.598 . S
C3361 C438 1.573 . S
C3385 C30 2.369 . S
C3393 C642 2.341 . S
C3425 C531 1.491 . S
C3417 C17 1.532 . S
C3449 C5 2.187 . S
C3457 C721 2.183 . S
C3481 C43 1.727 . S
C3489 C607 1.705 . S
C3521 C881 1.640 . S
C3513 C304 1.636 . S
C3545 C153 1.835 . S
C3553 C362 1.787 . S
C3585 C921 1.666 . S
C3577 C278 1.673 . S
C3609 C127 1.779 . S
C3617 C451 1.773 . S
C3641 C303 0.375 . S
C3649 C647 0.425 . S
C3681 C521 2.409 . S
C3673 C146 2.433 1_556 S
C3705 C277 1.126 . S
C3713 C718 1.094 . S
C3745 C610 2.116 . S
C3737 C120 2.125 . S
C3777 C878 1.884 . S
C3769 C231 1.910 . S
C3809 C490 2.102 1_655 S
C3801 C200 2.150 . S
C3833 C212 1.346 . S
C3841 C678 1.342 . S
C3873 C571 1.691 . S
C3865 C172 1.733 . S
C3897 C192 2.024 . S
C3905 C602 2.013 . S
C3929 C160 1.540 . S
C3937 C918 1.505 . S
C3969 C761 1.537 . S
C3961 C213 1.501 . S
C4001 C807 0.616 . S
C3993 C250 0.647 . S
