# Generated by pormake.
# Topology soc, (4,6)-cn, num edge types: 1
# Building blocks:
#     Node 0, Type 0, BuildingBlock: ESEHIV_clean_sbu_0, # of connection points: 4
#     Node 1, Type 0, BuildingBlock: ESEHIV_clean_sbu_0, # of connection points: 4
#     Node 2, Type 0, BuildingBlock: ESEHIV_clean_sbu_0, # of connection points: 4
#     Node 3, Type 0, BuildingBlock: ESEHIV_clean_sbu_0, # of connection points: 4
#     Node 4, Type 0, BuildingBlock: ESEHIV_clean_sbu_0, # of connection points: 4
#     Node 5, Type 0, BuildingBlock: ESEHIV_clean_sbu_0, # of connection points: 4
#     Node 6, Type 0, BuildingBlock: ESEHIV_clean_sbu_0, # of connection points: 4
#     Node 7, Type 0, BuildingBlock: ESEHIV_clean_sbu_0, # of connection points: 4
#     Node 8, Type 0, BuildingBlock: ESEHIV_clean_sbu_0, # of connection points: 4
#     Node 9, Type 0, BuildingBlock: ESEHIV_clean_sbu_0, # of connection points: 4
#     Node 10, Type 0, BuildingBlock: ESEHIV_clean_sbu_0, # of connection points: 4
#     Node 11, Type 0, BuildingBlock: ESEHIV_clean_sbu_0, # of connection points: 4
#     Node 12, Type 1, BuildingBlock: MIFKUJ_clean_sbu_0, # of connection points: 6
#     Node 13, Type 1, BuildingBlock: MIFKUJ_clean_sbu_0, # of connection points: 6
#     Node 14, Type 1, BuildingBlock: MIFKUJ_clean_sbu_0, # of connection points: 6
#     Node 15, Type 1, BuildingBlock: MIFKUJ_clean_sbu_0, # of connection points: 6
#     Node 16, Type 1, BuildingBlock: MIFKUJ_clean_sbu_0, # of connection points: 6
#     Node 17, Type 1, BuildingBlock: MIFKUJ_clean_sbu_0, # of connection points: 6
#     Node 18, Type 1, BuildingBlock: MIFKUJ_clean_sbu_0, # of connection points: 6
#     Node 19, Type 1, BuildingBlock: MIFKUJ_clean_sbu_0, # of connection points: 6
#     Edge 20, Type (0, 1), BuildingBlock: EZIPEK_clean_linker_0, # of connection points: 2
#     Edge 21, Type (0, 1), BuildingBlock: EZIPEK_clean_linker_0, # of connection points: 2
#     Edge 22, Type (0, 1), BuildingBlock: EZIPEK_clean_linker_0, # of connection points: 2
#     Edge 23, Type (0, 1), BuildingBlock: EZIPEK_clean_linker_0, # of connection points: 2
#     Edge 24, Type (0, 1), BuildingBlock: EZIPEK_clean_linker_0, # of connection points: 2
#     Edge 25, Type (0, 1), BuildingBlock: EZIPEK_clean_linker_0, # of connection points: 2
#     Edge 26, Type (0, 1), BuildingBlock: EZIPEK_clean_linker_0, # of connection points: 2
#     Edge 27, Type (0, 1), BuildingBlock: EZIPEK_clean_linker_0, # of connection points: 2
#     Edge 28, Type (0, 1), BuildingBlock: EZIPEK_clean_linker_0, # of connection points: 2
#     Edge 29, Type (0, 1), BuildingBlock: EZIPEK_clean_linker_0, # of connection points: 2
#     Edge 30, Type (0, 1), BuildingBlock: EZIPEK_clean_linker_0, # of connection points: 2
#     Edge 31, Type (0, 1), BuildingBlock: EZIPEK_clean_linker_0, # of connection points: 2
#     Edge 32, Type (0, 1), BuildingBlock: EZIPEK_clean_linker_0, # of connection points: 2
#     Edge 33, Type (0, 1), BuildingBlock: EZIPEK_clean_linker_0, # of connection points: 2
#     Edge 34, Type (0, 1), BuildingBlock: EZIPEK_clean_linker_0, # of connection points: 2
#     Edge 35, Type (0, 1), BuildingBlock: EZIPEK_clean_linker_0, # of connection points: 2
#     Edge 36, Type (0, 1), BuildingBlock: EZIPEK_clean_linker_0, # of connection points: 2
#     Edge 37, Type (0, 1), BuildingBlock: EZIPEK_clean_linker_0, # of connection points: 2
#     Edge 38, Type (0, 1), BuildingBlock: EZIPEK_clean_linker_0, # of connection points: 2
#     Edge 39, Type (0, 1), BuildingBlock: EZIPEK_clean_linker_0, # of connection points: 2
#     Edge 40, Type (0, 1), BuildingBlock: EZIPEK_clean_linker_0, # of connection points: 2
#     Edge 41, Type (0, 1), BuildingBlock: EZIPEK_clean_linker_0, # of connection points: 2
#     Edge 42, Type (0, 1), BuildingBlock: EZIPEK_clean_linker_0, # of connection points: 2
#     Edge 43, Type (0, 1), BuildingBlock: EZIPEK_clean_linker_0, # of connection points: 2
#     Edge 44, Type (0, 1), BuildingBlock: EZIPEK_clean_linker_0, # of connection points: 2
#     Edge 45, Type (0, 1), BuildingBlock: EZIPEK_clean_linker_0, # of connection points: 2
#     Edge 46, Type (0, 1), BuildingBlock: EZIPEK_clean_linker_0, # of connection points: 2
#     Edge 47, Type (0, 1), BuildingBlock: EZIPEK_clean_linker_0, # of connection points: 2
#     Edge 48, Type (0, 1), BuildingBlock: EZIPEK_clean_linker_0, # of connection points: 2
#     Edge 49, Type (0, 1), BuildingBlock: EZIPEK_clean_linker_0, # of connection points: 2
#     Edge 50, Type (0, 1), BuildingBlock: EZIPEK_clean_linker_0, # of connection points: 2
#     Edge 51, Type (0, 1), BuildingBlock: EZIPEK_clean_linker_0, # of connection points: 2
#     Edge 52, Type (0, 1), BuildingBlock: EZIPEK_clean_linker_0, # of connection points: 2
#     Edge 53, Type (0, 1), BuildingBlock: EZIPEK_clean_linker_0, # of connection points: 2
#     Edge 54, Type (0, 1), BuildingBlock: EZIPEK_clean_linker_0, # of connection points: 2
#     Edge 55, Type (0, 1), BuildingBlock: EZIPEK_clean_linker_0, # of connection points: 2
#     Edge 56, Type (0, 1), BuildingBlock: EZIPEK_clean_linker_0, # of connection points: 2
#     Edge 57, Type (0, 1), BuildingBlock: EZIPEK_clean_linker_0, # of connection points: 2
#     Edge 58, Type (0, 1), BuildingBlock: EZIPEK_clean_linker_0, # of connection points: 2
#     Edge 59, Type (0, 1), BuildingBlock: EZIPEK_clean_linker_0, # of connection points: 2
#     Edge 60, Type (0, 1), BuildingBlock: EZIPEK_clean_linker_0, # of connection points: 2
#     Edge 61, Type (0, 1), BuildingBlock: EZIPEK_clean_linker_0, # of connection points: 2
#     Edge 62, Type (0, 1), BuildingBlock: EZIPEK_clean_linker_0, # of connection points: 2
#     Edge 63, Type (0, 1), BuildingBlock: EZIPEK_clean_linker_0, # of connection points: 2
#     Edge 64, Type (0, 1), BuildingBlock: EZIPEK_clean_linker_0, # of connection points: 2
#     Edge 65, Type (0, 1), BuildingBlock: EZIPEK_clean_linker_0, # of connection points: 2
#     Edge 66, Type (0, 1), BuildingBlock: EZIPEK_clean_linker_0, # of connection points: 2
#     Edge 67, Type (0, 1), BuildingBlock: EZIPEK_clean_linker_0, # of connection points: 2
# Relax obj value: 0.120
# Max RMSD: 0.182
# Mean RMSD: 0.144
data_MOF--net-soc--node1-ESEHIV_clean_sbu_0--node2-MIFKUJ_clean_sbu_0--edge1-EZIPEK_clean_linker_0
_symmetry_space_group_name_H-M    P1
_symmetry_Int_Tables_number       1
_symmetry_cell_setting            triclinic
loop_
_symmetry_equiv_pos_as_xyz
'x, y, z'
_cell_length_a     36.234457
_cell_length_b     33.622974
_cell_length_c     33.109
_cell_angle_alpha  92.443237
_cell_angle_beta   92.761635
_cell_angle_gamma 76.44872
loop_
_atom_site_label
_atom_site_type_symbol
_atom_site_fract_x
_atom_site_fract_y
_atom_site_fract_z
_atom_type_partial_charge
Cu0 Cu 0.02377 0.06363 0.3081 0.0
N1 N 0.04995 0.09247 0.3441 0.0
N2 N 0.09328 0.12832 0.36121 0.0
C3 C 0.07203 0.11596 0.331 0.0
C4 C 0.08497 0.11145 0.39484 0.0
C5 C 0.05803 0.08923 0.38415 0.0
O6 O 0.06728 0.03128 0.27629 0.0
C7 C 0.96951 0.14128 0.29305 0.0
O8 O 0.99438 0.15773 0.31352 0.0
H9 H 0.07383 0.1223 0.29944 0.0
H10 H 0.04675 0.0704 0.4037 0.0
N11 N 1.00149 0.0269 0.33373 0.0
N12 N 0.96686 0.97966 0.33231 0.0
C13 C 0.97026 0.01567 0.31813 0.0
C14 C 1.01708 0.99843 0.36084 0.0
C15 C 0.99616 0.96895 0.35951 0.0
C16 C 0.07832 0.99207 0.27603 0.0
O17 O 0.05476 0.97059 0.28679 0.0
H18 H 0.9526 0.03142 0.29369 0.0
H19 H 0.04364 0.99698 0.37754 0.0
O20 O 0.97893 0.10302 0.28293 0.0
H21 H 0.09841 0.11379 0.42447 0.0
H22 H 1.00339 0.94044 0.37529 0.0
Cu23 Cu 0.01861 0.04068 0.72462 0.0
N24 N 0.98952 1.01 0.69384 0.0
N25 N 0.94676 0.97144 0.68634 0.0
C26 C 0.95877 1.00066 0.70887 0.0
C27 C 0.97073 0.96207 0.65558 0.0
C28 C 0.99704 0.98608 0.66016 0.0
O29 O 0.98087 0.08635 0.74974 0.0
C30 C 0.07939 0.97464 0.73452 0.0
O31 O 0.07837 0.98048 0.6955 0.0
H32 H 0.94702 1.013 0.73748 0.0
H33 H 0.0212 0.9843 0.64167 0.0
N34 N 0.0496 0.06738 0.6974 0.0
N35 N 0.09289 0.1051 0.69595 0.0
C36 C 0.08029 0.07725 0.71613 0.0
C37 C 0.04256 0.08984 0.66396 0.0
C38 C 0.0693 0.11326 0.66303 0.0
C39 C 0.95504 0.10555 0.72496 0.0
O40 O 0.95483 0.09201 0.68716 0.0
H41 H 0.09109 0.06705 0.7459 0.0
H42 H 0.0181 0.09158 0.6435 0.0
O43 O 0.05493 0.99896 0.75642 0.0
H44 H 0.97029 0.93827 0.63261 0.0
H45 H 0.06996 0.13626 0.64136 0.0
Cu46 Cu 0.33519 0.02131 0.0258 0.0
N47 N 0.3089 0.99738 0.98536 0.0
N48 N 0.29381 0.94648 0.94801 0.0
C49 C 0.30165 0.95986 0.98561 0.0
C50 C 0.29562 0.97636 0.92309 0.0
C51 C 0.30505 1.00765 0.94612 0.0
O52 O 0.36365 0.97637 0.05879 0.0
C53 C 0.33884 0.08611 0.98207 0.0
O54 O 0.3032 0.09276 0.99208 0.0
H55 H 0.30487 0.94136 0.01199 0.0
H56 H 0.31175 0.03432 0.93417 0.0
N57 N 0.30369 0.05697 0.0613 0.0
N58 N 0.28851 0.09973 0.11408 0.0
C59 C 0.31687 0.07773 0.0921 0.0
C60 C 0.26559 0.06631 0.06378 0.0
C61 C 0.25609 0.09285 0.09669 0.0
C62 C 0.34284 0.9631 0.08266 0.0
O63 O 0.30651 0.98061 0.08357 0.0
H64 H 0.34673 0.07607 0.09877 0.0
H65 H 0.24631 0.05411 0.04357 0.0
O66 O 0.36195 0.05452 0.99607 0.0
H67 H 0.29249 0.97454 0.89042 0.0
H68 H 0.22787 0.10566 0.10735 0.0
Cu69 Cu 0.04685 0.34295 0.03283 0.0
N70 N 0.06924 0.36887 0.99414 0.0
N71 N 0.10566 0.37006 0.94117 0.0
C72 C 0.10174 0.35119 0.97551 0.0
C73 C 0.07456 0.40133 0.93855 0.0
C74 C 0.05249 0.40087 0.97139 0.0
O75 O 0.08502 0.3228 0.07759 0.0
C76 C 1.01037 0.30947 0.96488 0.0
O77 O 0.03041 0.32699 0.9425 0.0
H78 H 0.12072 0.32306 0.98533 0.0
H79 H 0.02459 0.4202 0.97624 0.0
N80 N 1.00615 0.37645 0.0603 0.0
N81 N 0.95559 0.37621 0.09703 0.0
C82 C 0.97245 0.36574 0.06138 0.0
C83 C 1.00965 0.39609 0.09609 0.0
C84 C 0.97859 0.39602 0.11872 0.0
C85 C 0.11301 0.33957 0.08628 0.0
O86 O 0.11979 0.36619 0.06147 0.0
H87 H 0.96332 0.34493 0.03943 0.0
H88 H 0.0354 0.4042 0.1075 0.0
O89 O 0.01928 0.30544 1.00272 0.0
H90 H 0.06732 0.42181 0.91353 0.0
H91 H 0.97542 0.4054 0.1503 0.0
Cu92 Cu 0.72506 0.02752 0.00577 0.0
N93 N 0.73778 0.06058 0.9675 0.0
N94 N 0.75192 0.1111 0.93453 0.0
C95 C 0.76369 0.08314 0.96354 0.0
C96 C 0.71812 0.10601 0.91996 0.0
C97 C 0.70934 0.07559 0.94064 0.0
O98 O 0.69842 0.07122 0.04292 0.0
C99 C 0.72296 0.97265 0.94333 0.0
O100 O 0.75875 0.97473 0.94642 0.0
H101 H 0.78897 0.08123 0.98275 0.0
H102 H 0.68266 0.06635 0.93793 0.0
N103 N 0.76195 0.99021 0.03566 0.0
N104 N 0.78244 0.9413 0.08081 0.0
C105 C 0.75209 0.96448 0.06114 0.0
C106 C 0.80012 0.98272 0.039 0.0
C107 C 0.81289 0.95236 0.06692 0.0
C108 C 0.71379 0.07872 0.07719 0.0
O109 O 0.73757 0.04884 0.09564 0.0
H110 H 0.72296 0.96345 0.06585 0.0
H111 H 0.81732 0.99855 0.02284 0.0
O112 O 0.69994 0.99296 0.96929 0.0
H113 H 0.7001 0.12486 0.89765 0.0
H114 H 0.84207 0.93998 0.07686 0.0
Cu115 Cu 0.03097 0.72157 0.01224 0.0
N116 N 0.99368 0.71637 0.97332 0.0
N117 N 0.94153 0.72209 0.93274 0.0
C118 C 0.96047 0.74096 0.96122 0.0
C119 C 0.96571 0.68539 0.9255 0.0
C120 C 0.99696 0.68172 0.95096 0.0
O121 O 0.01905 0.69589 0.0601 0.0
C122 C 0.07994 0.72011 0.95176 0.0
O123 O 0.04884 0.74492 0.93774 0.0
H124 H 0.95178 0.77231 0.97211 0.0
H125 H 0.02123 0.65593 0.95239 0.0
N126 N 0.03371 0.77309 0.03232 0.0
N127 N 0.07108 0.80854 0.06522 0.0
C128 C 0.05921 0.77366 0.06294 0.0
C129 C 0.02739 0.81004 0.01569 0.0
C130 C 0.05072 0.8322 0.0362 0.0
C131 C 0.98742 0.71627 0.07353 0.0
O132 O 0.96826 0.74811 0.05379 0.0
H133 H 0.07342 0.74648 0.07887 0.0
H134 H 1.01141 0.81809 0.9876 0.0
O135 O 0.07933 0.70292 0.98544 0.0
H136 H 0.96255 0.66312 0.90188 0.0
H137 H 0.05538 0.86131 0.0277 0.0
Cu138 Cu 0.52019 0.54491 0.81793 0.0
N139 N 0.54229 0.58349 0.8456 0.0
N140 N 0.57895 0.62817 0.85305 0.0
C141 C 0.56684 0.60108 0.82801 0.0
C142 C 0.56193 0.62754 0.88827 0.0
C143 C 0.53914 0.59965 0.88357 0.0
O144 O 0.56298 0.50173 0.79591 0.0
C145 C 0.47179 0.61413 0.77664 0.0
O146 O 0.50031 0.63204 0.78034 0.0
H147 H 0.57544 0.59434 0.7971 0.0
H148 H 0.52142 0.59197 0.90598 0.0
N149 N 0.4953 0.51632 0.85051 0.0
N150 N 0.4559 0.47397 0.8511 0.0
C151 C 0.46043 0.51065 0.83986 0.0
C152 C 0.51248 0.48303 0.87119 0.0
C153 C 0.48847 0.45677 0.87137 0.0
C154 C 0.59496 0.49319 0.8162 0.0
O155 O 0.5997 0.51619 0.84813 0.0
H156 H 0.44104 0.5299 0.81892 0.0
H157 H 0.54195 0.47584 0.8807 0.0
O158 O 0.47755 0.57592 0.78346 0.0
H159 H 0.56546 0.64609 0.91505 0.0
H160 H 0.49579 0.42575 0.88191 0.0
Cu161 Cu 0.52001 0.5493 0.22456 0.0
N162 N 0.49057 0.51952 0.19321 0.0
N163 N 0.45187 0.47618 0.18842 0.0
C164 C 0.46052 0.50886 0.20843 0.0
C165 C 0.47685 0.46656 0.15858 0.0
C166 C 0.50058 0.49344 0.16148 0.0
O167 O 0.48254 0.59188 0.25439 0.0
C168 C 0.58473 0.4848 0.22998 0.0
O169 O 0.58494 0.4947 0.1921 0.0
H170 H 0.44816 0.52162 0.23661 0.0
H171 H 0.52563 0.49127 0.1443 0.0
N172 N 0.5475 0.57913 0.19613 0.0
N173 N 0.58804 0.61921 0.18906 0.0
C174 C 0.57723 0.59264 0.21277 0.0
C175 C 0.53936 0.59761 0.16043 0.0
C176 C 0.56435 0.62246 0.15602 0.0
C177 C 0.45656 0.61422 0.23189 0.0
O178 O 0.45659 0.60673 0.19266 0.0
H179 H 0.58946 0.5848 0.24269 0.0
H180 H 0.51585 0.5948 0.14 0.0
O181 O 0.55878 0.50598 0.25251 0.0
H182 H 0.47968 0.44001 0.13828 0.0
H183 H 0.56436 0.64241 0.13121 0.0
Cu184 Cu 0.8026 0.57067 0.5231 0.0
N185 N 0.82987 0.5913 0.48541 0.0
N186 N 0.8363 0.62684 0.43134 0.0
C187 C 0.81592 0.62545 0.46423 0.0
C188 C 0.86443 0.59247 0.43228 0.0
C189 C 0.86056 0.57084 0.46567 0.0
O190 O 0.77362 0.61649 0.55564 0.0
C191 C 0.79719 0.50013 0.47924 0.0
O192 O 0.83389 0.49294 0.48746 0.0
H193 H 0.78976 0.64735 0.47115 0.0
H194 H 0.87751 0.54099 0.47339 0.0
N195 N 0.83099 0.53629 0.56191 0.0
N196 N 0.83869 0.48579 0.60565 0.0
C197 C 0.81514 0.50909 0.57876 0.0
C198 C 0.86577 0.53152 0.57999 0.0
C199 C 0.87049 0.50041 0.60743 0.0
C200 C 0.79452 0.63706 0.57529 0.0
O201 O 0.83119 0.62783 0.56949 0.0
H202 H 0.78637 0.50657 0.57128 0.0
H203 H 0.88612 0.54918 0.57373 0.0
O204 O 0.77576 0.53398 0.49178 0.0
H205 H 0.88539 0.5829 0.40944 0.0
H206 H 0.89553 0.48883 0.62644 0.0
Cu207 Cu 0.51312 0.87511 0.51659 0.0
N208 N 0.5409 0.90259 0.48667 0.0
N209 N 0.57897 0.9092 0.43783 0.0
C210 C 0.55823 0.88556 0.45307 0.0
C211 C 0.57412 0.94307 0.46218 0.0
C212 C 0.55038 0.93889 0.49255 0.0
O213 O 0.54677 0.83404 0.54853 0.0
C214 C 0.46423 0.82577 0.48398 0.0
O215 O 0.47227 0.8049 0.51714 0.0
H216 H 0.55692 0.85548 0.44092 0.0
H217 H 0.5417 0.96007 0.51772 0.0
N218 N 0.48375 0.90662 0.55636 0.0
N219 N 0.44682 0.90298 0.60781 0.0
C220 C 0.45183 0.89692 0.56776 0.0
C221 C 0.49876 0.92079 0.5905 0.0
C222 C 0.47607 0.91851 0.62229 0.0
C223 C 0.58274 0.82669 0.54807 0.0
O224 O 0.59935 0.83284 0.51531 0.0
H225 H 0.43672 0.87838 0.54921 0.0
H226 H 0.52724 0.92572 0.59342 0.0
O227 O 0.48025 0.85453 0.47794 0.0
H228 H 0.58775 0.9681 0.45898 0.0
H229 H 0.48305 0.92291 0.65408 0.0
Cu230 Cu 0.21012 0.57942 0.5121 0.0
N231 N 0.18174 0.62085 0.48046 0.0
N232 N 0.17489 0.67279 0.43915 0.0
C233 C 0.19754 0.64973 0.46669 0.0
C234 C 0.14317 0.6583 0.43525 0.0
C235 C 0.14748 0.62596 0.46107 0.0
O236 O 0.24842 0.60525 0.53865 0.0
C237 C 0.24483 0.53701 0.44317 0.0
O238 O 0.25104 0.57256 0.43457 0.0
H239 H 0.22623 0.65224 0.47486 0.0
H240 H 0.12816 0.60616 0.46367 0.0
N241 N 0.1821 0.56172 0.55049 0.0
N242 N 0.18105 0.52672 0.60605 0.0
C243 C 0.19508 0.52598 0.56895 0.0
C244 C 0.15684 0.58499 0.57539 0.0
C245 C 0.15654 0.5636 0.61001 0.0
C246 C 0.24737 0.61672 0.57586 0.0
O247 O 0.22609 0.60299 0.60006 0.0
H248 H 0.2183 0.50216 0.55786 0.0
H249 H 0.14395 0.61708 0.57136 0.0
O250 O 0.22982 0.53304 0.47619 0.0
H251 H 0.11967 0.66895 0.41396 0.0
H252 H 0.14226 0.57561 0.63745 0.0
Cu253 Cu 0.49474 0.26777 0.5215 0.0
N254 N 0.52964 0.23606 0.48616 0.0
N255 N 0.57277 0.23033 0.43869 0.0
C256 C 0.55692 0.25181 0.47126 0.0
C257 C 0.55494 0.19941 0.43277 0.0
C258 C 0.52831 0.20296 0.46222 0.0
O259 O 0.52779 0.29756 0.55437 0.0
C260 C 0.43368 0.27354 0.46541 0.0
O261 O 0.44039 0.23484 0.47452 0.0
H262 H 0.56286 0.28062 0.48202 0.0
H263 H 0.50762 0.18464 0.46394 0.0
N264 N 0.47247 0.23917 0.55767 0.0
N265 N 0.4351 0.2291 0.60648 0.0
C266 C 0.44372 0.2565 0.582 0.0
C267 C 0.48214 0.19937 0.56703 0.0
C268 C 0.45918 0.19311 0.59725 0.0
C269 C 0.55445 0.27485 0.57583 0.0
O270 O 0.55521 0.23569 0.57736 0.0
H271 H 0.42991 0.28875 0.58237 0.0
H272 H 0.50477 0.1767 0.55343 0.0
O273 O 0.45336 0.29642 0.48399 0.0
H274 H 0.55932 0.17738 0.40763 0.0
H275 H 0.46029 0.16453 0.61165 0.0
Zn276 Zn 0.28993 0.3456 0.26432 0.0
Zn277 Zn 0.24752 0.27107 0.29947 0.0
C278 C 0.26131 0.42197 0.30775 0.0
O279 O 0.26993 0.43792 0.275 0.0
C280 C 0.30045 0.19835 0.25699 0.0
O281 O 0.32597 0.19173 0.28697 0.0
O282 O 0.3219 0.37885 0.23595 0.0
O283 O 0.32709 0.30231 0.29646 0.0
O284 O 0.28763 0.28767 0.33924 0.0
C285 C 0.35757 0.37376 0.24315 0.0
O286 O 0.37512 0.34439 0.26694 0.0
O287 O 0.2641 0.38364 0.3087 0.0
C288 C 0.19486 0.2215 0.31152 0.0
O289 O 0.19637 0.21859 0.27193 0.0
O290 O 0.21453 0.24302 0.3315 0.0
O291 O 0.21073 0.31119 0.2628 0.0
O292 O 0.25076 0.32954 0.22265 0.0
O293 O 0.27142 0.22776 0.25924 0.0
C294 C 0.32004 0.29412 0.33213 0.0
C295 C 0.21877 0.3211 0.22805 0.0
Zn296 Zn 0.74898 0.30651 0.32207 0.0
Zn297 Zn 0.77305 0.28847 0.19408 0.0
C298 C 0.7786 0.35929 0.38254 0.0
O299 O 0.80407 0.32576 0.39151 0.0
C300 C 0.73405 0.23856 0.13602 0.0
O301 O 0.71494 0.27353 0.12157 0.0
O302 O 0.71227 0.28063 0.35111 0.0
O303 O 0.73041 0.32504 0.26671 0.0
O304 O 0.72344 0.3337 0.20207 0.0
C305 C 0.67774 0.28373 0.3395 0.0
O306 O 0.66484 0.30283 0.30609 0.0
O307 O 0.75353 0.3579 0.3547 0.0
C308 C 0.84504 0.30574 0.17011 0.0
O309 O 0.85953 0.28116 0.19952 0.0
O310 O 0.80947 0.31249 0.16143 0.0
O311 O 0.80052 0.26664 0.24821 0.0
O312 O 0.8005 0.26502 0.3147 0.0
O313 O 0.75919 0.23855 0.16438 0.0
C314 C 0.71143 0.34407 0.23737 0.0
C315 C 0.81732 0.25328 0.28156 0.0
Zn316 Zn 0.8409 0.80223 0.25482 0.0
Zn317 Zn 0.72661 0.78824 0.25396 0.0
C318 C 0.88811 0.73777 0.2027 0.0
O319 O 0.87216 0.71187 0.21979 0.0
C320 C 0.66535 0.82783 0.30733 0.0
O321 O 0.64736 0.80175 0.28971 0.0
O322 O 0.85543 0.85286 0.28096 0.0
O323 O 0.78967 0.81453 0.22965 0.0
O324 O 0.73248 0.8229 0.2052 0.0
C325 C 0.88371 0.86396 0.26764 0.0
O326 O 0.90099 0.84402 0.23632 0.0
O327 O 0.87887 0.77564 0.21278 0.0
C328 C 0.70292 0.70969 0.22989 0.0
O329 O 0.7389 0.69062 0.23349 0.0
O330 O 0.69317 0.74824 0.23662 0.0
O331 O 0.77711 0.76023 0.28545 0.0
O332 O 0.83738 0.76121 0.29676 0.0
O333 O 0.69822 0.82866 0.29603 0.0
C334 C 0.76487 0.83084 0.20352 0.0
C335 C 0.80936 0.74542 0.30313 0.0
Zn336 Zn 0.28845 0.82092 0.31135 0.0
Zn337 Zn 0.26244 0.80958 0.21525 0.0
C338 C 0.2447 0.78649 0.36693 0.0
O339 O 0.25685 0.81125 0.39333 0.0
C340 C 0.32179 0.83265 0.17017 0.0
O341 O 0.33635 0.79307 0.16711 0.0
O342 O 0.32075 0.83273 0.35854 0.0
O343 O 0.33107 0.78465 0.27944 0.0
O344 O 0.29977 0.75604 0.23259 0.0
C345 C 0.34108 0.80169 0.37603 0.0
O346 O 0.33567 0.76512 0.36639 0.0
O347 O 0.25354 0.78611 0.33009 0.0
C348 C 0.20551 0.82602 0.15557 0.0
O349 O 0.21101 0.8626 0.16439 0.0
O350 O 0.22757 0.79495 0.17131 0.0
O351 O 0.22182 0.84597 0.25047 0.0
O352 O 0.25604 0.87627 0.29251 0.0
O353 O 0.29202 0.84608 0.19016 0.0
C354 C 0.32961 0.75496 0.25491 0.0
C355 C 0.22525 0.87716 0.27204 0.0
Zn356 Zn 0.24742 0.76266 0.79771 0.0
Zn357 Zn 0.28713 0.80439 0.73 0.0
C358 C 0.27671 0.7975 0.87081 0.0
O359 O 0.27735 0.76225 0.88676 0.0
C360 C 0.27718 0.76226 0.65275 0.0
O361 O 0.2919 0.78983 0.63687 0.0
O362 O 0.22186 0.73104 0.83485 0.0
O363 O 0.206 0.79993 0.76325 0.0
O364 O 0.23995 0.8445 0.75117 0.0
C365 C 0.18921 0.74886 0.84703 0.0
O366 O 0.17323 0.78559 0.83432 0.0
O367 O 0.26713 0.80296 0.83373 0.0
C368 C 0.35193 0.82338 0.69461 0.0
O369 O 0.36841 0.78719 0.70835 0.0
O370 O 0.31668 0.83771 0.69989 0.0
O371 O 0.32549 0.7684 0.76772 0.0
O372 O 0.29251 0.72183 0.77376 0.0
O373 O 0.27105 0.76403 0.6903 0.0
C374 C 0.20788 0.83659 0.75681 0.0
C375 C 0.3244 0.73108 0.77106 0.0
Zn376 Zn 0.26515 0.23041 0.78 0.0
Zn377 Zn 0.2831 0.34753 0.77569 0.0
C378 C 0.3087 0.15997 0.83102 0.0
O379 O 0.30663 0.13445 0.8003 0.0
C380 C 0.23855 0.4202 0.73741 0.0
O381 O 0.24184 0.43799 0.77304 0.0
O382 O 0.22872 0.19942 0.75026 0.0
O383 O 0.23113 0.27963 0.80952 0.0
O384 O 0.24492 0.34047 0.81598 0.0
C385 C 0.20817 0.18076 0.76887 0.0
O386 O 0.21128 0.17973 0.80851 0.0
O387 O 0.2943 0.19808 0.8272 0.0
C388 C 0.34873 0.38273 0.78656 0.0
O389 O 0.35742 0.36273 0.75207 0.0
O390 O 0.31826 0.38066 0.80303 0.0
O391 O 0.31387 0.30011 0.74302 0.0
O392 O 0.30505 0.23683 0.74024 0.0
O393 O 0.25293 0.38224 0.73216 0.0
C394 C 0.22437 0.31621 0.82423 0.0
C395 C 0.32225 0.26336 0.72929 0.0
Zn396 Zn 0.80431 0.30993 0.81872 0.0
Zn397 Zn 0.75487 0.30202 0.71935 0.0
C398 C 0.78988 0.25288 0.87633 0.0
O399 O 0.81644 0.26544 0.89801 0.0
C400 C 0.79433 0.34503 0.66326 0.0
O401 O 0.79858 0.31229 0.63928 0.0
O402 O 0.84436 0.32219 0.86245 0.0
O403 O 0.83622 0.2797 0.77274 0.0
O404 O 0.79843 0.25074 0.73253 0.0
C405 C 0.87812 0.29934 0.86416 0.0
O406 O 0.88766 0.26977 0.83681 0.0
O407 O 0.77855 0.2692 0.84263 0.0
C408 C 0.68397 0.31556 0.66778 0.0
O409 O 0.6823 0.35367 0.67972 0.0
O410 O 0.71307 0.28785 0.67882 0.0
O411 O 0.72375 0.33002 0.76627 0.0
O412 O 0.76128 0.36086 0.80501 0.0
O413 O 0.77758 0.34623 0.69638 0.0
C414 C 0.83034 0.24905 0.75166 0.0
C415 C 0.72909 0.36101 0.78713 0.0
Zn416 Zn 0.71231 0.78044 0.76647 0.0
Zn417 Zn 0.79027 0.82913 0.74709 0.0
C418 C 0.65525 0.82484 0.70726 0.0
O419 O 0.65073 0.85758 0.73128 0.0
C420 C 0.85235 0.79614 0.80262 0.0
O421 O 0.86905 0.82184 0.78641 0.0
O422 O 0.6894 0.74431 0.79992 0.0
O423 O 0.76111 0.74827 0.74332 0.0
O424 O 0.77339 0.79284 0.70203 0.0
C425 C 0.6739 0.7175 0.78278 0.0
O426 O 0.67517 0.71134 0.74339 0.0
O427 O 0.67831 0.79201 0.71727 0.0
C428 C 0.82762 0.89761 0.73445 0.0
O429 O 0.8037 0.9181 0.76072 0.0
O430 O 0.8262 0.86109 0.72368 0.0
O431 O 0.7524 0.86736 0.78274 0.0
O432 O 0.71222 0.83141 0.80147 0.0
O433 O 0.82011 0.79212 0.7888 0.0
C434 C 0.76787 0.75747 0.70791 0.0
C435 C 0.72666 0.86243 0.80575 0.0
C436 C 0.1565 0.13071 0.33848 0.0
C437 C 0.12207 0.15074 0.35635 0.0
C438 C 0.13813 0.21731 0.35102 0.0
C439 C 0.17219 0.19733 0.33206 0.0
N440 N 0.2181 0.13514 0.31571 0.0
N441 N 0.08239 0.21092 0.38621 0.0
C442 C 0.18268 0.15395 0.32826 0.0
C443 C 0.11386 0.19342 0.36504 0.0
N444 N 0.16345 0.08949 0.33039 0.0
N445 N 0.128 0.25913 0.35342 0.0
H446 H 0.06357 0.19417 0.39532 0.0
H447 H 0.07616 0.24114 0.3971 0.0
H448 H 0.14532 0.27746 0.34403 0.0
H449 H 0.10175 0.27593 0.36279 0.0
H450 H 0.18558 0.07329 0.31305 0.0
H451 H 0.14582 0.07149 0.33988 0.0
H452 H 0.229 0.10362 0.3152 0.0
H453 H 0.23803 0.1515 0.3089 0.0
C454 C 0.90703 0.16931 0.25219 0.0
C455 C 0.92904 0.16635 0.28912 0.0
C456 C 0.8812 0.22391 0.31723 0.0
C457 C 0.85625 0.22357 0.28269 0.0
N458 N 0.84373 0.18652 0.22086 0.0
N459 N 0.92839 0.18213 0.36105 0.0
C460 C 0.86866 0.19365 0.251 0.0
C461 C 0.91336 0.19087 0.32294 0.0
N462 N 0.92276 0.14997 0.21791 0.0
N463 N 0.876 0.25687 0.34366 0.0
H464 H 0.9502 0.15648 0.36714 0.0
H465 H 0.91582 0.19737 0.38682 0.0
H466 H 0.85621 0.28421 0.33817 0.0
H467 H 0.89513 0.25913 0.36773 0.0
H468 H 0.90941 0.15477 0.18935 0.0
H469 H 0.95049 0.13215 0.21755 0.0
H470 H 0.85082 0.163 0.19906 0.0
H471 H 0.81486 0.20033 0.22041 0.0
C472 C 0.93527 0.94862 0.27436 0.0
C473 C 0.94179 0.95416 0.31673 0.0
C474 C 0.90724 0.90124 0.32853 0.0
C475 C 0.89803 0.89878 0.28639 0.0
N476 N 0.89189 0.93172 0.22234 0.0
N477 N 0.92363 0.94407 0.38397 0.0
C478 C 0.90808 0.92656 0.26043 0.0
C479 C 0.92444 0.93311 0.34382 0.0
N480 N 0.95721 0.96078 0.24717 0.0
N481 N 0.90185 0.87218 0.35373 0.0
H482 H 0.93395 0.96884 0.39567 0.0
H483 H 0.90883 0.93171 0.40451 0.0
H484 H 0.89037 0.84762 0.344 0.0
H485 H 0.91205 0.87051 0.38374 0.0
H486 H 0.9547 0.95462 0.21615 0.0
H487 H 0.98129 0.97142 0.25563 0.0
H488 H 0.89626 0.95416 0.20351 0.0
H489 H 0.87082 0.91695 0.21171 0.0
C490 C 0.14031 0.96286 0.24004 0.0
C491 C 0.11988 0.97089 0.27609 0.0
C492 C 0.1713 0.92169 0.31149 0.0
C493 C 0.19161 0.91315 0.27534 0.0
N494 N 0.20164 0.93679 0.21017 0.0
N495 N 0.12285 0.96934 0.34869 0.0
C496 C 0.17795 0.93716 0.24103 0.0
C497 C 0.13764 0.95379 0.31264 0.0
N498 N 0.12345 0.97866 0.20465 0.0
N499 N 0.18325 0.89832 0.34441 0.0
H500 H 0.10013 0.99486 0.35022 0.0
H501 H 0.13591 0.96067 0.37669 0.0
H502 H 0.20802 0.87512 0.34511 0.0
H503 H 0.16719 0.90029 0.36997 0.0
H504 H 0.1352 0.97017 0.17657 0.0
H505 H 0.09659 0.99854 0.20337 0.0
H506 H 0.19469 0.95618 0.18586 0.0
H507 H 0.22979 0.91992 0.21124 0.0
C508 C 0.10636 0.8991 0.73256 0.0
C509 C 0.10774 0.93804 0.75003 0.0
C510 C 0.17158 0.90795 0.7791 0.0
C511 C 0.17253 0.87081 0.75608 0.0
N512 N 0.14177 0.83391 0.70582 0.0
N513 N 0.14252 0.9805 0.78845 0.0
C514 C 0.13995 0.86691 0.73188 0.0
C515 C 0.14043 0.94261 0.77335 0.0
N516 N 0.07262 0.89301 0.71643 0.0
N517 N 0.19997 0.90991 0.80727 0.0
H518 H 0.1197 1.00591 0.78646 0.0
H519 H 0.16737 0.98719 0.80099 0.0
H520 H 0.22303 0.88543 0.81275 0.0
H521 H 0.19893 0.93438 0.82788 0.0
H522 H 0.06863 0.86439 0.70672 0.0
H523 H 0.0476 0.91597 0.71681 0.0
H524 H 0.12033 0.83168 0.68433 0.0
H525 H 0.16617 0.81059 0.70252 0.0
C526 C 0.158 0.11634 0.69621 0.0
C527 C 0.12087 0.12702 0.71105 0.0
C528 C 0.1396 0.17797 0.75813 0.0
C529 C 0.17795 0.16387 0.74677 0.0
N530 N 0.22455 0.11742 0.70702 0.0
N531 N 0.07583 0.16645 0.7568 0.0
C532 C 0.18736 0.13281 0.7159 0.0
C533 C 0.11157 0.15746 0.74222 0.0
N534 N 0.16502 0.0902 0.66331 0.0
N535 N 0.12966 0.21224 0.7827 0.0
H536 H 0.05391 0.15434 0.7437 0.0
H537 H 0.06832 0.1842 0.78297 0.0
H538 H 0.14901 0.22909 0.79366 0.0
H539 H 0.10175 0.2264 0.78924 0.0
H540 H 0.19021 0.08424 0.64793 0.0
H541 H 0.14434 0.07659 0.64954 0.0
H542 H 0.23378 0.09197 0.68796 0.0
H543 H 0.24684 0.12825 0.72101 0.0
C544 C 0.9035 0.1474 0.77 0.0
C545 C 0.92634 0.1442 0.73583 0.0
C546 C 0.88438 0.20789 0.71054 0.0
C547 C 0.86317 0.21263 0.746 0.0
N548 N 0.86089 0.19272 0.81483 0.0
N549 N 0.94499 0.17911 0.68077 0.0
C550 C 0.87533 0.18419 0.77741 0.0
C551 C 0.91861 0.17675 0.70817 0.0
N552 N 0.90713 0.11489 0.79444 0.0
N553 N 0.87205 0.23315 0.67903 0.0
H554 H 0.97152 0.15868 0.68004 0.0
H555 H 0.9425 0.20401 0.66231 0.0
H556 H 0.84774 0.25685 0.68013 0.0
H557 H 0.8842 0.22844 0.65082 0.0
H558 H 0.8882 0.11426 0.81701 0.0
H559 H 0.92676 0.08718 0.78991 0.0
H560 H 0.87123 0.17511 0.83988 0.0
H561 H 0.84141 0.21986 0.8216 0.0
C562 C 0.92122 0.9312 0.73442 0.0
C563 C 0.91794 0.95066 0.69685 0.0
C564 C 0.85776 0.93023 0.68138 0.0
C565 C 0.85888 0.9154 0.72109 0.0
N566 N 0.88887 0.90849 0.78806 0.0
N567 N 0.88062 0.97403 0.63681 0.0
C568 C 0.88975 0.91796 0.74844 0.0
C569 C 0.88562 0.95136 0.67073 0.0
N570 N 0.95514 0.92369 0.75588 0.0
N571 N 0.82998 0.92437 0.65395 0.0
H572 H 0.89997 0.99065 0.62886 0.0
H573 H 0.85588 0.97927 0.61851 0.0
H574 H 0.80832 0.91054 0.66117 0.0
H575 H 0.82996 0.93057 0.6234 0.0
H576 H 0.96045 0.90616 0.78163 0.0
H577 H 0.97931 0.93102 0.74535 0.0
H578 H 0.90869 0.91405 0.81014 0.0
H579 H 0.86655 0.89852 0.79973 0.0
C580 C 0.29241 0.16569 0.1468 0.0
C581 C 0.29278 0.12387 0.15004 0.0
C582 C 0.30199 0.12916 0.2237 0.0
C583 C 0.30319 0.17088 0.22043 0.0
N584 N 0.30683 0.22683 0.17872 0.0
N585 N 0.30298 0.06364 0.18925 0.0
C586 C 0.30054 0.18854 0.18183 0.0
C587 C 0.29927 0.10495 0.18787 0.0
N588 N 0.28353 0.18351 0.11019 0.0
N589 N 0.30119 0.11327 0.26089 0.0
H590 H 0.29925 0.04562 0.16363 0.0
H591 H 0.31204 0.04686 0.21506 0.0
H592 H 0.30372 0.12951 0.28796 0.0
H593 H 0.29554 0.08481 0.26512 0.0
H594 H 0.27849 0.21491 0.10628 0.0
H595 H 0.27853 0.16696 0.08393 0.0
H596 H 0.30839 0.24026 0.15131 0.0
H597 H 0.31386 0.24394 0.20373 0.0
C598 C 0.89253 0.38474 0.12685 0.0
C599 C 0.92662 0.35875 0.11325 0.0
C600 C 0.90273 0.29876 0.12894 0.0
C601 C 0.8708 0.32462 0.14721 0.0
N602 N 0.83785 0.39273 0.16858 0.0
N603 N 0.9678 0.29103 0.11038 0.0
C604 C 0.86616 0.36786 0.14728 0.0
C605 C 0.93267 0.31569 0.11652 0.0
N606 N 0.88522 0.42557 0.11962 0.0
N607 N 0.90418 0.25798 0.12271 0.0
H608 H 0.99128 0.30239 0.10428 0.0
H609 H 0.97472 0.25986 0.11602 0.0
H610 H 0.88243 0.24462 0.13071 0.0
H611 H 0.92493 0.23846 0.10585 0.0
H612 H 0.85932 0.44581 0.1252 0.0
H613 H 0.9041 0.4385 0.10477 0.0
H614 H 0.8357 0.42397 0.17355 0.0
H615 H 0.81815 0.38169 0.18408 0.0
C616 C 0.77621 0.87293 0.10035 0.0
C617 C 0.78154 0.91236 0.11172 0.0
C618 C 0.77757 0.89795 0.18351 0.0
C619 C 0.77296 0.85804 0.17215 0.0
N620 N 0.77428 0.80484 0.12085 0.0
N621 N 0.79127 0.96164 0.16324 0.0
C622 C 0.77404 0.84479 0.1308 0.0
C623 C 0.78365 0.92448 0.15315 0.0
N624 N 0.77256 0.86285 0.06018 0.0
N625 N 0.77428 0.91113 0.22313 0.0
H626 H 0.79378 0.98242 0.14162 0.0
H627 H 0.79728 0.97114 0.19263 0.0
H628 H 0.77024 0.89255 0.24617 0.0
H629 H 0.77333 0.94106 0.23321 0.0
H630 H 0.76438 0.8366 0.04927 0.0
H631 H 0.7759 0.88213 0.03744 0.0
H632 H 0.77869 0.7919 0.09187 0.0
H633 H 0.77302 0.78349 0.1424 0.0
C634 C 0.1414 0.79203 0.07443 0.0
C635 C 0.105 0.814 0.08697 0.0
C636 C 0.13465 0.84046 0.14698 0.0
C637 C 0.17102 0.82197 0.13196 0.0
N638 N 0.20919 0.78706 0.07782 0.0
N639 N 0.06658 0.86142 0.13295 0.0
C640 C 0.17447 0.79973 0.09465 0.0
C641 C 0.1016 0.83921 0.12249 0.0
N642 N 0.14459 0.76256 0.04433 0.0
N643 N 0.13166 0.85733 0.18537 0.0
H644 H 0.04175 0.85935 0.11653 0.0
H645 H 0.06232 0.88373 0.15614 0.0
H646 H 0.15512 0.85786 0.20468 0.0
H647 H 0.10596 0.86768 0.1995 0.0
H648 H 0.17028 0.74276 0.03704 0.0
H649 H 0.12138 0.75496 0.02913 0.0
H650 H 0.21268 0.77504 0.04835 0.0
H651 H 0.23418 0.7921 0.09183 0.0
C652 C 0.32052 0.87335 0.93255 0.0
C653 C 0.28857 0.9068 0.9355 0.0
C654 C 0.24767 0.86636 0.90147 0.0
C655 C 0.28007 0.83333 0.89688 0.0
N656 N 0.34469 0.80109 0.91677 0.0
N657 N 0.22219 0.93648 0.92544 0.0
C658 C 0.31567 0.83537 0.91545 0.0
C659 C 0.25209 0.90333 0.92129 0.0
N660 N 0.35586 0.87899 0.94333 0.0
N661 N 0.21267 0.86182 0.88764 0.0
H662 H 0.22476 0.96304 0.94171 0.0
H663 H 0.1951 0.93852 0.91263 0.0
H664 H 0.20858 0.83593 0.87143 0.0
H665 H 0.18724 0.88291 0.89276 0.0
H666 H 0.38095 0.85735 0.93789 0.0
H667 H 0.36036 0.90673 0.95524 0.0
H668 H 0.3701 0.79956 0.93334 0.0
H669 H 0.34221 0.77288 0.90412 0.0
C670 C 0.15116 0.38558 0.89291 0.0
C671 C 0.13456 0.35687 0.91117 0.0
C672 C 0.18057 0.30192 0.87759 0.0
C673 C 0.19291 0.33039 0.85387 0.0
N674 N 0.17827 0.4006 0.8319 0.0
N675 N 0.12619 0.28749 0.9078 0.0
C676 C 0.17485 0.37271 0.85939 0.0
C677 C 0.14691 0.31494 0.89948 0.0
N678 N 0.14573 0.42472 0.90822 0.0
N679 N 0.20205 0.26323 0.8821 0.0
H680 H 0.09962 0.29628 0.92039 0.0
H681 H 0.13323 0.25712 0.89711 0.0
H682 H 0.22986 0.25456 0.87281 0.0
H683 H 0.19449 0.24254 0.90087 0.0
H684 H 0.15974 0.4457 0.8975 0.0
H685 H 0.13118 0.43447 0.93458 0.0
H686 H 0.16345 0.43116 0.83386 0.0
H687 H 0.19115 0.39226 0.80441 0.0
C688 C 0.75871 0.18171 0.9471 0.0
C689 C 0.76709 0.14472 0.92372 0.0
C690 C 0.78017 0.18115 0.86579 0.0
C691 C 0.77637 0.21755 0.89043 0.0
N692 N 0.76168 0.25289 0.95486 0.0
N693 N 0.79201 0.10709 0.86431 0.0
C694 C 0.76583 0.21781 0.93136 0.0
C695 C 0.7801 0.14394 0.88425 0.0
N696 N 0.74182 0.1827 0.98327 0.0
N697 N 0.782 0.18194 0.82471 0.0
H698 H 0.79174 0.07948 0.87747 0.0
H699 H 0.80556 0.1037 0.8369 0.0
H700 H 0.77989 0.2084 0.80886 0.0
H701 H 0.78132 0.15673 0.80554 0.0
H702 H 0.73091 0.20947 0.99995 0.0
H703 H 0.73664 0.15665 0.99565 0.0
H704 H 0.75914 0.2538 0.9861 0.0
H705 H 0.76169 0.28121 0.94316 0.0
C706 C 0.88907 0.78101 0.91151 0.0
C707 C 0.90704 0.73899 0.90889 0.0
C708 C 0.87841 0.733 0.84156 0.0
C709 C 0.86833 0.77626 0.84033 0.0
N710 N 0.85831 0.84212 0.87585 0.0
N711 N 0.89318 0.67533 0.8854 0.0
C712 C 0.87168 0.8006 0.87596 0.0
C713 C 0.89389 0.71471 0.8781 0.0
N714 N 0.88398 0.80022 0.9486 0.0
N715 N 0.87536 0.7094 0.80754 0.0
H716 H 0.90032 0.6633 0.91407 0.0
H717 H 0.88107 0.65701 0.86511 0.0
H718 H 0.86523 0.72177 0.77969 0.0
H719 H 0.88596 0.67777 0.80633 0.0
H720 H 0.86874 0.8303 0.95316 0.0
H721 H 0.89012 0.78369 0.97506 0.0
H722 H 0.86421 0.86164 0.89929 0.0
H723 H 0.84232 0.85721 0.85164 0.0
C724 C 0.14076 0.36873 0.14972 0.0
C725 C 0.13603 0.33357 0.12589 0.0
C726 C 0.18448 0.29001 0.17027 0.0
C727 C 0.18941 0.32516 0.19363 0.0
N728 N 0.1685 0.39702 0.20968 0.0
N729 N 0.14932 0.26008 0.11748 0.0
C730 C 0.16648 0.36425 0.18438 0.0
C731 C 0.15643 0.294 0.13765 0.0
N732 N 0.12052 0.40677 0.13912 0.0
N733 N 0.20802 0.25285 0.17812 0.0
H734 H 0.13133 0.26143 0.09186 0.0
H735 H 0.15935 0.23039 0.12738 0.0
H736 H 0.22811 0.24883 0.20192 0.0
H737 H 0.20962 0.2266 0.15986 0.0
H738 H 0.12653 0.43398 0.15047 0.0
H739 H 0.09788 0.41145 0.11793 0.0
H740 H 0.15 0.4257 0.20785 0.0
H741 H 0.18741 0.395 0.2347 0.0
C742 C 0.13117 0.75533 0.93688 0.0
C743 C 0.11579 0.7202 0.932 0.0
C744 C 0.15575 0.69747 0.87363 0.0
C745 C 0.17131 0.73235 0.87992 0.0
N746 N 0.18539 0.78325 0.92748 0.0
N747 N 0.11864 0.65366 0.90079 0.0
C748 C 0.16297 0.75733 0.91506 0.0
C749 C 0.13024 0.68952 0.9023 0.0
N750 N 0.11378 0.78848 0.95971 0.0
N751 N 0.16352 0.67352 0.83935 0.0
H752 H 0.09954 0.64773 0.92107 0.0
H753 H 0.13018 0.62881 0.88184 0.0
H754 H 0.1826 0.67825 0.81847 0.0
H755 H 0.14978 0.65038 0.83069 0.0
H756 H 0.12183 0.81633 0.96054 0.0
H757 H 0.08939 0.78913 0.97502 0.0
H758 H 0.18195 0.8002 0.95473 0.0
H759 H 0.21024 0.78329 0.91301 0.0
C760 C 0.367 0.09332 0.91398 0.0
C761 C 0.34673 0.11106 0.94857 0.0
C762 C 0.30458 0.1612 0.90687 0.0
C763 C 0.3239 0.14426 0.87163 0.0
N764 N 0.38137 0.10243 0.84438 0.0
N765 N 0.31022 0.17306 0.97906 0.0
C766 C 0.35772 0.1128 0.87594 0.0
C767 C 0.32127 0.14964 0.94516 0.0
N768 N 0.39423 0.05781 0.91694 0.0
N769 N 0.26819 0.18395 0.9042 0.0
H770 H 0.322 0.1643 0.00767 0.0
H771 H 0.29256 0.20239 0.97779 0.0
H772 H 0.25223 0.18653 0.87705 0.0
H773 H 0.25231 0.19426 0.92963 0.0
H774 H 0.40594 0.04058 0.89181 0.0
H775 H 0.40508 0.04566 0.94461 0.0
H776 H 0.40792 0.08222 0.84685 0.0
H777 H 0.37613 0.11728 0.81695 0.0
C778 C 0.96121 0.26974 0.94119 0.0
C779 C 0.97161 0.30752 0.94825 0.0
C780 C 0.91741 0.34175 0.90465 0.0
C781 C 0.90688 0.30393 0.89715 0.0
N782 N 0.91274 0.23439 0.91724 0.0
N783 N 0.95239 0.3811 0.94811 0.0
C784 C 0.92691 0.26869 0.91834 0.0
C785 C 0.94722 0.34403 0.93369 0.0
N786 N 0.98491 0.23463 0.9547 0.0
N787 N 0.90096 0.37491 0.88218 0.0
H788 H 0.97315 0.38371 0.97034 0.0
H789 H 0.93356 0.4088 0.94154 0.0
H790 H 0.87957 0.37471 0.86007 0.0
H791 H 0.91087 0.40164 0.88301 0.0
H792 H 0.98148 0.20546 0.9464 0.0
H793 H 1.00942 0.23471 0.97257 0.0
H794 H 0.92373 0.20931 0.93515 0.0
H795 H 0.88773 0.23246 0.90123 0.0
C796 C 0.71441 0.96149 0.86791 0.0
C797 C 0.71123 0.94879 0.90785 0.0
C798 C 0.71395 0.87911 0.8808 0.0
C799 C 0.71573 0.89235 0.84056 0.0
N800 N 0.70436 0.94918 0.79607 0.0
N801 N 0.69734 0.89849 0.95039 0.0
C802 C 0.71148 0.93459 0.83425 0.0
C803 C 0.70678 0.90875 0.91344 0.0
N804 N 0.72223 0.99849 0.86193 0.0
N805 N 0.72266 0.83837 0.88893 0.0
H806 H 0.69287 0.91936 0.97491 0.0
H807 H 0.69023 0.87086 0.95538 0.0
H808 H 0.7311 0.81507 0.86732 0.0
H809 H 0.72558 0.82757 0.91821 0.0
H810 H 0.72957 1.00701 0.83406 0.0
H811 H 0.72429 0.01931 0.88545 0.0
H812 H 0.69792 0.9803 0.79015 0.0
H813 H 0.70057 0.93053 0.77094 0.0
C814 C 0.94 0.68954 0.10841 0.0
C815 C 0.97162 0.70748 0.11161 0.0
C816 C 0.95386 0.73387 0.17986 0.0
C817 C 0.91839 0.72304 0.1732 0.0
N818 N 0.8765 0.6921 0.12983 0.0
N819 N 1.00982 0.74624 0.15012 0.0
C820 C 0.91139 0.70041 0.13752 0.0
C821 C 0.97925 0.72891 0.14762 0.0
N822 N 0.93709 0.66293 0.07673 0.0
N823 N 0.96352 0.74816 0.21722 0.0
H824 H 0.03028 0.7404 0.12824 0.0
H825 H 1.01411 0.76725 0.17285 0.0
H826 H 0.94606 0.75099 0.24184 0.0
H827 H 0.99021 0.75342 0.22492 0.0
H828 H 0.9165 0.64586 0.07416 0.0
H829 H 0.95786 0.65505 0.05512 0.0
H830 H 0.86849 0.67967 0.10239 0.0
H831 H 0.85423 0.70066 0.14953 0.0
C832 C 0.35464 0.92853 0.14831 0.0
C833 C 0.35594 0.92526 0.10561 0.0
C834 C 0.34136 0.85789 0.10561 0.0
C835 C 0.33831 0.86172 0.14837 0.0
N836 N 0.35258 0.89475 0.21131 0.0
N837 N 0.36434 0.88206 0.04573 0.0
C838 C 0.34854 0.89515 0.17007 0.0
C839 C 0.35444 0.88796 0.08514 0.0
N840 N 0.35741 0.96448 0.16762 0.0
N841 N 0.32874 0.82776 0.08403 0.0
H842 H 0.37428 0.90387 0.03066 0.0
H843 H 0.3666 0.85429 0.02973 0.0
H844 H 0.31738 0.80598 0.0973 0.0
H845 H 0.3263 0.82655 0.05255 0.0
H846 H 0.35209 0.97114 0.19809 0.0
H847 H 0.36391 0.98832 0.15226 0.0
H848 H 0.36291 0.91658 0.22873 0.0
H849 H 0.3488 0.8704 0.22791 0.0
C850 C 0.75234 0.13213 0.08399 0.0
C851 C 0.71696 0.12147 0.08844 0.0
C852 C 0.69125 0.18954 0.11992 0.0
C853 C 0.72755 0.19893 0.11819 0.0
N854 N 0.79266 0.17989 0.09841 0.0
N855 N 0.65301 0.13867 0.11093 0.0
C856 C 0.75804 0.17039 0.10009 0.0
C857 C 0.6863 0.15009 0.10598 0.0
N858 N 0.78016 0.10602 0.06297 0.0
N859 N 0.66165 0.21822 0.13548 0.0
H860 H 0.6484 0.11056 0.10014 0.0
H861 H 0.63046 0.15584 0.12704 0.0
H862 H 0.66476 0.24581 0.14913 0.0
H863 H 0.63357 0.2157 0.13376 0.0
H864 H 0.80491 0.11331 0.0543 0.0
H865 H 0.77749 0.07755 0.05127 0.0
H866 H 0.81761 0.15886 0.09121 0.0
H867 H 0.79704 0.20896 0.10564 0.0
C868 C 0.58931 0.69405 0.83202 0.0
C869 C 0.60424 0.65283 0.84235 0.0
C870 C 0.66585 0.65458 0.81589 0.0
C871 C 0.65115 0.69615 0.80627 0.0
N872 N 0.60143 0.7579 0.81096 0.0
N873 N 0.65716 0.59552 0.85099 0.0
C874 C 0.61372 0.71676 0.81649 0.0
C875 C 0.64282 0.63369 0.83645 0.0
N876 N 0.55124 0.71051 0.83469 0.0
N877 N 0.70144 0.63491 0.80445 0.0
H878 H 0.64058 0.58003 0.86637 0.0
H879 H 0.68576 0.58058 0.85085 0.0
H880 H 0.71963 0.64983 0.79092 0.0
H881 H 0.71235 0.60352 0.80641 0.0
H882 H 0.53749 0.73875 0.82328 0.0
H883 H 0.53273 0.69455 0.84598 0.0
H884 H 0.57598 0.77548 0.82168 0.0
H885 H 0.61789 0.77527 0.79808 0.0
C886 C 0.40511 0.63779 0.74511 0.0
C887 C 0.43228 0.64078 0.77671 0.0
C888 C 0.38842 0.70194 0.80511 0.0
C889 C 0.36073 0.69866 0.77401 0.0
N890 N 0.34019 0.65912 0.71831 0.0
N891 N 0.44539 0.66856 0.8428 0.0
C892 C 0.36821 0.66504 0.74541 0.0
C893 C 0.42268 0.67094 0.80834 0.0
N894 N 0.4152 0.61026 0.7137 0.0
N895 N 0.38202 0.73465 0.83195 0.0
H896 H 0.46967 0.64525 0.84732 0.0
H897 H 0.43815 0.68685 0.86871 0.0
H898 H 0.35601 0.75576 0.83378 0.0
H899 H 0.40316 0.74205 0.85122 0.0
H900 H 0.39861 0.60968 0.68722 0.0
H901 H 0.44159 0.58958 0.71291 0.0
H902 H 0.34211 0.63254 0.70043 0.0
H903 H 0.31395 0.67975 0.71506 0.0
C904 C 0.4093 0.43229 0.86226 0.0
C905 C 0.42746 0.45278 0.83553 0.0
C906 C 0.3873 0.43484 0.7795 0.0
C907 C 0.3737 0.40879 0.80472 0.0
N908 N 0.37785 0.37711 0.86958 0.0
N909 N 0.44104 0.46215 0.76615 0.0
C910 C 0.38618 0.40605 0.84612 0.0
C911 C 0.41845 0.4511 0.79338 0.0
N912 N 0.41352 0.43857 0.90304 0.0
N913 N 0.36997 0.44506 0.74264 0.0
H914 H 0.46678 0.46954 0.77444 0.0
H915 H 0.43682 0.45847 0.73497 0.0
H916 H 0.34568 0.43564 0.73234 0.0
H917 H 0.37699 0.46684 0.72481 0.0
H918 H 0.39835 0.42715 0.92392 0.0
H919 H 0.42921 0.45868 0.91565 0.0
H920 H 0.38962 0.37127 0.89868 0.0
H921 H 0.36233 0.35616 0.85873 0.0
C922 C 0.64341 0.4295 0.83859 0.0
C923 C 0.62681 0.45662 0.80692 0.0
C924 C 0.68037 0.42379 0.76456 0.0
C925 C 0.69522 0.39525 0.79504 0.0
N926 N 0.68748 0.3665 0.85845 0.0
N927 N 0.62732 0.47497 0.73723 0.0
C928 C 0.67579 0.39694 0.83132 0.0
C929 C 0.64445 0.45207 0.76901 0.0
N930 N 0.62872 0.43497 0.87619 0.0
N931 N 0.70182 0.42553 0.73223 0.0
H932 H 0.60248 0.4978 0.73957 0.0
H933 H 0.63625 0.46927 0.70767 0.0
H934 H 0.72854 0.40613 0.72867 0.0
H935 H 0.69498 0.44877 0.71148 0.0
H936 H 0.64295 0.4209 0.90176 0.0
H937 H 0.6032 0.45514 0.88266 0.0
H938 H 0.67173 0.36277 0.88291 0.0
H939 H 0.71166 0.34288 0.85489 0.0
C940 C 0.64598 0.44884 0.26575 0.0
C941 C 0.61248 0.44632 0.24284 0.0
C942 C 0.6411 0.37363 0.22578 0.0
C943 C 0.67653 0.37804 0.24333 0.0
N944 N 0.71342 0.42037 0.27909 0.0
N945 N 0.57693 0.40613 0.20231 0.0
C946 C 0.67897 0.41556 0.26384 0.0
C947 C 0.60964 0.40841 0.22364 0.0
N948 N 0.64631 0.48341 0.28884 0.0
N949 N 0.63735 0.3358 0.21195 0.0
H950 H 0.55238 0.42962 0.20342 0.0
H951 H 0.57429 0.3818 0.18276 0.0
H952 H 0.65963 0.30976 0.2134 0.0
H953 H 0.61163 0.32927 0.20219 0.0
H954 H 0.66833 0.48627 0.3093 0.0
H955 H 0.62277 0.50814 0.29011 0.0
H956 H 0.71828 0.44811 0.29043 0.0
H957 H 0.73808 0.3971 0.27788 0.0
C958 C 0.61274 0.66958 0.23302 0.0
C959 C 0.6166 0.64223 0.19887 0.0
C960 C 0.67511 0.66217 0.18262 0.0
C961 C 0.67338 0.68616 0.21922 0.0
N962 N 0.64451 0.70536 0.28356 0.0
N963 N 0.65464 0.60702 0.14502 0.0
C964 C 0.64323 0.6879 0.24563 0.0
C965 C 0.6487 0.63705 0.17468 0.0
N966 N 0.5793 0.67931 0.25252 0.0
N967 N 0.70099 0.66456 0.15467 0.0
H968 H 0.63623 0.58765 0.13912 0.0
H969 H 0.67943 0.59887 0.12892 0.0
H970 H 0.72033 0.6831 0.15899 0.0
H971 H 0.70096 0.65113 0.12573 0.0
H972 H 0.57341 0.70213 0.27514 0.0
H973 H 0.556 0.66754 0.24318 0.0
H974 H 0.62524 0.70385 0.30547 0.0
H975 H 0.66707 0.71762 0.29458 0.0
C976 C 0.39313 0.64543 0.26191 0.0
C977 C 0.42771 0.65078 0.24722 0.0
C978 C 0.39969 0.72505 0.24263 0.0
C979 C 0.36355 0.71898 0.25255 0.0
N980 N 0.32564 0.67291 0.2712 0.0
N981 N 0.46434 0.69506 0.22268 0.0
C982 C 0.3603 0.67899 0.26221 0.0
C983 C 0.43116 0.69057 0.23786 0.0
N984 N 0.39196 0.60812 0.27592 0.0
N985 N 0.40402 0.7638 0.23736 0.0
H986 H 0.48855 0.67114 0.22127 0.0
H987 H 0.46761 0.72168 0.20985 0.0
H988 H 0.3815 0.78953 0.23669 0.0
H989 H 0.43029 0.77101 0.2356 0.0
H990 H 0.36903 0.60236 0.29048 0.0
H991 H 0.4156 0.58347 0.27618 0.0
H992 H 0.32007 0.64421 0.27405 0.0
H993 H 0.30148 0.69664 0.27382 0.0
C994 C 0.43104 0.43765 0.242 0.0
C995 C 0.42728 0.45135 0.20175 0.0
C996 C 0.37808 0.41262 0.18709 0.0
C997 C 0.37909 0.40295 0.22861 0.0
N998 N 0.39886 0.41792 0.29724 0.0
N999 N 0.39179 0.45845 0.13812 0.0
C1000 C 0.40319 0.41908 0.25658 0.0
C1001 C 0.39913 0.44076 0.17487 0.0
N1002 N 0.46242 0.43991 0.26569 0.0
N1003 N 0.35863 0.39367 0.159 0.0
H1004 H 0.40596 0.47996 0.1289 0.0
H1005 H 0.36926 0.45484 0.11866 0.0
H1006 H 0.34361 0.37228 0.16644 0.0
H1007 H 0.3603 0.39641 0.12795 0.0
H1008 H 0.46775 0.42726 0.29419 0.0
H1009 H 0.48537 0.44948 0.25492 0.0
H1010 H 0.41351 0.43274 0.31859 0.0
H1011 H 0.37756 0.40644 0.30927 0.0
C1012 C 0.7949 0.65481 0.6491 0.0
C1013 C 0.78049 0.66588 0.60961 0.0
C1014 C 0.75229 0.7354 0.6357 0.0
C1015 C 0.77169 0.72589 0.67391 0.0
N1016 N 0.81755 0.6775 0.71379 0.0
N1017 N 0.74744 0.71727 0.56403 0.0
C1018 C 0.79433 0.6857 0.67991 0.0
C1019 C 0.75941 0.70627 0.60259 0.0
N1020 N 0.80905 0.61445 0.65722 0.0
N1021 N 0.72619 0.77168 0.63123 0.0
H1022 H 0.75097 0.69633 0.53953 0.0
H1023 H 0.73607 0.74741 0.55597 0.0
H1024 H 0.72026 0.79393 0.65431 0.0
H1025 H 0.70808 0.77831 0.60577 0.0
H1026 H 0.81655 0.60399 0.68633 0.0
H1027 H 0.80937 0.59107 0.63539 0.0
H1028 H 0.83757 0.64998 0.71763 0.0
H1029 H 0.82005 0.69954 0.73612 0.0
C1030 C 0.39708 0.90705 0.65796 0.0
C1031 C 0.42352 0.88359 0.631 0.0
C1032 C 0.39748 0.82403 0.64041 0.0
C1033 C 0.37429 0.84567 0.67122 0.0
N1034 N 0.35742 0.9063 0.71468 0.0
N1035 N 0.45668 0.81641 0.60751 0.0
C1036 C 0.37539 0.88693 0.68149 0.0
C1037 C 0.42598 0.84106 0.62533 0.0
N1038 N 0.39215 0.94856 0.66041 0.0
N1039 N 0.39158 0.78781 0.62442 0.0
H1040 H 0.48001 0.8272 0.59961 0.0
H1041 H 0.46102 0.78463 0.60546 0.0
H1042 H 0.36955 0.77535 0.63309 0.0
H1043 H 0.40569 0.77293 0.59933 0.0
H1044 H 0.37072 0.96778 0.67665 0.0
H1045 H 0.40756 0.96395 0.64337 0.0
H1046 H 0.36064 0.93479 0.72581 0.0
H1047 H 0.34212 0.89242 0.73335 0.0
C1048 C 0.23526 0.48552 0.64677 0.0
C1049 C 0.19547 0.49855 0.63809 0.0
C1050 C 0.18368 0.46151 0.69661 0.0
C1051 C 0.22329 0.44527 0.70218 0.0
N1052 N 0.2861 0.43377 0.67587 0.0
N1053 N 0.13234 0.49111 0.64949 0.0
C1054 C 0.24881 0.45442 0.67491 0.0
C1055 C 0.16976 0.48436 0.66163 0.0
N1056 N 0.26017 0.50478 0.63079 0.0
N1057 N 0.15936 0.45513 0.72458 0.0
H1058 H 0.1217 0.50573 0.6228 0.0
H1059 H 0.11282 0.47845 0.66347 0.0
H1060 H 0.16842 0.43704 0.74957 0.0
H1061 H 0.1307 0.47006 0.72439 0.0
H1062 H 0.28892 0.49883 0.63946 0.0
H1063 H 0.25171 0.53016 0.61294 0.0
H1064 H 0.30473 0.43643 0.65363 0.0
H1065 H 0.29759 0.41117 0.69646 0.0
C1066 C 0.58122 0.3161 0.63103 0.0
C1067 C 0.58706 0.28974 0.59613 0.0
C1068 C 0.65645 0.28315 0.60592 0.0
C1069 C 0.65084 0.30557 0.64334 0.0
N1070 N 0.60757 0.33713 0.69501 0.0
N1071 N 0.63112 0.24424 0.5527 0.0
C1072 C 0.61307 0.3207 0.65665 0.0
C1073 C 0.62496 0.27211 0.58437 0.0
N1074 N 0.54517 0.33638 0.64016 0.0
N1075 N 0.69157 0.27407 0.58975 0.0
H1076 H 0.60931 0.23732 0.53416 0.0
H1077 H 0.65781 0.22612 0.54625 0.0
H1078 H 0.71515 0.28224 0.60395 0.0
H1079 H 0.69662 0.26198 0.56051 0.0
H1080 H 0.53922 0.35953 0.66245 0.0
H1081 H 0.52119 0.33255 0.62316 0.0
H1082 H 0.58115 0.34494 0.70805 0.0
H1083 H 0.62983 0.33901 0.71561 0.0
C1084 C 0.78327 0.4302 0.47393 0.0
C1085 C 0.78273 0.46788 0.45565 0.0
C1086 C 0.77854 0.43472 0.38855 0.0
C1087 C 0.77728 0.3977 0.40713 0.0
N1088 N 0.7672 0.36428 0.4673 0.0
N1089 N 0.77228 0.50823 0.39607 0.0
C1090 C 0.77613 0.39674 0.44977 0.0
C1091 C 0.77739 0.47092 0.41308 0.0
N1092 N 0.79222 0.42557 0.51422 0.0
N1093 N 0.78367 0.43465 0.34793 0.0
H1094 H 0.77217 0.53501 0.41323 0.0
H1095 H 0.76475 0.51317 0.36563 0.0
H1096 H 0.78644 0.40844 0.3293 0.0
H1097 H 0.7887 0.45955 0.33328 0.0
H1098 H 0.79809 0.39738 0.52803 0.0
H1099 H 0.79637 0.4495 0.53329 0.0
H1100 H 0.76235 0.36383 0.49802 0.0
H1101 H 0.76057 0.33971 0.45056 0.0
C1102 C 0.64189 0.87656 0.41217 0.0
C1103 C 0.60364 0.8973 0.40447 0.0
C1104 C 0.61047 0.88194 0.33185 0.0
C1105 C 0.64679 0.85601 0.3401 0.0
N1106 N 0.69738 0.82753 0.38824 0.0
N1107 N 0.55057 0.91994 0.35841 0.0
C1108 C 0.66301 0.85367 0.38021 0.0
C1109 C 0.58783 0.90045 0.36456 0.0
N1110 N 0.65755 0.87822 0.45039 0.0
N1111 N 0.59808 0.88943 0.29264 0.0
H1112 H 0.53407 0.93526 0.38182 0.0
H1113 H 0.53557 0.91935 0.33086 0.0
H1114 H 0.61447 0.87704 0.26808 0.0
H1115 H 0.57329 0.91065 0.28439 0.0
H1116 H 0.68631 0.86738 0.4577 0.0
H1117 H 0.6421 0.89337 0.47454 0.0
H1118 H 0.70862 0.82052 0.41728 0.0
H1119 H 0.7141 0.8108 0.36584 0.0
C1120 C 0.17628 0.74408 0.42713 0.0
C1121 C 0.18622 0.70228 0.41531 0.0
C1122 C 0.23421 0.71502 0.37122 0.0
C1123 C 0.22282 0.75765 0.38107 0.0
N1124 N 0.17722 0.81351 0.41195 0.0
N1125 N 0.218 0.64891 0.37025 0.0
C1126 C 0.19203 0.77243 0.40709 0.0
C1127 C 0.21282 0.68825 0.38507 0.0
N1128 N 0.15302 0.75629 0.45878 0.0
N1129 N 0.26718 0.69944 0.35178 0.0
H1130 H 0.2027 0.62881 0.38038 0.0
H1131 H 0.23446 0.63765 0.34551 0.0
H1132 H 0.2854 0.71725 0.34367 0.0
H1133 H 0.27866 0.66819 0.34758 0.0
H1134 H 0.14827 0.78549 0.47231 0.0
H1135 H 0.14045 0.73614 0.47326 0.0
H1136 H 0.1526 0.82589 0.42747 0.0
H1137 H 0.18743 0.83519 0.3972 0.0
C1138 C 0.41674 0.27128 0.39109 0.0
C1139 C 0.40639 0.28722 0.43039 0.0
C1140 C 0.34079 0.31357 0.40378 0.0
C1141 C 0.34997 0.29231 0.36593 0.0
N1142 N 0.39655 0.24515 0.32654 0.0
N1143 N 0.35777 0.32083 0.47532 0.0
C1144 C 0.38804 0.26998 0.36023 0.0
C1145 C 0.3682 0.30786 0.43698 0.0
N1146 N 0.45432 0.25737 0.38323 0.0
N1147 N 0.30641 0.34053 0.40774 0.0
H1148 H 0.37736 0.31877 0.49975 0.0
H1149 H 0.32961 0.33134 0.48329 0.0
H1150 H 0.28606 0.34686 0.38414 0.0
H1151 H 0.29964 0.35997 0.433 0.0
H1152 H 0.46417 0.24921 0.3543 0.0
H1153 H 0.47584 0.25812 0.40514 0.0
H1154 H 0.4228 0.22489 0.32279 0.0
H1155 H 0.3764 0.24134 0.30411 0.0
C1156 C 0.6222 0.85619 0.60036 0.0
C1157 C 0.6036 0.82463 0.58771 0.0
C1158 C 0.61399 0.79731 0.65577 0.0
C1159 C 0.63608 0.82611 0.6668 0.0
N1160 N 0.66893 0.87624 0.64624 0.0
N1161 N 0.58675 0.76144 0.60131 0.0
C1162 C 0.64245 0.85363 0.63817 0.0
C1163 C 0.60098 0.79403 0.61486 0.0
N1164 N 0.61877 0.89001 0.57769 0.0
N1165 N 0.60421 0.77424 0.6847 0.0
H1166 H 0.5772 0.75803 0.5714 0.0
H1167 H 0.58763 0.73606 0.61861 0.0
H1168 H 0.61234 0.77663 0.71519 0.0
H1169 H 0.58507 0.75567 0.67924 0.0
H1170 H 0.62848 0.91562 0.58797 0.0
H1171 H 0.60272 0.89475 0.55069 0.0
H1172 H 0.67761 0.89319 0.62442 0.0
H1173 H 0.68508 0.87482 0.6733 0.0
C1174 C 0.63468 0.21626 0.40516 0.0
C1175 C 0.59867 0.24247 0.41237 0.0
C1176 C 0.61693 0.29695 0.37669 0.0
C1177 C 0.65114 0.26934 0.36533 0.0
N1178 N 0.68945 0.20011 0.363 0.0
N1179 N 0.55217 0.30414 0.39606 0.0
C1180 C 0.65923 0.22819 0.37801 0.0
C1181 C 0.58884 0.28181 0.39553 0.0
N1182 N 0.646 0.18069 0.42547 0.0
N1183 N 0.61184 0.33799 0.3713 0.0
H1184 H 0.53038 0.29298 0.40745 0.0
H1185 H 0.54271 0.3315 0.38103 0.0
H1186 H 0.6324 0.35075 0.35937 0.0
H1187 H 0.58903 0.35971 0.38283 0.0
H1188 H 0.6734 0.16219 0.42458 0.0
H1189 H 0.62902 0.17162 0.44616 0.0
H1190 H 0.69435 0.16888 0.36792 0.0
H1191 H 0.70764 0.20741 0.34252 0.0
C1192 C 0.79169 0.66813 0.38042 0.0
C1193 C 0.82831 0.65646 0.39952 0.0
C1194 C 0.85222 0.6928 0.34818 0.0
C1195 C 0.81454 0.71256 0.33457 0.0
N1196 N 0.74674 0.72226 0.34737 0.0
N1197 N 0.89149 0.66781 0.40683 0.0
C1198 C 0.78361 0.7013 0.35331 0.0
C1199 C 0.8579 0.67215 0.38517 0.0
N1200 N 0.765 0.64654 0.38639 0.0
N1201 N 0.88269 0.6907 0.32484 0.0
H1202 H 0.8959 0.6549 0.43526 0.0
H1203 H 0.91293 0.68148 0.39851 0.0
H1204 H 0.87991 0.69867 0.29467 0.0
H1205 H 0.91004 0.67464 0.33335 0.0
H1206 H 0.73899 0.65173 0.37021 0.0
H1207 H 0.77072 0.62024 0.40337 0.0
H1208 H 0.7248 0.71647 0.36377 0.0
H1209 H 0.73784 0.74813 0.33035 0.0
C1210 C 0.43854 0.78417 0.42986 0.0
C1211 C 0.43321 0.81943 0.45584 0.0
C1212 C 0.36634 0.83881 0.43398 0.0
C1213 C 0.37256 0.8065 0.40444 0.0
N1214 N 0.41781 0.75493 0.36735 0.0
N1215 N 0.39453 0.88658 0.47332 0.0
C1216 C 0.40951 0.78065 0.40049 0.0
C1217 C 0.39794 0.84875 0.4551 0.0
N1218 N 0.47148 0.75452 0.43256 0.0
N1219 N 0.33028 0.85916 0.44308 0.0
H1220 H 0.41734 0.89654 0.48694 0.0
H1221 H 0.37 0.90992 0.47036 0.0
H1222 H 0.30612 0.85158 0.42968 0.0
H1223 H 0.32449 0.88028 0.46725 0.0
H1224 H 0.47503 0.72621 0.41728 0.0
H1225 H 0.49422 0.75708 0.45225 0.0
H1226 H 0.44522 0.73839 0.3614 0.0
H1227 H 0.39847 0.75357 0.3433 0.0
C1228 C 0.21774 0.50798 0.38077 0.0
C1229 C 0.24741 0.5047 0.41101 0.0
C1230 C 0.28499 0.44472 0.37522 0.0
C1231 C 0.25507 0.44762 0.3453 0.0
N1232 N 0.19041 0.47597 0.32327 0.0
N1233 N 0.3053 0.46577 0.4421 0.0
C1234 C 0.22061 0.47748 0.34923 0.0
C1235 C 0.27976 0.4716 0.4099 0.0
N1236 N 0.1872 0.54076 0.38178 0.0
N1237 N 0.31909 0.41772 0.36948 0.0
H1238 H 0.30267 0.48553 0.46751 0.0
H1239 H 0.32728 0.43972 0.44513 0.0
H1240 H 0.32379 0.39671 0.34512 0.0
H1241 H 0.34344 0.41753 0.38757 0.0
H1242 H 0.16693 0.54771 0.3582 0.0
H1243 H 0.18312 0.5626 0.40544 0.0
H1244 H 0.1632 0.49419 0.32678 0.0
H1245 H 0.19178 0.45387 0.29992 0.0
C1246 C 0.37124 0.22755 0.62921 0.0
C1247 C 0.40706 0.23687 0.63738 0.0
C1248 C 0.38907 0.25823 0.70716 0.0
C1249 C 0.35194 0.25215 0.69807 0.0
N1250 N 0.30585 0.23685 0.64831 0.0
N1251 N 0.44942 0.26457 0.68215 0.0
C1252 C 0.34259 0.238 0.65858 0.0
C1253 C 0.41569 0.25334 0.67583 0.0
N1254 N 0.36473 0.20861 0.59316 0.0
N1255 N 0.39943 0.26691 0.74622 0.0
H1256 H 0.47013 0.2594 0.66048 0.0
H1257 H 0.45594 0.28124 0.70761 0.0
H1258 H 0.38114 0.26967 0.7701 0.0
H1259 H 0.42698 0.26795 0.75575 0.0
H1260 H 0.3411 0.19645 0.58677 0.0
H1261 H 0.38441 0.20265 0.5704 0.0
H1262 H 0.29635 0.23108 0.61896 0.0
H1263 H 0.28386 0.24503 0.66841 0.0
C1264 C 0.79464 0.45542 0.64205 0.0
C1265 C 0.83059 0.4511 0.62508 0.0
C1266 C 0.84539 0.37803 0.6403 0.0
C1267 C 0.8072 0.38152 0.65076 0.0
N1268 N 0.743 0.42277 0.64989 0.0
N1269 N 0.88695 0.40494 0.59964 0.0
C1270 C 0.78108 0.42006 0.64862 0.0
C1271 C 0.85537 0.41152 0.62213 0.0
N1272 N 0.77355 0.49339 0.65233 0.0
N1273 N 0.87232 0.34314 0.64821 0.0
H1274 H 0.89387 0.42756 0.58305 0.0
H1275 H 0.90386 0.37582 0.59373 0.0
H1276 H 0.86621 0.31841 0.66226 0.0
H1277 H 0.90121 0.34063 0.64464 0.0
H1278 H 0.74822 0.49787 0.66744 0.0
H1279 H 0.78369 0.51976 0.64991 0.0
H1280 H 0.72279 0.44978 0.64409 0.0
H1281 H 0.73165 0.39722 0.65222 0.0
C1282 C 0.22799 0.69177 0.58948 0.0
C1283 C 0.25751 0.65553 0.58839 0.0
C1284 C 0.3017 0.69226 0.62227 0.0
C1285 C 0.27098 0.7268 0.62789 0.0
N1286 N 0.20461 0.75967 0.61929 0.0
N1287 N 0.32174 0.61972 0.60455 0.0
C1288 C 0.23407 0.72678 0.61185 0.0
C1289 C 0.29437 0.65545 0.60453 0.0
N1290 N 0.19418 0.69263 0.56886 0.0
N1291 N 0.33779 0.69469 0.63414 0.0
H1292 H 0.31745 0.59271 0.59047 0.0
H1293 H 0.34791 0.61616 0.62008 0.0
H1294 H 0.34385 0.72025 0.6495 0.0
H1295 H 0.36195 0.6723 0.62714 0.0
H1296 H 0.17302 0.71918 0.5647 0.0
H1297 H 0.18837 0.66724 0.55294 0.0
H1298 H 0.17621 0.75967 0.61285 0.0
H1299 H 0.20833 0.78649 0.63426 0.0
loop_
_geom_bond_atom_site_label_1
_geom_bond_atom_site_label_2
_geom_bond_distance
_geom_bond_site_symmetry_2
_ccdc_geom_bond_type
Cu0 N1 1.999 . S
Cu0 O6 1.974 1_545 S
Cu0 N11 1.985 1_445 S
Cu0 O20 1.959 1_455 S
N1 Cu0 1.999 . S
N1 C3 1.263 . S
N1 C5 1.389 . S
N2 C3 1.358 . S
N2 C4 1.400 . S
C3 N1 1.263 . S
C3 N2 1.358 . S
C3 H9 0.930 . S
C4 N2 1.400 . S
C4 C5 1.351 . S
C4 H21 0.930 . S
C5 N1 1.389 . S
C5 C4 1.351 . S
C5 H10 0.930 . S
O6 Cu0 1.974 1_565 S
O6 C16 1.282 . S
C7 O8 1.261 . S
C7 O20 1.251 . S
O8 C7 1.261 . S
H9 C3 0.930 . S
H10 C5 0.930 . S
N11 Cu0 1.985 1_665 S
N11 C13 1.335 . S
N11 C14 1.390 . S
N12 C13 1.345 . S
N12 C15 1.336 . S
C13 N11 1.335 . S
C13 N12 1.345 . S
C13 H18 0.930 1_565 S
C14 N11 1.390 . S
C14 C15 1.346 . S
C14 H19 0.930 1_655 S
C15 N12 1.336 . S
C15 C14 1.346 . S
C15 H22 0.929 . S
C16 O6 1.282 . S
C16 O17 1.216 . S
O17 C16 1.216 . S
H18 C13 0.930 1_545 S
H19 C14 0.930 1_455 S
O20 Cu0 1.959 1_655 S
O20 C7 1.251 . S
H21 C4 0.930 . S
H22 C15 0.929 . S
Cu23 N24 1.999 1_445 S
Cu23 O29 1.974 1_455 S
Cu23 N34 1.985 . S
Cu23 O43 1.959 1_545 S
N24 Cu23 1.999 1_665 S
N24 C26 1.263 . S
N24 C28 1.389 . S
N25 C26 1.358 . S
N25 C27 1.400 . S
C26 N24 1.263 . S
C26 N25 1.358 . S
C26 H32 0.930 1_565 S
C27 N25 1.400 . S
C27 C28 1.351 . S
C27 H44 0.930 . S
C28 N24 1.389 . S
C28 C27 1.351 . S
C28 H33 0.930 1_655 S
O29 Cu23 1.974 1_655 S
O29 C39 1.282 . S
C30 O31 1.261 . S
C30 O43 1.251 . S
O31 C30 1.261 . S
H32 C26 0.930 1_545 S
H33 C28 0.930 1_455 S
N34 Cu23 1.985 . S
N34 C36 1.335 . S
N34 C37 1.390 . S
N35 C36 1.345 . S
N35 C38 1.336 . S
C36 N34 1.335 . S
C36 N35 1.345 . S
C36 H41 0.930 . S
C37 N34 1.390 . S
C37 C38 1.346 . S
C37 H42 0.931 1_455 S
C38 N35 1.336 . S
C38 C37 1.346 . S
C38 H45 0.929 . S
C39 O29 1.282 . S
C39 O40 1.216 . S
O40 C39 1.216 . S
H41 C36 0.930 . S
H42 C37 0.931 1_655 S
O43 Cu23 1.959 1_565 S
O43 C30 1.251 . S
H44 C27 0.930 . S
H45 C38 0.929 . S
Cu46 N47 1.999 1_544 S
Cu46 O52 1.974 1_545 S
Cu46 N57 1.985 . S
Cu46 O66 1.959 1_554 S
N47 Cu46 1.999 1_566 S
N47 C49 1.263 . S
N47 C51 1.389 . S
N48 C49 1.358 . S
N48 C50 1.400 . S
C49 N47 1.263 . S
C49 N48 1.358 . S
C49 H55 0.930 . S
C50 N48 1.400 . S
C50 C51 1.351 . S
C50 H67 0.930 . S
C51 N47 1.389 . S
C51 C50 1.351 . S
C51 H56 0.930 . S
O52 Cu46 1.974 1_565 S
O52 C62 1.282 . S
C53 O54 1.261 . S
C53 O66 1.251 . S
O54 C53 1.261 . S
H55 C49 0.930 . S
H56 C51 0.930 . S
N57 Cu46 1.985 . S
N57 C59 1.335 . S
N57 C60 1.390 . S
N58 C59 1.345 . S
N58 C61 1.336 . S
C59 N57 1.335 . S
C59 N58 1.345 . S
C59 H64 0.930 . S
C60 N57 1.390 . S
C60 C61 1.346 . S
C60 H65 0.930 . S
C61 N58 1.336 . S
C61 C60 1.346 . S
C61 H68 0.929 . S
C62 O52 1.282 . S
C62 O63 1.216 . S
O63 C62 1.216 . S
H64 C59 0.930 . S
H65 C60 0.930 . S
O66 Cu46 1.959 1_556 S
O66 C53 1.251 . S
H67 C50 0.930 . S
H68 C61 0.929 . S
Cu69 N70 1.999 1_554 S
Cu69 O75 1.974 . S
Cu69 N80 1.985 1_455 S
Cu69 O89 1.959 1_454 S
N70 Cu69 1.999 1_556 S
N70 C72 1.263 . S
N70 C74 1.389 . S
N71 C72 1.358 . S
N71 C73 1.400 . S
C72 N70 1.263 . S
C72 N71 1.358 . S
C72 H78 0.930 . S
C73 N71 1.400 . S
C73 C74 1.351 . S
C73 H90 0.930 . S
C74 N70 1.389 . S
C74 C73 1.351 . S
C74 H79 0.930 . S
O75 Cu69 1.974 . S
O75 C85 1.282 . S
C76 O77 1.261 . S
C76 O89 1.251 . S
O77 C76 1.261 . S
H78 C72 0.930 . S
H79 C74 0.930 . S
N80 Cu69 1.985 1_655 S
N80 C82 1.335 . S
N80 C83 1.390 . S
N81 C82 1.345 . S
N81 C84 1.336 . S
C82 N80 1.335 . S
C82 N81 1.345 . S
C82 H87 0.930 . S
C83 N80 1.390 . S
C83 C84 1.346 . S
C83 H88 0.930 1_655 S
C84 N81 1.336 . S
C84 C83 1.346 . S
C84 H91 0.929 . S
C85 O75 1.282 . S
C85 O86 1.216 . S
O86 C85 1.216 . S
H87 C82 0.930 . S
H88 C83 0.930 1_455 S
O89 Cu69 1.959 1_656 S
O89 C76 1.251 . S
H90 C73 0.930 . S
H91 C84 0.929 . S
Cu92 N93 1.999 1_554 S
Cu92 O98 1.974 . S
Cu92 N103 1.985 1_545 S
Cu92 O112 1.959 1_544 S
N93 Cu92 1.999 1_556 S
N93 C95 1.263 . S
N93 C97 1.389 . S
N94 C95 1.358 . S
N94 C96 1.400 . S
C95 N93 1.263 . S
C95 N94 1.358 . S
C95 H101 0.930 . S
C96 N94 1.400 . S
C96 C97 1.351 . S
C96 H113 0.930 . S
C97 N93 1.389 . S
C97 C96 1.351 . S
C97 H102 0.930 . S
O98 Cu92 1.974 . S
O98 C108 1.282 . S
C99 O100 1.261 . S
C99 O112 1.251 . S
O100 C99 1.261 . S
H101 C95 0.930 . S
H102 C97 0.930 . S
N103 Cu92 1.985 1_565 S
N103 C105 1.335 . S
N103 C106 1.390 . S
N104 C105 1.345 . S
N104 C107 1.336 . S
C105 N103 1.335 . S
C105 N104 1.345 . S
C105 H110 0.930 . S
C106 N103 1.390 . S
C106 C107 1.346 . S
C106 H111 0.930 1_565 S
C107 N104 1.336 . S
C107 C106 1.346 . S
C107 H114 0.929 . S
C108 O98 1.282 . S
C108 O109 1.216 . S
O109 C108 1.216 . S
H110 C105 0.930 . S
H111 C106 0.930 1_545 S
O112 Cu92 1.959 1_566 S
O112 C99 1.251 . S
H113 C96 0.930 . S
H114 C107 0.929 . S
Cu115 N116 1.999 1_454 S
Cu115 O121 1.974 1_455 S
Cu115 N126 1.985 . S
Cu115 O135 1.959 1_554 S
N116 Cu115 1.999 1_656 S
N116 C118 1.263 . S
N116 C120 1.389 . S
N117 C118 1.358 . S
N117 C119 1.400 . S
C118 N116 1.263 . S
C118 N117 1.358 . S
C118 H124 0.930 . S
C119 N117 1.400 . S
C119 C120 1.351 . S
C119 H136 0.930 . S
C120 N116 1.389 . S
C120 C119 1.351 . S
C120 H125 0.930 1_655 S
O121 Cu115 1.974 1_655 S
O121 C131 1.282 . S
C122 O123 1.261 . S
C122 O135 1.251 . S
O123 C122 1.261 . S
H124 C118 0.930 . S
H125 C120 0.930 1_455 S
N126 Cu115 1.985 . S
N126 C128 1.335 . S
N126 C129 1.390 . S
N127 C128 1.345 . S
N127 C130 1.336 . S
C128 N126 1.335 . S
C128 N127 1.345 . S
C128 H133 0.930 . S
C129 N126 1.390 . S
C129 C130 1.346 . S
C129 H134 0.930 . S
C130 N127 1.336 . S
C130 C129 1.346 . S
C130 H137 0.929 . S
C131 O121 1.282 . S
C131 O132 1.216 . S
O132 C131 1.216 . S
H133 C128 0.930 . S
H134 C129 0.930 . S
O135 Cu115 1.959 1_556 S
O135 C122 1.251 . S
H136 C119 0.930 . S
H137 C130 0.929 . S
Cu138 N139 1.999 . S
Cu138 O144 1.974 . S
Cu138 N149 1.985 . S
Cu138 O158 1.959 . S
N139 Cu138 1.999 . S
N139 C141 1.263 . S
N139 C143 1.389 . S
N140 C141 1.358 . S
N140 C142 1.400 . S
C141 N139 1.263 . S
C141 N140 1.358 . S
C141 H147 0.930 . S
C142 N140 1.400 . S
C142 C143 1.351 . S
C142 H159 0.930 . S
C143 N139 1.389 . S
C143 C142 1.351 . S
C143 H148 0.930 . S
O144 Cu138 1.974 . S
O144 C154 1.282 . S
C145 O146 1.261 . S
C145 O158 1.251 . S
O146 C145 1.261 . S
H147 C141 0.930 . S
H148 C143 0.930 . S
N149 Cu138 1.985 . S
N149 C151 1.335 . S
N149 C152 1.390 . S
N150 C151 1.345 . S
N150 C153 1.336 . S
C151 N149 1.335 . S
C151 N150 1.345 . S
C151 H156 0.930 . S
C152 N149 1.390 . S
C152 C153 1.346 . S
C152 H157 0.930 . S
C153 N150 1.336 . S
C153 C152 1.346 . S
C153 H160 0.929 . S
C154 O144 1.282 . S
C154 O155 1.216 . S
O155 C154 1.216 . S
H156 C151 0.930 . S
H157 C152 0.930 . S
O158 Cu138 1.959 . S
O158 C145 1.251 . S
H159 C142 0.930 . S
H160 C153 0.929 . S
Cu161 N162 1.999 . S
Cu161 O167 1.974 . S
Cu161 N172 1.985 . S
Cu161 O181 1.959 . S
N162 Cu161 1.999 . S
N162 C164 1.263 . S
N162 C166 1.389 . S
N163 C164 1.358 . S
N163 C165 1.400 . S
C164 N162 1.263 . S
C164 N163 1.358 . S
C164 H170 0.930 . S
C165 N163 1.400 . S
C165 C166 1.351 . S
C165 H182 0.930 . S
C166 N162 1.389 . S
C166 C165 1.351 . S
C166 H171 0.930 . S
O167 Cu161 1.974 . S
O167 C177 1.282 . S
C168 O169 1.261 . S
C168 O181 1.251 . S
O169 C168 1.261 . S
H170 C164 0.930 . S
H171 C166 0.930 . S
N172 Cu161 1.985 . S
N172 C174 1.335 . S
N172 C175 1.390 . S
N173 C174 1.345 . S
N173 C176 1.336 . S
C174 N172 1.335 . S
C174 N173 1.345 . S
C174 H179 0.930 . S
C175 N172 1.390 . S
C175 C176 1.346 . S
C175 H180 0.930 . S
C176 N173 1.336 . S
C176 C175 1.346 . S
C176 H183 0.929 . S
C177 O167 1.282 . S
C177 O178 1.216 . S
O178 C177 1.216 . S
H179 C174 0.930 . S
H180 C175 0.930 . S
O181 Cu161 1.959 . S
O181 C168 1.251 . S
H182 C165 0.930 . S
H183 C176 0.929 . S
Cu184 N185 1.999 . S
Cu184 O190 1.974 . S
Cu184 N195 1.985 . S
Cu184 O204 1.959 . S
N185 Cu184 1.999 . S
N185 C187 1.263 . S
N185 C189 1.389 . S
N186 C187 1.358 . S
N186 C188 1.400 . S
C187 N185 1.263 . S
C187 N186 1.358 . S
C187 H193 0.930 . S
C188 N186 1.400 . S
C188 C189 1.351 . S
C188 H205 0.930 . S
C189 N185 1.389 . S
C189 C188 1.351 . S
C189 H194 0.930 . S
O190 Cu184 1.974 . S
O190 C200 1.282 . S
C191 O192 1.261 . S
C191 O204 1.251 . S
O192 C191 1.261 . S
H193 C187 0.930 . S
H194 C189 0.930 . S
N195 Cu184 1.985 . S
N195 C197 1.335 . S
N195 C198 1.390 . S
N196 C197 1.345 . S
N196 C199 1.336 . S
C197 N195 1.335 . S
C197 N196 1.345 . S
C197 H202 0.930 . S
C198 N195 1.390 . S
C198 C199 1.346 . S
C198 H203 0.930 . S
C199 N196 1.336 . S
C199 C198 1.346 . S
C199 H206 0.929 . S
C200 O190 1.282 . S
C200 O201 1.216 . S
O201 C200 1.216 . S
H202 C197 0.930 . S
H203 C198 0.930 . S
O204 Cu184 1.959 . S
O204 C191 1.251 . S
H205 C188 0.930 . S
H206 C199 0.929 . S
Cu207 N208 1.999 . S
Cu207 O213 1.974 . S
Cu207 N218 1.985 . S
Cu207 O227 1.959 . S
N208 Cu207 1.999 . S
N208 C210 1.263 . S
N208 C212 1.389 . S
N209 C210 1.358 . S
N209 C211 1.400 . S
C210 N208 1.263 . S
C210 N209 1.358 . S
C210 H216 0.930 . S
C211 N209 1.400 . S
C211 C212 1.351 . S
C211 H228 0.930 . S
C212 N208 1.389 . S
C212 C211 1.351 . S
C212 H217 0.930 . S
O213 Cu207 1.974 . S
O213 C223 1.282 . S
C214 O215 1.261 . S
C214 O227 1.251 . S
O215 C214 1.261 . S
H216 C210 0.930 . S
H217 C212 0.930 . S
N218 Cu207 1.985 . S
N218 C220 1.335 . S
N218 C221 1.390 . S
N219 C220 1.345 . S
N219 C222 1.336 . S
C220 N218 1.335 . S
C220 N219 1.345 . S
C220 H225 0.930 . S
C221 N218 1.390 . S
C221 C222 1.346 . S
C221 H226 0.930 . S
C222 N219 1.336 . S
C222 C221 1.346 . S
C222 H229 0.929 . S
C223 O213 1.282 . S
C223 O224 1.216 . S
O224 C223 1.216 . S
H225 C220 0.930 . S
H226 C221 0.930 . S
O227 Cu207 1.959 . S
O227 C214 1.251 . S
H228 C211 0.930 . S
H229 C222 0.929 . S
Cu230 N231 1.999 . S
Cu230 O236 1.974 . S
Cu230 N241 1.985 . S
Cu230 O250 1.959 . S
N231 Cu230 1.999 . S
N231 C233 1.263 . S
N231 C235 1.389 . S
N232 C233 1.358 . S
N232 C234 1.400 . S
C233 N231 1.263 . S
C233 N232 1.358 . S
C233 H239 0.930 . S
C234 N232 1.400 . S
C234 C235 1.351 . S
C234 H251 0.930 . S
C235 N231 1.389 . S
C235 C234 1.351 . S
C235 H240 0.930 . S
O236 Cu230 1.974 . S
O236 C246 1.282 . S
C237 O238 1.261 . S
C237 O250 1.251 . S
O238 C237 1.261 . S
H239 C233 0.930 . S
H240 C235 0.930 . S
N241 Cu230 1.985 . S
N241 C243 1.335 . S
N241 C244 1.390 . S
N242 C243 1.345 . S
N242 C245 1.336 . S
C243 N241 1.335 . S
C243 N242 1.345 . S
C243 H248 0.930 . S
C244 N241 1.390 . S
C244 C245 1.346 . S
C244 H249 0.930 . S
C245 N242 1.336 . S
C245 C244 1.346 . S
C245 H252 0.929 . S
C246 O236 1.282 . S
C246 O247 1.216 . S
O247 C246 1.216 . S
H248 C243 0.930 . S
H249 C244 0.930 . S
O250 Cu230 1.959 . S
O250 C237 1.251 . S
H251 C234 0.930 . S
H252 C245 0.929 . S
Cu253 N254 1.999 . S
Cu253 O259 1.974 . S
Cu253 N264 1.985 . S
Cu253 O273 1.959 . S
N254 Cu253 1.999 . S
N254 C256 1.263 . S
N254 C258 1.389 . S
N255 C256 1.358 . S
N255 C257 1.400 . S
C256 N254 1.263 . S
C256 N255 1.358 . S
C256 H262 0.930 . S
C257 N255 1.400 . S
C257 C258 1.351 . S
C257 H274 0.930 . S
C258 N254 1.389 . S
C258 C257 1.351 . S
C258 H263 0.930 . S
O259 Cu253 1.974 . S
O259 C269 1.282 . S
C260 O261 1.261 . S
C260 O273 1.251 . S
O261 C260 1.261 . S
H262 C256 0.930 . S
H263 C258 0.930 . S
N264 Cu253 1.985 . S
N264 C266 1.335 . S
N264 C267 1.390 . S
N265 C266 1.345 . S
N265 C268 1.336 . S
C266 N264 1.335 . S
C266 N265 1.345 . S
C266 H271 0.930 . S
C267 N264 1.390 . S
C267 C268 1.346 . S
C267 H272 0.930 . S
C268 N265 1.336 . S
C268 C267 1.346 . S
C268 H275 0.929 . S
C269 O259 1.282 . S
C269 O270 1.216 . S
O270 C269 1.216 . S
H271 C266 0.930 . S
H272 C267 0.930 . S
O273 Cu253 1.959 . S
O273 C260 1.251 . S
H274 C257 0.930 . S
H275 C268 0.929 . S
Zn276 O282 1.969 . S
Zn276 O283 1.965 . S
Zn276 O287 2.024 . S
Zn276 O292 1.969 . S
Zn277 O284 1.969 . S
Zn277 O290 1.969 . S
Zn277 O291 1.965 . S
Zn277 O293 2.024 . S
C278 O279 1.229 . S
C278 O287 1.058 . S
O279 C278 1.229 . S
C280 O281 1.229 . S
C280 O293 1.058 . S
O281 C280 1.229 . S
O282 Zn276 1.969 . S
O282 C285 1.267 . S
O283 Zn276 1.965 . S
O283 C294 1.260 . S
O284 Zn277 1.969 . S
O284 C294 1.258 . S
C285 O282 1.267 . S
C285 O286 1.228 . S
O286 C285 1.228 . S
O287 Zn276 2.024 . S
O287 C278 1.058 . S
C288 O289 1.228 . S
C288 O290 1.267 . S
O289 C288 1.228 . S
O290 Zn277 1.969 . S
O290 C288 1.267 . S
O291 Zn277 1.965 . S
O291 C295 1.260 . S
O292 Zn276 1.969 . S
O292 C295 1.258 . S
O293 Zn277 2.024 . S
O293 C280 1.058 . S
C294 O283 1.260 . S
C294 O284 1.258 . S
C295 O291 1.260 . S
C295 O292 1.258 . S
Zn296 O302 1.969 . S
Zn296 O303 1.965 . S
Zn296 O307 2.024 . S
Zn296 O312 1.969 . S
Zn297 O304 1.969 . S
Zn297 O310 1.969 . S
Zn297 O311 1.965 . S
Zn297 O313 2.024 . S
C298 O299 1.229 . S
C298 O307 1.058 . S
O299 C298 1.229 . S
C300 O301 1.229 . S
C300 O313 1.058 . S
O301 C300 1.229 . S
O302 Zn296 1.969 . S
O302 C305 1.267 . S
O303 Zn296 1.965 . S
O303 C314 1.260 . S
O304 Zn297 1.969 . S
O304 C314 1.258 . S
C305 O302 1.267 . S
C305 O306 1.228 . S
O306 C305 1.228 . S
O307 Zn296 2.024 . S
O307 C298 1.058 . S
C308 O309 1.228 . S
C308 O310 1.267 . S
O309 C308 1.228 . S
O310 Zn297 1.969 . S
O310 C308 1.267 . S
O311 Zn297 1.965 . S
O311 C315 1.260 . S
O312 Zn296 1.969 . S
O312 C315 1.258 . S
O313 Zn297 2.024 . S
O313 C300 1.058 . S
C314 O303 1.260 . S
C314 O304 1.258 . S
C315 O311 1.260 . S
C315 O312 1.258 . S
Zn316 O322 1.969 . S
Zn316 O323 1.965 . S
Zn316 O327 2.024 . S
Zn316 O332 1.969 . S
Zn317 O324 1.969 . S
Zn317 O330 1.969 . S
Zn317 O331 1.965 . S
Zn317 O333 2.024 . S
C318 O319 1.229 . S
C318 O327 1.058 . S
O319 C318 1.229 . S
C320 O321 1.229 . S
C320 O333 1.058 . S
O321 C320 1.229 . S
O322 Zn316 1.969 . S
O322 C325 1.267 . S
O323 Zn316 1.965 . S
O323 C334 1.260 . S
O324 Zn317 1.969 . S
O324 C334 1.258 . S
C325 O322 1.267 . S
C325 O326 1.228 . S
O326 C325 1.228 . S
O327 Zn316 2.024 . S
O327 C318 1.058 . S
C328 O329 1.228 . S
C328 O330 1.267 . S
O329 C328 1.228 . S
O330 Zn317 1.969 . S
O330 C328 1.267 . S
O331 Zn317 1.965 . S
O331 C335 1.260 . S
O332 Zn316 1.969 . S
O332 C335 1.258 . S
O333 Zn317 2.024 . S
O333 C320 1.058 . S
C334 O323 1.260 . S
C334 O324 1.258 . S
C335 O331 1.260 . S
C335 O332 1.258 . S
Zn336 O342 1.969 . S
Zn336 O343 1.965 . S
Zn336 O347 2.024 . S
Zn336 O352 1.969 . S
Zn337 O344 1.969 . S
Zn337 O350 1.969 . S
Zn337 O351 1.965 . S
Zn337 O353 2.024 . S
C338 O339 1.229 . S
C338 O347 1.058 . S
O339 C338 1.229 . S
C340 O341 1.229 . S
C340 O353 1.058 . S
O341 C340 1.229 . S
O342 Zn336 1.969 . S
O342 C345 1.267 . S
O343 Zn336 1.965 . S
O343 C354 1.260 . S
O344 Zn337 1.969 . S
O344 C354 1.258 . S
C345 O342 1.267 . S
C345 O346 1.228 . S
O346 C345 1.228 . S
O347 Zn336 2.024 . S
O347 C338 1.058 . S
C348 O349 1.228 . S
C348 O350 1.267 . S
O349 C348 1.228 . S
O350 Zn337 1.969 . S
O350 C348 1.267 . S
O351 Zn337 1.965 . S
O351 C355 1.260 . S
O352 Zn336 1.969 . S
O352 C355 1.258 . S
O353 Zn337 2.024 . S
O353 C340 1.058 . S
C354 O343 1.260 . S
C354 O344 1.258 . S
C355 O351 1.260 . S
C355 O352 1.258 . S
Zn356 O362 1.969 . S
Zn356 O363 1.965 . S
Zn356 O367 2.024 . S
Zn356 O372 1.969 . S
Zn357 O364 1.969 . S
Zn357 O370 1.969 . S
Zn357 O371 1.965 . S
Zn357 O373 2.024 . S
C358 O359 1.229 . S
C358 O367 1.058 . S
O359 C358 1.229 . S
C360 O361 1.229 . S
C360 O373 1.058 . S
O361 C360 1.229 . S
O362 Zn356 1.969 . S
O362 C365 1.267 . S
O363 Zn356 1.965 . S
O363 C374 1.260 . S
O364 Zn357 1.969 . S
O364 C374 1.258 . S
C365 O362 1.267 . S
C365 O366 1.228 . S
O366 C365 1.228 . S
O367 Zn356 2.024 . S
O367 C358 1.058 . S
C368 O369 1.228 . S
C368 O370 1.267 . S
O369 C368 1.228 . S
O370 Zn357 1.969 . S
O370 C368 1.267 . S
O371 Zn357 1.965 . S
O371 C375 1.260 . S
O372 Zn356 1.969 . S
O372 C375 1.258 . S
O373 Zn357 2.024 . S
O373 C360 1.058 . S
C374 O363 1.260 . S
C374 O364 1.258 . S
C375 O371 1.260 . S
C375 O372 1.258 . S
Zn376 O382 1.969 . S
Zn376 O383 1.965 . S
Zn376 O387 2.024 . S
Zn376 O392 1.969 . S
Zn377 O384 1.969 . S
Zn377 O390 1.969 . S
Zn377 O391 1.965 . S
Zn377 O393 2.024 . S
C378 O379 1.229 . S
C378 O387 1.058 . S
O379 C378 1.229 . S
C380 O381 1.229 . S
C380 O393 1.058 . S
O381 C380 1.229 . S
O382 Zn376 1.969 . S
O382 C385 1.267 . S
O383 Zn376 1.965 . S
O383 C394 1.260 . S
O384 Zn377 1.969 . S
O384 C394 1.258 . S
C385 O382 1.267 . S
C385 O386 1.228 . S
O386 C385 1.228 . S
O387 Zn376 2.024 . S
O387 C378 1.058 . S
C388 O389 1.228 . S
C388 O390 1.267 . S
O389 C388 1.228 . S
O390 Zn377 1.969 . S
O390 C388 1.267 . S
O391 Zn377 1.965 . S
O391 C395 1.260 . S
O392 Zn376 1.969 . S
O392 C395 1.258 . S
O393 Zn377 2.024 . S
O393 C380 1.058 . S
C394 O383 1.260 . S
C394 O384 1.258 . S
C395 O391 1.260 . S
C395 O392 1.258 . S
Zn396 O402 1.969 . S
Zn396 O403 1.965 . S
Zn396 O407 2.024 . S
Zn396 O412 1.969 . S
Zn397 O404 1.969 . S
Zn397 O410 1.969 . S
Zn397 O411 1.965 . S
Zn397 O413 2.024 . S
C398 O399 1.229 . S
C398 O407 1.058 . S
O399 C398 1.229 . S
C400 O401 1.229 . S
C400 O413 1.058 . S
O401 C400 1.229 . S
O402 Zn396 1.969 . S
O402 C405 1.267 . S
O403 Zn396 1.965 . S
O403 C414 1.260 . S
O404 Zn397 1.969 . S
O404 C414 1.258 . S
C405 O402 1.267 . S
C405 O406 1.228 . S
O406 C405 1.228 . S
O407 Zn396 2.024 . S
O407 C398 1.058 . S
C408 O409 1.228 . S
C408 O410 1.267 . S
O409 C408 1.228 . S
O410 Zn397 1.969 . S
O410 C408 1.267 . S
O411 Zn397 1.965 . S
O411 C415 1.260 . S
O412 Zn396 1.969 . S
O412 C415 1.258 . S
O413 Zn397 2.024 . S
O413 C400 1.058 . S
C414 O403 1.260 . S
C414 O404 1.258 . S
C415 O411 1.260 . S
C415 O412 1.258 . S
Zn416 O422 1.969 . S
Zn416 O423 1.965 . S
Zn416 O427 2.024 . S
Zn416 O432 1.969 . S
Zn417 O424 1.969 . S
Zn417 O430 1.969 . S
Zn417 O431 1.965 . S
Zn417 O433 2.024 . S
C418 O419 1.229 . S
C418 O427 1.058 . S
O419 C418 1.229 . S
C420 O421 1.229 . S
C420 O433 1.058 . S
O421 C420 1.229 . S
O422 Zn416 1.969 . S
O422 C425 1.267 . S
O423 Zn416 1.965 . S
O423 C434 1.260 . S
O424 Zn417 1.969 . S
O424 C434 1.258 . S
C425 O422 1.267 . S
C425 O426 1.228 . S
O426 C425 1.228 . S
O427 Zn416 2.024 . S
O427 C418 1.058 . S
C428 O429 1.228 . S
C428 O430 1.267 . S
O429 C428 1.228 . S
O430 Zn417 1.969 . S
O430 C428 1.267 . S
O431 Zn417 1.965 . S
O431 C435 1.260 . S
O432 Zn416 1.969 . S
O432 C435 1.258 . S
O433 Zn417 2.024 . S
O433 C420 1.058 . S
C434 O423 1.260 . S
C434 O424 1.258 . S
C435 O431 1.260 . S
C435 O432 1.258 . S
C436 C437 1.363 . S
C436 C442 1.379 . S
C436 N444 1.356 . S
C437 C436 1.363 . S
C437 C443 1.363 . S
C438 C439 1.363 . S
C438 C443 1.379 . S
C438 N445 1.356 . S
C439 C438 1.363 . S
C439 C442 1.363 . S
N440 C442 1.356 . S
N440 H452 0.984 . S
N440 H453 0.985 . S
N441 C443 1.356 . S
N441 H446 0.984 . S
N441 H447 0.985 . S
C442 C436 1.379 . S
C442 C439 1.363 . S
C442 N440 1.356 . S
C443 C437 1.363 . S
C443 C438 1.379 . S
C443 N441 1.356 . S
N444 C436 1.356 . S
N444 H450 0.984 . S
N444 H451 0.984 . S
N445 C438 1.356 . S
N445 H448 0.984 . S
N445 H449 0.985 . S
H446 N441 0.984 . S
H447 N441 0.985 . S
H448 N445 0.984 . S
H449 N445 0.985 . S
H450 N444 0.984 . S
H451 N444 0.984 . S
H452 N440 0.984 . S
H453 N440 0.985 . S
C454 C455 1.363 . S
C454 C460 1.379 . S
C454 N462 1.356 . S
C455 C454 1.363 . S
C455 C461 1.363 . S
C456 C457 1.363 . S
C456 C461 1.379 . S
C456 N463 1.356 . S
C457 C456 1.363 . S
C457 C460 1.363 . S
N458 C460 1.356 . S
N458 H470 0.984 . S
N458 H471 0.985 . S
N459 C461 1.356 . S
N459 H464 0.984 . S
N459 H465 0.985 . S
C460 C454 1.379 . S
C460 C457 1.363 . S
C460 N458 1.356 . S
C461 C455 1.363 . S
C461 C456 1.379 . S
C461 N459 1.356 . S
N462 C454 1.356 . S
N462 H468 0.984 . S
N462 H469 0.984 . S
N463 C456 1.356 . S
N463 H466 0.984 . S
N463 H467 0.985 . S
H464 N459 0.984 . S
H465 N459 0.985 . S
H466 N463 0.984 . S
H467 N463 0.985 . S
H468 N462 0.984 . S
H469 N462 0.984 . S
H470 N458 0.984 . S
H471 N458 0.985 . S
C472 C473 1.363 . S
C472 C478 1.379 . S
C472 N480 1.356 . S
C473 C472 1.363 . S
C473 C479 1.363 . S
C474 C475 1.363 . S
C474 C479 1.379 . S
C474 N481 1.356 . S
C475 C474 1.363 . S
C475 C478 1.363 . S
N476 C478 1.356 . S
N476 H488 0.984 . S
N476 H489 0.985 . S
N477 C479 1.356 . S
N477 H482 0.984 . S
N477 H483 0.985 . S
C478 C472 1.379 . S
C478 C475 1.363 . S
C478 N476 1.356 . S
C479 C473 1.363 . S
C479 C474 1.379 . S
C479 N477 1.356 . S
N480 C472 1.356 . S
N480 H486 0.984 1_565 S
N480 H487 0.984 1_565 S
N481 C474 1.356 . S
N481 H484 0.984 . S
N481 H485 0.985 . S
H482 N477 0.984 . S
H483 N477 0.985 . S
H484 N481 0.984 . S
H485 N481 0.985 . S
H486 N480 0.984 1_545 S
H487 N480 0.984 1_545 S
H488 N476 0.984 . S
H489 N476 0.985 . S
C490 C491 1.363 . S
C490 C496 1.379 . S
C490 N498 1.356 . S
C491 C490 1.363 . S
C491 C497 1.363 . S
C492 C493 1.363 . S
C492 C497 1.379 . S
C492 N499 1.356 . S
C493 C492 1.363 . S
C493 C496 1.363 . S
N494 C496 1.356 . S
N494 H506 0.984 . S
N494 H507 0.985 . S
N495 C497 1.356 . S
N495 H500 0.984 . S
N495 H501 0.985 . S
C496 C490 1.379 . S
C496 C493 1.363 . S
C496 N494 1.356 . S
C497 C491 1.363 . S
C497 C492 1.379 . S
C497 N495 1.356 . S
N498 C490 1.356 . S
N498 H504 0.983 1_565 S
N498 H505 0.984 1_565 S
N499 C492 1.356 . S
N499 H502 0.984 . S
N499 H503 0.985 . S
H500 N495 0.984 . S
H501 N495 0.985 . S
H502 N499 0.984 . S
H503 N499 0.985 . S
H504 N498 0.983 1_545 S
H505 N498 0.984 1_545 S
H506 N494 0.984 . S
H507 N494 0.985 . S
C508 C509 1.363 . S
C508 C514 1.379 . S
C508 N516 1.356 . S
C509 C508 1.363 . S
C509 C515 1.363 . S
C510 C511 1.363 . S
C510 C515 1.379 . S
C510 N517 1.356 . S
C511 C510 1.363 . S
C511 C514 1.363 . S
N512 C514 1.356 . S
N512 H524 0.984 . S
N512 H525 0.985 . S
N513 C515 1.356 . S
N513 H518 0.984 . S
N513 H519 0.985 . S
C514 C508 1.379 . S
C514 C511 1.363 . S
C514 N512 1.356 . S
C515 C509 1.363 . S
C515 C510 1.379 . S
C515 N513 1.356 . S
N516 C508 1.356 . S
N516 H522 0.984 . S
N516 H523 0.984 . S
N517 C510 1.356 . S
N517 H520 0.984 . S
N517 H521 0.985 . S
H518 N513 0.984 . S
H519 N513 0.985 . S
H520 N517 0.984 . S
H521 N517 0.985 . S
H522 N516 0.984 . S
H523 N516 0.984 . S
H524 N512 0.984 . S
H525 N512 0.985 . S
C526 C527 1.363 . S
C526 C532 1.379 . S
C526 N534 1.356 . S
C527 C526 1.363 . S
C527 C533 1.363 . S
C528 C529 1.363 . S
C528 C533 1.379 . S
C528 N535 1.356 . S
C529 C528 1.363 . S
C529 C532 1.363 . S
N530 C532 1.356 . S
N530 H542 0.984 . S
N530 H543 0.985 . S
N531 C533 1.356 . S
N531 H536 0.984 . S
N531 H537 0.985 . S
C532 C526 1.379 . S
C532 C529 1.363 . S
C532 N530 1.356 . S
C533 C527 1.363 . S
C533 C528 1.379 . S
C533 N531 1.356 . S
N534 C526 1.356 . S
N534 H540 0.984 . S
N534 H541 0.984 . S
N535 C528 1.356 . S
N535 H538 0.984 . S
N535 H539 0.985 . S
H536 N531 0.984 . S
H537 N531 0.985 . S
H538 N535 0.984 . S
H539 N535 0.985 . S
H540 N534 0.984 . S
H541 N534 0.984 . S
H542 N530 0.984 . S
H543 N530 0.985 . S
C544 C545 1.363 . S
C544 C550 1.379 . S
C544 N552 1.356 . S
C545 C544 1.363 . S
C545 C551 1.363 . S
C546 C547 1.363 . S
C546 C551 1.379 . S
C546 N553 1.356 . S
C547 C546 1.363 . S
C547 C550 1.363 . S
N548 C550 1.356 . S
N548 H560 0.984 . S
N548 H561 0.985 . S
N549 C551 1.356 . S
N549 H554 0.984 . S
N549 H555 0.985 . S
C550 C544 1.379 . S
C550 C547 1.363 . S
C550 N548 1.356 . S
C551 C545 1.363 . S
C551 C546 1.379 . S
C551 N549 1.356 . S
N552 C544 1.356 . S
N552 H558 0.984 . S
N552 H559 0.984 . S
N553 C546 1.356 . S
N553 H556 0.984 . S
N553 H557 0.985 . S
H554 N549 0.984 . S
H555 N549 0.985 . S
H556 N553 0.984 . S
H557 N553 0.985 . S
H558 N552 0.984 . S
H559 N552 0.984 . S
H560 N548 0.984 . S
H561 N548 0.985 . S
C562 C563 1.363 . S
C562 C568 1.379 . S
C562 N570 1.356 . S
C563 C562 1.363 . S
C563 C569 1.363 . S
C564 C565 1.363 . S
C564 C569 1.379 . S
C564 N571 1.356 . S
C565 C564 1.363 . S
C565 C568 1.363 . S
N566 C568 1.356 . S
N566 H578 0.984 . S
N566 H579 0.985 . S
N567 C569 1.356 . S
N567 H572 0.984 . S
N567 H573 0.985 . S
C568 C562 1.379 . S
C568 C565 1.363 . S
C568 N566 1.356 . S
C569 C563 1.363 . S
C569 C564 1.379 . S
C569 N567 1.356 . S
N570 C562 1.356 . S
N570 H576 0.984 . S
N570 H577 0.984 . S
N571 C564 1.356 . S
N571 H574 0.984 . S
N571 H575 0.985 . S
H572 N567 0.984 . S
H573 N567 0.985 . S
H574 N571 0.984 . S
H575 N571 0.985 . S
H576 N570 0.984 . S
H577 N570 0.984 . S
H578 N566 0.984 . S
H579 N566 0.985 . S
C580 C581 1.363 . S
C580 C586 1.379 . S
C580 N588 1.356 . S
C581 C580 1.363 . S
C581 C587 1.363 . S
C582 C583 1.363 . S
C582 C587 1.379 . S
C582 N589 1.356 . S
C583 C582 1.363 . S
C583 C586 1.363 . S
N584 C586 1.356 . S
N584 H596 0.984 . S
N584 H597 0.985 . S
N585 C587 1.356 . S
N585 H590 0.984 . S
N585 H591 0.985 . S
C586 C580 1.379 . S
C586 C583 1.363 . S
C586 N584 1.356 . S
C587 C581 1.363 . S
C587 C582 1.379 . S
C587 N585 1.356 . S
N588 C580 1.356 . S
N588 H594 0.984 . S
N588 H595 0.984 . S
N589 C582 1.356 . S
N589 H592 0.984 . S
N589 H593 0.985 . S
H590 N585 0.984 . S
H591 N585 0.985 . S
H592 N589 0.984 . S
H593 N589 0.985 . S
H594 N588 0.984 . S
H595 N588 0.984 . S
H596 N584 0.984 . S
H597 N584 0.985 . S
C598 C599 1.363 . S
C598 C604 1.379 . S
C598 N606 1.356 . S
C599 C598 1.363 . S
C599 C605 1.363 . S
C600 C601 1.363 . S
C600 C605 1.379 . S
C600 N607 1.356 . S
C601 C600 1.363 . S
C601 C604 1.363 . S
N602 C604 1.356 . S
N602 H614 0.984 . S
N602 H615 0.985 . S
N603 C605 1.356 . S
N603 H608 0.984 . S
N603 H609 0.985 . S
C604 C598 1.379 . S
C604 C601 1.363 . S
C604 N602 1.356 . S
C605 C599 1.363 . S
C605 C600 1.379 . S
C605 N603 1.356 . S
N606 C598 1.356 . S
N606 H612 0.984 . S
N606 H613 0.984 . S
N607 C600 1.356 . S
N607 H610 0.984 . S
N607 H611 0.985 . S
H608 N603 0.984 . S
H609 N603 0.985 . S
H610 N607 0.984 . S
H611 N607 0.985 . S
H612 N606 0.984 . S
H613 N606 0.984 . S
H614 N602 0.984 . S
H615 N602 0.985 . S
C616 C617 1.363 . S
C616 C622 1.379 . S
C616 N624 1.356 . S
C617 C616 1.363 . S
C617 C623 1.363 . S
C618 C619 1.363 . S
C618 C623 1.379 . S
C618 N625 1.356 . S
C619 C618 1.363 . S
C619 C622 1.363 . S
N620 C622 1.356 . S
N620 H632 0.984 . S
N620 H633 0.985 . S
N621 C623 1.356 . S
N621 H626 0.984 . S
N621 H627 0.985 . S
C622 C616 1.379 . S
C622 C619 1.363 . S
C622 N620 1.356 . S
C623 C617 1.363 . S
C623 C618 1.379 . S
C623 N621 1.356 . S
N624 C616 1.356 . S
N624 H630 0.984 . S
N624 H631 0.984 . S
N625 C618 1.356 . S
N625 H628 0.984 . S
N625 H629 0.985 . S
H626 N621 0.984 . S
H627 N621 0.985 . S
H628 N625 0.984 . S
H629 N625 0.985 . S
H630 N624 0.984 . S
H631 N624 0.984 . S
H632 N620 0.984 . S
H633 N620 0.985 . S
C634 C635 1.363 . S
C634 C640 1.379 . S
C634 N642 1.356 . S
C635 C634 1.363 . S
C635 C641 1.363 . S
C636 C637 1.363 . S
C636 C641 1.379 . S
C636 N643 1.356 . S
C637 C636 1.363 . S
C637 C640 1.363 . S
N638 C640 1.356 . S
N638 H650 0.984 . S
N638 H651 0.985 . S
N639 C641 1.356 . S
N639 H644 0.984 . S
N639 H645 0.985 . S
C640 C634 1.379 . S
C640 C637 1.363 . S
C640 N638 1.356 . S
C641 C635 1.363 . S
C641 C636 1.379 . S
C641 N639 1.356 . S
N642 C634 1.356 . S
N642 H648 0.984 . S
N642 H649 0.984 . S
N643 C636 1.356 . S
N643 H646 0.984 . S
N643 H647 0.985 . S
H644 N639 0.984 . S
H645 N639 0.985 . S
H646 N643 0.984 . S
H647 N643 0.985 . S
H648 N642 0.984 . S
H649 N642 0.984 . S
H650 N638 0.984 . S
H651 N638 0.985 . S
C652 C653 1.363 . S
C652 C658 1.379 . S
C652 N660 1.356 . S
C653 C652 1.363 . S
C653 C659 1.363 . S
C654 C655 1.363 . S
C654 C659 1.379 . S
C654 N661 1.356 . S
C655 C654 1.363 . S
C655 C658 1.363 . S
N656 C658 1.356 . S
N656 H668 0.984 . S
N656 H669 0.985 . S
N657 C659 1.356 . S
N657 H662 0.984 . S
N657 H663 0.985 . S
C658 C652 1.379 . S
C658 C655 1.363 . S
C658 N656 1.356 . S
C659 C653 1.363 . S
C659 C654 1.379 . S
C659 N657 1.356 . S
N660 C652 1.356 . S
N660 H666 0.984 . S
N660 H667 0.984 . S
N661 C654 1.356 . S
N661 H664 0.984 . S
N661 H665 0.985 . S
H662 N657 0.984 . S
H663 N657 0.985 . S
H664 N661 0.984 . S
H665 N661 0.985 . S
H666 N660 0.984 . S
H667 N660 0.984 . S
H668 N656 0.984 . S
H669 N656 0.985 . S
C670 C671 1.363 . S
C670 C676 1.379 . S
C670 N678 1.356 . S
C671 C670 1.363 . S
C671 C677 1.363 . S
C672 C673 1.363 . S
C672 C677 1.379 . S
C672 N679 1.356 . S
C673 C672 1.363 . S
C673 C676 1.363 . S
N674 C676 1.356 . S
N674 H686 0.984 . S
N674 H687 0.985 . S
N675 C677 1.356 . S
N675 H680 0.984 . S
N675 H681 0.985 . S
C676 C670 1.379 . S
C676 C673 1.363 . S
C676 N674 1.356 . S
C677 C671 1.363 . S
C677 C672 1.379 . S
C677 N675 1.356 . S
N678 C670 1.356 . S
N678 H684 0.984 . S
N678 H685 0.984 . S
N679 C672 1.356 . S
N679 H682 0.984 . S
N679 H683 0.985 . S
H680 N675 0.984 . S
H681 N675 0.985 . S
H682 N679 0.984 . S
H683 N679 0.985 . S
H684 N678 0.984 . S
H685 N678 0.984 . S
H686 N674 0.984 . S
H687 N674 0.985 . S
C688 C689 1.363 . S
C688 C694 1.379 . S
C688 N696 1.356 . S
C689 C688 1.363 . S
C689 C695 1.363 . S
C690 C691 1.363 . S
C690 C695 1.379 . S
C690 N697 1.356 . S
C691 C690 1.363 . S
C691 C694 1.363 . S
N692 C694 1.356 . S
N692 H704 0.984 . S
N692 H705 0.985 . S
N693 C695 1.356 . S
N693 H698 0.984 . S
N693 H699 0.985 . S
C694 C688 1.379 . S
C694 C691 1.363 . S
C694 N692 1.356 . S
C695 C689 1.363 . S
C695 C690 1.379 . S
C695 N693 1.356 . S
N696 C688 1.356 . S
N696 H702 0.984 . S
N696 H703 0.984 . S
N697 C690 1.356 . S
N697 H700 0.984 . S
N697 H701 0.985 . S
H698 N693 0.984 . S
H699 N693 0.985 . S
H700 N697 0.984 . S
H701 N697 0.985 . S
H702 N696 0.984 . S
H703 N696 0.984 . S
H704 N692 0.984 . S
H705 N692 0.985 . S
C706 C707 1.363 . S
C706 C712 1.379 . S
C706 N714 1.356 . S
C707 C706 1.363 . S
C707 C713 1.363 . S
C708 C709 1.363 . S
C708 C713 1.379 . S
C708 N715 1.356 . S
C709 C708 1.363 . S
C709 C712 1.363 . S
N710 C712 1.356 . S
N710 H722 0.984 . S
N710 H723 0.985 . S
N711 C713 1.356 . S
N711 H716 0.984 . S
N711 H717 0.985 . S
C712 C706 1.379 . S
C712 C709 1.363 . S
C712 N710 1.356 . S
C713 C707 1.363 . S
C713 C708 1.379 . S
C713 N711 1.356 . S
N714 C706 1.356 . S
N714 H720 0.984 . S
N714 H721 0.984 . S
N715 C708 1.356 . S
N715 H718 0.984 . S
N715 H719 0.985 . S
H716 N711 0.984 . S
H717 N711 0.985 . S
H718 N715 0.984 . S
H719 N715 0.985 . S
H720 N714 0.984 . S
H721 N714 0.984 . S
H722 N710 0.984 . S
H723 N710 0.985 . S
C724 C725 1.363 . S
C724 C730 1.379 . S
C724 N732 1.356 . S
C725 C724 1.363 . S
C725 C731 1.363 . S
C726 C727 1.363 . S
C726 C731 1.379 . S
C726 N733 1.356 . S
C727 C726 1.363 . S
C727 C730 1.363 . S
N728 C730 1.356 . S
N728 H740 0.984 . S
N728 H741 0.985 . S
N729 C731 1.356 . S
N729 H734 0.984 . S
N729 H735 0.985 . S
C730 C724 1.379 . S
C730 C727 1.363 . S
C730 N728 1.356 . S
C731 C725 1.363 . S
C731 C726 1.379 . S
C731 N729 1.356 . S
N732 C724 1.356 . S
N732 H738 0.984 . S
N732 H739 0.984 . S
N733 C726 1.356 . S
N733 H736 0.984 . S
N733 H737 0.985 . S
H734 N729 0.984 . S
H735 N729 0.985 . S
H736 N733 0.984 . S
H737 N733 0.985 . S
H738 N732 0.984 . S
H739 N732 0.984 . S
H740 N728 0.984 . S
H741 N728 0.985 . S
C742 C743 1.363 . S
C742 C748 1.379 . S
C742 N750 1.356 . S
C743 C742 1.363 . S
C743 C749 1.363 . S
C744 C745 1.363 . S
C744 C749 1.379 . S
C744 N751 1.356 . S
C745 C744 1.363 . S
C745 C748 1.363 . S
N746 C748 1.356 . S
N746 H758 0.984 . S
N746 H759 0.985 . S
N747 C749 1.356 . S
N747 H752 0.984 . S
N747 H753 0.985 . S
C748 C742 1.379 . S
C748 C745 1.363 . S
C748 N746 1.356 . S
C749 C743 1.363 . S
C749 C744 1.379 . S
C749 N747 1.356 . S
N750 C742 1.356 . S
N750 H756 0.984 1_556 S
N750 H757 0.984 . S
N751 C744 1.356 . S
N751 H754 0.984 . S
N751 H755 0.985 . S
H752 N747 0.984 . S
H753 N747 0.985 . S
H754 N751 0.984 . S
H755 N751 0.985 . S
H756 N750 0.984 1_554 S
H757 N750 0.984 . S
H758 N746 0.984 . S
H759 N746 0.985 . S
C760 C761 1.363 . S
C760 C766 1.379 . S
C760 N768 1.356 . S
C761 C760 1.363 . S
C761 C767 1.363 . S
C762 C763 1.363 . S
C762 C767 1.379 . S
C762 N769 1.356 . S
C763 C762 1.363 . S
C763 C766 1.363 . S
N764 C766 1.356 . S
N764 H776 0.984 . S
N764 H777 0.985 . S
N765 C767 1.356 . S
N765 H770 0.984 . S
N765 H771 0.985 . S
C766 C760 1.379 . S
C766 C763 1.363 . S
C766 N764 1.356 . S
C767 C761 1.363 . S
C767 C762 1.379 . S
C767 N765 1.356 . S
N768 C760 1.356 . S
N768 H774 0.984 . S
N768 H775 0.984 . S
N769 C762 1.356 . S
N769 H772 0.984 . S
N769 H773 0.985 . S
H770 N765 0.984 . S
H771 N765 0.985 . S
H772 N769 0.984 . S
H773 N769 0.985 . S
H774 N768 0.984 . S
H775 N768 0.984 . S
H776 N764 0.984 . S
H777 N764 0.985 . S
C778 C779 1.363 . S
C778 C784 1.379 . S
C778 N786 1.356 . S
C779 C778 1.363 . S
C779 C785 1.363 . S
C780 C781 1.363 . S
C780 C785 1.379 . S
C780 N787 1.356 . S
C781 C780 1.363 . S
C781 C784 1.363 . S
N782 C784 1.356 . S
N782 H794 0.984 . S
N782 H795 0.985 . S
N783 C785 1.356 . S
N783 H788 0.984 . S
N783 H789 0.985 . S
C784 C778 1.379 . S
C784 C781 1.363 . S
C784 N782 1.356 . S
C785 C779 1.363 . S
C785 C780 1.379 . S
C785 N783 1.356 . S
N786 C778 1.356 . S
N786 H792 0.984 . S
N786 H793 0.984 . S
N787 C780 1.356 . S
N787 H790 0.984 . S
N787 H791 0.985 . S
H788 N783 0.984 . S
H789 N783 0.985 . S
H790 N787 0.984 . S
H791 N787 0.985 . S
H792 N786 0.984 . S
H793 N786 0.984 . S
H794 N782 0.984 . S
H795 N782 0.985 . S
C796 C797 1.363 . S
C796 C802 1.379 . S
C796 N804 1.356 . S
C797 C796 1.363 . S
C797 C803 1.363 . S
C798 C799 1.363 . S
C798 C803 1.379 . S
C798 N805 1.356 . S
C799 C798 1.363 . S
C799 C802 1.363 . S
N800 C802 1.356 . S
N800 H812 0.984 . S
N800 H813 0.985 . S
N801 C803 1.356 . S
N801 H806 0.984 . S
N801 H807 0.985 . S
C802 C796 1.379 . S
C802 C799 1.363 . S
C802 N800 1.356 . S
C803 C797 1.363 . S
C803 C798 1.379 . S
C803 N801 1.356 . S
N804 C796 1.356 . S
N804 H810 0.984 . S
N804 H811 0.984 . S
N805 C798 1.356 . S
N805 H808 0.984 . S
N805 H809 0.985 . S
H806 N801 0.984 . S
H807 N801 0.985 . S
H808 N805 0.984 . S
H809 N805 0.985 . S
H810 N804 0.984 . S
H811 N804 0.984 . S
H812 N800 0.984 . S
H813 N800 0.985 . S
C814 C815 1.363 . S
C814 C820 1.379 . S
C814 N822 1.356 . S
C815 C814 1.363 . S
C815 C821 1.363 . S
C816 C817 1.363 . S
C816 C821 1.379 . S
C816 N823 1.356 . S
C817 C816 1.363 . S
C817 C820 1.363 . S
N818 C820 1.356 . S
N818 H830 0.984 . S
N818 H831 0.985 . S
N819 C821 1.356 . S
N819 H824 0.984 . S
N819 H825 0.985 . S
C820 C814 1.379 . S
C820 C817 1.363 . S
C820 N818 1.356 . S
C821 C815 1.363 . S
C821 C816 1.379 . S
C821 N819 1.356 . S
N822 C814 1.356 . S
N822 H828 0.984 . S
N822 H829 0.984 . S
N823 C816 1.356 . S
N823 H826 0.984 . S
N823 H827 0.985 . S
H824 N819 0.984 . S
H825 N819 0.985 . S
H826 N823 0.984 . S
H827 N823 0.985 . S
H828 N822 0.984 . S
H829 N822 0.984 . S
H830 N818 0.984 . S
H831 N818 0.985 . S
C832 C833 1.363 . S
C832 C838 1.379 . S
C832 N840 1.356 . S
C833 C832 1.363 . S
C833 C839 1.363 . S
C834 C835 1.363 . S
C834 C839 1.379 . S
C834 N841 1.356 . S
C835 C834 1.363 . S
C835 C838 1.363 . S
N836 C838 1.356 . S
N836 H848 0.984 . S
N836 H849 0.985 . S
N837 C839 1.356 . S
N837 H842 0.984 . S
N837 H843 0.985 . S
C838 C832 1.379 . S
C838 C835 1.363 . S
C838 N836 1.356 . S
C839 C833 1.363 . S
C839 C834 1.379 . S
C839 N837 1.356 . S
N840 C832 1.356 . S
N840 H846 0.984 . S
N840 H847 0.984 . S
N841 C834 1.356 . S
N841 H844 0.984 . S
N841 H845 0.985 . S
H842 N837 0.984 . S
H843 N837 0.985 . S
H844 N841 0.984 . S
H845 N841 0.985 . S
H846 N840 0.984 . S
H847 N840 0.984 . S
H848 N836 0.984 . S
H849 N836 0.985 . S
C850 C851 1.363 . S
C850 C856 1.379 . S
C850 N858 1.356 . S
C851 C850 1.363 . S
C851 C857 1.363 . S
C852 C853 1.363 . S
C852 C857 1.379 . S
C852 N859 1.356 . S
C853 C852 1.363 . S
C853 C856 1.363 . S
N854 C856 1.356 . S
N854 H866 0.984 . S
N854 H867 0.985 . S
N855 C857 1.356 . S
N855 H860 0.984 . S
N855 H861 0.985 . S
C856 C850 1.379 . S
C856 C853 1.363 . S
C856 N854 1.356 . S
C857 C851 1.363 . S
C857 C852 1.379 . S
C857 N855 1.356 . S
N858 C850 1.356 . S
N858 H864 0.984 . S
N858 H865 0.984 . S
N859 C852 1.356 . S
N859 H862 0.984 . S
N859 H863 0.985 . S
H860 N855 0.984 . S
H861 N855 0.985 . S
H862 N859 0.984 . S
H863 N859 0.985 . S
H864 N858 0.984 . S
H865 N858 0.984 . S
H866 N854 0.984 . S
H867 N854 0.985 . S
C868 C869 1.363 . S
C868 C874 1.379 . S
C868 N876 1.356 . S
C869 C868 1.363 . S
C869 C875 1.363 . S
C870 C871 1.363 . S
C870 C875 1.379 . S
C870 N877 1.356 . S
C871 C870 1.363 . S
C871 C874 1.363 . S
N872 C874 1.356 . S
N872 H884 0.984 . S
N872 H885 0.985 . S
N873 C875 1.356 . S
N873 H878 0.984 . S
N873 H879 0.985 . S
C874 C868 1.379 . S
C874 C871 1.363 . S
C874 N872 1.356 . S
C875 C869 1.363 . S
C875 C870 1.379 . S
C875 N873 1.356 . S
N876 C868 1.356 . S
N876 H882 0.984 . S
N876 H883 0.984 . S
N877 C870 1.356 . S
N877 H880 0.984 . S
N877 H881 0.985 . S
H878 N873 0.984 . S
H879 N873 0.985 . S
H880 N877 0.984 . S
H881 N877 0.985 . S
H882 N876 0.984 . S
H883 N876 0.984 . S
H884 N872 0.984 . S
H885 N872 0.985 . S
C886 C887 1.363 . S
C886 C892 1.379 . S
C886 N894 1.356 . S
C887 C886 1.363 . S
C887 C893 1.363 . S
C888 C889 1.363 . S
C888 C893 1.379 . S
C888 N895 1.356 . S
C889 C888 1.363 . S
C889 C892 1.363 . S
N890 C892 1.356 . S
N890 H902 0.984 . S
N890 H903 0.985 . S
N891 C893 1.356 . S
N891 H896 0.984 . S
N891 H897 0.985 . S
C892 C886 1.379 . S
C892 C889 1.363 . S
C892 N890 1.356 . S
C893 C887 1.363 . S
C893 C888 1.379 . S
C893 N891 1.356 . S
N894 C886 1.356 . S
N894 H900 0.984 . S
N894 H901 0.984 . S
N895 C888 1.356 . S
N895 H898 0.984 . S
N895 H899 0.985 . S
H896 N891 0.984 . S
H897 N891 0.985 . S
H898 N895 0.984 . S
H899 N895 0.985 . S
H900 N894 0.984 . S
H901 N894 0.984 . S
H902 N890 0.984 . S
H903 N890 0.985 . S
C904 C905 1.363 . S
C904 C910 1.379 . S
C904 N912 1.356 . S
C905 C904 1.363 . S
C905 C911 1.363 . S
C906 C907 1.363 . S
C906 C911 1.379 . S
C906 N913 1.356 . S
C907 C906 1.363 . S
C907 C910 1.363 . S
N908 C910 1.356 . S
N908 H920 0.984 . S
N908 H921 0.985 . S
N909 C911 1.356 . S
N909 H914 0.984 . S
N909 H915 0.985 . S
C910 C904 1.379 . S
C910 C907 1.363 . S
C910 N908 1.356 . S
C911 C905 1.363 . S
C911 C906 1.379 . S
C911 N909 1.356 . S
N912 C904 1.356 . S
N912 H918 0.984 . S
N912 H919 0.984 . S
N913 C906 1.356 . S
N913 H916 0.984 . S
N913 H917 0.985 . S
H914 N909 0.984 . S
H915 N909 0.985 . S
H916 N913 0.984 . S
H917 N913 0.985 . S
H918 N912 0.984 . S
H919 N912 0.984 . S
H920 N908 0.984 . S
H921 N908 0.985 . S
C922 C923 1.363 . S
C922 C928 1.379 . S
C922 N930 1.356 . S
C923 C922 1.363 . S
C923 C929 1.363 . S
C924 C925 1.363 . S
C924 C929 1.379 . S
C924 N931 1.356 . S
C925 C924 1.363 . S
C925 C928 1.363 . S
N926 C928 1.356 . S
N926 H938 0.984 . S
N926 H939 0.985 . S
N927 C929 1.356 . S
N927 H932 0.984 . S
N927 H933 0.985 . S
C928 C922 1.379 . S
C928 C925 1.363 . S
C928 N926 1.356 . S
C929 C923 1.363 . S
C929 C924 1.379 . S
C929 N927 1.356 . S
N930 C922 1.356 . S
N930 H936 0.984 . S
N930 H937 0.984 . S
N931 C924 1.356 . S
N931 H934 0.984 . S
N931 H935 0.985 . S
H932 N927 0.984 . S
H933 N927 0.985 . S
H934 N931 0.984 . S
H935 N931 0.985 . S
H936 N930 0.984 . S
H937 N930 0.984 . S
H938 N926 0.984 . S
H939 N926 0.985 . S
C940 C941 1.363 . S
C940 C946 1.379 . S
C940 N948 1.356 . S
C941 C940 1.363 . S
C941 C947 1.363 . S
C942 C943 1.363 . S
C942 C947 1.379 . S
C942 N949 1.356 . S
C943 C942 1.363 . S
C943 C946 1.363 . S
N944 C946 1.356 . S
N944 H956 0.984 . S
N944 H957 0.985 . S
N945 C947 1.356 . S
N945 H950 0.984 . S
N945 H951 0.985 . S
C946 C940 1.379 . S
C946 C943 1.363 . S
C946 N944 1.356 . S
C947 C941 1.363 . S
C947 C942 1.379 . S
C947 N945 1.356 . S
N948 C940 1.356 . S
N948 H954 0.984 . S
N948 H955 0.984 . S
N949 C942 1.356 . S
N949 H952 0.984 . S
N949 H953 0.985 . S
H950 N945 0.984 . S
H951 N945 0.985 . S
H952 N949 0.984 . S
H953 N949 0.985 . S
H954 N948 0.984 . S
H955 N948 0.984 . S
H956 N944 0.984 . S
H957 N944 0.985 . S
C958 C959 1.363 . S
C958 C964 1.379 . S
C958 N966 1.356 . S
C959 C958 1.363 . S
C959 C965 1.363 . S
C960 C961 1.363 . S
C960 C965 1.379 . S
C960 N967 1.356 . S
C961 C960 1.363 . S
C961 C964 1.363 . S
N962 C964 1.356 . S
N962 H974 0.984 . S
N962 H975 0.985 . S
N963 C965 1.356 . S
N963 H968 0.984 . S
N963 H969 0.985 . S
C964 C958 1.379 . S
C964 C961 1.363 . S
C964 N962 1.356 . S
C965 C959 1.363 . S
C965 C960 1.379 . S
C965 N963 1.356 . S
N966 C958 1.356 . S
N966 H972 0.984 . S
N966 H973 0.984 . S
N967 C960 1.356 . S
N967 H970 0.984 . S
N967 H971 0.985 . S
H968 N963 0.984 . S
H969 N963 0.985 . S
H970 N967 0.984 . S
H971 N967 0.985 . S
H972 N966 0.984 . S
H973 N966 0.984 . S
H974 N962 0.984 . S
H975 N962 0.985 . S
C976 C977 1.363 . S
C976 C982 1.379 . S
C976 N984 1.356 . S
C977 C976 1.363 . S
C977 C983 1.363 . S
C978 C979 1.363 . S
C978 C983 1.379 . S
C978 N985 1.356 . S
C979 C978 1.363 . S
C979 C982 1.363 . S
N980 C982 1.356 . S
N980 H992 0.984 . S
N980 H993 0.985 . S
N981 C983 1.356 . S
N981 H986 0.984 . S
N981 H987 0.985 . S
C982 C976 1.379 . S
C982 C979 1.363 . S
C982 N980 1.356 . S
C983 C977 1.363 . S
C983 C978 1.379 . S
C983 N981 1.356 . S
N984 C976 1.356 . S
N984 H990 0.984 . S
N984 H991 0.984 . S
N985 C978 1.356 . S
N985 H988 0.984 . S
N985 H989 0.985 . S
H986 N981 0.984 . S
H987 N981 0.985 . S
H988 N985 0.984 . S
H989 N985 0.985 . S
H990 N984 0.984 . S
H991 N984 0.984 . S
H992 N980 0.984 . S
H993 N980 0.985 . S
C994 C995 1.363 . S
C994 C1000 1.379 . S
C994 N1002 1.356 . S
C995 C994 1.363 . S
C995 C1001 1.363 . S
C996 C997 1.363 . S
C996 C1001 1.379 . S
C996 N1003 1.356 . S
C997 C996 1.363 . S
C997 C1000 1.363 . S
N998 C1000 1.356 . S
N998 H1010 0.984 . S
N998 H1011 0.985 . S
N999 C1001 1.356 . S
N999 H1004 0.984 . S
N999 H1005 0.985 . S
C1000 C994 1.379 . S
C1000 C997 1.363 . S
C1000 N998 1.356 . S
C1001 C995 1.363 . S
C1001 C996 1.379 . S
C1001 N999 1.356 . S
N1002 C994 1.356 . S
N1002 H1008 0.984 . S
N1002 H1009 0.984 . S
N1003 C996 1.356 . S
N1003 H1006 0.984 . S
N1003 H1007 0.985 . S
H1004 N999 0.984 . S
H1005 N999 0.985 . S
H1006 N1003 0.984 . S
H1007 N1003 0.985 . S
H1008 N1002 0.984 . S
H1009 N1002 0.984 . S
H1010 N998 0.984 . S
H1011 N998 0.985 . S
C1012 C1013 1.363 . S
C1012 C1018 1.379 . S
C1012 N1020 1.356 . S
C1013 C1012 1.363 . S
C1013 C1019 1.363 . S
C1014 C1015 1.363 . S
C1014 C1019 1.379 . S
C1014 N1021 1.356 . S
C1015 C1014 1.363 . S
C1015 C1018 1.363 . S
N1016 C1018 1.356 . S
N1016 H1028 0.984 . S
N1016 H1029 0.985 . S
N1017 C1019 1.356 . S
N1017 H1022 0.984 . S
N1017 H1023 0.985 . S
C1018 C1012 1.379 . S
C1018 C1015 1.363 . S
C1018 N1016 1.356 . S
C1019 C1013 1.363 . S
C1019 C1014 1.379 . S
C1019 N1017 1.356 . S
N1020 C1012 1.356 . S
N1020 H1026 0.984 . S
N1020 H1027 0.984 . S
N1021 C1014 1.356 . S
N1021 H1024 0.984 . S
N1021 H1025 0.985 . S
H1022 N1017 0.984 . S
H1023 N1017 0.985 . S
H1024 N1021 0.984 . S
H1025 N1021 0.985 . S
H1026 N1020 0.984 . S
H1027 N1020 0.984 . S
H1028 N1016 0.984 . S
H1029 N1016 0.985 . S
C1030 C1031 1.363 . S
C1030 C1036 1.379 . S
C1030 N1038 1.356 . S
C1031 C1030 1.363 . S
C1031 C1037 1.363 . S
C1032 C1033 1.363 . S
C1032 C1037 1.379 . S
C1032 N1039 1.356 . S
C1033 C1032 1.363 . S
C1033 C1036 1.363 . S
N1034 C1036 1.356 . S
N1034 H1046 0.984 . S
N1034 H1047 0.985 . S
N1035 C1037 1.356 . S
N1035 H1040 0.984 . S
N1035 H1041 0.985 . S
C1036 C1030 1.379 . S
C1036 C1033 1.363 . S
C1036 N1034 1.356 . S
C1037 C1031 1.363 . S
C1037 C1032 1.379 . S
C1037 N1035 1.356 . S
N1038 C1030 1.356 . S
N1038 H1044 0.984 . S
N1038 H1045 0.984 . S
N1039 C1032 1.356 . S
N1039 H1042 0.984 . S
N1039 H1043 0.985 . S
H1040 N1035 0.984 . S
H1041 N1035 0.985 . S
H1042 N1039 0.984 . S
H1043 N1039 0.985 . S
H1044 N1038 0.984 . S
H1045 N1038 0.984 . S
H1046 N1034 0.984 . S
H1047 N1034 0.985 . S
C1048 C1049 1.363 . S
C1048 C1054 1.379 . S
C1048 N1056 1.356 . S
C1049 C1048 1.363 . S
C1049 C1055 1.363 . S
C1050 C1051 1.363 . S
C1050 C1055 1.379 . S
C1050 N1057 1.356 . S
C1051 C1050 1.363 . S
C1051 C1054 1.363 . S
N1052 C1054 1.356 . S
N1052 H1064 0.984 . S
N1052 H1065 0.985 . S
N1053 C1055 1.356 . S
N1053 H1058 0.984 . S
N1053 H1059 0.985 . S
C1054 C1048 1.379 . S
C1054 C1051 1.363 . S
C1054 N1052 1.356 . S
C1055 C1049 1.363 . S
C1055 C1050 1.379 . S
C1055 N1053 1.356 . S
N1056 C1048 1.356 . S
N1056 H1062 0.984 . S
N1056 H1063 0.984 . S
N1057 C1050 1.356 . S
N1057 H1060 0.984 . S
N1057 H1061 0.985 . S
H1058 N1053 0.984 . S
H1059 N1053 0.985 . S
H1060 N1057 0.984 . S
H1061 N1057 0.985 . S
H1062 N1056 0.984 . S
H1063 N1056 0.984 . S
H1064 N1052 0.984 . S
H1065 N1052 0.985 . S
C1066 C1067 1.363 . S
C1066 C1072 1.379 . S
C1066 N1074 1.356 . S
C1067 C1066 1.363 . S
C1067 C1073 1.363 . S
C1068 C1069 1.363 . S
C1068 C1073 1.379 . S
C1068 N1075 1.356 . S
C1069 C1068 1.363 . S
C1069 C1072 1.363 . S
N1070 C1072 1.356 . S
N1070 H1082 0.984 . S
N1070 H1083 0.985 . S
N1071 C1073 1.356 . S
N1071 H1076 0.984 . S
N1071 H1077 0.985 . S
C1072 C1066 1.379 . S
C1072 C1069 1.363 . S
C1072 N1070 1.356 . S
C1073 C1067 1.363 . S
C1073 C1068 1.379 . S
C1073 N1071 1.356 . S
N1074 C1066 1.356 . S
N1074 H1080 0.984 . S
N1074 H1081 0.984 . S
N1075 C1068 1.356 . S
N1075 H1078 0.984 . S
N1075 H1079 0.985 . S
H1076 N1071 0.984 . S
H1077 N1071 0.985 . S
H1078 N1075 0.984 . S
H1079 N1075 0.985 . S
H1080 N1074 0.984 . S
H1081 N1074 0.984 . S
H1082 N1070 0.984 . S
H1083 N1070 0.985 . S
C1084 C1085 1.363 . S
C1084 C1090 1.379 . S
C1084 N1092 1.356 . S
C1085 C1084 1.363 . S
C1085 C1091 1.363 . S
C1086 C1087 1.363 . S
C1086 C1091 1.379 . S
C1086 N1093 1.356 . S
C1087 C1086 1.363 . S
C1087 C1090 1.363 . S
N1088 C1090 1.356 . S
N1088 H1100 0.984 . S
N1088 H1101 0.985 . S
N1089 C1091 1.356 . S
N1089 H1094 0.984 . S
N1089 H1095 0.985 . S
C1090 C1084 1.379 . S
C1090 C1087 1.363 . S
C1090 N1088 1.356 . S
C1091 C1085 1.363 . S
C1091 C1086 1.379 . S
C1091 N1089 1.356 . S
N1092 C1084 1.356 . S
N1092 H1098 0.984 . S
N1092 H1099 0.984 . S
N1093 C1086 1.356 . S
N1093 H1096 0.984 . S
N1093 H1097 0.985 . S
H1094 N1089 0.984 . S
H1095 N1089 0.985 . S
H1096 N1093 0.984 . S
H1097 N1093 0.985 . S
H1098 N1092 0.984 . S
H1099 N1092 0.984 . S
H1100 N1088 0.984 . S
H1101 N1088 0.985 . S
C1102 C1103 1.363 . S
C1102 C1108 1.379 . S
C1102 N1110 1.356 . S
C1103 C1102 1.363 . S
C1103 C1109 1.363 . S
C1104 C1105 1.363 . S
C1104 C1109 1.379 . S
C1104 N1111 1.356 . S
C1105 C1104 1.363 . S
C1105 C1108 1.363 . S
N1106 C1108 1.356 . S
N1106 H1118 0.984 . S
N1106 H1119 0.985 . S
N1107 C1109 1.356 . S
N1107 H1112 0.984 . S
N1107 H1113 0.985 . S
C1108 C1102 1.379 . S
C1108 C1105 1.363 . S
C1108 N1106 1.356 . S
C1109 C1103 1.363 . S
C1109 C1104 1.379 . S
C1109 N1107 1.356 . S
N1110 C1102 1.356 . S
N1110 H1116 0.984 . S
N1110 H1117 0.984 . S
N1111 C1104 1.356 . S
N1111 H1114 0.984 . S
N1111 H1115 0.985 . S
H1112 N1107 0.984 . S
H1113 N1107 0.985 . S
H1114 N1111 0.984 . S
H1115 N1111 0.985 . S
H1116 N1110 0.984 . S
H1117 N1110 0.984 . S
H1118 N1106 0.984 . S
H1119 N1106 0.985 . S
C1120 C1121 1.363 . S
C1120 C1126 1.379 . S
C1120 N1128 1.356 . S
C1121 C1120 1.363 . S
C1121 C1127 1.363 . S
C1122 C1123 1.363 . S
C1122 C1127 1.379 . S
C1122 N1129 1.356 . S
C1123 C1122 1.363 . S
C1123 C1126 1.363 . S
N1124 C1126 1.356 . S
N1124 H1136 0.984 . S
N1124 H1137 0.985 . S
N1125 C1127 1.356 . S
N1125 H1130 0.984 . S
N1125 H1131 0.985 . S
C1126 C1120 1.379 . S
C1126 C1123 1.363 . S
C1126 N1124 1.356 . S
C1127 C1121 1.363 . S
C1127 C1122 1.379 . S
C1127 N1125 1.356 . S
N1128 C1120 1.356 . S
N1128 H1134 0.984 . S
N1128 H1135 0.984 . S
N1129 C1122 1.356 . S
N1129 H1132 0.984 . S
N1129 H1133 0.985 . S
H1130 N1125 0.984 . S
H1131 N1125 0.985 . S
H1132 N1129 0.984 . S
H1133 N1129 0.985 . S
H1134 N1128 0.984 . S
H1135 N1128 0.984 . S
H1136 N1124 0.984 . S
H1137 N1124 0.985 . S
C1138 C1139 1.363 . S
C1138 C1144 1.379 . S
C1138 N1146 1.356 . S
C1139 C1138 1.363 . S
C1139 C1145 1.363 . S
C1140 C1141 1.363 . S
C1140 C1145 1.379 . S
C1140 N1147 1.356 . S
C1141 C1140 1.363 . S
C1141 C1144 1.363 . S
N1142 C1144 1.356 . S
N1142 H1154 0.984 . S
N1142 H1155 0.985 . S
N1143 C1145 1.356 . S
N1143 H1148 0.984 . S
N1143 H1149 0.985 . S
C1144 C1138 1.379 . S
C1144 C1141 1.363 . S
C1144 N1142 1.356 . S
C1145 C1139 1.363 . S
C1145 C1140 1.379 . S
C1145 N1143 1.356 . S
N1146 C1138 1.356 . S
N1146 H1152 0.984 . S
N1146 H1153 0.984 . S
N1147 C1140 1.356 . S
N1147 H1150 0.984 . S
N1147 H1151 0.985 . S
H1148 N1143 0.984 . S
H1149 N1143 0.985 . S
H1150 N1147 0.984 . S
H1151 N1147 0.985 . S
H1152 N1146 0.984 . S
H1153 N1146 0.984 . S
H1154 N1142 0.984 . S
H1155 N1142 0.985 . S
C1156 C1157 1.363 . S
C1156 C1162 1.379 . S
C1156 N1164 1.356 . S
C1157 C1156 1.363 . S
C1157 C1163 1.363 . S
C1158 C1159 1.363 . S
C1158 C1163 1.379 . S
C1158 N1165 1.356 . S
C1159 C1158 1.363 . S
C1159 C1162 1.363 . S
N1160 C1162 1.356 . S
N1160 H1172 0.984 . S
N1160 H1173 0.985 . S
N1161 C1163 1.356 . S
N1161 H1166 0.984 . S
N1161 H1167 0.985 . S
C1162 C1156 1.379 . S
C1162 C1159 1.363 . S
C1162 N1160 1.356 . S
C1163 C1157 1.363 . S
C1163 C1158 1.379 . S
C1163 N1161 1.356 . S
N1164 C1156 1.356 . S
N1164 H1170 0.984 . S
N1164 H1171 0.984 . S
N1165 C1158 1.356 . S
N1165 H1168 0.984 . S
N1165 H1169 0.985 . S
H1166 N1161 0.984 . S
H1167 N1161 0.985 . S
H1168 N1165 0.984 . S
H1169 N1165 0.985 . S
H1170 N1164 0.984 . S
H1171 N1164 0.984 . S
H1172 N1160 0.984 . S
H1173 N1160 0.985 . S
C1174 C1175 1.363 . S
C1174 C1180 1.379 . S
C1174 N1182 1.356 . S
C1175 C1174 1.363 . S
C1175 C1181 1.363 . S
C1176 C1177 1.363 . S
C1176 C1181 1.379 . S
C1176 N1183 1.356 . S
C1177 C1176 1.363 . S
C1177 C1180 1.363 . S
N1178 C1180 1.356 . S
N1178 H1190 0.984 . S
N1178 H1191 0.985 . S
N1179 C1181 1.356 . S
N1179 H1184 0.984 . S
N1179 H1185 0.985 . S
C1180 C1174 1.379 . S
C1180 C1177 1.363 . S
C1180 N1178 1.356 . S
C1181 C1175 1.363 . S
C1181 C1176 1.379 . S
C1181 N1179 1.356 . S
N1182 C1174 1.356 . S
N1182 H1188 0.984 . S
N1182 H1189 0.984 . S
N1183 C1176 1.356 . S
N1183 H1186 0.984 . S
N1183 H1187 0.985 . S
H1184 N1179 0.984 . S
H1185 N1179 0.985 . S
H1186 N1183 0.984 . S
H1187 N1183 0.985 . S
H1188 N1182 0.984 . S
H1189 N1182 0.984 . S
H1190 N1178 0.984 . S
H1191 N1178 0.985 . S
C1192 C1193 1.363 . S
C1192 C1198 1.379 . S
C1192 N1200 1.356 . S
C1193 C1192 1.363 . S
C1193 C1199 1.363 . S
C1194 C1195 1.363 . S
C1194 C1199 1.379 . S
C1194 N1201 1.356 . S
C1195 C1194 1.363 . S
C1195 C1198 1.363 . S
N1196 C1198 1.356 . S
N1196 H1208 0.984 . S
N1196 H1209 0.985 . S
N1197 C1199 1.356 . S
N1197 H1202 0.984 . S
N1197 H1203 0.985 . S
C1198 C1192 1.379 . S
C1198 C1195 1.363 . S
C1198 N1196 1.356 . S
C1199 C1193 1.363 . S
C1199 C1194 1.379 . S
C1199 N1197 1.356 . S
N1200 C1192 1.356 . S
N1200 H1206 0.984 . S
N1200 H1207 0.984 . S
N1201 C1194 1.356 . S
N1201 H1204 0.984 . S
N1201 H1205 0.985 . S
H1202 N1197 0.984 . S
H1203 N1197 0.985 . S
H1204 N1201 0.984 . S
H1205 N1201 0.985 . S
H1206 N1200 0.984 . S
H1207 N1200 0.984 . S
H1208 N1196 0.984 . S
H1209 N1196 0.985 . S
C1210 C1211 1.363 . S
C1210 C1216 1.379 . S
C1210 N1218 1.356 . S
C1211 C1210 1.363 . S
C1211 C1217 1.363 . S
C1212 C1213 1.363 . S
C1212 C1217 1.379 . S
C1212 N1219 1.356 . S
C1213 C1212 1.363 . S
C1213 C1216 1.363 . S
N1214 C1216 1.356 . S
N1214 H1226 0.984 . S
N1214 H1227 0.985 . S
N1215 C1217 1.356 . S
N1215 H1220 0.984 . S
N1215 H1221 0.985 . S
C1216 C1210 1.379 . S
C1216 C1213 1.363 . S
C1216 N1214 1.356 . S
C1217 C1211 1.363 . S
C1217 C1212 1.379 . S
C1217 N1215 1.356 . S
N1218 C1210 1.356 . S
N1218 H1224 0.984 . S
N1218 H1225 0.984 . S
N1219 C1212 1.356 . S
N1219 H1222 0.984 . S
N1219 H1223 0.985 . S
H1220 N1215 0.984 . S
H1221 N1215 0.985 . S
H1222 N1219 0.984 . S
H1223 N1219 0.985 . S
H1224 N1218 0.984 . S
H1225 N1218 0.984 . S
H1226 N1214 0.984 . S
H1227 N1214 0.985 . S
C1228 C1229 1.363 . S
C1228 C1234 1.379 . S
C1228 N1236 1.356 . S
C1229 C1228 1.363 . S
C1229 C1235 1.363 . S
C1230 C1231 1.363 . S
C1230 C1235 1.379 . S
C1230 N1237 1.356 . S
C1231 C1230 1.363 . S
C1231 C1234 1.363 . S
N1232 C1234 1.356 . S
N1232 H1244 0.984 . S
N1232 H1245 0.985 . S
N1233 C1235 1.356 . S
N1233 H1238 0.984 . S
N1233 H1239 0.985 . S
C1234 C1228 1.379 . S
C1234 C1231 1.363 . S
C1234 N1232 1.356 . S
C1235 C1229 1.363 . S
C1235 C1230 1.379 . S
C1235 N1233 1.356 . S
N1236 C1228 1.356 . S
N1236 H1242 0.984 . S
N1236 H1243 0.984 . S
N1237 C1230 1.356 . S
N1237 H1240 0.984 . S
N1237 H1241 0.985 . S
H1238 N1233 0.984 . S
H1239 N1233 0.985 . S
H1240 N1237 0.984 . S
H1241 N1237 0.985 . S
H1242 N1236 0.984 . S
H1243 N1236 0.984 . S
H1244 N1232 0.984 . S
H1245 N1232 0.985 . S
C1246 C1247 1.363 . S
C1246 C1252 1.379 . S
C1246 N1254 1.356 . S
C1247 C1246 1.363 . S
C1247 C1253 1.363 . S
C1248 C1249 1.363 . S
C1248 C1253 1.379 . S
C1248 N1255 1.356 . S
C1249 C1248 1.363 . S
C1249 C1252 1.363 . S
N1250 C1252 1.356 . S
N1250 H1262 0.984 . S
N1250 H1263 0.985 . S
N1251 C1253 1.356 . S
N1251 H1256 0.984 . S
N1251 H1257 0.985 . S
C1252 C1246 1.379 . S
C1252 C1249 1.363 . S
C1252 N1250 1.356 . S
C1253 C1247 1.363 . S
C1253 C1248 1.379 . S
C1253 N1251 1.356 . S
N1254 C1246 1.356 . S
N1254 H1260 0.984 . S
N1254 H1261 0.984 . S
N1255 C1248 1.356 . S
N1255 H1258 0.984 . S
N1255 H1259 0.985 . S
H1256 N1251 0.984 . S
H1257 N1251 0.985 . S
H1258 N1255 0.984 . S
H1259 N1255 0.985 . S
H1260 N1254 0.984 . S
H1261 N1254 0.984 . S
H1262 N1250 0.984 . S
H1263 N1250 0.985 . S
C1264 C1265 1.363 . S
C1264 C1270 1.379 . S
C1264 N1272 1.356 . S
C1265 C1264 1.363 . S
C1265 C1271 1.363 . S
C1266 C1267 1.363 . S
C1266 C1271 1.379 . S
C1266 N1273 1.356 . S
C1267 C1266 1.363 . S
C1267 C1270 1.363 . S
N1268 C1270 1.356 . S
N1268 H1280 0.984 . S
N1268 H1281 0.985 . S
N1269 C1271 1.356 . S
N1269 H1274 0.984 . S
N1269 H1275 0.985 . S
C1270 C1264 1.379 . S
C1270 C1267 1.363 . S
C1270 N1268 1.356 . S
C1271 C1265 1.363 . S
C1271 C1266 1.379 . S
C1271 N1269 1.356 . S
N1272 C1264 1.356 . S
N1272 H1278 0.984 . S
N1272 H1279 0.984 . S
N1273 C1266 1.356 . S
N1273 H1276 0.984 . S
N1273 H1277 0.985 . S
H1274 N1269 0.984 . S
H1275 N1269 0.985 . S
H1276 N1273 0.984 . S
H1277 N1273 0.985 . S
H1278 N1272 0.984 . S
H1279 N1272 0.984 . S
H1280 N1268 0.984 . S
H1281 N1268 0.985 . S
C1282 C1283 1.363 . S
C1282 C1288 1.379 . S
C1282 N1290 1.356 . S
C1283 C1282 1.363 . S
C1283 C1289 1.363 . S
C1284 C1285 1.363 . S
C1284 C1289 1.379 . S
C1284 N1291 1.356 . S
C1285 C1284 1.363 . S
C1285 C1288 1.363 . S
N1286 C1288 1.356 . S
N1286 H1298 0.984 . S
N1286 H1299 0.985 . S
N1287 C1289 1.356 . S
N1287 H1292 0.984 . S
N1287 H1293 0.985 . S
C1288 C1282 1.379 . S
C1288 C1285 1.363 . S
C1288 N1286 1.356 . S
C1289 C1283 1.363 . S
C1289 C1284 1.379 . S
C1289 N1287 1.356 . S
N1290 C1282 1.356 . S
N1290 H1296 0.984 . S
N1290 H1297 0.984 . S
N1291 C1284 1.356 . S
N1291 H1294 0.984 . S
N1291 H1295 0.985 . S
H1292 N1287 0.984 . S
H1293 N1287 0.985 . S
H1294 N1291 0.984 . S
H1295 N1291 0.985 . S
H1296 N1290 0.984 . S
H1297 N1290 0.984 . S
H1298 N1286 0.984 . S
H1299 N1286 0.985 . S
C439 C288 1.714 . S
C437 N2 1.684 . S
C457 C315 2.243 . S
C455 C7 2.232 . S
C475 C325 1.766 . S
C473 N12 1.603 . S
C491 C16 1.954 . S
C493 C355 1.994 . S
C511 C374 2.115 . S
C509 C30 2.098 . S
C529 C385 1.569 . S
C527 N35 1.524 . S
C545 C39 2.293 . S
C547 C414 2.291 . S
C565 C428 1.534 . S
C563 N25 1.436 . S
C583 C280 1.293 . S
C581 N58 1.167 . S
C599 N81 1.593 . S
C601 C308 1.708 . S
C619 C334 1.693 . S
C617 N104 1.542 . S
C635 N127 1.191 . S
C637 C348 1.313 . S
C655 C358 1.025 . S
C653 N48 1.017 . S
C673 C394 1.847 . S
C671 N71 1.807 . S
C689 N94 1.452 . S
C691 C398 1.460 . S
C709 C420 1.389 . S
C707 N117 1.352 . S
C725 C85 2.205 . S
C727 C295 2.261 . S
C743 C122 1.350 . S
C745 C365 1.357 . S
C761 C53 1.616 . S
C763 C378 1.578 . S
C781 C405 1.939 . S
C779 C76 1.926 . S
C799 C435 2.132 . S
C797 C99 2.096 . S
C817 C318 1.635 . S
C815 C131 1.674 . S
C835 C340 1.021 . S
C833 C62 1.021 . S
C851 C108 1.616 . S
C853 C300 1.637 . S
C871 C425 1.853 . S
C869 N140 1.795 . S
C887 C145 2.027 . S
C889 C375 2.030 . S
C907 C388 1.631 . S
C905 N150 1.519 . S
C923 C154 2.153 . S
C925 C415 2.201 . S
C943 C314 2.311 . S
C941 C168 2.290 . S
C959 N173 1.412 . S
C961 C328 1.445 . S
C979 C354 2.075 . S
C977 C177 2.084 . S
C997 C285 1.652 . S
C995 N163 1.530 . S
C1015 C434 2.146 . S
C1013 C200 2.130 . S
C1033 C368 1.525 . S
C1031 N219 1.391 . S
C1049 N242 1.341 . S
C1051 C380 1.454 . S
C1069 C408 2.025 . S
C1067 C269 2.003 . S
C1087 C298 1.777 . S
C1085 C191 1.735 . S
C1103 N209 1.542 . S
C1105 C320 1.566 . S
C1121 N232 1.233 . S
C1123 C338 1.243 . S
C1139 C260 2.288 . S
C1141 C294 2.319 . S
C1157 C223 1.437 . S
C1159 C418 1.426 . S
C1175 N255 1.469 . S
C1177 C305 1.561 . S
C1193 N186 1.507 . S
C1195 C335 1.636 . S
C1213 C345 1.076 . S
C1211 C214 1.071 . S
C1231 C278 1.379 . S
C1229 C237 1.392 . S
C1249 C395 1.769 . S
C1247 N265 1.663 . S
C1267 C400 1.272 . S
C1265 N196 1.258 . S
C1285 C360 0.738 . S
C1283 C246 0.738 . S
