# Generated by pormake.
# Topology pyr, (3,6)-cn, num edge types: 1
# Building blocks:
#     Node 0, Type 0, BuildingBlock: WUSLED_clean_sbu_0, # of connection points: 3
#     Node 1, Type 0, BuildingBlock: WUSLED_clean_sbu_0, # of connection points: 3
#     Node 2, Type 0, BuildingBlock: WUSLED_clean_sbu_0, # of connection points: 3
#     Node 3, Type 0, BuildingBlock: WUSLED_clean_sbu_0, # of connection points: 3
#     Node 4, Type 0, BuildingBlock: WUSLED_clean_sbu_0, # of connection points: 3
#     Node 5, Type 0, BuildingBlock: WUSLED_clean_sbu_0, # of connection points: 3
#     Node 6, Type 0, BuildingBlock: WUSLED_clean_sbu_0, # of connection points: 3
#     Node 7, Type 0, BuildingBlock: WUSLED_clean_sbu_0, # of connection points: 3
#     Node 8, Type 1, BuildingBlock: JUFBIX_clean_sbu_0, # of connection points: 6
#     Node 9, Type 1, BuildingBlock: JUFBIX_clean_sbu_0, # of connection points: 6
#     Node 10, Type 1, BuildingBlock: JUFBIX_clean_sbu_0, # of connection points: 6
#     Node 11, Type 1, BuildingBlock: JUFBIX_clean_sbu_0, # of connection points: 6
#     Edge 12, Type (0, 1), BuildingBlock: CIFDUS_clean_linker_0, # of connection points: 2
#     Edge 13, Type (0, 1), BuildingBlock: CIFDUS_clean_linker_0, # of connection points: 2
#     Edge 14, Type (0, 1), BuildingBlock: CIFDUS_clean_linker_0, # of connection points: 2
#     Edge 15, Type (0, 1), BuildingBlock: CIFDUS_clean_linker_0, # of connection points: 2
#     Edge 16, Type (0, 1), BuildingBlock: CIFDUS_clean_linker_0, # of connection points: 2
#     Edge 17, Type (0, 1), BuildingBlock: CIFDUS_clean_linker_0, # of connection points: 2
#     Edge 18, Type (0, 1), BuildingBlock: CIFDUS_clean_linker_0, # of connection points: 2
#     Edge 19, Type (0, 1), BuildingBlock: CIFDUS_clean_linker_0, # of connection points: 2
#     Edge 20, Type (0, 1), BuildingBlock: CIFDUS_clean_linker_0, # of connection points: 2
#     Edge 21, Type (0, 1), BuildingBlock: CIFDUS_clean_linker_0, # of connection points: 2
#     Edge 22, Type (0, 1), BuildingBlock: CIFDUS_clean_linker_0, # of connection points: 2
#     Edge 23, Type (0, 1), BuildingBlock: CIFDUS_clean_linker_0, # of connection points: 2
#     Edge 24, Type (0, 1), BuildingBlock: CIFDUS_clean_linker_0, # of connection points: 2
#     Edge 25, Type (0, 1), BuildingBlock: CIFDUS_clean_linker_0, # of connection points: 2
#     Edge 26, Type (0, 1), BuildingBlock: CIFDUS_clean_linker_0, # of connection points: 2
#     Edge 27, Type (0, 1), BuildingBlock: CIFDUS_clean_linker_0, # of connection points: 2
#     Edge 28, Type (0, 1), BuildingBlock: CIFDUS_clean_linker_0, # of connection points: 2
#     Edge 29, Type (0, 1), BuildingBlock: CIFDUS_clean_linker_0, # of connection points: 2
#     Edge 30, Type (0, 1), BuildingBlock: CIFDUS_clean_linker_0, # of connection points: 2
#     Edge 31, Type (0, 1), BuildingBlock: CIFDUS_clean_linker_0, # of connection points: 2
#     Edge 32, Type (0, 1), BuildingBlock: CIFDUS_clean_linker_0, # of connection points: 2
#     Edge 33, Type (0, 1), BuildingBlock: CIFDUS_clean_linker_0, # of connection points: 2
#     Edge 34, Type (0, 1), BuildingBlock: CIFDUS_clean_linker_0, # of connection points: 2
#     Edge 35, Type (0, 1), BuildingBlock: CIFDUS_clean_linker_0, # of connection points: 2
# Relax obj value: 0.046
# Max RMSD: 0.092
# Mean RMSD: 0.031
data_MOF--net-pry--node1-WUSLED_clean_sbu_0--node2-JUFBIX_clean_sbu_0--edge1-CIFDUS_clean_linker_0
_symmetry_space_group_name_H-M    P1
_symmetry_Int_Tables_number       1
_symmetry_cell_setting            triclinic
loop_
_symmetry_equiv_pos_as_xyz
'x, y, z'
_cell_length_a     43.795258
_cell_length_b     42.098054
_cell_length_c     43.606249
_cell_angle_alpha  84.219426
_cell_angle_beta   90.382821
_cell_angle_gamma 92.631401
loop_
_atom_site_label
_atom_site_type_symbol
_atom_site_fract_x
_atom_site_fract_y
_atom_site_fract_z
_atom_type_partial_charge
C0 C 0.12551 0.21579 0.10789 0.0
C1 C 0.10171 0.22353 0.12701 0.0
C2 C 0.09455 0.27492 0.09506 0.0
C3 C 0.08642 0.25253 0.12063 0.0
C4 C 0.1177 0.2662 0.07557 0.0
C5 C 0.13272 0.23733 0.08185 0.0
U6 U 0.16269 0.13485 0.14837 0.0
O7 O 0.18469 0.09907 0.12224 0.0
O8 O 0.21298 0.12891 0.15073 0.0
C9 C 0.21224 0.10559 0.13284 0.0
C10 C 0.14497 0.18718 0.11467 0.0
C11 C 0.24089 0.0966 0.1169 0.0
C12 C 0.27513 0.09582 0.07221 0.0
C13 C 0.24761 0.10501 0.08543 0.0
C14 C 0.2897 0.06941 0.12131 0.0
C15 C 0.297 0.07805 0.09 0.0
C16 C 0.26235 0.07844 0.13435 0.0
C17 C 0.11813 0.10099 0.22988 0.0
C18 C 0.11353 0.06312 0.27666 0.0
C19 C 0.08148 0.10838 0.27073 0.0
C20 C 0.09502 0.11832 0.2418 0.0
C21 C 0.0907 0.08078 0.28908 0.0
C22 C 0.12694 0.07302 0.24759 0.0
C23 C 0.1343 0.11326 0.20032 0.0
O24 O 0.16513 0.18739 0.13708 0.0
O25 O 0.13387 0.15822 0.11099 0.0
O26 O 0.1269 0.10315 0.17353 0.0
O27 O 0.15661 0.13528 0.19903 0.0
H28 H 0.09527 0.20749 0.14714 0.0
H29 H 0.06834 0.25745 0.13603 0.0
H30 H 0.12529 0.28225 0.05589 0.0
H31 H 0.15088 0.23224 0.06658 0.0
H32 H 0.27951 0.10322 0.04809 0.0
H33 H 0.23174 0.11886 0.07106 0.0
H34 H 0.30507 0.0552 0.13593 0.0
H35 H 0.25793 0.07104 0.15849 0.0
H36 H 0.12112 0.04148 0.2894 0.0
H37 H 0.06431 0.12305 0.27908 0.0
H38 H 0.08772 0.14001 0.22891 0.0
H39 H 0.14465 0.05901 0.23919 0.0
C40 C 0.34818 0.88193 0.59379 0.0
C41 C 0.33624 0.89822 0.61727 0.0
C42 C 0.29299 0.91272 0.58468 0.0
C43 C 0.3086 0.91334 0.6128 0.0
C44 C 0.30564 0.89773 0.56076 0.0
C45 C 0.33309 0.88229 0.56535 0.0
U46 U 0.41893 0.86359 0.64098 0.0
O47 O 0.43899 0.81837 0.65788 0.0
O48 O 0.46498 0.85301 0.6259 0.0
C49 C 0.46286 0.82374 0.63967 0.0
C50 C 0.37579 0.86377 0.59914 0.0
C51 C 0.46766 0.79821 0.61996 0.0
C52 C 0.44632 0.76002 0.5866 0.0
C53 C 0.44367 0.78761 0.60145 0.0
C54 C 0.49791 0.75493 0.60649 0.0
C55 C 0.47313 0.74295 0.58978 0.0
C56 C 0.4951 0.78234 0.62168 0.0
C57 C 0.43268 0.9133 0.70994 0.0
C58 C 0.47626 0.91119 0.74479 0.0
C59 C 0.43742 0.94967 0.7494 0.0
C60 C 0.42133 0.93803 0.72498 0.0
C61 C 0.46526 0.93677 0.75931 0.0
C62 C 0.4601 0.8996 0.72003 0.0
C63 C 0.41581 0.90347 0.68314 0.0
O64 O 0.40168 0.88063 0.59503 0.0
O65 O 0.37541 0.84371 0.62429 0.0
O66 O 0.40263 0.87465 0.68615 0.0
O67 O 0.42922 0.91097 0.65635 0.0
H68 H 0.34785 0.89847 0.63927 0.0
H69 H 0.29905 0.92486 0.63146 0.0
H70 H 0.29368 0.89695 0.539 0.0
H71 H 0.34215 0.86998 0.54699 0.0
H72 H 0.42707 0.75135 0.57358 0.0
H73 H 0.42238 0.79981 0.59971 0.0
H74 H 0.51876 0.74205 0.60935 0.0
H75 H 0.51381 0.7903 0.63582 0.0
H76 H 0.49749 0.90061 0.75223 0.0
H77 H 0.42788 0.9687 0.76075 0.0
H78 H 0.40005 0.94862 0.71762 0.0
H79 H 0.46906 0.88033 0.70861 0.0
C80 C 0.61976 0.42993 0.82424 0.0
C81 C 0.64094 0.452 0.80886 0.0
C82 C 0.60762 0.45812 0.76302 0.0
C83 C 0.63494 0.4659 0.77866 0.0
C84 C 0.58593 0.43717 0.77922 0.0
C85 C 0.59197 0.42328 0.80924 0.0
U86 U 0.66238 0.39867 0.90293 0.0
O87 O 0.63905 0.37396 0.94429 0.0
O88 O 0.66893 0.34755 0.91689 0.0
C89 C 0.65068 0.34629 0.9408 0.0
C90 C 0.62679 0.41049 0.85394 0.0
C91 C 0.63155 0.31624 0.9487 0.0
C92 C 0.59327 0.27439 0.93757 0.0
C93 C 0.609 0.30418 0.92916 0.0
C94 C 0.6222 0.2687 0.98499 0.0
C95 C 0.59968 0.25615 0.96574 0.0
C96 C 0.63771 0.29812 0.97665 0.0
C97 C 0.73896 0.44324 0.93168 0.0
C98 C 0.77152 0.43568 0.97779 0.0
C99 C 0.78861 0.4724 0.9346 0.0
C100 C 0.76141 0.46553 0.91872 0.0
C101 C 0.79427 0.45756 0.96431 0.0
C102 C 0.74427 0.42842 0.96159 0.0
C103 C 0.71088 0.4367 0.91282 0.0
O104 O 0.6507 0.39273 0.85451 0.0
O105 O 0.62239 0.42225 0.88032 0.0
O106 O 0.68372 0.43984 0.92458 0.0
O107 O 0.71121 0.41311 0.89528 0.0
H108 H 0.6625 0.45773 0.81978 0.0
H109 H 0.65201 0.48234 0.76728 0.0
H110 H 0.56478 0.43027 0.76816 0.0
H111 H 0.57526 0.40619 0.82035 0.0
H112 H 0.57596 0.26579 0.9222 0.0
H113 H 0.60375 0.31758 0.9074 0.0
H114 H 0.62839 0.25543 1.00653 0.0
H115 H 0.65512 0.30654 0.99205 0.0
H116 H 0.77511 0.42373 1.00061 0.0
H117 H 0.8053 0.48958 0.92361 0.0
H118 H 0.75797 0.47765 0.89593 0.0
H119 H 0.72751 0.41117 0.97234 0.0
C120 C 0.87179 0.58559 0.4628 0.0
C121 C 0.86254 0.60593 0.48431 0.0
C122 C 0.81619 0.57256 0.49439 0.0
C123 C 0.83472 0.59949 0.49997 0.0
C124 C 0.82653 0.55126 0.47442 0.0
C125 C 0.85413 0.55775 0.45873 0.0
U126 U 0.93989 0.64087 0.43327 0.0
O127 O 0.98235 0.62863 0.41116 0.0
O128 O 0.95045 0.66035 0.38577 0.0
C129 C 0.97498 0.64375 0.38444 0.0
C130 C 0.89737 0.59479 0.44163 0.0
C131 C 0.97607 0.6253 0.35763 0.0
C132 C 0.95373 0.58513 0.32686 0.0
C133 C 0.95426 0.6005 0.35386 0.0
C134 C 0.99716 0.61877 0.30743 0.0
C135 C 0.97491 0.59443 0.30314 0.0
C136 C 0.9977 0.63407 0.33446 0.0
C137 C 0.96191 0.71445 0.4769 0.0
C138 C 0.99523 0.76034 0.45876 0.0
C139 C 0.97096 0.75796 0.50874 0.0
C140 C 0.95724 0.72824 0.50425 0.0
C141 C 0.98954 0.77483 0.4858 0.0
C142 C 0.98141 0.73034 0.45429 0.0
C143 C 0.94456 0.68455 0.4722 0.0
O144 O 0.894 0.62127 0.42349 0.0
O145 O 0.92507 0.59237 0.45315 0.0
O146 O 0.95967 0.65813 0.4755 0.0
O147 O 0.92558 0.68595 0.4487 0.0
H148 H 0.87587 0.62765 0.48758 0.0
H149 H 0.82676 0.61655 0.51478 0.0
H150 H 0.81216 0.53082 0.46927 0.0
H151 H 0.86078 0.54197 0.44203 0.0
H152 H 0.9363 0.56649 0.32423 0.0
H153 H 0.93727 0.59352 0.37152 0.0
H154 H 1.0142 0.62597 0.2899 0.0
H155 H 1.01471 0.65313 0.33704 0.0
H156 H 1.00936 0.77268 0.44061 0.0
H157 H 0.96658 0.76799 0.53011 0.0
H158 H 0.94233 0.71629 0.52198 0.0
H159 H 0.98529 0.71997 0.43298 0.0
C160 C 0.91859 0.81156 0.94499 0.0
C161 C 0.93444 0.7979 0.92193 0.0
C162 C 0.95142 0.75361 0.95921 0.0
C163 C 0.95061 0.76955 0.92891 0.0
C164 C 0.93636 0.76832 0.98226 0.0
C165 C 0.92029 0.7965 0.97526 0.0
U166 U 0.8821 0.89 0.90089 0.0
O167 O 0.83248 0.89828 0.89693 0.0
O168 O 0.86144 0.92985 0.92275 0.0
C169 C 0.83366 0.92328 0.91276 0.0
C170 C 0.89781 0.83926 0.93845 0.0
C171 C 0.8056 0.93088 0.93067 0.0
C172 C 0.76009 0.91518 0.96276 0.0
C173 C 0.78863 0.90798 0.9503 0.0
C174 C 0.76526 0.9688 0.93779 0.0
C175 C 0.74757 0.94559 0.95632 0.0
C176 C 0.79357 0.96154 0.92517 0.0
C177 C 0.92425 0.92254 0.81913 0.0
C178 C 0.92154 0.9662 0.7773 0.0
C179 C 0.95455 0.92295 0.77167 0.0
C180 C 0.94567 0.90875 0.80115 0.0
C181 C 0.94249 0.95187 0.7587 0.0
C182 C 0.91254 0.95177 0.80694 0.0
C183 C 0.91495 0.90499 0.84984 0.0
O184 O 0.90857 0.86857 0.94108 0.0
O185 O 0.87793 0.83814 0.91586 0.0
O186 O 0.8909 0.88507 0.85152 0.0
O187 O 0.92034 0.91788 0.87572 0.0
H188 H 0.93374 0.80867 0.89833 0.0
H189 H 0.96159 0.75962 0.91013 0.0
H190 H 0.93675 0.75808 1.00602 0.0
H191 H 0.90845 0.8062 0.9937 0.0
H192 H 0.74734 0.89659 0.97691 0.0
H193 H 0.7969 0.88416 0.95525 0.0
H194 H 0.75648 0.99225 0.93177 0.0
H195 H 0.8056 0.97979 0.90995 0.0
H196 H 0.91197 0.98873 0.76908 0.0
H197 H 0.97032 0.91044 0.75877 0.0
H198 H 0.95536 0.88636 0.8098 0.0
H199 H 0.89626 0.96336 0.82015 0.0
C200 C 0.58611 0.14606 0.34724 0.0
C201 C 0.60341 0.11875 0.34791 0.0
C202 C 0.58102 0.10612 0.29915 0.0
C203 C 0.60075 0.09885 0.32421 0.0
C204 C 0.56363 0.13351 0.29872 0.0
C205 C 0.56612 0.15327 0.32263 0.0
U206 U 0.63125 0.16925 0.41496 0.0
O207 O 0.64574 0.21502 0.43159 0.0
O208 O 0.61715 0.1802 0.46097 0.0
C209 C 0.62996 0.20917 0.45725 0.0
C210 C 0.58948 0.16712 0.372 0.0
C211 C 0.61085 0.23505 0.46444 0.0
C212 C 0.57421 0.27504 0.44858 0.0
C213 C 0.5889 0.24727 0.44341 0.0
C214 C 0.60183 0.27716 0.49677 0.0
C215 C 0.58125 0.29077 0.47488 0.0
C216 C 0.61657 0.24955 0.49151 0.0
C217 C 0.70254 0.12227 0.43377 0.0
C218 C 0.74025 0.1353 0.47225 0.0
C219 C 0.74254 0.08597 0.4481 0.0
C220 C 0.71686 0.09383 0.43051 0.0
C221 C 0.75435 0.10658 0.46904 0.0
C222 C 0.71417 0.14303 0.45479 0.0
C223 C 0.67548 0.12953 0.41502 0.0
O224 O 0.58589 0.15254 0.39993 0.0
O225 O 0.61343 0.18722 0.36947 0.0
O226 O 0.67638 0.15762 0.39884 0.0
O227 O 0.64916 0.12201 0.42876 0.0
H228 H 0.61911 0.11291 0.36674 0.0
H229 H 0.6143 0.07788 0.32547 0.0
H230 H 0.54873 0.14027 0.27948 0.0
H231 H 0.55279 0.1744 0.32168 0.0
H232 H 0.55819 0.28484 0.43153 0.0
H233 H 0.58413 0.23613 0.42244 0.0
H234 H 0.60794 0.28889 0.51709 0.0
H235 H 0.63348 0.24035 0.50793 0.0
H236 H 0.74925 0.15147 0.48826 0.0
H237 H 0.75347 0.06391 0.4451 0.0
H238 H 0.7082 0.07768 0.4143 0.0
H239 H 0.70318 0.1651 0.45756 0.0
C240 C 0.30692 0.59407 0.13475 0.0
C241 C 0.30011 0.61339 0.10744 0.0
C242 C 0.25321 0.58047 0.0993 0.0
C243 C 0.27367 0.60651 0.08981 0.0
C244 C 0.2603 0.56129 0.12648 0.0
C245 C 0.28673 0.56785 0.14372 0.0
U246 U 0.38277 0.63763 0.1658 0.0
O247 O 0.39411 0.64334 0.21465 0.0
O248 O 0.42241 0.61391 0.18858 0.0
C249 C 0.41827 0.62591 0.21487 0.0
C250 C 0.33412 0.60012 0.15502 0.0
C251 C 0.4281 0.60804 0.24458 0.0
C252 C 0.42674 0.56219 0.28419 0.0
C253 C 0.41634 0.57738 0.25577 0.0
C254 C 0.46066 0.60787 0.29062 0.0
C255 C 0.44884 0.57742 0.30225 0.0
C256 C 0.45058 0.62277 0.26229 0.0
C257 C 0.41574 0.7188 0.12001 0.0
C258 C 0.46024 0.75439 0.12848 0.0
C259 C 0.42415 0.76971 0.08813 0.0
C260 C 0.40696 0.74105 0.09569 0.0
C261 C 0.4509 0.77691 0.10446 0.0
C262 C 0.4427 0.72567 0.13635 0.0
C263 C 0.39561 0.68938 0.12736 0.0
O264 O 0.36163 0.59619 0.14451 0.0
O265 O 0.33355 0.62408 0.1721 0.0
O266 O 0.377 0.68878 0.15093 0.0
O267 O 0.40684 0.66139 0.12454 0.0
H268 H 0.31506 0.63384 0.09985 0.0
H269 H 0.26888 0.62193 0.0691 0.0
H270 H 0.2453 0.54099 0.13443 0.0
H271 H 0.29128 0.55238 0.16447 0.0
H272 H 0.41703 0.53876 0.29234 0.0
H273 H 0.39908 0.56529 0.2427 0.0
H274 H 0.47803 0.62019 0.30338 0.0
H275 H 0.46041 0.64618 0.25418 0.0
H276 H 0.4808 0.75927 0.14146 0.0
H277 H 0.41653 0.78633 0.06935 0.0
H278 H 0.38645 0.73635 0.08255 0.0
H279 H 0.45008 0.70902 0.15521 0.0
C280 C 0.06701 0.31211 0.6025 0.0
C281 C 0.08994 0.30436 0.58248 0.0
C282 C 0.06325 0.25339 0.57681 0.0
C283 C 0.08817 0.27502 0.56987 0.0
C284 C 0.03944 0.26207 0.59519 0.0
C285 C 0.04138 0.29121 0.60807 0.0
U286 U 0.11217 0.38719 0.62095 0.0
O287 O 0.09856 0.4312 0.63967 0.0
O288 O 0.13059 0.39944 0.66531 0.0
C289 C 0.11563 0.42583 0.66442 0.0
C290 C 0.07155 0.33944 0.62084 0.0
C291 C 0.10381 0.43392 0.69383 0.0
C292 C 0.07205 0.42393 0.73969 0.0
C293 C 0.08077 0.41558 0.71067 0.0
C294 C 0.10941 0.4685 0.73469 0.0
C295 C 0.08636 0.45061 0.75175 0.0
C296 C 0.11796 0.46026 0.70606 0.0
C297 C 0.18181 0.41749 0.57376 0.0
C298 C 0.22127 0.45233 0.594 0.0
C299 C 0.2265 0.43492 0.54306 0.0
C300 C 0.19831 0.41811 0.54635 0.0
C301 C 0.23882 0.45122 0.56726 0.0
C302 C 0.19293 0.43551 0.59724 0.0
C303 C 0.15464 0.39579 0.57853 0.0
O304 O 0.09634 0.33855 0.63797 0.0
O305 O 0.06709 0.36795 0.60665 0.0
O306 O 0.12808 0.4091 0.57546 0.0
O307 O 0.15607 0.37463 0.60272 0.0
H308 H 0.10994 0.32023 0.57796 0.0
H309 H 0.10679 0.26863 0.55581 0.0
H310 H 1.0202 0.2455 0.60103 0.0
H311 H 1.0236 0.29668 0.62362 0.0
H312 H 0.05397 0.41005 0.75239 0.0
H313 H 0.06975 0.39499 0.70149 0.0
H314 H 0.12084 0.48906 0.74356 0.0
H315 H 0.13598 0.47444 0.6935 0.0
H316 H 0.23021 0.46457 0.61307 0.0
H317 H 0.23929 0.43409 0.522 0.0
H318 H 0.18998 0.40451 0.52795 0.0
H319 H 0.18034 0.43539 0.61857 0.0
Co320 Co 1.00237 0.02076 0.51928 0.0
C321 C 1.01993 0.95698 0.52012 0.0
Co322 Co 0.04971 0.01223 0.53342 0.0
C323 C 0.94377 0.04901 0.5092 0.0
C324 C 0.94506 1.00368 0.49103 0.0
N325 N 0.96231 0.02481 0.50589 0.0
N326 N 0.91586 0.04349 0.49734 0.0
C327 C 0.91638 0.01502 0.48602 0.0
H328 H 0.95022 0.07005 0.52051 0.0
H329 H 0.95264 0.98138 0.48416 0.0
C330 C 0.03166 0.07617 0.53198 0.0
N331 N 0.08922 1.00904 0.5479 0.0
C332 C 0.11336 0.99419 0.53787 0.0
C333 C 0.09981 0.02338 0.57249 0.0
N334 N 0.13841 0.99923 0.55517 0.0
C335 C 0.13005 0.01734 0.577 0.0
C336 C 0.04525 0.0282 0.46938 0.0
O337 O 1.00646 0.06504 0.5224 0.0
O338 O 0.05291 0.05718 0.53891 0.0
O339 O 0.06399 0.02186 0.49147 0.0
O340 O 1.01683 0.02848 0.47602 0.0
O341 O 0.04646 0.96728 0.52758 0.0
H342 H 0.0863 0.03732 0.58639 0.0
H343 H 0.11259 0.97999 0.51849 0.0
O344 O 0.99871 0.97646 0.51615 0.0
O345 O 0.98815 0.01286 0.56292 0.0
O346 O 0.03517 1.00214 0.57529 0.0
C347 C 1.00755 1.00382 0.58371 0.0
H348 H 0.89744 1.00353 0.47467 0.0
H349 H 0.14472 0.02514 0.59515 0.0
Co350 Co 0.51683 1.00868 1.0073 0.0
C351 C 0.51318 0.95786 0.05537 0.0
Co352 Co 0.53424 0.02142 0.05183 0.0
C353 C 0.51395 0.99258 0.94407 0.0
C354 C 0.47286 0.97986 0.96978 0.0
N355 N 0.50045 0.99529 0.97141 0.0
N356 N 0.49586 0.97568 0.9259 0.0
C357 C 0.47005 0.96769 0.94185 0.0
H358 H 0.53711 1.00109 0.9383 0.0
H359 H 0.45658 0.97591 0.98846 0.0
C360 C 0.53744 0.07252 1.00382 0.0
N361 N 0.55086 0.0343 0.08773 0.0
C362 C 0.54011 0.03126 0.1169 0.0
C363 C 0.57791 0.05076 0.08901 0.0
N364 N 0.5598 0.04482 0.13626 0.0
C365 C 0.58347 0.05719 0.11871 0.0
C366 C 0.58065 0.99872 1.01417 0.0
O367 O 0.52611 0.05152 0.9873 0.0
O368 O 0.54236 0.06417 0.03222 0.0
O369 O 0.57495 1.0094 0.03977 0.0
O370 O 0.55817 0.99554 0.9957 0.0
O371 O 0.52538 0.97859 0.0716 0.0
H372 H 0.59247 0.05816 0.0694 0.0
H373 H 0.51838 0.01946 0.12376 0.0
O374 O 0.50775 0.96612 0.02711 0.0
O375 O 0.47532 0.02207 1.01961 0.0
O376 O 0.49415 0.03343 0.06382 0.0
C377 C 0.47098 0.03183 0.04607 0.0
H378 H 0.45105 0.95309 0.93419 0.0
H379 H 0.603 0.07081 0.12667 0.0
Co380 Co 0.55125 0.52449 0.52489 0.0
C381 C 0.50505 0.52592 0.47717 0.0
Co382 Co 0.50429 0.50959 0.54009 0.0
C383 C 0.61792 0.53891 0.51213 0.0
C384 C 0.58655 0.57079 0.48911 0.0
N385 N 0.58766 0.54389 0.50867 0.0
N386 N 0.6353 0.56173 0.49518 0.0
C387 C 0.61536 0.58174 0.481 0.0
H388 H 0.62693 0.51906 0.52657 0.0
H389 H 0.56589 0.58235 0.4815 0.0
C390 C 0.54954 0.50861 0.58823 0.0
N391 N 0.46766 0.49192 0.55635 0.0
C392 C 0.43838 0.49708 0.548 0.0
C393 C 0.46576 0.46783 0.57929 0.0
N394 N 0.4186 0.47709 0.56495 0.0
C395 C 0.4357 0.45861 0.58449 0.0
C396 C 0.54175 0.46126 0.52292 0.0
O397 O 0.56888 0.51701 0.56672 0.0
O398 O 0.52157 0.50501 0.58079 0.0
O399 O 0.51615 0.46786 0.53364 0.0
O400 O 0.56208 0.48338 0.51617 0.0
O401 O 0.48706 0.51501 0.49893 0.0
H402 H 0.48511 0.45662 0.59064 0.0
H403 H 0.43179 0.51385 0.52891 0.0
O404 O 0.53303 0.53157 0.48369 0.0
O405 O 0.53994 0.56539 0.53364 0.0
O406 O 0.49272 0.55119 0.5465 0.0
C407 C 0.51375 0.57288 0.5418 0.0
H408 H 0.62111 0.60335 0.46619 0.0
H409 H 0.42705 0.43885 0.60034 0.0
Co410 Co 0.03339 0.51538 1.00569 0.0
C411 C 0.96888 0.49676 1.01853 0.0
Co412 Co 1.01707 0.51535 0.05311 0.0
C413 C 0.05692 0.4959 0.94738 0.0
C414 C 1.01933 0.52696 0.94331 0.0
N415 N 0.0392 0.5135 0.96392 0.0
N416 N 0.04876 0.4985 0.91727 0.0
C417 C 0.02503 0.51778 0.91494 0.0
H418 H 0.07474 0.48101 0.95721 0.0
H419 H 1.00053 0.54115 0.94883 0.0
C420 C 0.08138 0.53438 0.04071 0.0
N421 N 1.011 0.51709 0.09495 0.0
C422 C 0.99429 0.53635 0.11066 0.0
C423 C 0.02842 0.50136 0.11662 0.0
N424 N 1.00039 0.53249 0.1412 0.0
C425 C 1.02185 0.51061 0.14491 0.0
C426 C 0.03998 0.45543 0.04027 0.0
O427 O 0.07623 0.52932 1.01268 0.0
O428 O 0.05914 0.52964 0.05959 0.0
O429 O 0.02828 0.47014 0.0612 0.0
O430 O 0.04415 0.47093 1.01385 0.0
O431 O 0.97456 0.50144 0.04648 0.0
H432 H 0.04619 0.48549 0.11204 0.0
H433 H 0.97874 0.55342 0.09995 0.0
O434 O 0.99085 0.50125 0.9993 0.0
O435 O 1.02246 0.56064 0.9974 0.0
O436 O 1.00564 0.55969 0.04445 0.0
C437 C 1.0098 0.57507 1.01794 0.0
H438 H 1.01199 0.52398 0.89418 0.0
H439 H 0.03305 0.50304 0.16646 0.0
H440 H 0.1184 0.05277 0.34197 0.0
H441 H 0.0314 0.0865 0.30903 0.0
H442 H 1.00963 0.0733 0.3604 0.0
H443 H 1.01509 0.05276 0.41597 0.0
H444 H 0.10249 0.01941 0.44817 0.0
H445 H 0.12352 0.03126 0.39649 0.0
C446 C 0.09455 0.05698 0.34572 0.0
C447 C 0.07694 0.07102 0.32095 0.0
C448 C 0.08194 0.04929 0.37571 0.0
C449 C 0.04607 0.07639 0.32719 0.0
C450 C 0.03339 0.06861 0.3568 0.0
C451 C 0.03872 0.04796 0.41172 0.0
C452 C 0.057 0.03514 0.43658 0.0
C453 C 0.0511 0.05522 0.38146 0.0
C454 C 0.08763 0.02933 0.43005 0.0
C455 C 0.09982 0.03613 0.40025 0.0
H456 H 0.48896 0.90334 0.8099 0.0
H457 H 0.47748 0.9992 0.76776 0.0
H458 H 0.49214 0.02085 0.81584 0.0
H459 H 0.49852 0.01159 0.87216 0.0
H460 H 0.50683 0.91591 0.91493 0.0
H461 H 0.50424 0.89496 0.86444 0.0
C462 C 0.49064 0.92899 0.81102 0.0
C463 C 0.48149 0.94963 0.78563 0.0
C464 C 0.49837 0.94122 0.839 0.0
C465 C 0.48378 0.98284 0.78731 0.0
C466 C 0.49216 0.99523 0.81477 0.0
C467 C 0.50087 0.98637 0.87003 0.0
C468 C 0.50282 0.96515 0.89672 0.0
C469 C 0.49804 0.97457 0.84113 0.0
C470 C 0.50536 0.93242 0.89431 0.0
C471 C 0.50363 0.92052 0.86557 0.0
H472 H 0.555 0.47993 0.73439 0.0
H473 H 0.64877 0.46212 0.71536 0.0
H474 H 0.64037 0.47722 0.66039 0.0
H475 H 0.60549 0.49361 0.61647 0.0
H476 H 0.51178 0.51109 0.63676 0.0
H477 H 0.52117 0.49847 0.6915 0.0
C478 C 0.57369 0.47941 0.71829 0.0
C479 C 0.60258 0.46981 0.72945 0.0
C480 C 0.5687 0.48819 0.68643 0.0
C481 C 0.6264 0.46973 0.70787 0.0
C482 C 0.62154 0.47822 0.6762 0.0
C483 C 0.58723 0.49498 0.63288 0.0
C484 C 0.55783 0.50321 0.62197 0.0
C485 C 0.5927 0.48732 0.665 0.0
C486 C 0.53457 0.50459 0.64399 0.0
C487 C 0.53989 0.49734 0.67557 0.0
H488 H 0.98091 0.62235 0.24404 0.0
H489 H 0.96712 0.53071 0.29732 0.0
H490 H 0.96948 0.50384 0.25047 0.0
H491 H 0.98071 0.5059 0.19546 0.0
H492 H 0.99619 0.59647 0.14162 0.0
H493 H 0.98757 0.62452 0.18745 0.0
C494 C 0.97839 0.5965 0.24534 0.0
C495 C 0.97419 0.57853 0.27421 0.0
C496 C 0.98002 0.58113 0.21826 0.0
C497 C 0.97028 0.54511 0.27546 0.0
C498 C 0.97175 0.52971 0.2487 0.0
C499 C 0.98156 0.53181 0.19381 0.0
C500 C 0.9891 0.5492 0.16556 0.0
C501 C 0.97725 0.54742 0.22017 0.0
C502 C 0.9901 0.58273 0.16323 0.0
C503 C 0.98554 0.59864 0.18945 0.0
H504 H 0.35445 0.07527 0.11709 0.0
H505 H 0.30856 0.05888 0.03202 0.0
H506 H 0.35667 0.04301 1.0108 0.0
H507 H 0.41316 0.03356 1.0162 0.0
H508 H 0.45752 0.05122 0.10197 0.0
H509 H 0.40944 0.06624 0.12243 0.0
C510 C 0.35467 0.06808 0.09392 0.0
C511 C 0.32717 0.06854 0.07648 0.0
C512 C 0.38273 0.05904 0.08164 0.0
C513 C 0.3289 0.05939 0.04624 0.0
C514 C 0.35665 0.05005 0.03403 0.0
C515 C 0.4124 0.04072 0.03935 0.0
C516 C 0.4398 0.04107 0.05721 0.0
C517 C 0.38397 0.04981 0.05142 0.0
C518 C 0.43753 0.05052 0.08726 0.0
C519 C 0.40973 0.05923 0.0992 0.0
H520 H 0.27619 0.96761 0.55254 0.0
H521 H 0.24128 0.88418 0.609 0.0
H522 H 0.18905 0.90216 0.60208 0.0
H523 H 0.15359 0.94265 0.58124 0.0
H524 H 0.18824 0.02758 0.52749 0.0
H525 H 0.24043 1.00832 0.53162 0.0
C526 C 0.25701 0.95357 0.56324 0.0
C527 C 0.26213 0.92479 0.58124 0.0
C528 C 0.2272 0.96424 0.55937 0.0
C529 C 0.23749 0.90655 0.59522 0.0
C530 C 0.20777 0.91672 0.59116 0.0
C531 C 0.17267 0.95634 0.56995 0.0
C532 C 0.16757 0.98586 0.55346 0.0
C533 C 0.20237 0.94552 0.57333 0.0
C534 C 0.19207 1.00435 0.5396 0.0
C535 C 0.22174 0.99349 0.54225 0.0
H536 H 0.85211 0.44763 0.94566 0.0
H537 H 0.80376 0.48467 1.01887 0.0
H538 H 0.85263 0.49971 0.04293 0.0
H539 H 0.91027 0.50331 0.04251 0.0
H540 H 0.95701 0.46505 0.96852 0.0
H541 H 0.90835 0.44915 0.94626 0.0
C542 C 0.85225 0.45877 0.96704 0.0
C543 C 0.8241 0.46479 0.98041 0.0
C544 C 0.88051 0.46708 0.98089 0.0
C545 C 0.82491 0.47932 1.00816 0.0
C546 C 0.85299 0.48806 1.02189 0.0
C547 C 0.9098 0.49124 1.02169 0.0
C548 C 0.93779 0.48563 1.00732 0.0
C549 C 0.88113 0.48214 1.00847 0.0
C550 C 0.93626 0.47009 0.98015 0.0
C551 C 0.90825 0.46089 0.96726 0.0
H552 H 0.77166 0.59571 0.45904 0.0
H553 H 0.7882 0.54376 0.54717 0.0
H554 H 0.73266 0.5354 0.55578 0.0
H555 H 0.67915 0.54148 0.53637 0.0
H556 H 0.66558 0.59003 0.44552 0.0
H557 H 0.71995 0.60117 0.43987 0.0
C558 C 0.76297 0.58292 0.4803 0.0
C559 C 0.78354 0.57059 0.50256 0.0
C560 C 0.73151 0.57741 0.48443 0.0
C561 C 0.77246 0.55372 0.52992 0.0
C562 C 0.74082 0.54876 0.53465 0.0
C563 C 0.6882 0.55418 0.51529 0.0
C564 C 0.66806 0.56531 0.49166 0.0
C565 C 0.72005 0.56007 0.51175 0.0
C566 C 0.68024 0.58185 0.46448 0.0
C567 C 0.71147 0.58816 0.46105 0.0
H568 H 0.08481 0.31284 0.03975 0.0
H569 H 0.07241 0.31255 0.13791 0.0
H570 H 0.05353 0.36637 0.1301 0.0
H571 H 0.04279 0.4158 0.09564 0.0
H572 H 0.05726 0.41615 0.99784 0.0
H573 H 0.07319 0.36116 1.00552 0.0
C574 C 0.07828 0.32438 0.05966 0.0
C575 C 0.08056 0.30775 0.08958 0.0
C576 C 0.06783 0.35608 0.0551 0.0
C577 C 0.07089 0.32375 0.11454 0.0
C578 C 0.06023 0.35502 0.11012 0.0
C579 C 0.04932 0.40388 0.07594 0.0
C580 C 0.04882 0.42083 0.04607 0.0
C581 C 0.05892 0.37175 0.08053 0.0
C582 C 0.05747 0.40438 1.0211 0.0
C583 C 0.06663 0.37265 0.02548 0.0
H584 H 0.58338 0.2056 0.93135 0.0
H585 H 0.57888 0.23454 1.02334 0.0
H586 H 0.55899 0.18143 0.04266 0.0
H587 H 0.5458 0.12551 0.03473 0.0
H588 H 0.54781 0.09573 0.9431 0.0
H589 H 0.56532 0.14993 0.9226 0.0
C590 C 0.57765 0.20046 0.95554 0.0
C591 C 0.58348 0.22431 0.97585 0.0
C592 C 0.56592 0.16938 0.96676 0.0
C593 C 0.57562 0.21679 1.00714 0.0
C594 C 0.56406 0.18629 1.0183 0.0
C595 C 0.5499 0.13082 1.01021 0.0
C596 C 0.54571 0.1062 0.99062 0.0
C597 C 0.55974 0.16216 0.99853 0.0
C598 C 0.55081 0.11396 0.95884 0.0
C599 C 0.56094 0.14506 0.94709 0.0
H600 H 0.95841 0.82113 0.50848 0.0
H601 H 0.04638 0.80367 0.47139 0.0
H602 H 0.06468 0.85815 0.47984 0.0
H603 H 0.05524 0.91125 0.4984 0.0
H604 H 0.96627 0.92636 0.53494 0.0
H605 H 0.94926 0.8721 0.52702 0.0
C606 C 0.98179 0.82894 0.50265 0.0
C607 C 1.00109 0.80808 0.48978 0.0
C608 C 0.99211 0.85994 0.50779 0.0
C609 C 0.03097 0.8192 0.48135 0.0
C610 C 0.04151 0.8503 0.48638 0.0
C611 C 0.03233 0.90238 0.50495 0.0
C612 C 1.0121 0.9228 0.51736 0.0
C613 C 1.0223 0.87092 0.49979 0.0
C614 C 0.98228 0.9112 0.52529 0.0
C615 C 0.97245 0.88016 0.52072 0.0
H616 H 0.51687 0.72055 0.55493 0.0
H617 H 0.43163 0.69353 0.60137 0.0
H618 H 0.43569 0.63841 0.58942 0.0
H619 H 0.46529 0.59718 0.56881 0.0
H620 H 0.5508 0.62446 0.52258 0.0
H621 H 0.54468 0.68005 0.5311 0.0
C622 C 0.49909 0.70257 0.56208 0.0
C623 C 0.47404 0.71089 0.57895 0.0
C624 C 0.50168 0.67095 0.55532 0.0
C625 C 0.45097 0.68761 0.58802 0.0
C626 C 0.45339 0.65609 0.58141 0.0
C627 C 0.48242 0.61535 0.56043 0.0
C628 C 0.50859 0.60663 0.54552 0.0
C629 C 0.4789 0.64736 0.56553 0.0
C630 C 0.5306 0.63045 0.5346 0.0
C631 C 0.52714 0.66231 0.53937 0.0
H632 H 0.99598 0.9468 0.72508 0.0
H633 H 0.90815 0.98946 0.71645 0.0
H634 H 0.91991 1.00966 0.66328 0.0
H635 H 0.95437 0.01359 0.61708 0.0
H636 H 0.04165 0.96999 0.62678 0.0
H637 H 0.03028 0.95144 0.68024 0.0
C638 C 0.979 0.96014 0.71176 0.0
C639 C 0.95083 0.96596 0.72577 0.0
C640 C 0.98571 0.97151 0.68052 0.0
C641 C 0.93012 0.98443 0.70735 0.0
C642 C 0.93674 0.99591 0.67642 0.0
C643 C 0.97094 1.00005 0.63084 0.0
C644 C 0.999 0.9934 0.61715 0.0
C645 C 0.96434 0.98934 0.66244 0.0
C646 C 1.01996 0.97587 0.63604 0.0
C647 C 1.01346 0.96508 0.66695 0.0
H648 H 0.53155 0.08957 0.26447 0.0
H649 H 0.62897 0.07893 0.27361 0.0
H650 H 0.62945 0.05339 0.22611 0.0
H651 H 0.60403 0.04145 0.17841 0.0
H652 H 0.50786 0.05585 0.16617 0.0
H653 H 0.50489 0.07231 0.21847 0.0
C654 C 0.55287 0.08161 0.2561 0.0
C655 C 0.58024 0.08669 0.27247 0.0
C656 C 0.55324 0.06784 0.22808 0.0
C657 C 0.6075 0.0753 0.26173 0.0
C658 C 0.60789 0.06089 0.23436 0.0
C659 C 0.58238 0.04786 0.18742 0.0
C660 C 0.55636 0.0481 0.16849 0.0
C661 C 0.58116 0.05815 0.21686 0.0
C662 C 0.52819 0.0556 0.18044 0.0
C663 C 0.5266 0.06526 0.21017 0.0
H664 H 0.45475 0.60446 0.35675 0.0
H665 H 0.46739 0.51603 0.31764 0.0
H666 H 0.48606 0.49197 0.36752 0.0
H667 H 0.4991 0.49613 0.42321 0.0
H668 H 0.4843 0.58445 0.46171 0.0
H669 H 0.46628 0.60821 0.41171 0.0
C670 C 0.46156 0.57989 0.35907 0.0
C671 C 0.45949 0.5622 0.33318 0.0
C672 C 0.47186 0.56603 0.38806 0.0
C673 C 0.46831 0.53025 0.33702 0.0
C674 C 0.47915 0.51648 0.36563 0.0
C675 C 0.49168 0.52047 0.4206 0.0
C676 C 0.49283 0.53845 0.44636 0.0
C677 C 0.48098 0.53407 0.39148 0.0
C678 C 0.48342 0.57005 0.44244 0.0
C679 C 0.47317 0.58369 0.41376 0.0
H680 H 0.08451 0.41821 0.80987 0.0
H681 H 0.0675 0.50897 0.75877 0.0
H682 H 0.05916 0.53255 0.80643 0.0
H683 H 0.05685 0.52811 0.86171 0.0
H684 H 0.06827 0.43786 0.91517 0.0
H685 H 0.08025 0.41341 0.86774 0.0
C686 C 0.07847 0.44295 0.80939 0.0
C687 C 0.07671 0.46198 0.78095 0.0
C688 C 0.07358 0.45652 0.83716 0.0
C689 C 0.0691 0.49404 0.78042 0.0
C690 C 0.06455 0.50758 0.8076 0.0
C691 C 0.06195 0.50304 0.86297 0.0
C692 C 0.06137 0.48474 0.89158 0.0
C693 C 0.06699 0.48918 0.83593 0.0
C694 C 0.06877 0.45246 0.89325 0.0
C695 C 0.07513 0.43846 0.86613 0.0
H696 H 0.72588 0.98834 0.99571 0.0
H697 H 0.69482 0.91697 0.93711 0.0
H698 H 0.64157 0.92726 0.94802 0.0
H699 H 0.60265 0.95689 0.97407 0.0
H700 H 0.63373 0.0248 0.03639 0.0
H701 H 0.68687 0.01561 1.02445 0.0
C702 C 0.70748 0.97491 0.98542 0.0
C703 C 0.71486 0.95174 0.96537 0.0
C704 C 0.67636 0.98046 0.99252 0.0
C705 C 0.69026 0.93471 0.95263 0.0
C706 C 0.65958 0.94072 0.95883 0.0
C707 C 0.62098 0.96975 0.98505 0.0
C708 C 0.61348 0.99185 1.0061 0.0
C709 C 0.65213 0.96361 0.97868 0.0
C710 C 0.63816 1.00771 1.02016 0.0
C711 C 0.66888 1.00246 1.01327 0.0
H712 H 0.81087 0.13434 0.46131 0.0
H713 H 0.75949 0.05788 0.51363 0.0
H714 H 0.80685 0.03296 0.53075 0.0
H715 H 0.86181 0.02816 0.52287 0.0
H716 H 0.91359 0.10324 0.4696 0.0
H717 H 0.86733 0.13382 0.46049 0.0
C718 C 0.8103 0.11287 0.47735 0.0
C719 C 0.7821 0.09772 0.48628 0.0
C720 C 0.83756 0.09819 0.48617 0.0
C721 C 0.78119 0.06975 0.50668 0.0
C722 C 0.80816 0.05541 0.51617 0.0
C723 C 0.86281 0.05156 0.5099 0.0
C724 C 0.89046 0.06359 0.49659 0.0
C725 C 0.83629 0.06861 0.50482 0.0
C726 C 0.8922 0.09387 0.47994 0.0
C727 C 0.86584 0.11114 0.4747 0.0
H728 H 0.19456 0.58331 0.11882 0.0
H729 H 0.24614 0.56077 0.04093 0.0
H730 H 0.1985 0.54494 1.01495 0.0
H731 H 0.14094 0.53578 1.01525 0.0
H732 H 0.09133 0.56055 0.09413 0.0
H733 H 0.13859 0.57739 0.11797 0.0
C734 C 0.19539 0.57521 0.09601 0.0
C735 C 0.22406 0.57339 0.08195 0.0
C736 C 0.16784 0.56641 0.08113 0.0
C737 C 0.2245 0.56277 0.05231 0.0
C738 C 0.19713 0.55355 0.03746 0.0
C739 C 0.14045 0.54507 0.03753 0.0
C740 C 0.11197 0.54636 0.05274 0.0
C741 C 0.16844 0.55503 0.0517 0.0
C742 C 0.11239 0.55863 0.0817 0.0
C743 C 0.13964 0.56844 0.09557 0.0
H744 H 0.28677 0.4203 0.54913 0.0
H745 H 0.26365 0.50861 0.58352 0.0
H746 H 0.31795 0.52614 0.58328 0.0
H747 H 0.37259 0.51458 0.57548 0.0
H748 H 0.39409 0.42502 0.54314 0.0
H749 H 0.3397 0.40981 0.53961 0.0
C750 C 0.29348 0.44369 0.55597 0.0
C751 C 0.27122 0.46329 0.56593 0.0
C752 C 0.32445 0.45331 0.55603 0.0
C753 C 0.28041 0.4931 0.57572 0.0
C754 C 0.3114 0.50314 0.5755 0.0
C755 C 0.36504 0.49213 0.56711 0.0
C756 C 0.38683 0.47093 0.5592 0.0
C757 C 0.33368 0.48328 0.56594 0.0
C758 C 0.37734 0.44157 0.54898 0.0
C759 C 0.34641 0.43289 0.54716 0.0
H760 H 0.93783 0.70433 1.00541 0.0
H761 H 1.00095 0.7295 0.93032 0.0
H762 H 0.02403 0.67778 0.94081 0.0
H763 H 0.02613 0.62373 0.97116 0.0
H764 H 0.9652 0.60182 0.0485 0.0
H765 H 0.94233 0.65339 0.03746 0.0
C766 C 0.95694 0.69914 0.99142 0.0
C767 C 0.96695 0.72171 0.96667 0.0
C768 C 0.9708 0.66926 0.99802 0.0
C769 C 0.9917 0.71309 0.94901 0.0
C770 C 1.00528 0.68326 0.95518 0.0
C771 C 1.00794 0.63027 0.98571 0.0
C772 C 0.99757 0.60825 1.01081 0.0
C773 C 0.99491 0.66085 0.97952 0.0
C774 C 0.97402 0.61778 0.02924 0.0
C775 C 0.96073 0.64749 1.02284 0.0
H776 H 0.43428 0.83683 0.11353 0.0
H777 H 0.5066 0.78684 0.07597 0.0
H778 H 0.53299 0.83803 0.05783 0.0
H779 H 0.53417 0.89781 0.0505 0.0
H780 H 0.46318 0.94709 0.09131 0.0
H781 H 0.43774 0.89591 0.11027 0.0
C782 C 0.45602 0.8372 0.1017 0.0
C783 C 0.46846 0.80801 0.09617 0.0
C784 C 0.47129 0.8668 0.09181 0.0
C785 C 0.49662 0.8089 0.08072 0.0
C786 C 0.51165 0.83823 0.07023 0.0
C787 C 0.51341 0.89722 0.064 0.0
C788 C 0.50071 0.92629 0.06976 0.0
C789 C 0.49909 0.86744 0.07537 0.0
C790 C 0.47364 0.92514 0.08699 0.0
C791 C 0.45898 0.89583 0.09768 0.0
H792 H 0.03049 0.22623 0.53231 0.0
H793 H 0.0966 0.20649 0.60443 0.0
H794 H 0.09378 0.14971 0.59629 0.0
H795 H 0.07042 0.10526 0.57044 0.0
H796 H 1.00322 0.12467 0.49909 0.0
H797 H 1.009 0.1819 0.50447 0.0
C798 C 0.04452 0.20942 0.54582 0.0
C799 C 0.06385 0.22022 0.56876 0.0
C800 C 0.04257 0.1768 0.54113 0.0
C801 C 0.08187 0.19849 0.58639 0.0
C802 C 0.08013 0.16609 0.58185 0.0
C803 C 0.0572 0.12208 0.55598 0.0
C804 C 0.03621 0.11079 0.53465 0.0
C805 C 0.06026 0.15489 0.55957 0.0
C806 C 1.01918 0.13279 0.51604 0.0
C807 C 1.02252 0.16552 0.51904 0.0
H808 H 0.55846 0.31335 0.52601 0.0
H809 H 0.58036 0.3409 0.43044 0.0
H810 H 0.57052 0.39642 0.43689 0.0
H811 H 0.55931 0.43792 0.47071 0.0
H812 H 0.53491 0.41025 0.56547 0.0
H813 H 0.54285 0.35413 0.55869 0.0
C814 C 0.56084 0.33152 0.50659 0.0
C815 C 0.57037 0.32311 0.47789 0.0
C816 C 0.55538 0.36345 0.51052 0.0
C817 C 0.57285 0.34673 0.45273 0.0
C818 C 0.56758 0.37856 0.45648 0.0
C819 C 0.55597 0.4195 0.4898 0.0
C820 C 0.54729 0.42791 0.51866 0.0
C821 C 0.55958 0.3873 0.48542 0.0
C822 C 0.54204 0.40405 0.54316 0.0
C823 C 0.54643 0.37207 0.53925 0.0
loop_
_geom_bond_atom_site_label_1
_geom_bond_atom_site_label_2
_geom_bond_distance
_geom_bond_site_symmetry_2
_ccdc_geom_bond_type
C0 C1 1.264 . S
C0 C5 1.479 . S
C0 C10 1.465 . S
C1 C0 1.264 . S
C1 C3 1.339 . S
C1 H28 0.931 . S
C2 C3 1.395 . S
C2 C4 1.320 . S
C3 C1 1.339 . S
C3 C2 1.395 . S
C3 H29 0.929 . S
C4 C2 1.320 . S
C4 C5 1.405 . S
C4 H30 0.930 . S
C5 C0 1.479 . S
C5 C4 1.405 . S
C5 H31 0.931 . S
U6 O7 2.454 . S
U6 O8 2.458 . S
U6 C9 2.984 . S
U6 C10 2.847 . S
U6 C23 2.882 . S
U6 O24 2.441 . S
U6 O25 2.420 . S
U6 O26 2.455 . S
U6 O27 2.449 . S
O7 U6 2.454 . S
O7 C9 1.353 . S
O8 U6 2.458 . S
O8 C9 1.286 . S
C9 U6 2.984 . S
C9 O7 1.353 . S
C9 O8 1.286 . S
C9 C11 1.363 . S
C10 C0 1.465 . S
C10 U6 2.847 . S
C10 O24 1.249 . S
C10 O25 1.202 . S
C11 C9 1.363 . S
C11 C13 1.408 . S
C11 C16 1.342 . S
C12 C13 1.310 . S
C12 C15 1.461 . S
C12 H32 0.932 . S
C13 C11 1.408 . S
C13 C12 1.310 . S
C13 H33 0.930 . S
C14 C15 1.474 . S
C14 C16 1.285 . S
C14 H34 0.929 . S
C15 C12 1.461 . S
C15 C14 1.474 . S
C16 C11 1.342 . S
C16 C14 1.285 . S
C16 H35 0.930 . S
C17 C20 1.424 . S
C17 C22 1.245 . S
C17 C23 1.428 . S
C18 C21 1.260 . S
C18 C22 1.477 . S
C18 H36 0.932 . S
C19 C20 1.384 . S
C19 C21 1.479 . S
C19 H37 0.929 . S
C20 C17 1.424 . S
C20 C19 1.384 . S
C20 H38 0.928 . S
C21 C18 1.260 . S
C21 C19 1.479 . S
C22 C17 1.245 . S
C22 C18 1.477 . S
C22 H39 0.932 . S
C23 U6 2.882 . S
C23 C17 1.428 . S
C23 O26 1.301 . S
C23 O27 1.282 . S
O24 U6 2.441 . S
O24 C10 1.249 . S
O25 U6 2.420 . S
O25 C10 1.202 . S
O26 U6 2.455 . S
O26 C23 1.301 . S
O27 U6 2.449 . S
O27 C23 1.282 . S
H28 C1 0.931 . S
H29 C3 0.929 . S
H30 C4 0.930 . S
H31 C5 0.931 . S
H32 C12 0.932 . S
H33 C13 0.930 . S
H34 C14 0.929 . S
H35 C16 0.930 . S
H36 C18 0.932 . S
H37 C19 0.929 . S
H38 C20 0.928 . S
H39 C22 0.932 . S
C40 C41 1.264 . S
C40 C45 1.479 . S
C40 C50 1.465 . S
C41 C40 1.264 . S
C41 C43 1.339 . S
C41 H68 0.931 . S
C42 C43 1.395 . S
C42 C44 1.320 . S
C43 C41 1.339 . S
C43 C42 1.395 . S
C43 H69 0.929 . S
C44 C42 1.320 . S
C44 C45 1.405 . S
C44 H70 0.930 . S
C45 C40 1.479 . S
C45 C44 1.405 . S
C45 H71 0.931 . S
U46 O47 2.454 . S
U46 O48 2.458 . S
U46 C49 2.984 . S
U46 C50 2.847 . S
U46 C63 2.882 . S
U46 O64 2.441 . S
U46 O65 2.420 . S
U46 O66 2.455 . S
U46 O67 2.449 . S
O47 U46 2.454 . S
O47 C49 1.353 . S
O48 U46 2.458 . S
O48 C49 1.286 . S
C49 U46 2.984 . S
C49 O47 1.353 . S
C49 O48 1.286 . S
C49 C51 1.363 . S
C50 C40 1.465 . S
C50 U46 2.847 . S
C50 O64 1.249 . S
C50 O65 1.202 . S
C51 C49 1.363 . S
C51 C53 1.408 . S
C51 C56 1.342 . S
C52 C53 1.310 . S
C52 C55 1.461 . S
C52 H72 0.932 . S
C53 C51 1.408 . S
C53 C52 1.310 . S
C53 H73 0.930 . S
C54 C55 1.474 . S
C54 C56 1.285 . S
C54 H74 0.929 . S
C55 C52 1.461 . S
C55 C54 1.474 . S
C56 C51 1.342 . S
C56 C54 1.285 . S
C56 H75 0.930 . S
C57 C60 1.424 . S
C57 C62 1.245 . S
C57 C63 1.428 . S
C58 C61 1.260 . S
C58 C62 1.477 . S
C58 H76 0.932 . S
C59 C60 1.384 . S
C59 C61 1.479 . S
C59 H77 0.929 . S
C60 C57 1.424 . S
C60 C59 1.384 . S
C60 H78 0.928 . S
C61 C58 1.260 . S
C61 C59 1.479 . S
C62 C57 1.245 . S
C62 C58 1.477 . S
C62 H79 0.932 . S
C63 U46 2.882 . S
C63 C57 1.428 . S
C63 O66 1.301 . S
C63 O67 1.282 . S
O64 U46 2.441 . S
O64 C50 1.249 . S
O65 U46 2.420 . S
O65 C50 1.202 . S
O66 U46 2.455 . S
O66 C63 1.301 . S
O67 U46 2.449 . S
O67 C63 1.282 . S
H68 C41 0.931 . S
H69 C43 0.929 . S
H70 C44 0.930 . S
H71 C45 0.931 . S
H72 C52 0.932 . S
H73 C53 0.930 . S
H74 C54 0.929 . S
H75 C56 0.930 . S
H76 C58 0.932 . S
H77 C59 0.929 . S
H78 C60 0.928 . S
H79 C62 0.932 . S
C80 C81 1.264 . S
C80 C85 1.479 . S
C80 C90 1.465 . S
C81 C80 1.264 . S
C81 C83 1.339 . S
C81 H108 0.931 . S
C82 C83 1.395 . S
C82 C84 1.320 . S
C83 C81 1.339 . S
C83 C82 1.395 . S
C83 H109 0.929 . S
C84 C82 1.320 . S
C84 C85 1.405 . S
C84 H110 0.930 . S
C85 C80 1.479 . S
C85 C84 1.405 . S
C85 H111 0.931 . S
U86 O87 2.454 . S
U86 O88 2.458 . S
U86 C89 2.984 . S
U86 C90 2.847 . S
U86 C103 2.882 . S
U86 O104 2.441 . S
U86 O105 2.420 . S
U86 O106 2.455 . S
U86 O107 2.449 . S
O87 U86 2.454 . S
O87 C89 1.353 . S
O88 U86 2.458 . S
O88 C89 1.286 . S
C89 U86 2.984 . S
C89 O87 1.353 . S
C89 O88 1.286 . S
C89 C91 1.363 . S
C90 C80 1.465 . S
C90 U86 2.847 . S
C90 O104 1.249 . S
C90 O105 1.202 . S
C91 C89 1.363 . S
C91 C93 1.408 . S
C91 C96 1.342 . S
C92 C93 1.310 . S
C92 C95 1.461 . S
C92 H112 0.932 . S
C93 C91 1.408 . S
C93 C92 1.310 . S
C93 H113 0.930 . S
C94 C95 1.474 . S
C94 C96 1.285 . S
C94 H114 0.929 . S
C95 C92 1.461 . S
C95 C94 1.474 . S
C96 C91 1.342 . S
C96 C94 1.285 . S
C96 H115 0.930 . S
C97 C100 1.424 . S
C97 C102 1.245 . S
C97 C103 1.428 . S
C98 C101 1.260 . S
C98 C102 1.477 . S
C98 H116 0.932 . S
C99 C100 1.384 . S
C99 C101 1.479 . S
C99 H117 0.929 . S
C100 C97 1.424 . S
C100 C99 1.384 . S
C100 H118 0.928 . S
C101 C98 1.260 . S
C101 C99 1.479 . S
C102 C97 1.245 . S
C102 C98 1.477 . S
C102 H119 0.932 . S
C103 U86 2.882 . S
C103 C97 1.428 . S
C103 O106 1.301 . S
C103 O107 1.282 . S
O104 U86 2.441 . S
O104 C90 1.249 . S
O105 U86 2.420 . S
O105 C90 1.202 . S
O106 U86 2.455 . S
O106 C103 1.301 . S
O107 U86 2.449 . S
O107 C103 1.282 . S
H108 C81 0.931 . S
H109 C83 0.929 . S
H110 C84 0.930 . S
H111 C85 0.931 . S
H112 C92 0.932 . S
H113 C93 0.930 . S
H114 C94 0.929 . S
H115 C96 0.930 . S
H116 C98 0.932 . S
H117 C99 0.929 . S
H118 C100 0.928 . S
H119 C102 0.932 . S
C120 C121 1.264 . S
C120 C125 1.479 . S
C120 C130 1.465 . S
C121 C120 1.264 . S
C121 C123 1.339 . S
C121 H148 0.931 . S
C122 C123 1.395 . S
C122 C124 1.320 . S
C123 C121 1.339 . S
C123 C122 1.395 . S
C123 H149 0.929 . S
C124 C122 1.320 . S
C124 C125 1.405 . S
C124 H150 0.930 . S
C125 C120 1.479 . S
C125 C124 1.405 . S
C125 H151 0.931 . S
U126 O127 2.454 . S
U126 O128 2.458 . S
U126 C129 2.984 . S
U126 C130 2.847 . S
U126 C143 2.882 . S
U126 O144 2.441 . S
U126 O145 2.420 . S
U126 O146 2.455 . S
U126 O147 2.449 . S
O127 U126 2.454 . S
O127 C129 1.353 . S
O128 U126 2.458 . S
O128 C129 1.286 . S
C129 U126 2.984 . S
C129 O127 1.353 . S
C129 O128 1.286 . S
C129 C131 1.363 . S
C130 C120 1.465 . S
C130 U126 2.847 . S
C130 O144 1.249 . S
C130 O145 1.202 . S
C131 C129 1.363 . S
C131 C133 1.408 . S
C131 C136 1.342 . S
C132 C133 1.310 . S
C132 C135 1.461 . S
C132 H152 0.932 . S
C133 C131 1.408 . S
C133 C132 1.310 . S
C133 H153 0.930 . S
C134 C135 1.474 . S
C134 C136 1.285 . S
C134 H154 0.929 . S
C135 C132 1.461 . S
C135 C134 1.474 . S
C136 C131 1.342 . S
C136 C134 1.285 . S
C136 H155 0.930 . S
C137 C140 1.424 . S
C137 C142 1.245 . S
C137 C143 1.428 . S
C138 C141 1.260 . S
C138 C142 1.477 . S
C138 H156 0.962 . S
C139 C140 1.384 . S
C139 C141 1.479 . S
C139 H157 0.929 . S
C140 C137 1.424 . S
C140 C139 1.384 . S
C140 H158 0.928 . S
C141 C138 1.260 . S
C141 C139 1.479 . S
C142 C137 1.245 . S
C142 C138 1.477 . S
C142 H159 0.932 . S
C143 U126 2.882 . S
C143 C137 1.428 . S
C143 O146 1.301 . S
C143 O147 1.282 . S
O144 U126 2.441 . S
O144 C130 1.249 . S
O145 U126 2.420 . S
O145 C130 1.202 . S
O146 U126 2.455 . S
O146 C143 1.301 . S
O147 U126 2.449 . S
O147 C143 1.282 . S
H148 C121 0.931 . S
H149 C123 0.929 . S
H150 C124 0.930 . S
H151 C125 0.931 . S
H152 C132 0.932 . S
H153 C133 0.930 . S
H154 C134 0.929 . S
H155 C136 0.930 . S
H156 C138 0.962 . S
H157 C139 0.929 . S
H158 C140 0.928 . S
H159 C142 0.932 . S
C160 C161 1.264 . S
C160 C165 1.479 . S
C160 C170 1.465 . S
C161 C160 1.264 . S
C161 C163 1.339 . S
C161 H188 0.931 . S
C162 C163 1.395 . S
C162 C164 1.320 . S
C163 C161 1.339 . S
C163 C162 1.395 . S
C163 H189 0.929 . S
C164 C162 1.320 . S
C164 C165 1.405 . S
C164 H190 0.930 . S
C165 C160 1.479 . S
C165 C164 1.405 . S
C165 H191 0.931 . S
U166 O167 2.454 . S
U166 O168 2.458 . S
U166 C169 2.984 . S
U166 C170 2.847 . S
U166 C183 2.882 . S
U166 O184 2.441 . S
U166 O185 2.420 . S
U166 O186 2.455 . S
U166 O187 2.449 . S
O167 U166 2.454 . S
O167 C169 1.353 . S
O168 U166 2.458 . S
O168 C169 1.286 . S
C169 U166 2.984 . S
C169 O167 1.353 . S
C169 O168 1.286 . S
C169 C171 1.363 . S
C170 C160 1.465 . S
C170 U166 2.847 . S
C170 O184 1.249 . S
C170 O185 1.202 . S
C171 C169 1.363 . S
C171 C173 1.408 . S
C171 C176 1.342 . S
C172 C173 1.310 . S
C172 C175 1.461 . S
C172 H192 0.932 . S
C173 C171 1.408 . S
C173 C172 1.310 . S
C173 H193 0.930 . S
C174 C175 1.474 . S
C174 C176 1.285 . S
C174 H194 0.929 . S
C175 C172 1.461 . S
C175 C174 1.474 . S
C176 C171 1.342 . S
C176 C174 1.285 . S
C176 H195 0.930 . S
C177 C180 1.424 . S
C177 C182 1.245 . S
C177 C183 1.428 . S
C178 C181 1.260 . S
C178 C182 1.477 . S
C178 H196 0.932 . S
C179 C180 1.384 . S
C179 C181 1.479 . S
C179 H197 0.929 . S
C180 C177 1.424 . S
C180 C179 1.384 . S
C180 H198 0.928 . S
C181 C178 1.260 . S
C181 C179 1.479 . S
C182 C177 1.245 . S
C182 C178 1.477 . S
C182 H199 0.932 . S
C183 U166 2.882 . S
C183 C177 1.428 . S
C183 O186 1.301 . S
C183 O187 1.282 . S
O184 U166 2.441 . S
O184 C170 1.249 . S
O185 U166 2.420 . S
O185 C170 1.202 . S
O186 U166 2.455 . S
O186 C183 1.301 . S
O187 U166 2.449 . S
O187 C183 1.282 . S
H188 C161 0.931 . S
H189 C163 0.929 . S
H190 C164 0.930 . S
H191 C165 0.931 . S
H192 C172 0.932 . S
H193 C173 0.930 . S
H194 C174 0.929 . S
H195 C176 0.930 . S
H196 C178 0.932 . S
H197 C179 0.929 . S
H198 C180 0.928 . S
H199 C182 0.932 . S
C200 C201 1.264 . S
C200 C205 1.479 . S
C200 C210 1.465 . S
C201 C200 1.264 . S
C201 C203 1.339 . S
C201 H228 0.931 . S
C202 C203 1.395 . S
C202 C204 1.320 . S
C203 C201 1.339 . S
C203 C202 1.395 . S
C203 H229 0.929 . S
C204 C202 1.320 . S
C204 C205 1.405 . S
C204 H230 0.930 . S
C205 C200 1.479 . S
C205 C204 1.405 . S
C205 H231 0.931 . S
U206 O207 2.454 . S
U206 O208 2.458 . S
U206 C209 2.984 . S
U206 C210 2.847 . S
U206 C223 2.882 . S
U206 O224 2.441 . S
U206 O225 2.420 . S
U206 O226 2.455 . S
U206 O227 2.449 . S
O207 U206 2.454 . S
O207 C209 1.353 . S
O208 U206 2.458 . S
O208 C209 1.286 . S
C209 U206 2.984 . S
C209 O207 1.353 . S
C209 O208 1.286 . S
C209 C211 1.363 . S
C210 C200 1.465 . S
C210 U206 2.847 . S
C210 O224 1.249 . S
C210 O225 1.202 . S
C211 C209 1.363 . S
C211 C213 1.408 . S
C211 C216 1.342 . S
C212 C213 1.310 . S
C212 C215 1.461 . S
C212 H232 0.932 . S
C213 C211 1.408 . S
C213 C212 1.310 . S
C213 H233 0.930 . S
C214 C215 1.474 . S
C214 C216 1.285 . S
C214 H234 0.929 . S
C215 C212 1.461 . S
C215 C214 1.474 . S
C216 C211 1.342 . S
C216 C214 1.285 . S
C216 H235 0.930 . S
C217 C220 1.424 . S
C217 C222 1.245 . S
C217 C223 1.428 . S
C218 C221 1.260 . S
C218 C222 1.477 . S
C218 H236 0.932 . S
C219 C220 1.384 . S
C219 C221 1.479 . S
C219 H237 0.929 . S
C220 C217 1.424 . S
C220 C219 1.384 . S
C220 H238 0.928 . S
C221 C218 1.260 . S
C221 C219 1.479 . S
C222 C217 1.245 . S
C222 C218 1.477 . S
C222 H239 0.932 . S
C223 U206 2.882 . S
C223 C217 1.428 . S
C223 O226 1.301 . S
C223 O227 1.282 . S
O224 U206 2.441 . S
O224 C210 1.249 . S
O225 U206 2.420 . S
O225 C210 1.202 . S
O226 U206 2.455 . S
O226 C223 1.301 . S
O227 U206 2.449 . S
O227 C223 1.282 . S
H228 C201 0.931 . S
H229 C203 0.929 . S
H230 C204 0.930 . S
H231 C205 0.931 . S
H232 C212 0.932 . S
H233 C213 0.930 . S
H234 C214 0.929 . S
H235 C216 0.930 . S
H236 C218 0.932 . S
H237 C219 0.929 . S
H238 C220 0.928 . S
H239 C222 0.932 . S
C240 C241 1.264 . S
C240 C245 1.479 . S
C240 C250 1.465 . S
C241 C240 1.264 . S
C241 C243 1.339 . S
C241 H268 0.931 . S
C242 C243 1.395 . S
C242 C244 1.320 . S
C243 C241 1.339 . S
C243 C242 1.395 . S
C243 H269 0.929 . S
C244 C242 1.320 . S
C244 C245 1.405 . S
C244 H270 0.930 . S
C245 C240 1.479 . S
C245 C244 1.405 . S
C245 H271 0.931 . S
U246 O247 2.454 . S
U246 O248 2.458 . S
U246 C249 2.984 . S
U246 C250 2.847 . S
U246 C263 2.882 . S
U246 O264 2.441 . S
U246 O265 2.420 . S
U246 O266 2.455 . S
U246 O267 2.449 . S
O247 U246 2.454 . S
O247 C249 1.353 . S
O248 U246 2.458 . S
O248 C249 1.286 . S
C249 U246 2.984 . S
C249 O247 1.353 . S
C249 O248 1.286 . S
C249 C251 1.363 . S
C250 C240 1.465 . S
C250 U246 2.847 . S
C250 O264 1.249 . S
C250 O265 1.202 . S
C251 C249 1.363 . S
C251 C253 1.408 . S
C251 C256 1.342 . S
C252 C253 1.310 . S
C252 C255 1.461 . S
C252 H272 0.932 . S
C253 C251 1.408 . S
C253 C252 1.310 . S
C253 H273 0.930 . S
C254 C255 1.474 . S
C254 C256 1.285 . S
C254 H274 0.929 . S
C255 C252 1.461 . S
C255 C254 1.474 . S
C256 C251 1.342 . S
C256 C254 1.285 . S
C256 H275 0.930 . S
C257 C260 1.424 . S
C257 C262 1.245 . S
C257 C263 1.428 . S
C258 C261 1.260 . S
C258 C262 1.477 . S
C258 H276 0.932 . S
C259 C260 1.384 . S
C259 C261 1.479 . S
C259 H277 0.929 . S
C260 C257 1.424 . S
C260 C259 1.384 . S
C260 H278 0.928 . S
C261 C258 1.260 . S
C261 C259 1.479 . S
C262 C257 1.245 . S
C262 C258 1.477 . S
C262 H279 0.932 . S
C263 U246 2.882 . S
C263 C257 1.428 . S
C263 O266 1.301 . S
C263 O267 1.282 . S
O264 U246 2.441 . S
O264 C250 1.249 . S
O265 U246 2.420 . S
O265 C250 1.202 . S
O266 U246 2.455 . S
O266 C263 1.301 . S
O267 U246 2.449 . S
O267 C263 1.282 . S
H268 C241 0.931 . S
H269 C243 0.929 . S
H270 C244 0.930 . S
H271 C245 0.931 . S
H272 C252 0.932 . S
H273 C253 0.930 . S
H274 C254 0.929 . S
H275 C256 0.930 . S
H276 C258 0.932 . S
H277 C259 0.929 . S
H278 C260 0.928 . S
H279 C262 0.932 . S
C280 C281 1.264 . S
C280 C285 1.479 . S
C280 C290 1.465 . S
C281 C280 1.264 . S
C281 C283 1.339 . S
C281 H308 0.931 . S
C282 C283 1.395 . S
C282 C284 1.320 . S
C283 C281 1.339 . S
C283 C282 1.395 . S
C283 H309 0.929 . S
C284 C282 1.320 . S
C284 C285 1.405 . S
C284 H310 0.930 . S
C285 C280 1.479 . S
C285 C284 1.405 . S
C285 H311 0.931 . S
U286 O287 2.454 . S
U286 O288 2.458 . S
U286 C289 2.984 . S
U286 C290 2.847 . S
U286 C303 2.882 . S
U286 O304 2.441 . S
U286 O305 2.420 . S
U286 O306 2.455 . S
U286 O307 2.449 . S
O287 U286 2.454 . S
O287 C289 1.353 . S
O288 U286 2.458 . S
O288 C289 1.286 . S
C289 U286 2.984 . S
C289 O287 1.353 . S
C289 O288 1.286 . S
C289 C291 1.363 . S
C290 C280 1.465 . S
C290 U286 2.847 . S
C290 O304 1.249 . S
C290 O305 1.202 . S
C291 C289 1.363 . S
C291 C293 1.408 . S
C291 C296 1.342 . S
C292 C293 1.310 . S
C292 C295 1.461 . S
C292 H312 0.932 . S
C293 C291 1.408 . S
C293 C292 1.310 . S
C293 H313 0.930 . S
C294 C295 1.474 . S
C294 C296 1.285 . S
C294 H314 0.929 . S
C295 C292 1.461 . S
C295 C294 1.474 . S
C296 C291 1.342 . S
C296 C294 1.285 . S
C296 H315 0.930 . S
C297 C300 1.424 . S
C297 C302 1.245 . S
C297 C303 1.428 . S
C298 C301 1.260 . S
C298 C302 1.477 . S
C298 H316 0.932 . S
C299 C300 1.384 . S
C299 C301 1.479 . S
C299 H317 0.929 . S
C300 C297 1.424 . S
C300 C299 1.384 . S
C300 H318 0.928 . S
C301 C298 1.260 . S
C301 C299 1.479 . S
C302 C297 1.245 . S
C302 C298 1.477 . S
C302 H319 0.932 . S
C303 U286 2.882 . S
C303 C297 1.428 . S
C303 O306 1.301 . S
C303 O307 1.282 . S
O304 U286 2.441 . S
O304 C290 1.249 . S
O305 U286 2.420 . S
O305 C290 1.202 . S
O306 U286 2.455 . S
O306 C303 1.301 . S
O307 U286 2.449 . S
O307 C303 1.282 . S
H308 C281 0.931 . S
H309 C283 0.929 . S
H310 C284 0.930 . S
H311 C285 0.931 . S
H312 C292 0.932 . S
H313 C293 0.930 . S
H314 C294 0.929 . S
H315 C296 0.930 . S
H316 C298 0.932 . S
H317 C299 0.929 . S
H318 C300 0.928 . S
H319 C302 0.932 . S
Co320 N325 2.057 . S
Co320 O337 2.021 . S
Co320 O340 2.062 . S
Co320 O344 2.117 1_545 S
Co320 O345 2.020 . S
C321 O341 1.259 1_655 S
C321 O344 1.258 . S
Co322 N331 2.057 . S
Co322 O338 2.117 1_565 S
Co322 O339 2.020 1_565 S
Co322 O341 2.021 . S
Co322 O346 2.062 . S
C323 N325 1.316 . S
C323 N326 1.347 . S
C323 H328 0.931 . S
C324 N325 1.356 1_565 S
C324 C327 1.338 1_565 S
C324 H329 0.957 . S
N325 Co320 2.057 . S
N325 C323 1.316 . S
N325 C324 1.356 1_545 S
N326 C323 1.347 . S
N326 C327 1.373 . S
C327 C324 1.338 1_545 S
C327 N326 1.373 . S
C327 H348 0.931 . S
H328 C323 0.931 . S
H329 C324 0.957 . S
C330 O337 1.259 1_455 S
C330 O338 1.258 . S
N331 Co322 2.057 . S
N331 C332 1.316 . S
N331 C333 1.375 1_565 S
C332 N331 1.316 . S
C332 N334 1.347 . S
C332 H343 0.931 . S
C333 N331 1.375 1_545 S
C333 C335 1.350 1_545 S
C333 H342 0.930 . S
N334 C332 1.347 . S
N334 C335 1.373 . S
C335 C333 1.350 1_565 S
C335 N334 1.373 . S
C335 H349 0.931 1_565 S
C336 O339 1.256 . S
C336 O340 1.255 1_455 S
O337 Co320 2.021 . S
O337 C330 1.259 1_655 S
O338 Co322 2.117 1_545 S
O338 C330 1.258 . S
O339 Co322 2.020 1_545 S
O339 C336 1.256 . S
O340 Co320 2.062 . S
O340 C336 1.255 1_655 S
O341 C321 1.259 1_455 S
O341 Co322 2.021 . S
H342 C333 0.930 . S
H343 C332 0.931 . S
O344 Co320 2.117 1_565 S
O344 C321 1.258 . S
O345 Co320 2.020 . S
O345 C347 1.255 1_545 S
O346 Co322 2.062 . S
O346 C347 1.255 1_455 S
C347 O345 1.255 1_565 S
C347 O346 1.255 1_655 S
H348 C327 0.931 . S
H349 C335 0.931 1_545 S
Co350 N355 2.057 . S
Co350 O367 2.021 1_565 S
Co350 O370 2.062 . S
Co350 O374 2.117 1_556 S
Co350 O375 2.020 1_565 S
C351 O371 1.259 . S
C351 O374 1.258 . S
Co352 N361 2.057 . S
Co352 O368 2.117 . S
Co352 O369 2.020 1_545 S
Co352 O371 2.021 1_545 S
Co352 O376 2.062 . S
C353 N355 1.316 . S
C353 N356 1.347 . S
C353 H358 0.931 1_565 S
C354 N355 1.375 . S
C354 C357 1.350 . S
C354 H359 0.930 . S
N355 Co350 2.057 . S
N355 C353 1.316 . S
N355 C354 1.375 . S
N356 C353 1.347 . S
N356 C357 1.373 . S
C357 C354 1.350 . S
C357 N356 1.373 . S
C357 H378 0.931 . S
H358 C353 0.931 1_545 S
H359 C354 0.930 . S
C360 O367 1.259 . S
C360 O368 1.258 1_556 S
N361 Co352 2.057 . S
N361 C362 1.316 . S
N361 C363 1.375 . S
C362 N361 1.316 . S
C362 N364 1.347 . S
C362 H373 0.931 1_545 S
C363 N361 1.375 . S
C363 C365 1.350 . S
C363 H372 0.930 . S
N364 C362 1.347 . S
N364 C365 1.373 . S
C365 C363 1.350 . S
C365 N364 1.373 . S
C365 H379 0.931 . S
C366 O369 1.256 1_556 S
C366 O370 1.255 . S
O367 Co350 2.021 1_545 S
O367 C360 1.259 . S
O368 Co352 2.117 . S
O368 C360 1.258 1_554 S
O369 Co352 2.020 1_565 S
O369 C366 1.256 1_554 S
O370 Co350 2.062 . S
O370 C366 1.255 . S
O371 C351 1.259 . S
O371 Co352 2.021 1_565 S
H372 C363 0.930 . S
H373 C362 0.931 1_565 S
O374 Co350 2.117 1_554 S
O374 C351 1.258 . S
O375 Co350 2.020 1_545 S
O375 C377 1.256 1_556 S
O376 Co352 2.062 . S
O376 C377 1.255 . S
C377 O375 1.256 1_554 S
C377 O376 1.255 . S
H378 C357 0.931 . S
H379 C365 0.931 . S
Co380 N385 2.057 . S
Co380 O397 2.021 . S
Co380 O400 2.062 . S
Co380 O404 2.117 . S
Co380 O405 2.020 . S
C381 O401 1.259 . S
C381 O404 1.258 . S
Co382 N391 2.057 . S
Co382 O398 2.117 . S
Co382 O399 2.020 . S
Co382 O401 2.021 . S
Co382 O406 2.062 . S
C383 N385 1.316 . S
C383 N386 1.347 . S
C383 H388 0.931 . S
C384 N385 1.375 . S
C384 C387 1.350 . S
C384 H389 0.930 . S
N385 Co380 2.057 . S
N385 C383 1.316 . S
N385 C384 1.375 . S
N386 C383 1.347 . S
N386 C387 1.373 . S
C387 C384 1.350 . S
C387 N386 1.373 . S
C387 H408 0.931 . S
H388 C383 0.931 . S
H389 C384 0.930 . S
C390 O397 1.259 . S
C390 O398 1.258 . S
N391 Co382 2.057 . S
N391 C392 1.316 . S
N391 C393 1.375 . S
C392 N391 1.316 . S
C392 N394 1.347 . S
C392 H403 0.931 . S
C393 N391 1.375 . S
C393 C395 1.350 . S
C393 H402 0.930 . S
N394 C392 1.347 . S
N394 C395 1.373 . S
C395 C393 1.350 . S
C395 N394 1.373 . S
C395 H409 0.931 . S
C396 O399 1.256 . S
C396 O400 1.255 . S
O397 Co380 2.021 . S
O397 C390 1.259 . S
O398 Co382 2.117 . S
O398 C390 1.258 . S
O399 Co382 2.020 . S
O399 C396 1.256 . S
O400 Co380 2.062 . S
O400 C396 1.255 . S
O401 C381 1.259 . S
O401 Co382 2.021 . S
H402 C393 0.930 . S
H403 C392 0.931 . S
O404 Co380 2.117 . S
O404 C381 1.258 . S
O405 Co380 2.020 . S
O405 C407 1.256 . S
O406 Co382 2.062 . S
O406 C407 1.255 . S
C407 O405 1.256 . S
C407 O406 1.255 . S
H408 C387 0.931 . S
H409 C395 0.931 . S
Co410 N415 2.057 . S
Co410 O427 2.021 . S
Co410 O430 2.062 . S
Co410 O434 2.117 1_455 S
Co410 O435 2.023 . S
C411 O431 1.259 1_556 S
C411 O434 1.258 . S
Co412 N421 2.057 . S
Co412 O428 2.117 1_655 S
Co412 O429 2.020 1_655 S
Co412 O431 2.021 . S
Co412 O436 2.062 . S
C413 N415 1.316 . S
C413 N416 1.347 . S
C413 H418 0.931 . S
C414 N415 1.375 1_655 S
C414 C417 1.350 1_655 S
C414 H419 0.930 . S
N415 Co410 2.057 . S
N415 C413 1.316 . S
N415 C414 1.375 1_455 S
N416 C413 1.347 . S
N416 C417 1.373 . S
C417 C414 1.350 1_455 S
C417 N416 1.373 . S
C417 H438 0.931 1_455 S
H418 C413 0.931 . S
H419 C414 0.930 . S
C420 O427 1.259 1_554 S
C420 O428 1.258 . S
N421 Co412 2.057 . S
N421 C422 1.316 . S
N421 C423 1.375 1_655 S
C422 N421 1.316 . S
C422 N424 1.347 . S
C422 H433 0.931 . S
C423 N421 1.375 1_455 S
C423 C425 1.350 1_455 S
C423 H432 0.930 . S
N424 C422 1.347 . S
N424 C425 1.373 . S
C425 C423 1.350 1_655 S
C425 N424 1.373 . S
C425 H439 0.931 1_655 S
C426 O429 1.256 . S
C426 O430 1.255 1_554 S
O427 Co410 2.021 . S
O427 C420 1.259 1_556 S
O428 Co412 2.117 1_455 S
O428 C420 1.258 . S
O429 Co412 2.020 1_455 S
O429 C426 1.256 . S
O430 Co410 2.062 . S
O430 C426 1.255 1_556 S
O431 C411 1.259 1_554 S
O431 Co412 2.021 . S
H432 C423 0.930 . S
H433 C422 0.931 . S
O434 Co410 2.117 1_655 S
O434 C411 1.258 . S
O435 Co410 2.023 . S
O435 C437 1.252 1_455 S
O436 Co412 2.062 . S
O436 C437 1.255 1_554 S
C437 O435 1.252 1_655 S
C437 O436 1.255 1_556 S
H438 C417 0.931 1_655 S
H439 C425 0.931 1_455 S
H440 C446 0.930 . S
H441 C449 0.930 . S
H442 C450 0.930 1_655 S
H443 C451 0.930 1_655 S
H444 C454 0.930 . S
H445 C455 0.930 . S
C446 H440 0.930 . S
C446 C447 1.355 . S
C446 C448 1.415 . S
C447 C446 1.355 . S
C447 C449 1.419 . S
C448 C446 1.415 . S
C448 C453 1.425 . S
C448 C455 1.409 . S
C449 H441 0.930 . S
C449 C447 1.419 . S
C449 C450 1.362 . S
C450 H442 0.930 1_455 S
C450 C449 1.362 . S
C450 C453 1.409 . S
C451 H443 0.930 1_455 S
C451 C452 1.355 . S
C451 C453 1.415 . S
C452 C451 1.355 . S
C452 C454 1.419 . S
C453 C448 1.425 . S
C453 C450 1.409 . S
C453 C451 1.415 . S
C454 H444 0.930 . S
C454 C452 1.419 . S
C454 C455 1.362 . S
C455 H445 0.930 . S
C455 C448 1.409 . S
C455 C454 1.362 . S
H456 C462 0.930 . S
H457 C465 0.930 . S
H458 C466 0.930 1_545 S
H459 C467 0.952 . S
H460 C470 0.930 . S
H461 C471 0.930 . S
C462 H456 0.930 . S
C462 C463 1.355 . S
C462 C464 1.415 . S
C463 C462 1.355 . S
C463 C465 1.419 . S
C464 C462 1.415 . S
C464 C469 1.425 . S
C464 C471 1.409 . S
C465 H457 0.930 . S
C465 C463 1.419 . S
C465 C466 1.362 . S
C466 H458 0.930 1_565 S
C466 C465 1.362 . S
C466 C469 1.409 . S
C467 H459 0.952 . S
C467 C468 1.355 . S
C467 C469 1.415 . S
C468 C467 1.355 . S
C468 C470 1.419 . S
C469 C464 1.425 . S
C469 C466 1.409 . S
C469 C467 1.415 . S
C470 H460 0.930 . S
C470 C468 1.419 . S
C470 C471 1.362 . S
C471 H461 0.930 . S
C471 C464 1.409 . S
C471 C470 1.362 . S
H472 C478 0.930 . S
H473 C481 0.930 . S
H474 C482 0.930 . S
H475 C483 0.930 . S
H476 C486 0.930 . S
H477 C487 0.930 . S
C478 H472 0.930 . S
C478 C479 1.355 . S
C478 C480 1.415 . S
C479 C478 1.355 . S
C479 C481 1.419 . S
C480 C478 1.415 . S
C480 C485 1.425 . S
C480 C487 1.409 . S
C481 H473 0.930 . S
C481 C479 1.419 . S
C481 C482 1.362 . S
C482 H474 0.930 . S
C482 C481 1.362 . S
C482 C485 1.409 . S
C483 H475 0.930 . S
C483 C484 1.355 . S
C483 C485 1.415 . S
C484 C483 1.355 . S
C484 C486 1.419 . S
C485 C480 1.425 . S
C485 C482 1.409 . S
C485 C483 1.415 . S
C486 H476 0.930 . S
C486 C484 1.419 . S
C486 C487 1.362 . S
C487 H477 0.930 . S
C487 C480 1.409 . S
C487 C486 1.362 . S
H488 C494 0.930 . S
H489 C497 0.930 . S
H490 C498 0.930 . S
H491 C499 0.930 . S
H492 C502 0.930 . S
H493 C503 0.930 . S
C494 H488 0.930 . S
C494 C495 1.355 . S
C494 C496 1.415 . S
C495 C494 1.355 . S
C495 C497 1.419 . S
C496 C494 1.415 . S
C496 C501 1.425 . S
C496 C503 1.409 . S
C497 H489 0.930 . S
C497 C495 1.419 . S
C497 C498 1.362 . S
C498 H490 0.930 . S
C498 C497 1.362 . S
C498 C501 1.409 . S
C499 H491 0.930 . S
C499 C500 1.355 . S
C499 C501 1.415 . S
C500 C499 1.355 . S
C500 C502 1.419 . S
C501 C496 1.425 . S
C501 C498 1.409 . S
C501 C499 1.415 . S
C502 H492 0.930 . S
C502 C500 1.419 . S
C502 C503 1.362 . S
C503 H493 0.930 . S
C503 C496 1.409 . S
C503 C502 1.362 . S
H504 C510 0.930 . S
H505 C513 0.930 . S
H506 C514 0.930 1_556 S
H507 C515 0.912 1_556 S
H508 C518 0.930 . S
H509 C519 0.930 . S
C510 H504 0.930 . S
C510 C511 1.355 . S
C510 C512 1.415 . S
C511 C510 1.355 . S
C511 C513 1.419 . S
C512 C510 1.415 . S
C512 C517 1.425 . S
C512 C519 1.409 . S
C513 H505 0.930 . S
C513 C511 1.419 . S
C513 C514 1.362 . S
C514 H506 0.930 1_554 S
C514 C513 1.362 . S
C514 C517 1.409 . S
C515 H507 0.912 1_554 S
C515 C516 1.355 . S
C515 C517 1.415 . S
C516 C515 1.355 . S
C516 C518 1.419 . S
C517 C512 1.425 . S
C517 C514 1.409 . S
C517 C515 1.415 . S
C518 H508 0.930 . S
C518 C516 1.419 . S
C518 C519 1.362 . S
C519 H509 0.930 . S
C519 C512 1.409 . S
C519 C518 1.362 . S
H520 C526 0.930 . S
H521 C529 0.930 . S
H522 C530 0.930 . S
H523 C531 0.930 . S
H524 C534 0.924 1_545 S
H525 C535 0.930 1_545 S
C526 H520 0.930 . S
C526 C527 1.355 . S
C526 C528 1.415 . S
C527 C526 1.355 . S
C527 C529 1.419 . S
C528 C526 1.415 . S
C528 C533 1.425 . S
C528 C535 1.409 . S
C529 H521 0.930 . S
C529 C527 1.419 . S
C529 C530 1.362 . S
C530 H522 0.930 . S
C530 C529 1.362 . S
C530 C533 1.409 . S
C531 H523 0.930 . S
C531 C532 1.355 . S
C531 C533 1.415 . S
C532 C531 1.355 . S
C532 C534 1.419 . S
C533 C528 1.425 . S
C533 C530 1.409 . S
C533 C531 1.415 . S
C534 H524 0.924 1_565 S
C534 C532 1.419 . S
C534 C535 1.362 . S
C535 H525 0.930 1_565 S
C535 C528 1.409 . S
C535 C534 1.362 . S
H536 C542 0.930 . S
H537 C545 0.930 . S
H538 C546 0.930 1_554 S
H539 C547 0.930 1_554 S
H540 C550 0.930 . S
H541 C551 0.930 . S
C542 H536 0.930 . S
C542 C543 1.355 . S
C542 C544 1.415 . S
C543 C542 1.355 . S
C543 C545 1.419 . S
C544 C542 1.415 . S
C544 C549 1.425 . S
C544 C551 1.409 . S
C545 H537 0.930 . S
C545 C543 1.419 . S
C545 C546 1.362 . S
C546 H538 0.930 1_556 S
C546 C545 1.362 . S
C546 C549 1.409 . S
C547 H539 0.930 1_556 S
C547 C548 1.355 . S
C547 C549 1.415 . S
C548 C547 1.355 . S
C548 C550 1.419 . S
C549 C544 1.425 . S
C549 C546 1.409 . S
C549 C547 1.415 . S
C550 H540 0.930 . S
C550 C548 1.419 . S
C550 C551 1.362 . S
C551 H541 0.930 . S
C551 C544 1.409 . S
C551 C550 1.362 . S
H552 C558 0.930 . S
H553 C561 0.930 . S
H554 C562 0.930 . S
H555 C563 0.930 . S
H556 C566 0.930 . S
H557 C567 0.930 . S
C558 H552 0.930 . S
C558 C559 1.355 . S
C558 C560 1.415 . S
C559 C558 1.355 . S
C559 C561 1.419 . S
C560 C558 1.415 . S
C560 C565 1.425 . S
C560 C567 1.409 . S
C561 H553 0.930 . S
C561 C559 1.419 . S
C561 C562 1.362 . S
C562 H554 0.930 . S
C562 C561 1.362 . S
C562 C565 1.409 . S
C563 H555 0.930 . S
C563 C564 1.355 . S
C563 C565 1.415 . S
C564 C563 1.355 . S
C564 C566 1.419 . S
C565 C560 1.425 . S
C565 C562 1.409 . S
C565 C563 1.415 . S
C566 H556 0.930 . S
C566 C564 1.419 . S
C566 C567 1.362 . S
C567 H557 0.930 . S
C567 C560 1.409 . S
C567 C566 1.362 . S
H568 C574 0.930 . S
H569 C577 0.930 . S
H570 C578 0.930 . S
H571 C579 0.930 . S
H572 C582 0.930 . S
H573 C583 0.930 . S
C574 H568 0.930 . S
C574 C575 1.355 . S
C574 C576 1.415 . S
C575 C574 1.355 . S
C575 C577 1.419 . S
C576 C574 1.415 . S
C576 C581 1.425 . S
C576 C583 1.409 1_554 S
C577 H569 0.930 . S
C577 C575 1.419 . S
C577 C578 1.362 . S
C578 H570 0.930 . S
C578 C577 1.362 . S
C578 C581 1.409 . S
C579 H571 0.930 . S
C579 C580 1.355 . S
C579 C581 1.415 . S
C580 C579 1.355 . S
C580 C582 1.419 1_554 S
C581 C576 1.425 . S
C581 C578 1.409 . S
C581 C579 1.415 . S
C582 H572 0.930 . S
C582 C580 1.419 1_556 S
C582 C583 1.362 . S
C583 H573 0.930 . S
C583 C576 1.409 1_556 S
C583 C582 1.362 . S
H584 C590 0.930 . S
H585 C593 0.930 1_554 S
H586 C594 0.930 1_554 S
H587 C595 0.930 1_554 S
H588 C598 0.930 . S
H589 C599 0.930 . S
C590 H584 0.930 . S
C590 C591 1.355 . S
C590 C592 1.415 . S
C591 C590 1.355 . S
C591 C593 1.419 . S
C592 C590 1.415 . S
C592 C597 1.425 . S
C592 C599 1.409 . S
C593 H585 0.930 1_556 S
C593 C591 1.419 . S
C593 C594 1.362 . S
C594 H586 0.930 1_556 S
C594 C593 1.362 . S
C594 C597 1.409 . S
C595 H587 0.930 1_556 S
C595 C596 1.355 . S
C595 C597 1.415 . S
C596 C595 1.355 . S
C596 C598 1.419 . S
C597 C592 1.425 . S
C597 C594 1.409 . S
C597 C595 1.415 . S
C598 H588 0.930 . S
C598 C596 1.419 . S
C598 C599 1.362 . S
C599 H589 0.930 . S
C599 C592 1.409 . S
C599 C598 1.362 . S
H600 C606 0.930 . S
H601 C609 0.930 . S
H602 C610 0.930 . S
H603 C611 0.930 1_455 S
H604 C614 0.930 . S
H605 C615 0.930 . S
C606 H600 0.930 . S
C606 C607 1.355 . S
C606 C608 1.415 . S
C607 C606 1.355 . S
C607 C609 1.419 1_655 S
C608 C606 1.415 . S
C608 C613 1.425 . S
C608 C615 1.409 . S
C609 H601 0.930 . S
C609 C607 1.419 1_455 S
C609 C610 1.362 . S
C610 H602 0.930 . S
C610 C609 1.362 . S
C610 C613 1.409 1_455 S
C611 H603 0.930 1_655 S
C611 C612 1.355 . S
C611 C613 1.415 . S
C612 C611 1.355 . S
C612 C614 1.419 . S
C613 C608 1.425 . S
C613 C610 1.409 1_655 S
C613 C611 1.415 . S
C614 H604 0.930 . S
C614 C612 1.419 . S
C614 C615 1.362 . S
C615 H605 0.930 . S
C615 C608 1.409 . S
C615 C614 1.362 . S
H616 C622 0.930 . S
H617 C625 0.930 . S
H618 C626 0.930 . S
H619 C627 0.930 . S
H620 C630 0.930 . S
H621 C631 0.930 . S
C622 H616 0.930 . S
C622 C623 1.355 . S
C622 C624 1.415 . S
C623 C622 1.355 . S
C623 C625 1.419 . S
C624 C622 1.415 . S
C624 C629 1.425 . S
C624 C631 1.409 . S
C625 H617 0.930 . S
C625 C623 1.419 . S
C625 C626 1.362 . S
C626 H618 0.930 . S
C626 C625 1.362 . S
C626 C629 1.409 . S
C627 H619 0.930 . S
C627 C628 1.355 . S
C627 C629 1.415 . S
C628 C627 1.355 . S
C628 C630 1.419 . S
C629 C624 1.425 . S
C629 C626 1.409 . S
C629 C627 1.415 . S
C630 H620 0.930 . S
C630 C628 1.419 . S
C630 C631 1.362 . S
C631 H621 0.930 . S
C631 C624 1.409 . S
C631 C630 1.362 . S
H632 C638 0.930 . S
H633 C641 0.930 . S
H634 C642 0.928 . S
H635 C643 0.930 . S
H636 C646 0.927 . S
H637 C647 0.930 1_455 S
C638 H632 0.930 . S
C638 C639 1.355 . S
C638 C640 1.415 . S
C639 C638 1.355 . S
C639 C641 1.419 . S
C640 C638 1.415 . S
C640 C645 1.425 . S
C640 C647 1.409 . S
C641 H633 0.930 . S
C641 C639 1.419 . S
C641 C642 1.362 . S
C642 H634 0.928 . S
C642 C641 1.362 . S
C642 C645 1.409 . S
C643 H635 0.930 . S
C643 C644 1.355 . S
C643 C645 1.415 . S
C644 C643 1.355 . S
C644 C646 1.422 1_655 S
C645 C640 1.425 . S
C645 C642 1.409 . S
C645 C643 1.415 . S
C646 H636 0.927 . S
C646 C644 1.422 1_455 S
C646 C647 1.363 1_455 S
C647 H637 0.930 1_655 S
C647 C640 1.409 . S
C647 C646 1.363 1_655 S
H648 C654 0.930 . S
H649 C657 0.930 . S
H650 C658 0.930 . S
H651 C659 0.930 . S
H652 C662 0.930 . S
H653 C663 0.930 . S
C654 H648 0.930 . S
C654 C655 1.355 . S
C654 C656 1.415 . S
C655 C654 1.355 . S
C655 C657 1.419 . S
C656 C654 1.415 . S
C656 C661 1.425 . S
C656 C663 1.409 . S
C657 H649 0.930 . S
C657 C655 1.419 . S
C657 C658 1.362 . S
C658 H650 0.930 . S
C658 C657 1.362 . S
C658 C661 1.409 . S
C659 H651 0.930 . S
C659 C660 1.355 . S
C659 C661 1.415 . S
C660 C659 1.355 . S
C660 C662 1.419 . S
C661 C656 1.425 . S
C661 C658 1.409 . S
C661 C659 1.415 . S
C662 H652 0.930 . S
C662 C660 1.419 . S
C662 C663 1.362 . S
C663 H653 0.930 . S
C663 C656 1.409 . S
C663 C662 1.362 . S
H664 C670 0.930 . S
H665 C673 0.930 . S
H666 C674 0.930 . S
H667 C675 0.930 . S
H668 C678 0.930 . S
H669 C679 0.930 . S
C670 H664 0.930 . S
C670 C671 1.355 . S
C670 C672 1.415 . S
C671 C670 1.355 . S
C671 C673 1.419 . S
C672 C670 1.415 . S
C672 C677 1.425 . S
C672 C679 1.409 . S
C673 H665 0.930 . S
C673 C671 1.419 . S
C673 C674 1.362 . S
C674 H666 0.930 . S
C674 C673 1.362 . S
C674 C677 1.409 . S
C675 H667 0.930 . S
C675 C676 1.355 . S
C675 C677 1.415 . S
C676 C675 1.355 . S
C676 C678 1.419 . S
C677 C672 1.425 . S
C677 C674 1.409 . S
C677 C675 1.415 . S
C678 H668 0.930 . S
C678 C676 1.419 . S
C678 C679 1.362 . S
C679 H669 0.930 . S
C679 C672 1.409 . S
C679 C678 1.362 . S
H680 C686 0.930 . S
H681 C689 0.930 . S
H682 C690 0.930 . S
H683 C691 0.930 . S
H684 C694 0.930 . S
H685 C695 0.930 . S
C686 H680 0.930 . S
C686 C687 1.355 . S
C686 C688 1.415 . S
C687 C686 1.355 . S
C687 C689 1.419 . S
C688 C686 1.415 . S
C688 C693 1.425 . S
C688 C695 1.409 . S
C689 H681 0.930 . S
C689 C687 1.419 . S
C689 C690 1.362 . S
C690 H682 0.930 . S
C690 C689 1.362 . S
C690 C693 1.409 . S
C691 H683 0.930 . S
C691 C692 1.355 . S
C691 C693 1.415 . S
C692 C691 1.355 . S
C692 C694 1.419 . S
C693 C688 1.425 . S
C693 C690 1.409 . S
C693 C691 1.415 . S
C694 H684 0.930 . S
C694 C692 1.419 . S
C694 C695 1.362 . S
C695 H685 0.930 . S
C695 C688 1.409 . S
C695 C694 1.362 . S
H696 C702 0.930 . S
H697 C705 0.930 . S
H698 C706 0.930 . S
H699 C707 0.930 . S
H700 C710 0.930 1_544 S
H701 C711 0.930 1_544 S
C702 H696 0.930 . S
C702 C703 1.355 . S
C702 C704 1.415 . S
C703 C702 1.355 . S
C703 C705 1.419 . S
C704 C702 1.415 . S
C704 C709 1.425 . S
C704 C711 1.409 . S
C705 H697 0.930 . S
C705 C703 1.419 . S
C705 C706 1.362 . S
C706 H698 0.930 . S
C706 C705 1.362 . S
C706 C709 1.409 . S
C707 H699 0.930 . S
C707 C708 1.355 . S
C707 C709 1.415 . S
C708 C707 1.355 . S
C708 C710 1.419 . S
C709 C704 1.425 . S
C709 C706 1.409 . S
C709 C707 1.415 . S
C710 H700 0.930 1_566 S
C710 C708 1.419 . S
C710 C711 1.362 . S
C711 H701 0.930 1_566 S
C711 C704 1.409 . S
C711 C710 1.362 . S
H712 C718 0.930 . S
H713 C721 0.930 . S
H714 C722 0.930 . S
H715 C723 0.930 . S
H716 C726 0.930 . S
H717 C727 0.930 . S
C718 H712 0.930 . S
C718 C719 1.355 . S
C718 C720 1.415 . S
C719 C718 1.355 . S
C719 C721 1.419 . S
C720 C718 1.415 . S
C720 C725 1.425 . S
C720 C727 1.409 . S
C721 H713 0.930 . S
C721 C719 1.419 . S
C721 C722 1.362 . S
C722 H714 0.930 . S
C722 C721 1.362 . S
C722 C725 1.409 . S
C723 H715 0.930 . S
C723 C724 1.355 . S
C723 C725 1.415 . S
C724 C723 1.355 . S
C724 C726 1.419 . S
C725 C720 1.425 . S
C725 C722 1.409 . S
C725 C723 1.415 . S
C726 H716 0.930 . S
C726 C724 1.419 . S
C726 C727 1.362 . S
C727 H717 0.930 . S
C727 C720 1.409 . S
C727 C726 1.362 . S
H728 C734 0.930 . S
H729 C737 0.930 . S
H730 C738 0.930 1_556 S
H731 C739 0.930 1_556 S
H732 C742 0.930 . S
H733 C743 0.930 . S
C734 H728 0.930 . S
C734 C735 1.355 . S
C734 C736 1.415 . S
C735 C734 1.355 . S
C735 C737 1.419 . S
C736 C734 1.415 . S
C736 C741 1.425 . S
C736 C743 1.409 . S
C737 H729 0.930 . S
C737 C735 1.419 . S
C737 C738 1.362 . S
C738 H730 0.930 1_554 S
C738 C737 1.362 . S
C738 C741 1.409 . S
C739 H731 0.930 1_554 S
C739 C740 1.355 . S
C739 C741 1.415 . S
C740 C739 1.355 . S
C740 C742 1.419 . S
C741 C736 1.425 . S
C741 C738 1.409 . S
C741 C739 1.415 . S
C742 H732 0.930 . S
C742 C740 1.419 . S
C742 C743 1.362 . S
C743 H733 0.930 . S
C743 C736 1.409 . S
C743 C742 1.362 . S
H744 C750 0.930 . S
H745 C753 0.930 . S
H746 C754 0.930 . S
H747 C755 0.930 . S
H748 C758 0.930 . S
H749 C759 0.930 . S
C750 H744 0.930 . S
C750 C751 1.355 . S
C750 C752 1.415 . S
C751 C750 1.355 . S
C751 C753 1.419 . S
C752 C750 1.415 . S
C752 C757 1.425 . S
C752 C759 1.409 . S
C753 H745 0.930 . S
C753 C751 1.419 . S
C753 C754 1.362 . S
C754 H746 0.930 . S
C754 C753 1.362 . S
C754 C757 1.409 . S
C755 H747 0.930 . S
C755 C756 1.355 . S
C755 C757 1.415 . S
C756 C755 1.355 . S
C756 C758 1.419 . S
C757 C752 1.425 . S
C757 C754 1.409 . S
C757 C755 1.415 . S
C758 H748 0.930 . S
C758 C756 1.419 . S
C758 C759 1.362 . S
C759 H749 0.930 . S
C759 C752 1.409 . S
C759 C758 1.362 . S
H760 C766 0.930 . S
H761 C769 0.930 . S
H762 C770 0.930 1_455 S
H763 C771 0.930 . S
H764 C774 0.936 . S
H765 C775 0.919 1_554 S
C766 H760 0.930 . S
C766 C767 1.355 . S
C766 C768 1.415 . S
C767 C766 1.355 . S
C767 C769 1.419 . S
C768 C766 1.415 . S
C768 C773 1.425 . S
C768 C775 1.420 . S
C769 H761 0.930 . S
C769 C767 1.419 . S
C769 C770 1.362 . S
C770 H762 0.930 1_655 S
C770 C769 1.362 . S
C770 C773 1.409 . S
C771 H763 0.930 . S
C771 C772 1.355 . S
C771 C773 1.415 . S
C772 C771 1.355 . S
C772 C774 1.413 1_556 S
C773 C768 1.425 . S
C773 C770 1.409 . S
C773 C771 1.415 . S
C774 H764 0.936 . S
C774 C772 1.413 1_554 S
C774 C775 1.363 1_554 S
C775 H765 0.919 1_556 S
C775 C768 1.420 . S
C775 C774 1.363 1_556 S
H776 C782 0.930 . S
H777 C785 0.930 . S
H778 C786 0.930 . S
H779 C787 0.930 . S
H780 C790 0.930 . S
H781 C791 0.930 . S
C782 H776 0.930 . S
C782 C783 1.355 . S
C782 C784 1.415 . S
C783 C782 1.355 . S
C783 C785 1.419 . S
C784 C782 1.415 . S
C784 C789 1.425 . S
C784 C791 1.409 . S
C785 H777 0.930 . S
C785 C783 1.419 . S
C785 C786 1.362 . S
C786 H778 0.930 . S
C786 C785 1.362 . S
C786 C789 1.409 . S
C787 H779 0.930 . S
C787 C788 1.355 . S
C787 C789 1.415 . S
C788 C787 1.355 . S
C788 C790 1.419 . S
C789 C784 1.425 . S
C789 C786 1.409 . S
C789 C787 1.415 . S
C790 H780 0.930 . S
C790 C788 1.419 . S
C790 C791 1.362 . S
C791 H781 0.930 . S
C791 C784 1.409 . S
C791 C790 1.362 . S
H792 C798 0.930 . S
H793 C801 0.930 . S
H794 C802 0.930 . S
H795 C803 0.930 . S
H796 C806 0.930 1_655 S
H797 C807 0.930 1_655 S
C798 H792 0.930 . S
C798 C799 1.355 . S
C798 C800 1.415 . S
C799 C798 1.355 . S
C799 C801 1.419 . S
C800 C798 1.415 . S
C800 C805 1.425 . S
C800 C807 1.409 . S
C801 H793 0.930 . S
C801 C799 1.419 . S
C801 C802 1.362 . S
C802 H794 0.930 . S
C802 C801 1.362 . S
C802 C805 1.409 . S
C803 H795 0.930 . S
C803 C804 1.355 . S
C803 C805 1.415 . S
C804 C803 1.355 . S
C804 C806 1.419 . S
C805 C800 1.425 . S
C805 C802 1.409 . S
C805 C803 1.415 . S
C806 H796 0.930 1_455 S
C806 C804 1.419 . S
C806 C807 1.362 . S
C807 H797 0.930 1_455 S
C807 C800 1.409 . S
C807 C806 1.362 . S
H808 C814 0.930 . S
H809 C817 0.930 . S
H810 C818 0.930 . S
H811 C819 0.930 . S
H812 C822 0.930 . S
H813 C823 0.930 . S
C814 H808 0.930 . S
C814 C815 1.355 . S
C814 C816 1.415 . S
C815 C814 1.355 . S
C815 C817 1.419 . S
C816 C814 1.415 . S
C816 C821 1.425 . S
C816 C823 1.409 . S
C817 H809 0.930 . S
C817 C815 1.419 . S
C817 C818 1.362 . S
C818 H810 0.930 . S
C818 C817 1.362 . S
C818 C821 1.409 . S
C819 H811 0.930 . S
C819 C820 1.355 . S
C819 C821 1.415 . S
C820 C819 1.355 . S
C820 C822 1.419 . S
C821 C816 1.425 . S
C821 C818 1.409 . S
C821 C819 1.415 . S
C822 H812 0.930 . S
C822 C820 1.419 . S
C822 C823 1.362 . S
C823 H813 0.930 . S
C823 C816 1.409 . S
C823 C822 1.362 . S
C447 C21 2.232 . S
C452 C336 2.232 . S
C463 C61 1.146 . S
C468 N356 1.165 . S
C484 C390 1.974 . S
C479 C82 1.975 . S
C495 C135 1.428 . S
C500 N424 1.330 . S
C516 C377 2.370 . S
C511 C15 2.359 . S
C532 N334 1.171 . S
C527 C42 1.186 . S
C548 C411 2.042 . S
C543 C101 2.042 . S
C564 N386 1.088 . S
C559 C122 1.122 . S
C575 C2 1.904 . S
C580 C426 1.905 . S
C596 C360 1.733 . S
C591 C95 1.722 . S
C607 C141 1.596 . S
C612 C321 1.588 . S
C623 C55 1.459 . S
C628 C407 1.498 . S
C644 C347 2.249 . S
C639 C181 2.169 . S
C655 C202 1.131 . S
C660 N364 1.159 . S
C671 C255 1.998 . S
C676 C381 2.010 . S
C687 C295 1.430 . S
C692 N416 1.358 . S
C703 C175 2.320 . S
C708 C366 2.348 . S
C724 N326 1.302 . S
C719 C221 1.293 . S
C740 C420 1.989 . S
C735 C242 1.944 . S
C756 N394 1.153 . S
C751 C301 1.153 . S
C767 C162 1.808 . S
C772 C437 1.869 . S
C788 C351 1.762 . S
C783 C261 1.711 . S
C804 C330 1.542 . S
C799 C282 1.545 . S
C815 C215 1.506 . S
C820 C396 1.539 . S
