# Generated by pormake.
# Topology soc, (4,6)-cn, num edge types: 1
# Building blocks:
#     Node 0, Type 0, BuildingBlock: ESEHIV_clean_sbu_0, # of connection points: 4
#     Node 1, Type 0, BuildingBlock: ESEHIV_clean_sbu_0, # of connection points: 4
#     Node 2, Type 0, BuildingBlock: ESEHIV_clean_sbu_0, # of connection points: 4
#     Node 3, Type 0, BuildingBlock: ESEHIV_clean_sbu_0, # of connection points: 4
#     Node 4, Type 0, BuildingBlock: ESEHIV_clean_sbu_0, # of connection points: 4
#     Node 5, Type 0, BuildingBlock: ESEHIV_clean_sbu_0, # of connection points: 4
#     Node 6, Type 0, BuildingBlock: ESEHIV_clean_sbu_0, # of connection points: 4
#     Node 7, Type 0, BuildingBlock: ESEHIV_clean_sbu_0, # of connection points: 4
#     Node 8, Type 0, BuildingBlock: ESEHIV_clean_sbu_0, # of connection points: 4
#     Node 9, Type 0, BuildingBlock: ESEHIV_clean_sbu_0, # of connection points: 4
#     Node 10, Type 0, BuildingBlock: ESEHIV_clean_sbu_0, # of connection points: 4
#     Node 11, Type 0, BuildingBlock: ESEHIV_clean_sbu_0, # of connection points: 4
#     Node 12, Type 1, BuildingBlock: PAMTOO_clean_sbu_0, # of connection points: 6
#     Node 13, Type 1, BuildingBlock: PAMTOO_clean_sbu_0, # of connection points: 6
#     Node 14, Type 1, BuildingBlock: PAMTOO_clean_sbu_0, # of connection points: 6
#     Node 15, Type 1, BuildingBlock: PAMTOO_clean_sbu_0, # of connection points: 6
#     Node 16, Type 1, BuildingBlock: PAMTOO_clean_sbu_0, # of connection points: 6
#     Node 17, Type 1, BuildingBlock: PAMTOO_clean_sbu_0, # of connection points: 6
#     Node 18, Type 1, BuildingBlock: PAMTOO_clean_sbu_0, # of connection points: 6
#     Node 19, Type 1, BuildingBlock: PAMTOO_clean_sbu_0, # of connection points: 6
#     Edge 20, Type (0, 1), BuildingBlock: MIFKUJ_clean_linker_0, # of connection points: 2
#     Edge 21, Type (0, 1), BuildingBlock: MIFKUJ_clean_linker_0, # of connection points: 2
#     Edge 22, Type (0, 1), BuildingBlock: MIFKUJ_clean_linker_0, # of connection points: 2
#     Edge 23, Type (0, 1), BuildingBlock: MIFKUJ_clean_linker_0, # of connection points: 2
#     Edge 24, Type (0, 1), BuildingBlock: MIFKUJ_clean_linker_0, # of connection points: 2
#     Edge 25, Type (0, 1), BuildingBlock: MIFKUJ_clean_linker_0, # of connection points: 2
#     Edge 26, Type (0, 1), BuildingBlock: MIFKUJ_clean_linker_0, # of connection points: 2
#     Edge 27, Type (0, 1), BuildingBlock: MIFKUJ_clean_linker_0, # of connection points: 2
#     Edge 28, Type (0, 1), BuildingBlock: MIFKUJ_clean_linker_0, # of connection points: 2
#     Edge 29, Type (0, 1), BuildingBlock: MIFKUJ_clean_linker_0, # of connection points: 2
#     Edge 30, Type (0, 1), BuildingBlock: MIFKUJ_clean_linker_0, # of connection points: 2
#     Edge 31, Type (0, 1), BuildingBlock: MIFKUJ_clean_linker_0, # of connection points: 2
#     Edge 32, Type (0, 1), BuildingBlock: MIFKUJ_clean_linker_0, # of connection points: 2
#     Edge 33, Type (0, 1), BuildingBlock: MIFKUJ_clean_linker_0, # of connection points: 2
#     Edge 34, Type (0, 1), BuildingBlock: MIFKUJ_clean_linker_0, # of connection points: 2
#     Edge 35, Type (0, 1), BuildingBlock: MIFKUJ_clean_linker_0, # of connection points: 2
#     Edge 36, Type (0, 1), BuildingBlock: MIFKUJ_clean_linker_0, # of connection points: 2
#     Edge 37, Type (0, 1), BuildingBlock: MIFKUJ_clean_linker_0, # of connection points: 2
#     Edge 38, Type (0, 1), BuildingBlock: MIFKUJ_clean_linker_0, # of connection points: 2
#     Edge 39, Type (0, 1), BuildingBlock: MIFKUJ_clean_linker_0, # of connection points: 2
#     Edge 40, Type (0, 1), BuildingBlock: MIFKUJ_clean_linker_0, # of connection points: 2
#     Edge 41, Type (0, 1), BuildingBlock: MIFKUJ_clean_linker_0, # of connection points: 2
#     Edge 42, Type (0, 1), BuildingBlock: MIFKUJ_clean_linker_0, # of connection points: 2
#     Edge 43, Type (0, 1), BuildingBlock: MIFKUJ_clean_linker_0, # of connection points: 2
#     Edge 44, Type (0, 1), BuildingBlock: MIFKUJ_clean_linker_0, # of connection points: 2
#     Edge 45, Type (0, 1), BuildingBlock: MIFKUJ_clean_linker_0, # of connection points: 2
#     Edge 46, Type (0, 1), BuildingBlock: MIFKUJ_clean_linker_0, # of connection points: 2
#     Edge 47, Type (0, 1), BuildingBlock: MIFKUJ_clean_linker_0, # of connection points: 2
#     Edge 48, Type (0, 1), BuildingBlock: MIFKUJ_clean_linker_0, # of connection points: 2
#     Edge 49, Type (0, 1), BuildingBlock: MIFKUJ_clean_linker_0, # of connection points: 2
#     Edge 50, Type (0, 1), BuildingBlock: MIFKUJ_clean_linker_0, # of connection points: 2
#     Edge 51, Type (0, 1), BuildingBlock: MIFKUJ_clean_linker_0, # of connection points: 2
#     Edge 52, Type (0, 1), BuildingBlock: MIFKUJ_clean_linker_0, # of connection points: 2
#     Edge 53, Type (0, 1), BuildingBlock: MIFKUJ_clean_linker_0, # of connection points: 2
#     Edge 54, Type (0, 1), BuildingBlock: MIFKUJ_clean_linker_0, # of connection points: 2
#     Edge 55, Type (0, 1), BuildingBlock: MIFKUJ_clean_linker_0, # of connection points: 2
#     Edge 56, Type (0, 1), BuildingBlock: MIFKUJ_clean_linker_0, # of connection points: 2
#     Edge 57, Type (0, 1), BuildingBlock: MIFKUJ_clean_linker_0, # of connection points: 2
#     Edge 58, Type (0, 1), BuildingBlock: MIFKUJ_clean_linker_0, # of connection points: 2
#     Edge 59, Type (0, 1), BuildingBlock: MIFKUJ_clean_linker_0, # of connection points: 2
#     Edge 60, Type (0, 1), BuildingBlock: MIFKUJ_clean_linker_0, # of connection points: 2
#     Edge 61, Type (0, 1), BuildingBlock: MIFKUJ_clean_linker_0, # of connection points: 2
#     Edge 62, Type (0, 1), BuildingBlock: MIFKUJ_clean_linker_0, # of connection points: 2
#     Edge 63, Type (0, 1), BuildingBlock: MIFKUJ_clean_linker_0, # of connection points: 2
#     Edge 64, Type (0, 1), BuildingBlock: MIFKUJ_clean_linker_0, # of connection points: 2
#     Edge 65, Type (0, 1), BuildingBlock: MIFKUJ_clean_linker_0, # of connection points: 2
#     Edge 66, Type (0, 1), BuildingBlock: MIFKUJ_clean_linker_0, # of connection points: 2
#     Edge 67, Type (0, 1), BuildingBlock: MIFKUJ_clean_linker_0, # of connection points: 2
# Relax obj value: 0.089
# Max RMSD: 0.190
# Mean RMSD: 0.137
data_MOF--net-soc--node1-ESEHIV_clean_sbu_0--node2-PAMTOO_clean_sbu_0--edge1-MIFKUJ_clean_linker_0
_symmetry_space_group_name_H-M    P1
_symmetry_Int_Tables_number       1
_symmetry_cell_setting            triclinic
loop_
_symmetry_equiv_pos_as_xyz
'x, y, z'
_cell_length_a     70.370241
_cell_length_b     57.532121
_cell_length_c     55.506257
_cell_angle_alpha  91.573341
_cell_angle_beta   91.57506
_cell_angle_gamma 74.761472
loop_
_atom_site_label
_atom_site_type_symbol
_atom_site_fract_x
_atom_site_fract_y
_atom_site_fract_z
_atom_type_partial_charge
Cu0 Cu 0.05338 0.0224 0.29689 0.0
N1 N 0.06303 0.04362 0.31689 0.0
N2 N 0.08063 0.06876 0.3302 0.0
C3 C 0.07968 0.05067 0.31456 0.0
C4 C 0.06401 0.07305 0.34305 0.0
C5 C 0.0532 0.05756 0.33478 0.0
O6 O 0.07525 0.99773 0.2826 0.0
C7 C 0.03059 0.06359 0.27149 0.0
O8 O 0.04523 0.07312 0.27698 0.0
H9 H 0.09034 0.04368 0.30082 0.0
H10 H 0.03878 0.05715 0.34069 0.0
N11 N 0.04027 1.00562 0.31582 0.0
N12 N 0.01923 0.98458 0.32573 0.0
C13 C 0.02658 0.99464 0.30771 0.0
C14 C 0.04177 1.00231 0.33977 0.0
C15 C 0.02871 0.9894 0.34597 0.0
C16 C 0.0891 1.00062 0.26965 0.0
O17 O 0.08834 0.02214 0.26167 0.0
H18 H 0.02185 0.99449 0.289 0.0
H19 H 0.05158 0.0089 0.35186 0.0
O20 O 0.03259 0.04136 0.27565 0.0
H21 H 0.05967 0.0868 0.35699 0.0
H22 H 0.02653 0.98377 0.3639 0.0
Cu23 Cu 0.04109 0.02167 0.71396 0.0
N24 N 0.02904 1.00198 0.69496 0.0
N25 N 0.00909 0.97834 0.6858 0.0
C26 C 0.01435 0.99316 0.70247 0.0
C27 C 0.02102 0.97782 0.66703 0.0
C28 C 0.03331 0.99241 0.67274 0.0
O29 O 0.01996 0.04414 0.73166 0.0
C30 C 0.07658 0.98869 0.71848 0.0
O31 O 0.07466 0.99261 0.69523 0.0
H32 H 0.00807 0.99703 0.72018 0.0
H33 H 0.0448 0.99538 0.66163 0.0
N34 N 0.05291 0.04076 0.69577 0.0
N35 N 0.07314 0.06363 0.68803 0.0
C36 C 0.06571 0.0525 0.7051 0.0
C37 C 0.05202 0.04478 0.67193 0.0
C38 C 0.06461 0.0588 0.66708 0.0
C39 C 1.00679 0.05659 0.71749 0.0
O40 O 0.00902 0.05272 0.69417 0.0
H41 H 0.07001 0.05213 0.72399 0.0
H42 H 0.04306 0.03783 0.65896 0.0
O43 O 0.06266 1.00001 0.73211 0.0
H44 H 0.02095 0.96761 0.65038 0.0
H45 H 0.0673 0.06493 0.64954 0.0
Cu46 Cu 0.27802 0.0293 0.0207 0.0
N47 N 0.26139 0.01561 1.0016 0.0
N48 N 0.25307 0.98803 0.97757 0.0
C49 C 0.26759 0.99398 0.9906 0.0
C50 C 0.23703 1.00678 0.98036 0.0
C51 C 0.2422 0.02378 0.99538 0.0
O52 O 0.29262 1.00354 0.04204 0.0
C53 C 0.28234 0.05751 0.983 0.0
O54 O 0.26316 0.06101 0.98336 0.0
H55 H 0.28268 0.98311 0.99169 0.0
H56 H 0.23273 0.041 1.00097 0.0
N57 N 0.2641 0.05393 0.04076 0.0
N58 N 0.26003 0.08303 0.069 0.0
C59 C 0.27228 0.06965 0.05264 0.0
C60 C 0.24596 0.05751 0.04975 0.0
C61 C 0.2434 0.07552 0.06723 0.0
C62 C 0.2815 0.99283 0.05265 0.0
O63 O 0.26239 1.00015 0.04867 0.0
H64 H 0.28744 0.07003 0.0505 0.0
H65 H 0.23577 0.04691 0.04497 0.0
O66 O 0.29299 0.04371 0.99865 0.0
H67 H 0.22267 0.00813 0.97212 0.0
H68 H 0.23061 0.08194 0.07836 0.0
Cu69 Cu 0.08287 0.31651 0.02369 0.0
N70 N 0.09396 0.33085 0.99984 0.0
N71 N 0.11433 0.3359 0.97147 0.0
C72 C 0.10963 0.32022 0.98638 0.0
C73 C 0.10121 0.35725 0.97583 0.0
C74 C 0.08862 0.35407 0.99331 0.0
O75 O 0.10343 0.30094 0.04714 0.0
C76 C 0.0653 0.2925 0.98639 0.0
O77 O 0.07761 0.29846 0.97193 0.0
H78 H 0.11756 0.30141 0.98774 0.0
H79 H 0.0765 0.36772 1.00086 0.0
N80 N 0.06489 0.3401 0.04094 0.0
N81 N 0.03766 0.35594 0.06171 0.0
C82 C 0.04653 0.33894 0.04553 0.0
C83 C 0.06782 0.35861 0.05457 0.0
C84 C 0.05099 0.36842 0.06751 0.0
C85 C 0.11706 0.3113 0.05228 0.0
O86 O 0.11731 0.33087 0.04082 0.0
H87 H 0.04035 0.3247 0.03853 0.0
H88 H 0.08153 0.36375 0.05597 0.0
O89 O 0.06682 0.29629 0.00904 0.0
H90 H 0.1006 0.37388 0.9668 0.0
H91 H 0.04901 0.38292 0.08082 0.0
Cu92 Cu 0.8266 0.01178 0.00881 0.0
N93 N 0.84123 0.02685 0.98993 0.0
N94 N 0.84728 0.05538 0.96715 0.0
C95 C 0.83411 0.049 0.98099 0.0
C96 C 0.86337 0.03642 0.96732 0.0
C97 C 0.85962 0.01885 0.98153 0.0
O98 O 0.81183 0.03701 0.03104 0.0
C99 C 0.82289 0.97904 0.97317 0.0
O100 O 0.84206 0.97495 0.97612 0.0
H101 H 0.81927 0.05989 0.98401 0.0
H102 H 0.86947 1.00136 0.98509 0.0
N103 N 0.84264 0.9884 0.02847 0.0
N104 N 0.84932 0.96163 0.05789 0.0
C105 C 0.83579 0.9732 0.04165 0.0
C106 C 0.86127 0.98617 0.03647 0.0
C107 C 0.86539 0.96974 0.05482 0.0
C108 C 0.82313 0.04662 0.04407 0.0
O109 O 0.84218 0.03938 0.04057 0.0
H110 H 0.82067 0.97208 0.04064 0.0
H111 H 0.87071 0.99691 0.03059 0.0
O112 O 0.81186 0.99521 0.98657 0.0
H113 H 0.87681 0.03528 0.95779 0.0
H114 H 0.87878 0.96492 0.06573 0.0
Cu115 Cu 0.00914 0.73613 0.01099 0.0
N116 N 0.99795 0.71841 0.98863 0.0
N117 N 0.97841 0.71113 0.95853 0.0
C118 C 0.98443 0.72812 0.97157 0.0
C119 C 0.98847 0.68988 0.96783 0.0
C120 C 1.00058 0.69443 0.98636 0.0
O121 O 0.98729 0.75318 0.03126 0.0
C122 C 0.03096 0.74831 0.97371 0.0
O123 O 0.027 0.72935 0.96325 0.0
H124 H 0.97892 0.74733 0.96906 0.0
H125 H 0.01053 0.68117 0.99739 0.0
N126 N 0.02825 0.71638 0.03064 0.0
N127 N 0.05504 0.70684 0.05464 0.0
C128 C 0.04462 0.72239 0.03837 0.0
C129 C 0.02823 0.69621 0.04237 0.0
C130 C 0.04491 0.69014 0.05709 0.0
C131 C 0.98901 0.75771 0.05371 0.0
O132 O 1.00669 0.75473 0.06343 0.0
H133 H 0.04848 0.73837 0.03267 0.0
H134 H 0.01655 0.68718 0.04113 0.0
O135 O 0.02344 0.75578 0.99411 0.0
H136 H 0.98731 0.67232 0.96152 0.0
H137 H 0.04875 0.67534 0.06948 0.0
Cu138 Cu 0.54472 0.52059 0.80822 0.0
N139 N 0.55638 0.54043 0.82757 0.0
N140 N 0.57598 0.56393 0.83882 0.0
C141 C 0.57246 0.54773 0.82242 0.0
C142 C 0.56159 0.56687 0.85507 0.0
C143 C 0.54956 0.55232 0.84811 0.0
O144 O 0.56526 0.49745 0.7903 0.0
C145 C 0.50705 0.55049 0.80286 0.0
O146 O 0.50777 0.54579 0.82593 0.0
H147 H 0.58096 0.54216 0.80643 0.0
H148 H 0.53644 0.55102 0.85708 0.0
N149 N 0.53427 0.50113 0.82741 0.0
N150 N 0.51577 0.47675 0.83713 0.0
C151 C 0.52153 0.48878 0.81936 0.0
C152 C 0.53697 0.49666 0.85108 0.0
C153 C 0.52552 0.48164 0.85715 0.0
C154 C 0.5778 0.50099 0.77566 0.0
O155 O 0.57603 0.52273 0.76761 0.0
H156 H 0.51666 0.48875 0.80071 0.0
H157 H 0.54639 0.50397 0.8631 0.0
O158 O 0.52228 0.54132 0.79027 0.0
H159 H 0.55969 0.57893 0.87065 0.0
H160 H 0.52425 0.47528 0.87504 0.0
Cu161 Cu 0.55342 0.52168 0.22444 0.0
N162 N 0.54031 0.50237 0.20644 0.0
N163 N 0.51904 0.48027 0.19806 0.0
C164 C 0.52499 0.49493 0.21429 0.0
C165 C 0.53119 0.47829 0.17928 0.0
C166 C 0.54428 0.49199 0.18448 0.0
O167 O 0.53362 0.54384 0.24417 0.0
C168 C 0.58948 0.48878 0.22691 0.0
O169 O 0.58762 0.49407 0.20394 0.0
H170 H 0.51862 0.49978 0.23185 0.0
H171 H 0.55599 0.494 0.17316 0.0
N172 N 0.56383 0.54127 0.20513 0.0
N173 N 0.58194 0.56614 0.19525 0.0
C174 C 0.5771 0.55307 0.21283 0.0
C175 C 0.55996 0.54709 0.18188 0.0
C176 C 0.57113 0.5624 0.17572 0.0
C177 C 0.51833 0.55481 0.2321 0.0
O178 O 0.51742 0.55029 0.20884 0.0
H179 H 0.58285 0.55225 0.23115 0.0
H180 H 0.54973 0.5407 0.17026 0.0
O181 O 0.57566 0.49945 0.24096 0.0
H182 H 0.53062 0.46778 0.16293 0.0
H183 H 0.57139 0.56993 0.15812 0.0
Cu184 Cu 0.81971 0.51411 0.5106 0.0
N185 N 0.83463 0.52582 0.48884 0.0
N186 N 0.84178 0.54693 0.45876 0.0
C187 C 0.82738 0.54241 0.47199 0.0
C188 C 0.85874 0.5325 0.46758 0.0
C189 C 0.85427 0.5194 0.48604 0.0
O190 O 0.80287 0.54115 0.52908 0.0
C191 C 0.81955 0.47386 0.48318 0.0
O192 O 0.83833 0.47115 0.48834 0.0
H193 H 0.81185 0.55122 0.46978 0.0
H194 H 0.8646 0.50594 0.49646 0.0
N195 N 0.83571 0.49535 0.53398 0.0
N196 N 0.84408 0.46854 0.56337 0.0
C197 C 0.831 0.47746 0.54551 0.0
C198 C 0.85227 0.49812 0.54497 0.0
C199 C 0.85753 0.48151 0.56307 0.0
C200 C 0.81025 0.55865 0.53495 0.0
O201 O 0.82753 0.55864 0.52662 0.0
H202 H 0.81766 0.47197 0.54156 0.0
H203 H 0.85958 0.5118 0.54073 0.0
O204 O 0.80717 0.4926 0.49153 0.0
H205 H 0.8733 0.53116 0.46091 0.0
H206 H 0.87006 0.47953 0.57532 0.0
Cu207 Cu 0.58424 0.80017 0.50342 0.0
N208 N 0.59299 0.8165 0.47909 0.0
N209 N 0.61176 0.82253 0.44914 0.0
C210 C 0.61074 0.80941 0.46868 0.0
C211 C 0.59393 0.83856 0.44729 0.0
C212 C 0.58239 0.83478 0.46576 0.0
O213 O 0.60629 0.78957 0.52608 0.0
C214 C 0.56802 0.75916 0.49612 0.0
O215 O 0.57056 0.75531 0.51934 0.0
H216 H 0.62229 0.79404 0.47453 0.0
H217 H 0.5671 0.84401 0.46864 0.0
N218 N 0.56262 0.82013 0.51968 0.0
N219 N 0.53522 0.83086 0.54156 0.0
C220 C 0.54841 0.81265 0.5305 0.0
C221 C 0.55816 0.8441 0.5239 0.0
C222 C 0.54121 0.85079 0.53731 0.0
C223 C 0.60446 0.78504 0.54809 0.0
O224 O 0.58711 0.78454 0.55581 0.0
H225 H 0.54765 0.79419 0.53035 0.0
H226 H 0.56678 0.85582 0.51795 0.0
O227 O 0.57487 0.77507 0.48668 0.0
H228 H 0.5894 0.85175 0.43331 0.0
H229 H 0.53416 0.86879 0.54392 0.0
Cu230 Cu 0.31411 0.5161 0.51912 0.0
N231 N 0.32974 0.53282 0.50348 0.0
N232 N 0.33659 0.56065 0.48003 0.0
C233 C 0.32234 0.55245 0.49003 0.0
C234 C 0.35369 0.5455 0.4877 0.0
C235 C 0.34942 0.5284 0.50217 0.0
O236 O 0.3013 0.53773 0.5446 0.0
C237 C 0.30334 0.50141 0.47428 0.0
O238 O 0.32172 0.50108 0.47038 0.0
H239 H 0.3067 0.56006 0.4871 0.0
H240 H 0.3599 0.51369 0.51091 0.0
N241 N 0.32795 0.48703 0.53322 0.0
N242 N 0.33278 0.45472 0.55665 0.0
C243 C 0.32283 0.47802 0.55357 0.0
C244 C 0.34166 0.46881 0.52312 0.0
C245 C 0.34467 0.44888 0.53751 0.0
C246 C 0.3135 0.54323 0.55961 0.0
O247 O 0.33238 0.53298 0.557 0.0
H248 H 0.31105 0.48785 0.56499 0.0
H249 H 0.34818 0.46954 0.50582 0.0
O250 O 0.29622 0.50788 0.49502 0.0
H251 H 0.36829 0.54664 0.48327 0.0
H252 H 0.35438 0.43124 0.53377 0.0
Cu253 Cu 0.51113 0.23591 0.51827 0.0
N254 N 0.53 0.21599 0.49873 0.0
N255 N 0.55684 0.205 0.47624 0.0
C256 C 0.5456 0.22239 0.49037 0.0
C257 C 0.54797 0.18684 0.47572 0.0
C258 C 0.5313 0.19375 0.48954 0.0
O259 O 0.52514 0.25698 0.53547 0.0
C260 C 0.47812 0.23807 0.48944 0.0
O261 O 0.48288 0.21547 0.496 0.0
H262 H 0.54867 0.2395 0.49477 0.0
H263 H 0.52082 0.18338 0.49246 0.0
N264 N 0.50205 0.21806 0.54093 0.0
N265 N 0.48495 0.20987 0.57139 0.0
C266 C 0.4872 0.22681 0.55618 0.0
C267 C 0.50938 0.19475 0.54655 0.0
C268 C 0.49888 0.18966 0.5654 0.0
C269 C 0.53617 0.24779 0.55332 0.0
O270 O 0.53637 0.226 0.55991 0.0
H271 H 0.47862 0.24543 0.55654 0.0
H272 H 0.52181 0.18248 0.538 0.0
O273 O 0.48873 0.25166 0.49737 0.0
H274 H 0.55292 0.17002 0.46569 0.0
H275 H 0.50132 0.17245 0.57404 0.0
Dy276 Dy 0.2794 0.27475 0.29539 0.0
Dy277 Dy 0.30415 0.29906 0.25689 0.0
C278 C 0.29969 0.24491 0.24962 0.0
O279 O 0.31107 0.26535 0.30805 0.0
O280 O 0.32084 0.29647 0.29193 0.0
O281 O 0.27808 0.24455 0.31681 0.0
O282 O 0.25462 0.27766 0.31854 0.0
O283 O 0.28638 0.33022 0.27865 0.0
O284 O 0.28029 0.31005 0.31165 0.0
O285 O 0.27693 0.29657 0.23644 0.0
O286 O 0.25695 0.29179 0.26717 0.0
O287 O 0.30658 0.32648 0.23207 0.0
O288 O 0.33131 0.29544 0.2383 0.0
C289 C 0.32307 0.27944 0.30781 0.0
O290 O 0.28468 0.24962 0.26401 0.0
O291 O 0.31128 0.25937 0.24808 0.0
C292 C 0.24593 0.2412 0.32336 0.0
C293 C 0.21807 0.21378 0.3216 0.0
C294 C 0.22999 0.21394 0.3017 0.0
C295 C 0.24376 0.22764 0.30252 0.0
C296 C 0.23397 0.24124 0.34312 0.0
C297 C 0.22014 0.22769 0.34226 0.0
C298 C 0.26065 0.25521 0.32492 0.0
C299 C 0.28062 0.32999 0.30098 0.0
C300 C 0.25963 0.29606 0.24447 0.0
C301 C 0.33878 0.33111 0.22689 0.0
C302 C 0.36746 0.35731 0.22519 0.0
C303 C 0.35725 0.35683 0.24658 0.0
C304 C 0.34306 0.34372 0.24746 0.0
C305 C 0.34862 0.33196 0.20549 0.0
C306 C 0.3628 0.34491 0.20461 0.0
C307 C 0.32495 0.31592 0.22742 0.0
H308 H 0.22858 0.20362 0.28544 0.0
H309 H 0.25277 0.22755 0.28698 0.0
H310 H 0.23546 0.25161 0.35933 0.0
H311 H 0.21134 0.22772 0.35797 0.0
H312 H 0.36058 0.36608 0.26276 0.0
H313 H 0.33566 0.34311 0.26421 0.0
H314 H 0.34551 0.32231 0.18945 0.0
H315 H 0.37013 0.34522 0.18776 0.0
Dy316 Dy 0.79238 0.24678 0.28305 0.0
Dy317 Dy 0.80901 0.28013 0.24586 0.0
C318 C 0.76328 0.29332 0.25947 0.0
O319 O 0.78626 0.23486 0.24545 0.0
O320 O 0.81053 0.24559 0.22549 0.0
O321 O 0.77287 0.22446 0.28895 0.0
O322 O 0.7934 0.22909 0.31732 0.0
O323 O 0.83611 0.25574 0.26257 0.0
O324 O 0.82301 0.22539 0.27433 0.0
O325 O 0.80078 0.30287 0.27918 0.0
O326 O 0.80247 0.27361 0.30692 0.0
O327 O 0.82464 0.30699 0.2407 0.0
O328 O 0.81096 0.29318 0.20994 0.0
C329 C 0.79778 0.23264 0.22683 0.0
O330 O 0.76766 0.28009 0.27879 0.0
O331 O 0.77606 0.2917 0.2422 0.0
C332 C 0.76282 0.22313 0.32891 0.0
C333 C 0.73143 0.22356 0.35965 0.0
C334 C 0.72875 0.23958 0.34036 0.0
C335 C 0.74432 0.23943 0.3252 0.0
C336 C 0.7658 0.20785 0.34867 0.0
C337 C 0.75029 0.20813 0.36397 0.0
C338 C 0.77857 0.22036 0.31132 0.0
C339 C 0.83826 0.23338 0.26916 0.0
C340 C 0.80181 0.29596 0.30162 0.0
C341 C 0.83961 0.30631 0.20312 0.0
C342 C 0.87277 0.31095 0.17834 0.0
C343 C 0.87513 0.29726 0.19934 0.0
C344 C 0.85868 0.29486 0.21159 0.0
C345 C 0.83722 0.31919 0.1817 0.0
C346 C 0.85365 0.32144 0.16935 0.0
C347 C 0.82217 0.30688 0.21734 0.0
H348 H 0.71443 0.25156 0.33629 0.0
H349 H 0.74169 0.25148 0.31008 0.0
H350 H 0.78 0.19522 0.35188 0.0
H351 H 0.753 0.19592 0.37894 0.0
H352 H 0.8897 0.28873 0.2065 0.0
H353 H 0.86086 0.28468 0.22804 0.0
H354 H 0.82262 0.3282 0.17495 0.0
H355 H 0.85138 0.33225 0.15333 0.0
Dy356 Dy 0.79212 0.75955 0.236 0.0
Dy357 Dy 0.81869 0.78133 0.2767 0.0
C358 C 0.77396 0.78195 0.28609 0.0
O359 O 0.79593 0.79315 0.22023 0.0
O360 O 0.803 0.81279 0.25459 0.0
O361 O 0.76639 0.76394 0.2127 0.0
O362 O 0.78814 0.72938 0.21429 0.0
O363 O 0.83616 0.77758 0.24323 0.0
O364 O 0.82267 0.75126 0.22088 0.0
O365 O 0.82749 0.7414 0.28002 0.0
O366 O 0.79874 0.73382 0.26648 0.0
O367 O 0.84589 0.77865 0.29665 0.0
O368 O 0.82009 0.80772 0.30465 0.0
C369 C 0.79847 0.81254 0.23147 0.0
O370 O 0.77086 0.78124 0.26265 0.0
O371 O 0.7919 0.7775 0.29532 0.0
C372 C 0.75506 0.72904 0.20683 0.0
C373 C 0.72466 0.70535 0.20765 0.0
C374 C 0.73186 0.71373 0.22922 0.0
C375 C 0.74693 0.7255 0.22881 0.0
C376 C 0.748 0.7207 0.18536 0.0
C377 C 0.73297 0.70897 0.18573 0.0
C378 C 0.77092 0.74128 0.20593 0.0
C379 C 0.83635 0.76298 0.22454 0.0
C380 C 0.81527 0.72768 0.27908 0.0
C381 C 0.8511 0.81587 0.30905 0.0
C382 C 0.87559 0.84754 0.31001 0.0
C383 C 0.86527 0.844 0.28873 0.0
C384 C 0.85313 0.82824 0.28824 0.0
C385 C 0.86115 0.81952 0.33033 0.0
C386 C 0.8733 0.83523 0.33083 0.0
C387 C 0.83892 0.79873 0.3087 0.0
H388 H 0.72569 0.71144 0.24638 0.0
H389 H 0.75223 0.73187 0.24559 0.0
H390 H 0.75418 0.7232 0.16825 0.0
H391 H 0.72805 0.70242 0.16884 0.0
H392 H 0.8665 0.85352 0.27254 0.0
H393 H 0.84541 0.82562 0.27163 0.0
H394 H 0.85978 0.81001 0.3465 0.0
H395 H 0.88122 0.83733 0.3474 0.0
Dy396 Dy 0.31875 0.79518 0.28841 0.0
Dy397 Dy 0.29755 0.76376 0.25047 0.0
C398 C 0.34434 0.74849 0.25971 0.0
O399 O 0.32114 0.80999 0.25194 0.0
O400 O 0.29705 0.79727 0.23063 0.0
O401 O 0.34145 0.81324 0.29664 0.0
O402 O 0.32131 0.81007 0.32432 0.0
O403 O 0.273 0.79087 0.26904 0.0
O404 O 0.28884 0.81963 0.28101 0.0
O405 O 0.30909 0.74043 0.28205 0.0
O406 O 0.30638 0.77051 0.31024 0.0
O407 O 0.27783 0.74093 0.24597 0.0
O408 O 0.29313 0.74897 0.21506 0.0
C409 C 0.30929 0.81105 0.23298 0.0
O410 O 0.34199 0.76159 0.27966 0.0
O411 O 0.32986 0.74963 0.24392 0.0
C412 C 0.35475 0.80489 0.33566 0.0
C413 C 0.3888 0.78596 0.3643 0.0
C414 C 0.38372 0.77235 0.34496 0.0
C415 C 0.36681 0.78166 0.33089 0.0
C416 C 0.35945 0.81833 0.3553 0.0
C417 C 0.37631 0.8089 0.36959 0.0
C418 C 0.33776 0.81526 0.3196 0.0
C419 C 0.27259 0.81317 0.27569 0.0
C420 C 0.30823 0.74774 0.30465 0.0
C421 C 0.26262 0.73939 0.20751 0.0
C422 C 0.22868 0.73667 0.18047 0.0
C423 C 0.2273 0.75336 0.19981 0.0
C424 C 0.24415 0.7547 0.21326 0.0
C425 C 0.26412 0.72341 0.18774 0.0
C426 C 0.24735 0.72206 0.17433 0.0
C427 C 0.28029 0.73828 0.22273 0.0
H428 H 0.39293 0.75458 0.34056 0.0
H429 H 0.36338 0.77086 0.31598 0.0
H430 H 0.35031 0.83626 0.35929 0.0
H431 H 0.37994 0.81989 0.38426 0.0
H432 H 0.21313 0.76478 0.20509 0.0
H433 H 0.24267 0.7672 0.22848 0.0
H434 H 0.27826 0.71149 0.183 0.0
H435 H 0.24899 0.70934 0.15928 0.0
Dy436 Dy 0.27936 0.75368 0.78346 0.0
Dy437 Dy 0.30141 0.78359 0.74677 0.0
C438 C 0.25559 0.80323 0.75979 0.0
O439 O 0.27286 0.7441 0.74535 0.0
O440 O 0.29996 0.74995 0.72705 0.0
O441 O 0.25637 0.73588 0.78837 0.0
O442 O 0.27584 0.73914 0.81832 0.0
O443 O 0.32564 0.75461 0.76333 0.0
O444 O 0.30871 0.72789 0.77602 0.0
O445 O 0.29482 0.80531 0.78075 0.0
O446 O 0.29498 0.77513 0.80685 0.0
O447 O 0.32216 0.80475 0.7425 0.0
O448 O 0.30485 0.79746 0.71158 0.0
C449 C 0.28538 0.73975 0.72765 0.0
O450 O 0.25878 0.79017 0.77925 0.0
O451 O 0.26871 0.79993 0.74264 0.0
C452 C 0.24263 0.74068 0.82723 0.0
C453 C 0.20836 0.75195 0.85555 0.0
C454 C 0.20967 0.76587 0.83548 0.0
C455 C 0.22665 0.76037 0.82154 0.0
C456 C 0.24161 0.72723 0.84763 0.0
C457 C 0.2247 0.73283 0.86169 0.0
C458 C 0.25988 0.73313 0.81143 0.0
C459 C 0.32523 0.73303 0.77038 0.0
C460 C 0.29578 0.79717 0.8027 0.0
C461 C 0.33621 0.80433 0.70381 0.0
C462 C 0.36904 0.80553 0.67575 0.0
C463 C 0.37174 0.79424 0.69826 0.0
C464 C 0.35552 0.79364 0.71214 0.0
C465 C 0.33347 0.81483 0.68103 0.0
C466 C 0.34965 0.81537 0.66713 0.0
C467 C 0.31891 0.80695 0.71929 0.0
H468 H 0.19747 0.7809 0.83043 0.0
H469 H 0.22711 0.77118 0.80599 0.0
H470 H 0.25373 0.71197 0.85236 0.0
H471 H 0.22414 0.72162 0.87688 0.0
H472 H 0.3864 0.78662 0.70561 0.0
H473 H 0.35812 0.78544 0.72967 0.0
H474 H 0.31876 0.82323 0.67421 0.0
H475 H 0.34693 0.82378 0.64971 0.0
Dy476 Dy 0.28884 0.24679 0.75323 0.0
Dy477 Dy 0.31284 0.27486 0.79242 0.0
C478 C 0.26702 0.27954 0.79668 0.0
O479 O 0.28842 0.28228 0.73657 0.0
O480 O 0.31271 0.29432 0.75832 0.0
O481 O 0.26264 0.24922 0.73126 0.0
O482 O 0.28637 0.21627 0.73099 0.0
O483 O 0.33657 0.25184 0.7696 0.0
O484 O 0.31862 0.24054 0.73801 0.0
O485 O 0.30699 0.24437 0.81253 0.0
O486 O 0.30083 0.21951 0.78171 0.0
O487 O 0.3359 0.27367 0.81923 0.0
O488 O 0.31441 0.30742 0.81162 0.0
C489 C 0.30069 0.29601 0.73958 0.0
O490 O 0.26901 0.25948 0.78412 0.0
O491 O 0.2806 0.29139 0.79683 0.0
C492 C 0.25402 0.21281 0.72313 0.0
C493 C 0.22552 0.18623 0.72141 0.0
C494 C 0.23364 0.19171 0.74366 0.0
C495 C 0.24781 0.20491 0.74451 0.0
C496 C 0.24596 0.20744 0.701 0.0
C497 C 0.23185 0.19431 0.70012 0.0
C498 C 0.2686 0.22698 0.72332 0.0
C499 C 0.33534 0.24226 0.74799 0.0
C500 C 0.30476 0.22349 0.80457 0.0
C501 C 0.3464 0.3093 0.82277 0.0
C502 C 0.37574 0.33447 0.82247 0.0
C503 C 0.37071 0.32331 0.80123 0.0
C504 C 0.35613 0.31081 0.80139 0.0
C505 C 0.35139 0.32027 0.84396 0.0
C506 C 0.36593 0.33275 0.84384 0.0
C507 C 0.33066 0.29693 0.82316 0.0
H508 H 0.22922 0.1856 0.76037 0.0
H509 H 0.2539 0.20896 0.76178 0.0
H510 H 0.25051 0.21355 0.68434 0.0
H511 H 0.22568 0.19083 0.68273 0.0
H512 H 0.37812 0.3241 0.78455 0.0
H513 H 0.3524 0.30241 0.78484 0.0
H514 H 0.3439 0.31937 0.86057 0.0
H515 H 0.36922 0.34144 0.8604 0.0
Dy516 Dy 0.80723 0.29369 0.79339 0.0
Dy517 Dy 0.78536 0.26776 0.75011 0.0
C518 C 0.83145 0.24606 0.76459 0.0
O519 O 0.81728 0.30301 0.75794 0.0
O520 O 0.78995 0.30141 0.7353 0.0
O521 O 0.82454 0.31796 0.80566 0.0
O522 O 0.8137 0.29741 0.83143 0.0
O523 O 0.76152 0.29393 0.77032 0.0
O524 O 0.77851 0.32059 0.78489 0.0
O525 O 0.79371 0.24227 0.78034 0.0
O526 O 0.78953 0.27133 0.80975 0.0
O527 O 0.76454 0.2473 0.74057 0.0
O528 O 0.78014 0.25958 0.71245 0.0
C529 C 0.80592 0.30889 0.7387 0.0
O530 O 0.82904 0.2587 0.78494 0.0
O531 O 0.8178 0.24957 0.74723 0.0
C532 C 0.84408 0.30615 0.84094 0.0
C533 C 0.88082 0.29616 0.86612 0.0
C534 C 0.87775 0.28145 0.84644 0.0
C535 C 0.85952 0.28636 0.83401 0.0
C536 C 0.84704 0.32072 0.86058 0.0
C537 C 0.86517 0.3158 0.87305 0.0
C538 C 0.82479 0.31188 0.82812 0.0
C539 C 0.76187 0.31551 0.77847 0.0
C540 C 0.79156 0.24879 0.80308 0.0
C541 C 0.74758 0.25667 0.70301 0.0
C542 C 0.71176 0.26634 0.67585 0.0
C543 C 0.71209 0.27425 0.70005 0.0
C544 C 0.72981 0.26957 0.71346 0.0
C545 C 0.74736 0.24931 0.67871 0.0
C546 C 0.72967 0.25417 0.66523 0.0
C547 C 0.76616 0.24949 0.71742 0.0
H548 H 0.88937 0.26603 0.84078 0.0
H549 H 0.85749 0.27476 0.81899 0.0
H550 H 0.83531 0.33606 0.86622 0.0
H551 H 0.86704 0.3277 0.88786 0.0
H552 H 0.69861 0.28395 0.70868 0.0
H553 H 0.72954 0.27565 0.73213 0.0
H554 H 0.76085 0.2393 0.67027 0.0
H555 H 0.72993 0.24765 0.64672 0.0
Dy556 Dy 0.77552 0.76413 0.77589 0.0
Dy557 Dy 0.79888 0.78972 0.73701 0.0
C558 C 0.79048 0.73761 0.72474 0.0
O559 O 0.8058 0.75886 0.79144 0.0
O560 O 0.82316 0.76644 0.75919 0.0
O561 O 0.77435 0.73529 0.7994 0.0
O562 O 0.75008 0.76761 0.79792 0.0
O563 O 0.7995 0.80942 0.77211 0.0
O564 O 0.77236 0.80234 0.78905 0.0
O565 O 0.76654 0.80288 0.72802 0.0
O566 O 0.75502 0.77313 0.74441 0.0
O567 O 0.80061 0.82227 0.7199 0.0
O568 O 0.82105 0.7881 0.71034 0.0
C569 C 0.82241 0.75857 0.78108 0.0
O570 O 0.78571 0.73537 0.74723 0.0
O571 O 0.79401 0.75746 0.717 0.0
C572 C 0.74248 0.73142 0.80717 0.0
C573 C 0.71478 0.70401 0.80933 0.0
C574 C 0.72502 0.7044 0.78797 0.0
C575 C 0.73874 0.7181 0.78686 0.0
C576 C 0.73238 0.73101 0.82845 0.0
C577 C 0.71866 0.71745 0.82955 0.0
C578 C 0.75666 0.74608 0.80663 0.0
C579 C 0.78593 0.81426 0.78856 0.0
C580 C 0.75311 0.79083 0.72941 0.0
C581 C 0.83249 0.82307 0.70834 0.0
C582 C 0.86317 0.84632 0.70816 0.0
C583 C 0.85441 0.84319 0.72993 0.0
C584 C 0.83923 0.83157 0.73003 0.0
C585 C 0.84124 0.82603 0.68668 0.0
C586 C 0.85643 0.83752 0.68656 0.0
C587 C 0.81621 0.81142 0.70778 0.0
H588 H 0.72223 0.6944 0.77204 0.0
H589 H 0.74637 0.71835 0.77021 0.0
H590 H 0.73513 0.74118 0.84428 0.0
H591 H 0.71125 0.71724 0.84637 0.0
H592 H 0.85939 0.84955 0.74689 0.0
H593 H 0.8327 0.82932 0.74698 0.0
H594 H 0.83619 0.81963 0.66977 0.0
H595 H 0.86264 0.83993 0.66946 0.0
H596 H 0.07547 0.11539 0.34493 0.0
H597 H 0.09937 0.13925 0.34346 0.0
H598 H 0.14239 0.07777 0.31442 0.0
H599 H 0.11872 0.0535 0.31657 0.0
H600 H 0.15891 0.10178 0.34782 0.0
H601 H 0.11722 0.12186 0.27772 0.0
H602 H 0.08564 0.13484 0.25526 0.0
H603 H 0.07234 0.20275 0.29376 0.0
H604 H 0.10373 0.19003 0.31673 0.0
H605 H 0.22372 0.1672 0.30524 0.0
H606 H 0.20054 0.14209 0.30623 0.0
H607 H 0.15708 0.2013 0.33824 0.0
H608 H 0.18007 0.22661 0.33697 0.0
H609 H 0.1412 0.17786 0.3024 0.0
H610 H 0.18286 0.15716 0.37293 0.0
H611 H 0.2145 0.1439 0.39523 0.0
H612 H 0.22802 0.07682 0.35525 0.0
H613 H 0.19656 0.08984 0.33245 0.0
C614 C 0.09009 0.10677 0.33859 0.0
C615 C 0.09511 0.0825 0.33074 0.0
C616 C 0.10369 0.12055 0.33752 0.0
C617 C 0.12256 0.11041 0.32845 0.0
C618 C 0.12786 0.08601 0.32133 0.0
C619 C 0.11426 0.0722 0.3224 0.0
C620 C 0.13662 0.12541 0.32601 0.0
C621 C 0.15514 0.11823 0.33761 0.0
C622 C 0.13158 0.14711 0.31302 0.0
C623 C 0.11275 0.15489 0.29911 0.0
C624 C 0.1075 0.13949 0.28153 0.0
C625 C 0.08964 0.14681 0.26869 0.0
C626 C 0.07696 0.16958 0.27312 0.0
C627 C 0.08216 0.1851 0.29037 0.0
C628 C 0.09999 0.17785 0.30329 0.0
C629 C 0.20915 0.17495 0.31223 0.0
C630 C 0.20374 0.19885 0.32113 0.0
C631 C 0.19598 0.16053 0.31296 0.0
C632 C 0.17717 0.16976 0.32256 0.0
C633 C 0.17155 0.1938 0.33085 0.0
C634 C 0.18474 0.20817 0.33026 0.0
C635 C 0.16342 0.15428 0.32431 0.0
C636 C 0.14497 0.16137 0.31256 0.0
C637 C 0.16855 0.13247 0.33708 0.0
C638 C 0.18745 0.12458 0.35081 0.0
C639 C 0.19265 0.13967 0.36875 0.0
C640 C 0.21054 0.13218 0.3815 0.0
C641 C 0.22329 0.10956 0.37661 0.0
C642 C 0.21815 0.09436 0.35899 0.0
C643 C 0.20028 0.10177 0.34616 0.0
H644 H 0.23713 0.10379 0.38651 0.0
H645 H 0.06314 0.17521 0.26316 0.0
H646 H 0.02162 0.11071 0.258 0.0
H647 H 0.98907 0.13904 0.25477 0.0
H648 H 0.96196 0.08203 0.26961 0.0
H649 H 0.99453 0.0534 0.27223 0.0
H650 H 0.9398 0.11138 0.2378 0.0
H651 H 0.96989 0.12224 0.31429 0.0
H652 H 0.99606 0.12928 0.34175 0.0
H653 H 0.99081 0.19791 0.30987 0.0
H654 H 0.96479 0.19111 0.28196 0.0
H655 H 0.84823 0.18511 0.27883 0.0
H656 H 0.88065 0.15644 0.27689 0.0
H657 H 0.90623 0.21348 0.25741 0.0
H658 H 0.87379 0.24242 0.25944 0.0
H659 H 0.92904 0.18436 0.29079 0.0
H660 H 0.8973 0.17337 0.21521 0.0
H661 H 0.87046 0.16583 0.18923 0.0
H662 H 0.87806 0.09671 0.22105 0.0
H663 H 0.90474 0.10401 0.24754 0.0
C664 C 0.00874 0.10405 0.26016 0.0
C665 C 0.01078 0.07974 0.26553 0.0
C666 C 0.99008 0.12037 0.25849 0.0
C667 C 0.97296 0.11291 0.26255 0.0
C668 C 0.97488 0.08835 0.26654 0.0
C669 C 0.99357 0.07194 0.26799 0.0
C670 C 0.95324 0.13089 0.26385 0.0
C671 C 0.93743 0.12719 0.24959 0.0
C672 C 0.95004 0.1518 0.27896 0.0
C673 C 0.96554 0.15606 0.29588 0.0
C674 C 0.97441 0.13876 0.31303 0.0
C675 C 0.9892 0.14271 0.32868 0.0
C676 C 0.99513 0.164 0.32751 0.0
C677 C 0.98623 0.18141 0.31073 0.0
C678 C 0.97145 0.17753 0.295 0.0
C679 C 0.86073 0.19168 0.27424 0.0
C680 C 0.85828 0.21619 0.26926 0.0
C681 C 0.8793 0.17516 0.27299 0.0
C682 C 0.89593 0.18265 0.26667 0.0
C683 C 0.89365 0.20719 0.26225 0.0
C684 C 0.87505 0.22375 0.26342 0.0
C685 C 0.91565 0.1649 0.26469 0.0
C686 C 0.93145 0.16861 0.27891 0.0
C687 C 0.91875 0.14392 0.2497 0.0
C688 C 0.90291 0.13934 0.23352 0.0
C689 C 0.89317 0.15663 0.21679 0.0
C690 C 0.87799 0.1524 0.20196 0.0
C691 C 0.87253 0.13083 0.20352 0.0
C692 C 0.88229 0.11342 0.21988 0.0
C693 C 0.89745 0.11759 0.23479 0.0
H694 H 0.86077 0.12759 0.19204 0.0
H695 H 1.00659 0.16703 0.33964 0.0
H696 H 0.99224 0.98273 0.35894 0.0
H697 H 0.96689 0.96072 0.35542 0.0
H698 H 0.98714 0.9348 0.28449 0.0
H699 H 0.01226 0.95718 0.2878 0.0
H700 H 0.94852 0.94729 0.28414 0.0
H701 H 0.99878 0.89876 0.33494 0.0
H702 H 0.022 0.89007 0.36965 0.0
H703 H 0.97375 0.91021 0.41833 0.0
H704 H 0.95024 0.91932 0.38391 0.0
H705 H 0.90232 0.85056 0.27618 0.0
H706 H 0.92569 0.87541 0.27791 0.0
H707 H 0.90306 0.90512 0.34678 0.0
H708 H 0.87958 0.88038 0.34507 0.0
H709 H 0.94264 0.89083 0.34776 0.0
H710 H 0.8923 0.93806 0.29531 0.0
H711 H 0.8699 0.94442 0.25974 0.0
H712 H 0.91944 0.92427 0.21301 0.0
H713 H 0.94215 0.91744 0.24833 0.0
C714 C 0.99135 0.97222 0.34268 0.0
C715 C 1.0043 0.97159 0.3237 0.0
C716 C 0.97685 0.95965 0.34066 0.0
C717 C 0.97526 0.9458 0.31981 0.0
C718 C 0.98804 0.94537 0.30073 0.0
C719 C 1.00239 0.95817 0.30263 0.0
C720 C 0.96038 0.93162 0.31798 0.0
C721 C 0.94739 0.93474 0.29792 0.0
C722 C 0.95867 0.91547 0.33611 0.0
C723 C 0.97277 0.90995 0.35685 0.0
C724 C 0.99313 0.9015 0.35305 0.0
C725 C 1.00634 0.89648 0.37267 0.0
C726 C 0.99936 0.89965 0.39618 0.0
C727 C 0.97914 0.90779 0.40012 0.0
C728 C 0.96587 0.91287 0.38056 0.0
C729 C 0.90208 0.8627 0.29147 0.0
C730 C 0.88907 0.86355 0.31045 0.0
C731 C 0.91548 0.87685 0.29248 0.0
C732 C 0.91602 0.89226 0.3124 0.0
C733 C 0.90292 0.89331 0.33126 0.0
C734 C 0.88955 0.87914 0.33028 0.0
C735 C 0.93073 0.90663 0.31405 0.0
C736 C 0.94373 0.90347 0.33404 0.0
C737 C 0.93255 0.92251 0.29575 0.0
C738 C 0.91892 0.92707 0.27448 0.0
C739 C 0.89842 0.93486 0.27745 0.0
C740 C 0.88566 0.93857 0.25734 0.0
C741 C 0.89324 0.93474 0.23413 0.0
C742 C 0.91359 0.92724 0.231 0.0
C743 C 0.92641 0.92348 0.25106 0.0
H744 H 0.88334 0.93756 0.21858 0.0
H745 H 0.00961 0.89574 0.41135 0.0
H746 H 0.09358 0.95228 0.27561 0.0
H747 H 0.12401 0.91982 0.27451 0.0
H748 H 0.1565 0.97097 0.25727 0.0
H749 H 0.12593 1.00329 0.25726 0.0
H750 H 0.17187 0.93178 0.23397 0.0
H751 H 0.15461 0.94869 0.31658 0.0
H752 H 0.13333 0.95438 0.35199 0.0
H753 H 0.12948 0.88127 0.34435 0.0
H754 H 0.15055 0.87524 0.30868 0.0
H755 H 0.26633 0.86223 0.27569 0.0
H756 H 0.2349 0.89299 0.27291 0.0
H757 H 0.20376 0.83772 0.27261 0.0
H758 H 0.23521 0.8067 0.27502 0.0
H759 H 0.18793 0.87808 0.30424 0.0
H760 H 0.20805 0.86175 0.22211 0.0
H761 H 0.23114 0.85732 0.18866 0.0
H762 H 0.23144 0.93159 0.19747 0.0
H763 H 0.20867 0.93635 0.2314 0.0
C764 C 0.10716 0.95658 0.2713 0.0
C765 C 0.10726 0.98047 0.26662 0.0
C766 C 0.12466 0.93799 0.27087 0.0
C767 C 0.14282 0.94286 0.26643 0.0
C768 C 0.14281 0.96658 0.26086 0.0
C769 C 0.12525 0.98512 0.26086 0.0
C770 C 0.16182 0.92348 0.26825 0.0
C771 C 0.17541 0.92027 0.2495 0.0
C772 C 0.16659 0.90807 0.28833 0.0
C773 C 0.15399 0.9116 0.30982 0.0
C774 C 0.14912 0.93388 0.32236 0.0
C775 C 0.13711 0.93716 0.34248 0.0
C776 C 0.13001 0.91822 0.35037 0.0
C777 C 0.13496 0.89594 0.33819 0.0
C778 C 0.14695 0.89257 0.31803 0.0
C779 C 0.25282 0.85655 0.27524 0.0
C780 C 0.25336 0.83191 0.27567 0.0
C781 C 0.23484 0.8742 0.2735 0.0
C782 C 0.21694 0.8677 0.27238 0.0
C783 C 0.21737 0.84318 0.27341 0.0
C784 C 0.23538 0.82546 0.27478 0.0
C785 C 0.19781 0.88649 0.27003 0.0
C786 C 0.18427 0.88959 0.28871 0.0
C787 C 0.19329 0.90204 0.25012 0.0
C788 C 0.2068 0.89933 0.22951 0.0
C789 C 0.21317 0.87709 0.2171 0.0
C790 C 0.2262 0.87452 0.19803 0.0
C791 C 0.2328 0.89413 0.19101 0.0
C792 C 0.22635 0.91639 0.20299 0.0
C793 C 0.21338 0.91903 0.22215 0.0
H794 H 0.24287 0.89208 0.17625 0.0
H795 H 0.12072 0.9208 0.36596 0.0
H796 H 0.11031 0.97135 0.69419 0.0
H797 H 0.13926 0.93999 0.70569 0.0
H798 H 0.11371 0.93416 0.77425 0.0
H799 H 0.08418 0.9662 0.76274 0.0
H800 H 0.15486 0.93135 0.77721 0.0
H801 H 0.11231 0.89279 0.7331 0.0
H802 H 0.08997 0.88717 0.69975 0.0
H803 H 0.13671 0.87903 0.64951 0.0
H804 H 0.15927 0.88498 0.68252 0.0
H805 H 0.22674 0.81736 0.79333 0.0
H806 H 0.19605 0.8492 0.79031 0.0
H807 H 0.2109 0.86475 0.71874 0.0
H808 H 0.24181 0.833 0.72165 0.0
H809 H 0.17291 0.86058 0.72128 0.0
H810 H 0.21461 0.90198 0.76484 0.0
H811 H 0.23629 0.91067 0.79757 0.0
H812 H 0.19109 0.9139 0.84889 0.0
H813 H 0.1692 0.90487 0.81651 0.0
C814 C 0.11072 0.96358 0.71181 0.0
C815 C 0.09472 0.97113 0.72742 0.0
C816 C 0.12737 0.94555 0.71834 0.0
C817 C 0.12854 0.93433 0.74061 0.0
C818 C 0.11305 0.94247 0.75686 0.0
C819 C 0.09621 0.96075 0.7503 0.0
C820 C 0.14581 0.91365 0.746 0.0
C821 C 0.15861 0.91558 0.76535 0.0
C822 C 0.15091 0.8933 0.73021 0.0
C823 C 0.13745 0.88949 0.71029 0.0
C824 C 0.1178 0.88997 0.71492 0.0
C825 C 0.1051 0.8867 0.69608 0.0
C826 C 0.11191 0.88278 0.67252 0.0
C827 C 0.13146 0.88207 0.66777 0.0
C828 C 0.14421 0.88536 0.68655 0.0
C829 C 0.22358 0.82758 0.77693 0.0
C830 C 0.23685 0.82258 0.75772 0.0
C831 C 0.20602 0.84588 0.77531 0.0
C832 C 0.20122 0.85954 0.7544 0.0
C833 C 0.21432 0.8545 0.73511 0.0
C834 C 0.23201 0.83633 0.7368 0.0
C835 C 0.18222 0.87846 0.75221 0.0
C836 C 0.16906 0.87614 0.73341 0.0
C837 C 0.17682 0.89833 0.76859 0.0
C838 C 0.19032 0.90253 0.78826 0.0
C839 C 0.20937 0.90422 0.78314 0.0
C840 C 0.22166 0.90935 0.80162 0.0
C841 C 0.215 0.91303 0.82525 0.0
C842 C 0.19616 0.91122 0.83054 0.0
C843 C 0.18382 0.90606 0.81214 0.0
H844 H 0.2245 0.91714 0.83951 0.0
H845 H 0.10206 0.88026 0.65795 0.0
H846 H 0.07759 0.09155 0.72659 0.0
H847 H 0.1035 0.11247 0.73348 0.0
H848 H 0.12818 0.08598 0.66463 0.0
H849 H 0.10221 0.0651 0.65763 0.0
H850 H 0.15614 0.07963 0.70409 0.0
H851 H 0.1039 0.14177 0.66847 0.0
H852 H 0.07 0.16777 0.66511 0.0
H853 H 0.07557 0.19705 0.73616 0.0
H854 H 0.10944 0.17094 0.74007 0.0
H855 H 0.22237 0.15092 0.68867 0.0
H856 H 0.19638 0.13008 0.68487 0.0
H857 H 0.16862 0.16852 0.74786 0.0
H858 H 0.19423 0.19024 0.7512 0.0
H859 H 0.14188 0.16852 0.71352 0.0
H860 H 0.19354 0.10852 0.74986 0.0
H861 H 0.22708 0.0821 0.75539 0.0
H862 H 0.22249 0.04812 0.68642 0.0
H863 H 0.189 0.07459 0.6803 0.0
C864 C 0.08854 0.09022 0.71294 0.0
C865 C 0.08789 0.07672 0.69157 0.0
C866 C 0.10326 0.10224 0.71684 0.0
C867 C 0.11771 0.10079 0.69954 0.0
C868 C 0.11713 0.08731 0.67819 0.0
C869 C 0.10223 0.07557 0.67413 0.0
C870 C 0.13357 0.11313 0.70387 0.0
C871 C 0.1531 0.09908 0.70584 0.0
C872 C 0.12945 0.13842 0.70704 0.0
C873 C 0.10913 0.15421 0.70466 0.0
C874 C 0.09784 0.15359 0.68346 0.0
C875 C 0.07864 0.16838 0.68144 0.0
C876 C 0.07061 0.184 0.70044 0.0
C877 C 0.08179 0.18491 0.72147 0.0
C878 C 0.101 0.17014 0.72359 0.0
C879 C 0.2107 0.15505 0.70168 0.0
C880 C 0.21037 0.17235 0.72019 0.0
C881 C 0.19595 0.1429 0.69964 0.0
C882 C 0.18062 0.14752 0.71622 0.0
C883 C 0.18032 0.1646 0.73488 0.0
C884 C 0.19508 0.17684 0.7369 0.0
C885 C 0.16462 0.13506 0.71349 0.0
C886 C 0.14501 0.14906 0.71186 0.0
C887 C 0.16866 0.10966 0.71096 0.0
C888 C 0.18882 0.09371 0.71452 0.0
C889 C 0.19974 0.09556 0.73577 0.0
C890 C 0.21874 0.08054 0.73903 0.0
C891 C 0.22693 0.06348 0.72124 0.0
C892 C 0.21613 0.06136 0.70017 0.0
C893 C 0.19713 0.07635 0.69681 0.0
H894 H 0.24164 0.05186 0.72381 0.0
H895 H 0.05575 0.19543 0.69884 0.0
H896 H 0.97768 0.08421 0.68971 0.0
H897 H 0.94932 0.11594 0.70201 0.0
H898 H 0.96709 0.10421 0.7766 0.0
H899 H 0.99598 0.07178 0.76429 0.0
H900 H 0.92613 0.11081 0.76813 0.0
H901 H 0.97468 0.15181 0.75087 0.0
H902 H 1.0006 0.16172 0.72734 0.0
H903 H 0.95922 0.18524 0.66903 0.0
H904 H 0.93311 0.17513 0.69207 0.0
H905 H 0.85702 0.2239 0.80015 0.0
H906 H 0.88726 0.19142 0.79576 0.0
H907 H 0.87803 0.19133 0.71865 0.0
H908 H 0.8476 0.22365 0.72287 0.0
H909 H 0.91647 0.19158 0.73301 0.0
H910 H 0.86751 0.15106 0.75151 0.0
H911 H 0.84203 0.14078 0.77542 0.0
H912 H 0.88468 0.11458 0.83177 0.0
H913 H 0.91017 0.12607 0.8089 0.0
C914 C 0.97572 0.08821 0.70881 0.0
C915 C 0.9893 0.07545 0.72601 0.0
C916 C 0.95942 0.1065 0.71579 0.0
C917 C 0.95618 0.11277 0.74018 0.0
C918 C 0.96936 0.09975 0.75762 0.0
C919 C 0.98587 0.08129 0.75059 0.0
C920 C 0.93905 0.13313 0.74689 0.0
C921 C 0.92417 0.12866 0.76097 0.0
C922 C 0.93632 0.15627 0.73704 0.0
C923 C 0.95196 0.16255 0.72316 0.0
C924 C 0.97113 0.15894 0.73296 0.0
C925 C 0.98586 0.16462 0.71972 0.0
C926 C 0.98157 0.17407 0.69669 0.0
C927 C 0.96253 0.17791 0.68687 0.0
C928 C 0.94775 0.17224 0.70003 0.0
C929 C 0.86142 0.21703 0.78221 0.0
C930 C 0.84988 0.22645 0.76181 0.0
C931 C 0.87868 0.19836 0.77979 0.0
C932 C 0.88489 0.18887 0.7569 0.0
C933 C 0.87352 0.19838 0.7365 0.0
C934 C 0.85609 0.21681 0.73893 0.0
C935 C 0.90337 0.16926 0.75406 0.0
C936 C 0.9185 0.17388 0.74058 0.0
C937 C 0.90629 0.14636 0.76462 0.0
C938 C 0.89074 0.13995 0.77863 0.0
C939 C 0.8714 0.14367 0.76925 0.0
C940 C 0.85692 0.13762 0.78264 0.0
C941 C 0.86167 0.12727 0.80522 0.0
C942 C 0.88094 0.12286 0.8144 0.0
C943 C 0.89539 0.12929 0.80129 0.0
H944 H 0.85046 0.12252 0.81554 0.0
H945 H 0.993 0.17845 0.68646 0.0
H946 H 0.97679 0.99038 0.71378 0.0
H947 H 0.95246 0.96752 0.71859 0.0
H948 H 0.98344 0.91354 0.66794 0.0
H949 H 1.0079 0.93628 0.66311 0.0
H950 H 0.94451 0.92464 0.65902 0.0
H951 H 0.98695 0.90375 0.72872 0.0
H952 H 1.00479 0.91175 0.76556 0.0
H953 H 0.95001 0.94812 0.7981 0.0
H954 H 0.93185 0.94063 0.7613 0.0
H955 H 0.89705 0.83396 0.68234 0.0
H956 H 0.92203 0.85624 0.67955 0.0
H957 H 0.89029 0.90975 0.73013 0.0
H958 H 0.86519 0.8875 0.73302 0.0
H959 H 0.92942 0.89916 0.73941 0.0
H960 H 0.88699 0.92029 0.66991 0.0
H961 H 0.86899 0.91247 0.63314 0.0
H962 H 0.9236 0.87601 0.60027 0.0
H963 H 0.94192 0.88332 0.637 0.0
C964 C 0.97856 0.97355 0.70381 0.0
C965 C 0.99441 0.96513 0.68815 0.0
C966 C 0.9646 0.96049 0.70657 0.0
C967 C 0.96626 0.93863 0.69388 0.0
C968 C 0.98187 0.93035 0.67794 0.0
C969 C 0.99581 0.94344 0.67512 0.0
C970 C 0.9516 0.92451 0.69701 0.0
C971 C 0.94142 0.91878 0.67656 0.0
C972 C 0.94718 0.91739 0.71998 0.0
C973 C 0.95806 0.92184 0.74216 0.0
C974 C 0.97872 0.91362 0.74366 0.0
C975 C 0.98889 0.91804 0.76454 0.0
C976 C 0.97854 0.93049 0.78414 0.0
C977 C 0.958 0.93851 0.7829 0.0
C978 C 0.94777 0.93416 0.76204 0.0
C979 C 0.89534 0.8505 0.69283 0.0
C980 C 0.87902 0.85907 0.70773 0.0
C981 C 0.90965 0.86321 0.69123 0.0
C982 C 0.90787 0.88489 0.70432 0.0
C983 C 0.89195 0.89309 0.71982 0.0
C984 C 0.87764 0.88032 0.7215 0.0
C985 C 0.92242 0.8992 0.7014 0.0
C986 C 0.93254 0.90501 0.72188 0.0
C987 C 0.92678 0.90645 0.67846 0.0
C988 C 0.91581 0.90216 0.6563 0.0
C989 C 0.89515 0.91045 0.65491 0.0
C990 C 0.88489 0.90614 0.63406 0.0
C991 C 0.89514 0.8937 0.6144 0.0
C992 C 0.91568 0.88562 0.61553 0.0
C993 C 0.92601 0.88986 0.63635 0.0
H994 H 0.88717 0.89038 0.59828 0.0
H995 H 0.98644 0.93389 0.80029 0.0
H996 H 0.28424 0.11193 0.06363 0.0
H997 H 0.29428 0.13764 0.09464 0.0
H998 H 0.25765 0.11575 0.1459 0.0
H999 H 0.24736 0.09042 0.11484 0.0
H1000 H 0.25308 0.16199 0.14957 0.0
H1001 H 0.30897 0.09306 0.14573 0.0
H1002 H 0.33591 0.06294 0.12598 0.0
H1003 H 0.36126 0.11911 0.10429 0.0
H1004 H 0.33431 0.14962 0.12363 0.0
H1005 H 0.28636 0.20525 0.25559 0.0
H1006 H 0.28374 0.17494 0.22503 0.0
H1007 H 0.31476 0.20702 0.17505 0.0
H1008 H 0.31774 0.23738 0.20583 0.0
H1009 H 0.32331 0.15608 0.17 0.0
H1010 H 0.26694 0.22458 0.17398 0.0
H1011 H 0.2407 0.25398 0.19508 0.0
H1012 H 0.21602 0.19733 0.217 0.0
H1013 H 0.24264 0.1673 0.19651 0.0
C1014 C 0.27837 0.11264 0.08153 0.0
C1015 C 0.26502 0.09919 0.08683 0.0
C1016 C 0.28418 0.12722 0.09926 0.0
C1017 C 0.277 0.1283 0.12273 0.0
C1018 C 0.26342 0.11517 0.12793 0.0
C1019 C 0.25745 0.10081 0.11014 0.0
C1020 C 0.28318 0.14354 0.14179 0.0
C1021 C 0.26845 0.16039 0.15422 0.0
C1022 C 0.30325 0.14196 0.14748 0.0
C1023 C 0.31951 0.12364 0.13592 0.0
C1024 C 0.32021 0.09901 0.13659 0.0
C1025 C 0.33549 0.08186 0.1255 0.0
C1026 C 0.35026 0.08912 0.11383 0.0
C1027 C 0.3498 0.11353 0.1133 0.0
C1028 C 0.33453 0.13075 0.12434 0.0
C1029 C 0.29304 0.20556 0.23829 0.0
C1030 C 0.30201 0.22391 0.23298 0.0
C1031 C 0.29153 0.18821 0.22085 0.0
C1032 C 0.29868 0.18907 0.19765 0.0
C1033 C 0.30908 0.20613 0.19285 0.0
C1034 C 0.31077 0.22345 0.21044 0.0
C1035 C 0.29319 0.17408 0.17789 0.0
C1036 C 0.30799 0.15749 0.16529 0.0
C1037 C 0.27317 0.17571 0.17207 0.0
C1038 C 0.25688 0.19369 0.18391 0.0
C1039 C 0.256 0.21835 0.18342 0.0
C1040 C 0.24102 0.23516 0.19528 0.0
C1041 C 0.22661 0.22763 0.20737 0.0
C1042 C 0.22718 0.20317 0.20763 0.0
C1043 C 0.24224 0.18623 0.19591 0.0
H1044 H 0.21501 0.2407 0.21655 0.0
H1045 H 0.36208 0.07581 0.10526 0.0
H1046 H 0.02844 0.3682 0.10829 0.0
H1047 H 0.99921 0.36401 0.1289 0.0
H1048 H 0.97653 0.34123 0.06189 0.0
H1049 H 1.00554 0.34575 0.04117 0.0
H1050 H 0.94737 0.37113 0.08914 0.0
H1051 H 1.00123 0.29997 0.09973 0.0
H1052 H 0.035 0.27792 0.11179 0.0
H1053 H 0.02433 0.30438 0.1846 0.0
H1054 H 0.99056 0.32689 0.17287 0.0
H1055 H 0.88057 0.30902 0.1302 0.0
H1056 H 0.9081 0.31924 0.11095 0.0
H1057 H 0.93121 0.33424 0.18079 0.0
H1058 H 0.90389 0.32368 0.20011 0.0
H1059 H 0.96007 0.31032 0.15342 0.0
H1060 H 0.9056 0.37991 0.14362 0.0
H1061 H 0.87184 0.40214 0.13169 0.0
H1062 H 0.88343 0.37939 0.058 0.0
H1063 H 0.91719 0.35673 0.06954 0.0
C1064 C 0.017 0.36289 0.09786 0.0
C1065 C 0.01933 0.35709 0.07317 0.0
C1066 C 1.0004 0.36031 0.10968 0.0
C1067 C 0.98588 0.35196 0.09696 0.0
C1068 C 0.98761 0.34759 0.07204 0.0
C1069 C 1.00422 0.35004 0.06027 0.0
C1070 C 0.96957 0.34615 0.10978 0.0
C1071 C 0.9501 0.35773 0.10308 0.0
C1072 C 0.97321 0.32897 0.12826 0.0
C1073 C 0.99345 0.31532 0.13537 0.0
C1074 C 1.00614 0.30124 0.11827 0.0
C1075 C 0.02527 0.28863 0.12505 0.0
C1076 C 0.03183 0.2898 0.14893 0.0
C1077 C 0.01924 0.30353 0.1661 0.0
C1078 C 1.0001 0.3162 0.15939 0.0
C1079 C 0.89155 0.31447 0.14142 0.0
C1080 C 0.89007 0.3156 0.16664 0.0
C1081 C 0.90723 0.32039 0.13042 0.0
C1082 C 0.92153 0.32794 0.14441 0.0
C1083 C 0.92033 0.32851 0.16963 0.0
C1084 C 0.90476 0.32238 0.18065 0.0
C1085 C 0.93775 0.33526 0.13278 0.0
C1086 C 0.95725 0.3239 0.13965 0.0
C1087 C 0.93412 0.35271 0.11451 0.0
C1088 C 0.91387 0.36645 0.10748 0.0
C1089 C 0.90091 0.37951 0.12489 0.0
C1090 C 0.88178 0.39221 0.1182 0.0
C1091 C 0.87548 0.39213 0.09411 0.0
C1092 C 0.88832 0.37941 0.07665 0.0
C1093 C 0.90746 0.36666 0.08326 0.0
H1094 H 0.86066 0.40197 0.08896 0.0
H1095 H 0.04665 0.28003 0.15415 0.0
H1096 H 0.83091 0.92628 0.05389 0.0
H1097 H 0.82181 0.90412 0.08679 0.0
H1098 H 0.8494 0.94336 0.13818 0.0
H1099 H 0.85937 0.96459 0.10498 0.0
H1100 H 0.85557 0.89999 0.15261 0.0
H1101 H 0.79799 0.95862 0.12735 0.0
H1102 H 0.77299 0.98127 0.09868 0.0
H1103 H 0.75648 0.91652 0.07866 0.0
H1104 H 0.78157 0.8934 0.10697 0.0
H1105 H 0.8087 0.85371 0.24631 0.0
H1106 H 0.81581 0.88414 0.22055 0.0
H1107 H 0.79843 0.84815 0.1578 0.0
H1108 H 0.7909 0.81817 0.18323 0.0
H1109 H 0.7861 0.89583 0.15394 0.0
H1110 H 0.84557 0.83822 0.18339 0.0
H1111 H 0.87109 0.81903 0.21293 0.0
H1112 H 0.88351 0.88688 0.22916 0.0
H1113 H 0.85779 0.9068 0.19987 0.0
C1114 C 0.8352 0.92987 0.07222 0.0
C1115 C 0.84575 0.94709 0.077 0.0
C1116 C 0.82988 0.91741 0.09102 0.0
C1117 C 0.8344 0.92255 0.11509 0.0
C1118 C 0.84563 0.93915 0.11981 0.0
C1119 C 0.85136 0.95122 0.10089 0.0
C1120 C 0.827 0.91097 0.13519 0.0
C1121 C 0.8403 0.89944 0.15318 0.0
C1122 C 0.80703 0.91038 0.13606 0.0
C1123 C 0.79175 0.92426 0.11919 0.0
C1124 C 0.78909 0.94919 0.11675 0.0
C1125 C 0.7749 0.96211 0.10056 0.0
C1126 C 0.76317 0.95033 0.08683 0.0
C1127 C 0.76558 0.92562 0.0893 0.0
C1128 C 0.77976 0.9126 0.10544 0.0
C1129 C 0.80596 0.85259 0.22708 0.0
C1130 C 0.79937 0.83335 0.21683 0.0
C1131 C 0.81017 0.86991 0.21238 0.0
C1132 C 0.80805 0.86812 0.18722 0.0
C1133 C 0.80031 0.84982 0.17716 0.0
C1134 C 0.79601 0.83264 0.19177 0.0
C1135 C 0.8148 0.8842 0.17092 0.0
C1136 C 0.80132 0.89669 0.15362 0.0
C1137 C 0.8345 0.88615 0.17118 0.0
C1138 C 0.8496 0.87409 0.18933 0.0
C1139 C 0.85361 0.84918 0.19322 0.0
C1140 C 0.86816 0.83813 0.20994 0.0
C1141 C 0.879 0.85167 0.22275 0.0
C1142 C 0.87516 0.8764 0.21911 0.0
C1143 C 0.86057 0.88759 0.20245 0.0
H1144 H 0.89035 0.84298 0.23553 0.0
H1145 H 0.7522 0.96037 0.0743 0.0
H1146 H 0.06389 0.74826 0.06841 0.0
H1147 H 0.09349 0.75254 0.08988 0.0
H1148 H 0.11509 0.67518 0.09294 0.0
H1149 H 0.08514 0.67084 0.0716 0.0
H1150 H 0.12178 0.69562 0.13481 0.0
H1151 H 0.13299 0.70785 0.05217 0.0
H1152 H 0.12473 0.72588 0.01217 0.0
H1153 H 0.12263 0.79586 0.04271 0.0
H1154 H 0.13056 0.77831 0.08302 0.0
H1155 H 0.22034 0.69459 0.16592 0.0
H1156 H 0.19097 0.68936 0.14444 0.0
H1157 H 0.16662 0.76643 0.1444 0.0
H1158 H 0.19631 0.77187 0.1654 0.0
H1159 H 0.16183 0.74545 0.1005 0.0
H1160 H 0.1504 0.73239 0.18351 0.0
H1161 H 0.1585 0.71365 0.2232 0.0
H1162 H 0.16162 0.64403 0.19107 0.0
H1163 H 0.1538 0.66232 0.15111 0.0
C1164 C 0.075 0.73214 0.07346 0.0
C1165 C 0.07232 0.70918 0.068 0.0
C1166 C 0.09193 0.73461 0.08577 0.0
C1167 C 0.10674 0.71419 0.09259 0.0
C1168 C 0.10391 0.69121 0.08774 0.0
C1169 C 0.08681 0.68872 0.07559 0.0
C1170 C 0.12513 0.71698 0.10475 0.0
C1171 C 0.1307 0.7062 0.12713 0.0
C1172 C 0.13658 0.7312 0.09495 0.0
C1173 C 0.13221 0.74178 0.07066 0.0
C1174 C 0.13066 0.7271 0.0504 0.0
C1175 C 0.12604 0.73723 0.02767 0.0
C1176 C 0.12312 0.76199 0.02494 0.0
C1177 C 0.12488 0.77668 0.04489 0.0
C1178 C 0.12946 0.76664 0.06768 0.0
C1179 C 0.20885 0.71048 0.16113 0.0
C1180 C 0.21071 0.73367 0.16734 0.0
C1181 C 0.19197 0.70743 0.14904 0.0
C1182 C 0.1765 0.72749 0.14303 0.0
C1183 C 0.17836 0.7507 0.14894 0.0
C1184 C 0.19526 0.75377 0.16109 0.0
C1185 C 0.15841 0.72417 0.13059 0.0
C1186 C 0.15292 0.73483 0.10814 0.0
C1187 C 0.14711 0.70971 0.14024 0.0
C1188 C 0.15169 0.6987 0.16428 0.0
C1189 C 0.15296 0.71306 0.18488 0.0
C1190 C 0.15747 0.70252 0.20743 0.0
C1191 C 0.16062 0.67766 0.20965 0.0
C1192 C 0.1592 0.66328 0.18932 0.0
C1193 C 0.15471 0.67373 0.16672 0.0
H1194 H 0.16411 0.66953 0.22713 0.0
H1195 H 0.11953 0.76976 0.00735 0.0
H1196 H 0.27758 0.94411 0.98548 0.0
H1197 H 0.28459 0.90956 0.95751 0.0
H1198 H 0.24027 0.94889 0.90785 0.0
H1199 H 0.23327 0.98369 0.9358 0.0
H1200 H 0.24078 0.90046 0.90982 0.0
H1201 H 0.28617 0.9487 0.89942 0.0
H1202 H 0.31062 0.97038 0.9129 0.0
H1203 H 0.34934 0.90423 0.93773 0.0
H1204 H 0.32497 0.88221 0.92472 0.0
H1205 H 0.30176 0.84209 0.80193 0.0
H1206 H 0.29514 0.87275 0.83412 0.0
H1207 H 0.28094 0.82203 0.88175 0.0
H1208 H 0.28747 0.79119 0.84963 0.0
H1209 H 0.30934 0.87647 0.88033 0.0
H1210 H 0.23797 0.85485 0.91174 0.0
H1211 H 0.21271 0.83556 0.89554 0.0
H1212 H 0.22454 0.85265 0.82362 0.0
H1213 H 0.24975 0.87199 0.83932 0.0
C1214 C 0.26926 0.94536 0.96866 0.0
C1215 C 0.25512 0.96674 0.96261 0.0
C1216 C 0.27321 0.92559 0.95278 0.0
C1217 C 0.26317 0.92687 0.93049 0.0
C1218 C 0.24819 0.94761 0.92498 0.0
C1219 C 0.24419 0.96744 0.94095 0.0
C1220 C 0.26943 0.90731 0.91226 0.0
C1221 C 0.25578 0.89508 0.90347 0.0
C1222 C 0.28892 0.90069 0.90367 0.0
C1223 C 0.30367 0.91385 0.91131 0.0
C1224 C 0.29984 0.93881 0.90792 0.0
C1225 C 0.31368 0.95115 0.91545 0.0
C1226 C 0.3315 0.9387 0.92622 0.0
C1227 C 0.33552 0.91386 0.92942 0.0
C1228 C 0.3217 0.90143 0.92196 0.0
C1229 C 0.29754 0.83731 0.81937 0.0
C1230 C 0.29496 0.81429 0.82317 0.0
C1231 C 0.29384 0.85483 0.83775 0.0
C1232 C 0.28732 0.84969 0.86013 0.0
C1233 C 0.28578 0.82635 0.86446 0.0
C1234 C 0.2896 0.80874 0.84612 0.0
C1235 C 0.28082 0.86926 0.87825 0.0
C1236 C 0.2944 0.88159 0.88693 0.0
C1237 C 0.26118 0.87622 0.88637 0.0
C1238 C 0.24591 0.86467 0.87673 0.0
C1239 C 0.23516 0.8545 0.89247 0.0
C1240 C 0.22086 0.84349 0.88335 0.0
C1241 C 0.2171 0.84271 0.85853 0.0
C1242 C 0.22759 0.85298 0.84279 0.0
C1243 C 0.24192 0.86392 0.8518 0.0
H1244 H 0.20602 0.83423 0.8515 0.0
H1245 H 0.3422 0.94829 0.93204 0.0
H1246 H 0.13629 0.36549 0.95857 0.0
H1247 H 0.16247 0.35694 0.92893 0.0
H1248 H 0.15334 0.28639 0.91526 0.0
H1249 H 0.1276 0.2947 0.94545 0.0
H1250 H 0.19072 0.28256 0.91655 0.0
H1251 H 0.13547 0.33534 0.87631 0.0
H1252 H 0.10834 0.37209 0.87104 0.0
H1253 H 0.1498 0.41519 0.87345 0.0
H1254 H 0.17716 0.3787 0.87906 0.0
H1255 H 0.23853 0.25657 0.80507 0.0
H1256 H 0.21248 0.26758 0.83462 0.0
H1257 H 0.23082 0.33145 0.85462 0.0
H1258 H 0.25705 0.3206 0.82502 0.0
H1259 H 0.18962 0.33924 0.8504 0.0
H1260 H 0.24517 0.28422 0.88862 0.0
H1261 H 0.27145 0.24631 0.89136 0.0
H1262 H 0.22805 0.20595 0.89049 0.0
H1263 H 0.20151 0.2436 0.88727 0.0
C1264 C 0.13986 0.34821 0.94916 0.0
C1265 C 0.12987 0.33079 0.95422 0.0
C1266 C 0.15479 0.34333 0.93219 0.0
C1267 C 0.15969 0.32115 0.9195 0.0
C1268 C 0.14986 0.30363 0.92478 0.0
C1269 C 0.13516 0.30837 0.94204 0.0
C1270 C 0.17501 0.31617 0.9007 0.0
C1271 C 0.19031 0.29485 0.90195 0.0
C1272 C 0.17475 0.33236 0.88182 0.0
C1273 C 0.15834 0.35431 0.87835 0.0
C1274 C 0.13878 0.35267 0.87589 0.0
C1275 C 0.12337 0.37345 0.87281 0.0
C1276 C 0.12734 0.39597 0.87197 0.0
C1277 C 0.14674 0.39774 0.87414 0.0
C1278 C 0.16221 0.37701 0.87725 0.0
C1279 C 0.23695 0.27311 0.81553 0.0
C1280 C 0.24998 0.28764 0.81276 0.0
C1281 C 0.22208 0.27931 0.83249 0.0
C1282 C 0.21992 0.30013 0.84702 0.0
C1283 C 0.23232 0.31524 0.84363 0.0
C1284 C 0.2473 0.30899 0.82673 0.0
C1285 C 0.20511 0.30566 0.86625 0.0
C1286 C 0.18998 0.32705 0.86508 0.0
C1287 C 0.20538 0.28939 0.88501 0.0
C1288 C 0.22134 0.26675 0.88748 0.0
C1289 C 0.24122 0.26726 0.88885 0.0
C1290 C 0.25617 0.24581 0.8905 0.0
C1291 C 0.25142 0.22373 0.89104 0.0
C1292 C 0.23171 0.22307 0.89003 0.0
C1293 C 0.2167 0.24446 0.8883 0.0
H1294 H 0.263 0.20715 0.89227 0.0
H1295 H 0.11539 0.41203 0.86959 0.0
H1296 H 0.82418 0.09928 0.97958 0.0
H1297 H 0.81544 0.1351 0.95473 0.0
H1298 H 0.85386 0.09683 0.89922 0.0
H1299 H 0.86276 0.06094 0.92414 0.0
H1300 H 0.85541 0.14363 0.90343 0.0
H1301 H 0.80508 0.10068 0.89617 0.0
H1302 H 0.78045 0.0815 0.9115 0.0
H1303 H 0.74876 0.149 0.9432 0.0
H1304 H 0.77338 0.16851 0.92834 0.0
H1305 H 0.81162 0.20174 0.79768 0.0
H1306 H 0.82124 0.17171 0.82904 0.0
H1307 H 0.78975 0.22316 0.88154 0.0
H1308 H 0.78039 0.25372 0.85023 0.0
H1309 H 0.78433 0.17311 0.88175 0.0
H1310 H 0.83324 0.21711 0.88351 0.0
H1311 H 0.857 0.23555 0.86495 0.0
H1312 H 0.89146 0.16567 0.84211 0.0
H1313 H 0.86759 0.14683 0.8601 0.0
C1314 C 0.83084 0.09854 0.96214 0.0
C1315 C 0.84393 0.07718 0.95366 0.0
C1316 C 0.82588 0.11903 0.94799 0.0
C1317 C 0.83373 0.1185 0.92494 0.0
C1318 C 0.84761 0.09762 0.91694 0.0
C1319 C 0.8527 0.07713 0.93119 0.0
C1320 C 0.82638 0.13902 0.90855 0.0
C1321 C 0.8399 0.15001 0.89859 0.0
C1322 C 0.80607 0.14763 0.90259 0.0
C1323 C 0.79118 0.13598 0.91138 0.0
C1324 C 0.79294 0.11138 0.90656 0.0
C1325 C 0.77897 0.10046 0.91514 0.0
C1326 C 0.76308 0.11401 0.92838 0.0
C1327 C 0.7611 0.13852 0.93299 0.0
C1328 C 0.77504 0.14952 0.92448 0.0
C1329 C 0.80644 0.20661 0.8158 0.0
C1330 C 0.79517 0.23006 0.82152 0.0
C1331 C 0.81206 0.18947 0.83369 0.0
C1332 C 0.80629 0.19535 0.85753 0.0
C1333 C 0.79434 0.21839 0.86319 0.0
C1334 C 0.78903 0.23577 0.84534 0.0
C1335 C 0.81336 0.17749 0.87655 0.0
C1336 C 0.7998 0.16697 0.8869 0.0
C1337 C 0.83362 0.16929 0.88275 0.0
C1338 C 0.8484 0.18054 0.87274 0.0
C1339 C 0.84574 0.20566 0.87428 0.0
C1340 C 0.85925 0.2162 0.8639 0.0
C1341 C 0.87565 0.20179 0.8522 0.0
C1342 C 0.87866 0.1768 0.85103 0.0
C1343 C 0.86515 0.16619 0.86131 0.0
H1344 H 0.88608 0.20999 0.84414 0.0
H1345 H 0.75228 0.10552 0.935 0.0
H1346 H 0.95263 0.68478 0.94718 0.0
H1347 H 0.92777 0.69202 0.91464 0.0
H1348 H 0.94714 0.75333 0.89275 0.0
H1349 H 0.97162 0.74649 0.92577 0.0
H1350 H 0.90927 0.76482 0.89134 0.0
H1351 H 0.95844 0.69756 0.86067 0.0
H1352 H 0.98161 0.6571 0.86093 0.0
H1353 H 0.93341 0.62511 0.868 0.0
H1354 H 0.90997 0.66541 0.8681 0.0
H1355 H 0.85577 0.77423 0.77853 0.0
H1356 H 0.88431 0.76521 0.80648 0.0
H1357 H 0.85886 0.71679 0.84458 0.0
H1358 H 0.83017 0.72609 0.81712 0.0
H1359 H 0.90107 0.69933 0.83526 0.0
H1360 H 0.85235 0.76839 0.86725 0.0
H1361 H 0.83001 0.80933 0.86553 0.0
H1362 H 0.87916 0.83847 0.85373 0.0
H1363 H 0.90175 0.79763 0.85487 0.0
C1364 C 0.95167 0.69966 0.93529 0.0
C1365 C 0.96409 0.71503 0.93898 0.0
C1366 C 0.93749 0.70378 0.91663 0.0
C1367 C 0.93573 0.72302 0.9009 0.0
C1368 C 0.94815 0.73838 0.9046 0.0
C1369 C 0.96213 0.73448 0.92348 0.0
C1370 C 0.92067 0.72742 0.88096 0.0
C1371 C 0.90775 0.75055 0.87885 0.0
C1372 C 0.91842 0.70881 0.86473 0.0
C1373 C 0.93246 0.68453 0.8646 0.0
C1374 C 0.95279 0.68191 0.86245 0.0
C1375 C 0.96597 0.659 0.86251 0.0
C1376 C 0.95899 0.63855 0.86454 0.0
C1377 C 0.9388 0.64097 0.86645 0.0
C1378 C 0.92556 0.66383 0.86643 0.0
C1379 C 0.85645 0.76135 0.79261 0.0
C1380 C 0.84077 0.75086 0.79569 0.0
C1381 C 0.87267 0.75632 0.80861 0.0
C1382 C 0.87359 0.74044 0.82763 0.0
C1383 C 0.8584 0.72909 0.83001 0.0
C1384 C 0.84203 0.73446 0.81435 0.0
C1385 C 0.88981 0.73654 0.84588 0.0
C1386 C 0.90284 0.71355 0.84766 0.0
C1387 C 0.89233 0.75533 0.86157 0.0
C1388 C 0.87872 0.7799 0.86085 0.0
C1389 C 0.85837 0.78348 0.864 0.0
C1390 C 0.84567 0.80668 0.86318 0.0
C1391 C 0.85316 0.82647 0.85949 0.0
C1392 C 0.87337 0.82311 0.85656 0.0
C1393 C 0.88613 0.79994 0.85728 0.0
H1394 H 0.84333 0.84443 0.85903 0.0
H1395 H 0.96922 0.62084 0.86458 0.0
H1396 H 0.15419 0.31646 0.05523 0.0
H1397 H 0.17699 0.30932 0.08979 0.0
H1398 H 0.13579 0.28223 0.12945 0.0
H1399 H 0.11283 0.28908 0.09444 0.0
H1400 H 0.14966 0.3181 0.15489 0.0
H1401 H 0.17678 0.24368 0.11389 0.0
H1402 H 0.18969 0.21632 0.07974 0.0
H1403 H 0.23656 0.25047 0.0723 0.0
H1404 H 0.22376 0.2783 0.10618 0.0
H1405 H 0.22285 0.28928 0.25145 0.0
H1406 H 0.19699 0.28944 0.22098 0.0
H1407 H 0.23268 0.3087 0.16692 0.0
H1408 H 0.2586 0.30832 0.19707 0.0
H1409 H 0.21972 0.27154 0.15157 0.0
H1410 H 0.19032 0.34888 0.1893 0.0
H1411 H 0.17748 0.37646 0.22335 0.0
H1412 H 0.13508 0.33687 0.23685 0.0
H1413 H 0.14785 0.30886 0.20304 0.0
C1414 C 0.1501 0.30854 0.07113 0.0
C1415 C 0.13174 0.30325 0.07208 0.0
C1416 C 0.16318 0.30444 0.0909 0.0
C1417 C 0.15816 0.2952 0.11225 0.0
C1418 C 0.14 0.28933 0.11314 0.0
C1419 C 0.12697 0.29306 0.09309 0.0
C1420 C 0.17155 0.29323 0.13382 0.0
C1421 C 0.16488 0.30752 0.15439 0.0
C1422 C 0.19152 0.2798 0.13303 0.0
C1423 C 0.19919 0.26323 0.11248 0.0
C1424 C 0.18973 0.24553 0.10483 0.0
C1425 C 0.19705 0.22989 0.08555 0.0
C1426 C 0.21391 0.23169 0.07382 0.0
C1427 C 0.22349 0.24911 0.08138 0.0
C1428 C 0.21622 0.2648 0.10065 0.0
C1429 C 0.22509 0.29392 0.23316 0.0
C1430 C 0.24292 0.29867 0.22677 0.0
C1431 C 0.21021 0.29408 0.21573 0.0
C1432 C 0.21282 0.29907 0.19156 0.0
C1433 C 0.23032 0.30464 0.18537 0.0
C1434 C 0.24516 0.30445 0.20271 0.0
C1435 C 0.19803 0.29708 0.17233 0.0
C1436 C 0.20445 0.28194 0.15222 0.0
C1437 C 0.17788 0.30979 0.17354 0.0
C1438 C 0.17019 0.32662 0.19382 0.0
C1439 C 0.17837 0.34594 0.19966 0.0
C1440 C 0.17108 0.36167 0.21889 0.0
C1441 C 0.15552 0.35837 0.2323 0.0
C1442 C 0.14717 0.33938 0.22647 0.0
C1443 C 0.15441 0.32358 0.20727 0.0
H1444 H 0.1499 0.37058 0.24718 0.0
H1445 H 0.21957 0.21955 0.05891 0.0
H1446 H 0.06117 0.76212 0.99726 0.0
H1447 H 0.09104 0.76748 0.97893 0.0
H1448 H 0.06598 0.76022 0.90817 0.0
H1449 H 0.03669 0.75377 0.92646 0.0
H1450 H 0.10021 0.73158 0.91012 0.0
H1451 H 0.0746 0.81472 0.93376 0.0
H1452 H 0.0619 0.84875 0.962 0.0
H1453 H 0.11626 0.82995 1.00288 0.0
H1454 H 0.12925 0.79569 0.97499 0.0
H1455 H 0.1707 0.76092 0.83729 0.0
H1456 H 0.14027 0.76513 0.85926 0.0
H1457 H 0.17315 0.75687 0.92656 0.0
H1458 H 0.20375 0.75271 0.90464 0.0
H1459 H 0.13641 0.79344 0.92821 0.0
H1460 H 0.16132 0.71015 0.90503 0.0
H1461 H 0.17409 0.67619 0.87674 0.0
H1462 H 0.12037 0.69618 0.83467 0.0
H1463 H 0.10739 0.73052 0.86254 0.0
C1464 C 0.06184 0.76243 0.9778 0.0
C1465 C 0.04657 0.75767 0.96326 0.0
C1466 C 0.07897 0.76543 0.96729 0.0
C1467 C 0.08092 0.76426 0.94205 0.0
C1468 C 0.06504 0.76102 0.92763 0.0
C1469 C 0.04819 0.75754 0.9381 0.0
C1470 C 0.09994 0.76414 0.9305 0.0
C1471 C 0.10785 0.74542 0.91388 0.0
C1472 C 0.1105 0.7816 0.93588 0.0
C1473 C 0.10278 0.80239 0.95248 0.0
C1474 C 0.08379 0.81771 0.94888 0.0
C1475 C 0.07656 0.83709 0.96479 0.0
C1476 C 0.08823 0.84146 0.98428 0.0
C1477 C 0.10722 0.82654 0.98781 0.0
C1478 C 0.11453 0.80716 0.97192 0.0
C1479 C 0.17145 0.76039 0.85679 0.0
C1480 C 0.1897 0.7564 0.86919 0.0
C1481 C 0.15404 0.76268 0.86932 0.0
C1482 C 0.15442 0.76116 0.89456 0.0
C1483 C 0.17249 0.7581 0.9071 0.0
C1484 C 0.18998 0.75555 0.89453 0.0
C1485 C 0.13613 0.76133 0.90756 0.0
C1486 C 0.12854 0.77981 0.9245 0.0
C1487 C 0.12574 0.74374 0.90247 0.0
C1488 C 0.13347 0.72305 0.88574 0.0
C1489 C 0.1523 0.70743 0.88964 0.0
C1490 C 0.15956 0.68809 0.87369 0.0
C1491 C 0.14807 0.68407 0.85388 0.0
C1492 C 0.12927 0.69935 0.85001 0.0
C1493 C 0.12195 0.71874 0.86588 0.0
H1494 H 0.15371 0.66908 0.84156 0.0
H1495 H 0.08259 0.85645 0.99659 0.0
H1496 H 0.31212 0.08056 0.98722 0.0
H1497 H 0.32064 0.10673 0.95707 0.0
H1498 H 0.27899 0.08832 0.90654 0.0
H1499 H 0.27025 0.06283 0.93652 0.0
H1500 H 0.31454 0.09003 0.885 0.0
H1501 H 0.26482 0.13812 0.93808 0.0
H1502 H 0.25186 0.1545 0.97762 0.0
H1503 H 0.30035 0.1862 0.98871 0.0
H1504 H 0.31374 0.16969 0.94934 0.0
H1505 H 0.29068 0.18329 0.79979 0.0
H1506 H 0.29094 0.1532 0.83016 0.0
H1507 H 0.3219 0.18981 0.88008 0.0
H1508 H 0.32095 0.22042 0.85015 0.0
H1509 H 0.2959 0.17781 0.90359 0.0
H1510 H 0.34443 0.13364 0.8496 0.0
H1511 H 0.35843 0.11713 0.81056 0.0
H1512 H 0.31462 0.07768 0.80163 0.0
H1513 H 0.30018 0.09421 0.84048 0.0
C1514 C 0.30518 0.08172 0.96947 0.0
C1515 C 0.29056 0.06965 0.96417 0.0
C1516 C 0.30992 0.09678 0.95233 0.0
C1517 C 0.30035 0.09962 0.92955 0.0
C1518 C 0.2866 0.08644 0.92391 0.0
C1519 C 0.2816 0.07187 0.94109 0.0
C1520 C 0.30342 0.11742 0.91199 0.0
C1521 C 0.31041 0.10924 0.88899 0.0
C1522 C 0.29847 0.14246 0.91732 0.0
C1523 C 0.29041 0.1524 0.94094 0.0
C1524 C 0.27281 0.14838 0.94906 0.0
C1525 C 0.26537 0.15773 0.97141 0.0
C1526 C 0.27532 0.17131 0.98571 0.0
C1527 C 0.29269 0.17563 0.97765 0.0
C1528 C 0.30021 0.16628 0.95532 0.0
C1529 C 0.29771 0.18482 0.81716 0.0
C1530 C 0.30589 0.20425 0.82242 0.0
C1531 C 0.29794 0.16749 0.83455 0.0
C1532 C 0.30677 0.16882 0.85746 0.0
C1533 C 0.31501 0.18821 0.86264 0.0
C1534 C 0.31451 0.20572 0.84542 0.0
C1535 C 0.30684 0.15055 0.87625 0.0
C1536 C 0.30033 0.15862 0.89952 0.0
C1537 C 0.31247 0.12538 0.87121 0.0
C1538 C 0.32113 0.11533 0.84787 0.0
C1539 C 0.3377 0.12158 0.83923 0.0
C1540 C 0.34572 0.11219 0.81715 0.0
C1541 C 0.33739 0.09641 0.8036 0.0
C1542 C 0.32104 0.08993 0.81214 0.0
C1543 C 0.31295 0.09927 0.8342 0.0
H1544 H 0.34362 0.08917 0.7865 0.0
H1545 H 0.26953 0.17854 1.00301 0.0
H1546 H 0.05962 0.27848 0.93995 0.0
H1547 H 0.02896 0.27469 0.92066 0.0
H1548 H 0.99992 0.28906 0.98895 0.0
H1549 H 0.03076 0.29244 0.00855 0.0
H1550 H 0.98643 0.25607 0.96258 0.0
H1551 H 0.99597 0.33401 0.94908 0.0
H1552 H 0.01401 0.3629 0.93656 0.0
H1553 H 0.01683 0.33361 0.86435 0.0
H1554 H 0.99904 0.30428 0.87654 0.0
H1555 H 0.88812 0.29862 0.91487 0.0
H1556 H 0.9199 0.2938 0.93585 0.0
H1557 H 0.94954 0.27824 0.86802 0.0
H1558 H 0.91774 0.28352 0.84685 0.0
H1559 H 0.9627 0.31112 0.89451 0.0
H1560 H 0.95158 0.2339 0.90847 0.0
H1561 H 0.93295 0.20592 0.92173 0.0
H1562 H 0.93212 0.23509 0.99385 0.0
H1563 H 0.95051 0.26351 0.98095 0.0
C1564 C 0.04682 0.28042 0.95101 0.0
C1565 C 0.04767 0.28598 0.9758 0.0
C1566 C 0.02923 0.27837 0.9399 0.0
C1567 C 0.01194 0.28215 0.9532 0.0
C1568 C 0.013 0.28621 0.97824 0.0
C1569 C 0.03069 0.2881 0.98945 0.0
C1570 C 0.99264 0.28338 0.94067 0.0
C1571 C 0.98114 0.26829 0.94788 0.0
C1572 C 0.98576 0.29908 0.92122 0.0
C1573 C 0.99635 0.31679 0.91378 0.0
C1574 C 1.00056 0.33361 0.93057 0.0
C1575 C 0.01073 0.35008 0.92353 0.0
C1576 C 0.01661 0.35005 0.89969 0.0
C1577 C 0.01229 0.33358 0.88282 0.0
C1578 C 1.00216 0.31705 0.88978 0.0
C1579 C 0.90139 0.29416 0.90439 0.0
C1580 C 0.90031 0.29153 0.87911 0.0
C1581 C 0.9196 0.29119 0.91646 0.0
C1582 C 0.9372 0.28548 0.90359 0.0
C1583 C 0.9362 0.28258 0.87839 0.0
C1584 C 0.91799 0.28543 0.86631 0.0
C1585 C 0.95654 0.28365 0.91623 0.0
C1586 C 0.96801 0.29877 0.90912 0.0
C1587 C 0.96326 0.26812 0.93585 0.0
C1588 C 0.95226 0.25099 0.94368 0.0
C1589 C 0.94729 0.23449 0.92712 0.0
C1590 C 0.9368 0.21852 0.93458 0.0
C1591 C 0.93132 0.21876 0.9586 0.0
C1592 C 0.93636 0.23494 0.97524 0.0
C1593 C 0.94683 0.25097 0.96786 0.0
H1594 H 0.9232 0.20639 0.96435 0.0
H1595 H 0.02448 0.36281 0.89427 0.0
H1596 H 0.78549 0.97171 0.96727 0.0
H1597 H 0.7746 0.94626 0.93611 0.0
H1598 H 0.83218 0.92942 0.90489 0.0
H1599 H 0.84301 0.95434 0.93552 0.0
H1600 H 0.80327 0.94018 0.87035 0.0
H1601 H 0.81912 0.88988 0.94076 0.0
H1602 H 0.8154 0.87984 0.98299 0.0
H1603 H 0.75452 0.88286 0.96874 0.0
H1604 H 0.75784 0.89324 0.92647 0.0
H1605 H 0.81552 0.83616 0.79776 0.0
H1606 H 0.81747 0.86603 0.82892 0.0
H1607 H 0.76014 0.86515 0.8538 0.0
H1608 H 0.7583 0.8345 0.82278 0.0
H1609 H 0.78317 0.86696 0.89139 0.0
H1610 H 0.76792 0.91303 0.8199 0.0
H1611 H 0.77146 0.92296 0.77761 0.0
H1612 H 0.83007 0.92894 0.79357 0.0
H1613 H 0.82696 0.91875 0.83591 0.0
C1614 C 0.79572 0.96268 0.95364 0.0
C1615 C 0.81515 0.96504 0.95402 0.0
C1616 C 0.78954 0.94805 0.93591 0.0
C1617 C 0.80261 0.93577 0.91813 0.0
C1618 C 0.82178 0.93865 0.91829 0.0
C1619 C 0.82798 0.95291 0.93599 0.0
C1620 C 0.79685 0.91957 0.89937 0.0
C1621 C 0.7989 0.92414 0.87497 0.0
C1622 C 0.79062 0.89895 0.90522 0.0
C1623 C 0.78866 0.89263 0.93056 0.0
C1624 C 0.8049 0.88861 0.94669 0.0
C1625 C 0.80288 0.88282 0.97062 0.0
C1626 C 0.78472 0.8808 0.97856 0.0
C1627 C 0.76857 0.88448 0.96257 0.0
C1628 C 0.77051 0.89031 0.93863 0.0
C1629 C 0.8032 0.84236 0.8097 0.0
C1630 C 0.78662 0.83303 0.80747 0.0
C1631 C 0.80433 0.85959 0.82759 0.0
C1632 C 0.7888 0.86837 0.84359 0.0
C1633 C 0.77231 0.85885 0.84167 0.0
C1634 C 0.77123 0.84137 0.82382 0.0
C1635 C 0.79003 0.88727 0.86231 0.0
C1636 C 0.78716 0.8832 0.88667 0.0
C1637 C 0.7954 0.90851 0.85643 0.0
C1638 C 0.79723 0.915 0.83106 0.0
C1639 C 0.78159 0.91636 0.81437 0.0
C1640 C 0.78352 0.92204 0.79039 0.0
C1641 C 0.80099 0.92655 0.7829 0.0
C1642 C 0.81654 0.92545 0.7994 0.0
C1643 C 0.81469 0.91977 0.8234 0.0
H1644 H 0.80246 0.93092 0.76432 0.0
H1645 H 0.78318 0.87631 0.99709 0.0
H1646 H 0.98628 0.77316 0.10089 0.0
H1647 H 0.95933 0.77497 0.1283 0.0
H1648 H 0.92578 0.75234 0.07028 0.0
H1649 H 0.95242 0.75135 0.04256 0.0
H1650 H 0.9016 0.78346 0.09726 0.0
H1651 H 0.95255 0.7123 0.11356 0.0
H1652 H 0.98627 0.68809 0.12302 0.0
H1653 H 0.98592 0.72702 0.1902 0.0
H1654 H 0.95229 0.75171 0.18098 0.0
H1655 H 0.83652 0.74691 0.17732 0.0
H1656 H 0.86109 0.74691 0.1468 0.0
H1657 H 0.89536 0.77569 0.19959 0.0
H1658 H 0.87103 0.77565 0.23008 0.0
H1659 H 0.91848 0.73962 0.1739 0.0
H1660 H 0.86871 0.81412 0.15323 0.0
H1661 H 0.83518 0.8383 0.14195 0.0
H1662 H 0.83324 0.78974 0.08244 0.0
H1663 H 0.8668 0.7656 0.09311 0.0
C1664 C 0.97305 0.7689 0.09385 0.0
C1665 C 0.97161 0.76198 0.06951 0.0
C1666 C 0.95768 0.76973 0.10963 0.0
C1667 C 0.94063 0.76315 0.10161 0.0
C1668 C 0.93877 0.75735 0.07704 0.0
C1669 C 0.95405 0.75682 0.06116 0.0
C1670 C 0.9251 0.76163 0.11896 0.0
C1671 C 0.90533 0.77358 0.11385 0.0
C1672 C 0.92977 0.74889 0.14079 0.0
C1673 C 0.94996 0.734 0.14647 0.0
C1674 C 0.95971 0.71581 0.13027 0.0
C1675 C 0.97881 0.70199 0.1356 0.0
C1676 C 0.98825 0.70605 0.15717 0.0
C1677 C 0.9786 0.72391 0.17349 0.0
C1678 C 0.95951 0.73781 0.16823 0.0
C1679 C 0.84937 0.75306 0.18248 0.0
C1680 C 0.85178 0.76124 0.20622 0.0
C1681 C 0.86331 0.75331 0.16491 0.0
C1682 C 0.88 0.76164 0.17073 0.0
C1683 C 0.88261 0.76928 0.19455 0.0
C1684 C 0.86864 0.76923 0.21202 0.0
C1685 C 0.89511 0.7618 0.15238 0.0
C1686 C 0.91481 0.74946 0.15727 0.0
C1687 C 0.89034 0.77387 0.13024 0.0
C1688 C 0.87006 0.78795 0.12417 0.0
C1689 C 0.86099 0.80854 0.13791 0.0
C1690 C 0.84206 0.82226 0.13159 0.0
C1691 C 0.83203 0.81542 0.11169 0.0
C1692 C 0.84099 0.79497 0.09792 0.0
C1693 C 0.85999 0.78134 0.10401 0.0
H1694 H 0.81738 0.82605 0.10687 0.0
H1695 H 1.00303 0.69533 0.16127 0.0
H1696 H 0.26526 0.95607 0.05951 0.0
H1697 H 0.27341 0.92562 0.09035 0.0
H1698 H 0.32218 0.95296 0.11514 0.0
H1699 H 0.31421 0.98355 0.08347 0.0
H1700 H 0.33138 0.90375 0.11759 0.0
H1701 H 0.27863 0.96874 0.14452 0.0
H1702 H 0.2465 0.99899 0.14275 0.0
H1703 H 0.21691 0.94264 0.13544 0.0
H1704 H 0.24888 0.91206 0.13659 0.0
H1705 H 0.33405 0.84061 0.22899 0.0
H1706 H 0.33261 0.87136 0.19885 0.0
H1707 H 0.28256 0.85338 0.16426 0.0
H1708 H 0.28378 0.82282 0.19432 0.0
H1709 H 0.27613 0.901 0.17012 0.0
H1710 H 0.32946 0.83618 0.1402 0.0
H1711 H 0.36167 0.80618 0.14308 0.0
H1712 H 0.39016 0.86268 0.15774 0.0
H1713 H 0.35807 0.89301 0.15525 0.0
C1714 C 0.27789 0.95551 0.07131 0.0
C1715 C 0.28897 0.97241 0.0692 0.0
C1716 C 0.28248 0.9381 0.08907 0.0
C1717 C 0.29806 0.93734 0.1056 0.0
C1718 C 0.30995 0.95331 0.10275 0.0
C1719 C 0.30545 0.97073 0.08462 0.0
C1720 C 0.30113 0.92041 0.12618 0.0
C1721 C 0.31939 0.90341 0.12933 0.0
C1722 C 0.28546 0.9197 0.14147 0.0
C1723 C 0.26619 0.9381 0.14048 0.0
C1724 C 0.26529 0.9628 0.1423 0.0
C1725 C 0.2471 0.98001 0.14142 0.0
C1726 C 0.22968 0.97275 0.13894 0.0
C1727 C 0.23042 0.94825 0.13732 0.0
C1728 C 0.24857 0.93097 0.13809 0.0
C1729 C 0.3228 0.84307 0.21489 0.0
C1730 C 0.30907 0.82909 0.21412 0.0
C1731 C 0.32206 0.86063 0.19757 0.0
C1732 C 0.3076 0.86461 0.17907 0.0
C1733 C 0.29391 0.85066 0.17827 0.0
C1734 C 0.29468 0.83307 0.19548 0.0
C1735 C 0.30612 0.88381 0.16098 0.0
C1736 C 0.28815 0.90138 0.15844 0.0
C1737 C 0.32206 0.88505 0.14641 0.0
C1738 C 0.34134 0.86683 0.1478 0.0
C1739 C 0.34258 0.84219 0.14423 0.0
C1740 C 0.36082 0.82513 0.14575 0.0
C1741 C 0.37795 0.83251 0.15066 0.0
C1742 C 0.37688 0.85698 0.15398 0.0
C1743 C 0.35867 0.87411 0.15249 0.0
H1744 H 0.39205 0.81927 0.15184 0.0
H1745 H 0.21561 0.9861 0.13831 0.0
H1746 H 0.84474 0.05853 0.08109 0.0
H1747 H 0.83502 0.09019 0.11155 0.0
H1748 H 0.77588 0.10924 0.08174 0.0
H1749 H 0.78566 0.07706 0.05061 0.0
H1750 H 0.79095 0.14957 0.09174 0.0
H1751 H 0.78368 0.08136 0.13378 0.0
H1752 H 0.79348 0.03958 0.14799 0.0
H1753 H 0.84323 0.05385 0.18622 0.0
H1754 H 0.83391 0.09562 0.17194 0.0
H1755 H 0.77551 0.19995 0.22523 0.0
H1756 H 0.77461 0.16946 0.19397 0.0
H1757 H 0.81673 0.1936 0.15304 0.0
H1758 H 0.81768 0.22424 0.18419 0.0
H1759 H 0.8034 0.13194 0.17864 0.0
H1760 H 0.80794 0.18523 0.09274 0.0
H1761 H 0.79716 0.22701 0.07858 0.0
H1762 H 0.74979 0.24275 0.12864 0.0
H1763 H 0.76011 0.20099 0.14286 0.0
C1764 C 0.82959 0.06929 0.08092 0.0
C1765 C 0.81597 0.06519 0.0633 0.0
C1766 C 0.82404 0.08741 0.09852 0.0
C1767 C 0.80469 0.10205 0.09914 0.0
C1768 C 0.7909 0.09811 0.08166 0.0
C1769 C 0.79645 0.07964 0.06399 0.0
C1770 C 0.79944 0.12163 0.11794 0.0
C1771 C 0.79349 0.14573 0.11076 0.0
C1772 C 0.80257 0.11668 0.14283 0.0
C1773 C 0.80814 0.09161 0.15166 0.0
C1774 C 0.79678 0.07555 0.14509 0.0
C1775 C 0.80225 0.05187 0.15317 0.0
C1776 C 0.81898 0.04405 0.16797 0.0
C1777 C 0.83027 0.05993 0.17476 0.0
C1778 C 0.82488 0.08362 0.1667 0.0
C1779 C 0.78449 0.19895 0.20951 0.0
C1780 C 0.79665 0.21468 0.20729 0.0
C1781 C 0.78399 0.18141 0.19165 0.0
C1782 C 0.79545 0.17928 0.17098 0.0
C1783 C 0.8075 0.19506 0.16861 0.0
C1784 C 0.8081 0.21255 0.18653 0.0
C1785 C 0.79546 0.15994 0.15243 0.0
C1786 C 0.80056 0.13585 0.15967 0.0
C1787 C 0.79141 0.16494 0.12766 0.0
C1788 C 0.78492 0.19001 0.119 0.0
C1789 C 0.79517 0.19757 0.10065 0.0
C1790 C 0.78915 0.22126 0.09262 0.0
C1791 C 0.77283 0.23754 0.10275 0.0
C1792 C 0.76247 0.23015 0.12087 0.0
C1793 C 0.76841 0.20648 0.12894 0.0
H1794 H 0.76821 0.25588 0.09652 0.0
H1795 H 0.82319 0.02571 0.1742 0.0
H1796 H 0.57381 0.60913 0.85605 0.0
H1797 H 0.59794 0.63231 0.85098 0.0
H1798 H 0.6356 0.57202 0.81287 0.0
H1799 H 0.61176 0.54854 0.8184 0.0
H1800 H 0.65658 0.59333 0.84408 0.0
H1801 H 0.60727 0.61825 0.78197 0.0
H1802 H 0.57355 0.63346 0.76536 0.0
H1803 H 0.5666 0.6992 0.80677 0.0
H1804 H 0.60021 0.68423 0.82391 0.0
H1805 H 0.71796 0.65807 0.7921 0.0
H1806 H 0.69448 0.63377 0.79651 0.0
H1807 H 0.65545 0.69281 0.83475 0.0
H1808 H 0.67858 0.71737 0.8299 0.0
H1809 H 0.63541 0.67156 0.80261 0.0
H1810 H 0.68462 0.64624 0.86517 0.0
H1811 H 0.71837 0.63096 0.88168 0.0
H1812 H 0.72555 0.56587 0.83914 0.0
H1813 H 0.69192 0.58092 0.82212 0.0
C1814 C 0.58735 0.60066 0.84693 0.0
C1815 C 0.59079 0.57703 0.83748 0.0
C1816 C 0.60105 0.61402 0.84384 0.0
C1817 C 0.61842 0.60402 0.83121 0.0
C1818 C 0.62223 0.58014 0.82253 0.0
C1819 C 0.60853 0.56681 0.82556 0.0
C1820 C 0.63241 0.61862 0.82659 0.0
C1821 C 0.65202 0.61028 0.83474 0.0
C1822 C 0.62637 0.64093 0.81474 0.0
C1823 C 0.60618 0.65001 0.80441 0.0
C1824 C 0.59849 0.63587 0.78769 0.0
C1825 C 0.57941 0.64446 0.77815 0.0
C1826 C 0.56792 0.66725 0.78505 0.0
C1827 C 0.57551 0.68153 0.80147 0.0
C1828 C 0.59458 0.67301 0.81109 0.0
C1829 C 0.70426 0.66597 0.80118 0.0
C1830 C 0.70019 0.68958 0.81081 0.0
C1831 C 0.69094 0.652 0.80387 0.0
C1832 C 0.67334 0.66138 0.81626 0.0
C1833 C 0.66898 0.68518 0.82524 0.0
C1834 C 0.68229 0.69912 0.82261 0.0
C1835 C 0.65955 0.64634 0.82023 0.0
C1836 C 0.63998 0.65459 0.81192 0.0
C1837 C 0.66563 0.62394 0.83191 0.0
C1838 C 0.68583 0.61482 0.84218 0.0
C1839 C 0.69345 0.62876 0.85919 0.0
C1840 C 0.71255 0.62012 0.86866 0.0
C1841 C 0.72412 0.59749 0.86141 0.0
C1842 C 0.71659 0.58341 0.84471 0.0
C1843 C 0.6975 0.59198 0.83516 0.0
H1844 H 0.7389 0.59083 0.86877 0.0
H1845 H 0.55315 0.67387 0.77764 0.0
H1846 H 0.47025 0.55501 0.81855 0.0
H1847 H 0.43991 0.58449 0.80706 0.0
H1848 H 0.47106 0.61221 0.75364 0.0
H1849 H 0.50185 0.58229 0.76518 0.0
H1850 H 0.44858 0.64804 0.78401 0.0
H1851 H 0.43788 0.58212 0.73584 0.0
H1852 H 0.43636 0.54024 0.72803 0.0
H1853 H 0.39111 0.54885 0.78039 0.0
H1854 H 0.39256 0.59066 0.7888 0.0
H1855 H 0.35988 0.73251 0.74883 0.0
H1856 H 0.39049 0.70051 0.7487 0.0
H1857 H 0.36419 0.65758 0.7932 0.0
H1858 H 0.33315 0.68918 0.79246 0.0
H1859 H 0.3853 0.62923 0.76238 0.0
H1860 H 0.39825 0.69106 0.81518 0.0
H1861 H 0.40012 0.73206 0.82696 0.0
H1862 H 0.44113 0.73035 0.77064 0.0
H1863 H 0.43932 0.68943 0.75834 0.0
C1864 C 0.47066 0.56711 0.80407 0.0
C1865 C 0.4885 0.56631 0.79278 0.0
C1866 C 0.45322 0.58393 0.79744 0.0
C1867 C 0.45308 0.60056 0.77939 0.0
C1868 C 0.47077 0.5995 0.76758 0.0
C1869 C 0.48832 0.58232 0.77404 0.0
C1870 C 0.43468 0.61989 0.77434 0.0
C1871 C 0.43483 0.64398 0.77872 0.0
C1872 C 0.41654 0.61458 0.76833 0.0
C1873 C 0.41543 0.58951 0.76305 0.0
C1874 C 0.42769 0.57504 0.74581 0.0
C1875 C 0.42683 0.55131 0.74126 0.0
C1876 C 0.41368 0.54187 0.75374 0.0
C1877 C 0.4013 0.55617 0.77074 0.0
C1878 C 0.40212 0.57991 0.77538 0.0
C1879 C 0.36059 0.71632 0.75872 0.0
C1880 C 0.34405 0.71362 0.77094 0.0
C1881 C 0.37821 0.69798 0.75869 0.0
C1882 C 0.37998 0.67667 0.7714 0.0
C1883 C 0.36336 0.6738 0.78332 0.0
C1884 C 0.3456 0.69198 0.783 0.0
C1885 C 0.3991 0.65748 0.7724 0.0
C1886 C 0.39908 0.6334 0.76734 0.0
C1887 C 0.41732 0.66273 0.77828 0.0
C1888 C 0.41848 0.6873 0.78567 0.0
C1889 C 0.40756 0.6995 0.8052 0.0
C1890 C 0.40863 0.72271 0.81199 0.0
C1891 C 0.42069 0.73383 0.79951 0.0
C1892 C 0.43177 0.72173 0.78026 0.0
C1893 C 0.43073 0.69853 0.77338 0.0
H1894 H 0.4215 0.75181 0.80479 0.0
H1895 H 0.41306 0.52349 0.75021 0.0
H1896 H 0.48851 0.47732 0.80116 0.0
H1897 H 0.46557 0.4524 0.79725 0.0
H1898 H 0.48715 0.41908 0.86483 0.0
H1899 H 0.51107 0.44301 0.86826 0.0
H1900 H 0.48253 0.3862 0.83265 0.0
H1901 H 0.44269 0.46395 0.85922 0.0
H1902 H 0.42933 0.50801 0.85691 0.0
H1903 H 0.40373 0.49968 0.78715 0.0
H1904 H 0.4172 0.4556 0.78888 0.0
H1905 H 0.40442 0.33472 0.8567 0.0
H1906 H 0.42838 0.35866 0.85764 0.0
H1907 H 0.40594 0.38865 0.78894 0.0
H1908 H 0.3814 0.36533 0.78827 0.0
H1909 H 0.41099 0.42313 0.81997 0.0
H1910 H 0.44978 0.34613 0.7931 0.0
H1911 H 0.46357 0.30208 0.79404 0.0
H1912 H 0.49128 0.30891 0.8628 0.0
H1913 H 0.47743 0.353 0.86244 0.0
C1914 C 0.48868 0.46453 0.81511 0.0
C1915 C 0.50181 0.46227 0.83506 0.0
C1916 C 0.47528 0.45046 0.81297 0.0
C1917 C 0.47439 0.43413 0.83093 0.0
C1918 C 0.48751 0.43166 0.85079 0.0
C1919 C 0.50108 0.44556 0.85283 0.0
C1920 C 0.45991 0.41945 0.82892 0.0
C1921 C 0.46685 0.3943 0.83023 0.0
C1922 C 0.43951 0.42998 0.82495 0.0
C1923 C 0.43111 0.45648 0.82409 0.0
C1924 C 0.43431 0.47152 0.84333 0.0
C1925 C 0.42672 0.49651 0.84212 0.0
C1926 C 0.41575 0.50665 0.82186 0.0
C1927 C 0.41227 0.49182 0.80281 0.0
C1928 C 0.41987 0.46683 0.8039 0.0
C1929 C 0.4045 0.34649 0.84184 0.0
C1930 C 0.39097 0.34814 0.82242 0.0
C1931 C 0.41834 0.35999 0.84229 0.0
C1932 C 0.41909 0.37527 0.82324 0.0
C1933 C 0.40566 0.37692 0.80379 0.0
C1934 C 0.39177 0.36342 0.80333 0.0
C1935 C 0.4336 0.38991 0.82399 0.0
C1936 C 0.42667 0.41504 0.82239 0.0
C1937 C 0.45401 0.37938 0.82758 0.0
C1938 C 0.46241 0.35286 0.82784 0.0
C1939 C 0.45869 0.33823 0.80852 0.0
C1940 C 0.46654 0.31325 0.80893 0.0
C1941 C 0.47825 0.3027 0.8285 0.0
C1942 C 0.48219 0.31711 0.84767 0.0
C1943 C 0.47435 0.3421 0.84736 0.0
H1944 H 0.48432 0.28336 0.82878 0.0
H1945 H 0.40991 0.52599 0.82095 0.0
H1946 H 0.58348 0.45248 0.78104 0.0
H1947 H 0.61452 0.42108 0.77973 0.0
H1948 H 0.64501 0.47392 0.76129 0.0
H1949 H 0.61379 0.50526 0.76159 0.0
H1950 H 0.66123 0.43421 0.73846 0.0
H1951 H 0.64426 0.45313 0.82066 0.0
H1952 H 0.62321 0.45944 0.85631 0.0
H1953 H 0.621 0.38557 0.85172 0.0
H1954 H 0.64181 0.3789 0.81581 0.0
H1955 H 0.75654 0.36453 0.7797 0.0
H1956 H 0.72531 0.39597 0.77785 0.0
H1957 H 0.69326 0.34159 0.77713 0.0
H1958 H 0.72437 0.31005 0.77848 0.0
H1959 H 0.67863 0.38235 0.80999 0.0
H1960 H 0.69683 0.36477 0.72685 0.0
H1961 H 0.71945 0.35989 0.69283 0.0
H1962 H 0.72122 0.43368 0.70167 0.0
H1963 H 0.69883 0.43889 0.73602 0.0
C1964 C 0.59674 0.45737 0.77633 0.0
C1965 C 0.59612 0.48145 0.77152 0.0
C1966 C 0.61457 0.4394 0.77579 0.0
C1967 C 0.63234 0.44511 0.77108 0.0
C1968 C 0.6316 0.46895 0.76513 0.0
C1969 C 0.61369 0.4869 0.76526 0.0
C1970 C 0.65168 0.42646 0.77321 0.0
C1971 C 0.66507 0.42312 0.75426 0.0
C1972 C 0.65685 0.4117 0.79372 0.0
C1973 C 0.64444 0.41558 0.8154 0.0
C1974 C 0.63917 0.43827 0.82715 0.0
C1975 C 0.6273 0.44191 0.84742 0.0
C1976 C 0.62073 0.42294 0.85624 0.0
C1977 C 0.62607 0.40026 0.84485 0.0
C1978 C 0.63792 0.39653 0.82455 0.0
C1979 C 0.74286 0.35925 0.77937 0.0
C1980 C 0.74299 0.33474 0.77928 0.0
C1981 C 0.72501 0.37725 0.77819 0.0
C1982 C 0.70694 0.37114 0.77724 0.0
C1983 C 0.70702 0.34673 0.77785 0.0
C1984 C 0.72483 0.32872 0.77859 0.0
C1985 C 0.68794 0.39011 0.77523 0.0
C1986 C 0.67469 0.3935 0.79423 0.0
C1987 C 0.68307 0.40517 0.755 0.0
C1988 C 0.69633 0.40215 0.73417 0.0
C1989 C 0.70217 0.3799 0.72168 0.0
C1990 C 0.71493 0.37708 0.70231 0.0
C1991 C 0.72182 0.39644 0.69514 0.0
C1992 C 0.7159 0.41869 0.70727 0.0
C1993 C 0.70317 0.42159 0.72668 0.0
H1994 H 0.7317 0.39422 0.68015 0.0
H1995 H 0.61153 0.42579 0.87193 0.0
H1996 H 0.5953 0.46206 0.26861 0.0
H1997 H 0.62345 0.42753 0.27812 0.0
H1998 H 0.65131 0.43842 0.21265 0.0
H1999 H 0.62357 0.47229 0.20308 0.0
H2000 H 0.65083 0.39261 0.21573 0.0
H2001 H 0.66759 0.45279 0.26889 0.0
H2002 H 0.66193 0.4829 0.30221 0.0
H2003 H 0.65655 0.42884 0.35149 0.0
H2004 H 0.66193 0.39847 0.31837 0.0
H2005 H 0.74975 0.32572 0.22362 0.0
H2006 H 0.71894 0.35733 0.22187 0.0
H2007 H 0.70196 0.33454 0.28954 0.0
H2008 H 0.73303 0.30297 0.29167 0.0
H2009 H 0.69406 0.38291 0.28884 0.0
H2010 H 0.68041 0.32192 0.23644 0.0
H2011 H 0.6864 0.29171 0.20322 0.0
H2012 H 0.68555 0.34708 0.15258 0.0
H2013 H 0.67983 0.37759 0.18554 0.0
C2014 C 0.60759 0.45724 0.25649 0.0
C2015 C 0.60709 0.46983 0.23499 0.0
C2016 C 0.62366 0.4375 0.2619 0.0
C2017 C 0.6395 0.43021 0.24599 0.0
C2018 C 0.63923 0.44342 0.22508 0.0
C2019 C 0.6233 0.46291 0.21967 0.0
C2020 C 0.65611 0.40834 0.2501 0.0
C2021 C 0.66034 0.3906 0.23168 0.0
C2022 C 0.66818 0.40519 0.27123 0.0
C2023 C 0.66491 0.42344 0.2911 0.0
C2024 C 0.66502 0.44738 0.28678 0.0
C2025 C 0.6619 0.46448 0.30564 0.0
C2026 C 0.65881 0.45781 0.32894 0.0
C2027 C 0.65889 0.434 0.33343 0.0
C2028 C 0.66199 0.41683 0.31463 0.0
C2029 C 0.73945 0.32722 0.23808 0.0
C2030 C 0.74391 0.31162 0.25772 0.0
C2031 C 0.72175 0.34535 0.23703 0.0
C2032 C 0.70795 0.34822 0.25544 0.0
C2033 C 0.71233 0.3327 0.27509 0.0
C2034 C 0.73008 0.31455 0.2762 0.0
C2035 C 0.68911 0.36763 0.2541 0.0
C2036 C 0.68441 0.38479 0.27303 0.0
C2037 C 0.67654 0.3703 0.23343 0.0
C2038 C 0.67982 0.35202 0.21351 0.0
C2039 C 0.68163 0.32763 0.21824 0.0
C2040 C 0.68495 0.31046 0.19945 0.0
C2041 C 0.68639 0.31746 0.17581 0.0
C2042 C 0.68444 0.34168 0.1709 0.0
C2043 C 0.68113 0.35893 0.18963 0.0
H2044 H 0.68897 0.30414 0.16129 0.0
H2045 H 0.6564 0.47107 0.34352 0.0
H2046 H 0.58342 0.60332 0.16669 0.0
H2047 H 0.60692 0.62789 0.1697 0.0
H2048 H 0.63515 0.58766 0.23116 0.0
H2049 H 0.61196 0.56274 0.22808 0.0
H2050 H 0.62992 0.63627 0.23837 0.0
H2051 H 0.65605 0.57663 0.17714 0.0
H2052 H 0.65504 0.55325 0.13944 0.0
H2053 H 0.64183 0.61835 0.09903 0.0
H2054 H 0.64249 0.64217 0.13656 0.0
H2055 H 0.71994 0.67173 0.23953 0.0
H2056 H 0.69452 0.64973 0.2386 0.0
H2057 H 0.66804 0.688 0.17522 0.0
H2058 H 0.69327 0.71019 0.17614 0.0
H2059 H 0.67194 0.64085 0.16927 0.0
H2060 H 0.64646 0.70064 0.23013 0.0
H2061 H 0.6472 0.7243 0.26771 0.0
H2062 H 0.65888 0.65969 0.30874 0.0
H2063 H 0.65848 0.63558 0.27136 0.0
C2064 C 0.5947 0.59949 0.18072 0.0
C2065 C 0.59573 0.5809 0.19708 0.0
C2066 C 0.6081 0.61366 0.18248 0.0
C2067 C 0.62289 0.60953 0.20057 0.0
C2068 C 0.62382 0.59125 0.21712 0.0
C2069 C 0.61047 0.57703 0.21534 0.0
C2070 C 0.63756 0.62402 0.20202 0.0
C2071 C 0.63928 0.63706 0.22338 0.0
C2072 C 0.64947 0.62548 0.18228 0.0
C2073 C 0.64912 0.6112 0.15968 0.0
C2074 C 0.65277 0.58598 0.16023 0.0
C2075 C 0.65229 0.57265 0.13889 0.0
C2076 C 0.64832 0.58431 0.11686 0.0
C2077 C 0.64487 0.60934 0.11612 0.0
C2078 C 0.64531 0.62276 0.13741 0.0
C2079 C 0.70854 0.67574 0.2256 0.0
C2080 C 0.70871 0.6927 0.20786 0.0
C2081 C 0.69402 0.66311 0.22508 0.0
C2082 C 0.67928 0.66729 0.20691 0.0
C2083 C 0.67929 0.68439 0.18936 0.0
C2084 C 0.69379 0.697 0.18986 0.0
C2085 C 0.6643 0.65321 0.20561 0.0
C2086 C 0.66255 0.64017 0.18427 0.0
C2087 C 0.65235 0.65182 0.22536 0.0
C2088 C 0.65264 0.66627 0.24789 0.0
C2089 C 0.64936 0.69144 0.24714 0.0
C2090 C 0.64968 0.70494 0.26841 0.0
C2091 C 0.65313 0.6935 0.29059 0.0
C2092 C 0.65623 0.66853 0.29154 0.0
C2093 C 0.65594 0.65494 0.27032 0.0
H2094 H 0.65336 0.70399 0.30704 0.0
H2095 H 0.64796 0.57396 0.10036 0.0
H2096 H 0.48005 0.55579 0.2268 0.0
H2097 H 0.4517 0.58969 0.23525 0.0
H2098 H 0.49028 0.6293 0.26794 0.0
H2099 H 0.51881 0.5947 0.26022 0.0
H2100 H 0.45484 0.64064 0.29016 0.0
H2101 H 0.47648 0.6374 0.20929 0.0
H2102 H 0.48669 0.61861 0.16963 0.0
H2103 H 0.42976 0.6056 0.15797 0.0
H2104 H 0.41929 0.62398 0.19775 0.0
H2105 H 0.38072 0.75113 0.27583 0.0
H2106 H 0.41189 0.72002 0.27297 0.0
H2107 H 0.382 0.6732 0.23457 0.0
H2108 H 0.35107 0.70487 0.23616 0.0
H2109 H 0.41565 0.66816 0.21569 0.0
H2110 H 0.39511 0.67149 0.29942 0.0
H2111 H 0.38573 0.69357 0.33782 0.0
H2112 H 0.44207 0.70933 0.34329 0.0
H2113 H 0.45162 0.68777 0.30463 0.0
C2114 C 0.4824 0.57144 0.2365 0.0
C2115 C 0.50155 0.57267 0.24291 0.0
C2116 C 0.46622 0.5909 0.24113 0.0
C2117 C 0.46887 0.61236 0.2516 0.0
C2118 C 0.48787 0.61301 0.25969 0.0
C2119 C 0.50414 0.59322 0.25541 0.0
C2120 C 0.45205 0.63447 0.25196 0.0
C2121 C 0.44638 0.64681 0.27386 0.0
C2122 C 0.44101 0.64271 0.23067 0.0
C2123 C 0.44716 0.63191 0.20659 0.0
C2124 C 0.46617 0.6304 0.19834 0.0
C2125 C 0.47201 0.61983 0.17583 0.0
C2126 C 0.4589 0.61088 0.16131 0.0
C2127 C 0.4399 0.61253 0.16925 0.0
C2128 C 0.43401 0.62304 0.19176 0.0
C2129 C 0.38087 0.73427 0.26657 0.0
C2130 C 0.36345 0.7304 0.25626 0.0
C2131 C 0.39868 0.71637 0.26514 0.0
C2132 C 0.39932 0.69386 0.25416 0.0
C2133 C 0.38198 0.69029 0.24327 0.0
C2134 C 0.36427 0.70843 0.24414 0.0
C2135 C 0.41787 0.67387 0.25406 0.0
C2136 C 0.42401 0.662 0.23207 0.0
C2137 C 0.42943 0.66634 0.27522 0.0
C2138 C 0.42402 0.67815 0.29906 0.0
C2139 C 0.4055 0.67965 0.30882 0.0
C2140 C 0.40015 0.69211 0.33062 0.0
C2141 C 0.41333 0.70281 0.343 0.0
C2142 C 0.43191 0.701 0.33368 0.0
C2143 C 0.43729 0.68867 0.31183 0.0
H2144 H 0.40916 0.71259 0.35978 0.0
H2145 H 0.46344 0.6027 0.14389 0.0
H2146 H 0.48532 0.49751 0.22257 0.0
H2147 H 0.45905 0.47758 0.22784 0.0
H2148 H 0.49103 0.41673 0.18518 0.0
H2149 H 0.51713 0.43687 0.1795 0.0
H2150 H 0.45377 0.42699 0.17282 0.0
H2151 H 0.48945 0.41629 0.24865 0.0
H2152 H 0.50426 0.4295 0.28559 0.0
H2153 H 0.44741 0.47245 0.30706 0.0
H2154 H 0.43228 0.45974 0.27008 0.0
H2155 H 0.4034 0.34171 0.20428 0.0
H2156 H 0.42854 0.36357 0.20053 0.0
H2157 H 0.39243 0.42404 0.24002 0.0
H2158 H 0.36714 0.40212 0.24393 0.0
H2159 H 0.43066 0.4154 0.25417 0.0
H2160 H 0.39499 0.42484 0.17858 0.0
H2161 H 0.38042 0.41097 0.1418 0.0
H2162 H 0.43772 0.36969 0.12001 0.0
H2163 H 0.45261 0.38305 0.15684 0.0
C2164 C 0.48679 0.47983 0.21443 0.0
C2165 C 0.50336 0.4687 0.20073 0.0
C2166 C 0.47177 0.46841 0.21748 0.0
C2167 C 0.47317 0.44542 0.20727 0.0
C2168 C 0.48958 0.43444 0.19327 0.0
C2169 C 0.50449 0.44598 0.18999 0.0
C2170 C 0.45749 0.43285 0.21095 0.0
C2171 C 0.44892 0.4242 0.19064 0.0
C2172 C 0.45072 0.42971 0.23416 0.0
C2173 C 0.45977 0.43725 0.25648 0.0
C2174 C 0.48013 0.42868 0.26117 0.0
C2175 C 0.48858 0.43606 0.28213 0.0
C2176 C 0.47679 0.45185 0.29863 0.0
C2177 C 0.45652 0.46025 0.29425 0.0
C2178 C 0.448 0.45295 0.2733 0.0
C2179 C 0.40074 0.35971 0.21208 0.0
C2180 C 0.38314 0.37029 0.22415 0.0
C2181 C 0.41514 0.37219 0.20993 0.0
C2182 C 0.41223 0.39565 0.21958 0.0
C2183 C 0.39497 0.406 0.23233 0.0
C2184 C 0.38055 0.39344 0.2346 0.0
C2185 C 0.42714 0.40936 0.21606 0.0
C2186 C 0.43551 0.41825 0.23637 0.0
C2187 C 0.43379 0.41266 0.19285 0.0
C2188 C 0.42489 0.40479 0.17057 0.0
C2189 C 0.40447 0.41268 0.16602 0.0
C2190 C 0.39616 0.40493 0.14515 0.0
C2191 C 0.40813 0.38942 0.1286 0.0
C2192 C 0.42846 0.38169 0.13285 0.0
C2193 C 0.43685 0.38936 0.15371 0.0
H2194 H 0.40167 0.38344 0.11246 0.0
H2195 H 0.48336 0.45755 0.31485 0.0
H2196 H 0.81015 0.60564 0.53503 0.0
H2197 H 0.80332 0.63449 0.56877 0.0
H2198 H 0.78544 0.58252 0.6112 0.0
H2199 H 0.79167 0.55368 0.57684 0.0
H2200 H 0.76407 0.62837 0.62287 0.0
H2201 H 0.83214 0.58792 0.61651 0.0
H2202 H 0.86376 0.57248 0.59603 0.0
H2203 H 0.86481 0.64473 0.58008 0.0
H2204 H 0.83302 0.6606 0.60014 0.0
H2205 H 0.78064 0.69467 0.73083 0.0
H2206 H 0.78119 0.66257 0.7006 0.0
H2207 H 0.80179 0.70333 0.64776 0.0
H2208 H 0.80165 0.73501 0.67772 0.0
H2209 H 0.82222 0.65853 0.64513 0.0
H2210 H 0.75162 0.69773 0.64843 0.0
H2211 H 0.72016 0.71214 0.66971 0.0
H2212 H 0.72492 0.6404 0.69343 0.0
H2213 H 0.75648 0.62569 0.6725 0.0
C2214 C 0.80422 0.60058 0.55131 0.0
C2215 C 0.80147 0.57739 0.55329 0.0
C2216 C 0.80047 0.61703 0.5707 0.0
C2217 C 0.79441 0.61051 0.59286 0.0
C2218 C 0.79024 0.58796 0.59438 0.0
C2219 C 0.7937 0.57152 0.5747 0.0
C2220 C 0.79416 0.62654 0.61464 0.0
C2221 C 0.77687 0.63471 0.62793 0.0
C2222 C 0.81084 0.63487 0.62147 0.0
C2223 C 0.83012 0.62544 0.60969 0.0
C2224 C 0.83906 0.60051 0.60852 0.0
C2225 C 0.85702 0.59168 0.59699 0.0
C2226 C 0.86628 0.60761 0.58672 0.0
C2227 C 0.85762 0.63242 0.58803 0.0
C2228 C 0.83963 0.64134 0.5995 0.0
C2229 C 0.78536 0.69675 0.71279 0.0
C2230 C 0.79114 0.71752 0.70685 0.0
C2231 C 0.7855 0.67844 0.69542 0.0
C2232 C 0.79131 0.68052 0.67167 0.0
C2233 C 0.79726 0.70114 0.66588 0.0
C2234 C 0.79713 0.71936 0.68313 0.0
C2235 C 0.79189 0.6612 0.65282 0.0
C2236 C 0.8094 0.65219 0.64016 0.0
C2237 C 0.7755 0.65197 0.64684 0.0
C2238 C 0.75649 0.66073 0.6592 0.0
C2239 C 0.74601 0.68514 0.65839 0.0
C2240 C 0.72817 0.69333 0.67032 0.0
C2241 C 0.72061 0.67722 0.683 0.0
C2242 C 0.73082 0.65287 0.68365 0.0
C2243 C 0.74867 0.6446 0.67173 0.0
H2244 H 0.7068 0.6836 0.69225 0.0
H2245 H 0.88018 0.60074 0.57779 0.0
H2246 H 0.53271 0.79283 0.56783 0.0
H2247 H 0.50468 0.78884 0.59072 0.0
H2248 H 0.47204 0.86026 0.57018 0.0
H2249 H 0.50036 0.86448 0.54752 0.0
H2250 H 0.46631 0.85382 0.61607 0.0
H2251 H 0.46375 0.80719 0.54293 0.0
H2252 H 0.47741 0.77587 0.51222 0.0
H2253 H 0.48837 0.72166 0.56624 0.0
H2254 H 0.47493 0.75267 0.59732 0.0
H2255 H 0.37236 0.84416 0.64977 0.0
H2256 H 0.40044 0.8483 0.62709 0.0
H2257 H 0.43334 0.77713 0.64796 0.0
H2258 H 0.40494 0.77242 0.66993 0.0
H2259 H 0.4389 0.78338 0.60185 0.0
H2260 H 0.44191 0.82864 0.67478 0.0
H2261 H 0.42943 0.85919 0.70659 0.0
H2262 H 0.41873 0.9151 0.65436 0.0
H2263 H 0.4309 0.88483 0.62216 0.0
C2264 C 0.51953 0.80764 0.568 0.0
C2265 C 0.51872 0.82889 0.55558 0.0
C2266 C 0.50346 0.80533 0.58112 0.0
C2267 C 0.486 0.82403 0.58182 0.0
C2268 C 0.48528 0.8455 0.56986 0.0
C2269 C 0.50148 0.84793 0.55693 0.0
C2270 C 0.46858 0.82119 0.5951 0.0
C2271 C 0.46013 0.8386 0.61267 0.0
C2272 C 0.46079 0.80098 0.59126 0.0
C2273 C 0.46849 0.78228 0.57248 0.0
C2274 C 0.46915 0.7886 0.54827 0.0
C2275 C 0.47685 0.7709 0.53081 0.0
C2276 C 0.48383 0.74681 0.53732 0.0
C2277 C 0.48299 0.74033 0.56125 0.0
C2278 C 0.4753 0.75795 0.57878 0.0
C2279 C 0.38545 0.8292 0.64932 0.0
C2280 C 0.38628 0.80791 0.66173 0.0
C2281 C 0.40164 0.83174 0.63655 0.0
C2282 C 0.41919 0.81318 0.63604 0.0
C2283 C 0.42002 0.79178 0.64814 0.0
C2284 C 0.40379 0.78919 0.66089 0.0
C2285 C 0.43658 0.81605 0.62276 0.0
C2286 C 0.44503 0.79864 0.6052 0.0
C2287 C 0.44443 0.83619 0.6267 0.0
C2288 C 0.43713 0.85444 0.64602 0.0
C2289 C 0.43675 0.84743 0.67004 0.0
C2290 C 0.42975 0.86469 0.68815 0.0
C2291 C 0.42324 0.88906 0.68249 0.0
C2292 C 0.42375 0.89621 0.65871 0.0
C2293 C 0.43071 0.87901 0.64053 0.0
H2294 H 0.41784 0.9024 0.69653 0.0
H2295 H 0.48991 0.73314 0.52387 0.0
H2296 H 0.32459 0.46581 0.60365 0.0
H2297 H 0.31892 0.43877 0.63463 0.0
H2298 H 0.32758 0.38067 0.58199 0.0
H2299 H 0.33361 0.40748 0.55113 0.0
H2300 H 0.2924 0.388 0.61195 0.0
H2301 H 0.36275 0.37797 0.61886 0.0
H2302 H 0.39278 0.3921 0.62451 0.0
H2303 H 0.37267 0.42335 0.69341 0.0
H2304 H 0.34236 0.4097 0.688 0.0
H2305 H 0.29501 0.29162 0.69084 0.0
H2306 H 0.30029 0.3182 0.65951 0.0
H2307 H 0.3139 0.36648 0.71426 0.0
H2308 H 0.30997 0.33903 0.74542 0.0
H2309 H 0.33772 0.36458 0.6823 0.0
H2310 H 0.26775 0.37715 0.67715 0.0
H2311 H 0.23634 0.36585 0.67287 0.0
H2312 H 0.25308 0.33405 0.60316 0.0
H2313 H 0.28471 0.34491 0.60714 0.0
C2314 C 0.3253 0.44727 0.59873 0.0
C2315 C 0.32965 0.43877 0.57497 0.0
C2316 C 0.32211 0.43182 0.61644 0.0
C2317 C 0.32285 0.40766 0.61065 0.0
C2318 C 0.32695 0.39921 0.58688 0.0
C2319 C 0.33053 0.41451 0.5693 0.0
C2320 C 0.31928 0.39124 0.62936 0.0
C2321 C 0.3024 0.38261 0.62723 0.0
C2322 C 0.33199 0.38481 0.64966 0.0
C2323 C 0.35018 0.39307 0.65288 0.0
C2324 C 0.36463 0.38807 0.6351 0.0
C2325 C 0.38173 0.39594 0.63829 0.0
C2326 C 0.38461 0.40868 0.65927 0.0
C2327 C 0.37041 0.41352 0.67714 0.0
C2328 C 0.35328 0.40571 0.67403 0.0
C2329 C 0.29888 0.30807 0.69616 0.0
C2330 C 0.30186 0.31334 0.72063 0.0
C2331 C 0.30182 0.32341 0.6782 0.0
C2332 C 0.30713 0.34485 0.68428 0.0
C2333 C 0.30983 0.35018 0.70884 0.0
C2334 C 0.30745 0.33452 0.72673 0.0
C2335 C 0.31062 0.36125 0.66522 0.0
C2336 C 0.32756 0.3699 0.66718 0.0
C2337 C 0.29769 0.36814 0.64503 0.0
C2338 C 0.27868 0.36164 0.64255 0.0
C2339 C 0.26479 0.36761 0.66098 0.0
C2340 C 0.24694 0.36131 0.65859 0.0
C2341 C 0.24274 0.34919 0.63779 0.0
C2342 C 0.25637 0.34341 0.61928 0.0
C2343 C 0.27425 0.34965 0.62158 0.0
H2344 H 0.22892 0.34432 0.63598 0.0
H2345 H 0.39786 0.41475 0.66171 0.0
H2346 H 0.5478 0.24475 0.60013 0.0
H2347 H 0.57598 0.25605 0.61866 0.0
H2348 H 0.5863 0.28684 0.55185 0.0
H2349 H 0.55773 0.27557 0.53313 0.0
H2350 H 0.61961 0.25406 0.57027 0.0
H2351 H 0.57219 0.3235 0.59967 0.0
H2352 H 0.54141 0.346 0.61886 0.0
H2353 H 0.55997 0.30845 0.68475 0.0
H2354 H 0.59074 0.28546 0.66585 0.0
H2355 H 0.70328 0.28094 0.62912 0.0
H2356 H 0.67231 0.28503 0.6063 0.0
H2357 H 0.64646 0.2629 0.66841 0.0
H2358 H 0.67717 0.25932 0.69134 0.0
H2359 H 0.62051 0.29776 0.64838 0.0
H2360 H 0.66472 0.2244 0.61826 0.0
H2361 H 0.69483 0.19937 0.5995 0.0
H2362 H 0.68183 0.24169 0.53567 0.0
H2363 H 0.65177 0.26722 0.55422 0.0
C2364 C 0.55573 0.25452 0.58954 0.0
C2365 C 0.55047 0.25944 0.56524 0.0
C2366 C 0.57186 0.26099 0.60017 0.0
C2367 C 0.58327 0.2724 0.58672 0.0
C2368 C 0.57766 0.27815 0.56262 0.0
C2369 C 0.56124 0.27194 0.552 0.0
C2370 C 0.60188 0.2762 0.59753 0.0
C2371 C 0.61982 0.26413 0.58704 0.0
C2372 C 0.6022 0.28875 0.61977 0.0
C2373 C 0.58375 0.30266 0.63128 0.0
C2374 C 0.56965 0.31992 0.6182 0.0
C2375 C 0.55222 0.33278 0.62904 0.0
C2376 C 0.54873 0.32864 0.653 0.0
C2377 C 0.56269 0.31165 0.66619 0.0
C2378 C 0.58016 0.29872 0.65543 0.0
C2379 C 0.69098 0.27696 0.63789 0.0
C2380 C 0.69273 0.26977 0.66206 0.0
C2381 C 0.67326 0.27925 0.6248 0.0
C2382 C 0.65701 0.27396 0.63545 0.0
C2383 C 0.65868 0.26717 0.65971 0.0
C2384 C 0.67628 0.26515 0.67286 0.0
C2385 C 0.63832 0.27511 0.62144 0.0
C2386 C 0.62036 0.28807 0.63137 0.0
C2387 C 0.63799 0.26311 0.59882 0.0
C2388 C 0.65615 0.24792 0.58775 0.0
C2389 C 0.66838 0.22852 0.60032 0.0
C2390 C 0.68542 0.21422 0.58971 0.0
C2391 C 0.69027 0.21899 0.56644 0.0
C2392 C 0.67808 0.23806 0.55372 0.0
C2393 C 0.66105 0.25245 0.56427 0.0
H2394 H 0.70345 0.20788 0.55825 0.0
H2395 H 0.53521 0.33861 0.66135 0.0
H2396 H 0.78555 0.47747 0.45524 0.0
H2397 H 0.77949 0.44746 0.42547 0.0
H2398 H 0.83498 0.39854 0.44584 0.0
H2399 H 0.84113 0.42813 0.47496 0.0
H2400 H 0.83272 0.40214 0.39897 0.0
H2401 H 0.78996 0.38961 0.46099 0.0
H2402 H 0.76238 0.40175 0.48911 0.0
H2403 H 0.72183 0.42359 0.42965 0.0
H2404 H 0.74922 0.41186 0.40119 0.0
H2405 H 0.79924 0.29126 0.35069 0.0
H2406 H 0.79923 0.32179 0.38251 0.0
H2407 H 0.8036 0.37274 0.3288 0.0
H2408 H 0.80368 0.34255 0.29707 0.0
H2409 H 0.77483 0.36823 0.3922 0.0
H2410 H 0.83524 0.40444 0.35047 0.0
H2411 H 0.8638 0.39035 0.32403 0.0
H2412 H 0.87096 0.31771 0.34665 0.0
H2413 H 0.84263 0.33142 0.37346 0.0
C2414 C 0.79626 0.46016 0.45357 0.0
C2415 C 0.8139 0.45532 0.46735 0.0
C2416 C 0.79281 0.443 0.43654 0.0
C2417 C 0.80686 0.42068 0.43321 0.0
C2418 C 0.824 0.41563 0.44775 0.0
C2419 C 0.82747 0.43265 0.46451 0.0
C2420 C 0.80461 0.40287 0.41389 0.0
C2421 C 0.81998 0.39488 0.3975 0.0
C2422 C 0.78812 0.39309 0.41191 0.0
C2423 C 0.77166 0.4001 0.42899 0.0
C2424 C 0.77518 0.39719 0.45393 0.0
C2425 C 0.75958 0.40395 0.46992 0.0
C2426 C 0.74038 0.4135 0.46118 0.0
C2427 C 0.73672 0.41623 0.4364 0.0
C2428 C 0.75227 0.40951 0.42033 0.0
C2429 C 0.80019 0.30896 0.34564 0.0
C2430 C 0.80163 0.31429 0.32125 0.0
C2431 C 0.80003 0.32647 0.36386 0.0
C2432 C 0.80151 0.34957 0.35811 0.0
C2433 C 0.80259 0.35503 0.33376 0.0
C2434 C 0.80265 0.33765 0.31559 0.0
C2435 C 0.80294 0.36765 0.37745 0.0
C2436 C 0.78746 0.37569 0.39368 0.0
C2437 C 0.81945 0.37734 0.37956 0.0
C2438 C 0.83669 0.36894 0.36376 0.0
C2439 C 0.84296 0.38548 0.34985 0.0
C2440 C 0.8591 0.37755 0.3348 0.0
C2441 C 0.86914 0.35314 0.3336 0.0
C2442 C 0.86312 0.33661 0.34753 0.0
C2443 C 0.84701 0.34444 0.36263 0.0
H2444 H 0.88162 0.34704 0.32192 0.0
H2445 H 0.72832 0.41872 0.47359 0.0
H2446 H 0.6094 0.8302 0.40097 0.0
H2447 H 0.63673 0.82329 0.37298 0.0
H2448 H 0.67807 0.79931 0.43166 0.0
H2449 H 0.65075 0.80624 0.45976 0.0
H2450 H 0.68919 0.83152 0.40227 0.0
H2451 H 0.66757 0.75934 0.39339 0.0
H2452 H 0.64437 0.73446 0.38517 0.0
H2453 H 0.63343 0.76225 0.31366 0.0
H2454 H 0.65625 0.78772 0.32162 0.0
H2455 H 0.77487 0.78012 0.33537 0.0
H2456 H 0.74711 0.78741 0.36245 0.0
H2457 H 0.70665 0.80265 0.3016 0.0
H2458 H 0.73444 0.79476 0.27425 0.0
H2459 H 0.69461 0.77546 0.33177 0.0
H2460 H 0.71539 0.84807 0.34019 0.0
H2461 H 0.73888 0.87274 0.34759 0.0
H2462 H 0.75112 0.84473 0.41889 0.0
H2463 H 0.72789 0.81962 0.41181 0.0
C2464 C 0.62431 0.82361 0.40795 0.0
C2465 C 0.62789 0.81879 0.43263 0.0
C2466 C 0.63992 0.81947 0.39189 0.0
C2467 C 0.65947 0.8106 0.40016 0.0
C2468 C 0.66311 0.80609 0.42483 0.0
C2469 C 0.64749 0.80994 0.44086 0.0
C2470 C 0.67613 0.80634 0.38316 0.0
C2471 C 0.69051 0.81904 0.38701 0.0
C2472 C 0.67757 0.79056 0.36284 0.0
C2473 C 0.66344 0.77571 0.35823 0.0
C2474 C 0.66001 0.76043 0.37603 0.0
C2475 C 0.64696 0.74616 0.37139 0.0
C2476 C 0.63737 0.74684 0.34894 0.0
C2477 C 0.64081 0.7618 0.33108 0.0
C2478 C 0.65379 0.77617 0.33565 0.0
C2479 C 0.76008 0.78513 0.32768 0.0
C2480 C 0.75694 0.78698 0.30257 0.0
C2481 C 0.74417 0.7894 0.34326 0.0
C2482 C 0.72469 0.79598 0.33419 0.0
C2483 C 0.7215 0.79768 0.3091 0.0
C2484 C 0.73744 0.79324 0.29347 0.0
C2485 C 0.70771 0.80066 0.35084 0.0
C2486 C 0.69326 0.78804 0.34694 0.0
C2487 C 0.70611 0.81665 0.37102 0.0
C2488 C 0.72003 0.83179 0.37538 0.0
C2489 C 0.7232 0.84703 0.35739 0.0
C2490 C 0.73645 0.86112 0.36153 0.0
C2491 C 0.74652 0.86026 0.38367 0.0
C2492 C 0.74333 0.84535 0.40174 0.0
C2493 C 0.7301 0.83121 0.39768 0.0
H2494 H 0.75678 0.87117 0.38685 0.0
H2495 H 0.62734 0.73571 0.34535 0.0
H2496 H 0.30441 0.59895 0.4754 0.0
H2497 H 0.29942 0.63181 0.44708 0.0
H2498 H 0.35761 0.60152 0.41959 0.0
H2499 H 0.36269 0.5684 0.44773 0.0
H2500 H 0.3505 0.64963 0.42472 0.0
H2501 H 0.31681 0.59466 0.38864 0.0
H2502 H 0.29345 0.56932 0.38689 0.0
H2503 H 0.24532 0.63188 0.39863 0.0
H2504 H 0.26844 0.65757 0.4008 0.0
H2505 H 0.3248 0.6992 0.30124 0.0
H2506 H 0.3296 0.66954 0.33319 0.0
H2507 H 0.30131 0.7254 0.38356 0.0
H2508 H 0.29717 0.75546 0.35191 0.0
H2509 H 0.2933 0.66576 0.36758 0.0
H2510 H 0.33005 0.71941 0.40937 0.0
H2511 H 0.3549 0.74271 0.40975 0.0
H2512 H 0.39865 0.67978 0.38591 0.0
H2513 H 0.37378 0.65645 0.38434 0.0
C2514 C 0.31614 0.59907 0.46326 0.0
C2515 C 0.33393 0.58072 0.46386 0.0
C2516 C 0.31326 0.618 0.44706 0.0
C2517 C 0.32803 0.61908 0.43092 0.0
C2518 C 0.34597 0.60115 0.43183 0.0
C2519 C 0.34887 0.58218 0.44803 0.0
C2520 C 0.32467 0.63868 0.4129 0.0
C2521 C 0.33797 0.65309 0.41226 0.0
C2522 C 0.30832 0.64339 0.39655 0.0
C2523 C 0.29438 0.62801 0.39514 0.0
C2524 C 0.30126 0.60299 0.39104 0.0
C2525 C 0.28806 0.58857 0.38994 0.0
C2526 C 0.26792 0.59897 0.39271 0.0
C2527 C 0.26093 0.62384 0.39652 0.0
C2528 C 0.27407 0.63835 0.39768 0.0
C2529 C 0.31964 0.70524 0.31913 0.0
C2530 C 0.31061 0.72975 0.32401 0.0
C2531 C 0.32248 0.68825 0.33739 0.0
C2532 C 0.31617 0.69531 0.36087 0.0
C2533 C 0.30676 0.71965 0.36573 0.0
C2534 C 0.30428 0.73677 0.34758 0.0
C2535 C 0.31884 0.67692 0.37989 0.0
C2536 C 0.30558 0.6625 0.38039 0.0
C2537 C 0.33521 0.67215 0.39607 0.0
C2538 C 0.34994 0.68638 0.39614 0.0
C2539 C 0.34483 0.71073 0.40358 0.0
C2540 C 0.35893 0.72392 0.4041 0.0
C2541 C 0.3783 0.7128 0.39764 0.0
C2542 C 0.3836 0.68846 0.39068 0.0
C2543 C 0.36948 0.67528 0.38984 0.0
H2544 H 0.38923 0.72301 0.39822 0.0
H2545 H 0.25772 0.58778 0.39185 0.0
H2546 H 0.44989 0.21524 0.47762 0.0
H2547 H 0.42372 0.22586 0.44725 0.0
H2548 H 0.44128 0.29012 0.43161 0.0
H2549 H 0.46774 0.27964 0.46261 0.0
H2550 H 0.40013 0.29771 0.43101 0.0
H2551 H 0.45538 0.24241 0.3949 0.0
H2552 H 0.48264 0.20547 0.39202 0.0
H2553 H 0.44138 0.16221 0.3928 0.0
H2554 H 0.41388 0.1989 0.39606 0.0
H2555 H 0.34674 0.30968 0.31762 0.0
H2556 H 0.37252 0.30586 0.34882 0.0
H2557 H 0.36151 0.23964 0.37164 0.0
H2558 H 0.33564 0.24332 0.34049 0.0
H2559 H 0.40075 0.23562 0.36695 0.0
H2560 H 0.34555 0.29099 0.40407 0.0
H2561 H 0.31827 0.3279 0.40738 0.0
H2562 H 0.35929 0.3713 0.40455 0.0
H2563 H 0.38681 0.33464 0.40078 0.0
C2564 C 0.44822 0.23176 0.4679 0.0
C2565 C 0.46113 0.24644 0.47239 0.0
C2566 C 0.43319 0.23778 0.45046 0.0
C2567 C 0.43072 0.25853 0.43675 0.0
C2568 C 0.44297 0.27393 0.44187 0.0
C2569 C 0.45809 0.26792 0.45956 0.0
C2570 C 0.41589 0.26315 0.41651 0.0
C2571 C 0.40045 0.28436 0.41674 0.0
C2572 C 0.41608 0.24555 0.39808 0.0
C2573 C 0.43257 0.22342 0.3959 0.0
C2574 C 0.45212 0.22502 0.39462 0.0
C2575 C 0.46762 0.20412 0.3929 0.0
C2576 C 0.46375 0.1815 0.39227 0.0
C2577 C 0.44436 0.17974 0.39331 0.0
C2578 C 0.42881 0.20058 0.39506 0.0
C2579 C 0.34979 0.29425 0.32922 0.0
C2580 C 0.33909 0.27676 0.32645 0.0
C2581 C 0.36448 0.2922 0.34719 0.0
C2582 C 0.36887 0.27258 0.36276 0.0
C2583 C 0.35837 0.25498 0.35989 0.0
C2584 C 0.34355 0.25711 0.34206 0.0
C2585 C 0.38476 0.26999 0.38162 0.0
C2586 C 0.40048 0.24911 0.38108 0.0
C2587 C 0.38479 0.28795 0.39965 0.0
C2588 C 0.36824 0.31004 0.40182 0.0
C2589 C 0.34875 0.3084 0.40388 0.0
C2590 C 0.33324 0.32928 0.40589 0.0
C2591 C 0.33705 0.35192 0.40608 0.0
C2592 C 0.35637 0.35374 0.40433 0.0
C2593 C 0.37193 0.33292 0.40226 0.0
H2594 H 0.32503 0.36805 0.40762 0.0
H2595 H 0.47577 0.16535 0.39094 0.0
H2596 H 0.60778 0.76952 0.59454 0.0
H2597 H 0.63319 0.77202 0.62466 0.0
H2598 H 0.66341 0.80194 0.57185 0.0
H2599 H 0.63844 0.79858 0.54141 0.0
H2600 H 0.68948 0.77342 0.5987 0.0
H2601 H 0.63267 0.83781 0.61524 0.0
H2602 H 0.59764 0.85683 0.62313 0.0
H2603 H 0.6016 0.81565 0.6873 0.0
H2604 H 0.6366 0.79613 0.67961 0.0
H2605 H 0.74838 0.81605 0.68734 0.0
H2606 H 0.72275 0.81798 0.65605 0.0
H2607 H 0.69433 0.7774 0.70055 0.0
H2608 H 0.71969 0.77547 0.73182 0.0
H2609 H 0.66762 0.8142 0.67691 0.0
H2610 H 0.72609 0.75094 0.65918 0.0
H2611 H 0.7614 0.73532 0.65112 0.0
H2612 H 0.75451 0.77767 0.58746 0.0
H2613 H 0.7192 0.79435 0.59567 0.0
C2614 C 0.61996 0.77636 0.58925 0.0
C2615 C 0.62099 0.78399 0.5656 0.0
C2616 C 0.63442 0.77797 0.60656 0.0
C2617 C 0.65 0.78778 0.60076 0.0
C2618 C 0.65151 0.79445 0.57687 0.0
C2619 C 0.6372 0.79251 0.55945 0.0
C2620 C 0.6644 0.79161 0.61972 0.0
C2621 C 0.68467 0.78266 0.61564 0.0
C2622 C 0.65824 0.80356 0.64196 0.0
C2623 C 0.63721 0.81535 0.64673 0.0
C2624 C 0.62604 0.83269 0.63095 0.0
C2625 C 0.60619 0.84357 0.63539 0.0
C2626 C 0.59739 0.83741 0.65567 0.0
C2627 C 0.60843 0.82039 0.67158 0.0
C2628 C 0.62828 0.80942 0.6672 0.0
C2629 C 0.73645 0.80797 0.69067 0.0
C2630 C 0.73618 0.79547 0.71204 0.0
C2631 C 0.72187 0.80897 0.67271 0.0
C2632 C 0.70677 0.79755 0.67584 0.0
C2633 C 0.70586 0.78629 0.69771 0.0
C2634 C 0.72044 0.78515 0.71556 0.0
C2635 C 0.69259 0.79584 0.65593 0.0
C2636 C 0.67238 0.80514 0.65986 0.0
C2637 C 0.69884 0.78457 0.63343 0.0
C2638 C 0.72 0.7741 0.6282 0.0
C2639 C 0.7321 0.75708 0.64356 0.0
C2640 C 0.75214 0.74803 0.63897 0.0
C2641 C 0.76021 0.75542 0.61876 0.0
C2642 C 0.74825 0.77196 0.60312 0.0
C2643 C 0.72822 0.78129 0.60779 0.0
H2644 H 0.77574 0.74832 0.61523 0.0
H2645 H 0.58202 0.84586 0.65908 0.0
H2646 H 0.56551 0.2449 0.46018 0.0
H2647 H 0.5957 0.24716 0.44095 0.0
H2648 H 0.61822 0.17001 0.44501 0.0
H2649 H 0.58804 0.16767 0.4648 0.0
H2650 H 0.64568 0.1943 0.45981 0.0
H2651 H 0.60193 0.19427 0.39223 0.0
H2652 H 0.57116 0.20768 0.36824 0.0
H2653 H 0.58001 0.27852 0.36429 0.0
H2654 H 0.61071 0.26563 0.38858 0.0
H2655 H 0.7236 0.18298 0.37698 0.0
H2656 H 0.69462 0.17994 0.39848 0.0
H2657 H 0.67103 0.25701 0.39582 0.0
H2658 H 0.70031 0.26038 0.3749 0.0
H2659 H 0.64427 0.2321 0.38026 0.0
H2660 H 0.68764 0.23252 0.44808 0.0
H2661 H 0.71814 0.2196 0.47267 0.0
H2662 H 0.70996 0.14842 0.47636 0.0
H2663 H 0.67951 0.16084 0.45151 0.0
C2664 C 0.57691 0.22841 0.45713 0.0
C2665 C 0.57441 0.2061 0.46409 0.0
C2666 C 0.59409 0.22972 0.44594 0.0
C2667 C 0.60913 0.20874 0.44139 0.0
C2668 C 0.60675 0.1864 0.44832 0.0
C2669 C 0.58946 0.18507 0.45944 0.0
C2670 C 0.62742 0.21033 0.42971 0.0
C2671 C 0.64544 0.2022 0.44224 0.0
C2672 C 0.62698 0.22123 0.40708 0.0
C2673 C 0.60853 0.22904 0.39243 0.0
C2674 C 0.59724 0.21277 0.38643 0.0
C2675 C 0.57982 0.22026 0.37274 0.0
C2676 C 0.57361 0.24395 0.3648 0.0
C2677 C 0.58483 0.26018 0.37048 0.0
C2678 C 0.60225 0.25279 0.38419 0.0
C2679 C 0.71251 0.19939 0.38143 0.0
C2680 C 0.71436 0.22195 0.37419 0.0
C2681 C 0.69588 0.19758 0.39363 0.0
C2682 C 0.68072 0.21825 0.3988 0.0
C2683 C 0.68257 0.24083 0.39192 0.0
C2684 C 0.69927 0.24269 0.37987 0.0
C2685 C 0.66254 0.21614 0.41039 0.0
C2686 C 0.64453 0.22416 0.39781 0.0
C2687 C 0.663 0.20515 0.43297 0.0
C2688 C 0.68141 0.19754 0.44771 0.0
C2689 C 0.69244 0.21404 0.45392 0.0
C2690 C 0.7097 0.20683 0.46796 0.0
C2691 C 0.71601 0.18319 0.47601 0.0
C2692 C 0.70506 0.16672 0.47008 0.0
C2693 C 0.6878 0.17384 0.45603 0.0
H2694 H 0.72936 0.17764 0.4869 0.0
H2695 H 0.56012 0.24972 0.35419 0.0
H2696 H 0.86815 0.57072 0.44527 0.0
H2697 H 0.86408 0.59975 0.41294 0.0
H2698 H 0.80619 0.59075 0.39624 0.0
H2699 H 0.81031 0.56133 0.42829 0.0
H2700 H 0.82744 0.59137 0.35535 0.0
H2701 H 0.8103 0.63916 0.4275 0.0
H2702 H 0.81514 0.65266 0.46922 0.0
H2703 H 0.86674 0.67307 0.44845 0.0
H2704 H 0.86237 0.65935 0.40665 0.0
H2705 H 0.79151 0.69776 0.28644 0.0
H2706 H 0.79682 0.66518 0.31523 0.0
H2707 H 0.85334 0.67652 0.33567 0.0
H2708 H 0.84805 0.70934 0.30723 0.0
H2709 H 0.83261 0.67427 0.37446 0.0
H2710 H 0.84947 0.62683 0.30194 0.0
H2711 H 0.84439 0.61342 0.26024 0.0
H2712 H 0.79311 0.59259 0.28153 0.0
H2713 H 0.79773 0.60618 0.32331 0.0
C2714 C 0.85463 0.57472 0.43458 0.0
C2715 C 0.83952 0.56377 0.43944 0.0
C2716 C 0.85227 0.59145 0.41621 0.0
C2717 C 0.83476 0.59758 0.40233 0.0
C2718 C 0.8198 0.58633 0.40678 0.0
C2719 C 0.82211 0.56969 0.42524 0.0
C2720 C 0.83195 0.61604 0.38346 0.0
C2721 C 0.82833 0.60959 0.35953 0.0
C2722 C 0.83348 0.63966 0.38889 0.0
C2723 C 0.83612 0.64799 0.414 0.0
C2724 C 0.82278 0.64633 0.43187 0.0
C2725 C 0.82542 0.65406 0.45553 0.0
C2726 C 0.84127 0.66365 0.4615 0.0
C2727 C 0.85449 0.6656 0.44381 0.0
C2728 C 0.85193 0.65786 0.42013 0.0
C2729 C 0.80519 0.69314 0.29682 0.0
C2730 C 0.81933 0.70623 0.29453 0.0
C2731 C 0.80823 0.67444 0.31325 0.0
C2732 C 0.82553 0.66831 0.32756 0.0
C2733 C 0.83986 0.68096 0.32487 0.0
C2734 C 0.83683 0.69968 0.30851 0.0
C2735 C 0.82826 0.64961 0.34621 0.0
C2736 C 0.83179 0.65604 0.37018 0.0
C2737 C 0.82662 0.62601 0.34079 0.0
C2738 C 0.82384 0.61774 0.31571 0.0
C2739 C 0.83702 0.61957 0.29769 0.0
C2740 C 0.83424 0.6119 0.27405 0.0
C2741 C 0.81841 0.60222 0.26823 0.0
C2742 C 0.80535 0.60012 0.28606 0.0
C2743 C 0.80806 0.60778 0.30973 0.0
H2744 H 0.81628 0.59629 0.24991 0.0
H2745 H 0.84329 0.66963 0.47982 0.0
H2746 H 0.53502 0.74962 0.51347 0.0
H2747 H 0.50586 0.74675 0.49006 0.0
H2748 H 0.53664 0.74778 0.42413 0.0
H2749 H 0.56559 0.75185 0.44754 0.0
H2750 H 0.50437 0.77955 0.4216 0.0
H2751 H 0.52042 0.69736 0.44433 0.0
H2752 H 0.52914 0.66275 0.47143 0.0
H2753 H 0.47459 0.6897 0.50821 0.0
H2754 H 0.46568 0.72471 0.48162 0.0
H2755 H 0.42512 0.76508 0.34617 0.0
H2756 H 0.45665 0.75334 0.36824 0.0
H2757 H 0.42677 0.77446 0.43529 0.0
H2758 H 0.39508 0.78641 0.41326 0.0
H2759 H 0.45875 0.72883 0.43557 0.0
H2760 H 0.4452 0.81284 0.41447 0.0
H2761 H 0.43661 0.84654 0.38623 0.0
H2762 H 0.48764 0.81356 0.3447 0.0
H2763 H 0.49636 0.77945 0.37252 0.0
C2764 C 0.53581 0.74842 0.49399 0.0
C2765 C 0.55262 0.75092 0.48232 0.0
C2766 C 0.51906 0.74677 0.48059 0.0
C2767 C 0.51892 0.74698 0.45526 0.0
C2768 C 0.53625 0.74773 0.44363 0.0
C2769 C 0.55286 0.74987 0.45701 0.0
C2770 C 0.5002 0.74934 0.44106 0.0
C2771 C 0.49469 0.76801 0.42438 0.0
C2772 C 0.48713 0.73484 0.445 0.0
C2773 C 0.49246 0.71381 0.46109 0.0
C2774 C 0.51035 0.69604 0.45833 0.0
C2775 C 0.51532 0.67631 0.47359 0.0
C2776 C 0.50245 0.67405 0.49156 0.0
C2777 C 0.48455 0.69146 0.49427 0.0
C2778 C 0.47952 0.71124 0.47909 0.0
C2779 C 0.42521 0.76688 0.36565 0.0
C2780 C 0.40764 0.77686 0.37799 0.0
C2781 C 0.44323 0.76021 0.37821 0.0
C2782 C 0.44402 0.76314 0.40336 0.0
C2783 C 0.42644 0.77204 0.41587 0.0
C2784 C 0.4084 0.77903 0.40327 0.0
C2785 C 0.46331 0.75877 0.41633 0.0
C2786 C 0.46875 0.73996 0.43276 0.0
C2787 C 0.47647 0.77292 0.41206 0.0
C2788 C 0.4713 0.79347 0.3954 0.0
C2789 C 0.45448 0.81266 0.39918 0.0
C2790 C 0.44961 0.83186 0.38328 0.0
C2791 C 0.46154 0.83216 0.36364 0.0
C2792 C 0.4784 0.81328 0.3599 0.0
C2793 C 0.48331 0.79402 0.37573 0.0
H2794 H 0.45775 0.84704 0.35135 0.0
H2795 H 0.50633 0.65878 0.50336 0.0
H2796 H 0.27511 0.47714 0.47988 0.0
H2797 H 0.26327 0.45289 0.44871 0.0
H2798 H 0.29575 0.47855 0.39521 0.0
H2799 H 0.30764 0.50257 0.42614 0.0
H2800 H 0.26035 0.47201 0.37672 0.0
H2801 H 0.31757 0.42933 0.42233 0.0
H2802 H 0.33693 0.4137 0.45885 0.0
H2803 H 0.29486 0.37467 0.47566 0.0
H2804 H 0.27507 0.39041 0.43939 0.0
H2805 H 0.2903 0.37235 0.293 0.0
H2806 H 0.28641 0.40685 0.32108 0.0
H2807 H 0.2562 0.37271 0.3702 0.0
H2808 H 0.26019 0.33827 0.34254 0.0
H2809 H 0.28665 0.3847 0.39175 0.0
H2810 H 0.23191 0.42387 0.34119 0.0
H2811 H 0.21497 0.43837 0.30286 0.0
H2812 H 0.25443 0.48289 0.29341 0.0
H2813 H 0.27179 0.4684 0.33153 0.0
C2814 C 0.27918 0.47816 0.46134 0.0
C2815 C 0.29244 0.49145 0.45539 0.0
C2816 C 0.2725 0.46425 0.4436 0.0
C2817 C 0.27887 0.46373 0.41975 0.0
C2818 C 0.29068 0.47869 0.41349 0.0
C2819 C 0.29754 0.4923 0.4312 0.0
C2820 C 0.27556 0.44542 0.40204 0.0
C2821 C 0.26604 0.4529 0.37995 0.0
C2822 C 0.28299 0.42052 0.40635 0.0
C2823 C 0.29466 0.4114 0.4284 0.0
C2824 C 0.31231 0.41769 0.43399 0.0
C2825 C 0.32339 0.40874 0.4546 0.0
C2826 C 0.31708 0.39329 0.46963 0.0
C2827 C 0.29969 0.38672 0.46405 0.0
C2828 C 0.28852 0.39566 0.44348 0.0
C2829 C 0.28246 0.37247 0.30954 0.0
C2830 C 0.27576 0.35249 0.31568 0.0
C2831 C 0.28019 0.3922 0.32554 0.0
C2832 C 0.27101 0.39232 0.34773 0.0
C2833 C 0.2634 0.37295 0.35323 0.0
C2834 C 0.26573 0.35325 0.33739 0.0
C2835 C 0.27122 0.41118 0.36638 0.0
C2836 C 0.28045 0.40376 0.38863 0.0
C2837 C 0.26371 0.43606 0.36203 0.0
C2838 C 0.25325 0.44489 0.33914 0.0
C2839 C 0.23707 0.43661 0.33085 0.0
C2840 C 0.22738 0.44486 0.30918 0.0
C2841 C 0.23364 0.4615 0.29568 0.0
C2842 C 0.2496 0.46998 0.30387 0.0
C2843 C 0.25935 0.46178 0.32553 0.0
H2844 H 0.22612 0.46786 0.2789 0.0
H2845 H 0.32569 0.38636 0.48556 0.0
H2846 H 0.49007 0.18697 0.61396 0.0
H2847 H 0.4662 0.19185 0.64612 0.0
H2848 H 0.42421 0.24443 0.60412 0.0
H2849 H 0.44822 0.23989 0.57212 0.0
H2850 H 0.4227 0.25899 0.64914 0.0
H2851 H 0.42148 0.18534 0.60765 0.0
H2852 H 0.43535 0.14465 0.59035 0.0
H2853 H 0.45628 0.11863 0.66055 0.0
H2854 H 0.44275 0.15927 0.67823 0.0
H2855 H 0.34002 0.21572 0.70609 0.0
H2856 H 0.36713 0.20923 0.67821 0.0
H2857 H 0.39803 0.24641 0.7276 0.0
H2858 H 0.37071 0.25335 0.75561 0.0
H2859 H 0.40527 0.18705 0.67943 0.0
H2860 H 0.42044 0.28068 0.69366 0.0
H2861 H 0.40284 0.3218 0.70703 0.0
H2862 H 0.34769 0.30873 0.68426 0.0
H2863 H 0.36497 0.2677 0.67046 0.0
C2864 C 0.47572 0.19947 0.61156 0.0
C2865 C 0.47096 0.21292 0.59045 0.0
C2866 C 0.46209 0.20229 0.62996 0.0
C2867 C 0.44329 0.21829 0.62743 0.0
C2868 C 0.43863 0.23203 0.60653 0.0
C2869 C 0.45235 0.22941 0.58824 0.0
C2870 C 0.42834 0.22033 0.64632 0.0
C2871 C 0.41897 0.24323 0.65583 0.0
C2872 C 0.42315 0.19985 0.65478 0.0
C2873 C 0.43129 0.17539 0.64421 0.0
C2874 C 0.42917 0.17098 0.61937 0.0
C2875 C 0.43695 0.14792 0.6095 0.0
C2876 C 0.44674 0.12908 0.62433 0.0
C2877 C 0.44872 0.13325 0.64908 0.0
C2878 C 0.44099 0.15629 0.65903 0.0
C2879 C 0.35267 0.22229 0.71122 0.0
C2880 C 0.35312 0.23521 0.73303 0.0
C2881 C 0.3682 0.21849 0.69526 0.0
C2882 C 0.38447 0.22761 0.70067 0.0
C2883 C 0.38546 0.23949 0.72294 0.0
C2884 C 0.36991 0.24328 0.739 0.0
C2885 C 0.39981 0.22563 0.68238 0.0
C2886 C 0.40921 0.20275 0.67295 0.0
C2887 C 0.40453 0.2462 0.67344 0.0
C2888 C 0.39401 0.27101 0.68132 0.0
C2889 C 0.40457 0.28662 0.69144 0.0
C2890 C 0.39464 0.30991 0.69909 0.0
C2891 C 0.37415 0.31783 0.69659 0.0
C2892 C 0.36355 0.30254 0.68629 0.0
C2893 C 0.3734 0.27926 0.67858 0.0
H2894 H 0.36651 0.33583 0.70261 0.0
H2895 H 0.45275 0.11124 0.61666 0.0
H2896 H 0.82502 0.43349 0.55672 0.0
H2897 H 0.81996 0.40558 0.58668 0.0
H2898 H 0.85508 0.43418 0.63852 0.0
H2899 H 0.85989 0.46261 0.60881 0.0
H2900 H 0.86315 0.38339 0.63827 0.0
H2901 H 0.80714 0.45284 0.64185 0.0
H2902 H 0.77886 0.48336 0.62487 0.0
H2903 H 0.75214 0.42763 0.60049 0.0
H2904 H 0.78041 0.39674 0.617 0.0
H2905 H 0.83312 0.33525 0.74293 0.0
H2906 H 0.84095 0.36151 0.713 0.0
H2907 H 0.79859 0.34341 0.66321 0.0
H2908 H 0.79025 0.31777 0.69328 0.0
H2909 H 0.79467 0.38934 0.66259 0.0
H2910 H 0.84962 0.31977 0.65759 0.0
H2911 H 0.87782 0.28806 0.67292 0.0
H2912 H 0.90648 0.34182 0.69784 0.0
H2913 H 0.87831 0.3739 0.68296 0.0
C2914 C 0.83162 0.43399 0.5745 0.0
C2915 C 0.84264 0.4506 0.5804 0.0
C2916 C 0.82878 0.41792 0.59156 0.0
C2917 C 0.83693 0.41806 0.61488 0.0
C2918 C 0.84865 0.43383 0.6206 0.0
C2919 C 0.85143 0.45003 0.60355 0.0
C2920 C 0.8326 0.40232 0.6335 0.0
C2921 C 0.84822 0.38484 0.64387 0.0
C2922 C 0.81306 0.40389 0.64026 0.0
C2923 C 0.79599 0.42246 0.63046 0.0
C2924 C 0.79531 0.44708 0.63269 0.0
C2925 C 0.77927 0.46445 0.62318 0.0
C2926 C 0.76374 0.45744 0.61155 0.0
C2927 C 0.76419 0.43304 0.60947 0.0
C2928 C 0.78021 0.41559 0.61891 0.0
C2929 C 0.82552 0.33679 0.72558 0.0
C2930 C 0.81108 0.32439 0.72048 0.0
C2931 C 0.83008 0.35173 0.70842 0.0
C2932 C 0.82056 0.3542 0.68569 0.0
C2933 C 0.80614 0.34181 0.6806 0.0
C2934 C 0.80141 0.32711 0.69782 0.0
C2935 C 0.82522 0.37015 0.66739 0.0
C2936 C 0.80963 0.38777 0.65707 0.0
C2937 C 0.84477 0.36849 0.66047 0.0
C2938 C 0.86176 0.34924 0.66938 0.0
C2939 C 0.86187 0.32484 0.66651 0.0
C2940 C 0.87786 0.3068 0.67509 0.0
C2941 C 0.89391 0.31292 0.6864 0.0
C2942 C 0.89402 0.33711 0.68911 0.0
C2943 C 0.87806 0.35522 0.68058 0.0
H2944 H 0.90628 0.29893 0.69303 0.0
H2945 H 0.75133 0.47091 0.6042 0.0
H2946 H 0.27607 0.56408 0.57583 0.0
H2947 H 0.26652 0.59647 0.60641 0.0
H2948 H 0.32733 0.5981 0.6151 0.0
H2949 H 0.33692 0.56545 0.5857 0.0
H2950 H 0.31252 0.60224 0.65665 0.0
H2951 H 0.29155 0.6396 0.58 0.0
H2952 H 0.27305 0.64544 0.54126 0.0
H2953 H 0.2185 0.65945 0.57878 0.0
H2954 H 0.23672 0.6534 0.61774 0.0
H2955 H 0.31293 0.71877 0.69459 0.0
H2956 H 0.31262 0.68501 0.66718 0.0
H2957 H 0.25487 0.6849 0.69107 0.0
H2958 H 0.25505 0.7187 0.71893 0.0
H2959 H 0.26286 0.67854 0.63722 0.0
H2960 H 0.28725 0.64656 0.71523 0.0
H2961 H 0.30843 0.64474 0.75165 0.0
H2962 H 0.36001 0.62348 0.70835 0.0
H2963 H 0.33912 0.6256 0.67159 0.0
C2964 C 0.28735 0.5713 0.58444 0.0
C2965 C 0.30723 0.56223 0.57836 0.0
C2966 C 0.28189 0.58986 0.60182 0.0
C2967 C 0.29619 0.59992 0.61294 0.0
C2968 C 0.31601 0.5906 0.60697 0.0
C2969 C 0.32148 0.57192 0.59002 0.0
C2970 C 0.29087 0.62048 0.63045 0.0
C2971 C 0.30164 0.61888 0.65232 0.0
C2972 C 0.27645 0.64215 0.62511 0.0
C2973 C 0.26549 0.64573 0.60173 0.0
C2974 C 0.27562 0.64373 0.57996 0.0
C2975 C 0.26519 0.64711 0.55798 0.0
C2976 C 0.24462 0.65272 0.55756 0.0
C2977 C 0.23444 0.65504 0.57913 0.0
C2978 C 0.2448 0.65164 0.60117 0.0
C2979 C 0.3 0.71188 0.69382 0.0
C2980 C 0.28406 0.72131 0.70907 0.0
C2981 C 0.29988 0.69256 0.67816 0.0
C2982 C 0.28379 0.68245 0.67733 0.0
C2983 C 0.2674 0.69253 0.69156 0.0
C2984 C 0.26759 0.71175 0.70748 0.0
C2985 C 0.28493 0.6603 0.66277 0.0
C2986 C 0.27339 0.66165 0.64162 0.0
C2987 C 0.29899 0.63857 0.66844 0.0
C2988 C 0.3116 0.63639 0.69063 0.0
C2989 C 0.30311 0.64161 0.71345 0.0
C2990 C 0.31506 0.64053 0.73416 0.0
C2991 C 0.33556 0.63405 0.73231 0.0
C2992 C 0.34413 0.62851 0.70975 0.0
C2993 C 0.33224 0.62962 0.68898 0.0
H2994 H 0.34479 0.6333 0.74835 0.0
H2995 H 0.23657 0.65535 0.54052 0.0
loop_
_geom_bond_atom_site_label_1
_geom_bond_atom_site_label_2
_geom_bond_distance
_geom_bond_site_symmetry_2
_ccdc_geom_bond_type
Cu0 N1 1.999 . S
Cu0 O6 1.974 . S
Cu0 N11 1.985 . S
Cu0 O20 1.959 . S
N1 Cu0 1.999 . S
N1 C3 1.263 . S
N1 C5 1.389 . S
N2 C3 1.358 . S
N2 C4 1.400 . S
C3 N1 1.263 . S
C3 N2 1.358 . S
C3 H9 0.930 . S
C4 N2 1.400 . S
C4 C5 1.351 . S
C4 H21 0.930 . S
C5 N1 1.389 . S
C5 C4 1.351 . S
C5 H10 0.930 . S
O6 Cu0 1.974 . S
O6 C16 1.282 1_545 S
C7 O8 1.261 . S
C7 O20 1.251 . S
O8 C7 1.261 . S
H9 C3 0.930 . S
H10 C5 0.930 . S
N11 Cu0 1.985 . S
N11 C13 1.335 . S
N11 C14 1.390 1_545 S
N12 C13 1.345 1_565 S
N12 C15 1.336 . S
C13 N11 1.335 . S
C13 N12 1.345 1_545 S
C13 H18 0.930 1_455 S
C14 N11 1.390 1_565 S
C14 C15 1.346 . S
C14 H19 0.930 . S
C15 N12 1.336 . S
C15 C14 1.346 . S
C15 H22 0.929 . S
C16 O6 1.282 1_565 S
C16 O17 1.216 1_565 S
O17 C16 1.216 1_545 S
H18 C13 0.930 1_655 S
H19 C14 0.930 . S
O20 Cu0 1.959 . S
O20 C7 1.251 . S
H21 C4 0.930 . S
H22 C15 0.929 . S
Cu23 N24 1.958 1_545 S
Cu23 O29 2.000 . S
Cu23 N34 2.026 . S
Cu23 O43 1.933 1_545 S
N24 Cu23 1.958 1_565 S
N24 C26 1.263 . S
N24 C28 1.389 . S
N25 C26 1.358 . S
N25 C27 1.400 . S
C26 N24 1.263 . S
C26 N25 1.358 . S
C26 H32 0.930 . S
C27 N25 1.400 . S
C27 C28 1.351 . S
C27 H44 0.930 . S
C28 N24 1.389 . S
C28 C27 1.351 . S
C28 H33 0.930 . S
O29 Cu23 2.000 . S
O29 C39 1.282 . S
C30 O31 1.261 . S
C30 O43 1.251 . S
O31 C30 1.261 . S
H32 C26 0.930 . S
H33 C28 0.930 . S
N34 Cu23 2.026 . S
N34 C36 1.335 . S
N34 C37 1.390 . S
N35 C36 1.345 . S
N35 C38 1.336 . S
C36 N34 1.335 . S
C36 N35 1.345 . S
C36 H41 0.930 . S
C37 N34 1.390 . S
C37 C38 1.346 . S
C37 H42 0.930 . S
C38 N35 1.336 . S
C38 C37 1.346 . S
C38 H45 0.929 . S
C39 O29 1.282 . S
C39 O40 1.216 . S
O40 C39 1.216 . S
H41 C36 0.930 . S
H42 C37 0.930 . S
O43 Cu23 1.933 1_565 S
O43 C30 1.251 . S
H44 C27 0.930 . S
H45 C38 0.929 . S
Cu46 N47 1.999 1_544 S
Cu46 O52 1.974 1_545 S
Cu46 N57 1.985 . S
Cu46 O66 1.959 1_554 S
N47 Cu46 1.999 1_566 S
N47 C49 1.263 . S
N47 C51 1.389 . S
N48 C49 1.358 . S
N48 C50 1.400 . S
C49 N47 1.263 . S
C49 N48 1.358 . S
C49 H55 0.930 . S
C50 N48 1.400 . S
C50 C51 1.351 . S
C50 H67 0.930 . S
C51 N47 1.389 . S
C51 C50 1.351 . S
C51 H56 0.930 . S
O52 Cu46 1.974 1_565 S
O52 C62 1.282 . S
C53 O54 1.261 . S
C53 O66 1.251 . S
O54 C53 1.261 . S
H55 C49 0.930 . S
H56 C51 0.930 . S
N57 Cu46 1.985 . S
N57 C59 1.335 . S
N57 C60 1.390 . S
N58 C59 1.345 . S
N58 C61 1.336 . S
C59 N57 1.335 . S
C59 N58 1.345 . S
C59 H64 0.930 . S
C60 N57 1.390 . S
C60 C61 1.346 . S
C60 H65 0.930 . S
C61 N58 1.336 . S
C61 C60 1.346 . S
C61 H68 0.929 . S
C62 O52 1.282 . S
C62 O63 1.216 . S
O63 C62 1.216 . S
H64 C59 0.930 . S
H65 C60 0.930 . S
O66 Cu46 1.959 1_556 S
O66 C53 1.251 . S
H67 C50 0.930 . S
H68 C61 0.929 . S
Cu69 N70 1.999 1_554 S
Cu69 O75 1.974 . S
Cu69 N80 1.985 . S
Cu69 O89 1.959 1_554 S
N70 Cu69 1.999 1_556 S
N70 C72 1.263 . S
N70 C74 1.389 . S
N71 C72 1.358 . S
N71 C73 1.400 . S
C72 N70 1.263 . S
C72 N71 1.358 . S
C72 H78 0.930 1_556 S
C73 N71 1.400 . S
C73 C74 1.351 . S
C73 H90 0.930 . S
C74 N70 1.389 . S
C74 C73 1.351 . S
C74 H79 0.930 . S
O75 Cu69 1.974 . S
O75 C85 1.282 . S
C76 O77 1.261 . S
C76 O89 1.251 . S
O77 C76 1.261 . S
H78 C72 0.930 1_554 S
H79 C74 0.930 . S
N80 Cu69 1.985 . S
N80 C82 1.335 . S
N80 C83 1.390 . S
N81 C82 1.345 . S
N81 C84 1.336 . S
C82 N80 1.335 . S
C82 N81 1.345 . S
C82 H87 0.930 . S
C83 N80 1.390 . S
C83 C84 1.346 . S
C83 H88 0.930 . S
C84 N81 1.336 . S
C84 C83 1.346 . S
C84 H91 0.929 . S
C85 O75 1.282 . S
C85 O86 1.216 . S
O86 C85 1.216 . S
H87 C82 0.930 . S
H88 C83 0.930 . S
O89 Cu69 1.959 1_556 S
O89 C76 1.251 . S
H90 C73 0.930 . S
H91 C84 0.929 . S
Cu92 N93 1.999 1_554 S
Cu92 O98 1.974 . S
Cu92 N103 1.985 1_545 S
Cu92 O112 1.959 1_544 S
N93 Cu92 1.999 1_556 S
N93 C95 1.263 . S
N93 C97 1.389 . S
N94 C95 1.358 . S
N94 C96 1.400 . S
C95 N93 1.263 . S
C95 N94 1.358 . S
C95 H101 0.930 . S
C96 N94 1.400 . S
C96 C97 1.351 . S
C96 H113 0.930 . S
C97 N93 1.389 . S
C97 C96 1.351 . S
C97 H102 0.930 . S
O98 Cu92 1.974 . S
O98 C108 1.282 . S
C99 O100 1.261 . S
C99 O112 1.251 . S
O100 C99 1.261 . S
H101 C95 0.930 . S
H102 C97 0.930 . S
N103 Cu92 1.985 1_565 S
N103 C105 1.335 . S
N103 C106 1.395 . S
N104 C105 1.345 . S
N104 C107 1.336 . S
C105 N103 1.335 . S
C105 N104 1.345 . S
C105 H110 0.930 . S
C106 N103 1.395 . S
C106 C107 1.370 . S
C106 H111 0.906 1_565 S
C107 N104 1.336 . S
C107 C106 1.370 . S
C107 H114 0.929 . S
C108 O98 1.282 . S
C108 O109 1.216 . S
O109 C108 1.216 . S
H110 C105 0.930 . S
H111 C106 0.906 1_545 S
O112 Cu92 1.959 1_566 S
O112 C99 1.251 . S
H113 C96 0.930 . S
H114 C107 0.929 . S
Cu115 N116 1.957 1_454 S
Cu115 O121 1.989 1_455 S
Cu115 N126 2.002 . S
Cu115 O135 1.944 1_554 S
N116 Cu115 1.957 1_656 S
N116 C118 1.297 . S
N116 C120 1.384 1_655 S
N117 C118 1.358 . S
N117 C119 1.400 . S
C118 N116 1.297 . S
C118 N117 1.358 . S
C118 H124 0.930 . S
C119 N117 1.400 . S
C119 C120 1.351 1_655 S
C119 H136 0.930 . S
C120 N116 1.384 1_455 S
C120 C119 1.351 1_455 S
C120 H125 0.930 . S
O121 Cu115 1.989 1_655 S
O121 C131 1.282 . S
C122 O123 1.261 . S
C122 O135 1.251 . S
O123 C122 1.261 . S
H124 C118 0.930 . S
H125 C120 0.930 . S
N126 Cu115 2.002 . S
N126 C128 1.335 . S
N126 C129 1.390 . S
N127 C128 1.345 . S
N127 C130 1.336 . S
C128 N126 1.335 . S
C128 N127 1.345 . S
C128 H133 0.930 . S
C129 N126 1.390 . S
C129 C130 1.346 . S
C129 H134 0.930 . S
C130 N127 1.336 . S
C130 C129 1.346 . S
C130 H137 0.929 . S
C131 O121 1.282 . S
C131 O132 1.216 . S
O132 C131 1.216 . S
H133 C128 0.930 . S
H134 C129 0.930 . S
O135 Cu115 1.944 1_556 S
O135 C122 1.251 . S
H136 C119 0.930 . S
H137 C130 0.929 . S
Cu138 N139 1.999 . S
Cu138 O144 1.974 . S
Cu138 N149 1.985 . S
Cu138 O158 1.959 . S
N139 Cu138 1.999 . S
N139 C141 1.263 . S
N139 C143 1.389 . S
N140 C141 1.358 . S
N140 C142 1.400 . S
C141 N139 1.263 . S
C141 N140 1.358 . S
C141 H147 0.930 . S
C142 N140 1.400 . S
C142 C143 1.351 . S
C142 H159 0.930 . S
C143 N139 1.389 . S
C143 C142 1.351 . S
C143 H148 0.930 . S
O144 Cu138 1.974 . S
O144 C154 1.282 . S
C145 O146 1.261 . S
C145 O158 1.251 . S
O146 C145 1.261 . S
H147 C141 0.930 . S
H148 C143 0.930 . S
N149 Cu138 1.985 . S
N149 C151 1.335 . S
N149 C152 1.390 . S
N150 C151 1.345 . S
N150 C153 1.336 . S
C151 N149 1.335 . S
C151 N150 1.345 . S
C151 H156 0.930 . S
C152 N149 1.390 . S
C152 C153 1.346 . S
C152 H157 0.930 . S
C153 N150 1.336 . S
C153 C152 1.346 . S
C153 H160 0.929 . S
C154 O144 1.282 . S
C154 O155 1.216 . S
O155 C154 1.216 . S
H156 C151 0.930 . S
H157 C152 0.930 . S
O158 Cu138 1.959 . S
O158 C145 1.251 . S
H159 C142 0.930 . S
H160 C153 0.929 . S
Cu161 N162 1.999 . S
Cu161 O167 1.974 . S
Cu161 N172 1.985 . S
Cu161 O181 1.959 . S
N162 Cu161 1.999 . S
N162 C164 1.263 . S
N162 C166 1.389 . S
N163 C164 1.358 . S
N163 C165 1.400 . S
C164 N162 1.263 . S
C164 N163 1.358 . S
C164 H170 0.930 . S
C165 N163 1.400 . S
C165 C166 1.351 . S
C165 H182 0.930 . S
C166 N162 1.389 . S
C166 C165 1.351 . S
C166 H171 0.930 . S
O167 Cu161 1.974 . S
O167 C177 1.282 . S
C168 O169 1.261 . S
C168 O181 1.251 . S
O169 C168 1.261 . S
H170 C164 0.930 . S
H171 C166 0.930 . S
N172 Cu161 1.985 . S
N172 C174 1.335 . S
N172 C175 1.390 . S
N173 C174 1.345 . S
N173 C176 1.336 . S
C174 N172 1.335 . S
C174 N173 1.345 . S
C174 H179 0.930 . S
C175 N172 1.390 . S
C175 C176 1.346 . S
C175 H180 0.930 . S
C176 N173 1.336 . S
C176 C175 1.346 . S
C176 H183 0.929 . S
C177 O167 1.282 . S
C177 O178 1.216 . S
O178 C177 1.216 . S
H179 C174 0.930 . S
H180 C175 0.930 . S
O181 Cu161 1.959 . S
O181 C168 1.251 . S
H182 C165 0.930 . S
H183 C176 0.929 . S
Cu184 N185 1.999 . S
Cu184 O190 1.974 . S
Cu184 N195 1.985 . S
Cu184 O204 1.959 . S
N185 Cu184 1.999 . S
N185 C187 1.263 . S
N185 C189 1.389 . S
N186 C187 1.358 . S
N186 C188 1.400 . S
C187 N185 1.263 . S
C187 N186 1.358 . S
C187 H193 0.930 . S
C188 N186 1.400 . S
C188 C189 1.351 . S
C188 H205 0.930 . S
C189 N185 1.389 . S
C189 C188 1.351 . S
C189 H194 0.930 . S
O190 Cu184 1.974 . S
O190 C200 1.282 . S
C191 O192 1.261 . S
C191 O204 1.251 . S
O192 C191 1.261 . S
H193 C187 0.930 . S
H194 C189 0.930 . S
N195 Cu184 1.985 . S
N195 C197 1.335 . S
N195 C198 1.390 . S
N196 C197 1.345 . S
N196 C199 1.336 . S
C197 N195 1.335 . S
C197 N196 1.345 . S
C197 H202 0.930 . S
C198 N195 1.390 . S
C198 C199 1.346 . S
C198 H203 0.930 . S
C199 N196 1.336 . S
C199 C198 1.346 . S
C199 H206 0.929 . S
C200 O190 1.282 . S
C200 O201 1.216 . S
O201 C200 1.216 . S
H202 C197 0.930 . S
H203 C198 0.930 . S
O204 Cu184 1.959 . S
O204 C191 1.251 . S
H205 C188 0.930 . S
H206 C199 0.929 . S
Cu207 N208 1.999 . S
Cu207 O213 1.974 . S
Cu207 N218 1.985 . S
Cu207 O227 1.959 . S
N208 Cu207 1.999 . S
N208 C210 1.263 . S
N208 C212 1.389 . S
N209 C210 1.358 . S
N209 C211 1.400 . S
C210 N208 1.263 . S
C210 N209 1.358 . S
C210 H216 0.930 . S
C211 N209 1.400 . S
C211 C212 1.351 . S
C211 H228 0.930 . S
C212 N208 1.389 . S
C212 C211 1.351 . S
C212 H217 0.930 . S
O213 Cu207 1.974 . S
O213 C223 1.282 . S
C214 O215 1.261 . S
C214 O227 1.251 . S
O215 C214 1.261 . S
H216 C210 0.930 . S
H217 C212 0.930 . S
N218 Cu207 1.985 . S
N218 C220 1.335 . S
N218 C221 1.390 . S
N219 C220 1.345 . S
N219 C222 1.336 . S
C220 N218 1.335 . S
C220 N219 1.345 . S
C220 H225 0.930 . S
C221 N218 1.390 . S
C221 C222 1.346 . S
C221 H226 0.930 . S
C222 N219 1.336 . S
C222 C221 1.346 . S
C222 H229 0.929 . S
C223 O213 1.282 . S
C223 O224 1.216 . S
O224 C223 1.216 . S
H225 C220 0.930 . S
H226 C221 0.930 . S
O227 Cu207 1.959 . S
O227 C214 1.251 . S
H228 C211 0.930 . S
H229 C222 0.929 . S
Cu230 N231 1.999 . S
Cu230 O236 1.974 . S
Cu230 N241 1.985 . S
Cu230 O250 1.959 . S
N231 Cu230 1.999 . S
N231 C233 1.263 . S
N231 C235 1.389 . S
N232 C233 1.358 . S
N232 C234 1.400 . S
C233 N231 1.263 . S
C233 N232 1.358 . S
C233 H239 0.930 . S
C234 N232 1.400 . S
C234 C235 1.351 . S
C234 H251 0.930 . S
C235 N231 1.389 . S
C235 C234 1.351 . S
C235 H240 0.930 . S
O236 Cu230 1.974 . S
O236 C246 1.282 . S
C237 O238 1.261 . S
C237 O250 1.251 . S
O238 C237 1.261 . S
H239 C233 0.930 . S
H240 C235 0.930 . S
N241 Cu230 1.985 . S
N241 C243 1.335 . S
N241 C244 1.390 . S
N242 C243 1.345 . S
N242 C245 1.336 . S
C243 N241 1.335 . S
C243 N242 1.345 . S
C243 H248 0.930 . S
C244 N241 1.390 . S
C244 C245 1.346 . S
C244 H249 0.930 . S
C245 N242 1.336 . S
C245 C244 1.346 . S
C245 H252 0.929 . S
C246 O236 1.282 . S
C246 O247 1.216 . S
O247 C246 1.216 . S
H248 C243 0.930 . S
H249 C244 0.930 . S
O250 Cu230 1.959 . S
O250 C237 1.251 . S
H251 C234 0.930 . S
H252 C245 0.929 . S
Cu253 N254 1.999 . S
Cu253 O259 1.974 . S
Cu253 N264 1.985 . S
Cu253 O273 1.959 . S
N254 Cu253 1.999 . S
N254 C256 1.263 . S
N254 C258 1.389 . S
N255 C256 1.358 . S
N255 C257 1.400 . S
C256 N254 1.263 . S
C256 N255 1.358 . S
C256 H262 0.930 . S
C257 N255 1.400 . S
C257 C258 1.351 . S
C257 H274 0.930 . S
C258 N254 1.389 . S
C258 C257 1.351 . S
C258 H263 0.930 . S
O259 Cu253 1.974 . S
O259 C269 1.282 . S
C260 O261 1.261 . S
C260 O273 1.251 . S
O261 C260 1.261 . S
H262 C256 0.930 . S
H263 C258 0.930 . S
N264 Cu253 1.985 . S
N264 C266 1.335 . S
N264 C267 1.390 . S
N265 C266 1.345 . S
N265 C268 1.336 . S
C266 N264 1.335 . S
C266 N265 1.345 . S
C266 H271 0.930 . S
C267 N264 1.390 . S
C267 C268 1.346 . S
C267 H272 0.930 . S
C268 N265 1.336 . S
C268 C267 1.346 . S
C268 H275 0.929 . S
C269 O259 1.282 . S
C269 O270 1.216 . S
O270 C269 1.216 . S
H271 C266 0.930 . S
H272 C267 0.930 . S
O273 Cu253 1.959 . S
O273 C260 1.251 . S
H274 C257 0.930 . S
H275 C268 0.929 . S
Dy276 O279 2.307 . S
Dy276 O281 2.395 . S
Dy276 O282 2.379 . S
Dy276 O284 2.339 . S
Dy276 O286 2.298 . S
Dy276 O290 2.275 . S
Dy276 C298 2.738 . S
Dy277 O280 2.298 . S
Dy277 O283 2.275 . S
Dy277 O285 2.307 . S
Dy277 O287 2.395 . S
Dy277 O288 2.379 . S
Dy277 O291 2.339 . S
Dy277 C307 2.738 . S
C278 O290 1.254 . S
C278 O291 1.257 . S
O279 Dy276 2.307 . S
O279 C289 1.266 . S
O280 Dy277 2.298 . S
O280 C289 1.236 . S
O281 Dy276 2.395 . S
O281 C298 1.255 . S
O282 Dy276 2.379 . S
O282 C298 1.249 . S
O283 Dy277 2.275 . S
O283 C299 1.254 . S
O284 Dy276 2.339 . S
O284 C299 1.257 . S
O285 Dy277 2.307 . S
O285 C300 1.266 . S
O286 Dy276 2.298 . S
O286 C300 1.236 . S
O287 Dy277 2.395 . S
O287 C307 1.255 . S
O288 Dy277 2.379 . S
O288 C307 1.249 . S
C289 O279 1.266 . S
C289 O280 1.236 . S
O290 Dy276 2.275 . S
O290 C278 1.254 . S
O291 Dy277 2.339 . S
O291 C278 1.257 . S
C292 C295 1.344 . S
C292 C296 1.328 . S
C292 C298 1.516 . S
C293 C294 1.304 . S
C293 C297 1.323 . S
C294 C293 1.304 . S
C294 C295 1.371 . S
C294 H308 0.930 . S
C295 C292 1.344 . S
C295 C294 1.371 . S
C295 H309 0.931 . S
C296 C292 1.328 . S
C296 C297 1.433 . S
C296 H310 0.931 . S
C297 C293 1.323 . S
C297 C296 1.433 . S
C297 H311 0.933 . S
C298 Dy276 2.738 . S
C298 O281 1.255 . S
C298 O282 1.249 . S
C298 C292 1.516 . S
C299 O283 1.254 . S
C299 O284 1.257 . S
C300 O285 1.266 . S
C300 O286 1.236 . S
C301 C304 1.344 . S
C301 C305 1.328 . S
C301 C307 1.516 . S
C302 C303 1.304 . S
C302 C306 1.323 . S
C303 C302 1.304 . S
C303 C304 1.371 . S
C303 H312 0.930 . S
C304 C301 1.344 . S
C304 C303 1.371 . S
C304 H313 0.931 . S
C305 C301 1.328 . S
C305 C306 1.433 . S
C305 H314 0.931 . S
C306 C302 1.323 . S
C306 C305 1.433 . S
C306 H315 0.933 . S
C307 Dy277 2.738 . S
C307 O287 1.255 . S
C307 O288 1.249 . S
C307 C301 1.516 . S
H308 C294 0.930 . S
H309 C295 0.931 . S
H310 C296 0.931 . S
H311 C297 0.933 . S
H312 C303 0.930 . S
H313 C304 0.931 . S
H314 C305 0.931 . S
H315 C306 0.933 . S
Dy316 O319 2.307 . S
Dy316 O321 2.395 . S
Dy316 O322 2.379 . S
Dy316 O324 2.339 . S
Dy316 O326 2.298 . S
Dy316 O330 2.275 . S
Dy316 C338 2.738 . S
Dy317 O320 2.298 . S
Dy317 O323 2.275 . S
Dy317 O325 2.307 . S
Dy317 O327 2.395 . S
Dy317 O328 2.379 . S
Dy317 O331 2.339 . S
Dy317 C347 2.738 . S
C318 O330 1.254 . S
C318 O331 1.257 . S
O319 Dy316 2.307 . S
O319 C329 1.266 . S
O320 Dy317 2.298 . S
O320 C329 1.236 . S
O321 Dy316 2.395 . S
O321 C338 1.255 . S
O322 Dy316 2.379 . S
O322 C338 1.249 . S
O323 Dy317 2.275 . S
O323 C339 1.254 . S
O324 Dy316 2.339 . S
O324 C339 1.257 . S
O325 Dy317 2.307 . S
O325 C340 1.266 . S
O326 Dy316 2.298 . S
O326 C340 1.236 . S
O327 Dy317 2.395 . S
O327 C347 1.255 . S
O328 Dy317 2.379 . S
O328 C347 1.249 . S
C329 O319 1.266 . S
C329 O320 1.236 . S
O330 Dy316 2.275 . S
O330 C318 1.254 . S
O331 Dy317 2.339 . S
O331 C318 1.257 . S
C332 C335 1.344 . S
C332 C336 1.328 . S
C332 C338 1.516 . S
C333 C334 1.304 . S
C333 C337 1.323 . S
C334 C333 1.304 . S
C334 C335 1.371 . S
C334 H348 0.930 . S
C335 C332 1.344 . S
C335 C334 1.371 . S
C335 H349 0.931 . S
C336 C332 1.328 . S
C336 C337 1.433 . S
C336 H350 0.931 . S
C337 C333 1.323 . S
C337 C336 1.433 . S
C337 H351 0.933 . S
C338 Dy316 2.738 . S
C338 O321 1.255 . S
C338 O322 1.249 . S
C338 C332 1.516 . S
C339 O323 1.254 . S
C339 O324 1.257 . S
C340 O325 1.266 . S
C340 O326 1.236 . S
C341 C344 1.344 . S
C341 C345 1.328 . S
C341 C347 1.516 . S
C342 C343 1.304 . S
C342 C346 1.323 . S
C343 C342 1.304 . S
C343 C344 1.371 . S
C343 H352 0.930 . S
C344 C341 1.344 . S
C344 C343 1.371 . S
C344 H353 0.931 . S
C345 C341 1.328 . S
C345 C346 1.433 . S
C345 H354 0.931 . S
C346 C342 1.323 . S
C346 C345 1.433 . S
C346 H355 0.933 . S
C347 Dy317 2.738 . S
C347 O327 1.255 . S
C347 O328 1.249 . S
C347 C341 1.516 . S
H348 C334 0.930 . S
H349 C335 0.931 . S
H350 C336 0.931 . S
H351 C337 0.933 . S
H352 C343 0.930 . S
H353 C344 0.931 . S
H354 C345 0.931 . S
H355 C346 0.933 . S
Dy356 O359 2.307 . S
Dy356 O361 2.395 . S
Dy356 O362 2.379 . S
Dy356 O364 2.339 . S
Dy356 O366 2.298 . S
Dy356 O370 2.275 . S
Dy356 C378 2.738 . S
Dy357 O360 2.298 . S
Dy357 O363 2.275 . S
Dy357 O365 2.307 . S
Dy357 O367 2.395 . S
Dy357 O368 2.379 . S
Dy357 O371 2.339 . S
Dy357 C387 2.738 . S
C358 O370 1.254 . S
C358 O371 1.257 . S
O359 Dy356 2.307 . S
O359 C369 1.266 . S
O360 Dy357 2.298 . S
O360 C369 1.236 . S
O361 Dy356 2.395 . S
O361 C378 1.255 . S
O362 Dy356 2.379 . S
O362 C378 1.249 . S
O363 Dy357 2.275 . S
O363 C379 1.254 . S
O364 Dy356 2.339 . S
O364 C379 1.257 . S
O365 Dy357 2.307 . S
O365 C380 1.266 . S
O366 Dy356 2.298 . S
O366 C380 1.236 . S
O367 Dy357 2.395 . S
O367 C387 1.255 . S
O368 Dy357 2.379 . S
O368 C387 1.249 . S
C369 O359 1.266 . S
C369 O360 1.236 . S
O370 Dy356 2.275 . S
O370 C358 1.254 . S
O371 Dy357 2.339 . S
O371 C358 1.257 . S
C372 C375 1.344 . S
C372 C376 1.328 . S
C372 C378 1.516 . S
C373 C374 1.304 . S
C373 C377 1.323 . S
C374 C373 1.304 . S
C374 C375 1.371 . S
C374 H388 0.930 . S
C375 C372 1.344 . S
C375 C374 1.371 . S
C375 H389 0.931 . S
C376 C372 1.328 . S
C376 C377 1.433 . S
C376 H390 0.931 . S
C377 C373 1.323 . S
C377 C376 1.433 . S
C377 H391 0.933 . S
C378 Dy356 2.738 . S
C378 O361 1.255 . S
C378 O362 1.249 . S
C378 C372 1.516 . S
C379 O363 1.254 . S
C379 O364 1.257 . S
C380 O365 1.266 . S
C380 O366 1.236 . S
C381 C384 1.344 . S
C381 C385 1.328 . S
C381 C387 1.516 . S
C382 C383 1.304 . S
C382 C386 1.323 . S
C383 C382 1.304 . S
C383 C384 1.371 . S
C383 H392 0.930 . S
C384 C381 1.344 . S
C384 C383 1.371 . S
C384 H393 0.931 . S
C385 C381 1.328 . S
C385 C386 1.433 . S
C385 H394 0.931 . S
C386 C382 1.323 . S
C386 C385 1.433 . S
C386 H395 0.933 . S
C387 Dy357 2.738 . S
C387 O367 1.255 . S
C387 O368 1.249 . S
C387 C381 1.516 . S
H388 C374 0.930 . S
H389 C375 0.931 . S
H390 C376 0.931 . S
H391 C377 0.933 . S
H392 C383 0.930 . S
H393 C384 0.931 . S
H394 C385 0.931 . S
H395 C386 0.933 . S
Dy396 O399 2.307 . S
Dy396 O401 2.395 . S
Dy396 O402 2.379 . S
Dy396 O404 2.339 . S
Dy396 O406 2.298 . S
Dy396 O410 2.275 . S
Dy396 C418 2.738 . S
Dy397 O400 2.298 . S
Dy397 O403 2.275 . S
Dy397 O405 2.307 . S
Dy397 O407 2.395 . S
Dy397 O408 2.379 . S
Dy397 O411 2.339 . S
Dy397 C427 2.738 . S
C398 O410 1.254 . S
C398 O411 1.257 . S
O399 Dy396 2.307 . S
O399 C409 1.266 . S
O400 Dy397 2.298 . S
O400 C409 1.236 . S
O401 Dy396 2.395 . S
O401 C418 1.255 . S
O402 Dy396 2.379 . S
O402 C418 1.249 . S
O403 Dy397 2.275 . S
O403 C419 1.254 . S
O404 Dy396 2.339 . S
O404 C419 1.257 . S
O405 Dy397 2.307 . S
O405 C420 1.266 . S
O406 Dy396 2.298 . S
O406 C420 1.236 . S
O407 Dy397 2.395 . S
O407 C427 1.255 . S
O408 Dy397 2.379 . S
O408 C427 1.249 . S
C409 O399 1.266 . S
C409 O400 1.236 . S
O410 Dy396 2.275 . S
O410 C398 1.254 . S
O411 Dy397 2.339 . S
O411 C398 1.257 . S
C412 C415 1.344 . S
C412 C416 1.328 . S
C412 C418 1.516 . S
C413 C414 1.304 . S
C413 C417 1.323 . S
C414 C413 1.304 . S
C414 C415 1.371 . S
C414 H428 0.930 . S
C415 C412 1.344 . S
C415 C414 1.371 . S
C415 H429 0.931 . S
C416 C412 1.328 . S
C416 C417 1.433 . S
C416 H430 0.931 . S
C417 C413 1.323 . S
C417 C416 1.433 . S
C417 H431 0.933 . S
C418 Dy396 2.738 . S
C418 O401 1.255 . S
C418 O402 1.249 . S
C418 C412 1.516 . S
C419 O403 1.254 . S
C419 O404 1.257 . S
C420 O405 1.266 . S
C420 O406 1.236 . S
C421 C424 1.344 . S
C421 C425 1.328 . S
C421 C427 1.516 . S
C422 C423 1.304 . S
C422 C426 1.323 . S
C423 C422 1.304 . S
C423 C424 1.371 . S
C423 H432 0.930 . S
C424 C421 1.344 . S
C424 C423 1.371 . S
C424 H433 0.931 . S
C425 C421 1.328 . S
C425 C426 1.433 . S
C425 H434 0.931 . S
C426 C422 1.323 . S
C426 C425 1.433 . S
C426 H435 0.933 . S
C427 Dy397 2.738 . S
C427 O407 1.255 . S
C427 O408 1.249 . S
C427 C421 1.516 . S
H428 C414 0.930 . S
H429 C415 0.931 . S
H430 C416 0.931 . S
H431 C417 0.933 . S
H432 C423 0.930 . S
H433 C424 0.931 . S
H434 C425 0.931 . S
H435 C426 0.933 . S
Dy436 O439 2.307 . S
Dy436 O441 2.395 . S
Dy436 O442 2.379 . S
Dy436 O444 2.339 . S
Dy436 O446 2.298 . S
Dy436 O450 2.275 . S
Dy436 C458 2.738 . S
Dy437 O440 2.298 . S
Dy437 O443 2.275 . S
Dy437 O445 2.307 . S
Dy437 O447 2.395 . S
Dy437 O448 2.379 . S
Dy437 O451 2.339 . S
Dy437 C467 2.738 . S
C438 O450 1.254 . S
C438 O451 1.257 . S
O439 Dy436 2.307 . S
O439 C449 1.266 . S
O440 Dy437 2.298 . S
O440 C449 1.236 . S
O441 Dy436 2.395 . S
O441 C458 1.255 . S
O442 Dy436 2.379 . S
O442 C458 1.249 . S
O443 Dy437 2.275 . S
O443 C459 1.254 . S
O444 Dy436 2.339 . S
O444 C459 1.257 . S
O445 Dy437 2.307 . S
O445 C460 1.266 . S
O446 Dy436 2.298 . S
O446 C460 1.236 . S
O447 Dy437 2.395 . S
O447 C467 1.255 . S
O448 Dy437 2.379 . S
O448 C467 1.249 . S
C449 O439 1.266 . S
C449 O440 1.236 . S
O450 Dy436 2.275 . S
O450 C438 1.254 . S
O451 Dy437 2.339 . S
O451 C438 1.257 . S
C452 C455 1.344 . S
C452 C456 1.328 . S
C452 C458 1.516 . S
C453 C454 1.304 . S
C453 C457 1.323 . S
C454 C453 1.304 . S
C454 C455 1.371 . S
C454 H468 0.930 . S
C455 C452 1.344 . S
C455 C454 1.371 . S
C455 H469 0.931 . S
C456 C452 1.328 . S
C456 C457 1.433 . S
C456 H470 0.931 . S
C457 C453 1.323 . S
C457 C456 1.433 . S
C457 H471 0.933 . S
C458 Dy436 2.738 . S
C458 O441 1.255 . S
C458 O442 1.249 . S
C458 C452 1.516 . S
C459 O443 1.254 . S
C459 O444 1.257 . S
C460 O445 1.266 . S
C460 O446 1.236 . S
C461 C464 1.344 . S
C461 C465 1.328 . S
C461 C467 1.516 . S
C462 C463 1.304 . S
C462 C466 1.323 . S
C463 C462 1.304 . S
C463 C464 1.371 . S
C463 H472 0.930 . S
C464 C461 1.344 . S
C464 C463 1.371 . S
C464 H473 0.931 . S
C465 C461 1.328 . S
C465 C466 1.433 . S
C465 H474 0.931 . S
C466 C462 1.323 . S
C466 C465 1.433 . S
C466 H475 0.933 . S
C467 Dy437 2.738 . S
C467 O447 1.255 . S
C467 O448 1.249 . S
C467 C461 1.516 . S
H468 C454 0.930 . S
H469 C455 0.931 . S
H470 C456 0.931 . S
H471 C457 0.933 . S
H472 C463 0.930 . S
H473 C464 0.931 . S
H474 C465 0.931 . S
H475 C466 0.933 . S
Dy476 O479 2.307 . S
Dy476 O481 2.395 . S
Dy476 O482 2.379 . S
Dy476 O484 2.339 . S
Dy476 O486 2.298 . S
Dy476 O490 2.275 . S
Dy476 C498 2.738 . S
Dy477 O480 2.298 . S
Dy477 O483 2.275 . S
Dy477 O485 2.307 . S
Dy477 O487 2.395 . S
Dy477 O488 2.379 . S
Dy477 O491 2.339 . S
Dy477 C507 2.738 . S
C478 O490 1.254 . S
C478 O491 1.257 . S
O479 Dy476 2.307 . S
O479 C489 1.266 . S
O480 Dy477 2.298 . S
O480 C489 1.236 . S
O481 Dy476 2.395 . S
O481 C498 1.255 . S
O482 Dy476 2.379 . S
O482 C498 1.249 . S
O483 Dy477 2.275 . S
O483 C499 1.254 . S
O484 Dy476 2.339 . S
O484 C499 1.257 . S
O485 Dy477 2.307 . S
O485 C500 1.266 . S
O486 Dy476 2.298 . S
O486 C500 1.236 . S
O487 Dy477 2.395 . S
O487 C507 1.255 . S
O488 Dy477 2.379 . S
O488 C507 1.249 . S
C489 O479 1.266 . S
C489 O480 1.236 . S
O490 Dy476 2.275 . S
O490 C478 1.254 . S
O491 Dy477 2.339 . S
O491 C478 1.257 . S
C492 C495 1.344 . S
C492 C496 1.328 . S
C492 C498 1.516 . S
C493 C494 1.304 . S
C493 C497 1.323 . S
C494 C493 1.304 . S
C494 C495 1.371 . S
C494 H508 0.930 . S
C495 C492 1.344 . S
C495 C494 1.371 . S
C495 H509 0.931 . S
C496 C492 1.328 . S
C496 C497 1.433 . S
C496 H510 0.931 . S
C497 C493 1.323 . S
C497 C496 1.433 . S
C497 H511 0.933 . S
C498 Dy476 2.738 . S
C498 O481 1.255 . S
C498 O482 1.249 . S
C498 C492 1.516 . S
C499 O483 1.254 . S
C499 O484 1.257 . S
C500 O485 1.266 . S
C500 O486 1.236 . S
C501 C504 1.344 . S
C501 C505 1.328 . S
C501 C507 1.516 . S
C502 C503 1.304 . S
C502 C506 1.323 . S
C503 C502 1.304 . S
C503 C504 1.371 . S
C503 H512 0.930 . S
C504 C501 1.344 . S
C504 C503 1.371 . S
C504 H513 0.931 . S
C505 C501 1.328 . S
C505 C506 1.433 . S
C505 H514 0.931 . S
C506 C502 1.323 . S
C506 C505 1.433 . S
C506 H515 0.933 . S
C507 Dy477 2.738 . S
C507 O487 1.255 . S
C507 O488 1.249 . S
C507 C501 1.516 . S
H508 C494 0.930 . S
H509 C495 0.931 . S
H510 C496 0.931 . S
H511 C497 0.933 . S
H512 C503 0.930 . S
H513 C504 0.931 . S
H514 C505 0.931 . S
H515 C506 0.933 . S
Dy516 O519 2.307 . S
Dy516 O521 2.395 . S
Dy516 O522 2.379 . S
Dy516 O524 2.339 . S
Dy516 O526 2.298 . S
Dy516 O530 2.275 . S
Dy516 C538 2.738 . S
Dy517 O520 2.298 . S
Dy517 O523 2.275 . S
Dy517 O525 2.307 . S
Dy517 O527 2.395 . S
Dy517 O528 2.379 . S
Dy517 O531 2.339 . S
Dy517 C547 2.738 . S
C518 O530 1.254 . S
C518 O531 1.257 . S
O519 Dy516 2.307 . S
O519 C529 1.266 . S
O520 Dy517 2.298 . S
O520 C529 1.236 . S
O521 Dy516 2.395 . S
O521 C538 1.255 . S
O522 Dy516 2.379 . S
O522 C538 1.249 . S
O523 Dy517 2.275 . S
O523 C539 1.254 . S
O524 Dy516 2.339 . S
O524 C539 1.257 . S
O525 Dy517 2.307 . S
O525 C540 1.266 . S
O526 Dy516 2.298 . S
O526 C540 1.236 . S
O527 Dy517 2.395 . S
O527 C547 1.255 . S
O528 Dy517 2.379 . S
O528 C547 1.249 . S
C529 O519 1.266 . S
C529 O520 1.236 . S
O530 Dy516 2.275 . S
O530 C518 1.254 . S
O531 Dy517 2.339 . S
O531 C518 1.257 . S
C532 C535 1.344 . S
C532 C536 1.328 . S
C532 C538 1.516 . S
C533 C534 1.304 . S
C533 C537 1.323 . S
C534 C533 1.304 . S
C534 C535 1.371 . S
C534 H548 0.930 . S
C535 C532 1.344 . S
C535 C534 1.371 . S
C535 H549 0.931 . S
C536 C532 1.328 . S
C536 C537 1.433 . S
C536 H550 0.931 . S
C537 C533 1.323 . S
C537 C536 1.433 . S
C537 H551 0.933 . S
C538 Dy516 2.738 . S
C538 O521 1.255 . S
C538 O522 1.249 . S
C538 C532 1.516 . S
C539 O523 1.254 . S
C539 O524 1.257 . S
C540 O525 1.266 . S
C540 O526 1.236 . S
C541 C544 1.344 . S
C541 C545 1.328 . S
C541 C547 1.516 . S
C542 C543 1.304 . S
C542 C546 1.323 . S
C543 C542 1.304 . S
C543 C544 1.371 . S
C543 H552 0.930 . S
C544 C541 1.344 . S
C544 C543 1.371 . S
C544 H553 0.931 . S
C545 C541 1.328 . S
C545 C546 1.433 . S
C545 H554 0.931 . S
C546 C542 1.323 . S
C546 C545 1.433 . S
C546 H555 0.933 . S
C547 Dy517 2.738 . S
C547 O527 1.255 . S
C547 O528 1.249 . S
C547 C541 1.516 . S
H548 C534 0.930 . S
H549 C535 0.931 . S
H550 C536 0.931 . S
H551 C537 0.933 . S
H552 C543 0.930 . S
H553 C544 0.931 . S
H554 C545 0.931 . S
H555 C546 0.933 . S
Dy556 O559 2.307 . S
Dy556 O561 2.395 . S
Dy556 O562 2.379 . S
Dy556 O564 2.339 . S
Dy556 O566 2.298 . S
Dy556 O570 2.275 . S
Dy556 C578 2.738 . S
Dy557 O560 2.298 . S
Dy557 O563 2.275 . S
Dy557 O565 2.307 . S
Dy557 O567 2.395 . S
Dy557 O568 2.379 . S
Dy557 O571 2.339 . S
Dy557 C587 2.738 . S
C558 O570 1.254 . S
C558 O571 1.257 . S
O559 Dy556 2.307 . S
O559 C569 1.266 . S
O560 Dy557 2.298 . S
O560 C569 1.236 . S
O561 Dy556 2.395 . S
O561 C578 1.255 . S
O562 Dy556 2.379 . S
O562 C578 1.249 . S
O563 Dy557 2.275 . S
O563 C579 1.254 . S
O564 Dy556 2.339 . S
O564 C579 1.257 . S
O565 Dy557 2.307 . S
O565 C580 1.266 . S
O566 Dy556 2.298 . S
O566 C580 1.236 . S
O567 Dy557 2.395 . S
O567 C587 1.255 . S
O568 Dy557 2.379 . S
O568 C587 1.249 . S
C569 O559 1.266 . S
C569 O560 1.236 . S
O570 Dy556 2.275 . S
O570 C558 1.254 . S
O571 Dy557 2.339 . S
O571 C558 1.257 . S
C572 C575 1.344 . S
C572 C576 1.328 . S
C572 C578 1.516 . S
C573 C574 1.304 . S
C573 C577 1.323 . S
C574 C573 1.304 . S
C574 C575 1.371 . S
C574 H588 0.930 . S
C575 C572 1.344 . S
C575 C574 1.371 . S
C575 H589 0.931 . S
C576 C572 1.328 . S
C576 C577 1.433 . S
C576 H590 0.931 . S
C577 C573 1.323 . S
C577 C576 1.433 . S
C577 H591 0.933 . S
C578 Dy556 2.738 . S
C578 O561 1.255 . S
C578 O562 1.249 . S
C578 C572 1.516 . S
C579 O563 1.254 . S
C579 O564 1.257 . S
C580 O565 1.266 . S
C580 O566 1.236 . S
C581 C584 1.344 . S
C581 C585 1.328 . S
C581 C587 1.516 . S
C582 C583 1.304 . S
C582 C586 1.323 . S
C583 C582 1.304 . S
C583 C584 1.371 . S
C583 H592 0.930 . S
C584 C581 1.344 . S
C584 C583 1.371 . S
C584 H593 0.931 . S
C585 C581 1.328 . S
C585 C586 1.433 . S
C585 H594 0.931 . S
C586 C582 1.323 . S
C586 C585 1.433 . S
C586 H595 0.933 . S
C587 Dy557 2.738 . S
C587 O567 1.255 . S
C587 O568 1.249 . S
C587 C581 1.516 . S
H588 C574 0.930 . S
H589 C575 0.931 . S
H590 C576 0.931 . S
H591 C577 0.933 . S
H592 C583 0.930 . S
H593 C584 0.931 . S
H594 C585 0.931 . S
H595 C586 0.933 . S
H596 C614 0.951 . S
H597 C616 0.951 . S
H598 C618 0.950 . S
H599 C619 0.950 . S
H600 C621 0.950 . S
H601 C624 0.950 . S
H602 C625 0.950 . S
H603 C627 0.950 . S
H604 C628 0.950 . S
H605 C629 0.951 . S
H606 C631 0.951 . S
H607 C633 0.950 . S
H608 C634 0.950 . S
H609 C636 0.950 . S
H610 C639 0.950 . S
H611 C640 0.950 . S
H612 C642 0.950 . S
H613 C643 0.950 . S
C614 H596 0.951 . S
C614 C615 1.366 . S
C614 C616 1.388 . S
C615 C614 1.366 . S
C615 C619 1.385 . S
C616 H597 0.951 . S
C616 C614 1.388 . S
C616 C617 1.366 . S
C617 C616 1.366 . S
C617 C618 1.414 . S
C617 C620 1.499 . S
C618 H598 0.950 . S
C618 C617 1.414 . S
C618 C619 1.374 . S
C619 H599 0.950 . S
C619 C615 1.385 . S
C619 C618 1.374 . S
C620 C617 1.499 . S
C620 C621 1.373 . S
C620 C622 1.389 . S
C621 H600 0.950 . S
C621 C620 1.373 . S
C621 C637 1.377 . S
C622 C620 1.389 . S
C622 C623 1.524 . S
C622 C636 1.377 . S
C623 C622 1.524 . S
C623 C624 1.397 . S
C623 C628 1.363 . S
C624 H601 0.950 . S
C624 C623 1.397 . S
C624 C625 1.334 . S
C625 H602 0.950 . S
C625 C624 1.334 . S
C625 C626 1.287 . S
C626 C625 1.287 . S
C626 C627 1.524 . S
C626 H645 0.913 . S
C627 H603 0.950 . S
C627 C626 1.524 . S
C627 C628 1.415 . S
C628 H604 0.950 . S
C628 C623 1.363 . S
C628 C627 1.415 . S
C629 H605 0.951 . S
C629 C630 1.366 . S
C629 C631 1.388 . S
C630 C629 1.366 . S
C630 C634 1.385 . S
C631 H606 0.951 . S
C631 C629 1.388 . S
C631 C632 1.366 . S
C632 C631 1.366 . S
C632 C633 1.414 . S
C632 C635 1.499 . S
C633 H607 0.950 . S
C633 C632 1.414 . S
C633 C634 1.374 . S
C634 H608 0.950 . S
C634 C630 1.385 . S
C634 C633 1.374 . S
C635 C632 1.499 . S
C635 C636 1.373 . S
C635 C637 1.389 . S
C636 H609 0.950 . S
C636 C622 1.377 . S
C636 C635 1.373 . S
C637 C621 1.377 . S
C637 C635 1.389 . S
C637 C638 1.524 . S
C638 C637 1.524 . S
C638 C639 1.397 . S
C638 C643 1.363 . S
C639 H610 0.950 . S
C639 C638 1.397 . S
C639 C640 1.334 . S
C640 H611 0.950 . S
C640 C639 1.334 . S
C640 C641 1.287 . S
C641 C640 1.287 . S
C641 C642 1.524 . S
C641 H644 0.999 . S
C642 H612 0.950 . S
C642 C641 1.524 . S
C642 C643 1.415 . S
C643 H613 0.950 . S
C643 C638 1.363 . S
C643 C642 1.415 . S
H644 C641 0.999 . S
H645 C626 0.913 . S
H646 C664 0.951 . S
H647 C666 0.951 . S
H648 C668 0.950 . S
H649 C669 0.950 . S
H650 C671 0.950 . S
H651 C674 0.950 . S
H652 C675 0.950 . S
H653 C677 0.950 . S
H654 C678 0.950 . S
H655 C679 0.951 . S
H656 C681 0.951 . S
H657 C683 0.950 . S
H658 C684 0.950 . S
H659 C686 0.950 . S
H660 C689 0.950 . S
H661 C690 0.950 . S
H662 C692 0.950 . S
H663 C693 0.950 . S
C664 H646 0.951 . S
C664 C665 1.366 . S
C664 C666 1.388 . S
C665 C664 1.366 . S
C665 C669 1.385 . S
C666 H647 0.951 . S
C666 C664 1.388 . S
C666 C667 1.366 . S
C667 C666 1.366 . S
C667 C668 1.414 . S
C667 C670 1.499 . S
C668 H648 0.950 . S
C668 C667 1.414 . S
C668 C669 1.374 . S
C669 H649 0.950 . S
C669 C665 1.385 . S
C669 C668 1.374 . S
C670 C667 1.499 . S
C670 C671 1.373 . S
C670 C672 1.389 . S
C671 H650 0.950 . S
C671 C670 1.373 . S
C671 C687 1.377 . S
C672 C670 1.389 . S
C672 C673 1.524 . S
C672 C686 1.377 . S
C673 C672 1.524 . S
C673 C674 1.397 . S
C673 C678 1.363 . S
C674 H651 0.950 . S
C674 C673 1.397 . S
C674 C675 1.334 . S
C675 H652 0.950 . S
C675 C674 1.334 . S
C675 C676 1.287 . S
C676 C675 1.287 . S
C676 C677 1.524 . S
C676 H695 0.913 . S
C677 H653 0.950 . S
C677 C676 1.524 . S
C677 C678 1.415 . S
C678 H654 0.950 . S
C678 C673 1.363 . S
C678 C677 1.415 . S
C679 H655 0.951 . S
C679 C680 1.366 . S
C679 C681 1.388 . S
C680 C679 1.366 . S
C680 C684 1.385 . S
C681 H656 0.951 . S
C681 C679 1.388 . S
C681 C682 1.366 . S
C682 C681 1.366 . S
C682 C683 1.414 . S
C682 C685 1.499 . S
C683 H657 0.950 . S
C683 C682 1.414 . S
C683 C684 1.374 . S
C684 H658 0.950 . S
C684 C680 1.385 . S
C684 C683 1.374 . S
C685 C682 1.499 . S
C685 C686 1.373 . S
C685 C687 1.389 . S
C686 H659 0.950 . S
C686 C672 1.377 . S
C686 C685 1.373 . S
C687 C671 1.377 . S
C687 C685 1.389 . S
C687 C688 1.524 . S
C688 C687 1.524 . S
C688 C689 1.397 . S
C688 C693 1.363 . S
C689 H660 0.950 . S
C689 C688 1.397 . S
C689 C690 1.334 . S
C690 H661 0.950 . S
C690 C689 1.334 . S
C690 C691 1.287 . S
C691 C690 1.287 . S
C691 C692 1.524 . S
C691 H694 0.999 . S
C692 H662 0.950 . S
C692 C691 1.524 . S
C692 C693 1.415 . S
C693 H663 0.950 . S
C693 C688 1.363 . S
C693 C692 1.415 . S
H694 C691 0.999 . S
H695 C676 0.913 . S
H696 C714 0.951 . S
H697 C716 0.951 . S
H698 C718 0.950 . S
H699 C719 0.950 1_455 S
H700 C721 0.950 . S
H701 C724 0.950 . S
H702 C725 0.950 . S
H703 C727 0.950 . S
H704 C728 0.950 . S
H705 C729 0.951 . S
H706 C731 0.951 . S
H707 C733 0.950 . S
H708 C734 0.950 . S
H709 C736 0.950 . S
H710 C739 0.950 . S
H711 C740 0.950 . S
H712 C742 0.950 . S
H713 C743 0.950 . S
C714 H696 0.951 . S
C714 C715 1.366 . S
C714 C716 1.388 . S
C715 C714 1.366 . S
C715 C719 1.385 . S
C716 H697 0.951 . S
C716 C714 1.388 . S
C716 C717 1.366 . S
C717 C716 1.366 . S
C717 C718 1.414 . S
C717 C720 1.499 . S
C718 H698 0.950 . S
C718 C717 1.414 . S
C718 C719 1.374 . S
C719 H699 0.950 1_655 S
C719 C715 1.385 . S
C719 C718 1.374 . S
C720 C717 1.499 . S
C720 C721 1.373 . S
C720 C722 1.389 . S
C721 H700 0.950 . S
C721 C720 1.373 . S
C721 C737 1.377 . S
C722 C720 1.389 . S
C722 C723 1.524 . S
C722 C736 1.377 . S
C723 C722 1.524 . S
C723 C724 1.397 . S
C723 C728 1.363 . S
C724 H701 0.950 . S
C724 C723 1.397 . S
C724 C725 1.334 . S
C725 H702 0.950 . S
C725 C724 1.334 . S
C725 C726 1.287 . S
C726 C725 1.287 . S
C726 C727 1.524 . S
C726 H745 0.913 . S
C727 H703 0.950 . S
C727 C726 1.524 . S
C727 C728 1.415 . S
C728 H704 0.950 . S
C728 C723 1.363 . S
C728 C727 1.415 . S
C729 H705 0.951 . S
C729 C730 1.366 . S
C729 C731 1.388 . S
C730 C729 1.366 . S
C730 C734 1.385 . S
C731 H706 0.951 . S
C731 C729 1.388 . S
C731 C732 1.366 . S
C732 C731 1.366 . S
C732 C733 1.414 . S
C732 C735 1.499 . S
C733 H707 0.950 . S
C733 C732 1.414 . S
C733 C734 1.374 . S
C734 H708 0.950 . S
C734 C730 1.385 . S
C734 C733 1.374 . S
C735 C732 1.499 . S
C735 C736 1.373 . S
C735 C737 1.389 . S
C736 H709 0.950 . S
C736 C722 1.377 . S
C736 C735 1.373 . S
C737 C721 1.377 . S
C737 C735 1.389 . S
C737 C738 1.524 . S
C738 C737 1.524 . S
C738 C739 1.397 . S
C738 C743 1.363 . S
C739 H710 0.950 . S
C739 C738 1.397 . S
C739 C740 1.334 . S
C740 H711 0.950 . S
C740 C739 1.334 . S
C740 C741 1.287 . S
C741 C740 1.287 . S
C741 C742 1.524 . S
C741 H744 0.999 . S
C742 H712 0.950 . S
C742 C741 1.524 . S
C742 C743 1.415 . S
C743 H713 0.950 . S
C743 C738 1.363 . S
C743 C742 1.415 . S
H744 C741 0.999 . S
H745 C726 0.913 . S
H746 C764 0.951 . S
H747 C766 0.951 . S
H748 C768 0.950 . S
H749 C769 0.950 . S
H750 C771 0.950 . S
H751 C774 0.950 . S
H752 C775 0.950 . S
H753 C777 0.950 . S
H754 C778 0.950 . S
H755 C779 0.951 . S
H756 C781 0.951 . S
H757 C783 0.950 . S
H758 C784 0.950 . S
H759 C786 0.950 . S
H760 C789 0.950 . S
H761 C790 0.950 . S
H762 C792 0.950 . S
H763 C793 0.950 . S
C764 H746 0.951 . S
C764 C765 1.366 . S
C764 C766 1.388 . S
C765 C764 1.366 . S
C765 C769 1.385 . S
C766 H747 0.951 . S
C766 C764 1.388 . S
C766 C767 1.366 . S
C767 C766 1.366 . S
C767 C768 1.414 . S
C767 C770 1.499 . S
C768 H748 0.950 . S
C768 C767 1.414 . S
C768 C769 1.374 . S
C769 H749 0.950 . S
C769 C765 1.385 . S
C769 C768 1.374 . S
C770 C767 1.499 . S
C770 C771 1.373 . S
C770 C772 1.389 . S
C771 H750 0.950 . S
C771 C770 1.373 . S
C771 C787 1.377 . S
C772 C770 1.389 . S
C772 C773 1.524 . S
C772 C786 1.377 . S
C773 C772 1.524 . S
C773 C774 1.397 . S
C773 C778 1.363 . S
C774 H751 0.950 . S
C774 C773 1.397 . S
C774 C775 1.334 . S
C775 H752 0.950 . S
C775 C774 1.334 . S
C775 C776 1.287 . S
C776 C775 1.287 . S
C776 C777 1.524 . S
C776 H795 0.913 . S
C777 H753 0.950 . S
C777 C776 1.524 . S
C777 C778 1.415 . S
C778 H754 0.950 . S
C778 C773 1.363 . S
C778 C777 1.415 . S
C779 H755 0.951 . S
C779 C780 1.366 . S
C779 C781 1.388 . S
C780 C779 1.366 . S
C780 C784 1.385 . S
C781 H756 0.951 . S
C781 C779 1.388 . S
C781 C782 1.366 . S
C782 C781 1.366 . S
C782 C783 1.414 . S
C782 C785 1.499 . S
C783 H757 0.950 . S
C783 C782 1.414 . S
C783 C784 1.374 . S
C784 H758 0.950 . S
C784 C780 1.385 . S
C784 C783 1.374 . S
C785 C782 1.499 . S
C785 C786 1.373 . S
C785 C787 1.389 . S
C786 H759 0.950 . S
C786 C772 1.377 . S
C786 C785 1.373 . S
C787 C771 1.377 . S
C787 C785 1.389 . S
C787 C788 1.524 . S
C788 C787 1.524 . S
C788 C789 1.397 . S
C788 C793 1.363 . S
C789 H760 0.950 . S
C789 C788 1.397 . S
C789 C790 1.334 . S
C790 H761 0.950 . S
C790 C789 1.334 . S
C790 C791 1.287 . S
C791 C790 1.287 . S
C791 C792 1.524 . S
C791 H794 0.999 . S
C792 H762 0.950 . S
C792 C791 1.524 . S
C792 C793 1.415 . S
C793 H763 0.950 . S
C793 C788 1.363 . S
C793 C792 1.415 . S
H794 C791 0.999 . S
H795 C776 0.913 . S
H796 C814 0.951 . S
H797 C816 0.951 . S
H798 C818 0.950 . S
H799 C819 0.950 . S
H800 C821 0.950 . S
H801 C824 0.950 . S
H802 C825 0.950 . S
H803 C827 0.950 . S
H804 C828 0.950 . S
H805 C829 0.951 . S
H806 C831 0.951 . S
H807 C833 0.950 . S
H808 C834 0.950 . S
H809 C836 0.950 . S
H810 C839 0.950 . S
H811 C840 0.950 . S
H812 C842 0.950 . S
H813 C843 0.950 . S
C814 H796 0.951 . S
C814 C815 1.366 . S
C814 C816 1.388 . S
C815 C814 1.366 . S
C815 C819 1.385 . S
C816 H797 0.951 . S
C816 C814 1.388 . S
C816 C817 1.366 . S
C817 C816 1.366 . S
C817 C818 1.414 . S
C817 C820 1.499 . S
C818 H798 0.950 . S
C818 C817 1.414 . S
C818 C819 1.374 . S
C819 H799 0.950 . S
C819 C815 1.385 . S
C819 C818 1.374 . S
C820 C817 1.499 . S
C820 C821 1.373 . S
C820 C822 1.389 . S
C821 H800 0.950 . S
C821 C820 1.373 . S
C821 C837 1.377 . S
C822 C820 1.389 . S
C822 C823 1.524 . S
C822 C836 1.377 . S
C823 C822 1.524 . S
C823 C824 1.397 . S
C823 C828 1.363 . S
C824 H801 0.950 . S
C824 C823 1.397 . S
C824 C825 1.334 . S
C825 H802 0.950 . S
C825 C824 1.334 . S
C825 C826 1.287 . S
C826 C825 1.287 . S
C826 C827 1.524 . S
C826 H845 0.913 . S
C827 H803 0.950 . S
C827 C826 1.524 . S
C827 C828 1.415 . S
C828 H804 0.950 . S
C828 C823 1.363 . S
C828 C827 1.415 . S
C829 H805 0.951 . S
C829 C830 1.366 . S
C829 C831 1.388 . S
C830 C829 1.366 . S
C830 C834 1.385 . S
C831 H806 0.951 . S
C831 C829 1.388 . S
C831 C832 1.366 . S
C832 C831 1.366 . S
C832 C833 1.414 . S
C832 C835 1.499 . S
C833 H807 0.950 . S
C833 C832 1.414 . S
C833 C834 1.374 . S
C834 H808 0.950 . S
C834 C830 1.385 . S
C834 C833 1.374 . S
C835 C832 1.499 . S
C835 C836 1.373 . S
C835 C837 1.389 . S
C836 H809 0.950 . S
C836 C822 1.377 . S
C836 C835 1.373 . S
C837 C821 1.377 . S
C837 C835 1.389 . S
C837 C838 1.524 . S
C838 C837 1.524 . S
C838 C839 1.397 . S
C838 C843 1.363 . S
C839 H810 0.950 . S
C839 C838 1.397 . S
C839 C840 1.334 . S
C840 H811 0.950 . S
C840 C839 1.334 . S
C840 C841 1.287 . S
C841 C840 1.287 . S
C841 C842 1.524 . S
C841 H844 0.999 . S
C842 H812 0.950 . S
C842 C841 1.524 . S
C842 C843 1.415 . S
C843 H813 0.950 . S
C843 C838 1.363 . S
C843 C842 1.415 . S
H844 C841 0.999 . S
H845 C826 0.913 . S
H846 C864 0.951 . S
H847 C866 0.951 . S
H848 C868 0.950 . S
H849 C869 0.950 . S
H850 C871 0.950 . S
H851 C874 0.950 . S
H852 C875 0.950 . S
H853 C877 0.950 . S
H854 C878 0.950 . S
H855 C879 0.951 . S
H856 C881 0.951 . S
H857 C883 0.950 . S
H858 C884 0.950 . S
H859 C886 0.950 . S
H860 C889 0.950 . S
H861 C890 0.950 . S
H862 C892 0.950 . S
H863 C893 0.950 . S
C864 H846 0.951 . S
C864 C865 1.366 . S
C864 C866 1.388 . S
C865 C864 1.366 . S
C865 C869 1.385 . S
C866 H847 0.951 . S
C866 C864 1.388 . S
C866 C867 1.366 . S
C867 C866 1.366 . S
C867 C868 1.414 . S
C867 C870 1.499 . S
C868 H848 0.950 . S
C868 C867 1.414 . S
C868 C869 1.374 . S
C869 H849 0.950 . S
C869 C865 1.385 . S
C869 C868 1.374 . S
C870 C867 1.499 . S
C870 C871 1.373 . S
C870 C872 1.389 . S
C871 H850 0.950 . S
C871 C870 1.373 . S
C871 C887 1.377 . S
C872 C870 1.389 . S
C872 C873 1.524 . S
C872 C886 1.377 . S
C873 C872 1.524 . S
C873 C874 1.397 . S
C873 C878 1.363 . S
C874 H851 0.950 . S
C874 C873 1.397 . S
C874 C875 1.334 . S
C875 H852 0.950 . S
C875 C874 1.334 . S
C875 C876 1.287 . S
C876 C875 1.287 . S
C876 C877 1.524 . S
C876 H895 0.913 . S
C877 H853 0.950 . S
C877 C876 1.524 . S
C877 C878 1.415 . S
C878 H854 0.950 . S
C878 C873 1.363 . S
C878 C877 1.415 . S
C879 H855 0.951 . S
C879 C880 1.366 . S
C879 C881 1.388 . S
C880 C879 1.366 . S
C880 C884 1.385 . S
C881 H856 0.951 . S
C881 C879 1.388 . S
C881 C882 1.366 . S
C882 C881 1.366 . S
C882 C883 1.414 . S
C882 C885 1.499 . S
C883 H857 0.950 . S
C883 C882 1.414 . S
C883 C884 1.374 . S
C884 H858 0.950 . S
C884 C880 1.385 . S
C884 C883 1.374 . S
C885 C882 1.499 . S
C885 C886 1.373 . S
C885 C887 1.389 . S
C886 H859 0.950 . S
C886 C872 1.377 . S
C886 C885 1.373 . S
C887 C871 1.377 . S
C887 C885 1.389 . S
C887 C888 1.524 . S
C888 C887 1.524 . S
C888 C889 1.397 . S
C888 C893 1.363 . S
C889 H860 0.950 . S
C889 C888 1.397 . S
C889 C890 1.334 . S
C890 H861 0.950 . S
C890 C889 1.334 . S
C890 C891 1.287 . S
C891 C890 1.287 . S
C891 C892 1.524 . S
C891 H894 0.999 . S
C892 H862 0.950 . S
C892 C891 1.524 . S
C892 C893 1.415 . S
C893 H863 0.950 . S
C893 C888 1.363 . S
C893 C892 1.415 . S
H894 C891 0.999 . S
H895 C876 0.913 . S
H896 C914 0.951 . S
H897 C916 0.951 . S
H898 C918 0.950 . S
H899 C919 0.950 . S
H900 C921 0.950 . S
H901 C924 0.950 . S
H902 C925 0.950 . S
H903 C927 0.950 . S
H904 C928 0.950 . S
H905 C929 0.951 . S
H906 C931 0.951 . S
H907 C933 0.950 . S
H908 C934 0.950 . S
H909 C936 0.950 . S
H910 C939 0.950 . S
H911 C940 0.950 . S
H912 C942 0.950 . S
H913 C943 0.950 . S
C914 H896 0.951 . S
C914 C915 1.366 . S
C914 C916 1.388 . S
C915 C914 1.366 . S
C915 C919 1.385 . S
C916 H897 0.951 . S
C916 C914 1.388 . S
C916 C917 1.366 . S
C917 C916 1.366 . S
C917 C918 1.414 . S
C917 C920 1.499 . S
C918 H898 0.950 . S
C918 C917 1.414 . S
C918 C919 1.374 . S
C919 H899 0.950 . S
C919 C915 1.385 . S
C919 C918 1.374 . S
C920 C917 1.499 . S
C920 C921 1.373 . S
C920 C922 1.389 . S
C921 H900 0.950 . S
C921 C920 1.373 . S
C921 C937 1.377 . S
C922 C920 1.389 . S
C922 C923 1.524 . S
C922 C936 1.377 . S
C923 C922 1.524 . S
C923 C924 1.397 . S
C923 C928 1.363 . S
C924 H901 0.950 . S
C924 C923 1.397 . S
C924 C925 1.334 . S
C925 H902 0.950 . S
C925 C924 1.334 . S
C925 C926 1.287 . S
C926 C925 1.287 . S
C926 C927 1.524 . S
C926 H945 0.913 . S
C927 H903 0.950 . S
C927 C926 1.524 . S
C927 C928 1.415 . S
C928 H904 0.950 . S
C928 C923 1.363 . S
C928 C927 1.415 . S
C929 H905 0.951 . S
C929 C930 1.366 . S
C929 C931 1.388 . S
C930 C929 1.366 . S
C930 C934 1.385 . S
C931 H906 0.951 . S
C931 C929 1.388 . S
C931 C932 1.366 . S
C932 C931 1.366 . S
C932 C933 1.414 . S
C932 C935 1.499 . S
C933 H907 0.950 . S
C933 C932 1.414 . S
C933 C934 1.374 . S
C934 H908 0.950 . S
C934 C930 1.385 . S
C934 C933 1.374 . S
C935 C932 1.499 . S
C935 C936 1.373 . S
C935 C937 1.389 . S
C936 H909 0.950 . S
C936 C922 1.377 . S
C936 C935 1.373 . S
C937 C921 1.377 . S
C937 C935 1.389 . S
C937 C938 1.524 . S
C938 C937 1.524 . S
C938 C939 1.397 . S
C938 C943 1.363 . S
C939 H910 0.950 . S
C939 C938 1.397 . S
C939 C940 1.334 . S
C940 H911 0.950 . S
C940 C939 1.334 . S
C940 C941 1.287 . S
C941 C940 1.287 . S
C941 C942 1.524 . S
C941 H944 0.999 . S
C942 H912 0.950 . S
C942 C941 1.524 . S
C942 C943 1.415 . S
C943 H913 0.950 . S
C943 C938 1.363 . S
C943 C942 1.415 . S
H944 C941 0.999 . S
H945 C926 0.913 . S
H946 C964 0.951 . S
H947 C966 0.951 . S
H948 C968 0.950 . S
H949 C969 0.950 1_455 S
H950 C971 0.950 . S
H951 C974 0.950 . S
H952 C975 0.950 1_455 S
H953 C977 0.950 . S
H954 C978 0.950 . S
H955 C979 0.951 . S
H956 C981 0.951 . S
H957 C983 0.950 . S
H958 C984 0.950 . S
H959 C986 0.950 . S
H960 C989 0.950 . S
H961 C990 0.950 . S
H962 C992 0.950 . S
H963 C993 0.950 . S
C964 H946 0.951 . S
C964 C965 1.366 . S
C964 C966 1.388 . S
C965 C964 1.366 . S
C965 C969 1.385 . S
C966 H947 0.951 . S
C966 C964 1.388 . S
C966 C967 1.366 . S
C967 C966 1.366 . S
C967 C968 1.414 . S
C967 C970 1.499 . S
C968 H948 0.950 . S
C968 C967 1.414 . S
C968 C969 1.374 . S
C969 H949 0.950 1_655 S
C969 C965 1.385 . S
C969 C968 1.374 . S
C970 C967 1.499 . S
C970 C971 1.373 . S
C970 C972 1.389 . S
C971 H950 0.950 . S
C971 C970 1.373 . S
C971 C987 1.377 . S
C972 C970 1.389 . S
C972 C973 1.524 . S
C972 C986 1.377 . S
C973 C972 1.524 . S
C973 C974 1.397 . S
C973 C978 1.363 . S
C974 H951 0.950 . S
C974 C973 1.397 . S
C974 C975 1.334 . S
C975 H952 0.950 1_655 S
C975 C974 1.334 . S
C975 C976 1.287 . S
C976 C975 1.287 . S
C976 C977 1.524 . S
C976 H995 0.913 . S
C977 H953 0.950 . S
C977 C976 1.524 . S
C977 C978 1.415 . S
C978 H954 0.950 . S
C978 C973 1.363 . S
C978 C977 1.415 . S
C979 H955 0.951 . S
C979 C980 1.366 . S
C979 C981 1.388 . S
C980 C979 1.366 . S
C980 C984 1.385 . S
C981 H956 0.951 . S
C981 C979 1.388 . S
C981 C982 1.366 . S
C982 C981 1.366 . S
C982 C983 1.414 . S
C982 C985 1.499 . S
C983 H957 0.950 . S
C983 C982 1.414 . S
C983 C984 1.374 . S
C984 H958 0.950 . S
C984 C980 1.385 . S
C984 C983 1.374 . S
C985 C982 1.499 . S
C985 C986 1.373 . S
C985 C987 1.389 . S
C986 H959 0.950 . S
C986 C972 1.377 . S
C986 C985 1.373 . S
C987 C971 1.377 . S
C987 C985 1.389 . S
C987 C988 1.524 . S
C988 C987 1.524 . S
C988 C989 1.397 . S
C988 C993 1.363 . S
C989 H960 0.950 . S
C989 C988 1.397 . S
C989 C990 1.334 . S
C990 H961 0.950 . S
C990 C989 1.334 . S
C990 C991 1.287 . S
C991 C990 1.287 . S
C991 C992 1.524 . S
C991 H994 0.999 . S
C992 H962 0.950 . S
C992 C991 1.524 . S
C992 C993 1.415 . S
C993 H963 0.950 . S
C993 C988 1.363 . S
C993 C992 1.415 . S
H994 C991 0.999 . S
H995 C976 0.913 . S
H996 C1014 0.951 . S
H997 C1016 0.951 . S
H998 C1018 0.950 . S
H999 C1019 0.950 . S
H1000 C1021 0.950 . S
H1001 C1024 0.950 . S
H1002 C1025 0.950 . S
H1003 C1027 0.950 . S
H1004 C1028 0.950 . S
H1005 C1029 0.951 . S
H1006 C1031 0.951 . S
H1007 C1033 0.950 . S
H1008 C1034 0.950 . S
H1009 C1036 0.950 . S
H1010 C1039 0.950 . S
H1011 C1040 0.950 . S
H1012 C1042 0.950 . S
H1013 C1043 0.950 . S
C1014 H996 0.951 . S
C1014 C1015 1.366 . S
C1014 C1016 1.388 . S
C1015 C1014 1.366 . S
C1015 C1019 1.385 . S
C1016 H997 0.951 . S
C1016 C1014 1.388 . S
C1016 C1017 1.366 . S
C1017 C1016 1.366 . S
C1017 C1018 1.414 . S
C1017 C1020 1.499 . S
C1018 H998 0.950 . S
C1018 C1017 1.414 . S
C1018 C1019 1.374 . S
C1019 H999 0.950 . S
C1019 C1015 1.385 . S
C1019 C1018 1.374 . S
C1020 C1017 1.499 . S
C1020 C1021 1.373 . S
C1020 C1022 1.389 . S
C1021 H1000 0.950 . S
C1021 C1020 1.373 . S
C1021 C1037 1.377 . S
C1022 C1020 1.389 . S
C1022 C1023 1.524 . S
C1022 C1036 1.377 . S
C1023 C1022 1.524 . S
C1023 C1024 1.397 . S
C1023 C1028 1.363 . S
C1024 H1001 0.950 . S
C1024 C1023 1.397 . S
C1024 C1025 1.334 . S
C1025 H1002 0.950 . S
C1025 C1024 1.334 . S
C1025 C1026 1.287 . S
C1026 C1025 1.287 . S
C1026 C1027 1.524 . S
C1026 H1045 0.913 . S
C1027 H1003 0.950 . S
C1027 C1026 1.524 . S
C1027 C1028 1.415 . S
C1028 H1004 0.950 . S
C1028 C1023 1.363 . S
C1028 C1027 1.415 . S
C1029 H1005 0.951 . S
C1029 C1030 1.366 . S
C1029 C1031 1.388 . S
C1030 C1029 1.366 . S
C1030 C1034 1.385 . S
C1031 H1006 0.951 . S
C1031 C1029 1.388 . S
C1031 C1032 1.366 . S
C1032 C1031 1.366 . S
C1032 C1033 1.414 . S
C1032 C1035 1.499 . S
C1033 H1007 0.950 . S
C1033 C1032 1.414 . S
C1033 C1034 1.374 . S
C1034 H1008 0.950 . S
C1034 C1030 1.385 . S
C1034 C1033 1.374 . S
C1035 C1032 1.499 . S
C1035 C1036 1.373 . S
C1035 C1037 1.389 . S
C1036 H1009 0.950 . S
C1036 C1022 1.377 . S
C1036 C1035 1.373 . S
C1037 C1021 1.377 . S
C1037 C1035 1.389 . S
C1037 C1038 1.524 . S
C1038 C1037 1.524 . S
C1038 C1039 1.397 . S
C1038 C1043 1.363 . S
C1039 H1010 0.950 . S
C1039 C1038 1.397 . S
C1039 C1040 1.334 . S
C1040 H1011 0.950 . S
C1040 C1039 1.334 . S
C1040 C1041 1.287 . S
C1041 C1040 1.287 . S
C1041 C1042 1.524 . S
C1041 H1044 0.999 . S
C1042 H1012 0.950 . S
C1042 C1041 1.524 . S
C1042 C1043 1.415 . S
C1043 H1013 0.950 . S
C1043 C1038 1.363 . S
C1043 C1042 1.415 . S
H1044 C1041 0.999 . S
H1045 C1026 0.913 . S
H1046 C1064 0.951 . S
H1047 C1066 0.951 . S
H1048 C1068 0.950 . S
H1049 C1069 0.957 . S
H1050 C1071 0.950 . S
H1051 C1074 0.941 1_655 S
H1052 C1075 0.950 . S
H1053 C1077 0.950 . S
H1054 C1078 0.950 . S
H1055 C1079 0.951 . S
H1056 C1081 0.951 . S
H1057 C1083 0.950 . S
H1058 C1084 0.950 . S
H1059 C1086 0.950 . S
H1060 C1089 0.950 . S
H1061 C1090 0.950 . S
H1062 C1092 0.950 . S
H1063 C1093 0.950 . S
C1064 H1046 0.951 . S
C1064 C1065 1.366 . S
C1064 C1066 1.388 1_455 S
C1065 C1064 1.366 . S
C1065 C1069 1.385 1_455 S
C1066 H1047 0.951 . S
C1066 C1064 1.388 1_655 S
C1066 C1067 1.366 . S
C1067 C1066 1.366 . S
C1067 C1068 1.414 . S
C1067 C1070 1.499 . S
C1068 H1048 0.950 . S
C1068 C1067 1.414 . S
C1068 C1069 1.374 . S
C1069 H1049 0.957 . S
C1069 C1065 1.385 1_655 S
C1069 C1068 1.374 . S
C1070 C1067 1.499 . S
C1070 C1071 1.373 . S
C1070 C1072 1.389 . S
C1071 H1050 0.950 . S
C1071 C1070 1.373 . S
C1071 C1087 1.377 . S
C1072 C1070 1.389 . S
C1072 C1073 1.524 . S
C1072 C1086 1.377 . S
C1073 C1072 1.524 . S
C1073 C1074 1.371 1_655 S
C1073 C1078 1.363 . S
C1074 H1051 0.941 1_455 S
C1074 C1073 1.371 1_455 S
C1074 C1075 1.370 . S
C1075 H1052 0.950 . S
C1075 C1074 1.370 . S
C1075 C1076 1.287 . S
C1076 C1075 1.287 . S
C1076 C1077 1.524 . S
C1076 H1095 0.913 . S
C1077 H1053 0.950 . S
C1077 C1076 1.524 . S
C1077 C1078 1.415 1_455 S
C1078 H1054 0.950 . S
C1078 C1073 1.363 . S
C1078 C1077 1.415 1_655 S
C1079 H1055 0.951 . S
C1079 C1080 1.366 . S
C1079 C1081 1.388 . S
C1080 C1079 1.366 . S
C1080 C1084 1.385 . S
C1081 H1056 0.951 . S
C1081 C1079 1.388 . S
C1081 C1082 1.366 . S
C1082 C1081 1.366 . S
C1082 C1083 1.414 . S
C1082 C1085 1.499 . S
C1083 H1057 0.950 . S
C1083 C1082 1.414 . S
C1083 C1084 1.374 . S
C1084 H1058 0.950 . S
C1084 C1080 1.385 . S
C1084 C1083 1.374 . S
C1085 C1082 1.499 . S
C1085 C1086 1.373 . S
C1085 C1087 1.389 . S
C1086 H1059 0.950 . S
C1086 C1072 1.377 . S
C1086 C1085 1.373 . S
C1087 C1071 1.377 . S
C1087 C1085 1.389 . S
C1087 C1088 1.524 . S
C1088 C1087 1.524 . S
C1088 C1089 1.397 . S
C1088 C1093 1.363 . S
C1089 H1060 0.950 . S
C1089 C1088 1.397 . S
C1089 C1090 1.334 . S
C1090 H1061 0.950 . S
C1090 C1089 1.334 . S
C1090 C1091 1.287 . S
C1091 C1090 1.287 . S
C1091 C1092 1.524 . S
C1091 H1094 0.999 . S
C1092 H1062 0.950 . S
C1092 C1091 1.524 . S
C1092 C1093 1.415 . S
C1093 H1063 0.950 . S
C1093 C1088 1.363 . S
C1093 C1092 1.415 . S
H1094 C1091 0.999 . S
H1095 C1076 0.913 . S
H1096 C1114 0.951 . S
H1097 C1116 0.951 . S
H1098 C1118 0.950 . S
H1099 C1119 0.950 . S
H1100 C1121 0.950 . S
H1101 C1124 0.950 . S
H1102 C1125 0.950 . S
H1103 C1127 0.950 . S
H1104 C1128 0.950 . S
H1105 C1129 0.951 . S
H1106 C1131 0.951 . S
H1107 C1133 0.950 . S
H1108 C1134 0.950 . S
H1109 C1136 0.950 . S
H1110 C1139 0.950 . S
H1111 C1140 0.950 . S
H1112 C1142 0.950 . S
H1113 C1143 0.950 . S
C1114 H1096 0.951 . S
C1114 C1115 1.366 . S
C1114 C1116 1.388 . S
C1115 C1114 1.366 . S
C1115 C1119 1.385 . S
C1116 H1097 0.951 . S
C1116 C1114 1.388 . S
C1116 C1117 1.366 . S
C1117 C1116 1.366 . S
C1117 C1118 1.414 . S
C1117 C1120 1.499 . S
C1118 H1098 0.950 . S
C1118 C1117 1.414 . S
C1118 C1119 1.374 . S
C1119 H1099 0.950 . S
C1119 C1115 1.385 . S
C1119 C1118 1.374 . S
C1120 C1117 1.499 . S
C1120 C1121 1.373 . S
C1120 C1122 1.389 . S
C1121 H1100 0.950 . S
C1121 C1120 1.373 . S
C1121 C1137 1.377 . S
C1122 C1120 1.389 . S
C1122 C1123 1.524 . S
C1122 C1136 1.377 . S
C1123 C1122 1.524 . S
C1123 C1124 1.397 . S
C1123 C1128 1.363 . S
C1124 H1101 0.950 . S
C1124 C1123 1.397 . S
C1124 C1125 1.334 . S
C1125 H1102 0.950 . S
C1125 C1124 1.334 . S
C1125 C1126 1.287 . S
C1126 C1125 1.287 . S
C1126 C1127 1.524 . S
C1126 H1145 0.913 . S
C1127 H1103 0.950 . S
C1127 C1126 1.524 . S
C1127 C1128 1.415 . S
C1128 H1104 0.950 . S
C1128 C1123 1.363 . S
C1128 C1127 1.415 . S
C1129 H1105 0.951 . S
C1129 C1130 1.366 . S
C1129 C1131 1.388 . S
C1130 C1129 1.366 . S
C1130 C1134 1.385 . S
C1131 H1106 0.951 . S
C1131 C1129 1.388 . S
C1131 C1132 1.366 . S
C1132 C1131 1.366 . S
C1132 C1133 1.414 . S
C1132 C1135 1.499 . S
C1133 H1107 0.950 . S
C1133 C1132 1.414 . S
C1133 C1134 1.374 . S
C1134 H1108 0.950 . S
C1134 C1130 1.385 . S
C1134 C1133 1.374 . S
C1135 C1132 1.499 . S
C1135 C1136 1.373 . S
C1135 C1137 1.389 . S
C1136 H1109 0.950 . S
C1136 C1122 1.377 . S
C1136 C1135 1.373 . S
C1137 C1121 1.377 . S
C1137 C1135 1.389 . S
C1137 C1138 1.524 . S
C1138 C1137 1.524 . S
C1138 C1139 1.397 . S
C1138 C1143 1.363 . S
C1139 H1110 0.950 . S
C1139 C1138 1.397 . S
C1139 C1140 1.334 . S
C1140 H1111 0.950 . S
C1140 C1139 1.334 . S
C1140 C1141 1.287 . S
C1141 C1140 1.287 . S
C1141 C1142 1.524 . S
C1141 H1144 0.999 . S
C1142 H1112 0.950 . S
C1142 C1141 1.524 . S
C1142 C1143 1.415 . S
C1143 H1113 0.950 . S
C1143 C1138 1.363 . S
C1143 C1142 1.415 . S
H1144 C1141 0.999 . S
H1145 C1126 0.913 . S
H1146 C1164 0.951 . S
H1147 C1166 0.951 . S
H1148 C1168 0.950 . S
H1149 C1169 0.950 . S
H1150 C1171 0.950 . S
H1151 C1174 0.950 . S
H1152 C1175 0.950 . S
H1153 C1177 0.950 . S
H1154 C1178 0.950 . S
H1155 C1179 0.951 . S
H1156 C1181 0.951 . S
H1157 C1183 0.950 . S
H1158 C1184 0.950 . S
H1159 C1186 0.950 . S
H1160 C1189 0.950 . S
H1161 C1190 0.950 . S
H1162 C1192 0.950 . S
H1163 C1193 0.950 . S
C1164 H1146 0.951 . S
C1164 C1165 1.366 . S
C1164 C1166 1.388 . S
C1165 C1164 1.366 . S
C1165 C1169 1.385 . S
C1166 H1147 0.951 . S
C1166 C1164 1.388 . S
C1166 C1167 1.366 . S
C1167 C1166 1.366 . S
C1167 C1168 1.414 . S
C1167 C1170 1.499 . S
C1168 H1148 0.950 . S
C1168 C1167 1.414 . S
C1168 C1169 1.374 . S
C1169 H1149 0.950 . S
C1169 C1165 1.385 . S
C1169 C1168 1.374 . S
C1170 C1167 1.499 . S
C1170 C1171 1.373 . S
C1170 C1172 1.389 . S
C1171 H1150 0.950 . S
C1171 C1170 1.373 . S
C1171 C1187 1.377 . S
C1172 C1170 1.389 . S
C1172 C1173 1.524 . S
C1172 C1186 1.377 . S
C1173 C1172 1.524 . S
C1173 C1174 1.397 . S
C1173 C1178 1.363 . S
C1174 H1151 0.950 . S
C1174 C1173 1.397 . S
C1174 C1175 1.334 . S
C1175 H1152 0.950 . S
C1175 C1174 1.334 . S
C1175 C1176 1.287 . S
C1176 C1175 1.287 . S
C1176 C1177 1.524 . S
C1176 H1195 0.913 . S
C1177 H1153 0.950 . S
C1177 C1176 1.524 . S
C1177 C1178 1.415 . S
C1178 H1154 0.950 . S
C1178 C1173 1.363 . S
C1178 C1177 1.415 . S
C1179 H1155 0.951 . S
C1179 C1180 1.366 . S
C1179 C1181 1.388 . S
C1180 C1179 1.366 . S
C1180 C1184 1.385 . S
C1181 H1156 0.951 . S
C1181 C1179 1.388 . S
C1181 C1182 1.366 . S
C1182 C1181 1.366 . S
C1182 C1183 1.414 . S
C1182 C1185 1.499 . S
C1183 H1157 0.950 . S
C1183 C1182 1.414 . S
C1183 C1184 1.374 . S
C1184 H1158 0.950 . S
C1184 C1180 1.385 . S
C1184 C1183 1.374 . S
C1185 C1182 1.499 . S
C1185 C1186 1.373 . S
C1185 C1187 1.389 . S
C1186 H1159 0.950 . S
C1186 C1172 1.377 . S
C1186 C1185 1.373 . S
C1187 C1171 1.377 . S
C1187 C1185 1.389 . S
C1187 C1188 1.524 . S
C1188 C1187 1.524 . S
C1188 C1189 1.397 . S
C1188 C1193 1.363 . S
C1189 H1160 0.950 . S
C1189 C1188 1.397 . S
C1189 C1190 1.334 . S
C1190 H1161 0.950 . S
C1190 C1189 1.334 . S
C1190 C1191 1.287 . S
C1191 C1190 1.287 . S
C1191 C1192 1.524 . S
C1191 H1194 0.999 . S
C1192 H1162 0.950 . S
C1192 C1191 1.524 . S
C1192 C1193 1.415 . S
C1193 H1163 0.950 . S
C1193 C1188 1.363 . S
C1193 C1192 1.415 . S
H1194 C1191 0.999 . S
H1195 C1176 0.913 . S
H1196 C1214 0.951 . S
H1197 C1216 0.951 . S
H1198 C1218 0.950 . S
H1199 C1219 0.950 . S
H1200 C1221 0.950 . S
H1201 C1224 0.950 . S
H1202 C1225 0.950 . S
H1203 C1227 0.950 . S
H1204 C1228 0.950 . S
H1205 C1229 0.951 . S
H1206 C1231 0.951 . S
H1207 C1233 0.950 . S
H1208 C1234 0.950 . S
H1209 C1236 0.950 . S
H1210 C1239 0.950 . S
H1211 C1240 0.950 . S
H1212 C1242 0.950 . S
H1213 C1243 0.950 . S
C1214 H1196 0.951 . S
C1214 C1215 1.366 . S
C1214 C1216 1.388 . S
C1215 C1214 1.366 . S
C1215 C1219 1.385 . S
C1216 H1197 0.951 . S
C1216 C1214 1.388 . S
C1216 C1217 1.366 . S
C1217 C1216 1.366 . S
C1217 C1218 1.414 . S
C1217 C1220 1.499 . S
C1218 H1198 0.950 . S
C1218 C1217 1.414 . S
C1218 C1219 1.374 . S
C1219 H1199 0.950 . S
C1219 C1215 1.385 . S
C1219 C1218 1.374 . S
C1220 C1217 1.499 . S
C1220 C1221 1.373 . S
C1220 C1222 1.389 . S
C1221 H1200 0.950 . S
C1221 C1220 1.373 . S
C1221 C1237 1.377 . S
C1222 C1220 1.389 . S
C1222 C1223 1.524 . S
C1222 C1236 1.377 . S
C1223 C1222 1.524 . S
C1223 C1224 1.397 . S
C1223 C1228 1.363 . S
C1224 H1201 0.950 . S
C1224 C1223 1.397 . S
C1224 C1225 1.334 . S
C1225 H1202 0.950 . S
C1225 C1224 1.334 . S
C1225 C1226 1.287 . S
C1226 C1225 1.287 . S
C1226 C1227 1.524 . S
C1226 H1245 0.913 . S
C1227 H1203 0.950 . S
C1227 C1226 1.524 . S
C1227 C1228 1.415 . S
C1228 H1204 0.950 . S
C1228 C1223 1.363 . S
C1228 C1227 1.415 . S
C1229 H1205 0.951 . S
C1229 C1230 1.366 . S
C1229 C1231 1.388 . S
C1230 C1229 1.366 . S
C1230 C1234 1.385 . S
C1231 H1206 0.951 . S
C1231 C1229 1.388 . S
C1231 C1232 1.366 . S
C1232 C1231 1.366 . S
C1232 C1233 1.414 . S
C1232 C1235 1.499 . S
C1233 H1207 0.950 . S
C1233 C1232 1.414 . S
C1233 C1234 1.374 . S
C1234 H1208 0.950 . S
C1234 C1230 1.385 . S
C1234 C1233 1.374 . S
C1235 C1232 1.499 . S
C1235 C1236 1.373 . S
C1235 C1237 1.389 . S
C1236 H1209 0.950 . S
C1236 C1222 1.377 . S
C1236 C1235 1.373 . S
C1237 C1221 1.377 . S
C1237 C1235 1.389 . S
C1237 C1238 1.524 . S
C1238 C1237 1.524 . S
C1238 C1239 1.397 . S
C1238 C1243 1.363 . S
C1239 H1210 0.950 . S
C1239 C1238 1.397 . S
C1239 C1240 1.334 . S
C1240 H1211 0.950 . S
C1240 C1239 1.334 . S
C1240 C1241 1.287 . S
C1241 C1240 1.287 . S
C1241 C1242 1.524 . S
C1241 H1244 0.999 . S
C1242 H1212 0.950 . S
C1242 C1241 1.524 . S
C1242 C1243 1.415 . S
C1243 H1213 0.950 . S
C1243 C1238 1.363 . S
C1243 C1242 1.415 . S
H1244 C1241 0.999 . S
H1245 C1226 0.913 . S
H1246 C1264 0.951 . S
H1247 C1266 0.951 . S
H1248 C1268 0.950 . S
H1249 C1269 0.950 . S
H1250 C1271 0.950 . S
H1251 C1274 0.950 . S
H1252 C1275 0.950 . S
H1253 C1277 0.950 . S
H1254 C1278 0.950 . S
H1255 C1279 0.951 . S
H1256 C1281 0.951 . S
H1257 C1283 0.950 . S
H1258 C1284 0.950 . S
H1259 C1286 0.950 . S
H1260 C1289 0.950 . S
H1261 C1290 0.950 . S
H1262 C1292 0.950 . S
H1263 C1293 0.950 . S
C1264 H1246 0.951 . S
C1264 C1265 1.366 . S
C1264 C1266 1.388 . S
C1265 C1264 1.366 . S
C1265 C1269 1.385 . S
C1266 H1247 0.951 . S
C1266 C1264 1.388 . S
C1266 C1267 1.366 . S
C1267 C1266 1.366 . S
C1267 C1268 1.414 . S
C1267 C1270 1.499 . S
C1268 H1248 0.950 . S
C1268 C1267 1.414 . S
C1268 C1269 1.374 . S
C1269 H1249 0.950 . S
C1269 C1265 1.385 . S
C1269 C1268 1.374 . S
C1270 C1267 1.499 . S
C1270 C1271 1.373 . S
C1270 C1272 1.389 . S
C1271 H1250 0.950 . S
C1271 C1270 1.373 . S
C1271 C1287 1.377 . S
C1272 C1270 1.389 . S
C1272 C1273 1.524 . S
C1272 C1286 1.377 . S
C1273 C1272 1.524 . S
C1273 C1274 1.397 . S
C1273 C1278 1.363 . S
C1274 H1251 0.950 . S
C1274 C1273 1.397 . S
C1274 C1275 1.334 . S
C1275 H1252 0.950 . S
C1275 C1274 1.334 . S
C1275 C1276 1.287 . S
C1276 C1275 1.287 . S
C1276 C1277 1.524 . S
C1276 H1295 0.913 . S
C1277 H1253 0.950 . S
C1277 C1276 1.524 . S
C1277 C1278 1.415 . S
C1278 H1254 0.950 . S
C1278 C1273 1.363 . S
C1278 C1277 1.415 . S
C1279 H1255 0.951 . S
C1279 C1280 1.366 . S
C1279 C1281 1.388 . S
C1280 C1279 1.366 . S
C1280 C1284 1.385 . S
C1281 H1256 0.951 . S
C1281 C1279 1.388 . S
C1281 C1282 1.366 . S
C1282 C1281 1.366 . S
C1282 C1283 1.414 . S
C1282 C1285 1.499 . S
C1283 H1257 0.950 . S
C1283 C1282 1.414 . S
C1283 C1284 1.374 . S
C1284 H1258 0.950 . S
C1284 C1280 1.385 . S
C1284 C1283 1.374 . S
C1285 C1282 1.499 . S
C1285 C1286 1.373 . S
C1285 C1287 1.389 . S
C1286 H1259 0.950 . S
C1286 C1272 1.377 . S
C1286 C1285 1.373 . S
C1287 C1271 1.377 . S
C1287 C1285 1.389 . S
C1287 C1288 1.524 . S
C1288 C1287 1.524 . S
C1288 C1289 1.397 . S
C1288 C1293 1.363 . S
C1289 H1260 0.950 . S
C1289 C1288 1.397 . S
C1289 C1290 1.334 . S
C1290 H1261 0.950 . S
C1290 C1289 1.334 . S
C1290 C1291 1.287 . S
C1291 C1290 1.287 . S
C1291 C1292 1.524 . S
C1291 H1294 0.999 . S
C1292 H1262 0.950 . S
C1292 C1291 1.524 . S
C1292 C1293 1.415 . S
C1293 H1263 0.950 . S
C1293 C1288 1.363 . S
C1293 C1292 1.415 . S
H1294 C1291 0.999 . S
H1295 C1276 0.913 . S
H1296 C1314 0.951 . S
H1297 C1316 0.951 . S
H1298 C1318 0.950 . S
H1299 C1319 0.950 . S
H1300 C1321 0.950 . S
H1301 C1324 0.950 . S
H1302 C1325 0.950 . S
H1303 C1327 0.950 . S
H1304 C1328 0.950 . S
H1305 C1329 0.951 . S
H1306 C1331 0.951 . S
H1307 C1333 0.950 . S
H1308 C1334 0.950 . S
H1309 C1336 0.950 . S
H1310 C1339 0.950 . S
H1311 C1340 0.950 . S
H1312 C1342 0.950 . S
H1313 C1343 0.950 . S
C1314 H1296 0.951 . S
C1314 C1315 1.366 . S
C1314 C1316 1.388 . S
C1315 C1314 1.366 . S
C1315 C1319 1.385 . S
C1316 H1297 0.951 . S
C1316 C1314 1.388 . S
C1316 C1317 1.366 . S
C1317 C1316 1.366 . S
C1317 C1318 1.414 . S
C1317 C1320 1.499 . S
C1318 H1298 0.950 . S
C1318 C1317 1.414 . S
C1318 C1319 1.374 . S
C1319 H1299 0.950 . S
C1319 C1315 1.385 . S
C1319 C1318 1.374 . S
C1320 C1317 1.499 . S
C1320 C1321 1.373 . S
C1320 C1322 1.389 . S
C1321 H1300 0.950 . S
C1321 C1320 1.373 . S
C1321 C1337 1.377 . S
C1322 C1320 1.389 . S
C1322 C1323 1.524 . S
C1322 C1336 1.377 . S
C1323 C1322 1.524 . S
C1323 C1324 1.397 . S
C1323 C1328 1.363 . S
C1324 H1301 0.950 . S
C1324 C1323 1.397 . S
C1324 C1325 1.334 . S
C1325 H1302 0.950 . S
C1325 C1324 1.334 . S
C1325 C1326 1.287 . S
C1326 C1325 1.287 . S
C1326 C1327 1.524 . S
C1326 H1345 0.913 . S
C1327 H1303 0.950 . S
C1327 C1326 1.524 . S
C1327 C1328 1.415 . S
C1328 H1304 0.950 . S
C1328 C1323 1.363 . S
C1328 C1327 1.415 . S
C1329 H1305 0.951 . S
C1329 C1330 1.366 . S
C1329 C1331 1.388 . S
C1330 C1329 1.366 . S
C1330 C1334 1.385 . S
C1331 H1306 0.951 . S
C1331 C1329 1.388 . S
C1331 C1332 1.366 . S
C1332 C1331 1.366 . S
C1332 C1333 1.414 . S
C1332 C1335 1.499 . S
C1333 H1307 0.950 . S
C1333 C1332 1.414 . S
C1333 C1334 1.374 . S
C1334 H1308 0.950 . S
C1334 C1330 1.385 . S
C1334 C1333 1.374 . S
C1335 C1332 1.499 . S
C1335 C1336 1.373 . S
C1335 C1337 1.389 . S
C1336 H1309 0.950 . S
C1336 C1322 1.377 . S
C1336 C1335 1.373 . S
C1337 C1321 1.377 . S
C1337 C1335 1.389 . S
C1337 C1338 1.524 . S
C1338 C1337 1.524 . S
C1338 C1339 1.397 . S
C1338 C1343 1.363 . S
C1339 H1310 0.950 . S
C1339 C1338 1.397 . S
C1339 C1340 1.334 . S
C1340 H1311 0.950 . S
C1340 C1339 1.334 . S
C1340 C1341 1.287 . S
C1341 C1340 1.287 . S
C1341 C1342 1.524 . S
C1341 H1344 0.999 . S
C1342 H1312 0.950 . S
C1342 C1341 1.524 . S
C1342 C1343 1.415 . S
C1343 H1313 0.950 . S
C1343 C1338 1.363 . S
C1343 C1342 1.415 . S
H1344 C1341 0.999 . S
H1345 C1326 0.913 . S
H1346 C1364 0.951 . S
H1347 C1366 0.951 . S
H1348 C1368 0.950 . S
H1349 C1369 0.950 . S
H1350 C1371 0.950 . S
H1351 C1374 0.950 . S
H1352 C1375 0.950 . S
H1353 C1377 0.950 . S
H1354 C1378 0.950 . S
H1355 C1379 0.951 . S
H1356 C1381 0.951 . S
H1357 C1383 0.950 . S
H1358 C1384 0.950 . S
H1359 C1386 0.950 . S
H1360 C1389 0.950 . S
H1361 C1390 0.950 . S
H1362 C1392 0.950 . S
H1363 C1393 0.950 . S
C1364 H1346 0.951 . S
C1364 C1365 1.366 . S
C1364 C1366 1.388 . S
C1365 C1364 1.366 . S
C1365 C1369 1.385 . S
C1366 H1347 0.951 . S
C1366 C1364 1.388 . S
C1366 C1367 1.366 . S
C1367 C1366 1.366 . S
C1367 C1368 1.414 . S
C1367 C1370 1.499 . S
C1368 H1348 0.950 . S
C1368 C1367 1.414 . S
C1368 C1369 1.374 . S
C1369 H1349 0.950 . S
C1369 C1365 1.385 . S
C1369 C1368 1.374 . S
C1370 C1367 1.499 . S
C1370 C1371 1.373 . S
C1370 C1372 1.389 . S
C1371 H1350 0.950 . S
C1371 C1370 1.373 . S
C1371 C1387 1.377 . S
C1372 C1370 1.389 . S
C1372 C1373 1.524 . S
C1372 C1386 1.377 . S
C1373 C1372 1.524 . S
C1373 C1374 1.397 . S
C1373 C1378 1.363 . S
C1374 H1351 0.950 . S
C1374 C1373 1.397 . S
C1374 C1375 1.334 . S
C1375 H1352 0.950 . S
C1375 C1374 1.334 . S
C1375 C1376 1.287 . S
C1376 C1375 1.287 . S
C1376 C1377 1.524 . S
C1376 H1395 0.913 . S
C1377 H1353 0.950 . S
C1377 C1376 1.524 . S
C1377 C1378 1.415 . S
C1378 H1354 0.950 . S
C1378 C1373 1.363 . S
C1378 C1377 1.415 . S
C1379 H1355 0.951 . S
C1379 C1380 1.366 . S
C1379 C1381 1.388 . S
C1380 C1379 1.366 . S
C1380 C1384 1.385 . S
C1381 H1356 0.951 . S
C1381 C1379 1.388 . S
C1381 C1382 1.366 . S
C1382 C1381 1.366 . S
C1382 C1383 1.414 . S
C1382 C1385 1.499 . S
C1383 H1357 0.950 . S
C1383 C1382 1.414 . S
C1383 C1384 1.374 . S
C1384 H1358 0.950 . S
C1384 C1380 1.385 . S
C1384 C1383 1.374 . S
C1385 C1382 1.499 . S
C1385 C1386 1.373 . S
C1385 C1387 1.389 . S
C1386 H1359 0.950 . S
C1386 C1372 1.377 . S
C1386 C1385 1.373 . S
C1387 C1371 1.377 . S
C1387 C1385 1.389 . S
C1387 C1388 1.524 . S
C1388 C1387 1.524 . S
C1388 C1389 1.397 . S
C1388 C1393 1.363 . S
C1389 H1360 0.950 . S
C1389 C1388 1.397 . S
C1389 C1390 1.334 . S
C1390 H1361 0.950 . S
C1390 C1389 1.334 . S
C1390 C1391 1.287 . S
C1391 C1390 1.287 . S
C1391 C1392 1.524 . S
C1391 H1394 0.999 . S
C1392 H1362 0.950 . S
C1392 C1391 1.524 . S
C1392 C1393 1.415 . S
C1393 H1363 0.950 . S
C1393 C1388 1.363 . S
C1393 C1392 1.415 . S
H1394 C1391 0.999 . S
H1395 C1376 0.913 . S
H1396 C1414 0.951 . S
H1397 C1416 0.951 . S
H1398 C1418 0.950 . S
H1399 C1419 0.950 . S
H1400 C1421 0.950 . S
H1401 C1424 0.950 . S
H1402 C1425 0.950 . S
H1403 C1427 0.950 . S
H1404 C1428 0.950 . S
H1405 C1429 0.951 . S
H1406 C1431 0.951 . S
H1407 C1433 0.950 . S
H1408 C1434 0.950 . S
H1409 C1436 0.950 . S
H1410 C1439 0.950 . S
H1411 C1440 0.950 . S
H1412 C1442 0.950 . S
H1413 C1443 0.950 . S
C1414 H1396 0.951 . S
C1414 C1415 1.366 . S
C1414 C1416 1.388 . S
C1415 C1414 1.366 . S
C1415 C1419 1.385 . S
C1416 H1397 0.951 . S
C1416 C1414 1.388 . S
C1416 C1417 1.366 . S
C1417 C1416 1.366 . S
C1417 C1418 1.414 . S
C1417 C1420 1.499 . S
C1418 H1398 0.950 . S
C1418 C1417 1.414 . S
C1418 C1419 1.374 . S
C1419 H1399 0.950 . S
C1419 C1415 1.385 . S
C1419 C1418 1.374 . S
C1420 C1417 1.499 . S
C1420 C1421 1.373 . S
C1420 C1422 1.389 . S
C1421 H1400 0.950 . S
C1421 C1420 1.373 . S
C1421 C1437 1.377 . S
C1422 C1420 1.389 . S
C1422 C1423 1.524 . S
C1422 C1436 1.377 . S
C1423 C1422 1.524 . S
C1423 C1424 1.397 . S
C1423 C1428 1.363 . S
C1424 H1401 0.950 . S
C1424 C1423 1.397 . S
C1424 C1425 1.334 . S
C1425 H1402 0.950 . S
C1425 C1424 1.334 . S
C1425 C1426 1.287 . S
C1426 C1425 1.287 . S
C1426 C1427 1.524 . S
C1426 H1445 0.913 . S
C1427 H1403 0.950 . S
C1427 C1426 1.524 . S
C1427 C1428 1.415 . S
C1428 H1404 0.950 . S
C1428 C1423 1.363 . S
C1428 C1427 1.415 . S
C1429 H1405 0.951 . S
C1429 C1430 1.366 . S
C1429 C1431 1.388 . S
C1430 C1429 1.366 . S
C1430 C1434 1.385 . S
C1431 H1406 0.951 . S
C1431 C1429 1.388 . S
C1431 C1432 1.366 . S
C1432 C1431 1.366 . S
C1432 C1433 1.414 . S
C1432 C1435 1.499 . S
C1433 H1407 0.950 . S
C1433 C1432 1.414 . S
C1433 C1434 1.374 . S
C1434 H1408 0.950 . S
C1434 C1430 1.385 . S
C1434 C1433 1.374 . S
C1435 C1432 1.499 . S
C1435 C1436 1.373 . S
C1435 C1437 1.389 . S
C1436 H1409 0.950 . S
C1436 C1422 1.377 . S
C1436 C1435 1.373 . S
C1437 C1421 1.377 . S
C1437 C1435 1.389 . S
C1437 C1438 1.524 . S
C1438 C1437 1.524 . S
C1438 C1439 1.397 . S
C1438 C1443 1.363 . S
C1439 H1410 0.950 . S
C1439 C1438 1.397 . S
C1439 C1440 1.334 . S
C1440 H1411 0.950 . S
C1440 C1439 1.334 . S
C1440 C1441 1.287 . S
C1441 C1440 1.287 . S
C1441 C1442 1.524 . S
C1441 H1444 0.999 . S
C1442 H1412 0.950 . S
C1442 C1441 1.524 . S
C1442 C1443 1.415 . S
C1443 H1413 0.950 . S
C1443 C1438 1.363 . S
C1443 C1442 1.415 . S
H1444 C1441 0.999 . S
H1445 C1426 0.913 . S
H1446 C1464 0.951 . S
H1447 C1466 0.951 . S
H1448 C1468 0.950 . S
H1449 C1469 0.950 . S
H1450 C1471 0.950 . S
H1451 C1474 0.950 . S
H1452 C1475 0.950 . S
H1453 C1477 0.950 1_554 S
H1454 C1478 0.950 . S
H1455 C1479 0.951 . S
H1456 C1481 0.951 . S
H1457 C1483 0.950 . S
H1458 C1484 0.950 . S
H1459 C1486 0.950 . S
H1460 C1489 0.950 . S
H1461 C1490 0.950 . S
H1462 C1492 0.950 . S
H1463 C1493 0.950 . S
C1464 H1446 0.951 . S
C1464 C1465 1.366 . S
C1464 C1466 1.388 . S
C1465 C1464 1.366 . S
C1465 C1469 1.385 . S
C1466 H1447 0.951 . S
C1466 C1464 1.388 . S
C1466 C1467 1.366 . S
C1467 C1466 1.366 . S
C1467 C1468 1.414 . S
C1467 C1470 1.499 . S
C1468 H1448 0.950 . S
C1468 C1467 1.414 . S
C1468 C1469 1.374 . S
C1469 H1449 0.950 . S
C1469 C1465 1.385 . S
C1469 C1468 1.374 . S
C1470 C1467 1.499 . S
C1470 C1471 1.373 . S
C1470 C1472 1.389 . S
C1471 H1450 0.950 . S
C1471 C1470 1.373 . S
C1471 C1487 1.377 . S
C1472 C1470 1.389 . S
C1472 C1473 1.524 . S
C1472 C1486 1.377 . S
C1473 C1472 1.524 . S
C1473 C1474 1.397 . S
C1473 C1478 1.363 . S
C1474 H1451 0.950 . S
C1474 C1473 1.397 . S
C1474 C1475 1.334 . S
C1475 H1452 0.950 . S
C1475 C1474 1.334 . S
C1475 C1476 1.287 . S
C1476 C1475 1.287 . S
C1476 C1477 1.524 . S
C1476 H1495 0.913 1_556 S
C1477 H1453 0.950 1_556 S
C1477 C1476 1.524 . S
C1477 C1478 1.415 . S
C1478 H1454 0.950 . S
C1478 C1473 1.363 . S
C1478 C1477 1.415 . S
C1479 H1455 0.951 . S
C1479 C1480 1.366 . S
C1479 C1481 1.388 . S
C1480 C1479 1.366 . S
C1480 C1484 1.385 . S
C1481 H1456 0.951 . S
C1481 C1479 1.388 . S
C1481 C1482 1.366 . S
C1482 C1481 1.366 . S
C1482 C1483 1.414 . S
C1482 C1485 1.499 . S
C1483 H1457 0.950 . S
C1483 C1482 1.414 . S
C1483 C1484 1.374 . S
C1484 H1458 0.950 . S
C1484 C1480 1.385 . S
C1484 C1483 1.374 . S
C1485 C1482 1.499 . S
C1485 C1486 1.373 . S
C1485 C1487 1.389 . S
C1486 H1459 0.950 . S
C1486 C1472 1.377 . S
C1486 C1485 1.373 . S
C1487 C1471 1.377 . S
C1487 C1485 1.389 . S
C1487 C1488 1.524 . S
C1488 C1487 1.524 . S
C1488 C1489 1.397 . S
C1488 C1493 1.363 . S
C1489 H1460 0.950 . S
C1489 C1488 1.397 . S
C1489 C1490 1.334 . S
C1490 H1461 0.950 . S
C1490 C1489 1.334 . S
C1490 C1491 1.287 . S
C1491 C1490 1.287 . S
C1491 C1492 1.524 . S
C1491 H1494 0.999 . S
C1492 H1462 0.950 . S
C1492 C1491 1.524 . S
C1492 C1493 1.415 . S
C1493 H1463 0.950 . S
C1493 C1488 1.363 . S
C1493 C1492 1.415 . S
H1494 C1491 0.999 . S
H1495 C1476 0.913 1_554 S
H1496 C1514 0.951 . S
H1497 C1516 0.951 . S
H1498 C1518 0.950 . S
H1499 C1519 0.950 . S
H1500 C1521 0.950 . S
H1501 C1524 0.950 . S
H1502 C1525 0.950 . S
H1503 C1527 0.950 . S
H1504 C1528 0.950 . S
H1505 C1529 0.951 . S
H1506 C1531 0.951 . S
H1507 C1533 0.950 . S
H1508 C1534 0.950 . S
H1509 C1536 0.950 . S
H1510 C1539 0.950 . S
H1511 C1540 0.950 . S
H1512 C1542 0.950 . S
H1513 C1543 0.950 . S
C1514 H1496 0.951 . S
C1514 C1515 1.366 . S
C1514 C1516 1.388 . S
C1515 C1514 1.366 . S
C1515 C1519 1.385 . S
C1516 H1497 0.951 . S
C1516 C1514 1.388 . S
C1516 C1517 1.366 . S
C1517 C1516 1.366 . S
C1517 C1518 1.414 . S
C1517 C1520 1.499 . S
C1518 H1498 0.950 . S
C1518 C1517 1.414 . S
C1518 C1519 1.374 . S
C1519 H1499 0.950 . S
C1519 C1515 1.385 . S
C1519 C1518 1.374 . S
C1520 C1517 1.499 . S
C1520 C1521 1.373 . S
C1520 C1522 1.389 . S
C1521 H1500 0.950 . S
C1521 C1520 1.373 . S
C1521 C1537 1.377 . S
C1522 C1520 1.389 . S
C1522 C1523 1.524 . S
C1522 C1536 1.377 . S
C1523 C1522 1.524 . S
C1523 C1524 1.397 . S
C1523 C1528 1.363 . S
C1524 H1501 0.950 . S
C1524 C1523 1.397 . S
C1524 C1525 1.334 . S
C1525 H1502 0.950 . S
C1525 C1524 1.334 . S
C1525 C1526 1.287 . S
C1526 C1525 1.287 . S
C1526 C1527 1.524 . S
C1526 H1545 0.913 . S
C1527 H1503 0.950 . S
C1527 C1526 1.524 . S
C1527 C1528 1.415 . S
C1528 H1504 0.950 . S
C1528 C1523 1.363 . S
C1528 C1527 1.415 . S
C1529 H1505 0.951 . S
C1529 C1530 1.366 . S
C1529 C1531 1.388 . S
C1530 C1529 1.366 . S
C1530 C1534 1.385 . S
C1531 H1506 0.951 . S
C1531 C1529 1.388 . S
C1531 C1532 1.366 . S
C1532 C1531 1.366 . S
C1532 C1533 1.414 . S
C1532 C1535 1.499 . S
C1533 H1507 0.950 . S
C1533 C1532 1.414 . S
C1533 C1534 1.374 . S
C1534 H1508 0.950 . S
C1534 C1530 1.385 . S
C1534 C1533 1.374 . S
C1535 C1532 1.499 . S
C1535 C1536 1.373 . S
C1535 C1537 1.389 . S
C1536 H1509 0.950 . S
C1536 C1522 1.377 . S
C1536 C1535 1.373 . S
C1537 C1521 1.377 . S
C1537 C1535 1.389 . S
C1537 C1538 1.524 . S
C1538 C1537 1.524 . S
C1538 C1539 1.397 . S
C1538 C1543 1.363 . S
C1539 H1510 0.950 . S
C1539 C1538 1.397 . S
C1539 C1540 1.334 . S
C1540 H1511 0.950 . S
C1540 C1539 1.334 . S
C1540 C1541 1.287 . S
C1541 C1540 1.287 . S
C1541 C1542 1.524 . S
C1541 H1544 0.999 . S
C1542 H1512 0.950 . S
C1542 C1541 1.524 . S
C1542 C1543 1.415 . S
C1543 H1513 0.950 . S
C1543 C1538 1.363 . S
C1543 C1542 1.415 . S
H1544 C1541 0.999 . S
H1545 C1526 0.913 . S
H1546 C1564 0.951 . S
H1547 C1566 0.951 . S
H1548 C1568 0.950 . S
H1549 C1569 0.950 . S
H1550 C1571 0.950 . S
H1551 C1574 0.950 . S
H1552 C1575 0.950 . S
H1553 C1577 0.947 . S
H1554 C1578 0.950 . S
H1555 C1579 0.951 . S
H1556 C1581 0.951 . S
H1557 C1583 0.950 . S
H1558 C1584 0.950 . S
H1559 C1586 0.950 . S
H1560 C1589 0.950 . S
H1561 C1590 0.950 . S
H1562 C1592 0.950 1_554 S
H1563 C1593 0.950 . S
C1564 H1546 0.951 . S
C1564 C1565 1.366 . S
C1564 C1566 1.388 . S
C1565 C1564 1.366 . S
C1565 C1569 1.385 . S
C1566 H1547 0.951 . S
C1566 C1564 1.388 . S
C1566 C1567 1.366 1_455 S
C1567 C1566 1.366 1_655 S
C1567 C1568 1.414 . S
C1567 C1570 1.499 . S
C1568 H1548 0.950 . S
C1568 C1567 1.414 . S
C1568 C1569 1.374 1_655 S
C1569 H1549 0.950 . S
C1569 C1565 1.385 . S
C1569 C1568 1.374 1_455 S
C1570 C1567 1.499 . S
C1570 C1571 1.373 . S
C1570 C1572 1.389 . S
C1571 H1550 0.950 . S
C1571 C1570 1.373 . S
C1571 C1587 1.377 . S
C1572 C1570 1.389 . S
C1572 C1573 1.524 . S
C1572 C1586 1.377 . S
C1573 C1572 1.524 . S
C1573 C1574 1.397 . S
C1573 C1578 1.363 . S
C1574 H1551 0.950 . S
C1574 C1573 1.397 . S
C1574 C1575 1.334 . S
C1575 H1552 0.950 . S
C1575 C1574 1.334 . S
C1575 C1576 1.293 . S
C1576 C1575 1.293 . S
C1576 C1577 1.527 1_655 S
C1576 H1595 0.900 1_655 S
C1577 H1553 0.947 . S
C1577 C1576 1.527 1_455 S
C1577 C1578 1.419 1_455 S
C1578 H1554 0.950 . S
C1578 C1573 1.363 . S
C1578 C1577 1.419 1_655 S
C1579 H1555 0.951 . S
C1579 C1580 1.366 . S
C1579 C1581 1.388 . S
C1580 C1579 1.366 . S
C1580 C1584 1.385 . S
C1581 H1556 0.951 . S
C1581 C1579 1.388 . S
C1581 C1582 1.366 . S
C1582 C1581 1.366 . S
C1582 C1583 1.414 . S
C1582 C1585 1.499 . S
C1583 H1557 0.950 . S
C1583 C1582 1.414 . S
C1583 C1584 1.374 . S
C1584 H1558 0.950 . S
C1584 C1580 1.385 . S
C1584 C1583 1.374 . S
C1585 C1582 1.499 . S
C1585 C1586 1.373 . S
C1585 C1587 1.389 . S
C1586 H1559 0.950 . S
C1586 C1572 1.377 . S
C1586 C1585 1.373 . S
C1587 C1571 1.377 . S
C1587 C1585 1.389 . S
C1587 C1588 1.524 . S
C1588 C1587 1.524 . S
C1588 C1589 1.397 . S
C1588 C1593 1.363 . S
C1589 H1560 0.950 . S
C1589 C1588 1.397 . S
C1589 C1590 1.334 . S
C1590 H1561 0.950 . S
C1590 C1589 1.334 . S
C1590 C1591 1.287 . S
C1591 C1590 1.287 . S
C1591 C1592 1.524 . S
C1591 H1594 0.999 . S
C1592 H1562 0.950 1_556 S
C1592 C1591 1.524 . S
C1592 C1593 1.415 . S
C1593 H1563 0.950 . S
C1593 C1588 1.363 . S
C1593 C1592 1.415 . S
H1594 C1591 0.999 . S
H1595 C1576 0.900 1_455 S
H1596 C1614 0.951 . S
H1597 C1616 0.951 . S
H1598 C1618 0.950 . S
H1599 C1619 0.950 . S
H1600 C1621 0.950 . S
H1601 C1624 0.950 . S
H1602 C1625 0.950 . S
H1603 C1627 0.950 . S
H1604 C1628 0.950 . S
H1605 C1629 0.951 . S
H1606 C1631 0.951 . S
H1607 C1633 0.950 . S
H1608 C1634 0.950 . S
H1609 C1636 0.950 . S
H1610 C1639 0.950 . S
H1611 C1640 0.950 . S
H1612 C1642 0.950 . S
H1613 C1643 0.950 . S
C1614 H1596 0.951 . S
C1614 C1615 1.366 . S
C1614 C1616 1.388 . S
C1615 C1614 1.366 . S
C1615 C1619 1.385 . S
C1616 H1597 0.951 . S
C1616 C1614 1.388 . S
C1616 C1617 1.366 . S
C1617 C1616 1.366 . S
C1617 C1618 1.414 . S
C1617 C1620 1.499 . S
C1618 H1598 0.950 . S
C1618 C1617 1.414 . S
C1618 C1619 1.374 . S
C1619 H1599 0.950 . S
C1619 C1615 1.385 . S
C1619 C1618 1.374 . S
C1620 C1617 1.499 . S
C1620 C1621 1.373 . S
C1620 C1622 1.389 . S
C1621 H1600 0.950 . S
C1621 C1620 1.373 . S
C1621 C1637 1.377 . S
C1622 C1620 1.389 . S
C1622 C1623 1.524 . S
C1622 C1636 1.377 . S
C1623 C1622 1.524 . S
C1623 C1624 1.397 . S
C1623 C1628 1.363 . S
C1624 H1601 0.950 . S
C1624 C1623 1.397 . S
C1624 C1625 1.334 . S
C1625 H1602 0.950 . S
C1625 C1624 1.334 . S
C1625 C1626 1.287 . S
C1626 C1625 1.287 . S
C1626 C1627 1.524 . S
C1626 H1645 0.913 . S
C1627 H1603 0.950 . S
C1627 C1626 1.524 . S
C1627 C1628 1.415 . S
C1628 H1604 0.950 . S
C1628 C1623 1.363 . S
C1628 C1627 1.415 . S
C1629 H1605 0.951 . S
C1629 C1630 1.366 . S
C1629 C1631 1.388 . S
C1630 C1629 1.366 . S
C1630 C1634 1.385 . S
C1631 H1606 0.951 . S
C1631 C1629 1.388 . S
C1631 C1632 1.366 . S
C1632 C1631 1.366 . S
C1632 C1633 1.414 . S
C1632 C1635 1.499 . S
C1633 H1607 0.950 . S
C1633 C1632 1.414 . S
C1633 C1634 1.374 . S
C1634 H1608 0.950 . S
C1634 C1630 1.385 . S
C1634 C1633 1.374 . S
C1635 C1632 1.499 . S
C1635 C1636 1.373 . S
C1635 C1637 1.389 . S
C1636 H1609 0.950 . S
C1636 C1622 1.377 . S
C1636 C1635 1.373 . S
C1637 C1621 1.377 . S
C1637 C1635 1.389 . S
C1637 C1638 1.524 . S
C1638 C1637 1.524 . S
C1638 C1639 1.397 . S
C1638 C1643 1.363 . S
C1639 H1610 0.950 . S
C1639 C1638 1.397 . S
C1639 C1640 1.334 . S
C1640 H1611 0.950 . S
C1640 C1639 1.334 . S
C1640 C1641 1.287 . S
C1641 C1640 1.287 . S
C1641 C1642 1.524 . S
C1641 H1644 0.999 . S
C1642 H1612 0.950 . S
C1642 C1641 1.524 . S
C1642 C1643 1.415 . S
C1643 H1613 0.950 . S
C1643 C1638 1.363 . S
C1643 C1642 1.415 . S
H1644 C1641 0.999 . S
H1645 C1626 0.913 . S
H1646 C1664 0.951 . S
H1647 C1666 0.951 . S
H1648 C1668 0.950 . S
H1649 C1669 0.950 . S
H1650 C1671 0.950 . S
H1651 C1674 0.950 . S
H1652 C1675 0.950 . S
H1653 C1677 0.950 . S
H1654 C1678 0.950 . S
H1655 C1679 0.951 . S
H1656 C1681 0.951 . S
H1657 C1683 0.950 . S
H1658 C1684 0.950 . S
H1659 C1686 0.950 . S
H1660 C1689 0.950 . S
H1661 C1690 0.950 . S
H1662 C1692 0.950 . S
H1663 C1693 0.950 . S
C1664 H1646 0.951 . S
C1664 C1665 1.366 . S
C1664 C1666 1.388 . S
C1665 C1664 1.366 . S
C1665 C1669 1.385 . S
C1666 H1647 0.951 . S
C1666 C1664 1.388 . S
C1666 C1667 1.366 . S
C1667 C1666 1.366 . S
C1667 C1668 1.414 . S
C1667 C1670 1.499 . S
C1668 H1648 0.950 . S
C1668 C1667 1.414 . S
C1668 C1669 1.374 . S
C1669 H1649 0.950 . S
C1669 C1665 1.385 . S
C1669 C1668 1.374 . S
C1670 C1667 1.499 . S
C1670 C1671 1.373 . S
C1670 C1672 1.389 . S
C1671 H1650 0.950 . S
C1671 C1670 1.373 . S
C1671 C1687 1.377 . S
C1672 C1670 1.389 . S
C1672 C1673 1.524 . S
C1672 C1686 1.377 . S
C1673 C1672 1.524 . S
C1673 C1674 1.397 . S
C1673 C1678 1.363 . S
C1674 H1651 0.950 . S
C1674 C1673 1.397 . S
C1674 C1675 1.334 . S
C1675 H1652 0.950 . S
C1675 C1674 1.334 . S
C1675 C1676 1.287 . S
C1676 C1675 1.287 . S
C1676 C1677 1.524 . S
C1676 H1695 0.913 . S
C1677 H1653 0.950 . S
C1677 C1676 1.524 . S
C1677 C1678 1.415 . S
C1678 H1654 0.950 . S
C1678 C1673 1.363 . S
C1678 C1677 1.415 . S
C1679 H1655 0.951 . S
C1679 C1680 1.366 . S
C1679 C1681 1.388 . S
C1680 C1679 1.366 . S
C1680 C1684 1.385 . S
C1681 H1656 0.951 . S
C1681 C1679 1.388 . S
C1681 C1682 1.366 . S
C1682 C1681 1.366 . S
C1682 C1683 1.414 . S
C1682 C1685 1.499 . S
C1683 H1657 0.950 . S
C1683 C1682 1.414 . S
C1683 C1684 1.374 . S
C1684 H1658 0.950 . S
C1684 C1680 1.385 . S
C1684 C1683 1.374 . S
C1685 C1682 1.499 . S
C1685 C1686 1.373 . S
C1685 C1687 1.389 . S
C1686 H1659 0.950 . S
C1686 C1672 1.377 . S
C1686 C1685 1.373 . S
C1687 C1671 1.377 . S
C1687 C1685 1.389 . S
C1687 C1688 1.524 . S
C1688 C1687 1.524 . S
C1688 C1689 1.397 . S
C1688 C1693 1.363 . S
C1689 H1660 0.950 . S
C1689 C1688 1.397 . S
C1689 C1690 1.334 . S
C1690 H1661 0.950 . S
C1690 C1689 1.334 . S
C1690 C1691 1.287 . S
C1691 C1690 1.287 . S
C1691 C1692 1.524 . S
C1691 H1694 0.999 . S
C1692 H1662 0.950 . S
C1692 C1691 1.524 . S
C1692 C1693 1.415 . S
C1693 H1663 0.950 . S
C1693 C1688 1.363 . S
C1693 C1692 1.415 . S
H1694 C1691 0.999 . S
H1695 C1676 0.913 . S
H1696 C1714 0.951 . S
H1697 C1716 0.951 . S
H1698 C1718 0.950 . S
H1699 C1719 0.950 . S
H1700 C1721 0.950 . S
H1701 C1724 0.950 . S
H1702 C1725 0.950 . S
H1703 C1727 0.950 . S
H1704 C1728 0.950 . S
H1705 C1729 0.951 . S
H1706 C1731 0.951 . S
H1707 C1733 0.950 . S
H1708 C1734 0.950 . S
H1709 C1736 0.950 . S
H1710 C1739 0.950 . S
H1711 C1740 0.950 . S
H1712 C1742 0.950 . S
H1713 C1743 0.950 . S
C1714 H1696 0.951 . S
C1714 C1715 1.366 . S
C1714 C1716 1.388 . S
C1715 C1714 1.366 . S
C1715 C1719 1.385 . S
C1716 H1697 0.951 . S
C1716 C1714 1.388 . S
C1716 C1717 1.366 . S
C1717 C1716 1.366 . S
C1717 C1718 1.414 . S
C1717 C1720 1.499 . S
C1718 H1698 0.950 . S
C1718 C1717 1.414 . S
C1718 C1719 1.374 . S
C1719 H1699 0.950 . S
C1719 C1715 1.385 . S
C1719 C1718 1.374 . S
C1720 C1717 1.499 . S
C1720 C1721 1.373 . S
C1720 C1722 1.389 . S
C1721 H1700 0.950 . S
C1721 C1720 1.373 . S
C1721 C1737 1.377 . S
C1722 C1720 1.389 . S
C1722 C1723 1.524 . S
C1722 C1736 1.377 . S
C1723 C1722 1.524 . S
C1723 C1724 1.397 . S
C1723 C1728 1.363 . S
C1724 H1701 0.950 . S
C1724 C1723 1.397 . S
C1724 C1725 1.334 . S
C1725 H1702 0.950 . S
C1725 C1724 1.334 . S
C1725 C1726 1.287 . S
C1726 C1725 1.287 . S
C1726 C1727 1.524 . S
C1726 H1745 0.913 . S
C1727 H1703 0.950 . S
C1727 C1726 1.524 . S
C1727 C1728 1.415 . S
C1728 H1704 0.950 . S
C1728 C1723 1.363 . S
C1728 C1727 1.415 . S
C1729 H1705 0.951 . S
C1729 C1730 1.366 . S
C1729 C1731 1.388 . S
C1730 C1729 1.366 . S
C1730 C1734 1.385 . S
C1731 H1706 0.951 . S
C1731 C1729 1.388 . S
C1731 C1732 1.366 . S
C1732 C1731 1.366 . S
C1732 C1733 1.414 . S
C1732 C1735 1.499 . S
C1733 H1707 0.950 . S
C1733 C1732 1.414 . S
C1733 C1734 1.374 . S
C1734 H1708 0.950 . S
C1734 C1730 1.385 . S
C1734 C1733 1.374 . S
C1735 C1732 1.499 . S
C1735 C1736 1.373 . S
C1735 C1737 1.389 . S
C1736 H1709 0.950 . S
C1736 C1722 1.377 . S
C1736 C1735 1.373 . S
C1737 C1721 1.377 . S
C1737 C1735 1.389 . S
C1737 C1738 1.524 . S
C1738 C1737 1.524 . S
C1738 C1739 1.397 . S
C1738 C1743 1.363 . S
C1739 H1710 0.950 . S
C1739 C1738 1.397 . S
C1739 C1740 1.334 . S
C1740 H1711 0.950 . S
C1740 C1739 1.334 . S
C1740 C1741 1.287 . S
C1741 C1740 1.287 . S
C1741 C1742 1.524 . S
C1741 H1744 0.999 . S
C1742 H1712 0.950 . S
C1742 C1741 1.524 . S
C1742 C1743 1.415 . S
C1743 H1713 0.950 . S
C1743 C1738 1.363 . S
C1743 C1742 1.415 . S
H1744 C1741 0.999 . S
H1745 C1726 0.913 . S
H1746 C1764 0.951 . S
H1747 C1766 0.951 . S
H1748 C1768 0.950 . S
H1749 C1769 0.950 . S
H1750 C1771 0.950 . S
H1751 C1774 0.950 . S
H1752 C1775 0.950 . S
H1753 C1777 0.950 . S
H1754 C1778 0.950 . S
H1755 C1779 0.951 . S
H1756 C1781 0.951 . S
H1757 C1783 0.950 . S
H1758 C1784 0.950 . S
H1759 C1786 0.950 . S
H1760 C1789 0.950 . S
H1761 C1790 0.950 . S
H1762 C1792 0.950 . S
H1763 C1793 0.950 . S
C1764 H1746 0.951 . S
C1764 C1765 1.366 . S
C1764 C1766 1.388 . S
C1765 C1764 1.366 . S
C1765 C1769 1.385 . S
C1766 H1747 0.951 . S
C1766 C1764 1.388 . S
C1766 C1767 1.366 . S
C1767 C1766 1.366 . S
C1767 C1768 1.414 . S
C1767 C1770 1.499 . S
C1768 H1748 0.950 . S
C1768 C1767 1.414 . S
C1768 C1769 1.374 . S
C1769 H1749 0.950 . S
C1769 C1765 1.385 . S
C1769 C1768 1.374 . S
C1770 C1767 1.499 . S
C1770 C1771 1.373 . S
C1770 C1772 1.389 . S
C1771 H1750 0.950 . S
C1771 C1770 1.373 . S
C1771 C1787 1.377 . S
C1772 C1770 1.389 . S
C1772 C1773 1.524 . S
C1772 C1786 1.377 . S
C1773 C1772 1.524 . S
C1773 C1774 1.397 . S
C1773 C1778 1.363 . S
C1774 H1751 0.950 . S
C1774 C1773 1.397 . S
C1774 C1775 1.334 . S
C1775 H1752 0.950 . S
C1775 C1774 1.334 . S
C1775 C1776 1.287 . S
C1776 C1775 1.287 . S
C1776 C1777 1.524 . S
C1776 H1795 0.913 . S
C1777 H1753 0.950 . S
C1777 C1776 1.524 . S
C1777 C1778 1.415 . S
C1778 H1754 0.950 . S
C1778 C1773 1.363 . S
C1778 C1777 1.415 . S
C1779 H1755 0.951 . S
C1779 C1780 1.366 . S
C1779 C1781 1.388 . S
C1780 C1779 1.366 . S
C1780 C1784 1.385 . S
C1781 H1756 0.951 . S
C1781 C1779 1.388 . S
C1781 C1782 1.366 . S
C1782 C1781 1.366 . S
C1782 C1783 1.414 . S
C1782 C1785 1.499 . S
C1783 H1757 0.950 . S
C1783 C1782 1.414 . S
C1783 C1784 1.374 . S
C1784 H1758 0.950 . S
C1784 C1780 1.385 . S
C1784 C1783 1.374 . S
C1785 C1782 1.499 . S
C1785 C1786 1.373 . S
C1785 C1787 1.389 . S
C1786 H1759 0.950 . S
C1786 C1772 1.377 . S
C1786 C1785 1.373 . S
C1787 C1771 1.377 . S
C1787 C1785 1.389 . S
C1787 C1788 1.524 . S
C1788 C1787 1.524 . S
C1788 C1789 1.397 . S
C1788 C1793 1.363 . S
C1789 H1760 0.950 . S
C1789 C1788 1.397 . S
C1789 C1790 1.334 . S
C1790 H1761 0.950 . S
C1790 C1789 1.334 . S
C1790 C1791 1.287 . S
C1791 C1790 1.287 . S
C1791 C1792 1.524 . S
C1791 H1794 0.999 . S
C1792 H1762 0.950 . S
C1792 C1791 1.524 . S
C1792 C1793 1.415 . S
C1793 H1763 0.950 . S
C1793 C1788 1.363 . S
C1793 C1792 1.415 . S
H1794 C1791 0.999 . S
H1795 C1776 0.913 . S
H1796 C1814 0.951 . S
H1797 C1816 0.951 . S
H1798 C1818 0.950 . S
H1799 C1819 0.950 . S
H1800 C1821 0.950 . S
H1801 C1824 0.950 . S
H1802 C1825 0.950 . S
H1803 C1827 0.950 . S
H1804 C1828 0.950 . S
H1805 C1829 0.951 . S
H1806 C1831 0.951 . S
H1807 C1833 0.950 . S
H1808 C1834 0.950 . S
H1809 C1836 0.950 . S
H1810 C1839 0.950 . S
H1811 C1840 0.950 . S
H1812 C1842 0.950 . S
H1813 C1843 0.950 . S
C1814 H1796 0.951 . S
C1814 C1815 1.366 . S
C1814 C1816 1.388 . S
C1815 C1814 1.366 . S
C1815 C1819 1.385 . S
C1816 H1797 0.951 . S
C1816 C1814 1.388 . S
C1816 C1817 1.366 . S
C1817 C1816 1.366 . S
C1817 C1818 1.414 . S
C1817 C1820 1.499 . S
C1818 H1798 0.950 . S
C1818 C1817 1.414 . S
C1818 C1819 1.374 . S
C1819 H1799 0.950 . S
C1819 C1815 1.385 . S
C1819 C1818 1.374 . S
C1820 C1817 1.499 . S
C1820 C1821 1.373 . S
C1820 C1822 1.389 . S
C1821 H1800 0.950 . S
C1821 C1820 1.373 . S
C1821 C1837 1.377 . S
C1822 C1820 1.389 . S
C1822 C1823 1.524 . S
C1822 C1836 1.377 . S
C1823 C1822 1.524 . S
C1823 C1824 1.397 . S
C1823 C1828 1.363 . S
C1824 H1801 0.950 . S
C1824 C1823 1.397 . S
C1824 C1825 1.334 . S
C1825 H1802 0.950 . S
C1825 C1824 1.334 . S
C1825 C1826 1.287 . S
C1826 C1825 1.287 . S
C1826 C1827 1.524 . S
C1826 H1845 0.913 . S
C1827 H1803 0.950 . S
C1827 C1826 1.524 . S
C1827 C1828 1.415 . S
C1828 H1804 0.950 . S
C1828 C1823 1.363 . S
C1828 C1827 1.415 . S
C1829 H1805 0.951 . S
C1829 C1830 1.366 . S
C1829 C1831 1.388 . S
C1830 C1829 1.366 . S
C1830 C1834 1.385 . S
C1831 H1806 0.951 . S
C1831 C1829 1.388 . S
C1831 C1832 1.366 . S
C1832 C1831 1.366 . S
C1832 C1833 1.414 . S
C1832 C1835 1.499 . S
C1833 H1807 0.950 . S
C1833 C1832 1.414 . S
C1833 C1834 1.374 . S
C1834 H1808 0.950 . S
C1834 C1830 1.385 . S
C1834 C1833 1.374 . S
C1835 C1832 1.499 . S
C1835 C1836 1.373 . S
C1835 C1837 1.389 . S
C1836 H1809 0.950 . S
C1836 C1822 1.377 . S
C1836 C1835 1.373 . S
C1837 C1821 1.377 . S
C1837 C1835 1.389 . S
C1837 C1838 1.524 . S
C1838 C1837 1.524 . S
C1838 C1839 1.397 . S
C1838 C1843 1.363 . S
C1839 H1810 0.950 . S
C1839 C1838 1.397 . S
C1839 C1840 1.334 . S
C1840 H1811 0.950 . S
C1840 C1839 1.334 . S
C1840 C1841 1.287 . S
C1841 C1840 1.287 . S
C1841 C1842 1.524 . S
C1841 H1844 0.999 . S
C1842 H1812 0.950 . S
C1842 C1841 1.524 . S
C1842 C1843 1.415 . S
C1843 H1813 0.950 . S
C1843 C1838 1.363 . S
C1843 C1842 1.415 . S
H1844 C1841 0.999 . S
H1845 C1826 0.913 . S
H1846 C1864 0.951 . S
H1847 C1866 0.951 . S
H1848 C1868 0.950 . S
H1849 C1869 0.950 . S
H1850 C1871 0.950 . S
H1851 C1874 0.950 . S
H1852 C1875 0.950 . S
H1853 C1877 0.950 . S
H1854 C1878 0.950 . S
H1855 C1879 0.951 . S
H1856 C1881 0.951 . S
H1857 C1883 0.950 . S
H1858 C1884 0.950 . S
H1859 C1886 0.950 . S
H1860 C1889 0.950 . S
H1861 C1890 0.950 . S
H1862 C1892 0.950 . S
H1863 C1893 0.950 . S
C1864 H1846 0.951 . S
C1864 C1865 1.366 . S
C1864 C1866 1.388 . S
C1865 C1864 1.366 . S
C1865 C1869 1.385 . S
C1866 H1847 0.951 . S
C1866 C1864 1.388 . S
C1866 C1867 1.366 . S
C1867 C1866 1.366 . S
C1867 C1868 1.414 . S
C1867 C1870 1.499 . S
C1868 H1848 0.950 . S
C1868 C1867 1.414 . S
C1868 C1869 1.374 . S
C1869 H1849 0.950 . S
C1869 C1865 1.385 . S
C1869 C1868 1.374 . S
C1870 C1867 1.499 . S
C1870 C1871 1.373 . S
C1870 C1872 1.389 . S
C1871 H1850 0.950 . S
C1871 C1870 1.373 . S
C1871 C1887 1.377 . S
C1872 C1870 1.389 . S
C1872 C1873 1.524 . S
C1872 C1886 1.377 . S
C1873 C1872 1.524 . S
C1873 C1874 1.397 . S
C1873 C1878 1.363 . S
C1874 H1851 0.950 . S
C1874 C1873 1.397 . S
C1874 C1875 1.334 . S
C1875 H1852 0.950 . S
C1875 C1874 1.334 . S
C1875 C1876 1.287 . S
C1876 C1875 1.287 . S
C1876 C1877 1.524 . S
C1876 H1895 0.913 . S
C1877 H1853 0.950 . S
C1877 C1876 1.524 . S
C1877 C1878 1.415 . S
C1878 H1854 0.950 . S
C1878 C1873 1.363 . S
C1878 C1877 1.415 . S
C1879 H1855 0.951 . S
C1879 C1880 1.366 . S
C1879 C1881 1.388 . S
C1880 C1879 1.366 . S
C1880 C1884 1.385 . S
C1881 H1856 0.951 . S
C1881 C1879 1.388 . S
C1881 C1882 1.366 . S
C1882 C1881 1.366 . S
C1882 C1883 1.414 . S
C1882 C1885 1.499 . S
C1883 H1857 0.950 . S
C1883 C1882 1.414 . S
C1883 C1884 1.374 . S
C1884 H1858 0.950 . S
C1884 C1880 1.385 . S
C1884 C1883 1.374 . S
C1885 C1882 1.499 . S
C1885 C1886 1.373 . S
C1885 C1887 1.389 . S
C1886 H1859 0.950 . S
C1886 C1872 1.377 . S
C1886 C1885 1.373 . S
C1887 C1871 1.377 . S
C1887 C1885 1.389 . S
C1887 C1888 1.524 . S
C1888 C1887 1.524 . S
C1888 C1889 1.397 . S
C1888 C1893 1.363 . S
C1889 H1860 0.950 . S
C1889 C1888 1.397 . S
C1889 C1890 1.334 . S
C1890 H1861 0.950 . S
C1890 C1889 1.334 . S
C1890 C1891 1.287 . S
C1891 C1890 1.287 . S
C1891 C1892 1.524 . S
C1891 H1894 0.999 . S
C1892 H1862 0.950 . S
C1892 C1891 1.524 . S
C1892 C1893 1.415 . S
C1893 H1863 0.950 . S
C1893 C1888 1.363 . S
C1893 C1892 1.415 . S
H1894 C1891 0.999 . S
H1895 C1876 0.913 . S
H1896 C1914 0.951 . S
H1897 C1916 0.951 . S
H1898 C1918 0.950 . S
H1899 C1919 0.950 . S
H1900 C1921 0.950 . S
H1901 C1924 0.950 . S
H1902 C1925 0.950 . S
H1903 C1927 0.950 . S
H1904 C1928 0.950 . S
H1905 C1929 0.951 . S
H1906 C1931 0.951 . S
H1907 C1933 0.950 . S
H1908 C1934 0.950 . S
H1909 C1936 0.950 . S
H1910 C1939 0.950 . S
H1911 C1940 0.950 . S
H1912 C1942 0.950 . S
H1913 C1943 0.950 . S
C1914 H1896 0.951 . S
C1914 C1915 1.366 . S
C1914 C1916 1.388 . S
C1915 C1914 1.366 . S
C1915 C1919 1.385 . S
C1916 H1897 0.951 . S
C1916 C1914 1.388 . S
C1916 C1917 1.366 . S
C1917 C1916 1.366 . S
C1917 C1918 1.414 . S
C1917 C1920 1.499 . S
C1918 H1898 0.950 . S
C1918 C1917 1.414 . S
C1918 C1919 1.374 . S
C1919 H1899 0.950 . S
C1919 C1915 1.385 . S
C1919 C1918 1.374 . S
C1920 C1917 1.499 . S
C1920 C1921 1.373 . S
C1920 C1922 1.389 . S
C1921 H1900 0.950 . S
C1921 C1920 1.373 . S
C1921 C1937 1.377 . S
C1922 C1920 1.389 . S
C1922 C1923 1.524 . S
C1922 C1936 1.377 . S
C1923 C1922 1.524 . S
C1923 C1924 1.397 . S
C1923 C1928 1.363 . S
C1924 H1901 0.950 . S
C1924 C1923 1.397 . S
C1924 C1925 1.334 . S
C1925 H1902 0.950 . S
C1925 C1924 1.334 . S
C1925 C1926 1.287 . S
C1926 C1925 1.287 . S
C1926 C1927 1.524 . S
C1926 H1945 0.913 . S
C1927 H1903 0.950 . S
C1927 C1926 1.524 . S
C1927 C1928 1.415 . S
C1928 H1904 0.950 . S
C1928 C1923 1.363 . S
C1928 C1927 1.415 . S
C1929 H1905 0.951 . S
C1929 C1930 1.366 . S
C1929 C1931 1.388 . S
C1930 C1929 1.366 . S
C1930 C1934 1.385 . S
C1931 H1906 0.951 . S
C1931 C1929 1.388 . S
C1931 C1932 1.366 . S
C1932 C1931 1.366 . S
C1932 C1933 1.414 . S
C1932 C1935 1.499 . S
C1933 H1907 0.950 . S
C1933 C1932 1.414 . S
C1933 C1934 1.374 . S
C1934 H1908 0.950 . S
C1934 C1930 1.385 . S
C1934 C1933 1.374 . S
C1935 C1932 1.499 . S
C1935 C1936 1.373 . S
C1935 C1937 1.389 . S
C1936 H1909 0.950 . S
C1936 C1922 1.377 . S
C1936 C1935 1.373 . S
C1937 C1921 1.377 . S
C1937 C1935 1.389 . S
C1937 C1938 1.524 . S
C1938 C1937 1.524 . S
C1938 C1939 1.397 . S
C1938 C1943 1.363 . S
C1939 H1910 0.950 . S
C1939 C1938 1.397 . S
C1939 C1940 1.334 . S
C1940 H1911 0.950 . S
C1940 C1939 1.334 . S
C1940 C1941 1.287 . S
C1941 C1940 1.287 . S
C1941 C1942 1.524 . S
C1941 H1944 0.999 . S
C1942 H1912 0.950 . S
C1942 C1941 1.524 . S
C1942 C1943 1.415 . S
C1943 H1913 0.950 . S
C1943 C1938 1.363 . S
C1943 C1942 1.415 . S
H1944 C1941 0.999 . S
H1945 C1926 0.913 . S
H1946 C1964 0.951 . S
H1947 C1966 0.951 . S
H1948 C1968 0.950 . S
H1949 C1969 0.950 . S
H1950 C1971 0.950 . S
H1951 C1974 0.950 . S
H1952 C1975 0.950 . S
H1953 C1977 0.950 . S
H1954 C1978 0.950 . S
H1955 C1979 0.951 . S
H1956 C1981 0.951 . S
H1957 C1983 0.950 . S
H1958 C1984 0.950 . S
H1959 C1986 0.950 . S
H1960 C1989 0.950 . S
H1961 C1990 0.950 . S
H1962 C1992 0.950 . S
H1963 C1993 0.950 . S
C1964 H1946 0.951 . S
C1964 C1965 1.366 . S
C1964 C1966 1.388 . S
C1965 C1964 1.366 . S
C1965 C1969 1.385 . S
C1966 H1947 0.951 . S
C1966 C1964 1.388 . S
C1966 C1967 1.366 . S
C1967 C1966 1.366 . S
C1967 C1968 1.414 . S
C1967 C1970 1.499 . S
C1968 H1948 0.950 . S
C1968 C1967 1.414 . S
C1968 C1969 1.374 . S
C1969 H1949 0.950 . S
C1969 C1965 1.385 . S
C1969 C1968 1.374 . S
C1970 C1967 1.499 . S
C1970 C1971 1.373 . S
C1970 C1972 1.389 . S
C1971 H1950 0.950 . S
C1971 C1970 1.373 . S
C1971 C1987 1.377 . S
C1972 C1970 1.389 . S
C1972 C1973 1.524 . S
C1972 C1986 1.377 . S
C1973 C1972 1.524 . S
C1973 C1974 1.397 . S
C1973 C1978 1.363 . S
C1974 H1951 0.950 . S
C1974 C1973 1.397 . S
C1974 C1975 1.334 . S
C1975 H1952 0.950 . S
C1975 C1974 1.334 . S
C1975 C1976 1.287 . S
C1976 C1975 1.287 . S
C1976 C1977 1.524 . S
C1976 H1995 0.913 . S
C1977 H1953 0.950 . S
C1977 C1976 1.524 . S
C1977 C1978 1.415 . S
C1978 H1954 0.950 . S
C1978 C1973 1.363 . S
C1978 C1977 1.415 . S
C1979 H1955 0.951 . S
C1979 C1980 1.366 . S
C1979 C1981 1.388 . S
C1980 C1979 1.366 . S
C1980 C1984 1.385 . S
C1981 H1956 0.951 . S
C1981 C1979 1.388 . S
C1981 C1982 1.366 . S
C1982 C1981 1.366 . S
C1982 C1983 1.414 . S
C1982 C1985 1.499 . S
C1983 H1957 0.950 . S
C1983 C1982 1.414 . S
C1983 C1984 1.374 . S
C1984 H1958 0.950 . S
C1984 C1980 1.385 . S
C1984 C1983 1.374 . S
C1985 C1982 1.499 . S
C1985 C1986 1.373 . S
C1985 C1987 1.389 . S
C1986 H1959 0.950 . S
C1986 C1972 1.377 . S
C1986 C1985 1.373 . S
C1987 C1971 1.377 . S
C1987 C1985 1.389 . S
C1987 C1988 1.524 . S
C1988 C1987 1.524 . S
C1988 C1989 1.397 . S
C1988 C1993 1.363 . S
C1989 H1960 0.950 . S
C1989 C1988 1.397 . S
C1989 C1990 1.334 . S
C1990 H1961 0.950 . S
C1990 C1989 1.334 . S
C1990 C1991 1.287 . S
C1991 C1990 1.287 . S
C1991 C1992 1.524 . S
C1991 H1994 0.999 . S
C1992 H1962 0.950 . S
C1992 C1991 1.524 . S
C1992 C1993 1.415 . S
C1993 H1963 0.950 . S
C1993 C1988 1.363 . S
C1993 C1992 1.415 . S
H1994 C1991 0.999 . S
H1995 C1976 0.913 . S
H1996 C2014 0.951 . S
H1997 C2016 0.951 . S
H1998 C2018 0.950 . S
H1999 C2019 0.950 . S
H2000 C2021 0.950 . S
H2001 C2024 0.950 . S
H2002 C2025 0.950 . S
H2003 C2027 0.950 . S
H2004 C2028 0.950 . S
H2005 C2029 0.951 . S
H2006 C2031 0.951 . S
H2007 C2033 0.950 . S
H2008 C2034 0.950 . S
H2009 C2036 0.950 . S
H2010 C2039 0.950 . S
H2011 C2040 0.950 . S
H2012 C2042 0.950 . S
H2013 C2043 0.950 . S
C2014 H1996 0.951 . S
C2014 C2015 1.366 . S
C2014 C2016 1.388 . S
C2015 C2014 1.366 . S
C2015 C2019 1.385 . S
C2016 H1997 0.951 . S
C2016 C2014 1.388 . S
C2016 C2017 1.366 . S
C2017 C2016 1.366 . S
C2017 C2018 1.414 . S
C2017 C2020 1.499 . S
C2018 H1998 0.950 . S
C2018 C2017 1.414 . S
C2018 C2019 1.374 . S
C2019 H1999 0.950 . S
C2019 C2015 1.385 . S
C2019 C2018 1.374 . S
C2020 C2017 1.499 . S
C2020 C2021 1.373 . S
C2020 C2022 1.389 . S
C2021 H2000 0.950 . S
C2021 C2020 1.373 . S
C2021 C2037 1.377 . S
C2022 C2020 1.389 . S
C2022 C2023 1.524 . S
C2022 C2036 1.377 . S
C2023 C2022 1.524 . S
C2023 C2024 1.397 . S
C2023 C2028 1.363 . S
C2024 H2001 0.950 . S
C2024 C2023 1.397 . S
C2024 C2025 1.334 . S
C2025 H2002 0.950 . S
C2025 C2024 1.334 . S
C2025 C2026 1.287 . S
C2026 C2025 1.287 . S
C2026 C2027 1.524 . S
C2026 H2045 0.913 . S
C2027 H2003 0.950 . S
C2027 C2026 1.524 . S
C2027 C2028 1.415 . S
C2028 H2004 0.950 . S
C2028 C2023 1.363 . S
C2028 C2027 1.415 . S
C2029 H2005 0.951 . S
C2029 C2030 1.366 . S
C2029 C2031 1.388 . S
C2030 C2029 1.366 . S
C2030 C2034 1.385 . S
C2031 H2006 0.951 . S
C2031 C2029 1.388 . S
C2031 C2032 1.366 . S
C2032 C2031 1.366 . S
C2032 C2033 1.414 . S
C2032 C2035 1.499 . S
C2033 H2007 0.950 . S
C2033 C2032 1.414 . S
C2033 C2034 1.374 . S
C2034 H2008 0.950 . S
C2034 C2030 1.385 . S
C2034 C2033 1.374 . S
C2035 C2032 1.499 . S
C2035 C2036 1.373 . S
C2035 C2037 1.389 . S
C2036 H2009 0.950 . S
C2036 C2022 1.377 . S
C2036 C2035 1.373 . S
C2037 C2021 1.377 . S
C2037 C2035 1.389 . S
C2037 C2038 1.524 . S
C2038 C2037 1.524 . S
C2038 C2039 1.397 . S
C2038 C2043 1.363 . S
C2039 H2010 0.950 . S
C2039 C2038 1.397 . S
C2039 C2040 1.334 . S
C2040 H2011 0.950 . S
C2040 C2039 1.334 . S
C2040 C2041 1.287 . S
C2041 C2040 1.287 . S
C2041 C2042 1.524 . S
C2041 H2044 0.999 . S
C2042 H2012 0.950 . S
C2042 C2041 1.524 . S
C2042 C2043 1.415 . S
C2043 H2013 0.950 . S
C2043 C2038 1.363 . S
C2043 C2042 1.415 . S
H2044 C2041 0.999 . S
H2045 C2026 0.913 . S
H2046 C2064 0.951 . S
H2047 C2066 0.951 . S
H2048 C2068 0.950 . S
H2049 C2069 0.950 . S
H2050 C2071 0.950 . S
H2051 C2074 0.950 . S
H2052 C2075 0.950 . S
H2053 C2077 0.950 . S
H2054 C2078 0.950 . S
H2055 C2079 0.951 . S
H2056 C2081 0.951 . S
H2057 C2083 0.950 . S
H2058 C2084 0.950 . S
H2059 C2086 0.950 . S
H2060 C2089 0.950 . S
H2061 C2090 0.950 . S
H2062 C2092 0.950 . S
H2063 C2093 0.950 . S
C2064 H2046 0.951 . S
C2064 C2065 1.366 . S
C2064 C2066 1.388 . S
C2065 C2064 1.366 . S
C2065 C2069 1.385 . S
C2066 H2047 0.951 . S
C2066 C2064 1.388 . S
C2066 C2067 1.366 . S
C2067 C2066 1.366 . S
C2067 C2068 1.414 . S
C2067 C2070 1.499 . S
C2068 H2048 0.950 . S
C2068 C2067 1.414 . S
C2068 C2069 1.374 . S
C2069 H2049 0.950 . S
C2069 C2065 1.385 . S
C2069 C2068 1.374 . S
C2070 C2067 1.499 . S
C2070 C2071 1.373 . S
C2070 C2072 1.389 . S
C2071 H2050 0.950 . S
C2071 C2070 1.373 . S
C2071 C2087 1.377 . S
C2072 C2070 1.389 . S
C2072 C2073 1.524 . S
C2072 C2086 1.377 . S
C2073 C2072 1.524 . S
C2073 C2074 1.397 . S
C2073 C2078 1.363 . S
C2074 H2051 0.950 . S
C2074 C2073 1.397 . S
C2074 C2075 1.334 . S
C2075 H2052 0.950 . S
C2075 C2074 1.334 . S
C2075 C2076 1.287 . S
C2076 C2075 1.287 . S
C2076 C2077 1.524 . S
C2076 H2095 0.913 . S
C2077 H2053 0.950 . S
C2077 C2076 1.524 . S
C2077 C2078 1.415 . S
C2078 H2054 0.950 . S
C2078 C2073 1.363 . S
C2078 C2077 1.415 . S
C2079 H2055 0.951 . S
C2079 C2080 1.366 . S
C2079 C2081 1.388 . S
C2080 C2079 1.366 . S
C2080 C2084 1.385 . S
C2081 H2056 0.951 . S
C2081 C2079 1.388 . S
C2081 C2082 1.366 . S
C2082 C2081 1.366 . S
C2082 C2083 1.414 . S
C2082 C2085 1.499 . S
C2083 H2057 0.950 . S
C2083 C2082 1.414 . S
C2083 C2084 1.374 . S
C2084 H2058 0.950 . S
C2084 C2080 1.385 . S
C2084 C2083 1.374 . S
C2085 C2082 1.499 . S
C2085 C2086 1.373 . S
C2085 C2087 1.389 . S
C2086 H2059 0.950 . S
C2086 C2072 1.377 . S
C2086 C2085 1.373 . S
C2087 C2071 1.377 . S
C2087 C2085 1.389 . S
C2087 C2088 1.524 . S
C2088 C2087 1.524 . S
C2088 C2089 1.397 . S
C2088 C2093 1.363 . S
C2089 H2060 0.950 . S
C2089 C2088 1.397 . S
C2089 C2090 1.334 . S
C2090 H2061 0.950 . S
C2090 C2089 1.334 . S
C2090 C2091 1.287 . S
C2091 C2090 1.287 . S
C2091 C2092 1.524 . S
C2091 H2094 0.999 . S
C2092 H2062 0.950 . S
C2092 C2091 1.524 . S
C2092 C2093 1.415 . S
C2093 H2063 0.950 . S
C2093 C2088 1.363 . S
C2093 C2092 1.415 . S
H2094 C2091 0.999 . S
H2095 C2076 0.913 . S
H2096 C2114 0.951 . S
H2097 C2116 0.951 . S
H2098 C2118 0.950 . S
H2099 C2119 0.950 . S
H2100 C2121 0.950 . S
H2101 C2124 0.950 . S
H2102 C2125 0.950 . S
H2103 C2127 0.950 . S
H2104 C2128 0.950 . S
H2105 C2129 0.951 . S
H2106 C2131 0.951 . S
H2107 C2133 0.950 . S
H2108 C2134 0.950 . S
H2109 C2136 0.950 . S
H2110 C2139 0.950 . S
H2111 C2140 0.950 . S
H2112 C2142 0.950 . S
H2113 C2143 0.950 . S
C2114 H2096 0.951 . S
C2114 C2115 1.366 . S
C2114 C2116 1.388 . S
C2115 C2114 1.366 . S
C2115 C2119 1.385 . S
C2116 H2097 0.951 . S
C2116 C2114 1.388 . S
C2116 C2117 1.366 . S
C2117 C2116 1.366 . S
C2117 C2118 1.414 . S
C2117 C2120 1.499 . S
C2118 H2098 0.950 . S
C2118 C2117 1.414 . S
C2118 C2119 1.374 . S
C2119 H2099 0.950 . S
C2119 C2115 1.385 . S
C2119 C2118 1.374 . S
C2120 C2117 1.499 . S
C2120 C2121 1.373 . S
C2120 C2122 1.389 . S
C2121 H2100 0.950 . S
C2121 C2120 1.373 . S
C2121 C2137 1.377 . S
C2122 C2120 1.389 . S
C2122 C2123 1.524 . S
C2122 C2136 1.377 . S
C2123 C2122 1.524 . S
C2123 C2124 1.397 . S
C2123 C2128 1.363 . S
C2124 H2101 0.950 . S
C2124 C2123 1.397 . S
C2124 C2125 1.334 . S
C2125 H2102 0.950 . S
C2125 C2124 1.334 . S
C2125 C2126 1.287 . S
C2126 C2125 1.287 . S
C2126 C2127 1.524 . S
C2126 H2145 0.913 . S
C2127 H2103 0.950 . S
C2127 C2126 1.524 . S
C2127 C2128 1.415 . S
C2128 H2104 0.950 . S
C2128 C2123 1.363 . S
C2128 C2127 1.415 . S
C2129 H2105 0.951 . S
C2129 C2130 1.366 . S
C2129 C2131 1.388 . S
C2130 C2129 1.366 . S
C2130 C2134 1.385 . S
C2131 H2106 0.951 . S
C2131 C2129 1.388 . S
C2131 C2132 1.366 . S
C2132 C2131 1.366 . S
C2132 C2133 1.414 . S
C2132 C2135 1.499 . S
C2133 H2107 0.950 . S
C2133 C2132 1.414 . S
C2133 C2134 1.374 . S
C2134 H2108 0.950 . S
C2134 C2130 1.385 . S
C2134 C2133 1.374 . S
C2135 C2132 1.499 . S
C2135 C2136 1.373 . S
C2135 C2137 1.389 . S
C2136 H2109 0.950 . S
C2136 C2122 1.377 . S
C2136 C2135 1.373 . S
C2137 C2121 1.377 . S
C2137 C2135 1.389 . S
C2137 C2138 1.524 . S
C2138 C2137 1.524 . S
C2138 C2139 1.397 . S
C2138 C2143 1.363 . S
C2139 H2110 0.950 . S
C2139 C2138 1.397 . S
C2139 C2140 1.334 . S
C2140 H2111 0.950 . S
C2140 C2139 1.334 . S
C2140 C2141 1.287 . S
C2141 C2140 1.287 . S
C2141 C2142 1.524 . S
C2141 H2144 0.999 . S
C2142 H2112 0.950 . S
C2142 C2141 1.524 . S
C2142 C2143 1.415 . S
C2143 H2113 0.950 . S
C2143 C2138 1.363 . S
C2143 C2142 1.415 . S
H2144 C2141 0.999 . S
H2145 C2126 0.913 . S
H2146 C2164 0.951 . S
H2147 C2166 0.951 . S
H2148 C2168 0.950 . S
H2149 C2169 0.950 . S
H2150 C2171 0.950 . S
H2151 C2174 0.950 . S
H2152 C2175 0.950 . S
H2153 C2177 0.950 . S
H2154 C2178 0.950 . S
H2155 C2179 0.951 . S
H2156 C2181 0.951 . S
H2157 C2183 0.950 . S
H2158 C2184 0.950 . S
H2159 C2186 0.950 . S
H2160 C2189 0.950 . S
H2161 C2190 0.950 . S
H2162 C2192 0.950 . S
H2163 C2193 0.950 . S
C2164 H2146 0.951 . S
C2164 C2165 1.366 . S
C2164 C2166 1.388 . S
C2165 C2164 1.366 . S
C2165 C2169 1.385 . S
C2166 H2147 0.951 . S
C2166 C2164 1.388 . S
C2166 C2167 1.366 . S
C2167 C2166 1.366 . S
C2167 C2168 1.414 . S
C2167 C2170 1.499 . S
C2168 H2148 0.950 . S
C2168 C2167 1.414 . S
C2168 C2169 1.374 . S
C2169 H2149 0.950 . S
C2169 C2165 1.385 . S
C2169 C2168 1.374 . S
C2170 C2167 1.499 . S
C2170 C2171 1.373 . S
C2170 C2172 1.389 . S
C2171 H2150 0.950 . S
C2171 C2170 1.373 . S
C2171 C2187 1.377 . S
C2172 C2170 1.389 . S
C2172 C2173 1.524 . S
C2172 C2186 1.377 . S
C2173 C2172 1.524 . S
C2173 C2174 1.397 . S
C2173 C2178 1.363 . S
C2174 H2151 0.950 . S
C2174 C2173 1.397 . S
C2174 C2175 1.334 . S
C2175 H2152 0.950 . S
C2175 C2174 1.334 . S
C2175 C2176 1.287 . S
C2176 C2175 1.287 . S
C2176 C2177 1.524 . S
C2176 H2195 0.913 . S
C2177 H2153 0.950 . S
C2177 C2176 1.524 . S
C2177 C2178 1.415 . S
C2178 H2154 0.950 . S
C2178 C2173 1.363 . S
C2178 C2177 1.415 . S
C2179 H2155 0.951 . S
C2179 C2180 1.366 . S
C2179 C2181 1.388 . S
C2180 C2179 1.366 . S
C2180 C2184 1.385 . S
C2181 H2156 0.951 . S
C2181 C2179 1.388 . S
C2181 C2182 1.366 . S
C2182 C2181 1.366 . S
C2182 C2183 1.414 . S
C2182 C2185 1.499 . S
C2183 H2157 0.950 . S
C2183 C2182 1.414 . S
C2183 C2184 1.374 . S
C2184 H2158 0.950 . S
C2184 C2180 1.385 . S
C2184 C2183 1.374 . S
C2185 C2182 1.499 . S
C2185 C2186 1.373 . S
C2185 C2187 1.389 . S
C2186 H2159 0.950 . S
C2186 C2172 1.377 . S
C2186 C2185 1.373 . S
C2187 C2171 1.377 . S
C2187 C2185 1.389 . S
C2187 C2188 1.524 . S
C2188 C2187 1.524 . S
C2188 C2189 1.397 . S
C2188 C2193 1.363 . S
C2189 H2160 0.950 . S
C2189 C2188 1.397 . S
C2189 C2190 1.334 . S
C2190 H2161 0.950 . S
C2190 C2189 1.334 . S
C2190 C2191 1.287 . S
C2191 C2190 1.287 . S
C2191 C2192 1.524 . S
C2191 H2194 0.999 . S
C2192 H2162 0.950 . S
C2192 C2191 1.524 . S
C2192 C2193 1.415 . S
C2193 H2163 0.950 . S
C2193 C2188 1.363 . S
C2193 C2192 1.415 . S
H2194 C2191 0.999 . S
H2195 C2176 0.913 . S
H2196 C2214 0.951 . S
H2197 C2216 0.951 . S
H2198 C2218 0.950 . S
H2199 C2219 0.950 . S
H2200 C2221 0.950 . S
H2201 C2224 0.950 . S
H2202 C2225 0.950 . S
H2203 C2227 0.950 . S
H2204 C2228 0.950 . S
H2205 C2229 0.951 . S
H2206 C2231 0.951 . S
H2207 C2233 0.950 . S
H2208 C2234 0.950 . S
H2209 C2236 0.950 . S
H2210 C2239 0.950 . S
H2211 C2240 0.950 . S
H2212 C2242 0.950 . S
H2213 C2243 0.950 . S
C2214 H2196 0.951 . S
C2214 C2215 1.366 . S
C2214 C2216 1.388 . S
C2215 C2214 1.366 . S
C2215 C2219 1.385 . S
C2216 H2197 0.951 . S
C2216 C2214 1.388 . S
C2216 C2217 1.366 . S
C2217 C2216 1.366 . S
C2217 C2218 1.414 . S
C2217 C2220 1.499 . S
C2218 H2198 0.950 . S
C2218 C2217 1.414 . S
C2218 C2219 1.374 . S
C2219 H2199 0.950 . S
C2219 C2215 1.385 . S
C2219 C2218 1.374 . S
C2220 C2217 1.499 . S
C2220 C2221 1.373 . S
C2220 C2222 1.389 . S
C2221 H2200 0.950 . S
C2221 C2220 1.373 . S
C2221 C2237 1.377 . S
C2222 C2220 1.389 . S
C2222 C2223 1.524 . S
C2222 C2236 1.377 . S
C2223 C2222 1.524 . S
C2223 C2224 1.397 . S
C2223 C2228 1.363 . S
C2224 H2201 0.950 . S
C2224 C2223 1.397 . S
C2224 C2225 1.334 . S
C2225 H2202 0.950 . S
C2225 C2224 1.334 . S
C2225 C2226 1.287 . S
C2226 C2225 1.287 . S
C2226 C2227 1.524 . S
C2226 H2245 0.913 . S
C2227 H2203 0.950 . S
C2227 C2226 1.524 . S
C2227 C2228 1.415 . S
C2228 H2204 0.950 . S
C2228 C2223 1.363 . S
C2228 C2227 1.415 . S
C2229 H2205 0.951 . S
C2229 C2230 1.366 . S
C2229 C2231 1.388 . S
C2230 C2229 1.366 . S
C2230 C2234 1.385 . S
C2231 H2206 0.951 . S
C2231 C2229 1.388 . S
C2231 C2232 1.366 . S
C2232 C2231 1.366 . S
C2232 C2233 1.414 . S
C2232 C2235 1.499 . S
C2233 H2207 0.950 . S
C2233 C2232 1.414 . S
C2233 C2234 1.374 . S
C2234 H2208 0.950 . S
C2234 C2230 1.385 . S
C2234 C2233 1.374 . S
C2235 C2232 1.499 . S
C2235 C2236 1.373 . S
C2235 C2237 1.389 . S
C2236 H2209 0.950 . S
C2236 C2222 1.377 . S
C2236 C2235 1.373 . S
C2237 C2221 1.377 . S
C2237 C2235 1.389 . S
C2237 C2238 1.524 . S
C2238 C2237 1.524 . S
C2238 C2239 1.397 . S
C2238 C2243 1.363 . S
C2239 H2210 0.950 . S
C2239 C2238 1.397 . S
C2239 C2240 1.334 . S
C2240 H2211 0.950 . S
C2240 C2239 1.334 . S
C2240 C2241 1.287 . S
C2241 C2240 1.287 . S
C2241 C2242 1.524 . S
C2241 H2244 0.999 . S
C2242 H2212 0.950 . S
C2242 C2241 1.524 . S
C2242 C2243 1.415 . S
C2243 H2213 0.950 . S
C2243 C2238 1.363 . S
C2243 C2242 1.415 . S
H2244 C2241 0.999 . S
H2245 C2226 0.913 . S
H2246 C2264 0.951 . S
H2247 C2266 0.951 . S
H2248 C2268 0.950 . S
H2249 C2269 0.950 . S
H2250 C2271 0.950 . S
H2251 C2274 0.950 . S
H2252 C2275 0.950 . S
H2253 C2277 0.950 . S
H2254 C2278 0.950 . S
H2255 C2279 0.951 . S
H2256 C2281 0.951 . S
H2257 C2283 0.950 . S
H2258 C2284 0.950 . S
H2259 C2286 0.950 . S
H2260 C2289 0.950 . S
H2261 C2290 0.950 . S
H2262 C2292 0.950 . S
H2263 C2293 0.950 . S
C2264 H2246 0.951 . S
C2264 C2265 1.366 . S
C2264 C2266 1.388 . S
C2265 C2264 1.366 . S
C2265 C2269 1.385 . S
C2266 H2247 0.951 . S
C2266 C2264 1.388 . S
C2266 C2267 1.366 . S
C2267 C2266 1.366 . S
C2267 C2268 1.414 . S
C2267 C2270 1.499 . S
C2268 H2248 0.950 . S
C2268 C2267 1.414 . S
C2268 C2269 1.374 . S
C2269 H2249 0.950 . S
C2269 C2265 1.385 . S
C2269 C2268 1.374 . S
C2270 C2267 1.499 . S
C2270 C2271 1.373 . S
C2270 C2272 1.389 . S
C2271 H2250 0.950 . S
C2271 C2270 1.373 . S
C2271 C2287 1.377 . S
C2272 C2270 1.389 . S
C2272 C2273 1.524 . S
C2272 C2286 1.377 . S
C2273 C2272 1.524 . S
C2273 C2274 1.397 . S
C2273 C2278 1.363 . S
C2274 H2251 0.950 . S
C2274 C2273 1.397 . S
C2274 C2275 1.334 . S
C2275 H2252 0.950 . S
C2275 C2274 1.334 . S
C2275 C2276 1.287 . S
C2276 C2275 1.287 . S
C2276 C2277 1.524 . S
C2276 H2295 0.913 . S
C2277 H2253 0.950 . S
C2277 C2276 1.524 . S
C2277 C2278 1.415 . S
C2278 H2254 0.950 . S
C2278 C2273 1.363 . S
C2278 C2277 1.415 . S
C2279 H2255 0.951 . S
C2279 C2280 1.366 . S
C2279 C2281 1.388 . S
C2280 C2279 1.366 . S
C2280 C2284 1.385 . S
C2281 H2256 0.951 . S
C2281 C2279 1.388 . S
C2281 C2282 1.366 . S
C2282 C2281 1.366 . S
C2282 C2283 1.414 . S
C2282 C2285 1.499 . S
C2283 H2257 0.950 . S
C2283 C2282 1.414 . S
C2283 C2284 1.374 . S
C2284 H2258 0.950 . S
C2284 C2280 1.385 . S
C2284 C2283 1.374 . S
C2285 C2282 1.499 . S
C2285 C2286 1.373 . S
C2285 C2287 1.389 . S
C2286 H2259 0.950 . S
C2286 C2272 1.377 . S
C2286 C2285 1.373 . S
C2287 C2271 1.377 . S
C2287 C2285 1.389 . S
C2287 C2288 1.524 . S
C2288 C2287 1.524 . S
C2288 C2289 1.397 . S
C2288 C2293 1.363 . S
C2289 H2260 0.950 . S
C2289 C2288 1.397 . S
C2289 C2290 1.334 . S
C2290 H2261 0.950 . S
C2290 C2289 1.334 . S
C2290 C2291 1.287 . S
C2291 C2290 1.287 . S
C2291 C2292 1.524 . S
C2291 H2294 0.999 . S
C2292 H2262 0.950 . S
C2292 C2291 1.524 . S
C2292 C2293 1.415 . S
C2293 H2263 0.950 . S
C2293 C2288 1.363 . S
C2293 C2292 1.415 . S
H2294 C2291 0.999 . S
H2295 C2276 0.913 . S
H2296 C2314 0.951 . S
H2297 C2316 0.951 . S
H2298 C2318 0.950 . S
H2299 C2319 0.950 . S
H2300 C2321 0.950 . S
H2301 C2324 0.950 . S
H2302 C2325 0.950 . S
H2303 C2327 0.950 . S
H2304 C2328 0.950 . S
H2305 C2329 0.951 . S
H2306 C2331 0.951 . S
H2307 C2333 0.950 . S
H2308 C2334 0.950 . S
H2309 C2336 0.950 . S
H2310 C2339 0.950 . S
H2311 C2340 0.950 . S
H2312 C2342 0.950 . S
H2313 C2343 0.950 . S
C2314 H2296 0.951 . S
C2314 C2315 1.366 . S
C2314 C2316 1.388 . S
C2315 C2314 1.366 . S
C2315 C2319 1.385 . S
C2316 H2297 0.951 . S
C2316 C2314 1.388 . S
C2316 C2317 1.366 . S
C2317 C2316 1.366 . S
C2317 C2318 1.414 . S
C2317 C2320 1.499 . S
C2318 H2298 0.950 . S
C2318 C2317 1.414 . S
C2318 C2319 1.374 . S
C2319 H2299 0.950 . S
C2319 C2315 1.385 . S
C2319 C2318 1.374 . S
C2320 C2317 1.499 . S
C2320 C2321 1.373 . S
C2320 C2322 1.389 . S
C2321 H2300 0.950 . S
C2321 C2320 1.373 . S
C2321 C2337 1.377 . S
C2322 C2320 1.389 . S
C2322 C2323 1.524 . S
C2322 C2336 1.377 . S
C2323 C2322 1.524 . S
C2323 C2324 1.397 . S
C2323 C2328 1.363 . S
C2324 H2301 0.950 . S
C2324 C2323 1.397 . S
C2324 C2325 1.334 . S
C2325 H2302 0.950 . S
C2325 C2324 1.334 . S
C2325 C2326 1.287 . S
C2326 C2325 1.287 . S
C2326 C2327 1.524 . S
C2326 H2345 0.913 . S
C2327 H2303 0.950 . S
C2327 C2326 1.524 . S
C2327 C2328 1.415 . S
C2328 H2304 0.950 . S
C2328 C2323 1.363 . S
C2328 C2327 1.415 . S
C2329 H2305 0.951 . S
C2329 C2330 1.366 . S
C2329 C2331 1.388 . S
C2330 C2329 1.366 . S
C2330 C2334 1.385 . S
C2331 H2306 0.951 . S
C2331 C2329 1.388 . S
C2331 C2332 1.366 . S
C2332 C2331 1.366 . S
C2332 C2333 1.414 . S
C2332 C2335 1.499 . S
C2333 H2307 0.950 . S
C2333 C2332 1.414 . S
C2333 C2334 1.374 . S
C2334 H2308 0.950 . S
C2334 C2330 1.385 . S
C2334 C2333 1.374 . S
C2335 C2332 1.499 . S
C2335 C2336 1.373 . S
C2335 C2337 1.389 . S
C2336 H2309 0.950 . S
C2336 C2322 1.377 . S
C2336 C2335 1.373 . S
C2337 C2321 1.377 . S
C2337 C2335 1.389 . S
C2337 C2338 1.524 . S
C2338 C2337 1.524 . S
C2338 C2339 1.397 . S
C2338 C2343 1.363 . S
C2339 H2310 0.950 . S
C2339 C2338 1.397 . S
C2339 C2340 1.334 . S
C2340 H2311 0.950 . S
C2340 C2339 1.334 . S
C2340 C2341 1.287 . S
C2341 C2340 1.287 . S
C2341 C2342 1.524 . S
C2341 H2344 0.999 . S
C2342 H2312 0.950 . S
C2342 C2341 1.524 . S
C2342 C2343 1.415 . S
C2343 H2313 0.950 . S
C2343 C2338 1.363 . S
C2343 C2342 1.415 . S
H2344 C2341 0.999 . S
H2345 C2326 0.913 . S
H2346 C2364 0.951 . S
H2347 C2366 0.951 . S
H2348 C2368 0.950 . S
H2349 C2369 0.950 . S
H2350 C2371 0.950 . S
H2351 C2374 0.950 . S
H2352 C2375 0.950 . S
H2353 C2377 0.950 . S
H2354 C2378 0.950 . S
H2355 C2379 0.951 . S
H2356 C2381 0.951 . S
H2357 C2383 0.950 . S
H2358 C2384 0.950 . S
H2359 C2386 0.950 . S
H2360 C2389 0.950 . S
H2361 C2390 0.950 . S
H2362 C2392 0.950 . S
H2363 C2393 0.950 . S
C2364 H2346 0.951 . S
C2364 C2365 1.366 . S
C2364 C2366 1.388 . S
C2365 C2364 1.366 . S
C2365 C2369 1.385 . S
C2366 H2347 0.951 . S
C2366 C2364 1.388 . S
C2366 C2367 1.366 . S
C2367 C2366 1.366 . S
C2367 C2368 1.414 . S
C2367 C2370 1.499 . S
C2368 H2348 0.950 . S
C2368 C2367 1.414 . S
C2368 C2369 1.374 . S
C2369 H2349 0.950 . S
C2369 C2365 1.385 . S
C2369 C2368 1.374 . S
C2370 C2367 1.499 . S
C2370 C2371 1.373 . S
C2370 C2372 1.389 . S
C2371 H2350 0.950 . S
C2371 C2370 1.373 . S
C2371 C2387 1.377 . S
C2372 C2370 1.389 . S
C2372 C2373 1.524 . S
C2372 C2386 1.377 . S
C2373 C2372 1.524 . S
C2373 C2374 1.397 . S
C2373 C2378 1.363 . S
C2374 H2351 0.950 . S
C2374 C2373 1.397 . S
C2374 C2375 1.334 . S
C2375 H2352 0.950 . S
C2375 C2374 1.334 . S
C2375 C2376 1.287 . S
C2376 C2375 1.287 . S
C2376 C2377 1.524 . S
C2376 H2395 0.913 . S
C2377 H2353 0.950 . S
C2377 C2376 1.524 . S
C2377 C2378 1.415 . S
C2378 H2354 0.950 . S
C2378 C2373 1.363 . S
C2378 C2377 1.415 . S
C2379 H2355 0.951 . S
C2379 C2380 1.366 . S
C2379 C2381 1.388 . S
C2380 C2379 1.366 . S
C2380 C2384 1.385 . S
C2381 H2356 0.951 . S
C2381 C2379 1.388 . S
C2381 C2382 1.366 . S
C2382 C2381 1.366 . S
C2382 C2383 1.414 . S
C2382 C2385 1.499 . S
C2383 H2357 0.950 . S
C2383 C2382 1.414 . S
C2383 C2384 1.374 . S
C2384 H2358 0.950 . S
C2384 C2380 1.385 . S
C2384 C2383 1.374 . S
C2385 C2382 1.499 . S
C2385 C2386 1.373 . S
C2385 C2387 1.389 . S
C2386 H2359 0.950 . S
C2386 C2372 1.377 . S
C2386 C2385 1.373 . S
C2387 C2371 1.377 . S
C2387 C2385 1.389 . S
C2387 C2388 1.524 . S
C2388 C2387 1.524 . S
C2388 C2389 1.397 . S
C2388 C2393 1.363 . S
C2389 H2360 0.950 . S
C2389 C2388 1.397 . S
C2389 C2390 1.334 . S
C2390 H2361 0.950 . S
C2390 C2389 1.334 . S
C2390 C2391 1.287 . S
C2391 C2390 1.287 . S
C2391 C2392 1.524 . S
C2391 H2394 0.999 . S
C2392 H2362 0.950 . S
C2392 C2391 1.524 . S
C2392 C2393 1.415 . S
C2393 H2363 0.950 . S
C2393 C2388 1.363 . S
C2393 C2392 1.415 . S
H2394 C2391 0.999 . S
H2395 C2376 0.913 . S
H2396 C2414 0.951 . S
H2397 C2416 0.951 . S
H2398 C2418 0.950 . S
H2399 C2419 0.950 . S
H2400 C2421 0.950 . S
H2401 C2424 0.950 . S
H2402 C2425 0.950 . S
H2403 C2427 0.950 . S
H2404 C2428 0.950 . S
H2405 C2429 0.951 . S
H2406 C2431 0.951 . S
H2407 C2433 0.950 . S
H2408 C2434 0.950 . S
H2409 C2436 0.950 . S
H2410 C2439 0.950 . S
H2411 C2440 0.950 . S
H2412 C2442 0.950 . S
H2413 C2443 0.950 . S
C2414 H2396 0.951 . S
C2414 C2415 1.366 . S
C2414 C2416 1.388 . S
C2415 C2414 1.366 . S
C2415 C2419 1.385 . S
C2416 H2397 0.951 . S
C2416 C2414 1.388 . S
C2416 C2417 1.366 . S
C2417 C2416 1.366 . S
C2417 C2418 1.414 . S
C2417 C2420 1.499 . S
C2418 H2398 0.950 . S
C2418 C2417 1.414 . S
C2418 C2419 1.374 . S
C2419 H2399 0.950 . S
C2419 C2415 1.385 . S
C2419 C2418 1.374 . S
C2420 C2417 1.499 . S
C2420 C2421 1.373 . S
C2420 C2422 1.389 . S
C2421 H2400 0.950 . S
C2421 C2420 1.373 . S
C2421 C2437 1.377 . S
C2422 C2420 1.389 . S
C2422 C2423 1.524 . S
C2422 C2436 1.377 . S
C2423 C2422 1.524 . S
C2423 C2424 1.397 . S
C2423 C2428 1.363 . S
C2424 H2401 0.950 . S
C2424 C2423 1.397 . S
C2424 C2425 1.334 . S
C2425 H2402 0.950 . S
C2425 C2424 1.334 . S
C2425 C2426 1.287 . S
C2426 C2425 1.287 . S
C2426 C2427 1.524 . S
C2426 H2445 0.913 . S
C2427 H2403 0.950 . S
C2427 C2426 1.524 . S
C2427 C2428 1.415 . S
C2428 H2404 0.950 . S
C2428 C2423 1.363 . S
C2428 C2427 1.415 . S
C2429 H2405 0.951 . S
C2429 C2430 1.366 . S
C2429 C2431 1.388 . S
C2430 C2429 1.366 . S
C2430 C2434 1.385 . S
C2431 H2406 0.951 . S
C2431 C2429 1.388 . S
C2431 C2432 1.366 . S
C2432 C2431 1.366 . S
C2432 C2433 1.414 . S
C2432 C2435 1.499 . S
C2433 H2407 0.950 . S
C2433 C2432 1.414 . S
C2433 C2434 1.374 . S
C2434 H2408 0.950 . S
C2434 C2430 1.385 . S
C2434 C2433 1.374 . S
C2435 C2432 1.499 . S
C2435 C2436 1.373 . S
C2435 C2437 1.389 . S
C2436 H2409 0.950 . S
C2436 C2422 1.377 . S
C2436 C2435 1.373 . S
C2437 C2421 1.377 . S
C2437 C2435 1.389 . S
C2437 C2438 1.524 . S
C2438 C2437 1.524 . S
C2438 C2439 1.397 . S
C2438 C2443 1.363 . S
C2439 H2410 0.950 . S
C2439 C2438 1.397 . S
C2439 C2440 1.334 . S
C2440 H2411 0.950 . S
C2440 C2439 1.334 . S
C2440 C2441 1.287 . S
C2441 C2440 1.287 . S
C2441 C2442 1.524 . S
C2441 H2444 0.999 . S
C2442 H2412 0.950 . S
C2442 C2441 1.524 . S
C2442 C2443 1.415 . S
C2443 H2413 0.950 . S
C2443 C2438 1.363 . S
C2443 C2442 1.415 . S
H2444 C2441 0.999 . S
H2445 C2426 0.913 . S
H2446 C2464 0.951 . S
H2447 C2466 0.951 . S
H2448 C2468 0.950 . S
H2449 C2469 0.950 . S
H2450 C2471 0.950 . S
H2451 C2474 0.950 . S
H2452 C2475 0.950 . S
H2453 C2477 0.950 . S
H2454 C2478 0.950 . S
H2455 C2479 0.951 . S
H2456 C2481 0.951 . S
H2457 C2483 0.950 . S
H2458 C2484 0.950 . S
H2459 C2486 0.950 . S
H2460 C2489 0.950 . S
H2461 C2490 0.950 . S
H2462 C2492 0.950 . S
H2463 C2493 0.950 . S
C2464 H2446 0.951 . S
C2464 C2465 1.366 . S
C2464 C2466 1.388 . S
C2465 C2464 1.366 . S
C2465 C2469 1.385 . S
C2466 H2447 0.951 . S
C2466 C2464 1.388 . S
C2466 C2467 1.366 . S
C2467 C2466 1.366 . S
C2467 C2468 1.414 . S
C2467 C2470 1.499 . S
C2468 H2448 0.950 . S
C2468 C2467 1.414 . S
C2468 C2469 1.374 . S
C2469 H2449 0.950 . S
C2469 C2465 1.385 . S
C2469 C2468 1.374 . S
C2470 C2467 1.499 . S
C2470 C2471 1.373 . S
C2470 C2472 1.389 . S
C2471 H2450 0.950 . S
C2471 C2470 1.373 . S
C2471 C2487 1.377 . S
C2472 C2470 1.389 . S
C2472 C2473 1.524 . S
C2472 C2486 1.377 . S
C2473 C2472 1.524 . S
C2473 C2474 1.397 . S
C2473 C2478 1.363 . S
C2474 H2451 0.950 . S
C2474 C2473 1.397 . S
C2474 C2475 1.334 . S
C2475 H2452 0.950 . S
C2475 C2474 1.334 . S
C2475 C2476 1.287 . S
C2476 C2475 1.287 . S
C2476 C2477 1.524 . S
C2476 H2495 0.913 . S
C2477 H2453 0.950 . S
C2477 C2476 1.524 . S
C2477 C2478 1.415 . S
C2478 H2454 0.950 . S
C2478 C2473 1.363 . S
C2478 C2477 1.415 . S
C2479 H2455 0.951 . S
C2479 C2480 1.366 . S
C2479 C2481 1.388 . S
C2480 C2479 1.366 . S
C2480 C2484 1.385 . S
C2481 H2456 0.951 . S
C2481 C2479 1.388 . S
C2481 C2482 1.366 . S
C2482 C2481 1.366 . S
C2482 C2483 1.414 . S
C2482 C2485 1.499 . S
C2483 H2457 0.950 . S
C2483 C2482 1.414 . S
C2483 C2484 1.374 . S
C2484 H2458 0.950 . S
C2484 C2480 1.385 . S
C2484 C2483 1.374 . S
C2485 C2482 1.499 . S
C2485 C2486 1.373 . S
C2485 C2487 1.389 . S
C2486 H2459 0.950 . S
C2486 C2472 1.377 . S
C2486 C2485 1.373 . S
C2487 C2471 1.377 . S
C2487 C2485 1.389 . S
C2487 C2488 1.524 . S
C2488 C2487 1.524 . S
C2488 C2489 1.397 . S
C2488 C2493 1.363 . S
C2489 H2460 0.950 . S
C2489 C2488 1.397 . S
C2489 C2490 1.334 . S
C2490 H2461 0.950 . S
C2490 C2489 1.334 . S
C2490 C2491 1.287 . S
C2491 C2490 1.287 . S
C2491 C2492 1.524 . S
C2491 H2494 0.999 . S
C2492 H2462 0.950 . S
C2492 C2491 1.524 . S
C2492 C2493 1.415 . S
C2493 H2463 0.950 . S
C2493 C2488 1.363 . S
C2493 C2492 1.415 . S
H2494 C2491 0.999 . S
H2495 C2476 0.913 . S
H2496 C2514 0.951 . S
H2497 C2516 0.951 . S
H2498 C2518 0.950 . S
H2499 C2519 0.950 . S
H2500 C2521 0.950 . S
H2501 C2524 0.950 . S
H2502 C2525 0.950 . S
H2503 C2527 0.950 . S
H2504 C2528 0.950 . S
H2505 C2529 0.951 . S
H2506 C2531 0.951 . S
H2507 C2533 0.950 . S
H2508 C2534 0.950 . S
H2509 C2536 0.950 . S
H2510 C2539 0.950 . S
H2511 C2540 0.950 . S
H2512 C2542 0.950 . S
H2513 C2543 0.950 . S
C2514 H2496 0.951 . S
C2514 C2515 1.366 . S
C2514 C2516 1.388 . S
C2515 C2514 1.366 . S
C2515 C2519 1.385 . S
C2516 H2497 0.951 . S
C2516 C2514 1.388 . S
C2516 C2517 1.366 . S
C2517 C2516 1.366 . S
C2517 C2518 1.414 . S
C2517 C2520 1.499 . S
C2518 H2498 0.950 . S
C2518 C2517 1.414 . S
C2518 C2519 1.374 . S
C2519 H2499 0.950 . S
C2519 C2515 1.385 . S
C2519 C2518 1.374 . S
C2520 C2517 1.499 . S
C2520 C2521 1.373 . S
C2520 C2522 1.389 . S
C2521 H2500 0.950 . S
C2521 C2520 1.373 . S
C2521 C2537 1.377 . S
C2522 C2520 1.389 . S
C2522 C2523 1.524 . S
C2522 C2536 1.377 . S
C2523 C2522 1.524 . S
C2523 C2524 1.397 . S
C2523 C2528 1.363 . S
C2524 H2501 0.950 . S
C2524 C2523 1.397 . S
C2524 C2525 1.334 . S
C2525 H2502 0.950 . S
C2525 C2524 1.334 . S
C2525 C2526 1.287 . S
C2526 C2525 1.287 . S
C2526 C2527 1.524 . S
C2526 H2545 0.913 . S
C2527 H2503 0.950 . S
C2527 C2526 1.524 . S
C2527 C2528 1.415 . S
C2528 H2504 0.950 . S
C2528 C2523 1.363 . S
C2528 C2527 1.415 . S
C2529 H2505 0.951 . S
C2529 C2530 1.366 . S
C2529 C2531 1.388 . S
C2530 C2529 1.366 . S
C2530 C2534 1.385 . S
C2531 H2506 0.951 . S
C2531 C2529 1.388 . S
C2531 C2532 1.366 . S
C2532 C2531 1.366 . S
C2532 C2533 1.414 . S
C2532 C2535 1.499 . S
C2533 H2507 0.950 . S
C2533 C2532 1.414 . S
C2533 C2534 1.374 . S
C2534 H2508 0.950 . S
C2534 C2530 1.385 . S
C2534 C2533 1.374 . S
C2535 C2532 1.499 . S
C2535 C2536 1.373 . S
C2535 C2537 1.389 . S
C2536 H2509 0.950 . S
C2536 C2522 1.377 . S
C2536 C2535 1.373 . S
C2537 C2521 1.377 . S
C2537 C2535 1.389 . S
C2537 C2538 1.524 . S
C2538 C2537 1.524 . S
C2538 C2539 1.397 . S
C2538 C2543 1.363 . S
C2539 H2510 0.950 . S
C2539 C2538 1.397 . S
C2539 C2540 1.334 . S
C2540 H2511 0.950 . S
C2540 C2539 1.334 . S
C2540 C2541 1.287 . S
C2541 C2540 1.287 . S
C2541 C2542 1.524 . S
C2541 H2544 0.999 . S
C2542 H2512 0.950 . S
C2542 C2541 1.524 . S
C2542 C2543 1.415 . S
C2543 H2513 0.950 . S
C2543 C2538 1.363 . S
C2543 C2542 1.415 . S
H2544 C2541 0.999 . S
H2545 C2526 0.913 . S
H2546 C2564 0.951 . S
H2547 C2566 0.951 . S
H2548 C2568 0.950 . S
H2549 C2569 0.950 . S
H2550 C2571 0.950 . S
H2551 C2574 0.950 . S
H2552 C2575 0.950 . S
H2553 C2577 0.950 . S
H2554 C2578 0.950 . S
H2555 C2579 0.951 . S
H2556 C2581 0.951 . S
H2557 C2583 0.950 . S
H2558 C2584 0.950 . S
H2559 C2586 0.950 . S
H2560 C2589 0.950 . S
H2561 C2590 0.950 . S
H2562 C2592 0.950 . S
H2563 C2593 0.950 . S
C2564 H2546 0.951 . S
C2564 C2565 1.366 . S
C2564 C2566 1.388 . S
C2565 C2564 1.366 . S
C2565 C2569 1.385 . S
C2566 H2547 0.951 . S
C2566 C2564 1.388 . S
C2566 C2567 1.366 . S
C2567 C2566 1.366 . S
C2567 C2568 1.414 . S
C2567 C2570 1.499 . S
C2568 H2548 0.950 . S
C2568 C2567 1.414 . S
C2568 C2569 1.374 . S
C2569 H2549 0.950 . S
C2569 C2565 1.385 . S
C2569 C2568 1.374 . S
C2570 C2567 1.499 . S
C2570 C2571 1.373 . S
C2570 C2572 1.389 . S
C2571 H2550 0.950 . S
C2571 C2570 1.373 . S
C2571 C2587 1.377 . S
C2572 C2570 1.389 . S
C2572 C2573 1.524 . S
C2572 C2586 1.377 . S
C2573 C2572 1.524 . S
C2573 C2574 1.397 . S
C2573 C2578 1.363 . S
C2574 H2551 0.950 . S
C2574 C2573 1.397 . S
C2574 C2575 1.334 . S
C2575 H2552 0.950 . S
C2575 C2574 1.334 . S
C2575 C2576 1.287 . S
C2576 C2575 1.287 . S
C2576 C2577 1.524 . S
C2576 H2595 0.913 . S
C2577 H2553 0.950 . S
C2577 C2576 1.524 . S
C2577 C2578 1.415 . S
C2578 H2554 0.950 . S
C2578 C2573 1.363 . S
C2578 C2577 1.415 . S
C2579 H2555 0.951 . S
C2579 C2580 1.366 . S
C2579 C2581 1.388 . S
C2580 C2579 1.366 . S
C2580 C2584 1.385 . S
C2581 H2556 0.951 . S
C2581 C2579 1.388 . S
C2581 C2582 1.366 . S
C2582 C2581 1.366 . S
C2582 C2583 1.414 . S
C2582 C2585 1.499 . S
C2583 H2557 0.950 . S
C2583 C2582 1.414 . S
C2583 C2584 1.374 . S
C2584 H2558 0.950 . S
C2584 C2580 1.385 . S
C2584 C2583 1.374 . S
C2585 C2582 1.499 . S
C2585 C2586 1.373 . S
C2585 C2587 1.389 . S
C2586 H2559 0.950 . S
C2586 C2572 1.377 . S
C2586 C2585 1.373 . S
C2587 C2571 1.377 . S
C2587 C2585 1.389 . S
C2587 C2588 1.524 . S
C2588 C2587 1.524 . S
C2588 C2589 1.397 . S
C2588 C2593 1.363 . S
C2589 H2560 0.950 . S
C2589 C2588 1.397 . S
C2589 C2590 1.334 . S
C2590 H2561 0.950 . S
C2590 C2589 1.334 . S
C2590 C2591 1.287 . S
C2591 C2590 1.287 . S
C2591 C2592 1.524 . S
C2591 H2594 0.999 . S
C2592 H2562 0.950 . S
C2592 C2591 1.524 . S
C2592 C2593 1.415 . S
C2593 H2563 0.950 . S
C2593 C2588 1.363 . S
C2593 C2592 1.415 . S
H2594 C2591 0.999 . S
H2595 C2576 0.913 . S
H2596 C2614 0.951 . S
H2597 C2616 0.951 . S
H2598 C2618 0.950 . S
H2599 C2619 0.950 . S
H2600 C2621 0.950 . S
H2601 C2624 0.950 . S
H2602 C2625 0.950 . S
H2603 C2627 0.950 . S
H2604 C2628 0.950 . S
H2605 C2629 0.951 . S
H2606 C2631 0.951 . S
H2607 C2633 0.950 . S
H2608 C2634 0.950 . S
H2609 C2636 0.950 . S
H2610 C2639 0.950 . S
H2611 C2640 0.950 . S
H2612 C2642 0.950 . S
H2613 C2643 0.950 . S
C2614 H2596 0.951 . S
C2614 C2615 1.366 . S
C2614 C2616 1.388 . S
C2615 C2614 1.366 . S
C2615 C2619 1.385 . S
C2616 H2597 0.951 . S
C2616 C2614 1.388 . S
C2616 C2617 1.366 . S
C2617 C2616 1.366 . S
C2617 C2618 1.414 . S
C2617 C2620 1.499 . S
C2618 H2598 0.950 . S
C2618 C2617 1.414 . S
C2618 C2619 1.374 . S
C2619 H2599 0.950 . S
C2619 C2615 1.385 . S
C2619 C2618 1.374 . S
C2620 C2617 1.499 . S
C2620 C2621 1.373 . S
C2620 C2622 1.389 . S
C2621 H2600 0.950 . S
C2621 C2620 1.373 . S
C2621 C2637 1.377 . S
C2622 C2620 1.389 . S
C2622 C2623 1.524 . S
C2622 C2636 1.377 . S
C2623 C2622 1.524 . S
C2623 C2624 1.397 . S
C2623 C2628 1.363 . S
C2624 H2601 0.950 . S
C2624 C2623 1.397 . S
C2624 C2625 1.334 . S
C2625 H2602 0.950 . S
C2625 C2624 1.334 . S
C2625 C2626 1.287 . S
C2626 C2625 1.287 . S
C2626 C2627 1.524 . S
C2626 H2645 0.913 . S
C2627 H2603 0.950 . S
C2627 C2626 1.524 . S
C2627 C2628 1.415 . S
C2628 H2604 0.950 . S
C2628 C2623 1.363 . S
C2628 C2627 1.415 . S
C2629 H2605 0.951 . S
C2629 C2630 1.366 . S
C2629 C2631 1.388 . S
C2630 C2629 1.366 . S
C2630 C2634 1.385 . S
C2631 H2606 0.951 . S
C2631 C2629 1.388 . S
C2631 C2632 1.366 . S
C2632 C2631 1.366 . S
C2632 C2633 1.414 . S
C2632 C2635 1.499 . S
C2633 H2607 0.950 . S
C2633 C2632 1.414 . S
C2633 C2634 1.374 . S
C2634 H2608 0.950 . S
C2634 C2630 1.385 . S
C2634 C2633 1.374 . S
C2635 C2632 1.499 . S
C2635 C2636 1.373 . S
C2635 C2637 1.389 . S
C2636 H2609 0.950 . S
C2636 C2622 1.377 . S
C2636 C2635 1.373 . S
C2637 C2621 1.377 . S
C2637 C2635 1.389 . S
C2637 C2638 1.524 . S
C2638 C2637 1.524 . S
C2638 C2639 1.397 . S
C2638 C2643 1.363 . S
C2639 H2610 0.950 . S
C2639 C2638 1.397 . S
C2639 C2640 1.334 . S
C2640 H2611 0.950 . S
C2640 C2639 1.334 . S
C2640 C2641 1.287 . S
C2641 C2640 1.287 . S
C2641 C2642 1.524 . S
C2641 H2644 0.999 . S
C2642 H2612 0.950 . S
C2642 C2641 1.524 . S
C2642 C2643 1.415 . S
C2643 H2613 0.950 . S
C2643 C2638 1.363 . S
C2643 C2642 1.415 . S
H2644 C2641 0.999 . S
H2645 C2626 0.913 . S
H2646 C2664 0.951 . S
H2647 C2666 0.951 . S
H2648 C2668 0.950 . S
H2649 C2669 0.950 . S
H2650 C2671 0.950 . S
H2651 C2674 0.950 . S
H2652 C2675 0.950 . S
H2653 C2677 0.950 . S
H2654 C2678 0.950 . S
H2655 C2679 0.951 . S
H2656 C2681 0.951 . S
H2657 C2683 0.950 . S
H2658 C2684 0.950 . S
H2659 C2686 0.950 . S
H2660 C2689 0.950 . S
H2661 C2690 0.950 . S
H2662 C2692 0.950 . S
H2663 C2693 0.950 . S
C2664 H2646 0.951 . S
C2664 C2665 1.366 . S
C2664 C2666 1.388 . S
C2665 C2664 1.366 . S
C2665 C2669 1.385 . S
C2666 H2647 0.951 . S
C2666 C2664 1.388 . S
C2666 C2667 1.366 . S
C2667 C2666 1.366 . S
C2667 C2668 1.414 . S
C2667 C2670 1.499 . S
C2668 H2648 0.950 . S
C2668 C2667 1.414 . S
C2668 C2669 1.374 . S
C2669 H2649 0.950 . S
C2669 C2665 1.385 . S
C2669 C2668 1.374 . S
C2670 C2667 1.499 . S
C2670 C2671 1.373 . S
C2670 C2672 1.389 . S
C2671 H2650 0.950 . S
C2671 C2670 1.373 . S
C2671 C2687 1.377 . S
C2672 C2670 1.389 . S
C2672 C2673 1.524 . S
C2672 C2686 1.377 . S
C2673 C2672 1.524 . S
C2673 C2674 1.397 . S
C2673 C2678 1.363 . S
C2674 H2651 0.950 . S
C2674 C2673 1.397 . S
C2674 C2675 1.334 . S
C2675 H2652 0.950 . S
C2675 C2674 1.334 . S
C2675 C2676 1.287 . S
C2676 C2675 1.287 . S
C2676 C2677 1.524 . S
C2676 H2695 0.913 . S
C2677 H2653 0.950 . S
C2677 C2676 1.524 . S
C2677 C2678 1.415 . S
C2678 H2654 0.950 . S
C2678 C2673 1.363 . S
C2678 C2677 1.415 . S
C2679 H2655 0.951 . S
C2679 C2680 1.366 . S
C2679 C2681 1.388 . S
C2680 C2679 1.366 . S
C2680 C2684 1.385 . S
C2681 H2656 0.951 . S
C2681 C2679 1.388 . S
C2681 C2682 1.366 . S
C2682 C2681 1.366 . S
C2682 C2683 1.414 . S
C2682 C2685 1.499 . S
C2683 H2657 0.950 . S
C2683 C2682 1.414 . S
C2683 C2684 1.374 . S
C2684 H2658 0.950 . S
C2684 C2680 1.385 . S
C2684 C2683 1.374 . S
C2685 C2682 1.499 . S
C2685 C2686 1.373 . S
C2685 C2687 1.389 . S
C2686 H2659 0.950 . S
C2686 C2672 1.377 . S
C2686 C2685 1.373 . S
C2687 C2671 1.377 . S
C2687 C2685 1.389 . S
C2687 C2688 1.524 . S
C2688 C2687 1.524 . S
C2688 C2689 1.397 . S
C2688 C2693 1.363 . S
C2689 H2660 0.950 . S
C2689 C2688 1.397 . S
C2689 C2690 1.334 . S
C2690 H2661 0.950 . S
C2690 C2689 1.334 . S
C2690 C2691 1.287 . S
C2691 C2690 1.287 . S
C2691 C2692 1.524 . S
C2691 H2694 0.999 . S
C2692 H2662 0.950 . S
C2692 C2691 1.524 . S
C2692 C2693 1.415 . S
C2693 H2663 0.950 . S
C2693 C2688 1.363 . S
C2693 C2692 1.415 . S
H2694 C2691 0.999 . S
H2695 C2676 0.913 . S
H2696 C2714 0.951 . S
H2697 C2716 0.951 . S
H2698 C2718 0.950 . S
H2699 C2719 0.950 . S
H2700 C2721 0.950 . S
H2701 C2724 0.950 . S
H2702 C2725 0.950 . S
H2703 C2727 0.950 . S
H2704 C2728 0.950 . S
H2705 C2729 0.951 . S
H2706 C2731 0.951 . S
H2707 C2733 0.950 . S
H2708 C2734 0.950 . S
H2709 C2736 0.950 . S
H2710 C2739 0.950 . S
H2711 C2740 0.950 . S
H2712 C2742 0.950 . S
H2713 C2743 0.950 . S
C2714 H2696 0.951 . S
C2714 C2715 1.366 . S
C2714 C2716 1.388 . S
C2715 C2714 1.366 . S
C2715 C2719 1.385 . S
C2716 H2697 0.951 . S
C2716 C2714 1.388 . S
C2716 C2717 1.366 . S
C2717 C2716 1.366 . S
C2717 C2718 1.414 . S
C2717 C2720 1.499 . S
C2718 H2698 0.950 . S
C2718 C2717 1.414 . S
C2718 C2719 1.374 . S
C2719 H2699 0.950 . S
C2719 C2715 1.385 . S
C2719 C2718 1.374 . S
C2720 C2717 1.499 . S
C2720 C2721 1.373 . S
C2720 C2722 1.389 . S
C2721 H2700 0.950 . S
C2721 C2720 1.373 . S
C2721 C2737 1.377 . S
C2722 C2720 1.389 . S
C2722 C2723 1.524 . S
C2722 C2736 1.377 . S
C2723 C2722 1.524 . S
C2723 C2724 1.397 . S
C2723 C2728 1.363 . S
C2724 H2701 0.950 . S
C2724 C2723 1.397 . S
C2724 C2725 1.334 . S
C2725 H2702 0.950 . S
C2725 C2724 1.334 . S
C2725 C2726 1.287 . S
C2726 C2725 1.287 . S
C2726 C2727 1.524 . S
C2726 H2745 0.913 . S
C2727 H2703 0.950 . S
C2727 C2726 1.524 . S
C2727 C2728 1.415 . S
C2728 H2704 0.950 . S
C2728 C2723 1.363 . S
C2728 C2727 1.415 . S
C2729 H2705 0.951 . S
C2729 C2730 1.366 . S
C2729 C2731 1.388 . S
C2730 C2729 1.366 . S
C2730 C2734 1.385 . S
C2731 H2706 0.951 . S
C2731 C2729 1.388 . S
C2731 C2732 1.366 . S
C2732 C2731 1.366 . S
C2732 C2733 1.414 . S
C2732 C2735 1.499 . S
C2733 H2707 0.950 . S
C2733 C2732 1.414 . S
C2733 C2734 1.374 . S
C2734 H2708 0.950 . S
C2734 C2730 1.385 . S
C2734 C2733 1.374 . S
C2735 C2732 1.499 . S
C2735 C2736 1.373 . S
C2735 C2737 1.389 . S
C2736 H2709 0.950 . S
C2736 C2722 1.377 . S
C2736 C2735 1.373 . S
C2737 C2721 1.377 . S
C2737 C2735 1.389 . S
C2737 C2738 1.524 . S
C2738 C2737 1.524 . S
C2738 C2739 1.397 . S
C2738 C2743 1.363 . S
C2739 H2710 0.950 . S
C2739 C2738 1.397 . S
C2739 C2740 1.334 . S
C2740 H2711 0.950 . S
C2740 C2739 1.334 . S
C2740 C2741 1.287 . S
C2741 C2740 1.287 . S
C2741 C2742 1.524 . S
C2741 H2744 0.999 . S
C2742 H2712 0.950 . S
C2742 C2741 1.524 . S
C2742 C2743 1.415 . S
C2743 H2713 0.950 . S
C2743 C2738 1.363 . S
C2743 C2742 1.415 . S
H2744 C2741 0.999 . S
H2745 C2726 0.913 . S
H2746 C2764 0.951 . S
H2747 C2766 0.951 . S
H2748 C2768 0.950 . S
H2749 C2769 0.950 . S
H2750 C2771 0.950 . S
H2751 C2774 0.950 . S
H2752 C2775 0.950 . S
H2753 C2777 0.950 . S
H2754 C2778 0.950 . S
H2755 C2779 0.951 . S
H2756 C2781 0.951 . S
H2757 C2783 0.950 . S
H2758 C2784 0.950 . S
H2759 C2786 0.950 . S
H2760 C2789 0.950 . S
H2761 C2790 0.950 . S
H2762 C2792 0.950 . S
H2763 C2793 0.950 . S
C2764 H2746 0.951 . S
C2764 C2765 1.366 . S
C2764 C2766 1.388 . S
C2765 C2764 1.366 . S
C2765 C2769 1.385 . S
C2766 H2747 0.951 . S
C2766 C2764 1.388 . S
C2766 C2767 1.366 . S
C2767 C2766 1.366 . S
C2767 C2768 1.414 . S
C2767 C2770 1.499 . S
C2768 H2748 0.950 . S
C2768 C2767 1.414 . S
C2768 C2769 1.374 . S
C2769 H2749 0.950 . S
C2769 C2765 1.385 . S
C2769 C2768 1.374 . S
C2770 C2767 1.499 . S
C2770 C2771 1.373 . S
C2770 C2772 1.389 . S
C2771 H2750 0.950 . S
C2771 C2770 1.373 . S
C2771 C2787 1.377 . S
C2772 C2770 1.389 . S
C2772 C2773 1.524 . S
C2772 C2786 1.377 . S
C2773 C2772 1.524 . S
C2773 C2774 1.397 . S
C2773 C2778 1.363 . S
C2774 H2751 0.950 . S
C2774 C2773 1.397 . S
C2774 C2775 1.334 . S
C2775 H2752 0.950 . S
C2775 C2774 1.334 . S
C2775 C2776 1.287 . S
C2776 C2775 1.287 . S
C2776 C2777 1.524 . S
C2776 H2795 0.913 . S
C2777 H2753 0.950 . S
C2777 C2776 1.524 . S
C2777 C2778 1.415 . S
C2778 H2754 0.950 . S
C2778 C2773 1.363 . S
C2778 C2777 1.415 . S
C2779 H2755 0.951 . S
C2779 C2780 1.366 . S
C2779 C2781 1.388 . S
C2780 C2779 1.366 . S
C2780 C2784 1.385 . S
C2781 H2756 0.951 . S
C2781 C2779 1.388 . S
C2781 C2782 1.366 . S
C2782 C2781 1.366 . S
C2782 C2783 1.414 . S
C2782 C2785 1.499 . S
C2783 H2757 0.950 . S
C2783 C2782 1.414 . S
C2783 C2784 1.374 . S
C2784 H2758 0.950 . S
C2784 C2780 1.385 . S
C2784 C2783 1.374 . S
C2785 C2782 1.499 . S
C2785 C2786 1.373 . S
C2785 C2787 1.389 . S
C2786 H2759 0.950 . S
C2786 C2772 1.377 . S
C2786 C2785 1.373 . S
C2787 C2771 1.377 . S
C2787 C2785 1.389 . S
C2787 C2788 1.524 . S
C2788 C2787 1.524 . S
C2788 C2789 1.397 . S
C2788 C2793 1.363 . S
C2789 H2760 0.950 . S
C2789 C2788 1.397 . S
C2789 C2790 1.334 . S
C2790 H2761 0.950 . S
C2790 C2789 1.334 . S
C2790 C2791 1.287 . S
C2791 C2790 1.287 . S
C2791 C2792 1.524 . S
C2791 H2794 0.999 . S
C2792 H2762 0.950 . S
C2792 C2791 1.524 . S
C2792 C2793 1.415 . S
C2793 H2763 0.950 . S
C2793 C2788 1.363 . S
C2793 C2792 1.415 . S
H2794 C2791 0.999 . S
H2795 C2776 0.913 . S
H2796 C2814 0.951 . S
H2797 C2816 0.951 . S
H2798 C2818 0.950 . S
H2799 C2819 0.950 . S
H2800 C2821 0.950 . S
H2801 C2824 0.950 . S
H2802 C2825 0.950 . S
H2803 C2827 0.950 . S
H2804 C2828 0.950 . S
H2805 C2829 0.951 . S
H2806 C2831 0.951 . S
H2807 C2833 0.950 . S
H2808 C2834 0.950 . S
H2809 C2836 0.950 . S
H2810 C2839 0.950 . S
H2811 C2840 0.950 . S
H2812 C2842 0.950 . S
H2813 C2843 0.950 . S
C2814 H2796 0.951 . S
C2814 C2815 1.366 . S
C2814 C2816 1.388 . S
C2815 C2814 1.366 . S
C2815 C2819 1.385 . S
C2816 H2797 0.951 . S
C2816 C2814 1.388 . S
C2816 C2817 1.366 . S
C2817 C2816 1.366 . S
C2817 C2818 1.414 . S
C2817 C2820 1.499 . S
C2818 H2798 0.950 . S
C2818 C2817 1.414 . S
C2818 C2819 1.374 . S
C2819 H2799 0.950 . S
C2819 C2815 1.385 . S
C2819 C2818 1.374 . S
C2820 C2817 1.499 . S
C2820 C2821 1.373 . S
C2820 C2822 1.389 . S
C2821 H2800 0.950 . S
C2821 C2820 1.373 . S
C2821 C2837 1.377 . S
C2822 C2820 1.389 . S
C2822 C2823 1.524 . S
C2822 C2836 1.377 . S
C2823 C2822 1.524 . S
C2823 C2824 1.397 . S
C2823 C2828 1.363 . S
C2824 H2801 0.950 . S
C2824 C2823 1.397 . S
C2824 C2825 1.334 . S
C2825 H2802 0.950 . S
C2825 C2824 1.334 . S
C2825 C2826 1.287 . S
C2826 C2825 1.287 . S
C2826 C2827 1.524 . S
C2826 H2845 0.913 . S
C2827 H2803 0.950 . S
C2827 C2826 1.524 . S
C2827 C2828 1.415 . S
C2828 H2804 0.950 . S
C2828 C2823 1.363 . S
C2828 C2827 1.415 . S
C2829 H2805 0.951 . S
C2829 C2830 1.366 . S
C2829 C2831 1.388 . S
C2830 C2829 1.366 . S
C2830 C2834 1.385 . S
C2831 H2806 0.951 . S
C2831 C2829 1.388 . S
C2831 C2832 1.366 . S
C2832 C2831 1.366 . S
C2832 C2833 1.414 . S
C2832 C2835 1.499 . S
C2833 H2807 0.950 . S
C2833 C2832 1.414 . S
C2833 C2834 1.374 . S
C2834 H2808 0.950 . S
C2834 C2830 1.385 . S
C2834 C2833 1.374 . S
C2835 C2832 1.499 . S
C2835 C2836 1.373 . S
C2835 C2837 1.389 . S
C2836 H2809 0.950 . S
C2836 C2822 1.377 . S
C2836 C2835 1.373 . S
C2837 C2821 1.377 . S
C2837 C2835 1.389 . S
C2837 C2838 1.524 . S
C2838 C2837 1.524 . S
C2838 C2839 1.397 . S
C2838 C2843 1.363 . S
C2839 H2810 0.950 . S
C2839 C2838 1.397 . S
C2839 C2840 1.334 . S
C2840 H2811 0.950 . S
C2840 C2839 1.334 . S
C2840 C2841 1.287 . S
C2841 C2840 1.287 . S
C2841 C2842 1.524 . S
C2841 H2844 0.999 . S
C2842 H2812 0.950 . S
C2842 C2841 1.524 . S
C2842 C2843 1.415 . S
C2843 H2813 0.950 . S
C2843 C2838 1.363 . S
C2843 C2842 1.415 . S
H2844 C2841 0.999 . S
H2845 C2826 0.913 . S
H2846 C2864 0.951 . S
H2847 C2866 0.951 . S
H2848 C2868 0.950 . S
H2849 C2869 0.950 . S
H2850 C2871 0.950 . S
H2851 C2874 0.950 . S
H2852 C2875 0.950 . S
H2853 C2877 0.950 . S
H2854 C2878 0.950 . S
H2855 C2879 0.951 . S
H2856 C2881 0.951 . S
H2857 C2883 0.950 . S
H2858 C2884 0.950 . S
H2859 C2886 0.950 . S
H2860 C2889 0.950 . S
H2861 C2890 0.950 . S
H2862 C2892 0.950 . S
H2863 C2893 0.950 . S
C2864 H2846 0.951 . S
C2864 C2865 1.366 . S
C2864 C2866 1.388 . S
C2865 C2864 1.366 . S
C2865 C2869 1.385 . S
C2866 H2847 0.951 . S
C2866 C2864 1.388 . S
C2866 C2867 1.366 . S
C2867 C2866 1.366 . S
C2867 C2868 1.414 . S
C2867 C2870 1.499 . S
C2868 H2848 0.950 . S
C2868 C2867 1.414 . S
C2868 C2869 1.374 . S
C2869 H2849 0.950 . S
C2869 C2865 1.385 . S
C2869 C2868 1.374 . S
C2870 C2867 1.499 . S
C2870 C2871 1.373 . S
C2870 C2872 1.389 . S
C2871 H2850 0.950 . S
C2871 C2870 1.373 . S
C2871 C2887 1.377 . S
C2872 C2870 1.389 . S
C2872 C2873 1.524 . S
C2872 C2886 1.377 . S
C2873 C2872 1.524 . S
C2873 C2874 1.397 . S
C2873 C2878 1.363 . S
C2874 H2851 0.950 . S
C2874 C2873 1.397 . S
C2874 C2875 1.334 . S
C2875 H2852 0.950 . S
C2875 C2874 1.334 . S
C2875 C2876 1.287 . S
C2876 C2875 1.287 . S
C2876 C2877 1.524 . S
C2876 H2895 0.913 . S
C2877 H2853 0.950 . S
C2877 C2876 1.524 . S
C2877 C2878 1.415 . S
C2878 H2854 0.950 . S
C2878 C2873 1.363 . S
C2878 C2877 1.415 . S
C2879 H2855 0.951 . S
C2879 C2880 1.366 . S
C2879 C2881 1.388 . S
C2880 C2879 1.366 . S
C2880 C2884 1.385 . S
C2881 H2856 0.951 . S
C2881 C2879 1.388 . S
C2881 C2882 1.366 . S
C2882 C2881 1.366 . S
C2882 C2883 1.414 . S
C2882 C2885 1.499 . S
C2883 H2857 0.950 . S
C2883 C2882 1.414 . S
C2883 C2884 1.374 . S
C2884 H2858 0.950 . S
C2884 C2880 1.385 . S
C2884 C2883 1.374 . S
C2885 C2882 1.499 . S
C2885 C2886 1.373 . S
C2885 C2887 1.389 . S
C2886 H2859 0.950 . S
C2886 C2872 1.377 . S
C2886 C2885 1.373 . S
C2887 C2871 1.377 . S
C2887 C2885 1.389 . S
C2887 C2888 1.524 . S
C2888 C2887 1.524 . S
C2888 C2889 1.397 . S
C2888 C2893 1.363 . S
C2889 H2860 0.950 . S
C2889 C2888 1.397 . S
C2889 C2890 1.334 . S
C2890 H2861 0.950 . S
C2890 C2889 1.334 . S
C2890 C2891 1.287 . S
C2891 C2890 1.287 . S
C2891 C2892 1.524 . S
C2891 H2894 0.999 . S
C2892 H2862 0.950 . S
C2892 C2891 1.524 . S
C2892 C2893 1.415 . S
C2893 H2863 0.950 . S
C2893 C2888 1.363 . S
C2893 C2892 1.415 . S
H2894 C2891 0.999 . S
H2895 C2876 0.913 . S
H2896 C2914 0.951 . S
H2897 C2916 0.951 . S
H2898 C2918 0.950 . S
H2899 C2919 0.950 . S
H2900 C2921 0.950 . S
H2901 C2924 0.950 . S
H2902 C2925 0.950 . S
H2903 C2927 0.950 . S
H2904 C2928 0.950 . S
H2905 C2929 0.951 . S
H2906 C2931 0.951 . S
H2907 C2933 0.950 . S
H2908 C2934 0.950 . S
H2909 C2936 0.950 . S
H2910 C2939 0.950 . S
H2911 C2940 0.950 . S
H2912 C2942 0.950 . S
H2913 C2943 0.950 . S
C2914 H2896 0.951 . S
C2914 C2915 1.366 . S
C2914 C2916 1.388 . S
C2915 C2914 1.366 . S
C2915 C2919 1.385 . S
C2916 H2897 0.951 . S
C2916 C2914 1.388 . S
C2916 C2917 1.366 . S
C2917 C2916 1.366 . S
C2917 C2918 1.414 . S
C2917 C2920 1.499 . S
C2918 H2898 0.950 . S
C2918 C2917 1.414 . S
C2918 C2919 1.374 . S
C2919 H2899 0.950 . S
C2919 C2915 1.385 . S
C2919 C2918 1.374 . S
C2920 C2917 1.499 . S
C2920 C2921 1.373 . S
C2920 C2922 1.389 . S
C2921 H2900 0.950 . S
C2921 C2920 1.373 . S
C2921 C2937 1.377 . S
C2922 C2920 1.389 . S
C2922 C2923 1.524 . S
C2922 C2936 1.377 . S
C2923 C2922 1.524 . S
C2923 C2924 1.397 . S
C2923 C2928 1.363 . S
C2924 H2901 0.950 . S
C2924 C2923 1.397 . S
C2924 C2925 1.334 . S
C2925 H2902 0.950 . S
C2925 C2924 1.334 . S
C2925 C2926 1.287 . S
C2926 C2925 1.287 . S
C2926 C2927 1.524 . S
C2926 H2945 0.913 . S
C2927 H2903 0.950 . S
C2927 C2926 1.524 . S
C2927 C2928 1.415 . S
C2928 H2904 0.950 . S
C2928 C2923 1.363 . S
C2928 C2927 1.415 . S
C2929 H2905 0.951 . S
C2929 C2930 1.366 . S
C2929 C2931 1.388 . S
C2930 C2929 1.366 . S
C2930 C2934 1.385 . S
C2931 H2906 0.951 . S
C2931 C2929 1.388 . S
C2931 C2932 1.366 . S
C2932 C2931 1.366 . S
C2932 C2933 1.414 . S
C2932 C2935 1.499 . S
C2933 H2907 0.950 . S
C2933 C2932 1.414 . S
C2933 C2934 1.374 . S
C2934 H2908 0.950 . S
C2934 C2930 1.385 . S
C2934 C2933 1.374 . S
C2935 C2932 1.499 . S
C2935 C2936 1.373 . S
C2935 C2937 1.389 . S
C2936 H2909 0.950 . S
C2936 C2922 1.377 . S
C2936 C2935 1.373 . S
C2937 C2921 1.377 . S
C2937 C2935 1.389 . S
C2937 C2938 1.524 . S
C2938 C2937 1.524 . S
C2938 C2939 1.397 . S
C2938 C2943 1.363 . S
C2939 H2910 0.950 . S
C2939 C2938 1.397 . S
C2939 C2940 1.334 . S
C2940 H2911 0.950 . S
C2940 C2939 1.334 . S
C2940 C2941 1.287 . S
C2941 C2940 1.287 . S
C2941 C2942 1.524 . S
C2941 H2944 0.999 . S
C2942 H2912 0.950 . S
C2942 C2941 1.524 . S
C2942 C2943 1.415 . S
C2943 H2913 0.950 . S
C2943 C2938 1.363 . S
C2943 C2942 1.415 . S
H2944 C2941 0.999 . S
H2945 C2926 0.913 . S
H2946 C2964 0.951 . S
H2947 C2966 0.951 . S
H2948 C2968 0.950 . S
H2949 C2969 0.950 . S
H2950 C2971 0.950 . S
H2951 C2974 0.950 . S
H2952 C2975 0.950 . S
H2953 C2977 0.950 . S
H2954 C2978 0.950 . S
H2955 C2979 0.951 . S
H2956 C2981 0.951 . S
H2957 C2983 0.950 . S
H2958 C2984 0.950 . S
H2959 C2986 0.950 . S
H2960 C2989 0.950 . S
H2961 C2990 0.950 . S
H2962 C2992 0.950 . S
H2963 C2993 0.950 . S
C2964 H2946 0.951 . S
C2964 C2965 1.366 . S
C2964 C2966 1.388 . S
C2965 C2964 1.366 . S
C2965 C2969 1.385 . S
C2966 H2947 0.951 . S
C2966 C2964 1.388 . S
C2966 C2967 1.366 . S
C2967 C2966 1.366 . S
C2967 C2968 1.414 . S
C2967 C2970 1.499 . S
C2968 H2948 0.950 . S
C2968 C2967 1.414 . S
C2968 C2969 1.374 . S
C2969 H2949 0.950 . S
C2969 C2965 1.385 . S
C2969 C2968 1.374 . S
C2970 C2967 1.499 . S
C2970 C2971 1.373 . S
C2970 C2972 1.389 . S
C2971 H2950 0.950 . S
C2971 C2970 1.373 . S
C2971 C2987 1.377 . S
C2972 C2970 1.389 . S
C2972 C2973 1.524 . S
C2972 C2986 1.377 . S
C2973 C2972 1.524 . S
C2973 C2974 1.397 . S
C2973 C2978 1.363 . S
C2974 H2951 0.950 . S
C2974 C2973 1.397 . S
C2974 C2975 1.334 . S
C2975 H2952 0.950 . S
C2975 C2974 1.334 . S
C2975 C2976 1.287 . S
C2976 C2975 1.287 . S
C2976 C2977 1.524 . S
C2976 H2995 0.913 . S
C2977 H2953 0.950 . S
C2977 C2976 1.524 . S
C2977 C2978 1.415 . S
C2978 H2954 0.950 . S
C2978 C2973 1.363 . S
C2978 C2977 1.415 . S
C2979 H2955 0.951 . S
C2979 C2980 1.366 . S
C2979 C2981 1.388 . S
C2980 C2979 1.366 . S
C2980 C2984 1.385 . S
C2981 H2956 0.951 . S
C2981 C2979 1.388 . S
C2981 C2982 1.366 . S
C2982 C2981 1.366 . S
C2982 C2983 1.414 . S
C2982 C2985 1.499 . S
C2983 H2957 0.950 . S
C2983 C2982 1.414 . S
C2983 C2984 1.374 . S
C2984 H2958 0.950 . S
C2984 C2980 1.385 . S
C2984 C2983 1.374 . S
C2985 C2982 1.499 . S
C2985 C2986 1.373 . S
C2985 C2987 1.389 . S
C2986 H2959 0.950 . S
C2986 C2972 1.377 . S
C2986 C2985 1.373 . S
C2987 C2971 1.377 . S
C2987 C2985 1.389 . S
C2987 C2988 1.524 . S
C2988 C2987 1.524 . S
C2988 C2989 1.397 . S
C2988 C2993 1.363 . S
C2989 H2960 0.950 . S
C2989 C2988 1.397 . S
C2989 C2990 1.334 . S
C2990 H2961 0.950 . S
C2990 C2989 1.334 . S
C2990 C2991 1.287 . S
C2991 C2990 1.287 . S
C2991 C2992 1.524 . S
C2991 H2994 0.999 . S
C2992 H2962 0.950 . S
C2992 C2991 1.524 . S
C2992 C2993 1.415 . S
C2993 H2963 0.950 . S
C2993 C2988 1.363 . S
C2993 C2992 1.415 . S
H2994 C2991 0.999 . S
H2995 C2976 0.913 . S
C630 C293 1.466 . S
C615 N2 1.451 . S
C680 C339 2.063 . S
C665 C7 2.064 1_655 S
C730 C382 1.502 . S
C715 N12 1.415 1_655 S
C765 C16 2.561 . S
C780 C419 2.602 . S
C830 C438 2.119 . S
C815 C30 2.118 . S
C880 C493 1.345 . S
C865 N35 1.312 . S
C915 C39 2.697 1_655 S
C930 C518 2.666 . S
C980 C582 1.299 . S
C965 N25 1.220 1_655 S
C1030 C278 1.502 . S
C1015 N58 1.470 . S
C1065 N81 1.216 . S
C1080 C342 1.234 . S
C1130 C369 1.317 . S
C1115 N104 1.269 . S
C1165 N127 1.290 . S
C1180 C422 1.312 . S
C1230 C460 1.029 . S
C1215 N48 1.008 . S
C1280 C478 1.791 . S
C1265 N71 1.788 . S
C1315 N94 1.099 . S
C1330 C540 1.131 . S
C1380 C569 1.629 . S
C1365 N117 1.600 . S
C1415 C85 1.934 . S
C1430 C300 1.977 . S
C1465 C122 1.495 . S
C1480 C453 1.492 . S
C1515 C53 1.891 . S
C1530 C500 1.901 . S
C1580 C533 1.599 . S
C1565 C76 1.604 . S
C1630 C579 2.127 . S
C1615 C99 2.143 . S
C1680 C379 2.154 . S
C1665 C131 2.146 . S
C1730 C409 1.596 . S
C1715 C62 1.589 . S
C1765 C108 1.448 . S
C1780 C329 1.451 . S
C1830 C573 1.552 . S
C1815 N140 1.536 . S
C1865 C145 2.055 . S
C1880 C459 2.055 . S
C1930 C502 1.414 . S
C1915 N150 1.336 . S
C1965 C154 2.563 . S
C1980 C539 2.602 . S
C2030 C318 2.110 . S
C2015 C168 2.109 . S
C2065 N173 1.240 . S
C2080 C373 1.270 . S
C2130 C398 2.661 . S
C2115 C177 2.695 . S
C2180 C302 1.373 . S
C2165 N163 1.282 . S
C2230 C558 1.963 . S
C2215 C200 1.962 . S
C2280 C462 1.507 . S
C2265 N219 1.482 . S
C2315 N242 1.524 . S
C2330 C489 1.581 . S
C2380 C542 1.633 . S
C2365 C269 1.652 . S
C2430 C340 1.352 . S
C2415 C191 1.358 . S
C2465 N209 2.058 . S
C2480 C358 2.062 . S
C2515 N232 1.414 . S
C2530 C420 1.460 . S
C2565 C260 2.057 . S
C2580 C289 2.084 . S
C2615 C223 1.627 . S
C2630 C580 1.668 . S
C2665 N255 1.142 . S
C2680 C333 1.176 . S
C2715 N186 1.434 . S
C2730 C380 1.468 . S
C2780 C413 1.304 . S
C2765 C214 1.309 . S
C2830 C299 1.856 . S
C2815 C237 1.871 . S
C2880 C499 1.687 . S
C2865 N265 1.661 . S
C2930 C529 1.251 . S
C2915 N196 1.197 . S
C2980 C449 1.117 . S
C2965 C246 1.114 . S
