# Generated by pormake.
# Topology gar, (4,6)-cn, num edge types: 1
# Building blocks:
#     Node 0, Type 0, BuildingBlock: KUFVIS_clean_sbu_0, # of connection points: 4
#     Node 1, Type 0, BuildingBlock: KUFVIS_clean_sbu_0, # of connection points: 4
#     Node 2, Type 0, BuildingBlock: KUFVIS_clean_sbu_0, # of connection points: 4
#     Node 3, Type 0, BuildingBlock: KUFVIS_clean_sbu_0, # of connection points: 4
#     Node 4, Type 0, BuildingBlock: KUFVIS_clean_sbu_0, # of connection points: 4
#     Node 5, Type 0, BuildingBlock: KUFVIS_clean_sbu_0, # of connection points: 4
#     Node 6, Type 0, BuildingBlock: KUFVIS_clean_sbu_0, # of connection points: 4
#     Node 7, Type 0, BuildingBlock: KUFVIS_clean_sbu_0, # of connection points: 4
#     Node 8, Type 0, BuildingBlock: KUFVIS_clean_sbu_0, # of connection points: 4
#     Node 9, Type 0, BuildingBlock: KUFVIS_clean_sbu_0, # of connection points: 4
#     Node 10, Type 0, BuildingBlock: KUFVIS_clean_sbu_0, # of connection points: 4
#     Node 11, Type 0, BuildingBlock: KUFVIS_clean_sbu_0, # of connection points: 4
#     Node 12, Type 0, BuildingBlock: KUFVIS_clean_sbu_0, # of connection points: 4
#     Node 13, Type 0, BuildingBlock: KUFVIS_clean_sbu_0, # of connection points: 4
#     Node 14, Type 0, BuildingBlock: KUFVIS_clean_sbu_0, # of connection points: 4
#     Node 15, Type 0, BuildingBlock: KUFVIS_clean_sbu_0, # of connection points: 4
#     Node 16, Type 0, BuildingBlock: KUFVIS_clean_sbu_0, # of connection points: 4
#     Node 17, Type 0, BuildingBlock: KUFVIS_clean_sbu_0, # of connection points: 4
#     Node 18, Type 0, BuildingBlock: KUFVIS_clean_sbu_0, # of connection points: 4
#     Node 19, Type 0, BuildingBlock: KUFVIS_clean_sbu_0, # of connection points: 4
#     Node 20, Type 0, BuildingBlock: KUFVIS_clean_sbu_0, # of connection points: 4
#     Node 21, Type 0, BuildingBlock: KUFVIS_clean_sbu_0, # of connection points: 4
#     Node 22, Type 0, BuildingBlock: KUFVIS_clean_sbu_0, # of connection points: 4
#     Node 23, Type 0, BuildingBlock: KUFVIS_clean_sbu_0, # of connection points: 4
#     Node 24, Type 1, BuildingBlock: KUMJIN_clean_sbu_1, # of connection points: 6
#     Node 25, Type 1, BuildingBlock: KUMJIN_clean_sbu_1, # of connection points: 6
#     Node 26, Type 1, BuildingBlock: KUMJIN_clean_sbu_1, # of connection points: 6
#     Node 27, Type 1, BuildingBlock: KUMJIN_clean_sbu_1, # of connection points: 6
#     Node 28, Type 1, BuildingBlock: KUMJIN_clean_sbu_1, # of connection points: 6
#     Node 29, Type 1, BuildingBlock: KUMJIN_clean_sbu_1, # of connection points: 6
#     Node 30, Type 1, BuildingBlock: KUMJIN_clean_sbu_1, # of connection points: 6
#     Node 31, Type 1, BuildingBlock: KUMJIN_clean_sbu_1, # of connection points: 6
#     Node 32, Type 1, BuildingBlock: KUMJIN_clean_sbu_1, # of connection points: 6
#     Node 33, Type 1, BuildingBlock: KUMJIN_clean_sbu_1, # of connection points: 6
#     Node 34, Type 1, BuildingBlock: KUMJIN_clean_sbu_1, # of connection points: 6
#     Node 35, Type 1, BuildingBlock: KUMJIN_clean_sbu_1, # of connection points: 6
#     Node 36, Type 1, BuildingBlock: KUMJIN_clean_sbu_1, # of connection points: 6
#     Node 37, Type 1, BuildingBlock: KUMJIN_clean_sbu_1, # of connection points: 6
#     Node 38, Type 1, BuildingBlock: KUMJIN_clean_sbu_1, # of connection points: 6
#     Node 39, Type 1, BuildingBlock: KUMJIN_clean_sbu_1, # of connection points: 6
#     Edge 40, Type (0, 1), BuildingBlock: CIFDUS_clean_linker_0, # of connection points: 2
#     Edge 41, Type (0, 1), BuildingBlock: CIFDUS_clean_linker_0, # of connection points: 2
#     Edge 42, Type (0, 1), BuildingBlock: CIFDUS_clean_linker_0, # of connection points: 2
#     Edge 43, Type (0, 1), BuildingBlock: CIFDUS_clean_linker_0, # of connection points: 2
#     Edge 44, Type (0, 1), BuildingBlock: CIFDUS_clean_linker_0, # of connection points: 2
#     Edge 45, Type (0, 1), BuildingBlock: CIFDUS_clean_linker_0, # of connection points: 2
#     Edge 46, Type (0, 1), BuildingBlock: CIFDUS_clean_linker_0, # of connection points: 2
#     Edge 47, Type (0, 1), BuildingBlock: CIFDUS_clean_linker_0, # of connection points: 2
#     Edge 48, Type (0, 1), BuildingBlock: CIFDUS_clean_linker_0, # of connection points: 2
#     Edge 49, Type (0, 1), BuildingBlock: CIFDUS_clean_linker_0, # of connection points: 2
#     Edge 50, Type (0, 1), BuildingBlock: CIFDUS_clean_linker_0, # of connection points: 2
#     Edge 51, Type (0, 1), BuildingBlock: CIFDUS_clean_linker_0, # of connection points: 2
#     Edge 52, Type (0, 1), BuildingBlock: CIFDUS_clean_linker_0, # of connection points: 2
#     Edge 53, Type (0, 1), BuildingBlock: CIFDUS_clean_linker_0, # of connection points: 2
#     Edge 54, Type (0, 1), BuildingBlock: CIFDUS_clean_linker_0, # of connection points: 2
#     Edge 55, Type (0, 1), BuildingBlock: CIFDUS_clean_linker_0, # of connection points: 2
#     Edge 56, Type (0, 1), BuildingBlock: CIFDUS_clean_linker_0, # of connection points: 2
#     Edge 57, Type (0, 1), BuildingBlock: CIFDUS_clean_linker_0, # of connection points: 2
#     Edge 58, Type (0, 1), BuildingBlock: CIFDUS_clean_linker_0, # of connection points: 2
#     Edge 59, Type (0, 1), BuildingBlock: CIFDUS_clean_linker_0, # of connection points: 2
#     Edge 60, Type (0, 1), BuildingBlock: CIFDUS_clean_linker_0, # of connection points: 2
#     Edge 61, Type (0, 1), BuildingBlock: CIFDUS_clean_linker_0, # of connection points: 2
#     Edge 62, Type (0, 1), BuildingBlock: CIFDUS_clean_linker_0, # of connection points: 2
#     Edge 63, Type (0, 1), BuildingBlock: CIFDUS_clean_linker_0, # of connection points: 2
#     Edge 64, Type (0, 1), BuildingBlock: CIFDUS_clean_linker_0, # of connection points: 2
#     Edge 65, Type (0, 1), BuildingBlock: CIFDUS_clean_linker_0, # of connection points: 2
#     Edge 66, Type (0, 1), BuildingBlock: CIFDUS_clean_linker_0, # of connection points: 2
#     Edge 67, Type (0, 1), BuildingBlock: CIFDUS_clean_linker_0, # of connection points: 2
#     Edge 68, Type (0, 1), BuildingBlock: CIFDUS_clean_linker_0, # of connection points: 2
#     Edge 69, Type (0, 1), BuildingBlock: CIFDUS_clean_linker_0, # of connection points: 2
#     Edge 70, Type (0, 1), BuildingBlock: CIFDUS_clean_linker_0, # of connection points: 2
#     Edge 71, Type (0, 1), BuildingBlock: CIFDUS_clean_linker_0, # of connection points: 2
#     Edge 72, Type (0, 1), BuildingBlock: CIFDUS_clean_linker_0, # of connection points: 2
#     Edge 73, Type (0, 1), BuildingBlock: CIFDUS_clean_linker_0, # of connection points: 2
#     Edge 74, Type (0, 1), BuildingBlock: CIFDUS_clean_linker_0, # of connection points: 2
#     Edge 75, Type (0, 1), BuildingBlock: CIFDUS_clean_linker_0, # of connection points: 2
#     Edge 76, Type (0, 1), BuildingBlock: CIFDUS_clean_linker_0, # of connection points: 2
#     Edge 77, Type (0, 1), BuildingBlock: CIFDUS_clean_linker_0, # of connection points: 2
#     Edge 78, Type (0, 1), BuildingBlock: CIFDUS_clean_linker_0, # of connection points: 2
#     Edge 79, Type (0, 1), BuildingBlock: CIFDUS_clean_linker_0, # of connection points: 2
#     Edge 80, Type (0, 1), BuildingBlock: CIFDUS_clean_linker_0, # of connection points: 2
#     Edge 81, Type (0, 1), BuildingBlock: CIFDUS_clean_linker_0, # of connection points: 2
#     Edge 82, Type (0, 1), BuildingBlock: CIFDUS_clean_linker_0, # of connection points: 2
#     Edge 83, Type (0, 1), BuildingBlock: CIFDUS_clean_linker_0, # of connection points: 2
#     Edge 84, Type (0, 1), BuildingBlock: CIFDUS_clean_linker_0, # of connection points: 2
#     Edge 85, Type (0, 1), BuildingBlock: CIFDUS_clean_linker_0, # of connection points: 2
#     Edge 86, Type (0, 1), BuildingBlock: CIFDUS_clean_linker_0, # of connection points: 2
#     Edge 87, Type (0, 1), BuildingBlock: CIFDUS_clean_linker_0, # of connection points: 2
#     Edge 88, Type (0, 1), BuildingBlock: CIFDUS_clean_linker_0, # of connection points: 2
#     Edge 89, Type (0, 1), BuildingBlock: CIFDUS_clean_linker_0, # of connection points: 2
#     Edge 90, Type (0, 1), BuildingBlock: CIFDUS_clean_linker_0, # of connection points: 2
#     Edge 91, Type (0, 1), BuildingBlock: CIFDUS_clean_linker_0, # of connection points: 2
#     Edge 92, Type (0, 1), BuildingBlock: CIFDUS_clean_linker_0, # of connection points: 2
#     Edge 93, Type (0, 1), BuildingBlock: CIFDUS_clean_linker_0, # of connection points: 2
#     Edge 94, Type (0, 1), BuildingBlock: CIFDUS_clean_linker_0, # of connection points: 2
#     Edge 95, Type (0, 1), BuildingBlock: CIFDUS_clean_linker_0, # of connection points: 2
#     Edge 96, Type (0, 1), BuildingBlock: CIFDUS_clean_linker_0, # of connection points: 2
#     Edge 97, Type (0, 1), BuildingBlock: CIFDUS_clean_linker_0, # of connection points: 2
#     Edge 98, Type (0, 1), BuildingBlock: CIFDUS_clean_linker_0, # of connection points: 2
#     Edge 99, Type (0, 1), BuildingBlock: CIFDUS_clean_linker_0, # of connection points: 2
#     Edge 100, Type (0, 1), BuildingBlock: CIFDUS_clean_linker_0, # of connection points: 2
#     Edge 101, Type (0, 1), BuildingBlock: CIFDUS_clean_linker_0, # of connection points: 2
#     Edge 102, Type (0, 1), BuildingBlock: CIFDUS_clean_linker_0, # of connection points: 2
#     Edge 103, Type (0, 1), BuildingBlock: CIFDUS_clean_linker_0, # of connection points: 2
#     Edge 104, Type (0, 1), BuildingBlock: CIFDUS_clean_linker_0, # of connection points: 2
#     Edge 105, Type (0, 1), BuildingBlock: CIFDUS_clean_linker_0, # of connection points: 2
#     Edge 106, Type (0, 1), BuildingBlock: CIFDUS_clean_linker_0, # of connection points: 2
#     Edge 107, Type (0, 1), BuildingBlock: CIFDUS_clean_linker_0, # of connection points: 2
#     Edge 108, Type (0, 1), BuildingBlock: CIFDUS_clean_linker_0, # of connection points: 2
#     Edge 109, Type (0, 1), BuildingBlock: CIFDUS_clean_linker_0, # of connection points: 2
#     Edge 110, Type (0, 1), BuildingBlock: CIFDUS_clean_linker_0, # of connection points: 2
#     Edge 111, Type (0, 1), BuildingBlock: CIFDUS_clean_linker_0, # of connection points: 2
#     Edge 112, Type (0, 1), BuildingBlock: CIFDUS_clean_linker_0, # of connection points: 2
#     Edge 113, Type (0, 1), BuildingBlock: CIFDUS_clean_linker_0, # of connection points: 2
#     Edge 114, Type (0, 1), BuildingBlock: CIFDUS_clean_linker_0, # of connection points: 2
#     Edge 115, Type (0, 1), BuildingBlock: CIFDUS_clean_linker_0, # of connection points: 2
#     Edge 116, Type (0, 1), BuildingBlock: CIFDUS_clean_linker_0, # of connection points: 2
#     Edge 117, Type (0, 1), BuildingBlock: CIFDUS_clean_linker_0, # of connection points: 2
#     Edge 118, Type (0, 1), BuildingBlock: CIFDUS_clean_linker_0, # of connection points: 2
#     Edge 119, Type (0, 1), BuildingBlock: CIFDUS_clean_linker_0, # of connection points: 2
#     Edge 120, Type (0, 1), BuildingBlock: CIFDUS_clean_linker_0, # of connection points: 2
#     Edge 121, Type (0, 1), BuildingBlock: CIFDUS_clean_linker_0, # of connection points: 2
#     Edge 122, Type (0, 1), BuildingBlock: CIFDUS_clean_linker_0, # of connection points: 2
#     Edge 123, Type (0, 1), BuildingBlock: CIFDUS_clean_linker_0, # of connection points: 2
#     Edge 124, Type (0, 1), BuildingBlock: CIFDUS_clean_linker_0, # of connection points: 2
#     Edge 125, Type (0, 1), BuildingBlock: CIFDUS_clean_linker_0, # of connection points: 2
#     Edge 126, Type (0, 1), BuildingBlock: CIFDUS_clean_linker_0, # of connection points: 2
#     Edge 127, Type (0, 1), BuildingBlock: CIFDUS_clean_linker_0, # of connection points: 2
#     Edge 128, Type (0, 1), BuildingBlock: CIFDUS_clean_linker_0, # of connection points: 2
#     Edge 129, Type (0, 1), BuildingBlock: CIFDUS_clean_linker_0, # of connection points: 2
#     Edge 130, Type (0, 1), BuildingBlock: CIFDUS_clean_linker_0, # of connection points: 2
#     Edge 131, Type (0, 1), BuildingBlock: CIFDUS_clean_linker_0, # of connection points: 2
#     Edge 132, Type (0, 1), BuildingBlock: CIFDUS_clean_linker_0, # of connection points: 2
#     Edge 133, Type (0, 1), BuildingBlock: CIFDUS_clean_linker_0, # of connection points: 2
#     Edge 134, Type (0, 1), BuildingBlock: CIFDUS_clean_linker_0, # of connection points: 2
#     Edge 135, Type (0, 1), BuildingBlock: CIFDUS_clean_linker_0, # of connection points: 2
# Relax obj value: 0.075
# Max RMSD: 0.183
# Mean RMSD: 0.110
data_MOF--net-gar--node1-KUFVIS_clean_sbu_0--node2-KUMJIN_clean_sbu_1--edge1-CIFDUS_clean_linker_0
_symmetry_space_group_name_H-M    P1
_symmetry_Int_Tables_number       1
_symmetry_cell_setting            triclinic
loop_
_symmetry_equiv_pos_as_xyz
'x, y, z'
_cell_length_a     52.806877
_cell_length_b     53.017625
_cell_length_c     50.343821
_cell_angle_alpha  96.379897
_cell_angle_beta   96.543371
_cell_angle_gamma 102.07301
loop_
_atom_site_label
_atom_site_type_symbol
_atom_site_fract_x
_atom_site_fract_y
_atom_site_fract_z
_atom_type_partial_charge
Mn0 Mn 0.05656 0.32484 0.37415 0.0
Mn1 Mn 0.05799 0.36927 0.33191 0.0
C2 C 0.01505 0.33159 0.35393 0.0
C3 C 0.05592 0.2828 0.38606 0.0
C4 C 0.06615 0.38462 0.39325 0.0
O5 O 0.09506 0.32866 0.36329 0.0
O6 O 0.09379 0.35862 0.3356 0.0
C7 C 0.06248 0.33643 0.28175 0.0
N8 N 0.04966 0.35233 0.2954 0.0
C9 C 0.01777 0.34898 0.25621 0.0
C10 C 0.03081 0.3328 0.2417 0.0
C11 C 0.05322 0.32646 0.25455 0.0
C12 C 0.02807 0.35858 0.2832 0.0
H13 H 0.07961 0.33131 0.2915 0.0
C14 C 0.10608 0.34279 0.34668 0.0
O15 O 0.06465 0.30373 0.40323 0.0
O16 O 0.04862 0.2862 0.36141 0.0
N17 N 0.02613 0.38089 0.32515 0.0
C18 C 1.01439 0.39471 0.34257 0.0
C19 C 0.99098 0.4015 0.33319 0.0
C20 C 0.97989 0.39412 0.30602 0.0
C21 C 0.99227 0.37991 0.28847 0.0
C22 C 0.01564 0.37375 0.29894 0.0
H23 H 0.02261 0.40032 0.36355 0.0
O24 O 0.01796 0.32223 0.37648 0.0
O25 O 0.03722 0.33703 0.34348 0.0
O26 O 0.06454 0.36118 0.39804 0.0
O27 O 0.06567 0.39011 0.3691 0.0
C28 C 0.98187 0.37087 0.26124 0.0
C29 C 0.99462 0.35545 0.24511 0.0
H30 H 0.02361 0.32489 0.22078 0.0
H31 H 0.06328 0.31384 0.24354 0.0
H32 H 0.98144 0.41229 0.34692 0.0
H33 H 0.9617 0.39917 0.29895 0.0
H34 H 0.96381 0.37529 0.25262 0.0
H35 H 0.98622 0.3483 0.22431 0.0
Mn36 Mn 0.0365 0.74801 0.71188 0.0
Mn37 Mn 0.05042 0.79595 0.76505 0.0
C38 C 0.0814 0.76143 0.73546 0.0
C39 C 0.02487 0.70444 0.6867 0.0
C40 C 0.04684 0.8068 0.70713 0.0
O41 O 0.99805 0.75065 0.72189 0.0
O42 O 1.01039 0.78287 0.75682 0.0
C43 C 0.03239 0.76403 0.80684 0.0
N44 N 0.05178 0.78055 0.79761 0.0
C45 C 0.08217 0.7807 0.8371 0.0
C46 C 0.06248 0.76382 0.8471 0.0
C47 C 0.0375 0.75542 0.83188 0.0
C48 C 0.07591 0.7887 0.81207 0.0
H49 H 1.01318 0.75747 0.79519 0.0
C50 C 0.99195 0.76641 0.74073 0.0
O51 O 0.0225 0.72505 0.67615 0.0
O52 O 0.03134 0.70842 0.71283 0.0
N53 N 0.08689 0.81089 0.77617 0.0
C54 C 0.10396 0.82655 0.76332 0.0
C55 C 0.12997 0.83617 0.77561 0.0
C56 C 0.13809 0.82984 0.80108 0.0
C57 C 0.12011 0.81396 0.81406 0.0
C58 C 0.09444 0.80492 0.80081 0.0
H59 H 0.0979 0.83147 0.74371 0.0
O60 O 0.07548 0.74982 0.71085 0.0
O61 O 0.0603 0.76455 0.74632 0.0
O62 O 0.04086 0.78288 0.69715 0.0
O63 O 0.05058 0.81442 0.73253 0.0
C64 C 0.12678 0.80633 0.83937 0.0
C65 C 0.10783 0.78971 0.85089 0.0
H66 H 0.06635 0.75709 0.86638 0.0
H67 H 0.02222 0.74233 0.83943 0.0
H68 H 0.14373 0.84837 0.76543 0.0
H69 H 0.15821 0.83716 0.81041 0.0
H70 H 0.14649 0.81294 0.85006 0.0
H71 H 0.11324 0.78385 0.87029 0.0
Mn72 Mn 0.55494 0.82301 0.87879 0.0
Mn73 Mn 0.55761 0.86731 0.83649 0.0
C74 C 0.51348 0.83034 0.85839 0.0
C75 C 0.55289 0.78074 0.89106 0.0
C76 C 0.56541 0.88316 0.89789 0.0
O77 O 0.59358 0.82562 0.86769 0.0
O78 O 0.59315 0.85582 0.84024 0.0
C79 C 0.56169 0.83393 0.78651 0.0
N80 N 0.54927 0.85037 0.79997 0.0
C81 C 0.51814 0.84803 0.76041 0.0
C82 C 0.53079 0.83134 0.74609 0.0
C83 C 0.55261 0.82421 0.75923 0.0
C84 C 0.52824 0.85736 0.7875 0.0
H85 H 0.57836 0.8282 0.79646 0.0
C86 C 0.605 0.83948 0.85103 0.0
O87 O 0.56217 0.80167 0.90809 0.0
O88 O 0.54606 0.78423 0.86633 0.0
N89 N 0.52625 0.87972 0.82942 0.0
C90 C 0.51463 0.89382 0.8467 0.0
C91 C 0.49173 0.90137 0.83703 0.0
C92 C 0.48101 0.89443 0.80972 0.0
C93 C 0.4932 0.87984 0.79233 0.0
C94 C 0.51608 0.87295 0.80308 0.0
H95 H 0.52256 0.89911 0.86778 0.0
O96 O 0.51639 0.82126 0.88108 0.0
O97 O 0.53575 0.83537 0.84792 0.0
O98 O 0.56342 0.85964 0.90271 0.0
O99 O 0.56538 0.88849 0.87369 0.0
C100 C 0.48305 0.87113 0.76498 0.0
C101 C 0.49552 0.85527 0.74902 0.0
H102 H 0.52373 0.82362 0.7251 0.0
H103 H 0.56237 0.81117 0.74836 0.0
H104 H 0.48231 0.91243 0.85064 0.0
H105 H 0.46323 0.90011 0.80244 0.0
H106 H 0.46538 0.87612 0.75613 0.0
H107 H 0.48729 0.84835 0.72813 0.0
Mn108 Mn 0.53692 0.2541 0.21061 0.0
Mn109 Mn 0.49096 0.24581 0.15533 0.0
C110 C 0.52221 0.21217 0.18174 0.0
C111 C 0.58584 0.26363 0.22643 0.0
C112 C 0.47643 0.25659 0.21301 0.0
O113 O 0.53931 0.29131 0.20052 0.0
O114 O 0.51199 0.28242 0.16083 0.0
C115 C 0.52336 0.25233 0.11121 0.0
N116 N 0.5047 0.23727 0.12281 0.0
C117 C 0.49804 0.20211 0.08629 0.0
C118 C 0.51718 0.21725 0.07394 0.0
C119 C 0.52991 0.24244 0.08648 0.0
C120 C 0.49219 0.21306 0.11082 0.0
H121 H 0.53318 0.27171 0.12076 0.0
C122 C 0.52922 0.29813 0.17863 0.0
O123 O 0.5687 0.26598 0.24261 0.0
O124 O 0.57478 0.25607 0.20188 0.0
N125 N 0.47044 0.2108 0.14843 0.0
C126 C 0.45425 0.19786 0.16416 0.0
C127 C 0.44094 0.17196 0.15516 0.0
C128 C 0.44451 0.15956 0.13019 0.0
C129 C 0.46151 0.17315 0.11452 0.0
C130 C 0.47417 0.19899 0.12447 0.0
H131 H 0.45169 0.20712 0.18354 0.0
O132 O 0.53216 0.21382 0.20683 0.0
O133 O 0.51939 0.23459 0.17566 0.0
O134 O 0.49906 0.25532 0.22613 0.0
O135 O 0.47346 0.25408 0.18719 0.0
C136 C 0.46685 0.16186 0.08973 0.0
C137 C 0.48497 0.17637 0.07557 0.0
H138 H 0.52244 0.20966 0.05498 0.0
H139 H 0.54475 0.25421 0.07711 0.0
H140 H 0.42807 0.16153 0.16753 0.0
H141 H 0.43437 0.1395 0.12341 0.0
H142 H 0.45735 0.14192 0.08151 0.0
H143 H 0.4889 0.16735 0.05666 0.0
Mn144 Mn 0.09428 0.80943 0.12592 0.0
Mn145 Mn 0.04492 0.79414 0.07362 0.0
C146 C 0.07991 0.7644 0.10476 0.0
C147 C 0.13916 0.82082 0.14789 0.0
C148 C 0.03523 0.80003 0.13192 0.0
O149 O 0.09162 0.84695 0.11454 0.0
O150 O 0.05847 0.83386 0.08042 0.0
C151 C 0.07771 0.81 0.03171 0.0
N152 N 0.06089 0.79129 0.0415 0.0
C153 C 0.06367 0.75881 1.00518 0.0
C154 C 0.08088 0.77779 0.99463 0.0
C155 C 0.08793 0.80349 0.00797 0.0
C156 C 0.05411 0.76646 0.0289 0.0
H157 H 0.08341 0.82973 0.04201 0.0
C158 C 0.07541 0.85243 0.09571 0.0
O159 O 0.1198 0.82479 0.16011 0.0
O160 O 0.13298 0.81306 0.12206 0.0
N161 N 0.02948 0.75777 0.06366 0.0
C162 C 1.01136 0.74219 0.07546 0.0
C163 C 1.00181 0.71597 0.06426 0.0
C164 C 1.01072 0.70612 0.04087 0.0
C165 C 0.02862 0.72277 0.02852 0.0
C166 C 0.03727 0.74878 0.04047 0.0
H167 H 1.00446 0.74961 0.09347 0.0
O168 O 0.09266 0.77116 0.12887 0.0
O169 O 0.07608 0.78474 0.09309 0.0
O170 O 0.05953 0.80634 0.1415 0.0
O171 O 0.02697 0.79549 0.10654 0.0
C172 C 0.03811 0.71461 1.00474 0.0
C173 C 0.05568 0.7326 0.99311 0.0
H174 H 0.08883 0.77283 0.97634 0.0
H175 H 0.10128 0.81822 1.00001 0.0
H176 H 0.98777 0.70332 0.07375 0.0
H177 H 1.0035 0.68583 0.03243 0.0
H178 H 0.03196 0.69456 0.99518 0.0
H179 H 0.06282 0.7261 0.97481 0.0
Mn180 Mn 0.50325 0.77552 0.46291 0.0
Mn181 Mn 0.50164 0.81543 0.41289 0.0
C182 C 0.46209 0.77773 0.43686 0.0
C183 C 0.50958 0.73292 0.47941 0.0
C184 C 0.51091 0.83818 0.47246 0.0
O185 O 0.54127 0.78312 0.45348 0.0
O186 O 0.53619 0.80661 0.41924 0.0
C187 C 0.50665 0.77816 0.36648 0.0
N188 N 0.49365 0.79517 0.37797 0.0
C189 C 0.46596 0.79319 0.33602 0.0
C190 C 0.47903 0.7756 0.32371 0.0
C191 C 0.49932 0.7679 0.33906 0.0
C192 C 0.47379 0.80233 0.36351 0.0
H193 H 0.52266 0.7727 0.3781 0.0
C194 C 0.54993 0.79527 0.43445 0.0
O195 O 0.51403 0.75534 0.49448 0.0
O196 O 0.50082 0.73477 0.45466 0.0
N197 N 0.46967 0.82612 0.40386 0.0
C198 C 0.45844 0.84248 0.41902 0.0
C199 C 0.43726 0.85138 0.40692 0.0
C200 C 0.42832 0.84397 0.37921 0.0
C201 C 0.44051 0.82755 0.3639 0.0
C202 C 0.46126 0.81897 0.37716 0.0
H203 H 0.46561 0.84874 0.44019 0.0
O204 O 0.46311 0.76921 0.46015 0.0
O205 O 0.48494 0.78467 0.42928 0.0
O206 O 0.50804 0.81585 0.4818 0.0
O207 O 0.50993 0.83942 0.44727 0.0
C208 C 0.43282 0.81923 0.33603 0.0
C209 C 0.44555 0.80207 0.32211 0.0
H210 H 0.47362 0.76788 0.3025 0.0
H211 H 0.50952 0.75438 0.32969 0.0
H212 H 0.42802 0.86413 0.41886 0.0
H213 H 0.41204 0.85095 0.36991 0.0
H214 H 0.41692 0.82563 0.32518 0.0
H215 H 0.43938 0.79572 0.30074 0.0
Mn216 Mn 0.59092 0.307 0.62889 0.0
Mn217 Mn 0.54377 0.29054 0.57445 0.0
C218 C 0.57718 0.26153 0.60841 0.0
C219 C 0.6341 0.31969 0.65579 0.0
C220 C 0.53119 0.29891 0.63147 0.0
O221 O 0.58933 0.34407 0.61587 0.0
O222 O 0.55736 0.33035 0.58058 0.0
C223 C 0.5783 0.30507 0.53359 0.0
N224 N 0.56091 0.28677 0.54325 0.0
C225 C 0.56379 0.25366 0.50762 0.0
C226 C 0.58161 0.2722 0.49721 0.0
C227 C 0.5889 0.298 0.51026 0.0
C228 C 0.55386 0.26185 0.5309 0.0
H229 H 0.58409 0.32488 0.54364 0.0
C230 C 0.57378 0.34917 0.59618 0.0
O231 O 0.61293 0.32344 0.6644 0.0
O232 O 0.63104 0.31082 0.63016 0.0
N233 N 0.52836 0.25409 0.56516 0.0
C234 C 0.51015 0.2388 0.57714 0.0
C235 C 0.50058 0.21246 0.56638 0.0
C236 C 0.50953 0.20219 0.54322 0.0
C237 C 0.52767 0.21849 0.53076 0.0
C238 C 0.53642 0.24461 0.54234 0.0
H239 H 0.50318 0.24653 0.59496 0.0
O240 O 0.58836 0.26879 0.63312 0.0
O241 O 0.57441 0.28159 0.59574 0.0
O242 O 0.5552 0.30513 0.64182 0.0
O243 O 0.52406 0.29295 0.60599 0.0
C244 C 0.53747 0.20981 0.50737 0.0
C245 C 0.55556 0.22737 0.49584 0.0
H246 H 0.58986 0.26683 0.47924 0.0
H247 H 0.6027 0.3124 0.50239 0.0
H248 H 0.48644 0.20006 0.576 0.0
H249 H 0.50228 0.18181 0.53512 0.0
H250 H 0.53124 0.18967 0.4981 0.0
H251 H 0.56296 0.22047 0.47786 0.0
Mn252 Mn 1.00632 0.27839 0.96421 0.0
Mn253 Mn 1.00537 0.31776 0.91385 0.0
C254 C 0.96562 0.28003 0.93608 0.0
C255 C 1.0122 0.23537 0.98007 0.0
C256 C 0.01458 0.34073 0.97359 0.0
O257 O 0.04494 0.28737 0.95618 0.0
O258 O 0.03948 0.30775 0.91938 0.0
C259 C 1.00798 0.2797 0.86705 0.0
N260 N 0.99616 0.29756 0.87894 0.0
C261 C 0.96735 0.29591 0.83787 0.0
C262 C 0.97943 0.27773 0.82502 0.0
C263 C 0.99964 0.26936 0.83977 0.0
C264 C 0.97617 0.30512 0.86517 0.0
H265 H 0.02363 0.27347 0.87832 0.0
C266 C 0.05336 0.29764 0.93588 0.0
O267 O 0.0165 0.25751 0.99562 0.0
O268 O 1.00429 0.23788 0.9553 0.0
N269 N 0.97358 0.32912 0.90591 0.0
C270 C 0.96307 0.34573 0.9216 0.0
C271 C 0.942 0.35522 0.91022 0.0
C272 C 0.93226 0.34795 0.88268 0.0
C273 C 0.94349 0.33098 0.86689 0.0
C274 C 0.96431 0.32199 0.87941 0.0
H275 H 0.97075 0.35179 0.94261 0.0
O276 O 0.96549 0.27118 0.95918 0.0
O277 O 0.98898 0.2875 0.93034 0.0
O278 O 1.01097 0.31853 0.98315 0.0
O279 O 0.01455 0.34173 0.9484 0.0
C280 C 0.93485 0.32264 0.83921 0.0
C281 C 0.94683 0.30518 0.82475 0.0
H282 H 0.97319 0.26989 0.80393 0.0
H283 H 1.00892 0.25518 0.83007 0.0
H284 H 0.93344 0.36828 0.92259 0.0
H285 H 0.91605 0.35535 0.87392 0.0
H286 H 0.91889 0.32937 0.82889 0.0
H287 H 0.94016 0.29913 0.80355 0.0
Mn288 Mn 0.40682 0.02738 0.3117 0.0
Mn289 Mn 0.35832 0.01408 0.34917 0.0
C290 C 0.38678 0.98503 0.31242 0.0
C291 C 0.42123 0.03662 0.27154 0.0
C292 C 0.41561 0.03357 0.37205 0.0
O293 O 0.39633 0.06164 0.32002 0.0
O294 O 0.35803 0.04826 0.33599 0.0
C295 C 0.3103 1.00736 0.30991 0.0
N296 N 0.32526 0.99753 0.32815 0.0
C297 C 0.2928 0.95723 0.3227 0.0
C298 C 0.27701 0.96707 0.30402 0.0
C299 C 0.28583 0.99223 0.29757 0.0
C300 C 0.31689 0.97334 0.33458 0.0
H301 H 0.31703 0.02656 0.30481 0.0
C302 C 0.37484 0.06544 0.32715 0.0
O303 O 0.43678 0.04332 0.29432 0.0
O304 O 0.39679 0.02653 0.27246 0.0
N305 N 0.35706 0.98105 0.36195 0.0
C306 C 0.37546 0.97356 0.37867 0.0
C307 C 0.37031 0.9483 0.38582 0.0
C308 C 0.34626 0.93101 0.37588 0.0
C309 C 0.32759 0.93911 0.35877 0.0
C310 C 0.33382 0.96453 0.35231 0.0
H311 H 0.394 0.98664 0.38644 0.0
O312 O 0.40984 0.99058 0.3051 0.0
O313 O 0.37619 1.00444 0.31887 0.0
O314 O 0.42459 0.0306 0.3499 0.0
O315 O 0.39125 0.03045 0.37378 0.0
C316 C 0.30327 0.92274 0.34743 0.0
C317 C 0.28585 0.93182 0.32947 0.0
H318 H 0.25822 0.95538 0.29429 0.0
H319 H 0.27381 0.99992 0.28306 0.0
H320 H 0.38488 0.94217 0.39894 0.0
H321 H 0.34243 0.91149 0.38129 0.0
H322 H 0.29794 0.903 0.35206 0.0
H323 H 0.26737 0.91893 0.32057 0.0
Mn324 Mn 0.25958 0.20586 0.53213 0.0
Mn325 Mn 0.24904 0.14996 0.48874 0.0
C326 C 0.21681 0.17961 0.51918 0.0
C327 C 0.26854 0.22743 0.57834 0.0
C328 C 0.2655 0.20393 0.47111 0.0
O329 O 0.29578 0.19644 0.5339 0.0
O330 O 0.28444 0.15601 0.50986 0.0
C331 C 0.24801 0.11049 0.52609 0.0
N332 N 0.23603 0.12004 0.50528 0.0
C333 C 0.19817 0.08462 0.50002 0.0
C334 C 0.21018 0.07431 0.52128 0.0
C335 C 0.23516 0.08736 0.53442 0.0
C336 C 0.21196 0.10768 0.49254 0.0
H337 H 0.26717 0.12052 0.53627 0.0
C338 C 0.30103 0.17461 0.52517 0.0
O339 O 0.27394 0.23969 0.55801 0.0
O340 O 0.25854 0.20273 0.57201 0.0
N341 N 0.21513 0.14235 0.46766 0.0
C342 C 0.20545 0.15592 0.44897 0.0
C343 C 0.18017 0.14614 0.43482 0.0
C344 C 0.16512 0.12249 0.43993 0.0
C345 C 0.17549 0.10887 0.45924 0.0
C346 C 0.20086 0.11952 0.47264 0.0
H347 H 0.21689 0.17409 0.44489 0.0
O348 O 0.22031 0.20423 0.52809 0.0
O349 O 0.2382 0.17183 0.51712 0.0
O350 O 0.2633 0.21747 0.49333 0.0
O351 O 0.26188 0.17914 0.46877 0.0
C352 C 0.16143 0.08547 0.46613 0.0
C353 C 0.17276 0.07338 0.4865 0.0
H354 H 0.20026 0.05662 0.52796 0.0
H355 H 0.24446 0.07961 0.55097 0.0
H356 H 0.17228 0.15683 0.42002 0.0
H357 H 0.14555 0.1151 0.42912 0.0
H358 H 0.14172 0.07682 0.45623 0.0
H359 H 0.16151 0.05574 0.49193 0.0
Mn360 Mn 0.14154 0.07369 0.79956 0.0
Mn361 Mn 0.19409 0.08028 0.847 0.0
C362 C 0.1702 0.11482 0.81464 0.0
C363 C 0.12438 0.06873 0.75219 0.0
C364 C 0.13796 0.06802 0.86033 0.0
O365 O 0.14861 0.03663 0.79693 0.0
O366 O 0.18539 0.04438 0.82727 0.0
C367 C 0.23545 0.07401 0.81347 0.0
N368 N 0.22593 0.08881 0.83209 0.0
C369 C 0.26563 0.12206 0.8393 0.0
C370 C 0.27591 0.10719 0.82025 0.0
C371 C 0.26067 0.08313 0.80713 0.0
C372 C 0.24029 0.11213 0.84455 0.0
H373 H 0.22398 0.0553 0.80368 0.0
C374 C 0.16816 0.02941 0.80903 0.0
O375 O 0.10929 0.06288 0.77033 0.0
O376 O 0.14898 0.07635 0.76137 0.0
N377 N 0.20434 0.11469 0.8666 0.0
C378 C 0.19093 0.1273 0.8832 0.0
C379 C 0.20279 0.15241 0.89657 0.0
C380 C 0.2284 0.16409 0.89302 0.0
C381 C 0.2418 0.15068 0.87583 0.0
C382 C 0.22879 0.12594 0.86266 0.0
H383 H 0.17132 0.1183 0.88615 0.0
O384 O 0.14598 0.11319 0.8048 0.0
O385 O 0.17585 0.09256 0.81704 0.0
O386 O 0.12619 0.06922 0.83671 0.0
O387 O 0.16281 0.0717 0.86513 0.0
C388 C 0.26758 0.16079 0.87135 0.0
C389 C 0.27961 0.14627 0.85339 0.0
H390 H 0.29544 0.11409 0.81547 0.0
H391 H 0.26845 0.07154 0.79239 0.0
H392 H 0.19229 0.16265 0.90973 0.0
H393 H 0.23757 0.18337 0.90352 0.0
H394 H 0.27837 0.17964 0.8817 0.0
H395 H 0.29963 0.15382 0.8505 0.0
Mn396 Mn 0.32019 0.94093 0.01683 0.0
Mn397 Mn 0.33387 0.99219 0.98257 0.0
C398 C 0.36257 0.95979 0.01408 0.0
C399 C 0.31314 0.92315 0.05599 0.0
C400 C 0.31262 0.93681 0.95587 0.0
O401 O 0.28672 0.95363 0.0134 0.0
O402 O 0.29932 0.99066 0.99525 0.0
C403 C 0.33976 0.03575 0.02674 0.0
N404 N 0.34996 0.02325 1.00688 0.0
C405 C 0.39051 0.0556 0.01623 0.0
C406 C 0.38036 0.0689 0.03666 0.0
C407 C 0.3549 0.05889 0.04197 0.0
C408 C 0.37449 0.03266 1.00167 0.0
H409 H 0.32025 0.02808 0.03095 0.0
C410 C 0.28268 0.97476 1.00567 0.0
O411 O 0.30421 0.9097 0.03238 0.0
O412 O 0.32435 0.94752 0.05673 0.0
N413 N 0.36719 0.99561 0.9699 0.0
C414 C 0.37465 0.97972 0.95054 0.0
C415 C 0.39986 0.98659 0.94334 0.0
C416 C 0.41711 1.00979 0.95596 0.0
C417 C 0.40899 0.02589 0.97575 0.0
C418 C 0.38358 0.01808 0.98202 0.0
H419 H 0.36152 0.96188 0.94068 0.0
O420 O 0.35662 0.93599 0.01922 0.0
O421 O 0.34354 0.9716 0.0105 0.0
O422 O 0.31347 0.92648 0.97741 0.0
O423 O 0.3182 0.96131 0.95528 0.0
C424 C 0.42528 0.04915 0.9898 0.0
C425 C 0.41607 0.06396 0.01008 0.0
H426 H 0.392 0.08669 0.04854 0.0
H427 H 0.34699 0.06898 0.0578 0.0
H428 H 0.40601 0.974 0.92812 0.0
H429 H 0.43661 0.01494 0.9505 0.0
H430 H 0.44505 0.05562 0.98545 0.0
H431 H 0.4289 0.08161 0.02102 0.0
Mn432 Mn 0.32296 0.38721 0.05783 0.0
Mn433 Mn 0.33104 0.43562 0.01762 0.0
C434 C 0.36466 0.41442 0.05686 0.0
C435 C 0.31538 0.36964 0.09981 0.0
C436 C 0.32142 0.37846 0.99463 0.0
O437 O 0.28581 0.39437 0.05115 0.0
O438 O 0.29445 0.42622 0.02484 0.0
C439 C 0.32115 0.47856 0.05509 0.0
N440 N 0.33674 0.46915 0.03857 0.0
C441 C 0.36651 0.51106 0.04373 0.0
C442 C 0.35075 0.52123 0.06077 0.0
C443 C 0.32807 0.50487 0.0666 0.0
C444 C 0.35874 0.48467 0.03303 0.0
H445 H 0.30353 0.46613 0.05933 0.0
C446 C 0.27892 0.41147 0.03736 0.0
O447 O 0.3111 0.35542 0.07639 0.0
O448 O 0.32356 0.3944 0.09909 0.0
N449 N 0.36563 0.44718 0.00908 0.0
C450 C 0.37985 0.43382 0.99424 0.0
C451 C 0.40361 0.44713 0.98737 0.0
C452 C 0.41237 0.47406 0.99561 0.0
C453 C 0.39743 0.48738 0.01092 0.0
C454 C 0.37394 0.47307 0.01718 0.0
H455 H 0.37325 0.41313 0.98796 0.0
O456 O 0.36254 0.39124 0.06376 0.0
O457 O 0.3427 0.42069 0.04988 0.0
O458 O 0.3195 0.36951 0.01726 0.0
O459 O 0.32585 0.40274 0.99307 0.0
C460 C 0.40522 0.51417 0.02078 0.0
C461 C 0.38978 0.52599 0.0372 0.0
H462 H 0.35598 0.54152 0.06964 0.0
H463 H 0.31583 0.51256 0.07977 0.0
H464 H 0.41515 0.43664 0.97579 0.0
H465 H 0.4308 0.48423 0.99044 0.0
H466 H 0.42327 0.52576 0.01626 0.0
H467 H 0.3961 0.54653 0.04489 0.0
Mn468 Mn 0.77405 0.15737 0.07025 0.0
Mn469 Mn 0.75416 0.10395 0.02342 0.0
C470 C 0.73047 0.14144 0.05488 0.0
C471 C 0.78347 0.17747 0.11413 0.0
C472 C 0.7773 0.15745 0.01028 0.0
O473 O 0.80601 0.14194 0.07199 0.0
O474 O 0.79004 0.10598 0.04134 0.0
C475 C 0.75168 0.06306 0.05924 0.0
N476 N 0.73981 0.07434 0.03982 0.0
C477 C 0.69989 0.04155 0.03575 0.0
C478 C 0.71174 0.0295 0.05561 0.0
C479 C 0.7377 0.04037 0.06748 0.0
C480 C 0.71478 0.06412 0.02836 0.0
H481 H 0.77165 0.07131 0.06833 0.0
C482 C 0.80818 0.12071 0.05885 0.0
O483 O 0.79308 0.18899 0.09486 0.0
O484 O 0.77005 0.15363 0.10822 0.0
N485 N 0.71951 0.09979 1.00485 0.0
C486 C 0.71038 0.11489 0.9875 0.0
C487 C 0.68428 0.10757 0.97501 0.0
C488 C 0.66793 0.08465 0.9802 0.0
C489 C 0.67784 0.06931 0.99794 0.0
C490 C 0.70401 0.07762 0.00986 0.0
H491 H 0.72285 0.13252 0.98339 0.0
O492 O 0.73892 0.16563 0.0654 0.0
O493 O 0.74773 0.1273 0.05356 0.0
O494 O 0.78102 0.16921 0.03429 0.0
O495 O 0.76778 0.13306 1.00403 0.0
C496 C 0.66264 0.04634 1.00466 0.0
C497 C 0.67369 0.03241 0.02347 0.0
H498 H 0.701 0.01207 0.06212 0.0
H499 H 0.74693 0.03125 0.08292 0.0
H500 H 0.6768 0.11963 0.96147 0.0
H501 H 0.64778 0.07912 0.97061 0.0
H502 H 0.64232 0.03944 0.99581 0.0
H503 H 0.66168 0.01503 0.02881 0.0
Mn504 Mn 0.19256 0.56722 0.25362 0.0
Mn505 Mn 0.24605 0.58758 0.30093 0.0
C506 C 0.21557 0.60969 0.25943 0.0
C507 C 0.17071 0.55058 0.21103 0.0
C508 C 0.19071 0.57695 0.31398 0.0
O509 O 0.20174 0.53329 0.26157 0.0
O510 O 0.23974 0.5496 0.28959 0.0
C511 C 0.28727 0.57788 0.26844 0.0
N512 N 0.27739 0.59446 0.28481 0.0
C513 C 0.31473 0.62949 0.28501 0.0
C514 C 0.32541 0.61273 0.26831 0.0
C515 C 0.31157 0.58685 0.25991 0.0
C516 C 0.29047 0.61945 0.29288 0.0
H517 H 0.27667 0.558 0.26197 0.0
C518 C 0.22245 0.53066 0.2757 0.0
O519 O 0.15898 0.54923 0.23222 0.0
O520 O 0.19585 0.55987 0.21458 0.0
N521 N 0.25415 0.62419 0.31343 0.0
C522 C 0.24029 0.63831 0.32795 0.0
C523 C 0.25092 0.66485 0.33706 0.0
C524 C 0.2758 0.67652 0.33146 0.0
C525 C 0.2898 0.66154 0.31672 0.0
C526 C 0.27822 0.63516 0.3082 0.0
H527 H 0.22121 0.62946 0.33244 0.0
O528 O 0.19123 0.60363 0.24853 0.0
O529 O 0.22578 0.59089 0.26674 0.0
O530 O 0.1797 0.57194 0.28969 0.0
O531 O 0.21544 0.58195 0.32054 0.0
C532 C 0.31452 0.67189 0.30959 0.0
C533 C 0.32695 0.65589 0.2937 0.0
H534 H 0.3441 0.61958 0.26161 0.0
H535 H 0.31964 0.57386 0.2469 0.0
H536 H 0.23993 0.67629 0.34829 0.0
H537 H 0.28382 0.69705 0.33831 0.0
H538 H 0.32392 0.69223 0.3158 0.0
H539 H 0.34574 0.66419 0.28795 0.0
Mn540 Mn 0.82639 0.89167 0.56199 0.0
Mn541 Mn 0.83408 0.93909 0.52057 0.0
C542 C 0.86862 0.91462 0.55636 0.0
C543 C 0.81989 0.87874 0.60627 0.0
C544 C 0.81962 0.88122 0.49871 0.0
O545 O 0.78982 0.90047 0.55672 0.0
O546 O 0.79919 0.93348 0.53214 0.0
C547 C 0.83335 0.98358 0.56137 0.0
N548 N 0.84512 0.97259 0.54186 0.0
C549 C 0.87837 0.0119 0.54482 0.0
C550 C 0.86659 0.02369 0.56492 0.0
C551 C 0.84409 1.00941 0.57336 0.0
C552 C 0.86709 0.98595 0.53404 0.0
H553 H 0.81588 0.97272 0.56765 0.0
C554 C 0.78361 0.91882 0.54456 0.0
O555 O 0.8139 0.86232 0.58416 0.0
O556 O 0.82954 0.90253 0.60276 0.0
N557 N 0.86675 0.94732 0.5069 0.0
C558 C 0.8757 0.93309 0.48726 0.0
C559 C 0.89797 0.94457 0.4764 0.0
C560 C 0.91046 0.97074 0.48534 0.0
C561 C 0.9005 0.98522 0.50502 0.0
C562 C 0.87825 0.97272 0.51511 0.0
H563 H 0.86586 0.91315 0.47982 0.0
O564 O 0.86521 0.89234 0.56545 0.0
O565 O 0.84752 0.92306 0.55112 0.0
O566 O 0.82043 0.87242 0.52166 0.0
O567 O 0.8233 0.90547 0.49672 0.0
C568 C 0.91181 0.01155 0.51506 0.0
C569 C 0.90088 0.02482 0.53511 0.0
H570 H 0.87469 0.04367 0.57405 0.0
H571 H 0.83492 0.01836 0.58889 0.0
H572 H 0.90538 0.93333 0.46104 0.0
H573 H 0.92767 0.9795 0.47697 0.0
H574 H 0.92914 0.02167 0.5078 0.0
H575 H 0.91002 0.04492 0.54301 0.0
Mn576 Mn 0.95308 0.01347 0.27256 0.0
Mn577 Mn 0.90546 1.00801 0.31365 0.0
C578 C 0.92704 0.97216 0.27714 0.0
C579 C 0.96568 0.01984 0.22815 0.0
C580 C 0.96359 0.01901 0.33582 0.0
O581 O 0.94709 0.05092 0.27878 0.0
O582 O 0.91324 0.0429 0.30241 0.0
C583 C 0.86237 0.01164 0.27211 0.0
N584 N 0.8721 0.9989 0.29154 0.0
C585 C 0.83182 0.96643 0.2858 0.0
C586 C 0.82129 0.97931 0.26587 0.0
C587 C 0.83671 1.00191 0.25886 0.0
C588 C 0.8577 0.97673 0.29786 0.0
H589 H 0.87413 0.02907 0.26674 0.0
C590 C 0.92868 0.05798 0.29019 0.0
O591 O 0.9826 0.02445 0.24994 0.0
O592 O 0.9417 0.01153 0.23207 0.0
N593 N 0.89507 0.97523 0.32647 0.0
C594 C 0.90773 0.96571 0.34689 0.0
C595 C 0.89467 0.94381 0.35716 0.0
C596 C 0.86853 0.93213 0.34669 0.0
C597 C 0.8557 0.94247 0.32603 0.0
C598 C 0.86965 0.96453 0.31681 0.0
H599 H 0.92751 0.97501 0.35561 0.0
O600 O 0.94924 0.97399 0.26793 0.0
O601 O 0.92083 0.99416 0.2832 0.0
O602 O 0.97223 0.01803 0.31278 0.0
O603 O 0.93932 0.01651 0.33803 0.0
C604 C 0.8295 0.93198 0.31448 0.0
C605 C 0.81765 0.94384 0.29422 0.0
H606 H 0.80142 0.972 0.2558 0.0
H607 H 0.82877 0.01189 0.2434 0.0
H608 H 0.90467 0.93607 0.37326 0.0
H609 H 0.85852 0.91521 0.35464 0.0
H610 H 0.8183 0.9148 0.32102 0.0
H611 H 0.79751 0.93565 0.28553 0.0
Mn612 Mn 0.27888 0.65078 0.584 0.0
Mn613 Mn 0.26466 0.60158 0.53224 0.0
C614 C 0.23642 0.62938 0.56903 0.0
C615 C 0.28776 0.6675 0.62876 0.0
C616 C 0.27946 0.65833 0.52506 0.0
O617 O 0.31405 0.64164 0.58244 0.0
O618 O 0.30155 0.60748 0.54898 0.0
C619 C 0.26952 0.55818 0.56335 0.0
N620 N 0.25518 0.56896 0.54545 0.0
C621 C 0.21901 0.53176 0.53979 0.0
C622 C 0.23358 0.52007 0.55783 0.0
C623 C 0.2589 0.5334 0.56975 0.0
C624 C 0.23069 0.55641 0.53405 0.0
H625 H 0.28882 0.56851 0.57278 0.0
C626 C 0.31863 0.62288 0.56702 0.0
O627 O 0.29447 0.68181 0.61034 0.0
O628 O 0.2776 0.64286 0.62142 0.0
N629 N 0.2293 0.59394 0.51453 0.0
C630 C 0.2172 0.60866 0.499 0.0
C631 C 0.19134 0.59861 0.48645 0.0
C632 C 0.17825 0.5735 0.48984 0.0
C633 C 0.19118 0.55863 0.50571 0.0
C634 C 0.21704 0.5696 0.51755 0.0
H635 H 0.22709 0.62801 0.4964 0.0
O636 O 0.24152 0.65288 0.58182 0.0
O637 O 0.25617 0.61919 0.56515 0.0
O638 O 0.28219 0.66724 0.54992 0.0
O639 O 0.27327 0.63406 0.51616 0.0
C640 C 0.17926 0.53358 0.51072 0.0
C641 C 0.19315 0.52017 0.52777 0.0
H642 H 0.2254 0.50103 0.56296 0.0
H643 H 0.27016 0.52463 0.58391 0.0
H644 H 0.18148 0.61024 0.47429 0.0
H645 H 0.1582 0.56593 0.48037 0.0
H646 H 0.15926 0.52464 0.50191 0.0
H647 H 0.18361 0.50111 0.53183 0.0
Mn648 Mn 0.45248 0.51282 0.76957 0.0
Mn649 Mn 0.40209 0.50492 0.80705 0.0
C650 C 0.42825 0.47063 0.77325 0.0
C651 C 0.46983 0.51986 0.72761 0.0
C652 C 0.45945 0.51932 0.83249 0.0
O653 O 0.44389 0.54945 0.77459 0.0
O654 O 0.40758 0.53932 0.79442 0.0
C655 C 0.35833 0.5041 0.76434 0.0
N656 N 0.36915 0.49289 0.78449 0.0
C657 C 0.33003 0.45921 0.78096 0.0
C658 C 0.31841 0.47041 0.7602 0.0
C659 C 0.3327 0.49285 0.75172 0.0
C660 C 0.3558 0.47098 0.79238 0.0
H661 H 0.36916 0.52155 0.75807 0.0
C662 C 0.42368 0.55522 0.78363 0.0
O663 O 0.48409 0.52553 0.75112 0.0
O664 O 0.44515 0.51051 0.72824 0.0
N665 N 0.394 0.47254 0.82118 0.0
C666 C 0.40805 0.46404 0.84141 0.0
C667 C 0.39661 0.44175 0.85216 0.0
C668 C 0.37064 0.42873 0.84248 0.0
C669 C 0.35634 0.43816 0.82212 0.0
C670 C 0.36882 0.46043 0.81211 0.0
H671 H 0.42784 0.47419 0.84938 0.0
O672 O 0.45139 0.47404 0.76592 0.0
O673 O 0.41975 0.4917 0.77784 0.0
O674 O 0.46944 0.51768 0.81037 0.0
O675 O 0.43487 0.5166 0.83266 0.0
C676 C 0.33019 0.42636 0.81138 0.0
C677 C 0.31708 0.43684 0.79077 0.0
H678 H 0.29857 0.46192 0.75058 0.0
H679 H 0.32388 0.50158 0.73568 0.0
H680 H 0.40773 0.43472 0.86801 0.0
H681 H 0.36188 0.41153 0.8508 0.0
H682 H 0.32006 0.40907 0.81865 0.0
H683 H 0.29705 0.4275 0.78259 0.0
Mn684 Mn 0.68883 0.06923 0.75789 0.0
Mn685 Mn 0.74324 0.09322 0.80345 0.0
C686 C 0.70588 0.11311 0.7664 0.0
C687 C 0.66685 0.05303 0.71535 0.0
C688 C 0.68955 0.07502 0.81878 0.0
O689 O 0.70321 0.03731 0.76246 0.0
O690 O 0.74039 0.05585 0.79075 0.0
C691 C 0.78408 0.08954 0.76841 0.0
N692 N 0.77321 0.10397 0.78605 0.0
C693 C 0.80853 0.14145 0.78817 0.0
C694 C 0.82012 0.12699 0.77 0.0
C695 C 0.80776 0.10098 0.75996 0.0
C696 C 0.78477 0.12912 0.79557 0.0
H697 H 0.7748 0.06942 0.76103 0.0
C698 C 0.72461 0.03614 0.77628 0.0
O699 O 0.6561 0.04848 0.73672 0.0
O700 O 0.69119 0.06554 0.71856 0.0
N701 N 0.74846 0.12924 0.81766 0.0
C702 C 0.73383 0.14094 0.83363 0.0
C703 C 0.74276 0.16738 0.84425 0.0
C704 C 0.76689 0.18134 0.8389 0.0
C705 C 0.78179 0.16877 0.82276 0.0
C706 C 0.77171 0.14248 0.81243 0.0
H707 H 0.71543 0.13023 0.83812 0.0
O708 O 0.68156 0.1042 0.75612 0.0
O709 O 0.71988 0.09616 0.77104 0.0
O710 O 0.67748 0.06918 0.79488 0.0
O711 O 0.7142 0.08358 0.82424 0.0
C712 C 0.80607 0.18136 0.81623 0.0
C713 C 0.81945 0.16771 0.79896 0.0
H714 H 0.83843 0.13571 0.76351 0.0
H715 H 0.81658 0.08972 0.74591 0.0
H716 H 0.7311 0.17694 0.85662 0.0
H717 H 0.77373 0.20172 0.84715 0.0
H718 H 0.81438 0.20167 0.82394 0.0
H719 H 0.83786 0.17774 0.79367 0.0
Mn720 Mn 0.76328 0.70275 0.03648 0.0
Mn721 Mn 0.75371 0.65387 0.98447 0.0
C722 C 0.72139 0.6751 0.022 0.0
C723 C 0.77176 0.71719 0.08449 0.0
C724 C 0.76625 0.71124 0.9763 0.0
O725 O 0.80015 0.69537 0.03535 0.0
O726 O 0.79032 0.66038 1.00255 0.0
C727 C 0.7596 0.60903 0.01291 0.0
N728 N 0.74463 0.62063 0.99647 0.0
C729 C 0.70886 0.58303 0.9897 0.0
C730 C 0.72388 0.57064 1.00652 0.0
C731 C 0.74934 0.58373 0.01822 0.0
C732 C 0.72013 0.60819 0.98506 0.0
H733 H 0.77921 0.61899 0.02186 0.0
C734 C 0.80631 0.67648 0.02102 0.0
O735 O 0.77568 0.73337 0.06702 0.0
O736 O 0.76365 0.69296 0.07417 0.0
N737 N 0.71851 0.64613 0.96641 0.0
C738 C 0.706 0.66144 0.95214 0.0
C739 C 0.6799 0.65171 0.94021 0.0
C740 C 0.66697 0.62635 0.94299 0.0
C741 C 0.68025 0.611 0.95781 0.0
C742 C 0.70624 0.62175 0.96928 0.0
H743 H 0.71581 0.68097 0.95 0.0
O744 O 0.72373 0.69855 0.0342 0.0
O745 O 0.74333 0.66972 0.01716 0.0
O746 O 0.76544 0.72073 1.00086 0.0
O747 O 0.76267 0.68678 0.96903 0.0
C748 C 0.66863 0.58556 0.96191 0.0
C749 C 0.68303 0.57154 0.97763 0.0
H750 H 0.716 0.55117 0.01074 0.0
H751 H 0.76104 0.57433 0.03128 0.0
H752 H 0.66975 0.66374 0.92891 0.0
H753 H 0.64681 0.61894 0.93383 0.0
H754 H 0.64862 0.57663 0.95315 0.0
H755 H 0.67401 0.55199 0.98043 0.0
Mn756 Mn 0.90576 0.52426 0.81396 0.0
Mn757 Mn 0.85456 0.51535 0.84898 0.0
C758 C 0.88543 0.48311 0.81937 0.0
C759 C 0.92371 0.52836 0.77448 0.0
C760 C 0.91073 0.53482 0.87509 0.0
O761 O 0.89408 0.55811 0.81424 0.0
O762 O 0.85808 0.54965 0.83513 0.0
C763 C 0.81092 0.51121 0.80502 0.0
N764 N 0.82279 0.50059 0.82505 0.0
C765 C 0.78865 0.46145 0.8161 0.0
C766 C 0.77602 0.47205 0.7955 0.0
C767 C 0.78722 0.49702 0.78993 0.0
C768 C 0.81211 0.4766 0.83066 0.0
H769 H 0.81951 0.53034 0.80057 0.0
C770 C 0.87386 0.5641 0.82246 0.0
O771 O 0.93739 0.53799 0.79784 0.0
O772 O 0.89913 0.51773 0.77404 0.0
N773 N 0.84911 0.48252 0.86257 0.0
C774 C 0.86469 0.47432 0.88173 0.0
C775 C 0.85682 0.44928 0.88885 0.0
C776 C 0.83302 0.43294 0.87628 0.0
C777 C 0.81728 0.44181 0.85668 0.0
C778 C 0.82605 0.46702 0.85051 0.0
H779 H 0.88309 0.48669 0.89136 0.0
O780 O 0.90944 0.48784 0.81444 0.0
O781 O 0.87424 0.50275 0.82139 0.0
O782 O 0.92073 0.53308 0.85341 0.0
O783 O 0.88616 0.52988 0.87594 0.0
C784 C 0.79352 0.42638 0.84259 0.0
C785 C 0.7792 0.43621 0.82234 0.0
H786 H 0.75785 0.46109 0.78365 0.0
H787 H 0.77764 0.50528 0.77397 0.0
H788 H 0.86915 0.44252 0.90389 0.0
H789 H 0.82715 0.41353 0.88162 0.0
H790 H 0.78627 0.40679 0.84689 0.0
H791 H 0.76114 0.42403 0.81139 0.0
Mn792 Mn 0.81773 0.43976 0.52085 0.0
Mn793 Mn 0.83278 0.48985 0.48534 0.0
C794 C 0.86058 0.45835 0.51907 0.0
C795 C 0.80994 0.42354 0.56063 0.0
C796 C 0.81213 0.43377 0.45982 0.0
O797 O 0.78408 0.4524 0.51572 0.0
O798 O 0.79774 0.48868 0.49678 0.0
C799 C 0.83751 0.53402 0.52858 0.0
N800 N 0.84808 0.52151 0.50905 0.0
C801 C 0.88791 0.55484 0.51782 0.0
C802 C 0.87719 0.56834 0.53762 0.0
C803 C 0.85194 0.55779 0.54312 0.0
C804 C 0.87254 0.53128 0.50389 0.0
H805 H 0.81831 0.52579 0.53318 0.0
C806 C 0.78056 0.47339 0.50718 0.0
O807 O 0.80131 0.40928 0.53738 0.0
O808 O 0.82098 0.44781 0.56053 0.0
N809 N 0.86659 0.49322 0.47379 0.0
C810 C 0.87486 0.47686 0.45557 0.0
C811 C 0.90024 0.48392 0.44879 0.0
C812 C 0.91678 0.50781 0.46062 0.0
C813 C 0.90783 0.52438 0.47923 0.0
C814 C 0.88233 0.51632 0.48518 0.0
H815 H 0.86224 0.45851 0.4463 0.0
O816 O 0.85426 0.43483 0.52488 0.0
O817 O 0.84167 0.47009 0.5143 0.0
O818 O 0.81206 0.42395 0.48169 0.0
O819 O 0.81795 0.45821 0.45872 0.0
C820 C 0.92339 0.54835 0.49248 0.0
C821 C 0.91346 0.56355 0.5118 0.0
H822 H 0.8883 0.58662 0.54898 0.0
H823 H 0.84366 0.56793 0.55862 0.0
H824 H 0.90704 0.47097 0.4345 0.0
H825 H 0.9364 0.51312 0.45548 0.0
H826 H 0.94318 0.55506 0.48831 0.0
H827 H 0.92577 0.58173 0.52219 0.0
Mn828 Mn 0.64031 0.57332 0.29836 0.0
Mn829 Mn 0.6909 0.58337 0.34859 0.0
C830 C 0.66708 0.61551 0.31261 0.0
C831 C 0.62553 0.5643 0.25051 0.0
C832 C 0.63375 0.56825 0.35802 0.0
O833 O 0.64827 0.53696 0.29986 0.0
O834 O 0.68647 0.54785 0.32852 0.0
C835 C 0.73542 0.58333 0.31779 0.0
N836 N 0.72344 0.59581 0.33603 0.0
C837 C 0.75867 0.63394 0.34296 0.0
C838 C 0.77162 0.62127 0.32466 0.0
C839 C 0.75987 0.59592 0.31191 0.0
C840 C 0.73449 0.6203 0.34827 0.0
H841 H 0.72631 0.564 0.30769 0.0
C842 C 0.66908 0.53149 0.31147 0.0
O843 O 0.60945 0.5601 0.26809 0.0
O844 O 0.64982 0.57307 0.26065 0.0
N845 N 0.69665 0.61757 0.36839 0.0
C846 C 0.68075 0.62774 0.38397 0.0
C847 C 0.68898 0.65348 0.39703 0.0
C848 C 0.71347 0.66851 0.39397 0.0
C849 C 0.72948 0.65765 0.37781 0.0
C850 C 0.72028 0.63184 0.36536 0.0
H851 H 0.66188 0.61636 0.38638 0.0
O852 O 0.64342 0.61257 0.30038 0.0
O853 O 0.67311 0.59388 0.3172 0.0
O854 O 0.62334 0.5707 0.33428 0.0
O855 O 0.6584 0.57103 0.36433 0.0
C856 C 0.75393 0.67162 0.37304 0.0
C857 C 0.76853 0.65974 0.35571 0.0
H858 H 0.79045 0.63088 0.32003 0.0
H859 H 0.7696 0.58613 0.29752 0.0
H860 H 0.67644 0.66176 0.40937 0.0
H861 H 0.71966 0.68843 0.40389 0.0
H862 H 0.76152 0.69163 0.38231 0.0
H863 H 0.78714 0.67078 0.35205 0.0
Eu864 Eu 0.07711 0.06032 0.05574 0.0
C865 C 0.99882 0.96477 0.99573 0.0
N866 N 1.01081 0.98825 0.98933 0.0
C867 C 0.0187 0.96731 0.94726 0.0
C868 C 0.99723 0.94152 0.9783 0.0
C869 C 0.02 0.98982 0.96513 0.0
C870 C 1.00742 0.94305 0.95393 0.0
C871 C 0.97765 0.93955 0.02779 0.0
C872 C 0.98904 0.96385 0.02032 0.0
C873 C 0.97631 0.91647 0.01054 0.0
C874 C 0.98595 0.91745 0.98585 0.0
Eu875 Eu 1.00952 0.02514 0.01988 0.0
N876 N 0.99063 0.98651 0.03688 0.0
C877 C 0.96763 0.9391 0.05231 0.0
C878 C 0.97928 0.98606 0.05994 0.0
C879 C 0.96819 0.96246 0.06828 0.0
H880 H 0.02755 1.00835 0.95895 0.0
H881 H 0.95956 0.96235 0.08678 0.0
H882 H 0.06907 0.07027 0.1224 0.0
H883 H 0.12703 0.13027 0.99681 0.0
H884 H 0.97764 1.00371 0.07159 0.0
H885 H 0.9588 0.92084 0.05874 0.0
H886 H 0.10684 0.08676 1.00728 0.0
H887 H 0.02612 0.96873 0.92818 0.0
H888 H 0.96768 0.89771 0.01605 0.0
H889 H 0.98472 0.89944 0.97276 0.0
H890 H 0.0702 0.10663 0.15724 0.0
H891 H 1.00653 0.92563 0.94003 0.0
H892 H 0.1291 0.16951 0.02931 0.0
N893 N 0.07903 0.09402 0.09204 0.0
C894 C 0.08898 0.11876 0.08743 0.0
C895 C 0.075 0.11037 0.13749 0.0
C896 C 0.0912 0.14033 0.10741 0.0
C897 C 0.07355 0.08963 0.11723 0.0
C898 C 0.08342 0.13587 0.13242 0.0
N899 N 0.09639 0.10138 0.04449 0.0
C900 C 0.1072 0.10381 0.02128 0.0
C901 C 0.11003 0.14771 0.05824 0.0
C902 C 0.09843 0.1225 0.06322 0.0
C903 C 0.12008 0.15048 0.03389 0.0
C904 C 0.11886 0.12839 0.01544 0.0
H905 H 0.08486 0.15189 0.1483 0.0
H906 H 0.10361 0.18232 0.11726 0.0
H907 H 0.11997 0.18877 0.07413 0.0
O908 O 0.11188 0.04867 0.04415 0.0
O909 O 0.05559 0.08938 0.03431 0.0
O910 O 1.01179 0.07 0.02632 0.0
O911 O 0.11282 0.06801 0.0846 0.0
O912 O 0.07508 0.0428 0.01146 0.0
O913 O 0.03545 0.04756 0.99283 0.0
O914 O 0.96719 0.01937 0.01756 0.0
O915 O 0.03981 0.99878 0.02762 0.0
O916 O 0.06568 0.0178 0.06685 0.0
O917 O 0.98523 0.02376 0.98153 0.0
O918 O 1.00826 0.04068 0.06455 0.0
O919 O 0.04981 0.04097 0.08346 0.0
C920 C 0.03095 0.09102 0.02728 0.0
C921 C 0.13454 0.03347 0.07936 0.0
C922 C 0.16127 1.00155 0.07376 0.0
C923 C 0.15259 0.99099 0.09642 0.0
C924 C 0.12593 0.02275 0.10194 0.0
C925 C 0.13495 1.00155 0.11035 0.0
C926 C 0.15177 0.02257 0.06525 0.0
C927 C 0.06004 0.04762 0.99082 0.0
C928 C 0.12442 0.05461 0.06864 0.0
C929 C 0.10194 0.16556 0.1022 0.0
C930 C 0.11135 0.16924 0.07769 0.0
C931 C 0.05432 0.99621 0.05015 0.0
C932 C 0.94981 0.04362 0.98649 0.0
C933 C 0.91899 0.06935 0.99922 0.0
C934 C 0.92574 0.08528 0.97947 0.0
C935 C 0.95609 0.05937 0.96636 0.0
C936 C 0.93085 0.04846 1.00241 0.0
C937 C 0.94403 0.08008 0.96291 0.0
C938 C 0.02501 0.03973 0.08583 0.0
C939 C 0.96403 0.02334 0.99243 0.0
H940 H 0.15972 0.97492 0.10365 0.0
H941 H 0.11203 0.03045 0.11283 0.0
H942 H 0.12826 0.99329 0.12772 0.0
H943 H 0.15743 0.03035 0.04723 0.0
H944 H 0.91657 0.10143 0.97659 0.0
H945 H 0.97065 0.05608 0.95367 0.0
H946 H 0.92575 0.03636 0.01789 0.0
H947 H 0.94913 0.09232 0.94762 0.0
Eu948 Eu 0.27674 0.80045 0.32351 0.0
C949 C 0.34819 0.75883 0.22558 0.0
N950 N 0.35593 0.77591 0.24861 0.0
C951 C 0.39405 0.75869 0.25793 0.0
C952 C 0.36269 0.74028 0.21822 0.0
C953 C 0.37906 0.77682 0.26424 0.0
C954 C 0.38561 0.74005 0.23505 0.0
C955 C 0.31937 0.74535 0.18315 0.0
C956 C 0.32679 0.76127 0.20839 0.0
C957 C 0.33271 0.72575 0.1764 0.0
C958 C 0.35436 0.72323 0.19392 0.0
Eu959 Eu 0.32743 0.80314 0.26003 0.0
N960 N 0.31474 0.78077 0.21535 0.0
C961 C 0.29961 0.75046 0.16495 0.0
C962 C 0.29745 0.78744 0.19662 0.0
C963 C 0.28909 0.77204 0.17146 0.0
H964 H 0.38596 0.79141 0.28176 0.0
H965 H 0.27487 0.77709 0.15694 0.0
H966 H 0.21618 0.80474 0.29823 0.0
H967 H 0.34033 0.85461 0.4146 0.0
H968 H 0.29056 0.80502 0.20058 0.0
H969 H 0.29334 0.73873 0.14534 0.0
H970 H 0.32857 0.82424 0.37227 0.0
H971 H 0.41207 0.75906 0.2707 0.0
H972 H 0.32707 0.71311 0.15726 0.0
H973 H 0.36505 0.70863 0.18807 0.0
H974 H 0.18317 0.82942 0.3094 0.0
H975 H 0.39732 0.72613 0.23013 0.0
H976 H 0.30874 0.87968 0.42962 0.0
N977 N 0.24407 0.8236 0.33224 0.0
C978 C 0.24915 0.84088 0.35529 0.0
C979 C 0.20169 0.83295 0.32241 0.0
C980 C 0.23064 0.85513 0.36263 0.0
C981 C 0.22059 0.81923 0.31599 0.0
C982 C 0.20676 0.85103 0.34579 0.0
N983 N 0.29042 0.8305 0.36393 0.0
C984 C 0.3143 0.83399 0.37918 0.0
C985 C 0.2789 0.86236 0.39559 0.0
C986 C 0.27288 0.84428 0.37171 0.0
C987 C 0.30334 0.86587 0.41126 0.0
C988 C 0.32117 0.8517 0.40293 0.0
H989 H 0.19204 0.86158 0.35076 0.0
H990 H 0.22246 0.88402 0.39245 0.0
H991 H 0.26481 0.89049 0.42119 0.0
O992 O 0.27586 0.76722 0.34583 0.0
O993 O 0.30102 0.84111 0.32713 0.0
O994 O 0.31231 0.8175 0.2953 0.0
O995 O 0.23974 0.77654 0.32979 0.0
O996 O 0.31726 0.78969 0.33503 0.0
O997 O 0.34589 0.79528 0.30187 0.0
O998 O 0.33225 0.83981 0.24355 0.0
O999 O 0.30735 0.76209 0.264 0.0
O1000 O 0.277 0.77845 0.28262 0.0
O1001 O 0.36606 0.82926 0.26365 0.0
O1002 O 0.28617 0.81155 0.24666 0.0
O1003 O 0.25947 0.80977 0.28165 0.0
C1004 C 0.31614 0.84032 0.30905 0.0
C1005 C 0.24102 0.76066 0.3715 0.0
C1006 C 0.24056 0.74056 0.41241 0.0
C1007 C 0.22558 0.75741 0.42262 0.0
C1008 C 0.22586 0.77737 0.38176 0.0
C1009 C 0.21812 0.77562 0.4072 0.0
C1010 C 0.24797 0.74208 0.38675 0.0
C1011 C 0.3403 0.78955 0.32619 0.0
C1012 C 0.25058 0.76279 0.34547 0.0
C1013 C 0.23645 0.87293 0.38651 0.0
C1014 C 0.26053 0.87657 0.40292 0.0
C1015 C 0.28722 0.75846 0.27722 0.0
C1016 C 0.37125 0.85092 0.22506 0.0
C1017 C 0.37208 0.87002 0.18336 0.0
C1018 C 0.39293 0.8588 0.17745 0.0
C1019 C 0.39235 0.83992 0.2191 0.0
C1020 C 0.3616 0.86643 0.2073 0.0
C1021 C 0.40319 0.84403 0.19544 0.0
C1022 C 0.26403 0.81384 0.25655 0.0
C1023 C 0.35768 0.84492 0.24837 0.0
H1024 H 0.21962 0.75641 0.44244 0.0
H1025 H 0.22011 0.79186 0.37031 0.0
H1026 H 0.20653 0.78855 0.41506 0.0
H1027 H 0.25985 0.72933 0.37897 0.0
H1028 H 0.40109 0.86133 0.15887 0.0
H1029 H 0.40015 0.82778 0.23235 0.0
H1030 H 0.34521 0.87487 0.21153 0.0
H1031 H 0.41926 0.83534 0.19081 0.0
Eu1032 Eu 0.50876 0.04632 0.55243 0.0
C1033 C 0.61061 0.09588 0.50078 0.0
N1034 N 0.59339 0.07235 0.49363 0.0
C1035 C 0.59377 0.07674 0.44675 0.0
C1036 C 0.61918 0.11115 0.48088 0.0
C1037 C 0.58595 0.06215 0.46704 0.0
C1038 C 0.61016 0.10147 0.45368 0.0
C1039 C 0.63864 0.12865 0.53566 0.0
C1040 C 0.62054 0.10454 0.52803 0.0
C1041 C 0.64657 0.14402 0.51583 0.0
C1042 C 0.63689 0.13531 0.48858 0.0
Eu1043 Eu 0.58239 0.05016 0.53031 0.0
N1044 N 0.61224 0.08967 0.54713 0.0
C1045 C 0.64827 0.13667 0.56306 0.0
C1046 C 0.62216 0.09696 0.57374 0.0
C1047 C 0.64012 0.12068 0.58215 0.0
H1048 H 0.57444 0.04254 0.46121 0.0
H1049 H 0.64772 0.12658 0.60332 0.0
H1050 H 0.51989 0.04818 0.62154 0.0
H1051 H 0.43624 0.97584 0.48019 0.0
H1052 H 0.6161 0.08455 0.5884 0.0
H1053 H 0.66217 0.15507 0.56967 0.0
H1054 H 0.46842 0.0174 0.49644 0.0
H1055 H 0.58748 0.06872 0.42573 0.0
H1056 H 0.66036 0.16264 0.52137 0.0
H1057 H 0.64351 0.14729 0.47352 0.0
H1058 H 0.51299 0.01768 0.65447 0.0
H1059 H 0.61632 0.11263 0.43785 0.0
H1060 H 0.4276 0.94253 0.51075 0.0
N1061 N 0.50177 0.01996 0.58741 0.0
C1062 C 0.48552 0.99602 0.57936 0.0
C1063 C 0.50562 1.01114 0.63332 0.0
C1064 C 0.4798 0.97831 0.59802 0.0
C1065 C 0.51022 0.02823 0.6143 0.0
C1066 C 0.4908 0.98589 0.62508 0.0
N1067 N 0.4786 1.00698 0.53503 0.0
C1068 C 0.46491 1.00278 0.50965 0.0
C1069 C 0.45473 0.9658 0.54444 0.0
C1070 C 0.47307 0.98968 0.55276 0.0
C1071 C 0.44175 0.96067 0.51789 0.0
C1072 C 0.44663 0.97938 0.50053 0.0
H1073 H 0.48692 0.97283 0.63997 0.0
H1074 H 0.45814 0.94017 0.60346 0.0
H1075 H 0.4362 0.92926 0.5566 0.0
O1076 O 0.47916 0.06432 0.53259 0.0
O1077 O 0.51624 1.00719 0.52933 0.0
O1078 O 0.56064 1.00974 0.53771 0.0
O1079 O 0.47743 0.05633 0.57333 0.0
O1080 O 0.52407 0.06145 0.51594 0.0
O1081 O 0.54874 0.03676 0.49654 0.0
O1082 O 0.61868 0.04136 0.54872 0.0
O1083 O 0.57201 0.09089 0.54339 0.0
O1084 O 0.53441 0.08851 0.5645 0.0
O1085 O 0.60322 0.02613 0.50697 0.0
O1086 O 0.56747 0.03671 0.56735 0.0
O1087 O 0.54242 0.06078 0.58634 0.0
C1088 C 0.53662 0.99582 0.52932 0.0
C1089 C 0.46224 0.09307 0.56174 0.0
C1090 C 0.43217 0.12287 0.56094 0.0
C1091 C 0.45092 0.14102 0.57979 0.0
C1092 C 0.48033 0.11161 0.58045 0.0
C1093 C 0.4748 0.1355 0.58915 0.0
C1094 C 0.43838 0.0989 0.55172 0.0
C1095 C 0.52778 0.04627 0.49524 0.0
C1096 C 0.46762 0.06716 0.55386 0.0
C1097 C 0.4625 0.95403 0.58942 0.0
C1098 C 0.44992 0.94785 0.56276 0.0
C1099 C 0.55568 0.10235 0.55651 0.0
C1100 C 0.64808 0.02774 0.52056 0.0
C1101 C 0.68414 1.00582 0.51603 0.0
C1102 C 0.69701 0.02696 0.50441 0.0
C1103 C 0.66133 0.04867 0.50911 0.0
C1104 C 0.65967 1.00644 0.52433 0.0
C1105 C 0.68576 0.04827 0.50119 0.0
C1106 C 0.56408 0.05247 0.58758 0.0
C1107 C 0.62146 0.02688 0.52702 0.0
H1108 H 0.447 0.15929 0.5881 0.0
H1109 H 0.49848 0.10732 0.5888 0.0
H1110 H 0.48882 0.14957 0.6038 0.0
H1111 H 0.4247 0.08456 0.53701 0.0
H1112 H 0.71578 0.02691 0.49769 0.0
H1113 H 0.65263 0.06505 0.50594 0.0
H1114 H 0.64928 0.99002 0.53278 0.0
H1115 H 0.69586 0.06438 0.49216 0.0
Eu1116 Eu 0.32489 0.27983 0.78839 0.0
C1117 C 0.23275 0.32895 0.73898 0.0
N1118 N 0.25192 0.34006 0.75989 0.0
C1119 C 0.25637 0.38136 0.74371 0.0
C1120 C 0.22521 0.34371 0.71905 0.0
C1121 C 0.26316 0.36602 0.76304 0.0
C1122 C 0.23751 0.37011 0.72149 0.0
C1123 C 0.20005 0.29106 0.71638 0.0
C1124 C 0.22025 0.30283 0.73769 0.0
C1125 C 0.19294 0.3056 0.69623 0.0
C1126 C 0.20547 0.33183 0.69757 0.0
Eu1127 Eu 0.26212 0.31233 0.79085 0.0
N1128 N 0.22761 0.28905 0.75737 0.0
C1129 C 0.18729 0.26507 0.71612 0.0
C1130 C 0.21448 0.26409 0.75778 0.0
C1131 C 0.19434 0.25165 0.73708 0.0
H1132 H 0.27738 0.375 0.78046 0.0
H1133 H 0.18413 0.23176 0.73742 0.0
H1134 H 0.3037 0.21757 0.8011 0.0
H1135 H 0.41293 0.34718 0.84134 0.0
H1136 H 0.219 0.2538 0.77422 0.0
H1137 H 0.17163 0.25537 0.70013 0.0
H1138 H 0.37995 0.3253 0.80177 0.0
H1139 H 0.26558 0.40186 0.74595 0.0
H1140 H 0.17753 0.29682 0.67968 0.0
H1141 H 0.19954 0.34286 0.68203 0.0
H1142 H 0.30096 0.19456 0.84044 0.0
H1143 H 0.23228 0.38208 0.70658 0.0
H1144 H 0.41112 0.33035 0.88528 0.0
N1145 N 0.3258 0.25328 0.82353 0.0
C1146 C 0.34155 0.26434 0.84697 0.0
C1147 C 0.31221 0.21427 0.84288 0.0
C1148 C 0.34197 0.25134 0.86991 0.0
C1149 C 0.31311 0.22774 0.82061 0.0
C1150 C 0.32618 0.2263 0.8679 0.0
N1151 N 0.35903 0.29859 0.82405 0.0
C1152 C 0.37889 0.31865 0.82119 0.0
C1153 C 0.37755 0.29881 0.87002 0.0
C1154 C 0.35915 0.28757 0.84708 0.0
C1155 C 0.39658 0.32109 0.86813 0.0
C1156 C 0.39764 0.33067 0.84338 0.0
H1157 H 0.32575 0.2156 0.88503 0.0
H1158 H 0.35936 0.25372 0.91154 0.0
H1159 H 0.39054 0.29545 0.91164 0.0
O1160 O 0.35139 0.28532 0.75699 0.0
O1161 O 0.325 0.31267 0.8226 0.0
O1162 O 0.28269 0.3017 0.82897 0.0
O1163 O 0.34903 0.25223 0.77923 0.0
O1164 O 0.32759 0.31824 0.77097 0.0
O1165 O 0.30118 0.34162 0.79271 0.0
O1166 O 0.22466 0.31052 0.80636 0.0
O1167 O 0.27355 0.30026 0.74862 0.0
O1168 O 0.29067 0.26458 0.75481 0.0
O1169 O 0.25631 0.34536 0.81833 0.0
O1170 O 0.25946 0.27427 0.80778 0.0
O1171 O 0.2846 0.25079 0.78514 0.0
C1172 C 0.30704 0.31241 0.83873 0.0
C1173 C 0.37959 0.2546 0.74624 0.0
C1174 C 0.41374 0.25887 0.71638 0.0
C1175 C 0.41806 0.2346 0.7218 0.0
C1176 C 0.38454 0.23029 0.75091 0.0
C1177 C 0.40352 0.22043 0.73877 0.0
C1178 C 0.39422 0.2689 0.72854 0.0
C1179 C 0.32113 0.3403 0.77926 0.0
C1180 C 0.3599 0.26456 0.76106 0.0
C1181 C 0.35904 0.26322 0.89356 0.0
C1182 C 0.37684 0.28694 0.89361 0.0
C1183 C 0.28056 0.27892 0.73873 0.0
C1184 C 0.21583 0.34456 0.83868 0.0
C1185 C 0.1808 0.33984 0.86765 0.0
C1186 C 0.18818 0.36685 0.87616 0.0
C1187 C 0.22244 0.37142 0.8477 0.0
C1188 C 0.19465 0.3288 0.84851 0.0
C1189 C 0.20865 0.38242 0.86615 0.0
C1190 C 0.26504 0.252 0.79928 0.0
C1191 C 0.2328 0.33313 0.8213 0.0
H1192 H 0.43282 0.22653 0.71275 0.0
H1193 H 0.37383 0.21879 0.76422 0.0
H1194 H 0.40711 0.20173 0.74271 0.0
H1195 H 0.39089 0.28773 0.72473 0.0
H1196 H 0.17775 0.37611 0.89027 0.0
H1197 H 0.23855 0.38398 0.8407 0.0
H1198 H 0.1895 0.30798 0.84197 0.0
H1199 H 0.21396 0.40319 0.87288 0.0
Eu1200 Eu 0.06229 1.00788 0.54342 0.0
C1201 C 0.02208 0.10241 0.59857 0.0
N1202 N 1.01062 0.08727 0.57487 0.0
C1203 C 0.96816 0.08602 0.58809 0.0
C1204 C 1.00691 0.10869 0.61862 0.0
C1205 C 0.98396 0.08042 0.56878 0.0
C1206 C 0.97971 0.0997 0.61335 0.0
C1207 C 0.06091 0.13052 0.62568 0.0
C1208 C 0.04882 0.1134 0.60207 0.0
C1209 C 0.04609 0.13543 0.64632 0.0
C1210 C 0.01917 0.12457 0.64279 0.0
Eu1211 Eu 0.03971 0.07775 0.54463 0.0
N1212 N 0.06286 0.10817 0.58189 0.0
C1213 C 0.08735 0.14286 0.62747 0.0
C1214 C 0.08794 0.12191 0.58249 0.0
C1215 C 0.10077 0.13896 0.60554 0.0
H1216 H 0.97483 0.0703 0.54905 0.0
H1217 H 0.12093 0.14912 0.60634 0.0
H1218 H 0.12876 0.02504 0.54724 0.0
H1219 H 0.99864 0.92173 0.48243 0.0
H1220 H 0.09816 0.11911 0.56546 0.0
H1221 H 0.09732 0.15613 0.64528 0.0
H1222 H 1.0136 0.95545 0.52232 0.0
H1223 H 0.94708 0.07985 0.58344 0.0
H1224 H 0.05511 0.14828 0.66475 0.0
H1225 H 1.00784 0.12927 0.65854 0.0
H1226 H 0.1623 0.01945 0.51846 0.0
H1227 H 0.96739 0.10413 0.62822 0.0
H1228 H 0.02689 0.91875 0.44671 0.0
N1229 N 0.09698 1.00286 0.51845 0.0
C1230 C 0.09015 0.98587 0.49515 0.0
C1231 C 0.14196 1.01052 0.51128 0.0
C1232 C 0.10879 0.98202 0.47803 0.0
C1233 C 0.12275 0.01399 0.52738 0.0
C1234 C 0.13486 0.9952 0.48607 0.0
N1235 N 0.04846 0.97278 0.50806 0.0
C1236 C 0.02543 0.95495 0.5063 0.0
C1237 C 0.0578 0.95098 0.46701 0.0
C1238 C 0.06509 0.97032 0.4898 0.0
C1239 C 0.03321 0.93391 0.4639 0.0
C1240 C 0.0172 0.93553 0.48399 0.0
H1241 H 0.14983 0.99257 0.47366 0.0
H1242 H 0.11511 0.96111 0.44073 0.0
H1243 H 0.07032 0.93405 0.43096 0.0
O1244 O 0.048 0.97762 0.56781 0.0
O1245 O 0.0446 0.01547 0.50158 0.0
O1246 O 0.02279 0.04987 0.5055 0.0
O1247 O 0.08928 0.9898 0.56732 0.0
O1248 O 0.01839 1.00241 0.5389 0.0
O1249 O 1.00673 0.04244 0.54851 0.0
O1250 O 0.05587 0.10901 0.52182 0.0
O1251 O 0.06664 0.07142 0.58176 0.0
O1252 O 0.04923 0.02868 0.57957 0.0
O1253 O 0.01665 0.10486 0.53106 0.0
O1254 O 0.07285 0.06846 0.52343 0.0
O1255 O 0.09351 0.04638 0.55152 0.0
C1256 C 0.02949 0.03026 0.49129 0.0
C1257 C 0.07283 0.94643 0.57598 0.0
C1258 C 0.06853 0.90699 0.59836 0.0
C1259 C 0.07477 0.89382 0.57492 0.0
C1260 C 0.07913 0.93275 0.55314 0.0
C1261 C 0.08008 0.90661 0.55268 0.0
C1262 C 0.06751 0.93351 0.59855 0.0
C1263 C 1.00145 0.01652 0.54469 0.0
C1264 C 0.07089 0.97388 0.5762 0.0
C1265 C 0.10115 0.96401 0.45432 0.0
C1266 C 0.07567 0.94856 0.44878 0.0
C1267 C 0.06274 0.05042 0.59369 0.0
C1268 C 0.02553 0.12283 0.49111 0.0
C1269 C 0.02622 0.153 0.4571 0.0
C1270 C 1.00622 0.13413 0.44046 0.0
C1271 C 1.00572 0.10458 0.47389 0.0
C1272 C 0.03587 0.14694 0.48256 0.0
C1273 C 0.99626 0.11019 0.44874 0.0
C1274 C 0.0945 0.06556 0.53679 0.0
C1275 C 0.03443 0.11738 0.51848 0.0
H1276 H 0.07513 0.87338 0.57349 0.0
H1277 H 0.08313 0.94221 0.5356 0.0
H1278 H 0.08477 0.89612 0.53488 0.0
H1279 H 0.06279 0.9442 0.61623 0.0
H1280 H 0.99761 0.138 0.4212 0.0
H1281 H 0.99734 0.08603 0.48001 0.0
H1282 H 0.05128 0.16091 0.49587 0.0
H1283 H 0.98081 0.09602 0.43572 0.0
Eu1284 Eu 0.30258 0.83026 0.77615 0.0
C1285 C 0.24963 0.74264 0.84676 0.0
N1286 N 0.27469 0.75701 0.8509 0.0
C1287 C 0.27395 0.7627 0.89869 0.0
C1288 C 0.23548 0.73845 0.86861 0.0
C1289 C 0.28729 0.76616 0.87644 0.0
C1290 C 0.24784 0.74908 0.89474 0.0
C1291 C 0.21296 0.715 0.81599 0.0
C1292 C 0.2384 0.73102 0.82073 0.0
C1293 C 0.19852 0.71162 0.83759 0.0
C1294 C 0.20973 0.72333 0.86381 0.0
Eu1295 Eu 0.29437 0.76286 0.81155 0.0
N1296 N 0.25257 0.73499 0.80003 0.0
C1297 C 0.20302 0.70244 0.78975 0.0
C1298 C 0.24385 0.72128 0.77493 0.0
C1299 C 0.21871 0.70525 0.76923 0.0
H1300 H 0.30771 0.77603 0.87974 0.0
H1301 H 0.21151 0.69499 0.74909 0.0
H1302 H 0.30207 0.81014 0.70871 0.0
H1303 H 0.37664 0.90165 0.84608 0.0
H1304 H 0.25621 0.72323 0.75935 0.0
H1305 H 0.18354 0.68999 0.7853 0.0
H1306 H 0.33335 0.87206 0.83056 0.0
H1307 H 0.28388 0.77035 0.91889 0.0
H1308 H 0.17884 0.6996 0.8343 0.0
H1309 H 0.19851 0.7201 0.88034 0.0
H1310 H 0.33319 0.81325 0.67605 0.0
H1311 H 0.23762 0.74631 0.91205 0.0
H1312 H 0.41036 0.90624 0.8155 0.0
N1313 N 0.32974 0.83262 0.74154 0.0
C1314 C 0.35401 0.8486 0.74876 0.0
C1315 C 0.33941 0.82297 0.69654 0.0
C1316 C 0.37225 0.85141 0.73025 0.0
C1317 C 0.32192 0.82085 0.71545 0.0
C1318 C 0.36478 0.838 0.70405 0.0
N1319 N 0.34296 0.85945 0.79238 0.0
C1320 C 0.34806 0.87379 0.81736 0.0
C1321 C 0.38555 0.87942 0.78254 0.0
C1322 C 0.36062 0.86274 0.77461 0.0
C1323 C 0.39141 0.89327 0.80866 0.0
C1324 C 0.37247 0.89066 0.82603 0.0
H1325 H 0.37823 0.83968 0.68927 0.0
H1326 H 0.41147 0.86998 0.7243 0.0
H1327 H 0.42305 0.89443 0.76998 0.0
O1328 O 0.28782 0.86526 0.78959 0.0
O1329 O 0.34222 0.82047 0.79601 0.0
O1330 O 0.33593 0.78954 0.82578 0.0
O1331 O 0.291 0.85447 0.74709 0.0
O1332 O 0.28672 0.82412 0.81538 0.0
O1333 O 0.30766 0.79962 0.84056 0.0
O1334 O 0.30798 0.73182 0.78852 0.0
O1335 O 0.25387 0.77284 0.79442 0.0
O1336 O 0.25995 0.80562 0.7668 0.0
O1337 O 0.30893 0.73308 0.83156 0.0
O1338 O 0.3105 0.77608 0.77557 0.0
O1339 O 0.28754 0.79351 0.74672 0.0
C1340 C 0.35176 0.8071 0.81443 0.0
C1341 C 0.27421 0.89316 0.75687 0.0
C1342 C 0.24682 0.92512 0.76216 0.0
C1343 C 0.25262 0.93283 0.73728 0.0
C1344 C 0.27954 0.90149 0.73214 0.0
C1345 C 0.26891 0.9212 0.72254 0.0
C1346 C 0.25806 0.90537 0.77215 0.0
C1347 C 0.3007 0.82155 0.83766 0.0
C1348 C 0.28403 0.87043 0.7649 0.0
C1349 C 0.39721 0.86776 0.73824 0.0
C1350 C 0.40382 0.88172 0.76427 0.0
C1351 C 0.24424 0.78742 0.77734 0.0
C1352 C 0.3424 0.717 0.81222 0.0
C1353 C 0.37212 0.68721 0.80606 0.0
C1354 C 0.39309 0.70755 0.81883 0.0
C1355 C 0.36382 0.73664 0.82489 0.0
C1356 C 0.34668 0.69237 0.80258 0.0
C1357 C 0.38894 0.732 0.82794 0.0
C1358 C 0.29564 0.77316 0.75278 0.0
C1359 C 0.31561 0.72195 0.80982 0.0
H1360 H 0.24487 0.94829 0.72935 0.0
H1361 H 0.29185 0.89258 0.71999 0.0
H1362 H 0.27324 0.92743 0.70347 0.0
H1363 H 0.25362 0.89901 0.79116 0.0
H1364 H 0.41272 0.70447 0.82268 0.0
H1365 H 0.36117 0.75551 0.83288 0.0
H1366 H 0.33012 0.6773 0.79263 0.0
H1367 H 0.40524 0.74731 0.83795 0.0
Eu1368 Eu 0.5493 0.07558 0.01092 0.0
C1369 C 0.58026 0.99613 0.103 0.0
N1370 N 0.56343 0.9902 0.07962 0.0
C1371 C 0.57575 0.94942 0.07033 0.0
C1372 C 0.59597 0.97893 0.11077 0.0
C1373 C 0.56064 0.96708 0.06351 0.0
C1374 C 0.59364 0.95544 0.09399 0.0
C1375 C 0.5991 0.02605 0.14376 0.0
C1376 C 0.58172 0.01939 0.11927 0.0
C1377 C 0.61495 1.00913 0.15143 0.0
C1378 C 0.61338 0.98562 0.13498 0.0
Eu1379 Eu 0.53894 0.021 0.06867 0.0
N1380 N 0.56626 0.0355 0.11117 0.0
C1381 C 0.60006 0.04952 0.15991 0.0
C1382 C 0.56699 0.05829 0.12725 0.0
C1383 C 0.58385 0.06562 0.15166 0.0
H1384 H 0.54638 0.96199 0.04561 0.0
H1385 H 0.58428 0.08375 0.16414 0.0
H1386 H 0.54154 0.13438 0.03735 0.0
H1387 H 0.50827 0.01925 0.91178 0.0
H1388 H 0.55475 0.07119 0.1219 0.0
H1389 H 0.61312 0.0553 0.17884 0.0
H1390 H 0.53578 0.02932 0.95596 0.0
H1391 H 0.57349 0.93113 0.0574 0.0
H1392 H 0.62842 0.014 0.17012 0.0
H1393 H 0.62565 0.97271 0.14121 0.0
H1394 H 0.51707 0.167 0.02526 0.0
H1395 H 0.60534 0.94172 0.09926 0.0
H1396 H 0.47988 0.04856 0.89813 0.0
N1397 N 0.52431 0.10695 1.00258 0.0
C1398 C 0.50861 0.1026 0.97838 0.0
C1399 C 0.51374 0.14857 0.01239 0.0
C1400 C 0.49386 0.12069 0.9709 0.0
C1401 C 0.52744 0.12984 0.01931 0.0
C1402 C 0.49644 0.14376 0.98839 0.0
N1403 N 0.5228 0.06364 0.96804 0.0
C1404 C 0.52349 0.04222 0.95055 0.0
C1405 C 0.49196 0.07548 0.93524 0.0
C1406 C 0.50797 0.08047 0.96052 0.0
C1407 C 0.49193 0.05307 0.9177 0.0
C1408 C 0.50789 0.03647 0.92535 0.0
H1409 H 0.48582 0.15834 0.98315 0.0
H1410 H 0.46613 0.12924 0.93991 0.0
H1411 H 0.46421 0.08948 0.90884 0.0
O1412 O 0.58263 0.07878 0.98849 0.0
O1413 O 0.5078 0.05196 1.00176 0.0
O1414 O 0.52758 0.04079 0.03606 0.0
O1415 O 0.57336 0.11353 1.00759 0.0
O1416 O 0.56029 0.035 1.00029 0.0
O1417 O 0.5418 1.00203 0.02518 0.0
O1418 O 0.50492 0.01751 0.08952 0.0
O1419 O 0.58108 0.03648 0.06547 0.0
O1420 O 0.57025 0.07203 0.05172 0.0
O1421 O 0.51057 0.98366 0.06492 0.0
O1422 O 0.52785 0.06077 0.08122 0.0
O1423 O 0.54157 0.09297 0.05354 0.0
C1424 C 0.50613 0.03681 0.01975 0.0
C1425 C 0.58458 0.11422 0.96377 0.0
C1426 C 0.59318 0.11081 0.9173 0.0
C1427 C 0.57866 0.12959 0.9123 0.0
C1428 C 0.57037 0.13331 0.95868 0.0
C1429 C 0.56738 0.14082 0.933 0.0
C1430 C 0.59595 0.10321 0.94303 0.0
C1431 C 0.55346 1.00986 1.00422 0.0
C1432 C 0.58594 0.10398 0.98973 0.0
C1433 C 0.47768 0.11563 0.94588 0.0
C1434 C 0.47665 0.09304 0.92815 0.0
C1435 C 0.58791 0.05832 0.05572 0.0
C1436 C 0.49536 0.97817 0.1071 0.0
C1437 C 0.48747 0.97962 0.1539 0.0
C1438 C 0.49768 0.95738 0.15599 0.0
C1439 C 0.50523 0.95571 0.10931 0.0
C1440 C 0.48575 0.98944 0.12926 0.0
C1441 C 0.50615 0.94529 0.13363 0.0
C1442 C 0.53178 0.08538 0.07562 0.0
C1443 C 0.49807 0.99227 0.08357 0.0
H1444 H 0.57649 0.13593 0.89262 0.0
H1445 H 0.56122 0.14216 0.97429 0.0
H1446 H 0.5563 0.15537 0.92915 0.0
H1447 H 0.60654 0.08822 0.94678 0.0
H1448 H 0.49911 0.94944 0.17488 0.0
H1449 H 0.51292 0.94663 0.09261 0.0
H1450 H 0.47841 1.00697 0.12785 0.0
H1451 H 0.51404 0.92819 0.13535 0.0
Eu1452 Eu 0.27788 0.2651 0.2721 0.0
C1453 C 0.37457 0.33789 0.33531 0.0
N1454 N 0.35102 0.32539 0.34127 0.0
C1455 C 0.37234 0.31353 0.38116 0.0
C1456 C 0.39805 0.33779 0.35179 0.0
C1457 C 0.3496 0.31393 0.36421 0.0
C1458 C 0.39667 0.32537 0.37487 0.0
C1459 C 0.39961 0.36164 0.30469 0.0
C1460 C 0.3753 0.34982 0.31193 0.0
C1461 C 0.42293 0.36138 0.32103 0.0
C1462 C 0.42214 0.34962 0.34454 0.0
Eu1463 Eu 0.31386 0.32979 0.31268 0.0
N1464 N 0.35241 0.34971 0.29623 0.0
C1465 C 0.39984 0.37358 0.28128 0.0
C1466 C 0.35263 0.36267 0.27427 0.0
C1467 C 0.37624 0.3743 0.26617 0.0
H1468 H 0.33104 0.30573 0.37008 0.0
H1469 H 0.37621 0.38427 0.24854 0.0
H1470 H 0.27155 0.27344 0.20562 0.0
H1471 H 0.20242 0.21357 0.32421 0.0
H1472 H 0.33478 0.36504 0.26346 0.0
H1473 H 0.41811 0.38279 0.27503 0.0
H1474 H 0.24751 0.23213 0.31624 0.0
H1475 H 0.37107 0.30432 0.39925 0.0
H1476 H 0.44171 0.37035 0.31569 0.0
H1477 H 0.44033 0.3496 0.35691 0.0
H1478 H 0.23709 0.27647 0.16983 0.0
H1479 H 0.41426 0.32493 0.38802 0.0
H1480 H 0.1647 0.21749 0.29216 0.0
N1481 N 0.24588 0.26588 0.23488 0.0
C1482 C 0.22042 0.25806 0.23853 0.0
C1483 C 0.23212 0.27185 0.18928 0.0
C1484 C 0.19982 0.25814 0.21806 0.0
C1485 C 0.25179 0.27096 0.21 0.0
C1486 C 0.20602 0.26598 0.19351 0.0
N1487 N 0.23524 0.24704 0.28068 0.0
C1488 C 0.23112 0.23401 0.30229 0.0
C1489 C 0.1889 0.23763 0.26562 0.0
C1490 C 0.21493 0.24783 0.2619 0.0
C1491 C 0.18442 0.22564 0.28861 0.0
C1492 C 0.20565 0.22338 0.30675 0.0
H1493 H 0.19078 0.26626 0.17727 0.0
H1494 H 0.15771 0.24942 0.20683 0.0
H1495 H 0.14816 0.2315 0.24855 0.0
O1496 O 0.28906 0.22976 0.2823 0.0
O1497 O 0.25002 0.28596 0.29566 0.0
O1498 O 0.26883 0.32954 0.30634 0.0
O1499 O 0.26908 0.23007 0.24238 0.0
O1500 O 0.29312 0.26337 0.31679 0.0
O1501 O 0.29065 0.30286 0.33771 0.0
O1502 O 0.32134 0.37216 0.31929 0.0
O1503 O 0.34011 0.29979 0.30144 0.0
O1504 O 0.32026 0.27679 0.26105 0.0
O1505 O 0.3153 0.35061 0.35283 0.0
O1506 O 0.2962 0.33417 0.26996 0.0
O1507 O 0.2973 0.29514 0.24638 0.0
C1508 C 0.24786 0.31006 0.304 0.0
C1509 C 0.30039 0.20434 0.24669 0.0
C1510 C 0.3253 0.171 0.24961 0.0
C1511 C 0.34089 0.18187 0.23115 0.0
C1512 C 0.31573 0.21504 0.2279 0.0
C1513 C 0.33583 0.20366 0.22006 0.0
C1514 C 0.30497 0.18214 0.25706 0.0
C1515 C 0.28904 0.27794 0.33822 0.0
C1516 C 0.28133 0.21721 0.25802 0.0
C1517 C 0.17376 0.24926 0.22223 0.0
C1518 C 0.16832 0.23899 0.24595 0.0
C1519 C 0.34215 0.28652 0.27796 0.0
C1520 C 0.2952 0.38607 0.35037 0.0
C1521 C 0.26841 0.41645 0.33866 0.0
C1522 C 0.25189 0.40782 0.35738 0.0
C1523 C 0.27876 0.37788 0.36939 0.0
C1524 C 0.28997 0.40551 0.33537 0.0
C1525 C 0.2572 0.38871 0.37276 0.0
C1526 C 0.29711 0.32003 0.24695 0.0
C1527 C 0.31618 0.37288 0.34405 0.0
H1528 H 0.35684 0.17351 0.22538 0.0
H1529 H 0.31253 0.23237 0.21978 0.0
H1530 H 0.34778 0.21199 0.20574 0.0
H1531 H 0.2934 0.17415 0.27192 0.0
H1532 H 0.23523 0.41617 0.36046 0.0
H1533 H 0.2822 0.36277 0.38125 0.0
H1534 H 0.30236 0.4117 0.32046 0.0
H1535 H 0.2445 0.38219 0.38725 0.0
Eu1536 Eu 0.56111 0.51401 0.036 0.0
C1537 C 0.50588 0.59463 0.09975 0.0
N1538 N 0.49605 0.58019 0.07531 0.0
C1539 C 0.45266 0.57374 0.08701 0.0
C1540 C 0.48928 0.59893 0.11901 0.0
C1541 C 0.46985 0.57006 0.06851 0.0
C1542 C 0.46242 0.58814 0.11241 0.0
C1543 C 0.54337 0.62045 0.13066 0.0
C1544 C 0.53264 0.60526 0.10554 0.0
C1545 C 0.52691 0.62455 0.14997 0.0
C1546 C 0.49996 0.61381 0.14417 0.0
Eu1547 Eu 0.52681 0.57394 0.04628 0.0
N1548 N 0.54826 0.60032 0.08679 0.0
C1549 C 0.57034 0.63111 0.13559 0.0
C1550 C 0.57433 0.61165 0.09096 0.0
C1551 C 0.58583 0.6269 0.11554 0.0
H1552 H 0.46219 0.5592 0.04875 0.0
H1553 H 0.60662 0.63544 0.119 0.0
H1554 H 0.62656 0.52995 0.04203 0.0
H1555 H 0.48971 0.45334 0.95415 0.0
H1556 H 0.58631 0.60872 0.0755 0.0
H1557 H 0.57933 0.64286 0.15465 0.0
H1558 H 0.50463 0.47952 0.99905 0.0
H1559 H 0.43192 0.56549 0.08172 0.0
H1560 H 0.53482 0.63607 0.16942 0.0
H1561 H 0.48751 0.61724 0.15925 0.0
H1562 H 0.66128 0.52487 0.01428 0.0
H1563 H 0.44904 0.59095 0.12669 0.0
H1564 H 0.52163 0.44878 0.92258 0.0
N1565 N 0.59562 0.51068 0.01104 0.0
C1566 C 0.58872 0.49732 0.98568 0.0
C1567 C 0.64095 0.51738 1.00583 0.0
C1568 C 0.6079 0.49409 0.96906 0.0
C1569 C 0.62127 0.52041 0.02142 0.0
C1570 C 0.63424 0.50445 0.97941 0.0
N1571 N 0.54443 0.48918 0.99318 0.0
C1572 C 0.51874 0.47679 0.98583 0.0
C1573 C 0.55481 0.47162 0.95059 0.0
C1574 C 0.56248 0.48608 0.97658 0.0
C1575 C 0.5283 0.45993 0.94244 0.0
C1576 C 0.51023 0.46236 0.96023 0.0
H1577 H 0.64956 0.50218 0.96735 0.0
H1578 H 0.61472 0.47768 0.92983 0.0
H1579 H 0.56826 0.45814 0.91363 0.0
O1580 O 0.54473 0.47856 0.05253 0.0
O1581 O 0.54279 0.52809 0.99709 0.0
O1582 O 0.50837 0.54474 0.00974 0.0
O1583 O 0.58572 0.48776 0.04907 0.0
O1584 O 0.52397 0.50905 0.05577 0.0
O1585 O 0.49705 0.53455 0.03945 0.0
O1586 O 0.54175 0.60856 0.02771 0.0
O1587 O 0.54188 0.55835 0.08451 0.0
O1588 O 0.57725 0.54133 0.07557 0.0
O1589 O 0.50108 0.59901 0.03303 0.0
O1590 O 0.56287 0.57575 0.02475 0.0
O1591 O 0.59007 0.55352 0.04547 0.0
C1592 C 0.52056 0.53552 0.99089 0.0
C1593 C 0.57291 0.46567 0.08582 0.0
C1594 C 0.56782 0.43447 0.11894 0.0
C1595 C 0.5823 0.45465 0.13898 0.0
C1596 C 0.58763 0.48493 0.1063 0.0
C1597 C 0.5922 0.47946 0.13264 0.0
C1598 C 0.56314 0.44038 0.09217 0.0
C1599 C 0.50053 0.51263 0.04809 0.0
C1600 C 0.56709 0.47228 0.05816 0.0
C1601 C 0.60026 0.4802 0.94294 0.0
C1602 C 0.5738 0.46904 0.93372 0.0
C1603 C 0.56313 0.55035 0.0928 0.0
C1604 C 0.51179 0.6203 0.99507 0.0
C1605 C 0.51544 0.6508 0.9612 0.0
C1606 C 0.49684 0.63173 0.94313 0.0
C1607 C 0.4937 0.60182 0.97628 0.0
C1608 C 0.52283 0.64468 0.98737 0.0
C1609 C 0.48636 0.60752 0.95054 0.0
C1610 C 0.58658 0.57398 0.03413 0.0
C1611 C 0.519 0.61425 0.0227 0.0
H1612 H 0.5857 0.45155 0.15984 0.0
H1613 H 0.59548 0.50431 0.10192 0.0
H1614 H 0.60333 0.49464 0.14833 0.0
H1615 H 0.55209 0.42544 0.0762 0.0
H1616 H 0.4898 0.63557 0.92328 0.0
H1617 H 0.485 0.58304 0.9816 0.0
H1618 H 0.53718 0.6587 1.00178 0.0
H1619 H 0.47215 0.59317 0.93632 0.0
Eu1620 Eu 0.80314 0.33112 0.27695 0.0
C1621 C 0.7534 0.23923 0.34053 0.0
N1622 N 0.7778 0.25498 0.34616 0.0
C1623 C 0.77499 0.25789 0.39355 0.0
C1624 C 0.73852 0.23278 0.36136 0.0
C1625 C 0.78909 0.26357 0.37224 0.0
C1626 C 0.74949 0.24269 0.38808 0.0
C1627 C 0.71872 0.21163 0.30743 0.0
C1628 C 0.74354 0.22875 0.31389 0.0
C1629 C 0.70358 0.20577 0.32806 0.0
C1630 C 0.71343 0.21634 0.35494 0.0
Eu1631 Eu 0.79907 0.26444 0.30842 0.0
N1632 N 0.75827 0.23537 0.2942 0.0
C1633 C 0.71001 0.20074 0.28043 0.0
C1634 C 0.75074 0.2235 0.26825 0.0
C1635 C 0.72628 0.2064 0.26082 0.0
H1636 H 0.8091 0.27451 0.3767 0.0
H1637 H 0.72008 0.19747 0.24005 0.0
H1638 H 0.79666 0.31652 0.20851 0.0
H1639 H 0.88227 0.39709 0.3465 0.0
H1640 H 0.76369 0.22735 0.25347 0.0
H1641 H 0.69105 0.1875 0.27464 0.0
H1642 H 0.8383 0.36823 0.33266 0.0
H1643 H 0.7839 0.26504 0.4142 0.0
H1644 H 0.68436 0.19284 0.32347 0.0
H1645 H 0.70166 0.21134 0.37067 0.0
H1646 H 0.82422 0.32319 0.17255 0.0
H1647 H 0.73868 0.23821 0.40466 0.0
H1648 H 0.91265 0.40504 0.3128 0.0
N1649 N 0.82666 0.33733 0.23999 0.0
C1650 C 0.85114 0.35301 0.24621 0.0
C1651 C 0.83211 0.33144 0.19322 0.0
C1652 C 0.86737 0.35771 0.22605 0.0
C1653 C 0.81667 0.32737 0.2138 0.0
C1654 C 0.85766 0.34642 0.1994 0.0
N1655 N 0.84428 0.35946 0.29206 0.0
C1656 C 0.85151 0.37159 0.31798 0.0
C1657 C 0.88524 0.38104 0.27974 0.0
C1658 C 0.86001 0.36478 0.27277 0.0
C1659 C 0.89337 0.39249 0.30665 0.0
C1660 C 0.87631 0.38798 0.32577 0.0
H1661 H 0.86953 0.34956 0.18336 0.0
H1662 H 0.90541 0.37732 0.21781 0.0
H1663 H 0.92104 0.39763 0.26474 0.0
O1664 O 0.78777 0.36331 0.29518 0.0
O1665 O 0.84388 0.32045 0.2915 0.0
O1666 O 0.8389 0.29271 0.32392 0.0
O1667 O 0.79206 0.35993 0.25296 0.0
O1668 O 0.78883 0.32463 0.31685 0.0
O1669 O 0.81228 0.30029 0.33923 0.0
O1670 O 0.8145 0.23433 0.28636 0.0
O1671 O 0.75828 0.27472 0.29482 0.0
O1672 O 0.76111 0.30507 0.26466 0.0
O1673 O 0.81415 0.23543 0.32928 0.0
O1674 O 0.81378 0.27421 0.2698 0.0
O1675 O 0.78772 0.29508 0.24686 0.0
C1676 C 0.85422 0.30878 0.31093 0.0
C1677 C 0.75626 0.37653 0.26557 0.0
C1678 C 0.72514 0.40505 0.26932 0.0
C1679 C 0.70715 0.38689 0.24976 0.0
C1680 C 0.73762 0.35872 0.24663 0.0
C1681 C 0.71323 0.36386 0.23892 0.0
C1682 C 0.74974 0.3993 0.27731 0.0
C1683 C 0.8031 0.32134 0.33857 0.0
C1684 C 0.78279 0.3719 0.27234 0.0
C1685 C 0.89265 0.37367 0.23302 0.0
C1686 C 0.90155 0.38528 0.25976 0.0
C1687 C 0.74684 0.28764 0.27729 0.0
C1688 C 0.84874 0.22051 0.31117 0.0
C1689 C 0.87896 0.19115 0.30757 0.0
C1690 C 0.89983 0.21231 0.31849 0.0
C1691 C 0.86995 0.2411 0.32216 0.0
C1692 C 0.85336 0.19566 0.30363 0.0
C1693 C 0.89531 0.23705 0.32555 0.0
C1694 C 0.79823 0.27507 0.24816 0.0
C1695 C 0.82176 0.22468 0.30794 0.0
H1696 H 0.68847 0.39054 0.24212 0.0
H1697 H 0.74208 0.34103 0.23739 0.0
H1698 H 0.69913 0.35014 0.224 0.0
H1699 H 0.76405 0.41242 0.29252 0.0
H1700 H 0.91963 0.20968 0.32243 0.0
H1701 H 0.86695 0.26024 0.32844 0.0
H1702 H 0.83692 0.17988 0.29492 0.0
H1703 H 0.91152 0.25309 0.33418 0.0
Eu1704 Eu 0.04107 0.5733 0.50115 0.0
C1705 C 0.08341 0.49713 0.59683 0.0
N1706 N 0.0649 0.4911 0.57475 0.0
C1707 C 0.07261 0.44805 0.5671 0.0
C1708 C 0.09741 0.47867 0.60493 0.0
C1709 C 0.05926 0.46697 0.5599 0.0
C1710 C 0.09177 0.45391 0.58974 0.0
C1711 C 0.10836 0.52902 0.63379 0.0
C1712 C 0.08866 0.52193 0.61113 0.0
C1713 C 0.12211 0.51062 0.64214 0.0
C1714 C 0.11664 0.4855 0.62776 0.0
Eu1715 Eu 0.04225 0.52343 0.56426 0.0
N1716 N 0.07515 0.53936 0.60242 0.0
C1717 C 0.114 0.55451 0.64717 0.0
C1718 C 0.0813 0.56454 0.615 0.0
C1719 C 0.10056 0.57238 0.63757 0.0
H1720 H 0.04393 0.46203 0.54287 0.0
H1721 H 0.10516 0.59232 0.64744 0.0
H1722 H 0.02645 0.62908 0.52744 0.0
H1723 H 0.99781 0.51004 0.4063 0.0
H1724 H 0.072 0.57908 0.60772 0.0
H1725 H 0.129 0.5607 0.66461 0.0
H1726 H 0.02877 0.52525 0.44796 0.0
H1727 H 0.06795 0.4289 0.55531 0.0
H1728 H 0.13721 0.51572 0.65955 0.0
H1729 H 0.12753 0.47157 0.63431 0.0
H1730 H 0.99362 0.65492 0.51871 0.0
H1731 H 0.10208 0.4392 0.59532 0.0
H1732 H 0.96342 0.53374 0.39438 0.0
N1733 N 1.01056 0.59985 0.49403 0.0
C1734 C 0.99288 0.59267 0.47115 0.0
C1735 C 0.99294 0.63726 0.50535 0.0
C1736 C 0.97397 0.60722 0.46497 0.0
C1737 C 1.01128 0.62224 0.5106 0.0
C1738 C 0.97402 0.62958 0.48257 0.0
N1739 N 1.01205 0.55701 0.46033 0.0
C1740 C 1.01393 0.53576 0.44331 0.0
C1741 C 0.97563 0.56277 0.42987 0.0
C1742 C 0.99381 0.57083 0.45365 0.0
C1743 C 0.97705 0.54056 0.41281 0.0
C1744 C 0.99638 0.5271 0.4195 0.0
H1745 H 0.95987 0.6413 0.47849 0.0
H1746 H 0.9411 0.61009 0.43638 0.0
H1747 H 0.94245 0.57107 0.40573 0.0
O1748 O 0.0727 0.57787 0.47645 0.0
O1749 O 1.00131 0.54659 0.49736 0.0
O1750 O 0.02551 0.5397 0.53126 0.0
O1751 O 0.06004 0.61174 0.49311 0.0
O1752 O 0.0545 0.53426 0.4916 0.0
O1753 O 0.04397 0.50285 0.52113 0.0
O1754 O 1.01224 0.52154 0.59064 0.0
O1755 O 0.08223 0.54055 0.55484 0.0
O1756 O 0.06695 0.57355 0.54016 0.0
O1757 O 1.01219 0.48768 0.56227 0.0
O1758 O 0.03288 0.56357 0.57883 0.0
O1759 O 0.03763 0.5914 0.54502 0.0
C1760 C 1.00281 0.53329 0.51684 0.0
C1761 C 0.07185 0.61118 0.44922 0.0
C1762 C 0.085 0.60958 0.4044 0.0
C1763 C 0.06772 0.62538 0.39717 0.0
C1764 C 0.05462 0.62695 0.44171 0.0
C1765 C 0.05267 0.63402 0.4158 0.0
C1766 C 0.087 0.6027 0.43052 0.0
C1767 C 0.05189 0.51004 0.49811 0.0
C1768 C 0.07369 0.60259 0.47601 0.0
C1769 C 0.95579 0.59919 0.44137 0.0
C1770 C 0.9566 0.57701 0.42388 0.0
C1771 C 0.08606 0.56149 0.54292 0.0
C1772 C 0.99716 0.48081 0.60425 0.0
C1773 C 0.97791 0.47452 0.64522 0.0
C1774 C 0.98943 0.45329 0.64821 0.0
C1775 C 1.00855 0.45939 0.60722 0.0
C1776 C 0.9816 0.48805 0.62318 0.0
C1777 C 1.0046 0.44568 0.62912 0.0
C1778 C 0.03353 0.5867 0.57013 0.0
C1779 C 1.00208 0.4969 0.58263 0.0
H1780 H 0.06605 0.63126 0.37724 0.0
H1781 H 0.04253 0.6337 0.4557 0.0
H1782 H 0.03942 0.64619 0.41013 0.0
H1783 H 0.09997 0.5902 0.43619 0.0
H1784 H 0.98691 0.44286 0.6654 0.0
H1785 H 0.02067 0.45339 0.59292 0.0
H1786 H 0.97292 0.50471 0.62119 0.0
H1787 H 1.01358 0.42934 0.63149 0.0
Eu1788 Eu 0.82841 0.77366 0.29301 0.0
C1789 C 0.74006 0.82725 0.24288 0.0
N1790 N 0.75705 0.83811 0.26564 0.0
C1791 C 0.76142 0.88031 0.25147 0.0
C1792 C 0.73328 0.84272 0.22334 0.0
C1793 C 0.76754 0.86428 0.27036 0.0
C1794 C 0.74432 0.8695 0.22783 0.0
C1795 C 0.71143 0.78891 0.21575 0.0
C1796 C 0.72936 0.80053 0.23901 0.0
C1797 C 0.70486 0.80428 0.19621 0.0
C1798 C 0.71578 0.83108 0.19997 0.0
Eu1799 Eu 0.7674 0.80891 0.29498 0.0
N1800 N 0.73656 0.7859 0.25791 0.0
C1801 C 0.70045 0.76218 0.21288 0.0
C1802 C 0.72488 0.76016 0.25585 0.0
C1803 C 0.70696 0.74782 0.2332 0.0
H1804 H 0.78051 0.8729 0.28877 0.0
H1805 H 0.69801 0.72728 0.23154 0.0
H1806 H 0.80779 0.70847 0.28264 0.0
H1807 H 0.91337 0.83128 0.36056 0.0
H1808 H 0.72893 0.74911 0.2717 0.0
H1809 H 0.68656 0.75256 0.19534 0.0
H1810 H 0.87956 0.82037 0.3201 0.0
H1811 H 0.76984 0.901 0.25511 0.0
H1812 H 0.69122 0.79564 0.17816 0.0
H1813 H 0.71045 0.84268 0.18472 0.0
H1814 H 0.81167 0.67102 0.30658 0.0
H1815 H 0.73964 0.88201 0.21326 0.0
H1816 H 0.91641 0.7984 0.39144 0.0
N1817 N 0.83238 0.73633 0.31352 0.0
C1818 C 0.84904 0.7403 0.33697 0.0
C1819 C 0.82202 0.69044 0.31558 0.0
C1820 C 0.85233 0.71947 0.35114 0.0
C1821 C 0.81959 0.71173 0.30221 0.0
C1822 C 0.83814 0.69435 0.34039 0.0
N1823 N 0.86183 0.78397 0.33028 0.0
C1824 C 0.8798 0.80702 0.33461 0.0
C1825 C 0.88391 0.76954 0.36824 0.0
C1826 C 0.86445 0.76494 0.34553 0.0
C1827 C 0.90109 0.79409 0.37426 0.0
C1828 C 0.89936 0.81275 0.35698 0.0
H1829 H 0.84014 0.67777 0.3506 0.0
H1830 H 0.87308 0.70852 0.3862 0.0
H1831 H 0.90087 0.75244 0.40109 0.0
O1832 O 0.85221 0.78825 0.26238 0.0
O1833 O 0.82264 0.79185 0.33583 0.0
O1834 O 0.7988 0.82386 0.33113 0.0
O1835 O 0.8525 0.75031 0.27352 0.0
O1836 O 0.83723 0.81709 0.28905 0.0
O1837 O 0.8053 0.8399 0.29926 0.0
O1838 O 0.73703 0.79542 0.31944 0.0
O1839 O 0.7811 0.79815 0.25394 0.0
O1840 O 0.79446 0.76059 0.25894 0.0
O1841 O 0.74419 0.83527 0.31163 0.0
O1842 O 0.76935 0.77275 0.31514 0.0
O1843 O 0.78767 0.74667 0.28802 0.0
C1844 C 0.81261 0.81126 0.34616 0.0
C1845 C 0.89166 0.77331 0.26027 0.0
C1846 C 0.93132 0.78121 0.23783 0.0
C1847 C 0.94636 0.78226 0.26311 0.0
C1848 C 0.90747 0.77365 0.28471 0.0
C1849 C 0.93454 0.77836 0.28613 0.0
C1850 C 0.90369 0.77711 0.2367 0.0
C1851 C 0.82868 0.83877 0.29277 0.0
C1852 C 0.86273 0.76811 0.25953 0.0
C1853 C 0.87046 0.72423 0.37486 0.0
C1854 C 0.88628 0.74924 0.38336 0.0
C1855 C 0.78687 0.77653 0.24324 0.0
C1856 C 0.70153 0.81594 0.32113 0.0
C1857 C 0.66161 0.8128 0.34258 0.0
C1858 C 0.64705 0.81046 0.31694 0.0
C1859 C 0.68644 0.81355 0.29583 0.0
C1860 C 0.68902 0.81562 0.34461 0.0
C1861 C 0.65938 0.81086 0.2938 0.0
C1862 C 0.77014 0.74946 0.30404 0.0
C1863 C 0.73004 0.81755 0.32317 0.0
H1864 H 0.96751 0.78623 0.26525 0.0
H1865 H 0.89892 0.77004 0.3028 0.0
H1866 H 0.94648 0.77886 0.30524 0.0
H1867 H 0.89157 0.77627 0.21761 0.0
H1868 H 0.62607 0.80861 0.31487 0.0
H1869 H 0.69555 0.81365 0.27763 0.0
H1870 H 0.70051 0.81756 0.36428 0.0
H1871 H 0.64789 0.80911 0.27418 0.0
Eu1872 Eu 0.77397 0.29368 0.81993 0.0
C1873 C 0.85581 0.26599 0.72443 0.0
N1874 N 0.86174 0.28071 0.74907 0.0
C1875 C 0.90411 0.27071 0.75448 0.0
C1876 C 0.8742 0.25349 0.71356 0.0
C1877 C 0.88534 0.28294 0.76441 0.0
C1878 C 0.89868 0.25629 0.72881 0.0
C1879 C 0.82319 0.24474 0.68639 0.0
C1880 C 0.83066 0.2618 0.711 0.0
C1881 C 0.84183 0.23347 0.67475 0.0
C1882 C 0.86731 0.23782 0.68833 0.0
Eu1883 Eu 0.82996 0.30255 0.76341 0.0
N1884 N 0.81291 0.27235 0.72323 0.0
C1885 C 0.79691 0.23842 0.67491 0.0
C1886 C 0.78689 0.26411 0.71329 0.0
C1887 C 0.7786 0.24766 0.68878 0.0
H1888 H 0.8898 0.29439 0.78419 0.0
H1889 H 0.75799 0.24173 0.68088 0.0
H1890 H 0.71974 0.31267 0.79637 0.0
H1891 H 0.81564 0.30329 0.9262 0.0
H1892 H 0.77211 0.2693 0.72436 0.0
H1893 H 0.79038 0.22536 0.65611 0.0
H1894 H 0.80474 0.28262 0.87881 0.0
H1895 H 0.92279 0.27222 0.76642 0.0
H1896 H 0.83648 0.22056 0.65576 0.0
H1897 H 0.88128 0.22828 0.67958 0.0
H1898 H 0.6967 0.3476 0.8081 0.0
H1899 H 0.91326 0.24683 0.72127 0.0
H1900 H 0.79862 0.34177 0.94128 0.0
N1901 N 0.74788 0.32342 0.83139 0.0
C1902 C 0.75388 0.33688 0.85671 0.0
C1903 C 0.71318 0.34525 0.82174 0.0
C1904 C 0.74071 0.35631 0.86497 0.0
C1905 C 0.72673 0.32606 0.81466 0.0
C1906 C 0.72064 0.36093 0.84677 0.0
N1907 N 0.78346 0.31032 0.86654 0.0
C1908 C 0.7978 0.29985 0.88486 0.0
C1909 C 0.77751 0.34223 0.90191 0.0
C1910 C 0.7721 0.32998 0.87492 0.0
C1911 C 0.79404 0.33297 0.92033 0.0
C1912 C 0.80371 0.31128 0.91189 0.0
H1913 H 0.70999 0.37564 0.85233 0.0
H1914 H 0.7376 0.38495 0.89797 0.0
H1915 H 0.7698 0.37256 0.93038 0.0
O1916 O 0.76615 0.25629 0.83519 0.0
O1917 O 0.7978 0.33499 0.82939 0.0
O1918 O 0.81034 0.31541 0.79582 0.0
O1919 O 0.73394 0.27258 0.82024 0.0
O1920 O 0.81589 0.28719 0.83431 0.0
O1921 O 0.84877 0.29939 0.80661 0.0
O1922 O 0.83233 0.33679 0.74308 0.0
O1923 O 0.81637 0.2614 0.77014 0.0
O1924 O 0.7797 0.27262 0.7801 0.0
O1925 O 0.86706 0.33129 0.76682 0.0
O1926 O 0.79005 0.31164 0.74762 0.0
O1927 O 0.75857 0.30458 0.77779 0.0
C1928 C 0.8136 0.33691 0.81188 0.0
C1929 C 0.72958 0.25196 0.85905 0.0
C1930 C 0.73352 0.24275 0.90542 0.0
C1931 C 0.70931 0.24911 0.90804 0.0
C1932 C 0.70515 0.25782 0.86179 0.0
C1933 C 0.69516 0.25646 0.88622 0.0
C1934 C 0.74347 0.24413 0.88089 0.0
C1935 C 0.84079 0.29152 0.82928 0.0
C1936 C 0.74112 0.2553 0.83403 0.0
C1937 C 0.74725 0.36971 0.89137 0.0
C1938 C 0.76559 0.36265 0.90983 0.0
C1939 C 0.79335 0.25472 0.7777 0.0
C1940 C 0.87174 0.35027 0.72638 0.0
C1941 C 0.87335 0.36951 0.68484 0.0
C1942 C 0.89409 0.35802 0.67912 0.0
C1943 C 0.89262 0.33886 0.72061 0.0
C1944 C 0.8625 0.36589 0.70854 0.0
C1945 C 0.90378 0.34287 0.69709 0.0
C1946 C 0.76607 0.31114 0.75431 0.0
C1947 C 0.8576 0.34451 0.74932 0.0
H1948 H 0.70109 0.24781 0.92672 0.0
H1949 H 0.69392 0.26378 0.8452 0.0
H1950 H 0.6764 0.2611 0.88825 0.0
H1951 H 0.7623 0.23949 0.87906 0.0
H1952 H 0.9025 0.36053 0.66068 0.0
H1953 H 0.90002 0.32654 0.73389 0.0
H1954 H 0.84621 0.37456 0.71263 0.0
H1955 H 0.91966 0.33384 0.69257 0.0
Eu1956 Eu 0.77964 0.76244 0.77442 0.0
C1957 C 0.87211 0.84332 0.83967 0.0
N1958 N 0.84881 0.82948 0.84489 0.0
C1959 C 0.86989 0.8211 0.88683 0.0
C1960 C 0.8954 0.84556 0.85754 0.0
C1961 C 0.84737 0.81923 0.86857 0.0
C1962 C 0.89404 0.83412 0.88121 0.0
C1963 C 0.89708 0.86798 0.80962 0.0
C1964 C 0.87292 0.85455 0.8159 0.0
C1965 C 0.9202 0.8699 0.82725 0.0
C1966 C 0.91935 0.85884 0.85117 0.0
Eu1967 Eu 0.8117 0.82917 0.81328 0.0
N1968 N 0.85025 0.85223 0.79888 0.0
C1969 C 0.89737 0.87932 0.78585 0.0
C1970 C 0.85041 0.86473 0.77656 0.0
C1971 C 0.87389 0.87793 0.76943 0.0
H1972 H 0.8289 0.81037 0.87418 0.0
H1973 H 0.8738 0.88746 0.75149 0.0
H1974 H 0.76707 0.77804 0.71037 0.0
H1975 H 0.71179 0.70506 0.83014 0.0
H1976 H 0.83253 0.86554 0.76458 0.0
H1977 H 0.91552 0.88972 0.78033 0.0
H1978 H 0.75495 0.72696 0.8197 0.0
H1979 H 0.86854 0.81278 0.90544 0.0
H1980 H 0.93887 0.88008 0.82264 0.0
H1981 H 0.93738 0.86058 0.86459 0.0
H1982 H 0.72952 0.78132 0.67896 0.0
H1983 H 0.91147 0.83547 0.89541 0.0
H1984 H 0.67145 0.70697 0.80087 0.0
N1985 N 0.74477 0.7651 0.74092 0.0
C1986 C 0.72019 0.7545 0.74592 0.0
C1987 C 0.72659 0.77432 0.69802 0.0
C1988 C 0.69787 0.75468 0.72763 0.0
C1989 C 0.74809 0.77332 0.71651 0.0
C1990 C 0.70135 0.76544 0.70384 0.0
N1991 N 0.73904 0.74183 0.78578 0.0
C1992 C 0.73741 0.72815 0.80716 0.0
C1993 C 0.69225 0.72981 0.77373 0.0
C1994 C 0.71728 0.74201 0.7686 0.0
C1995 C 0.69032 0.71665 0.79631 0.0
C1996 C 0.71303 0.71558 0.81293 0.0
H1997 H 0.68473 0.76589 0.68927 0.0
H1998 H 0.65553 0.74341 0.71936 0.0
H1999 H 0.65064 0.72174 0.75977 0.0
O2000 O 0.78949 0.72555 0.78161 0.0
O2001 O 0.75124 0.78177 0.79983 0.0
O2002 O 0.76625 0.82588 0.80501 0.0
O2003 O 0.77058 0.72932 0.74237 0.0
O2004 O 0.7996 0.7631 0.81717 0.0
O2005 O 0.79185 0.7997 0.83925 0.0
O2006 O 0.81435 0.87107 0.81726 0.0
O2007 O 0.84205 0.80337 0.80296 0.0
O2008 O 0.82337 0.77354 0.76579 0.0
O2009 O 0.81014 0.85103 0.8521 0.0
O2010 O 0.79746 0.83116 0.76825 0.0
O2011 O 0.79959 0.79091 0.7483 0.0
C2012 C 0.74682 0.80558 0.80561 0.0
C2013 C 0.80327 0.70503 0.74403 0.0
C2014 C 0.83316 0.67561 0.74469 0.0
C2015 C 0.84588 0.68849 0.72522 0.0
C2016 C 0.81611 0.71749 0.72447 0.0
C2017 C 0.83714 0.70904 0.71498 0.0
C2018 C 0.81156 0.6839 0.75367 0.0
C2019 C 0.79394 0.77539 0.83905 0.0
C2020 C 0.78291 0.71528 0.7564 0.0
C2021 C 0.67284 0.74327 0.73311 0.0
C2022 C 0.67004 0.73085 0.75608 0.0
C2023 C 0.84485 0.78698 0.78187 0.0
C2024 C 0.78735 0.8844 0.84744 0.0
C2025 C 0.76326 0.91756 0.83857 0.0
C2026 C 0.74322 0.90533 0.85201 0.0
C2027 C 0.76729 0.87238 0.86111 0.0
C2028 C 0.78537 0.90721 0.8367 0.0
C2029 C 0.74542 0.88296 0.86349 0.0
C2030 C 0.80036 0.81569 0.74684 0.0
C2031 C 0.8093 0.87243 0.84204 0.0
H2032 H 0.86288 0.68307 0.71821 0.0
H2033 H 0.81029 0.73409 0.71694 0.0
H2034 H 0.84713 0.71887 0.70011 0.0
H2035 H 0.80126 0.67419 0.76845 0.0
H2036 H 0.72599 0.91313 0.85372 0.0
H2037 H 0.76816 0.85456 0.86946 0.0
H2038 H 0.80063 0.91635 0.82585 0.0
H2039 H 0.72993 0.87354 0.87379 0.0
Eu2040 Eu 0.5734 0.55737 0.55703 0.0
C2041 C 0.50259 0.46219 0.48359 0.0
N2042 N 0.51286 0.487 0.47936 0.0
C2043 C 0.52179 0.47101 0.43571 0.0
C2044 C 0.50215 0.44077 0.46405 0.0
C2045 C 0.52178 0.49165 0.45554 0.0
C2046 C 0.51204 0.44546 0.44 0.0
C2047 C 0.483 0.43246 0.51294 0.0
C2048 C 0.49304 0.45805 0.50786 0.0
C2049 C 0.48246 0.41122 0.49342 0.0
C2050 C 0.49199 0.41535 0.46907 0.0
Eu2051 Eu 0.50978 0.52018 0.51365 0.0
N2052 N 0.49446 0.47891 0.52686 0.0
C2053 C 0.474 0.42892 0.53765 0.0
C2054 C 0.4848 0.47554 0.55053 0.0
C2055 C 0.47478 0.45057 0.55644 0.0
H2056 H 0.52809 0.51121 0.45116 0.0
H2057 H 0.46734 0.44806 0.57537 0.0
H2058 H 0.55492 0.57112 0.61899 0.0
H2059 H 0.63167 0.6231 0.49953 0.0
H2060 H 0.48405 0.49195 0.56466 0.0
H2061 H 0.4662 0.40958 0.5423 0.0
H2062 H 0.61003 0.58077 0.51113 0.0
H2063 H 0.52898 0.47485 0.41693 0.0
H2064 H 0.47483 0.39147 0.49703 0.0
H2065 H 0.49151 0.39872 0.45427 0.0
H2066 H 0.55371 0.60929 0.65049 0.0
H2067 H 0.51202 0.42952 0.42453 0.0
H2068 H 0.63099 0.66378 0.52844 0.0
N2069 N 0.57184 0.59282 0.58986 0.0
C2070 C 0.58368 0.61696 0.5849 0.0
C2071 C 0.56182 0.61176 0.6319 0.0
C2072 C 0.58413 0.63949 0.60294 0.0
C2073 C 0.56195 0.59001 0.61353 0.0
C2074 C 0.57267 0.63664 0.62644 0.0
N2075 N 0.59492 0.59721 0.54464 0.0
C2076 C 0.60847 0.59834 0.52315 0.0
C2077 C 0.60845 0.64384 0.55633 0.0
C2078 C 0.59579 0.61919 0.56185 0.0
C2079 C 0.62099 0.64522 0.53332 0.0
C2080 C 0.62129 0.62232 0.51687 0.0
H2081 H 0.57267 0.65344 0.64081 0.0
H2082 H 0.59672 0.68157 0.61081 0.0
H2083 H 0.61797 0.68537 0.57002 0.0
O2084 O 0.61117 0.54828 0.55209 0.0
O2085 O 0.54994 0.58721 0.53965 0.0
O2086 O 0.51526 0.56414 0.50846 0.0
O2087 O 0.60454 0.56583 0.59156 0.0
O2088 O 0.57587 0.54135 0.51287 0.0
O2089 O 0.5372 0.54432 0.48983 0.0
O2090 O 0.46853 0.51648 0.51664 0.0
O2091 O 0.53983 0.49464 0.5252 0.0
O2092 O 0.56242 0.51403 0.56617 0.0
O2093 O 0.48121 0.51455 0.47732 0.0
O2094 O 0.50499 0.53692 0.55678 0.0
O2095 O 0.54386 0.53709 0.58204 0.0
C2096 C 0.52999 0.58688 0.5207 0.0
C2097 C 0.64756 0.55697 0.58857 0.0
C2098 C 0.68987 0.54813 0.58211 0.0
C2099 C 0.69969 0.55884 0.60897 0.0
C2100 C 0.65741 0.56741 0.61557 0.0
C2101 C 0.68338 0.56825 0.6257 0.0
C2102 C 0.66383 0.54705 0.57205 0.0
C2103 C 0.56233 0.54582 0.49089 0.0
C2104 C 0.62073 0.55716 0.57725 0.0
C2105 C 0.59631 0.66409 0.59722 0.0
C2106 C 0.60844 0.66626 0.574 0.0
C2107 C 0.55298 0.49246 0.54871 0.0
C2108 C 0.44862 0.53795 0.48462 0.0
C2109 C 0.42195 0.56765 0.49928 0.0
C2110 C 0.42563 0.58014 0.47636 0.0
C2111 C 0.45183 0.55027 0.46148 0.0
C2112 C 0.43358 0.54673 0.5032 0.0
C2113 C 0.44045 0.57136 0.45751 0.0
C2114 C 0.51863 0.53604 0.58025 0.0
C2115 C 0.4623 0.51739 0.49099 0.0
H2116 H 0.71983 0.55972 0.61698 0.0
H2117 H 0.64518 0.57513 0.62875 0.0
H2118 H 0.69093 0.57637 0.64647 0.0
H2119 H 0.65651 0.53895 0.55117 0.0
H2120 H 0.4166 0.59622 0.47272 0.0
H2121 H 0.4635 0.544 0.44678 0.0
H2122 H 0.43127 0.53748 0.52121 0.0
H2123 H 0.44315 0.58093 0.43981 0.0
Eu2124 Eu 1.00984 0.55209 0.0568 0.0
C2125 C 0.1091 0.59278 0.99461 0.0
N2126 N 0.09129 0.56955 0.98961 0.0
C2127 C 0.08945 0.57051 0.94192 0.0
C2128 C 0.11719 0.6061 0.97319 0.0
C2129 C 0.08222 0.55785 0.96373 0.0
C2130 C 0.10677 0.59486 0.94666 0.0
C2131 C 0.13924 0.62651 0.02675 0.0
C2132 C 0.12007 0.60298 0.02118 0.0
C2133 C 0.14679 0.64002 1.00546 0.0
C2134 C 0.13578 0.62988 0.97879 0.0
Eu2135 Eu 0.08074 0.55062 0.02834 0.0
N2136 N 0.11206 0.58989 0.04161 0.0
C2137 C 0.15036 0.63572 0.0536 0.0
C2138 C 0.12362 0.59811 0.06765 0.0
C2139 C 0.14269 0.62133 0.07409 0.0
H2140 H 0.06975 0.53853 0.95971 0.0
H2141 H 0.15154 0.62804 0.09482 0.0
H2142 H 0.02626 0.5568 0.12563 0.0
H2143 H 0.92912 0.48472 0.99141 0.0
H2144 H 0.11798 0.5868 0.08337 0.0
H2145 H 0.16514 0.65373 0.05867 0.0
H2146 H 0.96608 0.52309 1.00352 0.0
H2147 H 0.08192 0.56132 0.92145 0.0
H2148 H 0.16135 0.65823 0.00938 0.0
H2149 H 0.14208 0.6404 0.96257 0.0
H2150 H 0.01757 0.52953 0.16113 0.0
H2151 H 0.11248 0.60451 0.92969 0.0
H2152 H 0.91824 0.45483 0.02495 0.0
N2153 N 1.00242 0.52877 0.09393 0.0
C2154 C 0.9837 0.50615 0.0881 0.0
C2155 C 1.00823 0.52252 0.1406 0.0
C2156 C 0.97723 0.49048 0.10835 0.0
C2157 C 1.01361 0.5377 0.12007 0.0
C2158 C 0.99027 0.49863 0.13465 0.0
N2159 N 0.97611 0.51468 0.04296 0.0
C2160 C 0.96156 0.51002 0.01804 0.0
C2161 C 0.94908 0.47695 0.05608 0.0
C2162 C 0.96982 0.49924 0.06214 0.0
C2163 C 0.93444 0.47165 0.03029 0.0
C2164 C 0.94054 0.48844 0.01128 0.0
H2165 H 0.98588 0.4871 0.15072 0.0
H2166 H 0.95233 0.45535 0.1173 0.0
H2167 H 0.92759 0.44364 0.07164 0.0
O2168 O 0.97795 0.56828 0.03839 0.0
O2169 O 0.01541 0.51011 0.03925 0.0
O2170 O 0.05398 0.50946 0.02044 0.0
O2171 O 0.98731 0.57245 0.08173 0.0
O2172 O 0.02205 0.56391 0.0177 0.0
O2173 O 0.04511 0.53821 0.99689 0.0
O2174 O 0.11169 0.53683 0.05114 0.0
O2175 O 0.07278 0.5927 0.04101 0.0
O2176 O 0.03757 0.59288 0.06532 0.0
O2177 O 0.10606 0.52964 1.00755 0.0
O2178 O 0.06638 0.53821 0.06605 0.0
O2179 O 0.04592 0.56533 0.08753 0.0
C2180 C 0.03148 0.49726 0.02719 0.0
C2181 C 0.94436 0.57457 0.0649 0.0
C2182 C 0.90675 0.59458 0.06806 0.0
C2183 C 0.89371 0.57233 0.07787 0.0
C2184 C 0.9308 0.55252 0.0745 0.0
C2185 C 0.90558 0.55141 0.08083 0.0
C2186 C 0.9321 0.59546 0.06129 0.0
C2187 C 0.024 0.54742 0.9972 0.0
C2188 C 0.97216 0.57726 0.06156 0.0
C2189 C 0.95739 0.46764 0.10201 0.0
C2190 C 0.94327 0.46098 0.07601 0.0
C2191 C 0.05801 0.6054 0.05521 0.0
C2192 C 0.14756 0.52782 0.03014 0.0
C2193 C 0.18404 0.50602 0.0285 0.0
C2194 C 0.20114 0.53042 0.02981 0.0
C2195 C 0.165 0.55196 0.03152 0.0
C2196 C 0.15716 0.50481 0.02871 0.0
C2197 C 0.19167 0.5532 0.03141 0.0
C2198 C 0.06616 0.55499 0.08677 0.0
C2199 C 0.11931 0.52612 0.02978 0.0
H2200 H 0.87418 0.57104 0.08309 0.0
H2201 H 0.93994 0.53645 0.07775 0.0
H2202 H 0.89532 0.53442 0.08843 0.0
H2203 H 0.94261 0.61271 0.05423 0.0
H2204 H 0.22184 0.5318 0.02931 0.0
H2205 H 0.15799 0.56977 0.03252 0.0
H2206 H 0.14373 0.48604 0.0273 0.0
H2207 H 0.20504 0.57188 0.03231 0.0
H2208 H 0.98014 0.18491 0.98377 0.0
H2209 H 0.06059 0.22698 0.99889 0.0
H2210 H 0.07375 0.18845 0.01372 0.0
H2211 H 0.06311 0.14142 0.02265 0.0
H2212 H 0.98227 0.10085 0.01158 0.0
H2213 H 0.96933 0.13878 0.99551 0.0
C2214 C 1.00064 0.18589 0.99022 0.0
C2215 C 0.01918 0.20992 0.98956 0.0
C2216 C 1.00831 0.16317 0.99975 0.0
C2217 C 0.0455 0.20962 0.99872 0.0
C2218 C 0.05316 0.18718 1.00735 0.0
C2219 C 0.0426 0.14065 0.01701 0.0
C2220 C 0.02401 0.11686 0.01852 0.0
C2221 C 0.03488 0.16359 0.00809 0.0
C2222 C 0.99756 0.11772 0.01065 0.0
C2223 C 0.98996 0.1399 1.00136 0.0
H2224 H 0.15925 0.84092 0.20116 0.0
H2225 H 0.17879 0.79972 0.13042 0.0
H2226 H 0.21874 0.79417 0.15672 0.0
H2227 H 0.24697 0.79821 0.20097 0.0
H2228 H 0.22923 0.84264 0.27058 0.0
H2229 H 0.18998 0.84901 0.24407 0.0
C2230 C 0.17239 0.83106 0.19129 0.0
C2231 C 0.16561 0.82086 0.16349 0.0
C2232 C 0.19574 0.82804 0.20666 0.0
C2233 C 0.18321 0.80806 0.1515 0.0
C2234 C 0.20616 0.80469 0.1667 0.0
C2235 C 0.23514 0.80998 0.21029 0.0
C2236 C 0.2415 0.81968 0.23827 0.0
C2237 C 0.21258 0.8143 0.19445 0.0
C2238 C 0.22484 0.83419 0.24957 0.0
C2239 C 0.20234 0.83811 0.23422 0.0
H2240 H 0.55004 0.88297 0.47651 0.0
H2241 H 0.47695 0.85544 0.50514 0.0
H2242 H 0.47678 0.90044 0.52364 0.0
H2243 H 0.49716 0.94916 0.53083 0.0
H2244 H 0.57141 0.9749 0.50338 0.0
H2245 H 0.5714 0.93019 0.48623 0.0
C2246 C 0.53436 0.88652 0.48752 0.0
C2247 C 0.51395 0.86483 0.48995 0.0
C2248 C 0.53441 0.91285 0.49826 0.0
C2249 C 0.49356 0.87087 0.50363 0.0
C2250 C 0.49327 0.897 0.51394 0.0
C2251 C 0.51319 0.94523 0.52085 0.0
C2252 C 0.53408 0.96662 0.51833 0.0
C2253 C 0.51346 0.91846 0.51118 0.0
C2254 C 0.55486 0.95982 0.50581 0.0
C2255 C 0.55494 0.93384 0.49585 0.0
H2256 H 0.47677 0.2871 0.62033 0.0
H2257 H 0.5404 0.30598 0.68648 0.0
H2258 H 0.50959 0.29862 0.71849 0.0
H2259 H 0.46494 0.28266 0.72809 0.0
H2260 H 0.40064 0.26385 0.66332 0.0
H2261 H 0.43096 0.27578 0.63082 0.0
C2262 C 0.4839 0.28995 0.64175 0.0
C2263 C 0.51118 0.2969 0.65062 0.0
C2264 C 0.46582 0.28576 0.66054 0.0
C2265 C 0.51975 0.30053 0.67866 0.0
C2266 C 0.50206 0.29632 0.6972 0.0
C2267 C 0.45751 0.28202 0.70697 0.0
C2268 C 0.43052 0.27282 0.69821 0.0
C2269 C 0.47512 0.28845 0.68841 0.0
C2270 C 0.42123 0.27144 0.67067 0.0
C2271 C 0.43866 0.27793 0.65203 0.0
H2272 H 0.02673 0.8493 0.69524 0.0
H2273 H 0.08487 0.80647 0.67643 0.0
H2274 H 0.09797 0.83455 0.64284 0.0
H2275 H 0.09204 0.86994 0.61742 0.0
H2276 H 0.03204 0.91151 0.6329 0.0
H2277 H 0.02101 0.88588 0.66925 0.0
C2278 C 0.04238 0.84636 0.6839 0.0
C2279 C 0.05481 0.82577 0.6883 0.0
C2280 C 0.0495 0.86238 0.66392 0.0
C2281 C 0.07493 0.82206 0.6733 0.0
C2282 C 0.08245 0.83813 0.65408 0.0
C2283 C 0.07636 0.87336 0.62849 0.0
C2284 C 0.06282 0.89266 0.62199 0.0
C2285 C 0.06966 0.85809 0.64891 0.0
C2286 C 0.04307 0.89707 0.63738 0.0
C2287 C 0.03658 0.88221 0.65813 0.0
H2288 H 0.46861 0.8315 0.88244 0.0
H2289 H 0.49121 0.82112 0.80337 0.0
H2290 H 0.44569 0.81667 0.78297 0.0
H2291 H 0.39726 0.81298 0.78725 0.0
H2292 H 0.37504 0.81585 0.86708 0.0
H2293 H 0.42109 0.82519 0.88677 0.0
C2294 C 0.46391 0.82872 0.86064 0.0
C2295 C 0.48489 0.82888 0.84479 0.0
C2296 C 0.43678 0.82416 0.8489 0.0
C2297 C 0.47693 0.82362 0.81656 0.0
C2298 C 0.45028 0.82027 0.80477 0.0
C2299 C 0.40237 0.81583 0.809 0.0
C2300 C 0.3816 0.81387 0.8254 0.0
C2301 C 0.42972 0.82035 0.82062 0.0
C2302 C 0.38967 0.81723 0.85355 0.0
C2303 C 0.4164 0.82263 0.86499 0.0
H2304 H 0.50113 0.15776 0.17396 0.0
H2305 H 0.55176 0.2176 0.14123 0.0
H2306 H 0.55868 0.1852 0.106 0.0
H2307 H 0.55132 0.13944 0.08414 0.0
H2308 H 0.50089 0.07894 0.11629 0.0
H2309 H 0.49326 0.11136 0.15128 0.0
C2310 C 0.51365 0.16374 0.15912 0.0
C2311 C 0.52545 0.19065 0.16033 0.0
C2312 C 0.51767 0.14459 0.13839 0.0
C2313 C 0.54188 0.19746 0.14082 0.0
C2314 C 0.54599 0.17875 0.12055 0.0
C2315 C 0.53824 0.13319 0.09838 0.0
C2316 C 0.52652 0.10623 0.09675 0.0
C2317 C 0.53396 0.1522 0.11892 0.0
C2318 C 0.51031 0.09918 0.11646 0.0
C2319 C 0.50589 0.1179 0.13673 0.0
H2320 H 0.13489 0.30228 0.34939 0.0
H2321 H 0.14193 0.3786 0.32531 0.0
H2322 H 0.18461 0.37677 0.31154 0.0
H2323 H 0.22142 0.35324 0.3048 0.0
H2324 H 0.21292 0.27622 0.32719 0.0
H2325 H 0.17109 0.2787 0.34215 0.0
C2326 C 0.14561 0.31875 0.3413 0.0
C2327 C 0.13398 0.34084 0.33905 0.0
C2328 C 0.17073 0.31735 0.33246 0.0
C2329 C 0.14926 0.36128 0.32783 0.0
C2330 C 0.17416 0.36023 0.31974 0.0
C2331 C 0.21059 0.33684 0.3129 0.0
C2332 C 0.22138 0.31405 0.31392 0.0
C2333 C 0.18539 0.33833 0.32169 0.0
C2334 C 0.20589 0.29367 0.32493 0.0
C2335 C 0.18157 0.29522 0.33395 0.0
H2336 H 1.01248 0.01918 0.20786 0.0
H2337 H 0.93492 0.03021 0.18476 0.0
H2338 H 0.94556 0.03786 0.13978 0.0
H2339 H 0.97738 0.04191 0.10609 0.0
H2340 H 0.05315 0.02579 0.12861 0.0
H2341 H 0.04283 0.02002 0.17357 0.0
C2342 C 0.99787 0.02332 0.19306 0.0
C2343 C 0.97287 0.02429 0.20028 0.0
C2344 C 1.0039 0.027 0.16659 0.0
C2345 C 0.9543 0.02931 0.18024 0.0
C2346 C 0.96042 0.03375 0.15428 0.0
C2347 C 0.99166 0.03705 0.12072 0.0
C2348 C 0.01649 0.03509 0.11336 0.0
C2349 C 0.98522 0.03269 0.14703 0.0
C2350 C 0.03421 0.02832 0.13314 0.0
C2351 C 0.02825 0.02478 0.15919 0.0
H2352 H 0.26507 0.64806 0.47065 0.0
H2353 H 0.29474 0.7113 0.53599 0.0
H2354 H 0.2863 0.74254 0.50613 0.0
H2355 H 0.26595 0.75144 0.4631 0.0
H2356 H 0.23551 0.68856 0.39797 0.0
H2357 H 0.24881 0.65752 0.42618 0.0
C2358 C 0.27015 0.66869 0.47827 0.0
C2359 C 0.27997 0.67723 0.50565 0.0
C2360 C 0.26469 0.68655 0.46119 0.0
C2361 C 0.28676 0.70411 0.51508 0.0
C2362 C 0.28184 0.72203 0.49808 0.0
C2363 C 0.26225 0.73091 0.4552 0.0
C2364 C 0.24939 0.72204 0.4289 0.0
C2365 C 0.26991 0.71335 0.47144 0.0
C2366 C 0.24524 0.69562 0.41837 0.0
C2367 C 0.25283 0.67795 0.43444 0.0
H2368 H 0.62402 0.07107 0.70593 0.0
H2369 H 0.67366 0.02822 0.66695 0.0
H2370 H 0.64511 0.02339 0.62365 0.0
H2371 H 0.60615 0.0315 0.59766 0.0
H2372 H 0.56016 0.07958 0.63591 0.0
H2373 H 0.58718 0.08212 0.67921 0.0
C2374 C 0.62838 0.0605 0.68791 0.0
C2375 C 0.65033 0.04948 0.68933 0.0
C2376 C 0.61261 0.05879 0.66327 0.0
C2377 C 0.65655 0.03652 0.66604 0.0
C2378 C 0.64031 0.03383 0.64146 0.0
C2379 C 0.60201 0.04258 0.61543 0.0
C2380 C 0.58079 0.05487 0.61367 0.0
C2381 C 0.61829 0.0449 0.63992 0.0
C2382 C 0.57597 0.06945 0.63682 0.0
C2383 C 0.5915 0.07105 0.66153 0.0
H2384 H 0.34627 0.38689 0.95048 0.0
H2385 H 0.28764 0.33027 0.97818 0.0
H2386 H 0.27767 0.30503 0.93273 0.0
H2387 H 0.28418 0.30024 0.88395 0.0
H2388 H 0.34579 0.35534 0.85835 0.0
H2389 H 0.35605 0.37971 0.90387 0.0
C2390 C 0.33158 0.3688 0.94687 0.0
C2391 C 0.31779 0.36066 0.96815 0.0
C2392 C 0.3263 0.35414 0.92074 0.0
C2393 C 0.29881 0.33706 0.96259 0.0
C2394 C 0.29296 0.32269 0.93641 0.0
C2395 C 0.29992 0.31754 0.88838 0.0
C2396 C 0.31394 0.32606 0.86737 0.0
C2397 C 0.3063 0.33122 0.91514 0.0
C2398 C 0.33457 0.34828 0.87382 0.0
C2399 C 0.34044 0.3623 0.89996 0.0
H2400 H 0.97274 0.9848 0.3712 0.0
H2401 H 0.9941 0.06563 0.36076 0.0
H2402 H 0.01639 0.07643 0.40745 0.0
H2403 H 0.02751 0.06329 0.45275 0.0
H2404 H 1.00659 0.98233 0.46274 0.0
H2405 H 0.98664 0.97124 0.41536 0.0
C2406 C 0.98262 1.00473 0.37898 0.0
C2407 C 0.98193 0.02432 0.36207 0.0
C2408 C 0.99521 1.01085 0.40619 0.0
C2409 C 0.99474 0.05005 0.37286 0.0
C2410 C 1.00722 0.05628 0.39981 0.0
C2411 C 0.01841 0.04325 0.4446 0.0
C2412 C 0.01829 0.02372 0.46172 0.0
C2413 C 1.00715 0.03696 0.41693 0.0
C2414 C 1.0071 0.99777 0.45033 0.0
C2415 C 0.99556 0.99143 0.42311 0.0
H2416 H 0.32669 0.6945 0.66691 0.0
H2417 H 0.24291 0.67068 0.64717 0.0
H2418 H 0.23752 0.70315 0.68334 0.0
H2419 H 0.25711 0.74123 0.71752 0.0
H2420 H 0.34068 0.76145 0.74099 0.0
H2421 H 0.346 0.72786 0.70602 0.0
C2422 C 0.30735 0.69592 0.67131 0.0
C2423 C 0.28523 0.68037 0.65498 0.0
C2424 C 0.30447 0.71441 0.69214 0.0
C2425 C 0.26012 0.6823 0.66018 0.0
C2426 C 0.25706 0.70109 0.68045 0.0
C2427 C 0.27637 0.73802 0.71496 0.0
C2428 C 0.29846 0.75359 0.73133 0.0
C2429 C 0.27913 0.71778 0.69597 0.0
C2430 C 0.32345 0.74951 0.72827 0.0
C2431 C 0.32649 0.7303 0.70849 0.0
H2432 H 0.63711 0.06963 0.8146 0.0
H2433 H 0.70674 0.08219 0.87303 0.0
H2434 H 0.68194 0.09243 0.90922 0.0
H2435 H 0.64232 0.10349 0.92298 0.0
H2436 H 0.5733 0.09293 0.86446 0.0
H2437 H 0.59639 0.07666 0.82914 0.0
C2438 C 0.64683 0.07411 0.83529 0.0
C2439 C 0.67382 0.07556 0.84107 0.0
C2440 C 0.63277 0.08092 0.85576 0.0
C2441 C 0.68603 0.08123 0.86802 0.0
C2442 C 0.67192 0.08723 0.88868 0.0
C2443 C 0.63221 0.09719 0.9026 0.0
C2444 C 0.60632 0.09961 0.89616 0.0
C2445 C 0.64558 0.08808 0.88258 0.0
C2446 C 0.59344 0.09168 0.86966 0.0
C2447 C 0.60653 0.08221 0.84959 0.0
H2448 H 0.30545 0.39083 0.15033 0.0
H2449 H 0.3186 0.32043 0.10815 0.0
H2450 H 0.31505 0.29945 0.14878 0.0
H2451 H 0.309 0.30072 0.19701 0.0
H2452 H 0.29103 0.36913 0.23828 0.0
H2453 H 0.29609 0.39088 0.19818 0.0
C2454 C 0.30755 0.3709 0.14997 0.0
C2455 C 0.31251 0.35749 0.12572 0.0
C2456 C 0.30468 0.35837 0.17363 0.0
C2457 C 0.31479 0.33148 0.1261 0.0
C2458 C 0.31278 0.31936 0.14954 0.0
C2459 C 0.30558 0.32018 0.19726 0.0
C2460 C 0.29939 0.33289 0.22126 0.0
C2461 C 0.30772 0.3325 0.17352 0.0
C2462 C 0.29584 0.35852 0.22061 0.0
C2463 C 0.29872 0.3711 0.19745 0.0
H2464 H 0.23928 0.94434 0.01919 0.0
H2465 H 0.27267 0.02331 1.0074 0.0
H2466 H 0.23753 0.03824 0.02717 0.0
H2467 H 0.2008 0.02974 0.0523 0.0
H2468 H 0.16557 0.95081 0.06245 0.0
H2469 H 0.19891 0.93509 0.03962 0.0
C2470 C 0.23869 0.96477 0.02061 0.0
C2471 C 0.25883 0.98275 0.01232 0.0
C2472 C 0.21862 0.97331 0.03227 0.0
C2473 C 0.25753 1.00906 0.0138 0.0
C2474 C 0.23756 0.01768 0.02529 0.0
C2475 C 0.19988 1.00899 0.04899 0.0
C2476 C 0.18074 0.9915 0.0592 0.0
C2477 C 0.21853 1.00008 0.0353 0.0
C2478 C 0.18041 0.96476 0.05529 0.0
C2479 C 0.19927 0.95574 0.04199 0.0
H2480 H 0.66875 0.67001 1.00466 0.0
H2481 H 0.72303 0.63277 0.04686 0.0
H2482 H 0.68704 0.598 0.05389 0.0
H2483 H 0.63964 0.57853 0.04946 0.0
H2484 H 0.58534 0.61524 1.00611 0.0
H2485 H 0.6213 0.64932 0.99841 0.0
C2486 C 0.67262 0.65422 0.01529 0.0
C2487 C 0.69866 0.65385 0.02482 0.0
C2488 C 0.65164 0.63405 0.01929 0.0
C2489 C 0.70326 0.63332 0.03882 0.0
C2490 C 0.68262 0.61344 0.04301 0.0
C2491 C 0.63561 0.59383 0.03816 0.0
C2492 C 0.60945 0.5941 0.02871 0.0
C2493 C 0.65664 0.61358 0.03346 0.0
C2494 C 0.60499 0.61436 0.01409 0.0
C2495 C 0.62568 0.63402 0.00954 0.0
H2496 H 0.71661 0.51942 0.31337 0.0
H2497 H 0.63417 0.48491 0.29244 0.0
H2498 H 0.64417 0.44241 0.27974 0.0
H2499 H 0.6764 0.41548 0.27428 0.0
H2500 H 0.75895 0.45247 0.28895 0.0
H2501 H 0.74862 0.49327 0.30536 0.0
C2502 C 0.70073 0.50267 0.30604 0.0
C2503 C 0.67462 0.50544 0.30393 0.0
C2504 C 0.70665 0.4786 0.29792 0.0
C2505 C 0.65442 0.48341 0.29422 0.0
C2506 C 0.66015 0.4591 0.287 0.0
C2507 C 0.69232 0.4324 0.28049 0.0
C2508 C 0.7186 0.43022 0.28022 0.0
C2509 C 0.68625 0.45651 0.28857 0.0
C2510 C 0.73858 0.45273 0.28938 0.0
C2511 C 0.7327 0.47642 0.2985 0.0
H2512 H 0.90219 0.44552 0.49949 0.0
H2513 H 0.879 0.50228 0.55395 0.0
H2514 H 0.92375 0.52865 0.56261 0.0
H2515 H 0.96746 0.5385 0.54916 0.0
H2516 H 0.98983 0.48387 0.49164 0.0
H2517 H 0.94761 0.45328 0.48976 0.0
C2518 C 0.90721 0.46355 0.5134 0.0
C2519 C 0.88764 0.47275 0.5253 0.0
C2520 C 0.93274 0.47878 0.51771 0.0
C2521 C 0.89397 0.4956 0.54391 0.0
C2522 C 0.91946 0.51048 0.549 0.0
C2523 C 0.96323 0.51948 0.537 0.0
C2524 C 0.98131 0.51289 0.52089 0.0
C2525 C 0.93873 0.50273 0.53523 0.0
C2526 C 0.97594 0.48876 0.5045 0.0
C2527 C 0.95186 0.4715 0.50327 0.0
H2528 H 0.32885 0.06921 0.30091 0.0
H2529 H 0.40524 0.11452 0.3361 0.0
H2530 H 0.39663 0.15182 0.3148 0.0
H2531 H 0.36866 0.16995 0.28286 0.0
H2532 H 0.29318 0.1235 0.24623 0.0
H2533 H 0.30034 0.08763 0.27073 0.0
C2534 C 0.34331 0.08742 0.30449 0.0
C2535 C 0.3675 0.0893 0.32016 0.0
C2536 C 0.3387 0.10814 0.29116 0.0
C2537 C 0.38638 0.11285 0.32419 0.0
C2538 C 0.38159 0.13399 0.3118 0.0
C2539 C 0.35401 0.15181 0.28015 0.0
C2540 C 0.3307 0.14889 0.26259 0.0
C2541 C 0.35816 0.13154 0.29453 0.0
C2542 C 0.3114 0.12576 0.25951 0.0
C2543 C 0.3154 0.10545 0.27363 0.0
H2544 H 0.31403 0.12783 0.52674 0.0
H2545 H 0.34775 0.21043 0.54115 0.0
H2546 H 0.39133 0.20172 0.55183 0.0
H2547 H 0.41972 0.17056 0.55628 0.0
H2548 H 0.38455 0.08808 0.5463 0.0
H2549 H 0.3419 0.09698 0.53363 0.0
C2550 C 0.33086 0.14402 0.53223 0.0
C2551 C 0.32752 0.16981 0.53301 0.0
C2552 C 0.35572 0.13887 0.53875 0.0
C2553 C 0.34965 0.19043 0.54047 0.0
C2554 C 0.3746 0.18542 0.54646 0.0
C2555 C 0.40281 0.1544 0.55181 0.0
C2556 C 0.40591 0.12853 0.55225 0.0
C2557 C 0.37787 0.15969 0.54563 0.0
C2558 C 0.3834 0.10812 0.54558 0.0
C2559 C 0.35874 0.1132 0.53863 0.0
H2560 H 0.67562 0.66695 0.33551 0.0
H2561 H 0.70516 0.61492 0.28148 0.0
H2562 H 0.73977 0.65091 0.27413 0.0
H2563 H 0.76134 0.69764 0.28215 0.0
H2564 H 0.73378 0.7493 0.33874 0.0
H2565 H 0.69923 0.71344 0.34589 0.0
C2566 C 0.68966 0.6636 0.32215 0.0
C2567 C 0.68789 0.63823 0.30921 0.0
C2568 C 0.71004 0.68446 0.31841 0.0
C2569 C 0.70624 0.63421 0.29191 0.0
C2570 C 0.72605 0.65482 0.28764 0.0
C2571 C 0.7481 0.70106 0.29636 0.0
C2572 C 0.75044 0.72645 0.30973 0.0
C2573 C 0.72823 0.6801 0.30077 0.0
C2574 C 0.73262 0.73021 0.32786 0.0
C2575 C 0.71268 0.70961 0.33202 0.0
H2576 H 0.89724 0.44145 0.83984 0.0
H2577 H 0.84092 0.46512 0.78479 0.0
H2578 H 0.81506 0.42038 0.7746 0.0
H2579 H 0.8068 0.37534 0.78427 0.0
H2580 H 0.86222 0.35144 0.84004 0.0
H2581 H 0.8906 0.3953 0.84687 0.0
C2582 C 0.87927 0.43661 0.82569 0.0
C2583 C 0.87014 0.45634 0.81396 0.0
C2584 C 0.86466 0.41089 0.81991 0.0
C2585 C 0.84747 0.45014 0.7949 0.0
C2586 C 0.83292 0.42462 0.78884 0.0
C2587 C 0.82548 0.37974 0.79729 0.0
C2588 C 0.83295 0.36059 0.81129 0.0
C2589 C 0.84108 0.40497 0.80161 0.0
C2590 C 0.85665 0.36613 0.82872 0.0
C2591 C 0.87264 0.39115 0.8328 0.0
H2592 H 0.05514 0.87277 0.05002 0.0
H2593 H 0.09456 0.89929 0.13109 0.0
H2594 H 0.09175 0.94416 0.12544 0.0
H2595 H 0.07683 0.97739 0.09754 0.0
H2596 H 0.04251 0.95034 0.01491 0.0
H2597 H 0.044 0.90589 0.02136 0.0
C2598 C 0.06331 0.8882 0.06665 0.0
C2599 C 0.07509 0.88138 0.09127 0.0
C2600 C 0.06208 0.91475 0.06304 0.0
C2601 C 0.08546 0.90278 0.11188 0.0
C2602 C 0.08372 0.92891 0.10862 0.0
C2603 C 0.06977 0.96195 0.08073 0.0
C2604 C 0.05832 0.96841 0.05564 0.0
C2605 C 0.07194 0.93545 0.0843 0.0
C2606 C 0.04997 0.94704 0.03474 0.0
C2607 C 0.0513 0.92112 0.03836 0.0
H2608 H 0.92176 0.30202 0.93794 0.0
H2609 H 0.95469 0.25074 0.88663 0.0
H2610 H 0.91962 0.24878 0.84968 0.0
H2611 H 0.88081 0.26422 0.83003 0.0
H2612 H 0.84928 0.31727 0.88064 0.0
H2613 H 0.88187 0.31607 0.9188 0.0
C2614 C 0.92105 0.29007 0.91883 0.0
C2615 C 0.9414 0.27677 0.91529 0.0
C2616 C 0.90081 0.28948 0.89706 0.0
C2617 C 0.93971 0.26141 0.89015 0.0
C2618 C 0.91954 0.26033 0.86881 0.0
C2619 C 0.88089 0.27534 0.84947 0.0
C2620 C 0.86167 0.29023 0.85233 0.0
C2621 C 0.90025 0.27479 0.87166 0.0
C2622 C 0.86276 0.30473 0.87783 0.0
C2623 C 0.88175 0.30426 0.89977 0.0
H2624 H 0.59071 0.22935 0.56481 0.0
H2625 H 0.54552 0.22504 0.63083 0.0
H2626 H 0.53509 0.17752 0.62161 0.0
H2627 H 0.5396 0.1358 0.59604 0.0
H2628 H 0.58509 0.1392 0.5303 0.0
H2629 H 0.59443 0.18688 0.53826 0.0
C2630 C 0.57805 0.21815 0.57686 0.0
C2631 C 0.5682 0.23184 0.59816 0.0
C2632 C 0.57235 0.18989 0.57169 0.0
C2633 C 0.55292 0.21595 0.61391 0.0
C2634 C 0.54699 0.18837 0.60869 0.0
C2635 C 0.55131 0.14673 0.58309 0.0
C2636 C 0.56151 0.13272 0.56239 0.0
C2637 C 0.55667 0.17486 0.58778 0.0
C2638 C 0.57713 0.14841 0.54666 0.0
C2639 C 0.58237 0.17614 0.55112 0.0
H2640 H 0.58702 0.83618 0.42622 0.0
H2641 H 0.57033 0.75272 0.42238 0.0
H2642 H 0.60585 0.75067 0.39528 0.0
H2643 H 0.63721 0.77238 0.36678 0.0
H2644 H 0.65355 0.85591 0.37125 0.0
H2645 H 0.62303 0.85832 0.4041 0.0
C2646 C 0.59183 0.81763 0.42032 0.0
C2647 C 0.57618 0.79465 0.42659 0.0
C2648 C 0.61203 0.81663 0.4044 0.0
C2649 C 0.58238 0.77072 0.41838 0.0
C2650 C 0.60247 0.76954 0.40249 0.0
C2651 C 0.63461 0.79111 0.37563 0.0
C2652 C 0.64774 0.814 0.36674 0.0
C2653 C 0.6168 0.79229 0.39452 0.0
C2654 C 0.6439 0.83812 0.37799 0.0
C2655 C 0.6263 0.83945 0.39665 0.0
H2656 H 0.05951 0.27118 0.4376 0.0
H2657 H 0.04411 0.2351 0.35453 0.0
H2658 H 0.0356 0.19197 0.3692 0.0
H2659 H 0.03095 0.16456 0.40551 0.0
H2660 H 0.04279 0.20105 0.48846 0.0
H2661 H 0.05504 0.2437 0.47392 0.0
C2662 C 0.05454 0.2539 0.42265 0.0
C2663 C 0.05254 0.25649 0.39492 0.0
C2664 C 0.04911 0.22912 0.43125 0.0
C2665 C 0.04582 0.23378 0.37595 0.0
C2666 C 0.04092 0.20908 0.38436 0.0
C2667 C 0.03594 0.18176 0.42054 0.0
C2668 C 0.03571 0.17916 0.44821 0.0
C2669 C 0.04216 0.2065 0.41196 0.0
C2670 C 0.04306 0.20199 0.46713 0.0
C2671 C 0.04985 0.22658 0.45878 0.0
H2672 H 0.61958 0.25813 0.27367 0.0
H2673 H 0.62235 0.28403 0.1957 0.0
H2674 H 0.67013 0.29418 0.2038 0.0
H2675 H 0.71268 0.29539 0.23246 0.0
H2676 H 0.71045 0.26693 0.3092 0.0
H2677 H 0.66261 0.25808 0.30197 0.0
C2678 C 0.63049 0.26616 0.25842 0.0
C2679 C 0.61624 0.27041 0.23391 0.0
C2680 C 0.65889 0.2714 0.2629 0.0
C2681 C 0.63181 0.28044 0.21471 0.0
C2682 C 0.65957 0.28631 0.21936 0.0
C2683 C 0.70192 0.28732 0.24779 0.0
C2684 C 0.71633 0.28197 0.2716 0.0
C2685 C 0.67361 0.28182 0.2433 0.0
C2686 C 0.70091 0.27119 0.29058 0.0
C2687 C 0.67309 0.26619 0.28647 0.0
H2688 H 0.57947 0.93821 0.9021 0.0
H2689 H 0.54741 0.87682 0.94637 0.0
H2690 H 0.54035 0.909 0.98168 0.0
H2691 H 0.54127 0.9549 1.0 0.0
H2692 H 0.57777 0.01678 0.95868 0.0
H2693 H 0.58444 0.98468 0.92303 0.0
C2694 C 0.57123 0.93174 0.91958 0.0
C2695 C 0.56419 0.90444 0.92097 0.0
C2696 C 0.56758 0.95078 0.94069 0.0
C2697 C 0.55344 0.89722 0.94423 0.0
C2698 C 0.54917 0.91583 0.96464 0.0
C2699 C 0.55115 0.96166 0.98362 0.0
C2700 C 0.55868 0.989 0.98275 0.0
C2701 C 0.55594 0.94275 0.96316 0.0
C2702 C 0.57118 0.99636 0.96046 0.0
C2703 C 0.57519 0.97778 0.9398 0.0
H2704 H 0.97048 0.79043 0.78387 0.0
H2705 H 0.94466 0.74336 0.7063 0.0
H2706 H 0.89918 0.74521 0.71093 0.0
H2707 H 0.86491 0.76116 0.73687 0.0
H2708 H 0.89176 0.8049 0.81588 0.0
H2709 H 0.93666 0.80382 0.81045 0.0
C2710 C 0.95512 0.78038 0.76775 0.0
C2711 C 0.96247 0.76669 0.74444 0.0
C2712 C 0.92814 0.78124 0.77073 0.0
C2713 C 0.94097 0.75404 0.72452 0.0
C2714 C 0.91441 0.75519 0.7272 0.0
C2715 C 0.88036 0.77032 0.75318 0.0
C2716 C 0.8734 0.78385 0.77694 0.0
C2717 C 0.90738 0.76881 0.75021 0.0
C2718 C 0.89507 0.79522 0.79707 0.0
C2719 C 0.92139 0.79428 0.79404 0.0
H2720 H 0.08942 0.07634 0.87506 0.0
H2721 H 0.15462 0.04304 0.90047 0.0
H2722 H 0.13739 0.03435 0.94186 0.0
H2723 H 0.10483 0.037 0.97277 0.0
H2724 H 0.0385 0.06874 0.94846 0.0
H2725 H 0.05491 0.07699 0.90589 0.0
C2726 C 0.09969 0.06689 0.88944 0.0
C2727 C 0.1237 0.0607 0.88408 0.0
C2728 C 0.08952 0.06174 0.91407 0.0
C2729 C 0.13642 0.04852 0.90358 0.0
C2730 C 0.12654 0.04343 0.92758 0.0
C2731 C 0.09386 0.04571 0.95822 0.0
C2732 C 0.07036 0.05224 0.96433 0.0
C2733 C 0.10332 0.05021 0.93337 0.0
C2734 C 0.0566 0.06337 0.94471 0.0
C2735 C 0.06604 0.06815 0.92014 0.0
H2736 H 0.84009 0.44549 0.60778 0.0
H2737 H 0.78755 0.37407 0.56854 0.0
H2738 H 0.80177 0.3511 0.60501 0.0
H2739 H 0.83319 0.35034 0.64506 0.0
H2740 H 0.88765 0.42116 0.68213 0.0
H2741 H 0.86889 0.44544 0.64916 0.0
C2742 C 0.83124 0.42504 0.6075 0.0
C2743 C 0.81291 0.41145 0.58544 0.0
C2744 C 0.84039 0.41177 0.62778 0.0
C2745 C 0.80172 0.38494 0.58533 0.0
C2746 C 0.81004 0.37175 0.60601 0.0
C2747 C 0.84076 0.37112 0.64582 0.0
C2748 C 0.86186 0.3841 0.66543 0.0
C2749 C 0.83007 0.38477 0.62676 0.0
C2750 C 0.87158 0.41095 0.66679 0.0
C2751 C 0.86081 0.42476 0.64814 0.0
H2752 H 0.45845 0.01438 0.38136 0.0
H2753 H 0.41431 0.06498 0.41837 0.0
H2754 H 0.44649 0.0748 0.45939 0.0
H2755 H 0.48706 0.06902 0.48409 0.0
H2756 H 0.52833 0.01441 0.4489 0.0
H2757 H 0.4977 1.0067 0.40714 0.0
C2758 C 0.45601 0.02767 0.3984 0.0
C2759 C 0.43438 0.03926 0.39694 0.0
C2760 C 0.47409 0.0326 0.42195 0.0
C2761 C 0.43094 0.05595 0.4192 0.0
C2762 C 0.44932 0.0616 0.44251 0.0
C2763 C 0.48925 0.05521 0.46745 0.0
C2764 C 0.50985 0.04217 0.4697 0.0
C2765 C 0.47095 0.05002 0.44404 0.0
C2766 C 0.51268 0.02475 0.44768 0.0
C2767 C 0.4951 0.02022 0.42387 0.0
H2768 H 0.77317 0.76537 0.11386 0.0
H2769 H 0.77898 0.68692 0.12369 0.0
H2770 H 0.78428 0.69798 0.17265 0.0
H2771 H 0.78711 0.72969 0.21336 0.0
H2772 H 0.77884 0.80758 0.20417 0.0
H2773 H 0.77456 0.79701 0.15505 0.0
C2774 C 0.77577 0.75074 0.12671 0.0
C2775 C 0.77586 0.72528 0.1147 0.0
C2776 C 0.77826 0.75712 0.1553 0.0
C2777 C 0.77886 0.70663 0.132 0.0
C2778 C 0.78189 0.71296 0.16019 0.0
C2779 C 0.7844 0.74443 0.20069 0.0
C2780 C 0.78351 0.76955 0.21289 0.0
C2781 C 0.78158 0.7381 0.17217 0.0
C2782 C 0.77968 0.78811 0.19573 0.0
C2783 C 0.77726 0.78207 0.16745 0.0
H2784 H 0.08146 0.03641 0.71872 0.0
H2785 H 0.14578 0.10168 0.71905 0.0
H2786 H 0.13201 0.10323 0.67137 0.0
H2787 H 0.10235 0.08537 0.62842 0.0
H2788 H 0.04047 0.01758 0.62696 0.0
H2789 H 0.05249 0.01771 0.67529 0.0
C2790 C 0.09238 0.05104 0.70839 0.0
C2791 C 0.11466 0.06898 0.72283 0.0
C2792 C 0.0848 0.05134 0.68034 0.0
C2793 C 0.12865 0.08753 0.70871 0.0
C2794 C 0.12075 0.08848 0.68128 0.0
C2795 C 0.09138 0.07073 0.6387 0.0
C2796 C 0.07033 0.05159 0.62372 0.0
C2797 C 0.09894 0.0704 0.66671 0.0
C2798 C 0.05672 0.03259 0.63763 0.0
C2799 C 0.0636 0.03264 0.66547 0.0
H2800 H 0.82875 0.38958 0.45269 0.0
H2801 H 0.78607 0.43778 0.41076 0.0
H2802 H 0.77838 0.40627 0.36943 0.0
H2803 H 0.78367 0.36493 0.34592 0.0
H2804 H 0.83045 0.31954 0.38735 0.0
H2805 H 0.83622 0.34992 0.42861 0.0
C2806 C 0.81759 0.39307 0.43453 0.0
C2807 C 0.80756 0.41558 0.43468 0.0
C2808 C 0.81388 0.37536 0.41098 0.0
C2809 C 0.79379 0.4204 0.41097 0.0
C2810 C 0.78938 0.40242 0.38747 0.0
C2811 C 0.79519 0.36168 0.3639 0.0
C2812 C 0.80625 0.33972 0.36359 0.0
C2813 C 0.79931 0.3798 0.38732 0.0
C2814 C 0.82122 0.33592 0.38711 0.0
C2815 C 0.82473 0.35341 0.41069 0.0
H2816 H 0.47081 0.03517 0.26521 0.0
H2817 H 0.39493 0.03082 0.22051 0.0
H2818 H 0.40967 0.01415 0.17907 0.0
H2819 H 0.44217 0.99528 0.15722 0.0
H2820 H 0.51641 0.99601 0.2033 0.0
H2821 H 0.50414 0.01925 0.24283 0.0
C2822 C 0.45772 0.0313 0.24626 0.0
C2823 C 0.43184 0.03414 0.24585 0.0
C2824 C 0.4658 0.02033 0.22301 0.0
C2825 C 0.41499 0.02879 0.22124 0.0
C2826 C 0.4233 0.01899 0.19765 0.0
C2827 C 0.45566 1.00072 0.17592 0.0
C2828 C 0.47994 0.99366 0.17765 0.0
C2829 C 0.4483 0.01368 0.19858 0.0
C2830 C 0.49737 1.00078 0.20183 0.0
C2831 C 0.49047 0.01425 0.22428 0.0
H2832 H 0.78299 0.69855 0.9282 0.0
H2833 H 0.76175 0.76272 0.97393 0.0
H2834 H 0.76834 0.78828 0.93628 0.0
H2835 H 0.77924 0.79197 0.88902 0.0
H2836 H 0.80168 0.72707 0.84558 0.0
H2837 H 0.79546 0.70269 0.88331 0.0
C2838 C 0.77974 0.71816 0.9302 0.0
C2839 C 0.77163 0.72837 0.95429 0.0
C2840 C 0.78375 0.7328 0.9085 0.0
C2841 C 0.768 0.75408 0.95601 0.0
C2842 C 0.77171 0.76873 0.93427 0.0
C2843 C 0.78288 0.77254 0.88782 0.0
C2844 C 0.79079 0.76156 0.86383 0.0
C2845 C 0.77946 0.75828 0.91021 0.0
C2846 C 0.79546 0.73629 0.86323 0.0
C2847 C 0.79189 0.72217 0.88499 0.0
H2848 H 0.81783 0.0729 0.05071 0.0
H2849 H 0.85609 0.15429 0.06936 0.0
H2850 H 0.89624 0.14474 0.05516 0.0
H2851 H 0.91677 0.11459 0.02867 0.0
H2852 H 0.87691 0.03379 1.00776 0.0
H2853 H 0.84093 0.04172 0.03145 0.0
C2854 C 0.83522 0.08842 0.05236 0.0
C2855 C 0.83394 0.11427 0.06027 0.0
C2856 C 0.85764 0.08298 0.04303 0.0
C2857 C 0.85664 0.13421 0.06306 0.0
C2858 C 0.87945 0.12883 0.05458 0.0
C2859 C 0.90026 0.09878 0.0296 0.0
C2860 C 0.89899 0.07385 0.01608 0.0
C2861 C 0.87956 0.10354 0.04299 0.0
C2862 C 0.87802 0.05321 0.01788 0.0
C2863 C 0.85751 0.05771 0.03139 0.0
H2864 H 0.41244 0.40946 0.04295 0.0
H2865 H 0.37403 0.46358 0.08314 0.0
H2866 H 0.41241 0.49904 0.08461 0.0
H2867 H 0.45501 0.51578 0.06911 0.0
H2868 H 0.49576 0.4604 0.03507 0.0
H2869 H 0.45844 0.42494 0.03553 0.0
C2870 C 0.41265 0.42896 0.05229 0.0
C2871 C 0.38992 0.43419 0.06163 0.0
C2872 C 0.43495 0.44936 0.0532 0.0
C2873 C 0.39089 0.45931 0.07471 0.0
C2874 C 0.41288 0.47963 0.07561 0.0
C2875 C 0.45568 0.49602 0.06169 0.0
C2876 C 0.47774 0.49122 0.05043 0.0
C2877 C 0.43461 0.47517 0.06375 0.0
C2878 C 0.47867 0.46513 0.04241 0.0
C2879 C 0.45736 0.44459 0.04306 0.0
H2880 H 0.37782 0.56866 0.79038 0.0
H2881 H 0.45582 0.60127 0.77475 0.0
H2882 H 0.44598 0.64474 0.77806 0.0
H2883 H 0.41587 0.67362 0.78814 0.0
H2884 H 0.3392 0.63989 0.80697 0.0
H2885 H 0.34783 0.59669 0.79889 0.0
C2886 C 0.39284 0.58516 0.7876 0.0
C2887 C 0.41775 0.58154 0.78262 0.0
C2888 C 0.3872 0.60999 0.78999 0.0
C2889 C 0.43655 0.60332 0.77863 0.0
C2890 C 0.43092 0.62822 0.78065 0.0
C2891 C 0.40101 0.65691 0.79068 0.0
C2892 C 0.37682 0.66047 0.79838 0.0
C2893 C 0.40643 0.63185 0.78684 0.0
C2894 C 0.35778 0.63819 0.80072 0.0
C2895 C 0.36282 0.61332 0.79638 0.0
H2896 H 0.19289 0.64154 0.54619 0.0
H2897 H 0.22125 0.5828 0.58569 0.0
H2898 H 0.17705 0.55525 0.57912 0.0
H2899 H 0.1307 0.54809 0.56199 0.0
H2900 H 0.10159 0.60885 0.52664 0.0
H2901 H 0.1459 0.63503 0.53059 0.0
C2902 C 0.18919 0.62266 0.55321 0.0
C2903 C 0.20995 0.61351 0.56539 0.0
C2904 C 0.16384 0.60717 0.54959 0.0
C2905 C 0.20532 0.58955 0.57534 0.0
C2906 C 0.18017 0.57393 0.57171 0.0
C2907 C 0.13403 0.56695 0.55491 0.0
C2908 C 0.11295 0.57626 0.54339 0.0
C2909 C 0.15935 0.58246 0.55859 0.0
C2910 C 0.11757 0.60089 0.53474 0.0
C2911 C 0.14286 0.61608 0.53741 0.0
H2912 H 0.76988 0.026 0.79833 0.0
H2913 H 0.69133 0.9883 0.76088 0.0
H2914 H 0.69703 0.94736 0.77588 0.0
H2915 H 0.72232 0.92401 0.80461 0.0
H2916 H 0.79994 0.9627 0.84358 0.0
H2917 H 0.79646 1.00176 0.82323 0.0
C2918 C 0.75408 1.00876 0.7931 0.0
C2919 C 0.73002 1.01034 0.77909 0.0
C2920 C 0.75712 0.98566 0.80256 0.0
C2921 C 0.71 0.98768 0.77188 0.0
C2922 C 0.71313 0.96432 0.78067 0.0
C2923 C 0.73837 0.94108 0.80864 0.0
C2924 C 0.76113 0.94083 0.82586 0.0
C2925 C 0.7362 0.96343 0.79697 0.0
C2926 C 0.78217 0.96266 0.83047 0.0
C2927 C 0.78021 0.98491 0.81885 0.0
H2928 H 0.75008 0.92099 0.50132 0.0
H2929 H 0.76103 0.93421 0.58815 0.0
H2930 H 0.72785 0.96055 0.5872 0.0
H2931 H 0.70147 0.98601 0.56114 0.0
H2932 H 0.69379 0.97439 0.47424 0.0
H2933 H 0.71956 0.94118 0.47557 0.0
C2934 C 0.74437 0.92876 0.52004 0.0
C2935 C 0.75771 0.92538 0.54477 0.0
C2936 C 0.72624 0.94476 0.51922 0.0
C2937 C 0.7506 0.93599 0.56889 0.0
C2938 C 0.73196 0.95148 0.56829 0.0
C2939 C 0.70499 0.97571 0.54257 0.0
C2940 C 0.69594 0.98275 0.51759 0.0
C2941 C 0.72051 0.95696 0.54354 0.0
C2942 C 0.70074 0.96943 0.49365 0.0
C2943 C 0.71548 0.95045 0.49442 0.0
H2944 H 0.3801 0.44684 0.74568 0.0
H2945 H 0.44146 0.43489 0.8037 0.0
H2946 H 0.41362 0.39374 0.811 0.0
H2947 H 0.37004 0.36392 0.80449 0.0
H2948 H 0.31062 0.37213 0.7423 0.0
H2949 H 0.33871 0.41274 0.7339 0.0
C2950 C 0.3874 0.43502 0.75969 0.0
C2951 C 0.41246 0.44425 0.77487 0.0
C2952 C 0.37137 0.4111 0.76341 0.0
C2953 C 0.42208 0.42839 0.79221 0.0
C2954 C 0.40612 0.40492 0.79644 0.0
C2955 C 0.36361 0.37393 0.7884 0.0
C2956 C 0.3382 0.36492 0.77412 0.0
C2957 C 0.38048 0.39644 0.7827 0.0
C2958 C 0.32977 0.37898 0.75411 0.0
C2959 C 0.34604 0.40198 0.74899 0.0
H2960 H 0.20354 0.65478 0.27642 0.0
H2961 H 0.26159 0.62216 0.24009 0.0
H2962 H 0.28972 0.66573 0.24287 0.0
H2963 H 0.29869 0.71269 0.25862 0.0
H2964 H 0.23775 0.74531 0.28928 0.0
H2965 H 0.21031 0.70209 0.28713 0.0
C2966 C 0.22235 0.65739 0.2691 0.0
C2967 C 0.23132 0.63569 0.25932 0.0
C2968 C 0.23814 0.68231 0.27061 0.0
C2969 C 0.25507 0.6389 0.24879 0.0
C2970 C 0.27101 0.66369 0.25026 0.0
C2971 C 0.27945 0.71032 0.2649 0.0
C2972 C 0.27084 0.73212 0.27559 0.0
C2973 C 0.26303 0.68547 0.26185 0.0
C2974 C 0.24554 0.72879 0.28278 0.0
C2975 C 0.22954 0.70409 0.2809 0.0
H2976 H 0.49432 0.67839 0.45681 0.0
H2977 H 0.53854 0.72838 0.52744 0.0
H2978 H 0.54935 0.69052 0.54597 0.0
H2979 H 0.54667 0.64176 0.54327 0.0
H2980 H 0.5006 0.59187 0.47343 0.0
H2981 H 0.49057 0.62972 0.45473 0.0
C2982 C 0.50633 0.68129 0.47631 0.0
C2983 C 0.51541 0.70748 0.49022 0.0
C2984 C 0.51236 0.65865 0.48757 0.0
C2985 C 0.53088 0.70938 0.51566 0.0
C2986 C 0.53723 0.6873 0.5265 0.0
C2987 C 0.53442 0.63888 0.52392 0.0
C2988 C 0.52456 0.61263 0.51031 0.0
C2989 C 0.52817 0.66157 0.51284 0.0
C2990 C 0.50861 0.61082 0.48516 0.0
C2991 C 0.50281 0.63293 0.47413 0.0
H2992 H 0.68392 0.30994 0.64834 0.0
H2993 H 0.6404 0.33529 0.70978 0.0
H2994 H 0.67634 0.33584 0.7446 0.0
H2995 H 0.71991 0.3283 0.75873 0.0
H2996 H 0.76524 0.30479 0.69869 0.0
H2997 H 0.72992 0.30531 0.66306 0.0
C2998 C 0.68236 0.31588 0.66928 0.0
C2999 C 0.65882 0.32246 0.67589 0.0
C3000 C 0.70369 0.31639 0.68992 0.0
C3001 C 0.65778 0.33006 0.70349 0.0
C3002 C 0.67852 0.33035 0.72373 0.0
C3003 C 0.72199 0.32249 0.73809 0.0
C3004 C 0.74516 0.3149 0.73225 0.0
C3005 C 0.70146 0.3232 0.71736 0.0
C3006 C 0.74764 0.30975 0.70458 0.0
C3007 C 0.72725 0.31013 0.68389 0.0
H3008 H 0.98136 0.37389 0.98775 0.0
H3009 H 0.06264 0.37081 0.99591 0.0
H3010 H 0.07509 0.41761 0.01243 0.0
H3011 H 0.06345 0.46109 0.02189 0.0
H3012 H 0.98226 0.464 0.01479 0.0
H3013 H 0.9696 0.41685 1.0009 0.0
C3014 C 1.00183 0.38314 0.99388 0.0
C3015 C 0.02089 0.36769 0.99114 0.0
C3016 C 1.00904 0.41077 1.00329 0.0
C3017 C 0.04726 0.38117 0.99853 0.0
C3018 C 0.05447 0.40837 1.00768 0.0
C3019 C 0.0429 0.45154 0.01751 0.0
C3020 C 0.02388 0.46713 0.01971 0.0
C3021 C 0.03564 0.42367 0.00972 0.0
C3022 C 0.9975 0.45341 0.01386 0.0
C3023 C 0.99022 0.42605 1.00567 0.0
H3024 H 0.98718 0.81325 0.13612 0.0
H3025 H 0.04093 0.77119 0.17171 0.0
H3026 H 1.01243 0.75948 0.20522 0.0
H3027 H 0.97355 0.76232 0.22589 0.0
H3028 H 0.92072 0.80724 0.19435 0.0
H3029 H 0.9469 0.81601 0.15769 0.0
C3030 C 0.99254 0.80152 0.15122 0.0
C3031 C 0.01645 0.7934 0.15153 0.0
C3032 C 0.97614 0.79526 0.17121 0.0
C3033 C 0.023 0.77812 0.17123 0.0
C3034 C 1.00661 0.77127 0.19038 0.0
C3035 C 0.96773 0.77428 0.21122 0.0
C3036 C 0.94523 0.7844 0.2134 0.0
C3037 C 0.98337 0.78001 0.19085 0.0
C3038 C 0.93778 0.79904 0.19337 0.0
C3039 C 0.95295 0.80428 0.17246 0.0
H3040 H 0.50754 0.32252 0.13955 0.0
H3041 H 0.57357 0.33444 0.20222 0.0
H3042 H 0.59163 0.37663 0.18861 0.0
H3043 H 0.5895 0.40952 0.15811 0.0
H3044 H 0.52207 0.39879 0.09721 0.0
H3045 H 0.50441 0.35647 0.1104 0.0
C3046 C 0.52581 0.33436 0.15045 0.0
C3047 C 0.53905 0.32507 0.17206 0.0
C3048 C 0.53614 0.35874 0.14251 0.0
C3049 C 0.56271 0.34095 0.18576 0.0
C3050 C 0.57318 0.36509 0.17782 0.0
C3051 C 0.57071 0.39829 0.14786 0.0
C3052 C 0.55731 0.40785 0.12651 0.0
C3053 C 0.56015 0.37413 0.15613 0.0
C3054 C 0.5333 0.39217 0.11329 0.0
C3055 C 0.52295 0.36793 0.12106 0.0
H3056 H 0.97106 0.3359 0.37798 0.0
H3057 H 0.99281 0.31987 0.29924 0.0
H3058 H 0.94718 0.31466 0.27876 0.0
H3059 H 0.89901 0.31189 0.28314 0.0
H3060 H 0.87777 0.3218 0.36316 0.0
H3061 H 0.92389 0.33154 0.38256 0.0
C3062 C 0.9661 0.33173 0.35622 0.0
C3063 C 0.98671 0.33024 0.34033 0.0
C3064 C 0.93904 0.32709 0.34457 0.0
C3065 C 0.97862 0.32334 0.31224 0.0
C3066 C 0.95199 0.31967 0.30046 0.0
C3067 C 0.90439 0.31644 0.30483 0.0
C3068 C 0.88399 0.31625 0.32142 0.0
C3069 C 0.93172 0.32132 0.31633 0.0
C3070 C 0.89224 0.32175 0.34954 0.0
C3071 C 0.91897 0.32738 0.3608 0.0
H3072 H 0.03884 0.69853 0.63636 0.0
H3073 H 1.01008 0.65287 0.69661 0.0
H3074 H 1.00924 0.61259 0.66648 0.0
H3075 H 0.0168 0.58991 0.62186 0.0
H3076 H 0.05222 0.63801 0.56628 0.0
H3077 H 0.04991 0.67688 0.59503 0.0
C3078 C 0.03218 0.6798 0.64298 0.0
C3079 C 0.02407 0.67909 0.66881 0.0
C3080 C 0.03265 0.65673 0.62589 0.0
C3081 C 0.01624 0.65435 0.67695 0.0
C3082 C 0.01578 0.63119 0.65958 0.0
C3083 C 0.02388 0.60886 0.61591 0.0
C3084 C 0.03301 0.61034 0.59038 0.0
C3085 C 0.02395 0.632 0.63381 0.0
C3086 C 0.04303 0.63551 0.58419 0.0
C3087 C 0.04232 0.65811 0.60116 0.0
H3088 H 0.63256 0.79712 0.85052 0.0
H3089 H 0.64238 0.8756 0.8318 0.0
H3090 H 0.68474 0.87335 0.81747 0.0
H3091 H 0.72065 0.8491 0.80869 0.0
H3092 H 0.70982 0.77006 0.82566 0.0
H3093 H 0.66806 0.77266 0.841 0.0
C3094 C 0.6438 0.81399 0.84352 0.0
C3095 C 0.63289 0.83686 0.84303 0.0
C3096 C 0.66889 0.81239 0.83426 0.0
C3097 C 0.64897 0.8577 0.83303 0.0
C3098 C 0.67375 0.85639 0.82457 0.0
C3099 C 0.70938 0.83224 0.8157 0.0
C3100 C 0.71977 0.80901 0.81526 0.0
C3101 C 0.68422 0.83383 0.82482 0.0
C3102 C 0.70346 0.78807 0.82479 0.0
C3103 C 0.67908 0.78965 0.83399 0.0
H3104 H 0.44669 0.52417 0.67567 0.0
H3105 H 0.52059 0.52212 0.72071 0.0
H3106 H 0.54152 0.52589 0.68013 0.0
H3107 H 0.53948 0.52941 0.63149 0.0
H3108 H 0.46698 0.53537 0.58643 0.0
H3109 H 0.44527 0.53015 0.62665 0.0
C3110 C 0.46737 0.52456 0.67664 0.0
C3111 C 0.48184 0.52272 0.70171 0.0
C3112 C 0.47975 0.52741 0.65292 0.0
C3113 C 0.50874 0.52353 0.70213 0.0
C3114 C 0.52083 0.52565 0.67873 0.0
C3115 C 0.51899 0.52997 0.63035 0.0
C3116 C 0.50522 0.53314 0.60544 0.0
C3117 C 0.50664 0.52764 0.65396 0.0
C3118 C 0.47844 0.53316 0.60493 0.0
C3119 C 0.4659 0.53016 0.62813 0.0
H3120 H 0.77608 0.20829 0.01319 0.0
H3121 H 0.78161 0.14216 0.95757 0.0
H3122 H 0.77197 0.16511 0.91948 0.0
H3123 H 0.75432 0.20035 0.90247 0.0
H3124 H 0.74467 0.26437 0.95827 0.0
H3125 H 0.76348 0.24572 0.99607 0.0
C3126 C 0.77595 0.19913 0.99278 0.0
C3127 C 0.77918 0.17343 0.98815 0.0
C3128 C 0.76901 0.21181 0.9711 0.0
C3129 C 0.77891 0.16186 0.96159 0.0
C3130 C 0.77322 0.17487 0.93984 0.0
C3131 C 0.75685 0.21045 0.92286 0.0
C3132 C 0.74781 0.23341 0.92778 0.0
C3133 C 0.76696 0.19928 0.9444 0.0
C3134 C 0.75107 0.24637 0.95422 0.0
C3135 C 0.7619 0.2358 0.97573 0.0
H3136 H 0.13684 0.57926 0.19964 0.0
H3137 H 0.16964 0.51779 0.16441 0.0
H3138 H 0.13949 0.51354 0.12218 0.0
H3139 H 0.10223 0.52601 0.09703 0.0
H3140 H 0.07237 0.59013 0.13186 0.0
H3141 H 0.10275 0.59435 0.17319 0.0
C3142 C 0.13738 0.56501 0.18259 0.0
C3143 C 0.1549 0.54859 0.18484 0.0
C3144 C 0.12046 0.56306 0.1587 0.0
C3145 C 0.15606 0.53048 0.16282 0.0
C3146 C 0.13884 0.52804 0.13889 0.0
C3147 C 0.10273 0.54128 0.11338 0.0
C3148 C 0.08507 0.55777 0.11136 0.0
C3149 C 0.12074 0.54406 0.13679 0.0
C3150 C 0.08556 0.57703 0.13303 0.0
C3151 C 0.10299 0.57955 0.1566 0.0
H3152 H 0.84656 0.84719 0.47389 0.0
H3153 H 0.77737 0.87796 0.46235 0.0
H3154 H 0.76919 0.85933 0.41482 0.0
H3155 H 0.78303 0.83718 0.37544 0.0
H3156 H 0.8511 0.80464 0.38563 0.0
H3157 H 0.8583 0.82079 0.43413 0.0
C3158 C 0.82922 0.84901 0.46117 0.0
C3159 C 0.81223 0.86358 0.47215 0.0
C3160 C 0.82473 0.83838 0.43324 0.0
C3161 C 0.79043 0.86645 0.45485 0.0
C3162 C 0.78589 0.85602 0.42745 0.0
C3163 C 0.79953 0.83354 0.38815 0.0
C3164 C 0.81684 0.82001 0.37634 0.0
C3165 C 0.80319 0.84247 0.41623 0.0
C3166 C 0.83763 0.81517 0.3937 0.0
C3167 C 0.8417 0.82442 0.42163 0.0
H3168 H 0.44331 0.52379 0.88201 0.0
H3169 H 0.51318 0.52279 0.84551 0.0
H3170 H 0.5384 0.52666 0.89063 0.0
H3171 H 0.54046 0.53048 0.94146 0.0
H3172 H 0.46883 0.53051 0.97527 0.0
H3173 H 0.4449 0.52668 0.93053 0.0
C3174 C 0.46411 0.5245 0.88358 0.0
C3175 C 0.4761 0.5231 0.85986 0.0
C3176 C 0.47838 0.52647 0.9095 0.0
C3177 C 0.50318 0.52399 0.86307 0.0
C3178 C 0.51765 0.5261 0.88902 0.0
C3179 C 0.51961 0.52951 0.93898 0.0
C3180 C 0.50676 0.53115 0.96222 0.0
C3181 C 0.50547 0.52731 0.91255 0.0
C3182 C 0.47961 0.52971 0.95823 0.0
C3183 C 0.46572 0.52748 0.93246 0.0
H3184 H 0.82425 0.2096 0.14712 0.0
H3185 H 0.74084 0.1797 0.13767 0.0
H3186 H 0.73757 0.20982 0.17691 0.0
H3187 H 0.7584 0.24549 0.21305 0.0
H3188 H 0.84242 0.27011 0.22768 0.0
H3189 H 0.84573 0.24197 0.18671 0.0
C3190 C 0.80552 0.20953 0.15406 0.0
C3191 C 0.78285 0.19264 0.13993 0.0
C3192 C 0.80393 0.22626 0.17709 0.0
C3193 C 0.75855 0.19245 0.14873 0.0
C3194 C 0.75663 0.2098 0.17089 0.0
C3195 C 0.77738 0.24443 0.20727 0.0
C3196 C 0.80012 0.25945 0.22306 0.0
C3197 C 0.77916 0.22694 0.18503 0.0
C3198 C 0.82471 0.25837 0.2156 0.0
C3199 C 0.82659 0.2423 0.19236 0.0
H3200 H 0.13808 0.57091 0.307 0.0
H3201 H 0.20561 0.58937 0.36876 0.0
H3202 H 0.17832 0.59984 0.40259 0.0
H3203 H 0.13621 0.60765 0.41357 0.0
H3204 H 0.06924 0.59003 0.35132 0.0
H3205 H 0.09573 0.57583 0.31845 0.0
C3206 C 0.14691 0.57697 0.32789 0.0
C3207 C 0.17395 0.57964 0.33524 0.0
C3208 C 0.13132 0.58357 0.347 0.0
C3209 C 0.18488 0.58729 0.36249 0.0
C3210 C 0.16932 0.59342 0.38182 0.0
C3211 C 0.12734 0.60037 0.39289 0.0
C3212 C 0.10089 0.60015 0.38478 0.0
C3213 C 0.14267 0.59226 0.37413 0.0
C3214 C 0.0897 0.59089 0.35789 0.0
C3215 C 0.10476 0.58258 0.33916 0.0
H3216 H 0.82057 0.83167 0.62541 0.0
H3217 H 0.80987 0.90859 0.65049 0.0
H3218 H 0.80227 0.89681 0.69517 0.0
H3219 H 0.79801 0.86401 0.72791 0.0
H3220 H 0.81417 0.78898 0.70328 0.0
H3221 H 0.81989 0.80055 0.65879 0.0
C3222 C 0.81653 0.84591 0.64058 0.0
C3223 C 0.81559 0.87105 0.63401 0.0
C3224 C 0.81299 0.83924 0.66687 0.0
C3225 C 0.81072 0.88912 0.65452 0.0
C3226 C 0.80632 0.88233 0.68029 0.0
C3227 C 0.80302 0.85021 0.713 0.0
C3228 C 0.8051 0.82523 0.71969 0.0
C3229 C 0.80736 0.85737 0.6869 0.0
C3230 C 0.81181 0.8081 0.6994 0.0
C3231 C 0.81524 0.81474 0.67357 0.0
H3232 H 0.77517 0.52321 0.51313 0.0
H3233 H 0.73394 0.44455 0.51685 0.0
H3234 H 0.70023 0.46117 0.53821 0.0
H3235 H 0.68603 0.49819 0.56148 0.0
H3236 H 0.73098 0.57627 0.56302 0.0
H3237 H 0.76023 0.55985 0.53443 0.0
C3238 C 0.7587 0.50963 0.5183 0.0
C3239 C 0.75732 0.48271 0.51389 0.0
C3240 C 0.74046 0.51931 0.5321 0.0
C3241 C 0.73557 0.4654 0.52034 0.0
C3242 C 0.71643 0.47489 0.53272 0.0
C3243 C 0.70219 0.51146 0.55531 0.0
C3244 C 0.70678 0.53823 0.56432 0.0
C3245 C 0.71928 0.50179 0.53969 0.0
C3246 C 0.72753 0.55553 0.55641 0.0
C3247 C 0.74407 0.54617 0.54003 0.0
H3248 H 0.20798 0.1403 0.54948 0.0
H3249 H 0.1686 0.1775 0.49088 0.0
H3250 H 0.1276 0.14525 0.49059 0.0
H3251 H 0.10333 0.10557 0.50613 0.0
H3252 H 0.14251 0.07007 0.56683 0.0
H3253 H 0.18315 0.10209 0.56678 0.0
C3254 C 0.19038 0.14131 0.53664 0.0
C3255 C 0.19148 0.16089 0.51967 0.0
C3256 C 0.16686 0.12283 0.53684 0.0
C3257 C 0.16837 0.16244 0.50379 0.0
C3258 C 0.14495 0.14393 0.50362 0.0
C3259 C 0.1207 0.10478 0.51943 0.0
C3260 C 0.11964 0.08497 0.53628 0.0
C3261 C 0.14401 0.12383 0.51985 0.0
C3262 C 0.14256 0.08459 0.55332 0.0
C3263 C 0.16585 0.10315 0.55351 0.0
H3264 H 0.20188 1.00448 0.8348 0.0
H3265 H 0.14825 0.99692 0.7614 0.0
H3266 H 0.16572 0.96099 0.74172 0.0
H3267 H 0.20057 0.93635 0.74296 0.0
H3268 H 0.2553 0.94541 0.81566 0.0
H3269 H 0.2328 0.97582 0.83812 0.0
C3270 C 0.1936 0.99471 0.81464 0.0
C3271 C 0.17394 1.00379 0.79949 0.0
C3272 C 0.20419 0.97448 0.80321 0.0
C3273 C 0.16333 0.99051 0.77357 0.0
C3274 C 0.1735 0.97007 0.7622 0.0
C3275 C 0.20734 0.9447 0.76387 0.0
C3276 C 0.22989 0.9389 0.77748 0.0
C3277 C 0.19462 0.96261 0.77644 0.0
C3278 C 0.23806 0.94947 0.80471 0.0
C3279 C 0.22531 0.96706 0.81748 0.0
H3280 H 0.40429 0.94973 0.9925 0.0
H3281 H 0.38029 1.00147 0.05185 0.0
H3282 H 0.42489 0.028 0.06246 0.0
H3283 H 0.46908 0.03934 0.05061 0.0
H3284 H 0.49227 0.99031 0.98819 0.0
H3285 H 0.44974 0.95949 0.98289 0.0
C3286 C 0.40911 0.96672 1.00784 0.0
C3287 C 0.38943 0.97443 0.02082 0.0
C3288 C 0.43452 0.98216 0.01322 0.0
C3289 C 0.39541 0.99595 0.04114 0.0
C3290 C 0.42079 1.01093 0.0473 0.0
C3291 C 0.46486 0.02149 0.03643 0.0
C3292 C 0.48328 0.01649 0.02006 0.0
C3293 C 0.44026 1.00467 0.03286 0.0
C3294 C 0.47802 0.99394 1.00118 0.0
C3295 C 0.45382 0.97652 0.99808 0.0
H3296 H 0.87701 0.57871 0.77367 0.0
H3297 H 0.85299 0.60033 0.85038 0.0
H3298 H 0.8392 0.63774 0.83331 0.0
H3299 H 0.83399 0.66374 0.79634 0.0
H3300 H 0.85342 0.6382 0.71814 0.0
H3301 H 0.8696 0.60304 0.73631 0.0
C3302 C 0.86903 0.59182 0.78674 0.0
C3303 C 0.8664 0.58724 0.81332 0.0
C3304 C 0.8604 0.61248 0.77654 0.0
C3305 C 0.85535 0.60377 0.82989 0.0
C3306 C 0.84747 0.62503 0.82013 0.0
C3307 C 0.84136 0.6503 0.78308 0.0
C3308 C 0.84258 0.65387 0.75586 0.0
C3309 C 0.84978 0.62946 0.79339 0.0
C3310 C 0.85274 0.63642 0.73927 0.0
C3311 C 0.86181 0.61612 0.74958 0.0
H3312 H 0.8306 0.67156 0.07016 0.0
H3313 H 0.83847 0.66467 0.9856 0.0
H3314 H 0.8735 0.64152 0.99342 0.0
H3315 H 0.89687 0.61708 0.02298 0.0
H3316 H 0.8862 0.62075 0.10677 0.0
H3317 H 0.8578 0.65132 0.10082 0.0
C3318 C 0.84073 0.66587 0.0537 0.0
C3319 C 0.83216 0.67009 0.0274 0.0
C3320 C 0.86006 0.65139 0.05815 0.0
C3321 C 0.84493 0.6619 1.00608 0.0
C3322 C 0.86479 0.6484 0.01049 0.0
C3323 C 0.8888 0.6251 0.04003 0.0
C3324 C 0.89346 0.61653 0.06522 0.0
C3325 C 0.87177 0.64208 0.03623 0.0
C3326 C 0.88268 0.62688 0.08711 0.0
C3327 C 0.86641 0.64435 0.08371 0.0
H3328 H 0.17672 0.16633 0.83573 0.0
H3329 H 0.2101 0.11469 0.78537 0.0
H3330 H 0.2428 0.15156 0.77629 0.0
H3331 H 0.26054 0.19932 0.78037 0.0
H3332 H 0.2287 0.25031 0.83372 0.0
H3333 H 0.19714 0.21344 0.84331 0.0
C3334 C 0.19128 0.1632 0.82295 0.0
C3335 C 0.191 0.13773 0.81144 0.0
C3336 C 0.21039 0.18461 0.81799 0.0
C3337 C 0.21004 0.13405 0.79483 0.0
C3338 C 0.22872 0.1552 0.78947 0.0
C3339 C 0.24715 0.2024 0.79454 0.0
C3340 C 0.24741 0.22798 0.80613 0.0
C3341 C 0.22899 0.18072 0.80068 0.0
C3342 C 0.22925 0.23115 0.82413 0.0
C3343 C 0.21098 0.20993 0.82978 0.0
H3344 H 0.40157 0.94255 0.32702 0.0
H3345 H 0.33944 0.96827 0.28239 0.0
H3346 H 0.31286 0.92374 0.2735 0.0
H3347 H 0.30557 0.87879 0.28346 0.0
H3348 H 0.3676 0.85265 0.32768 0.0
H3349 H 0.39647 0.89603 0.33153 0.0
C3350 C 0.38223 0.93818 0.31532 0.0
C3351 C 0.37159 0.95836 0.30659 0.0
C3352 C 0.36732 0.91263 0.31016 0.0
C3353 C 0.34716 0.95285 0.29043 0.0
C3354 C 0.33219 0.92748 0.28507 0.0
C3355 C 0.32572 0.88258 0.29312 0.0
C3356 C 0.33491 0.86309 0.30503 0.0
C3357 C 0.34177 0.90742 0.29558 0.0
C3358 C 0.36064 0.86771 0.31805 0.0
C3359 C 0.37693 0.89242 0.32046 0.0
H3360 H 0.55464 0.36923 0.54965 0.0
H3361 H 0.59161 0.39608 0.63154 0.0
H3362 H 0.58861 0.44078 0.62546 0.0
H3363 H 0.57449 0.47388 0.59687 0.0
H3364 H 0.54233 0.44647 0.51362 0.0
H3365 H 0.54404 0.40221 0.52047 0.0
C3366 C 0.56226 0.3847 0.56636 0.0
C3367 C 0.57342 0.37802 0.59134 0.0
C3368 C 0.56094 0.41119 0.56252 0.0
C3369 C 0.58304 0.39947 0.61205 0.0
C3370 C 0.58119 0.42551 0.60854 0.0
C3371 C 0.56785 0.45839 0.58004 0.0
C3372 C 0.55706 0.46476 0.55461 0.0
C3373 C 0.57006 0.43194 0.58386 0.0
C3374 C 0.54943 0.44333 0.53366 0.0
C3375 C 0.5508 0.41747 0.53752 0.0
H3376 H 0.44274 0.75821 0.38312 0.0
H3377 H 0.42245 0.79875 0.45368 0.0
H3378 H 0.38249 0.80421 0.42713 0.0
H3379 H 0.35453 0.80008 0.38309 0.0
H3380 H 0.37487 0.75998 0.31233 0.0
H3381 H 0.41271 0.75143 0.33944 0.0
C3382 C 0.42961 0.76831 0.39271 0.0
C3383 C 0.43641 0.7789 0.42042 0.0
C3384 C 0.40645 0.77159 0.37707 0.0
C3385 C 0.4183 0.79086 0.43246 0.0
C3386 C 0.39533 0.79404 0.41715 0.0
C3387 C 0.36718 0.78986 0.37319 0.0
C3388 C 0.36203 0.78223 0.34471 0.0
C3389 C 0.38941 0.78507 0.38922 0.0
C3390 C 0.3787 0.76765 0.33351 0.0
C3391 C 0.40032 0.76231 0.34928 0.0
H3392 H 0.09458 0.73209 0.06248 0.0
H3393 H 0.04618 0.72864 0.12585 0.0
H3394 H 0.03522 0.68109 0.1167 0.0
H3395 H 0.04008 0.63924 0.09202 0.0
H3396 H 0.08984 0.64163 0.02987 0.0
H3397 H 0.09933 0.68938 0.03724 0.0
C3398 C 0.08109 0.72104 0.07389 0.0
C3399 C 0.07034 0.73493 0.09428 0.0
C3400 C 0.07535 0.69282 0.06902 0.0
C3401 C 0.05412 0.71933 0.10948 0.0
C3402 C 0.04798 0.69177 0.10437 0.0
C3403 C 0.05309 0.64999 0.07996 0.0
C3404 C 0.06441 0.63573 0.06045 0.0
C3405 C 0.05859 0.67807 0.08439 0.0
C3406 C 0.0811 0.65109 0.0454 0.0
C3407 C 0.0864 0.67882 0.0495 0.0
H3408 H 0.06945 0.28156 0.88903 0.0
H3409 H 0.09883 0.32009 0.96988 0.0
H3410 H 0.14221 0.33475 0.9564 0.0
H3411 H 0.16988 0.34152 0.9199 0.0
H3412 H 0.13971 0.30302 0.83898 0.0
H3413 H 0.09875 0.28315 0.85423 0.0
C3414 C 0.08553 0.29252 0.90392 0.0
C3415 C 0.08086 0.2996 0.93052 0.0
C3416 C 0.11022 0.30123 0.89583 0.0
C3417 C 0.10193 0.31396 0.94948 0.0
C3418 C 0.12666 0.32265 0.94162 0.0
C3419 C 0.15447 0.32849 0.90565 0.0
C3420 C 0.15789 0.32409 0.87813 0.0
C3421 C 0.13077 0.31719 0.91459 0.0
C3422 C 0.1378 0.30677 0.86017 0.0
C3423 C 0.11424 0.29552 0.86888 0.0
H3424 H 0.55277 0.76913 0.94262 0.0
H3425 H 0.54189 0.73297 0.85981 0.0
H3426 H 0.53142 0.68988 0.87436 0.0
H3427 H 0.52398 0.66253 0.91031 0.0
H3428 H 0.53083 0.69899 0.99277 0.0
H3429 H 0.54506 0.74159 0.97868 0.0
C3430 C 0.54836 0.75183 0.92773 0.0
C3431 C 0.54827 0.75441 0.90007 0.0
C3432 C 0.54171 0.72704 0.93621 0.0
C3433 C 0.54218 0.73168 0.88116 0.0
C3434 C 0.53615 0.70699 0.8895 0.0
C3435 C 0.52821 0.67968 0.92534 0.0
C3436 C 0.52599 0.67704 0.95275 0.0
C3437 C 0.53553 0.70442 0.91695 0.0
C3438 C 0.53256 0.69989 0.97166 0.0
C3439 C 0.54049 0.72448 0.96355 0.0
H3440 H 0.12742 0.78202 0.71542 0.0
H3441 H 0.10265 0.75071 0.78581 0.0
H3442 H 0.14868 0.75473 0.80472 0.0
H3443 H 0.1978 0.76661 0.80122 0.0
H3444 H 0.22077 0.79851 0.73011 0.0
H3445 H 0.17514 0.79462 0.71239 0.0
C3446 C 0.13187 0.77638 0.73516 0.0
C3447 C 0.1105 0.76687 0.74925 0.0
C3448 C 0.15894 0.7786 0.74603 0.0
C3449 C 0.11779 0.75907 0.7745 0.0
C3450 C 0.14455 0.76109 0.7853 0.0
C3451 C 0.19302 0.77264 0.78177 0.0
C3452 C 0.21411 0.78291 0.76735 0.0
C3453 C 0.16563 0.77074 0.7713 0.0
C3454 C 0.20614 0.79063 0.74224 0.0
C3455 C 0.17955 0.78841 0.73185 0.0
H3456 H 0.07606 0.43903 0.39544 0.0
H3457 H 0.0533 0.37819 0.44391 0.0
H3458 H 0.04679 0.41025 0.47971 0.0
H3459 H 0.04542 0.45576 0.49721 0.0
H3460 H 0.07202 0.51707 0.4505 0.0
H3461 H 0.07867 0.48511 0.41491 0.0
C3462 C 0.06999 0.43268 0.41393 0.0
C3463 C 0.06533 0.40568 0.41642 0.0
C3464 C 0.06652 0.45157 0.43508 0.0
C3465 C 0.05736 0.39848 0.44092 0.0
C3466 C 0.05343 0.41697 0.4616 0.0
C3467 C 0.05297 0.46238 0.47952 0.0
C3468 C 0.05759 0.4894 0.47705 0.0
C3469 C 0.05766 0.44364 0.45893 0.0
C3470 C 0.0675 0.49677 0.4534 0.0
C3471 C 0.07154 0.47832 0.43279 0.0
H3472 H 0.46406 0.27719 0.26689 0.0
H3473 H 0.42665 0.24293 0.18631 0.0
H3474 H 0.38517 0.24907 0.19755 0.0
H3475 H 0.35685 0.26489 0.22902 0.0
H3476 H 0.39101 0.29626 0.31064 0.0
H3477 H 0.43398 0.29103 0.30021 0.0
C3478 C 0.44698 0.27067 0.25169 0.0
C3479 C 0.45034 0.25943 0.22511 0.0
C3480 C 0.42137 0.27413 0.25842 0.0
C3481 C 0.42655 0.25175 0.20673 0.0
C3482 C 0.40197 0.25526 0.21316 0.0
C3483 C 0.37346 0.27051 0.24485 0.0
C3484 C 0.36943 0.28174 0.27089 0.0
C3485 C 0.39879 0.2666 0.23879 0.0
C3486 C 0.39238 0.28848 0.29028 0.0
C3487 C 0.41748 0.28509 0.28426 0.0
H3488 H 0.60791 0.59642 0.39144 0.0
H3489 H 0.62468 0.52072 0.37435 0.0
H3490 H 0.60552 0.50709 0.41396 0.0
H3491 H 0.58538 0.51707 0.45524 0.0
H3492 H 0.56665 0.59198 0.47131 0.0
H3493 H 0.58526 0.60552 0.43132 0.0
C3494 C 0.60676 0.57675 0.39601 0.0
C3495 C 0.61728 0.55943 0.37931 0.0
C3496 C 0.59585 0.56904 0.41933 0.0
C3497 C 0.61631 0.53429 0.38632 0.0
C3498 C 0.60556 0.52655 0.40925 0.0
C3499 C 0.58559 0.53642 0.45008 0.0
C3500 C 0.57512 0.55369 0.46682 0.0
C3501 C 0.59562 0.54383 0.42626 0.0
C3502 C 0.57488 0.57841 0.45917 0.0
C3503 C 0.58545 0.58613 0.43612 0.0
H3504 H 0.33671 0.94518 0.10629 0.0
H3505 H 0.29578 0.87164 0.0598 0.0
H3506 H 0.3096 0.8486 0.09623 0.0
H3507 H 0.33784 0.84909 0.13886 0.0
H3508 H 0.37932 0.92234 0.18491 0.0
H3509 H 0.36099 0.94593 0.15098 0.0
C3510 C 0.3303 0.92416 0.10436 0.0
C3511 C 0.31551 0.91012 0.08026 0.0
C3512 C 0.33892 0.91101 0.12505 0.0
C3513 C 0.30726 0.88291 0.07812 0.0
C3514 C 0.31535 0.86969 0.09884 0.0
C3515 C 0.34263 0.87022 0.14137 0.0
C3516 C 0.3601 0.88416 0.16379 0.0
C3517 C 0.33198 0.88348 0.12191 0.0
C3518 C 0.36609 0.91144 0.16744 0.0
C3519 C 0.35557 0.92483 0.14816 0.0
H3520 H 0.95197 0.51406 0.8852 0.0
H3521 H 0.90963 0.56685 0.92143 0.0
H3522 H 0.94208 0.57655 0.96244 0.0
H3523 H 0.98296 0.5704 0.98701 0.0
H3524 H 0.02219 0.51392 0.95167 0.0
H3525 H 0.9907 0.50572 0.91072 0.0
C3526 C 0.94994 0.52777 0.90208 0.0
C3527 C 0.92889 0.54012 0.90038 0.0
C3528 C 0.96816 0.5327 0.92546 0.0
C3529 C 0.92588 0.55729 0.92246 0.0
C3530 C 0.94442 0.56286 0.94573 0.0
C3531 C 0.98456 0.55621 0.97043 0.0
C3532 C 1.00498 0.54287 0.97239 0.0
C3533 C 0.96574 0.55077 0.94733 0.0
C3534 C 1.00682 0.52463 0.95064 0.0
C3535 C 0.98874 0.51979 0.92727 0.0
H3536 H 0.24313 0.21337 0.62132 0.0
H3537 H 0.30489 0.27191 0.60092 0.0
H3538 H 0.31355 0.29353 0.64775 0.0
H3539 H 0.30407 0.29573 0.69547 0.0
H3540 H 0.24205 0.23731 0.71543 0.0
H3541 H 0.23258 0.21648 0.66834 0.0
C3542 C 0.25848 0.23089 0.62706 0.0
C3543 C 0.27335 0.24083 0.60725 0.0
C3544 C 0.26309 0.24361 0.6542 0.0
C3545 C 0.29298 0.26375 0.61538 0.0
C3546 C 0.29797 0.27618 0.64232 0.0
C3547 C 0.28823 0.27866 0.68939 0.0
C3548 C 0.27352 0.26837 0.70913 0.0
C3549 C 0.28316 0.26639 0.66202 0.0
C3550 C 0.25347 0.24588 0.70081 0.0
C3551 C 0.24817 0.23382 0.67379 0.0
H3552 H 0.57647 0.56028 0.22173 0.0
H3553 H 0.65607 0.55927 0.21092 0.0
H3554 H 0.64435 0.55442 0.16198 0.0
H3555 H 0.61168 0.55156 0.12152 0.0
H3556 H 0.5324 0.55415 0.13249 0.0
H3557 H 0.54383 0.55765 0.18126 0.0
C3558 C 0.59122 0.55881 0.20869 0.0
C3559 C 0.61719 0.56005 0.22036 0.0
C3560 C 0.58443 0.55653 0.18021 0.0
C3561 C 0.63596 0.55841 0.20282 0.0
C3562 C 0.62927 0.55565 0.17465 0.0
C3563 C 0.59683 0.55267 0.13452 0.0
C3564 C 0.57107 0.55236 0.12289 0.0
C3565 C 0.60359 0.55485 0.16299 0.0
C3566 C 0.55238 0.55431 0.14048 0.0
C3567 C 0.55888 0.55625 0.16858 0.0
H3568 H 0.3322 0.89501 0.94782 0.0
H3569 H 0.28376 0.93934 0.90753 0.0
H3570 H 0.27521 0.90688 0.86671 0.0
H3571 H 0.28072 0.86503 0.84369 0.0
H3572 H 0.33155 0.82303 0.88479 0.0
H3573 H 0.33967 0.85546 0.92453 0.0
C3574 C 0.31964 0.89749 0.93012 0.0
C3575 C 0.30814 0.91901 0.93059 0.0
C3576 C 0.31515 0.87916 0.90713 0.0
C3577 C 0.2926 0.92265 0.90744 0.0
C3578 C 0.28769 0.90412 0.88429 0.0
C3579 C 0.29355 0.86302 0.86136 0.0
C3580 C 0.3052 0.84146 0.86145 0.0
C3581 C 0.29867 0.88213 0.88407 0.0
C3582 C 0.32197 0.83918 0.88435 0.0
C3583 C 0.3268 0.85779 0.90705 0.0
H3584 H 0.90186 0.50138 0.72557 0.0
H3585 H 0.97454 0.54842 0.76928 0.0
H3586 H 0.99773 0.53636 0.73227 0.0
H3587 H 0.99793 0.50915 0.68937 0.0
H3588 H 0.92566 0.46114 0.64646 0.0
H3589 H 0.90158 0.47676 0.68147 0.0
C3590 C 0.92268 0.50941 0.72679 0.0
C3591 C 0.93651 0.52561 0.75017 0.0
C3592 C 0.93598 0.50181 0.70584 0.0
C3593 C 0.96348 0.53585 0.75148 0.0
C3594 C 0.97678 0.52882 0.73043 0.0
C3595 C 0.97689 0.50222 0.68784 0.0
C3596 C 0.96342 0.48385 0.66596 0.0
C3597 C 0.96335 0.51121 0.70792 0.0
C3598 C 0.93623 0.47506 0.66356 0.0
C3599 C 0.92255 0.48404 0.68339 0.0
H3600 H 0.26127 0.25268 0.45524 0.0
H3601 H 0.28545 0.18219 0.42899 0.0
H3602 H 0.2941 0.19752 0.38658 0.0
H3603 H 0.29452 0.2306 0.35528 0.0
H3604 H 0.27088 0.3014 0.38107 0.0
H3605 H 0.2625 0.28641 0.42396 0.0
C3606 C 0.26865 0.24075 0.44042 0.0
C3607 C 0.27247 0.21604 0.44598 0.0
C3608 C 0.27365 0.2497 0.41526 0.0
C3609 C 0.28195 0.20113 0.42585 0.0
C3610 C 0.287 0.2099 0.40124 0.0
C3611 C 0.28748 0.24277 0.3702 0.0
C3612 C 0.28348 0.26727 0.36437 0.0
C3613 C 0.28276 0.23406 0.39543 0.0
C3614 C 0.27438 0.28253 0.38449 0.0
C3615 C 0.26952 0.27394 0.40933 0.0
H3616 H 0.33409 0.57857 0.56955 0.0
H3617 H 0.36206 0.65966 0.56329 0.0
H3618 H 0.40008 0.64983 0.54397 0.0
H3619 H 0.41946 0.6167 0.5202 0.0
H3620 H 0.38649 0.53519 0.52194 0.0
H3621 H 0.35635 0.54651 0.55161 0.0
C3622 C 0.34905 0.59415 0.56485 0.0
C3623 C 0.34537 0.61959 0.56733 0.0
C3624 C 0.36952 0.58809 0.55216 0.0
C3625 C 0.36478 0.63987 0.56155 0.0
C3626 C 0.38615 0.63417 0.55002 0.0
C3627 C 0.40572 0.60151 0.52721 0.0
C3628 C 0.40502 0.57519 0.51868 0.0
C3629 C 0.38773 0.60812 0.54366 0.0
C3630 C 0.38755 0.55562 0.52833 0.0
C3631 C 0.37023 0.56203 0.54527 0.0
H3632 H 0.89304 0.96369 0.58038 0.0
H3633 H 0.90381 0.89875 0.52685 0.0
H3634 H 0.94514 0.92493 0.5176 0.0
H3635 H 0.97582 0.96744 0.5215 0.0
H3636 H 0.96847 0.03088 0.57917 0.0
H3637 H 0.92749 1.00482 0.58896 0.0
C3638 C 0.90463 0.95529 0.56689 0.0
C3639 C 0.89505 0.92962 0.55356 0.0
C3640 C 0.92858 0.97043 0.56192 0.0
C3641 C 0.91059 0.91859 0.53691 0.0
C3642 C 0.93415 0.93361 0.53154 0.0
C3643 C 0.9657 0.97548 0.53666 0.0
C3644 C 0.97529 1.00147 0.54916 0.0
C3645 C 0.94296 0.95976 0.54336 0.0
C3646 C 0.96121 0.01152 0.56828 0.0
C3647 C 0.93802 0.99631 0.57441 0.0
H3648 H 0.88467 0.07311 0.30067 0.0
H3649 H 0.96032 0.10256 0.27736 0.0
H3650 H 0.95095 0.14621 0.279 0.0
H3651 H 0.92168 0.17612 0.28904 0.0
H3652 H 0.84728 0.14523 0.31465 0.0
H3653 H 0.85571 0.10184 0.30941 0.0
C3654 C 0.89934 0.08895 0.29594 0.0
C3655 C 0.92342 0.08447 0.28925 0.0
C3656 C 0.89391 0.11377 0.29714 0.0
C3657 C 0.94171 0.10536 0.28269 0.0
C3658 C 0.93634 0.13034 0.28369 0.0
C3659 C 0.90732 0.15996 0.29362 0.0
C3660 C 0.88376 0.16427 0.30225 0.0
C3661 C 0.9126 0.13483 0.29127 0.0
C3662 C 0.86531 0.14278 0.30749 0.0
C3663 C 0.87023 0.11786 0.3048 0.0
H3664 H 0.70988 0.09873 0.07508 0.0
H3665 H 0.68962 0.15903 0.03183 0.0
H3666 H 0.64294 0.13897 0.02956 0.0
H3667 H 0.60872 0.10427 0.04025 0.0
H3668 H 0.62949 0.041 0.07813 0.0
H3669 H 0.67561 0.06278 0.08328 0.0
C3670 C 0.69517 0.10709 0.06467 0.0
C3671 C 0.70274 0.12954 0.05266 0.0
C3672 C 0.66879 0.09517 0.06292 0.0
C3673 C 0.68386 0.14128 0.04056 0.0
C3674 C 0.65736 0.12988 0.03931 0.0
C3675 C 0.62331 0.09475 0.04858 0.0
C3676 C 0.61574 0.07076 0.0579 0.0
C3677 C 0.64971 0.10667 0.0502 0.0
C3678 C 0.63485 0.05933 0.07034 0.0
C3679 C 0.66119 0.07177 0.07336 0.0
H3680 H 0.26842 0.51738 0.28538 0.0
H3681 H 0.18519 0.4854 0.27256 0.0
H3682 H 0.19234 0.44521 0.28887 0.0
H3683 H 0.22213 0.42232 0.31302 0.0
H3684 H 0.3049 0.45733 0.32895 0.0
H3685 H 0.29805 0.49323 0.30508 0.0
C3686 C 0.25184 0.50144 0.28575 0.0
C3687 C 0.22635 0.50442 0.27843 0.0
C3688 C 0.25602 0.47916 0.29612 0.0
C3689 C 0.20503 0.4835 0.27829 0.0
C3690 C 0.2091 0.4607 0.2879 0.0
C3691 C 0.23858 0.43786 0.31124 0.0
C3692 C 0.2639 0.43736 0.32296 0.0
C3693 C 0.23445 0.45886 0.29802 0.0
C3694 C 0.28522 0.45723 0.32 0.0
C3695 C 0.28134 0.47781 0.30644 0.0
H3696 H 0.24798 0.42313 0.99627 0.0
H3697 H 0.25379 0.41813 0.08145 0.0
H3698 H 0.2217 0.44522 0.086 0.0
H3699 H 0.19809 0.47675 0.06685 0.0
H3700 H 0.19455 0.48273 0.98194 0.0
H3701 H 0.21944 0.44893 0.97605 0.0
C3702 C 0.24145 0.42715 0.01565 0.0
C3703 C 0.25322 0.41853 0.03847 0.0
C3704 C 0.2238 0.44351 0.01822 0.0
C3705 C 0.24475 0.4241 0.06349 0.0
C3706 C 0.22672 0.44002 0.06616 0.0
C3707 C 0.20223 0.47006 0.047 0.0
C3708 C 0.19453 0.48213 0.0248 0.0
C3709 C 0.21703 0.45082 0.04388 0.0
C3710 C 0.20022 0.47362 0.99922 0.0
C3711 C 0.21452 0.45437 0.99589 0.0
H3712 H 0.92823 0.93225 0.30692 0.0
H3713 H 0.88216 0.95597 0.24217 0.0
H3714 H 0.84762 0.91659 0.24017 0.0
H3715 H 0.82936 0.87591 0.25861 0.0
H3716 H 0.87168 0.85845 0.32984 0.0
H3717 H 0.90873 0.89382 0.32734 0.0
C3718 C 0.91075 0.92853 0.29219 0.0
C3719 C 0.90769 0.94695 0.27476 0.0
C3720 C 0.89029 0.90656 0.2922 0.0
C3721 C 0.88489 0.94205 0.25585 0.0
C3722 C 0.86507 0.91958 0.25478 0.0
C3723 C 0.84665 0.88005 0.27364 0.0
C3724 C 0.84847 0.86346 0.29344 0.0
C3725 C 0.86725 0.9019 0.27326 0.0
C3726 C 0.8707 0.86948 0.31314 0.0
C3727 C 0.89175 0.8901 0.31199 0.0
H3728 H 0.75014 0.13395 0.74839 0.0
H3729 H 0.68605 0.15341 0.78582 0.0
H3730 H 0.70663 0.1999 0.79 0.0
H3731 H 0.74394 0.23415 0.78497 0.0
H3732 H 0.81095 0.21401 0.75385 0.0
H3733 H 0.78748 0.16853 0.74343 0.0
C3734 C 0.74094 0.14848 0.7577 0.0
C3735 C 0.71744 0.14072 0.76792 0.0
C3736 C 0.7532 0.17481 0.76071 0.0
C3737 C 0.70464 0.15933 0.77857 0.0
C3738 C 0.71635 0.18573 0.78093 0.0
C3739 C 0.75386 0.21973 0.7771 0.0
C3740 C 0.77958 0.22724 0.77168 0.0
C3741 C 0.74096 0.19356 0.77275 0.0
C3742 C 0.7914 0.2086 0.7591 0.0
C3743 C 0.77799 0.18263 0.75302 0.0
loop_
_geom_bond_atom_site_label_1
_geom_bond_atom_site_label_2
_geom_bond_distance
_geom_bond_site_symmetry_2
_ccdc_geom_bond_type
Mn0 O5 2.095 . S
Mn0 O15 2.162 . S
Mn0 O16 2.297 . S
Mn0 O24 2.385 1_455 S
Mn0 O25 2.209 . S
Mn0 O26 2.094 . S
Mn1 O6 2.121 . S
Mn1 N8 2.257 . S
Mn1 N17 2.282 . S
Mn1 O25 2.215 . S
Mn1 O27 2.117 . S
C2 O24 1.234 1_455 S
C2 O25 1.283 . S
C3 O15 1.281 . S
C3 O16 1.236 . S
C4 O26 1.240 . S
C4 O27 1.264 . S
O5 Mn0 2.095 . S
O5 C14 1.250 . S
O6 Mn1 2.121 . S
O6 C14 1.258 . S
C7 N8 1.326 . S
C7 C11 1.460 . S
C7 H13 0.929 . S
N8 Mn1 2.257 . S
N8 C7 1.326 . S
N8 C12 1.362 . S
C9 C10 1.258 1_655 S
C9 C12 1.431 1_655 S
C9 C29 1.449 . S
C10 C9 1.258 1_455 S
C10 C11 1.477 . S
C10 H30 0.931 1_455 S
C11 C7 1.460 . S
C11 C10 1.477 . S
C11 H31 0.930 . S
C12 N8 1.362 . S
C12 C9 1.431 1_455 S
C12 C22 1.476 1_455 S
H13 C7 0.929 . S
C14 O5 1.250 . S
C14 O6 1.258 . S
O15 Mn0 2.162 . S
O15 C3 1.281 . S
O16 Mn0 2.297 . S
O16 C3 1.236 . S
N17 Mn1 2.282 . S
N17 C18 1.328 1_455 S
N17 C22 1.318 1_455 S
C18 N17 1.328 1_655 S
C18 C19 1.457 . S
C18 H23 0.929 1_655 S
C19 C18 1.457 . S
C19 C20 1.291 . S
C19 H32 0.931 . S
C20 C19 1.291 . S
C20 C21 1.373 . S
C20 H33 0.929 . S
C21 C20 1.373 . S
C21 C22 1.396 . S
C21 C28 1.403 . S
C22 C12 1.476 1_655 S
C22 N17 1.318 1_655 S
C22 C21 1.396 . S
H23 C18 0.929 1_455 S
O24 Mn0 2.385 1_655 S
O24 C2 1.234 1_655 S
O25 Mn0 2.209 . S
O25 Mn1 2.215 . S
O25 C2 1.283 . S
O26 Mn0 2.094 . S
O26 C4 1.240 . S
O27 Mn1 2.117 . S
O27 C4 1.264 . S
C28 C21 1.403 . S
C28 C29 1.399 . S
C28 H34 0.929 . S
C29 C9 1.449 . S
C29 C28 1.399 . S
C29 H35 0.930 . S
H30 C10 0.931 1_655 S
H31 C11 0.930 . S
H32 C19 0.931 . S
H33 C20 0.929 . S
H34 C28 0.929 . S
H35 C29 0.930 . S
Mn36 O41 2.095 1_455 S
Mn36 O51 2.162 . S
Mn36 O52 2.297 . S
Mn36 O60 2.385 . S
Mn36 O61 2.209 . S
Mn36 O62 2.094 . S
Mn37 O42 2.121 1_455 S
Mn37 N44 2.257 . S
Mn37 N53 2.282 . S
Mn37 O61 2.215 . S
Mn37 O63 2.117 . S
C38 O60 1.234 . S
C38 O61 1.283 . S
C39 O51 1.281 . S
C39 O52 1.236 . S
C40 O62 1.240 . S
C40 O63 1.264 . S
O41 Mn36 2.095 1_655 S
O41 C50 1.250 . S
O42 Mn37 2.121 1_655 S
O42 C50 1.258 . S
C43 N44 1.326 . S
C43 C47 1.460 . S
C43 H49 0.929 . S
N44 Mn37 2.257 . S
N44 C43 1.326 . S
N44 C48 1.362 . S
C45 C46 1.258 . S
C45 C48 1.431 . S
C45 C65 1.449 . S
C46 C45 1.258 . S
C46 C47 1.477 . S
C46 H66 0.931 . S
C47 C43 1.460 . S
C47 C46 1.477 . S
C47 H67 0.930 . S
C48 N44 1.362 . S
C48 C45 1.431 . S
C48 C58 1.476 . S
H49 C43 0.929 . S
C50 O41 1.250 . S
C50 O42 1.258 . S
O51 Mn36 2.162 . S
O51 C39 1.281 . S
O52 Mn36 2.297 . S
O52 C39 1.236 . S
N53 Mn37 2.282 . S
N53 C54 1.328 . S
N53 C58 1.318 . S
C54 N53 1.328 . S
C54 C55 1.457 . S
C54 H59 0.929 . S
C55 C54 1.457 . S
C55 C56 1.291 . S
C55 H68 0.931 . S
C56 C55 1.291 . S
C56 C57 1.373 . S
C56 H69 0.929 . S
C57 C56 1.373 . S
C57 C58 1.396 . S
C57 C64 1.403 . S
C58 C48 1.476 . S
C58 N53 1.318 . S
C58 C57 1.396 . S
H59 C54 0.929 . S
O60 Mn36 2.385 . S
O60 C38 1.234 . S
O61 Mn36 2.209 . S
O61 Mn37 2.215 . S
O61 C38 1.283 . S
O62 Mn36 2.094 . S
O62 C40 1.240 . S
O63 Mn37 2.117 . S
O63 C40 1.264 . S
C64 C57 1.403 . S
C64 C65 1.399 . S
C64 H70 0.929 . S
C65 C45 1.449 . S
C65 C64 1.399 . S
C65 H71 0.930 . S
H66 C46 0.931 . S
H67 C47 0.930 . S
H68 C55 0.931 . S
H69 C56 0.929 . S
H70 C64 0.929 . S
H71 C65 0.930 . S
Mn72 O77 2.095 . S
Mn72 O87 2.162 . S
Mn72 O88 2.297 . S
Mn72 O96 2.385 . S
Mn72 O97 2.209 . S
Mn72 O98 2.094 . S
Mn73 O78 2.121 . S
Mn73 N80 2.257 . S
Mn73 N89 2.282 . S
Mn73 O97 2.215 . S
Mn73 O99 2.117 . S
C74 O96 1.234 . S
C74 O97 1.283 . S
C75 O87 1.281 . S
C75 O88 1.236 . S
C76 O98 1.240 . S
C76 O99 1.264 . S
O77 Mn72 2.095 . S
O77 C86 1.250 . S
O78 Mn73 2.121 . S
O78 C86 1.258 . S
C79 N80 1.326 . S
C79 C83 1.460 . S
C79 H85 0.929 . S
N80 Mn73 2.257 . S
N80 C79 1.326 . S
N80 C84 1.362 . S
C81 C82 1.258 . S
C81 C84 1.431 . S
C81 C101 1.449 . S
C82 C81 1.258 . S
C82 C83 1.477 . S
C82 H102 0.931 . S
C83 C79 1.460 . S
C83 C82 1.477 . S
C83 H103 0.930 . S
C84 N80 1.362 . S
C84 C81 1.431 . S
C84 C94 1.476 . S
H85 C79 0.929 . S
C86 O77 1.250 . S
C86 O78 1.258 . S
O87 Mn72 2.162 . S
O87 C75 1.281 . S
O88 Mn72 2.297 . S
O88 C75 1.236 . S
N89 Mn73 2.282 . S
N89 C90 1.328 . S
N89 C94 1.318 . S
C90 N89 1.328 . S
C90 C91 1.457 . S
C90 H95 0.929 . S
C91 C90 1.457 . S
C91 C92 1.291 . S
C91 H104 0.931 . S
C92 C91 1.291 . S
C92 C93 1.373 . S
C92 H105 0.929 . S
C93 C92 1.373 . S
C93 C94 1.396 . S
C93 C100 1.403 . S
C94 C84 1.476 . S
C94 N89 1.318 . S
C94 C93 1.396 . S
H95 C90 0.929 . S
O96 Mn72 2.385 . S
O96 C74 1.234 . S
O97 Mn72 2.209 . S
O97 Mn73 2.215 . S
O97 C74 1.283 . S
O98 Mn72 2.094 . S
O98 C76 1.240 . S
O99 Mn73 2.117 . S
O99 C76 1.264 . S
C100 C93 1.403 . S
C100 C101 1.399 . S
C100 H106 0.929 . S
C101 C81 1.449 . S
C101 C100 1.399 . S
C101 H107 0.930 . S
H102 C82 0.931 . S
H103 C83 0.930 . S
H104 C91 0.931 . S
H105 C92 0.929 . S
H106 C100 0.929 . S
H107 C101 0.930 . S
Mn108 O113 2.095 . S
Mn108 O123 2.162 . S
Mn108 O124 2.297 . S
Mn108 O132 2.385 . S
Mn108 O133 2.209 . S
Mn108 O134 2.094 . S
Mn109 O114 2.121 . S
Mn109 N116 2.257 . S
Mn109 N125 2.282 . S
Mn109 O133 2.215 . S
Mn109 O135 2.117 . S
C110 O132 1.234 . S
C110 O133 1.283 . S
C111 O123 1.281 . S
C111 O124 1.236 . S
C112 O134 1.240 . S
C112 O135 1.264 . S
O113 Mn108 2.095 . S
O113 C122 1.250 . S
O114 Mn109 2.121 . S
O114 C122 1.258 . S
C115 N116 1.326 . S
C115 C119 1.460 . S
C115 H121 0.929 . S
N116 Mn109 2.257 . S
N116 C115 1.326 . S
N116 C120 1.362 . S
C117 C118 1.258 . S
C117 C120 1.431 . S
C117 C137 1.449 . S
C118 C117 1.258 . S
C118 C119 1.477 . S
C118 H138 0.931 . S
C119 C115 1.460 . S
C119 C118 1.477 . S
C119 H139 0.930 . S
C120 N116 1.362 . S
C120 C117 1.431 . S
C120 C130 1.476 . S
H121 C115 0.929 . S
C122 O113 1.250 . S
C122 O114 1.258 . S
O123 Mn108 2.162 . S
O123 C111 1.281 . S
O124 Mn108 2.297 . S
O124 C111 1.236 . S
N125 Mn109 2.282 . S
N125 C126 1.328 . S
N125 C130 1.318 . S
C126 N125 1.328 . S
C126 C127 1.457 . S
C126 H131 0.929 . S
C127 C126 1.457 . S
C127 C128 1.291 . S
C127 H140 0.931 . S
C128 C127 1.291 . S
C128 C129 1.373 . S
C128 H141 0.929 . S
C129 C128 1.373 . S
C129 C130 1.396 . S
C129 C136 1.403 . S
C130 C120 1.476 . S
C130 N125 1.318 . S
C130 C129 1.396 . S
H131 C126 0.929 . S
O132 Mn108 2.385 . S
O132 C110 1.234 . S
O133 Mn108 2.209 . S
O133 Mn109 2.215 . S
O133 C110 1.283 . S
O134 Mn108 2.094 . S
O134 C112 1.240 . S
O135 Mn109 2.117 . S
O135 C112 1.264 . S
C136 C129 1.403 . S
C136 C137 1.399 . S
C136 H142 0.929 . S
C137 C117 1.449 . S
C137 C136 1.399 . S
C137 H143 0.930 . S
H138 C118 0.931 . S
H139 C119 0.930 . S
H140 C127 0.931 . S
H141 C128 0.929 . S
H142 C136 0.929 . S
H143 C137 0.930 . S
Mn144 O149 2.095 . S
Mn144 O159 2.162 . S
Mn144 O160 2.297 . S
Mn144 O168 2.385 . S
Mn144 O169 2.209 . S
Mn144 O170 2.094 . S
Mn145 O150 2.121 . S
Mn145 N152 2.257 . S
Mn145 N161 2.276 1_455 S
Mn145 O169 2.215 . S
Mn145 O171 2.117 . S
C146 O168 1.234 . S
C146 O169 1.283 . S
C147 O159 1.281 . S
C147 O160 1.236 . S
C148 O170 1.240 . S
C148 O171 1.264 . S
O149 Mn144 2.095 . S
O149 C158 1.250 . S
O150 Mn145 2.121 . S
O150 C158 1.258 . S
C151 N152 1.326 . S
C151 C155 1.460 1_554 S
C151 H157 0.929 . S
N152 Mn145 2.257 . S
N152 C151 1.326 . S
N152 C156 1.362 . S
C153 C154 1.258 . S
C153 C156 1.431 1_556 S
C153 C173 1.449 1_455 S
C154 C153 1.258 . S
C154 C155 1.477 . S
C154 H174 0.931 . S
C155 C151 1.460 1_556 S
C155 C154 1.477 . S
C155 H175 0.930 . S
C156 N152 1.362 . S
C156 C153 1.431 1_554 S
C156 C166 1.476 1_455 S
H157 C151 0.929 . S
C158 O149 1.250 . S
C158 O150 1.258 . S
O159 Mn144 2.162 . S
O159 C147 1.281 . S
O160 Mn144 2.297 . S
O160 C147 1.236 . S
N161 Mn145 2.276 1_655 S
N161 C162 1.335 . S
N161 C166 1.315 . S
C162 N161 1.335 . S
C162 C163 1.457 . S
C162 H167 0.929 . S
C163 C162 1.457 . S
C163 C164 1.291 . S
C163 H176 0.931 . S
C164 C163 1.291 . S
C164 C165 1.373 . S
C164 H177 0.929 . S
C165 C164 1.373 . S
C165 C166 1.396 . S
C165 C172 1.403 . S
C166 C156 1.476 1_655 S
C166 N161 1.315 . S
C166 C165 1.396 . S
H167 C162 0.929 . S
O168 Mn144 2.385 . S
O168 C146 1.234 . S
O169 Mn144 2.209 . S
O169 Mn145 2.215 . S
O169 C146 1.283 . S
O170 Mn144 2.094 . S
O170 C148 1.240 . S
O171 Mn145 2.117 . S
O171 C148 1.264 . S
C172 C165 1.403 . S
C172 C173 1.399 1_554 S
C172 H178 0.929 1_554 S
C173 C153 1.449 1_655 S
C173 C172 1.399 1_556 S
C173 H179 0.930 . S
H174 C154 0.931 . S
H175 C155 0.930 . S
H176 C163 0.931 . S
H177 C164 0.929 . S
H178 C172 0.929 1_556 S
H179 C173 0.930 . S
Mn180 O185 2.095 . S
Mn180 O195 2.162 . S
Mn180 O196 2.297 . S
Mn180 O204 2.385 . S
Mn180 O205 2.209 . S
Mn180 O206 2.094 . S
Mn181 O186 2.121 . S
Mn181 N188 2.257 . S
Mn181 N197 2.282 . S
Mn181 O205 2.215 . S
Mn181 O207 2.117 . S
C182 O204 1.234 . S
C182 O205 1.283 . S
C183 O195 1.281 . S
C183 O196 1.236 . S
C184 O206 1.240 . S
C184 O207 1.264 . S
O185 Mn180 2.095 . S
O185 C194 1.250 . S
O186 Mn181 2.121 . S
O186 C194 1.258 . S
C187 N188 1.326 . S
C187 C191 1.460 . S
C187 H193 0.929 . S
N188 Mn181 2.257 . S
N188 C187 1.326 . S
N188 C192 1.362 . S
C189 C190 1.258 . S
C189 C192 1.431 . S
C189 C209 1.449 . S
C190 C189 1.258 . S
C190 C191 1.477 . S
C190 H210 0.931 . S
C191 C187 1.460 . S
C191 C190 1.477 . S
C191 H211 0.930 . S
C192 N188 1.362 . S
C192 C189 1.431 . S
C192 C202 1.476 . S
H193 C187 0.929 . S
C194 O185 1.250 . S
C194 O186 1.258 . S
O195 Mn180 2.162 . S
O195 C183 1.281 . S
O196 Mn180 2.297 . S
O196 C183 1.236 . S
N197 Mn181 2.282 . S
N197 C198 1.328 . S
N197 C202 1.318 . S
C198 N197 1.328 . S
C198 C199 1.457 . S
C198 H203 0.929 . S
C199 C198 1.457 . S
C199 C200 1.291 . S
C199 H212 0.931 . S
C200 C199 1.291 . S
C200 C201 1.373 . S
C200 H213 0.929 . S
C201 C200 1.373 . S
C201 C202 1.396 . S
C201 C208 1.403 . S
C202 C192 1.476 . S
C202 N197 1.318 . S
C202 C201 1.396 . S
H203 C198 0.929 . S
O204 Mn180 2.385 . S
O204 C182 1.234 . S
O205 Mn180 2.209 . S
O205 Mn181 2.215 . S
O205 C182 1.283 . S
O206 Mn180 2.094 . S
O206 C184 1.240 . S
O207 Mn181 2.117 . S
O207 C184 1.264 . S
C208 C201 1.403 . S
C208 C209 1.399 . S
C208 H214 0.929 . S
C209 C189 1.449 . S
C209 C208 1.399 . S
C209 H215 0.930 . S
H210 C190 0.931 . S
H211 C191 0.930 . S
H212 C199 0.931 . S
H213 C200 0.929 . S
H214 C208 0.929 . S
H215 C209 0.930 . S
Mn216 O221 2.095 . S
Mn216 O231 2.162 . S
Mn216 O232 2.297 . S
Mn216 O240 2.385 . S
Mn216 O241 2.209 . S
Mn216 O242 2.094 . S
Mn217 O222 2.121 . S
Mn217 N224 2.257 . S
Mn217 N233 2.282 . S
Mn217 O241 2.215 . S
Mn217 O243 2.117 . S
C218 O240 1.234 . S
C218 O241 1.283 . S
C219 O231 1.281 . S
C219 O232 1.236 . S
C220 O242 1.240 . S
C220 O243 1.264 . S
O221 Mn216 2.095 . S
O221 C230 1.250 . S
O222 Mn217 2.121 . S
O222 C230 1.258 . S
C223 N224 1.326 . S
C223 C227 1.460 . S
C223 H229 0.929 . S
N224 Mn217 2.257 . S
N224 C223 1.326 . S
N224 C228 1.362 . S
C225 C226 1.258 . S
C225 C228 1.431 . S
C225 C245 1.449 . S
C226 C225 1.258 . S
C226 C227 1.477 . S
C226 H246 0.931 . S
C227 C223 1.460 . S
C227 C226 1.477 . S
C227 H247 0.930 . S
C228 N224 1.362 . S
C228 C225 1.431 . S
C228 C238 1.476 . S
H229 C223 0.929 . S
C230 O221 1.250 . S
C230 O222 1.258 . S
O231 Mn216 2.162 . S
O231 C219 1.281 . S
O232 Mn216 2.297 . S
O232 C219 1.236 . S
N233 Mn217 2.282 . S
N233 C234 1.328 . S
N233 C238 1.318 . S
C234 N233 1.328 . S
C234 C235 1.457 . S
C234 H239 0.929 . S
C235 C234 1.457 . S
C235 C236 1.291 . S
C235 H248 0.931 . S
C236 C235 1.291 . S
C236 C237 1.373 . S
C236 H249 0.929 . S
C237 C236 1.373 . S
C237 C238 1.396 . S
C237 C244 1.403 . S
C238 C228 1.476 . S
C238 N233 1.318 . S
C238 C237 1.396 . S
H239 C234 0.929 . S
O240 Mn216 2.385 . S
O240 C218 1.234 . S
O241 Mn216 2.209 . S
O241 Mn217 2.215 . S
O241 C218 1.283 . S
O242 Mn216 2.094 . S
O242 C220 1.240 . S
O243 Mn217 2.117 . S
O243 C220 1.264 . S
C244 C237 1.403 . S
C244 C245 1.399 . S
C244 H250 0.929 . S
C245 C225 1.449 . S
C245 C244 1.399 . S
C245 H251 0.930 . S
H246 C226 0.931 . S
H247 C227 0.930 . S
H248 C235 0.931 . S
H249 C236 0.929 . S
H250 C244 0.929 . S
H251 C245 0.930 . S
Mn252 O257 2.085 1_655 S
Mn252 O267 2.160 1_655 S
Mn252 O268 2.296 . S
Mn252 O276 2.396 . S
Mn252 O277 2.213 . S
Mn252 O278 2.095 1_655 S
Mn253 O258 2.121 1_655 S
Mn253 N260 2.257 . S
Mn253 N269 2.282 . S
Mn253 O277 2.215 . S
Mn253 O279 2.117 1_655 S
C254 O276 1.234 . S
C254 O277 1.283 . S
C255 O267 1.281 1_655 S
C255 O268 1.236 . S
C256 O278 1.240 . S
C256 O279 1.264 . S
O257 Mn252 2.085 1_455 S
O257 C266 1.250 . S
O258 Mn253 2.121 1_455 S
O258 C266 1.258 . S
C259 N260 1.326 . S
C259 C263 1.460 . S
C259 H265 0.929 1_655 S
N260 Mn253 2.257 . S
N260 C259 1.326 . S
N260 C264 1.362 . S
C261 C262 1.258 . S
C261 C264 1.431 . S
C261 C281 1.449 . S
C262 C261 1.258 . S
C262 C263 1.477 . S
C262 H282 0.931 . S
C263 C259 1.460 . S
C263 C262 1.477 . S
C263 H283 0.930 . S
C264 N260 1.362 . S
C264 C261 1.431 . S
C264 C274 1.476 . S
H265 C259 0.929 1_455 S
C266 O257 1.250 . S
C266 O258 1.258 . S
O267 Mn252 2.160 1_455 S
O267 C255 1.281 1_455 S
O268 Mn252 2.296 . S
O268 C255 1.236 . S
N269 Mn253 2.282 . S
N269 C270 1.328 . S
N269 C274 1.318 . S
C270 N269 1.328 . S
C270 C271 1.457 . S
C270 H275 0.929 . S
C271 C270 1.457 . S
C271 C272 1.291 . S
C271 H284 0.931 . S
C272 C271 1.291 . S
C272 C273 1.373 . S
C272 H285 0.929 . S
C273 C272 1.373 . S
C273 C274 1.396 . S
C273 C280 1.403 . S
C274 C264 1.476 . S
C274 N269 1.318 . S
C274 C273 1.396 . S
H275 C270 0.929 . S
O276 Mn252 2.396 . S
O276 C254 1.234 . S
O277 Mn252 2.213 . S
O277 Mn253 2.215 . S
O277 C254 1.283 . S
O278 Mn252 2.095 1_455 S
O278 C256 1.240 . S
O279 Mn253 2.117 1_455 S
O279 C256 1.264 . S
C280 C273 1.403 . S
C280 C281 1.399 . S
C280 H286 0.929 . S
C281 C261 1.449 . S
C281 C280 1.399 . S
C281 H287 0.930 . S
H282 C262 0.931 . S
H283 C263 0.930 . S
H284 C271 0.931 . S
H285 C272 0.929 . S
H286 C280 0.929 . S
H287 C281 0.930 . S
Mn288 O293 2.095 . S
Mn288 O303 2.162 . S
Mn288 O304 2.297 . S
Mn288 O312 2.385 1_545 S
Mn288 O313 2.209 1_545 S
Mn288 O314 2.094 . S
Mn289 O294 2.121 . S
Mn289 N296 2.257 1_545 S
Mn289 N305 2.282 1_545 S
Mn289 O313 2.215 1_545 S
Mn289 O315 2.117 . S
C290 O312 1.234 . S
C290 O313 1.283 . S
C291 O303 1.281 . S
C291 O304 1.236 . S
C292 O314 1.240 . S
C292 O315 1.264 . S
O293 Mn288 2.095 . S
O293 C302 1.250 . S
O294 Mn289 2.121 . S
O294 C302 1.258 . S
C295 N296 1.326 . S
C295 C299 1.460 . S
C295 H301 0.929 1_565 S
N296 Mn289 2.257 1_565 S
N296 C295 1.326 . S
N296 C300 1.362 . S
C297 C298 1.258 . S
C297 C300 1.431 . S
C297 C317 1.449 . S
C298 C297 1.258 . S
C298 C299 1.477 . S
C298 H318 0.931 . S
C299 C295 1.460 . S
C299 C298 1.477 . S
C299 H319 0.930 . S
C300 N296 1.362 . S
C300 C297 1.431 . S
C300 C310 1.476 . S
H301 C295 0.929 1_545 S
C302 O293 1.250 . S
C302 O294 1.258 . S
O303 Mn288 2.162 . S
O303 C291 1.281 . S
O304 Mn288 2.297 . S
O304 C291 1.236 . S
N305 Mn289 2.282 1_565 S
N305 C306 1.328 . S
N305 C310 1.318 . S
C306 N305 1.328 . S
C306 C307 1.457 . S
C306 H311 0.929 . S
C307 C306 1.457 . S
C307 C308 1.291 . S
C307 H320 0.931 . S
C308 C307 1.291 . S
C308 C309 1.373 . S
C308 H321 0.929 . S
C309 C308 1.373 . S
C309 C310 1.396 . S
C309 C316 1.403 . S
C310 C300 1.476 . S
C310 N305 1.318 . S
C310 C309 1.396 . S
H311 C306 0.929 . S
O312 Mn288 2.385 1_565 S
O312 C290 1.234 . S
O313 Mn288 2.209 1_565 S
O313 Mn289 2.215 1_565 S
O313 C290 1.283 . S
O314 Mn288 2.094 . S
O314 C292 1.240 . S
O315 Mn289 2.117 . S
O315 C292 1.264 . S
C316 C309 1.403 . S
C316 C317 1.399 . S
C316 H322 0.929 . S
C317 C297 1.449 . S
C317 C316 1.399 . S
C317 H323 0.930 . S
H318 C298 0.931 . S
H319 C299 0.930 . S
H320 C307 0.931 . S
H321 C308 0.929 . S
H322 C316 0.929 . S
H323 C317 0.930 . S
Mn324 O329 2.095 . S
Mn324 O339 2.162 . S
Mn324 O340 2.297 . S
Mn324 O348 2.385 . S
Mn324 O349 2.209 . S
Mn324 O350 2.094 . S
Mn325 O330 2.121 . S
Mn325 N332 2.257 . S
Mn325 N341 2.282 . S
Mn325 O349 2.215 . S
Mn325 O351 2.117 . S
C326 O348 1.234 . S
C326 O349 1.283 . S
C327 O339 1.281 . S
C327 O340 1.236 . S
C328 O350 1.240 . S
C328 O351 1.264 . S
O329 Mn324 2.095 . S
O329 C338 1.250 . S
O330 Mn325 2.121 . S
O330 C338 1.258 . S
C331 N332 1.326 . S
C331 C335 1.460 . S
C331 H337 0.929 . S
N332 Mn325 2.257 . S
N332 C331 1.326 . S
N332 C336 1.362 . S
C333 C334 1.258 . S
C333 C336 1.431 . S
C333 C353 1.449 . S
C334 C333 1.258 . S
C334 C335 1.477 . S
C334 H354 0.931 . S
C335 C331 1.460 . S
C335 C334 1.477 . S
C335 H355 0.930 . S
C336 N332 1.362 . S
C336 C333 1.431 . S
C336 C346 1.476 . S
H337 C331 0.929 . S
C338 O329 1.250 . S
C338 O330 1.258 . S
O339 Mn324 2.162 . S
O339 C327 1.281 . S
O340 Mn324 2.297 . S
O340 C327 1.236 . S
N341 Mn325 2.282 . S
N341 C342 1.328 . S
N341 C346 1.318 . S
C342 N341 1.328 . S
C342 C343 1.457 . S
C342 H347 0.929 . S
C343 C342 1.457 . S
C343 C344 1.291 . S
C343 H356 0.931 . S
C344 C343 1.291 . S
C344 C345 1.373 . S
C344 H357 0.929 . S
C345 C344 1.373 . S
C345 C346 1.396 . S
C345 C352 1.403 . S
C346 C336 1.476 . S
C346 N341 1.318 . S
C346 C345 1.396 . S
H347 C342 0.929 . S
O348 Mn324 2.385 . S
O348 C326 1.234 . S
O349 Mn324 2.209 . S
O349 Mn325 2.215 . S
O349 C326 1.283 . S
O350 Mn324 2.094 . S
O350 C328 1.240 . S
O351 Mn325 2.117 . S
O351 C328 1.264 . S
C352 C345 1.403 . S
C352 C353 1.399 . S
C352 H358 0.929 . S
C353 C333 1.449 . S
C353 C352 1.399 . S
C353 H359 0.930 . S
H354 C334 0.931 . S
H355 C335 0.930 . S
H356 C343 0.931 . S
H357 C344 0.929 . S
H358 C352 0.929 . S
H359 C353 0.930 . S
Mn360 O365 2.095 . S
Mn360 O375 2.162 . S
Mn360 O376 2.297 . S
Mn360 O384 2.385 . S
Mn360 O385 2.209 . S
Mn360 O386 2.094 . S
Mn361 O366 2.121 . S
Mn361 N368 2.257 . S
Mn361 N377 2.282 . S
Mn361 O385 2.215 . S
Mn361 O387 2.117 . S
C362 O384 1.234 . S
C362 O385 1.283 . S
C363 O375 1.281 . S
C363 O376 1.236 . S
C364 O386 1.240 . S
C364 O387 1.264 . S
O365 Mn360 2.095 . S
O365 C374 1.250 . S
O366 Mn361 2.121 . S
O366 C374 1.258 . S
C367 N368 1.326 . S
C367 C371 1.460 . S
C367 H373 0.929 . S
N368 Mn361 2.257 . S
N368 C367 1.326 . S
N368 C372 1.362 . S
C369 C370 1.258 . S
C369 C372 1.431 . S
C369 C389 1.449 . S
C370 C369 1.258 . S
C370 C371 1.477 . S
C370 H390 0.931 . S
C371 C367 1.460 . S
C371 C370 1.477 . S
C371 H391 0.930 . S
C372 N368 1.362 . S
C372 C369 1.431 . S
C372 C382 1.476 . S
H373 C367 0.929 . S
C374 O365 1.250 . S
C374 O366 1.258 . S
O375 Mn360 2.162 . S
O375 C363 1.281 . S
O376 Mn360 2.297 . S
O376 C363 1.236 . S
N377 Mn361 2.282 . S
N377 C378 1.328 . S
N377 C382 1.318 . S
C378 N377 1.328 . S
C378 C379 1.457 . S
C378 H383 0.929 . S
C379 C378 1.457 . S
C379 C380 1.291 . S
C379 H392 0.931 . S
C380 C379 1.291 . S
C380 C381 1.373 . S
C380 H393 0.929 . S
C381 C380 1.373 . S
C381 C382 1.396 . S
C381 C388 1.403 . S
C382 C372 1.476 . S
C382 N377 1.318 . S
C382 C381 1.396 . S
H383 C378 0.929 . S
O384 Mn360 2.385 . S
O384 C362 1.234 . S
O385 Mn360 2.209 . S
O385 Mn361 2.215 . S
O385 C362 1.283 . S
O386 Mn360 2.094 . S
O386 C364 1.240 . S
O387 Mn361 2.117 . S
O387 C364 1.264 . S
C388 C381 1.403 . S
C388 C389 1.399 . S
C388 H394 0.929 . S
C389 C369 1.449 . S
C389 C388 1.399 . S
C389 H395 0.930 . S
H390 C370 0.931 . S
H391 C371 0.930 . S
H392 C379 0.931 . S
H393 C380 0.929 . S
H394 C388 0.929 . S
H395 C389 0.930 . S
Mn396 O401 2.095 1_554 S
Mn396 O411 2.162 . S
Mn396 O412 2.297 . S
Mn396 O420 2.385 . S
Mn396 O421 2.208 . S
Mn396 O422 2.094 1_554 S
Mn397 O402 2.121 . S
Mn397 N404 2.257 1_565 S
Mn397 N413 2.282 . S
Mn397 O421 2.218 1_556 S
Mn397 O423 2.117 . S
C398 O420 1.234 . S
C398 O421 1.283 . S
C399 O411 1.281 . S
C399 O412 1.236 . S
C400 O422 1.240 . S
C400 O423 1.264 . S
O401 Mn396 2.095 1_556 S
O401 C410 1.250 . S
O402 Mn397 2.121 . S
O402 C410 1.258 . S
C403 N404 1.326 . S
C403 C407 1.460 . S
C403 H409 0.929 . S
N404 Mn397 2.257 1_545 S
N404 C403 1.326 . S
N404 C408 1.362 . S
C405 C406 1.258 . S
C405 C408 1.431 . S
C405 C425 1.449 . S
C406 C405 1.258 . S
C406 C407 1.477 . S
C406 H426 0.931 . S
C407 C403 1.460 . S
C407 C406 1.477 . S
C407 H427 0.930 . S
C408 N404 1.362 . S
C408 C405 1.431 . S
C408 C418 1.476 . S
H409 C403 0.929 . S
C410 O401 1.250 . S
C410 O402 1.258 . S
O411 Mn396 2.162 . S
O411 C399 1.281 . S
O412 Mn396 2.297 . S
O412 C399 1.236 . S
N413 Mn397 2.282 . S
N413 C414 1.328 . S
N413 C418 1.318 1_565 S
C414 N413 1.328 . S
C414 C415 1.457 . S
C414 H419 0.929 . S
C415 C414 1.457 . S
C415 C416 1.291 . S
C415 H428 0.931 . S
C416 C415 1.291 . S
C416 C417 1.373 1_565 S
C416 H429 0.929 1_565 S
C417 C416 1.373 1_545 S
C417 C418 1.396 . S
C417 C424 1.403 . S
C418 C408 1.476 . S
C418 N413 1.318 1_545 S
C418 C417 1.396 . S
H419 C414 0.929 . S
O420 Mn396 2.385 . S
O420 C398 1.234 . S
O421 Mn396 2.208 . S
O421 Mn397 2.218 1_554 S
O421 C398 1.283 . S
O422 Mn396 2.094 1_556 S
O422 C400 1.240 . S
O423 Mn397 2.117 . S
O423 C400 1.264 . S
C424 C417 1.403 . S
C424 C425 1.399 . S
C424 H430 0.929 . S
C425 C405 1.449 . S
C425 C424 1.399 . S
C425 H431 0.930 . S
H426 C406 0.931 . S
H427 C407 0.930 . S
H428 C415 0.931 . S
H429 C416 0.929 1_545 S
H430 C424 0.929 . S
H431 C425 0.930 . S
Mn432 O437 2.095 . S
Mn432 O447 2.162 . S
Mn432 O448 2.297 . S
Mn432 O456 2.385 . S
Mn432 O457 2.209 . S
Mn432 O458 2.094 . S
Mn433 O438 2.121 . S
Mn433 N440 2.257 . S
Mn433 N449 2.282 1_554 S
Mn433 O457 2.215 . S
Mn433 O459 2.117 1_554 S
C434 O456 1.234 . S
C434 O457 1.283 . S
C435 O447 1.281 . S
C435 O448 1.236 . S
C436 O458 1.240 1_556 S
C436 O459 1.264 . S
O437 Mn432 2.095 . S
O437 C446 1.250 . S
O438 Mn433 2.121 . S
O438 C446 1.258 . S
C439 N440 1.326 . S
C439 C443 1.460 . S
C439 H445 0.929 . S
N440 Mn433 2.257 . S
N440 C439 1.326 . S
N440 C444 1.362 . S
C441 C442 1.258 . S
C441 C444 1.431 . S
C441 C461 1.449 . S
C442 C441 1.258 . S
C442 C443 1.477 . S
C442 H462 0.931 . S
C443 C439 1.460 . S
C443 C442 1.477 . S
C443 H463 0.930 . S
C444 N440 1.362 . S
C444 C441 1.431 . S
C444 C454 1.476 1_554 S
H445 C439 0.929 . S
C446 O437 1.250 . S
C446 O438 1.258 . S
O447 Mn432 2.162 . S
O447 C435 1.281 . S
O448 Mn432 2.297 . S
O448 C435 1.236 . S
N449 Mn433 2.282 1_556 S
N449 C450 1.328 . S
N449 C454 1.318 . S
C450 N449 1.328 . S
C450 C451 1.457 . S
C450 H455 0.929 . S
C451 C450 1.457 . S
C451 C452 1.291 . S
C451 H464 0.931 . S
C452 C451 1.291 . S
C452 C453 1.373 . S
C452 H465 0.929 . S
C453 C452 1.373 . S
C453 C454 1.396 . S
C453 C460 1.403 . S
C454 C444 1.476 1_556 S
C454 N449 1.318 . S
C454 C453 1.396 . S
H455 C450 0.929 . S
O456 Mn432 2.385 . S
O456 C434 1.234 . S
O457 Mn432 2.209 . S
O457 Mn433 2.215 . S
O457 C434 1.283 . S
O458 Mn432 2.094 . S
O458 C436 1.240 1_554 S
O459 Mn433 2.117 1_556 S
O459 C436 1.264 . S
C460 C453 1.403 . S
C460 C461 1.399 1_556 S
C460 H466 0.929 . S
C461 C441 1.449 . S
C461 C460 1.399 1_554 S
C461 H467 0.930 . S
H462 C442 0.931 . S
H463 C443 0.930 . S
H464 C451 0.931 . S
H465 C452 0.929 . S
H466 C460 0.929 . S
H467 C461 0.930 . S
Mn468 O473 2.095 . S
Mn468 O483 2.162 . S
Mn468 O484 2.297 . S
Mn468 O492 2.385 . S
Mn468 O493 2.209 . S
Mn468 O494 2.094 . S
Mn469 O474 2.121 . S
Mn469 N476 2.257 . S
Mn469 N485 2.273 1_554 S
Mn469 O493 2.215 . S
Mn469 O495 2.117 . S
C470 O492 1.234 . S
C470 O493 1.283 . S
C471 O483 1.281 . S
C471 O484 1.236 . S
C472 O494 1.240 . S
C472 O495 1.264 . S
O473 Mn468 2.095 . S
O473 C482 1.250 . S
O474 Mn469 2.121 . S
O474 C482 1.258 . S
C475 N476 1.326 . S
C475 C479 1.460 . S
C475 H481 0.929 . S
N476 Mn469 2.257 . S
N476 C475 1.326 . S
N476 C480 1.362 . S
C477 C478 1.220 1_545 S
C477 C480 1.431 . S
C477 C497 1.449 1_554 S
C478 C477 1.220 1_565 S
C478 C479 1.475 1_565 S
C478 H498 0.971 . S
C479 C475 1.460 . S
C479 C478 1.475 1_545 S
C479 H499 0.930 1_545 S
C480 N476 1.362 . S
C480 C477 1.431 . S
C480 C490 1.476 1_554 S
H481 C475 0.929 . S
C482 O473 1.250 . S
C482 O474 1.258 . S
O483 Mn468 2.162 . S
O483 C471 1.281 . S
O484 Mn468 2.297 . S
O484 C471 1.236 . S
N485 Mn469 2.273 1_556 S
N485 C486 1.339 . S
N485 C490 1.315 . S
C486 N485 1.339 . S
C486 C487 1.457 . S
C486 H491 0.929 . S
C487 C486 1.457 . S
C487 C488 1.291 . S
C487 H500 0.931 . S
C488 C487 1.291 . S
C488 C489 1.373 . S
C488 H501 0.929 . S
C489 C488 1.373 . S
C489 C490 1.396 . S
C489 C496 1.403 . S
C490 C480 1.476 1_556 S
C490 N485 1.315 . S
C490 C489 1.396 . S
H491 C486 0.929 . S
O492 Mn468 2.385 . S
O492 C470 1.234 . S
O493 Mn468 2.209 . S
O493 Mn469 2.215 . S
O493 C470 1.283 . S
O494 Mn468 2.094 . S
O494 C472 1.240 . S
O495 Mn469 2.117 . S
O495 C472 1.264 . S
C496 C489 1.403 . S
C496 C497 1.399 . S
C496 H502 0.929 . S
C497 C477 1.449 1_556 S
C497 C496 1.399 . S
C497 H503 0.930 1_545 S
H498 C478 0.971 . S
H499 C479 0.930 1_565 S
H500 C487 0.931 . S
H501 C488 0.929 . S
H502 C496 0.929 . S
H503 C497 0.930 1_565 S
Mn504 O509 2.095 . S
Mn504 O519 2.162 . S
Mn504 O520 2.297 . S
Mn504 O528 2.385 . S
Mn504 O529 2.209 . S
Mn504 O530 2.094 . S
Mn505 O510 2.121 . S
Mn505 N512 2.257 . S
Mn505 N521 2.282 . S
Mn505 O529 2.215 . S
Mn505 O531 2.117 . S
C506 O528 1.234 . S
C506 O529 1.283 . S
C507 O519 1.281 . S
C507 O520 1.236 . S
C508 O530 1.240 . S
C508 O531 1.264 . S
O509 Mn504 2.095 . S
O509 C518 1.250 . S
O510 Mn505 2.121 . S
O510 C518 1.258 . S
C511 N512 1.326 . S
C511 C515 1.460 . S
C511 H517 0.929 . S
N512 Mn505 2.257 . S
N512 C511 1.326 . S
N512 C516 1.362 . S
C513 C514 1.258 . S
C513 C516 1.431 . S
C513 C533 1.449 . S
C514 C513 1.258 . S
C514 C515 1.477 . S
C514 H534 0.931 . S
C515 C511 1.460 . S
C515 C514 1.477 . S
C515 H535 0.930 . S
C516 N512 1.362 . S
C516 C513 1.431 . S
C516 C526 1.476 . S
H517 C511 0.929 . S
C518 O509 1.250 . S
C518 O510 1.258 . S
O519 Mn504 2.162 . S
O519 C507 1.281 . S
O520 Mn504 2.297 . S
O520 C507 1.236 . S
N521 Mn505 2.282 . S
N521 C522 1.328 . S
N521 C526 1.318 . S
C522 N521 1.328 . S
C522 C523 1.457 . S
C522 H527 0.929 . S
C523 C522 1.457 . S
C523 C524 1.291 . S
C523 H536 0.931 . S
C524 C523 1.291 . S
C524 C525 1.373 . S
C524 H537 0.929 . S
C525 C524 1.373 . S
C525 C526 1.396 . S
C525 C532 1.403 . S
C526 C516 1.476 . S
C526 N521 1.318 . S
C526 C525 1.396 . S
H527 C522 0.929 . S
O528 Mn504 2.385 . S
O528 C506 1.234 . S
O529 Mn504 2.209 . S
O529 Mn505 2.215 . S
O529 C506 1.283 . S
O530 Mn504 2.094 . S
O530 C508 1.240 . S
O531 Mn505 2.117 . S
O531 C508 1.264 . S
C532 C525 1.403 . S
C532 C533 1.399 . S
C532 H538 0.929 . S
C533 C513 1.449 . S
C533 C532 1.399 . S
C533 H539 0.930 . S
H534 C514 0.931 . S
H535 C515 0.930 . S
H536 C523 0.931 . S
H537 C524 0.929 . S
H538 C532 0.929 . S
H539 C533 0.930 . S
Mn540 O545 2.095 . S
Mn540 O555 2.162 . S
Mn540 O556 2.297 . S
Mn540 O564 2.385 . S
Mn540 O565 2.209 . S
Mn540 O566 2.094 . S
Mn541 O546 2.121 . S
Mn541 N548 2.257 . S
Mn541 N557 2.282 . S
Mn541 O565 2.215 . S
Mn541 O567 2.117 . S
C542 O564 1.234 . S
C542 O565 1.283 . S
C543 O555 1.281 . S
C543 O556 1.236 . S
C544 O566 1.240 . S
C544 O567 1.264 . S
O545 Mn540 2.095 . S
O545 C554 1.250 . S
O546 Mn541 2.121 . S
O546 C554 1.258 . S
C547 N548 1.326 . S
C547 C551 1.460 1_565 S
C547 H553 0.929 . S
N548 Mn541 2.257 . S
N548 C547 1.326 . S
N548 C552 1.362 . S
C549 C550 1.258 . S
C549 C552 1.431 1_545 S
C549 C569 1.449 . S
C550 C549 1.258 . S
C550 C551 1.477 . S
C550 H570 0.931 . S
C551 C547 1.460 1_545 S
C551 C550 1.477 . S
C551 H571 0.930 . S
C552 N548 1.362 . S
C552 C549 1.431 1_565 S
C552 C562 1.476 . S
H553 C547 0.929 . S
C554 O545 1.250 . S
C554 O546 1.258 . S
O555 Mn540 2.162 . S
O555 C543 1.281 . S
O556 Mn540 2.297 . S
O556 C543 1.236 . S
N557 Mn541 2.282 . S
N557 C558 1.328 . S
N557 C562 1.318 . S
C558 N557 1.328 . S
C558 C559 1.457 . S
C558 H563 0.929 . S
C559 C558 1.457 . S
C559 C560 1.291 . S
C559 H572 0.931 . S
C560 C559 1.291 . S
C560 C561 1.373 . S
C560 H573 0.929 . S
C561 C560 1.373 . S
C561 C562 1.396 . S
C561 C568 1.403 . S
C562 C552 1.476 . S
C562 N557 1.318 . S
C562 C561 1.396 . S
H563 C558 0.929 . S
O564 Mn540 2.385 . S
O564 C542 1.234 . S
O565 Mn540 2.209 . S
O565 Mn541 2.215 . S
O565 C542 1.283 . S
O566 Mn540 2.094 . S
O566 C544 1.240 . S
O567 Mn541 2.117 . S
O567 C544 1.264 . S
C568 C561 1.403 . S
C568 C569 1.399 1_565 S
C568 H574 0.929 . S
C569 C549 1.449 . S
C569 C568 1.399 1_545 S
C569 H575 0.930 . S
H570 C550 0.931 . S
H571 C551 0.930 . S
H572 C559 0.931 . S
H573 C560 0.929 . S
H574 C568 0.929 . S
H575 C569 0.930 . S
Mn576 O581 2.095 . S
Mn576 O591 2.162 . S
Mn576 O592 2.297 . S
Mn576 O600 2.385 1_545 S
Mn576 O601 2.209 1_545 S
Mn576 O602 2.094 . S
Mn577 O582 2.121 . S
Mn577 N584 2.257 1_545 S
Mn577 N593 2.282 1_545 S
Mn577 O601 2.215 1_545 S
Mn577 O603 2.117 . S
C578 O600 1.234 . S
C578 O601 1.283 . S
C579 O591 1.281 . S
C579 O592 1.236 . S
C580 O602 1.240 . S
C580 O603 1.264 . S
O581 Mn576 2.095 . S
O581 C590 1.250 . S
O582 Mn577 2.121 . S
O582 C590 1.258 . S
C583 N584 1.326 1_545 S
C583 C587 1.460 1_545 S
C583 H589 0.929 . S
N584 Mn577 2.257 1_565 S
N584 C583 1.326 1_565 S
N584 C588 1.362 . S
C585 C586 1.258 . S
C585 C588 1.431 . S
C585 C605 1.449 . S
C586 C585 1.258 . S
C586 C587 1.477 . S
C586 H606 0.931 . S
C587 C583 1.460 1_565 S
C587 C586 1.477 . S
C587 H607 0.930 . S
C588 N584 1.362 . S
C588 C585 1.431 . S
C588 C598 1.476 . S
H589 C583 0.929 . S
C590 O581 1.250 . S
C590 O582 1.258 . S
O591 Mn576 2.162 . S
O591 C579 1.281 . S
O592 Mn576 2.297 . S
O592 C579 1.236 . S
N593 Mn577 2.282 1_565 S
N593 C594 1.328 . S
N593 C598 1.318 . S
C594 N593 1.328 . S
C594 C595 1.457 . S
C594 H599 0.929 . S
C595 C594 1.457 . S
C595 C596 1.291 . S
C595 H608 0.931 . S
C596 C595 1.291 . S
C596 C597 1.373 . S
C596 H609 0.929 . S
C597 C596 1.373 . S
C597 C598 1.396 . S
C597 C604 1.403 . S
C598 C588 1.476 . S
C598 N593 1.318 . S
C598 C597 1.396 . S
H599 C594 0.929 . S
O600 Mn576 2.385 1_565 S
O600 C578 1.234 . S
O601 Mn576 2.209 1_565 S
O601 Mn577 2.215 1_565 S
O601 C578 1.283 . S
O602 Mn576 2.094 . S
O602 C580 1.240 . S
O603 Mn577 2.117 . S
O603 C580 1.264 . S
C604 C597 1.403 . S
C604 C605 1.399 . S
C604 H610 0.929 . S
C605 C585 1.449 . S
C605 C604 1.399 . S
C605 H611 0.930 . S
H606 C586 0.931 . S
H607 C587 0.930 . S
H608 C595 0.931 . S
H609 C596 0.929 . S
H610 C604 0.929 . S
H611 C605 0.930 . S
Mn612 O617 2.095 . S
Mn612 O627 2.162 . S
Mn612 O628 2.297 . S
Mn612 O636 2.385 . S
Mn612 O637 2.209 . S
Mn612 O638 2.094 . S
Mn613 O618 2.121 . S
Mn613 N620 2.257 . S
Mn613 N629 2.282 . S
Mn613 O637 2.215 . S
Mn613 O639 2.117 . S
C614 O636 1.234 . S
C614 O637 1.283 . S
C615 O627 1.281 . S
C615 O628 1.236 . S
C616 O638 1.240 . S
C616 O639 1.264 . S
O617 Mn612 2.095 . S
O617 C626 1.250 . S
O618 Mn613 2.121 . S
O618 C626 1.258 . S
C619 N620 1.326 . S
C619 C623 1.460 . S
C619 H625 0.929 . S
N620 Mn613 2.257 . S
N620 C619 1.326 . S
N620 C624 1.362 . S
C621 C622 1.258 . S
C621 C624 1.431 . S
C621 C641 1.449 . S
C622 C621 1.258 . S
C622 C623 1.477 . S
C622 H642 0.931 . S
C623 C619 1.460 . S
C623 C622 1.477 . S
C623 H643 0.930 . S
C624 N620 1.362 . S
C624 C621 1.431 . S
C624 C634 1.476 . S
H625 C619 0.929 . S
C626 O617 1.250 . S
C626 O618 1.258 . S
O627 Mn612 2.162 . S
O627 C615 1.281 . S
O628 Mn612 2.297 . S
O628 C615 1.236 . S
N629 Mn613 2.282 . S
N629 C630 1.328 . S
N629 C634 1.318 . S
C630 N629 1.328 . S
C630 C631 1.457 . S
C630 H635 0.929 . S
C631 C630 1.457 . S
C631 C632 1.291 . S
C631 H644 0.931 . S
C632 C631 1.291 . S
C632 C633 1.373 . S
C632 H645 0.929 . S
C633 C632 1.373 . S
C633 C634 1.396 . S
C633 C640 1.403 . S
C634 C624 1.476 . S
C634 N629 1.318 . S
C634 C633 1.396 . S
H635 C630 0.929 . S
O636 Mn612 2.385 . S
O636 C614 1.234 . S
O637 Mn612 2.209 . S
O637 Mn613 2.215 . S
O637 C614 1.283 . S
O638 Mn612 2.094 . S
O638 C616 1.240 . S
O639 Mn613 2.117 . S
O639 C616 1.264 . S
C640 C633 1.403 . S
C640 C641 1.399 . S
C640 H646 0.929 . S
C641 C621 1.449 . S
C641 C640 1.399 . S
C641 H647 0.930 . S
H642 C622 0.931 . S
H643 C623 0.930 . S
H644 C631 0.931 . S
H645 C632 0.929 . S
H646 C640 0.929 . S
H647 C641 0.930 . S
Mn648 O653 2.095 . S
Mn648 O663 2.162 . S
Mn648 O664 2.297 . S
Mn648 O672 2.385 . S
Mn648 O673 2.209 . S
Mn648 O674 2.094 . S
Mn649 O654 2.121 . S
Mn649 N656 2.257 . S
Mn649 N665 2.282 . S
Mn649 O673 2.215 . S
Mn649 O675 2.117 . S
C650 O672 1.234 . S
C650 O673 1.283 . S
C651 O663 1.281 . S
C651 O664 1.236 . S
C652 O674 1.240 . S
C652 O675 1.264 . S
O653 Mn648 2.095 . S
O653 C662 1.250 . S
O654 Mn649 2.121 . S
O654 C662 1.258 . S
C655 N656 1.326 . S
C655 C659 1.460 . S
C655 H661 0.929 . S
N656 Mn649 2.257 . S
N656 C655 1.326 . S
N656 C660 1.362 . S
C657 C658 1.258 . S
C657 C660 1.431 . S
C657 C677 1.449 . S
C658 C657 1.258 . S
C658 C659 1.477 . S
C658 H678 0.931 . S
C659 C655 1.460 . S
C659 C658 1.477 . S
C659 H679 0.930 . S
C660 N656 1.362 . S
C660 C657 1.431 . S
C660 C670 1.476 . S
H661 C655 0.929 . S
C662 O653 1.250 . S
C662 O654 1.258 . S
O663 Mn648 2.162 . S
O663 C651 1.281 . S
O664 Mn648 2.297 . S
O664 C651 1.236 . S
N665 Mn649 2.282 . S
N665 C666 1.328 . S
N665 C670 1.318 . S
C666 N665 1.328 . S
C666 C667 1.457 . S
C666 H671 0.929 . S
C667 C666 1.457 . S
C667 C668 1.291 . S
C667 H680 0.931 . S
C668 C667 1.291 . S
C668 C669 1.373 . S
C668 H681 0.929 . S
C669 C668 1.373 . S
C669 C670 1.396 . S
C669 C676 1.403 . S
C670 C660 1.476 . S
C670 N665 1.318 . S
C670 C669 1.396 . S
H671 C666 0.929 . S
O672 Mn648 2.385 . S
O672 C650 1.234 . S
O673 Mn648 2.209 . S
O673 Mn649 2.215 . S
O673 C650 1.283 . S
O674 Mn648 2.094 . S
O674 C652 1.240 . S
O675 Mn649 2.117 . S
O675 C652 1.264 . S
C676 C669 1.403 . S
C676 C677 1.399 . S
C676 H682 0.929 . S
C677 C657 1.449 . S
C677 C676 1.399 . S
C677 H683 0.930 . S
H678 C658 0.931 . S
H679 C659 0.930 . S
H680 C667 0.931 . S
H681 C668 0.929 . S
H682 C676 0.929 . S
H683 C677 0.930 . S
Mn684 O689 2.095 . S
Mn684 O699 2.162 . S
Mn684 O700 2.297 . S
Mn684 O708 2.385 . S
Mn684 O709 2.209 . S
Mn684 O710 2.094 . S
Mn685 O690 2.121 . S
Mn685 N692 2.257 . S
Mn685 N701 2.282 . S
Mn685 O709 2.215 . S
Mn685 O711 2.117 . S
C686 O708 1.234 . S
C686 O709 1.283 . S
C687 O699 1.281 . S
C687 O700 1.236 . S
C688 O710 1.240 . S
C688 O711 1.264 . S
O689 Mn684 2.095 . S
O689 C698 1.250 . S
O690 Mn685 2.121 . S
O690 C698 1.258 . S
C691 N692 1.326 . S
C691 C695 1.460 . S
C691 H697 0.929 . S
N692 Mn685 2.257 . S
N692 C691 1.326 . S
N692 C696 1.362 . S
C693 C694 1.258 . S
C693 C696 1.431 . S
C693 C713 1.449 . S
C694 C693 1.258 . S
C694 C695 1.477 . S
C694 H714 0.931 . S
C695 C691 1.460 . S
C695 C694 1.477 . S
C695 H715 0.930 . S
C696 N692 1.362 . S
C696 C693 1.431 . S
C696 C706 1.476 . S
H697 C691 0.929 . S
C698 O689 1.250 . S
C698 O690 1.258 . S
O699 Mn684 2.162 . S
O699 C687 1.281 . S
O700 Mn684 2.297 . S
O700 C687 1.236 . S
N701 Mn685 2.282 . S
N701 C702 1.328 . S
N701 C706 1.318 . S
C702 N701 1.328 . S
C702 C703 1.457 . S
C702 H707 0.929 . S
C703 C702 1.457 . S
C703 C704 1.291 . S
C703 H716 0.931 . S
C704 C703 1.291 . S
C704 C705 1.373 . S
C704 H717 0.929 . S
C705 C704 1.373 . S
C705 C706 1.396 . S
C705 C712 1.403 . S
C706 C696 1.476 . S
C706 N701 1.318 . S
C706 C705 1.396 . S
H707 C702 0.929 . S
O708 Mn684 2.385 . S
O708 C686 1.234 . S
O709 Mn684 2.209 . S
O709 Mn685 2.215 . S
O709 C686 1.283 . S
O710 Mn684 2.094 . S
O710 C688 1.240 . S
O711 Mn685 2.117 . S
O711 C688 1.264 . S
C712 C705 1.403 . S
C712 C713 1.399 . S
C712 H718 0.929 . S
C713 C693 1.449 . S
C713 C712 1.399 . S
C713 H719 0.930 . S
H714 C694 0.931 . S
H715 C695 0.930 . S
H716 C703 0.931 . S
H717 C704 0.929 . S
H718 C712 0.929 . S
H719 C713 0.930 . S
Mn720 O725 2.095 . S
Mn720 O735 2.162 . S
Mn720 O736 2.297 . S
Mn720 O744 2.385 . S
Mn720 O745 2.209 . S
Mn720 O746 2.094 1_554 S
Mn721 O726 2.121 . S
Mn721 N728 2.257 . S
Mn721 N737 2.282 . S
Mn721 O745 2.215 1_556 S
Mn721 O747 2.117 . S
C722 O744 1.234 . S
C722 O745 1.283 . S
C723 O735 1.281 . S
C723 O736 1.236 . S
C724 O746 1.240 . S
C724 O747 1.264 . S
O725 Mn720 2.095 . S
O725 C734 1.250 . S
O726 Mn721 2.121 . S
O726 C734 1.258 1_556 S
C727 N728 1.326 . S
C727 C731 1.460 . S
C727 H733 0.929 . S
N728 Mn721 2.257 . S
N728 C727 1.326 . S
N728 C732 1.362 . S
C729 C730 1.258 . S
C729 C732 1.431 . S
C729 C749 1.449 . S
C730 C729 1.258 . S
C730 C731 1.477 . S
C730 H750 0.931 . S
C731 C727 1.460 . S
C731 C730 1.477 . S
C731 H751 0.930 . S
C732 N728 1.362 . S
C732 C729 1.431 . S
C732 C742 1.476 . S
H733 C727 0.929 . S
C734 O725 1.250 . S
C734 O726 1.258 1_554 S
O735 Mn720 2.162 . S
O735 C723 1.281 . S
O736 Mn720 2.297 . S
O736 C723 1.236 . S
N737 Mn721 2.282 . S
N737 C738 1.328 . S
N737 C742 1.318 . S
C738 N737 1.328 . S
C738 C739 1.457 . S
C738 H743 0.929 . S
C739 C738 1.457 . S
C739 C740 1.291 . S
C739 H752 0.931 . S
C740 C739 1.291 . S
C740 C741 1.373 . S
C740 H753 0.929 . S
C741 C740 1.373 . S
C741 C742 1.396 . S
C741 C748 1.403 . S
C742 C732 1.476 . S
C742 N737 1.318 . S
C742 C741 1.396 . S
H743 C738 0.929 . S
O744 Mn720 2.385 . S
O744 C722 1.234 . S
O745 Mn720 2.209 . S
O745 Mn721 2.215 1_554 S
O745 C722 1.283 . S
O746 Mn720 2.094 1_556 S
O746 C724 1.240 . S
O747 Mn721 2.117 . S
O747 C724 1.264 . S
C748 C741 1.403 . S
C748 C749 1.399 . S
C748 H754 0.929 . S
C749 C729 1.449 . S
C749 C748 1.399 . S
C749 H755 0.930 . S
H750 C730 0.931 . S
H751 C731 0.930 . S
H752 C739 0.931 . S
H753 C740 0.929 . S
H754 C748 0.929 . S
H755 C749 0.930 . S
Mn756 O761 2.095 . S
Mn756 O771 2.162 . S
Mn756 O772 2.297 . S
Mn756 O780 2.385 . S
Mn756 O781 2.209 . S
Mn756 O782 2.094 . S
Mn757 O762 2.121 . S
Mn757 N764 2.257 . S
Mn757 N773 2.282 . S
Mn757 O781 2.215 . S
Mn757 O783 2.117 . S
C758 O780 1.234 . S
C758 O781 1.283 . S
C759 O771 1.281 . S
C759 O772 1.236 . S
C760 O782 1.240 . S
C760 O783 1.264 . S
O761 Mn756 2.095 . S
O761 C770 1.250 . S
O762 Mn757 2.121 . S
O762 C770 1.258 . S
C763 N764 1.326 . S
C763 C767 1.460 . S
C763 H769 0.929 . S
N764 Mn757 2.257 . S
N764 C763 1.326 . S
N764 C768 1.362 . S
C765 C766 1.258 . S
C765 C768 1.431 . S
C765 C785 1.449 . S
C766 C765 1.258 . S
C766 C767 1.477 . S
C766 H786 0.931 . S
C767 C763 1.460 . S
C767 C766 1.477 . S
C767 H787 0.930 . S
C768 N764 1.362 . S
C768 C765 1.431 . S
C768 C778 1.476 . S
H769 C763 0.929 . S
C770 O761 1.250 . S
C770 O762 1.258 . S
O771 Mn756 2.162 . S
O771 C759 1.281 . S
O772 Mn756 2.297 . S
O772 C759 1.236 . S
N773 Mn757 2.282 . S
N773 C774 1.328 . S
N773 C778 1.318 . S
C774 N773 1.328 . S
C774 C775 1.457 . S
C774 H779 0.929 . S
C775 C774 1.457 . S
C775 C776 1.291 . S
C775 H788 0.931 . S
C776 C775 1.291 . S
C776 C777 1.373 . S
C776 H789 0.929 . S
C777 C776 1.373 . S
C777 C778 1.396 . S
C777 C784 1.403 . S
C778 C768 1.476 . S
C778 N773 1.318 . S
C778 C777 1.396 . S
H779 C774 0.929 . S
O780 Mn756 2.385 . S
O780 C758 1.234 . S
O781 Mn756 2.209 . S
O781 Mn757 2.215 . S
O781 C758 1.283 . S
O782 Mn756 2.094 . S
O782 C760 1.240 . S
O783 Mn757 2.117 . S
O783 C760 1.264 . S
C784 C777 1.403 . S
C784 C785 1.399 . S
C784 H790 0.929 . S
C785 C765 1.449 . S
C785 C784 1.399 . S
C785 H791 0.930 . S
H786 C766 0.931 . S
H787 C767 0.930 . S
H788 C775 0.931 . S
H789 C776 0.929 . S
H790 C784 0.929 . S
H791 C785 0.930 . S
Mn792 O797 2.095 . S
Mn792 O807 2.162 . S
Mn792 O808 2.297 . S
Mn792 O816 2.385 . S
Mn792 O817 2.209 . S
Mn792 O818 2.094 . S
Mn793 O798 2.121 . S
Mn793 N800 2.257 . S
Mn793 N809 2.282 . S
Mn793 O817 2.215 . S
Mn793 O819 2.117 . S
C794 O816 1.234 . S
C794 O817 1.283 . S
C795 O807 1.281 . S
C795 O808 1.236 . S
C796 O818 1.240 . S
C796 O819 1.264 . S
O797 Mn792 2.095 . S
O797 C806 1.250 . S
O798 Mn793 2.121 . S
O798 C806 1.258 . S
C799 N800 1.326 . S
C799 C803 1.460 . S
C799 H805 0.929 . S
N800 Mn793 2.257 . S
N800 C799 1.326 . S
N800 C804 1.362 . S
C801 C802 1.258 . S
C801 C804 1.431 . S
C801 C821 1.449 . S
C802 C801 1.258 . S
C802 C803 1.477 . S
C802 H822 0.931 . S
C803 C799 1.460 . S
C803 C802 1.477 . S
C803 H823 0.930 . S
C804 N800 1.362 . S
C804 C801 1.431 . S
C804 C814 1.476 . S
H805 C799 0.929 . S
C806 O797 1.250 . S
C806 O798 1.258 . S
O807 Mn792 2.162 . S
O807 C795 1.281 . S
O808 Mn792 2.297 . S
O808 C795 1.236 . S
N809 Mn793 2.282 . S
N809 C810 1.328 . S
N809 C814 1.318 . S
C810 N809 1.328 . S
C810 C811 1.457 . S
C810 H815 0.929 . S
C811 C810 1.457 . S
C811 C812 1.291 . S
C811 H824 0.931 . S
C812 C811 1.291 . S
C812 C813 1.373 . S
C812 H825 0.929 . S
C813 C812 1.373 . S
C813 C814 1.396 . S
C813 C820 1.403 . S
C814 C804 1.476 . S
C814 N809 1.318 . S
C814 C813 1.396 . S
H815 C810 0.929 . S
O816 Mn792 2.385 . S
O816 C794 1.234 . S
O817 Mn792 2.209 . S
O817 Mn793 2.215 . S
O817 C794 1.283 . S
O818 Mn792 2.094 . S
O818 C796 1.240 . S
O819 Mn793 2.117 . S
O819 C796 1.264 . S
C820 C813 1.403 . S
C820 C821 1.399 . S
C820 H826 0.929 . S
C821 C801 1.449 . S
C821 C820 1.399 . S
C821 H827 0.930 . S
H822 C802 0.931 . S
H823 C803 0.930 . S
H824 C811 0.931 . S
H825 C812 0.929 . S
H826 C820 0.929 . S
H827 C821 0.930 . S
Mn828 O833 2.095 . S
Mn828 O843 2.162 . S
Mn828 O844 2.297 . S
Mn828 O852 2.385 . S
Mn828 O853 2.209 . S
Mn828 O854 2.094 . S
Mn829 O834 2.121 . S
Mn829 N836 2.257 . S
Mn829 N845 2.282 . S
Mn829 O853 2.215 . S
Mn829 O855 2.117 . S
C830 O852 1.234 . S
C830 O853 1.283 . S
C831 O843 1.281 . S
C831 O844 1.236 . S
C832 O854 1.240 . S
C832 O855 1.264 . S
O833 Mn828 2.095 . S
O833 C842 1.250 . S
O834 Mn829 2.121 . S
O834 C842 1.258 . S
C835 N836 1.326 . S
C835 C839 1.460 . S
C835 H841 0.929 . S
N836 Mn829 2.257 . S
N836 C835 1.326 . S
N836 C840 1.362 . S
C837 C838 1.258 . S
C837 C840 1.431 . S
C837 C857 1.449 . S
C838 C837 1.258 . S
C838 C839 1.477 . S
C838 H858 0.931 . S
C839 C835 1.460 . S
C839 C838 1.477 . S
C839 H859 0.930 . S
C840 N836 1.362 . S
C840 C837 1.431 . S
C840 C850 1.476 . S
H841 C835 0.929 . S
C842 O833 1.250 . S
C842 O834 1.258 . S
O843 Mn828 2.162 . S
O843 C831 1.281 . S
O844 Mn828 2.297 . S
O844 C831 1.236 . S
N845 Mn829 2.282 . S
N845 C846 1.328 . S
N845 C850 1.318 . S
C846 N845 1.328 . S
C846 C847 1.457 . S
C846 H851 0.929 . S
C847 C846 1.457 . S
C847 C848 1.291 . S
C847 H860 0.931 . S
C848 C847 1.291 . S
C848 C849 1.373 . S
C848 H861 0.929 . S
C849 C848 1.373 . S
C849 C850 1.396 . S
C849 C856 1.403 . S
C850 C840 1.476 . S
C850 N845 1.318 . S
C850 C849 1.396 . S
H851 C846 0.929 . S
O852 Mn828 2.385 . S
O852 C830 1.234 . S
O853 Mn828 2.209 . S
O853 Mn829 2.215 . S
O853 C830 1.283 . S
O854 Mn828 2.094 . S
O854 C832 1.240 . S
O855 Mn829 2.117 . S
O855 C832 1.264 . S
C856 C849 1.403 . S
C856 C857 1.399 . S
C856 H862 0.929 . S
C857 C837 1.449 . S
C857 C856 1.399 . S
C857 H863 0.930 . S
H858 C838 0.931 . S
H859 C839 0.930 . S
H860 C847 0.931 . S
H861 C848 0.929 . S
H862 C856 0.929 . S
H863 C857 0.930 . S
Eu864 N893 2.600 . S
Eu864 N899 2.562 . S
Eu864 O908 2.462 . S
Eu864 O909 2.373 . S
Eu864 O911 2.432 . S
Eu864 O912 2.291 . S
Eu864 O916 2.322 1_545 S
Eu864 O919 2.372 . S
Eu864 C928 2.787 . S
C865 N866 1.365 . S
C865 C868 1.405 . S
C865 C872 1.448 1_556 S
N866 C865 1.365 . S
N866 C869 1.319 . S
N866 Eu875 2.600 1_566 S
C867 C869 1.397 . S
C867 C870 1.367 . S
C867 H887 0.931 . S
C868 C865 1.405 . S
C868 C870 1.403 . S
C868 C874 1.439 . S
C869 N866 1.319 . S
C869 C867 1.397 . S
C869 H880 0.930 . S
C870 C867 1.367 . S
C870 C868 1.403 . S
C870 H891 0.929 . S
C871 C872 1.430 . S
C871 C873 1.387 1_554 S
C871 C877 1.404 . S
C872 C865 1.448 1_554 S
C872 C871 1.430 . S
C872 N876 1.351 . S
C873 C871 1.387 1_556 S
C873 C874 1.374 . S
C873 H888 0.931 . S
C874 C868 1.439 . S
C874 C873 1.374 . S
C874 H889 0.931 . S
Eu875 N866 2.600 1_544 S
Eu875 N876 2.562 1_545 S
Eu875 O910 2.335 1_655 S
Eu875 O913 2.372 1_654 S
Eu875 O914 2.462 . S
Eu875 O915 2.373 1_645 S
Eu875 O917 2.432 1_554 S
Eu875 O918 2.291 1_655 S
Eu875 C939 2.787 . S
N876 C872 1.351 . S
N876 Eu875 2.562 1_565 S
N876 C878 1.325 . S
C877 C871 1.404 . S
C877 C879 1.366 . S
C877 H885 0.930 . S
C878 N876 1.325 . S
C878 C879 1.416 . S
C878 H884 0.929 . S
C879 C877 1.366 . S
C879 C878 1.416 . S
C879 H881 0.930 . S
H880 C869 0.930 . S
H881 C879 0.930 . S
H882 C897 0.930 . S
H883 C904 0.930 1_556 S
H884 C878 0.929 . S
H885 C877 0.930 . S
H886 C900 0.934 . S
H887 C867 0.931 . S
H888 C873 0.931 . S
H889 C874 0.931 . S
H890 C895 0.931 . S
H891 C870 0.929 . S
H892 C903 0.930 . S
N893 Eu864 2.600 . S
N893 C894 1.365 . S
N893 C897 1.319 . S
C894 N893 1.365 . S
C894 C896 1.405 . S
C894 C902 1.448 . S
C895 H890 0.931 . S
C895 C897 1.397 . S
C895 C898 1.367 . S
C896 C894 1.405 . S
C896 C898 1.403 . S
C896 C929 1.439 . S
C897 H882 0.930 . S
C897 N893 1.319 . S
C897 C895 1.397 . S
C898 C895 1.367 . S
C898 C896 1.403 . S
C898 H905 0.929 . S
N899 Eu864 2.562 . S
N899 C900 1.325 . S
N899 C902 1.351 . S
C900 H886 0.934 . S
C900 N899 1.325 . S
C900 C904 1.416 . S
C901 C902 1.430 . S
C901 C903 1.404 . S
C901 C930 1.387 . S
C902 C894 1.448 . S
C902 N899 1.351 . S
C902 C901 1.430 . S
C903 H892 0.930 . S
C903 C901 1.404 . S
C903 C904 1.366 . S
C904 H883 0.930 1_554 S
C904 C900 1.416 . S
C904 C903 1.366 . S
H905 C898 0.929 . S
H906 C929 0.931 . S
H907 C930 0.931 . S
O908 Eu864 2.462 . S
O908 C928 1.252 . S
O909 Eu864 2.373 . S
O909 C920 1.249 . S
O910 Eu875 2.335 1_455 S
O910 C920 1.264 . S
O911 Eu864 2.432 . S
O911 C928 1.268 . S
O912 Eu864 2.291 . S
O912 C927 1.255 1_554 S
O913 Eu875 2.372 1_456 S
O913 C927 1.257 . S
O914 Eu875 2.462 . S
O914 C939 1.252 . S
O915 Eu875 2.373 1_465 S
O915 C931 1.249 . S
O916 Eu864 2.322 1_565 S
O916 C931 1.271 . S
O917 Eu875 2.432 1_556 S
O917 C939 1.268 1_556 S
O918 Eu875 2.291 1_455 S
O918 C938 1.255 . S
O919 Eu864 2.372 . S
O919 C938 1.257 . S
C920 O909 1.249 . S
C920 O910 1.264 . S
C921 C924 1.382 . S
C921 C926 1.390 . S
C921 C928 1.506 . S
C922 C923 1.398 . S
C922 C926 1.392 . S
C923 C922 1.398 . S
C923 C925 1.372 . S
C923 H940 0.953 . S
C924 C921 1.382 . S
C924 C925 1.390 . S
C924 H941 0.931 . S
C925 C923 1.372 . S
C925 C924 1.390 . S
C925 H942 0.929 . S
C926 C921 1.390 . S
C926 C922 1.392 . S
C926 H943 0.930 . S
C927 O912 1.255 1_556 S
C927 O913 1.257 . S
C928 Eu864 2.787 . S
C928 O908 1.252 . S
C928 O911 1.268 . S
C928 C921 1.506 . S
C929 C896 1.439 . S
C929 H906 0.931 . S
C929 C930 1.374 . S
C930 C901 1.387 . S
C930 H907 0.931 . S
C930 C929 1.374 . S
C931 O915 1.249 . S
C931 O916 1.271 . S
C932 C935 1.393 . S
C932 C936 1.380 1_556 S
C932 C939 1.505 1_556 S
C933 C934 1.398 1_554 S
C933 C936 1.392 . S
C934 C933 1.398 1_556 S
C934 C937 1.372 . S
C934 H944 0.931 . S
C935 C932 1.393 . S
C935 C937 1.390 . S
C935 H945 0.931 . S
C936 C932 1.380 1_554 S
C936 C933 1.392 . S
C936 H946 0.930 . S
C937 C934 1.372 . S
C937 C935 1.390 . S
C937 H947 0.929 . S
C938 O918 1.255 . S
C938 O919 1.257 . S
C939 Eu875 2.787 . S
C939 O914 1.252 . S
C939 O917 1.268 1_554 S
C939 C932 1.505 1_554 S
H940 C923 0.953 . S
H941 C924 0.931 . S
H942 C925 0.929 . S
H943 C926 0.930 . S
H944 C934 0.931 . S
H945 C935 0.931 . S
H946 C936 0.930 . S
H947 C937 0.929 . S
Eu948 N977 2.600 . S
Eu948 N983 2.562 . S
Eu948 O992 2.462 . S
Eu948 O993 2.373 . S
Eu948 O995 2.432 . S
Eu948 O996 2.291 . S
Eu948 O1000 2.335 . S
Eu948 O1003 2.372 . S
Eu948 C1012 2.787 . S
C949 N950 1.365 . S
C949 C952 1.405 . S
C949 C956 1.448 . S
N950 C949 1.365 . S
N950 C953 1.319 . S
N950 Eu959 2.600 . S
C951 C953 1.397 . S
C951 C954 1.367 . S
C951 H971 0.931 . S
C952 C949 1.405 . S
C952 C954 1.403 . S
C952 C958 1.439 . S
C953 N950 1.319 . S
C953 C951 1.397 . S
C953 H964 0.930 . S
C954 C951 1.367 . S
C954 C952 1.403 . S
C954 H975 0.929 . S
C955 C956 1.430 . S
C955 C957 1.387 . S
C955 C961 1.404 . S
C956 C949 1.448 . S
C956 C955 1.430 . S
C956 N960 1.351 . S
C957 C955 1.387 . S
C957 C958 1.374 . S
C957 H972 0.931 . S
C958 C952 1.439 . S
C958 C957 1.374 . S
C958 H973 0.931 . S
Eu959 N950 2.600 . S
Eu959 N960 2.562 . S
Eu959 O994 2.335 . S
Eu959 O997 2.372 . S
Eu959 O998 2.462 . S
Eu959 O999 2.373 . S
Eu959 O1001 2.432 . S
Eu959 O1002 2.291 . S
Eu959 C1023 2.787 . S
N960 C956 1.351 . S
N960 Eu959 2.562 . S
N960 C962 1.325 . S
C961 C955 1.404 . S
C961 C963 1.366 . S
C961 H969 0.930 . S
C962 N960 1.325 . S
C962 C963 1.416 . S
C962 H968 0.929 . S
C963 C961 1.366 . S
C963 C962 1.416 . S
C963 H965 0.930 . S
H964 C953 0.930 . S
H965 C963 0.930 . S
H966 C981 0.930 . S
H967 C988 0.930 . S
H968 C962 0.929 . S
H969 C961 0.930 . S
H970 C984 0.929 . S
H971 C951 0.931 . S
H972 C957 0.931 . S
H973 C958 0.931 . S
H974 C979 0.931 . S
H975 C954 0.929 . S
H976 C987 0.930 . S
N977 Eu948 2.600 . S
N977 C978 1.365 . S
N977 C981 1.319 . S
C978 N977 1.365 . S
C978 C980 1.405 . S
C978 C986 1.448 . S
C979 H974 0.931 . S
C979 C981 1.397 . S
C979 C982 1.367 . S
C980 C978 1.405 . S
C980 C982 1.403 . S
C980 C1013 1.439 . S
C981 H966 0.930 . S
C981 N977 1.319 . S
C981 C979 1.397 . S
C982 C979 1.367 . S
C982 C980 1.403 . S
C982 H989 0.929 . S
N983 Eu948 2.562 . S
N983 C984 1.325 . S
N983 C986 1.351 . S
C984 H970 0.929 . S
C984 N983 1.325 . S
C984 C988 1.416 . S
C985 C986 1.430 . S
C985 C987 1.404 . S
C985 C1014 1.387 . S
C986 C978 1.448 . S
C986 N983 1.351 . S
C986 C985 1.430 . S
C987 H976 0.930 . S
C987 C985 1.404 . S
C987 C988 1.366 . S
C988 H967 0.930 . S
C988 C984 1.416 . S
C988 C987 1.366 . S
H989 C982 0.929 . S
H990 C1013 0.931 . S
H991 C1014 0.931 . S
O992 Eu948 2.462 . S
O992 C1012 1.252 . S
O993 Eu948 2.373 . S
O993 C1004 1.249 . S
O994 Eu959 2.335 . S
O994 C1004 1.264 . S
O995 Eu948 2.432 . S
O995 C1012 1.268 . S
O996 Eu948 2.291 . S
O996 C1011 1.255 . S
O997 Eu959 2.372 . S
O997 C1011 1.257 . S
O998 Eu959 2.462 . S
O998 C1023 1.252 . S
O999 Eu959 2.373 . S
O999 C1015 1.249 . S
O1000 Eu948 2.335 . S
O1000 C1015 1.264 . S
O1001 Eu959 2.432 . S
O1001 C1023 1.268 . S
O1002 Eu959 2.291 . S
O1002 C1022 1.255 . S
O1003 Eu948 2.372 . S
O1003 C1022 1.257 . S
C1004 O993 1.249 . S
C1004 O994 1.264 . S
C1005 C1008 1.382 . S
C1005 C1010 1.390 . S
C1005 C1012 1.506 . S
C1006 C1007 1.398 . S
C1006 C1010 1.392 . S
C1007 C1006 1.398 . S
C1007 C1009 1.372 . S
C1007 H1024 0.931 . S
C1008 C1005 1.382 . S
C1008 C1009 1.390 . S
C1008 H1025 0.931 . S
C1009 C1007 1.372 . S
C1009 C1008 1.390 . S
C1009 H1026 0.929 . S
C1010 C1005 1.390 . S
C1010 C1006 1.392 . S
C1010 H1027 0.930 . S
C1011 O996 1.255 . S
C1011 O997 1.257 . S
C1012 Eu948 2.787 . S
C1012 O992 1.252 . S
C1012 O995 1.268 . S
C1012 C1005 1.506 . S
C1013 C980 1.439 . S
C1013 H990 0.931 . S
C1013 C1014 1.374 . S
C1014 C985 1.387 . S
C1014 H991 0.931 . S
C1014 C1013 1.374 . S
C1015 O999 1.249 . S
C1015 O1000 1.264 . S
C1016 C1019 1.382 . S
C1016 C1020 1.390 . S
C1016 C1023 1.506 . S
C1017 C1018 1.398 . S
C1017 C1020 1.392 . S
C1018 C1017 1.398 . S
C1018 C1021 1.372 . S
C1018 H1028 0.931 . S
C1019 C1016 1.382 . S
C1019 C1021 1.390 . S
C1019 H1029 0.931 . S
C1020 C1016 1.390 . S
C1020 C1017 1.392 . S
C1020 H1030 0.930 . S
C1021 C1018 1.372 . S
C1021 C1019 1.390 . S
C1021 H1031 0.929 . S
C1022 O1002 1.255 . S
C1022 O1003 1.257 . S
C1023 Eu959 2.787 . S
C1023 O998 1.252 . S
C1023 O1001 1.268 . S
C1023 C1016 1.506 . S
H1024 C1007 0.931 . S
H1025 C1008 0.931 . S
H1026 C1009 0.929 . S
H1027 C1010 0.930 . S
H1028 C1018 0.931 . S
H1029 C1019 0.931 . S
H1030 C1020 0.930 . S
H1031 C1021 0.929 . S
Eu1032 N1061 2.600 . S
Eu1032 N1067 2.562 1_545 S
Eu1032 O1076 2.462 . S
Eu1032 O1077 2.373 1_545 S
Eu1032 O1079 2.432 . S
Eu1032 O1080 2.291 . S
Eu1032 O1084 2.335 . S
Eu1032 O1087 2.372 . S
Eu1032 C1096 2.787 . S
C1033 N1034 1.365 . S
C1033 C1036 1.405 . S
C1033 C1040 1.448 . S
N1034 C1033 1.365 . S
N1034 C1037 1.319 . S
N1034 Eu1043 2.600 . S
C1035 C1037 1.397 . S
C1035 C1038 1.367 . S
C1035 H1055 0.931 . S
C1036 C1033 1.405 . S
C1036 C1038 1.403 . S
C1036 C1042 1.439 . S
C1037 N1034 1.319 . S
C1037 C1035 1.397 . S
C1037 H1048 0.930 . S
C1038 C1035 1.367 . S
C1038 C1036 1.403 . S
C1038 H1059 0.929 . S
C1039 C1040 1.430 . S
C1039 C1041 1.387 . S
C1039 C1045 1.404 . S
C1040 C1033 1.448 . S
C1040 C1039 1.430 . S
C1040 N1044 1.351 . S
C1041 C1039 1.387 . S
C1041 C1042 1.374 . S
C1041 H1056 0.931 . S
C1042 C1036 1.439 . S
C1042 C1041 1.374 . S
C1042 H1057 0.931 . S
Eu1043 N1034 2.600 . S
Eu1043 N1044 2.562 . S
Eu1043 O1078 2.335 . S
Eu1043 O1081 2.372 . S
Eu1043 O1082 2.462 . S
Eu1043 O1083 2.373 . S
Eu1043 O1085 2.432 . S
Eu1043 O1086 2.291 . S
Eu1043 C1107 2.787 . S
N1044 C1040 1.351 . S
N1044 Eu1043 2.562 . S
N1044 C1046 1.325 . S
C1045 C1039 1.404 . S
C1045 C1047 1.366 . S
C1045 H1053 0.930 . S
C1046 N1044 1.325 . S
C1046 C1047 1.416 . S
C1046 H1052 0.929 . S
C1047 C1045 1.366 . S
C1047 C1046 1.416 . S
C1047 H1049 0.930 . S
H1048 C1037 0.930 . S
H1049 C1047 0.930 . S
H1050 C1065 0.930 . S
H1051 C1072 0.930 . S
H1052 C1046 0.929 . S
H1053 C1045 0.930 . S
H1054 C1068 0.929 1_545 S
H1055 C1035 0.931 . S
H1056 C1041 0.931 . S
H1057 C1042 0.931 . S
H1058 C1063 0.931 . S
H1059 C1038 0.929 . S
H1060 C1071 0.930 . S
N1061 Eu1032 2.600 . S
N1061 C1062 1.365 1_545 S
N1061 C1065 1.319 . S
C1062 N1061 1.365 1_565 S
C1062 C1064 1.405 . S
C1062 C1070 1.448 . S
C1063 H1058 0.931 . S
C1063 C1065 1.397 1_565 S
C1063 C1066 1.367 . S
C1064 C1062 1.405 . S
C1064 C1066 1.403 . S
C1064 C1097 1.439 . S
C1065 H1050 0.930 . S
C1065 N1061 1.319 . S
C1065 C1063 1.397 1_545 S
C1066 C1063 1.367 . S
C1066 C1064 1.403 . S
C1066 H1073 0.929 . S
N1067 Eu1032 2.562 1_565 S
N1067 C1068 1.325 . S
N1067 C1070 1.351 . S
C1068 H1054 0.929 1_565 S
C1068 N1067 1.325 . S
C1068 C1072 1.416 . S
C1069 C1070 1.430 . S
C1069 C1071 1.404 . S
C1069 C1098 1.387 . S
C1070 C1062 1.448 . S
C1070 N1067 1.351 . S
C1070 C1069 1.430 . S
C1071 H1060 0.930 . S
C1071 C1069 1.404 . S
C1071 C1072 1.366 . S
C1072 H1051 0.930 . S
C1072 C1068 1.416 . S
C1072 C1071 1.366 . S
H1073 C1066 0.929 . S
H1074 C1097 0.931 . S
H1075 C1098 0.931 . S
O1076 Eu1032 2.462 . S
O1076 C1096 1.252 . S
O1077 Eu1032 2.373 1_565 S
O1077 C1088 1.249 . S
O1078 Eu1043 2.335 . S
O1078 C1088 1.264 1_545 S
O1079 Eu1032 2.432 . S
O1079 C1096 1.268 . S
O1080 Eu1032 2.291 . S
O1080 C1095 1.255 . S
O1081 Eu1043 2.372 . S
O1081 C1095 1.257 . S
O1082 Eu1043 2.462 . S
O1082 C1107 1.252 . S
O1083 Eu1043 2.373 . S
O1083 C1099 1.249 . S
O1084 Eu1032 2.335 . S
O1084 C1099 1.264 . S
O1085 Eu1043 2.432 . S
O1085 C1107 1.268 . S
O1086 Eu1043 2.291 . S
O1086 C1106 1.255 . S
O1087 Eu1032 2.372 . S
O1087 C1106 1.257 . S
C1088 O1077 1.249 . S
C1088 O1078 1.264 1_565 S
C1089 C1092 1.382 . S
C1089 C1094 1.390 . S
C1089 C1096 1.506 . S
C1090 C1091 1.398 . S
C1090 C1094 1.392 . S
C1091 C1090 1.398 . S
C1091 C1093 1.372 . S
C1091 H1108 0.931 . S
C1092 C1089 1.382 . S
C1092 C1093 1.390 . S
C1092 H1109 0.931 . S
C1093 C1091 1.372 . S
C1093 C1092 1.390 . S
C1093 H1110 0.929 . S
C1094 C1089 1.390 . S
C1094 C1090 1.392 . S
C1094 H1111 0.930 . S
C1095 O1080 1.255 . S
C1095 O1081 1.257 . S
C1096 Eu1032 2.787 . S
C1096 O1076 1.252 . S
C1096 O1079 1.268 . S
C1096 C1089 1.506 . S
C1097 C1064 1.439 . S
C1097 H1074 0.931 . S
C1097 C1098 1.374 . S
C1098 C1069 1.387 . S
C1098 H1075 0.931 . S
C1098 C1097 1.374 . S
C1099 O1083 1.249 . S
C1099 O1084 1.264 . S
C1100 C1103 1.382 1_545 S
C1100 C1104 1.390 1_545 S
C1100 C1107 1.506 . S
C1101 C1102 1.398 . S
C1101 C1104 1.392 . S
C1102 C1101 1.398 . S
C1102 C1105 1.372 . S
C1102 H1112 0.931 . S
C1103 C1100 1.382 1_565 S
C1103 C1105 1.390 . S
C1103 H1113 0.930 1_565 S
C1104 C1100 1.390 1_565 S
C1104 C1101 1.392 . S
C1104 H1114 0.928 1_565 S
C1105 C1102 1.372 . S
C1105 C1103 1.390 . S
C1105 H1115 0.929 . S
C1106 O1086 1.255 . S
C1106 O1087 1.257 . S
C1107 Eu1043 2.787 . S
C1107 O1082 1.252 . S
C1107 O1085 1.268 . S
C1107 C1100 1.506 . S
H1108 C1091 0.931 . S
H1109 C1092 0.931 . S
H1110 C1093 0.929 . S
H1111 C1094 0.930 . S
H1112 C1102 0.931 . S
H1113 C1103 0.930 1_545 S
H1114 C1104 0.928 1_545 S
H1115 C1105 0.929 . S
Eu1116 N1145 2.600 . S
Eu1116 N1151 2.562 . S
Eu1116 O1160 2.462 . S
Eu1116 O1161 2.373 . S
Eu1116 O1163 2.432 . S
Eu1116 O1164 2.291 . S
Eu1116 O1168 2.335 . S
Eu1116 O1171 2.372 . S
Eu1116 C1180 2.787 . S
C1117 N1118 1.365 . S
C1117 C1120 1.405 . S
C1117 C1124 1.448 . S
N1118 C1117 1.365 . S
N1118 C1121 1.319 . S
N1118 Eu1127 2.600 . S
C1119 C1121 1.397 . S
C1119 C1122 1.367 . S
C1119 H1139 0.931 . S
C1120 C1117 1.405 . S
C1120 C1122 1.403 . S
C1120 C1126 1.439 . S
C1121 N1118 1.319 . S
C1121 C1119 1.397 . S
C1121 H1132 0.930 . S
C1122 C1119 1.367 . S
C1122 C1120 1.403 . S
C1122 H1143 0.929 . S
C1123 C1124 1.430 . S
C1123 C1125 1.387 . S
C1123 C1129 1.404 . S
C1124 C1117 1.448 . S
C1124 C1123 1.430 . S
C1124 N1128 1.351 . S
C1125 C1123 1.387 . S
C1125 C1126 1.374 . S
C1125 H1140 0.931 . S
C1126 C1120 1.439 . S
C1126 C1125 1.374 . S
C1126 H1141 0.931 . S
Eu1127 N1118 2.600 . S
Eu1127 N1128 2.562 . S
Eu1127 O1162 2.335 . S
Eu1127 O1165 2.372 . S
Eu1127 O1166 2.462 . S
Eu1127 O1167 2.373 . S
Eu1127 O1169 2.432 . S
Eu1127 O1170 2.291 . S
Eu1127 C1191 2.787 . S
N1128 C1124 1.351 . S
N1128 Eu1127 2.562 . S
N1128 C1130 1.325 . S
C1129 C1123 1.404 . S
C1129 C1131 1.366 . S
C1129 H1137 0.930 . S
C1130 N1128 1.325 . S
C1130 C1131 1.416 . S
C1130 H1136 0.929 . S
C1131 C1129 1.366 . S
C1131 C1130 1.416 . S
C1131 H1133 0.930 . S
H1132 C1121 0.930 . S
H1133 C1131 0.930 . S
H1134 C1149 0.930 . S
H1135 C1156 0.930 . S
H1136 C1130 0.929 . S
H1137 C1129 0.930 . S
H1138 C1152 0.929 . S
H1139 C1119 0.931 . S
H1140 C1125 0.931 . S
H1141 C1126 0.931 . S
H1142 C1147 0.931 . S
H1143 C1122 0.929 . S
H1144 C1155 0.930 . S
N1145 Eu1116 2.600 . S
N1145 C1146 1.365 . S
N1145 C1149 1.319 . S
C1146 N1145 1.365 . S
C1146 C1148 1.405 . S
C1146 C1154 1.448 . S
C1147 H1142 0.931 . S
C1147 C1149 1.397 . S
C1147 C1150 1.367 . S
C1148 C1146 1.405 . S
C1148 C1150 1.403 . S
C1148 C1181 1.439 . S
C1149 H1134 0.930 . S
C1149 N1145 1.319 . S
C1149 C1147 1.397 . S
C1150 C1147 1.367 . S
C1150 C1148 1.403 . S
C1150 H1157 0.929 . S
N1151 Eu1116 2.562 . S
N1151 C1152 1.325 . S
N1151 C1154 1.351 . S
C1152 H1138 0.929 . S
C1152 N1151 1.325 . S
C1152 C1156 1.416 . S
C1153 C1154 1.430 . S
C1153 C1155 1.404 . S
C1153 C1182 1.387 . S
C1154 C1146 1.448 . S
C1154 N1151 1.351 . S
C1154 C1153 1.430 . S
C1155 H1144 0.930 . S
C1155 C1153 1.404 . S
C1155 C1156 1.366 . S
C1156 H1135 0.930 . S
C1156 C1152 1.416 . S
C1156 C1155 1.366 . S
H1157 C1150 0.929 . S
H1158 C1181 0.931 . S
H1159 C1182 0.931 . S
O1160 Eu1116 2.462 . S
O1160 C1180 1.252 . S
O1161 Eu1116 2.373 . S
O1161 C1172 1.249 . S
O1162 Eu1127 2.335 . S
O1162 C1172 1.264 . S
O1163 Eu1116 2.432 . S
O1163 C1180 1.268 . S
O1164 Eu1116 2.291 . S
O1164 C1179 1.255 . S
O1165 Eu1127 2.372 . S
O1165 C1179 1.257 . S
O1166 Eu1127 2.462 . S
O1166 C1191 1.252 . S
O1167 Eu1127 2.373 . S
O1167 C1183 1.249 . S
O1168 Eu1116 2.335 . S
O1168 C1183 1.264 . S
O1169 Eu1127 2.432 . S
O1169 C1191 1.268 . S
O1170 Eu1127 2.291 . S
O1170 C1190 1.255 . S
O1171 Eu1116 2.372 . S
O1171 C1190 1.257 . S
C1172 O1161 1.249 . S
C1172 O1162 1.264 . S
C1173 C1176 1.382 . S
C1173 C1178 1.390 . S
C1173 C1180 1.506 . S
C1174 C1175 1.398 . S
C1174 C1178 1.392 . S
C1175 C1174 1.398 . S
C1175 C1177 1.372 . S
C1175 H1192 0.931 . S
C1176 C1173 1.382 . S
C1176 C1177 1.390 . S
C1176 H1193 0.931 . S
C1177 C1175 1.372 . S
C1177 C1176 1.390 . S
C1177 H1194 0.929 . S
C1178 C1173 1.390 . S
C1178 C1174 1.392 . S
C1178 H1195 0.930 . S
C1179 O1164 1.255 . S
C1179 O1165 1.257 . S
C1180 Eu1116 2.787 . S
C1180 O1160 1.252 . S
C1180 O1163 1.268 . S
C1180 C1173 1.506 . S
C1181 C1148 1.439 . S
C1181 H1158 0.931 . S
C1181 C1182 1.374 . S
C1182 C1153 1.387 . S
C1182 H1159 0.931 . S
C1182 C1181 1.374 . S
C1183 O1167 1.249 . S
C1183 O1168 1.264 . S
C1184 C1187 1.382 . S
C1184 C1188 1.390 . S
C1184 C1191 1.506 . S
C1185 C1186 1.398 . S
C1185 C1188 1.392 . S
C1186 C1185 1.398 . S
C1186 C1189 1.372 . S
C1186 H1196 0.931 . S
C1187 C1184 1.382 . S
C1187 C1189 1.390 . S
C1187 H1197 0.931 . S
C1188 C1184 1.390 . S
C1188 C1185 1.392 . S
C1188 H1198 0.930 . S
C1189 C1186 1.372 . S
C1189 C1187 1.390 . S
C1189 H1199 0.929 . S
C1190 O1170 1.255 . S
C1190 O1171 1.257 . S
C1191 Eu1127 2.787 . S
C1191 O1166 1.252 . S
C1191 O1169 1.268 . S
C1191 C1184 1.506 . S
H1192 C1175 0.931 . S
H1193 C1176 0.931 . S
H1194 C1177 0.929 . S
H1195 C1178 0.930 . S
H1196 C1186 0.931 . S
H1197 C1187 0.931 . S
H1198 C1188 0.930 . S
H1199 C1189 0.929 . S
Eu1200 N1229 2.589 1_545 S
Eu1200 N1235 2.541 1_545 S
Eu1200 O1244 2.435 1_545 S
Eu1200 O1245 2.391 . S
Eu1200 O1247 2.407 1_545 S
Eu1200 O1248 2.301 . S
Eu1200 O1252 2.346 . S
Eu1200 O1255 2.393 . S
Eu1200 C1264 2.758 1_545 S
C1201 N1202 1.365 1_455 S
C1201 C1204 1.405 1_455 S
C1201 C1208 1.448 . S
N1202 C1201 1.365 1_655 S
N1202 C1205 1.319 . S
N1202 Eu1211 2.600 1_655 S
C1203 C1205 1.397 . S
C1203 C1206 1.367 . S
C1203 H1223 0.931 . S
C1204 C1201 1.405 1_655 S
C1204 C1206 1.403 . S
C1204 C1210 1.439 1_655 S
C1205 N1202 1.319 . S
C1205 C1203 1.397 . S
C1205 H1216 0.930 . S
C1206 C1203 1.367 . S
C1206 C1204 1.403 . S
C1206 H1227 0.929 . S
C1207 C1208 1.430 . S
C1207 C1209 1.387 . S
C1207 C1213 1.404 . S
C1208 C1201 1.448 . S
C1208 C1207 1.430 . S
C1208 N1212 1.351 . S
C1209 C1207 1.387 . S
C1209 C1210 1.374 . S
C1209 H1224 0.931 . S
C1210 C1204 1.439 1_455 S
C1210 C1209 1.374 . S
C1210 H1225 0.931 1_455 S
Eu1211 N1202 2.600 1_455 S
Eu1211 N1212 2.562 . S
Eu1211 O1246 2.335 . S
Eu1211 O1249 2.372 1_455 S
Eu1211 O1250 2.462 . S
Eu1211 O1251 2.373 . S
Eu1211 O1253 2.432 1_455 S
Eu1211 O1254 2.291 . S
Eu1211 C1275 2.787 . S
N1212 C1208 1.351 . S
N1212 Eu1211 2.562 . S
N1212 C1214 1.325 . S
C1213 C1207 1.404 . S
C1213 C1215 1.366 . S
C1213 H1221 0.930 . S
C1214 N1212 1.325 . S
C1214 C1215 1.416 . S
C1214 H1220 0.929 . S
C1215 C1213 1.366 . S
C1215 C1214 1.416 . S
C1215 H1217 0.930 . S
H1216 C1205 0.930 . S
H1217 C1215 0.930 . S
H1218 C1233 0.930 1_545 S
H1219 C1240 0.930 . S
H1220 C1214 0.929 . S
H1221 C1213 0.930 . S
H1222 C1236 0.929 . S
H1223 C1203 0.931 . S
H1224 C1209 0.931 . S
H1225 C1210 0.931 1_655 S
H1226 C1231 0.919 1_545 S
H1227 C1206 0.929 . S
H1228 C1239 0.930 . S
N1229 Eu1200 2.589 1_565 S
N1229 C1230 1.365 . S
N1229 C1233 1.319 . S
C1230 N1229 1.365 . S
C1230 C1232 1.405 . S
C1230 C1238 1.448 . S
C1231 H1226 0.919 1_565 S
C1231 C1233 1.397 . S
C1231 C1234 1.367 . S
C1232 C1230 1.405 . S
C1232 C1234 1.403 . S
C1232 C1265 1.439 . S
C1233 H1218 0.930 1_565 S
C1233 N1229 1.319 . S
C1233 C1231 1.397 . S
C1234 C1231 1.367 . S
C1234 C1232 1.403 . S
C1234 H1241 0.929 . S
N1235 Eu1200 2.541 1_565 S
N1235 C1236 1.325 1_455 S
N1235 C1238 1.351 . S
C1236 H1222 0.929 . S
C1236 N1235 1.325 1_655 S
C1236 C1240 1.416 . S
C1237 C1238 1.430 . S
C1237 C1239 1.404 1_455 S
C1237 C1266 1.387 . S
C1238 C1230 1.448 . S
C1238 N1235 1.351 . S
C1238 C1237 1.430 . S
C1239 H1228 0.930 . S
C1239 C1237 1.404 1_655 S
C1239 C1240 1.366 . S
C1240 H1219 0.930 . S
C1240 C1236 1.416 . S
C1240 C1239 1.366 . S
H1241 C1234 0.929 . S
H1242 C1265 0.931 . S
H1243 C1266 0.931 . S
O1244 Eu1200 2.435 1_565 S
O1244 C1264 1.252 . S
O1245 Eu1200 2.391 . S
O1245 C1256 1.249 . S
O1246 Eu1211 2.335 . S
O1246 C1256 1.264 . S
O1247 Eu1200 2.407 1_565 S
O1247 C1264 1.268 . S
O1248 Eu1200 2.301 . S
O1248 C1263 1.255 1_455 S
O1249 Eu1211 2.372 1_655 S
O1249 C1263 1.257 . S
O1250 Eu1211 2.462 . S
O1250 C1275 1.252 . S
O1251 Eu1211 2.373 . S
O1251 C1267 1.249 . S
O1252 Eu1200 2.346 . S
O1252 C1267 1.264 . S
O1253 Eu1211 2.432 1_655 S
O1253 C1275 1.268 1_655 S
O1254 Eu1211 2.291 . S
O1254 C1274 1.255 . S
O1255 Eu1200 2.393 . S
O1255 C1274 1.257 . S
C1256 O1245 1.249 . S
C1256 O1246 1.264 . S
C1257 C1260 1.382 . S
C1257 C1262 1.390 . S
C1257 C1264 1.506 . S
C1258 C1259 1.398 . S
C1258 C1262 1.392 . S
C1259 C1258 1.398 . S
C1259 C1261 1.372 . S
C1259 H1276 0.931 . S
C1260 C1257 1.382 . S
C1260 C1261 1.390 . S
C1260 H1277 0.931 . S
C1261 C1259 1.372 . S
C1261 C1260 1.390 . S
C1261 H1278 0.929 . S
C1262 C1257 1.390 . S
C1262 C1258 1.392 . S
C1262 H1279 0.930 . S
C1263 O1248 1.255 1_655 S
C1263 O1249 1.257 . S
C1264 Eu1200 2.758 1_565 S
C1264 O1244 1.252 . S
C1264 O1247 1.268 . S
C1264 C1257 1.506 . S
C1265 C1232 1.439 . S
C1265 H1242 0.931 . S
C1265 C1266 1.374 . S
C1266 C1237 1.387 . S
C1266 H1243 0.931 . S
C1266 C1265 1.374 . S
C1267 O1251 1.249 . S
C1267 O1252 1.264 . S
C1268 C1271 1.382 1_455 S
C1268 C1272 1.390 . S
C1268 C1275 1.506 . S
C1269 C1270 1.398 1_455 S
C1269 C1272 1.392 . S
C1270 C1269 1.398 1_655 S
C1270 C1273 1.372 . S
C1270 H1280 0.931 . S
C1271 C1268 1.382 1_655 S
C1271 C1273 1.390 . S
C1271 H1281 0.931 . S
C1272 C1268 1.390 . S
C1272 C1269 1.392 . S
C1272 H1282 0.930 . S
C1273 C1270 1.372 . S
C1273 C1271 1.390 . S
C1273 H1283 0.929 . S
C1274 O1254 1.255 . S
C1274 O1255 1.257 . S
C1275 Eu1211 2.787 . S
C1275 O1250 1.252 . S
C1275 O1253 1.268 1_455 S
C1275 C1268 1.506 . S
H1276 C1259 0.931 . S
H1277 C1260 0.931 . S
H1278 C1261 0.929 . S
H1279 C1262 0.930 . S
H1280 C1270 0.931 . S
H1281 C1271 0.931 . S
H1282 C1272 0.930 . S
H1283 C1273 0.929 . S
Eu1284 N1313 2.600 . S
Eu1284 N1319 2.562 . S
Eu1284 O1328 2.462 . S
Eu1284 O1329 2.373 . S
Eu1284 O1331 2.432 . S
Eu1284 O1332 2.291 . S
Eu1284 O1336 2.335 . S
Eu1284 O1339 2.372 . S
Eu1284 C1348 2.787 . S
C1285 N1286 1.365 . S
C1285 C1288 1.405 . S
C1285 C1292 1.448 . S
N1286 C1285 1.365 . S
N1286 C1289 1.319 . S
N1286 Eu1295 2.600 . S
C1287 C1289 1.397 . S
C1287 C1290 1.367 . S
C1287 H1307 0.931 . S
C1288 C1285 1.405 . S
C1288 C1290 1.403 . S
C1288 C1294 1.439 . S
C1289 N1286 1.319 . S
C1289 C1287 1.397 . S
C1289 H1300 0.930 . S
C1290 C1287 1.367 . S
C1290 C1288 1.403 . S
C1290 H1311 0.929 . S
C1291 C1292 1.430 . S
C1291 C1293 1.387 . S
C1291 C1297 1.404 . S
C1292 C1285 1.448 . S
C1292 C1291 1.430 . S
C1292 N1296 1.351 . S
C1293 C1291 1.387 . S
C1293 C1294 1.374 . S
C1293 H1308 0.931 . S
C1294 C1288 1.439 . S
C1294 C1293 1.374 . S
C1294 H1309 0.931 . S
Eu1295 N1286 2.600 . S
Eu1295 N1296 2.562 . S
Eu1295 O1330 2.335 . S
Eu1295 O1333 2.372 . S
Eu1295 O1334 2.462 . S
Eu1295 O1335 2.373 . S
Eu1295 O1337 2.432 . S
Eu1295 O1338 2.291 . S
Eu1295 C1359 2.787 . S
N1296 C1292 1.351 . S
N1296 Eu1295 2.562 . S
N1296 C1298 1.325 . S
C1297 C1291 1.404 . S
C1297 C1299 1.366 . S
C1297 H1305 0.930 . S
C1298 N1296 1.325 . S
C1298 C1299 1.416 . S
C1298 H1304 0.929 . S
C1299 C1297 1.366 . S
C1299 C1298 1.416 . S
C1299 H1301 0.930 . S
H1300 C1289 0.930 . S
H1301 C1299 0.930 . S
H1302 C1317 0.930 . S
H1303 C1324 0.930 . S
H1304 C1298 0.929 . S
H1305 C1297 0.930 . S
H1306 C1320 0.929 . S
H1307 C1287 0.931 . S
H1308 C1293 0.931 . S
H1309 C1294 0.931 . S
H1310 C1315 0.931 . S
H1311 C1290 0.929 . S
H1312 C1323 0.930 . S
N1313 Eu1284 2.600 . S
N1313 C1314 1.365 . S
N1313 C1317 1.319 . S
C1314 N1313 1.365 . S
C1314 C1316 1.405 . S
C1314 C1322 1.448 . S
C1315 H1310 0.931 . S
C1315 C1317 1.397 . S
C1315 C1318 1.367 . S
C1316 C1314 1.405 . S
C1316 C1318 1.403 . S
C1316 C1349 1.439 . S
C1317 H1302 0.930 . S
C1317 N1313 1.319 . S
C1317 C1315 1.397 . S
C1318 C1315 1.367 . S
C1318 C1316 1.403 . S
C1318 H1325 0.929 . S
N1319 Eu1284 2.562 . S
N1319 C1320 1.325 . S
N1319 C1322 1.351 . S
C1320 H1306 0.929 . S
C1320 N1319 1.325 . S
C1320 C1324 1.416 . S
C1321 C1322 1.430 . S
C1321 C1323 1.404 . S
C1321 C1350 1.387 . S
C1322 C1314 1.448 . S
C1322 N1319 1.351 . S
C1322 C1321 1.430 . S
C1323 H1312 0.930 . S
C1323 C1321 1.404 . S
C1323 C1324 1.366 . S
C1324 H1303 0.930 . S
C1324 C1320 1.416 . S
C1324 C1323 1.366 . S
H1325 C1318 0.929 . S
H1326 C1349 0.931 . S
H1327 C1350 0.931 . S
O1328 Eu1284 2.462 . S
O1328 C1348 1.252 . S
O1329 Eu1284 2.373 . S
O1329 C1340 1.249 . S
O1330 Eu1295 2.335 . S
O1330 C1340 1.264 . S
O1331 Eu1284 2.432 . S
O1331 C1348 1.268 . S
O1332 Eu1284 2.291 . S
O1332 C1347 1.255 . S
O1333 Eu1295 2.372 . S
O1333 C1347 1.257 . S
O1334 Eu1295 2.462 . S
O1334 C1359 1.252 . S
O1335 Eu1295 2.373 . S
O1335 C1351 1.249 . S
O1336 Eu1284 2.335 . S
O1336 C1351 1.264 . S
O1337 Eu1295 2.432 . S
O1337 C1359 1.268 . S
O1338 Eu1295 2.291 . S
O1338 C1358 1.255 . S
O1339 Eu1284 2.372 . S
O1339 C1358 1.257 . S
C1340 O1329 1.249 . S
C1340 O1330 1.264 . S
C1341 C1344 1.382 . S
C1341 C1346 1.390 . S
C1341 C1348 1.506 . S
C1342 C1343 1.398 . S
C1342 C1346 1.392 . S
C1343 C1342 1.398 . S
C1343 C1345 1.372 . S
C1343 H1360 0.931 . S
C1344 C1341 1.382 . S
C1344 C1345 1.390 . S
C1344 H1361 0.931 . S
C1345 C1343 1.372 . S
C1345 C1344 1.390 . S
C1345 H1362 0.929 . S
C1346 C1341 1.390 . S
C1346 C1342 1.392 . S
C1346 H1363 0.930 . S
C1347 O1332 1.255 . S
C1347 O1333 1.257 . S
C1348 Eu1284 2.787 . S
C1348 O1328 1.252 . S
C1348 O1331 1.268 . S
C1348 C1341 1.506 . S
C1349 C1316 1.439 . S
C1349 H1326 0.931 . S
C1349 C1350 1.374 . S
C1350 C1321 1.387 . S
C1350 H1327 0.931 . S
C1350 C1349 1.374 . S
C1351 O1335 1.249 . S
C1351 O1336 1.264 . S
C1352 C1355 1.382 . S
C1352 C1356 1.390 . S
C1352 C1359 1.506 . S
C1353 C1354 1.398 . S
C1353 C1356 1.392 . S
C1354 C1353 1.398 . S
C1354 C1357 1.372 . S
C1354 H1364 0.931 . S
C1355 C1352 1.382 . S
C1355 C1357 1.390 . S
C1355 H1365 0.931 . S
C1356 C1352 1.390 . S
C1356 C1353 1.392 . S
C1356 H1366 0.930 . S
C1357 C1354 1.372 . S
C1357 C1355 1.390 . S
C1357 H1367 0.929 . S
C1358 O1338 1.255 . S
C1358 O1339 1.257 . S
C1359 Eu1295 2.787 . S
C1359 O1334 1.252 . S
C1359 O1337 1.268 . S
C1359 C1352 1.506 . S
H1360 C1343 0.931 . S
H1361 C1344 0.931 . S
H1362 C1345 0.929 . S
H1363 C1346 0.930 . S
H1364 C1354 0.931 . S
H1365 C1355 0.931 . S
H1366 C1356 0.930 . S
H1367 C1357 0.929 . S
Eu1368 N1397 2.608 . S
Eu1368 N1403 2.582 . S
Eu1368 O1412 2.486 . S
Eu1368 O1413 2.359 1_556 S
Eu1368 O1415 2.450 . S
Eu1368 O1416 2.287 1_556 S
Eu1368 O1420 2.325 1_556 S
Eu1368 O1423 2.351 1_556 S
Eu1368 C1432 2.811 . S
C1369 N1370 1.365 1_545 S
C1369 C1372 1.405 1_545 S
C1369 C1376 1.448 . S
N1370 C1369 1.365 1_565 S
N1370 C1373 1.319 . S
N1370 Eu1379 2.600 1_565 S
C1371 C1373 1.397 . S
C1371 C1374 1.367 . S
C1371 H1391 0.931 . S
C1372 C1369 1.405 1_565 S
C1372 C1374 1.403 . S
C1372 C1378 1.439 1_565 S
C1373 N1370 1.319 . S
C1373 C1371 1.397 . S
C1373 H1384 0.930 . S
C1374 C1371 1.367 . S
C1374 C1372 1.403 . S
C1374 H1395 0.929 . S
C1375 C1376 1.430 . S
C1375 C1377 1.387 . S
C1375 C1381 1.404 . S
C1376 C1369 1.448 . S
C1376 C1375 1.430 . S
C1376 N1380 1.351 . S
C1377 C1375 1.387 . S
C1377 C1378 1.374 . S
C1377 H1392 0.931 . S
C1378 C1372 1.439 1_545 S
C1378 C1377 1.374 . S
C1378 H1393 0.931 1_545 S
Eu1379 N1370 2.600 1_545 S
Eu1379 N1380 2.562 . S
Eu1379 O1414 2.335 . S
Eu1379 O1417 2.372 1_545 S
Eu1379 O1418 2.462 . S
Eu1379 O1419 2.373 . S
Eu1379 O1421 2.432 1_545 S
Eu1379 O1422 2.291 . S
Eu1379 C1443 2.787 . S
N1380 C1376 1.351 . S
N1380 Eu1379 2.562 . S
N1380 C1382 1.325 . S
C1381 C1375 1.404 . S
C1381 C1383 1.366 . S
C1381 H1389 0.930 . S
C1382 N1380 1.325 . S
C1382 C1383 1.416 . S
C1382 H1388 0.929 . S
C1383 C1381 1.366 . S
C1383 C1382 1.416 . S
C1383 H1385 0.930 . S
H1384 C1373 0.930 . S
H1385 C1383 0.930 . S
H1386 C1401 0.930 1_554 S
H1387 C1408 0.930 1_565 S
H1388 C1382 0.929 . S
H1389 C1381 0.930 . S
H1390 C1404 0.929 . S
H1391 C1371 0.931 . S
H1392 C1377 0.931 . S
H1393 C1378 0.931 1_565 S
H1394 C1399 0.931 1_554 S
H1395 C1374 0.929 . S
H1396 C1407 0.930 . S
N1397 Eu1368 2.608 . S
N1397 C1398 1.365 . S
N1397 C1401 1.319 . S
C1398 N1397 1.365 . S
C1398 C1400 1.405 . S
C1398 C1406 1.448 . S
C1399 H1394 0.931 1_556 S
C1399 C1401 1.397 . S
C1399 C1402 1.367 . S
C1400 C1398 1.405 . S
C1400 C1402 1.403 . S
C1400 C1433 1.439 . S
C1401 H1386 0.930 1_556 S
C1401 N1397 1.319 . S
C1401 C1399 1.397 . S
C1402 C1399 1.367 . S
C1402 C1400 1.403 . S
C1402 H1409 0.929 . S
N1403 Eu1368 2.582 . S
N1403 C1404 1.325 . S
N1403 C1406 1.351 . S
C1404 H1390 0.929 . S
C1404 N1403 1.325 . S
C1404 C1408 1.416 . S
C1405 C1406 1.430 . S
C1405 C1407 1.404 . S
C1405 C1434 1.387 . S
C1406 C1398 1.448 . S
C1406 N1403 1.351 . S
C1406 C1405 1.430 . S
C1407 H1396 0.930 . S
C1407 C1405 1.404 . S
C1407 C1408 1.366 . S
C1408 H1387 0.930 1_545 S
C1408 C1404 1.416 . S
C1408 C1407 1.366 . S
H1409 C1402 0.929 . S
H1410 C1433 0.931 . S
H1411 C1434 0.931 . S
O1412 Eu1368 2.486 . S
O1412 C1432 1.252 . S
O1413 Eu1368 2.359 1_554 S
O1413 C1424 1.249 . S
O1414 Eu1379 2.335 . S
O1414 C1424 1.264 . S
O1415 Eu1368 2.450 . S
O1415 C1432 1.268 . S
O1416 Eu1368 2.287 1_554 S
O1416 C1431 1.255 1_545 S
O1417 Eu1379 2.372 1_565 S
O1417 C1431 1.257 . S
O1418 Eu1379 2.462 . S
O1418 C1443 1.252 . S
O1419 Eu1379 2.373 . S
O1419 C1435 1.249 . S
O1420 Eu1368 2.325 1_554 S
O1420 C1435 1.264 . S
O1421 Eu1379 2.432 1_565 S
O1421 C1443 1.268 1_565 S
O1422 Eu1379 2.291 . S
O1422 C1442 1.255 . S
O1423 Eu1368 2.351 1_554 S
O1423 C1442 1.257 . S
C1424 O1413 1.249 . S
C1424 O1414 1.264 . S
C1425 C1428 1.382 . S
C1425 C1430 1.390 . S
C1425 C1432 1.506 . S
C1426 C1427 1.398 . S
C1426 C1430 1.392 . S
C1427 C1426 1.398 . S
C1427 C1429 1.372 . S
C1427 H1444 0.931 . S
C1428 C1425 1.382 . S
C1428 C1429 1.390 . S
C1428 H1445 0.931 . S
C1429 C1427 1.372 . S
C1429 C1428 1.390 . S
C1429 H1446 0.929 . S
C1430 C1425 1.390 . S
C1430 C1426 1.392 . S
C1430 H1447 0.930 . S
C1431 O1416 1.255 1_565 S
C1431 O1417 1.257 . S
C1432 Eu1368 2.811 . S
C1432 O1412 1.252 . S
C1432 O1415 1.268 . S
C1432 C1425 1.506 . S
C1433 C1400 1.439 . S
C1433 H1410 0.931 . S
C1433 C1434 1.374 . S
C1434 C1405 1.387 . S
C1434 H1411 0.931 . S
C1434 C1433 1.374 . S
C1435 O1419 1.249 . S
C1435 O1420 1.264 . S
C1436 C1439 1.382 . S
C1436 C1440 1.390 1_565 S
C1436 C1443 1.506 1_565 S
C1437 C1438 1.398 1_545 S
C1437 C1440 1.392 . S
C1438 C1437 1.398 1_565 S
C1438 C1441 1.372 . S
C1438 H1448 0.931 . S
C1439 C1436 1.382 . S
C1439 C1441 1.390 . S
C1439 H1449 0.931 . S
C1440 C1436 1.390 1_545 S
C1440 C1437 1.392 . S
C1440 H1450 0.930 . S
C1441 C1438 1.372 . S
C1441 C1439 1.390 . S
C1441 H1451 0.929 . S
C1442 O1422 1.255 . S
C1442 O1423 1.257 . S
C1443 Eu1379 2.787 . S
C1443 O1418 1.252 . S
C1443 O1421 1.268 1_545 S
C1443 C1436 1.506 1_545 S
H1444 C1427 0.931 . S
H1445 C1428 0.931 . S
H1446 C1429 0.929 . S
H1447 C1430 0.930 . S
H1448 C1438 0.931 . S
H1449 C1439 0.931 . S
H1450 C1440 0.930 . S
H1451 C1441 0.929 . S
Eu1452 N1481 2.600 . S
Eu1452 N1487 2.562 . S
Eu1452 O1496 2.462 . S
Eu1452 O1497 2.373 . S
Eu1452 O1499 2.432 . S
Eu1452 O1500 2.291 . S
Eu1452 O1504 2.335 . S
Eu1452 O1507 2.372 . S
Eu1452 C1516 2.787 . S
C1453 N1454 1.365 . S
C1453 C1456 1.405 . S
C1453 C1460 1.448 . S
N1454 C1453 1.365 . S
N1454 C1457 1.319 . S
N1454 Eu1463 2.600 . S
C1455 C1457 1.397 . S
C1455 C1458 1.367 . S
C1455 H1475 0.931 . S
C1456 C1453 1.405 . S
C1456 C1458 1.403 . S
C1456 C1462 1.439 . S
C1457 N1454 1.319 . S
C1457 C1455 1.397 . S
C1457 H1468 0.930 . S
C1458 C1455 1.367 . S
C1458 C1456 1.403 . S
C1458 H1479 0.929 . S
C1459 C1460 1.430 . S
C1459 C1461 1.387 . S
C1459 C1465 1.404 . S
C1460 C1453 1.448 . S
C1460 C1459 1.430 . S
C1460 N1464 1.351 . S
C1461 C1459 1.387 . S
C1461 C1462 1.374 . S
C1461 H1476 0.931 . S
C1462 C1456 1.439 . S
C1462 C1461 1.374 . S
C1462 H1477 0.931 . S
Eu1463 N1454 2.600 . S
Eu1463 N1464 2.562 . S
Eu1463 O1498 2.335 . S
Eu1463 O1501 2.372 . S
Eu1463 O1502 2.462 . S
Eu1463 O1503 2.373 . S
Eu1463 O1505 2.432 . S
Eu1463 O1506 2.291 . S
Eu1463 C1527 2.787 . S
N1464 C1460 1.351 . S
N1464 Eu1463 2.562 . S
N1464 C1466 1.325 . S
C1465 C1459 1.404 . S
C1465 C1467 1.366 . S
C1465 H1473 0.930 . S
C1466 N1464 1.325 . S
C1466 C1467 1.416 . S
C1466 H1472 0.929 . S
C1467 C1465 1.366 . S
C1467 C1466 1.416 . S
C1467 H1469 0.930 . S
H1468 C1457 0.930 . S
H1469 C1467 0.930 . S
H1470 C1485 0.930 . S
H1471 C1492 0.930 . S
H1472 C1466 0.929 . S
H1473 C1465 0.930 . S
H1474 C1488 0.929 . S
H1475 C1455 0.931 . S
H1476 C1461 0.931 . S
H1477 C1462 0.931 . S
H1478 C1483 0.931 . S
H1479 C1458 0.929 . S
H1480 C1491 0.930 . S
N1481 Eu1452 2.600 . S
N1481 C1482 1.365 . S
N1481 C1485 1.319 . S
C1482 N1481 1.365 . S
C1482 C1484 1.405 . S
C1482 C1490 1.448 . S
C1483 H1478 0.931 . S
C1483 C1485 1.397 . S
C1483 C1486 1.367 . S
C1484 C1482 1.405 . S
C1484 C1486 1.403 . S
C1484 C1517 1.439 . S
C1485 H1470 0.930 . S
C1485 N1481 1.319 . S
C1485 C1483 1.397 . S
C1486 C1483 1.367 . S
C1486 C1484 1.403 . S
C1486 H1493 0.929 . S
N1487 Eu1452 2.562 . S
N1487 C1488 1.325 . S
N1487 C1490 1.351 . S
C1488 H1474 0.929 . S
C1488 N1487 1.325 . S
C1488 C1492 1.416 . S
C1489 C1490 1.430 . S
C1489 C1491 1.404 . S
C1489 C1518 1.387 . S
C1490 C1482 1.448 . S
C1490 N1487 1.351 . S
C1490 C1489 1.430 . S
C1491 H1480 0.930 . S
C1491 C1489 1.404 . S
C1491 C1492 1.366 . S
C1492 H1471 0.930 . S
C1492 C1488 1.416 . S
C1492 C1491 1.366 . S
H1493 C1486 0.929 . S
H1494 C1517 0.931 . S
H1495 C1518 0.931 . S
O1496 Eu1452 2.462 . S
O1496 C1516 1.252 . S
O1497 Eu1452 2.373 . S
O1497 C1508 1.249 . S
O1498 Eu1463 2.335 . S
O1498 C1508 1.264 . S
O1499 Eu1452 2.432 . S
O1499 C1516 1.268 . S
O1500 Eu1452 2.291 . S
O1500 C1515 1.255 . S
O1501 Eu1463 2.372 . S
O1501 C1515 1.257 . S
O1502 Eu1463 2.462 . S
O1502 C1527 1.252 . S
O1503 Eu1463 2.373 . S
O1503 C1519 1.249 . S
O1504 Eu1452 2.335 . S
O1504 C1519 1.264 . S
O1505 Eu1463 2.432 . S
O1505 C1527 1.268 . S
O1506 Eu1463 2.291 . S
O1506 C1526 1.255 . S
O1507 Eu1452 2.372 . S
O1507 C1526 1.257 . S
C1508 O1497 1.249 . S
C1508 O1498 1.264 . S
C1509 C1512 1.382 . S
C1509 C1514 1.390 . S
C1509 C1516 1.506 . S
C1510 C1511 1.398 . S
C1510 C1514 1.392 . S
C1511 C1510 1.398 . S
C1511 C1513 1.372 . S
C1511 H1528 0.931 . S
C1512 C1509 1.382 . S
C1512 C1513 1.390 . S
C1512 H1529 0.931 . S
C1513 C1511 1.372 . S
C1513 C1512 1.390 . S
C1513 H1530 0.929 . S
C1514 C1509 1.390 . S
C1514 C1510 1.392 . S
C1514 H1531 0.930 . S
C1515 O1500 1.255 . S
C1515 O1501 1.257 . S
C1516 Eu1452 2.787 . S
C1516 O1496 1.252 . S
C1516 O1499 1.268 . S
C1516 C1509 1.506 . S
C1517 C1484 1.439 . S
C1517 H1494 0.931 . S
C1517 C1518 1.374 . S
C1518 C1489 1.387 . S
C1518 H1495 0.931 . S
C1518 C1517 1.374 . S
C1519 O1503 1.249 . S
C1519 O1504 1.264 . S
C1520 C1523 1.382 . S
C1520 C1524 1.390 . S
C1520 C1527 1.506 . S
C1521 C1522 1.398 . S
C1521 C1524 1.392 . S
C1522 C1521 1.398 . S
C1522 C1525 1.372 . S
C1522 H1532 0.931 . S
C1523 C1520 1.382 . S
C1523 C1525 1.390 . S
C1523 H1533 0.931 . S
C1524 C1520 1.390 . S
C1524 C1521 1.392 . S
C1524 H1534 0.930 . S
C1525 C1522 1.372 . S
C1525 C1523 1.390 . S
C1525 H1535 0.929 . S
C1526 O1506 1.255 . S
C1526 O1507 1.257 . S
C1527 Eu1463 2.787 . S
C1527 O1502 1.252 . S
C1527 O1505 1.268 . S
C1527 C1520 1.506 . S
H1528 C1511 0.931 . S
H1529 C1512 0.931 . S
H1530 C1513 0.929 . S
H1531 C1514 0.930 . S
H1532 C1522 0.931 . S
H1533 C1523 0.931 . S
H1534 C1524 0.930 . S
H1535 C1525 0.929 . S
Eu1536 N1565 2.600 1_554 S
Eu1536 N1571 2.562 1_554 S
Eu1536 O1580 2.462 . S
Eu1536 O1581 2.373 1_554 S
Eu1536 O1583 2.432 . S
Eu1536 O1584 2.291 . S
Eu1536 O1588 2.335 . S
Eu1536 O1591 2.372 . S
Eu1536 C1600 2.787 . S
C1537 N1538 1.365 . S
C1537 C1540 1.405 . S
C1537 C1544 1.448 . S
N1538 C1537 1.365 . S
N1538 C1541 1.319 . S
N1538 Eu1547 2.600 . S
C1539 C1541 1.397 . S
C1539 C1542 1.367 . S
C1539 H1559 0.931 . S
C1540 C1537 1.405 . S
C1540 C1542 1.403 . S
C1540 C1546 1.439 . S
C1541 N1538 1.319 . S
C1541 C1539 1.397 . S
C1541 H1552 0.930 . S
C1542 C1539 1.367 . S
C1542 C1540 1.403 . S
C1542 H1563 0.929 . S
C1543 C1544 1.430 . S
C1543 C1545 1.387 . S
C1543 C1549 1.404 . S
C1544 C1537 1.448 . S
C1544 C1543 1.430 . S
C1544 N1548 1.351 . S
C1545 C1543 1.387 . S
C1545 C1546 1.374 . S
C1545 H1560 0.931 . S
C1546 C1540 1.439 . S
C1546 C1545 1.374 . S
C1546 H1561 0.931 . S
Eu1547 N1538 2.600 . S
Eu1547 N1548 2.562 . S
Eu1547 O1582 2.335 1_554 S
Eu1547 O1585 2.372 . S
Eu1547 O1586 2.462 . S
Eu1547 O1587 2.373 . S
Eu1547 O1589 2.432 . S
Eu1547 O1590 2.291 . S
Eu1547 C1611 2.787 . S
N1548 C1544 1.351 . S
N1548 Eu1547 2.562 . S
N1548 C1550 1.325 . S
C1549 C1543 1.404 . S
C1549 C1551 1.366 . S
C1549 H1557 0.930 . S
C1550 N1548 1.325 . S
C1550 C1551 1.416 . S
C1550 H1556 0.929 . S
C1551 C1549 1.366 . S
C1551 C1550 1.416 . S
C1551 H1553 0.930 . S
H1552 C1541 0.930 . S
H1553 C1551 0.930 . S
H1554 C1569 0.930 1_554 S
H1555 C1576 0.930 . S
H1556 C1550 0.929 . S
H1557 C1549 0.930 . S
H1558 C1572 0.929 1_554 S
H1559 C1539 0.931 . S
H1560 C1545 0.931 . S
H1561 C1546 0.931 . S
H1562 C1567 0.931 . S
H1563 C1542 0.929 . S
H1564 C1575 0.930 . S
N1565 Eu1536 2.600 1_556 S
N1565 C1566 1.365 . S
N1565 C1569 1.319 . S
C1566 N1565 1.365 . S
C1566 C1568 1.405 . S
C1566 C1574 1.448 . S
C1567 H1562 0.931 . S
C1567 C1569 1.397 . S
C1567 C1570 1.367 . S
C1568 C1566 1.405 . S
C1568 C1570 1.403 . S
C1568 C1601 1.439 . S
C1569 H1554 0.930 1_556 S
C1569 N1565 1.319 . S
C1569 C1567 1.397 . S
C1570 C1567 1.367 . S
C1570 C1568 1.403 . S
C1570 H1577 0.929 . S
N1571 Eu1536 2.562 1_556 S
N1571 C1572 1.325 . S
N1571 C1574 1.351 . S
C1572 H1558 0.929 1_556 S
C1572 N1571 1.325 . S
C1572 C1576 1.416 . S
C1573 C1574 1.430 . S
C1573 C1575 1.404 . S
C1573 C1602 1.387 . S
C1574 C1566 1.448 . S
C1574 N1571 1.351 . S
C1574 C1573 1.430 . S
C1575 H1564 0.930 . S
C1575 C1573 1.404 . S
C1575 C1576 1.366 . S
C1576 H1555 0.930 . S
C1576 C1572 1.416 . S
C1576 C1575 1.366 . S
H1577 C1570 0.929 . S
H1578 C1601 0.931 . S
H1579 C1602 0.931 . S
O1580 Eu1536 2.462 . S
O1580 C1600 1.252 . S
O1581 Eu1536 2.373 1_556 S
O1581 C1592 1.249 . S
O1582 Eu1547 2.335 1_556 S
O1582 C1592 1.264 . S
O1583 Eu1536 2.432 . S
O1583 C1600 1.268 . S
O1584 Eu1536 2.291 . S
O1584 C1599 1.255 . S
O1585 Eu1547 2.372 . S
O1585 C1599 1.257 . S
O1586 Eu1547 2.462 . S
O1586 C1611 1.252 . S
O1587 Eu1547 2.373 . S
O1587 C1603 1.249 . S
O1588 Eu1536 2.335 . S
O1588 C1603 1.264 . S
O1589 Eu1547 2.432 . S
O1589 C1611 1.268 . S
O1590 Eu1547 2.291 . S
O1590 C1610 1.255 . S
O1591 Eu1536 2.372 . S
O1591 C1610 1.257 . S
C1592 O1581 1.249 . S
C1592 O1582 1.264 . S
C1593 C1596 1.382 . S
C1593 C1598 1.390 . S
C1593 C1600 1.506 . S
C1594 C1595 1.398 . S
C1594 C1598 1.392 . S
C1595 C1594 1.398 . S
C1595 C1597 1.372 . S
C1595 H1612 0.931 . S
C1596 C1593 1.382 . S
C1596 C1597 1.390 . S
C1596 H1613 0.931 . S
C1597 C1595 1.372 . S
C1597 C1596 1.390 . S
C1597 H1614 0.929 . S
C1598 C1593 1.390 . S
C1598 C1594 1.392 . S
C1598 H1615 0.930 . S
C1599 O1584 1.255 . S
C1599 O1585 1.257 . S
C1600 Eu1536 2.787 . S
C1600 O1580 1.252 . S
C1600 O1583 1.268 . S
C1600 C1593 1.506 . S
C1601 C1568 1.439 . S
C1601 H1578 0.931 . S
C1601 C1602 1.374 . S
C1602 C1573 1.387 . S
C1602 H1579 0.931 . S
C1602 C1601 1.374 . S
C1603 O1587 1.249 . S
C1603 O1588 1.264 . S
C1604 C1607 1.382 . S
C1604 C1608 1.390 . S
C1604 C1611 1.506 1_556 S
C1605 C1606 1.398 . S
C1605 C1608 1.392 . S
C1606 C1605 1.398 . S
C1606 C1609 1.372 . S
C1606 H1616 0.931 . S
C1607 C1604 1.382 . S
C1607 C1609 1.390 . S
C1607 H1617 0.931 . S
C1608 C1604 1.390 . S
C1608 C1605 1.392 . S
C1608 H1618 0.930 . S
C1609 C1606 1.372 . S
C1609 C1607 1.390 . S
C1609 H1619 0.929 . S
C1610 O1590 1.255 . S
C1610 O1591 1.257 . S
C1611 Eu1547 2.787 . S
C1611 O1586 1.252 . S
C1611 O1589 1.268 . S
C1611 C1604 1.506 1_554 S
H1612 C1595 0.931 . S
H1613 C1596 0.931 . S
H1614 C1597 0.929 . S
H1615 C1598 0.930 . S
H1616 C1606 0.931 . S
H1617 C1607 0.931 . S
H1618 C1608 0.930 . S
H1619 C1609 0.929 . S
Eu1620 N1649 2.600 . S
Eu1620 N1655 2.562 . S
Eu1620 O1664 2.462 . S
Eu1620 O1665 2.373 . S
Eu1620 O1667 2.432 . S
Eu1620 O1668 2.291 . S
Eu1620 O1672 2.335 . S
Eu1620 O1675 2.372 . S
Eu1620 C1684 2.787 . S
C1621 N1622 1.365 . S
C1621 C1624 1.405 . S
C1621 C1628 1.448 . S
N1622 C1621 1.365 . S
N1622 C1625 1.319 . S
N1622 Eu1631 2.600 . S
C1623 C1625 1.397 . S
C1623 C1626 1.367 . S
C1623 H1643 0.931 . S
C1624 C1621 1.405 . S
C1624 C1626 1.403 . S
C1624 C1630 1.439 . S
C1625 N1622 1.319 . S
C1625 C1623 1.397 . S
C1625 H1636 0.930 . S
C1626 C1623 1.367 . S
C1626 C1624 1.403 . S
C1626 H1647 0.929 . S
C1627 C1628 1.430 . S
C1627 C1629 1.387 . S
C1627 C1633 1.404 . S
C1628 C1621 1.448 . S
C1628 C1627 1.430 . S
C1628 N1632 1.351 . S
C1629 C1627 1.387 . S
C1629 C1630 1.374 . S
C1629 H1644 0.931 . S
C1630 C1624 1.439 . S
C1630 C1629 1.374 . S
C1630 H1645 0.931 . S
Eu1631 N1622 2.600 . S
Eu1631 N1632 2.562 . S
Eu1631 O1666 2.335 . S
Eu1631 O1669 2.372 . S
Eu1631 O1670 2.462 . S
Eu1631 O1671 2.373 . S
Eu1631 O1673 2.432 . S
Eu1631 O1674 2.291 . S
Eu1631 C1695 2.787 . S
N1632 C1628 1.351 . S
N1632 Eu1631 2.562 . S
N1632 C1634 1.325 . S
C1633 C1627 1.404 . S
C1633 C1635 1.366 . S
C1633 H1641 0.930 . S
C1634 N1632 1.325 . S
C1634 C1635 1.416 . S
C1634 H1640 0.929 . S
C1635 C1633 1.366 . S
C1635 C1634 1.416 . S
C1635 H1637 0.930 . S
H1636 C1625 0.930 . S
H1637 C1635 0.930 . S
H1638 C1653 0.930 . S
H1639 C1660 0.930 . S
H1640 C1634 0.929 . S
H1641 C1633 0.930 . S
H1642 C1656 0.929 . S
H1643 C1623 0.931 . S
H1644 C1629 0.931 . S
H1645 C1630 0.931 . S
H1646 C1651 0.931 . S
H1647 C1626 0.929 . S
H1648 C1659 0.930 . S
N1649 Eu1620 2.600 . S
N1649 C1650 1.365 . S
N1649 C1653 1.319 . S
C1650 N1649 1.365 . S
C1650 C1652 1.405 . S
C1650 C1658 1.448 . S
C1651 H1646 0.931 . S
C1651 C1653 1.397 . S
C1651 C1654 1.367 . S
C1652 C1650 1.405 . S
C1652 C1654 1.403 . S
C1652 C1685 1.439 . S
C1653 H1638 0.930 . S
C1653 N1649 1.319 . S
C1653 C1651 1.397 . S
C1654 C1651 1.367 . S
C1654 C1652 1.403 . S
C1654 H1661 0.929 . S
N1655 Eu1620 2.562 . S
N1655 C1656 1.325 . S
N1655 C1658 1.351 . S
C1656 H1642 0.929 . S
C1656 N1655 1.325 . S
C1656 C1660 1.416 . S
C1657 C1658 1.430 . S
C1657 C1659 1.404 . S
C1657 C1686 1.387 . S
C1658 C1650 1.448 . S
C1658 N1655 1.351 . S
C1658 C1657 1.430 . S
C1659 H1648 0.930 . S
C1659 C1657 1.404 . S
C1659 C1660 1.366 . S
C1660 H1639 0.930 . S
C1660 C1656 1.416 . S
C1660 C1659 1.366 . S
H1661 C1654 0.929 . S
H1662 C1685 0.931 . S
H1663 C1686 0.931 . S
O1664 Eu1620 2.462 . S
O1664 C1684 1.252 . S
O1665 Eu1620 2.373 . S
O1665 C1676 1.249 . S
O1666 Eu1631 2.335 . S
O1666 C1676 1.264 . S
O1667 Eu1620 2.432 . S
O1667 C1684 1.268 . S
O1668 Eu1620 2.291 . S
O1668 C1683 1.255 . S
O1669 Eu1631 2.372 . S
O1669 C1683 1.257 . S
O1670 Eu1631 2.462 . S
O1670 C1695 1.252 . S
O1671 Eu1631 2.373 . S
O1671 C1687 1.249 . S
O1672 Eu1620 2.335 . S
O1672 C1687 1.264 . S
O1673 Eu1631 2.432 . S
O1673 C1695 1.268 . S
O1674 Eu1631 2.291 . S
O1674 C1694 1.255 . S
O1675 Eu1620 2.372 . S
O1675 C1694 1.257 . S
C1676 O1665 1.249 . S
C1676 O1666 1.264 . S
C1677 C1680 1.382 . S
C1677 C1682 1.390 . S
C1677 C1684 1.506 . S
C1678 C1679 1.398 . S
C1678 C1682 1.392 . S
C1679 C1678 1.398 . S
C1679 C1681 1.372 . S
C1679 H1696 0.931 . S
C1680 C1677 1.382 . S
C1680 C1681 1.390 . S
C1680 H1697 0.931 . S
C1681 C1679 1.372 . S
C1681 C1680 1.390 . S
C1681 H1698 0.929 . S
C1682 C1677 1.390 . S
C1682 C1678 1.392 . S
C1682 H1699 0.930 . S
C1683 O1668 1.255 . S
C1683 O1669 1.257 . S
C1684 Eu1620 2.787 . S
C1684 O1664 1.252 . S
C1684 O1667 1.268 . S
C1684 C1677 1.506 . S
C1685 C1652 1.439 . S
C1685 H1662 0.931 . S
C1685 C1686 1.374 . S
C1686 C1657 1.387 . S
C1686 H1663 0.931 . S
C1686 C1685 1.374 . S
C1687 O1671 1.249 . S
C1687 O1672 1.264 . S
C1688 C1691 1.382 . S
C1688 C1692 1.390 . S
C1688 C1695 1.506 . S
C1689 C1690 1.398 . S
C1689 C1692 1.392 . S
C1690 C1689 1.398 . S
C1690 C1693 1.372 . S
C1690 H1700 0.931 . S
C1691 C1688 1.382 . S
C1691 C1693 1.390 . S
C1691 H1701 0.931 . S
C1692 C1688 1.390 . S
C1692 C1689 1.392 . S
C1692 H1702 0.930 . S
C1693 C1690 1.372 . S
C1693 C1691 1.390 . S
C1693 H1703 0.929 . S
C1694 O1674 1.255 . S
C1694 O1675 1.257 . S
C1695 Eu1631 2.787 . S
C1695 O1670 1.252 . S
C1695 O1673 1.268 . S
C1695 C1688 1.506 . S
H1696 C1679 0.931 . S
H1697 C1680 0.931 . S
H1698 C1681 0.929 . S
H1699 C1682 0.930 . S
H1700 C1690 0.931 . S
H1701 C1691 0.931 . S
H1702 C1692 0.930 . S
H1703 C1693 0.929 . S
Eu1704 N1733 2.609 . S
Eu1704 N1739 2.562 1_455 S
Eu1704 O1748 2.462 . S
Eu1704 O1749 2.373 1_455 S
Eu1704 O1751 2.432 . S
Eu1704 O1752 2.291 . S
Eu1704 O1756 2.335 . S
Eu1704 O1759 2.372 . S
Eu1704 C1768 2.787 . S
C1705 N1706 1.365 . S
C1705 C1708 1.405 . S
C1705 C1712 1.448 . S
N1706 C1705 1.365 . S
N1706 C1709 1.319 . S
N1706 Eu1715 2.600 . S
C1707 C1709 1.397 . S
C1707 C1710 1.367 . S
C1707 H1727 0.931 . S
C1708 C1705 1.405 . S
C1708 C1710 1.403 . S
C1708 C1714 1.439 . S
C1709 N1706 1.319 . S
C1709 C1707 1.397 . S
C1709 H1720 0.930 . S
C1710 C1707 1.367 . S
C1710 C1708 1.403 . S
C1710 H1731 0.929 . S
C1711 C1712 1.430 . S
C1711 C1713 1.387 . S
C1711 C1717 1.404 . S
C1712 C1705 1.448 . S
C1712 C1711 1.430 . S
C1712 N1716 1.351 . S
C1713 C1711 1.387 . S
C1713 C1714 1.374 . S
C1713 H1728 0.931 . S
C1714 C1708 1.439 . S
C1714 C1713 1.374 . S
C1714 H1729 0.931 . S
Eu1715 N1706 2.600 . S
Eu1715 N1716 2.562 . S
Eu1715 O1750 2.335 1_455 S
Eu1715 O1753 2.372 . S
Eu1715 O1754 2.462 . S
Eu1715 O1755 2.373 . S
Eu1715 O1757 2.432 . S
Eu1715 O1758 2.291 . S
Eu1715 C1779 2.787 . S
N1716 C1712 1.351 . S
N1716 Eu1715 2.562 . S
N1716 C1718 1.325 . S
C1717 C1711 1.404 . S
C1717 C1719 1.366 . S
C1717 H1725 0.930 . S
C1718 N1716 1.325 . S
C1718 C1719 1.416 . S
C1718 H1724 0.929 . S
C1719 C1717 1.366 . S
C1719 C1718 1.416 . S
C1719 H1721 0.930 . S
H1720 C1709 0.930 . S
H1721 C1719 0.930 . S
H1722 C1737 0.930 . S
H1723 C1744 0.930 . S
H1724 C1718 0.929 . S
H1725 C1717 0.930 . S
H1726 C1740 0.929 1_455 S
H1727 C1707 0.931 . S
H1728 C1713 0.931 . S
H1729 C1714 0.931 . S
H1730 C1735 0.931 . S
H1731 C1710 0.929 . S
H1732 C1743 0.930 . S
N1733 Eu1704 2.609 . S
N1733 C1734 1.357 1_455 S
N1733 C1737 1.316 . S
C1734 N1733 1.357 1_655 S
C1734 C1736 1.405 . S
C1734 C1742 1.448 . S
C1735 H1730 0.931 . S
C1735 C1737 1.397 1_655 S
C1735 C1738 1.367 . S
C1736 C1734 1.405 . S
C1736 C1738 1.403 . S
C1736 C1769 1.439 . S
C1737 H1722 0.930 . S
C1737 N1733 1.316 . S
C1737 C1735 1.397 1_455 S
C1738 C1735 1.367 . S
C1738 C1736 1.403 . S
C1738 H1745 0.929 . S
N1739 Eu1704 2.562 1_655 S
N1739 C1740 1.325 . S
N1739 C1742 1.351 . S
C1740 H1726 0.929 1_655 S
C1740 N1739 1.325 . S
C1740 C1744 1.416 . S
C1741 C1742 1.430 . S
C1741 C1743 1.404 . S
C1741 C1770 1.387 . S
C1742 C1734 1.448 . S
C1742 N1739 1.351 . S
C1742 C1741 1.430 . S
C1743 H1732 0.930 . S
C1743 C1741 1.404 . S
C1743 C1744 1.366 . S
C1744 H1723 0.930 . S
C1744 C1740 1.416 . S
C1744 C1743 1.366 . S
H1745 C1738 0.929 . S
H1746 C1769 0.931 . S
H1747 C1770 0.931 . S
O1748 Eu1704 2.462 . S
O1748 C1768 1.252 . S
O1749 Eu1704 2.373 1_655 S
O1749 C1760 1.249 . S
O1750 Eu1715 2.335 1_655 S
O1750 C1760 1.264 . S
O1751 Eu1704 2.432 . S
O1751 C1768 1.268 . S
O1752 Eu1704 2.291 . S
O1752 C1767 1.255 . S
O1753 Eu1715 2.372 . S
O1753 C1767 1.257 . S
O1754 Eu1715 2.462 . S
O1754 C1779 1.252 . S
O1755 Eu1715 2.373 . S
O1755 C1771 1.249 . S
O1756 Eu1704 2.335 . S
O1756 C1771 1.264 . S
O1757 Eu1715 2.432 . S
O1757 C1779 1.268 . S
O1758 Eu1715 2.291 . S
O1758 C1778 1.255 . S
O1759 Eu1704 2.372 . S
O1759 C1778 1.257 . S
C1760 O1749 1.249 . S
C1760 O1750 1.264 . S
C1761 C1764 1.382 . S
C1761 C1766 1.390 . S
C1761 C1768 1.506 . S
C1762 C1763 1.398 . S
C1762 C1766 1.392 . S
C1763 C1762 1.398 . S
C1763 C1765 1.372 . S
C1763 H1780 0.931 . S
C1764 C1761 1.382 . S
C1764 C1765 1.390 . S
C1764 H1781 0.931 . S
C1765 C1763 1.372 . S
C1765 C1764 1.390 . S
C1765 H1782 0.929 . S
C1766 C1761 1.390 . S
C1766 C1762 1.392 . S
C1766 H1783 0.930 . S
C1767 O1752 1.255 . S
C1767 O1753 1.257 . S
C1768 Eu1704 2.787 . S
C1768 O1748 1.252 . S
C1768 O1751 1.268 . S
C1768 C1761 1.506 . S
C1769 C1736 1.439 . S
C1769 H1746 0.931 . S
C1769 C1770 1.374 . S
C1770 C1741 1.387 . S
C1770 H1747 0.931 . S
C1770 C1769 1.374 . S
C1771 O1755 1.249 . S
C1771 O1756 1.264 . S
C1772 C1775 1.382 . S
C1772 C1776 1.390 . S
C1772 C1779 1.506 1_655 S
C1773 C1774 1.398 . S
C1773 C1776 1.392 . S
C1774 C1773 1.398 . S
C1774 C1777 1.372 . S
C1774 H1784 0.931 . S
C1775 C1772 1.382 . S
C1775 C1777 1.390 . S
C1775 H1785 0.931 . S
C1776 C1772 1.390 . S
C1776 C1773 1.392 . S
C1776 H1786 0.930 . S
C1777 C1774 1.372 . S
C1777 C1775 1.390 . S
C1777 H1787 0.929 . S
C1778 O1758 1.255 . S
C1778 O1759 1.257 . S
C1779 Eu1715 2.787 . S
C1779 O1754 1.252 . S
C1779 O1757 1.268 . S
C1779 C1772 1.506 1_455 S
H1780 C1763 0.931 . S
H1781 C1764 0.931 . S
H1782 C1765 0.929 . S
H1783 C1766 0.930 . S
H1784 C1774 0.931 . S
H1785 C1775 0.931 . S
H1786 C1776 0.930 . S
H1787 C1777 0.929 . S
Eu1788 N1817 2.600 . S
Eu1788 N1823 2.562 . S
Eu1788 O1832 2.462 . S
Eu1788 O1833 2.373 . S
Eu1788 O1835 2.432 . S
Eu1788 O1836 2.291 . S
Eu1788 O1840 2.335 . S
Eu1788 O1843 2.372 . S
Eu1788 C1852 2.787 . S
C1789 N1790 1.365 . S
C1789 C1792 1.405 . S
C1789 C1796 1.448 . S
N1790 C1789 1.365 . S
N1790 C1793 1.319 . S
N1790 Eu1799 2.600 . S
C1791 C1793 1.397 . S
C1791 C1794 1.367 . S
C1791 H1811 0.931 . S
C1792 C1789 1.405 . S
C1792 C1794 1.403 . S
C1792 C1798 1.439 . S
C1793 N1790 1.319 . S
C1793 C1791 1.397 . S
C1793 H1804 0.930 . S
C1794 C1791 1.367 . S
C1794 C1792 1.403 . S
C1794 H1815 0.929 . S
C1795 C1796 1.430 . S
C1795 C1797 1.387 . S
C1795 C1801 1.404 . S
C1796 C1789 1.448 . S
C1796 C1795 1.430 . S
C1796 N1800 1.351 . S
C1797 C1795 1.387 . S
C1797 C1798 1.374 . S
C1797 H1812 0.931 . S
C1798 C1792 1.439 . S
C1798 C1797 1.374 . S
C1798 H1813 0.931 . S
Eu1799 N1790 2.600 . S
Eu1799 N1800 2.562 . S
Eu1799 O1834 2.335 . S
Eu1799 O1837 2.372 . S
Eu1799 O1838 2.462 . S
Eu1799 O1839 2.373 . S
Eu1799 O1841 2.432 . S
Eu1799 O1842 2.291 . S
Eu1799 C1863 2.787 . S
N1800 C1796 1.351 . S
N1800 Eu1799 2.562 . S
N1800 C1802 1.325 . S
C1801 C1795 1.404 . S
C1801 C1803 1.366 . S
C1801 H1809 0.930 . S
C1802 N1800 1.325 . S
C1802 C1803 1.416 . S
C1802 H1808 0.929 . S
C1803 C1801 1.366 . S
C1803 C1802 1.416 . S
C1803 H1805 0.930 . S
H1804 C1793 0.930 . S
H1805 C1803 0.930 . S
H1806 C1821 0.930 . S
H1807 C1828 0.930 . S
H1808 C1802 0.929 . S
H1809 C1801 0.930 . S
H1810 C1824 0.929 . S
H1811 C1791 0.931 . S
H1812 C1797 0.931 . S
H1813 C1798 0.931 . S
H1814 C1819 0.931 . S
H1815 C1794 0.929 . S
H1816 C1827 0.930 . S
N1817 Eu1788 2.600 . S
N1817 C1818 1.365 . S
N1817 C1821 1.319 . S
C1818 N1817 1.365 . S
C1818 C1820 1.405 . S
C1818 C1826 1.448 . S
C1819 H1814 0.931 . S
C1819 C1821 1.397 . S
C1819 C1822 1.367 . S
C1820 C1818 1.405 . S
C1820 C1822 1.403 . S
C1820 C1853 1.439 . S
C1821 H1806 0.930 . S
C1821 N1817 1.319 . S
C1821 C1819 1.397 . S
C1822 C1819 1.367 . S
C1822 C1820 1.403 . S
C1822 H1829 0.929 . S
N1823 Eu1788 2.562 . S
N1823 C1824 1.325 . S
N1823 C1826 1.351 . S
C1824 H1810 0.929 . S
C1824 N1823 1.325 . S
C1824 C1828 1.416 . S
C1825 C1826 1.430 . S
C1825 C1827 1.404 . S
C1825 C1854 1.387 . S
C1826 C1818 1.448 . S
C1826 N1823 1.351 . S
C1826 C1825 1.430 . S
C1827 H1816 0.930 . S
C1827 C1825 1.404 . S
C1827 C1828 1.366 . S
C1828 H1807 0.930 . S
C1828 C1824 1.416 . S
C1828 C1827 1.366 . S
H1829 C1822 0.929 . S
H1830 C1853 0.931 . S
H1831 C1854 0.931 . S
O1832 Eu1788 2.462 . S
O1832 C1852 1.252 . S
O1833 Eu1788 2.373 . S
O1833 C1844 1.249 . S
O1834 Eu1799 2.335 . S
O1834 C1844 1.264 . S
O1835 Eu1788 2.432 . S
O1835 C1852 1.268 . S
O1836 Eu1788 2.291 . S
O1836 C1851 1.255 . S
O1837 Eu1799 2.372 . S
O1837 C1851 1.257 . S
O1838 Eu1799 2.462 . S
O1838 C1863 1.252 . S
O1839 Eu1799 2.373 . S
O1839 C1855 1.249 . S
O1840 Eu1788 2.335 . S
O1840 C1855 1.264 . S
O1841 Eu1799 2.432 . S
O1841 C1863 1.268 . S
O1842 Eu1799 2.291 . S
O1842 C1862 1.255 . S
O1843 Eu1788 2.372 . S
O1843 C1862 1.257 . S
C1844 O1833 1.249 . S
C1844 O1834 1.264 . S
C1845 C1848 1.382 . S
C1845 C1850 1.390 . S
C1845 C1852 1.506 . S
C1846 C1847 1.398 . S
C1846 C1850 1.392 . S
C1847 C1846 1.398 . S
C1847 C1849 1.372 . S
C1847 H1864 0.931 . S
C1848 C1845 1.382 . S
C1848 C1849 1.390 . S
C1848 H1865 0.931 . S
C1849 C1847 1.372 . S
C1849 C1848 1.390 . S
C1849 H1866 0.929 . S
C1850 C1845 1.390 . S
C1850 C1846 1.392 . S
C1850 H1867 0.930 . S
C1851 O1836 1.255 . S
C1851 O1837 1.257 . S
C1852 Eu1788 2.787 . S
C1852 O1832 1.252 . S
C1852 O1835 1.268 . S
C1852 C1845 1.506 . S
C1853 C1820 1.439 . S
C1853 H1830 0.931 . S
C1853 C1854 1.374 . S
C1854 C1825 1.387 . S
C1854 H1831 0.931 . S
C1854 C1853 1.374 . S
C1855 O1839 1.249 . S
C1855 O1840 1.264 . S
C1856 C1859 1.382 . S
C1856 C1860 1.390 . S
C1856 C1863 1.506 . S
C1857 C1858 1.398 . S
C1857 C1860 1.392 . S
C1858 C1857 1.398 . S
C1858 C1861 1.372 . S
C1858 H1868 0.931 . S
C1859 C1856 1.382 . S
C1859 C1861 1.390 . S
C1859 H1869 0.931 . S
C1860 C1856 1.390 . S
C1860 C1857 1.392 . S
C1860 H1870 0.930 . S
C1861 C1858 1.372 . S
C1861 C1859 1.390 . S
C1861 H1871 0.929 . S
C1862 O1842 1.255 . S
C1862 O1843 1.257 . S
C1863 Eu1799 2.787 . S
C1863 O1838 1.252 . S
C1863 O1841 1.268 . S
C1863 C1856 1.506 . S
H1864 C1847 0.931 . S
H1865 C1848 0.931 . S
H1866 C1849 0.929 . S
H1867 C1850 0.930 . S
H1868 C1858 0.931 . S
H1869 C1859 0.931 . S
H1870 C1860 0.930 . S
H1871 C1861 0.929 . S
Eu1872 N1901 2.600 . S
Eu1872 N1907 2.562 . S
Eu1872 O1916 2.462 . S
Eu1872 O1917 2.373 . S
Eu1872 O1919 2.432 . S
Eu1872 O1920 2.291 . S
Eu1872 O1924 2.335 . S
Eu1872 O1927 2.372 . S
Eu1872 C1936 2.787 . S
C1873 N1874 1.365 . S
C1873 C1876 1.405 . S
C1873 C1880 1.448 . S
N1874 C1873 1.365 . S
N1874 C1877 1.319 . S
N1874 Eu1883 2.600 . S
C1875 C1877 1.397 . S
C1875 C1878 1.367 . S
C1875 H1895 0.931 . S
C1876 C1873 1.405 . S
C1876 C1878 1.403 . S
C1876 C1882 1.439 . S
C1877 N1874 1.319 . S
C1877 C1875 1.397 . S
C1877 H1888 0.930 . S
C1878 C1875 1.367 . S
C1878 C1876 1.403 . S
C1878 H1899 0.929 . S
C1879 C1880 1.430 . S
C1879 C1881 1.387 . S
C1879 C1885 1.404 . S
C1880 C1873 1.448 . S
C1880 C1879 1.430 . S
C1880 N1884 1.351 . S
C1881 C1879 1.387 . S
C1881 C1882 1.374 . S
C1881 H1896 0.931 . S
C1882 C1876 1.439 . S
C1882 C1881 1.374 . S
C1882 H1897 0.931 . S
Eu1883 N1874 2.600 . S
Eu1883 N1884 2.562 . S
Eu1883 O1918 2.335 . S
Eu1883 O1921 2.372 . S
Eu1883 O1922 2.462 . S
Eu1883 O1923 2.373 . S
Eu1883 O1925 2.432 . S
Eu1883 O1926 2.291 . S
Eu1883 C1947 2.787 . S
N1884 C1880 1.351 . S
N1884 Eu1883 2.562 . S
N1884 C1886 1.325 . S
C1885 C1879 1.404 . S
C1885 C1887 1.366 . S
C1885 H1893 0.930 . S
C1886 N1884 1.325 . S
C1886 C1887 1.416 . S
C1886 H1892 0.929 . S
C1887 C1885 1.366 . S
C1887 C1886 1.416 . S
C1887 H1889 0.930 . S
H1888 C1877 0.930 . S
H1889 C1887 0.930 . S
H1890 C1905 0.930 . S
H1891 C1912 0.930 . S
H1892 C1886 0.929 . S
H1893 C1885 0.930 . S
H1894 C1908 0.929 . S
H1895 C1875 0.931 . S
H1896 C1881 0.931 . S
H1897 C1882 0.931 . S
H1898 C1903 0.931 . S
H1899 C1878 0.929 . S
H1900 C1911 0.930 . S
N1901 Eu1872 2.600 . S
N1901 C1902 1.365 . S
N1901 C1905 1.319 . S
C1902 N1901 1.365 . S
C1902 C1904 1.405 . S
C1902 C1910 1.448 . S
C1903 H1898 0.931 . S
C1903 C1905 1.397 . S
C1903 C1906 1.367 . S
C1904 C1902 1.405 . S
C1904 C1906 1.403 . S
C1904 C1937 1.439 . S
C1905 H1890 0.930 . S
C1905 N1901 1.319 . S
C1905 C1903 1.397 . S
C1906 C1903 1.367 . S
C1906 C1904 1.403 . S
C1906 H1913 0.929 . S
N1907 Eu1872 2.562 . S
N1907 C1908 1.325 . S
N1907 C1910 1.351 . S
C1908 H1894 0.929 . S
C1908 N1907 1.325 . S
C1908 C1912 1.416 . S
C1909 C1910 1.430 . S
C1909 C1911 1.404 . S
C1909 C1938 1.387 . S
C1910 C1902 1.448 . S
C1910 N1907 1.351 . S
C1910 C1909 1.430 . S
C1911 H1900 0.930 . S
C1911 C1909 1.404 . S
C1911 C1912 1.366 . S
C1912 H1891 0.930 . S
C1912 C1908 1.416 . S
C1912 C1911 1.366 . S
H1913 C1906 0.929 . S
H1914 C1937 0.931 . S
H1915 C1938 0.931 . S
O1916 Eu1872 2.462 . S
O1916 C1936 1.252 . S
O1917 Eu1872 2.373 . S
O1917 C1928 1.249 . S
O1918 Eu1883 2.335 . S
O1918 C1928 1.264 . S
O1919 Eu1872 2.432 . S
O1919 C1936 1.268 . S
O1920 Eu1872 2.291 . S
O1920 C1935 1.255 . S
O1921 Eu1883 2.372 . S
O1921 C1935 1.257 . S
O1922 Eu1883 2.462 . S
O1922 C1947 1.252 . S
O1923 Eu1883 2.373 . S
O1923 C1939 1.249 . S
O1924 Eu1872 2.335 . S
O1924 C1939 1.264 . S
O1925 Eu1883 2.432 . S
O1925 C1947 1.268 . S
O1926 Eu1883 2.291 . S
O1926 C1946 1.255 . S
O1927 Eu1872 2.372 . S
O1927 C1946 1.257 . S
C1928 O1917 1.249 . S
C1928 O1918 1.264 . S
C1929 C1932 1.382 . S
C1929 C1934 1.390 . S
C1929 C1936 1.506 . S
C1930 C1931 1.398 . S
C1930 C1934 1.392 . S
C1931 C1930 1.398 . S
C1931 C1933 1.372 . S
C1931 H1948 0.931 . S
C1932 C1929 1.382 . S
C1932 C1933 1.390 . S
C1932 H1949 0.931 . S
C1933 C1931 1.372 . S
C1933 C1932 1.390 . S
C1933 H1950 0.929 . S
C1934 C1929 1.390 . S
C1934 C1930 1.392 . S
C1934 H1951 0.930 . S
C1935 O1920 1.255 . S
C1935 O1921 1.257 . S
C1936 Eu1872 2.787 . S
C1936 O1916 1.252 . S
C1936 O1919 1.268 . S
C1936 C1929 1.506 . S
C1937 C1904 1.439 . S
C1937 H1914 0.931 . S
C1937 C1938 1.374 . S
C1938 C1909 1.387 . S
C1938 H1915 0.931 . S
C1938 C1937 1.374 . S
C1939 O1923 1.249 . S
C1939 O1924 1.264 . S
C1940 C1943 1.382 . S
C1940 C1944 1.390 . S
C1940 C1947 1.506 . S
C1941 C1942 1.398 . S
C1941 C1944 1.392 . S
C1942 C1941 1.398 . S
C1942 C1945 1.372 . S
C1942 H1952 0.931 . S
C1943 C1940 1.382 . S
C1943 C1945 1.390 . S
C1943 H1953 0.931 . S
C1944 C1940 1.390 . S
C1944 C1941 1.392 . S
C1944 H1954 0.930 . S
C1945 C1942 1.372 . S
C1945 C1943 1.390 . S
C1945 H1955 0.929 . S
C1946 O1926 1.255 . S
C1946 O1927 1.257 . S
C1947 Eu1883 2.787 . S
C1947 O1922 1.252 . S
C1947 O1925 1.268 . S
C1947 C1940 1.506 . S
H1948 C1931 0.931 . S
H1949 C1932 0.931 . S
H1950 C1933 0.929 . S
H1951 C1934 0.930 . S
H1952 C1942 0.931 . S
H1953 C1943 0.931 . S
H1954 C1944 0.930 . S
H1955 C1945 0.929 . S
Eu1956 N1985 2.600 . S
Eu1956 N1991 2.562 . S
Eu1956 O2000 2.462 . S
Eu1956 O2001 2.373 . S
Eu1956 O2003 2.432 . S
Eu1956 O2004 2.291 . S
Eu1956 O2008 2.335 . S
Eu1956 O2011 2.372 . S
Eu1956 C2020 2.787 . S
C1957 N1958 1.365 . S
C1957 C1960 1.405 . S
C1957 C1964 1.448 . S
N1958 C1957 1.365 . S
N1958 C1961 1.319 . S
N1958 Eu1967 2.600 . S
C1959 C1961 1.397 . S
C1959 C1962 1.367 . S
C1959 H1979 0.931 . S
C1960 C1957 1.405 . S
C1960 C1962 1.403 . S
C1960 C1966 1.439 . S
C1961 N1958 1.319 . S
C1961 C1959 1.397 . S
C1961 H1972 0.930 . S
C1962 C1959 1.367 . S
C1962 C1960 1.403 . S
C1962 H1983 0.929 . S
C1963 C1964 1.430 . S
C1963 C1965 1.387 . S
C1963 C1969 1.404 . S
C1964 C1957 1.448 . S
C1964 C1963 1.430 . S
C1964 N1968 1.351 . S
C1965 C1963 1.387 . S
C1965 C1966 1.374 . S
C1965 H1980 0.931 . S
C1966 C1960 1.439 . S
C1966 C1965 1.374 . S
C1966 H1981 0.931 . S
Eu1967 N1958 2.600 . S
Eu1967 N1968 2.562 . S
Eu1967 O2002 2.335 . S
Eu1967 O2005 2.372 . S
Eu1967 O2006 2.462 . S
Eu1967 O2007 2.373 . S
Eu1967 O2009 2.432 . S
Eu1967 O2010 2.291 . S
Eu1967 C2031 2.787 . S
N1968 C1964 1.351 . S
N1968 Eu1967 2.562 . S
N1968 C1970 1.325 . S
C1969 C1963 1.404 . S
C1969 C1971 1.366 . S
C1969 H1977 0.930 . S
C1970 N1968 1.325 . S
C1970 C1971 1.416 . S
C1970 H1976 0.929 . S
C1971 C1969 1.366 . S
C1971 C1970 1.416 . S
C1971 H1973 0.930 . S
H1972 C1961 0.930 . S
H1973 C1971 0.930 . S
H1974 C1989 0.930 . S
H1975 C1996 0.930 . S
H1976 C1970 0.929 . S
H1977 C1969 0.930 . S
H1978 C1992 0.929 . S
H1979 C1959 0.931 . S
H1980 C1965 0.931 . S
H1981 C1966 0.931 . S
H1982 C1987 0.931 . S
H1983 C1962 0.929 . S
H1984 C1995 0.930 . S
N1985 Eu1956 2.600 . S
N1985 C1986 1.365 . S
N1985 C1989 1.319 . S
C1986 N1985 1.365 . S
C1986 C1988 1.405 . S
C1986 C1994 1.448 . S
C1987 H1982 0.931 . S
C1987 C1989 1.397 . S
C1987 C1990 1.367 . S
C1988 C1986 1.405 . S
C1988 C1990 1.403 . S
C1988 C2021 1.439 . S
C1989 H1974 0.930 . S
C1989 N1985 1.319 . S
C1989 C1987 1.397 . S
C1990 C1987 1.367 . S
C1990 C1988 1.403 . S
C1990 H1997 0.929 . S
N1991 Eu1956 2.562 . S
N1991 C1992 1.325 . S
N1991 C1994 1.351 . S
C1992 H1978 0.929 . S
C1992 N1991 1.325 . S
C1992 C1996 1.416 . S
C1993 C1994 1.430 . S
C1993 C1995 1.404 . S
C1993 C2022 1.387 . S
C1994 C1986 1.448 . S
C1994 N1991 1.351 . S
C1994 C1993 1.430 . S
C1995 H1984 0.930 . S
C1995 C1993 1.404 . S
C1995 C1996 1.366 . S
C1996 H1975 0.930 . S
C1996 C1992 1.416 . S
C1996 C1995 1.366 . S
H1997 C1990 0.929 . S
H1998 C2021 0.931 . S
H1999 C2022 0.931 . S
O2000 Eu1956 2.462 . S
O2000 C2020 1.252 . S
O2001 Eu1956 2.373 . S
O2001 C2012 1.249 . S
O2002 Eu1967 2.335 . S
O2002 C2012 1.264 . S
O2003 Eu1956 2.432 . S
O2003 C2020 1.268 . S
O2004 Eu1956 2.291 . S
O2004 C2019 1.255 . S
O2005 Eu1967 2.372 . S
O2005 C2019 1.257 . S
O2006 Eu1967 2.462 . S
O2006 C2031 1.252 . S
O2007 Eu1967 2.373 . S
O2007 C2023 1.249 . S
O2008 Eu1956 2.335 . S
O2008 C2023 1.264 . S
O2009 Eu1967 2.432 . S
O2009 C2031 1.268 . S
O2010 Eu1967 2.291 . S
O2010 C2030 1.255 . S
O2011 Eu1956 2.372 . S
O2011 C2030 1.257 . S
C2012 O2001 1.249 . S
C2012 O2002 1.264 . S
C2013 C2016 1.382 . S
C2013 C2018 1.390 . S
C2013 C2020 1.506 . S
C2014 C2015 1.398 . S
C2014 C2018 1.392 . S
C2015 C2014 1.398 . S
C2015 C2017 1.372 . S
C2015 H2032 0.931 . S
C2016 C2013 1.382 . S
C2016 C2017 1.390 . S
C2016 H2033 0.931 . S
C2017 C2015 1.372 . S
C2017 C2016 1.390 . S
C2017 H2034 0.929 . S
C2018 C2013 1.390 . S
C2018 C2014 1.392 . S
C2018 H2035 0.930 . S
C2019 O2004 1.255 . S
C2019 O2005 1.257 . S
C2020 Eu1956 2.787 . S
C2020 O2000 1.252 . S
C2020 O2003 1.268 . S
C2020 C2013 1.506 . S
C2021 C1988 1.439 . S
C2021 H1998 0.931 . S
C2021 C2022 1.374 . S
C2022 C1993 1.387 . S
C2022 H1999 0.931 . S
C2022 C2021 1.374 . S
C2023 O2007 1.249 . S
C2023 O2008 1.264 . S
C2024 C2027 1.382 . S
C2024 C2028 1.390 . S
C2024 C2031 1.506 . S
C2025 C2026 1.398 . S
C2025 C2028 1.392 . S
C2026 C2025 1.398 . S
C2026 C2029 1.372 . S
C2026 H2036 0.931 . S
C2027 C2024 1.382 . S
C2027 C2029 1.390 . S
C2027 H2037 0.931 . S
C2028 C2024 1.390 . S
C2028 C2025 1.392 . S
C2028 H2038 0.930 . S
C2029 C2026 1.372 . S
C2029 C2027 1.390 . S
C2029 H2039 0.929 . S
C2030 O2010 1.255 . S
C2030 O2011 1.257 . S
C2031 Eu1967 2.787 . S
C2031 O2006 1.252 . S
C2031 O2009 1.268 . S
C2031 C2024 1.506 . S
H2032 C2015 0.931 . S
H2033 C2016 0.931 . S
H2034 C2017 0.929 . S
H2035 C2018 0.930 . S
H2036 C2026 0.931 . S
H2037 C2027 0.931 . S
H2038 C2028 0.930 . S
H2039 C2029 0.929 . S
Eu2040 N2069 2.600 . S
Eu2040 N2075 2.562 . S
Eu2040 O2084 2.462 . S
Eu2040 O2085 2.373 . S
Eu2040 O2087 2.432 . S
Eu2040 O2088 2.291 . S
Eu2040 O2092 2.335 . S
Eu2040 O2095 2.372 . S
Eu2040 C2104 2.787 . S
C2041 N2042 1.365 . S
C2041 C2044 1.405 . S
C2041 C2048 1.448 . S
N2042 C2041 1.365 . S
N2042 C2045 1.319 . S
N2042 Eu2051 2.600 . S
C2043 C2045 1.397 . S
C2043 C2046 1.367 . S
C2043 H2063 0.931 . S
C2044 C2041 1.405 . S
C2044 C2046 1.403 . S
C2044 C2050 1.439 . S
C2045 N2042 1.319 . S
C2045 C2043 1.397 . S
C2045 H2056 0.930 . S
C2046 C2043 1.367 . S
C2046 C2044 1.403 . S
C2046 H2067 0.929 . S
C2047 C2048 1.430 . S
C2047 C2049 1.387 . S
C2047 C2053 1.404 . S
C2048 C2041 1.448 . S
C2048 C2047 1.430 . S
C2048 N2052 1.351 . S
C2049 C2047 1.387 . S
C2049 C2050 1.374 . S
C2049 H2064 0.931 . S
C2050 C2044 1.439 . S
C2050 C2049 1.374 . S
C2050 H2065 0.931 . S
Eu2051 N2042 2.600 . S
Eu2051 N2052 2.562 . S
Eu2051 O2086 2.335 . S
Eu2051 O2089 2.372 . S
Eu2051 O2090 2.462 . S
Eu2051 O2091 2.373 . S
Eu2051 O2093 2.432 . S
Eu2051 O2094 2.291 . S
Eu2051 C2115 2.787 . S
N2052 C2048 1.351 . S
N2052 Eu2051 2.562 . S
N2052 C2054 1.325 . S
C2053 C2047 1.404 . S
C2053 C2055 1.366 . S
C2053 H2061 0.930 . S
C2054 N2052 1.325 . S
C2054 C2055 1.416 . S
C2054 H2060 0.929 . S
C2055 C2053 1.366 . S
C2055 C2054 1.416 . S
C2055 H2057 0.930 . S
H2056 C2045 0.930 . S
H2057 C2055 0.930 . S
H2058 C2073 0.930 . S
H2059 C2080 0.930 . S
H2060 C2054 0.929 . S
H2061 C2053 0.930 . S
H2062 C2076 0.929 . S
H2063 C2043 0.931 . S
H2064 C2049 0.931 . S
H2065 C2050 0.931 . S
H2066 C2071 0.931 . S
H2067 C2046 0.929 . S
H2068 C2079 0.930 . S
N2069 Eu2040 2.600 . S
N2069 C2070 1.365 . S
N2069 C2073 1.319 . S
C2070 N2069 1.365 . S
C2070 C2072 1.405 . S
C2070 C2078 1.448 . S
C2071 H2066 0.931 . S
C2071 C2073 1.397 . S
C2071 C2074 1.367 . S
C2072 C2070 1.405 . S
C2072 C2074 1.403 . S
C2072 C2105 1.439 . S
C2073 H2058 0.930 . S
C2073 N2069 1.319 . S
C2073 C2071 1.397 . S
C2074 C2071 1.367 . S
C2074 C2072 1.403 . S
C2074 H2081 0.929 . S
N2075 Eu2040 2.562 . S
N2075 C2076 1.325 . S
N2075 C2078 1.351 . S
C2076 H2062 0.929 . S
C2076 N2075 1.325 . S
C2076 C2080 1.416 . S
C2077 C2078 1.430 . S
C2077 C2079 1.404 . S
C2077 C2106 1.387 . S
C2078 C2070 1.448 . S
C2078 N2075 1.351 . S
C2078 C2077 1.430 . S
C2079 H2068 0.930 . S
C2079 C2077 1.404 . S
C2079 C2080 1.366 . S
C2080 H2059 0.930 . S
C2080 C2076 1.416 . S
C2080 C2079 1.366 . S
H2081 C2074 0.929 . S
H2082 C2105 0.931 . S
H2083 C2106 0.931 . S
O2084 Eu2040 2.462 . S
O2084 C2104 1.252 . S
O2085 Eu2040 2.373 . S
O2085 C2096 1.249 . S
O2086 Eu2051 2.335 . S
O2086 C2096 1.264 . S
O2087 Eu2040 2.432 . S
O2087 C2104 1.268 . S
O2088 Eu2040 2.291 . S
O2088 C2103 1.255 . S
O2089 Eu2051 2.372 . S
O2089 C2103 1.257 . S
O2090 Eu2051 2.462 . S
O2090 C2115 1.252 . S
O2091 Eu2051 2.373 . S
O2091 C2107 1.249 . S
O2092 Eu2040 2.335 . S
O2092 C2107 1.264 . S
O2093 Eu2051 2.432 . S
O2093 C2115 1.268 . S
O2094 Eu2051 2.291 . S
O2094 C2114 1.255 . S
O2095 Eu2040 2.372 . S
O2095 C2114 1.257 . S
C2096 O2085 1.249 . S
C2096 O2086 1.264 . S
C2097 C2100 1.382 . S
C2097 C2102 1.390 . S
C2097 C2104 1.506 . S
C2098 C2099 1.398 . S
C2098 C2102 1.392 . S
C2099 C2098 1.398 . S
C2099 C2101 1.372 . S
C2099 H2116 0.931 . S
C2100 C2097 1.382 . S
C2100 C2101 1.390 . S
C2100 H2117 0.931 . S
C2101 C2099 1.372 . S
C2101 C2100 1.390 . S
C2101 H2118 0.929 . S
C2102 C2097 1.390 . S
C2102 C2098 1.392 . S
C2102 H2119 0.930 . S
C2103 O2088 1.255 . S
C2103 O2089 1.257 . S
C2104 Eu2040 2.787 . S
C2104 O2084 1.252 . S
C2104 O2087 1.268 . S
C2104 C2097 1.506 . S
C2105 C2072 1.439 . S
C2105 H2082 0.931 . S
C2105 C2106 1.374 . S
C2106 C2077 1.387 . S
C2106 H2083 0.931 . S
C2106 C2105 1.374 . S
C2107 O2091 1.249 . S
C2107 O2092 1.264 . S
C2108 C2111 1.382 . S
C2108 C2112 1.390 . S
C2108 C2115 1.506 . S
C2109 C2110 1.398 . S
C2109 C2112 1.392 . S
C2110 C2109 1.398 . S
C2110 C2113 1.372 . S
C2110 H2120 0.931 . S
C2111 C2108 1.382 . S
C2111 C2113 1.390 . S
C2111 H2121 0.931 . S
C2112 C2108 1.390 . S
C2112 C2109 1.392 . S
C2112 H2122 0.930 . S
C2113 C2110 1.372 . S
C2113 C2111 1.390 . S
C2113 H2123 0.929 . S
C2114 O2094 1.255 . S
C2114 O2095 1.257 . S
C2115 Eu2051 2.787 . S
C2115 O2090 1.252 . S
C2115 O2093 1.268 . S
C2115 C2108 1.506 . S
H2116 C2099 0.931 . S
H2117 C2100 0.931 . S
H2118 C2101 0.929 . S
H2119 C2102 0.930 . S
H2120 C2110 0.931 . S
H2121 C2111 0.931 . S
H2122 C2112 0.930 . S
H2123 C2113 0.929 . S
Eu2124 N2153 2.589 1_455 S
Eu2124 N2159 2.534 1_455 S
Eu2124 O2168 2.424 1_455 S
Eu2124 O2169 2.397 . S
Eu2124 O2171 2.401 1_455 S
Eu2124 O2172 2.299 . S
Eu2124 O2176 2.348 . S
Eu2124 O2179 2.403 . S
Eu2124 C2188 2.748 1_455 S
C2125 N2126 1.365 . S
C2125 C2128 1.405 . S
C2125 C2132 1.448 1_556 S
N2126 C2125 1.365 . S
N2126 C2129 1.319 . S
N2126 Eu2135 2.600 1_556 S
C2127 C2129 1.397 . S
C2127 C2130 1.367 . S
C2127 H2147 0.931 . S
C2128 C2125 1.405 . S
C2128 C2130 1.403 . S
C2128 C2134 1.439 . S
C2129 N2126 1.319 . S
C2129 C2127 1.397 . S
C2129 H2140 0.930 . S
C2130 C2127 1.367 . S
C2130 C2128 1.403 . S
C2130 H2151 0.929 . S
C2131 C2132 1.430 . S
C2131 C2133 1.387 . S
C2131 C2137 1.404 . S
C2132 C2125 1.448 1_554 S
C2132 C2131 1.430 . S
C2132 N2136 1.351 . S
C2133 C2131 1.387 . S
C2133 C2134 1.374 1_554 S
C2133 H2148 0.931 . S
C2134 C2128 1.439 . S
C2134 C2133 1.374 1_556 S
C2134 H2149 0.931 . S
Eu2135 N2126 2.600 1_554 S
Eu2135 N2136 2.562 . S
Eu2135 O2170 2.335 . S
Eu2135 O2173 2.372 1_554 S
Eu2135 O2174 2.462 . S
Eu2135 O2175 2.373 . S
Eu2135 O2177 2.432 1_554 S
Eu2135 O2178 2.291 . S
Eu2135 C2199 2.787 . S
N2136 C2132 1.351 . S
N2136 Eu2135 2.562 . S
N2136 C2138 1.325 . S
C2137 C2131 1.404 . S
C2137 C2139 1.366 . S
C2137 H2145 0.930 . S
C2138 N2136 1.325 . S
C2138 C2139 1.416 . S
C2138 H2144 0.929 . S
C2139 C2137 1.366 . S
C2139 C2138 1.416 . S
C2139 H2141 0.930 . S
H2140 C2129 0.930 . S
H2141 C2139 0.930 . S
H2142 C2157 0.930 1_455 S
H2143 C2164 0.930 1_556 S
H2144 C2138 0.929 . S
H2145 C2137 0.930 . S
H2146 C2160 0.937 . S
H2147 C2127 0.931 . S
H2148 C2133 0.931 . S
H2149 C2134 0.931 . S
H2150 C2155 0.931 1_455 S
H2151 C2130 0.929 . S
H2152 C2163 0.930 . S
N2153 Eu2124 2.589 1_655 S
N2153 C2154 1.365 . S
N2153 C2157 1.319 . S
C2154 N2153 1.365 . S
C2154 C2156 1.405 . S
C2154 C2162 1.448 . S
C2155 H2150 0.931 1_655 S
C2155 C2157 1.397 . S
C2155 C2158 1.367 . S
C2156 C2154 1.405 . S
C2156 C2158 1.403 . S
C2156 C2189 1.439 . S
C2157 H2142 0.930 1_655 S
C2157 N2153 1.319 . S
C2157 C2155 1.397 . S
C2158 C2155 1.367 . S
C2158 C2156 1.403 . S
C2158 H2165 0.929 . S
N2159 Eu2124 2.534 1_655 S
N2159 C2160 1.325 . S
N2159 C2162 1.351 . S
C2160 H2146 0.937 . S
C2160 N2159 1.325 . S
C2160 C2164 1.416 . S
C2161 C2162 1.430 . S
C2161 C2163 1.404 . S
C2161 C2190 1.387 . S
C2162 C2154 1.448 . S
C2162 N2159 1.351 . S
C2162 C2161 1.430 . S
C2163 H2152 0.930 . S
C2163 C2161 1.404 . S
C2163 C2164 1.366 . S
C2164 H2143 0.930 1_554 S
C2164 C2160 1.416 . S
C2164 C2163 1.366 . S
H2165 C2158 0.929 . S
H2166 C2189 0.931 . S
H2167 C2190 0.931 . S
O2168 Eu2124 2.424 1_655 S
O2168 C2188 1.252 . S
O2169 Eu2124 2.397 . S
O2169 C2180 1.249 . S
O2170 Eu2135 2.335 . S
O2170 C2180 1.264 . S
O2171 Eu2124 2.401 1_655 S
O2171 C2188 1.268 . S
O2172 Eu2124 2.299 . S
O2172 C2187 1.255 1_554 S
O2173 Eu2135 2.372 1_556 S
O2173 C2187 1.257 . S
O2174 Eu2135 2.462 . S
O2174 C2199 1.252 . S
O2175 Eu2135 2.373 . S
O2175 C2191 1.249 . S
O2176 Eu2124 2.348 . S
O2176 C2191 1.264 . S
O2177 Eu2135 2.432 1_556 S
O2177 C2199 1.268 1_556 S
O2178 Eu2135 2.291 . S
O2178 C2198 1.255 . S
O2179 Eu2124 2.403 . S
O2179 C2198 1.257 . S
C2180 O2169 1.249 . S
C2180 O2170 1.264 . S
C2181 C2184 1.382 . S
C2181 C2186 1.390 . S
C2181 C2188 1.506 . S
C2182 C2183 1.398 . S
C2182 C2186 1.392 . S
C2183 C2182 1.398 . S
C2183 C2185 1.372 . S
C2183 H2200 0.931 . S
C2184 C2181 1.382 . S
C2184 C2185 1.390 . S
C2184 H2201 0.931 . S
C2185 C2183 1.372 . S
C2185 C2184 1.390 . S
C2185 H2202 0.929 . S
C2186 C2181 1.390 . S
C2186 C2182 1.392 . S
C2186 H2203 0.930 . S
C2187 O2172 1.255 1_556 S
C2187 O2173 1.257 . S
C2188 Eu2124 2.748 1_655 S
C2188 O2168 1.252 . S
C2188 O2171 1.268 . S
C2188 C2181 1.506 . S
C2189 C2156 1.439 . S
C2189 H2166 0.931 . S
C2189 C2190 1.374 . S
C2190 C2161 1.387 . S
C2190 H2167 0.931 . S
C2190 C2189 1.374 . S
C2191 O2175 1.249 . S
C2191 O2176 1.264 . S
C2192 C2195 1.382 . S
C2192 C2196 1.390 1_556 S
C2192 C2199 1.506 1_556 S
C2193 C2194 1.398 1_554 S
C2193 C2196 1.392 . S
C2194 C2193 1.398 1_556 S
C2194 C2197 1.372 . S
C2194 H2204 0.931 . S
C2195 C2192 1.382 . S
C2195 C2197 1.390 . S
C2195 H2205 0.931 . S
C2196 C2192 1.390 1_554 S
C2196 C2193 1.392 . S
C2196 H2206 0.930 . S
C2197 C2194 1.372 . S
C2197 C2195 1.390 . S
C2197 H2207 0.929 . S
C2198 O2178 1.255 . S
C2198 O2179 1.257 . S
C2199 Eu2135 2.787 . S
C2199 O2174 1.252 . S
C2199 O2177 1.268 1_554 S
C2199 C2192 1.506 1_554 S
H2200 C2183 0.931 . S
H2201 C2184 0.931 . S
H2202 C2185 0.929 . S
H2203 C2186 0.930 . S
H2204 C2194 0.931 . S
H2205 C2195 0.931 . S
H2206 C2196 0.930 . S
H2207 C2197 0.929 . S
H2208 C2214 0.930 . S
H2209 C2217 0.930 . S
H2210 C2218 0.930 . S
H2211 C2219 0.930 1_556 S
H2212 C2222 0.930 . S
H2213 C2223 0.930 . S
C2214 H2208 0.930 . S
C2214 C2215 1.355 1_654 S
C2214 C2216 1.415 . S
C2215 C2214 1.355 1_456 S
C2215 C2217 1.419 . S
C2216 C2214 1.415 . S
C2216 C2221 1.425 1_654 S
C2216 C2223 1.409 . S
C2217 H2209 0.930 . S
C2217 C2215 1.419 . S
C2217 C2218 1.362 . S
C2218 H2210 0.930 . S
C2218 C2217 1.362 . S
C2218 C2221 1.409 . S
C2219 H2211 0.930 1_554 S
C2219 C2220 1.355 . S
C2219 C2221 1.415 1_554 S
C2220 C2219 1.355 . S
C2220 C2222 1.419 1_455 S
C2221 C2216 1.425 1_456 S
C2221 C2218 1.409 . S
C2221 C2219 1.415 1_556 S
C2222 H2212 0.930 . S
C2222 C2220 1.419 1_655 S
C2222 C2223 1.362 . S
C2223 H2213 0.930 . S
C2223 C2216 1.409 . S
C2223 C2222 1.362 . S
H2224 C2230 0.930 . S
H2225 C2233 0.930 . S
H2226 C2234 0.930 . S
H2227 C2235 0.930 . S
H2228 C2238 0.930 . S
H2229 C2239 0.930 . S
C2230 H2224 0.930 . S
C2230 C2231 1.355 . S
C2230 C2232 1.415 . S
C2231 C2230 1.355 . S
C2231 C2233 1.419 . S
C2232 C2230 1.415 . S
C2232 C2237 1.425 . S
C2232 C2239 1.409 . S
C2233 H2225 0.930 . S
C2233 C2231 1.419 . S
C2233 C2234 1.362 . S
C2234 H2226 0.930 . S
C2234 C2233 1.362 . S
C2234 C2237 1.409 . S
C2235 H2227 0.930 . S
C2235 C2236 1.355 . S
C2235 C2237 1.415 . S
C2236 C2235 1.355 . S
C2236 C2238 1.419 . S
C2237 C2232 1.425 . S
C2237 C2234 1.409 . S
C2237 C2235 1.415 . S
C2238 H2228 0.930 . S
C2238 C2236 1.419 . S
C2238 C2239 1.362 . S
C2239 H2229 0.930 . S
C2239 C2232 1.409 . S
C2239 C2238 1.362 . S
H2240 C2246 0.930 . S
H2241 C2249 0.930 . S
H2242 C2250 0.930 . S
H2243 C2251 0.930 . S
H2244 C2254 0.930 . S
H2245 C2255 0.930 . S
C2246 H2240 0.930 . S
C2246 C2247 1.355 . S
C2246 C2248 1.415 . S
C2247 C2246 1.355 . S
C2247 C2249 1.419 . S
C2248 C2246 1.415 . S
C2248 C2253 1.425 . S
C2248 C2255 1.409 . S
C2249 H2241 0.930 . S
C2249 C2247 1.419 . S
C2249 C2250 1.362 . S
C2250 H2242 0.930 . S
C2250 C2249 1.362 . S
C2250 C2253 1.409 . S
C2251 H2243 0.930 . S
C2251 C2252 1.355 . S
C2251 C2253 1.415 . S
C2252 C2251 1.355 . S
C2252 C2254 1.419 . S
C2253 C2248 1.425 . S
C2253 C2250 1.409 . S
C2253 C2251 1.415 . S
C2254 H2244 0.930 . S
C2254 C2252 1.419 . S
C2254 C2255 1.362 . S
C2255 H2245 0.930 . S
C2255 C2248 1.409 . S
C2255 C2254 1.362 . S
H2256 C2262 0.930 . S
H2257 C2265 0.930 . S
H2258 C2266 0.930 . S
H2259 C2267 0.930 . S
H2260 C2270 0.930 . S
H2261 C2271 0.930 . S
C2262 H2256 0.930 . S
C2262 C2263 1.355 . S
C2262 C2264 1.415 . S
C2263 C2262 1.355 . S
C2263 C2265 1.419 . S
C2264 C2262 1.415 . S
C2264 C2269 1.425 . S
C2264 C2271 1.409 . S
C2265 H2257 0.930 . S
C2265 C2263 1.419 . S
C2265 C2266 1.362 . S
C2266 H2258 0.930 . S
C2266 C2265 1.362 . S
C2266 C2269 1.409 . S
C2267 H2259 0.930 . S
C2267 C2268 1.355 . S
C2267 C2269 1.415 . S
C2268 C2267 1.355 . S
C2268 C2270 1.419 . S
C2269 C2264 1.425 . S
C2269 C2266 1.409 . S
C2269 C2267 1.415 . S
C2270 H2260 0.930 . S
C2270 C2268 1.419 . S
C2270 C2271 1.362 . S
C2271 H2261 0.930 . S
C2271 C2264 1.409 . S
C2271 C2270 1.362 . S
H2272 C2278 0.930 1_655 S
H2273 C2281 0.930 . S
H2274 C2282 0.930 . S
H2275 C2283 0.930 . S
H2276 C2286 0.930 1_655 S
H2277 C2287 0.930 . S
C2278 H2272 0.930 1_455 S
C2278 C2279 1.355 . S
C2278 C2280 1.415 . S
C2279 C2278 1.355 . S
C2279 C2281 1.419 . S
C2280 C2278 1.415 . S
C2280 C2285 1.425 . S
C2280 C2287 1.409 1_455 S
C2281 H2273 0.930 . S
C2281 C2279 1.419 . S
C2281 C2282 1.362 . S
C2282 H2274 0.930 . S
C2282 C2281 1.362 . S
C2282 C2285 1.409 . S
C2283 H2275 0.930 . S
C2283 C2284 1.355 . S
C2283 C2285 1.415 . S
C2284 C2283 1.355 . S
C2284 C2286 1.419 . S
C2285 C2280 1.425 . S
C2285 C2282 1.409 . S
C2285 C2283 1.415 . S
C2286 H2276 0.930 1_455 S
C2286 C2284 1.419 . S
C2286 C2287 1.362 1_455 S
C2287 H2277 0.930 . S
C2287 C2280 1.409 1_655 S
C2287 C2286 1.362 1_655 S
H2288 C2294 0.930 . S
H2289 C2297 0.930 . S
H2290 C2298 0.930 . S
H2291 C2299 0.930 . S
H2292 C2302 0.930 . S
H2293 C2303 0.930 . S
C2294 H2288 0.930 . S
C2294 C2295 1.355 . S
C2294 C2296 1.415 . S
C2295 C2294 1.355 . S
C2295 C2297 1.419 . S
C2296 C2294 1.415 . S
C2296 C2301 1.425 . S
C2296 C2303 1.409 . S
C2297 H2289 0.930 . S
C2297 C2295 1.419 . S
C2297 C2298 1.362 . S
C2298 H2290 0.930 . S
C2298 C2297 1.362 . S
C2298 C2301 1.409 . S
C2299 H2291 0.930 . S
C2299 C2300 1.355 . S
C2299 C2301 1.415 . S
C2300 C2299 1.355 . S
C2300 C2302 1.419 . S
C2301 C2296 1.425 . S
C2301 C2298 1.409 . S
C2301 C2299 1.415 . S
C2302 H2292 0.930 . S
C2302 C2300 1.419 . S
C2302 C2303 1.362 . S
C2303 H2293 0.930 . S
C2303 C2296 1.409 . S
C2303 C2302 1.362 . S
H2304 C2310 0.930 . S
H2305 C2313 0.930 . S
H2306 C2314 0.930 . S
H2307 C2315 0.930 . S
H2308 C2318 0.930 . S
H2309 C2319 0.930 . S
C2310 H2304 0.930 . S
C2310 C2311 1.355 . S
C2310 C2312 1.415 . S
C2311 C2310 1.355 . S
C2311 C2313 1.419 . S
C2312 C2310 1.415 . S
C2312 C2317 1.425 . S
C2312 C2319 1.409 . S
C2313 H2305 0.930 . S
C2313 C2311 1.419 . S
C2313 C2314 1.362 . S
C2314 H2306 0.930 . S
C2314 C2313 1.362 . S
C2314 C2317 1.409 . S
C2315 H2307 0.930 . S
C2315 C2316 1.355 . S
C2315 C2317 1.415 . S
C2316 C2315 1.355 . S
C2316 C2318 1.419 . S
C2317 C2312 1.425 . S
C2317 C2314 1.409 . S
C2317 C2315 1.415 . S
C2318 H2308 0.930 . S
C2318 C2316 1.419 . S
C2318 C2319 1.362 . S
C2319 H2309 0.930 . S
C2319 C2312 1.409 . S
C2319 C2318 1.362 . S
H2320 C2326 0.930 . S
H2321 C2329 0.930 . S
H2322 C2330 0.930 . S
H2323 C2331 0.930 . S
H2324 C2334 0.930 . S
H2325 C2335 0.930 . S
C2326 H2320 0.930 . S
C2326 C2327 1.355 . S
C2326 C2328 1.415 . S
C2327 C2326 1.355 . S
C2327 C2329 1.419 . S
C2328 C2326 1.415 . S
C2328 C2333 1.425 . S
C2328 C2335 1.409 . S
C2329 H2321 0.930 . S
C2329 C2327 1.419 . S
C2329 C2330 1.362 . S
C2330 H2322 0.930 . S
C2330 C2329 1.362 . S
C2330 C2333 1.409 . S
C2331 H2323 0.930 . S
C2331 C2332 1.355 . S
C2331 C2333 1.415 . S
C2332 C2331 1.355 . S
C2332 C2334 1.419 . S
C2333 C2328 1.425 . S
C2333 C2330 1.409 . S
C2333 C2331 1.415 . S
C2334 H2324 0.930 . S
C2334 C2332 1.419 . S
C2334 C2335 1.362 . S
C2335 H2325 0.930 . S
C2335 C2328 1.409 . S
C2335 C2334 1.362 . S
H2336 C2342 0.930 . S
H2337 C2345 0.930 1_565 S
H2338 C2346 0.930 1_565 S
H2339 C2347 0.930 . S
H2340 C2350 0.930 . S
H2341 C2351 0.930 . S
C2342 H2336 0.930 . S
C2342 C2343 1.355 . S
C2342 C2344 1.415 . S
C2343 C2342 1.355 . S
C2343 C2345 1.419 . S
C2344 C2342 1.415 . S
C2344 C2349 1.425 . S
C2344 C2351 1.409 1_655 S
C2345 H2337 0.930 1_545 S
C2345 C2343 1.419 . S
C2345 C2346 1.362 . S
C2346 H2338 0.930 1_545 S
C2346 C2345 1.362 . S
C2346 C2349 1.409 . S
C2347 H2339 0.930 . S
C2347 C2348 1.355 1_655 S
C2347 C2349 1.415 . S
C2348 C2347 1.355 1_455 S
C2348 C2350 1.419 . S
C2349 C2344 1.425 . S
C2349 C2346 1.409 . S
C2349 C2347 1.415 . S
C2350 H2340 0.930 . S
C2350 C2348 1.419 . S
C2350 C2351 1.362 . S
C2351 H2341 0.930 . S
C2351 C2344 1.409 1_455 S
C2351 C2350 1.362 . S
H2352 C2358 0.930 . S
H2353 C2361 0.930 . S
H2354 C2362 0.930 . S
H2355 C2363 0.930 . S
H2356 C2366 0.930 . S
H2357 C2367 0.930 . S
C2358 H2352 0.930 . S
C2358 C2359 1.355 . S
C2358 C2360 1.415 . S
C2359 C2358 1.355 . S
C2359 C2361 1.419 . S
C2360 C2358 1.415 . S
C2360 C2365 1.425 . S
C2360 C2367 1.409 . S
C2361 H2353 0.930 . S
C2361 C2359 1.419 . S
C2361 C2362 1.362 . S
C2362 H2354 0.930 . S
C2362 C2361 1.362 . S
C2362 C2365 1.409 . S
C2363 H2355 0.930 . S
C2363 C2364 1.355 . S
C2363 C2365 1.415 . S
C2364 C2363 1.355 . S
C2364 C2366 1.419 . S
C2365 C2360 1.425 . S
C2365 C2362 1.409 . S
C2365 C2363 1.415 . S
C2366 H2356 0.930 . S
C2366 C2364 1.419 . S
C2366 C2367 1.362 . S
C2367 H2357 0.930 . S
C2367 C2360 1.409 . S
C2367 C2366 1.362 . S
H2368 C2374 0.930 . S
H2369 C2377 0.930 . S
H2370 C2378 0.930 . S
H2371 C2379 0.930 . S
H2372 C2382 0.930 . S
H2373 C2383 0.930 . S
C2374 H2368 0.930 . S
C2374 C2375 1.355 . S
C2374 C2376 1.415 . S
C2375 C2374 1.355 . S
C2375 C2377 1.419 . S
C2376 C2374 1.415 . S
C2376 C2381 1.425 . S
C2376 C2383 1.409 . S
C2377 H2369 0.930 . S
C2377 C2375 1.419 . S
C2377 C2378 1.362 . S
C2378 H2370 0.930 . S
C2378 C2377 1.362 . S
C2378 C2381 1.409 . S
C2379 H2371 0.930 . S
C2379 C2380 1.355 . S
C2379 C2381 1.415 . S
C2380 C2379 1.355 . S
C2380 C2382 1.419 . S
C2381 C2376 1.425 . S
C2381 C2378 1.409 . S
C2381 C2379 1.415 . S
C2382 H2372 0.930 . S
C2382 C2380 1.419 . S
C2382 C2383 1.362 . S
C2383 H2373 0.930 . S
C2383 C2376 1.409 . S
C2383 C2382 1.362 . S
H2384 C2390 0.930 . S
H2385 C2393 0.930 . S
H2386 C2394 0.930 . S
H2387 C2395 0.930 . S
H2388 C2398 0.930 . S
H2389 C2399 0.930 . S
C2390 H2384 0.930 . S
C2390 C2391 1.355 . S
C2390 C2392 1.415 . S
C2391 C2390 1.355 . S
C2391 C2393 1.419 . S
C2392 C2390 1.415 . S
C2392 C2397 1.425 . S
C2392 C2399 1.409 . S
C2393 H2385 0.930 . S
C2393 C2391 1.419 . S
C2393 C2394 1.362 . S
C2394 H2386 0.930 . S
C2394 C2393 1.362 . S
C2394 C2397 1.409 . S
C2395 H2387 0.930 . S
C2395 C2396 1.355 . S
C2395 C2397 1.415 . S
C2396 C2395 1.355 . S
C2396 C2398 1.419 . S
C2397 C2392 1.425 . S
C2397 C2394 1.409 . S
C2397 C2395 1.415 . S
C2398 H2388 0.930 . S
C2398 C2396 1.419 . S
C2398 C2399 1.362 . S
C2399 H2389 0.930 . S
C2399 C2392 1.409 . S
C2399 C2398 1.362 . S
H2400 C2406 0.930 1_565 S
H2401 C2409 0.930 . S
H2402 C2410 0.930 . S
H2403 C2411 0.930 . S
H2404 C2414 0.930 . S
H2405 C2415 0.930 . S
C2406 H2400 0.930 1_545 S
C2406 C2407 1.355 . S
C2406 C2408 1.415 . S
C2407 C2406 1.355 . S
C2407 C2409 1.419 . S
C2408 C2406 1.415 . S
C2408 C2413 1.425 . S
C2408 C2415 1.409 1_545 S
C2409 H2401 0.930 . S
C2409 C2407 1.419 . S
C2409 C2410 1.362 . S
C2410 H2402 0.930 . S
C2410 C2409 1.362 . S
C2410 C2413 1.409 . S
C2411 H2403 0.930 . S
C2411 C2412 1.355 . S
C2411 C2413 1.415 1_455 S
C2412 C2411 1.355 . S
C2412 C2414 1.419 1_445 S
C2413 C2408 1.425 . S
C2413 C2410 1.409 . S
C2413 C2411 1.415 1_655 S
C2414 H2404 0.930 . S
C2414 C2412 1.419 1_665 S
C2414 C2415 1.362 . S
C2415 H2405 0.930 . S
C2415 C2408 1.409 1_565 S
C2415 C2414 1.362 . S
H2416 C2422 0.930 . S
H2417 C2425 0.930 . S
H2418 C2426 0.930 . S
H2419 C2427 0.930 . S
H2420 C2430 0.930 . S
H2421 C2431 0.930 . S
C2422 H2416 0.930 . S
C2422 C2423 1.355 . S
C2422 C2424 1.415 . S
C2423 C2422 1.355 . S
C2423 C2425 1.419 . S
C2424 C2422 1.415 . S
C2424 C2429 1.425 . S
C2424 C2431 1.409 . S
C2425 H2417 0.930 . S
C2425 C2423 1.419 . S
C2425 C2426 1.362 . S
C2426 H2418 0.930 . S
C2426 C2425 1.362 . S
C2426 C2429 1.409 . S
C2427 H2419 0.930 . S
C2427 C2428 1.355 . S
C2427 C2429 1.415 . S
C2428 C2427 1.355 . S
C2428 C2430 1.419 . S
C2429 C2424 1.425 . S
C2429 C2426 1.409 . S
C2429 C2427 1.415 . S
C2430 H2420 0.930 . S
C2430 C2428 1.419 . S
C2430 C2431 1.362 . S
C2431 H2421 0.930 . S
C2431 C2424 1.409 . S
C2431 C2430 1.362 . S
H2432 C2438 0.930 . S
H2433 C2441 0.930 . S
H2434 C2442 0.930 . S
H2435 C2443 0.930 . S
H2436 C2446 0.930 . S
H2437 C2447 0.930 . S
C2438 H2432 0.930 . S
C2438 C2439 1.355 . S
C2438 C2440 1.415 . S
C2439 C2438 1.355 . S
C2439 C2441 1.419 . S
C2440 C2438 1.415 . S
C2440 C2445 1.425 . S
C2440 C2447 1.409 . S
C2441 H2433 0.930 . S
C2441 C2439 1.419 . S
C2441 C2442 1.362 . S
C2442 H2434 0.930 . S
C2442 C2441 1.362 . S
C2442 C2445 1.409 . S
C2443 H2435 0.930 . S
C2443 C2444 1.355 . S
C2443 C2445 1.415 . S
C2444 C2443 1.355 . S
C2444 C2446 1.419 . S
C2445 C2440 1.425 . S
C2445 C2442 1.409 . S
C2445 C2443 1.415 . S
C2446 H2436 0.930 . S
C2446 C2444 1.419 . S
C2446 C2447 1.362 . S
C2447 H2437 0.930 . S
C2447 C2440 1.409 . S
C2447 C2446 1.362 . S
H2448 C2454 0.930 . S
H2449 C2457 0.930 . S
H2450 C2458 0.930 . S
H2451 C2459 0.930 . S
H2452 C2462 0.930 . S
H2453 C2463 0.930 . S
C2454 H2448 0.930 . S
C2454 C2455 1.355 . S
C2454 C2456 1.415 . S
C2455 C2454 1.355 . S
C2455 C2457 1.419 . S
C2456 C2454 1.415 . S
C2456 C2461 1.425 . S
C2456 C2463 1.409 . S
C2457 H2449 0.930 . S
C2457 C2455 1.419 . S
C2457 C2458 1.362 . S
C2458 H2450 0.930 . S
C2458 C2457 1.362 . S
C2458 C2461 1.409 . S
C2459 H2451 0.930 . S
C2459 C2460 1.355 . S
C2459 C2461 1.415 . S
C2460 C2459 1.355 . S
C2460 C2462 1.419 . S
C2461 C2456 1.425 . S
C2461 C2458 1.409 . S
C2461 C2459 1.415 . S
C2462 H2452 0.930 . S
C2462 C2460 1.419 . S
C2462 C2463 1.362 . S
C2463 H2453 0.930 . S
C2463 C2456 1.409 . S
C2463 C2462 1.362 . S
H2464 C2470 0.930 . S
H2465 C2473 0.930 . S
H2466 C2474 0.930 1_545 S
H2467 C2475 0.930 . S
H2468 C2478 0.936 . S
H2469 C2479 0.930 . S
C2470 H2464 0.930 . S
C2470 C2471 1.355 1_556 S
C2470 C2472 1.415 1_556 S
C2471 C2470 1.355 1_554 S
C2471 C2473 1.419 . S
C2472 C2470 1.415 1_554 S
C2472 C2477 1.425 . S
C2472 C2479 1.409 1_554 S
C2473 H2465 0.930 . S
C2473 C2471 1.419 . S
C2473 C2474 1.362 . S
C2474 H2466 0.930 1_565 S
C2474 C2473 1.362 . S
C2474 C2477 1.409 . S
C2475 H2467 0.930 . S
C2475 C2476 1.355 1_545 S
C2475 C2477 1.415 1_545 S
C2476 C2475 1.355 1_565 S
C2476 C2478 1.419 . S
C2477 C2472 1.425 . S
C2477 C2474 1.409 . S
C2477 C2475 1.415 1_565 S
C2478 H2468 0.936 . S
C2478 C2476 1.419 . S
C2478 C2479 1.362 1_554 S
C2479 H2469 0.930 . S
C2479 C2472 1.409 1_556 S
C2479 C2478 1.362 1_556 S
H2480 C2486 0.930 . S
H2481 C2489 0.930 . S
H2482 C2490 0.930 . S
H2483 C2491 0.930 1_556 S
H2484 C2494 0.930 . S
H2485 C2495 0.930 . S
C2486 H2480 0.930 . S
C2486 C2487 1.355 . S
C2486 C2488 1.415 . S
C2487 C2486 1.355 . S
C2487 C2489 1.419 1_554 S
C2488 C2486 1.415 . S
C2488 C2493 1.425 . S
C2488 C2495 1.409 . S
C2489 H2481 0.930 . S
C2489 C2487 1.419 1_556 S
C2489 C2490 1.362 . S
C2490 H2482 0.930 . S
C2490 C2489 1.362 . S
C2490 C2493 1.409 1_556 S
C2491 H2483 0.930 1_554 S
C2491 C2492 1.355 . S
C2491 C2493 1.415 . S
C2492 C2491 1.355 . S
C2492 C2494 1.419 . S
C2493 C2488 1.425 . S
C2493 C2490 1.409 1_554 S
C2493 C2491 1.415 . S
C2494 H2484 0.930 . S
C2494 C2492 1.419 . S
C2494 C2495 1.362 . S
C2495 H2485 0.930 . S
C2495 C2488 1.409 . S
C2495 C2494 1.362 . S
H2496 C2502 0.930 . S
H2497 C2505 0.930 . S
H2498 C2506 0.930 . S
H2499 C2507 0.930 . S
H2500 C2510 0.930 . S
H2501 C2511 0.930 . S
C2502 H2496 0.930 . S
C2502 C2503 1.355 . S
C2502 C2504 1.415 . S
C2503 C2502 1.355 . S
C2503 C2505 1.419 . S
C2504 C2502 1.415 . S
C2504 C2509 1.425 . S
C2504 C2511 1.409 . S
C2505 H2497 0.930 . S
C2505 C2503 1.419 . S
C2505 C2506 1.362 . S
C2506 H2498 0.930 . S
C2506 C2505 1.362 . S
C2506 C2509 1.409 . S
C2507 H2499 0.930 . S
C2507 C2508 1.355 . S
C2507 C2509 1.415 . S
C2508 C2507 1.355 . S
C2508 C2510 1.419 . S
C2509 C2504 1.425 . S
C2509 C2506 1.409 . S
C2509 C2507 1.415 . S
C2510 H2500 0.930 . S
C2510 C2508 1.419 . S
C2510 C2511 1.362 . S
C2511 H2501 0.930 . S
C2511 C2504 1.409 . S
C2511 C2510 1.362 . S
H2512 C2518 0.930 . S
H2513 C2521 0.930 . S
H2514 C2522 0.930 . S
H2515 C2523 0.930 . S
H2516 C2526 0.930 . S
H2517 C2527 0.930 . S
C2518 H2512 0.930 . S
C2518 C2519 1.355 . S
C2518 C2520 1.415 . S
C2519 C2518 1.355 . S
C2519 C2521 1.419 . S
C2520 C2518 1.415 . S
C2520 C2525 1.425 . S
C2520 C2527 1.409 . S
C2521 H2513 0.930 . S
C2521 C2519 1.419 . S
C2521 C2522 1.362 . S
C2522 H2514 0.930 . S
C2522 C2521 1.362 . S
C2522 C2525 1.409 . S
C2523 H2515 0.930 . S
C2523 C2524 1.355 . S
C2523 C2525 1.415 . S
C2524 C2523 1.355 . S
C2524 C2526 1.419 . S
C2525 C2520 1.425 . S
C2525 C2522 1.409 . S
C2525 C2523 1.415 . S
C2526 H2516 0.930 . S
C2526 C2524 1.419 . S
C2526 C2527 1.362 . S
C2527 H2517 0.930 . S
C2527 C2520 1.409 . S
C2527 C2526 1.362 . S
H2528 C2534 0.930 . S
H2529 C2537 0.930 . S
H2530 C2538 0.930 . S
H2531 C2539 0.930 . S
H2532 C2542 0.930 . S
H2533 C2543 0.930 . S
C2534 H2528 0.930 . S
C2534 C2535 1.355 . S
C2534 C2536 1.415 . S
C2535 C2534 1.355 . S
C2535 C2537 1.419 . S
C2536 C2534 1.415 . S
C2536 C2541 1.425 . S
C2536 C2543 1.409 . S
C2537 H2529 0.930 . S
C2537 C2535 1.419 . S
C2537 C2538 1.362 . S
C2538 H2530 0.930 . S
C2538 C2537 1.362 . S
C2538 C2541 1.409 . S
C2539 H2531 0.930 . S
C2539 C2540 1.355 . S
C2539 C2541 1.415 . S
C2540 C2539 1.355 . S
C2540 C2542 1.419 . S
C2541 C2536 1.425 . S
C2541 C2538 1.409 . S
C2541 C2539 1.415 . S
C2542 H2532 0.930 . S
C2542 C2540 1.419 . S
C2542 C2543 1.362 . S
C2543 H2533 0.930 . S
C2543 C2536 1.409 . S
C2543 C2542 1.362 . S
H2544 C2550 0.930 . S
H2545 C2553 0.930 . S
H2546 C2554 0.930 . S
H2547 C2555 0.930 . S
H2548 C2558 0.930 . S
H2549 C2559 0.930 . S
C2550 H2544 0.930 . S
C2550 C2551 1.355 . S
C2550 C2552 1.415 . S
C2551 C2550 1.355 . S
C2551 C2553 1.419 . S
C2552 C2550 1.415 . S
C2552 C2557 1.425 . S
C2552 C2559 1.409 . S
C2553 H2545 0.930 . S
C2553 C2551 1.419 . S
C2553 C2554 1.362 . S
C2554 H2546 0.930 . S
C2554 C2553 1.362 . S
C2554 C2557 1.409 . S
C2555 H2547 0.930 . S
C2555 C2556 1.355 . S
C2555 C2557 1.415 . S
C2556 C2555 1.355 . S
C2556 C2558 1.419 . S
C2557 C2552 1.425 . S
C2557 C2554 1.409 . S
C2557 C2555 1.415 . S
C2558 H2548 0.930 . S
C2558 C2556 1.419 . S
C2558 C2559 1.362 . S
C2559 H2549 0.930 . S
C2559 C2552 1.409 . S
C2559 C2558 1.362 . S
H2560 C2566 0.930 . S
H2561 C2569 0.930 . S
H2562 C2570 0.930 . S
H2563 C2571 0.930 . S
H2564 C2574 0.930 . S
H2565 C2575 0.930 . S
C2566 H2560 0.930 . S
C2566 C2567 1.355 . S
C2566 C2568 1.415 . S
C2567 C2566 1.355 . S
C2567 C2569 1.419 . S
C2568 C2566 1.415 . S
C2568 C2573 1.425 . S
C2568 C2575 1.409 . S
C2569 H2561 0.930 . S
C2569 C2567 1.419 . S
C2569 C2570 1.362 . S
C2570 H2562 0.930 . S
C2570 C2569 1.362 . S
C2570 C2573 1.409 . S
C2571 H2563 0.930 . S
C2571 C2572 1.355 . S
C2571 C2573 1.415 . S
C2572 C2571 1.355 . S
C2572 C2574 1.419 . S
C2573 C2568 1.425 . S
C2573 C2570 1.409 . S
C2573 C2571 1.415 . S
C2574 H2564 0.930 . S
C2574 C2572 1.419 . S
C2574 C2575 1.362 . S
C2575 H2565 0.930 . S
C2575 C2568 1.409 . S
C2575 C2574 1.362 . S
H2576 C2582 0.930 . S
H2577 C2585 0.930 . S
H2578 C2586 0.930 . S
H2579 C2587 0.930 . S
H2580 C2590 0.930 . S
H2581 C2591 0.930 . S
C2582 H2576 0.930 . S
C2582 C2583 1.355 . S
C2582 C2584 1.415 . S
C2583 C2582 1.355 . S
C2583 C2585 1.419 . S
C2584 C2582 1.415 . S
C2584 C2589 1.425 . S
C2584 C2591 1.409 . S
C2585 H2577 0.930 . S
C2585 C2583 1.419 . S
C2585 C2586 1.362 . S
C2586 H2578 0.930 . S
C2586 C2585 1.362 . S
C2586 C2589 1.409 . S
C2587 H2579 0.930 . S
C2587 C2588 1.355 . S
C2587 C2589 1.415 . S
C2588 C2587 1.355 . S
C2588 C2590 1.419 . S
C2589 C2584 1.425 . S
C2589 C2586 1.409 . S
C2589 C2587 1.415 . S
C2590 H2580 0.930 . S
C2590 C2588 1.419 . S
C2590 C2591 1.362 . S
C2591 H2581 0.930 . S
C2591 C2584 1.409 . S
C2591 C2590 1.362 . S
H2592 C2598 0.930 . S
H2593 C2601 0.930 . S
H2594 C2602 0.930 . S
H2595 C2603 0.930 . S
H2596 C2606 0.935 1_655 S
H2597 C2607 0.930 . S
C2598 H2592 0.930 . S
C2598 C2599 1.355 . S
C2598 C2600 1.415 . S
C2599 C2598 1.355 . S
C2599 C2601 1.419 . S
C2600 C2598 1.415 . S
C2600 C2605 1.425 . S
C2600 C2607 1.409 . S
C2601 H2593 0.930 . S
C2601 C2599 1.419 . S
C2601 C2602 1.362 . S
C2602 H2594 0.930 . S
C2602 C2601 1.362 . S
C2602 C2605 1.409 . S
C2603 H2595 0.930 . S
C2603 C2604 1.355 . S
C2603 C2605 1.415 . S
C2604 C2603 1.355 . S
C2604 C2606 1.419 . S
C2605 C2600 1.425 . S
C2605 C2602 1.409 . S
C2605 C2603 1.415 . S
C2606 H2596 0.935 1_455 S
C2606 C2604 1.419 . S
C2606 C2607 1.362 . S
C2607 H2597 0.930 . S
C2607 C2600 1.409 . S
C2607 C2606 1.362 . S
H2608 C2614 0.930 . S
H2609 C2617 0.930 . S
H2610 C2618 0.930 . S
H2611 C2619 0.930 . S
H2612 C2622 0.930 . S
H2613 C2623 0.930 . S
C2614 H2608 0.930 . S
C2614 C2615 1.355 . S
C2614 C2616 1.415 . S
C2615 C2614 1.355 . S
C2615 C2617 1.419 . S
C2616 C2614 1.415 . S
C2616 C2621 1.425 . S
C2616 C2623 1.409 . S
C2617 H2609 0.930 . S
C2617 C2615 1.419 . S
C2617 C2618 1.362 . S
C2618 H2610 0.930 . S
C2618 C2617 1.362 . S
C2618 C2621 1.409 . S
C2619 H2611 0.930 . S
C2619 C2620 1.355 . S
C2619 C2621 1.415 . S
C2620 C2619 1.355 . S
C2620 C2622 1.419 . S
C2621 C2616 1.425 . S
C2621 C2618 1.409 . S
C2621 C2619 1.415 . S
C2622 H2612 0.930 . S
C2622 C2620 1.419 . S
C2622 C2623 1.362 . S
C2623 H2613 0.930 . S
C2623 C2616 1.409 . S
C2623 C2622 1.362 . S
H2624 C2630 0.930 . S
H2625 C2633 0.930 . S
H2626 C2634 0.930 . S
H2627 C2635 0.930 . S
H2628 C2638 0.930 . S
H2629 C2639 0.930 . S
C2630 H2624 0.930 . S
C2630 C2631 1.355 . S
C2630 C2632 1.415 . S
C2631 C2630 1.355 . S
C2631 C2633 1.419 . S
C2632 C2630 1.415 . S
C2632 C2637 1.425 . S
C2632 C2639 1.409 . S
C2633 H2625 0.930 . S
C2633 C2631 1.419 . S
C2633 C2634 1.362 . S
C2634 H2626 0.930 . S
C2634 C2633 1.362 . S
C2634 C2637 1.409 . S
C2635 H2627 0.930 . S
C2635 C2636 1.355 . S
C2635 C2637 1.415 . S
C2636 C2635 1.355 . S
C2636 C2638 1.419 . S
C2637 C2632 1.425 . S
C2637 C2634 1.409 . S
C2637 C2635 1.415 . S
C2638 H2628 0.930 . S
C2638 C2636 1.419 . S
C2638 C2639 1.362 . S
C2639 H2629 0.930 . S
C2639 C2632 1.409 . S
C2639 C2638 1.362 . S
H2640 C2646 0.930 . S
H2641 C2649 0.930 . S
H2642 C2650 0.930 . S
H2643 C2651 0.930 . S
H2644 C2654 0.930 . S
H2645 C2655 0.930 . S
C2646 H2640 0.930 . S
C2646 C2647 1.355 . S
C2646 C2648 1.415 . S
C2647 C2646 1.355 . S
C2647 C2649 1.419 . S
C2648 C2646 1.415 . S
C2648 C2653 1.425 . S
C2648 C2655 1.409 . S
C2649 H2641 0.930 . S
C2649 C2647 1.419 . S
C2649 C2650 1.362 . S
C2650 H2642 0.930 . S
C2650 C2649 1.362 . S
C2650 C2653 1.409 . S
C2651 H2643 0.930 . S
C2651 C2652 1.355 . S
C2651 C2653 1.415 . S
C2652 C2651 1.355 . S
C2652 C2654 1.419 . S
C2653 C2648 1.425 . S
C2653 C2650 1.409 . S
C2653 C2651 1.415 . S
C2654 H2644 0.930 . S
C2654 C2652 1.419 . S
C2654 C2655 1.362 . S
C2655 H2645 0.930 . S
C2655 C2648 1.409 . S
C2655 C2654 1.362 . S
H2656 C2662 0.930 . S
H2657 C2665 0.930 . S
H2658 C2666 0.930 . S
H2659 C2667 0.930 . S
H2660 C2670 0.930 . S
H2661 C2671 0.930 . S
C2662 H2656 0.930 . S
C2662 C2663 1.355 . S
C2662 C2664 1.415 . S
C2663 C2662 1.355 . S
C2663 C2665 1.419 . S
C2664 C2662 1.415 . S
C2664 C2669 1.425 . S
C2664 C2671 1.409 . S
C2665 H2657 0.930 . S
C2665 C2663 1.419 . S
C2665 C2666 1.362 . S
C2666 H2658 0.930 . S
C2666 C2665 1.362 . S
C2666 C2669 1.409 . S
C2667 H2659 0.930 . S
C2667 C2668 1.355 . S
C2667 C2669 1.415 . S
C2668 C2667 1.355 . S
C2668 C2670 1.419 . S
C2669 C2664 1.425 . S
C2669 C2666 1.409 . S
C2669 C2667 1.415 . S
C2670 H2660 0.930 . S
C2670 C2668 1.419 . S
C2670 C2671 1.362 . S
C2671 H2661 0.930 . S
C2671 C2664 1.409 . S
C2671 C2670 1.362 . S
H2672 C2678 0.930 . S
H2673 C2681 0.930 . S
H2674 C2682 0.930 . S
H2675 C2683 0.930 . S
H2676 C2686 0.930 . S
H2677 C2687 0.930 . S
C2678 H2672 0.930 . S
C2678 C2679 1.355 . S
C2678 C2680 1.415 . S
C2679 C2678 1.355 . S
C2679 C2681 1.419 . S
C2680 C2678 1.415 . S
C2680 C2685 1.425 . S
C2680 C2687 1.409 . S
C2681 H2673 0.930 . S
C2681 C2679 1.419 . S
C2681 C2682 1.362 . S
C2682 H2674 0.930 . S
C2682 C2681 1.362 . S
C2682 C2685 1.409 . S
C2683 H2675 0.930 . S
C2683 C2684 1.355 . S
C2683 C2685 1.415 . S
C2684 C2683 1.355 . S
C2684 C2686 1.419 . S
C2685 C2680 1.425 . S
C2685 C2682 1.409 . S
C2685 C2683 1.415 . S
C2686 H2676 0.930 . S
C2686 C2684 1.419 . S
C2686 C2687 1.362 . S
C2687 H2677 0.930 . S
C2687 C2680 1.409 . S
C2687 C2686 1.362 . S
H2688 C2694 0.930 . S
H2689 C2697 0.930 . S
H2690 C2698 0.930 . S
H2691 C2699 0.930 . S
H2692 C2702 0.930 1_554 S
H2693 C2703 0.930 . S
C2694 H2688 0.930 . S
C2694 C2695 1.355 . S
C2694 C2696 1.415 . S
C2695 C2694 1.355 . S
C2695 C2697 1.419 . S
C2696 C2694 1.415 . S
C2696 C2701 1.425 . S
C2696 C2703 1.409 . S
C2697 H2689 0.930 . S
C2697 C2695 1.419 . S
C2697 C2698 1.362 . S
C2698 H2690 0.930 . S
C2698 C2697 1.362 . S
C2698 C2701 1.409 . S
C2699 H2691 0.930 . S
C2699 C2700 1.355 . S
C2699 C2701 1.415 . S
C2700 C2699 1.355 . S
C2700 C2702 1.419 . S
C2701 C2696 1.425 . S
C2701 C2698 1.409 . S
C2701 C2699 1.415 . S
C2702 H2692 0.930 1_556 S
C2702 C2700 1.419 . S
C2702 C2703 1.362 . S
C2703 H2693 0.930 . S
C2703 C2696 1.409 . S
C2703 C2702 1.362 . S
H2704 C2710 0.930 . S
H2705 C2713 0.930 . S
H2706 C2714 0.930 . S
H2707 C2715 0.930 . S
H2708 C2718 0.930 . S
H2709 C2719 0.930 . S
C2710 H2704 0.930 . S
C2710 C2711 1.355 . S
C2710 C2712 1.415 . S
C2711 C2710 1.355 . S
C2711 C2713 1.419 . S
C2712 C2710 1.415 . S
C2712 C2717 1.425 . S
C2712 C2719 1.409 . S
C2713 H2705 0.930 . S
C2713 C2711 1.419 . S
C2713 C2714 1.362 . S
C2714 H2706 0.930 . S
C2714 C2713 1.362 . S
C2714 C2717 1.409 . S
C2715 H2707 0.930 . S
C2715 C2716 1.355 . S
C2715 C2717 1.415 . S
C2716 C2715 1.355 . S
C2716 C2718 1.419 . S
C2717 C2712 1.425 . S
C2717 C2714 1.409 . S
C2717 C2715 1.415 . S
C2718 H2708 0.930 . S
C2718 C2716 1.419 . S
C2718 C2719 1.362 . S
C2719 H2709 0.930 . S
C2719 C2712 1.409 . S
C2719 C2718 1.362 . S
H2720 C2726 0.930 . S
H2721 C2729 0.930 . S
H2722 C2730 0.930 . S
H2723 C2731 0.930 . S
H2724 C2734 0.930 . S
H2725 C2735 0.930 . S
C2726 H2720 0.930 . S
C2726 C2727 1.355 . S
C2726 C2728 1.415 . S
C2727 C2726 1.355 . S
C2727 C2729 1.419 . S
C2728 C2726 1.415 . S
C2728 C2733 1.425 . S
C2728 C2735 1.409 . S
C2729 H2721 0.930 . S
C2729 C2727 1.419 . S
C2729 C2730 1.362 . S
C2730 H2722 0.930 . S
C2730 C2729 1.362 . S
C2730 C2733 1.409 . S
C2731 H2723 0.930 . S
C2731 C2732 1.355 . S
C2731 C2733 1.415 . S
C2732 C2731 1.355 . S
C2732 C2734 1.419 . S
C2733 C2728 1.425 . S
C2733 C2730 1.409 . S
C2733 C2731 1.415 . S
C2734 H2724 0.930 . S
C2734 C2732 1.419 . S
C2734 C2735 1.362 . S
C2735 H2725 0.930 . S
C2735 C2728 1.409 . S
C2735 C2734 1.362 . S
H2736 C2742 0.930 . S
H2737 C2745 0.930 . S
H2738 C2746 0.930 . S
H2739 C2747 0.930 . S
H2740 C2750 0.930 . S
H2741 C2751 0.930 . S
C2742 H2736 0.930 . S
C2742 C2743 1.355 . S
C2742 C2744 1.415 . S
C2743 C2742 1.355 . S
C2743 C2745 1.419 . S
C2744 C2742 1.415 . S
C2744 C2749 1.425 . S
C2744 C2751 1.409 . S
C2745 H2737 0.930 . S
C2745 C2743 1.419 . S
C2745 C2746 1.362 . S
C2746 H2738 0.930 . S
C2746 C2745 1.362 . S
C2746 C2749 1.409 . S
C2747 H2739 0.930 . S
C2747 C2748 1.355 . S
C2747 C2749 1.415 . S
C2748 C2747 1.355 . S
C2748 C2750 1.419 . S
C2749 C2744 1.425 . S
C2749 C2746 1.409 . S
C2749 C2747 1.415 . S
C2750 H2740 0.930 . S
C2750 C2748 1.419 . S
C2750 C2751 1.362 . S
C2751 H2741 0.930 . S
C2751 C2744 1.409 . S
C2751 C2750 1.362 . S
H2752 C2758 0.930 . S
H2753 C2761 0.930 . S
H2754 C2762 0.930 . S
H2755 C2763 0.930 . S
H2756 C2766 0.930 . S
H2757 C2767 0.930 . S
C2758 H2752 0.930 . S
C2758 C2759 1.355 . S
C2758 C2760 1.415 . S
C2759 C2758 1.355 . S
C2759 C2761 1.419 . S
C2760 C2758 1.415 . S
C2760 C2765 1.425 . S
C2760 C2767 1.409 . S
C2761 H2753 0.930 . S
C2761 C2759 1.419 . S
C2761 C2762 1.362 . S
C2762 H2754 0.930 . S
C2762 C2761 1.362 . S
C2762 C2765 1.409 . S
C2763 H2755 0.930 . S
C2763 C2764 1.355 . S
C2763 C2765 1.415 . S
C2764 C2763 1.355 . S
C2764 C2766 1.419 . S
C2765 C2760 1.425 . S
C2765 C2762 1.409 . S
C2765 C2763 1.415 . S
C2766 H2756 0.930 . S
C2766 C2764 1.419 . S
C2766 C2767 1.362 . S
C2767 H2757 0.930 . S
C2767 C2760 1.409 . S
C2767 C2766 1.362 . S
H2768 C2774 0.930 . S
H2769 C2777 0.930 . S
H2770 C2778 0.930 . S
H2771 C2779 0.930 . S
H2772 C2782 0.930 . S
H2773 C2783 0.930 . S
C2774 H2768 0.930 . S
C2774 C2775 1.355 . S
C2774 C2776 1.415 . S
C2775 C2774 1.355 . S
C2775 C2777 1.419 . S
C2776 C2774 1.415 . S
C2776 C2781 1.425 . S
C2776 C2783 1.409 . S
C2777 H2769 0.930 . S
C2777 C2775 1.419 . S
C2777 C2778 1.362 . S
C2778 H2770 0.930 . S
C2778 C2777 1.362 . S
C2778 C2781 1.409 . S
C2779 H2771 0.930 . S
C2779 C2780 1.355 . S
C2779 C2781 1.415 . S
C2780 C2779 1.355 . S
C2780 C2782 1.419 . S
C2781 C2776 1.425 . S
C2781 C2778 1.409 . S
C2781 C2779 1.415 . S
C2782 H2772 0.930 . S
C2782 C2780 1.419 . S
C2782 C2783 1.362 . S
C2783 H2773 0.930 . S
C2783 C2776 1.409 . S
C2783 C2782 1.362 . S
H2784 C2790 0.930 . S
H2785 C2793 0.930 . S
H2786 C2794 0.930 . S
H2787 C2795 0.930 . S
H2788 C2798 0.947 . S
H2789 C2799 0.930 1_565 S
C2790 H2784 0.930 . S
C2790 C2791 1.355 . S
C2790 C2792 1.415 . S
C2791 C2790 1.355 . S
C2791 C2793 1.419 . S
C2792 C2790 1.415 . S
C2792 C2797 1.425 . S
C2792 C2799 1.409 . S
C2793 H2785 0.930 . S
C2793 C2791 1.419 . S
C2793 C2794 1.362 . S
C2794 H2786 0.930 . S
C2794 C2793 1.362 . S
C2794 C2797 1.409 . S
C2795 H2787 0.930 . S
C2795 C2796 1.355 . S
C2795 C2797 1.415 . S
C2796 C2795 1.355 . S
C2796 C2798 1.419 . S
C2797 C2792 1.425 . S
C2797 C2794 1.409 . S
C2797 C2795 1.415 . S
C2798 H2788 0.947 . S
C2798 C2796 1.419 . S
C2798 C2799 1.362 . S
C2799 H2789 0.930 1_545 S
C2799 C2792 1.409 . S
C2799 C2798 1.362 . S
H2800 C2806 0.930 . S
H2801 C2809 0.930 . S
H2802 C2810 0.930 . S
H2803 C2811 0.930 . S
H2804 C2814 0.930 . S
H2805 C2815 0.930 . S
C2806 H2800 0.930 . S
C2806 C2807 1.355 . S
C2806 C2808 1.415 . S
C2807 C2806 1.355 . S
C2807 C2809 1.419 . S
C2808 C2806 1.415 . S
C2808 C2813 1.425 . S
C2808 C2815 1.409 . S
C2809 H2801 0.930 . S
C2809 C2807 1.419 . S
C2809 C2810 1.362 . S
C2810 H2802 0.930 . S
C2810 C2809 1.362 . S
C2810 C2813 1.409 . S
C2811 H2803 0.930 . S
C2811 C2812 1.355 . S
C2811 C2813 1.415 . S
C2812 C2811 1.355 . S
C2812 C2814 1.419 . S
C2813 C2808 1.425 . S
C2813 C2810 1.409 . S
C2813 C2811 1.415 . S
C2814 H2804 0.930 . S
C2814 C2812 1.419 . S
C2814 C2815 1.362 . S
C2815 H2805 0.930 . S
C2815 C2808 1.409 . S
C2815 C2814 1.362 . S
H2816 C2822 0.930 . S
H2817 C2825 0.930 . S
H2818 C2826 0.930 . S
H2819 C2827 0.930 1_565 S
H2820 C2830 0.930 . S
H2821 C2831 0.930 . S
C2822 H2816 0.930 . S
C2822 C2823 1.355 . S
C2822 C2824 1.415 . S
C2823 C2822 1.355 . S
C2823 C2825 1.419 1_545 S
C2824 C2822 1.415 . S
C2824 C2829 1.425 . S
C2824 C2831 1.409 . S
C2825 H2817 0.930 . S
C2825 C2823 1.419 1_565 S
C2825 C2826 1.362 . S
C2826 H2818 0.930 . S
C2826 C2825 1.362 . S
C2826 C2829 1.409 1_565 S
C2827 H2819 0.930 1_545 S
C2827 C2828 1.355 . S
C2827 C2829 1.415 . S
C2828 C2827 1.355 . S
C2828 C2830 1.419 . S
C2829 C2824 1.425 . S
C2829 C2826 1.409 1_545 S
C2829 C2827 1.415 . S
C2830 H2820 0.930 . S
C2830 C2828 1.419 . S
C2830 C2831 1.362 . S
C2831 H2821 0.930 . S
C2831 C2824 1.409 . S
C2831 C2830 1.362 . S
H2832 C2838 0.930 . S
H2833 C2841 0.930 . S
H2834 C2842 0.930 . S
H2835 C2843 0.930 . S
H2836 C2846 0.930 . S
H2837 C2847 0.930 . S
C2838 H2832 0.930 . S
C2838 C2839 1.355 . S
C2838 C2840 1.415 . S
C2839 C2838 1.355 . S
C2839 C2841 1.419 . S
C2840 C2838 1.415 . S
C2840 C2845 1.425 . S
C2840 C2847 1.409 . S
C2841 H2833 0.930 . S
C2841 C2839 1.419 . S
C2841 C2842 1.362 . S
C2842 H2834 0.930 . S
C2842 C2841 1.362 . S
C2842 C2845 1.409 . S
C2843 H2835 0.930 . S
C2843 C2844 1.355 . S
C2843 C2845 1.415 . S
C2844 C2843 1.355 . S
C2844 C2846 1.419 . S
C2845 C2840 1.425 . S
C2845 C2842 1.409 . S
C2845 C2843 1.415 . S
C2846 H2836 0.930 . S
C2846 C2844 1.419 . S
C2846 C2847 1.362 . S
C2847 H2837 0.930 . S
C2847 C2840 1.409 . S
C2847 C2846 1.362 . S
H2848 C2854 0.930 . S
H2849 C2857 0.930 . S
H2850 C2858 0.930 . S
H2851 C2859 0.930 . S
H2852 C2862 0.930 . S
H2853 C2863 0.930 . S
C2854 H2848 0.930 . S
C2854 C2855 1.355 . S
C2854 C2856 1.415 . S
C2855 C2854 1.355 . S
C2855 C2857 1.419 . S
C2856 C2854 1.415 . S
C2856 C2861 1.425 . S
C2856 C2863 1.409 . S
C2857 H2849 0.930 . S
C2857 C2855 1.419 . S
C2857 C2858 1.362 . S
C2858 H2850 0.930 . S
C2858 C2857 1.362 . S
C2858 C2861 1.409 . S
C2859 H2851 0.930 . S
C2859 C2860 1.355 . S
C2859 C2861 1.415 . S
C2860 C2859 1.355 . S
C2860 C2862 1.419 . S
C2861 C2856 1.425 . S
C2861 C2858 1.409 . S
C2861 C2859 1.415 . S
C2862 H2852 0.930 . S
C2862 C2860 1.419 . S
C2862 C2863 1.362 . S
C2863 H2853 0.930 . S
C2863 C2856 1.409 . S
C2863 C2862 1.362 . S
H2864 C2870 0.930 . S
H2865 C2873 0.930 . S
H2866 C2874 0.930 . S
H2867 C2875 0.930 . S
H2868 C2878 0.930 . S
H2869 C2879 0.930 . S
C2870 H2864 0.930 . S
C2870 C2871 1.355 . S
C2870 C2872 1.415 . S
C2871 C2870 1.355 . S
C2871 C2873 1.419 . S
C2872 C2870 1.415 . S
C2872 C2877 1.425 . S
C2872 C2879 1.409 . S
C2873 H2865 0.930 . S
C2873 C2871 1.419 . S
C2873 C2874 1.362 . S
C2874 H2866 0.930 . S
C2874 C2873 1.362 . S
C2874 C2877 1.409 . S
C2875 H2867 0.930 . S
C2875 C2876 1.355 . S
C2875 C2877 1.415 . S
C2876 C2875 1.355 . S
C2876 C2878 1.419 . S
C2877 C2872 1.425 . S
C2877 C2874 1.409 . S
C2877 C2875 1.415 . S
C2878 H2868 0.930 . S
C2878 C2876 1.419 . S
C2878 C2879 1.362 . S
C2879 H2869 0.930 . S
C2879 C2872 1.409 . S
C2879 C2878 1.362 . S
H2880 C2886 0.930 . S
H2881 C2889 0.930 . S
H2882 C2890 0.930 . S
H2883 C2891 0.930 . S
H2884 C2894 0.930 . S
H2885 C2895 0.930 . S
C2886 H2880 0.930 . S
C2886 C2887 1.355 . S
C2886 C2888 1.415 . S
C2887 C2886 1.355 . S
C2887 C2889 1.419 . S
C2888 C2886 1.415 . S
C2888 C2893 1.425 . S
C2888 C2895 1.409 . S
C2889 H2881 0.930 . S
C2889 C2887 1.419 . S
C2889 C2890 1.362 . S
C2890 H2882 0.930 . S
C2890 C2889 1.362 . S
C2890 C2893 1.409 . S
C2891 H2883 0.930 . S
C2891 C2892 1.355 . S
C2891 C2893 1.415 . S
C2892 C2891 1.355 . S
C2892 C2894 1.419 . S
C2893 C2888 1.425 . S
C2893 C2890 1.409 . S
C2893 C2891 1.415 . S
C2894 H2884 0.930 . S
C2894 C2892 1.419 . S
C2894 C2895 1.362 . S
C2895 H2885 0.930 . S
C2895 C2888 1.409 . S
C2895 C2894 1.362 . S
H2896 C2902 0.930 . S
H2897 C2905 0.930 . S
H2898 C2906 0.930 . S
H2899 C2907 0.930 . S
H2900 C2910 0.930 . S
H2901 C2911 0.930 . S
C2902 H2896 0.930 . S
C2902 C2903 1.355 . S
C2902 C2904 1.415 . S
C2903 C2902 1.355 . S
C2903 C2905 1.419 . S
C2904 C2902 1.415 . S
C2904 C2909 1.425 . S
C2904 C2911 1.409 . S
C2905 H2897 0.930 . S
C2905 C2903 1.419 . S
C2905 C2906 1.362 . S
C2906 H2898 0.930 . S
C2906 C2905 1.362 . S
C2906 C2909 1.409 . S
C2907 H2899 0.930 . S
C2907 C2908 1.355 . S
C2907 C2909 1.415 . S
C2908 C2907 1.355 . S
C2908 C2910 1.419 . S
C2909 C2904 1.425 . S
C2909 C2906 1.409 . S
C2909 C2907 1.415 . S
C2910 H2900 0.930 . S
C2910 C2908 1.419 . S
C2910 C2911 1.362 . S
C2911 H2901 0.930 . S
C2911 C2904 1.409 . S
C2911 C2910 1.362 . S
H2912 C2918 0.930 . S
H2913 C2921 0.930 . S
H2914 C2922 0.930 . S
H2915 C2923 0.930 . S
H2916 C2926 0.930 . S
H2917 C2927 0.930 . S
C2918 H2912 0.930 . S
C2918 C2919 1.355 . S
C2918 C2920 1.415 1_545 S
C2919 C2918 1.355 . S
C2919 C2921 1.419 1_545 S
C2920 C2918 1.415 1_565 S
C2920 C2925 1.425 . S
C2920 C2927 1.409 . S
C2921 H2913 0.930 . S
C2921 C2919 1.419 1_565 S
C2921 C2922 1.362 . S
C2922 H2914 0.930 . S
C2922 C2921 1.362 . S
C2922 C2925 1.409 . S
C2923 H2915 0.930 . S
C2923 C2924 1.355 . S
C2923 C2925 1.415 . S
C2924 C2923 1.355 . S
C2924 C2926 1.419 . S
C2925 C2920 1.425 . S
C2925 C2922 1.409 . S
C2925 C2923 1.415 . S
C2926 H2916 0.930 . S
C2926 C2924 1.419 . S
C2926 C2927 1.362 . S
C2927 H2917 0.930 . S
C2927 C2920 1.409 . S
C2927 C2926 1.362 . S
H2928 C2934 0.930 . S
H2929 C2937 0.930 . S
H2930 C2938 0.930 . S
H2931 C2939 0.930 . S
H2932 C2942 0.930 . S
H2933 C2943 0.930 . S
C2934 H2928 0.930 . S
C2934 C2935 1.355 . S
C2934 C2936 1.415 . S
C2935 C2934 1.355 . S
C2935 C2937 1.419 . S
C2936 C2934 1.415 . S
C2936 C2941 1.425 . S
C2936 C2943 1.409 . S
C2937 H2929 0.930 . S
C2937 C2935 1.419 . S
C2937 C2938 1.362 . S
C2938 H2930 0.930 . S
C2938 C2937 1.362 . S
C2938 C2941 1.409 . S
C2939 H2931 0.930 . S
C2939 C2940 1.355 . S
C2939 C2941 1.415 . S
C2940 C2939 1.355 . S
C2940 C2942 1.419 . S
C2941 C2936 1.425 . S
C2941 C2938 1.409 . S
C2941 C2939 1.415 . S
C2942 H2932 0.930 . S
C2942 C2940 1.419 . S
C2942 C2943 1.362 . S
C2943 H2933 0.930 . S
C2943 C2936 1.409 . S
C2943 C2942 1.362 . S
H2944 C2950 0.930 . S
H2945 C2953 0.930 . S
H2946 C2954 0.930 . S
H2947 C2955 0.930 . S
H2948 C2958 0.930 . S
H2949 C2959 0.930 . S
C2950 H2944 0.930 . S
C2950 C2951 1.355 . S
C2950 C2952 1.415 . S
C2951 C2950 1.355 . S
C2951 C2953 1.419 . S
C2952 C2950 1.415 . S
C2952 C2957 1.425 . S
C2952 C2959 1.409 . S
C2953 H2945 0.930 . S
C2953 C2951 1.419 . S
C2953 C2954 1.362 . S
C2954 H2946 0.930 . S
C2954 C2953 1.362 . S
C2954 C2957 1.409 . S
C2955 H2947 0.930 . S
C2955 C2956 1.355 . S
C2955 C2957 1.415 . S
C2956 C2955 1.355 . S
C2956 C2958 1.419 . S
C2957 C2952 1.425 . S
C2957 C2954 1.409 . S
C2957 C2955 1.415 . S
C2958 H2948 0.930 . S
C2958 C2956 1.419 . S
C2958 C2959 1.362 . S
C2959 H2949 0.930 . S
C2959 C2952 1.409 . S
C2959 C2958 1.362 . S
H2960 C2966 0.930 . S
H2961 C2969 0.930 . S
H2962 C2970 0.930 . S
H2963 C2971 0.930 . S
H2964 C2974 0.930 . S
H2965 C2975 0.930 . S
C2966 H2960 0.930 . S
C2966 C2967 1.355 . S
C2966 C2968 1.415 . S
C2967 C2966 1.355 . S
C2967 C2969 1.419 . S
C2968 C2966 1.415 . S
C2968 C2973 1.425 . S
C2968 C2975 1.409 . S
C2969 H2961 0.930 . S
C2969 C2967 1.419 . S
C2969 C2970 1.362 . S
C2970 H2962 0.930 . S
C2970 C2969 1.362 . S
C2970 C2973 1.409 . S
C2971 H2963 0.930 . S
C2971 C2972 1.355 . S
C2971 C2973 1.415 . S
C2972 C2971 1.355 . S
C2972 C2974 1.419 . S
C2973 C2968 1.425 . S
C2973 C2970 1.409 . S
C2973 C2971 1.415 . S
C2974 H2964 0.930 . S
C2974 C2972 1.419 . S
C2974 C2975 1.362 . S
C2975 H2965 0.930 . S
C2975 C2968 1.409 . S
C2975 C2974 1.362 . S
H2976 C2982 0.930 . S
H2977 C2985 0.930 . S
H2978 C2986 0.930 . S
H2979 C2987 0.930 . S
H2980 C2990 0.930 . S
H2981 C2991 0.930 . S
C2982 H2976 0.930 . S
C2982 C2983 1.355 . S
C2982 C2984 1.415 . S
C2983 C2982 1.355 . S
C2983 C2985 1.419 . S
C2984 C2982 1.415 . S
C2984 C2989 1.425 . S
C2984 C2991 1.409 . S
C2985 H2977 0.930 . S
C2985 C2983 1.419 . S
C2985 C2986 1.362 . S
C2986 H2978 0.930 . S
C2986 C2985 1.362 . S
C2986 C2989 1.409 . S
C2987 H2979 0.930 . S
C2987 C2988 1.355 . S
C2987 C2989 1.415 . S
C2988 C2987 1.355 . S
C2988 C2990 1.419 . S
C2989 C2984 1.425 . S
C2989 C2986 1.409 . S
C2989 C2987 1.415 . S
C2990 H2980 0.930 . S
C2990 C2988 1.419 . S
C2990 C2991 1.362 . S
C2991 H2981 0.930 . S
C2991 C2984 1.409 . S
C2991 C2990 1.362 . S
H2992 C2998 0.930 . S
H2993 C3001 0.930 . S
H2994 C3002 0.930 . S
H2995 C3003 0.930 . S
H2996 C3006 0.930 . S
H2997 C3007 0.930 . S
C2998 H2992 0.930 . S
C2998 C2999 1.355 . S
C2998 C3000 1.415 . S
C2999 C2998 1.355 . S
C2999 C3001 1.419 . S
C3000 C2998 1.415 . S
C3000 C3005 1.425 . S
C3000 C3007 1.409 . S
C3001 H2993 0.930 . S
C3001 C2999 1.419 . S
C3001 C3002 1.362 . S
C3002 H2994 0.930 . S
C3002 C3001 1.362 . S
C3002 C3005 1.409 . S
C3003 H2995 0.930 . S
C3003 C3004 1.355 . S
C3003 C3005 1.415 . S
C3004 C3003 1.355 . S
C3004 C3006 1.419 . S
C3005 C3000 1.425 . S
C3005 C3002 1.409 . S
C3005 C3003 1.415 . S
C3006 H2996 0.930 . S
C3006 C3004 1.419 . S
C3006 C3007 1.362 . S
C3007 H2997 0.930 . S
C3007 C3000 1.409 . S
C3007 C3006 1.362 . S
H3008 C3014 0.930 . S
H3009 C3017 0.931 . S
H3010 C3018 0.930 . S
H3011 C3019 0.930 . S
H3012 C3022 0.930 . S
H3013 C3023 0.930 . S
C3014 H3008 0.930 . S
C3014 C3015 1.355 1_655 S
C3014 C3016 1.415 1_655 S
C3015 C3014 1.355 1_455 S
C3015 C3017 1.416 1_556 S
C3016 C3014 1.415 1_455 S
C3016 C3021 1.425 1_556 S
C3016 C3023 1.409 1_455 S
C3017 H3009 0.931 . S
C3017 C3015 1.416 1_554 S
C3017 C3018 1.365 . S
C3018 H3010 0.930 . S
C3018 C3017 1.365 . S
C3018 C3021 1.409 . S
C3019 H3011 0.930 . S
C3019 C3020 1.355 . S
C3019 C3021 1.415 . S
C3020 C3019 1.355 . S
C3020 C3022 1.419 1_455 S
C3021 C3016 1.425 1_554 S
C3021 C3018 1.409 . S
C3021 C3019 1.415 . S
C3022 H3012 0.930 . S
C3022 C3020 1.419 1_655 S
C3022 C3023 1.362 1_554 S
C3023 H3013 0.930 . S
C3023 C3016 1.409 1_655 S
C3023 C3022 1.362 1_556 S
H3024 C3030 0.930 1_455 S
H3025 C3033 0.930 . S
H3026 C3034 0.930 . S
H3027 C3035 0.930 . S
H3028 C3038 0.930 . S
H3029 C3039 0.930 . S
C3030 H3024 0.930 1_655 S
C3030 C3031 1.355 . S
C3030 C3032 1.415 . S
C3031 C3030 1.355 . S
C3031 C3033 1.419 . S
C3032 C3030 1.415 . S
C3032 C3037 1.425 . S
C3032 C3039 1.409 . S
C3033 H3025 0.930 . S
C3033 C3031 1.419 . S
C3033 C3034 1.362 . S
C3034 H3026 0.930 . S
C3034 C3033 1.362 . S
C3034 C3037 1.409 . S
C3035 H3027 0.930 . S
C3035 C3036 1.355 . S
C3035 C3037 1.415 . S
C3036 C3035 1.355 . S
C3036 C3038 1.419 . S
C3037 C3032 1.425 . S
C3037 C3034 1.409 . S
C3037 C3035 1.415 . S
C3038 H3028 0.930 . S
C3038 C3036 1.419 . S
C3038 C3039 1.362 . S
C3039 H3029 0.930 . S
C3039 C3032 1.409 . S
C3039 C3038 1.362 . S
H3040 C3046 0.930 . S
H3041 C3049 0.930 . S
H3042 C3050 0.930 . S
H3043 C3051 0.930 . S
H3044 C3054 0.930 . S
H3045 C3055 0.930 . S
C3046 H3040 0.930 . S
C3046 C3047 1.355 . S
C3046 C3048 1.415 . S
C3047 C3046 1.355 . S
C3047 C3049 1.419 . S
C3048 C3046 1.415 . S
C3048 C3053 1.425 . S
C3048 C3055 1.409 . S
C3049 H3041 0.930 . S
C3049 C3047 1.419 . S
C3049 C3050 1.362 . S
C3050 H3042 0.930 . S
C3050 C3049 1.362 . S
C3050 C3053 1.409 . S
C3051 H3043 0.930 . S
C3051 C3052 1.355 . S
C3051 C3053 1.415 . S
C3052 C3051 1.355 . S
C3052 C3054 1.419 . S
C3053 C3048 1.425 . S
C3053 C3050 1.409 . S
C3053 C3051 1.415 . S
C3054 H3044 0.930 . S
C3054 C3052 1.419 . S
C3054 C3055 1.362 . S
C3055 H3045 0.930 . S
C3055 C3048 1.409 . S
C3055 C3054 1.362 . S
H3056 C3062 0.930 . S
H3057 C3065 0.930 . S
H3058 C3066 0.930 . S
H3059 C3067 0.930 . S
H3060 C3070 0.930 . S
H3061 C3071 0.930 . S
C3062 H3056 0.930 . S
C3062 C3063 1.355 . S
C3062 C3064 1.415 . S
C3063 C3062 1.355 . S
C3063 C3065 1.419 . S
C3064 C3062 1.415 . S
C3064 C3069 1.425 . S
C3064 C3071 1.409 . S
C3065 H3057 0.930 . S
C3065 C3063 1.419 . S
C3065 C3066 1.362 . S
C3066 H3058 0.930 . S
C3066 C3065 1.362 . S
C3066 C3069 1.409 . S
C3067 H3059 0.930 . S
C3067 C3068 1.355 . S
C3067 C3069 1.415 . S
C3068 C3067 1.355 . S
C3068 C3070 1.419 . S
C3069 C3064 1.425 . S
C3069 C3066 1.409 . S
C3069 C3067 1.415 . S
C3070 H3060 0.930 . S
C3070 C3068 1.419 . S
C3070 C3071 1.362 . S
C3071 H3061 0.930 . S
C3071 C3064 1.409 . S
C3071 C3070 1.362 . S
H3072 C3078 0.930 . S
H3073 C3081 0.930 1_655 S
H3074 C3082 0.930 1_655 S
H3075 C3083 0.930 . S
H3076 C3086 0.930 . S
H3077 C3087 0.930 . S
C3078 H3072 0.930 . S
C3078 C3079 1.355 . S
C3078 C3080 1.415 . S
C3079 C3078 1.355 . S
C3079 C3081 1.419 . S
C3080 C3078 1.415 . S
C3080 C3085 1.425 . S
C3080 C3087 1.409 . S
C3081 H3073 0.930 1_455 S
C3081 C3079 1.419 . S
C3081 C3082 1.362 . S
C3082 H3074 0.930 1_455 S
C3082 C3081 1.362 . S
C3082 C3085 1.409 . S
C3083 H3075 0.930 . S
C3083 C3084 1.355 . S
C3083 C3085 1.415 . S
C3084 C3083 1.355 . S
C3084 C3086 1.419 . S
C3085 C3080 1.425 . S
C3085 C3082 1.409 . S
C3085 C3083 1.415 . S
C3086 H3076 0.930 . S
C3086 C3084 1.419 . S
C3086 C3087 1.362 . S
C3087 H3077 0.930 . S
C3087 C3080 1.409 . S
C3087 C3086 1.362 . S
H3088 C3094 0.930 . S
H3089 C3097 0.930 . S
H3090 C3098 0.930 . S
H3091 C3099 0.930 . S
H3092 C3102 0.930 . S
H3093 C3103 0.930 . S
C3094 H3088 0.930 . S
C3094 C3095 1.355 . S
C3094 C3096 1.415 . S
C3095 C3094 1.355 . S
C3095 C3097 1.419 . S
C3096 C3094 1.415 . S
C3096 C3101 1.425 . S
C3096 C3103 1.409 . S
C3097 H3089 0.930 . S
C3097 C3095 1.419 . S
C3097 C3098 1.362 . S
C3098 H3090 0.930 . S
C3098 C3097 1.362 . S
C3098 C3101 1.409 . S
C3099 H3091 0.930 . S
C3099 C3100 1.355 . S
C3099 C3101 1.415 . S
C3100 C3099 1.355 . S
C3100 C3102 1.419 . S
C3101 C3096 1.425 . S
C3101 C3098 1.409 . S
C3101 C3099 1.415 . S
C3102 H3092 0.930 . S
C3102 C3100 1.419 . S
C3102 C3103 1.362 . S
C3103 H3093 0.930 . S
C3103 C3096 1.409 . S
C3103 C3102 1.362 . S
H3104 C3110 0.930 . S
H3105 C3113 0.930 . S
H3106 C3114 0.930 . S
H3107 C3115 0.930 . S
H3108 C3118 0.930 . S
H3109 C3119 0.930 . S
C3110 H3104 0.930 . S
C3110 C3111 1.355 . S
C3110 C3112 1.415 . S
C3111 C3110 1.355 . S
C3111 C3113 1.419 . S
C3112 C3110 1.415 . S
C3112 C3117 1.425 . S
C3112 C3119 1.409 . S
C3113 H3105 0.930 . S
C3113 C3111 1.419 . S
C3113 C3114 1.362 . S
C3114 H3106 0.930 . S
C3114 C3113 1.362 . S
C3114 C3117 1.409 . S
C3115 H3107 0.930 . S
C3115 C3116 1.355 . S
C3115 C3117 1.415 . S
C3116 C3115 1.355 . S
C3116 C3118 1.419 . S
C3117 C3112 1.425 . S
C3117 C3114 1.409 . S
C3117 C3115 1.415 . S
C3118 H3108 0.930 . S
C3118 C3116 1.419 . S
C3118 C3119 1.362 . S
C3119 H3109 0.930 . S
C3119 C3112 1.409 . S
C3119 C3118 1.362 . S
H3120 C3126 0.930 . S
H3121 C3129 0.930 . S
H3122 C3130 0.930 . S
H3123 C3131 0.930 . S
H3124 C3134 0.930 . S
H3125 C3135 0.930 . S
C3126 H3120 0.930 . S
C3126 C3127 1.344 1_556 S
C3126 C3128 1.415 . S
C3127 C3126 1.344 1_554 S
C3127 C3129 1.405 1_554 S
C3128 C3126 1.415 . S
C3128 C3133 1.425 . S
C3128 C3135 1.409 . S
C3129 H3121 0.930 . S
C3129 C3127 1.405 1_556 S
C3129 C3130 1.362 . S
C3130 H3122 0.930 . S
C3130 C3129 1.362 . S
C3130 C3133 1.409 . S
C3131 H3123 0.930 . S
C3131 C3132 1.355 . S
C3131 C3133 1.415 . S
C3132 C3131 1.355 . S
C3132 C3134 1.419 . S
C3133 C3128 1.425 . S
C3133 C3130 1.409 . S
C3133 C3131 1.415 . S
C3134 H3124 0.930 . S
C3134 C3132 1.419 . S
C3134 C3135 1.362 . S
C3135 H3125 0.930 . S
C3135 C3128 1.409 . S
C3135 C3134 1.362 . S
H3136 C3142 0.930 . S
H3137 C3145 0.930 . S
H3138 C3146 0.930 . S
H3139 C3147 0.930 . S
H3140 C3150 0.930 . S
H3141 C3151 0.930 . S
C3142 H3136 0.930 . S
C3142 C3143 1.355 . S
C3142 C3144 1.415 . S
C3143 C3142 1.355 . S
C3143 C3145 1.419 . S
C3144 C3142 1.415 . S
C3144 C3149 1.425 . S
C3144 C3151 1.409 . S
C3145 H3137 0.930 . S
C3145 C3143 1.419 . S
C3145 C3146 1.362 . S
C3146 H3138 0.930 . S
C3146 C3145 1.362 . S
C3146 C3149 1.409 . S
C3147 H3139 0.930 . S
C3147 C3148 1.355 . S
C3147 C3149 1.415 . S
C3148 C3147 1.355 . S
C3148 C3150 1.419 . S
C3149 C3144 1.425 . S
C3149 C3146 1.409 . S
C3149 C3147 1.415 . S
C3150 H3140 0.930 . S
C3150 C3148 1.419 . S
C3150 C3151 1.362 . S
C3151 H3141 0.930 . S
C3151 C3144 1.409 . S
C3151 C3150 1.362 . S
H3152 C3158 0.930 . S
H3153 C3161 0.930 . S
H3154 C3162 0.930 . S
H3155 C3163 0.930 . S
H3156 C3166 0.930 . S
H3157 C3167 0.930 . S
C3158 H3152 0.930 . S
C3158 C3159 1.355 . S
C3158 C3160 1.415 . S
C3159 C3158 1.355 . S
C3159 C3161 1.419 . S
C3160 C3158 1.415 . S
C3160 C3165 1.425 . S
C3160 C3167 1.409 . S
C3161 H3153 0.930 . S
C3161 C3159 1.419 . S
C3161 C3162 1.362 . S
C3162 H3154 0.930 . S
C3162 C3161 1.362 . S
C3162 C3165 1.409 . S
C3163 H3155 0.930 . S
C3163 C3164 1.355 . S
C3163 C3165 1.415 . S
C3164 C3163 1.355 . S
C3164 C3166 1.419 . S
C3165 C3160 1.425 . S
C3165 C3162 1.409 . S
C3165 C3163 1.415 . S
C3166 H3156 0.930 . S
C3166 C3164 1.419 . S
C3166 C3167 1.362 . S
C3167 H3157 0.930 . S
C3167 C3160 1.409 . S
C3167 C3166 1.362 . S
H3168 C3174 0.930 . S
H3169 C3177 0.930 . S
H3170 C3178 0.930 . S
H3171 C3179 0.930 . S
H3172 C3182 0.930 . S
H3173 C3183 0.930 . S
C3174 H3168 0.930 . S
C3174 C3175 1.355 . S
C3174 C3176 1.415 . S
C3175 C3174 1.355 . S
C3175 C3177 1.419 . S
C3176 C3174 1.415 . S
C3176 C3181 1.425 . S
C3176 C3183 1.409 . S
C3177 H3169 0.930 . S
C3177 C3175 1.419 . S
C3177 C3178 1.362 . S
C3178 H3170 0.930 . S
C3178 C3177 1.362 . S
C3178 C3181 1.409 . S
C3179 H3171 0.930 . S
C3179 C3180 1.355 . S
C3179 C3181 1.415 . S
C3180 C3179 1.355 . S
C3180 C3182 1.419 . S
C3181 C3176 1.425 . S
C3181 C3178 1.409 . S
C3181 C3179 1.415 . S
C3182 H3172 0.930 . S
C3182 C3180 1.419 . S
C3182 C3183 1.362 . S
C3183 H3173 0.930 . S
C3183 C3176 1.409 . S
C3183 C3182 1.362 . S
H3184 C3190 0.930 . S
H3185 C3193 0.930 . S
H3186 C3194 0.930 . S
H3187 C3195 0.930 . S
H3188 C3198 0.930 . S
H3189 C3199 0.930 . S
C3190 H3184 0.930 . S
C3190 C3191 1.355 . S
C3190 C3192 1.415 . S
C3191 C3190 1.355 . S
C3191 C3193 1.419 . S
C3192 C3190 1.415 . S
C3192 C3197 1.425 . S
C3192 C3199 1.409 . S
C3193 H3185 0.930 . S
C3193 C3191 1.419 . S
C3193 C3194 1.362 . S
C3194 H3186 0.930 . S
C3194 C3193 1.362 . S
C3194 C3197 1.409 . S
C3195 H3187 0.930 . S
C3195 C3196 1.355 . S
C3195 C3197 1.415 . S
C3196 C3195 1.355 . S
C3196 C3198 1.419 . S
C3197 C3192 1.425 . S
C3197 C3194 1.409 . S
C3197 C3195 1.415 . S
C3198 H3188 0.930 . S
C3198 C3196 1.419 . S
C3198 C3199 1.362 . S
C3199 H3189 0.930 . S
C3199 C3192 1.409 . S
C3199 C3198 1.362 . S
H3200 C3206 0.930 . S
H3201 C3209 0.930 . S
H3202 C3210 0.930 . S
H3203 C3211 0.930 . S
H3204 C3214 0.930 . S
H3205 C3215 0.930 . S
C3206 H3200 0.930 . S
C3206 C3207 1.355 . S
C3206 C3208 1.415 . S
C3207 C3206 1.355 . S
C3207 C3209 1.419 . S
C3208 C3206 1.415 . S
C3208 C3213 1.425 . S
C3208 C3215 1.409 . S
C3209 H3201 0.930 . S
C3209 C3207 1.419 . S
C3209 C3210 1.362 . S
C3210 H3202 0.930 . S
C3210 C3209 1.362 . S
C3210 C3213 1.409 . S
C3211 H3203 0.930 . S
C3211 C3212 1.355 . S
C3211 C3213 1.415 . S
C3212 C3211 1.355 . S
C3212 C3214 1.419 . S
C3213 C3208 1.425 . S
C3213 C3210 1.409 . S
C3213 C3211 1.415 . S
C3214 H3204 0.930 . S
C3214 C3212 1.419 . S
C3214 C3215 1.362 . S
C3215 H3205 0.930 . S
C3215 C3208 1.409 . S
C3215 C3214 1.362 . S
H3216 C3222 0.930 . S
H3217 C3225 0.930 . S
H3218 C3226 0.930 . S
H3219 C3227 0.930 . S
H3220 C3230 0.930 . S
H3221 C3231 0.930 . S
C3222 H3216 0.930 . S
C3222 C3223 1.355 . S
C3222 C3224 1.415 . S
C3223 C3222 1.355 . S
C3223 C3225 1.419 . S
C3224 C3222 1.415 . S
C3224 C3229 1.425 . S
C3224 C3231 1.409 . S
C3225 H3217 0.930 . S
C3225 C3223 1.419 . S
C3225 C3226 1.362 . S
C3226 H3218 0.930 . S
C3226 C3225 1.362 . S
C3226 C3229 1.409 . S
C3227 H3219 0.930 . S
C3227 C3228 1.355 . S
C3227 C3229 1.415 . S
C3228 C3227 1.355 . S
C3228 C3230 1.419 . S
C3229 C3224 1.425 . S
C3229 C3226 1.409 . S
C3229 C3227 1.415 . S
C3230 H3220 0.930 . S
C3230 C3228 1.419 . S
C3230 C3231 1.362 . S
C3231 H3221 0.930 . S
C3231 C3224 1.409 . S
C3231 C3230 1.362 . S
H3232 C3238 0.930 . S
H3233 C3241 0.930 . S
H3234 C3242 0.930 . S
H3235 C3243 0.930 . S
H3236 C3246 0.930 . S
H3237 C3247 0.930 . S
C3238 H3232 0.930 . S
C3238 C3239 1.355 . S
C3238 C3240 1.415 . S
C3239 C3238 1.355 . S
C3239 C3241 1.419 . S
C3240 C3238 1.415 . S
C3240 C3245 1.425 . S
C3240 C3247 1.409 . S
C3241 H3233 0.930 . S
C3241 C3239 1.419 . S
C3241 C3242 1.362 . S
C3242 H3234 0.930 . S
C3242 C3241 1.362 . S
C3242 C3245 1.409 . S
C3243 H3235 0.930 . S
C3243 C3244 1.355 . S
C3243 C3245 1.415 . S
C3244 C3243 1.355 . S
C3244 C3246 1.419 . S
C3245 C3240 1.425 . S
C3245 C3242 1.409 . S
C3245 C3243 1.415 . S
C3246 H3236 0.930 . S
C3246 C3244 1.419 . S
C3246 C3247 1.362 . S
C3247 H3237 0.930 . S
C3247 C3240 1.409 . S
C3247 C3246 1.362 . S
H3248 C3254 0.930 . S
H3249 C3257 0.930 . S
H3250 C3258 0.930 . S
H3251 C3259 0.930 . S
H3252 C3262 0.930 . S
H3253 C3263 0.930 . S
C3254 H3248 0.930 . S
C3254 C3255 1.355 . S
C3254 C3256 1.415 . S
C3255 C3254 1.355 . S
C3255 C3257 1.419 . S
C3256 C3254 1.415 . S
C3256 C3261 1.425 . S
C3256 C3263 1.409 . S
C3257 H3249 0.930 . S
C3257 C3255 1.419 . S
C3257 C3258 1.362 . S
C3258 H3250 0.930 . S
C3258 C3257 1.362 . S
C3258 C3261 1.409 . S
C3259 H3251 0.930 . S
C3259 C3260 1.355 . S
C3259 C3261 1.415 . S
C3260 C3259 1.355 . S
C3260 C3262 1.419 . S
C3261 C3256 1.425 . S
C3261 C3258 1.409 . S
C3261 C3259 1.415 . S
C3262 H3252 0.930 . S
C3262 C3260 1.419 . S
C3262 C3263 1.362 . S
C3263 H3253 0.930 . S
C3263 C3256 1.409 . S
C3263 C3262 1.362 . S
H3264 C3270 0.930 1_545 S
H3265 C3273 0.930 . S
H3266 C3274 0.930 . S
H3267 C3275 0.930 . S
H3268 C3278 0.930 . S
H3269 C3279 0.930 . S
C3270 H3264 0.930 1_565 S
C3270 C3271 1.355 . S
C3270 C3272 1.415 . S
C3271 C3270 1.355 . S
C3271 C3273 1.419 . S
C3272 C3270 1.415 . S
C3272 C3277 1.425 . S
C3272 C3279 1.409 . S
C3273 H3265 0.930 . S
C3273 C3271 1.419 . S
C3273 C3274 1.362 . S
C3274 H3266 0.930 . S
C3274 C3273 1.362 . S
C3274 C3277 1.409 . S
C3275 H3267 0.930 . S
C3275 C3276 1.355 . S
C3275 C3277 1.415 . S
C3276 C3275 1.355 . S
C3276 C3278 1.419 . S
C3277 C3272 1.425 . S
C3277 C3274 1.409 . S
C3277 C3275 1.415 . S
C3278 H3268 0.930 . S
C3278 C3276 1.419 . S
C3278 C3279 1.362 . S
C3279 H3269 0.930 . S
C3279 C3272 1.409 . S
C3279 C3278 1.362 . S
H3280 C3286 0.930 . S
H3281 C3289 0.944 . S
H3282 C3290 0.930 . S
H3283 C3291 0.930 . S
H3284 C3294 0.930 . S
H3285 C3295 0.930 . S
C3286 H3280 0.930 . S
C3286 C3287 1.355 . S
C3286 C3288 1.415 . S
C3287 C3286 1.355 . S
C3287 C3289 1.419 1_554 S
C3288 C3286 1.415 . S
C3288 C3293 1.425 1_565 S
C3288 C3295 1.409 . S
C3289 H3281 0.944 . S
C3289 C3287 1.419 1_556 S
C3289 C3290 1.362 1_565 S
C3290 H3282 0.930 . S
C3290 C3289 1.362 1_545 S
C3290 C3293 1.409 1_556 S
C3291 H3283 0.930 . S
C3291 C3292 1.355 . S
C3291 C3293 1.415 . S
C3292 C3291 1.355 . S
C3292 C3294 1.419 1_545 S
C3293 C3288 1.425 1_545 S
C3293 C3290 1.409 1_554 S
C3293 C3291 1.415 . S
C3294 H3284 0.930 . S
C3294 C3292 1.419 1_565 S
C3294 C3295 1.362 . S
C3295 H3285 0.930 . S
C3295 C3288 1.409 . S
C3295 C3294 1.362 . S
H3296 C3302 0.930 . S
H3297 C3305 0.930 . S
H3298 C3306 0.930 . S
H3299 C3307 0.930 . S
H3300 C3310 0.930 . S
H3301 C3311 0.930 . S
C3302 H3296 0.930 . S
C3302 C3303 1.355 . S
C3302 C3304 1.415 . S
C3303 C3302 1.355 . S
C3303 C3305 1.419 . S
C3304 C3302 1.415 . S
C3304 C3309 1.425 . S
C3304 C3311 1.409 . S
C3305 H3297 0.930 . S
C3305 C3303 1.419 . S
C3305 C3306 1.362 . S
C3306 H3298 0.930 . S
C3306 C3305 1.362 . S
C3306 C3309 1.409 . S
C3307 H3299 0.930 . S
C3307 C3308 1.355 . S
C3307 C3309 1.415 . S
C3308 C3307 1.355 . S
C3308 C3310 1.419 . S
C3309 C3304 1.425 . S
C3309 C3306 1.409 . S
C3309 C3307 1.415 . S
C3310 H3300 0.930 . S
C3310 C3308 1.419 . S
C3310 C3311 1.362 . S
C3311 H3301 0.930 . S
C3311 C3304 1.409 . S
C3311 C3310 1.362 . S
H3312 C3318 0.930 . S
H3313 C3321 0.917 1_556 S
H3314 C3322 0.930 . S
H3315 C3323 0.930 . S
H3316 C3326 0.930 . S
H3317 C3327 0.930 . S
C3318 H3312 0.930 . S
C3318 C3319 1.355 . S
C3318 C3320 1.415 . S
C3319 C3318 1.355 . S
C3319 C3321 1.419 . S
C3320 C3318 1.415 . S
C3320 C3325 1.425 . S
C3320 C3327 1.409 . S
C3321 H3313 0.917 1_554 S
C3321 C3319 1.419 . S
C3321 C3322 1.362 . S
C3322 H3314 0.930 . S
C3322 C3321 1.362 . S
C3322 C3325 1.409 . S
C3323 H3315 0.930 . S
C3323 C3324 1.355 . S
C3323 C3325 1.415 . S
C3324 C3323 1.355 . S
C3324 C3326 1.419 . S
C3325 C3320 1.425 . S
C3325 C3322 1.409 . S
C3325 C3323 1.415 . S
C3326 H3316 0.930 . S
C3326 C3324 1.419 . S
C3326 C3327 1.362 . S
C3327 H3317 0.930 . S
C3327 C3320 1.409 . S
C3327 C3326 1.362 . S
H3328 C3334 0.930 . S
H3329 C3337 0.930 . S
H3330 C3338 0.930 . S
H3331 C3339 0.930 . S
H3332 C3342 0.930 . S
H3333 C3343 0.930 . S
C3334 H3328 0.930 . S
C3334 C3335 1.355 . S
C3334 C3336 1.415 . S
C3335 C3334 1.355 . S
C3335 C3337 1.419 . S
C3336 C3334 1.415 . S
C3336 C3341 1.425 . S
C3336 C3343 1.409 . S
C3337 H3329 0.930 . S
C3337 C3335 1.419 . S
C3337 C3338 1.362 . S
C3338 H3330 0.930 . S
C3338 C3337 1.362 . S
C3338 C3341 1.409 . S
C3339 H3331 0.930 . S
C3339 C3340 1.355 . S
C3339 C3341 1.415 . S
C3340 C3339 1.355 . S
C3340 C3342 1.419 . S
C3341 C3336 1.425 . S
C3341 C3338 1.409 . S
C3341 C3339 1.415 . S
C3342 H3332 0.930 . S
C3342 C3340 1.419 . S
C3342 C3343 1.362 . S
C3343 H3333 0.930 . S
C3343 C3336 1.409 . S
C3343 C3342 1.362 . S
H3344 C3350 0.930 . S
H3345 C3353 0.930 . S
H3346 C3354 0.930 . S
H3347 C3355 0.930 . S
H3348 C3358 0.930 . S
H3349 C3359 0.930 . S
C3350 H3344 0.930 . S
C3350 C3351 1.355 . S
C3350 C3352 1.415 . S
C3351 C3350 1.355 . S
C3351 C3353 1.419 . S
C3352 C3350 1.415 . S
C3352 C3357 1.425 . S
C3352 C3359 1.409 . S
C3353 H3345 0.930 . S
C3353 C3351 1.419 . S
C3353 C3354 1.362 . S
C3354 H3346 0.930 . S
C3354 C3353 1.362 . S
C3354 C3357 1.409 . S
C3355 H3347 0.930 . S
C3355 C3356 1.355 . S
C3355 C3357 1.415 . S
C3356 C3355 1.355 . S
C3356 C3358 1.419 . S
C3357 C3352 1.425 . S
C3357 C3354 1.409 . S
C3357 C3355 1.415 . S
C3358 H3348 0.930 . S
C3358 C3356 1.419 . S
C3358 C3359 1.362 . S
C3359 H3349 0.930 . S
C3359 C3352 1.409 . S
C3359 C3358 1.362 . S
H3360 C3366 0.930 . S
H3361 C3369 0.930 . S
H3362 C3370 0.930 . S
H3363 C3371 0.930 . S
H3364 C3374 0.930 . S
H3365 C3375 0.930 . S
C3366 H3360 0.930 . S
C3366 C3367 1.355 . S
C3366 C3368 1.415 . S
C3367 C3366 1.355 . S
C3367 C3369 1.419 . S
C3368 C3366 1.415 . S
C3368 C3373 1.425 . S
C3368 C3375 1.409 . S
C3369 H3361 0.930 . S
C3369 C3367 1.419 . S
C3369 C3370 1.362 . S
C3370 H3362 0.930 . S
C3370 C3369 1.362 . S
C3370 C3373 1.409 . S
C3371 H3363 0.930 . S
C3371 C3372 1.355 . S
C3371 C3373 1.415 . S
C3372 C3371 1.355 . S
C3372 C3374 1.419 . S
C3373 C3368 1.425 . S
C3373 C3370 1.409 . S
C3373 C3371 1.415 . S
C3374 H3364 0.930 . S
C3374 C3372 1.419 . S
C3374 C3375 1.362 . S
C3375 H3365 0.930 . S
C3375 C3368 1.409 . S
C3375 C3374 1.362 . S
H3376 C3382 0.930 . S
H3377 C3385 0.930 . S
H3378 C3386 0.930 . S
H3379 C3387 0.930 . S
H3380 C3390 0.930 . S
H3381 C3391 0.930 . S
C3382 H3376 0.930 . S
C3382 C3383 1.355 . S
C3382 C3384 1.415 . S
C3383 C3382 1.355 . S
C3383 C3385 1.419 . S
C3384 C3382 1.415 . S
C3384 C3389 1.425 . S
C3384 C3391 1.409 . S
C3385 H3377 0.930 . S
C3385 C3383 1.419 . S
C3385 C3386 1.362 . S
C3386 H3378 0.930 . S
C3386 C3385 1.362 . S
C3386 C3389 1.409 . S
C3387 H3379 0.930 . S
C3387 C3388 1.355 . S
C3387 C3389 1.415 . S
C3388 C3387 1.355 . S
C3388 C3390 1.419 . S
C3389 C3384 1.425 . S
C3389 C3386 1.409 . S
C3389 C3387 1.415 . S
C3390 H3380 0.930 . S
C3390 C3388 1.419 . S
C3390 C3391 1.362 . S
C3391 H3381 0.930 . S
C3391 C3384 1.409 . S
C3391 C3390 1.362 . S
H3392 C3398 0.930 . S
H3393 C3401 0.930 . S
H3394 C3402 0.930 . S
H3395 C3403 0.930 . S
H3396 C3406 0.930 . S
H3397 C3407 0.930 . S
C3398 H3392 0.930 . S
C3398 C3399 1.355 . S
C3398 C3400 1.415 . S
C3399 C3398 1.355 . S
C3399 C3401 1.419 . S
C3400 C3398 1.415 . S
C3400 C3405 1.425 . S
C3400 C3407 1.409 . S
C3401 H3393 0.930 . S
C3401 C3399 1.419 . S
C3401 C3402 1.362 . S
C3402 H3394 0.930 . S
C3402 C3401 1.362 . S
C3402 C3405 1.409 . S
C3403 H3395 0.930 . S
C3403 C3404 1.355 . S
C3403 C3405 1.415 . S
C3404 C3403 1.355 . S
C3404 C3406 1.419 . S
C3405 C3400 1.425 . S
C3405 C3402 1.409 . S
C3405 C3403 1.415 . S
C3406 H3396 0.930 . S
C3406 C3404 1.419 . S
C3406 C3407 1.362 . S
C3407 H3397 0.930 . S
C3407 C3400 1.409 . S
C3407 C3406 1.362 . S
H3408 C3414 0.930 . S
H3409 C3417 0.930 . S
H3410 C3418 0.930 . S
H3411 C3419 0.930 . S
H3412 C3422 0.930 . S
H3413 C3423 0.930 . S
C3414 H3408 0.930 . S
C3414 C3415 1.355 . S
C3414 C3416 1.415 . S
C3415 C3414 1.355 . S
C3415 C3417 1.419 . S
C3416 C3414 1.415 . S
C3416 C3421 1.425 . S
C3416 C3423 1.409 . S
C3417 H3409 0.930 . S
C3417 C3415 1.419 . S
C3417 C3418 1.362 . S
C3418 H3410 0.930 . S
C3418 C3417 1.362 . S
C3418 C3421 1.409 . S
C3419 H3411 0.930 . S
C3419 C3420 1.355 . S
C3419 C3421 1.415 . S
C3420 C3419 1.355 . S
C3420 C3422 1.419 . S
C3421 C3416 1.425 . S
C3421 C3418 1.409 . S
C3421 C3419 1.415 . S
C3422 H3412 0.930 . S
C3422 C3420 1.419 . S
C3422 C3423 1.362 . S
C3423 H3413 0.930 . S
C3423 C3416 1.409 . S
C3423 C3422 1.362 . S
H3424 C3430 0.930 . S
H3425 C3433 0.930 . S
H3426 C3434 0.930 . S
H3427 C3435 0.930 . S
H3428 C3438 0.930 . S
H3429 C3439 0.930 . S
C3430 H3424 0.930 . S
C3430 C3431 1.355 . S
C3430 C3432 1.415 . S
C3431 C3430 1.355 . S
C3431 C3433 1.419 . S
C3432 C3430 1.415 . S
C3432 C3437 1.425 . S
C3432 C3439 1.409 . S
C3433 H3425 0.930 . S
C3433 C3431 1.419 . S
C3433 C3434 1.362 . S
C3434 H3426 0.930 . S
C3434 C3433 1.362 . S
C3434 C3437 1.409 . S
C3435 H3427 0.930 . S
C3435 C3436 1.355 . S
C3435 C3437 1.415 . S
C3436 C3435 1.355 . S
C3436 C3438 1.419 . S
C3437 C3432 1.425 . S
C3437 C3434 1.409 . S
C3437 C3435 1.415 . S
C3438 H3428 0.930 . S
C3438 C3436 1.419 . S
C3438 C3439 1.362 . S
C3439 H3429 0.930 . S
C3439 C3432 1.409 . S
C3439 C3438 1.362 . S
H3440 C3446 0.930 . S
H3441 C3449 0.930 . S
H3442 C3450 0.930 . S
H3443 C3451 0.930 . S
H3444 C3454 0.930 . S
H3445 C3455 0.930 . S
C3446 H3440 0.930 . S
C3446 C3447 1.355 . S
C3446 C3448 1.415 . S
C3447 C3446 1.355 . S
C3447 C3449 1.419 . S
C3448 C3446 1.415 . S
C3448 C3453 1.425 . S
C3448 C3455 1.409 . S
C3449 H3441 0.930 . S
C3449 C3447 1.419 . S
C3449 C3450 1.362 . S
C3450 H3442 0.930 . S
C3450 C3449 1.362 . S
C3450 C3453 1.409 . S
C3451 H3443 0.930 . S
C3451 C3452 1.355 . S
C3451 C3453 1.415 . S
C3452 C3451 1.355 . S
C3452 C3454 1.419 . S
C3453 C3448 1.425 . S
C3453 C3450 1.409 . S
C3453 C3451 1.415 . S
C3454 H3444 0.930 . S
C3454 C3452 1.419 . S
C3454 C3455 1.362 . S
C3455 H3445 0.930 . S
C3455 C3448 1.409 . S
C3455 C3454 1.362 . S
H3456 C3462 0.930 . S
H3457 C3465 0.930 . S
H3458 C3466 0.930 . S
H3459 C3467 0.930 . S
H3460 C3470 0.930 . S
H3461 C3471 0.930 . S
C3462 H3456 0.930 . S
C3462 C3463 1.355 . S
C3462 C3464 1.415 . S
C3463 C3462 1.355 . S
C3463 C3465 1.419 . S
C3464 C3462 1.415 . S
C3464 C3469 1.425 . S
C3464 C3471 1.409 . S
C3465 H3457 0.930 . S
C3465 C3463 1.419 . S
C3465 C3466 1.362 . S
C3466 H3458 0.930 . S
C3466 C3465 1.362 . S
C3466 C3469 1.409 . S
C3467 H3459 0.930 . S
C3467 C3468 1.355 . S
C3467 C3469 1.415 . S
C3468 C3467 1.355 . S
C3468 C3470 1.419 . S
C3469 C3464 1.425 . S
C3469 C3466 1.409 . S
C3469 C3467 1.415 . S
C3470 H3460 0.930 . S
C3470 C3468 1.419 . S
C3470 C3471 1.362 . S
C3471 H3461 0.930 . S
C3471 C3464 1.409 . S
C3471 C3470 1.362 . S
H3472 C3478 0.930 . S
H3473 C3481 0.930 . S
H3474 C3482 0.930 . S
H3475 C3483 0.930 . S
H3476 C3486 0.930 . S
H3477 C3487 0.930 . S
C3478 H3472 0.930 . S
C3478 C3479 1.355 . S
C3478 C3480 1.415 . S
C3479 C3478 1.355 . S
C3479 C3481 1.419 . S
C3480 C3478 1.415 . S
C3480 C3485 1.425 . S
C3480 C3487 1.409 . S
C3481 H3473 0.930 . S
C3481 C3479 1.419 . S
C3481 C3482 1.362 . S
C3482 H3474 0.930 . S
C3482 C3481 1.362 . S
C3482 C3485 1.409 . S
C3483 H3475 0.930 . S
C3483 C3484 1.355 . S
C3483 C3485 1.415 . S
C3484 C3483 1.355 . S
C3484 C3486 1.419 . S
C3485 C3480 1.425 . S
C3485 C3482 1.409 . S
C3485 C3483 1.415 . S
C3486 H3476 0.930 . S
C3486 C3484 1.419 . S
C3486 C3487 1.362 . S
C3487 H3477 0.930 . S
C3487 C3480 1.409 . S
C3487 C3486 1.362 . S
H3488 C3494 0.930 . S
H3489 C3497 0.930 . S
H3490 C3498 0.930 . S
H3491 C3499 0.930 . S
H3492 C3502 0.930 . S
H3493 C3503 0.930 . S
C3494 H3488 0.930 . S
C3494 C3495 1.355 . S
C3494 C3496 1.415 . S
C3495 C3494 1.355 . S
C3495 C3497 1.419 . S
C3496 C3494 1.415 . S
C3496 C3501 1.425 . S
C3496 C3503 1.409 . S
C3497 H3489 0.930 . S
C3497 C3495 1.419 . S
C3497 C3498 1.362 . S
C3498 H3490 0.930 . S
C3498 C3497 1.362 . S
C3498 C3501 1.409 . S
C3499 H3491 0.930 . S
C3499 C3500 1.355 . S
C3499 C3501 1.415 . S
C3500 C3499 1.355 . S
C3500 C3502 1.419 . S
C3501 C3496 1.425 . S
C3501 C3498 1.409 . S
C3501 C3499 1.415 . S
C3502 H3492 0.930 . S
C3502 C3500 1.419 . S
C3502 C3503 1.362 . S
C3503 H3493 0.930 . S
C3503 C3496 1.409 . S
C3503 C3502 1.362 . S
H3504 C3510 0.930 . S
H3505 C3513 0.930 . S
H3506 C3514 0.930 . S
H3507 C3515 0.930 . S
H3508 C3518 0.930 . S
H3509 C3519 0.930 . S
C3510 H3504 0.930 . S
C3510 C3511 1.355 . S
C3510 C3512 1.415 . S
C3511 C3510 1.355 . S
C3511 C3513 1.419 . S
C3512 C3510 1.415 . S
C3512 C3517 1.425 . S
C3512 C3519 1.409 . S
C3513 H3505 0.930 . S
C3513 C3511 1.419 . S
C3513 C3514 1.362 . S
C3514 H3506 0.930 . S
C3514 C3513 1.362 . S
C3514 C3517 1.409 . S
C3515 H3507 0.930 . S
C3515 C3516 1.355 . S
C3515 C3517 1.415 . S
C3516 C3515 1.355 . S
C3516 C3518 1.419 . S
C3517 C3512 1.425 . S
C3517 C3514 1.409 . S
C3517 C3515 1.415 . S
C3518 H3508 0.930 . S
C3518 C3516 1.419 . S
C3518 C3519 1.362 . S
C3519 H3509 0.930 . S
C3519 C3512 1.409 . S
C3519 C3518 1.362 . S
H3520 C3526 0.930 . S
H3521 C3529 0.930 . S
H3522 C3530 0.930 . S
H3523 C3531 0.930 . S
H3524 C3534 0.930 . S
H3525 C3535 0.930 . S
C3526 H3520 0.930 . S
C3526 C3527 1.355 . S
C3526 C3528 1.415 . S
C3527 C3526 1.355 . S
C3527 C3529 1.419 . S
C3528 C3526 1.415 . S
C3528 C3533 1.425 . S
C3528 C3535 1.409 . S
C3529 H3521 0.930 . S
C3529 C3527 1.419 . S
C3529 C3530 1.362 . S
C3530 H3522 0.930 . S
C3530 C3529 1.362 . S
C3530 C3533 1.409 . S
C3531 H3523 0.930 . S
C3531 C3532 1.355 . S
C3531 C3533 1.415 . S
C3532 C3531 1.355 . S
C3532 C3534 1.419 1_655 S
C3533 C3528 1.425 . S
C3533 C3530 1.409 . S
C3533 C3531 1.415 . S
C3534 H3524 0.930 . S
C3534 C3532 1.419 1_455 S
C3534 C3535 1.362 1_455 S
C3535 H3525 0.930 . S
C3535 C3528 1.409 . S
C3535 C3534 1.362 1_655 S
H3536 C3542 0.930 . S
H3537 C3545 0.930 . S
H3538 C3546 0.930 . S
H3539 C3547 0.930 . S
H3540 C3550 0.930 . S
H3541 C3551 0.930 . S
C3542 H3536 0.930 . S
C3542 C3543 1.355 . S
C3542 C3544 1.415 . S
C3543 C3542 1.355 . S
C3543 C3545 1.419 . S
C3544 C3542 1.415 . S
C3544 C3549 1.425 . S
C3544 C3551 1.409 . S
C3545 H3537 0.930 . S
C3545 C3543 1.419 . S
C3545 C3546 1.362 . S
C3546 H3538 0.930 . S
C3546 C3545 1.362 . S
C3546 C3549 1.409 . S
C3547 H3539 0.930 . S
C3547 C3548 1.355 . S
C3547 C3549 1.415 . S
C3548 C3547 1.355 . S
C3548 C3550 1.419 . S
C3549 C3544 1.425 . S
C3549 C3546 1.409 . S
C3549 C3547 1.415 . S
C3550 H3540 0.930 . S
C3550 C3548 1.419 . S
C3550 C3551 1.362 . S
C3551 H3541 0.930 . S
C3551 C3544 1.409 . S
C3551 C3550 1.362 . S
H3552 C3558 0.930 . S
H3553 C3561 0.930 . S
H3554 C3562 0.930 . S
H3555 C3563 0.930 . S
H3556 C3566 0.930 . S
H3557 C3567 0.930 . S
C3558 H3552 0.930 . S
C3558 C3559 1.355 . S
C3558 C3560 1.415 . S
C3559 C3558 1.355 . S
C3559 C3561 1.419 . S
C3560 C3558 1.415 . S
C3560 C3565 1.425 . S
C3560 C3567 1.409 . S
C3561 H3553 0.930 . S
C3561 C3559 1.419 . S
C3561 C3562 1.362 . S
C3562 H3554 0.930 . S
C3562 C3561 1.362 . S
C3562 C3565 1.409 . S
C3563 H3555 0.930 . S
C3563 C3564 1.355 . S
C3563 C3565 1.415 . S
C3564 C3563 1.355 . S
C3564 C3566 1.419 . S
C3565 C3560 1.425 . S
C3565 C3562 1.409 . S
C3565 C3563 1.415 . S
C3566 H3556 0.930 . S
C3566 C3564 1.419 . S
C3566 C3567 1.362 . S
C3567 H3557 0.930 . S
C3567 C3560 1.409 . S
C3567 C3566 1.362 . S
H3568 C3574 0.930 . S
H3569 C3577 0.930 . S
H3570 C3578 0.930 . S
H3571 C3579 0.930 . S
H3572 C3582 0.930 . S
H3573 C3583 0.930 . S
C3574 H3568 0.930 . S
C3574 C3575 1.355 . S
C3574 C3576 1.415 . S
C3575 C3574 1.355 . S
C3575 C3577 1.419 . S
C3576 C3574 1.415 . S
C3576 C3581 1.425 . S
C3576 C3583 1.409 . S
C3577 H3569 0.930 . S
C3577 C3575 1.419 . S
C3577 C3578 1.362 . S
C3578 H3570 0.930 . S
C3578 C3577 1.362 . S
C3578 C3581 1.409 . S
C3579 H3571 0.930 . S
C3579 C3580 1.355 . S
C3579 C3581 1.415 . S
C3580 C3579 1.355 . S
C3580 C3582 1.419 . S
C3581 C3576 1.425 . S
C3581 C3578 1.409 . S
C3581 C3579 1.415 . S
C3582 H3572 0.930 . S
C3582 C3580 1.419 . S
C3582 C3583 1.362 . S
C3583 H3573 0.930 . S
C3583 C3576 1.409 . S
C3583 C3582 1.362 . S
H3584 C3590 0.930 . S
H3585 C3593 0.930 . S
H3586 C3594 0.930 . S
H3587 C3595 0.930 . S
H3588 C3598 0.930 . S
H3589 C3599 0.930 . S
C3590 H3584 0.930 . S
C3590 C3591 1.355 . S
C3590 C3592 1.415 . S
C3591 C3590 1.355 . S
C3591 C3593 1.419 . S
C3592 C3590 1.415 . S
C3592 C3597 1.425 . S
C3592 C3599 1.409 . S
C3593 H3585 0.930 . S
C3593 C3591 1.419 . S
C3593 C3594 1.362 . S
C3594 H3586 0.930 . S
C3594 C3593 1.362 . S
C3594 C3597 1.409 . S
C3595 H3587 0.930 . S
C3595 C3596 1.355 . S
C3595 C3597 1.415 . S
C3596 C3595 1.355 . S
C3596 C3598 1.419 . S
C3597 C3592 1.425 . S
C3597 C3594 1.409 . S
C3597 C3595 1.415 . S
C3598 H3588 0.930 . S
C3598 C3596 1.419 . S
C3598 C3599 1.362 . S
C3599 H3589 0.930 . S
C3599 C3592 1.409 . S
C3599 C3598 1.362 . S
H3600 C3606 0.930 . S
H3601 C3609 0.930 . S
H3602 C3610 0.930 . S
H3603 C3611 0.930 . S
H3604 C3614 0.930 . S
H3605 C3615 0.930 . S
C3606 H3600 0.930 . S
C3606 C3607 1.355 . S
C3606 C3608 1.415 . S
C3607 C3606 1.355 . S
C3607 C3609 1.419 . S
C3608 C3606 1.415 . S
C3608 C3613 1.425 . S
C3608 C3615 1.409 . S
C3609 H3601 0.930 . S
C3609 C3607 1.419 . S
C3609 C3610 1.362 . S
C3610 H3602 0.930 . S
C3610 C3609 1.362 . S
C3610 C3613 1.409 . S
C3611 H3603 0.930 . S
C3611 C3612 1.355 . S
C3611 C3613 1.415 . S
C3612 C3611 1.355 . S
C3612 C3614 1.419 . S
C3613 C3608 1.425 . S
C3613 C3610 1.409 . S
C3613 C3611 1.415 . S
C3614 H3604 0.930 . S
C3614 C3612 1.419 . S
C3614 C3615 1.362 . S
C3615 H3605 0.930 . S
C3615 C3608 1.409 . S
C3615 C3614 1.362 . S
H3616 C3622 0.930 . S
H3617 C3625 0.930 . S
H3618 C3626 0.930 . S
H3619 C3627 0.930 . S
H3620 C3630 0.930 . S
H3621 C3631 0.930 . S
C3622 H3616 0.930 . S
C3622 C3623 1.355 . S
C3622 C3624 1.415 . S
C3623 C3622 1.355 . S
C3623 C3625 1.419 . S
C3624 C3622 1.415 . S
C3624 C3629 1.425 . S
C3624 C3631 1.409 . S
C3625 H3617 0.930 . S
C3625 C3623 1.419 . S
C3625 C3626 1.362 . S
C3626 H3618 0.930 . S
C3626 C3625 1.362 . S
C3626 C3629 1.409 . S
C3627 H3619 0.930 . S
C3627 C3628 1.355 . S
C3627 C3629 1.415 . S
C3628 C3627 1.355 . S
C3628 C3630 1.419 . S
C3629 C3624 1.425 . S
C3629 C3626 1.409 . S
C3629 C3627 1.415 . S
C3630 H3620 0.930 . S
C3630 C3628 1.419 . S
C3630 C3631 1.362 . S
C3631 H3621 0.930 . S
C3631 C3624 1.409 . S
C3631 C3630 1.362 . S
H3632 C3638 0.930 . S
H3633 C3641 0.930 . S
H3634 C3642 0.930 . S
H3635 C3643 0.930 . S
H3636 C3646 0.930 1_545 S
H3637 C3647 0.930 . S
C3638 H3632 0.930 . S
C3638 C3639 1.355 . S
C3638 C3640 1.415 . S
C3639 C3638 1.355 . S
C3639 C3641 1.419 . S
C3640 C3638 1.415 . S
C3640 C3645 1.425 . S
C3640 C3647 1.409 . S
C3641 H3633 0.930 . S
C3641 C3639 1.419 . S
C3641 C3642 1.362 . S
C3642 H3634 0.930 . S
C3642 C3641 1.362 . S
C3642 C3645 1.409 . S
C3643 H3635 0.930 . S
C3643 C3644 1.355 . S
C3643 C3645 1.415 . S
C3644 C3643 1.355 . S
C3644 C3646 1.419 . S
C3645 C3640 1.425 . S
C3645 C3642 1.409 . S
C3645 C3643 1.415 . S
C3646 H3636 0.930 1_565 S
C3646 C3644 1.419 . S
C3646 C3647 1.362 . S
C3647 H3637 0.930 . S
C3647 C3640 1.409 . S
C3647 C3646 1.362 . S
H3648 C3654 0.930 . S
H3649 C3657 0.930 . S
H3650 C3658 0.930 . S
H3651 C3659 0.930 . S
H3652 C3662 0.930 . S
H3653 C3663 0.930 . S
C3654 H3648 0.930 . S
C3654 C3655 1.355 . S
C3654 C3656 1.415 . S
C3655 C3654 1.355 . S
C3655 C3657 1.419 . S
C3656 C3654 1.415 . S
C3656 C3661 1.425 . S
C3656 C3663 1.409 . S
C3657 H3649 0.930 . S
C3657 C3655 1.419 . S
C3657 C3658 1.362 . S
C3658 H3650 0.930 . S
C3658 C3657 1.362 . S
C3658 C3661 1.409 . S
C3659 H3651 0.930 . S
C3659 C3660 1.355 . S
C3659 C3661 1.415 . S
C3660 C3659 1.355 . S
C3660 C3662 1.419 . S
C3661 C3656 1.425 . S
C3661 C3658 1.409 . S
C3661 C3659 1.415 . S
C3662 H3652 0.930 . S
C3662 C3660 1.419 . S
C3662 C3663 1.362 . S
C3663 H3653 0.930 . S
C3663 C3656 1.409 . S
C3663 C3662 1.362 . S
H3664 C3670 0.930 . S
H3665 C3673 0.930 . S
H3666 C3674 0.930 . S
H3667 C3675 0.930 . S
H3668 C3678 0.930 . S
H3669 C3679 0.930 . S
C3670 H3664 0.930 . S
C3670 C3671 1.355 . S
C3670 C3672 1.415 . S
C3671 C3670 1.355 . S
C3671 C3673 1.419 . S
C3672 C3670 1.415 . S
C3672 C3677 1.425 . S
C3672 C3679 1.409 . S
C3673 H3665 0.930 . S
C3673 C3671 1.419 . S
C3673 C3674 1.362 . S
C3674 H3666 0.930 . S
C3674 C3673 1.362 . S
C3674 C3677 1.409 . S
C3675 H3667 0.930 . S
C3675 C3676 1.355 . S
C3675 C3677 1.415 . S
C3676 C3675 1.355 . S
C3676 C3678 1.419 . S
C3677 C3672 1.425 . S
C3677 C3674 1.409 . S
C3677 C3675 1.415 . S
C3678 H3668 0.930 . S
C3678 C3676 1.419 . S
C3678 C3679 1.362 . S
C3679 H3669 0.930 . S
C3679 C3672 1.409 . S
C3679 C3678 1.362 . S
H3680 C3686 0.930 . S
H3681 C3689 0.930 . S
H3682 C3690 0.930 . S
H3683 C3691 0.930 . S
H3684 C3694 0.930 . S
H3685 C3695 0.930 . S
C3686 H3680 0.930 . S
C3686 C3687 1.355 . S
C3686 C3688 1.415 . S
C3687 C3686 1.355 . S
C3687 C3689 1.419 . S
C3688 C3686 1.415 . S
C3688 C3693 1.425 . S
C3688 C3695 1.409 . S
C3689 H3681 0.930 . S
C3689 C3687 1.419 . S
C3689 C3690 1.362 . S
C3690 H3682 0.930 . S
C3690 C3689 1.362 . S
C3690 C3693 1.409 . S
C3691 H3683 0.930 . S
C3691 C3692 1.355 . S
C3691 C3693 1.415 . S
C3692 C3691 1.355 . S
C3692 C3694 1.419 . S
C3693 C3688 1.425 . S
C3693 C3690 1.409 . S
C3693 C3691 1.415 . S
C3694 H3684 0.930 . S
C3694 C3692 1.419 . S
C3694 C3695 1.362 . S
C3695 H3685 0.930 . S
C3695 C3688 1.409 . S
C3695 C3694 1.362 . S
H3696 C3702 0.930 . S
H3697 C3705 0.930 . S
H3698 C3706 0.930 . S
H3699 C3707 0.930 . S
H3700 C3710 0.930 . S
H3701 C3711 0.930 . S
C3702 H3696 0.930 . S
C3702 C3703 1.355 . S
C3702 C3704 1.415 . S
C3703 C3702 1.355 . S
C3703 C3705 1.419 . S
C3704 C3702 1.415 . S
C3704 C3709 1.425 . S
C3704 C3711 1.409 . S
C3705 H3697 0.930 . S
C3705 C3703 1.419 . S
C3705 C3706 1.362 . S
C3706 H3698 0.930 . S
C3706 C3705 1.362 . S
C3706 C3709 1.409 . S
C3707 H3699 0.930 . S
C3707 C3708 1.355 . S
C3707 C3709 1.415 . S
C3708 C3707 1.355 . S
C3708 C3710 1.419 . S
C3709 C3704 1.425 . S
C3709 C3706 1.409 . S
C3709 C3707 1.415 . S
C3710 H3700 0.930 . S
C3710 C3708 1.419 . S
C3710 C3711 1.362 . S
C3711 H3701 0.930 . S
C3711 C3704 1.409 . S
C3711 C3710 1.362 . S
H3712 C3718 0.930 . S
H3713 C3721 0.930 . S
H3714 C3722 0.930 . S
H3715 C3723 0.930 . S
H3716 C3726 0.930 . S
H3717 C3727 0.930 . S
C3718 H3712 0.930 . S
C3718 C3719 1.355 . S
C3718 C3720 1.415 . S
C3719 C3718 1.355 . S
C3719 C3721 1.419 . S
C3720 C3718 1.415 . S
C3720 C3725 1.425 . S
C3720 C3727 1.409 . S
C3721 H3713 0.930 . S
C3721 C3719 1.419 . S
C3721 C3722 1.362 . S
C3722 H3714 0.930 . S
C3722 C3721 1.362 . S
C3722 C3725 1.409 . S
C3723 H3715 0.930 . S
C3723 C3724 1.355 . S
C3723 C3725 1.415 . S
C3724 C3723 1.355 . S
C3724 C3726 1.419 . S
C3725 C3720 1.425 . S
C3725 C3722 1.409 . S
C3725 C3723 1.415 . S
C3726 H3716 0.930 . S
C3726 C3724 1.419 . S
C3726 C3727 1.362 . S
C3727 H3717 0.930 . S
C3727 C3720 1.409 . S
C3727 C3726 1.362 . S
H3728 C3734 0.930 . S
H3729 C3737 0.930 . S
H3730 C3738 0.930 . S
H3731 C3739 0.930 . S
H3732 C3742 0.930 . S
H3733 C3743 0.930 . S
C3734 H3728 0.930 . S
C3734 C3735 1.355 . S
C3734 C3736 1.415 . S
C3735 C3734 1.355 . S
C3735 C3737 1.419 . S
C3736 C3734 1.415 . S
C3736 C3741 1.425 . S
C3736 C3743 1.409 . S
C3737 H3729 0.930 . S
C3737 C3735 1.419 . S
C3737 C3738 1.362 . S
C3738 H3730 0.930 . S
C3738 C3737 1.362 . S
C3738 C3741 1.409 . S
C3739 H3731 0.930 . S
C3739 C3740 1.355 . S
C3739 C3741 1.415 . S
C3740 C3739 1.355 . S
C3740 C3742 1.419 . S
C3741 C3736 1.425 . S
C3741 C3738 1.409 . S
C3741 C3739 1.415 . S
C3742 H3732 0.930 . S
C3742 C3740 1.419 . S
C3742 C3743 1.362 . S
C3743 H3733 0.930 . S
C3743 C3736 1.409 . S
C3743 C3742 1.362 . S
C2215 C255 2.100 1_455 S
C2220 C920 2.135 . S
C2231 C147 1.883 . S
C2236 C1022 1.906 . S
C2247 C184 1.785 . S
C2252 C1088 1.832 . S
C2268 C1174 1.371 . S
C2263 C220 1.455 . S
C2279 C40 1.429 . S
C2284 C1258 1.386 . S
C2300 C1340 1.941 . S
C2295 C74 1.908 . S
C2316 C1442 1.937 . S
C2311 C110 1.917 . S
C2327 C14 2.118 . S
C2332 C1508 2.126 . S
C2348 C938 1.773 . S
C2343 C579 1.824 . S
C2359 C616 0.972 . S
C2364 C1006 0.957 . S
C2380 C1106 1.201 . S
C2375 C687 1.236 . S
C2396 C1172 1.688 . S
C2391 C436 1.676 . S
C2407 C580 1.646 . S
C2412 C1256 1.662 . S
C2428 C1358 1.208 . S
C2423 C615 1.170 . S
C2444 C1426 0.936 . S
C2439 C688 0.975 . S
C2460 C1526 1.790 . S
C2455 C435 1.815 . S
C2476 C922 1.059 1_565 S
C2471 C410 1.053 1_554 S
C2487 C722 1.733 . S
C2492 C1610 1.716 . S
C2508 C1678 1.380 . S
C2503 C842 1.432 . S
C2524 C1760 0.885 . S
C2519 C794 0.892 . S
C2535 C302 1.114 . S
C2540 C1510 1.054 . S
C2551 C338 1.402 . S
C2556 C1090 1.347 . S
C2567 C830 1.739 . S
C2572 C1862 1.752 . S
C2588 C1928 0.933 . S
C2583 C758 0.901 . S
C2604 C931 2.141 . S
C2599 C158 2.038 . S
C2620 C1935 1.864 . S
C2615 C254 1.887 . S
C2631 C218 1.830 . S
C2636 C1099 1.876 . S
C2647 C194 1.346 . S
C2652 C1857 1.344 . S
C2668 C1269 1.283 . S
C2663 C3 1.418 . S
C2679 C111 1.760 . S
C2684 C1687 1.776 . S
C2700 C1431 1.899 1_556 S
C2695 C76 1.860 . S
C2716 C2023 2.191 . S
C2711 C50 2.069 . S
C2732 C927 1.730 . S
C2727 C364 1.780 . S
C2748 C1941 0.904 . S
C2743 C795 0.911 . S
C2759 C292 1.207 . S
C2764 C1095 1.179 . S
C2775 C723 1.620 . S
C2780 C1855 1.607 . S
C2791 C363 1.632 . S
C2796 C1267 1.619 . S
C2812 C1683 1.192 . S
C2807 C796 1.220 . S
C2823 C291 0.973 . S
C2828 C1437 0.912 . S
C2839 C724 1.809 . S
C2844 C2019 1.778 . S
C2855 C482 1.076 . S
C2860 C933 1.023 . S
C2871 C434 1.702 . S
C2876 C1599 1.678 . S
C2887 C662 1.377 . S
C2892 C1353 1.339 . S
C2903 C614 0.900 . S
C2908 C1771 0.871 . S
C2924 C2025 1.013 . S
C2919 C698 1.089 . S
C2935 C554 1.307 . S
C2940 C1101 1.340 . S
C2956 C1179 1.704 . S
C2951 C650 1.683 . S
C2972 C1015 0.877 . S
C2967 C506 0.886 . S
C2983 C183 2.136 . S
C2988 C2096 2.152 . S
C3004 C1946 1.905 . S
C2999 C219 1.859 . S
C3015 C256 1.801 . S
C3020 C2180 1.842 . S
C3031 C148 1.452 1_655 S
C3036 C1846 1.406 . S
C3047 C122 1.413 . S
C3052 C1594 1.398 . S
C3068 C1676 1.876 . S
C3063 C2 1.841 1_655 S
C3084 C1778 1.834 . S
C3079 C39 1.840 . S
C3100 C2012 2.195 . S
C3095 C86 2.186 . S
C3116 C2114 1.813 . S
C3111 C651 1.835 . S
C3127 C472 0.997 . S
C3132 C1930 0.868 . S
C3148 C2198 1.179 . S
C3143 C507 1.209 . S
C3164 C1844 1.677 . S
C3159 C544 1.654 . S
C3180 C1592 1.655 . S
C3175 C652 1.654 . S
C3191 C471 1.211 . S
C3196 C1694 1.216 . S
C3212 C1762 0.930 . S
C3207 C508 0.967 . S
C3223 C543 1.801 . S
C3228 C2030 1.753 . S
C3244 C2098 1.066 . S
C3239 C806 1.103 . S
C3255 C326 1.709 . S
C3260 C1274 1.675 . S
C3276 C1342 1.390 . S
C3271 C374 1.415 1_565 S
C3292 C1424 0.889 . S
C3287 C398 0.919 . S
C3308 C2014 1.020 . S
C3303 C770 1.090 . S
C3319 C734 1.336 . S
C3324 C2182 1.290 . S
C3340 C1190 1.722 . S
C3335 C362 1.741 . S
C3356 C1004 0.966 . S
C3351 C290 0.984 . S
C3367 C230 2.030 . S
C3372 C2107 2.136 . S
C3388 C1011 1.880 . S
C3383 C182 1.882 . S
C3399 C146 1.813 . S
C3404 C2191 1.875 . S
C3415 C266 1.392 . S
C3420 C1185 1.370 . S
C3431 C75 1.443 . S
C3436 C1605 1.305 . S
C3452 C1351 1.935 . S
C3447 C38 1.893 . S
C3463 C4 1.809 . S
C3468 C1767 1.828 . S
C3479 C112 2.071 . S
C3484 C1519 2.100 . S
C3500 C2103 1.709 . S
C3495 C832 1.780 . S
C3511 C399 0.940 . S
C3516 C1017 0.971 . S
C3532 C2187 1.191 1_655 S
C3527 C760 1.202 . S
C3543 C327 1.618 . S
C3548 C1183 1.622 . S
C3559 C831 1.656 . S
C3564 C1603 1.654 . S
C3580 C1347 1.163 . S
C3575 C400 1.221 . S
C3591 C759 0.951 . S
C3596 C1773 0.981 . S
C3612 C1515 1.733 . S
C3607 C328 1.790 . S
C3628 C2109 1.098 . S
C3623 C626 0.993 . S
C3644 C1263 1.707 1_565 S
C3639 C542 1.685 . S
C3655 C590 1.356 . S
C3660 C1689 1.284 . S
C3676 C1435 0.868 . S
C3671 C470 0.833 . S
C3687 C518 1.067 . S
C3692 C1521 0.998 . S
C3703 C446 1.301 . S
C3708 C2193 1.331 . S
C3724 C1851 1.691 . S
C3719 C578 1.724 . S
C3740 C1939 0.858 . S
C3735 C686 0.847 . S
