# Generated by pormake.
# Topology bcu-b, (8,8)-cn, num edge types: 1
# Building blocks:
#     Node 0, Type 0, BuildingBlock: TAGTUT_clean_sbu_1, # of connection points: 8
#     Node 1, Type 1, BuildingBlock: VETTIZ_charged_sbu_0, # of connection points: 8
#     Edge 2, Type (0, 1), BuildingBlock: TEMPAE_clean_linker_10, # of connection points: 2
#     Edge 3, Type (0, 1), BuildingBlock: TEMPAE_clean_linker_10, # of connection points: 2
#     Edge 4, Type (0, 1), BuildingBlock: TEMPAE_clean_linker_10, # of connection points: 2
#     Edge 5, Type (0, 1), BuildingBlock: TEMPAE_clean_linker_10, # of connection points: 2
#     Edge 6, Type (0, 1), BuildingBlock: TEMPAE_clean_linker_10, # of connection points: 2
#     Edge 7, Type (0, 1), BuildingBlock: TEMPAE_clean_linker_10, # of connection points: 2
#     Edge 8, Type (0, 1), BuildingBlock: TEMPAE_clean_linker_10, # of connection points: 2
#     Edge 9, Type (0, 1), BuildingBlock: TEMPAE_clean_linker_10, # of connection points: 2
# Relax obj value: 0.028
# Max RMSD: 0.120
# Mean RMSD: 0.087
data_MOF--net-bcu-b--node1-TAGTUT_clean_sbu_1--node2-VETTIZ_charged_sbu_0--edge1-TEMPAE_clean_linker_10
_symmetry_space_group_name_H-M    P1
_symmetry_Int_Tables_number       1
_symmetry_cell_setting            triclinic
loop_
_symmetry_equiv_pos_as_xyz
'x, y, z'
_cell_length_a     20.289266
_cell_length_b     19.372489
_cell_length_c     20.649045
_cell_angle_alpha  90.836032
_cell_angle_beta   92.187438
_cell_angle_gamma 99.093435
loop_
_atom_site_label
_atom_site_type_symbol
_atom_site_fract_x
_atom_site_fract_y
_atom_site_fract_z
_atom_type_partial_charge
C0 C 0.84115 0.16838 0.08758 0.0
C1 C 0.91212 0.1717 0.8933 0.0
C2 C 0.89015 0.89028 0.91856 0.0
Mg3 Mg 0.9791 0.16535 0.02852 0.0
O4 O 0.94841 0.0691 0.03217 0.0
Mg5 Mg 0.86009 0.03264 0.98737 0.0
Mg6 Mg 1.00316 1.0019 0.99671 0.0
O7 O 0.05738 0.93401 0.96168 0.0
Mg8 Mg 0.0253 0.83818 0.96828 0.0
Mg9 Mg 0.14534 0.97018 0.00714 0.0
C10 C 0.1155 0.11405 0.07567 0.0
C11 C 0.11127 0.08318 0.90028 0.0
O12 O 0.81675 0.11314 0.05371 0.0
O13 O 0.90299 0.19566 0.08701 0.0
O14 O 0.87417 0.11499 0.90696 0.0
O15 O 0.95975 0.19955 0.93202 0.0
O16 O 0.08138 0.16382 0.06574 0.0
O17 O 0.09195 0.04956 0.06249 0.0
C18 C 0.89477 0.91612 0.09018 0.0
O19 O 0.95595 0.92645 0.07392 0.0
O20 O 0.85152 0.95062 0.06521 0.0
O21 O 0.18802 0.88771 0.94311 0.0
O22 O 0.10147 0.80477 0.91151 0.0
O23 O 0.12999 0.89012 0.08935 0.0
C24 C 0.1634 0.83168 0.91051 0.0
O25 O 0.04245 0.80714 0.06646 0.0
O26 O 0.92351 0.84016 0.92978 0.0
C27 C 0.09071 0.83489 0.10453 0.0
O28 O 0.91427 0.95476 0.93088 0.0
O29 O 0.05079 0.07633 0.91863 0.0
O30 O 0.15404 0.04874 0.92627 0.0
Fe31 Fe 0.51024 0.65872 0.45572 0.0
O32 O 0.50279 0.55647 0.45574 0.0
Fe33 Fe 0.57975 0.51067 0.49993 0.0
Fe34 Fe 0.42593 0.4959 0.4941 0.0
O35 O 0.50922 0.55704 0.45605 0.0
O36 O 0.50284 0.45066 0.53854 0.0
O37 O 0.49651 0.45 0.53806 0.0
Fe38 Fe 0.49426 0.34856 0.54014 0.0
C39 C 0.42249 0.6262 0.57125 0.0
O40 O 0.43288 0.635 0.38722 0.0
O41 O 0.36162 0.55275 0.44173 0.0
O42 O 0.56662 0.34281 0.47325 0.0
O43 O 0.57607 0.4436 0.42143 0.0
O44 O 0.65141 0.57993 0.45261 0.0
O45 O 0.59081 0.65463 0.39808 0.0
O46 O 0.41937 0.42855 0.41567 0.0
O47 O 0.42351 0.3273 0.46529 0.0
C48 C 0.64466 0.62759 0.41009 0.0
O49 O 0.57264 0.37241 0.60747 0.0
O50 O 0.64406 0.45384 0.55232 0.0
O51 O 0.43634 0.66267 0.52134 0.0
O52 O 0.4294 0.56224 0.57295 0.0
C53 C 0.37432 0.59918 0.39678 0.0
C54 C 0.41103 0.36208 0.41572 0.0
C55 C 0.36181 0.38257 0.58691 0.0
O56 O 0.35413 0.42672 0.54136 0.0
O57 O 0.41566 0.3558 0.59957 0.0
C58 C 0.58171 0.37921 0.42347 0.0
O59 O 0.58667 0.57763 0.57863 0.0
O60 O 0.57942 0.67967 0.53166 0.0
C61 C 0.63123 0.40794 0.59769 0.0
C62 C 0.59342 0.644 0.58004 0.0
C63 C 0.22355 0.19278 0.09397 0.0
C64 C 0.18035 0.13262 0.1108 0.0
C65 C 0.27453 0.22431 0.13752 0.0
C66 C 0.2802 0.19644 0.2001 0.0
C67 C 0.24091 0.13175 0.21469 0.0
C68 C 0.19184 0.09993 0.1692 0.0
C69 C 0.31777 0.29117 0.11883 0.0
C70 C 0.24494 0.10037 0.28091 0.0
C71 C 0.41356 0.27542 0.32624 0.0
C72 C 0.38021 0.32323 0.35803 0.0
C73 C 0.38292 0.2354 0.27283 0.0
C74 C 0.31639 0.24129 0.25331 0.0
C75 C 0.28284 0.28992 0.28563 0.0
C76 C 0.31577 0.33129 0.3369 0.0
C77 C 0.42148 0.18658 0.23809 0.0
C78 C 0.2115 0.29719 0.26716 0.0
H79 H 0.21477 0.21761 0.04838 0.0
H80 H 0.15803 0.05352 0.18217 0.0
H81 H 0.2988 0.33646 0.14071 0.0
H82 H 0.37007 0.29262 0.1373 0.0
H83 H 0.31745 0.29735 0.06541 0.0
H84 H 0.21898 0.0454 0.28129 0.0
H85 H 0.29764 0.10184 0.29786 0.0
H86 H 0.22119 0.13161 0.31611 0.0
H87 H 0.46371 0.26973 0.34294 0.0
H88 H 0.29027 0.36815 0.36218 0.0
H89 H 0.41433 0.19025 0.18477 0.0
H90 H 0.40283 0.13188 0.25122 0.0
H91 H 0.47582 0.19805 0.25114 0.0
H92 H 0.20806 0.31468 0.21642 0.0
H93 H 0.1919 0.33528 0.29903 0.0
H94 H 0.17879 0.24575 0.26997 0.0
C95 C 0.7277 0.18482 0.12454 0.0
C96 C 0.79759 0.2007 0.13118 0.0
C97 C 0.68689 0.21442 0.16718 0.0
C98 C 0.71679 0.25979 0.21822 0.0
C99 C 0.7872 0.27644 0.2247 0.0
C100 C 0.8266 0.24718 0.18091 0.0
C101 C 0.6119 0.19639 0.15827 0.0
C102 C 0.82113 0.32378 0.27904 0.0
C103 C 0.62498 0.38338 0.31106 0.0
C104 C 0.6111 0.34664 0.36833 0.0
C105 C 0.65657 0.3544 0.2603 0.0
C106 C 0.67523 0.28739 0.26722 0.0
C107 C 0.65937 0.24915 0.32394 0.0
C108 C 0.62721 0.27904 0.37358 0.0
C109 C 0.67196 0.39644 0.2002 0.0
C110 C 0.67917 0.17792 0.33359 0.0
H111 H 0.70487 0.14934 0.08603 0.0
H112 H 0.88052 0.2596 0.18677 0.0
H113 H 0.59149 0.16536 0.19977 0.0
H114 H 0.58899 0.24475 0.1575 0.0
H115 H 0.59645 0.16572 0.11283 0.0
H116 H 0.87642 0.33244 0.27662 0.0
H117 H 0.8038 0.37526 0.27745 0.0
H118 H 0.80756 0.30061 0.32649 0.0
H119 H 0.61214 0.43534 0.30621 0.0
H120 H 0.61647 0.25 0.41742 0.0
H121 H 0.65411 0.36434 0.15618 0.0
H122 H 0.7268 0.4118 0.19735 0.0
H123 H 0.64869 0.44465 0.19974 0.0
H124 H 0.66042 0.14256 0.29193 0.0
H125 H 0.65973 0.15333 0.37876 0.0
H126 H 0.73445 0.18273 0.33596 0.0
C127 C 0.91628 0.83539 0.18052 0.0
C128 C 0.87164 0.86171 0.13741 0.0
C129 C 0.89258 0.78736 0.22812 0.0
C130 C 0.82286 0.76532 0.23212 0.0
C131 C 0.77819 0.78885 0.18626 0.0
C132 C 0.80309 0.83666 0.13974 0.0
C133 C 0.94171 0.76222 0.2754 0.0
C134 C 0.70343 0.7664 0.1882 0.0
C135 C 0.72844 0.61857 0.32651 0.0
C136 C 0.70341 0.65746 0.37479 0.0
C137 C 0.77396 0.65189 0.28274 0.0
C138 C 0.79449 0.72529 0.28821 0.0
C139 C 0.77437 0.7629 0.34137 0.0
C140 C 0.72833 0.72856 0.38357 0.0
C141 C 0.79443 0.60973 0.22713 0.0
C142 C 0.79564 0.84092 0.34976 0.0
H143 H 0.96938 0.85408 0.17855 0.0
H144 H 0.76832 0.8554 0.10566 0.0
H145 H 0.93246 0.77887 0.32543 0.0
H146 H 0.93476 0.70425 0.27425 0.0
H147 H 0.99436 0.78266 0.2646 0.0
H148 H 0.67617 0.78516 0.14598 0.0
H149 H 0.69109 0.70858 0.18906 0.0
H150 H 0.68483 0.7874 0.2331 0.0
H151 H 0.70879 0.56338 0.32003 0.0
H152 H 0.70894 0.75813 0.42147 0.0
H153 H 0.84704 0.62818 0.21516 0.0
H154 H 0.76246 0.61605 0.18349 0.0
H155 H 0.78841 0.55314 0.23813 0.0
H156 H 0.84979 0.85567 0.34199 0.0
H157 H 0.78499 0.85994 0.3987 0.0
H158 H 0.7682 0.86816 0.31315 0.0
C159 C 0.09039 0.72368 0.16472 0.0
C160 C 0.10905 0.79652 0.16237 0.0
C161 C 0.12202 0.68412 0.20924 0.0
C162 C 0.17264 0.71842 0.25287 0.0
C163 C 0.18597 0.79245 0.25552 0.0
C164 C 0.15434 0.8306 0.20994 0.0
C165 C 0.10583 0.60539 0.20507 0.0
C166 C 0.2381 0.83132 0.3026 0.0
C167 C 0.25701 0.62398 0.38524 0.0
C168 C 0.31792 0.61833 0.35727 0.0
C169 C 0.20764 0.65413 0.35116 0.0
C170 C 0.21933 0.67794 0.28744 0.0
C171 C 0.27906 0.66802 0.25773 0.0
C172 C 0.32783 0.63907 0.29324 0.0
C173 C 0.14505 0.66435 0.38478 0.0
C174 C 0.29301 0.69108 0.18934 0.0
H175 H 0.05505 0.69687 0.12844 0.0
H176 H 0.1681 0.887 0.20919 0.0
H177 H 0.14576 0.58468 0.1792 0.0
H178 H 0.10388 0.58262 0.25406 0.0
H179 H 0.05745 0.58745 0.17833 0.0
H180 H 0.235 0.88803 0.30557 0.0
H181 H 0.2326 0.8093 0.35175 0.0
H182 H 0.28859 0.82537 0.28673 0.0
H183 H 0.24951 0.60864 0.43505 0.0
H184 H 0.37471 0.63427 0.2714 0.0
H185 H 0.10025 0.65022 0.35192 0.0
H186 H 0.14814 0.72034 0.39873 0.0
H187 H 0.13827 0.63288 0.42928 0.0
H188 H 0.25032 0.66968 0.1559 0.0
H189 H 0.33896 0.67406 0.17147 0.0
H190 H 0.29912 0.74895 0.18743 0.0
C191 C 0.27663 0.81536 0.87314 0.0
C192 C 0.20674 0.79879 0.86716 0.0
C193 C 0.31732 0.78647 0.82992 0.0
C194 C 0.28728 0.74114 0.77892 0.0
C195 C 0.21689 0.72352 0.77327 0.0
C196 C 0.17761 0.75205 0.81769 0.0
C197 C 0.39231 0.8055 0.83798 0.0
C198 C 0.18284 0.67619 0.719 0.0
C199 C 0.37548 0.72481 0.62222 0.0
C200 C 0.39292 0.65774 0.62683 0.0
C201 C 0.34325 0.75359 0.67247 0.0
C202 C 0.32865 0.71472 0.72909 0.0
C203 C 0.34865 0.64826 0.73532 0.0
C204 C 0.38031 0.62041 0.684 0.0
C205 C 0.32218 0.82437 0.66368 0.0
C206 C 0.33469 0.6056 0.7953 0.0
H207 H 0.29956 0.85107 0.91143 0.0
H208 H 0.12369 0.73915 0.81234 0.0
H209 H 0.41599 0.75763 0.83755 0.0
H210 H 0.4117 0.83757 0.79672 0.0
H211 H 0.40796 0.83553 0.88372 0.0
H212 H 0.12764 0.66633 0.72235 0.0
H213 H 0.19511 0.70012 0.67157 0.0
H214 H 0.20125 0.62525 0.71964 0.0
H215 H 0.3853 0.75429 0.57847 0.0
H216 H 0.39421 0.56885 0.68835 0.0
H217 H 0.34107 0.85965 0.70536 0.0
H218 H 0.26684 0.81867 0.66211 0.0
H219 H 0.34061 0.84955 0.6184 0.0
H220 H 0.35268 0.63758 0.83935 0.0
H221 H 0.35876 0.55791 0.79506 0.0
H222 H 0.28003 0.58936 0.79879 0.0
C223 C 0.1952 0.12854 0.82019 0.0
C224 C 0.13376 0.13189 0.84795 0.0
C225 C 0.22026 0.17595 0.77337 0.0
C226 C 0.18338 0.2289 0.75389 0.0
C227 C 0.12011 0.23131 0.77982 0.0
C228 C 0.09599 0.18252 0.82653 0.0
C229 C 0.28723 0.17014 0.74584 0.0
C230 C 0.0782 0.28609 0.7607 0.0
C231 C 0.30727 0.37534 0.69207 0.0
C232 C 0.30459 0.35765 0.62606 0.0
C233 C 0.26161 0.33913 0.73375 0.0
C234 C 0.21418 0.28258 0.70877 0.0
C235 C 0.20723 0.26944 0.64101 0.0
C236 C 0.25278 0.30746 0.60016 0.0
C237 C 0.26809 0.35709 0.80527 0.0
C238 C 0.15588 0.21099 0.61255 0.0
H239 H 0.22439 0.08893 0.83543 0.0
H240 H 0.04827 0.18522 0.84713 0.0
H241 H 0.28285 0.16737 0.6921 0.0
H242 H 0.32384 0.21727 0.75994 0.0
H243 H 0.30744 0.12333 0.76317 0.0
H244 H 0.02487 0.26203 0.75422 0.0
H245 H 0.0817 0.32587 0.80046 0.0
H246 H 0.09391 0.31293 0.71546 0.0
H247 H 0.34726 0.41487 0.7116 0.0
H248 H 0.25103 0.29426 0.54882 0.0
H249 H 0.29221 0.31722 0.8311 0.0
H250 H 0.21802 0.35664 0.82529 0.0
H251 H 0.29875 0.40923 0.81527 0.0
H252 H 0.17119 0.15999 0.62457 0.0
H253 H 0.15028 0.21406 0.55898 0.0
H254 H 0.10665 0.21227 0.6338 0.0
C255 C 0.84868 0.17727 0.7879 0.0
C256 C 0.8933 0.21096 0.8362 0.0
C257 C 0.81758 0.21578 0.74223 0.0
C258 C 0.83087 0.28981 0.74539 0.0
C259 C 0.8806 0.32381 0.79006 0.0
C260 C 0.91149 0.28392 0.83484 0.0
C261 C 0.76616 0.17724 0.69427 0.0
C262 C 0.89681 0.40252 0.79472 0.0
C263 C 0.74878 0.38399 0.61127 0.0
C264 C 0.68732 0.38951 0.63816 0.0
C265 C 0.79772 0.35421 0.64641 0.0
C266 C 0.78493 0.3305 0.71 0.0
C267 C 0.72468 0.34045 0.73864 0.0
C268 C 0.67647 0.3692 0.70218 0.0
C269 C 0.86106 0.34422 0.61404 0.0
C270 C 0.70951 0.31743 0.80681 0.0
H271 H 0.83517 0.12082 0.78796 0.0
H272 H 0.9463 0.31046 0.8717 0.0
H273 H 0.71542 0.18353 0.70914 0.0
H274 H 0.77279 0.1993 0.64525 0.0
H275 H 0.76895 0.12045 0.69142 0.0
H276 H 0.94484 0.42023 0.82215 0.0
H277 H 0.89952 0.4256 0.74587 0.0
H278 H 0.85652 0.4231 0.82011 0.0
H279 H 0.75706 0.39911 0.56153 0.0
H280 H 0.6292 0.37399 0.72324 0.0
H281 H 0.85845 0.28825 0.60026 0.0
H282 H 0.90521 0.3586 0.64767 0.0
H283 H 0.86858 0.37566 0.56959 0.0
H284 H 0.70346 0.25956 0.80881 0.0
H285 H 0.66315 0.33436 0.82379 0.0
H286 H 0.75157 0.33894 0.84092 0.0
C287 C 0.81361 0.90403 0.82524 0.0
C288 C 0.82509 0.87197 0.88394 0.0
C289 C 0.76382 0.8723 0.78047 0.0
C290 C 0.72383 0.8084 0.79616 0.0
C291 C 0.72945 0.78148 0.85912 0.0
C292 C 0.78117 0.81284 0.90194 0.0
C293 C 0.75969 0.90271 0.71384 0.0
C294 C 0.68528 0.71572 0.87899 0.0
C295 C 0.59069 0.73037 0.66969 0.0
C296 C 0.6237 0.68195 0.63836 0.0
C297 C 0.62113 0.76994 0.72339 0.0
C298 C 0.68723 0.76305 0.74359 0.0
C299 C 0.72029 0.71352 0.71199 0.0
C300 C 0.68745 0.67254 0.66048 0.0
C301 C 0.58293 0.8196 0.75744 0.0
C302 C 0.79118 0.70515 0.73123 0.0
H303 H 0.8479 0.94976 0.81149 0.0
H304 H 0.78986 0.78865 0.94788 0.0
H305 H 0.78188 0.86996 0.67872 0.0
H306 H 0.70698 0.90257 0.6976 0.0
H307 H 0.78698 0.95709 0.7124 0.0
H308 H 0.68564 0.71072 0.93253 0.0
H309 H 0.63307 0.71485 0.86047 0.0
H310 H 0.70342 0.66948 0.85798 0.0
H311 H 0.541 0.737 0.65231 0.0
H312 H 0.71267 0.63514 0.63561 0.0
H313 H 0.60032 0.87372 0.74182 0.0
H314 H 0.5916 0.81846 0.81078 0.0
H315 H 0.52836 0.80686 0.74588 0.0
H316 H 0.82468 0.75606 0.72807 0.0
H317 H 0.81034 0.66617 0.70002 0.0
H318 H 0.79394 0.68825 0.7822 0.0
loop_
_geom_bond_atom_site_label_1
_geom_bond_atom_site_label_2
_geom_bond_distance
_geom_bond_site_symmetry_2
_ccdc_geom_bond_type
C0 O12 1.241 . S
C0 O13 1.280 . S
C1 O14 1.277 . S
C1 O15 1.245 . S
C2 O26 1.247 . S
C2 O28 1.289 . S
Mg3 O4 1.926 . S
Mg3 O13 1.984 . S
Mg3 O15 1.988 1_554 S
Mg3 O16 2.061 1_655 S
O4 Mg3 1.926 . S
O4 Mg5 1.986 . S
O4 Mg6 1.917 1_655 S
Mg5 O4 1.986 . S
Mg5 O12 2.042 . S
Mg5 O14 2.041 1_554 S
Mg5 O20 2.038 1_545 S
Mg5 O28 2.238 1_544 S
Mg6 O4 1.917 1_455 S
Mg6 O7 1.917 1_544 S
Mg6 O17 2.106 . S
Mg6 O19 2.079 1_445 S
Mg6 O28 2.106 1_444 S
Mg6 O29 2.079 1_554 S
O7 Mg6 1.917 1_566 S
O7 Mg8 1.926 . S
O7 Mg9 1.986 1_556 S
Mg8 O7 1.926 . S
Mg8 O22 1.984 . S
Mg8 O25 1.988 1_556 S
Mg8 O26 2.061 1_455 S
Mg9 O7 1.986 1_554 S
Mg9 O17 2.238 1_565 S
Mg9 O21 2.042 1_554 S
Mg9 O23 2.041 . S
Mg9 O30 2.038 1_564 S
C10 O16 1.247 . S
C10 O17 1.289 . S
C11 O29 1.245 . S
C11 O30 1.274 . S
O12 C0 1.241 . S
O12 Mg5 2.042 . S
O13 C0 1.280 . S
O13 Mg3 1.984 . S
O14 C1 1.277 . S
O14 Mg5 2.041 1_556 S
O15 C1 1.245 . S
O15 Mg3 1.988 1_556 S
O16 Mg3 2.061 1_455 S
O16 C10 1.247 . S
O17 Mg6 2.106 . S
O17 Mg9 2.238 1_545 S
O17 C10 1.289 . S
C18 O19 1.245 . S
C18 O20 1.274 . S
O19 Mg6 2.079 1_665 S
O19 C18 1.245 . S
O20 Mg5 2.038 1_565 S
O20 C18 1.274 . S
O21 Mg9 2.042 1_556 S
O21 C24 1.241 . S
O22 Mg8 1.984 . S
O22 C24 1.280 . S
O23 Mg9 2.041 . S
O23 C27 1.277 . S
C24 O21 1.241 . S
C24 O22 1.280 . S
O25 Mg8 1.988 1_554 S
O25 C27 1.245 . S
O26 C2 1.247 . S
O26 Mg8 2.061 1_655 S
C27 O23 1.277 . S
C27 O25 1.245 . S
O28 C2 1.289 . S
O28 Mg5 2.238 1_566 S
O28 Mg6 2.106 1_666 S
O29 Mg6 2.079 1_556 S
O29 C11 1.245 . S
O30 Mg9 2.038 1_546 S
O30 C11 1.274 . S
Fe31 O32 1.886 . S
Fe31 O35 1.715 . S
Fe31 O40 2.077 . S
Fe31 O45 1.935 . S
Fe31 O51 2.077 . S
Fe31 O60 1.935 . S
O32 Fe31 1.886 . S
O32 Fe34 1.715 . S
Fe33 O35 1.886 . S
Fe33 O36 1.715 . S
Fe33 O43 1.935 . S
Fe33 O44 2.077 . S
Fe33 O50 1.935 . S
Fe33 O59 2.077 . S
Fe34 O32 1.715 . S
Fe34 O37 1.886 . S
Fe34 O41 1.935 . S
Fe34 O46 2.077 . S
Fe34 O52 1.935 . S
Fe34 O56 2.077 . S
O35 Fe31 1.715 . S
O35 Fe33 1.886 . S
O36 Fe33 1.715 . S
O36 Fe38 1.886 . S
O37 Fe34 1.886 . S
O37 Fe38 1.715 . S
Fe38 O36 1.886 . S
Fe38 O37 1.715 . S
Fe38 O42 2.077 . S
Fe38 O47 1.935 . S
Fe38 O49 2.077 . S
Fe38 O57 1.935 . S
C39 O51 1.381 . S
C39 O52 1.421 . S
O40 Fe31 2.077 . S
O40 C53 1.381 . S
O41 Fe34 1.935 . S
O41 C53 1.421 . S
O42 Fe38 2.077 . S
O42 C58 1.381 . S
O43 Fe33 1.935 . S
O43 C58 1.421 . S
O44 Fe33 2.077 . S
O44 C48 1.381 . S
O45 Fe31 1.935 . S
O45 C48 1.421 . S
O46 Fe34 2.077 . S
O46 C54 1.381 . S
O47 Fe38 1.935 . S
O47 C54 1.421 . S
C48 O44 1.381 . S
C48 O45 1.421 . S
O49 Fe38 2.077 . S
O49 C61 1.381 . S
O50 Fe33 1.935 . S
O50 C61 1.421 . S
O51 Fe31 2.077 . S
O51 C39 1.381 . S
O52 Fe34 1.935 . S
O52 C39 1.421 . S
C53 O40 1.381 . S
C53 O41 1.421 . S
C54 O46 1.381 . S
C54 O47 1.421 . S
C55 O56 1.381 . S
C55 O57 1.421 . S
O56 Fe34 2.077 . S
O56 C55 1.381 . S
O57 Fe38 1.935 . S
O57 C55 1.421 . S
C58 O42 1.381 . S
C58 O43 1.421 . S
O59 Fe33 2.077 . S
O59 C62 1.381 . S
O60 Fe31 1.935 . S
O60 C62 1.421 . S
C61 O49 1.381 . S
C61 O50 1.421 . S
C62 O59 1.381 . S
C62 O60 1.421 . S
C63 C64 1.391 . S
C63 C65 1.394 . S
C63 H79 0.931 . S
C64 C63 1.391 . S
C64 C68 1.376 . S
C65 C63 1.394 . S
C65 C66 1.369 . S
C65 C69 1.531 . S
C66 C65 1.369 . S
C66 C67 1.410 . S
C66 C74 1.503 . S
C67 C66 1.410 . S
C67 C68 1.392 . S
C67 C70 1.511 . S
C68 C64 1.376 . S
C68 C67 1.392 . S
C68 H80 0.929 . S
C69 C65 1.531 . S
C69 H81 0.960 . S
C69 H82 0.962 . S
C69 H83 0.960 . S
C70 C67 1.511 . S
C70 H84 0.961 . S
C70 H85 0.961 . S
C70 H86 0.961 . S
C71 C72 1.370 . S
C71 C73 1.363 . S
C71 H87 0.931 . S
C72 C71 1.370 . S
C72 C76 1.408 . S
C73 C71 1.363 . S
C73 C74 1.370 . S
C73 C77 1.524 . S
C74 C66 1.503 . S
C74 C73 1.370 . S
C74 C75 1.403 . S
C75 C74 1.403 . S
C75 C76 1.404 . S
C75 C78 1.539 . S
C76 C72 1.408 . S
C76 C75 1.404 . S
C76 H88 0.930 . S
C77 C73 1.524 . S
C77 H89 0.956 . S
C77 H90 0.961 . S
C77 H91 0.961 . S
C78 C75 1.539 . S
C78 H92 0.958 . S
C78 H93 0.961 . S
C78 H94 0.960 . S
H79 C63 0.931 . S
H80 C68 0.929 . S
H81 C69 0.960 . S
H82 C69 0.962 . S
H83 C69 0.960 . S
H84 C70 0.961 . S
H85 C70 0.961 . S
H86 C70 0.961 . S
H87 C71 0.931 . S
H88 C76 0.930 . S
H89 C77 0.956 . S
H90 C77 0.961 . S
H91 C77 0.961 . S
H92 C78 0.958 . S
H93 C78 0.961 . S
H94 C78 0.960 . S
C95 C96 1.391 . S
C95 C97 1.394 . S
C95 H111 0.931 . S
C96 C95 1.391 . S
C96 C100 1.376 . S
C97 C95 1.394 . S
C97 C98 1.369 . S
C97 C101 1.531 . S
C98 C97 1.369 . S
C98 C99 1.410 . S
C98 C106 1.503 . S
C99 C98 1.410 . S
C99 C100 1.392 . S
C99 C102 1.511 . S
C100 C96 1.376 . S
C100 C99 1.392 . S
C100 H112 0.929 . S
C101 C97 1.531 . S
C101 H113 0.960 . S
C101 H114 0.962 . S
C101 H115 0.960 . S
C102 C99 1.511 . S
C102 H116 0.961 . S
C102 H117 0.961 . S
C102 H118 0.961 . S
C103 C104 1.370 . S
C103 C105 1.363 . S
C103 H119 0.931 . S
C104 C103 1.370 . S
C104 C108 1.408 . S
C105 C103 1.363 . S
C105 C106 1.370 . S
C105 C109 1.524 . S
C106 C98 1.503 . S
C106 C105 1.370 . S
C106 C107 1.403 . S
C107 C106 1.403 . S
C107 C108 1.404 . S
C107 C110 1.539 . S
C108 C104 1.408 . S
C108 C107 1.404 . S
C108 H120 0.930 . S
C109 C105 1.524 . S
C109 H121 0.956 . S
C109 H122 0.961 . S
C109 H123 0.961 . S
C110 C107 1.539 . S
C110 H124 0.958 . S
C110 H125 0.961 . S
C110 H126 0.960 . S
H111 C95 0.931 . S
H112 C100 0.929 . S
H113 C101 0.960 . S
H114 C101 0.962 . S
H115 C101 0.960 . S
H116 C102 0.961 . S
H117 C102 0.961 . S
H118 C102 0.961 . S
H119 C103 0.931 . S
H120 C108 0.930 . S
H121 C109 0.956 . S
H122 C109 0.961 . S
H123 C109 0.961 . S
H124 C110 0.958 . S
H125 C110 0.961 . S
H126 C110 0.960 . S
C127 C128 1.391 . S
C127 C129 1.394 . S
C127 H143 0.931 . S
C128 C127 1.391 . S
C128 C132 1.376 . S
C129 C127 1.394 . S
C129 C130 1.369 . S
C129 C133 1.531 . S
C130 C129 1.369 . S
C130 C131 1.410 . S
C130 C138 1.503 . S
C131 C130 1.410 . S
C131 C132 1.392 . S
C131 C134 1.511 . S
C132 C128 1.376 . S
C132 C131 1.392 . S
C132 H144 0.929 . S
C133 C129 1.531 . S
C133 H145 0.960 . S
C133 H146 0.962 . S
C133 H147 0.960 . S
C134 C131 1.511 . S
C134 H148 0.961 . S
C134 H149 0.961 . S
C134 H150 0.961 . S
C135 C136 1.370 . S
C135 C137 1.363 . S
C135 H151 0.931 . S
C136 C135 1.370 . S
C136 C140 1.408 . S
C137 C135 1.363 . S
C137 C138 1.370 . S
C137 C141 1.524 . S
C138 C130 1.503 . S
C138 C137 1.370 . S
C138 C139 1.403 . S
C139 C138 1.403 . S
C139 C140 1.404 . S
C139 C142 1.539 . S
C140 C136 1.408 . S
C140 C139 1.404 . S
C140 H152 0.930 . S
C141 C137 1.524 . S
C141 H153 0.956 . S
C141 H154 0.961 . S
C141 H155 0.961 . S
C142 C139 1.539 . S
C142 H156 0.958 . S
C142 H157 0.961 . S
C142 H158 0.960 . S
H143 C127 0.931 . S
H144 C132 0.929 . S
H145 C133 0.960 . S
H146 C133 0.962 . S
H147 C133 0.960 . S
H148 C134 0.961 . S
H149 C134 0.961 . S
H150 C134 0.961 . S
H151 C135 0.931 . S
H152 C140 0.930 . S
H153 C141 0.956 . S
H154 C141 0.961 . S
H155 C141 0.961 . S
H156 C142 0.958 . S
H157 C142 0.961 . S
H158 C142 0.960 . S
C159 C160 1.391 . S
C159 C161 1.394 . S
C159 H175 0.931 . S
C160 C159 1.391 . S
C160 C164 1.376 . S
C161 C159 1.394 . S
C161 C162 1.369 . S
C161 C165 1.531 . S
C162 C161 1.369 . S
C162 C163 1.410 . S
C162 C170 1.503 . S
C163 C162 1.410 . S
C163 C164 1.392 . S
C163 C166 1.511 . S
C164 C160 1.376 . S
C164 C163 1.392 . S
C164 H176 0.929 . S
C165 C161 1.531 . S
C165 H177 0.960 . S
C165 H178 0.962 . S
C165 H179 0.960 . S
C166 C163 1.511 . S
C166 H180 0.961 . S
C166 H181 0.961 . S
C166 H182 0.961 . S
C167 C168 1.370 . S
C167 C169 1.363 . S
C167 H183 0.931 . S
C168 C167 1.370 . S
C168 C172 1.408 . S
C169 C167 1.363 . S
C169 C170 1.370 . S
C169 C173 1.524 . S
C170 C162 1.503 . S
C170 C169 1.370 . S
C170 C171 1.403 . S
C171 C170 1.403 . S
C171 C172 1.404 . S
C171 C174 1.539 . S
C172 C168 1.408 . S
C172 C171 1.404 . S
C172 H184 0.930 . S
C173 C169 1.524 . S
C173 H185 0.956 . S
C173 H186 0.961 . S
C173 H187 0.961 . S
C174 C171 1.539 . S
C174 H188 0.958 . S
C174 H189 0.961 . S
C174 H190 0.960 . S
H175 C159 0.931 . S
H176 C164 0.929 . S
H177 C165 0.960 . S
H178 C165 0.962 . S
H179 C165 0.960 . S
H180 C166 0.961 . S
H181 C166 0.961 . S
H182 C166 0.961 . S
H183 C167 0.931 . S
H184 C172 0.930 . S
H185 C173 0.956 . S
H186 C173 0.961 . S
H187 C173 0.961 . S
H188 C174 0.958 . S
H189 C174 0.961 . S
H190 C174 0.960 . S
C191 C192 1.391 . S
C191 C193 1.394 . S
C191 H207 0.931 . S
C192 C191 1.391 . S
C192 C196 1.376 . S
C193 C191 1.394 . S
C193 C194 1.369 . S
C193 C197 1.531 . S
C194 C193 1.369 . S
C194 C195 1.410 . S
C194 C202 1.503 . S
C195 C194 1.410 . S
C195 C196 1.392 . S
C195 C198 1.511 . S
C196 C192 1.376 . S
C196 C195 1.392 . S
C196 H208 0.929 . S
C197 C193 1.531 . S
C197 H209 0.960 . S
C197 H210 0.962 . S
C197 H211 0.960 . S
C198 C195 1.511 . S
C198 H212 0.961 . S
C198 H213 0.961 . S
C198 H214 0.961 . S
C199 C200 1.370 . S
C199 C201 1.363 . S
C199 H215 0.931 . S
C200 C199 1.370 . S
C200 C204 1.408 . S
C201 C199 1.363 . S
C201 C202 1.370 . S
C201 C205 1.524 . S
C202 C194 1.503 . S
C202 C201 1.370 . S
C202 C203 1.403 . S
C203 C202 1.403 . S
C203 C204 1.404 . S
C203 C206 1.539 . S
C204 C200 1.408 . S
C204 C203 1.404 . S
C204 H216 0.930 . S
C205 C201 1.524 . S
C205 H217 0.956 . S
C205 H218 0.961 . S
C205 H219 0.961 . S
C206 C203 1.539 . S
C206 H220 0.958 . S
C206 H221 0.961 . S
C206 H222 0.960 . S
H207 C191 0.931 . S
H208 C196 0.929 . S
H209 C197 0.960 . S
H210 C197 0.962 . S
H211 C197 0.960 . S
H212 C198 0.961 . S
H213 C198 0.961 . S
H214 C198 0.961 . S
H215 C199 0.931 . S
H216 C204 0.930 . S
H217 C205 0.956 . S
H218 C205 0.961 . S
H219 C205 0.961 . S
H220 C206 0.958 . S
H221 C206 0.961 . S
H222 C206 0.960 . S
C223 C224 1.391 . S
C223 C225 1.394 . S
C223 H239 0.931 . S
C224 C223 1.391 . S
C224 C228 1.376 . S
C225 C223 1.394 . S
C225 C226 1.369 . S
C225 C229 1.531 . S
C226 C225 1.369 . S
C226 C227 1.410 . S
C226 C234 1.503 . S
C227 C226 1.410 . S
C227 C228 1.392 . S
C227 C230 1.511 . S
C228 C224 1.376 . S
C228 C227 1.392 . S
C228 H240 0.929 . S
C229 C225 1.531 . S
C229 H241 0.960 . S
C229 H242 0.962 . S
C229 H243 0.960 . S
C230 C227 1.511 . S
C230 H244 0.961 . S
C230 H245 0.961 . S
C230 H246 0.961 . S
C231 C232 1.370 . S
C231 C233 1.363 . S
C231 H247 0.931 . S
C232 C231 1.370 . S
C232 C236 1.408 . S
C233 C231 1.363 . S
C233 C234 1.370 . S
C233 C237 1.524 . S
C234 C226 1.503 . S
C234 C233 1.370 . S
C234 C235 1.403 . S
C235 C234 1.403 . S
C235 C236 1.404 . S
C235 C238 1.539 . S
C236 C232 1.408 . S
C236 C235 1.404 . S
C236 H248 0.930 . S
C237 C233 1.524 . S
C237 H249 0.956 . S
C237 H250 0.961 . S
C237 H251 0.961 . S
C238 C235 1.539 . S
C238 H252 0.958 . S
C238 H253 0.961 . S
C238 H254 0.960 . S
H239 C223 0.931 . S
H240 C228 0.929 . S
H241 C229 0.960 . S
H242 C229 0.962 . S
H243 C229 0.960 . S
H244 C230 0.961 . S
H245 C230 0.961 . S
H246 C230 0.961 . S
H247 C231 0.931 . S
H248 C236 0.930 . S
H249 C237 0.956 . S
H250 C237 0.961 . S
H251 C237 0.961 . S
H252 C238 0.958 . S
H253 C238 0.961 . S
H254 C238 0.960 . S
C255 C256 1.391 . S
C255 C257 1.394 . S
C255 H271 0.931 . S
C256 C255 1.391 . S
C256 C260 1.376 . S
C257 C255 1.394 . S
C257 C258 1.369 . S
C257 C261 1.531 . S
C258 C257 1.369 . S
C258 C259 1.410 . S
C258 C266 1.503 . S
C259 C258 1.410 . S
C259 C260 1.392 . S
C259 C262 1.511 . S
C260 C256 1.376 . S
C260 C259 1.392 . S
C260 H272 0.929 . S
C261 C257 1.531 . S
C261 H273 0.960 . S
C261 H274 0.962 . S
C261 H275 0.960 . S
C262 C259 1.511 . S
C262 H276 0.961 . S
C262 H277 0.961 . S
C262 H278 0.961 . S
C263 C264 1.370 . S
C263 C265 1.363 . S
C263 H279 0.931 . S
C264 C263 1.370 . S
C264 C268 1.408 . S
C265 C263 1.363 . S
C265 C266 1.370 . S
C265 C269 1.524 . S
C266 C258 1.503 . S
C266 C265 1.370 . S
C266 C267 1.403 . S
C267 C266 1.403 . S
C267 C268 1.404 . S
C267 C270 1.539 . S
C268 C264 1.408 . S
C268 C267 1.404 . S
C268 H280 0.930 . S
C269 C265 1.524 . S
C269 H281 0.956 . S
C269 H282 0.961 . S
C269 H283 0.961 . S
C270 C267 1.539 . S
C270 H284 0.958 . S
C270 H285 0.961 . S
C270 H286 0.960 . S
H271 C255 0.931 . S
H272 C260 0.929 . S
H273 C261 0.960 . S
H274 C261 0.962 . S
H275 C261 0.960 . S
H276 C262 0.961 . S
H277 C262 0.961 . S
H278 C262 0.961 . S
H279 C263 0.931 . S
H280 C268 0.930 . S
H281 C269 0.956 . S
H282 C269 0.961 . S
H283 C269 0.961 . S
H284 C270 0.958 . S
H285 C270 0.961 . S
H286 C270 0.960 . S
C287 C288 1.391 . S
C287 C289 1.394 . S
C287 H303 0.931 . S
C288 C287 1.391 . S
C288 C292 1.376 . S
C289 C287 1.394 . S
C289 C290 1.369 . S
C289 C293 1.531 . S
C290 C289 1.369 . S
C290 C291 1.410 . S
C290 C298 1.503 . S
C291 C290 1.410 . S
C291 C292 1.392 . S
C291 C294 1.511 . S
C292 C288 1.376 . S
C292 C291 1.392 . S
C292 H304 0.929 . S
C293 C289 1.531 . S
C293 H305 0.960 . S
C293 H306 0.962 . S
C293 H307 0.960 . S
C294 C291 1.511 . S
C294 H308 0.961 . S
C294 H309 0.961 . S
C294 H310 0.961 . S
C295 C296 1.370 . S
C295 C297 1.363 . S
C295 H311 0.931 . S
C296 C295 1.370 . S
C296 C300 1.408 . S
C297 C295 1.363 . S
C297 C298 1.370 . S
C297 C301 1.524 . S
C298 C290 1.503 . S
C298 C297 1.370 . S
C298 C299 1.403 . S
C299 C298 1.403 . S
C299 C300 1.404 . S
C299 C302 1.539 . S
C300 C296 1.408 . S
C300 C299 1.404 . S
C300 H312 0.930 . S
C301 C297 1.524 . S
C301 H313 0.956 . S
C301 H314 0.961 . S
C301 H315 0.961 . S
C302 C299 1.539 . S
C302 H316 0.958 . S
C302 H317 0.961 . S
C302 H318 0.960 . S
H303 C287 0.931 . S
H304 C292 0.929 . S
H305 C293 0.960 . S
H306 C293 0.962 . S
H307 C293 0.960 . S
H308 C294 0.961 . S
H309 C294 0.961 . S
H310 C294 0.961 . S
H311 C295 0.931 . S
H312 C300 0.930 . S
H313 C301 0.956 . S
H314 C301 0.961 . S
H315 C301 0.961 . S
H316 C302 0.958 . S
H317 C302 0.961 . S
H318 C302 0.960 . S
C64 C10 1.137 . S
C72 C54 1.189 . S
C96 C0 1.544 . S
C104 C58 1.514 . S
C128 C18 1.504 . S
C136 C48 1.507 . S
C160 C27 1.578 . S
C168 C53 1.593 . S
C192 C24 1.506 . S
C200 C39 1.521 . S
C232 C55 1.506 . S
C224 C11 1.508 . S
C256 C1 1.578 . S
C264 C61 1.593 . S
C296 C62 1.192 . S
C288 C2 1.147 . S
