# Generated by pormake.
# Topology iac, (4,6)-cn, num edge types: 1
# Building blocks:
#     Node 0, Type 0, BuildingBlock: QUQFOY_clean_sbu_3, # of connection points: 4
#     Node 1, Type 0, BuildingBlock: QUQFOY_clean_sbu_3, # of connection points: 4
#     Node 2, Type 0, BuildingBlock: QUQFOY_clean_sbu_3, # of connection points: 4
#     Node 3, Type 0, BuildingBlock: QUQFOY_clean_sbu_3, # of connection points: 4
#     Node 4, Type 0, BuildingBlock: QUQFOY_clean_sbu_3, # of connection points: 4
#     Node 5, Type 0, BuildingBlock: QUQFOY_clean_sbu_3, # of connection points: 4
#     Node 6, Type 0, BuildingBlock: QUQFOY_clean_sbu_3, # of connection points: 4
#     Node 7, Type 0, BuildingBlock: QUQFOY_clean_sbu_3, # of connection points: 4
#     Node 8, Type 0, BuildingBlock: QUQFOY_clean_sbu_3, # of connection points: 4
#     Node 9, Type 0, BuildingBlock: QUQFOY_clean_sbu_3, # of connection points: 4
#     Node 10, Type 0, BuildingBlock: QUQFOY_clean_sbu_3, # of connection points: 4
#     Node 11, Type 0, BuildingBlock: QUQFOY_clean_sbu_3, # of connection points: 4
#     Node 12, Type 0, BuildingBlock: QUQFOY_clean_sbu_3, # of connection points: 4
#     Node 13, Type 0, BuildingBlock: QUQFOY_clean_sbu_3, # of connection points: 4
#     Node 14, Type 0, BuildingBlock: QUQFOY_clean_sbu_3, # of connection points: 4
#     Node 15, Type 0, BuildingBlock: QUQFOY_clean_sbu_3, # of connection points: 4
#     Node 16, Type 0, BuildingBlock: QUQFOY_clean_sbu_3, # of connection points: 4
#     Node 17, Type 0, BuildingBlock: QUQFOY_clean_sbu_3, # of connection points: 4
#     Node 18, Type 0, BuildingBlock: QUQFOY_clean_sbu_3, # of connection points: 4
#     Node 19, Type 0, BuildingBlock: QUQFOY_clean_sbu_3, # of connection points: 4
#     Node 20, Type 0, BuildingBlock: QUQFOY_clean_sbu_3, # of connection points: 4
#     Node 21, Type 0, BuildingBlock: QUQFOY_clean_sbu_3, # of connection points: 4
#     Node 22, Type 0, BuildingBlock: QUQFOY_clean_sbu_3, # of connection points: 4
#     Node 23, Type 0, BuildingBlock: QUQFOY_clean_sbu_3, # of connection points: 4
#     Node 24, Type 1, BuildingBlock: CIFDUS_clean_sbu_1, # of connection points: 6
#     Node 25, Type 1, BuildingBlock: CIFDUS_clean_sbu_1, # of connection points: 6
#     Node 26, Type 1, BuildingBlock: CIFDUS_clean_sbu_1, # of connection points: 6
#     Node 27, Type 1, BuildingBlock: CIFDUS_clean_sbu_1, # of connection points: 6
#     Node 28, Type 1, BuildingBlock: CIFDUS_clean_sbu_1, # of connection points: 6
#     Node 29, Type 1, BuildingBlock: CIFDUS_clean_sbu_1, # of connection points: 6
#     Node 30, Type 1, BuildingBlock: CIFDUS_clean_sbu_1, # of connection points: 6
#     Node 31, Type 1, BuildingBlock: CIFDUS_clean_sbu_1, # of connection points: 6
#     Node 32, Type 1, BuildingBlock: CIFDUS_clean_sbu_1, # of connection points: 6
#     Node 33, Type 1, BuildingBlock: CIFDUS_clean_sbu_1, # of connection points: 6
#     Node 34, Type 1, BuildingBlock: CIFDUS_clean_sbu_1, # of connection points: 6
#     Node 35, Type 1, BuildingBlock: CIFDUS_clean_sbu_1, # of connection points: 6
#     Node 36, Type 1, BuildingBlock: CIFDUS_clean_sbu_1, # of connection points: 6
#     Node 37, Type 1, BuildingBlock: CIFDUS_clean_sbu_1, # of connection points: 6
#     Node 38, Type 1, BuildingBlock: CIFDUS_clean_sbu_1, # of connection points: 6
#     Node 39, Type 1, BuildingBlock: CIFDUS_clean_sbu_1, # of connection points: 6
#     Edge 40, Type (0, 1), BuildingBlock: UVAHIK_clean_linker_0, # of connection points: 2
#     Edge 41, Type (0, 1), BuildingBlock: UVAHIK_clean_linker_0, # of connection points: 2
#     Edge 42, Type (0, 1), BuildingBlock: UVAHIK_clean_linker_0, # of connection points: 2
#     Edge 43, Type (0, 1), BuildingBlock: UVAHIK_clean_linker_0, # of connection points: 2
#     Edge 44, Type (0, 1), BuildingBlock: UVAHIK_clean_linker_0, # of connection points: 2
#     Edge 45, Type (0, 1), BuildingBlock: UVAHIK_clean_linker_0, # of connection points: 2
#     Edge 46, Type (0, 1), BuildingBlock: UVAHIK_clean_linker_0, # of connection points: 2
#     Edge 47, Type (0, 1), BuildingBlock: UVAHIK_clean_linker_0, # of connection points: 2
#     Edge 48, Type (0, 1), BuildingBlock: UVAHIK_clean_linker_0, # of connection points: 2
#     Edge 49, Type (0, 1), BuildingBlock: UVAHIK_clean_linker_0, # of connection points: 2
#     Edge 50, Type (0, 1), BuildingBlock: UVAHIK_clean_linker_0, # of connection points: 2
#     Edge 51, Type (0, 1), BuildingBlock: UVAHIK_clean_linker_0, # of connection points: 2
#     Edge 52, Type (0, 1), BuildingBlock: UVAHIK_clean_linker_0, # of connection points: 2
#     Edge 53, Type (0, 1), BuildingBlock: UVAHIK_clean_linker_0, # of connection points: 2
#     Edge 54, Type (0, 1), BuildingBlock: UVAHIK_clean_linker_0, # of connection points: 2
#     Edge 55, Type (0, 1), BuildingBlock: UVAHIK_clean_linker_0, # of connection points: 2
#     Edge 56, Type (0, 1), BuildingBlock: UVAHIK_clean_linker_0, # of connection points: 2
#     Edge 57, Type (0, 1), BuildingBlock: UVAHIK_clean_linker_0, # of connection points: 2
#     Edge 58, Type (0, 1), BuildingBlock: UVAHIK_clean_linker_0, # of connection points: 2
#     Edge 59, Type (0, 1), BuildingBlock: UVAHIK_clean_linker_0, # of connection points: 2
#     Edge 60, Type (0, 1), BuildingBlock: UVAHIK_clean_linker_0, # of connection points: 2
#     Edge 61, Type (0, 1), BuildingBlock: UVAHIK_clean_linker_0, # of connection points: 2
#     Edge 62, Type (0, 1), BuildingBlock: UVAHIK_clean_linker_0, # of connection points: 2
#     Edge 63, Type (0, 1), BuildingBlock: UVAHIK_clean_linker_0, # of connection points: 2
#     Edge 64, Type (0, 1), BuildingBlock: UVAHIK_clean_linker_0, # of connection points: 2
#     Edge 65, Type (0, 1), BuildingBlock: UVAHIK_clean_linker_0, # of connection points: 2
#     Edge 66, Type (0, 1), BuildingBlock: UVAHIK_clean_linker_0, # of connection points: 2
#     Edge 67, Type (0, 1), BuildingBlock: UVAHIK_clean_linker_0, # of connection points: 2
#     Edge 68, Type (0, 1), BuildingBlock: UVAHIK_clean_linker_0, # of connection points: 2
#     Edge 69, Type (0, 1), BuildingBlock: UVAHIK_clean_linker_0, # of connection points: 2
#     Edge 70, Type (0, 1), BuildingBlock: UVAHIK_clean_linker_0, # of connection points: 2
#     Edge 71, Type (0, 1), BuildingBlock: UVAHIK_clean_linker_0, # of connection points: 2
#     Edge 72, Type (0, 1), BuildingBlock: UVAHIK_clean_linker_0, # of connection points: 2
#     Edge 73, Type (0, 1), BuildingBlock: UVAHIK_clean_linker_0, # of connection points: 2
#     Edge 74, Type (0, 1), BuildingBlock: UVAHIK_clean_linker_0, # of connection points: 2
#     Edge 75, Type (0, 1), BuildingBlock: UVAHIK_clean_linker_0, # of connection points: 2
#     Edge 76, Type (0, 1), BuildingBlock: UVAHIK_clean_linker_0, # of connection points: 2
#     Edge 77, Type (0, 1), BuildingBlock: UVAHIK_clean_linker_0, # of connection points: 2
#     Edge 78, Type (0, 1), BuildingBlock: UVAHIK_clean_linker_0, # of connection points: 2
#     Edge 79, Type (0, 1), BuildingBlock: UVAHIK_clean_linker_0, # of connection points: 2
#     Edge 80, Type (0, 1), BuildingBlock: UVAHIK_clean_linker_0, # of connection points: 2
#     Edge 81, Type (0, 1), BuildingBlock: UVAHIK_clean_linker_0, # of connection points: 2
#     Edge 82, Type (0, 1), BuildingBlock: UVAHIK_clean_linker_0, # of connection points: 2
#     Edge 83, Type (0, 1), BuildingBlock: UVAHIK_clean_linker_0, # of connection points: 2
#     Edge 84, Type (0, 1), BuildingBlock: UVAHIK_clean_linker_0, # of connection points: 2
#     Edge 85, Type (0, 1), BuildingBlock: UVAHIK_clean_linker_0, # of connection points: 2
#     Edge 86, Type (0, 1), BuildingBlock: UVAHIK_clean_linker_0, # of connection points: 2
#     Edge 87, Type (0, 1), BuildingBlock: UVAHIK_clean_linker_0, # of connection points: 2
#     Edge 88, Type (0, 1), BuildingBlock: UVAHIK_clean_linker_0, # of connection points: 2
#     Edge 89, Type (0, 1), BuildingBlock: UVAHIK_clean_linker_0, # of connection points: 2
#     Edge 90, Type (0, 1), BuildingBlock: UVAHIK_clean_linker_0, # of connection points: 2
#     Edge 91, Type (0, 1), BuildingBlock: UVAHIK_clean_linker_0, # of connection points: 2
#     Edge 92, Type (0, 1), BuildingBlock: UVAHIK_clean_linker_0, # of connection points: 2
#     Edge 93, Type (0, 1), BuildingBlock: UVAHIK_clean_linker_0, # of connection points: 2
#     Edge 94, Type (0, 1), BuildingBlock: UVAHIK_clean_linker_0, # of connection points: 2
#     Edge 95, Type (0, 1), BuildingBlock: UVAHIK_clean_linker_0, # of connection points: 2
#     Edge 96, Type (0, 1), BuildingBlock: UVAHIK_clean_linker_0, # of connection points: 2
#     Edge 97, Type (0, 1), BuildingBlock: UVAHIK_clean_linker_0, # of connection points: 2
#     Edge 98, Type (0, 1), BuildingBlock: UVAHIK_clean_linker_0, # of connection points: 2
#     Edge 99, Type (0, 1), BuildingBlock: UVAHIK_clean_linker_0, # of connection points: 2
#     Edge 100, Type (0, 1), BuildingBlock: UVAHIK_clean_linker_0, # of connection points: 2
#     Edge 101, Type (0, 1), BuildingBlock: UVAHIK_clean_linker_0, # of connection points: 2
#     Edge 102, Type (0, 1), BuildingBlock: UVAHIK_clean_linker_0, # of connection points: 2
#     Edge 103, Type (0, 1), BuildingBlock: UVAHIK_clean_linker_0, # of connection points: 2
#     Edge 104, Type (0, 1), BuildingBlock: UVAHIK_clean_linker_0, # of connection points: 2
#     Edge 105, Type (0, 1), BuildingBlock: UVAHIK_clean_linker_0, # of connection points: 2
#     Edge 106, Type (0, 1), BuildingBlock: UVAHIK_clean_linker_0, # of connection points: 2
#     Edge 107, Type (0, 1), BuildingBlock: UVAHIK_clean_linker_0, # of connection points: 2
#     Edge 108, Type (0, 1), BuildingBlock: UVAHIK_clean_linker_0, # of connection points: 2
#     Edge 109, Type (0, 1), BuildingBlock: UVAHIK_clean_linker_0, # of connection points: 2
#     Edge 110, Type (0, 1), BuildingBlock: UVAHIK_clean_linker_0, # of connection points: 2
#     Edge 111, Type (0, 1), BuildingBlock: UVAHIK_clean_linker_0, # of connection points: 2
#     Edge 112, Type (0, 1), BuildingBlock: UVAHIK_clean_linker_0, # of connection points: 2
#     Edge 113, Type (0, 1), BuildingBlock: UVAHIK_clean_linker_0, # of connection points: 2
#     Edge 114, Type (0, 1), BuildingBlock: UVAHIK_clean_linker_0, # of connection points: 2
#     Edge 115, Type (0, 1), BuildingBlock: UVAHIK_clean_linker_0, # of connection points: 2
#     Edge 116, Type (0, 1), BuildingBlock: UVAHIK_clean_linker_0, # of connection points: 2
#     Edge 117, Type (0, 1), BuildingBlock: UVAHIK_clean_linker_0, # of connection points: 2
#     Edge 118, Type (0, 1), BuildingBlock: UVAHIK_clean_linker_0, # of connection points: 2
#     Edge 119, Type (0, 1), BuildingBlock: UVAHIK_clean_linker_0, # of connection points: 2
#     Edge 120, Type (0, 1), BuildingBlock: UVAHIK_clean_linker_0, # of connection points: 2
#     Edge 121, Type (0, 1), BuildingBlock: UVAHIK_clean_linker_0, # of connection points: 2
#     Edge 122, Type (0, 1), BuildingBlock: UVAHIK_clean_linker_0, # of connection points: 2
#     Edge 123, Type (0, 1), BuildingBlock: UVAHIK_clean_linker_0, # of connection points: 2
#     Edge 124, Type (0, 1), BuildingBlock: UVAHIK_clean_linker_0, # of connection points: 2
#     Edge 125, Type (0, 1), BuildingBlock: UVAHIK_clean_linker_0, # of connection points: 2
#     Edge 126, Type (0, 1), BuildingBlock: UVAHIK_clean_linker_0, # of connection points: 2
#     Edge 127, Type (0, 1), BuildingBlock: UVAHIK_clean_linker_0, # of connection points: 2
#     Edge 128, Type (0, 1), BuildingBlock: UVAHIK_clean_linker_0, # of connection points: 2
#     Edge 129, Type (0, 1), BuildingBlock: UVAHIK_clean_linker_0, # of connection points: 2
#     Edge 130, Type (0, 1), BuildingBlock: UVAHIK_clean_linker_0, # of connection points: 2
#     Edge 131, Type (0, 1), BuildingBlock: UVAHIK_clean_linker_0, # of connection points: 2
#     Edge 132, Type (0, 1), BuildingBlock: UVAHIK_clean_linker_0, # of connection points: 2
#     Edge 133, Type (0, 1), BuildingBlock: UVAHIK_clean_linker_0, # of connection points: 2
#     Edge 134, Type (0, 1), BuildingBlock: UVAHIK_clean_linker_0, # of connection points: 2
#     Edge 135, Type (0, 1), BuildingBlock: UVAHIK_clean_linker_0, # of connection points: 2
# Relax obj value: 0.093
# Max RMSD: 0.172
# Mean RMSD: 0.088
data_MOF--net-iac--node1-QUQFOY_clean_sbu_3--node2-CIFDUS_clean_sbu_1--edge1-UVAHIK_clean_linker_0
_symmetry_space_group_name_H-M    P1
_symmetry_Int_Tables_number       1
_symmetry_cell_setting            triclinic
loop_
_symmetry_equiv_pos_as_xyz
'x, y, z'
_cell_length_a     69.418043
_cell_length_b     70.407647
_cell_length_c     70.010916
_cell_angle_alpha  90.857655
_cell_angle_beta   89.859285
_cell_angle_gamma 90.445528
loop_
_atom_site_label
_atom_site_type_symbol
_atom_site_fract_x
_atom_site_fract_y
_atom_site_fract_z
_atom_type_partial_charge
C0 C 0.96566 0.24552 0.15172 0.0
O1 O 0.97543 0.23538 0.16292 0.0
Cd2 Cd 0.00896 0.22859 0.15918 0.0
O3 O 0.97357 0.25305 0.13721 0.0
Cd4 Cd 0.00595 0.25529 0.12225 0.0
C5 C 0.01031 0.20783 0.11415 0.0
O6 O 0.02429 0.2578 0.15165 0.0
O7 O 0.04108 0.25257 0.12624 0.0
O8 O 0.00128 0.28912 0.11921 0.0
C9 C 0.04073 0.25555 0.14416 0.0
O10 O 0.01266 0.20678 0.13214 0.0
C11 C 0.00194 0.28959 0.10113 0.0
O12 O 0.00605 0.22359 0.10646 0.0
O13 O 0.00475 0.27387 0.09241 0.0
C14 C 0.95115 0.75375 0.34962 0.0
O15 O 0.95912 0.75892 0.33417 0.0
Cd16 Cd 0.99268 0.76796 0.33355 0.0
O17 O 0.96119 0.7505 0.36434 0.0
Cd18 Cd 0.9947 0.74827 0.37475 0.0
C19 C 0.99277 0.79597 0.37455 0.0
O20 O 0.01166 0.7422 0.34464 0.0
O21 O 0.02877 0.75132 0.36894 0.0
O22 O 0.98577 0.71667 0.38382 0.0
C23 C 0.02817 0.74612 0.35152 0.0
O24 O 0.99392 0.79463 0.35641 0.0
C25 C 0.99174 0.71796 0.40092 0.0
O26 O 0.99209 0.78119 0.38483 0.0
O27 O -0.00054 0.73365 0.40613 0.0
C28 C 0.45902 0.75884 0.65324 0.0
O29 O 0.46861 0.7489 0.6648 0.0
Cd30 Cd 0.50135 0.73913 0.66014 0.0
O31 O 0.46661 0.76454 0.63773 0.0
Cd32 Cd 0.49809 0.76393 0.62092 0.0
C33 C 0.50004 0.71559 0.61633 0.0
O34 O 0.51696 0.76727 0.64985 0.0
O35 O 0.53346 0.76333 0.6241 0.0
O36 O 0.49094 0.7969 0.61442 0.0
C37 C 0.53335 0.76556 0.6421 0.0
O38 O 0.50265 0.71544 0.63434 0.0
C39 C 0.49345 0.79582 0.59649 0.0
O40 O 0.49664 0.73111 0.60779 0.0
O41 O 0.49828 0.77971 0.58964 0.0
C42 C 0.45937 0.25773 0.84256 0.0
O43 O 0.46561 0.2638 0.8267 0.0
Cd44 Cd 0.49823 0.27467 0.82307 0.0
O45 O 0.47082 0.25497 0.85637 0.0
Cd46 Cd 0.50547 0.2552 0.8637 0.0
C47 C 0.50084 0.30276 0.86396 0.0
O48 O 0.51863 0.2492 0.832 0.0
O49 O 0.5386 0.26021 0.85313 0.0
O50 O 0.49885 0.22332 0.87391 0.0
C51 C 0.53574 0.25408 0.83623 0.0
O52 O 0.50047 0.3015 0.84578 0.0
C53 C 0.50652 0.22501 0.89028 0.0
O54 O 0.50179 0.28795 0.87416 0.0
O55 O 0.51436 0.24094 0.89444 0.0
C56 C 0.09695 0.00071 0.29111 0.0
O57 O 0.08493 0.00933 0.28076 0.0
Cd58 Cd 0.0898 0.01564 0.24752 0.0
O59 O 0.11238 0.994 0.28393 0.0
Cd60 Cd 0.12862 0.98983 0.25267 0.0
C61 C 0.13469 0.03771 0.24824 0.0
O62 O 0.09936 0.98598 0.23408 0.0
O63 O 0.12559 0.98751 0.21773 0.0
O64 O 0.13277 0.95778 0.26401 0.0
C65 C 0.10737 0.98595 0.21782 0.0
O66 O 0.11653 0.0383 0.24574 0.0
C67 C 0.15076 0.95682 0.26098 0.0
O68 O 0.14301 0.02207 0.25194 0.0
O69 O 0.1588 0.9714 0.25383 0.0
C70 C 0.28936 0.90774 0.48181 0.0
O71 O 0.27986 0.92097 0.4742 0.0
Cd72 Cd 0.24565 0.92326 0.47229 0.0
O73 O 0.28088 0.894 0.49004 0.0
Cd74 Cd 0.24687 0.88388 0.49479 0.0
C75 C 0.24335 0.88212 0.44628 0.0
O76 O 0.23213 0.91436 0.50225 0.0
O77 O 0.2126 0.89185 0.49373 0.0
O78 O 0.25533 0.87245 0.52635 0.0
C79 C 0.2149 0.90873 0.49994 0.0
O80 O 0.24005 0.89989 0.44683 0.0
C81 C 0.24822 0.8559 0.52394 0.0
O82 O 0.24729 0.87316 0.46146 0.0
O83 O 0.24055 0.85225 0.50782 0.0
C84 C 0.41247 0.98206 0.79208 0.0
O85 O 0.42442 0.97362 0.78118 0.0
Cd86 Cd 0.42331 0.9737 0.74679 0.0
O87 O 0.39897 0.99195 0.78523 0.0
Cd88 Cd 0.38632 0.00051 0.75398 0.0
C89 C 0.37847 0.95363 0.7449 0.0
O90 O 0.41617 0.00488 0.73572 0.0
O91 O 0.38941 0.00337 0.72006 0.0
O92 O 0.37979 0.03194 0.76696 0.0
C93 C 0.40752 0.00574 0.71979 0.0
O94 O 0.39633 0.95223 0.74098 0.0
C95 C 0.36239 0.0323 0.76141 0.0
O96 O 0.3714 0.96924 0.751 0.0
O97 O 0.35592 0.01758 0.7528 0.0
C98 C 0.27892 0.08439 0.99297 0.0
O99 O 0.26681 0.07461 0.00232 0.0
Cd100 Cd 0.23659 0.08781 0.01229 0.0
O101 O 0.27497 0.10132 0.9883 0.0
Cd102 Cd 0.24817 0.12428 0.99063 0.0
C103 C 0.25163 0.12652 0.03877 0.0
O104 O 0.22217 0.10165 0.98445 0.0
O105 O 0.21322 0.12959 0.99381 0.0
O106 O 0.25783 0.13095 0.95821 0.0
C107 C 0.20858 0.11329 0.98733 0.0
O108 O 0.24391 0.11006 0.03862 0.0
C109 C 0.25861 0.14886 0.96023 0.0
O110 O 0.25564 0.13476 0.02317 0.0
O111 O 0.25438 0.15564 0.97663 0.0
C112 C 0.78885 0.40236 0.98575 0.0
O113 O 0.7788 0.4144 0.97693 0.0
Cd114 Cd 0.74441 0.41633 0.97651 0.0
O115 O 0.78094 0.38958 -0.00415 0.0
Cd116 Cd 0.74757 0.3791 0.00286 0.0
C117 C 0.73922 0.37308 0.9551 0.0
O118 O 0.73303 0.41012 0.00816 0.0
O119 O 0.71334 0.38637 0.00593 0.0
O120 O 0.75682 0.36816 0.0345 0.0
C121 C 0.71581 0.40404 0.00885 0.0
O122 O 0.73705 0.39094 0.95364 0.0
C123 C 0.7512 0.35113 0.03159 0.0
O124 O 0.74384 0.36577 0.97094 0.0
O125 O 0.7439 0.34725 0.01537 0.0
C126 C 0.90923 0.48368 0.29883 0.0
O127 O 0.92144 0.47426 0.28913 0.0
Cd128 Cd 0.923 0.47401 0.25483 0.0
O129 O 0.89715 0.4943 0.29067 0.0
Cd130 Cd 0.88853 0.50231 0.25784 0.0
C131 C 0.87755 0.45639 0.24956 0.0
O132 O 0.91984 0.50516 0.24174 0.0
O133 O 0.89464 0.50082 0.22407 0.0
O134 O 0.88282 0.53481 0.26831 0.0
C135 C 0.91252 0.5044 0.22513 0.0
O136 O 0.89548 0.45392 0.24663 0.0
C137 C 0.86611 0.53575 0.26105 0.0
O138 O 0.87119 0.47241 0.25528 0.0
O139 O 0.85969 0.52095 0.25256 0.0
C140 C 0.77232 0.58431 0.49636 0.0
O141 O 0.75918 0.57527 0.50514 0.0
Cd142 Cd 0.72951 0.59012 0.51472 0.0
O143 O 0.76988 0.60158 0.49189 0.0
Cd144 Cd 0.74591 0.62731 0.4933 0.0
C145 C 0.74778 0.62737 0.54195 0.0
O146 O 0.71827 0.60659 0.48728 0.0
O147 O 0.71158 0.63602 0.49279 0.0
O148 O 0.76007 0.63176 0.46202 0.0
C149 C 0.70558 0.61936 0.48888 0.0
O150 O 0.73858 0.61166 0.54085 0.0
C151 C 0.76057 0.64976 0.46277 0.0
O152 O 0.75309 0.63594 0.52687 0.0
O153 O 0.75431 0.65766 0.478 0.0
C154 C 0.59579 0.49813 0.78759 0.0
O155 O 0.58359 0.50745 0.7781 0.0
Cd156 Cd 0.58718 0.51461 0.74477 0.0
O157 O 0.61075 0.49144 0.77948 0.0
Cd158 Cd 0.62557 0.48862 0.74745 0.0
C159 C 0.6321 0.53644 0.74351 0.0
O160 O 0.59556 0.48546 0.72942 0.0
O161 O 0.62172 0.48773 0.7129 0.0
O162 O 0.62977 0.45613 0.75744 0.0
C163 C 0.60353 0.48604 0.71312 0.0
O164 O 0.61387 0.53709 0.74158 0.0
C165 C 0.64749 0.45498 0.75318 0.0
O166 O 0.64043 0.52078 0.74714 0.0
O167 O 0.65536 0.46968 0.74613 0.0
C168 C 0.98236 0.7566 0.84163 0.0
O169 O 0.99479 0.76646 0.83278 0.0
Cd170 Cd 0.02573 0.77291 0.84612 0.0
O171 O 0.98657 0.74898 0.85751 0.0
Cd172 Cd 0.01465 0.74561 0.8794 0.0
C173 C 0.0113 0.79268 0.88918 0.0
O174 O 0.03813 0.74224 0.85392 0.0
O175 O 0.05012 0.74614 0.8821 0.0
O176 O 0.00381 0.71277 0.88158 0.0
C177 C 0.05278 0.74188 0.86464 0.0
O178 O 0.01845 0.7948 0.87258 0.0
C179 C 0.00705 0.71113 0.8993 0.0
O180 O 0.00791 0.77611 0.8955 0.0
O181 O 0.01296 0.72593 0.90817 0.0
C182 C 0.99006 0.24674 0.68535 0.0
O183 O 0.00461 0.23857 0.69239 0.0
Cd184 Cd 0.03344 0.23179 0.67464 0.0
O185 O 0.99068 0.25328 0.66847 0.0
Cd186 Cd 0.01336 0.25672 0.64129 0.0
C187 C 0.01243 0.2089 0.63594 0.0
O188 O 0.04336 0.25965 0.65834 0.0
O189 O 0.04591 0.2535 0.62817 0.0
O190 O 0.00732 0.2902 0.63726 0.0
C191 C 0.05422 0.25684 0.64398 0.0
O192 O 0.02284 0.20823 0.65089 0.0
C193 C 0.00106 0.2887 0.62028 0.0
O194 O 0.00623 0.22467 0.6298 0.0
O195 O -0.00023 0.27204 0.61312 0.0
C196 C 0.48603 0.26329 0.34031 0.0
O197 O 0.49979 0.27253 0.33279 0.0
Cd198 Cd 0.52911 0.27889 0.34911 0.0
O199 O 0.488 0.25587 0.35673 0.0
Cd200 Cd 0.5139 0.25225 0.38138 0.0
C201 C 0.51038 0.29941 0.39024 0.0
O202 O 0.53989 0.24832 0.35872 0.0
O203 O 0.54908 0.25382 0.38767 0.0
O204 O 0.50485 0.21884 0.38282 0.0
C205 C 0.55344 0.24868 0.37077 0.0
O206 O 0.51934 0.30108 0.37445 0.0
C207 C 0.5049 0.2178 0.4009 0.0
O208 O 0.50593 0.28303 0.39645 0.0
O209 O 0.50808 0.23317 0.41016 0.0
C210 C 0.48591 0.75459 0.1714 0.0
O211 O 0.49968 0.7475 0.18079 0.0
Cd212 Cd 0.53041 0.74049 0.16641 0.0
O213 O 0.48847 0.7599 0.15425 0.0
Cd214 Cd 0.51304 0.76316 0.12892 0.0
C215 C 0.51286 0.71503 0.12724 0.0
O216 O 0.54082 0.76743 0.14891 0.0
O217 O 0.54683 0.76154 0.11921 0.0
O218 O 0.50225 0.7954 0.12521 0.0
C219 C 0.55328 0.76464 0.1359 0.0
O220 O 0.52183 0.71566 0.14312 0.0
C221 C 0.50029 0.79449 0.10718 0.0
O222 O 0.50718 0.73018 0.11926 0.0
O223 O 0.50388 0.77863 0.09904 0.0
C224 C 0.91331 0.98735 0.7701 0.0
O225 O 0.92171 0.9759 0.75873 0.0
Cd226 Cd 0.90686 0.96648 0.72941 0.0
O227 O 0.89711 0.99449 0.76578 0.0
Cd228 Cd 0.87347 0.99418 0.73919 0.0
C229 C 0.8648 0.94782 0.74783 0.0
O230 O 0.89723 0.9951 0.71371 0.0
O231 O 0.86799 0.98903 0.7049 0.0
O232 O 0.87286 0.02802 0.7462 0.0
C233 C 0.88507 0.99353 0.70028 0.0
O234 O 0.88131 0.94534 0.74029 0.0
C235 C 0.85486 0.03003 0.74414 0.0
O236 O 0.85789 0.96446 0.74975 0.0
O237 O 0.84507 0.01503 0.74071 0.0
C238 C 0.76203 0.08025 0.49019 0.0
O239 O 0.7474 0.07216 0.49746 0.0
Cd240 Cd 0.71832 0.0891 0.50525 0.0
O241 O 0.76132 0.09763 0.48546 0.0
Cd242 Cd 0.73802 0.12402 0.48485 0.0
C243 C 0.73738 0.12513 0.53293 0.0
O244 O 0.70787 0.10704 0.47826 0.0
O245 O 0.70556 0.13587 0.4889 0.0
O246 O 0.74871 0.1326 0.453 0.0
C247 C 0.6972 0.12111 0.48239 0.0
O248 O 0.72669 0.11034 0.5321 0.0
C249 C 0.75187 0.14998 0.45714 0.0
O250 O 0.74449 0.13221 0.51783 0.0
O251 O 0.74906 0.15517 0.47437 0.0
C252 C 0.5734 -0.00014 0.26014 0.0
O253 O 0.56441 0.00745 0.24647 0.0
Cd254 Cd 0.58092 0.01401 0.21674 0.0
O255 O 0.59083 0.9948 0.25804 0.0
Cd256 Cd 0.61812 0.99232 0.2362 0.0
C257 C 0.61895 0.0402 0.23575 0.0
O258 O 0.59965 0.98692 0.20775 0.0
O259 O 0.62993 0.99237 0.20337 0.0
O260 O 0.62087 0.96137 0.24965 0.0
C261 C 0.61349 0.98921 0.1961 0.0
O262 O 0.60377 0.03928 0.22553 0.0
C263 C 0.63896 0.96208 0.25214 0.0
O264 O 0.62651 0.02532 0.24258 0.0
O265 O 0.64769 0.97721 0.24728 0.0
C266 C 0.77489 0.9029 0.00361 0.0
O267 O 0.7652 0.91471 0.99411 0.0
Cd268 Cd 0.73099 0.9123 0.98883 0.0
O269 O 0.76655 0.88874 0.0113 0.0
Cd270 Cd 0.7333 0.8756 0.01382 0.0
C271 C 0.72882 0.86928 0.96562 0.0
O272 O 0.71564 0.90546 0.01864 0.0
O273 O 0.69856 0.87993 0.01458 0.0
O274 O 0.74037 0.87 0.04705 0.0
C275 C 0.69915 0.89754 0.01854 0.0
O276 O 0.72629 0.88715 0.96512 0.0
C277 C 0.73579 0.85253 0.04697 0.0
O278 O 0.73293 0.86122 0.98129 0.0
O279 O 0.73067 0.84524 0.03102 0.0
C280 C 0.268 0.58771 0.99076 0.0
O281 O 0.25412 0.57805 -0.00245 0.0
Cd282 Cd 0.22319 0.59122 0.00532 0.0
O283 O 0.26597 0.60528 0.98714 0.0
Cd284 Cd 0.24199 0.63121 0.98794 0.0
C285 C 0.2387 0.6272 0.03618 0.0
O286 O 0.2147 0.6115 0.97988 0.0
O287 O 0.20798 0.64019 0.98837 0.0
O288 O 0.25519 0.63903 0.95705 0.0
C289 C 0.20192 0.62391 0.98318 0.0
O290 O 0.22979 0.61157 0.03301 0.0
C291 C 0.25576 0.65688 0.95978 0.0
O292 O 0.24575 0.63685 0.02248 0.0
O293 O 0.25049 0.66305 0.97613 0.0
C294 C 0.08206 0.49605 0.76814 0.0
O295 O 0.07182 0.50203 0.7545 0.0
Cd296 Cd 0.085 0.50733 0.72303 0.0
O297 O 0.09971 0.492 0.76547 0.0
Cd298 Cd 0.12546 0.49023 0.74151 0.0
C299 C 0.12228 0.53783 0.73587 0.0
O300 O 0.10513 0.48095 0.71537 0.0
O301 O 0.13448 0.48749 0.70779 0.0
O302 O 0.13326 0.46083 0.7566 0.0
C303 C 0.11768 0.48286 0.70233 0.0
O304 O 0.10631 0.53486 0.72733 0.0
C305 C 0.15127 0.46395 0.75764 0.0
O306 O 0.13155 0.52427 0.74338 0.0
O307 O 0.15748 0.4797 0.75134 0.0
C308 C 0.27184 0.40819 0.5045 0.0
O309 O 0.26107 0.41906 0.49502 0.0
Cd310 Cd 0.22805 0.41142 0.4878 0.0
O311 O 0.26497 0.39305 0.51166 0.0
Cd312 Cd 0.2331 0.37692 0.51398 0.0
C313 C 0.23278 0.36758 0.46649 0.0
O314 O 0.21112 0.40416 0.51681 0.0
O315 O 0.1983 0.37659 0.51113 0.0
O316 O 0.23954 0.37358 0.54769 0.0
C317 C 0.19598 0.39399 0.51532 0.0
O318 O 0.22859 0.38505 0.46478 0.0
C319 C 0.23673 0.35577 0.54821 0.0
O320 O 0.23629 0.36077 0.48288 0.0
O321 O 0.23269 0.34743 0.53248 0.0
C322 C 0.41 0.49541 0.26607 0.0
O323 O 0.42041 0.486 0.25446 0.0
Cd324 Cd 0.40837 0.47649 0.22376 0.0
O325 O 0.39335 0.50097 0.26107 0.0
Cd326 Cd 0.37219 0.50048 0.23254 0.0
C327 C 0.36696 0.45301 0.23748 0.0
O328 O 0.39685 0.50426 0.20803 0.0
O329 O 0.36856 0.49571 0.1981 0.0
O330 O 0.36929 0.53428 0.2377 0.0
C331 C 0.38529 0.50191 0.19417 0.0
O332 O 0.38402 0.45245 0.23077 0.0
C333 C 0.35109 0.53501 0.23669 0.0
O334 O 0.3587 0.46891 0.24043 0.0
O335 O 0.34213 0.51925 0.23491 0.0
O336 O 0.01474 0.02108 0.99201 0.0
Mn337 Mn 0.99334 0.00183 0.00093 0.0
O338 O 0.04015 0.00363 0.98265 0.0
Mn339 Mn 0.03329 0.98267 -0.00328 0.0
O340 O 0.9717 0.98274 0.00974 0.0
O341 O 0.97774 0.02407 0.0094 0.0
Mn342 Mn 0.95318 0.02102 0.00401 0.0
O343 O 0.98098 0.00299 0.97402 0.0
O344 O 0.94591 0.0002 0.01815 0.0
O345 O 0.00617 0.00068 0.02785 0.0
O346 O 0.03472 0.98611 0.02302 0.0
O347 O 0.95609 0.04538 0.01421 0.0
O348 O 0.95221 0.0173 0.97763 0.0
C349 C 0.01256 0.96299 0.98502 0.0
C350 C 0.03131 0.01939 0.98393 0.0
C351 C 0.95476 0.9844 0.01711 0.0
C352 C 0.97416 0.04112 0.01507 0.0
C353 C 0.96514 0.00936 0.9673 0.0
C354 C 0.02235 0.99426 0.03388 0.0
O355 O 0.00868 0.97947 0.99212 0.0
O356 O 0.03066 0.95882 0.98541 0.0
O357 O 0.27849 0.74751 0.2366 0.0
Mn358 Mn 0.25051 0.74777 0.24736 0.0
O359 O 0.27704 0.76151 0.20785 0.0
Mn360 Mn 0.25072 0.76625 0.20723 0.0
O361 O 0.22253 0.74809 0.25808 0.0
O362 O 0.25655 0.72569 0.26366 0.0
Mn363 Mn 0.25013 0.72962 0.28764 0.0
O364 O 0.25923 0.76699 0.26879 0.0
O365 O 0.22388 0.73463 0.28711 0.0
O366 O 0.2418 0.72857 0.22587 0.0
O367 O 0.23543 0.74583 0.19985 0.0
O368 O 0.259 0.70481 0.28566 0.0
O369 O 0.26529 0.75013 0.2951 0.0
C370 C 0.23986 0.78712 0.22735 0.0
C371 C 0.28641 0.75342 0.22113 0.0
C372 C 0.21464 0.74266 0.27371 0.0
C373 C 0.26113 0.70862 0.26776 0.0
C374 C 0.26566 0.76565 0.28593 0.0
C375 C 0.23505 0.73024 0.2089 0.0
O376 O 0.24436 0.76995 0.23121 0.0
O377 O 0.24186 0.79105 0.20947 0.0
O378 O 0.48308 0.97886 0.48626 0.0
Mn379 Mn 0.49973 0.00277 0.49342 0.0
O380 O 0.45391 0.98957 0.47764 0.0
Mn381 Mn 0.45601 0.01243 0.49092 0.0
O382 O 0.51668 0.02645 0.50042 0.0
O383 O 0.52017 0.98552 0.502 0.0
Mn384 Mn 0.54348 0.99248 0.49543 0.0
O385 O 0.5112 0.00251 0.46611 0.0
O386 O 0.54616 0.0157 0.50811 0.0
O387 O 0.48815 0.00301 0.52071 0.0
O388 O 0.45673 0.01033 0.51744 0.0
O389 O 0.54506 0.96851 0.50655 0.0
O390 O 0.54233 0.994 0.46885 0.0
C391 C 0.47217 0.03571 0.47872 0.0
C392 C 0.46633 0.97639 0.47888 0.0
C393 C 0.53384 0.02904 0.5069 0.0
C394 C 0.52654 0.96964 0.50776 0.0
C395 C 0.52773 -0.00138 0.45884 0.0
C396 C 0.47131 0.00613 0.52767 0.0
O397 O 0.47923 0.02023 0.48491 0.0
O398 O 0.4536 0.03621 0.47974 0.0
O399 O 0.27257 0.25633 0.7786 0.0
Mn400 Mn 0.25611 0.25033 0.75437 0.0
O401 O 0.30136 0.26741 0.76857 0.0
Mn402 Mn 0.29943 0.25763 0.74388 0.0
O403 O 0.23953 0.24411 0.7302 0.0
O404 O 0.23648 0.2384 0.77095 0.0
Mn405 Mn 0.21266 0.24355 0.76487 0.0
O406 O 0.24257 0.27619 0.75765 0.0
O407 O 0.21087 0.23283 0.74057 0.0
O408 O 0.27 0.22452 0.7513 0.0
O409 O 0.3005 0.23115 0.74198 0.0
O410 O 0.21212 0.23009 0.78773 0.0
O411 O 0.21178 0.27008 0.7661 0.0
C412 C 0.28149 0.27196 0.72342 0.0
C413 C 0.28917 0.2639 0.78178 0.0
C414 C 0.22308 0.23606 0.72731 0.0
C415 C 0.23066 0.23074 0.78636 0.0
C416 C 0.22564 0.28162 0.76255 0.0
C417 C 0.28703 0.21939 0.74624 0.0
O418 O 0.27559 0.26239 0.73768 0.0
O419 O 0.30003 0.27298 0.72226 0.0
O420 O 0.99391 0.98241 0.48175 0.0
Mn421 Mn -0.00428 0.0085 0.49604 0.0
O422 O 0.00041 0.96 0.50354 0.0
Mn423 Mn 0.00797 0.97608 0.52348 0.0
O424 O -0.00291 0.03428 0.51063 0.0
O425 O -0.00101 0.02188 0.47144 0.0
Mn426 Mn 0.98311 0.04093 0.4689 0.0
O427 O 0.96561 0.01082 0.49431 0.0
O428 O 0.98777 0.05671 0.49002 0.0
O429 O 0.02576 0.00619 0.49746 0.0
O430 O 0.03253 0.98634 0.52149 0.0
O431 O -0.00017 0.04124 0.44805 0.0
O432 O 0.95925 0.02901 0.46887 0.0
C433 C 0.98594 0.99257 0.53754 0.0
C434 C -0.00456 0.96498 0.48676 0.0
C435 C 0.99334 0.05158 0.50655 0.0
C436 C 0.00768 0.02683 0.45611 0.0
C437 C 0.95388 0.0179 0.48212 0.0
C438 C 0.03768 -0.00196 0.50869 0.0
O439 O 0.99276 0.99556 0.52086 0.0
O440 O 0.99364 0.9783 0.54594 0.0
O441 O 0.2603 0.7734 0.74392 0.0
Mn442 Mn 0.2459 0.74789 0.73825 0.0
O443 O 0.23753 0.796 0.74707 0.0
Mn444 Mn 0.21709 0.78178 0.73731 0.0
O445 O 0.23096 0.72266 0.73247 0.0
O446 O 0.27063 0.73641 0.72991 0.0
Mn447 Mn 0.27277 0.71269 0.73686 0.0
O448 O 0.2512 0.73925 0.76621 0.0
O449 O 0.25264 0.70037 0.72444 0.0
O450 O 0.241 0.7563 0.71011 0.0
O451 O 0.21749 0.77817 0.71099 0.0
O452 O 0.29594 0.71949 0.72536 0.0
O453 O 0.27074 0.71386 0.76335 0.0
C454 C 0.20466 0.75974 0.75471 0.0
C455 C 0.25505 0.79053 0.74772 0.0
C456 C 0.23532 0.70611 0.7259 0.0
C457 C 0.28805 0.73596 0.72383 0.0
C458 C 0.26121 0.72583 0.77347 0.0
C459 C 0.22923 0.76754 0.70179 0.0
O460 O 0.22117 0.75922 0.74658 0.0
O461 O 0.19544 0.77529 0.75171 0.0
O462 O 0.47478 0.00282 0.98484 0.0
Mn463 Mn 0.49763 0.01158 0.0022 0.0
O464 O 0.48808 0.99361 0.95666 0.0
Mn465 Mn 0.51179 0.00555 0.95995 0.0
O466 O 0.52074 0.01999 0.01928 0.0
O467 O 0.47905 0.02261 0.02064 0.0
Mn468 Mn 0.48547 0.01938 0.04455 0.0
O469 O 0.49586 0.98584 0.01623 0.0
O470 O 0.50857 0.03275 0.04633 0.0
O471 O 0.4993 0.03755 0.98848 0.0
O472 O 0.51165 0.03199 0.95913 0.0
O473 O 0.46085 0.02995 0.04427 0.0
O474 O 0.48742 0.99302 0.04663 0.0
C475 C 0.53252 0.99321 0.97928 0.0
C476 C 0.47382 0.99494 0.9682 0.0
C477 C 0.52263 0.02942 0.035 0.0
C478 C 0.4625 0.02855 0.02591 0.0
C479 C 0.49167 0.98101 0.03339 0.0
C480 C 0.50558 0.04328 0.97225 0.0
O481 O 0.51641 0.00061 0.98391 0.0
O482 O 0.53544 0.99295 0.96105 0.0
O483 O 0.28552 0.24624 0.25882 0.0
Mn484 Mn 0.25573 0.24252 0.25512 0.0
O485 O 0.29581 0.22226 0.27702 0.0
Mn486 Mn 0.27164 0.21509 0.28547 0.0
O487 O 0.22595 0.23881 0.25134 0.0
O488 O 0.25483 0.26906 0.24485 0.0
Mn489 Mn 0.24003 0.26965 0.22449 0.0
O490 O 0.26053 0.23126 0.22782 0.0
O491 O 0.21581 0.26259 0.23282 0.0
O492 O 0.25087 0.25363 0.28255 0.0
O493 O 0.26033 0.23136 0.30328 0.0
O494 O 0.24887 0.29417 0.22823 0.0
O495 O 0.25135 0.25326 0.20675 0.0
C496 C 0.25373 0.19799 0.26707 0.0
C497 C 0.29899 0.2367 0.26671 0.0
C498 C 0.21255 0.24827 0.24325 0.0
C499 C 0.25785 0.28702 0.24258 0.0
C500 C 0.25857 0.23714 0.21065 0.0
C501 C 0.25293 0.24747 0.29965 0.0
O502 O 0.25669 0.216 0.26528 0.0
O503 O 0.26273 0.1906 0.28126 0.0
O504 O 0.49665 0.48551 0.97676 0.0
Mn505 Mn 0.49976 0.5109 0.99233 0.0
O506 O 0.49472 0.46202 -0.00172 0.0
Mn507 Mn 0.50148 0.47634 0.01969 0.0
O508 O 0.50226 0.53604 0.00822 0.0
O509 O 0.50977 0.52397 0.9692 0.0
Mn510 Mn 0.49792 0.54551 0.96536 0.0
O511 O 0.47122 0.51762 0.98539 0.0
O512 O 0.5019 0.56004 0.98732 0.0
O513 O 0.52821 0.50423 -0.00104 0.0
O514 O 0.5275 0.48217 0.02192 0.0
O515 O 0.51696 0.54353 0.94684 0.0
O516 O 0.47257 0.5384 0.96128 0.0
C517 C 0.48075 0.49606 0.03119 0.0
C518 C 0.49411 0.46796 0.98112 0.0
C519 C 0.50276 0.55381 0.00433 0.0
C520 C 0.52097 0.52773 0.95508 0.0
C521 C 0.46309 0.52755 0.9724 0.0
C522 C 0.53662 0.49359 0.01111 0.0
O523 O 0.49037 0.49819 0.01574 0.0
O524 O 0.48441 0.48042 0.03984 0.0
O525 O 0.76015 0.27588 0.24486 0.0
Mn526 Mn 0.74779 0.24878 0.24361 0.0
O527 O 0.73569 0.29682 0.24248 0.0
Mn528 Mn 0.71661 0.2795 0.23545 0.0
O529 O 0.73475 0.22212 0.24232 0.0
O530 O 0.77348 0.2374 0.23753 0.0
Mn531 Mn 0.77763 0.21693 0.25092 0.0
O532 O 0.75249 0.24573 0.27297 0.0
O533 O 0.75796 0.20011 0.24438 0.0
O534 O 0.74346 0.25175 0.21435 0.0
O535 O 0.71791 0.27077 0.21034 0.0
O536 O 0.79896 0.21992 0.23534 0.0
O537 O 0.7776 0.22578 0.27596 0.0
C538 C 0.70554 0.2612 0.25739 0.0
C539 C 0.75345 0.29292 0.24498 0.0
C540 C 0.74041 0.20481 0.24216 0.0
C541 C 0.78995 0.23474 0.22949 0.0
C542 C 0.76521 0.23721 0.28301 0.0
C543 C 0.73114 0.26002 0.20368 0.0
O544 O 0.72204 0.25973 0.24928 0.0
O545 O 0.69529 0.27495 0.25098 0.0
O546 O 0.96261 0.49599 0.49363 0.0
Mn547 Mn 0.98658 0.50224 0.51053 0.0
O548 O 0.97392 0.48881 0.46411 0.0
Mn549 Mn -0.00096 0.49718 0.46775 0.0
O550 O 0.01049 0.50832 0.52755 0.0
O551 O 0.96922 0.51365 0.52993 0.0
Mn552 Mn 0.97524 0.50834 0.55351 0.0
O553 O 0.98368 0.47603 0.52333 0.0
O554 O -0.00064 0.51974 0.55574 0.0
O555 O 0.98979 0.5287 0.49781 0.0
O556 O 0.00249 0.52337 0.46852 0.0
O557 O 0.95144 0.5206 0.55397 0.0
O558 O 0.97515 0.48179 0.554 0.0
C559 C 0.01808 0.48059 0.48512 0.0
C560 C 0.96028 0.49022 0.47631 0.0
C561 C 0.01304 0.51641 0.54394 0.0
C562 C 0.95302 0.52019 0.53558 0.0
C563 C 0.97908 0.47042 0.54012 0.0
C564 C -0.00296 0.53456 0.482 0.0
O565 O 0.004 0.49062 0.49121 0.0
O566 O 0.02004 0.48076 0.46678 0.0
O567 O 0.7662 0.75753 0.28017 0.0
Mn568 Mn 0.74987 0.74888 0.25654 0.0
O569 O 0.79304 0.7717 0.26901 0.0
Mn570 Mn 0.79164 0.76075 0.2448 0.0
O571 O 0.73335 0.74043 0.23298 0.0
O572 O 0.73246 0.73492 0.27413 0.0
Mn573 Mn 0.70805 0.73701 0.26823 0.0
O574 O 0.73327 0.77296 0.25978 0.0
O575 O 0.70676 0.72572 0.24416 0.0
O576 O 0.7666 0.72483 0.25334 0.0
O577 O 0.79602 0.73461 0.24358 0.0
O578 O 0.70928 0.72394 0.29115 0.0
O579 O 0.70371 0.76314 0.26901 0.0
C580 C 0.77205 0.77227 0.22411 0.0
C581 C 0.78171 0.76733 0.28268 0.0
C582 C 0.71788 0.73056 0.2305 0.0
C583 C 0.72765 0.72665 0.28962 0.0
C584 C 0.71583 0.77626 0.26492 0.0
C585 C 0.784 0.7215 0.24805 0.0
O586 O 0.76725 0.76274 0.23885 0.0
O587 O 0.79039 0.77516 0.22269 0.0
O588 O 0.7849 0.24153 0.74853 0.0
Mn589 Mn 0.75489 0.24459 0.74699 0.0
O590 O 0.79787 0.26572 0.73184 0.0
Mn591 Mn 0.77562 0.27251 0.71924 0.0
O592 O 0.72507 0.24809 0.74531 0.0
O593 O 0.75167 0.21825 0.7569 0.0
Mn594 Mn 0.73337 0.21706 0.77424 0.0
O595 O 0.75468 0.2557 0.77463 0.0
O596 O 0.71124 0.22426 0.76166 0.0
O597 O 0.75494 0.23344 0.7194 0.0
O598 O 0.76747 0.25571 0.70009 0.0
O599 O 0.74273 0.19264 0.77125 0.0
O600 O 0.74159 0.23347 0.79366 0.0
C601 C 0.75452 0.28855 0.73524 0.0
C602 C 0.79937 0.25156 0.74288 0.0
C603 C 0.71026 0.23854 0.75074 0.0
C604 C 0.75404 0.20028 0.75879 0.0
C605 C 0.7496 0.24965 0.79114 0.0
C606 C 0.75968 0.23945 0.7028 0.0
O607 O 0.75786 0.27077 0.73699 0.0
O608 O 0.76517 0.29663 0.72252 0.0
O609 O 0.77823 0.74188 0.7668 0.0
Mn610 Mn 0.75049 0.74253 0.75528 0.0
O611 O 0.7765 0.72309 0.79254 0.0
Mn612 Mn 0.75012 0.71877 0.79222 0.0
O613 O 0.72283 0.74316 0.74362 0.0
O614 O 0.75707 0.76705 0.74262 0.0
Mn615 Mn 0.75166 0.76588 0.71813 0.0
O616 O 0.76004 0.72646 0.73156 0.0
O617 O 0.72552 0.76047 0.71682 0.0
O618 O 0.74095 0.75854 0.77902 0.0
O619 O 0.73541 0.73803 0.80281 0.0
O620 O 0.76051 0.79031 0.723 0.0
O621 O 0.76721 0.74694 0.70827 0.0
C622 C 0.7383 0.7007 0.77018 0.0
C623 C 0.786 0.73358 0.78108 0.0
C624 C 0.71572 0.75047 0.72848 0.0
C625 C 0.76211 0.78452 0.74037 0.0
C626 C 0.7671 0.73023 0.715 0.0
C627 C 0.73465 0.75463 0.79584 0.0
O628 O 0.74379 0.71804 0.76794 0.0
O629 O 0.74032 0.69467 0.78741 0.0
O630 O 0.51238 0.52989 0.48861 0.0
Mn631 Mn 0.49139 0.50989 0.49648 0.0
O632 O 0.53836 0.51381 0.47838 0.0
Mn633 Mn 0.53157 0.49159 0.49055 0.0
O634 O 0.47011 0.49014 0.50462 0.0
O635 O 0.47583 0.53152 0.50657 0.0
Mn636 Mn 0.45132 0.52908 0.50083 0.0
O637 O 0.47853 0.51231 0.46988 0.0
O638 O 0.44407 0.50722 0.51337 0.0
O639 O 0.50465 0.50724 0.52301 0.0
O640 O 0.53304 0.49279 0.51704 0.0
O641 O 0.45426 0.55249 0.51311 0.0
O642 O 0.45045 0.52756 0.47427 0.0
C643 C 0.51091 0.47259 0.47751 0.0
C644 C 0.52916 0.52925 0.48083 0.0
C645 C 0.45318 0.49158 0.51205 0.0
C646 C 0.47227 0.54801 0.51377 0.0
C647 C 0.46297 0.51959 0.46347 0.0
C648 C 0.52076 0.50024 0.52851 0.0
O649 O 0.50691 0.48838 0.48599 0.0
O650 O 0.52909 0.46875 0.4772 0.0
O651 O 0.98348 0.47615 0.99398 0.0
Mn652 Mn 0.00149 0.49927 -0.0001 0.0
O653 O 0.95352 0.48772 0.99011 0.0
Mn654 Mn 0.9586 0.51214 -0.0009 0.0
O655 O 0.01963 0.52236 0.00568 0.0
O656 O 0.02077 0.48123 0.00956 0.0
Mn657 Mn 0.04451 0.48673 0.00324 0.0
O658 O 0.01318 0.49681 0.97271 0.0
O659 O 0.04839 0.51056 0.01427 0.0
O660 O 0.99045 0.50172 0.02732 0.0
O661 O 0.96103 0.51478 0.02551 0.0
O662 O 0.045 0.46442 0.01745 0.0
O663 O 0.04359 0.48623 0.97657 0.0
C664 C 0.9748 0.53154 0.98152 0.0
C665 C 0.9656 0.47415 0.98978 0.0
C666 C 0.03673 0.52433 0.0124 0.0
C667 C 0.02653 0.46634 0.018 0.0
C668 C 0.02953 0.49132 0.96602 0.0
C669 C 0.97531 0.50874 0.03512 0.0
O670 O 0.98181 0.51731 0.99033 0.0
O671 O 0.95638 0.53323 0.98356 0.0
C672 C 0.02107 0.17416 0.11038 0.0
C673 C 0.0129 0.1904 0.10229 0.0
C674 C 0.02317 0.15744 0.09965 0.0
C675 C 0.02197 0.13746 0.0501 0.0
H676 H 0.00627 0.09136 0.07567 0.0
C677 C 0.9866 0.07384 0.01296 0.0
C678 C 0.98864 0.05557 0.02032 0.0
C679 C -0.00353 0.08921 0.02111 0.0
C680 C 0.01122 0.10396 0.06839 0.0
H681 H 0.00098 0.20187 0.07635 0.0
H682 H 0.00416 0.17245 0.05768 0.0
H683 H 0.00912 0.12085 0.09387 0.0
H684 H 0.00354 0.03857 0.04101 0.0
H685 H 0.02083 0.06568 0.05564 0.0
H686 H 0.02308 0.12058 0.02439 0.0
C687 C 0.00927 0.17279 0.07229 0.0
C688 C 0.01277 0.12096 0.07883 0.0
C689 C 0.00729 0.18962 0.08302 0.0
C690 C 0.0019 0.05256 0.03502 0.0
C691 C 0.01163 0.06808 0.04345 0.0
C692 C 0.02036 0.12044 0.03963 0.0
C693 C 0.01704 0.15641 0.08055 0.0
C694 C 0.01764 0.13804 0.06973 0.0
C695 C 0.00835 0.08668 0.03706 0.0
C696 C 0.01439 0.10361 0.04856 0.0
H697 H 0.02583 0.17429 0.1251 0.0
H698 H 0.02954 0.14525 0.10639 0.0
H699 H 0.02616 0.15026 0.04272 0.0
H700 H 0.9764 0.07644 0.00162 0.0
H701 H 0.99346 0.10329 0.01591 0.0
C702 C 0.06331 0.75224 0.34781 0.0
C703 C 0.04566 0.74692 0.3395 0.0
C704 C 0.07978 0.75415 0.33661 0.0
C705 C 0.10241 0.73887 0.29198 0.0
H706 H 0.1376 0.78013 0.30499 0.0
C707 C 0.18077 0.74653 0.26182 0.0
C708 C 0.19402 0.74635 0.27698 0.0
C709 C 0.16109 0.74908 0.26553 0.0
C710 C 0.1278 0.7687 0.30102 0.0
H711 H 0.03148 0.73907 0.31292 0.0
H712 H 0.06057 0.74232 0.29322 0.0
H713 H 0.10535 0.77963 0.31886 0.0
H714 H 0.19731 0.74951 0.30767 0.0
H715 H 0.16326 0.75436 0.31401 0.0
H716 H 0.12534 0.72764 0.27466 0.0
C717 C 0.06151 0.74505 0.30845 0.0
C718 C 0.10942 0.76832 0.30902 0.0
C719 C 0.04491 0.74319 0.31972 0.0
C720 C 0.18741 0.74939 0.29573 0.0
C721 C 0.16795 0.75233 0.29935 0.0
C722 C 0.12085 0.73932 0.28385 0.0
C723 C 0.07905 0.7508 0.3168 0.0
C724 C 0.09685 0.75298 0.30528 0.0
C725 C 0.15459 0.75201 0.28435 0.0
C726 C 0.13392 0.75383 0.28897 0.0
H727 H 0.06443 0.7551 0.36301 0.0
H728 H 0.09318 0.75814 0.34354 0.0
H729 H 0.09302 0.72687 0.28885 0.0
H730 H 0.18554 0.74421 0.24724 0.0
H731 H 0.15097 0.74875 0.25377 0.0
C732 C 0.49547 0.81194 0.56478 0.0
C733 C 0.49129 0.81276 0.58441 0.0
C734 C 0.4946 0.82835 0.55378 0.0
C735 C 0.47701 0.87821 0.55348 0.0
H736 H 0.52189 0.88646 0.52159 0.0
C737 C 0.50379 0.95226 0.52906 0.0
C738 C 0.51453 0.95305 0.51212 0.0
C739 C 0.49638 0.93482 0.53527 0.0
C740 C 0.50899 0.88431 0.53004 0.0
H741 H 0.48214 0.83127 0.60774 0.0
H742 H 0.48087 0.85983 0.58864 0.0
H743 H 0.51761 0.85627 0.53719 0.0
H744 H 0.5245 0.93712 0.48743 0.0
H745 H 0.51082 0.90695 0.49765 0.0
H746 H 0.4687 0.90659 0.54661 0.0
C747 C 0.48464 0.84653 0.58166 0.0
C748 C 0.50657 0.86692 0.53904 0.0
C749 C 0.48554 0.83016 0.59265 0.0
C750 C 0.51634 0.93671 0.50064 0.0
C751 C 0.50866 0.91943 0.50661 0.0
C752 C 0.4794 0.89566 0.54437 0.0
C753 C 0.48949 0.8459 0.56217 0.0
C754 C 0.49073 0.86374 0.55111 0.0
C755 C 0.49951 0.91804 0.52448 0.0
C756 C 0.49557 0.89901 0.53273 0.0
H757 H 0.49981 0.79873 0.55799 0.0
H758 H 0.49821 0.82735 0.53874 0.0
H759 H 0.46454 0.87611 0.56255 0.0
H760 H 0.50235 0.96478 0.53813 0.0
H761 H 0.48942 0.93431 0.54912 0.0
C762 C 0.43024 0.25608 0.86359 0.0
C763 C 0.43857 0.25444 0.84529 0.0
C764 C 0.41029 0.25444 0.86593 0.0
C765 C 0.36643 0.23612 0.8433 0.0
H766 H 0.34197 0.28345 0.85814 0.0
C767 C 0.3089 0.28011 0.80672 0.0
C768 C 0.29624 0.26534 0.8015 0.0
C769 C 0.3209 0.27824 0.82252 0.0
C770 C 0.34847 0.26994 0.85444 0.0
H771 H 0.43279 0.24898 0.8153 0.0
H772 H 0.39803 0.24565 0.81946 0.0
H773 H 0.37614 0.27877 0.86499 0.0
H774 H 0.28483 0.23793 0.80948 0.0
H775 H 0.30543 0.23478 0.83738 0.0
H776 H 0.33947 0.22781 0.83125 0.0
C777 C 0.40691 0.24832 0.83194 0.0
C778 C 0.36798 0.26726 0.85841 0.0
C779 C 0.42674 0.25038 0.82953 0.0
C780 C 0.29411 0.24971 0.81354 0.0
C781 C 0.30611 0.24781 0.82936 0.0
C782 C 0.34694 0.23871 0.83949 0.0
C783 C 0.39849 0.25062 0.85009 0.0
C784 C 0.37731 0.25082 0.85174 0.0
C785 C 0.32058 0.26142 0.83314 0.0
C786 C 0.3381 0.25617 0.84385 0.0
H787 H 0.43907 0.2593 0.87597 0.0
H788 H 0.40405 0.25641 0.88002 0.0
H789 H 0.37335 0.22326 0.8382 0.0
H790 H 0.31079 0.29228 0.79759 0.0
H791 H 0.33191 0.28898 0.82493 0.0
C792 C 0.98858 0.81663 0.40357 0.0
C793 C 0.99135 0.81494 0.38374 0.0
C794 C 0.98639 0.83445 0.4122 0.0
C795 C -0.00283 0.88493 0.40628 0.0
H796 H 0.95992 0.89037 0.44735 0.0
C797 C 0.98993 0.95349 0.45296 0.0
C798 C 0.99138 0.9497 0.47258 0.0
C799 C 0.98717 0.93862 0.43973 0.0
C800 C 0.97029 0.88908 0.43583 0.0
H801 H 0.99423 0.8307 0.35744 0.0
H802 H 0.99043 0.8619 0.37263 0.0
H803 H 0.96069 0.86102 0.42844 0.0
H804 H 0.99022 0.92741 0.49371 0.0
H805 H 0.98524 0.90175 0.47078 0.0
H806 H 0.00713 0.91286 0.41415 0.0
C807 C 0.98999 0.84938 0.38143 0.0
C808 C 0.9708 0.87229 0.42508 0.0
C809 C 0.99212 0.83151 0.37276 0.0
C810 C 0.98933 0.93087 0.47872 0.0
C811 C 0.98631 0.91615 0.46559 0.0
C812 C -0.00337 0.9018 0.41705 0.0
C813 C 0.98693 0.85099 0.40122 0.0
C814 C 0.98467 0.86979 0.41065 0.0
C815 C 0.98539 0.91982 0.44598 0.0
C816 C 0.98361 0.90373 0.43232 0.0
H817 H 0.98796 0.80419 0.41247 0.0
H818 H 0.98445 0.83528 0.42754 0.0
H819 H 0.00805 0.88337 0.39526 0.0
H820 H 0.99123 0.96784 0.44777 0.0
H821 H 0.98644 0.94178 0.42466 0.0
C822 C 0.43289 0.76337 0.67741 0.0
C823 C 0.43932 0.76493 0.65846 0.0
C824 C 0.4146 0.76963 0.68267 0.0
C825 C 0.36664 0.7746 0.66428 0.0
H826 H 0.35797 0.79815 0.71397 0.0
C827 C 0.29542 0.76226 0.70142 0.0
C828 C 0.29944 0.75256 0.71825 0.0
C829 C 0.30964 0.7737 0.69306 0.0
C830 C 0.36008 0.79188 0.6999 0.0
H831 H 0.43159 0.77439 0.63015 0.0
H832 H 0.39921 0.78483 0.63933 0.0
H833 H 0.39031 0.79818 0.70016 0.0
H834 H 0.32018 0.74862 0.7408 0.0
H835 H 0.34472 0.76871 0.7267 0.0
H836 H 0.33685 0.76678 0.6647 0.0
C837 C 0.40855 0.77898 0.6501 0.0
C838 C 0.37859 0.79183 0.69204 0.0
C839 C 0.42702 0.77294 0.64486 0.0
C840 C 0.31684 0.75604 0.72777 0.0
C841 C 0.33085 0.76767 0.7197 0.0
C842 C 0.34814 0.77452 0.6722 0.0
C843 C 0.40221 0.77743 0.66908 0.0
C844 C 0.38221 0.78222 0.67469 0.0
C845 C 0.32788 0.77569 0.70168 0.0
C846 C 0.34495 0.7821 0.69064 0.0
H847 H 0.44202 0.75739 0.68828 0.0
H848 H 0.40996 0.76789 0.69733 0.0
H849 H 0.36902 0.76711 0.65086 0.0
H850 H 0.28207 0.75965 0.69389 0.0
H851 H 0.3069 0.77981 0.67923 0.0
C852 C 0.51826 0.20857 0.91965 0.0
C853 C 0.50599 0.20904 0.90373 0.0
C854 C 0.51812 0.19281 0.93165 0.0
C855 C 0.52385 0.1511 0.94292 0.0
H856 H 0.47604 0.12587 0.95686 0.0
C857 C 0.51747 0.07088 0.95342 0.0
C858 C 0.50622 0.06392 0.96854 0.0
C859 C 0.51811 0.09025 0.94962 0.0
C860 C 0.48952 0.13289 0.95337 0.0
H861 H 0.48346 0.1938 0.88832 0.0
H862 H 0.48313 0.16656 0.90924 0.0
H863 H 0.47521 0.15758 0.94313 0.0
H864 H 0.487 0.07199 0.99173 0.0
H865 H 0.4878 0.10598 0.98472 0.0
H866 H 0.5381 0.12607 0.95239 0.0
C867 C 0.49284 0.17828 0.9125 0.0
C868 C 0.48904 0.15095 0.9454 0.0
C869 C 0.49318 0.19381 0.90041 0.0
C870 C 0.49575 0.07687 0.97993 0.0
C871 C 0.49619 0.0963 0.97593 0.0
C872 C 0.52431 0.13296 0.95072 0.0
C873 C 0.50545 0.17748 0.9281 0.0
C874 C 0.50616 0.15999 0.93959 0.0
C875 C 0.50738 0.10315 0.96072 0.0
C876 C 0.50712 0.12346 0.95549 0.0
H877 H 0.52826 0.22013 0.92256 0.0
H878 H 0.52799 0.19254 0.9436 0.0
H879 H 0.53725 0.15769 0.93849 0.0
H880 H 0.52582 0.06135 0.94443 0.0
H881 H 0.52663 0.09508 0.93763 0.0
C882 C 0.07258 0.24036 0.14966 0.0
C883 C 0.05776 0.25225 0.15617 0.0
C884 C 0.08792 0.23595 0.16164 0.0
C885 C 0.10362 0.23873 0.21288 0.0
H886 H 0.1542 0.23274 0.19013 0.0
C887 C 0.1776 0.25307 0.24802 0.0
C888 C 0.19275 0.24092 0.24291 0.0
C889 C 0.15903 0.24958 0.24112 0.0
C890 C 0.14009 0.234 0.19667 0.0
H891 H 0.04743 0.26916 0.1801 0.0
H892 H 0.07476 0.26253 0.20064 0.0
H893 H 0.12663 0.23776 0.16971 0.0
H894 H 0.20036 0.21515 0.22758 0.0
H895 H 0.16788 0.209 0.21548 0.0
H896 H 0.11775 0.23638 0.24001 0.0
C897 C 0.07426 0.2559 0.1866 0.0
C898 C 0.12421 0.23687 0.18495 0.0
C899 C 0.0587 0.25993 0.17475 0.0
C900 C 0.18878 0.22436 0.23222 0.0
C901 C 0.17027 0.221 0.22507 0.0
C902 C 0.11966 0.23626 0.22464 0.0
C903 C 0.08903 0.2437 0.18028 0.0
C904 C 0.10575 0.2395 0.19286 0.0
C905 C 0.15551 0.23413 0.22866 0.0
C906 C 0.13804 0.23402 0.21661 0.0
H907 H 0.07204 0.23398 0.13549 0.0
H908 H 0.09872 0.2262 0.15632 0.0
H909 H 0.08962 0.24026 0.21953 0.0
H910 H 0.18049 0.26614 0.25592 0.0
H911 H 0.14793 0.26 0.24395 0.0
C912 C 0.10542 0.98949 0.18244 0.0
C913 C 0.09603 0.98731 0.20006 0.0
C914 C 0.09483 0.99227 0.16582 0.0
C915 C 0.04726 0.98551 0.1439 0.0
H916 H 0.06717 0.02255 0.1083 0.0
C917 C 0.01381 -0.00145 0.06874 0.0
C918 C 0.02771 -0.00316 0.05418 0.0
C919 C 0.01953 -0.00011 0.08794 0.0
C920 C 0.06136 0.01224 0.11815 0.0
H921 H 0.06812 0.98583 0.21401 0.0
H922 H 0.04958 0.99063 0.18482 0.0
H923 H 0.08241 0.01929 0.13938 0.0
H924 H 0.05842 0.99607 0.04824 0.0
H925 H 0.06823 -0.00143 0.08133 0.0
H926 H 0.02655 0.97811 0.12226 0.0
C927 C 0.06515 0.99018 0.18394 0.0
C928 C 0.07015 0.01029 0.13588 0.0
C929 C 0.07577 0.98746 0.20062 0.0
C930 C 0.04732 -0.00284 0.0591 0.0
C931 C 0.05298 -0.00122 0.07808 0.0
C932 C 0.03843 0.98747 0.12608 0.0
C933 C 0.0746 0.99291 0.16641 0.0
C934 C 0.06361 0.99648 0.14869 0.0
C935 C 0.03921 -1e-05 0.09272 0.0
C936 C 0.04583 0.00043 0.11282 0.0
H937 H 0.121 0.98935 0.1815 0.0
H938 H 0.10252 0.99392 0.15246 0.0
H939 H 0.04191 0.97474 0.15349 0.0
H940 H -0.0014 -0.00163 0.06533 0.0
H941 H 0.00865 0.00083 0.09901 0.0
C942 C 0.23939 0.88147 0.41068 0.0
C943 C 0.24512 0.87239 0.42749 0.0
C944 C 0.24348 0.87339 0.39277 0.0
C945 C 0.27772 0.84137 0.3694 0.0
H946 H 0.23832 0.83311 0.33097 0.0
C947 C 0.28067 0.78166 0.31418 0.0
C948 C 0.27073 0.7831 0.29683 0.0
C949 C 0.28106 0.79686 0.32714 0.0
C950 C 0.24966 0.83576 0.34129 0.0
H951 H 0.25905 0.84741 0.43867 0.0
H952 H 0.26618 0.8334 0.40745 0.0
H953 H 0.23058 0.85081 0.36018 0.0
H954 H 0.25525 0.80229 0.27854 0.0
H955 H 0.25602 0.82898 0.3012 0.0
H956 H 0.29672 0.82604 0.35081 0.0
C957 C 0.2587 0.84685 0.40816 0.0
C958 C 0.24515 0.84578 0.35807 0.0
C959 C 0.25442 0.85478 0.42603 0.0
C960 C 0.26288 0.8007 0.29186 0.0
C961 C 0.26319 0.81594 0.30491 0.0
C962 C 0.28229 0.83153 0.35257 0.0
C963 C 0.25359 0.85624 0.39138 0.0
C964 C 0.25895 0.84804 0.37256 0.0
C965 C 0.27154 0.81386 0.32305 0.0
C966 C 0.2681 0.82796 0.33865 0.0
H967 H 0.23218 0.89505 0.41132 0.0
H968 H 0.23932 0.88085 0.38002 0.0
H969 H 0.28874 0.84331 0.3802 0.0
H970 H 0.28704 0.76835 0.31834 0.0
H971 H 0.28755 0.79466 0.34098 0.0
C972 C 0.43814 0.00558 0.7005 0.0
C973 C 0.41792 0.00633 0.70141 0.0
C974 C 0.44751 0.00428 0.68277 0.0
C975 C 0.43824 0.98733 0.6341 0.0
H976 H 0.47817 0.02217 0.61734 0.0
C977 C 0.44962 0.00395 0.55599 0.0
C978 C 0.4684 0.0045 0.5485 0.0
C979 C 0.44659 0.00223 0.57553 0.0
C980 C 0.46731 0.0121 0.62198 0.0
H981 H 0.39173 0.00724 0.68455 0.0
H982 H 0.40798 0.00496 0.65392 0.0
H983 H 0.4672 0.02324 0.65072 0.0
H984 H 0.49879 0.00378 0.55575 0.0
H985 H 0.49335 0.00102 0.59022 0.0
H986 H 0.43772 0.97665 0.60539 0.0
C987 C 0.4166 0.00506 0.66681 0.0
C988 C 0.46106 0.01273 0.64101 0.0
C989 C 0.40731 0.00647 0.68437 0.0
C990 C 0.48413 0.00338 0.56108 0.0
C991 C 0.48107 0.00185 0.58077 0.0
C992 C 0.44446 0.9867 0.61521 0.0
C993 C 0.43671 0.00354 0.66583 0.0
C994 C 0.44595 0.00082 0.64698 0.0
C995 C 0.46224 0.00112 0.5881 0.0
C996 C 0.45851 -0.00045 0.6088 0.0
H997 H 0.44667 0.0055 0.71344 0.0
H998 H 0.46306 0.00323 0.68232 0.0
H999 H 0.42683 0.97773 0.63849 0.0
H1000 H 0.43716 0.00474 0.54676 0.0
H1001 H 0.43192 0.002 0.58086 0.0
C1002 C 0.26865 0.15278 0.92628 0.0
C1003 C 0.26348 0.16108 0.94391 0.0
C1004 C 0.2715 0.164 0.91026 0.0
C1005 C 0.25448 0.20844 0.89095 0.0
H1006 H 0.28936 0.1957 0.84939 0.0
C1007 C 0.24352 0.24071 0.81771 0.0
C1008 C 0.24295 0.22722 0.80281 0.0
C1009 C 0.25167 0.23617 0.83524 0.0
C1010 C 0.27958 0.19946 0.8609 0.0
H1011 H 0.25833 0.18775 0.95888 0.0
H1012 H 0.26332 0.20744 0.93078 0.0
H1013 H 0.29365 0.18121 0.88062 0.0
H1014 H 0.25076 0.1988 0.79392 0.0
H1015 H 0.26502 0.19064 0.82463 0.0
H1016 H 0.2398 0.2259 0.87117 0.0
C1017 C 0.26497 0.1922 0.92935 0.0
C1018 C 0.28204 0.19119 0.87876 0.0
C1019 C 0.26215 0.18094 0.94543 0.0
C1020 C 0.25144 0.20947 0.8052 0.0
C1021 C 0.25959 0.20487 0.82277 0.0
C1022 C 0.25201 0.21667 0.87314 0.0
C1023 C 0.26923 0.18379 0.91149 0.0
C1024 C 0.26911 0.19513 0.89379 0.0
C1025 C 0.25919 0.21797 0.83819 0.0
C1026 C 0.26414 0.21181 0.85774 0.0
H1027 H 0.26991 0.13752 0.92466 0.0
H1028 H 0.27451 0.15703 0.89669 0.0
H1029 H 0.2441 0.2116 0.90211 0.0
H1030 H 0.2369 0.25448 0.81606 0.0
H1031 H 0.25143 0.24667 0.8467 0.0
C1032 C 0.07375 0.00018 0.31841 0.0
C1033 C 0.09258 -0.00232 0.31153 0.0
C1034 C 0.06941 -0.00299 0.33755 0.0
C1035 C 0.08992 -0.00026 0.38464 0.0
H1036 H 0.04108 0.97646 0.3983 0.0
C1037 C 0.02752 -0.0016 0.44753 0.0
C1038 C 0.02527 0.01816 0.44835 0.0
C1039 C 0.04166 0.99035 0.43569 0.0
C1040 C 0.05505 0.98253 0.39496 0.0
H1041 H 0.12168 0.98987 0.31935 0.0
H1042 H 0.11409 0.98484 0.35312 0.0
H1043 H 0.05374 0.97219 0.36609 0.0
H1044 H 0.0372 0.04512 0.43946 0.0
H1045 H 0.06194 0.03129 0.41919 0.0
H1046 H 0.09055 0.01118 0.41317 0.0
C1047 C 0.10271 0.98902 0.34352 0.0
C1048 C 0.06217 0.98026 0.37643 0.0
C1049 C 0.10702 0.99192 0.32424 0.0
C1050 C 0.03859 0.0298 0.43891 0.0
C1051 C 0.05289 0.02184 0.42743 0.0
C1052 C 0.08274 0.0021 0.40319 0.0
C1053 C 0.08383 0.99147 0.35031 0.0
C1054 C 0.07912 0.98969 0.37083 0.0
C1055 C 0.05392 0.00204 0.42487 0.0
C1056 C 0.0647 0.9944 0.40819 0.0
H1057 H 0.06229 0.00452 0.30899 0.0
H1058 H 0.0548 -0.00063 0.34248 0.0
H1059 H 0.10307 0.0071 0.38071 0.0
H1060 H 0.01749 0.98918 0.45475 0.0
H1061 H 0.04222 0.97503 0.43407 0.0
C1062 C 0.23813 0.82459 0.53762 0.0
C1063 C 0.24833 0.84185 0.53946 0.0
C1064 C 0.23717 0.81198 0.55286 0.0
C1065 C 0.25965 0.80041 0.5993 0.0
H1066 H 0.20839 0.78296 0.61295 0.0
C1067 C 0.21705 0.78162 0.67156 0.0
C1068 C 0.2301 0.76958 0.68072 0.0
C1069 C 0.21923 0.78583 0.65228 0.0
C1070 C 0.22282 0.78758 0.60923 0.0
H1071 H 0.2661 0.85907 0.5585 0.0
H1072 H 0.26438 0.83716 0.58503 0.0
H1073 H 0.21341 0.79946 0.58293 0.0
H1074 H 0.25472 0.75126 0.67619 0.0
H1075 H 0.25885 0.7591 0.64247 0.0
H1076 H 0.26887 0.78932 0.62606 0.0
C1077 C 0.25722 0.83327 0.57179 0.0
C1078 C 0.22573 0.7969 0.59197 0.0
C1079 C 0.25808 0.84592 0.55663 0.0
C1080 C 0.24472 0.76096 0.66975 0.0
C1081 C 0.24706 0.76539 0.65043 0.0
C1082 C 0.25675 0.79099 0.61653 0.0
C1083 C 0.24652 0.81629 0.5702 0.0
C1084 C 0.24407 0.80393 0.58708 0.0
C1085 C 0.23455 0.77819 0.64161 0.0
C1086 C 0.2382 0.78499 0.62194 0.0
H1087 H 0.23051 0.82102 0.52455 0.0
H1088 H 0.22894 0.79893 0.55115 0.0
H1089 H 0.274 0.80545 0.59581 0.0
H1090 H 0.20547 0.7884 0.67943 0.0
H1091 H 0.20943 0.79585 0.64598 0.0
C1092 C 0.40553 0.9929 0.82547 0.0
C1093 C 0.41321 0.97924 0.81285 0.0
C1094 C 0.40573 0.98996 0.84514 0.0
C1095 C 0.43163 0.96208 0.88096 0.0
H1096 H 0.39533 0.98633 0.91558 0.0
C1097 C 0.45338 0.96858 0.95652 0.0
C1098 C 0.45531 0.98794 0.96102 0.0
C1099 C 0.44018 0.96256 0.94269 0.0
C1100 C 0.40539 0.97922 0.90608 0.0
H1101 H 0.42616 0.95139 0.81071 0.0
H1102 H 0.42587 0.94588 0.84493 0.0
H1103 H 0.38861 0.98516 0.88129 0.0
H1104 H 0.44373 0.01595 0.95672 0.0
H1105 H 0.42092 0.00561 0.93221 0.0
H1106 H 0.44871 0.95666 0.90541 0.0
C1107 C 0.42035 0.95921 0.8398 0.0
C1108 C 0.40168 0.97872 0.88644 0.0
C1109 C 0.42057 0.96235 0.82018 0.0
C1110 C 0.44225 0.00091 0.95352 0.0
C1111 C 0.42919 0.99494 0.93948 0.0
C1112 C 0.43517 0.96235 0.9005 0.0
C1113 C 0.41323 0.97311 0.85259 0.0
C1114 C 0.41517 0.97079 0.87358 0.0
C1115 C 0.42921 0.97596 0.93286 0.0
C1116 C 0.42248 0.97154 0.91322 0.0
H1117 H 0.3997 0.00602 0.82015 0.0
H1118 H 0.40048 0.00117 0.85449 0.0
H1119 H 0.44255 0.95613 0.87162 0.0
H1120 H 0.46342 0.95841 0.9622 0.0
H1121 H 0.44019 0.94779 0.93813 0.0
C1122 C 0.26143 0.15546 0.05781 0.0
C1123 C 0.25577 0.13625 0.05725 0.0
C1124 C 0.26472 0.1648 0.07527 0.0
C1125 C 0.25276 0.16172 0.12666 0.0
H1126 H 0.29172 0.20127 0.13143 0.0
C1127 C 0.26378 0.20447 0.19688 0.0
C1128 C 0.2635 0.22426 0.1945 0.0
C1129 C 0.26584 0.19227 0.18105 0.0
C1130 C 0.2808 0.19023 0.13031 0.0
H1131 H 0.24965 0.11165 0.07463 0.0
H1132 H 0.25576 0.12784 0.10503 0.0
H1133 H 0.2895 0.18248 0.10193 0.0
H1134 H 0.26624 0.24678 0.17382 0.0
H1135 H 0.27003 0.22555 0.14633 0.0
H1136 H 0.24398 0.16963 0.155 0.0
C1137 C 0.25726 0.13581 0.092 0.0
C1138 C 0.27945 0.17953 0.11338 0.0
C1139 C 0.25384 0.1265 0.07454 0.0
C1140 C 0.26631 0.2316 0.17613 0.0
C1141 C 0.26861 0.21944 0.16038 0.0
C1142 C 0.25422 0.17232 0.14364 0.0
C1143 C 0.26257 0.15513 0.0926 0.0
C1144 C 0.26516 0.16539 0.11119 0.0
C1145 C 0.26795 0.19965 0.1626 0.0
C1146 C 0.26801 0.18694 0.1455 0.0
H1147 H 0.26299 0.16342 0.04477 0.0
H1148 H 0.26847 0.17975 0.07516 0.0
H1149 H 0.2414 0.15114 0.12543 0.0
H1150 H 0.26157 0.19837 0.21084 0.0
H1151 H 0.26543 0.17707 0.18318 0.0
C1152 C 0.17313 0.11705 0.99336 0.0
C1153 C 0.18831 0.10769 0.98393 0.0
C1154 C 0.15409 0.11072 0.99096 0.0
C1155 C 0.12732 0.06731 0.97565 0.0
H1156 H 0.08253 0.09992 0.97763 0.0
C1157 C 0.05458 0.03485 0.96222 0.0
C1158 C 0.04229 0.03633 0.9781 0.0
C1159 C 0.06988 0.04754 0.96006 0.0
C1160 C 0.09496 0.09073 0.97702 0.0
H1161 H 0.19545 0.08525 0.96369 0.0
H1162 H 0.1624 0.0748 0.95879 0.0
H1163 H 0.11498 0.11401 0.97946 0.0
H1164 H 0.03492 0.05342 0.00301 0.0
H1165 H 0.062 0.07571 -0.00071 0.0
H1166 H 0.10752 0.04412 0.97306 0.0
C1167 C 0.16508 0.08646 0.96871 0.0
C1168 C 0.11353 0.09873 0.97818 0.0
C1169 C 0.18406 0.09251 0.97142 0.0
C1170 C 0.04417 0.05206 0.99059 0.0
C1171 C 0.05968 0.06476 0.98849 0.0
C1172 C 0.10894 0.05943 0.97421 0.0
C1173 C 0.14986 0.09511 0.97883 0.0
C1174 C 0.12996 0.08708 0.97743 0.0
C1175 C 0.0733 0.06185 0.97384 0.0
C1176 C 0.09257 0.071 0.97479 0.0
H1177 H 0.17603 0.12882 0.00309 0.0
H1178 H 0.14281 0.11766 -0.0009 0.0
H1179 H 0.13948 0.05777 0.97569 0.0
H1180 H 0.05331 0.02291 0.95233 0.0
H1181 H 0.07999 0.04522 0.94845 0.0
C1182 C 0.68071 0.41047 0.00517 0.0
C1183 C 0.69933 0.41719 0.00947 0.0
C1184 C 0.66525 0.42298 0.00455 0.0
C1185 C 0.64753 0.46804 0.02294 0.0
H1186 H 0.61154 0.46306 0.98081 0.0
C1187 C 0.56733 0.48601 0.02764 0.0
C1188 C 0.55788 0.49301 0.01151 0.0
C1189 C 0.58696 0.48199 0.02697 0.0
C1190 C 0.62162 0.46493 0.99249 0.0
H1191 H 0.71629 0.44223 0.01692 0.0
H1192 H 0.68899 0.46409 0.01623 0.0
H1193 H 0.64135 0.44497 0.98018 0.0
H1194 H 0.56185 0.50255 0.98244 0.0
H1195 H 0.59624 0.49526 0.98119 0.0
H1196 H 0.62737 0.48743 0.0356 0.0
C1197 C 0.68652 0.44915 0.01317 0.0
C1198 C 0.63856 0.4544 0.99223 0.0
C1199 C 0.70208 0.43664 0.01355 0.0
C1200 C 0.56874 0.49715 0.9951 0.0
C1201 C 0.58838 0.49289 0.99434 0.0
C1202 C 0.63046 0.47845 0.0233 0.0
C1203 C 0.66801 0.44243 0.00842 0.0
C1204 C 0.65141 0.45547 0.00767 0.0
C1205 C 0.59753 0.48471 0.01009 0.0
C1206 C 0.61711 0.47662 0.00829 0.0
H1207 H 0.6781 0.3956 0.00197 0.0
H1208 H 0.65106 0.41738 0.00116 0.0
H1209 H 0.65722 0.4691 0.03502 0.0
H1210 H 0.55937 0.48281 0.04055 0.0
H1211 H 0.59355 0.47557 0.03928 0.0
C1212 C 0.84511 0.44145 0.25407 0.0
C1213 C 0.86419 0.44011 0.24745 0.0
C1214 C 0.83297 0.42557 0.25356 0.0
C1215 C 0.82592 0.37888 0.2307 0.0
H1216 H 0.79748 0.36719 0.27688 0.0
C1217 C 0.7853 0.30818 0.23898 0.0
C1218 C 0.7669 0.30904 0.24715 0.0
C1219 C 0.79753 0.32397 0.23959 0.0
C1220 C 0.80517 0.37037 0.26383 0.0
H1221 H 0.88528 0.42127 0.23448 0.0
H1222 H 0.86401 0.39359 0.23355 0.0
H1223 H 0.8176 0.39572 0.2759 0.0
H1224 H 0.74663 0.32704 0.26234 0.0
H1225 H 0.76782 0.35485 0.26317 0.0
H1226 H 0.81339 0.35369 0.21853 0.0
C1227 C 0.85849 0.40692 0.23912 0.0
C1228 C 0.81666 0.38669 0.26326 0.0
C1229 C 0.87068 0.42275 0.23974 0.0
C1230 C 0.76087 0.32597 0.25607 0.0
C1231 C 0.77304 0.34182 0.25664 0.0
C1232 C 0.81436 0.36262 0.23123 0.0
C1233 C 0.83963 0.40813 0.24629 0.0
C1234 C 0.82715 0.39107 0.2467 0.0
C1235 C 0.79143 0.34104 0.24823 0.0
C1236 C 0.80389 0.35817 0.24781 0.0
H1237 H 0.83966 0.45462 0.26007 0.0
H1238 H 0.81839 0.42691 0.25896 0.0
H1239 H 0.83372 0.38206 0.2177 0.0
H1240 H 0.78987 0.29561 0.23135 0.0
H1241 H 0.81165 0.32288 0.23307 0.0
C1242 C 0.80475 0.58424 0.48052 0.0
C1243 C 0.79093 0.57508 0.49196 0.0
C1244 C 0.82297 0.57635 0.47774 0.0
C1245 C 0.85169 0.53247 0.48564 0.0
H1246 H 0.89354 0.56833 0.49446 0.0
C1247 C 0.91824 0.51699 0.52908 0.0
C1248 C 0.93641 0.52341 0.52312 0.0
C1249 C 0.90189 0.52101 0.51849 0.0
C1250 C 0.8821 0.55817 0.49145 0.0
H1251 H 0.78516 0.55003 0.50875 0.0
H1252 H 0.817 0.53654 0.50438 0.0
H1253 H 0.86125 0.58005 0.48847 0.0
H1254 H 0.95201 0.53857 0.50125 0.0
H1255 H 0.92295 0.54663 0.48304 0.0
H1256 H 0.87246 0.51064 0.4902 0.0
C1257 C 0.81371 0.54964 0.4972 0.0
C1258 C 0.86355 0.56485 0.48803 0.0
C1259 C 0.79546 0.55746 0.49988 0.0
C1260 C 0.9381 0.53352 0.50608 0.0
C1261 C 0.92155 0.53808 0.4957 0.0
C1262 C 0.8702 0.5258 0.48925 0.0
C1263 C 0.82783 0.55916 0.48641 0.0
C1264 C 0.84797 0.55208 0.48592 0.0
C1265 C 0.9033 0.53195 0.50195 0.0
C1266 C 0.88538 0.53862 0.49299 0.0
H1267 H 0.80164 0.59774 0.47401 0.0
H1268 H 0.83338 0.58391 0.4691 0.0
H1269 H 0.84012 0.52224 0.48358 0.0
H1270 H 0.91663 0.50906 0.54215 0.0
H1271 H 0.88798 0.51637 0.5238 0.0
C1272 C 0.16632 0.05529 0.24563 0.0
C1273 C 0.14608 0.05554 0.24645 0.0
C1274 C 0.17682 0.0722 0.24349 0.0
C1275 C 0.17363 0.12353 0.25244 0.0
H1276 H 0.21775 0.12639 0.21852 0.0
C1277 C 0.22142 0.19015 0.25344 0.0
C1278 C 0.24108 0.18612 0.25497 0.0
C1279 C 0.20846 0.17602 0.24718 0.0
C1280 C 0.20548 0.12584 0.22809 0.0
H1281 H 0.12106 0.07385 0.24567 0.0
H1282 H 0.13938 0.10321 0.24218 0.0
H1283 H 0.19813 0.09745 0.21909 0.0
H1284 H 0.2629 0.1648 0.25025 0.0
H1285 H 0.24057 0.14021 0.23953 0.0
H1286 H 0.18136 0.15144 0.26216 0.0
C1287 C 0.14712 0.08996 0.24317 0.0
C1288 C 0.19428 0.10924 0.22843 0.0
C1289 C 0.13663 0.07309 0.24513 0.0
C1290 C 0.24779 0.16829 0.2489 0.0
C1291 C 0.23493 0.1542 0.24271 0.0
C1292 C 0.18492 0.14004 0.25224 0.0
C1293 C 0.16732 0.08973 0.24232 0.0
C1294 C 0.17844 0.10778 0.24087 0.0
C1295 C 0.21499 0.15758 0.24259 0.0
C1296 C 0.20125 0.1413 0.24036 0.0
H1297 H 0.17405 0.04203 0.24654 0.0
H1298 H 0.1924 0.0716 0.2431 0.0
H1299 H 0.1616 0.12279 0.26229 0.0
H1300 H 0.21586 0.20357 0.25865 0.0
H1301 H 0.19323 0.17923 0.247 0.0
C1302 C 0.31781 0.91229 0.46102 0.0
C1303 C 0.31033 0.90728 0.47887 0.0
C1304 C 0.3376 0.91247 0.45784 0.0
C1305 C 0.38551 0.90069 0.47888 0.0
H1306 H 0.40074 0.94517 0.45047 0.0
C1307 C 0.45422 0.94523 0.48928 0.0
C1308 C 0.45949 0.95717 0.47426 0.0
C1309 C 0.43986 0.93143 0.48647 0.0
C1310 C 0.39693 0.93233 0.45797 0.0
H1311 H 0.31741 0.89766 0.50719 0.0
H1312 H 0.35237 0.89929 0.50214 0.0
H1313 H 0.36724 0.93694 0.45282 0.0
H1314 H 0.45664 0.96233 0.44406 0.0
H1315 H 0.43247 0.93748 0.4388 0.0
H1316 H 0.41558 0.89714 0.48506 0.0
C1317 C 0.34292 0.9025 0.49036 0.0
C1318 C 0.37753 0.92759 0.45937 0.0
C1319 C 0.32295 0.90177 0.49336 0.0
C1320 C 0.45268 0.95324 0.45581 0.0
C1321 C 0.43873 0.93915 0.4529 0.0
C1322 C 0.4051 0.90559 0.47762 0.0
C1323 C 0.35047 0.90829 0.47265 0.0
C1324 C 0.37146 0.91188 0.47003 0.0
C1325 C 0.43088 0.92942 0.46855 0.0
C1326 C 0.41096 0.92165 0.46734 0.0
H1327 H 0.30831 0.91606 0.44944 0.0
H1328 H 0.3428 0.91634 0.44382 0.0
H1329 H 0.38136 0.88837 0.48705 0.0
H1330 H 0.45932 0.94816 0.50366 0.0
H1331 H 0.43425 0.92411 0.49882 0.0
C1332 C 0.84014 0.55646 0.24853 0.0
C1333 C 0.85516 0.55358 0.26154 0.0
C1334 C 0.83107 0.57406 0.24768 0.0
C1335 C 0.83983 0.62455 0.26051 0.0
H1336 H 0.78616 0.62979 0.24652 0.0
C1337 C 0.779 0.68699 0.25509 0.0
C1338 C 0.79074 0.7016 0.24789 0.0
C1339 C 0.78602 0.66854 0.25654 0.0
C1340 C 0.80112 0.6286 0.25064 0.0
H1341 H 0.87175 0.56639 0.2846 0.0
H1342 H 0.85543 0.59684 0.2837 0.0
H1343 H 0.79929 0.59829 0.25141 0.0
H1344 H 0.81866 0.70796 0.23539 0.0
H1345 H 0.83058 0.67571 0.23716 0.0
H1346 H 0.84152 0.6548 0.26055 0.0
C1347 C 0.85109 0.58579 0.27365 0.0
C1348 C 0.80872 0.6105 0.2532 0.0
C1349 C 0.86036 0.56831 0.27427 0.0
C1350 C 0.80932 0.69713 0.24129 0.0
C1351 C 0.81622 0.67864 0.24246 0.0
C1352 C 0.83218 0.64261 0.2582 0.0
C1353 C 0.83666 0.58905 0.26003 0.0
C1354 C 0.82821 0.60825 0.25807 0.0
C1355 C 0.80483 0.6642 0.25049 0.0
C1356 C 0.81278 0.64488 0.25307 0.0
H1357 H 0.8359 0.54535 0.23848 0.0
H1358 H 0.82019 0.57608 0.23686 0.0
H1359 H 0.85497 0.62341 0.26394 0.0
H1360 H 0.76451 0.68983 0.26005 0.0
H1361 H 0.77687 0.65783 0.26292 0.0
C1362 C 0.67638 0.43439 0.74779 0.0
C1363 C 0.65813 0.43711 0.756 0.0
C1364 C 0.68587 0.41708 0.74972 0.0
C1365 C 0.67663 0.36633 0.76062 0.0
H1366 H 0.73235 0.36517 0.76283 0.0
C1367 C 0.74651 0.31201 0.76044 0.0
C1368 C 0.74019 0.29935 0.74613 0.0
C1369 C 0.73469 0.32679 0.76673 0.0
C1370 C 0.71675 0.3651 0.76266 0.0
H1371 H 0.63575 0.42403 0.77316 0.0
H1372 H 0.6525 0.39408 0.77697 0.0
H1373 H 0.71601 0.39542 0.76403 0.0
H1374 H 0.7165 0.29146 0.72763 0.0
H1375 H 0.69594 0.3176 0.73802 0.0
H1376 H 0.67742 0.33593 0.75954 0.0
C1377 C 0.65932 0.40509 0.76862 0.0
C1378 C 0.70738 0.38257 0.76296 0.0
C1379 C 0.64976 0.42232 0.76653 0.0
C1380 C 0.72145 0.30089 0.739 0.0
C1381 C 0.70971 0.31592 0.74499 0.0
C1382 C 0.68602 0.3488 0.76051 0.0
C1383 C 0.67742 0.40215 0.76008 0.0
C1384 C 0.68723 0.38346 0.76149 0.0
C1385 C 0.71658 0.32962 0.75825 0.0
C1386 C 0.70625 0.34796 0.76112 0.0
H1387 H 0.68315 0.44548 0.73951 0.0
H1388 H 0.69964 0.41526 0.74266 0.0
H1389 H 0.66109 0.36641 0.75935 0.0
H1390 H 0.76111 0.31126 0.76581 0.0
H1391 H 0.74027 0.33671 0.77735 0.0
C1392 C -0.00101 0.80826 0.91944 0.0
C1393 C 0.00589 0.80978 0.90061 0.0
C1394 C 0.99344 0.82449 0.92983 0.0
C1395 C 0.97931 0.87482 0.92404 0.0
H1396 H 0.00047 0.88193 0.97481 0.0
C1397 C -0.00299 0.94752 0.95729 0.0
C1398 C -0.00149 0.94939 0.97717 0.0
C1399 C 0.99072 0.93039 0.949 0.0
C1400 C 0.99393 0.88008 0.96088 0.0
H1401 H 0.01218 0.82962 0.87793 0.0
H1402 H 0.00265 0.85774 0.89602 0.0
H1403 H 0.00422 0.85157 0.95834 0.0
H1404 H 0.99326 0.93571 0.00413 0.0
H1405 H 0.98143 0.90598 0.98977 0.0
H1406 H 0.96953 0.90355 0.92634 0.0
C1407 C 0.00132 0.84402 0.90271 0.0
C1408 C -0.0038 0.86263 0.95139 0.0
C1409 C 0.007 0.82787 0.89241 0.0
C1410 C 0.99189 0.93463 0.98873 0.0
C1411 C 0.98543 0.91753 0.98048 0.0
C1412 C 0.97694 0.89226 0.93358 0.0
C1413 C 0.99449 0.84255 0.92153 0.0
C1414 C 0.98947 0.86001 0.93263 0.0
C1415 C 0.98593 0.9148 0.96051 0.0
C1416 C 0.98478 0.89533 0.95188 0.0
H1417 H -0.00212 0.79454 0.92617 0.0
H1418 H 0.9882 0.8229 0.9443 0.0
H1419 H 0.97363 0.8731 0.90972 0.0
H1420 H 0.0025 0.95861 0.94813 0.0
H1421 H 0.99144 0.92887 0.9336 0.0
C1422 C 0.97066 0.24033 0.71494 0.0
C1423 C 0.97165 0.24697 0.69609 0.0
C1424 C 0.95287 0.23852 0.72422 0.0
C1425 C 0.9019 0.23108 0.71326 0.0
H1426 H 0.89157 0.25086 0.76422 0.0
C1427 C 0.83244 0.25995 0.75326 0.0
C1428 C 0.81909 0.24591 0.74763 0.0
C1429 C 0.85217 0.25642 0.75226 0.0
C1430 C 0.89433 0.24507 0.75007 0.0
H1431 H 0.95479 0.2576 0.67252 0.0
H1432 H 0.92389 0.25439 0.68869 0.0
H1433 H 0.92418 0.25322 0.75089 0.0
H1434 H 0.81566 0.21693 0.73752 0.0
H1435 H 0.8502 0.21048 0.73614 0.0
H1436 H 0.87208 0.22362 0.71195 0.0
C1437 C 0.93684 0.2504 0.69619 0.0
C1438 C 0.91296 0.24639 0.74248 0.0
C1439 C 0.95457 0.25238 0.687 0.0
C1440 C 0.82566 0.22777 0.74247 0.0
C1441 C 0.84544 0.22422 0.74138 0.0
C1442 C 0.88338 0.22963 0.72087 0.0
C1443 C 0.93578 0.24311 0.71473 0.0
C1444 C 0.91674 0.23992 0.72377 0.0
C1445 C 0.85887 0.23882 0.74535 0.0
C1446 C 0.87925 0.23706 0.73915 0.0
H1447 H 0.98355 0.23608 0.72237 0.0
H1448 H 0.95243 0.2329 0.73853 0.0
H1449 H 0.90451 0.22571 0.69891 0.0
H1450 H 0.82765 0.27412 0.7571 0.0
H1451 H 0.86209 0.26802 0.75527 0.0
C1452 C 0.50258 0.18234 0.39958 0.0
C1453 C 0.50286 0.19928 0.41049 0.0
C1454 C 0.50224 0.16471 0.40847 0.0
C1455 C 0.48862 0.1413 0.45284 0.0
H1456 H 0.52145 0.10078 0.43394 0.0
C1457 C 0.48422 0.06795 0.48648 0.0
C1458 C 0.48343 0.05256 0.47359 0.0
C1459 C 0.49053 0.08576 0.48045 0.0
C1460 C 0.51211 0.1119 0.43933 0.0
H1461 H 0.50271 0.21097 0.43931 0.0
H1462 H 0.50176 0.18008 0.45488 0.0
H1463 H 0.52373 0.13229 0.41991 0.0
H1464 H 0.48901 0.04322 0.44459 0.0
H1465 H 0.49973 0.07443 0.43375 0.0
H1466 H 0.4764 0.12093 0.4717 0.0
C1467 C 0.50189 0.18051 0.43942 0.0
C1468 C 0.51343 0.12995 0.4313 0.0
C1469 C 0.50242 0.19818 0.43051 0.0
C1470 C 0.48991 0.05489 0.45482 0.0
C1471 C 0.49602 0.07279 0.44867 0.0
C1472 C 0.48717 0.12324 0.46075 0.0
C1473 C 0.502 0.16359 0.42848 0.0
C1474 C 0.50153 0.14477 0.43781 0.0
C1475 C 0.49572 0.08862 0.46125 0.0
C1476 C 0.49874 0.10822 0.45397 0.0
H1477 H 0.50296 0.18266 0.38412 0.0
H1478 H 0.50202 0.15194 0.39966 0.0
H1479 H 0.47911 0.15237 0.45802 0.0
H1480 H 0.4791 0.06639 0.50102 0.0
H1481 H 0.49058 0.09747 0.49066 0.0
C1482 C 0.58681 0.75596 0.12602 0.0
C1483 C 0.57355 0.76067 0.14054 0.0
C1484 C 0.60536 0.74996 0.13062 0.0
C1485 C 0.63102 0.72731 0.16958 0.0
H1486 H 0.67773 0.74854 0.14782 0.0
C1487 C 0.70802 0.74449 0.19996 0.0
C1488 C 0.71012 0.72828 0.21113 0.0
C1489 C 0.69515 0.74439 0.18471 0.0
C1490 C 0.66481 0.74229 0.15385 0.0
H1491 H 0.56957 0.76362 0.17118 0.0
H1492 H 0.60189 0.75324 0.17917 0.0
H1493 H 0.64632 0.75788 0.13532 0.0
H1494 H 0.70209 0.69874 0.21418 0.0
H1495 H 0.67991 0.6983 0.1871 0.0
H1496 H 0.64903 0.71269 0.18888 0.0
C1497 C 0.59786 0.7539 0.16426 0.0
C1498 C 0.64688 0.7476 0.14666 0.0
C1499 C 0.57941 0.76 0.15968 0.0
C1500 C 0.70071 0.71139 0.20566 0.0
C1501 C 0.68795 0.71121 0.19027 0.0
C1502 C 0.64884 0.72201 0.17672 0.0
C1503 C 0.61085 0.74842 0.14981 0.0
C1504 C 0.62984 0.74074 0.15504 0.0
C1505 C 0.68405 0.72808 0.1805 0.0
C1506 C 0.66594 0.72999 0.16946 0.0
H1507 H 0.5827 0.75641 0.11112 0.0
H1508 H 0.61515 0.74588 0.11924 0.0
H1509 H 0.61809 0.72151 0.17602 0.0
H1510 H 0.71457 0.75786 0.20436 0.0
H1511 H 0.69243 0.7577 0.17768 0.0
C1512 C -0.00191 0.19161 0.60784 0.0
C1513 C 0.00799 0.19112 0.6253 0.0
C1514 C -0.00514 0.17493 0.59729 0.0
C1515 C 0.01437 0.12705 0.59011 0.0
H1516 H 0.96763 0.11941 0.56068 0.0
C1517 C 0.00127 0.06168 0.54021 0.0
C1518 C 0.99471 0.06624 0.52184 0.0
C1519 C 0.00182 0.07552 0.55473 0.0
C1520 C 0.98076 0.12138 0.56883 0.0
H1521 H 0.02169 0.17263 0.64569 0.0
H1522 H 0.01583 0.14351 0.62732 0.0
H1523 H 0.96997 0.14617 0.5831 0.0
H1524 H 0.9836 0.08895 0.50441 0.0
H1525 H 0.98465 0.11293 0.52965 0.0
H1526 H 0.02523 0.10236 0.57557 0.0
C1527 C 0.01085 0.15684 0.62167 0.0
C1528 C 0.98212 0.1367 0.58162 0.0
C1529 C 0.01414 0.17353 0.63222 0.0
C1530 C 0.98876 0.08491 0.51834 0.0
C1531 C 0.98918 0.09864 0.53286 0.0
C1532 C 0.01297 0.11165 0.57737 0.0
C1533 C 0.00138 0.15739 0.60399 0.0
C1534 C -0.00089 0.13996 0.59206 0.0
C1535 C -0.00435 0.09409 0.55118 0.0
C1536 C -0.00368 0.10896 0.56629 0.0
H1537 H 0.99319 0.20492 0.60209 0.0
H1538 H 0.98776 0.17588 0.58358 0.0
H1539 H 0.02774 0.12928 0.5978 0.0
H1540 H 0.00588 0.04742 0.54342 0.0
H1541 H 0.00682 0.07166 0.56878 0.0
C1542 C 0.57646 0.23496 0.34715 0.0
C1543 C 0.57329 0.24387 0.36495 0.0
C1544 C 0.59508 0.23095 0.34095 0.0
C1545 C 0.64361 0.24931 0.3449 0.0
H1546 H 0.65476 0.20559 0.31247 0.0
C1547 C 0.70536 0.25331 0.29166 0.0
C1548 C 0.6987 0.24952 0.27312 0.0
C1549 C 0.69496 0.24678 0.30744 0.0
C1550 C 0.652 0.21779 0.32165 0.0
H1551 H 0.58713 0.25503 0.39052 0.0
H1552 H 0.61999 0.24834 0.3794 0.0
H1553 H 0.62607 0.20544 0.33271 0.0
H1554 H 0.67673 0.23546 0.25617 0.0
H1555 H 0.65861 0.22388 0.28349 0.0
H1556 H 0.66871 0.26224 0.33292 0.0
C1557 C 0.60793 0.2444 0.37035 0.0
C1558 C 0.63558 0.21771 0.33322 0.0
C1559 C 0.58917 0.24823 0.37669 0.0
C1560 C 0.68231 0.23813 0.27041 0.0
C1561 C 0.67198 0.23149 0.2861 0.0
C1562 C 0.66001 0.24941 0.33329 0.0
C1563 C 0.61105 0.23586 0.35232 0.0
C1564 C 0.63071 0.23386 0.34421 0.0
C1565 C 0.67768 0.23651 0.30481 0.0
C1566 C 0.66383 0.23404 0.32081 0.0
H1567 H 0.56452 0.2313 0.33782 0.0
H1568 H 0.59699 0.2247 0.32684 0.0
H1569 H 0.64022 0.26199 0.35315 0.0
H1570 H 0.71776 0.2625 0.29398 0.0
H1571 H 0.6998 0.25076 0.32165 0.0
C1572 C 0.489 0.82797 0.10609 0.0
C1573 C 0.4951 0.81153 0.0963 0.0
C1574 C 0.48581 0.84473 0.09628 0.0
C1575 C 0.50139 0.86987 0.05366 0.0
H1576 H 0.46084 0.90454 0.06893 0.0
C1577 C 0.49421 0.9464 0.02402 0.0
C1578 C 0.49111 0.96053 0.03811 0.0
C1579 C 0.49303 0.92713 0.02861 0.0
C1580 C 0.47225 0.89502 0.06451 0.0
H1581 H 0.50207 0.79957 0.06843 0.0
H1582 H 0.49653 0.82907 0.0512 0.0
H1583 H 0.46079 0.87229 0.0811 0.0
H1584 H 0.48445 0.96533 0.06814 0.0
H1585 H 0.48241 0.93195 0.07601 0.0
H1586 H 0.51311 0.89287 0.03746 0.0
C1587 C 0.49431 0.82892 0.06651 0.0
C1588 C 0.47221 0.87655 0.07147 0.0
C1589 C 0.49736 0.81203 0.07635 0.0
C1590 C 0.48686 0.95492 0.05686 0.0
C1591 C 0.48555 0.93574 0.06138 0.0
C1592 C 0.50141 0.88839 0.04665 0.0
C1593 C 0.48872 0.84551 0.07643 0.0
C1594 C 0.4871 0.86396 0.06659 0.0
C1595 C 0.48851 0.92163 0.04731 0.0
C1596 C 0.48715 0.90131 0.0525 0.0
H1597 H 0.4871 0.82805 0.12145 0.0
H1598 H 0.48178 0.85731 0.10439 0.0
H1599 H 0.51314 0.86054 0.04974 0.0
H1600 H 0.49733 0.95018 0.00939 0.0
H1601 H 0.49532 0.91654 0.01747 0.0
C1602 C 0.95792 0.76246 0.81608 0.0
C1603 C 0.96269 0.75445 0.83373 0.0
C1604 C 0.93911 0.76114 0.80904 0.0
C1605 C 0.88927 0.75436 0.82545 0.0
H1606 H 0.87832 0.74078 0.77264 0.0
C1607 C 0.81454 0.72968 0.8022 0.0
C1608 C 0.80674 0.73666 0.78519 0.0
C1609 C 0.83373 0.73307 0.80688 0.0
C1610 C 0.88118 0.74487 0.78734 0.0
H1611 H 0.9515 0.73842 0.85762 0.0
H1612 H 0.91879 0.73607 0.84531 0.0
H1613 H 0.9118 0.74409 0.78324 0.0
H1614 H 0.81336 0.7522 0.75942 0.0
H1615 H 0.84714 0.7583 0.7678 0.0
H1616 H 0.8588 0.75499 0.82968 0.0
C1617 C 0.92954 0.74358 0.83703 0.0
C1618 C 0.90031 0.74672 0.79342 0.0
C1619 C 0.94832 0.74483 0.84402 0.0
C1620 C 0.81883 0.7468 0.77273 0.0
C1621 C 0.83819 0.75019 0.77746 0.0
C1622 C 0.87023 0.75255 0.81939 0.0
C1623 C 0.92469 0.75189 0.81957 0.0
C1624 C 0.90452 0.75111 0.81264 0.0
C1625 C 0.84572 0.74354 0.79473 0.0
C1626 C 0.86597 0.74738 0.80039 0.0
H1627 H 0.96864 0.76996 0.80776 0.0
H1628 H 0.93577 0.76776 0.7956 0.0
H1629 H 0.89205 0.75821 0.84023 0.0
H1630 H 0.80579 0.72171 0.81214 0.0
H1631 H 0.83921 0.72739 0.82009 0.0
C1632 C 0.91779 0.00888 0.79842 0.0
C1633 C 0.92185 0.99168 0.78892 0.0
C1634 C 0.92479 0.0124 0.81682 0.0
C1635 C 0.95822 0.99351 0.8539 0.0
H1636 H 0.92397 0.02103 0.88797 0.0
C1637 C 0.97691 0.00729 0.93351 0.0
C1638 C 0.96157 0.00751 0.94661 0.0
C1639 C 0.97331 0.0064 0.91387 0.0
C1640 C 0.93363 0.01308 0.87876 0.0
H1641 H 0.93658 0.96478 0.791 0.0
H1642 H 0.94788 0.97037 0.82344 0.0
H1643 H 0.91566 0.01742 0.85464 0.0
H1644 H 0.93051 0.00614 0.94958 0.0
H1645 H 0.92422 0.00357 0.91557 0.0
H1646 H 0.97546 0.98799 0.87842 0.0
C1647 C 0.93995 0.98153 0.81656 0.0
C1648 C 0.92905 0.01135 0.85944 0.0
C1649 C 0.93335 0.97823 0.79797 0.0
C1650 C 0.94261 0.00629 0.93978 0.0
C1651 C 0.93902 0.00498 0.92023 0.0
C1652 C 0.9626 0.99489 0.87335 0.0
C1653 C 0.93555 -0.00143 0.82635 0.0
C1654 C 0.94119 0.00141 0.84673 0.0
C1655 C 0.95429 0.00532 0.90696 0.0
C1656 C 0.95024 0.00453 0.88609 0.0
H1657 H 0.90914 0.01959 0.79163 0.0
H1658 H 0.92154 0.02591 0.82362 0.0
H1659 H 0.96816 0.98607 0.84455 0.0
H1660 H 0.99168 0.00831 0.93842 0.0
H1661 H 0.98545 0.00694 0.90415 0.0
C1662 C 0.73308 0.12758 0.56849 0.0
C1663 C 0.74061 0.13498 0.55145 0.0
C1664 C 0.73483 0.13782 0.58567 0.0
C1665 C 0.74005 0.18665 0.60324 0.0
H1666 H 0.75683 0.16447 0.6507 0.0
C1667 C 0.76172 0.23278 0.66768 0.0
C1668 C 0.7563 0.22686 0.68602 0.0
C1669 C 0.75892 0.22088 0.65185 0.0
C1670 C 0.75184 0.17079 0.63762 0.0
H1671 H 0.7565 0.15859 0.53924 0.0
H1672 H 0.75949 0.17634 0.56914 0.0
H1673 H 0.754 0.14448 0.62193 0.0
H1674 H 0.74367 0.20368 0.70206 0.0
H1675 H 0.73853 0.183 0.67425 0.0
H1676 H 0.73777 0.21288 0.61874 0.0
C1677 C 0.75206 0.16275 0.56916 0.0
C1678 C 0.75028 0.15936 0.62118 0.0
C1679 C 0.75043 0.15251 0.55206 0.0
C1680 C 0.74798 0.20872 0.68813 0.0
C1681 C 0.74514 0.1968 0.67223 0.0
C1682 C 0.74149 0.19801 0.61964 0.0
C1683 C 0.744 0.15567 0.58605 0.0
C1684 C 0.74469 0.1673 0.60379 0.0
C1685 C 0.75056 0.20279 0.65392 0.0
C1686 C 0.74772 0.19029 0.63693 0.0
H1687 H 0.72548 0.11409 0.56851 0.0
H1688 H 0.72848 0.13208 0.59852 0.0
H1689 H 0.7353 0.19302 0.59009 0.0
H1690 H 0.76828 0.24659 0.66551 0.0
H1691 H 0.76359 0.22578 0.63798 0.0
C1692 C 0.54696 0.00702 0.28381 0.0
C1693 C 0.56446 -0.00193 0.27922 0.0
C1694 C 0.54027 0.00742 0.30272 0.0
C1695 C 0.55995 0.00797 0.35046 0.0
H1696 H 0.5098 0.99203 0.36904 0.0
C1697 C 0.54741 0.99361 0.4293 0.0
C1698 C 0.53008 -0.00054 0.43786 0.0
C1699 C 0.54985 0.9945 0.40959 0.0
C1700 C 0.52375 -0.00317 0.364 0.0
H1701 H 0.58788 0.98134 0.29057 0.0
H1702 H 0.57629 0.98222 0.32328 0.0
H1703 H 0.51654 0.99123 0.33459 0.0
H1704 H 0.5016 0.01065 0.43231 0.0
H1705 H 0.50605 0.01246 0.39776 0.0
H1706 H 0.56733 0.0136 0.37956 0.0
C1707 C 0.56791 0.98913 0.31238 0.0
C1708 C 0.52758 0.99632 0.34435 0.0
C1709 C 0.5745 0.98861 0.29362 0.0
C1710 C 0.51515 0.00607 0.42618 0.0
C1711 C 0.51764 0.00702 0.40639 0.0
C1712 C 0.55611 0.00862 0.36996 0.0
C1713 C 0.55109 -0.00101 0.3172 0.0
C1714 C 0.5459 0.00141 0.33753 0.0
C1715 C 0.53509 0.00137 0.39792 0.0
C1716 C 0.53817 0.00256 0.37701 0.0
H1717 H 0.53888 0.01437 0.27301 0.0
H1718 H 0.5272 0.01506 0.30617 0.0
H1719 H 0.57408 0.01232 0.34546 0.0
H1720 H 0.55915 0.98826 0.43779 0.0
H1721 H 0.56331 0.98962 0.40346 0.0
C1722 C 0.73172 0.82204 0.06495 0.0
C1723 C 0.73554 0.84168 0.06492 0.0
C1724 C 0.73091 0.8122 0.0822 0.0
C1725 C 0.72401 0.81974 0.13416 0.0
H1726 H 0.75489 0.77456 0.13966 0.0
C1727 C 0.75564 0.79692 0.20554 0.0
C1728 C 0.75892 0.77766 0.20884 0.0
C1729 C 0.74746 0.80262 0.18837 0.0
C1730 C 0.74579 0.78688 0.13833 0.0
H1731 H 0.74142 0.86639 0.08295 0.0
H1732 H 0.74001 0.84931 0.11282 0.0
H1733 H 0.75107 0.78842 0.10822 0.0
H1734 H 0.75604 0.74913 0.1973 0.0
H1735 H 0.7414 0.759 0.16724 0.0
H1736 H 0.71915 0.81857 0.16432 0.0
C1737 C 0.73748 0.84151 0.0996 0.0
C1738 C 0.74366 0.79485 0.12028 0.0
C1739 C 0.73848 0.85126 0.08244 0.0
C1740 C 0.75324 0.76406 0.19512 0.0
C1741 C 0.74512 0.76975 0.17786 0.0
C1742 C 0.72604 0.81173 0.15217 0.0
C1743 C 0.73364 0.8219 0.09971 0.0
C1744 C 0.7333 0.81173 0.11813 0.0
C1745 C 0.74269 0.78915 0.17405 0.0
C1746 C 0.7375 0.79558 0.15459 0.0
H1747 H 0.72934 0.81428 0.05168 0.0
H1748 H 0.72794 0.79707 0.08188 0.0
H1749 H 0.71561 0.83256 0.13285 0.0
H1750 H 0.7604 0.80762 0.21581 0.0
H1751 H 0.74613 0.81769 0.18585 0.0
C1752 C 0.90822 0.0067 0.67655 0.0
C1753 C 0.89036 -0.00194 0.68042 0.0
C1754 C 0.91323 0.01148 0.65793 0.0
C1755 C 0.90549 0.9965 0.60906 0.0
H1756 H 0.93444 0.04241 0.59802 0.0
C1757 C 0.95126 -0.00164 0.54222 0.0
C1758 C 0.97035 0.00328 0.54648 0.0
C1759 C 0.93641 0.0037 0.55465 0.0
C1760 C 0.92627 0.02958 0.6008 0.0
H1761 H 0.86364 0.98781 0.66786 0.0
H1762 H 0.87268 0.99577 0.63507 0.0
H1763 H 0.91778 0.03951 0.62862 0.0
H1764 H 0.98916 0.01827 0.56618 0.0
H1765 H 0.96351 0.02739 0.58811 0.0
H1766 H 0.91505 0.98587 0.58202 0.0
C1767 C 0.88267 -0.00103 0.64655 0.0
C1768 C 0.91674 0.02793 0.6183 0.0
C1769 C 0.87754 0.99438 0.66528 0.0
C1770 C 0.9744 0.0147 0.56251 0.0
C1771 C 0.95963 0.01994 0.57502 0.0
C1772 C 0.91515 -0.00194 0.59164 0.0
C1773 C 0.90057 0.00757 0.64273 0.0
C1774 C 0.90696 0.01105 0.62289 0.0
C1775 C 0.9406 0.01363 0.57176 0.0
C1776 C 0.92638 0.01427 0.58766 0.0
H1777 H 0.91837 0.00982 0.68792 0.0
H1778 H 0.92728 0.01776 0.65536 0.0
H1779 H 0.89814 0.98329 0.61225 0.0
H1780 H 0.94798 0.98923 0.53003 0.0
H1781 H 0.92188 -0.00111 0.55154 0.0
C1782 C 0.763 0.1572 0.42411 0.0
C1783 C 0.75742 0.16369 0.44233 0.0
C1784 C 0.76662 0.17007 0.40955 0.0
C1785 C 0.75229 0.21652 0.39331 0.0
H1786 H 0.79348 0.20852 0.35665 0.0
C1787 C 0.78196 0.24124 0.31409 0.0
C1788 C 0.76469 0.2389 0.30393 0.0
C1789 C 0.78249 0.23801 0.3337 0.0
C1790 C 0.78211 0.2113 0.36692 0.0
H1791 H 0.75171 0.18876 0.45979 0.0
H1792 H 0.75783 0.21129 0.43414 0.0
H1793 H 0.79308 0.19066 0.38611 0.0
H1794 H 0.73448 0.23177 0.30615 0.0
H1795 H 0.73517 0.22633 0.34042 0.0
H1796 H 0.74093 0.23667 0.37371 0.0
C1797 C 0.75943 0.19623 0.43121 0.0
C1798 C 0.78179 0.20089 0.3837 0.0
C1799 C 0.75602 0.18335 0.44587 0.0
C1800 C 0.74772 0.23447 0.31383 0.0
C1801 C 0.74823 0.23117 0.33345 0.0
C1802 C 0.75255 0.2269 0.37643 0.0
C1803 C 0.76456 0.18968 0.41286 0.0
C1804 C 0.76658 0.20297 0.39677 0.0
C1805 C 0.7658 0.23209 0.34342 0.0
C1806 C 0.76719 0.22399 0.36281 0.0
H1807 H 0.76421 0.14214 0.42097 0.0
H1808 H 0.77033 0.16459 0.39549 0.0
H1809 H 0.74034 0.21835 0.40313 0.0
H1810 H 0.79526 0.24453 0.30666 0.0
H1811 H 0.79618 0.23907 0.34105 0.0
C1812 C 0.62499 -0.00087 0.16381 0.0
C1813 C 0.60994 0.99291 0.17575 0.0
C1814 C 0.62103 0.00569 0.1455 0.0
C1815 C 0.58168 0.0282 0.12058 0.0
H1816 H 0.60725 0.01384 0.07329 0.0
C1817 C 0.5557 0.01843 0.04151 0.0
C1818 C 0.5421 0.03305 0.04238 0.0
C1819 C 0.57107 0.01841 0.05431 0.0
C1820 C 0.60011 0.01815 0.0864 0.0
H1821 H 0.57923 0.98727 0.1774 0.0
H1822 H 0.57237 -0.00146 0.14546 0.0
H1823 H 0.61887 0.00143 0.10367 0.0
H1824 H 0.53557 0.06069 0.05454 0.0
H1825 H 0.56318 0.06137 0.07601 0.0
H1826 H 0.56216 0.0438 0.10383 0.0
C1827 C 0.58715 -0.00127 0.1504 0.0
C1828 C 0.6068 0.01108 0.10375 0.0
C1829 C 0.59109 0.99217 0.16862 0.0
C1830 C 0.54574 0.04909 0.05393 0.0
C1831 C 0.56146 0.04937 0.0663 0.0
C1832 C 0.57501 0.03519 0.1034 0.0
C1833 C 0.60197 0.00616 0.13895 0.0
C1834 C 0.59708 0.01546 0.12085 0.0
C1835 C 0.57317 0.03322 0.0679 0.0
C1836 C 0.58364 0.02971 0.08598 0.0
H1837 H 0.63971 -0.00025 0.1689 0.0
H1838 H 0.63269 0.01126 0.13687 0.0
H1839 H 0.57423 0.03215 0.13365 0.0
H1840 H 0.55319 0.00592 0.03266 0.0
H1841 H 0.57982 0.00577 0.05493 0.0
C1842 C 0.73439 0.83947 0.94619 0.0
C1843 C 0.72726 0.85805 0.94758 0.0
C1844 C 0.73354 0.82935 0.92883 0.0
C1845 C 0.72718 0.83612 0.87648 0.0
H1846 H 0.7185 0.78173 0.87675 0.0
C1847 C 0.73922 0.78708 0.81015 0.0
C1848 C 0.7286 0.77005 0.80897 0.0
C1849 C 0.73687 0.79942 0.82587 0.0
C1850 C 0.72061 0.79697 0.8763 0.0
H1851 H 0.71322 0.8804 0.9319 0.0
H1852 H 0.7112 0.86263 0.90196 0.0
H1853 H 0.71865 0.79943 0.90669 0.0
H1854 H 0.70593 0.75344 0.8221 0.0
H1855 H 0.70102 0.77536 0.84884 0.0
H1856 H 0.72859 0.83366 0.84598 0.0
C1857 C 0.71796 0.856 0.91405 0.0
C1858 C 0.72106 0.8071 0.89359 0.0
C1859 C 0.719 0.86616 0.93131 0.0
C1860 C 0.71441 0.76642 0.82278 0.0
C1861 C 0.71181 0.77887 0.83824 0.0
C1862 C 0.72655 0.82599 0.85913 0.0
C1863 C 0.72534 0.8375 0.91251 0.0
C1864 C 0.72449 0.82679 0.89397 0.0
C1865 C 0.72365 0.79505 0.84052 0.0
C1866 C 0.72333 0.80624 0.8588 0.0
H1867 H 0.74096 0.83286 0.9584 0.0
H1868 H 0.73964 0.81525 0.92816 0.0
H1869 H 0.7301 0.85124 0.87617 0.0
H1870 H 0.75039 0.79012 0.79977 0.0
H1871 H 0.7463 0.81169 0.8271 0.0
C1872 C 0.80563 0.91983 0.99542 0.0
C1873 C 0.79598 0.90569 0.00579 0.0
C1874 C 0.82542 0.92277 -0.00236 0.0
C1875 C 0.86461 0.91714 0.03186 0.0
H1876 H 0.89611 0.93066 0.98825 0.0
C1877 C 0.94394 0.95126 0.00942 0.0
C1878 C 0.94327 0.96729 0.02158 0.0
C1879 C 0.929 0.93778 0.00967 0.0
C1880 C 0.88772 0.92651 0.00059 0.0
H1881 H 0.79969 0.88342 0.02654 0.0
H1882 H 0.83433 0.88872 0.03051 0.0
H1883 H 0.86349 0.91875 0.98323 0.0
H1884 H 0.92769 0.98077 0.04487 0.0
H1885 H 0.9018 0.95736 0.04541 0.0
H1886 H 0.88868 0.92551 0.04924 0.0
C1887 C 0.82649 0.89751 0.02067 0.0
C1888 C 0.8689 0.91993 -0.0023 0.0
C1889 C 0.80667 0.89445 0.01834 0.0
C1890 C 0.92854 0.96855 0.03532 0.0
C1891 C 0.91371 0.95505 0.03566 0.0
C1892 C 0.88344 0.92379 0.03476 0.0
C1893 C 0.83608 0.91172 0.01035 0.0
C1894 C 0.85692 0.91579 0.01332 0.0
C1895 C 0.91322 0.94008 0.02215 0.0
C1896 C 0.89501 0.92915 0.01917 0.0
H1897 H 0.79789 0.92874 0.98563 0.0
H1898 H 0.8323 0.93405 0.9897 0.0
H1899 H 0.85573 0.91407 0.0442 0.0
H1900 H 0.95497 0.95007 -0.00147 0.0
H1901 H 0.92917 0.92625 -0.00075 0.0
C1902 C 0.29132 0.56114 0.99569 0.0
C1903 C 0.28692 0.57869 0.98748 0.0
C1904 C 0.30969 0.55334 0.99354 0.0
C1905 C 0.35964 0.56813 0.9824 0.0
H1906 H 0.36887 0.51419 0.97532 0.0
C1907 C 0.43304 0.54161 0.95938 0.0
C1908 C 0.44177 0.52848 0.97153 0.0
C1909 C 0.41341 0.54525 0.96074 0.0
C1910 C 0.36643 0.52925 0.97743 0.0
H1911 H 0.29803 0.60134 0.9698 0.0
H1912 H 0.32974 0.58756 0.96561 0.0
H1913 H 0.33574 0.52572 0.97872 0.0
H1914 H 0.43625 0.50745 0.99316 0.0
H1915 H 0.40165 0.51401 0.99569 0.0
H1916 H 0.39017 0.57176 0.98071 0.0
C1917 C 0.31927 0.58007 0.97423 0.0
C1918 C 0.34752 0.53587 0.97942 0.0
C1919 C 0.30103 0.58793 0.97654 0.0
C1920 C 0.43004 0.51796 0.98398 0.0
C1921 C 0.41024 0.52159 0.9853 0.0
C1922 C 0.37839 0.56157 0.98023 0.0
C1923 C 0.32397 0.56288 0.98302 0.0
C1924 C 0.34392 0.55544 0.98165 0.0
C1925 C 0.40197 0.53579 0.97417 0.0
C1926 C 0.38196 0.54214 0.97745 0.0
H1927 H 0.28075 0.55368 0.00423 0.0
H1928 H 0.31286 0.54015 0.0006 0.0
H1929 H 0.35749 0.58321 0.98468 0.0
H1930 H 0.44148 0.54982 0.94937 0.0
H1931 H 0.40727 0.55601 0.95173 0.0
C1932 C 0.12302 0.57137 0.72451 0.0
C1933 C 0.1308 0.55712 0.73599 0.0
C1934 C 0.13226 0.58898 0.72304 0.0
C1935 C 0.18053 0.60988 0.72813 0.0
H1936 H 0.15413 0.658 0.72405 0.0
C1937 C 0.20237 0.69326 0.73243 0.0
C1938 C 0.21978 0.69218 0.72221 0.0
C1939 C 0.18938 0.678 0.73202 0.0
C1940 C 0.16168 0.64466 0.7252 0.0
H1941 H 0.15368 0.55058 0.75585 0.0
H1942 H 0.16956 0.5814 0.75357 0.0
H1943 H 0.13554 0.62896 0.72978 0.0
H1944 H 0.23639 0.6753 0.70204 0.0
H1945 H 0.21346 0.64898 0.7008 0.0
H1946 H 0.20666 0.62542 0.72421 0.0
C1947 C 0.15661 0.57879 0.74531 0.0
C1948 C 0.15104 0.62804 0.72836 0.0
C1949 C 0.14746 0.56116 0.74669 0.0
C1950 C 0.22321 0.67636 0.7103 0.0
C1951 C 0.21014 0.66125 0.70969 0.0
C1952 C 0.19112 0.62642 0.72505 0.0
C1953 C 0.14939 0.5927 0.73309 0.0
C1954 C 0.1604 0.6105 0.72996 0.0
C1955 C 0.19353 0.66153 0.72123 0.0
C1956 C 0.18185 0.644 0.72353 0.0
H1957 H 0.11019 0.56872 0.71609 0.0
H1958 H 0.12641 0.59936 0.71343 0.0
H1959 H 0.18816 0.59656 0.72896 0.0
H1960 H 0.19939 0.70528 0.74177 0.0
H1961 H 0.17675 0.67865 0.74111 0.0
C1962 C 0.16021 0.39013 0.51605 0.0
C1963 C 0.17648 0.40205 0.51748 0.0
C1964 C 0.14171 0.39765 0.51715 0.0
C1965 C 0.11363 0.44014 0.53128 0.0
H1966 H 0.07914 0.42209 0.4914 0.0
C1967 C 0.04741 0.48136 0.50503 0.0
C1968 C 0.03193 0.471 0.49728 0.0
C1969 C 0.06344 0.47191 0.51215 0.0
C1970 C 0.08833 0.42702 0.50295 0.0
H1971 H 0.18612 0.43116 0.52185 0.0
H1972 H 0.15368 0.44439 0.5235 0.0
H1973 H 0.1105 0.40772 0.4947 0.0
H1974 H 0.02035 0.44296 0.49141 0.0
H1975 H 0.0479 0.42629 0.50468 0.0
H1976 H 0.09144 0.4598 0.5392 0.0
C1977 C 0.15528 0.42918 0.52172 0.0
C1978 C 0.10641 0.4188 0.50478 0.0
C1979 C 0.17385 0.42162 0.52063 0.0
C1980 C 0.03207 0.45115 0.49768 0.0
C1981 C 0.04794 0.44168 0.50504 0.0
C1982 C 0.09543 0.44836 0.52949 0.0
C1983 C 0.13902 0.41729 0.51967 0.0
C1984 C 0.11937 0.42539 0.5188 0.0
C1985 C 0.0642 0.45194 0.51153 0.0
C1986 C 0.08265 0.44203 0.51513 0.0
H1987 H 0.16174 0.37496 0.51382 0.0
H1988 H 0.12947 0.38809 0.5158 0.0
H1989 H 0.12325 0.44539 0.54235 0.0
H1990 H 0.04766 0.49673 0.50442 0.0
H1991 H 0.07573 0.48029 0.51688 0.0
C1992 C 0.86423 0.9145 0.75949 0.0
C1993 C 0.85411 0.93102 0.75489 0.0
C1994 C 0.85446 0.8982 0.76534 0.0
C1995 C 0.80621 0.87936 0.78034 0.0
H1996 H 0.82582 0.83278 0.75769 0.0
C1997 C 0.7605 0.81567 0.75661 0.0
C1998 C 0.76885 0.79762 0.75547 0.0
C1999 C 0.77062 0.83098 0.76468 0.0
C2000 C 0.82036 0.84551 0.76461 0.0
H2001 H 0.82579 0.94358 0.7534 0.0
H2002 H 0.80852 0.91477 0.76279 0.0
H2003 H 0.84418 0.8619 0.75471 0.0
H2004 H 0.79334 0.78081 0.76349 0.0
H2005 H 0.81127 0.80762 0.77768 0.0
H2006 H 0.78169 0.86288 0.78911 0.0
C2007 C 0.82411 0.91455 0.76236 0.0
C2008 C 0.83091 0.86234 0.76285 0.0
C2009 C 0.83397 0.93104 0.75681 0.0
C2010 C 0.78657 0.79458 0.76442 0.0
C2011 C 0.79688 0.80998 0.77232 0.0
C2012 C 0.79554 0.86248 0.78195 0.0
C2013 C 0.83423 0.89779 0.76639 0.0
C2014 C 0.82381 0.87961 0.77028 0.0
C2015 C 0.78946 0.82853 0.77146 0.0
C2016 C 0.80228 0.84545 0.77368 0.0
H2017 H 0.87981 0.91413 0.75853 0.0
H2018 H 0.86283 0.88581 0.76881 0.0
H2019 H 0.80045 0.89229 0.78658 0.0
H2020 H 0.74689 0.81833 0.74963 0.0
H2021 H 0.76447 0.84502 0.7637 0.0
C2022 C 0.66682 0.10332 0.47476 0.0
C2023 C 0.676 0.11945 0.48259 0.0
C2024 C 0.64692 0.10099 0.47656 0.0
C2025 C 0.60842 0.11231 0.50944 0.0
H2026 H 0.57724 0.08756 0.4704 0.0
C2027 C 0.53604 0.06262 0.49662 0.0
C2028 C 0.54112 0.04857 0.50968 0.0
C2029 C 0.54733 0.07903 0.49494 0.0
C2030 C 0.58545 0.09494 0.48139 0.0
H2031 H 0.67147 0.14619 0.49774 0.0
H2032 H 0.63668 0.14189 0.50114 0.0
H2033 H 0.60819 0.10148 0.4618 0.0
H2034 H 0.56039 0.04152 0.53272 0.0
H2035 H 0.58008 0.07004 0.52989 0.0
H2036 H 0.58619 0.10469 0.52925 0.0
C2037 C 0.64491 0.13112 0.4936 0.0
C2038 C 0.6033 0.10271 0.47647 0.0
C2039 C 0.6648 0.13356 0.49161 0.0
C2040 C 0.55623 0.05215 0.52251 0.0
C2041 C 0.56743 0.06858 0.52094 0.0
C2042 C 0.59059 0.10443 0.51439 0.0
C2043 C 0.63584 0.11466 0.48636 0.0
C2044 C 0.61532 0.11065 0.4906 0.0
C2045 C 0.56382 0.08158 0.50634 0.0
C2046 C 0.57937 0.09486 0.50057 0.0
H2047 H 0.67507 0.09226 0.46769 0.0
H2048 H 0.64034 0.08803 0.47106 0.0
H2049 H 0.61741 0.11836 0.52063 0.0
H2050 H 0.52468 0.06005 0.48634 0.0
H2051 H 0.54412 0.0889 0.48368 0.0
C2052 C 0.15669 0.4335 0.77425 0.0
C2053 C 0.16432 0.44914 0.76451 0.0
C2054 C 0.16821 0.41796 0.77821 0.0
C2055 C 0.20844 0.39285 0.75726 0.0
H2056 H 0.20105 0.36043 0.80101 0.0
C2057 C 0.2361 0.31556 0.75885 0.0
C2058 C 0.2222 0.30224 0.76481 0.0
C2059 C 0.23296 0.33501 0.7614 0.0
C2060 C 0.2033 0.36937 0.78873 0.0
H2061 H 0.19027 0.46138 0.75235 0.0
H2062 H 0.21049 0.43395 0.75916 0.0
H2063 H 0.18926 0.393 0.80217 0.0
H2064 H 0.19415 0.29896 0.77821 0.0
H2065 H 0.18864 0.3328 0.78244 0.0
H2066 H 0.22169 0.36895 0.74349 0.0
C2067 C 0.19555 0.43377 0.76365 0.0
C2068 C 0.19662 0.388 0.78942 0.0
C2069 C 0.18401 0.44946 0.75984 0.0
C2070 C 0.20515 0.3088 0.77341 0.0
C2071 C 0.20208 0.3282 0.77605 0.0
C2072 C 0.21514 0.37421 0.75658 0.0
C2073 C 0.1876 0.41766 0.77241 0.0
C2074 C 0.19846 0.39968 0.77341 0.0
C2075 C 0.21594 0.34151 0.77007 0.0
C2076 C 0.21197 0.36208 0.77204 0.0
H2077 H 0.14158 0.43292 0.77814 0.0
H2078 H 0.16158 0.4057 0.78478 0.0
H2079 H 0.2099 0.40145 0.74463 0.0
H2080 H 0.24941 0.311 0.75215 0.0
H2081 H 0.24389 0.34497 0.75667 0.0
C2082 C 0.32109 0.55488 0.23757 0.0
C2083 C 0.34122 0.55356 0.23617 0.0
C2084 C 0.31206 0.57255 0.2363 0.0
C2085 C 0.32267 0.62434 0.24059 0.0
H2086 H 0.27164 0.62896 0.21884 0.0
C2087 C 0.28417 0.69566 0.24362 0.0
C2088 C 0.26696 0.69387 0.25397 0.0
C2089 C 0.29273 0.67949 0.23544 0.0
C2090 C 0.28599 0.6279 0.22477 0.0
H2091 H 0.36761 0.56966 0.23183 0.0
H2092 H 0.35197 0.60014 0.22906 0.0
H2093 H 0.28796 0.59832 0.21753 0.0
H2094 H 0.24421 0.6746 0.26248 0.0
H2095 H 0.25873 0.64658 0.24779 0.0
H2096 H 0.32059 0.65381 0.24807 0.0
C2097 C 0.34308 0.58775 0.23173 0.0
C2098 C 0.29526 0.61031 0.22423 0.0
C2099 C 0.35208 0.5702 0.23327 0.0
C2100 C 0.25746 0.67624 0.25443 0.0
C2101 C 0.26577 0.66022 0.24599 0.0
C2102 C 0.31351 0.64192 0.24092 0.0
C2103 C 0.32296 0.58924 0.23335 0.0
C2104 C 0.31356 0.6082 0.23252 0.0
C2105 C 0.28398 0.66149 0.23731 0.0
C2106 C 0.2949 0.64381 0.23341 0.0
H2107 H 0.31234 0.54229 0.23975 0.0
H2108 H 0.29656 0.57314 0.23793 0.0
H2109 H 0.33659 0.6233 0.24742 0.0
H2110 H 0.29181 0.70912 0.24331 0.0
H2111 H 0.30673 0.68086 0.22872 0.0
C2112 C 0.49867 0.6967 0.58548 0.0
C2113 C 0.50184 0.69748 0.6053 0.0
C2114 C 0.50086 0.67959 0.57523 0.0
C2115 C 0.50091 0.62758 0.58196 0.0
H2116 H 0.52071 0.6267 0.53013 0.0
C2117 C 0.49674 0.55894 0.53758 0.0
C2118 C 0.48671 0.56185 0.52053 0.0
C2119 C 0.50504 0.57445 0.54741 0.0
C2120 C 0.51526 0.6267 0.54465 0.0
H2121 H 0.51011 0.68084 0.6298 0.0
H2122 H 0.51406 0.65127 0.61197 0.0
H2123 H 0.52128 0.65638 0.54868 0.0
H2124 H 0.4789 0.58247 0.4994 0.0
H2125 H 0.49362 0.60933 0.51614 0.0
H2126 H 0.49428 0.59812 0.57777 0.0
C2127 C 0.5096 0.66375 0.60435 0.0
C2128 C 0.51545 0.64373 0.55522 0.0
C2129 C 0.50736 0.68078 0.61458 0.0
C2130 C 0.48674 0.57994 0.51248 0.0
C2131 C 0.4952 0.59533 0.5221 0.0
C2132 C 0.50074 0.61058 0.57141 0.0
C2133 C 0.50631 0.66289 0.58456 0.0
C2134 C 0.50783 0.64449 0.57386 0.0
C2135 C 0.50351 0.59297 0.54019 0.0
C2136 C 0.50744 0.61002 0.55245 0.0
H2137 H 0.49444 0.70927 0.57786 0.0
H2138 H 0.49791 0.6794 0.56005 0.0
H2139 H 0.49473 0.62763 0.59618 0.0
H2140 H 0.49666 0.54509 0.54413 0.0
H2141 H 0.51157 0.57215 0.56121 0.0
C2142 C 0.54903 0.24477 0.80422 0.0
C2143 C 0.55101 0.25489 0.82156 0.0
C2144 C 0.56365 0.24539 0.79046 0.0
C2145 C 0.60569 0.27262 0.77411 0.0
H2146 H 0.62761 0.22362 0.76141 0.0
C2147 C 0.68506 0.26277 0.75512 0.0
C2148 C 0.69091 0.24557 0.74675 0.0
C2149 C 0.66546 0.26648 0.75765 0.0
C2150 C 0.62147 0.23748 0.76414 0.0
H2151 H 0.56948 0.27407 0.83788 0.0
H2152 H 0.59488 0.27531 0.81372 0.0
H2153 H 0.59758 0.22514 0.77894 0.0
H2154 H 0.68139 0.21983 0.73233 0.0
H2155 H 0.64717 0.22692 0.73526 0.0
H2156 H 0.62963 0.28505 0.75946 0.0
C2157 C 0.58205 0.2669 0.81081 0.0
C2158 C 0.60424 0.23828 0.77438 0.0
C2159 C 0.56762 0.26601 0.8247 0.0
C2160 C 0.67708 0.23319 0.73887 0.0
C2161 C 0.6575 0.23715 0.74086 0.0
C2162 C 0.62278 0.27184 0.7635 0.0
C2163 C 0.58029 0.25644 0.79367 0.0
C2164 C 0.59657 0.25584 0.78003 0.0
C2165 C 0.65143 0.25315 0.75152 0.0
C2166 C 0.63131 0.25424 0.759 0.0
H2167 H 0.53635 0.23612 0.80142 0.0
H2168 H 0.56202 0.23715 0.77736 0.0
H2169 H 0.59987 0.28634 0.77814 0.0
H2170 H 0.69556 0.27239 0.76151 0.0
H2171 H 0.66153 0.27894 0.76597 0.0
C2172 C -0.00364 0.30814 0.0712 0.0
C2173 C -0.00056 0.30773 0.09101 0.0
C2174 C 0.99375 0.32548 0.06199 0.0
C2175 C 0.98397 0.37701 0.07205 0.0
H2176 H 0.0093 0.38423 0.02328 0.0
C2177 C 0.01544 0.44749 0.04549 0.0
C2178 C 0.01391 0.45171 0.02607 0.0
C2179 C 0.00756 0.43065 0.05249 0.0
C2180 C 0.00179 0.38235 0.03671 0.0
H2181 H 0.00234 0.32515 0.11667 0.0
H2182 H -0.00142 0.35517 0.10069 0.0
H2183 H 0.00815 0.35271 0.03707 0.0
H2184 H 0.00263 0.44224 -0.00126 0.0
H2185 H 0.98898 0.41252 0.01095 0.0
H2186 H 0.97884 0.40703 0.07216 0.0
C2187 C -0.0025 0.34222 0.09221 0.0
C2188 C 0.00112 0.36425 0.04465 0.0
C2189 C -0.00012 0.32495 0.10139 0.0
C2190 C 0.00356 0.4394 0.01388 0.0
C2191 C -0.00404 0.42236 0.0208 0.0
C2192 C 0.98491 0.39516 0.06423 0.0
C2193 C 0.99435 0.34277 0.07239 0.0
C2194 C 0.99269 0.36143 0.06269 0.0
C2195 C -0.00153 0.41756 0.04006 0.0
C2196 C 0.99425 0.39807 0.04671 0.0
H2197 H -0.00419 0.29508 0.06284 0.0
H2198 H 0.99116 0.3253 0.04675 0.0
H2199 H 0.97686 0.37533 0.08571 0.0
H2200 H 0.02366 0.45669 0.05502 0.0
H2201 H 0.00988 0.42724 0.06734 0.0
C2202 C 0.92082 0.75549 0.36876 0.0
C2203 C 0.93 0.75256 0.35102 0.0
C2204 C 0.90074 0.75595 0.36997 0.0
C2205 C 0.85657 0.74089 0.34646 0.0
H2206 H 0.83599 0.79097 0.3574 0.0
C2207 C 0.80307 0.78481 0.30549 0.0
C2208 C 0.78884 0.77086 0.30226 0.0
C2209 C 0.81495 0.78384 0.32146 0.0
C2210 C 0.84138 0.77675 0.35488 0.0
H2211 H 0.92547 0.74706 0.32083 0.0
H2212 H 0.8903 0.7473 0.32305 0.0
H2213 H 0.86956 0.78404 0.36526 0.0
H2214 H 0.77373 0.74709 0.31466 0.0
H2215 H 0.7949 0.74493 0.3423 0.0
H2216 H 0.82902 0.73389 0.3348 0.0
C2217 C 0.89871 0.74939 0.33595 0.0
C2218 C 0.86054 0.7728 0.35934 0.0
C2219 C 0.91876 0.74938 0.33465 0.0
C2220 C 0.78481 0.75775 0.31666 0.0
C2221 C 0.7969 0.75655 0.33251 0.0
C2222 C 0.83738 0.74471 0.34229 0.0
C2223 C 0.88957 0.75297 0.35355 0.0
C2224 C 0.8685 0.7552 0.35412 0.0
C2225 C 0.81292 0.76877 0.33426 0.0
C2226 C 0.82996 0.76304 0.34536 0.0
H2227 H 0.92916 0.7581 0.38161 0.0
H2228 H 0.89393 0.75886 0.38364 0.0
H2229 H 0.86246 0.72719 0.34243 0.0
H2230 H 0.80625 0.79533 0.29478 0.0
H2231 H 0.82713 0.79352 0.32242 0.0
C2232 C 0.49532 0.32299 0.89305 0.0
C2233 C 0.49904 0.32161 0.87336 0.0
C2234 C 0.49244 0.34066 0.9018 0.0
C2235 C 0.50309 0.39112 0.89809 0.0
H2236 H 0.46129 0.3957 0.9347 0.0
C2237 C 0.49247 0.45811 0.94634 0.0
C2238 C 0.49082 0.45358 0.96579 0.0
C2239 C 0.49082 0.44385 0.93224 0.0
C2240 C 0.47298 0.39467 0.92446 0.0
H2241 H 0.50314 0.33777 0.84746 0.0
H2242 H 0.49836 0.36877 0.86295 0.0
H2243 H 0.46425 0.36679 0.91535 0.0
H2244 H 0.48514 0.43062 0.98553 0.0
H2245 H 0.48223 0.40614 0.96118 0.0
H2246 H 0.5123 0.41872 0.90786 0.0
C2247 C 0.49755 0.35609 0.8715 0.0
C2248 C 0.47469 0.37813 0.91344 0.0
C2249 C 0.50025 0.33836 0.86267 0.0
C2250 C 0.48666 0.4347 0.97074 0.0
C2251 C 0.48481 0.42061 0.95673 0.0
C2252 C 0.50143 0.4077 0.90922 0.0
C2253 C 0.49337 0.35735 0.89109 0.0
C2254 C 0.49012 0.37594 0.90062 0.0
C2255 C 0.48711 0.42494 0.93737 0.0
C2256 C 0.48674 0.40932 0.92298 0.0
H2257 H 0.49429 0.3104 0.90171 0.0
H2258 H 0.48956 0.34127 0.91701 0.0
H2259 H 0.51512 0.38976 0.88829 0.0
H2260 H 0.49535 0.47253 0.94199 0.0
H2261 H 0.49254 0.44757 0.91737 0.0
C2262 C 0.9368 0.2419 0.17276 0.0
C2263 C 0.94522 0.24949 0.15626 0.0
C2264 C 0.918 0.24651 0.1779 0.0
C2265 C 0.8718 0.26292 0.15984 0.0
H2266 H 0.86233 0.27049 0.21398 0.0
C2267 C 0.80893 0.26338 0.22242 0.0
C2268 C 0.79899 0.24732 0.21565 0.0
C2269 C 0.82365 0.27147 0.21151 0.0
C2270 C 0.86454 0.26898 0.19872 0.0
H2271 H 0.94021 0.26755 0.13191 0.0
H2272 H 0.90711 0.27552 0.14097 0.0
H2273 H 0.89506 0.26886 0.20235 0.0
H2274 H 0.79575 0.22743 0.19206 0.0
H2275 H 0.82185 0.24085 0.17327 0.0
H2276 H 0.84113 0.26265 0.1563 0.0
C2277 C 0.91522 0.26604 0.14989 0.0
C2278 C 0.88342 0.2677 0.19211 0.0
C2279 C 0.93416 0.26147 0.14474 0.0
C2280 C 0.80296 0.24019 0.19729 0.0
C2281 C 0.81795 0.24796 0.18652 0.0
C2282 C 0.85279 0.2643 0.16646 0.0
C2283 C 0.90708 0.25882 0.1667 0.0
C2284 C 0.88724 0.26378 0.17277 0.0
C2285 C 0.8293 0.26294 0.19407 0.0
C2286 C 0.84891 0.26651 0.18612 0.0
H2287 H 0.94481 0.23254 0.18191 0.0
H2288 H 0.91196 0.24034 0.1907 0.0
H2289 H 0.87433 0.26003 0.14481 0.0
H2290 H 0.80671 0.26844 0.23694 0.0
H2291 H 0.83177 0.28325 0.21761 0.0
C2292 C 0.97828 0.68615 0.40849 0.0
C2293 C 0.99025 0.70152 0.41367 0.0
C2294 C 0.97828 0.66957 0.41906 0.0
C2295 C 0.99319 0.64719 0.46396 0.0
H2296 H -0.00269 0.60276 0.43082 0.0
C2297 C 0.01155 0.56177 0.46465 0.0
C2298 C -0.00123 0.55519 0.4787 0.0
C2299 C 0.01172 0.58079 0.45956 0.0
C2300 C -0.00364 0.61501 0.44031 0.0
H2301 H 0.01076 0.71208 0.43467 0.0
H2302 H 0.01108 0.6827 0.45306 0.0
H2303 H 0.99422 0.63385 0.4169 0.0
H2304 H 0.97714 0.56371 0.49947 0.0
H2305 H 0.97704 0.5971 0.4901 0.0
H2306 H -0.0044 0.62801 0.48742 0.0
C2307 C 0.00157 0.68363 0.44087 0.0
C2308 C 0.99431 0.63283 0.43232 0.0
C2309 C 0.00145 0.70039 0.43031 0.0
C2310 C 0.987 0.56833 0.48844 0.0
C2311 C 0.98703 0.58745 0.48317 0.0
C2312 C -0.00481 0.6292 0.47202 0.0
C2313 C 0.99041 0.66787 0.43496 0.0
C2314 C 0.9926 0.64911 0.444 0.0
C2315 C -0.00106 0.5937 0.46821 0.0
C2316 C -0.0031 0.61295 0.46022 0.0
H2317 H 0.96921 0.68672 0.39594 0.0
H2318 H 0.96918 0.65782 0.41442 0.0
H2319 H 0.99187 0.65953 0.47328 0.0
H2320 H 0.02113 0.5521 0.45718 0.0
H2321 H 0.02143 0.58529 0.44834 0.0
C2322 C 0.56842 0.75835 0.64472 0.0
C2323 C 0.55086 0.76276 0.65365 0.0
C2324 C 0.58463 0.75426 0.65561 0.0
C2325 C 0.60634 0.76112 0.70296 0.0
H2326 H 0.63966 0.72056 0.68516 0.0
C2327 C 0.68079 0.74602 0.73722 0.0
C2328 C 0.69545 0.74673 0.72338 0.0
C2329 C 0.66144 0.7446 0.73156 0.0
C2330 C 0.63041 0.73182 0.6904 0.0
H2331 H 0.53659 0.76674 0.68101 0.0
H2332 H 0.56504 0.75967 0.70007 0.0
H2333 H 0.60887 0.72558 0.66941 0.0
H2334 H 0.70164 0.74526 0.69302 0.0
H2335 H 0.66824 0.74252 0.68327 0.0
H2336 H 0.62832 0.76774 0.72353 0.0
C2337 C 0.56622 0.75939 0.68464 0.0
C2338 C 0.61286 0.73478 0.68132 0.0
C2339 C 0.54995 0.76342 0.67372 0.0
C2340 C 0.6906 0.74495 0.70398 0.0
C2341 C 0.67147 0.7432 0.6984 0.0
C2342 C 0.62395 0.75814 0.71209 0.0
C2343 C 0.58366 0.75452 0.67568 0.0
C2344 C 0.60095 0.74988 0.68706 0.0
C2345 C 0.65665 0.74339 0.71206 0.0
C2346 C 0.63643 0.74388 0.70543 0.0
H2347 H 0.5696 0.75778 0.62929 0.0
H2348 H 0.59799 0.75096 0.64829 0.0
H2349 H 0.59746 0.77288 0.70769 0.0
H2350 H 0.68422 0.74735 0.75227 0.0
H2351 H 0.65024 0.74475 0.74236 0.0
C2352 C 0.57196 0.4886 0.69595 0.0
C2353 C 0.59219 0.48765 0.6954 0.0
C2354 C 0.5615 0.4917 0.67923 0.0
C2355 C 0.56773 0.51162 0.63122 0.0
H2356 H 0.52293 0.48134 0.61704 0.0
C2357 C 0.54546 0.4996 0.55415 0.0
C2358 C 0.52601 0.50126 0.54896 0.0
C2359 C 0.55091 0.50035 0.57324 0.0
C2360 C 0.53518 0.49016 0.62102 0.0
H2361 H 0.61725 0.48852 0.67683 0.0
H2362 H 0.59905 0.49371 0.64778 0.0
H2363 H 0.53768 0.47734 0.64851 0.0
H2364 H 0.49698 0.5051 0.55981 0.0
H2365 H 0.50663 0.506 0.59361 0.0
H2366 H 0.56576 0.52387 0.60354 0.0
C2367 C 0.59127 0.49245 0.66114 0.0
C2368 C 0.54364 0.48785 0.63897 0.0
C2369 C 0.60168 0.48932 0.67777 0.0
C2370 C 0.51208 0.50378 0.56339 0.0
C2371 C 0.51756 0.50424 0.58267 0.0
C2372 C 0.55934 0.51387 0.61336 0.0
C2373 C 0.5711 0.494 0.66171 0.0
C2374 C 0.5604 0.49811 0.64396 0.0
C2375 C 0.53706 0.50262 0.58769 0.0
C2376 C 0.54339 0.50273 0.60785 0.0
H2377 H 0.56426 0.48736 0.70934 0.0
H2378 H 0.54595 0.49282 0.68008 0.0
H2379 H 0.58033 0.52008 0.63486 0.0
H2380 H 0.55661 0.49779 0.54344 0.0
H2381 H 0.56601 0.49882 0.57672 0.0
C2382 C 0.73895 0.36874 0.91958 0.0
C2383 C 0.73813 0.3608 0.93786 0.0
C2384 C 0.74044 0.35706 0.90337 0.0
C2385 C 0.75602 0.30885 0.88922 0.0
H2386 H 0.73052 0.32012 0.84154 0.0
C2387 C 0.74892 0.25558 0.82644 0.0
C2388 C 0.75178 0.26247 0.8079 0.0
C2389 C 0.74884 0.26801 0.84212 0.0
C2390 C 0.73791 0.31696 0.85472 0.0
H2391 H 0.73712 0.3344 0.95344 0.0
H2392 H 0.73913 0.31403 0.92515 0.0
H2393 H 0.72561 0.34085 0.86935 0.0
H2394 H 0.75763 0.2877 0.79141 0.0
H2395 H 0.75724 0.30949 0.81885 0.0
H2396 H 0.76794 0.2847 0.87465 0.0
C2397 C 0.73924 0.32928 0.92336 0.0
C2398 C 0.7351 0.3288 0.87063 0.0
C2399 C 0.73792 0.34095 0.93956 0.0
C2400 C 0.75528 0.28198 0.80547 0.0
C2401 C 0.75497 0.29446 0.82115 0.0
C2402 C 0.7587 0.29694 0.87336 0.0
C2403 C 0.74098 0.3372 0.90512 0.0
C2404 C 0.74402 0.32479 0.8881 0.0
C2405 C 0.75146 0.2876 0.83957 0.0
C2406 C 0.74959 0.30083 0.85601 0.0
H2407 H 0.73923 0.384 0.91781 0.0
H2408 H 0.7419 0.36362 0.88954 0.0
H2409 H 0.76347 0.30561 0.90234 0.0
H2410 H 0.74628 0.24061 0.82883 0.0
H2411 H 0.74601 0.26238 0.85617 0.0
C2412 C 0.94231 0.51414 0.20731 0.0
C2413 C 0.92441 0.50469 0.20771 0.0
C2414 C 0.95295 0.51484 0.19031 0.0
C2415 C 0.95995 0.49038 0.14458 0.0
H2416 H 0.96788 0.53984 0.12208 0.0
C2417 C 0.98676 0.49865 0.06726 0.0
C2418 C 0.97435 0.5097 0.05618 0.0
C2419 C 0.98531 0.49895 0.08715 0.0
C2420 C 0.96598 0.52596 0.12831 0.0
H2421 H 0.90389 0.48806 0.19101 0.0
H2422 H 0.92262 0.48889 0.16164 0.0
H2423 H 0.95716 0.53768 0.15537 0.0
H2424 H 0.95125 0.53027 0.05731 0.0
H2425 H 0.94878 0.5308 0.09205 0.0
H2426 H 0.9679 0.4786 0.11739 0.0
C2427 C 0.92836 0.49587 0.17432 0.0
C2428 C 0.96002 0.52474 0.14733 0.0
C2429 C 0.91759 0.49554 0.19109 0.0
C2430 C 0.96091 0.5215 0.06543 0.0
C2431 C 0.95964 0.52197 0.08532 0.0
C2432 C 0.96615 0.49159 0.12568 0.0
C2433 C 0.94602 0.50564 0.17373 0.0
C2434 C 0.9563 0.50694 0.15535 0.0
C2435 C 0.97163 0.5105 0.09634 0.0
C2436 C 0.96855 0.50939 0.11718 0.0
H2437 H 0.94782 0.52133 0.21997 0.0
H2438 H 0.96653 0.52252 0.19007 0.0
H2439 H 0.95716 0.47651 0.15054 0.0
H2440 H -0.00271 0.48941 0.06056 0.0
H2441 H 0.99471 0.48999 0.09536 0.0
C2442 C 0.77787 0.65195 0.43157 0.0
C2443 C 0.76695 0.66076 0.44606 0.0
C2444 C 0.78171 0.66132 0.41452 0.0
C2445 C 0.77633 0.70793 0.38982 0.0
H2446 H 0.76668 0.67533 0.34568 0.0
C2447 C 0.73513 0.73003 0.32388 0.0
C2448 C 0.7406 0.72335 0.30573 0.0
C2449 C 0.74546 0.72492 0.34001 0.0
C2450 C 0.76992 0.68461 0.35776 0.0
H2451 H 0.75235 0.68662 0.45453 0.0
H2452 H 0.7583 0.70274 0.42453 0.0
H2453 H 0.77156 0.66126 0.3767 0.0
H2454 H 0.76138 0.70667 0.28989 0.0
H2455 H 0.77924 0.69692 0.31843 0.0
H2456 H 0.77306 0.73132 0.37086 0.0
C2457 C 0.76439 0.68878 0.4264 0.0
C2458 C 0.77273 0.67655 0.37563 0.0
C2459 C 0.76083 0.6795 0.4436 0.0
C2460 C 0.75702 0.712 0.30378 0.0
C2461 C 0.76716 0.70645 0.32006 0.0
C2462 C 0.77328 0.71599 0.37196 0.0
C2463 C 0.77441 0.67959 0.41141 0.0
C2464 C 0.77523 0.68812 0.39204 0.0
C2465 C 0.76121 0.71262 0.33835 0.0
C2466 C 0.76932 0.7044 0.35591 0.0
H2467 H 0.78303 0.63758 0.4332 0.0
H2468 H 0.78989 0.65396 0.40353 0.0
H2469 H 0.77871 0.71728 0.40203 0.0
H2470 H 0.72245 0.73878 0.32566 0.0
H2471 H 0.74036 0.72967 0.35391 0.0
C2472 C 0.57426 0.49851 0.8163 0.0
C2473 C 0.59219 0.49425 0.80803 0.0
C2474 C 0.57064 0.49452 0.83543 0.0
C2475 C 0.59451 0.49021 0.88112 0.0
H2476 H 0.54316 0.47477 0.89668 0.0
C2477 C 0.53528 0.49617 0.94652 0.0
C2478 C 0.53709 0.51595 0.94831 0.0
C2479 C 0.54758 0.48606 0.93424 0.0
C2480 C 0.55779 0.47854 0.89279 0.0
H2481 H 0.62039 0.48233 0.8134 0.0
H2482 H 0.6141 0.47568 0.84706 0.0
H2483 H 0.55283 0.47109 0.86347 0.0
H2484 H 0.55478 0.54033 0.94132 0.0
H2485 H 0.57627 0.52295 0.92029 0.0
H2486 H 0.59907 0.49868 0.91029 0.0
C2487 C 0.60285 0.482 0.83861 0.0
C2488 C 0.56322 0.47668 0.87365 0.0
C2489 C 0.60643 0.48584 0.81936 0.0
C2490 C 0.55293 0.52507 0.93992 0.0
C2491 C 0.56537 0.51502 0.92796 0.0
C2492 C 0.58908 0.49208 0.9003 0.0
C2493 C 0.58489 0.48626 0.84681 0.0
C2494 C 0.58119 0.48354 0.86746 0.0
C2495 C 0.562 0.49567 0.92391 0.0
C2496 C 0.57024 0.48736 0.90609 0.0
H2497 H 0.56296 0.50493 0.808 0.0
H2498 H 0.55679 0.49835 0.84145 0.0
H2499 H 0.60853 0.49549 0.87679 0.0
H2500 H 0.52335 0.48882 0.95303 0.0
H2501 H 0.54481 0.47109 0.93162 0.0
C2502 C 0.74671 0.31774 0.04272 0.0
C2503 C 0.75265 0.33656 0.0465 0.0
C2504 C 0.74707 0.30421 0.05711 0.0
C2505 C 0.76606 0.29512 0.10577 0.0
H2506 H 0.71937 0.26506 0.11121 0.0
C2507 C 0.71907 0.26585 0.17076 0.0
C2508 C 0.73372 0.25924 0.18271 0.0
C2509 C 0.72277 0.26931 0.15154 0.0
C2510 C 0.73258 0.27323 0.10982 0.0
H2511 H 0.76415 0.35581 0.06816 0.0
H2512 H 0.76443 0.33235 0.09334 0.0
H2513 H 0.72419 0.28388 0.08267 0.0
H2514 H 0.76325 0.24942 0.18344 0.0
H2515 H 0.76969 0.25539 0.14974 0.0
H2516 H 0.77383 0.28551 0.13349 0.0
C2517 C 0.75979 0.32792 0.07919 0.0
C2518 C 0.73543 0.2839 0.09337 0.0
C2519 C 0.75947 0.34143 0.0648 0.0
C2520 C 0.75168 0.2546 0.17463 0.0
C2521 C 0.75542 0.25815 0.15536 0.0
C2522 C 0.76318 0.2845 0.12224 0.0
C2523 C 0.75335 0.30921 0.0756 0.0
C2524 C 0.75189 0.2955 0.09147 0.0
C2525 C 0.74121 0.26626 0.1438 0.0
C2526 C 0.74607 0.27398 0.12475 0.0
H2527 H 0.74151 0.31351 0.02871 0.0
H2528 H 0.74223 0.28987 0.05382 0.0
H2529 H 0.77907 0.30361 0.10457 0.0
H2530 H 0.70502 0.2694 0.17648 0.0
H2531 H 0.71151 0.27567 0.14313 0.0
C2532 C 0.91233 0.46343 0.32748 0.0
C2533 C 0.90785 0.48104 0.3196 0.0
C2534 C 0.91011 0.46049 0.34702 0.0
C2535 C 0.89082 0.48282 0.39221 0.0
H2536 H 0.93246 0.45444 0.41453 0.0
C2537 C 0.93062 0.50045 0.46059 0.0
C2538 C 0.94096 0.48591 0.46923 0.0
C2539 C 0.9173 0.49605 0.44626 0.0
C2540 C 0.92033 0.46195 0.40865 0.0
H2541 H 0.89732 0.50935 0.32578 0.0
H2542 H 0.89478 0.50478 0.36012 0.0
H2543 H 0.92881 0.45442 0.3804 0.0
H2544 H 0.94395 0.45554 0.47191 0.0
H2545 H 0.92038 0.44774 0.4471 0.0
H2546 H 0.88364 0.49169 0.42082 0.0
C2547 C 0.89924 0.4929 0.35122 0.0
C2548 C 0.91824 0.46198 0.38891 0.0
C2549 C 0.90098 0.49565 0.33157 0.0
C2550 C 0.93595 0.46693 0.46544 0.0
C2551 C 0.92257 0.4625 0.45118 0.0
C2552 C 0.89313 0.48303 0.41207 0.0
C2553 C 0.90389 0.47529 0.35924 0.0
C2554 C 0.90388 0.47292 0.38034 0.0
C2555 C 0.91446 0.47705 0.44034 0.0
C2556 C 0.90832 0.47307 0.42042 0.0
H2557 H 0.9172 0.45177 0.31847 0.0
H2558 H 0.91338 0.4466 0.35252 0.0
H2559 H 0.87927 0.49101 0.38616 0.0
H2560 H 0.93459 0.51518 0.4631 0.0
H2561 H 0.9113 0.50759 0.43818 0.0
C2562 C 0.76381 0.65195 0.56321 0.0
C2563 C 0.75246 0.63541 0.56113 0.0
C2564 C 0.76818 0.6593 0.5814 0.0
C2565 C 0.75032 0.65959 0.63094 0.0
H2566 H 0.80081 0.68044 0.64281 0.0
C2567 C 0.76381 0.69651 0.70328 0.0
C2568 C 0.77234 0.71458 0.70165 0.0
C2569 C 0.7646 0.68347 0.68798 0.0
C2570 C 0.78662 0.67469 0.63973 0.0
H2571 H 0.73699 0.61358 0.57667 0.0
H2572 H 0.74459 0.6264 0.60822 0.0
H2573 H 0.79518 0.66504 0.61181 0.0
H2574 H 0.79006 0.73239 0.68356 0.0
H2575 H 0.79134 0.70991 0.65705 0.0
H2576 H 0.74148 0.66978 0.65846 0.0
C2577 C 0.74999 0.63376 0.59581 0.0
C2578 C 0.78339 0.66592 0.62194 0.0
C2579 C 0.7457 0.62638 0.57767 0.0
C2580 C 0.78319 0.71864 0.68521 0.0
C2581 C 0.78401 0.70565 0.66999 0.0
C2582 C 0.7535 0.66842 0.64866 0.0
C2583 C 0.76123 0.65033 0.5979 0.0
C2584 C 0.76511 0.65855 0.61722 0.0
C2585 C 0.77402 0.68825 0.67083 0.0
C2586 C 0.7716 0.6764 0.65317 0.0
H2587 H 0.76928 0.65925 0.55079 0.0
H2588 H 0.77668 0.67223 0.58253 0.0
H2589 H 0.736 0.65424 0.62769 0.0
H2590 H 0.75534 0.69293 0.71576 0.0
H2591 H 0.75707 0.67002 0.68924 0.0
C2592 C 0.67824 0.59621 0.49039 0.0
C2593 C 0.68483 0.61484 0.48739 0.0
C2594 C 0.6586 0.59191 0.48952 0.0
C2595 C 0.61431 0.60333 0.467 0.0
H2596 H 0.59016 0.57812 0.50986 0.0
C2597 C 0.53951 0.5618 0.49114 0.0
C2598 C 0.53994 0.54701 0.47744 0.0
C2599 C 0.55398 0.57577 0.49133 0.0
C2600 C 0.59653 0.58549 0.4979 0.0
H2601 H 0.67611 0.64351 0.48079 0.0
H2602 H 0.64161 0.63571 0.47856 0.0
H2603 H 0.62292 0.59072 0.51301 0.0
H2604 H 0.55437 0.53634 0.45206 0.0
H2605 H 0.57921 0.56101 0.45203 0.0
H2606 H 0.58838 0.59687 0.45145 0.0
C2607 C 0.65173 0.62461 0.48191 0.0
C2608 C 0.61531 0.59254 0.49967 0.0
C2609 C 0.6714 0.62904 0.48322 0.0
C2610 C 0.55375 0.5476 0.46277 0.0
C2611 C 0.56793 0.56175 0.46273 0.0
C2612 C 0.59561 0.59593 0.46509 0.0
C2613 C 0.6452 0.60604 0.48524 0.0
C2614 C 0.6245 0.60111 0.48411 0.0
C2615 C 0.56878 0.57536 0.47758 0.0
C2616 C 0.58673 0.58658 0.48042 0.0
H2617 H 0.68825 0.585 0.4937 0.0
H2618 H 0.65386 0.57745 0.492 0.0
H2619 H 0.62118 0.60984 0.4548 0.0
H2620 H 0.52912 0.56159 0.5027 0.0
H2621 H 0.55428 0.58617 0.50288 0.0
C2622 C 0.1822 0.91887 0.48957 0.0
C2623 C 0.19876 0.92224 0.50064 0.0
C2624 C 0.16726 0.93203 0.48953 0.0
C2625 C 0.14225 0.96495 0.51885 0.0
H2626 H 0.12343 0.98701 0.47209 0.0
C2627 C 0.07085 0.00402 0.52055 0.0
C2628 C 0.05847 -0.00015 0.50526 0.0
C2629 C 0.09054 0.00034 0.51898 0.0
C2630 C 0.12835 0.98089 0.48528 0.0
H2631 H 0.21264 0.94187 0.5205 0.0
H2632 H 0.18594 0.96455 0.5211 0.0
H2633 H 0.15266 0.96792 0.47143 0.0
H2634 H 0.05679 0.98958 0.47608 0.0
H2635 H 0.0908 0.98224 0.47345 0.0
H2636 H 0.11741 0.97628 0.53258 0.0
C2637 C 0.18484 0.95189 0.51217 0.0
C2638 C 0.14518 0.97009 0.48488 0.0
C2639 C 0.20002 0.93894 0.51184 0.0
C2640 C 0.06618 0.99323 0.48792 0.0
C2641 C 0.08578 0.98901 0.4865 0.0
C2642 C 0.1252 0.97533 0.5192 0.0
C2643 C 0.16843 0.94859 0.50089 0.0
C2644 C 0.15204 0.96179 0.5016 0.0
C2645 C 0.09809 0.99168 0.50233 0.0
C2646 C 0.11775 0.98316 0.50234 0.0
H2647 H 0.18091 0.90619 0.48069 0.0
H2648 H 0.15462 0.92913 0.48089 0.0
H2649 H 0.14723 0.95852 0.53189 0.0
H2650 H 0.06512 0.00913 0.53408 0.0
H2651 H 0.09959 0.0033 0.53125 0.0
C2652 C 0.34687 0.93715 0.74988 0.0
C2653 C 0.36609 0.93651 0.74362 0.0
C2654 C 0.33565 0.92065 0.75017 0.0
C2655 C 0.33963 0.86867 0.75199 0.0
H2656 H 0.28571 0.87021 0.73787 0.0
C2657 C 0.28891 0.80271 0.74473 0.0
C2658 C 0.26991 0.80524 0.75124 0.0
C2659 C 0.3019 0.81797 0.74486 0.0
C2660 C 0.30071 0.86962 0.74205 0.0
H2661 H 0.38845 0.91811 0.73221 0.0
H2662 H 0.3687 0.88936 0.73246 0.0
H2663 H 0.30565 0.89852 0.73447 0.0
H2664 H 0.25016 0.8252 0.76459 0.0
H2665 H 0.27286 0.85166 0.76504 0.0
H2666 H 0.33456 0.83961 0.75945 0.0
C2667 C 0.36246 0.90258 0.73746 0.0
C2668 C 0.31212 0.88581 0.74008 0.0
C2669 C 0.3737 0.91909 0.73719 0.0
C2670 C 0.2646 0.82288 0.75918 0.0
C2671 C 0.27755 0.83806 0.75936 0.0
C2672 C 0.32819 0.85238 0.75389 0.0
C2673 C 0.34339 0.90317 0.74415 0.0
C2674 C 0.33163 0.88559 0.74524 0.0
C2675 C 0.29607 0.83594 0.75156 0.0
C2676 C 0.30856 0.85283 0.74919 0.0
H2677 H 0.34058 0.95032 0.755 0.0
H2678 H 0.32106 0.92152 0.75561 0.0
H2679 H 0.3546 0.86813 0.75625 0.0
H2680 H 0.29339 0.78929 0.73853 0.0
H2681 H 0.31612 0.81597 0.73877 0.0
C2682 C 0.31085 0.08637 0.9762 0.0
C2683 C 0.29793 0.07632 0.98789 0.0
C2684 C 0.32929 0.07934 0.97247 0.0
C2685 C 0.36 0.03633 0.97775 0.0
H2686 H 0.40089 0.07339 0.98592 0.0
C2687 C 0.42808 0.02287 0.01926 0.0
C2688 C 0.44581 0.03035 0.01326 0.0
C2689 C 0.41144 0.02607 0.0088 0.0
C2690 C 0.38972 0.06291 0.98305 0.0
H2691 H 0.29403 0.05065 0.00425 0.0
H2692 H 0.32621 0.03867 -0.00176 0.0
H2693 H 0.36798 0.08413 0.98152 0.0
H2694 H 0.46044 0.04637 0.99135 0.0
H2695 H 0.43081 0.0529 0.97333 0.0
H2696 H 0.38169 0.01511 0.98092 0.0
C2697 C 0.32205 0.0518 0.99158 0.0
C2698 C 0.3708 0.06904 0.98056 0.0
C2699 C 0.30361 0.05877 0.9952 0.0
C2700 C 0.44686 0.04049 -0.00382 0.0
C2701 C 0.42999 0.0442 0.98593 0.0
C2702 C 0.37888 0.03022 0.98043 0.0
C2703 C 0.33525 0.06213 0.98042 0.0
C2704 C 0.35559 0.05579 0.97877 0.0
C2705 C 0.41211 0.03721 0.99236 0.0
C2706 C 0.39374 0.04344 0.98395 0.0
H2707 H 0.30686 0.09985 0.97016 0.0
H2708 H 0.33899 0.08754 0.96363 0.0
H2709 H 0.34872 0.02577 0.97589 0.0
H2710 H 0.427 0.01491 0.03235 0.0
H2711 H 0.39784 0.02075 0.01424 0.0
C2712 C 0.63418 0.57107 0.73591 0.0
C2713 C 0.6435 0.5542 0.74099 0.0
C2714 C 0.64461 0.58789 0.73338 0.0
C2715 C 0.69394 0.60721 0.72582 0.0
H2716 H 0.67265 0.65279 0.74905 0.0
C2717 C 0.73909 0.66975 0.75352 0.0
C2718 C 0.73095 0.68787 0.75512 0.0
C2719 C 0.72886 0.65479 0.74498 0.0
C2720 C 0.67864 0.64037 0.742 0.0
H2721 H 0.67128 0.54185 0.74715 0.0
H2722 H 0.68951 0.57137 0.74307 0.0
H2723 H 0.65386 0.62357 0.74879 0.0
H2724 H 0.70656 0.70515 0.74768 0.0
H2725 H 0.68849 0.67891 0.73251 0.0
H2726 H 0.71905 0.62396 0.71968 0.0
C2727 C 0.67409 0.57146 0.74077 0.0
C2728 C 0.66787 0.62352 0.74195 0.0
C2729 C 0.66362 0.55457 0.74328 0.0
C2730 C 0.7132 0.69132 0.74638 0.0
C2731 C 0.70279 0.67623 0.73795 0.0
C2732 C 0.70473 0.6241 0.72584 0.0
C2733 C 0.66468 0.58836 0.7359 0.0
C2734 C 0.67556 0.60661 0.73429 0.0
C2735 C 0.7101 0.65759 0.73811 0.0
C2736 C 0.69741 0.64078 0.73439 0.0
H2737 H 0.61873 0.57136 0.73383 0.0
H2738 H 0.63692 0.60054 0.72938 0.0
H2739 H 0.70013 0.59454 0.71945 0.0
H2740 H 0.75272 0.66678 0.76034 0.0
H2741 H 0.73496 0.6407 0.74549 0.0
C2742 C 0.81758 0.40755 0.96529 0.0
C2743 C 0.80986 0.40244 0.98302 0.0
C2744 C 0.83744 0.40813 0.9625 0.0
C2745 C 0.88495 0.39723 0.98511 0.0
H2746 H 0.90064 0.44177 0.95702 0.0
C2747 C 0.951 0.44397 6e-05 0.0
C2748 C 0.95791 0.45527 0.98521 0.0
C2749 C 0.93699 0.43005 -0.00365 0.0
C2750 C 0.8967 0.42893 0.96446 0.0
H2751 H 0.81665 0.39318 0.01155 0.0
H2752 H 0.85154 0.39545 0.00718 0.0
H2753 H 0.86723 0.43263 0.95753 0.0
H2754 H 0.95781 0.45968 0.95473 0.0
H2755 H 0.93382 0.43491 0.94804 0.0
H2756 H 0.91465 0.39466 0.99315 0.0
C2757 C 0.8423 0.3984 0.99517 0.0
C2758 C 0.87737 0.42365 0.96479 0.0
C2759 C 0.82233 0.39731 -0.00222 0.0
C2760 C 0.95264 0.45099 0.96634 0.0
C2761 C 0.93883 0.43693 0.96258 0.0
C2762 C 0.9044 0.40269 0.98495 0.0
C2763 C 0.8501 0.4042 0.97757 0.0
C2764 C 0.87111 0.408 0.97545 0.0
C2765 C 0.92978 0.42742 0.97773 0.0
C2766 C 0.91038 0.41887 0.97495 0.0
H2767 H 0.80823 0.41108 0.95351 0.0
H2768 H 0.84286 0.41206 0.94857 0.0
H2769 H 0.8807 0.3849 0.9932 0.0
H2770 H 0.95485 0.44725 0.01475 0.0
H2771 H 0.93033 0.42298 0.00834 0.0
C2772 C 0.35696 0.06449 0.77569 0.0
C2773 C 0.35082 0.04969 0.76346 0.0
C2774 C 0.34762 0.08196 0.7757 0.0
C2775 C 0.30454 0.10744 0.75774 0.0
H2776 H 0.33993 0.1503 0.75868 0.0
C2777 C 0.30884 0.19237 0.73803 0.0
C2778 C 0.29174 0.19895 0.7465 0.0
C2779 C 0.31442 0.17353 0.74004 0.0
C2780 C 0.32985 0.1385 0.75818 0.0
H2781 H 0.32949 0.04117 0.74238 0.0
H2782 H 0.31355 0.07187 0.74192 0.0
H2783 H 0.35212 0.11861 0.76347 0.0
H2784 H 0.26663 0.19065 0.76301 0.0
H2785 H 0.27665 0.15785 0.76696 0.0
H2786 H 0.28238 0.12745 0.75161 0.0
C2787 C 0.32534 0.06993 0.75178 0.0
C2788 C 0.33679 0.12031 0.7613 0.0
C2789 C 0.33453 0.05235 0.75197 0.0
C2790 C 0.27993 0.18604 0.75635 0.0
C2791 C 0.28562 0.16721 0.75855 0.0
C2792 C 0.29758 0.1257 0.75448 0.0
C2793 C 0.33214 0.08511 0.76325 0.0
C2794 C 0.32427 0.10452 0.76105 0.0
C2795 C 0.30316 0.16086 0.75077 0.0
C2796 C 0.31022 0.14141 0.75449 0.0
H2797 H 0.36933 0.06275 0.78489 0.0
H2798 H 0.35291 0.09318 0.7851 0.0
H2799 H 0.29447 0.09561 0.75761 0.0
H2800 H 0.31814 0.20186 0.73011 0.0
H2801 H 0.32775 0.16897 0.73341 0.0
C2802 C 0.18084 0.93722 0.2597 0.0
C2803 C 0.1615 0.93929 0.26523 0.0
C2804 C 0.1904 0.92007 0.26263 0.0
C2805 C 0.17984 0.86913 0.26763 0.0
H2806 H 0.23476 0.86632 0.27694 0.0
C2807 C 0.21979 0.79922 0.25468 0.0
C2808 C 0.23471 0.80191 0.24142 0.0
C2809 C 0.21219 0.81487 0.26471 0.0
C2810 C 0.21937 0.86685 0.27451 0.0
H2811 H 0.13732 0.92533 0.27902 0.0
H2812 H 0.15403 0.8956 0.28427 0.0
H2813 H 0.21838 0.89678 0.2804 0.0
H2814 H 0.2545 0.82237 0.22931 0.0
H2815 H 0.2416 0.84944 0.24683 0.0
H2816 H 0.18095 0.83945 0.26086 0.0
C2817 C 0.16172 0.90705 0.27737 0.0
C2818 C 0.21002 0.88431 0.27638 0.0
C2819 C 0.15216 0.92413 0.27439 0.0
C2820 C 0.24296 0.82001 0.23948 0.0
C2821 C 0.23564 0.8355 0.24965 0.0
C2822 C 0.18919 0.85169 0.26578 0.0
C2823 C 0.18084 0.90466 0.27121 0.0
C2824 C 0.19027 0.88578 0.27228 0.0
C2825 C 0.21963 0.83329 0.26174 0.0
C2826 C 0.20919 0.85049 0.26847 0.0
H2827 H 0.18843 0.94864 0.25263 0.0
H2828 H 0.20505 0.91867 0.25747 0.0
H2829 H 0.16466 0.86972 0.26421 0.0
H2830 H 0.21311 0.78539 0.25625 0.0
H2831 H 0.19991 0.81273 0.27403 0.0
C2832 C 0.49527 0.31599 0.41872 0.0
C2833 C 0.50421 0.31686 0.40068 0.0
C2834 C 0.48907 0.33262 0.42806 0.0
C2835 C 0.47708 0.38305 0.41915 0.0
H2836 H 0.49336 0.39196 0.47144 0.0
C2837 C 0.49795 0.45567 0.44935 0.0
C2838 C 0.49689 0.4593 0.46904 0.0
C2839 C 0.49094 0.43858 0.44167 0.0
C2840 C 0.48817 0.3896 0.45701 0.0
H2841 H 0.51348 0.33599 0.37835 0.0
H2842 H 0.50282 0.36472 0.39458 0.0
H2843 H 0.49723 0.36058 0.4569 0.0
H2844 H 0.48648 0.44882 0.49607 0.0
H2845 H 0.47393 0.41884 0.48264 0.0
H2846 H 0.46881 0.41229 0.41898 0.0
C2847 C 0.50038 0.35123 0.40145 0.0
C2848 C 0.49049 0.37159 0.44865 0.0
C2849 C 0.5067 0.33471 0.39222 0.0
C2850 C 0.48714 0.4464 0.48076 0.0
C2851 C 0.48022 0.42916 0.4731 0.0
C2852 C 0.47471 0.40104 0.42752 0.0
C2853 C 0.49147 0.35042 0.41945 0.0
C2854 C 0.4857 0.36833 0.42939 0.0
C2855 C 0.48301 0.42464 0.45362 0.0
C2856 C 0.48096 0.40475 0.44631 0.0
H2857 H 0.49307 0.30248 0.42562 0.0
H2858 H 0.48225 0.33155 0.44194 0.0
H2859 H 0.47284 0.38086 0.4044 0.0
H2860 H 0.50575 0.46531 0.44014 0.0
H2861 H 0.4935 0.4356 0.42666 0.0
C2862 C 0.46256 0.74842 0.1982 0.0
C2863 C 0.46628 0.75515 0.1797 0.0
C2864 C 0.44362 0.74695 0.20498 0.0
C2865 C 0.39483 0.74024 0.18674 0.0
H2866 H 0.37691 0.75998 0.2356 0.0
C2867 C 0.31569 0.75524 0.20051 0.0
C2868 C 0.30741 0.75099 0.21829 0.0
C2869 C 0.33543 0.75355 0.19759 0.0
C2870 C 0.38179 0.75407 0.22207 0.0
H2871 H 0.45304 0.76645 0.15423 0.0
H2872 H 0.42022 0.76382 0.16604 0.0
H2873 H 0.41125 0.76202 0.22743 0.0
H2874 H 0.31351 0.74145 0.24698 0.0
H2875 H 0.34831 0.73846 0.24176 0.0
H2876 H 0.36556 0.73249 0.18115 0.0
C2877 C 0.43191 0.75947 0.17518 0.0
C2878 C 0.40139 0.75531 0.21739 0.0
C2879 C 0.45075 0.76108 0.16848 0.0
C2880 C 0.31942 0.74482 0.2331 0.0
C2881 C 0.33933 0.7432 0.23016 0.0
C2882 C 0.37537 0.73892 0.19143 0.0
C2883 C 0.42812 0.752 0.1933 0.0
C2884 C 0.40794 0.74891 0.19943 0.0
C2885 C 0.34749 0.74753 0.21233 0.0
C2886 C 0.36853 0.74635 0.20887 0.0
H2887 H 0.47421 0.74378 0.20722 0.0
H2888 H 0.44106 0.74119 0.21903 0.0
H2889 H 0.39959 0.73479 0.17297 0.0
H2890 H 0.30696 0.76003 0.18874 0.0
H2891 H 0.3413 0.75733 0.18379 0.0
C2892 C 0.01247 0.68991 0.92725 0.0
C2893 C 0.00539 0.69248 0.90868 0.0
C2894 C 0.01251 0.67183 0.93532 0.0
C2895 C 0.00978 0.62061 0.92179 0.0
H2896 H -0.00423 0.614 0.97491 0.0
C2897 C 0.98144 0.55054 0.95281 0.0
C2898 C 0.98614 0.54606 0.97165 0.0
C2899 C 0.9882 0.56738 0.94479 0.0
C2900 C 0.0001 0.61562 0.96015 0.0
H2901 H 0.9923 0.67821 0.88424 0.0
H2902 H 0.99189 0.6469 0.89846 0.0
H2903 H -0.0022 0.64587 0.96198 0.0
H2904 H 0.00161 0.55529 -0.00307 0.0
H2905 H 0.01371 0.58475 0.98289 0.0
H2906 H 0.01138 0.59026 0.91985 0.0
C2907 C -0.00211 0.65869 0.90664 0.0
C2908 C 0.00121 0.63391 0.95271 0.0
C2909 C -0.00207 0.67671 0.89856 0.0
C2910 C -0.00165 0.5582 0.98215 0.0
C2911 C 0.00498 0.57518 0.97421 0.0
C2912 C 0.00856 0.60231 0.9292 0.0
C2913 C 0.00542 0.65596 0.92502 0.0
C2914 C 0.00569 0.63662 0.93334 0.0
C2915 C -0.00054 0.58023 0.95565 0.0
C2916 C 0.00337 0.59959 0.94838 0.0
H2917 H 0.01844 0.70176 0.93537 0.0
H2918 H 0.01853 0.67024 0.94946 0.0
H2919 H 0.01372 0.62218 0.90692 0.0
H2920 H 0.97165 0.54153 0.94465 0.0
H2921 H 0.98347 0.57093 0.93056 0.0
C2922 C 0.08693 0.25014 0.6303 0.0
C2923 C 0.07506 0.25367 0.64627 0.0
C2924 C 0.1063 0.24537 0.63275 0.0
C2925 C 0.1375 0.2235 0.6677 0.0
H2926 H 0.18008 0.25164 0.64561 0.0
C2927 C 0.21211 0.24946 0.69698 0.0
C2928 C 0.21619 0.23338 0.70773 0.0
C2929 C 0.1993 0.24814 0.68169 0.0
C2930 C 0.16836 0.24346 0.65168 0.0
H2931 H 0.07428 0.25566 0.67722 0.0
H2932 H 0.10791 0.24728 0.68143 0.0
H2933 H 0.14708 0.25781 0.63511 0.0
H2934 H 0.21214 0.20302 0.70994 0.0
H2935 H 0.19038 0.20043 0.68263 0.0
H2936 H 0.1581 0.21012 0.68525 0.0
C2937 C 0.10222 0.24801 0.66707 0.0
C2938 C 0.14952 0.24694 0.64561 0.0
C2939 C 0.08301 0.25294 0.66464 0.0
C2940 C 0.20916 0.21558 0.70172 0.0
C2941 C 0.19661 0.21418 0.68621 0.0
C2942 C 0.1562 0.22001 0.67372 0.0
C2943 C 0.11393 0.24384 0.65118 0.0
C2944 C 0.13392 0.23762 0.65429 0.0
C2945 C 0.19036 0.23067 0.67701 0.0
C2946 C 0.1718 0.23057 0.66646 0.0
H2947 H 0.08118 0.25068 0.61596 0.0
H2948 H 0.11512 0.24231 0.62031 0.0
H2949 H 0.12569 0.2159 0.67435 0.0
H2950 H 0.21706 0.26338 0.70171 0.0
H2951 H 0.19483 0.26118 0.67506 0.0
C2952 C 0.51496 0.67951 0.12676 0.0
C2953 C 0.50925 0.69636 0.1179 0.0
C2954 C 0.5122 0.66192 0.11767 0.0
C2955 C 0.48536 0.63831 0.07815 0.0
H2956 H 0.52876 0.6039 0.07649 0.0
C2957 C 0.49837 0.58694 0.01636 0.0
C2958 C 0.50301 0.56797 0.02013 0.0
C2959 C 0.49742 0.60035 0.03109 0.0
C2960 C 0.51639 0.61318 0.07716 0.0
H2961 H 0.49585 0.70788 0.09267 0.0
H2962 H 0.49131 0.67729 0.07669 0.0
H2963 H 0.52998 0.63207 0.0973 0.0
H2964 H 0.51058 0.54827 0.0424 0.0
H2965 H 0.50932 0.57213 0.06834 0.0
H2966 H 0.47222 0.61992 0.05727 0.0
C2967 C 0.49765 0.67762 0.09082 0.0
C2968 C 0.51706 0.6293 0.08905 0.0
C2969 C 0.50039 0.6952 0.09991 0.0
C2970 C 0.50695 0.56278 0.03905 0.0
C2971 C 0.50624 0.57637 0.05386 0.0
C2972 C 0.48475 0.6223 0.06622 0.0
C2973 C 0.50364 0.6608 0.09953 0.0
C2974 C 0.5018 0.64235 0.08919 0.0
C2975 C 0.50125 0.59521 0.04996 0.0
C2976 C 0.50051 0.60995 0.06516 0.0
H2977 H 0.52174 0.67987 0.14068 0.0
H2978 H 0.51679 0.64919 0.12482 0.0
H2979 H 0.47318 0.64784 0.0783 0.0
H2980 H 0.49515 0.59148 0.00201 0.0
H2981 H 0.49386 0.61487 0.02768 0.0
C2982 C 0.08825 0.73631 0.86874 0.0
C2983 C 0.07184 0.73636 0.85701 0.0
C2984 C 0.1062 0.73115 0.8612 0.0
C2985 C 0.1293 0.70839 0.81856 0.0
H2986 H 0.17002 0.7453 0.8278 0.0
C2987 C 0.17822 0.73742 0.76177 0.0
C2988 C 0.19644 0.7447 0.76647 0.0
C2989 C 0.16728 0.72792 0.7754 0.0
C2990 C 0.15911 0.73444 0.82542 0.0
H2991 H 0.06129 0.73062 0.82834 0.0
H2992 H 0.09242 0.72201 0.81519 0.0
H2993 H 0.14151 0.74561 0.84795 0.0
H2994 H 0.21817 0.74694 0.78837 0.0
H2995 H 0.19898 0.7304 0.81253 0.0
H2996 H 0.14636 0.69821 0.79506 0.0
C2997 C 0.09149 0.7256 0.83027 0.0
C2998 C 0.14269 0.73467 0.83698 0.0
C2999 C 0.07365 0.73079 0.83776 0.0
C3000 C 0.20431 0.74102 0.78443 0.0
C3001 C 0.19324 0.73175 0.79825 0.0
C3002 C 0.1457 0.7082 0.80696 0.0
C3003 C 0.10802 0.72584 0.84183 0.0
C3004 C 0.12717 0.72232 0.833 0.0
C3005 C 0.17423 0.72598 0.79412 0.0
C3006 C 0.1603 0.72191 0.80964 0.0
H3007 H 0.08726 0.74041 0.88368 0.0
H3008 H 0.11867 0.73145 0.87047 0.0
H3009 H 0.11777 0.69836 0.81546 0.0
H3010 H 0.17186 0.74033 0.74801 0.0
H3011 H 0.15265 0.72384 0.77177 0.0
C3012 C 0.0042 0.32346 0.61498 0.0
C3013 C -0.00325 0.30573 0.60907 0.0
C3014 C 0.00134 0.33951 0.60397 0.0
C3015 C 0.96918 0.36204 0.57189 0.0
H3016 H 0.0138 0.39243 0.55794 0.0
C3017 C 0.96816 0.44263 0.55928 0.0
C3018 C 0.97871 0.4498 0.54378 0.0
C3019 C 0.96874 0.42334 0.56353 0.0
C3020 C 0.00123 0.38396 0.56147 0.0
H3021 H 0.98006 0.29095 0.58724 0.0
H3022 H 0.97443 0.31945 0.56822 0.0
H3023 H 0.0183 0.36154 0.57275 0.0
H3024 H -0.00233 0.44228 0.52026 0.0
H3025 H -0.00083 0.40856 0.5281 0.0
H3026 H 0.95211 0.38499 0.56158 0.0
C3027 C 0.98276 0.32067 0.58126 0.0
C3028 C 0.0038 0.36639 0.57001 0.0
C3029 C 0.98598 0.30445 0.59211 0.0
C3030 C 0.98944 0.43718 0.53231 0.0
C3031 C 0.99031 0.41792 0.53678 0.0
C3032 C 0.9666 0.37981 0.56364 0.0
C3033 C 0.99066 0.33825 0.58701 0.0
C3034 C 0.98781 0.35549 0.57564 0.0
C3035 C 0.98011 0.41089 0.55255 0.0
C3036 C 0.98261 0.39106 0.55871 0.0
H3037 H 0.01264 0.32489 0.62793 0.0
H3038 H 0.00738 0.35299 0.60877 0.0
H3039 H 0.95667 0.35386 0.57621 0.0
H3040 H 0.95963 0.45197 0.5683 0.0
H3041 H 0.96091 0.4183 0.57589 0.0
C3042 C 0.46604 0.26766 0.311 0.0
C3043 C 0.46746 0.2617 0.33004 0.0
C3044 C 0.4484 0.26693 0.30145 0.0
C3045 C 0.3963 0.26647 0.31018 0.0
H3046 H 0.39261 0.24526 0.25884 0.0
C3047 C 0.33389 0.23052 0.26274 0.0
C3048 C 0.31901 0.24355 0.26593 0.0
C3049 C 0.35294 0.23554 0.26683 0.0
C3050 C 0.39347 0.25136 0.27311 0.0
H3051 H 0.45147 0.25011 0.3539 0.0
H3052 H 0.42063 0.24888 0.3372 0.0
H3053 H 0.42403 0.2476 0.2745 0.0
H3054 H 0.31223 0.27209 0.27545 0.0
H3055 H 0.34563 0.28111 0.28227 0.0
H3056 H 0.36573 0.26972 0.3091 0.0
C3057 C 0.43319 0.25424 0.32974 0.0
C3058 C 0.41143 0.25275 0.28204 0.0
C3059 C 0.45087 0.25481 0.33925 0.0
C3060 C 0.32354 0.26204 0.27223 0.0
C3061 C 0.3426 0.26706 0.27647 0.0
C3062 C 0.37839 0.26523 0.30121 0.0
C3063 C 0.43177 0.26038 0.31078 0.0
C3064 C 0.41295 0.25998 0.30081 0.0
C3065 C 0.35738 0.25361 0.27449 0.0
C3066 C 0.37673 0.25735 0.28272 0.0
H3067 H 0.47854 0.27302 0.30345 0.0
H3068 H 0.4477 0.27185 0.28688 0.0
H3069 H 0.39709 0.27234 0.32455 0.0
H3070 H 0.33064 0.21608 0.25815 0.0
H3071 H 0.36396 0.2248 0.26534 0.0
C3072 C 0.43438 0.49184 0.29215 0.0
C3073 C 0.41689 0.49939 0.28573 0.0
C3074 C 0.44029 0.49472 0.31105 0.0
C3075 C 0.42059 0.50589 0.35877 0.0
H3076 H 0.47388 0.51624 0.37213 0.0
C3077 C 0.44264 0.52702 0.4351 0.0
C3078 C 0.45902 0.5183 0.4427 0.0
C3079 C 0.4383 0.52513 0.41573 0.0
C3080 C 0.45898 0.51318 0.36861 0.0
H3081 H 0.3922 0.51638 0.29401 0.0
H3082 H 0.40264 0.52159 0.32684 0.0
H3083 H 0.46485 0.51247 0.33855 0.0
H3084 H 0.48389 0.50097 0.43572 0.0
H3085 H 0.47618 0.49761 0.40183 0.0
H3086 H 0.41468 0.50658 0.38874 0.0
C3087 C 0.41161 0.51314 0.31737 0.0
C3088 C 0.45381 0.51102 0.34939 0.0
C3089 C 0.40568 0.51025 0.2985 0.0
C3090 C 0.47118 0.50792 0.43035 0.0
C3091 C 0.46682 0.50604 0.41092 0.0
C3092 C 0.42575 0.50807 0.37792 0.0
C3093 C 0.42885 0.50521 0.32393 0.0
C3094 C 0.43453 0.50745 0.34427 0.0
C3095 C 0.45021 0.51446 0.40346 0.0
C3096 C 0.44497 0.51184 0.38306 0.0
H3097 H 0.44335 0.48339 0.28268 0.0
H3098 H 0.45357 0.48829 0.3157 0.0
H3099 H 0.40569 0.50273 0.35534 0.0
H3100 H 0.43301 0.53523 0.44413 0.0
H3101 H 0.42558 0.53205 0.41035 0.0
C3102 C 0.23125 0.62438 0.07105 0.0
C3103 C 0.2398 0.6346 0.05606 0.0
C3104 C 0.23051 0.63208 0.08952 0.0
C3105 C 0.23034 0.67848 0.11377 0.0
H3106 H 0.23617 0.64948 0.16007 0.0
C3107 C 0.21463 0.71439 0.18443 0.0
C3108 C 0.22959 0.7132 0.19776 0.0
C3109 C 0.21335 0.70129 0.16937 0.0
C3110 C 0.23448 0.65772 0.14725 0.0
H3111 H 0.25518 0.66051 0.04903 0.0
H3112 H 0.25407 0.67386 0.08134 0.0
H3113 H 0.24154 0.63412 0.12889 0.0
H3114 H 0.25371 0.69642 0.20714 0.0
H3115 H 0.25183 0.67371 0.18046 0.0
H3116 H 0.22385 0.70218 0.13184 0.0
C3117 C 0.24761 0.66003 0.07867 0.0
C3118 C 0.23748 0.64893 0.12942 0.0
C3119 C 0.24835 0.65234 0.06017 0.0
C3120 C 0.24198 0.69754 0.19704 0.0
C3121 C 0.24092 0.68458 0.18172 0.0
C3122 C 0.22734 0.68722 0.13148 0.0
C3123 C 0.23829 0.65017 0.09345 0.0
C3124 C 0.23554 0.65929 0.1125 0.0
C3125 C 0.22729 0.68705 0.16713 0.0
C3126 C 0.22934 0.67698 0.14845 0.0
H3127 H 0.22459 0.61063 0.06843 0.0
H3128 H 0.22312 0.62419 0.10053 0.0
H3129 H 0.22842 0.68679 0.10102 0.0
H3130 H 0.20482 0.72629 0.18484 0.0
H3131 H 0.20229 0.70318 0.1587 0.0
C3132 C 0.05554 0.5015 0.79212 0.0
C3133 C 0.07393 0.49446 0.7876 0.0
C3134 C 0.04881 0.5013 0.81099 0.0
C3135 C 0.06757 0.50097 0.85989 0.0
H3136 H 0.01625 0.48474 0.87483 0.0
C3137 C 0.04978 0.48418 0.93729 0.0
C3138 C 0.03256 0.4913 0.94508 0.0
C3139 C 0.05327 0.48499 0.91773 0.0
C3140 C 0.03054 0.48953 0.87081 0.0
H3141 H 0.09925 0.48084 0.79917 0.0
H3142 H 0.08748 0.4804 0.8318 0.0
H3143 H 0.02505 0.48523 0.84089 0.0
H3144 H 0.00527 0.50445 0.93825 0.0
H3145 H 0.01151 0.50588 0.90391 0.0
H3146 H 0.07322 0.50514 0.88962 0.0
C3147 C 0.07842 0.48642 0.8209 0.0
C3148 C 0.03556 0.4898 0.85143 0.0
C3149 C 0.08511 0.4866 0.80216 0.0
C3150 C 0.01869 0.49883 0.93273 0.0
C3151 C 0.02221 0.49961 0.91306 0.0
C3152 C 0.06258 0.5007 0.87915 0.0
C3153 C 0.0604 0.49412 0.8256 0.0
C3154 C 0.05427 0.49515 0.84586 0.0
C3155 C 0.03968 0.49295 0.90544 0.0
C3156 C 0.04416 0.4946 0.88485 0.0
H3157 H 0.04657 0.50761 0.78121 0.0
H3158 H 0.03485 0.50733 0.81424 0.0
H3159 H 0.08194 0.50561 0.85599 0.0
H3160 H 0.06072 0.47811 0.9463 0.0
H3161 H 0.06671 0.47939 0.91221 0.0
C3162 C 0.24216 0.3555 0.58342 0.0
C3163 C 0.23755 0.34554 0.56648 0.0
C3164 C 0.24248 0.3462 0.60085 0.0
C3165 C 0.2481 0.29907 0.62169 0.0
H3166 H 0.23123 0.32535 0.66781 0.0
C3167 C 0.25975 0.26697 0.69575 0.0
C3168 C 0.26903 0.27947 0.70854 0.0
C3169 C 0.25129 0.27386 0.67915 0.0
C3170 C 0.23594 0.31781 0.65505 0.0
H3171 H 0.22959 0.318 0.55454 0.0
H3172 H 0.23013 0.30167 0.58515 0.0
H3173 H 0.22544 0.33944 0.63673 0.0
H3174 H 0.27655 0.30877 0.71462 0.0
H3175 H 0.26147 0.321 0.68584 0.0
H3176 H 0.25907 0.2777 0.64003 0.0
C3177 C 0.23361 0.31668 0.58486 0.0
C3178 C 0.23269 0.3259 0.63726 0.0
C3179 C 0.23329 0.32603 0.56735 0.0
C3180 C 0.26911 0.29899 0.70504 0.0
C3181 C 0.26045 0.30593 0.6886 0.0
C3182 C 0.25129 0.29096 0.63948 0.0
C3183 C 0.23817 0.3267 0.60181 0.0
C3184 C 0.23925 0.31689 0.62042 0.0
C3185 C 0.25193 0.29338 0.6752 0.0
C3186 C 0.24573 0.3005 0.65638 0.0
H3187 H 0.24555 0.37054 0.58325 0.0
H3188 H 0.24645 0.35426 0.61355 0.0
H3189 H 0.25346 0.29184 0.60902 0.0
H3190 H 0.26 0.25179 0.698 0.0
H3191 H 0.24479 0.26387 0.66912 0.0
C3192 C 0.37776 0.50474 0.15935 0.0
C3193 C 0.39074 0.50729 0.17456 0.0
C3194 C 0.38295 0.51003 0.14086 0.0
C3195 C 0.41882 0.53791 0.1132 0.0
H3196 H 0.41191 0.49784 0.07529 0.0
C3197 C 0.47276 0.52112 0.05466 0.0
C3198 C 0.46704 0.50969 0.03914 0.0
C3199 C 0.45903 0.52814 0.06749 0.0
C3200 C 0.41351 0.50956 0.08536 0.0
H3201 H 0.41913 0.51781 0.18242 0.0
H3202 H 0.42828 0.52672 0.15017 0.0
H3203 H 0.39602 0.49536 0.10589 0.0
H3204 H 0.44279 0.4977 0.02383 0.0
H3205 H 0.41859 0.51104 0.04535 0.0
H3206 H 0.43707 0.5517 0.09286 0.0
C3207 C 0.41399 0.52091 0.15254 0.0
C3208 C 0.40442 0.50803 0.10305 0.0
C3209 C 0.40884 0.51557 0.17099 0.0
C3210 C 0.44741 0.50705 0.03536 0.0
C3211 C 0.43362 0.51435 0.04797 0.0
C3212 C 0.42785 0.53951 0.09541 0.0
C3213 C 0.40118 0.51805 0.13724 0.0
C3214 C 0.40763 0.52177 0.11743 0.0
C3215 C 0.43936 0.52371 0.06496 0.0
C3216 C 0.42599 0.52492 0.08157 0.0
H3217 H 0.36363 0.49855 0.16169 0.0
H3218 H 0.37275 0.50771 0.12936 0.0
H3219 H 0.42124 0.54891 0.12393 0.0
H3220 H 0.48791 0.52293 0.058 0.0
H3221 H 0.4641 0.5352 0.08039 0.0
C3222 C 0.27059 0.6624 0.92791 0.0
C3223 C 0.26091 0.66969 0.94401 0.0
C3224 C 0.2733 0.67352 0.91181 0.0
C3225 C 0.25047 0.71151 0.88598 0.0
H3226 H 0.2962 0.70721 0.85435 0.0
C3227 C 0.25525 0.73789 0.8072 0.0
C3228 C 0.2621 0.72375 0.79453 0.0
C3229 C 0.25651 0.73551 0.82703 0.0
C3230 C 0.28336 0.70865 0.86307 0.0
H3231 H 0.24708 0.69459 0.95618 0.0
H3232 H 0.25163 0.71408 0.92773 0.0
H3233 H 0.29679 0.69576 0.88704 0.0
H3234 H 0.27573 0.69606 0.79295 0.0
H3235 H 0.27806 0.69215 0.8271 0.0
H3236 H 0.23681 0.72363 0.86159 0.0
C3237 C 0.25715 0.69974 0.92769 0.0
C3238 C 0.28371 0.70211 0.88177 0.0
C3239 C 0.25466 0.68863 0.94398 0.0
C3240 C 0.27037 0.70734 0.80216 0.0
C3241 C 0.27183 0.7051 0.82181 0.0
C3242 C 0.25013 0.71808 0.8672 0.0
C3243 C 0.26623 0.69216 0.91133 0.0
C3244 C 0.26704 0.70276 0.89317 0.0
C3245 C 0.26499 0.71913 0.83448 0.0
C3246 C 0.26635 0.71599 0.85534 0.0
H3247 H 0.27559 0.64786 0.92753 0.0
H3248 H 0.28014 0.66717 0.89937 0.0
H3249 H 0.23737 0.71211 0.8944 0.0
H3250 H 0.24916 0.75086 0.80184 0.0
H3251 H 0.25114 0.74656 0.83652 0.0
C3252 C 0.09256 0.48329 0.67703 0.0
C3253 C 0.11203 0.48481 0.68218 0.0
C3254 C 0.08665 0.48842 0.65885 0.0
C3255 C 0.10118 0.4974 0.60968 0.0
H3256 H 0.0568 0.53047 0.6117 0.0
C3257 C 0.03791 0.53493 0.56174 0.0
C3258 C 0.0327 0.51861 0.55124 0.0
C3259 C 0.054 0.5347 0.57364 0.0
C3260 C 0.06951 0.52169 0.61073 0.0
H3261 H 0.14081 0.49148 0.6719 0.0
H3262 H 0.13033 0.50041 0.63994 0.0
H3263 H 0.07162 0.52058 0.64109 0.0
H3264 H 0.04065 0.48982 0.54373 0.0
H3265 H 0.0684 0.48916 0.56468 0.0
H3266 H 0.09864 0.49814 0.57916 0.0
C3267 C 0.11972 0.49537 0.65008 0.0
C3268 C 0.07777 0.51574 0.62765 0.0
C3269 C 0.12567 0.49028 0.66835 0.0
C3270 C 0.04474 0.50273 0.55132 0.0
C3271 C 0.06064 0.50237 0.56345 0.0
C3272 C 0.09283 0.50335 0.59261 0.0
C3273 C 0.10008 0.49512 0.64545 0.0
C3274 C 0.0932 0.50301 0.6273 0.0
C3275 C 0.06466 0.51793 0.57567 0.0
C3276 C 0.0765 0.51509 0.59299 0.0
H3277 H 0.08175 0.47895 0.6873 0.0
H3278 H 0.07144 0.48772 0.65544 0.0
H3279 H 0.11321 0.4877 0.60909 0.0
H3280 H 0.02877 0.54734 0.56181 0.0
H3281 H 0.05704 0.54709 0.58252 0.0
C3282 C 0.23695 0.33564 0.45065 0.0
C3283 C 0.23363 0.35522 0.44919 0.0
C3284 C 0.23784 0.32409 0.43426 0.0
C3285 C 0.22455 0.32223 0.38295 0.0
H3286 H 0.2635 0.28311 0.38047 0.0
C3287 C 0.2438 0.27926 0.31382 0.0
C3288 C 0.24755 0.25982 0.31613 0.0
C3289 C 0.24076 0.29109 0.3298 0.0
C3290 C 0.2524 0.29384 0.38101 0.0
H3291 H 0.22859 0.378 0.42927 0.0
H3292 H 0.23047 0.35792 0.40075 0.0
H3293 H 0.26103 0.30326 0.40888 0.0
H3294 H 0.25 0.23744 0.337 0.0
H3295 H 0.24458 0.25796 0.36461 0.0
H3296 H 0.21612 0.31282 0.35489 0.0
C3297 C 0.23208 0.35142 0.41457 0.0
C3298 C 0.25096 0.30537 0.39733 0.0
C3299 C 0.23113 0.36296 0.43095 0.0
C3300 C 0.24741 0.25237 0.33466 0.0
C3301 C 0.24439 0.26415 0.35054 0.0
C3302 C 0.22604 0.3107 0.36656 0.0
C3303 C 0.23551 0.33186 0.41601 0.0
C3304 C 0.23697 0.31965 0.39855 0.0
C3305 C 0.24145 0.2837 0.34835 0.0
C3306 C 0.23991 0.29629 0.36548 0.0
H3307 H 0.23882 0.32918 0.46446 0.0
H3308 H 0.24022 0.30902 0.4359 0.0
H3309 H 0.21347 0.33297 0.3835 0.0
H3310 H 0.24385 0.28546 0.29976 0.0
H3311 H 0.23859 0.30613 0.32768 0.0
C3312 C 0.29939 0.4312 0.50208 0.0
C3313 C 0.29242 0.41323 0.50736 0.0
C3314 C 0.31866 0.4362 0.50505 0.0
C3315 C 0.36722 0.41738 0.51148 0.0
H3316 H 0.37707 0.4676 0.53288 0.0
C3317 C 0.43156 0.47462 0.53424 0.0
C3318 C 0.44216 0.47447 0.51717 0.0
C3319 C 0.41578 0.46245 0.53644 0.0
C3320 C 0.37468 0.45338 0.52723 0.0
H3321 H 0.30042 0.38626 0.51956 0.0
H3322 H 0.33425 0.39504 0.52462 0.0
H3323 H 0.34415 0.45629 0.52958 0.0
H3324 H 0.44591 0.46041 0.48974 0.0
H3325 H 0.41804 0.4393 0.49335 0.0
H3326 H 0.39793 0.41474 0.50877 0.0
C3327 C 0.32469 0.40521 0.51821 0.0
C3328 C 0.35575 0.44702 0.52508 0.0
C3329 C 0.3053 0.40025 0.5154 0.0
C3330 C 0.43806 0.46059 0.50314 0.0
C3331 C 0.42203 0.44856 0.5052 0.0
C3332 C 0.38629 0.42383 0.51351 0.0
C3333 C 0.33149 0.42332 0.51325 0.0
C3334 C 0.35177 0.42913 0.51687 0.0
C3335 C 0.41004 0.45022 0.5214 0.0
C3336 C 0.39022 0.44202 0.52121 0.0
H3337 H 0.28992 0.44153 0.49579 0.0
H3338 H 0.32356 0.45017 0.50084 0.0
H3339 H 0.36455 0.40352 0.50507 0.0
H3340 H 0.4345 0.48523 0.54525 0.0
H3341 H 0.40717 0.4637 0.54931 0.0
C3342 C 0.7976 0.0799 0.48458 0.0
C3343 C 0.78048 0.06991 0.48854 0.0
C3344 C 0.81531 0.07069 0.48481 0.0
C3345 C 0.8392 0.02497 0.48022 0.0
H3346 H 0.87962 0.05042 0.50922 0.0
C3347 C 0.92485 0.01803 0.50303 0.0
C3348 C 0.93296 0.01549 0.48482 0.0
C3349 C 0.90497 0.02018 0.50517 0.0
C3350 C 0.86844 0.04294 0.50132 0.0
H3351 H 0.76849 0.04218 0.49505 0.0
H3352 H 0.7996 0.026 0.49512 0.0
H3353 H 0.84736 0.0637 0.50899 0.0
H3354 H 0.92676 0.01222 0.45466 0.0
H3355 H 0.89198 0.01599 0.45832 0.0
H3356 H 0.86058 0.00449 0.47208 0.0
C3357 C 0.79919 0.04102 0.49201 0.0
C3358 C 0.85003 0.05068 0.501 0.0
C3359 C 0.78142 0.0503 0.49201 0.0
C3360 C 0.92078 0.01399 0.46888 0.0
C3361 C 0.90089 0.01606 0.471 0.0
C3362 C 0.85775 0.0173 0.48035 0.0
C3363 C 0.81631 0.05124 0.48881 0.0
C3364 C 0.83533 0.04198 0.49019 0.0
C3365 C 0.89287 0.01993 0.48908 0.0
C3366 C 0.87262 0.02637 0.49071 0.0
H3367 H 0.79743 0.095 0.48181 0.0
H3368 H 0.82829 0.07884 0.48202 0.0
H3369 H 0.82809 0.018 0.47177 0.0
H3370 H 0.93397 0.01997 0.51539 0.0
H3371 H 0.89918 0.02308 0.51929 0.0
C3372 C 0.64167 0.06134 0.25393 0.0
C3373 C 0.62844 0.05876 0.23897 0.0
C3374 C 0.65173 0.07847 0.25604 0.0
C3375 C 0.65424 0.12837 0.2389 0.0
H3376 H 0.70823 0.12296 0.25152 0.0
C3377 C 0.73144 0.17141 0.23383 0.0
C3378 C 0.72594 0.18949 0.2404 0.0
C3379 C 0.71832 0.15636 0.23387 0.0
C3380 C 0.69323 0.12472 0.24777 0.0
H3381 H 0.61492 0.07222 0.21483 0.0
H3382 H 0.63302 0.10178 0.21801 0.0
H3383 H 0.68728 0.09534 0.25188 0.0
H3384 H 0.7023 0.20619 0.2517 0.0
H3385 H 0.67943 0.17971 0.25233 0.0
H3386 H 0.66057 0.15765 0.23378 0.0
C3387 C 0.6353 0.09084 0.22845 0.0
C3388 C 0.6811 0.10891 0.24834 0.0
C3389 C 0.625 0.07383 0.22654 0.0
C3390 C 0.70688 0.1924 0.24646 0.0
C3391 C 0.69378 0.17724 0.24678 0.0
C3392 C 0.66647 0.14419 0.2381 0.0
C3393 C 0.64904 0.09324 0.24302 0.0
C3394 C 0.66149 0.11047 0.24376 0.0
C3395 C 0.69948 0.15896 0.24081 0.0
C3396 C 0.68617 0.14247 0.24229 0.0
H3397 H 0.6444 0.05006 0.2639 0.0
H3398 H 0.66187 0.07999 0.26771 0.0
H3399 H 0.63915 0.13014 0.23554 0.0
H3400 H 0.74599 0.16883 0.22883 0.0
H3401 H 0.72303 0.14261 0.22863 0.0
C3402 C 0.66435 0.89891 0.02749 0.0
C3403 C 0.68135 0.90837 0.02215 0.0
C3404 C 0.64719 0.90892 0.02988 0.0
C3405 C 0.6267 0.95814 0.0318 0.0
H3406 H 0.58193 0.93258 0.01024 0.0
C3407 C 0.56621 0.9936 0.99056 0.0
C3408 C 0.54722 0.98711 0.99283 0.0
C3409 C 0.5811 0.98561 0.00099 0.0
C3410 C 0.59415 0.9398 0.01675 0.0
H3411 H 0.69394 0.93576 0.01559 0.0
H3412 H 0.66389 0.95313 0.01877 0.0
H3413 H 0.61131 0.91489 0.01493 0.0
H3414 H 0.5286 0.96777 0.00804 0.0
H3415 H 0.55484 0.9532 0.02601 0.0
H3416 H 0.60965 0.98345 0.03205 0.0
C3417 C 0.66378 0.93809 0.02176 0.0
C3418 C 0.61108 0.92965 0.01947 0.0
C3419 C 0.68102 0.92811 0.01975 0.0
C3420 C 0.54312 0.97313 0.00632 0.0
C3421 C 0.55811 0.96478 0.01649 0.0
C3422 C 0.60981 0.96836 0.02877 0.0
C3423 C 0.64654 0.92858 0.02657 0.0
C3424 C 0.62779 0.9388 0.02649 0.0
C3425 C 0.57729 0.97063 0.0135 0.0
C3426 C 0.59357 0.95938 0.02071 0.0
H3427 H 0.66426 0.88372 0.02973 0.0
H3428 H 0.63437 0.90115 0.03404 0.0
H3429 H 0.63909 0.96557 0.0377 0.0
H3430 H 0.56963 0.00436 0.98015 0.0
H3431 H 0.59575 0.99023 -0.00176 0.0
C3432 C 0.33819 0.43443 0.24935 0.0
C3433 C 0.35718 0.43485 0.24232 0.0
C3434 C 0.32927 0.41711 0.25385 0.0
C3435 C 0.33227 0.36581 0.24254 0.0
H3436 H 0.29759 0.36052 0.28565 0.0
C3437 C 0.2911 0.29628 0.25169 0.0
C3438 C 0.27123 0.29894 0.25374 0.0
C3439 C 0.30394 0.31126 0.25566 0.0
C3440 C 0.30727 0.36175 0.27357 0.0
H3441 H 0.3818 0.4173 0.23498 0.0
H3442 H 0.3664 0.3874 0.24293 0.0
H3443 H 0.31486 0.39051 0.28101 0.0
H3444 H 0.24912 0.31866 0.26259 0.0
H3445 H 0.27129 0.34475 0.26956 0.0
H3446 H 0.32431 0.33743 0.23465 0.0
C3447 C 0.35823 0.40036 0.24469 0.0
C3448 C 0.31708 0.37897 0.27086 0.0
C3449 C 0.3671 0.41758 0.24017 0.0
C3450 C 0.26446 0.31619 0.26132 0.0
C3451 C 0.27722 0.33117 0.26526 0.0
C3452 C 0.32247 0.34866 0.24523 0.0
C3453 C 0.33917 0.39985 0.25143 0.0
C3454 C 0.32949 0.38129 0.25513 0.0
C3455 C 0.29702 0.32922 0.26147 0.0
C3456 C 0.30959 0.34647 0.26059 0.0
H3457 H 0.33015 0.44745 0.25123 0.0
H3458 H 0.31449 0.41722 0.25882 0.0
H3459 H 0.34147 0.36714 0.23011 0.0
H3460 H 0.29656 0.28329 0.24529 0.0
H3461 H 0.31914 0.30917 0.2529 0.0
C3462 C 0.17582 0.59945 0.98382 0.0
C3463 C 0.1815 0.61856 0.98559 0.0
C3464 C 0.15721 0.59388 0.98882 0.0
C3465 C 0.10777 0.6093 -0.00311 0.0
H3466 H 0.10648 0.56479 0.02882 0.0
C3467 C 0.05489 0.54804 0.03184 0.0
C3468 C 0.04477 0.54345 0.0151 0.0
C3469 C 0.06773 0.56339 0.03217 0.0
C3470 C 0.10644 0.57752 0.02034 0.0
H3471 H 0.17181 0.64703 0.99279 0.0
H3472 H 0.13908 0.63719 0.00144 0.0
H3473 H 0.13717 0.57878 0.0202 0.0
H3474 H 0.03895 0.55172 0.98608 0.0
H3475 H 0.06155 0.57824 0.9864 0.0
H3476 H 0.0769 0.60763 -0.00336 0.0
C3477 C 0.14914 0.62658 -0.0037 0.0
C3478 C 0.1241 0.58533 0.01512 0.0
C3479 C 0.16785 0.63217 0.99139 0.0
C3480 C 0.04624 0.55537 -0.0007 0.0
C3481 C 0.05929 0.57054 -0.00049 0.0
C3482 C 0.08997 0.60142 0.00209 0.0
C3483 C 0.14388 0.60731 0.99561 0.0
C3484 C 0.12496 0.60084 0.00283 0.0
C3485 C 0.07107 0.57393 0.01554 0.0
C3486 C 0.08916 0.58507 0.01341 0.0
H3487 H 0.18595 0.58865 0.97927 0.0
H3488 H 0.15335 0.57896 0.98778 0.0
H3489 H 0.1081 0.62138 0.98749 0.0
H3490 H 0.05394 0.53894 0.04415 0.0
H3491 H 0.07627 0.56594 0.04489 0.0
C3492 C 0.63895 0.93101 0.26842 0.0
C3493 C 0.64927 0.94536 0.25908 0.0
C3494 C 0.64766 0.91376 0.27231 0.0
C3495 C 0.6938 0.88777 0.27322 0.0
H3496 H 0.66099 0.84539 0.25788 0.0
C3497 C 0.72128 0.81108 0.25975 0.0
C3498 C 0.70944 0.79621 0.26629 0.0
C3499 C 0.71496 0.82986 0.26074 0.0
C3500 C 0.67026 0.85703 0.26248 0.0
H3501 H 0.6771 0.95354 0.24763 0.0
H3502 H 0.6923 0.92305 0.25402 0.0
H3503 H 0.64843 0.87741 0.25731 0.0
H3504 H 0.68193 0.78952 0.27953 0.0
H3505 H 0.67105 0.82219 0.28133 0.0
H3506 H 0.71577 0.86714 0.27804 0.0
C3507 C 0.67754 0.92524 0.25854 0.0
C3508 C 0.66305 0.87539 0.2622 0.0
C3509 C 0.66884 0.94265 0.25483 0.0
C3510 C 0.69134 0.80057 0.27416 0.0
C3511 C 0.68507 0.8193 0.27517 0.0
C3512 C 0.70106 0.86929 0.27348 0.0
C3513 C 0.66678 0.9104 0.26669 0.0
C3514 C 0.67468 0.89097 0.26764 0.0
C3515 C 0.6967 0.83411 0.26827 0.0
C3516 C 0.6893 0.85375 0.26817 0.0
H3517 H 0.62392 0.93286 0.27215 0.0
H3518 H 0.63917 0.90277 0.27908 0.0
H3519 H 0.70307 0.89951 0.27753 0.0
H3520 H 0.73531 0.80822 0.25358 0.0
H3521 H 0.72414 0.84098 0.25514 0.0
C3522 C 0.85738 0.0652 0.74921 0.0
C3523 C 0.84616 0.04916 0.74428 0.0
C3524 C 0.84982 0.08346 0.74779 0.0
C3525 C 0.81192 0.11043 0.72364 0.0
H3526 H 0.81873 0.14653 0.76547 0.0
C3527 C 0.76127 0.17258 0.73828 0.0
C3528 C 0.768 0.18868 0.74824 0.0
C3529 C 0.77382 0.15789 0.73343 0.0
C3530 C 0.81708 0.13686 0.7534 0.0
H3531 H 0.81813 0.03968 0.73422 0.0
H3532 H 0.80487 0.07161 0.73187 0.0
H3533 H 0.83415 0.11568 0.76678 0.0
H3534 H 0.79302 0.20272 0.76028 0.0
H3535 H 0.81535 0.17728 0.75128 0.0
H3536 H 0.79454 0.13148 0.71041 0.0
C3537 C 0.81959 0.07004 0.73664 0.0
C3538 C 0.82583 0.11909 0.75424 0.0
C3539 C 0.82711 0.05175 0.73818 0.0
C3540 C 0.7877 0.19062 0.75209 0.0
C3541 C 0.80034 0.17589 0.74726 0.0
C3542 C 0.80326 0.12826 0.72273 0.0
C3543 C 0.83092 0.0861 0.74129 0.0
C3544 C 0.82295 0.10551 0.7396 0.0
C3545 C 0.79334 0.15896 0.73869 0.0
C3546 C 0.80532 0.14152 0.73784 0.0
H3547 H 0.87214 0.06369 0.7539 0.0
H3548 H 0.85893 0.09554 0.75141 0.0
H3549 H 0.80978 0.1004 0.71195 0.0
H3550 H 0.74601 0.17071 0.73551 0.0
H3551 H 0.76781 0.14507 0.72705 0.0
loop_
_geom_bond_atom_site_label_1
_geom_bond_atom_site_label_2
_geom_bond_distance
_geom_bond_site_symmetry_2
_ccdc_geom_bond_type
C0 O1 1.306 . S
C0 O3 1.160 . S
O1 C0 1.306 . S
O1 Cd2 2.228 1_655 S
Cd2 O1 2.228 1_455 S
Cd2 O6 2.273 . S
Cd2 O10 2.277 . S
O3 C0 1.160 . S
O3 Cd4 2.203 1_655 S
Cd4 O3 2.203 1_455 S
Cd4 O6 2.411 . S
Cd4 O7 2.333 . S
Cd4 O8 2.352 . S
Cd4 O12 2.277 . S
Cd4 O13 2.356 . S
C5 O10 1.209 . S
C5 O12 1.226 . S
O6 Cd2 2.273 . S
O6 Cd4 2.411 . S
O6 C9 1.320 . S
O7 Cd4 2.333 . S
O7 C9 1.214 . S
O8 Cd4 2.352 . S
O8 C11 1.258 . S
C9 O6 1.320 . S
C9 O7 1.214 . S
O10 Cd2 2.277 . S
O10 C5 1.209 . S
C11 O8 1.258 . S
C11 O13 1.282 . S
O12 Cd4 2.277 . S
O12 C5 1.226 . S
O13 Cd4 2.356 . S
O13 C11 1.282 . S
C14 O15 1.306 . S
C14 O17 1.160 . S
O15 C14 1.306 . S
O15 Cd16 2.228 1_655 S
Cd16 O15 2.228 1_455 S
Cd16 O20 2.273 . S
Cd16 O24 2.277 . S
O17 C14 1.160 . S
O17 Cd18 2.203 1_655 S
Cd18 O17 2.203 1_455 S
Cd18 O20 2.411 . S
Cd18 O21 2.333 . S
Cd18 O22 2.352 . S
Cd18 O26 2.277 . S
Cd18 O27 2.356 . S
C19 O24 1.209 . S
C19 O26 1.226 . S
O20 Cd16 2.273 . S
O20 Cd18 2.411 . S
O20 C23 1.320 . S
O21 Cd18 2.333 . S
O21 C23 1.214 . S
O22 Cd18 2.352 . S
O22 C25 1.258 . S
C23 O20 1.320 . S
C23 O21 1.214 . S
O24 Cd16 2.277 . S
O24 C19 1.209 . S
C25 O22 1.258 . S
C25 O27 1.282 . S
O26 Cd18 2.277 . S
O26 C19 1.226 . S
O27 Cd18 2.356 . S
O27 C25 1.282 . S
C28 O29 1.306 . S
C28 O31 1.160 . S
O29 C28 1.306 . S
O29 Cd30 2.228 . S
Cd30 O29 2.228 . S
Cd30 O34 2.273 . S
Cd30 O38 2.277 . S
O31 C28 1.160 . S
O31 Cd32 2.203 . S
Cd32 O31 2.203 . S
Cd32 O34 2.411 . S
Cd32 O35 2.333 . S
Cd32 O36 2.352 . S
Cd32 O40 2.277 . S
Cd32 O41 2.356 . S
C33 O38 1.209 . S
C33 O40 1.226 . S
O34 Cd30 2.273 . S
O34 Cd32 2.411 . S
O34 C37 1.320 . S
O35 Cd32 2.333 . S
O35 C37 1.214 . S
O36 Cd32 2.352 . S
O36 C39 1.258 . S
C37 O34 1.320 . S
C37 O35 1.214 . S
O38 Cd30 2.277 . S
O38 C33 1.209 . S
C39 O36 1.258 . S
C39 O41 1.282 . S
O40 Cd32 2.277 . S
O40 C33 1.226 . S
O41 Cd32 2.356 . S
O41 C39 1.282 . S
C42 O43 1.306 . S
C42 O45 1.160 . S
O43 C42 1.306 . S
O43 Cd44 2.228 . S
Cd44 O43 2.228 . S
Cd44 O48 2.273 . S
Cd44 O52 2.277 . S
O45 C42 1.160 . S
O45 Cd46 2.203 . S
Cd46 O45 2.203 . S
Cd46 O48 2.411 . S
Cd46 O49 2.333 . S
Cd46 O50 2.352 . S
Cd46 O54 2.277 . S
Cd46 O55 2.356 . S
C47 O52 1.209 . S
C47 O54 1.226 . S
O48 Cd44 2.273 . S
O48 Cd46 2.411 . S
O48 C51 1.320 . S
O49 Cd46 2.333 . S
O49 C51 1.214 . S
O50 Cd46 2.352 . S
O50 C53 1.258 . S
C51 O48 1.320 . S
C51 O49 1.214 . S
O52 Cd44 2.277 . S
O52 C47 1.209 . S
C53 O50 1.258 . S
C53 O55 1.282 . S
O54 Cd46 2.277 . S
O54 C47 1.226 . S
O55 Cd46 2.356 . S
O55 C53 1.282 . S
C56 O57 1.306 . S
C56 O59 1.158 1_545 S
O57 C56 1.306 . S
O57 Cd58 2.228 . S
Cd58 O57 2.228 . S
Cd58 O62 2.273 . S
Cd58 O66 2.277 . S
O59 C56 1.158 1_565 S
O59 Cd60 2.203 . S
Cd60 O59 2.203 . S
Cd60 O62 2.411 1_565 S
Cd60 O63 2.333 . S
Cd60 O64 2.352 . S
Cd60 O68 2.277 1_565 S
Cd60 O69 2.356 . S
C61 O66 1.209 . S
C61 O68 1.226 . S
O62 Cd58 2.273 . S
O62 Cd60 2.411 1_545 S
O62 C65 1.320 . S
O63 Cd60 2.333 . S
O63 C65 1.214 1_565 S
O64 Cd60 2.352 . S
O64 C67 1.258 . S
C65 O62 1.320 . S
C65 O63 1.214 1_545 S
O66 Cd58 2.277 . S
O66 C61 1.209 . S
C67 O64 1.258 . S
C67 O69 1.282 . S
O68 Cd60 2.277 1_545 S
O68 C61 1.226 . S
O69 Cd60 2.356 . S
O69 C67 1.282 . S
C70 O71 1.306 . S
C70 O73 1.160 . S
O71 C70 1.306 . S
O71 Cd72 2.228 . S
Cd72 O71 2.228 . S
Cd72 O76 2.273 . S
Cd72 O80 2.277 . S
O73 C70 1.160 . S
O73 Cd74 2.203 . S
Cd74 O73 2.203 . S
Cd74 O76 2.411 . S
Cd74 O77 2.333 . S
Cd74 O78 2.352 . S
Cd74 O82 2.277 . S
Cd74 O83 2.356 . S
C75 O80 1.209 . S
C75 O82 1.226 . S
O76 Cd72 2.273 . S
O76 Cd74 2.411 . S
O76 C79 1.320 . S
O77 Cd74 2.333 . S
O77 C79 1.214 . S
O78 Cd74 2.352 . S
O78 C81 1.258 . S
C79 O76 1.320 . S
C79 O77 1.214 . S
O80 Cd72 2.277 . S
O80 C75 1.209 . S
C81 O78 1.258 . S
C81 O83 1.282 . S
O82 Cd74 2.277 . S
O82 C75 1.226 . S
O83 Cd74 2.356 . S
O83 C81 1.282 . S
C84 O85 1.306 1_545 S
C84 O87 1.160 . S
O85 C84 1.306 1_565 S
O85 Cd86 2.228 . S
Cd86 O85 2.228 . S
Cd86 O90 2.273 1_565 S
Cd86 O94 2.277 . S
O87 C84 1.160 . S
O87 Cd88 2.203 . S
Cd88 O87 2.203 . S
Cd88 O90 2.411 . S
Cd88 O91 2.333 . S
Cd88 O92 2.352 . S
Cd88 O96 2.277 1_545 S
Cd88 O97 2.356 . S
C89 O94 1.209 . S
C89 O96 1.226 . S
O90 Cd86 2.273 1_545 S
O90 Cd88 2.411 . S
O90 C93 1.320 . S
O91 Cd88 2.333 . S
O91 C93 1.214 . S
O92 Cd88 2.352 . S
O92 C95 1.258 . S
C93 O90 1.320 . S
C93 O91 1.214 . S
O94 Cd86 2.277 . S
O94 C89 1.209 . S
C95 O92 1.258 . S
C95 O97 1.282 . S
O96 Cd88 2.277 1_565 S
O96 C89 1.226 . S
O97 Cd88 2.356 . S
O97 C95 1.282 . S
C98 O99 1.306 . S
C98 O101 1.160 . S
O99 C98 1.306 . S
O99 Cd100 2.228 . S
Cd100 O99 2.228 . S
Cd100 O104 2.273 . S
Cd100 O108 2.277 . S
O101 C98 1.160 . S
O101 Cd102 2.205 . S
Cd102 O101 2.205 . S
Cd102 O104 2.418 . S
Cd102 O105 2.333 . S
Cd102 O106 2.305 1_554 S
Cd102 O110 2.314 . S
Cd102 O111 2.325 1_554 S
C103 O108 1.209 . S
C103 O110 1.226 . S
O104 Cd100 2.273 . S
O104 Cd102 2.418 . S
O104 C107 1.320 . S
O105 Cd102 2.333 . S
O105 C107 1.222 . S
O106 Cd102 2.305 1_556 S
O106 C109 1.258 . S
C107 O104 1.320 . S
C107 O105 1.222 . S
O108 Cd100 2.277 . S
O108 C103 1.209 . S
C109 O106 1.258 . S
C109 O111 1.282 . S
O110 Cd102 2.314 . S
O110 C103 1.226 . S
O111 Cd102 2.325 1_556 S
O111 C109 1.282 . S
C112 O113 1.306 1_554 S
C112 O115 1.160 . S
O113 C112 1.306 1_556 S
O113 Cd114 2.228 . S
Cd114 O113 2.228 . S
Cd114 O118 2.273 1_556 S
Cd114 O122 2.277 . S
O115 C112 1.160 . S
O115 Cd116 2.203 . S
Cd116 O115 2.203 . S
Cd116 O118 2.411 . S
Cd116 O119 2.333 . S
Cd116 O120 2.352 . S
Cd116 O124 2.277 1_554 S
Cd116 O125 2.356 . S
C117 O122 1.209 . S
C117 O124 1.226 . S
O118 Cd114 2.273 1_554 S
O118 Cd116 2.411 . S
O118 C121 1.320 . S
O119 Cd116 2.333 . S
O119 C121 1.214 . S
O120 Cd116 2.352 . S
O120 C123 1.258 . S
C121 O118 1.320 . S
C121 O119 1.214 . S
O122 Cd114 2.277 . S
O122 C117 1.209 . S
C123 O120 1.258 . S
C123 O125 1.282 . S
O124 Cd116 2.277 1_556 S
O124 C117 1.226 . S
O125 Cd116 2.356 . S
O125 C123 1.282 . S
C126 O127 1.306 . S
C126 O129 1.160 . S
O127 C126 1.306 . S
O127 Cd128 2.228 . S
Cd128 O127 2.228 . S
Cd128 O132 2.273 . S
Cd128 O136 2.277 . S
O129 C126 1.160 . S
O129 Cd130 2.203 . S
Cd130 O129 2.203 . S
Cd130 O132 2.411 . S
Cd130 O133 2.333 . S
Cd130 O134 2.352 . S
Cd130 O138 2.277 . S
Cd130 O139 2.356 . S
C131 O136 1.209 . S
C131 O138 1.226 . S
O132 Cd128 2.273 . S
O132 Cd130 2.411 . S
O132 C135 1.320 . S
O133 Cd130 2.333 . S
O133 C135 1.214 . S
O134 Cd130 2.352 . S
O134 C137 1.258 . S
C135 O132 1.320 . S
C135 O133 1.214 . S
O136 Cd128 2.277 . S
O136 C131 1.209 . S
C137 O134 1.258 . S
C137 O139 1.282 . S
O138 Cd130 2.277 . S
O138 C131 1.226 . S
O139 Cd130 2.356 . S
O139 C137 1.282 . S
C140 O141 1.306 . S
C140 O143 1.160 . S
O141 C140 1.306 . S
O141 Cd142 2.228 . S
Cd142 O141 2.228 . S
Cd142 O146 2.273 . S
Cd142 O150 2.277 . S
O143 C140 1.160 . S
O143 Cd144 2.203 . S
Cd144 O143 2.203 . S
Cd144 O146 2.411 . S
Cd144 O147 2.333 . S
Cd144 O148 2.352 . S
Cd144 O152 2.277 . S
Cd144 O153 2.356 . S
C145 O150 1.209 . S
C145 O152 1.226 . S
O146 Cd142 2.273 . S
O146 Cd144 2.411 . S
O146 C149 1.320 . S
O147 Cd144 2.333 . S
O147 C149 1.214 . S
O148 Cd144 2.352 . S
O148 C151 1.258 . S
C149 O146 1.320 . S
C149 O147 1.214 . S
O150 Cd142 2.277 . S
O150 C145 1.209 . S
C151 O148 1.258 . S
C151 O153 1.282 . S
O152 Cd144 2.277 . S
O152 C145 1.226 . S
O153 Cd144 2.356 . S
O153 C151 1.282 . S
C154 O155 1.306 . S
C154 O157 1.160 . S
O155 C154 1.306 . S
O155 Cd156 2.228 . S
Cd156 O155 2.228 . S
Cd156 O160 2.273 . S
Cd156 O164 2.277 . S
O157 C154 1.160 . S
O157 Cd158 2.203 . S
Cd158 O157 2.203 . S
Cd158 O160 2.411 . S
Cd158 O161 2.333 . S
Cd158 O162 2.352 . S
Cd158 O166 2.277 . S
Cd158 O167 2.356 . S
C159 O164 1.209 . S
C159 O166 1.226 . S
O160 Cd156 2.273 . S
O160 Cd158 2.411 . S
O160 C163 1.320 . S
O161 Cd158 2.333 . S
O161 C163 1.214 . S
O162 Cd158 2.352 . S
O162 C165 1.258 . S
C163 O160 1.320 . S
C163 O161 1.214 . S
O164 Cd156 2.277 . S
O164 C159 1.209 . S
C165 O162 1.258 . S
C165 O167 1.282 . S
O166 Cd158 2.277 . S
O166 C159 1.226 . S
O167 Cd158 2.356 . S
O167 C165 1.282 . S
C168 O169 1.306 . S
C168 O171 1.160 . S
O169 C168 1.306 . S
O169 Cd170 2.228 1_655 S
Cd170 O169 2.228 1_455 S
Cd170 O174 2.273 . S
Cd170 O178 2.277 . S
O171 C168 1.160 . S
O171 Cd172 2.203 1_655 S
Cd172 O171 2.203 1_455 S
Cd172 O174 2.411 . S
Cd172 O175 2.333 . S
Cd172 O176 2.352 . S
Cd172 O180 2.277 . S
Cd172 O181 2.356 . S
C173 O178 1.209 . S
C173 O180 1.226 . S
O174 Cd170 2.273 . S
O174 Cd172 2.411 . S
O174 C177 1.320 . S
O175 Cd172 2.333 . S
O175 C177 1.214 . S
O176 Cd172 2.352 . S
O176 C179 1.258 . S
C177 O174 1.320 . S
C177 O175 1.214 . S
O178 Cd170 2.277 . S
O178 C173 1.209 . S
C179 O176 1.258 . S
C179 O181 1.282 . S
O180 Cd172 2.277 . S
O180 C173 1.226 . S
O181 Cd172 2.356 . S
O181 C179 1.282 . S
C182 O183 1.306 . S
C182 O185 1.160 . S
O183 C182 1.306 . S
O183 Cd184 2.228 1_655 S
Cd184 O183 2.228 1_455 S
Cd184 O188 2.273 . S
Cd184 O192 2.277 . S
O185 C182 1.160 . S
O185 Cd186 2.203 1_655 S
Cd186 O185 2.203 1_455 S
Cd186 O188 2.411 . S
Cd186 O189 2.333 . S
Cd186 O190 2.352 . S
Cd186 O194 2.277 . S
Cd186 O195 2.356 . S
C187 O192 1.209 . S
C187 O194 1.226 . S
O188 Cd184 2.273 . S
O188 Cd186 2.411 . S
O188 C191 1.320 . S
O189 Cd186 2.333 . S
O189 C191 1.214 . S
O190 Cd186 2.352 . S
O190 C193 1.258 . S
C191 O188 1.320 . S
C191 O189 1.214 . S
O192 Cd184 2.277 . S
O192 C187 1.209 . S
C193 O190 1.258 . S
C193 O195 1.282 . S
O194 Cd186 2.277 . S
O194 C187 1.226 . S
O195 Cd186 2.356 . S
O195 C193 1.282 . S
C196 O197 1.306 . S
C196 O199 1.160 . S
O197 C196 1.306 . S
O197 Cd198 2.228 . S
Cd198 O197 2.228 . S
Cd198 O202 2.273 . S
Cd198 O206 2.277 . S
O199 C196 1.160 . S
O199 Cd200 2.203 . S
Cd200 O199 2.203 . S
Cd200 O202 2.411 . S
Cd200 O203 2.333 . S
Cd200 O204 2.352 . S
Cd200 O208 2.277 . S
Cd200 O209 2.356 . S
C201 O206 1.209 . S
C201 O208 1.226 . S
O202 Cd198 2.273 . S
O202 Cd200 2.411 . S
O202 C205 1.320 . S
O203 Cd200 2.333 . S
O203 C205 1.214 . S
O204 Cd200 2.352 . S
O204 C207 1.258 . S
C205 O202 1.320 . S
C205 O203 1.214 . S
O206 Cd198 2.277 . S
O206 C201 1.209 . S
C207 O204 1.258 . S
C207 O209 1.282 . S
O208 Cd200 2.277 . S
O208 C201 1.226 . S
O209 Cd200 2.356 . S
O209 C207 1.282 . S
C210 O211 1.306 . S
C210 O213 1.160 . S
O211 C210 1.306 . S
O211 Cd212 2.228 . S
Cd212 O211 2.228 . S
Cd212 O216 2.273 . S
Cd212 O220 2.277 . S
O213 C210 1.160 . S
O213 Cd214 2.203 . S
Cd214 O213 2.203 . S
Cd214 O216 2.411 . S
Cd214 O217 2.333 . S
Cd214 O218 2.352 . S
Cd214 O222 2.277 . S
Cd214 O223 2.356 . S
C215 O220 1.209 . S
C215 O222 1.226 . S
O216 Cd212 2.273 . S
O216 Cd214 2.411 . S
O216 C219 1.320 . S
O217 Cd214 2.333 . S
O217 C219 1.214 . S
O218 Cd214 2.352 . S
O218 C221 1.258 . S
C219 O216 1.320 . S
C219 O217 1.214 . S
O220 Cd212 2.277 . S
O220 C215 1.209 . S
C221 O218 1.258 . S
C221 O223 1.282 . S
O222 Cd214 2.277 . S
O222 C215 1.226 . S
O223 Cd214 2.356 . S
O223 C221 1.282 . S
C224 O225 1.331 . S
C224 O227 1.144 1_565 S
O225 C224 1.331 . S
O225 Cd226 2.228 . S
Cd226 O225 2.228 . S
Cd226 O230 2.262 1_565 S
Cd226 O234 2.277 . S
O227 C224 1.144 1_545 S
O227 Cd228 2.203 . S
Cd228 O227 2.203 . S
Cd228 O230 2.413 . S
Cd228 O231 2.333 . S
Cd228 O232 2.352 . S
Cd228 O236 2.277 1_545 S
Cd228 O237 2.356 . S
C229 O234 1.209 . S
C229 O236 1.226 . S
O230 Cd226 2.262 1_545 S
O230 Cd228 2.413 . S
O230 C233 1.321 . S
O231 Cd228 2.333 . S
O231 C233 1.214 . S
O232 Cd228 2.352 . S
O232 C235 1.258 . S
C233 O230 1.321 . S
C233 O231 1.214 . S
O234 Cd226 2.277 . S
O234 C229 1.209 . S
C235 O232 1.258 . S
C235 O237 1.282 . S
O236 Cd228 2.277 1_565 S
O236 C229 1.226 . S
O237 Cd228 2.356 . S
O237 C235 1.282 . S
C238 O239 1.306 . S
C238 O241 1.160 . S
O239 C238 1.306 . S
O239 Cd240 2.228 . S
Cd240 O239 2.228 . S
Cd240 O244 2.273 . S
Cd240 O248 2.277 . S
O241 C238 1.160 . S
O241 Cd242 2.203 . S
Cd242 O241 2.203 . S
Cd242 O244 2.411 . S
Cd242 O245 2.333 . S
Cd242 O246 2.352 . S
Cd242 O250 2.277 . S
Cd242 O251 2.356 . S
C243 O248 1.209 . S
C243 O250 1.226 . S
O244 Cd240 2.273 . S
O244 Cd242 2.411 . S
O244 C247 1.320 . S
O245 Cd242 2.333 . S
O245 C247 1.214 . S
O246 Cd242 2.352 . S
O246 C249 1.258 . S
C247 O244 1.320 . S
C247 O245 1.214 . S
O248 Cd240 2.277 . S
O248 C243 1.209 . S
C249 O246 1.258 . S
C249 O251 1.282 . S
O250 Cd242 2.277 . S
O250 C243 1.226 . S
O251 Cd242 2.356 . S
O251 C249 1.282 . S
C252 O253 1.306 . S
C252 O255 1.160 . S
O253 C252 1.306 . S
O253 Cd254 2.228 . S
Cd254 O253 2.228 . S
Cd254 O258 2.273 . S
Cd254 O262 2.277 . S
O255 C252 1.160 . S
O255 Cd256 2.206 . S
Cd256 O255 2.206 . S
Cd256 O258 2.420 . S
Cd256 O259 2.333 . S
Cd256 O260 2.290 1_545 S
Cd256 O264 2.325 . S
Cd256 O265 2.316 1_545 S
C257 O262 1.209 . S
C257 O264 1.226 . S
O258 Cd254 2.273 . S
O258 Cd256 2.420 . S
O258 C261 1.320 . S
O259 Cd256 2.333 . S
O259 C261 1.219 . S
O260 Cd256 2.290 1_565 S
O260 C263 1.258 . S
C261 O258 1.320 . S
C261 O259 1.219 . S
O262 Cd254 2.277 . S
O262 C257 1.209 . S
C263 O260 1.258 . S
C263 O265 1.282 . S
O264 Cd256 2.325 . S
O264 C257 1.226 . S
O265 Cd256 2.316 1_565 S
O265 C263 1.282 . S
C266 O267 1.306 1_554 S
C266 O269 1.160 . S
O267 C266 1.306 1_556 S
O267 Cd268 2.228 . S
Cd268 O267 2.228 . S
Cd268 O272 2.273 1_556 S
Cd268 O276 2.277 . S
O269 C266 1.160 . S
O269 Cd270 2.203 . S
Cd270 O269 2.203 . S
Cd270 O272 2.411 . S
Cd270 O273 2.333 . S
Cd270 O274 2.352 . S
Cd270 O278 2.277 1_554 S
Cd270 O279 2.356 . S
C271 O276 1.209 . S
C271 O278 1.226 . S
O272 Cd268 2.273 1_554 S
O272 Cd270 2.411 . S
O272 C275 1.320 . S
O273 Cd270 2.333 . S
O273 C275 1.214 . S
O274 Cd270 2.352 . S
O274 C277 1.258 . S
C275 O272 1.320 . S
C275 O273 1.214 . S
O276 Cd268 2.277 . S
O276 C271 1.209 . S
C277 O274 1.258 . S
C277 O279 1.282 . S
O278 Cd270 2.277 1_556 S
O278 C271 1.226 . S
O279 Cd270 2.356 . S
O279 C277 1.282 . S
C280 O281 1.306 . S
C280 O283 1.160 1_554 S
O281 C280 1.306 . S
O281 Cd282 2.228 . S
Cd282 O281 2.228 . S
Cd282 O286 2.273 . S
Cd282 O290 2.277 . S
O283 C280 1.160 1_556 S
O283 Cd284 2.203 . S
Cd284 O283 2.203 . S
Cd284 O286 2.411 1_556 S
Cd284 O287 2.333 . S
Cd284 O288 2.352 . S
Cd284 O292 2.277 1_556 S
Cd284 O293 2.356 . S
C285 O290 1.209 . S
C285 O292 1.226 . S
O286 Cd282 2.273 . S
O286 Cd284 2.411 1_554 S
O286 C289 1.322 . S
O287 Cd284 2.333 . S
O287 C289 1.211 1_556 S
O288 Cd284 2.352 . S
O288 C291 1.258 . S
C289 O286 1.322 . S
C289 O287 1.211 1_554 S
O290 Cd282 2.277 . S
O290 C285 1.209 . S
C291 O288 1.258 . S
C291 O293 1.282 . S
O292 Cd284 2.277 1_554 S
O292 C285 1.226 . S
O293 Cd284 2.356 . S
O293 C291 1.282 . S
C294 O295 1.306 . S
C294 O297 1.160 . S
O295 C294 1.306 . S
O295 Cd296 2.228 . S
Cd296 O295 2.228 . S
Cd296 O300 2.273 . S
Cd296 O304 2.277 . S
O297 C294 1.160 . S
O297 Cd298 2.203 . S
Cd298 O297 2.203 . S
Cd298 O300 2.411 . S
Cd298 O301 2.333 . S
Cd298 O302 2.352 . S
Cd298 O306 2.277 . S
Cd298 O307 2.356 . S
C299 O304 1.209 . S
C299 O306 1.226 . S
O300 Cd296 2.273 . S
O300 Cd298 2.411 . S
O300 C303 1.320 . S
O301 Cd298 2.333 . S
O301 C303 1.214 . S
O302 Cd298 2.352 . S
O302 C305 1.258 . S
C303 O300 1.320 . S
C303 O301 1.214 . S
O304 Cd296 2.277 . S
O304 C299 1.209 . S
C305 O302 1.258 . S
C305 O307 1.282 . S
O306 Cd298 2.277 . S
O306 C299 1.226 . S
O307 Cd298 2.356 . S
O307 C305 1.282 . S
C308 O309 1.306 . S
C308 O311 1.160 . S
O309 C308 1.306 . S
O309 Cd310 2.228 . S
Cd310 O309 2.228 . S
Cd310 O314 2.273 . S
Cd310 O318 2.277 . S
O311 C308 1.160 . S
O311 Cd312 2.203 . S
Cd312 O311 2.203 . S
Cd312 O314 2.411 . S
Cd312 O315 2.333 . S
Cd312 O316 2.352 . S
Cd312 O320 2.277 . S
Cd312 O321 2.356 . S
C313 O318 1.209 . S
C313 O320 1.226 . S
O314 Cd310 2.273 . S
O314 Cd312 2.411 . S
O314 C317 1.320 . S
O315 Cd312 2.333 . S
O315 C317 1.214 . S
O316 Cd312 2.352 . S
O316 C319 1.258 . S
C317 O314 1.320 . S
C317 O315 1.214 . S
O318 Cd310 2.277 . S
O318 C313 1.209 . S
C319 O316 1.258 . S
C319 O321 1.282 . S
O320 Cd312 2.277 . S
O320 C313 1.226 . S
O321 Cd312 2.356 . S
O321 C319 1.282 . S
C322 O323 1.306 . S
C322 O325 1.160 . S
O323 C322 1.306 . S
O323 Cd324 2.228 . S
Cd324 O323 2.228 . S
Cd324 O328 2.273 . S
Cd324 O332 2.277 . S
O325 C322 1.160 . S
O325 Cd326 2.203 . S
Cd326 O325 2.203 . S
Cd326 O328 2.411 . S
Cd326 O329 2.333 . S
Cd326 O330 2.352 . S
Cd326 O334 2.277 . S
Cd326 O335 2.356 . S
C327 O332 1.209 . S
C327 O334 1.226 . S
O328 Cd324 2.273 . S
O328 Cd326 2.411 . S
O328 C331 1.320 . S
O329 Cd326 2.333 . S
O329 C331 1.214 . S
O330 Cd326 2.352 . S
O330 C333 1.258 . S
C331 O328 1.320 . S
C331 O329 1.214 . S
O332 Cd324 2.277 . S
O332 C327 1.209 . S
C333 O330 1.258 . S
C333 O335 1.282 . S
O334 Cd326 2.277 . S
O334 C327 1.226 . S
O335 Cd326 2.356 . S
O335 C333 1.282 . S
O336 Mn337 2.163 . S
O336 C350 1.241 1_554 S
Mn337 O336 2.163 . S
Mn337 O340 2.160 1_445 S
Mn337 O341 2.221 1_455 S
Mn337 O343 2.163 1_454 S
Mn337 O345 2.160 1_545 S
Mn337 O355 2.227 1_545 S
O338 Mn339 2.100 1_556 S
O338 C350 1.244 1_565 S
Mn339 O338 2.100 1_554 S
Mn339 O346 2.089 . S
Mn339 O355 2.301 . S
Mn339 O356 2.251 1_554 S
O340 Mn337 2.160 1_665 S
O340 C351 1.239 . S
O341 Mn337 2.221 1_655 S
O341 Mn342 2.290 1_554 S
O341 C352 1.278 . S
Mn342 O341 2.290 1_556 S
Mn342 O344 2.089 1_556 S
Mn342 O347 2.251 1_556 S
Mn342 O348 2.087 . S
O343 Mn337 2.163 1_656 S
O343 C353 1.244 . S
O344 Mn342 2.089 1_554 S
O344 C351 1.256 1_545 S
O345 Mn337 2.160 1_565 S
O345 C354 1.239 . S
O346 Mn339 2.089 . S
O346 C354 1.256 . S
O347 Mn342 2.251 1_554 S
O347 C352 1.241 . S
O348 Mn342 2.087 . S
O348 C353 1.256 . S
C349 O355 1.254 1_556 S
C349 O356 1.241 . S
C350 O336 1.241 1_556 S
C350 O338 1.244 1_545 S
C351 O340 1.239 . S
C351 O344 1.256 1_565 S
C352 O341 1.278 . S
C352 O347 1.241 . S
C353 O343 1.244 . S
C353 O348 1.256 . S
C354 O345 1.239 . S
C354 O346 1.256 . S
O355 Mn337 2.227 1_565 S
O355 Mn339 2.301 . S
O355 C349 1.254 1_554 S
O356 Mn339 2.251 1_556 S
O356 C349 1.241 . S
O357 Mn358 2.163 . S
O357 C371 1.244 . S
Mn358 O357 2.163 . S
Mn358 O361 2.160 . S
Mn358 O362 2.221 . S
Mn358 O364 2.163 . S
Mn358 O366 2.160 . S
Mn358 O376 2.221 . S
O359 Mn360 2.087 . S
O359 C371 1.256 . S
Mn360 O359 2.087 . S
Mn360 O367 2.089 . S
Mn360 O376 2.290 . S
Mn360 O377 2.251 . S
O361 Mn358 2.160 . S
O361 C372 1.239 . S
O362 Mn358 2.221 . S
O362 Mn363 2.290 . S
O362 C373 1.278 . S
Mn363 O362 2.290 . S
Mn363 O365 2.089 . S
Mn363 O368 2.251 . S
Mn363 O369 2.087 . S
O364 Mn358 2.163 . S
O364 C374 1.244 . S
O365 Mn363 2.089 . S
O365 C372 1.256 . S
O366 Mn358 2.160 . S
O366 C375 1.239 . S
O367 Mn360 2.089 . S
O367 C375 1.256 . S
O368 Mn363 2.251 . S
O368 C373 1.241 . S
O369 Mn363 2.087 . S
O369 C374 1.256 . S
C370 O376 1.278 . S
C370 O377 1.241 . S
C371 O357 1.244 . S
C371 O359 1.256 . S
C372 O361 1.239 . S
C372 O365 1.256 . S
C373 O362 1.278 . S
C373 O368 1.241 . S
C374 O364 1.244 . S
C374 O369 1.256 . S
C375 O366 1.239 . S
C375 O367 1.256 . S
O376 Mn358 2.221 . S
O376 Mn360 2.290 . S
O376 C370 1.278 . S
O377 Mn360 2.251 . S
O377 C370 1.241 . S
O378 Mn379 2.163 1_565 S
O378 C392 1.244 . S
Mn379 O378 2.163 1_545 S
Mn379 O382 2.160 . S
Mn379 O383 2.221 1_545 S
Mn379 O385 2.163 . S
Mn379 O387 2.160 . S
Mn379 O397 2.221 . S
O380 Mn381 2.087 . S
O380 C392 1.256 1_545 S
Mn381 O380 2.087 . S
Mn381 O388 2.089 . S
Mn381 O397 2.290 . S
Mn381 O398 2.251 . S
O382 Mn379 2.160 . S
O382 C393 1.239 . S
O383 Mn379 2.221 1_565 S
O383 Mn384 2.290 . S
O383 C394 1.278 . S
Mn384 O383 2.290 . S
Mn384 O386 2.089 1_565 S
Mn384 O389 2.251 . S
Mn384 O390 2.087 . S
O385 Mn379 2.163 . S
O385 C395 1.244 1_545 S
O386 Mn384 2.089 1_545 S
O386 C393 1.256 . S
O387 Mn379 2.160 . S
O387 C396 1.239 . S
O388 Mn381 2.089 . S
O388 C396 1.256 . S
O389 Mn384 2.251 . S
O389 C394 1.241 . S
O390 Mn384 2.087 . S
O390 C395 1.256 . S
C391 O397 1.278 . S
C391 O398 1.241 . S
C392 O378 1.244 . S
C392 O380 1.256 1_565 S
C393 O382 1.239 . S
C393 O386 1.256 . S
C394 O383 1.278 . S
C394 O389 1.241 . S
C395 O385 1.244 1_565 S
C395 O390 1.256 . S
C396 O387 1.239 . S
C396 O388 1.256 . S
O397 Mn379 2.221 . S
O397 Mn381 2.290 . S
O397 C391 1.278 . S
O398 Mn381 2.251 . S
O398 C391 1.241 . S
O399 Mn400 2.163 . S
O399 C413 1.244 . S
Mn400 O399 2.163 . S
Mn400 O403 2.160 . S
Mn400 O404 2.221 . S
Mn400 O406 2.163 . S
Mn400 O408 2.160 . S
Mn400 O418 2.221 . S
O401 Mn402 2.087 . S
O401 C413 1.256 . S
Mn402 O401 2.087 . S
Mn402 O409 2.089 . S
Mn402 O418 2.290 . S
Mn402 O419 2.251 . S
O403 Mn400 2.160 . S
O403 C414 1.239 . S
O404 Mn400 2.221 . S
O404 Mn405 2.290 . S
O404 C415 1.278 . S
Mn405 O404 2.290 . S
Mn405 O407 2.089 . S
Mn405 O410 2.251 . S
Mn405 O411 2.087 . S
O406 Mn400 2.163 . S
O406 C416 1.244 . S
O407 Mn405 2.089 . S
O407 C414 1.256 . S
O408 Mn400 2.160 . S
O408 C417 1.239 . S
O409 Mn402 2.089 . S
O409 C417 1.256 . S
O410 Mn405 2.251 . S
O410 C415 1.241 . S
O411 Mn405 2.087 . S
O411 C416 1.256 . S
C412 O418 1.278 . S
C412 O419 1.241 . S
C413 O399 1.244 . S
C413 O401 1.256 . S
C414 O403 1.239 . S
C414 O407 1.256 . S
C415 O404 1.278 . S
C415 O410 1.241 . S
C416 O406 1.244 . S
C416 O411 1.256 . S
C417 O408 1.239 . S
C417 O409 1.256 . S
O418 Mn400 2.221 . S
O418 Mn402 2.290 . S
O418 C412 1.278 . S
O419 Mn402 2.251 . S
O419 C412 1.241 . S
O420 Mn421 2.163 1_565 S
O420 C434 1.247 . S
Mn421 O420 2.163 1_545 S
Mn421 O424 2.160 . S
Mn421 O425 2.221 . S
Mn421 O427 2.163 1_455 S
Mn421 O429 2.160 1_545 S
Mn421 O439 2.221 1_545 S
O422 Mn423 2.066 1_655 S
O422 C434 1.253 1_655 S
Mn423 O422 2.066 1_455 S
Mn423 O430 2.089 . S
Mn423 O439 2.290 . S
Mn423 O440 2.251 1_455 S
O424 Mn421 2.160 . S
O424 C435 1.239 . S
O425 Mn421 2.221 . S
O425 Mn426 2.297 . S
O425 C436 1.278 . S
Mn426 O425 2.297 . S
Mn426 O428 2.090 . S
Mn426 O431 2.254 . S
Mn426 O432 2.075 1_455 S
O427 Mn421 2.163 1_655 S
O427 C437 1.244 . S
O428 Mn426 2.090 . S
O428 C435 1.256 . S
O429 Mn421 2.160 1_565 S
O429 C438 1.239 . S
O430 Mn423 2.089 . S
O430 C438 1.256 . S
O431 Mn426 2.254 . S
O431 C436 1.241 . S
O432 Mn426 2.075 1_655 S
O432 C437 1.256 . S
C433 O439 1.278 1_655 S
C433 O440 1.241 . S
C434 O420 1.247 . S
C434 O422 1.253 1_455 S
C435 O424 1.239 . S
C435 O428 1.256 . S
C436 O425 1.278 . S
C436 O431 1.241 . S
C437 O427 1.244 . S
C437 O432 1.256 . S
C438 O429 1.239 . S
C438 O430 1.256 . S
O439 Mn421 2.221 1_565 S
O439 Mn423 2.290 . S
O439 C433 1.278 1_455 S
O440 Mn423 2.251 1_655 S
O440 C433 1.241 . S
O441 Mn442 2.163 . S
O441 C455 1.244 . S
Mn442 O441 2.163 . S
Mn442 O445 2.160 . S
Mn442 O446 2.221 . S
Mn442 O448 2.163 . S
Mn442 O450 2.160 . S
Mn442 O460 2.221 . S
O443 Mn444 2.087 . S
O443 C455 1.256 . S
Mn444 O443 2.087 . S
Mn444 O451 2.089 . S
Mn444 O460 2.290 . S
Mn444 O461 2.251 . S
O445 Mn442 2.160 . S
O445 C456 1.239 . S
O446 Mn442 2.221 . S
O446 Mn447 2.290 . S
O446 C457 1.278 . S
Mn447 O446 2.290 . S
Mn447 O449 2.089 . S
Mn447 O452 2.251 . S
Mn447 O453 2.087 . S
O448 Mn442 2.163 . S
O448 C458 1.244 . S
O449 Mn447 2.089 . S
O449 C456 1.256 . S
O450 Mn442 2.160 . S
O450 C459 1.239 . S
O451 Mn444 2.089 . S
O451 C459 1.256 . S
O452 Mn447 2.251 . S
O452 C457 1.241 . S
O453 Mn447 2.087 . S
O453 C458 1.256 . S
C454 O460 1.278 . S
C454 O461 1.241 . S
C455 O441 1.244 . S
C455 O443 1.256 . S
C456 O445 1.239 . S
C456 O449 1.256 . S
C457 O446 1.278 . S
C457 O452 1.241 . S
C458 O448 1.244 . S
C458 O453 1.256 . S
C459 O450 1.239 . S
C459 O451 1.256 . S
O460 Mn442 2.221 . S
O460 Mn444 2.290 . S
O460 C454 1.278 . S
O461 Mn444 2.251 . S
O461 C454 1.241 . S
O462 Mn463 2.170 1_556 S
O462 C476 1.240 1_545 S
Mn463 O462 2.170 1_554 S
Mn463 O466 2.160 . S
Mn463 O467 2.221 . S
Mn463 O469 2.163 1_545 S
Mn463 O471 2.160 1_554 S
Mn463 O481 2.217 1_544 S
O464 Mn465 2.087 1_565 S
O464 C476 1.256 . S
Mn465 O464 2.087 1_545 S
Mn465 O472 2.089 . S
Mn465 O481 2.283 1_545 S
Mn465 O482 2.251 1_545 S
O466 Mn463 2.160 . S
O466 C477 1.239 . S
O467 Mn463 2.221 . S
O467 Mn468 2.290 1_545 S
O467 C478 1.278 . S
Mn468 O467 2.290 1_565 S
Mn468 O470 2.089 1_565 S
Mn468 O473 2.251 1_565 S
Mn468 O474 2.087 . S
O469 Mn463 2.163 1_565 S
O469 C479 1.244 . S
O470 Mn468 2.089 1_545 S
O470 C477 1.256 . S
O471 Mn463 2.160 1_556 S
O471 C480 1.239 . S
O472 Mn465 2.089 . S
O472 C480 1.256 . S
O473 Mn468 2.251 1_545 S
O473 C478 1.241 . S
O474 Mn468 2.087 . S
O474 C479 1.256 . S
C475 O481 1.293 . S
C475 O482 1.241 . S
C476 O462 1.240 1_565 S
C476 O464 1.256 . S
C477 O466 1.239 . S
C477 O470 1.256 . S
C478 O467 1.278 . S
C478 O473 1.241 . S
C479 O469 1.244 . S
C479 O474 1.256 . S
C480 O471 1.239 . S
C480 O472 1.256 . S
O481 Mn463 2.217 1_566 S
O481 Mn465 2.283 1_565 S
O481 C475 1.293 . S
O482 Mn465 2.251 1_565 S
O482 C475 1.241 . S
O483 Mn484 2.163 . S
O483 C497 1.244 . S
Mn484 O483 2.163 . S
Mn484 O487 2.160 . S
Mn484 O488 2.221 . S
Mn484 O490 2.163 . S
Mn484 O492 2.160 . S
Mn484 O502 2.221 . S
O485 Mn486 2.087 . S
O485 C497 1.256 . S
Mn486 O485 2.087 . S
Mn486 O493 2.089 . S
Mn486 O502 2.290 . S
Mn486 O503 2.251 . S
O487 Mn484 2.160 . S
O487 C498 1.239 . S
O488 Mn484 2.221 . S
O488 Mn489 2.290 . S
O488 C499 1.278 . S
Mn489 O488 2.290 . S
Mn489 O491 2.089 . S
Mn489 O494 2.251 . S
Mn489 O495 2.087 . S
O490 Mn484 2.163 . S
O490 C500 1.244 . S
O491 Mn489 2.089 . S
O491 C498 1.256 . S
O492 Mn484 2.160 . S
O492 C501 1.239 . S
O493 Mn486 2.089 . S
O493 C501 1.256 . S
O494 Mn489 2.251 . S
O494 C499 1.241 . S
O495 Mn489 2.087 . S
O495 C500 1.256 . S
C496 O502 1.278 . S
C496 O503 1.241 . S
C497 O483 1.244 . S
C497 O485 1.256 . S
C498 O487 1.239 . S
C498 O491 1.256 . S
C499 O488 1.278 . S
C499 O494 1.241 . S
C500 O490 1.244 . S
C500 O495 1.256 . S
C501 O492 1.239 . S
C501 O493 1.256 . S
O502 Mn484 2.221 . S
O502 Mn486 2.290 . S
O502 C496 1.278 . S
O503 Mn486 2.251 . S
O503 C496 1.241 . S
O504 Mn505 2.163 1_556 S
O504 C518 1.244 . S
Mn505 O504 2.163 1_554 S
Mn505 O508 2.160 . S
Mn505 O509 2.221 1_554 S
Mn505 O511 2.163 . S
Mn505 O513 2.160 . S
Mn505 O523 2.221 . S
O506 Mn507 2.087 . S
O506 C518 1.256 1_554 S
Mn507 O506 2.087 . S
Mn507 O514 2.089 . S
Mn507 O523 2.290 . S
Mn507 O524 2.251 . S
O508 Mn505 2.160 . S
O508 C519 1.239 . S
O509 Mn505 2.221 1_556 S
O509 Mn510 2.290 . S
O509 C520 1.278 . S
Mn510 O509 2.290 . S
Mn510 O512 2.089 1_556 S
Mn510 O515 2.251 . S
Mn510 O516 2.087 . S
O511 Mn505 2.163 . S
O511 C521 1.244 1_554 S
O512 Mn510 2.089 1_554 S
O512 C519 1.256 . S
O513 Mn505 2.160 . S
O513 C522 1.239 . S
O514 Mn507 2.089 . S
O514 C522 1.256 . S
O515 Mn510 2.251 . S
O515 C520 1.241 . S
O516 Mn510 2.087 . S
O516 C521 1.256 . S
C517 O523 1.278 . S
C517 O524 1.241 . S
C518 O504 1.244 . S
C518 O506 1.256 1_556 S
C519 O508 1.239 . S
C519 O512 1.256 . S
C520 O509 1.278 . S
C520 O515 1.241 . S
C521 O511 1.244 1_556 S
C521 O516 1.256 . S
C522 O513 1.239 . S
C522 O514 1.256 . S
O523 Mn505 2.221 . S
O523 Mn507 2.290 . S
O523 C517 1.278 . S
O524 Mn507 2.251 . S
O524 C517 1.241 . S
O525 Mn526 2.163 . S
O525 C539 1.244 . S
Mn526 O525 2.163 . S
Mn526 O529 2.160 . S
Mn526 O530 2.221 . S
Mn526 O532 2.163 . S
Mn526 O534 2.160 . S
Mn526 O544 2.221 . S
O527 Mn528 2.087 . S
O527 C539 1.256 . S
Mn528 O527 2.087 . S
Mn528 O535 2.089 . S
Mn528 O544 2.290 . S
Mn528 O545 2.251 . S
O529 Mn526 2.160 . S
O529 C540 1.239 . S
O530 Mn526 2.221 . S
O530 Mn531 2.290 . S
O530 C541 1.278 . S
Mn531 O530 2.290 . S
Mn531 O533 2.089 . S
Mn531 O536 2.251 . S
Mn531 O537 2.087 . S
O532 Mn526 2.163 . S
O532 C542 1.244 . S
O533 Mn531 2.089 . S
O533 C540 1.256 . S
O534 Mn526 2.160 . S
O534 C543 1.239 . S
O535 Mn528 2.089 . S
O535 C543 1.256 . S
O536 Mn531 2.251 . S
O536 C541 1.241 . S
O537 Mn531 2.087 . S
O537 C542 1.256 . S
C538 O544 1.278 . S
C538 O545 1.241 . S
C539 O525 1.244 . S
C539 O527 1.256 . S
C540 O529 1.239 . S
C540 O533 1.256 . S
C541 O530 1.278 . S
C541 O536 1.241 . S
C542 O532 1.244 . S
C542 O537 1.256 . S
C543 O534 1.239 . S
C543 O535 1.256 . S
O544 Mn526 2.221 . S
O544 Mn528 2.290 . S
O544 C538 1.278 . S
O545 Mn528 2.251 . S
O545 C538 1.241 . S
O546 Mn547 2.163 1_655 S
O546 C560 1.244 . S
Mn547 O546 2.163 1_455 S
Mn547 O550 2.160 . S
Mn547 O551 2.221 1_455 S
Mn547 O553 2.163 . S
Mn547 O555 2.160 . S
Mn547 O565 2.221 . S
O548 Mn549 2.087 . S
O548 C560 1.256 1_455 S
Mn549 O548 2.087 . S
Mn549 O556 2.089 . S
Mn549 O565 2.290 . S
Mn549 O566 2.251 . S
O550 Mn547 2.160 . S
O550 C561 1.239 . S
O551 Mn547 2.221 1_655 S
O551 Mn552 2.290 . S
O551 C562 1.278 . S
Mn552 O551 2.290 . S
Mn552 O554 2.089 1_655 S
Mn552 O557 2.251 . S
Mn552 O558 2.087 . S
O553 Mn547 2.163 . S
O553 C563 1.244 1_455 S
O554 Mn552 2.089 1_455 S
O554 C561 1.256 . S
O555 Mn547 2.160 . S
O555 C564 1.239 . S
O556 Mn549 2.089 . S
O556 C564 1.256 . S
O557 Mn552 2.251 . S
O557 C562 1.241 . S
O558 Mn552 2.087 . S
O558 C563 1.256 . S
C559 O565 1.278 . S
C559 O566 1.241 . S
C560 O546 1.244 . S
C560 O548 1.256 1_655 S
C561 O550 1.239 . S
C561 O554 1.256 . S
C562 O551 1.278 . S
C562 O557 1.241 . S
C563 O553 1.244 1_655 S
C563 O558 1.256 . S
C564 O555 1.239 . S
C564 O556 1.256 . S
O565 Mn547 2.221 . S
O565 Mn549 2.290 . S
O565 C559 1.278 . S
O566 Mn549 2.251 . S
O566 C559 1.241 . S
O567 Mn568 2.163 . S
O567 C581 1.244 . S
Mn568 O567 2.163 . S
Mn568 O571 2.160 . S
Mn568 O572 2.221 . S
Mn568 O574 2.163 . S
Mn568 O576 2.160 . S
Mn568 O586 2.221 . S
O569 Mn570 2.087 . S
O569 C581 1.256 . S
Mn570 O569 2.087 . S
Mn570 O577 2.089 . S
Mn570 O586 2.290 . S
Mn570 O587 2.251 . S
O571 Mn568 2.160 . S
O571 C582 1.239 . S
O572 Mn568 2.221 . S
O572 Mn573 2.290 . S
O572 C583 1.278 . S
Mn573 O572 2.290 . S
Mn573 O575 2.089 . S
Mn573 O578 2.251 . S
Mn573 O579 2.087 . S
O574 Mn568 2.163 . S
O574 C584 1.244 . S
O575 Mn573 2.089 . S
O575 C582 1.256 . S
O576 Mn568 2.160 . S
O576 C585 1.239 . S
O577 Mn570 2.089 . S
O577 C585 1.256 . S
O578 Mn573 2.251 . S
O578 C583 1.241 . S
O579 Mn573 2.087 . S
O579 C584 1.256 . S
C580 O586 1.278 . S
C580 O587 1.241 . S
C581 O567 1.244 . S
C581 O569 1.256 . S
C582 O571 1.239 . S
C582 O575 1.256 . S
C583 O572 1.278 . S
C583 O578 1.241 . S
C584 O574 1.244 . S
C584 O579 1.256 . S
C585 O576 1.239 . S
C585 O577 1.256 . S
O586 Mn568 2.221 . S
O586 Mn570 2.290 . S
O586 C580 1.278 . S
O587 Mn570 2.251 . S
O587 C580 1.241 . S
O588 Mn589 2.163 . S
O588 C602 1.244 . S
Mn589 O588 2.163 . S
Mn589 O592 2.160 . S
Mn589 O593 2.221 . S
Mn589 O595 2.163 . S
Mn589 O597 2.160 . S
Mn589 O607 2.221 . S
O590 Mn591 2.087 . S
O590 C602 1.256 . S
Mn591 O590 2.087 . S
Mn591 O598 2.089 . S
Mn591 O607 2.290 . S
Mn591 O608 2.251 . S
O592 Mn589 2.160 . S
O592 C603 1.239 . S
O593 Mn589 2.221 . S
O593 Mn594 2.290 . S
O593 C604 1.278 . S
Mn594 O593 2.290 . S
Mn594 O596 2.089 . S
Mn594 O599 2.251 . S
Mn594 O600 2.087 . S
O595 Mn589 2.163 . S
O595 C605 1.244 . S
O596 Mn594 2.089 . S
O596 C603 1.256 . S
O597 Mn589 2.160 . S
O597 C606 1.239 . S
O598 Mn591 2.089 . S
O598 C606 1.256 . S
O599 Mn594 2.251 . S
O599 C604 1.241 . S
O600 Mn594 2.087 . S
O600 C605 1.256 . S
C601 O607 1.278 . S
C601 O608 1.241 . S
C602 O588 1.244 . S
C602 O590 1.256 . S
C603 O592 1.239 . S
C603 O596 1.256 . S
C604 O593 1.278 . S
C604 O599 1.241 . S
C605 O595 1.244 . S
C605 O600 1.256 . S
C606 O597 1.239 . S
C606 O598 1.256 . S
O607 Mn589 2.221 . S
O607 Mn591 2.290 . S
O607 C601 1.278 . S
O608 Mn591 2.251 . S
O608 C601 1.241 . S
O609 Mn610 2.163 . S
O609 C623 1.244 . S
Mn610 O609 2.163 . S
Mn610 O613 2.160 . S
Mn610 O614 2.221 . S
Mn610 O616 2.163 . S
Mn610 O618 2.160 . S
Mn610 O628 2.221 . S
O611 Mn612 2.087 . S
O611 C623 1.256 . S
Mn612 O611 2.087 . S
Mn612 O619 2.089 . S
Mn612 O628 2.290 . S
Mn612 O629 2.251 . S
O613 Mn610 2.160 . S
O613 C624 1.239 . S
O614 Mn610 2.221 . S
O614 Mn615 2.290 . S
O614 C625 1.278 . S
Mn615 O614 2.290 . S
Mn615 O617 2.089 . S
Mn615 O620 2.251 . S
Mn615 O621 2.087 . S
O616 Mn610 2.163 . S
O616 C626 1.244 . S
O617 Mn615 2.089 . S
O617 C624 1.256 . S
O618 Mn610 2.160 . S
O618 C627 1.239 . S
O619 Mn612 2.089 . S
O619 C627 1.256 . S
O620 Mn615 2.251 . S
O620 C625 1.241 . S
O621 Mn615 2.087 . S
O621 C626 1.256 . S
C622 O628 1.278 . S
C622 O629 1.241 . S
C623 O609 1.244 . S
C623 O611 1.256 . S
C624 O613 1.239 . S
C624 O617 1.256 . S
C625 O614 1.278 . S
C625 O620 1.241 . S
C626 O616 1.244 . S
C626 O621 1.256 . S
C627 O618 1.239 . S
C627 O619 1.256 . S
O628 Mn610 2.221 . S
O628 Mn612 2.290 . S
O628 C622 1.278 . S
O629 Mn612 2.251 . S
O629 C622 1.241 . S
O630 Mn631 2.163 . S
O630 C644 1.244 . S
Mn631 O630 2.163 . S
Mn631 O634 2.160 . S
Mn631 O635 2.221 . S
Mn631 O637 2.163 . S
Mn631 O639 2.160 . S
Mn631 O649 2.221 . S
O632 Mn633 2.087 . S
O632 C644 1.256 . S
Mn633 O632 2.087 . S
Mn633 O640 2.089 . S
Mn633 O649 2.290 . S
Mn633 O650 2.251 . S
O634 Mn631 2.160 . S
O634 C645 1.239 . S
O635 Mn631 2.221 . S
O635 Mn636 2.290 . S
O635 C646 1.278 . S
Mn636 O635 2.290 . S
Mn636 O638 2.089 . S
Mn636 O641 2.251 . S
Mn636 O642 2.087 . S
O637 Mn631 2.163 . S
O637 C647 1.244 . S
O638 Mn636 2.089 . S
O638 C645 1.256 . S
O639 Mn631 2.160 . S
O639 C648 1.239 . S
O640 Mn633 2.089 . S
O640 C648 1.256 . S
O641 Mn636 2.251 . S
O641 C646 1.241 . S
O642 Mn636 2.087 . S
O642 C647 1.256 . S
C643 O649 1.278 . S
C643 O650 1.241 . S
C644 O630 1.244 . S
C644 O632 1.256 . S
C645 O634 1.239 . S
C645 O638 1.256 . S
C646 O635 1.278 . S
C646 O641 1.241 . S
C647 O637 1.244 . S
C647 O642 1.256 . S
C648 O639 1.239 . S
C648 O640 1.256 . S
O649 Mn631 2.221 . S
O649 Mn633 2.290 . S
O649 C643 1.278 . S
O650 Mn633 2.251 . S
O650 C643 1.241 . S
O651 Mn652 2.166 1_655 S
O651 C665 1.242 1_554 S
Mn652 O651 2.166 1_455 S
Mn652 O655 2.160 . S
Mn652 O656 2.221 . S
Mn652 O658 2.163 1_554 S
Mn652 O660 2.160 1_455 S
Mn652 O670 2.219 1_454 S
O653 Mn654 2.087 1_556 S
O653 C665 1.256 . S
Mn654 O653 2.087 1_554 S
Mn654 O661 2.089 . S
Mn654 O670 2.287 1_554 S
Mn654 O671 2.251 1_554 S
O655 Mn652 2.160 . S
O655 C666 1.239 . S
O656 Mn652 2.221 . S
O656 Mn657 2.290 1_554 S
O656 C667 1.278 . S
Mn657 O656 2.290 1_556 S
Mn657 O659 2.083 1_556 S
Mn657 O662 2.251 1_556 S
Mn657 O663 2.087 . S
O658 Mn652 2.163 1_556 S
O658 C668 1.244 . S
O659 Mn657 2.083 1_554 S
O659 C666 1.278 . S
O660 Mn652 2.160 1_655 S
O660 C669 1.239 . S
O661 Mn654 2.089 . S
O661 C669 1.256 . S
O662 Mn657 2.251 1_554 S
O662 C667 1.241 . S
O663 Mn657 2.087 . S
O663 C668 1.256 . S
C664 O670 1.285 . S
C664 O671 1.241 . S
C665 O651 1.242 1_556 S
C665 O653 1.256 . S
C666 O655 1.239 . S
C666 O659 1.278 . S
C667 O656 1.278 . S
C667 O662 1.241 . S
C668 O658 1.244 . S
C668 O663 1.256 . S
C669 O660 1.239 . S
C669 O661 1.256 . S
O670 Mn652 2.219 1_656 S
O670 Mn654 2.287 1_556 S
O670 C664 1.285 . S
O671 Mn654 2.251 1_556 S
O671 C664 1.241 . S
C672 C673 1.349 1_655 S
C672 C674 1.327 . S
C672 H697 0.950 . S
C673 C672 1.349 1_455 S
C673 C689 1.349 . S
C674 C672 1.327 . S
C674 C693 1.429 1_655 S
C674 H698 0.950 . S
C675 C692 1.574 . S
C675 C694 1.401 . S
C675 H699 0.949 . S
H676 C680 0.949 . S
C677 C678 1.349 1_455 S
C677 C679 1.327 . S
C677 H700 0.950 . S
C678 C677 1.349 1_655 S
C678 C690 1.349 . S
C679 C677 1.327 . S
C679 C695 1.422 1_455 S
C679 H701 0.950 . S
C680 H676 0.949 . S
C680 C688 1.574 . S
C680 C696 1.366 1_655 S
H681 C689 0.950 . S
H682 C687 0.950 . S
H683 C688 0.949 . S
H684 C690 0.950 . S
H685 C691 0.950 . S
H686 C692 0.949 . S
C687 H682 0.950 . S
C687 C689 1.327 . S
C687 C693 1.429 . S
C688 C680 1.574 . S
C688 H683 0.949 . S
C688 C694 1.337 1_655 S
C689 C673 1.349 . S
C689 H681 0.950 . S
C689 C687 1.327 . S
C690 C678 1.349 . S
C690 H684 0.950 . S
C690 C691 1.327 . S
C691 H685 0.950 . S
C691 C690 1.327 . S
C691 C695 1.436 . S
C692 C675 1.574 . S
C692 H686 0.949 . S
C692 C696 1.371 . S
C693 C674 1.429 1_455 S
C693 C687 1.429 . S
C693 C694 1.525 . S
C694 C675 1.401 . S
C694 C688 1.337 1_455 S
C694 C693 1.525 . S
C695 C679 1.422 1_655 S
C695 C691 1.436 . S
C695 C696 1.523 1_655 S
C696 C680 1.366 1_455 S
C696 C692 1.371 . S
C696 C695 1.523 1_455 S
H697 C672 0.950 . S
H698 C674 0.950 . S
H699 C675 0.949 . S
H700 C677 0.950 . S
H701 C679 0.950 . S
C702 C703 1.349 . S
C702 C704 1.327 . S
C702 H727 0.950 . S
C703 C702 1.349 . S
C703 C719 1.349 . S
C704 C702 1.327 . S
C704 C723 1.429 . S
C704 H728 0.950 . S
C705 C722 1.574 . S
C705 C724 1.368 . S
C705 H729 0.949 . S
H706 C710 0.949 . S
C707 C708 1.349 . S
C707 C709 1.327 . S
C707 H730 0.950 . S
C708 C707 1.349 . S
C708 C720 1.349 . S
C709 C707 1.327 . S
C709 C725 1.429 . S
C709 H731 0.950 . S
C710 H706 0.949 . S
C710 C718 1.574 . S
C710 C726 1.368 . S
H711 C719 0.950 . S
H712 C717 0.950 . S
H713 C718 0.949 . S
H714 C720 0.950 . S
H715 C721 0.950 . S
H716 C722 0.949 . S
C717 H712 0.950 . S
C717 C719 1.327 . S
C717 C723 1.429 . S
C718 C710 1.574 . S
C718 H713 0.949 . S
C718 C724 1.368 . S
C719 C703 1.349 . S
C719 H711 0.950 . S
C719 C717 1.327 . S
C720 C708 1.349 . S
C720 H714 0.950 . S
C720 C721 1.327 . S
C721 H715 0.950 . S
C721 C720 1.327 . S
C721 C725 1.429 . S
C722 C705 1.574 . S
C722 H716 0.949 . S
C722 C726 1.368 . S
C723 C704 1.429 . S
C723 C717 1.429 . S
C723 C724 1.523 . S
C724 C705 1.368 . S
C724 C718 1.368 . S
C724 C723 1.523 . S
C725 C709 1.429 . S
C725 C721 1.429 . S
C725 C726 1.523 . S
C726 C710 1.368 . S
C726 C722 1.368 . S
C726 C725 1.523 . S
H727 C702 0.950 . S
H728 C704 0.950 . S
H729 C705 0.949 . S
H730 C707 0.950 . S
H731 C709 0.950 . S
C732 C733 1.349 . S
C732 C734 1.327 . S
C732 H757 0.950 . S
C733 C732 1.349 . S
C733 C749 1.349 . S
C734 C732 1.327 . S
C734 C753 1.429 . S
C734 H758 0.950 . S
C735 C752 1.574 . S
C735 C754 1.368 . S
C735 H759 0.949 . S
H736 C740 0.949 . S
C737 C738 1.349 . S
C737 C739 1.327 . S
C737 H760 0.950 . S
C738 C737 1.349 . S
C738 C750 1.349 . S
C739 C737 1.327 . S
C739 C755 1.429 . S
C739 H761 0.950 . S
C740 H736 0.949 . S
C740 C748 1.574 . S
C740 C756 1.368 . S
H741 C749 0.950 . S
H742 C747 0.950 . S
H743 C748 0.949 . S
H744 C750 0.950 . S
H745 C751 0.950 . S
H746 C752 0.949 . S
C747 H742 0.950 . S
C747 C749 1.327 . S
C747 C753 1.429 . S
C748 C740 1.574 . S
C748 H743 0.949 . S
C748 C754 1.368 . S
C749 C733 1.349 . S
C749 H741 0.950 . S
C749 C747 1.327 . S
C750 C738 1.349 . S
C750 H744 0.950 . S
C750 C751 1.327 . S
C751 H745 0.950 . S
C751 C750 1.327 . S
C751 C755 1.429 . S
C752 C735 1.574 . S
C752 H746 0.949 . S
C752 C756 1.368 . S
C753 C734 1.429 . S
C753 C747 1.429 . S
C753 C754 1.523 . S
C754 C735 1.368 . S
C754 C748 1.368 . S
C754 C753 1.523 . S
C755 C739 1.429 . S
C755 C751 1.429 . S
C755 C756 1.523 . S
C756 C740 1.368 . S
C756 C752 1.368 . S
C756 C755 1.523 . S
H757 C732 0.950 . S
H758 C734 0.950 . S
H759 C735 0.949 . S
H760 C737 0.950 . S
H761 C739 0.950 . S
C762 C763 1.349 . S
C762 C764 1.327 . S
C762 H787 0.950 . S
C763 C762 1.349 . S
C763 C779 1.349 . S
C764 C762 1.327 . S
C764 C783 1.429 . S
C764 H788 0.950 . S
C765 C782 1.574 . S
C765 C784 1.368 . S
C765 H789 0.949 . S
H766 C770 0.949 . S
C767 C768 1.349 . S
C767 C769 1.327 . S
C767 H790 0.950 . S
C768 C767 1.349 . S
C768 C780 1.349 . S
C769 C767 1.327 . S
C769 C785 1.429 . S
C769 H791 0.950 . S
C770 H766 0.949 . S
C770 C778 1.574 . S
C770 C786 1.368 . S
H771 C779 0.950 . S
H772 C777 0.950 . S
H773 C778 0.949 . S
H774 C780 0.950 . S
H775 C781 0.950 . S
H776 C782 0.949 . S
C777 H772 0.950 . S
C777 C779 1.327 . S
C777 C783 1.429 . S
C778 C770 1.574 . S
C778 H773 0.949 . S
C778 C784 1.368 . S
C779 C763 1.349 . S
C779 H771 0.950 . S
C779 C777 1.327 . S
C780 C768 1.349 . S
C780 H774 0.950 . S
C780 C781 1.327 . S
C781 H775 0.950 . S
C781 C780 1.327 . S
C781 C785 1.429 . S
C782 C765 1.574 . S
C782 H776 0.949 . S
C782 C786 1.368 . S
C783 C764 1.429 . S
C783 C777 1.429 . S
C783 C784 1.523 . S
C784 C765 1.368 . S
C784 C778 1.368 . S
C784 C783 1.523 . S
C785 C769 1.429 . S
C785 C781 1.429 . S
C785 C786 1.523 . S
C786 C770 1.368 . S
C786 C782 1.368 . S
C786 C785 1.523 . S
H787 C762 0.950 . S
H788 C764 0.950 . S
H789 C765 0.949 . S
H790 C767 0.950 . S
H791 C769 0.950 . S
C792 C793 1.349 1_655 S
C792 C794 1.327 . S
C792 H817 0.950 . S
C793 C792 1.349 1_455 S
C793 C809 1.349 . S
C794 C792 1.327 . S
C794 C813 1.429 1_655 S
C794 H818 0.950 . S
C795 C812 1.574 . S
C795 C814 1.368 . S
C795 H819 0.949 . S
H796 C800 0.949 . S
C797 C798 1.351 1_455 S
C797 C799 1.327 . S
C797 H820 0.950 . S
C798 C797 1.351 1_655 S
C798 C810 1.347 . S
C799 C797 1.327 . S
C799 C815 1.429 . S
C799 H821 0.950 . S
C800 H796 0.949 . S
C800 C808 1.574 . S
C800 C816 1.368 1_655 S
H801 C809 0.950 . S
H802 C807 0.950 . S
H803 C808 0.949 . S
H804 C810 0.950 . S
H805 C811 0.950 . S
H806 C812 0.949 . S
C807 H802 0.950 . S
C807 C809 1.327 . S
C807 C813 1.429 . S
C808 C800 1.574 . S
C808 H803 0.949 . S
C808 C814 1.368 1_655 S
C809 C793 1.349 . S
C809 H801 0.950 . S
C809 C807 1.327 . S
C810 C798 1.347 . S
C810 H804 0.950 . S
C810 C811 1.327 . S
C811 H805 0.950 . S
C811 C810 1.327 . S
C811 C815 1.429 1_655 S
C812 C795 1.574 . S
C812 H806 0.949 . S
C812 C816 1.368 . S
C813 C794 1.429 1_455 S
C813 C807 1.429 . S
C813 C814 1.523 . S
C814 C795 1.368 . S
C814 C808 1.368 1_455 S
C814 C813 1.523 . S
C815 C799 1.429 . S
C815 C811 1.429 1_455 S
C815 C816 1.523 . S
C816 C800 1.368 1_455 S
C816 C812 1.368 . S
C816 C815 1.523 . S
H817 C792 0.950 . S
H818 C794 0.950 . S
H819 C795 0.949 . S
H820 C797 0.950 . S
H821 C799 0.950 . S
C822 C823 1.349 . S
C822 C824 1.327 . S
C822 H847 0.950 . S
C823 C822 1.349 . S
C823 C839 1.349 . S
C824 C822 1.327 . S
C824 C843 1.429 . S
C824 H848 0.950 . S
C825 C842 1.574 . S
C825 C844 1.368 . S
C825 H849 0.949 . S
H826 C830 0.949 . S
C827 C828 1.349 . S
C827 C829 1.327 . S
C827 H850 0.950 . S
C828 C827 1.349 . S
C828 C840 1.349 . S
C829 C827 1.327 . S
C829 C845 1.429 . S
C829 H851 0.950 . S
C830 H826 0.949 . S
C830 C838 1.574 . S
C830 C846 1.368 . S
H831 C839 0.950 . S
H832 C837 0.950 . S
H833 C838 0.949 . S
H834 C840 0.950 . S
H835 C841 0.950 . S
H836 C842 0.949 . S
C837 H832 0.950 . S
C837 C839 1.327 . S
C837 C843 1.429 . S
C838 C830 1.574 . S
C838 H833 0.949 . S
C838 C844 1.368 . S
C839 C823 1.349 . S
C839 H831 0.950 . S
C839 C837 1.327 . S
C840 C828 1.349 . S
C840 H834 0.950 . S
C840 C841 1.327 . S
C841 H835 0.950 . S
C841 C840 1.327 . S
C841 C845 1.429 . S
C842 C825 1.574 . S
C842 H836 0.949 . S
C842 C846 1.368 . S
C843 C824 1.429 . S
C843 C837 1.429 . S
C843 C844 1.523 . S
C844 C825 1.368 . S
C844 C838 1.368 . S
C844 C843 1.523 . S
C845 C829 1.429 . S
C845 C841 1.429 . S
C845 C846 1.523 . S
C846 C830 1.368 . S
C846 C842 1.368 . S
C846 C845 1.523 . S
H847 C822 0.950 . S
H848 C824 0.950 . S
H849 C825 0.949 . S
H850 C827 0.950 . S
H851 C829 0.950 . S
C852 C853 1.349 . S
C852 C854 1.327 . S
C852 H877 0.950 . S
C853 C852 1.349 . S
C853 C869 1.349 . S
C854 C852 1.327 . S
C854 C873 1.429 . S
C854 H878 0.950 . S
C855 C872 1.574 . S
C855 C874 1.368 . S
C855 H879 0.949 . S
H856 C860 0.949 . S
C857 C858 1.349 . S
C857 C859 1.327 . S
C857 H880 0.950 . S
C858 C857 1.349 . S
C858 C870 1.349 . S
C859 C857 1.327 . S
C859 C875 1.429 . S
C859 H881 0.950 . S
C860 H856 0.949 . S
C860 C868 1.574 . S
C860 C876 1.368 . S
H861 C869 0.950 . S
H862 C867 0.950 . S
H863 C868 0.949 . S
H864 C870 0.950 1_554 S
H865 C871 0.950 . S
H866 C872 0.949 . S
C867 H862 0.950 . S
C867 C869 1.327 . S
C867 C873 1.429 . S
C868 C860 1.574 . S
C868 H863 0.949 . S
C868 C874 1.368 . S
C869 C853 1.349 . S
C869 H861 0.950 . S
C869 C867 1.327 . S
C870 C858 1.349 . S
C870 H864 0.950 1_556 S
C870 C871 1.327 . S
C871 H865 0.950 . S
C871 C870 1.327 . S
C871 C875 1.429 . S
C872 C855 1.574 . S
C872 H866 0.949 . S
C872 C876 1.368 . S
C873 C854 1.429 . S
C873 C867 1.429 . S
C873 C874 1.523 . S
C874 C855 1.368 . S
C874 C868 1.368 . S
C874 C873 1.523 . S
C875 C859 1.429 . S
C875 C871 1.429 . S
C875 C876 1.523 . S
C876 C860 1.368 . S
C876 C872 1.368 . S
C876 C875 1.523 . S
H877 C852 0.950 . S
H878 C854 0.950 . S
H879 C855 0.949 . S
H880 C857 0.950 . S
H881 C859 0.950 . S
C882 C883 1.349 . S
C882 C884 1.327 . S
C882 H907 0.950 . S
C883 C882 1.349 . S
C883 C899 1.349 . S
C884 C882 1.327 . S
C884 C903 1.429 . S
C884 H908 0.950 . S
C885 C902 1.574 . S
C885 C904 1.368 . S
C885 H909 0.949 . S
H886 C890 0.949 . S
C887 C888 1.349 . S
C887 C889 1.327 . S
C887 H910 0.950 . S
C888 C887 1.349 . S
C888 C900 1.349 . S
C889 C887 1.327 . S
C889 C905 1.429 . S
C889 H911 0.950 . S
C890 H886 0.949 . S
C890 C898 1.574 . S
C890 C906 1.368 . S
H891 C899 0.950 . S
H892 C897 0.950 . S
H893 C898 0.949 . S
H894 C900 0.950 . S
H895 C901 0.950 . S
H896 C902 0.949 . S
C897 H892 0.950 . S
C897 C899 1.327 . S
C897 C903 1.429 . S
C898 C890 1.574 . S
C898 H893 0.949 . S
C898 C904 1.368 . S
C899 C883 1.349 . S
C899 H891 0.950 . S
C899 C897 1.327 . S
C900 C888 1.349 . S
C900 H894 0.950 . S
C900 C901 1.327 . S
C901 H895 0.950 . S
C901 C900 1.327 . S
C901 C905 1.429 . S
C902 C885 1.574 . S
C902 H896 0.949 . S
C902 C906 1.368 . S
C903 C884 1.429 . S
C903 C897 1.429 . S
C903 C904 1.523 . S
C904 C885 1.368 . S
C904 C898 1.368 . S
C904 C903 1.523 . S
C905 C889 1.429 . S
C905 C901 1.429 . S
C905 C906 1.523 . S
C906 C890 1.368 . S
C906 C902 1.368 . S
C906 C905 1.523 . S
H907 C882 0.950 . S
H908 C884 0.950 . S
H909 C885 0.949 . S
H910 C887 0.950 . S
H911 C889 0.950 . S
C912 C913 1.349 . S
C912 C914 1.327 . S
C912 H937 0.950 . S
C913 C912 1.349 . S
C913 C929 1.349 1_545 S
C914 C912 1.327 . S
C914 C933 1.441 . S
C914 H938 0.950 . S
C915 C932 1.574 . S
C915 C934 1.387 . S
C915 H939 0.949 . S
H916 C920 0.949 . S
C917 C918 1.349 . S
C917 C919 1.327 . S
C917 H940 0.950 . S
C918 C917 1.349 . S
C918 C930 1.349 1_565 S
C919 C917 1.327 . S
C919 C935 1.429 . S
C919 H941 0.950 . S
C920 H916 0.949 . S
C920 C928 1.574 . S
C920 C936 1.368 1_545 S
H921 C929 0.950 . S
H922 C927 0.950 . S
H923 C928 0.949 . S
H924 C930 0.950 . S
H925 C931 0.950 . S
H926 C932 0.949 . S
C927 H922 0.950 . S
C927 C929 1.327 . S
C927 C933 1.416 1_565 S
C928 C920 1.574 . S
C928 H923 0.949 . S
C928 C934 1.350 1_545 S
C929 C913 1.349 1_565 S
C929 H921 0.950 . S
C929 C927 1.327 . S
C930 C918 1.349 1_545 S
C930 H924 0.950 . S
C930 C931 1.327 . S
C931 H925 0.950 . S
C931 C930 1.327 . S
C931 C935 1.429 1_545 S
C932 C915 1.574 . S
C932 H926 0.949 . S
C932 C936 1.368 . S
C933 C914 1.441 . S
C933 C927 1.416 1_545 S
C933 C934 1.523 1_545 S
C934 C915 1.387 . S
C934 C928 1.350 1_565 S
C934 C933 1.523 1_565 S
C935 C919 1.429 . S
C935 C931 1.429 1_565 S
C935 C936 1.523 . S
C936 C920 1.368 1_565 S
C936 C932 1.368 . S
C936 C935 1.523 . S
H937 C912 0.950 . S
H938 C914 0.950 . S
H939 C915 0.949 . S
H940 C917 0.950 . S
H941 C919 0.950 . S
C942 C943 1.349 . S
C942 C944 1.327 . S
C942 H967 0.950 . S
C943 C942 1.349 . S
C943 C959 1.349 . S
C944 C942 1.327 . S
C944 C963 1.429 . S
C944 H968 0.950 . S
C945 C962 1.574 . S
C945 C964 1.368 . S
C945 H969 0.949 . S
H946 C950 0.949 . S
C947 C948 1.349 . S
C947 C949 1.327 . S
C947 H970 0.950 . S
C948 C947 1.349 . S
C948 C960 1.349 . S
C949 C947 1.327 . S
C949 C965 1.429 . S
C949 H971 0.950 . S
C950 H946 0.949 . S
C950 C958 1.574 . S
C950 C966 1.368 . S
H951 C959 0.950 . S
H952 C957 0.950 . S
H953 C958 0.949 . S
H954 C960 0.950 . S
H955 C961 0.950 . S
H956 C962 0.949 . S
C957 H952 0.950 . S
C957 C959 1.327 . S
C957 C963 1.429 . S
C958 C950 1.574 . S
C958 H953 0.949 . S
C958 C964 1.368 . S
C959 C943 1.349 . S
C959 H951 0.950 . S
C959 C957 1.327 . S
C960 C948 1.349 . S
C960 H954 0.950 . S
C960 C961 1.327 . S
C961 H955 0.950 . S
C961 C960 1.327 . S
C961 C965 1.429 . S
C962 C945 1.574 . S
C962 H956 0.949 . S
C962 C966 1.368 . S
C963 C944 1.429 . S
C963 C957 1.429 . S
C963 C964 1.523 . S
C964 C945 1.368 . S
C964 C958 1.368 . S
C964 C963 1.523 . S
C965 C949 1.429 . S
C965 C961 1.429 . S
C965 C966 1.523 . S
C966 C950 1.368 . S
C966 C962 1.368 . S
C966 C965 1.523 . S
H967 C942 0.950 . S
H968 C944 0.950 . S
H969 C945 0.949 . S
H970 C947 0.950 . S
H971 C949 0.950 . S
C972 C973 1.349 . S
C972 C974 1.327 . S
C972 H997 0.950 . S
C973 C972 1.349 . S
C973 C989 1.349 1_545 S
C974 C972 1.327 . S
C974 C993 1.429 . S
C974 H998 0.950 . S
C975 C992 1.574 . S
C975 C994 1.368 1_565 S
C975 H999 0.949 . S
H976 C980 0.949 . S
C977 C978 1.349 . S
C977 C979 1.327 1_545 S
C977 H1000 0.950 1_545 S
C978 C977 1.349 . S
C978 C990 1.349 . S
C979 C977 1.327 1_565 S
C979 C995 1.431 1_565 S
C979 H1001 0.947 . S
C980 H976 0.949 . S
C980 C988 1.574 . S
C980 C996 1.368 . S
H981 C989 0.950 . S
H982 C987 0.950 . S
H983 C988 0.949 . S
H984 C990 0.950 . S
H985 C991 0.950 . S
H986 C992 0.949 . S
C987 H982 0.950 . S
C987 C989 1.327 . S
C987 C993 1.429 1_565 S
C988 C980 1.574 . S
C988 H983 0.949 . S
C988 C994 1.368 . S
C989 C973 1.349 1_565 S
C989 H981 0.950 . S
C989 C987 1.327 . S
C990 C978 1.349 . S
C990 H984 0.950 . S
C990 C991 1.327 . S
C991 H985 0.950 . S
C991 C990 1.327 . S
C991 C995 1.429 . S
C992 C975 1.574 . S
C992 H986 0.949 . S
C992 C996 1.368 1_565 S
C993 C974 1.429 . S
C993 C987 1.429 1_545 S
C993 C994 1.523 . S
C994 C975 1.368 1_545 S
C994 C988 1.368 . S
C994 C993 1.523 . S
C995 C979 1.431 1_545 S
C995 C991 1.429 . S
C995 C996 1.523 . S
C996 C980 1.368 . S
C996 C992 1.368 1_545 S
C996 C995 1.523 . S
H997 C972 0.950 . S
H998 C974 0.950 . S
H999 C975 0.949 . S
H1000 C977 0.950 1_565 S
H1001 C979 0.947 . S
C1002 C1003 1.349 . S
C1002 C1004 1.327 . S
C1002 H1027 0.950 . S
C1003 C1002 1.349 . S
C1003 C1019 1.349 . S
C1004 C1002 1.327 . S
C1004 C1023 1.429 . S
C1004 H1028 0.950 . S
C1005 C1022 1.574 . S
C1005 C1024 1.368 . S
C1005 H1029 0.949 . S
H1006 C1010 0.949 . S
C1007 C1008 1.349 . S
C1007 C1009 1.327 . S
C1007 H1030 0.950 . S
C1008 C1007 1.349 . S
C1008 C1020 1.349 . S
C1009 C1007 1.327 . S
C1009 C1025 1.429 . S
C1009 H1031 0.950 . S
C1010 H1006 0.949 . S
C1010 C1018 1.574 . S
C1010 C1026 1.368 . S
H1011 C1019 0.950 . S
H1012 C1017 0.950 . S
H1013 C1018 0.949 . S
H1014 C1020 0.950 . S
H1015 C1021 0.950 . S
H1016 C1022 0.949 . S
C1017 H1012 0.950 . S
C1017 C1019 1.327 . S
C1017 C1023 1.429 . S
C1018 C1010 1.574 . S
C1018 H1013 0.949 . S
C1018 C1024 1.368 . S
C1019 C1003 1.349 . S
C1019 H1011 0.950 . S
C1019 C1017 1.327 . S
C1020 C1008 1.349 . S
C1020 H1014 0.950 . S
C1020 C1021 1.327 . S
C1021 H1015 0.950 . S
C1021 C1020 1.327 . S
C1021 C1025 1.429 . S
C1022 C1005 1.574 . S
C1022 H1016 0.949 . S
C1022 C1026 1.368 . S
C1023 C1004 1.429 . S
C1023 C1017 1.429 . S
C1023 C1024 1.523 . S
C1024 C1005 1.368 . S
C1024 C1018 1.368 . S
C1024 C1023 1.523 . S
C1025 C1009 1.429 . S
C1025 C1021 1.429 . S
C1025 C1026 1.523 . S
C1026 C1010 1.368 . S
C1026 C1022 1.368 . S
C1026 C1025 1.523 . S
H1027 C1002 0.950 . S
H1028 C1004 0.950 . S
H1029 C1005 0.949 . S
H1030 C1007 0.950 . S
H1031 C1009 0.950 . S
C1032 C1033 1.349 . S
C1032 C1034 1.327 . S
C1032 H1057 0.950 . S
C1033 C1032 1.349 . S
C1033 C1049 1.349 1_545 S
C1034 C1032 1.327 . S
C1034 C1053 1.429 . S
C1034 H1058 0.950 . S
C1035 C1052 1.574 . S
C1035 C1054 1.368 1_565 S
C1035 H1059 0.949 . S
H1036 C1040 0.949 . S
C1037 C1038 1.349 1_565 S
C1037 C1039 1.327 . S
C1037 H1060 0.950 . S
C1038 C1037 1.349 1_545 S
C1038 C1050 1.349 . S
C1039 C1037 1.327 . S
C1039 C1055 1.429 1_565 S
C1039 H1061 0.950 . S
C1040 H1036 0.949 . S
C1040 C1048 1.574 . S
C1040 C1056 1.368 . S
H1041 C1049 0.950 . S
H1042 C1047 0.950 . S
H1043 C1048 0.949 . S
H1044 C1050 0.950 . S
H1045 C1051 0.950 . S
H1046 C1052 0.949 . S
C1047 H1042 0.950 . S
C1047 C1049 1.327 . S
C1047 C1053 1.429 1_565 S
C1048 C1040 1.574 . S
C1048 H1043 0.949 . S
C1048 C1054 1.368 . S
C1049 C1033 1.349 1_565 S
C1049 H1041 0.950 . S
C1049 C1047 1.327 . S
C1050 C1038 1.349 . S
C1050 H1044 0.950 . S
C1050 C1051 1.327 . S
C1051 H1045 0.950 . S
C1051 C1050 1.327 . S
C1051 C1055 1.429 . S
C1052 C1035 1.574 . S
C1052 H1046 0.949 . S
C1052 C1056 1.368 1_565 S
C1053 C1034 1.429 . S
C1053 C1047 1.429 1_545 S
C1053 C1054 1.523 . S
C1054 C1035 1.368 1_545 S
C1054 C1048 1.368 . S
C1054 C1053 1.523 . S
C1055 C1039 1.429 1_545 S
C1055 C1051 1.429 . S
C1055 C1056 1.523 . S
C1056 C1040 1.368 . S
C1056 C1052 1.368 1_545 S
C1056 C1055 1.523 . S
H1057 C1032 0.950 . S
H1058 C1034 0.950 . S
H1059 C1035 0.949 . S
H1060 C1037 0.950 . S
H1061 C1039 0.950 . S
C1062 C1063 1.349 . S
C1062 C1064 1.327 . S
C1062 H1087 0.950 . S
C1063 C1062 1.349 . S
C1063 C1079 1.349 . S
C1064 C1062 1.327 . S
C1064 C1083 1.429 . S
C1064 H1088 0.950 . S
C1065 C1082 1.574 . S
C1065 C1084 1.368 . S
C1065 H1089 0.949 . S
H1066 C1070 0.949 . S
C1067 C1068 1.349 . S
C1067 C1069 1.327 . S
C1067 H1090 0.950 . S
C1068 C1067 1.349 . S
C1068 C1080 1.349 . S
C1069 C1067 1.327 . S
C1069 C1085 1.429 . S
C1069 H1091 0.950 . S
C1070 H1066 0.949 . S
C1070 C1078 1.574 . S
C1070 C1086 1.368 . S
H1071 C1079 0.950 . S
H1072 C1077 0.950 . S
H1073 C1078 0.949 . S
H1074 C1080 0.950 . S
H1075 C1081 0.950 . S
H1076 C1082 0.949 . S
C1077 H1072 0.950 . S
C1077 C1079 1.327 . S
C1077 C1083 1.429 . S
C1078 C1070 1.574 . S
C1078 H1073 0.949 . S
C1078 C1084 1.368 . S
C1079 C1063 1.349 . S
C1079 H1071 0.950 . S
C1079 C1077 1.327 . S
C1080 C1068 1.349 . S
C1080 H1074 0.950 . S
C1080 C1081 1.327 . S
C1081 H1075 0.950 . S
C1081 C1080 1.327 . S
C1081 C1085 1.429 . S
C1082 C1065 1.574 . S
C1082 H1076 0.949 . S
C1082 C1086 1.368 . S
C1083 C1064 1.429 . S
C1083 C1077 1.429 . S
C1083 C1084 1.523 . S
C1084 C1065 1.368 . S
C1084 C1078 1.368 . S
C1084 C1083 1.523 . S
C1085 C1069 1.429 . S
C1085 C1081 1.429 . S
C1085 C1086 1.523 . S
C1086 C1070 1.368 . S
C1086 C1082 1.368 . S
C1086 C1085 1.523 . S
H1087 C1062 0.950 . S
H1088 C1064 0.950 . S
H1089 C1065 0.949 . S
H1090 C1067 0.950 . S
H1091 C1069 0.950 . S
C1092 C1093 1.349 . S
C1092 C1094 1.327 . S
C1092 H1117 0.950 . S
C1093 C1092 1.349 . S
C1093 C1109 1.349 1_545 S
C1094 C1092 1.327 . S
C1094 C1113 1.429 . S
C1094 H1118 0.950 . S
C1095 C1112 1.574 . S
C1095 C1114 1.368 1_565 S
C1095 H1119 0.949 . S
H1096 C1100 0.949 . S
C1097 C1098 1.349 . S
C1097 C1099 1.327 . S
C1097 H1120 0.950 . S
C1098 C1097 1.349 . S
C1098 C1110 1.349 1_565 S
C1099 C1097 1.327 . S
C1099 C1115 1.446 . S
C1099 H1121 0.950 . S
C1100 H1096 0.949 . S
C1100 C1108 1.574 . S
C1100 C1116 1.385 . S
H1101 C1109 0.950 . S
H1102 C1107 0.950 . S
H1103 C1108 0.949 . S
H1104 C1110 0.950 . S
H1105 C1111 0.950 . S
H1106 C1112 0.949 . S
C1107 H1102 0.950 . S
C1107 C1109 1.327 . S
C1107 C1113 1.429 1_565 S
C1108 C1100 1.574 . S
C1108 H1103 0.949 . S
C1108 C1114 1.368 . S
C1109 C1093 1.349 1_565 S
C1109 H1101 0.950 . S
C1109 C1107 1.327 . S
C1110 C1098 1.349 1_545 S
C1110 H1104 0.950 . S
C1110 C1111 1.327 . S
C1111 H1105 0.950 . S
C1111 C1110 1.327 . S
C1111 C1115 1.413 1_545 S
C1112 C1095 1.574 . S
C1112 H1106 0.949 . S
C1112 C1116 1.353 1_565 S
C1113 C1094 1.429 . S
C1113 C1107 1.429 1_545 S
C1113 C1114 1.523 . S
C1114 C1095 1.368 1_545 S
C1114 C1108 1.368 . S
C1114 C1113 1.523 . S
C1115 C1099 1.446 . S
C1115 C1111 1.413 1_565 S
C1115 C1116 1.521 1_565 S
C1116 C1100 1.385 . S
C1116 C1112 1.353 1_545 S
C1116 C1115 1.521 1_545 S
H1117 C1092 0.950 . S
H1118 C1094 0.950 . S
H1119 C1095 0.949 . S
H1120 C1097 0.950 . S
H1121 C1099 0.950 . S
C1122 C1123 1.349 . S
C1122 C1124 1.327 . S
C1122 H1147 0.950 . S
C1123 C1122 1.349 . S
C1123 C1139 1.349 . S
C1124 C1122 1.327 . S
C1124 C1143 1.429 . S
C1124 H1148 0.950 . S
C1125 C1142 1.574 . S
C1125 C1144 1.368 . S
C1125 H1149 0.949 . S
H1126 C1130 0.949 . S
C1127 C1128 1.349 . S
C1127 C1129 1.327 . S
C1127 H1150 0.950 . S
C1128 C1127 1.349 . S
C1128 C1140 1.349 . S
C1129 C1127 1.327 . S
C1129 C1145 1.429 . S
C1129 H1151 0.950 . S
C1130 H1126 0.949 . S
C1130 C1138 1.574 . S
C1130 C1146 1.368 . S
H1131 C1139 0.950 . S
H1132 C1137 0.950 . S
H1133 C1138 0.949 . S
H1134 C1140 0.950 . S
H1135 C1141 0.950 . S
H1136 C1142 0.949 . S
C1137 H1132 0.950 . S
C1137 C1139 1.327 . S
C1137 C1143 1.429 . S
C1138 C1130 1.574 . S
C1138 H1133 0.949 . S
C1138 C1144 1.368 . S
C1139 C1123 1.349 . S
C1139 H1131 0.950 . S
C1139 C1137 1.327 . S
C1140 C1128 1.349 . S
C1140 H1134 0.950 . S
C1140 C1141 1.327 . S
C1141 H1135 0.950 . S
C1141 C1140 1.327 . S
C1141 C1145 1.429 . S
C1142 C1125 1.574 . S
C1142 H1136 0.949 . S
C1142 C1146 1.368 . S
C1143 C1124 1.429 . S
C1143 C1137 1.429 . S
C1143 C1144 1.523 . S
C1144 C1125 1.368 . S
C1144 C1138 1.368 . S
C1144 C1143 1.523 . S
C1145 C1129 1.429 . S
C1145 C1141 1.429 . S
C1145 C1146 1.523 . S
C1146 C1130 1.368 . S
C1146 C1142 1.368 . S
C1146 C1145 1.523 . S
H1147 C1122 0.950 . S
H1148 C1124 0.950 . S
H1149 C1125 0.949 . S
H1150 C1127 0.950 . S
H1151 C1129 0.950 . S
C1152 C1153 1.349 . S
C1152 C1154 1.327 . S
C1152 H1177 0.950 . S
C1153 C1152 1.349 . S
C1153 C1169 1.349 1_554 S
C1154 C1152 1.327 . S
C1154 C1173 1.429 . S
C1154 H1178 0.950 . S
C1155 C1172 1.574 . S
C1155 C1174 1.368 1_556 S
C1155 H1179 0.949 . S
H1156 C1160 0.949 . S
C1157 C1158 1.349 . S
C1157 C1159 1.327 . S
C1157 H1180 0.950 . S
C1158 C1157 1.349 . S
C1158 C1170 1.349 1_556 S
C1159 C1157 1.327 . S
C1159 C1175 1.421 1_556 S
C1159 H1181 0.950 . S
C1160 H1156 0.949 . S
C1160 C1168 1.574 . S
C1160 C1176 1.416 . S
H1161 C1169 0.950 . S
H1162 C1167 0.950 . S
H1163 C1168 0.949 . S
H1164 C1170 0.950 . S
H1165 C1171 0.950 . S
H1166 C1172 0.949 . S
C1167 H1162 0.950 . S
C1167 C1169 1.327 . S
C1167 C1173 1.429 1_556 S
C1168 C1160 1.574 . S
C1168 H1163 0.949 . S
C1168 C1174 1.368 . S
C1169 C1153 1.349 1_556 S
C1169 H1161 0.950 . S
C1169 C1167 1.327 . S
C1170 C1158 1.349 1_554 S
C1170 H1164 0.950 . S
C1170 C1171 1.327 . S
C1171 H1165 0.950 . S
C1171 C1170 1.327 . S
C1171 C1175 1.436 . S
C1172 C1155 1.574 . S
C1172 H1166 0.949 . S
C1172 C1176 1.323 1_556 S
C1173 C1154 1.429 . S
C1173 C1167 1.429 1_554 S
C1173 C1174 1.523 . S
C1174 C1155 1.368 1_554 S
C1174 C1168 1.368 . S
C1174 C1173 1.523 . S
C1175 C1159 1.421 1_554 S
C1175 C1171 1.436 . S
C1175 C1176 1.523 . S
C1176 C1160 1.416 . S
C1176 C1172 1.323 1_554 S
C1176 C1175 1.523 . S
H1177 C1152 0.950 . S
H1178 C1154 0.950 . S
H1179 C1155 0.949 . S
H1180 C1157 0.950 . S
H1181 C1159 0.950 . S
C1182 C1183 1.349 1_556 S
C1182 C1184 1.327 . S
C1182 H1207 0.950 . S
C1183 C1182 1.349 1_554 S
C1183 C1199 1.349 . S
C1184 C1182 1.327 . S
C1184 C1203 1.429 1_556 S
C1184 H1208 0.950 . S
C1185 C1202 1.574 . S
C1185 C1204 1.368 . S
C1185 H1209 0.949 . S
H1186 C1190 0.949 . S
C1187 C1188 1.349 . S
C1187 C1189 1.327 . S
C1187 H1210 0.950 . S
C1188 C1187 1.349 . S
C1188 C1200 1.349 1_554 S
C1189 C1187 1.327 . S
C1189 C1205 1.429 . S
C1189 H1211 0.950 . S
C1190 H1186 0.949 . S
C1190 C1198 1.574 . S
C1190 C1206 1.368 1_556 S
H1191 C1199 0.950 . S
H1192 C1197 0.950 . S
H1193 C1198 0.949 . S
H1194 C1200 0.950 . S
H1195 C1201 0.950 . S
H1196 C1202 0.949 . S
C1197 H1192 0.950 . S
C1197 C1199 1.327 . S
C1197 C1203 1.429 . S
C1198 C1190 1.574 . S
C1198 H1193 0.949 . S
C1198 C1204 1.368 1_556 S
C1199 C1183 1.349 . S
C1199 H1191 0.950 . S
C1199 C1197 1.327 . S
C1200 C1188 1.349 1_556 S
C1200 H1194 0.950 . S
C1200 C1201 1.327 . S
C1201 H1195 0.950 . S
C1201 C1200 1.327 . S
C1201 C1205 1.429 1_556 S
C1202 C1185 1.574 . S
C1202 H1196 0.949 . S
C1202 C1206 1.368 . S
C1203 C1184 1.429 1_554 S
C1203 C1197 1.429 . S
C1203 C1204 1.523 . S
C1204 C1185 1.368 . S
C1204 C1198 1.368 1_554 S
C1204 C1203 1.523 . S
C1205 C1189 1.429 . S
C1205 C1201 1.429 1_554 S
C1205 C1206 1.523 . S
C1206 C1190 1.368 1_554 S
C1206 C1202 1.368 . S
C1206 C1205 1.523 . S
H1207 C1182 0.950 . S
H1208 C1184 0.950 . S
H1209 C1185 0.949 . S
H1210 C1187 0.950 . S
H1211 C1189 0.950 . S
C1212 C1213 1.349 . S
C1212 C1214 1.327 . S
C1212 H1237 0.950 . S
C1213 C1212 1.349 . S
C1213 C1229 1.349 . S
C1214 C1212 1.327 . S
C1214 C1233 1.429 . S
C1214 H1238 0.950 . S
C1215 C1232 1.574 . S
C1215 C1234 1.368 . S
C1215 H1239 0.949 . S
H1216 C1220 0.949 . S
C1217 C1218 1.349 . S
C1217 C1219 1.327 . S
C1217 H1240 0.950 . S
C1218 C1217 1.349 . S
C1218 C1230 1.349 . S
C1219 C1217 1.327 . S
C1219 C1235 1.429 . S
C1219 H1241 0.950 . S
C1220 H1216 0.949 . S
C1220 C1228 1.574 . S
C1220 C1236 1.368 . S
H1221 C1229 0.950 . S
H1222 C1227 0.950 . S
H1223 C1228 0.949 . S
H1224 C1230 0.950 . S
H1225 C1231 0.950 . S
H1226 C1232 0.949 . S
C1227 H1222 0.950 . S
C1227 C1229 1.327 . S
C1227 C1233 1.429 . S
C1228 C1220 1.574 . S
C1228 H1223 0.949 . S
C1228 C1234 1.368 . S
C1229 C1213 1.349 . S
C1229 H1221 0.950 . S
C1229 C1227 1.327 . S
C1230 C1218 1.349 . S
C1230 H1224 0.950 . S
C1230 C1231 1.327 . S
C1231 H1225 0.950 . S
C1231 C1230 1.327 . S
C1231 C1235 1.429 . S
C1232 C1215 1.574 . S
C1232 H1226 0.949 . S
C1232 C1236 1.368 . S
C1233 C1214 1.429 . S
C1233 C1227 1.429 . S
C1233 C1234 1.523 . S
C1234 C1215 1.368 . S
C1234 C1228 1.368 . S
C1234 C1233 1.523 . S
C1235 C1219 1.429 . S
C1235 C1231 1.429 . S
C1235 C1236 1.523 . S
C1236 C1220 1.368 . S
C1236 C1232 1.368 . S
C1236 C1235 1.523 . S
H1237 C1212 0.950 . S
H1238 C1214 0.950 . S
H1239 C1215 0.949 . S
H1240 C1217 0.950 . S
H1241 C1219 0.950 . S
C1242 C1243 1.349 . S
C1242 C1244 1.327 . S
C1242 H1267 0.950 . S
C1243 C1242 1.349 . S
C1243 C1259 1.349 . S
C1244 C1242 1.327 . S
C1244 C1263 1.429 . S
C1244 H1268 0.950 . S
C1245 C1262 1.574 . S
C1245 C1264 1.368 . S
C1245 H1269 0.949 . S
H1246 C1250 0.949 . S
C1247 C1248 1.349 . S
C1247 C1249 1.327 . S
C1247 H1270 0.950 . S
C1248 C1247 1.349 . S
C1248 C1260 1.349 . S
C1249 C1247 1.327 . S
C1249 C1265 1.429 . S
C1249 H1271 0.950 . S
C1250 H1246 0.949 . S
C1250 C1258 1.574 . S
C1250 C1266 1.368 . S
H1251 C1259 0.950 . S
H1252 C1257 0.950 . S
H1253 C1258 0.949 . S
H1254 C1260 0.950 . S
H1255 C1261 0.950 . S
H1256 C1262 0.949 . S
C1257 H1252 0.950 . S
C1257 C1259 1.327 . S
C1257 C1263 1.429 . S
C1258 C1250 1.574 . S
C1258 H1253 0.949 . S
C1258 C1264 1.368 . S
C1259 C1243 1.349 . S
C1259 H1251 0.950 . S
C1259 C1257 1.327 . S
C1260 C1248 1.349 . S
C1260 H1254 0.950 . S
C1260 C1261 1.327 . S
C1261 H1255 0.950 . S
C1261 C1260 1.327 . S
C1261 C1265 1.429 . S
C1262 C1245 1.574 . S
C1262 H1256 0.949 . S
C1262 C1266 1.368 . S
C1263 C1244 1.429 . S
C1263 C1257 1.429 . S
C1263 C1264 1.523 . S
C1264 C1245 1.368 . S
C1264 C1258 1.368 . S
C1264 C1263 1.523 . S
C1265 C1249 1.429 . S
C1265 C1261 1.429 . S
C1265 C1266 1.523 . S
C1266 C1250 1.368 . S
C1266 C1262 1.368 . S
C1266 C1265 1.523 . S
H1267 C1242 0.950 . S
H1268 C1244 0.950 . S
H1269 C1245 0.949 . S
H1270 C1247 0.950 . S
H1271 C1249 0.950 . S
C1272 C1273 1.349 . S
C1272 C1274 1.327 . S
C1272 H1297 0.950 . S
C1273 C1272 1.349 . S
C1273 C1289 1.349 . S
C1274 C1272 1.327 . S
C1274 C1293 1.429 . S
C1274 H1298 0.950 . S
C1275 C1292 1.574 . S
C1275 C1294 1.368 . S
C1275 H1299 0.949 . S
H1276 C1280 0.949 . S
C1277 C1278 1.349 . S
C1277 C1279 1.327 . S
C1277 H1300 0.950 . S
C1278 C1277 1.349 . S
C1278 C1290 1.349 . S
C1279 C1277 1.327 . S
C1279 C1295 1.429 . S
C1279 H1301 0.950 . S
C1280 H1276 0.949 . S
C1280 C1288 1.574 . S
C1280 C1296 1.368 . S
H1281 C1289 0.950 . S
H1282 C1287 0.950 . S
H1283 C1288 0.949 . S
H1284 C1290 0.950 . S
H1285 C1291 0.950 . S
H1286 C1292 0.949 . S
C1287 H1282 0.950 . S
C1287 C1289 1.327 . S
C1287 C1293 1.429 . S
C1288 C1280 1.574 . S
C1288 H1283 0.949 . S
C1288 C1294 1.368 . S
C1289 C1273 1.349 . S
C1289 H1281 0.950 . S
C1289 C1287 1.327 . S
C1290 C1278 1.349 . S
C1290 H1284 0.950 . S
C1290 C1291 1.327 . S
C1291 H1285 0.950 . S
C1291 C1290 1.327 . S
C1291 C1295 1.429 . S
C1292 C1275 1.574 . S
C1292 H1286 0.949 . S
C1292 C1296 1.368 . S
C1293 C1274 1.429 . S
C1293 C1287 1.429 . S
C1293 C1294 1.523 . S
C1294 C1275 1.368 . S
C1294 C1288 1.368 . S
C1294 C1293 1.523 . S
C1295 C1279 1.429 . S
C1295 C1291 1.429 . S
C1295 C1296 1.523 . S
C1296 C1280 1.368 . S
C1296 C1292 1.368 . S
C1296 C1295 1.523 . S
H1297 C1272 0.950 . S
H1298 C1274 0.950 . S
H1299 C1275 0.949 . S
H1300 C1277 0.950 . S
H1301 C1279 0.950 . S
C1302 C1303 1.349 . S
C1302 C1304 1.327 . S
C1302 H1327 0.950 . S
C1303 C1302 1.349 . S
C1303 C1319 1.349 . S
C1304 C1302 1.327 . S
C1304 C1323 1.429 . S
C1304 H1328 0.950 . S
C1305 C1322 1.574 . S
C1305 C1324 1.368 . S
C1305 H1329 0.949 . S
H1306 C1310 0.949 . S
C1307 C1308 1.349 . S
C1307 C1309 1.327 . S
C1307 H1330 0.950 . S
C1308 C1307 1.349 . S
C1308 C1320 1.349 . S
C1309 C1307 1.327 . S
C1309 C1325 1.429 . S
C1309 H1331 0.950 . S
C1310 H1306 0.949 . S
C1310 C1318 1.574 . S
C1310 C1326 1.368 . S
H1311 C1319 0.950 . S
H1312 C1317 0.950 . S
H1313 C1318 0.949 . S
H1314 C1320 0.950 . S
H1315 C1321 0.950 . S
H1316 C1322 0.949 . S
C1317 H1312 0.950 . S
C1317 C1319 1.327 . S
C1317 C1323 1.429 . S
C1318 C1310 1.574 . S
C1318 H1313 0.949 . S
C1318 C1324 1.368 . S
C1319 C1303 1.349 . S
C1319 H1311 0.950 . S
C1319 C1317 1.327 . S
C1320 C1308 1.349 . S
C1320 H1314 0.950 . S
C1320 C1321 1.327 . S
C1321 H1315 0.950 . S
C1321 C1320 1.327 . S
C1321 C1325 1.429 . S
C1322 C1305 1.574 . S
C1322 H1316 0.949 . S
C1322 C1326 1.368 . S
C1323 C1304 1.429 . S
C1323 C1317 1.429 . S
C1323 C1324 1.523 . S
C1324 C1305 1.368 . S
C1324 C1318 1.368 . S
C1324 C1323 1.523 . S
C1325 C1309 1.429 . S
C1325 C1321 1.429 . S
C1325 C1326 1.523 . S
C1326 C1310 1.368 . S
C1326 C1322 1.368 . S
C1326 C1325 1.523 . S
H1327 C1302 0.950 . S
H1328 C1304 0.950 . S
H1329 C1305 0.949 . S
H1330 C1307 0.950 . S
H1331 C1309 0.950 . S
C1332 C1333 1.349 . S
C1332 C1334 1.327 . S
C1332 H1357 0.950 . S
C1333 C1332 1.349 . S
C1333 C1349 1.349 . S
C1334 C1332 1.327 . S
C1334 C1353 1.429 . S
C1334 H1358 0.950 . S
C1335 C1352 1.574 . S
C1335 C1354 1.368 . S
C1335 H1359 0.949 . S
H1336 C1340 0.949 . S
C1337 C1338 1.349 . S
C1337 C1339 1.327 . S
C1337 H1360 0.950 . S
C1338 C1337 1.349 . S
C1338 C1350 1.349 . S
C1339 C1337 1.327 . S
C1339 C1355 1.429 . S
C1339 H1361 0.950 . S
C1340 H1336 0.949 . S
C1340 C1348 1.574 . S
C1340 C1356 1.368 . S
H1341 C1349 0.950 . S
H1342 C1347 0.950 . S
H1343 C1348 0.949 . S
H1344 C1350 0.950 . S
H1345 C1351 0.950 . S
H1346 C1352 0.949 . S
C1347 H1342 0.950 . S
C1347 C1349 1.327 . S
C1347 C1353 1.429 . S
C1348 C1340 1.574 . S
C1348 H1343 0.949 . S
C1348 C1354 1.368 . S
C1349 C1333 1.349 . S
C1349 H1341 0.950 . S
C1349 C1347 1.327 . S
C1350 C1338 1.349 . S
C1350 H1344 0.950 . S
C1350 C1351 1.327 . S
C1351 H1345 0.950 . S
C1351 C1350 1.327 . S
C1351 C1355 1.429 . S
C1352 C1335 1.574 . S
C1352 H1346 0.949 . S
C1352 C1356 1.368 . S
C1353 C1334 1.429 . S
C1353 C1347 1.429 . S
C1353 C1354 1.523 . S
C1354 C1335 1.368 . S
C1354 C1348 1.368 . S
C1354 C1353 1.523 . S
C1355 C1339 1.429 . S
C1355 C1351 1.429 . S
C1355 C1356 1.523 . S
C1356 C1340 1.368 . S
C1356 C1352 1.368 . S
C1356 C1355 1.523 . S
H1357 C1332 0.950 . S
H1358 C1334 0.950 . S
H1359 C1335 0.949 . S
H1360 C1337 0.950 . S
H1361 C1339 0.950 . S
C1362 C1363 1.349 . S
C1362 C1364 1.327 . S
C1362 H1387 0.950 . S
C1363 C1362 1.349 . S
C1363 C1379 1.349 . S
C1364 C1362 1.327 . S
C1364 C1383 1.429 . S
C1364 H1388 0.950 . S
C1365 C1382 1.574 . S
C1365 C1384 1.368 . S
C1365 H1389 0.949 . S
H1366 C1370 0.949 . S
C1367 C1368 1.349 . S
C1367 C1369 1.327 . S
C1367 H1390 0.950 . S
C1368 C1367 1.349 . S
C1368 C1380 1.349 . S
C1369 C1367 1.327 . S
C1369 C1385 1.429 . S
C1369 H1391 0.950 . S
C1370 H1366 0.949 . S
C1370 C1378 1.574 . S
C1370 C1386 1.368 . S
H1371 C1379 0.950 . S
H1372 C1377 0.950 . S
H1373 C1378 0.949 . S
H1374 C1380 0.950 . S
H1375 C1381 0.950 . S
H1376 C1382 0.949 . S
C1377 H1372 0.950 . S
C1377 C1379 1.327 . S
C1377 C1383 1.429 . S
C1378 C1370 1.574 . S
C1378 H1373 0.949 . S
C1378 C1384 1.368 . S
C1379 C1363 1.349 . S
C1379 H1371 0.950 . S
C1379 C1377 1.327 . S
C1380 C1368 1.349 . S
C1380 H1374 0.950 . S
C1380 C1381 1.327 . S
C1381 H1375 0.950 . S
C1381 C1380 1.327 . S
C1381 C1385 1.429 . S
C1382 C1365 1.574 . S
C1382 H1376 0.949 . S
C1382 C1386 1.368 . S
C1383 C1364 1.429 . S
C1383 C1377 1.429 . S
C1383 C1384 1.523 . S
C1384 C1365 1.368 . S
C1384 C1378 1.368 . S
C1384 C1383 1.523 . S
C1385 C1369 1.429 . S
C1385 C1381 1.429 . S
C1385 C1386 1.523 . S
C1386 C1370 1.368 . S
C1386 C1382 1.368 . S
C1386 C1385 1.523 . S
H1387 C1362 0.950 . S
H1388 C1364 0.950 . S
H1389 C1365 0.949 . S
H1390 C1367 0.950 . S
H1391 C1369 0.950 . S
C1392 C1393 1.349 . S
C1392 C1394 1.327 . S
C1392 H1417 0.950 . S
C1393 C1392 1.349 . S
C1393 C1409 1.349 1_455 S
C1394 C1392 1.327 . S
C1394 C1413 1.429 . S
C1394 H1418 0.950 . S
C1395 C1412 1.574 . S
C1395 C1414 1.372 . S
C1395 H1419 0.945 1_455 S
H1396 C1400 0.949 . S
C1397 C1398 1.349 . S
C1397 C1399 1.327 . S
C1397 H1420 0.934 1_455 S
C1398 C1397 1.349 . S
C1398 C1410 1.349 . S
C1399 C1397 1.327 . S
C1399 C1415 1.429 . S
C1399 H1421 0.950 1_455 S
C1400 H1396 0.949 . S
C1400 C1408 1.574 . S
C1400 C1416 1.368 . S
H1401 C1409 0.950 . S
H1402 C1407 0.950 . S
H1403 C1408 0.949 . S
H1404 C1410 0.950 . S
H1405 C1411 0.950 . S
H1406 C1412 0.949 1_655 S
C1407 H1402 0.950 . S
C1407 C1409 1.327 . S
C1407 C1413 1.429 1_655 S
C1408 C1400 1.574 . S
C1408 H1403 0.949 . S
C1408 C1414 1.368 . S
C1409 C1393 1.349 1_655 S
C1409 H1401 0.950 . S
C1409 C1407 1.327 . S
C1410 C1398 1.349 . S
C1410 H1404 0.950 . S
C1410 C1411 1.327 . S
C1411 H1405 0.950 . S
C1411 C1410 1.327 . S
C1411 C1415 1.429 . S
C1412 C1395 1.574 . S
C1412 H1406 0.949 1_455 S
C1412 C1416 1.368 . S
C1413 C1394 1.429 . S
C1413 C1407 1.429 1_455 S
C1413 C1414 1.523 . S
C1414 C1395 1.372 . S
C1414 C1408 1.368 . S
C1414 C1413 1.523 . S
C1415 C1399 1.429 . S
C1415 C1411 1.429 . S
C1415 C1416 1.523 . S
C1416 C1400 1.368 . S
C1416 C1412 1.368 . S
C1416 C1415 1.523 . S
H1417 C1392 0.950 . S
H1418 C1394 0.950 . S
H1419 C1395 0.945 1_655 S
H1420 C1397 0.934 1_655 S
H1421 C1399 0.950 1_655 S
C1422 C1423 1.349 . S
C1422 C1424 1.327 . S
C1422 H1447 0.950 . S
C1423 C1422 1.349 . S
C1423 C1439 1.349 . S
C1424 C1422 1.327 . S
C1424 C1443 1.429 . S
C1424 H1448 0.950 . S
C1425 C1442 1.574 . S
C1425 C1444 1.368 . S
C1425 H1449 0.949 . S
H1426 C1430 0.949 . S
C1427 C1428 1.349 . S
C1427 C1429 1.327 . S
C1427 H1450 0.950 . S
C1428 C1427 1.349 . S
C1428 C1440 1.349 . S
C1429 C1427 1.327 . S
C1429 C1445 1.429 . S
C1429 H1451 0.950 . S
C1430 H1426 0.949 . S
C1430 C1438 1.574 . S
C1430 C1446 1.368 . S
H1431 C1439 0.950 . S
H1432 C1437 0.950 . S
H1433 C1438 0.949 . S
H1434 C1440 0.950 . S
H1435 C1441 0.950 . S
H1436 C1442 0.949 . S
C1437 H1432 0.950 . S
C1437 C1439 1.327 . S
C1437 C1443 1.429 . S
C1438 C1430 1.574 . S
C1438 H1433 0.949 . S
C1438 C1444 1.368 . S
C1439 C1423 1.349 . S
C1439 H1431 0.950 . S
C1439 C1437 1.327 . S
C1440 C1428 1.349 . S
C1440 H1434 0.950 . S
C1440 C1441 1.327 . S
C1441 H1435 0.950 . S
C1441 C1440 1.327 . S
C1441 C1445 1.429 . S
C1442 C1425 1.574 . S
C1442 H1436 0.949 . S
C1442 C1446 1.368 . S
C1443 C1424 1.429 . S
C1443 C1437 1.429 . S
C1443 C1444 1.523 . S
C1444 C1425 1.368 . S
C1444 C1438 1.368 . S
C1444 C1443 1.523 . S
C1445 C1429 1.429 . S
C1445 C1441 1.429 . S
C1445 C1446 1.523 . S
C1446 C1430 1.368 . S
C1446 C1442 1.368 . S
C1446 C1445 1.523 . S
H1447 C1422 0.950 . S
H1448 C1424 0.950 . S
H1449 C1425 0.949 . S
H1450 C1427 0.950 . S
H1451 C1429 0.950 . S
C1452 C1453 1.349 . S
C1452 C1454 1.327 . S
C1452 H1477 0.950 . S
C1453 C1452 1.349 . S
C1453 C1469 1.349 . S
C1454 C1452 1.327 . S
C1454 C1473 1.429 . S
C1454 H1478 0.950 . S
C1455 C1472 1.574 . S
C1455 C1474 1.368 . S
C1455 H1479 0.949 . S
H1456 C1460 0.949 . S
C1457 C1458 1.349 . S
C1457 C1459 1.327 . S
C1457 H1480 0.950 . S
C1458 C1457 1.349 . S
C1458 C1470 1.349 . S
C1459 C1457 1.327 . S
C1459 C1475 1.429 . S
C1459 H1481 0.950 . S
C1460 H1456 0.949 . S
C1460 C1468 1.574 . S
C1460 C1476 1.368 . S
H1461 C1469 0.950 . S
H1462 C1467 0.950 . S
H1463 C1468 0.949 . S
H1464 C1470 0.950 . S
H1465 C1471 0.950 . S
H1466 C1472 0.949 . S
C1467 H1462 0.950 . S
C1467 C1469 1.327 . S
C1467 C1473 1.429 . S
C1468 C1460 1.574 . S
C1468 H1463 0.949 . S
C1468 C1474 1.368 . S
C1469 C1453 1.349 . S
C1469 H1461 0.950 . S
C1469 C1467 1.327 . S
C1470 C1458 1.349 . S
C1470 H1464 0.950 . S
C1470 C1471 1.327 . S
C1471 H1465 0.950 . S
C1471 C1470 1.327 . S
C1471 C1475 1.429 . S
C1472 C1455 1.574 . S
C1472 H1466 0.949 . S
C1472 C1476 1.368 . S
C1473 C1454 1.429 . S
C1473 C1467 1.429 . S
C1473 C1474 1.523 . S
C1474 C1455 1.368 . S
C1474 C1468 1.368 . S
C1474 C1473 1.523 . S
C1475 C1459 1.429 . S
C1475 C1471 1.429 . S
C1475 C1476 1.523 . S
C1476 C1460 1.368 . S
C1476 C1472 1.368 . S
C1476 C1475 1.523 . S
H1477 C1452 0.950 . S
H1478 C1454 0.950 . S
H1479 C1455 0.949 . S
H1480 C1457 0.950 . S
H1481 C1459 0.950 . S
C1482 C1483 1.349 . S
C1482 C1484 1.327 . S
C1482 H1507 0.950 . S
C1483 C1482 1.349 . S
C1483 C1499 1.349 . S
C1484 C1482 1.327 . S
C1484 C1503 1.429 . S
C1484 H1508 0.950 . S
C1485 C1502 1.574 . S
C1485 C1504 1.368 . S
C1485 H1509 0.949 . S
H1486 C1490 0.949 . S
C1487 C1488 1.349 . S
C1487 C1489 1.327 . S
C1487 H1510 0.950 . S
C1488 C1487 1.349 . S
C1488 C1500 1.349 . S
C1489 C1487 1.327 . S
C1489 C1505 1.429 . S
C1489 H1511 0.950 . S
C1490 H1486 0.949 . S
C1490 C1498 1.574 . S
C1490 C1506 1.368 . S
H1491 C1499 0.950 . S
H1492 C1497 0.950 . S
H1493 C1498 0.949 . S
H1494 C1500 0.950 . S
H1495 C1501 0.950 . S
H1496 C1502 0.949 . S
C1497 H1492 0.950 . S
C1497 C1499 1.327 . S
C1497 C1503 1.429 . S
C1498 C1490 1.574 . S
C1498 H1493 0.949 . S
C1498 C1504 1.368 . S
C1499 C1483 1.349 . S
C1499 H1491 0.950 . S
C1499 C1497 1.327 . S
C1500 C1488 1.349 . S
C1500 H1494 0.950 . S
C1500 C1501 1.327 . S
C1501 H1495 0.950 . S
C1501 C1500 1.327 . S
C1501 C1505 1.429 . S
C1502 C1485 1.574 . S
C1502 H1496 0.949 . S
C1502 C1506 1.368 . S
C1503 C1484 1.429 . S
C1503 C1497 1.429 . S
C1503 C1504 1.523 . S
C1504 C1485 1.368 . S
C1504 C1498 1.368 . S
C1504 C1503 1.523 . S
C1505 C1489 1.429 . S
C1505 C1501 1.429 . S
C1505 C1506 1.523 . S
C1506 C1490 1.368 . S
C1506 C1502 1.368 . S
C1506 C1505 1.523 . S
H1507 C1482 0.950 . S
H1508 C1484 0.950 . S
H1509 C1485 0.949 . S
H1510 C1487 0.950 . S
H1511 C1489 0.950 . S
C1512 C1513 1.349 . S
C1512 C1514 1.327 . S
C1512 H1537 0.950 . S
C1513 C1512 1.349 . S
C1513 C1529 1.349 1_455 S
C1514 C1512 1.327 . S
C1514 C1533 1.429 . S
C1514 H1538 0.950 . S
C1515 C1532 1.574 . S
C1515 C1534 1.368 1_655 S
C1515 H1539 0.949 . S
H1516 C1520 0.949 . S
C1517 C1518 1.349 . S
C1517 C1519 1.330 . S
C1517 H1540 0.950 1_455 S
C1518 C1517 1.349 . S
C1518 C1530 1.349 . S
C1519 C1517 1.330 . S
C1519 C1535 1.444 . S
C1519 H1541 0.931 1_455 S
C1520 H1516 0.949 . S
C1520 C1528 1.574 . S
C1520 C1536 1.368 . S
H1521 C1529 0.950 . S
H1522 C1527 0.950 . S
H1523 C1528 0.949 . S
H1524 C1530 0.950 . S
H1525 C1531 0.950 . S
H1526 C1532 0.949 . S
C1527 H1522 0.950 . S
C1527 C1529 1.327 . S
C1527 C1533 1.429 1_655 S
C1528 C1520 1.574 . S
C1528 H1523 0.949 . S
C1528 C1534 1.368 . S
C1529 C1513 1.349 1_655 S
C1529 H1521 0.950 . S
C1529 C1527 1.327 . S
C1530 C1518 1.349 . S
C1530 H1524 0.950 . S
C1530 C1531 1.327 . S
C1531 H1525 0.950 . S
C1531 C1530 1.327 . S
C1531 C1535 1.429 . S
C1532 C1515 1.574 . S
C1532 H1526 0.949 . S
C1532 C1536 1.368 1_655 S
C1533 C1514 1.429 . S
C1533 C1527 1.429 1_455 S
C1533 C1534 1.523 . S
C1534 C1515 1.368 1_455 S
C1534 C1528 1.368 . S
C1534 C1533 1.523 . S
C1535 C1519 1.444 . S
C1535 C1531 1.429 . S
C1535 C1536 1.523 . S
C1536 C1520 1.368 . S
C1536 C1532 1.368 1_455 S
C1536 C1535 1.523 . S
H1537 C1512 0.950 . S
H1538 C1514 0.950 . S
H1539 C1515 0.949 . S
H1540 C1517 0.950 1_655 S
H1541 C1519 0.931 1_655 S
C1542 C1543 1.349 . S
C1542 C1544 1.327 . S
C1542 H1567 0.950 . S
C1543 C1542 1.349 . S
C1543 C1559 1.349 . S
C1544 C1542 1.327 . S
C1544 C1563 1.429 . S
C1544 H1568 0.950 . S
C1545 C1562 1.574 . S
C1545 C1564 1.368 . S
C1545 H1569 0.949 . S
H1546 C1550 0.949 . S
C1547 C1548 1.349 . S
C1547 C1549 1.327 . S
C1547 H1570 0.950 . S
C1548 C1547 1.349 . S
C1548 C1560 1.349 . S
C1549 C1547 1.327 . S
C1549 C1565 1.429 . S
C1549 H1571 0.950 . S
C1550 H1546 0.949 . S
C1550 C1558 1.574 . S
C1550 C1566 1.368 . S
H1551 C1559 0.950 . S
H1552 C1557 0.950 . S
H1553 C1558 0.949 . S
H1554 C1560 0.950 . S
H1555 C1561 0.950 . S
H1556 C1562 0.949 . S
C1557 H1552 0.950 . S
C1557 C1559 1.327 . S
C1557 C1563 1.429 . S
C1558 C1550 1.574 . S
C1558 H1553 0.949 . S
C1558 C1564 1.368 . S
C1559 C1543 1.349 . S
C1559 H1551 0.950 . S
C1559 C1557 1.327 . S
C1560 C1548 1.349 . S
C1560 H1554 0.950 . S
C1560 C1561 1.327 . S
C1561 H1555 0.950 . S
C1561 C1560 1.327 . S
C1561 C1565 1.429 . S
C1562 C1545 1.574 . S
C1562 H1556 0.949 . S
C1562 C1566 1.368 . S
C1563 C1544 1.429 . S
C1563 C1557 1.429 . S
C1563 C1564 1.523 . S
C1564 C1545 1.368 . S
C1564 C1558 1.368 . S
C1564 C1563 1.523 . S
C1565 C1549 1.429 . S
C1565 C1561 1.429 . S
C1565 C1566 1.523 . S
C1566 C1550 1.368 . S
C1566 C1562 1.368 . S
C1566 C1565 1.523 . S
H1567 C1542 0.950 . S
H1568 C1544 0.950 . S
H1569 C1545 0.949 . S
H1570 C1547 0.950 . S
H1571 C1549 0.950 . S
C1572 C1573 1.349 . S
C1572 C1574 1.327 . S
C1572 H1597 0.950 . S
C1573 C1572 1.349 . S
C1573 C1589 1.349 . S
C1574 C1572 1.327 . S
C1574 C1593 1.429 . S
C1574 H1598 0.950 . S
C1575 C1592 1.574 . S
C1575 C1594 1.368 . S
C1575 H1599 0.949 . S
H1576 C1580 0.949 . S
C1577 C1578 1.349 . S
C1577 C1579 1.327 . S
C1577 H1600 0.950 . S
C1578 C1577 1.349 . S
C1578 C1590 1.349 . S
C1579 C1577 1.327 . S
C1579 C1595 1.429 . S
C1579 H1601 0.950 . S
C1580 H1576 0.949 . S
C1580 C1588 1.574 . S
C1580 C1596 1.368 . S
H1581 C1589 0.950 . S
H1582 C1587 0.950 . S
H1583 C1588 0.949 . S
H1584 C1590 0.950 . S
H1585 C1591 0.950 . S
H1586 C1592 0.949 . S
C1587 H1582 0.950 . S
C1587 C1589 1.327 . S
C1587 C1593 1.429 . S
C1588 C1580 1.574 . S
C1588 H1583 0.949 . S
C1588 C1594 1.368 . S
C1589 C1573 1.349 . S
C1589 H1581 0.950 . S
C1589 C1587 1.327 . S
C1590 C1578 1.349 . S
C1590 H1584 0.950 . S
C1590 C1591 1.327 . S
C1591 H1585 0.950 . S
C1591 C1590 1.327 . S
C1591 C1595 1.429 . S
C1592 C1575 1.574 . S
C1592 H1586 0.949 . S
C1592 C1596 1.368 . S
C1593 C1574 1.429 . S
C1593 C1587 1.429 . S
C1593 C1594 1.523 . S
C1594 C1575 1.368 . S
C1594 C1588 1.368 . S
C1594 C1593 1.523 . S
C1595 C1579 1.429 . S
C1595 C1591 1.429 . S
C1595 C1596 1.523 . S
C1596 C1580 1.368 . S
C1596 C1592 1.368 . S
C1596 C1595 1.523 . S
H1597 C1572 0.950 . S
H1598 C1574 0.950 . S
H1599 C1575 0.949 . S
H1600 C1577 0.950 . S
H1601 C1579 0.950 . S
C1602 C1603 1.349 . S
C1602 C1604 1.327 . S
C1602 H1627 0.950 . S
C1603 C1602 1.349 . S
C1603 C1619 1.349 . S
C1604 C1602 1.327 . S
C1604 C1623 1.429 . S
C1604 H1628 0.950 . S
C1605 C1622 1.574 . S
C1605 C1624 1.368 . S
C1605 H1629 0.949 . S
H1606 C1610 0.949 . S
C1607 C1608 1.349 . S
C1607 C1609 1.327 . S
C1607 H1630 0.950 . S
C1608 C1607 1.349 . S
C1608 C1620 1.349 . S
C1609 C1607 1.327 . S
C1609 C1625 1.429 . S
C1609 H1631 0.950 . S
C1610 H1606 0.949 . S
C1610 C1618 1.574 . S
C1610 C1626 1.368 . S
H1611 C1619 0.950 . S
H1612 C1617 0.950 . S
H1613 C1618 0.949 . S
H1614 C1620 0.950 . S
H1615 C1621 0.950 . S
H1616 C1622 0.949 . S
C1617 H1612 0.950 . S
C1617 C1619 1.327 . S
C1617 C1623 1.429 . S
C1618 C1610 1.574 . S
C1618 H1613 0.949 . S
C1618 C1624 1.368 . S
C1619 C1603 1.349 . S
C1619 H1611 0.950 . S
C1619 C1617 1.327 . S
C1620 C1608 1.349 . S
C1620 H1614 0.950 . S
C1620 C1621 1.327 . S
C1621 H1615 0.950 . S
C1621 C1620 1.327 . S
C1621 C1625 1.429 . S
C1622 C1605 1.574 . S
C1622 H1616 0.949 . S
C1622 C1626 1.368 . S
C1623 C1604 1.429 . S
C1623 C1617 1.429 . S
C1623 C1624 1.523 . S
C1624 C1605 1.368 . S
C1624 C1618 1.368 . S
C1624 C1623 1.523 . S
C1625 C1609 1.429 . S
C1625 C1621 1.429 . S
C1625 C1626 1.523 . S
C1626 C1610 1.368 . S
C1626 C1622 1.368 . S
C1626 C1625 1.523 . S
H1627 C1602 0.950 . S
H1628 C1604 0.950 . S
H1629 C1605 0.949 . S
H1630 C1607 0.950 . S
H1631 C1609 0.950 . S
C1632 C1633 1.392 . S
C1632 C1634 1.327 . S
C1632 H1657 0.950 . S
C1633 C1632 1.392 . S
C1633 C1649 1.308 1_545 S
C1634 C1632 1.327 . S
C1634 C1653 1.429 . S
C1634 H1658 0.950 . S
C1635 C1652 1.574 . S
C1635 C1654 1.368 1_565 S
C1635 H1659 0.949 . S
H1636 C1640 0.949 . S
C1637 C1638 1.349 1_565 S
C1637 C1639 1.327 . S
C1637 H1660 0.950 . S
C1638 C1637 1.349 1_545 S
C1638 C1650 1.349 . S
C1639 C1637 1.327 . S
C1639 C1655 1.429 1_565 S
C1639 H1661 0.950 . S
C1640 H1636 0.949 . S
C1640 C1648 1.574 . S
C1640 C1656 1.368 . S
H1641 C1649 0.950 . S
H1642 C1647 0.950 . S
H1643 C1648 0.949 . S
H1644 C1650 0.950 . S
H1645 C1651 0.950 . S
H1646 C1652 0.949 . S
C1647 H1642 0.950 . S
C1647 C1649 1.327 . S
C1647 C1653 1.429 1_565 S
C1648 C1640 1.574 . S
C1648 H1643 0.949 . S
C1648 C1654 1.368 . S
C1649 C1633 1.308 1_565 S
C1649 H1641 0.950 . S
C1649 C1647 1.327 . S
C1650 C1638 1.349 . S
C1650 H1644 0.950 . S
C1650 C1651 1.327 . S
C1651 H1645 0.950 . S
C1651 C1650 1.327 . S
C1651 C1655 1.429 . S
C1652 C1635 1.574 . S
C1652 H1646 0.949 . S
C1652 C1656 1.368 1_565 S
C1653 C1634 1.429 . S
C1653 C1647 1.429 1_545 S
C1653 C1654 1.523 . S
C1654 C1635 1.368 1_545 S
C1654 C1648 1.368 . S
C1654 C1653 1.523 . S
C1655 C1639 1.429 1_545 S
C1655 C1651 1.429 . S
C1655 C1656 1.523 . S
C1656 C1640 1.368 . S
C1656 C1652 1.368 1_545 S
C1656 C1655 1.523 . S
H1657 C1632 0.950 . S
H1658 C1634 0.950 . S
H1659 C1635 0.949 . S
H1660 C1637 0.950 . S
H1661 C1639 0.950 . S
C1662 C1663 1.349 . S
C1662 C1664 1.327 . S
C1662 H1687 0.950 . S
C1663 C1662 1.349 . S
C1663 C1679 1.349 . S
C1664 C1662 1.327 . S
C1664 C1683 1.429 . S
C1664 H1688 0.950 . S
C1665 C1682 1.574 . S
C1665 C1684 1.368 . S
C1665 H1689 0.949 . S
H1666 C1670 0.949 . S
C1667 C1668 1.349 . S
C1667 C1669 1.327 . S
C1667 H1690 0.950 . S
C1668 C1667 1.349 . S
C1668 C1680 1.349 . S
C1669 C1667 1.327 . S
C1669 C1685 1.429 . S
C1669 H1691 0.950 . S
C1670 H1666 0.949 . S
C1670 C1678 1.574 . S
C1670 C1686 1.368 . S
H1671 C1679 0.950 . S
H1672 C1677 0.950 . S
H1673 C1678 0.949 . S
H1674 C1680 0.950 . S
H1675 C1681 0.950 . S
H1676 C1682 0.949 . S
C1677 H1672 0.950 . S
C1677 C1679 1.327 . S
C1677 C1683 1.429 . S
C1678 C1670 1.574 . S
C1678 H1673 0.949 . S
C1678 C1684 1.368 . S
C1679 C1663 1.349 . S
C1679 H1671 0.950 . S
C1679 C1677 1.327 . S
C1680 C1668 1.349 . S
C1680 H1674 0.950 . S
C1680 C1681 1.327 . S
C1681 H1675 0.950 . S
C1681 C1680 1.327 . S
C1681 C1685 1.429 . S
C1682 C1665 1.574 . S
C1682 H1676 0.949 . S
C1682 C1686 1.368 . S
C1683 C1664 1.429 . S
C1683 C1677 1.429 . S
C1683 C1684 1.523 . S
C1684 C1665 1.368 . S
C1684 C1678 1.368 . S
C1684 C1683 1.523 . S
C1685 C1669 1.429 . S
C1685 C1681 1.429 . S
C1685 C1686 1.523 . S
C1686 C1670 1.368 . S
C1686 C1682 1.368 . S
C1686 C1685 1.523 . S
H1687 C1662 0.950 . S
H1688 C1664 0.950 . S
H1689 C1665 0.949 . S
H1690 C1667 0.950 . S
H1691 C1669 0.950 . S
C1692 C1693 1.349 . S
C1692 C1694 1.327 . S
C1692 H1717 0.950 . S
C1693 C1692 1.349 . S
C1693 C1709 1.349 1_545 S
C1694 C1692 1.327 . S
C1694 C1713 1.429 . S
C1694 H1718 0.950 . S
C1695 C1712 1.574 . S
C1695 C1714 1.368 1_565 S
C1695 H1719 0.949 . S
H1696 C1700 0.949 . S
C1697 C1698 1.333 1_565 S
C1697 C1699 1.327 . S
C1697 H1720 0.950 . S
C1698 C1697 1.333 1_545 S
C1698 C1710 1.366 . S
C1699 C1697 1.327 . S
C1699 C1715 1.429 1_565 S
C1699 H1721 0.950 . S
C1700 H1696 0.949 . S
C1700 C1708 1.574 . S
C1700 C1716 1.368 . S
H1701 C1709 0.950 . S
H1702 C1707 0.950 . S
H1703 C1708 0.949 . S
H1704 C1710 0.950 . S
H1705 C1711 0.950 . S
H1706 C1712 0.949 . S
C1707 H1702 0.950 . S
C1707 C1709 1.327 . S
C1707 C1713 1.429 1_565 S
C1708 C1700 1.574 . S
C1708 H1703 0.949 . S
C1708 C1714 1.368 . S
C1709 C1693 1.349 1_565 S
C1709 H1701 0.950 . S
C1709 C1707 1.327 . S
C1710 C1698 1.366 . S
C1710 H1704 0.950 . S
C1710 C1711 1.327 . S
C1711 H1705 0.950 . S
C1711 C1710 1.327 . S
C1711 C1715 1.429 . S
C1712 C1695 1.574 . S
C1712 H1706 0.949 . S
C1712 C1716 1.368 1_565 S
C1713 C1694 1.429 . S
C1713 C1707 1.429 1_545 S
C1713 C1714 1.523 . S
C1714 C1695 1.368 1_545 S
C1714 C1708 1.368 . S
C1714 C1713 1.523 . S
C1715 C1699 1.429 1_545 S
C1715 C1711 1.429 . S
C1715 C1716 1.523 . S
C1716 C1700 1.368 . S
C1716 C1712 1.368 1_545 S
C1716 C1715 1.523 . S
H1717 C1692 0.950 . S
H1718 C1694 0.950 . S
H1719 C1695 0.949 . S
H1720 C1697 0.950 . S
H1721 C1699 0.950 . S
C1722 C1723 1.349 . S
C1722 C1724 1.327 . S
C1722 H1747 0.950 . S
C1723 C1722 1.349 . S
C1723 C1739 1.349 . S
C1724 C1722 1.327 . S
C1724 C1743 1.429 . S
C1724 H1748 0.950 . S
C1725 C1742 1.574 . S
C1725 C1744 1.368 . S
C1725 H1749 0.949 . S
H1726 C1730 0.949 . S
C1727 C1728 1.349 . S
C1727 C1729 1.327 . S
C1727 H1750 0.950 . S
C1728 C1727 1.349 . S
C1728 C1740 1.349 . S
C1729 C1727 1.327 . S
C1729 C1745 1.429 . S
C1729 H1751 0.950 . S
C1730 H1726 0.949 . S
C1730 C1738 1.574 . S
C1730 C1746 1.368 . S
H1731 C1739 0.950 . S
H1732 C1737 0.950 . S
H1733 C1738 0.949 . S
H1734 C1740 0.950 . S
H1735 C1741 0.950 . S
H1736 C1742 0.949 . S
C1737 H1732 0.950 . S
C1737 C1739 1.327 . S
C1737 C1743 1.429 . S
C1738 C1730 1.574 . S
C1738 H1733 0.949 . S
C1738 C1744 1.368 . S
C1739 C1723 1.349 . S
C1739 H1731 0.950 . S
C1739 C1737 1.327 . S
C1740 C1728 1.349 . S
C1740 H1734 0.950 . S
C1740 C1741 1.327 . S
C1741 H1735 0.950 . S
C1741 C1740 1.327 . S
C1741 C1745 1.429 . S
C1742 C1725 1.574 . S
C1742 H1736 0.949 . S
C1742 C1746 1.368 . S
C1743 C1724 1.429 . S
C1743 C1737 1.429 . S
C1743 C1744 1.523 . S
C1744 C1725 1.368 . S
C1744 C1738 1.368 . S
C1744 C1743 1.523 . S
C1745 C1729 1.429 . S
C1745 C1741 1.429 . S
C1745 C1746 1.523 . S
C1746 C1730 1.368 . S
C1746 C1742 1.368 . S
C1746 C1745 1.523 . S
H1747 C1722 0.950 . S
H1748 C1724 0.950 . S
H1749 C1725 0.949 . S
H1750 C1727 0.950 . S
H1751 C1729 0.950 . S
C1752 C1753 1.353 . S
C1752 C1754 1.327 . S
C1752 H1777 0.950 . S
C1753 C1752 1.353 . S
C1753 C1769 1.344 1_545 S
C1754 C1752 1.327 . S
C1754 C1773 1.429 1_545 S
C1754 H1778 0.950 . S
C1755 C1772 1.574 . S
C1755 C1774 1.368 . S
C1755 H1779 0.949 . S
H1756 C1760 0.949 . S
C1757 C1758 1.349 . S
C1757 C1759 1.327 . S
C1757 H1780 0.950 . S
C1758 C1757 1.349 . S
C1758 C1770 1.349 1_565 S
C1759 C1757 1.327 . S
C1759 C1775 1.429 . S
C1759 H1781 0.950 . S
C1760 H1756 0.949 . S
C1760 C1768 1.574 . S
C1760 C1776 1.368 1_545 S
H1761 C1769 0.950 . S
H1762 C1767 0.950 . S
H1763 C1768 0.949 . S
H1764 C1770 0.950 . S
H1765 C1771 0.950 . S
H1766 C1772 0.949 . S
C1767 H1762 0.950 . S
C1767 C1769 1.327 . S
C1767 C1773 1.429 . S
C1768 C1760 1.574 . S
C1768 H1763 0.949 . S
C1768 C1774 1.368 1_545 S
C1769 C1753 1.344 1_565 S
C1769 H1761 0.950 . S
C1769 C1767 1.327 . S
C1770 C1758 1.349 1_545 S
C1770 H1764 0.950 . S
C1770 C1771 1.327 . S
C1771 H1765 0.950 . S
C1771 C1770 1.327 . S
C1771 C1775 1.429 1_545 S
C1772 C1755 1.574 . S
C1772 H1766 0.949 . S
C1772 C1776 1.368 . S
C1773 C1754 1.429 1_565 S
C1773 C1767 1.429 . S
C1773 C1774 1.523 . S
C1774 C1755 1.368 . S
C1774 C1768 1.368 1_565 S
C1774 C1773 1.523 . S
C1775 C1759 1.429 . S
C1775 C1771 1.429 1_565 S
C1775 C1776 1.523 . S
C1776 C1760 1.368 1_565 S
C1776 C1772 1.368 . S
C1776 C1775 1.523 . S
H1777 C1752 0.950 . S
H1778 C1754 0.950 . S
H1779 C1755 0.949 . S
H1780 C1757 0.950 . S
H1781 C1759 0.950 . S
C1782 C1783 1.349 . S
C1782 C1784 1.327 . S
C1782 H1807 0.950 . S
C1783 C1782 1.349 . S
C1783 C1799 1.349 . S
C1784 C1782 1.327 . S
C1784 C1803 1.429 . S
C1784 H1808 0.950 . S
C1785 C1802 1.574 . S
C1785 C1804 1.368 . S
C1785 H1809 0.949 . S
H1786 C1790 0.949 . S
C1787 C1788 1.349 . S
C1787 C1789 1.327 . S
C1787 H1810 0.950 . S
C1788 C1787 1.349 . S
C1788 C1800 1.349 . S
C1789 C1787 1.327 . S
C1789 C1805 1.429 . S
C1789 H1811 0.950 . S
C1790 H1786 0.949 . S
C1790 C1798 1.574 . S
C1790 C1806 1.368 . S
H1791 C1799 0.950 . S
H1792 C1797 0.950 . S
H1793 C1798 0.949 . S
H1794 C1800 0.950 . S
H1795 C1801 0.950 . S
H1796 C1802 0.949 . S
C1797 H1792 0.950 . S
C1797 C1799 1.327 . S
C1797 C1803 1.429 . S
C1798 C1790 1.574 . S
C1798 H1793 0.949 . S
C1798 C1804 1.368 . S
C1799 C1783 1.349 . S
C1799 H1791 0.950 . S
C1799 C1797 1.327 . S
C1800 C1788 1.349 . S
C1800 H1794 0.950 . S
C1800 C1801 1.327 . S
C1801 H1795 0.950 . S
C1801 C1800 1.327 . S
C1801 C1805 1.429 . S
C1802 C1785 1.574 . S
C1802 H1796 0.949 . S
C1802 C1806 1.368 . S
C1803 C1784 1.429 . S
C1803 C1797 1.429 . S
C1803 C1804 1.523 . S
C1804 C1785 1.368 . S
C1804 C1798 1.368 . S
C1804 C1803 1.523 . S
C1805 C1789 1.429 . S
C1805 C1801 1.429 . S
C1805 C1806 1.523 . S
C1806 C1790 1.368 . S
C1806 C1802 1.368 . S
C1806 C1805 1.523 . S
H1807 C1782 0.950 . S
H1808 C1784 0.950 . S
H1809 C1785 0.949 . S
H1810 C1787 0.950 . S
H1811 C1789 0.950 . S
C1812 C1813 1.349 . S
C1812 C1814 1.327 . S
C1812 H1837 0.950 . S
C1813 C1812 1.349 . S
C1813 C1829 1.349 1_545 S
C1814 C1812 1.327 . S
C1814 C1833 1.429 . S
C1814 H1838 0.950 . S
C1815 C1832 1.574 . S
C1815 C1834 1.368 1_565 S
C1815 H1839 0.949 . S
H1816 C1820 0.949 . S
C1817 C1818 1.349 1_565 S
C1817 C1819 1.327 . S
C1817 H1840 0.950 . S
C1818 C1817 1.349 1_545 S
C1818 C1830 1.349 . S
C1819 C1817 1.327 . S
C1819 C1835 1.429 1_565 S
C1819 H1841 0.950 . S
C1820 H1816 0.949 . S
C1820 C1828 1.574 . S
C1820 C1836 1.368 . S
H1821 C1829 0.950 . S
H1822 C1827 0.950 . S
H1823 C1828 0.949 . S
H1824 C1830 0.950 . S
H1825 C1831 0.950 . S
H1826 C1832 0.949 . S
C1827 H1822 0.950 . S
C1827 C1829 1.327 . S
C1827 C1833 1.429 1_565 S
C1828 C1820 1.574 . S
C1828 H1823 0.949 . S
C1828 C1834 1.368 . S
C1829 C1813 1.349 1_565 S
C1829 H1821 0.950 . S
C1829 C1827 1.327 . S
C1830 C1818 1.349 . S
C1830 H1824 0.950 . S
C1830 C1831 1.327 . S
C1831 H1825 0.950 . S
C1831 C1830 1.327 . S
C1831 C1835 1.429 . S
C1832 C1815 1.574 . S
C1832 H1826 0.949 . S
C1832 C1836 1.368 1_565 S
C1833 C1814 1.429 . S
C1833 C1827 1.429 1_545 S
C1833 C1834 1.523 . S
C1834 C1815 1.368 1_545 S
C1834 C1828 1.368 . S
C1834 C1833 1.523 . S
C1835 C1819 1.429 1_545 S
C1835 C1831 1.429 . S
C1835 C1836 1.523 . S
C1836 C1820 1.368 . S
C1836 C1832 1.368 1_545 S
C1836 C1835 1.523 . S
H1837 C1812 0.950 . S
H1838 C1814 0.950 . S
H1839 C1815 0.949 . S
H1840 C1817 0.950 . S
H1841 C1819 0.950 . S
C1842 C1843 1.349 . S
C1842 C1844 1.327 . S
C1842 H1867 0.950 . S
C1843 C1842 1.349 . S
C1843 C1859 1.349 . S
C1844 C1842 1.327 . S
C1844 C1863 1.429 . S
C1844 H1868 0.950 . S
C1845 C1862 1.574 . S
C1845 C1864 1.368 . S
C1845 H1869 0.949 . S
H1846 C1850 0.949 . S
C1847 C1848 1.349 . S
C1847 C1849 1.327 . S
C1847 H1870 0.950 . S
C1848 C1847 1.349 . S
C1848 C1860 1.349 . S
C1849 C1847 1.327 . S
C1849 C1865 1.429 . S
C1849 H1871 0.950 . S
C1850 H1846 0.949 . S
C1850 C1858 1.574 . S
C1850 C1866 1.368 . S
H1851 C1859 0.950 . S
H1852 C1857 0.950 . S
H1853 C1858 0.949 . S
H1854 C1860 0.950 . S
H1855 C1861 0.950 . S
H1856 C1862 0.949 . S
C1857 H1852 0.950 . S
C1857 C1859 1.327 . S
C1857 C1863 1.429 . S
C1858 C1850 1.574 . S
C1858 H1853 0.949 . S
C1858 C1864 1.368 . S
C1859 C1843 1.349 . S
C1859 H1851 0.950 . S
C1859 C1857 1.327 . S
C1860 C1848 1.349 . S
C1860 H1854 0.950 . S
C1860 C1861 1.327 . S
C1861 H1855 0.950 . S
C1861 C1860 1.327 . S
C1861 C1865 1.429 . S
C1862 C1845 1.574 . S
C1862 H1856 0.949 . S
C1862 C1866 1.368 . S
C1863 C1844 1.429 . S
C1863 C1857 1.429 . S
C1863 C1864 1.523 . S
C1864 C1845 1.368 . S
C1864 C1858 1.368 . S
C1864 C1863 1.523 . S
C1865 C1849 1.429 . S
C1865 C1861 1.429 . S
C1865 C1866 1.523 . S
C1866 C1850 1.368 . S
C1866 C1862 1.368 . S
C1866 C1865 1.523 . S
H1867 C1842 0.950 . S
H1868 C1844 0.950 . S
H1869 C1845 0.949 . S
H1870 C1847 0.950 . S
H1871 C1849 0.950 . S
C1872 C1873 1.349 . S
C1872 C1874 1.327 . S
C1872 H1897 0.950 1_554 S
C1873 C1872 1.349 . S
C1873 C1889 1.349 . S
C1874 C1872 1.327 . S
C1874 C1893 1.429 . S
C1874 H1898 0.949 1_554 S
C1875 C1892 1.574 . S
C1875 C1894 1.368 . S
C1875 H1899 0.949 . S
H1876 C1880 0.949 . S
C1877 C1878 1.349 . S
C1877 C1879 1.327 . S
C1877 H1900 0.950 . S
C1878 C1877 1.349 . S
C1878 C1890 1.349 . S
C1879 C1877 1.327 . S
C1879 C1895 1.429 . S
C1879 H1901 0.950 . S
C1880 H1876 0.949 . S
C1880 C1888 1.574 . S
C1880 C1896 1.368 . S
H1881 C1889 0.950 . S
H1882 C1887 0.950 . S
H1883 C1888 0.965 . S
H1884 C1890 0.950 1_545 S
H1885 C1891 0.950 . S
H1886 C1892 0.949 . S
C1887 H1882 0.950 . S
C1887 C1889 1.327 . S
C1887 C1893 1.429 . S
C1888 C1880 1.574 . S
C1888 H1883 0.965 . S
C1888 C1894 1.368 . S
C1889 C1873 1.349 . S
C1889 H1881 0.950 . S
C1889 C1887 1.327 . S
C1890 C1878 1.349 . S
C1890 H1884 0.950 1_565 S
C1890 C1891 1.327 . S
C1891 H1885 0.950 . S
C1891 C1890 1.327 . S
C1891 C1895 1.429 . S
C1892 C1875 1.574 . S
C1892 H1886 0.949 . S
C1892 C1896 1.368 . S
C1893 C1874 1.429 . S
C1893 C1887 1.429 . S
C1893 C1894 1.523 . S
C1894 C1875 1.368 . S
C1894 C1888 1.368 . S
C1894 C1893 1.523 . S
C1895 C1879 1.429 . S
C1895 C1891 1.429 . S
C1895 C1896 1.523 . S
C1896 C1880 1.368 . S
C1896 C1892 1.368 . S
C1896 C1895 1.523 . S
H1897 C1872 0.950 1_556 S
H1898 C1874 0.949 1_556 S
H1899 C1875 0.949 . S
H1900 C1877 0.950 . S
H1901 C1879 0.950 . S
C1902 C1903 1.349 . S
C1902 C1904 1.327 . S
C1902 H1927 0.950 . S
C1903 C1902 1.349 . S
C1903 C1919 1.349 1_554 S
C1904 C1902 1.327 . S
C1904 C1923 1.429 . S
C1904 H1928 0.950 . S
C1905 C1922 1.574 . S
C1905 C1924 1.349 1_556 S
C1905 H1929 0.949 . S
H1906 C1910 0.949 . S
C1907 C1908 1.349 . S
C1907 C1909 1.327 . S
C1907 H1930 0.950 . S
C1908 C1907 1.349 . S
C1908 C1920 1.349 1_556 S
C1909 C1907 1.327 . S
C1909 C1925 1.429 . S
C1909 H1931 0.950 . S
C1910 H1906 0.949 . S
C1910 C1918 1.574 . S
C1910 C1926 1.343 1_554 S
H1911 C1919 0.950 . S
H1912 C1917 0.950 . S
H1913 C1918 0.949 . S
H1914 C1920 0.950 . S
H1915 C1921 0.950 . S
H1916 C1922 0.949 . S
C1917 H1912 0.950 . S
C1917 C1919 1.327 . S
C1917 C1923 1.429 1_556 S
C1918 C1910 1.574 . S
C1918 H1913 0.949 . S
C1918 C1924 1.387 . S
C1919 C1903 1.349 1_556 S
C1919 H1911 0.950 . S
C1919 C1917 1.327 . S
C1920 C1908 1.349 1_554 S
C1920 H1914 0.950 . S
C1920 C1921 1.327 . S
C1921 H1915 0.950 . S
C1921 C1920 1.327 . S
C1921 C1925 1.429 1_554 S
C1922 C1905 1.574 . S
C1922 H1916 0.949 . S
C1922 C1926 1.393 . S
C1923 C1904 1.429 . S
C1923 C1917 1.429 1_554 S
C1923 C1924 1.524 . S
C1924 C1905 1.349 1_554 S
C1924 C1918 1.387 . S
C1924 C1923 1.524 . S
C1925 C1909 1.429 . S
C1925 C1921 1.429 1_556 S
C1925 C1926 1.524 . S
C1926 C1910 1.343 1_556 S
C1926 C1922 1.393 . S
C1926 C1925 1.524 . S
H1927 C1902 0.950 . S
H1928 C1904 0.950 . S
H1929 C1905 0.949 . S
H1930 C1907 0.950 . S
H1931 C1909 0.950 . S
C1932 C1933 1.349 . S
C1932 C1934 1.327 . S
C1932 H1957 0.950 . S
C1933 C1932 1.349 . S
C1933 C1949 1.349 . S
C1934 C1932 1.327 . S
C1934 C1953 1.429 . S
C1934 H1958 0.950 . S
C1935 C1952 1.574 . S
C1935 C1954 1.368 . S
C1935 H1959 0.949 . S
H1936 C1940 0.949 . S
C1937 C1938 1.349 . S
C1937 C1939 1.327 . S
C1937 H1960 0.950 . S
C1938 C1937 1.349 . S
C1938 C1950 1.349 . S
C1939 C1937 1.327 . S
C1939 C1955 1.429 . S
C1939 H1961 0.950 . S
C1940 H1936 0.949 . S
C1940 C1948 1.574 . S
C1940 C1956 1.368 . S
H1941 C1949 0.950 . S
H1942 C1947 0.950 . S
H1943 C1948 0.949 . S
H1944 C1950 0.950 . S
H1945 C1951 0.950 . S
H1946 C1952 0.949 . S
C1947 H1942 0.950 . S
C1947 C1949 1.327 . S
C1947 C1953 1.429 . S
C1948 C1940 1.574 . S
C1948 H1943 0.949 . S
C1948 C1954 1.368 . S
C1949 C1933 1.349 . S
C1949 H1941 0.950 . S
C1949 C1947 1.327 . S
C1950 C1938 1.349 . S
C1950 H1944 0.950 . S
C1950 C1951 1.327 . S
C1951 H1945 0.950 . S
C1951 C1950 1.327 . S
C1951 C1955 1.429 . S
C1952 C1935 1.574 . S
C1952 H1946 0.949 . S
C1952 C1956 1.368 . S
C1953 C1934 1.429 . S
C1953 C1947 1.429 . S
C1953 C1954 1.523 . S
C1954 C1935 1.368 . S
C1954 C1948 1.368 . S
C1954 C1953 1.523 . S
C1955 C1939 1.429 . S
C1955 C1951 1.429 . S
C1955 C1956 1.523 . S
C1956 C1940 1.368 . S
C1956 C1952 1.368 . S
C1956 C1955 1.523 . S
H1957 C1932 0.950 . S
H1958 C1934 0.950 . S
H1959 C1935 0.949 . S
H1960 C1937 0.950 . S
H1961 C1939 0.950 . S
C1962 C1963 1.349 . S
C1962 C1964 1.327 . S
C1962 H1987 0.950 . S
C1963 C1962 1.349 . S
C1963 C1979 1.349 . S
C1964 C1962 1.327 . S
C1964 C1983 1.429 . S
C1964 H1988 0.950 . S
C1965 C1982 1.574 . S
C1965 C1984 1.368 . S
C1965 H1989 0.949 . S
H1966 C1970 0.949 . S
C1967 C1968 1.349 . S
C1967 C1969 1.327 . S
C1967 H1990 0.950 . S
C1968 C1967 1.349 . S
C1968 C1980 1.349 . S
C1969 C1967 1.327 . S
C1969 C1985 1.429 . S
C1969 H1991 0.950 . S
C1970 H1966 0.949 . S
C1970 C1978 1.574 . S
C1970 C1986 1.368 . S
H1971 C1979 0.950 . S
H1972 C1977 0.950 . S
H1973 C1978 0.949 . S
H1974 C1980 0.950 . S
H1975 C1981 0.950 . S
H1976 C1982 0.949 . S
C1977 H1972 0.950 . S
C1977 C1979 1.327 . S
C1977 C1983 1.429 . S
C1978 C1970 1.574 . S
C1978 H1973 0.949 . S
C1978 C1984 1.368 . S
C1979 C1963 1.349 . S
C1979 H1971 0.950 . S
C1979 C1977 1.327 . S
C1980 C1968 1.349 . S
C1980 H1974 0.950 . S
C1980 C1981 1.327 . S
C1981 H1975 0.950 . S
C1981 C1980 1.327 . S
C1981 C1985 1.429 . S
C1982 C1965 1.574 . S
C1982 H1976 0.949 . S
C1982 C1986 1.368 . S
C1983 C1964 1.429 . S
C1983 C1977 1.429 . S
C1983 C1984 1.523 . S
C1984 C1965 1.368 . S
C1984 C1978 1.368 . S
C1984 C1983 1.523 . S
C1985 C1969 1.429 . S
C1985 C1981 1.429 . S
C1985 C1986 1.523 . S
C1986 C1970 1.368 . S
C1986 C1982 1.368 . S
C1986 C1985 1.523 . S
H1987 C1962 0.950 . S
H1988 C1964 0.950 . S
H1989 C1965 0.949 . S
H1990 C1967 0.950 . S
H1991 C1969 0.950 . S
C1992 C1993 1.349 . S
C1992 C1994 1.327 . S
C1992 H2017 0.950 . S
C1993 C1992 1.349 . S
C1993 C2009 1.349 . S
C1994 C1992 1.327 . S
C1994 C2013 1.429 . S
C1994 H2018 0.950 . S
C1995 C2012 1.574 . S
C1995 C2014 1.368 . S
C1995 H2019 0.949 . S
H1996 C2000 0.949 . S
C1997 C1998 1.349 . S
C1997 C1999 1.327 . S
C1997 H2020 0.950 . S
C1998 C1997 1.349 . S
C1998 C2010 1.349 . S
C1999 C1997 1.327 . S
C1999 C2015 1.429 . S
C1999 H2021 0.950 . S
C2000 H1996 0.949 . S
C2000 C2008 1.574 . S
C2000 C2016 1.368 . S
H2001 C2009 0.950 . S
H2002 C2007 0.950 . S
H2003 C2008 0.949 . S
H2004 C2010 0.950 . S
H2005 C2011 0.950 . S
H2006 C2012 0.949 . S
C2007 H2002 0.950 . S
C2007 C2009 1.327 . S
C2007 C2013 1.429 . S
C2008 C2000 1.574 . S
C2008 H2003 0.949 . S
C2008 C2014 1.368 . S
C2009 C1993 1.349 . S
C2009 H2001 0.950 . S
C2009 C2007 1.327 . S
C2010 C1998 1.349 . S
C2010 H2004 0.950 . S
C2010 C2011 1.327 . S
C2011 H2005 0.950 . S
C2011 C2010 1.327 . S
C2011 C2015 1.429 . S
C2012 C1995 1.574 . S
C2012 H2006 0.949 . S
C2012 C2016 1.368 . S
C2013 C1994 1.429 . S
C2013 C2007 1.429 . S
C2013 C2014 1.523 . S
C2014 C1995 1.368 . S
C2014 C2008 1.368 . S
C2014 C2013 1.523 . S
C2015 C1999 1.429 . S
C2015 C2011 1.429 . S
C2015 C2016 1.523 . S
C2016 C2000 1.368 . S
C2016 C2012 1.368 . S
C2016 C2015 1.523 . S
H2017 C1992 0.950 . S
H2018 C1994 0.950 . S
H2019 C1995 0.949 . S
H2020 C1997 0.950 . S
H2021 C1999 0.950 . S
C2022 C2023 1.349 . S
C2022 C2024 1.327 . S
C2022 H2047 0.950 . S
C2023 C2022 1.349 . S
C2023 C2039 1.349 . S
C2024 C2022 1.327 . S
C2024 C2043 1.429 . S
C2024 H2048 0.950 . S
C2025 C2042 1.574 . S
C2025 C2044 1.368 . S
C2025 H2049 0.949 . S
H2026 C2030 0.949 . S
C2027 C2028 1.349 . S
C2027 C2029 1.327 . S
C2027 H2050 0.950 . S
C2028 C2027 1.349 . S
C2028 C2040 1.349 . S
C2029 C2027 1.327 . S
C2029 C2045 1.429 . S
C2029 H2051 0.950 . S
C2030 H2026 0.949 . S
C2030 C2038 1.574 . S
C2030 C2046 1.368 . S
H2031 C2039 0.950 . S
H2032 C2037 0.950 . S
H2033 C2038 0.949 . S
H2034 C2040 0.950 . S
H2035 C2041 0.950 . S
H2036 C2042 0.949 . S
C2037 H2032 0.950 . S
C2037 C2039 1.327 . S
C2037 C2043 1.429 . S
C2038 C2030 1.574 . S
C2038 H2033 0.949 . S
C2038 C2044 1.368 . S
C2039 C2023 1.349 . S
C2039 H2031 0.950 . S
C2039 C2037 1.327 . S
C2040 C2028 1.349 . S
C2040 H2034 0.950 . S
C2040 C2041 1.327 . S
C2041 H2035 0.950 . S
C2041 C2040 1.327 . S
C2041 C2045 1.429 . S
C2042 C2025 1.574 . S
C2042 H2036 0.949 . S
C2042 C2046 1.368 . S
C2043 C2024 1.429 . S
C2043 C2037 1.429 . S
C2043 C2044 1.523 . S
C2044 C2025 1.368 . S
C2044 C2038 1.368 . S
C2044 C2043 1.523 . S
C2045 C2029 1.429 . S
C2045 C2041 1.429 . S
C2045 C2046 1.523 . S
C2046 C2030 1.368 . S
C2046 C2042 1.368 . S
C2046 C2045 1.523 . S
H2047 C2022 0.950 . S
H2048 C2024 0.950 . S
H2049 C2025 0.949 . S
H2050 C2027 0.950 . S
H2051 C2029 0.950 . S
C2052 C2053 1.349 . S
C2052 C2054 1.327 . S
C2052 H2077 0.950 . S
C2053 C2052 1.349 . S
C2053 C2069 1.349 . S
C2054 C2052 1.327 . S
C2054 C2073 1.429 . S
C2054 H2078 0.950 . S
C2055 C2072 1.574 . S
C2055 C2074 1.368 . S
C2055 H2079 0.949 . S
H2056 C2060 0.949 . S
C2057 C2058 1.349 . S
C2057 C2059 1.327 . S
C2057 H2080 0.950 . S
C2058 C2057 1.349 . S
C2058 C2070 1.349 . S
C2059 C2057 1.327 . S
C2059 C2075 1.429 . S
C2059 H2081 0.950 . S
C2060 H2056 0.949 . S
C2060 C2068 1.574 . S
C2060 C2076 1.368 . S
H2061 C2069 0.950 . S
H2062 C2067 0.950 . S
H2063 C2068 0.949 . S
H2064 C2070 0.950 . S
H2065 C2071 0.950 . S
H2066 C2072 0.949 . S
C2067 H2062 0.950 . S
C2067 C2069 1.327 . S
C2067 C2073 1.429 . S
C2068 C2060 1.574 . S
C2068 H2063 0.949 . S
C2068 C2074 1.368 . S
C2069 C2053 1.349 . S
C2069 H2061 0.950 . S
C2069 C2067 1.327 . S
C2070 C2058 1.349 . S
C2070 H2064 0.950 . S
C2070 C2071 1.327 . S
C2071 H2065 0.950 . S
C2071 C2070 1.327 . S
C2071 C2075 1.429 . S
C2072 C2055 1.574 . S
C2072 H2066 0.949 . S
C2072 C2076 1.368 . S
C2073 C2054 1.429 . S
C2073 C2067 1.429 . S
C2073 C2074 1.523 . S
C2074 C2055 1.368 . S
C2074 C2068 1.368 . S
C2074 C2073 1.523 . S
C2075 C2059 1.429 . S
C2075 C2071 1.429 . S
C2075 C2076 1.523 . S
C2076 C2060 1.368 . S
C2076 C2072 1.368 . S
C2076 C2075 1.523 . S
H2077 C2052 0.950 . S
H2078 C2054 0.950 . S
H2079 C2055 0.949 . S
H2080 C2057 0.950 . S
H2081 C2059 0.950 . S
C2082 C2083 1.349 . S
C2082 C2084 1.327 . S
C2082 H2107 0.950 . S
C2083 C2082 1.349 . S
C2083 C2099 1.349 . S
C2084 C2082 1.327 . S
C2084 C2103 1.429 . S
C2084 H2108 0.950 . S
C2085 C2102 1.574 . S
C2085 C2104 1.368 . S
C2085 H2109 0.949 . S
H2086 C2090 0.949 . S
C2087 C2088 1.349 . S
C2087 C2089 1.327 . S
C2087 H2110 0.950 . S
C2088 C2087 1.349 . S
C2088 C2100 1.349 . S
C2089 C2087 1.327 . S
C2089 C2105 1.429 . S
C2089 H2111 0.950 . S
C2090 H2086 0.949 . S
C2090 C2098 1.574 . S
C2090 C2106 1.368 . S
H2091 C2099 0.950 . S
H2092 C2097 0.950 . S
H2093 C2098 0.949 . S
H2094 C2100 0.950 . S
H2095 C2101 0.950 . S
H2096 C2102 0.949 . S
C2097 H2092 0.950 . S
C2097 C2099 1.327 . S
C2097 C2103 1.429 . S
C2098 C2090 1.574 . S
C2098 H2093 0.949 . S
C2098 C2104 1.368 . S
C2099 C2083 1.349 . S
C2099 H2091 0.950 . S
C2099 C2097 1.327 . S
C2100 C2088 1.349 . S
C2100 H2094 0.950 . S
C2100 C2101 1.327 . S
C2101 H2095 0.950 . S
C2101 C2100 1.327 . S
C2101 C2105 1.429 . S
C2102 C2085 1.574 . S
C2102 H2096 0.949 . S
C2102 C2106 1.368 . S
C2103 C2084 1.429 . S
C2103 C2097 1.429 . S
C2103 C2104 1.523 . S
C2104 C2085 1.368 . S
C2104 C2098 1.368 . S
C2104 C2103 1.523 . S
C2105 C2089 1.429 . S
C2105 C2101 1.429 . S
C2105 C2106 1.523 . S
C2106 C2090 1.368 . S
C2106 C2102 1.368 . S
C2106 C2105 1.523 . S
H2107 C2082 0.950 . S
H2108 C2084 0.950 . S
H2109 C2085 0.949 . S
H2110 C2087 0.950 . S
H2111 C2089 0.950 . S
C2112 C2113 1.349 . S
C2112 C2114 1.327 . S
C2112 H2137 0.950 . S
C2113 C2112 1.349 . S
C2113 C2129 1.349 . S
C2114 C2112 1.327 . S
C2114 C2133 1.429 . S
C2114 H2138 0.950 . S
C2115 C2132 1.574 . S
C2115 C2134 1.368 . S
C2115 H2139 0.949 . S
H2116 C2120 0.949 . S
C2117 C2118 1.349 . S
C2117 C2119 1.327 . S
C2117 H2140 0.950 . S
C2118 C2117 1.349 . S
C2118 C2130 1.349 . S
C2119 C2117 1.327 . S
C2119 C2135 1.429 . S
C2119 H2141 0.950 . S
C2120 H2116 0.949 . S
C2120 C2128 1.574 . S
C2120 C2136 1.368 . S
H2121 C2129 0.950 . S
H2122 C2127 0.950 . S
H2123 C2128 0.949 . S
H2124 C2130 0.950 . S
H2125 C2131 0.950 . S
H2126 C2132 0.949 . S
C2127 H2122 0.950 . S
C2127 C2129 1.327 . S
C2127 C2133 1.429 . S
C2128 C2120 1.574 . S
C2128 H2123 0.949 . S
C2128 C2134 1.368 . S
C2129 C2113 1.349 . S
C2129 H2121 0.950 . S
C2129 C2127 1.327 . S
C2130 C2118 1.349 . S
C2130 H2124 0.950 . S
C2130 C2131 1.327 . S
C2131 H2125 0.950 . S
C2131 C2130 1.327 . S
C2131 C2135 1.429 . S
C2132 C2115 1.574 . S
C2132 H2126 0.949 . S
C2132 C2136 1.368 . S
C2133 C2114 1.429 . S
C2133 C2127 1.429 . S
C2133 C2134 1.523 . S
C2134 C2115 1.368 . S
C2134 C2128 1.368 . S
C2134 C2133 1.523 . S
C2135 C2119 1.429 . S
C2135 C2131 1.429 . S
C2135 C2136 1.523 . S
C2136 C2120 1.368 . S
C2136 C2132 1.368 . S
C2136 C2135 1.523 . S
H2137 C2112 0.950 . S
H2138 C2114 0.950 . S
H2139 C2115 0.949 . S
H2140 C2117 0.950 . S
H2141 C2119 0.950 . S
C2142 C2143 1.349 . S
C2142 C2144 1.327 . S
C2142 H2167 0.950 . S
C2143 C2142 1.349 . S
C2143 C2159 1.349 . S
C2144 C2142 1.327 . S
C2144 C2163 1.429 . S
C2144 H2168 0.950 . S
C2145 C2162 1.574 . S
C2145 C2164 1.368 . S
C2145 H2169 0.949 . S
H2146 C2150 0.949 . S
C2147 C2148 1.349 . S
C2147 C2149 1.327 . S
C2147 H2170 0.950 . S
C2148 C2147 1.349 . S
C2148 C2160 1.349 . S
C2149 C2147 1.327 . S
C2149 C2165 1.429 . S
C2149 H2171 0.950 . S
C2150 H2146 0.949 . S
C2150 C2158 1.574 . S
C2150 C2166 1.368 . S
H2151 C2159 0.950 . S
H2152 C2157 0.950 . S
H2153 C2158 0.949 . S
H2154 C2160 0.950 . S
H2155 C2161 0.950 . S
H2156 C2162 0.949 . S
C2157 H2152 0.950 . S
C2157 C2159 1.327 . S
C2157 C2163 1.429 . S
C2158 C2150 1.574 . S
C2158 H2153 0.949 . S
C2158 C2164 1.368 . S
C2159 C2143 1.349 . S
C2159 H2151 0.950 . S
C2159 C2157 1.327 . S
C2160 C2148 1.349 . S
C2160 H2154 0.950 . S
C2160 C2161 1.327 . S
C2161 H2155 0.950 . S
C2161 C2160 1.327 . S
C2161 C2165 1.429 . S
C2162 C2145 1.574 . S
C2162 H2156 0.949 . S
C2162 C2166 1.368 . S
C2163 C2144 1.429 . S
C2163 C2157 1.429 . S
C2163 C2164 1.523 . S
C2164 C2145 1.368 . S
C2164 C2158 1.368 . S
C2164 C2163 1.523 . S
C2165 C2149 1.429 . S
C2165 C2161 1.429 . S
C2165 C2166 1.523 . S
C2166 C2150 1.368 . S
C2166 C2162 1.368 . S
C2166 C2165 1.523 . S
H2167 C2142 0.950 . S
H2168 C2144 0.950 . S
H2169 C2145 0.949 . S
H2170 C2147 0.950 . S
H2171 C2149 0.950 . S
C2172 C2173 1.349 . S
C2172 C2174 1.327 . S
C2172 H2197 0.950 . S
C2173 C2172 1.349 . S
C2173 C2189 1.349 . S
C2174 C2172 1.327 . S
C2174 C2193 1.429 . S
C2174 H2198 0.950 . S
C2175 C2192 1.574 . S
C2175 C2194 1.368 . S
C2175 H2199 0.949 . S
H2176 C2180 0.949 . S
C2177 C2178 1.349 . S
C2177 C2179 1.327 . S
C2177 H2200 0.950 . S
C2178 C2177 1.349 . S
C2178 C2190 1.349 . S
C2179 C2177 1.327 . S
C2179 C2195 1.429 . S
C2179 H2201 0.950 . S
C2180 H2176 0.949 . S
C2180 C2188 1.574 . S
C2180 C2196 1.368 . S
H2181 C2189 0.950 . S
H2182 C2187 0.950 . S
H2183 C2188 0.949 . S
H2184 C2190 0.950 1_556 S
H2185 C2191 0.950 . S
H2186 C2192 0.949 . S
C2187 H2182 0.950 . S
C2187 C2189 1.327 . S
C2187 C2193 1.429 . S
C2188 C2180 1.574 . S
C2188 H2183 0.949 . S
C2188 C2194 1.368 . S
C2189 C2173 1.349 . S
C2189 H2181 0.950 . S
C2189 C2187 1.327 . S
C2190 C2178 1.349 . S
C2190 H2184 0.950 1_554 S
C2190 C2191 1.327 . S
C2191 H2185 0.950 . S
C2191 C2190 1.327 . S
C2191 C2195 1.429 . S
C2192 C2175 1.574 . S
C2192 H2186 0.949 . S
C2192 C2196 1.368 . S
C2193 C2174 1.429 . S
C2193 C2187 1.429 . S
C2193 C2194 1.523 . S
C2194 C2175 1.368 . S
C2194 C2188 1.368 . S
C2194 C2193 1.523 . S
C2195 C2179 1.429 . S
C2195 C2191 1.429 . S
C2195 C2196 1.523 . S
C2196 C2180 1.368 . S
C2196 C2192 1.368 . S
C2196 C2195 1.523 . S
H2197 C2172 0.950 . S
H2198 C2174 0.950 . S
H2199 C2175 0.949 . S
H2200 C2177 0.950 . S
H2201 C2179 0.950 . S
C2202 C2203 1.349 . S
C2202 C2204 1.327 . S
C2202 H2227 0.950 . S
C2203 C2202 1.349 . S
C2203 C2219 1.349 . S
C2204 C2202 1.327 . S
C2204 C2223 1.429 . S
C2204 H2228 0.950 . S
C2205 C2222 1.574 . S
C2205 C2224 1.368 . S
C2205 H2229 0.949 . S
H2206 C2210 0.949 . S
C2207 C2208 1.349 . S
C2207 C2209 1.327 . S
C2207 H2230 0.950 . S
C2208 C2207 1.349 . S
C2208 C2220 1.349 . S
C2209 C2207 1.327 . S
C2209 C2225 1.429 . S
C2209 H2231 0.950 . S
C2210 H2206 0.949 . S
C2210 C2218 1.574 . S
C2210 C2226 1.368 . S
H2211 C2219 0.950 . S
H2212 C2217 0.950 . S
H2213 C2218 0.949 . S
H2214 C2220 0.950 . S
H2215 C2221 0.950 . S
H2216 C2222 0.949 . S
C2217 H2212 0.950 . S
C2217 C2219 1.327 . S
C2217 C2223 1.429 . S
C2218 C2210 1.574 . S
C2218 H2213 0.949 . S
C2218 C2224 1.368 . S
C2219 C2203 1.349 . S
C2219 H2211 0.950 . S
C2219 C2217 1.327 . S
C2220 C2208 1.349 . S
C2220 H2214 0.950 . S
C2220 C2221 1.327 . S
C2221 H2215 0.950 . S
C2221 C2220 1.327 . S
C2221 C2225 1.429 . S
C2222 C2205 1.574 . S
C2222 H2216 0.949 . S
C2222 C2226 1.368 . S
C2223 C2204 1.429 . S
C2223 C2217 1.429 . S
C2223 C2224 1.523 . S
C2224 C2205 1.368 . S
C2224 C2218 1.368 . S
C2224 C2223 1.523 . S
C2225 C2209 1.429 . S
C2225 C2221 1.429 . S
C2225 C2226 1.523 . S
C2226 C2210 1.368 . S
C2226 C2222 1.368 . S
C2226 C2225 1.523 . S
H2227 C2202 0.950 . S
H2228 C2204 0.950 . S
H2229 C2205 0.949 . S
H2230 C2207 0.950 . S
H2231 C2209 0.950 . S
C2232 C2233 1.349 . S
C2232 C2234 1.327 . S
C2232 H2257 0.950 . S
C2233 C2232 1.349 . S
C2233 C2249 1.349 . S
C2234 C2232 1.327 . S
C2234 C2253 1.429 . S
C2234 H2258 0.950 . S
C2235 C2252 1.574 . S
C2235 C2254 1.368 . S
C2235 H2259 0.949 . S
H2236 C2240 0.949 . S
C2237 C2238 1.349 . S
C2237 C2239 1.327 . S
C2237 H2260 0.950 . S
C2238 C2237 1.349 . S
C2238 C2250 1.349 . S
C2239 C2237 1.327 . S
C2239 C2255 1.429 . S
C2239 H2261 0.950 . S
C2240 H2236 0.949 . S
C2240 C2248 1.574 . S
C2240 C2256 1.368 . S
H2241 C2249 0.950 . S
H2242 C2247 0.950 . S
H2243 C2248 0.949 . S
H2244 C2250 0.981 . S
H2245 C2251 0.950 . S
H2246 C2252 0.949 . S
C2247 H2242 0.950 . S
C2247 C2249 1.327 . S
C2247 C2253 1.429 . S
C2248 C2240 1.574 . S
C2248 H2243 0.949 . S
C2248 C2254 1.368 . S
C2249 C2233 1.349 . S
C2249 H2241 0.950 . S
C2249 C2247 1.327 . S
C2250 C2238 1.349 . S
C2250 H2244 0.981 . S
C2250 C2251 1.327 . S
C2251 H2245 0.950 . S
C2251 C2250 1.327 . S
C2251 C2255 1.429 . S
C2252 C2235 1.574 . S
C2252 H2246 0.949 . S
C2252 C2256 1.368 . S
C2253 C2234 1.429 . S
C2253 C2247 1.429 . S
C2253 C2254 1.523 . S
C2254 C2235 1.368 . S
C2254 C2248 1.368 . S
C2254 C2253 1.523 . S
C2255 C2239 1.429 . S
C2255 C2251 1.429 . S
C2255 C2256 1.523 . S
C2256 C2240 1.368 . S
C2256 C2252 1.368 . S
C2256 C2255 1.523 . S
H2257 C2232 0.950 . S
H2258 C2234 0.950 . S
H2259 C2235 0.949 . S
H2260 C2237 0.950 . S
H2261 C2239 0.950 . S
C2262 C2263 1.349 . S
C2262 C2264 1.327 . S
C2262 H2287 0.950 . S
C2263 C2262 1.349 . S
C2263 C2279 1.349 . S
C2264 C2262 1.327 . S
C2264 C2283 1.429 . S
C2264 H2288 0.950 . S
C2265 C2282 1.574 . S
C2265 C2284 1.368 . S
C2265 H2289 0.949 . S
H2266 C2270 0.949 . S
C2267 C2268 1.349 . S
C2267 C2269 1.327 . S
C2267 H2290 0.950 . S
C2268 C2267 1.349 . S
C2268 C2280 1.349 . S
C2269 C2267 1.327 . S
C2269 C2285 1.429 . S
C2269 H2291 0.950 . S
C2270 H2266 0.949 . S
C2270 C2278 1.574 . S
C2270 C2286 1.368 . S
H2271 C2279 0.950 . S
H2272 C2277 0.950 . S
H2273 C2278 0.949 . S
H2274 C2280 0.950 . S
H2275 C2281 0.950 . S
H2276 C2282 0.949 . S
C2277 H2272 0.950 . S
C2277 C2279 1.327 . S
C2277 C2283 1.429 . S
C2278 C2270 1.574 . S
C2278 H2273 0.949 . S
C2278 C2284 1.368 . S
C2279 C2263 1.349 . S
C2279 H2271 0.950 . S
C2279 C2277 1.327 . S
C2280 C2268 1.349 . S
C2280 H2274 0.950 . S
C2280 C2281 1.327 . S
C2281 H2275 0.950 . S
C2281 C2280 1.327 . S
C2281 C2285 1.429 . S
C2282 C2265 1.574 . S
C2282 H2276 0.949 . S
C2282 C2286 1.368 . S
C2283 C2264 1.429 . S
C2283 C2277 1.429 . S
C2283 C2284 1.523 . S
C2284 C2265 1.368 . S
C2284 C2278 1.368 . S
C2284 C2283 1.523 . S
C2285 C2269 1.429 . S
C2285 C2281 1.429 . S
C2285 C2286 1.523 . S
C2286 C2270 1.368 . S
C2286 C2282 1.368 . S
C2286 C2285 1.523 . S
H2287 C2262 0.950 . S
H2288 C2264 0.950 . S
H2289 C2265 0.949 . S
H2290 C2267 0.950 . S
H2291 C2269 0.950 . S
C2292 C2293 1.349 . S
C2292 C2294 1.327 . S
C2292 H2317 0.950 . S
C2293 C2292 1.349 . S
C2293 C2309 1.349 . S
C2294 C2292 1.327 . S
C2294 C2313 1.429 . S
C2294 H2318 0.950 . S
C2295 C2312 1.574 . S
C2295 C2314 1.368 . S
C2295 H2319 0.949 . S
H2296 C2300 0.949 . S
C2297 C2298 1.349 . S
C2297 C2299 1.327 . S
C2297 H2320 0.950 . S
C2298 C2297 1.349 . S
C2298 C2310 1.349 . S
C2299 C2297 1.327 . S
C2299 C2315 1.429 . S
C2299 H2321 0.950 . S
C2300 H2296 0.949 . S
C2300 C2308 1.574 . S
C2300 C2316 1.368 . S
H2301 C2309 0.950 . S
H2302 C2307 0.950 . S
H2303 C2308 0.949 . S
H2304 C2310 0.950 . S
H2305 C2311 0.950 . S
H2306 C2312 0.949 . S
C2307 H2302 0.950 . S
C2307 C2309 1.327 . S
C2307 C2313 1.429 . S
C2308 C2300 1.574 . S
C2308 H2303 0.949 . S
C2308 C2314 1.368 . S
C2309 C2293 1.349 . S
C2309 H2301 0.950 . S
C2309 C2307 1.327 . S
C2310 C2298 1.349 . S
C2310 H2304 0.950 . S
C2310 C2311 1.327 . S
C2311 H2305 0.950 . S
C2311 C2310 1.327 . S
C2311 C2315 1.429 . S
C2312 C2295 1.574 . S
C2312 H2306 0.949 . S
C2312 C2316 1.368 . S
C2313 C2294 1.429 . S
C2313 C2307 1.429 . S
C2313 C2314 1.523 . S
C2314 C2295 1.368 . S
C2314 C2308 1.368 . S
C2314 C2313 1.523 . S
C2315 C2299 1.429 . S
C2315 C2311 1.429 . S
C2315 C2316 1.523 . S
C2316 C2300 1.368 . S
C2316 C2312 1.368 . S
C2316 C2315 1.523 . S
H2317 C2292 0.950 . S
H2318 C2294 0.950 . S
H2319 C2295 0.949 . S
H2320 C2297 0.950 . S
H2321 C2299 0.950 . S
C2322 C2323 1.349 . S
C2322 C2324 1.327 . S
C2322 H2347 0.950 . S
C2323 C2322 1.349 . S
C2323 C2339 1.349 . S
C2324 C2322 1.327 . S
C2324 C2343 1.429 . S
C2324 H2348 0.950 . S
C2325 C2342 1.574 . S
C2325 C2344 1.368 . S
C2325 H2349 0.949 . S
H2326 C2330 0.949 . S
C2327 C2328 1.349 . S
C2327 C2329 1.327 . S
C2327 H2350 0.950 . S
C2328 C2327 1.349 . S
C2328 C2340 1.349 . S
C2329 C2327 1.327 . S
C2329 C2345 1.429 . S
C2329 H2351 0.950 . S
C2330 H2326 0.949 . S
C2330 C2338 1.574 . S
C2330 C2346 1.368 . S
H2331 C2339 0.950 . S
H2332 C2337 0.950 . S
H2333 C2338 0.949 . S
H2334 C2340 0.950 . S
H2335 C2341 0.950 . S
H2336 C2342 0.949 . S
C2337 H2332 0.950 . S
C2337 C2339 1.327 . S
C2337 C2343 1.429 . S
C2338 C2330 1.574 . S
C2338 H2333 0.949 . S
C2338 C2344 1.368 . S
C2339 C2323 1.349 . S
C2339 H2331 0.950 . S
C2339 C2337 1.327 . S
C2340 C2328 1.349 . S
C2340 H2334 0.950 . S
C2340 C2341 1.327 . S
C2341 H2335 0.950 . S
C2341 C2340 1.327 . S
C2341 C2345 1.429 . S
C2342 C2325 1.574 . S
C2342 H2336 0.949 . S
C2342 C2346 1.368 . S
C2343 C2324 1.429 . S
C2343 C2337 1.429 . S
C2343 C2344 1.523 . S
C2344 C2325 1.368 . S
C2344 C2338 1.368 . S
C2344 C2343 1.523 . S
C2345 C2329 1.429 . S
C2345 C2341 1.429 . S
C2345 C2346 1.523 . S
C2346 C2330 1.368 . S
C2346 C2342 1.368 . S
C2346 C2345 1.523 . S
H2347 C2322 0.950 . S
H2348 C2324 0.950 . S
H2349 C2325 0.949 . S
H2350 C2327 0.950 . S
H2351 C2329 0.950 . S
C2352 C2353 1.349 . S
C2352 C2354 1.327 . S
C2352 H2377 0.950 . S
C2353 C2352 1.349 . S
C2353 C2369 1.349 . S
C2354 C2352 1.327 . S
C2354 C2373 1.429 . S
C2354 H2378 0.950 . S
C2355 C2372 1.574 . S
C2355 C2374 1.368 . S
C2355 H2379 0.949 . S
H2356 C2360 0.949 . S
C2357 C2358 1.349 . S
C2357 C2359 1.327 . S
C2357 H2380 0.950 . S
C2358 C2357 1.349 . S
C2358 C2370 1.349 . S
C2359 C2357 1.327 . S
C2359 C2375 1.429 . S
C2359 H2381 0.950 . S
C2360 H2356 0.949 . S
C2360 C2368 1.574 . S
C2360 C2376 1.368 . S
H2361 C2369 0.950 . S
H2362 C2367 0.950 . S
H2363 C2368 0.949 . S
H2364 C2370 0.950 . S
H2365 C2371 0.950 . S
H2366 C2372 0.949 . S
C2367 H2362 0.950 . S
C2367 C2369 1.327 . S
C2367 C2373 1.429 . S
C2368 C2360 1.574 . S
C2368 H2363 0.949 . S
C2368 C2374 1.368 . S
C2369 C2353 1.349 . S
C2369 H2361 0.950 . S
C2369 C2367 1.327 . S
C2370 C2358 1.349 . S
C2370 H2364 0.950 . S
C2370 C2371 1.327 . S
C2371 H2365 0.950 . S
C2371 C2370 1.327 . S
C2371 C2375 1.429 . S
C2372 C2355 1.574 . S
C2372 H2366 0.949 . S
C2372 C2376 1.368 . S
C2373 C2354 1.429 . S
C2373 C2367 1.429 . S
C2373 C2374 1.523 . S
C2374 C2355 1.368 . S
C2374 C2368 1.368 . S
C2374 C2373 1.523 . S
C2375 C2359 1.429 . S
C2375 C2371 1.429 . S
C2375 C2376 1.523 . S
C2376 C2360 1.368 . S
C2376 C2372 1.368 . S
C2376 C2375 1.523 . S
H2377 C2352 0.950 . S
H2378 C2354 0.950 . S
H2379 C2355 0.949 . S
H2380 C2357 0.950 . S
H2381 C2359 0.950 . S
C2382 C2383 1.349 . S
C2382 C2384 1.327 . S
C2382 H2407 0.950 . S
C2383 C2382 1.349 . S
C2383 C2399 1.349 . S
C2384 C2382 1.327 . S
C2384 C2403 1.429 . S
C2384 H2408 0.950 . S
C2385 C2402 1.574 . S
C2385 C2404 1.368 . S
C2385 H2409 0.949 . S
H2386 C2390 0.949 . S
C2387 C2388 1.349 . S
C2387 C2389 1.327 . S
C2387 H2410 0.950 . S
C2388 C2387 1.349 . S
C2388 C2400 1.349 . S
C2389 C2387 1.327 . S
C2389 C2405 1.429 . S
C2389 H2411 0.950 . S
C2390 H2386 0.949 . S
C2390 C2398 1.574 . S
C2390 C2406 1.368 . S
H2391 C2399 0.950 . S
H2392 C2397 0.950 . S
H2393 C2398 0.949 . S
H2394 C2400 0.950 . S
H2395 C2401 0.950 . S
H2396 C2402 0.949 . S
C2397 H2392 0.950 . S
C2397 C2399 1.327 . S
C2397 C2403 1.429 . S
C2398 C2390 1.574 . S
C2398 H2393 0.949 . S
C2398 C2404 1.368 . S
C2399 C2383 1.349 . S
C2399 H2391 0.950 . S
C2399 C2397 1.327 . S
C2400 C2388 1.349 . S
C2400 H2394 0.950 . S
C2400 C2401 1.327 . S
C2401 H2395 0.950 . S
C2401 C2400 1.327 . S
C2401 C2405 1.429 . S
C2402 C2385 1.574 . S
C2402 H2396 0.949 . S
C2402 C2406 1.368 . S
C2403 C2384 1.429 . S
C2403 C2397 1.429 . S
C2403 C2404 1.523 . S
C2404 C2385 1.368 . S
C2404 C2398 1.368 . S
C2404 C2403 1.523 . S
C2405 C2389 1.429 . S
C2405 C2401 1.429 . S
C2405 C2406 1.523 . S
C2406 C2390 1.368 . S
C2406 C2402 1.368 . S
C2406 C2405 1.523 . S
H2407 C2382 0.950 . S
H2408 C2384 0.950 . S
H2409 C2385 0.949 . S
H2410 C2387 0.950 . S
H2411 C2389 0.950 . S
C2412 C2413 1.349 . S
C2412 C2414 1.327 . S
C2412 H2437 0.950 . S
C2413 C2412 1.349 . S
C2413 C2429 1.349 . S
C2414 C2412 1.327 . S
C2414 C2433 1.429 . S
C2414 H2438 0.950 . S
C2415 C2432 1.574 . S
C2415 C2434 1.368 . S
C2415 H2439 0.949 . S
H2416 C2420 0.949 . S
C2417 C2418 1.349 . S
C2417 C2419 1.327 . S
C2417 H2440 0.950 . S
C2418 C2417 1.349 . S
C2418 C2430 1.349 . S
C2419 C2417 1.327 . S
C2419 C2435 1.429 . S
C2419 H2441 0.950 . S
C2420 H2416 0.949 . S
C2420 C2428 1.574 . S
C2420 C2436 1.368 . S
H2421 C2429 0.950 . S
H2422 C2427 0.950 . S
H2423 C2428 0.949 . S
H2424 C2430 0.950 . S
H2425 C2431 0.950 . S
H2426 C2432 0.949 . S
C2427 H2422 0.950 . S
C2427 C2429 1.327 . S
C2427 C2433 1.429 . S
C2428 C2420 1.574 . S
C2428 H2423 0.949 . S
C2428 C2434 1.368 . S
C2429 C2413 1.349 . S
C2429 H2421 0.950 . S
C2429 C2427 1.327 . S
C2430 C2418 1.349 . S
C2430 H2424 0.950 . S
C2430 C2431 1.327 . S
C2431 H2425 0.950 . S
C2431 C2430 1.327 . S
C2431 C2435 1.429 . S
C2432 C2415 1.574 . S
C2432 H2426 0.949 . S
C2432 C2436 1.368 . S
C2433 C2414 1.429 . S
C2433 C2427 1.429 . S
C2433 C2434 1.523 . S
C2434 C2415 1.368 . S
C2434 C2428 1.368 . S
C2434 C2433 1.523 . S
C2435 C2419 1.429 . S
C2435 C2431 1.429 . S
C2435 C2436 1.523 . S
C2436 C2420 1.368 . S
C2436 C2432 1.368 . S
C2436 C2435 1.523 . S
H2437 C2412 0.950 . S
H2438 C2414 0.950 . S
H2439 C2415 0.949 . S
H2440 C2417 0.950 . S
H2441 C2419 0.950 . S
C2442 C2443 1.349 . S
C2442 C2444 1.327 . S
C2442 H2467 0.950 . S
C2443 C2442 1.349 . S
C2443 C2459 1.349 . S
C2444 C2442 1.327 . S
C2444 C2463 1.429 . S
C2444 H2468 0.950 . S
C2445 C2462 1.574 . S
C2445 C2464 1.368 . S
C2445 H2469 0.949 . S
H2446 C2450 0.949 . S
C2447 C2448 1.349 . S
C2447 C2449 1.327 . S
C2447 H2470 0.950 . S
C2448 C2447 1.349 . S
C2448 C2460 1.349 . S
C2449 C2447 1.327 . S
C2449 C2465 1.429 . S
C2449 H2471 0.950 . S
C2450 H2446 0.949 . S
C2450 C2458 1.574 . S
C2450 C2466 1.368 . S
H2451 C2459 0.950 . S
H2452 C2457 0.950 . S
H2453 C2458 0.949 . S
H2454 C2460 0.950 . S
H2455 C2461 0.950 . S
H2456 C2462 0.949 . S
C2457 H2452 0.950 . S
C2457 C2459 1.327 . S
C2457 C2463 1.429 . S
C2458 C2450 1.574 . S
C2458 H2453 0.949 . S
C2458 C2464 1.368 . S
C2459 C2443 1.349 . S
C2459 H2451 0.950 . S
C2459 C2457 1.327 . S
C2460 C2448 1.349 . S
C2460 H2454 0.950 . S
C2460 C2461 1.327 . S
C2461 H2455 0.950 . S
C2461 C2460 1.327 . S
C2461 C2465 1.429 . S
C2462 C2445 1.574 . S
C2462 H2456 0.949 . S
C2462 C2466 1.368 . S
C2463 C2444 1.429 . S
C2463 C2457 1.429 . S
C2463 C2464 1.523 . S
C2464 C2445 1.368 . S
C2464 C2458 1.368 . S
C2464 C2463 1.523 . S
C2465 C2449 1.429 . S
C2465 C2461 1.429 . S
C2465 C2466 1.523 . S
C2466 C2450 1.368 . S
C2466 C2462 1.368 . S
C2466 C2465 1.523 . S
H2467 C2442 0.950 . S
H2468 C2444 0.950 . S
H2469 C2445 0.949 . S
H2470 C2447 0.950 . S
H2471 C2449 0.950 . S
C2472 C2473 1.349 . S
C2472 C2474 1.327 . S
C2472 H2497 0.950 . S
C2473 C2472 1.349 . S
C2473 C2489 1.349 . S
C2474 C2472 1.327 . S
C2474 C2493 1.429 . S
C2474 H2498 0.950 . S
C2475 C2492 1.574 . S
C2475 C2494 1.368 . S
C2475 H2499 0.949 . S
H2476 C2480 0.949 . S
C2477 C2478 1.349 . S
C2477 C2479 1.327 . S
C2477 H2500 0.950 . S
C2478 C2477 1.349 . S
C2478 C2490 1.349 . S
C2479 C2477 1.327 . S
C2479 C2495 1.429 . S
C2479 H2501 0.950 . S
C2480 H2476 0.949 . S
C2480 C2488 1.574 . S
C2480 C2496 1.368 . S
H2481 C2489 0.950 . S
H2482 C2487 0.950 . S
H2483 C2488 0.949 . S
H2484 C2490 0.950 . S
H2485 C2491 0.950 . S
H2486 C2492 0.949 . S
C2487 H2482 0.950 . S
C2487 C2489 1.327 . S
C2487 C2493 1.429 . S
C2488 C2480 1.574 . S
C2488 H2483 0.949 . S
C2488 C2494 1.368 . S
C2489 C2473 1.349 . S
C2489 H2481 0.950 . S
C2489 C2487 1.327 . S
C2490 C2478 1.349 . S
C2490 H2484 0.950 . S
C2490 C2491 1.327 . S
C2491 H2485 0.950 . S
C2491 C2490 1.327 . S
C2491 C2495 1.429 . S
C2492 C2475 1.574 . S
C2492 H2486 0.949 . S
C2492 C2496 1.368 . S
C2493 C2474 1.429 . S
C2493 C2487 1.429 . S
C2493 C2494 1.523 . S
C2494 C2475 1.368 . S
C2494 C2488 1.368 . S
C2494 C2493 1.523 . S
C2495 C2479 1.429 . S
C2495 C2491 1.429 . S
C2495 C2496 1.523 . S
C2496 C2480 1.368 . S
C2496 C2492 1.368 . S
C2496 C2495 1.523 . S
H2497 C2472 0.950 . S
H2498 C2474 0.950 . S
H2499 C2475 0.949 . S
H2500 C2477 0.950 . S
H2501 C2479 0.950 . S
C2502 C2503 1.349 . S
C2502 C2504 1.327 . S
C2502 H2527 0.950 . S
C2503 C2502 1.349 . S
C2503 C2519 1.349 . S
C2504 C2502 1.327 . S
C2504 C2523 1.429 . S
C2504 H2528 0.950 . S
C2505 C2522 1.574 . S
C2505 C2524 1.368 . S
C2505 H2529 0.949 . S
H2506 C2510 0.949 . S
C2507 C2508 1.349 . S
C2507 C2509 1.327 . S
C2507 H2530 0.950 . S
C2508 C2507 1.349 . S
C2508 C2520 1.349 . S
C2509 C2507 1.327 . S
C2509 C2525 1.429 . S
C2509 H2531 0.950 . S
C2510 H2506 0.949 . S
C2510 C2518 1.574 . S
C2510 C2526 1.368 . S
H2511 C2519 0.950 . S
H2512 C2517 0.950 . S
H2513 C2518 0.949 . S
H2514 C2520 0.950 . S
H2515 C2521 0.950 . S
H2516 C2522 0.949 . S
C2517 H2512 0.950 . S
C2517 C2519 1.327 . S
C2517 C2523 1.429 . S
C2518 C2510 1.574 . S
C2518 H2513 0.949 . S
C2518 C2524 1.368 . S
C2519 C2503 1.349 . S
C2519 H2511 0.950 . S
C2519 C2517 1.327 . S
C2520 C2508 1.349 . S
C2520 H2514 0.950 . S
C2520 C2521 1.327 . S
C2521 H2515 0.950 . S
C2521 C2520 1.327 . S
C2521 C2525 1.429 . S
C2522 C2505 1.574 . S
C2522 H2516 0.949 . S
C2522 C2526 1.368 . S
C2523 C2504 1.429 . S
C2523 C2517 1.429 . S
C2523 C2524 1.523 . S
C2524 C2505 1.368 . S
C2524 C2518 1.368 . S
C2524 C2523 1.523 . S
C2525 C2509 1.429 . S
C2525 C2521 1.429 . S
C2525 C2526 1.523 . S
C2526 C2510 1.368 . S
C2526 C2522 1.368 . S
C2526 C2525 1.523 . S
H2527 C2502 0.950 . S
H2528 C2504 0.950 . S
H2529 C2505 0.949 . S
H2530 C2507 0.950 . S
H2531 C2509 0.950 . S
C2532 C2533 1.349 . S
C2532 C2534 1.327 . S
C2532 H2557 0.950 . S
C2533 C2532 1.349 . S
C2533 C2549 1.349 . S
C2534 C2532 1.327 . S
C2534 C2553 1.429 . S
C2534 H2558 0.950 . S
C2535 C2552 1.574 . S
C2535 C2554 1.368 . S
C2535 H2559 0.949 . S
H2536 C2540 0.949 . S
C2537 C2538 1.349 . S
C2537 C2539 1.327 . S
C2537 H2560 0.950 . S
C2538 C2537 1.349 . S
C2538 C2550 1.349 . S
C2539 C2537 1.327 . S
C2539 C2555 1.429 . S
C2539 H2561 0.950 . S
C2540 H2536 0.949 . S
C2540 C2548 1.574 . S
C2540 C2556 1.368 . S
H2541 C2549 0.950 . S
H2542 C2547 0.950 . S
H2543 C2548 0.949 . S
H2544 C2550 0.950 . S
H2545 C2551 0.950 . S
H2546 C2552 0.949 . S
C2547 H2542 0.950 . S
C2547 C2549 1.327 . S
C2547 C2553 1.429 . S
C2548 C2540 1.574 . S
C2548 H2543 0.949 . S
C2548 C2554 1.368 . S
C2549 C2533 1.349 . S
C2549 H2541 0.950 . S
C2549 C2547 1.327 . S
C2550 C2538 1.349 . S
C2550 H2544 0.950 . S
C2550 C2551 1.327 . S
C2551 H2545 0.950 . S
C2551 C2550 1.327 . S
C2551 C2555 1.429 . S
C2552 C2535 1.574 . S
C2552 H2546 0.949 . S
C2552 C2556 1.368 . S
C2553 C2534 1.429 . S
C2553 C2547 1.429 . S
C2553 C2554 1.523 . S
C2554 C2535 1.368 . S
C2554 C2548 1.368 . S
C2554 C2553 1.523 . S
C2555 C2539 1.429 . S
C2555 C2551 1.429 . S
C2555 C2556 1.523 . S
C2556 C2540 1.368 . S
C2556 C2552 1.368 . S
C2556 C2555 1.523 . S
H2557 C2532 0.950 . S
H2558 C2534 0.950 . S
H2559 C2535 0.949 . S
H2560 C2537 0.950 . S
H2561 C2539 0.950 . S
C2562 C2563 1.349 . S
C2562 C2564 1.327 . S
C2562 H2587 0.950 . S
C2563 C2562 1.349 . S
C2563 C2579 1.349 . S
C2564 C2562 1.327 . S
C2564 C2583 1.429 . S
C2564 H2588 0.950 . S
C2565 C2582 1.574 . S
C2565 C2584 1.368 . S
C2565 H2589 0.949 . S
H2566 C2570 0.949 . S
C2567 C2568 1.349 . S
C2567 C2569 1.327 . S
C2567 H2590 0.950 . S
C2568 C2567 1.349 . S
C2568 C2580 1.349 . S
C2569 C2567 1.327 . S
C2569 C2585 1.429 . S
C2569 H2591 0.950 . S
C2570 H2566 0.949 . S
C2570 C2578 1.574 . S
C2570 C2586 1.368 . S
H2571 C2579 0.950 . S
H2572 C2577 0.950 . S
H2573 C2578 0.949 . S
H2574 C2580 0.950 . S
H2575 C2581 0.950 . S
H2576 C2582 0.949 . S
C2577 H2572 0.950 . S
C2577 C2579 1.327 . S
C2577 C2583 1.429 . S
C2578 C2570 1.574 . S
C2578 H2573 0.949 . S
C2578 C2584 1.368 . S
C2579 C2563 1.349 . S
C2579 H2571 0.950 . S
C2579 C2577 1.327 . S
C2580 C2568 1.349 . S
C2580 H2574 0.950 . S
C2580 C2581 1.327 . S
C2581 H2575 0.950 . S
C2581 C2580 1.327 . S
C2581 C2585 1.429 . S
C2582 C2565 1.574 . S
C2582 H2576 0.949 . S
C2582 C2586 1.368 . S
C2583 C2564 1.429 . S
C2583 C2577 1.429 . S
C2583 C2584 1.523 . S
C2584 C2565 1.368 . S
C2584 C2578 1.368 . S
C2584 C2583 1.523 . S
C2585 C2569 1.429 . S
C2585 C2581 1.429 . S
C2585 C2586 1.523 . S
C2586 C2570 1.368 . S
C2586 C2582 1.368 . S
C2586 C2585 1.523 . S
H2587 C2562 0.950 . S
H2588 C2564 0.950 . S
H2589 C2565 0.949 . S
H2590 C2567 0.950 . S
H2591 C2569 0.950 . S
C2592 C2593 1.349 . S
C2592 C2594 1.327 . S
C2592 H2617 0.950 . S
C2593 C2592 1.349 . S
C2593 C2609 1.349 . S
C2594 C2592 1.327 . S
C2594 C2613 1.429 . S
C2594 H2618 0.950 . S
C2595 C2612 1.574 . S
C2595 C2614 1.368 . S
C2595 H2619 0.949 . S
H2596 C2600 0.949 . S
C2597 C2598 1.349 . S
C2597 C2599 1.327 . S
C2597 H2620 0.950 . S
C2598 C2597 1.349 . S
C2598 C2610 1.349 . S
C2599 C2597 1.327 . S
C2599 C2615 1.429 . S
C2599 H2621 0.950 . S
C2600 H2596 0.949 . S
C2600 C2608 1.574 . S
C2600 C2616 1.368 . S
H2601 C2609 0.950 . S
H2602 C2607 0.950 . S
H2603 C2608 0.949 . S
H2604 C2610 0.950 . S
H2605 C2611 0.950 . S
H2606 C2612 0.949 . S
C2607 H2602 0.950 . S
C2607 C2609 1.327 . S
C2607 C2613 1.429 . S
C2608 C2600 1.574 . S
C2608 H2603 0.949 . S
C2608 C2614 1.368 . S
C2609 C2593 1.349 . S
C2609 H2601 0.950 . S
C2609 C2607 1.327 . S
C2610 C2598 1.349 . S
C2610 H2604 0.950 . S
C2610 C2611 1.327 . S
C2611 H2605 0.950 . S
C2611 C2610 1.327 . S
C2611 C2615 1.429 . S
C2612 C2595 1.574 . S
C2612 H2606 0.949 . S
C2612 C2616 1.368 . S
C2613 C2594 1.429 . S
C2613 C2607 1.429 . S
C2613 C2614 1.523 . S
C2614 C2595 1.368 . S
C2614 C2608 1.368 . S
C2614 C2613 1.523 . S
C2615 C2599 1.429 . S
C2615 C2611 1.429 . S
C2615 C2616 1.523 . S
C2616 C2600 1.368 . S
C2616 C2612 1.368 . S
C2616 C2615 1.523 . S
H2617 C2592 0.950 . S
H2618 C2594 0.950 . S
H2619 C2595 0.949 . S
H2620 C2597 0.950 . S
H2621 C2599 0.950 . S
C2622 C2623 1.349 . S
C2622 C2624 1.327 . S
C2622 H2647 0.950 . S
C2623 C2622 1.349 . S
C2623 C2639 1.349 . S
C2624 C2622 1.327 . S
C2624 C2643 1.429 . S
C2624 H2648 0.950 . S
C2625 C2642 1.574 . S
C2625 C2644 1.368 . S
C2625 H2649 0.949 . S
H2626 C2630 0.949 . S
C2627 C2628 1.349 . S
C2627 C2629 1.327 . S
C2627 H2650 0.950 . S
C2628 C2627 1.349 . S
C2628 C2640 1.349 . S
C2629 C2627 1.327 . S
C2629 C2645 1.429 . S
C2629 H2651 0.950 . S
C2630 H2626 0.949 . S
C2630 C2638 1.574 . S
C2630 C2646 1.368 . S
H2631 C2639 0.950 . S
H2632 C2637 0.950 . S
H2633 C2638 0.949 . S
H2634 C2640 0.950 . S
H2635 C2641 0.950 . S
H2636 C2642 0.949 . S
C2637 H2632 0.950 . S
C2637 C2639 1.327 . S
C2637 C2643 1.429 . S
C2638 C2630 1.574 . S
C2638 H2633 0.949 . S
C2638 C2644 1.368 . S
C2639 C2623 1.349 . S
C2639 H2631 0.950 . S
C2639 C2637 1.327 . S
C2640 C2628 1.349 . S
C2640 H2634 0.950 . S
C2640 C2641 1.327 . S
C2641 H2635 0.950 . S
C2641 C2640 1.327 . S
C2641 C2645 1.429 . S
C2642 C2625 1.574 . S
C2642 H2636 0.949 . S
C2642 C2646 1.368 . S
C2643 C2624 1.429 . S
C2643 C2637 1.429 . S
C2643 C2644 1.523 . S
C2644 C2625 1.368 . S
C2644 C2638 1.368 . S
C2644 C2643 1.523 . S
C2645 C2629 1.429 . S
C2645 C2641 1.429 . S
C2645 C2646 1.523 . S
C2646 C2630 1.368 . S
C2646 C2642 1.368 . S
C2646 C2645 1.523 . S
H2647 C2622 0.950 . S
H2648 C2624 0.950 . S
H2649 C2625 0.949 . S
H2650 C2627 0.950 . S
H2651 C2629 0.950 . S
C2652 C2653 1.349 . S
C2652 C2654 1.327 . S
C2652 H2677 0.950 . S
C2653 C2652 1.349 . S
C2653 C2669 1.349 . S
C2654 C2652 1.327 . S
C2654 C2673 1.429 . S
C2654 H2678 0.950 . S
C2655 C2672 1.574 . S
C2655 C2674 1.368 . S
C2655 H2679 0.949 . S
H2656 C2660 0.949 . S
C2657 C2658 1.349 . S
C2657 C2659 1.327 . S
C2657 H2680 0.950 . S
C2658 C2657 1.349 . S
C2658 C2670 1.349 . S
C2659 C2657 1.327 . S
C2659 C2675 1.429 . S
C2659 H2681 0.950 . S
C2660 H2656 0.949 . S
C2660 C2668 1.574 . S
C2660 C2676 1.368 . S
H2661 C2669 0.950 . S
H2662 C2667 0.950 . S
H2663 C2668 0.949 . S
H2664 C2670 0.950 . S
H2665 C2671 0.950 . S
H2666 C2672 0.949 . S
C2667 H2662 0.950 . S
C2667 C2669 1.327 . S
C2667 C2673 1.429 . S
C2668 C2660 1.574 . S
C2668 H2663 0.949 . S
C2668 C2674 1.368 . S
C2669 C2653 1.349 . S
C2669 H2661 0.950 . S
C2669 C2667 1.327 . S
C2670 C2658 1.349 . S
C2670 H2664 0.950 . S
C2670 C2671 1.327 . S
C2671 H2665 0.950 . S
C2671 C2670 1.327 . S
C2671 C2675 1.429 . S
C2672 C2655 1.574 . S
C2672 H2666 0.949 . S
C2672 C2676 1.368 . S
C2673 C2654 1.429 . S
C2673 C2667 1.429 . S
C2673 C2674 1.523 . S
C2674 C2655 1.368 . S
C2674 C2668 1.368 . S
C2674 C2673 1.523 . S
C2675 C2659 1.429 . S
C2675 C2671 1.429 . S
C2675 C2676 1.523 . S
C2676 C2660 1.368 . S
C2676 C2672 1.368 . S
C2676 C2675 1.523 . S
H2677 C2652 0.950 . S
H2678 C2654 0.950 . S
H2679 C2655 0.949 . S
H2680 C2657 0.950 . S
H2681 C2659 0.950 . S
C2682 C2683 1.349 1_556 S
C2682 C2684 1.327 . S
C2682 H2707 0.950 . S
C2683 C2682 1.349 1_554 S
C2683 C2699 1.349 . S
C2684 C2682 1.327 . S
C2684 C2703 1.429 1_556 S
C2684 H2708 0.950 . S
C2685 C2702 1.574 . S
C2685 C2704 1.368 . S
C2685 H2709 0.949 . S
H2686 C2690 0.949 . S
C2687 C2688 1.349 . S
C2687 C2689 1.327 . S
C2687 H2710 0.950 . S
C2688 C2687 1.349 . S
C2688 C2700 1.349 1_554 S
C2689 C2687 1.327 . S
C2689 C2705 1.429 . S
C2689 H2711 0.950 . S
C2690 H2686 0.949 . S
C2690 C2698 1.574 . S
C2690 C2706 1.368 1_556 S
H2691 C2699 0.950 . S
H2692 C2697 0.950 . S
H2693 C2698 0.949 . S
H2694 C2700 0.950 . S
H2695 C2701 0.950 . S
H2696 C2702 0.949 . S
C2697 H2692 0.950 . S
C2697 C2699 1.327 . S
C2697 C2703 1.429 . S
C2698 C2690 1.574 . S
C2698 H2693 0.949 . S
C2698 C2704 1.368 1_556 S
C2699 C2683 1.349 . S
C2699 H2691 0.950 . S
C2699 C2697 1.327 . S
C2700 C2688 1.349 1_556 S
C2700 H2694 0.950 . S
C2700 C2701 1.327 . S
C2701 H2695 0.950 . S
C2701 C2700 1.327 . S
C2701 C2705 1.429 1_556 S
C2702 C2685 1.574 . S
C2702 H2696 0.949 . S
C2702 C2706 1.368 . S
C2703 C2684 1.429 1_554 S
C2703 C2697 1.429 . S
C2703 C2704 1.523 . S
C2704 C2685 1.368 . S
C2704 C2698 1.368 1_554 S
C2704 C2703 1.523 . S
C2705 C2689 1.429 . S
C2705 C2701 1.429 1_554 S
C2705 C2706 1.523 . S
C2706 C2690 1.368 1_554 S
C2706 C2702 1.368 . S
C2706 C2705 1.523 . S
H2707 C2682 0.950 . S
H2708 C2684 0.950 . S
H2709 C2685 0.949 . S
H2710 C2687 0.950 . S
H2711 C2689 0.950 . S
C2712 C2713 1.349 . S
C2712 C2714 1.327 . S
C2712 H2737 0.950 . S
C2713 C2712 1.349 . S
C2713 C2729 1.349 . S
C2714 C2712 1.327 . S
C2714 C2733 1.429 . S
C2714 H2738 0.950 . S
C2715 C2732 1.574 . S
C2715 C2734 1.368 . S
C2715 H2739 0.949 . S
H2716 C2720 0.949 . S
C2717 C2718 1.349 . S
C2717 C2719 1.327 . S
C2717 H2740 0.950 . S
C2718 C2717 1.349 . S
C2718 C2730 1.349 . S
C2719 C2717 1.327 . S
C2719 C2735 1.429 . S
C2719 H2741 0.950 . S
C2720 H2716 0.949 . S
C2720 C2728 1.574 . S
C2720 C2736 1.368 . S
H2721 C2729 0.950 . S
H2722 C2727 0.950 . S
H2723 C2728 0.949 . S
H2724 C2730 0.950 . S
H2725 C2731 0.950 . S
H2726 C2732 0.949 . S
C2727 H2722 0.950 . S
C2727 C2729 1.327 . S
C2727 C2733 1.429 . S
C2728 C2720 1.574 . S
C2728 H2723 0.949 . S
C2728 C2734 1.368 . S
C2729 C2713 1.349 . S
C2729 H2721 0.950 . S
C2729 C2727 1.327 . S
C2730 C2718 1.349 . S
C2730 H2724 0.950 . S
C2730 C2731 1.327 . S
C2731 H2725 0.950 . S
C2731 C2730 1.327 . S
C2731 C2735 1.429 . S
C2732 C2715 1.574 . S
C2732 H2726 0.949 . S
C2732 C2736 1.368 . S
C2733 C2714 1.429 . S
C2733 C2727 1.429 . S
C2733 C2734 1.523 . S
C2734 C2715 1.368 . S
C2734 C2728 1.368 . S
C2734 C2733 1.523 . S
C2735 C2719 1.429 . S
C2735 C2731 1.429 . S
C2735 C2736 1.523 . S
C2736 C2720 1.368 . S
C2736 C2732 1.368 . S
C2736 C2735 1.523 . S
H2737 C2712 0.950 . S
H2738 C2714 0.950 . S
H2739 C2715 0.949 . S
H2740 C2717 0.950 . S
H2741 C2719 0.950 . S
C2742 C2743 1.349 1_556 S
C2742 C2744 1.327 . S
C2742 H2767 0.950 . S
C2743 C2742 1.349 1_554 S
C2743 C2759 1.349 . S
C2744 C2742 1.327 . S
C2744 C2763 1.429 1_556 S
C2744 H2768 0.950 . S
C2745 C2762 1.574 . S
C2745 C2764 1.368 . S
C2745 H2769 0.949 . S
H2746 C2750 0.949 . S
C2747 C2748 1.349 1_554 S
C2747 C2749 1.327 . S
C2747 H2770 0.950 . S
C2748 C2747 1.349 1_556 S
C2748 C2760 1.349 . S
C2749 C2747 1.327 . S
C2749 C2765 1.392 1_554 S
C2749 H2771 0.950 . S
C2750 H2746 0.949 . S
C2750 C2758 1.574 . S
C2750 C2766 1.373 . S
H2751 C2759 0.950 . S
H2752 C2757 0.950 . S
H2753 C2758 0.949 . S
H2754 C2760 0.950 . S
H2755 C2761 0.950 . S
H2756 C2762 0.949 . S
C2757 H2752 0.950 . S
C2757 C2759 1.327 . S
C2757 C2763 1.429 . S
C2758 C2750 1.574 . S
C2758 H2753 0.949 . S
C2758 C2764 1.368 1_556 S
C2759 C2743 1.349 . S
C2759 H2751 0.950 . S
C2759 C2757 1.327 . S
C2760 C2748 1.349 . S
C2760 H2754 0.950 . S
C2760 C2761 1.327 . S
C2761 H2755 0.950 . S
C2761 C2760 1.327 . S
C2761 C2765 1.468 . S
C2762 C2745 1.574 . S
C2762 H2756 0.949 . S
C2762 C2766 1.363 1_554 S
C2763 C2744 1.429 1_554 S
C2763 C2757 1.429 . S
C2763 C2764 1.523 . S
C2764 C2745 1.368 . S
C2764 C2758 1.368 1_554 S
C2764 C2763 1.523 . S
C2765 C2749 1.392 1_556 S
C2765 C2761 1.468 . S
C2765 C2766 1.522 . S
C2766 C2750 1.373 . S
C2766 C2762 1.363 1_556 S
C2766 C2765 1.522 . S
H2767 C2742 0.950 . S
H2768 C2744 0.950 . S
H2769 C2745 0.949 . S
H2770 C2747 0.950 . S
H2771 C2749 0.950 . S
C2772 C2773 1.349 . S
C2772 C2774 1.327 . S
C2772 H2797 0.950 . S
C2773 C2772 1.349 . S
C2773 C2789 1.349 . S
C2774 C2772 1.327 . S
C2774 C2793 1.429 . S
C2774 H2798 0.950 . S
C2775 C2792 1.574 . S
C2775 C2794 1.368 . S
C2775 H2799 0.949 . S
H2776 C2780 0.949 . S
C2777 C2778 1.349 . S
C2777 C2779 1.327 . S
C2777 H2800 0.950 . S
C2778 C2777 1.349 . S
C2778 C2790 1.349 . S
C2779 C2777 1.327 . S
C2779 C2795 1.429 . S
C2779 H2801 0.950 . S
C2780 H2776 0.949 . S
C2780 C2788 1.574 . S
C2780 C2796 1.368 . S
H2781 C2789 0.950 . S
H2782 C2787 0.950 . S
H2783 C2788 0.949 . S
H2784 C2790 0.950 . S
H2785 C2791 0.950 . S
H2786 C2792 0.949 . S
C2787 H2782 0.950 . S
C2787 C2789 1.327 . S
C2787 C2793 1.429 . S
C2788 C2780 1.574 . S
C2788 H2783 0.949 . S
C2788 C2794 1.368 . S
C2789 C2773 1.349 . S
C2789 H2781 0.950 . S
C2789 C2787 1.327 . S
C2790 C2778 1.349 . S
C2790 H2784 0.950 . S
C2790 C2791 1.327 . S
C2791 H2785 0.950 . S
C2791 C2790 1.327 . S
C2791 C2795 1.429 . S
C2792 C2775 1.574 . S
C2792 H2786 0.949 . S
C2792 C2796 1.368 . S
C2793 C2774 1.429 . S
C2793 C2787 1.429 . S
C2793 C2794 1.523 . S
C2794 C2775 1.368 . S
C2794 C2788 1.368 . S
C2794 C2793 1.523 . S
C2795 C2779 1.429 . S
C2795 C2791 1.429 . S
C2795 C2796 1.523 . S
C2796 C2780 1.368 . S
C2796 C2792 1.368 . S
C2796 C2795 1.523 . S
H2797 C2772 0.950 . S
H2798 C2774 0.950 . S
H2799 C2775 0.949 . S
H2800 C2777 0.950 . S
H2801 C2779 0.950 . S
C2802 C2803 1.349 . S
C2802 C2804 1.327 . S
C2802 H2827 0.950 . S
C2803 C2802 1.349 . S
C2803 C2819 1.349 . S
C2804 C2802 1.327 . S
C2804 C2823 1.429 . S
C2804 H2828 0.950 . S
C2805 C2822 1.574 . S
C2805 C2824 1.368 . S
C2805 H2829 0.949 . S
H2806 C2810 0.949 . S
C2807 C2808 1.349 . S
C2807 C2809 1.327 . S
C2807 H2830 0.950 . S
C2808 C2807 1.349 . S
C2808 C2820 1.349 . S
C2809 C2807 1.327 . S
C2809 C2825 1.429 . S
C2809 H2831 0.950 . S
C2810 H2806 0.949 . S
C2810 C2818 1.574 . S
C2810 C2826 1.368 . S
H2811 C2819 0.950 . S
H2812 C2817 0.950 . S
H2813 C2818 0.949 . S
H2814 C2820 0.950 . S
H2815 C2821 0.950 . S
H2816 C2822 0.949 . S
C2817 H2812 0.950 . S
C2817 C2819 1.327 . S
C2817 C2823 1.429 . S
C2818 C2810 1.574 . S
C2818 H2813 0.949 . S
C2818 C2824 1.368 . S
C2819 C2803 1.349 . S
C2819 H2811 0.950 . S
C2819 C2817 1.327 . S
C2820 C2808 1.349 . S
C2820 H2814 0.950 . S
C2820 C2821 1.327 . S
C2821 H2815 0.950 . S
C2821 C2820 1.327 . S
C2821 C2825 1.429 . S
C2822 C2805 1.574 . S
C2822 H2816 0.949 . S
C2822 C2826 1.368 . S
C2823 C2804 1.429 . S
C2823 C2817 1.429 . S
C2823 C2824 1.523 . S
C2824 C2805 1.368 . S
C2824 C2818 1.368 . S
C2824 C2823 1.523 . S
C2825 C2809 1.429 . S
C2825 C2821 1.429 . S
C2825 C2826 1.523 . S
C2826 C2810 1.368 . S
C2826 C2822 1.368 . S
C2826 C2825 1.523 . S
H2827 C2802 0.950 . S
H2828 C2804 0.950 . S
H2829 C2805 0.949 . S
H2830 C2807 0.950 . S
H2831 C2809 0.950 . S
C2832 C2833 1.349 . S
C2832 C2834 1.327 . S
C2832 H2857 0.950 . S
C2833 C2832 1.349 . S
C2833 C2849 1.349 . S
C2834 C2832 1.327 . S
C2834 C2853 1.429 . S
C2834 H2858 0.950 . S
C2835 C2852 1.574 . S
C2835 C2854 1.368 . S
C2835 H2859 0.949 . S
H2836 C2840 0.949 . S
C2837 C2838 1.349 . S
C2837 C2839 1.327 . S
C2837 H2860 0.950 . S
C2838 C2837 1.349 . S
C2838 C2850 1.349 . S
C2839 C2837 1.327 . S
C2839 C2855 1.429 . S
C2839 H2861 0.950 . S
C2840 H2836 0.949 . S
C2840 C2848 1.574 . S
C2840 C2856 1.368 . S
H2841 C2849 0.950 . S
H2842 C2847 0.950 . S
H2843 C2848 0.949 . S
H2844 C2850 0.950 . S
H2845 C2851 0.950 . S
H2846 C2852 0.949 . S
C2847 H2842 0.950 . S
C2847 C2849 1.327 . S
C2847 C2853 1.429 . S
C2848 C2840 1.574 . S
C2848 H2843 0.949 . S
C2848 C2854 1.368 . S
C2849 C2833 1.349 . S
C2849 H2841 0.950 . S
C2849 C2847 1.327 . S
C2850 C2838 1.349 . S
C2850 H2844 0.950 . S
C2850 C2851 1.327 . S
C2851 H2845 0.950 . S
C2851 C2850 1.327 . S
C2851 C2855 1.429 . S
C2852 C2835 1.574 . S
C2852 H2846 0.949 . S
C2852 C2856 1.368 . S
C2853 C2834 1.429 . S
C2853 C2847 1.429 . S
C2853 C2854 1.523 . S
C2854 C2835 1.368 . S
C2854 C2848 1.368 . S
C2854 C2853 1.523 . S
C2855 C2839 1.429 . S
C2855 C2851 1.429 . S
C2855 C2856 1.523 . S
C2856 C2840 1.368 . S
C2856 C2852 1.368 . S
C2856 C2855 1.523 . S
H2857 C2832 0.950 . S
H2858 C2834 0.950 . S
H2859 C2835 0.949 . S
H2860 C2837 0.950 . S
H2861 C2839 0.950 . S
C2862 C2863 1.349 . S
C2862 C2864 1.327 . S
C2862 H2887 0.950 . S
C2863 C2862 1.349 . S
C2863 C2879 1.349 . S
C2864 C2862 1.327 . S
C2864 C2883 1.429 . S
C2864 H2888 0.950 . S
C2865 C2882 1.574 . S
C2865 C2884 1.368 . S
C2865 H2889 0.949 . S
H2866 C2870 0.949 . S
C2867 C2868 1.349 . S
C2867 C2869 1.327 . S
C2867 H2890 0.950 . S
C2868 C2867 1.349 . S
C2868 C2880 1.349 . S
C2869 C2867 1.327 . S
C2869 C2885 1.429 . S
C2869 H2891 0.950 . S
C2870 H2866 0.949 . S
C2870 C2878 1.574 . S
C2870 C2886 1.368 . S
H2871 C2879 0.950 . S
H2872 C2877 0.950 . S
H2873 C2878 0.949 . S
H2874 C2880 0.950 . S
H2875 C2881 0.950 . S
H2876 C2882 0.949 . S
C2877 H2872 0.950 . S
C2877 C2879 1.327 . S
C2877 C2883 1.429 . S
C2878 C2870 1.574 . S
C2878 H2873 0.949 . S
C2878 C2884 1.368 . S
C2879 C2863 1.349 . S
C2879 H2871 0.950 . S
C2879 C2877 1.327 . S
C2880 C2868 1.349 . S
C2880 H2874 0.950 . S
C2880 C2881 1.327 . S
C2881 H2875 0.950 . S
C2881 C2880 1.327 . S
C2881 C2885 1.429 . S
C2882 C2865 1.574 . S
C2882 H2876 0.949 . S
C2882 C2886 1.368 . S
C2883 C2864 1.429 . S
C2883 C2877 1.429 . S
C2883 C2884 1.523 . S
C2884 C2865 1.368 . S
C2884 C2878 1.368 . S
C2884 C2883 1.523 . S
C2885 C2869 1.429 . S
C2885 C2881 1.429 . S
C2885 C2886 1.523 . S
C2886 C2870 1.368 . S
C2886 C2882 1.368 . S
C2886 C2885 1.523 . S
H2887 C2862 0.950 . S
H2888 C2864 0.950 . S
H2889 C2865 0.949 . S
H2890 C2867 0.950 . S
H2891 C2869 0.950 . S
C2892 C2893 1.349 1_655 S
C2892 C2894 1.327 . S
C2892 H2917 0.950 . S
C2893 C2892 1.349 1_455 S
C2893 C2909 1.349 . S
C2894 C2892 1.327 . S
C2894 C2913 1.429 1_655 S
C2894 H2918 0.950 . S
C2895 C2912 1.574 . S
C2895 C2914 1.368 . S
C2895 H2919 0.949 . S
H2896 C2900 0.949 . S
C2897 C2898 1.349 1_455 S
C2897 C2899 1.327 . S
C2897 H2920 0.950 . S
C2898 C2897 1.349 1_655 S
C2898 C2910 1.349 . S
C2899 C2897 1.327 . S
C2899 C2915 1.429 1_455 S
C2899 H2921 0.950 . S
C2900 H2896 0.949 . S
C2900 C2908 1.574 . S
C2900 C2916 1.371 . S
H2901 C2909 0.950 . S
H2902 C2907 0.950 . S
H2903 C2908 0.949 . S
H2904 C2910 0.950 . S
H2905 C2911 0.950 . S
H2906 C2912 0.949 . S
C2907 H2902 0.950 . S
C2907 C2909 1.327 . S
C2907 C2913 1.429 . S
C2908 C2900 1.574 . S
C2908 H2903 0.949 . S
C2908 C2914 1.368 1_655 S
C2909 C2893 1.349 . S
C2909 H2901 0.950 . S
C2909 C2907 1.327 . S
C2910 C2898 1.349 . S
C2910 H2904 0.950 . S
C2910 C2911 1.327 . S
C2911 H2905 0.950 . S
C2911 C2910 1.327 . S
C2911 C2915 1.429 . S
C2912 C2895 1.574 . S
C2912 H2906 0.949 . S
C2912 C2916 1.365 1_455 S
C2913 C2894 1.429 1_455 S
C2913 C2907 1.429 . S
C2913 C2914 1.523 . S
C2914 C2895 1.368 . S
C2914 C2908 1.368 1_455 S
C2914 C2913 1.523 . S
C2915 C2899 1.429 1_655 S
C2915 C2911 1.429 . S
C2915 C2916 1.523 . S
C2916 C2900 1.371 . S
C2916 C2912 1.365 1_655 S
C2916 C2915 1.523 . S
H2917 C2892 0.950 . S
H2918 C2894 0.950 . S
H2919 C2895 0.949 . S
H2920 C2897 0.950 . S
H2921 C2899 0.950 . S
C2922 C2923 1.349 . S
C2922 C2924 1.327 . S
C2922 H2947 0.950 . S
C2923 C2922 1.349 . S
C2923 C2939 1.349 . S
C2924 C2922 1.327 . S
C2924 C2943 1.429 . S
C2924 H2948 0.950 . S
C2925 C2942 1.574 . S
C2925 C2944 1.368 . S
C2925 H2949 0.949 . S
H2926 C2930 0.949 . S
C2927 C2928 1.349 . S
C2927 C2929 1.327 . S
C2927 H2950 0.950 . S
C2928 C2927 1.349 . S
C2928 C2940 1.349 . S
C2929 C2927 1.327 . S
C2929 C2945 1.429 . S
C2929 H2951 0.950 . S
C2930 H2926 0.949 . S
C2930 C2938 1.574 . S
C2930 C2946 1.368 . S
H2931 C2939 0.950 . S
H2932 C2937 0.950 . S
H2933 C2938 0.949 . S
H2934 C2940 0.950 . S
H2935 C2941 0.950 . S
H2936 C2942 0.949 . S
C2937 H2932 0.950 . S
C2937 C2939 1.327 . S
C2937 C2943 1.429 . S
C2938 C2930 1.574 . S
C2938 H2933 0.949 . S
C2938 C2944 1.368 . S
C2939 C2923 1.349 . S
C2939 H2931 0.950 . S
C2939 C2937 1.327 . S
C2940 C2928 1.349 . S
C2940 H2934 0.950 . S
C2940 C2941 1.327 . S
C2941 H2935 0.950 . S
C2941 C2940 1.327 . S
C2941 C2945 1.429 . S
C2942 C2925 1.574 . S
C2942 H2936 0.949 . S
C2942 C2946 1.368 . S
C2943 C2924 1.429 . S
C2943 C2937 1.429 . S
C2943 C2944 1.523 . S
C2944 C2925 1.368 . S
C2944 C2938 1.368 . S
C2944 C2943 1.523 . S
C2945 C2929 1.429 . S
C2945 C2941 1.429 . S
C2945 C2946 1.523 . S
C2946 C2930 1.368 . S
C2946 C2942 1.368 . S
C2946 C2945 1.523 . S
H2947 C2922 0.950 . S
H2948 C2924 0.950 . S
H2949 C2925 0.949 . S
H2950 C2927 0.950 . S
H2951 C2929 0.950 . S
C2952 C2953 1.349 . S
C2952 C2954 1.327 . S
C2952 H2977 0.950 . S
C2953 C2952 1.349 . S
C2953 C2969 1.349 . S
C2954 C2952 1.327 . S
C2954 C2973 1.429 . S
C2954 H2978 0.950 . S
C2955 C2972 1.574 . S
C2955 C2974 1.368 . S
C2955 H2979 0.949 . S
H2956 C2960 0.949 . S
C2957 C2958 1.349 . S
C2957 C2959 1.327 . S
C2957 H2980 0.950 . S
C2958 C2957 1.349 . S
C2958 C2970 1.349 . S
C2959 C2957 1.327 . S
C2959 C2975 1.429 . S
C2959 H2981 0.950 . S
C2960 H2956 0.949 . S
C2960 C2968 1.574 . S
C2960 C2976 1.368 . S
H2961 C2969 0.950 . S
H2962 C2967 0.950 . S
H2963 C2968 0.949 . S
H2964 C2970 0.950 . S
H2965 C2971 0.950 . S
H2966 C2972 0.949 . S
C2967 H2962 0.950 . S
C2967 C2969 1.327 . S
C2967 C2973 1.429 . S
C2968 C2960 1.574 . S
C2968 H2963 0.949 . S
C2968 C2974 1.368 . S
C2969 C2953 1.349 . S
C2969 H2961 0.950 . S
C2969 C2967 1.327 . S
C2970 C2958 1.349 . S
C2970 H2964 0.950 . S
C2970 C2971 1.327 . S
C2971 H2965 0.950 . S
C2971 C2970 1.327 . S
C2971 C2975 1.429 . S
C2972 C2955 1.574 . S
C2972 H2966 0.949 . S
C2972 C2976 1.368 . S
C2973 C2954 1.429 . S
C2973 C2967 1.429 . S
C2973 C2974 1.523 . S
C2974 C2955 1.368 . S
C2974 C2968 1.368 . S
C2974 C2973 1.523 . S
C2975 C2959 1.429 . S
C2975 C2971 1.429 . S
C2975 C2976 1.523 . S
C2976 C2960 1.368 . S
C2976 C2972 1.368 . S
C2976 C2975 1.523 . S
H2977 C2952 0.950 . S
H2978 C2954 0.950 . S
H2979 C2955 0.949 . S
H2980 C2957 0.950 . S
H2981 C2959 0.950 . S
C2982 C2983 1.349 . S
C2982 C2984 1.327 . S
C2982 H3007 0.950 . S
C2983 C2982 1.349 . S
C2983 C2999 1.349 . S
C2984 C2982 1.327 . S
C2984 C3003 1.429 . S
C2984 H3008 0.950 . S
C2985 C3002 1.574 . S
C2985 C3004 1.368 . S
C2985 H3009 0.949 . S
H2986 C2990 0.949 . S
C2987 C2988 1.349 . S
C2987 C2989 1.327 . S
C2987 H3010 0.950 . S
C2988 C2987 1.349 . S
C2988 C3000 1.349 . S
C2989 C2987 1.327 . S
C2989 C3005 1.429 . S
C2989 H3011 0.950 . S
C2990 H2986 0.949 . S
C2990 C2998 1.574 . S
C2990 C3006 1.368 . S
H2991 C2999 0.950 . S
H2992 C2997 0.950 . S
H2993 C2998 0.949 . S
H2994 C3000 0.950 . S
H2995 C3001 0.950 . S
H2996 C3002 0.949 . S
C2997 H2992 0.950 . S
C2997 C2999 1.327 . S
C2997 C3003 1.429 . S
C2998 C2990 1.574 . S
C2998 H2993 0.949 . S
C2998 C3004 1.368 . S
C2999 C2983 1.349 . S
C2999 H2991 0.950 . S
C2999 C2997 1.327 . S
C3000 C2988 1.349 . S
C3000 H2994 0.950 . S
C3000 C3001 1.327 . S
C3001 H2995 0.950 . S
C3001 C3000 1.327 . S
C3001 C3005 1.429 . S
C3002 C2985 1.574 . S
C3002 H2996 0.949 . S
C3002 C3006 1.368 . S
C3003 C2984 1.429 . S
C3003 C2997 1.429 . S
C3003 C3004 1.523 . S
C3004 C2985 1.368 . S
C3004 C2998 1.368 . S
C3004 C3003 1.523 . S
C3005 C2989 1.429 . S
C3005 C3001 1.429 . S
C3005 C3006 1.523 . S
C3006 C2990 1.368 . S
C3006 C3002 1.368 . S
C3006 C3005 1.523 . S
H3007 C2982 0.950 . S
H3008 C2984 0.950 . S
H3009 C2985 0.949 . S
H3010 C2987 0.950 . S
H3011 C2989 0.950 . S
C3012 C3013 1.349 . S
C3012 C3014 1.327 . S
C3012 H3037 0.950 . S
C3013 C3012 1.349 . S
C3013 C3029 1.349 1_455 S
C3014 C3012 1.327 . S
C3014 C3033 1.429 . S
C3014 H3038 0.950 . S
C3015 C3032 1.574 . S
C3015 C3034 1.368 1_655 S
C3015 H3039 0.949 . S
H3016 C3020 0.949 . S
C3017 C3018 1.349 . S
C3017 C3019 1.327 . S
C3017 H3040 0.950 . S
C3018 C3017 1.349 . S
C3018 C3030 1.349 1_655 S
C3019 C3017 1.327 . S
C3019 C3035 1.451 . S
C3019 H3041 0.950 . S
C3020 H3016 0.949 . S
C3020 C3028 1.574 . S
C3020 C3036 1.385 . S
H3021 C3029 0.950 . S
H3022 C3027 0.950 . S
H3023 C3028 0.949 . S
H3024 C3030 0.950 . S
H3025 C3031 0.950 . S
H3026 C3032 0.949 . S
C3027 H3022 0.950 . S
C3027 C3029 1.327 . S
C3027 C3033 1.429 1_655 S
C3028 C3020 1.574 . S
C3028 H3023 0.949 . S
C3028 C3034 1.368 . S
C3029 C3013 1.349 1_655 S
C3029 H3021 0.950 . S
C3029 C3027 1.327 . S
C3030 C3018 1.349 1_455 S
C3030 H3024 0.950 . S
C3030 C3031 1.327 . S
C3031 H3025 0.950 . S
C3031 C3030 1.327 . S
C3031 C3035 1.408 1_455 S
C3032 C3015 1.574 . S
C3032 H3026 0.949 . S
C3032 C3036 1.353 1_655 S
C3033 C3014 1.429 . S
C3033 C3027 1.429 1_455 S
C3033 C3034 1.523 . S
C3034 C3015 1.368 1_455 S
C3034 C3028 1.368 . S
C3034 C3033 1.523 . S
C3035 C3019 1.451 . S
C3035 C3031 1.408 1_655 S
C3035 C3036 1.521 1_655 S
C3036 C3020 1.385 . S
C3036 C3032 1.353 1_455 S
C3036 C3035 1.521 1_455 S
H3037 C3012 0.950 . S
H3038 C3014 0.950 . S
H3039 C3015 0.949 . S
H3040 C3017 0.950 . S
H3041 C3019 0.950 . S
C3042 C3043 1.349 . S
C3042 C3044 1.327 . S
C3042 H3067 0.950 . S
C3043 C3042 1.349 . S
C3043 C3059 1.349 . S
C3044 C3042 1.327 . S
C3044 C3063 1.429 . S
C3044 H3068 0.950 . S
C3045 C3062 1.574 . S
C3045 C3064 1.368 . S
C3045 H3069 0.949 . S
H3046 C3050 0.949 . S
C3047 C3048 1.349 . S
C3047 C3049 1.327 . S
C3047 H3070 0.950 . S
C3048 C3047 1.349 . S
C3048 C3060 1.349 . S
C3049 C3047 1.327 . S
C3049 C3065 1.429 . S
C3049 H3071 0.950 . S
C3050 H3046 0.949 . S
C3050 C3058 1.574 . S
C3050 C3066 1.368 . S
H3051 C3059 0.950 . S
H3052 C3057 0.950 . S
H3053 C3058 0.949 . S
H3054 C3060 0.950 . S
H3055 C3061 0.950 . S
H3056 C3062 0.949 . S
C3057 H3052 0.950 . S
C3057 C3059 1.327 . S
C3057 C3063 1.429 . S
C3058 C3050 1.574 . S
C3058 H3053 0.949 . S
C3058 C3064 1.368 . S
C3059 C3043 1.349 . S
C3059 H3051 0.950 . S
C3059 C3057 1.327 . S
C3060 C3048 1.349 . S
C3060 H3054 0.950 . S
C3060 C3061 1.327 . S
C3061 H3055 0.950 . S
C3061 C3060 1.327 . S
C3061 C3065 1.429 . S
C3062 C3045 1.574 . S
C3062 H3056 0.949 . S
C3062 C3066 1.368 . S
C3063 C3044 1.429 . S
C3063 C3057 1.429 . S
C3063 C3064 1.523 . S
C3064 C3045 1.368 . S
C3064 C3058 1.368 . S
C3064 C3063 1.523 . S
C3065 C3049 1.429 . S
C3065 C3061 1.429 . S
C3065 C3066 1.523 . S
C3066 C3050 1.368 . S
C3066 C3062 1.368 . S
C3066 C3065 1.523 . S
H3067 C3042 0.950 . S
H3068 C3044 0.950 . S
H3069 C3045 0.949 . S
H3070 C3047 0.950 . S
H3071 C3049 0.950 . S
C3072 C3073 1.349 . S
C3072 C3074 1.327 . S
C3072 H3097 0.950 . S
C3073 C3072 1.349 . S
C3073 C3089 1.349 . S
C3074 C3072 1.327 . S
C3074 C3093 1.429 . S
C3074 H3098 0.950 . S
C3075 C3092 1.574 . S
C3075 C3094 1.368 . S
C3075 H3099 0.949 . S
H3076 C3080 0.949 . S
C3077 C3078 1.349 . S
C3077 C3079 1.327 . S
C3077 H3100 0.950 . S
C3078 C3077 1.349 . S
C3078 C3090 1.349 . S
C3079 C3077 1.327 . S
C3079 C3095 1.429 . S
C3079 H3101 0.950 . S
C3080 H3076 0.949 . S
C3080 C3088 1.574 . S
C3080 C3096 1.368 . S
H3081 C3089 0.950 . S
H3082 C3087 0.950 . S
H3083 C3088 0.949 . S
H3084 C3090 0.950 . S
H3085 C3091 0.950 . S
H3086 C3092 0.949 . S
C3087 H3082 0.950 . S
C3087 C3089 1.327 . S
C3087 C3093 1.429 . S
C3088 C3080 1.574 . S
C3088 H3083 0.949 . S
C3088 C3094 1.368 . S
C3089 C3073 1.349 . S
C3089 H3081 0.950 . S
C3089 C3087 1.327 . S
C3090 C3078 1.349 . S
C3090 H3084 0.950 . S
C3090 C3091 1.327 . S
C3091 H3085 0.950 . S
C3091 C3090 1.327 . S
C3091 C3095 1.429 . S
C3092 C3075 1.574 . S
C3092 H3086 0.949 . S
C3092 C3096 1.368 . S
C3093 C3074 1.429 . S
C3093 C3087 1.429 . S
C3093 C3094 1.523 . S
C3094 C3075 1.368 . S
C3094 C3088 1.368 . S
C3094 C3093 1.523 . S
C3095 C3079 1.429 . S
C3095 C3091 1.429 . S
C3095 C3096 1.523 . S
C3096 C3080 1.368 . S
C3096 C3092 1.368 . S
C3096 C3095 1.523 . S
H3097 C3072 0.950 . S
H3098 C3074 0.950 . S
H3099 C3075 0.949 . S
H3100 C3077 0.950 . S
H3101 C3079 0.950 . S
C3102 C3103 1.349 . S
C3102 C3104 1.327 . S
C3102 H3127 0.950 . S
C3103 C3102 1.349 . S
C3103 C3119 1.349 . S
C3104 C3102 1.327 . S
C3104 C3123 1.429 . S
C3104 H3128 0.950 . S
C3105 C3122 1.574 . S
C3105 C3124 1.368 . S
C3105 H3129 0.949 . S
H3106 C3110 0.949 . S
C3107 C3108 1.349 . S
C3107 C3109 1.327 . S
C3107 H3130 0.950 . S
C3108 C3107 1.349 . S
C3108 C3120 1.349 . S
C3109 C3107 1.327 . S
C3109 C3125 1.429 . S
C3109 H3131 0.950 . S
C3110 H3106 0.949 . S
C3110 C3118 1.574 . S
C3110 C3126 1.368 . S
H3111 C3119 0.950 . S
H3112 C3117 0.950 . S
H3113 C3118 0.949 . S
H3114 C3120 0.950 . S
H3115 C3121 0.950 . S
H3116 C3122 0.949 . S
C3117 H3112 0.950 . S
C3117 C3119 1.327 . S
C3117 C3123 1.429 . S
C3118 C3110 1.574 . S
C3118 H3113 0.949 . S
C3118 C3124 1.368 . S
C3119 C3103 1.349 . S
C3119 H3111 0.950 . S
C3119 C3117 1.327 . S
C3120 C3108 1.349 . S
C3120 H3114 0.950 . S
C3120 C3121 1.327 . S
C3121 H3115 0.950 . S
C3121 C3120 1.327 . S
C3121 C3125 1.429 . S
C3122 C3105 1.574 . S
C3122 H3116 0.949 . S
C3122 C3126 1.368 . S
C3123 C3104 1.429 . S
C3123 C3117 1.429 . S
C3123 C3124 1.523 . S
C3124 C3105 1.368 . S
C3124 C3118 1.368 . S
C3124 C3123 1.523 . S
C3125 C3109 1.429 . S
C3125 C3121 1.429 . S
C3125 C3126 1.523 . S
C3126 C3110 1.368 . S
C3126 C3122 1.368 . S
C3126 C3125 1.523 . S
H3127 C3102 0.950 . S
H3128 C3104 0.950 . S
H3129 C3105 0.949 . S
H3130 C3107 0.950 . S
H3131 C3109 0.950 . S
C3132 C3133 1.349 . S
C3132 C3134 1.327 . S
C3132 H3157 0.950 . S
C3133 C3132 1.349 . S
C3133 C3149 1.349 . S
C3134 C3132 1.327 . S
C3134 C3153 1.429 . S
C3134 H3158 0.950 . S
C3135 C3152 1.574 . S
C3135 C3154 1.368 . S
C3135 H3159 0.949 . S
H3136 C3140 0.949 . S
C3137 C3138 1.349 . S
C3137 C3139 1.327 . S
C3137 H3160 0.950 . S
C3138 C3137 1.349 . S
C3138 C3150 1.349 . S
C3139 C3137 1.327 . S
C3139 C3155 1.429 . S
C3139 H3161 0.950 . S
C3140 H3136 0.949 . S
C3140 C3148 1.574 . S
C3140 C3156 1.368 . S
H3141 C3149 0.950 . S
H3142 C3147 0.950 . S
H3143 C3148 0.949 . S
H3144 C3150 0.950 . S
H3145 C3151 0.950 . S
H3146 C3152 0.949 . S
C3147 H3142 0.950 . S
C3147 C3149 1.327 . S
C3147 C3153 1.429 . S
C3148 C3140 1.574 . S
C3148 H3143 0.949 . S
C3148 C3154 1.368 . S
C3149 C3133 1.349 . S
C3149 H3141 0.950 . S
C3149 C3147 1.327 . S
C3150 C3138 1.349 . S
C3150 H3144 0.950 . S
C3150 C3151 1.327 . S
C3151 H3145 0.950 . S
C3151 C3150 1.327 . S
C3151 C3155 1.429 . S
C3152 C3135 1.574 . S
C3152 H3146 0.949 . S
C3152 C3156 1.368 . S
C3153 C3134 1.429 . S
C3153 C3147 1.429 . S
C3153 C3154 1.523 . S
C3154 C3135 1.368 . S
C3154 C3148 1.368 . S
C3154 C3153 1.523 . S
C3155 C3139 1.429 . S
C3155 C3151 1.429 . S
C3155 C3156 1.523 . S
C3156 C3140 1.368 . S
C3156 C3152 1.368 . S
C3156 C3155 1.523 . S
H3157 C3132 0.950 . S
H3158 C3134 0.950 . S
H3159 C3135 0.949 . S
H3160 C3137 0.950 . S
H3161 C3139 0.950 . S
C3162 C3163 1.349 . S
C3162 C3164 1.327 . S
C3162 H3187 0.950 . S
C3163 C3162 1.349 . S
C3163 C3179 1.349 . S
C3164 C3162 1.327 . S
C3164 C3183 1.429 . S
C3164 H3188 0.950 . S
C3165 C3182 1.574 . S
C3165 C3184 1.368 . S
C3165 H3189 0.949 . S
H3166 C3170 0.949 . S
C3167 C3168 1.349 . S
C3167 C3169 1.327 . S
C3167 H3190 0.950 . S
C3168 C3167 1.349 . S
C3168 C3180 1.349 . S
C3169 C3167 1.327 . S
C3169 C3185 1.429 . S
C3169 H3191 0.950 . S
C3170 H3166 0.949 . S
C3170 C3178 1.574 . S
C3170 C3186 1.368 . S
H3171 C3179 0.950 . S
H3172 C3177 0.950 . S
H3173 C3178 0.949 . S
H3174 C3180 0.950 . S
H3175 C3181 0.950 . S
H3176 C3182 0.949 . S
C3177 H3172 0.950 . S
C3177 C3179 1.327 . S
C3177 C3183 1.429 . S
C3178 C3170 1.574 . S
C3178 H3173 0.949 . S
C3178 C3184 1.368 . S
C3179 C3163 1.349 . S
C3179 H3171 0.950 . S
C3179 C3177 1.327 . S
C3180 C3168 1.349 . S
C3180 H3174 0.950 . S
C3180 C3181 1.327 . S
C3181 H3175 0.950 . S
C3181 C3180 1.327 . S
C3181 C3185 1.429 . S
C3182 C3165 1.574 . S
C3182 H3176 0.949 . S
C3182 C3186 1.368 . S
C3183 C3164 1.429 . S
C3183 C3177 1.429 . S
C3183 C3184 1.523 . S
C3184 C3165 1.368 . S
C3184 C3178 1.368 . S
C3184 C3183 1.523 . S
C3185 C3169 1.429 . S
C3185 C3181 1.429 . S
C3185 C3186 1.523 . S
C3186 C3170 1.368 . S
C3186 C3182 1.368 . S
C3186 C3185 1.523 . S
H3187 C3162 0.950 . S
H3188 C3164 0.950 . S
H3189 C3165 0.949 . S
H3190 C3167 0.950 . S
H3191 C3169 0.950 . S
C3192 C3193 1.349 . S
C3192 C3194 1.327 . S
C3192 H3217 0.950 . S
C3193 C3192 1.349 . S
C3193 C3209 1.349 . S
C3194 C3192 1.327 . S
C3194 C3213 1.429 . S
C3194 H3218 0.950 . S
C3195 C3212 1.574 . S
C3195 C3214 1.368 . S
C3195 H3219 0.949 . S
H3196 C3200 0.949 . S
C3197 C3198 1.349 . S
C3197 C3199 1.327 . S
C3197 H3220 0.950 . S
C3198 C3197 1.349 . S
C3198 C3210 1.349 . S
C3199 C3197 1.327 . S
C3199 C3215 1.429 . S
C3199 H3221 0.950 . S
C3200 H3196 0.949 . S
C3200 C3208 1.574 . S
C3200 C3216 1.368 . S
H3201 C3209 0.950 . S
H3202 C3207 0.950 . S
H3203 C3208 0.949 . S
H3204 C3210 0.950 . S
H3205 C3211 0.950 . S
H3206 C3212 0.949 . S
C3207 H3202 0.950 . S
C3207 C3209 1.327 . S
C3207 C3213 1.429 . S
C3208 C3200 1.574 . S
C3208 H3203 0.949 . S
C3208 C3214 1.368 . S
C3209 C3193 1.349 . S
C3209 H3201 0.950 . S
C3209 C3207 1.327 . S
C3210 C3198 1.349 . S
C3210 H3204 0.950 . S
C3210 C3211 1.327 . S
C3211 H3205 0.950 . S
C3211 C3210 1.327 . S
C3211 C3215 1.429 . S
C3212 C3195 1.574 . S
C3212 H3206 0.949 . S
C3212 C3216 1.368 . S
C3213 C3194 1.429 . S
C3213 C3207 1.429 . S
C3213 C3214 1.523 . S
C3214 C3195 1.368 . S
C3214 C3208 1.368 . S
C3214 C3213 1.523 . S
C3215 C3199 1.429 . S
C3215 C3211 1.429 . S
C3215 C3216 1.523 . S
C3216 C3200 1.368 . S
C3216 C3212 1.368 . S
C3216 C3215 1.523 . S
H3217 C3192 0.950 . S
H3218 C3194 0.950 . S
H3219 C3195 0.949 . S
H3220 C3197 0.950 . S
H3221 C3199 0.950 . S
C3222 C3223 1.349 . S
C3222 C3224 1.327 . S
C3222 H3247 0.950 . S
C3223 C3222 1.349 . S
C3223 C3239 1.349 . S
C3224 C3222 1.327 . S
C3224 C3243 1.429 . S
C3224 H3248 0.950 . S
C3225 C3242 1.574 . S
C3225 C3244 1.368 . S
C3225 H3249 0.949 . S
H3226 C3230 0.949 . S
C3227 C3228 1.349 . S
C3227 C3229 1.327 . S
C3227 H3250 0.950 . S
C3228 C3227 1.349 . S
C3228 C3240 1.349 . S
C3229 C3227 1.327 . S
C3229 C3245 1.429 . S
C3229 H3251 0.950 . S
C3230 H3226 0.949 . S
C3230 C3238 1.574 . S
C3230 C3246 1.368 . S
H3231 C3239 0.950 . S
H3232 C3237 0.950 . S
H3233 C3238 0.949 . S
H3234 C3240 0.950 . S
H3235 C3241 0.950 . S
H3236 C3242 0.949 . S
C3237 H3232 0.950 . S
C3237 C3239 1.327 . S
C3237 C3243 1.429 . S
C3238 C3230 1.574 . S
C3238 H3233 0.949 . S
C3238 C3244 1.368 . S
C3239 C3223 1.349 . S
C3239 H3231 0.950 . S
C3239 C3237 1.327 . S
C3240 C3228 1.349 . S
C3240 H3234 0.950 . S
C3240 C3241 1.327 . S
C3241 H3235 0.950 . S
C3241 C3240 1.327 . S
C3241 C3245 1.429 . S
C3242 C3225 1.574 . S
C3242 H3236 0.949 . S
C3242 C3246 1.368 . S
C3243 C3224 1.429 . S
C3243 C3237 1.429 . S
C3243 C3244 1.523 . S
C3244 C3225 1.368 . S
C3244 C3238 1.368 . S
C3244 C3243 1.523 . S
C3245 C3229 1.429 . S
C3245 C3241 1.429 . S
C3245 C3246 1.523 . S
C3246 C3230 1.368 . S
C3246 C3242 1.368 . S
C3246 C3245 1.523 . S
H3247 C3222 0.950 . S
H3248 C3224 0.950 . S
H3249 C3225 0.949 . S
H3250 C3227 0.950 . S
H3251 C3229 0.950 . S
C3252 C3253 1.349 . S
C3252 C3254 1.327 . S
C3252 H3277 0.950 . S
C3253 C3252 1.349 . S
C3253 C3269 1.349 . S
C3254 C3252 1.327 . S
C3254 C3273 1.429 . S
C3254 H3278 0.950 . S
C3255 C3272 1.574 . S
C3255 C3274 1.368 . S
C3255 H3279 0.949 . S
H3256 C3260 0.949 . S
C3257 C3258 1.349 . S
C3257 C3259 1.327 . S
C3257 H3280 0.950 . S
C3258 C3257 1.349 . S
C3258 C3270 1.349 . S
C3259 C3257 1.327 . S
C3259 C3275 1.429 . S
C3259 H3281 0.950 . S
C3260 H3256 0.949 . S
C3260 C3268 1.574 . S
C3260 C3276 1.368 . S
H3261 C3269 0.950 . S
H3262 C3267 0.950 . S
H3263 C3268 0.949 . S
H3264 C3270 0.950 . S
H3265 C3271 0.950 . S
H3266 C3272 0.949 . S
C3267 H3262 0.950 . S
C3267 C3269 1.327 . S
C3267 C3273 1.429 . S
C3268 C3260 1.574 . S
C3268 H3263 0.949 . S
C3268 C3274 1.368 . S
C3269 C3253 1.349 . S
C3269 H3261 0.950 . S
C3269 C3267 1.327 . S
C3270 C3258 1.349 . S
C3270 H3264 0.950 . S
C3270 C3271 1.327 . S
C3271 H3265 0.950 . S
C3271 C3270 1.327 . S
C3271 C3275 1.429 . S
C3272 C3255 1.574 . S
C3272 H3266 0.949 . S
C3272 C3276 1.368 . S
C3273 C3254 1.429 . S
C3273 C3267 1.429 . S
C3273 C3274 1.523 . S
C3274 C3255 1.368 . S
C3274 C3268 1.368 . S
C3274 C3273 1.523 . S
C3275 C3259 1.429 . S
C3275 C3271 1.429 . S
C3275 C3276 1.523 . S
C3276 C3260 1.368 . S
C3276 C3272 1.368 . S
C3276 C3275 1.523 . S
H3277 C3252 0.950 . S
H3278 C3254 0.950 . S
H3279 C3255 0.949 . S
H3280 C3257 0.950 . S
H3281 C3259 0.950 . S
C3282 C3283 1.349 . S
C3282 C3284 1.327 . S
C3282 H3307 0.950 . S
C3283 C3282 1.349 . S
C3283 C3299 1.349 . S
C3284 C3282 1.327 . S
C3284 C3303 1.429 . S
C3284 H3308 0.950 . S
C3285 C3302 1.574 . S
C3285 C3304 1.368 . S
C3285 H3309 0.949 . S
H3286 C3290 0.949 . S
C3287 C3288 1.349 . S
C3287 C3289 1.327 . S
C3287 H3310 0.950 . S
C3288 C3287 1.349 . S
C3288 C3300 1.349 . S
C3289 C3287 1.327 . S
C3289 C3305 1.429 . S
C3289 H3311 0.950 . S
C3290 H3286 0.949 . S
C3290 C3298 1.574 . S
C3290 C3306 1.368 . S
H3291 C3299 0.950 . S
H3292 C3297 0.950 . S
H3293 C3298 0.949 . S
H3294 C3300 0.950 . S
H3295 C3301 0.950 . S
H3296 C3302 0.949 . S
C3297 H3292 0.950 . S
C3297 C3299 1.327 . S
C3297 C3303 1.429 . S
C3298 C3290 1.574 . S
C3298 H3293 0.949 . S
C3298 C3304 1.368 . S
C3299 C3283 1.349 . S
C3299 H3291 0.950 . S
C3299 C3297 1.327 . S
C3300 C3288 1.349 . S
C3300 H3294 0.950 . S
C3300 C3301 1.327 . S
C3301 H3295 0.950 . S
C3301 C3300 1.327 . S
C3301 C3305 1.429 . S
C3302 C3285 1.574 . S
C3302 H3296 0.949 . S
C3302 C3306 1.368 . S
C3303 C3284 1.429 . S
C3303 C3297 1.429 . S
C3303 C3304 1.523 . S
C3304 C3285 1.368 . S
C3304 C3298 1.368 . S
C3304 C3303 1.523 . S
C3305 C3289 1.429 . S
C3305 C3301 1.429 . S
C3305 C3306 1.523 . S
C3306 C3290 1.368 . S
C3306 C3302 1.368 . S
C3306 C3305 1.523 . S
H3307 C3282 0.950 . S
H3308 C3284 0.950 . S
H3309 C3285 0.949 . S
H3310 C3287 0.950 . S
H3311 C3289 0.950 . S
C3312 C3313 1.349 . S
C3312 C3314 1.327 . S
C3312 H3337 0.950 . S
C3313 C3312 1.349 . S
C3313 C3329 1.349 . S
C3314 C3312 1.327 . S
C3314 C3333 1.429 . S
C3314 H3338 0.950 . S
C3315 C3332 1.574 . S
C3315 C3334 1.368 . S
C3315 H3339 0.949 . S
H3316 C3320 0.949 . S
C3317 C3318 1.349 . S
C3317 C3319 1.327 . S
C3317 H3340 0.950 . S
C3318 C3317 1.349 . S
C3318 C3330 1.349 . S
C3319 C3317 1.327 . S
C3319 C3335 1.429 . S
C3319 H3341 0.950 . S
C3320 H3316 0.949 . S
C3320 C3328 1.574 . S
C3320 C3336 1.368 . S
H3321 C3329 0.950 . S
H3322 C3327 0.950 . S
H3323 C3328 0.949 . S
H3324 C3330 0.950 . S
H3325 C3331 0.950 . S
H3326 C3332 0.949 . S
C3327 H3322 0.950 . S
C3327 C3329 1.327 . S
C3327 C3333 1.429 . S
C3328 C3320 1.574 . S
C3328 H3323 0.949 . S
C3328 C3334 1.368 . S
C3329 C3313 1.349 . S
C3329 H3321 0.950 . S
C3329 C3327 1.327 . S
C3330 C3318 1.349 . S
C3330 H3324 0.950 . S
C3330 C3331 1.327 . S
C3331 H3325 0.950 . S
C3331 C3330 1.327 . S
C3331 C3335 1.429 . S
C3332 C3315 1.574 . S
C3332 H3326 0.949 . S
C3332 C3336 1.368 . S
C3333 C3314 1.429 . S
C3333 C3327 1.429 . S
C3333 C3334 1.523 . S
C3334 C3315 1.368 . S
C3334 C3328 1.368 . S
C3334 C3333 1.523 . S
C3335 C3319 1.429 . S
C3335 C3331 1.429 . S
C3335 C3336 1.523 . S
C3336 C3320 1.368 . S
C3336 C3332 1.368 . S
C3336 C3335 1.523 . S
H3337 C3312 0.950 . S
H3338 C3314 0.950 . S
H3339 C3315 0.949 . S
H3340 C3317 0.950 . S
H3341 C3319 0.950 . S
C3342 C3343 1.349 . S
C3342 C3344 1.327 . S
C3342 H3367 0.950 . S
C3343 C3342 1.349 . S
C3343 C3359 1.349 . S
C3344 C3342 1.327 . S
C3344 C3363 1.429 . S
C3344 H3368 0.950 . S
C3345 C3362 1.574 . S
C3345 C3364 1.368 . S
C3345 H3369 0.949 . S
H3346 C3350 0.949 . S
C3347 C3348 1.349 . S
C3347 C3349 1.327 . S
C3347 H3370 0.950 . S
C3348 C3347 1.349 . S
C3348 C3360 1.349 . S
C3349 C3347 1.327 . S
C3349 C3365 1.429 . S
C3349 H3371 0.950 . S
C3350 H3346 0.949 . S
C3350 C3358 1.574 . S
C3350 C3366 1.368 . S
H3351 C3359 0.950 . S
H3352 C3357 0.950 . S
H3353 C3358 0.949 . S
H3354 C3360 0.950 . S
H3355 C3361 0.950 . S
H3356 C3362 0.949 . S
C3357 H3352 0.950 . S
C3357 C3359 1.327 . S
C3357 C3363 1.429 . S
C3358 C3350 1.574 . S
C3358 H3353 0.949 . S
C3358 C3364 1.368 . S
C3359 C3343 1.349 . S
C3359 H3351 0.950 . S
C3359 C3357 1.327 . S
C3360 C3348 1.349 . S
C3360 H3354 0.950 . S
C3360 C3361 1.327 . S
C3361 H3355 0.950 . S
C3361 C3360 1.327 . S
C3361 C3365 1.429 . S
C3362 C3345 1.574 . S
C3362 H3356 0.949 . S
C3362 C3366 1.368 . S
C3363 C3344 1.429 . S
C3363 C3357 1.429 . S
C3363 C3364 1.523 . S
C3364 C3345 1.368 . S
C3364 C3358 1.368 . S
C3364 C3363 1.523 . S
C3365 C3349 1.429 . S
C3365 C3361 1.429 . S
C3365 C3366 1.523 . S
C3366 C3350 1.368 . S
C3366 C3362 1.368 . S
C3366 C3365 1.523 . S
H3367 C3342 0.950 . S
H3368 C3344 0.950 . S
H3369 C3345 0.949 . S
H3370 C3347 0.950 . S
H3371 C3349 0.950 . S
C3372 C3373 1.349 . S
C3372 C3374 1.327 . S
C3372 H3397 0.950 . S
C3373 C3372 1.349 . S
C3373 C3389 1.349 . S
C3374 C3372 1.327 . S
C3374 C3393 1.429 . S
C3374 H3398 0.950 . S
C3375 C3392 1.574 . S
C3375 C3394 1.368 . S
C3375 H3399 0.949 . S
H3376 C3380 0.949 . S
C3377 C3378 1.349 . S
C3377 C3379 1.327 . S
C3377 H3400 0.950 . S
C3378 C3377 1.349 . S
C3378 C3390 1.349 . S
C3379 C3377 1.327 . S
C3379 C3395 1.429 . S
C3379 H3401 0.950 . S
C3380 H3376 0.949 . S
C3380 C3388 1.574 . S
C3380 C3396 1.368 . S
H3381 C3389 0.950 . S
H3382 C3387 0.950 . S
H3383 C3388 0.949 . S
H3384 C3390 0.950 . S
H3385 C3391 0.950 . S
H3386 C3392 0.949 . S
C3387 H3382 0.950 . S
C3387 C3389 1.327 . S
C3387 C3393 1.429 . S
C3388 C3380 1.574 . S
C3388 H3383 0.949 . S
C3388 C3394 1.368 . S
C3389 C3373 1.349 . S
C3389 H3381 0.950 . S
C3389 C3387 1.327 . S
C3390 C3378 1.349 . S
C3390 H3384 0.950 . S
C3390 C3391 1.327 . S
C3391 H3385 0.950 . S
C3391 C3390 1.327 . S
C3391 C3395 1.429 . S
C3392 C3375 1.574 . S
C3392 H3386 0.949 . S
C3392 C3396 1.368 . S
C3393 C3374 1.429 . S
C3393 C3387 1.429 . S
C3393 C3394 1.523 . S
C3394 C3375 1.368 . S
C3394 C3388 1.368 . S
C3394 C3393 1.523 . S
C3395 C3379 1.429 . S
C3395 C3391 1.429 . S
C3395 C3396 1.523 . S
C3396 C3380 1.368 . S
C3396 C3392 1.368 . S
C3396 C3395 1.523 . S
H3397 C3372 0.950 . S
H3398 C3374 0.950 . S
H3399 C3375 0.949 . S
H3400 C3377 0.950 . S
H3401 C3379 0.950 . S
C3402 C3403 1.349 1_556 S
C3402 C3404 1.327 . S
C3402 H3427 0.950 . S
C3403 C3402 1.349 1_554 S
C3403 C3419 1.349 . S
C3404 C3402 1.327 . S
C3404 C3423 1.429 1_556 S
C3404 H3428 0.950 . S
C3405 C3422 1.574 . S
C3405 C3424 1.368 . S
C3405 H3429 0.949 . S
H3406 C3410 0.949 . S
C3407 C3408 1.349 1_554 S
C3407 C3409 1.327 . S
C3407 H3430 0.950 . S
C3408 C3407 1.349 1_556 S
C3408 C3420 1.349 . S
C3409 C3407 1.327 . S
C3409 C3425 1.429 1_554 S
C3409 H3431 0.950 . S
C3410 H3406 0.949 . S
C3410 C3418 1.574 . S
C3410 C3426 1.372 . S
H3411 C3419 0.950 . S
H3412 C3417 0.950 . S
H3413 C3418 0.949 . S
H3414 C3420 0.950 . S
H3415 C3421 0.950 . S
H3416 C3422 0.949 . S
C3417 H3412 0.950 . S
C3417 C3419 1.327 . S
C3417 C3423 1.429 . S
C3418 C3410 1.574 . S
C3418 H3413 0.949 . S
C3418 C3424 1.368 1_556 S
C3419 C3403 1.349 . S
C3419 H3411 0.950 . S
C3419 C3417 1.327 . S
C3420 C3408 1.349 . S
C3420 H3414 0.950 . S
C3420 C3421 1.327 . S
C3421 H3415 0.950 . S
C3421 C3420 1.327 . S
C3421 C3425 1.429 . S
C3422 C3405 1.574 . S
C3422 H3416 0.949 . S
C3422 C3426 1.364 1_554 S
C3423 C3404 1.429 1_554 S
C3423 C3417 1.429 . S
C3423 C3424 1.523 . S
C3424 C3405 1.368 . S
C3424 C3418 1.368 1_554 S
C3424 C3423 1.523 . S
C3425 C3409 1.429 1_556 S
C3425 C3421 1.429 . S
C3425 C3426 1.523 . S
C3426 C3410 1.372 . S
C3426 C3422 1.364 1_556 S
C3426 C3425 1.523 . S
H3427 C3402 0.950 . S
H3428 C3404 0.950 . S
H3429 C3405 0.949 . S
H3430 C3407 0.950 . S
H3431 C3409 0.950 . S
C3432 C3433 1.349 . S
C3432 C3434 1.327 . S
C3432 H3457 0.950 . S
C3433 C3432 1.349 . S
C3433 C3449 1.349 . S
C3434 C3432 1.327 . S
C3434 C3453 1.429 . S
C3434 H3458 0.950 . S
C3435 C3452 1.574 . S
C3435 C3454 1.368 . S
C3435 H3459 0.949 . S
H3436 C3440 0.949 . S
C3437 C3438 1.349 . S
C3437 C3439 1.327 . S
C3437 H3460 0.950 . S
C3438 C3437 1.349 . S
C3438 C3450 1.349 . S
C3439 C3437 1.327 . S
C3439 C3455 1.429 . S
C3439 H3461 0.950 . S
C3440 H3436 0.949 . S
C3440 C3448 1.574 . S
C3440 C3456 1.368 . S
H3441 C3449 0.950 . S
H3442 C3447 0.950 . S
H3443 C3448 0.949 . S
H3444 C3450 0.950 . S
H3445 C3451 0.950 . S
H3446 C3452 0.949 . S
C3447 H3442 0.950 . S
C3447 C3449 1.327 . S
C3447 C3453 1.429 . S
C3448 C3440 1.574 . S
C3448 H3443 0.949 . S
C3448 C3454 1.368 . S
C3449 C3433 1.349 . S
C3449 H3441 0.950 . S
C3449 C3447 1.327 . S
C3450 C3438 1.349 . S
C3450 H3444 0.950 . S
C3450 C3451 1.327 . S
C3451 H3445 0.950 . S
C3451 C3450 1.327 . S
C3451 C3455 1.429 . S
C3452 C3435 1.574 . S
C3452 H3446 0.949 . S
C3452 C3456 1.368 . S
C3453 C3434 1.429 . S
C3453 C3447 1.429 . S
C3453 C3454 1.523 . S
C3454 C3435 1.368 . S
C3454 C3448 1.368 . S
C3454 C3453 1.523 . S
C3455 C3439 1.429 . S
C3455 C3451 1.429 . S
C3455 C3456 1.523 . S
C3456 C3440 1.368 . S
C3456 C3452 1.368 . S
C3456 C3455 1.523 . S
H3457 C3432 0.950 . S
H3458 C3434 0.950 . S
H3459 C3435 0.949 . S
H3460 C3437 0.950 . S
H3461 C3439 0.950 . S
C3462 C3463 1.349 1_556 S
C3462 C3464 1.327 . S
C3462 H3487 0.950 . S
C3463 C3462 1.349 1_554 S
C3463 C3479 1.349 . S
C3464 C3462 1.327 . S
C3464 C3483 1.429 1_556 S
C3464 H3488 0.950 . S
C3465 C3482 1.574 . S
C3465 C3484 1.368 . S
C3465 H3489 0.949 . S
H3466 C3470 0.949 . S
C3467 C3468 1.349 . S
C3467 C3469 1.327 . S
C3467 H3490 0.950 . S
C3468 C3467 1.349 . S
C3468 C3480 1.349 1_554 S
C3469 C3467 1.327 . S
C3469 C3485 1.429 . S
C3469 H3491 0.950 . S
C3470 H3466 0.949 . S
C3470 C3478 1.574 . S
C3470 C3486 1.368 1_556 S
H3471 C3479 0.950 . S
H3472 C3477 0.950 . S
H3473 C3478 0.949 . S
H3474 C3480 0.950 . S
H3475 C3481 0.950 . S
H3476 C3482 0.949 . S
C3477 H3472 0.950 . S
C3477 C3479 1.327 . S
C3477 C3483 1.429 . S
C3478 C3470 1.574 . S
C3478 H3473 0.949 . S
C3478 C3484 1.368 1_556 S
C3479 C3463 1.349 . S
C3479 H3471 0.950 . S
C3479 C3477 1.327 . S
C3480 C3468 1.349 1_556 S
C3480 H3474 0.950 . S
C3480 C3481 1.327 . S
C3481 H3475 0.950 . S
C3481 C3480 1.327 . S
C3481 C3485 1.429 1_556 S
C3482 C3465 1.574 . S
C3482 H3476 0.949 . S
C3482 C3486 1.368 . S
C3483 C3464 1.429 1_554 S
C3483 C3477 1.429 . S
C3483 C3484 1.523 . S
C3484 C3465 1.368 . S
C3484 C3478 1.368 1_554 S
C3484 C3483 1.523 . S
C3485 C3469 1.429 . S
C3485 C3481 1.429 1_554 S
C3485 C3486 1.523 . S
C3486 C3470 1.368 1_554 S
C3486 C3482 1.368 . S
C3486 C3485 1.523 . S
H3487 C3462 0.950 . S
H3488 C3464 0.950 . S
H3489 C3465 0.949 . S
H3490 C3467 0.950 . S
H3491 C3469 0.950 . S
C3492 C3493 1.349 . S
C3492 C3494 1.327 . S
C3492 H3517 0.950 . S
C3493 C3492 1.349 . S
C3493 C3509 1.349 . S
C3494 C3492 1.327 . S
C3494 C3513 1.429 . S
C3494 H3518 0.950 . S
C3495 C3512 1.574 . S
C3495 C3514 1.368 . S
C3495 H3519 0.949 . S
H3496 C3500 0.949 . S
C3497 C3498 1.349 . S
C3497 C3499 1.327 . S
C3497 H3520 0.950 . S
C3498 C3497 1.349 . S
C3498 C3510 1.349 . S
C3499 C3497 1.327 . S
C3499 C3515 1.429 . S
C3499 H3521 0.950 . S
C3500 H3496 0.949 . S
C3500 C3508 1.574 . S
C3500 C3516 1.368 . S
H3501 C3509 0.950 . S
H3502 C3507 0.950 . S
H3503 C3508 0.949 . S
H3504 C3510 0.950 . S
H3505 C3511 0.950 . S
H3506 C3512 0.949 . S
C3507 H3502 0.950 . S
C3507 C3509 1.327 . S
C3507 C3513 1.429 . S
C3508 C3500 1.574 . S
C3508 H3503 0.949 . S
C3508 C3514 1.368 . S
C3509 C3493 1.349 . S
C3509 H3501 0.950 . S
C3509 C3507 1.327 . S
C3510 C3498 1.349 . S
C3510 H3504 0.950 . S
C3510 C3511 1.327 . S
C3511 H3505 0.950 . S
C3511 C3510 1.327 . S
C3511 C3515 1.429 . S
C3512 C3495 1.574 . S
C3512 H3506 0.949 . S
C3512 C3516 1.368 . S
C3513 C3494 1.429 . S
C3513 C3507 1.429 . S
C3513 C3514 1.523 . S
C3514 C3495 1.368 . S
C3514 C3508 1.368 . S
C3514 C3513 1.523 . S
C3515 C3499 1.429 . S
C3515 C3511 1.429 . S
C3515 C3516 1.523 . S
C3516 C3500 1.368 . S
C3516 C3512 1.368 . S
C3516 C3515 1.523 . S
H3517 C3492 0.950 . S
H3518 C3494 0.950 . S
H3519 C3495 0.949 . S
H3520 C3497 0.950 . S
H3521 C3499 0.950 . S
C3522 C3523 1.349 . S
C3522 C3524 1.327 . S
C3522 H3547 0.950 . S
C3523 C3522 1.349 . S
C3523 C3539 1.349 . S
C3524 C3522 1.327 . S
C3524 C3543 1.429 . S
C3524 H3548 0.950 . S
C3525 C3542 1.574 . S
C3525 C3544 1.368 . S
C3525 H3549 0.949 . S
H3526 C3530 0.949 . S
C3527 C3528 1.349 . S
C3527 C3529 1.327 . S
C3527 H3550 0.950 . S
C3528 C3527 1.349 . S
C3528 C3540 1.349 . S
C3529 C3527 1.327 . S
C3529 C3545 1.429 . S
C3529 H3551 0.950 . S
C3530 H3526 0.949 . S
C3530 C3538 1.574 . S
C3530 C3546 1.368 . S
H3531 C3539 0.950 . S
H3532 C3537 0.950 . S
H3533 C3538 0.949 . S
H3534 C3540 0.950 . S
H3535 C3541 0.950 . S
H3536 C3542 0.949 . S
C3537 H3532 0.950 . S
C3537 C3539 1.327 . S
C3537 C3543 1.429 . S
C3538 C3530 1.574 . S
C3538 H3533 0.949 . S
C3538 C3544 1.368 . S
C3539 C3523 1.349 . S
C3539 H3531 0.950 . S
C3539 C3537 1.327 . S
C3540 C3528 1.349 . S
C3540 H3534 0.950 . S
C3540 C3541 1.327 . S
C3541 H3535 0.950 . S
C3541 C3540 1.327 . S
C3541 C3545 1.429 . S
C3542 C3525 1.574 . S
C3542 H3536 0.949 . S
C3542 C3546 1.368 . S
C3543 C3524 1.429 . S
C3543 C3537 1.429 . S
C3543 C3544 1.523 . S
C3544 C3525 1.368 . S
C3544 C3538 1.368 . S
C3544 C3543 1.523 . S
C3545 C3529 1.429 . S
C3545 C3541 1.429 . S
C3545 C3546 1.523 . S
C3546 C3530 1.368 . S
C3546 C3542 1.368 . S
C3546 C3545 1.523 . S
H3547 C3522 0.950 . S
H3548 C3524 0.950 . S
H3549 C3525 0.949 . S
H3550 C3527 0.950 . S
H3551 C3529 0.950 . S
C678 C352 1.211 . S
C673 C5 1.325 . S
C703 C23 1.147 . S
C708 C372 1.115 . S
C733 C39 1.228 . S
C738 C394 1.136 . S
C768 C413 1.291 . S
C763 C42 1.313 . S
C793 C19 1.336 . S
C798 C434 1.307 1_655 S
C828 C457 1.227 . S
C823 C28 1.325 . S
C858 C480 1.066 . S
C853 C53 1.094 . S
C883 C9 1.261 . S
C888 C498 1.221 . S
C913 C65 1.301 . S
C918 C354 1.262 . S
C943 C75 1.336 . S
C948 C374 1.309 . S
C978 C396 1.164 . S
C973 C93 1.195 . S
C1008 C415 1.184 . S
C1003 C109 1.277 . S
C1033 C56 1.354 . S
C1038 C436 1.247 . S
C1068 C459 1.004 . S
C1063 C81 1.027 . S
C1098 C476 1.321 . S
C1093 C84 1.345 . S
C1128 C500 1.229 . S
C1123 C103 1.255 . S
C1158 C350 1.221 . S
C1153 C107 1.242 . S
C1188 C522 1.094 . S
C1183 C121 1.123 . S
C1213 C131 1.356 . S
C1218 C539 1.327 . S
C1248 C562 1.253 . S
C1243 C140 1.355 . S
C1273 C61 1.339 . S
C1278 C496 1.222 . S
C1308 C392 1.281 . S
C1303 C70 1.301 . S
C1333 C137 1.076 . S
C1338 C585 1.050 . S
C1368 C601 1.109 . S
C1363 C165 1.201 . S
C1393 C173 1.245 . S
C1398 C349 1.147 . S
C1428 C602 1.178 . S
C1423 C182 1.202 . S
C1453 C207 1.288 . S
C1458 C391 1.189 . S
C1483 C219 1.134 . S
C1488 C582 1.106 . S
C1518 C435 1.133 . S
C1513 C187 1.166 . S
C1548 C538 1.182 . S
C1543 C205 1.287 . S
C1578 C479 1.198 . S
C1573 C221 1.221 . S
C1608 C623 1.266 . S
C1603 C168 1.291 . S
C1638 C353 1.304 . S
C1633 C224 1.326 1_545 S
C1663 C243 1.130 . S
C1668 C606 1.099 . S
C1698 C395 1.215 1_545 S
C1693 C252 1.244 . S
C1723 C277 1.174 . S
C1728 C580 1.094 . S
C1753 C233 1.327 . S
C1758 C433 1.215 . S
C1783 C249 1.192 . S
C1788 C542 1.168 . S
C1818 C477 1.141 . S
C1813 C261 1.173 . S
C1843 C271 1.196 . S
C1848 C627 1.162 . S
C1873 C266 1.174 . S
C1878 C351 1.145 . S
C1903 C280 1.259 . S
C1908 C521 1.233 . S
C1933 C299 1.179 . S
C1938 C456 1.144 . S
C1963 C317 1.260 . S
C1968 C559 1.166 . S
C1998 C625 1.155 . S
C1993 C229 1.257 . S
C2028 C393 1.098 . S
C2023 C247 1.129 . S
C2058 C416 1.184 . S
C2053 C305 1.206 . S
C2088 C373 1.173 . S
C2083 C333 1.273 . S
C2113 C33 1.325 . S
C2118 C646 1.211 . S
C2148 C603 1.115 . S
C2143 C51 1.147 . S
C2178 C667 1.136 . S
C2173 C11 1.227 . S
C2203 C14 1.313 . S
C2208 C581 1.290 . S
C2233 C47 1.336 . S
C2238 C518 1.307 . S
C2268 C541 1.228 . S
C2263 C0 1.326 . S
C2298 C564 1.066 . S
C2293 C25 1.094 . S
C2328 C624 1.220 . S
C2323 C37 1.261 . S
C2358 C648 1.262 . S
C2353 C163 1.301 . S
C2383 C117 1.335 . S
C2388 C605 1.309 . S
C2413 C135 1.195 . S
C2418 C669 1.164 . S
C2448 C583 1.184 . S
C2443 C151 1.277 . S
C2478 C520 1.247 . S
C2473 C154 1.354 . S
C2503 C123 1.027 . S
C2508 C543 1.004 . S
C2538 C560 1.321 . S
C2533 C126 1.345 . S
C2563 C145 1.255 . S
C2568 C626 1.229 . S
C2598 C644 1.220 . S
C2593 C149 1.242 . S
C2628 C438 1.094 . S
C2623 C79 1.123 . S
C2658 C455 1.327 . S
C2653 C89 1.356 . S
C2683 C98 1.356 . S
C2688 C478 1.253 . S
C2718 C622 1.222 . S
C2713 C159 1.339 . S
C2743 C112 1.301 . S
C2748 C665 1.281 . S
C2778 C417 1.050 . S
C2773 C95 1.077 . S
C2808 C370 1.109 . S
C2803 C67 1.201 . S
C2833 C201 1.245 . S
C2838 C643 1.147 . S
C2868 C371 1.178 . S
C2863 C210 1.202 . S
C2898 C664 1.189 . S
C2893 C179 1.288 . S
C2923 C191 1.134 . S
C2928 C414 1.105 . S
C2953 C215 1.167 . S
C2958 C519 1.133 . S
C2983 C177 1.287 . S
C2988 C454 1.182 . S
C3013 C193 1.221 . S
C3018 C563 1.198 . S
C3043 C196 1.291 . S
C3048 C497 1.266 . S
C3078 C647 1.304 . S
C3073 C322 1.330 . S
C3103 C285 1.130 . S
C3108 C375 1.099 . S
C3138 C668 1.219 . S
C3133 C294 1.244 . S
C3163 C319 1.174 . S
C3168 C412 1.094 . S
C3193 C331 1.326 . S
C3198 C517 1.215 . S
C3228 C458 1.168 . S
C3223 C291 1.192 . S
C3253 C303 1.173 . S
C3258 C561 1.141 . S
C3288 C501 1.162 . S
C3283 C313 1.196 . S
C3318 C645 1.145 . S
C3313 C308 1.174 . S
C3348 C437 1.232 . S
C3343 C238 1.259 . S
C3373 C257 1.178 . S
C3378 C540 1.144 . S
C3408 C475 1.166 . S
C3403 C275 1.260 . S
C3438 C499 1.155 . S
C3433 C327 1.257 . S
C3463 C289 1.131 . S
C3468 C666 1.098 . S
C3498 C584 1.184 . S
C3493 C263 1.206 . S
C3528 C604 1.173 . S
C3523 C235 1.273 . S
