# Generated by pormake.
# Topology gar, (4,6)-cn, num edge types: 1
# Building blocks:
#     Node 0, Type 0, BuildingBlock: QUQFOY_clean_sbu_3, # of connection points: 4
#     Node 1, Type 0, BuildingBlock: QUQFOY_clean_sbu_3, # of connection points: 4
#     Node 2, Type 0, BuildingBlock: QUQFOY_clean_sbu_3, # of connection points: 4
#     Node 3, Type 0, BuildingBlock: QUQFOY_clean_sbu_3, # of connection points: 4
#     Node 4, Type 0, BuildingBlock: QUQFOY_clean_sbu_3, # of connection points: 4
#     Node 5, Type 0, BuildingBlock: QUQFOY_clean_sbu_3, # of connection points: 4
#     Node 6, Type 0, BuildingBlock: QUQFOY_clean_sbu_3, # of connection points: 4
#     Node 7, Type 0, BuildingBlock: QUQFOY_clean_sbu_3, # of connection points: 4
#     Node 8, Type 0, BuildingBlock: QUQFOY_clean_sbu_3, # of connection points: 4
#     Node 9, Type 0, BuildingBlock: QUQFOY_clean_sbu_3, # of connection points: 4
#     Node 10, Type 0, BuildingBlock: QUQFOY_clean_sbu_3, # of connection points: 4
#     Node 11, Type 0, BuildingBlock: QUQFOY_clean_sbu_3, # of connection points: 4
#     Node 12, Type 0, BuildingBlock: QUQFOY_clean_sbu_3, # of connection points: 4
#     Node 13, Type 0, BuildingBlock: QUQFOY_clean_sbu_3, # of connection points: 4
#     Node 14, Type 0, BuildingBlock: QUQFOY_clean_sbu_3, # of connection points: 4
#     Node 15, Type 0, BuildingBlock: QUQFOY_clean_sbu_3, # of connection points: 4
#     Node 16, Type 0, BuildingBlock: QUQFOY_clean_sbu_3, # of connection points: 4
#     Node 17, Type 0, BuildingBlock: QUQFOY_clean_sbu_3, # of connection points: 4
#     Node 18, Type 0, BuildingBlock: QUQFOY_clean_sbu_3, # of connection points: 4
#     Node 19, Type 0, BuildingBlock: QUQFOY_clean_sbu_3, # of connection points: 4
#     Node 20, Type 0, BuildingBlock: QUQFOY_clean_sbu_3, # of connection points: 4
#     Node 21, Type 0, BuildingBlock: QUQFOY_clean_sbu_3, # of connection points: 4
#     Node 22, Type 0, BuildingBlock: QUQFOY_clean_sbu_3, # of connection points: 4
#     Node 23, Type 0, BuildingBlock: QUQFOY_clean_sbu_3, # of connection points: 4
#     Node 24, Type 1, BuildingBlock: CUKXOW_clean_sbu_0, # of connection points: 6
#     Node 25, Type 1, BuildingBlock: CUKXOW_clean_sbu_0, # of connection points: 6
#     Node 26, Type 1, BuildingBlock: CUKXOW_clean_sbu_0, # of connection points: 6
#     Node 27, Type 1, BuildingBlock: CUKXOW_clean_sbu_0, # of connection points: 6
#     Node 28, Type 1, BuildingBlock: CUKXOW_clean_sbu_0, # of connection points: 6
#     Node 29, Type 1, BuildingBlock: CUKXOW_clean_sbu_0, # of connection points: 6
#     Node 30, Type 1, BuildingBlock: CUKXOW_clean_sbu_0, # of connection points: 6
#     Node 31, Type 1, BuildingBlock: CUKXOW_clean_sbu_0, # of connection points: 6
#     Node 32, Type 1, BuildingBlock: CUKXOW_clean_sbu_0, # of connection points: 6
#     Node 33, Type 1, BuildingBlock: CUKXOW_clean_sbu_0, # of connection points: 6
#     Node 34, Type 1, BuildingBlock: CUKXOW_clean_sbu_0, # of connection points: 6
#     Node 35, Type 1, BuildingBlock: CUKXOW_clean_sbu_0, # of connection points: 6
#     Node 36, Type 1, BuildingBlock: CUKXOW_clean_sbu_0, # of connection points: 6
#     Node 37, Type 1, BuildingBlock: CUKXOW_clean_sbu_0, # of connection points: 6
#     Node 38, Type 1, BuildingBlock: CUKXOW_clean_sbu_0, # of connection points: 6
#     Node 39, Type 1, BuildingBlock: CUKXOW_clean_sbu_0, # of connection points: 6
#     Edge 40, Type (0, 1), BuildingBlock: UVAHIK_clean_linker_0, # of connection points: 2
#     Edge 41, Type (0, 1), BuildingBlock: UVAHIK_clean_linker_0, # of connection points: 2
#     Edge 42, Type (0, 1), BuildingBlock: UVAHIK_clean_linker_0, # of connection points: 2
#     Edge 43, Type (0, 1), BuildingBlock: UVAHIK_clean_linker_0, # of connection points: 2
#     Edge 44, Type (0, 1), BuildingBlock: UVAHIK_clean_linker_0, # of connection points: 2
#     Edge 45, Type (0, 1), BuildingBlock: UVAHIK_clean_linker_0, # of connection points: 2
#     Edge 46, Type (0, 1), BuildingBlock: UVAHIK_clean_linker_0, # of connection points: 2
#     Edge 47, Type (0, 1), BuildingBlock: UVAHIK_clean_linker_0, # of connection points: 2
#     Edge 48, Type (0, 1), BuildingBlock: UVAHIK_clean_linker_0, # of connection points: 2
#     Edge 49, Type (0, 1), BuildingBlock: UVAHIK_clean_linker_0, # of connection points: 2
#     Edge 50, Type (0, 1), BuildingBlock: UVAHIK_clean_linker_0, # of connection points: 2
#     Edge 51, Type (0, 1), BuildingBlock: UVAHIK_clean_linker_0, # of connection points: 2
#     Edge 52, Type (0, 1), BuildingBlock: UVAHIK_clean_linker_0, # of connection points: 2
#     Edge 53, Type (0, 1), BuildingBlock: UVAHIK_clean_linker_0, # of connection points: 2
#     Edge 54, Type (0, 1), BuildingBlock: UVAHIK_clean_linker_0, # of connection points: 2
#     Edge 55, Type (0, 1), BuildingBlock: UVAHIK_clean_linker_0, # of connection points: 2
#     Edge 56, Type (0, 1), BuildingBlock: UVAHIK_clean_linker_0, # of connection points: 2
#     Edge 57, Type (0, 1), BuildingBlock: UVAHIK_clean_linker_0, # of connection points: 2
#     Edge 58, Type (0, 1), BuildingBlock: UVAHIK_clean_linker_0, # of connection points: 2
#     Edge 59, Type (0, 1), BuildingBlock: UVAHIK_clean_linker_0, # of connection points: 2
#     Edge 60, Type (0, 1), BuildingBlock: UVAHIK_clean_linker_0, # of connection points: 2
#     Edge 61, Type (0, 1), BuildingBlock: UVAHIK_clean_linker_0, # of connection points: 2
#     Edge 62, Type (0, 1), BuildingBlock: UVAHIK_clean_linker_0, # of connection points: 2
#     Edge 63, Type (0, 1), BuildingBlock: UVAHIK_clean_linker_0, # of connection points: 2
#     Edge 64, Type (0, 1), BuildingBlock: UVAHIK_clean_linker_0, # of connection points: 2
#     Edge 65, Type (0, 1), BuildingBlock: UVAHIK_clean_linker_0, # of connection points: 2
#     Edge 66, Type (0, 1), BuildingBlock: UVAHIK_clean_linker_0, # of connection points: 2
#     Edge 67, Type (0, 1), BuildingBlock: UVAHIK_clean_linker_0, # of connection points: 2
#     Edge 68, Type (0, 1), BuildingBlock: UVAHIK_clean_linker_0, # of connection points: 2
#     Edge 69, Type (0, 1), BuildingBlock: UVAHIK_clean_linker_0, # of connection points: 2
#     Edge 70, Type (0, 1), BuildingBlock: UVAHIK_clean_linker_0, # of connection points: 2
#     Edge 71, Type (0, 1), BuildingBlock: UVAHIK_clean_linker_0, # of connection points: 2
#     Edge 72, Type (0, 1), BuildingBlock: UVAHIK_clean_linker_0, # of connection points: 2
#     Edge 73, Type (0, 1), BuildingBlock: UVAHIK_clean_linker_0, # of connection points: 2
#     Edge 74, Type (0, 1), BuildingBlock: UVAHIK_clean_linker_0, # of connection points: 2
#     Edge 75, Type (0, 1), BuildingBlock: UVAHIK_clean_linker_0, # of connection points: 2
#     Edge 76, Type (0, 1), BuildingBlock: UVAHIK_clean_linker_0, # of connection points: 2
#     Edge 77, Type (0, 1), BuildingBlock: UVAHIK_clean_linker_0, # of connection points: 2
#     Edge 78, Type (0, 1), BuildingBlock: UVAHIK_clean_linker_0, # of connection points: 2
#     Edge 79, Type (0, 1), BuildingBlock: UVAHIK_clean_linker_0, # of connection points: 2
#     Edge 80, Type (0, 1), BuildingBlock: UVAHIK_clean_linker_0, # of connection points: 2
#     Edge 81, Type (0, 1), BuildingBlock: UVAHIK_clean_linker_0, # of connection points: 2
#     Edge 82, Type (0, 1), BuildingBlock: UVAHIK_clean_linker_0, # of connection points: 2
#     Edge 83, Type (0, 1), BuildingBlock: UVAHIK_clean_linker_0, # of connection points: 2
#     Edge 84, Type (0, 1), BuildingBlock: UVAHIK_clean_linker_0, # of connection points: 2
#     Edge 85, Type (0, 1), BuildingBlock: UVAHIK_clean_linker_0, # of connection points: 2
#     Edge 86, Type (0, 1), BuildingBlock: UVAHIK_clean_linker_0, # of connection points: 2
#     Edge 87, Type (0, 1), BuildingBlock: UVAHIK_clean_linker_0, # of connection points: 2
#     Edge 88, Type (0, 1), BuildingBlock: UVAHIK_clean_linker_0, # of connection points: 2
#     Edge 89, Type (0, 1), BuildingBlock: UVAHIK_clean_linker_0, # of connection points: 2
#     Edge 90, Type (0, 1), BuildingBlock: UVAHIK_clean_linker_0, # of connection points: 2
#     Edge 91, Type (0, 1), BuildingBlock: UVAHIK_clean_linker_0, # of connection points: 2
#     Edge 92, Type (0, 1), BuildingBlock: UVAHIK_clean_linker_0, # of connection points: 2
#     Edge 93, Type (0, 1), BuildingBlock: UVAHIK_clean_linker_0, # of connection points: 2
#     Edge 94, Type (0, 1), BuildingBlock: UVAHIK_clean_linker_0, # of connection points: 2
#     Edge 95, Type (0, 1), BuildingBlock: UVAHIK_clean_linker_0, # of connection points: 2
#     Edge 96, Type (0, 1), BuildingBlock: UVAHIK_clean_linker_0, # of connection points: 2
#     Edge 97, Type (0, 1), BuildingBlock: UVAHIK_clean_linker_0, # of connection points: 2
#     Edge 98, Type (0, 1), BuildingBlock: UVAHIK_clean_linker_0, # of connection points: 2
#     Edge 99, Type (0, 1), BuildingBlock: UVAHIK_clean_linker_0, # of connection points: 2
#     Edge 100, Type (0, 1), BuildingBlock: UVAHIK_clean_linker_0, # of connection points: 2
#     Edge 101, Type (0, 1), BuildingBlock: UVAHIK_clean_linker_0, # of connection points: 2
#     Edge 102, Type (0, 1), BuildingBlock: UVAHIK_clean_linker_0, # of connection points: 2
#     Edge 103, Type (0, 1), BuildingBlock: UVAHIK_clean_linker_0, # of connection points: 2
#     Edge 104, Type (0, 1), BuildingBlock: UVAHIK_clean_linker_0, # of connection points: 2
#     Edge 105, Type (0, 1), BuildingBlock: UVAHIK_clean_linker_0, # of connection points: 2
#     Edge 106, Type (0, 1), BuildingBlock: UVAHIK_clean_linker_0, # of connection points: 2
#     Edge 107, Type (0, 1), BuildingBlock: UVAHIK_clean_linker_0, # of connection points: 2
#     Edge 108, Type (0, 1), BuildingBlock: UVAHIK_clean_linker_0, # of connection points: 2
#     Edge 109, Type (0, 1), BuildingBlock: UVAHIK_clean_linker_0, # of connection points: 2
#     Edge 110, Type (0, 1), BuildingBlock: UVAHIK_clean_linker_0, # of connection points: 2
#     Edge 111, Type (0, 1), BuildingBlock: UVAHIK_clean_linker_0, # of connection points: 2
#     Edge 112, Type (0, 1), BuildingBlock: UVAHIK_clean_linker_0, # of connection points: 2
#     Edge 113, Type (0, 1), BuildingBlock: UVAHIK_clean_linker_0, # of connection points: 2
#     Edge 114, Type (0, 1), BuildingBlock: UVAHIK_clean_linker_0, # of connection points: 2
#     Edge 115, Type (0, 1), BuildingBlock: UVAHIK_clean_linker_0, # of connection points: 2
#     Edge 116, Type (0, 1), BuildingBlock: UVAHIK_clean_linker_0, # of connection points: 2
#     Edge 117, Type (0, 1), BuildingBlock: UVAHIK_clean_linker_0, # of connection points: 2
#     Edge 118, Type (0, 1), BuildingBlock: UVAHIK_clean_linker_0, # of connection points: 2
#     Edge 119, Type (0, 1), BuildingBlock: UVAHIK_clean_linker_0, # of connection points: 2
#     Edge 120, Type (0, 1), BuildingBlock: UVAHIK_clean_linker_0, # of connection points: 2
#     Edge 121, Type (0, 1), BuildingBlock: UVAHIK_clean_linker_0, # of connection points: 2
#     Edge 122, Type (0, 1), BuildingBlock: UVAHIK_clean_linker_0, # of connection points: 2
#     Edge 123, Type (0, 1), BuildingBlock: UVAHIK_clean_linker_0, # of connection points: 2
#     Edge 124, Type (0, 1), BuildingBlock: UVAHIK_clean_linker_0, # of connection points: 2
#     Edge 125, Type (0, 1), BuildingBlock: UVAHIK_clean_linker_0, # of connection points: 2
#     Edge 126, Type (0, 1), BuildingBlock: UVAHIK_clean_linker_0, # of connection points: 2
#     Edge 127, Type (0, 1), BuildingBlock: UVAHIK_clean_linker_0, # of connection points: 2
#     Edge 128, Type (0, 1), BuildingBlock: UVAHIK_clean_linker_0, # of connection points: 2
#     Edge 129, Type (0, 1), BuildingBlock: UVAHIK_clean_linker_0, # of connection points: 2
#     Edge 130, Type (0, 1), BuildingBlock: UVAHIK_clean_linker_0, # of connection points: 2
#     Edge 131, Type (0, 1), BuildingBlock: UVAHIK_clean_linker_0, # of connection points: 2
#     Edge 132, Type (0, 1), BuildingBlock: UVAHIK_clean_linker_0, # of connection points: 2
#     Edge 133, Type (0, 1), BuildingBlock: UVAHIK_clean_linker_0, # of connection points: 2
#     Edge 134, Type (0, 1), BuildingBlock: UVAHIK_clean_linker_0, # of connection points: 2
#     Edge 135, Type (0, 1), BuildingBlock: UVAHIK_clean_linker_0, # of connection points: 2
# Relax obj value: 0.100
# Max RMSD: 0.218
# Mean RMSD: 0.117
data_MOF--net-gar--node1-QUQFOY_clean_sbu_3--node2-CUKXOW_clean_sbu_0--edge1-UVAHIK_clean_linker_0
_symmetry_space_group_name_H-M    P1
_symmetry_Int_Tables_number       1
_symmetry_cell_setting            triclinic
loop_
_symmetry_equiv_pos_as_xyz
'x, y, z'
_cell_length_a     71.535327
_cell_length_b     70.729316
_cell_length_c     70.813672
_cell_angle_alpha  94.613642
_cell_angle_beta   95.460903
_cell_angle_gamma 99.537131
loop_
_atom_site_label
_atom_site_type_symbol
_atom_site_fract_x
_atom_site_fract_y
_atom_site_fract_z
_atom_type_partial_charge
C0 C 0.98777 0.2725 0.38338 0.0
O1 O 0.00136 0.28152 0.37556 0.0
Cd2 Cd 0.03428 0.28228 0.38478 0.0
O3 O 0.99111 0.26346 0.39787 0.0
Cd4 Cd 0.02004 0.25835 0.41783 0.0
C5 C 0.03655 0.30602 0.42881 0.0
O6 O 0.03498 0.24949 0.39031 0.0
O7 O 0.05363 0.25345 0.41641 0.0
O8 O 0.00145 0.22794 0.42471 0.0
C9 C 0.05093 0.24797 0.39873 0.0
O10 O 0.0426 0.30613 0.41249 0.0
C11 C 0.00799 0.22962 0.44219 0.0
O12 O 0.0267 0.29089 0.43368 0.0
O13 O 0.01966 0.2449 0.44835 0.0
C14 C 0.96737 0.78409 0.65366 0.0
O15 O 0.9801 0.77538 0.66077 0.0
Cd16 Cd 0.00846 0.77205 0.6471 0.0
O17 O 0.96865 0.79094 0.63761 0.0
Cd18 Cd 0.99138 0.79202 0.61288 0.0
C19 C 0.98926 0.74377 0.60605 0.0
O20 O 0.01814 0.80314 0.63655 0.0
O21 O 0.02584 0.79512 0.6088 0.0
O22 O 0.98143 0.82232 0.60624 0.0
C23 C 0.03105 0.80292 0.62563 0.0
O24 O -0.00043 0.74555 0.62198 0.0
C25 C 0.98106 0.81952 0.58828 0.0
O26 O 0.98305 0.7582 0.5998 0.0
O27 O 0.98483 0.80353 0.58165 0.0
C28 C 0.4885 0.77712 0.88649 0.0
O29 O 0.50175 0.78704 0.87894 0.0
Cd30 Cd 0.53486 0.78838 0.88762 0.0
O31 O 0.49234 0.76746 0.90038 0.0
Cd32 Cd 0.52174 0.76213 0.91942 0.0
C33 C 0.53775 0.80962 0.93281 0.0
O34 O 0.53612 0.75519 0.89102 0.0
O35 O 0.55512 0.75717 0.91672 0.0
O36 O 0.50338 0.73114 0.92512 0.0
C37 C 0.55206 0.75292 0.89884 0.0
O38 O 0.54305 0.81102 0.91625 0.0
C39 C 0.51025 0.73198 0.94244 0.0
O40 O 0.52863 0.79382 0.93707 0.0
O41 O 0.522 0.74704 0.94906 0.0
C42 C 0.46486 0.28223 0.15093 0.0
O43 O 0.4773 0.27304 0.1578 0.0
Cd44 Cd 0.50558 0.26948 0.14409 0.0
O45 O 0.46641 0.28945 0.13508 0.0
Cd46 Cd 0.48927 0.29064 0.11048 0.0
C47 C 0.48635 0.24244 0.10237 0.0
O48 O 0.51597 0.30082 0.13438 0.0
O49 O 0.52373 0.2932 0.10656 0.0
O50 O 0.47999 0.3214 0.10451 0.0
C51 C 0.52894 0.3006 0.12352 0.0
O52 O 0.49647 0.24363 0.11834 0.0
C53 C 0.47958 0.3189 0.08653 0.0
O54 O 0.48048 0.25719 0.0965 0.0
O55 O 0.48308 0.30292 0.07959 0.0
C56 C 0.95573 0.75131 0.18225 0.0
O57 O 0.96776 0.74346 0.19178 0.0
Cd58 Cd 0.0001 0.74356 0.18594 0.0
O59 O 0.96032 0.76003 0.16782 0.0
Cd60 Cd 0.98944 0.76706 0.15076 0.0
C61 C -0.00663 0.72006 0.14097 0.0
O62 O 0.0116 0.77577 0.17979 0.0
O63 O 0.02464 0.77405 0.15374 0.0
O64 O 0.97949 0.79747 0.14353 0.0
C65 C 0.02671 0.77787 0.17167 0.0
O66 O -0.00023 0.72045 0.15843 0.0
C67 C 0.98202 0.79573 0.12601 0.0
O68 O 0.98717 0.7345 0.1347 0.0
O69 O 0.98758 0.78045 0.11991 0.0
C70 C 0.48522 0.78617 0.33525 0.0
O71 O 0.49745 0.79736 0.32764 0.0
Cd72 Cd 0.5293 0.80858 0.3413 0.0
O73 O 0.48982 0.77957 0.35099 0.0
Cd74 Cd 0.5194 0.78181 0.37397 0.0
C75 C 0.51965 0.82971 0.38386 0.0
O76 O 0.54038 0.7797 0.34929 0.0
O77 O 0.55492 0.78761 0.37756 0.0
O78 O 0.50868 0.74778 0.37802 0.0
C79 C 0.55589 0.78268 0.36011 0.0
O80 O 0.52527 0.83182 0.36751 0.0
C81 C 0.51152 0.7497 0.39609 0.0
O82 O 0.51611 0.81305 0.38967 0.0
O83 O 0.5178 0.76663 0.40396 0.0
C84 C 0.45551 0.25086 0.6809 0.0
O85 O 0.46748 0.24278 0.69023 0.0
Cd86 Cd 0.49969 0.2424 0.68427 0.0
O87 O 0.46007 0.25962 0.66648 0.0
Cd88 Cd 0.48923 0.26618 0.64934 0.0
C89 C 0.49329 0.21921 0.63919 0.0
O90 O 0.51182 0.27442 0.67803 0.0
O91 O 0.5245 0.27181 0.65185 0.0
O92 O 0.4834 0.29836 0.64323 0.0
C93 C 0.52683 0.27592 0.66977 0.0
O94 O 0.49935 0.21945 0.65671 0.0
C95 C 0.48304 0.29583 0.62524 0.0
O96 O 0.48726 0.23374 0.6329 0.0
O97 O 0.48497 0.27924 0.61828 0.0
C98 C 0.98553 0.28602 0.83436 0.0
O99 O -0.00208 0.29803 0.82784 0.0
Cd100 Cd 0.02994 0.308 0.84201 0.0
O101 O 0.98981 0.27826 0.84949 0.0
Cd102 Cd 0.0189 0.28013 0.87276 0.0
C103 C 0.02025 0.32793 0.88466 0.0
O104 O 0.04053 0.2785 0.84861 0.0
O105 O 0.05443 0.28613 0.87716 0.0
O106 O 0.00881 0.24593 0.87639 0.0
C107 C 0.05579 0.28119 0.8598 0.0
O108 O 0.02762 0.33081 0.86924 0.0
C109 C 0.01096 0.24781 0.89449 0.0
O110 O 0.01487 0.31086 0.88885 0.0
O111 O 0.01649 0.26479 0.90252 0.0
C112 C 0.42372 0.0533 0.27216 0.0
O113 O 0.43168 0.04397 0.26012 0.0
Cd114 Cd 0.42193 0.03798 0.22675 0.0
O115 O 0.40953 0.06114 0.26676 0.0
Cd116 Cd 0.39086 0.06408 0.2357 0.0
C117 C 0.3762 0.01564 0.22976 0.0
O118 O 0.41757 0.0685 0.2169 0.0
O119 O 0.39006 0.06271 0.20051 0.0
O120 O 0.38762 0.09703 0.24676 0.0
C121 C 0.40801 0.06695 0.20072 0.0
O122 O 0.39247 0.01433 0.22438 0.0
C123 C 0.36975 0.09451 0.2419 0.0
O124 O 0.37237 0.03189 0.23568 0.0
O125 O 0.36178 0.07779 0.23462 0.0
C126 C 0.27612 0.11283 0.506 0.0
O127 O 0.2604 0.10301 0.50918 0.0
Cd128 Cd 0.22945 0.11105 0.50219 0.0
O129 O 0.27675 0.12795 0.49722 0.0
Cd130 Cd 0.25394 0.14627 0.48165 0.0
C131 C 0.23817 0.15712 0.52433 0.0
O132 O 0.22923 0.11936 0.47031 0.0
O133 O 0.2208 0.14693 0.46867 0.0
O134 O 0.27095 0.15523 0.45428 0.0
C135 C 0.21614 0.12876 0.46597 0.0
O136 O 0.22918 0.13993 0.52399 0.0
C137 C 0.27343 0.17321 0.45949 0.0
O138 O 0.24846 0.16207 0.51129 0.0
O139 O 0.26721 0.17823 0.47497 0.0
C140 C 0.10051 0.00431 0.80382 0.0
O141 O 0.09241 0.0126 0.79092 0.0
Cd142 Cd 0.10089 0.01499 0.75942 0.0
O143 O 0.11525 -0.00303 0.80084 0.0
Cd144 Cd 0.13467 0.99484 0.77327 0.0
C145 C 0.14506 0.04279 0.76919 0.0
O146 O 0.10727 0.98391 0.74966 0.0
O147 O 0.13375 0.99231 0.73809 0.0
O148 O 0.14055 0.96338 0.78191 0.0
C149 C 0.11633 0.98448 0.7352 0.0
O150 O 0.1283 0.04072 0.76057 0.0
C151 C 0.15825 0.96655 0.78016 0.0
O152 O 0.15076 0.0289 0.77714 0.0
O153 O 0.16524 0.9833 0.77628 0.0
C154 C 0.24921 0.92556 0.01681 0.0
O155 O 0.23835 0.93391 0.00635 0.0
Cd156 Cd 0.20489 0.92392 -0.00124 0.0
O157 O 0.24243 0.91058 0.02456 0.0
Cd158 Cd 0.2105 0.89001 0.02622 0.0
C159 C 0.2054 0.87831 0.97774 0.0
O160 O 0.19461 0.91746 0.02897 0.0
O161 O 0.17536 0.89043 0.02596 0.0
O162 O 0.2208 0.88725 0.05974 0.0
C163 C 0.17768 0.90868 0.0285 0.0
O164 O 0.20249 0.89544 0.97619 0.0
C165 C 0.21782 0.86897 0.05853 0.0
O166 O 0.20917 0.87267 0.99412 0.0
O167 O 0.21127 0.86028 0.04225 0.0
C168 C 0.26071 0.43045 0.02853 0.0
O169 O 0.24888 0.43966 0.02047 0.0
Cd170 Cd 0.21494 0.43097 0.01571 0.0
O171 O 0.25502 0.41459 0.03534 0.0
Cd172 Cd 0.22417 0.39336 0.03806 0.0
C173 C 0.21291 0.38738 0.98986 0.0
O174 O 0.20771 0.41919 0.04505 0.0
O175 O 0.18966 0.39151 0.04074 0.0
O176 O 0.23695 0.38408 0.06827 0.0
C177 C 0.19106 0.40958 0.04411 0.0
O178 O 0.20919 0.40441 0.99028 0.0
C179 C 0.23186 0.36609 0.06359 0.0
O180 O 0.21944 0.38086 0.00489 0.0
O181 O 0.22345 0.36091 0.04692 0.0
C182 C 0.81763 0.13311 0.00973 0.0
O183 O 0.80479 0.12386 0.0183 0.0
Cd184 Cd 0.77349 0.13004 0.02095 0.0
O185 O 0.8147 0.14809 0.0017 0.0
Cd186 Cd 0.78695 0.16635 -0.00126 0.0
C187 C 0.78388 0.1746 0.04655 0.0
O188 O 0.76233 0.13769 0.9903 0.0
O189 O 0.75208 0.16417 -0.0036 0.0
O190 O 0.79418 0.17242 0.9664 0.0
C191 C 0.74828 0.14643 0.99051 0.0
O192 O 0.77658 0.1568 0.04529 0.0
C193 C 0.79262 0.19007 0.96786 0.0
O194 O 0.79032 0.18212 0.03214 0.0
O195 O 0.78971 0.19718 0.98415 0.0
C196 C 0.07344 0.49509 0.2957 0.0
O197 O 0.06503 0.50301 0.2827 0.0
Cd198 Cd 0.07043 0.50329 0.24991 0.0
O199 O 0.08696 0.48605 0.29223 0.0
Cd200 Cd 0.10437 0.48073 0.26368 0.0
C201 C 0.11587 0.52859 0.2588 0.0
O202 O 0.07694 0.47269 0.23906 0.0
O203 O 0.10449 0.47911 0.22906 0.0
O204 O 0.1109 0.44908 0.27223 0.0
C205 C 0.08665 0.474 0.22501 0.0
O206 O 0.09903 0.52733 0.25054 0.0
C207 C 0.12868 0.45307 0.27086 0.0
O208 O 0.12107 0.51442 0.26666 0.0
O209 O 0.13505 0.46996 0.2669 0.0
C210 C 0.76208 0.92814 0.52466 0.0
O211 O 0.75056 0.93678 0.51533 0.0
Cd212 Cd 0.71651 0.92911 0.51065 0.0
O213 O 0.75603 0.91329 0.53292 0.0
Cd214 Cd 0.72484 0.89339 0.53673 0.0
C215 C 0.71266 0.88357 0.48866 0.0
O216 O 0.70944 0.92039 0.54119 0.0
O217 O 0.69076 0.8933 0.54053 0.0
O218 O 0.73713 0.88492 0.56755 0.0
C219 C 0.6927 0.91149 0.54163 0.0
O220 O 0.70968 0.9007 0.48726 0.0
C221 C 0.73184 0.86689 0.56323 0.0
O222 O 0.71897 0.87842 0.50448 0.0
O223 O 0.72351 0.86142 0.54659 0.0
C224 C 0.90379 0.05417 0.2657 0.0
O225 O 0.91251 0.04628 0.2533 0.0
Cd226 Cd 0.89965 0.03667 0.22132 0.0
O227 O 0.88719 0.05801 0.2613 0.0
Cd228 Cd 0.86368 0.05609 0.2324 0.0
C229 C 0.85819 0.00727 0.22997 0.0
O230 O 0.88877 0.06535 0.2133 0.0
O231 O 0.86161 0.05633 0.1968 0.0
O232 O 0.85776 0.08617 0.24809 0.0
C233 C 0.87917 0.06327 0.19718 0.0
O234 O 0.87467 0.00905 0.22419 0.0
C235 C 0.83997 0.08313 0.24285 0.0
O236 O 0.85095 0.02208 0.23442 0.0
O237 O 0.83309 0.06739 0.23278 0.0
C238 C 0.31772 0.63204 0.50919 0.0
O239 O 0.30487 0.62275 0.51774 0.0
Cd240 Cd 0.27383 0.62933 0.52113 0.0
O241 O 0.31487 0.64726 0.50156 0.0
Cd242 Cd 0.28724 0.66576 0.49913 0.0
C243 C 0.28473 0.67375 0.54704 0.0
O244 O 0.26231 0.63733 0.49075 0.0
O245 O 0.25241 0.6639 0.49741 0.0
O246 O 0.29404 0.67196 0.46671 0.0
C247 C 0.24839 0.64621 0.49135 0.0
O248 O 0.27737 0.65597 0.5457 0.0
C249 C 0.29269 0.68966 0.46835 0.0
O250 O 0.29106 0.68134 0.53261 0.0
O251 O 0.29008 0.69672 0.48477 0.0
C252 C 0.40099 0.55155 0.76419 0.0
O253 O 0.40966 0.54386 0.75161 0.0
Cd254 Cd 0.39668 0.53497 0.71954 0.0
O255 O 0.38444 0.55557 0.75993 0.0
Cd256 Cd 0.3609 0.55422 0.73115 0.0
C257 C 0.3552 0.50539 0.72775 0.0
O258 O 0.38591 0.56388 0.71204 0.0
O259 O 0.35868 0.55501 0.69561 0.0
O260 O 0.35525 0.58413 0.74739 0.0
C261 C 0.37622 0.56205 0.69598 0.0
O262 O 0.37165 0.50726 0.72192 0.0
C263 C 0.33744 0.58127 0.74226 0.0
O264 O 0.34802 0.52014 0.73257 0.0
O265 O 0.33041 0.5657 0.73199 0.0
C266 C 0.57507 0.99573 0.79549 0.0
O267 O 0.56742 0.00476 0.78293 0.0
Cd268 Cd 0.57293 0.00583 0.75025 0.0
O269 O 0.58796 0.98598 0.79162 0.0
Cd270 Cd 0.60522 0.98106 0.7629 0.0
C271 C 0.61903 0.02891 0.75919 0.0
O272 O 0.57755 0.97469 0.73855 0.0
O273 O 0.60491 0.97997 0.72809 0.0
O274 O 0.61099 0.94882 0.77055 0.0
C275 C 0.58698 0.97578 0.72431 0.0
O276 O 0.60238 0.02871 0.75092 0.0
C277 C 0.62877 0.95247 0.76905 0.0
O278 O 0.6233 0.0142 0.76673 0.0
O279 O 0.63544 0.96937 0.76536 0.0
C280 C 0.77885 0.61542 0.0095 0.0
O281 O 0.76358 0.60644 0.01466 0.0
Cd282 Cd 0.73209 0.61334 0.00771 0.0
O283 O 0.77857 0.62936 -0.00082 0.0
Cd284 Cd 0.75459 0.64668 0.98426 0.0
C285 C 0.74011 0.66016 0.02699 0.0
O286 O 0.73001 0.61896 0.97486 0.0
O287 O 0.72108 0.64616 0.97187 0.0
O288 O 0.77016 0.65479 0.95576 0.0
C289 C 0.7167 0.62795 0.97008 0.0
O290 O 0.73132 0.64308 0.02781 0.0
C291 C 0.77263 0.67285 0.96047 0.0
O292 O 0.75003 0.6642 0.01344 0.0
O293 O 0.767 0.6783 0.97613 0.0
C294 C 0.92735 0.55822 0.77509 0.0
O295 O 0.93599 0.54908 0.76355 0.0
Cd296 Cd 0.92521 0.54056 0.73054 0.0
O297 O 0.91232 0.56447 0.76919 0.0
Cd298 Cd 0.89291 0.56463 0.73797 0.0
C299 C 0.88051 0.51638 0.73564 0.0
O300 O 0.91847 0.56913 0.71752 0.0
O301 O 0.89043 0.55833 0.70304 0.0
O302 O 0.88904 0.59788 0.74652 0.0
C303 C 0.90787 0.56471 0.70189 0.0
O304 O 0.8968 0.51566 0.73002 0.0
C305 C 0.87107 0.59475 0.7423 0.0
O306 O 0.87586 0.53246 0.74081 0.0
O307 O 0.86328 0.57756 0.7364 0.0
C308 C 0.74786 0.42488 0.51518 0.0
O309 O 0.73699 0.43329 0.50479 0.0
Cd310 Cd 0.70344 0.42362 0.49761 0.0
O311 O 0.74104 0.41004 0.52311 0.0
Cd312 Cd 0.70904 0.38984 0.52536 0.0
C313 C 0.70332 0.37774 0.4769 0.0
O314 O 0.69356 0.41758 0.52805 0.0
O315 O 0.67403 0.39078 0.52574 0.0
O316 O 0.71978 0.38715 0.55882 0.0
C317 C 0.67659 0.40905 0.52798 0.0
O318 O 0.70057 0.39489 0.47524 0.0
C319 C 0.71657 0.36888 0.55769 0.0
O320 O 0.70718 0.37223 0.49333 0.0
O321 O 0.7097 0.36016 0.54149 0.0
C322 C 0.60164 0.50673 0.30431 0.0
O323 O 0.59318 0.51492 0.29157 0.0
Cd324 Cd 0.60066 0.51707 0.2597 0.0
O325 O 0.61621 0.49929 0.30091 0.0
Cd326 Cd 0.63468 0.4967 0.27267 0.0
C327 C 0.64514 0.54453 0.26798 0.0
O328 O 0.60669 0.48593 0.24969 0.0
O329 O 0.63288 0.49389 0.23747 0.0
O330 O 0.64036 0.46516 0.2812 0.0
C331 C 0.61538 0.48633 0.23498 0.0
O332 O 0.62815 0.54253 0.25994 0.0
C333 C 0.65798 0.46807 0.27908 0.0
O334 O 0.65102 0.53067 0.27582 0.0
O335 O 0.66507 0.48473 0.27502 0.0
Tb336 Tb 0.00039 0.0399 0.00016 0.0
C337 C 0.00443 0.00608 0.97046 0.0
Tb338 Tb 0.98924 -0.00239 0.01027 0.0
O339 O 0.03067 0.03738 0.00137 0.0
O340 O 0.01238 0.02055 0.01707 0.0
O341 O 0.00099 0.02397 0.97282 0.0
C342 C 0.98895 0.96288 0.02262 0.0
O343 O 0.00268 0.99393 0.98388 0.0
C344 C 0.96074 0.01438 -0.00152 0.0
C345 C 0.98435 0.03202 0.0396 0.0
O346 O 0.97928 0.96625 0.00712 0.0
O347 O -0.00123 0.97895 0.03092 0.0
O348 O 0.95913 0.0002 0.00911 0.0
O349 O 0.97727 0.01679 0.99326 0.0
O350 O 0.98626 0.01365 0.03705 0.0
O351 O 0.98819 0.04446 0.02684 0.0
C352 C 0.00024 0.07556 0.99023 0.0
O353 O 0.01463 0.06977 -0.00084 0.0
O354 O 0.98605 0.06134 0.98698 0.0
C355 C 0.02891 0.02307 0.01183 0.0
Tb356 Tb 0.2582 0.79561 0.26444 0.0
C357 C 0.28943 0.76812 0.26103 0.0
Tb358 Tb 0.24556 0.75219 0.25654 0.0
O359 O 0.25314 0.79537 0.29452 0.0
O360 O 0.26002 0.77144 0.27977 0.0
O361 O 0.28534 0.78579 0.26075 0.0
C362 C 0.2306 0.71521 0.25795 0.0
O363 O 0.27615 0.75264 0.26136 0.0
C364 C 0.25054 0.77118 0.22644 0.0
C365 C 0.21447 0.77925 0.2602 0.0
O366 O 0.23167 0.72397 0.24261 0.0
O367 O 0.23803 0.72724 0.27257 0.0
O368 O 0.25324 0.75352 0.22727 0.0
O369 O 0.24387 0.7765 0.24136 0.0
O370 O 0.21884 0.76193 0.26235 0.0
O371 O 0.22766 0.79424 0.258 0.0
C372 C 0.27302 0.83159 0.25885 0.0
O373 O 0.26286 0.8268 0.27254 0.0
O374 O 0.27491 0.81619 0.24854 0.0
C375 C 0.25454 0.77733 0.29518 0.0
Tb376 Tb 0.51367 0.01986 0.49856 0.0
C377 C 0.50595 0.01526 0.54072 0.0
Tb378 Tb 0.47533 0.0276 0.51058 0.0
O379 O 0.52855 0.04547 0.51676 0.0
O380 O 0.50074 0.04415 0.50395 0.0
O381 O 0.51502 0.00936 0.52647 0.0
C382 C 0.44857 0.04408 0.52549 0.0
O383 O 0.49151 0.02484 0.53809 0.0
C384 C 0.47558 0.99311 0.49433 0.0
C385 C 0.48275 0.0311 0.46786 0.0
O386 O 0.44947 0.02585 0.5252 0.0
O387 O 0.46259 0.05279 0.51741 0.0
O388 O 0.46061 0.00136 0.49278 0.0
O389 O 0.48844 0.00354 0.50561 0.0
O390 O 0.47221 0.03541 0.48152 0.0
O391 O 0.49863 0.02385 0.47118 0.0
C392 C 0.54098 0.00426 0.48361 0.0
O393 O 0.54248 0.02221 0.4901 0.0
O394 O 0.52404 0.99523 0.48543 0.0
C395 C 0.51386 0.05411 0.51543 0.0
Tb396 Tb 0.25593 0.27968 0.78356 0.0
C397 C 0.26525 0.3133 0.75685 0.0
Tb398 Tb 0.24699 0.27095 0.73854 0.0
O399 O 0.2853 0.27294 0.78578 0.0
O400 O 0.26872 0.27131 0.76025 0.0
O401 O 0.26185 0.30867 0.77424 0.0
C402 C 0.24892 0.26522 0.70142 0.0
O403 O 0.26204 0.30061 0.74147 0.0
C404 C 0.21827 0.27522 0.75789 0.0
C405 C 0.24071 0.23673 0.76449 0.0
O406 O 0.23775 0.27554 0.70923 0.0
O407 O 0.25891 0.25813 0.7145 0.0
O408 O 0.21642 0.26483 0.74159 0.0
O409 O 0.23524 0.2838 0.76157 0.0
O410 O 0.24376 0.24194 0.74726 0.0
O411 O 0.24295 0.24911 0.78008 0.0
C412 C 0.24892 0.28841 0.819 0.0
O413 O 0.23808 0.2757 0.80669 0.0
O414 O 0.26398 0.29593 0.81148 0.0
C415 C 0.28486 0.26935 0.76737 0.0
Tb416 Tb 0.98616 0.02529 0.48834 0.0
C417 C 0.95794 0.007 0.51529 0.0
Tb418 Tb 0.0027 0.01708 0.52802 0.0
O419 O 0.97735 0.99451 0.47961 0.0
O420 O 0.00086 0.00447 0.49967 0.0
O421 O 0.9599 0.01797 0.501 0.0
C422 C 0.01402 0.0014 0.55913 0.0
O423 O 0.97274 0.00305 0.5262 0.0
C424 C -0.00198 0.05269 0.52493 0.0
C425 C 0.03049 0.03717 0.50151 0.0
O426 O 0.00442 0.01542 0.5588 0.0
O427 O 0.01725 0.99619 0.54194 0.0
O428 O 0.0109 0.04802 0.53701 0.0
O429 O 0.98768 0.03764 0.51669 0.0
O430 O 0.0291 0.02601 0.51571 0.0
O431 O 0.01537 0.04089 0.49108 0.0
C432 C 0.97717 0.03985 0.45589 0.0
O433 O 0.98996 0.02907 0.45863 0.0
O434 O 0.96917 0.04231 0.47139 0.0
C435 C 0.99006 0.98954 0.49164 0.0
Tb436 Tb 0.26895 0.77363 0.77424 0.0
C437 C 0.23748 0.78101 0.80096 0.0
Tb438 Tb 0.22834 0.77238 0.7557 0.0
O439 O 0.27208 0.80446 0.78234 0.0
O440 O 0.25444 0.79174 0.7579 0.0
O441 O 0.25487 0.77689 0.79999 0.0
C442 C 0.19561 0.78084 0.74043 0.0
O443 O 0.22504 0.78058 0.7856 0.0
C444 C 0.23702 0.73873 0.76222 0.0
C445 C 0.25952 0.76459 0.72961 0.0
O446 O 0.20125 0.76447 0.73766 0.0
O447 O 0.20819 0.79239 0.75224 0.0
O448 O 0.22403 0.74108 0.74899 0.0
O449 O 0.24273 0.75449 0.77225 0.0
O450 O 0.24411 0.77263 0.7308 0.0
O451 O 0.27004 0.76128 0.74507 0.0
C452 C 0.30313 0.76711 0.78749 0.0
O453 O 0.30005 0.78003 0.77612 0.0
O454 O 0.28697 0.75782 0.79134 0.0
C455 C 0.25961 0.80715 0.76874 0.0
Tb456 Tb 0.48184 0.01533 0.00649 0.0
C457 C 0.51476 0.99163 0.00761 0.0
Tb458 Tb 0.52264 0.037 0.0051 0.0
O459 O 0.48249 -0.00039 0.97868 0.0
O460 O 0.4981 0.02737 0.98552 0.0
O461 O 0.49754 0.99245 0.0128 0.0
C462 C 0.55772 0.05015 -0.00313 0.0
O463 O 0.52585 0.00669 0.00202 0.0
C464 C 0.50974 0.03953 0.03842 0.0
C465 C 0.49007 0.06105 0.00604 0.0
O466 O 0.55346 0.04355 0.01277 0.0
O467 O 0.5422 0.04936 0.98549 0.0
O468 O 0.52253 0.05263 0.033 0.0
O469 O 0.50632 0.02523 0.02606 0.0
O470 O 0.5071 0.06036 0.00029 0.0
O471 O 0.47892 0.04565 0.01094 0.0
C472 C 0.44641 0.00231 0.014 0.0
O473 O 0.45096 0.0111 -0.00074 0.0
O474 O 0.46184 0.00078 0.02456 0.0
C475 C 0.49497 0.013 0.97327 0.0
Tb476 Tb 0.23625 0.26909 0.27056 0.0
C477 C 0.26726 0.28037 0.307 0.0
Tb478 Tb 0.27675 0.28803 0.26553 0.0
O479 O 0.24019 0.24243 0.25456 0.0
O480 O 0.26311 0.2604 0.27071 0.0
O481 O 0.24903 0.27447 0.30022 0.0
C482 C 0.3136 0.29469 0.26109 0.0
O483 O 0.28078 0.28602 0.29603 0.0
C484 C 0.25138 0.31101 0.26466 0.0
C485 C 0.24661 0.2761 0.22985 0.0
O486 O 0.30446 0.3073 0.26861 0.0
O487 O 0.30205 0.27853 0.25619 0.0
O488 O 0.26636 0.31334 0.25554 0.0
O489 O 0.25215 0.29734 0.27488 0.0
O490 O 0.26473 0.27731 0.23659 0.0
O491 O 0.23284 0.27597 0.24115 0.0
C492 C 0.20154 0.25941 0.28109 0.0
O493 O 0.20735 0.27477 0.2729 0.0
O494 O 0.2152 0.24954 0.28317 0.0
C495 C 0.2585 0.24548 0.25922 0.0
Tb496 Tb 0.48479 0.52573 0.98768 0.0
C497 C 0.45629 0.50802 0.01472 0.0
Tb498 Tb 0.50102 0.51779 0.02758 0.0
O499 O 0.47566 0.49492 0.97933 0.0
O500 O 0.49922 0.50488 -0.00065 0.0
O501 O 0.45839 0.51877 0.00028 0.0
C502 C 0.51199 0.50241 0.05901 0.0
O503 O 0.47099 0.50408 0.02577 0.0
C504 C 0.49687 0.55347 0.02401 0.0
C505 C 0.52919 0.53706 0.00098 0.0
O506 O 0.50272 0.51668 0.05844 0.0
O507 O 0.51507 0.49678 0.04188 0.0
O508 O 0.50961 0.54874 0.03621 0.0
O509 O 0.48635 0.53845 0.01591 0.0
O510 O 0.52753 0.52613 0.01533 0.0
O511 O 0.51423 0.54085 0.99031 0.0
C512 C 0.47592 0.53987 0.95495 0.0
O513 O 0.48843 0.52879 0.95781 0.0
O514 O 0.46818 0.5429 0.9705 0.0
C515 C 0.48831 0.48997 0.99145 0.0
Tb516 Tb 0.76745 0.27392 0.27373 0.0
C517 C 0.73581 0.28044 0.30052 0.0
Tb518 Tb 0.7267 0.27179 0.25528 0.0
O519 O 0.76999 0.30464 0.28196 0.0
O520 O 0.75245 0.29173 0.25748 0.0
O521 O 0.75335 0.27675 0.29951 0.0
C522 C 0.69347 0.27924 0.24017 0.0
O523 O 0.72329 0.27978 0.28519 0.0
C524 C 0.73632 0.23847 0.26158 0.0
C525 C 0.75802 0.26492 0.22905 0.0
O526 O 0.70624 0.29139 0.25121 0.0
O527 O 0.69924 0.26287 0.23805 0.0
O528 O 0.72332 0.2406 0.24826 0.0
O529 O 0.74161 0.25422 0.27174 0.0
O530 O 0.74231 0.27244 0.23028 0.0
O531 O 0.76877 0.26189 0.24448 0.0
C532 C 0.80183 0.2679 0.28693 0.0
O533 O 0.79855 0.28086 0.27569 0.0
O534 O 0.78578 0.2583 0.29068 0.0
C535 C 0.75736 0.30712 0.26841 0.0
Tb536 Tb 0.9817 0.51445 0.50715 0.0
C537 C 0.01417 0.49013 0.50577 0.0
Tb538 Tb 0.02285 0.53588 0.50695 0.0
O539 O 0.98197 0.50086 0.47833 0.0
O540 O -0.00174 0.52794 0.48709 0.0
O541 O -0.00307 0.49066 0.51109 0.0
C542 C 0.05786 0.54954 0.49881 0.0
O543 O 0.02556 0.50568 0.50153 0.0
C544 C 0.01022 0.5359 0.54048 0.0
C545 C 0.99087 0.56038 0.51054 0.0
O546 O 0.05374 0.54181 0.51423 0.0
O547 O 0.04223 0.54959 0.48788 0.0
O548 O 0.02341 0.5492 0.53599 0.0
O549 O 0.00627 0.52259 0.52703 0.0
O550 O 0.00775 0.55988 0.50435 0.0
O551 O 0.97951 0.54465 0.51448 0.0
C552 C 0.9459 0.50104 0.51338 0.0
O553 O 0.95088 0.51212 0.50032 0.0
O554 O 0.96109 0.49745 0.52294 0.0
C555 C -0.00519 0.51445 0.47386 0.0
Tb556 Tb 0.75542 0.78111 0.28293 0.0
C557 C 0.76576 0.81561 0.25766 0.0
Tb558 Tb 0.74702 0.77381 0.23782 0.0
O559 O 0.78466 0.77412 0.28524 0.0
O560 O 0.76841 0.77314 0.25959 0.0
O561 O 0.76208 0.81052 0.27485 0.0
C562 C 0.74956 0.76983 0.20069 0.0
O563 O 0.76252 0.80333 0.24196 0.0
C564 C 0.71813 0.77791 0.25697 0.0
C565 C 0.74025 0.7386 0.2624 0.0
O566 O 0.73831 0.77982 0.20881 0.0
O567 O 0.75922 0.76203 0.21345 0.0
O568 O 0.71636 0.7679 0.24047 0.0
O569 O 0.73516 0.78624 0.261 0.0
O570 O 0.74326 0.74435 0.24535 0.0
O571 O 0.74254 0.75054 0.27831 0.0
C572 C 0.74713 0.78702 0.31833 0.0
O573 O 0.73638 0.7757 0.30481 0.0
O574 O 0.76277 0.79493 0.31199 0.0
C575 C 0.78442 0.7709 0.26682 0.0
Tb576 Tb 0.75853 0.29532 0.76335 0.0
C577 C 0.79006 0.26826 0.75959 0.0
Tb578 Tb 0.74629 0.25188 0.75536 0.0
O579 O 0.75336 0.29484 0.79337 0.0
O580 O 0.7607 0.27114 0.77861 0.0
O581 O 0.78576 0.28585 0.7594 0.0
C582 C 0.73211 0.21479 0.75726 0.0
O583 O 0.77694 0.25268 0.76002 0.0
C584 C 0.75094 0.27096 0.72525 0.0
C585 C 0.71484 0.2786 0.75883 0.0
O586 O 0.73879 0.22724 0.77177 0.0
O587 O 0.73343 0.22321 0.74172 0.0
O588 O 0.75371 0.25331 0.72599 0.0
O589 O 0.74432 0.27619 0.74023 0.0
O590 O 0.71933 0.2613 0.76087 0.0
O591 O 0.72796 0.29373 0.75682 0.0
C592 C 0.77338 0.33147 0.75834 0.0
O593 O 0.76324 0.32642 0.77197 0.0
O594 O 0.77515 0.31623 0.7477 0.0
C595 C 0.75509 0.27689 0.79401 0.0
Tb596 Tb 0.73561 0.7679 0.76918 0.0
C597 C 0.76627 0.77876 0.80589 0.0
Tb598 Tb 0.77627 0.78677 0.76462 0.0
O599 O 0.73954 0.7412 0.75325 0.0
O600 O 0.76243 0.75912 0.76952 0.0
O601 O 0.74807 0.77299 0.79894 0.0
C602 C 0.81324 0.79364 0.76071 0.0
O603 O 0.77994 0.78443 0.79509 0.0
C604 C 0.75096 0.80982 0.7636 0.0
C605 C 0.74653 0.77504 0.72866 0.0
O606 O 0.80395 0.8061 0.76827 0.0
O607 O 0.80175 0.7775 0.75547 0.0
O608 O 0.76603 0.81216 0.75461 0.0
O609 O 0.75159 0.7961 0.77376 0.0
O610 O 0.76458 0.77618 0.73557 0.0
O611 O 0.73263 0.77488 0.7398 0.0
C612 C 0.70058 0.75877 0.77908 0.0
O613 O 0.70681 0.77403 0.77092 0.0
O614 O 0.71402 0.74866 0.78149 0.0
C615 C 0.75785 0.74423 0.75799 0.0
Tb616 Tb 0.50089 0.54119 0.50095 0.0
C617 C 0.50674 0.5077 0.47201 0.0
Tb618 Tb 0.48971 0.49863 0.51038 0.0
O619 O 0.53159 0.54049 0.50611 0.0
O620 O 0.51203 0.52208 0.51877 0.0
O621 O 0.50114 0.52471 0.47375 0.0
C622 C 0.48923 0.46425 0.52372 0.0
O623 O 0.50591 0.49595 0.48579 0.0
C624 C 0.46146 0.51455 0.49615 0.0
C625 C 0.48289 0.53289 0.53926 0.0
O626 O 0.48328 0.46687 0.50633 0.0
O627 O 0.49556 0.48085 0.53326 0.0
O628 O 0.45928 0.4999 0.50617 0.0
O629 O 0.47851 0.51764 0.49244 0.0
O630 O 0.48447 0.51444 0.53649 0.0
O631 O 0.48799 0.54573 0.52719 0.0
C632 C 0.50133 0.5768 0.49049 0.0
O633 O 0.51565 0.56771 0.49119 0.0
O634 O 0.48676 0.56591 0.49586 0.0
C635 C 0.52924 0.52552 0.51563 0.0
Tb636 Tb 0.01592 0.52196 -0.00046 0.0
C637 C 0.00762 0.51396 0.04111 0.0
Tb638 Tb 0.97683 0.52685 0.0115 0.0
O639 O 0.02942 0.54771 0.01823 0.0
O640 O 0.00146 0.5451 0.00533 0.0
O641 O 0.01747 0.50989 0.0268 0.0
C642 C 0.94924 0.54093 0.02767 0.0
O643 O -0.00773 0.52227 0.03877 0.0
C644 C 0.97902 0.49315 -0.00549 0.0
C645 C 0.98487 0.53396 0.96951 0.0
O646 O 0.96598 0.55046 0.02599 0.0
O647 O 0.94797 0.52329 0.02027 0.0
O648 O 0.96346 0.50045 0.99326 0.0
O649 O 0.99145 0.50392 0.00602 0.0
O650 O 0.97411 0.5371 0.98336 0.0
O651 O 0.00098 0.527 0.97243 0.0
C652 C 0.0446 0.50888 0.98443 0.0
O653 O 0.04578 0.52549 0.9941 0.0
O654 O 0.02714 0.49987 0.98298 0.0
C655 C 0.01412 0.55538 0.01708 0.0
C656 C 0.00321 0.21221 0.89632 0.0
C657 C 0.00781 0.23095 0.90563 0.0
C658 C 0.00116 0.19621 0.90679 0.0
C659 C 0.98845 0.16483 0.93175 0.0
H660 H 0.02389 0.1652 0.9768 0.0
C661 C 0.98311 0.10014 0.9766 0.0
C662 C 0.0003 0.09471 0.98342 0.0
C663 C 0.98315 0.1177 0.96884 0.0
C664 C 0.01395 0.16479 0.96419 0.0
H665 H 0.01348 0.24761 0.93327 0.0
H666 H 0.00956 0.21969 0.95156 0.0
H667 H 0.02556 0.19367 0.95944 0.0
H668 H 0.03099 0.10335 0.98785 0.0
H669 H 0.03122 0.13373 0.97373 0.0
H670 H 0.97742 0.13569 0.93591 0.0
C671 C 0.00788 0.21733 0.93615 0.0
C672 C 0.01473 0.18124 0.95436 0.0
C673 C 0.01 0.23335 0.92567 0.0
C674 C 0.01753 0.10729 0.98276 0.0
C675 C 0.01762 0.12475 0.97476 0.0
C676 C 0.98775 0.14835 0.94148 0.0
C677 C 0.00358 0.19854 0.92684 0.0
C678 C 0.0021 0.18141 0.93791 0.0
C679 C 0.00043 0.13009 0.96747 0.0
C680 C 0.00059 0.14804 0.95775 0.0
H681 H 0.0015 0.20986 0.8809 0.0
H682 H -0.00185 0.18198 0.89911 0.0
H683 H 0.97832 0.16451 0.9193 0.0
H684 H 0.9696 0.09073 0.9771 0.0
H685 H 0.96962 0.12148 0.96377 0.0
C686 C 0.06233 0.78192 0.1736 0.0
C687 C 0.04574 0.78126 0.18283 0.0
C688 C 0.08017 0.78373 0.18416 0.0
C689 C 0.11707 0.79709 0.21011 0.0
H690 H 0.12149 0.76557 0.25214 0.0
C691 C 0.1892 0.79927 0.254 0.0
C692 C 0.19415 0.78121 0.25688 0.0
C693 C 0.17045 0.80077 0.24771 0.0
C694 C 0.12049 0.77446 0.24044 0.0
H695 H 0.03491 0.78251 0.21041 0.0
H696 H 0.06607 0.78582 0.22884 0.0
H697 H 0.09022 0.76557 0.23501 0.0
H698 H 0.18299 0.7507 0.25653 0.0
H699 H 0.15032 0.75332 0.24543 0.0
H700 H 0.14737 0.80545 0.21504 0.0
C701 C 0.06526 0.78469 0.21343 0.0
C702 C 0.10255 0.77461 0.23075 0.0
C703 C 0.04741 0.78291 0.20287 0.0
C704 C 0.17969 0.76484 0.25445 0.0
C705 C 0.16092 0.76635 0.24813 0.0
C706 C 0.13498 0.79697 0.21981 0.0
C707 C 0.08182 0.78491 0.20419 0.0
C708 C 0.10068 0.78574 0.21531 0.0
C709 C 0.15621 0.78426 0.24415 0.0
C710 C 0.13694 0.78548 0.23495 0.0
H711 H 0.06152 0.78065 0.15816 0.0
H712 H 0.09263 0.78364 0.17659 0.0
H713 H 0.11609 0.80599 0.19842 0.0
H714 H 0.19993 0.81221 0.25591 0.0
H715 H 0.1672 0.81484 0.24517 0.0
C716 C 0.51632 0.84674 0.41553 0.0
C717 C 0.51601 0.84668 0.39565 0.0
C718 C 0.51208 0.86254 0.42647 0.0
C719 C 0.48364 0.89962 0.42546 0.0
H720 H 0.52079 0.92964 0.46455 0.0
C721 C 0.4697 0.97012 0.46481 0.0
C722 C 0.47816 0.97523 0.48359 0.0
C723 C 0.474 0.95417 0.45412 0.0
C724 C 0.51004 0.92123 0.45399 0.0
H725 H 0.51086 0.86305 0.37162 0.0
H726 H 0.50283 0.89036 0.39074 0.0
H727 H 0.52901 0.90206 0.44629 0.0
H728 H 0.49698 0.96747 0.50633 0.0
H729 H 0.50362 0.93909 0.48827 0.0
H730 H 0.46431 0.91807 0.43349 0.0
C731 C 0.50666 0.87829 0.39781 0.0
C732 C 0.51487 0.90553 0.44345 0.0
C733 C 0.51136 0.86273 0.38693 0.0
C734 C 0.49037 0.96381 0.49179 0.0
C735 C 0.49435 0.94767 0.48131 0.0
C736 C 0.47861 0.91505 0.43629 0.0
C737 C 0.50698 0.87831 0.41764 0.0
C738 C 0.50175 0.89468 0.42904 0.0
C739 C 0.48654 0.94279 0.46218 0.0
C740 C 0.49176 0.92616 0.45069 0.0
H741 H 0.51987 0.83458 0.42263 0.0
H742 H 0.51238 0.86229 0.44177 0.0
H743 H 0.47326 0.89133 0.41446 0.0
H744 H 0.46041 0.9789 0.45816 0.0
H745 H 0.46791 0.95115 0.43939 0.0
C746 C 0.43235 0.24258 0.70454 0.0
C747 C 0.43651 0.25085 0.68767 0.0
C748 C 0.41515 0.2437 0.71193 0.0
C749 C 0.36602 0.25126 0.70056 0.0
H750 H 0.37004 0.26778 0.75458 0.0
C751 C 0.30202 0.27018 0.73828 0.0
C752 C 0.30089 0.26537 0.75702 0.0
C753 C 0.31794 0.26765 0.72897 0.0
C754 C 0.36857 0.26285 0.73955 0.0
H755 H 0.42542 0.26618 0.66499 0.0
H756 H 0.39514 0.26801 0.67797 0.0
H757 H 0.3987 0.26462 0.73961 0.0
H758 H 0.31518 0.25399 0.78074 0.0
H759 H 0.34277 0.24901 0.76441 0.0
H760 H 0.3358 0.24925 0.70056 0.0
C761 C 0.40535 0.2607 0.68541 0.0
C762 C 0.38504 0.26112 0.73096 0.0
C763 C 0.4227 0.25971 0.67803 0.0
C764 C 0.31576 0.25778 0.76626 0.0
C765 C 0.3316 0.25508 0.75693 0.0
C766 C 0.34946 0.25284 0.70921 0.0
C767 C 0.40158 0.253 0.70263 0.0
C768 C 0.38395 0.25521 0.71141 0.0
C769 C 0.33304 0.26024 0.73825 0.0
C770 C 0.35053 0.25855 0.72885 0.0
H771 H 0.44256 0.23554 0.71232 0.0
H772 H 0.41252 0.23736 0.72507 0.0
H773 H 0.36477 0.24656 0.68548 0.0
H774 H 0.29099 0.27664 0.73111 0.0
H775 H 0.31869 0.2721 0.71474 0.0
C776 C 0.98121 0.83289 0.55664 0.0
C777 C 0.97798 0.8348 0.57591 0.0
C778 C 0.98065 0.84832 0.54558 0.0
C779 C 0.96423 0.89495 0.5432 0.0
H780 H 0.00753 0.90786 0.51468 0.0
C781 C 0.00418 0.96469 0.50842 0.0
C782 C 0.98842 0.97038 0.49859 0.0
C783 C 0.00214 0.94705 0.51625 0.0
C784 C -0.00462 0.90443 0.52259 0.0
H785 H 0.97075 0.85401 0.59846 0.0
H786 H 0.9697 0.88089 0.57914 0.0
H787 H 0.00431 0.87873 0.53128 0.0
H788 H 0.95834 0.9621 0.48865 0.0
H789 H 0.95477 0.9312 0.50221 0.0
H790 H 0.95556 0.92089 0.53491 0.0
C791 C 0.97264 0.86748 0.57257 0.0
C792 C -0.00659 0.88766 0.53191 0.0
C793 C 0.97332 0.85211 0.58366 0.0
C794 C 0.97072 0.95798 0.49618 0.0
C795 C 0.96864 0.94041 0.50407 0.0
C796 C 0.96613 0.91165 0.53378 0.0
C797 C 0.9767 0.86588 0.55355 0.0
C798 C 0.97793 0.88287 0.54248 0.0
C799 C 0.98428 0.93485 0.51435 0.0
C800 C 0.98183 0.91665 0.52356 0.0
H801 H 0.98481 0.81971 0.55026 0.0
H802 H 0.98361 0.84663 0.53088 0.0
H803 H 0.95211 0.89154 0.55116 0.0
H804 H 0.01802 0.97395 0.51017 0.0
H805 H 0.01442 0.94319 0.5242 0.0
C806 C 0.45384 0.76226 0.88349 0.0
C807 C 0.46859 0.77572 0.87798 0.0
C808 C 0.43545 0.75965 0.8739 0.0
C809 C 0.41091 0.76641 0.82757 0.0
H810 H 0.36542 0.76203 0.85375 0.0
C811 C 0.33841 0.77653 0.79175 0.0
C812 C 0.32195 0.76476 0.79618 0.0
C813 C 0.35617 0.77557 0.80122 0.0
C814 C 0.37798 0.76291 0.84623 0.0
H815 H 0.47539 0.79765 0.85872 0.0
H816 H 0.4434 0.79324 0.84225 0.0
H817 H 0.39666 0.7654 0.87216 0.0
H818 H 0.31101 0.74231 0.81337 0.0
H819 H 0.3422 0.74054 0.82994 0.0
H820 H 0.39234 0.7642 0.80168 0.0
C821 C 0.44612 0.7844 0.85366 0.0
C822 C 0.39584 0.76488 0.85677 0.0
C823 C 0.46442 0.78701 0.86322 0.0
C824 C 0.32354 0.75158 0.80979 0.0
C825 C 0.34133 0.75065 0.81931 0.0
C826 C 0.39309 0.76443 0.81705 0.0
C827 C 0.43154 0.77044 0.85863 0.0
C828 C 0.41249 0.76701 0.84755 0.0
C829 C 0.35778 0.76282 0.81529 0.0
C830 C 0.37648 0.763 0.8263 0.0
H831 H 0.4566 0.75333 0.89482 0.0
H832 H 0.42447 0.74877 0.878 0.0
H833 H 0.42349 0.76759 0.82005 0.0
H834 H 0.33751 0.78683 0.78133 0.0
H835 H 0.36856 0.78529 0.79797 0.0
C836 C 0.4867 0.20709 0.09767 0.0
C837 C 0.4819 0.22377 0.09038 0.0
C838 C 0.48349 0.18963 0.08623 0.0
C839 C 0.47902 0.16979 0.0364 0.0
H840 H 0.46305 0.12172 0.05781 0.0
C841 C 0.49714 0.09711 0.00811 0.0
C842 C 0.48438 0.08008 0.00975 0.0
C843 C 0.4932 0.11499 0.01485 0.0
C844 C 0.4672 0.13498 0.05144 0.0
H845 H 0.4696 0.23507 0.06538 0.0
H846 H 0.46403 0.20443 0.04533 0.0
H847 H 0.46227 0.15212 0.07615 0.0
H848 H 0.45677 0.06865 0.01846 0.0
H849 H 0.44984 0.09982 0.02995 0.0
H850 H 0.48421 0.15259 0.01177 0.0
C851 C 0.47037 0.20498 0.05992 0.0
C852 C 0.46697 0.15241 0.06206 0.0
C853 C 0.47348 0.22249 0.07144 0.0
C854 C 0.46702 0.08145 0.01711 0.0
C855 C 0.46307 0.09932 0.02381 0.0
C856 C 0.47927 0.15231 0.02575 0.0
C857 C 0.47546 0.1884 0.06719 0.0
C858 C 0.47333 0.17001 0.05487 0.0
C859 C 0.47639 0.11622 0.02333 0.0
C860 C 0.47376 0.13472 0.03334 0.0
H861 H 0.49319 0.20753 0.1122 0.0
H862 H 0.48784 0.17719 0.09218 0.0
H863 H 0.48409 0.18311 0.03051 0.0
H864 H 0.51065 0.09662 0.00252 0.0
H865 H 0.50385 0.1277 0.0144 0.0
C866 C 0.08564 0.25013 0.3951 0.0
C867 C 0.06649 0.24426 0.38757 0.0
C868 C 0.10016 0.24927 0.38336 0.0
C869 C 0.11133 0.22841 0.33719 0.0
H870 H 0.14709 0.27634 0.33892 0.0
C871 C 0.17196 0.26934 0.29128 0.0
C872 C 0.18358 0.2553 0.2896 0.0
C873 C 0.15653 0.26654 0.30204 0.0
C874 C 0.13709 0.26292 0.33818 0.0
H875 H 0.04753 0.23163 0.36237 0.0
H876 H 0.07284 0.23003 0.34195 0.0
H877 H 0.12337 0.27311 0.36154 0.0
H878 H 0.18777 0.22695 0.29673 0.0
H879 H 0.16072 0.22199 0.31541 0.0
H880 H 0.12504 0.21831 0.31369 0.0
C881 C 0.07666 0.23536 0.35684 0.0
C882 C 0.12374 0.26097 0.3513 0.0
C883 C 0.06217 0.23638 0.3685 0.0
C884 C 0.17897 0.23799 0.29786 0.0
C885 C 0.16348 0.23513 0.30849 0.0
C886 C 0.12482 0.23031 0.32414 0.0
C887 C 0.09574 0.24231 0.364 0.0
C888 C 0.11069 0.24373 0.3509 0.0
C889 C 0.15247 0.24961 0.31112 0.0
C890 C 0.13774 0.24763 0.32446 0.0
H891 H 0.08935 0.25622 0.40979 0.0
H892 H 0.11481 0.25451 0.38926 0.0
H893 H 0.10143 0.21496 0.3366 0.0
H894 H 0.17526 0.2828 0.28501 0.0
H895 H 0.14808 0.27782 0.30367 0.0
C896 C 0.88005 0.05625 0.16194 0.0
C897 C 0.88899 0.06486 0.17981 0.0
C898 C 0.89056 0.05549 0.14627 0.0
C899 C 0.9155 0.06246 0.11362 0.0
H900 H 0.96456 0.047 0.12539 0.0
C901 C 0.96809 0.05546 0.05733 0.0
C902 C 0.97588 0.03845 0.05671 0.0
C903 C 0.95806 0.06041 0.07244 0.0
C904 C 0.9509 0.0513 0.12188 0.0
H905 H 0.91547 0.08067 0.19497 0.0
H906 H 0.93361 0.07954 0.1677 0.0
H907 H 0.94514 0.05286 0.15095 0.0
H908 H 0.97969 0.01358 0.07175 0.0
H909 H 0.96234 0.02231 0.09817 0.0
H910 H 0.92116 0.06041 0.08442 0.0
C911 C 0.91868 0.07298 0.16584 0.0
C912 C 0.93985 0.05485 0.13653 0.0
C913 C 0.90824 0.0737 0.18144 0.0
C914 C 0.97392 0.02681 0.07181 0.0
C915 C 0.96403 0.03183 0.08698 0.0
C916 C 0.92663 0.05899 0.09894 0.0
C917 C 0.91013 0.06335 0.14825 0.0
C918 C 0.92199 0.06037 0.13257 0.0
C919 C 0.95576 0.04854 0.08732 0.0
C920 C 0.94437 0.05321 0.10292 0.0
H921 H 0.86522 0.04935 0.16028 0.0
H922 H 0.8836 0.04793 0.13288 0.0
H923 H 0.90185 0.06678 0.11017 0.0
H924 H 0.96918 0.06468 0.04584 0.0
H925 H 0.95199 0.07346 0.07242 0.0
C926 C 0.29499 0.6924 0.43354 0.0
C927 C 0.29212 0.7008 0.45148 0.0
C928 C 0.29202 0.70177 0.41713 0.0
C929 C 0.26503 0.73755 0.39826 0.0
H930 H 0.29712 0.73575 0.35725 0.0
C931 C 0.25428 0.77752 0.33058 0.0
C932 C 0.25735 0.76826 0.31313 0.0
C933 C 0.25856 0.76973 0.34772 0.0
C934 C 0.28785 0.73619 0.36846 0.0
H935 H 0.28449 0.72599 0.46628 0.0
H936 H 0.27945 0.74242 0.43764 0.0
H937 H 0.30557 0.72214 0.38677 0.0
H938 H 0.26698 0.74342 0.29991 0.0
H939 H 0.27396 0.72959 0.32965 0.0
H940 H 0.24718 0.75139 0.37987 0.0
C941 C 0.28379 0.72846 0.43625 0.0
C942 C 0.29276 0.72843 0.38543 0.0
C943 C 0.28686 0.71912 0.4527 0.0
C944 C 0.26435 0.75085 0.31312 0.0
C945 C 0.26859 0.74304 0.33022 0.0
C946 C 0.26009 0.74527 0.38126 0.0
C947 C 0.28602 0.71974 0.41822 0.0
C948 C 0.28135 0.7289 0.40051 0.0
C949 C 0.266 0.7525 0.34779 0.0
C950 C 0.27137 0.74458 0.36607 0.0
H951 H 0.29898 0.67828 0.43207 0.0
H952 H 0.29372 0.69454 0.40349 0.0
H953 H 0.25575 0.7379 0.40946 0.0
H954 H 0.24897 0.79101 0.33103 0.0
H955 H 0.25653 0.77751 0.36096 0.0
C956 C 0.58876 0.98405 0.69081 0.0
C957 C 0.57771 0.97725 0.70502 0.0
C958 C 0.58006 0.98727 0.67315 0.0
C959 C 0.55949 0.98435 0.63366 0.0
H960 H 0.51228 0.00467 0.63109 0.0
C961 C 0.52039 0.99364 0.56157 0.0
C962 C 0.51183 0.01 0.55988 0.0
C963 C 0.52707 0.98891 0.57939 0.0
C964 C 0.52555 -0.00082 0.63157 0.0
H965 H 0.54888 0.9679 0.71164 0.0
H966 H 0.53363 0.97285 0.68052 0.0
H967 H 0.52689 -0.00215 0.66176 0.0
H968 H 0.5032 0.03408 0.57555 0.0
H969 H 0.51553 0.0262 0.60689 0.0
H970 H 0.55876 0.98652 0.60376 0.0
C971 C 0.54904 0.97622 0.68321 0.0
C972 C 0.5338 0.99497 0.64914 0.0
C973 C 0.55777 0.97319 0.701 0.0
C974 C 0.50969 0.02134 0.57647 0.0
C975 C 0.51669 0.01676 0.59441 0.0
C976 C 0.55139 0.98875 0.6162 0.0
C977 C 0.56007 0.98353 0.66913 0.0
C978 C 0.5509 0.98752 0.65041 0.0
C979 C 0.52572 0.0006 0.59605 0.0
C980 C 0.53427 0.99615 0.61486 0.0
H981 H 0.60419 0.98747 0.6935 0.0
H982 H 0.58906 0.99321 0.66285 0.0
H983 H 0.5725 0.9784 0.63397 0.0
H984 H 0.52195 0.98442 0.54904 0.0
H985 H 0.53338 0.97604 0.58006 0.0
C986 C 0.21502 0.35658 0.97098 0.0
C987 C 0.21059 0.37523 0.97154 0.0
C988 C 0.2149 0.3458 0.9536 0.0
C989 C 0.22261 0.35349 0.90459 0.0
H990 H 0.21001 0.29773 0.89676 0.0
C991 C 0.25541 0.31068 0.84871 0.0
C992 C 0.24326 0.29572 0.83718 0.0
C993 C 0.24912 0.31941 0.8647 0.0
C994 C 0.2134 0.31331 0.89866 0.0
H995 H 0.20131 0.3967 0.95431 0.0
H996 H 0.201 0.37776 0.9239 0.0
H997 H 0.20082 0.31477 0.92487 0.0
H998 H 0.21531 0.27763 0.83345 0.0
H999 H 0.20424 0.293 0.86145 0.0
H1000 H 0.23528 0.3521 0.8785 0.0
C1001 C 0.20487 0.37164 0.93695 0.0
C1002 C 0.20826 0.32305 0.91478 0.0
C1003 C 0.205 0.38246 0.95437 0.0
C1004 C 0.22497 0.28911 0.84223 0.0
C1005 C 0.21864 0.29788 0.85822 0.0
C1006 C 0.22775 0.34379 0.88852 0.0
C1007 C 0.21031 0.35342 0.9364 0.0
C1008 C 0.21318 0.34321 0.9181 0.0
C1009 C 0.23054 0.31337 0.86937 0.0
C1010 C 0.22361 0.32359 0.88563 0.0
H1011 H 0.21926 0.3505 0.98395 0.0
H1012 H 0.21935 0.33189 0.95366 0.0
H1013 H 0.22679 0.36901 0.90682 0.0
H1014 H 0.26959 0.31598 0.84511 0.0
H1015 H 0.25874 0.33105 0.87329 0.0
C1016 C 0.93212 0.05646 0.28969 0.0
C1017 C 0.91293 0.05828 0.28553 0.0
C1018 C 0.94045 0.05844 0.30848 0.0
C1019 C 0.93551 0.07507 0.35818 0.0
H1020 H 0.96217 0.03309 0.36928 0.0
C1021 C 0.95498 0.05437 0.43435 0.0
C1022 C 0.97192 0.04701 0.4376 0.0
C1023 C 0.94908 0.05903 0.41617 0.0
C1024 C 0.95511 0.04513 0.36642 0.0
H1025 H 0.88775 0.0647 0.29777 0.0
H1026 H 0.90233 0.06787 0.33081 0.0
H1027 H 0.94948 0.03553 0.33679 0.0
H1028 H -0.00327 0.04007 0.42509 0.0
H1029 H 0.98676 0.04867 0.39355 0.0
H1030 H 0.94102 0.08447 0.38805 0.0
C1031 C 0.9109 0.06504 0.31943 0.0
C1032 C 0.94779 0.0465 0.34778 0.0
C1033 C 0.90254 0.06311 0.30054 0.0
C1034 C 0.98345 0.04546 0.42282 0.0
C1035 C 0.97769 0.0503 0.40476 0.0
C1036 C 0.94293 0.07373 0.37694 0.0
C1037 C 0.92978 0.0622 0.32356 0.0
C1038 C 0.93792 0.06146 0.34343 0.0
C1039 C 0.96015 0.05653 0.40107 0.0
C1040 C 0.95281 0.05872 0.38123 0.0
H1041 H 0.94064 0.05305 0.27845 0.0
H1042 H 0.95516 0.05657 0.31124 0.0
H1043 H 0.928 0.08678 0.35518 0.0
H1044 H 0.94592 0.05575 0.44562 0.0
H1045 H 0.93546 0.06371 0.41375 0.0
C1046 C 0.29065 0.70556 0.56773 0.0
C1047 C 0.28536 0.68537 0.56565 0.0
C1048 C 0.29017 0.71615 0.5853 0.0
C1049 C 0.28897 0.71033 0.63703 0.0
H1050 H 0.26693 0.75684 0.63864 0.0
C1051 C 0.28206 0.75183 0.70877 0.0
C1052 C 0.26488 0.75868 0.71052 0.0
C1053 C 0.28658 0.74509 0.69094 0.0
C1054 C 0.27306 0.74383 0.63845 0.0
H1055 H 0.27564 0.66057 0.58063 0.0
H1056 H 0.27469 0.67883 0.61079 0.0
H1057 H 0.27121 0.74073 0.6079 0.0
H1058 H 0.23915 0.76415 0.6947 0.0
H1059 H 0.24682 0.75203 0.6637 0.0
H1060 H 0.29011 0.71283 0.66739 0.0
C1061 C 0.27945 0.68657 0.59904 0.0
C1062 C 0.27574 0.73473 0.62082 0.0
C1063 C 0.27987 0.67607 0.5816 0.0
C1064 C 0.25254 0.75904 0.69391 0.0
C1065 C 0.25701 0.75218 0.67607 0.0
C1066 C 0.28627 0.71937 0.6546 0.0
C1067 C 0.28453 0.70674 0.60118 0.0
C1068 C 0.28342 0.71765 0.61987 0.0
C1069 C 0.27398 0.74487 0.67436 0.0
C1070 C 0.27803 0.73611 0.65558 0.0
H1071 H 0.29492 0.71319 0.55575 0.0
H1072 H 0.29429 0.73167 0.58648 0.0
H1073 H 0.29519 0.69736 0.63689 0.0
H1074 H 0.29199 0.75147 0.72122 0.0
H1075 H 0.29994 0.73992 0.69019 0.0
C1076 C 0.5628 0.01409 0.82163 0.0
C1077 C 0.56911 -0.0027 0.81489 0.0
C1078 C 0.55627 0.01566 0.83951 0.0
C1079 C 0.55392 0.99286 0.88527 0.0
H1080 H 0.51299 0.0221 0.89011 0.0
C1081 C 0.50612 0.99271 0.94767 0.0
C1082 C 0.50496 0.01105 0.95617 0.0
C1083 C 0.5153 0.99081 0.93123 0.0
C1084 C 0.5245 0.014 0.88897 0.0
H1085 H 0.57382 0.96904 0.82166 0.0
H1086 H 0.56146 0.97131 0.85268 0.0
H1087 H 0.52588 0.01859 0.85974 0.0
H1088 H 0.5125 0.04175 0.95445 0.0
H1089 H 0.52807 0.03842 0.92526 0.0
H1090 H 0.55165 0.98762 0.91452 0.0
C1091 C 0.56207 0.98355 0.84438 0.0
C1092 C 0.53203 0.01207 0.8716 0.0
C1093 C 0.56906 0.98217 0.82656 0.0
C1094 C 0.51325 0.02747 0.94812 0.0
C1095 C 0.52208 0.02556 0.93146 0.0
C1096 C 0.54607 0.99448 0.90259 0.0
C1097 C 0.55536 0.00027 0.851 0.0
C1098 C 0.54703 0.00168 0.86952 0.0
C1099 C 0.5231 0.00722 0.92284 0.0
C1100 C 0.53143 0.00524 0.9046 0.0
H1101 H 0.563 0.02614 0.81307 0.0
H1102 H 0.55189 0.02902 0.84427 0.0
H1103 H 0.56558 0.98495 0.88437 0.0
H1104 H 0.49995 0.97985 0.95375 0.0
H1105 H 0.51586 0.97653 0.92476 0.0
C1106 C 0.24567 0.35774 0.09486 0.0
C1107 C 0.23477 0.35188 0.0772 0.0
C1108 C 0.2473 0.34461 0.10832 0.0
C1109 C 0.25549 0.31181 0.13081 0.0
H1110 H 0.20795 0.28314 0.14343 0.0
C1111 C 0.25529 0.27138 0.19683 0.0
C1112 C 0.24222 0.27634 0.20915 0.0
C1113 C 0.2532 0.27493 0.17775 0.0
C1114 C 0.22134 0.29094 0.13996 0.0
H1115 H 0.21744 0.32757 0.05952 0.0
H1116 H 0.22019 0.30461 0.08323 0.0
H1117 H 0.20796 0.30116 0.11537 0.0
H1118 H 0.21589 0.28743 0.21092 0.0
H1119 H 0.21243 0.29406 0.17761 0.0
H1120 H 0.26877 0.30259 0.15585 0.0
C1121 C 0.22742 0.31938 0.0866 0.0
C1122 C 0.22138 0.3011 0.12383 0.0
C1123 C 0.22593 0.3325 0.07304 0.0
C1124 C 0.22618 0.28349 0.20172 0.0
C1125 C 0.22417 0.2872 0.18262 0.0
C1126 C 0.25547 0.30163 0.14684 0.0
C1127 C 0.23797 0.32538 0.10442 0.0
C1128 C 0.23837 0.31212 0.11949 0.0
C1129 C 0.23809 0.28368 0.17066 0.0
C1130 C 0.23832 0.29154 0.1519 0.0
H1131 H 0.25266 0.37257 0.09845 0.0
H1132 H 0.25533 0.34968 0.12206 0.0
H1133 H 0.26881 0.32002 0.12764 0.0
H1134 H 0.26762 0.2655 0.20212 0.0
H1135 H 0.26391 0.27167 0.16876 0.0
C1136 C 0.14251 0.90994 0.02615 0.0
C1137 C 0.16158 0.91947 0.0287 0.0
C1138 C 0.12754 0.9205 0.02564 0.0
C1139 C 0.11678 0.96935 0.03857 0.0
H1140 H 0.07353 0.95341 6e-05 0.0
C1141 C 0.06293 0.01928 0.01865 0.0
C1142 C 0.04356 0.01089 0.01534 0.0
C1143 C 0.07695 0.00777 0.02137 0.0
C1144 C 0.08539 0.95795 0.01106 0.0
H1145 H 0.17983 0.94755 0.03297 0.0
H1146 H 0.15392 0.96581 0.0319 0.0
H1147 H 0.09834 0.93367 0.00322 0.0
H1148 H 0.02395 0.98385 0.01075 0.0
H1149 H 0.04803 0.96379 0.01618 0.0
H1150 H 0.10393 0.99375 0.04624 0.0
C1151 C 0.15042 0.95023 0.03053 0.0
C1152 C 0.09961 0.94659 0.0129 0.0
C1153 C 0.16532 0.93972 0.03101 0.0
C1154 C 0.03854 0.99079 0.01435 0.0
C1155 C 0.05248 0.97926 0.01698 0.0
C1156 C 0.10258 0.98071 0.03671 0.0
C1157 C 0.13133 0.9408 0.02775 0.0
C1158 C 0.11558 0.95223 0.02656 0.0
C1159 C 0.07188 0.98758 0.02052 0.0
C1160 C 0.08677 0.97523 0.02285 0.0
H1161 H 0.13916 0.89436 0.02436 0.0
H1162 H 0.113 0.91277 0.02366 0.0
H1163 H 0.12871 0.97398 0.04947 0.0
H1164 H 0.06722 0.03475 0.01916 0.0
H1165 H 0.09178 0.01466 0.02373 0.0
C1166 C 0.69214 0.59804 0.96631 0.0
C1167 C 0.69663 0.61824 0.96837 0.0
C1168 C 0.67358 0.58872 0.96765 0.0
C1169 C 0.63813 0.57341 0.98536 0.0
H1170 H 0.5933 0.59412 0.96818 0.0
C1171 C 0.56445 0.54681 0.00989 0.0
C1172 C 0.54835 0.5456 -0.00342 0.0
C1173 C 0.58244 0.55533 0.00566 0.0
C1174 C 0.60563 0.58798 0.97289 0.0
H1175 H 0.68508 0.64455 0.9726 0.0
H1176 H 0.65286 0.62836 0.9754 0.0
H1177 H 0.62438 0.60898 0.96037 0.0
H1178 H 0.53852 0.55194 0.9682 0.0
H1179 H 0.56983 0.56619 0.96063 0.0
H1180 H 0.61932 0.55204 -0.00264 0.0
C1181 C 0.66352 0.61964 0.97243 0.0
C1182 C 0.62351 0.59668 0.96861 0.0
C1183 C 0.68203 0.62895 0.97087 0.0
C1184 C 0.55062 0.55283 0.97887 0.0
C1185 C 0.56859 0.56112 0.97456 0.0
C1186 C 0.62023 0.56459 0.98947 0.0
C1187 C 0.65917 0.59941 0.97128 0.0
C1188 C 0.64 0.58958 0.9749 0.0
C1189 C 0.58471 0.56261 0.98793 0.0
C1190 C 0.60377 0.57183 0.98338 0.0
H1191 H 0.70309 0.58941 0.96423 0.0
H1192 H 0.67064 0.57312 0.96621 0.0
H1193 H 0.65054 0.56772 0.99072 0.0
H1194 H 0.56312 0.54147 0.02371 0.0
H1195 H 0.5945 0.55649 0.01641 0.0
C1196 C 0.68818 0.45526 0.27522 0.0
C1197 C 0.66923 0.4523 0.27962 0.0
C1198 C 0.69814 0.43987 0.27377 0.0
C1199 C 0.69023 0.38672 0.26533 0.0
H1200 H 0.74363 0.39318 0.28484 0.0
C1201 C 0.75066 0.3373 0.28469 0.0
C1202 C 0.74794 0.32415 0.26833 0.0
C1203 C 0.7414 0.35317 0.28531 0.0
C1204 C 0.7287 0.39111 0.27937 0.0
H1205 H 0.64606 0.43095 0.28649 0.0
H1206 H 0.66354 0.40419 0.28428 0.0
H1207 H 0.72675 0.42025 0.28844 0.0
H1208 H 0.7339 0.31749 0.23955 0.0
H1209 H 0.7175 0.34534 0.24059 0.0
H1210 H 0.6921 0.35741 0.25669 0.0
C1211 C 0.67059 0.41833 0.2816 0.0
C1212 C 0.71907 0.40669 0.28127 0.0
C1213 C 0.66064 0.43372 0.28305 0.0
C1214 C 0.73601 0.32731 0.25242 0.0
C1215 C 0.72663 0.34321 0.25305 0.0
C1216 C 0.69988 0.37113 0.26341 0.0
C1217 C 0.68937 0.42117 0.27669 0.0
C1218 C 0.69969 0.40465 0.27441 0.0
C1219 C 0.72923 0.35631 0.26954 0.0
C1220 C 0.71919 0.3731 0.27056 0.0
H1221 H 0.69518 0.46938 0.27239 0.0
H1222 H 0.71253 0.44254 0.26982 0.0
H1223 H 0.67537 0.38474 0.25964 0.0
H1224 H 0.75973 0.33517 0.29722 0.0
H1225 H 0.74349 0.36277 0.29833 0.0
C1226 C 0.77593 0.44855 0.50856 0.0
C1227 C 0.76862 0.43257 0.51789 0.0
C1228 C 0.7954 0.45596 0.51083 0.0
C1229 C 0.84247 0.44336 0.52402 0.0
H1230 H 0.85883 0.49865 0.52596 0.0
C1231 C 0.92211 0.47991 0.52963 0.0
C1232 C 0.9261 0.49356 0.51656 0.0
C1233 C 0.90322 0.47252 0.53218 0.0
C1234 C 0.85447 0.48318 0.52539 0.0
H1235 H 0.77617 0.41188 0.537 0.0
H1236 H 0.81034 0.42501 0.54109 0.0
H1237 H 0.82519 0.48554 0.52648 0.0
H1238 H 0.91366 0.51042 0.49612 0.0
H1239 H 0.88073 0.49766 0.50063 0.0
H1240 H 0.87186 0.4411 0.52275 0.0
C1241 C 0.80091 0.43166 0.53188 0.0
C1242 C 0.83521 0.47565 0.52565 0.0
C1243 C 0.78133 0.42418 0.52959 0.0
C1244 C 0.91096 0.49991 0.5063 0.0
C1245 C 0.89213 0.49269 0.50896 0.0
C1246 C 0.86181 0.45092 0.52386 0.0
C1247 C 0.80814 0.44768 0.52254 0.0
C1248 C 0.82889 0.45563 0.52448 0.0
C1249 C 0.88804 0.47886 0.52187 0.0
C1250 C 0.86793 0.47089 0.5241 0.0
H1251 H 0.76663 0.45535 0.49935 0.0
H1252 H 0.80049 0.46805 0.5031 0.0
H1253 H 0.83807 0.42787 0.52296 0.0
H1254 H 0.93358 0.47481 0.53773 0.0
H1255 H 0.90047 0.46196 0.54229 0.0
C1256 C 0.36741 0.12843 0.25336 0.0
C1257 C 0.35879 0.1104 0.24394 0.0
C1258 C 0.35713 0.14359 0.25467 0.0
C1259 C 0.31592 0.16098 0.23144 0.0
H1260 H 0.31764 0.19176 0.27961 0.0
C1261 C 0.26407 0.21413 0.24395 0.0
C1262 C 0.27097 0.23123 0.25576 0.0
C1263 C 0.27547 0.20001 0.24178 0.0
C1264 C 0.31723 0.18353 0.26596 0.0
H1265 H 0.33262 0.0941 0.22861 0.0
H1266 H 0.31475 0.12056 0.23088 0.0
H1267 H 0.33629 0.16594 0.2775 0.0
H1268 H 0.29522 0.24715 0.27441 0.0
H1269 H 0.31537 0.22291 0.27008 0.0
H1270 H 0.29699 0.17861 0.21983 0.0
C1271 C 0.32947 0.123 0.23714 0.0
C1272 C 0.32788 0.16869 0.26479 0.0
C1273 C 0.33968 0.10782 0.23596 0.0
C1274 C 0.2896 0.23418 0.26504 0.0
C1275 C 0.30105 0.22015 0.26276 0.0
C1276 C 0.30537 0.17592 0.23257 0.0
C1277 C 0.3381 0.14106 0.24645 0.0
C1278 C 0.32723 0.15717 0.24756 0.0
C1279 C 0.29404 0.20276 0.25132 0.0
C1280 C 0.3058 0.1873 0.24988 0.0
H1281 H 0.38212 0.13087 0.25963 0.0
H1282 H 0.36418 0.15739 0.26183 0.0
H1283 H 0.31536 0.15251 0.2179 0.0
H1284 H 0.24972 0.21148 0.2367 0.0
H1285 H 0.2695 0.18671 0.23305 0.0
C1286 C 0.30841 0.11999 0.52406 0.0
C1287 C 0.29393 0.10682 0.51303 0.0
C1288 C 0.32511 0.11407 0.53132 0.0
C1289 C 0.36362 0.1022 0.53532 0.0
H1290 H 0.36448 0.04804 0.53911 0.0
C1291 C 0.4306 0.07104 0.5251 0.0
C1292 C 0.43281 0.05321 0.53143 0.0
C1293 C 0.41444 0.07886 0.52832 0.0
C1294 C 0.36465 0.06332 0.53865 0.0
H1295 H 0.28524 0.07735 0.50066 0.0
H1296 H 0.31491 0.06728 0.51171 0.0
H1297 H 0.33429 0.05899 0.53542 0.0
H1298 H 0.42088 0.03019 0.54741 0.0
H1299 H 0.39305 0.04439 0.5542 0.0
H1300 H 0.39396 0.10673 0.53986 0.0
C1301 C 0.31326 0.08192 0.51585 0.0
C1302 C 0.34717 0.06958 0.53602 0.0
C1303 C 0.29631 0.0877 0.50921 0.0
C1304 C 0.41928 0.04388 0.54219 0.0
C1305 C 0.40328 0.05198 0.54591 0.0
C1306 C 0.38108 0.09605 0.53865 0.0
C1307 C 0.32793 0.09499 0.52708 0.0
C1308 C 0.34639 0.08895 0.53332 0.0
C1309 C 0.40031 0.06928 0.53845 0.0
C1310 C 0.38188 0.07637 0.53933 0.0
H1311 H 0.30663 0.13476 0.5274 0.0
H1312 H 0.33572 0.1245 0.54027 0.0
H1313 H 0.36386 0.11725 0.53338 0.0
H1314 H 0.44087 0.07851 0.51674 0.0
H1315 H 0.4127 0.09193 0.52193 0.0
C1316 C 0.65482 0.57514 0.25344 0.0
C1317 C 0.65798 0.56322 0.26795 0.0
C1318 C 0.66639 0.59308 0.25344 0.0
C1319 C 0.69385 0.63276 0.2843 0.0
H1320 H 0.71694 0.64749 0.2391 0.0
C1321 C 0.73542 0.7098 0.28109 0.0
C1322 C 0.7335 0.71783 0.26364 0.0
C1323 C 0.72852 0.69026 0.28224 0.0
C1324 C 0.7104 0.64376 0.25178 0.0
H1325 H 0.67578 0.56075 0.29386 0.0
H1326 H 0.69575 0.59265 0.29419 0.0
H1327 H 0.70051 0.61455 0.23991 0.0
H1328 H 0.72265 0.71166 0.23374 0.0
H1329 H 0.70997 0.67798 0.23584 0.0
H1330 H 0.70267 0.6621 0.29585 0.0
C1331 C 0.68441 0.58783 0.2827 0.0
C1332 C 0.70115 0.62482 0.25227 0.0
C1333 C 0.67306 0.56961 0.28246 0.0
C1334 C 0.72457 0.70589 0.24737 0.0
C1335 C 0.71739 0.68647 0.24858 0.0
C1336 C 0.70281 0.65183 0.2837 0.0
C1337 C 0.68116 0.59969 0.26816 0.0
C1338 C 0.69259 0.61921 0.26844 0.0
C1339 C 0.71924 0.67833 0.26603 0.0
C1340 C 0.71097 0.65769 0.2673 0.0
H1341 H 0.64337 0.57058 0.24201 0.0
H1342 H 0.66351 0.60201 0.24215 0.0
H1343 H 0.68719 0.62881 0.29687 0.0
H1344 H 0.74236 0.71859 0.29386 0.0
H1345 H 0.73054 0.68453 0.29587 0.0
C1346 C 0.87002 0.48087 0.7274 0.0
C1347 C 0.86708 0.49829 0.73668 0.0
C1348 C 0.85773 0.46367 0.72891 0.0
C1349 C 0.826 0.44028 0.76051 0.0
H1350 H 0.80703 0.40389 0.71623 0.0
C1351 C 0.77812 0.36712 0.7666 0.0
C1352 C 0.78194 0.35125 0.75537 0.0
C1353 C 0.7866 0.38582 0.76376 0.0
C1354 C 0.81235 0.4138 0.72877 0.0
H1355 H 0.84883 0.51132 0.75471 0.0
H1356 H 0.82751 0.48113 0.75756 0.0
H1357 H 0.8256 0.43518 0.71218 0.0
H1358 H 0.79747 0.34228 0.7324 0.0
H1359 H 0.81269 0.37469 0.7278 0.0
H1360 H 0.81346 0.41872 0.77723 0.0
C1361 C 0.83932 0.48088 0.74908 0.0
C1362 C 0.82292 0.43174 0.72642 0.0
C1363 C 0.85147 0.49815 0.74736 0.0
C1364 C 0.79424 0.35431 0.74121 0.0
C1365 C 0.80283 0.37292 0.73848 0.0
C1366 C 0.81562 0.42224 0.7629 0.0
C1367 C 0.84238 0.46349 0.73991 0.0
C1368 C 0.83003 0.44505 0.74228 0.0
C1369 C 0.79915 0.38894 0.74971 0.0
C1370 C 0.80889 0.40867 0.74708 0.0
H1371 H 0.88189 0.4805 0.71903 0.0
H1372 H 0.8605 0.45042 0.72184 0.0
H1373 H 0.83148 0.45023 0.77299 0.0
H1374 H 0.76858 0.36509 0.77755 0.0
H1375 H 0.78325 0.39782 0.7725 0.0
C1376 C 0.98596 0.81067 0.09538 0.0
C1377 C 0.9796 0.8112 0.11357 0.0
C1378 C 0.98523 0.82611 0.08432 0.0
C1379 C 0.97548 0.85759 0.06012 0.0
H1380 H 0.98874 0.9085 0.08751 0.0
C1381 C 0.97384 0.92839 0.02365 0.0
C1382 C 0.98806 0.9442 0.03067 0.0
C1383 C 0.97212 0.91138 0.03273 0.0
C1384 C 0.98518 0.8944 0.07958 0.0
H1385 H 0.96664 0.82792 0.13402 0.0
H1386 H 0.9649 0.8546 0.11457 0.0
H1387 H 0.98651 0.88034 0.1051 0.0
H1388 H 0.01219 0.95444 0.05196 0.0
H1389 H 0.00957 0.92478 0.06744 0.0
H1390 H 0.97487 0.87183 0.03451 0.0
C1391 C 0.97094 0.84251 0.10902 0.0
C1392 C 0.98358 0.8782 0.08972 0.0
C1393 C 0.97182 0.82715 0.12014 0.0
C1394 C 0.00096 0.94252 0.04638 0.0
C1395 C -0.00065 0.92555 0.05534 0.0
C1396 C 0.97717 0.87386 0.04993 0.0
C1397 C 0.978 0.84238 0.09113 0.0
C1398 C 0.9788 0.85957 0.08015 0.0
C1399 C 0.98466 0.9099 0.04892 0.0
C1400 C 0.98223 0.89247 0.05954 0.0
H1401 H -0.00793 0.79859 0.08992 0.0
H1402 H 0.99098 0.82556 0.07072 0.0
H1403 H 0.97157 0.84348 0.05228 0.0
H1404 H 0.96369 0.92937 0.01156 0.0
H1405 H 0.96059 0.89965 0.02746 0.0
C1406 C 0.95205 0.26721 0.83009 0.0
C1407 C 0.96586 0.28166 0.82453 0.0
C1408 C 0.93331 0.26387 0.82117 0.0
C1409 C 0.89935 0.28904 0.79631 0.0
H1410 H 0.87064 0.23828 0.77851 0.0
C1411 C 0.82434 0.28122 0.75744 0.0
C1412 C 0.81042 0.26663 0.76246 0.0
C1413 C 0.84365 0.28137 0.76281 0.0
C1414 C 0.8784 0.25254 0.78357 0.0
H1415 H 0.97085 0.30361 0.80494 0.0
H1416 H 0.93826 0.29789 0.78965 0.0
H1417 H 0.90364 0.24165 0.79297 0.0
H1418 H 0.8058 0.24028 0.77634 0.0
H1419 H 0.83946 0.24082 0.78623 0.0
H1420 H 0.87423 0.30004 0.78764 0.0
C1421 C 0.9419 0.2892 0.80091 0.0
C1422 C 0.89728 0.25444 0.79182 0.0
C1423 C 0.9606 0.29241 0.80966 0.0
C1424 C 0.81623 0.25165 0.77214 0.0
C1425 C 0.83556 0.25195 0.77779 0.0
C1426 C 0.88049 0.28715 0.7883 0.0
C1427 C 0.92802 0.27506 0.8067 0.0
C1428 C 0.90795 0.27274 0.79817 0.0
C1429 C 0.84948 0.26712 0.77365 0.0
C1430 C 0.86977 0.2689 0.78171 0.0
H1431 H 0.95565 0.25863 0.84146 0.0
H1432 H 0.92283 0.25294 0.82596 0.0
H1433 H 0.90714 0.3033 0.80139 0.0
H1434 H 0.82027 0.29284 0.74978 0.0
H1435 H 0.85399 0.29297 0.75888 0.0
C1436 C 0.504 0.18773 0.63215 0.0
C1437 C 0.49397 0.20202 0.62601 0.0
C1438 C 0.50533 0.17177 0.61975 0.0
C1439 C 0.50052 0.15443 0.5684 0.0
H1440 H 0.50096 0.10491 0.5882 0.0
C1441 C 0.49889 0.08319 0.52096 0.0
C1442 C 0.5119 0.0716 0.52724 0.0
C1443 C 0.49632 0.0993 0.53255 0.0
C1444 C 0.50099 0.11869 0.58251 0.0
H1445 H 0.47723 0.21056 0.60203 0.0
H1446 H 0.47911 0.18237 0.58046 0.0
H1447 H 0.49618 0.13228 0.60923 0.0
H1448 H 0.5327 0.06777 0.55025 0.0
H1449 H 0.52817 0.09592 0.57065 0.0
H1450 H 0.505 0.14055 0.54156 0.0
C1451 C 0.48631 0.18374 0.59479 0.0
C1452 C 0.4983 0.1344 0.59455 0.0
C1453 C 0.48512 0.19985 0.60719 0.0
C1454 C 0.52259 0.07653 0.54512 0.0
C1455 C 0.51988 0.09251 0.55682 0.0
C1456 C 0.50299 0.13862 0.5563 0.0
C1457 C 0.4965 0.16953 0.60091 0.0
C1458 C 0.49827 0.15255 0.58774 0.0
C1459 C 0.50665 0.10399 0.55068 0.0
C1460 C 0.50347 0.12066 0.5633 0.0
H1461 H 0.51115 0.18899 0.6465 0.0
H1462 H 0.51364 0.16138 0.62489 0.0
H1463 H 0.50084 0.16821 0.5627 0.0
H1464 H 0.49065 0.07976 0.5071 0.0
H1465 H 0.48598 0.10786 0.52751 0.0
C1466 C 0.59165 0.79094 0.36219 0.0
C1467 C 0.57416 0.78168 0.35226 0.0
C1468 C 0.60871 0.79049 0.35406 0.0
C1469 C 0.63036 0.76266 0.31899 0.0
H1470 H 0.66279 0.8108 0.31247 0.0
C1471 C 0.68535 0.76602 0.26496 0.0
C1472 C 0.70271 0.7788 0.26925 0.0
C1473 C 0.67083 0.76643 0.27676 0.0
C1474 C 0.65414 0.79718 0.31446 0.0
H1475 H 0.56082 0.76432 0.32634 0.0
H1476 H 0.59053 0.7632 0.31242 0.0
H1477 H 0.63569 0.81103 0.33098 0.0
H1478 H 0.71837 0.80251 0.2888 0.0
H1479 H 0.6933 0.80279 0.3099 0.0
H1480 H 0.64869 0.74869 0.3027 0.0
C1481 C 0.59108 0.7709 0.32638 0.0
C1482 C 0.6386 0.79735 0.32504 0.0
C1483 C 0.57407 0.77164 0.33431 0.0
C1484 C 0.70518 0.79228 0.28535 0.0
C1485 C 0.69073 0.79256 0.29732 0.0
C1486 C 0.64601 0.76244 0.30865 0.0
C1487 C 0.60854 0.78042 0.33608 0.0
C1488 C 0.62632 0.78013 0.327 0.0
C1489 C 0.67338 0.77955 0.29323 0.0
C1490 C 0.65783 0.77974 0.30581 0.0
H1491 H 0.59212 0.79882 0.37604 0.0
H1492 H 0.62202 0.79792 0.36182 0.0
H1493 H 0.62125 0.74915 0.32053 0.0
H1494 H 0.683 0.75562 0.25251 0.0
H1495 H 0.65751 0.75653 0.27282 0.0
C1496 C 0.98971 0.19758 0.44776 0.0
C1497 C 0.00354 0.21389 0.45439 0.0
C1498 C 0.9872 0.18171 0.45838 0.0
C1499 C 0.0148 0.15734 0.49079 0.0
H1500 H 0.9661 0.12802 0.49943 0.0
C1501 C 0.01123 0.08781 0.5279 0.0
C1502 C -0.00311 0.07238 0.52026 0.0
C1503 C 0.01083 0.10628 0.52242 0.0
C1504 C 0.97981 0.13594 0.49697 0.0
H1505 H 0.02493 0.22674 0.4777 0.0
H1506 H 0.02069 0.19889 0.49607 0.0
H1507 H 0.96713 0.15834 0.48495 0.0
H1508 H 0.97027 0.06422 0.502 0.0
H1509 H 0.97007 0.09612 0.49148 0.0
H1510 H 0.02753 0.13472 0.5018 0.0
C1511 C 0.01184 0.19842 0.48268 0.0
C1512 C 0.98037 0.15333 0.48878 0.0
C1513 C 0.0142 0.21436 0.4722 0.0
C1514 C 0.98178 0.0758 0.50764 0.0
C1515 C 0.98151 0.09419 0.50191 0.0
C1516 C 0.01424 0.13987 0.4987 0.0
C1517 C -0.00139 0.18182 0.47567 0.0
C1518 C -0.00213 0.16411 0.48552 0.0
C1519 C -0.00381 0.10963 0.50903 0.0
C1520 C -0.00327 0.12884 0.50177 0.0
H1521 H 0.98125 0.19684 0.43412 0.0
H1522 H 0.97698 0.16902 0.45262 0.0
H1523 H 0.02846 0.16524 0.48813 0.0
H1524 H 0.02293 0.08555 0.53786 0.0
H1525 H 0.02214 0.11789 0.52855 0.0
C1526 C 0.56167 0.29262 0.12597 0.0
C1527 C 0.54897 0.30448 0.13173 0.0
C1528 C 0.57937 0.29373 0.13661 0.0
C1529 C 0.60157 0.30883 0.186 0.0
H1530 H 0.64562 0.29274 0.16595 0.0
C1531 C 0.67177 0.30233 0.23195 0.0
C1532 C 0.6769 0.28409 0.22896 0.0
C1533 C 0.65712 0.30738 0.21992 0.0
C1534 C 0.63341 0.29734 0.17167 0.0
H1535 H 0.54519 0.32793 0.15178 0.0
H1536 H 0.57648 0.33072 0.16969 0.0
H1537 H 0.61927 0.29865 0.14395 0.0
H1538 H 0.67079 0.25677 0.21138 0.0
H1539 H 0.64541 0.26573 0.19025 0.0
H1540 H 0.61592 0.30758 0.21373 0.0
C1541 C 0.57258 0.31994 0.15759 0.0
C1542 C 0.61829 0.30063 0.15912 0.0
C1543 C 0.55475 0.31851 0.14724 0.0
C1544 C 0.66704 0.2709 0.21401 0.0
C1545 C 0.65268 0.27606 0.20184 0.0
C1546 C 0.61684 0.30588 0.19852 0.0
C1547 C 0.58476 0.30698 0.15295 0.0
C1548 C 0.60196 0.30596 0.16612 0.0
C1549 C 0.64774 0.29438 0.20458 0.0
C1550 C 0.63264 0.29966 0.19144 0.0
H1551 H 0.55741 0.28159 0.11412 0.0
H1552 H 0.58824 0.28338 0.13266 0.0
H1553 H 0.58912 0.31254 0.19198 0.0
H1554 H 0.67929 0.31276 0.24335 0.0
H1555 H 0.65345 0.32158 0.22228 0.0
C1556 C 0.53186 0.82653 0.96353 0.0
C1557 C 0.54075 0.82694 0.94665 0.0
C1558 C 0.53242 0.84348 0.9753 0.0
C1559 C 0.5556 0.89454 0.98552 0.0
H1560 H 0.50477 0.90293 0.9942 0.0
C1561 C 0.53617 0.9699 -0.00425 0.0
C1562 C 0.52132 0.97289 0.00664 0.0
C1563 C 0.54101 0.95164 0.99298 0.0
C1564 C 0.51916 0.90076 0.99239 0.0
H1565 H 0.55833 0.84521 0.92961 0.0
H1566 H 0.55927 0.87477 0.95016 0.0
H1567 H 0.50943 0.87137 0.98148 0.0
H1568 H 0.50069 0.9594 0.02418 0.0
H1569 H 0.50947 0.9276 0.01976 0.0
H1570 H 0.56528 0.9241 -0.00392 0.0
C1571 C 0.55189 0.86134 0.95428 0.0
C1572 C 0.5218 0.88263 0.98504 0.0
C1573 C 0.55122 0.84443 0.94244 0.0
C1574 C 0.51205 0.95748 0.01552 0.0
C1575 C 0.51704 0.93924 0.01293 0.0
C1576 C 0.55299 0.91267 0.99306 0.0
C1577 C 0.542 0.86112 0.97051 0.0
C1578 C 0.53995 0.87947 0.98105 0.0
C1579 C 0.53124 0.93599 0.00121 0.0
C1580 C 0.53463 0.91614 -0.00394 0.0
H1581 H 0.52377 0.81328 0.96728 0.0
H1582 H 0.52484 0.84289 0.98783 0.0
H1583 H 0.56979 0.89241 0.98277 0.0
H1584 H 0.54353 0.98145 0.98863 0.0
H1585 H 0.5518 0.94965 0.98363 0.0
C1586 C 0.94278 0.80346 0.66289 0.0
C1587 C 0.95179 0.78744 0.66502 0.0
C1588 C 0.92971 0.80781 0.67535 0.0
C1589 C 0.91441 0.79664 0.7227 0.0
H1590 H 0.86836 0.81464 0.70418 0.0
C1591 C 0.84284 0.78232 0.7533 0.0
C1592 C 0.83287 0.79763 0.7559 0.0
C1593 C 0.86011 0.7851 0.74548 0.0
C1594 C 0.88137 0.81001 0.70961 0.0
H1595 H 0.95355 0.76289 0.68114 0.0
H1596 H 0.93018 0.76985 0.70218 0.0
H1597 H 0.89248 0.81093 0.68267 0.0
H1598 H 0.83319 0.82796 0.75315 0.0
H1599 H 0.86332 0.83268 0.73867 0.0
H1600 H 0.90251 0.79443 0.74925 0.0
C1601 C 0.93373 0.7796 0.69151 0.0
C1602 C 0.89518 0.80786 0.69731 0.0
C1603 C 0.94696 0.77545 0.67929 0.0
C1604 C 0.84079 0.81601 0.7514 0.0
C1605 C 0.85788 0.81869 0.74308 0.0
C1606 C 0.90046 0.79848 0.73486 0.0
C1607 C 0.92523 0.79605 0.68999 0.0
C1608 C 0.91162 0.80061 0.70356 0.0
C1609 C 0.86743 0.80312 0.73972 0.0
C1610 C 0.88366 0.80475 0.72827 0.0
H1611 H 0.94639 0.81305 0.6521 0.0
H1612 H 0.92351 0.82064 0.67382 0.0
H1613 H 0.92716 0.79158 0.72817 0.0
H1614 H 0.83691 0.76802 0.75665 0.0
H1615 H 0.86715 0.77286 0.74285 0.0
C1616 C 0.09784 0.99035 0.83533 0.0
C1617 C 0.09183 0.00235 0.82191 0.0
C1618 C 0.08824 0.9874 0.8515 0.0
C1619 C 0.04152 0.99052 0.86866 0.0
H1620 H 0.06816 0.99319 0.91936 0.0
C1621 C 0.00819 0.00964 0.93626 0.0
C1622 C 0.01182 0.00018 0.95255 0.0
C1623 C 0.01703 0.00602 0.91997 0.0
C1624 C 0.06051 0.99203 0.90524 0.0
H1625 H 0.07156 0.02127 0.81544 0.0
H1626 H 0.05518 0.01633 0.84352 0.0
H1627 H 0.08631 0.99483 0.89175 0.0
H1628 H 0.02723 0.97917 0.96446 0.0
H1629 H 0.04292 0.97293 0.93583 0.0
H1630 H 0.01582 0.98838 0.88212 0.0
C1631 C 0.06695 0.00882 0.84138 0.0
C1632 C 0.0709 0.99301 0.88945 0.0
C1633 C 0.07648 0.01176 0.82533 0.0
C1634 C 0.02404 0.98654 0.95202 0.0
C1635 C 0.03314 0.9831 0.93574 0.0
C1636 C 0.03118 0.9896 0.88439 0.0
C1637 C 0.07246 -0.00366 0.85448 0.0
C1638 C 0.06154 0.99284 0.87105 0.0
C1639 C 0.02989 0.993 0.91964 0.0
C1640 C 0.0406 0.99089 0.90288 0.0
H1641 H 0.10961 0.98287 0.8331 0.0
H1642 H 0.09283 0.97772 0.86138 0.0
H1643 H 0.03385 0.98986 0.85461 0.0
H1644 H -0.00117 0.02022 0.93624 0.0
H1645 H 0.0144 0.01404 0.90787 0.0
C1646 C 0.72153 0.33858 0.57227 0.0
C1647 C 0.72084 0.35836 0.57445 0.0
C1648 C 0.72604 0.32885 0.58812 0.0
C1649 C 0.74709 0.33783 0.63922 0.0
H1650 H 0.72307 0.28481 0.64123 0.0
C1651 C 0.74583 0.29981 0.70857 0.0
C1652 C 0.75004 0.28107 0.70777 0.0
C1653 C 0.7438 0.3091 0.69199 0.0
C1654 C 0.73004 0.29955 0.64078 0.0
H1655 H 0.72395 0.38337 0.59503 0.0
H1656 H 0.731 0.3664 0.62264 0.0
H1657 H 0.71596 0.30119 0.61308 0.0
H1658 H 0.75547 0.25735 0.68897 0.0
H1659 H 0.75148 0.27347 0.6598 0.0
H1660 H 0.76056 0.33629 0.66731 0.0
C1661 C 0.72873 0.3584 0.60869 0.0
C1662 C 0.72603 0.30897 0.62459 0.0
C1663 C 0.72451 0.36815 0.59283 0.0
C1664 C 0.75229 0.27183 0.69002 0.0
C1665 C 0.74992 0.281 0.67335 0.0
C1666 C 0.75086 0.32849 0.65549 0.0
C1667 C 0.7297 0.33862 0.60659 0.0
C1668 C 0.7344 0.32831 0.62361 0.0
C1669 C 0.74558 0.29971 0.67416 0.0
C1670 C 0.74231 0.30929 0.65649 0.0
H1671 H 0.7189 0.33064 0.55826 0.0
H1672 H 0.72691 0.31373 0.58579 0.0
H1673 H 0.75422 0.35253 0.63892 0.0
H1674 H 0.74377 0.30722 0.722 0.0
H1675 H 0.74027 0.32343 0.69305 0.0
C1676 C 0.44704 0.04666 0.29829 0.0
C1677 C 0.43047 0.05396 0.29268 0.0
C1678 C 0.45264 0.04548 0.31749 0.0
C1679 C 0.4464 0.0631 0.36658 0.0
H1680 H 0.46307 0.01556 0.37859 0.0
C1681 C 0.46044 0.04309 0.44392 0.0
C1682 C 0.47665 0.03465 0.44808 0.0
C1683 C 0.45457 0.04614 0.42517 0.0
C1684 C 0.45865 0.02901 0.37547 0.0
H1685 H 0.40715 0.06642 0.30297 0.0
H1686 H 0.41691 0.06421 0.33667 0.0
H1687 H 0.4534 0.02007 0.34563 0.0
H1688 H 0.49948 0.02298 0.43573 0.0
H1689 H 0.48932 0.02843 0.40317 0.0
H1690 H 0.45167 0.07197 0.39655 0.0
C1691 C 0.4256 0.0595 0.32612 0.0
C1692 C 0.45311 0.0316 0.35657 0.0
C1693 C 0.41999 0.06073 0.30682 0.0
C1694 C 0.4869 0.02946 0.43308 0.0
C1695 C 0.48102 0.03248 0.41437 0.0
C1696 C 0.45195 0.06049 0.38555 0.0
C1697 C 0.44179 0.0515 0.33161 0.0
C1698 C 0.4471 0.04875 0.35187 0.0
C1699 C 0.46473 0.04076 0.41017 0.0
C1700 C 0.4583 0.04347 0.39017 0.0
H1701 H 0.45559 0.0415 0.28781 0.0
H1702 H 0.46542 0.03965 0.32128 0.0
H1703 H 0.44196 0.07652 0.36339 0.0
H1704 H 0.45219 0.04726 0.45511 0.0
H1705 H 0.44187 0.05239 0.42237 0.0
C1706 C 0.74847 0.69454 0.04062 0.0
C1707 C 0.73906 0.67565 0.04191 0.0
C1708 C 0.74836 0.70911 0.05506 0.0
C1709 C 0.75822 0.73125 0.09412 0.0
H1710 H 0.71444 0.73445 0.12181 0.0
C1711 C 0.76364 0.75606 0.17325 0.0
C1712 C 0.74992 0.76606 0.1801 0.0
C1713 C 0.76258 0.75003 0.15391 0.0
C1714 C 0.7267 0.73405 0.114 0.0
H1715 H 0.72162 0.65739 0.05907 0.0
H1716 H 0.72167 0.68283 0.08446 0.0
H1717 H 0.7106 0.71363 0.09201 0.0
H1718 H 0.72505 0.77871 0.17225 0.0
H1719 H 0.72305 0.76794 0.13824 0.0
H1720 H 0.77443 0.75119 0.11643 0.0
C1721 C 0.72894 0.68638 0.07213 0.0
C1722 C 0.72454 0.72196 0.09709 0.0
C1723 C 0.72904 0.67178 0.05768 0.0
C1724 C 0.73574 0.77092 0.16723 0.0
C1725 C 0.73457 0.76473 0.14785 0.0
C1726 C 0.76038 0.7433 0.11105 0.0
C1727 C 0.73883 0.70512 0.07108 0.0
C1728 C 0.7404 0.72 0.08733 0.0
C1729 C 0.7477 0.7538 0.14112 0.0
C1730 C 0.74477 0.74432 0.12145 0.0
H1731 H 0.75618 0.69809 0.02858 0.0
H1732 H 0.75593 0.72346 0.05379 0.0
H1733 H 0.77072 0.72997 0.08694 0.0
H1734 H 0.77477 0.75224 0.18293 0.0
H1735 H 0.77277 0.74144 0.14918 0.0
C1736 C 0.11418 0.98699 0.70005 0.0
C1737 C 0.10615 0.97969 0.71587 0.0
C1738 C 0.10345 0.98441 0.68219 0.0
C1739 C 0.07996 0.97247 0.64394 0.0
H1740 H 0.02759 0.97991 0.64534 0.0
C1741 C 0.03206 0.97879 0.57528 0.0
C1742 C 0.02167 0.99394 0.57648 0.0
C1743 C 0.04079 0.97296 0.59181 0.0
C1744 C 0.04218 0.97782 0.64468 0.0
H1745 H 0.0812 0.96279 0.72523 0.0
H1746 H 0.06271 0.95775 0.69399 0.0
H1747 H 0.04684 0.9773 0.67482 0.0
H1748 H 0.01165 0.01448 0.59571 0.0
H1749 H 0.02715 0.00467 0.62448 0.0
H1750 H 0.0756 0.97427 0.6139 0.0
C1751 C 0.07702 0.96601 0.69543 0.0
C1752 C 0.05318 0.97604 0.66159 0.0
C1753 C 0.08765 0.96881 0.71331 0.0
C1754 C 0.01956 0.00273 0.59442 0.0
C1755 C 0.02835 -0.00301 0.61092 0.0
C1756 C 0.06899 0.97441 0.62703 0.0
C1757 C 0.08458 0.97427 0.67977 0.0
C1758 C 0.07234 0.97377 0.66149 0.0
C1759 C 0.03931 0.98224 0.6098 0.0
C1760 C 0.05011 0.97758 0.62728 0.0
H1761 H 0.12842 0.99545 0.70162 0.0
H1762 H 0.10968 0.99117 0.67052 0.0
H1763 H 0.09456 0.97041 0.64331 0.0
H1764 H 0.03376 0.97171 0.56156 0.0
H1765 H 0.0489 0.96137 0.59049 0.0
C1766 C 0.70592 0.34549 0.46026 0.0
C1767 C 0.70325 0.36467 0.45934 0.0
C1768 C 0.70711 0.33378 0.44361 0.0
C1769 C 0.69787 0.33098 0.39041 0.0
H1770 H 0.7357 0.29761 0.39179 0.0
C1771 C 0.74419 0.29184 0.33524 0.0
C1772 C 0.73024 0.28624 0.31953 0.0
C1773 C 0.7393 0.29894 0.35277 0.0
C1774 C 0.72514 0.30694 0.39109 0.0
H1775 H 0.69949 0.38642 0.44004 0.0
H1776 H 0.70202 0.36638 0.41135 0.0
H1777 H 0.73004 0.31501 0.42116 0.0
H1778 H 0.70002 0.28302 0.31023 0.0
H1779 H 0.69138 0.29481 0.34093 0.0
H1780 H 0.69373 0.32384 0.36025 0.0
C1781 C 0.70277 0.36011 0.4248 0.0
C1782 C 0.72167 0.31673 0.40804 0.0
C1783 C 0.70145 0.37171 0.44136 0.0
C1784 C 0.71116 0.28733 0.32198 0.0
C1785 C 0.70623 0.29423 0.33959 0.0
C1786 C 0.70146 0.32136 0.37346 0.0
C1787 C 0.70576 0.34102 0.42565 0.0
C1788 C 0.70821 0.32916 0.4079 0.0
C1789 C 0.72028 0.30046 0.35516 0.0
C1790 C 0.71536 0.30942 0.37349 0.0
H1791 H 0.7073 0.33956 0.47386 0.0
H1792 H 0.70915 0.31909 0.44483 0.0
H1793 H 0.68712 0.34011 0.38973 0.0
H1794 H 0.75906 0.29136 0.33386 0.0
H1795 H 0.75061 0.30387 0.36424 0.0
C1796 C 0.40671 0.06326 0.16506 0.0
C1797 C 0.41744 0.06648 0.18305 0.0
C1798 C 0.41574 0.06158 0.14848 0.0
C1799 C 0.46311 0.07182 0.13052 0.0
H1800 H 0.44067 0.03161 0.09045 0.0
C1801 C 0.49777 0.06193 0.06131 0.0
C1802 C 0.49812 0.04299 0.05397 0.0
C1803 C 0.48672 0.06547 0.07597 0.0
C1804 C 0.44718 0.04282 0.10157 0.0
H1805 H 0.44606 0.07076 0.19778 0.0
H1806 H 0.46172 0.06753 0.16903 0.0
H1807 H 0.42387 0.03687 0.11828 0.0
H1808 H 0.48733 0.01288 0.05602 0.0
H1809 H 0.4683 0.01895 0.08208 0.0
H1810 H 0.48677 0.07726 0.1143 0.0
C1811 C 0.44638 0.06661 0.16761 0.0
C1812 C 0.43743 0.04602 0.1174 0.0
C1813 C 0.43738 0.06835 0.18413 0.0
C1814 C 0.48715 0.02761 0.0614 0.0
C1815 C 0.4762 0.03113 0.07624 0.0
C1816 C 0.47289 0.06856 0.11477 0.0
C1817 C 0.43568 0.06307 0.14959 0.0
C1818 C 0.44538 0.06044 0.13215 0.0
C1819 C 0.47597 0.05012 0.08378 0.0
C1820 C 0.46512 0.05393 0.10016 0.0
H1821 H 0.39131 0.06181 0.16379 0.0
H1822 H 0.40711 0.05911 0.1348 0.0
H1823 H 0.46954 0.08321 0.14149 0.0
H1824 H 0.50589 0.07406 0.05558 0.0
H1825 H 0.48656 0.08027 0.08113 0.0
C1826 C 0.78402 0.70683 0.95434 0.0
C1827 C 0.78018 0.68714 0.94779 0.0
C1828 C 0.78824 0.72071 0.94175 0.0
C1829 C 0.77863 0.74453 0.90988 0.0
H1830 H 0.80535 0.73762 0.86541 0.0
C1831 C 0.7577 0.77098 0.8381 0.0
C1832 C 0.77179 0.77638 0.82608 0.0
C1833 C 0.76262 0.76487 0.85585 0.0
C1834 C 0.79815 0.74003 0.87794 0.0
H1835 H 0.779 0.66647 0.9232 0.0
H1836 H 0.78604 0.69072 0.90108 0.0
H1837 H 0.80847 0.71696 0.89107 0.0
H1838 H 0.80227 0.78112 0.82395 0.0
H1839 H 0.8108 0.77047 0.85503 0.0
H1840 H 0.7679 0.76724 0.89653 0.0
C1841 C 0.786 0.69545 0.916 0.0
C1842 C 0.79977 0.72804 0.89252 0.0
C1843 C 0.78187 0.68154 0.92864 0.0
C1844 C 0.79104 0.77695 0.83281 0.0
C1845 C 0.79594 0.77074 0.85055 0.0
C1846 C 0.77701 0.7565 0.89531 0.0
C1847 C 0.78862 0.71519 0.92232 0.0
C1848 C 0.78956 0.72978 0.90837 0.0
C1849 C 0.78171 0.764 0.86194 0.0
C1850 C 0.78627 0.75397 0.87892 0.0
H1851 H 0.78307 0.71158 0.9691 0.0
H1852 H 0.79054 0.73579 0.9471 0.0
H1853 H 0.77045 0.74617 0.92183 0.0
H1854 H 0.74275 0.77049 0.83342 0.0
H1855 H 0.75129 0.75965 0.86423 0.0
C1856 C 0.84661 0.12843 0.99322 0.0
C1857 C 0.83554 0.12531 0.00845 0.0
C1858 C 0.8616 0.11818 0.99072 0.0
C1859 C 0.87501 0.07216 0.00259 0.0
H1860 H 0.92545 0.09227 0.98957 0.0
C1861 C 0.93564 0.02963 0.01234 0.0
C1862 C 0.94741 0.02825 -0.00229 0.0
C1863 C 0.92283 0.04248 0.01206 0.0
C1864 C 0.91133 0.08644 0.99297 0.0
H1865 H 0.83255 0.11028 0.03382 0.0
H1866 H 0.8586 0.09289 0.02967 0.0
H1867 H 0.90189 0.11376 0.99234 0.0
H1868 H 0.95479 0.0389 0.97111 0.0
H1869 H 0.93234 0.0618 0.9707 0.0
H1870 H 0.88427 0.04502 0.0035 0.0
C1871 C 0.85545 0.10272 0.01931 0.0
C1872 C 0.89787 0.09873 -0.00543 0.0
C1873 C 0.84055 0.11279 0.02174 0.0
C1874 C 0.94613 0.04001 0.98275 0.0
C1875 C 0.93328 0.05304 0.9825 0.0
C1876 C 0.88836 0.06 0.00103 0.0
C1877 C 0.86572 0.10472 0.00343 0.0
C1878 C 0.87972 0.09178 -0.00012 0.0
C1879 C 0.92133 0.05421 -0.00293 0.0
C1880 C 0.90681 0.06705 -0.00332 0.0
H1881 H 0.84308 0.13798 0.98274 0.0
H1882 H 0.86932 0.12009 0.97839 0.0
H1883 H 0.86098 0.0662 0.00615 0.0
H1884 H 0.93644 0.02086 0.02415 0.0
H1885 H 0.91407 0.04326 0.02367 0.0
C1886 C 0.28758 0.45515 0.02124 0.0
C1887 C 0.28133 0.43826 0.02969 0.0
C1888 C 0.30696 0.46252 0.02195 0.0
C1889 C 0.35431 0.44874 0.02806 0.0
H1890 H 0.37129 0.50411 0.0345 0.0
C1891 C 0.43356 0.48489 0.03022 0.0
C1892 C 0.43678 0.50002 0.01856 0.0
C1893 C 0.41501 0.47714 0.0335 0.0
C1894 C 0.36673 0.48862 0.03263 0.0
H1895 H 0.29061 0.4159 0.04565 0.0
H1896 H 0.32461 0.42896 0.04706 0.0
H1897 H 0.33806 0.49091 0.03719 0.0
H1898 H 0.42314 0.51895 0.00128 0.0
H1899 H 0.39086 0.50548 0.00707 0.0
H1900 H 0.38307 0.44656 0.02336 0.0
C1901 C 0.31442 0.43635 0.03971 0.0
C1902 C 0.34772 0.48106 0.03414 0.0
C1903 C 0.29496 0.42893 0.03897 0.0
C1904 C 0.42114 0.50731 0.01034 0.0
C1905 C 0.40266 0.49969 0.01376 0.0
C1906 C 0.3734 0.45633 0.02665 0.0
C1907 C 0.32061 0.45324 0.0312 0.0
C1908 C 0.3412 0.46106 0.03146 0.0
C1909 C 0.3994 0.48453 0.02534 0.0
C1910 C 0.37968 0.47636 0.02855 0.0
H1911 H 0.27751 0.46267 0.01388 0.0
H1912 H 0.31126 0.47534 0.01493 0.0
H1913 H 0.34969 0.43328 0.02576 0.0
H1914 H 0.44533 0.47887 0.03665 0.0
H1915 H 0.41287 0.46549 0.04254 0.0
C1916 C 0.33255 0.61042 0.7623 0.0
C1917 C 0.32566 0.59574 0.74753 0.0
C1918 C 0.32187 0.62472 0.76666 0.0
C1919 C 0.27341 0.63767 0.75738 0.0
H1920 H 0.30127 0.68972 0.77037 0.0
C1921 C 0.24104 0.70636 0.74844 0.0
C1922 C 0.24524 0.72106 0.76353 0.0
C1923 C 0.24975 0.69011 0.74888 0.0
C1924 C 0.29332 0.67521 0.767 0.0
H1925 H 0.30212 0.58435 0.72589 0.0
H1926 H 0.28383 0.60967 0.73289 0.0
H1927 H 0.31873 0.66316 0.7664 0.0
H1928 H 0.26057 0.72967 0.79154 0.0
H1929 H 0.27668 0.70164 0.79193 0.0
H1930 H 0.24802 0.65011 0.75702 0.0
C1931 C 0.2972 0.60993 0.74156 0.0
C1932 C 0.3033 0.65993 0.76479 0.0
C1933 C 0.30775 0.59545 0.73742 0.0
C1934 C 0.25774 0.71891 0.77941 0.0
C1935 C 0.26675 0.70281 0.77972 0.0
C1936 C 0.26346 0.65301 0.75928 0.0
C1937 C 0.30419 0.62487 0.75613 0.0
C1938 C 0.29349 0.64096 0.75974 0.0
C1939 C 0.26295 0.68836 0.76436 0.0
C1940 C 0.27334 0.67193 0.76393 0.0
H1941 H 0.34624 0.61091 0.77047 0.0
H1942 H 0.32756 0.63571 0.77825 0.0
H1943 H 0.26533 0.62325 0.75391 0.0
H1944 H 0.23136 0.70761 0.73606 0.0
H1945 H 0.24666 0.67922 0.73682 0.0
C1946 C 0.21331 0.64535 0.4918 0.0
C1947 C 0.22848 0.63585 0.48792 0.0
C1948 C 0.19462 0.6352 0.48985 0.0
C1949 C 0.15507 0.61219 0.47717 0.0
H1950 H 0.14807 0.56214 0.49671 0.0
C1951 C 0.0803 0.56616 0.47791 0.0
C1952 C 0.07723 0.55769 0.49486 0.0
C1953 C 0.0987 0.57458 0.4747 0.0
C1954 C 0.14977 0.57611 0.49123 0.0
H1955 H 0.23589 0.60847 0.47818 0.0
H1956 H 0.20326 0.59083 0.47449 0.0
H1957 H 0.18015 0.57949 0.49534 0.0
H1958 H 0.09081 0.55109 0.52162 0.0
H1959 H 0.1228 0.56595 0.51619 0.0
H1960 H 0.12463 0.60913 0.47388 0.0
C1961 C 0.20583 0.60603 0.47941 0.0
C1962 C 0.16818 0.58597 0.49021 0.0
C1963 C 0.22452 0.61616 0.48144 0.0
C1964 C 0.09282 0.55749 0.5084 0.0
C1965 C 0.11116 0.56589 0.50521 0.0
C1966 C 0.13663 0.60234 0.47823 0.0
C1967 C 0.19069 0.61536 0.4839 0.0
C1968 C 0.17107 0.60426 0.48344 0.0
C1969 C 0.11432 0.57464 0.48839 0.0
C1970 C 0.13379 0.58433 0.48559 0.0
H1971 H 0.21591 0.66053 0.49681 0.0
H1972 H 0.18335 0.6428 0.49365 0.0
H1973 H 0.1568 0.62615 0.47164 0.0
H1974 H 0.06847 0.56642 0.46723 0.0
H1975 H 0.10069 0.58103 0.46151 0.0
C1976 C 0.63472 0.91993 0.77754 0.0
C1977 C 0.64109 0.93762 0.77052 0.0
C1978 C 0.64631 0.90578 0.77816 0.0
C1979 C 0.69672 0.89885 0.77455 0.0
H1980 H 0.67371 0.84494 0.76387 0.0
C1981 C 0.73948 0.83946 0.75398 0.0
C1982 C 0.73743 0.82346 0.7646 0.0
C1983 C 0.72733 0.85295 0.75549 0.0
C1984 C 0.68029 0.85995 0.76699 0.0
H1985 H 0.66453 0.95426 0.7585 0.0
H1986 H 0.6843 0.92955 0.75887 0.0
H1987 H 0.65334 0.86944 0.76525 0.0
H1988 H 0.72111 0.80905 0.78518 0.0
H1989 H 0.6993 0.83228 0.78722 0.0
H1990 H 0.72366 0.88928 0.77549 0.0
C1991 C 0.67069 0.92667 0.76453 0.0
C1992 C 0.66864 0.87402 0.76791 0.0
C1993 C 0.65926 0.94086 0.76418 0.0
C1994 C 0.72278 0.82104 0.77655 0.0
C1995 C 0.71037 0.83436 0.77779 0.0
C1996 C 0.70831 0.88483 0.77329 0.0
C1997 C 0.66443 0.9089 0.77154 0.0
C1998 C 0.6767 0.89371 0.77154 0.0
C1999 C 0.71269 0.85057 0.76744 0.0
C2000 C 0.70023 0.86526 0.76937 0.0
H2001 H 0.6208 0.91702 0.78258 0.0
H2002 H 0.64107 0.89244 0.78393 0.0
H2003 H 0.70353 0.91375 0.77789 0.0
H2004 H 0.75065 0.8417 0.74466 0.0
H2005 H 0.72933 0.86526 0.74726 0.0
C2006 C 0.67945 0.94118 0.53628 0.0
C2007 C 0.67634 0.92115 0.53713 0.0
C2008 C 0.6649 0.95014 0.52875 0.0
C2009 C 0.62096 0.93982 0.49574 0.0
H2010 H 0.61347 0.98969 0.51754 0.0
C2011 C 0.55463 0.97445 0.47882 0.0
C2012 C 0.5572 0.99464 0.48045 0.0
C2013 C 0.57032 0.96524 0.48168 0.0
C2014 C 0.61565 0.97595 0.51104 0.0
H2015 H 0.65528 0.89492 0.53183 0.0
H2016 H 0.62964 0.91072 0.51898 0.0
H2017 H 0.63747 0.97388 0.53315 0.0
H2018 H 0.578 0.02102 0.48375 0.0
H2019 H 0.6055 0.0049 0.48839 0.0
H2020 H 0.59873 0.94181 0.47382 0.0
C2021 C 0.64349 0.91937 0.52375 0.0
C2022 C 0.62931 0.96683 0.52007 0.0
C2023 C 0.65809 0.91038 0.53131 0.0
C2024 C 0.5757 0.00542 0.48267 0.0
C2025 C 0.59139 0.99622 0.48545 0.0
C2026 C 0.6072 0.94894 0.4867 0.0
C2027 C 0.64691 0.93927 0.52199 0.0
C2028 C 0.63207 0.94866 0.51256 0.0
C2029 C 0.58873 0.97615 0.48611 0.0
C2030 C 0.60442 0.96709 0.49431 0.0
H2031 H 0.69337 0.94985 0.54067 0.0
H2032 H 0.668 0.96547 0.52749 0.0
H2033 H 0.62302 0.92594 0.48946 0.0
H2034 H 0.54045 0.96584 0.47698 0.0
H2035 H 0.56784 0.94975 0.48205 0.0
C2036 C 0.32638 0.48314 0.73569 0.0
C2037 C 0.34483 0.48583 0.7299 0.0
C2038 C 0.31706 0.46474 0.73855 0.0
C2039 C 0.31812 0.41284 0.72683 0.0
H2040 H 0.28804 0.40608 0.76932 0.0
C2041 C 0.27325 0.33954 0.73574 0.0
C2042 C 0.27293 0.3336 0.75421 0.0
C2043 C 0.28116 0.35837 0.73297 0.0
C2044 C 0.29651 0.4077 0.75748 0.0
H2045 H 0.36791 0.47117 0.72259 0.0
H2046 H 0.35185 0.4393 0.72783 0.0
H2047 H 0.30376 0.43828 0.7641 0.0
H2048 H 0.28046 0.34299 0.78429 0.0
H2049 H 0.29466 0.37586 0.77941 0.0
H2050 H 0.31145 0.38229 0.72053 0.0
C2051 C 0.34439 0.45132 0.72984 0.0
C2052 C 0.30532 0.4262 0.75433 0.0
C2053 C 0.35366 0.46966 0.72691 0.0
C2054 C 0.28043 0.3471 0.76988 0.0
C2055 C 0.2885 0.36597 0.76708 0.0
C2056 C 0.3094 0.39438 0.73002 0.0
C2057 C 0.32599 0.4486 0.73574 0.0
C2058 C 0.31627 0.429 0.73897 0.0
C2059 C 0.28913 0.37178 0.74856 0.0
C2060 C 0.29844 0.39155 0.74535 0.0
H2061 H 0.31914 0.49526 0.73811 0.0
H2062 H 0.30279 0.46315 0.74282 0.0
H2063 H 0.32623 0.41444 0.71473 0.0
H2064 H 0.26741 0.32962 0.72333 0.0
H2065 H 0.28099 0.36242 0.71853 0.0
C2066 C 0.14489 0.55211 0.27336 0.0
C2067 C 0.12934 0.5469 0.25918 0.0
C2068 C 0.15684 0.57004 0.27412 0.0
C2069 C 0.15762 0.61823 0.25617 0.0
H2070 H 0.212 0.62519 0.27163 0.0
C2071 C 0.20961 0.68532 0.24253 0.0
C2072 C 0.22101 0.69524 0.25868 0.0
C2073 C 0.19934 0.66691 0.24341 0.0
C2074 C 0.19681 0.6234 0.26741 0.0
H2075 H 0.11466 0.5559 0.23414 0.0
H2076 H 0.13581 0.58658 0.23491 0.0
H2077 H 0.19229 0.59334 0.27134 0.0
H2078 H 0.23123 0.69358 0.2882 0.0
H2079 H 0.2135 0.66094 0.28959 0.0
H2080 H 0.16231 0.64811 0.2516 0.0
C2081 C 0.13843 0.57733 0.24598 0.0
C2082 C 0.18549 0.60522 0.26731 0.0
C2083 C 0.12635 0.55964 0.24543 0.0
C2084 C 0.22248 0.6862 0.27557 0.0
C2085 C 0.21244 0.66757 0.27636 0.0
C2086 C 0.16896 0.63623 0.25597 0.0
C2087 C 0.15363 0.58296 0.26052 0.0
C2088 C 0.16576 0.60237 0.26148 0.0
C2089 C 0.20053 0.65794 0.26037 0.0
C2090 C 0.18865 0.63894 0.26142 0.0
H2091 H 0.1475 0.54259 0.28418 0.0
H2092 H 0.1683 0.57392 0.28561 0.0
H2093 H 0.14243 0.6168 0.25215 0.0
H2094 H 0.20824 0.69199 0.22934 0.0
H2095 H 0.19034 0.65968 0.23087 0.0
C2096 C 0.51258 0.73518 0.42729 0.0
C2097 C 0.50825 0.73292 0.40737 0.0
C2098 C 0.51039 0.71917 0.43779 0.0
C2099 C 0.51697 0.68189 0.45392 0.0
H2100 H 0.47454 0.63957 0.44084 0.0
C2101 C 0.51822 0.60622 0.47817 0.0
C2102 C 0.50135 0.59586 0.48342 0.0
C2103 C 0.51819 0.62382 0.47051 0.0
C2104 C 0.48637 0.65134 0.44483 0.0
H2105 H 0.49787 0.71211 0.38289 0.0
H2106 H 0.49418 0.68422 0.40116 0.0
H2107 H 0.47545 0.66874 0.42449 0.0
H2108 H 0.47126 0.59578 0.4851 0.0
H2109 H 0.47118 0.62667 0.47175 0.0
H2110 H 0.52791 0.66451 0.47424 0.0
C2111 C 0.49908 0.69837 0.40872 0.0
C2112 C 0.487 0.66798 0.43531 0.0
C2113 C 0.50131 0.71436 0.39823 0.0
C2114 C 0.48447 0.60352 0.48116 0.0
C2115 C 0.48441 0.62112 0.47342 0.0
C2116 C 0.51637 0.66524 0.4634 0.0
C2117 C 0.50377 0.70055 0.42861 0.0
C2118 C 0.50242 0.68337 0.43958 0.0
C2119 C 0.50127 0.63142 0.46789 0.0
C2120 C 0.50119 0.64967 0.4588 0.0
H2121 H 0.5179 0.7493 0.43478 0.0
H2122 H 0.51391 0.72138 0.45312 0.0
H2123 H 0.52914 0.69339 0.45746 0.0
H2124 H 0.53142 0.6006 0.47971 0.0
H2125 H 0.53136 0.63122 0.46617 0.0
C2126 C 0.56237 0.27924 0.6714 0.0
C2127 C 0.54591 0.27911 0.68076 0.0
C2128 C 0.58027 0.28104 0.68186 0.0
C2129 C 0.61735 0.2948 0.70751 0.0
H2130 H 0.62185 0.26441 0.75042 0.0
C2131 C 0.68939 0.29827 0.75202 0.0
C2132 C 0.69448 0.28035 0.7553 0.0
C2133 C 0.67063 0.29953 0.74551 0.0
C2134 C 0.62082 0.27297 0.73848 0.0
H2135 H 0.53534 0.28123 0.70844 0.0
H2136 H 0.56658 0.2845 0.72667 0.0
H2137 H 0.59055 0.26404 0.73317 0.0
H2138 H 0.68353 0.24986 0.75548 0.0
H2139 H 0.65083 0.25206 0.74402 0.0
H2140 H 0.64765 0.30324 0.71237 0.0
C2141 C 0.56563 0.28297 0.71125 0.0
C2142 C 0.60287 0.27292 0.72871 0.0
C2143 C 0.54775 0.28122 0.70079 0.0
C2144 C 0.68013 0.2639 0.75307 0.0
C2145 C 0.66134 0.26517 0.74655 0.0
C2146 C 0.63527 0.2949 0.7173 0.0
C2147 C 0.58207 0.28272 0.70191 0.0
C2148 C 0.60097 0.28365 0.71297 0.0
C2149 C 0.65651 0.28291 0.74215 0.0
C2150 C 0.63724 0.28384 0.73277 0.0
H2151 H 0.56142 0.27761 0.65598 0.0
H2152 H 0.59263 0.28059 0.67422 0.0
H2153 H 0.61634 0.30338 0.69558 0.0
H2154 H 0.70003 0.31129 0.75376 0.0
H2155 H 0.66728 0.31348 0.74264 0.0
C2156 C 0.00562 0.3417 0.91232 0.0
C2157 C 0.01694 0.34456 0.89726 0.0
C2158 C 0.00143 0.35742 0.92338 0.0
C2159 C 0.01787 0.40909 0.93786 0.0
H2160 H 0.96567 0.40874 0.94873 0.0
C2161 C 0.96962 0.46622 0.96837 0.0
C2162 C 0.98198 0.47504 0.98437 0.0
C2163 C 0.97343 0.44974 0.95816 0.0
C2164 C 0.98028 0.40906 0.94574 0.0
H2165 H 0.03308 0.36626 0.88234 0.0
H2166 H 0.02588 0.39365 0.90177 0.0
H2167 H 0.97368 0.38111 0.93013 0.0
H2168 H 0.00734 0.47307 0.00295 0.0
H2169 H 0.01408 0.4445 0.9851 0.0
H2170 H 0.02447 0.43706 0.95333 0.0
C2171 C 0.02026 0.37923 0.90499 0.0
C2172 C 0.98491 0.39319 0.93526 0.0
C2173 C 0.02432 0.36352 0.89381 0.0
C2174 C -0.00222 0.46676 0.99041 0.0
C2175 C 0.00166 0.45043 0.98018 0.0
C2176 C 0.01328 0.42487 0.94846 0.0
C2177 C 0.0086 0.37635 0.91976 0.0
C2178 C 0.00374 0.39305 0.93117 0.0
C2179 C 0.98968 0.44187 0.9638 0.0
C2180 C -0.00557 0.42505 0.9525 0.0
H2181 H -0.00032 0.3273 0.91536 0.0
H2182 H -0.00741 0.35476 0.93482 0.0
H2183 H 0.03253 0.40935 0.93504 0.0
H2184 H 0.95731 0.47232 0.96348 0.0
H2185 H 0.96397 0.44348 0.94555 0.0
C2186 C 0.93223 0.74271 0.2055 0.0
C2187 C 0.93662 0.75115 0.18878 0.0
C2188 C 0.91493 0.74379 0.2127 0.0
C2189 C 0.866 0.75203 0.2009 0.0
H2190 H 0.86953 0.76789 0.25502 0.0
C2191 C 0.80208 0.77201 0.23807 0.0
C2192 C 0.80051 0.76684 0.25663 0.0
C2193 C 0.81805 0.76926 0.22892 0.0
C2194 C 0.8682 0.76315 0.23995 0.0
H2195 H 0.92584 0.76673 0.16614 0.0
H2196 H 0.89544 0.76853 0.17879 0.0
H2197 H 0.8983 0.76438 0.24038 0.0
H2198 H 0.81405 0.7546 0.28021 0.0
H2199 H 0.84171 0.74929 0.26417 0.0
H2200 H 0.83581 0.75062 0.20053 0.0
C2201 C 0.90551 0.7611 0.18626 0.0
C2202 C 0.88472 0.7612 0.23155 0.0
C2203 C 0.92294 0.76012 0.17906 0.0
C2204 C 0.81499 0.75869 0.26587 0.0
C2205 C 0.83087 0.75579 0.25671 0.0
C2206 C 0.84938 0.75384 0.20935 0.0
C2207 C 0.90151 0.75325 0.20335 0.0
C2208 C 0.88381 0.75554 0.21197 0.0
C2209 C 0.83274 0.76128 0.23821 0.0
C2210 C 0.85029 0.75934 0.22902 0.0
H2211 H 0.94233 0.73557 0.21331 0.0
H2212 H 0.9121 0.73734 0.22574 0.0
H2213 H 0.86488 0.74753 0.18579 0.0
H2214 H 0.79138 0.77891 0.23093 0.0
H2215 H 0.81916 0.77399 0.21483 0.0
C2216 C 0.47978 0.33281 0.05516 0.0
C2217 C 0.47667 0.33447 0.07447 0.0
C2218 C 0.47925 0.34842 0.04435 0.0
C2219 C 0.46291 0.3951 0.04273 0.0
H2220 H 0.50602 0.40837 0.01404 0.0
C2221 C 0.50249 0.46521 0.00827 0.0
C2222 C 0.4867 0.47084 -0.00157 0.0
C2223 C 0.50052 0.44754 0.01604 0.0
C2224 C 0.49392 0.40483 0.022 0.0
H2225 H 0.46971 0.35345 0.09738 0.0
H2226 H 0.4687 0.38065 0.07849 0.0
H2227 H 0.50293 0.37906 0.03037 0.0
H2228 H 0.45663 0.46247 0.98846 0.0
H2229 H 0.45318 0.43153 0.00195 0.0
H2230 H 0.45414 0.4211 0.03472 0.0
C2231 C 0.47153 0.36729 0.0717 0.0
C2232 C 0.49203 0.38798 0.03117 0.0
C2233 C 0.47219 0.35174 0.08254 0.0
C2234 C 0.46903 0.45839 -0.00401 0.0
C2235 C 0.46702 0.44079 0.00384 0.0
C2236 C 0.46472 0.41189 0.03345 0.0
C2237 C 0.47544 0.36592 0.05262 0.0
C2238 C 0.47662 0.38305 0.04178 0.0
C2239 C 0.4827 0.43527 0.01409 0.0
C2240 C 0.48035 0.41701 0.02317 0.0
H2241 H 0.48324 0.31966 0.04855 0.0
H2242 H 0.48209 0.34691 0.0296 0.0
H2243 H 0.45083 0.39159 0.05073 0.0
H2244 H 0.5163 0.47452 0.01005 0.0
H2245 H 0.51282 0.44371 0.02398 0.0
C2246 C 0.95279 0.25896 0.38047 0.0
C2247 C 0.96799 0.27174 0.37479 0.0
C2248 C 0.9344 0.25719 0.37105 0.0
C2249 C 0.90978 0.26554 0.32516 0.0
H2250 H 0.86498 0.26227 0.35235 0.0
C2251 C 0.83711 0.2775 0.29104 0.0
C2252 C 0.82073 0.26562 0.29547 0.0
C2253 C 0.85496 0.27639 0.30023 0.0
C2254 C 0.87735 0.26288 0.34455 0.0
H2255 H 0.97565 0.29329 0.35537 0.0
H2256 H 0.94365 0.29041 0.33927 0.0
H2257 H 0.89638 0.26445 0.37009 0.0
H2258 H 0.80998 0.24288 0.31244 0.0
H2259 H 0.8413 0.24089 0.32855 0.0
H2260 H 0.89083 0.26428 0.29967 0.0
C2261 C 0.94599 0.28142 0.35064 0.0
C2262 C 0.8953 0.26415 0.35471 0.0
C2263 C 0.96431 0.28315 0.35998 0.0
C2264 C 0.82246 0.25225 0.30886 0.0
C2265 C 0.84032 0.25118 0.31812 0.0
C2266 C 0.89187 0.26431 0.31504 0.0
C2267 C 0.93091 0.26819 0.35584 0.0
C2268 C 0.91172 0.26578 0.34513 0.0
C2269 C 0.85671 0.2634 0.31405 0.0
C2270 C 0.87551 0.26322 0.32465 0.0
H2271 H 0.95517 0.24995 0.39181 0.0
H2272 H 0.92306 0.24683 0.37532 0.0
H2273 H 0.92215 0.26634 0.31734 0.0
H2274 H 0.8361 0.28794 0.28077 0.0
H2275 H 0.86733 0.28612 0.29695 0.0
C2276 C 0.99058 0.70857 0.60219 0.0
C2277 C 0.9849 0.72477 0.59463 0.0
C2278 C 0.9873 0.69078 0.5913 0.0
C2279 C 0.98036 0.66921 0.54182 0.0
H2280 H 0.96732 0.62191 0.56549 0.0
C2281 C -0.00216 0.59646 0.51295 0.0
C2282 C 0.98554 0.57938 0.51545 0.0
C2283 C -0.00578 0.61432 0.52012 0.0
C2284 C 0.97065 0.63494 0.55852 0.0
H2285 H 0.97095 0.73484 0.56975 0.0
H2286 H 0.96521 0.70362 0.55069 0.0
H2287 H 0.96696 0.6527 0.58331 0.0
H2288 H 0.95914 0.56782 0.5265 0.0
H2289 H 0.95275 0.599 0.53878 0.0
H2290 H 0.98424 0.6514 0.51707 0.0
C2291 C 0.97232 0.70481 0.56504 0.0
C2292 C 0.97067 0.65261 0.56883 0.0
C2293 C 0.97554 0.72266 0.576 0.0
C2294 C 0.96899 0.58066 0.52439 0.0
C2295 C 0.96537 0.59853 0.53155 0.0
C2296 C 0.98035 0.6515 0.53149 0.0
C2297 C 0.97828 0.68871 0.57255 0.0
C2298 C 0.97596 0.66996 0.56077 0.0
C2299 C 0.9782 0.61552 0.52994 0.0
C2300 C 0.9759 0.63418 0.53987 0.0
H2301 H -0.00219 0.70964 0.61648 0.0
H2302 H -0.00767 0.67874 0.59742 0.0
H2303 H 0.98459 0.68232 0.53524 0.0
H2304 H 0.01071 0.59603 0.50613 0.0
H2305 H 0.0045 0.62709 0.51879 0.0
C2306 C 0.58646 0.75388 0.8943 0.0
C2307 C 0.56714 0.74905 0.88708 0.0
C2308 C 0.60059 0.75252 0.88217 0.0
C2309 C 0.60999 0.73131 0.83558 0.0
H2310 H 0.64763 0.77784 0.83702 0.0
C2311 C 0.67134 0.76962 0.78899 0.0
C2312 C 0.6825 0.75516 0.78742 0.0
C2313 C 0.65593 0.76742 0.7998 0.0
C2314 C 0.63711 0.76482 0.83637 0.0
H2315 H 0.54736 0.73788 0.86196 0.0
H2316 H 0.57204 0.73537 0.84092 0.0
H2317 H 0.62429 0.77575 0.86006 0.0
H2318 H 0.6858 0.72662 0.7947 0.0
H2319 H 0.65871 0.72267 0.81343 0.0
H2320 H 0.62284 0.72045 0.81179 0.0
C2321 C 0.57628 0.74027 0.85584 0.0
C2322 C 0.62396 0.76351 0.84972 0.0
C2323 C 0.56219 0.74183 0.86787 0.0
C2324 C 0.67737 0.73798 0.79576 0.0
C2325 C 0.66187 0.7357 0.80641 0.0
C2326 C 0.62328 0.73255 0.82232 0.0
C2327 C 0.59558 0.74607 0.86277 0.0
C2328 C 0.61024 0.74679 0.8494 0.0
C2329 C 0.6514 0.75064 0.80901 0.0
C2330 C 0.63687 0.74937 0.82254 0.0
H2331 H 0.59063 0.75944 0.90904 0.0
H2332 H 0.61543 0.7569 0.88786 0.0
H2333 H 0.59953 0.71826 0.83507 0.0
H2334 H 0.67505 0.783 0.78267 0.0
H2335 H 0.64789 0.77904 0.80142 0.0
C2336 C 0.37705 0.55545 0.66069 0.0
C2337 C 0.38593 0.56406 0.67858 0.0
C2338 C 0.38755 0.555 0.64498 0.0
C2339 C 0.41249 0.56241 0.61234 0.0
H2340 H 0.46178 0.54752 0.62428 0.0
C2341 C 0.46586 0.556 0.55648 0.0
C2342 C 0.4738 0.53909 0.55603 0.0
C2343 C 0.45549 0.5608 0.57138 0.0
C2344 C 0.44806 0.55166 0.62072 0.0
H2345 H 0.41223 0.58023 0.69375 0.0
H2346 H 0.43036 0.57966 0.66643 0.0
H2347 H 0.44223 0.55316 0.64976 0.0
H2348 H 0.47744 0.51416 0.57105 0.0
H2349 H 0.45953 0.52264 0.59711 0.0
H2350 H 0.41826 0.56043 0.58314 0.0
C2351 C 0.41549 0.57285 0.66457 0.0
C2352 C 0.43693 0.55509 0.63532 0.0
C2353 C 0.40507 0.57324 0.6802 0.0
C2354 C 0.47156 0.52733 0.57101 0.0
C2355 C 0.46135 0.53221 0.58597 0.0
C2356 C 0.42372 0.55908 0.59769 0.0
C2357 C 0.40704 0.56319 0.64696 0.0
C2358 C 0.41899 0.5604 0.6313 0.0
C2359 C 0.45303 0.54887 0.5862 0.0
C2360 C 0.44153 0.55349 0.60174 0.0
H2361 H 0.36231 0.54828 0.65903 0.0
H2362 H 0.38067 0.54741 0.63158 0.0
H2363 H 0.39876 0.56656 0.60884 0.0
H2364 H 0.46715 0.56527 0.54504 0.0
H2365 H 0.44935 0.5738 0.57129 0.0
C2366 C 0.79528 0.19264 0.93307 0.0
C2367 C 0.79212 0.20109 0.95089 0.0
C2368 C 0.79236 0.20185 0.91655 0.0
C2369 C 0.76501 0.23707 0.89708 0.0
H2370 H 0.79767 0.23565 0.85652 0.0
C2371 C 0.75449 0.2769 0.82934 0.0
C2372 C 0.7579 0.2678 0.81195 0.0
C2373 C 0.75869 0.26912 0.8465 0.0
C2374 C 0.78825 0.23598 0.86759 0.0
H2375 H 0.78405 0.22621 0.96537 0.0
H2376 H 0.77909 0.24236 0.93653 0.0
H2377 H 0.806 0.22221 0.88618 0.0
H2378 H 0.76809 0.24325 0.79884 0.0
H2379 H 0.77493 0.22941 0.82862 0.0
H2380 H 0.74713 0.25061 0.87843 0.0
C2381 C 0.78362 0.22848 0.93533 0.0
C2382 C 0.79308 0.22832 0.88465 0.0
C2383 C 0.78664 0.21931 0.95188 0.0
C2384 C 0.76519 0.25055 0.812 0.0
C2385 C 0.76934 0.24274 0.82913 0.0
C2386 C 0.76014 0.24468 0.88 0.0
C2387 C 0.78612 0.21971 0.91741 0.0
C2388 C 0.78148 0.22868 0.89958 0.0
C2389 C 0.76639 0.25205 0.84665 0.0
C2390 C 0.77164 0.24414 0.86497 0.0
H2391 H 0.79946 0.17859 0.93178 0.0
H2392 H 0.79428 0.19459 0.903 0.0
H2393 H 0.75559 0.23732 0.90816 0.0
H2394 H 0.74895 0.29027 0.82974 0.0
H2395 H 0.75639 0.2768 0.8597 0.0
C2396 C 0.08859 0.48194 0.19143 0.0
C2397 C 0.07756 0.47464 0.20546 0.0
C2398 C 0.07996 0.48446 0.17352 0.0
C2399 C 0.06024 0.48091 0.13365 0.0
H2400 H 0.01144 0.49814 0.13003 0.0
C2401 C 0.0232 0.49224 0.06099 0.0
C2402 C 0.01342 0.50784 0.05991 0.0
C2403 C 0.02952 0.48672 0.07862 0.0
C2404 C 0.02516 0.49352 0.13079 0.0
H2405 H 0.04885 0.46359 0.21146 0.0
H2406 H 0.03377 0.46729 0.17986 0.0
H2407 H 0.02568 0.49131 0.16078 0.0
H2408 H 0.00238 0.52978 0.07639 0.0
H2409 H 0.01415 0.52071 0.10733 0.0
H2410 H 0.06036 0.48418 0.104 0.0
C2411 C 0.04908 0.47161 0.1829 0.0
C2412 C 0.0332 0.48928 0.14841 0.0
C2413 C 0.05773 0.46931 0.20095 0.0
C2414 C 0.00981 0.51764 0.07684 0.0
C2415 C 0.01648 0.51235 0.09456 0.0
C2416 C 0.05235 0.48541 0.11614 0.0
C2417 C 0.06006 0.47948 0.16902 0.0
C2418 C 0.05092 0.48303 0.15011 0.0
C2419 C 0.02661 0.49691 0.09568 0.0
C2420 C 0.03472 0.49181 0.11442 0.0
H2421 H 0.1039 0.48633 0.19447 0.0
H2422 H 0.08891 0.49089 0.16341 0.0
H2423 H 0.07373 0.47584 0.13426 0.0
H2424 H 0.02592 0.4842 0.04816 0.0
H2425 H 0.03675 0.47443 0.07882 0.0
C2426 C 0.70646 0.87547 0.45327 0.0
C2427 C 0.7098 0.86957 0.47158 0.0
C2428 C 0.70629 0.86267 0.43714 0.0
C2429 C 0.72858 0.82202 0.42335 0.0
H2430 H 0.6975 0.82053 0.37512 0.0
C2431 C 0.72246 0.78574 0.34085 0.0
C2432 C 0.74133 0.79189 0.33715 0.0
C2433 C 0.71634 0.79196 0.35805 0.0
C2434 C 0.7061 0.82058 0.38858 0.0
H2435 H 0.71396 0.8452 0.48735 0.0
H2436 H 0.71362 0.82298 0.45922 0.0
H2437 H 0.68896 0.83736 0.40376 0.0
H2438 H 0.76881 0.80866 0.34849 0.0
H2439 H 0.75822 0.81933 0.37873 0.0
H2440 H 0.74606 0.8058 0.40811 0.0
C2441 C 0.71149 0.83756 0.45735 0.0
C2442 C 0.70131 0.83031 0.40488 0.0
C2443 C 0.71168 0.85031 0.47344 0.0
C2444 C 0.7542 0.80373 0.35109 0.0
C2445 C 0.74816 0.80974 0.36837 0.0
C2446 C 0.73343 0.81244 0.40706 0.0
C2447 C 0.70942 0.84379 0.43908 0.0
C2448 C 0.71274 0.83144 0.42233 0.0
C2449 C 0.72911 0.80415 0.37186 0.0
C2450 C 0.7225 0.81202 0.38947 0.0
H2451 H 0.70485 0.89018 0.45136 0.0
H2452 H 0.70479 0.8679 0.42321 0.0
H2453 H 0.73778 0.82282 0.43656 0.0
H2454 H 0.71228 0.77659 0.33026 0.0
H2455 H 0.70161 0.78741 0.36048 0.0
C2456 C 0.42915 0.55277 0.78818 0.0
C2457 C 0.41018 0.55534 0.78403 0.0
C2458 C 0.43752 0.5547 0.80696 0.0
C2459 C 0.4335 0.57288 0.8564 0.0
H2460 H 0.45902 0.53035 0.8684 0.0
C2461 C 0.4538 0.5543 0.93324 0.0
C2462 C 0.47053 0.54657 0.93646 0.0
C2463 C 0.44766 0.55844 0.91493 0.0
C2464 C 0.45227 0.54254 0.86528 0.0
H2465 H 0.38542 0.56291 0.7963 0.0
H2466 H 0.40007 0.56602 0.8293 0.0
H2467 H 0.44598 0.53213 0.83587 0.0
H2468 H 0.49474 0.53842 0.92369 0.0
H2469 H 0.48435 0.5461 0.8919 0.0
H2470 H 0.43972 0.58313 0.88605 0.0
C2471 C 0.40844 0.56264 0.81792 0.0
C2472 C 0.44475 0.54353 0.84661 0.0
C2473 C 0.40004 0.56075 0.79905 0.0
C2474 C 0.48163 0.54412 0.92146 0.0
C2475 C 0.47563 0.54843 0.90327 0.0
C2476 C 0.44113 0.57193 0.87518 0.0
C2477 C 0.42711 0.55917 0.82204 0.0
C2478 C 0.43532 0.55869 0.84195 0.0
C2479 C 0.45827 0.55503 0.89965 0.0
C2480 C 0.45062 0.55673 0.87978 0.0
H2481 H 0.43748 0.54889 0.77695 0.0
H2482 H 0.45206 0.55231 0.8097 0.0
H2483 H 0.42635 0.58477 0.85315 0.0
H2484 H 0.44506 0.55636 0.94466 0.0
H2485 H 0.43418 0.56343 0.91258 0.0
C2486 C 0.77905 0.17701 0.08112 0.0
C2487 C 0.78439 0.18628 0.06511 0.0
C2488 C 0.77859 0.18754 0.09853 0.0
C2489 C 0.77433 0.23553 0.12017 0.0
H2490 H 0.78945 0.21407 0.16678 0.0
C2491 C 0.75098 0.2593 0.19335 0.0
C2492 C 0.76345 0.25921 0.20993 0.0
C2493 C 0.75552 0.25259 0.17549 0.0
C2494 C 0.78539 0.22049 0.15397 0.0
H2495 H 0.7936 0.21411 0.05506 0.0
H2496 H 0.79286 0.23265 0.08574 0.0
H2497 H 0.7946 0.19867 0.13627 0.0
H2498 H 0.79088 0.25265 0.22055 0.0
H2499 H 0.79894 0.24134 0.18947 0.0
H2500 H 0.7652 0.25744 0.13799 0.0
C2501 C 0.78892 0.21711 0.08463 0.0
C2502 C 0.78815 0.21149 0.13641 0.0
C2503 C 0.78946 0.20649 0.06709 0.0
C2504 C 0.78084 0.25279 0.20813 0.0
C2505 C 0.78542 0.24619 0.19027 0.0
C2506 C 0.77159 0.24459 0.13781 0.0
C2507 C 0.78346 0.20772 0.10057 0.0
C2508 C 0.78232 0.21864 0.11924 0.0
C2509 C 0.77269 0.24568 0.17373 0.0
C2510 C 0.77683 0.23702 0.15495 0.0
H2511 H 0.77501 0.16148 0.08023 0.0
H2512 H 0.77398 0.1798 0.11034 0.0
H2513 H 0.76959 0.24139 0.10725 0.0
H2514 H 0.73743 0.26407 0.19419 0.0
H2515 H 0.74523 0.25221 0.16316 0.0
C2516 C 0.06128 0.5142 0.32136 0.0
C2517 C 0.06782 0.49736 0.31518 0.0
C2518 C 0.05531 0.51652 0.33945 0.0
C2519 C 0.05485 0.49567 0.38643 0.0
H2520 H 0.01362 0.5245 0.39135 0.0
C2521 C 0.00666 0.49484 0.44832 0.0
C2522 C 0.00534 0.51302 0.45709 0.0
C2523 C 0.01617 0.49328 0.43207 0.0
C2524 C 0.02525 0.51656 0.39019 0.0
H2525 H 0.07345 0.46976 0.32311 0.0
H2526 H 0.06198 0.47323 0.35444 0.0
H2527 H 0.0259 0.52041 0.36073 0.0
H2528 H 0.01298 0.54381 0.45607 0.0
H2529 H 0.02907 0.54109 0.42708 0.0
H2530 H 0.05316 0.49101 0.41588 0.0
C2531 C 0.06203 0.485 0.34558 0.0
C2532 C 0.03243 0.51429 0.37266 0.0
C2533 C 0.0685 0.48291 0.32757 0.0
C2534 C 0.01386 0.52965 0.44953 0.0
C2535 C 0.02299 0.5281 0.433 0.0
C2536 C 0.04732 0.49759 0.40389 0.0
C2537 C 0.05517 0.5018 0.35171 0.0
C2538 C 0.04746 0.50393 0.37051 0.0
C2539 C 0.02413 0.50989 0.4241 0.0
C2540 C 0.03255 0.50816 0.40591 0.0
H2541 H 0.06093 0.52574 0.31223 0.0
H2542 H 0.0508 0.52993 0.34375 0.0
H2543 H 0.06657 0.48785 0.38551 0.0
H2544 H 0.00033 0.48181 0.45403 0.0
H2545 H 0.01679 0.47911 0.42538 0.0
C2546 C 0.745 0.85896 0.59496 0.0
C2547 C 0.7346 0.85288 0.57709 0.0
C2548 C 0.7467 0.84586 0.60844 0.0
C2549 C 0.75561 0.81321 0.63083 0.0
H2550 H 0.70854 0.78251 0.64212 0.0
C2551 C 0.75577 0.77122 0.69577 0.0
C2552 C 0.74235 0.77553 0.70797 0.0
C2553 C 0.75379 0.77511 0.67678 0.0
C2554 C 0.7218 0.79087 0.63901 0.0
H2555 H 0.71817 0.82827 0.55909 0.0
H2556 H 0.72106 0.80539 0.58281 0.0
H2557 H 0.70835 0.80112 0.61448 0.0
H2558 H 0.71554 0.78573 0.70959 0.0
H2559 H 0.71227 0.79293 0.67647 0.0
H2560 H 0.76892 0.8039 0.65581 0.0
C2561 C 0.72784 0.82029 0.58634 0.0
C2562 C 0.72173 0.80138 0.62314 0.0
C2563 C 0.72626 0.83337 0.57279 0.0
C2564 C 0.72611 0.78231 0.70049 0.0
C2565 C 0.7242 0.78635 0.68149 0.0
C2566 C 0.7557 0.80267 0.64661 0.0
C2567 C 0.73794 0.82646 0.60434 0.0
C2568 C 0.73854 0.8131 0.61928 0.0
C2569 C 0.73845 0.78352 0.66969 0.0
C2570 C 0.7387 0.79183 0.65118 0.0
H2571 H 0.75159 0.8739 0.59865 0.0
H2572 H 0.75437 0.85105 0.62232 0.0
H2573 H 0.76879 0.82196 0.62802 0.0
H2574 H 0.76826 0.76563 0.70108 0.0
H2575 H 0.76477 0.77242 0.66789 0.0
C2576 C 0.64159 0.41083 0.52713 0.0
C2577 C 0.66069 0.4201 0.52844 0.0
C2578 C 0.62679 0.42162 0.52708 0.0
C2579 C 0.61738 0.47116 0.53933 0.0
H2580 H 0.57171 0.45438 0.504 0.0
C2581 C 0.56327 0.52125 0.52096 0.0
C2582 C 0.54381 0.51321 0.51913 0.0
C2583 C 0.57718 0.50955 0.52328 0.0
C2584 C 0.58427 0.45917 0.51412 0.0
H2585 H 0.67921 0.44798 0.53083 0.0
H2586 H 0.65361 0.46662 0.53049 0.0
H2587 H 0.59634 0.43433 0.50611 0.0
H2588 H 0.52382 0.48657 0.51713 0.0
H2589 H 0.54775 0.46616 0.52178 0.0
H2590 H 0.60543 0.49613 0.54713 0.0
C2591 C 0.64995 0.45108 0.52981 0.0
C2592 C 0.59839 0.44763 0.51536 0.0
C2593 C 0.66466 0.44034 0.52986 0.0
C2594 C 0.53856 0.49326 0.51943 0.0
C2595 C 0.55238 0.48152 0.52164 0.0
C2596 C 0.6033 0.4827 0.53805 0.0
C2597 C 0.63081 0.4419 0.52838 0.0
C2598 C 0.61522 0.45357 0.52785 0.0
C2599 C 0.57188 0.4895 0.52355 0.0
C2600 C 0.58662 0.47693 0.52533 0.0
H2601 H 0.63806 0.39526 0.52605 0.0
H2602 H 0.61222 0.41407 0.52614 0.0
H2603 H 0.62999 0.47603 0.54936 0.0
H2604 H 0.56776 0.53659 0.52051 0.0
H2605 H 0.59207 0.51617 0.5244 0.0
C2606 C 0.18173 0.13019 0.4681 0.0
C2607 C 0.19598 0.11934 0.46447 0.0
C2608 C 0.16333 0.12098 0.47026 0.0
C2609 C 0.12325 0.09832 0.46785 0.0
H2610 H 0.12022 0.05289 0.49543 0.0
C2611 C 0.05126 0.05372 0.47934 0.0
C2612 C 0.04948 0.04601 0.49689 0.0
C2613 C 0.069 0.06231 0.47476 0.0
C2614 C 0.12083 0.06567 0.48789 0.0
H2615 H 0.20187 0.09045 0.45885 0.0
H2616 H 0.16959 0.07438 0.46191 0.0
H2617 H 0.15101 0.06867 0.48768 0.0
H2618 H 0.06492 0.0413 0.52346 0.0
H2619 H 0.09598 0.05681 0.51568 0.0
H2620 H 0.0932 0.09583 0.46881 0.0
C2621 C 0.17275 0.08997 0.46376 0.0
C2622 C 0.13845 0.07454 0.48314 0.0
C2623 C 0.19119 0.09917 0.4618 0.0
C2624 C 0.06587 0.04702 0.50979 0.0
C2625 C 0.08366 0.05583 0.50527 0.0
C2626 C 0.10565 0.08955 0.47275 0.0
C2627 C 0.15876 0.10075 0.46862 0.0
C2628 C 0.13988 0.09097 0.47304 0.0
C2629 C 0.08541 0.06362 0.4877 0.0
C2630 C 0.10422 0.07309 0.48279 0.0
H2631 H 0.18501 0.14577 0.47031 0.0
H2632 H 0.15298 0.12976 0.47414 0.0
H2633 H 0.12378 0.11085 0.45994 0.0
H2634 H 0.03894 0.05298 0.46897 0.0
H2635 H 0.06985 0.06775 0.46095 0.0
C2636 C 0.18879 0.95425 0.77682 0.0
C2637 C 0.16973 0.95097 0.78087 0.0
C2638 C 0.19899 0.93905 0.77543 0.0
C2639 C 0.19173 0.88598 0.76636 0.0
H2640 H 0.24504 0.89291 0.78635 0.0
C2641 C 0.25278 0.83714 0.78533 0.0
C2642 C 0.25022 0.8242 0.76882 0.0
C2643 C 0.24337 0.85289 0.78612 0.0
C2644 C 0.23013 0.8907 0.78075 0.0
H2645 H 0.14662 0.92926 0.78721 0.0
H2646 H 0.16451 0.90281 0.78511 0.0
H2647 H 0.22773 0.91962 0.79018 0.0
H2648 H 0.23635 0.81784 0.73995 0.0
H2649 H 0.21971 0.84551 0.74128 0.0
H2650 H 0.19405 0.85689 0.75734 0.0
C2651 C 0.17147 0.91706 0.78265 0.0
C2652 C 0.22026 0.90608 0.78278 0.0
C2653 C 0.16127 0.93227 0.78404 0.0
C2654 C 0.23835 0.8275 0.75293 0.0
C2655 C 0.22883 0.84329 0.75373 0.0
C2656 C 0.20162 0.87058 0.76431 0.0
C2657 C 0.19036 0.92022 0.77805 0.0
C2658 C 0.20091 0.90388 0.77572 0.0
C2659 C 0.23121 0.85614 0.77038 0.0
C2660 C 0.22091 0.87273 0.77161 0.0
H2661 H 0.19569 0.96848 0.7742 0.0
H2662 H 0.21346 0.94196 0.77172 0.0
H2663 H 0.17691 0.88388 0.76051 0.0
H2664 H 0.26179 0.83489 0.79784 0.0
H2665 H 0.2453 0.8623 0.79926 0.0
C2666 C 0.28249 0.92563 0.03219 0.0
C2667 C 0.26991 0.93347 0.01982 0.0
C2668 C 0.30202 0.93336 0.0348 0.0
C2669 C 0.33612 0.97726 0.02762 0.0
H2670 H 0.37336 0.94318 0.02727 0.0
C2671 C 0.41138 8e-05 0.00671 0.0
C2672 C 0.42677 0.99507 0.01784 0.0
C2673 C 0.39268 0.99303 0.00993 0.0
C2674 C 0.36313 0.95288 0.02768 0.0
H2675 H 0.26809 0.95551 0.00039 0.0
H2676 H 0.30185 0.9686 0.00464 0.0
H2677 H 0.33961 0.92973 0.02747 0.0
H2678 H 0.43483 0.97889 0.04109 0.0
H2679 H 0.40189 0.9662 0.04652 0.0
H2680 H 0.35954 0.0003 0.02705 0.0
C2681 C 0.2967 0.9568 0.01269 0.0
C2682 C 0.34382 0.9452 0.02783 0.0
C2683 C 0.27729 0.94915 0.01013 0.0
C2684 C 0.42316 0.98294 0.03232 0.0
C2685 C 0.40438 0.97565 0.03538 0.0
C2686 C 0.35535 0.98489 0.02731 0.0
C2687 C 0.30932 0.94908 0.02509 0.0
C2688 C 0.33003 0.95727 0.02731 0.0
C2689 C 0.38897 0.98067 0.02421 0.0
C2690 C 0.36899 0.97274 0.02689 0.0
H2691 H 0.27728 0.91357 0.0399 0.0
H2692 H 0.31135 0.92715 0.04454 0.0
H2693 H 0.32596 0.98703 0.02771 0.0
H2694 H 0.41379 0.00941 -0.00455 0.0
H2695 H 0.38108 -0.00305 0.00094 0.0
C2696 C 0.84053 0.60723 0.73608 0.0
C2697 C 0.85978 0.61042 0.74375 0.0
C2698 C 0.82998 0.62216 0.73694 0.0
C2699 C 0.82783 0.66804 0.76381 0.0
H2700 H 0.79614 0.6769 0.71896 0.0
C2701 C 0.78898 0.73301 0.76378 0.0
C2702 C 0.77033 0.72997 0.75457 0.0
C2703 C 0.80047 0.71902 0.76152 0.0
C2704 C 0.80474 0.6745 0.73168 0.0
H2705 H 0.883 0.63171 0.75848 0.0
H2706 H 0.86445 0.65775 0.76018 0.0
H2707 H 0.81485 0.65105 0.71718 0.0
H2708 H 0.74903 0.71007 0.73569 0.0
H2709 H 0.76886 0.68532 0.73215 0.0
H2710 H 0.81747 0.69108 0.7785 0.0
C2711 C 0.85757 0.64369 0.7535 0.0
C2712 C 0.81548 0.65971 0.73063 0.0
C2713 C 0.8682 0.62881 0.75246 0.0
C2714 C 0.76342 0.71279 0.74288 0.0
C2715 C 0.77484 0.69868 0.74076 0.0
C2716 C 0.81697 0.6827 0.76492 0.0
C2717 C 0.83838 0.64054 0.74567 0.0
C2718 C 0.82713 0.65633 0.74669 0.0
C2719 C 0.79346 0.70154 0.75022 0.0
C2720 C 0.80528 0.68613 0.74886 0.0
H2721 H 0.83365 0.59323 0.72925 0.0
H2722 H 0.81516 0.61928 0.73097 0.0
H2723 H 0.83649 0.6656 0.77649 0.0
H2724 H 0.7946 0.74603 0.77307 0.0
H2725 H 0.81483 0.72188 0.76876 0.0
C2726 C 0.8144 0.62263 0.01602 0.0
C2727 C 0.7972 0.6097 0.01574 0.0
C2728 C 0.83175 0.61717 0.02188 0.0
C2729 C 0.86637 0.59818 0.0218 0.0
H2730 H 0.87057 0.56089 0.05861 0.0
C2731 C 0.93582 0.56984 0.03774 0.0
C2732 C 0.93336 0.54976 0.03379 0.0
C2733 C 0.92011 0.57875 0.04021 0.0
C2734 C 0.86958 0.5714 0.0484 0.0
H2735 H 0.7846 0.58096 0.02145 0.0
H2736 H 0.81484 0.57109 0.03079 0.0
H2737 H 0.84125 0.57423 0.0539 0.0
H2738 H 0.91303 0.52306 0.03078 0.0
H2739 H 0.88548 0.53867 0.0353 0.0
H2740 H 0.89467 0.59529 0.01632 0.0
C2741 C 0.81501 0.58568 0.02712 0.0
C2742 C 0.85278 0.57895 0.04558 0.0
C2743 C 0.79765 0.59127 0.02158 0.0
C2744 C 0.91523 0.53858 0.03376 0.0
C2745 C 0.89952 0.54749 0.03643 0.0
C2746 C 0.88322 0.59088 0.02485 0.0
C2747 C 0.8323 0.59852 0.02725 0.0
C2748 C 0.85081 0.59208 0.0319 0.0
C2749 C 0.90176 0.56768 0.03897 0.0
C2750 C 0.88483 0.57714 0.03787 0.0
H2751 H 0.81445 0.63704 0.01184 0.0
H2752 H 0.84472 0.62758 0.02215 0.0
H2753 H 0.86531 0.60796 0.01091 0.0
H2754 H 0.94971 0.57876 0.03794 0.0
H2755 H 0.92218 0.59433 0.04231 0.0
C2756 C 0.15523 0.07358 0.75516 0.0
C2757 C 0.15788 0.06157 0.7697 0.0
C2758 C 0.16686 0.09156 0.75559 0.0
C2759 C 0.19328 0.13129 0.78697 0.0
H2760 H 0.21869 0.1455 0.74291 0.0
C2761 C 0.23511 0.20843 0.78388 0.0
C2762 C 0.23384 0.21604 0.76616 0.0
C2763 C 0.22816 0.18893 0.78528 0.0
C2764 C 0.21151 0.14192 0.75526 0.0
H2765 H 0.17476 0.059 0.79616 0.0
H2766 H 0.19479 0.09097 0.79724 0.0
H2767 H 0.20208 0.11261 0.74351 0.0
H2768 H 0.224 0.20917 0.73607 0.0
H2769 H 0.2113 0.17565 0.73858 0.0
H2770 H 0.20164 0.16076 0.79833 0.0
C2771 C 0.18384 0.08619 0.78539 0.0
C2772 C 0.20215 0.123 0.75564 0.0
C2773 C 0.17246 0.06793 0.78473 0.0
C2774 C 0.22545 0.20375 0.74992 0.0
C2775 C 0.21826 0.1844 0.75136 0.0
C2776 C 0.20234 0.15035 0.78646 0.0
C2777 C 0.18114 0.09811 0.77078 0.0
C2778 C 0.19273 0.11759 0.77137 0.0
C2779 C 0.21952 0.17665 0.76904 0.0
C2780 C 0.21131 0.15602 0.77043 0.0
H2781 H 0.14418 0.06905 0.74335 0.0
H2782 H 0.16442 0.10055 0.74423 0.0
H2783 H 0.18596 0.12747 0.7992 0.0
H2784 H 0.24159 0.2175 0.79665 0.0
H2785 H 0.22966 0.18349 0.79911 0.0
C2786 C 0.34653 -0.00187 0.24099 0.0
C2787 C 0.36208 -0.00208 0.23027 0.0
C2788 C 0.33424 0.98103 0.24295 0.0
C2789 C 0.31797 0.93105 0.222 0.0
H2790 H 0.3104 0.92003 0.27377 0.0
C2791 C 0.29295 0.85419 0.24067 0.0
C2792 C 0.28101 0.85132 0.25517 0.0
C2793 C 0.3007 0.87278 0.23701 0.0
C2794 C 0.31202 0.92298 0.25919 0.0
H2795 H 0.37641 0.97973 0.21251 0.0
H2796 H 0.3548 0.94995 0.21577 0.0
H2797 H 0.32725 0.95152 0.26792 0.0
H2798 H 0.26749 0.86545 0.27702 0.0
H2799 H 0.28075 0.89811 0.27039 0.0
H2800 H 0.3028 0.90257 0.2132 0.0
C2801 C 0.35218 0.96333 0.2227 0.0
C2802 C 0.32171 0.94102 0.25586 0.0
C2803 C 0.36461 0.98037 0.22093 0.0
C2804 C 0.27677 0.86734 0.26584 0.0
C2805 C 0.28443 0.886 0.26208 0.0
C2806 C 0.3081 0.91309 0.2253 0.0
C2807 C 0.33709 0.96345 0.234 0.0
C2808 C 0.3251 0.94509 0.23727 0.0
C2809 C 0.29655 0.88893 0.24764 0.0
C2810 C 0.30537 0.90867 0.24398 0.0
H2811 H 0.34419 0.01141 0.24838 0.0
H2812 H 0.32262 0.98152 0.25164 0.0
H2813 H 0.32017 0.93392 0.2075 0.0
H2814 H 0.29647 0.84205 0.23226 0.0
H2815 H 0.31027 0.87444 0.22605 0.0
C2816 C 0.48381 0.33081 0.62166 0.0
C2817 C 0.48171 0.31182 0.61317 0.0
C2818 C 0.4843 0.34621 0.61044 0.0
C2819 C 0.47072 0.36036 0.56328 0.0
H2820 H 0.51277 0.40284 0.5775 0.0
C2821 C 0.48263 0.42798 0.52091 0.0
C2822 C 0.48861 0.4457 0.53202 0.0
C2823 C 0.48206 0.41063 0.52936 0.0
C2824 C 0.5008 0.39123 0.57343 0.0
H2825 H 0.47775 0.29403 0.5862 0.0
H2826 H 0.47824 0.32107 0.56652 0.0
H2827 H 0.51032 0.37462 0.5952 0.0
H2828 H 0.49842 0.45925 0.56058 0.0
H2829 H 0.49697 0.42936 0.5753 0.0
H2830 H 0.46083 0.37729 0.54188 0.0
C2831 C 0.47965 0.32394 0.5819 0.0
C2832 C 0.49946 0.37503 0.58355 0.0
C2833 C 0.47942 0.30851 0.59316 0.0
C2834 C 0.4939 0.4458 0.55162 0.0
C2835 C 0.4932 0.4286 0.56004 0.0
C2836 C 0.47192 0.37675 0.55325 0.0
C2837 C 0.48248 0.34297 0.59046 0.0
C2838 C 0.48426 0.35956 0.5788 0.0
C2839 C 0.4874 0.41075 0.54906 0.0
C2840 C 0.48682 0.39255 0.55843 0.0
H2841 H 0.4856 0.33387 0.63703 0.0
H2842 H 0.48627 0.36071 0.61741 0.0
H2843 H 0.45885 0.34861 0.55934 0.0
H2844 H 0.47848 0.42754 0.50575 0.0
H2845 H 0.47765 0.39716 0.52044 0.0
C2846 C 0.45984 0.79148 0.3105 0.0
C2847 C 0.46534 0.78154 0.32595 0.0
C2848 C 0.441 0.78814 0.30219 0.0
C2849 C 0.39619 0.75392 0.29499 0.0
H2850 H 0.37357 0.79961 0.28939 0.0
C2851 C 0.31527 0.7515 0.27434 0.0
C2852 C 0.30972 0.76629 0.26418 0.0
C2853 C 0.33452 0.75173 0.28029 0.0
C2854 C 0.3797 0.78668 0.29046 0.0
H2855 H 0.4554 0.75979 0.34435 0.0
H2856 H 0.42226 0.7538 0.32954 0.0
H2857 H 0.40649 0.80289 0.30313 0.0
H2858 H 0.31996 0.79207 0.25101 0.0
H2859 H 0.35355 0.79204 0.26059 0.0
H2860 H 0.36944 0.7377 0.28202 0.0
C2861 C 0.43269 0.76423 0.32401 0.0
C2862 C 0.39856 0.78859 0.29848 0.0
C2863 C 0.4516 0.76773 0.33253 0.0
C2864 C 0.32383 0.7806 0.25901 0.0
C2865 C 0.34307 0.78067 0.26468 0.0
C2866 C 0.3773 0.752 0.28671 0.0
C2867 C 0.42719 0.77466 0.30898 0.0
C2868 C 0.40701 0.77226 0.30079 0.0
C2869 C 0.34863 0.76664 0.27599 0.0
C2870 C 0.36884 0.76839 0.2843 0.0
H2871 H 0.47002 0.80218 0.305 0.0
H2872 H 0.43717 0.79622 0.29048 0.0
H2873 H 0.40245 0.74112 0.29652 0.0
H2874 H 0.30468 0.74036 0.27867 0.0
H2875 H 0.33821 0.74077 0.28908 0.0
C2876 C 0.98428 0.70041 0.10924 0.0
C2877 C -0.00624 0.70278 0.12782 0.0
C2878 C 0.98511 0.6842 0.09683 0.0
C2879 C -0.00255 0.63501 0.09634 0.0
H2880 H 0.00245 0.64082 0.04297 0.0
C2881 C 0.02243 0.57808 0.04654 0.0
C2882 C 0.01144 0.5726 0.02888 0.0
C2883 C 0.0193 0.59386 0.05823 0.0
C2884 C 0.00089 0.63898 0.05781 0.0
H2885 H 0.01168 0.69003 0.14786 0.0
H2886 H 0.01357 0.66224 0.12619 0.0
H2887 H -0.00145 0.66852 0.06419 0.0
H2888 H 0.98908 0.5795 0.00917 0.0
H2889 H 0.98373 0.60737 0.02956 0.0
H2890 H 0.0004 0.60561 0.08999 0.0
C2891 C 0.00504 0.67255 0.12128 0.0
C2892 C -0.00143 0.6548 0.06997 0.0
C2893 C 0.00405 0.6886 0.13371 0.0
C2894 C -0.00237 0.58343 0.02283 0.0
C2895 C -0.00536 0.59937 0.03442 0.0
C2896 C -0.0 0.61929 0.08424 0.0
C2897 C -0.00442 0.67011 0.10268 0.0
C2898 C -0.003 0.65307 0.08944 0.0
C2899 C 0.00533 0.60461 0.05231 0.0
C2900 C 0.00191 0.62115 0.0649 0.0
H2901 H 0.97615 0.71103 0.10429 0.0
H2902 H 0.97743 0.68268 0.08271 0.0
H2903 H -0.00416 0.63299 0.11113 0.0
H2904 H 0.03317 0.56992 0.05149 0.0
H2905 H 0.02788 0.59773 0.07187 0.0
C2906 C 0.07443 0.26961 0.83468 0.0
C2907 C 0.07422 0.27995 0.85242 0.0
C2908 C 0.09159 0.2687 0.82713 0.0
C2909 C 0.13899 0.29518 0.82594 0.0
H2910 H 0.14964 0.24626 0.80488 0.0
C2911 C 0.20551 0.28988 0.78624 0.0
C2912 C 0.20302 0.27612 0.77037 0.0
C2913 C 0.19119 0.29021 0.79835 0.0
C2914 C 0.14681 0.26008 0.81049 0.0
H2915 H 0.09181 0.29743 0.87622 0.0
H2916 H 0.12202 0.29625 0.86264 0.0
H2917 H 0.12209 0.24692 0.82251 0.0
H2918 H 0.18343 0.25246 0.75419 0.0
H2919 H 0.15815 0.25348 0.77473 0.0
H2920 H 0.1631 0.30848 0.81315 0.0
C2921 C 0.1088 0.28871 0.85477 0.0
C2922 C 0.13111 0.26041 0.82072 0.0
C2923 C 0.09158 0.28931 0.86254 0.0
C2924 C 0.18579 0.26309 0.76646 0.0
C2925 C 0.17139 0.26355 0.7784 0.0
C2926 C 0.15458 0.29489 0.81546 0.0
C2927 C 0.10892 0.27836 0.837 0.0
C2928 C 0.12685 0.27797 0.82823 0.0
C2929 C 0.17395 0.27699 0.79463 0.0
C2930 C 0.15846 0.27734 0.80725 0.0
H2931 H 0.06128 0.2622 0.82658 0.0
H2932 H 0.09127 0.26078 0.81332 0.0
H2933 H 0.1359 0.30892 0.83148 0.0
H2934 H 0.21858 0.30031 0.78936 0.0
H2935 H 0.19375 0.30069 0.81074 0.0
C2936 C 0.4918 0.69967 0.94696 0.0
C2937 C 0.50587 0.71566 0.95396 0.0
C2938 C 0.48911 0.6834 0.95703 0.0
C2939 C 0.51608 0.65751 0.98857 0.0
H2940 H 0.46693 0.62936 -0.00252 0.0
C2941 C 0.51089 0.58834 0.02635 0.0
C2942 C 0.49621 0.57312 0.01896 0.0
C2943 C 0.51096 0.60675 0.02055 0.0
C2944 C 0.48075 0.63694 -0.00507 0.0
H2945 H 0.52761 0.72748 0.97732 0.0
H2946 H 0.52303 0.69896 -0.00528 0.0
H2947 H 0.46868 0.65984 0.98318 0.0
H2948 H 0.46951 0.5653 0.00081 0.0
H2949 H 0.47009 0.59711 0.98975 0.0
H2950 H 0.5282 0.63444 -0.0006 0.0
C2951 C 0.51414 0.69904 0.98146 0.0
C2952 C 0.48172 0.65441 0.98683 0.0
C2953 C 0.51669 0.71536 0.97154 0.0
C2954 C 0.48125 0.57671 0.00625 0.0
C2955 C 0.48144 0.59504 0.00021 0.0
C2956 C 0.5151 0.63996 -0.0036 0.0
C2957 C 0.50058 0.6828 0.97413 0.0
C2958 C 0.4994 0.6648 0.98354 0.0
C2959 C 0.49645 0.61025 0.00709 0.0
C2960 C 0.49743 0.62939 -0.00039 0.0
H2961 H 0.48322 0.69951 0.93348 0.0
H2962 H 0.47862 0.671 0.95103 0.0
H2963 H 0.52987 0.6651 0.98588 0.0
H2964 H 0.52249 0.58595 0.03636 0.0
H2965 H 0.5225 0.6182 0.02651 0.0
C2966 C 0.0567 0.82128 0.6493 0.0
C2967 C 0.05114 0.80732 0.63369 0.0
C2968 C 0.07469 0.82318 0.65945 0.0
C2969 C 0.12116 0.80535 0.66026 0.0
H2970 H 0.11883 0.81061 0.71493 0.0
C2971 C 0.1697 0.77384 0.71372 0.0
C2972 C 0.17936 0.78635 0.72926 0.0
C2973 C 0.15558 0.77961 0.70171 0.0
C2974 C 0.11976 0.80942 0.69971 0.0
H2975 H 0.06016 0.78511 0.61567 0.0
H2976 H 0.09129 0.7877 0.63385 0.0
H2977 H 0.09183 0.81568 0.69354 0.0
H2978 H 0.18172 0.81446 0.74483 0.0
H2979 H 0.15629 0.82434 0.72405 0.0
H2980 H 0.1487 0.79777 0.66668 0.0
C2981 C 0.08209 0.79764 0.63805 0.0
C2982 C 0.10435 0.81243 0.6874 0.0
C2983 C 0.06422 0.79606 0.62762 0.0
C2984 C 0.17434 0.80454 0.73297 0.0
C2985 C 0.15993 0.81021 0.7211 0.0
C2986 C 0.13642 0.80201 0.6726 0.0
C2987 C 0.08728 0.81078 0.65449 0.0
C2988 C 0.10469 0.81007 0.66748 0.0
C2989 C 0.15069 0.79787 0.70521 0.0
C2990 C 0.13565 0.80366 0.69238 0.0
H2991 H 0.04686 0.83028 0.65408 0.0
H2992 H 0.0784 0.83385 0.67166 0.0
H2993 H 0.12211 0.80379 0.64506 0.0
H2994 H 0.17338 0.75976 0.71053 0.0
H2995 H 0.14841 0.76977 0.6897 0.0
C2996 C 0.02781 0.32623 0.45611 0.0
C2997 C 0.03952 0.32414 0.44151 0.0
C2998 C 0.02873 0.34414 0.46636 0.0
C2999 C 0.04254 0.39561 0.46029 0.0
H3000 H 0.03013 0.4026 0.51225 0.0
C3001 C 0.03768 0.4702 0.49512 0.0
C3002 C 0.02056 0.47135 0.50305 0.0
C3003 C 0.04282 0.45237 0.4905 0.0
C3004 C 0.03363 0.40081 0.49774 0.0
H3005 H 0.06243 0.33876 0.42721 0.0
H3006 H 0.06451 0.36984 0.44553 0.0
H3007 H 0.03503 0.37095 0.49914 0.0
H3008 H -0.00407 0.45469 0.51329 0.0
H3009 H 0.00498 0.42346 0.50516 0.0
H3010 H 0.04099 0.42537 0.45882 0.0
C3011 C 0.05412 0.35783 0.44862 0.0
C3012 C 0.03639 0.38271 0.4902 0.0
C3013 C 0.05302 0.33999 0.43819 0.0
C3014 C 0.00917 0.4543 0.50713 0.0
C3015 C 0.01439 0.43643 0.50259 0.0
C3016 C 0.03998 0.41368 0.46787 0.0
C3017 C 0.04155 0.36028 0.46239 0.0
C3018 C 0.04059 0.37983 0.47126 0.0
C3019 C 0.03103 0.4353 0.49379 0.0
C3020 C 0.03524 0.41641 0.48656 0.0
H3021 H 0.01724 0.31428 0.459 0.0
H3022 H 0.01868 0.34548 0.47669 0.0
H3023 H 0.04531 0.3939 0.44554 0.0
H3024 H 0.04687 0.48302 0.49187 0.0
H3025 H 0.05583 0.4519 0.48394 0.0
C3026 C 0.44448 0.27381 0.17664 0.0
C3027 C 0.44945 0.28582 0.16241 0.0
C3028 C 0.43158 0.27826 0.18911 0.0
C3029 C 0.39406 0.30756 0.1959 0.0
H3030 H 0.40223 0.29419 0.24777 0.0
C3031 C 0.34098 0.31675 0.25106 0.0
C3032 C 0.33313 0.29851 0.25595 0.0
C3033 C 0.35787 0.31918 0.24237 0.0
C3034 C 0.39995 0.29822 0.2334 0.0
H3035 H 0.44453 0.31173 0.14978 0.0
H3036 H 0.42218 0.3198 0.1719 0.0
H3037 H 0.4262 0.29068 0.22605 0.0
H3038 H 0.33709 0.26891 0.25704 0.0
H3039 H 0.36697 0.27331 0.24259 0.0
H3040 H 0.36767 0.31494 0.2034 0.0
C3041 C 0.42806 0.30676 0.17323 0.0
C3042 C 0.41351 0.29601 0.22088 0.0
C3043 C 0.44083 0.30213 0.16054 0.0
C3044 C 0.34298 0.28311 0.25339 0.0
C3045 C 0.36005 0.28564 0.2452 0.0
C3046 C 0.38063 0.31006 0.20855 0.0
C3047 C 0.42354 0.29503 0.18786 0.0
C3048 C 0.41038 0.29995 0.20177 0.0
C3049 C 0.36727 0.3035 0.23904 0.0
C3050 C 0.38321 0.30481 0.22719 0.0
H3051 H 0.45077 0.26103 0.1783 0.0
H3052 H 0.42796 0.26854 0.19978 0.0
H3053 H 0.39113 0.31064 0.18129 0.0
H3054 H 0.33346 0.32876 0.25278 0.0
H3055 H 0.36323 0.33305 0.23767 0.0
C3056 C 0.60012 0.49331 0.3362 0.0
C3057 C 0.5935 0.50492 0.32271 0.0
C3058 C 0.59101 0.49043 0.35268 0.0
C3059 C 0.54449 0.49243 0.37052 0.0
H3060 H 0.57191 0.49713 0.42107 0.0
C3061 C 0.51083 0.51132 0.43788 0.0
C3062 C 0.51489 0.50231 0.45438 0.0
C3063 C 0.51993 0.50794 0.42171 0.0
C3064 C 0.56407 0.49541 0.40701 0.0
H3065 H 0.57264 0.52329 0.31644 0.0
H3066 H 0.55704 0.51843 0.345 0.0
H3067 H 0.58966 0.49877 0.39314 0.0
H3068 H 0.53144 0.48245 0.4668 0.0
H3069 H 0.54756 0.47663 0.43836 0.0
H3070 H 0.51897 0.48967 0.38429 0.0
C3071 C 0.56896 0.51118 0.34271 0.0
C3072 C 0.57422 0.49638 0.39104 0.0
C3073 C 0.57803 0.51407 0.32637 0.0
C3074 C 0.52792 0.48946 0.45422 0.0
C3075 C 0.53725 0.48626 0.43803 0.0
C3076 C 0.53439 0.49149 0.3864 0.0
C3077 C 0.57508 0.49905 0.35587 0.0
C3078 C 0.56453 0.4955 0.37268 0.0
C3079 C 0.53345 0.49562 0.42168 0.0
C3080 C 0.54407 0.49354 0.40485 0.0
H3081 H 0.61201 0.48605 0.3338 0.0
H3082 H 0.59606 0.48105 0.36262 0.0
H3083 H 0.5366 0.49122 0.35651 0.0
H3084 H 0.50086 0.52129 0.43756 0.0
H3085 H 0.51687 0.51556 0.40942 0.0
C3086 C 0.22286 0.83871 0.07315 0.0
C3087 C 0.22197 0.85845 0.07531 0.0
C3088 C 0.22725 0.82899 0.08903 0.0
C3089 C 0.24768 0.83799 0.14031 0.0
H3090 H 0.22378 0.78489 0.14211 0.0
C3091 C 0.24564 0.80001 0.20964 0.0
C3092 C 0.24986 0.78128 0.20894 0.0
C3093 C 0.24383 0.80928 0.19303 0.0
C3094 C 0.23072 0.79966 0.14172 0.0
H3095 H 0.22464 0.88339 0.09591 0.0
H3096 H 0.23151 0.86643 0.12357 0.0
H3097 H 0.21696 0.80124 0.11386 0.0
H3098 H 0.25554 0.75756 0.19031 0.0
H3099 H 0.25193 0.77365 0.16109 0.0
H3100 H 0.26083 0.83651 0.16854 0.0
C3101 C 0.22947 0.85846 0.10961 0.0
C3102 C 0.22687 0.80906 0.12548 0.0
C3103 C 0.22535 0.8682 0.09372 0.0
C3104 C 0.25235 0.77202 0.19128 0.0
C3105 C 0.2502 0.78119 0.17457 0.0
C3106 C 0.25129 0.82867 0.15663 0.0
C3107 C 0.23062 0.83872 0.10752 0.0
C3108 C 0.23519 0.82842 0.12458 0.0
C3109 C 0.24584 0.79989 0.17527 0.0
C3110 C 0.24278 0.80944 0.15755 0.0
H3111 H 0.22044 0.8308 0.05913 0.0
H3112 H 0.22827 0.8139 0.08673 0.0
H3113 H 0.25476 0.85272 0.14007 0.0
H3114 H 0.2434 0.80743 0.223 0.0
H3115 H 0.24028 0.82361 0.194 0.0
C3116 C 0.92313 0.56706 0.80934 0.0
C3117 C 0.93421 0.56042 0.7957 0.0
C3118 C 0.92885 0.56724 0.82882 0.0
C3119 C 0.97039 0.56461 0.8635 0.0
H3120 H 0.93208 0.54219 0.8943 0.0
C3121 C 0.99005 0.53592 0.93517 0.0
C3122 C 0.97908 0.53906 0.95019 0.0
C3123 C 0.98462 0.54068 0.91693 0.0
C3124 C 0.9429 0.54877 0.886 0.0
H3125 H 0.96038 0.54951 0.79188 0.0
H3126 H 0.97025 0.54979 0.8257 0.0
H3127 H 0.92269 0.54753 0.86142 0.0
H3128 H 0.95377 0.54978 0.95777 0.0
H3129 H 0.94438 0.55818 0.92594 0.0
H3130 H 0.99065 0.56553 0.88796 0.0
C3131 C 0.95721 0.55495 0.8214 0.0
C3132 C 0.93751 0.55185 0.86715 0.0
C3133 C 0.95146 0.55468 0.80198 0.0
C3134 C 0.96255 0.54711 0.94653 0.0
C3135 C 0.9571 0.55186 0.92827 0.0
C3136 C 0.97577 0.56154 0.88233 0.0
C3137 C 0.94583 0.56093 0.83505 0.0
C3138 C 0.95125 0.55951 0.85559 0.0
C3139 C 0.96808 0.54869 0.91325 0.0
C3140 C 0.96214 0.55328 0.8937 0.0
H3141 H 0.90977 0.5716 0.80498 0.0
H3142 H 0.91989 0.57213 0.83901 0.0
H3143 H 0.98126 0.57083 0.85505 0.0
H3144 H 0.00283 0.52968 0.93741 0.0
H3145 H -0.00678 0.53775 0.90561 0.0
C3146 C 0.22719 0.16672 0.55575 0.0
C3147 C 0.23705 0.1717 0.54013 0.0
C3148 C 0.22722 0.18045 0.57108 0.0
C3149 C 0.22298 0.21482 0.59808 0.0
H3150 H 0.27281 0.24404 0.61764 0.0
C3151 C 0.23443 0.26468 0.66794 0.0
C3152 C 0.24886 0.2604 0.6809 0.0
C3153 C 0.23298 0.25772 0.64873 0.0
C3154 C 0.25879 0.23611 0.61224 0.0
H3155 H 0.25394 0.19521 0.52798 0.0
H3156 H 0.25389 0.21903 0.55466 0.0
H3157 H 0.26907 0.22353 0.5877 0.0
H3158 H 0.27373 0.24664 0.68408 0.0
H3159 H 0.27127 0.23455 0.65059 0.0
H3160 H 0.21292 0.22673 0.62312 0.0
C3161 C 0.24639 0.20449 0.55517 0.0
C3162 C 0.2566 0.22448 0.59505 0.0
C3163 C 0.24637 0.19081 0.53988 0.0
C3164 C 0.26244 0.25005 0.67431 0.0
C3165 C 0.2611 0.24326 0.65514 0.0
C3166 C 0.22516 0.22653 0.61524 0.0
C3167 C 0.23708 0.19938 0.57104 0.0
C3168 C 0.23878 0.21336 0.58806 0.0
C3169 C 0.24607 0.2466 0.64227 0.0
C3170 C 0.24319 0.23687 0.62271 0.0
H3171 H 0.21984 0.15214 0.55635 0.0
H3172 H 0.22008 0.17607 0.58325 0.0
H3173 H 0.20904 0.20656 0.59287 0.0
H3174 H 0.22383 0.27269 0.67275 0.0
H3175 H 0.22136 0.2606 0.63904 0.0
C3176 C 0.61271 0.48843 0.19975 0.0
C3177 C 0.60477 0.48163 0.21582 0.0
C3178 C 0.60173 0.48588 0.18204 0.0
C3179 C 0.57762 0.47373 0.14417 0.0
H3180 H 0.52579 0.4828 0.14589 0.0
C3181 C 0.5295 0.47966 0.07558 0.0
C3182 C 0.51953 0.49515 0.07652 0.0
C3183 C 0.53818 0.474 0.09222 0.0
C3184 C 0.54023 0.48025 0.14514 0.0
H3185 H 0.57963 0.46569 0.22579 0.0
H3186 H 0.56066 0.46072 0.1948 0.0
H3187 H 0.54519 0.48037 0.17534 0.0
H3188 H 0.51019 0.51647 0.09541 0.0
H3189 H 0.52562 0.50697 0.12437 0.0
H3190 H 0.573 0.47489 0.11405 0.0
C3191 C 0.57513 0.46856 0.19593 0.0
C3192 C 0.5513 0.47858 0.16203 0.0
C3193 C 0.58603 0.47132 0.21367 0.0
C3194 C 0.51778 0.50445 0.09433 0.0
C3195 C 0.52652 0.49889 0.11094 0.0
C3196 C 0.56658 0.47557 0.12727 0.0
C3197 C 0.58266 0.47627 0.18001 0.0
C3198 C 0.57028 0.47572 0.16181 0.0
C3199 C 0.53709 0.4838 0.11007 0.0
C3200 C 0.5479 0.47931 0.12762 0.0
H3201 H 0.62712 0.49645 0.20101 0.0
H3202 H 0.60794 0.49222 0.17016 0.0
H3203 H 0.59207 0.47121 0.14345 0.0
H3204 H 0.53092 0.47219 0.06196 0.0
H3205 H 0.54597 0.46214 0.09109 0.0
C3206 C 0.204 0.87267 0.9422 0.0
C3207 C 0.20552 0.86542 0.9601 0.0
C3208 C 0.20537 0.86119 0.92557 0.0
C3209 C 0.22375 0.81755 0.90853 0.0
H3210 H 0.1962 0.8254 0.86077 0.0
C3211 C 0.213 0.7885 0.82237 0.0
C3212 C 0.232 0.78701 0.81995 0.0
C3213 C 0.20817 0.79553 0.83999 0.0
C3214 C 0.20382 0.82272 0.87397 0.0
H3215 H 0.20918 0.84008 0.97439 0.0
H3216 H 0.2111 0.81982 0.94525 0.0
H3217 H 0.18975 0.84167 0.89032 0.0
H3218 H 0.26078 0.79157 0.83431 0.0
H3219 H 0.25253 0.80429 0.86469 0.0
H3220 H 0.23748 0.79823 0.89219 0.0
C3221 C 0.20925 0.83458 0.94415 0.0
C3222 C 0.20032 0.83234 0.89096 0.0
C3223 C 0.20801 0.84617 0.96087 0.0
C3224 C 0.24597 0.79235 0.83567 0.0
C3225 C 0.24119 0.79958 0.8532 0.0
C3226 C 0.22712 0.80777 0.89153 0.0
C3227 C 0.20813 0.84201 0.92627 0.0
C3228 C 0.21052 0.83023 0.90845 0.0
C3229 C 0.22226 0.80148 0.85559 0.0
C3230 C 0.21747 0.81051 0.87394 0.0
H3231 H 0.2022 0.88745 0.941 0.0
H3232 H 0.20482 0.86761 0.91221 0.0
H3233 H 0.232 0.81562 0.92164 0.0
H3234 H 0.20184 0.7844 0.81061 0.0
H3235 H 0.19338 0.7964 0.84132 0.0
C3236 C 0.90699 0.54981 0.66851 0.0
C3237 C 0.91619 0.56316 0.68368 0.0
C3238 C 0.91583 0.54699 0.65198 0.0
C3239 C 0.95001 0.56913 0.62244 0.0
H3240 H 0.96159 0.51814 0.61049 0.0
C3241 C 0.00223 0.55602 0.568 0.0
C3242 C -0.00086 0.53832 0.55675 0.0
C3243 C 0.99122 0.55888 0.58287 0.0
C3244 C 0.95817 0.53237 0.6133 0.0
H3245 H 0.94137 0.58457 0.69323 0.0
H3246 H 0.95652 0.58012 0.66398 0.0
H3247 H 0.94298 0.52391 0.63682 0.0
H3248 H 0.98288 0.50943 0.55273 0.0
H3249 H 0.96267 0.51465 0.57784 0.0
H3250 H 0.96457 0.57763 0.59872 0.0
C3251 C 0.94263 0.57168 0.66505 0.0
C3252 C 0.94759 0.53565 0.62847 0.0
C3253 C 0.93401 0.57418 0.68175 0.0
C3254 C 0.9851 0.52338 0.56084 0.0
C3255 C 0.97379 0.52632 0.57549 0.0
C3256 C 0.96023 0.56578 0.60702 0.0
C3257 C 0.93376 0.55782 0.6502 0.0
C3258 C 0.94368 0.55411 0.6333 0.0
C3259 C 0.97665 0.54417 0.58668 0.0
C3260 C 0.96475 0.54743 0.60242 0.0
H3261 H 0.89329 0.54105 0.66967 0.0
H3262 H 0.90875 0.53626 0.64065 0.0
H3263 H 0.947 0.58345 0.62587 0.0
H3264 H 0.01309 0.56777 0.56524 0.0
H3265 H -0.00571 0.57263 0.59144 0.0
C3266 C 0.28374 0.18275 0.42831 0.0
C3267 C 0.28152 0.18786 0.44742 0.0
C3268 C 0.28818 0.19702 0.41609 0.0
C3269 C 0.30198 0.23018 0.3934 0.0
H3270 H 0.26959 0.26888 0.39773 0.0
C3271 C 0.29231 0.27899 0.33381 0.0
C3272 C 0.27299 0.27817 0.3272 0.0
C3273 C 0.29744 0.27291 0.35156 0.0
C3274 C 0.27886 0.25829 0.39643 0.0
H3275 H 0.28385 0.21181 0.46919 0.0
H3276 H 0.29188 0.23665 0.44795 0.0
H3277 H 0.27227 0.24755 0.42277 0.0
H3278 H 0.24406 0.272 0.33476 0.0
H3279 H 0.25297 0.26137 0.36557 0.0
H3280 H 0.30752 0.24012 0.36643 0.0
C3281 C 0.28974 0.22167 0.44227 0.0
C3282 C 0.28056 0.24618 0.41086 0.0
C3283 C 0.28521 0.20743 0.45444 0.0
C3284 C 0.25906 0.27268 0.33935 0.0
C3285 C 0.26419 0.26669 0.3571 0.0
C3286 C 0.30027 0.24231 0.37895 0.0
C3287 C 0.29058 0.21664 0.42282 0.0
C3288 C 0.29163 0.23156 0.40921 0.0
C3289 C 0.28336 0.26605 0.36308 0.0
C3290 C 0.28816 0.25605 0.38002 0.0
H3291 H 0.281 0.16779 0.42251 0.0
H3292 H 0.28856 0.19263 0.40115 0.0
H3293 H 0.31081 0.21923 0.39185 0.0
H3294 H 0.30343 0.28324 0.32485 0.0
H3295 H 0.31235 0.27282 0.35594 0.0
C3296 C 0.33949 0.60964 0.519 0.0
C3297 C 0.33545 0.62399 0.50739 0.0
C3298 C 0.35436 0.59971 0.51593 0.0
C3299 C 0.39879 0.599 0.49439 0.0
H3300 H 0.38325 0.54375 0.4942 0.0
C3301 C 0.44885 0.54208 0.48177 0.0
C3302 C 0.44782 0.52809 0.49482 0.0
C3303 C 0.43587 0.55499 0.48125 0.0
C3304 C 0.38787 0.55914 0.49427 0.0
H3305 H 0.34476 0.63997 0.48409 0.0
H3306 H 0.37109 0.62244 0.47871 0.0
H3307 H 0.35987 0.56477 0.49748 0.0
H3308 H 0.43251 0.51663 0.51756 0.0
H3309 H 0.41 0.53879 0.51659 0.0
H3310 H 0.42704 0.59316 0.49158 0.0
C3311 C 0.36252 0.61895 0.49018 0.0
C3312 C 0.37447 0.5712 0.49615 0.0
C3313 C 0.34748 0.62897 0.49327 0.0
C3314 C 0.43357 0.52712 0.5072 0.0
C3315 C 0.42064 0.53984 0.50663 0.0
C3316 C 0.41233 0.58684 0.49253 0.0
C3317 C 0.36568 0.60379 0.50113 0.0
C3318 C 0.37983 0.59128 0.49679 0.0
C3319 C 0.42149 0.55384 0.49359 0.0
C3320 C 0.40708 0.56681 0.49301 0.0
H3321 H 0.33077 0.6056 0.53022 0.0
H3322 H 0.35673 0.58845 0.52491 0.0
H3323 H 0.40331 0.61443 0.49479 0.0
H3324 H 0.4596 0.54296 0.47193 0.0
H3325 H 0.43684 0.56558 0.471 0.0
C3326 C 0.78939 0.95207 0.51697 0.0
C3327 C 0.78277 0.93565 0.52598 0.0
C3328 C 0.80882 0.95943 0.51826 0.0
C3329 C 0.85615 0.94648 0.52711 0.0
H3330 H 0.87237 0.00195 0.53354 0.0
C3331 C 0.9353 0.98366 0.53072 0.0
C3332 C 0.93847 -0.00122 0.51905 0.0
C3333 C 0.91674 0.97567 0.53379 0.0
C3334 C 0.86804 0.98643 0.5317 0.0
H3335 H 0.79145 0.914 0.54334 0.0
H3336 H 0.82554 0.92701 0.54563 0.0
H3337 H 0.839 0.98833 0.53494 0.0
H3338 H 0.92471 0.01746 0.50153 0.0
H3339 H 0.89248 0.00356 0.50688 0.0
H3340 H 0.88525 0.94468 0.52356 0.0
C3341 C 0.8156 0.93407 0.53749 0.0
C3342 C 0.84896 0.97864 0.53247 0.0
C3343 C 0.79608 0.92668 0.53623 0.0
C3344 C 0.92277 0.00583 0.51061 0.0
C3345 C 0.9043 -0.00203 0.51379 0.0
C3346 C 0.87531 0.9543 0.52637 0.0
C3347 C 0.82212 0.95059 0.52859 0.0
C3348 C 0.84273 0.95861 0.52975 0.0
C3349 C 0.90108 0.98281 0.52538 0.0
C3350 C 0.88133 0.97437 0.52823 0.0
H3351 H 0.77958 0.9593 0.50887 0.0
H3352 H 0.81344 0.97197 0.51093 0.0
H3353 H 0.85173 0.93099 0.52485 0.0
H3354 H 0.94712 0.97783 0.53731 0.0
H3355 H 0.91464 0.96402 0.54283 0.0
C3356 C 0.81011 0.09695 0.23754 0.0
C3357 C 0.82801 0.09754 0.2478 0.0
C3358 C 0.79934 0.11129 0.24144 0.0
C3359 C 0.80453 0.16134 0.26442 0.0
H3360 H 0.74927 0.15054 0.25632 0.0
C3361 C 0.75745 0.21907 0.27884 0.0
C3362 C 0.74501 0.22107 0.26286 0.0
C3363 C 0.76687 0.20325 0.27915 0.0
C3364 C 0.7647 0.15371 0.25867 0.0
H3365 H 0.84835 0.11312 0.27072 0.0
H3366 H 0.82927 0.13768 0.2781 0.0
H3367 H 0.76712 0.12408 0.25343 0.0
H3368 H 0.73167 0.20763 0.23519 0.0
H3369 H 0.74766 0.17969 0.23597 0.0
H3370 H 0.80194 0.19099 0.26991 0.0
C3371 C 0.82377 0.12657 0.26657 0.0
C3372 C 0.77496 0.1386 0.25689 0.0
C3373 C 0.83467 0.11241 0.26244 0.0
C3374 C 0.74129 0.20648 0.24765 0.0
C3375 C 0.7504 0.19051 0.2481 0.0
C3376 C 0.79424 0.17639 0.26652 0.0
C3377 C 0.80607 0.12639 0.25593 0.0
C3378 C 0.79505 0.14224 0.25937 0.0
C3379 C 0.76353 0.18892 0.2637 0.0
C3380 C 0.77426 0.17274 0.26333 0.0
H3381 H 0.80466 0.08572 0.2261 0.0
H3382 H 0.78598 0.11079 0.23268 0.0
H3383 H 0.81995 0.16483 0.26612 0.0
H3384 H 0.7599 0.22972 0.29106 0.0
H3385 H 0.77674 0.20219 0.29145 0.0
C3386 C 0.71308 0.14536 0.98997 0.0
C3387 C 0.72845 0.13591 0.98679 0.0
C3388 C 0.69444 0.13509 0.98774 0.0
C3389 C 0.6552 0.11161 0.97456 0.0
H3390 H 0.64804 0.06237 -0.00426 0.0
C3391 C 0.58041 0.06564 0.97554 0.0
C3392 C 0.57715 0.05803 0.99287 0.0
C3393 C 0.59886 0.07385 0.97228 0.0
C3394 C 0.6498 0.0761 0.98978 0.0
H3395 H 0.73629 0.10846 0.97798 0.0
H3396 H 0.70373 0.09059 0.97383 0.0
H3397 H 0.68017 0.07972 -0.0055 0.0
H3398 H 0.59045 0.0527 0.02026 0.0
H3399 H 0.62253 0.06716 0.01473 0.0
H3400 H 0.62475 0.10834 0.97065 0.0
C3401 C 0.7061 0.10586 0.97841 0.0
C3402 C 0.66823 0.08595 0.98885 0.0
C3403 C 0.72475 0.11612 0.9807 0.0
C3404 C 0.5926 0.05844 0.00674 0.0
C3405 C 0.611 0.06661 0.00351 0.0
C3406 C 0.63674 0.10176 0.97552 0.0
C3407 C 0.69076 0.11516 0.98221 0.0
C3408 C 0.67116 0.10397 0.98153 0.0
C3409 C 0.61434 0.07453 0.9863 0.0
C3410 C 0.63384 0.08406 0.98347 0.0
H3411 H 0.71548 0.16061 -0.00534 0.0
H3412 H 0.68299 0.14267 0.99102 0.0
H3413 H 0.65698 0.12535 0.96861 0.0
H3414 H 0.56869 0.06542 0.96459 0.0
H3415 H 0.60101 0.07968 0.95882 0.0
C3416 C 0.13509 0.42081 0.2797 0.0
C3417 C 0.14129 0.43851 0.27261 0.0
C3418 C 0.14682 0.40679 0.28034 0.0
C3419 C 0.19724 0.40006 0.27639 0.0
H3420 H 0.17426 0.34615 0.26558 0.0
C3421 C 0.23993 0.34074 0.25529 0.0
C3422 C 0.23789 0.32467 0.26581 0.0
C3423 C 0.22781 0.35426 0.25696 0.0
C3424 C 0.18083 0.36115 0.26875 0.0
H3425 H 0.1646 0.45533 0.26057 0.0
H3426 H 0.18463 0.43084 0.261 0.0
H3427 H 0.15388 0.3706 0.26721 0.0
H3428 H 0.22162 0.31012 0.28635 0.0
H3429 H 0.19988 0.3334 0.28868 0.0
H3430 H 0.2242 0.39053 0.27712 0.0
C3431 C 0.17104 0.42785 0.26667 0.0
C3432 C 0.16918 0.3752 0.26981 0.0
C3433 C 0.15946 0.44193 0.26631 0.0
C3434 C 0.22329 0.32218 0.27781 0.0
C3435 C 0.21092 0.33553 0.27921 0.0
C3436 C 0.20885 0.38606 0.275 0.0
C3437 C 0.16491 0.41004 0.27366 0.0
C3438 C 0.17722 0.3949 0.2735 0.0
C3439 C 0.21323 0.35181 0.26897 0.0
C3440 C 0.20077 0.36649 0.27104 0.0
H3441 H 0.12117 0.41778 0.28471 0.0
H3442 H 0.14168 0.39342 0.28612 0.0
H3443 H 0.20403 0.41496 0.27976 0.0
H3444 H 0.25106 0.34303 0.24594 0.0
H3445 H 0.2298 0.36661 0.2488 0.0
C3446 C 0.17702 0.43932 0.04239 0.0
C3447 C 0.17449 0.41912 0.04028 0.0
C3448 C 0.16265 0.44875 0.0353 0.0
C3449 C 0.122 0.44159 -0.00166 0.0
H3450 H 0.11156 0.48852 0.02416 0.0
C3451 C 0.05813 0.47922 0.97789 0.0
C3452 C 0.061 0.49932 0.98191 0.0
C3453 C 0.07316 0.46928 0.98166 0.0
C3454 C 0.11458 0.47562 0.01661 0.0
H3455 H 0.15448 0.39289 0.03028 0.0
H3456 H 0.12913 0.40947 0.01814 0.0
H3457 H 0.1338 0.47081 0.03999 0.0
H3458 H 0.08206 0.52506 0.99046 0.0
H3459 H 0.10844 0.50774 -0.00335 0.0
H3460 H 0.10242 0.44635 0.97505 0.0
C3461 C 0.14243 0.41796 0.02492 0.0
C3462 C 0.12722 0.46541 0.02575 0.0
C3463 C 0.15684 0.40849 0.03206 0.0
C3464 C 0.07949 0.50953 0.98746 0.0
C3465 C 0.09452 0.49961 0.99115 0.0
C3466 C 0.10925 0.45179 0.9892 0.0
C3467 C 0.14542 0.43818 0.02601 0.0
C3468 C 0.13113 0.44834 0.0167 0.0
C3469 C 0.09121 0.47937 0.98939 0.0
C3470 C 0.10553 0.46897 -0.00177 0.0
H3471 H 0.19047 0.44789 0.0487 0.0
H3472 H 0.16543 0.46435 0.03628 0.0
H3473 H 0.12498 0.42862 0.9909 0.0
H3474 H 0.04398 0.47104 0.97351 0.0
H3475 H 0.07022 0.45367 0.9801 0.0
C3476 C 0.85665 0.97157 0.22964 0.0
C3477 C 0.84784 0.98778 0.23244 0.0
C3478 C 0.84735 0.9533 0.23275 0.0
C3479 C 0.80808 0.92837 0.25716 0.0
H3480 H 0.8137 0.88447 0.22307 0.0
C3481 C 0.78154 0.84904 0.27147 0.0
C3482 C 0.77383 0.83595 0.25555 0.0
C3483 C 0.79003 0.86791 0.26908 0.0
C3484 C 0.8118 0.89657 0.23265 0.0
H3485 H 0.82219 -0.00263 0.24056 0.0
H3486 H 0.80579 0.96537 0.24559 0.0
H3487 H 0.82898 0.91654 0.21757 0.0
H3488 H 0.76833 0.83275 0.22465 0.0
H3489 H 0.78267 0.86548 0.22058 0.0
H3490 H 0.79044 0.90832 0.27193 0.0
C3491 C 0.82006 0.96688 0.24132 0.0
C3492 C 0.82081 0.91498 0.22963 0.0
C3493 C 0.82941 0.98522 0.23828 0.0
C3494 C 0.77434 0.84231 0.23726 0.0
C3495 C 0.78268 0.86112 0.2349 0.0
C3496 C 0.79899 0.90991 0.26015 0.0
C3497 C 0.82894 0.95069 0.23863 0.0
C3498 C 0.8191 0.93113 0.24184 0.0
C3499 C 0.7909 0.87409 0.25072 0.0
C3500 C 0.8007 0.89378 0.24788 0.0
H3501 H 0.87088 0.973 0.22529 0.0
H3502 H 0.85476 0.94123 0.23083 0.0
H3503 H 0.80663 0.94046 0.26698 0.0
H3504 H 0.78141 0.8446 0.28575 0.0
H3505 H 0.79635 0.87748 0.28159 0.0
C3506 C 0.64883 0.05092 0.77426 0.0
C3507 C 0.63352 0.0465 0.75973 0.0
C3508 C 0.66203 0.06803 0.77493 0.0
C3509 C 0.68293 0.10388 0.74544 0.0
H3510 H 0.68837 0.14107 0.78978 0.0
C3511 C 0.71345 0.18361 0.74194 0.0
C3512 C 0.72361 0.19451 0.75822 0.0
C3513 C 0.70467 0.16461 0.74287 0.0
C3514 C 0.6874 0.13075 0.77743 0.0
H3515 H 0.62031 0.05618 0.73425 0.0
H3516 H 0.64362 0.08571 0.73516 0.0
H3517 H 0.66949 0.10905 0.79019 0.0
H3518 H 0.73308 0.19414 0.78813 0.0
H3519 H 0.71832 0.16065 0.78969 0.0
H3520 H 0.7009 0.12526 0.73264 0.0
C3521 C 0.64528 0.07607 0.74612 0.0
C3522 C 0.67652 0.11243 0.77768 0.0
C3523 C 0.6319 0.05925 0.74568 0.0
C3524 C 0.72521 0.18601 0.7754 0.0
C3525 C 0.71665 0.16687 0.77629 0.0
C3526 C 0.69407 0.12203 0.74529 0.0
C3527 C 0.66035 0.08069 0.76081 0.0
C3528 C 0.67383 0.09905 0.76152 0.0
C3529 C 0.70611 0.15596 0.76006 0.0
C3530 C 0.69604 0.13591 0.76108 0.0
H3531 H 0.65038 0.04136 0.7853 0.0
H3532 H 0.67357 0.07134 0.7864 0.0
H3533 H 0.68119 0.09368 0.73287 0.0
H3534 H 0.71191 0.1899 0.72855 0.0
H3535 H 0.69635 0.15689 0.73018 0.0
loop_
_geom_bond_atom_site_label_1
_geom_bond_atom_site_label_2
_geom_bond_distance
_geom_bond_site_symmetry_2
_ccdc_geom_bond_type
C0 O1 1.306 . S
C0 O3 1.160 . S
O1 C0 1.306 . S
O1 Cd2 2.228 1_655 S
Cd2 O1 2.228 1_455 S
Cd2 O6 2.273 . S
Cd2 O10 2.277 . S
O3 C0 1.160 . S
O3 Cd4 2.203 1_655 S
Cd4 O3 2.203 1_455 S
Cd4 O6 2.411 . S
Cd4 O7 2.333 . S
Cd4 O8 2.352 . S
Cd4 O12 2.277 . S
Cd4 O13 2.356 . S
C5 O10 1.209 . S
C5 O12 1.226 . S
O6 Cd2 2.273 . S
O6 Cd4 2.411 . S
O6 C9 1.320 . S
O7 Cd4 2.333 . S
O7 C9 1.214 . S
O8 Cd4 2.352 . S
O8 C11 1.258 . S
C9 O6 1.320 . S
C9 O7 1.214 . S
O10 Cd2 2.277 . S
O10 C5 1.209 . S
C11 O8 1.258 . S
C11 O13 1.282 . S
O12 Cd4 2.277 . S
O12 C5 1.226 . S
O13 Cd4 2.356 . S
O13 C11 1.282 . S
C14 O15 1.306 . S
C14 O17 1.160 . S
O15 C14 1.306 . S
O15 Cd16 2.228 1_655 S
Cd16 O15 2.228 1_455 S
Cd16 O20 2.273 . S
Cd16 O24 2.278 1_455 S
O17 C14 1.160 . S
O17 Cd18 2.152 1_655 S
Cd18 O17 2.152 1_455 S
Cd18 O20 2.436 . S
Cd18 O21 2.385 . S
Cd18 O22 2.345 . S
Cd18 O26 2.279 1_455 S
Cd18 O27 2.361 . S
C19 O24 1.214 . S
C19 O26 1.226 . S
O20 Cd16 2.273 . S
O20 Cd18 2.436 . S
O20 C23 1.320 . S
O21 Cd18 2.385 . S
O21 C23 1.214 . S
O22 Cd18 2.345 . S
O22 C25 1.258 . S
C23 O20 1.320 . S
C23 O21 1.214 . S
O24 Cd16 2.278 1_655 S
O24 C19 1.214 . S
C25 O22 1.258 . S
C25 O27 1.282 . S
O26 Cd18 2.279 1_655 S
O26 C19 1.226 . S
O27 Cd18 2.361 . S
O27 C25 1.282 . S
C28 O29 1.306 . S
C28 O31 1.160 . S
O29 C28 1.306 . S
O29 Cd30 2.228 . S
Cd30 O29 2.228 . S
Cd30 O34 2.273 . S
Cd30 O38 2.277 . S
O31 C28 1.160 . S
O31 Cd32 2.203 . S
Cd32 O31 2.203 . S
Cd32 O34 2.411 . S
Cd32 O35 2.333 . S
Cd32 O36 2.352 . S
Cd32 O40 2.277 . S
Cd32 O41 2.356 . S
C33 O38 1.209 . S
C33 O40 1.226 . S
O34 Cd30 2.273 . S
O34 Cd32 2.411 . S
O34 C37 1.320 . S
O35 Cd32 2.333 . S
O35 C37 1.214 . S
O36 Cd32 2.352 . S
O36 C39 1.258 . S
C37 O34 1.320 . S
C37 O35 1.214 . S
O38 Cd30 2.277 . S
O38 C33 1.209 . S
C39 O36 1.258 . S
C39 O41 1.282 . S
O40 Cd32 2.277 . S
O40 C33 1.226 . S
O41 Cd32 2.356 . S
O41 C39 1.282 . S
C42 O43 1.306 . S
C42 O45 1.160 . S
O43 C42 1.306 . S
O43 Cd44 2.228 . S
Cd44 O43 2.228 . S
Cd44 O48 2.273 . S
Cd44 O52 2.277 . S
O45 C42 1.160 . S
O45 Cd46 2.203 . S
Cd46 O45 2.203 . S
Cd46 O48 2.411 . S
Cd46 O49 2.333 . S
Cd46 O50 2.352 . S
Cd46 O54 2.277 . S
Cd46 O55 2.356 . S
C47 O52 1.209 . S
C47 O54 1.226 . S
O48 Cd44 2.273 . S
O48 Cd46 2.411 . S
O48 C51 1.320 . S
O49 Cd46 2.333 . S
O49 C51 1.214 . S
O50 Cd46 2.352 . S
O50 C53 1.258 . S
C51 O48 1.320 . S
C51 O49 1.214 . S
O52 Cd44 2.277 . S
O52 C47 1.209 . S
C53 O50 1.258 . S
C53 O55 1.282 . S
O54 Cd46 2.277 . S
O54 C47 1.226 . S
O55 Cd46 2.356 . S
O55 C53 1.282 . S
C56 O57 1.306 . S
C56 O59 1.160 . S
O57 C56 1.306 . S
O57 Cd58 2.228 1_655 S
Cd58 O57 2.228 1_455 S
Cd58 O62 2.273 . S
Cd58 O66 2.277 . S
O59 C56 1.160 . S
O59 Cd60 2.203 1_655 S
Cd60 O59 2.203 1_455 S
Cd60 O62 2.411 . S
Cd60 O63 2.333 . S
Cd60 O64 2.352 . S
Cd60 O68 2.277 . S
Cd60 O69 2.356 . S
C61 O66 1.209 . S
C61 O68 1.226 . S
O62 Cd58 2.273 . S
O62 Cd60 2.411 . S
O62 C65 1.320 . S
O63 Cd60 2.333 . S
O63 C65 1.214 . S
O64 Cd60 2.352 . S
O64 C67 1.258 . S
C65 O62 1.320 . S
C65 O63 1.214 . S
O66 Cd58 2.277 . S
O66 C61 1.209 . S
C67 O64 1.258 . S
C67 O69 1.282 . S
O68 Cd60 2.277 . S
O68 C61 1.226 . S
O69 Cd60 2.356 . S
O69 C67 1.282 . S
C70 O71 1.306 . S
C70 O73 1.160 . S
O71 C70 1.306 . S
O71 Cd72 2.228 . S
Cd72 O71 2.228 . S
Cd72 O76 2.273 . S
Cd72 O80 2.277 . S
O73 C70 1.160 . S
O73 Cd74 2.203 . S
Cd74 O73 2.203 . S
Cd74 O76 2.411 . S
Cd74 O77 2.333 . S
Cd74 O78 2.352 . S
Cd74 O82 2.277 . S
Cd74 O83 2.356 . S
C75 O80 1.209 . S
C75 O82 1.226 . S
O76 Cd72 2.273 . S
O76 Cd74 2.411 . S
O76 C79 1.320 . S
O77 Cd74 2.333 . S
O77 C79 1.214 . S
O78 Cd74 2.352 . S
O78 C81 1.258 . S
C79 O76 1.320 . S
C79 O77 1.214 . S
O80 Cd72 2.277 . S
O80 C75 1.209 . S
C81 O78 1.258 . S
C81 O83 1.282 . S
O82 Cd74 2.277 . S
O82 C75 1.226 . S
O83 Cd74 2.356 . S
O83 C81 1.282 . S
C84 O85 1.306 . S
C84 O87 1.160 . S
O85 C84 1.306 . S
O85 Cd86 2.228 . S
Cd86 O85 2.228 . S
Cd86 O90 2.273 . S
Cd86 O94 2.277 . S
O87 C84 1.160 . S
O87 Cd88 2.203 . S
Cd88 O87 2.203 . S
Cd88 O90 2.411 . S
Cd88 O91 2.333 . S
Cd88 O92 2.352 . S
Cd88 O96 2.277 . S
Cd88 O97 2.356 . S
C89 O94 1.209 . S
C89 O96 1.226 . S
O90 Cd86 2.273 . S
O90 Cd88 2.411 . S
O90 C93 1.320 . S
O91 Cd88 2.333 . S
O91 C93 1.214 . S
O92 Cd88 2.352 . S
O92 C95 1.258 . S
C93 O90 1.320 . S
C93 O91 1.214 . S
O94 Cd86 2.277 . S
O94 C89 1.209 . S
C95 O92 1.258 . S
C95 O97 1.282 . S
O96 Cd88 2.277 . S
O96 C89 1.226 . S
O97 Cd88 2.356 . S
O97 C95 1.282 . S
C98 O99 1.306 . S
C98 O101 1.160 . S
O99 C98 1.306 . S
O99 Cd100 2.228 1_655 S
Cd100 O99 2.228 1_455 S
Cd100 O104 2.273 . S
Cd100 O108 2.277 . S
O101 C98 1.160 . S
O101 Cd102 2.203 1_655 S
Cd102 O101 2.203 1_455 S
Cd102 O104 2.411 . S
Cd102 O105 2.333 . S
Cd102 O106 2.352 . S
Cd102 O110 2.277 . S
Cd102 O111 2.356 . S
C103 O108 1.209 . S
C103 O110 1.226 . S
O104 Cd100 2.273 . S
O104 Cd102 2.411 . S
O104 C107 1.320 . S
O105 Cd102 2.333 . S
O105 C107 1.214 . S
O106 Cd102 2.352 . S
O106 C109 1.258 . S
C107 O104 1.320 . S
C107 O105 1.214 . S
O108 Cd100 2.277 . S
O108 C103 1.209 . S
C109 O106 1.258 . S
C109 O111 1.282 . S
O110 Cd102 2.277 . S
O110 C103 1.226 . S
O111 Cd102 2.356 . S
O111 C109 1.282 . S
C112 O113 1.306 . S
C112 O115 1.160 . S
O113 C112 1.306 . S
O113 Cd114 2.228 . S
Cd114 O113 2.228 . S
Cd114 O118 2.273 . S
Cd114 O122 2.277 . S
O115 C112 1.160 . S
O115 Cd116 2.203 . S
Cd116 O115 2.203 . S
Cd116 O118 2.411 . S
Cd116 O119 2.333 . S
Cd116 O120 2.352 . S
Cd116 O124 2.277 . S
Cd116 O125 2.356 . S
C117 O122 1.209 . S
C117 O124 1.226 . S
O118 Cd114 2.273 . S
O118 Cd116 2.411 . S
O118 C121 1.320 . S
O119 Cd116 2.333 . S
O119 C121 1.214 . S
O120 Cd116 2.352 . S
O120 C123 1.258 . S
C121 O118 1.320 . S
C121 O119 1.214 . S
O122 Cd114 2.277 . S
O122 C117 1.209 . S
C123 O120 1.258 . S
C123 O125 1.282 . S
O124 Cd116 2.277 . S
O124 C117 1.226 . S
O125 Cd116 2.356 . S
O125 C123 1.282 . S
C126 O127 1.306 . S
C126 O129 1.160 . S
O127 C126 1.306 . S
O127 Cd128 2.228 . S
Cd128 O127 2.228 . S
Cd128 O132 2.273 . S
Cd128 O136 2.277 . S
O129 C126 1.160 . S
O129 Cd130 2.203 . S
Cd130 O129 2.203 . S
Cd130 O132 2.411 . S
Cd130 O133 2.333 . S
Cd130 O134 2.352 . S
Cd130 O138 2.277 . S
Cd130 O139 2.356 . S
C131 O136 1.209 . S
C131 O138 1.226 . S
O132 Cd128 2.273 . S
O132 Cd130 2.411 . S
O132 C135 1.320 . S
O133 Cd130 2.333 . S
O133 C135 1.214 . S
O134 Cd130 2.352 . S
O134 C137 1.258 . S
C135 O132 1.320 . S
C135 O133 1.214 . S
O136 Cd128 2.277 . S
O136 C131 1.209 . S
C137 O134 1.258 . S
C137 O139 1.282 . S
O138 Cd130 2.277 . S
O138 C131 1.226 . S
O139 Cd130 2.356 . S
O139 C137 1.282 . S
C140 O141 1.306 . S
C140 O143 1.143 1_545 S
O141 C140 1.306 . S
O141 Cd142 2.228 . S
Cd142 O141 2.228 . S
Cd142 O146 2.273 1_545 S
Cd142 O150 2.277 . S
O143 C140 1.143 1_565 S
O143 Cd144 2.204 . S
Cd144 O143 2.204 . S
Cd144 O146 2.411 . S
Cd144 O147 2.333 . S
Cd144 O148 2.352 . S
Cd144 O152 2.277 1_565 S
Cd144 O153 2.356 . S
C145 O150 1.209 . S
C145 O152 1.226 . S
O146 Cd142 2.273 1_565 S
O146 Cd144 2.411 . S
O146 C149 1.320 . S
O147 Cd144 2.333 . S
O147 C149 1.214 . S
O148 Cd144 2.352 . S
O148 C151 1.258 . S
C149 O146 1.320 . S
C149 O147 1.214 . S
O150 Cd142 2.277 . S
O150 C145 1.209 . S
C151 O148 1.258 . S
C151 O153 1.282 . S
O152 Cd144 2.277 1_545 S
O152 C145 1.226 . S
O153 Cd144 2.356 . S
O153 C151 1.282 . S
C154 O155 1.306 . S
C154 O157 1.160 . S
O155 C154 1.306 . S
O155 Cd156 2.228 . S
Cd156 O155 2.228 . S
Cd156 O160 2.273 . S
Cd156 O164 2.277 1_554 S
O157 C154 1.160 . S
O157 Cd158 2.203 . S
Cd158 O157 2.203 . S
Cd158 O160 2.411 . S
Cd158 O161 2.333 . S
Cd158 O162 2.352 . S
Cd158 O166 2.277 . S
Cd158 O167 2.356 . S
C159 O164 1.209 . S
C159 O166 1.226 1_556 S
O160 Cd156 2.273 . S
O160 Cd158 2.411 . S
O160 C163 1.320 . S
O161 Cd158 2.333 . S
O161 C163 1.214 . S
O162 Cd158 2.352 . S
O162 C165 1.258 . S
C163 O160 1.320 . S
C163 O161 1.214 . S
O164 Cd156 2.277 1_556 S
O164 C159 1.209 . S
C165 O162 1.258 . S
C165 O167 1.282 . S
O166 Cd158 2.277 . S
O166 C159 1.226 1_554 S
O167 Cd158 2.356 . S
O167 C165 1.282 . S
C168 O169 1.306 . S
C168 O171 1.160 . S
O169 C168 1.306 . S
O169 Cd170 2.228 1_554 S
Cd170 O169 2.228 1_556 S
Cd170 O174 2.273 1_556 S
Cd170 O178 2.277 . S
O171 C168 1.160 . S
O171 Cd172 2.203 . S
Cd172 O171 2.203 . S
Cd172 O174 2.411 . S
Cd172 O175 2.333 . S
Cd172 O176 2.352 . S
Cd172 O180 2.317 . S
Cd172 O181 2.356 . S
C173 O178 1.209 . S
C173 O180 1.185 1_556 S
O174 Cd170 2.273 1_554 S
O174 Cd172 2.411 . S
O174 C177 1.320 . S
O175 Cd172 2.333 . S
O175 C177 1.214 . S
O176 Cd172 2.352 . S
O176 C179 1.258 . S
C177 O174 1.320 . S
C177 O175 1.214 . S
O178 Cd170 2.277 . S
O178 C173 1.209 . S
C179 O176 1.258 . S
C179 O181 1.282 . S
O180 Cd172 2.317 . S
O180 C173 1.185 1_554 S
O181 Cd172 2.356 . S
O181 C179 1.282 . S
C182 O183 1.306 . S
C182 O185 1.153 1_554 S
O183 C182 1.306 . S
O183 Cd184 2.228 . S
Cd184 O183 2.228 . S
Cd184 O188 2.232 1_554 S
Cd184 O192 2.277 . S
O185 C182 1.153 1_556 S
O185 Cd186 2.203 . S
Cd186 O185 2.203 . S
Cd186 O188 2.420 . S
Cd186 O189 2.333 . S
Cd186 O190 2.352 . S
Cd186 O194 2.277 1_556 S
Cd186 O195 2.356 . S
C187 O192 1.209 . S
C187 O194 1.226 . S
O188 Cd184 2.232 1_556 S
O188 Cd186 2.420 . S
O188 C191 1.324 . S
O189 Cd186 2.333 . S
O189 C191 1.214 . S
O190 Cd186 2.352 . S
O190 C193 1.258 . S
C191 O188 1.324 . S
C191 O189 1.214 . S
O192 Cd184 2.277 . S
O192 C187 1.209 . S
C193 O190 1.258 . S
C193 O195 1.282 . S
O194 Cd186 2.277 1_554 S
O194 C187 1.226 . S
O195 Cd186 2.356 . S
O195 C193 1.282 . S
C196 O197 1.306 . S
C196 O199 1.160 . S
O197 C196 1.306 . S
O197 Cd198 2.228 . S
Cd198 O197 2.228 . S
Cd198 O202 2.273 . S
Cd198 O206 2.277 . S
O199 C196 1.160 . S
O199 Cd200 2.203 . S
Cd200 O199 2.203 . S
Cd200 O202 2.411 . S
Cd200 O203 2.333 . S
Cd200 O204 2.352 . S
Cd200 O208 2.277 . S
Cd200 O209 2.356 . S
C201 O206 1.209 . S
C201 O208 1.226 . S
O202 Cd198 2.273 . S
O202 Cd200 2.411 . S
O202 C205 1.320 . S
O203 Cd200 2.333 . S
O203 C205 1.214 . S
O204 Cd200 2.352 . S
O204 C207 1.258 . S
C205 O202 1.320 . S
C205 O203 1.214 . S
O206 Cd198 2.277 . S
O206 C201 1.209 . S
C207 O204 1.258 . S
C207 O209 1.282 . S
O208 Cd200 2.277 . S
O208 C201 1.226 . S
O209 Cd200 2.356 . S
O209 C207 1.282 . S
C210 O211 1.306 . S
C210 O213 1.160 . S
O211 C210 1.306 . S
O211 Cd212 2.228 . S
Cd212 O211 2.228 . S
Cd212 O216 2.273 . S
Cd212 O220 2.277 . S
O213 C210 1.160 . S
O213 Cd214 2.203 . S
Cd214 O213 2.203 . S
Cd214 O216 2.411 . S
Cd214 O217 2.333 . S
Cd214 O218 2.352 . S
Cd214 O222 2.277 . S
Cd214 O223 2.356 . S
C215 O220 1.209 . S
C215 O222 1.226 . S
O216 Cd212 2.273 . S
O216 Cd214 2.411 . S
O216 C219 1.320 . S
O217 Cd214 2.333 . S
O217 C219 1.214 . S
O218 Cd214 2.352 . S
O218 C221 1.258 . S
C219 O216 1.320 . S
C219 O217 1.214 . S
O220 Cd212 2.277 . S
O220 C215 1.209 . S
C221 O218 1.258 . S
C221 O223 1.282 . S
O222 Cd214 2.277 . S
O222 C215 1.226 . S
O223 Cd214 2.356 . S
O223 C221 1.282 . S
C224 O225 1.306 . S
C224 O227 1.160 . S
O225 C224 1.306 . S
O225 Cd226 2.228 . S
Cd226 O225 2.228 . S
Cd226 O230 2.273 . S
Cd226 O234 2.277 . S
O227 C224 1.160 . S
O227 Cd228 2.203 . S
Cd228 O227 2.203 . S
Cd228 O230 2.411 . S
Cd228 O231 2.333 . S
Cd228 O232 2.352 . S
Cd228 O236 2.277 . S
Cd228 O237 2.356 . S
C229 O234 1.209 . S
C229 O236 1.226 . S
O230 Cd226 2.273 . S
O230 Cd228 2.411 . S
O230 C233 1.320 . S
O231 Cd228 2.333 . S
O231 C233 1.214 . S
O232 Cd228 2.352 . S
O232 C235 1.258 . S
C233 O230 1.320 . S
C233 O231 1.214 . S
O234 Cd226 2.277 . S
O234 C229 1.209 . S
C235 O232 1.258 . S
C235 O237 1.282 . S
O236 Cd228 2.277 . S
O236 C229 1.226 . S
O237 Cd228 2.356 . S
O237 C235 1.282 . S
C238 O239 1.306 . S
C238 O241 1.160 . S
O239 C238 1.306 . S
O239 Cd240 2.228 . S
Cd240 O239 2.228 . S
Cd240 O244 2.273 . S
Cd240 O248 2.277 . S
O241 C238 1.160 . S
O241 Cd242 2.203 . S
Cd242 O241 2.203 . S
Cd242 O244 2.411 . S
Cd242 O245 2.333 . S
Cd242 O246 2.352 . S
Cd242 O250 2.277 . S
Cd242 O251 2.356 . S
C243 O248 1.209 . S
C243 O250 1.226 . S
O244 Cd240 2.273 . S
O244 Cd242 2.411 . S
O244 C247 1.320 . S
O245 Cd242 2.333 . S
O245 C247 1.214 . S
O246 Cd242 2.352 . S
O246 C249 1.258 . S
C247 O244 1.320 . S
C247 O245 1.214 . S
O248 Cd240 2.277 . S
O248 C243 1.209 . S
C249 O246 1.258 . S
C249 O251 1.282 . S
O250 Cd242 2.277 . S
O250 C243 1.226 . S
O251 Cd242 2.356 . S
O251 C249 1.282 . S
C252 O253 1.306 . S
C252 O255 1.160 . S
O253 C252 1.306 . S
O253 Cd254 2.228 . S
Cd254 O253 2.228 . S
Cd254 O258 2.273 . S
Cd254 O262 2.277 . S
O255 C252 1.160 . S
O255 Cd256 2.203 . S
Cd256 O255 2.203 . S
Cd256 O258 2.411 . S
Cd256 O259 2.333 . S
Cd256 O260 2.352 . S
Cd256 O264 2.277 . S
Cd256 O265 2.356 . S
C257 O262 1.209 . S
C257 O264 1.226 . S
O258 Cd254 2.273 . S
O258 Cd256 2.411 . S
O258 C261 1.320 . S
O259 Cd256 2.333 . S
O259 C261 1.214 . S
O260 Cd256 2.352 . S
O260 C263 1.258 . S
C261 O258 1.320 . S
C261 O259 1.214 . S
O262 Cd254 2.277 . S
O262 C257 1.209 . S
C263 O260 1.258 . S
C263 O265 1.282 . S
O264 Cd256 2.277 . S
O264 C257 1.226 . S
O265 Cd256 2.356 . S
O265 C263 1.282 . S
C266 O267 1.306 . S
C266 O269 1.160 . S
O267 C266 1.306 . S
O267 Cd268 2.228 . S
Cd268 O267 2.228 . S
Cd268 O272 2.273 . S
Cd268 O276 2.277 . S
O269 C266 1.160 . S
O269 Cd270 2.203 . S
Cd270 O269 2.203 . S
Cd270 O272 2.411 . S
Cd270 O273 2.333 . S
Cd270 O274 2.352 1_545 S
Cd270 O278 2.277 . S
Cd270 O279 2.356 1_545 S
C271 O276 1.209 . S
C271 O278 1.226 . S
O272 Cd268 2.273 . S
O272 Cd270 2.411 . S
O272 C275 1.320 . S
O273 Cd270 2.333 . S
O273 C275 1.214 . S
O274 Cd270 2.352 1_565 S
O274 C277 1.258 . S
C275 O272 1.320 . S
C275 O273 1.214 . S
O276 Cd268 2.277 . S
O276 C271 1.209 . S
C277 O274 1.258 . S
C277 O279 1.282 . S
O278 Cd270 2.277 . S
O278 C271 1.226 . S
O279 Cd270 2.356 1_565 S
O279 C277 1.282 . S
C280 O281 1.306 . S
C280 O283 1.160 . S
O281 C280 1.306 . S
O281 Cd282 2.228 . S
Cd282 O281 2.228 . S
Cd282 O286 2.273 . S
Cd282 O290 2.277 . S
O283 C280 1.160 . S
O283 Cd284 2.203 . S
Cd284 O283 2.203 . S
Cd284 O286 2.411 . S
Cd284 O287 2.333 . S
Cd284 O288 2.352 1_554 S
Cd284 O292 2.277 . S
Cd284 O293 2.356 1_554 S
C285 O290 1.209 . S
C285 O292 1.226 . S
O286 Cd282 2.273 . S
O286 Cd284 2.411 . S
O286 C289 1.320 . S
O287 Cd284 2.333 . S
O287 C289 1.214 . S
O288 Cd284 2.352 1_556 S
O288 C291 1.258 . S
C289 O286 1.320 . S
C289 O287 1.214 . S
O290 Cd282 2.277 . S
O290 C285 1.209 . S
C291 O288 1.258 . S
C291 O293 1.282 . S
O292 Cd284 2.277 . S
O292 C285 1.226 . S
O293 Cd284 2.356 1_556 S
O293 C291 1.282 . S
C294 O295 1.306 . S
C294 O297 1.160 . S
O295 C294 1.306 . S
O295 Cd296 2.228 . S
Cd296 O295 2.228 . S
Cd296 O300 2.273 . S
Cd296 O304 2.277 . S
O297 C294 1.160 . S
O297 Cd298 2.203 . S
Cd298 O297 2.203 . S
Cd298 O300 2.411 . S
Cd298 O301 2.333 . S
Cd298 O302 2.352 . S
Cd298 O306 2.277 . S
Cd298 O307 2.356 . S
C299 O304 1.209 . S
C299 O306 1.226 . S
O300 Cd296 2.273 . S
O300 Cd298 2.411 . S
O300 C303 1.320 . S
O301 Cd298 2.333 . S
O301 C303 1.214 . S
O302 Cd298 2.352 . S
O302 C305 1.258 . S
C303 O300 1.320 . S
C303 O301 1.214 . S
O304 Cd296 2.277 . S
O304 C299 1.209 . S
C305 O302 1.258 . S
C305 O307 1.282 . S
O306 Cd298 2.277 . S
O306 C299 1.226 . S
O307 Cd298 2.356 . S
O307 C305 1.282 . S
C308 O309 1.306 . S
C308 O311 1.160 . S
O309 C308 1.306 . S
O309 Cd310 2.228 . S
Cd310 O309 2.228 . S
Cd310 O314 2.273 . S
Cd310 O318 2.277 . S
O311 C308 1.160 . S
O311 Cd312 2.203 . S
Cd312 O311 2.203 . S
Cd312 O314 2.411 . S
Cd312 O315 2.333 . S
Cd312 O316 2.352 . S
Cd312 O320 2.277 . S
Cd312 O321 2.356 . S
C313 O318 1.209 . S
C313 O320 1.226 . S
O314 Cd310 2.273 . S
O314 Cd312 2.411 . S
O314 C317 1.320 . S
O315 Cd312 2.333 . S
O315 C317 1.214 . S
O316 Cd312 2.352 . S
O316 C319 1.258 . S
C317 O314 1.320 . S
C317 O315 1.214 . S
O318 Cd310 2.277 . S
O318 C313 1.209 . S
C319 O316 1.258 . S
C319 O321 1.282 . S
O320 Cd312 2.277 . S
O320 C313 1.226 . S
O321 Cd312 2.356 . S
O321 C319 1.282 . S
C322 O323 1.306 . S
C322 O325 1.160 . S
O323 C322 1.306 . S
O323 Cd324 2.228 . S
Cd324 O323 2.228 . S
Cd324 O328 2.273 . S
Cd324 O332 2.277 . S
O325 C322 1.160 . S
O325 Cd326 2.203 . S
Cd326 O325 2.203 . S
Cd326 O328 2.411 . S
Cd326 O329 2.333 . S
Cd326 O330 2.352 . S
Cd326 O334 2.277 . S
Cd326 O335 2.356 . S
C327 O332 1.209 . S
C327 O334 1.226 . S
O328 Cd324 2.273 . S
O328 Cd326 2.411 . S
O328 C331 1.320 . S
O329 Cd326 2.333 . S
O329 C331 1.214 . S
O330 Cd326 2.352 . S
O330 C333 1.258 . S
C331 O328 1.320 . S
C331 O329 1.214 . S
O332 Cd324 2.277 . S
O332 C327 1.209 . S
C333 O330 1.258 . S
C333 O335 1.282 . S
O334 Cd326 2.277 . S
O334 C327 1.226 . S
O335 Cd326 2.356 . S
O335 C333 1.282 . S
Tb336 O339 2.453 . S
Tb336 O340 2.596 . S
Tb336 O341 2.374 1_554 S
Tb336 O349 2.343 1_455 S
Tb336 O351 2.353 . S
Tb336 O353 2.427 . S
Tb336 O354 2.513 1_554 S
C337 O341 1.251 . S
C337 O343 1.263 . S
Tb338 O340 2.343 1_655 S
Tb338 O343 2.353 1_654 S
Tb338 O346 2.427 1_645 S
Tb338 O347 2.513 1_645 S
Tb338 O348 2.453 . S
Tb338 O349 2.596 . S
Tb338 O350 2.374 . S
O339 Tb336 2.453 . S
O339 C355 1.245 . S
O340 Tb336 2.596 . S
O340 Tb338 2.343 1_455 S
O340 C355 1.259 . S
O341 Tb336 2.374 1_556 S
O341 C337 1.251 . S
C342 O346 1.275 . S
C342 O347 1.246 . S
O343 C337 1.263 . S
O343 Tb338 2.353 1_456 S
C344 O348 1.245 . S
C344 O349 1.259 . S
C345 O350 1.249 1_455 S
C345 O351 1.270 . S
O346 Tb338 2.427 1_465 S
O346 C342 1.275 . S
O347 Tb338 2.513 1_465 S
O347 C342 1.246 . S
O348 Tb338 2.453 . S
O348 C344 1.245 . S
O349 Tb336 2.343 1_655 S
O349 Tb338 2.596 . S
O349 C344 1.259 . S
O350 Tb338 2.374 . S
O350 C345 1.249 1_655 S
O351 Tb336 2.353 . S
O351 C345 1.270 . S
C352 O353 1.275 . S
C352 O354 1.246 1_554 S
O353 Tb336 2.427 . S
O353 C352 1.275 . S
O354 Tb336 2.513 1_556 S
O354 C352 1.246 1_556 S
C355 O339 1.245 . S
C355 O340 1.259 . S
Tb356 O359 2.453 . S
Tb356 O360 2.596 . S
Tb356 O361 2.374 . S
Tb356 O369 2.343 . S
Tb356 O371 2.353 . S
Tb356 O373 2.427 . S
Tb356 O374 2.513 . S
C357 O361 1.251 . S
C357 O363 1.263 . S
Tb358 O360 2.343 . S
Tb358 O363 2.353 . S
Tb358 O366 2.427 . S
Tb358 O367 2.513 . S
Tb358 O368 2.453 . S
Tb358 O369 2.596 . S
Tb358 O370 2.374 . S
O359 Tb356 2.453 . S
O359 C375 1.245 . S
O360 Tb356 2.596 . S
O360 Tb358 2.343 . S
O360 C375 1.259 . S
O361 Tb356 2.374 . S
O361 C357 1.251 . S
C362 O366 1.275 . S
C362 O367 1.246 . S
O363 C357 1.263 . S
O363 Tb358 2.353 . S
C364 O368 1.245 . S
C364 O369 1.259 . S
C365 O370 1.250 . S
C365 O371 1.263 . S
O366 Tb358 2.427 . S
O366 C362 1.275 . S
O367 Tb358 2.513 . S
O367 C362 1.246 . S
O368 Tb358 2.453 . S
O368 C364 1.245 . S
O369 Tb356 2.343 . S
O369 Tb358 2.596 . S
O369 C364 1.259 . S
O370 Tb358 2.374 . S
O370 C365 1.250 . S
O371 Tb356 2.353 . S
O371 C365 1.263 . S
C372 O373 1.275 . S
C372 O374 1.246 . S
O373 Tb356 2.427 . S
O373 C372 1.275 . S
O374 Tb356 2.513 . S
O374 C372 1.246 . S
C375 O359 1.245 . S
C375 O360 1.259 . S
Tb376 O379 2.453 . S
Tb376 O380 2.596 . S
Tb376 O381 2.374 . S
Tb376 O389 2.343 . S
Tb376 O391 2.353 . S
Tb376 O393 2.427 . S
Tb376 O394 2.513 . S
C377 O381 1.251 . S
C377 O383 1.263 . S
Tb378 O380 2.343 . S
Tb378 O383 2.353 . S
Tb378 O386 2.427 . S
Tb378 O387 2.513 . S
Tb378 O388 2.453 1_545 S
Tb378 O389 2.596 . S
Tb378 O390 2.374 . S
O379 Tb376 2.453 . S
O379 C395 1.245 . S
O380 Tb376 2.596 . S
O380 Tb378 2.343 . S
O380 C395 1.259 . S
O381 Tb376 2.374 . S
O381 C377 1.251 . S
C382 O386 1.275 . S
C382 O387 1.246 . S
O383 C377 1.263 . S
O383 Tb378 2.353 . S
C384 O388 1.245 . S
C384 O389 1.259 1_565 S
C385 O390 1.250 . S
C385 O391 1.263 . S
O386 Tb378 2.427 . S
O386 C382 1.275 . S
O387 Tb378 2.513 . S
O387 C382 1.246 . S
O388 Tb378 2.453 1_565 S
O388 C384 1.245 . S
O389 Tb376 2.343 . S
O389 Tb378 2.596 . S
O389 C384 1.259 1_545 S
O390 Tb378 2.374 . S
O390 C385 1.250 . S
O391 Tb376 2.353 . S
O391 C385 1.263 . S
C392 O393 1.275 . S
C392 O394 1.246 . S
O393 Tb376 2.427 . S
O393 C392 1.275 . S
O394 Tb376 2.513 . S
O394 C392 1.246 . S
C395 O379 1.245 . S
C395 O380 1.259 . S
Tb396 O399 2.453 . S
Tb396 O400 2.596 . S
Tb396 O401 2.374 . S
Tb396 O409 2.343 . S
Tb396 O411 2.353 . S
Tb396 O413 2.427 . S
Tb396 O414 2.513 . S
C397 O401 1.251 . S
C397 O403 1.263 . S
Tb398 O400 2.343 . S
Tb398 O403 2.353 . S
Tb398 O406 2.427 . S
Tb398 O407 2.513 . S
Tb398 O408 2.453 . S
Tb398 O409 2.596 . S
Tb398 O410 2.374 . S
O399 Tb396 2.453 . S
O399 C415 1.245 . S
O400 Tb396 2.596 . S
O400 Tb398 2.343 . S
O400 C415 1.259 . S
O401 Tb396 2.374 . S
O401 C397 1.251 . S
C402 O406 1.275 . S
C402 O407 1.246 . S
O403 C397 1.263 . S
O403 Tb398 2.353 . S
C404 O408 1.245 . S
C404 O409 1.259 . S
C405 O410 1.250 . S
C405 O411 1.263 . S
O406 Tb398 2.427 . S
O406 C402 1.275 . S
O407 Tb398 2.513 . S
O407 C402 1.246 . S
O408 Tb398 2.453 . S
O408 C404 1.245 . S
O409 Tb396 2.343 . S
O409 Tb398 2.596 . S
O409 C404 1.259 . S
O410 Tb398 2.374 . S
O410 C405 1.250 . S
O411 Tb396 2.353 . S
O411 C405 1.263 . S
C412 O413 1.275 . S
C412 O414 1.246 . S
O413 Tb396 2.427 . S
O413 C412 1.275 . S
O414 Tb396 2.513 . S
O414 C412 1.246 . S
C415 O399 1.245 . S
C415 O400 1.259 . S
Tb416 O419 2.453 1_545 S
Tb416 O420 2.596 . S
Tb416 O421 2.374 1_455 S
Tb416 O429 2.343 . S
Tb416 O431 2.353 . S
Tb416 O433 2.427 . S
Tb416 O434 2.513 1_455 S
C417 O421 1.251 . S
C417 O423 1.263 . S
Tb418 O420 2.343 . S
Tb418 O423 2.353 1_455 S
Tb418 O426 2.427 . S
Tb418 O427 2.513 . S
Tb418 O428 2.453 . S
Tb418 O429 2.596 . S
Tb418 O430 2.374 . S
O419 Tb416 2.453 1_565 S
O419 C435 1.245 . S
O420 Tb416 2.596 . S
O420 Tb418 2.343 . S
O420 C435 1.259 1_545 S
O421 Tb416 2.374 1_655 S
O421 C417 1.251 . S
C422 O426 1.275 . S
C422 O427 1.246 . S
O423 C417 1.263 . S
O423 Tb418 2.353 1_655 S
C424 O428 1.245 . S
C424 O429 1.259 . S
C425 O430 1.250 . S
C425 O431 1.263 . S
O426 Tb418 2.427 . S
O426 C422 1.275 . S
O427 Tb418 2.513 . S
O427 C422 1.246 . S
O428 Tb418 2.453 . S
O428 C424 1.245 . S
O429 Tb416 2.343 . S
O429 Tb418 2.596 . S
O429 C424 1.259 . S
O430 Tb418 2.374 . S
O430 C425 1.250 . S
O431 Tb416 2.353 . S
O431 C425 1.263 . S
C432 O433 1.275 1_655 S
C432 O434 1.246 . S
O433 Tb416 2.427 . S
O433 C432 1.275 1_455 S
O434 Tb416 2.513 1_655 S
O434 C432 1.246 . S
C435 O419 1.245 . S
C435 O420 1.259 1_565 S
Tb436 O439 2.453 . S
Tb436 O440 2.596 . S
Tb436 O441 2.374 . S
Tb436 O449 2.343 . S
Tb436 O451 2.353 . S
Tb436 O453 2.427 . S
Tb436 O454 2.513 . S
C437 O441 1.251 . S
C437 O443 1.263 . S
Tb438 O440 2.343 . S
Tb438 O443 2.353 . S
Tb438 O446 2.427 . S
Tb438 O447 2.513 . S
Tb438 O448 2.453 . S
Tb438 O449 2.596 . S
Tb438 O450 2.374 . S
O439 Tb436 2.453 . S
O439 C455 1.245 . S
O440 Tb436 2.596 . S
O440 Tb438 2.343 . S
O440 C455 1.259 . S
O441 Tb436 2.374 . S
O441 C437 1.251 . S
C442 O446 1.275 . S
C442 O447 1.246 . S
O443 C437 1.263 . S
O443 Tb438 2.353 . S
C444 O448 1.245 . S
C444 O449 1.259 . S
C445 O450 1.250 . S
C445 O451 1.263 . S
O446 Tb438 2.427 . S
O446 C442 1.275 . S
O447 Tb438 2.513 . S
O447 C442 1.246 . S
O448 Tb438 2.453 . S
O448 C444 1.245 . S
O449 Tb436 2.343 . S
O449 Tb438 2.596 . S
O449 C444 1.259 . S
O450 Tb438 2.374 . S
O450 C445 1.250 . S
O451 Tb436 2.353 . S
O451 C445 1.263 . S
C452 O453 1.275 . S
C452 O454 1.246 . S
O453 Tb436 2.427 . S
O453 C452 1.275 . S
O454 Tb436 2.513 . S
O454 C452 1.246 . S
C455 O439 1.245 . S
C455 O440 1.259 . S
Tb456 O459 2.453 . S
Tb456 O460 2.596 . S
Tb456 O461 2.374 1_545 S
Tb456 O469 2.343 1_556 S
Tb456 O471 2.353 1_556 S
Tb456 O473 2.427 1_556 S
Tb456 O474 2.519 1_556 S
C457 O461 1.251 1_554 S
C457 O463 1.264 1_565 S
Tb458 O460 2.343 1_554 S
Tb458 O463 2.348 . S
Tb458 O466 2.427 . S
Tb458 O467 2.513 . S
Tb458 O468 2.453 . S
Tb458 O469 2.596 . S
Tb458 O470 2.374 . S
O459 Tb456 2.453 . S
O459 C475 1.245 . S
O460 Tb456 2.596 . S
O460 Tb458 2.343 1_556 S
O460 C475 1.259 . S
O461 Tb456 2.374 1_565 S
O461 C457 1.251 1_556 S
C462 O466 1.275 . S
C462 O467 1.246 . S
O463 C457 1.264 1_545 S
O463 Tb458 2.348 . S
C464 O468 1.245 . S
C464 O469 1.259 . S
C465 O470 1.250 . S
C465 O471 1.263 . S
O466 Tb458 2.427 . S
O466 C462 1.275 . S
O467 Tb458 2.513 . S
O467 C462 1.246 . S
O468 Tb458 2.453 . S
O468 C464 1.245 . S
O469 Tb456 2.343 1_554 S
O469 Tb458 2.596 . S
O469 C464 1.259 . S
O470 Tb458 2.374 . S
O470 C465 1.250 . S
O471 Tb456 2.353 1_554 S
O471 C465 1.263 . S
C472 O473 1.275 . S
C472 O474 1.254 . S
O473 Tb456 2.427 1_554 S
O473 C472 1.275 . S
O474 Tb456 2.519 1_554 S
O474 C472 1.254 . S
C475 O459 1.245 . S
C475 O460 1.259 . S
Tb476 O479 2.453 . S
Tb476 O480 2.596 . S
Tb476 O481 2.374 . S
Tb476 O489 2.343 . S
Tb476 O491 2.353 . S
Tb476 O493 2.427 . S
Tb476 O494 2.513 . S
C477 O481 1.251 . S
C477 O483 1.263 . S
Tb478 O480 2.343 . S
Tb478 O483 2.353 . S
Tb478 O486 2.427 . S
Tb478 O487 2.513 . S
Tb478 O488 2.453 . S
Tb478 O489 2.596 . S
Tb478 O490 2.374 . S
O479 Tb476 2.453 . S
O479 C495 1.245 . S
O480 Tb476 2.596 . S
O480 Tb478 2.343 . S
O480 C495 1.259 . S
O481 Tb476 2.374 . S
O481 C477 1.251 . S
C482 O486 1.275 . S
C482 O487 1.246 . S
O483 C477 1.263 . S
O483 Tb478 2.353 . S
C484 O488 1.245 . S
C484 O489 1.259 . S
C485 O490 1.250 . S
C485 O491 1.263 . S
O486 Tb478 2.427 . S
O486 C482 1.275 . S
O487 Tb478 2.513 . S
O487 C482 1.246 . S
O488 Tb478 2.453 . S
O488 C484 1.245 . S
O489 Tb476 2.343 . S
O489 Tb478 2.596 . S
O489 C484 1.259 . S
O490 Tb478 2.374 . S
O490 C485 1.250 . S
O491 Tb476 2.353 . S
O491 C485 1.263 . S
C492 O493 1.275 . S
C492 O494 1.246 . S
O493 Tb476 2.427 . S
O493 C492 1.275 . S
O494 Tb476 2.513 . S
O494 C492 1.246 . S
C495 O479 1.245 . S
C495 O480 1.259 . S
Tb496 O499 2.453 1_556 S
Tb496 O500 2.596 1_556 S
Tb496 O501 2.374 1_556 S
Tb496 O509 2.343 1_556 S
Tb496 O511 2.353 . S
Tb496 O513 2.427 . S
Tb496 O514 2.513 . S
C497 O501 1.251 . S
C497 O503 1.263 . S
Tb498 O500 2.343 . S
Tb498 O503 2.353 . S
Tb498 O506 2.427 . S
Tb498 O507 2.513 . S
Tb498 O508 2.453 . S
Tb498 O509 2.596 . S
Tb498 O510 2.374 . S
O499 Tb496 2.453 1_554 S
O499 C515 1.245 . S
O500 Tb496 2.596 1_554 S
O500 Tb498 2.343 . S
O500 C515 1.259 . S
O501 Tb496 2.374 1_554 S
O501 C497 1.251 . S
C502 O506 1.275 . S
C502 O507 1.246 . S
O503 C497 1.263 . S
O503 Tb498 2.353 . S
C504 O508 1.245 . S
C504 O509 1.259 . S
C505 O510 1.250 . S
C505 O511 1.263 1_554 S
O506 Tb498 2.427 . S
O506 C502 1.275 . S
O507 Tb498 2.513 . S
O507 C502 1.246 . S
O508 Tb498 2.453 . S
O508 C504 1.245 . S
O509 Tb496 2.343 1_554 S
O509 Tb498 2.596 . S
O509 C504 1.259 . S
O510 Tb498 2.374 . S
O510 C505 1.250 . S
O511 Tb496 2.353 . S
O511 C505 1.263 1_556 S
C512 O513 1.275 . S
C512 O514 1.246 . S
O513 Tb496 2.427 . S
O513 C512 1.275 . S
O514 Tb496 2.513 . S
O514 C512 1.246 . S
C515 O499 1.245 . S
C515 O500 1.259 . S
Tb516 O519 2.453 . S
Tb516 O520 2.596 . S
Tb516 O521 2.374 . S
Tb516 O529 2.343 . S
Tb516 O531 2.353 . S
Tb516 O533 2.427 . S
Tb516 O534 2.513 . S
C517 O521 1.251 . S
C517 O523 1.263 . S
Tb518 O520 2.343 . S
Tb518 O523 2.353 . S
Tb518 O526 2.427 . S
Tb518 O527 2.513 . S
Tb518 O528 2.453 . S
Tb518 O529 2.596 . S
Tb518 O530 2.374 . S
O519 Tb516 2.453 . S
O519 C535 1.245 . S
O520 Tb516 2.596 . S
O520 Tb518 2.343 . S
O520 C535 1.259 . S
O521 Tb516 2.374 . S
O521 C517 1.251 . S
C522 O526 1.275 . S
C522 O527 1.246 . S
O523 C517 1.263 . S
O523 Tb518 2.353 . S
C524 O528 1.245 . S
C524 O529 1.259 . S
C525 O530 1.250 . S
C525 O531 1.263 . S
O526 Tb518 2.427 . S
O526 C522 1.275 . S
O527 Tb518 2.513 . S
O527 C522 1.246 . S
O528 Tb518 2.453 . S
O528 C524 1.245 . S
O529 Tb516 2.343 . S
O529 Tb518 2.596 . S
O529 C524 1.259 . S
O530 Tb518 2.374 . S
O530 C525 1.250 . S
O531 Tb516 2.353 . S
O531 C525 1.263 . S
C532 O533 1.275 . S
C532 O534 1.246 . S
O533 Tb516 2.427 . S
O533 C532 1.275 . S
O534 Tb516 2.513 . S
O534 C532 1.246 . S
C535 O519 1.245 . S
C535 O520 1.259 . S
Tb536 O539 2.434 1_655 S
Tb536 O540 2.596 1_655 S
Tb536 O541 2.374 . S
Tb536 O549 2.343 . S
Tb536 O551 2.353 . S
Tb536 O553 2.427 . S
Tb536 O554 2.513 . S
C537 O541 1.251 1_455 S
C537 O543 1.263 . S
Tb538 O540 2.343 . S
Tb538 O543 2.353 . S
Tb538 O546 2.427 . S
Tb538 O547 2.513 . S
Tb538 O548 2.453 . S
Tb538 O549 2.596 1_455 S
Tb538 O550 2.374 . S
O539 Tb536 2.434 1_455 S
O539 C555 1.276 . S
O540 Tb536 2.596 1_455 S
O540 Tb538 2.343 . S
O540 C555 1.259 . S
O541 Tb536 2.374 . S
O541 C537 1.251 1_655 S
C542 O546 1.275 . S
C542 O547 1.246 . S
O543 C537 1.263 . S
O543 Tb538 2.353 . S
C544 O548 1.245 1_655 S
C544 O549 1.259 . S
C545 O550 1.250 . S
C545 O551 1.263 1_455 S
O546 Tb538 2.427 . S
O546 C542 1.275 . S
O547 Tb538 2.513 . S
O547 C542 1.246 . S
O548 Tb538 2.453 . S
O548 C544 1.245 1_455 S
O549 Tb536 2.343 . S
O549 Tb538 2.596 1_655 S
O549 C544 1.259 . S
O550 Tb538 2.374 . S
O550 C545 1.250 . S
O551 Tb536 2.353 . S
O551 C545 1.263 1_655 S
C552 O553 1.275 . S
C552 O554 1.246 . S
O553 Tb536 2.427 . S
O553 C552 1.275 . S
O554 Tb536 2.513 . S
O554 C552 1.246 . S
C555 O539 1.276 . S
C555 O540 1.259 . S
Tb556 O559 2.453 . S
Tb556 O560 2.596 . S
Tb556 O561 2.374 . S
Tb556 O569 2.343 . S
Tb556 O571 2.353 . S
Tb556 O573 2.427 . S
Tb556 O574 2.513 . S
C557 O561 1.251 . S
C557 O563 1.263 . S
Tb558 O560 2.343 . S
Tb558 O563 2.353 . S
Tb558 O566 2.427 . S
Tb558 O567 2.513 . S
Tb558 O568 2.453 . S
Tb558 O569 2.596 . S
Tb558 O570 2.374 . S
O559 Tb556 2.453 . S
O559 C575 1.245 . S
O560 Tb556 2.596 . S
O560 Tb558 2.343 . S
O560 C575 1.259 . S
O561 Tb556 2.374 . S
O561 C557 1.251 . S
C562 O566 1.275 . S
C562 O567 1.246 . S
O563 C557 1.263 . S
O563 Tb558 2.353 . S
C564 O568 1.245 . S
C564 O569 1.259 . S
C565 O570 1.250 . S
C565 O571 1.263 . S
O566 Tb558 2.427 . S
O566 C562 1.275 . S
O567 Tb558 2.513 . S
O567 C562 1.246 . S
O568 Tb558 2.453 . S
O568 C564 1.245 . S
O569 Tb556 2.343 . S
O569 Tb558 2.596 . S
O569 C564 1.259 . S
O570 Tb558 2.374 . S
O570 C565 1.250 . S
O571 Tb556 2.353 . S
O571 C565 1.263 . S
C572 O573 1.275 . S
C572 O574 1.246 . S
O573 Tb556 2.427 . S
O573 C572 1.275 . S
O574 Tb556 2.513 . S
O574 C572 1.246 . S
C575 O559 1.245 . S
C575 O560 1.259 . S
Tb576 O579 2.453 . S
Tb576 O580 2.596 . S
Tb576 O581 2.374 . S
Tb576 O589 2.343 . S
Tb576 O591 2.353 . S
Tb576 O593 2.427 . S
Tb576 O594 2.513 . S
C577 O581 1.251 . S
C577 O583 1.263 . S
Tb578 O580 2.343 . S
Tb578 O583 2.353 . S
Tb578 O586 2.427 . S
Tb578 O587 2.513 . S
Tb578 O588 2.453 . S
Tb578 O589 2.596 . S
Tb578 O590 2.374 . S
O579 Tb576 2.453 . S
O579 C595 1.245 . S
O580 Tb576 2.596 . S
O580 Tb578 2.343 . S
O580 C595 1.259 . S
O581 Tb576 2.374 . S
O581 C577 1.251 . S
C582 O586 1.275 . S
C582 O587 1.246 . S
O583 C577 1.263 . S
O583 Tb578 2.353 . S
C584 O588 1.245 . S
C584 O589 1.259 . S
C585 O590 1.250 . S
C585 O591 1.263 . S
O586 Tb578 2.427 . S
O586 C582 1.275 . S
O587 Tb578 2.513 . S
O587 C582 1.246 . S
O588 Tb578 2.453 . S
O588 C584 1.245 . S
O589 Tb576 2.343 . S
O589 Tb578 2.596 . S
O589 C584 1.259 . S
O590 Tb578 2.374 . S
O590 C585 1.250 . S
O591 Tb576 2.353 . S
O591 C585 1.263 . S
C592 O593 1.275 . S
C592 O594 1.246 . S
O593 Tb576 2.427 . S
O593 C592 1.275 . S
O594 Tb576 2.513 . S
O594 C592 1.246 . S
C595 O579 1.245 . S
C595 O580 1.259 . S
Tb596 O599 2.453 . S
Tb596 O600 2.596 . S
Tb596 O601 2.374 . S
Tb596 O609 2.343 . S
Tb596 O611 2.353 . S
Tb596 O613 2.427 . S
Tb596 O614 2.513 . S
C597 O601 1.251 . S
C597 O603 1.263 . S
Tb598 O600 2.343 . S
Tb598 O603 2.353 . S
Tb598 O606 2.427 . S
Tb598 O607 2.513 . S
Tb598 O608 2.453 . S
Tb598 O609 2.596 . S
Tb598 O610 2.374 . S
O599 Tb596 2.453 . S
O599 C615 1.245 . S
O600 Tb596 2.596 . S
O600 Tb598 2.343 . S
O600 C615 1.259 . S
O601 Tb596 2.374 . S
O601 C597 1.251 . S
C602 O606 1.275 . S
C602 O607 1.246 . S
O603 C597 1.263 . S
O603 Tb598 2.353 . S
C604 O608 1.245 . S
C604 O609 1.259 . S
C605 O610 1.250 . S
C605 O611 1.263 . S
O606 Tb598 2.427 . S
O606 C602 1.275 . S
O607 Tb598 2.513 . S
O607 C602 1.246 . S
O608 Tb598 2.453 . S
O608 C604 1.245 . S
O609 Tb596 2.343 . S
O609 Tb598 2.596 . S
O609 C604 1.259 . S
O610 Tb598 2.374 . S
O610 C605 1.250 . S
O611 Tb596 2.353 . S
O611 C605 1.263 . S
C612 O613 1.275 . S
C612 O614 1.246 . S
O613 Tb596 2.427 . S
O613 C612 1.275 . S
O614 Tb596 2.513 . S
O614 C612 1.246 . S
C615 O599 1.245 . S
C615 O600 1.259 . S
Tb616 O619 2.453 . S
Tb616 O620 2.596 . S
Tb616 O621 2.374 . S
Tb616 O629 2.343 . S
Tb616 O631 2.353 . S
Tb616 O633 2.427 . S
Tb616 O634 2.513 . S
C617 O621 1.251 . S
C617 O623 1.263 . S
Tb618 O620 2.343 . S
Tb618 O623 2.353 . S
Tb618 O626 2.427 . S
Tb618 O627 2.513 . S
Tb618 O628 2.453 . S
Tb618 O629 2.596 . S
Tb618 O630 2.374 . S
O619 Tb616 2.453 . S
O619 C635 1.245 . S
O620 Tb616 2.596 . S
O620 Tb618 2.343 . S
O620 C635 1.259 . S
O621 Tb616 2.374 . S
O621 C617 1.251 . S
C622 O626 1.275 . S
C622 O627 1.246 . S
O623 C617 1.263 . S
O623 Tb618 2.353 . S
C624 O628 1.245 . S
C624 O629 1.259 . S
C625 O630 1.250 . S
C625 O631 1.263 . S
O626 Tb618 2.427 . S
O626 C622 1.275 . S
O627 Tb618 2.513 . S
O627 C622 1.246 . S
O628 Tb618 2.453 . S
O628 C624 1.245 . S
O629 Tb616 2.343 . S
O629 Tb618 2.596 . S
O629 C624 1.259 . S
O630 Tb618 2.374 . S
O630 C625 1.250 . S
O631 Tb616 2.353 . S
O631 C625 1.263 . S
C632 O633 1.275 . S
C632 O634 1.246 . S
O633 Tb616 2.427 . S
O633 C632 1.275 . S
O634 Tb616 2.513 . S
O634 C632 1.246 . S
C635 O619 1.245 . S
C635 O620 1.259 . S
Tb636 O639 2.453 . S
Tb636 O640 2.596 . S
Tb636 O641 2.374 . S
Tb636 O649 2.343 . S
Tb636 O651 2.353 1_554 S
Tb636 O653 2.427 1_554 S
Tb636 O654 2.513 . S
C637 O641 1.251 . S
C637 O643 1.263 1_455 S
Tb638 O640 2.343 1_655 S
Tb638 O643 2.353 . S
Tb638 O646 2.427 . S
Tb638 O647 2.513 . S
Tb638 O648 2.453 . S
Tb638 O649 2.596 1_655 S
Tb638 O650 2.374 1_554 S
O639 Tb636 2.453 . S
O639 C655 1.245 . S
O640 Tb636 2.596 . S
O640 Tb638 2.343 1_455 S
O640 C655 1.259 . S
O641 Tb636 2.374 . S
O641 C637 1.251 . S
C642 O646 1.275 . S
C642 O647 1.246 . S
O643 C637 1.263 1_655 S
O643 Tb638 2.353 . S
C644 O648 1.206 1_455 S
C644 O649 1.276 . S
C645 O650 1.237 1_455 S
C645 O651 1.277 . S
O646 Tb638 2.427 . S
O646 C642 1.275 . S
O647 Tb638 2.513 . S
O647 C642 1.246 . S
O648 Tb638 2.453 . S
O648 C644 1.206 1_655 S
O649 Tb636 2.343 . S
O649 Tb638 2.596 1_455 S
O649 C644 1.276 . S
O650 Tb638 2.374 1_556 S
O650 C645 1.237 1_655 S
O651 Tb636 2.353 1_556 S
O651 C645 1.277 . S
C652 O653 1.275 1_554 S
C652 O654 1.246 . S
O653 Tb636 2.427 1_556 S
O653 C652 1.275 1_556 S
O654 Tb636 2.513 . S
O654 C652 1.246 . S
C655 O639 1.245 . S
C655 O640 1.259 . S
C656 C657 1.349 . S
C656 C658 1.327 . S
C656 H681 0.950 . S
C657 C656 1.349 . S
C657 C673 1.349 1_455 S
C658 C656 1.327 . S
C658 C677 1.429 . S
C658 H682 0.950 . S
C659 C676 1.574 . S
C659 C678 1.368 1_655 S
C659 H683 0.949 . S
H660 C664 0.949 . S
C661 C662 1.353 1_654 S
C661 C663 1.324 1_554 S
C661 H684 0.947 . S
C662 C661 1.353 1_456 S
C662 C674 1.347 . S
C663 C661 1.324 1_556 S
C663 C679 1.418 1_655 S
C663 H685 0.963 1_556 S
C664 H660 0.949 . S
C664 C672 1.574 . S
C664 C680 1.368 . S
H665 C673 0.950 . S
H666 C671 0.950 . S
H667 C672 0.949 . S
H668 C674 0.950 . S
H669 C675 0.950 . S
H670 C676 0.949 . S
C671 H666 0.950 . S
C671 C673 1.327 . S
C671 C677 1.429 1_655 S
C672 C664 1.574 . S
C672 H667 0.949 . S
C672 C678 1.368 . S
C673 C657 1.349 1_655 S
C673 H665 0.950 . S
C673 C671 1.327 . S
C674 C662 1.347 . S
C674 H668 0.950 . S
C674 C675 1.327 . S
C675 H669 0.950 . S
C675 C674 1.327 . S
C675 C679 1.429 . S
C676 C659 1.574 . S
C676 H670 0.949 . S
C676 C680 1.368 1_655 S
C677 C658 1.429 . S
C677 C671 1.429 1_455 S
C677 C678 1.523 . S
C678 C659 1.368 1_455 S
C678 C672 1.368 . S
C678 C677 1.523 . S
C679 C663 1.418 1_455 S
C679 C675 1.429 . S
C679 C680 1.523 . S
C680 C664 1.368 . S
C680 C676 1.368 1_455 S
C680 C679 1.523 . S
H681 C656 0.950 . S
H682 C658 0.950 . S
H683 C659 0.949 . S
H684 C661 0.947 . S
H685 C663 0.963 1_554 S
C686 C687 1.349 . S
C686 C688 1.327 . S
C686 H711 0.950 . S
C687 C686 1.349 . S
C687 C703 1.349 . S
C688 C686 1.327 . S
C688 C707 1.429 . S
C688 H712 0.950 . S
C689 C706 1.574 . S
C689 C708 1.368 . S
C689 H713 0.949 . S
H690 C694 0.949 . S
C691 C692 1.349 . S
C691 C693 1.327 . S
C691 H714 0.950 . S
C692 C691 1.349 . S
C692 C704 1.349 . S
C693 C691 1.327 . S
C693 C709 1.429 . S
C693 H715 0.950 . S
C694 H690 0.949 . S
C694 C702 1.574 . S
C694 C710 1.368 . S
H695 C703 0.950 . S
H696 C701 0.950 . S
H697 C702 0.949 . S
H698 C704 0.950 . S
H699 C705 0.950 . S
H700 C706 0.949 . S
C701 H696 0.950 . S
C701 C703 1.327 . S
C701 C707 1.429 . S
C702 C694 1.574 . S
C702 H697 0.949 . S
C702 C708 1.368 . S
C703 C687 1.349 . S
C703 H695 0.950 . S
C703 C701 1.327 . S
C704 C692 1.349 . S
C704 H698 0.950 . S
C704 C705 1.327 . S
C705 H699 0.950 . S
C705 C704 1.327 . S
C705 C709 1.429 . S
C706 C689 1.574 . S
C706 H700 0.949 . S
C706 C710 1.368 . S
C707 C688 1.429 . S
C707 C701 1.429 . S
C707 C708 1.523 . S
C708 C689 1.368 . S
C708 C702 1.368 . S
C708 C707 1.523 . S
C709 C693 1.429 . S
C709 C705 1.429 . S
C709 C710 1.523 . S
C710 C694 1.368 . S
C710 C706 1.368 . S
C710 C709 1.523 . S
H711 C686 0.950 . S
H712 C688 0.950 . S
H713 C689 0.949 . S
H714 C691 0.950 . S
H715 C693 0.950 . S
C716 C717 1.349 . S
C716 C718 1.327 . S
C716 H741 0.950 . S
C717 C716 1.349 . S
C717 C733 1.349 . S
C718 C716 1.327 . S
C718 C737 1.429 . S
C718 H742 0.950 . S
C719 C736 1.574 . S
C719 C738 1.368 . S
C719 H743 0.949 . S
H720 C724 0.949 . S
C721 C722 1.349 . S
C721 C723 1.327 . S
C721 H744 0.950 . S
C722 C721 1.349 . S
C722 C734 1.349 . S
C723 C721 1.327 . S
C723 C739 1.429 . S
C723 H745 0.950 . S
C724 H720 0.949 . S
C724 C732 1.574 . S
C724 C740 1.368 . S
H725 C733 0.950 . S
H726 C731 0.950 . S
H727 C732 0.949 . S
H728 C734 0.950 . S
H729 C735 0.950 . S
H730 C736 0.949 . S
C731 H726 0.950 . S
C731 C733 1.327 . S
C731 C737 1.429 . S
C732 C724 1.574 . S
C732 H727 0.949 . S
C732 C738 1.368 . S
C733 C717 1.349 . S
C733 H725 0.950 . S
C733 C731 1.327 . S
C734 C722 1.349 . S
C734 H728 0.950 . S
C734 C735 1.327 . S
C735 H729 0.950 . S
C735 C734 1.327 . S
C735 C739 1.429 . S
C736 C719 1.574 . S
C736 H730 0.949 . S
C736 C740 1.368 . S
C737 C718 1.429 . S
C737 C731 1.429 . S
C737 C738 1.523 . S
C738 C719 1.368 . S
C738 C732 1.368 . S
C738 C737 1.523 . S
C739 C723 1.429 . S
C739 C735 1.429 . S
C739 C740 1.523 . S
C740 C724 1.368 . S
C740 C736 1.368 . S
C740 C739 1.523 . S
H741 C716 0.950 . S
H742 C718 0.950 . S
H743 C719 0.949 . S
H744 C721 0.950 . S
H745 C723 0.950 . S
C746 C747 1.349 . S
C746 C748 1.327 . S
C746 H771 0.950 . S
C747 C746 1.349 . S
C747 C763 1.349 . S
C748 C746 1.327 . S
C748 C767 1.429 . S
C748 H772 0.950 . S
C749 C766 1.574 . S
C749 C768 1.368 . S
C749 H773 0.949 . S
H750 C754 0.949 . S
C751 C752 1.349 . S
C751 C753 1.327 . S
C751 H774 0.950 . S
C752 C751 1.349 . S
C752 C764 1.349 . S
C753 C751 1.327 . S
C753 C769 1.429 . S
C753 H775 0.950 . S
C754 H750 0.949 . S
C754 C762 1.574 . S
C754 C770 1.368 . S
H755 C763 0.950 . S
H756 C761 0.950 . S
H757 C762 0.949 . S
H758 C764 0.950 . S
H759 C765 0.950 . S
H760 C766 0.949 . S
C761 H756 0.950 . S
C761 C763 1.327 . S
C761 C767 1.429 . S
C762 C754 1.574 . S
C762 H757 0.949 . S
C762 C768 1.368 . S
C763 C747 1.349 . S
C763 H755 0.950 . S
C763 C761 1.327 . S
C764 C752 1.349 . S
C764 H758 0.950 . S
C764 C765 1.327 . S
C765 H759 0.950 . S
C765 C764 1.327 . S
C765 C769 1.429 . S
C766 C749 1.574 . S
C766 H760 0.949 . S
C766 C770 1.368 . S
C767 C748 1.429 . S
C767 C761 1.429 . S
C767 C768 1.523 . S
C768 C749 1.368 . S
C768 C762 1.368 . S
C768 C767 1.523 . S
C769 C753 1.429 . S
C769 C765 1.429 . S
C769 C770 1.523 . S
C770 C754 1.368 . S
C770 C766 1.368 . S
C770 C769 1.523 . S
H771 C746 0.950 . S
H772 C748 0.950 . S
H773 C749 0.949 . S
H774 C751 0.950 . S
H775 C753 0.950 . S
C776 C777 1.349 1_655 S
C776 C778 1.327 . S
C776 H801 0.950 . S
C777 C776 1.349 1_455 S
C777 C793 1.349 . S
C778 C776 1.327 . S
C778 C797 1.429 1_655 S
C778 H802 0.950 . S
C779 C796 1.574 . S
C779 C798 1.368 . S
C779 H803 0.949 . S
H780 C784 0.949 . S
C781 C782 1.349 . S
C781 C783 1.327 . S
C781 H804 0.950 . S
C782 C781 1.349 . S
C782 C794 1.343 1_455 S
C783 C781 1.327 . S
C783 C799 1.429 . S
C783 H805 0.950 . S
C784 H780 0.949 . S
C784 C792 1.574 . S
C784 C800 1.368 1_655 S
H785 C793 0.950 . S
H786 C791 0.950 . S
H787 C792 0.949 . S
H788 C794 0.956 . S
H789 C795 0.950 . S
H790 C796 0.949 . S
C791 H786 0.950 . S
C791 C793 1.327 . S
C791 C797 1.429 . S
C792 C784 1.574 . S
C792 H787 0.949 . S
C792 C798 1.368 1_655 S
C793 C777 1.349 . S
C793 H785 0.950 . S
C793 C791 1.327 . S
C794 C782 1.343 1_655 S
C794 H788 0.956 . S
C794 C795 1.327 . S
C795 H789 0.950 . S
C795 C794 1.327 . S
C795 C799 1.429 1_655 S
C796 C779 1.574 . S
C796 H790 0.949 . S
C796 C800 1.368 . S
C797 C778 1.429 1_455 S
C797 C791 1.429 . S
C797 C798 1.523 . S
C798 C779 1.368 . S
C798 C792 1.368 1_455 S
C798 C797 1.523 . S
C799 C783 1.429 . S
C799 C795 1.429 1_455 S
C799 C800 1.523 . S
C800 C784 1.368 1_455 S
C800 C796 1.368 . S
C800 C799 1.523 . S
H801 C776 0.950 . S
H802 C778 0.950 . S
H803 C779 0.949 . S
H804 C781 0.950 . S
H805 C783 0.950 . S
C806 C807 1.349 . S
C806 C808 1.327 . S
C806 H831 0.950 . S
C807 C806 1.349 . S
C807 C823 1.349 . S
C808 C806 1.327 . S
C808 C827 1.429 . S
C808 H832 0.950 . S
C809 C826 1.574 . S
C809 C828 1.368 . S
C809 H833 0.949 . S
H810 C814 0.949 . S
C811 C812 1.349 . S
C811 C813 1.327 . S
C811 H834 0.950 . S
C812 C811 1.349 . S
C812 C824 1.349 . S
C813 C811 1.327 . S
C813 C829 1.429 . S
C813 H835 0.950 . S
C814 H810 0.949 . S
C814 C822 1.574 . S
C814 C830 1.368 . S
H815 C823 0.950 . S
H816 C821 0.950 . S
H817 C822 0.949 . S
H818 C824 0.950 . S
H819 C825 0.950 . S
H820 C826 0.949 . S
C821 H816 0.950 . S
C821 C823 1.327 . S
C821 C827 1.429 . S
C822 C814 1.574 . S
C822 H817 0.949 . S
C822 C828 1.368 . S
C823 C807 1.349 . S
C823 H815 0.950 . S
C823 C821 1.327 . S
C824 C812 1.349 . S
C824 H818 0.950 . S
C824 C825 1.327 . S
C825 H819 0.950 . S
C825 C824 1.327 . S
C825 C829 1.429 . S
C826 C809 1.574 . S
C826 H820 0.949 . S
C826 C830 1.368 . S
C827 C808 1.429 . S
C827 C821 1.429 . S
C827 C828 1.523 . S
C828 C809 1.368 . S
C828 C822 1.368 . S
C828 C827 1.523 . S
C829 C813 1.429 . S
C829 C825 1.429 . S
C829 C830 1.523 . S
C830 C814 1.368 . S
C830 C826 1.368 . S
C830 C829 1.523 . S
H831 C806 0.950 . S
H832 C808 0.950 . S
H833 C809 0.949 . S
H834 C811 0.950 . S
H835 C813 0.950 . S
C836 C837 1.349 . S
C836 C838 1.327 . S
C836 H861 0.950 . S
C837 C836 1.349 . S
C837 C853 1.349 . S
C838 C836 1.327 . S
C838 C857 1.429 . S
C838 H862 0.950 . S
C839 C856 1.574 . S
C839 C858 1.368 . S
C839 H863 0.949 . S
H840 C844 0.949 . S
C841 C842 1.349 . S
C841 C843 1.327 . S
C841 H864 0.950 . S
C842 C841 1.349 . S
C842 C854 1.349 . S
C843 C841 1.327 . S
C843 C859 1.429 . S
C843 H865 0.950 . S
C844 H840 0.949 . S
C844 C852 1.574 . S
C844 C860 1.368 . S
H845 C853 0.950 . S
H846 C851 0.950 . S
H847 C852 0.949 . S
H848 C854 0.950 . S
H849 C855 0.950 . S
H850 C856 0.949 . S
C851 H846 0.950 . S
C851 C853 1.327 . S
C851 C857 1.429 . S
C852 C844 1.574 . S
C852 H847 0.949 . S
C852 C858 1.368 . S
C853 C837 1.349 . S
C853 H845 0.950 . S
C853 C851 1.327 . S
C854 C842 1.349 . S
C854 H848 0.950 . S
C854 C855 1.327 . S
C855 H849 0.950 . S
C855 C854 1.327 . S
C855 C859 1.429 . S
C856 C839 1.574 . S
C856 H850 0.949 . S
C856 C860 1.368 . S
C857 C838 1.429 . S
C857 C851 1.429 . S
C857 C858 1.523 . S
C858 C839 1.368 . S
C858 C852 1.368 . S
C858 C857 1.523 . S
C859 C843 1.429 . S
C859 C855 1.429 . S
C859 C860 1.523 . S
C860 C844 1.368 . S
C860 C856 1.368 . S
C860 C859 1.523 . S
H861 C836 0.950 . S
H862 C838 0.950 . S
H863 C839 0.949 . S
H864 C841 0.950 . S
H865 C843 0.950 . S
C866 C867 1.349 . S
C866 C868 1.327 . S
C866 H891 0.950 . S
C867 C866 1.349 . S
C867 C883 1.349 . S
C868 C866 1.327 . S
C868 C887 1.429 . S
C868 H892 0.950 . S
C869 C886 1.574 . S
C869 C888 1.368 . S
C869 H893 0.949 . S
H870 C874 0.949 . S
C871 C872 1.349 . S
C871 C873 1.327 . S
C871 H894 0.950 . S
C872 C871 1.349 . S
C872 C884 1.349 . S
C873 C871 1.327 . S
C873 C889 1.429 . S
C873 H895 0.950 . S
C874 H870 0.949 . S
C874 C882 1.574 . S
C874 C890 1.368 . S
H875 C883 0.950 . S
H876 C881 0.950 . S
H877 C882 0.949 . S
H878 C884 0.950 . S
H879 C885 0.950 . S
H880 C886 0.949 . S
C881 H876 0.950 . S
C881 C883 1.327 . S
C881 C887 1.429 . S
C882 C874 1.574 . S
C882 H877 0.949 . S
C882 C888 1.368 . S
C883 C867 1.349 . S
C883 H875 0.950 . S
C883 C881 1.327 . S
C884 C872 1.349 . S
C884 H878 0.950 . S
C884 C885 1.327 . S
C885 H879 0.950 . S
C885 C884 1.327 . S
C885 C889 1.429 . S
C886 C869 1.574 . S
C886 H880 0.949 . S
C886 C890 1.368 . S
C887 C868 1.429 . S
C887 C881 1.429 . S
C887 C888 1.523 . S
C888 C869 1.368 . S
C888 C882 1.368 . S
C888 C887 1.523 . S
C889 C873 1.429 . S
C889 C885 1.429 . S
C889 C890 1.523 . S
C890 C874 1.368 . S
C890 C886 1.368 . S
C890 C889 1.523 . S
H891 C866 0.950 . S
H892 C868 0.950 . S
H893 C869 0.949 . S
H894 C871 0.950 . S
H895 C873 0.950 . S
C896 C897 1.349 . S
C896 C898 1.327 . S
C896 H921 0.950 . S
C897 C896 1.349 . S
C897 C913 1.349 . S
C898 C896 1.327 . S
C898 C917 1.429 . S
C898 H922 0.950 . S
C899 C916 1.574 . S
C899 C918 1.368 . S
C899 H923 0.949 . S
H900 C904 0.949 . S
C901 C902 1.359 . S
C901 C903 1.361 . S
C901 H924 0.908 1_655 S
C902 C901 1.359 . S
C902 C914 1.349 . S
C903 C901 1.361 . S
C903 C919 1.429 . S
C903 H925 0.950 . S
C904 H900 0.949 . S
C904 C912 1.574 . S
C904 C920 1.368 . S
H905 C913 0.950 . S
H906 C911 0.950 . S
H907 C912 0.949 . S
H908 C914 0.950 . S
H909 C915 0.950 . S
H910 C916 0.949 . S
C911 H906 0.950 . S
C911 C913 1.327 . S
C911 C917 1.429 . S
C912 C904 1.574 . S
C912 H907 0.949 . S
C912 C918 1.368 . S
C913 C897 1.349 . S
C913 H905 0.950 . S
C913 C911 1.327 . S
C914 C902 1.349 . S
C914 H908 0.950 . S
C914 C915 1.327 . S
C915 H909 0.950 . S
C915 C914 1.327 . S
C915 C919 1.429 . S
C916 C899 1.574 . S
C916 H910 0.949 . S
C916 C920 1.368 . S
C917 C898 1.429 . S
C917 C911 1.429 . S
C917 C918 1.523 . S
C918 C899 1.368 . S
C918 C912 1.368 . S
C918 C917 1.523 . S
C919 C903 1.429 . S
C919 C915 1.429 . S
C919 C920 1.523 . S
C920 C904 1.368 . S
C920 C916 1.368 . S
C920 C919 1.523 . S
H921 C896 0.950 . S
H922 C898 0.950 . S
H923 C899 0.949 . S
H924 C901 0.908 1_455 S
H925 C903 0.950 . S
C926 C927 1.349 . S
C926 C928 1.327 . S
C926 H951 0.950 . S
C927 C926 1.349 . S
C927 C943 1.349 . S
C928 C926 1.327 . S
C928 C947 1.429 . S
C928 H952 0.950 . S
C929 C946 1.574 . S
C929 C948 1.368 . S
C929 H953 0.949 . S
H930 C934 0.949 . S
C931 C932 1.349 . S
C931 C933 1.327 . S
C931 H954 0.950 . S
C932 C931 1.349 . S
C932 C944 1.349 . S
C933 C931 1.327 . S
C933 C949 1.429 . S
C933 H955 0.950 . S
C934 H930 0.949 . S
C934 C942 1.574 . S
C934 C950 1.368 . S
H935 C943 0.950 . S
H936 C941 0.950 . S
H937 C942 0.949 . S
H938 C944 0.950 . S
H939 C945 0.950 . S
H940 C946 0.949 . S
C941 H936 0.950 . S
C941 C943 1.327 . S
C941 C947 1.429 . S
C942 C934 1.574 . S
C942 H937 0.949 . S
C942 C948 1.368 . S
C943 C927 1.349 . S
C943 H935 0.950 . S
C943 C941 1.327 . S
C944 C932 1.349 . S
C944 H938 0.950 . S
C944 C945 1.327 . S
C945 H939 0.950 . S
C945 C944 1.327 . S
C945 C949 1.429 . S
C946 C929 1.574 . S
C946 H940 0.949 . S
C946 C950 1.368 . S
C947 C928 1.429 . S
C947 C941 1.429 . S
C947 C948 1.523 . S
C948 C929 1.368 . S
C948 C942 1.368 . S
C948 C947 1.523 . S
C949 C933 1.429 . S
C949 C945 1.429 . S
C949 C950 1.523 . S
C950 C934 1.368 . S
C950 C946 1.368 . S
C950 C949 1.523 . S
H951 C926 0.950 . S
H952 C928 0.950 . S
H953 C929 0.949 . S
H954 C931 0.950 . S
H955 C933 0.950 . S
C956 C957 1.349 . S
C956 C958 1.327 . S
C956 H981 0.950 . S
C957 C956 1.349 . S
C957 C973 1.349 1_545 S
C958 C956 1.327 . S
C958 C977 1.429 . S
C958 H982 0.950 . S
C959 C976 1.575 1_565 S
C959 C978 1.372 1_565 S
C959 H983 0.944 . S
H960 C964 0.949 . S
C961 C962 1.349 . S
C961 C963 1.327 . S
C961 H984 0.950 1_545 S
C962 C961 1.349 . S
C962 C974 1.349 . S
C963 C961 1.327 . S
C963 C979 1.429 . S
C963 H985 0.950 1_545 S
C964 H960 0.949 . S
C964 C972 1.574 . S
C964 C980 1.368 . S
H965 C973 0.950 . S
H966 C971 0.950 . S
H967 C972 0.949 . S
H968 C974 0.950 . S
H969 C975 0.950 . S
H970 C976 0.949 1_565 S
C971 H966 0.950 . S
C971 C973 1.327 . S
C971 C977 1.429 1_565 S
C972 C964 1.574 . S
C972 H967 0.949 . S
C972 C978 1.368 . S
C973 C957 1.349 1_565 S
C973 H965 0.950 . S
C973 C971 1.327 . S
C974 C962 1.349 . S
C974 H968 0.950 . S
C974 C975 1.327 . S
C975 H969 0.950 . S
C975 C974 1.327 . S
C975 C979 1.429 . S
C976 C959 1.575 1_545 S
C976 H970 0.949 1_545 S
C976 C980 1.368 . S
C977 C958 1.429 . S
C977 C971 1.429 1_545 S
C977 C978 1.523 . S
C978 C959 1.372 1_545 S
C978 C972 1.368 . S
C978 C977 1.523 . S
C979 C963 1.429 . S
C979 C975 1.429 . S
C979 C980 1.523 . S
C980 C964 1.368 . S
C980 C976 1.368 . S
C980 C979 1.523 . S
H981 C956 0.950 . S
H982 C958 0.950 . S
H983 C959 0.944 . S
H984 C961 0.950 1_565 S
H985 C963 0.950 1_565 S
C986 C987 1.349 . S
C986 C988 1.327 . S
C986 H1011 0.950 . S
C987 C986 1.349 . S
C987 C1003 1.349 . S
C988 C986 1.327 . S
C988 C1007 1.429 . S
C988 H1012 0.950 . S
C989 C1006 1.574 . S
C989 C1008 1.368 . S
C989 H1013 0.949 . S
H990 C994 0.949 . S
C991 C992 1.349 . S
C991 C993 1.327 . S
C991 H1014 0.950 . S
C992 C991 1.349 . S
C992 C1004 1.349 . S
C993 C991 1.327 . S
C993 C1009 1.429 . S
C993 H1015 0.950 . S
C994 H990 0.949 . S
C994 C1002 1.574 . S
C994 C1010 1.368 . S
H995 C1003 0.950 . S
H996 C1001 0.950 . S
H997 C1002 0.949 . S
H998 C1004 0.950 . S
H999 C1005 0.950 . S
H1000 C1006 0.949 . S
C1001 H996 0.950 . S
C1001 C1003 1.327 . S
C1001 C1007 1.429 . S
C1002 C994 1.574 . S
C1002 H997 0.949 . S
C1002 C1008 1.368 . S
C1003 C987 1.349 . S
C1003 H995 0.950 . S
C1003 C1001 1.327 . S
C1004 C992 1.349 . S
C1004 H998 0.950 . S
C1004 C1005 1.327 . S
C1005 H999 0.950 . S
C1005 C1004 1.327 . S
C1005 C1009 1.429 . S
C1006 C989 1.574 . S
C1006 H1000 0.949 . S
C1006 C1010 1.368 . S
C1007 C988 1.429 . S
C1007 C1001 1.429 . S
C1007 C1008 1.523 . S
C1008 C989 1.368 . S
C1008 C1002 1.368 . S
C1008 C1007 1.523 . S
C1009 C993 1.429 . S
C1009 C1005 1.429 . S
C1009 C1010 1.523 . S
C1010 C994 1.368 . S
C1010 C1006 1.368 . S
C1010 C1009 1.523 . S
H1011 C986 0.950 . S
H1012 C988 0.950 . S
H1013 C989 0.949 . S
H1014 C991 0.950 . S
H1015 C993 0.950 . S
C1016 C1017 1.349 . S
C1016 C1018 1.327 . S
C1016 H1041 0.950 . S
C1017 C1016 1.349 . S
C1017 C1033 1.349 . S
C1018 C1016 1.327 . S
C1018 C1037 1.429 . S
C1018 H1042 0.950 . S
C1019 C1036 1.574 . S
C1019 C1038 1.368 . S
C1019 H1043 0.949 . S
H1020 C1024 0.949 . S
C1021 C1022 1.349 . S
C1021 C1023 1.327 . S
C1021 H1044 0.950 . S
C1022 C1021 1.349 . S
C1022 C1034 1.349 . S
C1023 C1021 1.327 . S
C1023 C1039 1.429 . S
C1023 H1045 0.950 . S
C1024 H1020 0.949 . S
C1024 C1032 1.574 . S
C1024 C1040 1.368 . S
H1025 C1033 0.950 . S
H1026 C1031 0.950 . S
H1027 C1032 0.949 . S
H1028 C1034 0.950 1_455 S
H1029 C1035 0.950 . S
H1030 C1036 0.949 . S
C1031 H1026 0.950 . S
C1031 C1033 1.327 . S
C1031 C1037 1.429 . S
C1032 C1024 1.574 . S
C1032 H1027 0.949 . S
C1032 C1038 1.368 . S
C1033 C1017 1.349 . S
C1033 H1025 0.950 . S
C1033 C1031 1.327 . S
C1034 C1022 1.349 . S
C1034 H1028 0.950 1_655 S
C1034 C1035 1.327 . S
C1035 H1029 0.950 . S
C1035 C1034 1.327 . S
C1035 C1039 1.429 . S
C1036 C1019 1.574 . S
C1036 H1030 0.949 . S
C1036 C1040 1.368 . S
C1037 C1018 1.429 . S
C1037 C1031 1.429 . S
C1037 C1038 1.523 . S
C1038 C1019 1.368 . S
C1038 C1032 1.368 . S
C1038 C1037 1.523 . S
C1039 C1023 1.429 . S
C1039 C1035 1.429 . S
C1039 C1040 1.523 . S
C1040 C1024 1.368 . S
C1040 C1036 1.368 . S
C1040 C1039 1.523 . S
H1041 C1016 0.950 . S
H1042 C1018 0.950 . S
H1043 C1019 0.949 . S
H1044 C1021 0.950 . S
H1045 C1023 0.950 . S
C1046 C1047 1.349 . S
C1046 C1048 1.327 . S
C1046 H1071 0.950 . S
C1047 C1046 1.349 . S
C1047 C1063 1.349 . S
C1048 C1046 1.327 . S
C1048 C1067 1.429 . S
C1048 H1072 0.950 . S
C1049 C1066 1.574 . S
C1049 C1068 1.368 . S
C1049 H1073 0.949 . S
H1050 C1054 0.949 . S
C1051 C1052 1.349 . S
C1051 C1053 1.327 . S
C1051 H1074 0.950 . S
C1052 C1051 1.349 . S
C1052 C1064 1.349 . S
C1053 C1051 1.327 . S
C1053 C1069 1.429 . S
C1053 H1075 0.950 . S
C1054 H1050 0.949 . S
C1054 C1062 1.574 . S
C1054 C1070 1.368 . S
H1055 C1063 0.950 . S
H1056 C1061 0.950 . S
H1057 C1062 0.949 . S
H1058 C1064 0.950 . S
H1059 C1065 0.950 . S
H1060 C1066 0.949 . S
C1061 H1056 0.950 . S
C1061 C1063 1.327 . S
C1061 C1067 1.429 . S
C1062 C1054 1.574 . S
C1062 H1057 0.949 . S
C1062 C1068 1.368 . S
C1063 C1047 1.349 . S
C1063 H1055 0.950 . S
C1063 C1061 1.327 . S
C1064 C1052 1.349 . S
C1064 H1058 0.950 . S
C1064 C1065 1.327 . S
C1065 H1059 0.950 . S
C1065 C1064 1.327 . S
C1065 C1069 1.429 . S
C1066 C1049 1.574 . S
C1066 H1060 0.949 . S
C1066 C1070 1.368 . S
C1067 C1048 1.429 . S
C1067 C1061 1.429 . S
C1067 C1068 1.523 . S
C1068 C1049 1.368 . S
C1068 C1062 1.368 . S
C1068 C1067 1.523 . S
C1069 C1053 1.429 . S
C1069 C1065 1.429 . S
C1069 C1070 1.523 . S
C1070 C1054 1.368 . S
C1070 C1066 1.368 . S
C1070 C1069 1.523 . S
H1071 C1046 0.950 . S
H1072 C1048 0.950 . S
H1073 C1049 0.949 . S
H1074 C1051 0.950 . S
H1075 C1053 0.950 . S
C1076 C1077 1.349 . S
C1076 C1078 1.327 . S
C1076 H1101 0.950 . S
C1077 C1076 1.349 . S
C1077 C1093 1.349 . S
C1078 C1076 1.327 . S
C1078 C1097 1.429 . S
C1078 H1102 0.950 . S
C1079 C1096 1.574 . S
C1079 C1098 1.368 . S
C1079 H1103 0.907 1_545 S
H1080 C1084 0.949 . S
C1081 C1082 1.349 . S
C1081 C1083 1.327 . S
C1081 H1104 0.950 . S
C1082 C1081 1.349 . S
C1082 C1094 1.349 . S
C1083 C1081 1.327 . S
C1083 C1099 1.429 . S
C1083 H1105 0.950 . S
C1084 H1080 0.949 . S
C1084 C1092 1.574 . S
C1084 C1100 1.368 . S
H1085 C1093 0.950 1_565 S
H1086 C1091 0.950 1_565 S
H1087 C1092 0.949 . S
H1088 C1094 0.950 . S
H1089 C1095 0.950 . S
H1090 C1096 0.949 . S
C1091 H1086 0.950 1_545 S
C1091 C1093 1.327 . S
C1091 C1097 1.429 . S
C1092 C1084 1.574 . S
C1092 H1087 0.949 . S
C1092 C1098 1.368 . S
C1093 C1077 1.349 . S
C1093 H1085 0.950 1_545 S
C1093 C1091 1.327 . S
C1094 C1082 1.349 . S
C1094 H1088 0.950 . S
C1094 C1095 1.327 . S
C1095 H1089 0.950 . S
C1095 C1094 1.327 . S
C1095 C1099 1.429 . S
C1096 C1079 1.574 . S
C1096 H1090 0.949 . S
C1096 C1100 1.368 . S
C1097 C1078 1.429 . S
C1097 C1091 1.429 . S
C1097 C1098 1.523 . S
C1098 C1079 1.368 . S
C1098 C1092 1.368 . S
C1098 C1097 1.523 . S
C1099 C1083 1.429 . S
C1099 C1095 1.429 . S
C1099 C1100 1.523 . S
C1100 C1084 1.368 . S
C1100 C1096 1.368 . S
C1100 C1099 1.523 . S
H1101 C1076 0.950 . S
H1102 C1078 0.950 . S
H1103 C1079 0.907 1_565 S
H1104 C1081 0.950 . S
H1105 C1083 0.950 . S
C1106 C1107 1.349 . S
C1106 C1108 1.327 . S
C1106 H1131 0.950 . S
C1107 C1106 1.349 . S
C1107 C1123 1.349 . S
C1108 C1106 1.327 . S
C1108 C1127 1.429 . S
C1108 H1132 0.950 . S
C1109 C1126 1.574 . S
C1109 C1128 1.368 . S
C1109 H1133 0.949 . S
H1110 C1114 0.949 . S
C1111 C1112 1.349 . S
C1111 C1113 1.327 . S
C1111 H1134 0.950 . S
C1112 C1111 1.349 . S
C1112 C1124 1.349 . S
C1113 C1111 1.327 . S
C1113 C1129 1.429 . S
C1113 H1135 0.950 . S
C1114 H1110 0.949 . S
C1114 C1122 1.574 . S
C1114 C1130 1.368 . S
H1115 C1123 0.950 . S
H1116 C1121 0.950 . S
H1117 C1122 0.949 . S
H1118 C1124 0.950 . S
H1119 C1125 0.950 . S
H1120 C1126 0.949 . S
C1121 H1116 0.950 . S
C1121 C1123 1.327 . S
C1121 C1127 1.429 . S
C1122 C1114 1.574 . S
C1122 H1117 0.949 . S
C1122 C1128 1.368 . S
C1123 C1107 1.349 . S
C1123 H1115 0.950 . S
C1123 C1121 1.327 . S
C1124 C1112 1.349 . S
C1124 H1118 0.950 . S
C1124 C1125 1.327 . S
C1125 H1119 0.950 . S
C1125 C1124 1.327 . S
C1125 C1129 1.429 . S
C1126 C1109 1.574 . S
C1126 H1120 0.949 . S
C1126 C1130 1.368 . S
C1127 C1108 1.429 . S
C1127 C1121 1.429 . S
C1127 C1128 1.523 . S
C1128 C1109 1.368 . S
C1128 C1122 1.368 . S
C1128 C1127 1.523 . S
C1129 C1113 1.429 . S
C1129 C1125 1.429 . S
C1129 C1130 1.523 . S
C1130 C1114 1.368 . S
C1130 C1126 1.368 . S
C1130 C1129 1.523 . S
H1131 C1106 0.950 . S
H1132 C1108 0.950 . S
H1133 C1109 0.949 . S
H1134 C1111 0.950 . S
H1135 C1113 0.950 . S
C1136 C1137 1.349 . S
C1136 C1138 1.327 . S
C1136 H1161 0.950 . S
C1137 C1136 1.349 . S
C1137 C1153 1.349 . S
C1138 C1136 1.327 . S
C1138 C1157 1.429 . S
C1138 H1162 0.950 . S
C1139 C1156 1.574 . S
C1139 C1158 1.368 . S
C1139 H1163 0.949 . S
H1140 C1144 0.949 . S
C1141 C1142 1.349 . S
C1141 C1143 1.327 . S
C1141 H1164 0.950 . S
C1142 C1141 1.349 . S
C1142 C1154 1.349 1_545 S
C1143 C1141 1.327 . S
C1143 C1159 1.429 1_545 S
C1143 H1165 0.950 . S
C1144 H1140 0.949 . S
C1144 C1152 1.574 . S
C1144 C1160 1.368 . S
H1145 C1153 0.950 . S
H1146 C1151 0.950 . S
H1147 C1152 0.949 . S
H1148 C1154 0.950 . S
H1149 C1155 0.950 . S
H1150 C1156 0.949 . S
C1151 H1146 0.950 . S
C1151 C1153 1.327 . S
C1151 C1157 1.429 . S
C1152 C1144 1.574 . S
C1152 H1147 0.949 . S
C1152 C1158 1.368 . S
C1153 C1137 1.349 . S
C1153 H1145 0.950 . S
C1153 C1151 1.327 . S
C1154 C1142 1.349 1_565 S
C1154 H1148 0.950 . S
C1154 C1155 1.327 . S
C1155 H1149 0.950 . S
C1155 C1154 1.327 . S
C1155 C1159 1.429 . S
C1156 C1139 1.574 . S
C1156 H1150 0.949 . S
C1156 C1160 1.368 . S
C1157 C1138 1.429 . S
C1157 C1151 1.429 . S
C1157 C1158 1.523 . S
C1158 C1139 1.368 . S
C1158 C1152 1.368 . S
C1158 C1157 1.523 . S
C1159 C1143 1.429 1_565 S
C1159 C1155 1.429 . S
C1159 C1160 1.523 . S
C1160 C1144 1.368 . S
C1160 C1156 1.368 . S
C1160 C1159 1.523 . S
H1161 C1136 0.950 . S
H1162 C1138 0.950 . S
H1163 C1139 0.949 . S
H1164 C1141 0.950 . S
H1165 C1143 0.950 . S
C1166 C1167 1.349 1_556 S
C1166 C1168 1.327 . S
C1166 H1191 0.950 . S
C1167 C1166 1.349 1_554 S
C1167 C1183 1.349 . S
C1168 C1166 1.327 . S
C1168 C1187 1.429 1_556 S
C1168 H1192 0.950 . S
C1169 C1186 1.574 . S
C1169 C1188 1.368 . S
C1169 H1193 0.949 . S
H1170 C1174 0.949 . S
C1171 C1172 1.349 . S
C1171 C1173 1.327 . S
C1171 H1194 0.950 . S
C1172 C1171 1.349 . S
C1172 C1184 1.349 1_554 S
C1173 C1171 1.327 . S
C1173 C1189 1.429 . S
C1173 H1195 0.950 . S
C1174 H1170 0.949 . S
C1174 C1182 1.574 . S
C1174 C1190 1.368 1_556 S
H1175 C1183 0.950 . S
H1176 C1181 0.950 . S
H1177 C1182 0.949 . S
H1178 C1184 0.950 . S
H1179 C1185 0.950 . S
H1180 C1186 0.949 . S
C1181 H1176 0.950 . S
C1181 C1183 1.327 . S
C1181 C1187 1.429 . S
C1182 C1174 1.574 . S
C1182 H1177 0.949 . S
C1182 C1188 1.368 1_556 S
C1183 C1167 1.349 . S
C1183 H1175 0.950 . S
C1183 C1181 1.327 . S
C1184 C1172 1.349 1_556 S
C1184 H1178 0.950 . S
C1184 C1185 1.327 . S
C1185 H1179 0.950 . S
C1185 C1184 1.327 . S
C1185 C1189 1.429 1_556 S
C1186 C1169 1.574 . S
C1186 H1180 0.949 . S
C1186 C1190 1.368 . S
C1187 C1168 1.429 1_554 S
C1187 C1181 1.429 . S
C1187 C1188 1.523 . S
C1188 C1169 1.368 . S
C1188 C1182 1.368 1_554 S
C1188 C1187 1.523 . S
C1189 C1173 1.429 . S
C1189 C1185 1.429 1_554 S
C1189 C1190 1.523 . S
C1190 C1174 1.368 1_554 S
C1190 C1186 1.368 . S
C1190 C1189 1.523 . S
H1191 C1166 0.950 . S
H1192 C1168 0.950 . S
H1193 C1169 0.949 . S
H1194 C1171 0.950 . S
H1195 C1173 0.950 . S
C1196 C1197 1.349 . S
C1196 C1198 1.327 . S
C1196 H1221 0.950 . S
C1197 C1196 1.349 . S
C1197 C1213 1.349 . S
C1198 C1196 1.327 . S
C1198 C1217 1.429 . S
C1198 H1222 0.950 . S
C1199 C1216 1.574 . S
C1199 C1218 1.368 . S
C1199 H1223 0.949 . S
H1200 C1204 0.949 . S
C1201 C1202 1.349 . S
C1201 C1203 1.327 . S
C1201 H1224 0.950 . S
C1202 C1201 1.349 . S
C1202 C1214 1.349 . S
C1203 C1201 1.327 . S
C1203 C1219 1.429 . S
C1203 H1225 0.950 . S
C1204 H1200 0.949 . S
C1204 C1212 1.574 . S
C1204 C1220 1.368 . S
H1205 C1213 0.950 . S
H1206 C1211 0.950 . S
H1207 C1212 0.949 . S
H1208 C1214 0.950 . S
H1209 C1215 0.950 . S
H1210 C1216 0.949 . S
C1211 H1206 0.950 . S
C1211 C1213 1.327 . S
C1211 C1217 1.429 . S
C1212 C1204 1.574 . S
C1212 H1207 0.949 . S
C1212 C1218 1.368 . S
C1213 C1197 1.349 . S
C1213 H1205 0.950 . S
C1213 C1211 1.327 . S
C1214 C1202 1.349 . S
C1214 H1208 0.950 . S
C1214 C1215 1.327 . S
C1215 H1209 0.950 . S
C1215 C1214 1.327 . S
C1215 C1219 1.429 . S
C1216 C1199 1.574 . S
C1216 H1210 0.949 . S
C1216 C1220 1.368 . S
C1217 C1198 1.429 . S
C1217 C1211 1.429 . S
C1217 C1218 1.523 . S
C1218 C1199 1.368 . S
C1218 C1212 1.368 . S
C1218 C1217 1.523 . S
C1219 C1203 1.429 . S
C1219 C1215 1.429 . S
C1219 C1220 1.523 . S
C1220 C1204 1.368 . S
C1220 C1216 1.368 . S
C1220 C1219 1.523 . S
H1221 C1196 0.950 . S
H1222 C1198 0.950 . S
H1223 C1199 0.949 . S
H1224 C1201 0.950 . S
H1225 C1203 0.950 . S
C1226 C1227 1.349 . S
C1226 C1228 1.327 . S
C1226 H1251 0.950 . S
C1227 C1226 1.349 . S
C1227 C1243 1.349 . S
C1228 C1226 1.327 . S
C1228 C1247 1.429 . S
C1228 H1252 0.950 . S
C1229 C1246 1.574 . S
C1229 C1248 1.368 . S
C1229 H1253 0.949 . S
H1230 C1234 0.949 . S
C1231 C1232 1.349 . S
C1231 C1233 1.327 . S
C1231 H1254 0.950 . S
C1232 C1231 1.349 . S
C1232 C1244 1.349 . S
C1233 C1231 1.327 . S
C1233 C1249 1.429 . S
C1233 H1255 0.950 . S
C1234 H1230 0.949 . S
C1234 C1242 1.574 . S
C1234 C1250 1.368 . S
H1235 C1243 0.950 . S
H1236 C1241 0.950 . S
H1237 C1242 0.949 . S
H1238 C1244 0.950 . S
H1239 C1245 0.950 . S
H1240 C1246 0.949 . S
C1241 H1236 0.950 . S
C1241 C1243 1.327 . S
C1241 C1247 1.429 . S
C1242 C1234 1.574 . S
C1242 H1237 0.949 . S
C1242 C1248 1.368 . S
C1243 C1227 1.349 . S
C1243 H1235 0.950 . S
C1243 C1241 1.327 . S
C1244 C1232 1.349 . S
C1244 H1238 0.950 . S
C1244 C1245 1.327 . S
C1245 H1239 0.950 . S
C1245 C1244 1.327 . S
C1245 C1249 1.429 . S
C1246 C1229 1.574 . S
C1246 H1240 0.949 . S
C1246 C1250 1.368 . S
C1247 C1228 1.429 . S
C1247 C1241 1.429 . S
C1247 C1248 1.523 . S
C1248 C1229 1.368 . S
C1248 C1242 1.368 . S
C1248 C1247 1.523 . S
C1249 C1233 1.429 . S
C1249 C1245 1.429 . S
C1249 C1250 1.523 . S
C1250 C1234 1.368 . S
C1250 C1246 1.368 . S
C1250 C1249 1.523 . S
H1251 C1226 0.950 . S
H1252 C1228 0.950 . S
H1253 C1229 0.949 . S
H1254 C1231 0.950 . S
H1255 C1233 0.950 . S
C1256 C1257 1.349 . S
C1256 C1258 1.327 . S
C1256 H1281 0.950 . S
C1257 C1256 1.349 . S
C1257 C1273 1.349 . S
C1258 C1256 1.327 . S
C1258 C1277 1.429 . S
C1258 H1282 0.950 . S
C1259 C1276 1.574 . S
C1259 C1278 1.368 . S
C1259 H1283 0.949 . S
H1260 C1264 0.949 . S
C1261 C1262 1.349 . S
C1261 C1263 1.327 . S
C1261 H1284 0.950 . S
C1262 C1261 1.349 . S
C1262 C1274 1.349 . S
C1263 C1261 1.327 . S
C1263 C1279 1.429 . S
C1263 H1285 0.950 . S
C1264 H1260 0.949 . S
C1264 C1272 1.574 . S
C1264 C1280 1.368 . S
H1265 C1273 0.950 . S
H1266 C1271 0.950 . S
H1267 C1272 0.949 . S
H1268 C1274 0.950 . S
H1269 C1275 0.950 . S
H1270 C1276 0.949 . S
C1271 H1266 0.950 . S
C1271 C1273 1.327 . S
C1271 C1277 1.429 . S
C1272 C1264 1.574 . S
C1272 H1267 0.949 . S
C1272 C1278 1.368 . S
C1273 C1257 1.349 . S
C1273 H1265 0.950 . S
C1273 C1271 1.327 . S
C1274 C1262 1.349 . S
C1274 H1268 0.950 . S
C1274 C1275 1.327 . S
C1275 H1269 0.950 . S
C1275 C1274 1.327 . S
C1275 C1279 1.429 . S
C1276 C1259 1.574 . S
C1276 H1270 0.949 . S
C1276 C1280 1.368 . S
C1277 C1258 1.429 . S
C1277 C1271 1.429 . S
C1277 C1278 1.523 . S
C1278 C1259 1.368 . S
C1278 C1272 1.368 . S
C1278 C1277 1.523 . S
C1279 C1263 1.429 . S
C1279 C1275 1.429 . S
C1279 C1280 1.523 . S
C1280 C1264 1.368 . S
C1280 C1276 1.368 . S
C1280 C1279 1.523 . S
H1281 C1256 0.950 . S
H1282 C1258 0.950 . S
H1283 C1259 0.949 . S
H1284 C1261 0.950 . S
H1285 C1263 0.950 . S
C1286 C1287 1.349 . S
C1286 C1288 1.327 . S
C1286 H1311 0.950 . S
C1287 C1286 1.349 . S
C1287 C1303 1.349 . S
C1288 C1286 1.327 . S
C1288 C1307 1.429 . S
C1288 H1312 0.950 . S
C1289 C1306 1.574 . S
C1289 C1308 1.368 . S
C1289 H1313 0.949 . S
H1290 C1294 0.949 . S
C1291 C1292 1.349 . S
C1291 C1293 1.327 . S
C1291 H1314 0.950 . S
C1292 C1291 1.349 . S
C1292 C1304 1.349 . S
C1293 C1291 1.327 . S
C1293 C1309 1.429 . S
C1293 H1315 0.950 . S
C1294 H1290 0.949 . S
C1294 C1302 1.574 . S
C1294 C1310 1.368 . S
H1295 C1303 0.950 . S
H1296 C1301 0.950 . S
H1297 C1302 0.949 . S
H1298 C1304 0.950 . S
H1299 C1305 0.950 . S
H1300 C1306 0.949 . S
C1301 H1296 0.950 . S
C1301 C1303 1.327 . S
C1301 C1307 1.429 . S
C1302 C1294 1.574 . S
C1302 H1297 0.949 . S
C1302 C1308 1.368 . S
C1303 C1287 1.349 . S
C1303 H1295 0.950 . S
C1303 C1301 1.327 . S
C1304 C1292 1.349 . S
C1304 H1298 0.950 . S
C1304 C1305 1.327 . S
C1305 H1299 0.950 . S
C1305 C1304 1.327 . S
C1305 C1309 1.429 . S
C1306 C1289 1.574 . S
C1306 H1300 0.949 . S
C1306 C1310 1.368 . S
C1307 C1288 1.429 . S
C1307 C1301 1.429 . S
C1307 C1308 1.523 . S
C1308 C1289 1.368 . S
C1308 C1302 1.368 . S
C1308 C1307 1.523 . S
C1309 C1293 1.429 . S
C1309 C1305 1.429 . S
C1309 C1310 1.523 . S
C1310 C1294 1.368 . S
C1310 C1306 1.368 . S
C1310 C1309 1.523 . S
H1311 C1286 0.950 . S
H1312 C1288 0.950 . S
H1313 C1289 0.949 . S
H1314 C1291 0.950 . S
H1315 C1293 0.950 . S
C1316 C1317 1.349 . S
C1316 C1318 1.327 . S
C1316 H1341 0.950 . S
C1317 C1316 1.349 . S
C1317 C1333 1.349 . S
C1318 C1316 1.327 . S
C1318 C1337 1.429 . S
C1318 H1342 0.950 . S
C1319 C1336 1.574 . S
C1319 C1338 1.368 . S
C1319 H1343 0.949 . S
H1320 C1324 0.949 . S
C1321 C1322 1.349 . S
C1321 C1323 1.327 . S
C1321 H1344 0.950 . S
C1322 C1321 1.349 . S
C1322 C1334 1.349 . S
C1323 C1321 1.327 . S
C1323 C1339 1.429 . S
C1323 H1345 0.950 . S
C1324 H1320 0.949 . S
C1324 C1332 1.574 . S
C1324 C1340 1.368 . S
H1325 C1333 0.950 . S
H1326 C1331 0.950 . S
H1327 C1332 0.949 . S
H1328 C1334 0.950 . S
H1329 C1335 0.950 . S
H1330 C1336 0.949 . S
C1331 H1326 0.950 . S
C1331 C1333 1.327 . S
C1331 C1337 1.429 . S
C1332 C1324 1.574 . S
C1332 H1327 0.949 . S
C1332 C1338 1.368 . S
C1333 C1317 1.349 . S
C1333 H1325 0.950 . S
C1333 C1331 1.327 . S
C1334 C1322 1.349 . S
C1334 H1328 0.950 . S
C1334 C1335 1.327 . S
C1335 H1329 0.950 . S
C1335 C1334 1.327 . S
C1335 C1339 1.429 . S
C1336 C1319 1.574 . S
C1336 H1330 0.949 . S
C1336 C1340 1.368 . S
C1337 C1318 1.429 . S
C1337 C1331 1.429 . S
C1337 C1338 1.523 . S
C1338 C1319 1.368 . S
C1338 C1332 1.368 . S
C1338 C1337 1.523 . S
C1339 C1323 1.429 . S
C1339 C1335 1.429 . S
C1339 C1340 1.523 . S
C1340 C1324 1.368 . S
C1340 C1336 1.368 . S
C1340 C1339 1.523 . S
H1341 C1316 0.950 . S
H1342 C1318 0.950 . S
H1343 C1319 0.949 . S
H1344 C1321 0.950 . S
H1345 C1323 0.950 . S
C1346 C1347 1.349 . S
C1346 C1348 1.327 . S
C1346 H1371 0.950 . S
C1347 C1346 1.349 . S
C1347 C1363 1.349 . S
C1348 C1346 1.327 . S
C1348 C1367 1.429 . S
C1348 H1372 0.950 . S
C1349 C1366 1.574 . S
C1349 C1368 1.368 . S
C1349 H1373 0.949 . S
H1350 C1354 0.949 . S
C1351 C1352 1.349 . S
C1351 C1353 1.327 . S
C1351 H1374 0.950 . S
C1352 C1351 1.349 . S
C1352 C1364 1.349 . S
C1353 C1351 1.327 . S
C1353 C1369 1.429 . S
C1353 H1375 0.950 . S
C1354 H1350 0.949 . S
C1354 C1362 1.574 . S
C1354 C1370 1.368 . S
H1355 C1363 0.950 . S
H1356 C1361 0.950 . S
H1357 C1362 0.949 . S
H1358 C1364 0.950 . S
H1359 C1365 0.950 . S
H1360 C1366 0.949 . S
C1361 H1356 0.950 . S
C1361 C1363 1.327 . S
C1361 C1367 1.429 . S
C1362 C1354 1.574 . S
C1362 H1357 0.949 . S
C1362 C1368 1.368 . S
C1363 C1347 1.349 . S
C1363 H1355 0.950 . S
C1363 C1361 1.327 . S
C1364 C1352 1.349 . S
C1364 H1358 0.950 . S
C1364 C1365 1.327 . S
C1365 H1359 0.950 . S
C1365 C1364 1.327 . S
C1365 C1369 1.429 . S
C1366 C1349 1.574 . S
C1366 H1360 0.949 . S
C1366 C1370 1.368 . S
C1367 C1348 1.429 . S
C1367 C1361 1.429 . S
C1367 C1368 1.523 . S
C1368 C1349 1.368 . S
C1368 C1362 1.368 . S
C1368 C1367 1.523 . S
C1369 C1353 1.429 . S
C1369 C1365 1.429 . S
C1369 C1370 1.523 . S
C1370 C1354 1.368 . S
C1370 C1366 1.368 . S
C1370 C1369 1.523 . S
H1371 C1346 0.950 . S
H1372 C1348 0.950 . S
H1373 C1349 0.949 . S
H1374 C1351 0.950 . S
H1375 C1353 0.950 . S
C1376 C1377 1.349 . S
C1376 C1378 1.327 . S
C1376 H1401 0.950 . S
C1377 C1376 1.349 . S
C1377 C1393 1.335 1_455 S
C1378 C1376 1.327 . S
C1378 C1397 1.429 . S
C1378 H1402 0.950 . S
C1379 C1396 1.574 . S
C1379 C1398 1.368 1_655 S
C1379 H1403 0.949 . S
H1380 C1384 0.949 . S
C1381 C1382 1.346 . S
C1381 C1383 1.328 1_455 S
C1381 H1404 0.953 1_455 S
C1382 C1381 1.346 . S
C1382 C1394 1.349 . S
C1383 C1381 1.328 1_655 S
C1383 C1399 1.419 1_655 S
C1383 H1405 0.959 . S
C1384 H1380 0.949 . S
C1384 C1392 1.574 . S
C1384 C1400 1.368 . S
H1385 C1393 0.962 . S
H1386 C1391 0.976 . S
H1387 C1392 0.949 . S
H1388 C1394 0.950 . S
H1389 C1395 0.950 . S
H1390 C1396 0.949 . S
C1391 H1386 0.976 . S
C1391 C1393 1.326 . S
C1391 C1397 1.407 1_655 S
C1392 C1384 1.574 . S
C1392 H1387 0.949 . S
C1392 C1398 1.368 . S
C1393 C1377 1.335 1_655 S
C1393 H1385 0.962 . S
C1393 C1391 1.326 . S
C1394 C1382 1.349 . S
C1394 H1388 0.950 . S
C1394 C1395 1.327 . S
C1395 H1389 0.950 . S
C1395 C1394 1.327 . S
C1395 C1399 1.429 . S
C1396 C1379 1.574 . S
C1396 H1390 0.949 . S
C1396 C1400 1.368 1_655 S
C1397 C1378 1.429 . S
C1397 C1391 1.407 1_455 S
C1397 C1398 1.523 . S
C1398 C1379 1.368 1_455 S
C1398 C1392 1.368 . S
C1398 C1397 1.523 . S
C1399 C1383 1.419 1_455 S
C1399 C1395 1.429 . S
C1399 C1400 1.523 . S
C1400 C1384 1.368 . S
C1400 C1396 1.368 1_455 S
C1400 C1399 1.523 . S
H1401 C1376 0.950 . S
H1402 C1378 0.950 . S
H1403 C1379 0.949 . S
H1404 C1381 0.953 1_655 S
H1405 C1383 0.959 . S
C1406 C1407 1.349 . S
C1406 C1408 1.327 . S
C1406 H1431 0.950 . S
C1407 C1406 1.349 . S
C1407 C1423 1.349 . S
C1408 C1406 1.327 . S
C1408 C1427 1.429 . S
C1408 H1432 0.950 . S
C1409 C1426 1.574 . S
C1409 C1428 1.368 . S
C1409 H1433 0.949 . S
H1410 C1414 0.949 . S
C1411 C1412 1.349 . S
C1411 C1413 1.327 . S
C1411 H1434 0.950 . S
C1412 C1411 1.349 . S
C1412 C1424 1.349 . S
C1413 C1411 1.327 . S
C1413 C1429 1.429 . S
C1413 H1435 0.950 . S
C1414 H1410 0.949 . S
C1414 C1422 1.574 . S
C1414 C1430 1.368 . S
H1415 C1423 0.950 . S
H1416 C1421 0.950 . S
H1417 C1422 0.949 . S
H1418 C1424 0.950 . S
H1419 C1425 0.950 . S
H1420 C1426 0.949 . S
C1421 H1416 0.950 . S
C1421 C1423 1.327 . S
C1421 C1427 1.429 . S
C1422 C1414 1.574 . S
C1422 H1417 0.949 . S
C1422 C1428 1.368 . S
C1423 C1407 1.349 . S
C1423 H1415 0.950 . S
C1423 C1421 1.327 . S
C1424 C1412 1.349 . S
C1424 H1418 0.950 . S
C1424 C1425 1.327 . S
C1425 H1419 0.950 . S
C1425 C1424 1.327 . S
C1425 C1429 1.429 . S
C1426 C1409 1.574 . S
C1426 H1420 0.949 . S
C1426 C1430 1.368 . S
C1427 C1408 1.429 . S
C1427 C1421 1.429 . S
C1427 C1428 1.523 . S
C1428 C1409 1.368 . S
C1428 C1422 1.368 . S
C1428 C1427 1.523 . S
C1429 C1413 1.429 . S
C1429 C1425 1.429 . S
C1429 C1430 1.523 . S
C1430 C1414 1.368 . S
C1430 C1426 1.368 . S
C1430 C1429 1.523 . S
H1431 C1406 0.950 . S
H1432 C1408 0.950 . S
H1433 C1409 0.949 . S
H1434 C1411 0.950 . S
H1435 C1413 0.950 . S
C1436 C1437 1.349 . S
C1436 C1438 1.327 . S
C1436 H1461 0.950 . S
C1437 C1436 1.349 . S
C1437 C1453 1.349 . S
C1438 C1436 1.327 . S
C1438 C1457 1.429 . S
C1438 H1462 0.950 . S
C1439 C1456 1.574 . S
C1439 C1458 1.368 . S
C1439 H1463 0.949 . S
H1440 C1444 0.949 . S
C1441 C1442 1.349 . S
C1441 C1443 1.327 . S
C1441 H1464 0.950 . S
C1442 C1441 1.349 . S
C1442 C1454 1.349 . S
C1443 C1441 1.327 . S
C1443 C1459 1.429 . S
C1443 H1465 0.950 . S
C1444 H1440 0.949 . S
C1444 C1452 1.574 . S
C1444 C1460 1.368 . S
H1445 C1453 0.950 . S
H1446 C1451 0.950 . S
H1447 C1452 0.949 . S
H1448 C1454 0.950 . S
H1449 C1455 0.950 . S
H1450 C1456 0.949 . S
C1451 H1446 0.950 . S
C1451 C1453 1.327 . S
C1451 C1457 1.429 . S
C1452 C1444 1.574 . S
C1452 H1447 0.949 . S
C1452 C1458 1.368 . S
C1453 C1437 1.349 . S
C1453 H1445 0.950 . S
C1453 C1451 1.327 . S
C1454 C1442 1.349 . S
C1454 H1448 0.950 . S
C1454 C1455 1.327 . S
C1455 H1449 0.950 . S
C1455 C1454 1.327 . S
C1455 C1459 1.429 . S
C1456 C1439 1.574 . S
C1456 H1450 0.949 . S
C1456 C1460 1.368 . S
C1457 C1438 1.429 . S
C1457 C1451 1.429 . S
C1457 C1458 1.523 . S
C1458 C1439 1.368 . S
C1458 C1452 1.368 . S
C1458 C1457 1.523 . S
C1459 C1443 1.429 . S
C1459 C1455 1.429 . S
C1459 C1460 1.523 . S
C1460 C1444 1.368 . S
C1460 C1456 1.368 . S
C1460 C1459 1.523 . S
H1461 C1436 0.950 . S
H1462 C1438 0.950 . S
H1463 C1439 0.949 . S
H1464 C1441 0.950 . S
H1465 C1443 0.950 . S
C1466 C1467 1.349 . S
C1466 C1468 1.327 . S
C1466 H1491 0.950 . S
C1467 C1466 1.349 . S
C1467 C1483 1.349 . S
C1468 C1466 1.327 . S
C1468 C1487 1.429 . S
C1468 H1492 0.950 . S
C1469 C1486 1.574 . S
C1469 C1488 1.368 . S
C1469 H1493 0.949 . S
H1470 C1474 0.949 . S
C1471 C1472 1.349 . S
C1471 C1473 1.327 . S
C1471 H1494 0.950 . S
C1472 C1471 1.349 . S
C1472 C1484 1.349 . S
C1473 C1471 1.327 . S
C1473 C1489 1.429 . S
C1473 H1495 0.950 . S
C1474 H1470 0.949 . S
C1474 C1482 1.574 . S
C1474 C1490 1.368 . S
H1475 C1483 0.950 . S
H1476 C1481 0.950 . S
H1477 C1482 0.949 . S
H1478 C1484 0.950 . S
H1479 C1485 0.950 . S
H1480 C1486 0.949 . S
C1481 H1476 0.950 . S
C1481 C1483 1.327 . S
C1481 C1487 1.429 . S
C1482 C1474 1.574 . S
C1482 H1477 0.949 . S
C1482 C1488 1.368 . S
C1483 C1467 1.349 . S
C1483 H1475 0.950 . S
C1483 C1481 1.327 . S
C1484 C1472 1.349 . S
C1484 H1478 0.950 . S
C1484 C1485 1.327 . S
C1485 H1479 0.950 . S
C1485 C1484 1.327 . S
C1485 C1489 1.429 . S
C1486 C1469 1.574 . S
C1486 H1480 0.949 . S
C1486 C1490 1.368 . S
C1487 C1468 1.429 . S
C1487 C1481 1.429 . S
C1487 C1488 1.523 . S
C1488 C1469 1.368 . S
C1488 C1482 1.368 . S
C1488 C1487 1.523 . S
C1489 C1473 1.429 . S
C1489 C1485 1.429 . S
C1489 C1490 1.523 . S
C1490 C1474 1.368 . S
C1490 C1486 1.368 . S
C1490 C1489 1.523 . S
H1491 C1466 0.950 . S
H1492 C1468 0.950 . S
H1493 C1469 0.949 . S
H1494 C1471 0.950 . S
H1495 C1473 0.950 . S
C1496 C1497 1.349 . S
C1496 C1498 1.327 . S
C1496 H1521 0.950 . S
C1497 C1496 1.349 . S
C1497 C1513 1.349 . S
C1498 C1496 1.327 . S
C1498 C1517 1.429 . S
C1498 H1522 0.950 . S
C1499 C1516 1.574 . S
C1499 C1518 1.368 . S
C1499 H1523 0.949 . S
H1500 C1504 0.951 . S
C1501 C1502 1.349 . S
C1501 C1503 1.327 . S
C1501 H1524 0.950 . S
C1502 C1501 1.349 . S
C1502 C1514 1.349 . S
C1503 C1501 1.327 . S
C1503 C1519 1.429 . S
C1503 H1525 0.950 . S
C1504 H1500 0.951 . S
C1504 C1512 1.574 . S
C1504 C1520 1.368 . S
H1505 C1513 0.950 . S
H1506 C1511 0.950 . S
H1507 C1512 0.949 . S
H1508 C1514 0.950 1_655 S
H1509 C1515 0.945 1_655 S
H1510 C1516 0.949 . S
C1511 H1506 0.950 . S
C1511 C1513 1.327 . S
C1511 C1517 1.429 . S
C1512 C1504 1.574 . S
C1512 H1507 0.949 . S
C1512 C1518 1.368 . S
C1513 C1497 1.349 . S
C1513 H1505 0.950 . S
C1513 C1511 1.327 . S
C1514 C1502 1.349 . S
C1514 H1508 0.950 1_455 S
C1514 C1515 1.327 . S
C1515 H1509 0.945 1_455 S
C1515 C1514 1.327 . S
C1515 C1519 1.429 . S
C1516 C1499 1.574 . S
C1516 H1510 0.949 . S
C1516 C1520 1.368 . S
C1517 C1498 1.429 . S
C1517 C1511 1.429 . S
C1517 C1518 1.523 . S
C1518 C1499 1.368 . S
C1518 C1512 1.368 . S
C1518 C1517 1.523 . S
C1519 C1503 1.429 . S
C1519 C1515 1.429 . S
C1519 C1520 1.523 . S
C1520 C1504 1.368 . S
C1520 C1516 1.368 . S
C1520 C1519 1.523 . S
H1521 C1496 0.950 . S
H1522 C1498 0.950 . S
H1523 C1499 0.949 . S
H1524 C1501 0.950 . S
H1525 C1503 0.950 . S
C1526 C1527 1.349 . S
C1526 C1528 1.327 . S
C1526 H1551 0.950 . S
C1527 C1526 1.349 . S
C1527 C1543 1.349 . S
C1528 C1526 1.327 . S
C1528 C1547 1.429 . S
C1528 H1552 0.950 . S
C1529 C1546 1.574 . S
C1529 C1548 1.368 . S
C1529 H1553 0.949 . S
H1530 C1534 0.949 . S
C1531 C1532 1.349 . S
C1531 C1533 1.327 . S
C1531 H1554 0.950 . S
C1532 C1531 1.349 . S
C1532 C1544 1.349 . S
C1533 C1531 1.327 . S
C1533 C1549 1.429 . S
C1533 H1555 0.950 . S
C1534 H1530 0.949 . S
C1534 C1542 1.574 . S
C1534 C1550 1.368 . S
H1535 C1543 0.950 . S
H1536 C1541 0.950 . S
H1537 C1542 0.949 . S
H1538 C1544 0.950 . S
H1539 C1545 0.950 . S
H1540 C1546 0.949 . S
C1541 H1536 0.950 . S
C1541 C1543 1.327 . S
C1541 C1547 1.429 . S
C1542 C1534 1.574 . S
C1542 H1537 0.949 . S
C1542 C1548 1.368 . S
C1543 C1527 1.349 . S
C1543 H1535 0.950 . S
C1543 C1541 1.327 . S
C1544 C1532 1.349 . S
C1544 H1538 0.950 . S
C1544 C1545 1.327 . S
C1545 H1539 0.950 . S
C1545 C1544 1.327 . S
C1545 C1549 1.429 . S
C1546 C1529 1.574 . S
C1546 H1540 0.949 . S
C1546 C1550 1.368 . S
C1547 C1528 1.429 . S
C1547 C1541 1.429 . S
C1547 C1548 1.523 . S
C1548 C1529 1.368 . S
C1548 C1542 1.368 . S
C1548 C1547 1.523 . S
C1549 C1533 1.429 . S
C1549 C1545 1.429 . S
C1549 C1550 1.523 . S
C1550 C1534 1.368 . S
C1550 C1546 1.368 . S
C1550 C1549 1.523 . S
H1551 C1526 0.950 . S
H1552 C1528 0.950 . S
H1553 C1529 0.949 . S
H1554 C1531 0.950 . S
H1555 C1533 0.950 . S
C1556 C1557 1.349 . S
C1556 C1558 1.327 . S
C1556 H1581 0.950 . S
C1557 C1556 1.349 . S
C1557 C1573 1.349 . S
C1558 C1556 1.327 . S
C1558 C1577 1.429 . S
C1558 H1582 0.950 . S
C1559 C1576 1.574 . S
C1559 C1578 1.368 . S
C1559 H1583 0.949 . S
H1560 C1564 0.949 . S
C1561 C1562 1.349 . S
C1561 C1563 1.327 . S
C1561 H1584 0.950 . S
C1562 C1561 1.349 . S
C1562 C1574 1.349 . S
C1563 C1561 1.327 . S
C1563 C1579 1.429 . S
C1563 H1585 0.950 . S
C1564 H1560 0.949 . S
C1564 C1572 1.574 . S
C1564 C1580 1.368 . S
H1565 C1573 0.950 . S
H1566 C1571 0.950 . S
H1567 C1572 0.949 . S
H1568 C1574 0.950 . S
H1569 C1575 0.950 . S
H1570 C1576 0.949 . S
C1571 H1566 0.950 . S
C1571 C1573 1.327 . S
C1571 C1577 1.429 . S
C1572 C1564 1.574 . S
C1572 H1567 0.949 . S
C1572 C1578 1.368 . S
C1573 C1557 1.349 . S
C1573 H1565 0.950 . S
C1573 C1571 1.327 . S
C1574 C1562 1.349 . S
C1574 H1568 0.950 . S
C1574 C1575 1.327 . S
C1575 H1569 0.950 . S
C1575 C1574 1.327 . S
C1575 C1579 1.429 . S
C1576 C1559 1.574 . S
C1576 H1570 0.949 . S
C1576 C1580 1.368 . S
C1577 C1558 1.429 . S
C1577 C1571 1.429 . S
C1577 C1578 1.523 . S
C1578 C1559 1.368 . S
C1578 C1572 1.368 . S
C1578 C1577 1.523 . S
C1579 C1563 1.429 . S
C1579 C1575 1.429 . S
C1579 C1580 1.523 . S
C1580 C1564 1.368 . S
C1580 C1576 1.368 . S
C1580 C1579 1.523 . S
H1581 C1556 0.950 . S
H1582 C1558 0.950 . S
H1583 C1559 0.949 . S
H1584 C1561 0.950 . S
H1585 C1563 0.950 . S
C1586 C1587 1.349 . S
C1586 C1588 1.327 . S
C1586 H1611 0.950 . S
C1587 C1586 1.349 . S
C1587 C1603 1.349 . S
C1588 C1586 1.327 . S
C1588 C1607 1.429 . S
C1588 H1612 0.950 . S
C1589 C1606 1.574 . S
C1589 C1608 1.368 . S
C1589 H1613 0.949 . S
H1590 C1594 0.949 . S
C1591 C1592 1.349 . S
C1591 C1593 1.327 . S
C1591 H1614 0.950 . S
C1592 C1591 1.349 . S
C1592 C1604 1.349 . S
C1593 C1591 1.327 . S
C1593 C1609 1.429 . S
C1593 H1615 0.950 . S
C1594 H1590 0.949 . S
C1594 C1602 1.574 . S
C1594 C1610 1.368 . S
H1595 C1603 0.950 . S
H1596 C1601 0.950 . S
H1597 C1602 0.949 . S
H1598 C1604 0.950 . S
H1599 C1605 0.950 . S
H1600 C1606 0.949 . S
C1601 H1596 0.950 . S
C1601 C1603 1.327 . S
C1601 C1607 1.429 . S
C1602 C1594 1.574 . S
C1602 H1597 0.949 . S
C1602 C1608 1.368 . S
C1603 C1587 1.349 . S
C1603 H1595 0.950 . S
C1603 C1601 1.327 . S
C1604 C1592 1.349 . S
C1604 H1598 0.950 . S
C1604 C1605 1.327 . S
C1605 H1599 0.950 . S
C1605 C1604 1.327 . S
C1605 C1609 1.429 . S
C1606 C1589 1.574 . S
C1606 H1600 0.949 . S
C1606 C1610 1.368 . S
C1607 C1588 1.429 . S
C1607 C1601 1.429 . S
C1607 C1608 1.523 . S
C1608 C1589 1.368 . S
C1608 C1602 1.368 . S
C1608 C1607 1.523 . S
C1609 C1593 1.429 . S
C1609 C1605 1.429 . S
C1609 C1610 1.523 . S
C1610 C1594 1.368 . S
C1610 C1606 1.368 . S
C1610 C1609 1.523 . S
H1611 C1586 0.950 . S
H1612 C1588 0.950 . S
H1613 C1589 0.949 . S
H1614 C1591 0.950 . S
H1615 C1593 0.950 . S
C1616 C1617 1.349 1_565 S
C1616 C1618 1.327 . S
C1616 H1641 0.950 . S
C1617 C1616 1.349 1_545 S
C1617 C1633 1.349 . S
C1618 C1616 1.327 . S
C1618 C1637 1.429 1_565 S
C1618 H1642 0.950 . S
C1619 C1636 1.574 . S
C1619 C1638 1.368 . S
C1619 H1643 0.949 . S
H1620 C1624 0.949 . S
C1621 C1622 1.349 . S
C1621 C1623 1.327 . S
C1621 H1644 0.950 . S
C1622 C1621 1.349 . S
C1622 C1634 1.349 . S
C1623 C1621 1.327 . S
C1623 C1639 1.429 . S
C1623 H1645 0.950 . S
C1624 H1620 0.949 . S
C1624 C1632 1.574 . S
C1624 C1640 1.368 1_565 S
H1625 C1633 0.950 . S
H1626 C1631 0.950 . S
H1627 C1632 0.949 . S
H1628 C1634 0.950 1_565 S
H1629 C1635 0.962 . S
H1630 C1636 0.949 . S
C1631 H1626 0.950 . S
C1631 C1633 1.327 . S
C1631 C1637 1.429 . S
C1632 C1624 1.574 . S
C1632 H1627 0.949 . S
C1632 C1638 1.368 1_565 S
C1633 C1617 1.349 . S
C1633 H1625 0.950 . S
C1633 C1631 1.327 . S
C1634 C1622 1.349 . S
C1634 H1628 0.950 1_545 S
C1634 C1635 1.325 1_545 S
C1635 H1629 0.962 . S
C1635 C1634 1.325 1_565 S
C1635 C1639 1.418 1_565 S
C1636 C1619 1.574 . S
C1636 H1630 0.949 . S
C1636 C1640 1.368 . S
C1637 C1618 1.429 1_545 S
C1637 C1631 1.429 . S
C1637 C1638 1.523 . S
C1638 C1619 1.368 . S
C1638 C1632 1.368 1_545 S
C1638 C1637 1.523 . S
C1639 C1623 1.429 . S
C1639 C1635 1.418 1_545 S
C1639 C1640 1.523 . S
C1640 C1624 1.368 1_545 S
C1640 C1636 1.368 . S
C1640 C1639 1.523 . S
H1641 C1616 0.950 . S
H1642 C1618 0.950 . S
H1643 C1619 0.949 . S
H1644 C1621 0.950 . S
H1645 C1623 0.950 . S
C1646 C1647 1.349 . S
C1646 C1648 1.327 . S
C1646 H1671 0.950 . S
C1647 C1646 1.349 . S
C1647 C1663 1.349 . S
C1648 C1646 1.327 . S
C1648 C1667 1.429 . S
C1648 H1672 0.950 . S
C1649 C1666 1.574 . S
C1649 C1668 1.368 . S
C1649 H1673 0.949 . S
H1650 C1654 0.949 . S
C1651 C1652 1.349 . S
C1651 C1653 1.327 . S
C1651 H1674 0.950 . S
C1652 C1651 1.349 . S
C1652 C1664 1.349 . S
C1653 C1651 1.327 . S
C1653 C1669 1.429 . S
C1653 H1675 0.950 . S
C1654 H1650 0.949 . S
C1654 C1662 1.574 . S
C1654 C1670 1.368 . S
H1655 C1663 0.950 . S
H1656 C1661 0.950 . S
H1657 C1662 0.949 . S
H1658 C1664 0.950 . S
H1659 C1665 0.950 . S
H1660 C1666 0.949 . S
C1661 H1656 0.950 . S
C1661 C1663 1.327 . S
C1661 C1667 1.429 . S
C1662 C1654 1.574 . S
C1662 H1657 0.949 . S
C1662 C1668 1.368 . S
C1663 C1647 1.349 . S
C1663 H1655 0.950 . S
C1663 C1661 1.327 . S
C1664 C1652 1.349 . S
C1664 H1658 0.950 . S
C1664 C1665 1.327 . S
C1665 H1659 0.950 . S
C1665 C1664 1.327 . S
C1665 C1669 1.429 . S
C1666 C1649 1.574 . S
C1666 H1660 0.949 . S
C1666 C1670 1.368 . S
C1667 C1648 1.429 . S
C1667 C1661 1.429 . S
C1667 C1668 1.523 . S
C1668 C1649 1.368 . S
C1668 C1662 1.368 . S
C1668 C1667 1.523 . S
C1669 C1653 1.429 . S
C1669 C1665 1.429 . S
C1669 C1670 1.523 . S
C1670 C1654 1.368 . S
C1670 C1666 1.368 . S
C1670 C1669 1.523 . S
H1671 C1646 0.950 . S
H1672 C1648 0.950 . S
H1673 C1649 0.949 . S
H1674 C1651 0.950 . S
H1675 C1653 0.950 . S
C1676 C1677 1.349 . S
C1676 C1678 1.327 . S
C1676 H1701 0.950 . S
C1677 C1676 1.349 . S
C1677 C1693 1.349 . S
C1678 C1676 1.327 . S
C1678 C1697 1.429 . S
C1678 H1702 0.950 . S
C1679 C1696 1.574 . S
C1679 C1698 1.368 . S
C1679 H1703 0.949 . S
H1680 C1684 0.949 . S
C1681 C1682 1.349 . S
C1681 C1683 1.327 . S
C1681 H1704 0.950 . S
C1682 C1681 1.349 . S
C1682 C1694 1.349 . S
C1683 C1681 1.327 . S
C1683 C1699 1.429 . S
C1683 H1705 0.950 . S
C1684 H1680 0.949 . S
C1684 C1692 1.574 . S
C1684 C1700 1.368 . S
H1685 C1693 0.950 . S
H1686 C1691 0.950 . S
H1687 C1692 0.949 . S
H1688 C1694 0.950 . S
H1689 C1695 0.950 . S
H1690 C1696 0.949 . S
C1691 H1686 0.950 . S
C1691 C1693 1.327 . S
C1691 C1697 1.429 . S
C1692 C1684 1.574 . S
C1692 H1687 0.949 . S
C1692 C1698 1.368 . S
C1693 C1677 1.349 . S
C1693 H1685 0.950 . S
C1693 C1691 1.327 . S
C1694 C1682 1.349 . S
C1694 H1688 0.950 . S
C1694 C1695 1.327 . S
C1695 H1689 0.950 . S
C1695 C1694 1.327 . S
C1695 C1699 1.429 . S
C1696 C1679 1.574 . S
C1696 H1690 0.949 . S
C1696 C1700 1.368 . S
C1697 C1678 1.429 . S
C1697 C1691 1.429 . S
C1697 C1698 1.523 . S
C1698 C1679 1.368 . S
C1698 C1692 1.368 . S
C1698 C1697 1.523 . S
C1699 C1683 1.429 . S
C1699 C1695 1.429 . S
C1699 C1700 1.523 . S
C1700 C1684 1.368 . S
C1700 C1696 1.368 . S
C1700 C1699 1.523 . S
H1701 C1676 0.950 . S
H1702 C1678 0.950 . S
H1703 C1679 0.949 . S
H1704 C1681 0.950 . S
H1705 C1683 0.950 . S
C1706 C1707 1.349 . S
C1706 C1708 1.327 . S
C1706 H1731 0.950 . S
C1707 C1706 1.349 . S
C1707 C1723 1.349 . S
C1708 C1706 1.327 . S
C1708 C1727 1.429 . S
C1708 H1732 0.950 . S
C1709 C1726 1.574 . S
C1709 C1728 1.368 . S
C1709 H1733 0.949 . S
H1710 C1714 0.949 . S
C1711 C1712 1.349 . S
C1711 C1713 1.327 . S
C1711 H1734 0.950 . S
C1712 C1711 1.349 . S
C1712 C1724 1.349 . S
C1713 C1711 1.327 . S
C1713 C1729 1.429 . S
C1713 H1735 0.950 . S
C1714 H1710 0.949 . S
C1714 C1722 1.574 . S
C1714 C1730 1.368 . S
H1715 C1723 0.950 . S
H1716 C1721 0.950 . S
H1717 C1722 0.949 . S
H1718 C1724 0.950 . S
H1719 C1725 0.950 . S
H1720 C1726 0.949 . S
C1721 H1716 0.950 . S
C1721 C1723 1.327 . S
C1721 C1727 1.429 . S
C1722 C1714 1.574 . S
C1722 H1717 0.949 . S
C1722 C1728 1.368 . S
C1723 C1707 1.349 . S
C1723 H1715 0.950 . S
C1723 C1721 1.327 . S
C1724 C1712 1.349 . S
C1724 H1718 0.950 . S
C1724 C1725 1.327 . S
C1725 H1719 0.950 . S
C1725 C1724 1.327 . S
C1725 C1729 1.429 . S
C1726 C1709 1.574 . S
C1726 H1720 0.949 . S
C1726 C1730 1.368 . S
C1727 C1708 1.429 . S
C1727 C1721 1.429 . S
C1727 C1728 1.523 . S
C1728 C1709 1.368 . S
C1728 C1722 1.368 . S
C1728 C1727 1.523 . S
C1729 C1713 1.429 . S
C1729 C1725 1.429 . S
C1729 C1730 1.523 . S
C1730 C1714 1.368 . S
C1730 C1726 1.368 . S
C1730 C1729 1.523 . S
H1731 C1706 0.950 . S
H1732 C1708 0.950 . S
H1733 C1709 0.949 . S
H1734 C1711 0.950 . S
H1735 C1713 0.950 . S
C1736 C1737 1.349 1_545 S
C1736 C1738 1.327 . S
C1736 H1761 0.950 . S
C1737 C1736 1.349 1_565 S
C1737 C1753 1.349 . S
C1738 C1736 1.327 . S
C1738 C1757 1.429 . S
C1738 H1762 0.950 . S
C1739 C1756 1.574 . S
C1739 C1758 1.368 1_565 S
C1739 H1763 0.949 . S
H1740 C1744 0.949 . S
C1741 C1742 1.349 . S
C1741 C1743 1.327 1_545 S
C1741 H1764 0.950 1_545 S
C1742 C1741 1.349 . S
C1742 C1754 1.349 . S
C1743 C1741 1.327 1_565 S
C1743 C1759 1.429 1_565 S
C1743 H1765 0.950 . S
C1744 H1740 0.949 . S
C1744 C1752 1.574 . S
C1744 C1760 1.368 . S
H1745 C1753 0.950 . S
H1746 C1751 0.950 . S
H1747 C1752 0.949 . S
H1748 C1754 0.950 . S
H1749 C1755 0.950 . S
H1750 C1756 0.949 . S
C1751 H1746 0.950 . S
C1751 C1753 1.327 . S
C1751 C1757 1.429 1_565 S
C1752 C1744 1.574 . S
C1752 H1747 0.949 . S
C1752 C1758 1.368 . S
C1753 C1737 1.349 . S
C1753 H1745 0.950 . S
C1753 C1751 1.327 . S
C1754 C1742 1.349 . S
C1754 H1748 0.950 . S
C1754 C1755 1.327 . S
C1755 H1749 0.950 . S
C1755 C1754 1.327 . S
C1755 C1759 1.429 . S
C1756 C1739 1.574 . S
C1756 H1750 0.949 . S
C1756 C1760 1.368 1_565 S
C1757 C1738 1.429 . S
C1757 C1751 1.429 1_545 S
C1757 C1758 1.523 . S
C1758 C1739 1.368 1_545 S
C1758 C1752 1.368 . S
C1758 C1757 1.523 . S
C1759 C1743 1.429 1_545 S
C1759 C1755 1.429 . S
C1759 C1760 1.523 . S
C1760 C1744 1.368 . S
C1760 C1756 1.368 1_545 S
C1760 C1759 1.523 . S
H1761 C1736 0.950 . S
H1762 C1738 0.950 . S
H1763 C1739 0.949 . S
H1764 C1741 0.950 1_565 S
H1765 C1743 0.950 . S
C1766 C1767 1.349 . S
C1766 C1768 1.327 . S
C1766 H1791 0.950 . S
C1767 C1766 1.349 . S
C1767 C1783 1.349 . S
C1768 C1766 1.327 . S
C1768 C1787 1.429 . S
C1768 H1792 0.950 . S
C1769 C1786 1.574 . S
C1769 C1788 1.368 . S
C1769 H1793 0.949 . S
H1770 C1774 0.949 . S
C1771 C1772 1.349 . S
C1771 C1773 1.327 . S
C1771 H1794 0.950 . S
C1772 C1771 1.349 . S
C1772 C1784 1.349 . S
C1773 C1771 1.327 . S
C1773 C1789 1.429 . S
C1773 H1795 0.950 . S
C1774 H1770 0.949 . S
C1774 C1782 1.574 . S
C1774 C1790 1.368 . S
H1775 C1783 0.950 . S
H1776 C1781 0.950 . S
H1777 C1782 0.949 . S
H1778 C1784 0.950 . S
H1779 C1785 0.950 . S
H1780 C1786 0.949 . S
C1781 H1776 0.950 . S
C1781 C1783 1.327 . S
C1781 C1787 1.429 . S
C1782 C1774 1.574 . S
C1782 H1777 0.949 . S
C1782 C1788 1.368 . S
C1783 C1767 1.349 . S
C1783 H1775 0.950 . S
C1783 C1781 1.327 . S
C1784 C1772 1.349 . S
C1784 H1778 0.950 . S
C1784 C1785 1.327 . S
C1785 H1779 0.950 . S
C1785 C1784 1.327 . S
C1785 C1789 1.429 . S
C1786 C1769 1.574 . S
C1786 H1780 0.949 . S
C1786 C1790 1.368 . S
C1787 C1768 1.429 . S
C1787 C1781 1.429 . S
C1787 C1788 1.523 . S
C1788 C1769 1.368 . S
C1788 C1782 1.368 . S
C1788 C1787 1.523 . S
C1789 C1773 1.429 . S
C1789 C1785 1.429 . S
C1789 C1790 1.523 . S
C1790 C1774 1.368 . S
C1790 C1786 1.368 . S
C1790 C1789 1.523 . S
H1791 C1766 0.950 . S
H1792 C1768 0.950 . S
H1793 C1769 0.949 . S
H1794 C1771 0.950 . S
H1795 C1773 0.950 . S
C1796 C1797 1.349 . S
C1796 C1798 1.327 . S
C1796 H1821 0.950 . S
C1797 C1796 1.349 . S
C1797 C1813 1.349 . S
C1798 C1796 1.327 . S
C1798 C1817 1.429 . S
C1798 H1822 0.950 . S
C1799 C1816 1.574 . S
C1799 C1818 1.368 . S
C1799 H1823 0.949 . S
H1800 C1804 0.949 . S
C1801 C1802 1.349 . S
C1801 C1803 1.327 . S
C1801 H1824 0.950 . S
C1802 C1801 1.349 . S
C1802 C1814 1.349 . S
C1803 C1801 1.327 . S
C1803 C1819 1.429 . S
C1803 H1825 0.950 . S
C1804 H1800 0.949 . S
C1804 C1812 1.574 . S
C1804 C1820 1.368 . S
H1805 C1813 0.950 . S
H1806 C1811 0.950 . S
H1807 C1812 0.949 . S
H1808 C1814 0.950 1_565 S
H1809 C1815 0.950 . S
H1810 C1816 0.949 . S
C1811 H1806 0.950 . S
C1811 C1813 1.327 . S
C1811 C1817 1.429 . S
C1812 C1804 1.574 . S
C1812 H1807 0.949 . S
C1812 C1818 1.368 . S
C1813 C1797 1.349 . S
C1813 H1805 0.950 . S
C1813 C1811 1.327 . S
C1814 C1802 1.349 . S
C1814 H1808 0.950 1_545 S
C1814 C1815 1.327 . S
C1815 H1809 0.950 . S
C1815 C1814 1.327 . S
C1815 C1819 1.429 . S
C1816 C1799 1.574 . S
C1816 H1810 0.949 . S
C1816 C1820 1.368 . S
C1817 C1798 1.429 . S
C1817 C1811 1.429 . S
C1817 C1818 1.523 . S
C1818 C1799 1.368 . S
C1818 C1812 1.368 . S
C1818 C1817 1.523 . S
C1819 C1803 1.429 . S
C1819 C1815 1.429 . S
C1819 C1820 1.523 . S
C1820 C1804 1.368 . S
C1820 C1816 1.368 . S
C1820 C1819 1.523 . S
H1821 C1796 0.950 . S
H1822 C1798 0.950 . S
H1823 C1799 0.949 . S
H1824 C1801 0.950 . S
H1825 C1803 0.950 . S
C1826 C1827 1.349 . S
C1826 C1828 1.327 . S
C1826 H1851 0.950 . S
C1827 C1826 1.349 . S
C1827 C1843 1.349 . S
C1828 C1826 1.327 . S
C1828 C1847 1.429 . S
C1828 H1852 0.950 . S
C1829 C1846 1.574 . S
C1829 C1848 1.368 . S
C1829 H1853 0.949 . S
H1830 C1834 0.949 . S
C1831 C1832 1.349 . S
C1831 C1833 1.327 . S
C1831 H1854 0.950 . S
C1832 C1831 1.349 . S
C1832 C1844 1.349 . S
C1833 C1831 1.327 . S
C1833 C1849 1.429 . S
C1833 H1855 0.950 . S
C1834 H1830 0.949 . S
C1834 C1842 1.574 . S
C1834 C1850 1.368 . S
H1835 C1843 0.950 . S
H1836 C1841 0.950 . S
H1837 C1842 0.949 . S
H1838 C1844 0.950 . S
H1839 C1845 0.950 . S
H1840 C1846 0.949 . S
C1841 H1836 0.950 . S
C1841 C1843 1.327 . S
C1841 C1847 1.429 . S
C1842 C1834 1.574 . S
C1842 H1837 0.949 . S
C1842 C1848 1.368 . S
C1843 C1827 1.349 . S
C1843 H1835 0.950 . S
C1843 C1841 1.327 . S
C1844 C1832 1.349 . S
C1844 H1838 0.950 . S
C1844 C1845 1.327 . S
C1845 H1839 0.950 . S
C1845 C1844 1.327 . S
C1845 C1849 1.429 . S
C1846 C1829 1.574 . S
C1846 H1840 0.949 . S
C1846 C1850 1.368 . S
C1847 C1828 1.429 . S
C1847 C1841 1.429 . S
C1847 C1848 1.523 . S
C1848 C1829 1.368 . S
C1848 C1842 1.368 . S
C1848 C1847 1.523 . S
C1849 C1833 1.429 . S
C1849 C1845 1.429 . S
C1849 C1850 1.523 . S
C1850 C1834 1.368 . S
C1850 C1846 1.368 . S
C1850 C1849 1.523 . S
H1851 C1826 0.950 . S
H1852 C1828 0.950 . S
H1853 C1829 0.949 . S
H1854 C1831 0.950 . S
H1855 C1833 0.950 . S
C1856 C1857 1.349 1_556 S
C1856 C1858 1.327 . S
C1856 H1881 0.950 . S
C1857 C1856 1.349 1_554 S
C1857 C1873 1.349 . S
C1858 C1856 1.327 . S
C1858 C1877 1.429 1_556 S
C1858 H1882 0.950 . S
C1859 C1876 1.574 . S
C1859 C1878 1.368 . S
C1859 H1883 0.949 . S
H1860 C1864 0.949 . S
C1861 C1862 1.349 . S
C1861 C1863 1.327 . S
C1861 H1884 0.950 . S
C1862 C1861 1.349 . S
C1862 C1874 1.349 1_554 S
C1863 C1861 1.327 . S
C1863 C1879 1.429 . S
C1863 H1885 0.950 . S
C1864 H1860 0.949 . S
C1864 C1872 1.574 . S
C1864 C1880 1.368 1_556 S
H1865 C1873 0.950 . S
H1866 C1871 0.950 . S
H1867 C1872 0.949 . S
H1868 C1874 0.950 . S
H1869 C1875 0.950 . S
H1870 C1876 0.949 . S
C1871 H1866 0.950 . S
C1871 C1873 1.327 . S
C1871 C1877 1.429 . S
C1872 C1864 1.574 . S
C1872 H1867 0.949 . S
C1872 C1878 1.368 1_556 S
C1873 C1857 1.349 . S
C1873 H1865 0.950 . S
C1873 C1871 1.327 . S
C1874 C1862 1.349 1_556 S
C1874 H1868 0.950 . S
C1874 C1875 1.327 . S
C1875 H1869 0.950 . S
C1875 C1874 1.327 . S
C1875 C1879 1.429 1_556 S
C1876 C1859 1.574 . S
C1876 H1870 0.949 . S
C1876 C1880 1.368 . S
C1877 C1858 1.429 1_554 S
C1877 C1871 1.429 . S
C1877 C1878 1.523 . S
C1878 C1859 1.368 . S
C1878 C1872 1.368 1_554 S
C1878 C1877 1.523 . S
C1879 C1863 1.429 . S
C1879 C1875 1.429 1_554 S
C1879 C1880 1.523 . S
C1880 C1864 1.368 1_554 S
C1880 C1876 1.368 . S
C1880 C1879 1.523 . S
H1881 C1856 0.950 . S
H1882 C1858 0.950 . S
H1883 C1859 0.949 . S
H1884 C1861 0.950 . S
H1885 C1863 0.950 . S
C1886 C1887 1.349 . S
C1886 C1888 1.327 . S
C1886 H1911 0.913 1_554 S
C1887 C1886 1.349 . S
C1887 C1903 1.349 . S
C1888 C1886 1.327 . S
C1888 C1907 1.429 . S
C1888 H1912 0.950 1_554 S
C1889 C1906 1.574 . S
C1889 C1908 1.368 . S
C1889 H1913 0.949 . S
H1890 C1894 0.949 1_556 S
C1891 C1892 1.349 . S
C1891 C1893 1.327 . S
C1891 H1914 0.950 . S
C1892 C1891 1.349 . S
C1892 C1904 1.349 . S
C1893 C1891 1.327 . S
C1893 C1909 1.429 . S
C1893 H1915 0.950 . S
C1894 H1890 0.949 1_554 S
C1894 C1902 1.574 . S
C1894 C1910 1.368 . S
H1895 C1903 0.950 . S
H1896 C1901 0.950 . S
H1897 C1902 0.949 1_556 S
H1898 C1904 0.950 1_556 S
H1899 C1905 0.950 1_556 S
H1900 C1906 0.949 . S
C1901 H1896 0.950 . S
C1901 C1903 1.327 . S
C1901 C1907 1.429 . S
C1902 C1894 1.574 . S
C1902 H1897 0.949 1_554 S
C1902 C1908 1.368 . S
C1903 C1887 1.349 . S
C1903 H1895 0.950 . S
C1903 C1901 1.327 . S
C1904 C1892 1.349 . S
C1904 H1898 0.950 1_554 S
C1904 C1905 1.327 . S
C1905 H1899 0.950 1_554 S
C1905 C1904 1.327 . S
C1905 C1909 1.429 . S
C1906 C1889 1.574 . S
C1906 H1900 0.949 . S
C1906 C1910 1.368 . S
C1907 C1888 1.429 . S
C1907 C1901 1.429 . S
C1907 C1908 1.523 . S
C1908 C1889 1.368 . S
C1908 C1902 1.368 . S
C1908 C1907 1.523 . S
C1909 C1893 1.429 . S
C1909 C1905 1.429 . S
C1909 C1910 1.523 . S
C1910 C1894 1.368 . S
C1910 C1906 1.368 . S
C1910 C1909 1.523 . S
H1911 C1886 0.913 1_556 S
H1912 C1888 0.950 1_556 S
H1913 C1889 0.949 . S
H1914 C1891 0.950 . S
H1915 C1893 0.950 . S
C1916 C1917 1.349 . S
C1916 C1918 1.327 . S
C1916 H1941 0.950 . S
C1917 C1916 1.349 . S
C1917 C1933 1.349 . S
C1918 C1916 1.327 . S
C1918 C1937 1.429 . S
C1918 H1942 0.950 . S
C1919 C1936 1.574 . S
C1919 C1938 1.368 . S
C1919 H1943 0.949 . S
H1920 C1924 0.949 . S
C1921 C1922 1.349 . S
C1921 C1923 1.327 . S
C1921 H1944 0.950 . S
C1922 C1921 1.349 . S
C1922 C1934 1.349 . S
C1923 C1921 1.327 . S
C1923 C1939 1.429 . S
C1923 H1945 0.950 . S
C1924 H1920 0.949 . S
C1924 C1932 1.574 . S
C1924 C1940 1.368 . S
H1925 C1933 0.950 . S
H1926 C1931 0.950 . S
H1927 C1932 0.949 . S
H1928 C1934 0.950 . S
H1929 C1935 0.950 . S
H1930 C1936 0.949 . S
C1931 H1926 0.950 . S
C1931 C1933 1.327 . S
C1931 C1937 1.429 . S
C1932 C1924 1.574 . S
C1932 H1927 0.949 . S
C1932 C1938 1.368 . S
C1933 C1917 1.349 . S
C1933 H1925 0.950 . S
C1933 C1931 1.327 . S
C1934 C1922 1.349 . S
C1934 H1928 0.950 . S
C1934 C1935 1.327 . S
C1935 H1929 0.950 . S
C1935 C1934 1.327 . S
C1935 C1939 1.429 . S
C1936 C1919 1.574 . S
C1936 H1930 0.949 . S
C1936 C1940 1.368 . S
C1937 C1918 1.429 . S
C1937 C1931 1.429 . S
C1937 C1938 1.523 . S
C1938 C1919 1.368 . S
C1938 C1932 1.368 . S
C1938 C1937 1.523 . S
C1939 C1923 1.429 . S
C1939 C1935 1.429 . S
C1939 C1940 1.523 . S
C1940 C1924 1.368 . S
C1940 C1936 1.368 . S
C1940 C1939 1.523 . S
H1941 C1916 0.950 . S
H1942 C1918 0.950 . S
H1943 C1919 0.949 . S
H1944 C1921 0.950 . S
H1945 C1923 0.950 . S
C1946 C1947 1.349 . S
C1946 C1948 1.327 . S
C1946 H1971 0.950 . S
C1947 C1946 1.349 . S
C1947 C1963 1.349 . S
C1948 C1946 1.327 . S
C1948 C1967 1.429 . S
C1948 H1972 0.950 . S
C1949 C1966 1.574 . S
C1949 C1968 1.368 . S
C1949 H1973 0.949 . S
H1950 C1954 0.949 . S
C1951 C1952 1.349 . S
C1951 C1953 1.327 . S
C1951 H1974 0.950 . S
C1952 C1951 1.349 . S
C1952 C1964 1.349 . S
C1953 C1951 1.327 . S
C1953 C1969 1.429 . S
C1953 H1975 0.950 . S
C1954 H1950 0.949 . S
C1954 C1962 1.574 . S
C1954 C1970 1.368 . S
H1955 C1963 0.950 . S
H1956 C1961 0.950 . S
H1957 C1962 0.949 . S
H1958 C1964 0.950 . S
H1959 C1965 0.950 . S
H1960 C1966 0.949 . S
C1961 H1956 0.950 . S
C1961 C1963 1.327 . S
C1961 C1967 1.429 . S
C1962 C1954 1.574 . S
C1962 H1957 0.949 . S
C1962 C1968 1.368 . S
C1963 C1947 1.349 . S
C1963 H1955 0.950 . S
C1963 C1961 1.327 . S
C1964 C1952 1.349 . S
C1964 H1958 0.950 . S
C1964 C1965 1.327 . S
C1965 H1959 0.950 . S
C1965 C1964 1.327 . S
C1965 C1969 1.429 . S
C1966 C1949 1.574 . S
C1966 H1960 0.949 . S
C1966 C1970 1.368 . S
C1967 C1948 1.429 . S
C1967 C1961 1.429 . S
C1967 C1968 1.523 . S
C1968 C1949 1.368 . S
C1968 C1962 1.368 . S
C1968 C1967 1.523 . S
C1969 C1953 1.429 . S
C1969 C1965 1.429 . S
C1969 C1970 1.523 . S
C1970 C1954 1.368 . S
C1970 C1966 1.368 . S
C1970 C1969 1.523 . S
H1971 C1946 0.950 . S
H1972 C1948 0.950 . S
H1973 C1949 0.949 . S
H1974 C1951 0.950 . S
H1975 C1953 0.950 . S
C1976 C1977 1.349 . S
C1976 C1978 1.327 . S
C1976 H2001 0.950 . S
C1977 C1976 1.349 . S
C1977 C1993 1.349 . S
C1978 C1976 1.327 . S
C1978 C1997 1.429 . S
C1978 H2002 0.950 . S
C1979 C1996 1.574 . S
C1979 C1998 1.368 . S
C1979 H2003 0.949 . S
H1980 C1984 0.949 . S
C1981 C1982 1.349 . S
C1981 C1983 1.327 . S
C1981 H2004 0.950 . S
C1982 C1981 1.349 . S
C1982 C1994 1.349 . S
C1983 C1981 1.327 . S
C1983 C1999 1.429 . S
C1983 H2005 0.950 . S
C1984 H1980 0.949 . S
C1984 C1992 1.574 . S
C1984 C2000 1.368 . S
H1985 C1993 0.950 . S
H1986 C1991 0.950 . S
H1987 C1992 0.949 . S
H1988 C1994 0.950 . S
H1989 C1995 0.950 . S
H1990 C1996 0.949 . S
C1991 H1986 0.950 . S
C1991 C1993 1.327 . S
C1991 C1997 1.429 . S
C1992 C1984 1.574 . S
C1992 H1987 0.949 . S
C1992 C1998 1.368 . S
C1993 C1977 1.349 . S
C1993 H1985 0.950 . S
C1993 C1991 1.327 . S
C1994 C1982 1.349 . S
C1994 H1988 0.950 . S
C1994 C1995 1.327 . S
C1995 H1989 0.950 . S
C1995 C1994 1.327 . S
C1995 C1999 1.429 . S
C1996 C1979 1.574 . S
C1996 H1990 0.949 . S
C1996 C2000 1.368 . S
C1997 C1978 1.429 . S
C1997 C1991 1.429 . S
C1997 C1998 1.523 . S
C1998 C1979 1.368 . S
C1998 C1992 1.368 . S
C1998 C1997 1.523 . S
C1999 C1983 1.429 . S
C1999 C1995 1.429 . S
C1999 C2000 1.523 . S
C2000 C1984 1.368 . S
C2000 C1996 1.368 . S
C2000 C1999 1.523 . S
H2001 C1976 0.950 . S
H2002 C1978 0.950 . S
H2003 C1979 0.949 . S
H2004 C1981 0.950 . S
H2005 C1983 0.950 . S
C2006 C2007 1.349 . S
C2006 C2008 1.327 . S
C2006 H2031 0.950 . S
C2007 C2006 1.349 . S
C2007 C2023 1.349 . S
C2008 C2006 1.327 . S
C2008 C2027 1.429 . S
C2008 H2032 0.950 . S
C2009 C2026 1.574 . S
C2009 C2028 1.368 . S
C2009 H2033 0.949 . S
H2010 C2014 0.949 . S
C2011 C2012 1.349 . S
C2011 C2013 1.327 . S
C2011 H2034 0.950 . S
C2012 C2011 1.349 . S
C2012 C2024 1.349 1_565 S
C2013 C2011 1.327 . S
C2013 C2029 1.429 . S
C2013 H2035 0.950 . S
C2014 H2010 0.949 . S
C2014 C2022 1.574 . S
C2014 C2030 1.368 . S
H2015 C2023 0.950 . S
H2016 C2021 0.950 . S
H2017 C2022 0.949 . S
H2018 C2024 0.950 . S
H2019 C2025 0.950 . S
H2020 C2026 0.949 . S
C2021 H2016 0.950 . S
C2021 C2023 1.327 . S
C2021 C2027 1.429 . S
C2022 C2014 1.574 . S
C2022 H2017 0.949 . S
C2022 C2028 1.368 . S
C2023 C2007 1.349 . S
C2023 H2015 0.950 . S
C2023 C2021 1.327 . S
C2024 C2012 1.349 1_545 S
C2024 H2018 0.950 . S
C2024 C2025 1.327 1_545 S
C2025 H2019 0.950 . S
C2025 C2024 1.327 1_565 S
C2025 C2029 1.429 . S
C2026 C2009 1.574 . S
C2026 H2020 0.949 . S
C2026 C2030 1.368 . S
C2027 C2008 1.429 . S
C2027 C2021 1.429 . S
C2027 C2028 1.523 . S
C2028 C2009 1.368 . S
C2028 C2022 1.368 . S
C2028 C2027 1.523 . S
C2029 C2013 1.429 . S
C2029 C2025 1.429 . S
C2029 C2030 1.523 . S
C2030 C2014 1.368 . S
C2030 C2026 1.368 . S
C2030 C2029 1.523 . S
H2031 C2006 0.950 . S
H2032 C2008 0.950 . S
H2033 C2009 0.949 . S
H2034 C2011 0.950 . S
H2035 C2013 0.950 . S
C2036 C2037 1.349 . S
C2036 C2038 1.327 . S
C2036 H2061 0.950 . S
C2037 C2036 1.349 . S
C2037 C2053 1.349 . S
C2038 C2036 1.327 . S
C2038 C2057 1.429 . S
C2038 H2062 0.950 . S
C2039 C2056 1.574 . S
C2039 C2058 1.368 . S
C2039 H2063 0.949 . S
H2040 C2044 0.949 . S
C2041 C2042 1.349 . S
C2041 C2043 1.327 . S
C2041 H2064 0.950 . S
C2042 C2041 1.349 . S
C2042 C2054 1.349 . S
C2043 C2041 1.327 . S
C2043 C2059 1.429 . S
C2043 H2065 0.950 . S
C2044 H2040 0.949 . S
C2044 C2052 1.574 . S
C2044 C2060 1.368 . S
H2045 C2053 0.950 . S
H2046 C2051 0.950 . S
H2047 C2052 0.949 . S
H2048 C2054 0.950 . S
H2049 C2055 0.950 . S
H2050 C2056 0.949 . S
C2051 H2046 0.950 . S
C2051 C2053 1.327 . S
C2051 C2057 1.429 . S
C2052 C2044 1.574 . S
C2052 H2047 0.949 . S
C2052 C2058 1.368 . S
C2053 C2037 1.349 . S
C2053 H2045 0.950 . S
C2053 C2051 1.327 . S
C2054 C2042 1.349 . S
C2054 H2048 0.950 . S
C2054 C2055 1.327 . S
C2055 H2049 0.950 . S
C2055 C2054 1.327 . S
C2055 C2059 1.429 . S
C2056 C2039 1.574 . S
C2056 H2050 0.949 . S
C2056 C2060 1.368 . S
C2057 C2038 1.429 . S
C2057 C2051 1.429 . S
C2057 C2058 1.523 . S
C2058 C2039 1.368 . S
C2058 C2052 1.368 . S
C2058 C2057 1.523 . S
C2059 C2043 1.429 . S
C2059 C2055 1.429 . S
C2059 C2060 1.523 . S
C2060 C2044 1.368 . S
C2060 C2056 1.368 . S
C2060 C2059 1.523 . S
H2061 C2036 0.950 . S
H2062 C2038 0.950 . S
H2063 C2039 0.949 . S
H2064 C2041 0.950 . S
H2065 C2043 0.950 . S
C2066 C2067 1.349 . S
C2066 C2068 1.327 . S
C2066 H2091 0.950 . S
C2067 C2066 1.349 . S
C2067 C2083 1.349 . S
C2068 C2066 1.327 . S
C2068 C2087 1.429 . S
C2068 H2092 0.950 . S
C2069 C2086 1.574 . S
C2069 C2088 1.368 . S
C2069 H2093 0.949 . S
H2070 C2074 0.949 . S
C2071 C2072 1.349 . S
C2071 C2073 1.327 . S
C2071 H2094 0.950 . S
C2072 C2071 1.349 . S
C2072 C2084 1.349 . S
C2073 C2071 1.327 . S
C2073 C2089 1.429 . S
C2073 H2095 0.950 . S
C2074 H2070 0.949 . S
C2074 C2082 1.574 . S
C2074 C2090 1.368 . S
H2075 C2083 0.950 . S
H2076 C2081 0.950 . S
H2077 C2082 0.949 . S
H2078 C2084 0.950 . S
H2079 C2085 0.950 . S
H2080 C2086 0.949 . S
C2081 H2076 0.950 . S
C2081 C2083 1.327 . S
C2081 C2087 1.429 . S
C2082 C2074 1.574 . S
C2082 H2077 0.949 . S
C2082 C2088 1.368 . S
C2083 C2067 1.349 . S
C2083 H2075 0.950 . S
C2083 C2081 1.327 . S
C2084 C2072 1.349 . S
C2084 H2078 0.950 . S
C2084 C2085 1.327 . S
C2085 H2079 0.950 . S
C2085 C2084 1.327 . S
C2085 C2089 1.429 . S
C2086 C2069 1.574 . S
C2086 H2080 0.949 . S
C2086 C2090 1.368 . S
C2087 C2068 1.429 . S
C2087 C2081 1.429 . S
C2087 C2088 1.523 . S
C2088 C2069 1.368 . S
C2088 C2082 1.368 . S
C2088 C2087 1.523 . S
C2089 C2073 1.429 . S
C2089 C2085 1.429 . S
C2089 C2090 1.523 . S
C2090 C2074 1.368 . S
C2090 C2086 1.368 . S
C2090 C2089 1.523 . S
H2091 C2066 0.950 . S
H2092 C2068 0.950 . S
H2093 C2069 0.949 . S
H2094 C2071 0.950 . S
H2095 C2073 0.950 . S
C2096 C2097 1.349 . S
C2096 C2098 1.327 . S
C2096 H2121 0.950 . S
C2097 C2096 1.349 . S
C2097 C2113 1.349 . S
C2098 C2096 1.327 . S
C2098 C2117 1.429 . S
C2098 H2122 0.950 . S
C2099 C2116 1.574 . S
C2099 C2118 1.368 . S
C2099 H2123 0.949 . S
H2100 C2104 0.949 . S
C2101 C2102 1.349 . S
C2101 C2103 1.327 . S
C2101 H2124 0.950 . S
C2102 C2101 1.349 . S
C2102 C2114 1.349 . S
C2103 C2101 1.327 . S
C2103 C2119 1.429 . S
C2103 H2125 0.950 . S
C2104 H2100 0.949 . S
C2104 C2112 1.574 . S
C2104 C2120 1.368 . S
H2105 C2113 0.950 . S
H2106 C2111 0.950 . S
H2107 C2112 0.949 . S
H2108 C2114 0.950 . S
H2109 C2115 0.950 . S
H2110 C2116 0.949 . S
C2111 H2106 0.950 . S
C2111 C2113 1.327 . S
C2111 C2117 1.429 . S
C2112 C2104 1.574 . S
C2112 H2107 0.949 . S
C2112 C2118 1.368 . S
C2113 C2097 1.349 . S
C2113 H2105 0.950 . S
C2113 C2111 1.327 . S
C2114 C2102 1.349 . S
C2114 H2108 0.950 . S
C2114 C2115 1.327 . S
C2115 H2109 0.950 . S
C2115 C2114 1.327 . S
C2115 C2119 1.429 . S
C2116 C2099 1.574 . S
C2116 H2110 0.949 . S
C2116 C2120 1.368 . S
C2117 C2098 1.429 . S
C2117 C2111 1.429 . S
C2117 C2118 1.523 . S
C2118 C2099 1.368 . S
C2118 C2112 1.368 . S
C2118 C2117 1.523 . S
C2119 C2103 1.429 . S
C2119 C2115 1.429 . S
C2119 C2120 1.523 . S
C2120 C2104 1.368 . S
C2120 C2116 1.368 . S
C2120 C2119 1.523 . S
H2121 C2096 0.950 . S
H2122 C2098 0.950 . S
H2123 C2099 0.949 . S
H2124 C2101 0.950 . S
H2125 C2103 0.950 . S
C2126 C2127 1.349 . S
C2126 C2128 1.327 . S
C2126 H2151 0.950 . S
C2127 C2126 1.349 . S
C2127 C2143 1.349 . S
C2128 C2126 1.327 . S
C2128 C2147 1.429 . S
C2128 H2152 0.950 . S
C2129 C2146 1.574 . S
C2129 C2148 1.368 . S
C2129 H2153 0.949 . S
H2130 C2134 0.949 . S
C2131 C2132 1.349 . S
C2131 C2133 1.327 . S
C2131 H2154 0.950 . S
C2132 C2131 1.349 . S
C2132 C2144 1.349 . S
C2133 C2131 1.327 . S
C2133 C2149 1.429 . S
C2133 H2155 0.950 . S
C2134 H2130 0.949 . S
C2134 C2142 1.574 . S
C2134 C2150 1.368 . S
H2135 C2143 0.950 . S
H2136 C2141 0.950 . S
H2137 C2142 0.949 . S
H2138 C2144 0.950 . S
H2139 C2145 0.950 . S
H2140 C2146 0.949 . S
C2141 H2136 0.950 . S
C2141 C2143 1.327 . S
C2141 C2147 1.429 . S
C2142 C2134 1.574 . S
C2142 H2137 0.949 . S
C2142 C2148 1.368 . S
C2143 C2127 1.349 . S
C2143 H2135 0.950 . S
C2143 C2141 1.327 . S
C2144 C2132 1.349 . S
C2144 H2138 0.950 . S
C2144 C2145 1.327 . S
C2145 H2139 0.950 . S
C2145 C2144 1.327 . S
C2145 C2149 1.429 . S
C2146 C2129 1.574 . S
C2146 H2140 0.949 . S
C2146 C2150 1.368 . S
C2147 C2128 1.429 . S
C2147 C2141 1.429 . S
C2147 C2148 1.523 . S
C2148 C2129 1.368 . S
C2148 C2142 1.368 . S
C2148 C2147 1.523 . S
C2149 C2133 1.429 . S
C2149 C2145 1.429 . S
C2149 C2150 1.523 . S
C2150 C2134 1.368 . S
C2150 C2146 1.368 . S
C2150 C2149 1.523 . S
H2151 C2126 0.950 . S
H2152 C2128 0.950 . S
H2153 C2129 0.949 . S
H2154 C2131 0.950 . S
H2155 C2133 0.950 . S
C2156 C2157 1.349 . S
C2156 C2158 1.327 . S
C2156 H2181 0.950 . S
C2157 C2156 1.349 . S
C2157 C2173 1.349 . S
C2158 C2156 1.327 . S
C2158 C2177 1.429 . S
C2158 H2182 0.950 . S
C2159 C2176 1.573 . S
C2159 C2178 1.368 . S
C2159 H2183 0.949 1_455 S
H2160 C2164 0.949 . S
C2161 C2162 1.349 1_655 S
C2161 C2163 1.327 . S
C2161 H2184 0.950 . S
C2162 C2161 1.349 1_455 S
C2162 C2174 1.349 1_556 S
C2163 C2161 1.327 . S
C2163 C2179 1.429 1_655 S
C2163 H2185 0.950 . S
C2164 H2160 0.949 . S
C2164 C2172 1.574 . S
C2164 C2180 1.368 . S
H2165 C2173 0.940 1_655 S
H2166 C2171 0.950 1_655 S
H2167 C2172 0.949 . S
H2168 C2174 0.950 . S
H2169 C2175 0.950 1_554 S
H2170 C2176 0.951 1_655 S
C2171 H2166 0.950 1_455 S
C2171 C2173 1.327 . S
C2171 C2177 1.429 . S
C2172 C2164 1.574 . S
C2172 H2167 0.949 . S
C2172 C2178 1.368 . S
C2173 C2157 1.349 . S
C2173 H2165 0.940 1_455 S
C2173 C2171 1.327 . S
C2174 C2162 1.349 1_554 S
C2174 H2168 0.950 . S
C2174 C2175 1.327 1_554 S
C2175 H2169 0.950 1_556 S
C2175 C2174 1.327 1_556 S
C2175 C2179 1.429 . S
C2176 C2159 1.573 . S
C2176 H2170 0.951 1_455 S
C2176 C2180 1.367 . S
C2177 C2158 1.429 . S
C2177 C2171 1.429 . S
C2177 C2178 1.523 . S
C2178 C2159 1.368 . S
C2178 C2172 1.368 . S
C2178 C2177 1.523 . S
C2179 C2163 1.429 1_455 S
C2179 C2175 1.429 . S
C2179 C2180 1.523 . S
C2180 C2164 1.368 . S
C2180 C2176 1.367 . S
C2180 C2179 1.523 . S
H2181 C2156 0.950 . S
H2182 C2158 0.950 . S
H2183 C2159 0.949 1_655 S
H2184 C2161 0.950 . S
H2185 C2163 0.950 . S
C2186 C2187 1.349 . S
C2186 C2188 1.327 . S
C2186 H2211 0.950 . S
C2187 C2186 1.349 . S
C2187 C2203 1.349 . S
C2188 C2186 1.327 . S
C2188 C2207 1.429 . S
C2188 H2212 0.950 . S
C2189 C2206 1.574 . S
C2189 C2208 1.368 . S
C2189 H2213 0.949 . S
H2190 C2194 0.949 . S
C2191 C2192 1.349 . S
C2191 C2193 1.327 . S
C2191 H2214 0.950 . S
C2192 C2191 1.349 . S
C2192 C2204 1.349 . S
C2193 C2191 1.327 . S
C2193 C2209 1.429 . S
C2193 H2215 0.950 . S
C2194 H2190 0.949 . S
C2194 C2202 1.574 . S
C2194 C2210 1.368 . S
H2195 C2203 0.950 . S
H2196 C2201 0.950 . S
H2197 C2202 0.949 . S
H2198 C2204 0.950 . S
H2199 C2205 0.950 . S
H2200 C2206 0.949 . S
C2201 H2196 0.950 . S
C2201 C2203 1.327 . S
C2201 C2207 1.429 . S
C2202 C2194 1.574 . S
C2202 H2197 0.949 . S
C2202 C2208 1.368 . S
C2203 C2187 1.349 . S
C2203 H2195 0.950 . S
C2203 C2201 1.327 . S
C2204 C2192 1.349 . S
C2204 H2198 0.950 . S
C2204 C2205 1.327 . S
C2205 H2199 0.950 . S
C2205 C2204 1.327 . S
C2205 C2209 1.429 . S
C2206 C2189 1.574 . S
C2206 H2200 0.949 . S
C2206 C2210 1.368 . S
C2207 C2188 1.429 . S
C2207 C2201 1.429 . S
C2207 C2208 1.523 . S
C2208 C2189 1.368 . S
C2208 C2202 1.368 . S
C2208 C2207 1.523 . S
C2209 C2193 1.429 . S
C2209 C2205 1.429 . S
C2209 C2210 1.523 . S
C2210 C2194 1.368 . S
C2210 C2206 1.368 . S
C2210 C2209 1.523 . S
H2211 C2186 0.950 . S
H2212 C2188 0.950 . S
H2213 C2189 0.949 . S
H2214 C2191 0.950 . S
H2215 C2193 0.950 . S
C2216 C2217 1.349 . S
C2216 C2218 1.327 . S
C2216 H2241 0.950 . S
C2217 C2216 1.349 . S
C2217 C2233 1.349 . S
C2218 C2216 1.327 . S
C2218 C2237 1.429 . S
C2218 H2242 0.950 . S
C2219 C2236 1.574 . S
C2219 C2238 1.368 . S
C2219 H2243 0.949 . S
H2220 C2224 0.949 . S
C2221 C2222 1.349 . S
C2221 C2223 1.327 . S
C2221 H2244 0.950 . S
C2222 C2221 1.349 . S
C2222 C2234 1.349 . S
C2223 C2221 1.327 . S
C2223 C2239 1.429 . S
C2223 H2245 0.950 . S
C2224 H2220 0.949 . S
C2224 C2232 1.574 . S
C2224 C2240 1.368 . S
H2225 C2233 0.950 . S
H2226 C2231 0.950 . S
H2227 C2232 0.949 . S
H2228 C2234 0.950 . S
H2229 C2235 0.950 . S
H2230 C2236 0.949 . S
C2231 H2226 0.950 . S
C2231 C2233 1.327 . S
C2231 C2237 1.429 . S
C2232 C2224 1.574 . S
C2232 H2227 0.949 . S
C2232 C2238 1.368 . S
C2233 C2217 1.349 . S
C2233 H2225 0.950 . S
C2233 C2231 1.327 . S
C2234 C2222 1.349 . S
C2234 H2228 0.950 . S
C2234 C2235 1.327 . S
C2235 H2229 0.950 . S
C2235 C2234 1.327 . S
C2235 C2239 1.429 . S
C2236 C2219 1.574 . S
C2236 H2230 0.949 . S
C2236 C2240 1.368 . S
C2237 C2218 1.429 . S
C2237 C2231 1.429 . S
C2237 C2238 1.523 . S
C2238 C2219 1.368 . S
C2238 C2232 1.368 . S
C2238 C2237 1.523 . S
C2239 C2223 1.429 . S
C2239 C2235 1.429 . S
C2239 C2240 1.523 . S
C2240 C2224 1.368 . S
C2240 C2236 1.368 . S
C2240 C2239 1.523 . S
H2241 C2216 0.950 . S
H2242 C2218 0.950 . S
H2243 C2219 0.949 . S
H2244 C2221 0.950 . S
H2245 C2223 0.950 . S
C2246 C2247 1.349 . S
C2246 C2248 1.327 . S
C2246 H2271 0.950 . S
C2247 C2246 1.349 . S
C2247 C2263 1.349 . S
C2248 C2246 1.327 . S
C2248 C2267 1.429 . S
C2248 H2272 0.950 . S
C2249 C2266 1.574 . S
C2249 C2268 1.368 . S
C2249 H2273 0.949 . S
H2250 C2254 0.949 . S
C2251 C2252 1.349 . S
C2251 C2253 1.327 . S
C2251 H2274 0.950 . S
C2252 C2251 1.349 . S
C2252 C2264 1.349 . S
C2253 C2251 1.327 . S
C2253 C2269 1.429 . S
C2253 H2275 0.950 . S
C2254 H2250 0.949 . S
C2254 C2262 1.574 . S
C2254 C2270 1.368 . S
H2255 C2263 0.950 . S
H2256 C2261 0.950 . S
H2257 C2262 0.949 . S
H2258 C2264 0.950 . S
H2259 C2265 0.950 . S
H2260 C2266 0.949 . S
C2261 H2256 0.950 . S
C2261 C2263 1.327 . S
C2261 C2267 1.429 . S
C2262 C2254 1.574 . S
C2262 H2257 0.949 . S
C2262 C2268 1.368 . S
C2263 C2247 1.349 . S
C2263 H2255 0.950 . S
C2263 C2261 1.327 . S
C2264 C2252 1.349 . S
C2264 H2258 0.950 . S
C2264 C2265 1.327 . S
C2265 H2259 0.950 . S
C2265 C2264 1.327 . S
C2265 C2269 1.429 . S
C2266 C2249 1.574 . S
C2266 H2260 0.949 . S
C2266 C2270 1.368 . S
C2267 C2248 1.429 . S
C2267 C2261 1.429 . S
C2267 C2268 1.523 . S
C2268 C2249 1.368 . S
C2268 C2262 1.368 . S
C2268 C2267 1.523 . S
C2269 C2253 1.429 . S
C2269 C2265 1.429 . S
C2269 C2270 1.523 . S
C2270 C2254 1.368 . S
C2270 C2266 1.368 . S
C2270 C2269 1.523 . S
H2271 C2246 0.950 . S
H2272 C2248 0.950 . S
H2273 C2249 0.949 . S
H2274 C2251 0.950 . S
H2275 C2253 0.950 . S
C2276 C2277 1.349 . S
C2276 C2278 1.327 . S
C2276 H2301 0.950 . S
C2277 C2276 1.349 . S
C2277 C2293 1.349 1_655 S
C2278 C2276 1.327 . S
C2278 C2297 1.429 . S
C2278 H2302 0.950 . S
C2279 C2296 1.574 . S
C2279 C2298 1.368 1_455 S
C2279 H2303 0.949 . S
H2280 C2284 0.949 . S
C2281 C2282 1.347 1_455 S
C2281 C2283 1.327 . S
C2281 H2304 0.950 . S
C2282 C2281 1.347 1_655 S
C2282 C2294 1.351 . S
C2283 C2281 1.327 . S
C2283 C2299 1.429 1_455 S
C2283 H2305 0.950 . S
C2284 H2280 0.949 . S
C2284 C2292 1.574 . S
C2284 C2300 1.368 . S
H2285 C2293 0.950 . S
H2286 C2291 0.950 . S
H2287 C2292 0.949 . S
H2288 C2294 0.950 . S
H2289 C2295 0.950 . S
H2290 C2296 0.949 . S
C2291 H2286 0.950 . S
C2291 C2293 1.327 . S
C2291 C2297 1.429 1_455 S
C2292 C2284 1.574 . S
C2292 H2287 0.949 . S
C2292 C2298 1.368 . S
C2293 C2277 1.349 1_455 S
C2293 H2285 0.950 . S
C2293 C2291 1.327 . S
C2294 C2282 1.351 . S
C2294 H2288 0.950 . S
C2294 C2295 1.327 . S
C2295 H2289 0.950 . S
C2295 C2294 1.327 . S
C2295 C2299 1.429 . S
C2296 C2279 1.574 . S
C2296 H2290 0.949 . S
C2296 C2300 1.368 1_455 S
C2297 C2278 1.429 . S
C2297 C2291 1.429 1_655 S
C2297 C2298 1.523 . S
C2298 C2279 1.368 1_655 S
C2298 C2292 1.368 . S
C2298 C2297 1.523 . S
C2299 C2283 1.429 1_655 S
C2299 C2295 1.429 . S
C2299 C2300 1.523 . S
C2300 C2284 1.368 . S
C2300 C2296 1.368 1_655 S
C2300 C2299 1.523 . S
H2301 C2276 0.950 . S
H2302 C2278 0.950 . S
H2303 C2279 0.949 . S
H2304 C2281 0.950 . S
H2305 C2283 0.950 . S
C2306 C2307 1.349 . S
C2306 C2308 1.327 . S
C2306 H2331 0.950 . S
C2307 C2306 1.349 . S
C2307 C2323 1.349 . S
C2308 C2306 1.327 . S
C2308 C2327 1.429 . S
C2308 H2332 0.950 . S
C2309 C2326 1.574 . S
C2309 C2328 1.368 . S
C2309 H2333 0.949 . S
H2310 C2314 0.949 . S
C2311 C2312 1.349 . S
C2311 C2313 1.327 . S
C2311 H2334 0.950 . S
C2312 C2311 1.349 . S
C2312 C2324 1.349 . S
C2313 C2311 1.327 . S
C2313 C2329 1.429 . S
C2313 H2335 0.950 . S
C2314 H2310 0.949 . S
C2314 C2322 1.574 . S
C2314 C2330 1.368 . S
H2315 C2323 0.950 . S
H2316 C2321 0.950 . S
H2317 C2322 0.949 . S
H2318 C2324 0.950 . S
H2319 C2325 0.950 . S
H2320 C2326 0.949 . S
C2321 H2316 0.950 . S
C2321 C2323 1.327 . S
C2321 C2327 1.429 . S
C2322 C2314 1.574 . S
C2322 H2317 0.949 . S
C2322 C2328 1.368 . S
C2323 C2307 1.349 . S
C2323 H2315 0.950 . S
C2323 C2321 1.327 . S
C2324 C2312 1.349 . S
C2324 H2318 0.950 . S
C2324 C2325 1.327 . S
C2325 H2319 0.950 . S
C2325 C2324 1.327 . S
C2325 C2329 1.429 . S
C2326 C2309 1.574 . S
C2326 H2320 0.949 . S
C2326 C2330 1.368 . S
C2327 C2308 1.429 . S
C2327 C2321 1.429 . S
C2327 C2328 1.523 . S
C2328 C2309 1.368 . S
C2328 C2322 1.368 . S
C2328 C2327 1.523 . S
C2329 C2313 1.429 . S
C2329 C2325 1.429 . S
C2329 C2330 1.523 . S
C2330 C2314 1.368 . S
C2330 C2326 1.368 . S
C2330 C2329 1.523 . S
H2331 C2306 0.950 . S
H2332 C2308 0.950 . S
H2333 C2309 0.949 . S
H2334 C2311 0.950 . S
H2335 C2313 0.950 . S
C2336 C2337 1.349 . S
C2336 C2338 1.327 . S
C2336 H2361 0.950 . S
C2337 C2336 1.349 . S
C2337 C2353 1.349 . S
C2338 C2336 1.327 . S
C2338 C2357 1.429 . S
C2338 H2362 0.950 . S
C2339 C2356 1.574 . S
C2339 C2358 1.368 . S
C2339 H2363 0.949 . S
H2340 C2344 0.949 . S
C2341 C2342 1.349 . S
C2341 C2343 1.327 . S
C2341 H2364 0.950 . S
C2342 C2341 1.349 . S
C2342 C2354 1.349 . S
C2343 C2341 1.327 . S
C2343 C2359 1.429 . S
C2343 H2365 0.950 . S
C2344 H2340 0.949 . S
C2344 C2352 1.574 . S
C2344 C2360 1.368 . S
H2345 C2353 0.950 . S
H2346 C2351 0.950 . S
H2347 C2352 0.949 . S
H2348 C2354 0.950 . S
H2349 C2355 0.950 . S
H2350 C2356 0.949 . S
C2351 H2346 0.950 . S
C2351 C2353 1.327 . S
C2351 C2357 1.429 . S
C2352 C2344 1.574 . S
C2352 H2347 0.949 . S
C2352 C2358 1.368 . S
C2353 C2337 1.349 . S
C2353 H2345 0.950 . S
C2353 C2351 1.327 . S
C2354 C2342 1.349 . S
C2354 H2348 0.950 . S
C2354 C2355 1.327 . S
C2355 H2349 0.950 . S
C2355 C2354 1.327 . S
C2355 C2359 1.429 . S
C2356 C2339 1.574 . S
C2356 H2350 0.949 . S
C2356 C2360 1.368 . S
C2357 C2338 1.429 . S
C2357 C2351 1.429 . S
C2357 C2358 1.523 . S
C2358 C2339 1.368 . S
C2358 C2352 1.368 . S
C2358 C2357 1.523 . S
C2359 C2343 1.429 . S
C2359 C2355 1.429 . S
C2359 C2360 1.523 . S
C2360 C2344 1.368 . S
C2360 C2356 1.368 . S
C2360 C2359 1.523 . S
H2361 C2336 0.950 . S
H2362 C2338 0.950 . S
H2363 C2339 0.949 . S
H2364 C2341 0.950 . S
H2365 C2343 0.950 . S
C2366 C2367 1.349 . S
C2366 C2368 1.327 . S
C2366 H2391 0.950 . S
C2367 C2366 1.349 . S
C2367 C2383 1.349 . S
C2368 C2366 1.327 . S
C2368 C2387 1.429 . S
C2368 H2392 0.950 . S
C2369 C2386 1.574 . S
C2369 C2388 1.368 . S
C2369 H2393 0.949 . S
H2370 C2374 0.949 . S
C2371 C2372 1.349 . S
C2371 C2373 1.327 . S
C2371 H2394 0.950 . S
C2372 C2371 1.349 . S
C2372 C2384 1.349 . S
C2373 C2371 1.327 . S
C2373 C2389 1.429 . S
C2373 H2395 0.950 . S
C2374 H2370 0.949 . S
C2374 C2382 1.574 . S
C2374 C2390 1.368 . S
H2375 C2383 0.950 . S
H2376 C2381 0.950 . S
H2377 C2382 0.949 . S
H2378 C2384 0.950 . S
H2379 C2385 0.950 . S
H2380 C2386 0.949 . S
C2381 H2376 0.950 . S
C2381 C2383 1.327 . S
C2381 C2387 1.429 . S
C2382 C2374 1.574 . S
C2382 H2377 0.949 . S
C2382 C2388 1.368 . S
C2383 C2367 1.349 . S
C2383 H2375 0.950 . S
C2383 C2381 1.327 . S
C2384 C2372 1.349 . S
C2384 H2378 0.950 . S
C2384 C2385 1.327 . S
C2385 H2379 0.950 . S
C2385 C2384 1.327 . S
C2385 C2389 1.429 . S
C2386 C2369 1.574 . S
C2386 H2380 0.949 . S
C2386 C2390 1.368 . S
C2387 C2368 1.429 . S
C2387 C2381 1.429 . S
C2387 C2388 1.523 . S
C2388 C2369 1.368 . S
C2388 C2382 1.368 . S
C2388 C2387 1.523 . S
C2389 C2373 1.429 . S
C2389 C2385 1.429 . S
C2389 C2390 1.523 . S
C2390 C2374 1.368 . S
C2390 C2386 1.368 . S
C2390 C2389 1.523 . S
H2391 C2366 0.950 . S
H2392 C2368 0.950 . S
H2393 C2369 0.949 . S
H2394 C2371 0.950 . S
H2395 C2373 0.950 . S
C2396 C2397 1.349 . S
C2396 C2398 1.327 . S
C2396 H2421 0.950 . S
C2397 C2396 1.349 . S
C2397 C2413 1.349 . S
C2398 C2396 1.327 . S
C2398 C2417 1.429 . S
C2398 H2422 0.950 . S
C2399 C2416 1.574 . S
C2399 C2418 1.368 . S
C2399 H2423 0.949 . S
H2400 C2404 0.949 . S
C2401 C2402 1.349 . S
C2401 C2403 1.327 . S
C2401 H2424 0.950 . S
C2402 C2401 1.349 . S
C2402 C2414 1.349 . S
C2403 C2401 1.327 . S
C2403 C2419 1.429 . S
C2403 H2425 0.950 . S
C2404 H2400 0.949 . S
C2404 C2412 1.574 . S
C2404 C2420 1.368 . S
H2405 C2413 0.950 . S
H2406 C2411 0.950 . S
H2407 C2412 0.949 . S
H2408 C2414 0.950 . S
H2409 C2415 0.950 . S
H2410 C2416 0.949 . S
C2411 H2406 0.950 . S
C2411 C2413 1.327 . S
C2411 C2417 1.429 . S
C2412 C2404 1.574 . S
C2412 H2407 0.949 . S
C2412 C2418 1.368 . S
C2413 C2397 1.349 . S
C2413 H2405 0.950 . S
C2413 C2411 1.327 . S
C2414 C2402 1.349 . S
C2414 H2408 0.950 . S
C2414 C2415 1.327 . S
C2415 H2409 0.950 . S
C2415 C2414 1.327 . S
C2415 C2419 1.429 . S
C2416 C2399 1.574 . S
C2416 H2410 0.949 . S
C2416 C2420 1.368 . S
C2417 C2398 1.429 . S
C2417 C2411 1.429 . S
C2417 C2418 1.523 . S
C2418 C2399 1.368 . S
C2418 C2412 1.368 . S
C2418 C2417 1.523 . S
C2419 C2403 1.429 . S
C2419 C2415 1.429 . S
C2419 C2420 1.523 . S
C2420 C2404 1.368 . S
C2420 C2416 1.368 . S
C2420 C2419 1.523 . S
H2421 C2396 0.950 . S
H2422 C2398 0.950 . S
H2423 C2399 0.949 . S
H2424 C2401 0.950 . S
H2425 C2403 0.950 . S
C2426 C2427 1.349 . S
C2426 C2428 1.327 . S
C2426 H2451 0.950 . S
C2427 C2426 1.349 . S
C2427 C2443 1.349 . S
C2428 C2426 1.327 . S
C2428 C2447 1.429 . S
C2428 H2452 0.950 . S
C2429 C2446 1.574 . S
C2429 C2448 1.368 . S
C2429 H2453 0.949 . S
H2430 C2434 0.949 . S
C2431 C2432 1.349 . S
C2431 C2433 1.327 . S
C2431 H2454 0.950 . S
C2432 C2431 1.349 . S
C2432 C2444 1.349 . S
C2433 C2431 1.327 . S
C2433 C2449 1.429 . S
C2433 H2455 0.950 . S
C2434 H2430 0.949 . S
C2434 C2442 1.574 . S
C2434 C2450 1.368 . S
H2435 C2443 0.950 . S
H2436 C2441 0.950 . S
H2437 C2442 0.949 . S
H2438 C2444 0.950 . S
H2439 C2445 0.950 . S
H2440 C2446 0.949 . S
C2441 H2436 0.950 . S
C2441 C2443 1.327 . S
C2441 C2447 1.429 . S
C2442 C2434 1.574 . S
C2442 H2437 0.949 . S
C2442 C2448 1.368 . S
C2443 C2427 1.349 . S
C2443 H2435 0.950 . S
C2443 C2441 1.327 . S
C2444 C2432 1.349 . S
C2444 H2438 0.950 . S
C2444 C2445 1.327 . S
C2445 H2439 0.950 . S
C2445 C2444 1.327 . S
C2445 C2449 1.429 . S
C2446 C2429 1.574 . S
C2446 H2440 0.949 . S
C2446 C2450 1.368 . S
C2447 C2428 1.429 . S
C2447 C2441 1.429 . S
C2447 C2448 1.523 . S
C2448 C2429 1.368 . S
C2448 C2442 1.368 . S
C2448 C2447 1.523 . S
C2449 C2433 1.429 . S
C2449 C2445 1.429 . S
C2449 C2450 1.523 . S
C2450 C2434 1.368 . S
C2450 C2446 1.368 . S
C2450 C2449 1.523 . S
H2451 C2426 0.950 . S
H2452 C2428 0.950 . S
H2453 C2429 0.949 . S
H2454 C2431 0.950 . S
H2455 C2433 0.950 . S
C2456 C2457 1.349 . S
C2456 C2458 1.327 . S
C2456 H2481 0.950 . S
C2457 C2456 1.349 . S
C2457 C2473 1.349 . S
C2458 C2456 1.327 . S
C2458 C2477 1.429 . S
C2458 H2482 0.950 . S
C2459 C2476 1.574 . S
C2459 C2478 1.368 . S
C2459 H2483 0.949 . S
H2460 C2464 0.949 . S
C2461 C2462 1.349 . S
C2461 C2463 1.327 . S
C2461 H2484 0.950 . S
C2462 C2461 1.349 . S
C2462 C2474 1.349 . S
C2463 C2461 1.327 . S
C2463 C2479 1.429 . S
C2463 H2485 0.950 . S
C2464 H2460 0.949 . S
C2464 C2472 1.574 . S
C2464 C2480 1.368 . S
H2465 C2473 0.950 . S
H2466 C2471 0.950 . S
H2467 C2472 0.949 . S
H2468 C2474 0.950 . S
H2469 C2475 0.950 . S
H2470 C2476 0.949 . S
C2471 H2466 0.950 . S
C2471 C2473 1.327 . S
C2471 C2477 1.429 . S
C2472 C2464 1.574 . S
C2472 H2467 0.949 . S
C2472 C2478 1.368 . S
C2473 C2457 1.349 . S
C2473 H2465 0.950 . S
C2473 C2471 1.327 . S
C2474 C2462 1.349 . S
C2474 H2468 0.950 . S
C2474 C2475 1.327 . S
C2475 H2469 0.950 . S
C2475 C2474 1.327 . S
C2475 C2479 1.429 . S
C2476 C2459 1.574 . S
C2476 H2470 0.949 . S
C2476 C2480 1.368 . S
C2477 C2458 1.429 . S
C2477 C2471 1.429 . S
C2477 C2478 1.523 . S
C2478 C2459 1.368 . S
C2478 C2472 1.368 . S
C2478 C2477 1.523 . S
C2479 C2463 1.429 . S
C2479 C2475 1.429 . S
C2479 C2480 1.523 . S
C2480 C2464 1.368 . S
C2480 C2476 1.368 . S
C2480 C2479 1.523 . S
H2481 C2456 0.950 . S
H2482 C2458 0.950 . S
H2483 C2459 0.949 . S
H2484 C2461 0.950 . S
H2485 C2463 0.950 . S
C2486 C2487 1.349 . S
C2486 C2488 1.327 . S
C2486 H2511 0.950 . S
C2487 C2486 1.349 . S
C2487 C2503 1.349 . S
C2488 C2486 1.327 . S
C2488 C2507 1.429 . S
C2488 H2512 0.950 . S
C2489 C2506 1.574 . S
C2489 C2508 1.368 . S
C2489 H2513 0.949 . S
H2490 C2494 0.949 . S
C2491 C2492 1.349 . S
C2491 C2493 1.327 . S
C2491 H2514 0.950 . S
C2492 C2491 1.349 . S
C2492 C2504 1.349 . S
C2493 C2491 1.327 . S
C2493 C2509 1.429 . S
C2493 H2515 0.950 . S
C2494 H2490 0.949 . S
C2494 C2502 1.574 . S
C2494 C2510 1.368 . S
H2495 C2503 0.950 . S
H2496 C2501 0.950 . S
H2497 C2502 0.949 . S
H2498 C2504 0.950 . S
H2499 C2505 0.950 . S
H2500 C2506 0.949 . S
C2501 H2496 0.950 . S
C2501 C2503 1.327 . S
C2501 C2507 1.429 . S
C2502 C2494 1.574 . S
C2502 H2497 0.949 . S
C2502 C2508 1.368 . S
C2503 C2487 1.349 . S
C2503 H2495 0.950 . S
C2503 C2501 1.327 . S
C2504 C2492 1.349 . S
C2504 H2498 0.950 . S
C2504 C2505 1.327 . S
C2505 H2499 0.950 . S
C2505 C2504 1.327 . S
C2505 C2509 1.429 . S
C2506 C2489 1.574 . S
C2506 H2500 0.949 . S
C2506 C2510 1.368 . S
C2507 C2488 1.429 . S
C2507 C2501 1.429 . S
C2507 C2508 1.523 . S
C2508 C2489 1.368 . S
C2508 C2502 1.368 . S
C2508 C2507 1.523 . S
C2509 C2493 1.429 . S
C2509 C2505 1.429 . S
C2509 C2510 1.523 . S
C2510 C2494 1.368 . S
C2510 C2506 1.368 . S
C2510 C2509 1.523 . S
H2511 C2486 0.950 . S
H2512 C2488 0.950 . S
H2513 C2489 0.949 . S
H2514 C2491 0.950 . S
H2515 C2493 0.950 . S
C2516 C2517 1.349 . S
C2516 C2518 1.327 . S
C2516 H2541 0.950 . S
C2517 C2516 1.349 . S
C2517 C2533 1.349 . S
C2518 C2516 1.327 . S
C2518 C2537 1.429 . S
C2518 H2542 0.950 . S
C2519 C2536 1.574 . S
C2519 C2538 1.368 . S
C2519 H2543 0.949 . S
H2520 C2524 0.949 . S
C2521 C2522 1.349 . S
C2521 C2523 1.327 . S
C2521 H2544 0.950 . S
C2522 C2521 1.349 . S
C2522 C2534 1.349 . S
C2523 C2521 1.327 . S
C2523 C2539 1.429 . S
C2523 H2545 0.950 . S
C2524 H2520 0.949 . S
C2524 C2532 1.574 . S
C2524 C2540 1.368 . S
H2525 C2533 0.950 . S
H2526 C2531 0.950 . S
H2527 C2532 0.949 . S
H2528 C2534 0.950 . S
H2529 C2535 0.950 . S
H2530 C2536 0.949 . S
C2531 H2526 0.950 . S
C2531 C2533 1.327 . S
C2531 C2537 1.429 . S
C2532 C2524 1.574 . S
C2532 H2527 0.949 . S
C2532 C2538 1.368 . S
C2533 C2517 1.349 . S
C2533 H2525 0.950 . S
C2533 C2531 1.327 . S
C2534 C2522 1.349 . S
C2534 H2528 0.950 . S
C2534 C2535 1.327 . S
C2535 H2529 0.950 . S
C2535 C2534 1.327 . S
C2535 C2539 1.429 . S
C2536 C2519 1.574 . S
C2536 H2530 0.949 . S
C2536 C2540 1.368 . S
C2537 C2518 1.429 . S
C2537 C2531 1.429 . S
C2537 C2538 1.523 . S
C2538 C2519 1.368 . S
C2538 C2532 1.368 . S
C2538 C2537 1.523 . S
C2539 C2523 1.429 . S
C2539 C2535 1.429 . S
C2539 C2540 1.523 . S
C2540 C2524 1.368 . S
C2540 C2536 1.368 . S
C2540 C2539 1.523 . S
H2541 C2516 0.950 . S
H2542 C2518 0.950 . S
H2543 C2519 0.949 . S
H2544 C2521 0.950 . S
H2545 C2523 0.950 . S
C2546 C2547 1.349 . S
C2546 C2548 1.327 . S
C2546 H2571 0.950 . S
C2547 C2546 1.349 . S
C2547 C2563 1.349 . S
C2548 C2546 1.327 . S
C2548 C2567 1.429 . S
C2548 H2572 0.950 . S
C2549 C2566 1.574 . S
C2549 C2568 1.368 . S
C2549 H2573 0.949 . S
H2550 C2554 0.949 . S
C2551 C2552 1.349 . S
C2551 C2553 1.327 . S
C2551 H2574 0.950 . S
C2552 C2551 1.349 . S
C2552 C2564 1.349 . S
C2553 C2551 1.327 . S
C2553 C2569 1.429 . S
C2553 H2575 0.950 . S
C2554 H2550 0.949 . S
C2554 C2562 1.574 . S
C2554 C2570 1.368 . S
H2555 C2563 0.950 . S
H2556 C2561 0.950 . S
H2557 C2562 0.949 . S
H2558 C2564 0.950 . S
H2559 C2565 0.950 . S
H2560 C2566 0.949 . S
C2561 H2556 0.950 . S
C2561 C2563 1.327 . S
C2561 C2567 1.429 . S
C2562 C2554 1.574 . S
C2562 H2557 0.949 . S
C2562 C2568 1.368 . S
C2563 C2547 1.349 . S
C2563 H2555 0.950 . S
C2563 C2561 1.327 . S
C2564 C2552 1.349 . S
C2564 H2558 0.950 . S
C2564 C2565 1.327 . S
C2565 H2559 0.950 . S
C2565 C2564 1.327 . S
C2565 C2569 1.429 . S
C2566 C2549 1.574 . S
C2566 H2560 0.949 . S
C2566 C2570 1.368 . S
C2567 C2548 1.429 . S
C2567 C2561 1.429 . S
C2567 C2568 1.523 . S
C2568 C2549 1.368 . S
C2568 C2562 1.368 . S
C2568 C2567 1.523 . S
C2569 C2553 1.429 . S
C2569 C2565 1.429 . S
C2569 C2570 1.523 . S
C2570 C2554 1.368 . S
C2570 C2566 1.368 . S
C2570 C2569 1.523 . S
H2571 C2546 0.950 . S
H2572 C2548 0.950 . S
H2573 C2549 0.949 . S
H2574 C2551 0.950 . S
H2575 C2553 0.950 . S
C2576 C2577 1.349 . S
C2576 C2578 1.327 . S
C2576 H2601 0.950 . S
C2577 C2576 1.349 . S
C2577 C2593 1.349 . S
C2578 C2576 1.327 . S
C2578 C2597 1.429 . S
C2578 H2602 0.950 . S
C2579 C2596 1.574 . S
C2579 C2598 1.368 . S
C2579 H2603 0.949 . S
H2580 C2584 0.949 . S
C2581 C2582 1.349 . S
C2581 C2583 1.327 . S
C2581 H2604 0.950 . S
C2582 C2581 1.349 . S
C2582 C2594 1.349 . S
C2583 C2581 1.327 . S
C2583 C2599 1.429 . S
C2583 H2605 0.950 . S
C2584 H2580 0.949 . S
C2584 C2592 1.574 . S
C2584 C2600 1.368 . S
H2585 C2593 0.950 . S
H2586 C2591 0.950 . S
H2587 C2592 0.949 . S
H2588 C2594 0.950 . S
H2589 C2595 0.950 . S
H2590 C2596 0.949 . S
C2591 H2586 0.950 . S
C2591 C2593 1.327 . S
C2591 C2597 1.429 . S
C2592 C2584 1.574 . S
C2592 H2587 0.949 . S
C2592 C2598 1.368 . S
C2593 C2577 1.349 . S
C2593 H2585 0.950 . S
C2593 C2591 1.327 . S
C2594 C2582 1.349 . S
C2594 H2588 0.950 . S
C2594 C2595 1.327 . S
C2595 H2589 0.950 . S
C2595 C2594 1.327 . S
C2595 C2599 1.429 . S
C2596 C2579 1.574 . S
C2596 H2590 0.949 . S
C2596 C2600 1.368 . S
C2597 C2578 1.429 . S
C2597 C2591 1.429 . S
C2597 C2598 1.523 . S
C2598 C2579 1.368 . S
C2598 C2592 1.368 . S
C2598 C2597 1.523 . S
C2599 C2583 1.429 . S
C2599 C2595 1.429 . S
C2599 C2600 1.523 . S
C2600 C2584 1.368 . S
C2600 C2596 1.368 . S
C2600 C2599 1.523 . S
H2601 C2576 0.950 . S
H2602 C2578 0.950 . S
H2603 C2579 0.949 . S
H2604 C2581 0.950 . S
H2605 C2583 0.950 . S
C2606 C2607 1.349 . S
C2606 C2608 1.327 . S
C2606 H2631 0.950 . S
C2607 C2606 1.349 . S
C2607 C2623 1.349 . S
C2608 C2606 1.327 . S
C2608 C2627 1.429 . S
C2608 H2632 0.950 . S
C2609 C2626 1.574 . S
C2609 C2628 1.368 . S
C2609 H2633 0.949 . S
H2610 C2614 0.949 . S
C2611 C2612 1.349 . S
C2611 C2613 1.327 . S
C2611 H2634 0.950 . S
C2612 C2611 1.349 . S
C2612 C2624 1.349 . S
C2613 C2611 1.327 . S
C2613 C2629 1.429 . S
C2613 H2635 0.950 . S
C2614 H2610 0.949 . S
C2614 C2622 1.574 . S
C2614 C2630 1.368 . S
H2615 C2623 0.950 . S
H2616 C2621 0.950 . S
H2617 C2622 0.949 . S
H2618 C2624 0.950 . S
H2619 C2625 0.950 . S
H2620 C2626 0.949 . S
C2621 H2616 0.950 . S
C2621 C2623 1.327 . S
C2621 C2627 1.429 . S
C2622 C2614 1.574 . S
C2622 H2617 0.949 . S
C2622 C2628 1.368 . S
C2623 C2607 1.349 . S
C2623 H2615 0.950 . S
C2623 C2621 1.327 . S
C2624 C2612 1.349 . S
C2624 H2618 0.950 . S
C2624 C2625 1.327 . S
C2625 H2619 0.950 . S
C2625 C2624 1.327 . S
C2625 C2629 1.429 . S
C2626 C2609 1.574 . S
C2626 H2620 0.949 . S
C2626 C2630 1.368 . S
C2627 C2608 1.429 . S
C2627 C2621 1.429 . S
C2627 C2628 1.523 . S
C2628 C2609 1.368 . S
C2628 C2622 1.368 . S
C2628 C2627 1.523 . S
C2629 C2613 1.429 . S
C2629 C2625 1.429 . S
C2629 C2630 1.523 . S
C2630 C2614 1.368 . S
C2630 C2626 1.368 . S
C2630 C2629 1.523 . S
H2631 C2606 0.950 . S
H2632 C2608 0.950 . S
H2633 C2609 0.949 . S
H2634 C2611 0.950 . S
H2635 C2613 0.950 . S
C2636 C2637 1.349 . S
C2636 C2638 1.327 . S
C2636 H2661 0.950 . S
C2637 C2636 1.349 . S
C2637 C2653 1.349 . S
C2638 C2636 1.327 . S
C2638 C2657 1.429 . S
C2638 H2662 0.950 . S
C2639 C2656 1.574 . S
C2639 C2658 1.368 . S
C2639 H2663 0.949 . S
H2640 C2644 0.949 . S
C2641 C2642 1.349 . S
C2641 C2643 1.327 . S
C2641 H2664 0.950 . S
C2642 C2641 1.349 . S
C2642 C2654 1.349 . S
C2643 C2641 1.327 . S
C2643 C2659 1.429 . S
C2643 H2665 0.950 . S
C2644 H2640 0.949 . S
C2644 C2652 1.574 . S
C2644 C2660 1.368 . S
H2645 C2653 0.950 . S
H2646 C2651 0.950 . S
H2647 C2652 0.949 . S
H2648 C2654 0.950 . S
H2649 C2655 0.950 . S
H2650 C2656 0.949 . S
C2651 H2646 0.950 . S
C2651 C2653 1.327 . S
C2651 C2657 1.429 . S
C2652 C2644 1.574 . S
C2652 H2647 0.949 . S
C2652 C2658 1.368 . S
C2653 C2637 1.349 . S
C2653 H2645 0.950 . S
C2653 C2651 1.327 . S
C2654 C2642 1.349 . S
C2654 H2648 0.950 . S
C2654 C2655 1.327 . S
C2655 H2649 0.950 . S
C2655 C2654 1.327 . S
C2655 C2659 1.429 . S
C2656 C2639 1.574 . S
C2656 H2650 0.949 . S
C2656 C2660 1.368 . S
C2657 C2638 1.429 . S
C2657 C2651 1.429 . S
C2657 C2658 1.523 . S
C2658 C2639 1.368 . S
C2658 C2652 1.368 . S
C2658 C2657 1.523 . S
C2659 C2643 1.429 . S
C2659 C2655 1.429 . S
C2659 C2660 1.523 . S
C2660 C2644 1.368 . S
C2660 C2656 1.368 . S
C2660 C2659 1.523 . S
H2661 C2636 0.950 . S
H2662 C2638 0.950 . S
H2663 C2639 0.949 . S
H2664 C2641 0.950 . S
H2665 C2643 0.950 . S
C2666 C2667 1.349 . S
C2666 C2668 1.327 . S
C2666 H2691 0.950 . S
C2667 C2666 1.349 . S
C2667 C2683 1.349 . S
C2668 C2666 1.327 . S
C2668 C2687 1.429 . S
C2668 H2692 0.950 . S
C2669 C2686 1.574 . S
C2669 C2688 1.368 . S
C2669 H2693 0.949 . S
H2670 C2674 0.949 . S
C2671 C2672 1.349 . S
C2671 C2673 1.308 1_545 S
C2671 H2694 0.950 1_554 S
C2672 C2671 1.349 . S
C2672 C2684 1.349 1_545 S
C2673 C2671 1.308 1_565 S
C2673 C2689 1.464 . S
C2673 H2695 0.938 1_554 S
C2674 H2670 0.949 . S
C2674 C2682 1.574 . S
C2674 C2690 1.368 . S
H2675 C2683 0.950 . S
H2676 C2681 0.950 . S
H2677 C2682 0.949 . S
H2678 C2684 0.950 . S
H2679 C2685 0.950 . S
H2680 C2686 0.911 1_556 S
C2681 H2676 0.950 . S
C2681 C2683 1.327 . S
C2681 C2687 1.429 . S
C2682 C2674 1.574 . S
C2682 H2677 0.949 . S
C2682 C2688 1.368 . S
C2683 C2667 1.349 . S
C2683 H2675 0.950 . S
C2683 C2681 1.327 . S
C2684 C2672 1.349 1_565 S
C2684 H2678 0.950 . S
C2684 C2685 1.327 . S
C2685 H2679 0.950 . S
C2685 C2684 1.327 . S
C2685 C2689 1.429 . S
C2686 C2669 1.574 . S
C2686 H2680 0.911 1_554 S
C2686 C2690 1.368 . S
C2687 C2668 1.429 . S
C2687 C2681 1.429 . S
C2687 C2688 1.523 . S
C2688 C2669 1.368 . S
C2688 C2682 1.368 . S
C2688 C2687 1.523 . S
C2689 C2673 1.464 . S
C2689 C2685 1.429 . S
C2689 C2690 1.523 . S
C2690 C2674 1.368 . S
C2690 C2686 1.368 . S
C2690 C2689 1.523 . S
H2691 C2666 0.950 . S
H2692 C2668 0.950 . S
H2693 C2669 0.949 . S
H2694 C2671 0.950 1_556 S
H2695 C2673 0.938 1_556 S
C2696 C2697 1.349 . S
C2696 C2698 1.327 . S
C2696 H2721 0.950 . S
C2697 C2696 1.349 . S
C2697 C2713 1.349 . S
C2698 C2696 1.327 . S
C2698 C2717 1.429 . S
C2698 H2722 0.950 . S
C2699 C2716 1.574 . S
C2699 C2718 1.368 . S
C2699 H2723 0.949 . S
H2700 C2704 0.949 . S
C2701 C2702 1.349 . S
C2701 C2703 1.327 . S
C2701 H2724 0.950 . S
C2702 C2701 1.349 . S
C2702 C2714 1.349 . S
C2703 C2701 1.327 . S
C2703 C2719 1.429 . S
C2703 H2725 0.950 . S
C2704 H2700 0.949 . S
C2704 C2712 1.574 . S
C2704 C2720 1.368 . S
H2705 C2713 0.950 . S
H2706 C2711 0.950 . S
H2707 C2712 0.949 . S
H2708 C2714 0.950 . S
H2709 C2715 0.950 . S
H2710 C2716 0.949 . S
C2711 H2706 0.950 . S
C2711 C2713 1.327 . S
C2711 C2717 1.429 . S
C2712 C2704 1.574 . S
C2712 H2707 0.949 . S
C2712 C2718 1.368 . S
C2713 C2697 1.349 . S
C2713 H2705 0.950 . S
C2713 C2711 1.327 . S
C2714 C2702 1.349 . S
C2714 H2708 0.950 . S
C2714 C2715 1.327 . S
C2715 H2709 0.950 . S
C2715 C2714 1.327 . S
C2715 C2719 1.429 . S
C2716 C2699 1.574 . S
C2716 H2710 0.949 . S
C2716 C2720 1.368 . S
C2717 C2698 1.429 . S
C2717 C2711 1.429 . S
C2717 C2718 1.523 . S
C2718 C2699 1.368 . S
C2718 C2712 1.368 . S
C2718 C2717 1.523 . S
C2719 C2703 1.429 . S
C2719 C2715 1.429 . S
C2719 C2720 1.523 . S
C2720 C2704 1.368 . S
C2720 C2716 1.368 . S
C2720 C2719 1.523 . S
H2721 C2696 0.950 . S
H2722 C2698 0.950 . S
H2723 C2699 0.949 . S
H2724 C2701 0.950 . S
H2725 C2703 0.950 . S
C2726 C2727 1.349 . S
C2726 C2728 1.327 . S
C2726 H2751 0.950 . S
C2727 C2726 1.349 . S
C2727 C2743 1.349 1_554 S
C2728 C2726 1.327 . S
C2728 C2747 1.429 . S
C2728 H2752 0.950 . S
C2729 C2746 1.574 . S
C2729 C2748 1.368 . S
C2729 H2753 0.949 1_554 S
H2730 C2734 0.949 . S
C2731 C2732 1.349 . S
C2731 C2733 1.327 . S
C2731 H2754 0.950 . S
C2732 C2731 1.349 . S
C2732 C2744 1.349 . S
C2733 C2731 1.327 . S
C2733 C2749 1.429 . S
C2733 H2755 0.969 . S
C2734 H2730 0.949 . S
C2734 C2742 1.574 . S
C2734 C2750 1.368 . S
H2735 C2743 0.950 . S
H2736 C2741 0.950 . S
H2737 C2742 0.949 . S
H2738 C2744 0.950 . S
H2739 C2745 0.950 . S
H2740 C2746 0.949 1_556 S
C2741 H2736 0.950 . S
C2741 C2743 1.327 . S
C2741 C2747 1.429 1_556 S
C2742 C2734 1.574 . S
C2742 H2737 0.949 . S
C2742 C2748 1.368 . S
C2743 C2727 1.349 1_556 S
C2743 H2735 0.950 . S
C2743 C2741 1.327 . S
C2744 C2732 1.349 . S
C2744 H2738 0.950 . S
C2744 C2745 1.327 . S
C2745 H2739 0.950 . S
C2745 C2744 1.327 . S
C2745 C2749 1.429 . S
C2746 C2729 1.574 . S
C2746 H2740 0.949 1_554 S
C2746 C2750 1.368 . S
C2747 C2728 1.429 . S
C2747 C2741 1.429 1_554 S
C2747 C2748 1.523 . S
C2748 C2729 1.368 . S
C2748 C2742 1.368 . S
C2748 C2747 1.523 . S
C2749 C2733 1.429 . S
C2749 C2745 1.429 . S
C2749 C2750 1.523 . S
C2750 C2734 1.368 . S
C2750 C2746 1.368 . S
C2750 C2749 1.523 . S
H2751 C2726 0.950 . S
H2752 C2728 0.950 . S
H2753 C2729 0.949 1_556 S
H2754 C2731 0.950 . S
H2755 C2733 0.969 . S
C2756 C2757 1.349 . S
C2756 C2758 1.327 . S
C2756 H2781 0.950 . S
C2757 C2756 1.349 . S
C2757 C2773 1.349 . S
C2758 C2756 1.327 . S
C2758 C2777 1.429 . S
C2758 H2782 0.950 . S
C2759 C2776 1.574 . S
C2759 C2778 1.368 . S
C2759 H2783 0.949 . S
H2760 C2764 0.949 . S
C2761 C2762 1.349 . S
C2761 C2763 1.327 . S
C2761 H2784 0.950 . S
C2762 C2761 1.349 . S
C2762 C2774 1.349 . S
C2763 C2761 1.327 . S
C2763 C2779 1.429 . S
C2763 H2785 0.950 . S
C2764 H2760 0.949 . S
C2764 C2772 1.574 . S
C2764 C2780 1.368 . S
H2765 C2773 0.950 . S
H2766 C2771 0.950 . S
H2767 C2772 0.949 . S
H2768 C2774 0.950 . S
H2769 C2775 0.950 . S
H2770 C2776 0.949 . S
C2771 H2766 0.950 . S
C2771 C2773 1.327 . S
C2771 C2777 1.429 . S
C2772 C2764 1.574 . S
C2772 H2767 0.949 . S
C2772 C2778 1.368 . S
C2773 C2757 1.349 . S
C2773 H2765 0.950 . S
C2773 C2771 1.327 . S
C2774 C2762 1.349 . S
C2774 H2768 0.950 . S
C2774 C2775 1.327 . S
C2775 H2769 0.950 . S
C2775 C2774 1.327 . S
C2775 C2779 1.429 . S
C2776 C2759 1.574 . S
C2776 H2770 0.949 . S
C2776 C2780 1.368 . S
C2777 C2758 1.429 . S
C2777 C2771 1.429 . S
C2777 C2778 1.523 . S
C2778 C2759 1.368 . S
C2778 C2772 1.368 . S
C2778 C2777 1.523 . S
C2779 C2763 1.429 . S
C2779 C2775 1.429 . S
C2779 C2780 1.523 . S
C2780 C2764 1.368 . S
C2780 C2776 1.368 . S
C2780 C2779 1.523 . S
H2781 C2756 0.950 . S
H2782 C2758 0.950 . S
H2783 C2759 0.949 . S
H2784 C2761 0.950 . S
H2785 C2763 0.950 . S
C2786 C2787 1.349 . S
C2786 C2788 1.327 . S
C2786 H2811 0.950 1_565 S
C2787 C2786 1.349 . S
C2787 C2803 1.349 . S
C2788 C2786 1.327 . S
C2788 C2807 1.429 . S
C2788 H2812 0.950 . S
C2789 C2806 1.574 . S
C2789 C2808 1.368 . S
C2789 H2813 0.949 . S
H2790 C2794 0.949 . S
C2791 C2792 1.349 . S
C2791 C2793 1.327 . S
C2791 H2814 0.950 . S
C2792 C2791 1.349 . S
C2792 C2804 1.349 . S
C2793 C2791 1.327 . S
C2793 C2809 1.429 . S
C2793 H2815 0.950 . S
C2794 H2790 0.949 . S
C2794 C2802 1.574 . S
C2794 C2810 1.368 . S
H2795 C2803 0.950 . S
H2796 C2801 0.950 . S
H2797 C2802 0.949 . S
H2798 C2804 0.950 . S
H2799 C2805 0.950 . S
H2800 C2806 0.949 . S
C2801 H2796 0.950 . S
C2801 C2803 1.327 . S
C2801 C2807 1.429 . S
C2802 C2794 1.574 . S
C2802 H2797 0.949 . S
C2802 C2808 1.368 . S
C2803 C2787 1.349 . S
C2803 H2795 0.950 . S
C2803 C2801 1.327 . S
C2804 C2792 1.349 . S
C2804 H2798 0.950 . S
C2804 C2805 1.327 . S
C2805 H2799 0.950 . S
C2805 C2804 1.327 . S
C2805 C2809 1.429 . S
C2806 C2789 1.574 . S
C2806 H2800 0.949 . S
C2806 C2810 1.368 . S
C2807 C2788 1.429 . S
C2807 C2801 1.429 . S
C2807 C2808 1.523 . S
C2808 C2789 1.368 . S
C2808 C2802 1.368 . S
C2808 C2807 1.523 . S
C2809 C2793 1.429 . S
C2809 C2805 1.429 . S
C2809 C2810 1.523 . S
C2810 C2794 1.368 . S
C2810 C2806 1.368 . S
C2810 C2809 1.523 . S
H2811 C2786 0.950 1_545 S
H2812 C2788 0.950 . S
H2813 C2789 0.949 . S
H2814 C2791 0.950 . S
H2815 C2793 0.950 . S
C2816 C2817 1.349 . S
C2816 C2818 1.327 . S
C2816 H2841 0.950 . S
C2817 C2816 1.349 . S
C2817 C2833 1.349 . S
C2818 C2816 1.327 . S
C2818 C2837 1.429 . S
C2818 H2842 0.950 . S
C2819 C2836 1.574 . S
C2819 C2838 1.368 . S
C2819 H2843 0.949 . S
H2820 C2824 0.949 . S
C2821 C2822 1.349 . S
C2821 C2823 1.327 . S
C2821 H2844 0.950 . S
C2822 C2821 1.349 . S
C2822 C2834 1.349 . S
C2823 C2821 1.327 . S
C2823 C2839 1.429 . S
C2823 H2845 0.950 . S
C2824 H2820 0.949 . S
C2824 C2832 1.574 . S
C2824 C2840 1.368 . S
H2825 C2833 0.950 . S
H2826 C2831 0.950 . S
H2827 C2832 0.949 . S
H2828 C2834 0.950 . S
H2829 C2835 0.950 . S
H2830 C2836 0.949 . S
C2831 H2826 0.950 . S
C2831 C2833 1.327 . S
C2831 C2837 1.429 . S
C2832 C2824 1.574 . S
C2832 H2827 0.949 . S
C2832 C2838 1.368 . S
C2833 C2817 1.349 . S
C2833 H2825 0.950 . S
C2833 C2831 1.327 . S
C2834 C2822 1.349 . S
C2834 H2828 0.950 . S
C2834 C2835 1.327 . S
C2835 H2829 0.950 . S
C2835 C2834 1.327 . S
C2835 C2839 1.429 . S
C2836 C2819 1.574 . S
C2836 H2830 0.949 . S
C2836 C2840 1.368 . S
C2837 C2818 1.429 . S
C2837 C2831 1.429 . S
C2837 C2838 1.523 . S
C2838 C2819 1.368 . S
C2838 C2832 1.368 . S
C2838 C2837 1.523 . S
C2839 C2823 1.429 . S
C2839 C2835 1.429 . S
C2839 C2840 1.523 . S
C2840 C2824 1.368 . S
C2840 C2836 1.368 . S
C2840 C2839 1.523 . S
H2841 C2816 0.950 . S
H2842 C2818 0.950 . S
H2843 C2819 0.949 . S
H2844 C2821 0.950 . S
H2845 C2823 0.950 . S
C2846 C2847 1.349 . S
C2846 C2848 1.327 . S
C2846 H2871 0.950 . S
C2847 C2846 1.349 . S
C2847 C2863 1.349 . S
C2848 C2846 1.327 . S
C2848 C2867 1.429 . S
C2848 H2872 0.950 . S
C2849 C2866 1.574 . S
C2849 C2868 1.368 . S
C2849 H2873 0.949 . S
H2850 C2854 0.949 . S
C2851 C2852 1.349 . S
C2851 C2853 1.327 . S
C2851 H2874 0.950 . S
C2852 C2851 1.349 . S
C2852 C2864 1.349 . S
C2853 C2851 1.327 . S
C2853 C2869 1.429 . S
C2853 H2875 0.950 . S
C2854 H2850 0.949 . S
C2854 C2862 1.574 . S
C2854 C2870 1.368 . S
H2855 C2863 0.950 . S
H2856 C2861 0.950 . S
H2857 C2862 0.949 . S
H2858 C2864 0.950 . S
H2859 C2865 0.950 . S
H2860 C2866 0.949 . S
C2861 H2856 0.950 . S
C2861 C2863 1.327 . S
C2861 C2867 1.429 . S
C2862 C2854 1.574 . S
C2862 H2857 0.949 . S
C2862 C2868 1.368 . S
C2863 C2847 1.349 . S
C2863 H2855 0.950 . S
C2863 C2861 1.327 . S
C2864 C2852 1.349 . S
C2864 H2858 0.950 . S
C2864 C2865 1.327 . S
C2865 H2859 0.950 . S
C2865 C2864 1.327 . S
C2865 C2869 1.429 . S
C2866 C2849 1.574 . S
C2866 H2860 0.949 . S
C2866 C2870 1.368 . S
C2867 C2848 1.429 . S
C2867 C2861 1.429 . S
C2867 C2868 1.523 . S
C2868 C2849 1.368 . S
C2868 C2862 1.368 . S
C2868 C2867 1.523 . S
C2869 C2853 1.429 . S
C2869 C2865 1.429 . S
C2869 C2870 1.523 . S
C2870 C2854 1.368 . S
C2870 C2866 1.368 . S
C2870 C2869 1.523 . S
H2871 C2846 0.950 . S
H2872 C2848 0.950 . S
H2873 C2849 0.949 . S
H2874 C2851 0.950 . S
H2875 C2853 0.950 . S
C2876 C2877 1.349 . S
C2876 C2878 1.327 . S
C2876 H2901 0.950 . S
C2877 C2876 1.349 . S
C2877 C2893 1.349 1_455 S
C2878 C2876 1.327 . S
C2878 C2897 1.429 . S
C2878 H2902 0.950 . S
C2879 C2896 1.574 . S
C2879 C2898 1.368 1_655 S
C2879 H2903 0.949 . S
H2880 C2884 0.949 . S
C2881 C2882 1.349 1_655 S
C2881 C2883 1.327 . S
C2881 H2904 0.950 . S
C2882 C2881 1.349 1_455 S
C2882 C2894 1.349 . S
C2883 C2881 1.327 . S
C2883 C2899 1.429 1_655 S
C2883 H2905 0.950 . S
C2884 H2880 0.949 . S
C2884 C2892 1.574 . S
C2884 C2900 1.368 . S
H2885 C2893 0.950 . S
H2886 C2891 0.950 . S
H2887 C2892 0.949 . S
H2888 C2894 0.950 . S
H2889 C2895 0.950 . S
H2890 C2896 0.949 . S
C2891 H2886 0.950 . S
C2891 C2893 1.327 . S
C2891 C2897 1.429 1_655 S
C2892 C2884 1.574 . S
C2892 H2887 0.949 . S
C2892 C2898 1.368 . S
C2893 C2877 1.349 1_655 S
C2893 H2885 0.950 . S
C2893 C2891 1.327 . S
C2894 C2882 1.349 . S
C2894 H2888 0.950 . S
C2894 C2895 1.327 . S
C2895 H2889 0.950 . S
C2895 C2894 1.327 . S
C2895 C2899 1.429 . S
C2896 C2879 1.574 . S
C2896 H2890 0.949 . S
C2896 C2900 1.368 1_655 S
C2897 C2878 1.429 . S
C2897 C2891 1.429 1_455 S
C2897 C2898 1.523 . S
C2898 C2879 1.368 1_455 S
C2898 C2892 1.368 . S
C2898 C2897 1.523 . S
C2899 C2883 1.429 1_455 S
C2899 C2895 1.429 . S
C2899 C2900 1.523 . S
C2900 C2884 1.368 . S
C2900 C2896 1.368 1_455 S
C2900 C2899 1.523 . S
H2901 C2876 0.950 . S
H2902 C2878 0.950 . S
H2903 C2879 0.949 . S
H2904 C2881 0.950 . S
H2905 C2883 0.950 . S
C2906 C2907 1.349 . S
C2906 C2908 1.327 . S
C2906 H2931 0.950 . S
C2907 C2906 1.349 . S
C2907 C2923 1.349 . S
C2908 C2906 1.327 . S
C2908 C2927 1.429 . S
C2908 H2932 0.950 . S
C2909 C2926 1.574 . S
C2909 C2928 1.368 . S
C2909 H2933 0.949 . S
H2910 C2914 0.949 . S
C2911 C2912 1.349 . S
C2911 C2913 1.327 . S
C2911 H2934 0.950 . S
C2912 C2911 1.349 . S
C2912 C2924 1.349 . S
C2913 C2911 1.327 . S
C2913 C2929 1.429 . S
C2913 H2935 0.950 . S
C2914 H2910 0.949 . S
C2914 C2922 1.574 . S
C2914 C2930 1.368 . S
H2915 C2923 0.950 . S
H2916 C2921 0.950 . S
H2917 C2922 0.949 . S
H2918 C2924 0.950 . S
H2919 C2925 0.950 . S
H2920 C2926 0.949 . S
C2921 H2916 0.950 . S
C2921 C2923 1.327 . S
C2921 C2927 1.429 . S
C2922 C2914 1.574 . S
C2922 H2917 0.949 . S
C2922 C2928 1.368 . S
C2923 C2907 1.349 . S
C2923 H2915 0.950 . S
C2923 C2921 1.327 . S
C2924 C2912 1.349 . S
C2924 H2918 0.950 . S
C2924 C2925 1.327 . S
C2925 H2919 0.950 . S
C2925 C2924 1.327 . S
C2925 C2929 1.429 . S
C2926 C2909 1.574 . S
C2926 H2920 0.949 . S
C2926 C2930 1.368 . S
C2927 C2908 1.429 . S
C2927 C2921 1.429 . S
C2927 C2928 1.523 . S
C2928 C2909 1.368 . S
C2928 C2922 1.368 . S
C2928 C2927 1.523 . S
C2929 C2913 1.429 . S
C2929 C2925 1.429 . S
C2929 C2930 1.523 . S
C2930 C2914 1.368 . S
C2930 C2926 1.368 . S
C2930 C2929 1.523 . S
H2931 C2906 0.950 . S
H2932 C2908 0.950 . S
H2933 C2909 0.949 . S
H2934 C2911 0.950 . S
H2935 C2913 0.950 . S
C2936 C2937 1.349 . S
C2936 C2938 1.327 . S
C2936 H2961 0.950 . S
C2937 C2936 1.349 . S
C2937 C2953 1.349 . S
C2938 C2936 1.327 . S
C2938 C2957 1.429 . S
C2938 H2962 0.950 . S
C2939 C2956 1.574 . S
C2939 C2958 1.368 . S
C2939 H2963 0.949 . S
H2940 C2944 0.949 . S
C2941 C2942 1.349 . S
C2941 C2943 1.327 . S
C2941 H2964 0.950 1_556 S
C2942 C2941 1.349 . S
C2942 C2954 1.349 . S
C2943 C2941 1.327 . S
C2943 C2959 1.429 . S
C2943 H2965 0.950 . S
C2944 H2940 0.949 . S
C2944 C2952 1.574 . S
C2944 C2960 1.368 . S
H2945 C2953 0.950 . S
H2946 C2951 0.950 . S
H2947 C2952 0.949 . S
H2948 C2954 0.950 . S
H2949 C2955 0.950 . S
H2950 C2956 0.949 . S
C2951 H2946 0.950 . S
C2951 C2953 1.327 . S
C2951 C2957 1.429 . S
C2952 C2944 1.574 . S
C2952 H2947 0.949 . S
C2952 C2958 1.368 . S
C2953 C2937 1.349 . S
C2953 H2945 0.950 . S
C2953 C2951 1.327 . S
C2954 C2942 1.349 . S
C2954 H2948 0.950 . S
C2954 C2955 1.327 . S
C2955 H2949 0.950 . S
C2955 C2954 1.327 . S
C2955 C2959 1.429 . S
C2956 C2939 1.574 . S
C2956 H2950 0.949 . S
C2956 C2960 1.368 . S
C2957 C2938 1.429 . S
C2957 C2951 1.429 . S
C2957 C2958 1.523 . S
C2958 C2939 1.368 . S
C2958 C2952 1.368 . S
C2958 C2957 1.523 . S
C2959 C2943 1.429 . S
C2959 C2955 1.429 . S
C2959 C2960 1.523 . S
C2960 C2944 1.368 . S
C2960 C2956 1.368 . S
C2960 C2959 1.523 . S
H2961 C2936 0.950 . S
H2962 C2938 0.950 . S
H2963 C2939 0.949 . S
H2964 C2941 0.950 1_554 S
H2965 C2943 0.950 . S
C2966 C2967 1.349 . S
C2966 C2968 1.327 . S
C2966 H2991 0.950 . S
C2967 C2966 1.349 . S
C2967 C2983 1.349 . S
C2968 C2966 1.327 . S
C2968 C2987 1.429 . S
C2968 H2992 0.950 . S
C2969 C2986 1.574 . S
C2969 C2988 1.368 . S
C2969 H2993 0.949 . S
H2970 C2974 0.949 . S
C2971 C2972 1.349 . S
C2971 C2973 1.327 . S
C2971 H2994 0.950 . S
C2972 C2971 1.349 . S
C2972 C2984 1.349 . S
C2973 C2971 1.327 . S
C2973 C2989 1.429 . S
C2973 H2995 0.950 . S
C2974 H2970 0.949 . S
C2974 C2982 1.574 . S
C2974 C2990 1.368 . S
H2975 C2983 0.950 . S
H2976 C2981 0.950 . S
H2977 C2982 0.949 . S
H2978 C2984 0.950 . S
H2979 C2985 0.950 . S
H2980 C2986 0.949 . S
C2981 H2976 0.950 . S
C2981 C2983 1.327 . S
C2981 C2987 1.429 . S
C2982 C2974 1.574 . S
C2982 H2977 0.949 . S
C2982 C2988 1.368 . S
C2983 C2967 1.349 . S
C2983 H2975 0.950 . S
C2983 C2981 1.327 . S
C2984 C2972 1.349 . S
C2984 H2978 0.950 . S
C2984 C2985 1.327 . S
C2985 H2979 0.950 . S
C2985 C2984 1.327 . S
C2985 C2989 1.429 . S
C2986 C2969 1.574 . S
C2986 H2980 0.949 . S
C2986 C2990 1.368 . S
C2987 C2968 1.429 . S
C2987 C2981 1.429 . S
C2987 C2988 1.523 . S
C2988 C2969 1.368 . S
C2988 C2982 1.368 . S
C2988 C2987 1.523 . S
C2989 C2973 1.429 . S
C2989 C2985 1.429 . S
C2989 C2990 1.523 . S
C2990 C2974 1.368 . S
C2990 C2986 1.368 . S
C2990 C2989 1.523 . S
H2991 C2966 0.950 . S
H2992 C2968 0.950 . S
H2993 C2969 0.949 . S
H2994 C2971 0.950 . S
H2995 C2973 0.950 . S
C2996 C2997 1.349 . S
C2996 C2998 1.327 . S
C2996 H3021 0.950 1_455 S
C2997 C2996 1.349 . S
C2997 C3013 1.349 . S
C2998 C2996 1.327 . S
C2998 C3017 1.429 . S
C2998 H3022 0.950 1_455 S
C2999 C3016 1.574 . S
C2999 C3018 1.368 . S
C2999 H3023 0.949 . S
H3000 C3004 0.926 1_655 S
C3001 C3002 1.349 . S
C3001 C3003 1.327 . S
C3001 H3024 0.950 . S
C3002 C3001 1.349 . S
C3002 C3014 1.331 1_455 S
C3003 C3001 1.327 . S
C3003 C3019 1.429 . S
C3003 H3025 0.950 . S
C3004 H3000 0.926 1_455 S
C3004 C3012 1.580 . S
C3004 C3020 1.387 . S
H3005 C3013 0.950 . S
H3006 C3011 0.950 . S
H3007 C3012 0.949 1_655 S
H3008 C3014 0.974 . S
H3009 C3015 0.954 . S
H3010 C3016 0.949 . S
C3011 H3006 0.950 . S
C3011 C3013 1.327 . S
C3011 C3017 1.429 . S
C3012 C3004 1.580 . S
C3012 H3007 0.949 1_455 S
C3012 C3018 1.368 . S
C3013 C2997 1.349 . S
C3013 H3005 0.950 . S
C3013 C3011 1.327 . S
C3014 C3002 1.331 1_655 S
C3014 H3008 0.974 . S
C3014 C3015 1.323 . S
C3015 H3009 0.954 . S
C3015 C3014 1.323 . S
C3015 C3019 1.423 1_655 S
C3016 C2999 1.574 . S
C3016 H3010 0.949 . S
C3016 C3020 1.368 . S
C3017 C2998 1.429 . S
C3017 C3011 1.429 . S
C3017 C3018 1.523 . S
C3018 C2999 1.368 . S
C3018 C3012 1.368 . S
C3018 C3017 1.523 . S
C3019 C3003 1.429 . S
C3019 C3015 1.423 1_455 S
C3019 C3020 1.523 . S
C3020 C3004 1.387 . S
C3020 C3016 1.368 . S
C3020 C3019 1.523 . S
H3021 C2996 0.950 1_655 S
H3022 C2998 0.950 1_655 S
H3023 C2999 0.949 . S
H3024 C3001 0.950 . S
H3025 C3003 0.950 . S
C3026 C3027 1.349 . S
C3026 C3028 1.327 . S
C3026 H3051 0.950 . S
C3027 C3026 1.349 . S
C3027 C3043 1.349 . S
C3028 C3026 1.327 . S
C3028 C3047 1.429 . S
C3028 H3052 0.950 . S
C3029 C3046 1.574 . S
C3029 C3048 1.368 . S
C3029 H3053 0.949 . S
H3030 C3034 0.949 . S
C3031 C3032 1.349 . S
C3031 C3033 1.327 . S
C3031 H3054 0.950 . S
C3032 C3031 1.349 . S
C3032 C3044 1.349 . S
C3033 C3031 1.327 . S
C3033 C3049 1.429 . S
C3033 H3055 0.950 . S
C3034 H3030 0.949 . S
C3034 C3042 1.574 . S
C3034 C3050 1.368 . S
H3035 C3043 0.950 . S
H3036 C3041 0.950 . S
H3037 C3042 0.949 . S
H3038 C3044 0.950 . S
H3039 C3045 0.950 . S
H3040 C3046 0.949 . S
C3041 H3036 0.950 . S
C3041 C3043 1.327 . S
C3041 C3047 1.429 . S
C3042 C3034 1.574 . S
C3042 H3037 0.949 . S
C3042 C3048 1.368 . S
C3043 C3027 1.349 . S
C3043 H3035 0.950 . S
C3043 C3041 1.327 . S
C3044 C3032 1.349 . S
C3044 H3038 0.950 . S
C3044 C3045 1.327 . S
C3045 H3039 0.950 . S
C3045 C3044 1.327 . S
C3045 C3049 1.429 . S
C3046 C3029 1.574 . S
C3046 H3040 0.949 . S
C3046 C3050 1.368 . S
C3047 C3028 1.429 . S
C3047 C3041 1.429 . S
C3047 C3048 1.523 . S
C3048 C3029 1.368 . S
C3048 C3042 1.368 . S
C3048 C3047 1.523 . S
C3049 C3033 1.429 . S
C3049 C3045 1.429 . S
C3049 C3050 1.523 . S
C3050 C3034 1.368 . S
C3050 C3046 1.368 . S
C3050 C3049 1.523 . S
H3051 C3026 0.950 . S
H3052 C3028 0.950 . S
H3053 C3029 0.949 . S
H3054 C3031 0.950 . S
H3055 C3033 0.950 . S
C3056 C3057 1.349 . S
C3056 C3058 1.327 . S
C3056 H3081 0.950 . S
C3057 C3056 1.349 . S
C3057 C3073 1.349 . S
C3058 C3056 1.327 . S
C3058 C3077 1.429 . S
C3058 H3082 0.950 . S
C3059 C3076 1.574 . S
C3059 C3078 1.368 . S
C3059 H3083 0.949 . S
H3060 C3064 0.949 . S
C3061 C3062 1.349 . S
C3061 C3063 1.327 . S
C3061 H3084 0.950 . S
C3062 C3061 1.349 . S
C3062 C3074 1.349 . S
C3063 C3061 1.327 . S
C3063 C3079 1.429 . S
C3063 H3085 0.950 . S
C3064 H3060 0.949 . S
C3064 C3072 1.574 . S
C3064 C3080 1.368 . S
H3065 C3073 0.950 . S
H3066 C3071 0.950 . S
H3067 C3072 0.949 . S
H3068 C3074 0.950 . S
H3069 C3075 0.950 . S
H3070 C3076 0.949 . S
C3071 H3066 0.950 . S
C3071 C3073 1.327 . S
C3071 C3077 1.429 . S
C3072 C3064 1.574 . S
C3072 H3067 0.949 . S
C3072 C3078 1.368 . S
C3073 C3057 1.349 . S
C3073 H3065 0.950 . S
C3073 C3071 1.327 . S
C3074 C3062 1.349 . S
C3074 H3068 0.950 . S
C3074 C3075 1.327 . S
C3075 H3069 0.950 . S
C3075 C3074 1.327 . S
C3075 C3079 1.429 . S
C3076 C3059 1.574 . S
C3076 H3070 0.949 . S
C3076 C3080 1.368 . S
C3077 C3058 1.429 . S
C3077 C3071 1.429 . S
C3077 C3078 1.523 . S
C3078 C3059 1.368 . S
C3078 C3072 1.368 . S
C3078 C3077 1.523 . S
C3079 C3063 1.429 . S
C3079 C3075 1.429 . S
C3079 C3080 1.523 . S
C3080 C3064 1.368 . S
C3080 C3076 1.368 . S
C3080 C3079 1.523 . S
H3081 C3056 0.950 . S
H3082 C3058 0.950 . S
H3083 C3059 0.949 . S
H3084 C3061 0.950 . S
H3085 C3063 0.950 . S
C3086 C3087 1.349 . S
C3086 C3088 1.327 . S
C3086 H3111 0.950 . S
C3087 C3086 1.349 . S
C3087 C3103 1.349 . S
C3088 C3086 1.327 . S
C3088 C3107 1.429 . S
C3088 H3112 0.950 . S
C3089 C3106 1.574 . S
C3089 C3108 1.368 . S
C3089 H3113 0.949 . S
H3090 C3094 0.949 . S
C3091 C3092 1.349 . S
C3091 C3093 1.327 . S
C3091 H3114 0.950 . S
C3092 C3091 1.349 . S
C3092 C3104 1.349 . S
C3093 C3091 1.327 . S
C3093 C3109 1.429 . S
C3093 H3115 0.950 . S
C3094 H3090 0.949 . S
C3094 C3102 1.574 . S
C3094 C3110 1.368 . S
H3095 C3103 0.950 . S
H3096 C3101 0.950 . S
H3097 C3102 0.949 . S
H3098 C3104 0.950 . S
H3099 C3105 0.950 . S
H3100 C3106 0.949 . S
C3101 H3096 0.950 . S
C3101 C3103 1.327 . S
C3101 C3107 1.429 . S
C3102 C3094 1.574 . S
C3102 H3097 0.949 . S
C3102 C3108 1.368 . S
C3103 C3087 1.349 . S
C3103 H3095 0.950 . S
C3103 C3101 1.327 . S
C3104 C3092 1.349 . S
C3104 H3098 0.950 . S
C3104 C3105 1.327 . S
C3105 H3099 0.950 . S
C3105 C3104 1.327 . S
C3105 C3109 1.429 . S
C3106 C3089 1.574 . S
C3106 H3100 0.949 . S
C3106 C3110 1.368 . S
C3107 C3088 1.429 . S
C3107 C3101 1.429 . S
C3107 C3108 1.523 . S
C3108 C3089 1.368 . S
C3108 C3102 1.368 . S
C3108 C3107 1.523 . S
C3109 C3093 1.429 . S
C3109 C3105 1.429 . S
C3109 C3110 1.523 . S
C3110 C3094 1.368 . S
C3110 C3106 1.368 . S
C3110 C3109 1.523 . S
H3111 C3086 0.950 . S
H3112 C3088 0.950 . S
H3113 C3089 0.949 . S
H3114 C3091 0.950 . S
H3115 C3093 0.950 . S
C3116 C3117 1.349 . S
C3116 C3118 1.327 . S
C3116 H3141 0.950 . S
C3117 C3116 1.349 . S
C3117 C3133 1.349 . S
C3118 C3116 1.327 . S
C3118 C3137 1.429 . S
C3118 H3142 0.950 . S
C3119 C3136 1.574 . S
C3119 C3138 1.368 . S
C3119 H3143 0.949 . S
H3120 C3124 0.949 . S
C3121 C3122 1.349 . S
C3121 C3123 1.327 . S
C3121 H3144 0.950 1_655 S
C3122 C3121 1.349 . S
C3122 C3134 1.349 . S
C3123 C3121 1.327 . S
C3123 C3139 1.429 . S
C3123 H3145 0.950 . S
C3124 H3120 0.949 . S
C3124 C3132 1.574 . S
C3124 C3140 1.368 . S
H3125 C3133 0.950 . S
H3126 C3131 0.950 . S
H3127 C3132 0.949 . S
H3128 C3134 0.950 . S
H3129 C3135 0.950 . S
H3130 C3136 0.949 . S
C3131 H3126 0.950 . S
C3131 C3133 1.327 . S
C3131 C3137 1.429 . S
C3132 C3124 1.574 . S
C3132 H3127 0.949 . S
C3132 C3138 1.368 . S
C3133 C3117 1.349 . S
C3133 H3125 0.950 . S
C3133 C3131 1.327 . S
C3134 C3122 1.349 . S
C3134 H3128 0.950 . S
C3134 C3135 1.327 . S
C3135 H3129 0.950 . S
C3135 C3134 1.327 . S
C3135 C3139 1.429 . S
C3136 C3119 1.574 . S
C3136 H3130 0.949 . S
C3136 C3140 1.368 . S
C3137 C3118 1.429 . S
C3137 C3131 1.429 . S
C3137 C3138 1.523 . S
C3138 C3119 1.368 . S
C3138 C3132 1.368 . S
C3138 C3137 1.523 . S
C3139 C3123 1.429 . S
C3139 C3135 1.429 . S
C3139 C3140 1.523 . S
C3140 C3124 1.368 . S
C3140 C3136 1.368 . S
C3140 C3139 1.523 . S
H3141 C3116 0.950 . S
H3142 C3118 0.950 . S
H3143 C3119 0.949 . S
H3144 C3121 0.950 1_455 S
H3145 C3123 0.950 . S
C3146 C3147 1.349 . S
C3146 C3148 1.327 . S
C3146 H3171 0.950 . S
C3147 C3146 1.349 . S
C3147 C3163 1.349 . S
C3148 C3146 1.327 . S
C3148 C3167 1.429 . S
C3148 H3172 0.950 . S
C3149 C3166 1.574 . S
C3149 C3168 1.368 . S
C3149 H3173 0.949 . S
H3150 C3154 0.949 . S
C3151 C3152 1.349 . S
C3151 C3153 1.327 . S
C3151 H3174 0.950 . S
C3152 C3151 1.349 . S
C3152 C3164 1.349 . S
C3153 C3151 1.327 . S
C3153 C3169 1.429 . S
C3153 H3175 0.950 . S
C3154 H3150 0.949 . S
C3154 C3162 1.574 . S
C3154 C3170 1.368 . S
H3155 C3163 0.950 . S
H3156 C3161 0.950 . S
H3157 C3162 0.949 . S
H3158 C3164 0.950 . S
H3159 C3165 0.950 . S
H3160 C3166 0.949 . S
C3161 H3156 0.950 . S
C3161 C3163 1.327 . S
C3161 C3167 1.429 . S
C3162 C3154 1.574 . S
C3162 H3157 0.949 . S
C3162 C3168 1.368 . S
C3163 C3147 1.349 . S
C3163 H3155 0.950 . S
C3163 C3161 1.327 . S
C3164 C3152 1.349 . S
C3164 H3158 0.950 . S
C3164 C3165 1.327 . S
C3165 H3159 0.950 . S
C3165 C3164 1.327 . S
C3165 C3169 1.429 . S
C3166 C3149 1.574 . S
C3166 H3160 0.949 . S
C3166 C3170 1.368 . S
C3167 C3148 1.429 . S
C3167 C3161 1.429 . S
C3167 C3168 1.523 . S
C3168 C3149 1.368 . S
C3168 C3162 1.368 . S
C3168 C3167 1.523 . S
C3169 C3153 1.429 . S
C3169 C3165 1.429 . S
C3169 C3170 1.523 . S
C3170 C3154 1.368 . S
C3170 C3166 1.368 . S
C3170 C3169 1.523 . S
H3171 C3146 0.950 . S
H3172 C3148 0.950 . S
H3173 C3149 0.949 . S
H3174 C3151 0.950 . S
H3175 C3153 0.950 . S
C3176 C3177 1.349 . S
C3176 C3178 1.327 . S
C3176 H3201 0.950 . S
C3177 C3176 1.349 . S
C3177 C3193 1.349 . S
C3178 C3176 1.327 . S
C3178 C3197 1.429 . S
C3178 H3202 0.950 . S
C3179 C3196 1.574 . S
C3179 C3198 1.368 . S
C3179 H3203 0.949 . S
H3180 C3184 0.949 . S
C3181 C3182 1.349 . S
C3181 C3183 1.327 . S
C3181 H3204 0.950 . S
C3182 C3181 1.349 . S
C3182 C3194 1.349 . S
C3183 C3181 1.327 . S
C3183 C3199 1.429 . S
C3183 H3205 0.950 . S
C3184 H3180 0.949 . S
C3184 C3192 1.574 . S
C3184 C3200 1.368 . S
H3185 C3193 0.950 . S
H3186 C3191 0.950 . S
H3187 C3192 0.949 . S
H3188 C3194 0.950 . S
H3189 C3195 0.950 . S
H3190 C3196 0.949 . S
C3191 H3186 0.950 . S
C3191 C3193 1.327 . S
C3191 C3197 1.429 . S
C3192 C3184 1.574 . S
C3192 H3187 0.949 . S
C3192 C3198 1.368 . S
C3193 C3177 1.349 . S
C3193 H3185 0.950 . S
C3193 C3191 1.327 . S
C3194 C3182 1.349 . S
C3194 H3188 0.950 . S
C3194 C3195 1.327 . S
C3195 H3189 0.950 . S
C3195 C3194 1.327 . S
C3195 C3199 1.429 . S
C3196 C3179 1.574 . S
C3196 H3190 0.949 . S
C3196 C3200 1.368 . S
C3197 C3178 1.429 . S
C3197 C3191 1.429 . S
C3197 C3198 1.523 . S
C3198 C3179 1.368 . S
C3198 C3192 1.368 . S
C3198 C3197 1.523 . S
C3199 C3183 1.429 . S
C3199 C3195 1.429 . S
C3199 C3200 1.523 . S
C3200 C3184 1.368 . S
C3200 C3196 1.368 . S
C3200 C3199 1.523 . S
H3201 C3176 0.950 . S
H3202 C3178 0.950 . S
H3203 C3179 0.949 . S
H3204 C3181 0.950 . S
H3205 C3183 0.950 . S
C3206 C3207 1.349 . S
C3206 C3208 1.327 . S
C3206 H3231 0.950 . S
C3207 C3206 1.349 . S
C3207 C3223 1.349 . S
C3208 C3206 1.327 . S
C3208 C3227 1.429 . S
C3208 H3232 0.950 . S
C3209 C3226 1.574 . S
C3209 C3228 1.368 . S
C3209 H3233 0.949 . S
H3210 C3214 0.949 . S
C3211 C3212 1.349 . S
C3211 C3213 1.327 . S
C3211 H3234 0.950 . S
C3212 C3211 1.349 . S
C3212 C3224 1.349 . S
C3213 C3211 1.327 . S
C3213 C3229 1.429 . S
C3213 H3235 0.950 . S
C3214 H3210 0.949 . S
C3214 C3222 1.574 . S
C3214 C3230 1.368 . S
H3215 C3223 0.950 . S
H3216 C3221 0.950 . S
H3217 C3222 0.949 . S
H3218 C3224 0.950 . S
H3219 C3225 0.950 . S
H3220 C3226 0.949 . S
C3221 H3216 0.950 . S
C3221 C3223 1.327 . S
C3221 C3227 1.429 . S
C3222 C3214 1.574 . S
C3222 H3217 0.949 . S
C3222 C3228 1.368 . S
C3223 C3207 1.349 . S
C3223 H3215 0.950 . S
C3223 C3221 1.327 . S
C3224 C3212 1.349 . S
C3224 H3218 0.950 . S
C3224 C3225 1.327 . S
C3225 H3219 0.950 . S
C3225 C3224 1.327 . S
C3225 C3229 1.429 . S
C3226 C3209 1.574 . S
C3226 H3220 0.949 . S
C3226 C3230 1.368 . S
C3227 C3208 1.429 . S
C3227 C3221 1.429 . S
C3227 C3228 1.523 . S
C3228 C3209 1.368 . S
C3228 C3222 1.368 . S
C3228 C3227 1.523 . S
C3229 C3213 1.429 . S
C3229 C3225 1.429 . S
C3229 C3230 1.523 . S
C3230 C3214 1.368 . S
C3230 C3226 1.368 . S
C3230 C3229 1.523 . S
H3231 C3206 0.950 . S
H3232 C3208 0.950 . S
H3233 C3209 0.949 . S
H3234 C3211 0.950 . S
H3235 C3213 0.950 . S
C3236 C3237 1.349 . S
C3236 C3238 1.327 . S
C3236 H3261 0.950 . S
C3237 C3236 1.349 . S
C3237 C3253 1.349 . S
C3238 C3236 1.327 . S
C3238 C3257 1.429 . S
C3238 H3262 0.950 . S
C3239 C3256 1.574 . S
C3239 C3258 1.368 . S
C3239 H3263 0.949 . S
H3240 C3244 0.949 . S
C3241 C3242 1.349 . S
C3241 C3243 1.327 . S
C3241 H3264 0.950 . S
C3242 C3241 1.349 . S
C3242 C3254 1.349 . S
C3243 C3241 1.327 . S
C3243 C3259 1.429 . S
C3243 H3265 0.950 . S
C3244 H3240 0.949 . S
C3244 C3252 1.574 . S
C3244 C3260 1.368 . S
H3245 C3253 0.950 . S
H3246 C3251 0.950 . S
H3247 C3252 0.949 . S
H3248 C3254 0.950 . S
H3249 C3255 0.950 . S
H3250 C3256 0.949 . S
C3251 H3246 0.950 . S
C3251 C3253 1.327 . S
C3251 C3257 1.429 . S
C3252 C3244 1.574 . S
C3252 H3247 0.949 . S
C3252 C3258 1.368 . S
C3253 C3237 1.349 . S
C3253 H3245 0.950 . S
C3253 C3251 1.327 . S
C3254 C3242 1.349 . S
C3254 H3248 0.950 . S
C3254 C3255 1.327 . S
C3255 H3249 0.950 . S
C3255 C3254 1.327 . S
C3255 C3259 1.429 . S
C3256 C3239 1.574 . S
C3256 H3250 0.949 . S
C3256 C3260 1.368 . S
C3257 C3238 1.429 . S
C3257 C3251 1.429 . S
C3257 C3258 1.523 . S
C3258 C3239 1.368 . S
C3258 C3252 1.368 . S
C3258 C3257 1.523 . S
C3259 C3243 1.429 . S
C3259 C3255 1.429 . S
C3259 C3260 1.523 . S
C3260 C3244 1.368 . S
C3260 C3256 1.368 . S
C3260 C3259 1.523 . S
H3261 C3236 0.950 . S
H3262 C3238 0.950 . S
H3263 C3239 0.949 . S
H3264 C3241 0.950 . S
H3265 C3243 0.950 . S
C3266 C3267 1.349 . S
C3266 C3268 1.327 . S
C3266 H3291 0.950 . S
C3267 C3266 1.349 . S
C3267 C3283 1.349 . S
C3268 C3266 1.327 . S
C3268 C3287 1.429 . S
C3268 H3292 0.950 . S
C3269 C3286 1.574 . S
C3269 C3288 1.368 . S
C3269 H3293 0.949 . S
H3270 C3274 0.949 . S
C3271 C3272 1.349 . S
C3271 C3273 1.327 . S
C3271 H3294 0.950 . S
C3272 C3271 1.349 . S
C3272 C3284 1.349 . S
C3273 C3271 1.327 . S
C3273 C3289 1.429 . S
C3273 H3295 0.950 . S
C3274 H3270 0.949 . S
C3274 C3282 1.574 . S
C3274 C3290 1.368 . S
H3275 C3283 0.950 . S
H3276 C3281 0.950 . S
H3277 C3282 0.949 . S
H3278 C3284 0.950 . S
H3279 C3285 0.950 . S
H3280 C3286 0.949 . S
C3281 H3276 0.950 . S
C3281 C3283 1.327 . S
C3281 C3287 1.429 . S
C3282 C3274 1.574 . S
C3282 H3277 0.949 . S
C3282 C3288 1.368 . S
C3283 C3267 1.349 . S
C3283 H3275 0.950 . S
C3283 C3281 1.327 . S
C3284 C3272 1.349 . S
C3284 H3278 0.950 . S
C3284 C3285 1.327 . S
C3285 H3279 0.950 . S
C3285 C3284 1.327 . S
C3285 C3289 1.429 . S
C3286 C3269 1.574 . S
C3286 H3280 0.949 . S
C3286 C3290 1.368 . S
C3287 C3268 1.429 . S
C3287 C3281 1.429 . S
C3287 C3288 1.523 . S
C3288 C3269 1.368 . S
C3288 C3282 1.368 . S
C3288 C3287 1.523 . S
C3289 C3273 1.429 . S
C3289 C3285 1.429 . S
C3289 C3290 1.523 . S
C3290 C3274 1.368 . S
C3290 C3286 1.368 . S
C3290 C3289 1.523 . S
H3291 C3266 0.950 . S
H3292 C3268 0.950 . S
H3293 C3269 0.949 . S
H3294 C3271 0.950 . S
H3295 C3273 0.950 . S
C3296 C3297 1.349 . S
C3296 C3298 1.327 . S
C3296 H3321 0.950 . S
C3297 C3296 1.349 . S
C3297 C3313 1.349 . S
C3298 C3296 1.327 . S
C3298 C3317 1.429 . S
C3298 H3322 0.950 . S
C3299 C3316 1.574 . S
C3299 C3318 1.368 . S
C3299 H3323 0.949 . S
H3300 C3304 0.949 . S
C3301 C3302 1.349 . S
C3301 C3303 1.327 . S
C3301 H3324 0.950 . S
C3302 C3301 1.349 . S
C3302 C3314 1.349 . S
C3303 C3301 1.327 . S
C3303 C3319 1.429 . S
C3303 H3325 0.950 . S
C3304 H3300 0.949 . S
C3304 C3312 1.574 . S
C3304 C3320 1.368 . S
H3305 C3313 0.950 . S
H3306 C3311 0.950 . S
H3307 C3312 0.949 . S
H3308 C3314 0.950 . S
H3309 C3315 0.950 . S
H3310 C3316 0.949 . S
C3311 H3306 0.950 . S
C3311 C3313 1.327 . S
C3311 C3317 1.429 . S
C3312 C3304 1.574 . S
C3312 H3307 0.949 . S
C3312 C3318 1.368 . S
C3313 C3297 1.349 . S
C3313 H3305 0.950 . S
C3313 C3311 1.327 . S
C3314 C3302 1.349 . S
C3314 H3308 0.950 . S
C3314 C3315 1.327 . S
C3315 H3309 0.950 . S
C3315 C3314 1.327 . S
C3315 C3319 1.429 . S
C3316 C3299 1.574 . S
C3316 H3310 0.949 . S
C3316 C3320 1.368 . S
C3317 C3298 1.429 . S
C3317 C3311 1.429 . S
C3317 C3318 1.523 . S
C3318 C3299 1.368 . S
C3318 C3312 1.368 . S
C3318 C3317 1.523 . S
C3319 C3303 1.429 . S
C3319 C3315 1.429 . S
C3319 C3320 1.523 . S
C3320 C3304 1.368 . S
C3320 C3316 1.368 . S
C3320 C3319 1.523 . S
H3321 C3296 0.950 . S
H3322 C3298 0.950 . S
H3323 C3299 0.949 . S
H3324 C3301 0.950 . S
H3325 C3303 0.950 . S
C3326 C3327 1.349 . S
C3326 C3328 1.327 . S
C3326 H3351 0.950 . S
C3327 C3326 1.349 . S
C3327 C3343 1.349 . S
C3328 C3326 1.327 . S
C3328 C3347 1.429 . S
C3328 H3352 0.950 . S
C3329 C3346 1.574 . S
C3329 C3348 1.368 . S
C3329 H3353 0.949 . S
H3330 C3334 0.949 . S
C3331 C3332 1.384 . S
C3331 C3333 1.327 . S
C3331 H3354 0.950 . S
C3332 C3331 1.384 . S
C3332 C3344 1.332 1_565 S
C3333 C3331 1.327 . S
C3333 C3349 1.429 . S
C3333 H3355 0.950 . S
C3334 H3330 0.949 . S
C3334 C3342 1.574 . S
C3334 C3350 1.368 . S
H3335 C3343 0.950 . S
H3336 C3341 0.950 . S
H3337 C3342 0.949 . S
H3338 C3344 0.950 . S
H3339 C3345 0.950 . S
H3340 C3346 0.949 . S
C3341 H3336 0.950 . S
C3341 C3343 1.327 . S
C3341 C3347 1.429 . S
C3342 C3334 1.574 . S
C3342 H3337 0.949 . S
C3342 C3348 1.368 . S
C3343 C3327 1.349 . S
C3343 H3335 0.950 . S
C3343 C3341 1.327 . S
C3344 C3332 1.332 1_545 S
C3344 H3338 0.950 . S
C3344 C3345 1.327 1_545 S
C3345 H3339 0.950 . S
C3345 C3344 1.327 1_565 S
C3345 C3349 1.429 . S
C3346 C3329 1.574 . S
C3346 H3340 0.949 . S
C3346 C3350 1.368 . S
C3347 C3328 1.429 . S
C3347 C3341 1.429 . S
C3347 C3348 1.523 . S
C3348 C3329 1.368 . S
C3348 C3342 1.368 . S
C3348 C3347 1.523 . S
C3349 C3333 1.429 . S
C3349 C3345 1.429 . S
C3349 C3350 1.523 . S
C3350 C3334 1.368 . S
C3350 C3346 1.368 . S
C3350 C3349 1.523 . S
H3351 C3326 0.950 . S
H3352 C3328 0.950 . S
H3353 C3329 0.949 . S
H3354 C3331 0.950 . S
H3355 C3333 0.950 . S
C3356 C3357 1.349 . S
C3356 C3358 1.327 . S
C3356 H3381 0.950 . S
C3357 C3356 1.349 . S
C3357 C3373 1.349 . S
C3358 C3356 1.327 . S
C3358 C3377 1.429 . S
C3358 H3382 0.950 . S
C3359 C3376 1.574 . S
C3359 C3378 1.368 . S
C3359 H3383 0.949 . S
H3360 C3364 0.949 . S
C3361 C3362 1.349 . S
C3361 C3363 1.327 . S
C3361 H3384 0.950 . S
C3362 C3361 1.349 . S
C3362 C3374 1.349 . S
C3363 C3361 1.327 . S
C3363 C3379 1.429 . S
C3363 H3385 0.950 . S
C3364 H3360 0.949 . S
C3364 C3372 1.574 . S
C3364 C3380 1.368 . S
H3365 C3373 0.950 . S
H3366 C3371 0.950 . S
H3367 C3372 0.949 . S
H3368 C3374 0.950 . S
H3369 C3375 0.950 . S
H3370 C3376 0.949 . S
C3371 H3366 0.950 . S
C3371 C3373 1.327 . S
C3371 C3377 1.429 . S
C3372 C3364 1.574 . S
C3372 H3367 0.949 . S
C3372 C3378 1.368 . S
C3373 C3357 1.349 . S
C3373 H3365 0.950 . S
C3373 C3371 1.327 . S
C3374 C3362 1.349 . S
C3374 H3368 0.950 . S
C3374 C3375 1.327 . S
C3375 H3369 0.950 . S
C3375 C3374 1.327 . S
C3375 C3379 1.429 . S
C3376 C3359 1.574 . S
C3376 H3370 0.949 . S
C3376 C3380 1.368 . S
C3377 C3358 1.429 . S
C3377 C3371 1.429 . S
C3377 C3378 1.523 . S
C3378 C3359 1.368 . S
C3378 C3372 1.368 . S
C3378 C3377 1.523 . S
C3379 C3363 1.429 . S
C3379 C3375 1.429 . S
C3379 C3380 1.523 . S
C3380 C3364 1.368 . S
C3380 C3376 1.368 . S
C3380 C3379 1.523 . S
H3381 C3356 0.950 . S
H3382 C3358 0.950 . S
H3383 C3359 0.949 . S
H3384 C3361 0.950 . S
H3385 C3363 0.950 . S
C3386 C3387 1.349 1_554 S
C3386 C3388 1.327 . S
C3386 H3411 0.950 . S
C3387 C3386 1.349 1_556 S
C3387 C3403 1.349 . S
C3388 C3386 1.327 . S
C3388 C3407 1.437 . S
C3388 H3412 0.950 . S
C3389 C3406 1.574 . S
C3389 C3408 1.368 1_556 S
C3389 H3413 0.949 . S
H3390 C3394 0.949 . S
C3391 C3392 1.349 1_556 S
C3391 C3393 1.327 . S
C3391 H3414 0.950 . S
C3392 C3391 1.349 1_554 S
C3392 C3404 1.349 . S
C3393 C3391 1.327 . S
C3393 C3409 1.429 1_556 S
C3393 H3415 0.950 . S
C3394 H3390 0.949 . S
C3394 C3402 1.574 . S
C3394 C3410 1.368 . S
H3395 C3403 0.950 . S
H3396 C3401 0.950 . S
H3397 C3402 0.949 . S
H3398 C3404 0.950 . S
H3399 C3405 0.950 . S
H3400 C3406 0.949 . S
C3401 H3396 0.950 . S
C3401 C3403 1.327 . S
C3401 C3407 1.417 1_556 S
C3402 C3394 1.574 . S
C3402 H3397 0.949 . S
C3402 C3408 1.368 . S
C3403 C3387 1.349 . S
C3403 H3395 0.950 . S
C3403 C3401 1.327 . S
C3404 C3392 1.349 . S
C3404 H3398 0.950 . S
C3404 C3405 1.327 . S
C3405 H3399 0.950 . S
C3405 C3404 1.327 . S
C3405 C3409 1.429 . S
C3406 C3389 1.574 . S
C3406 H3400 0.949 . S
C3406 C3410 1.368 1_556 S
C3407 C3388 1.437 . S
C3407 C3401 1.417 1_554 S
C3407 C3408 1.526 . S
C3408 C3389 1.368 1_554 S
C3408 C3402 1.368 . S
C3408 C3407 1.526 . S
C3409 C3393 1.429 1_554 S
C3409 C3405 1.429 . S
C3409 C3410 1.523 . S
C3410 C3394 1.368 . S
C3410 C3406 1.368 1_554 S
C3410 C3409 1.523 . S
H3411 C3386 0.950 . S
H3412 C3388 0.950 . S
H3413 C3389 0.949 . S
H3414 C3391 0.950 . S
H3415 C3393 0.950 . S
C3416 C3417 1.349 . S
C3416 C3418 1.327 . S
C3416 H3441 0.950 . S
C3417 C3416 1.349 . S
C3417 C3433 1.349 . S
C3418 C3416 1.327 . S
C3418 C3437 1.429 . S
C3418 H3442 0.950 . S
C3419 C3436 1.574 . S
C3419 C3438 1.368 . S
C3419 H3443 0.949 . S
H3420 C3424 0.949 . S
C3421 C3422 1.349 . S
C3421 C3423 1.327 . S
C3421 H3444 0.950 . S
C3422 C3421 1.349 . S
C3422 C3434 1.349 . S
C3423 C3421 1.327 . S
C3423 C3439 1.429 . S
C3423 H3445 0.950 . S
C3424 H3420 0.949 . S
C3424 C3432 1.574 . S
C3424 C3440 1.368 . S
H3425 C3433 0.950 . S
H3426 C3431 0.950 . S
H3427 C3432 0.949 . S
H3428 C3434 0.950 . S
H3429 C3435 0.950 . S
H3430 C3436 0.949 . S
C3431 H3426 0.950 . S
C3431 C3433 1.327 . S
C3431 C3437 1.429 . S
C3432 C3424 1.574 . S
C3432 H3427 0.949 . S
C3432 C3438 1.368 . S
C3433 C3417 1.349 . S
C3433 H3425 0.950 . S
C3433 C3431 1.327 . S
C3434 C3422 1.349 . S
C3434 H3428 0.950 . S
C3434 C3435 1.327 . S
C3435 H3429 0.950 . S
C3435 C3434 1.327 . S
C3435 C3439 1.429 . S
C3436 C3419 1.574 . S
C3436 H3430 0.949 . S
C3436 C3440 1.368 . S
C3437 C3418 1.429 . S
C3437 C3431 1.429 . S
C3437 C3438 1.523 . S
C3438 C3419 1.368 . S
C3438 C3432 1.368 . S
C3438 C3437 1.523 . S
C3439 C3423 1.429 . S
C3439 C3435 1.429 . S
C3439 C3440 1.523 . S
C3440 C3424 1.368 . S
C3440 C3436 1.368 . S
C3440 C3439 1.523 . S
H3441 C3416 0.950 . S
H3442 C3418 0.950 . S
H3443 C3419 0.949 . S
H3444 C3421 0.950 . S
H3445 C3423 0.950 . S
C3446 C3447 1.349 . S
C3446 C3448 1.327 . S
C3446 H3471 0.950 . S
C3447 C3446 1.349 . S
C3447 C3463 1.349 . S
C3448 C3446 1.327 . S
C3448 C3467 1.429 . S
C3448 H3472 0.950 . S
C3449 C3466 1.574 . S
C3449 C3468 1.368 1_556 S
C3449 H3473 0.949 . S
H3450 C3454 0.949 . S
C3451 C3452 1.349 1_556 S
C3451 C3453 1.327 . S
C3451 H3474 0.950 . S
C3452 C3451 1.349 1_554 S
C3452 C3464 1.349 . S
C3453 C3451 1.327 . S
C3453 C3469 1.429 1_556 S
C3453 H3475 0.950 . S
C3454 H3450 0.949 . S
C3454 C3462 1.574 . S
C3454 C3470 1.368 . S
H3455 C3463 0.950 1_556 S
H3456 C3461 0.950 1_556 S
H3457 C3462 0.949 . S
H3458 C3464 0.950 . S
H3459 C3465 0.950 . S
H3460 C3466 0.949 . S
C3461 H3456 0.950 1_554 S
C3461 C3463 1.327 . S
C3461 C3467 1.429 . S
C3462 C3454 1.574 . S
C3462 H3457 0.949 . S
C3462 C3468 1.368 . S
C3463 C3447 1.349 . S
C3463 H3455 0.950 1_554 S
C3463 C3461 1.327 . S
C3464 C3452 1.349 . S
C3464 H3458 0.950 . S
C3464 C3465 1.327 . S
C3465 H3459 0.950 . S
C3465 C3464 1.327 . S
C3465 C3469 1.429 . S
C3466 C3449 1.574 . S
C3466 H3460 0.949 . S
C3466 C3470 1.368 1_556 S
C3467 C3448 1.429 . S
C3467 C3461 1.429 . S
C3467 C3468 1.523 . S
C3468 C3449 1.368 1_554 S
C3468 C3462 1.368 . S
C3468 C3467 1.523 . S
C3469 C3453 1.429 1_554 S
C3469 C3465 1.429 . S
C3469 C3470 1.523 . S
C3470 C3454 1.368 . S
C3470 C3466 1.368 1_554 S
C3470 C3469 1.523 . S
H3471 C3446 0.950 . S
H3472 C3448 0.950 . S
H3473 C3449 0.949 . S
H3474 C3451 0.950 . S
H3475 C3453 0.950 . S
C3476 C3477 1.349 . S
C3476 C3478 1.327 . S
C3476 H3501 0.950 . S
C3477 C3476 1.349 . S
C3477 C3493 1.349 . S
C3478 C3476 1.327 . S
C3478 C3497 1.429 . S
C3478 H3502 0.950 . S
C3479 C3496 1.574 . S
C3479 C3498 1.368 . S
C3479 H3503 0.949 . S
H3480 C3484 0.949 . S
C3481 C3482 1.349 . S
C3481 C3483 1.327 . S
C3481 H3504 0.950 . S
C3482 C3481 1.349 . S
C3482 C3494 1.349 . S
C3483 C3481 1.327 . S
C3483 C3499 1.429 . S
C3483 H3505 0.950 . S
C3484 H3480 0.949 . S
C3484 C3492 1.574 . S
C3484 C3500 1.368 . S
H3485 C3493 0.950 . S
H3486 C3491 0.950 . S
H3487 C3492 0.949 . S
H3488 C3494 0.950 . S
H3489 C3495 0.950 . S
H3490 C3496 0.949 . S
C3491 H3486 0.950 . S
C3491 C3493 1.327 . S
C3491 C3497 1.429 . S
C3492 C3484 1.574 . S
C3492 H3487 0.949 . S
C3492 C3498 1.368 . S
C3493 C3477 1.349 . S
C3493 H3485 0.950 . S
C3493 C3491 1.327 . S
C3494 C3482 1.349 . S
C3494 H3488 0.950 . S
C3494 C3495 1.327 . S
C3495 H3489 0.950 . S
C3495 C3494 1.327 . S
C3495 C3499 1.429 . S
C3496 C3479 1.574 . S
C3496 H3490 0.949 . S
C3496 C3500 1.368 . S
C3497 C3478 1.429 . S
C3497 C3491 1.429 . S
C3497 C3498 1.523 . S
C3498 C3479 1.368 . S
C3498 C3492 1.368 . S
C3498 C3497 1.523 . S
C3499 C3483 1.429 . S
C3499 C3495 1.429 . S
C3499 C3500 1.523 . S
C3500 C3484 1.368 . S
C3500 C3496 1.368 . S
C3500 C3499 1.523 . S
H3501 C3476 0.950 . S
H3502 C3478 0.950 . S
H3503 C3479 0.949 . S
H3504 C3481 0.950 . S
H3505 C3483 0.950 . S
C3506 C3507 1.349 . S
C3506 C3508 1.327 . S
C3506 H3531 0.950 . S
C3507 C3506 1.349 . S
C3507 C3523 1.349 . S
C3508 C3506 1.327 . S
C3508 C3527 1.429 . S
C3508 H3532 0.950 . S
C3509 C3526 1.574 . S
C3509 C3528 1.368 . S
C3509 H3533 0.949 . S
H3510 C3514 0.949 . S
C3511 C3512 1.349 . S
C3511 C3513 1.327 . S
C3511 H3534 0.950 . S
C3512 C3511 1.349 . S
C3512 C3524 1.349 . S
C3513 C3511 1.327 . S
C3513 C3529 1.429 . S
C3513 H3535 0.950 . S
C3514 H3510 0.949 . S
C3514 C3522 1.574 . S
C3514 C3530 1.368 . S
H3515 C3523 0.950 . S
H3516 C3521 0.950 . S
H3517 C3522 0.949 . S
H3518 C3524 0.950 . S
H3519 C3525 0.950 . S
H3520 C3526 0.949 . S
C3521 H3516 0.950 . S
C3521 C3523 1.327 . S
C3521 C3527 1.429 . S
C3522 C3514 1.574 . S
C3522 H3517 0.949 . S
C3522 C3528 1.368 . S
C3523 C3507 1.349 . S
C3523 H3515 0.950 . S
C3523 C3521 1.327 . S
C3524 C3512 1.349 . S
C3524 H3518 0.950 . S
C3524 C3525 1.327 . S
C3525 H3519 0.950 . S
C3525 C3524 1.327 . S
C3525 C3529 1.429 . S
C3526 C3509 1.574 . S
C3526 H3520 0.949 . S
C3526 C3530 1.368 . S
C3527 C3508 1.429 . S
C3527 C3521 1.429 . S
C3527 C3528 1.523 . S
C3528 C3509 1.368 . S
C3528 C3522 1.368 . S
C3528 C3527 1.523 . S
C3529 C3513 1.429 . S
C3529 C3525 1.429 . S
C3529 C3530 1.523 . S
C3530 C3514 1.368 . S
C3530 C3526 1.368 . S
C3530 C3529 1.523 . S
H3531 C3506 0.950 . S
H3532 C3508 0.950 . S
H3533 C3509 0.949 . S
H3534 C3511 0.950 . S
H3535 C3513 0.950 . S
C657 C109 1.136 . S
C662 C352 1.113 1_556 S
C687 C65 1.197 . S
C692 C365 1.183 . S
C717 C75 1.254 . S
C722 C384 1.235 . S
C752 C415 1.986 . S
C747 C84 2.027 . S
C777 C25 1.775 . S
C782 C435 1.752 . S
C812 C452 0.695 . S
C807 C28 0.693 . S
C842 C465 1.505 . S
C837 C47 1.511 . S
C867 C9 0.919 . S
C872 C492 0.903 . S
C902 C345 1.174 1_655 S
C897 C233 1.197 . S
C927 C249 1.336 . S
C932 C375 1.322 . S
C962 C377 1.711 . S
C957 C275 1.756 . S
C992 C412 0.754 . S
C987 C173 0.754 . S
C1017 C224 1.077 . S
C1022 C432 1.078 . S
C1052 C445 1.794 . S
C1047 C243 1.798 . S
C1082 C475 1.158 . S
C1077 C266 1.176 . S
C1112 C485 1.068 . S
C1107 C179 1.084 . S
C1142 C355 1.585 . S
C1137 C163 1.616 . S
C1167 C289 1.852 . S
C1172 C505 1.833 . S
C1202 C535 1.544 . S
C1197 C333 1.550 . S
C1232 C552 1.047 . S
C1227 C308 1.058 . S
C1257 C123 1.987 . S
C1262 C495 1.966 . S
C1287 C126 1.221 . S
C1292 C382 1.205 . S
C1317 C327 1.931 . S
C1322 C565 1.916 . S
C1352 C592 0.875 . S
C1347 C299 0.885 . S
C1382 C342 1.132 . S
C1377 C67 1.158 . S
C1412 C577 1.206 . S
C1407 C98 1.214 . S
C1437 C89 1.285 . S
C1442 C395 1.266 . S
C1467 C79 2.072 . S
C1472 C564 2.033 . S
C1502 C424 1.780 . S
C1497 C11 1.806 . S
C1527 C51 0.722 . S
C1532 C522 0.724 . S
C1562 C457 1.538 1_556 S
C1557 C33 1.544 . S
C1592 C602 0.915 . S
C1587 C14 0.936 . S
C1622 C337 1.169 . S
C1617 C140 1.178 . S
C1652 C584 1.340 . S
C1647 C319 1.363 . S
C1677 C112 1.762 . S
C1682 C385 1.731 . S
C1707 C285 0.784 . S
C1712 C562 0.783 . S
C1737 C149 1.127 . S
C1742 C422 1.114 . S
C1772 C517 1.833 . S
C1767 C313 1.838 . S
C1797 C121 1.257 . S
C1802 C464 1.225 . S
C1827 C291 1.122 . S
C1832 C597 1.106 . S
C1857 C182 1.626 . S
C1862 C344 1.600 . S
C1887 C168 1.856 . S
C1892 C497 1.849 . S
C1917 C263 1.605 . S
C1922 C444 1.592 . S
C1947 C247 1.121 . S
C1952 C542 1.101 . S
C1982 C604 1.971 . S
C1977 C277 1.997 . S
C2007 C219 1.269 . S
C2012 C392 1.232 1_565 S
C2042 C397 1.957 . S
C2037 C257 1.973 . S
C2072 C362 0.886 . S
C2067 C201 0.897 . S
C2097 C81 1.136 . S
C2102 C632 1.113 . S
C2132 C585 1.183 . S
C2127 C93 1.197 . S
C2157 C103 1.254 . S
C2162 C644 1.254 1_556 S
C2187 C56 2.027 . S
C2192 C575 1.986 . S
C2217 C53 1.775 . S
C2222 C515 1.752 . S
C2252 C532 0.695 . S
C2247 C0 0.693 . S
C2282 C545 1.504 1_655 S
C2277 C19 1.510 . S
C2312 C612 0.903 . S
C2307 C37 0.919 . S
C2342 C625 1.180 . S
C2337 C261 1.197 . S
C2367 C193 1.336 . S
C2372 C595 1.326 . S
C2402 C637 1.711 . S
C2397 C205 1.756 . S
C2432 C572 0.754 . S
C2427 C215 0.754 . S
C2462 C512 1.078 . S
C2457 C252 1.077 . S
C2487 C187 1.798 . S
C2492 C525 1.789 . S
C2522 C555 1.158 . S
C2517 C196 1.176 . S
C2547 C221 1.084 . S
C2552 C605 1.068 . S
C2582 C635 1.585 . S
C2577 C317 1.616 . S
C2607 C135 1.852 . S
C2612 C425 1.833 . S
C2642 C455 1.545 . S
C2637 C151 1.556 . S
C2672 C472 1.047 . S
C2667 C154 1.058 . S
C2702 C615 1.966 . S
C2697 C305 1.987 . S
C2727 C280 1.221 . S
C2732 C642 1.205 . S
C2762 C405 1.915 . S
C2757 C145 1.924 . S
C2792 C372 0.875 . S
C2787 C117 0.885 1_565 S
C2817 C95 1.158 . S
C2822 C622 1.132 . S
C2852 C357 1.206 . S
C2847 C70 1.214 . S
C2877 C61 1.285 . S
C2882 C655 1.265 . S
C2907 C107 2.073 . S
C2912 C404 2.033 . S
C2937 C39 1.806 . S
C2942 C504 1.780 1_556 S
C2972 C442 0.723 . S
C2967 C23 0.716 . S
C2997 C5 1.544 . S
C3002 C537 1.538 . S
C3027 C42 0.929 . S
C3032 C482 0.915 . S
C3062 C617 1.169 . S
C3057 C322 1.177 . S
C3087 C165 1.363 . S
C3092 C364 1.340 . S
C3122 C645 1.728 1_655 S
C3117 C294 1.762 . S
C3147 C131 0.784 . S
C3152 C402 0.783 . S
C3177 C331 1.127 . S
C3182 C502 1.117 . S
C3212 C437 1.833 . S
C3207 C159 1.838 . S
C3237 C303 1.257 . S
C3242 C544 1.225 . S
C3272 C477 1.106 . S
C3267 C137 1.122 . S
C3302 C624 1.600 . S
C3297 C238 1.626 . S
C3332 C417 1.830 1_565 S
C3327 C210 1.856 . S
C3357 C235 1.605 . S
C3362 C524 1.593 . S
C3392 C462 1.101 . S
C3387 C191 1.120 . S
C3417 C207 1.997 . S
C3422 C484 1.971 . S
C3447 C177 1.269 . S
C3452 C652 1.232 . S
C3482 C557 1.957 . S
C3477 C229 1.973 1_565 S
C3512 C582 0.887 . S
C3507 C271 0.897 . S
