# Generated by pormake.
# Topology hwx, (6,3)-cn, num edge types: 1
# Building blocks:
#     Node 0, Type 0, BuildingBlock: OJICUG_clean_sbu_0, # of connection points: 6
#     Node 1, Type 0, BuildingBlock: OJICUG_clean_sbu_0, # of connection points: 6
#     Node 2, Type 0, BuildingBlock: OJICUG_clean_sbu_0, # of connection points: 6
#     Node 3, Type 0, BuildingBlock: OJICUG_clean_sbu_0, # of connection points: 6
#     Node 4, Type 1, BuildingBlock: WUSLED_clean_sbu_0, # of connection points: 3
#     Node 5, Type 1, BuildingBlock: WUSLED_clean_sbu_0, # of connection points: 3
#     Node 6, Type 1, BuildingBlock: WUSLED_clean_sbu_0, # of connection points: 3
#     Node 7, Type 1, BuildingBlock: WUSLED_clean_sbu_0, # of connection points: 3
#     Node 8, Type 1, BuildingBlock: WUSLED_clean_sbu_0, # of connection points: 3
#     Node 9, Type 1, BuildingBlock: WUSLED_clean_sbu_0, # of connection points: 3
#     Node 10, Type 1, BuildingBlock: WUSLED_clean_sbu_0, # of connection points: 3
#     Node 11, Type 1, BuildingBlock: WUSLED_clean_sbu_0, # of connection points: 3
#     Edge 12, Type (0, 1), BuildingBlock: XUDNAN_clean_linker_2, # of connection points: 2
#     Edge 13, Type (0, 1), BuildingBlock: XUDNAN_clean_linker_2, # of connection points: 2
#     Edge 14, Type (0, 1), BuildingBlock: XUDNAN_clean_linker_2, # of connection points: 2
#     Edge 15, Type (0, 1), BuildingBlock: XUDNAN_clean_linker_2, # of connection points: 2
#     Edge 16, Type (0, 1), BuildingBlock: XUDNAN_clean_linker_2, # of connection points: 2
#     Edge 17, Type (0, 1), BuildingBlock: XUDNAN_clean_linker_2, # of connection points: 2
#     Edge 18, Type (0, 1), BuildingBlock: XUDNAN_clean_linker_2, # of connection points: 2
#     Edge 19, Type (0, 1), BuildingBlock: XUDNAN_clean_linker_2, # of connection points: 2
#     Edge 20, Type (0, 1), BuildingBlock: XUDNAN_clean_linker_2, # of connection points: 2
#     Edge 21, Type (0, 1), BuildingBlock: XUDNAN_clean_linker_2, # of connection points: 2
#     Edge 22, Type (0, 1), BuildingBlock: XUDNAN_clean_linker_2, # of connection points: 2
#     Edge 23, Type (0, 1), BuildingBlock: XUDNAN_clean_linker_2, # of connection points: 2
#     Edge 24, Type (0, 1), BuildingBlock: XUDNAN_clean_linker_2, # of connection points: 2
#     Edge 25, Type (0, 1), BuildingBlock: XUDNAN_clean_linker_2, # of connection points: 2
#     Edge 26, Type (0, 1), BuildingBlock: XUDNAN_clean_linker_2, # of connection points: 2
#     Edge 27, Type (0, 1), BuildingBlock: XUDNAN_clean_linker_2, # of connection points: 2
#     Edge 28, Type (0, 1), BuildingBlock: XUDNAN_clean_linker_2, # of connection points: 2
#     Edge 29, Type (0, 1), BuildingBlock: XUDNAN_clean_linker_2, # of connection points: 2
#     Edge 30, Type (0, 1), BuildingBlock: XUDNAN_clean_linker_2, # of connection points: 2
#     Edge 31, Type (0, 1), BuildingBlock: XUDNAN_clean_linker_2, # of connection points: 2
#     Edge 32, Type (0, 1), BuildingBlock: XUDNAN_clean_linker_2, # of connection points: 2
#     Edge 33, Type (0, 1), BuildingBlock: XUDNAN_clean_linker_2, # of connection points: 2
#     Edge 34, Type (0, 1), BuildingBlock: XUDNAN_clean_linker_2, # of connection points: 2
#     Edge 35, Type (0, 1), BuildingBlock: XUDNAN_clean_linker_2, # of connection points: 2
# Relax obj value: 0.072
# Max RMSD: 0.099
# Mean RMSD: 0.090
data_MOF--net-hwx--node1-OJICUG_clean_sbu_0--node2-WUSLED_clean_sbu_0--edge1-XUDNAN_clean_linker_2
_symmetry_space_group_name_H-M    P1
_symmetry_Int_Tables_number       1
_symmetry_cell_setting            triclinic
loop_
_symmetry_equiv_pos_as_xyz
'x, y, z'
_cell_length_a     64.812942
_cell_length_b     65.046466
_cell_length_c     29.219671
_cell_angle_alpha  90.367624
_cell_angle_beta   90.544225
_cell_angle_gamma 89.894994
loop_
_atom_site_label
_atom_site_type_symbol
_atom_site_fract_x
_atom_site_fract_y
_atom_site_fract_z
_atom_type_partial_charge
Sc0 Sc 0.2363 0.24471 0.07399 0.0
Sc1 Sc 0.2104 0.20538 0.01285 0.0
Sc2 Sc 0.24263 0.2399 0.95445 0.0
O3 O 0.22977 0.23001 0.01375 0.0
C4 C 0.23363 0.28273 0.0053 0.0
C5 C 0.18852 0.23509 0.08611 0.0
C6 C 0.19585 0.23029 0.92428 0.0
C7 C 0.23662 0.19717 0.10364 0.0
C8 C 0.28052 0.24312 0.0252 0.0
C9 C 0.24333 0.19134 0.93815 0.0
O10 O 0.23271 0.27521 0.04535 0.0
O11 O 0.18878 0.22008 0.05807 0.0
O12 O 0.21308 0.23932 0.91829 0.0
O13 O 0.24098 0.21608 0.10964 0.0
O14 O 0.2734 0.24134 0.98455 0.0
O15 O 0.22901 0.18746 0.96622 0.0
O16 O 0.26891 0.24468 0.05997 0.0
O17 O 0.22608 0.19068 0.06953 0.0
O18 O 0.25005 0.20936 0.93128 0.0
O19 O 0.20437 0.24595 0.09515 0.0
O20 O 0.23699 0.27176 0.97001 0.0
O21 O 0.19282 0.21782 0.95687 0.0
Sc22 Sc 0.27107 0.74651 0.4609 0.0
Sc23 Sc 0.29772 0.7074 0.5205 0.0
Sc24 Sc 0.26068 0.73819 0.57678 0.0
O25 O 0.27653 0.73069 0.51941 0.0
C26 C 0.27045 0.78255 0.53565 0.0
C27 C 0.31926 0.73916 0.45246 0.0
C28 C 0.30685 0.72997 0.61487 0.0
C29 C 0.27374 0.69942 0.4268 0.0
C30 C 0.22544 0.74287 0.5002 0.0
C31 C 0.26281 0.68986 0.58745 0.0
O32 O 0.2721 0.77624 0.49452 0.0
O33 O 0.31933 0.72289 0.47633 0.0
O34 O 0.28827 0.73618 0.61865 0.0
O35 O 0.26909 0.71832 0.42168 0.0
O36 O 0.23108 0.74074 0.54174 0.0
O37 O 0.27946 0.6881 0.56496 0.0
O38 O 0.23825 0.74481 0.46793 0.0
O39 O 0.28358 0.69259 0.46151 0.0
O40 O 0.25316 0.70679 0.59132 0.0
O41 O 0.30326 0.75011 0.44642 0.0
O42 O 0.26674 0.77054 0.56877 0.0
O43 O 0.31344 0.7205 0.57955 0.0
Sc44 Sc 0.76735 0.76626 0.9446 0.0
Sc45 Sc 0.80066 0.80179 0.99965 0.0
Sc46 Sc 0.76561 0.77217 0.06402 0.0
O47 O 0.77789 0.78013 1.00278 0.0
C48 C 0.72546 0.77315 1.00027 0.0
C49 C 0.77232 0.81316 0.91328 0.0
C50 C 0.77229 0.82057 0.07855 0.0
C51 C 0.81556 0.7694 0.92385 0.0
C52 C 0.76777 0.72838 0.01326 0.0
C53 C 0.81384 0.77529 0.08709 0.0
O54 O 0.73554 0.76982 0.96381 0.0
O55 O 0.78548 0.81807 0.94413 0.0
O56 O 0.76382 0.80355 0.0883 0.0
O57 O 0.79789 0.76125 0.91853 0.0
O58 O 0.76619 0.73973 0.04862 0.0
O59 O 0.81813 0.78779 0.05515 0.0
O60 O 0.76875 0.73569 0.97308 0.0
O61 O 0.81891 0.78419 0.95162 0.0
O62 O 0.7958 0.76834 0.09385 0.0
O63 O 0.76475 0.79519 0.90965 0.0
O64 O 0.73409 0.77482 0.03945 0.0
O65 O 0.78551 0.82228 0.04695 0.0
Sc66 Sc 0.74051 0.27186 0.55455 0.0
Sc67 Sc 0.7124 0.30624 0.48488 0.0
Sc68 Sc 0.73911 0.26501 0.43424 0.0
O69 O 0.73067 0.28099 0.49126 0.0
C70 C 0.78105 0.26593 0.4938 0.0
C71 C 0.74267 0.32097 0.5647 0.0
C72 C 0.74157 0.31136 0.39837 0.0
C73 C 0.69382 0.28459 0.574 0.0
C74 C 0.73263 0.22839 0.50486 0.0
C75 C 0.69196 0.27566 0.4113 0.0
O76 O 0.77253 0.26958 0.53226 0.0
O77 O 0.73136 0.32467 0.52995 0.0
O78 O 0.74677 0.2925 0.3967 0.0
O79 O 0.70949 0.27335 0.58297 0.0
O80 O 0.73288 0.23542 0.46434 0.0
O81 O 0.69115 0.29072 0.43922 0.0
O82 O 0.73536 0.2397 0.54004 0.0
O83 O 0.69337 0.2971 0.54076 0.0
O84 O 0.70821 0.26495 0.40556 0.0
O85 O 0.74677 0.30281 0.57795 0.0
O86 O 0.77074 0.26359 0.45684 0.0
O87 O 0.72929 0.31843 0.42823 0.0
C88 C 0.24861 0.54892 0.87849 0.0
C89 C 0.24056 0.56848 0.88846 0.0
C90 C 0.24633 0.57927 0.80995 0.0
C91 C 0.23934 0.58346 0.85447 0.0
C92 C 0.25498 0.55988 0.80042 0.0
C93 C 0.25601 0.54479 0.8344 0.0
U94 U 0.25064 0.53289 0.00333 0.0
O95 O 0.2322 0.51038 0.04081 0.0
O96 O 0.2658 0.50656 0.03711 0.0
C97 C 0.24814 0.49839 0.04916 0.0
C98 C 0.2489 0.5327 0.91352 0.0
C99 C 0.24537 0.47639 0.03788 0.0
C100 C 0.22926 0.44907 0.99301 0.0
C101 C 0.23207 0.47001 1.00236 0.0
C102 C 0.25329 0.44056 0.05398 0.0
C103 C 0.23987 0.43404 0.01862 0.0
C104 C 0.25596 0.46151 0.06354 0.0
C105 C 0.25458 0.57713 0.09317 0.0
C106 C 0.237 0.58767 0.16278 0.0
C107 C 0.27165 0.59971 0.14851 0.0
C108 C 0.2719 0.58854 0.10742 0.0
C109 C 0.25395 0.59989 0.17593 0.0
C110 C 0.2373 0.57639 0.12189 0.0
C111 C 0.25393 0.56836 0.04626 0.0
O112 O 0.26626 0.53066 0.93668 0.0
O113 O 0.23248 0.53195 0.93954 0.0
O114 O 0.23626 0.5606 0.03209 0.0
O115 O 0.27001 0.55752 0.0332 0.0
H116 H 0.23499 0.5721 0.92243 0.0
H117 H 0.23291 0.59837 0.86304 0.0
H118 H 0.26043 0.55621 0.76641 0.0
H119 H 0.26233 0.52981 0.82611 0.0
H120 H 0.21858 0.44469 0.96597 0.0
H121 H 0.22372 0.48118 0.98198 0.0
H122 H 0.26198 0.42951 0.07394 0.0
H123 H 0.26634 0.46611 0.09101 0.0
H124 H 0.22324 0.58733 0.1835 0.0
H125 H 0.28488 0.60911 0.15751 0.0
H126 H 0.28534 0.58953 0.08578 0.0
H127 H 0.22369 0.56774 0.11205 0.0
C128 C 0.95987 0.75627 0.63953 0.0
C129 C 0.93958 0.75156 0.62602 0.0
C130 C 0.92833 0.75378 0.70508 0.0
C131 C 0.924 0.75024 0.65847 0.0
C132 C 0.94854 0.75917 0.71842 0.0
C133 C 0.96424 0.76029 0.68582 0.0
U134 U 0.9745 0.75603 0.51558 0.0
O135 O 0.99956 0.7706 0.4773 0.0
O136 O 0.99655 0.73693 0.47735 0.0
C137 C 0.00763 0.75283 0.46508 0.0
C138 C 0.97636 0.7563 0.60527 0.0
C139 C 0.0302 0.75044 0.46981 0.0
C140 C 0.0637 0.76086 0.50044 0.0
C141 C 0.04211 0.76258 0.49999 0.0
C142 C 0.06156 0.7344 0.44191 0.0
C143 C 0.07367 0.74704 0.47064 0.0
C144 C 0.0401 0.73614 0.44144 0.0
C145 C 0.92826 0.75622 0.43065 0.0
C146 C 0.92561 0.76663 0.35086 0.0
C147 C 0.90084 0.74277 0.3819 0.0
C148 C 0.91079 0.74384 0.42438 0.0
C149 C 0.9081 0.75412 0.34459 0.0
C150 C 0.93569 0.76761 0.39353 0.0
C151 C 0.93783 0.75721 0.47662 0.0
O152 O 0.97745 0.73941 0.58049 0.0
O153 O 0.97772 0.77311 0.58072 0.0
O154 O 0.94849 0.77379 0.48714 0.0
O155 O 0.94654 0.74014 0.49097 0.0
H156 H 0.93587 0.74858 0.59035 0.0
H157 H 0.90851 0.7464 0.64708 0.0
H158 H 0.9523 0.76193 0.75412 0.0
H159 H 0.97981 0.764 0.69681 0.0
H160 H 0.07261 0.77085 0.52285 0.0
H161 H 0.03481 0.77368 0.52241 0.0
H162 H 0.0687 0.72332 0.41918 0.0
H163 H 0.03122 0.72654 0.41809 0.0
H164 H 0.93162 0.77548 0.32269 0.0
H165 H 0.88718 0.73328 0.37853 0.0
H166 H 0.90471 0.73506 0.45261 0.0
H167 H 0.94919 0.77727 0.39749 0.0
C168 C 0.76782 0.45643 0.11993 0.0
C169 C 0.76829 0.43653 0.10124 0.0
C170 C 0.76773 0.4218 0.17766 0.0
C171 C 0.76824 0.41938 0.12979 0.0
C172 C 0.76713 0.44183 0.19622 0.0
C173 C 0.76721 0.45901 0.16754 0.0
U174 U 0.76924 0.47698 1.00008 0.0
O175 O 0.75269 0.5023 0.96627 0.0
O176 O 0.78656 0.50246 0.96947 0.0
C177 C 0.76971 0.51265 0.95851 0.0
C178 C 0.76806 0.47437 0.08956 0.0
C179 C 0.76953 0.53458 0.97157 0.0
C180 C 0.75952 0.56246 0.0226 0.0
C181 C 0.75963 0.5415 0.01132 0.0
C182 C 0.77944 0.56975 0.95491 0.0
C183 C 0.76943 0.57687 0.99453 0.0
C184 C 0.77944 0.54883 0.94356 0.0
C185 C 0.77089 0.43528 0.90485 0.0
C186 C 0.75683 0.43403 0.82738 0.0
C187 C 0.78411 0.41055 0.84972 0.0
C188 C 0.78449 0.41931 0.89349 0.0
C189 C 0.76999 0.41751 0.81638 0.0
C190 C 0.75729 0.44286 0.8712 0.0
C191 C 0.77024 0.44255 0.95274 0.0
O192 O 0.78527 0.47683 0.06679 0.0
O193 O 0.75146 0.47662 0.06387 0.0
O194 O 0.75304 0.45137 0.96621 0.0
O195 O 0.78694 0.45171 0.96852 0.0
H196 H 0.76868 0.43426 0.06448 0.0
H197 H 0.76835 0.40421 0.11429 0.0
H198 H 0.76692 0.44424 0.23292 0.0
H199 H 0.76687 0.47429 0.18251 0.0
H200 H 0.75144 0.56737 0.05304 0.0
H201 H 0.75192 0.53075 0.03352 0.0
H202 H 0.78753 0.5803 0.93291 0.0
H203 H 0.78725 0.54376 0.91286 0.0
H204 H 0.74563 0.43965 0.80273 0.0
H205 H 0.79471 0.39812 0.84221 0.0
H206 H 0.79512 0.41325 0.9189 0.0
H207 H 0.74663 0.4552 0.87906 0.0
C208 C 0.04485 0.25958 0.37099 0.0
C209 C 0.06192 0.2728 0.36782 0.0
C210 C 0.07288 0.2556 0.2976 0.0
C211 C 0.07575 0.27086 0.33145 0.0
C212 C 0.05588 0.24228 0.30132 0.0
C213 C 0.04201 0.24432 0.33741 0.0
U214 U 0.03235 0.26138 0.49859 0.0
O215 O 0.00954 0.27952 0.53703 0.0
O216 O 0.00775 0.24587 0.53671 0.0
C217 C 0.99874 0.26324 0.54823 0.0
C218 C 0.02991 0.2612 0.40889 0.0
C219 C 0.97638 0.2643 0.53844 0.0
C220 C 0.94776 0.27089 0.48612 0.0
C221 C 0.96898 0.27067 0.49553 0.0
C222 C 0.94098 0.25853 0.56248 0.0
C223 C 0.93346 0.26458 0.51925 0.0
C224 C 0.96223 0.25838 0.57191 0.0
C225 C 0.0794 0.25742 0.58127 0.0
C226 C 0.07907 0.26047 0.66418 0.0
C227 C 0.11016 0.24934 0.62581 0.0
C228 C 0.10005 0.25109 0.58359 0.0
C229 C 0.09981 0.25394 0.66672 0.0
C230 C 0.06893 0.26217 0.62177 0.0
C231 C 0.06928 0.25864 0.53611 0.0
O232 O 0.02782 0.24455 0.43366 0.0
O233 O 0.03034 0.27819 0.43356 0.0
O234 O 0.06045 0.27623 0.5257 0.0
O235 O 0.05827 0.24257 0.52377 0.0
H236 H 0.0646 0.28468 0.39331 0.0
H237 H 0.08851 0.28153 0.32954 0.0
H238 H 0.05336 0.23006 0.27658 0.0
H239 H 0.02905 0.23386 0.33922 0.0
H240 H 0.94258 0.27599 0.45272 0.0
H241 H 0.97963 0.2753 0.46917 0.0
H242 H 0.93051 0.25334 0.58863 0.0
H243 H 0.96765 0.25335 0.6052 0.0
H244 H 0.07068 0.26433 0.69495 0.0
H245 H 0.12597 0.24392 0.62637 0.0
H246 H 0.10834 0.24728 0.55262 0.0
H247 H 0.05296 0.26709 0.62059 0.0
C248 C 0.75163 0.96 0.63426 0.0
C249 C 0.75052 0.93984 0.61706 0.0
C250 C 0.75238 0.92622 0.69439 0.0
C251 C 0.75086 0.92314 0.64679 0.0
C252 C 0.7541 0.94643 0.7115 0.0
C253 C 0.75364 0.96322 0.6816 0.0
U254 U 0.74977 0.97818 0.51278 0.0
O255 O 0.73001 1.00083 0.47767 0.0
O256 O 0.76368 0.00455 0.47791 0.0
C257 C 0.74567 0.01267 0.46725 0.0
C258 C 0.75021 0.97743 0.60254 0.0
C259 C 0.74306 0.03467 0.47803 0.0
C260 C 0.74703 0.06398 0.52941 0.0
C261 C 0.74964 0.04299 0.52011 0.0
C262 C 0.73101 0.0685 0.45492 0.0
C263 C 0.73767 0.07703 0.49691 0.0
C264 C 0.73371 0.04755 0.44562 0.0
C265 C 0.75379 0.93405 0.42345 0.0
C266 C 0.74957 0.93687 0.34097 0.0
C267 C 0.75996 0.90445 0.37452 0.0
C268 C 0.75933 0.91338 0.41802 0.0
C269 C 0.75501 0.91602 0.3354 0.0
C270 C 0.74895 0.94583 0.38473 0.0
C271 C 0.75316 0.9427 0.46998 0.0
O272 O 0.76682 0.98072 0.57818 0.0
O273 O 0.73312 0.97803 0.57798 0.0
O274 O 0.73542 0.9505 0.48295 0.0
O275 O 0.76911 0.95387 0.48264 0.0
H276 H 0.74913 0.93705 0.58056 0.0
H277 H 0.74985 0.90776 0.63249 0.0
H278 H 0.75522 0.94927 0.74801 0.0
H279 H 0.75456 0.97869 0.69543 0.0
H280 H 0.75259 0.07002 0.56186 0.0
H281 H 0.75686 0.03328 0.54568 0.0
H282 H 0.72345 0.07794 0.42939 0.0
H283 H 0.72842 0.04137 0.41304 0.0
H284 H 0.74556 0.94618 0.31159 0.0
H285 H 0.76464 0.8885 0.37153 0.0
H286 H 0.76322 0.9041 0.44756 0.0
H287 H 0.74464 0.96185 0.38838 0.0
C288 C 0.54903 0.25507 0.8561 0.0
C289 C 0.55699 0.27509 0.85226 0.0
C290 C 0.57975 0.2641 0.79088 0.0
C291 C 0.57212 0.27952 0.82013 0.0
C292 C 0.57213 0.24399 0.79511 0.0
C293 C 0.55682 0.23955 0.82722 0.0
U294 U 0.53282 0.24734 0.97931 0.0
O295 O 0.50663 0.25943 0.0183 0.0
O296 O 0.51094 0.22601 0.0117 0.0
C297 C 0.49915 0.24107 0.02663 0.0
C298 C 0.5327 0.2504 0.88989 0.0
C299 C 0.47656 0.23847 0.02157 0.0
C300 C 0.44279 0.25064 0.99578 0.0
C301 C 0.46443 0.25147 0.99391 0.0
C302 C 0.44523 0.22321 0.05118 0.0
C303 C 0.43298 0.23692 0.02557 0.0
C304 C 0.46674 0.22401 0.04922 0.0
C305 C 0.5775 0.25237 0.06759 0.0
C306 C 0.57443 0.25047 0.1503 0.0
C307 C 0.60768 0.25713 0.11624 0.0
C308 C 0.59866 0.25613 0.07273 0.0
C309 C 0.59571 0.25436 0.15563 0.0
C310 C 0.56539 0.24947 0.10655 0.0
C311 C 0.5686 0.25194 0.02118 0.0
O312 O 0.53428 0.23267 0.91106 0.0
O313 O 0.52741 0.26558 0.91738 0.0
O314 O 0.55642 0.26738 0.01055 0.0
O315 O 0.56165 0.23408 0.00656 0.0
H316 H 0.55149 0.28748 0.87391 0.0
H317 H 0.57786 0.29512 0.81809 0.0
H318 H 0.57758 0.23183 0.77276 0.0
H319 H 0.55097 0.224 0.82924 0.0
H320 H 0.4338 0.26143 0.97572 0.0
H321 H 0.47162 0.26279 0.97222 0.0
H322 H 0.43816 0.21222 0.07387 0.0
H323 H 0.47575 0.21384 0.07083 0.0
H324 H 0.5648 0.24813 0.17989 0.0
H325 H 0.624 0.26056 0.11897 0.0
H326 H 0.60821 0.25851 0.04299 0.0
H327 H 0.54899 0.24655 0.1031 0.0
C328 C 0.25969 0.05184 0.38523 0.0
C329 C 0.25826 0.07189 0.40287 0.0
C330 C 0.25853 0.08586 0.32576 0.0
C331 C 0.25768 0.08871 0.37347 0.0
C332 C 0.25942 0.06568 0.30811 0.0
C333 C 0.26008 0.04879 0.33769 0.0
U334 U 0.2632 0.03365 0.5065 0.0
O335 O 0.25037 0.00706 0.54248 0.0
O336 O 0.28397 0.01155 0.54056 0.0
C337 C 0.26869 0.9996 0.55288 0.0
C338 C 0.26169 0.0344 0.41679 0.0
C339 C 0.27186 0.97723 0.54707 0.0
C340 C 0.26008 0.94331 0.52252 0.0
C341 C 0.25809 0.96479 0.52179 0.0
C342 C 0.29005 0.94652 0.57211 0.0
C343 C 0.27577 0.93395 0.54874 0.0
C344 C 0.28808 0.96789 0.57134 0.0
C345 C 0.26031 0.0764 0.5986 0.0
C346 C 0.24584 0.09919 0.65632 0.0
C347 C 0.2777 0.08096 0.67216 0.0
C348 C 0.27658 0.07163 0.62891 0.0
C349 C 0.26252 0.09511 0.68604 0.0
C350 C 0.24481 0.08999 0.613 0.0
C351 C 0.25988 0.06869 0.55094 0.0
O352 O 0.27906 0.03407 0.44033 0.0
O353 O 0.24542 0.03086 0.44212 0.0
O354 O 0.24385 0.05746 0.53893 0.0
O355 O 0.27738 0.06171 0.53453 0.0
H356 H 0.25789 0.07453 0.43951 0.0
H357 H 0.25664 0.10401 0.38815 0.0
H358 H 0.2602 0.06299 0.27155 0.0
H359 H 0.26123 0.03341 0.32352 0.0
H360 H 0.24878 0.93404 0.50431 0.0
H361 H 0.24541 0.97158 0.50274 0.0
H362 H 0.30252 0.93981 0.59196 0.0
H363 H 0.29888 0.97714 0.5911 0.0
H364 H 0.23403 0.11019 0.66575 0.0
H365 H 0.29062 0.07735 0.6945 0.0
H366 H 0.28871 0.0611 0.61885 0.0
H367 H 0.23217 0.09396 0.59015 0.0
C368 C 0.43434 0.74849 0.11733 0.0
C369 C 0.418 0.73557 0.12928 0.0
C370 C 0.41786 0.74997 0.2064 0.0
C371 C 0.40986 0.73626 0.17336 0.0
C372 C 0.43474 0.76243 0.19478 0.0
C373 C 0.44296 0.76166 0.15064 0.0
U374 U 0.47513 0.75214 0.02197 0.0
O375 O 0.49865 0.77176 0.05496 0.0
O376 O 0.5026 0.73823 0.05397 0.0
C377 C 0.51091 0.75616 0.06399 0.0
C378 C 0.44108 0.74879 0.06929 0.0
C379 C 0.53261 0.75889 0.05094 0.0
C380 C 0.5669 0.7716 0.06988 0.0
C381 C 0.54624 0.76868 0.08151 0.0
C382 C 0.56058 0.75487 0.9968 0.0
C383 C 0.57437 0.76472 0.02737 0.0
C384 C 0.53988 0.75205 0.0084 0.0
C385 C 0.45388 0.75089 0.90102 0.0
C386 C 0.4362 0.73503 0.83588 0.0
C387 C 0.41906 0.76149 0.88011 0.0
C388 C 0.43641 0.76323 0.90851 0.0
C389 C 0.41855 0.74714 0.84386 0.0
C390 C 0.4537 0.73692 0.86419 0.0
C391 C 0.4719 0.75196 0.93243 0.0
O392 O 0.45181 0.73282 0.05529 0.0
O393 O 0.44809 0.76639 0.05402 0.0
O394 O 0.47355 0.7689 0.95701 0.0
O395 O 0.47564 0.73524 0.95621 0.0
H396 H 0.4111 0.72535 0.10404 0.0
H397 H 0.3967 0.72665 0.18092 0.0
H398 H 0.44138 0.77299 0.21962 0.0
H399 H 0.45569 0.77168 0.14229 0.0
H400 H 0.57694 0.77953 0.09397 0.0
H401 H 0.54085 0.77418 0.1144 0.0
H402 H 0.56582 0.74912 0.96404 0.0
H403 H 0.52957 0.7445 0.98423 0.0
H404 H 0.43632 0.7237 0.80857 0.0
H405 H 0.40597 0.7714 0.88678 0.0
H406 H 0.436 0.77413 0.93669 0.0
H407 H 0.46697 0.72719 0.85784 0.0
H408 H 0.18276 0.25024 0.17334 0.0
H409 H 0.14977 0.22961 0.05161 0.0
H410 H 0.11665 0.23469 0.09113 0.0
H411 H 0.15068 0.22451 0.25186 0.0
H412 H 0.15174 0.24433 0.29521 0.0
H413 H 0.17284 0.24115 0.25615 0.0
H414 H 0.16937 0.27927 0.232 0.0
H415 H 0.14827 0.28258 0.27111 0.0
H416 H 0.14484 0.28872 0.21145 0.0
H417 H 0.08726 0.24072 0.14415 0.0
H418 H 0.0634 0.24599 0.20823 0.0
H419 H 0.11531 0.26062 0.29777 0.0
C420 C 0.16853 0.2472 0.15481 0.0
C421 C 0.1688 0.23972 0.10926 0.0
C422 C 0.1499 0.23539 0.08648 0.0
C423 C 0.13101 0.23829 0.10858 0.0
C424 C 0.13125 0.24535 0.15367 0.0
C425 C 0.14948 0.24969 0.17668 0.0
C426 C 0.14539 0.2557 0.22606 0.0
C427 C 0.15578 0.24051 0.25927 0.0
C428 C 0.15238 0.27789 0.23571 0.0
C429 C 0.12206 0.25388 0.22721 0.0
C430 C 0.11424 0.24812 0.18493 0.0
C431 C 0.0932 0.24518 0.17749 0.0
C432 C 0.07978 0.24804 0.21431 0.0
C433 C 0.08738 0.25355 0.2584 0.0
C434 C 0.10887 0.25665 0.26455 0.0
H435 H 0.28455 0.65565 0.61513 0.0
H436 H 0.22407 0.68429 0.62142 0.0
H437 H 0.21261 0.6574 0.67447 0.0
H438 H 0.26669 0.60149 0.62447 0.0
H439 H 0.28841 0.59435 0.65995 0.0
H440 H 0.29111 0.61431 0.61793 0.0
H441 H 0.30404 0.63931 0.68126 0.0
H442 H 0.30121 0.61954 0.72351 0.0
H443 H 0.28827 0.64387 0.73081 0.0
H444 H 0.20874 0.62987 0.73275 0.0
H445 H 0.21235 0.6026 0.79064 0.0
H446 H 0.27531 0.59164 0.74749 0.0
C447 C 0.26872 0.65593 0.62661 0.0
C448 C 0.25517 0.67204 0.61381 0.0
C449 C 0.23473 0.67211 0.6306 0.0
C450 C 0.22805 0.65687 0.66072 0.0
C451 C 0.24196 0.6416 0.67374 0.0
C452 C 0.26182 0.64088 0.65699 0.0
C453 C 0.27411 0.62364 0.67905 0.0
C454 C 0.28045 0.60749 0.64321 0.0
C455 C 0.29302 0.63211 0.70521 0.0
C456 C 0.25819 0.61512 0.71154 0.0
C457 C 0.23972 0.62564 0.70766 0.0
C458 C 0.22304 0.62136 0.73574 0.0
C459 C 0.22529 0.60596 0.76874 0.0
C460 C 0.24408 0.595 0.77354 0.0
C461 C 0.26066 0.59955 0.74414 0.0
H462 H 0.84288 0.79827 0.13339 0.0
H463 H 0.82121 0.73594 0.11162 0.0
H464 H 0.84638 0.72335 0.16895 0.0
H465 H 0.89809 0.78575 0.15858 0.0
H466 H 0.89997 0.80499 0.20309 0.0
H467 H 0.88271 0.80882 0.15513 0.0
H468 H 0.85223 0.814 0.21079 0.0
H469 H 0.86936 0.81016 0.25881 0.0
H470 H 0.84669 0.79436 0.25216 0.0
H471 H 0.87131 0.71779 0.23249 0.0
H472 H 0.89319 0.7197 0.30181 0.0
H473 H 0.89766 0.78587 0.28662 0.0
C474 C 0.84395 0.78193 0.13987 0.0
C475 C 0.83044 0.76796 0.11773 0.0
C476 C 0.83162 0.74678 0.12807 0.0
C477 C 0.8459 0.7395 0.16039 0.0
C478 C 0.85874 0.75365 0.18244 0.0
C479 C 0.85788 0.77444 0.17287 0.0
C480 C 0.87179 0.78655 0.20524 0.0
C481 C 0.88917 0.79715 0.17893 0.0
C482 C 0.85926 0.80218 0.23341 0.0
C483 C 0.88018 0.76938 0.23506 0.0
C484 C 0.87271 0.75051 0.22069 0.0
C485 C 0.87738 0.73245 0.24393 0.0
C486 C 0.88971 0.73372 0.28345 0.0
C487 C 0.89707 0.75293 0.29978 0.0
C488 C 0.89254 0.77093 0.27462 0.0
H489 H 0.75745 0.31993 0.65284 0.0
H490 H 0.74333 0.36189 0.54185 0.0
H491 H 0.75146 0.39134 0.59266 0.0
H492 H 0.73391 0.34881 0.73831 0.0
H493 H 0.75256 0.34279 0.78241 0.0
H494 H 0.74821 0.32503 0.7359 0.0
H495 H 0.78714 0.32584 0.71641 0.0
H496 H 0.79164 0.34355 0.76311 0.0
H497 H 0.7995 0.35015 0.70606 0.0
H498 H 0.75834 0.4163 0.65771 0.0
H499 H 0.76353 0.43458 0.73137 0.0
H500 H 0.77185 0.37603 0.79962 0.0
C501 C 0.75655 0.33527 0.63876 0.0
C502 C 0.74989 0.33855 0.59318 0.0
C503 C 0.74847 0.35895 0.57658 0.0
C504 C 0.75309 0.37579 0.60516 0.0
C505 C 0.75911 0.37199 0.65025 0.0
C506 C 0.76092 0.35222 0.66687 0.0
C507 C 0.76616 0.35227 0.71746 0.0
C508 C 0.7492 0.3416 0.74513 0.0
C509 C 0.78737 0.34237 0.72626 0.0
C510 C 0.76665 0.37516 0.72694 0.0
C511 C 0.76274 0.38631 0.68772 0.0
C512 C 0.76158 0.40772 0.68856 0.0
C513 C 0.7644 0.41796 0.73062 0.0
C514 C 0.7682 0.40678 0.77135 0.0
C515 C 0.76945 0.38509 0.76908 0.0
H516 H 0.68989 0.2525 0.33239 0.0
H517 H 0.6524 0.28949 0.42384 0.0
H518 H 0.62253 0.28514 0.37169 0.0
H519 H 0.67074 0.27327 0.23129 0.0
H520 H 0.67127 0.24963 0.19881 0.0
H521 H 0.68893 0.25332 0.24598 0.0
H522 H 0.67577 0.21989 0.28354 0.0
H523 H 0.65811 0.21601 0.23626 0.0
H524 H 0.64858 0.21686 0.294 0.0
H525 H 0.59765 0.27949 0.30613 0.0
H526 H 0.58006 0.27349 0.2319 0.0
H527 H 0.6337 0.24004 0.18357 0.0
C528 C 0.67529 0.25929 0.34206 0.0
C529 C 0.67351 0.27126 0.38241 0.0
C530 C 0.65418 0.28023 0.39318 0.0
C531 C 0.63708 0.27779 0.36384 0.0
C532 C 0.6395 0.26629 0.32386 0.0
C533 C 0.6581 0.25712 0.31303 0.0
C534 C 0.6571 0.2469 0.26633 0.0
C535 C 0.67294 0.25635 0.23369 0.0
C536 C 0.66006 0.22352 0.27029 0.0
C537 C 0.63522 0.25223 0.25208 0.0
C538 C 0.62522 0.26318 0.28594 0.0
C539 C 0.60523 0.27066 0.27963 0.0
C540 C 0.59531 0.26709 0.23739 0.0
C541 C 0.60545 0.25626 0.20183 0.0
C542 C 0.62555 0.24847 0.20987 0.0
H543 H 0.22178 0.15953 0.89958 0.0
H544 H 0.28286 0.18635 0.90893 0.0
H545 H 0.29548 0.16124 0.85175 0.0
H546 H 0.23786 0.10519 0.87648 0.0
H547 H 0.21708 0.10132 0.83591 0.0
H548 H 0.21381 0.11877 0.88349 0.0
H549 H 0.204 0.14787 0.82715 0.0
H550 H 0.20738 0.13061 0.77948 0.0
H551 H 0.22153 0.15442 0.782 0.0
H552 H 0.30056 0.13581 0.78831 0.0
H553 H 0.29741 0.11325 0.72039 0.0
H554 H 0.23258 0.10394 0.74942 0.0
C555 C 0.23797 0.1596 0.89073 0.0
C556 C 0.25148 0.17457 0.90921 0.0
C557 C 0.27236 0.17481 0.89547 0.0
C558 C 0.27966 0.16059 0.86316 0.0
C559 C 0.26582 0.14635 0.8446 0.0
C560 C 0.24539 0.14577 0.85779 0.0
C561 C 0.23315 0.13066 0.82866 0.0
C562 C 0.225 0.11293 0.85789 0.0
C563 C 0.21548 0.14155 0.8028 0.0
C564 C 0.24973 0.12329 0.79624 0.0
C565 C 0.26855 0.1322 0.80664 0.0
C566 C 0.28598 0.1285 0.78023 0.0
C567 C 0.28405 0.1156 0.7418 0.0
C568 C 0.26478 0.10674 0.72973 0.0
C569 C 0.24751 0.11047 0.75782 0.0
H570 H 0.34581 0.71324 0.40867 0.0
H571 H 0.33368 0.7777 0.43578 0.0
H572 H 0.3616 0.78731 0.38299 0.0
H573 H 0.40292 0.71732 0.38979 0.0
H574 H 0.40202 0.69884 0.34358 0.0
H575 H 0.3841 0.69696 0.39018 0.0
H576 H 0.35359 0.69765 0.33227 0.0
H577 H 0.37134 0.6997 0.28563 0.0
H578 H 0.35135 0.71872 0.29274 0.0
H579 H 0.38766 0.79001 0.32091 0.0
H580 H 0.40862 0.78576 0.25147 0.0
H581 H 0.40297 0.71949 0.26203 0.0
C582 C 0.34961 0.72933 0.40478 0.0
C583 C 0.33794 0.74475 0.42691 0.0
C584 C 0.34267 0.76569 0.41952 0.0
C585 C 0.35852 0.77127 0.38973 0.0
C586 C 0.36936 0.75572 0.3673 0.0
C587 C 0.36511 0.73516 0.37441 0.0
C588 C 0.3771 0.72158 0.34169 0.0
C589 C 0.39245 0.70787 0.36788 0.0
C590 C 0.36247 0.70866 0.31129 0.0
C591 C 0.38823 0.73773 0.31415 0.0
C592 C 0.3839 0.7573 0.33012 0.0
C593 C 0.39144 0.77476 0.30857 0.0
C594 C 0.40342 0.77218 0.26921 0.0
C595 C 0.40755 0.75229 0.2514 0.0
C596 C 0.40011 0.73489 0.27482 0.0
H597 H 0.78865 0.85182 0.89792 0.0
H598 H 0.74045 0.80995 0.85176 0.0
H599 H 0.72952 0.83493 0.79359 0.0
H600 H 0.75922 0.89924 0.88102 0.0
H601 H 0.78116 0.91348 0.86103 0.0
H602 H 0.78481 0.89274 0.90091 0.0
H603 H 0.81039 0.87523 0.84524 0.0
H604 H 0.80681 0.8959 0.8052 0.0
H605 H 0.80226 0.86971 0.78728 0.0
H606 H 0.72446 0.86339 0.73851 0.0
H607 H 0.72558 0.89404 0.68944 0.0
H608 H 0.77694 0.91793 0.76989 0.0
C609 C 0.77567 0.84798 0.87589 0.0
C610 C 0.76545 0.82883 0.87959 0.0
C611 C 0.74863 0.82442 0.8497 0.0
C612 C 0.74223 0.83855 0.81653 0.0
C613 C 0.75273 0.85711 0.81351 0.0
C614 C 0.76906 0.86194 0.84233 0.0
C615 C 0.77803 0.88278 0.83062 0.0
C616 C 0.77566 0.89796 0.87079 0.0
C617 C 0.80071 0.88078 0.81622 0.0
C618 C 0.7643 0.88875 0.79045 0.0
C619 C 0.74979 0.87371 0.78139 0.0
C620 C 0.73571 0.87532 0.74531 0.0
C621 C 0.73656 0.89273 0.71746 0.0
C622 C 0.75139 0.90833 0.72569 0.0
C623 C 0.7653 0.90636 0.76304 0.0
H624 H 0.85224 0.7888 0.90472 0.0
H625 H 0.81715 0.73335 0.87536 0.0
H626 H 0.84369 0.72227 0.82065 0.0
H627 H 0.86711 0.79803 0.79188 0.0
H628 H 0.8926 0.80731 0.80595 0.0
H629 H 0.87211 0.80999 0.8467 0.0
H630 H 0.89397 0.79058 0.90729 0.0
H631 H 0.91461 0.78792 0.86675 0.0
H632 H 0.90412 0.76546 0.89379 0.0
H633 H 0.87212 0.71849 0.76461 0.0
H634 H 0.90112 0.72205 0.71116 0.0
H635 H 0.91803 0.77991 0.77587 0.0
C636 C 0.85035 0.77411 0.88755 0.0
C637 C 0.8326 0.76192 0.89454 0.0
C638 C 0.83057 0.74299 0.87064 0.0
C639 C 0.8456 0.73651 0.83956 0.0
C640 C 0.86265 0.74908 0.83273 0.0
C641 C 0.86519 0.76744 0.85615 0.0
C642 C 0.88431 0.77865 0.8402 0.0
C643 C 0.87869 0.79974 0.81998 0.0
C644 C 0.9002 0.78077 0.87934 0.0
C645 C 0.89183 0.76392 0.80352 0.0
C646 C 0.87916 0.74691 0.80007 0.0
C647 C 0.88228 0.73163 0.76725 0.0
C648 C 0.8987 0.73386 0.73687 0.0
C649 C 0.9118 0.75125 0.73939 0.0
C650 C 0.90844 0.76632 0.7736 0.0
H651 H 0.73017 0.35153 0.38389 0.0
H652 H 0.77077 0.30357 0.33274 0.0
H653 H 0.78281 0.32703 0.2725 0.0
H654 H 0.7149 0.37076 0.2754 0.0
H655 H 0.71412 0.39725 0.29377 0.0
H656 H 0.70953 0.37707 0.33427 0.0
H657 H 0.73889 0.39118 0.38637 0.0
H658 H 0.74357 0.41144 0.34602 0.0
H659 H 0.76432 0.39458 0.36312 0.0
H660 H 0.78961 0.35543 0.21628 0.0
H661 H 0.79053 0.38647 0.16819 0.0
H662 H 0.74494 0.4155 0.25535 0.0
C663 C 0.74176 0.34595 0.36038 0.0
C664 C 0.74956 0.32565 0.36327 0.0
C665 C 0.76455 0.31902 0.33137 0.0
C666 C 0.77151 0.33225 0.29703 0.0
C667 C 0.76335 0.35207 0.295 0.0
C668 C 0.74881 0.3589 0.32585 0.0
C669 C 0.74198 0.38067 0.31537 0.0
C670 C 0.71876 0.38147 0.30402 0.0
C671 C 0.74753 0.39533 0.35508 0.0
C672 C 0.75485 0.385 0.27356 0.0
C673 C 0.76713 0.36834 0.26247 0.0
C674 C 0.78006 0.36856 0.22468 0.0
C675 C 0.78038 0.38623 0.1974 0.0
C676 C 0.76778 0.40345 0.20786 0.0
C677 C 0.75496 0.40275 0.24672 0.0
H678 H 0.19655 0.24875 0.83915 0.0
H679 H 0.15534 0.22051 0.93682 0.0
H680 H 0.1262 0.22533 0.88347 0.0
H681 H 0.15953 0.28676 0.79541 0.0
H682 H 0.16841 0.28447 0.73733 0.0
H683 H 0.18602 0.28004 0.78436 0.0
H684 H 0.19464 0.244 0.75132 0.0
H685 H 0.17704 0.24831 0.7043 0.0
H686 H 0.17402 0.22604 0.74002 0.0
H687 H 0.10171 0.2315 0.81857 0.0
H688 H 0.08367 0.23817 0.74549 0.0
H689 H 0.14026 0.26287 0.68965 0.0
C690 C 0.18136 0.2438 0.84954 0.0
C691 C 0.17833 0.23423 0.89231 0.0
C692 C 0.15818 0.22779 0.90426 0.0
C693 C 0.14145 0.23053 0.87424 0.0
C694 C 0.14499 0.23977 0.83225 0.0
C695 C 0.16441 0.24634 0.81981 0.0
C696 C 0.16407 0.25502 0.77174 0.0
C697 C 0.16985 0.27794 0.77226 0.0
C698 C 0.17828 0.2426 0.73998 0.0
C699 C 0.14153 0.25198 0.75901 0.0
C700 C 0.13078 0.24332 0.79457 0.0
C701 C 0.1099 0.2385 0.79059 0.0
C702 C 0.09974 0.24247 0.74898 0.0
C703 C 0.11045 0.25114 0.71172 0.0
C704 C 0.13162 0.25611 0.71725 0.0
H705 H 0.29406 0.66551 0.39247 0.0
H706 H 0.23745 0.70082 0.37996 0.0
H707 H 0.22537 0.67755 0.31832 0.0
H708 H 0.3004 0.65785 0.27271 0.0
H709 H 0.3108 0.63223 0.27749 0.0
H710 H 0.31427 0.65036 0.32373 0.0
H711 H 0.29745 0.62476 0.37972 0.0
H712 H 0.29392 0.60653 0.3336 0.0
H713 H 0.27212 0.61472 0.36698 0.0
H714 H 0.21968 0.65134 0.25726 0.0
H715 H 0.22178 0.62528 0.19587 0.0
H716 H 0.28279 0.60763 0.24417 0.0
C717 C 0.279 0.66809 0.37713 0.0
C718 C 0.26657 0.68482 0.39113 0.0
C719 C 0.24718 0.68807 0.36966 0.0
C720 C 0.24015 0.67489 0.33481 0.0
C721 C 0.25281 0.65866 0.32141 0.0
C722 C 0.2719 0.65528 0.3415 0.0
C723 C 0.28304 0.63762 0.31812 0.0
C724 C 0.30332 0.64496 0.29674 0.0
C725 C 0.28685 0.61985 0.35161 0.0
C726 C 0.26728 0.63175 0.28161 0.0
C727 C 0.24984 0.64391 0.2847 0.0
C728 C 0.23321 0.64164 0.2546 0.0
C729 C 0.2345 0.6267 0.22001 0.0
C730 C 0.25237 0.61433 0.21539 0.0
C731 C 0.26893 0.61687 0.24686 0.0
H732 H 0.3496 0.72918 0.61684 0.0
H733 H 0.29601 0.738 0.70307 0.0
H734 H 0.31875 0.74259 0.77016 0.0
H735 H 0.3807 0.70134 0.69862 0.0
H736 H 0.40454 0.71358 0.68313 0.0
H737 H 0.38417 0.71066 0.64123 0.0
H738 H 0.38446 0.7499 0.62667 0.0
H739 H 0.4049 0.75293 0.66837 0.0
H740 H 0.38133 0.76742 0.67416 0.0
H741 H 0.34673 0.74531 0.82825 0.0
H742 H 0.37868 0.74823 0.8738 0.0
H743 H 0.4148 0.73962 0.75058 0.0
C744 C 0.34267 0.73204 0.64985 0.0
C745 C 0.32097 0.7332 0.65457 0.0
C746 C 0.31255 0.73715 0.69837 0.0
C747 C 0.32534 0.7397 0.73683 0.0
C748 C 0.34658 0.73844 0.73107 0.0
C749 C 0.35527 0.7349 0.68874 0.0
C750 C 0.37866 0.73486 0.69219 0.0
C751 C 0.38753 0.71386 0.67795 0.0
C752 C 0.38788 0.75232 0.66366 0.0
C753 C 0.38168 0.73878 0.7431 0.0
C754 C 0.36292 0.74068 0.76474 0.0
C755 C 0.36154 0.7441 0.81165 0.0
C756 C 0.37983 0.74589 0.8372 0.0
C757 C 0.39936 0.74449 0.81587 0.0
C758 C 0.40019 0.7407 0.76809 0.0
H759 H 0.75222 0.82171 0.16087 0.0
H760 H 0.78288 0.86078 0.06271 0.0
H761 H 0.77886 0.89042 0.11505 0.0
H762 H 0.71565 0.86079 0.20464 0.0
H763 H 0.71785 0.85143 0.26241 0.0
H764 H 0.72085 0.83396 0.2148 0.0
H765 H 0.75663 0.82295 0.24666 0.0
H766 H 0.75382 0.84045 0.29409 0.0
H767 H 0.77601 0.84225 0.25762 0.0
H768 H 0.77445 0.9151 0.18136 0.0
H769 H 0.77025 0.93248 0.25618 0.0
H770 H 0.74231 0.87726 0.31036 0.0
C771 C 0.75766 0.83658 0.14978 0.0
C772 C 0.76778 0.83887 0.10745 0.0
C773 C 0.77503 0.85859 0.09485 0.0
C774 C 0.77277 0.87556 0.12433 0.0
C775 C 0.76317 0.87262 0.16626 0.0
C776 C 0.75564 0.85363 0.17885 0.0
C777 C 0.74735 0.85416 0.22711 0.0
C778 C 0.72404 0.84983 0.22723 0.0
C779 C 0.75916 0.83906 0.25818 0.0
C780 C 0.75187 0.87627 0.24015 0.0
C781 C 0.76078 0.88676 0.20447 0.0
C782 C 0.76721 0.90711 0.20933 0.0
C783 C 0.76469 0.9169 0.25192 0.0
C784 C 0.75594 0.90628 0.28922 0.0
C785 C 0.74919 0.88579 0.28271 0.0
H786 H 0.68319 0.25603 0.64072 0.0
H787 H 0.66211 0.31202 0.57432 0.0
H788 H 0.63107 0.31207 0.62133 0.0
H789 H 0.63235 0.23281 0.6495 0.0
H790 H 0.6372 0.22173 0.70496 0.0
H791 H 0.65824 0.22569 0.66614 0.0
H792 H 0.67749 0.24718 0.72797 0.0
H793 H 0.65653 0.24324 0.767 0.0
H794 H 0.66475 0.26897 0.75373 0.0
H795 H 0.60264 0.30705 0.67493 0.0
H796 H 0.57768 0.29672 0.73338 0.0
H797 H 0.61567 0.24371 0.7665 0.0
C798 C 0.67205 0.26828 0.63615 0.0
C799 C 0.67522 0.28398 0.60351 0.0
C800 C 0.66015 0.2997 0.59865 0.0
C801 C 0.64238 0.29994 0.62532 0.0
C802 C 0.63967 0.28431 0.65682 0.0
C803 C 0.65396 0.26872 0.66249 0.0
C804 C 0.6469 0.25382 0.69907 0.0
C805 C 0.64347 0.23223 0.67869 0.0
C806 C 0.66234 0.25328 0.73933 0.0
C807 C 0.62659 0.26366 0.71305 0.0
C808 C 0.62284 0.28124 0.68807 0.0
C809 C 0.60536 0.29331 0.6948 0.0
C810 C 0.59132 0.28737 0.72825 0.0
C811 C 0.59475 0.26949 0.75469 0.0
C812 C 0.61257 0.25737 0.7466 0.0
H813 H 0.22474 0.15674 0.11454 0.0
H814 H 0.26476 0.20389 0.17252 0.0
H815 H 0.27572 0.17997 0.23304 0.0
H816 H 0.20774 0.13683 0.22045 0.0
H817 H 0.20725 0.11038 0.20163 0.0
H818 H 0.20341 0.1307 0.16086 0.0
H819 H 0.23364 0.11661 0.11244 0.0
H820 H 0.23756 0.0962 0.15306 0.0
H821 H 0.25861 0.11301 0.13891 0.0
H822 H 0.28132 0.15177 0.28912 0.0
H823 H 0.28116 0.12089 0.33757 0.0
H824 H 0.2373 0.09185 0.24454 0.0
C825 C 0.236 0.16198 0.13961 0.0
C826 C 0.24388 0.18226 0.13859 0.0
C827 C 0.25842 0.1885 0.17248 0.0
C828 C 0.26481 0.17499 0.207 0.0
C829 C 0.25657 0.15525 0.2073 0.0
C830 C 0.24251 0.14869 0.17453 0.0
C831 C 0.23547 0.12689 0.18389 0.0
C832 C 0.21208 0.12617 0.19221 0.0
C833 C 0.2417 0.11232 0.14474 0.0
C834 C 0.24759 0.12235 0.22732 0.0
C835 C 0.25973 0.13891 0.24002 0.0
C836 C 0.27192 0.13868 0.27949 0.0
C837 C 0.27161 0.12112 0.30696 0.0
C838 C 0.25915 0.10398 0.29502 0.0
C839 C 0.24714 0.1046 0.25434 0.0
H840 H 0.23446 0.31332 0.07151 0.0
H841 H 0.22884 0.30345 0.9247 0.0
H842 H 0.22853 0.34086 0.9128 0.0
H843 H 0.20165 0.35942 0.07669 0.0
H844 H 0.21758 0.3717 0.11971 0.0
H845 H 0.21597 0.34406 0.11718 0.0
H846 H 0.25577 0.34185 0.11117 0.0
H847 H 0.25749 0.36946 0.11331 0.0
H848 H 0.26864 0.35548 0.06615 0.0
H849 H 0.23117 0.37912 0.91585 0.0
H850 H 0.23549 0.41588 0.934 0.0
H851 H 0.2385 0.40144 0.0789 0.0
C852 C 0.23283 0.319 0.03691 0.0
C853 C 0.23167 0.30533 0.99908 0.0
C854 C 0.22981 0.31351 0.95432 0.0
C855 C 0.22959 0.33478 0.94714 0.0
C856 C 0.23118 0.34778 0.985 0.0
C857 C 0.23263 0.34027 0.02905 0.0
C858 C 0.23487 0.35767 0.06356 0.0
C859 C 0.21641 0.35825 0.09621 0.0
C860 C 0.25541 0.35601 0.0901 0.0
C861 C 0.23475 0.37607 0.03191 0.0
C862 C 0.23254 0.37 0.98678 0.0
C863 C 0.23263 0.3841 0.95114 0.0
C864 C 0.23498 0.40501 0.96186 0.0
C865 C 0.23717 0.41173 0.00793 0.0
C866 C 0.237 0.39692 0.0433 0.0
H867 H 0.19171 0.74477 0.55797 0.0
H868 H 0.20851 0.74138 0.41441 0.0
H869 H 0.17189 0.74226 0.39243 0.0
H870 H 0.14616 0.71277 0.54839 0.0
H871 H 0.13137 0.72777 0.58852 0.0
H872 H 0.15908 0.72675 0.59375 0.0
H873 H 0.16065 0.7665 0.59052 0.0
H874 H 0.13296 0.76764 0.58512 0.0
H875 H 0.1489 0.7797 0.54284 0.0
H876 H 0.13396 0.74371 0.38494 0.0
H877 H 0.09622 0.74541 0.39252 0.0
H878 H 0.1029 0.74773 0.5405 0.0
C879 C 0.18768 0.74415 0.52194 0.0
C880 C 0.20312 0.74306 0.488 0.0
C881 C 0.19711 0.74233 0.44119 0.0
C882 C 0.17629 0.74279 0.42824 0.0
C883 C 0.16153 0.74401 0.46237 0.0
C884 C 0.16685 0.74467 0.50824 0.0
C885 C 0.14771 0.74607 0.53775 0.0
C886 C 0.14598 0.72721 0.56894 0.0
C887 C 0.14755 0.76618 0.56571 0.0
C888 C 0.1309 0.74607 0.50116 0.0
C889 C 0.13933 0.74485 0.45798 0.0
C890 C 0.12713 0.74456 0.41855 0.0
C891 C 0.10569 0.74541 0.42326 0.0
C892 C 0.09655 0.7465 0.46709 0.0
C893 C 0.10941 0.74699 0.50655 0.0
H894 H 0.76581 0.69801 0.94693 0.0
H895 H 0.77147 0.70733 0.0939 0.0
H896 H 0.77256 0.66982 0.10491 0.0
H897 H 0.73276 0.65375 0.95205 0.0
H898 H 0.74451 0.64096 0.90396 0.0
H899 H 0.74445 0.66862 0.90739 0.0
H900 H 0.78426 0.6689 0.89997 0.0
H901 H 0.78444 0.64124 0.89654 0.0
H902 H 0.79978 0.65423 0.93957 0.0
H903 H 0.77327 0.63127 0.10022 0.0
H904 H 0.77322 0.5944 0.08004 0.0
H905 H 0.76596 0.61003 0.93647 0.0
C906 C 0.76733 0.6922 0.98145 0.0
C907 C 0.76855 0.70573 0.01952 0.0
C908 C 0.77044 0.69738 0.06411 0.0
C909 C 0.77111 0.67606 0.07077 0.0
C910 C 0.76981 0.6632 0.03257 0.0
C911 C 0.76792 0.67093 0.98879 0.0
C912 C 0.7666 0.65372 0.95365 0.0
C913 C 0.74584 0.6543 0.92775 0.0
C914 C 0.78486 0.65458 0.92048 0.0
C915 C 0.76809 0.63513 0.98455 0.0
C916 C 0.76996 0.64095 0.02993 0.0
C917 C 0.77169 0.62652 0.0648 0.0
C918 C 0.7715 0.60558 0.05298 0.0
C919 C 0.7695 0.59919 0.00666 0.0
C920 C 0.76776 0.6143 0.97215 0.0
H921 H 0.81098 0.2746 0.56033 0.0
H922 H 0.80322 0.2532 0.41993 0.0
H923 H 0.84076 0.25053 0.41228 0.0
H924 H 0.85629 0.30528 0.54 0.0
H925 H 0.86872 0.29897 0.59355 0.0
H926 H 0.84097 0.29898 0.58914 0.0
H927 H 0.84012 0.26139 0.6177 0.0
H928 H 0.86787 0.26126 0.62221 0.0
H929 H 0.85486 0.24197 0.58814 0.0
H930 H 0.87884 0.25001 0.41848 0.0
H931 H 0.91573 0.25189 0.43857 0.0
H932 H 0.90005 0.27435 0.57425 0.0
C933 C 0.81717 0.26927 0.52807 0.0
C934 C 0.80394 0.26413 0.49079 0.0
C935 C 0.81282 0.25732 0.4491 0.0
C936 C 0.83422 0.25569 0.4443 0.0
C937 C 0.84676 0.26094 0.4814 0.0
C938 C 0.83867 0.2676 0.52252 0.0
C939 C 0.85587 0.27246 0.55663 0.0
C940 C 0.85543 0.29528 0.57065 0.0
C941 C 0.8546 0.25843 0.59866 0.0
C942 C 0.87477 0.26748 0.52811 0.0
C943 C 0.86905 0.26084 0.48486 0.0
C944 C 0.88356 0.2553 0.45217 0.0
C945 C 0.90453 0.25658 0.46385 0.0
C946 C 0.91096 0.26347 0.50786 0.0
C947 C 0.89574 0.26891 0.54041 0.0
H948 H 0.73751 0.19739 0.44127 0.0
H949 H 0.72275 0.20841 0.584 0.0
H950 H 0.72125 0.17099 0.59683 0.0
H951 H 0.70535 0.15175 0.42497 0.0
H952 H 0.72391 0.13911 0.38883 0.0
H953 H 0.72241 0.16677 0.39013 0.0
H954 H 0.76128 0.16867 0.41124 0.0
H955 H 0.76289 0.14104 0.41021 0.0
H956 H 0.77078 0.1551 0.46077 0.0
H957 H 0.72269 0.13231 0.59495 0.0
H958 H 0.72687 0.09529 0.5784 0.0
H959 H 0.74199 0.10954 0.43765 0.0
C960 C 0.73362 0.19196 0.47506 0.0
C961 C 0.73014 0.20591 0.51156 0.0
C962 C 0.72547 0.19809 0.55545 0.0
C963 C 0.72455 0.17683 0.56309 0.0
C964 C 0.72839 0.16354 0.52657 0.0
C965 C 0.73281 0.17079 0.4834 0.0
C966 C 0.73725 0.15324 0.45053 0.0
C967 C 0.72127 0.15269 0.4113 0.0
C968 C 0.75936 0.1546 0.43212 0.0
C969 C 0.73479 0.13501 0.48204 0.0
C970 C 0.72957 0.14127 0.52568 0.0
C971 C 0.72677 0.12722 0.56087 0.0
C972 C 0.72935 0.10621 0.5512 0.0
C973 C 0.73482 0.09939 0.50673 0.0
C974 C 0.73752 0.11412 0.47183 0.0
H975 H 0.31202 0.24328 0.96127 0.0
H976 H 0.30073 0.24203 0.10765 0.0
H977 H 0.33805 0.24058 0.1225 0.0
H978 H 0.35514 0.2084 0.96203 0.0
H979 H 0.36942 0.22203 0.91918 0.0
H980 H 0.34165 0.22326 0.91926 0.0
H981 H 0.34326 0.26301 0.92289 0.0
H982 H 0.37104 0.26191 0.92277 0.0
H983 H 0.35788 0.27536 0.96807 0.0
H984 H 0.37619 0.23845 0.12253 0.0
H985 H 0.41347 0.23676 0.10759 0.0
H986 H 0.40121 0.23981 0.96145 0.0
C987 C 0.31739 0.24277 0.99644 0.0
C988 C 0.30326 0.2428 0.03323 0.0
C989 C 0.31106 0.24211 0.07875 0.0
C990 C 0.33231 0.24124 0.08764 0.0
C991 C 0.34573 0.24117 0.05078 0.0
C992 C 0.33868 0.24201 0.00607 0.0
C993 C 0.35664 0.24175 0.97294 0.0
C994 C 0.35565 0.22272 0.9415 0.0
C995 C 0.35724 0.2617 0.94502 0.0
C996 C 0.3748 0.2405 0.00612 0.0
C997 C 0.36804 0.24013 0.0508 0.0
C998 C 0.38169 0.23871 0.08769 0.0
C999 C 0.40286 0.23762 0.07881 0.0
C1000 C 0.41031 0.23797 0.03336 0.0
C1001 C 0.39601 0.23958 0.99655 0.0
H1002 H 0.26817 0.81504 0.47543 0.0
H1003 H 0.27791 0.80052 0.61895 0.0
H1004 H 0.28107 0.83744 0.63691 0.0
H1005 H 0.30342 0.85833 0.47108 0.0
H1006 H 0.28704 0.87315 0.4335 0.0
H1007 H 0.28629 0.84547 0.43129 0.0
H1008 H 0.24688 0.84637 0.44521 0.0
H1009 H 0.24752 0.87404 0.44758 0.0
H1010 H 0.23707 0.85977 0.49466 0.0
H1011 H 0.28274 0.87563 0.63998 0.0
H1012 H 0.28198 0.9131 0.62834 0.0
H1013 H 0.27067 0.90347 0.48309 0.0
C1014 C 0.27114 0.81961 0.51058 0.0
C1015 C 0.27283 0.80481 0.54576 0.0
C1016 C 0.27648 0.81151 0.59139 0.0
C1017 C 0.27836 0.83246 0.60196 0.0
C1018 C 0.27646 0.84661 0.56661 0.0
C1019 C 0.27287 0.84053 0.52186 0.0
C1020 C 0.27084 0.85902 0.49066 0.0
C1021 C 0.28792 0.85898 0.4545 0.0
C1022 C 0.24929 0.85984 0.46822 0.0
C1023 C 0.27379 0.8764 0.52497 0.0
C1024 C 0.27714 0.86883 0.56849 0.0
C1025 C 0.28024 0.88176 0.60603 0.0
C1026 C 0.2799 0.90303 0.599 0.0
C1027 C 0.27644 0.91126 0.55476 0.0
C1028 C 0.27329 0.89767 0.51731 0.0
H1029 H 0.69675 0.76795 0.06821 0.0
H1030 H 0.70256 0.78127 0.92346 0.0
H1031 H 0.66467 0.78176 0.9154 0.0
H1032 H 0.65448 0.73365 0.05606 0.0
H1033 H 0.64188 0.74179 0.10784 0.0
H1034 H 0.66947 0.7439 0.10321 0.0
H1035 H 0.66727 0.78279 0.12229 0.0
H1036 H 0.63966 0.7808 0.12712 0.0
H1037 H 0.65071 0.79912 0.08839 0.0
H1038 H 0.62623 0.77976 0.92222 0.0
H1039 H 0.58981 0.77512 0.94344 0.0
H1040 H 0.60887 0.76168 0.08302 0.0
C1041 C 0.69005 0.77126 0.03496 0.0
C1042 C 0.70267 0.77464 0.9965 0.0
C1043 C 0.69325 0.77859 0.95343 0.0
C1044 C 0.67173 0.77896 0.94849 0.0
C1045 C 0.65976 0.77527 0.98688 0.0
C1046 C 0.66855 0.77149 0.0293 0.0
C1047 C 0.65214 0.7671 0.06456 0.0
C1048 C 0.65465 0.74532 0.08405 0.0
C1049 C 0.65247 0.78343 0.10285 0.0
C1050 C 0.63281 0.76887 0.03523 0.0
C1051 C 0.63755 0.77371 0.99062 0.0
C1052 C 0.62232 0.77593 0.95706 0.0
C1053 C 0.60166 0.77309 0.96939 0.0
C1054 C 0.59637 0.76793 0.01487 0.0
C1055 C 0.61228 0.76587 0.04811 0.0
loop_
_geom_bond_atom_site_label_1
_geom_bond_atom_site_label_2
_geom_bond_distance
_geom_bond_site_symmetry_2
_ccdc_geom_bond_type
Sc0 O3 2.025 . S
Sc0 O10 2.105 . S
Sc0 O13 2.105 . S
Sc0 O16 2.105 . S
Sc0 O19 2.105 . S
Sc1 O3 2.025 . S
Sc1 O11 2.120 . S
Sc1 O15 2.090 1_554 S
Sc1 O17 2.120 . S
Sc1 O21 2.090 1_554 S
Sc2 O3 2.025 1_556 S
Sc2 O12 2.105 . S
Sc2 O14 2.105 . S
Sc2 O18 2.105 . S
Sc2 O20 2.105 . S
O3 Sc0 2.025 . S
O3 Sc1 2.025 . S
O3 Sc2 2.025 1_554 S
C4 O10 1.268 . S
C4 O20 1.268 1_554 S
C5 O11 1.268 . S
C5 O19 1.268 . S
C6 O12 1.268 . S
C6 O21 1.268 . S
C7 O13 1.268 . S
C7 O17 1.268 . S
C8 O14 1.268 1_554 S
C8 O16 1.268 . S
C9 O15 1.268 . S
C9 O18 1.268 . S
O10 Sc0 2.105 . S
O10 C4 1.268 . S
O11 Sc1 2.120 . S
O11 C5 1.268 . S
O12 Sc2 2.105 . S
O12 C6 1.268 . S
O13 Sc0 2.105 . S
O13 C7 1.268 . S
O14 Sc2 2.105 . S
O14 C8 1.268 1_556 S
O15 Sc1 2.090 1_556 S
O15 C9 1.268 . S
O16 Sc0 2.105 . S
O16 C8 1.268 . S
O17 Sc1 2.120 . S
O17 C7 1.268 . S
O18 Sc2 2.105 . S
O18 C9 1.268 . S
O19 Sc0 2.105 . S
O19 C5 1.268 . S
O20 Sc2 2.105 . S
O20 C4 1.268 1_556 S
O21 Sc1 2.090 1_556 S
O21 C6 1.268 . S
Sc22 O25 2.025 . S
Sc22 O32 2.105 . S
Sc22 O35 2.105 . S
Sc22 O38 2.105 . S
Sc22 O41 2.105 . S
Sc23 O25 2.025 . S
Sc23 O33 2.105 . S
Sc23 O37 2.105 . S
Sc23 O39 2.105 . S
Sc23 O43 2.105 . S
Sc24 O25 2.025 . S
Sc24 O34 2.105 . S
Sc24 O36 2.105 . S
Sc24 O40 2.105 . S
Sc24 O42 2.105 . S
O25 Sc22 2.025 . S
O25 Sc23 2.025 . S
O25 Sc24 2.025 . S
C26 O32 1.268 . S
C26 O42 1.268 . S
C27 O33 1.268 . S
C27 O41 1.268 . S
C28 O34 1.268 . S
C28 O43 1.268 . S
C29 O35 1.268 . S
C29 O39 1.268 . S
C30 O36 1.268 . S
C30 O38 1.268 . S
C31 O37 1.268 . S
C31 O40 1.268 . S
O32 Sc22 2.105 . S
O32 C26 1.268 . S
O33 Sc23 2.105 . S
O33 C27 1.268 . S
O34 Sc24 2.105 . S
O34 C28 1.268 . S
O35 Sc22 2.105 . S
O35 C29 1.268 . S
O36 Sc24 2.105 . S
O36 C30 1.268 . S
O37 Sc23 2.105 . S
O37 C31 1.268 . S
O38 Sc22 2.105 . S
O38 C30 1.268 . S
O39 Sc23 2.105 . S
O39 C29 1.268 . S
O40 Sc24 2.105 . S
O40 C31 1.268 . S
O41 Sc22 2.105 . S
O41 C27 1.268 . S
O42 Sc24 2.105 . S
O42 C26 1.268 . S
O43 Sc23 2.105 . S
O43 C28 1.268 . S
Sc44 O47 2.025 1_556 S
Sc44 O54 2.105 . S
Sc44 O57 2.105 . S
Sc44 O60 2.105 . S
Sc44 O63 2.105 . S
Sc45 O47 2.025 . S
Sc45 O55 2.105 1_554 S
Sc45 O59 2.105 . S
Sc45 O61 2.105 1_554 S
Sc45 O65 2.105 . S
Sc46 O47 2.025 . S
Sc46 O56 2.105 . S
Sc46 O58 2.105 . S
Sc46 O62 2.105 . S
Sc46 O64 2.105 . S
O47 Sc44 2.025 1_554 S
O47 Sc45 2.025 . S
O47 Sc46 2.025 . S
C48 O54 1.268 1_554 S
C48 O64 1.268 . S
C49 O55 1.268 . S
C49 O63 1.268 . S
C50 O56 1.268 . S
C50 O65 1.268 . S
C51 O57 1.268 . S
C51 O61 1.268 . S
C52 O58 1.268 . S
C52 O60 1.268 1_554 S
C53 O59 1.268 . S
C53 O62 1.268 . S
O54 Sc44 2.105 . S
O54 C48 1.268 1_556 S
O55 Sc45 2.105 1_556 S
O55 C49 1.268 . S
O56 Sc46 2.105 . S
O56 C50 1.268 . S
O57 Sc44 2.105 . S
O57 C51 1.268 . S
O58 Sc46 2.105 . S
O58 C52 1.268 . S
O59 Sc45 2.105 . S
O59 C53 1.268 . S
O60 Sc44 2.105 . S
O60 C52 1.268 1_556 S
O61 Sc45 2.105 1_556 S
O61 C51 1.268 . S
O62 Sc46 2.105 . S
O62 C53 1.268 . S
O63 Sc44 2.105 . S
O63 C49 1.268 . S
O64 Sc46 2.105 . S
O64 C48 1.268 . S
O65 Sc45 2.105 . S
O65 C50 1.268 . S
Sc66 O69 2.025 . S
Sc66 O76 2.105 . S
Sc66 O79 2.105 . S
Sc66 O82 2.105 . S
Sc66 O85 2.105 . S
Sc67 O69 2.025 . S
Sc67 O77 2.105 . S
Sc67 O81 2.105 . S
Sc67 O83 2.105 . S
Sc67 O87 2.105 . S
Sc68 O69 2.025 . S
Sc68 O78 2.105 . S
Sc68 O80 2.105 . S
Sc68 O84 2.105 . S
Sc68 O86 2.105 . S
O69 Sc66 2.025 . S
O69 Sc67 2.025 . S
O69 Sc68 2.025 . S
C70 O76 1.268 . S
C70 O86 1.268 . S
C71 O77 1.268 . S
C71 O85 1.268 . S
C72 O78 1.268 . S
C72 O87 1.268 . S
C73 O79 1.268 . S
C73 O83 1.268 . S
C74 O80 1.268 . S
C74 O82 1.268 . S
C75 O81 1.268 . S
C75 O84 1.268 . S
O76 Sc66 2.105 . S
O76 C70 1.268 . S
O77 Sc67 2.105 . S
O77 C71 1.268 . S
O78 Sc68 2.105 . S
O78 C72 1.268 . S
O79 Sc66 2.105 . S
O79 C73 1.268 . S
O80 Sc68 2.105 . S
O80 C74 1.268 . S
O81 Sc67 2.105 . S
O81 C75 1.268 . S
O82 Sc66 2.105 . S
O82 C74 1.268 . S
O83 Sc67 2.105 . S
O83 C73 1.268 . S
O84 Sc68 2.105 . S
O84 C75 1.268 . S
O85 Sc66 2.105 . S
O85 C71 1.268 . S
O86 Sc68 2.105 . S
O86 C70 1.268 . S
O87 Sc67 2.105 . S
O87 C72 1.268 . S
C88 C89 1.264 . S
C88 C93 1.479 . S
C88 C98 1.465 . S
C89 C88 1.264 . S
C89 C91 1.339 . S
C89 H116 0.931 . S
C90 C91 1.395 . S
C90 C92 1.320 . S
C91 C89 1.339 . S
C91 C90 1.395 . S
C91 H117 0.929 . S
C92 C90 1.320 . S
C92 C93 1.405 . S
C92 H118 0.930 . S
C93 C88 1.479 . S
C93 C92 1.405 . S
C93 H119 0.931 . S
U94 O95 2.454 . S
U94 O96 2.458 1_556 S
U94 C97 2.984 . S
U94 C98 2.847 . S
U94 C111 2.882 1_556 S
U94 O112 2.441 . S
U94 O113 2.420 . S
U94 O114 2.455 1_556 S
U94 O115 2.449 1_556 S
O95 U94 2.454 . S
O95 C97 1.353 . S
O96 U94 2.458 1_554 S
O96 C97 1.286 1_554 S
C97 U94 2.984 . S
C97 O95 1.353 . S
C97 O96 1.286 1_556 S
C97 C99 1.363 . S
C98 C88 1.465 . S
C98 U94 2.847 . S
C98 O112 1.249 . S
C98 O113 1.202 . S
C99 C97 1.363 . S
C99 C101 1.416 . S
C99 C104 1.333 1_556 S
C100 C101 1.310 . S
C100 C103 1.461 1_556 S
C100 H120 0.932 . S
C101 C99 1.416 . S
C101 C100 1.310 . S
C101 H121 0.930 . S
C102 C103 1.474 . S
C102 C104 1.285 . S
C102 H122 0.929 . S
C103 C100 1.461 1_554 S
C103 C102 1.474 . S
C104 C99 1.333 1_554 S
C104 C102 1.285 . S
C104 H123 0.930 . S
C105 C108 1.424 . S
C105 C110 1.245 . S
C105 C111 1.428 . S
C106 C109 1.260 . S
C106 C110 1.477 . S
C106 H124 0.932 . S
C107 C108 1.384 . S
C107 C109 1.479 . S
C107 H125 0.929 . S
C108 C105 1.424 . S
C108 C107 1.384 . S
C108 H126 0.928 . S
C109 C106 1.260 . S
C109 C107 1.479 . S
C110 C105 1.245 . S
C110 C106 1.477 . S
C110 H127 0.932 . S
C111 U94 2.882 1_554 S
C111 C105 1.428 . S
C111 O114 1.301 . S
C111 O115 1.282 . S
O112 U94 2.441 . S
O112 C98 1.249 . S
O113 U94 2.420 . S
O113 C98 1.202 . S
O114 U94 2.455 1_554 S
O114 C111 1.301 . S
O115 U94 2.449 1_554 S
O115 C111 1.282 . S
H116 C89 0.931 . S
H117 C91 0.929 . S
H118 C92 0.930 . S
H119 C93 0.931 . S
H120 C100 0.932 . S
H121 C101 0.930 . S
H122 C102 0.929 . S
H123 C104 0.930 . S
H124 C106 0.932 . S
H125 C107 0.929 . S
H126 C108 0.928 . S
H127 C110 0.932 . S
C128 C129 1.264 . S
C128 C133 1.479 . S
C128 C138 1.465 . S
C129 C128 1.264 . S
C129 C131 1.339 . S
C129 H156 0.931 . S
C130 C131 1.395 . S
C130 C132 1.320 . S
C131 C129 1.339 . S
C131 C130 1.395 . S
C131 H157 0.929 . S
C132 C130 1.320 . S
C132 C133 1.405 . S
C132 H158 0.930 . S
C133 C128 1.479 . S
C133 C132 1.405 . S
C133 H159 0.931 . S
U134 O135 2.454 1_655 S
U134 O136 2.458 1_655 S
U134 C137 2.984 1_655 S
U134 C138 2.847 . S
U134 C151 2.882 . S
U134 O152 2.441 . S
U134 O153 2.420 . S
U134 O154 2.455 . S
U134 O155 2.449 . S
O135 U134 2.454 1_455 S
O135 C137 1.353 . S
O136 U134 2.458 1_455 S
O136 C137 1.286 . S
C137 U134 2.984 1_455 S
C137 O135 1.353 . S
C137 O136 1.286 . S
C137 C139 1.363 . S
C138 C128 1.465 . S
C138 U134 2.847 . S
C138 O152 1.249 . S
C138 O153 1.202 . S
C139 C137 1.363 . S
C139 C141 1.408 . S
C139 C144 1.342 . S
C140 C141 1.310 . S
C140 C143 1.461 . S
C140 H160 0.932 . S
C141 C139 1.408 . S
C141 C140 1.310 . S
C141 H161 0.930 . S
C142 C143 1.474 . S
C142 C144 1.285 . S
C142 H162 0.929 . S
C143 C140 1.461 . S
C143 C142 1.474 . S
C144 C139 1.342 . S
C144 C142 1.285 . S
C144 H163 0.930 . S
C145 C148 1.424 . S
C145 C150 1.245 . S
C145 C151 1.428 . S
C146 C149 1.260 . S
C146 C150 1.477 . S
C146 H164 0.932 . S
C147 C148 1.384 . S
C147 C149 1.479 . S
C147 H165 0.929 . S
C148 C145 1.424 . S
C148 C147 1.384 . S
C148 H166 0.928 . S
C149 C146 1.260 . S
C149 C147 1.479 . S
C150 C145 1.245 . S
C150 C146 1.477 . S
C150 H167 0.932 . S
C151 U134 2.882 . S
C151 C145 1.428 . S
C151 O154 1.301 . S
C151 O155 1.282 . S
O152 U134 2.441 . S
O152 C138 1.249 . S
O153 U134 2.420 . S
O153 C138 1.202 . S
O154 U134 2.455 . S
O154 C151 1.301 . S
O155 U134 2.449 . S
O155 C151 1.282 . S
H156 C129 0.931 . S
H157 C131 0.929 . S
H158 C132 0.930 . S
H159 C133 0.931 . S
H160 C140 0.932 . S
H161 C141 0.930 . S
H162 C142 0.929 . S
H163 C144 0.930 . S
H164 C146 0.932 . S
H165 C147 0.929 . S
H166 C148 0.928 . S
H167 C150 0.932 . S
C168 C169 1.264 . S
C168 C173 1.479 . S
C168 C178 1.465 . S
C169 C168 1.264 . S
C169 C171 1.339 . S
C169 H196 0.931 . S
C170 C171 1.395 . S
C170 C172 1.320 . S
C171 C169 1.339 . S
C171 C170 1.395 . S
C171 H197 0.929 . S
C172 C170 1.320 . S
C172 C173 1.405 . S
C172 H198 0.930 . S
C173 C168 1.479 . S
C173 C172 1.405 . S
C173 H199 0.931 . S
U174 O175 2.454 . S
U174 O176 2.458 1_554 S
U174 C177 2.984 . S
U174 C178 2.847 . S
U174 C191 2.882 1_554 S
U174 O192 2.441 . S
U174 O193 2.420 . S
U174 O194 2.455 1_554 S
U174 O195 2.449 1_554 S
O175 U174 2.454 . S
O175 C177 1.353 . S
O176 U174 2.458 1_556 S
O176 C177 1.286 1_556 S
C177 U174 2.984 . S
C177 O175 1.353 . S
C177 O176 1.286 1_554 S
C177 C179 1.363 . S
C178 C168 1.465 . S
C178 U174 2.847 . S
C178 O192 1.249 . S
C178 O193 1.202 . S
C179 C177 1.363 . S
C179 C181 1.408 . S
C179 C184 1.342 1_554 S
C180 C181 1.310 . S
C180 C183 1.461 . S
C180 H200 0.932 . S
C181 C179 1.408 . S
C181 C180 1.310 . S
C181 H201 0.930 . S
C182 C183 1.474 1_556 S
C182 C184 1.285 . S
C182 H202 0.929 . S
C183 C180 1.461 . S
C183 C182 1.474 1_554 S
C184 C179 1.342 1_556 S
C184 C182 1.285 . S
C184 H203 0.930 . S
C185 C188 1.424 . S
C185 C190 1.245 . S
C185 C191 1.428 . S
C186 C189 1.260 . S
C186 C190 1.477 . S
C186 H204 0.932 . S
C187 C188 1.384 . S
C187 C189 1.479 . S
C187 H205 0.929 . S
C188 C185 1.424 . S
C188 C187 1.384 . S
C188 H206 0.928 . S
C189 C186 1.260 . S
C189 C187 1.479 . S
C190 C185 1.245 . S
C190 C186 1.477 . S
C190 H207 0.932 . S
C191 U174 2.882 1_556 S
C191 C185 1.428 . S
C191 O194 1.301 . S
C191 O195 1.282 . S
O192 U174 2.441 . S
O192 C178 1.249 . S
O193 U174 2.420 . S
O193 C178 1.202 . S
O194 U174 2.455 1_556 S
O194 C191 1.301 . S
O195 U174 2.449 1_556 S
O195 C191 1.282 . S
H196 C169 0.931 . S
H197 C171 0.929 . S
H198 C172 0.930 . S
H199 C173 0.931 . S
H200 C180 0.932 . S
H201 C181 0.930 . S
H202 C182 0.929 . S
H203 C184 0.930 . S
H204 C186 0.932 . S
H205 C187 0.929 . S
H206 C188 0.928 . S
H207 C190 0.932 . S
C208 C209 1.264 . S
C208 C213 1.479 . S
C208 C218 1.465 . S
C209 C208 1.264 . S
C209 C211 1.339 . S
C209 H236 0.931 . S
C210 C211 1.395 . S
C210 C212 1.320 . S
C211 C209 1.339 . S
C211 C210 1.395 . S
C211 H237 0.929 . S
C212 C210 1.320 . S
C212 C213 1.405 . S
C212 H238 0.930 . S
C213 C208 1.479 . S
C213 C212 1.405 . S
C213 H239 0.931 . S
U214 O215 2.454 1_455 S
U214 O216 2.458 1_455 S
U214 C217 2.984 1_455 S
U214 C218 2.847 . S
U214 C231 2.882 . S
U214 O232 2.441 . S
U214 O233 2.420 . S
U214 O234 2.455 . S
U214 O235 2.449 . S
O215 U214 2.454 1_655 S
O215 C217 1.353 . S
O216 U214 2.458 1_655 S
O216 C217 1.286 . S
C217 U214 2.984 1_655 S
C217 O215 1.353 . S
C217 O216 1.286 . S
C217 C219 1.363 . S
C218 C208 1.465 . S
C218 U214 2.847 . S
C218 O232 1.249 . S
C218 O233 1.202 . S
C219 C217 1.363 . S
C219 C221 1.408 . S
C219 C224 1.342 . S
C220 C221 1.310 . S
C220 C223 1.461 . S
C220 H240 0.932 . S
C221 C219 1.408 . S
C221 C220 1.310 . S
C221 H241 0.930 . S
C222 C223 1.474 . S
C222 C224 1.285 . S
C222 H242 0.929 . S
C223 C220 1.461 . S
C223 C222 1.474 . S
C224 C219 1.342 . S
C224 C222 1.285 . S
C224 H243 0.930 . S
C225 C228 1.424 . S
C225 C230 1.245 . S
C225 C231 1.428 . S
C226 C229 1.260 . S
C226 C230 1.477 . S
C226 H244 0.932 . S
C227 C228 1.384 . S
C227 C229 1.479 . S
C227 H245 0.929 . S
C228 C225 1.424 . S
C228 C227 1.384 . S
C228 H246 0.928 . S
C229 C226 1.260 . S
C229 C227 1.479 . S
C230 C225 1.245 . S
C230 C226 1.477 . S
C230 H247 0.932 . S
C231 U214 2.882 . S
C231 C225 1.428 . S
C231 O234 1.301 . S
C231 O235 1.282 . S
O232 U214 2.441 . S
O232 C218 1.249 . S
O233 U214 2.420 . S
O233 C218 1.202 . S
O234 U214 2.455 . S
O234 C231 1.301 . S
O235 U214 2.449 . S
O235 C231 1.282 . S
H236 C209 0.931 . S
H237 C211 0.929 . S
H238 C212 0.930 . S
H239 C213 0.931 . S
H240 C220 0.932 . S
H241 C221 0.930 . S
H242 C222 0.929 . S
H243 C224 0.930 . S
H244 C226 0.932 . S
H245 C227 0.929 . S
H246 C228 0.928 . S
H247 C230 0.932 . S
C248 C249 1.264 . S
C248 C253 1.479 . S
C248 C258 1.465 . S
C249 C248 1.264 . S
C249 C251 1.339 . S
C249 H276 0.931 . S
C250 C251 1.395 . S
C250 C252 1.320 . S
C251 C249 1.339 . S
C251 C250 1.395 . S
C251 H277 0.929 . S
C252 C250 1.320 . S
C252 C253 1.405 . S
C252 H278 0.930 . S
C253 C248 1.479 . S
C253 C252 1.405 . S
C253 H279 0.931 . S
U254 O255 2.454 1_565 S
U254 O256 2.458 1_565 S
U254 C257 2.984 1_565 S
U254 C258 2.847 . S
U254 C271 2.882 . S
U254 O272 2.441 . S
U254 O273 2.420 . S
U254 O274 2.455 . S
U254 O275 2.449 . S
O255 U254 2.454 1_545 S
O255 C257 1.353 . S
O256 U254 2.458 1_545 S
O256 C257 1.286 . S
C257 U254 2.984 1_545 S
C257 O255 1.353 . S
C257 O256 1.286 . S
C257 C259 1.363 . S
C258 C248 1.465 . S
C258 U254 2.847 . S
C258 O272 1.249 . S
C258 O273 1.202 . S
C259 C257 1.363 . S
C259 C261 1.408 . S
C259 C264 1.342 . S
C260 C261 1.310 . S
C260 C263 1.461 . S
C260 H280 0.932 . S
C261 C259 1.408 . S
C261 C260 1.310 . S
C261 H281 0.930 . S
C262 C263 1.474 . S
C262 C264 1.285 . S
C262 H282 0.929 . S
C263 C260 1.461 . S
C263 C262 1.474 . S
C264 C259 1.342 . S
C264 C262 1.285 . S
C264 H283 0.930 . S
C265 C268 1.424 . S
C265 C270 1.245 . S
C265 C271 1.428 . S
C266 C269 1.260 . S
C266 C270 1.477 . S
C266 H284 0.932 . S
C267 C268 1.384 . S
C267 C269 1.479 . S
C267 H285 0.929 . S
C268 C265 1.424 . S
C268 C267 1.384 . S
C268 H286 0.928 . S
C269 C266 1.260 . S
C269 C267 1.479 . S
C270 C265 1.245 . S
C270 C266 1.477 . S
C270 H287 0.932 . S
C271 U254 2.882 . S
C271 C265 1.428 . S
C271 O274 1.301 . S
C271 O275 1.282 . S
O272 U254 2.441 . S
O272 C258 1.249 . S
O273 U254 2.420 . S
O273 C258 1.202 . S
O274 U254 2.455 . S
O274 C271 1.301 . S
O275 U254 2.449 . S
O275 C271 1.282 . S
H276 C249 0.931 . S
H277 C251 0.929 . S
H278 C252 0.930 . S
H279 C253 0.931 . S
H280 C260 0.932 . S
H281 C261 0.930 . S
H282 C262 0.929 . S
H283 C264 0.930 . S
H284 C266 0.932 . S
H285 C267 0.929 . S
H286 C268 0.928 . S
H287 C270 0.932 . S
C288 C289 1.264 . S
C288 C293 1.479 . S
C288 C298 1.465 . S
C289 C288 1.264 . S
C289 C291 1.339 . S
C289 H316 0.931 . S
C290 C291 1.395 . S
C290 C292 1.320 . S
C291 C289 1.339 . S
C291 C290 1.395 . S
C291 H317 0.929 . S
C292 C290 1.320 . S
C292 C293 1.405 . S
C292 H318 0.930 . S
C293 C288 1.479 . S
C293 C292 1.405 . S
C293 H319 0.931 . S
U294 O295 2.454 . S
U294 O296 2.458 1_556 S
U294 C297 2.984 . S
U294 C298 2.847 . S
U294 C311 2.882 1_556 S
U294 O312 2.441 . S
U294 O313 2.420 . S
U294 O314 2.455 1_556 S
U294 O315 2.449 1_556 S
O295 U294 2.454 . S
O295 C297 1.353 . S
O296 U294 2.458 1_554 S
O296 C297 1.286 1_554 S
C297 U294 2.984 . S
C297 O295 1.353 . S
C297 O296 1.286 1_556 S
C297 C299 1.363 . S
C298 C288 1.465 . S
C298 U294 2.847 . S
C298 O312 1.249 . S
C298 O313 1.202 . S
C299 C297 1.363 . S
C299 C301 1.413 . S
C299 C304 1.337 1_556 S
C300 C301 1.310 . S
C300 C303 1.461 1_556 S
C300 H320 0.932 . S
C301 C299 1.413 . S
C301 C300 1.310 . S
C301 H321 0.930 . S
C302 C303 1.474 . S
C302 C304 1.285 . S
C302 H322 0.929 . S
C303 C300 1.461 1_554 S
C303 C302 1.474 . S
C304 C299 1.337 1_554 S
C304 C302 1.285 . S
C304 H323 0.930 . S
C305 C308 1.424 . S
C305 C310 1.245 . S
C305 C311 1.428 . S
C306 C309 1.260 . S
C306 C310 1.477 . S
C306 H324 0.932 . S
C307 C308 1.384 . S
C307 C309 1.479 . S
C307 H325 0.929 . S
C308 C305 1.424 . S
C308 C307 1.384 . S
C308 H326 0.928 . S
C309 C306 1.260 . S
C309 C307 1.479 . S
C310 C305 1.245 . S
C310 C306 1.477 . S
C310 H327 0.932 . S
C311 U294 2.882 1_554 S
C311 C305 1.428 . S
C311 O314 1.301 . S
C311 O315 1.282 . S
O312 U294 2.441 . S
O312 C298 1.249 . S
O313 U294 2.420 . S
O313 C298 1.202 . S
O314 U294 2.455 1_554 S
O314 C311 1.301 . S
O315 U294 2.449 1_554 S
O315 C311 1.282 . S
H316 C289 0.931 . S
H317 C291 0.929 . S
H318 C292 0.930 . S
H319 C293 0.931 . S
H320 C300 0.932 . S
H321 C301 0.930 . S
H322 C302 0.929 . S
H323 C304 0.930 . S
H324 C306 0.932 . S
H325 C307 0.929 . S
H326 C308 0.928 . S
H327 C310 0.932 . S
C328 C329 1.264 . S
C328 C333 1.479 . S
C328 C338 1.465 . S
C329 C328 1.264 . S
C329 C331 1.339 . S
C329 H356 0.931 . S
C330 C331 1.395 . S
C330 C332 1.320 . S
C331 C329 1.339 . S
C331 C330 1.395 . S
C331 H357 0.929 . S
C332 C330 1.320 . S
C332 C333 1.405 . S
C332 H358 0.930 . S
C333 C328 1.479 . S
C333 C332 1.405 . S
C333 H359 0.931 . S
U334 O335 2.454 1_545 S
U334 O336 2.458 1_545 S
U334 C337 2.984 1_545 S
U334 C338 2.847 . S
U334 C351 2.882 . S
U334 O352 2.441 . S
U334 O353 2.420 . S
U334 O354 2.455 . S
U334 O355 2.449 . S
O335 U334 2.454 1_565 S
O335 C337 1.353 . S
O336 U334 2.458 1_565 S
O336 C337 1.286 . S
C337 U334 2.984 1_565 S
C337 O335 1.353 . S
C337 O336 1.286 . S
C337 C339 1.363 . S
C338 C328 1.465 . S
C338 U334 2.847 . S
C338 O352 1.249 . S
C338 O353 1.202 . S
C339 C337 1.363 . S
C339 C341 1.408 . S
C339 C344 1.342 . S
C340 C341 1.310 . S
C340 C343 1.461 . S
C340 H360 0.932 . S
C341 C339 1.408 . S
C341 C340 1.310 . S
C341 H361 0.930 . S
C342 C343 1.474 . S
C342 C344 1.285 . S
C342 H362 0.929 . S
C343 C340 1.461 . S
C343 C342 1.474 . S
C344 C339 1.342 . S
C344 C342 1.285 . S
C344 H363 0.930 . S
C345 C348 1.424 . S
C345 C350 1.245 . S
C345 C351 1.428 . S
C346 C349 1.260 . S
C346 C350 1.477 . S
C346 H364 0.932 . S
C347 C348 1.384 . S
C347 C349 1.479 . S
C347 H365 0.929 . S
C348 C345 1.424 . S
C348 C347 1.384 . S
C348 H366 0.928 . S
C349 C346 1.260 . S
C349 C347 1.479 . S
C350 C345 1.245 . S
C350 C346 1.477 . S
C350 H367 0.932 . S
C351 U334 2.882 . S
C351 C345 1.428 . S
C351 O354 1.301 . S
C351 O355 1.282 . S
O352 U334 2.441 . S
O352 C338 1.249 . S
O353 U334 2.420 . S
O353 C338 1.202 . S
O354 U334 2.455 . S
O354 C351 1.301 . S
O355 U334 2.449 . S
O355 C351 1.282 . S
H356 C329 0.931 . S
H357 C331 0.929 . S
H358 C332 0.930 . S
H359 C333 0.931 . S
H360 C340 0.932 . S
H361 C341 0.930 . S
H362 C342 0.929 . S
H363 C344 0.930 . S
H364 C346 0.932 . S
H365 C347 0.929 . S
H366 C348 0.928 . S
H367 C350 0.932 . S
C368 C369 1.264 . S
C368 C373 1.479 . S
C368 C378 1.465 . S
C369 C368 1.264 . S
C369 C371 1.339 . S
C369 H396 0.931 . S
C370 C371 1.395 . S
C370 C372 1.320 . S
C371 C369 1.339 . S
C371 C370 1.395 . S
C371 H397 0.929 . S
C372 C370 1.320 . S
C372 C373 1.405 . S
C372 H398 0.930 . S
C373 C368 1.479 . S
C373 C372 1.405 . S
C373 H399 0.931 . S
U374 O375 2.454 . S
U374 O376 2.458 1_554 S
U374 C377 2.984 . S
U374 C378 2.847 . S
U374 C391 2.882 1_554 S
U374 O392 2.441 . S
U374 O393 2.420 . S
U374 O394 2.455 1_554 S
U374 O395 2.449 1_554 S
O375 U374 2.454 . S
O375 C377 1.353 . S
O376 U374 2.458 1_556 S
O376 C377 1.286 1_556 S
C377 U374 2.984 . S
C377 O375 1.353 . S
C377 O376 1.286 1_554 S
C377 C379 1.363 . S
C378 C368 1.465 . S
C378 U374 2.847 . S
C378 O392 1.249 . S
C378 O393 1.202 . S
C379 C377 1.363 . S
C379 C381 1.408 . S
C379 C384 1.342 1_554 S
C380 C381 1.310 . S
C380 C383 1.461 . S
C380 H400 0.932 . S
C381 C379 1.408 . S
C381 C380 1.310 . S
C381 H401 0.930 . S
C382 C383 1.474 1_556 S
C382 C384 1.285 . S
C382 H402 0.929 . S
C383 C380 1.461 . S
C383 C382 1.474 1_554 S
C384 C379 1.342 1_556 S
C384 C382 1.285 . S
C384 H403 0.930 . S
C385 C388 1.424 . S
C385 C390 1.245 . S
C385 C391 1.428 . S
C386 C389 1.260 . S
C386 C390 1.477 . S
C386 H404 0.932 . S
C387 C388 1.384 . S
C387 C389 1.479 . S
C387 H405 0.929 . S
C388 C385 1.424 . S
C388 C387 1.384 . S
C388 H406 0.928 . S
C389 C386 1.260 . S
C389 C387 1.479 . S
C390 C385 1.245 . S
C390 C386 1.477 . S
C390 H407 0.932 . S
C391 U374 2.882 1_556 S
C391 C385 1.428 . S
C391 O394 1.301 . S
C391 O395 1.282 . S
O392 U374 2.441 . S
O392 C378 1.249 . S
O393 U374 2.420 . S
O393 C378 1.202 . S
O394 U374 2.455 1_556 S
O394 C391 1.301 . S
O395 U374 2.449 1_556 S
O395 C391 1.282 . S
H396 C369 0.931 . S
H397 C371 0.929 . S
H398 C372 0.930 . S
H399 C373 0.931 . S
H400 C380 0.932 . S
H401 C381 0.930 . S
H402 C382 0.929 . S
H403 C384 0.930 . S
H404 C386 0.932 . S
H405 C387 0.929 . S
H406 C388 0.928 . S
H407 C390 0.932 . S
H408 C420 0.930 . S
H409 C422 0.930 . S
H410 C423 0.930 . S
H411 C427 0.959 . S
H412 C427 0.959 . S
H413 C427 0.961 . S
H414 C428 0.960 . S
H415 C428 0.961 . S
H416 C428 0.959 . S
H417 C431 0.929 . S
H418 C432 0.931 . S
H419 C434 0.930 . S
C420 H408 0.930 . S
C420 C421 1.399 . S
C420 C425 1.399 . S
C421 C420 1.399 . S
C421 C422 1.376 . S
C422 H409 0.930 . S
C422 C421 1.376 . S
C422 C423 1.388 . S
C423 H410 0.930 . S
C423 C422 1.388 . S
C423 C424 1.390 . S
C424 C423 1.390 . S
C424 C425 1.394 . S
C424 C430 1.465 . S
C425 C420 1.399 . S
C425 C424 1.394 . S
C425 C426 1.516 . S
C426 C425 1.516 . S
C426 C427 1.502 . S
C426 C428 1.561 . S
C426 C429 1.526 . S
C427 H411 0.959 . S
C427 H412 0.959 . S
C427 H413 0.961 . S
C427 C426 1.502 . S
C428 H414 0.960 . S
C428 H415 0.961 . S
C428 H416 0.959 . S
C428 C426 1.561 . S
C429 C426 1.526 . S
C429 C430 1.396 . S
C429 C434 1.390 . S
C430 C424 1.465 . S
C430 C429 1.396 . S
C430 C431 1.399 . S
C431 H417 0.929 . S
C431 C430 1.399 . S
C431 C432 1.385 . S
C432 H418 0.931 . S
C432 C431 1.385 . S
C432 C433 1.389 . S
C433 C432 1.389 . S
C433 C434 1.387 . S
C434 H419 0.930 . S
C434 C429 1.390 . S
C434 C433 1.387 . S
H435 C447 0.930 . S
H436 C449 0.930 . S
H437 C450 0.930 . S
H438 C454 0.959 . S
H439 C454 0.959 . S
H440 C454 0.961 . S
H441 C455 0.960 . S
H442 C455 0.961 . S
H443 C455 0.959 . S
H444 C458 0.929 . S
H445 C459 0.931 . S
H446 C461 0.930 . S
C447 H435 0.930 . S
C447 C448 1.399 . S
C447 C452 1.399 . S
C448 C447 1.399 . S
C448 C449 1.376 . S
C449 H436 0.930 . S
C449 C448 1.376 . S
C449 C450 1.388 . S
C450 H437 0.930 . S
C450 C449 1.388 . S
C450 C451 1.390 . S
C451 C450 1.390 . S
C451 C452 1.394 . S
C451 C457 1.465 . S
C452 C447 1.399 . S
C452 C451 1.394 . S
C452 C453 1.516 . S
C453 C452 1.516 . S
C453 C454 1.502 . S
C453 C455 1.561 . S
C453 C456 1.526 . S
C454 H438 0.959 . S
C454 H439 0.959 . S
C454 H440 0.961 . S
C454 C453 1.502 . S
C455 H441 0.960 . S
C455 H442 0.961 . S
C455 H443 0.959 . S
C455 C453 1.561 . S
C456 C453 1.526 . S
C456 C457 1.396 . S
C456 C461 1.390 . S
C457 C451 1.465 . S
C457 C456 1.396 . S
C457 C458 1.399 . S
C458 H444 0.929 . S
C458 C457 1.399 . S
C458 C459 1.385 . S
C459 H445 0.931 . S
C459 C458 1.385 . S
C459 C460 1.389 . S
C460 C459 1.389 . S
C460 C461 1.387 . S
C461 H446 0.930 . S
C461 C456 1.390 . S
C461 C460 1.387 . S
H462 C474 0.930 . S
H463 C476 0.930 . S
H464 C477 0.930 . S
H465 C481 0.959 . S
H466 C481 0.959 . S
H467 C481 0.961 . S
H468 C482 0.960 . S
H469 C482 0.961 . S
H470 C482 0.959 . S
H471 C485 0.929 . S
H472 C486 0.931 . S
H473 C488 0.930 . S
C474 H462 0.930 . S
C474 C475 1.399 . S
C474 C479 1.399 . S
C475 C474 1.399 . S
C475 C476 1.376 . S
C476 H463 0.930 . S
C476 C475 1.376 . S
C476 C477 1.388 . S
C477 H464 0.930 . S
C477 C476 1.388 . S
C477 C478 1.390 . S
C478 C477 1.390 . S
C478 C479 1.394 . S
C478 C484 1.465 . S
C479 C474 1.399 . S
C479 C478 1.394 . S
C479 C480 1.516 . S
C480 C479 1.516 . S
C480 C481 1.502 . S
C480 C482 1.561 . S
C480 C483 1.526 . S
C481 H465 0.959 . S
C481 H466 0.959 . S
C481 H467 0.961 . S
C481 C480 1.502 . S
C482 H468 0.960 . S
C482 H469 0.961 . S
C482 H470 0.959 . S
C482 C480 1.561 . S
C483 C480 1.526 . S
C483 C484 1.396 . S
C483 C488 1.390 . S
C484 C478 1.465 . S
C484 C483 1.396 . S
C484 C485 1.399 . S
C485 H471 0.929 . S
C485 C484 1.399 . S
C485 C486 1.385 . S
C486 H472 0.931 . S
C486 C485 1.385 . S
C486 C487 1.389 . S
C487 C486 1.389 . S
C487 C488 1.387 . S
C488 H473 0.930 . S
C488 C483 1.390 . S
C488 C487 1.387 . S
H489 C501 0.930 . S
H490 C503 0.930 . S
H491 C504 0.930 . S
H492 C508 0.959 . S
H493 C508 0.959 . S
H494 C508 0.961 . S
H495 C509 0.960 . S
H496 C509 0.961 . S
H497 C509 0.959 . S
H498 C512 0.929 . S
H499 C513 0.931 . S
H500 C515 0.930 . S
C501 H489 0.930 . S
C501 C502 1.399 . S
C501 C506 1.399 . S
C502 C501 1.399 . S
C502 C503 1.376 . S
C503 H490 0.930 . S
C503 C502 1.376 . S
C503 C504 1.388 . S
C504 H491 0.930 . S
C504 C503 1.388 . S
C504 C505 1.390 . S
C505 C504 1.390 . S
C505 C506 1.394 . S
C505 C511 1.465 . S
C506 C501 1.399 . S
C506 C505 1.394 . S
C506 C507 1.516 . S
C507 C506 1.516 . S
C507 C508 1.502 . S
C507 C509 1.561 . S
C507 C510 1.526 . S
C508 H492 0.959 . S
C508 H493 0.959 . S
C508 H494 0.961 . S
C508 C507 1.502 . S
C509 H495 0.960 . S
C509 H496 0.961 . S
C509 H497 0.959 . S
C509 C507 1.561 . S
C510 C507 1.526 . S
C510 C511 1.396 . S
C510 C515 1.390 . S
C511 C505 1.465 . S
C511 C510 1.396 . S
C511 C512 1.399 . S
C512 H498 0.929 . S
C512 C511 1.399 . S
C512 C513 1.385 . S
C513 H499 0.931 . S
C513 C512 1.385 . S
C513 C514 1.389 . S
C514 C513 1.389 . S
C514 C515 1.387 . S
C515 H500 0.930 . S
C515 C510 1.390 . S
C515 C514 1.387 . S
H516 C528 0.930 . S
H517 C530 0.930 . S
H518 C531 0.930 . S
H519 C535 0.959 . S
H520 C535 0.959 . S
H521 C535 0.961 . S
H522 C536 0.960 . S
H523 C536 0.961 . S
H524 C536 0.959 . S
H525 C539 0.929 . S
H526 C540 0.931 . S
H527 C542 0.930 . S
C528 H516 0.930 . S
C528 C529 1.399 . S
C528 C533 1.399 . S
C529 C528 1.399 . S
C529 C530 1.376 . S
C530 H517 0.930 . S
C530 C529 1.376 . S
C530 C531 1.388 . S
C531 H518 0.930 . S
C531 C530 1.388 . S
C531 C532 1.390 . S
C532 C531 1.390 . S
C532 C533 1.394 . S
C532 C538 1.465 . S
C533 C528 1.399 . S
C533 C532 1.394 . S
C533 C534 1.516 . S
C534 C533 1.516 . S
C534 C535 1.502 . S
C534 C536 1.561 . S
C534 C537 1.526 . S
C535 H519 0.959 . S
C535 H520 0.959 . S
C535 H521 0.961 . S
C535 C534 1.502 . S
C536 H522 0.960 . S
C536 H523 0.961 . S
C536 H524 0.959 . S
C536 C534 1.561 . S
C537 C534 1.526 . S
C537 C538 1.396 . S
C537 C542 1.390 . S
C538 C532 1.465 . S
C538 C537 1.396 . S
C538 C539 1.399 . S
C539 H525 0.929 . S
C539 C538 1.399 . S
C539 C540 1.385 . S
C540 H526 0.931 . S
C540 C539 1.385 . S
C540 C541 1.389 . S
C541 C540 1.389 . S
C541 C542 1.387 . S
C542 H527 0.930 . S
C542 C537 1.390 . S
C542 C541 1.387 . S
H543 C555 0.930 . S
H544 C557 0.930 . S
H545 C558 0.930 . S
H546 C562 0.959 . S
H547 C562 0.959 . S
H548 C562 0.961 . S
H549 C563 0.960 . S
H550 C563 0.961 . S
H551 C563 0.959 . S
H552 C566 0.929 . S
H553 C567 0.931 . S
H554 C569 0.930 . S
C555 H543 0.930 . S
C555 C556 1.399 . S
C555 C560 1.399 . S
C556 C555 1.399 . S
C556 C557 1.376 . S
C557 H544 0.930 . S
C557 C556 1.376 . S
C557 C558 1.388 . S
C558 H545 0.930 . S
C558 C557 1.388 . S
C558 C559 1.390 . S
C559 C558 1.390 . S
C559 C560 1.394 . S
C559 C565 1.465 . S
C560 C555 1.399 . S
C560 C559 1.394 . S
C560 C561 1.516 . S
C561 C560 1.516 . S
C561 C562 1.502 . S
C561 C563 1.561 . S
C561 C564 1.526 . S
C562 H546 0.959 . S
C562 H547 0.959 . S
C562 H548 0.961 . S
C562 C561 1.502 . S
C563 H549 0.960 . S
C563 H550 0.961 . S
C563 H551 0.959 . S
C563 C561 1.561 . S
C564 C561 1.526 . S
C564 C565 1.396 . S
C564 C569 1.390 . S
C565 C559 1.465 . S
C565 C564 1.396 . S
C565 C566 1.399 . S
C566 H552 0.929 . S
C566 C565 1.399 . S
C566 C567 1.385 . S
C567 H553 0.931 . S
C567 C566 1.385 . S
C567 C568 1.389 . S
C568 C567 1.389 . S
C568 C569 1.387 . S
C569 H554 0.930 . S
C569 C564 1.390 . S
C569 C568 1.387 . S
H570 C582 0.930 . S
H571 C584 0.930 . S
H572 C585 0.930 . S
H573 C589 0.959 . S
H574 C589 0.959 . S
H575 C589 0.961 . S
H576 C590 0.960 . S
H577 C590 0.961 . S
H578 C590 0.959 . S
H579 C593 0.929 . S
H580 C594 0.931 . S
H581 C596 0.930 . S
C582 H570 0.930 . S
C582 C583 1.399 . S
C582 C587 1.399 . S
C583 C582 1.399 . S
C583 C584 1.376 . S
C584 H571 0.930 . S
C584 C583 1.376 . S
C584 C585 1.388 . S
C585 H572 0.930 . S
C585 C584 1.388 . S
C585 C586 1.390 . S
C586 C585 1.390 . S
C586 C587 1.394 . S
C586 C592 1.465 . S
C587 C582 1.399 . S
C587 C586 1.394 . S
C587 C588 1.516 . S
C588 C587 1.516 . S
C588 C589 1.502 . S
C588 C590 1.561 . S
C588 C591 1.526 . S
C589 H573 0.959 . S
C589 H574 0.959 . S
C589 H575 0.961 . S
C589 C588 1.502 . S
C590 H576 0.960 . S
C590 H577 0.961 . S
C590 H578 0.959 . S
C590 C588 1.561 . S
C591 C588 1.526 . S
C591 C592 1.396 . S
C591 C596 1.390 . S
C592 C586 1.465 . S
C592 C591 1.396 . S
C592 C593 1.399 . S
C593 H579 0.929 . S
C593 C592 1.399 . S
C593 C594 1.385 . S
C594 H580 0.931 . S
C594 C593 1.385 . S
C594 C595 1.389 . S
C595 C594 1.389 . S
C595 C596 1.387 . S
C596 H581 0.930 . S
C596 C591 1.390 . S
C596 C595 1.387 . S
H597 C609 0.930 . S
H598 C611 0.930 . S
H599 C612 0.930 . S
H600 C616 0.959 . S
H601 C616 0.959 . S
H602 C616 0.961 . S
H603 C617 0.960 . S
H604 C617 0.961 . S
H605 C617 0.959 . S
H606 C620 0.929 . S
H607 C621 0.931 . S
H608 C623 0.930 . S
C609 H597 0.930 . S
C609 C610 1.399 . S
C609 C614 1.399 . S
C610 C609 1.399 . S
C610 C611 1.376 . S
C611 H598 0.930 . S
C611 C610 1.376 . S
C611 C612 1.388 . S
C612 H599 0.930 . S
C612 C611 1.388 . S
C612 C613 1.390 . S
C613 C612 1.390 . S
C613 C614 1.394 . S
C613 C619 1.465 . S
C614 C609 1.399 . S
C614 C613 1.394 . S
C614 C615 1.516 . S
C615 C614 1.516 . S
C615 C616 1.502 . S
C615 C617 1.561 . S
C615 C618 1.526 . S
C616 H600 0.959 . S
C616 H601 0.959 . S
C616 H602 0.961 . S
C616 C615 1.502 . S
C617 H603 0.960 . S
C617 H604 0.961 . S
C617 H605 0.959 . S
C617 C615 1.561 . S
C618 C615 1.526 . S
C618 C619 1.396 . S
C618 C623 1.390 . S
C619 C613 1.465 . S
C619 C618 1.396 . S
C619 C620 1.399 . S
C620 H606 0.929 . S
C620 C619 1.399 . S
C620 C621 1.385 . S
C621 H607 0.931 . S
C621 C620 1.385 . S
C621 C622 1.389 . S
C622 C621 1.389 . S
C622 C623 1.387 . S
C623 H608 0.930 . S
C623 C618 1.390 . S
C623 C622 1.387 . S
H624 C636 0.930 . S
H625 C638 0.930 . S
H626 C639 0.930 . S
H627 C643 0.959 . S
H628 C643 0.959 . S
H629 C643 0.961 . S
H630 C644 0.960 . S
H631 C644 0.961 . S
H632 C644 0.959 . S
H633 C647 0.929 . S
H634 C648 0.931 . S
H635 C650 0.930 . S
C636 H624 0.930 . S
C636 C637 1.399 . S
C636 C641 1.399 . S
C637 C636 1.399 . S
C637 C638 1.376 . S
C638 H625 0.930 . S
C638 C637 1.376 . S
C638 C639 1.388 . S
C639 H626 0.930 . S
C639 C638 1.388 . S
C639 C640 1.390 . S
C640 C639 1.390 . S
C640 C641 1.394 . S
C640 C646 1.465 . S
C641 C636 1.399 . S
C641 C640 1.394 . S
C641 C642 1.516 . S
C642 C641 1.516 . S
C642 C643 1.502 . S
C642 C644 1.561 . S
C642 C645 1.526 . S
C643 H627 0.959 . S
C643 H628 0.959 . S
C643 H629 0.961 . S
C643 C642 1.502 . S
C644 H630 0.960 . S
C644 H631 0.961 . S
C644 H632 0.959 . S
C644 C642 1.561 . S
C645 C642 1.526 . S
C645 C646 1.396 . S
C645 C650 1.390 . S
C646 C640 1.465 . S
C646 C645 1.396 . S
C646 C647 1.399 . S
C647 H633 0.929 . S
C647 C646 1.399 . S
C647 C648 1.385 . S
C648 H634 0.931 . S
C648 C647 1.385 . S
C648 C649 1.389 . S
C649 C648 1.389 . S
C649 C650 1.387 . S
C650 H635 0.930 . S
C650 C645 1.390 . S
C650 C649 1.387 . S
H651 C663 0.930 . S
H652 C665 0.930 . S
H653 C666 0.930 . S
H654 C670 0.959 . S
H655 C670 0.959 . S
H656 C670 0.961 . S
H657 C671 0.960 . S
H658 C671 0.961 . S
H659 C671 0.959 . S
H660 C674 0.929 . S
H661 C675 0.931 . S
H662 C677 0.930 . S
C663 H651 0.930 . S
C663 C664 1.399 . S
C663 C668 1.399 . S
C664 C663 1.399 . S
C664 C665 1.376 . S
C665 H652 0.930 . S
C665 C664 1.376 . S
C665 C666 1.388 . S
C666 H653 0.930 . S
C666 C665 1.388 . S
C666 C667 1.390 . S
C667 C666 1.390 . S
C667 C668 1.394 . S
C667 C673 1.465 . S
C668 C663 1.399 . S
C668 C667 1.394 . S
C668 C669 1.516 . S
C669 C668 1.516 . S
C669 C670 1.502 . S
C669 C671 1.561 . S
C669 C672 1.526 . S
C670 H654 0.959 . S
C670 H655 0.959 . S
C670 H656 0.961 . S
C670 C669 1.502 . S
C671 H657 0.960 . S
C671 H658 0.961 . S
C671 H659 0.959 . S
C671 C669 1.561 . S
C672 C669 1.526 . S
C672 C673 1.396 . S
C672 C677 1.390 . S
C673 C667 1.465 . S
C673 C672 1.396 . S
C673 C674 1.399 . S
C674 H660 0.929 . S
C674 C673 1.399 . S
C674 C675 1.385 . S
C675 H661 0.931 . S
C675 C674 1.385 . S
C675 C676 1.389 . S
C676 C675 1.389 . S
C676 C677 1.387 . S
C677 H662 0.930 . S
C677 C672 1.390 . S
C677 C676 1.387 . S
H678 C690 0.930 . S
H679 C692 0.930 . S
H680 C693 0.930 . S
H681 C697 0.959 . S
H682 C697 0.959 . S
H683 C697 0.961 . S
H684 C698 0.960 . S
H685 C698 0.961 . S
H686 C698 0.959 . S
H687 C701 0.929 . S
H688 C702 0.931 . S
H689 C704 0.930 . S
C690 H678 0.930 . S
C690 C691 1.399 . S
C690 C695 1.399 . S
C691 C690 1.399 . S
C691 C692 1.376 . S
C692 H679 0.930 . S
C692 C691 1.376 . S
C692 C693 1.388 . S
C693 H680 0.930 . S
C693 C692 1.388 . S
C693 C694 1.390 . S
C694 C693 1.390 . S
C694 C695 1.394 . S
C694 C700 1.465 . S
C695 C690 1.399 . S
C695 C694 1.394 . S
C695 C696 1.516 . S
C696 C695 1.516 . S
C696 C697 1.502 . S
C696 C698 1.561 . S
C696 C699 1.526 . S
C697 H681 0.959 . S
C697 H682 0.959 . S
C697 H683 0.961 . S
C697 C696 1.502 . S
C698 H684 0.960 . S
C698 H685 0.961 . S
C698 H686 0.959 . S
C698 C696 1.561 . S
C699 C696 1.526 . S
C699 C700 1.396 . S
C699 C704 1.390 . S
C700 C694 1.465 . S
C700 C699 1.396 . S
C700 C701 1.399 . S
C701 H687 0.929 . S
C701 C700 1.399 . S
C701 C702 1.385 . S
C702 H688 0.931 . S
C702 C701 1.385 . S
C702 C703 1.389 . S
C703 C702 1.389 . S
C703 C704 1.387 . S
C704 H689 0.930 . S
C704 C699 1.390 . S
C704 C703 1.387 . S
H705 C717 0.930 . S
H706 C719 0.930 . S
H707 C720 0.930 . S
H708 C724 0.959 . S
H709 C724 0.959 . S
H710 C724 0.961 . S
H711 C725 0.960 . S
H712 C725 0.961 . S
H713 C725 0.959 . S
H714 C728 0.929 . S
H715 C729 0.931 . S
H716 C731 0.930 . S
C717 H705 0.930 . S
C717 C718 1.399 . S
C717 C722 1.399 . S
C718 C717 1.399 . S
C718 C719 1.376 . S
C719 H706 0.930 . S
C719 C718 1.376 . S
C719 C720 1.388 . S
C720 H707 0.930 . S
C720 C719 1.388 . S
C720 C721 1.390 . S
C721 C720 1.390 . S
C721 C722 1.394 . S
C721 C727 1.465 . S
C722 C717 1.399 . S
C722 C721 1.394 . S
C722 C723 1.516 . S
C723 C722 1.516 . S
C723 C724 1.502 . S
C723 C725 1.561 . S
C723 C726 1.526 . S
C724 H708 0.959 . S
C724 H709 0.959 . S
C724 H710 0.961 . S
C724 C723 1.502 . S
C725 H711 0.960 . S
C725 H712 0.961 . S
C725 H713 0.959 . S
C725 C723 1.561 . S
C726 C723 1.526 . S
C726 C727 1.396 . S
C726 C731 1.390 . S
C727 C721 1.465 . S
C727 C726 1.396 . S
C727 C728 1.399 . S
C728 H714 0.929 . S
C728 C727 1.399 . S
C728 C729 1.385 . S
C729 H715 0.931 . S
C729 C728 1.385 . S
C729 C730 1.389 . S
C730 C729 1.389 . S
C730 C731 1.387 . S
C731 H716 0.930 . S
C731 C726 1.390 . S
C731 C730 1.387 . S
H732 C744 0.930 . S
H733 C746 0.930 . S
H734 C747 0.930 . S
H735 C751 0.959 . S
H736 C751 0.959 . S
H737 C751 0.961 . S
H738 C752 0.960 . S
H739 C752 0.961 . S
H740 C752 0.959 . S
H741 C755 0.929 . S
H742 C756 0.931 . S
H743 C758 0.930 . S
C744 H732 0.930 . S
C744 C745 1.399 . S
C744 C749 1.399 . S
C745 C744 1.399 . S
C745 C746 1.376 . S
C746 H733 0.930 . S
C746 C745 1.376 . S
C746 C747 1.388 . S
C747 H734 0.930 . S
C747 C746 1.388 . S
C747 C748 1.390 . S
C748 C747 1.390 . S
C748 C749 1.394 . S
C748 C754 1.465 . S
C749 C744 1.399 . S
C749 C748 1.394 . S
C749 C750 1.516 . S
C750 C749 1.516 . S
C750 C751 1.502 . S
C750 C752 1.561 . S
C750 C753 1.526 . S
C751 H735 0.959 . S
C751 H736 0.959 . S
C751 H737 0.961 . S
C751 C750 1.502 . S
C752 H738 0.960 . S
C752 H739 0.961 . S
C752 H740 0.959 . S
C752 C750 1.561 . S
C753 C750 1.526 . S
C753 C754 1.396 . S
C753 C758 1.390 . S
C754 C748 1.465 . S
C754 C753 1.396 . S
C754 C755 1.399 . S
C755 H741 0.929 . S
C755 C754 1.399 . S
C755 C756 1.385 . S
C756 H742 0.931 . S
C756 C755 1.385 . S
C756 C757 1.389 . S
C757 C756 1.389 . S
C757 C758 1.387 . S
C758 H743 0.930 . S
C758 C753 1.390 . S
C758 C757 1.387 . S
H759 C771 0.930 . S
H760 C773 0.930 . S
H761 C774 0.930 . S
H762 C778 0.959 . S
H763 C778 0.959 . S
H764 C778 0.961 . S
H765 C779 0.960 . S
H766 C779 0.961 . S
H767 C779 0.959 . S
H768 C782 0.929 . S
H769 C783 0.931 . S
H770 C785 0.930 . S
C771 H759 0.930 . S
C771 C772 1.399 . S
C771 C776 1.399 . S
C772 C771 1.399 . S
C772 C773 1.376 . S
C773 H760 0.930 . S
C773 C772 1.376 . S
C773 C774 1.388 . S
C774 H761 0.930 . S
C774 C773 1.388 . S
C774 C775 1.390 . S
C775 C774 1.390 . S
C775 C776 1.394 . S
C775 C781 1.465 . S
C776 C771 1.399 . S
C776 C775 1.394 . S
C776 C777 1.516 . S
C777 C776 1.516 . S
C777 C778 1.502 . S
C777 C779 1.561 . S
C777 C780 1.526 . S
C778 H762 0.959 . S
C778 H763 0.959 . S
C778 H764 0.961 . S
C778 C777 1.502 . S
C779 H765 0.960 . S
C779 H766 0.961 . S
C779 H767 0.959 . S
C779 C777 1.561 . S
C780 C777 1.526 . S
C780 C781 1.396 . S
C780 C785 1.390 . S
C781 C775 1.465 . S
C781 C780 1.396 . S
C781 C782 1.399 . S
C782 H768 0.929 . S
C782 C781 1.399 . S
C782 C783 1.385 . S
C783 H769 0.931 . S
C783 C782 1.385 . S
C783 C784 1.389 . S
C784 C783 1.389 . S
C784 C785 1.387 . S
C785 H770 0.930 . S
C785 C780 1.390 . S
C785 C784 1.387 . S
H786 C798 0.930 . S
H787 C800 0.930 . S
H788 C801 0.930 . S
H789 C805 0.959 . S
H790 C805 0.959 . S
H791 C805 0.961 . S
H792 C806 0.960 . S
H793 C806 0.961 . S
H794 C806 0.959 . S
H795 C809 0.929 . S
H796 C810 0.931 . S
H797 C812 0.930 . S
C798 H786 0.930 . S
C798 C799 1.399 . S
C798 C803 1.399 . S
C799 C798 1.399 . S
C799 C800 1.376 . S
C800 H787 0.930 . S
C800 C799 1.376 . S
C800 C801 1.388 . S
C801 H788 0.930 . S
C801 C800 1.388 . S
C801 C802 1.390 . S
C802 C801 1.390 . S
C802 C803 1.394 . S
C802 C808 1.465 . S
C803 C798 1.399 . S
C803 C802 1.394 . S
C803 C804 1.516 . S
C804 C803 1.516 . S
C804 C805 1.502 . S
C804 C806 1.561 . S
C804 C807 1.526 . S
C805 H789 0.959 . S
C805 H790 0.959 . S
C805 H791 0.961 . S
C805 C804 1.502 . S
C806 H792 0.960 . S
C806 H793 0.961 . S
C806 H794 0.959 . S
C806 C804 1.561 . S
C807 C804 1.526 . S
C807 C808 1.396 . S
C807 C812 1.390 . S
C808 C802 1.465 . S
C808 C807 1.396 . S
C808 C809 1.399 . S
C809 H795 0.929 . S
C809 C808 1.399 . S
C809 C810 1.385 . S
C810 H796 0.931 . S
C810 C809 1.385 . S
C810 C811 1.389 . S
C811 C810 1.389 . S
C811 C812 1.387 . S
C812 H797 0.930 . S
C812 C807 1.390 . S
C812 C811 1.387 . S
H813 C825 0.930 . S
H814 C827 0.930 . S
H815 C828 0.930 . S
H816 C832 0.959 . S
H817 C832 0.959 . S
H818 C832 0.961 . S
H819 C833 0.960 . S
H820 C833 0.961 . S
H821 C833 0.959 . S
H822 C836 0.929 . S
H823 C837 0.931 . S
H824 C839 0.930 . S
C825 H813 0.930 . S
C825 C826 1.399 . S
C825 C830 1.399 . S
C826 C825 1.399 . S
C826 C827 1.376 . S
C827 H814 0.930 . S
C827 C826 1.376 . S
C827 C828 1.388 . S
C828 H815 0.930 . S
C828 C827 1.388 . S
C828 C829 1.390 . S
C829 C828 1.390 . S
C829 C830 1.394 . S
C829 C835 1.465 . S
C830 C825 1.399 . S
C830 C829 1.394 . S
C830 C831 1.516 . S
C831 C830 1.516 . S
C831 C832 1.502 . S
C831 C833 1.561 . S
C831 C834 1.526 . S
C832 H816 0.959 . S
C832 H817 0.959 . S
C832 H818 0.961 . S
C832 C831 1.502 . S
C833 H819 0.960 . S
C833 H820 0.961 . S
C833 H821 0.959 . S
C833 C831 1.561 . S
C834 C831 1.526 . S
C834 C835 1.396 . S
C834 C839 1.390 . S
C835 C829 1.465 . S
C835 C834 1.396 . S
C835 C836 1.399 . S
C836 H822 0.929 . S
C836 C835 1.399 . S
C836 C837 1.385 . S
C837 H823 0.931 . S
C837 C836 1.385 . S
C837 C838 1.389 . S
C838 C837 1.389 . S
C838 C839 1.387 . S
C839 H824 0.930 . S
C839 C834 1.390 . S
C839 C838 1.387 . S
H840 C852 0.930 . S
H841 C854 0.930 . S
H842 C855 0.930 . S
H843 C859 0.959 . S
H844 C859 0.959 . S
H845 C859 0.961 . S
H846 C860 0.960 . S
H847 C860 0.961 . S
H848 C860 0.959 . S
H849 C863 0.929 . S
H850 C864 0.931 . S
H851 C866 0.930 . S
C852 H840 0.930 . S
C852 C853 1.383 1_554 S
C852 C857 1.399 . S
C853 C852 1.383 1_556 S
C853 C854 1.397 . S
C854 H841 0.930 . S
C854 C853 1.397 . S
C854 C855 1.388 . S
C855 H842 0.930 . S
C855 C854 1.388 . S
C855 C856 1.390 . S
C856 C855 1.390 . S
C856 C857 1.394 1_556 S
C856 C862 1.465 . S
C857 C852 1.399 . S
C857 C856 1.394 1_554 S
C857 C858 1.516 . S
C858 C857 1.516 . S
C858 C859 1.502 . S
C858 C860 1.561 . S
C858 C861 1.526 . S
C859 H843 0.959 . S
C859 H844 0.959 . S
C859 H845 0.961 . S
C859 C858 1.502 . S
C860 H846 0.960 . S
C860 H847 0.961 . S
C860 H848 0.959 . S
C860 C858 1.561 . S
C861 C858 1.526 . S
C861 C862 1.396 1_554 S
C861 C866 1.390 . S
C862 C856 1.465 . S
C862 C861 1.396 1_556 S
C862 C863 1.399 . S
C863 H849 0.929 . S
C863 C862 1.399 . S
C863 C864 1.385 . S
C864 H850 0.931 . S
C864 C863 1.385 . S
C864 C865 1.411 . S
C865 C864 1.411 . S
C865 C866 1.369 1_556 S
C866 H851 0.930 . S
C866 C861 1.390 . S
C866 C865 1.369 1_554 S
H867 C879 0.930 . S
H868 C881 0.930 . S
H869 C882 0.930 . S
H870 C886 0.959 . S
H871 C886 0.959 . S
H872 C886 0.961 . S
H873 C887 0.960 . S
H874 C887 0.961 . S
H875 C887 0.959 . S
H876 C890 0.929 . S
H877 C891 0.931 . S
H878 C893 0.930 . S
C879 H867 0.930 . S
C879 C880 1.399 . S
C879 C884 1.399 . S
C880 C879 1.399 . S
C880 C881 1.376 . S
C881 H868 0.930 . S
C881 C880 1.376 . S
C881 C882 1.388 . S
C882 H869 0.930 . S
C882 C881 1.388 . S
C882 C883 1.390 . S
C883 C882 1.390 . S
C883 C884 1.394 . S
C883 C889 1.465 . S
C884 C879 1.399 . S
C884 C883 1.394 . S
C884 C885 1.516 . S
C885 C884 1.516 . S
C885 C886 1.502 . S
C885 C887 1.561 . S
C885 C888 1.526 . S
C886 H870 0.959 . S
C886 H871 0.959 . S
C886 H872 0.961 . S
C886 C885 1.502 . S
C887 H873 0.960 . S
C887 H874 0.961 . S
C887 H875 0.959 . S
C887 C885 1.561 . S
C888 C885 1.526 . S
C888 C889 1.396 . S
C888 C893 1.390 . S
C889 C883 1.465 . S
C889 C888 1.396 . S
C889 C890 1.399 . S
C890 H876 0.929 . S
C890 C889 1.399 . S
C890 C891 1.385 . S
C891 H877 0.931 . S
C891 C890 1.385 . S
C891 C892 1.389 . S
C892 C891 1.389 . S
C892 C893 1.387 . S
C893 H878 0.930 . S
C893 C888 1.390 . S
C893 C892 1.387 . S
H894 C906 0.930 . S
H895 C908 0.930 . S
H896 C909 0.930 . S
H897 C913 0.959 . S
H898 C913 0.959 . S
H899 C913 0.961 . S
H900 C914 0.960 . S
H901 C914 0.961 . S
H902 C914 0.959 . S
H903 C917 0.929 . S
H904 C918 0.931 . S
H905 C920 0.930 . S
C906 H894 0.930 . S
C906 C907 1.399 1_556 S
C906 C911 1.399 . S
C907 C906 1.399 1_554 S
C907 C908 1.376 . S
C908 H895 0.930 . S
C908 C907 1.376 . S
C908 C909 1.388 . S
C909 H896 0.930 . S
C909 C908 1.388 . S
C909 C910 1.390 . S
C910 C909 1.390 . S
C910 C911 1.394 1_554 S
C910 C916 1.465 . S
C911 C906 1.399 . S
C911 C910 1.394 1_556 S
C911 C912 1.516 . S
C912 C911 1.516 . S
C912 C913 1.502 . S
C912 C914 1.561 . S
C912 C915 1.526 . S
C913 H897 0.959 . S
C913 H898 0.959 . S
C913 H899 0.961 . S
C913 C912 1.502 . S
C914 H900 0.960 . S
C914 H901 0.961 . S
C914 H902 0.959 . S
C914 C912 1.561 . S
C915 C912 1.526 . S
C915 C916 1.396 1_556 S
C915 C920 1.390 . S
C916 C910 1.465 . S
C916 C915 1.396 1_554 S
C916 C917 1.399 . S
C917 H903 0.929 . S
C917 C916 1.399 . S
C917 C918 1.385 . S
C918 H904 0.931 . S
C918 C917 1.385 . S
C918 C919 1.389 . S
C919 C918 1.389 . S
C919 C920 1.387 1_554 S
C920 H905 0.930 . S
C920 C915 1.390 . S
C920 C919 1.387 1_556 S
H921 C933 0.930 . S
H922 C935 0.930 . S
H923 C936 0.930 . S
H924 C940 0.959 . S
H925 C940 0.959 . S
H926 C940 0.961 . S
H927 C941 0.960 . S
H928 C941 0.961 . S
H929 C941 0.959 . S
H930 C944 0.929 . S
H931 C945 0.931 . S
H932 C947 0.930 . S
C933 H921 0.930 . S
C933 C934 1.399 . S
C933 C938 1.399 . S
C934 C933 1.399 . S
C934 C935 1.376 . S
C935 H922 0.930 . S
C935 C934 1.376 . S
C935 C936 1.388 . S
C936 H923 0.930 . S
C936 C935 1.388 . S
C936 C937 1.390 . S
C937 C936 1.390 . S
C937 C938 1.394 . S
C937 C943 1.465 . S
C938 C933 1.399 . S
C938 C937 1.394 . S
C938 C939 1.516 . S
C939 C938 1.516 . S
C939 C940 1.502 . S
C939 C941 1.561 . S
C939 C942 1.526 . S
C940 H924 0.959 . S
C940 H925 0.959 . S
C940 H926 0.961 . S
C940 C939 1.502 . S
C941 H927 0.960 . S
C941 H928 0.961 . S
C941 H929 0.959 . S
C941 C939 1.561 . S
C942 C939 1.526 . S
C942 C943 1.396 . S
C942 C947 1.390 . S
C943 C937 1.465 . S
C943 C942 1.396 . S
C943 C944 1.399 . S
C944 H930 0.929 . S
C944 C943 1.399 . S
C944 C945 1.385 . S
C945 H931 0.931 . S
C945 C944 1.385 . S
C945 C946 1.389 . S
C946 C945 1.389 . S
C946 C947 1.387 . S
C947 H932 0.930 . S
C947 C942 1.390 . S
C947 C946 1.387 . S
H948 C960 0.930 . S
H949 C962 0.930 . S
H950 C963 0.930 . S
H951 C967 0.959 . S
H952 C967 0.959 . S
H953 C967 0.961 . S
H954 C968 0.960 . S
H955 C968 0.961 . S
H956 C968 0.959 . S
H957 C971 0.929 . S
H958 C972 0.931 . S
H959 C974 0.930 . S
C960 H948 0.930 . S
C960 C961 1.399 . S
C960 C965 1.399 . S
C961 C960 1.399 . S
C961 C962 1.376 . S
C962 H949 0.930 . S
C962 C961 1.376 . S
C962 C963 1.388 . S
C963 H950 0.930 . S
C963 C962 1.388 . S
C963 C964 1.390 . S
C964 C963 1.390 . S
C964 C965 1.394 . S
C964 C970 1.465 . S
C965 C960 1.399 . S
C965 C964 1.394 . S
C965 C966 1.516 . S
C966 C965 1.516 . S
C966 C967 1.502 . S
C966 C968 1.561 . S
C966 C969 1.526 . S
C967 H951 0.959 . S
C967 H952 0.959 . S
C967 H953 0.961 . S
C967 C966 1.502 . S
C968 H954 0.960 . S
C968 H955 0.961 . S
C968 H956 0.959 . S
C968 C966 1.561 . S
C969 C966 1.526 . S
C969 C970 1.396 . S
C969 C974 1.390 . S
C970 C964 1.465 . S
C970 C969 1.396 . S
C970 C971 1.399 . S
C971 H957 0.929 . S
C971 C970 1.399 . S
C971 C972 1.385 . S
C972 H958 0.931 . S
C972 C971 1.385 . S
C972 C973 1.389 . S
C973 C972 1.389 . S
C973 C974 1.387 . S
C974 H959 0.930 . S
C974 C969 1.390 . S
C974 C973 1.387 . S
H975 C987 0.930 . S
H976 C989 0.930 . S
H977 C990 0.930 . S
H978 C994 0.959 . S
H979 C994 0.959 . S
H980 C994 0.961 . S
H981 C995 0.960 . S
H982 C995 0.961 . S
H983 C995 0.959 . S
H984 C998 0.929 . S
H985 C999 0.931 . S
H986 C1001 0.930 . S
C987 H975 0.930 . S
C987 C988 1.399 1_556 S
C987 C992 1.399 . S
C988 C987 1.399 1_554 S
C988 C989 1.376 . S
C989 H976 0.930 . S
C989 C988 1.376 . S
C989 C990 1.388 . S
C990 H977 0.930 . S
C990 C989 1.388 . S
C990 C991 1.390 . S
C991 C990 1.390 . S
C991 C992 1.394 1_554 S
C991 C997 1.465 . S
C992 C987 1.399 . S
C992 C991 1.394 1_556 S
C992 C993 1.516 . S
C993 C992 1.516 . S
C993 C994 1.502 . S
C993 C995 1.561 . S
C993 C996 1.526 . S
C994 H978 0.959 . S
C994 H979 0.959 . S
C994 H980 0.961 . S
C994 C993 1.502 . S
C995 H981 0.960 . S
C995 H982 0.961 . S
C995 H983 0.959 . S
C995 C993 1.561 . S
C996 C993 1.526 . S
C996 C997 1.396 1_556 S
C996 C1001 1.390 . S
C997 C991 1.465 . S
C997 C996 1.396 1_554 S
C997 C998 1.399 . S
C998 H984 0.929 . S
C998 C997 1.399 . S
C998 C999 1.385 . S
C999 H985 0.931 . S
C999 C998 1.385 . S
C999 C1000 1.389 . S
C1000 C999 1.389 . S
C1000 C1001 1.387 1_554 S
C1001 H986 0.930 . S
C1001 C996 1.390 . S
C1001 C1000 1.387 1_556 S
H1002 C1014 0.930 . S
H1003 C1016 0.930 . S
H1004 C1017 0.930 . S
H1005 C1021 0.959 . S
H1006 C1021 0.959 . S
H1007 C1021 0.961 . S
H1008 C1022 0.960 . S
H1009 C1022 0.961 . S
H1010 C1022 0.959 . S
H1011 C1025 0.929 . S
H1012 C1026 0.931 . S
H1013 C1028 0.930 . S
C1014 H1002 0.930 . S
C1014 C1015 1.399 . S
C1014 C1019 1.399 . S
C1015 C1014 1.399 . S
C1015 C1016 1.376 . S
C1016 H1003 0.930 . S
C1016 C1015 1.376 . S
C1016 C1017 1.388 . S
C1017 H1004 0.930 . S
C1017 C1016 1.388 . S
C1017 C1018 1.390 . S
C1018 C1017 1.390 . S
C1018 C1019 1.394 . S
C1018 C1024 1.465 . S
C1019 C1014 1.399 . S
C1019 C1018 1.394 . S
C1019 C1020 1.516 . S
C1020 C1019 1.516 . S
C1020 C1021 1.502 . S
C1020 C1022 1.561 . S
C1020 C1023 1.526 . S
C1021 H1005 0.959 . S
C1021 H1006 0.959 . S
C1021 H1007 0.961 . S
C1021 C1020 1.502 . S
C1022 H1008 0.960 . S
C1022 H1009 0.961 . S
C1022 H1010 0.959 . S
C1022 C1020 1.561 . S
C1023 C1020 1.526 . S
C1023 C1024 1.396 . S
C1023 C1028 1.390 . S
C1024 C1018 1.465 . S
C1024 C1023 1.396 . S
C1024 C1025 1.399 . S
C1025 H1011 0.929 . S
C1025 C1024 1.399 . S
C1025 C1026 1.385 . S
C1026 H1012 0.931 . S
C1026 C1025 1.385 . S
C1026 C1027 1.389 . S
C1027 C1026 1.389 . S
C1027 C1028 1.387 . S
C1028 H1013 0.930 . S
C1028 C1023 1.390 . S
C1028 C1027 1.387 . S
H1029 C1041 0.930 . S
H1030 C1043 0.930 . S
H1031 C1044 0.930 . S
H1032 C1048 0.959 . S
H1033 C1048 0.959 . S
H1034 C1048 0.961 . S
H1035 C1049 0.960 . S
H1036 C1049 0.961 . S
H1037 C1049 0.959 . S
H1038 C1052 0.929 . S
H1039 C1053 0.931 . S
H1040 C1055 0.930 . S
C1041 H1029 0.930 . S
C1041 C1042 1.384 1_554 S
C1041 C1046 1.399 . S
C1042 C1041 1.384 1_556 S
C1042 C1043 1.395 . S
C1043 H1030 0.930 . S
C1043 C1042 1.395 . S
C1043 C1044 1.388 . S
C1044 H1031 0.930 . S
C1044 C1043 1.388 . S
C1044 C1045 1.390 . S
C1045 C1044 1.390 . S
C1045 C1046 1.394 1_556 S
C1045 C1051 1.465 . S
C1046 C1041 1.399 . S
C1046 C1045 1.394 1_554 S
C1046 C1047 1.516 . S
C1047 C1046 1.516 . S
C1047 C1048 1.502 . S
C1047 C1049 1.561 . S
C1047 C1050 1.526 . S
C1048 H1032 0.959 . S
C1048 H1033 0.959 . S
C1048 H1034 0.961 . S
C1048 C1047 1.502 . S
C1049 H1035 0.960 . S
C1049 H1036 0.961 . S
C1049 H1037 0.959 . S
C1049 C1047 1.561 . S
C1050 C1047 1.526 . S
C1050 C1051 1.396 1_554 S
C1050 C1055 1.390 . S
C1051 C1045 1.465 . S
C1051 C1050 1.396 1_556 S
C1051 C1052 1.399 . S
C1052 H1038 0.929 . S
C1052 C1051 1.399 . S
C1052 C1053 1.385 . S
C1053 H1039 0.931 . S
C1053 C1052 1.385 . S
C1053 C1054 1.389 . S
C1054 C1053 1.389 . S
C1054 C1055 1.387 1_556 S
C1055 H1040 0.930 . S
C1055 C1050 1.390 . S
C1055 C1054 1.387 1_554 S
C421 C5 1.510 . S
C433 C210 1.511 . S
C448 C31 1.479 . S
C460 C90 1.497 . S
C487 C149 1.493 . S
C475 C53 1.512 . S
C502 C71 1.522 . S
C514 C189 1.495 . S
C541 C309 1.461 . S
C529 C75 1.523 . S
C568 C349 1.429 . S
C556 C9 1.495 . S
C595 C370 1.509 . S
C583 C27 1.501 . S
C622 C250 1.501 . S
C610 C49 1.491 . S
C637 C51 1.486 . S
C649 C130 1.472 . S
C664 C72 1.506 . S
C676 C170 1.496 . S
C691 C6 1.495 . S
C703 C229 1.495 . S
C730 C109 1.477 . S
C718 C29 1.495 . S
C745 C28 1.487 . S
C757 C389 1.480 . S
C784 C269 1.519 . S
C772 C50 1.510 . S
C811 C290 1.432 . S
C799 C73 1.482 . S
C826 C7 1.485 . S
C838 C330 1.470 . S
C865 C103 1.497 1_556 S
C853 C4 1.499 1_556 S
C892 C143 1.497 . S
C880 C30 1.501 . S
C907 C52 1.520 . S
C919 C183 1.512 . S
C934 C70 1.501 . S
C946 C223 1.499 . S
C973 C263 1.514 . S
C961 C74 1.513 . S
C988 C8 1.502 . S
C1000 C303 1.498 . S
C1015 C26 1.500 . S
C1027 C343 1.495 . S
C1042 C48 1.516 1_556 S
C1054 C383 1.514 1_556 S
