# Generated by pormake.
# Topology bcu-b, (8,8)-cn, num edge types: 1
# Building blocks:
#     Node 0, Type 0, BuildingBlock: TAGTUT_clean_sbu_1, # of connection points: 8
#     Node 1, Type 1, BuildingBlock: TAGTUT_clean_sbu_3, # of connection points: 8
#     Edge 2, Type (0, 1), BuildingBlock: ZUJKAS_clean_linker_0, # of connection points: 2
#     Edge 3, Type (0, 1), BuildingBlock: ZUJKAS_clean_linker_0, # of connection points: 2
#     Edge 4, Type (0, 1), BuildingBlock: ZUJKAS_clean_linker_0, # of connection points: 2
#     Edge 5, Type (0, 1), BuildingBlock: ZUJKAS_clean_linker_0, # of connection points: 2
#     Edge 6, Type (0, 1), BuildingBlock: ZUJKAS_clean_linker_0, # of connection points: 2
#     Edge 7, Type (0, 1), BuildingBlock: ZUJKAS_clean_linker_0, # of connection points: 2
#     Edge 8, Type (0, 1), BuildingBlock: ZUJKAS_clean_linker_0, # of connection points: 2
#     Edge 9, Type (0, 1), BuildingBlock: ZUJKAS_clean_linker_0, # of connection points: 2
# Relax obj value: 0.021
# Max RMSD: 0.091
# Mean RMSD: 0.081
data_MOF--net-bcu-b--node1-TAGTUT_clean_sbu_1--node2-TAGTUT_clean_sbu_3--edge1-ZUJKAS_clean_linker_0
_symmetry_space_group_name_H-M    P1
_symmetry_Int_Tables_number       1
_symmetry_cell_setting            triclinic
loop_
_symmetry_equiv_pos_as_xyz
'x, y, z'
_cell_length_a     24.962797
_cell_length_b     23.989373
_cell_length_c     26.438183
_cell_angle_alpha  91.296928
_cell_angle_beta   91.488086
_cell_angle_gamma 106.88485
loop_
_atom_site_label
_atom_site_type_symbol
_atom_site_fract_x
_atom_site_fract_y
_atom_site_fract_z
_atom_type_partial_charge
C0 C 0.8984 0.14119 0.06292 0.0
C1 C 0.93956 0.12861 0.90739 0.0
C2 C 0.8988 0.89734 0.94703 0.0
Mg3 Mg 0.00666 0.13852 0.00882 0.0
O4 O 0.97579 0.05798 0.01518 0.0
Mg5 Mg 0.89619 0.02129 -0.00832 0.0
Mg6 Mg 0.00941 -0.00049 0.98432 0.0
O7 O 0.0423 0.93983 0.95509 0.0
Mg8 Mg 0.01067 0.86269 0.97506 0.0
Mg9 Mg 0.12291 0.97734 0.97592 0.0
C10 C 0.11922 0.10183 0.02984 0.0
C11 C 0.08596 0.05513 0.88998 0.0
O12 O 0.87385 0.09192 0.04061 0.0
O13 O 0.95089 0.16675 0.05861 0.0
O14 O 0.90524 0.08162 0.92268 0.0
O15 O 0.98345 0.156 0.93352 0.0
O16 O 0.09409 0.14178 0.02801 0.0
O17 O 0.0936 0.04794 0.01969 0.0
C18 C 0.93046 0.93989 0.07594 0.0
O19 O 0.97722 0.94605 0.05432 0.0
O20 O 0.89405 0.96413 0.05976 0.0
O21 O 0.14042 0.89978 0.92974 0.0
O22 O 0.0601 0.8259 0.92662 0.0
O23 O 0.11989 0.92613 0.04812 0.0
C24 C 0.11138 0.84789 0.91499 0.0
O25 O 0.04023 0.85455 0.05161 0.0
O26 O 0.92244 0.85748 0.95699 0.0
C27 C 0.08743 0.88414 0.07127 0.0
O28 O 0.92587 0.95174 0.94808 0.0
O29 O 0.04089 0.05205 0.91358 0.0
O30 O 0.12167 0.02974 0.9056 0.0
C31 C 0.59312 0.60156 0.56849 0.0
C32 C 0.66605 0.4104 0.56291 0.0
C33 C 0.60516 0.40065 0.40848 0.0
Mg34 Mg 0.49099 0.62412 0.49931 0.0
Mg35 Mg 0.38515 0.51008 0.46597 0.0
O36 O 0.46226 0.54761 0.46077 0.0
Mg37 Mg 0.51263 0.50558 0.4916 0.0
O38 O 0.56584 0.46719 0.52279 0.0
Mg39 Mg 0.63735 0.51525 0.49308 0.0
Mg40 Mg 0.54805 0.38656 0.50919 0.0
C41 C 0.42681 0.40749 0.41849 0.0
O42 O 0.44474 0.44921 0.54115 0.0
O43 O 0.42967 0.65573 0.44512 0.0
O44 O 0.46312 0.36255 0.53685 0.0
O45 O 0.42295 0.60267 0.5578 0.0
O46 O 0.36003 0.57404 0.42397 0.0
O47 O 0.35803 0.51807 0.54205 0.0
O48 O 0.58281 0.55826 0.44449 0.0
O49 O 0.56261 0.64301 0.44346 0.0
C50 C 0.59398 0.61127 0.43109 0.0
C51 C 0.38294 0.62916 0.42147 0.0
O52 O 0.47796 0.4335 0.43167 0.0
O53 O 0.68196 0.46216 0.54519 0.0
O54 O 0.38563 0.42616 0.43172 0.0
O55 O 0.6352 0.44957 0.4274 0.0
O56 O 0.61684 0.37558 0.5537 0.0
O57 O 0.56311 0.36956 0.43143 0.0
O58 O 0.54387 0.5794 0.54889 0.0
O59 O 0.63413 0.58224 0.55617 0.0
C60 C 0.37927 0.56333 0.57032 0.0
C61 C 0.43205 0.39448 0.54986 0.0
H62 H 0.16645 0.03488 0.0872 0.0
H63 H 0.24496 0.07183 0.14784 0.0
H64 H 0.27954 0.24203 0.08424 0.0
H65 H 0.20019 0.20565 0.02423 0.0
H66 H 0.36757 0.15444 0.15797 0.0
H67 H 0.19436 0.23817 0.2231 0.0
H68 H 0.18386 0.18165 0.17462 0.0
H69 H 0.21585 0.25649 0.15977 0.0
C70 C 0.1925 0.07937 0.0844 0.0
C71 C 0.17662 0.11782 0.05191 0.0
C72 C 0.23751 0.10038 0.11903 0.0
C73 C 0.26728 0.15976 0.12085 0.0
C74 C 0.25674 0.19606 0.08336 0.0
H75 H 0.48707 0.39154 0.33813 0.0
H76 H 0.45477 0.31884 0.26925 0.0
C77 C 0.2112 0.17536 0.04937 0.0
C78 C 0.29637 0.18643 0.16855 0.0
H79 H 0.27971 0.26986 0.26918 0.0
C80 C 0.34859 0.17951 0.18265 0.0
C81 C 0.27049 0.21764 0.20106 0.0
C82 C 0.21285 0.22364 0.18928 0.0
C83 C 0.37651 0.20489 0.22822 0.0
C84 C 0.35151 0.2383 0.25959 0.0
C85 C 0.29879 0.24389 0.24551 0.0
C86 C 0.37923 0.27109 0.30594 0.0
C87 C 0.43197 0.19528 0.24243 0.0
C88 C 0.34847 0.26766 0.35016 0.0
C89 C 0.36569 0.31053 0.38845 0.0
C90 C 0.4148 0.35645 0.38378 0.0
C91 C 0.44888 0.35642 0.34234 0.0
C92 C 0.43076 0.31445 0.30321 0.0
H93 H 0.43547 0.15385 0.22521 0.0
H94 H 0.46631 0.23136 0.22794 0.0
H95 H 0.43805 0.19436 0.28413 0.0
H96 H 0.30875 0.23438 0.35323 0.0
H97 H 0.33928 0.30934 0.42055 0.0
H98 H 0.93009 0.24958 0.11043 0.0
H99 H 0.87241 0.29377 0.1625 0.0
H100 H 0.73197 0.13992 0.1385 0.0
H101 H 0.7888 0.0953 0.08682 0.0
H102 H 0.76353 0.31247 0.13376 0.0
H103 H 0.75246 0.16539 0.29537 0.0
H104 H 0.80507 0.17468 0.24815 0.0
H105 H 0.7347 0.13028 0.23388 0.0
C106 C 0.88699 0.22506 0.11631 0.0
C107 C 0.86426 0.16873 0.09458 0.0
C108 C 0.85408 0.25047 0.1459 0.0
C109 C 0.79818 0.21981 0.15461 0.0
C110 C 0.77524 0.16396 0.13267 0.0
H111 H 0.55719 0.29543 0.35853 0.0
H112 H 0.59732 0.25198 0.28989 0.0
C113 C 0.80789 0.13865 0.10301 0.0
C114 C 0.7637 0.24589 0.18694 0.0
H115 H 0.69871 0.23134 0.29986 0.0
C116 C 0.74928 0.29484 0.17009 0.0
C117 C 0.74479 0.22229 0.23399 0.0
C118 C 0.76026 0.17052 0.25431 0.0
C119 C 0.71631 0.32096 0.19922 0.0
C120 C 0.69838 0.29813 0.24684 0.0
C121 C 0.71213 0.24856 0.2632 0.0
C122 C 0.66929 0.32737 0.28231 0.0
C123 C 0.70058 0.37237 0.17851 0.0
C124 C 0.6957 0.38459 0.29995 0.0
C125 C 0.67285 0.40957 0.3389 0.0
C126 C 0.62345 0.37752 0.36161 0.0
C127 C 0.59547 0.3212 0.34214 0.0
C128 C 0.61836 0.29628 0.30294 0.0
H129 H 0.70081 0.37194 0.13648 0.0
H130 H 0.65849 0.37294 0.19068 0.0
H131 H 0.73168 0.41325 0.1927 0.0
H132 H 0.73555 0.40903 0.28539 0.0
H133 H 0.69552 0.4531 0.35276 0.0
H134 H 0.87889 0.96027 0.16026 0.0
H135 H 0.84619 0.89379 0.22911 0.0
H136 H 0.91618 0.76793 0.15869 0.0
H137 H 0.94722 0.83379 0.08887 0.0
H138 H 0.80462 0.72402 0.17966 0.0
H139 H 0.92192 0.83966 0.34955 0.0
H140 H 0.89303 0.88656 0.31273 0.0
H141 H 0.94517 0.85718 0.28609 0.0
C142 C 0.88827 0.9189 0.16009 0.0
C143 C 0.91675 0.90257 0.11996 0.0
C144 C 0.87013 0.88124 0.19963 0.0
C145 C 0.87999 0.82652 0.19961 0.0
C146 C 0.90928 0.81049 0.15994 0.0
H147 H 0.66698 0.55721 0.3905 0.0
H148 H 0.74724 0.60089 0.33823 0.0
C149 C 0.92763 0.84836 0.12042 0.0
C150 C 0.85281 0.78381 0.23736 0.0
H151 H 0.82999 0.77246 0.36376 0.0
C152 C 0.81116 0.73349 0.22004 0.0
C153 C 0.86184 0.79621 0.2899 0.0
C154 C 0.90838 0.84757 0.31067 0.0
C155 C 0.77463 0.69825 0.25371 0.0
C156 C 0.78068 0.71358 0.30595 0.0
C157 C 0.82529 0.76111 0.3236 0.0
C158 C 0.73616 0.68707 0.34126 0.0
C159 C 0.72714 0.64777 0.23278 0.0
C160 C 0.70448 0.72143 0.36118 0.0
C161 C 0.65895 0.69683 0.39096 0.0
C162 C 0.64418 0.63724 0.40158 0.0
C163 C 0.6771 0.60315 0.38286 0.0
C164 C 0.72285 0.62795 0.3529 0.0
H165 H 0.72474 0.64597 0.19073 0.0
H166 H 0.73311 0.60629 0.24585 0.0
H167 H 0.68654 0.65087 0.24685 0.0
H168 H 0.71408 0.76715 0.3525 0.0
H169 H 0.63487 0.72453 0.405 0.0
H170 H 0.04621 0.78188 0.12075 0.0
H171 H 0.09332 0.74576 0.18968 0.0
H172 H 0.22452 0.90903 0.19806 0.0
H173 H 0.17806 0.94547 0.12966 0.0
H174 H 0.20456 0.73858 0.17557 0.0
H175 H 0.1943 0.87087 0.34837 0.0
H176 H 0.14599 0.86302 0.29475 0.0
H177 H 0.21581 0.91143 0.29235 0.0
C178 C 0.08427 0.81066 0.13817 0.0
C179 C 0.10868 0.8663 0.11925 0.0
C180 C 0.11117 0.78993 0.17749 0.0
C181 C 0.1623 0.82483 0.19902 0.0
C182 C 0.18475 0.88169 0.18248 0.0
H183 H 0.41797 0.74504 0.39582 0.0
H184 H 0.36673 0.7963 0.34213 0.0
C185 C 0.15819 0.90228 0.14307 0.0
C186 C 0.19588 0.79944 0.23362 0.0
H187 H 0.25571 0.81152 0.35263 0.0
C188 C 0.21543 0.75427 0.21439 0.0
C189 C 0.21096 0.82092 0.28384 0.0
C190 C 0.19042 0.86896 0.30636 0.0
C191 C 0.24962 0.72982 0.24401 0.0
C192 C 0.26367 0.75023 0.29465 0.0
C193 C 0.24492 0.79609 0.31376 0.0
C194 C 0.29427 0.72123 0.329 0.0
C195 C 0.27087 0.68261 0.22064 0.0
C196 C 0.26997 0.66271 0.34007 0.0
C197 C 0.29891 0.63349 0.37018 0.0
C198 C 0.3529 0.6622 0.39047 0.0
C199 C 0.37669 0.72155 0.38058 0.0
C200 C 0.34747 0.75089 0.35006 0.0
H201 H 0.27031 0.68399 0.17865 0.0
H202 H 0.31423 0.68655 0.23451 0.0
H203 H 0.24344 0.63941 0.23119 0.0
H204 H 0.22852 0.63936 0.32502 0.0
H205 H 0.27868 0.58807 0.37738 0.0
H206 H 0.0604 0.74096 0.87051 0.0
H207 H 0.10278 0.67981 0.81999 0.0
H208 H 0.26337 0.80976 0.8375 0.0
H209 H 0.22144 0.87159 0.88859 0.0
H210 H 0.15951 0.70977 0.72884 0.0
H211 H 0.29563 0.65623 0.87797 0.0
H212 H 0.23786 0.68443 0.89232 0.0
H213 H 0.30303 0.73266 0.87284 0.0
C214 C 0.10484 0.75669 0.86395 0.0
C215 C 0.13755 0.81133 0.88383 0.0
C216 C 0.12893 0.72152 0.83502 0.0
C217 C 0.18627 0.73985 0.82569 0.0
C218 C 0.21917 0.79436 0.84514 0.0
H219 H 0.42123 0.64662 0.64412 0.0
H220 H 0.36998 0.67897 0.70995 0.0
C221 C 0.19504 0.82982 0.874 0.0
C222 C 0.21101 0.70303 0.79357 0.0
H223 H 0.31099 0.63158 0.79285 0.0
C224 C 0.19217 0.69201 0.74287 0.0
C225 C 0.25335 0.6798 0.81222 0.0
C226 C 0.27343 0.68833 0.86693 0.0
C227 C 0.21646 0.66073 0.70953 0.0
C228 C 0.25986 0.63867 0.72783 0.0
C229 C 0.27746 0.64817 0.77901 0.0
C230 C 0.2919 0.61205 0.69311 0.0
C231 C 0.19742 0.65427 0.65447 0.0
C232 C 0.26575 0.56177 0.66325 0.0
C233 C 0.29505 0.54309 0.62503 0.0
C234 C 0.35091 0.57447 0.61635 0.0
C235 C 0.37801 0.62188 0.64916 0.0
C236 C 0.3488 0.64043 0.68706 0.0
H237 H 0.17151 0.68343 0.64485 0.0
H238 H 0.23393 0.66408 0.62957 0.0
H239 H 0.17177 0.60867 0.64607 0.0
H240 H 0.22214 0.53839 0.66818 0.0
H241 H 0.27318 0.50606 0.60076 0.0
H242 H 0.15543 0.04508 0.81506 0.0
H243 H 0.18873 0.11275 0.74733 0.0
H244 H 0.08144 0.21463 0.79517 0.0
H245 H 0.04783 0.14676 0.86323 0.0
H246 H 0.1206 0.16661 0.66606 0.0
H247 H 0.25882 0.31423 0.81322 0.0
H248 H 0.23252 0.23697 0.82309 0.0
H249 H 0.18555 0.28099 0.82404 0.0
C250 C 0.13812 0.08128 0.8107 0.0
C251 C 0.09926 0.091 0.84479 0.0
C252 C 0.1569 0.1196 0.77181 0.0
C253 C 0.13751 0.16847 0.76656 0.0
C254 C 0.09657 0.17684 0.79868 0.0
H255 H 0.3719 0.44731 0.60949 0.0
H256 H 0.28697 0.4009 0.65444 0.0
C257 C 0.07735 0.13807 0.83744 0.0
C258 C 0.16597 0.21369 0.73165 0.0
H259 H 0.28142 0.33142 0.72853 0.0
C260 C 0.15494 0.20361 0.67949 0.0
C261 C 0.21011 0.26211 0.74958 0.0
C262 C 0.22285 0.27469 0.80551 0.0
C263 C 0.18941 0.23899 0.64452 0.0
C264 C 0.237 0.28401 0.66248 0.0
C265 C 0.24521 0.29669 0.71471 0.0
C266 C 0.28266 0.31323 0.62892 0.0
C267 C 0.17528 0.2267 0.5888 0.0
C268 C 0.30845 0.27956 0.5995 0.0
C269 C 0.35621 0.30613 0.57293 0.0
C270 C 0.37973 0.36692 0.57587 0.0
C271 C 0.35376 0.40065 0.60512 0.0
C272 C 0.30549 0.37409 0.63121 0.0
H273 H 0.12922 0.20989 0.58185 0.0
H274 H 0.1917 0.26627 0.56637 0.0
H275 H 0.1938 0.19253 0.57513 0.0
H276 H 0.29297 0.23243 0.59856 0.0
H277 H 0.37531 0.27886 0.55087 0.0
H278 H 0.99971 0.23013 0.8649 0.0
H279 H 0.96619 0.28506 0.80079 0.0
H280 H 0.81159 0.14633 0.78285 0.0
H281 H 0.84448 0.09079 0.84677 0.0
H282 H 0.91515 0.25453 0.69389 0.0
H283 H 0.77341 0.29792 0.83852 0.0
H284 H 0.83376 0.27396 0.85468 0.0
H285 H 0.7707 0.22264 0.82928 0.0
C286 C 0.95904 0.21056 0.84658 0.0
C287 C 0.92444 0.15627 0.86164 0.0
C288 C 0.94005 0.24212 0.8099 0.0
C289 C 0.88617 0.22008 0.78784 0.0
C290 C 0.85315 0.16424 0.79998 0.0
H291 H 0.64329 0.30515 0.60717 0.0
H292 H 0.70442 0.26762 0.66045 0.0
C293 C 0.87211 0.13252 0.83647 0.0
C294 C 0.862 0.25735 0.75609 0.0
H295 H 0.75829 0.32375 0.75439 0.0
C296 C 0.88134 0.2704 0.70713 0.0
C297 C 0.81852 0.27859 0.77398 0.0
C298 C 0.79805 0.26813 0.82714 0.0
C299 C 0.85581 0.3014 0.67444 0.0
C300 C 0.81049 0.32011 0.69162 0.0
C301 C 0.79308 0.30932 0.74138 0.0
C302 C 0.77576 0.34421 0.65712 0.0
C303 C 0.87539 0.31148 0.62104 0.0
C304 C 0.79567 0.40014 0.63747 0.0
C305 C 0.76043 0.42227 0.60664 0.0
C306 C 0.70485 0.38866 0.59518 0.0
C307 C 0.68567 0.33258 0.61498 0.0
C308 C 0.72061 0.3108 0.64556 0.0
H309 H 0.90773 0.28955 0.61217 0.0
H310 H 0.83939 0.2953 0.59365 0.0
H311 H 0.89338 0.35895 0.61572 0.0
H312 H 0.83805 0.42684 0.64652 0.0
H313 H 0.77655 0.46557 0.59206 0.0
H314 H 0.85159 0.94701 0.87435 0.0
H315 H 0.76351 0.90251 0.82859 0.0
H316 H 0.72281 0.76425 0.93576 0.0
H317 H 0.81393 0.80657 0.9791 0.0
H318 H 0.72068 0.71806 0.85265 0.0
H319 H 0.60234 0.87344 0.81856 0.0
H320 H 0.67279 0.9101 0.80293 0.0
H321 H 0.65722 0.88789 0.86718 0.0
C322 C 0.82303 0.90812 0.88908 0.0
C323 C 0.83978 0.8794 0.92944 0.0
C324 C 0.77198 0.88298 0.86324 0.0
C325 C 0.73585 0.82981 0.87855 0.0
C326 C 0.74997 0.80498 0.92283 0.0
H327 H 0.51508 0.6201 0.63246 0.0
H328 H 0.53418 0.67748 0.71247 0.0
C329 C 0.80203 0.82901 0.94754 0.0
C330 C 0.69227 0.79418 0.84208 0.0
H331 H 0.60692 0.8084 0.74304 0.0
C332 C 0.6941 0.73734 0.83024 0.0
C333 C 0.65657 0.8181 0.8126 0.0
C334 C 0.64681 0.87553 0.8266 0.0
C335 C 0.66669 0.7069 0.78684 0.0
C336 C 0.63794 0.73446 0.7537 0.0
C337 C 0.63057 0.78827 0.76798 0.0
C338 C 0.62322 0.71102 0.7016 0.0
C339 C 0.67241 0.64714 0.77465 0.0
C340 C 0.66671 0.71313 0.66852 0.0
C341 C 0.6562 0.68013 0.62344 0.0
C342 C 0.60184 0.64501 0.61048 0.0
C343 C 0.5574 0.64692 0.64157 0.0
C344 C 0.56812 0.67962 0.68718 0.0
H345 H 0.68215 0.62595 0.80924 0.0
H346 H 0.63342 0.61849 0.75601 0.0
H347 H 0.70716 0.65127 0.7483 0.0
H348 H 0.70948 0.73744 0.67919 0.0
H349 H 0.69107 0.67998 0.59993 0.0
loop_
_geom_bond_atom_site_label_1
_geom_bond_atom_site_label_2
_geom_bond_distance
_geom_bond_site_symmetry_2
_ccdc_geom_bond_type
C0 O12 1.241 . S
C0 O13 1.280 . S
C1 O14 1.277 . S
C1 O15 1.245 . S
C2 O26 1.247 . S
C2 O28 1.289 . S
Mg3 O4 1.926 . S
Mg3 O13 1.984 . S
Mg3 O15 1.988 1_554 S
Mg3 O16 2.061 1_655 S
O4 Mg3 1.926 . S
O4 Mg5 1.986 . S
O4 Mg6 1.917 1_655 S
Mg5 O4 1.986 . S
Mg5 O12 2.042 . S
Mg5 O14 2.041 1_554 S
Mg5 O20 2.038 1_545 S
Mg5 O28 2.238 1_544 S
Mg6 O4 1.917 1_455 S
Mg6 O7 1.917 1_544 S
Mg6 O17 2.106 . S
Mg6 O19 2.079 1_445 S
Mg6 O28 2.106 1_444 S
Mg6 O29 2.079 1_554 S
O7 Mg6 1.917 1_566 S
O7 Mg8 1.926 . S
O7 Mg9 1.985 1_556 S
Mg8 O7 1.926 . S
Mg8 O22 1.984 . S
Mg8 O25 1.988 1_556 S
Mg8 O26 2.061 1_455 S
Mg9 O7 1.985 1_554 S
Mg9 O17 2.242 1_565 S
Mg9 O21 2.038 1_554 S
Mg9 O23 2.047 . S
Mg9 O30 2.033 1_564 S
C10 O16 1.247 . S
C10 O17 1.289 . S
C11 O29 1.245 . S
C11 O30 1.274 . S
O12 C0 1.241 . S
O12 Mg5 2.042 . S
O13 C0 1.280 . S
O13 Mg3 1.984 . S
O14 C1 1.277 . S
O14 Mg5 2.041 1_556 S
O15 C1 1.245 . S
O15 Mg3 1.988 1_556 S
O16 Mg3 2.061 1_455 S
O16 C10 1.247 . S
O17 Mg6 2.106 . S
O17 Mg9 2.242 1_545 S
O17 C10 1.289 . S
C18 O19 1.245 . S
C18 O20 1.274 . S
O19 Mg6 2.079 1_665 S
O19 C18 1.245 . S
O20 Mg5 2.038 1_565 S
O20 C18 1.274 . S
O21 Mg9 2.038 1_556 S
O21 C24 1.241 . S
O22 Mg8 1.984 . S
O22 C24 1.280 . S
O23 Mg9 2.047 . S
O23 C27 1.277 . S
C24 O21 1.241 . S
C24 O22 1.280 . S
O25 Mg8 1.988 1_554 S
O25 C27 1.245 . S
O26 C2 1.247 . S
O26 Mg8 2.061 1_655 S
C27 O23 1.277 . S
C27 O25 1.245 . S
O28 C2 1.289 . S
O28 Mg5 2.238 1_566 S
O28 Mg6 2.106 1_666 S
O29 Mg6 2.079 1_556 S
O29 C11 1.245 . S
O30 Mg9 2.033 1_546 S
O30 C11 1.274 . S
C31 O58 1.312 . S
C31 O59 1.208 . S
C32 O53 1.331 . S
C32 O56 1.244 . S
C33 O55 1.264 . S
C33 O57 1.273 . S
Mg34 O36 1.936 . S
Mg34 O43 2.081 . S
Mg34 O45 2.023 . S
Mg34 O49 2.031 . S
Mg34 O58 2.291 . S
Mg35 O36 1.963 . S
Mg35 O46 1.942 . S
Mg35 O47 1.955 . S
Mg35 O54 1.986 . S
O36 Mg34 1.936 . S
O36 Mg35 1.963 . S
O36 Mg37 1.915 . S
Mg37 O36 1.915 . S
Mg37 O38 1.915 . S
Mg37 O42 2.013 . S
Mg37 O48 2.114 . S
Mg37 O52 2.013 . S
Mg37 O58 2.114 . S
O38 Mg37 1.915 . S
O38 Mg39 1.936 . S
O38 Mg40 1.963 . S
Mg39 O38 1.936 . S
Mg39 O48 2.291 . S
Mg39 O53 2.081 . S
Mg39 O55 2.023 . S
Mg39 O59 2.031 . S
Mg40 O38 1.963 . S
Mg40 O44 1.986 . S
Mg40 O56 1.942 . S
Mg40 O57 1.955 . S
C41 O52 1.191 . S
C41 O54 1.307 . S
O42 Mg37 2.013 . S
O42 C61 1.191 . S
O43 Mg34 2.081 . S
O43 C51 1.331 . S
O44 Mg40 1.986 . S
O44 C61 1.307 . S
O45 Mg34 2.023 . S
O45 C60 1.264 . S
O46 Mg35 1.942 . S
O46 C51 1.244 . S
O47 Mg35 1.955 . S
O47 C60 1.273 . S
O48 Mg37 2.114 . S
O48 Mg39 2.291 . S
O48 C50 1.312 . S
O49 Mg34 2.031 . S
O49 C50 1.208 . S
C50 O48 1.312 . S
C50 O49 1.208 . S
C51 O43 1.331 . S
C51 O46 1.244 . S
O52 Mg37 2.013 . S
O52 C41 1.191 . S
O53 C32 1.331 . S
O53 Mg39 2.081 . S
O54 Mg35 1.986 . S
O54 C41 1.307 . S
O55 C33 1.264 . S
O55 Mg39 2.023 . S
O56 C32 1.244 . S
O56 Mg40 1.942 . S
O57 C33 1.273 . S
O57 Mg40 1.955 . S
O58 C31 1.312 . S
O58 Mg34 2.291 . S
O58 Mg37 2.114 . S
O59 C31 1.208 . S
O59 Mg39 2.031 . S
C60 O45 1.264 . S
C60 O47 1.273 . S
C61 O42 1.191 . S
C61 O44 1.307 . S
H62 C70 0.929 . S
H63 C72 0.930 . S
H64 C74 0.930 . S
H65 C77 0.929 . S
H66 C80 0.930 . S
H67 C82 0.960 . S
H68 C82 0.960 . S
H69 C82 0.960 . S
C70 H62 0.929 . S
C70 C71 1.377 . S
C70 C72 1.384 . S
C71 C70 1.377 . S
C71 C77 1.390 . S
C72 H63 0.930 . S
C72 C70 1.384 . S
C72 C73 1.372 . S
C73 C72 1.372 . S
C73 C74 1.400 . S
C73 C78 1.490 . S
C74 H64 0.930 . S
C74 C73 1.400 . S
C74 C77 1.386 . S
H75 C91 0.930 . S
H76 C92 0.931 . S
C77 H65 0.929 . S
C77 C71 1.390 . S
C77 C74 1.386 . S
C78 C73 1.490 . S
C78 C80 1.395 . S
C78 C81 1.403 . S
H79 C85 0.930 . S
C80 H66 0.930 . S
C80 C78 1.395 . S
C80 C83 1.403 . S
C81 C78 1.403 . S
C81 C82 1.524 . S
C81 C85 1.400 . S
C82 H67 0.960 . S
C82 H68 0.960 . S
C82 H69 0.960 . S
C82 C81 1.524 . S
C83 C80 1.403 . S
C83 C84 1.392 . S
C83 C87 1.495 . S
C84 C83 1.392 . S
C84 C85 1.385 . S
C84 C86 1.478 . S
C85 H79 0.930 . S
C85 C81 1.400 . S
C85 C84 1.385 . S
C86 C84 1.478 . S
C86 C88 1.381 . S
C86 C92 1.383 . S
C87 C83 1.495 . S
C87 H93 0.959 . S
C87 H94 0.961 . S
C87 H95 0.960 . S
C88 C86 1.381 . S
C88 C89 1.394 . S
C88 H96 0.930 . S
C89 C88 1.394 . S
C89 C90 1.383 . S
C89 H97 0.929 . S
C90 C89 1.383 . S
C90 C91 1.377 . S
C91 H75 0.930 . S
C91 C90 1.377 . S
C91 C92 1.379 . S
C92 H76 0.931 . S
C92 C86 1.383 . S
C92 C91 1.379 . S
H93 C87 0.959 . S
H94 C87 0.961 . S
H95 C87 0.960 . S
H96 C88 0.930 . S
H97 C89 0.929 . S
H98 C106 0.929 . S
H99 C108 0.930 . S
H100 C110 0.930 . S
H101 C113 0.929 . S
H102 C116 0.930 . S
H103 C118 0.960 . S
H104 C118 0.960 . S
H105 C118 0.960 . S
C106 H98 0.929 . S
C106 C107 1.377 . S
C106 C108 1.384 . S
C107 C106 1.377 . S
C107 C113 1.390 . S
C108 H99 0.930 . S
C108 C106 1.384 . S
C108 C109 1.372 . S
C109 C108 1.372 . S
C109 C110 1.400 . S
C109 C114 1.490 . S
C110 H100 0.930 . S
C110 C109 1.400 . S
C110 C113 1.386 . S
H111 C127 0.930 . S
H112 C128 0.931 . S
C113 H101 0.929 . S
C113 C107 1.390 . S
C113 C110 1.386 . S
C114 C109 1.490 . S
C114 C116 1.395 . S
C114 C117 1.403 . S
H115 C121 0.930 . S
C116 H102 0.930 . S
C116 C114 1.395 . S
C116 C119 1.403 . S
C117 C114 1.403 . S
C117 C118 1.524 . S
C117 C121 1.400 . S
C118 H103 0.960 . S
C118 H104 0.960 . S
C118 H105 0.960 . S
C118 C117 1.524 . S
C119 C116 1.403 . S
C119 C120 1.392 . S
C119 C123 1.495 . S
C120 C119 1.392 . S
C120 C121 1.385 . S
C120 C122 1.478 . S
C121 H115 0.930 . S
C121 C117 1.400 . S
C121 C120 1.385 . S
C122 C120 1.478 . S
C122 C124 1.381 . S
C122 C128 1.383 . S
C123 C119 1.495 . S
C123 H129 0.959 . S
C123 H130 0.961 . S
C123 H131 0.960 . S
C124 C122 1.381 . S
C124 C125 1.394 . S
C124 H132 0.930 . S
C125 C124 1.394 . S
C125 C126 1.383 . S
C125 H133 0.929 . S
C126 C125 1.383 . S
C126 C127 1.377 . S
C127 H111 0.930 . S
C127 C126 1.377 . S
C127 C128 1.379 . S
C128 H112 0.931 . S
C128 C122 1.383 . S
C128 C127 1.379 . S
H129 C123 0.959 . S
H130 C123 0.961 . S
H131 C123 0.960 . S
H132 C124 0.930 . S
H133 C125 0.929 . S
H134 C142 0.929 . S
H135 C144 0.930 . S
H136 C146 0.930 . S
H137 C149 0.929 . S
H138 C152 0.930 . S
H139 C154 0.960 . S
H140 C154 0.960 . S
H141 C154 0.960 . S
C142 H134 0.929 . S
C142 C143 1.377 . S
C142 C144 1.384 . S
C143 C142 1.377 . S
C143 C149 1.390 . S
C144 H135 0.930 . S
C144 C142 1.384 . S
C144 C145 1.372 . S
C145 C144 1.372 . S
C145 C146 1.400 . S
C145 C150 1.490 . S
C146 H136 0.930 . S
C146 C145 1.400 . S
C146 C149 1.386 . S
H147 C163 0.930 . S
H148 C164 0.931 . S
C149 H137 0.929 . S
C149 C143 1.390 . S
C149 C146 1.386 . S
C150 C145 1.490 . S
C150 C152 1.395 . S
C150 C153 1.403 . S
H151 C157 0.930 . S
C152 H138 0.930 . S
C152 C150 1.395 . S
C152 C155 1.403 . S
C153 C150 1.403 . S
C153 C154 1.524 . S
C153 C157 1.400 . S
C154 H139 0.960 . S
C154 H140 0.960 . S
C154 H141 0.960 . S
C154 C153 1.524 . S
C155 C152 1.403 . S
C155 C156 1.392 . S
C155 C159 1.495 . S
C156 C155 1.392 . S
C156 C157 1.385 . S
C156 C158 1.478 . S
C157 H151 0.930 . S
C157 C153 1.400 . S
C157 C156 1.385 . S
C158 C156 1.478 . S
C158 C160 1.381 . S
C158 C164 1.383 . S
C159 C155 1.495 . S
C159 H165 0.959 . S
C159 H166 0.961 . S
C159 H167 0.960 . S
C160 C158 1.381 . S
C160 C161 1.394 . S
C160 H168 0.930 . S
C161 C160 1.394 . S
C161 C162 1.383 . S
C161 H169 0.929 . S
C162 C161 1.383 . S
C162 C163 1.377 . S
C163 H147 0.930 . S
C163 C162 1.377 . S
C163 C164 1.379 . S
C164 H148 0.931 . S
C164 C158 1.383 . S
C164 C163 1.379 . S
H165 C159 0.959 . S
H166 C159 0.961 . S
H167 C159 0.960 . S
H168 C160 0.930 . S
H169 C161 0.929 . S
H170 C178 0.929 . S
H171 C180 0.930 . S
H172 C182 0.930 . S
H173 C185 0.929 . S
H174 C188 0.930 . S
H175 C190 0.960 . S
H176 C190 0.960 . S
H177 C190 0.960 . S
C178 H170 0.929 . S
C178 C179 1.377 . S
C178 C180 1.384 . S
C179 C178 1.377 . S
C179 C185 1.390 . S
C180 H171 0.930 . S
C180 C178 1.384 . S
C180 C181 1.372 . S
C181 C180 1.372 . S
C181 C182 1.400 . S
C181 C186 1.490 . S
C182 H172 0.930 . S
C182 C181 1.400 . S
C182 C185 1.386 . S
H183 C199 0.930 . S
H184 C200 0.931 . S
C185 H173 0.929 . S
C185 C179 1.390 . S
C185 C182 1.386 . S
C186 C181 1.490 . S
C186 C188 1.395 . S
C186 C189 1.403 . S
H187 C193 0.930 . S
C188 H174 0.930 . S
C188 C186 1.395 . S
C188 C191 1.403 . S
C189 C186 1.403 . S
C189 C190 1.524 . S
C189 C193 1.400 . S
C190 H175 0.960 . S
C190 H176 0.960 . S
C190 H177 0.960 . S
C190 C189 1.524 . S
C191 C188 1.403 . S
C191 C192 1.392 . S
C191 C195 1.495 . S
C192 C191 1.392 . S
C192 C193 1.385 . S
C192 C194 1.478 . S
C193 H187 0.930 . S
C193 C189 1.400 . S
C193 C192 1.385 . S
C194 C192 1.478 . S
C194 C196 1.381 . S
C194 C200 1.383 . S
C195 C191 1.495 . S
C195 H201 0.959 . S
C195 H202 0.961 . S
C195 H203 0.960 . S
C196 C194 1.381 . S
C196 C197 1.394 . S
C196 H204 0.930 . S
C197 C196 1.394 . S
C197 C198 1.383 . S
C197 H205 0.929 . S
C198 C197 1.383 . S
C198 C199 1.377 . S
C199 H183 0.930 . S
C199 C198 1.377 . S
C199 C200 1.379 . S
C200 H184 0.931 . S
C200 C194 1.383 . S
C200 C199 1.379 . S
H201 C195 0.959 . S
H202 C195 0.961 . S
H203 C195 0.960 . S
H204 C196 0.930 . S
H205 C197 0.929 . S
H206 C214 0.929 . S
H207 C216 0.930 . S
H208 C218 0.930 . S
H209 C221 0.929 . S
H210 C224 0.930 . S
H211 C226 0.960 . S
H212 C226 0.960 . S
H213 C226 0.960 . S
C214 H206 0.929 . S
C214 C215 1.377 . S
C214 C216 1.384 . S
C215 C214 1.377 . S
C215 C221 1.390 . S
C216 H207 0.930 . S
C216 C214 1.384 . S
C216 C217 1.372 . S
C217 C216 1.372 . S
C217 C218 1.400 . S
C217 C222 1.490 . S
C218 H208 0.930 . S
C218 C217 1.400 . S
C218 C221 1.386 . S
H219 C235 0.930 . S
H220 C236 0.931 . S
C221 H209 0.929 . S
C221 C215 1.390 . S
C221 C218 1.386 . S
C222 C217 1.490 . S
C222 C224 1.395 . S
C222 C225 1.403 . S
H223 C229 0.930 . S
C224 H210 0.930 . S
C224 C222 1.395 . S
C224 C227 1.403 . S
C225 C222 1.403 . S
C225 C226 1.524 . S
C225 C229 1.400 . S
C226 H211 0.960 . S
C226 H212 0.960 . S
C226 H213 0.960 . S
C226 C225 1.524 . S
C227 C224 1.403 . S
C227 C228 1.392 . S
C227 C231 1.495 . S
C228 C227 1.392 . S
C228 C229 1.385 . S
C228 C230 1.478 . S
C229 H223 0.930 . S
C229 C225 1.400 . S
C229 C228 1.385 . S
C230 C228 1.478 . S
C230 C232 1.381 . S
C230 C236 1.383 . S
C231 C227 1.495 . S
C231 H237 0.959 . S
C231 H238 0.961 . S
C231 H239 0.960 . S
C232 C230 1.381 . S
C232 C233 1.394 . S
C232 H240 0.930 . S
C233 C232 1.394 . S
C233 C234 1.383 . S
C233 H241 0.929 . S
C234 C233 1.383 . S
C234 C235 1.377 . S
C235 H219 0.930 . S
C235 C234 1.377 . S
C235 C236 1.379 . S
C236 H220 0.931 . S
C236 C230 1.383 . S
C236 C235 1.379 . S
H237 C231 0.959 . S
H238 C231 0.961 . S
H239 C231 0.960 . S
H240 C232 0.930 . S
H241 C233 0.929 . S
H242 C250 0.929 . S
H243 C252 0.930 . S
H244 C254 0.930 . S
H245 C257 0.929 . S
H246 C260 0.930 . S
H247 C262 0.960 . S
H248 C262 0.960 . S
H249 C262 0.960 . S
C250 H242 0.929 . S
C250 C251 1.377 . S
C250 C252 1.384 . S
C251 C250 1.377 . S
C251 C257 1.390 . S
C252 H243 0.930 . S
C252 C250 1.384 . S
C252 C253 1.372 . S
C253 C252 1.372 . S
C253 C254 1.400 . S
C253 C258 1.490 . S
C254 H244 0.930 . S
C254 C253 1.400 . S
C254 C257 1.386 . S
H255 C271 0.930 . S
H256 C272 0.931 . S
C257 H245 0.929 . S
C257 C251 1.390 . S
C257 C254 1.386 . S
C258 C253 1.490 . S
C258 C260 1.395 . S
C258 C261 1.403 . S
H259 C265 0.930 . S
C260 H246 0.930 . S
C260 C258 1.395 . S
C260 C263 1.403 . S
C261 C258 1.403 . S
C261 C262 1.524 . S
C261 C265 1.400 . S
C262 H247 0.960 . S
C262 H248 0.960 . S
C262 H249 0.960 . S
C262 C261 1.524 . S
C263 C260 1.403 . S
C263 C264 1.392 . S
C263 C267 1.495 . S
C264 C263 1.392 . S
C264 C265 1.385 . S
C264 C266 1.478 . S
C265 H259 0.930 . S
C265 C261 1.400 . S
C265 C264 1.385 . S
C266 C264 1.478 . S
C266 C268 1.381 . S
C266 C272 1.383 . S
C267 C263 1.495 . S
C267 H273 0.959 . S
C267 H274 0.961 . S
C267 H275 0.960 . S
C268 C266 1.381 . S
C268 C269 1.394 . S
C268 H276 0.930 . S
C269 C268 1.394 . S
C269 C270 1.383 . S
C269 H277 0.929 . S
C270 C269 1.383 . S
C270 C271 1.377 . S
C271 H255 0.930 . S
C271 C270 1.377 . S
C271 C272 1.379 . S
C272 H256 0.931 . S
C272 C266 1.383 . S
C272 C271 1.379 . S
H273 C267 0.959 . S
H274 C267 0.961 . S
H275 C267 0.960 . S
H276 C268 0.930 . S
H277 C269 0.929 . S
H278 C286 0.929 . S
H279 C288 0.930 . S
H280 C290 0.930 . S
H281 C293 0.929 . S
H282 C296 0.930 . S
H283 C298 0.960 . S
H284 C298 0.960 . S
H285 C298 0.960 . S
C286 H278 0.929 . S
C286 C287 1.377 . S
C286 C288 1.384 . S
C287 C286 1.377 . S
C287 C293 1.390 . S
C288 H279 0.930 . S
C288 C286 1.384 . S
C288 C289 1.372 . S
C289 C288 1.372 . S
C289 C290 1.400 . S
C289 C294 1.490 . S
C290 H280 0.930 . S
C290 C289 1.400 . S
C290 C293 1.386 . S
H291 C307 0.930 . S
H292 C308 0.931 . S
C293 H281 0.929 . S
C293 C287 1.390 . S
C293 C290 1.386 . S
C294 C289 1.490 . S
C294 C296 1.395 . S
C294 C297 1.403 . S
H295 C301 0.930 . S
C296 H282 0.930 . S
C296 C294 1.395 . S
C296 C299 1.403 . S
C297 C294 1.403 . S
C297 C298 1.524 . S
C297 C301 1.400 . S
C298 H283 0.960 . S
C298 H284 0.960 . S
C298 H285 0.960 . S
C298 C297 1.524 . S
C299 C296 1.403 . S
C299 C300 1.392 . S
C299 C303 1.495 . S
C300 C299 1.392 . S
C300 C301 1.385 . S
C300 C302 1.478 . S
C301 H295 0.930 . S
C301 C297 1.400 . S
C301 C300 1.385 . S
C302 C300 1.478 . S
C302 C304 1.381 . S
C302 C308 1.383 . S
C303 C299 1.495 . S
C303 H309 0.959 . S
C303 H310 0.961 . S
C303 H311 0.960 . S
C304 C302 1.381 . S
C304 C305 1.394 . S
C304 H312 0.930 . S
C305 C304 1.394 . S
C305 C306 1.383 . S
C305 H313 0.929 . S
C306 C305 1.383 . S
C306 C307 1.377 . S
C307 H291 0.930 . S
C307 C306 1.377 . S
C307 C308 1.379 . S
C308 H292 0.931 . S
C308 C302 1.383 . S
C308 C307 1.379 . S
H309 C303 0.959 . S
H310 C303 0.961 . S
H311 C303 0.960 . S
H312 C304 0.930 . S
H313 C305 0.929 . S
H314 C322 0.929 . S
H315 C324 0.930 . S
H316 C326 0.930 . S
H317 C329 0.929 . S
H318 C332 0.930 . S
H319 C334 0.960 . S
H320 C334 0.960 . S
H321 C334 0.960 . S
C322 H314 0.929 . S
C322 C323 1.377 . S
C322 C324 1.384 . S
C323 C322 1.377 . S
C323 C329 1.390 . S
C324 H315 0.930 . S
C324 C322 1.384 . S
C324 C325 1.372 . S
C325 C324 1.372 . S
C325 C326 1.400 . S
C325 C330 1.490 . S
C326 H316 0.930 . S
C326 C325 1.400 . S
C326 C329 1.386 . S
H327 C343 0.930 . S
H328 C344 0.931 . S
C329 H317 0.929 . S
C329 C323 1.390 . S
C329 C326 1.386 . S
C330 C325 1.490 . S
C330 C332 1.395 . S
C330 C333 1.403 . S
H331 C337 0.930 . S
C332 H318 0.930 . S
C332 C330 1.395 . S
C332 C335 1.403 . S
C333 C330 1.403 . S
C333 C334 1.524 . S
C333 C337 1.400 . S
C334 H319 0.960 . S
C334 H320 0.960 . S
C334 H321 0.960 . S
C334 C333 1.524 . S
C335 C332 1.403 . S
C335 C336 1.392 . S
C335 C339 1.495 . S
C336 C335 1.392 . S
C336 C337 1.385 . S
C336 C338 1.478 . S
C337 H331 0.930 . S
C337 C333 1.400 . S
C337 C336 1.385 . S
C338 C336 1.478 . S
C338 C340 1.381 . S
C338 C344 1.383 . S
C339 C335 1.495 . S
C339 H345 0.959 . S
C339 H346 0.961 . S
C339 H347 0.960 . S
C340 C338 1.381 . S
C340 C341 1.394 . S
C340 H348 0.930 . S
C341 C340 1.394 . S
C341 C342 1.383 . S
C341 H349 0.929 . S
C342 C341 1.383 . S
C342 C343 1.377 . S
C343 H327 0.930 . S
C343 C342 1.377 . S
C343 C344 1.379 . S
C344 H328 0.931 . S
C344 C338 1.383 . S
C344 C343 1.379 . S
H345 C339 0.959 . S
H346 C339 0.961 . S
H347 C339 0.960 . S
H348 C340 0.930 . S
H349 C341 0.929 . S
C71 C10 0.896 . S
C90 C41 0.926 . S
C107 C0 1.723 . S
C126 C33 1.753 . S
C143 C18 1.344 . S
C162 C50 1.321 . S
C179 C27 1.746 . S
C198 C51 1.745 . S
C215 C24 1.718 . S
C234 C60 1.736 . S
C270 C61 1.316 . S
C251 C11 1.289 . S
C287 C1 1.728 . S
C306 C32 1.734 . S
C342 C31 0.905 . S
C323 C2 0.953 . S
