# Generated by pormake.
# Topology nia, (6,6)-cn, num edge types: 1
# Building blocks:
#     Node 0, Type 0, BuildingBlock: PAMTOO_clean_sbu_0, # of connection points: 6
#     Node 1, Type 0, BuildingBlock: PAMTOO_clean_sbu_0, # of connection points: 6
#     Node 2, Type 1, BuildingBlock: MIDCAF_clean_sbu_0, # of connection points: 6
#     Node 3, Type 1, BuildingBlock: MIDCAF_clean_sbu_0, # of connection points: 6
#     Edge 4, Type (0, 1), BuildingBlock: CIFDUS_clean_linker_0, # of connection points: 2
#     Edge 5, Type (0, 1), BuildingBlock: CIFDUS_clean_linker_0, # of connection points: 2
#     Edge 6, Type (0, 1), BuildingBlock: CIFDUS_clean_linker_0, # of connection points: 2
#     Edge 7, Type (0, 1), BuildingBlock: CIFDUS_clean_linker_0, # of connection points: 2
#     Edge 8, Type (0, 1), BuildingBlock: CIFDUS_clean_linker_0, # of connection points: 2
#     Edge 9, Type (0, 1), BuildingBlock: CIFDUS_clean_linker_0, # of connection points: 2
#     Edge 10, Type (0, 1), BuildingBlock: CIFDUS_clean_linker_0, # of connection points: 2
#     Edge 11, Type (0, 1), BuildingBlock: CIFDUS_clean_linker_0, # of connection points: 2
#     Edge 12, Type (0, 1), BuildingBlock: CIFDUS_clean_linker_0, # of connection points: 2
#     Edge 13, Type (0, 1), BuildingBlock: CIFDUS_clean_linker_0, # of connection points: 2
#     Edge 14, Type (0, 1), BuildingBlock: CIFDUS_clean_linker_0, # of connection points: 2
#     Edge 15, Type (0, 1), BuildingBlock: CIFDUS_clean_linker_0, # of connection points: 2
# Relax obj value: 0.180
# Max RMSD: 0.282
# Mean RMSD: 0.198
data_MOF--net-nia--node1-PAMTOO_clean_sbu_0--node2-MIDCAF_clean_sbu_0--edge1-CIFDUS_clean_linker_0
_symmetry_space_group_name_H-M    P1
_symmetry_Int_Tables_number       1
_symmetry_cell_setting            triclinic
loop_
_symmetry_equiv_pos_as_xyz
'x, y, z'
_cell_length_a     26.217103
_cell_length_b     26.426361
_cell_length_c     27.361591
_cell_angle_alpha  90.49693
_cell_angle_beta   89.566721
_cell_angle_gamma 137.20934
loop_
_atom_site_label
_atom_site_type_symbol
_atom_site_fract_x
_atom_site_fract_y
_atom_site_fract_z
_atom_type_partial_charge
Dy0 Dy 0.00907 -0.03042 0.12537 0.0
Dy1 Dy 0.93095 -0.00693 1.04957 0.0
C2 C 0.09064 0.06149 1.02811 0.0
O3 O 0.06642 0.08447 0.13668 0.0
O4 O -0.02779 0.06943 0.11385 0.0
O5 O 0.1066 0.01113 0.16203 0.0
O6 O -0.00484 0.9045 0.18251 0.0
O7 O 0.84194 0.89276 0.09551 0.0
O8 O 0.91426 0.94045 0.16329 0.0
O9 O 0.91527 0.90609 1.01275 0.0
O10 O 0.93988 0.87019 0.07688 0.0
O11 O 0.84206 -0.01883 1.03448 0.0
O12 O 0.92708 0.02814 0.97943 0.0
C13 C 0.03323 0.10433 0.13936 0.0
O14 O 0.07211 0.00876 1.05471 0.0
O15 O 0.05344 0.07725 1.03165 0.0
C16 C 0.09426 0.91899 0.19064 0.0
C17 C 0.14305 0.85358 0.19559 0.0
C18 C 0.12777 0.86472 0.15012 0.0
C19 C 0.10335 0.89703 0.14768 0.0
C20 C 0.1098 0.90855 0.236 0.0
C21 C 0.13403 0.87605 0.23853 0.0
C22 C 0.0673 0.95154 0.18874 0.0
C23 C 0.84797 0.8962 0.14318 0.0
C24 C 0.91688 0.86174 1.03202 0.0
C25 C 0.86588 0.06396 0.97719 0.0
C26 C 0.83795 0.14392 0.94703 0.0
C27 C 0.84031 0.13358 0.99702 0.0
C28 C 0.85427 0.09414 1.01197 0.0
C29 C 0.86718 0.07735 0.92737 0.0
C30 C 0.85375 0.11731 0.91241 0.0
C31 C 0.868 0.01164 0.99139 0.0
H32 H 0.135 0.84874 0.11641 0.0
H33 H 0.09136 0.90469 0.11237 0.0
H34 H 0.10253 0.92492 0.2695 0.0
H35 H 0.14427 0.86722 0.2741 0.0
H36 H 0.82951 0.15448 1.02459 0.0
H37 H 0.8533 0.08509 1.05066 0.0
H38 H 0.87561 0.05428 0.89985 0.0
H39 H 0.85206 0.12416 0.8737 0.0
Dy40 Dy -0.01276 0.9519 0.51467 0.0
Dy41 Dy 0.94424 -0.00524 0.60812 0.0
C42 C 0.92388 0.85874 0.61303 0.0
O43 O 0.86416 0.87254 0.51746 0.0
O44 O 0.86484 0.95368 0.54639 0.0
O45 O 0.95579 0.86918 0.46466 0.0
O46 O 0.05677 -0.01366 0.45184 0.0
O47 O 0.01991 0.09489 0.55977 0.0
O48 O -0.00796 0.03479 0.48757 0.0
O49 O 0.04486 0.02421 0.63319 0.0
O50 O 0.0923 0.03408 0.55832 0.0
O51 O -0.02583 0.06866 0.6661 0.0
O52 O 0.85802 0.96226 0.65586 0.0
C53 C 0.83359 0.89501 0.51992 0.0
O54 O -0.02814 0.88755 0.57682 0.0
O55 O 0.8956 0.88287 0.62413 0.0
C56 C 0.05614 0.90032 0.42435 0.0
C57 C 0.13153 0.86442 0.40133 0.0
C58 C 0.05303 0.80794 0.4063 0.0
C59 C 0.01569 0.82576 0.41748 0.0
C60 C 0.13428 0.95703 0.41708 0.0
C61 C 0.17161 0.9392 0.40573 0.0
C62 C 0.01617 0.91812 0.43807 0.0
C63 C 0.02036 0.09394 0.51173 0.0
C64 C 0.09916 0.04482 0.60592 0.0
C65 C 0.88153 0.06051 0.68944 0.0
C66 C 0.84075 0.13219 0.70936 0.0
C67 C 0.86031 0.13082 0.6616 0.0
C68 C 0.88057 0.09534 0.65174 0.0
C69 C 0.86119 0.06076 0.73692 0.0
C70 C 0.84083 0.09614 0.74682 0.0
C71 C 0.90486 0.0249 0.68021 0.0
H72 H 0.02064 0.74977 0.40352 0.0
H73 H 0.95522 0.78098 0.42183 0.0
H74 H 0.16687 0.01516 0.42092 0.0
H75 H 0.23205 -0.0161 0.40128 0.0
H76 H 0.85966 0.15693 0.6317 0.0
H77 H 0.89586 0.09541 0.61481 0.0
H78 H 0.86177 0.03418 0.76649 0.0
H79 H 0.82667 0.0966 0.78397 0.0
Zn80 Zn 0.29762 0.5918 0.23558 0.0
Zn81 Zn 0.33961 0.65185 0.41122 0.0
Zn82 Zn 0.32431 0.61419 0.32377 0.0
C83 C 0.48214 0.73452 0.37739 0.0
C84 C 0.25072 0.49915 0.41102 0.0
O85 O 0.29855 0.67071 0.29079 0.0
O86 O 0.30091 0.66348 0.21041 0.0
C87 C 0.43876 0.64942 0.24885 0.0
O88 O 0.44414 0.68808 0.34153 0.0
O89 O 0.44951 0.73471 0.4113 0.0
O90 O 0.28906 0.55542 0.43872 0.0
O91 O 0.2524 0.50732 0.36444 0.0
O92 O 0.38412 0.61033 0.21947 0.0
O93 O 0.43156 0.66488 0.29141 0.0
O94 O 0.23702 0.49176 0.31217 0.0
O95 O 0.19699 0.48813 0.2402 0.0
C96 C 0.18936 0.45445 0.27681 0.0
O97 O 0.28306 0.66258 0.34004 0.0
O98 O 0.28791 0.67874 0.41998 0.0
C99 C 0.29654 0.68854 0.24757 0.0
C100 C 0.26959 0.68051 0.37819 0.0
Zn101 Zn 0.60924 0.34543 0.91832 0.0
Zn102 Zn 0.6276 0.34001 0.73354 0.0
Zn103 Zn 0.6103 0.3408 0.82594 0.0
C104 C 0.71133 0.48561 0.75397 0.0
C105 C 0.47368 0.24986 0.75119 0.0
O106 O 0.65241 0.29842 0.85853 0.0
O107 O 0.63001 0.29064 0.93765 0.0
C108 C 0.70853 0.49119 0.89091 0.0
O109 O 0.68309 0.45646 0.79667 0.0
O110 O 0.69817 0.44616 0.71888 0.0
O111 O 0.52054 0.27349 0.71789 0.0
O112 O 0.49541 0.26808 0.79608 0.0
O113 O 0.69003 0.45345 0.92849 0.0
O114 O 0.68226 0.45905 0.84868 0.0
O115 O 0.49102 0.26821 0.84794 0.0
O116 O 0.50585 0.29514 0.92683 0.0
C117 C 0.46386 0.26181 0.88987 0.0
O118 O 0.65351 0.29354 0.80758 0.0
O119 O 0.66653 0.29955 0.72716 0.0
C120 C 0.65306 0.28076 0.9023 0.0
C121 C 0.67142 0.282 0.7681 0.0
H122 H 0.25148 0.89186 0.25341 0.0
H123 H 0.0867 0.73271 0.14384 0.0
H124 H 0.12374 0.67105 0.14816 0.0
H125 H 0.19933 0.65929 0.18504 0.0
H126 H 0.36132 0.81476 0.29632 0.0
H127 H 0.32921 0.88135 0.28944 0.0
C128 C 0.22355 0.84354 0.23062 0.0
C129 C 0.16662 0.81709 0.19821 0.0
C130 C 0.24477 0.80798 0.23351 0.0
C131 C 0.13145 0.75486 0.16855 0.0
C132 C 0.15229 0.71932 0.17116 0.0
C133 C 0.22808 0.7083 0.20732 0.0
C134 C 0.28207 0.73221 0.24128 0.0
C135 C 0.20856 0.74519 0.20361 0.0
C136 C 0.31912 0.79545 0.27017 0.0
C137 C 0.30081 0.83336 0.2662 0.0
H138 H 0.15091 0.10006 0.69944 0.0
H139 H 0.20457 0.06083 0.56443 0.0
H140 H 0.32008 0.11362 0.59977 0.0
H141 H 0.40866 0.17539 0.66651 0.0
H142 H 0.364 0.22447 0.80051 0.0
H143 H 0.24134 0.16133 0.76875 0.0
C144 C 0.18786 0.10297 0.67788 0.0
C145 C 0.16908 0.07706 0.62907 0.0
C146 C 0.2555 0.13444 0.69838 0.0
C147 C 0.21764 0.0811 0.60175 0.0
C148 C 0.28378 0.111 0.622 0.0
C149 C 0.37211 0.17207 0.68912 0.0
C150 C 0.39549 0.20432 0.73607 0.0
C151 C 0.30359 0.13848 0.66993 0.0
C152 C 0.34691 0.19884 0.76475 0.0
C153 C 0.27716 0.16361 0.74622 0.0
H154 H -0.02589 0.15271 0.16838 0.0
H155 H 0.16452 0.19247 0.1891 0.0
H156 H 0.22065 0.29388 0.24508 0.0
H157 H 0.22474 0.3822 0.2795 0.0
H158 H 0.04105 0.35077 0.25481 0.0
H159 H -0.02799 0.23401 0.21111 0.0
C160 C 0.02775 0.1835 0.18523 0.0
C161 C 0.06542 0.16563 0.17363 0.0
C162 C 0.06052 0.24271 0.21757 0.0
C163 C 0.13439 0.20535 0.1966 0.0
C164 C 0.16663 0.26332 0.22903 0.0
C165 C 0.16807 0.34778 0.26658 0.0
C166 C 0.13732 0.37397 0.27089 0.0
C167 C 0.13112 0.28358 0.23894 0.0
C168 C 0.06496 0.33052 0.2526 0.0
C169 C 0.02623 0.26464 0.22681 0.0
H170 H 0.72938 0.08866 0.7689 0.0
H171 H 0.91045 0.26689 0.67414 0.0
H172 H 0.87659 0.33066 0.68694 0.0
H173 H 0.79201 0.33314 0.72124 0.0
H174 H 0.60951 0.15573 0.81488 0.0
H175 H 0.64831 0.09496 0.80737 0.0
C176 C 0.76197 0.14187 0.75153 0.0
C177 C 0.82177 0.17229 0.71995 0.0
C178 C 0.74206 0.17845 0.759 0.0
C179 C 0.86313 0.24122 0.69764 0.0
C180 C 0.84414 0.27807 0.7052 0.0
C181 C 0.76134 0.28156 0.74043 0.0
C182 C 0.69876 0.24925 0.76905 0.0
C183 C 0.78315 0.2467 0.73515 0.0
C184 C 0.65867 0.18205 0.7933 0.0
C185 C 0.68052 0.14716 0.78865 0.0
H186 H 0.70723 0.76347 0.12202 0.0
H187 H 0.83728 0.9341 0.23314 0.0
H188 H 0.72227 0.86953 0.27931 0.0
H189 H 0.58269 0.7698 0.28338 0.0
H190 H 0.45629 0.59766 0.17259 0.0
H191 H 0.57156 0.65701 0.13155 0.0
C192 C 0.7104 0.78617 0.15656 0.0
C193 C 0.78021 0.85376 0.17383 0.0
C194 C 0.64451 0.74851 0.18298 0.0
C195 C 0.78388 0.88204 0.21905 0.0
C196 C 0.71815 0.84529 0.24536 0.0
C197 C 0.58055 0.74443 0.25101 0.0
C198 C 0.51061 0.6799 0.23087 0.0
C199 C 0.64777 0.77909 0.22715 0.0
C200 C 0.50908 0.64794 0.18863 0.0
C201 C 0.57509 0.68186 0.16492 0.0
H202 H 0.81973 0.77887 0.68657 0.0
H203 H -0.02659 0.79738 0.60316 0.0
H204 H 0.92806 0.68938 0.64515 0.0
H205 H 0.83714 0.58296 0.69989 0.0
H206 H 0.67676 0.55775 0.77824 0.0
H207 H 0.73394 0.67634 0.74559 0.0
C208 C 0.84384 0.75977 0.67783 0.0
C209 C 0.89941 0.79599 0.64121 0.0
C210 C 0.81695 0.6969 0.70186 0.0
C211 C 0.93012 0.77042 0.63071 0.0
C212 C 0.90434 0.70863 0.65482 0.0
C213 C 0.81611 0.60463 0.71075 0.0
C214 C 0.75472 0.56335 0.743 0.0
C215 C 0.84683 0.67063 0.68972 0.0
C216 C 0.72664 0.59076 0.75589 0.0
C217 C 0.75817 0.65759 0.73609 0.0
H218 H 0.09511 0.75712 0.34322 0.0
H219 H 0.25746 0.92726 0.44945 0.0
H220 H 0.31593 0.88663 0.4498 0.0
H221 H 0.31551 0.79749 0.42489 0.0
H222 H 0.15299 0.62509 0.32035 0.0
H223 H 0.09873 0.67082 0.31493 0.0
C224 C 0.14336 0.78527 0.36633 0.0
C225 C 0.17169 0.84487 0.39642 0.0
C226 C 0.17576 0.7605 0.36723 0.0
C227 C 0.23511 0.88184 0.42551 0.0
C228 C 0.26811 0.85816 0.42617 0.0
C229 C 0.26812 0.77002 0.401 0.0
C230 C 0.23765 0.70807 0.37331 0.0
C231 C 0.23795 0.79671 0.39802 0.0
C232 C 0.17692 0.67297 0.34202 0.0
C233 C 0.14604 0.69902 0.339 0.0
H234 H 0.13743 0.01577 0.97224 0.0
H235 H 0.19317 0.20997 1.01234 0.0
H236 H 0.31046 0.28924 0.96612 0.0
H237 H 0.40338 0.30455 0.92246 0.0
H238 H 0.3469 0.11137 0.87859 0.0
H239 H 0.22262 0.02987 0.91676 0.0
C240 C 0.17513 0.07539 0.97038 0.0
C241 C 0.15766 0.10739 0.99633 0.0
C242 C 0.24178 0.12047 0.94275 0.0
C243 C 0.20584 0.18432 0.9929 0.0
C244 C 0.27285 0.22962 0.96651 0.0
C245 C 0.36267 0.24445 0.91988 0.0
C246 C 0.38356 0.21362 0.89775 0.0
C247 C 0.29212 0.1985 0.94224 0.0
C248 C 0.33123 0.13596 0.89489 0.0
C249 C 0.26075 0.08959 0.91732 0.0
H250 H 0.08014 0.22381 0.54899 0.0
H251 H 0.03943 0.11622 0.41237 0.0
H252 H 0.10425 0.23067 0.3681 0.0
H253 H 0.17859 0.36444 0.36904 0.0
H254 H 0.21734 0.46831 0.50722 0.0
H255 H 0.14786 0.35279 0.54955 0.0
C256 C 0.08499 0.225 0.50951 0.0
C257 C 0.05526 0.1615 0.48425 0.0
C258 C 0.12264 0.29087 0.48435 0.0
C259 C 0.06194 0.16433 0.43294 0.0
C260 C 0.09918 0.22988 0.40752 0.0
C261 C 0.17107 0.36143 0.4082 0.0
C262 C 0.20382 0.42553 0.43455 0.0
C263 C 0.13065 0.29398 0.43292 0.0
C264 C 0.19369 0.42047 0.48565 0.0
C265 C 0.15366 0.35416 0.51017 0.0
H266 H 0.71925 0.1106 0.98116 0.0
H267 H 0.8997 0.24967 0.87632 0.0
H268 H 0.85799 0.30389 0.8518 0.0
H269 H 0.77224 0.31508 0.86319 0.0
H270 H 0.58964 0.17066 0.96623 0.0
H271 H 0.63116 0.11658 0.98928 0.0
C272 C 0.75 0.15337 0.95329 0.0
C273 C 0.8133 0.17711 0.93131 0.0
C274 C 0.72542 0.18358 0.93923 0.0
C275 C 0.85109 0.23086 0.8941 0.0
C276 C 0.8274 0.26201 0.8802 0.0
C277 C 0.74099 0.27084 0.88998 0.0
C278 C 0.67735 0.2461 0.91248 0.0
C279 C 0.76484 0.23917 0.9028 0.0
C280 C 0.63852 0.19028 0.9482 0.0
C281 C 0.66216 0.15928 0.9614 0.0
H282 H 0.7889 0.95251 0.48209 0.0
H283 H 0.73408 0.75362 0.48514 0.0
H284 H 0.62847 0.69071 0.43036 0.0
H285 H 0.5439 0.68783 0.38849 0.0
H286 H 0.59441 0.88385 0.3886 0.0
H287 H 0.71118 0.95346 0.43303 0.0
C288 C 0.75351 0.89532 0.4709 0.0
C289 C 0.76821 0.85726 0.48842 0.0
C290 C 0.69317 0.85957 0.4389 0.0
C291 C 0.72323 0.78381 0.47263 0.0
C292 C 0.66313 0.74788 0.44101 0.0
C293 C 0.58231 0.74665 0.39648 0.0
C294 C 0.56172 0.78127 0.38495 0.0
C295 C 0.64692 0.78482 0.42443 0.0
C296 C 0.61035 0.85682 0.39655 0.0
C297 C 0.67623 0.89609 0.42273 0.0
H298 H 0.82138 0.78853 0.95349 0.0
H299 H -0.03638 0.79916 1.04355 0.0
H300 H 0.92164 0.69305 1.00023 0.0
H301 H 0.83403 0.5884 0.944 0.0
H302 H 0.68061 0.56697 0.86061 0.0
H303 H 0.73918 0.68719 0.89194 0.0
C304 C 0.84376 0.76807 0.9631 0.0
C305 C 0.89459 0.80097 1.00224 0.0
C306 C 0.81803 0.70553 0.93859 0.0
C307 C 0.92327 0.77398 1.01427 0.0
C308 C 0.89966 0.7135 0.98932 0.0
C309 C 0.8152 0.61146 0.93154 0.0
C310 C 0.75519 0.57059 0.89852 0.0
C311 C 0.84567 0.67768 0.95239 0.0
C312 C 0.72962 0.59961 0.88361 0.0
C313 C 0.76179 0.66737 0.90274 0.0
loop_
_geom_bond_atom_site_label_1
_geom_bond_atom_site_label_2
_geom_bond_distance
_geom_bond_site_symmetry_2
_ccdc_geom_bond_type
Dy0 O3 2.307 1_565 S
Dy0 O5 2.395 . S
Dy0 O6 2.379 . S
Dy0 O8 2.339 1_455 S
Dy0 O10 2.298 1_454 S
Dy0 O14 2.275 1_564 S
Dy0 C22 2.738 . S
Dy1 O4 2.298 1_656 S
Dy1 O7 2.275 1_546 S
Dy1 O9 2.307 1_545 S
Dy1 O11 2.395 . S
Dy1 O12 2.379 . S
Dy1 O15 2.339 1_655 S
Dy1 C31 2.738 . S
C2 O14 1.254 . S
C2 O15 1.257 . S
O3 Dy0 2.307 1_545 S
O3 C13 1.266 . S
O4 Dy1 2.298 1_454 S
O4 C13 1.236 . S
O5 Dy0 2.395 . S
O5 C22 1.255 . S
O6 Dy0 2.379 . S
O6 C22 1.249 . S
O7 Dy1 2.275 1_564 S
O7 C23 1.254 . S
O8 Dy0 2.339 1_655 S
O8 C23 1.257 . S
O9 Dy1 2.307 1_565 S
O9 C24 1.266 . S
O10 Dy0 2.298 1_656 S
O10 C24 1.236 . S
O11 Dy1 2.395 . S
O11 C31 1.255 . S
O12 Dy1 2.379 . S
O12 C31 1.249 . S
C13 O3 1.266 . S
C13 O4 1.236 . S
O14 Dy0 2.275 1_546 S
O14 C2 1.254 . S
O15 Dy1 2.339 1_455 S
O15 C2 1.257 . S
C16 C19 1.344 . S
C16 C20 1.328 . S
C16 C22 1.516 . S
C17 C18 1.304 . S
C17 C21 1.323 . S
C18 C17 1.304 . S
C18 C19 1.371 . S
C18 H32 0.930 . S
C19 C16 1.344 . S
C19 C18 1.371 . S
C19 H33 0.931 . S
C20 C16 1.328 . S
C20 C21 1.433 . S
C20 H34 0.931 . S
C21 C17 1.323 . S
C21 C20 1.433 . S
C21 H35 0.933 . S
C22 Dy0 2.738 . S
C22 O5 1.255 . S
C22 O6 1.249 . S
C22 C16 1.516 . S
C23 O7 1.254 . S
C23 O8 1.257 . S
C24 O9 1.266 . S
C24 O10 1.236 . S
C25 C28 1.344 . S
C25 C29 1.328 . S
C25 C31 1.516 . S
C26 C27 1.304 . S
C26 C30 1.323 . S
C27 C26 1.304 . S
C27 C28 1.371 . S
C27 H36 0.930 . S
C28 C25 1.344 . S
C28 C27 1.371 . S
C28 H37 0.931 . S
C29 C25 1.328 . S
C29 C30 1.433 . S
C29 H38 0.931 . S
C30 C26 1.323 . S
C30 C29 1.433 . S
C30 H39 0.933 . S
C31 Dy1 2.738 . S
C31 O11 1.255 . S
C31 O12 1.249 . S
C31 C25 1.516 . S
H32 C18 0.930 . S
H33 C19 0.931 . S
H34 C20 0.931 . S
H35 C21 0.933 . S
H36 C27 0.930 . S
H37 C28 0.931 . S
H38 C29 0.931 . S
H39 C30 0.933 . S
Dy40 O43 2.307 1_455 S
Dy40 O45 2.395 . S
Dy40 O46 2.379 1_565 S
Dy40 O48 2.339 1_565 S
Dy40 O50 2.298 1_565 S
Dy40 O54 2.275 1_455 S
Dy40 C62 2.738 . S
Dy41 O44 2.298 1_445 S
Dy41 O47 2.275 . S
Dy41 O49 2.307 . S
Dy41 O51 2.395 1_455 S
Dy41 O52 2.379 1_455 S
Dy41 O55 2.339 1_445 S
Dy41 C71 2.738 1_455 S
C42 O54 1.254 . S
C42 O55 1.257 . S
O43 Dy40 2.307 1_655 S
O43 C53 1.266 . S
O44 Dy41 2.298 1_665 S
O44 C53 1.236 . S
O45 Dy40 2.395 . S
O45 C62 1.255 . S
O46 Dy40 2.379 1_545 S
O46 C62 1.249 1_545 S
O47 Dy41 2.275 . S
O47 C63 1.254 . S
O48 Dy40 2.339 1_545 S
O48 C63 1.257 . S
O49 Dy41 2.307 . S
O49 C64 1.266 . S
O50 Dy40 2.298 1_545 S
O50 C64 1.236 . S
O51 Dy41 2.395 1_655 S
O51 C71 1.255 . S
O52 Dy41 2.379 1_655 S
O52 C71 1.249 . S
C53 O43 1.266 . S
C53 O44 1.236 . S
O54 Dy40 2.275 1_655 S
O54 C42 1.254 . S
O55 Dy41 2.339 1_665 S
O55 C42 1.257 . S
C56 C59 1.344 . S
C56 C60 1.328 . S
C56 C62 1.516 . S
C57 C58 1.304 . S
C57 C61 1.323 . S
C58 C57 1.304 . S
C58 C59 1.371 . S
C58 H72 0.930 . S
C59 C56 1.344 . S
C59 C58 1.371 . S
C59 H73 0.931 . S
C60 C56 1.328 . S
C60 C61 1.433 . S
C60 H74 0.931 . S
C61 C57 1.323 . S
C61 C60 1.433 . S
C61 H75 0.933 . S
C62 Dy40 2.738 . S
C62 O45 1.255 . S
C62 O46 1.249 1_565 S
C62 C56 1.516 . S
C63 O47 1.254 . S
C63 O48 1.257 . S
C64 O49 1.266 . S
C64 O50 1.236 . S
C65 C68 1.344 . S
C65 C69 1.328 . S
C65 C71 1.516 . S
C66 C67 1.304 . S
C66 C70 1.323 . S
C67 C66 1.304 . S
C67 C68 1.371 . S
C67 H76 0.930 . S
C68 C65 1.344 . S
C68 C67 1.371 . S
C68 H77 0.931 . S
C69 C65 1.328 . S
C69 C70 1.433 . S
C69 H78 0.931 . S
C70 C66 1.323 . S
C70 C69 1.433 . S
C70 H79 0.933 . S
C71 Dy41 2.738 1_655 S
C71 O51 1.255 . S
C71 O52 1.249 . S
C71 C65 1.516 . S
H72 C58 0.930 . S
H73 C59 0.931 . S
H74 C60 0.931 . S
H75 C61 0.933 . S
H76 C67 0.930 . S
H77 C68 0.931 . S
H78 C69 0.931 . S
H79 C70 0.933 . S
Zn80 O86 1.920 . S
Zn80 O92 1.898 . S
Zn80 O95 1.905 . S
Zn81 O89 1.905 . S
Zn81 O90 1.898 . S
Zn81 O98 1.920 . S
Zn82 O85 2.080 . S
Zn82 O88 2.114 . S
Zn82 O91 2.120 . S
Zn82 O93 2.120 . S
Zn82 O94 2.114 . S
Zn82 O97 2.080 . S
C83 O88 1.166 . S
C83 O89 1.182 . S
C84 O90 1.167 . S
C84 O91 1.299 . S
O85 Zn82 2.080 . S
O85 C99 1.305 . S
O86 Zn80 1.920 . S
O86 C99 1.234 . S
C87 O92 1.167 . S
C87 O93 1.299 . S
O88 Zn82 2.114 . S
O88 C83 1.166 . S
O89 Zn81 1.905 . S
O89 C83 1.182 . S
O90 Zn81 1.898 . S
O90 C84 1.167 . S
O91 Zn82 2.120 . S
O91 C84 1.299 . S
O92 Zn80 1.898 . S
O92 C87 1.167 . S
O93 Zn82 2.120 . S
O93 C87 1.299 . S
O94 Zn82 2.114 . S
O94 C96 1.166 . S
O95 Zn80 1.905 . S
O95 C96 1.182 . S
C96 O94 1.166 . S
C96 O95 1.182 . S
O97 Zn82 2.080 . S
O97 C100 1.305 . S
O98 Zn81 1.920 . S
O98 C100 1.234 . S
C99 O85 1.305 . S
C99 O86 1.234 . S
C100 O97 1.305 . S
C100 O98 1.234 . S
Zn101 O107 1.920 . S
Zn101 O113 1.898 . S
Zn101 O116 1.905 . S
Zn102 O110 1.905 . S
Zn102 O111 1.898 . S
Zn102 O119 1.920 . S
Zn103 O106 2.080 . S
Zn103 O109 2.114 . S
Zn103 O112 2.120 . S
Zn103 O114 2.120 . S
Zn103 O115 2.114 . S
Zn103 O118 2.080 . S
C104 O109 1.166 . S
C104 O110 1.182 . S
C105 O111 1.167 . S
C105 O112 1.299 . S
O106 Zn103 2.080 . S
O106 C120 1.305 . S
O107 Zn101 1.920 . S
O107 C120 1.234 . S
C108 O113 1.167 . S
C108 O114 1.299 . S
O109 Zn103 2.114 . S
O109 C104 1.166 . S
O110 Zn102 1.905 . S
O110 C104 1.182 . S
O111 Zn102 1.898 . S
O111 C105 1.167 . S
O112 Zn103 2.120 . S
O112 C105 1.299 . S
O113 Zn101 1.898 . S
O113 C108 1.167 . S
O114 Zn103 2.120 . S
O114 C108 1.299 . S
O115 Zn103 2.114 . S
O115 C117 1.166 . S
O116 Zn101 1.905 . S
O116 C117 1.182 . S
C117 O115 1.166 . S
C117 O116 1.182 . S
O118 Zn103 2.080 . S
O118 C121 1.305 . S
O119 Zn102 1.920 . S
O119 C121 1.234 . S
C120 O106 1.305 . S
C120 O107 1.234 . S
C121 O118 1.305 . S
C121 O119 1.234 . S
H122 C128 0.930 . S
H123 C131 0.930 . S
H124 C132 0.930 . S
H125 C133 0.930 . S
H126 C136 0.930 . S
H127 C137 0.930 . S
C128 H122 0.930 . S
C128 C129 1.355 . S
C128 C130 1.415 . S
C129 C128 1.355 . S
C129 C131 1.419 . S
C130 C128 1.415 . S
C130 C135 1.425 . S
C130 C137 1.409 . S
C131 H123 0.930 . S
C131 C129 1.419 . S
C131 C132 1.362 . S
C132 H124 0.930 . S
C132 C131 1.362 . S
C132 C135 1.409 . S
C133 H125 0.930 . S
C133 C134 1.355 . S
C133 C135 1.415 . S
C134 C133 1.355 . S
C134 C136 1.419 . S
C135 C130 1.425 . S
C135 C132 1.409 . S
C135 C133 1.415 . S
C136 H126 0.930 . S
C136 C134 1.419 . S
C136 C137 1.362 . S
C137 H127 0.930 . S
C137 C130 1.409 . S
C137 C136 1.362 . S
H138 C144 0.930 . S
H139 C147 0.930 . S
H140 C148 0.930 . S
H141 C149 0.930 . S
H142 C152 0.930 . S
H143 C153 0.930 . S
C144 H138 0.930 . S
C144 C145 1.355 . S
C144 C146 1.415 . S
C145 C144 1.355 . S
C145 C147 1.419 . S
C146 C144 1.415 . S
C146 C151 1.425 . S
C146 C153 1.409 . S
C147 H139 0.930 . S
C147 C145 1.419 . S
C147 C148 1.362 . S
C148 H140 0.930 . S
C148 C147 1.362 . S
C148 C151 1.409 . S
C149 H141 0.930 . S
C149 C150 1.355 . S
C149 C151 1.415 . S
C150 C149 1.355 . S
C150 C152 1.419 . S
C151 C146 1.425 . S
C151 C148 1.409 . S
C151 C149 1.415 . S
C152 H142 0.930 . S
C152 C150 1.419 . S
C152 C153 1.362 . S
C153 H143 0.930 . S
C153 C146 1.409 . S
C153 C152 1.362 . S
H154 C160 0.930 . S
H155 C163 0.930 . S
H156 C164 0.930 . S
H157 C165 0.930 . S
H158 C168 0.930 . S
H159 C169 0.930 . S
C160 H154 0.930 . S
C160 C161 1.355 . S
C160 C162 1.415 . S
C161 C160 1.355 . S
C161 C163 1.419 . S
C162 C160 1.415 . S
C162 C167 1.425 . S
C162 C169 1.409 . S
C163 H155 0.930 . S
C163 C161 1.419 . S
C163 C164 1.362 . S
C164 H156 0.930 . S
C164 C163 1.362 . S
C164 C167 1.409 . S
C165 H157 0.930 . S
C165 C166 1.355 . S
C165 C167 1.415 . S
C166 C165 1.355 . S
C166 C168 1.419 . S
C167 C162 1.425 . S
C167 C164 1.409 . S
C167 C165 1.415 . S
C168 H158 0.930 . S
C168 C166 1.419 . S
C168 C169 1.362 . S
C169 H159 0.930 . S
C169 C162 1.409 . S
C169 C168 1.362 . S
H170 C176 0.930 . S
H171 C179 0.930 . S
H172 C180 0.930 . S
H173 C181 0.930 . S
H174 C184 0.930 . S
H175 C185 0.930 . S
C176 H170 0.930 . S
C176 C177 1.355 . S
C176 C178 1.415 . S
C177 C176 1.355 . S
C177 C179 1.419 . S
C178 C176 1.415 . S
C178 C183 1.425 . S
C178 C185 1.409 . S
C179 H171 0.930 . S
C179 C177 1.419 . S
C179 C180 1.362 . S
C180 H172 0.930 . S
C180 C179 1.362 . S
C180 C183 1.409 . S
C181 H173 0.930 . S
C181 C182 1.355 . S
C181 C183 1.415 . S
C182 C181 1.355 . S
C182 C184 1.419 . S
C183 C178 1.425 . S
C183 C180 1.409 . S
C183 C181 1.415 . S
C184 H174 0.930 . S
C184 C182 1.419 . S
C184 C185 1.362 . S
C185 H175 0.930 . S
C185 C178 1.409 . S
C185 C184 1.362 . S
H186 C192 0.930 . S
H187 C195 0.930 . S
H188 C196 0.930 . S
H189 C197 0.930 . S
H190 C200 0.930 . S
H191 C201 0.930 . S
C192 H186 0.930 . S
C192 C193 1.355 . S
C192 C194 1.415 . S
C193 C192 1.355 . S
C193 C195 1.419 . S
C194 C192 1.415 . S
C194 C199 1.425 . S
C194 C201 1.409 . S
C195 H187 0.930 . S
C195 C193 1.419 . S
C195 C196 1.362 . S
C196 H188 0.930 . S
C196 C195 1.362 . S
C196 C199 1.409 . S
C197 H189 0.930 . S
C197 C198 1.355 . S
C197 C199 1.415 . S
C198 C197 1.355 . S
C198 C200 1.419 . S
C199 C194 1.425 . S
C199 C196 1.409 . S
C199 C197 1.415 . S
C200 H190 0.930 . S
C200 C198 1.419 . S
C200 C201 1.362 . S
C201 H191 0.930 . S
C201 C194 1.409 . S
C201 C200 1.362 . S
H202 C208 0.930 . S
H203 C211 0.930 . S
H204 C212 0.930 . S
H205 C213 0.930 . S
H206 C216 0.930 . S
H207 C217 0.930 . S
C208 H202 0.930 . S
C208 C209 1.355 . S
C208 C210 1.415 . S
C209 C208 1.355 . S
C209 C211 1.419 . S
C210 C208 1.415 . S
C210 C215 1.425 . S
C210 C217 1.409 . S
C211 H203 0.930 . S
C211 C209 1.419 . S
C211 C212 1.362 . S
C212 H204 0.930 . S
C212 C211 1.362 . S
C212 C215 1.409 . S
C213 H205 0.930 . S
C213 C214 1.355 . S
C213 C215 1.415 . S
C214 C213 1.355 . S
C214 C216 1.419 . S
C215 C210 1.425 . S
C215 C212 1.409 . S
C215 C213 1.415 . S
C216 H206 0.930 . S
C216 C214 1.419 . S
C216 C217 1.362 . S
C217 H207 0.930 . S
C217 C210 1.409 . S
C217 C216 1.362 . S
H218 C224 0.930 . S
H219 C227 0.930 . S
H220 C228 0.930 . S
H221 C229 0.930 . S
H222 C232 0.930 . S
H223 C233 0.930 . S
C224 H218 0.930 . S
C224 C225 1.355 . S
C224 C226 1.415 . S
C225 C224 1.355 . S
C225 C227 1.419 . S
C226 C224 1.415 . S
C226 C231 1.425 . S
C226 C233 1.409 . S
C227 H219 0.930 . S
C227 C225 1.419 . S
C227 C228 1.362 . S
C228 H220 0.930 . S
C228 C227 1.362 . S
C228 C231 1.409 . S
C229 H221 0.930 . S
C229 C230 1.355 . S
C229 C231 1.415 . S
C230 C229 1.355 . S
C230 C232 1.419 . S
C231 C226 1.425 . S
C231 C228 1.409 . S
C231 C229 1.415 . S
C232 H222 0.930 . S
C232 C230 1.419 . S
C232 C233 1.362 . S
C233 H223 0.930 . S
C233 C226 1.409 . S
C233 C232 1.362 . S
H234 C240 0.930 . S
H235 C243 0.930 . S
H236 C244 0.930 . S
H237 C245 0.930 . S
H238 C248 0.930 . S
H239 C249 0.930 . S
C240 H234 0.930 . S
C240 C241 1.355 . S
C240 C242 1.415 . S
C241 C240 1.355 . S
C241 C243 1.419 . S
C242 C240 1.415 . S
C242 C247 1.425 . S
C242 C249 1.409 . S
C243 H235 0.930 . S
C243 C241 1.419 . S
C243 C244 1.362 . S
C244 H236 0.930 . S
C244 C243 1.362 . S
C244 C247 1.409 . S
C245 H237 0.930 . S
C245 C246 1.355 . S
C245 C247 1.415 . S
C246 C245 1.355 . S
C246 C248 1.419 . S
C247 C242 1.425 . S
C247 C244 1.409 . S
C247 C245 1.415 . S
C248 H238 0.930 . S
C248 C246 1.419 . S
C248 C249 1.362 . S
C249 H239 0.930 . S
C249 C242 1.409 . S
C249 C248 1.362 . S
H250 C256 0.930 . S
H251 C259 0.930 . S
H252 C260 0.930 . S
H253 C261 0.930 . S
H254 C264 0.930 . S
H255 C265 0.930 . S
C256 H250 0.930 . S
C256 C257 1.355 . S
C256 C258 1.415 . S
C257 C256 1.355 . S
C257 C259 1.419 . S
C258 C256 1.415 . S
C258 C263 1.425 . S
C258 C265 1.409 . S
C259 H251 0.930 . S
C259 C257 1.419 . S
C259 C260 1.362 . S
C260 H252 0.930 . S
C260 C259 1.362 . S
C260 C263 1.409 . S
C261 H253 0.930 . S
C261 C262 1.355 . S
C261 C263 1.415 . S
C262 C261 1.355 . S
C262 C264 1.419 . S
C263 C258 1.425 . S
C263 C260 1.409 . S
C263 C261 1.415 . S
C264 H254 0.930 . S
C264 C262 1.419 . S
C264 C265 1.362 . S
C265 H255 0.930 . S
C265 C258 1.409 . S
C265 C264 1.362 . S
H266 C272 0.930 . S
H267 C275 0.930 . S
H268 C276 0.930 . S
H269 C277 0.930 . S
H270 C280 0.930 . S
H271 C281 0.930 . S
C272 H266 0.930 . S
C272 C273 1.355 . S
C272 C274 1.415 . S
C273 C272 1.355 . S
C273 C275 1.419 . S
C274 C272 1.415 . S
C274 C279 1.425 . S
C274 C281 1.409 . S
C275 H267 0.930 . S
C275 C273 1.419 . S
C275 C276 1.362 . S
C276 H268 0.930 . S
C276 C275 1.362 . S
C276 C279 1.409 . S
C277 H269 0.930 . S
C277 C278 1.355 . S
C277 C279 1.415 . S
C278 C277 1.355 . S
C278 C280 1.419 . S
C279 C274 1.425 . S
C279 C276 1.409 . S
C279 C277 1.415 . S
C280 H270 0.930 . S
C280 C278 1.419 . S
C280 C281 1.362 . S
C281 H271 0.930 . S
C281 C274 1.409 . S
C281 C280 1.362 . S
H282 C288 0.930 . S
H283 C291 0.930 . S
H284 C292 0.930 . S
H285 C293 0.930 . S
H286 C296 0.930 . S
H287 C297 0.930 . S
C288 H282 0.930 . S
C288 C289 1.355 . S
C288 C290 1.415 . S
C289 C288 1.355 . S
C289 C291 1.419 . S
C290 C288 1.415 . S
C290 C295 1.425 . S
C290 C297 1.409 . S
C291 H283 0.930 . S
C291 C289 1.419 . S
C291 C292 1.362 . S
C292 H284 0.930 . S
C292 C291 1.362 . S
C292 C295 1.409 . S
C293 H285 0.930 . S
C293 C294 1.355 . S
C293 C295 1.415 . S
C294 C293 1.355 . S
C294 C296 1.419 . S
C295 C290 1.425 . S
C295 C292 1.409 . S
C295 C293 1.415 . S
C296 H286 0.930 . S
C296 C294 1.419 . S
C296 C297 1.362 . S
C297 H287 0.930 . S
C297 C290 1.409 . S
C297 C296 1.362 . S
H298 C304 0.930 . S
H299 C307 0.930 . S
H300 C308 0.930 . S
H301 C309 0.930 . S
H302 C312 0.930 . S
H303 C313 0.930 . S
C304 H298 0.930 . S
C304 C305 1.355 . S
C304 C306 1.415 . S
C305 C304 1.355 . S
C305 C307 1.419 . S
C306 C304 1.415 . S
C306 C311 1.425 . S
C306 C313 1.409 . S
C307 H299 0.930 . S
C307 C305 1.419 . S
C307 C308 1.362 . S
C308 H300 0.930 . S
C308 C307 1.362 . S
C308 C311 1.409 . S
C309 H301 0.930 . S
C309 C310 1.355 . S
C309 C311 1.415 . S
C310 C309 1.355 . S
C310 C312 1.419 . S
C311 C306 1.425 . S
C311 C308 1.409 . S
C311 C309 1.415 . S
C312 H302 0.930 . S
C312 C310 1.419 . S
C312 C313 1.362 . S
C313 H303 0.930 . S
C313 C306 1.409 . S
C313 C312 1.362 . S
C129 C17 1.350 . S
C134 C99 1.211 . S
C145 C64 1.398 . S
C150 C105 1.288 . S
C161 C13 1.453 . S
C166 C96 1.289 . S
C177 C66 1.389 . S
C182 C121 1.289 . S
C193 C23 1.767 . S
C198 C87 1.574 . S
C214 C104 1.720 . S
C209 C42 1.851 . S
C225 C57 1.353 . S
C230 C100 1.223 . S
C246 C117 1.658 . S
C241 C2 1.801 . S
C262 C84 1.552 . S
C257 C63 1.781 . S
C278 C120 1.288 . S
C273 C26 1.430 . S
C294 C83 1.292 . S
C289 C53 1.453 . S
C310 C108 1.280 . S
C305 C24 1.399 . S
