# Generated by pormake.
# Topology ssa, (4,4)-cn, num edge types: 1
# Building blocks:
#     Node 0, Type 0, BuildingBlock: ESEHIV_clean_sbu_0, # of connection points: 4
#     Node 1, Type 0, BuildingBlock: ESEHIV_clean_sbu_0, # of connection points: 4
#     Node 2, Type 0, BuildingBlock: ESEHIV_clean_sbu_0, # of connection points: 4
#     Node 3, Type 0, BuildingBlock: ESEHIV_clean_sbu_0, # of connection points: 4
#     Node 4, Type 0, BuildingBlock: ESEHIV_clean_sbu_0, # of connection points: 4
#     Node 5, Type 0, BuildingBlock: ESEHIV_clean_sbu_0, # of connection points: 4
#     Node 6, Type 1, BuildingBlock: MUDLON_clean_sbu_0, # of connection points: 4
#     Node 7, Type 1, BuildingBlock: MUDLON_clean_sbu_0, # of connection points: 4
#     Node 8, Type 1, BuildingBlock: MUDLON_clean_sbu_0, # of connection points: 4
#     Node 9, Type 1, BuildingBlock: MUDLON_clean_sbu_0, # of connection points: 4
#     Node 10, Type 1, BuildingBlock: MUDLON_clean_sbu_0, # of connection points: 4
#     Node 11, Type 1, BuildingBlock: MUDLON_clean_sbu_0, # of connection points: 4
#     Edge 12, Type (0, 1), BuildingBlock: AJUNOK_clean_linker_0, # of connection points: 2
#     Edge 13, Type (0, 1), BuildingBlock: AJUNOK_clean_linker_0, # of connection points: 2
#     Edge 14, Type (0, 1), BuildingBlock: AJUNOK_clean_linker_0, # of connection points: 2
#     Edge 15, Type (0, 1), BuildingBlock: AJUNOK_clean_linker_0, # of connection points: 2
#     Edge 16, Type (0, 1), BuildingBlock: AJUNOK_clean_linker_0, # of connection points: 2
#     Edge 17, Type (0, 1), BuildingBlock: AJUNOK_clean_linker_0, # of connection points: 2
#     Edge 18, Type (0, 1), BuildingBlock: AJUNOK_clean_linker_0, # of connection points: 2
#     Edge 19, Type (0, 1), BuildingBlock: AJUNOK_clean_linker_0, # of connection points: 2
#     Edge 20, Type (0, 1), BuildingBlock: AJUNOK_clean_linker_0, # of connection points: 2
#     Edge 21, Type (0, 1), BuildingBlock: AJUNOK_clean_linker_0, # of connection points: 2
#     Edge 22, Type (0, 1), BuildingBlock: AJUNOK_clean_linker_0, # of connection points: 2
#     Edge 23, Type (0, 1), BuildingBlock: AJUNOK_clean_linker_0, # of connection points: 2
#     Edge 24, Type (0, 1), BuildingBlock: AJUNOK_clean_linker_0, # of connection points: 2
#     Edge 25, Type (0, 1), BuildingBlock: AJUNOK_clean_linker_0, # of connection points: 2
#     Edge 26, Type (0, 1), BuildingBlock: AJUNOK_clean_linker_0, # of connection points: 2
#     Edge 27, Type (0, 1), BuildingBlock: AJUNOK_clean_linker_0, # of connection points: 2
#     Edge 28, Type (0, 1), BuildingBlock: AJUNOK_clean_linker_0, # of connection points: 2
#     Edge 29, Type (0, 1), BuildingBlock: AJUNOK_clean_linker_0, # of connection points: 2
#     Edge 30, Type (0, 1), BuildingBlock: AJUNOK_clean_linker_0, # of connection points: 2
#     Edge 31, Type (0, 1), BuildingBlock: AJUNOK_clean_linker_0, # of connection points: 2
#     Edge 32, Type (0, 1), BuildingBlock: AJUNOK_clean_linker_0, # of connection points: 2
#     Edge 33, Type (0, 1), BuildingBlock: AJUNOK_clean_linker_0, # of connection points: 2
#     Edge 34, Type (0, 1), BuildingBlock: AJUNOK_clean_linker_0, # of connection points: 2
#     Edge 35, Type (0, 1), BuildingBlock: AJUNOK_clean_linker_0, # of connection points: 2
# Relax obj value: 0.026
# Max RMSD: 0.110
# Mean RMSD: 0.060
data_MOF--net-ssa--node1-ESEHIV_clean_sbu_0--node2-MUDLON_clean_sbu_0--edge1-AJUNOK_clean_linker_0
_symmetry_space_group_name_H-M    P1
_symmetry_Int_Tables_number       1
_symmetry_cell_setting            triclinic
loop_
_symmetry_equiv_pos_as_xyz
'x, y, z'
_cell_length_a     31.790556
_cell_length_b     35.717898
_cell_length_c     30.69872
_cell_angle_alpha  88.01496
_cell_angle_beta   91.338519
_cell_angle_gamma 124.26218
loop_
_atom_site_label
_atom_site_type_symbol
_atom_site_fract_x
_atom_site_fract_y
_atom_site_fract_z
_atom_type_partial_charge
Cu0 Cu 1.0145 0.50834 0.03836 0.0
N1 N 0.03705 0.48905 0.99403 0.0
N2 N 0.0309 0.44837 0.93752 0.0
C3 C 1.00619 0.45191 0.97051 0.0
C4 C 0.07959 0.48453 0.94065 0.0
C5 C 0.08329 0.5096 0.97569 0.0
O6 O 0.94984 0.49806 1.0183 0.0
C7 C 0.02863 0.45319 0.09885 0.0
O8 O 0.03945 0.43964 0.06421 0.0
H9 H 0.96562 0.42928 0.97605 0.0
H10 H 0.11681 0.54129 0.98611 0.0
N11 N 0.0598 0.57029 0.04864 0.0
N12 N 0.10522 0.63375 0.08687 0.0
C13 C 0.07309 0.58813 0.08856 0.0
C14 C 0.0844 0.60588 1.02045 0.0
C15 C 0.11264 0.64512 0.04398 0.0
C16 C 0.94879 0.50992 0.97877 0.0
O17 O 0.99035 0.52862 0.95538 0.0
H18 H 0.05931 0.56792 0.11843 0.0
H19 H 0.08243 0.60347 0.98536 0.0
O20 O 1.01174 0.47812 0.09379 0.0
H21 H 0.11004 0.49277 0.91877 0.0
H22 H 0.13792 0.67909 0.03054 0.0
Cu23 Cu 0.5609 0.04699 0.51996 0.0
N24 N 0.59084 0.03936 0.47256 0.0
N25 N 0.60336 0.99866 0.42765 0.0
C26 C 0.59318 1.00312 0.46878 0.0
C27 C 0.60823 0.03372 0.40459 0.0
C28 C 0.60024 0.05872 0.43239 0.0
O29 O 0.48797 1.00405 0.51065 0.0
C30 C 0.636 0.06301 0.57803 0.0
O31 O 0.66304 0.08204 0.5425 0.0
H32 H 0.58366 0.9785 0.49493 0.0
H33 H 0.59794 0.08699 0.42322 0.0
N34 N 0.57657 0.10541 0.52625 0.0
N35 N 0.5866 0.16213 0.56432 0.0
C36 C 0.57669 0.12026 0.56594 0.0
C37 C 0.58709 0.13942 0.49814 0.0
C38 C 0.5927 0.17443 0.52166 0.0
C39 C 0.46762 1.01227 0.4787 0.0
O40 O 0.495 0.05174 0.4582 0.0
H41 H 0.56673 0.09958 0.59545 0.0
H42 H 0.58877 0.13839 0.46312 0.0
O43 O 0.5876 0.0383 0.57424 0.0
H44 H 0.61526 0.03989 0.36991 0.0
H45 H 0.59906 0.2057 0.50843 0.0
Cu46 Cu 0.50287 0.49607 0.052 0.0
N47 N 0.49871 0.44259 0.04144 0.0
N48 N 0.50235 0.39311 1.0014 0.0
C49 C 0.50016 0.42978 1.00099 0.0
C50 C 0.50167 0.38195 0.04398 0.0
C51 C 0.49953 0.41261 0.06863 0.0
O52 O 0.53694 0.53405 1.00046 0.0
C53 C 0.42059 0.47073 0.10271 0.0
O54 O 0.441 0.45276 0.12517 0.0
H55 H 0.50094 0.44783 0.97166 0.0
H56 H 0.49917 0.41315 0.10379 0.0
N57 N 0.54118 0.5271 0.10077 0.0
N58 N 0.56572 0.57918 0.15105 0.0
C59 C 0.54726 0.56617 0.11058 0.0
C60 C 0.55636 0.51463 0.13647 0.0
C61 C 0.57146 0.5469 0.16783 0.0
C62 C 0.58548 0.55814 0.99934 0.0
O63 O 0.61078 0.56341 0.0356 0.0
H64 H 0.53477 0.58301 0.08938 0.0
H65 H 0.55365 0.48318 0.14055 0.0
O66 O 0.43746 0.48679 0.06449 0.0
H67 H 0.50205 0.35344 0.05647 0.0
H68 H 0.58413 0.54607 0.20067 0.0
Cu69 Cu 0.05121 0.56638 0.57542 0.0
N70 N 0.10097 0.55444 0.56909 0.0
N71 N 0.1524 0.54438 0.53021 0.0
C72 C 0.11095 0.54577 0.52973 0.0
C73 C 0.16906 0.55194 0.57195 0.0
C74 C 0.13724 0.55831 0.59593 0.0
O75 O 0.0577 0.59842 0.52082 0.0
C76 C 0.9807 0.49304 0.62525 0.0
O77 O 1.01898 0.51499 0.65264 0.0
H78 H 0.08873 0.54168 0.50081 0.0
H79 H 0.14141 0.56672 0.62994 0.0
N80 N 0.06195 0.60405 0.62149 0.0
N81 N 0.03999 0.6321 0.67369 0.0
C82 C 1.0248 0.60672 0.6378 0.0
C83 C 0.10239 0.6288 0.64788 0.0
C84 C 0.0888 0.64592 0.68034 0.0
C85 C 0.10307 0.63321 0.51578 0.0
O86 O 0.13454 0.64653 0.54913 0.0
H87 H 0.98626 0.58776 0.62517 0.0
H88 H 0.13851 0.63276 0.64477 0.0
O89 O 0.98595 0.50893 0.58639 0.0
H90 H 0.20279 0.55441 0.58396 0.0
H91 H 0.11241 0.66575 0.70747 0.0
Cu92 Cu 0.54101 1.00036 0.02758 0.0
N93 N 0.48582 0.98149 0.98921 0.0
N94 N 0.45252 1.00805 0.94234 0.0
C95 C 0.49218 1.00506 0.95193 0.0
C96 C 0.41792 0.98265 0.97349 0.0
C97 C 0.43838 0.96622 1.0022 0.0
O98 O 0.59326 0.06319 1.00989 0.0
C99 C 0.48952 0.9505 0.10108 0.0
O100 O 0.48022 0.91851 0.07466 0.0
H101 H 0.52862 0.02707 0.93695 0.0
H102 H 0.42324 0.95135 0.03407 0.0
N103 N 0.56999 0.96698 0.02769 0.0
N104 N 0.60198 0.93354 0.06537 0.0
C105 C 0.59913 0.96978 0.06155 0.0
C106 C 0.55513 0.92829 1.00796 0.0
C107 C 0.57493 0.90757 0.0312 0.0
C108 C 0.61824 0.06814 0.97574 0.0
O109 O 0.61168 0.03201 0.95857 0.0
H110 H 0.61236 0.9951 0.08621 0.0
H111 H 0.52696 0.91346 0.98219 0.0
O112 O 0.51505 0.99159 0.08685 0.0
H113 H 0.3841 0.98213 0.97914 0.0
H114 H 0.56477 0.87352 1.02651 0.0
Cu115 Cu 0.52255 0.48013 0.50933 0.0
N116 N 0.56719 0.51987 0.46584 0.0
N117 N 0.60677 0.58576 0.42755 0.0
C118 C 0.5896 0.56497 0.46704 0.0
C119 C 0.59511 0.55203 0.40054 0.0
C120 C 0.57061 0.51151 0.42417 0.0
O121 O 0.45791 0.47238 0.49615 0.0
C122 C 0.59304 0.50545 0.57311 0.0
O123 O 0.61034 0.49331 0.54196 0.0
H124 H 0.58897 0.58146 0.49569 0.0
H125 H 0.55192 0.47805 0.41094 0.0
N126 N 0.51172 0.423 0.51299 0.0
N127 N 0.49921 0.3625 0.54992 0.0
C128 C 0.49494 0.3979 0.55013 0.0
C129 C 0.52641 0.40237 0.48764 0.0
C130 C 0.5186 0.36483 0.51041 0.0
C131 C 0.4303 0.44462 0.46644 0.0
O132 O 0.44457 0.42011 0.44975 0.0
H133 H 0.4845 0.40809 0.5785 0.0
H134 H 0.5446 0.41526 0.45629 0.0
O135 O 0.5537 0.50593 0.56546 0.0
H136 H 0.59884 0.55537 0.36544 0.0
H137 H 0.52897 0.34255 0.4996 0.0
Mg138 Mg 0.23656 0.47926 0.29303 0.0
C139 C 0.14208 0.46472 0.25391 0.0
O140 O 0.16101 0.50191 0.27587 0.0
C141 C 0.29875 0.47239 0.35733 0.0
O142 O 0.31692 0.51549 0.35079 0.0
C143 C 0.20909 0.49581 0.37623 0.0
O144 O 0.18978 0.45225 0.37562 0.0
O145 O 0.23209 0.52021 0.34237 0.0
O146 O 0.16398 0.44386 0.25741 0.0
O147 O 0.2966 0.50808 0.24341 0.0
C148 C 0.28541 0.49503 0.2041 0.0
O149 O 0.23739 0.4715 0.19208 0.0
O150 O 0.26024 0.44333 0.33488 0.0
Mg151 Mg 0.79727 0.25862 0.77849 0.0
C152 C 0.72744 0.17719 0.72688 0.0
O153 O 0.69685 0.18484 0.74658 0.0
C154 C 0.90778 0.32272 0.80391 0.0
O155 O 0.90939 0.33833 0.76421 0.0
C156 C 0.74448 0.22905 0.86758 0.0
O157 O 0.79103 0.25646 0.88247 0.0
O158 O 0.7365 0.22865 0.82668 0.0
O159 O 0.77511 0.20346 0.73426 0.0
O160 O 0.81106 0.31708 0.73997 0.0
C161 C 0.82031 0.32015 0.69934 0.0
O162 O 0.81202 0.28434 0.67998 0.0
O163 O 0.86718 0.28581 0.81629 0.0
Mg164 Mg 0.61933 0.79981 0.29514 0.0
C165 C 0.61757 0.8537 0.22518 0.0
O166 O 0.57436 0.83416 0.24629 0.0
C167 C 0.63014 0.75057 0.36522 0.0
O168 O 0.58887 0.74926 0.37313 0.0
C169 C 0.61896 0.85759 0.36169 0.0
O170 O 0.66363 0.86405 0.36775 0.0
O171 O 0.58784 0.82762 0.33514 0.0
O172 O 0.65113 0.84727 0.23922 0.0
O173 O 0.5708 0.73634 0.26245 0.0
C174 C 0.60028 0.73431 0.23671 0.0
O175 O 0.64811 0.76881 0.23411 0.0
O176 O 0.65927 0.77718 0.33474 0.0
Mg177 Mg 0.7777 0.5642 0.80742 0.0
C178 C 0.70828 0.5553 0.73536 0.0
O179 O 0.72411 0.59502 0.75093 0.0
C180 C 0.79596 0.52368 0.88855 0.0
O181 O 0.7828 0.54811 0.90731 0.0
C182 C 0.69745 0.56393 0.85261 0.0
O183 O 0.67334 0.52618 0.83091 0.0
O184 O 0.74571 0.59012 0.84935 0.0
O185 O 0.72403 0.5326 0.75337 0.0
O186 O 0.85032 0.6113 0.77496 0.0
C187 C 0.89081 0.61622 0.78989 0.0
O188 O 0.89006 0.60046 0.82937 0.0
O189 O 0.79218 0.52043 0.8472 0.0
Mg190 Mg 0.27011 0.81049 0.30027 0.0
C191 C 0.21544 0.74856 0.23285 0.0
O192 O 0.24426 0.73818 0.25376 0.0
C193 C 0.31025 0.86242 0.37895 0.0
O194 O 0.3125 0.82697 0.38459 0.0
C195 C 0.19189 0.73359 0.35371 0.0
O196 O 0.16708 0.74816 0.33263 0.0
O197 O 0.23862 0.75197 0.34461 0.0
O198 O 0.21653 0.78287 0.24529 0.0
O199 O 0.34235 0.83853 0.26738 0.0
C200 C 0.36259 0.87945 0.25416 0.0
O201 O 0.34102 0.9001 0.26517 0.0
O202 O 0.28878 0.86503 0.34437 0.0
Mg203 Mg 0.50082 0.23567 0.79023 0.0
C204 C 0.52802 0.20638 0.7185 0.0
O205 O 0.47819 0.18274 0.72153 0.0
C206 C 0.49518 0.29638 0.8501 0.0
O207 O 0.45486 0.28063 0.82496 0.0
C208 C 0.49102 0.1675 0.84858 0.0
O209 O 0.53758 0.20404 0.85111 0.0
O210 O 0.46011 0.16866 0.82234 0.0
O211 O 0.55469 0.23376 0.74872 0.0
O212 O 0.46735 0.25384 0.73761 0.0
C213 C 0.50407 0.2886 0.71771 0.0
O214 O 0.54964 0.30961 0.73546 0.0
O215 O 0.52579 0.28508 0.84225 0.0
C216 C 0.07088 0.42466 0.14625 0.0
C217 C 0.0471 0.44815 0.14239 0.0
C218 C 0.09843 0.4273 0.18382 0.0
C219 C 0.10355 0.45369 0.21912 0.0
H220 H 0.07062 0.40593 0.11911 0.0
H221 H 0.1184 0.41077 0.18397 0.0
S222 S 0.0414 0.51532 0.22893 0.0
N223 N 1.025 0.49371 0.1799 0.0
N224 N 0.07677 0.49882 0.25021 0.0
C225 C 0.07645 0.47421 0.21723 0.0
C226 C 0.04821 0.47137 0.17903 0.0
C227 C 0.6304 0.08167 0.65477 0.0
C228 C 0.66016 0.08308 0.62072 0.0
C229 C 0.65288 0.11056 0.69017 0.0
C230 C 0.70608 0.1417 0.69335 0.0
H231 H 0.58925 0.0604 0.65275 0.0
H232 H 0.628 0.10984 0.71422 0.0
S233 S 0.80149 0.15249 0.61722 0.0
N234 N 0.74605 0.11357 0.59568 0.0
N235 N 0.78817 0.1676 0.66233 0.0
C236 C 0.73648 0.1404 0.66172 0.0
C237 C 0.71356 0.11113 0.62546 0.0
C238 C 0.55454 0.61349 0.21455 0.0
C239 C 0.57286 0.61764 0.17215 0.0
C240 C 0.56009 0.65085 0.23464 0.0
C241 C 0.58466 0.69335 0.21295 0.0
H242 H 0.5358 0.58124 0.23212 0.0
H243 H 0.54719 0.64697 0.26787 0.0
S244 S 0.63859 0.72143 0.10158 0.0
N245 N 0.6156 0.66717 0.10915 0.0
N246 N 0.62639 0.73721 0.14685 0.0
C247 C 0.60229 0.69755 0.1704 0.0
C248 C 0.59629 0.65971 0.14997 0.0
C249 C 1.01132 0.63161 0.74798 0.0
C250 C 1.00763 0.63608 0.70263 0.0
C251 C 0.97512 0.62818 0.7762 0.0
C252 C 0.9338 0.62924 0.76025 0.0
H253 H 0.04077 0.6282 0.76158 0.0
H254 H 0.97836 0.62249 0.81064 0.0
S255 S 0.91202 0.64792 0.64442 0.0
N256 N 0.96331 0.64696 0.64339 0.0
N257 N 0.89513 0.64044 0.69611 0.0
C258 C 0.9319 0.63701 0.71513 0.0
C259 C 0.96872 0.64031 0.68643 0.0
C260 C 0.44861 0.96082 0.16403 0.0
C261 C 0.46626 0.93704 0.14491 0.0
C262 C 0.41763 0.94314 0.20115 0.0
C263 C 0.4033 0.90113 0.22062 0.0
H264 H 0.45615 0.99182 0.14876 0.0
H265 H 0.40278 0.96162 0.21326 0.0
S266 S 0.44906 0.83084 0.1881 0.0
N267 N 0.4738 0.87298 0.15169 0.0
N268 N 0.41609 0.84006 0.2216 0.0
C269 C 0.42462 0.87919 0.20399 0.0
C270 C 0.45589 0.89706 0.16607 0.0
C271 C 0.45698 0.32227 0.61896 0.0
C272 C 0.496 0.33659 0.58834 0.0
C273 C 0.45801 0.30444 0.66025 0.0
C274 C 0.49893 0.3016 0.67264 0.0
H275 H 0.42627 0.32627 0.6113 0.0
H276 H 0.42807 0.29501 0.68328 0.0
S277 S 0.60772 0.32983 0.6032 0.0
N278 N 0.5742 0.34273 0.57228 0.0
N279 N 0.57716 0.31088 0.65 0.0
C280 C 0.53704 0.31406 0.64176 0.0
C281 C 0.53527 0.33101 0.5995 0.0
C282 C 0.63181 0.94727 0.43438 0.0
C283 C 0.60431 0.96172 0.41164 0.0
C284 C 0.63484 0.91244 0.41869 0.0
C285 C 0.60938 0.88993 0.38025 0.0
H286 H 0.65234 0.96402 0.46385 0.0
H287 H 0.65792 0.90349 0.43654 0.0
S288 S 0.52873 0.91278 0.31055 0.0
N289 N 0.54893 0.94951 0.35007 0.0
N290 N 0.55371 0.88346 0.32083 0.0
C291 C 0.57998 0.90288 0.35812 0.0
C292 C 0.57776 0.93899 0.3737 0.0
C293 C 0.66668 0.59567 0.95768 0.0
C294 C 0.61299 0.56924 0.9574 0.0
C295 C 0.69429 0.59682 0.9221 0.0
C296 C 0.6692 0.57133 0.88502 0.0
H297 H 0.68762 0.6134 0.98668 0.0
H298 H 0.7353 0.6152 0.92504 0.0
S299 S 0.52991 0.50422 0.86405 0.0
N300 N 0.53635 0.52291 0.91382 0.0
N301 N 0.58817 0.52472 0.84721 0.0
C302 C 0.6159 0.54841 0.88255 0.0
C303 C 0.58779 0.54755 0.91862 0.0
C304 C 0.09474 0.66004 0.44151 0.0
C305 C 0.12375 0.65393 0.47233 0.0
C306 C 0.11653 0.6841 0.40216 0.0
C307 C 0.16784 0.70227 0.39203 0.0
H308 H 0.05574 0.64792 0.4486 0.0
H309 H 0.0933 0.68968 0.38019 0.0
S310 S 0.25699 0.68827 0.45918 0.0
N311 N 0.20439 0.66312 0.48825 0.0
N312 N 0.24491 0.70745 0.41427 0.0
C313 C 0.19599 0.69342 0.42142 0.0
C314 C 0.17406 0.66954 0.46161 0.0
C315 C 0.42894 0.04349 0.8844 0.0
C316 C 0.45857 0.04736 0.92089 0.0
C317 C 0.43802 0.08246 0.86174 0.0
C318 C 0.47715 0.12634 0.87491 0.0
H319 H 0.39968 1.01027 0.87275 0.0
H320 H 0.41552 0.0782 0.83295 0.0
S321 S 0.56104 0.15382 0.97184 0.0
N322 N 0.52498 0.09796 0.9715 0.0
N323 N 0.54266 0.17069 0.92922 0.0
C324 C 0.5054 0.1302 0.91255 0.0
C325 C 0.49594 0.09086 0.93547 0.0
C326 C 0.38792 0.48471 0.44835 0.0
C327 C 0.38921 0.4463 0.44447 0.0
C328 C 0.3565 0.49147 0.42133 0.0
C329 C 0.32472 0.45996 0.38956 0.0
H330 H 0.41338 0.51108 0.4707 0.0
H331 H 0.35854 0.52257 0.42445 0.0
S332 S 0.30814 0.35046 0.37068 0.0
N333 N 0.3516 0.37371 0.40963 0.0
N334 N 0.29247 0.38661 0.359 0.0
C335 C 0.3227 0.41979 0.38754 0.0
C336 C 0.35501 0.41296 0.41491 0.0
C337 C 0.96809 0.37048 0.91389 0.0
C338 C 1.00724 0.41566 0.90349 0.0
C339 C 0.93855 0.3396 0.88129 0.0
C340 C 0.94657 0.3528 0.83683 0.0
H341 H 0.9591 0.3594 0.94769 0.0
H342 H 0.90751 0.30578 0.89128 0.0
S343 S 0.04729 0.46669 0.7923 0.0
N344 N 0.05471 0.47148 0.84567 0.0
N345 N 0.99968 0.41369 0.7842 0.0
C346 C 0.98775 0.39729 0.82592 0.0
C347 C 1.01794 0.42866 0.85926 0.0
C348 C 0.8974 0.50126 0.91269 0.0
C349 C 0.90302 0.50467 0.95831 0.0
C350 C 0.85992 0.50378 0.89071 0.0
C351 C 0.82686 0.51059 0.91335 0.0
H352 H 0.92346 0.49823 0.89346 0.0
H353 H 0.85905 0.50313 0.85544 0.0
S354 S 0.82138 0.51572 0.03362 0.0
N355 N 0.86894 0.5103 1.02587 0.0
N356 N 0.79872 0.51575 0.98465 0.0
C357 C 0.8298 0.51098 0.9593 0.0
C358 C 0.86776 0.50781 0.98176 0.0
C359 C 0.39773 0.92992 0.47239 0.0
C360 C 0.41927 0.97509 0.45849 0.0
C361 C 0.35943 0.89373 0.44802 0.0
C362 C 0.34089 0.90101 0.40869 0.0
H363 H 0.41256 0.92225 0.5009 0.0
H364 H 0.34624 0.85967 0.45903 0.0
S365 S 0.3777 1.01267 0.36212 0.0
N366 N 0.41383 0.02504 0.40601 0.0
N367 N 0.34223 0.95684 0.36014 0.0
C368 C 0.35866 0.94584 0.3965 0.0
C369 C 0.39777 0.98288 0.42138 0.0
C370 C 0.47422 0.36601 0.92654 0.0
C371 C 0.50324 0.37033 0.96367 0.0
C372 C 0.47309 0.34308 0.88988 0.0
C373 C 0.50149 0.3239 0.88831 0.0
H374 H 0.45112 0.37954 0.92623 0.0
H375 H 0.44917 0.34003 0.86262 0.0
S376 S 0.5872 0.32908 0.97573 0.0
N377 N 0.5635 0.35581 0.99578 0.0
N378 N 0.56164 0.31284 0.92676 0.0
C379 C 0.53209 0.32926 0.9247 0.0
C380 C 0.53278 0.35228 0.96239 0.0
C381 C 0.17281 0.55521 0.45145 0.0
C382 C 0.17382 0.53731 0.49292 0.0
C383 C 0.18775 0.54436 0.41376 0.0
C384 C 0.2032 0.51446 0.41618 0.0
H385 H 0.15911 0.57687 0.44796 0.0
H386 H 0.18447 0.55741 0.3824 0.0
S387 S 0.21651 0.46121 0.51678 0.0
N388 N 0.19491 0.49066 0.53404 0.0
N389 N 0.22234 0.46983 0.46343 0.0
C390 C 0.20657 0.498 0.45754 0.0
C391 C 0.19211 0.50956 0.49587 0.0
C392 C 0.68271 0.15237 0.96812 0.0
C393 C 0.64491 0.11107 0.94965 0.0
C394 C 0.71303 0.19156 0.94168 0.0
C395 C 0.7055 0.19101 0.8961 0.0
H396 H 0.69082 0.15379 1.00272 0.0
H397 H 0.74388 0.22199 0.95683 0.0
S398 S 0.60537 0.09249 0.83323 0.0
N399 N 0.59867 0.07279 0.88376 0.0
N400 N 0.65249 0.14649 0.83499 0.0
C401 C 0.66465 0.15069 0.87811 0.0
C402 C 0.63527 0.11067 0.90463 0.0
C403 C 0.59974 0.65056 0.43754 0.0
C404 C 0.62051 0.63086 0.41505 0.0
C405 C 0.60654 0.69115 0.42277 0.0
C406 C 0.63441 0.71414 0.38482 0.0
H407 H 0.57554 0.63338 0.46552 0.0
H408 H 0.58761 0.70349 0.44026 0.0
S409 S 0.70176 0.68008 0.31655 0.0
N410 N 0.67457 0.6401 0.35511 0.0
N411 N 0.68642 0.71606 0.32679 0.0
C412 C 0.65806 0.69648 0.36335 0.0
C413 C 0.65115 0.6549 0.37849 0.0
C414 C 0.60415 0.18645 0.64067 0.0
C415 C 0.58017 0.1831 0.60037 0.0
C416 C 0.59006 0.19749 0.67881 0.0
C417 C 0.55034 0.20395 0.67787 0.0
H418 H 0.63245 0.17859 0.64288 0.0
H419 H 0.6079 0.19799 0.70948 0.0
S420 S 0.47762 0.20128 0.58021 0.0
N421 N 0.51765 0.19016 0.56149 0.0
N422 N 0.48917 0.20849 0.63303 0.0
C423 C 0.52756 0.20235 0.63745 0.0
C424 C 0.54304 0.19261 0.59867 0.0
C425 C 0.39599 0.48954 0.17095 0.0
C426 C 0.38782 0.48095 0.12601 0.0
C427 C 0.36485 0.49721 0.19527 0.0
C428 C 0.32349 0.49584 0.1759 0.0
H429 H 0.42659 0.48995 0.18778 0.0
H430 H 0.37194 0.5021 0.22997 0.0
S431 S 0.28837 0.47871 0.05848 0.0
N432 N 0.33795 0.47515 0.06237 0.0
N433 N 0.27823 0.48828 0.10817 0.0
C434 C 0.31611 0.48913 0.13057 0.0
C435 C 0.34858 0.4821 0.1056 0.0
C436 C 0.92162 0.44561 0.68554 0.0
C437 C 0.93335 0.45079 0.64088 0.0
C438 C 0.88207 0.4041 0.70352 0.0
C439 C 0.85307 0.36563 0.67772 0.0
H440 H 0.94439 0.47355 0.70726 0.0
H441 H 0.87645 0.40165 0.73844 0.0
S442 S 0.86437 0.36262 0.5579 0.0
N443 N 0.90952 0.41529 0.57038 0.0
N444 N 0.83553 0.33671 0.60418 0.0
C445 C 0.86223 0.37108 0.63244 0.0
C446 C 0.90224 0.41377 0.61401 0.0
C447 C 0.60004 0.92638 0.14563 0.0
C448 C 0.61352 0.91836 0.10532 0.0
C449 C 0.60462 0.90741 0.18452 0.0
C450 C 0.62378 0.8803 0.18503 0.0
H451 H 0.58309 0.94542 0.14707 0.0
H452 H 0.5912 0.91265 0.21435 0.0
S453 S 0.66766 0.85114 0.08917 0.0
N454 N 0.64909 0.88304 0.06863 0.0
N455 N 0.65848 0.84778 0.14234 0.0
C456 C 0.63981 0.87367 0.14547 0.0
C457 C 0.63433 0.89248 0.10548 0.0
C458 C 0.62339 0.54919 0.64219 0.0
C459 C 0.61752 0.51471 0.61662 0.0
C460 C 0.65183 0.56134 0.68111 0.0
C461 C 0.67471 0.53896 0.69619 0.0
H462 H 0.60765 0.56805 0.63124 0.0
H463 H 0.65661 0.58907 0.69908 0.0
S464 S 0.66508 0.44255 0.64334 0.0
N465 N 0.63308 0.45576 0.61066 0.0
N466 N 0.68584 0.47818 0.68377 0.0
C467 C 0.66671 0.50282 0.67191 0.0
C468 C 0.63834 0.49085 0.63213 0.0
C469 C 0.14463 0.64727 0.15975 0.0
C470 C 0.1302 0.66286 0.12359 0.0
C471 C 0.17074 0.67505 0.1951 0.0
C472 C 0.18327 0.71964 0.19627 0.0
H473 H 0.13695 0.61363 0.16027 0.0
H474 H 0.18174 0.66142 0.22164 0.0
S475 S 0.151 0.7759 0.11117 0.0
N476 N 0.12798 0.72512 0.09198 0.0
N477 N 0.17722 0.77751 0.15881 0.0
C478 C 0.16767 0.73535 0.16103 0.0
C479 C 0.14132 0.70701 0.12456 0.0
loop_
_geom_bond_atom_site_label_1
_geom_bond_atom_site_label_2
_geom_bond_distance
_geom_bond_site_symmetry_2
_ccdc_geom_bond_type
Cu0 N1 1.999 1_454 S
Cu0 O6 1.974 1_454 S
Cu0 N11 1.985 . S
Cu0 O20 1.959 . S
N1 Cu0 1.999 1_656 S
N1 C3 1.263 . S
N1 C5 1.389 1_556 S
N2 C3 1.358 . S
N2 C4 1.400 . S
C3 N1 1.263 . S
C3 N2 1.358 . S
C3 H9 0.930 . S
C4 N2 1.400 . S
C4 C5 1.351 1_556 S
C4 H21 0.930 . S
C5 N1 1.389 1_554 S
C5 C4 1.351 1_554 S
C5 H10 0.930 . S
O6 Cu0 1.974 1_656 S
O6 C16 1.283 . S
C7 O8 1.261 . S
C7 O20 1.251 . S
O8 C7 1.261 . S
H9 C3 0.930 . S
H10 C5 0.930 . S
N11 Cu0 1.985 . S
N11 C13 1.335 . S
N11 C14 1.390 . S
N12 C13 1.345 . S
N12 C15 1.336 . S
C13 N11 1.335 . S
C13 N12 1.345 . S
C13 H18 0.930 . S
C14 N11 1.390 . S
C14 C15 1.346 . S
C14 H19 0.930 . S
C15 N12 1.336 . S
C15 C14 1.346 . S
C15 H22 0.929 . S
C16 O6 1.283 . S
C16 O17 1.209 1_655 S
O17 C16 1.209 1_455 S
H18 C13 0.930 . S
H19 C14 0.930 . S
O20 Cu0 1.959 . S
O20 C7 1.251 . S
H21 C4 0.930 . S
H22 C15 0.929 . S
Cu23 N24 1.999 . S
Cu23 O29 1.974 . S
Cu23 N34 1.985 1_565 S
Cu23 O43 1.959 1_565 S
N24 Cu23 1.999 . S
N24 C26 1.263 . S
N24 C28 1.389 . S
N25 C26 1.358 . S
N25 C27 1.400 . S
C26 N24 1.263 . S
C26 N25 1.358 . S
C26 H32 0.930 . S
C27 N25 1.400 . S
C27 C28 1.351 . S
C27 H44 0.930 . S
C28 N24 1.389 . S
C28 C27 1.351 . S
C28 H33 0.930 . S
O29 Cu23 1.974 . S
O29 C39 1.282 . S
C30 O31 1.261 . S
C30 O43 1.251 . S
O31 C30 1.261 . S
H32 C26 0.930 . S
H33 C28 0.930 . S
N34 Cu23 1.985 1_545 S
N34 C36 1.335 . S
N34 C37 1.390 . S
N35 C36 1.345 . S
N35 C38 1.336 . S
C36 N34 1.335 . S
C36 N35 1.345 . S
C36 H41 0.930 . S
C37 N34 1.390 . S
C37 C38 1.346 . S
C37 H42 0.930 . S
C38 N35 1.336 . S
C38 C37 1.346 . S
C38 H45 0.929 . S
C39 O29 1.282 . S
C39 O40 1.216 1_565 S
O40 C39 1.216 1_545 S
H41 C36 0.930 . S
H42 C37 0.930 . S
O43 Cu23 1.959 1_545 S
O43 C30 1.251 . S
H44 C27 0.930 . S
H45 C38 0.929 . S
Cu46 N47 1.999 1_554 S
Cu46 O52 1.974 1_554 S
Cu46 N57 1.985 . S
Cu46 O66 1.959 . S
N47 Cu46 1.999 1_556 S
N47 C49 1.263 . S
N47 C51 1.389 . S
N48 C49 1.358 . S
N48 C50 1.400 . S
C49 N47 1.263 . S
C49 N48 1.358 . S
C49 H55 0.930 . S
C50 N48 1.400 . S
C50 C51 1.351 . S
C50 H67 0.930 . S
C51 N47 1.389 . S
C51 C50 1.351 . S
C51 H56 0.930 . S
O52 Cu46 1.974 1_556 S
O52 C62 1.282 . S
C53 O54 1.261 . S
C53 O66 1.251 . S
O54 C53 1.261 . S
H55 C49 0.930 . S
H56 C51 0.930 . S
N57 Cu46 1.985 . S
N57 C59 1.335 . S
N57 C60 1.390 . S
N58 C59 1.345 . S
N58 C61 1.336 . S
C59 N57 1.335 . S
C59 N58 1.345 . S
C59 H64 0.930 . S
C60 N57 1.390 . S
C60 C61 1.346 . S
C60 H65 0.930 . S
C61 N58 1.336 . S
C61 C60 1.346 . S
C61 H68 0.929 . S
C62 O52 1.282 . S
C62 O63 1.223 . S
O63 C62 1.223 . S
H64 C59 0.930 . S
H65 C60 0.930 . S
O66 Cu46 1.959 . S
O66 C53 1.251 . S
H67 C50 0.930 . S
H68 C61 0.929 . S
Cu69 N70 1.999 1_655 S
Cu69 O75 1.974 1_655 S
Cu69 N80 1.985 . S
Cu69 O89 1.959 . S
N70 Cu69 1.999 1_455 S
N70 C72 1.263 . S
N70 C74 1.389 1_455 S
N71 C72 1.358 . S
N71 C73 1.402 . S
C72 N70 1.263 . S
C72 N71 1.358 . S
C72 H78 0.930 . S
C73 N71 1.402 . S
C73 C74 1.347 1_455 S
C73 H90 0.931 1_455 S
C74 N70 1.389 1_655 S
C74 C73 1.347 1_655 S
C74 H79 0.930 . S
O75 Cu69 1.974 1_455 S
O75 C85 1.282 . S
C76 O77 1.261 1_655 S
C76 O89 1.251 . S
O77 C76 1.261 1_455 S
H78 C72 0.930 . S
H79 C74 0.930 . S
N80 Cu69 1.985 . S
N80 C82 1.335 . S
N80 C83 1.390 . S
N81 C82 1.345 . S
N81 C84 1.336 . S
C82 N80 1.335 . S
C82 N81 1.345 . S
C82 H87 0.930 . S
C83 N80 1.390 . S
C83 C84 1.346 . S
C83 H88 0.930 1_655 S
C84 N81 1.336 . S
C84 C83 1.346 . S
C84 H91 0.929 . S
C85 O75 1.282 . S
C85 O86 1.216 . S
O86 C85 1.216 . S
H87 C82 0.930 . S
H88 C83 0.930 1_455 S
O89 Cu69 1.959 . S
O89 C76 1.251 . S
H90 C73 0.931 1_655 S
H91 C84 0.929 . S
Cu92 N93 1.999 1_554 S
Cu92 O98 1.974 1_554 S
Cu92 N103 1.985 1_545 S
Cu92 O112 1.959 1_545 S
N93 Cu92 1.999 1_556 S
N93 C95 1.263 . S
N93 C97 1.389 1_556 S
N94 C95 1.358 . S
N94 C96 1.400 . S
C95 N93 1.263 . S
C95 N94 1.358 . S
C95 H101 0.930 . S
C96 N94 1.400 . S
C96 C97 1.351 1_556 S
C96 H113 0.930 . S
C97 N93 1.389 1_554 S
C97 C96 1.351 1_554 S
C97 H102 0.930 . S
O98 Cu92 1.974 1_556 S
O98 C108 1.282 . S
C99 O100 1.261 . S
C99 O112 1.251 . S
O100 C99 1.261 . S
H101 C95 0.930 . S
H102 C97 0.930 . S
N103 Cu92 1.985 1_565 S
N103 C105 1.335 . S
N103 C106 1.390 . S
N104 C105 1.345 . S
N104 C107 1.336 . S
C105 N103 1.335 . S
C105 N104 1.345 . S
C105 H110 0.930 . S
C106 N103 1.390 . S
C106 C107 1.346 . S
C106 H111 0.930 . S
C107 N104 1.336 . S
C107 C106 1.346 . S
C107 H114 0.929 . S
C108 O98 1.282 . S
C108 O109 1.216 1_545 S
O109 C108 1.216 1_565 S
H110 C105 0.930 . S
H111 C106 0.930 . S
O112 Cu92 1.959 1_565 S
O112 C99 1.251 . S
H113 C96 0.930 . S
H114 C107 0.929 . S
Cu115 N116 1.999 . S
Cu115 O121 1.974 . S
Cu115 N126 1.985 . S
Cu115 O135 1.959 . S
N116 Cu115 1.999 . S
N116 C118 1.263 . S
N116 C120 1.389 . S
N117 C118 1.358 . S
N117 C119 1.400 . S
C118 N116 1.263 . S
C118 N117 1.358 . S
C118 H124 0.930 . S
C119 N117 1.400 . S
C119 C120 1.351 . S
C119 H136 0.930 . S
C120 N116 1.389 . S
C120 C119 1.351 . S
C120 H125 0.930 . S
O121 Cu115 1.974 . S
O121 C131 1.282 . S
C122 O123 1.261 . S
C122 O135 1.251 . S
O123 C122 1.261 . S
H124 C118 0.930 . S
H125 C120 0.930 . S
N126 Cu115 1.985 . S
N126 C128 1.335 . S
N126 C129 1.390 . S
N127 C128 1.345 . S
N127 C130 1.336 . S
C128 N126 1.335 . S
C128 N127 1.345 . S
C128 H133 0.930 . S
C129 N126 1.390 . S
C129 C130 1.346 . S
C129 H134 0.930 . S
C130 N127 1.336 . S
C130 C129 1.346 . S
C130 H137 0.929 . S
C131 O121 1.282 . S
C131 O132 1.216 . S
O132 C131 1.216 . S
H133 C128 0.930 . S
H134 C129 0.930 . S
O135 Cu115 1.959 . S
O135 C122 1.251 . S
H136 C119 0.930 . S
H137 C130 0.929 . S
Mg138 O145 2.141 . S
Mg138 O146 2.048 . S
Mg138 O147 2.048 . S
Mg138 O150 2.141 . S
C139 O140 1.313 . S
C139 O146 1.195 . S
O140 C139 1.313 . S
C141 O142 1.245 . S
C141 O150 1.289 . S
O142 C141 1.245 . S
C143 O144 1.245 . S
C143 O145 1.289 . S
O144 C143 1.245 . S
O145 Mg138 2.141 . S
O145 C143 1.289 . S
O146 Mg138 2.048 . S
O146 C139 1.195 . S
O147 Mg138 2.048 . S
O147 C148 1.195 . S
C148 O147 1.195 . S
C148 O149 1.313 . S
O149 C148 1.313 . S
O150 Mg138 2.141 . S
O150 C141 1.289 . S
Mg151 O158 2.141 . S
Mg151 O159 2.048 . S
Mg151 O160 2.048 . S
Mg151 O163 2.141 . S
C152 O153 1.313 . S
C152 O159 1.195 . S
O153 C152 1.313 . S
C154 O155 1.245 . S
C154 O163 1.289 . S
O155 C154 1.245 . S
C156 O157 1.245 . S
C156 O158 1.289 . S
O157 C156 1.245 . S
O158 Mg151 2.141 . S
O158 C156 1.289 . S
O159 Mg151 2.048 . S
O159 C152 1.195 . S
O160 Mg151 2.048 . S
O160 C161 1.195 . S
C161 O160 1.195 . S
C161 O162 1.313 . S
O162 C161 1.313 . S
O163 Mg151 2.141 . S
O163 C154 1.289 . S
Mg164 O171 2.141 . S
Mg164 O172 2.048 . S
Mg164 O173 2.048 . S
Mg164 O176 2.141 . S
C165 O166 1.313 . S
C165 O172 1.195 . S
O166 C165 1.313 . S
C167 O168 1.245 . S
C167 O176 1.289 . S
O168 C167 1.245 . S
C169 O170 1.245 . S
C169 O171 1.289 . S
O170 C169 1.245 . S
O171 Mg164 2.141 . S
O171 C169 1.289 . S
O172 Mg164 2.048 . S
O172 C165 1.195 . S
O173 Mg164 2.048 . S
O173 C174 1.195 . S
C174 O173 1.195 . S
C174 O175 1.313 . S
O175 C174 1.313 . S
O176 Mg164 2.141 . S
O176 C167 1.289 . S
Mg177 O184 2.141 . S
Mg177 O185 2.048 . S
Mg177 O186 2.048 . S
Mg177 O189 2.141 . S
C178 O179 1.313 . S
C178 O185 1.195 . S
O179 C178 1.313 . S
C180 O181 1.245 . S
C180 O189 1.289 . S
O181 C180 1.245 . S
C182 O183 1.245 . S
C182 O184 1.289 . S
O183 C182 1.245 . S
O184 Mg177 2.141 . S
O184 C182 1.289 . S
O185 Mg177 2.048 . S
O185 C178 1.195 . S
O186 Mg177 2.048 . S
O186 C187 1.195 . S
C187 O186 1.195 . S
C187 O188 1.313 . S
O188 C187 1.313 . S
O189 Mg177 2.141 . S
O189 C180 1.289 . S
Mg190 O197 2.141 . S
Mg190 O198 2.048 . S
Mg190 O199 2.048 . S
Mg190 O202 2.141 . S
C191 O192 1.313 . S
C191 O198 1.195 . S
O192 C191 1.313 . S
C193 O194 1.245 . S
C193 O202 1.289 . S
O194 C193 1.245 . S
C195 O196 1.245 . S
C195 O197 1.289 . S
O196 C195 1.245 . S
O197 Mg190 2.141 . S
O197 C195 1.289 . S
O198 Mg190 2.048 . S
O198 C191 1.195 . S
O199 Mg190 2.048 . S
O199 C200 1.195 . S
C200 O199 1.195 . S
C200 O201 1.313 . S
O201 C200 1.313 . S
O202 Mg190 2.141 . S
O202 C193 1.289 . S
Mg203 O210 2.141 . S
Mg203 O211 2.048 . S
Mg203 O212 2.048 . S
Mg203 O215 2.141 . S
C204 O205 1.313 . S
C204 O211 1.195 . S
O205 C204 1.313 . S
C206 O207 1.245 . S
C206 O215 1.289 . S
O207 C206 1.245 . S
C208 O209 1.245 . S
C208 O210 1.289 . S
O209 C208 1.245 . S
O210 Mg203 2.141 . S
O210 C208 1.289 . S
O211 Mg203 2.048 . S
O211 C204 1.195 . S
O212 Mg203 2.048 . S
O212 C213 1.195 . S
C213 O212 1.195 . S
C213 O214 1.313 . S
O214 C213 1.313 . S
O215 Mg203 2.141 . S
O215 C206 1.289 . S
C216 C217 1.369 . S
C216 C218 1.419 . S
C216 H220 0.930 . S
C217 C216 1.369 . S
C217 C226 1.429 . S
C218 C216 1.419 . S
C218 C219 1.363 . S
C218 H221 0.929 . S
C219 C218 1.363 . S
C219 C225 1.428 . S
H220 C216 0.930 . S
H221 C218 0.929 . S
S222 N223 1.613 . S
S222 N224 1.610 . S
N223 S222 1.613 . S
N223 C226 1.350 . S
N224 S222 1.610 . S
N224 C225 1.351 . S
C225 C219 1.428 . S
C225 N224 1.351 . S
C225 C226 1.434 . S
C226 C217 1.429 . S
C226 N223 1.350 . S
C226 C225 1.434 . S
C227 C228 1.369 . S
C227 C229 1.419 . S
C227 H231 0.930 . S
C228 C227 1.369 . S
C228 C237 1.429 . S
C229 C227 1.419 . S
C229 C230 1.363 . S
C229 H232 0.929 . S
C230 C229 1.363 . S
C230 C236 1.428 . S
H231 C227 0.930 . S
H232 C229 0.929 . S
S233 N234 1.613 . S
S233 N235 1.610 . S
N234 S233 1.613 . S
N234 C237 1.350 . S
N235 S233 1.610 . S
N235 C236 1.351 . S
C236 C230 1.428 . S
C236 N235 1.351 . S
C236 C237 1.434 . S
C237 C228 1.429 . S
C237 N234 1.350 . S
C237 C236 1.434 . S
C238 C239 1.369 . S
C238 C240 1.419 . S
C238 H242 0.930 . S
C239 C238 1.369 . S
C239 C248 1.429 . S
C240 C238 1.419 . S
C240 C241 1.363 . S
C240 H243 0.929 . S
C241 C240 1.363 . S
C241 C247 1.428 . S
H242 C238 0.930 . S
H243 C240 0.929 . S
S244 N245 1.613 . S
S244 N246 1.610 . S
N245 S244 1.613 . S
N245 C248 1.350 . S
N246 S244 1.610 . S
N246 C247 1.351 . S
C247 C241 1.428 . S
C247 N246 1.351 . S
C247 C248 1.434 . S
C248 C239 1.429 . S
C248 N245 1.350 . S
C248 C247 1.434 . S
C249 C250 1.369 . S
C249 C251 1.419 . S
C249 H253 0.930 . S
C250 C249 1.369 . S
C250 C259 1.429 . S
C251 C249 1.419 . S
C251 C252 1.363 . S
C251 H254 0.929 . S
C252 C251 1.363 . S
C252 C258 1.428 . S
H253 C249 0.930 . S
H254 C251 0.929 . S
S255 N256 1.613 . S
S255 N257 1.610 . S
N256 S255 1.613 . S
N256 C259 1.350 . S
N257 S255 1.610 . S
N257 C258 1.351 . S
C258 C252 1.428 . S
C258 N257 1.351 . S
C258 C259 1.434 . S
C259 C250 1.429 . S
C259 N256 1.350 . S
C259 C258 1.434 . S
C260 C261 1.369 . S
C260 C262 1.419 . S
C260 H264 0.930 . S
C261 C260 1.369 . S
C261 C270 1.429 . S
C262 C260 1.419 . S
C262 C263 1.363 . S
C262 H265 0.929 . S
C263 C262 1.363 . S
C263 C269 1.428 . S
H264 C260 0.930 . S
H265 C262 0.929 . S
S266 N267 1.613 . S
S266 N268 1.610 . S
N267 S266 1.613 . S
N267 C270 1.350 . S
N268 S266 1.610 . S
N268 C269 1.351 . S
C269 C263 1.428 . S
C269 N268 1.351 . S
C269 C270 1.434 . S
C270 C261 1.429 . S
C270 N267 1.350 . S
C270 C269 1.434 . S
C271 C272 1.369 . S
C271 C273 1.419 . S
C271 H275 0.930 . S
C272 C271 1.369 . S
C272 C281 1.429 . S
C273 C271 1.419 . S
C273 C274 1.363 . S
C273 H276 0.929 . S
C274 C273 1.363 . S
C274 C280 1.428 . S
H275 C271 0.930 . S
H276 C273 0.929 . S
S277 N278 1.613 . S
S277 N279 1.610 . S
N278 S277 1.613 . S
N278 C281 1.350 . S
N279 S277 1.610 . S
N279 C280 1.351 . S
C280 C274 1.428 . S
C280 N279 1.351 . S
C280 C281 1.434 . S
C281 C272 1.429 . S
C281 N278 1.350 . S
C281 C280 1.434 . S
C282 C283 1.369 . S
C282 C284 1.419 . S
C282 H286 0.930 . S
C283 C282 1.369 . S
C283 C292 1.429 . S
C284 C282 1.419 . S
C284 C285 1.363 . S
C284 H287 0.929 . S
C285 C284 1.363 . S
C285 C291 1.428 . S
H286 C282 0.930 . S
H287 C284 0.929 . S
S288 N289 1.613 . S
S288 N290 1.610 1_545 S
N289 S288 1.613 . S
N289 C292 1.350 1_545 S
N290 S288 1.610 1_565 S
N290 C291 1.351 . S
C291 C285 1.428 . S
C291 N290 1.351 . S
C291 C292 1.434 . S
C292 C283 1.429 . S
C292 N289 1.350 1_565 S
C292 C291 1.434 . S
C293 C294 1.369 . S
C293 C295 1.419 . S
C293 H297 0.930 . S
C294 C293 1.369 . S
C294 C303 1.429 . S
C295 C293 1.419 . S
C295 C296 1.363 . S
C295 H298 0.929 . S
C296 C295 1.363 . S
C296 C302 1.428 . S
H297 C293 0.930 . S
H298 C295 0.929 . S
S299 N300 1.613 . S
S299 N301 1.610 . S
N300 S299 1.613 . S
N300 C303 1.350 . S
N301 S299 1.610 . S
N301 C302 1.351 . S
C302 C296 1.428 . S
C302 N301 1.351 . S
C302 C303 1.434 . S
C303 C294 1.429 . S
C303 N300 1.350 . S
C303 C302 1.434 . S
C304 C305 1.369 . S
C304 C306 1.419 . S
C304 H308 0.930 . S
C305 C304 1.369 . S
C305 C314 1.429 . S
C306 C304 1.419 . S
C306 C307 1.363 . S
C306 H309 0.929 . S
C307 C306 1.363 . S
C307 C313 1.428 . S
H308 C304 0.930 . S
H309 C306 0.929 . S
S310 N311 1.613 . S
S310 N312 1.610 . S
N311 S310 1.613 . S
N311 C314 1.350 . S
N312 S310 1.610 . S
N312 C313 1.351 . S
C313 C307 1.428 . S
C313 N312 1.351 . S
C313 C314 1.434 . S
C314 C305 1.429 . S
C314 N311 1.350 . S
C314 C313 1.434 . S
C315 C316 1.369 . S
C315 C317 1.419 . S
C315 H319 0.930 . S
C316 C315 1.369 . S
C316 C325 1.429 . S
C317 C315 1.419 . S
C317 C318 1.363 . S
C317 H320 0.929 . S
C318 C317 1.363 . S
C318 C324 1.428 . S
H319 C315 0.930 . S
H320 C317 0.929 . S
S321 N322 1.613 . S
S321 N323 1.610 . S
N322 S321 1.613 . S
N322 C325 1.350 . S
N323 S321 1.610 . S
N323 C324 1.351 . S
C324 C318 1.428 . S
C324 N323 1.351 . S
C324 C325 1.434 . S
C325 C316 1.429 . S
C325 N322 1.350 . S
C325 C324 1.434 . S
C326 C327 1.369 . S
C326 C328 1.419 . S
C326 H330 0.930 . S
C327 C326 1.369 . S
C327 C336 1.429 . S
C328 C326 1.419 . S
C328 C329 1.363 . S
C328 H331 0.929 . S
C329 C328 1.363 . S
C329 C335 1.428 . S
H330 C326 0.930 . S
H331 C328 0.929 . S
S332 N333 1.613 . S
S332 N334 1.610 . S
N333 S332 1.613 . S
N333 C336 1.350 . S
N334 S332 1.610 . S
N334 C335 1.351 . S
C335 C329 1.428 . S
C335 N334 1.351 . S
C335 C336 1.434 . S
C336 C327 1.429 . S
C336 N333 1.350 . S
C336 C335 1.434 . S
C337 C338 1.369 . S
C337 C339 1.419 . S
C337 H341 0.930 . S
C338 C337 1.369 . S
C338 C347 1.429 . S
C339 C337 1.419 . S
C339 C340 1.363 . S
C339 H342 0.929 . S
C340 C339 1.363 . S
C340 C346 1.428 . S
H341 C337 0.930 . S
H342 C339 0.929 . S
S343 N344 1.613 . S
S343 N345 1.610 1_455 S
N344 S343 1.613 . S
N344 C347 1.350 1_455 S
N345 S343 1.610 1_655 S
N345 C346 1.351 . S
C346 C340 1.428 . S
C346 N345 1.351 . S
C346 C347 1.434 . S
C347 C338 1.429 . S
C347 N344 1.350 1_655 S
C347 C346 1.434 . S
C348 C349 1.369 . S
C348 C350 1.419 . S
C348 H352 0.930 1_655 S
C349 C348 1.369 . S
C349 C358 1.429 . S
C350 C348 1.419 . S
C350 C351 1.363 . S
C350 H353 0.929 . S
C351 C350 1.363 . S
C351 C357 1.428 . S
H352 C348 0.930 1_455 S
H353 C350 0.929 . S
S354 N355 1.613 . S
S354 N356 1.610 . S
N355 S354 1.613 . S
N355 C358 1.350 . S
N356 S354 1.610 . S
N356 C357 1.351 . S
C357 C351 1.428 . S
C357 N356 1.351 . S
C357 C358 1.434 . S
C358 C349 1.429 . S
C358 N355 1.350 . S
C358 C357 1.434 . S
C359 C360 1.369 . S
C359 C361 1.419 . S
C359 H363 0.930 . S
C360 C359 1.369 . S
C360 C369 1.429 . S
C361 C359 1.419 . S
C361 C362 1.363 . S
C361 H364 0.929 . S
C362 C361 1.363 . S
C362 C368 1.428 . S
H363 C359 0.930 . S
H364 C361 0.929 . S
S365 N366 1.613 . S
S365 N367 1.610 . S
N366 S365 1.613 . S
N366 C369 1.350 . S
N367 S365 1.610 . S
N367 C368 1.351 . S
C368 C362 1.428 . S
C368 N367 1.351 . S
C368 C369 1.434 . S
C369 C360 1.429 . S
C369 N366 1.350 . S
C369 C368 1.434 . S
C370 C371 1.369 . S
C370 C372 1.419 . S
C370 H374 0.930 . S
C371 C370 1.369 . S
C371 C380 1.429 . S
C372 C370 1.419 . S
C372 C373 1.363 . S
C372 H375 0.929 . S
C373 C372 1.363 . S
C373 C379 1.428 . S
H374 C370 0.930 . S
H375 C372 0.929 . S
S376 N377 1.613 . S
S376 N378 1.610 . S
N377 S376 1.613 . S
N377 C380 1.350 . S
N378 S376 1.610 . S
N378 C379 1.351 . S
C379 C373 1.428 . S
C379 N378 1.351 . S
C379 C380 1.434 . S
C380 C371 1.429 . S
C380 N377 1.350 . S
C380 C379 1.434 . S
C381 C382 1.369 . S
C381 C383 1.419 . S
C381 H385 0.930 . S
C382 C381 1.369 . S
C382 C391 1.429 . S
C383 C381 1.419 . S
C383 C384 1.363 . S
C383 H386 0.929 . S
C384 C383 1.363 . S
C384 C390 1.428 . S
H385 C381 0.930 . S
H386 C383 0.929 . S
S387 N388 1.613 . S
S387 N389 1.610 1_655 S
N388 S387 1.613 . S
N388 C391 1.350 1_655 S
N389 S387 1.610 1_455 S
N389 C390 1.351 . S
C390 C384 1.428 . S
C390 N389 1.351 . S
C390 C391 1.434 . S
C391 C382 1.429 . S
C391 N388 1.350 1_455 S
C391 C390 1.434 . S
C392 C393 1.369 . S
C392 C394 1.419 . S
C392 H396 0.930 . S
C393 C392 1.369 . S
C393 C402 1.429 . S
C394 C392 1.419 . S
C394 C395 1.363 . S
C394 H397 0.929 . S
C395 C394 1.363 . S
C395 C401 1.428 . S
H396 C392 0.930 . S
H397 C394 0.929 . S
S398 N399 1.613 . S
S398 N400 1.610 . S
N399 S398 1.613 . S
N399 C402 1.350 . S
N400 S398 1.610 . S
N400 C401 1.351 . S
C401 C395 1.428 . S
C401 N400 1.351 . S
C401 C402 1.434 . S
C402 C393 1.429 . S
C402 N399 1.350 . S
C402 C401 1.434 . S
C403 C404 1.369 . S
C403 C405 1.419 . S
C403 H407 0.930 . S
C404 C403 1.369 . S
C404 C413 1.429 . S
C405 C403 1.419 . S
C405 C406 1.363 . S
C405 H408 0.929 . S
C406 C405 1.363 . S
C406 C412 1.428 . S
H407 C403 0.930 . S
H408 C405 0.929 . S
S409 N410 1.613 . S
S409 N411 1.610 . S
N410 S409 1.613 . S
N410 C413 1.350 . S
N411 S409 1.610 . S
N411 C412 1.351 . S
C412 C406 1.428 . S
C412 N411 1.351 . S
C412 C413 1.434 . S
C413 C404 1.429 . S
C413 N410 1.350 . S
C413 C412 1.434 . S
C414 C415 1.369 . S
C414 C416 1.419 . S
C414 H418 0.930 . S
C415 C414 1.369 . S
C415 C424 1.429 . S
C416 C414 1.419 . S
C416 C417 1.363 . S
C416 H419 0.929 . S
C417 C416 1.363 . S
C417 C423 1.428 . S
H418 C414 0.930 . S
H419 C416 0.929 . S
S420 N421 1.613 . S
S420 N422 1.610 . S
N421 S420 1.613 . S
N421 C424 1.350 . S
N422 S420 1.610 . S
N422 C423 1.351 . S
C423 C417 1.428 . S
C423 N422 1.351 . S
C423 C424 1.434 . S
C424 C415 1.429 . S
C424 N421 1.350 . S
C424 C423 1.434 . S
C425 C426 1.369 . S
C425 C427 1.419 . S
C425 H429 0.930 . S
C426 C425 1.369 . S
C426 C435 1.429 . S
C427 C425 1.419 . S
C427 C428 1.363 . S
C427 H430 0.929 . S
C428 C427 1.363 . S
C428 C434 1.428 . S
H429 C425 0.930 . S
H430 C427 0.929 . S
S431 N432 1.613 . S
S431 N433 1.610 . S
N432 S431 1.613 . S
N432 C435 1.350 . S
N433 S431 1.610 . S
N433 C434 1.351 . S
C434 C428 1.428 . S
C434 N433 1.351 . S
C434 C435 1.434 . S
C435 C426 1.429 . S
C435 N432 1.350 . S
C435 C434 1.434 . S
C436 C437 1.369 . S
C436 C438 1.419 . S
C436 H440 0.930 . S
C437 C436 1.369 . S
C437 C446 1.429 . S
C438 C436 1.419 . S
C438 C439 1.363 . S
C438 H441 0.929 . S
C439 C438 1.363 . S
C439 C445 1.428 . S
H440 C436 0.930 . S
H441 C438 0.929 . S
S442 N443 1.613 . S
S442 N444 1.610 . S
N443 S442 1.613 . S
N443 C446 1.350 . S
N444 S442 1.610 . S
N444 C445 1.351 . S
C445 C439 1.428 . S
C445 N444 1.351 . S
C445 C446 1.434 . S
C446 C437 1.429 . S
C446 N443 1.350 . S
C446 C445 1.434 . S
C447 C448 1.369 . S
C447 C449 1.419 . S
C447 H451 0.930 . S
C448 C447 1.369 . S
C448 C457 1.429 . S
C449 C447 1.419 . S
C449 C450 1.363 . S
C449 H452 0.929 . S
C450 C449 1.363 . S
C450 C456 1.428 . S
H451 C447 0.930 . S
H452 C449 0.929 . S
S453 N454 1.613 . S
S453 N455 1.610 . S
N454 S453 1.613 . S
N454 C457 1.350 . S
N455 S453 1.610 . S
N455 C456 1.351 . S
C456 C450 1.428 . S
C456 N455 1.351 . S
C456 C457 1.434 . S
C457 C448 1.429 . S
C457 N454 1.350 . S
C457 C456 1.434 . S
C458 C459 1.369 . S
C458 C460 1.419 . S
C458 H462 0.930 . S
C459 C458 1.369 . S
C459 C468 1.429 . S
C460 C458 1.419 . S
C460 C461 1.363 . S
C460 H463 0.929 . S
C461 C460 1.363 . S
C461 C467 1.428 . S
H462 C458 0.930 . S
H463 C460 0.929 . S
S464 N465 1.613 . S
S464 N466 1.610 . S
N465 S464 1.613 . S
N465 C468 1.350 . S
N466 S464 1.610 . S
N466 C467 1.351 . S
C467 C461 1.428 . S
C467 N466 1.351 . S
C467 C468 1.434 . S
C468 C459 1.429 . S
C468 N465 1.350 . S
C468 C467 1.434 . S
C469 C470 1.369 . S
C469 C471 1.419 . S
C469 H473 0.930 . S
C470 C469 1.369 . S
C470 C479 1.429 . S
C471 C469 1.419 . S
C471 C472 1.363 . S
C471 H474 0.929 . S
C472 C471 1.363 . S
C472 C478 1.428 . S
H473 C469 0.930 . S
H474 C471 0.929 . S
S475 N476 1.613 . S
S475 N477 1.610 . S
N476 S475 1.613 . S
N476 C479 1.350 . S
N477 S475 1.610 . S
N477 C478 1.351 . S
C478 C472 1.428 . S
C478 N477 1.351 . S
C478 C479 1.434 . S
C479 C470 1.429 . S
C479 N476 1.350 . S
C479 C478 1.434 . S
C217 C7 1.856 . S
C219 C139 1.855 . S
C228 C30 1.646 . S
C230 C152 1.633 . S
C241 C174 1.625 . S
C239 N58 1.647 . S
C252 C187 1.443 . S
C250 N81 1.442 . S
C263 C200 1.726 . S
C261 C99 1.813 . S
C274 C213 1.420 . S
C272 N127 1.448 . S
C283 N25 1.658 . S
C285 C169 1.596 . S
C294 C62 1.635 . S
C296 C182 1.537 . S
C307 C195 1.699 . S
C305 C85 1.781 . S
C318 C208 1.389 . S
C316 N94 1.469 . S
C327 C131 1.823 . S
C329 C141 1.813 . S
C340 C154 1.498 . S
C338 N2 1.465 . S
C351 C180 1.711 . S
C349 C16 1.792 . S
C360 C39 1.597 . S
C362 C193 1.530 . S
C373 C206 1.599 . S
C371 N48 1.639 . S
C382 N71 1.439 . S
C384 C143 1.492 . S
C393 C108 1.780 . S
C395 C156 1.791 . S
C404 N117 1.430 . S
C406 C167 1.395 . S
C415 N35 1.630 . S
C417 C204 1.611 . S
C428 C148 1.619 . S
C426 C53 1.620 . S
C437 C76 1.820 . S
C439 C161 1.817 . S
C448 N104 1.422 . S
C450 C165 1.407 . S
C459 C122 1.779 . S
C461 C178 1.716 . S
C470 N12 1.413 . S
C472 C191 1.416 . S
