# Generated by pormake.
# Topology ocu, (6,8)-cn, num edge types: 1
# Building blocks:
#     Node 0, Type 0, BuildingBlock: PAMTUU_clean_sbu_0, # of connection points: 6
#     Node 1, Type 0, BuildingBlock: PAMTUU_clean_sbu_0, # of connection points: 6
#     Node 2, Type 0, BuildingBlock: PAMTUU_clean_sbu_0, # of connection points: 6
#     Node 3, Type 0, BuildingBlock: PAMTUU_clean_sbu_0, # of connection points: 6
#     Node 4, Type 0, BuildingBlock: PAMTUU_clean_sbu_0, # of connection points: 6
#     Node 5, Type 0, BuildingBlock: PAMTUU_clean_sbu_0, # of connection points: 6
#     Node 6, Type 0, BuildingBlock: PAMTUU_clean_sbu_0, # of connection points: 6
#     Node 7, Type 0, BuildingBlock: PAMTUU_clean_sbu_0, # of connection points: 6
#     Node 8, Type 1, BuildingBlock: GIZVER_clean_sbu_0, # of connection points: 8
#     Node 9, Type 1, BuildingBlock: GIZVER_clean_sbu_0, # of connection points: 8
#     Node 10, Type 1, BuildingBlock: GIZVER_clean_sbu_0, # of connection points: 8
#     Node 11, Type 1, BuildingBlock: GIZVER_clean_sbu_0, # of connection points: 8
#     Node 12, Type 1, BuildingBlock: GIZVER_clean_sbu_0, # of connection points: 8
#     Node 13, Type 1, BuildingBlock: GIZVER_clean_sbu_0, # of connection points: 8
#     Edge 14, Type (0, 1), BuildingBlock: AJUNOK_clean_linker_0, # of connection points: 2
#     Edge 15, Type (0, 1), BuildingBlock: AJUNOK_clean_linker_0, # of connection points: 2
#     Edge 16, Type (0, 1), BuildingBlock: AJUNOK_clean_linker_0, # of connection points: 2
#     Edge 17, Type (0, 1), BuildingBlock: AJUNOK_clean_linker_0, # of connection points: 2
#     Edge 18, Type (0, 1), BuildingBlock: AJUNOK_clean_linker_0, # of connection points: 2
#     Edge 19, Type (0, 1), BuildingBlock: AJUNOK_clean_linker_0, # of connection points: 2
#     Edge 20, Type (0, 1), BuildingBlock: AJUNOK_clean_linker_0, # of connection points: 2
#     Edge 21, Type (0, 1), BuildingBlock: AJUNOK_clean_linker_0, # of connection points: 2
#     Edge 22, Type (0, 1), BuildingBlock: AJUNOK_clean_linker_0, # of connection points: 2
#     Edge 23, Type (0, 1), BuildingBlock: AJUNOK_clean_linker_0, # of connection points: 2
#     Edge 24, Type (0, 1), BuildingBlock: AJUNOK_clean_linker_0, # of connection points: 2
#     Edge 25, Type (0, 1), BuildingBlock: AJUNOK_clean_linker_0, # of connection points: 2
#     Edge 26, Type (0, 1), BuildingBlock: AJUNOK_clean_linker_0, # of connection points: 2
#     Edge 27, Type (0, 1), BuildingBlock: AJUNOK_clean_linker_0, # of connection points: 2
#     Edge 28, Type (0, 1), BuildingBlock: AJUNOK_clean_linker_0, # of connection points: 2
#     Edge 29, Type (0, 1), BuildingBlock: AJUNOK_clean_linker_0, # of connection points: 2
#     Edge 30, Type (0, 1), BuildingBlock: AJUNOK_clean_linker_0, # of connection points: 2
#     Edge 31, Type (0, 1), BuildingBlock: AJUNOK_clean_linker_0, # of connection points: 2
#     Edge 32, Type (0, 1), BuildingBlock: AJUNOK_clean_linker_0, # of connection points: 2
#     Edge 33, Type (0, 1), BuildingBlock: AJUNOK_clean_linker_0, # of connection points: 2
#     Edge 34, Type (0, 1), BuildingBlock: AJUNOK_clean_linker_0, # of connection points: 2
#     Edge 35, Type (0, 1), BuildingBlock: AJUNOK_clean_linker_0, # of connection points: 2
#     Edge 36, Type (0, 1), BuildingBlock: AJUNOK_clean_linker_0, # of connection points: 2
#     Edge 37, Type (0, 1), BuildingBlock: AJUNOK_clean_linker_0, # of connection points: 2
#     Edge 38, Type (0, 1), BuildingBlock: AJUNOK_clean_linker_0, # of connection points: 2
#     Edge 39, Type (0, 1), BuildingBlock: AJUNOK_clean_linker_0, # of connection points: 2
#     Edge 40, Type (0, 1), BuildingBlock: AJUNOK_clean_linker_0, # of connection points: 2
#     Edge 41, Type (0, 1), BuildingBlock: AJUNOK_clean_linker_0, # of connection points: 2
#     Edge 42, Type (0, 1), BuildingBlock: AJUNOK_clean_linker_0, # of connection points: 2
#     Edge 43, Type (0, 1), BuildingBlock: AJUNOK_clean_linker_0, # of connection points: 2
#     Edge 44, Type (0, 1), BuildingBlock: AJUNOK_clean_linker_0, # of connection points: 2
#     Edge 45, Type (0, 1), BuildingBlock: AJUNOK_clean_linker_0, # of connection points: 2
#     Edge 46, Type (0, 1), BuildingBlock: AJUNOK_clean_linker_0, # of connection points: 2
#     Edge 47, Type (0, 1), BuildingBlock: AJUNOK_clean_linker_0, # of connection points: 2
#     Edge 48, Type (0, 1), BuildingBlock: AJUNOK_clean_linker_0, # of connection points: 2
#     Edge 49, Type (0, 1), BuildingBlock: AJUNOK_clean_linker_0, # of connection points: 2
#     Edge 50, Type (0, 1), BuildingBlock: AJUNOK_clean_linker_0, # of connection points: 2
#     Edge 51, Type (0, 1), BuildingBlock: AJUNOK_clean_linker_0, # of connection points: 2
#     Edge 52, Type (0, 1), BuildingBlock: AJUNOK_clean_linker_0, # of connection points: 2
#     Edge 53, Type (0, 1), BuildingBlock: AJUNOK_clean_linker_0, # of connection points: 2
#     Edge 54, Type (0, 1), BuildingBlock: AJUNOK_clean_linker_0, # of connection points: 2
#     Edge 55, Type (0, 1), BuildingBlock: AJUNOK_clean_linker_0, # of connection points: 2
#     Edge 56, Type (0, 1), BuildingBlock: AJUNOK_clean_linker_0, # of connection points: 2
#     Edge 57, Type (0, 1), BuildingBlock: AJUNOK_clean_linker_0, # of connection points: 2
#     Edge 58, Type (0, 1), BuildingBlock: AJUNOK_clean_linker_0, # of connection points: 2
#     Edge 59, Type (0, 1), BuildingBlock: AJUNOK_clean_linker_0, # of connection points: 2
#     Edge 60, Type (0, 1), BuildingBlock: AJUNOK_clean_linker_0, # of connection points: 2
#     Edge 61, Type (0, 1), BuildingBlock: AJUNOK_clean_linker_0, # of connection points: 2
# Relax obj value: 0.225
# Max RMSD: 0.249
# Mean RMSD: 0.187
data_MOF--net-ocu--node1-PAMTUU_clean_sbu_0--node2-GIZVER_clean_sbu_0--edge1-AJUNOK_clean_linker_0
_symmetry_space_group_name_H-M    P1
_symmetry_Int_Tables_number       1
_symmetry_cell_setting            triclinic
loop_
_symmetry_equiv_pos_as_xyz
'x, y, z'
_cell_length_a     33.226885
_cell_length_b     35.955179
_cell_length_c     25.403661
_cell_angle_alpha  82.756922
_cell_angle_beta   98.347218
_cell_angle_gamma 116.68695
loop_
_atom_site_label
_atom_site_type_symbol
_atom_site_fract_x
_atom_site_fract_y
_atom_site_fract_z
_atom_type_partial_charge
Tb0 Tb 0.29844 0.29552 0.27651 0.0
Tb1 Tb 0.3678 0.31868 0.374 0.0
C2 C 0.27154 0.24036 0.37963 0.0
C3 C 0.23001 0.31754 0.16999 0.0
C4 C 0.19566 0.37604 0.15016 0.0
C5 C 0.17133 0.33663 0.12921 0.0
C6 C 0.18814 0.30699 0.14019 0.0
C7 C 0.25642 0.35823 0.18562 0.0
C8 C 0.23918 0.38714 0.17633 0.0
C9 C 0.24291 0.28571 0.19522 0.0
O10 O 0.27797 0.33663 0.32148 0.0
O11 O 0.33547 0.36013 0.38774 0.0
O12 O 0.39757 0.37606 0.3256 0.0
O13 O 0.35997 0.34758 0.24801 0.0
O14 O 0.38034 0.32105 0.45721 0.0
O15 O 0.43428 0.33536 0.40933 0.0
O16 O 0.38868 0.27876 0.32599 0.0
O17 O 0.33127 0.25576 0.25977 0.0
O18 O 0.26976 0.2388 0.3283 0.0
O19 O 0.30456 0.27156 0.40356 0.0
C20 C 0.29662 0.35973 0.36453 0.0
O21 O 0.2852 0.29483 0.19333 0.0
O22 O 0.23091 0.27358 0.24332 0.0
C23 C 0.39406 0.3773 0.27377 0.0
C24 C 0.42913 0.29087 0.48442 0.0
C25 C 0.45153 0.2245 0.49179 0.0
C26 C 0.48421 0.26378 0.50802 0.0
C27 C 0.47314 0.29717 0.50353 0.0
C28 C 0.39512 0.25035 0.47655 0.0
C29 C 0.40634 0.21749 0.47945 0.0
C30 C 0.42118 0.32525 0.45707 0.0
C31 C 0.37029 0.25644 0.28199 0.0
H32 H 0.13839 0.32793 0.10704 0.0
H33 H 0.16756 0.2755 0.12819 0.0
H34 H 0.28875 0.36663 0.20932 0.0
H35 H 0.25869 0.41705 0.19336 0.0
H36 H 0.51896 0.26957 0.52007 0.0
H37 H 0.49966 0.3283 0.50994 0.0
H38 H 0.36075 0.2447 0.46185 0.0
H39 H 0.38021 0.18761 0.4672 0.0
Tb40 Tb 0.79571 0.33171 0.31422 0.0
Tb41 Tb 0.85772 0.29356 0.276 0.0
C42 C 0.88812 0.34879 0.37095 0.0
C43 C 0.7612 0.40638 0.35466 0.0
C44 C 0.75186 0.47398 0.30097 0.0
C45 C 0.72061 0.44835 0.33698 0.0
C46 C 0.72479 0.41366 0.36315 0.0
C47 C 0.79807 0.43808 0.3304 0.0
C48 C 0.79331 0.47223 0.30331 0.0
C49 C 0.75365 0.36346 0.3534 0.0
O50 O 0.84936 0.38364 0.27181 0.0
O51 O 0.86019 0.34359 0.21717 0.0
O52 O 0.79657 0.26701 0.22446 0.0
O53 O 0.76256 0.30837 0.23714 0.0
O54 O 0.92126 0.30427 0.25505 0.0
O55 O 0.86671 0.24213 0.25985 0.0
O56 O 0.82369 0.25377 0.34441 0.0
O57 O 0.76054 0.26512 0.33378 0.0
O58 O 0.84548 0.33067 0.37852 0.0
O59 O 0.9003 0.34237 0.32788 0.0
C60 C 0.86671 0.38038 0.22988 0.0
O61 O 0.74334 0.34997 0.30574 0.0
O62 O 0.78422 0.35382 0.38039 0.0
C63 C 0.76481 0.27951 0.21215 0.0
C64 C 0.9344 0.25235 0.30988 0.0
C65 C 0.94275 0.22162 0.41583 0.0
C66 C 0.92699 0.19461 0.37412 0.0
C67 C 0.92283 0.20987 0.32151 0.0
C68 C 0.95515 0.27994 0.35102 0.0
C69 C 0.95897 0.26462 0.40367 0.0
C70 C 0.91048 0.26452 0.263 0.0
C71 C 0.78091 0.24154 0.35176 0.0
H72 H 0.68869 0.44992 0.33625 0.0
H73 H 0.69647 0.38966 0.38268 0.0
H74 H 0.827 0.43316 0.32484 0.0
H75 H 0.81804 0.49246 0.27646 0.0
H76 H 0.91659 0.16143 0.38231 0.0
H77 H 0.90663 0.188 0.29066 0.0
H78 H 0.96479 0.31302 0.34346 0.0
H79 H 0.97271 0.28615 0.435 0.0
Tb80 Tb 0.85287 0.82281 0.25501 0.0
Tb81 Tb 0.79672 0.78717 0.3532 0.0
C82 C 0.88767 0.87034 0.35955 0.0
C83 C 0.89015 0.82277 0.12817 0.0
C84 C 0.89599 0.75568 0.09187 0.0
C85 C 0.9355 0.79224 0.10344 0.0
C86 C 0.93259 0.82575 0.12158 0.0
C87 C 0.85071 0.78913 0.10767 0.0
C88 C 0.85363 0.75535 0.08998 0.0
C89 C 0.88732 0.84773 0.16771 0.0
O90 O 0.88821 0.78287 0.2983 0.0
O91 O 0.84072 0.75105 0.36334 0.0
O92 O 0.75368 0.74535 0.2941 0.0
O93 O 0.8059 0.75939 0.23617 0.0
O94 O 0.79397 0.75377 0.42774 0.0
O95 O 0.74267 0.77384 0.39796 0.0
O96 O 0.76225 0.82779 0.30946 0.0
O97 O 0.80835 0.85818 0.243 0.0
O98 O 0.89685 0.86527 0.31352 0.0
O99 O 0.84907 0.84661 0.37878 0.0
C100 C 0.87687 0.75502 0.34083 0.0
O101 O 0.84668 0.84182 0.17402 0.0
O102 O 0.9108 0.84767 0.21351 0.0
C103 C 0.76619 0.7362 0.2532 0.0
C104 C 0.77045 0.78273 0.48745 0.0
C105 C 0.78334 0.85004 0.54258 0.0
C106 C 0.74077 0.81543 0.53829 0.0
C107 C 0.73424 0.78181 0.5105 0.0
C108 C 0.81452 0.81383 0.50027 0.0
C109 C 0.82089 0.84757 0.52761 0.0
C110 C 0.76091 0.75995 0.43972 0.0
C111 C 0.77276 0.85475 0.26597 0.0
H112 H 0.96858 0.79316 0.10375 0.0
H113 H 0.96338 0.85172 0.13614 0.0
H114 H 0.81748 0.78684 0.11044 0.0
H115 H 0.8229 0.72764 0.08001 0.0
H116 H 0.71133 0.81735 0.54858 0.0
H117 H 0.70009 0.75813 0.50108 0.0
H118 H 0.84323 0.81503 0.48338 0.0
H119 H 0.85385 0.87415 0.53001 0.0
Tb120 Tb 0.35048 0.77478 0.29032 0.0
Tb121 Tb 0.2881 0.82504 0.27812 0.0
C122 C 0.26246 0.74011 0.34236 0.0
C123 C 0.38513 0.68792 0.30192 0.0
C124 C 0.38726 0.61071 0.30088 0.0
C125 C 0.3943 0.6287 0.34943 0.0
C126 C 0.39406 0.66744 0.34979 0.0
C127 C 0.37172 0.66708 0.25476 0.0
C128 C 0.37243 0.62872 0.2544 0.0
C129 C 0.39427 0.73208 0.3007 0.0
O130 O 0.28838 0.73853 0.24002 0.0
O131 O 0.27695 0.79454 0.20505 0.0
O132 O 0.35317 0.87062 0.25847 0.0
O133 O 0.37817 0.82671 0.23191 0.0
O134 O 0.24392 0.84446 0.30387 0.0
O135 O 0.26287 0.85968 0.22287 0.0
O136 O 0.33556 0.84701 0.35097 0.0
O137 O 0.39088 0.82759 0.33892 0.0
O138 O 0.30597 0.75263 0.35248 0.0
O139 O 0.24619 0.76187 0.30872 0.0
C140 C 0.26755 0.75517 0.20393 0.0
O141 O 0.38506 0.74949 0.25528 0.0
O142 O 0.38282 0.74328 0.34075 0.0
C143 C 0.38175 0.86416 0.23544 0.0
C144 C 0.25671 0.91082 0.26422 0.0
C145 C 0.26546 0.98287 0.30351 0.0
C146 C 0.23242 0.96502 0.26109 0.0
C147 C 0.22712 0.92801 0.24262 0.0
C148 C 0.29606 0.93441 0.29652 0.0
C149 C 0.30073 0.97095 0.31575 0.0
C150 C 0.24366 0.86682 0.25902 0.0
C151 C 0.37702 0.84951 0.36296 0.0
H152 H 0.40376 0.61468 0.3864 0.0
H153 H 0.40345 0.68245 0.387 0.0
H154 H 0.36344 0.68147 0.21739 0.0
H155 H 0.36573 0.61538 0.21642 0.0
H156 H 0.20536 0.97441 0.25034 0.0
H157 H 0.19741 0.91073 0.21615 0.0
H158 H 0.32025 0.92217 0.31168 0.0
H159 H 0.32706 0.98497 0.34754 0.0
Tb160 Tb 0.3396 0.80994 0.77266 0.0
Tb161 Tb 0.38391 0.75692 0.83488 0.0
C162 C 0.40552 0.84346 0.87982 0.0
C163 C 0.33241 0.89048 0.67304 0.0
C164 C 0.33235 0.94645 0.5876 0.0
C165 C 0.34565 0.96033 0.63957 0.0
C166 C 0.34369 0.93166 0.68253 0.0
C167 C 0.33339 0.88111 0.62122 0.0
C168 C 0.33483 0.90988 0.57833 0.0
C169 C 0.31226 0.85707 0.71438 0.0
O170 O 0.39354 0.81764 0.72717 0.0
O171 O 0.4396 0.80801 0.79631 0.0
O172 O 0.35565 0.72749 0.75679 0.0
O173 O 0.29857 0.74646 0.7424 0.0
O174 O 0.43175 0.74911 0.8933 0.0
O175 O 0.3834 0.69785 0.8478 0.0
O176 O 0.31605 0.72811 0.86049 0.0
O177 O 0.29345 0.77926 0.83367 0.0
O178 O 0.39267 0.85353 0.83045 0.0
O179 O 0.39512 0.80354 0.89244 0.0
C180 C 0.4342 0.82513 0.74893 0.0
O181 O 0.30228 0.81942 0.70325 0.0
O182 O 0.32994 0.86438 0.76336 0.0
C183 C 0.31513 0.72102 0.73261 0.0
C184 C 0.38761 0.68614 0.94013 0.0
C185 C 0.34819 0.64286 0.03359 0.0
C186 C 0.34958 0.62116 0.9914 0.0
C187 C 0.37032 0.64281 0.946 0.0
C188 C 0.37824 0.70685 0.97672 0.0
C189 C 0.35797 0.68526 0.02262 0.0
C190 C 0.40936 0.70874 0.89208 0.0
C191 C 0.2869 0.74342 0.85964 0.0
H192 H 0.34749 0.98984 0.64818 0.0
H193 H 0.34549 0.94035 0.72243 0.0
H194 H 0.32724 0.85008 0.61289 0.0
H195 H 0.32732 0.89929 0.53848 0.0
H196 H 0.33944 0.58797 0.99517 0.0
H197 H 0.37403 0.62579 0.91619 0.0
H198 H 0.38797 0.74001 0.97098 0.0
H199 H 0.35487 0.70276 0.05224 0.0
Tb200 Tb 0.37396 0.30598 0.75785 0.0
Tb201 Tb 0.30601 0.28913 0.84882 0.0
C202 C 0.39435 0.36987 0.84155 0.0
C203 C 0.43734 0.27716 0.67435 0.0
C204 C 0.46343 0.21754 0.64639 0.0
C205 C 0.4913 0.24745 0.68289 0.0
C206 C 0.47856 0.27693 0.69647 0.0
C207 C 0.40923 0.24701 0.63805 0.0
C208 C 0.42197 0.21734 0.62463 0.0
C209 C 0.4239 0.30845 0.68968 0.0
O210 O 0.38019 0.25667 0.81549 0.0
O211 O 0.35877 0.27036 0.88945 0.0
O212 O 0.2823 0.23 0.81388 0.0
O213 O 0.30783 0.25939 0.73321 0.0
O214 O 0.29993 0.29567 0.9278 0.0
O215 O 0.24058 0.26673 0.87263 0.0
O216 O 0.27923 0.31627 0.77656 0.0
O217 O 0.34247 0.34939 0.73037 0.0
O218 O 0.41143 0.35191 0.81573 0.0
O219 O 0.35087 0.35471 0.84422 0.0
C220 C 0.38038 0.25374 0.868 0.0
O221 O 0.38165 0.30121 0.67846 0.0
O222 O 0.43923 0.32217 0.73707 0.0
C223 C 0.2808 0.22825 0.76253 0.0
C224 C 0.23685 0.30674 0.93717 0.0
C225 C 0.19924 0.35498 0.9718 0.0
C226 C 0.19067 0.3151 0.99622 0.0
C227 C 0.20924 0.29126 0.97905 0.0
C228 C 0.24633 0.34679 0.91312 0.0
C229 C 0.22776 0.37076 0.93039 0.0
C230 C 0.25603 0.28105 0.91978 0.0
C231 C 0.30099 0.34331 0.73789 0.0
H232 H 0.52301 0.24791 0.70134 0.0
H233 H 0.50104 0.29952 0.72458 0.0
H234 H 0.3773 0.24625 0.61996 0.0
H235 H 0.39975 0.19467 0.59651 0.0
H236 H 0.1694 0.30211 0.02854 0.0
H237 H 0.20191 0.26059 0.99844 0.0
H238 H 0.26786 0.35937 0.88085 0.0
H239 H 0.2349 0.40124 0.91057 0.0
Tb240 Tb 0.85765 0.27205 0.82946 0.0
Tb241 Tb 0.79439 0.31127 0.76571 0.0
C242 C 0.75882 0.24532 0.86327 0.0
C243 C 0.90996 0.20199 0.85953 0.0
C244 C 0.91838 0.13495 0.82472 0.0
C245 C 0.92128 0.13934 0.8796 0.0
C246 C 0.91704 0.17279 0.89693 0.0
C247 C 0.90505 0.19641 0.80495 0.0
C248 C 0.90917 0.1633 0.78775 0.0
C249 C 0.90525 0.2372 0.87647 0.0
O250 O 0.83134 0.23715 0.75854 0.0
O251 O 0.77034 0.25109 0.73195 0.0
O252 O 0.8488 0.328 0.71469 0.0
O253 O 0.9029 0.32835 0.78074 0.0
O254 O 0.72908 0.30655 0.74164 0.0
O255 O 0.78806 0.3609 0.71825 0.0
O256 O 0.84484 0.35947 0.81636 0.0
O257 O 0.86168 0.31726 0.88114 0.0
O258 O 0.78875 0.23232 0.8554 0.0
O259 O 0.76324 0.28192 0.84067 0.0
C260 C 0.79231 0.22865 0.73041 0.0
O261 O 0.92114 0.27145 0.84584 0.0
O262 O 0.86519 0.22844 0.88864 0.0
C263 C 0.89199 0.34252 0.73271 0.0
C264 C 0.7303 0.37122 0.74655 0.0
C265 C 0.69639 0.41008 0.80506 0.0
C266 C 0.67258 0.39262 0.75693 0.0
C267 C 0.6894 0.37302 0.72792 0.0
C268 C 0.75513 0.39063 0.793 0.0
C269 C 0.7384 0.40997 0.82193 0.0
C270 C 0.74482 0.34512 0.72214 0.0
C271 C 0.86331 0.35375 0.86402 0.0
H272 H 0.92808 0.11771 0.90888 0.0
H273 H 0.91994 0.1762 0.93926 0.0
H274 H 0.89914 0.21829 0.7753 0.0
H275 H 0.90753 0.16124 0.74524 0.0
H276 H 0.64035 0.39291 0.7428 0.0
H277 H 0.66975 0.35797 0.69227 0.0
H278 H 0.78657 0.38926 0.80838 0.0
H279 H 0.75721 0.42286 0.85907 0.0
Tb280 Tb 0.84367 0.82198 0.85692 0.0
Tb281 Tb 0.80688 0.76 0.75753 0.0
C282 C 0.8982 0.84281 0.76017 0.0
C283 C 0.83914 0.89081 0.94535 0.0
C284 C 0.78429 0.92336 0.9766 0.0
C285 C 0.82493 0.92858 1.00753 0.0
C286 C 0.85221 0.91219 0.99203 0.0
C287 C 0.79913 0.88654 0.91395 0.0
C288 C 0.77211 0.90287 0.92924 0.0
C289 C 0.86541 0.87114 0.92961 0.0
O290 O 0.81202 0.84822 0.79167 0.0
O291 O 0.76257 0.79088 0.74638 0.0
O292 O 0.7625 0.72669 0.821 0.0
O293 O 0.77219 0.78291 0.86407 0.0
O294 O 0.79969 0.75264 0.67502 0.0
O295 O 0.78156 0.69953 0.73184 0.0
O296 O 0.86395 0.75282 0.80241 0.0
O297 O 0.86221 0.77166 0.88469 0.0
O298 O 0.90154 0.83994 0.81242 0.0
O299 O 0.86028 0.82011 0.73203 0.0
C300 C 0.77557 0.82933 0.75883 0.0
O301 O 0.84753 0.83065 0.9381 0.0
O302 O 0.8786 0.88295 0.88188 0.0
C303 C 0.74959 0.74334 0.85465 0.0
C304 C 0.81881 0.69925 0.65968 0.0
C305 C 0.87481 0.67192 0.61773 0.0
C306 C 0.83576 0.67171 0.58713 0.0
C307 C 0.80797 0.68521 0.60801 0.0
C308 C 0.85816 0.70017 0.68968 0.0
C309 C 0.88562 0.68653 0.66915 0.0
C310 C 0.78959 0.71304 0.68261 0.0
C311 C 0.87401 0.75211 0.85426 0.0
H312 H 0.83478 0.94417 0.04432 0.0
H313 H 0.88289 0.9155 0.01682 0.0
H314 H 0.78836 0.86988 0.87797 0.0
H315 H 0.74119 0.89886 0.90446 0.0
H316 H 0.82691 0.66147 0.54698 0.0
H317 H 0.77806 0.68469 0.58386 0.0
H318 H 0.86762 0.71119 0.72932 0.0
H319 H 0.91517 0.6869 0.69403 0.0
Co320 Co 0.12647 0.99913 0.50992 0.0
Co321 Co 0.13758 0.99212 0.61206 0.0
Co322 Co 0.08159 0.04459 0.57022 0.0
O323 O 0.13143 0.03174 0.56405 0.0
H324 H 0.15995 0.05657 0.56562 0.0
O325 O 1.03155 0.05822 0.57678 0.0
Co326 Co 1.03891 0.0882 0.63544 0.0
Co327 Co 1.03179 0.10388 0.54035 0.0
H328 H 1.0022 0.03461 0.5722 0.0
O329 O 0.19568 0.99897 0.63063 0.0
O330 O 0.14565 0.96376 0.56306 0.0
O331 O 0.08715 0.95843 0.6532 0.0
O332 O 1.04763 0.99373 0.61865 0.0
O333 O 0.11942 0.07446 0.63379 0.0
O334 O 1.04207 0.11183 0.69295 0.0
O335 O 0.98279 0.05719 0.65559 0.0
O336 O 0.09757 0.12404 0.62162 0.0
O337 O 0.11608 0.09515 0.52062 0.0
O338 O 0.08461 0.13913 0.50183 0.0
O339 O 1.02085 0.12894 0.59173 0.0
O340 O 0.97638 0.10006 0.51709 0.0
C341 C 0.1683 1.00091 0.45881 0.0
C342 C 1.03658 0.97656 0.50148 0.0
C343 C 1.05141 0.96372 0.64851 0.0
C344 C 0.18591 0.9779 0.58875 0.0
C345 C 1.0011 0.08225 0.69421 0.0
C346 C 0.12694 0.11147 0.63973 0.0
C347 C 0.11612 0.12905 0.49776 0.0
C348 C 0.98575 0.12283 0.55723 0.0
O349 O 0.12706 0.97161 0.4584 0.0
O350 O 0.18338 0.02992 0.49232 0.0
O351 O 1.04399 1.01373 0.50731 0.0
O352 O 0.06581 0.96361 0.52049 0.0
Co353 Co 0.61514 0.99397 0.06744 0.0
Co354 Co 0.63307 1.01405 0.16079 0.0
Co355 Co 0.56408 0.06477 0.08551 0.0
O356 O 0.61809 0.04476 0.09625 0.0
H357 H 0.64585 0.0685 0.08743 0.0
O358 O 0.50894 0.08563 0.08327 0.0
Co359 Co 0.50244 0.13549 0.12355 0.0
Co360 Co 0.51745 0.13054 0.03102 0.0
H361 H 0.47956 0.06262 0.07581 0.0
O362 O 0.68818 1.00463 0.19214 0.0
O363 O 0.63129 0.96143 0.14088 0.0
O364 O 0.58244 1.00027 0.19977 0.0
O365 O 0.53734 0.02667 0.1492 0.0
O366 O 0.60154 0.11366 0.13036 0.0
O367 O 0.50194 0.18121 0.16401 0.0
O368 O 0.43928 0.13049 0.14118 0.0
O369 O 0.56588 0.15593 0.12373 0.0
O370 O 0.59717 0.10422 0.02046 0.0
O371 O 0.5759 0.15557 1.00083 0.0
O372 O 0.49679 0.16832 0.05117 0.0
O373 O 0.46931 0.12645 0.98219 0.0
C374 C 0.65922 0.97899 0.03764 0.0
C375 C 0.52254 0.97647 0.03737 0.0
C376 C 0.5457 1.00438 0.18929 0.0
C377 C 0.66975 0.96824 0.17277 0.0
C378 C 0.45876 0.16526 0.16623 0.0
C379 C 0.60144 0.14982 0.12783 0.0
C380 C 0.60308 0.14026 0.99635 0.0
C381 C 0.4718 0.15806 1.0047 0.0
O382 O 0.61622 0.95386 0.03552 0.0
O383 O 0.67414 1.0153 0.05714 0.0
O384 O 0.5249 1.01411 0.03597 0.0
O385 O 0.55001 0.96667 0.07063 0.0
Co386 Co 0.08028 0.48871 0.03583 0.0
Co387 Co 0.0951 0.53409 0.11917 0.0
Co388 Co 1.05435 0.56944 0.02375 0.0
O389 O 0.09719 0.54546 0.04511 0.0
H390 H 0.12774 0.56398 0.03715 0.0
O391 O 1.0111 0.59327 1.0021 0.0
Co392 Co 1.0119 0.63465 0.04136 0.0
Co393 Co 1.02285 0.63298 0.94838 0.0
H394 H 0.98083 0.57143 0.99505 0.0
O395 O 0.14199 0.52786 0.15995 0.0
O396 O 0.08137 0.47924 0.11439 0.0
O397 O 1.04719 0.53429 0.15422 0.0
O398 O 1.00827 0.53064 0.07542 0.0
O399 O 0.0891 0.60922 0.08052 0.0
O400 O 1.00648 0.66922 0.07903 0.0
O401 O 0.95133 0.61284 0.03969 0.0
O402 O 0.07695 0.66339 0.04852 0.0
O403 O 0.10129 0.60852 0.9725 0.0
O404 O 0.08167 0.65643 0.92769 0.0
O405 O 1.01006 0.67096 0.97488 0.0
O406 O 0.97605 0.63284 0.9027 0.0
C407 C 0.11348 0.45366 0.02795 0.0
C408 C 1.00166 0.48819 0.98567 0.0
C409 C 1.00956 0.5235 0.12617 0.0
C410 C 0.11862 0.48984 0.146 0.0
C411 C 0.96381 0.64445 0.0684 0.0
C412 C 0.10234 0.64843 0.07547 0.0
C413 C 0.11018 0.64175 0.94107 0.0
C414 C 0.98063 0.66169 0.93252 0.0
O415 O 0.06974 0.43694 0.02784 0.0
O416 O 0.13708 0.49315 0.03699 0.0
O417 O 1.01976 0.52683 0.96919 0.0
O418 O 1.01853 0.47624 0.02882 0.0
Co419 Co 0.59736 0.48418 1.0087 0.0
Co420 Co 0.62956 0.51019 0.10759 0.0
Co421 Co 0.56873 0.55214 0.05354 0.0
O422 O 0.61505 0.53541 0.0424 0.0
H423 H 0.64182 0.55831 0.02955 0.0
O424 O 0.52162 0.56733 0.06505 0.0
Co425 Co 0.52868 0.58623 0.13328 0.0
Co426 Co 0.52228 0.61623 0.0407 0.0
H427 H 0.49177 0.54515 0.05682 0.0
O428 O 0.6221 0.4573 0.08105 0.0
O429 O 0.6198 0.4588 0.07801 0.0
O430 O 0.58466 0.4967 0.16416 0.0
O431 O 0.53415 0.50301 0.10287 0.0
O432 O 0.61183 0.58211 0.11416 0.0
O433 O 0.53012 0.59946 0.1979 0.0
O434 O 0.4732 0.54943 0.15099 0.0
O435 O 0.58668 0.62726 0.12337 0.0
O436 O 0.60021 0.60234 1.00273 0.0
O437 O 0.57471 0.65095 1.00018 0.0
O438 O 0.50879 0.62853 0.10266 0.0
O439 O 0.46457 0.61148 0.02446 0.0
C440 C 0.62547 0.46328 0.96104 0.0
C441 C 0.51597 0.48095 0.99615 0.0
C442 C 0.54412 0.49007 0.14925 0.0
C443 C 0.63995 0.48672 0.11188 0.0
C444 C 0.48964 0.56875 0.19486 0.0
C445 C 0.61888 0.61751 0.1268 0.0
C446 C 0.60195 0.63835 0.9865 0.0
C447 C 0.46993 0.61871 0.07468 0.0
O448 O 0.58496 0.44003 0.97481 0.0
O449 O 0.6501 0.499 0.98213 0.0
O450 O 0.52876 0.52015 0.99366 0.0
O451 O 0.53826 0.46442 0.02713 0.0
Co452 Co 0.18939 0.49106 0.5691 0.0
Co453 Co 0.16239 0.49247 0.4713 0.0
Co454 Co 0.10193 0.53651 0.52785 0.0
O455 O 0.12923 0.49064 0.53039 0.0
H456 H 0.105 0.46286 0.53474 0.0
O457 O 0.07585 0.58466 0.51786 0.0
Co458 Co 1.01893 0.59444 0.46797 0.0
Co459 Co 1.03645 0.5749 0.56953 0.0
H460 H 0.10122 0.6117 0.52251 0.0
O461 O 0.16064 0.44603 0.43752 0.0
O462 O 0.21642 0.48343 0.4968 0.0
O463 O 0.17552 0.54518 0.42976 0.0
O464 O 0.13962 0.57227 0.47023 0.0
O465 O 1.05098 0.5064 0.4743 0.0
O466 O 0.96689 0.60453 0.42476 0.0
O467 O 1.02299 0.65519 0.46267 0.0
O468 O 1.0001 0.53509 0.45779 0.0
O469 O 1.05986 0.49552 0.5869 0.0
O470 O 1.01476 0.52149 0.60716 0.0
O471 O 0.98686 0.58065 0.53145 0.0
O472 O 1.03342 0.61832 0.59861 0.0
C473 C 0.21475 0.44703 0.61023 0.0
C474 C 0.19858 0.57738 0.58993 0.0
C475 C 0.16458 0.57426 0.4351 0.0
C476 C 0.20127 0.45447 0.4599 0.0
C477 C 0.98364 0.64395 0.43323 0.0
C478 C 1.01191 0.50527 0.45761 0.0
C479 C 1.02573 0.49174 0.61067 0.0
C480 C 0.99645 0.60783 0.56641 0.0
O481 O 0.23903 0.4873 0.60834 0.0
O482 O 0.17354 0.43338 0.58544 0.0
O483 O 0.15564 0.56903 0.58264 0.0
O484 O 0.21438 0.55509 0.56995 0.0
Co485 Co 0.68382 0.98654 0.61712 0.0
Co486 Co 0.69773 1.0165 0.52733 0.0
Co487 Co 0.61152 0.0266 0.54961 0.0
O488 O 0.64372 0.9909 0.55365 0.0
H489 H 0.62481 0.96442 0.53851 0.0
O490 O 0.58356 0.0638 0.54923 0.0
Co491 Co 0.5297 0.05835 0.51299 0.0
Co492 Co 0.55885 0.05909 0.61108 0.0
H493 H 0.60598 0.09231 0.54401 0.0
O494 O 0.70928 0.98531 0.48753 0.0
O495 O 0.73479 1.00004 0.57383 0.0
O496 O 0.71684 0.07305 0.5031 0.0
O497 O 0.64634 0.06753 0.48874 0.0
O498 O 0.56029 0.98925 0.49704 0.0
O499 O 0.47999 0.05859 0.47684 0.0
O500 O 0.54854 0.11189 0.4964 0.0
O501 O 0.50549 0.99954 0.52481 0.0
O502 O 0.57734 0.98491 0.60811 0.0
O503 O 0.54409 1.00877 0.65623 0.0
O504 O 0.50847 0.06534 0.58135 0.0
O505 O 0.56762 0.10679 0.63702 0.0
C506 C 0.69522 0.93864 0.65847 0.0
C507 C 0.69552 0.07233 0.62396 0.0
C508 C 0.68878 0.08654 0.48094 0.0
C509 C 0.73432 0.98299 0.53106 0.0
C510 C 0.50673 0.0984 0.47599 0.0
C511 C 0.51769 0.97907 0.49819 0.0
C512 C 0.55365 0.98022 0.6461 0.0
C513 C 0.52874 0.09844 0.60943 0.0
O514 O 0.71585 0.97653 0.67357 0.0
O515 O 0.66609 0.9307 0.61595 0.0
O516 O 0.65662 0.06532 0.60139 0.0
O517 O 0.70989 0.04478 0.62833 0.0
C518 C 0.21282 0.16817 0.4079 0.0
C519 C 0.2319 0.21184 0.40938 0.0
C520 C 0.17569 0.14162 0.43684 0.0
C521 C 0.15508 0.15771 0.46676 0.0
H522 H 0.22719 0.15442 0.38508 0.0
H523 H 0.16268 0.10819 0.43525 0.0
S524 S 0.19147 0.26998 0.48205 0.0
N525 N 0.22718 0.26989 0.44319 0.0
N526 N 0.15685 0.22046 0.49534 0.0
C527 C 0.17346 0.20137 0.46759 0.0
C528 C 0.21192 0.22823 0.43952 0.0
C529 C 0.98812 0.2205 0.50186 0.0
C530 C 0.9459 0.20466 0.47129 0.0
C531 C 0.99846 0.19505 0.54217 0.0
C532 C 0.96724 0.15313 0.5508 0.0
H533 H 1.01522 0.25014 0.48997 0.0
H534 H 1.03337 0.20587 0.55921 0.0
S535 S 0.84651 0.10452 0.49882 0.0
N536 N 0.86797 0.15094 0.46623 0.0
N537 N 0.88867 0.10202 0.54003 0.0
C538 C 0.92231 0.14055 0.52918 0.0
C539 C 0.91137 0.16668 0.48914 0.0
C540 C 0.96712 0.89895 0.39881 0.0
C541 C 0.92476 0.89946 0.39433 0.0
C542 C 1.00272 0.92354 0.43431 0.0
C543 C 0.99764 0.9504 0.46564 0.0
H544 H 0.9725 0.8785 0.37568 0.0
H545 H 1.03464 0.92178 0.43669 0.0
S546 S 0.89371 0.96418 0.46735 0.0
N547 N 0.8793 0.92869 0.42383 0.0
N548 N 0.94725 0.97676 0.48922 0.0
C549 C 0.95564 0.95183 0.46088 0.0
C550 C 0.91886 0.92578 0.42564 0.0
C551 C 0.25196 0.02986 0.35694 0.0
C552 C 0.24825 0.9905 0.34892 0.0
C553 C 0.22782 0.03387 0.39528 0.0
C554 C 0.19845 0.99835 0.42442 0.0
H555 H 0.27215 0.05708 0.33245 0.0
H556 H 0.23012 0.06432 0.39999 0.0
S557 S 0.17908 0.88904 0.41856 0.0
N558 N 0.21605 0.91627 0.37532 0.0
N559 N 0.1686 0.92337 0.4441 0.0
C560 C 0.19585 0.95929 0.41757 0.0
C561 C 0.22137 0.95549 0.38053 0.0
C562 C 0.30052 0.99669 0.55609 0.0
C563 C 0.29556 0.95556 0.55791 0.0
C564 C 0.26388 1.00411 0.56345 0.0
C565 C 0.2211 0.97077 0.56977 0.0
H566 H 0.33399 0.02268 0.55738 0.0
H567 H 0.26969 0.03579 0.56775 0.0
S568 S 0.18689 0.85879 0.55973 0.0
N569 N 0.24161 0.88196 0.55312 0.0
N570 N 0.17319 0.89667 0.56601 0.0
C571 C 0.21394 0.93046 0.56216 0.0
C572 C 0.25109 0.92272 0.55517 0.0
C573 C 0.21812 0.21075 0.69207 0.0
C574 C 0.24135 0.19679 0.73421 0.0
C575 C 0.18174 0.18262 0.66123 0.0
C576 C 0.16754 0.13949 0.67113 0.0
H577 H 0.22807 0.24381 0.68295 0.0
H578 H 0.16464 0.19486 0.6293 0.0
S579 S 0.21828 0.0874 0.77637 0.0
N580 N 0.24877 0.13776 0.78446 0.0
N581 N 0.17976 0.08394 0.72564 0.0
C582 C 0.19082 0.12499 0.71289 0.0
C583 C 0.22783 0.15394 0.74493 0.0
C584 C 0.90805 0.08494 0.75856 0.0
C585 C 0.93234 0.1062 0.80439 0.0
C586 C 0.92907 0.07245 0.72509 0.0
C587 C 0.97482 0.08089 0.73681 0.0
H588 H 0.87423 0.0819 0.74564 0.0
H589 H 0.91088 0.06023 0.68741 0.0
S590 S 1.04906 0.12489 0.85904 0.0
N591 N 1.0015 0.12736 0.86486 0.0
N592 N 1.04053 0.10295 0.8026 0.0
C593 C 0.99714 0.09633 0.78629 0.0
C594 C 0.97589 0.10912 0.82019 0.0
C595 C 0.98128 0.87969 0.74946 0.0
C596 C 0.93689 0.87405 0.73207 0.0
C597 C 1.01811 0.90853 0.72214 0.0
C598 C 1.01203 0.93354 0.67722 0.0
H599 H 0.98749 0.86113 0.78381 0.0
H600 H 1.05163 0.91142 0.73662 0.0
S601 S 0.90238 0.93262 0.61859 0.0
N602 N 0.88885 0.8967 0.66875 0.0
N603 N 0.95768 0.95141 0.61815 0.0
C604 C 0.96768 0.92872 0.6604 0.0
C605 C 0.93023 0.89884 0.68758 0.0
C606 C 0.36896 0.20131 0.21571 0.0
C607 C 0.39307 0.23191 0.2549 0.0
C608 C 0.38854 0.17993 0.18906 0.0
C609 C 0.43523 0.18715 0.19713 0.0
H610 H 0.33345 0.19333 0.20494 0.0
H611 H 0.36628 0.15766 0.16056 0.0
S612 S 0.51653 0.26416 0.29402 0.0
N613 N 0.46887 0.26683 0.29887 0.0
N614 N 0.50459 0.22966 0.24994 0.0
C615 C 0.45978 0.21788 0.23597 0.0
C616 C 0.43957 0.23895 0.26388 0.0
C617 C 0.93018 0.41346 0.17153 0.0
C618 C 0.89988 0.41818 0.20064 0.0
C619 C 0.96459 0.44782 0.14706 0.0
C620 C 0.96995 0.48861 0.14925 0.0
H621 H 0.92855 0.38296 0.16897 0.0
H622 H 0.98808 0.44245 0.1273 0.0
S623 S 0.9001 0.51921 0.21887 0.0
N624 N 0.87792 0.46787 0.22975 0.0
N625 N 0.94242 0.53239 0.18237 0.0
C626 C 0.93993 0.49425 0.17737 0.0
C627 C 0.90492 0.45909 0.20322 0.0
C628 C 0.75751 0.91387 0.19792 0.0
C629 C 0.74446 0.88219 0.24151 0.0
C630 C 0.73336 0.93911 0.17569 0.0
C631 C 0.69208 0.93539 0.1929 0.0
H632 H 0.78795 0.92009 0.18049 0.0
H633 H 0.74806 0.96264 0.14406 0.0
S634 S 0.64044 0.85878 0.30648 0.0
N635 N 0.68475 0.85069 0.30068 0.0
N636 N 0.64117 0.89574 0.26023 0.0
C637 C 0.67852 0.90386 0.23642 0.0
C638 C 0.70344 0.87842 0.25957 0.0
C639 C 0.20909 0.68471 0.17455 0.0
C640 C 0.22862 0.72855 0.16652 0.0
C641 C 0.16903 0.65923 0.14429 0.0
C642 C 0.14639 0.67635 0.10469 0.0
H643 H 0.224 0.66982 0.20563 0.0
H644 H 0.15512 0.62578 0.15312 0.0
S645 S 0.18594 0.78908 0.06361 0.0
N646 N 0.22385 0.78772 0.11262 0.0
N647 N 0.14892 0.74004 0.05639 0.0
C648 C 0.16654 0.72003 0.09478 0.0
C649 C 0.20743 0.74599 0.12543 0.0
C650 C 0.4441 0.92047 0.90987 0.0
C651 C 0.43311 0.87726 0.92115 0.0
C652 C 0.47079 0.95184 0.94722 0.0
C653 C 0.48897 0.94252 0.99865 0.0
H654 H 0.43234 0.93049 0.87123 0.0
H655 H 0.47828 0.98402 0.93482 0.0
S656 S 0.46965 0.83451 0.05063 0.0
N657 N 0.44259 0.82785 0.99018 0.0
N658 N 0.49158 0.885 0.05825 0.0
C659 C 0.47756 0.89934 1.01053 0.0
C660 C 0.45027 0.86757 0.97284 0.0
C661 C 0.2026 0.42225 0.99651 0.0
C662 C 0.17737 0.37943 0.98832 0.0
C663 C 0.18209 0.44592 1.01048 0.0
C664 C 0.13557 0.42767 0.01711 0.0
H665 H 0.2385 0.43764 0.99202 0.0
H666 H 0.20285 0.47884 1.01559 0.0
S667 S 1.05452 0.3164 1.00082 0.0
N668 N 0.10324 0.31995 0.98731 0.0
N669 N 0.0652 0.3635 1.01568 0.0
C670 C 0.11022 0.38462 1.01007 0.0
C671 C 0.13096 0.36078 0.99519 0.0
C672 C 0.71475 0.18028 0.9258 0.0
C673 C 0.71916 0.21837 0.89722 0.0
C674 C 0.67776 0.15511 0.95695 0.0
C675 C 0.64252 0.16623 0.96143 0.0
H676 H 0.74035 0.1697 0.92436 0.0
H677 H 0.67706 0.12674 0.97803 0.0
S678 S 0.63643 0.26239 0.89375 0.0
N679 N 0.68343 0.26503 0.8758 0.0
N680 N 0.61541 0.21902 0.93244 0.0
C681 C 0.64658 0.20421 0.93262 0.0
C682 C 0.68413 0.2297 0.9013 0.0
C683 C 0.89298 0.69286 0.85489 0.0
C684 C 0.90037 0.7292 0.87779 0.0
C685 C 0.91877 0.67128 0.87351 0.0
C686 C 0.95349 0.68531 0.9156 0.0
H687 H 0.86682 0.68079 0.82227 0.0
H688 H 0.91137 0.64337 0.85428 0.0
S689 S 0.98648 0.77938 0.98913 0.0
N690 N 0.94431 0.77844 0.94508 0.0
N691 N 0.99379 0.73826 0.97982 0.0
C692 C 0.96109 0.72163 0.93927 0.0
C693 C 0.93422 0.7434 0.92054 0.0
C694 C 0.2016 0.44764 0.14267 0.0
C695 C 0.17487 0.40439 0.1502 0.0
C696 C 0.18406 0.47563 0.14631 0.0
C697 C 0.1388 0.46107 0.15571 0.0
H698 H 0.23611 0.46001 0.1328 0.0
H699 H 0.20515 0.50862 0.13814 0.0
S700 S 1.0557 0.3518 0.18325 0.0
N701 N 0.10211 0.34876 0.17325 0.0
N702 N 0.06808 0.40193 0.17561 0.0
C703 C 0.11184 0.41827 0.16452 0.0
C704 C 0.13006 0.38969 0.16249 0.0
C705 C 0.20822 0.72982 0.87379 0.0
C706 C 0.2434 0.71754 0.88378 0.0
C707 C 0.16568 0.70482 0.89193 0.0
C708 C 0.15592 0.66619 0.92134 0.0
H709 H 0.21316 0.75881 0.85089 0.0
H710 H 0.14019 0.71628 0.88264 0.0
S711 S 0.23672 0.61989 0.96025 0.0
N712 N 0.26591 0.66415 0.92633 0.0
N713 N 0.18596 0.61743 0.96071 0.0
C714 C 0.19098 0.65367 0.93244 0.0
C715 C 0.23456 0.6792 0.91368 0.0
C716 C 0.40655 0.22654 0.96011 0.0
C717 C 0.405 0.23056 0.90346 0.0
C718 C 0.4291 0.20473 0.99307 0.0
C719 C 0.45109 0.18522 0.97133 0.0
H720 H 0.38987 0.24017 0.97943 0.0
H721 H 0.42821 0.20225 0.03586 0.0
S722 S 0.46117 0.18899 0.82624 0.0
N723 N 0.43092 0.21459 0.8284 0.0
N724 N 0.4719 0.17425 0.88875 0.0
C725 C 0.45065 0.18994 0.91495 0.0
C726 C 0.42819 0.21226 0.88168 0.0
C727 C 0.91668 0.42988 0.87156 0.0
C728 C 0.8922 0.38996 0.89635 0.0
C729 C 0.95061 0.46249 0.9009 0.0
C730 C 0.96119 0.45628 0.95604 0.0
H731 H 0.91141 0.43536 0.82875 0.0
H732 H 0.97011 0.492 0.87979 0.0
S733 S 0.90111 0.35957 0.04098 0.0
N734 N 0.87691 0.34778 0.98005 0.0
N735 N 0.93994 0.40835 0.03499 0.0
C736 C 0.93451 0.41729 0.98161 0.0
C737 C 0.90024 0.38434 0.95185 0.0
C738 C 0.76748 0.97886 1.00507 0.0
C739 C 0.75298 0.93709 0.99447 0.0
C740 C 0.73695 0.99242 0.01867 0.0
C741 C 0.69098 0.9646 0.02213 0.0
H742 H 0.80239 1.00131 1.00181 0.0
H743 H 0.74944 0.02494 0.02615 0.0
S744 S 0.63779 0.85082 1.00354 0.0
N745 N 0.69101 0.86744 0.99226 0.0
N746 N 0.63353 0.89247 0.01725 0.0
C747 C 0.67658 0.92243 1.01296 0.0
C748 C 0.70762 0.90879 0.99932 0.0
C749 C 0.88677 0.69486 0.04525 0.0
C750 C 0.89976 0.71667 0.09157 0.0
C751 C 0.90188 0.66485 0.04073 0.0
C752 C 0.9309 0.65716 0.08199 0.0
H753 H 0.86857 0.70365 1.01095 0.0
H754 H 0.89537 0.6515 1.00272 0.0
S755 S 0.96194 0.69678 0.21664 0.0
N756 N 0.93287 0.72104 0.18382 0.0
N757 N 0.96291 0.66598 0.17426 0.0
C758 C 0.93818 0.67424 0.13095 0.0
C759 C 0.92227 0.70399 0.13592 0.0
C760 C 0.42381 0.93829 0.20697 0.0
C761 C 0.42422 0.90023 0.22644 0.0
C762 C 0.46419 0.97406 0.20112 0.0
C763 C 0.50617 0.97276 0.21479 0.0
H764 H 0.39207 0.94014 0.19489 0.0
H765 H 0.46234 1.00218 0.18261 0.0
S766 S 0.52411 0.88232 0.28136 0.0
N767 N 0.46873 0.86435 0.26865 0.0
N768 N 0.54518 0.9318 0.25896 0.0
C769 C 0.50668 0.93569 0.24008 0.0
C770 C 0.4655 0.89915 0.24501 0.0
C771 C 0.68335 0.25249 0.18239 0.0
C772 C 0.7254 0.2539 0.17689 0.0
C773 C 0.6434 0.21931 0.16452 0.0
C774 C 0.64413 0.1865 0.14031 0.0
H775 H 0.68093 0.27518 0.20448 0.0
H776 H 0.61181 0.21834 0.17268 0.0
S777 S 0.74534 0.18194 0.10284 0.0
N778 N 0.76565 0.22457 0.13563 0.0
N779 N 0.68977 0.16164 0.10211 0.0
C780 C 0.68575 0.18989 0.12918 0.0
C781 C 0.72664 0.22394 0.14718 0.0
C782 C 0.69632 0.67377 0.89486 0.0
C783 C 0.70957 0.71683 0.88474 0.0
C784 C 0.66139 0.64891 0.92717 0.0
C785 C 0.63758 0.66578 0.95041 0.0
H786 H 0.71393 0.65925 0.87899 0.0
H787 H 0.65329 0.61608 0.9342 0.0
S788 S 0.65685 0.77646 0.93267 0.0
N789 N 0.69454 0.77502 0.89828 0.0
N790 N 0.62883 0.72841 0.95837 0.0
C791 C 0.64958 0.70863 0.93912 0.0
C792 C 0.68552 0.73405 0.9066 0.0
C793 C 0.39323 0.65556 0.11858 0.0
C794 C 0.35367 0.62675 0.09048 0.0
C795 C 0.43366 0.65213 0.11816 0.0
C796 C 0.43168 0.6162 0.09943 0.0
H797 H 0.39586 0.68548 0.12659 0.0
H798 H 0.4658 0.67895 0.12624 0.0
S799 S 0.32799 0.51701 0.08126 0.0
N800 N 0.30946 0.55169 0.08816 0.0
N801 N 0.38389 0.5425 0.08581 0.0
C802 C 0.38951 0.58097 0.09516 0.0
C803 C 0.34952 0.58586 0.09675 0.0
C804 C 0.40937 0.40606 0.92387 0.0
C805 C 0.42448 0.40317 0.87617 0.0
C806 C 0.43919 0.43244 0.96233 0.0
C807 C 0.48448 0.45717 0.95353 0.0
H808 H 0.37491 0.38625 0.93294 0.0
H809 H 0.42713 0.43264 0.99967 0.0
S810 S 0.53967 0.46515 0.83335 0.0
N811 N 0.48702 0.4295 0.82099 0.0
N812 N 0.54265 0.48078 0.89283 0.0
C813 C 0.49952 0.45668 0.90501 0.0
C814 C 0.4695 0.42915 0.86628 0.0
C815 C 0.70217 0.46284 0.86456 0.0
C816 C 0.67614 0.42475 0.84093 0.0
C817 C 0.68566 0.475 0.90359 0.0
C818 C 0.64258 0.44939 0.92054 0.0
H819 H 0.73582 0.48318 0.85321 0.0
H820 H 0.70699 0.5046 0.92068 0.0
S821 S 0.56108 0.34627 0.87058 0.0
N822 N 0.60546 0.36132 0.83711 0.0
N823 N 0.57379 0.38416 0.90967 0.0
C824 C 0.61591 0.41135 0.89652 0.0
C825 C 0.63281 0.39908 0.85682 0.0
C826 C 0.71592 0.45197 0.2116 0.0
C827 C 0.73216 0.48289 0.24857 0.0
C828 C 0.68727 0.45337 0.16622 0.0
C829 C 0.67448 0.48602 0.15657 0.0
H830 H 0.7233 0.42521 0.21958 0.0
H831 H 0.6739 0.42812 0.13992 0.0
S832 S 0.71329 0.57713 0.23772 0.0
N833 N 0.7369 0.54822 0.27088 0.0
N834 N 0.68428 0.55233 0.18412 0.0
C835 C 0.69322 0.51857 0.19138 0.0
C836 C 0.72176 0.51666 0.23797 0.0
C837 C 0.73449 0.70073 0.16804 0.0
C838 C 0.73272 0.70074 0.22309 0.0
C839 C 0.69831 0.67182 0.1368 0.0
C840 C 0.65985 0.64197 0.16009 0.0
H841 H 0.76264 0.72462 0.14841 0.0
H842 H 0.69941 0.67414 0.09403 0.0
S843 S 0.64187 0.62361 0.30321 0.0
N844 N 0.69166 0.66449 0.30028 0.0
N845 N 0.62383 0.61035 0.24122 0.0
C846 C 0.65899 0.63958 0.21532 0.0
C847 C 0.69555 0.66888 0.24705 0.0
C848 C 0.38654 0.5532 0.25426 0.0
C849 C 0.40671 0.58168 0.29446 0.0
C850 C 0.41321 0.54328 0.22594 0.0
C851 C 0.46049 0.56144 0.23745 0.0
H852 H 0.35115 0.54312 0.23984 0.0
H853 H 0.39731 0.5254 0.19131 0.0
S854 S 0.52616 0.62104 0.35452 0.0
N855 N 0.47438 0.61593 0.35551 0.0
N856 N 0.5237 0.59596 0.30319 0.0
C857 C 0.47913 0.58171 0.28494 0.0
C858 C 0.45225 0.59212 0.31352 0.0
C859 C 0.42548 0.41686 0.18849 0.0
C860 C 0.4321 0.40952 0.24409 0.0
C861 C 0.46167 0.44344 0.15874 0.0
C862 C 0.50648 0.4634 0.18294 0.0
H863 H 0.39207 0.40147 0.16748 0.0
H864 H 0.45447 0.4475 0.11599 0.0
S865 S 0.54228 0.45651 0.32765 0.0
N866 N 0.48722 0.42618 0.32254 0.0
N867 N 0.55495 0.47539 0.26641 0.0
C868 C 0.51354 0.45712 0.23861 0.0
C869 C 0.47652 0.43051 0.26916 0.0
C870 C 0.95206 0.67999 0.60564 0.0
C871 C 0.90468 0.65702 0.5973 0.0
C872 C 0.98132 0.66446 0.59365 0.0
C873 C 0.9646 0.62545 0.57216 0.0
H874 H 0.96676 0.70993 0.62289 0.0
H875 H 1.01744 0.6829 0.60229 0.0
S876 S 0.84351 0.55321 0.54106 0.0
N877 N 0.84244 0.59335 0.56502 0.0
N878 N 0.89756 0.56466 0.54129 0.0
C879 C 0.91741 0.6029 0.56122 0.0
C880 C 0.88745 0.61857 0.574 0.0
C881 C 0.49961 0.89558 0.7544 0.0
C882 C 0.47259 0.86052 0.7249 0.0
C883 C 0.52771 0.93399 0.72916 0.0
C884 C 0.53087 0.93827 0.67386 0.0
H885 H 0.4964 0.89424 0.79653 0.0
H886 H 0.54577 0.96089 0.7527 0.0
S887 S 0.4694 0.85497 0.57961 0.0
N888 N 0.45189 0.83213 0.63803 0.0
N889 N 0.50648 0.90336 0.59111 0.0
C890 C 0.50627 0.90265 0.64467 0.0
C891 C 0.47663 0.86402 0.67005 0.0
C892 C 0.30359 0.40863 0.67984 0.0
C893 C 0.27806 0.36821 0.70311 0.0
C894 C 0.2829 0.43305 0.6501 0.0
C895 C 0.23522 0.41843 0.64025 0.0
H896 H 0.3402 0.42217 0.68576 0.0
H897 H 0.30487 0.46405 0.63458 0.0
S898 S 0.15198 0.31374 0.68913 0.0
N899 N 0.20142 0.31447 0.71229 0.0
N900 N 0.16329 0.35926 0.65571 0.0
C901 C 0.20924 0.37757 0.66194 0.0
C902 C 0.23031 0.353 0.69333 0.0
C903 C 0.78129 0.15664 0.71441 0.0
C904 C 0.77091 0.19076 0.69914 0.0
C905 C 0.758 0.11886 0.68905 0.0
C906 C 0.72342 0.11368 0.64728 0.0
H907 H 0.80647 0.1585 0.74756 0.0
H908 H 0.76616 0.09316 0.7035 0.0
S909 S 0.68863 0.19584 0.58634 0.0
N910 N 0.72709 0.2182 0.63578 0.0
N911 N 0.68416 0.14815 0.5877 0.0
C912 C 0.71467 0.14848 0.62975 0.0
C913 C 0.7381 0.18668 0.65575 0.0
C914 C 0.96493 0.40607 0.38778 0.0
C915 C 0.91968 0.3858 0.39971 0.0
C916 C 0.99404 0.44533 0.40552 0.0
C917 C 0.97896 0.46602 0.43548 0.0
H918 H 0.97785 0.39204 0.36337 0.0
H919 H 1.02863 0.45978 0.39527 0.0
S920 S 0.86538 0.42536 0.48208 0.0
N921 N 0.86249 0.38807 0.44776 0.0
N922 N 0.91727 0.463 0.4793 0.0
C923 C 0.93438 0.44598 0.44904 0.0
C924 C 0.90481 0.40543 0.43192 0.0
C925 C 0.78525 0.90945 0.58622 0.0
C926 C 0.78366 0.89105 0.54012 0.0
C927 C 0.77459 0.94332 0.58246 0.0
C928 C 0.75939 0.95768 0.53297 0.0
H929 H 0.79267 0.89647 0.62516 0.0
H930 H 0.77544 0.95643 0.61881 0.0
S931 S 0.7593 0.92473 0.40014 0.0
N932 N 0.77418 0.89371 0.44336 0.0
N933 N 0.75235 0.95609 0.4363 0.0
C934 C 0.76248 0.94214 0.48638 0.0
C935 C 0.7746 0.90873 0.4901 0.0
C936 C 0.19646 0.68714 0.38728 0.0
C937 C 0.23329 0.69684 0.35887 0.0
C938 C 0.17262 0.64655 0.40937 0.0
C939 C 0.18471 0.61441 0.40316 0.0
H940 H 0.1875 0.71137 0.39473 0.0
H941 H 0.14567 0.64089 0.43321 0.0
S942 S 0.27287 0.62313 0.32167 0.0
N943 N 0.27708 0.67084 0.31885 0.0
N944 N 0.23156 0.59428 0.35911 0.0
C945 C 0.21905 0.6233 0.3706 0.0
C946 C 0.24365 0.66468 0.34888 0.0
C947 C 0.4359 0.14987 0.49489 0.0
C948 C 0.46447 0.19203 0.48204 0.0
C949 C 0.44716 0.11846 0.48598 0.0
C950 C 0.48799 0.12841 0.46545 0.0
H951 H 0.40556 0.14109 0.51413 0.0
H952 H 0.42581 0.08671 0.49992 0.0
S953 S 0.57114 0.23272 0.41768 0.0
N954 N 0.53202 0.24126 0.44006 0.0
N955 N 0.55472 0.18192 0.42715 0.0
C956 C 0.51547 0.1699 0.4493 0.0
C957 C 0.50351 0.20187 0.45705 0.0
C958 C 0.76511 0.89425 0.75128 0.0
C959 C 0.75053 0.85389 0.73469 0.0
C960 C 0.74518 0.92002 0.72815 0.0
C961 C 0.70975 0.9071 0.68675 0.0
H962 H 0.79298 0.9068 0.78197 0.0
H963 H 0.75907 0.95108 0.74201 0.0
S964 S 0.65437 0.80234 0.63311 0.0
N965 N 0.69507 0.80051 0.67765 0.0
N966 N 0.65782 0.84961 0.63334 0.0
C967 C 0.69307 0.8661 0.67127 0.0
C968 C 0.71338 0.83942 0.69534 0.0
C969 C 0.72017 0.19548 0.412 0.0
C970 C 0.75528 0.20095 0.38185 0.0
C971 C 0.69662 0.15763 0.44196 0.0
C972 C 0.70712 0.12378 0.44248 0.0
H973 H 0.71171 0.22106 0.41374 0.0
H974 H 0.67142 0.15548 0.46641 0.0
S975 S 0.78985 0.11931 0.36234 0.0
N976 N 0.79515 0.16737 0.34959 0.0
N977 N 0.75094 0.09658 0.40465 0.0
C978 C 0.74027 0.12818 0.40999 0.0
C979 C 0.76436 0.16661 0.38009 0.0
C980 C 0.95306 0.74121 0.36736 0.0
C981 C 0.90456 0.72683 0.36416 0.0
C982 C 0.97776 0.71633 0.38998 0.0
C983 C 0.95708 0.67323 0.41058 0.0
H984 H 0.97307 0.77305 0.35277 0.0
H985 H 1.01422 0.73141 0.39013 0.0
S986 S 0.83098 0.61695 0.41201 0.0
N987 N 0.8381 0.66378 0.38624 0.0
N988 N 0.88192 0.61849 0.42352 0.0
C989 C 0.90861 0.65837 0.40663 0.0
C990 C 0.8837 0.68409 0.38545 0.0
C991 C 0.45588 0.88453 0.41183 0.0
C992 C 0.4113 0.88102 0.40047 0.0
C993 C 0.48985 0.9157 0.44344 0.0
C994 C 0.48103 0.94491 0.46576 0.0
H995 H 0.46506 0.86332 0.39549 0.0
H996 H 0.52335 0.91693 0.45028 0.0
S997 S 0.37064 0.951 0.44672 0.0
N998 N 0.36106 0.91073 0.41365 0.0
N999 N 0.42374 0.96839 0.47285 0.0
C1000 C 0.43644 0.94153 0.45503 0.0
C1001 C 0.40203 0.90998 0.42261 0.0
C1002 C 0.29044 0.40742 0.43676 0.0
C1003 C 0.27349 0.38529 0.38842 0.0
C1004 C 0.26931 0.42958 0.45926 0.0
C1005 C 0.22833 0.43225 0.43621 0.0
H1006 H 0.32101 0.40753 0.45852 0.0
H1007 H 0.28546 0.44443 0.4961 0.0
S1008 S 0.16851 0.38202 0.30818 0.0
N1009 N 0.21158 0.37 0.31869 0.0
N1010 N 0.17339 0.40933 0.35833 0.0
C1011 C 0.21146 0.41043 0.38761 0.0
C1012 C 0.23302 0.38812 0.3649 0.0
C1013 C 0.44932 0.14392 0.63247 0.0
C1014 C 0.47823 0.18716 0.63089 0.0
C1015 C 0.4646 0.11486 0.62245 0.0
C1016 C 0.50921 0.12821 0.61029 0.0
H1017 H 0.41524 0.13237 0.64346 0.0
H1018 H 0.44209 0.08184 0.62646 0.0
S1019 S 0.59577 0.23784 0.59275 0.0
N1020 N 0.55197 0.2416 0.61055 0.0
N1021 N 0.58016 0.18742 0.59128 0.0
C1022 C 0.53733 0.17132 0.60551 0.0
C1023 C 0.52203 0.20067 0.61594 0.0
C1024 C 0.97363 0.38758 0.70277 0.0
C1025 C 0.92715 0.37887 0.70036 0.0
C1026 C 1.00548 0.42238 0.67262 0.0
C1027 C 0.99285 0.45104 0.63938 0.0
H1028 H 0.9856 0.36732 0.72815 0.0
H1029 H 1.04044 0.4275 0.67677 0.0
S1030 S 0.87602 0.44388 0.62034 0.0
N1031 N 0.87153 0.40335 0.66168 0.0
N1032 N 0.92927 0.467 0.60714 0.0
C1033 C 0.94642 0.44224 0.637 0.0
C1034 C 0.91441 0.40698 0.66669 0.0
C1035 C 0.24226 0.67612 0.67334 0.0
C1036 C 0.28723 0.68476 0.69495 0.0
C1037 C 0.21509 0.64255 0.63979 0.0
C1038 C 0.23058 0.61481 0.62447 0.0
H1039 H 0.22731 0.6954 0.68285 0.0
H1040 H 0.18103 0.63832 0.62581 0.0
S1041 S 0.34591 0.62258 0.6688 0.0
N1042 N 0.34566 0.66136 0.69719 0.0
N1043 N 0.29569 0.59968 0.63493 0.0
C1044 C 0.27573 0.62328 0.64532 0.0
C1045 C 0.30341 0.65745 0.67995 0.0
loop_
_geom_bond_atom_site_label_1
_geom_bond_atom_site_label_2
_geom_bond_distance
_geom_bond_site_symmetry_2
_ccdc_geom_bond_type
Tb0 C9 2.764 . S
Tb0 O10 2.325 . S
Tb0 O13 2.303 . S
Tb0 O17 2.322 . S
Tb0 O18 2.349 . S
Tb0 O21 2.415 . S
Tb0 O22 2.399 . S
Tb1 O11 2.322 . S
Tb1 O12 2.349 . S
Tb1 O14 2.415 . S
Tb1 O15 2.399 . S
Tb1 O16 2.325 . S
Tb1 O19 2.303 . S
Tb1 C30 2.764 . S
C2 O18 1.261 . S
C2 O19 1.257 . S
C3 C6 1.358 . S
C3 C7 1.332 . S
C3 C9 1.504 . S
C4 C5 1.373 . S
C4 C8 1.308 . S
C5 C4 1.373 . S
C5 C6 1.429 . S
C5 H32 0.932 . S
C6 C3 1.358 . S
C6 C5 1.429 . S
C6 H33 0.930 . S
C7 C3 1.332 . S
C7 C8 1.394 . S
C7 H34 0.932 . S
C8 C4 1.308 . S
C8 C7 1.394 . S
C8 H35 0.929 . S
C9 Tb0 2.764 . S
C9 C3 1.504 . S
C9 O21 1.239 . S
C9 O22 1.263 . S
O10 Tb0 2.325 . S
O10 C20 1.236 . S
O11 Tb1 2.322 . S
O11 C20 1.257 . S
O12 Tb1 2.349 . S
O12 C23 1.261 . S
O13 Tb0 2.303 . S
O13 C23 1.257 . S
O14 Tb1 2.415 . S
O14 C30 1.239 . S
O15 Tb1 2.399 . S
O15 C30 1.263 . S
O16 Tb1 2.325 . S
O16 C31 1.236 . S
O17 Tb0 2.322 . S
O17 C31 1.257 . S
O18 Tb0 2.349 . S
O18 C2 1.261 . S
O19 Tb1 2.303 . S
O19 C2 1.257 . S
C20 O10 1.236 . S
C20 O11 1.257 . S
O21 Tb0 2.415 . S
O21 C9 1.239 . S
O22 Tb0 2.399 . S
O22 C9 1.263 . S
C23 O12 1.261 . S
C23 O13 1.257 . S
C24 C27 1.358 . S
C24 C28 1.332 . S
C24 C30 1.504 . S
C25 C26 1.373 . S
C25 C29 1.308 . S
C26 C25 1.373 . S
C26 C27 1.429 . S
C26 H36 0.932 . S
C27 C24 1.358 . S
C27 C26 1.429 . S
C27 H37 0.930 . S
C28 C24 1.332 . S
C28 C29 1.394 . S
C28 H38 0.932 . S
C29 C25 1.308 . S
C29 C28 1.394 . S
C29 H39 0.929 . S
C30 Tb1 2.764 . S
C30 O14 1.239 . S
C30 O15 1.263 . S
C30 C24 1.504 . S
C31 O16 1.236 . S
C31 O17 1.257 . S
H32 C5 0.932 . S
H33 C6 0.930 . S
H34 C7 0.932 . S
H35 C8 0.929 . S
H36 C26 0.932 . S
H37 C27 0.930 . S
H38 C28 0.932 . S
H39 C29 0.929 . S
Tb40 C49 2.764 . S
Tb40 O50 2.325 . S
Tb40 O53 2.303 . S
Tb40 O57 2.322 . S
Tb40 O58 2.349 . S
Tb40 O61 2.415 . S
Tb40 O62 2.399 . S
Tb41 O51 2.322 . S
Tb41 O52 2.349 . S
Tb41 O54 2.415 . S
Tb41 O55 2.399 . S
Tb41 O56 2.325 . S
Tb41 O59 2.303 . S
Tb41 C70 2.764 . S
C42 O58 1.261 . S
C42 O59 1.257 . S
C43 C46 1.358 . S
C43 C47 1.332 . S
C43 C49 1.504 . S
C44 C45 1.373 . S
C44 C48 1.308 . S
C45 C44 1.373 . S
C45 C46 1.429 . S
C45 H72 0.932 . S
C46 C43 1.358 . S
C46 C45 1.429 . S
C46 H73 0.930 . S
C47 C43 1.332 . S
C47 C48 1.394 . S
C47 H74 0.932 . S
C48 C44 1.308 . S
C48 C47 1.394 . S
C48 H75 0.929 . S
C49 Tb40 2.764 . S
C49 C43 1.504 . S
C49 O61 1.239 . S
C49 O62 1.263 . S
O50 Tb40 2.325 . S
O50 C60 1.236 . S
O51 Tb41 2.322 . S
O51 C60 1.257 . S
O52 Tb41 2.349 . S
O52 C63 1.261 . S
O53 Tb40 2.303 . S
O53 C63 1.257 . S
O54 Tb41 2.415 . S
O54 C70 1.239 . S
O55 Tb41 2.399 . S
O55 C70 1.263 . S
O56 Tb41 2.325 . S
O56 C71 1.236 . S
O57 Tb40 2.322 . S
O57 C71 1.257 . S
O58 Tb40 2.349 . S
O58 C42 1.261 . S
O59 Tb41 2.303 . S
O59 C42 1.257 . S
C60 O50 1.236 . S
C60 O51 1.257 . S
O61 Tb40 2.415 . S
O61 C49 1.239 . S
O62 Tb40 2.399 . S
O62 C49 1.263 . S
C63 O52 1.261 . S
C63 O53 1.257 . S
C64 C67 1.358 . S
C64 C68 1.332 . S
C64 C70 1.504 . S
C65 C66 1.373 . S
C65 C69 1.308 . S
C66 C65 1.373 . S
C66 C67 1.429 . S
C66 H76 0.932 . S
C67 C64 1.358 . S
C67 C66 1.429 . S
C67 H77 0.930 . S
C68 C64 1.332 . S
C68 C69 1.394 . S
C68 H78 0.932 . S
C69 C65 1.308 . S
C69 C68 1.394 . S
C69 H79 0.929 . S
C70 Tb41 2.764 . S
C70 O54 1.239 . S
C70 O55 1.263 . S
C70 C64 1.504 . S
C71 O56 1.236 . S
C71 O57 1.257 . S
H72 C45 0.932 . S
H73 C46 0.930 . S
H74 C47 0.932 . S
H75 C48 0.929 . S
H76 C66 0.932 . S
H77 C67 0.930 . S
H78 C68 0.932 . S
H79 C69 0.929 . S
Tb80 C89 2.764 . S
Tb80 O90 2.325 . S
Tb80 O93 2.303 . S
Tb80 O97 2.322 . S
Tb80 O98 2.349 . S
Tb80 O101 2.415 . S
Tb80 O102 2.399 . S
Tb81 O91 2.322 . S
Tb81 O92 2.349 . S
Tb81 O94 2.415 . S
Tb81 O95 2.399 . S
Tb81 O96 2.325 . S
Tb81 O99 2.303 . S
Tb81 C110 2.764 . S
C82 O98 1.261 . S
C82 O99 1.257 . S
C83 C86 1.358 . S
C83 C87 1.332 . S
C83 C89 1.504 . S
C84 C85 1.373 . S
C84 C88 1.308 . S
C85 C84 1.373 . S
C85 C86 1.429 . S
C85 H112 0.932 . S
C86 C83 1.358 . S
C86 C85 1.429 . S
C86 H113 0.930 . S
C87 C83 1.332 . S
C87 C88 1.394 . S
C87 H114 0.932 . S
C88 C84 1.308 . S
C88 C87 1.394 . S
C88 H115 0.929 . S
C89 Tb80 2.764 . S
C89 C83 1.504 . S
C89 O101 1.239 . S
C89 O102 1.263 . S
O90 Tb80 2.325 . S
O90 C100 1.236 . S
O91 Tb81 2.322 . S
O91 C100 1.257 . S
O92 Tb81 2.349 . S
O92 C103 1.261 . S
O93 Tb80 2.303 . S
O93 C103 1.257 . S
O94 Tb81 2.415 . S
O94 C110 1.239 . S
O95 Tb81 2.399 . S
O95 C110 1.263 . S
O96 Tb81 2.325 . S
O96 C111 1.236 . S
O97 Tb80 2.322 . S
O97 C111 1.257 . S
O98 Tb80 2.349 . S
O98 C82 1.261 . S
O99 Tb81 2.303 . S
O99 C82 1.257 . S
C100 O90 1.236 . S
C100 O91 1.257 . S
O101 Tb80 2.415 . S
O101 C89 1.239 . S
O102 Tb80 2.399 . S
O102 C89 1.263 . S
C103 O92 1.261 . S
C103 O93 1.257 . S
C104 C107 1.358 . S
C104 C108 1.332 . S
C104 C110 1.504 . S
C105 C106 1.373 . S
C105 C109 1.308 . S
C106 C105 1.373 . S
C106 C107 1.429 . S
C106 H116 0.932 . S
C107 C104 1.358 . S
C107 C106 1.429 . S
C107 H117 0.930 . S
C108 C104 1.332 . S
C108 C109 1.394 . S
C108 H118 0.932 . S
C109 C105 1.308 . S
C109 C108 1.394 . S
C109 H119 0.929 . S
C110 Tb81 2.764 . S
C110 O94 1.239 . S
C110 O95 1.263 . S
C110 C104 1.504 . S
C111 O96 1.236 . S
C111 O97 1.257 . S
H112 C85 0.932 . S
H113 C86 0.930 . S
H114 C87 0.932 . S
H115 C88 0.929 . S
H116 C106 0.932 . S
H117 C107 0.930 . S
H118 C108 0.932 . S
H119 C109 0.929 . S
Tb120 C129 2.764 . S
Tb120 O130 2.325 . S
Tb120 O133 2.303 . S
Tb120 O137 2.322 . S
Tb120 O138 2.349 . S
Tb120 O141 2.415 . S
Tb120 O142 2.399 . S
Tb121 O131 2.322 . S
Tb121 O132 2.349 . S
Tb121 O134 2.415 . S
Tb121 O135 2.399 . S
Tb121 O136 2.325 . S
Tb121 O139 2.303 . S
Tb121 C150 2.764 . S
C122 O138 1.261 . S
C122 O139 1.257 . S
C123 C126 1.358 . S
C123 C127 1.332 . S
C123 C129 1.504 . S
C124 C125 1.373 . S
C124 C128 1.308 . S
C125 C124 1.373 . S
C125 C126 1.429 . S
C125 H152 0.932 . S
C126 C123 1.358 . S
C126 C125 1.429 . S
C126 H153 0.930 . S
C127 C123 1.332 . S
C127 C128 1.394 . S
C127 H154 0.932 . S
C128 C124 1.308 . S
C128 C127 1.394 . S
C128 H155 0.929 . S
C129 Tb120 2.764 . S
C129 C123 1.504 . S
C129 O141 1.239 . S
C129 O142 1.263 . S
O130 Tb120 2.325 . S
O130 C140 1.236 . S
O131 Tb121 2.322 . S
O131 C140 1.257 . S
O132 Tb121 2.349 . S
O132 C143 1.261 . S
O133 Tb120 2.303 . S
O133 C143 1.257 . S
O134 Tb121 2.415 . S
O134 C150 1.239 . S
O135 Tb121 2.399 . S
O135 C150 1.263 . S
O136 Tb121 2.325 . S
O136 C151 1.236 . S
O137 Tb120 2.322 . S
O137 C151 1.257 . S
O138 Tb120 2.349 . S
O138 C122 1.261 . S
O139 Tb121 2.303 . S
O139 C122 1.257 . S
C140 O130 1.236 . S
C140 O131 1.257 . S
O141 Tb120 2.415 . S
O141 C129 1.239 . S
O142 Tb120 2.399 . S
O142 C129 1.263 . S
C143 O132 1.261 . S
C143 O133 1.257 . S
C144 C147 1.358 . S
C144 C148 1.332 . S
C144 C150 1.504 . S
C145 C146 1.373 . S
C145 C149 1.308 . S
C146 C145 1.373 . S
C146 C147 1.429 . S
C146 H156 0.932 . S
C147 C144 1.358 . S
C147 C146 1.429 . S
C147 H157 0.930 . S
C148 C144 1.332 . S
C148 C149 1.394 . S
C148 H158 0.932 . S
C149 C145 1.308 . S
C149 C148 1.394 . S
C149 H159 0.929 . S
C150 Tb121 2.764 . S
C150 O134 1.239 . S
C150 O135 1.263 . S
C150 C144 1.504 . S
C151 O136 1.236 . S
C151 O137 1.257 . S
H152 C125 0.932 . S
H153 C126 0.930 . S
H154 C127 0.932 . S
H155 C128 0.929 . S
H156 C146 0.932 . S
H157 C147 0.930 . S
H158 C148 0.932 . S
H159 C149 0.929 . S
Tb160 C169 2.764 . S
Tb160 O170 2.325 . S
Tb160 O173 2.303 . S
Tb160 O177 2.322 . S
Tb160 O178 2.349 . S
Tb160 O181 2.415 . S
Tb160 O182 2.399 . S
Tb161 O171 2.322 . S
Tb161 O172 2.349 . S
Tb161 O174 2.415 . S
Tb161 O175 2.399 . S
Tb161 O176 2.325 . S
Tb161 O179 2.303 . S
Tb161 C190 2.764 . S
C162 O178 1.261 . S
C162 O179 1.257 . S
C163 C166 1.358 . S
C163 C167 1.332 . S
C163 C169 1.504 . S
C164 C165 1.373 . S
C164 C168 1.308 . S
C165 C164 1.373 . S
C165 C166 1.429 . S
C165 H192 0.932 . S
C166 C163 1.358 . S
C166 C165 1.429 . S
C166 H193 0.930 . S
C167 C163 1.332 . S
C167 C168 1.394 . S
C167 H194 0.932 . S
C168 C164 1.308 . S
C168 C167 1.394 . S
C168 H195 0.929 . S
C169 Tb160 2.764 . S
C169 C163 1.504 . S
C169 O181 1.239 . S
C169 O182 1.263 . S
O170 Tb160 2.325 . S
O170 C180 1.236 . S
O171 Tb161 2.322 . S
O171 C180 1.257 . S
O172 Tb161 2.349 . S
O172 C183 1.261 . S
O173 Tb160 2.303 . S
O173 C183 1.257 . S
O174 Tb161 2.415 . S
O174 C190 1.239 . S
O175 Tb161 2.399 . S
O175 C190 1.263 . S
O176 Tb161 2.325 . S
O176 C191 1.236 . S
O177 Tb160 2.322 . S
O177 C191 1.257 . S
O178 Tb160 2.349 . S
O178 C162 1.261 . S
O179 Tb161 2.303 . S
O179 C162 1.257 . S
C180 O170 1.236 . S
C180 O171 1.257 . S
O181 Tb160 2.415 . S
O181 C169 1.239 . S
O182 Tb160 2.399 . S
O182 C169 1.263 . S
C183 O172 1.261 . S
C183 O173 1.257 . S
C184 C187 1.358 . S
C184 C188 1.332 . S
C184 C190 1.504 . S
C185 C186 1.373 . S
C185 C189 1.308 . S
C186 C185 1.373 . S
C186 C187 1.429 . S
C186 H196 0.932 . S
C187 C184 1.358 . S
C187 C186 1.429 . S
C187 H197 0.930 . S
C188 C184 1.332 . S
C188 C189 1.394 . S
C188 H198 0.932 . S
C189 C185 1.308 . S
C189 C188 1.394 . S
C189 H199 0.929 1_556 S
C190 Tb161 2.764 . S
C190 O174 1.239 . S
C190 O175 1.263 . S
C190 C184 1.504 . S
C191 O176 1.236 . S
C191 O177 1.257 . S
H192 C165 0.932 . S
H193 C166 0.930 . S
H194 C167 0.932 . S
H195 C168 0.929 . S
H196 C186 0.932 . S
H197 C187 0.930 . S
H198 C188 0.932 . S
H199 C189 0.929 1_554 S
Tb200 C209 2.764 . S
Tb200 O210 2.325 . S
Tb200 O213 2.303 . S
Tb200 O217 2.322 . S
Tb200 O218 2.349 . S
Tb200 O221 2.415 . S
Tb200 O222 2.399 . S
Tb201 O211 2.322 . S
Tb201 O212 2.349 . S
Tb201 O214 2.415 . S
Tb201 O215 2.399 . S
Tb201 O216 2.325 . S
Tb201 O219 2.303 . S
Tb201 C230 2.764 . S
C202 O218 1.261 . S
C202 O219 1.257 . S
C203 C206 1.358 . S
C203 C207 1.332 . S
C203 C209 1.504 . S
C204 C205 1.373 . S
C204 C208 1.308 . S
C205 C204 1.373 . S
C205 C206 1.429 . S
C205 H232 0.932 . S
C206 C203 1.358 . S
C206 C205 1.429 . S
C206 H233 0.930 . S
C207 C203 1.332 . S
C207 C208 1.394 . S
C207 H234 0.932 . S
C208 C204 1.308 . S
C208 C207 1.394 . S
C208 H235 0.929 . S
C209 Tb200 2.764 . S
C209 C203 1.504 . S
C209 O221 1.239 . S
C209 O222 1.263 . S
O210 Tb200 2.325 . S
O210 C220 1.236 . S
O211 Tb201 2.322 . S
O211 C220 1.257 . S
O212 Tb201 2.349 . S
O212 C223 1.261 . S
O213 Tb200 2.303 . S
O213 C223 1.257 . S
O214 Tb201 2.415 . S
O214 C230 1.239 . S
O215 Tb201 2.399 . S
O215 C230 1.263 . S
O216 Tb201 2.325 . S
O216 C231 1.236 . S
O217 Tb200 2.322 . S
O217 C231 1.257 . S
O218 Tb200 2.349 . S
O218 C202 1.261 . S
O219 Tb201 2.303 . S
O219 C202 1.257 . S
C220 O210 1.236 . S
C220 O211 1.257 . S
O221 Tb200 2.415 . S
O221 C209 1.239 . S
O222 Tb200 2.399 . S
O222 C209 1.263 . S
C223 O212 1.261 . S
C223 O213 1.257 . S
C224 C227 1.358 . S
C224 C228 1.332 . S
C224 C230 1.504 . S
C225 C226 1.373 . S
C225 C229 1.308 . S
C226 C225 1.373 . S
C226 C227 1.429 . S
C226 H236 0.932 . S
C227 C224 1.358 . S
C227 C226 1.429 . S
C227 H237 0.930 . S
C228 C224 1.332 . S
C228 C229 1.394 . S
C228 H238 0.932 . S
C229 C225 1.308 . S
C229 C228 1.394 . S
C229 H239 0.929 . S
C230 Tb201 2.764 . S
C230 O214 1.239 . S
C230 O215 1.263 . S
C230 C224 1.504 . S
C231 O216 1.236 . S
C231 O217 1.257 . S
H232 C205 0.932 . S
H233 C206 0.930 . S
H234 C207 0.932 . S
H235 C208 0.929 . S
H236 C226 0.932 . S
H237 C227 0.930 . S
H238 C228 0.932 . S
H239 C229 0.929 . S
Tb240 C249 2.764 . S
Tb240 O250 2.325 . S
Tb240 O253 2.303 . S
Tb240 O257 2.322 . S
Tb240 O258 2.349 . S
Tb240 O261 2.415 . S
Tb240 O262 2.399 . S
Tb241 O251 2.322 . S
Tb241 O252 2.349 . S
Tb241 O254 2.415 . S
Tb241 O255 2.399 . S
Tb241 O256 2.325 . S
Tb241 O259 2.303 . S
Tb241 C270 2.764 . S
C242 O258 1.261 . S
C242 O259 1.257 . S
C243 C246 1.358 . S
C243 C247 1.332 . S
C243 C249 1.504 . S
C244 C245 1.373 . S
C244 C248 1.308 . S
C245 C244 1.373 . S
C245 C246 1.429 . S
C245 H272 0.932 . S
C246 C243 1.358 . S
C246 C245 1.429 . S
C246 H273 0.930 . S
C247 C243 1.332 . S
C247 C248 1.394 . S
C247 H274 0.932 . S
C248 C244 1.308 . S
C248 C247 1.394 . S
C248 H275 0.929 . S
C249 Tb240 2.764 . S
C249 C243 1.504 . S
C249 O261 1.239 . S
C249 O262 1.263 . S
O250 Tb240 2.325 . S
O250 C260 1.236 . S
O251 Tb241 2.322 . S
O251 C260 1.257 . S
O252 Tb241 2.349 . S
O252 C263 1.261 . S
O253 Tb240 2.303 . S
O253 C263 1.257 . S
O254 Tb241 2.415 . S
O254 C270 1.239 . S
O255 Tb241 2.399 . S
O255 C270 1.263 . S
O256 Tb241 2.325 . S
O256 C271 1.236 . S
O257 Tb240 2.322 . S
O257 C271 1.257 . S
O258 Tb240 2.349 . S
O258 C242 1.261 . S
O259 Tb241 2.303 . S
O259 C242 1.257 . S
C260 O250 1.236 . S
C260 O251 1.257 . S
O261 Tb240 2.415 . S
O261 C249 1.239 . S
O262 Tb240 2.399 . S
O262 C249 1.263 . S
C263 O252 1.261 . S
C263 O253 1.257 . S
C264 C267 1.358 . S
C264 C268 1.332 . S
C264 C270 1.504 . S
C265 C266 1.373 . S
C265 C269 1.308 . S
C266 C265 1.373 . S
C266 C267 1.429 . S
C266 H276 0.932 . S
C267 C264 1.358 . S
C267 C266 1.429 . S
C267 H277 0.930 . S
C268 C264 1.332 . S
C268 C269 1.394 . S
C268 H278 0.932 . S
C269 C265 1.308 . S
C269 C268 1.394 . S
C269 H279 0.929 . S
C270 Tb241 2.764 . S
C270 O254 1.239 . S
C270 O255 1.263 . S
C270 C264 1.504 . S
C271 O256 1.236 . S
C271 O257 1.257 . S
H272 C245 0.932 . S
H273 C246 0.930 . S
H274 C247 0.932 . S
H275 C248 0.929 . S
H276 C266 0.932 . S
H277 C267 0.930 . S
H278 C268 0.932 . S
H279 C269 0.929 . S
Tb280 C289 2.764 . S
Tb280 O290 2.325 . S
Tb280 O293 2.303 . S
Tb280 O297 2.322 . S
Tb280 O298 2.349 . S
Tb280 O301 2.415 . S
Tb280 O302 2.399 . S
Tb281 O291 2.322 . S
Tb281 O292 2.349 . S
Tb281 O294 2.415 . S
Tb281 O295 2.399 . S
Tb281 O296 2.325 . S
Tb281 O299 2.303 . S
Tb281 C310 2.764 . S
C282 O298 1.261 . S
C282 O299 1.257 . S
C283 C286 1.358 . S
C283 C287 1.332 . S
C283 C289 1.504 . S
C284 C285 1.373 . S
C284 C288 1.308 . S
C285 C284 1.373 . S
C285 C286 1.429 . S
C285 H312 0.932 . S
C286 C283 1.358 . S
C286 C285 1.429 . S
C286 H313 0.930 . S
C287 C283 1.332 . S
C287 C288 1.394 . S
C287 H314 0.932 . S
C288 C284 1.308 . S
C288 C287 1.394 . S
C288 H315 0.929 . S
C289 Tb280 2.764 . S
C289 C283 1.504 . S
C289 O301 1.239 . S
C289 O302 1.263 . S
O290 Tb280 2.325 . S
O290 C300 1.236 . S
O291 Tb281 2.322 . S
O291 C300 1.257 . S
O292 Tb281 2.349 . S
O292 C303 1.261 . S
O293 Tb280 2.303 . S
O293 C303 1.257 . S
O294 Tb281 2.415 . S
O294 C310 1.239 . S
O295 Tb281 2.399 . S
O295 C310 1.263 . S
O296 Tb281 2.325 . S
O296 C311 1.236 . S
O297 Tb280 2.322 . S
O297 C311 1.257 . S
O298 Tb280 2.349 . S
O298 C282 1.261 . S
O299 Tb281 2.303 . S
O299 C282 1.257 . S
C300 O290 1.236 . S
C300 O291 1.257 . S
O301 Tb280 2.415 . S
O301 C289 1.239 . S
O302 Tb280 2.399 . S
O302 C289 1.263 . S
C303 O292 1.261 . S
C303 O293 1.257 . S
C304 C307 1.358 . S
C304 C308 1.332 . S
C304 C310 1.504 . S
C305 C306 1.373 . S
C305 C309 1.308 . S
C306 C305 1.373 . S
C306 C307 1.429 . S
C306 H316 0.932 . S
C307 C304 1.358 . S
C307 C306 1.429 . S
C307 H317 0.930 . S
C308 C304 1.332 . S
C308 C309 1.394 . S
C308 H318 0.932 . S
C309 C305 1.308 . S
C309 C308 1.394 . S
C309 H319 0.929 . S
C310 Tb281 2.764 . S
C310 O294 1.239 . S
C310 O295 1.263 . S
C310 C304 1.504 . S
C311 O296 1.236 . S
C311 O297 1.257 . S
H312 C285 0.932 . S
H313 C286 0.930 . S
H314 C287 0.932 . S
H315 C288 0.929 . S
H316 C306 0.932 . S
H317 C307 0.930 . S
H318 C308 0.932 . S
H319 C309 0.929 . S
Co320 O323 2.042 . S
Co320 O330 2.264 . S
Co320 O349 2.286 . S
Co320 O350 2.069 . S
Co320 O352 2.015 1_455 S
Co321 O323 2.122 . S
Co321 O329 2.073 . S
Co321 O330 2.327 . S
Co321 O331 1.976 1_455 S
Co322 O323 2.087 1_545 S
Co322 O325 2.087 1_455 S
Co322 O332 2.111 1_445 S
Co322 O333 2.143 . S
Co322 O337 2.111 . S
Co322 O351 2.143 1_445 S
O323 Co320 2.042 . S
O323 Co321 2.122 . S
O323 Co322 2.087 1_565 S
O323 H324 0.980 1_565 S
H324 O323 0.980 1_545 S
O325 Co322 2.087 1_655 S
O325 Co326 2.036 . S
O325 Co327 2.122 . S
O325 H328 0.980 . S
Co326 O325 2.036 . S
Co326 O334 2.298 . S
Co326 O335 2.090 . S
Co326 O336 1.997 1_655 S
Co326 O339 2.271 . S
Co327 O325 2.122 . S
Co327 O338 1.976 1_655 S
Co327 O339 2.327 . S
Co327 O340 2.073 . S
H328 O325 0.980 . S
O329 Co321 2.073 . S
O329 C344 1.245 . S
O330 Co320 2.264 . S
O330 Co321 2.327 . S
O330 C344 1.257 . S
O331 Co321 1.976 1_655 S
O331 C343 1.251 . S
O332 Co322 2.111 1_665 S
O332 C343 1.274 . S
O333 Co322 2.143 . S
O333 C346 1.246 . S
O334 Co326 2.298 . S
O334 C345 1.259 . S
O335 Co326 2.090 . S
O335 C345 1.289 . S
O336 Co326 1.997 1_455 S
O336 C346 1.257 . S
O337 Co322 2.111 . S
O337 C347 1.274 . S
O338 Co327 1.976 1_455 S
O338 C347 1.251 . S
O339 Co326 2.271 . S
O339 Co327 2.327 . S
O339 C348 1.257 . S
O340 Co327 2.073 . S
O340 C348 1.245 . S
C341 O349 1.259 . S
C341 O350 1.289 . S
C342 O351 1.246 . S
C342 O352 1.257 . S
C343 O331 1.251 . S
C343 O332 1.274 . S
C344 O329 1.245 . S
C344 O330 1.257 . S
C345 O334 1.259 . S
C345 O335 1.289 . S
C346 O333 1.246 . S
C346 O336 1.257 . S
C347 O337 1.274 . S
C347 O338 1.251 . S
C348 O339 1.257 . S
C348 O340 1.245 . S
O349 Co320 2.286 . S
O349 C341 1.259 . S
O350 Co320 2.069 . S
O350 C341 1.289 . S
O351 Co322 2.143 1_665 S
O351 C342 1.246 . S
O352 Co320 2.015 1_655 S
O352 C342 1.257 . S
Co353 O356 2.042 1_565 S
Co353 O363 2.264 . S
Co353 O382 2.286 1_554 S
Co353 O383 2.069 . S
Co353 O385 2.015 . S
Co354 O356 2.122 1_565 S
Co354 O362 2.073 . S
Co354 O363 2.327 . S
Co354 O364 1.976 . S
Co355 O356 2.087 . S
Co355 O358 2.087 . S
Co355 O365 2.111 1_545 S
Co355 O366 2.143 . S
Co355 O370 2.111 . S
Co355 O384 2.143 1_545 S
O356 Co353 2.042 1_545 S
O356 Co354 2.122 1_545 S
O356 Co355 2.087 . S
O356 H357 0.980 . S
H357 O356 0.980 . S
O358 Co355 2.087 . S
O358 Co359 2.042 . S
O358 Co360 2.122 1_554 S
O358 H361 0.980 . S
Co359 O358 2.042 . S
Co359 O367 2.286 . S
Co359 O368 2.069 . S
Co359 O369 2.015 . S
Co359 O372 2.264 . S
Co360 O358 2.122 1_556 S
Co360 O371 1.976 . S
Co360 O372 2.327 1_556 S
Co360 O373 2.073 . S
H361 O358 0.980 . S
O362 Co354 2.073 . S
O362 C377 1.245 . S
O363 Co353 2.264 . S
O363 Co354 2.327 . S
O363 C377 1.257 . S
O364 Co354 1.976 . S
O364 C376 1.251 . S
O365 Co355 2.111 1_565 S
O365 C376 1.274 . S
O366 Co355 2.143 . S
O366 C379 1.246 . S
O367 Co359 2.286 . S
O367 C378 1.259 . S
O368 Co359 2.069 . S
O368 C378 1.289 . S
O369 Co359 2.015 . S
O369 C379 1.257 . S
O370 Co355 2.111 . S
O370 C380 1.274 . S
O371 Co360 1.976 . S
O371 C380 1.251 1_556 S
O372 Co359 2.264 . S
O372 Co360 2.327 1_554 S
O372 C381 1.257 1_554 S
O373 Co360 2.073 . S
O373 C381 1.245 . S
C374 O382 1.259 1_554 S
C374 O383 1.289 . S
C375 O384 1.246 . S
C375 O385 1.257 . S
C376 O364 1.251 . S
C376 O365 1.274 . S
C377 O362 1.245 . S
C377 O363 1.257 . S
C378 O367 1.259 . S
C378 O368 1.289 . S
C379 O366 1.246 . S
C379 O369 1.257 . S
C380 O370 1.274 . S
C380 O371 1.251 1_554 S
C381 O372 1.257 1_556 S
C381 O373 1.245 . S
O382 Co353 2.286 1_556 S
O382 C374 1.259 1_556 S
O383 Co353 2.069 . S
O383 C374 1.289 . S
O384 Co355 2.143 1_565 S
O384 C375 1.246 . S
O385 Co353 2.015 . S
O385 C375 1.257 . S
Co386 O389 2.042 1_556 S
Co386 O396 2.264 1_556 S
Co386 O415 2.286 . S
Co386 O416 2.069 . S
Co386 O418 2.015 1_455 S
Co387 O389 2.122 . S
Co387 O395 2.073 . S
Co387 O396 2.327 . S
Co387 O397 1.976 1_455 S
Co388 O389 2.087 . S
Co388 O391 2.087 1_454 S
Co388 O398 2.111 1_455 S
Co388 O399 2.143 . S
Co388 O403 2.111 1_554 S
Co388 O417 2.143 1_454 S
O389 Co386 2.042 1_554 S
O389 Co387 2.122 . S
O389 Co388 2.087 . S
O389 H390 0.980 . S
H390 O389 0.980 . S
O391 Co388 2.087 1_656 S
O391 Co392 2.042 1_556 S
O391 Co393 2.122 . S
O391 H394 0.980 . S
Co392 O391 2.042 1_554 S
Co392 O400 2.286 . S
Co392 O401 2.069 . S
Co392 O402 2.015 1_655 S
Co392 O405 2.264 1_554 S
Co393 O391 2.122 . S
Co393 O404 1.976 1_655 S
Co393 O405 2.327 . S
Co393 O406 2.073 . S
H394 O391 0.980 . S
O395 Co387 2.073 . S
O395 C410 1.245 . S
O396 Co386 2.264 1_554 S
O396 Co387 2.327 . S
O396 C410 1.257 . S
O397 Co387 1.976 1_655 S
O397 C409 1.251 . S
O398 Co388 2.111 1_655 S
O398 C409 1.274 . S
O399 Co388 2.143 . S
O399 C412 1.246 . S
O400 Co392 2.286 . S
O400 C411 1.259 . S
O401 Co392 2.069 . S
O401 C411 1.289 . S
O402 Co392 2.015 1_455 S
O402 C412 1.257 . S
O403 Co388 2.111 1_556 S
O403 C413 1.274 . S
O404 Co393 1.976 1_455 S
O404 C413 1.251 . S
O405 Co392 2.264 1_556 S
O405 Co393 2.327 . S
O405 C414 1.257 . S
O406 Co393 2.073 . S
O406 C414 1.245 . S
C407 O415 1.259 . S
C407 O416 1.289 . S
C408 O417 1.246 . S
C408 O418 1.257 . S
C409 O397 1.251 . S
C409 O398 1.274 . S
C410 O395 1.245 . S
C410 O396 1.257 . S
C411 O400 1.259 . S
C411 O401 1.289 . S
C412 O399 1.246 . S
C412 O402 1.257 . S
C413 O403 1.274 . S
C413 O404 1.251 . S
C414 O405 1.257 . S
C414 O406 1.245 . S
O415 Co386 2.286 . S
O415 C407 1.259 . S
O416 Co386 2.069 . S
O416 C407 1.289 . S
O417 Co388 2.143 1_656 S
O417 C408 1.246 . S
O418 Co386 2.015 1_655 S
O418 C408 1.257 . S
Co419 O422 2.042 . S
Co419 O429 2.264 . S
Co419 O448 2.286 1_554 S
Co419 O449 2.069 . S
Co419 O451 2.015 . S
Co420 O422 2.122 . S
Co420 O428 2.073 . S
Co420 O429 2.327 . S
Co420 O430 1.976 . S
Co421 O422 2.087 . S
Co421 O424 2.087 . S
Co421 O431 2.111 . S
Co421 O432 2.143 . S
Co421 O436 2.111 1_554 S
Co421 O450 2.143 1_554 S
O422 Co419 2.042 . S
O422 Co420 2.122 . S
O422 Co421 2.087 . S
O422 H423 0.980 . S
H423 O422 0.980 . S
O424 Co421 2.087 . S
O424 Co425 2.042 . S
O424 Co426 2.122 1_554 S
O424 H427 0.980 . S
Co425 O424 2.042 . S
Co425 O433 2.286 . S
Co425 O434 2.069 . S
Co425 O435 2.015 . S
Co425 O438 2.264 1_554 S
Co426 O424 2.122 1_556 S
Co426 O437 1.976 . S
Co426 O438 2.327 . S
Co426 O439 2.073 . S
H427 O424 0.980 . S
O428 Co420 2.073 . S
O428 C443 1.245 . S
O429 Co419 2.264 . S
O429 Co420 2.327 . S
O429 C443 1.257 . S
O430 Co420 1.976 . S
O430 C442 1.251 . S
O431 Co421 2.111 . S
O431 C442 1.274 . S
O432 Co421 2.143 . S
O432 C445 1.246 . S
O433 Co425 2.286 . S
O433 C444 1.259 . S
O434 Co425 2.069 . S
O434 C444 1.289 . S
O435 Co425 2.015 . S
O435 C445 1.257 . S
O436 Co421 2.111 1_556 S
O436 C446 1.274 . S
O437 Co426 1.976 . S
O437 C446 1.251 . S
O438 Co425 2.264 1_556 S
O438 Co426 2.327 . S
O438 C447 1.257 . S
O439 Co426 2.073 . S
O439 C447 1.245 . S
C440 O448 1.259 . S
C440 O449 1.289 1_556 S
C441 O450 1.246 . S
C441 O451 1.257 1_556 S
C442 O430 1.251 . S
C442 O431 1.274 . S
C443 O428 1.245 . S
C443 O429 1.257 . S
C444 O433 1.259 . S
C444 O434 1.289 . S
C445 O432 1.246 . S
C445 O435 1.257 . S
C446 O436 1.274 . S
C446 O437 1.251 . S
C447 O438 1.257 . S
C447 O439 1.245 . S
O448 Co419 2.286 1_556 S
O448 C440 1.259 . S
O449 Co419 2.069 . S
O449 C440 1.289 1_554 S
O450 Co421 2.143 1_556 S
O450 C441 1.246 . S
O451 Co419 2.015 . S
O451 C441 1.257 1_554 S
Co452 O455 2.042 . S
Co452 O462 2.264 . S
Co452 O481 2.286 . S
Co452 O482 2.069 . S
Co452 O484 2.015 . S
Co453 O455 2.122 . S
Co453 O461 2.073 . S
Co453 O462 2.327 . S
Co453 O463 1.976 . S
Co454 O455 2.087 . S
Co454 O457 2.087 . S
Co454 O464 2.111 . S
Co454 O465 2.143 1_455 S
Co454 O469 2.111 . S
Co454 O483 2.143 . S
O455 Co452 2.042 . S
O455 Co453 2.122 . S
O455 Co454 2.087 . S
O455 H456 0.980 . S
H456 O455 0.980 . S
O457 Co454 2.087 . S
O457 Co458 2.042 1_455 S
O457 Co459 2.122 1_455 S
O457 H460 0.980 . S
Co458 O457 2.042 1_655 S
Co458 O466 2.286 . S
Co458 O467 2.069 . S
Co458 O468 2.015 . S
Co458 O471 2.264 . S
Co459 O457 2.122 1_655 S
Co459 O470 1.976 . S
Co459 O471 2.327 . S
Co459 O472 2.073 . S
H460 O457 0.980 . S
O461 Co453 2.073 . S
O461 C476 1.245 . S
O462 Co452 2.264 . S
O462 Co453 2.327 . S
O462 C476 1.257 . S
O463 Co453 1.976 . S
O463 C475 1.251 . S
O464 Co454 2.111 . S
O464 C475 1.274 . S
O465 Co454 2.143 1_655 S
O465 C478 1.246 . S
O466 Co458 2.286 . S
O466 C477 1.259 . S
O467 Co458 2.069 . S
O467 C477 1.289 . S
O468 Co458 2.015 . S
O468 C478 1.257 . S
O469 Co454 2.111 . S
O469 C479 1.274 1_455 S
O470 Co459 1.976 . S
O470 C479 1.251 . S
O471 Co458 2.264 . S
O471 Co459 2.327 . S
O471 C480 1.257 . S
O472 Co459 2.073 . S
O472 C480 1.245 . S
C473 O481 1.259 . S
C473 O482 1.289 . S
C474 O483 1.246 . S
C474 O484 1.257 . S
C475 O463 1.251 . S
C475 O464 1.274 . S
C476 O461 1.245 . S
C476 O462 1.257 . S
C477 O466 1.259 . S
C477 O467 1.289 . S
C478 O465 1.246 . S
C478 O468 1.257 . S
C479 O469 1.274 1_655 S
C479 O470 1.251 . S
C480 O471 1.257 . S
C480 O472 1.245 . S
O481 Co452 2.286 . S
O481 C473 1.259 . S
O482 Co452 2.069 . S
O482 C473 1.289 . S
O483 Co454 2.143 . S
O483 C474 1.246 . S
O484 Co452 2.015 . S
O484 C474 1.257 . S
Co485 O488 2.042 . S
Co485 O495 2.264 . S
Co485 O514 2.286 . S
Co485 O515 2.069 . S
Co485 O517 2.015 1_565 S
Co486 O488 2.123 . S
Co486 O494 2.071 . S
Co486 O495 2.326 . S
Co486 O496 1.978 1_565 S
Co487 O488 2.087 1_545 S
Co487 O490 2.087 . S
Co487 O497 2.111 . S
Co487 O498 2.143 1_545 S
Co487 O502 2.111 1_545 S
Co487 O516 2.143 . S
O488 Co485 2.042 . S
O488 Co486 2.123 . S
O488 Co487 2.087 1_565 S
O488 H489 0.980 . S
H489 O488 0.980 . S
O490 Co487 2.087 . S
O490 Co491 2.042 . S
O490 Co492 2.122 . S
O490 H493 0.980 . S
Co491 O490 2.042 . S
Co491 O499 2.286 . S
Co491 O500 2.069 . S
Co491 O501 2.015 1_545 S
Co491 O504 2.264 . S
Co492 O490 2.122 . S
Co492 O503 1.976 1_545 S
Co492 O504 2.327 . S
Co492 O505 2.073 . S
H493 O490 0.980 . S
O494 Co486 2.071 . S
O494 C509 1.245 . S
O495 Co485 2.264 . S
O495 Co486 2.326 . S
O495 C509 1.257 . S
O496 Co486 1.978 1_545 S
O496 C508 1.251 . S
O497 Co487 2.111 . S
O497 C508 1.274 . S
O498 Co487 2.143 1_565 S
O498 C511 1.246 . S
O499 Co491 2.286 . S
O499 C510 1.259 . S
O500 Co491 2.069 . S
O500 C510 1.289 . S
O501 Co491 2.015 1_565 S
O501 C511 1.257 . S
O502 Co487 2.111 1_565 S
O502 C512 1.274 . S
O503 Co492 1.976 1_565 S
O503 C512 1.251 . S
O504 Co491 2.264 . S
O504 Co492 2.327 . S
O504 C513 1.257 . S
O505 Co492 2.073 . S
O505 C513 1.245 . S
C506 O514 1.259 . S
C506 O515 1.289 . S
C507 O516 1.246 . S
C507 O517 1.257 . S
C508 O496 1.251 . S
C508 O497 1.274 . S
C509 O494 1.245 . S
C509 O495 1.257 . S
C510 O499 1.259 . S
C510 O500 1.289 . S
C511 O498 1.246 . S
C511 O501 1.257 . S
C512 O502 1.274 . S
C512 O503 1.251 . S
C513 O504 1.257 . S
C513 O505 1.245 . S
O514 Co485 2.286 . S
O514 C506 1.259 . S
O515 Co485 2.069 . S
O515 C506 1.289 . S
O516 Co487 2.143 . S
O516 C507 1.246 . S
O517 Co485 2.015 1_545 S
O517 C507 1.257 . S
C518 C519 1.369 . S
C518 C520 1.419 . S
C518 H522 0.930 . S
C519 C518 1.369 . S
C519 C528 1.429 . S
C520 C518 1.419 . S
C520 C521 1.363 . S
C520 H523 0.929 . S
C521 C520 1.363 . S
C521 C527 1.428 . S
H522 C518 0.930 . S
H523 C520 0.929 . S
S524 N525 1.613 . S
S524 N526 1.610 . S
N525 S524 1.613 . S
N525 C528 1.350 . S
N526 S524 1.610 . S
N526 C527 1.351 . S
C527 C521 1.428 . S
C527 N526 1.351 . S
C527 C528 1.434 . S
C528 C519 1.429 . S
C528 N525 1.350 . S
C528 C527 1.434 . S
C529 C530 1.369 . S
C529 C531 1.419 . S
C529 H533 0.930 . S
C530 C529 1.369 . S
C530 C539 1.429 . S
C531 C529 1.419 . S
C531 C532 1.363 . S
C531 H534 0.929 . S
C532 C531 1.363 . S
C532 C538 1.428 . S
H533 C529 0.930 . S
H534 C531 0.929 . S
S535 N536 1.613 . S
S535 N537 1.610 . S
N536 S535 1.613 . S
N536 C539 1.350 . S
N537 S535 1.610 . S
N537 C538 1.351 . S
C538 C532 1.428 . S
C538 N537 1.351 . S
C538 C539 1.434 . S
C539 C530 1.429 . S
C539 N536 1.350 . S
C539 C538 1.434 . S
C540 C541 1.369 . S
C540 C542 1.419 . S
C540 H544 0.930 . S
C541 C540 1.369 . S
C541 C550 1.429 . S
C542 C540 1.419 . S
C542 C543 1.363 . S
C542 H545 0.929 . S
C543 C542 1.363 . S
C543 C549 1.428 . S
H544 C540 0.930 . S
H545 C542 0.929 . S
S546 N547 1.613 . S
S546 N548 1.610 . S
N547 S546 1.613 . S
N547 C550 1.350 . S
N548 S546 1.610 . S
N548 C549 1.351 . S
C549 C543 1.428 . S
C549 N548 1.351 . S
C549 C550 1.434 . S
C550 C541 1.429 . S
C550 N547 1.350 . S
C550 C549 1.434 . S
C551 C552 1.369 . S
C551 C553 1.419 . S
C551 H555 0.930 . S
C552 C551 1.369 . S
C552 C561 1.429 . S
C553 C551 1.419 . S
C553 C554 1.363 . S
C553 H556 0.929 . S
C554 C553 1.363 . S
C554 C560 1.428 . S
H555 C551 0.930 . S
H556 C553 0.929 . S
S557 N558 1.613 . S
S557 N559 1.610 . S
N558 S557 1.613 . S
N558 C561 1.350 . S
N559 S557 1.610 . S
N559 C560 1.351 . S
C560 C554 1.428 . S
C560 N559 1.351 . S
C560 C561 1.434 . S
C561 C552 1.429 . S
C561 N558 1.350 . S
C561 C560 1.434 . S
C562 C563 1.369 . S
C562 C564 1.419 . S
C562 H566 0.930 . S
C563 C562 1.369 . S
C563 C572 1.429 . S
C564 C562 1.419 . S
C564 C565 1.363 . S
C564 H567 0.929 . S
C565 C564 1.363 . S
C565 C571 1.428 . S
H566 C562 0.930 . S
H567 C564 0.929 . S
S568 N569 1.613 . S
S568 N570 1.610 . S
N569 S568 1.613 . S
N569 C572 1.350 . S
N570 S568 1.610 . S
N570 C571 1.351 . S
C571 C565 1.428 . S
C571 N570 1.351 . S
C571 C572 1.434 . S
C572 C563 1.429 . S
C572 N569 1.350 . S
C572 C571 1.434 . S
C573 C574 1.369 . S
C573 C575 1.419 . S
C573 H577 0.930 . S
C574 C573 1.369 . S
C574 C583 1.429 . S
C575 C573 1.419 . S
C575 C576 1.363 . S
C575 H578 0.929 . S
C576 C575 1.363 . S
C576 C582 1.428 . S
H577 C573 0.930 . S
H578 C575 0.929 . S
S579 N580 1.613 . S
S579 N581 1.610 . S
N580 S579 1.613 . S
N580 C583 1.350 . S
N581 S579 1.610 . S
N581 C582 1.351 . S
C582 C576 1.428 . S
C582 N581 1.351 . S
C582 C583 1.434 . S
C583 C574 1.429 . S
C583 N580 1.350 . S
C583 C582 1.434 . S
C584 C585 1.369 . S
C584 C586 1.419 . S
C584 H588 0.930 . S
C585 C584 1.369 . S
C585 C594 1.429 . S
C586 C584 1.419 . S
C586 C587 1.363 . S
C586 H589 0.929 . S
C587 C586 1.363 . S
C587 C593 1.428 . S
H588 C584 0.930 . S
H589 C586 0.929 . S
S590 N591 1.613 1_455 S
S590 N592 1.610 . S
N591 S590 1.613 1_655 S
N591 C594 1.350 . S
N592 S590 1.610 . S
N592 C593 1.351 1_455 S
C593 C587 1.428 . S
C593 N592 1.351 1_655 S
C593 C594 1.434 . S
C594 C585 1.429 . S
C594 N591 1.350 . S
C594 C593 1.434 . S
C595 C596 1.369 . S
C595 C597 1.419 . S
C595 H599 0.930 . S
C596 C595 1.369 . S
C596 C605 1.429 . S
C597 C595 1.419 . S
C597 C598 1.363 . S
C597 H600 0.929 . S
C598 C597 1.363 . S
C598 C604 1.428 . S
H599 C595 0.930 . S
H600 C597 0.929 . S
S601 N602 1.613 . S
S601 N603 1.610 . S
N602 S601 1.613 . S
N602 C605 1.350 . S
N603 S601 1.610 . S
N603 C604 1.351 . S
C604 C598 1.428 . S
C604 N603 1.351 . S
C604 C605 1.434 . S
C605 C596 1.429 . S
C605 N602 1.350 . S
C605 C604 1.434 . S
C606 C607 1.369 . S
C606 C608 1.419 . S
C606 H610 0.930 . S
C607 C606 1.369 . S
C607 C616 1.429 . S
C608 C606 1.419 . S
C608 C609 1.363 . S
C608 H611 0.929 . S
C609 C608 1.363 . S
C609 C615 1.428 . S
H610 C606 0.930 . S
H611 C608 0.929 . S
S612 N613 1.613 . S
S612 N614 1.610 . S
N613 S612 1.613 . S
N613 C616 1.350 . S
N614 S612 1.610 . S
N614 C615 1.351 . S
C615 C609 1.428 . S
C615 N614 1.351 . S
C615 C616 1.434 . S
C616 C607 1.429 . S
C616 N613 1.350 . S
C616 C615 1.434 . S
C617 C618 1.369 . S
C617 C619 1.419 . S
C617 H621 0.930 . S
C618 C617 1.369 . S
C618 C627 1.429 . S
C619 C617 1.419 . S
C619 C620 1.363 . S
C619 H622 0.929 . S
C620 C619 1.363 . S
C620 C626 1.428 . S
H621 C617 0.930 . S
H622 C619 0.929 . S
S623 N624 1.613 . S
S623 N625 1.610 . S
N624 S623 1.613 . S
N624 C627 1.350 . S
N625 S623 1.610 . S
N625 C626 1.351 . S
C626 C620 1.428 . S
C626 N625 1.351 . S
C626 C627 1.434 . S
C627 C618 1.429 . S
C627 N624 1.350 . S
C627 C626 1.434 . S
C628 C629 1.369 . S
C628 C630 1.419 . S
C628 H632 0.930 . S
C629 C628 1.369 . S
C629 C638 1.429 . S
C630 C628 1.419 . S
C630 C631 1.363 . S
C630 H633 0.929 . S
C631 C630 1.363 . S
C631 C637 1.428 . S
H632 C628 0.930 . S
H633 C630 0.929 . S
S634 N635 1.613 . S
S634 N636 1.610 . S
N635 S634 1.613 . S
N635 C638 1.350 . S
N636 S634 1.610 . S
N636 C637 1.351 . S
C637 C631 1.428 . S
C637 N636 1.351 . S
C637 C638 1.434 . S
C638 C629 1.429 . S
C638 N635 1.350 . S
C638 C637 1.434 . S
C639 C640 1.369 . S
C639 C641 1.419 . S
C639 H643 0.930 . S
C640 C639 1.369 . S
C640 C649 1.429 . S
C641 C639 1.419 . S
C641 C642 1.363 . S
C641 H644 0.929 . S
C642 C641 1.363 . S
C642 C648 1.428 . S
H643 C639 0.930 . S
H644 C641 0.929 . S
S645 N646 1.613 . S
S645 N647 1.610 . S
N646 S645 1.613 . S
N646 C649 1.350 . S
N647 S645 1.610 . S
N647 C648 1.351 . S
C648 C642 1.428 . S
C648 N647 1.351 . S
C648 C649 1.434 . S
C649 C640 1.429 . S
C649 N646 1.350 . S
C649 C648 1.434 . S
C650 C651 1.369 . S
C650 C652 1.419 . S
C650 H654 0.930 . S
C651 C650 1.369 . S
C651 C660 1.429 . S
C652 C650 1.419 . S
C652 C653 1.363 . S
C652 H655 0.929 . S
C653 C652 1.363 . S
C653 C659 1.428 . S
H654 C650 0.930 . S
H655 C652 0.929 . S
S656 N657 1.613 . S
S656 N658 1.610 . S
N657 S656 1.613 . S
N657 C660 1.350 . S
N658 S656 1.610 . S
N658 C659 1.351 . S
C659 C653 1.428 . S
C659 N658 1.351 . S
C659 C660 1.434 . S
C660 C651 1.429 . S
C660 N657 1.350 . S
C660 C659 1.434 . S
C661 C662 1.369 . S
C661 C663 1.419 . S
C661 H665 0.930 . S
C662 C661 1.369 . S
C662 C671 1.429 . S
C663 C661 1.419 . S
C663 C664 1.363 . S
C663 H666 0.929 . S
C664 C663 1.363 . S
C664 C670 1.428 . S
H665 C661 0.930 . S
H666 C663 0.929 . S
S667 N668 1.613 1_655 S
S667 N669 1.610 1_655 S
N668 S667 1.613 1_455 S
N668 C671 1.350 . S
N669 S667 1.610 1_455 S
N669 C670 1.351 . S
C670 C664 1.428 . S
C670 N669 1.351 . S
C670 C671 1.434 . S
C671 C662 1.429 . S
C671 N668 1.350 . S
C671 C670 1.434 . S
C672 C673 1.369 . S
C672 C674 1.419 . S
C672 H676 0.930 . S
C673 C672 1.369 . S
C673 C682 1.429 . S
C674 C672 1.419 . S
C674 C675 1.363 . S
C674 H677 0.929 . S
C675 C674 1.363 . S
C675 C681 1.428 1_556 S
H676 C672 0.930 . S
H677 C674 0.929 . S
S678 N679 1.613 . S
S678 N680 1.610 . S
N679 S678 1.613 . S
N679 C682 1.350 1_554 S
N680 S678 1.610 . S
N680 C681 1.351 . S
C681 C675 1.428 1_554 S
C681 N680 1.351 . S
C681 C682 1.434 1_554 S
C682 C673 1.429 . S
C682 N679 1.350 1_556 S
C682 C681 1.434 1_556 S
C683 C684 1.369 . S
C683 C685 1.419 . S
C683 H687 0.930 . S
C684 C683 1.369 . S
C684 C693 1.429 . S
C685 C683 1.419 . S
C685 C686 1.363 . S
C685 H688 0.929 . S
C686 C685 1.363 . S
C686 C692 1.428 . S
H687 C683 0.930 . S
H688 C685 0.929 . S
S689 N690 1.613 . S
S689 N691 1.610 . S
N690 S689 1.613 . S
N690 C693 1.350 . S
N691 S689 1.610 . S
N691 C692 1.351 . S
C692 C686 1.428 . S
C692 N691 1.351 . S
C692 C693 1.434 . S
C693 C684 1.429 . S
C693 N690 1.350 . S
C693 C692 1.434 . S
C694 C695 1.369 . S
C694 C696 1.419 . S
C694 H698 0.930 . S
C695 C694 1.369 . S
C695 C704 1.429 . S
C696 C694 1.419 . S
C696 C697 1.363 . S
C696 H699 0.929 . S
C697 C696 1.363 . S
C697 C703 1.428 . S
H698 C694 0.930 . S
H699 C696 0.929 . S
S700 N701 1.613 . S
S700 N702 1.610 . S
N701 S700 1.613 . S
N701 C704 1.350 . S
N702 S700 1.610 . S
N702 C703 1.351 . S
C703 C697 1.428 . S
C703 N702 1.351 . S
C703 C704 1.434 . S
C704 C695 1.429 . S
C704 N701 1.350 . S
C704 C703 1.434 . S
C705 C706 1.369 . S
C705 C707 1.419 . S
C705 H709 0.930 . S
C706 C705 1.369 . S
C706 C715 1.429 . S
C707 C705 1.419 . S
C707 C708 1.363 . S
C707 H710 0.929 . S
C708 C707 1.363 . S
C708 C714 1.428 . S
H709 C705 0.930 . S
H710 C707 0.929 . S
S711 N712 1.613 . S
S711 N713 1.610 . S
N712 S711 1.613 . S
N712 C715 1.350 . S
N713 S711 1.610 . S
N713 C714 1.351 . S
C714 C708 1.428 . S
C714 N713 1.351 . S
C714 C715 1.434 . S
C715 C706 1.429 . S
C715 N712 1.350 . S
C715 C714 1.434 . S
C716 C717 1.369 . S
C716 C718 1.419 . S
C716 H720 0.930 . S
C717 C716 1.369 . S
C717 C726 1.429 . S
C718 C716 1.419 . S
C718 C719 1.363 . S
C718 H721 0.929 1_556 S
C719 C718 1.363 . S
C719 C725 1.428 . S
H720 C716 0.930 . S
H721 C718 0.929 1_554 S
S722 N723 1.613 . S
S722 N724 1.610 . S
N723 S722 1.613 . S
N723 C726 1.350 . S
N724 S722 1.610 . S
N724 C725 1.351 . S
C725 C719 1.428 . S
C725 N724 1.351 . S
C725 C726 1.434 . S
C726 C717 1.429 . S
C726 N723 1.350 . S
C726 C725 1.434 . S
C727 C728 1.369 . S
C727 C729 1.419 . S
C727 H731 0.930 . S
C728 C727 1.369 . S
C728 C737 1.429 . S
C729 C727 1.419 . S
C729 C730 1.363 . S
C729 H732 0.929 . S
C730 C729 1.363 . S
C730 C736 1.428 . S
H731 C727 0.930 . S
H732 C729 0.929 . S
S733 N734 1.613 1_554 S
S733 N735 1.610 . S
N734 S733 1.613 1_556 S
N734 C737 1.350 . S
N735 S733 1.610 . S
N735 C736 1.351 1_554 S
C736 C730 1.428 . S
C736 N735 1.351 1_556 S
C736 C737 1.434 . S
C737 C728 1.429 . S
C737 N734 1.350 . S
C737 C736 1.434 . S
C738 C739 1.369 . S
C738 C740 1.419 . S
C738 H742 0.930 . S
C739 C738 1.369 . S
C739 C748 1.429 . S
C740 C738 1.419 . S
C740 C741 1.363 . S
C740 H743 0.929 . S
C741 C740 1.363 . S
C741 C747 1.428 . S
H742 C738 0.930 . S
H743 C740 0.929 . S
S744 N745 1.613 . S
S744 N746 1.610 1_556 S
N745 S744 1.613 . S
N745 C748 1.350 . S
N746 S744 1.610 1_554 S
N746 C747 1.351 1_554 S
C747 C741 1.428 . S
C747 N746 1.351 1_556 S
C747 C748 1.434 . S
C748 C739 1.429 . S
C748 N745 1.350 . S
C748 C747 1.434 . S
C749 C750 1.369 . S
C749 C751 1.419 . S
C749 H753 0.930 . S
C750 C749 1.369 . S
C750 C759 1.429 . S
C751 C749 1.419 . S
C751 C752 1.363 . S
C751 H754 0.929 . S
C752 C751 1.363 . S
C752 C758 1.428 . S
H753 C749 0.930 . S
H754 C751 0.929 . S
S755 N756 1.613 1_455 S
S755 N757 1.610 1_455 S
N756 S755 1.613 1_655 S
N756 C759 1.350 . S
N757 S755 1.610 1_655 S
N757 C758 1.351 . S
C758 C752 1.428 . S
C758 N757 1.351 . S
C758 C759 1.434 . S
C759 C750 1.429 . S
C759 N756 1.350 . S
C759 C758 1.434 . S
C760 C761 1.369 . S
C760 C762 1.419 . S
C760 H764 0.930 . S
C761 C760 1.369 . S
C761 C770 1.429 . S
C762 C760 1.419 . S
C762 C763 1.363 . S
C762 H765 0.929 . S
C763 C762 1.363 . S
C763 C769 1.428 . S
H764 C760 0.930 . S
H765 C762 0.929 . S
S766 N767 1.613 . S
S766 N768 1.610 . S
N767 S766 1.613 . S
N767 C770 1.350 . S
N768 S766 1.610 . S
N768 C769 1.351 . S
C769 C763 1.428 . S
C769 N768 1.351 . S
C769 C770 1.434 . S
C770 C761 1.429 . S
C770 N767 1.350 . S
C770 C769 1.434 . S
C771 C772 1.369 . S
C771 C773 1.419 . S
C771 H775 0.930 . S
C772 C771 1.369 . S
C772 C781 1.429 . S
C773 C771 1.419 . S
C773 C774 1.363 . S
C773 H776 0.929 . S
C774 C773 1.363 . S
C774 C780 1.428 . S
H775 C771 0.930 . S
H776 C773 0.929 . S
S777 N778 1.613 . S
S777 N779 1.610 . S
N778 S777 1.613 . S
N778 C781 1.350 . S
N779 S777 1.610 . S
N779 C780 1.351 . S
C780 C774 1.428 . S
C780 N779 1.351 . S
C780 C781 1.434 . S
C781 C772 1.429 . S
C781 N778 1.350 . S
C781 C780 1.434 . S
C782 C783 1.369 . S
C782 C784 1.419 . S
C782 H786 0.930 . S
C783 C782 1.369 . S
C783 C792 1.429 . S
C784 C782 1.419 . S
C784 C785 1.363 . S
C784 H787 0.929 . S
C785 C784 1.363 . S
C785 C791 1.428 . S
H786 C782 0.930 . S
H787 C784 0.929 . S
S788 N789 1.613 . S
S788 N790 1.610 . S
N789 S788 1.613 . S
N789 C792 1.350 . S
N790 S788 1.610 . S
N790 C791 1.351 . S
C791 C785 1.428 . S
C791 N790 1.351 . S
C791 C792 1.434 . S
C792 C783 1.429 . S
C792 N789 1.350 . S
C792 C791 1.434 . S
C793 C794 1.369 . S
C793 C795 1.419 . S
C793 H797 0.930 . S
C794 C793 1.369 . S
C794 C803 1.429 . S
C795 C793 1.419 . S
C795 C796 1.363 . S
C795 H798 0.929 . S
C796 C795 1.363 . S
C796 C802 1.428 . S
H797 C793 0.930 . S
H798 C795 0.929 . S
S799 N800 1.613 . S
S799 N801 1.610 . S
N800 S799 1.613 . S
N800 C803 1.350 1_554 S
N801 S799 1.610 . S
N801 C802 1.351 1_554 S
C802 C796 1.428 . S
C802 N801 1.351 1_556 S
C802 C803 1.434 . S
C803 C794 1.429 . S
C803 N800 1.350 1_556 S
C803 C802 1.434 . S
C804 C805 1.369 . S
C804 C806 1.419 . S
C804 H808 0.930 . S
C805 C804 1.369 . S
C805 C814 1.429 . S
C806 C804 1.419 . S
C806 C807 1.363 . S
C806 H809 0.929 . S
C807 C806 1.363 . S
C807 C813 1.428 . S
H808 C804 0.930 . S
H809 C806 0.929 . S
S810 N811 1.613 . S
S810 N812 1.610 . S
N811 S810 1.613 . S
N811 C814 1.350 . S
N812 S810 1.610 . S
N812 C813 1.351 . S
C813 C807 1.428 . S
C813 N812 1.351 . S
C813 C814 1.434 . S
C814 C805 1.429 . S
C814 N811 1.350 . S
C814 C813 1.434 . S
C815 C816 1.369 . S
C815 C817 1.419 . S
C815 H819 0.930 . S
C816 C815 1.369 . S
C816 C825 1.429 . S
C817 C815 1.419 . S
C817 C818 1.363 . S
C817 H820 0.929 1_556 S
C818 C817 1.363 . S
C818 C824 1.428 . S
H819 C815 0.930 . S
H820 C817 0.929 1_554 S
S821 N822 1.613 . S
S821 N823 1.610 . S
N822 S821 1.613 . S
N822 C825 1.350 . S
N823 S821 1.610 . S
N823 C824 1.351 . S
C824 C818 1.428 . S
C824 N823 1.351 . S
C824 C825 1.434 . S
C825 C816 1.429 . S
C825 N822 1.350 . S
C825 C824 1.434 . S
C826 C827 1.369 . S
C826 C828 1.419 . S
C826 H830 0.930 . S
C827 C826 1.369 . S
C827 C836 1.429 . S
C828 C826 1.419 . S
C828 C829 1.363 . S
C828 H831 0.929 . S
C829 C828 1.363 . S
C829 C835 1.428 . S
H830 C826 0.930 . S
H831 C828 0.929 . S
S832 N833 1.613 . S
S832 N834 1.610 . S
N833 S832 1.613 . S
N833 C836 1.350 . S
N834 S832 1.610 . S
N834 C835 1.351 . S
C835 C829 1.428 . S
C835 N834 1.351 . S
C835 C836 1.434 . S
C836 C827 1.429 . S
C836 N833 1.350 . S
C836 C835 1.434 . S
C837 C838 1.369 . S
C837 C839 1.419 . S
C837 H841 0.930 . S
C838 C837 1.369 . S
C838 C847 1.429 . S
C839 C837 1.419 . S
C839 C840 1.363 . S
C839 H842 0.929 . S
C840 C839 1.363 . S
C840 C846 1.428 . S
H841 C837 0.930 . S
H842 C839 0.929 . S
S843 N844 1.613 . S
S843 N845 1.610 . S
N844 S843 1.613 . S
N844 C847 1.350 . S
N845 S843 1.610 . S
N845 C846 1.351 . S
C846 C840 1.428 . S
C846 N845 1.351 . S
C846 C847 1.434 . S
C847 C838 1.429 . S
C847 N844 1.350 . S
C847 C846 1.434 . S
C848 C849 1.369 . S
C848 C850 1.419 . S
C848 H852 0.930 . S
C849 C848 1.369 . S
C849 C858 1.429 . S
C850 C848 1.419 . S
C850 C851 1.363 . S
C850 H853 0.929 . S
C851 C850 1.363 . S
C851 C857 1.428 . S
H852 C848 0.930 . S
H853 C850 0.929 . S
S854 N855 1.613 . S
S854 N856 1.610 . S
N855 S854 1.613 . S
N855 C858 1.350 . S
N856 S854 1.610 . S
N856 C857 1.351 . S
C857 C851 1.428 . S
C857 N856 1.351 . S
C857 C858 1.434 . S
C858 C849 1.429 . S
C858 N855 1.350 . S
C858 C857 1.434 . S
C859 C860 1.369 . S
C859 C861 1.419 . S
C859 H863 0.930 . S
C860 C859 1.369 . S
C860 C869 1.429 . S
C861 C859 1.419 . S
C861 C862 1.363 . S
C861 H864 0.929 . S
C862 C861 1.363 . S
C862 C868 1.428 . S
H863 C859 0.930 . S
H864 C861 0.929 . S
S865 N866 1.613 . S
S865 N867 1.610 . S
N866 S865 1.613 . S
N866 C869 1.350 . S
N867 S865 1.610 . S
N867 C868 1.351 . S
C868 C862 1.428 . S
C868 N867 1.351 . S
C868 C869 1.434 . S
C869 C860 1.429 . S
C869 N866 1.350 . S
C869 C868 1.434 . S
C870 C871 1.369 . S
C870 C872 1.419 . S
C870 H874 0.930 . S
C871 C870 1.369 . S
C871 C880 1.429 . S
C872 C870 1.419 . S
C872 C873 1.363 . S
C872 H875 0.929 . S
C873 C872 1.363 . S
C873 C879 1.428 . S
H874 C870 0.930 . S
H875 C872 0.929 . S
S876 N877 1.613 . S
S876 N878 1.610 . S
N877 S876 1.613 . S
N877 C880 1.350 . S
N878 S876 1.610 . S
N878 C879 1.351 . S
C879 C873 1.428 . S
C879 N878 1.351 . S
C879 C880 1.434 . S
C880 C871 1.429 . S
C880 N877 1.350 . S
C880 C879 1.434 . S
C881 C882 1.369 . S
C881 C883 1.419 . S
C881 H885 0.930 . S
C882 C881 1.369 . S
C882 C891 1.429 . S
C883 C881 1.419 . S
C883 C884 1.363 . S
C883 H886 0.929 . S
C884 C883 1.363 . S
C884 C890 1.428 . S
H885 C881 0.930 . S
H886 C883 0.929 . S
S887 N888 1.613 . S
S887 N889 1.610 . S
N888 S887 1.613 . S
N888 C891 1.350 . S
N889 S887 1.610 . S
N889 C890 1.351 . S
C890 C884 1.428 . S
C890 N889 1.351 . S
C890 C891 1.434 . S
C891 C882 1.429 . S
C891 N888 1.350 . S
C891 C890 1.434 . S
C892 C893 1.369 . S
C892 C894 1.419 . S
C892 H896 0.930 . S
C893 C892 1.369 . S
C893 C902 1.429 . S
C894 C892 1.419 . S
C894 C895 1.363 . S
C894 H897 0.929 . S
C895 C894 1.363 . S
C895 C901 1.428 . S
H896 C892 0.930 . S
H897 C894 0.929 . S
S898 N899 1.613 . S
S898 N900 1.610 . S
N899 S898 1.613 . S
N899 C902 1.350 . S
N900 S898 1.610 . S
N900 C901 1.351 . S
C901 C895 1.428 . S
C901 N900 1.351 . S
C901 C902 1.434 . S
C902 C893 1.429 . S
C902 N899 1.350 . S
C902 C901 1.434 . S
C903 C904 1.369 . S
C903 C905 1.419 . S
C903 H907 0.930 . S
C904 C903 1.369 . S
C904 C913 1.429 . S
C905 C903 1.419 . S
C905 C906 1.363 . S
C905 H908 0.929 . S
C906 C905 1.363 . S
C906 C912 1.428 . S
H907 C903 0.930 . S
H908 C905 0.929 . S
S909 N910 1.613 . S
S909 N911 1.610 . S
N910 S909 1.613 . S
N910 C913 1.350 . S
N911 S909 1.610 . S
N911 C912 1.351 . S
C912 C906 1.428 . S
C912 N911 1.351 . S
C912 C913 1.434 . S
C913 C904 1.429 . S
C913 N910 1.350 . S
C913 C912 1.434 . S
C914 C915 1.369 . S
C914 C916 1.419 . S
C914 H918 0.930 . S
C915 C914 1.369 . S
C915 C924 1.429 . S
C916 C914 1.419 . S
C916 C917 1.363 . S
C916 H919 0.929 . S
C917 C916 1.363 . S
C917 C923 1.428 . S
H918 C914 0.930 . S
H919 C916 0.929 . S
S920 N921 1.613 . S
S920 N922 1.610 . S
N921 S920 1.613 . S
N921 C924 1.350 . S
N922 S920 1.610 . S
N922 C923 1.351 . S
C923 C917 1.428 . S
C923 N922 1.351 . S
C923 C924 1.434 . S
C924 C915 1.429 . S
C924 N921 1.350 . S
C924 C923 1.434 . S
C925 C926 1.369 . S
C925 C927 1.419 . S
C925 H929 0.930 . S
C926 C925 1.369 . S
C926 C935 1.429 . S
C927 C925 1.419 . S
C927 C928 1.363 . S
C927 H930 0.929 . S
C928 C927 1.363 . S
C928 C934 1.428 . S
H929 C925 0.930 . S
H930 C927 0.929 . S
S931 N932 1.613 . S
S931 N933 1.610 . S
N932 S931 1.613 . S
N932 C935 1.350 . S
N933 S931 1.610 . S
N933 C934 1.351 . S
C934 C928 1.428 . S
C934 N933 1.351 . S
C934 C935 1.434 . S
C935 C926 1.429 . S
C935 N932 1.350 . S
C935 C934 1.434 . S
C936 C937 1.369 . S
C936 C938 1.419 . S
C936 H940 0.930 . S
C937 C936 1.369 . S
C937 C946 1.429 . S
C938 C936 1.419 . S
C938 C939 1.363 . S
C938 H941 0.929 . S
C939 C938 1.363 . S
C939 C945 1.428 . S
H940 C936 0.930 . S
H941 C938 0.929 . S
S942 N943 1.613 . S
S942 N944 1.610 . S
N943 S942 1.613 . S
N943 C946 1.350 . S
N944 S942 1.610 . S
N944 C945 1.351 . S
C945 C939 1.428 . S
C945 N944 1.351 . S
C945 C946 1.434 . S
C946 C937 1.429 . S
C946 N943 1.350 . S
C946 C945 1.434 . S
C947 C948 1.369 . S
C947 C949 1.419 . S
C947 H951 0.930 . S
C948 C947 1.369 . S
C948 C957 1.429 . S
C949 C947 1.419 . S
C949 C950 1.363 . S
C949 H952 0.929 . S
C950 C949 1.363 . S
C950 C956 1.428 . S
H951 C947 0.930 . S
H952 C949 0.929 . S
S953 N954 1.613 . S
S953 N955 1.610 . S
N954 S953 1.613 . S
N954 C957 1.350 . S
N955 S953 1.610 . S
N955 C956 1.351 . S
C956 C950 1.428 . S
C956 N955 1.351 . S
C956 C957 1.434 . S
C957 C948 1.429 . S
C957 N954 1.350 . S
C957 C956 1.434 . S
C958 C959 1.369 . S
C958 C960 1.419 . S
C958 H962 0.930 . S
C959 C958 1.369 . S
C959 C968 1.429 . S
C960 C958 1.419 . S
C960 C961 1.363 . S
C960 H963 0.929 . S
C961 C960 1.363 . S
C961 C967 1.428 . S
H962 C958 0.930 . S
H963 C960 0.929 . S
S964 N965 1.613 . S
S964 N966 1.610 . S
N965 S964 1.613 . S
N965 C968 1.350 . S
N966 S964 1.610 . S
N966 C967 1.351 . S
C967 C961 1.428 . S
C967 N966 1.351 . S
C967 C968 1.434 . S
C968 C959 1.429 . S
C968 N965 1.350 . S
C968 C967 1.434 . S
C969 C970 1.369 . S
C969 C971 1.419 . S
C969 H973 0.930 . S
C970 C969 1.369 . S
C970 C979 1.429 . S
C971 C969 1.419 . S
C971 C972 1.363 . S
C971 H974 0.929 . S
C972 C971 1.363 . S
C972 C978 1.428 . S
H973 C969 0.930 . S
H974 C971 0.929 . S
S975 N976 1.613 . S
S975 N977 1.610 . S
N976 S975 1.613 . S
N976 C979 1.350 . S
N977 S975 1.610 . S
N977 C978 1.351 . S
C978 C972 1.428 . S
C978 N977 1.351 . S
C978 C979 1.434 . S
C979 C970 1.429 . S
C979 N976 1.350 . S
C979 C978 1.434 . S
C980 C981 1.369 . S
C980 C982 1.419 . S
C980 H984 0.930 . S
C981 C980 1.369 . S
C981 C990 1.429 . S
C982 C980 1.419 . S
C982 C983 1.363 . S
C982 H985 0.929 . S
C983 C982 1.363 . S
C983 C989 1.428 . S
H984 C980 0.930 . S
H985 C982 0.929 . S
S986 N987 1.613 . S
S986 N988 1.610 . S
N987 S986 1.613 . S
N987 C990 1.350 . S
N988 S986 1.610 . S
N988 C989 1.351 . S
C989 C983 1.428 . S
C989 N988 1.351 . S
C989 C990 1.434 . S
C990 C981 1.429 . S
C990 N987 1.350 . S
C990 C989 1.434 . S
C991 C992 1.369 . S
C991 C993 1.419 . S
C991 H995 0.930 . S
C992 C991 1.369 . S
C992 C1001 1.429 . S
C993 C991 1.419 . S
C993 C994 1.363 . S
C993 H996 0.929 . S
C994 C993 1.363 . S
C994 C1000 1.428 . S
H995 C991 0.930 . S
H996 C993 0.929 . S
S997 N998 1.613 . S
S997 N999 1.610 . S
N998 S997 1.613 . S
N998 C1001 1.350 . S
N999 S997 1.610 . S
N999 C1000 1.351 . S
C1000 C994 1.428 . S
C1000 N999 1.351 . S
C1000 C1001 1.434 . S
C1001 C992 1.429 . S
C1001 N998 1.350 . S
C1001 C1000 1.434 . S
C1002 C1003 1.369 . S
C1002 C1004 1.419 . S
C1002 H1006 0.930 . S
C1003 C1002 1.369 . S
C1003 C1012 1.429 . S
C1004 C1002 1.419 . S
C1004 C1005 1.363 . S
C1004 H1007 0.929 . S
C1005 C1004 1.363 . S
C1005 C1011 1.428 . S
H1006 C1002 0.930 . S
H1007 C1004 0.929 . S
S1008 N1009 1.613 . S
S1008 N1010 1.610 . S
N1009 S1008 1.613 . S
N1009 C1012 1.350 . S
N1010 S1008 1.610 . S
N1010 C1011 1.351 . S
C1011 C1005 1.428 . S
C1011 N1010 1.351 . S
C1011 C1012 1.434 . S
C1012 C1003 1.429 . S
C1012 N1009 1.350 . S
C1012 C1011 1.434 . S
C1013 C1014 1.369 . S
C1013 C1015 1.419 . S
C1013 H1017 0.930 . S
C1014 C1013 1.369 . S
C1014 C1023 1.429 . S
C1015 C1013 1.419 . S
C1015 C1016 1.363 . S
C1015 H1018 0.929 . S
C1016 C1015 1.363 . S
C1016 C1022 1.428 . S
H1017 C1013 0.930 . S
H1018 C1015 0.929 . S
S1019 N1020 1.613 . S
S1019 N1021 1.610 . S
N1020 S1019 1.613 . S
N1020 C1023 1.350 . S
N1021 S1019 1.610 . S
N1021 C1022 1.351 . S
C1022 C1016 1.428 . S
C1022 N1021 1.351 . S
C1022 C1023 1.434 . S
C1023 C1014 1.429 . S
C1023 N1020 1.350 . S
C1023 C1022 1.434 . S
C1024 C1025 1.369 . S
C1024 C1026 1.419 . S
C1024 H1028 0.930 . S
C1025 C1024 1.369 . S
C1025 C1034 1.429 . S
C1026 C1024 1.419 . S
C1026 C1027 1.363 . S
C1026 H1029 0.929 . S
C1027 C1026 1.363 . S
C1027 C1033 1.428 . S
H1028 C1024 0.930 . S
H1029 C1026 0.929 . S
S1030 N1031 1.613 . S
S1030 N1032 1.610 . S
N1031 S1030 1.613 . S
N1031 C1034 1.350 . S
N1032 S1030 1.610 . S
N1032 C1033 1.351 . S
C1033 C1027 1.428 . S
C1033 N1032 1.351 . S
C1033 C1034 1.434 . S
C1034 C1025 1.429 . S
C1034 N1031 1.350 . S
C1034 C1033 1.434 . S
C1035 C1036 1.369 . S
C1035 C1037 1.419 . S
C1035 H1039 0.930 . S
C1036 C1035 1.369 . S
C1036 C1045 1.429 . S
C1037 C1035 1.419 . S
C1037 C1038 1.363 . S
C1037 H1040 0.929 . S
C1038 C1037 1.363 . S
C1038 C1044 1.428 . S
H1039 C1035 0.930 . S
H1040 C1037 0.929 . S
S1041 N1042 1.613 . S
S1041 N1043 1.610 . S
N1042 S1041 1.613 . S
N1042 C1045 1.350 . S
N1043 S1041 1.610 . S
N1043 C1044 1.351 . S
C1044 C1038 1.428 . S
C1044 N1043 1.351 . S
C1044 C1045 1.434 . S
C1045 C1036 1.429 . S
C1045 N1042 1.350 . S
C1045 C1044 1.434 . S
C521 C347 1.369 . S
C519 C2 1.535 . S
C532 C348 0.536 . S
C530 C65 0.534 . S
C543 C342 1.391 . S
C541 C82 1.451 . S
C552 C145 0.590 . S
C554 C341 0.585 . S
C563 C164 0.708 . S
C565 C344 0.710 . S
C576 C346 1.378 . S
C574 C223 1.444 . S
C585 C244 0.956 . S
C587 C345 0.978 . S
C596 C282 1.547 . S
C598 C343 1.419 . S
C609 C378 3.318 . S
C607 C31 3.257 . S
C618 C60 1.958 . S
C620 C409 1.809 . S
C631 C377 3.488 . S
C629 C111 3.484 . S
C642 C412 1.601 . S
C640 C140 1.609 . S
C651 C162 1.848 . S
C653 C375 1.788 1_556 S
C664 C407 1.500 . S
C662 C225 1.470 . S
C673 C242 1.748 . S
C675 C380 1.693 1_556 S
C684 C311 2.422 . S
C686 C414 2.399 . S
C695 C4 1.078 . S
C697 C410 1.082 . S
C706 C191 1.429 . S
C708 C413 1.473 . S
C719 C381 2.791 . S
C717 C220 2.840 . S
C730 C408 1.122 . S
C728 C271 1.169 . S
C739 C284 1.643 . S
C741 C374 1.740 1_556 S
C750 C84 0.966 . S
C752 C411 0.957 . S
C763 C376 1.081 . S
C761 C143 1.099 . S
C772 C63 1.477 . S
C774 C379 1.481 . S
C783 C303 1.507 . S
C785 C446 1.336 . S
C794 C185 0.553 . S
C796 C447 0.369 . S
C807 C441 1.507 . S
C805 C202 1.592 . S
C818 C440 1.100 . S
C816 C265 1.084 . S
C827 C44 0.493 . S
C829 C443 0.560 . S
C840 C445 1.603 . S
C838 C103 1.685 . S
C849 C124 0.887 . S
C851 C444 0.899 . S
C860 C23 1.516 . S
C862 C442 1.395 . S
C871 C305 1.712 . S
C873 C480 1.726 . S
C884 C512 1.028 . S
C882 C180 1.048 . S
C893 C231 2.719 . S
C895 C473 2.728 . S
C904 C260 1.543 . S
C906 C507 1.580 . S
C917 C478 1.267 . S
C915 C42 1.219 . S
C926 C105 1.238 . S
C928 C509 1.278 . S
C939 C475 1.418 . S
C937 C122 1.390 . S
C950 C510 1.213 . S
C948 C25 1.122 . S
C961 C506 2.493 . S
C959 C300 2.382 . S
C970 C71 1.667 . S
C972 C508 1.596 . S
C981 C100 3.372 . S
C983 C477 3.387 . S
C994 C511 1.880 . S
C992 C151 1.933 . S
C1003 C20 3.501 . S
C1005 C476 3.424 . S
C1014 C204 1.702 . S
C1016 C513 1.811 . S
C1027 C479 1.780 . S
C1025 C263 1.920 . S
C1038 C474 1.775 . S
C1036 C183 1.654 . S
