# Generated by pormake.
# Topology soc, (4,6)-cn, num edge types: 1
# Building blocks:
#     Node 0, Type 0, BuildingBlock: ESEHIV_clean_sbu_0, # of connection points: 4
#     Node 1, Type 0, BuildingBlock: ESEHIV_clean_sbu_0, # of connection points: 4
#     Node 2, Type 0, BuildingBlock: ESEHIV_clean_sbu_0, # of connection points: 4
#     Node 3, Type 0, BuildingBlock: ESEHIV_clean_sbu_0, # of connection points: 4
#     Node 4, Type 0, BuildingBlock: ESEHIV_clean_sbu_0, # of connection points: 4
#     Node 5, Type 0, BuildingBlock: ESEHIV_clean_sbu_0, # of connection points: 4
#     Node 6, Type 0, BuildingBlock: ESEHIV_clean_sbu_0, # of connection points: 4
#     Node 7, Type 0, BuildingBlock: ESEHIV_clean_sbu_0, # of connection points: 4
#     Node 8, Type 0, BuildingBlock: ESEHIV_clean_sbu_0, # of connection points: 4
#     Node 9, Type 0, BuildingBlock: ESEHIV_clean_sbu_0, # of connection points: 4
#     Node 10, Type 0, BuildingBlock: ESEHIV_clean_sbu_0, # of connection points: 4
#     Node 11, Type 0, BuildingBlock: ESEHIV_clean_sbu_0, # of connection points: 4
#     Node 12, Type 1, BuildingBlock: BETDIP_clean_sbu_0, # of connection points: 6
#     Node 13, Type 1, BuildingBlock: BETDIP_clean_sbu_0, # of connection points: 6
#     Node 14, Type 1, BuildingBlock: BETDIP_clean_sbu_0, # of connection points: 6
#     Node 15, Type 1, BuildingBlock: BETDIP_clean_sbu_0, # of connection points: 6
#     Node 16, Type 1, BuildingBlock: BETDIP_clean_sbu_0, # of connection points: 6
#     Node 17, Type 1, BuildingBlock: BETDIP_clean_sbu_0, # of connection points: 6
#     Node 18, Type 1, BuildingBlock: BETDIP_clean_sbu_0, # of connection points: 6
#     Node 19, Type 1, BuildingBlock: BETDIP_clean_sbu_0, # of connection points: 6
#     Edge 20, Type (0, 1), BuildingBlock: AJUNOK_clean_linker_0, # of connection points: 2
#     Edge 21, Type (0, 1), BuildingBlock: AJUNOK_clean_linker_0, # of connection points: 2
#     Edge 22, Type (0, 1), BuildingBlock: AJUNOK_clean_linker_0, # of connection points: 2
#     Edge 23, Type (0, 1), BuildingBlock: AJUNOK_clean_linker_0, # of connection points: 2
#     Edge 24, Type (0, 1), BuildingBlock: AJUNOK_clean_linker_0, # of connection points: 2
#     Edge 25, Type (0, 1), BuildingBlock: AJUNOK_clean_linker_0, # of connection points: 2
#     Edge 26, Type (0, 1), BuildingBlock: AJUNOK_clean_linker_0, # of connection points: 2
#     Edge 27, Type (0, 1), BuildingBlock: AJUNOK_clean_linker_0, # of connection points: 2
#     Edge 28, Type (0, 1), BuildingBlock: AJUNOK_clean_linker_0, # of connection points: 2
#     Edge 29, Type (0, 1), BuildingBlock: AJUNOK_clean_linker_0, # of connection points: 2
#     Edge 30, Type (0, 1), BuildingBlock: AJUNOK_clean_linker_0, # of connection points: 2
#     Edge 31, Type (0, 1), BuildingBlock: AJUNOK_clean_linker_0, # of connection points: 2
#     Edge 32, Type (0, 1), BuildingBlock: AJUNOK_clean_linker_0, # of connection points: 2
#     Edge 33, Type (0, 1), BuildingBlock: AJUNOK_clean_linker_0, # of connection points: 2
#     Edge 34, Type (0, 1), BuildingBlock: AJUNOK_clean_linker_0, # of connection points: 2
#     Edge 35, Type (0, 1), BuildingBlock: AJUNOK_clean_linker_0, # of connection points: 2
#     Edge 36, Type (0, 1), BuildingBlock: AJUNOK_clean_linker_0, # of connection points: 2
#     Edge 37, Type (0, 1), BuildingBlock: AJUNOK_clean_linker_0, # of connection points: 2
#     Edge 38, Type (0, 1), BuildingBlock: AJUNOK_clean_linker_0, # of connection points: 2
#     Edge 39, Type (0, 1), BuildingBlock: AJUNOK_clean_linker_0, # of connection points: 2
#     Edge 40, Type (0, 1), BuildingBlock: AJUNOK_clean_linker_0, # of connection points: 2
#     Edge 41, Type (0, 1), BuildingBlock: AJUNOK_clean_linker_0, # of connection points: 2
#     Edge 42, Type (0, 1), BuildingBlock: AJUNOK_clean_linker_0, # of connection points: 2
#     Edge 43, Type (0, 1), BuildingBlock: AJUNOK_clean_linker_0, # of connection points: 2
#     Edge 44, Type (0, 1), BuildingBlock: AJUNOK_clean_linker_0, # of connection points: 2
#     Edge 45, Type (0, 1), BuildingBlock: AJUNOK_clean_linker_0, # of connection points: 2
#     Edge 46, Type (0, 1), BuildingBlock: AJUNOK_clean_linker_0, # of connection points: 2
#     Edge 47, Type (0, 1), BuildingBlock: AJUNOK_clean_linker_0, # of connection points: 2
#     Edge 48, Type (0, 1), BuildingBlock: AJUNOK_clean_linker_0, # of connection points: 2
#     Edge 49, Type (0, 1), BuildingBlock: AJUNOK_clean_linker_0, # of connection points: 2
#     Edge 50, Type (0, 1), BuildingBlock: AJUNOK_clean_linker_0, # of connection points: 2
#     Edge 51, Type (0, 1), BuildingBlock: AJUNOK_clean_linker_0, # of connection points: 2
#     Edge 52, Type (0, 1), BuildingBlock: AJUNOK_clean_linker_0, # of connection points: 2
#     Edge 53, Type (0, 1), BuildingBlock: AJUNOK_clean_linker_0, # of connection points: 2
#     Edge 54, Type (0, 1), BuildingBlock: AJUNOK_clean_linker_0, # of connection points: 2
#     Edge 55, Type (0, 1), BuildingBlock: AJUNOK_clean_linker_0, # of connection points: 2
#     Edge 56, Type (0, 1), BuildingBlock: AJUNOK_clean_linker_0, # of connection points: 2
#     Edge 57, Type (0, 1), BuildingBlock: AJUNOK_clean_linker_0, # of connection points: 2
#     Edge 58, Type (0, 1), BuildingBlock: AJUNOK_clean_linker_0, # of connection points: 2
#     Edge 59, Type (0, 1), BuildingBlock: AJUNOK_clean_linker_0, # of connection points: 2
#     Edge 60, Type (0, 1), BuildingBlock: AJUNOK_clean_linker_0, # of connection points: 2
#     Edge 61, Type (0, 1), BuildingBlock: AJUNOK_clean_linker_0, # of connection points: 2
#     Edge 62, Type (0, 1), BuildingBlock: AJUNOK_clean_linker_0, # of connection points: 2
#     Edge 63, Type (0, 1), BuildingBlock: AJUNOK_clean_linker_0, # of connection points: 2
#     Edge 64, Type (0, 1), BuildingBlock: AJUNOK_clean_linker_0, # of connection points: 2
#     Edge 65, Type (0, 1), BuildingBlock: AJUNOK_clean_linker_0, # of connection points: 2
#     Edge 66, Type (0, 1), BuildingBlock: AJUNOK_clean_linker_0, # of connection points: 2
#     Edge 67, Type (0, 1), BuildingBlock: AJUNOK_clean_linker_0, # of connection points: 2
# Relax obj value: 0.269
# Max RMSD: 0.415
# Mean RMSD: 0.228
data_MOF--net-soc--node1-ESEHIV_clean_sbu_0--node2-BETDIP_clean_sbu_0--edge1-AJUNOK_clean_linker_0
_symmetry_space_group_name_H-M    P1
_symmetry_Int_Tables_number       1
_symmetry_cell_setting            triclinic
loop_
_symmetry_equiv_pos_as_xyz
'x, y, z'
_cell_length_a     34.109821
_cell_length_b     44.167585
_cell_length_c     31.026676
_cell_angle_alpha  92.044792
_cell_angle_beta   92.74846
_cell_angle_gamma 63.472151
loop_
_atom_site_label
_atom_site_type_symbol
_atom_site_fract_x
_atom_site_fract_y
_atom_site_fract_z
_atom_type_partial_charge
Cu0 Cu 0.08679 0.09655 0.35373 0.0
N1 N 0.10343 0.12254 0.39217 0.0
N2 N 0.12913 0.15951 0.41325 0.0
C3 C 0.13125 0.13554 0.38385 0.0
C4 C 0.09843 0.16187 0.44082 0.0
C5 C 0.08246 0.13927 0.42758 0.0
O6 O 0.1397 0.06162 0.32818 0.0
C7 C 1.00387 0.14576 0.32355 0.0
O8 O 0.98878 0.13245 0.35168 0.0
H9 H 0.15064 0.12902 0.35532 0.0
H10 H 0.05493 0.13729 0.44074 0.0
N11 N 0.06167 0.07338 0.38304 0.0
N12 N 1.03364 0.03732 0.39515 0.0
C13 C 1.04263 0.05467 0.36525 0.0
C14 C 0.06503 0.0675 0.42564 0.0
C15 C 1.04763 0.0455 0.43321 0.0
C16 C 0.13781 0.03998 0.30104 0.0
O17 O 0.09958 0.04542 0.28326 0.0
H18 H 1.03766 0.05246 0.33088 0.0
H19 H 0.08105 0.07709 0.44939 0.0
O20 O 1.04445 0.13064 0.31495 0.0
H21 H 0.0858 0.18048 0.46661 0.0
H22 H 1.04663 0.03547 0.46425 0.0
Cu23 Cu 0.0639 0.10203 0.74176 0.0
N24 N 1.03131 0.0831 0.71217 0.0
N25 N 0.99572 0.05143 0.70422 0.0
C26 C 1.01825 0.06269 0.7316 0.0
C27 C 0.99498 0.06496 0.66569 0.0
C28 C 1.01686 0.08474 0.67075 0.0
O29 O 1.02237 0.14344 0.7717 0.0
C30 C 0.13561 0.04139 0.74696 0.0
O31 O 0.12661 0.04633 0.70545 0.0
H32 H 1.0264 0.05547 0.76503 0.0
H33 H 1.02175 0.09921 0.64603 0.0
N34 N 0.09324 0.11741 0.70605 0.0
N35 N 0.13491 0.14265 0.69235 0.0
C36 C 0.11354 0.13533 0.72246 0.0
C37 C 0.10145 0.11346 0.66364 0.0
C38 C 0.12706 0.12936 0.65501 0.0
C39 C 0.99544 0.16454 0.74455 0.0
O40 O 0.99813 0.15493 0.70381 0.0
H41 H 0.11203 0.1432 0.75602 0.0
H42 H 0.09049 0.09954 0.64084 0.0
O43 O 0.11045 0.06394 0.77328 0.0
H44 H 0.97964 0.0609 0.63616 0.0
H45 H 0.13948 0.13062 0.624 0.0
Cu46 Cu 0.3255 0.16756 0.04948 0.0
N47 N 0.28198 0.15825 1.02253 0.0
N48 N 0.2504 0.12564 0.99969 0.0
C49 C 0.28359 0.12736 1.02302 0.0
C50 C 0.22711 0.15668 0.98285 0.0
C51 C 0.24651 0.177 0.99746 0.0
O52 O 0.36073 0.12769 0.08354 0.0
C53 C 0.3591 0.17016 0.96758 0.0
O54 O 0.34044 0.15114 0.95352 0.0
H55 H 0.31023 0.10585 1.0382 0.0
H56 H 0.23643 0.20311 0.98926 0.0
N57 N 0.30166 0.20416 0.08747 0.0
N58 N 0.29827 0.23624 0.14545 0.0
C59 C 0.32474 0.21228 0.11812 0.0
C60 C 0.25915 0.22401 0.09522 0.0
C61 C 0.25697 0.2439 0.13117 0.0
C62 C 0.34233 0.12325 0.11596 0.0
O63 O 0.30385 0.14723 0.12648 0.0
H64 H 0.36014 0.19951 0.12178 0.0
H65 H 0.2318 0.22295 0.07727 0.0
O66 O 0.35807 0.17803 1.00754 0.0
H67 H 0.19892 0.16384 0.96083 0.0
H68 H 0.22745 0.26196 0.14628 0.0
Cu69 Cu 0.09089 0.35068 0.06019 0.0
N70 N 0.13693 0.33144 1.0222 0.0
N71 N 0.18504 0.32931 0.97429 0.0
C72 C 0.15423 0.34899 1.00208 0.0
C73 C 0.18706 0.29819 0.97702 0.0
C74 C 0.15734 0.29959 1.00651 0.0
O75 O 0.11028 0.37456 0.10687 0.0
C76 C 1.02695 0.35001 1.00036 0.0
O77 O 0.05493 0.31787 1.00314 0.0
H78 H 0.14303 0.37595 1.00654 0.0
H79 H 0.15027 0.27903 1.01467 0.0
N80 N 0.08209 0.31931 0.0915 0.0
N81 N 1.04641 0.30514 0.13874 0.0
C82 C 1.04802 0.33041 0.1174 0.0
C83 C 0.10315 0.28548 0.09646 0.0
C84 C 0.08061 0.27657 0.1255 0.0
C85 C 0.14569 0.35435 0.12735 0.0
O86 O 0.16416 0.32254 0.11441 0.0
H87 H 1.02452 0.35678 0.12032 0.0
H88 H 0.13291 0.26854 0.08093 0.0
O89 O 1.03557 0.37161 1.02281 0.0
H90 H 0.2082 0.27605 0.95861 0.0
H91 H 0.08904 0.25137 0.13662 0.0
Cu92 Cu 0.82389 0.03056 1.03024 0.0
N93 N 0.87059 0.03361 1.00552 0.0
N94 N 0.90246 0.06483 0.98406 0.0
C95 C 0.88399 0.05722 1.0169 0.0
C96 C 0.9034 0.04321 0.95172 0.0
C97 C 0.88357 0.02412 0.96497 0.0
O98 O 0.79229 0.07315 0.06198 0.0
C99 C 0.76756 0.0062 0.98479 0.0
O100 O 0.75949 0.99868 1.02289 0.0
H101 H 0.87639 0.07078 0.04731 0.0
H102 H 0.87421 0.00785 0.94464 0.0
N103 N 0.84469 0.99486 0.06822 0.0
N104 N 0.84755 0.96433 0.12468 0.0
C105 C 0.82207 0.99086 0.09999 0.0
C106 C 0.88584 0.97002 0.07289 0.0
C107 C 0.88774 0.9511 0.10802 0.0
C108 C 0.80921 0.0771 0.09806 0.0
O109 O 0.84431 0.05136 0.11362 0.0
H110 H 0.78813 0.00788 0.10594 0.0
H111 H 0.91271 0.96654 0.0529 0.0
O112 O 0.79079 0.02197 0.98251 0.0
H113 H 0.91247 0.04414 0.91903 0.0
H114 H 0.91635 0.9295 0.12058 0.0
Cu115 Cu 0.06294 0.85035 0.05026 0.0
N116 N 1.01279 0.87455 1.01588 0.0
N117 N 0.95655 0.8803 0.97131 0.0
C118 C 0.9878 0.86016 0.99953 0.0
C119 C 0.96207 0.90864 0.96957 0.0
C120 C 0.99683 0.90509 0.99735 0.0
O121 O 1.04329 0.82466 0.09006 0.0
C122 C 0.12234 0.85049 0.99072 0.0
O123 O 0.09956 0.88271 1.00041 0.0
H124 H 0.994 0.83454 1.00659 0.0
H125 H 1.0104 0.92292 1.00234 0.0
N126 N 0.08096 0.87706 0.08567 0.0
N127 N 0.12607 0.88619 0.13284 0.0
C128 C 0.11893 0.8631 0.10878 0.0
C129 C 0.06341 0.91048 0.09478 0.0
C130 C 0.09155 0.91623 0.1239 0.0
C131 C 1.03179 0.83529 0.12896 0.0
O132 O 1.03863 0.86056 0.14462 0.0
H133 H 0.14108 0.83633 0.10758 0.0
H134 H 1.03247 0.92918 0.08151 0.0
O135 O 0.11219 0.82913 1.00864 0.0
H136 H 0.94287 0.93006 0.94921 0.0
H137 H 0.08676 0.94039 0.13788 0.0
Cu138 Cu 0.55371 0.59634 0.85588 0.0
N139 N 0.58447 0.61636 0.88701 0.0
N140 N 0.61977 0.64832 0.89743 0.0
C141 C 0.59517 0.6391 0.86983 0.0
C142 C 0.62407 0.63118 0.93393 0.0
C143 C 0.60251 0.61118 0.92727 0.0
O144 O 0.59517 0.55552 0.8264 0.0
C145 C 0.47126 0.64742 0.82475 0.0
O146 O 0.45411 0.63323 0.84939 0.0
H147 H 0.58543 0.64836 0.83735 0.0
H148 H 0.60084 0.5937 0.9498 0.0
N149 N 0.52452 0.58049 0.89147 0.0
N150 N 0.49595 0.54667 0.91155 0.0
C151 C 0.51349 0.55568 0.8793 0.0
C152 C 0.51377 0.58746 0.93308 0.0
C153 C 0.49632 0.56639 0.94567 0.0
C154 C 0.63612 0.54685 0.82551 0.0
O155 O 0.65034 0.56933 0.83615 0.0
H156 H 0.52005 0.54347 0.8478 0.0
H157 H 0.51922 0.60587 0.95309 0.0
O158 O 0.51239 0.6325 0.81888 0.0
H159 H 0.64235 0.6324 0.96288 0.0
H160 H 0.48533 0.56531 0.97749 0.0
Cu161 Cu 0.58623 0.59819 0.24226 0.0
N162 N 0.55644 0.57573 0.21584 0.0
N163 N 0.52294 0.54254 0.21245 0.0
C164 C 0.53866 0.55992 0.23838 0.0
C165 C 0.53068 0.54776 0.17186 0.0
C166 C 0.55198 0.56803 0.17406 0.0
O167 O 0.544 0.63711 0.27561 0.0
C168 C 0.66371 0.54058 0.24353 0.0
O169 O 0.65564 0.5482 0.20246 0.0
H170 H 0.53808 0.56065 0.27327 0.0
H171 H 0.5648 0.57532 0.14727 0.0
N172 N 0.60634 0.61817 0.20264 0.0
N173 N 0.6381 0.64966 0.18259 0.0
C174 C 0.63571 0.62988 0.21339 0.0
C175 C 0.58936 0.631 0.16359 0.0
C176 C 0.60915 0.65034 0.151 0.0
C177 C 0.50844 0.65503 0.25419 0.0
O178 O 0.50302 0.64426 0.21543 0.0
H179 H 0.65279 0.62579 0.24456 0.0
H180 H 0.56198 0.629 0.1471 0.0
O181 O 0.63738 0.56126 0.27078 0.0
H182 H 0.52314 0.53658 0.143 0.0
H183 H 0.60014 0.66599 0.12269 0.0
Cu184 Cu 0.8011 0.67633 0.56663 0.0
N185 N 0.79684 0.70631 0.52409 0.0
N186 N 0.81588 0.7246 0.46655 0.0
C187 C 0.82986 0.70227 0.49876 0.0
C188 C 0.77252 0.74329 0.47142 0.0
C189 C 0.76075 0.73201 0.50722 0.0
O190 O 0.82951 0.68383 0.61931 0.0
C191 C 0.81318 0.62661 0.50512 0.0
O192 O 0.78126 0.65306 0.48676 0.0
H193 H 0.86298 0.68232 0.50263 0.0
H194 H 0.72802 0.74079 0.51891 0.0
N195 N 0.74647 0.68226 0.58475 0.0
N196 N 0.72359 0.64961 0.61919 0.0
C197 C 0.73696 0.65578 0.58166 0.0
C198 C 0.73241 0.69633 0.6237 0.0
C199 C 0.71864 0.67616 0.64509 0.0
C200 C 0.8523 0.70012 0.62201 0.0
O201 O 0.8654 0.70744 0.58645 0.0
H202 H 0.74714 0.63779 0.55518 0.0
H203 H 0.7401 0.71553 0.63891 0.0
O204 O 0.8297 0.63078 0.54132 0.0
H205 H 0.75104 0.76303 0.44993 0.0
H206 H 0.71306 0.67772 0.67935 0.0
Cu207 Cu 0.5767 0.85718 0.55291 0.0
N208 N 0.62148 0.83391 0.51177 0.0
N209 N 0.6703 0.82837 0.46091 0.0
C210 C 0.64713 0.84672 0.49516 0.0
C211 C 0.65846 0.80304 0.45579 0.0
C212 C 0.62886 0.80636 0.48695 0.0
O213 O 0.60124 0.88152 0.58961 0.0
C214 C 0.50944 0.86556 0.49927 0.0
O215 O 0.52943 0.83281 0.50558 0.0
H216 H 0.64707 0.87015 0.50673 0.0
H217 H 0.61267 0.79041 0.4901 0.0
N218 N 0.55795 0.83232 0.58972 0.0
N219 N 0.51433 0.82238 0.63445 0.0
C220 C 0.51871 0.84519 0.60931 0.0
C221 C 0.57921 0.80018 0.6032 0.0
C222 C 0.55262 0.79403 0.63055 0.0
C223 C 0.60027 0.88343 0.63067 0.0
O224 O 0.57106 0.87786 0.6505 0.0
H225 H 0.49377 0.87098 0.60523 0.0
H226 H 0.612 0.78254 0.59429 0.0
O227 O 0.52483 0.88435 0.51785 0.0
H228 H 0.67023 0.78341 0.43107 0.0
H229 H 0.56148 0.77063 0.64721 0.0
Cu230 Cu 0.33003 0.53294 0.5575 0.0
N231 N 0.37501 0.54083 0.53689 0.0
N232 N 0.40513 0.57166 0.51054 0.0
C233 C 0.3737 0.57164 0.53526 0.0
C234 C 0.42705 0.53953 0.49578 0.0
C235 C 0.40845 0.52048 0.51226 0.0
O236 O 0.29506 0.57205 0.5926 0.0
C237 C 0.26605 0.52007 0.50771 0.0
O238 O 0.24809 0.52127 0.54462 0.0
H239 H 0.34755 0.59426 0.54849 0.0
H240 H 0.41654 0.49436 0.50424 0.0
N241 N 0.35169 0.49474 0.59191 0.0
N242 N 0.35405 0.45978 0.64307 0.0
C243 C 0.32811 0.48624 0.61834 0.0
C244 C 0.39389 0.47286 0.60018 0.0
C245 C 0.39544 0.45128 0.63196 0.0
C246 C 0.31409 0.5758 0.62727 0.0
O247 O 0.35334 0.55202 0.6376 0.0
H248 H 0.29298 0.50034 0.62121 0.0
H249 H 0.42162 0.47347 0.58548 0.0
O250 O 0.29915 0.52606 0.50726 0.0
H251 H 0.45281 0.53096 0.4727 0.0
H252 H 0.42468 0.43146 0.64661 0.0
Cu253 Cu 0.58125 0.34106 0.55708 0.0
N254 N 0.62525 0.31621 0.5189 0.0
N255 N 0.67739 0.30651 0.47226 0.0
C256 C 0.64772 0.3294 0.49845 0.0
C257 C 0.67311 0.27781 0.47589 0.0
C258 C 0.641 0.28381 0.50499 0.0
O259 O 0.60623 0.36639 0.59561 0.0
C260 C 0.51511 0.34401 0.49411 0.0
O261 O 0.54415 0.31223 0.49043 0.0
H262 H 0.64142 0.35564 0.50191 0.0
H263 H 0.62935 0.26602 0.51443 0.0
N264 N 0.57322 0.31344 0.59586 0.0
N265 N 0.54169 0.30218 0.65038 0.0
C266 C 0.54071 0.32595 0.62373 0.0
C267 C 0.59649 0.2805 0.60549 0.0
C268 C 0.57673 0.27336 0.63894 0.0
C269 C 0.64346 0.34763 0.61449 0.0
O270 O 0.66162 0.315 0.60582 0.0
H271 H 0.51666 0.35226 0.62426 0.0
H272 H 0.6257 0.26292 0.58963 0.0
O273 O 0.52394 0.36297 0.52164 0.0
H274 H 0.69167 0.25431 0.45859 0.0
H275 H 0.58651 0.2487 0.65251 0.0
Tb276 Tb 0.28101 0.36019 0.3646 0.0
Tb277 Tb 0.32543 0.38176 0.29906 0.0
C278 C 0.24472 0.33336 0.40784 0.0
C279 C 0.23066 0.30606 0.40389 0.0
C280 C 0.19281 0.30996 0.37963 0.0
C281 C 0.17836 0.28481 0.37972 0.0
C282 C 0.20126 0.25546 0.40425 0.0
C283 C 0.23987 0.25111 0.42717 0.0
C284 C 0.2542 0.27619 0.42723 0.0
C285 C 0.35123 0.36757 0.39553 0.0
C286 C 0.32885 0.31038 0.28628 0.0
C287 C 0.38003 0.39542 0.26352 0.0
C288 C 0.40325 0.41649 0.26948 0.0
C289 C 0.44801 0.40221 0.26097 0.0
C290 C 0.46897 0.42287 0.25778 0.0
C291 C 0.44524 0.45809 0.26271 0.0
C292 C 0.4011 0.47221 0.27369 0.0
C293 C 0.38028 0.45153 0.27741 0.0
C294 C 0.24959 0.38694 0.26184 0.0
C295 C 0.26169 0.43476 0.36623 0.0
O296 O 0.22282 0.36094 0.38538 0.0
O297 O 0.2871 0.32356 0.40873 0.0
O298 O 0.34699 0.35496 0.35909 0.0
O299 O 0.31591 0.37509 0.41601 0.0
O300 O 0.30196 0.31825 0.31849 0.0
O301 O 0.34659 0.3301 0.27561 0.0
O302 O 0.39155 0.36951 0.28887 0.0
O303 O 0.3376 0.41158 0.25643 0.0
O304 O 0.26457 0.37816 0.30017 0.0
O305 O 0.27822 0.39365 0.24411 0.0
O306 O 0.29703 0.42543 0.34304 0.0
O307 O 0.24339 0.41437 0.37088 0.0
H308 H 0.17386 0.33266 0.36132 0.0
H309 H 0.14852 0.28879 0.36165 0.0
H310 H 0.25879 0.22842 0.44554 0.0
H311 H 0.28343 0.27246 0.44628 0.0
H312 H 0.46619 0.3753 0.25453 0.0
H313 H 0.50298 0.41155 0.24894 0.0
H314 H 0.38236 0.49935 0.27779 0.0
H315 H 0.34573 0.4632 0.28428 0.0
Tb316 Tb 0.85233 0.35744 0.33174 0.0
Tb317 Tb 0.81111 0.3315 0.25774 0.0
C318 C 0.87176 0.39739 0.37704 0.0
C319 C 0.85552 0.43088 0.39883 0.0
C320 C 0.83135 0.46094 0.37604 0.0
C321 C 0.82394 0.49222 0.39484 0.0
C322 C 0.8404 0.49415 0.43681 0.0
C323 C 0.86237 0.4642 0.46038 0.0
C324 C 0.87009 0.43289 0.44144 0.0
C325 C 0.89616 0.29011 0.32439 0.0
C326 C 0.78233 0.33408 0.35363 0.0
C327 C 0.77709 0.30444 0.2051 0.0
C328 C 0.77546 0.27234 0.19373 0.0
C329 C 0.78089 0.24821 0.22464 0.0
C330 C 0.78072 0.21747 0.21173 0.0
C331 C 0.7752 0.21042 0.16778 0.0
C332 C 0.76967 0.23486 0.13719 0.0
C333 C 0.7696 0.26548 0.15008 0.0
C334 C 0.78513 0.39842 0.26248 0.0
C335 C 0.89899 0.333 0.24301 0.0
O336 O 0.86992 0.39696 0.33469 0.0
O337 O 0.86361 0.37394 0.39367 0.0
O338 O 0.86275 0.31029 0.30373 0.0
O339 O 0.90659 0.30833 0.35187 0.0
O340 O 0.7985 0.35571 0.36408 0.0
O341 O 0.78903 0.31808 0.3157 0.0
O342 O 0.75837 0.32056 0.24036 0.0
O343 O 0.8145 0.30503 0.19958 0.0
O344 O 0.79247 0.3788 0.29335 0.0
O345 O 0.79021 0.38074 0.22739 0.0
O346 O 0.87621 0.31583 0.23442 0.0
O347 O 0.88837 0.35592 0.2746 0.0
H348 H 0.81971 0.46025 0.34308 0.0
H349 H 0.80669 0.51482 0.37585 0.0
H350 H 0.87422 0.46489 0.49323 0.0
H351 H 0.88892 0.41006 0.45961 0.0
H352 H 0.78576 0.25292 0.25851 0.0
H353 H 0.78532 0.19908 0.23606 0.0
H354 H 0.76679 0.22993 0.10304 0.0
H355 H 0.76579 0.28367 0.1257 0.0
Tb356 Tb 0.87756 0.83846 0.32986 0.0
Tb357 Tb 0.82679 0.8249 0.26276 0.0
C358 C 0.92429 0.8594 0.37471 0.0
C359 C 0.94061 0.88508 0.37054 0.0
C360 C 0.98569 0.87559 0.37529 0.0
C361 C 1.0013 0.90001 0.3752 0.0
C362 C 0.97209 0.93454 0.37075 0.0
C363 C 0.92701 0.9439 0.36519 0.0
C364 C 0.91147 0.91947 0.36473 0.0
C365 C 0.80637 0.83772 0.36105 0.0
C366 C 0.82112 0.89554 0.26304 0.0
C367 C 0.77918 0.80655 0.21517 0.0
C368 C 0.76039 0.78219 0.2141 0.0
C369 C 0.71808 0.79173 0.22877 0.0
C370 C 0.6989 0.76965 0.22382 0.0
C371 C 0.72152 0.73782 0.20375 0.0
C372 C 0.76412 0.728 0.18994 0.0
C373 C 0.78328 0.75003 0.19482 0.0
C374 C 0.89815 0.82523 0.23159 0.0
C375 C 0.88086 0.76839 0.33151 0.0
O376 O 0.94058 0.8326 0.34945 0.0
O377 O 0.88203 0.87089 0.37841 0.0
O378 O 0.80797 0.84998 0.32477 0.0
O379 O 0.84391 0.82829 0.38098 0.0
O380 O 0.85596 0.88242 0.28912 0.0
O381 O 0.79777 0.87901 0.25422 0.0
O382 O 0.7636 0.83203 0.2426 0.0
O383 O 0.82174 0.79376 0.21282 0.0
O384 O 0.89652 0.81291 0.26785 0.0
O385 O 0.86021 0.83589 0.21228 0.0
O386 O 0.84765 0.78089 0.30327 0.0
O387 O 0.90467 0.7846 0.34087 0.0
H388 H 1.00881 0.84929 0.3799 0.0
H389 H 1.03625 0.89192 0.3793 0.0
H390 H 0.90343 0.97027 0.36278 0.0
H391 H 0.87646 0.92773 0.36104 0.0
H392 H 0.69941 0.81648 0.24326 0.0
H393 H 0.66596 0.77777 0.23473 0.0
H394 H 0.78258 0.70332 0.17519 0.0
H395 H 0.81578 0.74201 0.18279 0.0
Tb396 Tb 0.32467 0.83702 0.33511 0.0
Tb397 Tb 0.36357 0.86587 0.26942 0.0
C398 C 0.31392 0.79332 0.37552 0.0
C399 C 0.33795 0.76204 0.4002 0.0
C400 C 0.37795 0.73601 0.38673 0.0
C401 C 0.39671 0.70486 0.40774 0.0
C402 C 0.37587 0.69934 0.4426 0.0
C403 C 0.33658 0.72591 0.45665 0.0
C404 C 0.31796 0.75692 0.43575 0.0
C405 C 0.27352 0.90323 0.32622 0.0
C406 C 0.38578 0.86884 0.36928 0.0
C407 C 0.39356 0.89564 0.22289 0.0
C408 C 0.3881 0.92937 0.2111 0.0
C409 C 0.39002 0.95288 0.24182 0.0
C410 C 0.38664 0.98399 0.22854 0.0
C411 C 0.38155 0.99192 0.18443 0.0
C412 C 0.3788 0.96855 0.15405 0.0
C413 C 0.38232 0.93757 0.16725 0.0
C414 C 0.39756 0.79861 0.27378 0.0
C415 C 0.2802 0.85742 0.24233 0.0
O416 O 0.32035 0.79134 0.33389 0.0
O417 O 0.31091 0.82163 0.39346 0.0
O418 O 0.30936 0.88479 0.30928 0.0
O419 O 0.2648 0.88362 0.35009 0.0
O420 O 0.3717 0.84597 0.37602 0.0
O421 O 0.38157 0.88281 0.3311 0.0
O422 O 0.40996 0.8842 0.26132 0.0
O423 O 0.36155 0.88833 0.2106 0.0
O424 O 0.38608 0.81941 0.30462 0.0
O425 O 0.39272 0.81513 0.239 0.0
O426 O 0.30028 0.87675 0.23867 0.0
O427 O 0.29159 0.83499 0.27352 0.0
H428 H 0.39394 0.73934 0.35922 0.0
H429 H 0.42693 0.68483 0.39611 0.0
H430 H 0.31898 0.72225 0.48251 0.0
H431 H 0.28686 0.77652 0.44632 0.0
H432 H 0.39432 0.94721 0.27589 0.0
H433 H 0.38842 1.00172 0.25267 0.0
H434 H 0.37341 0.97436 0.12001 0.0
H435 H 0.38061 0.91986 0.14302 0.0
Tb436 Tb 0.32778 0.85878 0.83693 0.0
Tb437 Tb 0.28537 0.83495 0.76936 0.0
C438 C 0.3454 0.89495 0.89096 0.0
C439 C 0.32053 0.92601 0.91606 0.0
C440 C 0.27721 0.94828 0.90356 0.0
C441 C 0.25705 0.98092 0.92161 0.0
C442 C 0.2798 0.99155 0.95272 0.0
C443 C 0.32227 0.96843 0.96676 0.0
C444 C 0.34243 0.93595 0.94855 0.0
C445 C 0.3719 0.79315 0.81983 0.0
C446 C 0.25189 0.84088 0.86475 0.0
C447 C 0.2523 0.80711 0.71723 0.0
C448 C 0.24524 0.7768 0.71343 0.0
C449 C 0.25599 0.7543 0.74773 0.0
C450 C 0.25897 0.72191 0.74027 0.0
C451 C 0.25213 0.71154 0.69829 0.0
C452 C 0.23817 0.7352 0.66494 0.0
C453 C 0.23474 0.76756 0.67251 0.0
C454 C 0.26053 0.90168 0.7705 0.0
C455 C 0.36885 0.8421 0.7452 0.0
O456 O 0.34251 0.89923 0.84919 0.0
O457 O 0.3428 0.86743 0.90151 0.0
O458 O 0.33094 0.8099 0.82072 0.0
O459 O 0.38963 0.81241 0.83313 0.0
O460 O 0.27589 0.85708 0.87496 0.0
O461 O 0.25364 0.82716 0.82566 0.0
O462 O 0.22929 0.83074 0.74494 0.0
O463 O 0.29352 0.801 0.71832 0.0
O464 O 0.26685 0.88307 0.80208 0.0
O465 O 0.26663 0.88302 0.73625 0.0
O466 O 0.34752 0.82354 0.73917 0.0
O467 O 0.35919 0.86368 0.77836 0.0
H468 H 0.25992 0.94102 0.87827 0.0
H469 H 0.22438 0.99824 0.91014 0.0
H470 H 0.34102 0.97612 0.98993 0.0
H471 H 0.37604 0.91926 0.95815 0.0
H472 H 0.26441 0.76107 0.77953 0.0
H473 H 0.2688 0.70444 0.7668 0.0
H474 H 0.23292 0.72799 0.63223 0.0
H475 H 0.22678 0.7846 0.64565 0.0
Tb476 Tb 0.38328 0.33106 0.84526 0.0
Tb477 Tb 0.32715 0.31446 0.77891 0.0
C478 C 0.44243 0.33954 0.8873 0.0
C479 C 0.45143 0.36943 0.89305 0.0
C480 C 0.47033 0.37901 0.86003 0.0
C481 C 0.47607 0.40839 0.86424 0.0
C482 C 0.46299 0.42904 0.90145 0.0
C483 C 0.44545 0.41897 0.9351 0.0
C484 C 0.43971 0.38948 0.93093 0.0
C485 C 0.29959 0.35232 0.86437 0.0
C486 C 0.32859 0.38449 0.77556 0.0
C487 C 0.27471 0.29873 0.7363 0.0
C488 C 0.25464 0.27549 0.737 0.0
C489 C 0.21034 0.28737 0.72437 0.0
C490 C 0.19193 0.26488 0.71871 0.0
C491 C 0.21766 0.2301 0.72543 0.0
C492 C 0.26179 0.21837 0.73921 0.0
C493 C 0.28007 0.24091 0.74526 0.0
C494 C 0.3987 0.31227 0.74901 0.0
C495 C 0.38135 0.26041 0.85177 0.0
O496 O 0.44736 0.32595 0.84848 0.0
O497 O 0.40712 0.34159 0.90484 0.0
O498 O 0.32449 0.32562 0.84545 0.0
O499 O 0.32257 0.36843 0.87504 0.0
O500 O 0.36437 0.37198 0.80065 0.0
O501 O 0.30298 0.36907 0.77057 0.0
O502 O 0.26183 0.32382 0.76468 0.0
O503 O 0.31708 0.28468 0.73058 0.0
O504 O 0.39543 0.30251 0.78586 0.0
O505 O 0.3622 0.32146 0.72722 0.0
O506 O 0.35341 0.26867 0.81789 0.0
O507 O 0.39876 0.28037 0.86677 0.0
H508 H 0.4803 0.36406 0.83057 0.0
H509 H 0.49085 0.41495 0.83827 0.0
H510 H 0.43531 0.43428 0.96426 0.0
H511 H 0.42539 0.38266 0.95708 0.0
H512 H 0.19031 0.31393 0.71761 0.0
H513 H 0.15773 0.27458 0.70844 0.0
H514 H 0.2826 0.19164 0.7439 0.0
H515 H 0.31446 0.23108 0.7548 0.0
Tb516 Tb 0.81209 0.33791 0.83996 0.0
Tb517 Tb 0.84335 0.37569 0.77787 0.0
C518 C 0.8099 0.28825 0.87349 0.0
C519 C 0.84118 0.25536 0.89157 0.0
C520 C 0.85148 0.22565 0.86689 0.0
C521 C 0.87478 0.19401 0.88556 0.0
C522 C 0.88783 0.19148 0.92938 0.0
C523 C 0.88107 0.22101 0.95309 0.0
C524 C 0.85772 0.25277 0.93439 0.0
C525 C 0.75797 0.40405 0.83822 0.0
C526 C 0.88619 0.35957 0.87501 0.0
C527 C 0.85775 0.42016 0.74392 0.0
C528 C 0.83033 0.45502 0.73021 0.0
C529 C 0.78802 0.46515 0.71152 0.0
C530 C 0.76379 0.49825 0.69677 0.0
C531 C 0.78155 0.52139 0.70113 0.0
C532 C 0.82241 0.51178 0.72269 0.0
C533 C 0.84676 0.47877 0.73678 0.0
C534 C 0.88262 0.30876 0.77155 0.0
C535 C 0.76301 0.36126 0.74784 0.0
O536 O 0.81104 0.29128 0.83165 0.0
O537 O 0.80419 0.31588 0.89547 0.0
O538 O 0.79324 0.38713 0.82012 0.0
O539 O 0.75089 0.38259 0.86023 0.0
O540 O 0.86244 0.34328 0.88227 0.0
O541 O 0.88369 0.37376 0.83708 0.0
O542 O 0.86042 0.41559 0.78551 0.0
O543 O 0.85316 0.39607 0.72174 0.0
O544 O 0.86997 0.32634 0.80541 0.0
O545 O 0.8777 0.32893 0.74022 0.0
O546 O 0.78076 0.38256 0.7453 0.0
O547 O 0.77613 0.33831 0.77874 0.0
H548 H 0.8394 0.22682 0.83375 0.0
H549 H 0.87935 0.17165 0.86663 0.0
H550 H 0.89123 0.2196 0.98688 0.0
H551 H 0.85076 0.27519 0.95414 0.0
H552 H 0.77435 0.44728 0.70715 0.0
H553 H 0.73244 0.50519 0.67999 0.0
H554 H 0.83659 0.52938 0.72634 0.0
H555 H 0.8789 0.47157 0.75196 0.0
Tb556 Tb 0.76511 0.85035 0.82547 0.0
Tb557 Tb 0.82522 0.86721 0.77435 0.0
C558 C 0.70812 0.83323 0.84881 0.0
C559 C 0.70172 0.80232 0.85248 0.0
C560 C 0.67533 0.79504 0.82175 0.0
C561 C 0.66525 0.76804 0.82763 0.0
C562 C 0.68123 0.7478 0.86445 0.0
C563 C 0.7083 0.75465 0.8947 0.0
C564 C 0.71841 0.78158 0.88884 0.0
C565 C 0.83485 0.84608 0.87019 0.0
C566 C 0.83335 0.79454 0.76227 0.0
C567 C 0.87729 0.88494 0.74112 0.0
C568 C 0.89684 0.90851 0.74691 0.0
C569 C 0.87083 0.94305 0.75554 0.0
C570 C 0.88838 0.96602 0.75322 0.0
C571 C 0.93217 0.95479 0.7421 0.0
C572 C 0.95867 0.92005 0.73535 0.0
C573 C 0.94111 0.89707 0.73784 0.0
C574 C 0.75429 0.87104 0.73229 0.0
C575 C 0.76289 0.92058 0.84205 0.0
O576 O 0.7084 0.84397 0.81007 0.0
O577 O 0.73766 0.83595 0.87486 0.0
O578 O 0.83374 0.83834 0.83054 0.0
O579 O 0.79778 0.85247 0.88653 0.0
O580 O 0.79808 0.80437 0.78563 0.0
O581 O 0.85355 0.81372 0.75856 0.0
O582 O 0.89021 0.8597 0.76779 0.0
O583 O 0.83513 0.89838 0.73192 0.0
O584 O 0.75608 0.8808 0.77073 0.0
O585 O 0.79239 0.86015 0.71609 0.0
O586 O 0.80015 0.9088 0.82157 0.0
O587 O 0.73842 0.9042 0.84092 0.0
H588 H 0.66141 0.81083 0.79376 0.0
H589 H 0.64362 0.7638 0.80414 0.0
H590 H 0.7212 0.73943 0.9233 0.0
H591 H 0.73847 0.78659 0.91344 0.0
H592 H 0.83639 0.95253 0.76182 0.0
H593 H 0.86708 0.99275 0.75785 0.0
H594 H 0.99257 0.91084 0.72684 0.0
H595 H 0.96158 0.87055 0.73071 0.0
C596 C 0.15486 0.19358 0.37154 0.0
C597 C 0.1494 0.18197 0.41147 0.0
C598 C 0.17164 0.21729 0.3694 0.0
C599 C 0.18418 0.22994 0.40708 0.0
H600 H 0.14503 0.18495 0.34175 0.0
H601 H 0.17491 0.22574 0.33801 0.0
S602 S 0.17791 0.20674 0.51953 0.0
N603 N 0.15929 0.18406 0.48938 0.0
N604 N 0.19019 0.22888 0.48552 0.0
C605 C 0.17954 0.21811 0.44715 0.0
C606 C 0.1623 0.19411 0.4493 0.0
C607 C 0.9311 0.19598 0.31 0.0
C608 C 0.97727 0.18212 0.31323 0.0
C609 C 0.90461 0.23125 0.31027 0.0
C610 C 0.92347 0.25373 0.31522 0.0
H611 H 0.91531 0.17944 0.30914 0.0
H612 H 0.86928 0.24087 0.3095 0.0
S613 S 1.04216 0.23095 0.32112 0.0
N614 N 1.04033 0.19421 0.31771 0.0
N615 N 0.99061 0.2601 0.31977 0.0
C616 C 0.96938 0.24035 0.31621 0.0
C617 C 0.9963 0.20462 0.31477 0.0
C618 C 1.03318 0.98371 0.4148 0.0
C619 C 1.01793 0.01201 0.38788 0.0
C620 C 1.01872 0.95869 0.40853 0.0
C621 C 0.98835 0.9608 0.375 0.0
H622 H 0.05686 0.98063 0.44085 0.0
H623 H 1.03093 0.93779 0.43069 0.0
S624 S 0.93856 0.02947 0.29492 0.0
N625 N 0.97032 0.04077 0.32646 0.0
N626 N 0.9444 0.9931 0.31363 0.0
C627 C 0.97313 0.98877 0.34747 0.0
C628 C 0.98768 0.01443 0.35406 0.0
C629 C 0.1641 0.9776 0.30165 0.0
C630 C 0.17427 0.00513 0.30052 0.0
C631 C 0.19685 0.94463 0.3086 0.0
C632 C 0.24124 0.93763 0.31345 0.0
H633 H 0.13027 0.98173 0.29957 0.0
H634 H 0.18719 0.92449 0.3111 0.0
S635 S 0.28605 0.99983 0.30832 0.0
N636 N 0.2324 0.02281 0.3023 0.0
N637 N 0.2943 0.96025 0.31323 0.0
C638 C 0.25237 0.9644 0.30968 0.0
C639 C 0.21877 0.99832 0.30387 0.0
C640 C 0.1697 0.98996 0.79456 0.0
C641 C 0.17277 0.00873 0.76025 0.0
C642 C 0.19994 0.95557 0.79968 0.0
C643 C 0.23388 0.93898 0.77047 0.0
H644 H 0.14225 1.00114 0.81569 0.0
H645 H 0.19511 0.94141 0.82497 0.0
S646 S 0.26079 0.97851 0.68055 0.0
N647 N 0.2164 0.00929 0.70076 0.0
N648 N 0.27201 0.94501 0.70997 0.0
C649 C 0.23909 0.95819 0.73833 0.0
C650 C 0.20889 0.993 0.73338 0.0
C651 C 0.15515 0.18639 0.66922 0.0
C652 C 0.15913 0.16204 0.69923 0.0
C653 C 0.17452 0.20814 0.67782 0.0
C654 C 0.19871 0.20611 0.71662 0.0
H655 H 0.13573 0.18938 0.63961 0.0
H656 H 0.17032 0.22681 0.65403 0.0
S657 S 0.22149 0.14483 0.8042 0.0
N658 N 0.19166 0.13539 0.76772 0.0
N659 N 0.22677 0.17701 0.78458 0.0
C660 C 0.20403 0.18114 0.74626 0.0
C661 C 0.18453 0.15893 0.73741 0.0
C662 C 0.93978 0.22158 0.72098 0.0
C663 C 0.96412 0.20037 0.75534 0.0
C664 C 0.91284 0.2561 0.7273 0.0
C665 C 0.90817 0.27135 0.76833 0.0
H666 H 0.94222 0.21179 0.68821 0.0
H667 H 0.89598 0.27114 0.69936 0.0
S668 S 0.96126 0.22753 0.87026 0.0
N669 N 0.9796 0.19727 0.83287 0.0
N670 N 0.92803 0.26252 0.84481 0.0
C671 C 0.93047 0.25053 0.80362 0.0
C672 C 0.95864 0.21502 0.7971 0.0
C673 C 0.9827 0.00215 0.68435 0.0
C674 C 0.9787 0.0281 0.71394 0.0
C675 C 0.96828 0.97817 0.69415 0.0
C676 C 0.94899 0.97952 0.73371 0.0
H677 H 0.99776 1.00007 0.65375 0.0
H678 H 0.9717 0.95868 0.67033 0.0
S679 S 0.92993 0.04303 0.82167 0.0
N680 N 0.95308 0.05432 0.78392 0.0
N681 N 0.9265 0.00888 0.80256 0.0
C682 C 0.94451 0.00547 0.76345 0.0
C683 C 0.9593 0.02982 0.75354 0.0
C684 C 0.34351 0.26098 0.18134 0.0
C685 C 0.31147 0.24937 0.18342 0.0
C686 C 0.35264 0.27784 0.21669 0.0
C687 C 0.33009 0.28346 0.25536 0.0
H688 H 0.35967 0.25877 0.15137 0.0
H689 H 0.37518 0.28858 0.21252 0.0
S690 S 0.25049 0.25043 0.27945 0.0
N691 N 0.2625 0.23943 0.22858 0.0
N692 N 0.2798 0.27032 0.29549 0.0
C693 C 0.30135 0.26856 0.25901 0.0
C694 C 0.29174 0.25192 0.2228 0.0
C695 C 0.98945 0.29058 0.1629 0.0
C696 C 1.01357 0.30919 0.16853 0.0
C697 C 0.95252 0.29838 0.18732 0.0
C698 C 0.93866 0.32496 0.2183 0.0
H699 H 0.99814 0.27092 0.13823 0.0
H700 H 0.9344 0.28373 0.1813 0.0
S701 S 0.99456 0.37868 0.24774 0.0
N702 N 1.02384 0.35325 0.20896 0.0
N703 N 0.9546 0.36819 0.25503 0.0
C704 C 0.96397 0.34274 0.22532 0.0
C705 C 1.00138 0.33477 0.20039 0.0
C706 C 0.86142 0.94635 0.19997 0.0
C707 C 0.83506 0.95315 0.16213 0.0
C708 C 0.85303 0.93144 0.23508 0.0
C709 C 0.81872 0.92175 0.23302 0.0
H710 H 0.88961 0.95158 0.20179 0.0
H711 H 0.87583 0.92517 0.26264 0.0
S712 S 0.73673 0.93876 0.14253 0.0
N713 N 0.77041 0.95321 0.12594 0.0
N714 N 0.75488 0.92425 0.19151 0.0
C715 C 0.78993 0.93109 0.19648 0.0
C716 C 0.7982 0.94686 0.16099 0.0
C717 C 0.18462 0.90027 0.1619 0.0
C718 C 0.16336 0.87942 0.16153 0.0
C719 C 0.22282 0.89255 0.1875 0.0
C720 C 0.24099 0.86383 0.214 0.0
H721 H 0.1721 0.92228 0.14157 0.0
H722 H 0.23797 0.90947 0.18663 0.0
S723 S 0.19543 0.80246 0.22642 0.0
N724 N 0.16152 0.82996 0.19124 0.0
N725 N 0.2334 0.81511 0.23901 0.0
C726 C 0.21941 0.84311 0.21434 0.0
C727 C 0.18061 0.85099 0.18821 0.0
C728 C 0.24058 0.08626 0.94693 0.0
C729 C 0.24687 0.09486 0.98986 0.0
C730 C 0.24812 0.0531 0.93551 0.0
C731 C 0.26212 0.02758 0.9667 0.0
H732 H 0.23309 0.10452 0.92165 0.0
H733 H 0.24601 0.0469 0.90165 0.0
S734 S 0.27494 0.03917 0.08462 0.0
N735 N 0.26151 0.07676 0.0644 0.0
N736 N 0.27573 0.01451 0.04303 0.0
C737 C 0.26466 0.03675 1.01019 0.0
C738 C 0.25696 0.07039 1.02175 0.0
C739 C 0.21885 0.32405 0.90432 0.0
C740 C 0.20892 0.33935 0.94541 0.0
C741 C 0.24554 0.33067 0.87714 0.0
C742 C 0.26355 0.35289 0.88977 0.0
H743 H 0.20672 0.30613 0.89343 0.0
H744 H 0.25391 0.31684 0.84678 0.0
S745 S 0.24559 0.40107 0.99327 0.0
N746 N 0.21753 0.37901 0.99684 0.0
N747 N 0.26755 0.39173 0.94534 0.0
C748 C 0.25207 0.36982 0.92985 0.0
C749 C 0.22481 0.36297 0.95777 0.0
C750 C 0.93409 0.09747 0.94821 0.0
C751 C 0.90537 0.09613 0.97841 0.0
C752 C 0.9309 0.1285 0.93469 0.0
C753 C 0.89932 0.1593 0.95147 0.0
H754 H 0.95761 0.07439 0.93316 0.0
H755 H 0.95166 0.12849 0.90933 0.0
S756 S 0.8177 0.17044 1.03287 0.0
N757 N 0.84508 0.12915 1.02578 0.0
N758 N 0.84046 0.18686 1.00131 0.0
C759 C 0.87251 0.15839 0.98381 0.0
C760 C 0.87518 0.12696 0.99713 0.0
C761 C 0.91894 0.87845 0.90169 0.0
C762 C 0.92638 0.87156 0.94605 0.0
C763 C 0.89095 0.8687 0.87651 0.0
C764 C 0.86921 0.85198 0.89481 0.0
H765 H 0.93502 0.89132 0.88637 0.0
H766 H 0.88491 0.87572 0.84313 0.0
S767 S 0.87578 0.82991 1.0101 0.0
N768 N 0.90863 0.84811 1.00752 0.0
N769 N 0.85603 0.83001 0.96042 0.0
C770 C 0.8761 0.84535 0.93925 0.0
C771 C 0.90474 0.855 0.96476 0.0
C772 C 0.21469 0.34438 0.16981 0.0
C773 C 0.16906 0.36438 0.16363 0.0
C774 C 0.23915 0.35092 0.20337 0.0
C775 C 0.21966 0.37697 0.23413 0.0
H776 H 0.23237 0.32377 0.14755 0.0
H777 H 0.27433 0.33624 0.20396 0.0
S778 S 0.10129 0.43729 0.23383 0.0
N779 N 0.10512 0.41203 0.19189 0.0
N780 N 0.15137 0.42385 0.25557 0.0
C781 C 0.17396 0.39722 0.22897 0.0
C782 C 0.14872 0.39097 0.19385 0.0
C783 C 0.18582 0.85925 0.96753 0.0
C784 C 0.16026 0.84151 0.96158 0.0
C785 C 0.21588 0.85788 0.93698 0.0
C786 C 0.22181 0.83908 0.89805 0.0
H787 H 0.18156 0.8754 0.99581 0.0
H788 H 0.23359 0.87278 0.94355 0.0
S789 S 0.16429 0.78665 0.86686 0.0
N790 N 0.14418 0.80334 0.91414 0.0
N791 N 0.20025 0.80077 0.85644 0.0
C792 C 0.19744 0.82022 0.89215 0.0
C793 C 0.16695 0.82139 0.92383 0.0
C794 C 0.35876 0.19011 0.89293 0.0
C795 C 0.37367 0.18752 0.93637 0.0
C796 C 0.36459 0.21175 0.86467 0.0
C797 C 0.38581 0.23159 0.87855 0.0
H798 H 0.34006 0.17693 0.88116 0.0
H799 H 0.3501 0.21426 0.83237 0.0
S800 S 0.43832 0.22903 0.9871 0.0
N801 N 0.41589 0.20297 0.99033 0.0
N802 N 0.42727 0.24336 0.93738 0.0
C803 C 0.40443 0.22681 0.92087 0.0
C804 C 0.39817 0.20493 0.94973 0.0
C805 C 0.97457 0.37883 0.93661 0.0
C806 C 0.98555 0.35838 0.97338 0.0
C807 C 0.94196 0.37973 0.90561 0.0
C808 C 0.9187 0.36027 0.9099 0.0
H809 H 0.99283 0.39287 0.93053 0.0
H810 H 0.93577 0.39523 0.87744 0.0
S811 S 0.93384 0.30384 1.00201 0.0
N812 N 0.96931 0.31926 1.01302 0.0
N813 N 0.90863 0.32103 0.95607 0.0
C814 C 0.9285 0.34075 0.94758 0.0
C815 C 0.96167 0.33976 0.97876 0.0
C816 C 0.73748 0.96885 0.94839 0.0
C817 C 0.75749 0.99052 0.9451 0.0
C818 C 0.73561 0.9484 0.91339 0.0
C819 C 0.75389 0.94866 0.87379 0.0
H820 H 0.72533 0.96617 0.97892 0.0
H821 H 0.72266 0.93049 0.91852 0.0
S822 S 0.80298 0.00495 0.84565 0.0
N823 N 0.79049 0.01419 0.89673 0.0
N824 N 0.78726 0.97556 0.8315 0.0
C825 C 0.77063 0.97217 0.86894 0.0
C826 C 0.77231 0.99316 0.9044 0.0
C827 C 0.96869 0.82029 0.13608 0.0
C828 C 1.00432 0.82435 0.15522 0.0
C829 C 0.93613 0.81881 0.16139 0.0
C830 C 0.93782 0.82064 0.20714 0.0
H831 H 0.96423 0.82058 0.10127 0.0
H832 H 0.90833 0.81746 0.14466 0.0
S833 S 1.02616 0.82864 0.27336 0.0
N834 N 1.04043 0.82837 0.22317 0.0
N835 N 0.98018 0.82468 0.27 0.0
C836 C 0.97462 0.82267 0.22662 0.0
C837 C 1.00743 0.82479 0.20091 0.0
C838 C 0.33777 0.08677 0.17317 0.0
C839 C 0.35856 0.08974 0.13646 0.0
C840 C 0.34679 0.05511 0.18958 0.0
C841 C 0.37693 0.02509 0.16992 0.0
H842 H 0.31303 0.10906 0.18859 0.0
H843 H 0.32853 0.05413 0.21669 0.0
S844 S 0.444 0.01869 0.07618 0.0
N845 N 0.4133 0.05973 0.08303 0.0
N846 N 0.43069 1.0002 0.11434 0.0
C847 C 0.39973 0.02763 0.13466 0.0
C848 C 0.39055 0.05993 0.1179 0.0
C849 C 0.82194 0.11511 0.15265 0.0
C850 C 0.79558 0.11113 0.11862 0.0
C851 C 0.81394 0.14712 0.16947 0.0
C852 C 0.77905 0.17666 0.15324 0.0
H853 H 0.85022 0.09342 0.16552 0.0
H854 H 0.83652 0.14876 0.19412 0.0
S855 S 0.69663 0.18021 0.06834 0.0
N856 N 0.73073 0.13954 0.07189 0.0
N857 N 0.71507 0.19973 0.10424 0.0
C858 C 0.75087 0.17304 0.12093 0.0
C859 C 0.75923 0.14033 0.10352 0.0
C860 C 0.6371 0.69504 0.92139 0.0
C861 C 0.63745 0.67167 0.88928 0.0
C862 C 0.65182 0.71924 0.91323 0.0
C863 C 0.66768 0.72088 0.87269 0.0
H864 H 0.62422 0.69518 0.95266 0.0
H865 H 0.64981 0.73733 0.93859 0.0
S866 S 0.6807 0.66252 0.77954 0.0
N867 N 0.65851 0.64973 0.81662 0.0
N868 N 0.68624 0.69513 0.80133 0.0
C869 C 0.66955 0.69691 0.84077 0.0
C870 C 0.65447 0.67232 0.84905 0.0
C871 C 0.39954 0.69984 0.82001 0.0
C872 C 0.44514 0.68384 0.81388 0.0
C873 C 0.37541 0.73525 0.81961 0.0
C874 C 0.39611 0.75601 0.81375 0.0
H875 H 0.38258 0.685 0.82709 0.0
H876 H 0.3408 0.74644 0.82618 0.0
S877 S 0.51275 0.72725 0.7888 0.0
N878 N 0.50849 0.69194 0.7956 0.0
N879 N 0.4633 0.7583 0.7961 0.0
C880 C 0.44081 0.74047 0.80442 0.0
C881 C 0.46527 0.70444 0.80406 0.0
C882 C 0.49586 0.49661 0.94479 0.0
C883 C 0.48385 0.51926 0.91034 0.0
C884 C 0.48813 0.46788 0.94216 0.0
C885 C 0.468 0.46085 0.90502 0.0
H886 H 0.5128 0.50047 0.97327 0.0
H887 H 0.49925 0.45049 0.96883 0.0
S888 S 0.42448 0.5151 0.80872 0.0
N889 N 0.44694 0.53462 0.83993 0.0
N890 N 0.43209 0.48094 0.83502 0.0
C891 C 0.454 0.48423 0.87125 0.0
C892 C 0.46199 0.51333 0.8739 0.0
C893 C 0.65282 0.48532 0.82405 0.0
C894 C 0.66783 0.51031 0.82257 0.0
C895 C 0.68222 0.45094 0.82877 0.0
C896 C 0.72771 0.44015 0.83148 0.0
H897 H 0.61802 0.49241 0.82325 0.0
H898 H 0.66922 0.4327 0.83066 0.0
S899 S 0.78438 0.49466 0.82969 0.0
N900 N 0.73189 0.52118 0.82371 0.0
N901 N 0.78654 0.45672 0.83297 0.0
C902 C 0.74331 0.46448 0.82891 0.0
C903 C 0.71353 0.4995 0.8243 0.0
C904 C 0.72995 0.48835 0.22286 0.0
C905 C 0.69964 0.50647 0.25476 0.0
C906 C 0.7589 0.45397 0.22709 0.0
C907 C 0.75953 0.43595 0.26366 0.0
H908 H 0.73013 0.50042 0.19313 0.0
H909 H 0.77994 0.44106 0.20057 0.0
S910 S 0.69129 0.47186 0.35934 0.0
N911 N 0.67496 0.50412 0.32628 0.0
N912 N 0.73036 0.4394 0.33463 0.0
C913 C 0.73194 0.45408 0.29747 0.0
C914 C 0.70181 0.48934 0.29295 0.0
C915 C 0.66153 0.68628 0.22728 0.0
C916 C 0.6598 0.67107 0.18705 0.0
C917 C 0.68147 0.70788 0.23232 0.0
C918 C 0.70064 0.7149 0.19738 0.0
H919 H 0.64667 0.68196 0.25497 0.0
H920 H 0.68212 0.719 0.26388 0.0
S921 S 0.70465 0.68163 0.08531 0.0
N922 N 0.67904 0.66436 0.11179 0.0
N923 N 0.71611 0.70545 0.121 0.0
C924 C 0.69917 0.69988 0.15696 0.0
C925 C 0.67873 0.67793 0.15182 0.0
C926 C 0.48904 0.71023 0.29548 0.0
C927 C 0.47638 0.68989 0.26774 0.0
C928 C 0.46197 0.7454 0.29998 0.0
C929 C 0.42167 0.76128 0.27661 0.0
H930 H 0.52109 0.69941 0.31164 0.0
H931 H 0.47386 0.76052 0.31967 0.0
S932 S 0.36987 0.71898 0.20614 0.0
N933 N 0.41745 0.68806 0.2218 0.0
N934 N 0.36817 0.75377 0.22923 0.0
C935 C 0.40739 0.74098 0.25142 0.0
C936 C 0.43428 0.70538 0.24736 0.0
C937 C 0.46516 0.52374 0.20531 0.0
C938 C 0.50401 0.52136 0.22572 0.0
C939 C 0.44576 0.50372 0.21837 0.0
C940 C 0.46509 0.48028 0.25174 0.0
H941 H 0.44954 0.54148 0.17944 0.0
H942 H 0.41589 0.5061 0.20173 0.0
S943 S 0.56765 0.46375 0.31439 0.0
N944 N 0.5616 0.49356 0.28031 0.0
N945 N 0.52528 0.45555 0.30459 0.0
C946 C 0.50412 0.47747 0.27215 0.0
C947 C 0.52355 0.49817 0.25924 0.0
C948 C 0.87876 0.7368 0.66515 0.0
C949 C 0.85525 0.71745 0.66333 0.0
C950 C 0.87439 0.75954 0.69939 0.0
C951 C 0.84599 0.76423 0.73324 0.0
H952 H 0.89894 0.73582 0.63873 0.0
H953 H 0.89134 0.77513 0.69759 0.0
S954 S 0.78324 0.71516 0.74819 0.0
N955 N 0.80758 0.7008 0.70198 0.0
N956 N 0.79875 0.74399 0.76581 0.0
C957 C 0.82532 0.74287 0.73387 0.0
C958 C 0.83012 0.71938 0.6991 0.0
C959 C 0.45408 0.85797 0.68403 0.0
C960 C 0.47742 0.82736 0.66095 0.0
C961 C 0.41944 0.86257 0.71119 0.0
C962 C 0.40565 0.8371 0.71587 0.0
H963 H 0.4633 0.87833 0.68181 0.0
H964 H 0.40312 0.88645 0.72846 0.0
S965 S 0.45491 0.75246 0.66167 0.0
N966 N 0.4833 0.77137 0.64443 0.0
N967 N 0.41866 0.77999 0.69435 0.0
C968 C 0.42838 0.80657 0.69244 0.0
C969 C 0.46401 0.80172 0.66542 0.0
C970 C 0.36139 0.44317 0.71874 0.0
C971 C 0.34109 0.44596 0.67776 0.0
C972 C 0.35311 0.42633 0.75181 0.0
C973 C 0.32501 0.41079 0.74487 0.0
H974 H 0.38485 0.45327 0.72481 0.0
H975 H 0.37115 0.42371 0.78228 0.0
S976 S 0.2609 0.41388 0.64349 0.0
N977 N 0.28891 0.43484 0.63252 0.0
N978 N 0.27403 0.40203 0.69419 0.0
C979 C 0.30229 0.41538 0.7046 0.0
C980 C 0.31032 0.43313 0.67108 0.0
C981 C 0.69245 0.3745 0.64197 0.0
C982 C 0.66493 0.35936 0.6504 0.0
C983 C 0.72259 0.37652 0.67393 0.0
C984 C 0.72736 0.36273 0.71548 0.0
H985 H 0.69244 0.38321 0.60977 0.0
H986 H 0.74383 0.38748 0.66525 0.0
S987 S 0.66065 0.32244 0.75458 0.0
N988 N 0.64295 0.33208 0.70411 0.0
N989 N 0.69872 0.33558 0.76347 0.0
C990 C 0.6986 0.34878 0.72454 0.0
C991 C 0.66786 0.34709 0.69227 0.0
C992 C 0.78782 0.58781 0.46658 0.0
C993 C 0.82202 0.59244 0.48824 0.0
C994 C 0.79398 0.55599 0.4507 0.0
C995 C 0.83475 0.52738 0.45547 0.0
H996 H 0.75559 0.60891 0.46235 0.0
H997 H 0.76639 0.55376 0.4348 0.0
S998 S 0.93568 0.52629 0.50777 0.0
N999 N 0.89838 0.56603 0.51285 0.0
N1000 N 0.91056 0.5061 0.48214 0.0
C1001 C 0.86945 0.53167 0.47682 0.0
C1002 C 0.86298 0.56421 0.49333 0.0
C1003 C 0.70453 0.82678 0.39008 0.0
C1004 C 0.70118 0.83416 0.43503 0.0
C1005 C 0.73637 0.83016 0.36524 0.0
C1006 C 0.76687 0.84054 0.38434 0.0
H1007 H 0.68266 0.8179 0.37399 0.0
H1008 H 0.73839 0.82306 0.33135 0.0
S1009 S 0.77316 0.86227 0.50061 0.0
N1010 N 0.73184 0.85235 0.49691 0.0
N1011 N 0.79123 0.85813 0.45129 0.0
C1012 C 0.76348 0.84823 0.42907 0.0
C1013 C 0.73087 0.84528 0.45404 0.0
C1014 C 0.40917 0.60539 0.45067 0.0
C1015 C 0.40656 0.60149 0.49507 0.0
C1016 C 0.40191 0.63671 0.43414 0.0
C1017 C 0.392 0.66516 0.46149 0.0
H1018 H 0.41402 0.58474 0.42828 0.0
H1019 H 0.40143 0.63912 0.39948 0.0
S1020 S 0.38941 0.66616 0.58102 0.0
N1021 N 0.39891 0.6272 0.56653 0.0
N1022 N 0.38605 0.68594 0.53577 0.0
C1023 C 0.39274 0.66075 0.50629 0.0
C1024 C 0.39982 0.62896 0.52298 0.0
C1025 C 0.47338 0.33718 0.42765 0.0
C1026 C 0.47305 0.35516 0.46659 0.0
C1027 C 0.43453 0.34245 0.40362 0.0
C1028 C 0.39293 0.36561 0.41758 0.0
H1029 H 0.50418 0.31798 0.41597 0.0
H1030 H 0.43711 0.32712 0.37486 0.0
S1031 S 0.37274 0.42158 0.51498 0.0
N1032 N 0.42665 0.39913 0.5159 0.0
N1033 N 0.35402 0.40868 0.47161 0.0
C1034 C 0.39202 0.38487 0.45542 0.0
C1035 C 0.43176 0.37982 0.47959 0.0
C1036 C 0.63513 0.89668 0.69726 0.0
C1037 C 0.63913 0.88199 0.65565 0.0
C1038 C 0.67242 0.89307 0.72239 0.0
C1039 C 0.71484 0.87414 0.70694 0.0
H1040 H 0.60301 0.91108 0.7104 0.0
H1041 H 0.66802 0.90519 0.75396 0.0
S1042 S 0.74316 0.82669 0.60264 0.0
N1043 N 0.68909 0.84557 0.60177 0.0
N1044 N 0.75866 0.83826 0.64894 0.0
C1045 C 0.71917 0.85852 0.66594 0.0
C1046 C 0.68145 0.86258 0.64028 0.0
C1047 C 0.71152 0.29869 0.40199 0.0
C1048 C 0.70527 0.3125 0.44398 0.0
C1049 C 0.73647 0.30584 0.37312 0.0
C1050 C 0.75633 0.32698 0.38524 0.0
H1051 H 0.6961 0.2829 0.39103 0.0
H1052 H 0.73979 0.29485 0.34093 0.0
S1053 S 0.75269 0.36706 0.49336 0.0
N1054 N 0.72291 0.34644 0.49747 0.0
N1055 N 0.76959 0.36027 0.44338 0.0
C1056 C 0.75104 0.34036 0.42767 0.0
C1057 C 0.72558 0.33303 0.45698 0.0
C1058 C 0.82803 0.72446 0.38933 0.0
C1059 C 0.84106 0.72689 0.43227 0.0
C1060 C 0.84696 0.73272 0.35547 0.0
C1061 C 0.87828 0.74517 0.36356 0.0
H1062 H 0.80145 0.71778 0.38214 0.0
H1063 H 0.83359 0.73261 0.3231 0.0
S1064 S 0.92831 0.75022 0.47093 0.0
N1065 N 0.89137 0.73714 0.48131 0.0
N1066 N 0.9263 0.75403 0.41799 0.0
C1067 C 0.89483 0.74412 0.40632 0.0
C1068 C 0.876 0.73498 0.44071 0.0
C1069 C 0.47199 0.88802 0.42883 0.0
C1070 C 0.46994 0.87853 0.47104 0.0
C1071 C 0.44221 0.88745 0.39626 0.0
C1072 C 0.41002 0.87695 0.40506 0.0
H1073 H 0.49899 0.89291 0.4201 0.0
H1074 H 0.4467 0.89267 0.36349 0.0
S1075 S 0.38693 0.85569 0.51269 0.0
N1076 N 0.43022 0.86285 0.52137 0.0
N1077 N 0.37395 0.86206 0.46072 0.0
C1078 C 0.40527 0.87065 0.44818 0.0
C1079 C 0.4354 0.87134 0.48107 0.0
C1080 C 0.27499 0.50418 0.42946 0.0
C1081 C 0.25426 0.50551 0.46815 0.0
C1082 C 0.27323 0.48386 0.39449 0.0
C1083 C 0.25074 0.46394 0.39672 0.0
H1084 H 0.29512 0.51725 0.42695 0.0
H1085 H 0.29236 0.48197 0.36674 0.0
S1086 S 0.18295 0.46418 0.4872 0.0
N1087 N 0.20451 0.48954 0.50396 0.0
N1088 N 0.20099 0.45141 0.43823 0.0
C1089 C 0.22572 0.46804 0.43334 0.0
C1090 C 0.2276 0.48876 0.46909 0.0
C1091 C 0.46438 0.32993 0.66941 0.0
C1092 C 0.50783 0.30643 0.67943 0.0
C1093 C 0.43001 0.33278 0.69424 0.0
C1094 C 0.43739 0.31214 0.73006 0.0
H1095 H 0.45631 0.34531 0.64094 0.0
H1096 H 0.397 0.35053 0.68412 0.0
S1097 S 0.54521 0.24976 0.77384 0.0
N1098 N 0.55695 0.26466 0.73071 0.0
N1099 N 0.4913 0.26956 0.77708 0.0
C1100 C 0.48066 0.28989 0.74229 0.0
C1101 C 0.51613 0.287 0.71687 0.0
C1102 C 0.70926 0.61198 0.66675 0.0
C1103 C 0.73446 0.61626 0.63492 0.0
C1104 C 0.72313 0.58069 0.68718 0.0
C1105 C 0.7627 0.55291 0.67635 0.0
H1106 H 0.67945 0.6333 0.67682 0.0
H1107 H 0.70389 0.5786 0.71266 0.0
S1108 S 0.84079 0.54982 0.59571 0.0
N1109 N 0.80172 0.58904 0.59458 0.0
N1110 N 0.82569 0.5306 0.63118 0.0
C1111 C 0.78716 0.55634 0.64365 0.0
C1112 C 0.77365 0.58793 0.62338 0.0
C1113 C 0.25365 0.63376 0.64096 0.0
C1114 C 0.29603 0.60852 0.65145 0.0
C1115 C 0.23838 0.66654 0.65861 0.0
C1116 C 0.26496 0.6754 0.6873 0.0
H1117 H 0.23261 0.62856 0.61771 0.0
H1118 H 0.20614 0.68549 0.64839 0.0
S1119 S 0.37761 0.6182 0.72736 0.0
N1120 N 0.36329 0.59415 0.69488 0.0
N1121 N 0.33506 0.6559 0.72679 0.0
C1122 C 0.30655 0.64999 0.69977 0.0
C1123 C 0.32198 0.61653 0.68213 0.0
loop_
_geom_bond_atom_site_label_1
_geom_bond_atom_site_label_2
_geom_bond_distance
_geom_bond_site_symmetry_2
_ccdc_geom_bond_type
Cu0 N1 1.999 . S
Cu0 O6 1.974 . S
Cu0 N11 1.985 . S
Cu0 O20 1.959 1_455 S
N1 Cu0 1.999 . S
N1 C3 1.263 . S
N1 C5 1.389 . S
N2 C3 1.358 . S
N2 C4 1.400 . S
C3 N1 1.263 . S
C3 N2 1.358 . S
C3 H9 0.930 . S
C4 N2 1.400 . S
C4 C5 1.351 . S
C4 H21 0.930 . S
C5 N1 1.389 . S
C5 C4 1.351 . S
C5 H10 0.930 . S
O6 Cu0 1.974 . S
O6 C16 1.282 . S
C7 O8 1.261 . S
C7 O20 1.251 . S
O8 C7 1.261 . S
H9 C3 0.930 . S
H10 C5 0.930 . S
N11 Cu0 1.985 . S
N11 C13 1.335 1_455 S
N11 C14 1.390 . S
N12 C13 1.345 . S
N12 C15 1.336 . S
C13 N11 1.335 1_655 S
C13 N12 1.345 . S
C13 H18 0.930 . S
C14 N11 1.390 . S
C14 C15 1.346 1_455 S
C14 H19 0.930 . S
C15 N12 1.336 . S
C15 C14 1.346 1_655 S
C15 H22 0.929 . S
C16 O6 1.282 . S
C16 O17 1.216 . S
O17 C16 1.216 . S
H18 C13 0.930 . S
H19 C14 0.930 . S
O20 Cu0 1.959 1_655 S
O20 C7 1.251 . S
H21 C4 0.930 . S
H22 C15 0.929 . S
Cu23 N24 1.999 1_455 S
Cu23 O29 1.974 1_455 S
Cu23 N34 1.985 . S
Cu23 O43 1.959 . S
N24 Cu23 1.999 1_655 S
N24 C26 1.263 . S
N24 C28 1.389 1_655 S
N25 C26 1.358 . S
N25 C27 1.400 . S
C26 N24 1.263 . S
C26 N25 1.358 . S
C26 H32 0.930 . S
C27 N25 1.400 . S
C27 C28 1.351 1_655 S
C27 H44 0.930 . S
C28 N24 1.389 1_455 S
C28 C27 1.351 1_455 S
C28 H33 0.930 . S
O29 Cu23 1.974 1_655 S
O29 C39 1.282 . S
C30 O31 1.261 . S
C30 O43 1.251 . S
O31 C30 1.261 . S
H32 C26 0.930 . S
H33 C28 0.930 . S
N34 Cu23 1.985 . S
N34 C36 1.335 . S
N34 C37 1.390 . S
N35 C36 1.345 . S
N35 C38 1.336 . S
C36 N34 1.335 . S
C36 N35 1.345 . S
C36 H41 0.930 . S
C37 N34 1.390 . S
C37 C38 1.346 . S
C37 H42 0.930 . S
C38 N35 1.336 . S
C38 C37 1.346 . S
C38 H45 0.929 . S
C39 O29 1.282 . S
C39 O40 1.216 . S
O40 C39 1.216 . S
H41 C36 0.930 . S
H42 C37 0.930 . S
O43 Cu23 1.959 . S
O43 C30 1.251 . S
H44 C27 0.930 . S
H45 C38 0.929 . S
Cu46 N47 1.999 1_554 S
Cu46 O52 1.974 . S
Cu46 N57 1.985 . S
Cu46 O66 1.959 1_554 S
N47 Cu46 1.999 1_556 S
N47 C49 1.263 . S
N47 C51 1.389 . S
N48 C49 1.358 . S
N48 C50 1.400 . S
C49 N47 1.263 . S
C49 N48 1.358 . S
C49 H55 0.929 . S
C50 N48 1.400 . S
C50 C51 1.351 . S
C50 H67 0.930 . S
C51 N47 1.389 . S
C51 C50 1.351 . S
C51 H56 0.930 . S
O52 Cu46 1.974 . S
O52 C62 1.282 . S
C53 O54 1.261 . S
C53 O66 1.251 . S
O54 C53 1.261 . S
H55 C49 0.929 . S
H56 C51 0.930 . S
N57 Cu46 1.985 . S
N57 C59 1.335 . S
N57 C60 1.390 . S
N58 C59 1.345 . S
N58 C61 1.336 . S
C59 N57 1.335 . S
C59 N58 1.345 . S
C59 H64 0.930 . S
C60 N57 1.390 . S
C60 C61 1.346 . S
C60 H65 0.930 . S
C61 N58 1.336 . S
C61 C60 1.346 . S
C61 H68 0.929 . S
C62 O52 1.282 . S
C62 O63 1.216 . S
O63 C62 1.216 . S
H64 C59 0.930 . S
H65 C60 0.930 . S
O66 Cu46 1.959 1_556 S
O66 C53 1.251 . S
H67 C50 0.930 . S
H68 C61 0.929 . S
Cu69 N70 1.999 1_554 S
Cu69 O75 1.974 . S
Cu69 N80 1.985 . S
Cu69 O89 1.959 1_554 S
N70 Cu69 1.999 1_556 S
N70 C72 1.263 . S
N70 C74 1.389 . S
N71 C72 1.358 . S
N71 C73 1.400 . S
C72 N70 1.263 . S
C72 N71 1.358 . S
C72 H78 0.930 . S
C73 N71 1.400 . S
C73 C74 1.351 . S
C73 H90 0.930 . S
C74 N70 1.389 . S
C74 C73 1.351 . S
C74 H79 0.930 . S
O75 Cu69 1.974 . S
O75 C85 1.282 . S
C76 O77 1.261 . S
C76 O89 1.251 . S
O77 C76 1.261 . S
H78 C72 0.930 . S
H79 C74 0.930 . S
N80 Cu69 1.985 . S
N80 C82 1.335 1_455 S
N80 C83 1.390 . S
N81 C82 1.345 . S
N81 C84 1.336 . S
C82 N80 1.335 1_655 S
C82 N81 1.345 . S
C82 H87 0.930 . S
C83 N80 1.390 . S
C83 C84 1.346 1_455 S
C83 H88 0.930 . S
C84 N81 1.336 . S
C84 C83 1.346 1_655 S
C84 H91 0.929 . S
C85 O75 1.282 . S
C85 O86 1.216 . S
O86 C85 1.216 . S
H87 C82 0.930 . S
H88 C83 0.930 . S
O89 Cu69 1.959 1_556 S
O89 C76 1.251 . S
H90 C73 0.930 . S
H91 C84 0.929 . S
Cu92 N93 1.999 1_554 S
Cu92 O98 1.974 . S
Cu92 N103 1.985 1_545 S
Cu92 O112 1.959 1_544 S
N93 Cu92 1.999 1_556 S
N93 C95 1.263 . S
N93 C97 1.389 . S
N94 C95 1.358 . S
N94 C96 1.400 . S
C95 N93 1.263 . S
C95 N94 1.358 . S
C95 H101 0.930 . S
C96 N94 1.400 . S
C96 C97 1.351 . S
C96 H113 0.930 . S
C97 N93 1.389 . S
C97 C96 1.351 . S
C97 H102 0.930 . S
O98 Cu92 1.974 . S
O98 C108 1.282 . S
C99 O100 1.261 . S
C99 O112 1.251 . S
O100 C99 1.261 . S
H101 C95 0.930 . S
H102 C97 0.930 . S
N103 Cu92 1.985 1_565 S
N103 C105 1.335 . S
N103 C106 1.390 . S
N104 C105 1.345 . S
N104 C107 1.336 . S
C105 N103 1.335 . S
C105 N104 1.345 . S
C105 H110 0.930 . S
C106 N103 1.390 . S
C106 C107 1.346 . S
C106 H111 0.930 . S
C107 N104 1.336 . S
C107 C106 1.346 . S
C107 H114 0.929 . S
C108 O98 1.282 . S
C108 O109 1.216 . S
O109 C108 1.216 . S
H110 C105 0.930 . S
H111 C106 0.930 . S
O112 Cu92 1.959 1_566 S
O112 C99 1.251 . S
H113 C96 0.930 . S
H114 C107 0.929 . S
Cu115 N116 1.999 1_454 S
Cu115 O121 1.974 1_455 S
Cu115 N126 1.985 . S
Cu115 O135 1.959 1_554 S
N116 Cu115 1.999 1_656 S
N116 C118 1.263 . S
N116 C120 1.389 . S
N117 C118 1.358 . S
N117 C119 1.400 . S
C118 N116 1.263 . S
C118 N117 1.358 . S
C118 H124 0.930 . S
C119 N117 1.400 . S
C119 C120 1.351 . S
C119 H136 0.930 . S
C120 N116 1.389 . S
C120 C119 1.351 . S
C120 H125 0.930 1_655 S
O121 Cu115 1.974 1_655 S
O121 C131 1.282 . S
C122 O123 1.261 . S
C122 O135 1.251 . S
O123 C122 1.261 . S
H124 C118 0.930 . S
H125 C120 0.930 1_455 S
N126 Cu115 1.985 . S
N126 C128 1.335 . S
N126 C129 1.390 . S
N127 C128 1.345 . S
N127 C130 1.336 . S
C128 N126 1.335 . S
C128 N127 1.345 . S
C128 H133 0.930 . S
C129 N126 1.390 . S
C129 C130 1.346 . S
C129 H134 0.930 . S
C130 N127 1.336 . S
C130 C129 1.346 . S
C130 H137 0.929 . S
C131 O121 1.282 . S
C131 O132 1.216 . S
O132 C131 1.216 . S
H133 C128 0.930 . S
H134 C129 0.930 . S
O135 Cu115 1.959 1_556 S
O135 C122 1.251 . S
H136 C119 0.930 . S
H137 C130 0.929 . S
Cu138 N139 1.999 . S
Cu138 O144 1.974 . S
Cu138 N149 1.985 . S
Cu138 O158 1.959 . S
N139 Cu138 1.999 . S
N139 C141 1.263 . S
N139 C143 1.389 . S
N140 C141 1.358 . S
N140 C142 1.400 . S
C141 N139 1.263 . S
C141 N140 1.358 . S
C141 H147 0.930 . S
C142 N140 1.400 . S
C142 C143 1.351 . S
C142 H159 0.930 . S
C143 N139 1.389 . S
C143 C142 1.351 . S
C143 H148 0.930 . S
O144 Cu138 1.974 . S
O144 C154 1.282 . S
C145 O146 1.261 . S
C145 O158 1.251 . S
O146 C145 1.261 . S
H147 C141 0.930 . S
H148 C143 0.930 . S
N149 Cu138 1.985 . S
N149 C151 1.335 . S
N149 C152 1.390 . S
N150 C151 1.345 . S
N150 C153 1.336 . S
C151 N149 1.335 . S
C151 N150 1.345 . S
C151 H156 0.930 . S
C152 N149 1.390 . S
C152 C153 1.346 . S
C152 H157 0.930 . S
C153 N150 1.336 . S
C153 C152 1.346 . S
C153 H160 0.929 . S
C154 O144 1.282 . S
C154 O155 1.216 . S
O155 C154 1.216 . S
H156 C151 0.930 . S
H157 C152 0.930 . S
O158 Cu138 1.959 . S
O158 C145 1.251 . S
H159 C142 0.930 . S
H160 C153 0.929 . S
Cu161 N162 1.999 . S
Cu161 O167 1.974 . S
Cu161 N172 1.985 . S
Cu161 O181 1.959 . S
N162 Cu161 1.999 . S
N162 C164 1.263 . S
N162 C166 1.389 . S
N163 C164 1.358 . S
N163 C165 1.400 . S
C164 N162 1.263 . S
C164 N163 1.358 . S
C164 H170 0.930 . S
C165 N163 1.400 . S
C165 C166 1.351 . S
C165 H182 0.930 . S
C166 N162 1.389 . S
C166 C165 1.351 . S
C166 H171 0.930 . S
O167 Cu161 1.974 . S
O167 C177 1.282 . S
C168 O169 1.261 . S
C168 O181 1.251 . S
O169 C168 1.261 . S
H170 C164 0.930 . S
H171 C166 0.930 . S
N172 Cu161 1.985 . S
N172 C174 1.335 . S
N172 C175 1.390 . S
N173 C174 1.345 . S
N173 C176 1.336 . S
C174 N172 1.335 . S
C174 N173 1.345 . S
C174 H179 0.930 . S
C175 N172 1.390 . S
C175 C176 1.346 . S
C175 H180 0.930 . S
C176 N173 1.336 . S
C176 C175 1.346 . S
C176 H183 0.929 . S
C177 O167 1.282 . S
C177 O178 1.216 . S
O178 C177 1.216 . S
H179 C174 0.930 . S
H180 C175 0.930 . S
O181 Cu161 1.959 . S
O181 C168 1.251 . S
H182 C165 0.930 . S
H183 C176 0.929 . S
Cu184 N185 1.999 . S
Cu184 O190 1.974 . S
Cu184 N195 1.985 . S
Cu184 O204 1.959 . S
N185 Cu184 1.999 . S
N185 C187 1.263 . S
N185 C189 1.389 . S
N186 C187 1.358 . S
N186 C188 1.400 . S
C187 N185 1.263 . S
C187 N186 1.358 . S
C187 H193 0.930 . S
C188 N186 1.400 . S
C188 C189 1.351 . S
C188 H205 0.930 . S
C189 N185 1.389 . S
C189 C188 1.351 . S
C189 H194 0.930 . S
O190 Cu184 1.974 . S
O190 C200 1.282 . S
C191 O192 1.261 . S
C191 O204 1.251 . S
O192 C191 1.261 . S
H193 C187 0.930 . S
H194 C189 0.930 . S
N195 Cu184 1.985 . S
N195 C197 1.335 . S
N195 C198 1.390 . S
N196 C197 1.345 . S
N196 C199 1.336 . S
C197 N195 1.335 . S
C197 N196 1.345 . S
C197 H202 0.930 . S
C198 N195 1.390 . S
C198 C199 1.346 . S
C198 H203 0.930 . S
C199 N196 1.336 . S
C199 C198 1.346 . S
C199 H206 0.929 . S
C200 O190 1.282 . S
C200 O201 1.216 . S
O201 C200 1.216 . S
H202 C197 0.930 . S
H203 C198 0.930 . S
O204 Cu184 1.959 . S
O204 C191 1.251 . S
H205 C188 0.930 . S
H206 C199 0.929 . S
Cu207 N208 1.999 . S
Cu207 O213 1.974 . S
Cu207 N218 1.985 . S
Cu207 O227 1.959 . S
N208 Cu207 1.999 . S
N208 C210 1.263 . S
N208 C212 1.389 . S
N209 C210 1.358 . S
N209 C211 1.400 . S
C210 N208 1.263 . S
C210 N209 1.358 . S
C210 H216 0.930 . S
C211 N209 1.400 . S
C211 C212 1.351 . S
C211 H228 0.930 . S
C212 N208 1.389 . S
C212 C211 1.351 . S
C212 H217 0.930 . S
O213 Cu207 1.974 . S
O213 C223 1.282 . S
C214 O215 1.261 . S
C214 O227 1.251 . S
O215 C214 1.261 . S
H216 C210 0.930 . S
H217 C212 0.930 . S
N218 Cu207 1.985 . S
N218 C220 1.335 . S
N218 C221 1.390 . S
N219 C220 1.345 . S
N219 C222 1.336 . S
C220 N218 1.335 . S
C220 N219 1.345 . S
C220 H225 0.930 . S
C221 N218 1.390 . S
C221 C222 1.346 . S
C221 H226 0.930 . S
C222 N219 1.336 . S
C222 C221 1.346 . S
C222 H229 0.929 . S
C223 O213 1.282 . S
C223 O224 1.216 . S
O224 C223 1.216 . S
H225 C220 0.930 . S
H226 C221 0.930 . S
O227 Cu207 1.959 . S
O227 C214 1.251 . S
H228 C211 0.930 . S
H229 C222 0.929 . S
Cu230 N231 1.999 . S
Cu230 O236 1.974 . S
Cu230 N241 1.985 . S
Cu230 O250 1.959 . S
N231 Cu230 1.999 . S
N231 C233 1.263 . S
N231 C235 1.389 . S
N232 C233 1.358 . S
N232 C234 1.400 . S
C233 N231 1.263 . S
C233 N232 1.358 . S
C233 H239 0.930 . S
C234 N232 1.400 . S
C234 C235 1.351 . S
C234 H251 0.930 . S
C235 N231 1.389 . S
C235 C234 1.351 . S
C235 H240 0.930 . S
O236 Cu230 1.974 . S
O236 C246 1.282 . S
C237 O238 1.261 . S
C237 O250 1.251 . S
O238 C237 1.261 . S
H239 C233 0.930 . S
H240 C235 0.930 . S
N241 Cu230 1.985 . S
N241 C243 1.335 . S
N241 C244 1.390 . S
N242 C243 1.345 . S
N242 C245 1.336 . S
C243 N241 1.335 . S
C243 N242 1.345 . S
C243 H248 0.930 . S
C244 N241 1.390 . S
C244 C245 1.346 . S
C244 H249 0.930 . S
C245 N242 1.336 . S
C245 C244 1.346 . S
C245 H252 0.929 . S
C246 O236 1.282 . S
C246 O247 1.216 . S
O247 C246 1.216 . S
H248 C243 0.930 . S
H249 C244 0.930 . S
O250 Cu230 1.959 . S
O250 C237 1.251 . S
H251 C234 0.930 . S
H252 C245 0.929 . S
Cu253 N254 1.999 . S
Cu253 O259 1.974 . S
Cu253 N264 1.985 . S
Cu253 O273 1.959 . S
N254 Cu253 1.999 . S
N254 C256 1.263 . S
N254 C258 1.389 . S
N255 C256 1.358 . S
N255 C257 1.400 . S
C256 N254 1.263 . S
C256 N255 1.358 . S
C256 H262 0.930 . S
C257 N255 1.400 . S
C257 C258 1.351 . S
C257 H274 0.930 . S
C258 N254 1.389 . S
C258 C257 1.351 . S
C258 H263 0.930 . S
O259 Cu253 1.974 . S
O259 C269 1.282 . S
C260 O261 1.261 . S
C260 O273 1.251 . S
O261 C260 1.261 . S
H262 C256 0.930 . S
H263 C258 0.930 . S
N264 Cu253 1.985 . S
N264 C266 1.335 . S
N264 C267 1.390 . S
N265 C266 1.345 . S
N265 C268 1.336 . S
C266 N264 1.335 . S
C266 N265 1.345 . S
C266 H271 0.930 . S
C267 N264 1.390 . S
C267 C268 1.346 . S
C267 H272 0.930 . S
C268 N265 1.336 . S
C268 C267 1.346 . S
C268 H275 0.929 . S
C269 O259 1.282 . S
C269 O270 1.216 . S
O270 C269 1.216 . S
H271 C266 0.930 . S
H272 C267 0.930 . S
O273 Cu253 1.959 . S
O273 C260 1.251 . S
H274 C257 0.930 . S
H275 C268 0.929 . S
Tb276 C278 2.809 . S
Tb276 O296 2.484 . S
Tb276 O297 2.440 . S
Tb276 O298 2.658 . S
Tb276 O299 2.409 . S
Tb276 O300 2.378 . S
Tb276 O304 2.325 . S
Tb276 O307 2.341 . S
Tb277 C287 2.809 . S
Tb277 O298 2.325 . S
Tb277 O301 2.341 . S
Tb277 O302 2.484 . S
Tb277 O303 2.440 . S
Tb277 O304 2.658 . S
Tb277 O305 2.409 . S
Tb277 O306 2.378 . S
C278 Tb276 2.809 . S
C278 C279 1.514 . S
C278 O296 1.248 . S
C278 O297 1.266 . S
C279 C278 1.514 . S
C279 C280 1.359 . S
C279 C284 1.348 . S
C280 C279 1.359 . S
C280 C281 1.380 . S
C280 H308 0.929 . S
C281 C280 1.380 . S
C281 C282 1.347 . S
C281 H309 0.931 . S
C282 C281 1.347 . S
C282 C283 1.369 . S
C283 C282 1.369 . S
C283 C284 1.408 . S
C283 H310 0.930 . S
C284 C279 1.348 . S
C284 C283 1.408 . S
C284 H311 0.930 . S
C285 O298 1.281 . S
C285 O299 1.254 . S
C286 O300 1.236 . S
C286 O301 1.266 . S
C287 Tb277 2.809 . S
C287 C288 1.514 . S
C287 O302 1.248 . S
C287 O303 1.266 . S
C288 C287 1.514 . S
C288 C289 1.359 . S
C288 C293 1.348 . S
C289 C288 1.359 . S
C289 C290 1.380 . S
C289 H312 0.929 . S
C290 C289 1.380 . S
C290 C291 1.347 . S
C290 H313 0.931 . S
C291 C290 1.347 . S
C291 C292 1.369 . S
C292 C291 1.369 . S
C292 C293 1.408 . S
C292 H314 0.930 . S
C293 C288 1.348 . S
C293 C292 1.408 . S
C293 H315 0.930 . S
C294 O304 1.281 . S
C294 O305 1.254 . S
C295 O306 1.236 . S
C295 O307 1.266 . S
O296 Tb276 2.484 . S
O296 C278 1.248 . S
O297 Tb276 2.440 . S
O297 C278 1.266 . S
O298 Tb276 2.658 . S
O298 Tb277 2.325 . S
O298 C285 1.281 . S
O299 Tb276 2.409 . S
O299 C285 1.254 . S
O300 Tb276 2.378 . S
O300 C286 1.236 . S
O301 Tb277 2.341 . S
O301 C286 1.266 . S
O302 Tb277 2.484 . S
O302 C287 1.248 . S
O303 Tb277 2.440 . S
O303 C287 1.266 . S
O304 Tb276 2.325 . S
O304 Tb277 2.658 . S
O304 C294 1.281 . S
O305 Tb277 2.409 . S
O305 C294 1.254 . S
O306 Tb277 2.378 . S
O306 C295 1.236 . S
O307 Tb276 2.341 . S
O307 C295 1.266 . S
H308 C280 0.929 . S
H309 C281 0.931 . S
H310 C283 0.930 . S
H311 C284 0.930 . S
H312 C289 0.929 . S
H313 C290 0.931 . S
H314 C292 0.930 . S
H315 C293 0.930 . S
Tb316 C318 2.809 . S
Tb316 O336 2.484 . S
Tb316 O337 2.440 . S
Tb316 O338 2.658 . S
Tb316 O339 2.409 . S
Tb316 O340 2.378 . S
Tb316 O344 2.325 . S
Tb316 O347 2.341 . S
Tb317 C327 2.809 . S
Tb317 O338 2.325 . S
Tb317 O341 2.341 . S
Tb317 O342 2.484 . S
Tb317 O343 2.440 . S
Tb317 O344 2.658 . S
Tb317 O345 2.409 . S
Tb317 O346 2.378 . S
C318 Tb316 2.809 . S
C318 C319 1.514 . S
C318 O336 1.248 . S
C318 O337 1.266 . S
C319 C318 1.514 . S
C319 C320 1.359 . S
C319 C324 1.348 . S
C320 C319 1.359 . S
C320 C321 1.380 . S
C320 H348 0.929 . S
C321 C320 1.380 . S
C321 C322 1.347 . S
C321 H349 0.931 . S
C322 C321 1.347 . S
C322 C323 1.369 . S
C323 C322 1.369 . S
C323 C324 1.408 . S
C323 H350 0.930 . S
C324 C319 1.348 . S
C324 C323 1.408 . S
C324 H351 0.930 . S
C325 O338 1.281 . S
C325 O339 1.254 . S
C326 O340 1.236 . S
C326 O341 1.266 . S
C327 Tb317 2.809 . S
C327 C328 1.514 . S
C327 O342 1.248 . S
C327 O343 1.266 . S
C328 C327 1.514 . S
C328 C329 1.359 . S
C328 C333 1.348 . S
C329 C328 1.359 . S
C329 C330 1.380 . S
C329 H352 0.929 . S
C330 C329 1.380 . S
C330 C331 1.347 . S
C330 H353 0.931 . S
C331 C330 1.347 . S
C331 C332 1.369 . S
C332 C331 1.369 . S
C332 C333 1.408 . S
C332 H354 0.930 . S
C333 C328 1.348 . S
C333 C332 1.408 . S
C333 H355 0.930 . S
C334 O344 1.281 . S
C334 O345 1.254 . S
C335 O346 1.236 . S
C335 O347 1.266 . S
O336 Tb316 2.484 . S
O336 C318 1.248 . S
O337 Tb316 2.440 . S
O337 C318 1.266 . S
O338 Tb316 2.658 . S
O338 Tb317 2.325 . S
O338 C325 1.281 . S
O339 Tb316 2.409 . S
O339 C325 1.254 . S
O340 Tb316 2.378 . S
O340 C326 1.236 . S
O341 Tb317 2.341 . S
O341 C326 1.266 . S
O342 Tb317 2.484 . S
O342 C327 1.248 . S
O343 Tb317 2.440 . S
O343 C327 1.266 . S
O344 Tb316 2.325 . S
O344 Tb317 2.658 . S
O344 C334 1.281 . S
O345 Tb317 2.409 . S
O345 C334 1.254 . S
O346 Tb317 2.378 . S
O346 C335 1.236 . S
O347 Tb316 2.341 . S
O347 C335 1.266 . S
H348 C320 0.929 . S
H349 C321 0.931 . S
H350 C323 0.930 . S
H351 C324 0.930 . S
H352 C329 0.929 . S
H353 C330 0.931 . S
H354 C332 0.930 . S
H355 C333 0.930 . S
Tb356 C358 2.809 . S
Tb356 O376 2.484 . S
Tb356 O377 2.440 . S
Tb356 O378 2.658 . S
Tb356 O379 2.409 . S
Tb356 O380 2.378 . S
Tb356 O384 2.325 . S
Tb356 O387 2.341 . S
Tb357 C367 2.809 . S
Tb357 O378 2.325 . S
Tb357 O381 2.341 . S
Tb357 O382 2.484 . S
Tb357 O383 2.440 . S
Tb357 O384 2.658 . S
Tb357 O385 2.409 . S
Tb357 O386 2.378 . S
C358 Tb356 2.809 . S
C358 C359 1.514 . S
C358 O376 1.248 . S
C358 O377 1.266 . S
C359 C358 1.514 . S
C359 C360 1.359 . S
C359 C364 1.348 . S
C360 C359 1.359 . S
C360 C361 1.380 . S
C360 H388 0.929 . S
C361 C360 1.380 . S
C361 C362 1.347 . S
C361 H389 0.931 . S
C362 C361 1.347 . S
C362 C363 1.369 . S
C363 C362 1.369 . S
C363 C364 1.408 . S
C363 H390 0.930 . S
C364 C359 1.348 . S
C364 C363 1.408 . S
C364 H391 0.930 . S
C365 O378 1.281 . S
C365 O379 1.254 . S
C366 O380 1.236 . S
C366 O381 1.266 . S
C367 Tb357 2.809 . S
C367 C368 1.514 . S
C367 O382 1.248 . S
C367 O383 1.266 . S
C368 C367 1.514 . S
C368 C369 1.359 . S
C368 C373 1.348 . S
C369 C368 1.359 . S
C369 C370 1.380 . S
C369 H392 0.929 . S
C370 C369 1.380 . S
C370 C371 1.347 . S
C370 H393 0.931 . S
C371 C370 1.347 . S
C371 C372 1.369 . S
C372 C371 1.369 . S
C372 C373 1.408 . S
C372 H394 0.930 . S
C373 C368 1.348 . S
C373 C372 1.408 . S
C373 H395 0.930 . S
C374 O384 1.281 . S
C374 O385 1.254 . S
C375 O386 1.236 . S
C375 O387 1.266 . S
O376 Tb356 2.484 . S
O376 C358 1.248 . S
O377 Tb356 2.440 . S
O377 C358 1.266 . S
O378 Tb356 2.658 . S
O378 Tb357 2.325 . S
O378 C365 1.281 . S
O379 Tb356 2.409 . S
O379 C365 1.254 . S
O380 Tb356 2.378 . S
O380 C366 1.236 . S
O381 Tb357 2.341 . S
O381 C366 1.266 . S
O382 Tb357 2.484 . S
O382 C367 1.248 . S
O383 Tb357 2.440 . S
O383 C367 1.266 . S
O384 Tb356 2.325 . S
O384 Tb357 2.658 . S
O384 C374 1.281 . S
O385 Tb357 2.409 . S
O385 C374 1.254 . S
O386 Tb357 2.378 . S
O386 C375 1.236 . S
O387 Tb356 2.341 . S
O387 C375 1.266 . S
H388 C360 0.929 . S
H389 C361 0.931 . S
H390 C363 0.930 . S
H391 C364 0.930 . S
H392 C369 0.929 . S
H393 C370 0.931 . S
H394 C372 0.930 . S
H395 C373 0.930 . S
Tb396 C398 2.809 . S
Tb396 O416 2.484 . S
Tb396 O417 2.440 . S
Tb396 O418 2.658 . S
Tb396 O419 2.409 . S
Tb396 O420 2.378 . S
Tb396 O424 2.325 . S
Tb396 O427 2.341 . S
Tb397 C407 2.809 . S
Tb397 O418 2.325 . S
Tb397 O421 2.341 . S
Tb397 O422 2.484 . S
Tb397 O423 2.440 . S
Tb397 O424 2.658 . S
Tb397 O425 2.409 . S
Tb397 O426 2.378 . S
C398 Tb396 2.809 . S
C398 C399 1.514 . S
C398 O416 1.248 . S
C398 O417 1.266 . S
C399 C398 1.514 . S
C399 C400 1.359 . S
C399 C404 1.348 . S
C400 C399 1.359 . S
C400 C401 1.380 . S
C400 H428 0.929 . S
C401 C400 1.380 . S
C401 C402 1.347 . S
C401 H429 0.931 . S
C402 C401 1.347 . S
C402 C403 1.369 . S
C403 C402 1.369 . S
C403 C404 1.408 . S
C403 H430 0.930 . S
C404 C399 1.348 . S
C404 C403 1.408 . S
C404 H431 0.930 . S
C405 O418 1.281 . S
C405 O419 1.254 . S
C406 O420 1.236 . S
C406 O421 1.266 . S
C407 Tb397 2.809 . S
C407 C408 1.514 . S
C407 O422 1.248 . S
C407 O423 1.266 . S
C408 C407 1.514 . S
C408 C409 1.359 . S
C408 C413 1.348 . S
C409 C408 1.359 . S
C409 C410 1.380 1_565 S
C409 H432 0.929 . S
C410 C409 1.380 1_545 S
C410 C411 1.347 . S
C410 H433 0.931 . S
C411 C410 1.347 . S
C411 C412 1.369 1_545 S
C412 C411 1.369 1_565 S
C412 C413 1.408 . S
C412 H434 0.930 . S
C413 C408 1.348 . S
C413 C412 1.408 . S
C413 H435 0.930 . S
C414 O424 1.281 . S
C414 O425 1.254 . S
C415 O426 1.236 . S
C415 O427 1.266 . S
O416 Tb396 2.484 . S
O416 C398 1.248 . S
O417 Tb396 2.440 . S
O417 C398 1.266 . S
O418 Tb396 2.658 . S
O418 Tb397 2.325 . S
O418 C405 1.281 . S
O419 Tb396 2.409 . S
O419 C405 1.254 . S
O420 Tb396 2.378 . S
O420 C406 1.236 . S
O421 Tb397 2.341 . S
O421 C406 1.266 . S
O422 Tb397 2.484 . S
O422 C407 1.248 . S
O423 Tb397 2.440 . S
O423 C407 1.266 . S
O424 Tb396 2.325 . S
O424 Tb397 2.658 . S
O424 C414 1.281 . S
O425 Tb397 2.409 . S
O425 C414 1.254 . S
O426 Tb397 2.378 . S
O426 C415 1.236 . S
O427 Tb396 2.341 . S
O427 C415 1.266 . S
H428 C400 0.929 . S
H429 C401 0.931 . S
H430 C403 0.930 . S
H431 C404 0.930 . S
H432 C409 0.929 . S
H433 C410 0.931 . S
H434 C412 0.930 . S
H435 C413 0.930 . S
Tb436 C438 2.809 . S
Tb436 O456 2.484 . S
Tb436 O457 2.440 . S
Tb436 O458 2.658 . S
Tb436 O459 2.409 . S
Tb436 O460 2.378 . S
Tb436 O464 2.325 . S
Tb436 O467 2.341 . S
Tb437 C447 2.809 . S
Tb437 O458 2.325 . S
Tb437 O461 2.341 . S
Tb437 O462 2.484 . S
Tb437 O463 2.440 . S
Tb437 O464 2.658 . S
Tb437 O465 2.409 . S
Tb437 O466 2.378 . S
C438 Tb436 2.809 . S
C438 C439 1.514 . S
C438 O456 1.248 . S
C438 O457 1.266 . S
C439 C438 1.514 . S
C439 C440 1.359 . S
C439 C444 1.348 . S
C440 C439 1.359 . S
C440 C441 1.380 . S
C440 H468 0.929 . S
C441 C440 1.380 . S
C441 C442 1.347 . S
C441 H469 0.931 1_565 S
C442 C441 1.347 . S
C442 C443 1.369 . S
C443 C442 1.369 . S
C443 C444 1.408 . S
C443 H470 0.930 . S
C444 C439 1.348 . S
C444 C443 1.408 . S
C444 H471 0.930 . S
C445 O458 1.281 . S
C445 O459 1.254 . S
C446 O460 1.236 . S
C446 O461 1.266 . S
C447 Tb437 2.809 . S
C447 C448 1.514 . S
C447 O462 1.248 . S
C447 O463 1.266 . S
C448 C447 1.514 . S
C448 C449 1.359 . S
C448 C453 1.348 . S
C449 C448 1.359 . S
C449 C450 1.380 . S
C449 H472 0.929 . S
C450 C449 1.380 . S
C450 C451 1.347 . S
C450 H473 0.931 . S
C451 C450 1.347 . S
C451 C452 1.369 . S
C452 C451 1.369 . S
C452 C453 1.408 . S
C452 H474 0.930 . S
C453 C448 1.348 . S
C453 C452 1.408 . S
C453 H475 0.930 . S
C454 O464 1.281 . S
C454 O465 1.254 . S
C455 O466 1.236 . S
C455 O467 1.266 . S
O456 Tb436 2.484 . S
O456 C438 1.248 . S
O457 Tb436 2.440 . S
O457 C438 1.266 . S
O458 Tb436 2.658 . S
O458 Tb437 2.325 . S
O458 C445 1.281 . S
O459 Tb436 2.409 . S
O459 C445 1.254 . S
O460 Tb436 2.378 . S
O460 C446 1.236 . S
O461 Tb437 2.341 . S
O461 C446 1.266 . S
O462 Tb437 2.484 . S
O462 C447 1.248 . S
O463 Tb437 2.440 . S
O463 C447 1.266 . S
O464 Tb436 2.325 . S
O464 Tb437 2.658 . S
O464 C454 1.281 . S
O465 Tb437 2.409 . S
O465 C454 1.254 . S
O466 Tb437 2.378 . S
O466 C455 1.236 . S
O467 Tb436 2.341 . S
O467 C455 1.266 . S
H468 C440 0.929 . S
H469 C441 0.931 1_545 S
H470 C443 0.930 . S
H471 C444 0.930 . S
H472 C449 0.929 . S
H473 C450 0.931 . S
H474 C452 0.930 . S
H475 C453 0.930 . S
Tb476 C478 2.809 . S
Tb476 O496 2.484 . S
Tb476 O497 2.440 . S
Tb476 O498 2.658 . S
Tb476 O499 2.409 . S
Tb476 O500 2.378 . S
Tb476 O504 2.325 . S
Tb476 O507 2.341 . S
Tb477 C487 2.809 . S
Tb477 O498 2.325 . S
Tb477 O501 2.341 . S
Tb477 O502 2.484 . S
Tb477 O503 2.440 . S
Tb477 O504 2.658 . S
Tb477 O505 2.409 . S
Tb477 O506 2.378 . S
C478 Tb476 2.809 . S
C478 C479 1.514 . S
C478 O496 1.248 . S
C478 O497 1.266 . S
C479 C478 1.514 . S
C479 C480 1.359 . S
C479 C484 1.348 . S
C480 C479 1.359 . S
C480 C481 1.380 . S
C480 H508 0.929 . S
C481 C480 1.380 . S
C481 C482 1.347 . S
C481 H509 0.931 . S
C482 C481 1.347 . S
C482 C483 1.369 . S
C483 C482 1.369 . S
C483 C484 1.408 . S
C483 H510 0.930 . S
C484 C479 1.348 . S
C484 C483 1.408 . S
C484 H511 0.930 . S
C485 O498 1.281 . S
C485 O499 1.254 . S
C486 O500 1.236 . S
C486 O501 1.266 . S
C487 Tb477 2.809 . S
C487 C488 1.514 . S
C487 O502 1.248 . S
C487 O503 1.266 . S
C488 C487 1.514 . S
C488 C489 1.359 . S
C488 C493 1.348 . S
C489 C488 1.359 . S
C489 C490 1.380 . S
C489 H512 0.929 . S
C490 C489 1.380 . S
C490 C491 1.347 . S
C490 H513 0.931 . S
C491 C490 1.347 . S
C491 C492 1.369 . S
C492 C491 1.369 . S
C492 C493 1.408 . S
C492 H514 0.930 . S
C493 C488 1.348 . S
C493 C492 1.408 . S
C493 H515 0.930 . S
C494 O504 1.281 . S
C494 O505 1.254 . S
C495 O506 1.236 . S
C495 O507 1.266 . S
O496 Tb476 2.484 . S
O496 C478 1.248 . S
O497 Tb476 2.440 . S
O497 C478 1.266 . S
O498 Tb476 2.658 . S
O498 Tb477 2.325 . S
O498 C485 1.281 . S
O499 Tb476 2.409 . S
O499 C485 1.254 . S
O500 Tb476 2.378 . S
O500 C486 1.236 . S
O501 Tb477 2.341 . S
O501 C486 1.266 . S
O502 Tb477 2.484 . S
O502 C487 1.248 . S
O503 Tb477 2.440 . S
O503 C487 1.266 . S
O504 Tb476 2.325 . S
O504 Tb477 2.658 . S
O504 C494 1.281 . S
O505 Tb477 2.409 . S
O505 C494 1.254 . S
O506 Tb477 2.378 . S
O506 C495 1.236 . S
O507 Tb476 2.341 . S
O507 C495 1.266 . S
H508 C480 0.929 . S
H509 C481 0.931 . S
H510 C483 0.930 . S
H511 C484 0.930 . S
H512 C489 0.929 . S
H513 C490 0.931 . S
H514 C492 0.930 . S
H515 C493 0.930 . S
Tb516 C518 2.809 . S
Tb516 O536 2.484 . S
Tb516 O537 2.440 . S
Tb516 O538 2.658 . S
Tb516 O539 2.409 . S
Tb516 O540 2.378 . S
Tb516 O544 2.325 . S
Tb516 O547 2.341 . S
Tb517 C527 2.809 . S
Tb517 O538 2.325 . S
Tb517 O541 2.341 . S
Tb517 O542 2.484 . S
Tb517 O543 2.440 . S
Tb517 O544 2.658 . S
Tb517 O545 2.409 . S
Tb517 O546 2.378 . S
C518 Tb516 2.809 . S
C518 C519 1.514 . S
C518 O536 1.248 . S
C518 O537 1.266 . S
C519 C518 1.514 . S
C519 C520 1.359 . S
C519 C524 1.348 . S
C520 C519 1.359 . S
C520 C521 1.380 . S
C520 H548 0.929 . S
C521 C520 1.380 . S
C521 C522 1.347 . S
C521 H549 0.931 . S
C522 C521 1.347 . S
C522 C523 1.369 . S
C523 C522 1.369 . S
C523 C524 1.408 . S
C523 H550 0.930 . S
C524 C519 1.348 . S
C524 C523 1.408 . S
C524 H551 0.930 . S
C525 O538 1.281 . S
C525 O539 1.254 . S
C526 O540 1.236 . S
C526 O541 1.266 . S
C527 Tb517 2.809 . S
C527 C528 1.514 . S
C527 O542 1.248 . S
C527 O543 1.266 . S
C528 C527 1.514 . S
C528 C529 1.359 . S
C528 C533 1.348 . S
C529 C528 1.359 . S
C529 C530 1.380 . S
C529 H552 0.929 . S
C530 C529 1.380 . S
C530 C531 1.347 . S
C530 H553 0.931 . S
C531 C530 1.347 . S
C531 C532 1.369 . S
C532 C531 1.369 . S
C532 C533 1.408 . S
C532 H554 0.930 . S
C533 C528 1.348 . S
C533 C532 1.408 . S
C533 H555 0.930 . S
C534 O544 1.281 . S
C534 O545 1.254 . S
C535 O546 1.236 . S
C535 O547 1.266 . S
O536 Tb516 2.484 . S
O536 C518 1.248 . S
O537 Tb516 2.440 . S
O537 C518 1.266 . S
O538 Tb516 2.658 . S
O538 Tb517 2.325 . S
O538 C525 1.281 . S
O539 Tb516 2.409 . S
O539 C525 1.254 . S
O540 Tb516 2.378 . S
O540 C526 1.236 . S
O541 Tb517 2.341 . S
O541 C526 1.266 . S
O542 Tb517 2.484 . S
O542 C527 1.248 . S
O543 Tb517 2.440 . S
O543 C527 1.266 . S
O544 Tb516 2.325 . S
O544 Tb517 2.658 . S
O544 C534 1.281 . S
O545 Tb517 2.409 . S
O545 C534 1.254 . S
O546 Tb517 2.378 . S
O546 C535 1.236 . S
O547 Tb516 2.341 . S
O547 C535 1.266 . S
H548 C520 0.929 . S
H549 C521 0.931 . S
H550 C523 0.930 . S
H551 C524 0.930 . S
H552 C529 0.929 . S
H553 C530 0.931 . S
H554 C532 0.930 . S
H555 C533 0.930 . S
Tb556 C558 2.809 . S
Tb556 O576 2.484 . S
Tb556 O577 2.440 . S
Tb556 O578 2.658 . S
Tb556 O579 2.409 . S
Tb556 O580 2.378 . S
Tb556 O584 2.325 . S
Tb556 O587 2.341 . S
Tb557 C567 2.809 . S
Tb557 O578 2.325 . S
Tb557 O581 2.341 . S
Tb557 O582 2.484 . S
Tb557 O583 2.440 . S
Tb557 O584 2.658 . S
Tb557 O585 2.409 . S
Tb557 O586 2.378 . S
C558 Tb556 2.809 . S
C558 C559 1.514 . S
C558 O576 1.248 . S
C558 O577 1.266 . S
C559 C558 1.514 . S
C559 C560 1.359 . S
C559 C564 1.348 . S
C560 C559 1.359 . S
C560 C561 1.380 . S
C560 H588 0.929 . S
C561 C560 1.380 . S
C561 C562 1.347 . S
C561 H589 0.931 . S
C562 C561 1.347 . S
C562 C563 1.369 . S
C563 C562 1.369 . S
C563 C564 1.408 . S
C563 H590 0.930 . S
C564 C559 1.348 . S
C564 C563 1.408 . S
C564 H591 0.930 . S
C565 O578 1.281 . S
C565 O579 1.254 . S
C566 O580 1.236 . S
C566 O581 1.266 . S
C567 Tb557 2.809 . S
C567 C568 1.514 . S
C567 O582 1.248 . S
C567 O583 1.266 . S
C568 C567 1.514 . S
C568 C569 1.359 . S
C568 C573 1.348 . S
C569 C568 1.359 . S
C569 C570 1.380 . S
C569 H592 0.929 . S
C570 C569 1.380 . S
C570 C571 1.347 . S
C570 H593 0.931 . S
C571 C570 1.347 . S
C571 C572 1.369 . S
C572 C571 1.369 . S
C572 C573 1.408 . S
C572 H594 0.930 1_565 S
C573 C568 1.348 . S
C573 C572 1.408 . S
C573 H595 0.930 . S
C574 O584 1.281 . S
C574 O585 1.254 . S
C575 O586 1.236 . S
C575 O587 1.266 . S
O576 Tb556 2.484 . S
O576 C558 1.248 . S
O577 Tb556 2.440 . S
O577 C558 1.266 . S
O578 Tb556 2.658 . S
O578 Tb557 2.325 . S
O578 C565 1.281 . S
O579 Tb556 2.409 . S
O579 C565 1.254 . S
O580 Tb556 2.378 . S
O580 C566 1.236 . S
O581 Tb557 2.341 . S
O581 C566 1.266 . S
O582 Tb557 2.484 . S
O582 C567 1.248 . S
O583 Tb557 2.440 . S
O583 C567 1.266 . S
O584 Tb556 2.325 . S
O584 Tb557 2.658 . S
O584 C574 1.281 . S
O585 Tb557 2.409 . S
O585 C574 1.254 . S
O586 Tb557 2.378 . S
O586 C575 1.236 . S
O587 Tb556 2.341 . S
O587 C575 1.266 . S
H588 C560 0.929 . S
H589 C561 0.931 . S
H590 C563 0.930 . S
H591 C564 0.930 . S
H592 C569 0.929 . S
H593 C570 0.931 . S
H594 C572 0.930 1_545 S
H595 C573 0.930 . S
C596 C597 1.369 . S
C596 C598 1.419 . S
C596 H600 0.930 . S
C597 C596 1.369 . S
C597 C606 1.429 . S
C598 C596 1.419 . S
C598 C599 1.363 . S
C598 H601 0.929 . S
C599 C598 1.363 . S
C599 C605 1.428 . S
H600 C596 0.930 . S
H601 C598 0.929 . S
S602 N603 1.613 . S
S602 N604 1.610 . S
N603 S602 1.613 . S
N603 C606 1.350 . S
N604 S602 1.610 . S
N604 C605 1.351 . S
C605 C599 1.428 . S
C605 N604 1.351 . S
C605 C606 1.434 . S
C606 C597 1.429 . S
C606 N603 1.350 . S
C606 C605 1.434 . S
C607 C608 1.369 . S
C607 C609 1.419 . S
C607 H611 0.930 . S
C608 C607 1.369 . S
C608 C617 1.429 . S
C609 C607 1.419 . S
C609 C610 1.363 . S
C609 H612 0.929 . S
C610 C609 1.363 . S
C610 C616 1.428 . S
H611 C607 0.930 . S
H612 C609 0.929 . S
S613 N614 1.613 . S
S613 N615 1.610 . S
N614 S613 1.613 . S
N614 C617 1.350 . S
N615 S613 1.610 . S
N615 C616 1.351 . S
C616 C610 1.428 . S
C616 N615 1.351 . S
C616 C617 1.434 . S
C617 C608 1.429 . S
C617 N614 1.350 . S
C617 C616 1.434 . S
C618 C619 1.369 . S
C618 C620 1.419 1_545 S
C618 H622 0.930 1_545 S
C619 C618 1.369 . S
C619 C628 1.429 . S
C620 C618 1.419 1_565 S
C620 C621 1.363 . S
C620 H623 0.929 . S
C621 C620 1.363 . S
C621 C627 1.428 1_565 S
H622 C618 0.930 1_565 S
H623 C620 0.929 . S
S624 N625 1.613 . S
S624 N626 1.610 . S
N625 S624 1.613 . S
N625 C628 1.350 . S
N626 S624 1.610 . S
N626 C627 1.351 . S
C627 C621 1.428 1_545 S
C627 N626 1.351 . S
C627 C628 1.434 . S
C628 C619 1.429 . S
C628 N625 1.350 . S
C628 C627 1.434 . S
C629 C630 1.369 1_565 S
C629 C631 1.419 . S
C629 H633 0.930 . S
C630 C629 1.369 1_545 S
C630 C639 1.429 . S
C631 C629 1.419 . S
C631 C632 1.363 . S
C631 H634 0.929 . S
C632 C631 1.363 . S
C632 C638 1.428 . S
H633 C629 0.930 . S
H634 C631 0.929 . S
S635 N636 1.613 . S
S635 N637 1.610 1_545 S
N636 S635 1.613 . S
N636 C639 1.350 . S
N637 S635 1.610 1_565 S
N637 C638 1.351 . S
C638 C632 1.428 . S
C638 N637 1.351 . S
C638 C639 1.434 1_565 S
C639 C630 1.429 . S
C639 N636 1.350 . S
C639 C638 1.434 1_545 S
C640 C641 1.369 . S
C640 C642 1.419 . S
C640 H644 0.930 . S
C641 C640 1.369 . S
C641 C650 1.429 . S
C642 C640 1.419 . S
C642 C643 1.363 . S
C642 H645 0.929 . S
C643 C642 1.363 . S
C643 C649 1.428 . S
H644 C640 0.930 . S
H645 C642 0.929 . S
S646 N647 1.613 . S
S646 N648 1.610 . S
N647 S646 1.613 . S
N647 C650 1.350 . S
N648 S646 1.610 . S
N648 C649 1.351 . S
C649 C643 1.428 . S
C649 N648 1.351 . S
C649 C650 1.434 . S
C650 C641 1.429 . S
C650 N647 1.350 . S
C650 C649 1.434 . S
C651 C652 1.369 . S
C651 C653 1.419 . S
C651 H655 0.930 . S
C652 C651 1.369 . S
C652 C661 1.429 . S
C653 C651 1.419 . S
C653 C654 1.363 . S
C653 H656 0.929 . S
C654 C653 1.363 . S
C654 C660 1.428 . S
H655 C651 0.930 . S
H656 C653 0.929 . S
S657 N658 1.613 . S
S657 N659 1.610 . S
N658 S657 1.613 . S
N658 C661 1.350 . S
N659 S657 1.610 . S
N659 C660 1.351 . S
C660 C654 1.428 . S
C660 N659 1.351 . S
C660 C661 1.434 . S
C661 C652 1.429 . S
C661 N658 1.350 . S
C661 C660 1.434 . S
C662 C663 1.369 . S
C662 C664 1.419 . S
C662 H666 0.930 . S
C663 C662 1.369 . S
C663 C672 1.429 . S
C664 C662 1.419 . S
C664 C665 1.363 . S
C664 H667 0.929 . S
C665 C664 1.363 . S
C665 C671 1.428 . S
H666 C662 0.930 . S
H667 C664 0.929 . S
S668 N669 1.613 . S
S668 N670 1.610 . S
N669 S668 1.613 . S
N669 C672 1.350 . S
N670 S668 1.610 . S
N670 C671 1.351 . S
C671 C665 1.428 . S
C671 N670 1.351 . S
C671 C672 1.434 . S
C672 C663 1.429 . S
C672 N669 1.350 . S
C672 C671 1.434 . S
C673 C674 1.369 . S
C673 C675 1.419 . S
C673 H677 0.930 . S
C674 C673 1.369 . S
C674 C683 1.429 . S
C675 C673 1.419 . S
C675 C676 1.363 . S
C675 H678 0.929 . S
C676 C675 1.363 . S
C676 C682 1.428 1_545 S
H677 C673 0.930 . S
H678 C675 0.929 . S
S679 N680 1.613 . S
S679 N681 1.610 . S
N680 S679 1.613 . S
N680 C683 1.350 1_565 S
N681 S679 1.610 . S
N681 C682 1.351 . S
C682 C676 1.428 1_565 S
C682 N681 1.351 . S
C682 C683 1.434 1_565 S
C683 C674 1.429 . S
C683 N680 1.350 1_545 S
C683 C682 1.434 1_545 S
C684 C685 1.369 . S
C684 C686 1.419 . S
C684 H688 0.930 . S
C685 C684 1.369 . S
C685 C694 1.429 . S
C686 C684 1.419 . S
C686 C687 1.363 . S
C686 H689 0.929 . S
C687 C686 1.363 . S
C687 C693 1.428 . S
H688 C684 0.930 . S
H689 C686 0.929 . S
S690 N691 1.613 . S
S690 N692 1.610 . S
N691 S690 1.613 . S
N691 C694 1.350 . S
N692 S690 1.610 . S
N692 C693 1.351 . S
C693 C687 1.428 . S
C693 N692 1.351 . S
C693 C694 1.434 . S
C694 C685 1.429 . S
C694 N691 1.350 . S
C694 C693 1.434 . S
C695 C696 1.369 . S
C695 C697 1.419 . S
C695 H699 0.930 . S
C696 C695 1.369 . S
C696 C705 1.429 . S
C697 C695 1.419 . S
C697 C698 1.363 . S
C697 H700 0.929 . S
C698 C697 1.363 . S
C698 C704 1.428 . S
H699 C695 0.930 . S
H700 C697 0.929 . S
S701 N702 1.613 . S
S701 N703 1.610 . S
N702 S701 1.613 . S
N702 C705 1.350 . S
N703 S701 1.610 . S
N703 C704 1.351 . S
C704 C698 1.428 . S
C704 N703 1.351 . S
C704 C705 1.434 . S
C705 C696 1.429 . S
C705 N702 1.350 . S
C705 C704 1.434 . S
C706 C707 1.369 . S
C706 C708 1.419 . S
C706 H710 0.930 . S
C707 C706 1.369 . S
C707 C716 1.429 . S
C708 C706 1.419 . S
C708 C709 1.363 . S
C708 H711 0.929 . S
C709 C708 1.363 . S
C709 C715 1.428 . S
H710 C706 0.930 . S
H711 C708 0.929 . S
S712 N713 1.613 . S
S712 N714 1.610 . S
N713 S712 1.613 . S
N713 C716 1.350 . S
N714 S712 1.610 . S
N714 C715 1.351 . S
C715 C709 1.428 . S
C715 N714 1.351 . S
C715 C716 1.434 . S
C716 C707 1.429 . S
C716 N713 1.350 . S
C716 C715 1.434 . S
C717 C718 1.369 . S
C717 C719 1.419 . S
C717 H721 0.930 . S
C718 C717 1.369 . S
C718 C727 1.429 . S
C719 C717 1.419 . S
C719 C720 1.363 . S
C719 H722 0.929 . S
C720 C719 1.363 . S
C720 C726 1.428 . S
H721 C717 0.930 . S
H722 C719 0.929 . S
S723 N724 1.613 . S
S723 N725 1.610 . S
N724 S723 1.613 . S
N724 C727 1.350 . S
N725 S723 1.610 . S
N725 C726 1.351 . S
C726 C720 1.428 . S
C726 N725 1.351 . S
C726 C727 1.434 . S
C727 C718 1.429 . S
C727 N724 1.350 . S
C727 C726 1.434 . S
C728 C729 1.369 . S
C728 C730 1.419 . S
C728 H732 0.930 . S
C729 C728 1.369 . S
C729 C738 1.429 . S
C730 C728 1.419 . S
C730 C731 1.363 . S
C730 H733 0.929 . S
C731 C730 1.363 . S
C731 C737 1.428 . S
H732 C728 0.930 . S
H733 C730 0.929 . S
S734 N735 1.613 . S
S734 N736 1.610 . S
N735 S734 1.613 . S
N735 C738 1.350 1_554 S
N736 S734 1.610 . S
N736 C737 1.351 1_554 S
C737 C731 1.428 . S
C737 N736 1.351 1_556 S
C737 C738 1.434 . S
C738 C729 1.429 . S
C738 N735 1.350 1_556 S
C738 C737 1.434 . S
C739 C740 1.369 . S
C739 C741 1.419 . S
C739 H743 0.930 . S
C740 C739 1.369 . S
C740 C749 1.429 . S
C741 C739 1.419 . S
C741 C742 1.363 . S
C741 H744 0.929 . S
C742 C741 1.363 . S
C742 C748 1.428 . S
H743 C739 0.930 . S
H744 C741 0.929 . S
S745 N746 1.613 . S
S745 N747 1.610 . S
N746 S745 1.613 . S
N746 C749 1.350 . S
N747 S745 1.610 . S
N747 C748 1.351 . S
C748 C742 1.428 . S
C748 N747 1.351 . S
C748 C749 1.434 . S
C749 C740 1.429 . S
C749 N746 1.350 . S
C749 C748 1.434 . S
C750 C751 1.369 . S
C750 C752 1.419 . S
C750 H754 0.930 . S
C751 C750 1.369 . S
C751 C760 1.429 . S
C752 C750 1.419 . S
C752 C753 1.363 . S
C752 H755 0.929 . S
C753 C752 1.363 . S
C753 C759 1.428 . S
H754 C750 0.930 . S
H755 C752 0.929 . S
S756 N757 1.613 1_554 S
S756 N758 1.610 1_554 S
N757 S756 1.613 1_556 S
N757 C760 1.350 . S
N758 S756 1.610 1_556 S
N758 C759 1.351 . S
C759 C753 1.428 . S
C759 N758 1.351 . S
C759 C760 1.434 . S
C760 C751 1.429 . S
C760 N757 1.350 . S
C760 C759 1.434 . S
C761 C762 1.369 . S
C761 C763 1.419 . S
C761 H765 0.930 . S
C762 C761 1.369 . S
C762 C771 1.429 . S
C763 C761 1.419 . S
C763 C764 1.363 . S
C763 H766 0.929 . S
C764 C763 1.363 . S
C764 C770 1.428 . S
H765 C761 0.930 . S
H766 C763 0.929 . S
S767 N768 1.613 . S
S767 N769 1.610 . S
N768 S767 1.613 . S
N768 C771 1.350 . S
N769 S767 1.610 . S
N769 C770 1.351 . S
C770 C764 1.428 . S
C770 N769 1.351 . S
C770 C771 1.434 . S
C771 C762 1.429 . S
C771 N768 1.350 . S
C771 C770 1.434 . S
C772 C773 1.369 . S
C772 C774 1.419 . S
C772 H776 0.930 . S
C773 C772 1.369 . S
C773 C782 1.429 . S
C774 C772 1.419 . S
C774 C775 1.363 . S
C774 H777 0.929 . S
C775 C774 1.363 . S
C775 C781 1.428 . S
H776 C772 0.930 . S
H777 C774 0.929 . S
S778 N779 1.613 . S
S778 N780 1.610 . S
N779 S778 1.613 . S
N779 C782 1.350 . S
N780 S778 1.610 . S
N780 C781 1.351 . S
C781 C775 1.428 . S
C781 N780 1.351 . S
C781 C782 1.434 . S
C782 C773 1.429 . S
C782 N779 1.350 . S
C782 C781 1.434 . S
C783 C784 1.369 . S
C783 C785 1.419 . S
C783 H787 0.930 . S
C784 C783 1.369 . S
C784 C793 1.429 . S
C785 C783 1.419 . S
C785 C786 1.363 . S
C785 H788 0.929 . S
C786 C785 1.363 . S
C786 C792 1.428 . S
H787 C783 0.930 . S
H788 C785 0.929 . S
S789 N790 1.613 . S
S789 N791 1.610 . S
N790 S789 1.613 . S
N790 C793 1.350 . S
N791 S789 1.610 . S
N791 C792 1.351 . S
C792 C786 1.428 . S
C792 N791 1.351 . S
C792 C793 1.434 . S
C793 C784 1.429 . S
C793 N790 1.350 . S
C793 C792 1.434 . S
C794 C795 1.369 . S
C794 C796 1.419 . S
C794 H798 0.930 . S
C795 C794 1.369 . S
C795 C804 1.429 . S
C796 C794 1.419 . S
C796 C797 1.363 . S
C796 H799 0.929 . S
C797 C796 1.363 . S
C797 C803 1.428 . S
H798 C794 0.930 . S
H799 C796 0.929 . S
S800 N801 1.613 . S
S800 N802 1.610 . S
N801 S800 1.613 . S
N801 C804 1.350 . S
N802 S800 1.610 . S
N802 C803 1.351 . S
C803 C797 1.428 . S
C803 N802 1.351 . S
C803 C804 1.434 . S
C804 C795 1.429 . S
C804 N801 1.350 . S
C804 C803 1.434 . S
C805 C806 1.369 . S
C805 C807 1.419 . S
C805 H809 0.930 . S
C806 C805 1.369 . S
C806 C815 1.429 . S
C807 C805 1.419 . S
C807 C808 1.363 . S
C807 H810 0.929 . S
C808 C807 1.363 . S
C808 C814 1.428 . S
H809 C805 0.930 . S
H810 C807 0.929 . S
S811 N812 1.613 . S
S811 N813 1.610 . S
N812 S811 1.613 . S
N812 C815 1.350 . S
N813 S811 1.610 . S
N813 C814 1.351 . S
C814 C808 1.428 . S
C814 N813 1.351 . S
C814 C815 1.434 . S
C815 C806 1.429 . S
C815 N812 1.350 . S
C815 C814 1.434 . S
C816 C817 1.369 . S
C816 C818 1.419 . S
C816 H820 0.930 . S
C817 C816 1.369 . S
C817 C826 1.429 . S
C818 C816 1.419 . S
C818 C819 1.363 . S
C818 H821 0.929 . S
C819 C818 1.363 . S
C819 C825 1.428 . S
H820 C816 0.930 . S
H821 C818 0.929 . S
S822 N823 1.613 1_545 S
S822 N824 1.610 1_545 S
N823 S822 1.613 1_565 S
N823 C826 1.350 . S
N824 S822 1.610 1_565 S
N824 C825 1.351 . S
C825 C819 1.428 . S
C825 N824 1.351 . S
C825 C826 1.434 . S
C826 C817 1.429 . S
C826 N823 1.350 . S
C826 C825 1.434 . S
C827 C828 1.369 . S
C827 C829 1.419 . S
C827 H831 0.930 . S
C828 C827 1.369 . S
C828 C837 1.429 . S
C829 C827 1.419 . S
C829 C830 1.363 . S
C829 H832 0.929 . S
C830 C829 1.363 . S
C830 C836 1.428 . S
H831 C827 0.930 . S
H832 C829 0.929 . S
S833 N834 1.613 . S
S833 N835 1.610 . S
N834 S833 1.613 . S
N834 C837 1.350 . S
N835 S833 1.610 . S
N835 C836 1.351 . S
C836 C830 1.428 . S
C836 N835 1.351 . S
C836 C837 1.434 . S
C837 C828 1.429 . S
C837 N834 1.350 . S
C837 C836 1.434 . S
C838 C839 1.369 . S
C838 C840 1.419 . S
C838 H842 0.930 . S
C839 C838 1.369 . S
C839 C848 1.429 . S
C840 C838 1.419 . S
C840 C841 1.363 . S
C840 H843 0.929 . S
C841 C840 1.363 . S
C841 C847 1.428 . S
H842 C838 0.930 . S
H843 C840 0.929 . S
S844 N845 1.613 . S
S844 N846 1.610 . S
N845 S844 1.613 . S
N845 C848 1.350 . S
N846 S844 1.610 . S
N846 C847 1.351 . S
C847 C841 1.428 . S
C847 N846 1.351 . S
C847 C848 1.434 . S
C848 C839 1.429 . S
C848 N845 1.350 . S
C848 C847 1.434 . S
C849 C850 1.369 . S
C849 C851 1.419 . S
C849 H853 0.930 . S
C850 C849 1.369 . S
C850 C859 1.429 . S
C851 C849 1.419 . S
C851 C852 1.363 . S
C851 H854 0.929 . S
C852 C851 1.363 . S
C852 C858 1.428 . S
H853 C849 0.930 . S
H854 C851 0.929 . S
S855 N856 1.613 . S
S855 N857 1.610 . S
N856 S855 1.613 . S
N856 C859 1.350 . S
N857 S855 1.610 . S
N857 C858 1.351 . S
C858 C852 1.428 . S
C858 N857 1.351 . S
C858 C859 1.434 . S
C859 C850 1.429 . S
C859 N856 1.350 . S
C859 C858 1.434 . S
C860 C861 1.369 . S
C860 C862 1.419 . S
C860 H864 0.930 . S
C861 C860 1.369 . S
C861 C870 1.429 . S
C862 C860 1.419 . S
C862 C863 1.363 . S
C862 H865 0.929 . S
C863 C862 1.363 . S
C863 C869 1.428 . S
H864 C860 0.930 . S
H865 C862 0.929 . S
S866 N867 1.613 . S
S866 N868 1.610 . S
N867 S866 1.613 . S
N867 C870 1.350 . S
N868 S866 1.610 . S
N868 C869 1.351 . S
C869 C863 1.428 . S
C869 N868 1.351 . S
C869 C870 1.434 . S
C870 C861 1.429 . S
C870 N867 1.350 . S
C870 C869 1.434 . S
C871 C872 1.369 . S
C871 C873 1.419 . S
C871 H875 0.930 . S
C872 C871 1.369 . S
C872 C881 1.429 . S
C873 C871 1.419 . S
C873 C874 1.363 . S
C873 H876 0.929 . S
C874 C873 1.363 . S
C874 C880 1.428 . S
H875 C871 0.930 . S
H876 C873 0.929 . S
S877 N878 1.613 . S
S877 N879 1.610 . S
N878 S877 1.613 . S
N878 C881 1.350 . S
N879 S877 1.610 . S
N879 C880 1.351 . S
C880 C874 1.428 . S
C880 N879 1.351 . S
C880 C881 1.434 . S
C881 C872 1.429 . S
C881 N878 1.350 . S
C881 C880 1.434 . S
C882 C883 1.369 . S
C882 C884 1.419 . S
C882 H886 0.930 . S
C883 C882 1.369 . S
C883 C892 1.429 . S
C884 C882 1.419 . S
C884 C885 1.363 . S
C884 H887 0.929 . S
C885 C884 1.363 . S
C885 C891 1.428 . S
H886 C882 0.930 . S
H887 C884 0.929 . S
S888 N889 1.613 . S
S888 N890 1.610 . S
N889 S888 1.613 . S
N889 C892 1.350 . S
N890 S888 1.610 . S
N890 C891 1.351 . S
C891 C885 1.428 . S
C891 N890 1.351 . S
C891 C892 1.434 . S
C892 C883 1.429 . S
C892 N889 1.350 . S
C892 C891 1.434 . S
C893 C894 1.369 . S
C893 C895 1.419 . S
C893 H897 0.930 . S
C894 C893 1.369 . S
C894 C903 1.429 . S
C895 C893 1.419 . S
C895 C896 1.363 . S
C895 H898 0.929 . S
C896 C895 1.363 . S
C896 C902 1.428 . S
H897 C893 0.930 . S
H898 C895 0.929 . S
S899 N900 1.613 . S
S899 N901 1.610 . S
N900 S899 1.613 . S
N900 C903 1.350 . S
N901 S899 1.610 . S
N901 C902 1.351 . S
C902 C896 1.428 . S
C902 N901 1.351 . S
C902 C903 1.434 . S
C903 C894 1.429 . S
C903 N900 1.350 . S
C903 C902 1.434 . S
C904 C905 1.369 . S
C904 C906 1.419 . S
C904 H908 0.930 . S
C905 C904 1.369 . S
C905 C914 1.429 . S
C906 C904 1.419 . S
C906 C907 1.363 . S
C906 H909 0.929 . S
C907 C906 1.363 . S
C907 C913 1.428 . S
H908 C904 0.930 . S
H909 C906 0.929 . S
S910 N911 1.613 . S
S910 N912 1.610 . S
N911 S910 1.613 . S
N911 C914 1.350 . S
N912 S910 1.610 . S
N912 C913 1.351 . S
C913 C907 1.428 . S
C913 N912 1.351 . S
C913 C914 1.434 . S
C914 C905 1.429 . S
C914 N911 1.350 . S
C914 C913 1.434 . S
C915 C916 1.369 . S
C915 C917 1.419 . S
C915 H919 0.930 . S
C916 C915 1.369 . S
C916 C925 1.429 . S
C917 C915 1.419 . S
C917 C918 1.363 . S
C917 H920 0.929 . S
C918 C917 1.363 . S
C918 C924 1.428 . S
H919 C915 0.930 . S
H920 C917 0.929 . S
S921 N922 1.613 . S
S921 N923 1.610 . S
N922 S921 1.613 . S
N922 C925 1.350 . S
N923 S921 1.610 . S
N923 C924 1.351 . S
C924 C918 1.428 . S
C924 N923 1.351 . S
C924 C925 1.434 . S
C925 C916 1.429 . S
C925 N922 1.350 . S
C925 C924 1.434 . S
C926 C927 1.369 . S
C926 C928 1.419 . S
C926 H930 0.930 . S
C927 C926 1.369 . S
C927 C936 1.429 . S
C928 C926 1.419 . S
C928 C929 1.363 . S
C928 H931 0.929 . S
C929 C928 1.363 . S
C929 C935 1.428 . S
H930 C926 0.930 . S
H931 C928 0.929 . S
S932 N933 1.613 . S
S932 N934 1.610 . S
N933 S932 1.613 . S
N933 C936 1.350 . S
N934 S932 1.610 . S
N934 C935 1.351 . S
C935 C929 1.428 . S
C935 N934 1.351 . S
C935 C936 1.434 . S
C936 C927 1.429 . S
C936 N933 1.350 . S
C936 C935 1.434 . S
C937 C938 1.369 . S
C937 C939 1.419 . S
C937 H941 0.930 . S
C938 C937 1.369 . S
C938 C947 1.429 . S
C939 C937 1.419 . S
C939 C940 1.363 . S
C939 H942 0.929 . S
C940 C939 1.363 . S
C940 C946 1.428 . S
H941 C937 0.930 . S
H942 C939 0.929 . S
S943 N944 1.613 . S
S943 N945 1.610 . S
N944 S943 1.613 . S
N944 C947 1.350 . S
N945 S943 1.610 . S
N945 C946 1.351 . S
C946 C940 1.428 . S
C946 N945 1.351 . S
C946 C947 1.434 . S
C947 C938 1.429 . S
C947 N944 1.350 . S
C947 C946 1.434 . S
C948 C949 1.369 . S
C948 C950 1.419 . S
C948 H952 0.930 . S
C949 C948 1.369 . S
C949 C958 1.429 . S
C950 C948 1.419 . S
C950 C951 1.363 . S
C950 H953 0.929 . S
C951 C950 1.363 . S
C951 C957 1.428 . S
H952 C948 0.930 . S
H953 C950 0.929 . S
S954 N955 1.613 . S
S954 N956 1.610 . S
N955 S954 1.613 . S
N955 C958 1.350 . S
N956 S954 1.610 . S
N956 C957 1.351 . S
C957 C951 1.428 . S
C957 N956 1.351 . S
C957 C958 1.434 . S
C958 C949 1.429 . S
C958 N955 1.350 . S
C958 C957 1.434 . S
C959 C960 1.369 . S
C959 C961 1.419 . S
C959 H963 0.930 . S
C960 C959 1.369 . S
C960 C969 1.429 . S
C961 C959 1.419 . S
C961 C962 1.363 . S
C961 H964 0.929 . S
C962 C961 1.363 . S
C962 C968 1.428 . S
H963 C959 0.930 . S
H964 C961 0.929 . S
S965 N966 1.613 . S
S965 N967 1.610 . S
N966 S965 1.613 . S
N966 C969 1.350 . S
N967 S965 1.610 . S
N967 C968 1.351 . S
C968 C962 1.428 . S
C968 N967 1.351 . S
C968 C969 1.434 . S
C969 C960 1.429 . S
C969 N966 1.350 . S
C969 C968 1.434 . S
C970 C971 1.369 . S
C970 C972 1.419 . S
C970 H974 0.930 . S
C971 C970 1.369 . S
C971 C980 1.429 . S
C972 C970 1.419 . S
C972 C973 1.363 . S
C972 H975 0.929 . S
C973 C972 1.363 . S
C973 C979 1.428 . S
H974 C970 0.930 . S
H975 C972 0.929 . S
S976 N977 1.613 . S
S976 N978 1.610 . S
N977 S976 1.613 . S
N977 C980 1.350 . S
N978 S976 1.610 . S
N978 C979 1.351 . S
C979 C973 1.428 . S
C979 N978 1.351 . S
C979 C980 1.434 . S
C980 C971 1.429 . S
C980 N977 1.350 . S
C980 C979 1.434 . S
C981 C982 1.369 . S
C981 C983 1.419 . S
C981 H985 0.930 . S
C982 C981 1.369 . S
C982 C991 1.429 . S
C983 C981 1.419 . S
C983 C984 1.363 . S
C983 H986 0.929 . S
C984 C983 1.363 . S
C984 C990 1.428 . S
H985 C981 0.930 . S
H986 C983 0.929 . S
S987 N988 1.613 . S
S987 N989 1.610 . S
N988 S987 1.613 . S
N988 C991 1.350 . S
N989 S987 1.610 . S
N989 C990 1.351 . S
C990 C984 1.428 . S
C990 N989 1.351 . S
C990 C991 1.434 . S
C991 C982 1.429 . S
C991 N988 1.350 . S
C991 C990 1.434 . S
C992 C993 1.369 . S
C992 C994 1.419 . S
C992 H996 0.930 . S
C993 C992 1.369 . S
C993 C1002 1.429 . S
C994 C992 1.419 . S
C994 C995 1.363 . S
C994 H997 0.929 . S
C995 C994 1.363 . S
C995 C1001 1.428 . S
H996 C992 0.930 . S
H997 C994 0.929 . S
S998 N999 1.613 . S
S998 N1000 1.610 . S
N999 S998 1.613 . S
N999 C1002 1.350 . S
N1000 S998 1.610 . S
N1000 C1001 1.351 . S
C1001 C995 1.428 . S
C1001 N1000 1.351 . S
C1001 C1002 1.434 . S
C1002 C993 1.429 . S
C1002 N999 1.350 . S
C1002 C1001 1.434 . S
C1003 C1004 1.369 . S
C1003 C1005 1.419 . S
C1003 H1007 0.930 . S
C1004 C1003 1.369 . S
C1004 C1013 1.429 . S
C1005 C1003 1.419 . S
C1005 C1006 1.363 . S
C1005 H1008 0.929 . S
C1006 C1005 1.363 . S
C1006 C1012 1.428 . S
H1007 C1003 0.930 . S
H1008 C1005 0.929 . S
S1009 N1010 1.613 . S
S1009 N1011 1.610 . S
N1010 S1009 1.613 . S
N1010 C1013 1.350 . S
N1011 S1009 1.610 . S
N1011 C1012 1.351 . S
C1012 C1006 1.428 . S
C1012 N1011 1.351 . S
C1012 C1013 1.434 . S
C1013 C1004 1.429 . S
C1013 N1010 1.350 . S
C1013 C1012 1.434 . S
C1014 C1015 1.369 . S
C1014 C1016 1.419 . S
C1014 H1018 0.930 . S
C1015 C1014 1.369 . S
C1015 C1024 1.429 . S
C1016 C1014 1.419 . S
C1016 C1017 1.363 . S
C1016 H1019 0.929 . S
C1017 C1016 1.363 . S
C1017 C1023 1.428 . S
H1018 C1014 0.930 . S
H1019 C1016 0.929 . S
S1020 N1021 1.613 . S
S1020 N1022 1.610 . S
N1021 S1020 1.613 . S
N1021 C1024 1.350 . S
N1022 S1020 1.610 . S
N1022 C1023 1.351 . S
C1023 C1017 1.428 . S
C1023 N1022 1.351 . S
C1023 C1024 1.434 . S
C1024 C1015 1.429 . S
C1024 N1021 1.350 . S
C1024 C1023 1.434 . S
C1025 C1026 1.369 . S
C1025 C1027 1.419 . S
C1025 H1029 0.930 . S
C1026 C1025 1.369 . S
C1026 C1035 1.429 . S
C1027 C1025 1.419 . S
C1027 C1028 1.363 . S
C1027 H1030 0.929 . S
C1028 C1027 1.363 . S
C1028 C1034 1.428 . S
H1029 C1025 0.930 . S
H1030 C1027 0.929 . S
S1031 N1032 1.613 . S
S1031 N1033 1.610 . S
N1032 S1031 1.613 . S
N1032 C1035 1.350 . S
N1033 S1031 1.610 . S
N1033 C1034 1.351 . S
C1034 C1028 1.428 . S
C1034 N1033 1.351 . S
C1034 C1035 1.434 . S
C1035 C1026 1.429 . S
C1035 N1032 1.350 . S
C1035 C1034 1.434 . S
C1036 C1037 1.369 . S
C1036 C1038 1.419 . S
C1036 H1040 0.930 . S
C1037 C1036 1.369 . S
C1037 C1046 1.429 . S
C1038 C1036 1.419 . S
C1038 C1039 1.363 . S
C1038 H1041 0.929 . S
C1039 C1038 1.363 . S
C1039 C1045 1.428 . S
H1040 C1036 0.930 . S
H1041 C1038 0.929 . S
S1042 N1043 1.613 . S
S1042 N1044 1.610 . S
N1043 S1042 1.613 . S
N1043 C1046 1.350 . S
N1044 S1042 1.610 . S
N1044 C1045 1.351 . S
C1045 C1039 1.428 . S
C1045 N1044 1.351 . S
C1045 C1046 1.434 . S
C1046 C1037 1.429 . S
C1046 N1043 1.350 . S
C1046 C1045 1.434 . S
C1047 C1048 1.369 . S
C1047 C1049 1.419 . S
C1047 H1051 0.930 . S
C1048 C1047 1.369 . S
C1048 C1057 1.429 . S
C1049 C1047 1.419 . S
C1049 C1050 1.363 . S
C1049 H1052 0.929 . S
C1050 C1049 1.363 . S
C1050 C1056 1.428 . S
H1051 C1047 0.930 . S
H1052 C1049 0.929 . S
S1053 N1054 1.613 . S
S1053 N1055 1.610 . S
N1054 S1053 1.613 . S
N1054 C1057 1.350 . S
N1055 S1053 1.610 . S
N1055 C1056 1.351 . S
C1056 C1050 1.428 . S
C1056 N1055 1.351 . S
C1056 C1057 1.434 . S
C1057 C1048 1.429 . S
C1057 N1054 1.350 . S
C1057 C1056 1.434 . S
C1058 C1059 1.369 . S
C1058 C1060 1.419 . S
C1058 H1062 0.930 . S
C1059 C1058 1.369 . S
C1059 C1068 1.429 . S
C1060 C1058 1.419 . S
C1060 C1061 1.363 . S
C1060 H1063 0.929 . S
C1061 C1060 1.363 . S
C1061 C1067 1.428 . S
H1062 C1058 0.930 . S
H1063 C1060 0.929 . S
S1064 N1065 1.613 . S
S1064 N1066 1.610 . S
N1065 S1064 1.613 . S
N1065 C1068 1.350 . S
N1066 S1064 1.610 . S
N1066 C1067 1.351 . S
C1067 C1061 1.428 . S
C1067 N1066 1.351 . S
C1067 C1068 1.434 . S
C1068 C1059 1.429 . S
C1068 N1065 1.350 . S
C1068 C1067 1.434 . S
C1069 C1070 1.369 . S
C1069 C1071 1.419 . S
C1069 H1073 0.930 . S
C1070 C1069 1.369 . S
C1070 C1079 1.429 . S
C1071 C1069 1.419 . S
C1071 C1072 1.363 . S
C1071 H1074 0.929 . S
C1072 C1071 1.363 . S
C1072 C1078 1.428 . S
H1073 C1069 0.930 . S
H1074 C1071 0.929 . S
S1075 N1076 1.613 . S
S1075 N1077 1.610 . S
N1076 S1075 1.613 . S
N1076 C1079 1.350 . S
N1077 S1075 1.610 . S
N1077 C1078 1.351 . S
C1078 C1072 1.428 . S
C1078 N1077 1.351 . S
C1078 C1079 1.434 . S
C1079 C1070 1.429 . S
C1079 N1076 1.350 . S
C1079 C1078 1.434 . S
C1080 C1081 1.369 . S
C1080 C1082 1.419 . S
C1080 H1084 0.930 . S
C1081 C1080 1.369 . S
C1081 C1090 1.429 . S
C1082 C1080 1.419 . S
C1082 C1083 1.363 . S
C1082 H1085 0.929 . S
C1083 C1082 1.363 . S
C1083 C1089 1.428 . S
H1084 C1080 0.930 . S
H1085 C1082 0.929 . S
S1086 N1087 1.613 . S
S1086 N1088 1.610 . S
N1087 S1086 1.613 . S
N1087 C1090 1.350 . S
N1088 S1086 1.610 . S
N1088 C1089 1.351 . S
C1089 C1083 1.428 . S
C1089 N1088 1.351 . S
C1089 C1090 1.434 . S
C1090 C1081 1.429 . S
C1090 N1087 1.350 . S
C1090 C1089 1.434 . S
C1091 C1092 1.369 . S
C1091 C1093 1.419 . S
C1091 H1095 0.930 . S
C1092 C1091 1.369 . S
C1092 C1101 1.429 . S
C1093 C1091 1.419 . S
C1093 C1094 1.363 . S
C1093 H1096 0.929 . S
C1094 C1093 1.363 . S
C1094 C1100 1.428 . S
H1095 C1091 0.930 . S
H1096 C1093 0.929 . S
S1097 N1098 1.613 . S
S1097 N1099 1.610 . S
N1098 S1097 1.613 . S
N1098 C1101 1.350 . S
N1099 S1097 1.610 . S
N1099 C1100 1.351 . S
C1100 C1094 1.428 . S
C1100 N1099 1.351 . S
C1100 C1101 1.434 . S
C1101 C1092 1.429 . S
C1101 N1098 1.350 . S
C1101 C1100 1.434 . S
C1102 C1103 1.369 . S
C1102 C1104 1.419 . S
C1102 H1106 0.930 . S
C1103 C1102 1.369 . S
C1103 C1112 1.429 . S
C1104 C1102 1.419 . S
C1104 C1105 1.363 . S
C1104 H1107 0.929 . S
C1105 C1104 1.363 . S
C1105 C1111 1.428 . S
H1106 C1102 0.930 . S
H1107 C1104 0.929 . S
S1108 N1109 1.613 . S
S1108 N1110 1.610 . S
N1109 S1108 1.613 . S
N1109 C1112 1.350 . S
N1110 S1108 1.610 . S
N1110 C1111 1.351 . S
C1111 C1105 1.428 . S
C1111 N1110 1.351 . S
C1111 C1112 1.434 . S
C1112 C1103 1.429 . S
C1112 N1109 1.350 . S
C1112 C1111 1.434 . S
C1113 C1114 1.369 . S
C1113 C1115 1.419 . S
C1113 H1117 0.930 . S
C1114 C1113 1.369 . S
C1114 C1123 1.429 . S
C1115 C1113 1.419 . S
C1115 C1116 1.363 . S
C1115 H1118 0.929 . S
C1116 C1115 1.363 . S
C1116 C1122 1.428 . S
H1117 C1113 0.930 . S
H1118 C1115 0.929 . S
S1119 N1120 1.613 . S
S1119 N1121 1.610 . S
N1120 S1119 1.613 . S
N1120 C1123 1.350 . S
N1121 S1119 1.610 . S
N1121 C1122 1.351 . S
C1122 C1116 1.428 . S
C1122 N1121 1.351 . S
C1122 C1123 1.434 . S
C1123 C1114 1.429 . S
C1123 N1120 1.350 . S
C1123 C1122 1.434 . S
C599 C282 1.650 . S
C597 N2 1.592 . S
C610 C325 2.239 . S
C608 C7 2.156 . S
C621 C362 1.702 . S
C619 N12 1.480 . S
C630 C16 2.060 . S
C632 C405 2.216 . S
C643 C454 2.484 . S
C641 C30 2.369 1_565 S
C654 C491 1.451 . S
C652 N35 1.380 . S
C663 C39 2.407 . S
C665 C534 2.478 . S
C676 C571 1.408 1_545 S
C674 N25 1.225 . S
C687 C286 1.522 . S
C685 N58 1.442 . S
C696 N81 1.994 . S
C698 C335 1.967 . S
C709 C366 1.509 . S
C707 N104 1.438 . S
C718 N127 2.052 . S
C720 C415 2.019 . S
C731 C442 1.266 1_545 S
C729 N48 1.419 . S
C742 C485 1.402 . S
C740 N71 1.456 . S
C751 N94 1.422 . S
C753 C522 1.261 . S
C764 C565 1.417 . S
C762 N117 1.473 . S
C773 C85 2.304 . S
C775 C294 2.039 . S
C784 C122 2.469 . S
C786 C446 2.428 . S
C795 C53 2.357 . S
C797 C495 2.366 . S
C808 C526 2.483 . S
C806 C76 2.523 1_655 S
C819 C575 2.355 . S
C817 C99 2.343 . S
C830 C374 2.013 . S
C828 C131 2.271 . S
C841 C411 1.536 . S
C839 C62 1.626 . S
C850 C108 1.614 . S
C852 C331 1.536 . S
C863 C562 1.798 . S
C861 N140 1.764 . S
C872 C145 2.141 . S
C874 C445 2.220 . S
C885 C482 1.592 . S
C883 N150 1.368 . S
C894 C154 2.065 . S
C896 C525 2.220 . S
C907 C334 2.449 . S
C905 C168 2.330 . S
C916 N173 1.228 . S
C918 C371 1.300 . S
C929 C414 2.465 . S
C927 C177 2.395 . S
C940 C291 1.528 . S
C938 N163 1.322 . S
C951 C566 1.976 . S
C949 C200 1.918 . S
C962 C455 2.250 . S
C960 N219 2.271 . S
C971 N242 1.708 . S
C973 C486 1.795 . S
C984 C535 2.376 . S
C982 C269 2.457 . S
C995 C322 1.554 . S
C993 C191 1.684 . S
C1004 N209 1.737 . S
C1006 C365 1.675 . S
C1015 N232 1.588 . S
C1017 C402 1.438 . S
C1026 C260 1.972 . S
C1028 C285 1.826 . S
C1037 C223 2.002 . S
C1039 C574 1.734 . S
C1048 N255 2.058 . S
C1050 C326 2.054 . S
C1059 N186 2.000 . S
C1061 C375 1.958 . S
C1072 C406 2.186 . S
C1070 C214 2.219 . S
C1083 C295 2.102 . S
C1081 C237 2.091 . S
C1094 C494 1.645 . S
C1092 N265 1.768 . S
C1105 C531 1.234 . S
C1103 N196 1.330 . S
C1116 C451 1.369 . S
C1114 C246 1.461 . S
