# Generated by pormake.
# Topology pth, (4,4)-cn, num edge types: 1
# Building blocks:
#     Node 0, Type 0, BuildingBlock: GALJAG_clean_sbu_0, # of connection points: 4
#     Node 1, Type 0, BuildingBlock: GALJAG_clean_sbu_0, # of connection points: 4
#     Node 2, Type 0, BuildingBlock: GALJAG_clean_sbu_0, # of connection points: 4
#     Node 3, Type 1, BuildingBlock: MUDLON_clean_sbu_0, # of connection points: 4
#     Node 4, Type 1, BuildingBlock: MUDLON_clean_sbu_0, # of connection points: 4
#     Node 5, Type 1, BuildingBlock: MUDLON_clean_sbu_0, # of connection points: 4
#     Edge 6, Type (0, 1), BuildingBlock: CIFDUS_clean_linker_0, # of connection points: 2
#     Edge 7, Type (0, 1), BuildingBlock: CIFDUS_clean_linker_0, # of connection points: 2
#     Edge 8, Type (0, 1), BuildingBlock: CIFDUS_clean_linker_0, # of connection points: 2
#     Edge 9, Type (0, 1), BuildingBlock: CIFDUS_clean_linker_0, # of connection points: 2
#     Edge 10, Type (0, 1), BuildingBlock: CIFDUS_clean_linker_0, # of connection points: 2
#     Edge 11, Type (0, 1), BuildingBlock: CIFDUS_clean_linker_0, # of connection points: 2
#     Edge 12, Type (0, 1), BuildingBlock: CIFDUS_clean_linker_0, # of connection points: 2
#     Edge 13, Type (0, 1), BuildingBlock: CIFDUS_clean_linker_0, # of connection points: 2
#     Edge 14, Type (0, 1), BuildingBlock: CIFDUS_clean_linker_0, # of connection points: 2
#     Edge 15, Type (0, 1), BuildingBlock: CIFDUS_clean_linker_0, # of connection points: 2
#     Edge 16, Type (0, 1), BuildingBlock: CIFDUS_clean_linker_0, # of connection points: 2
#     Edge 17, Type (0, 1), BuildingBlock: CIFDUS_clean_linker_0, # of connection points: 2
# Relax obj value: 0.043
# Max RMSD: 0.088
# Mean RMSD: 0.080
data_MOF--net-pth--node1-GALJAG_clean_sbu_0--node2-MUDLON_clean_sbu_0--edge1-CIFDUS_clean_linker_0
_symmetry_space_group_name_H-M    P1
_symmetry_Int_Tables_number       1
_symmetry_cell_setting            triclinic
loop_
_symmetry_equiv_pos_as_xyz
'x, y, z'
_cell_length_a     20.109696
_cell_length_b     20.147213
_cell_length_c     50.216802
_cell_angle_alpha  90.313373
_cell_angle_beta   89.523663
_cell_angle_gamma 119.21268
loop_
_atom_site_label
_atom_site_type_symbol
_atom_site_fract_x
_atom_site_fract_y
_atom_site_fract_z
_atom_type_partial_charge
In0 In 0.03041 0.02491 0.10163 0.0
O1 O 0.94925 0.05684 0.1235 0.0
O2 O 0.06109 0.14537 0.11501 0.0
C3 C 0.92365 0.91061 0.07175 0.0
C4 C 0.1437 0.10407 0.06603 0.0
C5 C 0.05583 0.95576 0.14361 0.0
O6 O 0.92269 0.97216 0.07551 0.0
O7 O 0.97694 0.90677 0.08341 0.0
O8 O 0.09341 0.96883 0.12218 0.0
O9 O 1.00734 0.97816 0.14369 0.0
C10 C 0.99737 0.12645 0.12576 0.0
O11 O 0.15688 0.09819 0.09023 0.0
O12 O 0.07403 0.07106 0.06006 0.0
In13 In 0.01781 0.01829 0.4396 0.0
O14 O 0.03742 0.13771 0.42999 0.0
O15 O 0.05462 0.07687 0.39872 0.0
C16 C 0.1332 0.07747 0.47542 0.0
C17 C 0.88181 0.96788 0.46511 0.0
C18 C 1.00424 0.89048 0.41597 0.0
O19 O 0.14241 0.06148 0.45181 0.0
O20 O 0.06679 0.06536 0.48062 0.0
O21 O 0.04969 0.9248 0.4347 0.0
O22 O 0.96437 0.9201 0.40907 0.0
C23 C 0.05513 0.13716 0.4059 0.0
O24 O 0.93171 0.95139 0.4725 0.0
O25 O 0.89924 1.00774 0.44426 0.0
In26 In 1.0147 1.00517 0.77116 0.0
O27 O 1.01247 0.91098 0.79702 0.0
O28 O 0.90867 0.8899 0.77929 0.0
C29 C 0.11525 0.99248 0.73792 0.0
C30 C 0.92034 0.04466 0.74548 0.0
C31 C 0.07752 0.11098 0.81053 0.0
O32 O 0.04403 0.95282 0.73526 0.0
O33 O 0.13563 0.03847 0.75723 0.0
O34 O 0.093 0.12791 0.78625 0.0
O35 O 0.03086 0.04195 0.81463 0.0
C36 C 0.94211 0.86598 0.79446 0.0
O37 O 0.91026 0.02198 0.76925 0.0
O38 O 0.9787 0.04839 0.73453 0.0
Mg39 Mg 0.02814 0.51318 0.26942 0.0
C40 C 0.09948 0.41553 0.28641 0.0
O41 O 0.09351 0.39845 0.26094 0.0
C42 C 0.05518 0.6504 0.24216 0.0
O43 O 0.98546 0.61906 0.25174 0.0
C44 C 0.93086 0.35756 0.24181 0.0
O45 O 0.91276 0.33101 0.26618 0.0
O46 O 0.96998 0.42899 0.23827 0.0
O47 O 0.08442 0.46686 0.29436 0.0
O48 O 0.9634 0.54376 0.29754 0.0
C49 C 1.00079 0.57618 0.31848 0.0
O50 O 0.06657 0.57866 0.32216 0.0
O51 O 0.09503 0.61827 0.24675 0.0
Mg52 Mg 0.53023 0.03233 0.59907 0.0
C53 C 0.45414 0.11768 0.57552 0.0
O54 O 0.42928 0.11288 0.6001 0.0
C55 C 0.63255 0.08292 0.647 0.0
O56 O 0.56539 0.05041 0.65868 0.0
C57 C 0.36523 0.94915 0.62158 0.0
O58 O 0.34542 0.93336 0.5965 0.0
O59 O 0.43556 0.9829 0.62753 0.0
O60 O 0.50363 0.09719 0.57054 0.0
O61 O 0.55084 0.95681 0.5733 0.0
C62 C 0.59614 0.93318 0.58049 0.0
O63 O 0.61747 0.94147 0.60551 0.0
O64 O 0.63593 0.09123 0.62181 0.0
Mg65 Mg 0.51274 0.51133 0.93056 0.0
C66 C 0.34733 0.42528 0.9142 0.0
O67 O 0.34194 0.39028 0.93674 0.0
C68 C 0.62918 0.6226 0.96538 0.0
O69 O 0.65137 0.57322 0.95885 0.0
C70 C 0.48403 0.41719 0.98082 0.0
O71 O 0.51618 0.4855 0.99132 0.0
O72 O 0.4806 0.41034 0.95553 0.0
O73 O 0.40909 0.48584 0.90894 0.0
O74 O 0.58935 0.53762 0.89631 0.0
C75 C 0.65573 0.54616 0.89259 0.0
O76 O 0.68965 0.53046 0.91183 0.0
O77 O 0.5665 0.61305 0.95594 0.0
H78 H 0.89169 0.09183 0.16507 0.0
H79 H 0.07394 0.28106 0.12372 0.0
H80 H 0.06226 0.36998 0.15417 0.0
H81 H 1.00905 0.39328 0.19493 0.0
H82 H 0.83464 0.20398 0.23884 0.0
H83 H 0.83375 0.11587 0.2049 0.0
C84 C 0.92789 0.15261 0.16247 0.0
C85 C 0.98356 0.17991 0.14215 0.0
C86 C 0.92256 0.20334 0.18064 0.0
C87 C 0.03077 0.2587 0.13923 0.0
C88 C 0.02419 0.30954 0.15666 0.0
C89 C 0.96972 0.33289 0.19687 0.0
C90 C 0.92183 0.30534 0.21943 0.0
C91 C 0.97151 0.28244 0.1778 0.0
C92 C 0.87207 0.22673 0.22171 0.0
C93 C 0.87175 0.17629 0.20235 0.0
H94 H 0.84392 0.90004 0.51369 0.0
H95 H 0.76592 0.99639 0.45308 0.0
H96 H 0.66265 0.98354 0.48239 0.0
H97 H 0.6042 0.95914 0.52698 0.0
H98 H 0.68714 0.86965 0.58841 0.0
H99 H 0.77766 0.86433 0.55694 0.0
C100 C 0.80356 0.91706 0.50673 0.0
C101 C 0.81302 0.94971 0.4813 0.0
C102 C 0.74531 0.91107 0.52392 0.0
C103 C 0.7602 0.97145 0.47259 0.0
C104 C 0.70119 0.96427 0.48938 0.0
C105 C 0.64085 0.93684 0.53337 0.0
C106 C 0.63912 0.91532 0.56014 0.0
C107 C 0.6945 0.93616 0.51536 0.0
C108 C 0.68743 0.88695 0.56801 0.0
C109 C 0.73954 0.88423 0.55003 0.0
H110 H 0.79027 0.76503 0.7944 0.0
H111 H 1.00134 0.81063 0.83134 0.0
H112 H 0.93156 0.70793 0.86317 0.0
H113 H 0.80965 0.61588 0.88388 0.0
H114 H 0.59876 0.57324 0.84739 0.0
H115 H 0.6693 0.66289 0.81195 0.0
C116 C 0.8211 0.75164 0.80912 0.0
C117 C 0.90081 0.79602 0.81067 0.0
C118 C 0.78052 0.69322 0.82764 0.0
C119 C 0.93991 0.77766 0.8298 0.0
C120 C 0.9 0.71903 0.84809 0.0
C121 C 0.77909 0.62491 0.86788 0.0
C122 C 0.69894 0.58847 0.86857 0.0
C123 C 0.82012 0.67792 0.84771 0.0
C124 C 0.66042 0.60101 0.84758 0.0
C125 C 0.70073 0.65254 0.82729 0.0
H126 H 0.13761 0.87933 0.1465 0.0
H127 H 0.98878 0.93591 0.19195 0.0
H128 H 0.98405 0.85338 0.22787 0.0
H129 H 1.01011 0.75528 0.2444 0.0
H130 H 0.15611 0.69377 0.19988 0.0
H131 H 0.17553 0.78912 0.16591 0.0
C132 C 0.10517 0.87434 0.16445 0.0
C133 C 0.06276 0.91301 0.16635 0.0
C134 C 0.10198 0.82575 0.18517 0.0
C135 C 0.02124 0.90625 0.18979 0.0
C136 C 0.01846 0.85902 0.21041 0.0
C137 C 0.0472 0.7635 0.22746 0.0
C138 C 0.08095 0.71711 0.22447 0.0
C139 C 0.05678 0.81701 0.20799 0.0
C140 C 0.12964 0.72901 0.20264 0.0
C141 C 0.14012 0.78302 0.18311 0.0
H142 H 0.27693 0.09705 0.47023 0.0
H143 H 0.12257 0.11079 0.52734 0.0
H144 H 0.21303 0.13414 0.56302 0.0
H145 H 0.32959 0.13729 0.57874 0.0
H146 H 0.48298 0.12016 0.52199 0.0
H147 H 0.40017 0.11303 0.48553 0.0
C148 C 0.26362 0.10625 0.49042 0.0
C149 C 0.19273 0.1014 0.49613 0.0
C150 C 0.31568 0.11881 0.51099 0.0
C151 C 0.17648 0.11373 0.52239 0.0
C152 C 0.22818 0.127 0.54285 0.0
C153 C 0.34579 0.13343 0.55837 0.0
C154 C 0.41218 0.12848 0.55323 0.0
C155 C 0.29709 0.12774 0.5375 0.0
C156 C 0.4321 0.12369 0.52663 0.0
C157 C 0.38451 0.1192 0.50572 0.0
H158 H 0.18253 0.26266 0.80776 0.0
H159 H 0.05291 0.08156 0.86343 0.0
H160 H 0.11825 0.16605 0.90059 0.0
H161 H 0.21965 0.28725 0.91724 0.0
H162 H 0.35257 0.46871 0.8621 0.0
H163 H 0.27738 0.38904 0.82501 0.0
C164 C 0.16813 0.24204 0.82804 0.0
C165 C 0.11342 0.16561 0.83274 0.0
C166 C 0.20643 0.29106 0.84949 0.0
C167 C 0.0951 0.1399 0.85917 0.0
C168 C 0.13244 0.18823 0.8805 0.0
C169 C 0.23148 0.31009 0.89719 0.0
C170 C 0.29231 0.38379 0.89254 0.0
C171 C 0.18924 0.26341 0.87589 0.0
C172 C 0.30629 0.4122 0.86635 0.0
C173 C 0.26362 0.3664 0.84505 0.0
H174 H 0.92556 0.08766 0.69359 0.0
H175 H 0.79142 0.03808 0.76569 0.0
H176 H 0.6945 0.05373 0.7421 0.0
H177 H 0.64282 0.07122 0.70044 0.0
H178 H 0.77428 0.11803 0.62781 0.0
H179 H 0.87759 0.11518 0.65223 0.0
C180 C 0.87546 0.08104 0.70417 0.0
C181 C 0.8655 0.06105 0.73133 0.0
C182 C 0.81935 0.08961 0.69039 0.0
C183 C 0.80039 0.05299 0.74477 0.0
C184 C 0.74482 0.06192 0.73129 0.0
C185 C 0.69446 0.08188 0.68995 0.0
C186 C 0.70036 0.09431 0.66226 0.0
C187 C 0.75299 0.07877 0.70401 0.0
C188 C 0.76805 0.10842 0.6491 0.0
C189 C 0.82704 0.10627 0.66304 0.0
H190 H 0.80394 0.90352 0.04345 0.0
H191 H 0.92404 0.77974 0.05976 0.0
H192 H 0.84323 0.68077 0.02862 0.0
H193 H 0.74182 0.6306 0.99611 0.0
H194 H 0.61743 0.7494 0.97924 0.0
H195 H 0.69639 0.84901 1.01133 0.0
C196 C 0.81195 0.8546 0.04026 0.0
C197 C 0.87021 0.84925 0.05389 0.0
C198 C 0.76484 0.79723 1.02219 0.0
C199 C 0.87982 0.78546 0.04958 0.0
C200 C 0.83369 0.72877 0.03172 0.0
C201 C 0.73171 0.67823 0.99933 0.0
C202 C 0.67418 0.68285 0.98509 0.0
C203 C 0.77663 0.73441 1.01778 0.0
C204 C 0.6615 0.74459 0.98988 0.0
C205 C 0.70669 0.80152 1.00821 0.0
H206 H 0.91989 0.81197 0.37259 0.0
H207 H 0.08345 0.81866 0.42921 0.0
H208 H 0.08997 0.71621 0.40554 0.0
H209 H 0.05788 0.63221 0.36702 0.0
H210 H 0.89701 0.62523 0.30927 0.0
H211 H 0.8796 0.71893 0.33536 0.0
C212 C 0.95631 0.79038 0.37986 0.0
C213 C 1.00169 0.82355 0.40252 0.0
C214 C 0.96031 0.73137 0.36595 0.0
C215 C 0.04835 0.7947 0.41175 0.0
C216 C 0.05215 0.736 0.39822 0.0
C217 C 0.01819 0.65035 0.36025 0.0
C218 C 0.97926 0.62211 0.33611 0.0
C219 C 1.00963 0.70502 0.37504 0.0
C220 C 0.92756 0.64583 0.32782 0.0
C221 C 0.91807 0.69991 0.34263 0.0
H222 H 0.08594 0.91144 0.69166 0.0
H223 H 0.26925 0.06061 0.74335 0.0
H224 H 0.36192 0.05505 0.71303 0.0
H225 H 0.39168 0.01295 0.67094 0.0
H226 H 0.20969 0.86865 0.61793 0.0
H227 H 0.11586 0.86649 0.64975 0.0
C228 C 0.14614 0.94238 0.69633 0.0
C229 C 0.17061 0.98655 0.71972 0.0
C230 C 0.19941 0.93971 0.67858 0.0
C231 C 0.24885 0.02644 0.72546 0.0
C232 C 0.30194 0.02322 0.70813 0.0
C233 C 0.33145 0.98013 0.66644 0.0
C234 C 0.30788 0.94083 0.64205 0.0
C235 C 0.27797 0.98064 0.68453 0.0
C236 C 0.22952 0.89935 0.63653 0.0
C237 C 0.1758 0.8983 0.6547 0.0
H238 H 0.29287 0.20582 0.07531 0.0
H239 H 0.12996 0.10103 1.01213 0.0
H240 H 0.22587 0.1804 0.97929 0.0
H241 H 0.35194 0.28849 0.969 0.0
H242 H 0.51098 0.40102 0.03261 0.0
H243 H 0.422 0.30875 0.06459 0.0
C244 C 0.27874 0.19979 0.05432 0.0
C245 C 0.20426 0.14807 0.04621 0.0
C246 C 0.33375 0.24699 0.03556 0.0
C247 C 0.18671 0.14096 1.01894 0.0
C248 C 0.24159 0.18622 1.00011 0.0
C249 C 0.36778 0.29176 0.98974 0.0
C250 C 0.43789 0.35159 0.99843 0.0
C251 C 0.31481 0.24065 1.00824 0.0
C252 C 0.45728 0.35543 0.02545 0.0
C253 C 0.40619 0.30302 0.04378 0.0
H254 H 0.09396 0.14839 0.35328 0.0
H255 H 0.05284 0.26859 0.417 0.0
H256 H 0.0705 0.3693 0.38617 0.0
H257 H 0.08845 0.41873 0.34057 0.0
H258 H 0.12693 0.29738 0.27652 0.0
H259 H 0.12073 0.20265 0.30804 0.0
C260 C 0.08948 0.19694 0.36045 0.0
C261 C 0.0715 0.20058 0.38739 0.0
C262 C 0.09928 0.25461 0.34253 0.0
C263 C 0.06625 0.2641 0.39637 0.0
C264 C 0.07634 0.32179 0.37873 0.0
C265 C 0.09669 0.37227 0.3335 0.0
C266 C 0.10776 0.36522 0.30611 0.0
C267 C 0.09166 0.31707 0.35168 0.0
C268 C 0.11817 0.30437 0.29743 0.0
C269 C 0.11427 0.24983 0.31545 0.0
loop_
_geom_bond_atom_site_label_1
_geom_bond_atom_site_label_2
_geom_bond_distance
_geom_bond_site_symmetry_2
_ccdc_geom_bond_type
In0 O1 2.294 1_455 S
In0 O2 2.326 . S
In0 O6 2.266 1_445 S
In0 O7 2.326 1_445 S
In0 O8 2.266 1_545 S
In0 O9 2.326 1_445 S
In0 O11 2.294 . S
In0 O12 2.326 . S
O1 In0 2.294 1_655 S
O1 C10 1.240 1_655 S
O2 In0 2.326 . S
O2 C10 1.252 . S
C3 O6 1.252 . S
C3 O7 1.260 . S
C4 O11 1.240 . S
C4 O12 1.252 . S
C5 O8 1.256 . S
C5 O9 1.254 1_455 S
O6 In0 2.266 1_665 S
O6 C3 1.252 . S
O7 In0 2.326 1_665 S
O7 C3 1.260 . S
O8 In0 2.266 1_565 S
O8 C5 1.256 . S
O9 In0 2.326 1_665 S
O9 C5 1.254 1_655 S
C10 O1 1.240 1_455 S
C10 O2 1.252 . S
O11 In0 2.294 . S
O11 C4 1.240 . S
O12 In0 2.326 . S
O12 C4 1.252 . S
In13 O14 2.294 . S
In13 O15 2.326 1_455 S
In13 O19 2.266 . S
In13 O20 2.326 1_545 S
In13 O21 2.266 1_445 S
In13 O22 2.326 1_545 S
In13 O24 2.294 1_445 S
In13 O25 2.326 1_455 S
O14 In13 2.294 . S
O14 C23 1.240 1_455 S
O15 In13 2.326 1_655 S
O15 C23 1.252 . S
C16 O19 1.252 1_565 S
C16 O20 1.260 . S
C17 O24 1.240 1_545 S
C17 O25 1.252 . S
C18 O21 1.252 1_455 S
C18 O22 1.260 . S
O19 In13 2.266 . S
O19 C16 1.252 1_545 S
O20 In13 2.326 1_565 S
O20 C16 1.260 . S
O21 In13 2.266 1_665 S
O21 C18 1.252 1_655 S
O22 In13 2.326 1_565 S
O22 C18 1.260 . S
C23 O14 1.240 1_655 S
C23 O15 1.252 . S
O24 In13 2.294 1_665 S
O24 C17 1.240 1_565 S
O25 In13 2.326 1_655 S
O25 C17 1.252 . S
In26 O27 2.294 1_445 S
In26 O28 2.326 1_445 S
In26 O32 2.266 1_545 S
In26 O33 2.326 . S
In26 O34 2.266 . S
In26 O35 2.326 . S
In26 O37 2.294 1_455 S
In26 O38 2.326 1_445 S
O27 In26 2.294 1_665 S
O27 C36 1.240 . S
O28 In26 2.326 1_665 S
O28 C36 1.252 . S
C29 O32 1.252 1_545 S
C29 O33 1.260 . S
C30 O37 1.240 1_565 S
C30 O38 1.252 . S
C31 O34 1.252 . S
C31 O35 1.260 . S
O32 In26 2.266 1_565 S
O32 C29 1.252 1_565 S
O33 In26 2.326 . S
O33 C29 1.260 . S
O34 In26 2.266 . S
O34 C31 1.252 . S
O35 In26 2.326 . S
O35 C31 1.260 . S
C36 O27 1.240 . S
C36 O28 1.252 . S
O37 In26 2.294 1_655 S
O37 C30 1.240 1_545 S
O38 In26 2.326 1_665 S
O38 C30 1.252 . S
Mg39 O46 2.141 . S
Mg39 O47 2.048 . S
Mg39 O48 2.048 . S
Mg39 O51 2.141 . S
C40 O41 1.313 . S
C40 O47 1.195 1_655 S
O41 C40 1.313 . S
C42 O43 1.245 . S
C42 O51 1.289 1_655 S
O43 C42 1.245 . S
C44 O45 1.245 . S
C44 O46 1.289 1_655 S
O45 C44 1.245 . S
O46 Mg39 2.141 . S
O46 C44 1.289 1_455 S
O47 Mg39 2.048 . S
O47 C40 1.195 1_455 S
O48 Mg39 2.048 . S
O48 C49 1.195 1_455 S
C49 O48 1.195 1_655 S
C49 O50 1.313 . S
O50 C49 1.313 . S
O51 Mg39 2.141 . S
O51 C42 1.289 1_455 S
Mg52 O59 2.141 . S
Mg52 O60 2.048 . S
Mg52 O61 2.048 . S
Mg52 O64 2.141 . S
C53 O54 1.313 . S
C53 O60 1.195 1_565 S
O54 C53 1.313 . S
C55 O56 1.245 . S
C55 O64 1.289 1_565 S
O56 C55 1.245 . S
C57 O58 1.245 . S
C57 O59 1.289 1_565 S
O58 C57 1.245 . S
O59 Mg52 2.141 . S
O59 C57 1.289 1_545 S
O60 Mg52 2.048 . S
O60 C53 1.195 1_545 S
O61 Mg52 2.048 . S
O61 C62 1.195 1_545 S
C62 O61 1.195 1_565 S
C62 O63 1.313 . S
O63 C62 1.313 . S
O64 Mg52 2.141 . S
O64 C55 1.289 1_545 S
Mg65 O72 2.141 . S
Mg65 O73 2.048 . S
Mg65 O74 2.048 . S
Mg65 O77 2.141 . S
C66 O67 1.313 . S
C66 O73 1.195 . S
O67 C66 1.313 . S
C68 O69 1.245 . S
C68 O77 1.289 . S
O69 C68 1.245 . S
C70 O71 1.245 . S
C70 O72 1.289 . S
O71 C70 1.245 . S
O72 Mg65 2.141 . S
O72 C70 1.289 . S
O73 Mg65 2.048 . S
O73 C66 1.195 . S
O74 Mg65 2.048 . S
O74 C75 1.195 . S
C75 O74 1.195 . S
C75 O76 1.313 . S
O76 C75 1.313 . S
O77 Mg65 2.141 . S
O77 C68 1.289 . S
H78 C84 0.930 . S
H79 C87 0.930 . S
H80 C88 0.930 . S
H81 C89 0.930 . S
H82 C92 0.930 . S
H83 C93 0.930 . S
C84 H78 0.930 . S
C84 C85 1.355 1_655 S
C84 C86 1.415 . S
C85 C84 1.355 1_455 S
C85 C87 1.419 . S
C86 C84 1.415 . S
C86 C91 1.425 1_655 S
C86 C93 1.409 . S
C87 H79 0.930 . S
C87 C85 1.419 . S
C87 C88 1.362 . S
C88 H80 0.930 . S
C88 C87 1.362 . S
C88 C91 1.409 . S
C89 H81 0.930 . S
C89 C90 1.357 1_455 S
C89 C91 1.415 . S
C90 C89 1.357 1_655 S
C90 C92 1.418 . S
C91 C86 1.425 1_455 S
C91 C88 1.409 . S
C91 C89 1.415 . S
C92 H82 0.930 . S
C92 C90 1.418 . S
C92 C93 1.362 . S
C93 H83 0.930 . S
C93 C86 1.409 . S
C93 C92 1.362 . S
H94 C100 0.930 . S
H95 C103 0.930 . S
H96 C104 0.930 . S
H97 C105 0.930 . S
H98 C108 0.930 . S
H99 C109 0.930 . S
C100 H94 0.930 . S
C100 C101 1.355 1_565 S
C100 C102 1.415 . S
C101 C100 1.355 1_545 S
C101 C103 1.419 . S
C102 C100 1.415 . S
C102 C107 1.425 1_565 S
C102 C109 1.409 . S
C103 H95 0.930 . S
C103 C101 1.419 . S
C103 C104 1.362 . S
C104 H96 0.930 . S
C104 C103 1.362 . S
C104 C107 1.409 . S
C105 H97 0.930 . S
C105 C106 1.355 . S
C105 C107 1.415 . S
C106 C105 1.355 . S
C106 C108 1.419 1_545 S
C107 C102 1.425 1_545 S
C107 C104 1.409 . S
C107 C105 1.415 . S
C108 H98 0.930 . S
C108 C106 1.419 1_565 S
C108 C109 1.362 . S
C109 H99 0.930 . S
C109 C102 1.409 . S
C109 C108 1.362 . S
H110 C116 0.930 . S
H111 C119 0.930 . S
H112 C120 0.930 . S
H113 C121 0.930 . S
H114 C124 0.930 . S
H115 C125 0.930 . S
C116 H110 0.930 . S
C116 C117 1.355 . S
C116 C118 1.415 . S
C117 C116 1.355 . S
C117 C119 1.419 . S
C118 C116 1.415 . S
C118 C123 1.425 . S
C118 C125 1.409 . S
C119 H111 0.930 . S
C119 C117 1.419 . S
C119 C120 1.362 . S
C120 H112 0.930 . S
C120 C119 1.362 . S
C120 C123 1.409 . S
C121 H113 0.930 . S
C121 C122 1.355 . S
C121 C123 1.415 . S
C122 C121 1.355 . S
C122 C124 1.419 . S
C123 C118 1.425 . S
C123 C120 1.409 . S
C123 C121 1.415 . S
C124 H114 0.930 . S
C124 C122 1.419 . S
C124 C125 1.362 . S
C125 H115 0.930 . S
C125 C118 1.409 . S
C125 C124 1.362 . S
H126 C132 0.930 . S
H127 C135 0.930 . S
H128 C136 0.930 . S
H129 C137 0.930 . S
H130 C140 0.930 . S
H131 C141 0.930 . S
C132 H126 0.930 . S
C132 C133 1.355 1_455 S
C132 C134 1.415 . S
C133 C132 1.355 1_655 S
C133 C135 1.419 . S
C134 C132 1.415 . S
C134 C139 1.425 1_455 S
C134 C141 1.409 . S
C135 H127 0.930 . S
C135 C133 1.419 . S
C135 C136 1.362 . S
C136 H128 0.930 . S
C136 C135 1.362 . S
C136 C139 1.409 . S
C137 H129 0.930 . S
C137 C138 1.355 1_655 S
C137 C139 1.415 . S
C138 C137 1.355 1_455 S
C138 C140 1.419 . S
C139 C134 1.425 1_655 S
C139 C136 1.409 . S
C139 C137 1.415 . S
C140 H130 0.930 . S
C140 C138 1.419 . S
C140 C141 1.362 . S
C141 H131 0.930 . S
C141 C134 1.409 . S
C141 C140 1.362 . S
H142 C148 0.930 . S
H143 C151 0.930 . S
H144 C152 0.930 . S
H145 C153 0.930 . S
H146 C156 0.930 . S
H147 C157 0.930 . S
C148 H142 0.930 . S
C148 C149 1.355 . S
C148 C150 1.415 . S
C149 C148 1.355 . S
C149 C151 1.419 1_565 S
C150 C148 1.415 . S
C150 C155 1.425 1_565 S
C150 C157 1.409 . S
C151 H143 0.930 . S
C151 C149 1.419 1_545 S
C151 C152 1.362 . S
C152 H144 0.930 . S
C152 C151 1.362 . S
C152 C155 1.409 . S
C153 H145 0.930 . S
C153 C154 1.355 . S
C153 C155 1.415 . S
C154 C153 1.355 . S
C154 C156 1.419 1_545 S
C155 C150 1.425 1_545 S
C155 C152 1.409 . S
C155 C153 1.415 . S
C156 H146 0.930 . S
C156 C154 1.419 1_565 S
C156 C157 1.362 . S
C157 H147 0.930 . S
C157 C150 1.409 . S
C157 C156 1.362 . S
H158 C164 0.930 . S
H159 C167 0.930 . S
H160 C168 0.930 . S
H161 C169 0.930 . S
H162 C172 0.930 . S
H163 C173 0.930 . S
C164 H158 0.930 . S
C164 C165 1.355 . S
C164 C166 1.415 . S
C165 C164 1.355 . S
C165 C167 1.419 . S
C166 C164 1.415 . S
C166 C171 1.425 . S
C166 C173 1.409 . S
C167 H159 0.930 . S
C167 C165 1.419 . S
C167 C168 1.362 . S
C168 H160 0.930 . S
C168 C167 1.362 . S
C168 C171 1.409 . S
C169 H161 0.930 . S
C169 C170 1.355 . S
C169 C171 1.415 . S
C170 C169 1.355 . S
C170 C172 1.419 . S
C171 C166 1.425 . S
C171 C168 1.409 . S
C171 C169 1.415 . S
C172 H162 0.930 . S
C172 C170 1.419 . S
C172 C173 1.362 . S
C173 H163 0.930 . S
C173 C166 1.409 . S
C173 C172 1.362 . S
H174 C180 0.930 . S
H175 C183 0.930 . S
H176 C184 0.930 . S
H177 C185 0.930 . S
H178 C188 0.930 . S
H179 C189 0.930 . S
C180 H174 0.930 . S
C180 C181 1.355 1_545 S
C180 C182 1.415 . S
C181 C180 1.355 1_565 S
C181 C183 1.419 . S
C182 C180 1.415 . S
C182 C187 1.425 1_545 S
C182 C189 1.409 . S
C183 H175 0.930 . S
C183 C181 1.419 . S
C183 C184 1.362 . S
C184 H176 0.930 . S
C184 C183 1.362 . S
C184 C187 1.409 . S
C185 H177 0.930 . S
C185 C186 1.355 1_565 S
C185 C187 1.415 . S
C186 C185 1.355 1_545 S
C186 C188 1.419 . S
C187 C182 1.425 1_565 S
C187 C184 1.409 . S
C187 C185 1.415 . S
C188 H178 0.930 . S
C188 C186 1.419 . S
C188 C189 1.362 . S
C189 H179 0.930 . S
C189 C182 1.409 . S
C189 C188 1.362 . S
H190 C196 0.930 . S
H191 C199 0.930 . S
H192 C200 0.930 . S
H193 C201 0.930 . S
H194 C204 0.930 . S
H195 C205 0.930 . S
C196 H190 0.930 . S
C196 C197 1.355 . S
C196 C198 1.415 . S
C197 C196 1.355 . S
C197 C199 1.419 . S
C198 C196 1.415 . S
C198 C203 1.425 1_554 S
C198 C205 1.409 . S
C199 H191 0.930 . S
C199 C197 1.419 . S
C199 C200 1.362 1_554 S
C200 H192 0.930 . S
C200 C199 1.362 1_556 S
C200 C203 1.409 . S
C201 H193 0.930 . S
C201 C202 1.355 . S
C201 C203 1.415 . S
C202 C201 1.355 . S
C202 C204 1.419 . S
C203 C198 1.425 1_556 S
C203 C200 1.409 . S
C203 C201 1.415 . S
C204 H194 0.930 . S
C204 C202 1.419 . S
C204 C205 1.362 1_556 S
C205 H195 0.930 . S
C205 C198 1.409 . S
C205 C204 1.362 1_554 S
H206 C212 0.930 . S
H207 C215 0.930 . S
H208 C216 0.930 . S
H209 C217 0.930 . S
H210 C220 0.930 . S
H211 C221 0.930 . S
C212 H206 0.930 . S
C212 C213 1.355 . S
C212 C214 1.415 . S
C213 C212 1.355 . S
C213 C215 1.419 1_455 S
C214 C212 1.415 . S
C214 C219 1.425 1_455 S
C214 C221 1.409 . S
C215 H207 0.930 . S
C215 C213 1.419 1_655 S
C215 C216 1.362 . S
C216 H208 0.930 . S
C216 C215 1.362 . S
C216 C219 1.409 . S
C217 H209 0.930 . S
C217 C218 1.355 1_655 S
C217 C219 1.415 . S
C218 C217 1.355 1_455 S
C218 C220 1.419 . S
C219 C214 1.425 1_655 S
C219 C216 1.409 . S
C219 C217 1.415 . S
C220 H210 0.930 . S
C220 C218 1.419 . S
C220 C221 1.362 . S
C221 H211 0.930 . S
C221 C214 1.409 . S
C221 C220 1.362 . S
H222 C228 0.930 . S
H223 C231 0.930 . S
H224 C232 0.930 . S
H225 C233 0.930 . S
H226 C236 0.930 . S
H227 C237 0.930 . S
C228 H222 0.930 . S
C228 C229 1.355 1_565 S
C228 C230 1.415 . S
C229 C228 1.355 1_545 S
C229 C231 1.419 . S
C230 C228 1.415 . S
C230 C235 1.425 1_565 S
C230 C237 1.409 . S
C231 H223 0.930 . S
C231 C229 1.419 . S
C231 C232 1.362 . S
C232 H224 0.930 . S
C232 C231 1.362 . S
C232 C235 1.409 . S
C233 H225 0.930 . S
C233 C234 1.355 1_545 S
C233 C235 1.415 . S
C234 C233 1.355 1_565 S
C234 C236 1.419 . S
C235 C230 1.425 1_545 S
C235 C232 1.409 . S
C235 C233 1.415 . S
C236 H226 0.930 . S
C236 C234 1.419 . S
C236 C237 1.362 . S
C237 H227 0.930 . S
C237 C230 1.409 . S
C237 C236 1.362 . S
H238 C244 0.930 . S
H239 C247 0.930 . S
H240 C248 0.930 . S
H241 C249 0.930 . S
H242 C252 0.927 1_554 S
H243 C253 0.930 . S
C244 H238 0.930 . S
C244 C245 1.355 . S
C244 C246 1.415 . S
C245 C244 1.355 . S
C245 C247 1.419 . S
C246 C244 1.415 . S
C246 C251 1.425 1_554 S
C246 C253 1.409 . S
C247 H239 0.930 . S
C247 C245 1.419 . S
C247 C248 1.362 1_554 S
C248 H240 0.930 . S
C248 C247 1.362 1_556 S
C248 C251 1.409 . S
C249 H241 0.930 . S
C249 C250 1.355 . S
C249 C251 1.415 . S
C250 C249 1.355 . S
C250 C252 1.419 . S
C251 C246 1.425 1_556 S
C251 C248 1.409 . S
C251 C249 1.415 . S
C252 H242 0.927 1_556 S
C252 C250 1.419 . S
C252 C253 1.362 1_556 S
C253 H243 0.930 . S
C253 C246 1.409 . S
C253 C252 1.362 1_554 S
H254 C260 0.930 . S
H255 C263 0.930 . S
H256 C264 0.930 . S
H257 C265 0.930 . S
H258 C268 0.930 . S
H259 C269 0.930 . S
C260 H254 0.930 . S
C260 C261 1.355 1_655 S
C260 C262 1.415 . S
C261 C260 1.355 1_455 S
C261 C263 1.419 . S
C262 C260 1.415 . S
C262 C267 1.425 1_655 S
C262 C269 1.409 . S
C263 H255 0.930 . S
C263 C261 1.419 . S
C263 C264 1.362 . S
C264 H256 0.930 . S
C264 C263 1.362 . S
C264 C267 1.409 . S
C265 H257 0.930 . S
C265 C266 1.355 . S
C265 C267 1.415 . S
C266 C265 1.355 . S
C266 C268 1.419 1_455 S
C267 C262 1.425 1_455 S
C267 C264 1.409 . S
C267 C265 1.415 . S
C268 H258 0.930 . S
C268 C266 1.419 1_655 S
C268 C269 1.362 . S
C269 H259 0.930 . S
C269 C262 1.409 . S
C269 C268 1.362 . S
C90 C44 1.428 . S
C85 C10 1.453 . S
C101 C17 1.516 . S
C106 C62 1.504 1_545 S
C117 C36 1.517 . S
C122 C75 1.521 . S
C133 C5 1.454 1_655 S
C138 C42 1.460 1_455 S
C154 C53 1.513 1_545 S
C149 C16 1.511 . S
C165 C31 1.519 . S
C170 C66 1.526 . S
C186 C55 1.434 1_545 S
C181 C30 1.451 . S
C197 C3 1.453 . S
C202 C68 1.461 . S
C218 C49 1.521 1_455 S
C213 C18 1.520 . S
C234 C57 1.431 . S
C229 C29 1.446 . S
C250 C70 1.439 . S
C245 C4 1.452 . S
C261 C23 1.516 1_455 S
C266 C40 1.500 1_455 S
