# Generated by pormake.
# Topology gar, (4,6)-cn, num edge types: 1
# Building blocks:
#     Node 0, Type 0, BuildingBlock: CEKHIL_clean_sbu_0, # of connection points: 4
#     Node 1, Type 0, BuildingBlock: CEKHIL_clean_sbu_0, # of connection points: 4
#     Node 2, Type 0, BuildingBlock: CEKHIL_clean_sbu_0, # of connection points: 4
#     Node 3, Type 0, BuildingBlock: CEKHIL_clean_sbu_0, # of connection points: 4
#     Node 4, Type 0, BuildingBlock: CEKHIL_clean_sbu_0, # of connection points: 4
#     Node 5, Type 0, BuildingBlock: CEKHIL_clean_sbu_0, # of connection points: 4
#     Node 6, Type 0, BuildingBlock: CEKHIL_clean_sbu_0, # of connection points: 4
#     Node 7, Type 0, BuildingBlock: CEKHIL_clean_sbu_0, # of connection points: 4
#     Node 8, Type 0, BuildingBlock: CEKHIL_clean_sbu_0, # of connection points: 4
#     Node 9, Type 0, BuildingBlock: CEKHIL_clean_sbu_0, # of connection points: 4
#     Node 10, Type 0, BuildingBlock: CEKHIL_clean_sbu_0, # of connection points: 4
#     Node 11, Type 0, BuildingBlock: CEKHIL_clean_sbu_0, # of connection points: 4
#     Node 12, Type 0, BuildingBlock: CEKHIL_clean_sbu_0, # of connection points: 4
#     Node 13, Type 0, BuildingBlock: CEKHIL_clean_sbu_0, # of connection points: 4
#     Node 14, Type 0, BuildingBlock: CEKHIL_clean_sbu_0, # of connection points: 4
#     Node 15, Type 0, BuildingBlock: CEKHIL_clean_sbu_0, # of connection points: 4
#     Node 16, Type 0, BuildingBlock: CEKHIL_clean_sbu_0, # of connection points: 4
#     Node 17, Type 0, BuildingBlock: CEKHIL_clean_sbu_0, # of connection points: 4
#     Node 18, Type 0, BuildingBlock: CEKHIL_clean_sbu_0, # of connection points: 4
#     Node 19, Type 0, BuildingBlock: CEKHIL_clean_sbu_0, # of connection points: 4
#     Node 20, Type 0, BuildingBlock: CEKHIL_clean_sbu_0, # of connection points: 4
#     Node 21, Type 0, BuildingBlock: CEKHIL_clean_sbu_0, # of connection points: 4
#     Node 22, Type 0, BuildingBlock: CEKHIL_clean_sbu_0, # of connection points: 4
#     Node 23, Type 0, BuildingBlock: CEKHIL_clean_sbu_0, # of connection points: 4
#     Node 24, Type 1, BuildingBlock: KUMBUR_clean_sbu_0, # of connection points: 6
#     Node 25, Type 1, BuildingBlock: KUMBUR_clean_sbu_0, # of connection points: 6
#     Node 26, Type 1, BuildingBlock: KUMBUR_clean_sbu_0, # of connection points: 6
#     Node 27, Type 1, BuildingBlock: KUMBUR_clean_sbu_0, # of connection points: 6
#     Node 28, Type 1, BuildingBlock: KUMBUR_clean_sbu_0, # of connection points: 6
#     Node 29, Type 1, BuildingBlock: KUMBUR_clean_sbu_0, # of connection points: 6
#     Node 30, Type 1, BuildingBlock: KUMBUR_clean_sbu_0, # of connection points: 6
#     Node 31, Type 1, BuildingBlock: KUMBUR_clean_sbu_0, # of connection points: 6
#     Node 32, Type 1, BuildingBlock: KUMBUR_clean_sbu_0, # of connection points: 6
#     Node 33, Type 1, BuildingBlock: KUMBUR_clean_sbu_0, # of connection points: 6
#     Node 34, Type 1, BuildingBlock: KUMBUR_clean_sbu_0, # of connection points: 6
#     Node 35, Type 1, BuildingBlock: KUMBUR_clean_sbu_0, # of connection points: 6
#     Node 36, Type 1, BuildingBlock: KUMBUR_clean_sbu_0, # of connection points: 6
#     Node 37, Type 1, BuildingBlock: KUMBUR_clean_sbu_0, # of connection points: 6
#     Node 38, Type 1, BuildingBlock: KUMBUR_clean_sbu_0, # of connection points: 6
#     Node 39, Type 1, BuildingBlock: KUMBUR_clean_sbu_0, # of connection points: 6
#     Edge 40, Type (0, 1), BuildingBlock: ZUJKAS_clean_linker_0, # of connection points: 2
#     Edge 41, Type (0, 1), BuildingBlock: ZUJKAS_clean_linker_0, # of connection points: 2
#     Edge 42, Type (0, 1), BuildingBlock: ZUJKAS_clean_linker_0, # of connection points: 2
#     Edge 43, Type (0, 1), BuildingBlock: ZUJKAS_clean_linker_0, # of connection points: 2
#     Edge 44, Type (0, 1), BuildingBlock: ZUJKAS_clean_linker_0, # of connection points: 2
#     Edge 45, Type (0, 1), BuildingBlock: ZUJKAS_clean_linker_0, # of connection points: 2
#     Edge 46, Type (0, 1), BuildingBlock: ZUJKAS_clean_linker_0, # of connection points: 2
#     Edge 47, Type (0, 1), BuildingBlock: ZUJKAS_clean_linker_0, # of connection points: 2
#     Edge 48, Type (0, 1), BuildingBlock: ZUJKAS_clean_linker_0, # of connection points: 2
#     Edge 49, Type (0, 1), BuildingBlock: ZUJKAS_clean_linker_0, # of connection points: 2
#     Edge 50, Type (0, 1), BuildingBlock: ZUJKAS_clean_linker_0, # of connection points: 2
#     Edge 51, Type (0, 1), BuildingBlock: ZUJKAS_clean_linker_0, # of connection points: 2
#     Edge 52, Type (0, 1), BuildingBlock: ZUJKAS_clean_linker_0, # of connection points: 2
#     Edge 53, Type (0, 1), BuildingBlock: ZUJKAS_clean_linker_0, # of connection points: 2
#     Edge 54, Type (0, 1), BuildingBlock: ZUJKAS_clean_linker_0, # of connection points: 2
#     Edge 55, Type (0, 1), BuildingBlock: ZUJKAS_clean_linker_0, # of connection points: 2
#     Edge 56, Type (0, 1), BuildingBlock: ZUJKAS_clean_linker_0, # of connection points: 2
#     Edge 57, Type (0, 1), BuildingBlock: ZUJKAS_clean_linker_0, # of connection points: 2
#     Edge 58, Type (0, 1), BuildingBlock: ZUJKAS_clean_linker_0, # of connection points: 2
#     Edge 59, Type (0, 1), BuildingBlock: ZUJKAS_clean_linker_0, # of connection points: 2
#     Edge 60, Type (0, 1), BuildingBlock: ZUJKAS_clean_linker_0, # of connection points: 2
#     Edge 61, Type (0, 1), BuildingBlock: ZUJKAS_clean_linker_0, # of connection points: 2
#     Edge 62, Type (0, 1), BuildingBlock: ZUJKAS_clean_linker_0, # of connection points: 2
#     Edge 63, Type (0, 1), BuildingBlock: ZUJKAS_clean_linker_0, # of connection points: 2
#     Edge 64, Type (0, 1), BuildingBlock: ZUJKAS_clean_linker_0, # of connection points: 2
#     Edge 65, Type (0, 1), BuildingBlock: ZUJKAS_clean_linker_0, # of connection points: 2
#     Edge 66, Type (0, 1), BuildingBlock: ZUJKAS_clean_linker_0, # of connection points: 2
#     Edge 67, Type (0, 1), BuildingBlock: ZUJKAS_clean_linker_0, # of connection points: 2
#     Edge 68, Type (0, 1), BuildingBlock: ZUJKAS_clean_linker_0, # of connection points: 2
#     Edge 69, Type (0, 1), BuildingBlock: ZUJKAS_clean_linker_0, # of connection points: 2
#     Edge 70, Type (0, 1), BuildingBlock: ZUJKAS_clean_linker_0, # of connection points: 2
#     Edge 71, Type (0, 1), BuildingBlock: ZUJKAS_clean_linker_0, # of connection points: 2
#     Edge 72, Type (0, 1), BuildingBlock: ZUJKAS_clean_linker_0, # of connection points: 2
#     Edge 73, Type (0, 1), BuildingBlock: ZUJKAS_clean_linker_0, # of connection points: 2
#     Edge 74, Type (0, 1), BuildingBlock: ZUJKAS_clean_linker_0, # of connection points: 2
#     Edge 75, Type (0, 1), BuildingBlock: ZUJKAS_clean_linker_0, # of connection points: 2
#     Edge 76, Type (0, 1), BuildingBlock: ZUJKAS_clean_linker_0, # of connection points: 2
#     Edge 77, Type (0, 1), BuildingBlock: ZUJKAS_clean_linker_0, # of connection points: 2
#     Edge 78, Type (0, 1), BuildingBlock: ZUJKAS_clean_linker_0, # of connection points: 2
#     Edge 79, Type (0, 1), BuildingBlock: ZUJKAS_clean_linker_0, # of connection points: 2
#     Edge 80, Type (0, 1), BuildingBlock: ZUJKAS_clean_linker_0, # of connection points: 2
#     Edge 81, Type (0, 1), BuildingBlock: ZUJKAS_clean_linker_0, # of connection points: 2
#     Edge 82, Type (0, 1), BuildingBlock: ZUJKAS_clean_linker_0, # of connection points: 2
#     Edge 83, Type (0, 1), BuildingBlock: ZUJKAS_clean_linker_0, # of connection points: 2
#     Edge 84, Type (0, 1), BuildingBlock: ZUJKAS_clean_linker_0, # of connection points: 2
#     Edge 85, Type (0, 1), BuildingBlock: ZUJKAS_clean_linker_0, # of connection points: 2
#     Edge 86, Type (0, 1), BuildingBlock: ZUJKAS_clean_linker_0, # of connection points: 2
#     Edge 87, Type (0, 1), BuildingBlock: ZUJKAS_clean_linker_0, # of connection points: 2
#     Edge 88, Type (0, 1), BuildingBlock: ZUJKAS_clean_linker_0, # of connection points: 2
#     Edge 89, Type (0, 1), BuildingBlock: ZUJKAS_clean_linker_0, # of connection points: 2
#     Edge 90, Type (0, 1), BuildingBlock: ZUJKAS_clean_linker_0, # of connection points: 2
#     Edge 91, Type (0, 1), BuildingBlock: ZUJKAS_clean_linker_0, # of connection points: 2
#     Edge 92, Type (0, 1), BuildingBlock: ZUJKAS_clean_linker_0, # of connection points: 2
#     Edge 93, Type (0, 1), BuildingBlock: ZUJKAS_clean_linker_0, # of connection points: 2
#     Edge 94, Type (0, 1), BuildingBlock: ZUJKAS_clean_linker_0, # of connection points: 2
#     Edge 95, Type (0, 1), BuildingBlock: ZUJKAS_clean_linker_0, # of connection points: 2
#     Edge 96, Type (0, 1), BuildingBlock: ZUJKAS_clean_linker_0, # of connection points: 2
#     Edge 97, Type (0, 1), BuildingBlock: ZUJKAS_clean_linker_0, # of connection points: 2
#     Edge 98, Type (0, 1), BuildingBlock: ZUJKAS_clean_linker_0, # of connection points: 2
#     Edge 99, Type (0, 1), BuildingBlock: ZUJKAS_clean_linker_0, # of connection points: 2
#     Edge 100, Type (0, 1), BuildingBlock: ZUJKAS_clean_linker_0, # of connection points: 2
#     Edge 101, Type (0, 1), BuildingBlock: ZUJKAS_clean_linker_0, # of connection points: 2
#     Edge 102, Type (0, 1), BuildingBlock: ZUJKAS_clean_linker_0, # of connection points: 2
#     Edge 103, Type (0, 1), BuildingBlock: ZUJKAS_clean_linker_0, # of connection points: 2
#     Edge 104, Type (0, 1), BuildingBlock: ZUJKAS_clean_linker_0, # of connection points: 2
#     Edge 105, Type (0, 1), BuildingBlock: ZUJKAS_clean_linker_0, # of connection points: 2
#     Edge 106, Type (0, 1), BuildingBlock: ZUJKAS_clean_linker_0, # of connection points: 2
#     Edge 107, Type (0, 1), BuildingBlock: ZUJKAS_clean_linker_0, # of connection points: 2
#     Edge 108, Type (0, 1), BuildingBlock: ZUJKAS_clean_linker_0, # of connection points: 2
#     Edge 109, Type (0, 1), BuildingBlock: ZUJKAS_clean_linker_0, # of connection points: 2
#     Edge 110, Type (0, 1), BuildingBlock: ZUJKAS_clean_linker_0, # of connection points: 2
#     Edge 111, Type (0, 1), BuildingBlock: ZUJKAS_clean_linker_0, # of connection points: 2
#     Edge 112, Type (0, 1), BuildingBlock: ZUJKAS_clean_linker_0, # of connection points: 2
#     Edge 113, Type (0, 1), BuildingBlock: ZUJKAS_clean_linker_0, # of connection points: 2
#     Edge 114, Type (0, 1), BuildingBlock: ZUJKAS_clean_linker_0, # of connection points: 2
#     Edge 115, Type (0, 1), BuildingBlock: ZUJKAS_clean_linker_0, # of connection points: 2
#     Edge 116, Type (0, 1), BuildingBlock: ZUJKAS_clean_linker_0, # of connection points: 2
#     Edge 117, Type (0, 1), BuildingBlock: ZUJKAS_clean_linker_0, # of connection points: 2
#     Edge 118, Type (0, 1), BuildingBlock: ZUJKAS_clean_linker_0, # of connection points: 2
#     Edge 119, Type (0, 1), BuildingBlock: ZUJKAS_clean_linker_0, # of connection points: 2
#     Edge 120, Type (0, 1), BuildingBlock: ZUJKAS_clean_linker_0, # of connection points: 2
#     Edge 121, Type (0, 1), BuildingBlock: ZUJKAS_clean_linker_0, # of connection points: 2
#     Edge 122, Type (0, 1), BuildingBlock: ZUJKAS_clean_linker_0, # of connection points: 2
#     Edge 123, Type (0, 1), BuildingBlock: ZUJKAS_clean_linker_0, # of connection points: 2
#     Edge 124, Type (0, 1), BuildingBlock: ZUJKAS_clean_linker_0, # of connection points: 2
#     Edge 125, Type (0, 1), BuildingBlock: ZUJKAS_clean_linker_0, # of connection points: 2
#     Edge 126, Type (0, 1), BuildingBlock: ZUJKAS_clean_linker_0, # of connection points: 2
#     Edge 127, Type (0, 1), BuildingBlock: ZUJKAS_clean_linker_0, # of connection points: 2
#     Edge 128, Type (0, 1), BuildingBlock: ZUJKAS_clean_linker_0, # of connection points: 2
#     Edge 129, Type (0, 1), BuildingBlock: ZUJKAS_clean_linker_0, # of connection points: 2
#     Edge 130, Type (0, 1), BuildingBlock: ZUJKAS_clean_linker_0, # of connection points: 2
#     Edge 131, Type (0, 1), BuildingBlock: ZUJKAS_clean_linker_0, # of connection points: 2
#     Edge 132, Type (0, 1), BuildingBlock: ZUJKAS_clean_linker_0, # of connection points: 2
#     Edge 133, Type (0, 1), BuildingBlock: ZUJKAS_clean_linker_0, # of connection points: 2
#     Edge 134, Type (0, 1), BuildingBlock: ZUJKAS_clean_linker_0, # of connection points: 2
#     Edge 135, Type (0, 1), BuildingBlock: ZUJKAS_clean_linker_0, # of connection points: 2
# Relax obj value: 0.113
# Max RMSD: 0.306
# Mean RMSD: 0.147
data_MOF--net-gar--node1-CEKHIL_clean_sbu_0--node2-KUMBUR_clean_sbu_0--edge1-ZUJKAS_clean_linker_0
_symmetry_space_group_name_H-M    P1
_symmetry_Int_Tables_number       1
_symmetry_cell_setting            triclinic
loop_
_symmetry_equiv_pos_as_xyz
'x, y, z'
_cell_length_a     77.410875
_cell_length_b     72.106126
_cell_length_c     71.550028
_cell_angle_alpha  99.548556
_cell_angle_beta   93.203041
_cell_angle_gamma 101.88815
loop_
_atom_site_label
_atom_site_type_symbol
_atom_site_fract_x
_atom_site_fract_y
_atom_site_fract_z
_atom_type_partial_charge
Co0 Co 0.10065 0.31766 0.38918 0.0
O1 O 0.12545 0.31735 0.39058 0.0
O2 O 0.1055 0.30008 0.36752 0.0
C3 C 0.10406 0.34988 0.39575 0.0
O4 O 0.07418 0.31517 0.38247 0.0
Co5 Co 0.0839 0.33477 0.42485 0.0
O6 O 0.0637 0.33338 0.40595 0.0
C7 C 0.09366 0.29711 0.42265 0.0
C8 C 0.12199 0.30521 0.37459 0.0
C9 C 0.0619 0.32323 0.38929 0.0
O10 O 0.09603 0.29648 0.40487 0.0
O11 O 0.09052 0.31189 0.43336 0.0
O12 O 0.10516 0.34136 0.37851 0.0
O13 O 0.10275 0.33905 0.40845 0.0
Co14 Co 0.01295 0.77913 0.65953 0.0
O15 O 0.98778 0.77764 0.65681 0.0
O16 O 1.00298 0.77508 0.68307 0.0
C17 C 0.02084 0.80507 0.64551 0.0
O18 O 0.03879 0.7805 0.6681 0.0
Co19 Co 0.03469 0.77455 0.6243 0.0
O20 O 0.05557 0.7815 0.6435 0.0
C21 C 0.01087 0.74072 0.63408 0.0
C22 C 0.98781 0.77525 0.67441 0.0
C23 C 0.05391 0.78195 0.66119 0.0
O24 O 0.0091 0.75041 0.6504 0.0
O25 O 0.01874 0.74833 0.62104 0.0
O26 O 0.01755 0.80743 0.66327 0.0
O27 O 0.01784 0.78748 0.63672 0.0
Co28 Co 0.60265 0.8187 0.88551 0.0
O29 O 0.62731 0.81766 0.88692 0.0
O30 O 0.6074 0.80193 0.86317 0.0
C31 C 0.60684 0.85098 0.89384 0.0
O32 O 0.57637 0.8173 0.87862 0.0
Co33 Co 0.58574 0.83441 0.92168 0.0
O34 O 0.56612 0.83487 0.90278 0.0
C35 C 0.59511 0.79649 0.91763 0.0
C36 C 0.62384 0.80636 0.87043 0.0
C37 C 0.56434 0.82558 0.88573 0.0
O38 O 0.59713 0.79647 0.89986 0.0
O39 O 0.59245 0.81106 0.92907 0.0
O40 O 0.60818 0.84326 0.87637 0.0
O41 O 0.60487 0.83925 0.90572 0.0
Co42 Co 0.50338 0.26741 0.154 0.0
O43 O 0.47797 0.26399 0.15352 0.0
O44 O 0.49579 0.26398 0.17879 0.0
C45 C 0.50771 0.29253 0.13823 0.0
O46 O 0.53003 0.27105 0.16033 0.0
Co47 Co 0.52226 0.26278 0.11671 0.0
O48 O 0.54441 0.27265 0.134 0.0
C49 C 0.50241 0.22847 0.12988 0.0
C50 C 0.47974 0.26253 0.17135 0.0
C51 C 0.54443 0.27361 0.15196 0.0
O52 O 0.50101 0.23871 0.14605 0.0
O53 O 0.50867 0.23571 0.11584 0.0
O54 O 0.50605 0.29549 0.15642 0.0
O55 O 0.50537 0.27474 0.13023 0.0
Co56 Co 0.08182 0.81789 0.12603 0.0
O57 O 0.0559 0.814 0.12242 0.0
O58 O 0.07067 0.81159 0.14865 0.0
C59 C 0.0865 0.84645 0.1134 0.0
O60 O 0.10797 0.82125 0.13766 0.0
Co61 Co 0.10702 0.81865 0.09655 0.0
O62 O 0.12749 0.82522 0.11619 0.0
C63 C 0.08736 0.78036 0.10147 0.0
C64 C 0.05542 0.81099 0.13982 0.0
C65 C 0.12419 0.82408 0.1332 0.0
O66 O 0.0802 0.78905 0.11534 0.0
O67 O 0.09812 0.78978 0.09166 0.0
O68 O 0.08375 0.84609 0.13109 0.0
O69 O 0.08658 0.82961 0.10352 0.0
Co70 Co 0.52733 0.77132 0.41794 0.0
O71 O 0.55321 0.77555 0.42064 0.0
O72 O 0.53651 0.76135 0.39428 0.0
C73 C 0.52638 0.80239 0.43187 0.0
O74 O 0.50054 0.76607 0.40781 0.0
Co75 Co 0.50458 0.77353 0.45059 0.0
O76 O 0.486 0.77702 0.43189 0.0
C77 C 0.52098 0.73977 0.4434 0.0
C78 C 0.55241 0.76781 0.40279 0.0
C79 C 0.48665 0.77153 0.41413 0.0
O80 O 0.52546 0.74514 0.42751 0.0
O81 O 0.51334 0.75002 0.45524 0.0
O82 O 0.52924 0.79802 0.41415 0.0
O83 O 0.52531 0.78822 0.44114 0.0
Co84 Co 0.5802 0.3127 0.62287 0.0
O85 O 0.55432 0.30893 0.61947 0.0
O86 O 0.56922 0.30624 0.64552 0.0
C87 C 0.58488 0.34136 0.61041 0.0
O88 O 0.60636 0.31582 0.63411 0.0
Co89 Co 0.60485 0.31346 0.59256 0.0
O90 O 0.62538 0.31791 0.61191 0.0
C91 C 0.58395 0.27546 0.59663 0.0
C92 C 0.55394 0.3058 0.63682 0.0
C93 C 0.62235 0.31738 0.62912 0.0
O94 O 0.57857 0.28391 0.61196 0.0
O95 O 0.59353 0.28511 0.586 0.0
O96 O 0.5822 0.34094 0.62811 0.0
O97 O 0.58478 0.32453 0.60047 0.0
Co98 Co 0.02927 0.27597 0.91829 0.0
O99 O 0.05518 0.28058 0.92147 0.0
O100 O 0.03888 0.26675 0.89473 0.0
C101 C 0.02763 0.30663 0.93284 0.0
O102 O 1.00271 0.27037 0.90741 0.0
Co103 Co 1.00546 0.27623 0.94976 0.0
O104 O 0.98708 0.2799 0.93103 0.0
C105 C 0.02126 0.24234 0.94139 0.0
C106 C 0.05465 0.27316 0.90355 0.0
C107 C 0.98837 0.27502 0.91333 0.0
O108 O 0.02761 0.24948 0.92701 0.0
O109 O 0.01222 0.25121 0.95279 0.0
O110 O 0.03087 0.30276 0.91518 0.0
O111 O 0.0265 0.29218 0.94179 0.0
Co112 Co 0.42515 0.06044 0.29488 0.0
O113 O 0.42986 0.08636 0.28986 0.0
O114 O 0.40373 0.06596 0.28408 0.0
C115 C 0.44002 0.06787 0.32413 0.0
O116 O 0.41488 0.03303 0.29868 0.0
Co117 Co 0.45563 0.03947 0.30205 0.0
O118 O 0.43645 0.01908 0.30815 0.0
C119 C 0.44624 0.04626 0.26361 0.0
C120 C 0.41325 0.08296 0.28356 0.0
C121 C 0.42011 0.01889 0.30439 0.0
O122 O 0.43165 0.05055 0.26872 0.0
O123 O 0.4583 0.04363 0.27525 0.0
O124 O 0.4238 0.07009 0.32204 0.0
O125 O 0.4468 0.06262 0.30865 0.0
Co126 Co 0.29773 0.17866 0.50315 0.0
O127 O 0.32345 0.18215 0.50687 0.0
O128 O 0.30426 0.15641 0.5112 0.0
C129 C 0.29714 0.18867 0.47432 0.0
O130 O 0.27072 0.16832 0.50019 0.0
Co131 Co 0.27805 0.2111 0.49984 0.0
O132 O 0.25613 0.19053 0.49339 0.0
C133 C 0.29342 0.20808 0.53782 0.0
C134 C 0.32073 0.165 0.51113 0.0
C135 C 0.25621 0.17346 0.49588 0.0
O136 O 0.29702 0.19173 0.53073 0.0
O137 O 0.28723 0.21854 0.52747 0.0
O138 O 0.29838 0.17119 0.47548 0.0
O139 O 0.2973 0.19979 0.49051 0.0
Co140 Co 0.1757 0.00683 0.77209 0.0
O141 O 0.17321 0.97758 0.76959 0.0
O142 O 0.19742 0.99608 0.76536 0.0
C143 C 0.16246 0.01139 0.80243 0.0
O144 O 0.18722 0.03692 0.77446 0.0
Co145 Co 0.14757 0.0308 0.77496 0.0
O146 O 0.16666 0.05455 0.77902 0.0
C147 C 0.15146 0.01174 0.73577 0.0
C148 C 0.18979 0.97855 0.76652 0.0
C149 C 0.18274 0.05366 0.77712 0.0
O150 O 0.16514 1.00562 0.74281 0.0
O151 O 0.14227 0.02067 0.74692 0.0
O152 O 0.17862 0.00913 0.80106 0.0
O153 O 0.15456 0.01008 0.7857 0.0
Co154 Co 0.30507 0.9441 0.00849 0.0
O155 O 0.28151 0.94645 0.01399 0.0
O156 O 0.30521 0.97049 0.01944 0.0
C157 C 0.29746 0.92625 0.97914 0.0
O158 O 0.33117 0.94755 0.00401 0.0
Co159 Co 0.31547 0.90418 1.00033 0.0
O160 O 0.33772 0.91907 0.99275 0.0
C161 C 0.30964 0.92125 0.03929 0.0
C162 C 0.28823 0.96466 0.02003 0.0
C163 C 0.34193 0.93742 0.99699 0.0
O164 O 0.30987 0.93771 0.03444 0.0
O165 O 0.30966 0.90588 0.02742 0.0
O166 O 0.29948 0.94488 0.98158 0.0
O167 O 0.29863 0.91919 0.99441 0.0
Co168 Co 0.30531 0.39782 0.02872 0.0
O169 O 0.27959 0.39447 0.02719 0.0
O170 O 0.29849 0.42133 0.04027 0.0
C171 C 0.3063 0.38418 0.99765 0.0
O172 O 0.33239 0.4082 0.03195 0.0
Co173 Co 0.325 0.36454 0.0213 0.0
O174 O 0.34585 0.38503 0.01918 0.0
C175 C 0.30954 0.3722 0.0582 0.0
C176 C 0.28209 0.4125 0.03513 0.0
C177 C 0.34631 0.40258 0.02619 0.0
O178 O 0.30565 0.38779 0.05402 0.0
O179 O 0.31605 0.36068 0.04643 0.0
O180 O 0.30497 0.402 0.00222 0.0
O181 O 0.30591 0.37492 0.01164 0.0
Co182 Co 0.79435 0.15084 0.00554 0.0
O183 O 0.81984 0.15691 0.00496 0.0
O184 O 0.80455 0.13111 0.01422 0.0
C185 C 0.78789 0.15729 0.97636 0.0
O186 O 0.76829 0.13888 0.00756 0.0
Co187 Co 0.77068 0.18062 0.00249 0.0
O188 O 0.75096 0.15757 0.9978 0.0
C189 C 0.79077 0.18115 0.03925 0.0
C190 C 0.81982 0.14083 0.01092 0.0
C191 C 0.75297 0.14197 0.00282 0.0
O192 O 0.79649 0.16607 0.03238 0.0
O193 O 0.78131 0.18935 0.02942 0.0
O194 O 0.79156 0.14079 0.97795 0.0
O195 O 0.78945 0.16954 0.99198 0.0
Co196 Co 0.17695 0.54107 0.2695 0.0
O197 O 0.17011 0.51357 0.2684 0.0
O198 O 0.19452 0.52876 0.25794 0.0
C199 C 0.17094 0.54912 0.2999 0.0
O200 O 0.18948 0.56877 0.26898 0.0
Co201 Co 0.15181 0.56924 0.27738 0.0
O202 O 0.17427 0.58892 0.28441 0.0
C203 C 0.14956 0.54488 0.23915 0.0
C204 C 0.18495 0.5127 0.261 0.0
C205 C 0.18826 0.58563 0.27727 0.0
O206 O 0.16333 0.53867 0.24395 0.0
O207 O 0.14259 0.55617 0.25068 0.0
O208 O 0.18585 0.54427 0.29631 0.0
O209 O 0.15994 0.54787 0.2853 0.0
Co210 Co 0.80461 0.89632 0.52925 0.0
O211 O 0.77888 0.89288 0.52698 0.0
O212 O 0.79751 0.91988 0.54019 0.0
C213 C 0.80639 0.88248 0.49843 0.0
O214 O 0.83169 0.90669 0.53311 0.0
Co215 Co 0.82403 0.86277 0.52331 0.0
O216 O 0.84566 0.88301 0.52314 0.0
C217 C 0.80679 0.87044 0.55889 0.0
C218 C 0.7812 0.91094 0.53472 0.0
C219 C 0.84592 0.90074 0.52909 0.0
O220 O 0.80422 0.88656 0.55472 0.0
O221 O 0.81303 0.85844 0.54737 0.0
O222 O 0.80497 0.90029 0.50273 0.0
O223 O 0.80553 0.87329 0.5125 0.0
Co224 Co 0.93034 0.07054 0.27538 0.0
O225 O 0.93279 0.09983 0.27912 0.0
O226 O 0.90829 0.08011 0.26844 0.0
C227 C 0.94509 0.06848 0.30573 0.0
O228 O 0.91901 0.04028 0.27098 0.0
Co229 Co 0.95906 0.04724 0.2736 0.0
O230 O 0.94038 0.02469 0.27668 0.0
C231 C 0.95225 0.06271 0.23881 0.0
C232 C 0.91613 0.09815 0.27347 0.0
C233 C 0.92399 0.0245 0.27348 0.0
O234 O 0.93909 0.06906 0.24701 0.0
O235 O 0.96226 0.05435 0.24773 0.0
O236 O 0.92902 0.07127 0.30388 0.0
O237 O 0.95223 0.06865 0.28978 0.0
Co238 Co 0.29982 0.64291 0.51263 0.0
O239 O 0.32411 0.64092 0.51114 0.0
O240 O 0.3032 0.61918 0.52014 0.0
C241 C 0.29604 0.65184 0.4842 0.0
O242 O 0.27329 0.63972 0.51513 0.0
Co243 Co 0.28912 0.68235 0.51224 0.0
O244 O 0.2646 0.66652 0.50996 0.0
C245 C 0.30824 0.67571 0.54644 0.0
C246 C 0.31963 0.62446 0.51662 0.0
C247 C 0.26115 0.64921 0.51287 0.0
O248 O 0.30552 0.6575 0.53975 0.0
O249 O 0.30464 0.68804 0.5367 0.0
O250 O 0.29459 0.63371 0.48503 0.0
O251 O 0.30132 0.66363 0.5 0.0
Co252 Co 0.43205 0.57111 0.77574 0.0
O253 O 0.43465 0.60041 0.7795 0.0
O254 O 0.41005 0.58086 0.76889 0.0
C255 C 0.44684 0.56894 0.80604 0.0
O256 O 0.4207 0.54085 0.77129 0.0
Co257 Co 0.46092 0.54786 0.77396 0.0
O258 O 0.44214 0.52519 0.77659 0.0
C259 C 0.45445 0.56395 0.7395 0.0
C260 C 0.418 0.59887 0.7739 0.0
C261 C 0.42572 0.52501 0.77354 0.0
O262 O 0.44084 0.56963 0.74739 0.0
O263 O 0.46475 0.55611 0.74867 0.0
O264 O 0.43077 0.57177 0.80428 0.0
O265 O 0.45391 0.56915 0.79008 0.0
Co266 Co 0.68143 0.03871 0.76077 0.0
O267 O 0.68161 0.01254 0.76315 0.0
O268 O 0.70244 0.03183 0.75108 0.0
C269 C 0.67401 0.04822 0.79022 0.0
O270 O 0.68658 0.06661 0.75701 0.0
Co271 Co 0.64722 0.05491 0.76389 0.0
O272 O 0.66381 0.08022 0.7652 0.0
C273 C 0.65094 0.02723 0.72992 0.0
C274 C 0.69678 0.0152 0.75596 0.0
C275 C 0.6796 0.08141 0.76053 0.0
O276 O 0.66762 0.02955 0.7349 0.0
O277 O 0.64032 0.03443 0.74055 0.0
O278 O 0.69039 0.04768 0.7876 0.0
O279 O 0.66272 0.04133 0.77551 0.0
Co280 Co 0.79842 0.68009 0.00332 0.0
O281 O 0.82416 0.68391 0.007 0.0
O282 O 0.80527 0.658 0.01142 0.0
C283 C 0.79774 0.69013 0.9745 0.0
O284 O 0.77145 0.6694 1.00028 0.0
Co285 Co 0.77835 0.7122 1.00007 0.0
O286 O 0.75662 0.6914 0.99345 0.0
C287 C 0.79374 0.70926 0.03805 0.0
C288 C 0.82168 0.66678 0.01128 0.0
C289 C 0.75687 0.67435 0.99589 0.0
O290 O 0.79757 0.69305 0.03091 0.0
O291 O 0.78741 0.71966 0.02774 0.0
O292 O 0.79917 0.6727 0.97567 0.0
O293 O 0.79775 0.7012 0.99069 0.0
Co294 Co 0.93347 0.55208 0.78673 0.0
O295 O 0.9353 0.57892 0.78504 0.0
O296 O 0.91139 0.55563 0.77573 0.0
C297 C 0.94634 0.55727 0.81682 0.0
O298 O 0.9256 0.52334 0.78673 0.0
Co299 Co 0.96571 0.53375 0.79333 0.0
O300 O 0.94788 0.51077 0.79676 0.0
C301 C 0.95768 0.54426 0.75603 0.0
C302 C 0.91884 0.57381 0.77788 0.0
C303 C 0.93155 0.50928 0.79162 0.0
O304 O 0.94241 0.54692 0.76072 0.0
O305 O 0.9693 0.54082 0.76766 0.0
O306 O 0.92973 0.55776 0.81382 0.0
O307 O 0.95474 0.55509 0.80184 0.0
Co308 Co 0.80866 0.42989 0.52127 0.0
O309 O 0.78417 0.42926 0.52577 0.0
O310 O 0.80594 0.4553 0.53225 0.0
C311 C 0.80326 0.41227 0.49152 0.0
O312 O 0.8351 0.43693 0.51804 0.0
Co313 Co 0.82447 0.39334 0.51293 0.0
O314 O 0.84465 0.41088 0.50472 0.0
C315 C 0.81922 0.40956 0.55261 0.0
C316 C 0.78916 0.44772 0.53201 0.0
C317 C 0.84706 0.42901 0.51031 0.0
O318 O 0.81375 0.42378 0.54737 0.0
O319 O 0.82326 0.39588 0.54106 0.0
O320 O 0.80318 0.43053 0.49433 0.0
O321 O 0.80515 0.4051 0.50667 0.0
Co322 Co 0.67536 0.50623 0.27225 0.0
O323 O 0.67279 0.47705 0.26977 0.0
O324 O 0.69708 0.4955 0.26557 0.0
C325 C 0.66225 0.51057 0.30259 0.0
O326 O 0.68673 0.53632 0.27458 0.0
Co327 Co 0.6471 0.52976 0.27518 0.0
O328 O 0.66598 0.55368 0.27908 0.0
C329 C 0.65115 0.51104 0.23597 0.0
C330 C 0.68936 0.478 0.26672 0.0
C331 C 0.68209 0.55296 0.27718 0.0
O332 O 0.66483 0.50494 0.24301 0.0
O333 O 0.64189 0.51985 0.24711 0.0
O334 O 0.67852 0.50875 0.30117 0.0
O335 O 0.65417 0.50907 0.2859 0.0
Tb336 Tb 0.0344 0.02542 0.00773 0.0
C337 C 0.07774 0.09739 0.05763 0.0
C338 C 0.08236 0.12108 0.03717 0.0
C339 C 0.08146 0.13139 0.07111 0.0
C340 C 0.07904 0.10171 0.03973 0.0
C341 C 0.07949 0.11219 0.07367 0.0
C342 C 0.08292 0.13584 0.05285 0.0
C343 C 0.07981 0.08833 0.09358 0.0
N344 N 0.07645 0.07878 0.05946 0.0
C345 C 0.07831 0.07423 0.07724 0.0
C346 C 0.08009 0.10736 0.09179 0.0
Tb347 Tb 0.07324 0.05626 0.03184 0.0
N348 N 0.07873 0.08703 0.02509 0.0
C349 C 0.08341 0.0911 0.00778 0.0
C350 C 0.08587 0.12509 0.01914 0.0
C351 C 0.08674 0.11005 0.00447 0.0
H352 H 0.07802 0.05957 0.0789 0.0
H353 H 0.08989 0.113 0.99056 0.0
H354 H 0.08519 0.15077 0.05113 0.0
H355 H 0.08074 0.08449 0.10754 0.0
H356 H 0.08405 0.07983 0.99611 0.0
H357 H 0.01872 0.96576 0.04565 0.0
H358 H 0.08849 0.13976 0.01655 0.0
H359 H 0.02639 0.02385 0.96029 0.0
H360 H 0.02328 0.99945 0.04208 0.0
H361 H 0.02434 1.00011 0.93105 0.0
H362 H 0.08261 0.14295 0.08321 0.0
H363 H 0.02136 0.94076 0.01846 0.0
H364 H 0.02577 0.93199 0.9841 0.0
H365 H 0.08141 0.11829 0.10447 0.0
H366 H 0.02739 0.94143 0.95269 0.0
N367 N 0.03002 0.99443 0.01335 0.0
C368 C 0.02493 0.98907 0.03006 0.0
C369 C 0.02387 0.95574 0.01691 0.0
C370 C 0.02752 0.961 0.99939 0.0
C371 C 0.02219 0.96978 0.03221 0.0
C372 C 0.03012 0.98064 0.99789 0.0
H373 H 0.02629 0.96666 0.93274 0.0
N374 N 0.03073 1.00454 0.97894 0.0
C375 C 0.02629 0.99597 0.94475 0.0
C376 C 0.03058 0.98588 0.98011 0.0
C377 C 0.02755 0.00945 0.9615 0.0
C378 C 0.02746 0.97712 0.94576 0.0
C379 C 0.02909 0.97172 0.96355 0.0
O380 O 0.01412 0.04103 0.01208 0.0
O381 O 0.04857 0.05539 0.01552 0.0
O382 O 0.05122 0.06041 0.05044 0.0
O383 O 0.03112 0.03151 0.0393 0.0
O384 O 0.03617 0.04633 0.98857 0.0
O385 O 0.00767 0.01057 0.00251 0.0
O386 O 0.09526 0.05164 0.04764 0.0
O387 O 0.05933 0.02593 0.02347 0.0
O388 O 0.05505 0.02264 0.98695 0.0
O389 O 0.07835 0.04777 1.00094 0.0
O390 O 0.07199 0.03455 0.05014 0.0
O391 O 0.09801 0.06057 0.0206 0.0
C392 C 0.04543 0.06121 0.99995 0.0
C393 C 0.98748 0.02826 0.99207 0.0
C394 C 0.96153 0.04138 0.98503 0.0
C395 C 0.97544 0.03983 0.99791 0.0
C396 C 0.96025 0.03164 0.96608 0.0
C397 C 0.98551 0.01828 0.9732 0.0
C398 C 0.97213 0.02018 0.96027 0.0
C399 C 0.03694 0.04723 0.05278 0.0
C400 C 1.00146 0.02606 0.00598 0.0
C401 C 0.02828 0.95245 0.96522 0.0
C402 C 0.0274 0.94707 0.98312 0.0
C403 C 0.0629 0.01975 0.03873 0.0
C404 C 0.12319 0.06967 0.04291 0.0
C405 C 0.13862 0.0624 0.04193 0.0
C406 C 0.15528 0.07427 0.04899 0.0
C407 C 0.15621 0.09361 0.05724 0.0
C408 C 0.12435 0.089 0.05105 0.0
C409 C 0.14082 0.10089 0.05821 0.0
C410 C 0.07093 0.03392 0.98612 0.0
C411 C 0.10617 0.05666 0.03533 0.0
H412 H 0.9766 0.04714 0.01259 0.0
H413 H 0.95 0.03283 0.95569 0.0
H414 H 0.9941 0.00878 0.96846 0.0
H415 H 0.97083 0.01256 0.94572 0.0
H416 H 0.13758 0.04735 0.03584 0.0
H417 H 0.16885 0.10315 0.06267 0.0
H418 H 0.11262 0.09489 0.05187 0.0
H419 H 0.14166 0.11582 0.06449 0.0
Tb420 Tb 0.31568 0.79346 0.25485 0.0
C421 C 0.27407 0.83894 0.30948 0.0
C422 C 0.29586 0.86539 0.32806 0.0
C423 C 0.26552 0.86877 0.32238 0.0
C424 C 0.29127 0.84666 0.31704 0.0
C425 C 0.26085 0.84968 0.31245 0.0
C426 C 0.28302 0.87662 0.33021 0.0
C427 C 0.23913 0.82118 0.29767 0.0
N428 N 0.27007 0.82035 0.3004 0.0
C429 C 0.25271 0.8111 0.29526 0.0
C430 C 0.24324 0.84066 0.30604 0.0
Tb431 Tb 0.29325 0.80506 0.29657 0.0
N432 N 0.30317 0.83523 0.31485 0.0
C433 C 0.31957 0.8412 0.32477 0.0
C434 C 0.31296 0.87194 0.33727 0.0
C435 C 0.32478 0.85967 0.33584 0.0
H436 H 0.24927 0.79606 0.28878 0.0
H437 H 0.33793 0.86441 0.34327 0.0
H438 H 0.28635 0.89112 0.33842 0.0
H439 H 0.22551 0.81391 0.29309 0.0
H440 H 0.32896 0.83202 0.32391 0.0
H441 H 0.27035 0.73126 0.21287 0.0
H442 H 0.31694 0.88617 0.346 0.0
H443 H 0.3598 0.80355 0.26008 0.0
H444 H 0.27972 0.76492 0.22931 0.0
H445 H 0.38382 0.78602 0.25589 0.0
H446 H 0.2556 0.87734 0.32465 0.0
H447 H 0.2914 0.70961 0.21177 0.0
H448 H 0.3226 0.70574 0.21854 0.0
H449 H 0.23269 0.84841 0.30802 0.0
H450 H 0.35373 0.7208 0.23008 0.0
N451 N 0.30577 0.7625 0.23829 0.0
C452 C 0.28915 0.75579 0.229 0.0
C453 C 0.2956 0.72442 0.21911 0.0
C454 C 0.31302 0.73179 0.22726 0.0
C455 C 0.28372 0.73662 0.21963 0.0
C456 C 0.31775 0.75116 0.23669 0.0
H457 H 0.37678 0.7509 0.2436 0.0
N458 N 0.33908 0.77855 0.2508 0.0
C459 C 0.37016 0.77835 0.25235 0.0
C460 C 0.33512 0.75953 0.2431 0.0
C461 C 0.35644 0.78825 0.25471 0.0
C462 C 0.36614 0.75852 0.24547 0.0
C463 C 0.34845 0.74891 0.2404 0.0
O464 O 0.33107 0.81389 0.24132 0.0
O465 O 0.31028 0.81576 0.27639 0.0
O466 O 0.2804 0.81624 0.27372 0.0
O467 O 0.28834 0.79741 0.24715 0.0
O468 O 0.33562 0.8188 0.26868 0.0
O469 O 0.30791 0.79402 0.22629 0.0
O470 O 0.27667 0.78429 0.30875 0.0
O471 O 0.29894 0.78274 0.27529 0.0
O472 O 0.32932 0.78309 0.27761 0.0
O473 O 0.32054 0.80081 0.30445 0.0
O474 O 0.27337 0.78021 0.28178 0.0
O475 O 0.29994 0.8028 0.32493 0.0
C476 C 0.32549 0.82675 0.27946 0.0
C477 C 0.33072 0.80646 0.20817 0.0
C478 C 0.33998 0.82037 0.18065 0.0
C479 C 0.33007 0.82001 0.19644 0.0
C480 C 0.35063 0.80688 0.17665 0.0
C481 C 0.34115 0.79282 0.20396 0.0
C482 C 0.35107 0.79306 0.18821 0.0
C483 C 0.27801 0.80859 0.25524 0.0
C484 C 0.32125 0.808 0.22528 0.0
C485 C 0.34372 0.72929 0.23208 0.0
C486 C 0.326 0.72072 0.22554 0.0
C487 C 0.28373 0.77184 0.27172 0.0
C488 C 0.27585 0.79064 0.34171 0.0
C489 C 0.27122 0.77427 0.34998 0.0
C490 C 0.26112 0.77446 0.36566 0.0
C491 C 0.25566 0.79144 0.37301 0.0
C492 C 0.27025 0.80746 0.34902 0.0
C493 C 0.26017 0.80781 0.36465 0.0
C494 C 0.33125 0.79016 0.29619 0.0
C495 C 0.28601 0.78921 0.32509 0.0
H496 H 0.32214 0.83068 0.19991 0.0
H497 H 0.35839 0.80688 0.16452 0.0
H498 H 0.34179 0.78222 0.21289 0.0
H499 H 0.3592 0.7826 0.18502 0.0
H500 H 0.27582 0.7614 0.34434 0.0
H501 H 0.24788 0.79202 0.38513 0.0
H502 H 0.27364 0.82022 0.3427 0.0
H503 H 0.25586 0.82081 0.37032 0.0
Tb504 Tb 0.57196 0.04167 0.51417 0.0
C505 C 0.51092 0.99925 0.55357 0.0
C506 C 0.49699 0.97119 0.53013 0.0
C507 C 0.4958 0.97013 0.56381 0.0
C508 C 0.50697 0.99032 0.53485 0.0
C509 C 0.50503 0.98947 0.56832 0.0
C510 C 0.49181 0.96098 0.54473 0.0
C511 C 0.51642 0.01911 0.59061 0.0
N512 N 0.51973 0.01795 0.55724 0.0
C513 C 0.52201 0.02817 0.57547 0.0
C514 C 0.50812 0.9996 0.58706 0.0
Tb515 Tb 0.52866 0.03152 0.53155 0.0
N516 N 0.51199 1.00081 0.52124 0.0
C517 C 0.50615 0.9934 0.50255 0.0
C518 C 0.49203 0.96315 0.51094 0.0
C519 C 0.49639 0.97443 0.49711 0.0
H520 H 0.52843 0.04323 0.57854 0.0
H521 H 0.49229 0.96852 0.48224 0.0
H522 H 0.48428 0.94622 0.54141 0.0
H523 H 0.51857 0.02719 0.60502 0.0
H524 H 0.50939 1.00178 0.49158 0.0
H525 H 0.60856 0.10285 0.56554 0.0
H526 H 0.48442 0.94849 0.5067 0.0
H527 H 0.57107 0.03236 0.46707 0.0
H528 H 0.59151 0.0697 0.55493 0.0
H529 H 0.58002 0.05009 0.4413 0.0
H530 H 0.4913 0.96229 0.57494 0.0
H531 H 0.61603 0.12429 0.54217 0.0
H532 H 0.6156 0.12837 0.50789 0.0
H533 H 0.50377 0.99263 0.5988 0.0
H534 H 0.60793 0.11394 0.47397 0.0
N535 N 0.58865 0.07213 0.52564 0.0
C536 C 0.59461 0.0787 0.54443 0.0
C537 C 0.6085 0.10967 0.53737 0.0
C538 C 0.60334 0.1025 0.51804 0.0
C539 C 0.60434 0.0976 0.55058 0.0
C540 C 0.59345 0.08341 0.51259 0.0
H541 H 0.59488 0.08463 0.44897 0.0
N542 N 0.58041 0.0567 0.48923 0.0
C543 C 0.58262 0.05741 0.45598 0.0
C544 C 0.58918 0.07538 0.49366 0.0
C545 C 0.57762 0.04739 0.47066 0.0
C546 C 0.59096 0.07692 0.46036 0.0
C547 C 0.59458 0.08609 0.47942 0.0
O548 O 0.58743 0.02346 0.50045 0.0
O549 O 0.54923 0.01953 0.51763 0.0
O550 O 0.54598 0.01965 0.54937 0.0
O551 O 0.57308 0.03835 0.54422 0.0
O552 O 0.56096 0.01557 0.49299 0.0
O553 O 0.59515 0.03858 0.52903 0.0
O554 O 0.51458 0.05207 0.5434 0.0
O555 O 0.55144 0.05362 0.52794 0.0
O556 O 0.55407 0.05341 0.49678 0.0
O557 O 0.52752 0.03345 0.50124 0.0
O558 O 0.54014 0.05749 0.55276 0.0
O559 O 0.5045 0.03297 0.51713 0.0
C560 C 0.54864 0.00763 0.50224 0.0
C561 C 0.61815 0.03052 0.51102 0.0
C562 C 0.64737 0.02199 0.51251 0.0
C563 C 0.62916 0.01817 0.51567 0.0
C564 C 0.65412 0.03818 0.50437 0.0
C565 C 0.62537 0.04652 0.50302 0.0
C566 C 0.64322 0.05026 0.49967 0.0
C567 C 0.56327 0.02637 0.55367 0.0
C568 C 0.59928 0.02689 0.51497 0.0
C569 C 0.60379 0.10539 0.48469 0.0
C570 C 0.60815 0.1136 0.504 0.0
C571 C 0.55236 0.06546 0.54342 0.0
C572 C 0.48352 0.04505 0.53598 0.0
C573 C 0.47315 0.05826 0.53208 0.0
C574 C 0.45633 0.05748 0.53907 0.0
C575 C 0.45 0.04318 0.5497 0.0
C576 C 0.47673 0.03082 0.54642 0.0
C577 C 0.46006 0.02989 0.55319 0.0
C578 C 0.537 0.04575 0.49192 0.0
C579 C 0.50167 0.04682 0.52991 0.0
H580 H 0.62365 0.00588 0.52203 0.0
H581 H 0.66788 0.04144 0.5014 0.0
H582 H 0.61723 0.05615 0.49938 0.0
H583 H 0.64867 0.06262 0.49341 0.0
H584 H 0.47832 0.06936 0.52408 0.0
H585 H 0.43715 0.0422 0.5552 0.0
H586 H 0.48437 0.02054 0.54951 0.0
H587 H 0.45497 0.0189 0.56132 0.0
Tb588 Tb 0.28318 0.29408 0.76678 0.0
C589 C 0.3392 0.26056 0.8055 0.0
C590 C 0.3502 0.2841 0.83398 0.0
C591 C 0.35029 0.25039 0.83373 0.0
C592 C 0.3423 0.27922 0.81506 0.0
C593 C 0.34374 0.24598 0.81443 0.0
C594 C 0.35352 0.26947 0.84351 0.0
C595 C 0.33763 0.22468 0.78391 0.0
N596 N 0.3334 0.25714 0.7868 0.0
C597 C 0.33337 0.23968 0.77572 0.0
C598 C 0.34248 0.22772 0.80345 0.0
Tb599 Tb 0.32596 0.28227 0.77451 0.0
N600 N 0.33935 0.29288 0.8051 0.0
C601 C 0.34587 0.31194 0.81272 0.0
C602 C 0.35548 0.30356 0.84232 0.0
C603 C 0.35363 0.31755 0.8315 0.0
H604 H 0.32956 0.23707 0.76062 0.0
H605 H 0.35818 0.33268 0.8376 0.0
H606 H 0.35933 0.27289 0.85814 0.0
H607 H 0.33711 0.21078 0.77516 0.0
H608 H 0.3446 0.32306 0.80473 0.0
H609 H 0.25164 0.24183 0.70459 0.0
H610 H 0.36172 0.30792 0.85676 0.0
H611 H 0.27958 0.33944 0.77905 0.0
H612 H 0.26475 0.25248 0.73756 0.0
H613 H 0.27218 0.36513 0.76336 0.0
H614 H 0.35364 0.23935 0.84094 0.0
H615 H 0.24841 0.26577 0.68432 0.0
H616 H 0.25046 0.30058 0.68186 0.0
H617 H 0.34588 0.21612 0.80974 0.0
H618 H 0.25597 0.33447 0.69804 0.0
N619 N 0.26982 0.28249 0.73627 0.0
C620 C 0.2635 0.26328 0.72914 0.0
C621 C 0.25427 0.27061 0.69888 0.0
C622 C 0.25929 0.29023 0.70672 0.0
C623 C 0.256 0.25707 0.7103 0.0
C624 C 0.26693 0.2957 0.72572 0.0
H625 H 0.26356 0.35863 0.72867 0.0
N626 N 0.2757 0.31859 0.75343 0.0
C627 C 0.27162 0.35099 0.75508 0.0
C628 C 0.27001 0.31456 0.73469 0.0
C629 C 0.27576 0.33634 0.76392 0.0
C630 C 0.26686 0.3473 0.73549 0.0
C631 C 0.26559 0.32876 0.7251 0.0
O632 O 0.26646 0.30422 0.78671 0.0
O633 O 0.3038 0.29152 0.78755 0.0
O634 O 0.30629 0.25775 0.78202 0.0
O635 O 0.27987 0.26269 0.76828 0.0
O636 O 0.29226 0.31488 0.79279 0.0
O637 O 0.25858 0.27614 0.76978 0.0
O638 O 0.34213 0.27305 0.7535 0.0
O639 O 0.30541 0.28509 0.75376 0.0
O640 O 0.30308 0.31872 0.7597 0.0
O641 O 0.32935 0.31385 0.77386 0.0
O642 O 0.31655 0.26152 0.7485 0.0
O643 O 0.35107 0.2998 0.77254 0.0
C644 C 0.30372 0.30662 0.79955 0.0
C645 C 0.2355 0.29163 0.77967 0.0
C646 C 0.20537 0.29006 0.78998 0.0
C647 C 0.22306 0.28787 0.79322 0.0
C648 C 0.20067 0.29648 0.77325 0.0
C649 C 0.23018 0.29783 0.76317 0.0
C650 C 0.21294 0.30032 0.76006 0.0
C651 C 0.28904 0.25158 0.77601 0.0
C652 C 0.2539 0.28879 0.7825 0.0
C653 C 0.25921 0.32373 0.70576 0.0
C654 C 0.25608 0.30445 0.69655 0.0
C655 C 0.30529 0.26999 0.74169 0.0
C656 C 0.37322 0.28372 0.76071 0.0
C657 C 0.38506 0.28624 0.74638 0.0
C658 C 0.40205 0.28178 0.74822 0.0
C659 C 0.40691 0.27511 0.76474 0.0
C660 C 0.37865 0.27708 0.77691 0.0
C661 C 0.39535 0.27283 0.77889 0.0
C662 C 0.32024 0.325 0.76612 0.0
C663 C 0.35522 0.28781 0.75875 0.0
H664 H 0.22703 0.28292 0.80595 0.0
H665 H 0.18744 0.29871 0.77038 0.0
H666 H 0.23934 0.3007 0.75261 0.0
H667 H 0.20902 0.30521 0.74728 0.0
H668 H 0.38095 0.29133 0.73379 0.0
H669 H 0.41985 0.27186 0.76689 0.0
H670 H 0.36998 0.27521 0.7881 0.0
H671 H 0.39939 0.26776 0.79151 0.0
Tb672 Tb 0.04741 0.05806 0.53013 0.0
C673 C 0.07496 0.00604 0.46844 0.0
C674 C 0.05289 1.00053 0.44165 0.0
C675 C 0.0833 0.99912 0.43615 0.0
C676 C 0.05782 1.0052 0.46145 0.0
C677 C 0.08784 1.0026 0.45589 0.0
C678 C 0.06583 0.99806 0.42903 0.0
C679 C 0.10816 1.00422 0.4832 0.0
N680 N 0.07874 0.00918 0.48761 0.0
C681 C 0.09491 0.00744 0.49507 0.0
C682 C 0.10471 1.00209 0.46354 0.0
Tb683 Tb 0.0562 0.01538 0.50578 0.0
N684 N 0.04568 0.00743 0.47411 0.0
C685 C 0.02802 1.00321 0.46783 0.0
C686 C 0.03499 0.99764 0.43518 0.0
C687 C 0.02246 0.99857 0.44836 0.0
H688 H 0.09794 0.00868 0.51014 0.0
H689 H 0.00851 0.99581 0.44356 0.0
H690 H 0.06234 0.9947 0.41379 0.0
H691 H 0.12102 1.0033 0.48925 0.0
H692 H 0.01806 1.00376 0.47772 0.0
H693 H 0.09875 0.08073 0.58898 0.0
H694 H 0.03066 0.99403 0.42011 0.0
H695 H 1.00467 0.06 0.5288 0.0
H696 H 0.08706 0.07179 0.55544 0.0
H697 H 0.98256 0.06435 0.55151 0.0
H698 H 0.09306 0.99662 0.42628 0.0
H699 H 0.07826 0.08201 0.61423 0.0
H700 H 0.047 0.07971 0.62302 0.0
H701 H 0.11498 0.99949 0.45439 0.0
H702 H 0.0153 0.07544 0.61279 0.0
N703 N 0.05987 0.06724 0.56115 0.0
C704 C 0.07779 0.07223 0.56609 0.0
C705 C 0.07298 0.07799 0.59943 0.0
C706 C 0.05473 0.07411 0.59431 0.0
C707 C 0.08457 0.07735 0.58522 0.0
C708 C 0.04857 0.0689 0.57482 0.0
H709 H 0.99119 0.07005 0.58614 0.0
N710 N 0.02587 0.06279 0.5502 0.0
C711 C 0.99611 0.06497 0.55668 0.0
C712 C 0.0309 0.06665 0.56914 0.0
C713 C 0.00878 0.06256 0.54382 0.0
C714 C 1.00101 0.06812 0.5762 0.0
C715 C 0.01865 0.06929 0.58267 0.0
O716 O 0.03764 0.08073 0.52144 0.0
O717 O 0.04681 0.04125 0.50124 0.0
O718 O 0.07693 0.03764 0.49824 0.0
O719 O 0.07525 0.06217 0.52309 0.0
O720 O 0.0261 0.05361 0.50696 0.0
O721 O 0.06496 0.08495 0.5323 0.0
O722 O 0.06038 0.99408 0.52135 0.0
O723 O 0.05673 0.03238 0.53466 0.0
O724 O 0.02801 0.03458 0.53803 0.0
O725 O 0.02804 0.01227 0.51094 0.0
O726 O 0.07785 0.02081 0.52883 0.0
O727 O 0.04144 0.98689 0.49692 0.0
C728 C 0.03227 0.04387 0.49327 0.0
C729 C 0.05274 0.11256 0.53432 0.0
C730 C 0.05669 0.14616 0.53064 0.0
C731 C 0.0569 0.1269 0.5233 0.0
C732 C 0.05248 0.15088 0.54947 0.0
C733 C 0.0485 0.11737 0.55302 0.0
C734 C 0.04842 0.13653 0.56056 0.0
C735 C 0.0835 0.05472 0.50891 0.0
C736 C 0.05288 0.09279 0.52551 0.0
C737 C 0.02452 0.07352 0.60216 0.0
C738 C 0.04255 0.07593 0.60797 0.0
C739 C 0.07162 0.03056 0.54254 0.0
C740 C 0.05492 0.96222 0.50504 0.0
C741 C 0.055 0.95065 0.51892 0.0
C742 C 0.05988 0.93284 0.51492 0.0
C743 C 0.06472 0.92663 0.49667 0.0
C744 C 0.06003 0.95607 0.48694 0.0
C745 C 0.06489 0.93829 0.48281 0.0
C746 C 0.02045 0.01854 0.52612 0.0
C747 C 0.04921 0.98041 0.51018 0.0
H748 H 0.06047 0.123 0.50896 0.0
H749 H 0.05207 0.16556 0.55554 0.0
H750 H 0.04526 0.1064 0.56169 0.0
H751 H 0.04511 0.14028 0.575 0.0
H752 H 0.05086 0.9554 0.53283 0.0
H753 H 0.06849 0.9129 0.4932 0.0
H754 H 0.06015 0.96489 0.47606 0.0
H755 H 0.06875 0.9335 0.46883 0.0
Tb756 Tb 0.32481 0.80473 0.76316 0.0
C757 C 0.27955 0.75283 0.80892 0.0
C758 C 0.28781 0.72218 0.80049 0.0
C759 C 0.27702 0.73063 0.8313 0.0
C760 C 0.2862 0.74021 0.79623 0.0
C761 C 0.27445 0.74802 0.82644 0.0
C762 C 0.28369 0.7177 0.81832 0.0
C763 C 0.26292 0.77686 0.83211 0.0
N764 N 0.27705 0.76932 0.80351 0.0
C765 C 0.26814 0.78095 0.81456 0.0
C766 C 0.26635 0.76049 0.83823 0.0
Tb767 Tb 0.28664 0.7751 0.77461 0.0
N768 N 0.28969 0.74497 0.77908 0.0
C769 C 0.29332 0.73144 0.7649 0.0
C770 C 0.29272 0.70886 0.78642 0.0
C771 C 0.29511 0.71337 0.7684 0.0
H772 H 0.26514 0.79361 0.81023 0.0
H773 H 0.29849 0.70301 0.75722 0.0
H774 H 0.28503 0.70403 0.82194 0.0
H775 H 0.25625 0.78636 0.8409 0.0
H776 H 0.2953 0.73458 0.7509 0.0
H777 H 0.3131 0.87669 0.78233 0.0
H778 H 0.29411 0.69486 0.7891 0.0
H779 H 0.34474 0.78625 0.72637 0.0
H780 H 0.31681 0.84508 0.78802 0.0
H781 H 0.35289 0.79391 0.69551 0.0
H782 H 0.27335 0.72676 0.84477 0.0
H783 H 0.31655 0.88525 0.75047 0.0
H784 H 0.32489 0.87654 0.7172 0.0
H785 H 0.26222 0.75731 0.85179 0.0
H786 H 0.336 0.85402 0.69356 0.0
N787 N 0.32169 0.83504 0.75946 0.0
C788 C 0.31839 0.8484 0.774 0.0
C789 C 0.31813 0.87122 0.75286 0.0
C790 C 0.32279 0.8581 0.7384 0.0
C791 C 0.31626 0.86648 0.77086 0.0
C792 C 0.32462 0.84 0.74227 0.0
H793 H 0.34685 0.82335 0.68551 0.0
N794 N 0.33354 0.81088 0.7341 0.0
C795 C 0.34663 0.80346 0.70479 0.0
C796 C 0.33092 0.8275 0.72912 0.0
C797 C 0.34192 0.79918 0.72244 0.0
C798 C 0.34315 0.82005 0.69916 0.0
C799 C 0.33547 0.83249 0.71151 0.0
O800 O 0.35139 0.8021 0.76556 0.0
O801 O 0.31548 0.7773 0.77354 0.0
O802 O 0.30237 0.78653 0.80176 0.0
O803 O 0.31922 0.81339 0.79263 0.0
O804 O 0.33346 0.77749 0.75426 0.0
O805 O 0.34329 0.82575 0.78245 0.0
O806 O 0.26064 0.77887 0.76957 0.0
O807 O 0.29602 0.80254 0.76425 0.0
O808 O 0.30844 0.79349 0.73639 0.0
O809 O 0.29281 0.76602 0.74536 0.0
O810 O 0.27832 0.80253 0.78379 0.0
O811 O 0.26791 0.75288 0.75683 0.0
C812 C 0.32501 0.7664 0.76455 0.0
C813 C 0.37308 0.83074 0.77476 0.0
C814 C 0.40541 0.83999 0.78017 0.0
C815 C 0.38917 0.82817 0.78281 0.0
C816 C 0.40524 0.8545 0.76925 0.0
C817 C 0.37317 0.84523 0.76388 0.0
C818 C 0.38921 0.85703 0.76115 0.0
C819 C 0.31283 0.80386 0.80588 0.0
C820 C 0.35654 0.81794 0.7779 0.0
C821 C 0.33275 0.85 0.70708 0.0
C822 C 0.3264 0.8628 0.72053 0.0
C823 C 0.28676 0.81361 0.77348 0.0
C824 C 0.23802 0.75095 0.7636 0.0
C825 C 0.22244 0.7549 0.75586 0.0
C826 C 0.20571 0.74526 0.75984 0.0
C827 C 0.20484 0.7316 0.7719 0.0
C828 C 0.23695 0.73724 0.77553 0.0
C829 C 0.22039 0.72764 0.77965 0.0
C830 C 0.29878 0.77579 0.73212 0.0
C831 C 0.25509 0.76187 0.75932 0.0
H832 H 0.38899 0.81708 0.79141 0.0
H833 H 0.41751 0.86374 0.7668 0.0
H834 H 0.36091 0.84744 0.75756 0.0
H835 H 0.38923 0.86819 0.75272 0.0
H836 H 0.2234 0.76579 0.74695 0.0
H837 H 0.19217 0.72382 0.77514 0.0
H838 H 0.24883 0.734 0.78166 0.0
H839 H 0.2196 0.71706 0.78886 0.0
Tb840 Tb 0.55542 0.02473 0.0326 0.0
C841 C 0.51346 0.07379 0.99351 0.0
C842 C 0.49176 0.051 0.97077 0.0
C843 C 0.4854 0.08167 0.98479 0.0
C844 C 0.50835 0.05615 0.98164 0.0
C845 C 0.50225 0.08698 0.99496 0.0
C846 C 0.48015 0.06369 0.97271 0.0
C847 C 0.52576 0.11014 0.01509 0.0
N848 N 0.52987 0.07836 0.00295 0.0
C849 C 0.53641 0.09657 0.01311 0.0
C850 C 0.50852 0.10526 0.00616 0.0
Tb851 Tb 0.54622 0.05507 0.99922 0.0
N852 N 0.52003 0.04443 0.98008 0.0
C853 C 0.51633 0.0278 0.9668 0.0
C854 C 0.48756 0.03351 0.95791 0.0
C855 C 0.49999 0.02197 0.95577 0.0
H856 H 0.54967 0.1005 0.02016 0.0
H857 H 0.497 0.00855 0.94565 0.0
H858 H 0.46728 0.05992 0.96461 0.0
H859 H 0.53086 0.12436 0.02351 0.0
H860 H 0.52568 0.01861 0.96496 0.0
H861 H 0.6042 0.07325 0.08532 0.0
H862 H 0.47496 0.02902 0.94929 0.0
H863 H 0.55281 0.97904 0.0133 0.0
H864 H 0.5752 0.06172 0.06677 0.0
H865 H 0.57252 0.95605 0.00999 0.0
H866 H 0.4765 0.09153 0.98583 0.0
H867 H 0.62735 0.05424 0.081 0.0
H868 H 0.63596 0.02378 0.06579 0.0
H869 H 0.50032 0.11582 0.00767 0.0
H870 H 0.62724 0.99164 0.04542 0.0
N871 N 0.58166 0.03636 0.05158 0.0
C872 C 0.58498 0.05307 0.06474 0.0
C873 C 0.61456 0.04902 0.07282 0.0
C874 C 0.6107 0.03135 0.06025 0.0
C875 C 0.60151 0.05975 0.07533 0.0
C876 C 0.59387 0.0253 0.04991 0.0
H877 H 0.60344 0.96607 0.02482 0.0
N878 N 0.57242 1.00202 0.02965 0.0
C879 C 0.57737 0.97049 0.01802 0.0
C880 C 0.58904 0.00739 0.03856 0.0
C881 C 0.56621 0.98355 0.02 0.0
C882 C 0.59483 0.97621 0.02637 0.0
C883 C 0.6008 0.99479 0.03703 0.0
O884 O 0.53847 1.00171 0.04133 0.0
O885 O 0.53632 0.03168 0.01349 0.0
O886 O 0.53142 0.06129 0.02361 0.0
O887 O 0.5479 0.05126 0.04683 0.0
O888 O 0.53416 1.00332 0.01446 0.0
O889 O 0.54875 0.02857 0.06084 0.0
O890 O 0.56423 0.07772 0.99116 0.0
O891 O 0.56533 0.0477 0.01798 0.0
O892 O 0.56953 0.01786 0.00777 0.0
O893 O 0.55326 0.02838 0.98468 0.0
O894 O 0.56768 0.07606 0.01763 0.0
O895 O 0.55183 0.05233 0.97059 0.0
C896 C 0.52698 0.01519 0.00692 0.0
C897 C 0.54066 1.00055 0.07409 0.0
C898 C 0.52855 0.99052 0.10244 0.0
C899 C 0.52821 1.00084 0.08748 0.0
C900 C 0.54184 0.98 0.10393 0.0
C901 C 0.55384 0.99004 0.07565 0.0
C902 C 0.5544 0.9798 0.09058 0.0
C903 C 0.53616 0.06098 0.04161 0.0
C904 C 0.53906 0.01116 0.05859 0.0
C905 C 0.61792 1.00101 0.04656 0.0
C906 C 0.62288 0.0193 0.05815 0.0
C907 C 0.5749 0.06399 0.02476 0.0
C908 C 0.56052 0.08158 0.95938 0.0
C909 C 0.57469 0.08642 0.94855 0.0
C910 C 0.57377 0.09836 0.93505 0.0
C911 C 0.55834 0.10544 0.93256 0.0
C912 C 0.54521 0.08875 0.95683 0.0
C913 C 0.54417 0.10068 0.94346 0.0
C914 C 0.56455 0.0181 0.98981 0.0
C915 C 0.56241 0.06931 0.9734 0.0
H916 H 0.51835 0.00941 0.08631 0.0
H917 H 0.54245 0.97186 0.11528 0.0
H918 H 0.56358 0.9897 0.06538 0.0
H919 H 0.56456 0.97165 0.09179 0.0
H920 H 0.58635 0.08051 0.9504 0.0
H921 H 0.55725 0.11465 0.92223 0.0
H922 H 0.53415 0.08516 0.96509 0.0
H923 H 0.53234 0.1062 0.9415 0.0
Tb924 Tb 0.31348 0.30608 0.28082 0.0
C925 C 0.24569 0.2551 0.25335 0.0
C926 C 0.23491 0.22591 0.26546 0.0
C927 C 0.21395 0.24308 0.25374 0.0
C928 C 0.24901 0.23995 0.26121 0.0
C929 C 0.22808 0.25695 0.24956 0.0
C930 C 0.21736 0.22757 0.26169 0.0
C931 C 0.23968 0.28598 0.23779 0.0
N932 N 0.25975 0.26811 0.24951 0.0
C933 C 0.25688 0.28358 0.2419 0.0
C934 C 0.2252 0.2726 0.24162 0.0
Tb935 Tb 0.28751 0.26163 0.2546 0.0
N936 N 0.2661 0.23869 0.26423 0.0
C937 C 0.26989 0.22291 0.27062 0.0
C938 C 0.23885 0.21041 0.27299 0.0
C939 C 0.25645 0.20885 0.27547 0.0
H940 H 0.26764 0.29465 0.23945 0.0
H941 H 0.25966 0.19667 0.28082 0.0
H942 H 0.20635 0.21694 0.26482 0.0
H943 H 0.23764 0.29834 0.2319 0.0
H944 H 0.28342 0.22115 0.27194 0.0
H945 H 0.36912 0.31746 0.23731 0.0
H946 H 0.22841 0.19938 0.27651 0.0
H947 H 0.31432 0.31566 0.32793 0.0
H948 H 0.33831 0.31279 0.24313 0.0
H949 H 0.33566 0.31868 0.35577 0.0
H950 H 0.20035 0.24425 0.25092 0.0
H951 H 0.39191 0.31768 0.26279 0.0
H952 H 0.39957 0.31511 0.29657 0.0
H953 H 0.2119 0.27456 0.23853 0.0
H954 H 0.39037 0.31473 0.32885 0.0
N955 N 0.3423 0.3097 0.27238 0.0
C956 C 0.34749 0.31268 0.25486 0.0
C957 C 0.3781 0.31524 0.26561 0.0
C958 C 0.37303 0.31277 0.2836 0.0
C959 C 0.3653 0.31534 0.25125 0.0
C960 C 0.35489 0.31037 0.28669 0.0
H961 H 0.36664 0.31643 0.35114 0.0
N962 N 0.33263 0.31034 0.30763 0.0
C963 C 0.33981 0.31619 0.34154 0.0
C964 C 0.34982 0.31042 0.30489 0.0
C965 C 0.32776 0.31447 0.32573 0.0
C966 C 0.35724 0.31483 0.33886 0.0
C967 C 0.36259 0.31254 0.32042 0.0
O968 O 0.32377 0.3351 0.29373 0.0
O969 O 0.28723 0.28898 0.27149 0.0
O970 O 0.29263 0.28142 0.23416 0.0
O971 O 0.31039 0.31003 0.25121 0.0
O972 O 0.29169 0.30415 0.29913 0.0
O973 O 0.30084 0.3275 0.27369 0.0
O974 O 0.28577 0.25582 0.22455 0.0
O975 O 0.31387 0.28027 0.26096 0.0
O976 O 0.3117 0.28457 0.3001 0.0
O977 O 0.29089 0.25715 0.28435 0.0
O978 O 0.3113 0.25188 0.26271 0.0
O979 O 0.28833 0.23389 0.24049 0.0
C980 C 0.27998 0.29266 0.2867 0.0
C981 C 0.30147 0.35322 0.29869 0.0
C982 C 0.28052 0.37444 0.30203 0.0
C983 C 0.29022 0.36333 0.29056 0.0
C984 C 0.28219 0.37529 0.32184 0.0
C985 C 0.30314 0.3545 0.31854 0.0
C986 C 0.29348 0.36542 0.33 0.0
C987 C 0.30166 0.2994 0.23529 0.0
C988 C 0.31086 0.34112 0.28609 0.0
C989 C 0.38041 0.31336 0.31715 0.0
C990 C 0.38564 0.31358 0.29877 0.0
C991 C 0.3226 0.26793 0.26414 0.0
C992 C 0.30446 0.23494 0.21348 0.0
C993 C 0.31547 0.22361 0.22003 0.0
C994 C 0.33042 0.2205 0.21073 0.0
C995 C 0.33415 0.2286 0.19447 0.0
C996 C 0.30843 0.24288 0.19717 0.0
C997 C 0.3232 0.23972 0.18777 0.0
C998 C 0.30158 0.26708 0.2995 0.0
C999 C 0.28925 0.23889 0.22396 0.0
H1000 H 0.28886 0.36232 0.27523 0.0
H1001 H 0.27505 0.3839 0.33107 0.0
H1002 H 0.31187 0.34711 0.32524 0.0
H1003 H 0.29482 0.36631 0.34529 0.0
H1004 H 0.3124 0.21711 0.23239 0.0
H1005 H 0.34564 0.22656 0.18709 0.0
H1006 H 0.30021 0.25167 0.1918 0.0
H1007 H 0.32622 0.24601 0.17529 0.0
Tb1008 Tb 0.54912 0.55932 0.02994 0.0
C1009 C 0.57439 0.50538 0.96791 0.0
C1010 C 0.55093 0.49797 0.94233 0.0
C1011 C 0.58108 0.49706 0.93516 0.0
C1012 C 0.55688 0.50361 0.96186 0.0
C1013 C 0.5867 0.50179 0.9547 0.0
C1014 C 0.56321 0.49515 0.92898 0.0
C1015 C 0.60879 0.50628 0.98115 0.0
N1016 N 0.57919 0.5098 0.98689 0.0
C1017 C 0.59608 0.50966 0.99368 0.0
C1018 C 0.60415 0.50255 0.96155 0.0
Tb1019 Tb 0.55761 0.51605 0.00638 0.0
N1020 N 0.54548 0.50625 0.97525 0.0
C1021 C 0.52761 0.50187 0.97002 0.0
C1022 C 0.53279 0.49472 0.93688 0.0
C1023 C 0.52105 0.49637 0.95084 0.0
H1024 H 0.60003 0.51256 0.00873 0.0
H1025 H 0.50693 0.4935 0.94684 0.0
H1026 H 0.55893 0.491 0.91391 0.0
H1027 H 0.62219 0.50659 0.98663 0.0
H1028 H 0.5182 0.50307 0.98043 0.0
H1029 H 0.59896 0.58042 0.09026 0.0
H1030 H 0.52768 0.49042 0.92204 0.0
H1031 H 0.50729 0.5649 0.02716 0.0
H1032 H 0.58814 0.57197 0.05642 0.0
H1033 H 0.4849 0.57081 0.04898 0.0
H1034 H 0.59036 0.4944 0.92477 0.0
H1035 H 0.57779 0.58242 0.11477 0.0
H1036 H 0.54638 0.58161 0.12247 0.0
H1037 H 0.61401 0.49989 0.95188 0.0
H1038 H 0.51522 0.57919 0.11119 0.0
N1039 N 0.56077 0.56825 0.06127 0.0
C1040 C 0.57859 0.57267 0.06677 0.0
C1041 C 0.5729 0.57858 0.09984 0.0
C1042 C 0.55481 0.57546 0.09414 0.0
C1043 C 0.58488 0.57754 0.08606 0.0
C1044 C 0.54916 0.57045 0.07451 0.0
H1045 H 0.49224 0.5756 0.08377 0.0
N1046 N 0.52737 0.56563 0.04918 0.0
C1047 C 0.49802 0.57026 0.05461 0.0
C1048 C 0.53179 0.56918 0.06824 0.0
C1049 C 0.51085 0.56687 0.04223 0.0
C1050 C 0.50219 0.57291 0.07423 0.0
C1051 C 0.51935 0.57272 0.08129 0.0
O1052 O 0.54134 0.58119 0.01759 0.0
O1053 O 0.54851 0.54181 1.00131 0.0
O1054 O 0.57732 0.53868 0.99767 0.0
O1055 O 0.57704 0.56242 0.02362 0.0
O1056 O 0.52768 0.55406 0.00682 0.0
O1057 O 0.56635 0.58674 0.03429 0.0
O1058 O 0.56644 0.49421 0.01782 0.0
O1059 O 0.55817 0.5335 0.03497 0.0
O1060 O 0.52864 0.53697 0.03798 0.0
O1061 O 0.52968 0.51279 0.01264 0.0
O1062 O 0.57916 0.52159 0.02946 0.0
O1063 O 0.54009 0.48904 0.00393 0.0
C1064 C 0.53382 0.54401 0.9933 0.0
C1065 C 0.55343 0.61335 0.03182 0.0
C1066 C 0.55551 0.64634 0.02677 0.0
C1067 C 0.55844 0.62775 0.02098 0.0
C1068 C 0.54756 0.65039 0.04374 0.0
C1069 C 0.54569 0.6176 0.04881 0.0
C1070 C 0.54281 0.6361 0.05474 0.0
C1071 C 0.58463 0.55536 0.00874 0.0
C1072 C 0.55568 0.5939 0.02437 0.0
C1073 C 0.52461 0.57662 0.10091 0.0
C1074 C 0.54235 0.57798 0.10733 0.0
C1075 C 0.57288 0.5314 0.04301 0.0
C1076 C 0.55224 0.46182 0.00621 0.0
C1077 C 0.54806 0.44877 0.01862 0.0
C1078 C 0.5489 0.42934 0.01327 0.0
C1079 C 0.55411 0.4232 0.99515 0.0
C1080 C 0.55735 0.45555 0.98819 0.0
C1081 C 0.55826 0.43625 0.98271 0.0
C1082 C 0.52164 0.52014 0.02701 0.0
C1083 C 0.55145 0.48191 0.01296 0.0
H1084 H 0.56422 0.62431 0.00772 0.0
H1085 H 0.5452 0.66462 0.04857 0.0
H1086 H 0.54174 0.60664 0.05733 0.0
H1087 H 0.53677 0.63936 0.06782 0.0
H1088 H 0.54444 0.4539 0.03267 0.0
H1089 H 0.55478 0.40831 0.99051 0.0
H1090 H 0.56066 0.46551 0.97849 0.0
H1091 H 0.56221 0.43137 0.96879 0.0
Tb1092 Tb 0.82239 0.30398 0.26706 0.0
C1093 C 0.77235 0.24589 0.30107 0.0
C1094 C 0.78348 0.21701 0.29239 0.0
C1095 C 0.76851 0.22156 0.32121 0.0
C1096 C 0.78145 0.23524 0.28911 0.0
C1097 C 0.76519 0.23888 0.31689 0.0
C1098 C 0.77764 0.2106 0.30893 0.0
C1099 C 0.74953 0.26473 0.32092 0.0
N1100 N 0.76898 0.2622 0.29601 0.0
C1101 C 0.75675 0.2709 0.30493 0.0
C1102 C 0.75409 0.2489 0.3272 0.0
Tb1103 Tb 0.78248 0.27207 0.2704 0.0
N1104 N 0.78639 0.24175 0.27307 0.0
C1105 C 0.79148 0.22957 0.25866 0.0
C1106 C 0.79022 0.20526 0.27837 0.0
C1107 C 0.79376 0.21136 0.2612 0.0
H1108 H 0.75271 0.28286 0.30005 0.0
H1109 H 0.79837 0.20212 0.24995 0.0
H1110 H 0.77934 0.19678 0.31186 0.0
H1111 H 0.74032 0.27208 0.32827 0.0
H1112 H 0.79428 0.23395 0.24526 0.0
H1113 H 0.80828 0.37362 0.29379 0.0
H1114 H 0.79196 0.19115 0.2803 0.0
H1115 H 0.84676 0.2918 0.23203 0.0
H1116 H 0.81189 0.34094 0.2956 0.0
H1117 H 0.85826 0.30462 0.20432 0.0
H1118 H 0.76334 0.21606 0.33345 0.0
H1119 H 0.81418 0.38693 0.2645 0.0
H1120 H 0.8256 0.38324 0.23218 0.0
H1121 H 0.74829 0.244 0.33944 0.0
H1122 H 0.83955 0.36449 0.20782 0.0
N1123 N 0.81908 0.33501 0.26719 0.0
C1124 C 0.81453 0.34634 0.28264 0.0
C1125 C 0.81571 0.37244 0.26515 0.0
C1126 C 0.82175 0.36141 0.24997 0.0
C1127 C 0.81246 0.36501 0.28172 0.0
C1128 C 0.82344 0.3426 0.25153 0.0
H1129 H 0.85227 0.33538 0.19758 0.0
N1130 N 0.83388 0.31482 0.24092 0.0
C1131 C 0.85059 0.31248 0.2136 0.0
C1132 C 0.8313 0.33218 0.23795 0.0
C1133 C 0.84403 0.30526 0.2294 0.0
C1134 C 0.84713 0.3298 0.2098 0.0
C1135 C 0.83765 0.34007 0.22223 0.0
O1136 O 0.84895 0.30151 0.27076 0.0
O1137 O 0.81172 0.27491 0.27361 0.0
O1138 O 0.79228 0.28285 0.30003 0.0
O1139 O 0.81475 0.3086 0.29626 0.0
O1140 O 0.83191 0.27765 0.25673 0.0
O1141 O 0.83944 0.32314 0.28914 0.0
O1142 O 0.75838 0.27698 0.25896 0.0
O1143 O 0.7934 0.30117 0.26431 0.0
O1144 O 0.80938 0.29538 0.2382 0.0
O1145 O 0.79244 0.26636 0.24243 0.0
O1146 O 0.77306 0.29851 0.28094 0.0
O1147 O 0.7646 0.24939 0.25219 0.0
C1148 C 0.82239 0.26521 0.26498 0.0
C1149 C 0.86974 0.33013 0.28331 0.0
C1150 C 0.90206 0.33932 0.28911 0.0
C1151 C 0.88586 0.32658 0.29022 0.0
C1152 C 0.90183 0.35569 0.28085 0.0
C1153 C 0.8698 0.34657 0.27523 0.0
C1154 C 0.88579 0.35924 0.27398 0.0
C1155 C 0.80428 0.29873 0.30683 0.0
C1156 C 0.85319 0.31626 0.28453 0.0
C1157 C 0.83496 0.35826 0.21991 0.0
C1158 C 0.827 0.36892 0.23376 0.0
C1159 C 0.78305 0.3111 0.27319 0.0
C1160 C 0.73437 0.2503 0.25439 0.0
C1161 C 0.71983 0.25537 0.24543 0.0
C1162 C 0.70235 0.2473 0.24881 0.0
C1163 C 0.6997 0.23422 0.26151 0.0
C1164 C 0.73136 0.23702 0.26678 0.0
C1165 C 0.71412 0.22913 0.27037 0.0
C1166 C 0.79996 0.27792 0.23131 0.0
C1167 C 0.75251 0.25924 0.2508 0.0
H1168 H 0.88571 0.314 0.29672 0.0
H1169 H 0.91405 0.36566 0.27956 0.0
H1170 H 0.85755 0.34966 0.26995 0.0
H1171 H 0.88576 0.37187 0.26765 0.0
H1172 H 0.72218 0.26537 0.23561 0.0
H1173 H 0.68648 0.228 0.26471 0.0
H1174 H 0.74229 0.23272 0.2737 0.0
H1175 H 0.71191 0.21903 0.28007 0.0
Tb1176 Tb 0.06288 0.53349 0.53966 0.0
C1177 C 1.0053 0.53514 0.48244 0.0
C1178 C 0.00795 0.52095 0.44981 0.0
C1179 C 0.97881 0.51912 0.46129 0.0
C1180 C 0.01582 0.53073 0.46799 0.0
C1181 C 0.98665 0.53009 0.47893 0.0
C1182 C 0.98944 0.51456 0.44676 0.0
C1183 C 0.98484 0.54947 0.50935 0.0
N1184 N 0.01331 0.54599 0.49928 0.0
C1185 C 1.00336 0.55413 0.5122 0.0
C1186 C 0.97644 0.53705 0.49285 0.0
Tb1187 Tb 0.04369 0.55247 0.50194 0.0
N1188 N 0.03368 0.5374 0.47132 0.0
C1189 C 0.04415 0.53657 0.4565 0.0
C1190 C 0.01882 0.51871 0.43499 0.0
C1191 C 0.03694 0.52693 0.43826 0.0
H1192 H 0.00945 0.56386 0.52503 0.0
H1193 H 0.04537 0.52586 0.42674 0.0
H1194 H 0.98318 0.50678 0.43297 0.0
H1195 H 0.97707 0.55546 0.51993 0.0
H1196 H 0.05815 0.54289 0.45861 0.0
H1197 H 0.06323 0.55793 0.61539 0.0
H1198 H 0.01328 0.51134 0.42082 0.0
H1199 H 0.09682 0.52203 0.51619 0.0
H1200 H 0.05 0.54088 0.58352 0.0
H1201 H 0.12925 0.53128 0.52021 0.0
H1202 H 0.96451 0.51481 0.45848 0.0
H1203 H 0.09488 0.5746 0.62024 0.0
H1204 H 0.12445 0.58102 0.60692 0.0
H1205 H 0.96209 0.53359 0.49065 0.0
H1206 H 0.14261 0.57369 0.58068 0.0
N1207 N 0.07367 0.54844 0.57007 0.0
C1208 C 0.06383 0.54796 0.58536 0.0
C1209 C 0.08911 0.56719 0.60615 0.0
C1210 C 0.09954 0.56593 0.59083 0.0
C1211 C 0.07127 0.55772 0.6035 0.0
C1212 C 0.09138 0.55607 0.57279 0.0
H1213 H 0.14459 0.55441 0.54858 0.0
N1214 N 0.0933 0.54065 0.54154 0.0
C1215 C 0.12163 0.53742 0.53086 0.0
C1216 C 0.10156 0.55202 0.558 0.0
C1217 C 0.10309 0.53225 0.52863 0.0
C1218 C 0.13023 0.55056 0.54684 0.0
C1219 C 0.12023 0.5576 0.56094 0.0
O1220 O 0.07509 0.5138 0.55123 0.0
O1221 O 0.03931 0.53349 0.52234 0.0
O1222 O 0.04032 0.56883 0.52963 0.0
O1223 O 0.05934 0.56202 0.55306 0.0
O1224 O 0.03676 0.53176 0.55045 0.0
O1225 O 0.04798 0.50548 0.53997 0.0
O1226 O 0.03171 0.5725 0.49064 0.0
O1227 O 0.06753 0.55284 0.51937 0.0
O1228 O 0.06578 0.5172 0.51159 0.0
O1229 O 0.0445 0.52274 0.48991 0.0
O1230 O 0.06938 0.55295 0.49082 0.0
O1231 O 0.05912 0.58003 0.5009 0.0
C1232 C 0.02812 0.53183 0.5345 0.0
C1233 C 0.05616 0.49249 0.56649 0.0
C1234 C 0.04058 0.49184 0.59522 0.0
C1235 C 0.04339 0.49838 0.57796 0.0
C1236 C 0.05014 0.4786 0.60044 0.0
C1237 C 0.06554 0.47929 0.57196 0.0
C1238 C 0.06242 0.47226 0.58878 0.0
C1239 C 0.04871 0.5725 0.54695 0.0
C1240 C 0.0606 0.50067 0.54939 0.0
C1241 C 0.12832 0.56895 0.57832 0.0
C1242 C 0.11797 0.57312 0.59326 0.0
C1243 C 0.07835 0.55359 0.50671 0.0
C1244 C 0.0507 0.59215 0.47387 0.0
C1245 C 0.06494 0.5877 0.46393 0.0
C1246 C 0.06793 0.59353 0.44639 0.0
C1247 C 0.05676 0.60421 0.43904 0.0
C1248 C 0.03978 0.60293 0.46637 0.0
C1249 C 0.04285 0.60897 0.44907 0.0
C1250 C 0.05576 0.51255 0.49511 0.0
C1251 C 0.04653 0.58499 0.49158 0.0
H1252 H 0.03604 0.5085 0.57382 0.0
H1253 H 0.04811 0.47314 0.61356 0.0
H1254 H 0.07543 0.47458 0.56331 0.0
H1255 H 0.06973 0.46209 0.59294 0.0
H1256 H 0.07341 0.57928 0.46948 0.0
H1257 H 0.05886 0.60897 0.4256 0.0
H1258 H 0.02875 0.60649 0.47382 0.0
H1259 H 0.03433 0.61724 0.44333 0.0
Tb1260 Tb 0.78244 0.79323 0.2675 0.0
C1261 C 0.83857 0.75948 0.30558 0.0
C1262 C 0.84972 0.78285 0.33414 0.0
C1263 C 0.84974 0.74908 0.33363 0.0
C1264 C 0.84175 0.77811 0.31525 0.0
C1265 C 0.84312 0.7448 0.31436 0.0
C1266 C 0.85304 0.76813 0.34353 0.0
C1267 C 0.83692 0.7237 0.28373 0.0
N1268 N 0.83271 0.75618 0.28689 0.0
C1269 C 0.83265 0.73878 0.27568 0.0
C1270 C 0.84182 0.72659 0.30325 0.0
Tb1271 Tb 0.82534 0.78148 0.27485 0.0
N1272 N 0.83881 0.79186 0.30542 0.0
C1273 C 0.84534 0.81089 0.31315 0.0
C1274 C 0.85505 0.80227 0.34259 0.0
C1275 C 0.85317 0.81637 0.33191 0.0
H1276 H 0.82883 0.73628 0.26059 0.0
H1277 H 0.85775 0.83147 0.3381 0.0
H1278 H 0.85889 0.77144 0.35813 0.0
H1279 H 0.83638 0.70984 0.27487 0.0
H1280 H 0.84405 0.82208 0.30525 0.0
H1281 H 0.75102 0.74145 0.20496 0.0
H1282 H 0.86135 0.80653 0.35701 0.0
H1283 H 0.77869 0.83847 0.28026 0.0
H1284 H 0.76413 0.75182 0.23795 0.0
H1285 H 0.77115 0.86432 0.26492 0.0
H1286 H 0.85309 0.73797 0.34074 0.0
H1287 H 0.74766 0.76562 0.18499 0.0
H1288 H 0.74956 0.80049 0.18291 0.0
H1289 H 0.84523 0.71493 0.30943 0.0
H1290 H 0.75495 0.83426 0.19942 0.0
N1291 N 0.76908 0.78189 0.23697 0.0
C1292 C 0.76283 0.76271 0.22966 0.0
C1293 C 0.75352 0.77033 0.19956 0.0
C1294 C 0.75847 0.7899 0.20759 0.0
C1295 C 0.75532 0.75666 0.21081 0.0
C1296 C 0.76612 0.79522 0.22659 0.0
H1297 H 0.76249 0.85815 0.23025 0.0
N1298 N 0.77486 0.81787 0.25447 0.0
C1299 C 0.77064 0.85026 0.25649 0.0
C1300 C 0.76914 0.81401 0.23574 0.0
C1301 C 0.77485 0.83552 0.26514 0.0
C1302 C 0.76585 0.84675 0.23691 0.0
C1303 C 0.76464 0.82831 0.22634 0.0
O1304 O 0.76569 0.80302 0.28759 0.0
O1305 O 0.8032 0.79059 0.28806 0.0
O1306 O 0.80573 0.75691 0.28235 0.0
O1307 O 0.77924 0.7618 0.26872 0.0
O1308 O 0.79152 0.81381 0.29367 0.0
O1309 O 0.75787 0.77512 0.27034 0.0
O1310 O 0.84153 0.77253 0.25373 0.0
O1311 O 0.80468 0.7844 0.25428 0.0
O1312 O 0.80224 0.81804 0.26056 0.0
O1313 O 0.8286 0.81307 0.27441 0.0
O1314 O 0.81591 0.76091 0.24873 0.0
O1315 O 0.85049 0.79907 0.27305 0.0
C1316 C 0.80309 0.80556 0.30023 0.0
C1317 C 0.73471 0.79035 0.28056 0.0
C1318 C 0.70443 0.78814 0.29074 0.0
C1319 C 0.72216 0.78596 0.29387 0.0
C1320 C 0.69983 0.7952 0.27437 0.0
C1321 C 0.72943 0.79717 0.26441 0.0
C1322 C 0.71218 0.79965 0.26142 0.0
C1323 C 0.78847 0.75071 0.27639 0.0
C1324 C 0.75316 0.78758 0.28324 0.0
C1325 C 0.75825 0.82345 0.207 0.0
C1326 C 0.75519 0.80423 0.19761 0.0
C1327 C 0.80458 0.7694 0.24208 0.0
C1328 C 0.87267 0.78318 0.26092 0.0
C1329 C 0.88528 0.78791 0.24777 0.0
C1330 C 0.90251 0.78401 0.24986 0.0
C1331 C 0.90648 0.77487 0.26501 0.0
C1332 C 0.8774 0.77446 0.27595 0.0
C1333 C 0.8941 0.77023 0.27788 0.0
C1334 C 0.81943 0.82428 0.26685 0.0
C1335 C 0.85463 0.78727 0.25909 0.0
H1336 H 0.72607 0.78053 0.30633 0.0
H1337 H 0.68659 0.79747 0.2716 0.0
H1338 H 0.73866 0.80052 0.25403 0.0
H1339 H 0.70833 0.80503 0.24892 0.0
H1340 H 0.8818 0.79486 0.23624 0.0
H1341 H 0.91922 0.77109 0.26691 0.0
H1342 H 0.86818 0.77088 0.28625 0.0
H1343 H 0.8975 0.76331 0.28946 0.0
Tb1344 Tb 0.81212 0.28384 0.75214 0.0
C1345 C 0.80898 0.35375 0.80303 0.0
C1346 C 0.82864 0.36235 0.83206 0.0
C1347 C 0.82303 0.38741 0.81527 0.0
C1348 C 0.81756 0.34833 0.81784 0.0
C1349 C 0.81133 0.37346 0.80177 0.0
C1350 C 0.83173 0.38185 0.83038 0.0
C1351 C 0.78939 0.36441 0.77488 0.0
N1352 N 0.79776 0.33978 0.7903 0.0
C1353 C 0.78751 0.3451 0.77668 0.0
C1354 C 0.80155 0.37864 0.78728 0.0
Tb1355 Tb 0.7965 0.30808 0.79409 0.0
N1356 N 0.81402 0.32942 0.81908 0.0
C1357 C 0.81946 0.324 0.83556 0.0
C1358 C 0.83562 0.35647 0.84796 0.0
C1359 C 0.83068 0.33724 0.84991 0.0
H1360 H 0.77792 0.33485 0.76672 0.0
H1361 H 0.83539 0.3326 0.86252 0.0
H1362 H 0.84036 0.3928 0.84101 0.0
H1363 H 0.78146 0.36828 0.76381 0.0
H1364 H 0.81544 0.30919 0.83743 0.0
H1365 H 0.78247 0.27363 0.67982 0.0
H1366 H 0.84417 0.36678 0.85917 0.0
H1367 H 0.82399 0.24947 0.77558 0.0
H1368 H 0.80075 0.29173 0.7091 0.0
H1369 H 0.81549 0.21497 0.77316 0.0
H1370 H 0.82512 0.40256 0.8144 0.0
H1371 H 0.76869 0.23909 0.67755 0.0
H1372 H 0.76559 0.20921 0.69184 0.0
H1373 H 0.803 0.39359 0.78581 0.0
H1374 H 0.77483 0.19322 0.71726 0.0
N1375 N 0.79669 0.2679 0.72367 0.0
C1376 C 0.79479 0.27664 0.70825 0.0
C1377 C 0.77663 0.24701 0.69046 0.0
C1378 C 0.77991 0.23776 0.70557 0.0
C1379 C 0.78443 0.26646 0.69165 0.0
C1380 C 0.79033 0.24871 0.7221 0.0
H1381 H 0.79363 0.19518 0.74738 0.0
N1382 N 0.80666 0.25078 0.75143 0.0
C1383 C 0.80967 0.22177 0.76277 0.0
C1384 C 0.79559 0.2398 0.73639 0.0
C1385 C 0.81444 0.24176 0.76401 0.0
C1386 C 0.79732 0.21066 0.74824 0.0
C1387 C 0.79044 0.21955 0.73454 0.0
O1388 O 0.8399 0.2937 0.75593 0.0
O1389 O 0.81362 0.31036 0.77158 0.0
O1390 O 0.77584 0.30369 0.76991 0.0
O1391 O 0.78655 0.2899 0.74222 0.0
O1392 O 0.81314 0.31167 0.74328 0.0
O1393 O 0.82719 0.27847 0.72893 0.0
O1394 O 0.76936 0.30845 0.79583 0.0
O1395 O 0.79447 0.28151 0.7743 0.0
O1396 O 0.82902 0.28148 0.77724 0.0
O1397 O 0.82315 0.30343 0.80274 0.0
O1398 O 0.79477 0.27997 0.80253 0.0
O1399 O 0.78564 0.30553 0.81993 0.0
C1400 C 0.81483 0.3219 0.76008 0.0
C1401 C 0.85308 0.30267 0.72914 0.0
C1402 C 0.85643 0.32785 0.70964 0.0
C1403 C 0.84559 0.31384 0.71798 0.0
C1404 C 0.87498 0.33033 0.71266 0.0
C1405 C 0.87155 0.30559 0.73209 0.0
C1406 C 0.88242 0.31935 0.72386 0.0
C1407 C 0.77429 0.29735 0.75118 0.0
C1408 C 0.84199 0.2882 0.73823 0.0
C1409 C 0.77908 0.20873 0.71876 0.0
C1410 C 0.77381 0.21782 0.70429 0.0
C1411 C 0.79288 0.26985 0.78568 0.0
C1412 C 0.75562 0.28907 0.8171 0.0
C1413 C 0.75986 0.27452 0.82627 0.0
C1414 C 0.74659 0.26123 0.83286 0.0
C1415 C 0.72876 0.26221 0.82898 0.0
C1416 C 0.73779 0.28951 0.81329 0.0
C1417 C 0.72445 0.27601 0.81901 0.0
C1418 C 0.83284 0.29145 0.7949 0.0
C1419 C 0.76964 0.30483 0.81305 0.0
H1420 H 0.83136 0.31166 0.7159 0.0
H1421 H 0.88384 0.34049 0.70609 0.0
H1422 H 0.87755 0.29721 0.74076 0.0
H1423 H 0.89669 0.32142 0.72607 0.0
H1424 H 0.7736 0.27387 0.82858 0.0
H1425 H 0.71801 0.25279 0.83405 0.0
H1426 H 0.73419 0.30056 0.80626 0.0
H1427 H 0.71071 0.2766 0.81624 0.0
Tb1428 Tb 0.81584 0.80422 0.77873 0.0
C1429 C 0.74867 0.74543 0.75849 0.0
C1430 C 0.74593 0.71868 0.77542 0.0
C1431 C 0.71965 0.72959 0.76618 0.0
C1432 C 0.75642 0.73326 0.76739 0.0
C1433 C 0.73005 0.74329 0.75726 0.0
C1434 C 0.7276 0.7174 0.77539 0.0
C1435 C 0.73294 0.76599 0.73593 0.0
N1436 N 0.75914 0.75802 0.74945 0.0
C1437 C 0.75128 0.76745 0.73737 0.0
C1438 C 0.7223 0.75418 0.74623 0.0
Tb1439 Tb 0.78933 0.75927 0.75338 0.0
N1440 N 0.77399 0.73434 0.76633 0.0
C1441 C 0.78143 0.7198 0.77098 0.0
C1442 C 0.75398 0.70508 0.78213 0.0
C1443 C 0.77174 0.70539 0.77949 0.0
H1444 H 0.75865 0.77611 0.72848 0.0
H1445 H 0.77794 0.69444 0.78385 0.0
H1446 H 0.71935 0.70645 0.78167 0.0
H1447 H 0.727 0.77388 0.72668 0.0
H1448 H 0.79511 0.71973 0.76877 0.0
H1449 H 0.8784 0.81079 0.74725 0.0
H1450 H 0.74639 0.69371 0.78843 0.0
H1451 H 0.81021 0.82047 0.82434 0.0
H1452 H 0.84663 0.8101 0.7478 0.0
H1453 H 0.82666 0.82476 0.85565 0.0
H1454 H 0.70538 0.72791 0.76552 0.0
H1455 H 0.8961 0.80857 0.77631 0.0
H1456 H 0.89775 0.8085 0.81148 0.0
H1457 H 0.70808 0.75295 0.74493 0.0
H1458 H 0.88352 0.81247 0.84137 0.0
N1459 N 0.84567 0.8061 0.77666 0.0
C1460 C 0.85392 0.80875 0.76058 0.0
C1461 C 0.88202 0.80799 0.7766 0.0
C1462 C 0.87389 0.80726 0.7935 0.0
C1463 C 0.87209 0.80933 0.76021 0.0
C1464 C 0.85554 0.8067 0.79311 0.0
H1465 H 0.85707 0.81909 0.85805 0.0
N1466 N 0.83048 0.8108 0.80881 0.0
C1467 C 0.83265 0.82011 0.84289 0.0
C1468 C 0.84767 0.80923 0.80986 0.0
C1469 C 0.82329 0.81748 0.825 0.0
C1470 C 0.8498 0.81686 0.84419 0.0
C1471 C 0.85773 0.81195 0.82753 0.0
O1472 O 0.83041 0.83239 0.77932 0.0
O1473 O 0.78933 0.78715 0.76908 0.0
O1474 O 0.78767 0.78358 0.73841 0.0
O1475 O 0.81558 0.80208 0.74777 0.0
O1476 O 0.79315 0.80425 0.79571 0.0
O1477 O 0.80215 0.82623 0.77558 0.0
O1478 O 0.79692 0.75737 0.7254 0.0
O1479 O 0.81555 0.77776 0.75939 0.0
O1480 O 0.81477 0.78412 0.79901 0.0
O1481 O 0.79349 0.75677 0.78382 0.0
O1482 O 0.81338 0.7495 0.76067 0.0
O1483 O 0.78293 0.73243 0.73452 0.0
C1484 C 0.7817 0.79188 0.78373 0.0
C1485 C 0.81635 0.85751 0.79111 0.0
C1486 C 0.80616 0.88763 0.79729 0.0
C1487 C 0.80628 0.87003 0.78543 0.0
C1488 C 0.81616 0.8924 0.81512 0.0
C1489 C 0.82638 0.86258 0.80888 0.0
C1490 C 0.82618 0.87992 0.82084 0.0
C1491 C 0.80115 0.79731 0.73576 0.0
C1492 C 0.81648 0.83958 0.77793 0.0
C1493 C 0.87562 0.81071 0.82795 0.0
C1494 C 0.88371 0.80841 0.81093 0.0
C1495 C 0.82459 0.76556 0.76193 0.0
C1496 C 0.80433 0.72832 0.71251 0.0
C1497 C 0.81309 0.71709 0.7225 0.0
C1498 C 0.8257 0.70771 0.71388 0.0
C1499 C 0.82921 0.70963 0.6951 0.0
C1500 C 0.80825 0.73012 0.69393 0.0
C1501 C 0.82061 0.72082 0.6853 0.0
C1502 C 0.80439 0.7669 0.79877 0.0
C1503 C 0.79151 0.73893 0.72113 0.0
H1504 H 0.79847 0.86598 0.77174 0.0
H1505 H 0.8165 0.90592 0.8245 0.0
H1506 H 0.83448 0.8533 0.81345 0.0
H1507 H 0.83396 0.88379 0.83451 0.0
H1508 H 0.81029 0.71588 0.73695 0.0
H1509 H 0.8385 0.70231 0.68785 0.0
H1510 H 0.80176 0.73881 0.68609 0.0
H1511 H 0.8235 0.72223 0.67091 0.0
Tb1512 Tb 0.5355 0.52331 0.5083 0.0
C1513 C 0.58244 0.59345 0.55883 0.0
C1514 C 0.58607 0.61756 0.5388 0.0
C1515 C 0.58727 0.62736 0.57309 0.0
C1516 C 0.58271 0.59809 0.54099 0.0
C1517 C 0.58533 0.60803 0.57518 0.0
C1518 C 0.58764 0.63213 0.55489 0.0
C1519 C 0.58682 0.58363 0.59421 0.0
N1520 N 0.58103 0.57469 0.56015 0.0
C1521 C 0.58407 0.56974 0.57754 0.0
C1522 C 0.5871 0.60282 0.59305 0.0
Tb1523 Tb 0.57556 0.55262 0.53213 0.0
N1524 N 0.58157 0.58359 0.52596 0.0
C1525 C 0.58576 0.58789 0.50859 0.0
C1526 C 0.58875 0.62184 0.52069 0.0
C1527 C 0.58903 0.60696 0.50562 0.0
H1528 H 0.58385 0.55497 0.57872 0.0
H1529 H 0.59167 0.61013 0.49165 0.0
H1530 H 0.58995 0.64715 0.55347 0.0
H1531 H 0.5887 0.57951 0.60792 0.0
H1532 H 0.58598 0.5767 0.49665 0.0
H1533 H 0.5183 0.46772 0.55089 0.0
H1534 H 0.59134 0.6366 0.51837 0.0
H1535 H 0.527 0.51912 0.46161 0.0
H1536 H 0.52442 0.50059 0.54468 0.0
H1537 H 0.52171 0.49361 0.4331 0.0
H1538 H 0.58927 0.63877 0.58546 0.0
H1539 H 0.51873 0.44034 0.52516 0.0
H1540 H 0.52038 0.42848 0.49035 0.0
H1541 H 0.58936 0.61358 0.60596 0.0
H1542 H 0.52116 0.43558 0.45787 0.0
N1543 N 0.52914 0.4927 0.51556 0.0
C1544 C 0.52469 0.4891 0.53309 0.0
C1545 C 0.52152 0.4549 0.52228 0.0
C1546 C 0.52444 0.45843 0.50398 0.0
C1547 C 0.52119 0.47029 0.53679 0.0
C1548 C 0.528 0.47769 0.50105 0.0
H1549 H 0.521 0.45983 0.43631 0.0
N1550 N 0.52967 0.50016 0.48101 0.0
C1551 C 0.52365 0.49001 0.44705 0.0
C1552 C 0.52831 0.4816 0.48298 0.0
C1553 C 0.52658 0.50443 0.46331 0.0
C1554 C 0.52338 0.471 0.4489 0.0
C1555 C 0.52527 0.4665 0.46707 0.0
O1556 O 0.51322 0.52874 0.49352 0.0
O1557 O 0.55066 0.55293 0.51689 0.0
O1558 O 0.55513 0.55814 0.55234 0.0
O1559 O 0.53203 0.53221 0.53958 0.0
O1560 O 0.53785 0.54516 0.49016 0.0
O1561 O 0.51192 0.52243 0.52167 0.0
O1562 O 0.59658 0.5433 0.54508 0.0
O1563 O 0.56056 0.52279 0.52307 0.0
O1564 O 0.55589 0.51908 0.48748 0.0
O1565 O 0.57952 0.54418 0.50098 0.0
O1566 O 0.57256 0.53079 0.55021 0.0
O1567 O 0.6007 0.55843 0.5218 0.0
C1568 C 0.54749 0.55946 0.50177 0.0
C1569 C 0.48521 0.51419 0.50189 0.0
C1570 C 0.45322 0.51217 0.50028 0.0
C1571 C 0.47076 0.52301 0.5045 0.0
C1572 C 0.45045 0.49226 0.4932 0.0
C1573 C 0.48221 0.49437 0.49487 0.0
C1574 C 0.46487 0.48348 0.49052 0.0
C1575 C 0.53951 0.54667 0.55386 0.0
C1576 C 0.50319 0.52601 0.50717 0.0
C1577 C 0.52325 0.44738 0.46989 0.0
C1578 C 0.52282 0.44334 0.48837 0.0
C1579 C 0.56339 0.51635 0.53836 0.0
C1580 C 0.62545 0.56098 0.54372 0.0
C1581 C 0.63942 0.55129 0.54335 0.0
C1582 C 0.65634 0.56057 0.55235 0.0
C1583 C 0.659 0.57977 0.5619 0.0
C1584 C 0.62834 0.58015 0.55318 0.0
C1585 C 0.64507 0.58946 0.56226 0.0
C1586 C 0.57177 0.53031 0.48631 0.0
C1587 C 0.60803 0.55054 0.53427 0.0
H1588 H 0.47324 0.53841 0.50971 0.0
H1589 H 0.43717 0.48342 0.49 0.0
H1590 H 0.4932 0.48733 0.49287 0.0
H1591 H 0.46259 0.46815 0.48516 0.0
H1592 H 0.63699 0.53637 0.53621 0.0
H1593 H 0.67189 0.5874 0.56883 0.0
H1594 H 0.61775 0.58787 0.55354 0.0
H1595 H 0.64728 0.60427 0.56955 0.0
Tb1596 Tb 0.07448 0.54619 0.01679 0.0
C1597 C 0.01288 0.50302 0.05411 0.0
C1598 C 0.99914 0.47492 0.03066 0.0
C1599 C 0.99839 0.47365 0.06435 0.0
C1600 C 0.00891 0.49413 0.03539 0.0
C1601 C 0.00743 0.49305 0.06887 0.0
C1602 C 0.99424 0.46458 0.04525 0.0
C1603 C 0.01912 0.52256 0.09128 0.0
N1604 N 0.0215 0.52179 0.0578 0.0
C1605 C 0.02414 0.53185 0.07611 0.0
C1606 C 0.0109 0.50302 0.08767 0.0
Tb1607 Tb 0.03025 0.53551 0.0321 0.0
N1608 N 0.01378 0.5047 0.02181 0.0
C1609 C 0.00799 0.49726 0.00312 0.0
C1610 C 0.99415 0.4669 0.01147 0.0
C1611 C 0.99837 0.47824 0.99766 0.0
H1612 H 0.0306 0.5469 0.07918 0.0
H1613 H 0.99427 0.47233 0.98278 0.0
H1614 H 0.98688 0.44976 0.04192 0.0
H1615 H 0.02164 0.53049 0.10574 0.0
H1616 H 0.01111 0.50568 0.99218 0.0
H1617 H 0.11037 0.60865 0.06705 0.0
H1618 H 0.98669 0.45217 0.00722 0.0
H1619 H 0.07457 0.53562 0.96977 0.0
H1620 H 0.09352 0.57535 0.05708 0.0
H1621 H 0.08334 0.55273 0.94355 0.0
H1622 H 0.9942 0.46567 0.07548 0.0
H1623 H 0.11769 0.62946 0.04313 0.0
H1624 H 0.11704 0.63279 0.00864 0.0
H1625 H 0.00697 0.49588 0.09944 0.0
H1626 H 0.10979 0.61749 0.97489 0.0
N1627 N 0.09077 0.57697 0.02761 0.0
C1628 C 0.09661 0.58404 0.04635 0.0
C1629 C 0.11023 0.61477 0.03862 0.0
C1630 C 0.10511 0.60717 0.01937 0.0
C1631 C 0.10619 0.60304 0.05214 0.0
C1632 C 0.09548 0.58793 0.0143 0.0
H1633 H 0.09746 0.5875 0.95045 0.0
N1634 N 0.08327 0.56052 0.99147 0.0
C1635 C 0.0857 0.56042 0.95811 0.0
C1636 C 0.0916 0.57937 0.99548 0.0
C1637 C 0.08082 0.55075 0.97306 0.0
C1638 C 0.09361 0.58006 0.96205 0.0
C1639 C 0.09692 0.58972 0.98096 0.0
O1640 O 0.09072 0.52822 0.00441 0.0
O1641 O 0.05152 0.52392 0.01946 0.0
O1642 O 0.04749 0.52393 0.05025 0.0
O1643 O 0.07439 0.54416 0.04718 0.0
O1644 O 0.06466 0.51949 0.99591 0.0
O1645 O 0.09697 0.54332 0.0332 0.0
O1646 O 0.01464 0.55438 0.0441 0.0
O1647 O 0.05317 0.55775 0.02923 0.0
O1648 O 0.05693 0.55733 0.99844 0.0
O1649 O 0.03018 0.53684 0.00159 0.0
O1650 O 0.04037 0.56229 0.05292 0.0
O1651 O 0.00725 0.53768 0.01605 0.0
C1652 C 0.05172 0.51174 0.00449 0.0
C1653 C 0.12098 0.53571 0.01658 0.0
C1654 C 0.15001 0.52674 0.01817 0.0
C1655 C 0.13165 0.52281 0.02062 0.0
C1656 C 0.15728 0.54363 0.01134 0.0
C1657 C 0.12871 0.5524 0.00989 0.0
C1658 C 0.14672 0.55627 0.00726 0.0
C1659 C 0.06429 0.53198 0.05618 0.0
C1660 C 0.10188 0.53179 0.01953 0.0
C1661 C 0.10572 0.6092 0.98583 0.0
C1662 C 0.10983 0.61792 0.00504 0.0
C1663 C 0.05325 0.56997 0.04422 0.0
C1664 C 0.98407 0.54647 0.03348 0.0
C1665 C 0.97372 0.56013 0.0311 0.0
C1666 C 0.95586 0.5571 0.03552 0.0
C1667 C 0.94859 0.54003 0.04205 0.0
C1668 C 0.97639 0.52968 0.04003 0.0
C1669 C 0.95876 0.52649 0.04423 0.0
C1670 C 0.04026 0.54882 0.9924 0.0
C1671 C 1.00289 0.54998 0.02943 0.0
H1672 H 0.12572 0.50996 0.02593 0.0
H1673 H 0.17116 0.54702 0.0089 0.0
H1674 H 0.12082 0.56243 0.0067 0.0
H1675 H 0.15256 0.56916 0.002 0.0
H1676 H 0.97966 0.5732 0.02616 0.0
H1677 H 0.9349 0.53701 0.04528 0.0
H1678 H 0.98402 0.51904 0.04193 0.0
H1679 H 0.95294 0.51344 0.04923 0.0
H1680 H 0.99685 0.21107 0.94772 0.0
H1681 H 1.00175 0.18159 0.95768 0.0
H1682 H 0.05816 0.20175 0.95725 0.0
H1683 H 0.05298 0.23051 0.94554 0.0
H1684 H 0.05418 0.16718 0.9486 0.0
H1685 H 0.01182 0.17142 0.00756 0.0
H1686 H 0.9985 0.16912 0.98573 0.0
H1687 H 0.01615 0.19021 0.99367 0.0
C1688 C 0.01031 0.20911 0.94947 0.0
C1689 C 0.02447 0.2233 0.9456 0.0
C1690 C 0.0132 0.19225 0.95565 0.0
C1691 C 0.03046 0.18922 0.95925 0.0
C1692 C 0.04463 0.20329 0.95491 0.0
H1693 H 0.04234 0.09516 0.02453 0.0
H1694 H 0.04036 0.12644 0.01581 0.0
C1695 C 0.04168 0.2199 0.94808 0.0
C1696 C 0.03371 0.17142 0.96702 0.0
H1697 H 0.0196 0.14094 0.99819 0.0
C1698 C 0.04663 0.16172 0.95959 0.0
C1699 C 0.02454 0.16398 0.98191 0.0
C1700 C 0.01216 0.17438 0.99282 0.0
C1701 C 0.0502 0.1451 0.96599 0.0
C1702 C 0.03989 0.13668 0.9796 0.0
C1703 C 0.02737 0.14668 0.98747 0.0
C1704 C 0.04169 0.11756 0.98551 0.0
C1705 C 0.06562 0.13734 0.95844 0.0
C1706 C 0.04282 0.1015 0.97177 0.0
C1707 C 0.04461 0.08389 0.97689 0.0
C1708 C 0.04496 0.08117 0.99598 0.0
C1709 C 0.04292 0.0968 0.0098 0.0
C1710 C 0.04152 0.11473 0.00468 0.0
H1711 H 0.076 0.14904 0.95491 0.0
H1712 H 0.0718 0.13029 0.96888 0.0
H1713 H 0.06096 0.12675 0.9451 0.0
H1714 H 0.042 0.10234 0.95681 0.0
H1715 H 0.04551 0.07212 0.96567 0.0
H1716 H 0.12365 0.8146 0.16943 0.0
H1717 H 0.14892 0.81317 0.19123 0.0
H1718 H 0.18496 0.83255 0.15123 0.0
H1719 H 0.16 0.83409 0.12959 0.0
H1720 H 0.17472 0.79148 0.18656 0.0
H1721 H 0.20788 0.8687 0.19985 0.0
H1722 H 0.1854 0.86004 0.18904 0.0
H1723 H 0.20378 0.85837 0.17499 0.0
C1724 C 0.13695 0.81884 0.16535 0.0
C1725 C 0.13954 0.82463 0.14761 0.0
C1726 C 0.15149 0.8179 0.17786 0.0
C1727 C 0.16914 0.82299 0.17321 0.0
C1728 C 0.1717 0.8289 0.15558 0.0
H1729 H 0.26399 0.78946 0.21913 0.0
H1730 H 0.23791 0.79293 0.20022 0.0
C1731 C 0.15724 0.8297 0.14307 0.0
C1732 C 0.1848 0.82154 0.1863 0.0
H1733 H 0.22486 0.84723 0.20948 0.0
C1734 C 0.1856 0.80375 0.19161 0.0
C1735 C 0.19915 0.83746 0.19329 0.0
C1736 C 0.19899 0.85727 0.18918 0.0
C1737 C 0.2003 0.80133 0.20303 0.0
C1738 C 0.21495 0.81707 0.20941 0.0
C1739 C 0.21391 0.835 0.20457 0.0
C1740 C 0.23137 0.81521 0.22105 0.0
C1741 C 0.19982 0.78189 0.20841 0.0
C1742 C 0.23714 0.82693 0.23904 0.0
C1743 C 0.25226 0.82501 0.24998 0.0
C1744 C 0.26228 0.81138 0.24327 0.0
C1745 C 0.25673 0.80003 0.22503 0.0
C1746 C 0.24158 0.8019 0.21416 0.0
H1747 H 0.18605 0.77317 0.2072 0.0
H1748 H 0.20749 0.77385 0.19865 0.0
H1749 H 0.20584 0.7834 0.2232 0.0
H1750 H 0.22979 0.83748 0.24481 0.0
H1751 H 0.25611 0.83428 0.26374 0.0
H1752 H 0.52559 0.81759 0.46998 0.0
H1753 H 0.5267 0.8513 0.48455 0.0
H1754 H 0.52843 0.86723 0.42916 0.0
H1755 H 0.52725 0.83377 0.41461 0.0
H1756 H 0.55235 0.88497 0.4846 0.0
H1757 H 0.48885 0.89157 0.44983 0.0
H1758 H 0.49455 0.86855 0.45002 0.0
H1759 H 0.50323 0.88315 0.43314 0.0
C1760 C 0.52604 0.82823 0.46087 0.0
C1761 C 0.52622 0.82276 0.44103 0.0
C1762 C 0.52675 0.8476 0.46926 0.0
C1763 C 0.5274 0.86204 0.45804 0.0
C1764 C 0.52756 0.85652 0.43824 0.0
H1765 H 0.54035 0.98507 0.46765 0.0
H1766 H 0.53428 0.94999 0.45907 0.0
C1767 C 0.52696 0.83726 0.42989 0.0
C1768 C 0.52841 0.88287 0.46689 0.0
H1769 H 0.50867 0.92101 0.4645 0.0
C1770 C 0.54266 0.89276 0.48036 0.0
C1771 C 0.51582 0.89329 0.46154 0.0
C1772 C 0.49965 0.88358 0.44799 0.0
C1773 C 0.54512 0.91272 0.48782 0.0
C1774 C 0.53277 0.92327 0.48207 0.0
C1775 C 0.51823 0.91319 0.46902 0.0
C1776 C 0.5354 0.94492 0.48803 0.0
C1777 C 0.56144 0.92251 0.50111 0.0
C1778 C 0.53763 0.95425 0.5073 0.0
C1779 C 0.54114 0.97461 0.51229 0.0
C1780 C 0.54222 0.98611 0.4981 0.0
C1781 C 0.53944 0.97671 0.47895 0.0
C1782 C 0.53597 0.95653 0.47401 0.0
H1783 H 0.5716 0.91361 0.50059 0.0
H1784 H 0.56747 0.93671 0.49758 0.0
H1785 H 0.5577 0.92493 0.51592 0.0
H1786 H 0.53688 0.94583 0.51854 0.0
H1787 H 0.54348 0.98132 0.52717 0.0
H1788 H 0.55001 0.30067 0.67364 0.0
H1789 H 0.52293 0.29687 0.69007 0.0
H1790 H 0.49274 0.30079 0.63898 0.0
H1791 H 0.51981 0.30444 0.62238 0.0
H1792 H 0.50009 0.32136 0.69748 0.0
H1793 H 0.46359 0.25223 0.65338 0.0
H1794 H 0.48701 0.26138 0.65252 0.0
H1795 H 0.47103 0.271 0.64014 0.0
C1796 C 0.5376 0.30058 0.6658 0.0
C1797 C 0.53718 0.30275 0.64658 0.0
C1798 C 0.52207 0.29846 0.67528 0.0
C1799 C 0.5056 0.29829 0.66582 0.0
C1800 C 0.50512 0.30048 0.6466 0.0
H1801 H 0.41178 0.31201 0.72886 0.0
H1802 H 0.43577 0.31669 0.70778 0.0
C1803 C 0.52069 0.30265 0.63711 0.0
C1804 C 0.48912 0.29621 0.67624 0.0
H1805 H 0.44793 0.26745 0.67657 0.0
C1806 C 0.48867 0.30961 0.69283 0.0
C1807 C 0.47416 0.28079 0.6704 0.0
C1808 C 0.47394 0.26541 0.65324 0.0
C1809 C 0.47387 0.30803 0.70364 0.0
C1810 C 0.45884 0.29273 0.6977 0.0
C1811 C 0.45928 0.27933 0.6811 0.0
C1812 C 0.44316 0.28955 0.70926 0.0
C1813 C 0.47474 0.32243 0.72175 0.0
C1814 C 0.43864 0.27243 0.71654 0.0
C1815 C 0.42489 0.26969 0.72845 0.0
C1816 C 0.41506 0.28394 0.73341 0.0
C1817 C 0.41899 0.30071 0.72537 0.0
C1818 C 0.43289 0.3035 0.71348 0.0
H1819 H 0.48851 0.33059 0.72653 0.0
H1820 H 0.46659 0.33292 0.71925 0.0
H1821 H 0.46937 0.31514 0.73336 0.0
H1822 H 0.44614 0.26132 0.71346 0.0
H1823 H 0.42213 0.25645 0.73409 0.0
H1824 H 0.03547 0.80234 0.61191 0.0
H1825 H 0.04545 0.8278 0.59405 0.0
H1826 H 0.03222 0.86947 0.63834 0.0
H1827 H 0.02227 0.84379 0.65667 0.0
H1828 H 0.01723 0.86786 0.59889 0.0
H1829 H 0.08998 0.87358 0.60481 0.0
H1830 H 0.07704 0.84929 0.59922 0.0
H1831 H 0.07585 0.86399 0.6218 0.0
C1832 C 0.03489 0.81693 0.61807 0.0
C1833 C 0.02809 0.82107 0.63573 0.0
C1834 C 0.0407 0.83149 0.60785 0.0
C1835 C 0.03976 0.8505 0.61499 0.0
C1836 C 0.03319 0.85485 0.63272 0.0
H1837 H 0.07374 0.94385 0.55194 0.0
H1838 H 0.06958 0.92496 0.57749 0.0
C1839 C 0.02754 0.84023 0.64315 0.0
C1840 C 0.04434 0.86524 0.60292 0.0
H1841 H 0.07797 0.88605 0.57913 0.0
C1842 C 0.03056 0.87214 0.59481 0.0
C1843 C 0.06173 0.87073 0.59765 0.0
C1844 C 0.07706 0.86417 0.60643 0.0
C1845 C 0.03359 0.88367 0.58084 0.0
C1846 C 0.05079 0.8883 0.57484 0.0
C1847 C 0.06475 0.88222 0.58362 0.0
C1848 C 0.05438 0.89918 0.5592 0.0
C1849 C 0.01833 0.89056 0.57231 0.0
C1850 C 0.04763 0.89067 0.54042 0.0
C1851 C 0.05009 0.90135 0.52579 0.0
C1852 C 0.05924 0.92073 0.52979 0.0
C1853 C 0.06651 0.92897 0.54852 0.0
C1854 C 0.06418 0.91824 0.56309 0.0
H1855 H 0.00684 0.88898 0.581 0.0
H1856 H 0.02252 0.90591 0.57088 0.0
H1857 H 0.01393 0.88194 0.55785 0.0
H1858 H 0.04015 0.87589 0.53718 0.0
H1859 H 0.04425 0.89471 0.51152 0.0
H1860 H 0.55512 0.80852 0.84811 0.0
H1861 H 0.52838 0.80887 0.82823 0.0
H1862 H 0.50979 0.84164 0.87595 0.0
H1863 H 0.53615 0.84119 0.89592 0.0
H1864 H 0.4837 0.81132 0.85617 0.0
H1865 H 0.51833 0.85573 0.80728 0.0
H1866 H 0.52608 0.83424 0.80934 0.0
H1867 H 0.52898 0.85337 0.82959 0.0
C1868 C 0.54531 0.81574 0.8544 0.0
C1869 C 0.54787 0.82486 0.87365 0.0
C1870 C 0.53009 0.81603 0.84297 0.0
C1871 C 0.51722 0.82552 0.85054 0.0
C1872 C 0.51958 0.83429 0.86979 0.0
H1873 H 0.43367 0.86784 0.7983 0.0
H1874 H 0.46088 0.8633 0.81427 0.0
C1875 C 0.53471 0.83401 0.8812 0.0
C1876 C 0.50119 0.8264 0.83861 0.0
H1877 H 0.48732 0.84471 0.80076 0.0
C1878 C 0.48447 0.81852 0.84398 0.0
C1879 C 0.50226 0.83603 0.82287 0.0
C1880 C 0.51985 0.84549 0.81695 0.0
C1881 C 0.46879 0.8201 0.83414 0.0
C1882 C 0.46984 0.82954 0.81827 0.0
C1883 C 0.48655 0.83735 0.81283 0.0
C1884 C 0.45373 0.83214 0.80766 0.0
C1885 C 0.45124 0.8122 0.84121 0.0
C1886 C 0.44085 0.81615 0.79829 0.0
C1887 C 0.42529 0.8187 0.78914 0.0
C1888 C 0.42236 0.83731 0.78906 0.0
C1889 C 0.43555 0.85332 0.79797 0.0
C1890 C 0.45109 0.85075 0.80716 0.0
H1891 H 0.45288 0.8096 0.85602 0.0
H1892 H 0.44216 0.82222 0.84072 0.0
H1893 H 0.44489 0.79826 0.83193 0.0
H1894 H 0.44279 0.80167 0.79813 0.0
H1895 H 0.41555 0.80608 0.78209 0.0
H1896 H 0.50607 0.20651 0.15703 0.0
H1897 H 0.50671 0.1721 0.15108 0.0
H1898 H 0.49107 0.16847 0.09156 0.0
H1899 H 0.49053 0.20265 0.09733 0.0
H1900 H 0.47608 0.13395 0.10989 0.0
H1901 H 0.54959 0.16063 0.11948 0.0
H1902 H 0.53638 0.16855 0.13787 0.0
H1903 H 0.53505 0.17646 0.11546 0.0
C1904 C 0.5022 0.19819 0.14282 0.0
C1905 C 0.49847 0.20726 0.12758 0.0
C1906 C 0.50263 0.17859 0.13944 0.0
C1907 C 0.49911 0.16788 0.12086 0.0
C1908 C 0.49382 0.17653 0.106 0.0
H1909 H 0.50866 0.07864 0.03695 0.0
H1910 H 0.49851 0.10137 0.0604 0.0
C1911 C 0.49359 0.19606 0.1093 0.0
C1912 C 0.50346 0.14875 0.11598 0.0
H1913 H 0.53856 0.12895 0.10394 0.0
C1914 C 0.48974 0.13264 0.10903 0.0
C1915 C 0.52129 0.1471 0.11502 0.0
C1916 C 0.53652 0.16404 0.12228 0.0
C1917 C 0.49339 0.1152 0.10007 0.0
C1918 C 0.51118 0.11412 0.09748 0.0
C1919 C 0.52492 0.12978 0.10581 0.0
C1920 C 0.51583 0.09828 0.08402 0.0
C1921 C 0.4781 0.09832 0.09299 0.0
C1922 C 0.52922 0.08912 0.08929 0.0
C1923 C 0.5355 0.07646 0.07566 0.0
C1924 C 0.52854 0.07284 0.0565 0.0
C1925 C 0.51459 0.08137 0.05148 0.0
C1926 C 0.50848 0.09412 0.06501 0.0
H1927 H 0.46719 0.09845 0.10244 0.0
H1928 H 0.47272 0.09943 0.07861 0.0
H1929 H 0.48223 0.08436 0.09214 0.0
H1930 H 0.53519 0.09221 0.10383 0.0
H1931 H 0.54616 0.07003 0.08005 0.0
H1932 H 0.15632 0.30994 0.38858 0.0
H1933 H 0.18123 0.30342 0.37108 0.0
H1934 H 0.1458 0.28019 0.32011 0.0
H1935 H 0.1206 0.2864 0.33769 0.0
H1936 H 0.1727 0.25925 0.32539 0.0
H1937 H 0.20044 0.33772 0.33318 0.0
H1938 H 0.19661 0.32985 0.3554 0.0
H1939 H 0.17815 0.32811 0.3383 0.0
C1940 C 0.15376 0.30324 0.3737 0.0
C1941 C 0.13652 0.29889 0.36446 0.0
C1942 C 0.16803 0.29959 0.3637 0.0
C1943 C 0.16541 0.29172 0.34421 0.0
C1944 C 0.1481 0.28639 0.33513 0.0
H1945 H 0.25425 0.30972 0.276 0.0
H1946 H 0.2246 0.30655 0.28691 0.0
C1947 C 0.13374 0.28994 0.34519 0.0
C1948 C 0.1809 0.29009 0.33322 0.0
H1949 H 0.21899 0.31695 0.32142 0.0
C1950 C 0.18278 0.27184 0.32435 0.0
C1951 C 0.19389 0.30658 0.33167 0.0
C1952 C 0.19214 0.32669 0.33998 0.0
C1953 C 0.19758 0.26959 0.31434 0.0
C1954 C 0.21095 0.28603 0.3134 0.0
C1955 C 0.20881 0.3043 0.32204 0.0
C1956 C 0.22746 0.28494 0.3039 0.0
C1957 C 0.19854 0.24966 0.3047 0.0
C1958 C 0.23886 0.27347 0.30929 0.0
C1959 C 0.2556 0.27483 0.30245 0.0
C1960 C 0.2612 0.28763 0.29011 0.0
C1961 C 0.24981 0.29897 0.28464 0.0
C1962 C 0.23299 0.29737 0.29114 0.0
H1963 H 0.18512 0.24015 0.30102 0.0
H1964 H 0.20534 0.25015 0.29155 0.0
H1965 H 0.20606 0.24311 0.31449 0.0
H1966 H 0.23528 0.26429 0.31962 0.0
H1967 H 0.26447 0.26658 0.30756 0.0
H1968 H 0.94468 0.034 0.20651 0.0
H1969 H 0.95797 0.03254 0.17602 0.0
H1970 H 0.98592 0.09157 0.19335 0.0
H1971 H 0.97273 0.09287 0.22394 0.0
H1972 H 0.95901 0.04731 0.14467 0.0
H1973 H 0.02782 0.07198 0.17765 0.0
H1974 H 0.00938 0.06655 0.19162 0.0
H1975 H 0.01469 0.08946 0.18391 0.0
C1976 C 0.95319 0.04698 0.20371 0.0
C1977 C 0.95672 0.06384 0.21801 0.0
C1978 C 0.96114 0.04604 0.18603 0.0
C1979 C 0.97365 0.06174 0.18163 0.0
C1980 C 0.97688 0.0788 0.19577 0.0
H1981 H 0.0414 0.07884 0.08324 0.0
H1982 H 0.02663 0.08213 0.11279 0.0
C1983 C 0.96883 0.07974 0.21344 0.0
C1984 C 0.98311 0.06009 0.16267 0.0
H1985 H 0.02397 0.06867 0.14411 0.0
C1986 C 0.97325 0.05198 0.14481 0.0
C1987 C 1.00186 0.066 0.16179 0.0
C1988 C 0.01411 0.07381 0.17974 0.0
C1989 C 0.98109 0.05012 0.12696 0.0
C1990 C 0.99986 0.0559 0.12608 0.0
C1991 C 0.00971 0.06406 0.14395 0.0
C1992 C 0.00938 0.05368 0.10716 0.0
C1993 C 0.96875 0.04256 0.10903 0.0
C1994 C 1.00552 0.03653 0.09317 0.0
C1995 C 0.01414 0.03461 0.07594 0.0
C1996 C 0.02746 0.0496 0.07154 0.0
C1997 C 0.03152 0.06668 0.0856 0.0
C1998 C 0.02285 0.06861 0.10284 0.0
H1999 H 0.95526 0.04513 0.1111 0.0
H2000 H 0.97376 0.0494 0.09702 0.0
H2001 H 0.96748 0.02676 0.10513 0.0
H2002 H 0.99589 0.0242 0.0956 0.0
H2003 H 0.01037 0.02106 0.06605 0.0
H2004 H 0.3003 0.68887 0.47973 0.0
H2005 H 0.28748 0.70142 0.45401 0.0
H2006 H 0.26403 0.64359 0.42499 0.0
H2007 H 0.27685 0.63066 0.45111 0.0
H2008 H 0.28765 0.67884 0.40501 0.0
H2009 H 0.22836 0.69093 0.44148 0.0
H2010 H 0.24887 0.69537 0.45635 0.0
H2011 H 0.23897 0.67131 0.44434 0.0
C2012 C 0.2925 0.67873 0.46788 0.0
C2013 C 0.28949 0.65877 0.46747 0.0
C2014 C 0.28518 0.68595 0.45321 0.0
C2015 C 0.27471 0.67341 0.43781 0.0
C2016 C 0.27203 0.65342 0.43691 0.0
H2017 H 0.24969 0.73672 0.34829 0.0
H2018 H 0.24853 0.70816 0.36299 0.0
C2019 C 0.27939 0.6461 0.45173 0.0
C2020 C 0.26674 0.68188 0.42302 0.0
H2021 H 0.23733 0.71045 0.41829 0.0
C2022 C 0.27627 0.68524 0.4074 0.0
C2023 C 0.25201 0.69026 0.42645 0.0
C2024 C 0.24132 0.68673 0.44299 0.0
C2025 C 0.27234 0.69817 0.39599 0.0
C2026 C 0.25838 0.7077 0.40029 0.0
C2027 C 0.24801 0.70314 0.41505 0.0
C2028 C 0.25613 0.72437 0.39155 0.0
C2029 C 0.2841 0.70276 0.38047 0.0
C2030 C 0.25988 0.74283 0.4029 0.0
C2031 C 0.26049 0.75913 0.39459 0.0
C2032 C 0.25737 0.75721 0.37478 0.0
C2033 C 0.25246 0.73862 0.36358 0.0
C2034 C 0.2518 0.72231 0.37193 0.0
H2035 H 0.29584 0.69615 0.38082 0.0
H2036 H 0.27641 0.69719 0.36639 0.0
H2037 H 0.28878 0.71859 0.3818 0.0
H2038 H 0.26325 0.7447 0.4181 0.0
H2039 H 0.2644 0.77324 0.40356 0.0
H2040 H 0.61695 0.00842 0.71803 0.0
H2041 H 0.60323 1.00039 0.68536 0.0
H2042 H 0.6544 0.01725 0.66483 0.0
H2043 H 0.66833 0.02529 0.69762 0.0
H2044 H 0.62807 0.03941 0.65809 0.0
H2045 H 0.60119 0.96073 0.63506 0.0
H2046 H 0.59738 0.97083 0.6588 0.0
H2047 H 0.61961 0.97048 0.65309 0.0
C2048 C 0.62538 0.00981 0.70652 0.0
C2049 C 0.64368 0.01774 0.71036 0.0
C2050 C 0.61752 1.00504 0.68785 0.0
C2051 C 0.62781 0.00815 0.67271 0.0
C2052 C 0.64629 0.01459 0.67636 0.0
H2053 H 0.59889 0.03318 0.56321 0.0
H2054 H 0.61424 0.02629 0.59074 0.0
C2055 C 0.65422 0.01917 0.69508 0.0
C2056 C 0.61894 0.00862 0.65403 0.0
H2057 H 0.59061 0.98145 0.61658 0.0
C2058 C 0.62008 0.02671 0.64886 0.0
C2059 C 0.60815 0.99208 0.6424 0.0
C2060 C 0.60654 0.97237 0.64748 0.0
C2061 C 0.61049 0.02883 0.63249 0.0
C2062 C 0.59994 0.01226 0.62055 0.0
C2063 C 0.59877 0.9941 0.62571 0.0
C2064 C 0.5904 0.01374 0.60252 0.0
C2065 C 0.61133 0.04893 0.62854 0.0
C2066 C 0.57186 0.00779 0.5993 0.0
C2067 C 0.56291 0.01126 0.58309 0.0
C2068 C 0.57238 0.02104 0.5701 0.0
C2069 C 0.59101 0.02603 0.57301 0.0
C2070 C 0.5999 0.02216 0.58886 0.0
H2071 H 0.61523 0.05997 0.64172 0.0
H2072 H 0.62144 0.05214 0.61846 0.0
H2073 H 0.59837 0.05035 0.62214 0.0
H2074 H 0.56428 1.001 0.60958 0.0
H2075 H 0.54864 0.00669 0.58101 0.0
H2076 H 0.30698 0.40014 0.96536 0.0
H2077 H 0.30845 0.38434 0.93259 0.0
H2078 H 0.31078 0.33138 0.95207 0.0
H2079 H 0.30955 0.34717 0.98491 0.0
H2080 H 0.33439 0.33901 0.9248 0.0
H2081 H 0.26738 0.34608 0.89995 0.0
H2082 H 0.2816 0.36868 0.91089 0.0
H2083 H 0.27512 0.35025 0.92487 0.0
C2084 C 0.30785 0.38515 0.96269 0.0
C2085 C 0.30801 0.37491 0.97779 0.0
C2086 C 0.30859 0.37607 0.9439 0.0
C2087 C 0.30939 0.35651 0.93972 0.0
C2088 C 0.31006 0.34642 0.95485 0.0
H2089 H 0.30378 0.28225 0.82589 0.0
H2090 H 0.30646 0.29224 0.86091 0.0
C2091 C 0.30932 0.35549 0.97364 0.0
C2092 C 0.30928 0.34658 0.91959 0.0
H2093 H 0.28566 0.33682 0.87591 0.0
C2094 C 0.32362 0.33831 0.91417 0.0
C2095 C 0.29517 0.34546 0.90565 0.0
C2096 C 0.27886 0.35291 0.91063 0.0
C2097 C 0.32456 0.32978 0.8951 0.0
C2098 C 0.3108 0.3294 0.88111 0.0
C2099 C 0.29623 0.33712 0.88664 0.0
C2100 C 0.31188 0.32284 0.86039 0.0
C2101 C 0.34063 0.32208 0.88976 0.0
C2102 C 0.31443 0.33663 0.84856 0.0
C2103 C 0.31299 0.33098 0.82881 0.0
C2104 C 0.30908 0.31139 0.8203 0.0
C2105 C 0.30722 0.29744 0.83208 0.0
C2106 C 0.30866 0.30316 0.85205 0.0
H2107 H 0.35024 0.32337 0.90227 0.0
H2108 H 0.33649 0.30668 0.88286 0.0
H2109 H 0.34736 0.33012 0.87928 0.0
H2110 H 0.31686 0.35184 0.8546 0.0
H2111 H 0.31427 0.34203 0.82007 0.0
H2112 H 0.97991 0.06397 0.31373 0.0
H2113 H 0.99486 0.0592 0.34331 0.0
H2114 H 0.94735 0.0614 0.37119 0.0
H2115 H 0.9324 0.06597 0.34162 0.0
H2116 H 1.00565 0.07793 0.3786 0.0
H2117 H 0.95583 0.01514 0.38963 0.0
H2118 H 0.95517 0.02462 0.36789 0.0
H2119 H 0.94632 0.03565 0.38863 0.0
C2120 C 0.97246 0.06335 0.32606 0.0
C2121 C 0.95455 0.06533 0.32455 0.0
C2122 C 0.98121 0.06062 0.34334 0.0
C2123 C 0.97259 0.05939 0.36029 0.0
C2124 C 0.95472 0.06158 0.3588 0.0
H2125 H 0.99837 0.04281 0.47966 0.0
H2126 H 0.98569 0.04643 0.44886 0.0
C2127 C 0.94601 0.06442 0.34155 0.0
C2128 C 0.9822 0.05615 0.37916 0.0
H2129 H 0.97756 0.02944 0.41547 0.0
C2130 C 0.99937 0.06718 0.38646 0.0
C2131 C 0.97473 0.04219 0.39026 0.0
C2132 C 0.9571 0.02858 0.38365 0.0
C2133 C 0.00854 0.06528 0.40397 0.0
C2134 C 1.00099 0.0514 0.41516 0.0
C2135 C 0.9839 0.04023 0.40768 0.0
C2136 C 0.00983 0.04874 0.43475 0.0
C2137 C 0.0261 0.07897 0.41063 0.0
C2138 C 0.02811 0.04832 0.43847 0.0
C2139 C 0.03566 0.04626 0.45675 0.0
C2140 C 0.02529 0.04411 0.47234 0.0
C2141 C 0.00711 0.0442 0.46842 0.0
C2142 C 0.99966 0.0463 0.45038 0.0
H2143 H 0.0276 0.09212 0.40415 0.0
H2144 H 0.02768 0.08344 0.42635 0.0
H2145 H 0.03696 0.07173 0.40629 0.0
H2146 H 0.03674 0.04944 0.42716 0.0
H2147 H 0.04968 0.04652 0.45866 0.0
H2148 H 0.29932 0.6573 0.57617 0.0
H2149 H 0.29978 0.67316 0.6094 0.0
H2150 H 0.32828 0.72654 0.59593 0.0
H2151 H 0.32779 0.71093 0.56284 0.0
H2152 H 0.32856 0.70011 0.63937 0.0
H2153 H 0.27674 0.73336 0.60991 0.0
H2154 H 0.28262 0.71208 0.59719 0.0
H2155 H 0.29684 0.73535 0.59822 0.0
C2156 C 0.30629 0.6722 0.58049 0.0
C2157 C 0.31332 0.68298 0.56693 0.0
C2158 C 0.30646 0.68126 0.59941 0.0
C2159 C 0.31375 0.70107 0.6049 0.0
C2160 C 0.3224 0.71129 0.59184 0.0
H2161 H 0.30752 0.79022 0.69988 0.0
H2162 H 0.31119 0.77172 0.66897 0.0
C2163 C 0.32215 0.70234 0.57298 0.0
C2164 C 0.31035 0.71168 0.62332 0.0
H2165 H 0.28678 0.74415 0.64243 0.0
C2166 C 0.31938 0.70967 0.64012 0.0
C2167 C 0.29836 0.72413 0.62412 0.0
C2168 C 0.28795 0.72633 0.60644 0.0
C2169 C 0.317 0.72019 0.65779 0.0
C2170 C 0.30502 0.73268 0.65857 0.0
C2171 C 0.29595 0.73458 0.64174 0.0
C2172 C 0.30171 0.74389 0.67676 0.0
C2173 C 0.32762 0.71821 0.67541 0.0
C2174 C 0.29439 0.73438 0.69097 0.0
C2175 C 0.29242 0.74488 0.70862 0.0
C2176 C 0.29779 0.76511 0.71242 0.0
C2177 C 0.30384 0.77465 0.69763 0.0
C2178 C 0.30587 0.76411 0.67995 0.0
H2179 H 0.33925 0.71194 0.67185 0.0
H2180 H 0.33236 0.7324 0.68496 0.0
H2181 H 0.31908 0.70852 0.68335 0.0
H2182 H 0.29054 0.71879 0.68853 0.0
H2183 H 0.28725 0.73701 0.71945 0.0
H2184 H 0.69492 0.06682 0.82304 0.0
H2185 H 0.68521 0.08374 0.85203 0.0
H2186 H 0.63143 0.069 0.82594 0.0
H2187 H 0.64085 0.05219 0.79728 0.0
H2188 H 0.64577 0.11008 0.84483 0.0
H2189 H 0.653 0.0549 0.88925 0.0
H2190 H 0.67108 0.06433 0.87624 0.0
H2191 H 0.65124 0.04902 0.86358 0.0
C2192 C 0.68104 0.06719 0.82357 0.0
C2193 C 0.66864 0.05816 0.80793 0.0
C2194 C 0.67555 0.07687 0.84006 0.0
C2195 C 0.65763 0.0776 0.841 0.0
C2196 C 0.64533 0.06867 0.82539 0.0
H2197 H 0.57153 0.09684 0.89665 0.0
H2198 H 0.59569 0.09751 0.87613 0.0
C2199 C 0.65075 0.05901 0.80905 0.0
C2200 C 0.65111 0.087 0.85828 0.0
H2201 H 0.63619 0.07729 0.90026 0.0
C2202 C 0.64405 0.10326 0.85722 0.0
C2203 C 0.64905 0.07812 0.87442 0.0
C2204 C 0.65643 0.0606 0.8761 0.0
C2205 C 0.63388 0.11008 0.87133 0.0
C2206 C 0.63044 0.10011 0.88661 0.0
C2207 C 0.63876 0.08485 0.88846 0.0
C2208 C 0.61645 0.10335 0.89926 0.0
C2209 C 0.62636 0.12743 0.86936 0.0
C2210 C 0.62009 0.10654 0.91909 0.0
C2211 C 0.60626 0.10607 0.93086 0.0
C2212 C 0.58855 0.10224 0.92296 0.0
C2213 C 0.58504 0.10007 0.90316 0.0
C2214 C 0.59886 0.10052 0.89142 0.0
H2215 H 0.63512 0.1373 0.86173 0.0
H2216 H 0.61328 0.12261 0.86086 0.0
H2217 H 0.62454 0.13555 0.88345 0.0
H2218 H 0.63356 0.10865 0.92542 0.0
H2219 H 0.60937 0.10801 0.9461 0.0
H2220 H 0.29738 0.3918 0.09013 0.0
H2221 H 0.2951 0.38253 0.12178 0.0
H2222 H 0.31396 0.33135 0.10144 0.0
H2223 H 0.31623 0.34019 0.07033 0.0
H2224 H 0.2757 0.34584 0.13248 0.0
H2225 H 0.34843 0.35905 0.14934 0.0
H2226 H 0.33847 0.36926 0.13118 0.0
H2227 H 0.34058 0.3446 0.12632 0.0
C2228 C 0.30098 0.37856 0.0924 0.0
C2229 C 0.30713 0.36692 0.07751 0.0
C2230 C 0.29967 0.37325 0.11051 0.0
C2231 C 0.30463 0.35634 0.11413 0.0
C2232 C 0.31034 0.3446 0.0992 0.0
H2233 H 0.2849 0.28349 0.19944 0.0
H2234 H 0.28508 0.2984 0.17109 0.0
C2235 C 0.31157 0.34976 0.08126 0.0
C2236 C 0.30411 0.35063 0.13333 0.0
H2237 H 0.33051 0.34005 0.16831 0.0
C2238 C 0.2877 0.34481 0.14044 0.0
C2239 C 0.31974 0.34934 0.14386 0.0
C2240 C 0.33784 0.35605 0.13742 0.0
C2241 C 0.28647 0.33709 0.15736 0.0
C2242 C 0.30206 0.3349 0.16738 0.0
C2243 C 0.31851 0.34145 0.16062 0.0
C2244 C 0.30166 0.32579 0.18481 0.0
C2245 C 0.26847 0.33142 0.16438 0.0
C2246 C 0.3113 0.3359 0.202 0.0
C2247 C 0.31133 0.32735 0.21826 0.0
C2248 C 0.30185 0.30832 0.21779 0.0
C2249 C 0.29234 0.29814 0.20048 0.0
C2250 C 0.29229 0.30675 0.18422 0.0
H2251 H 0.25881 0.33891 0.1585 0.0
H2252 H 0.26333 0.31568 0.15973 0.0
H2253 H 0.26923 0.33474 0.18017 0.0
H2254 H 0.31876 0.35054 0.20289 0.0
H2255 H 0.31881 0.33574 0.23124 0.0
H2256 H 0.25252 0.95604 0.022 0.0
H2257 H 0.2332 0.97838 0.03017 0.0
H2258 H 0.27858 0.02606 0.04092 0.0
H2259 H 0.29809 1.00374 0.03244 0.0
H2260 H 0.2325 1.00474 0.06329 0.0
H2261 H 0.24623 0.04108 1.0012 0.0
H2262 H 0.25252 0.01868 0.00314 0.0
H2263 H 0.26525 0.04098 0.01675 0.0
C2264 C 0.25844 0.97126 0.02618 0.0
C2265 C 0.27682 0.97815 0.02642 0.0
C2266 C 0.24737 0.98401 0.03089 0.0
C2267 C 0.25443 1.00389 0.03589 0.0
C2268 C 0.27284 0.0108 0.03677 0.0
H2269 H 0.18337 0.08022 0.07607 0.0
H2270 H 0.20926 0.06554 0.07426 0.0
C2271 C 0.28396 0.99802 0.03202 0.0
C2272 C 0.24227 0.01722 0.03958 0.0
H2273 H 0.22579 0.05156 0.0213 0.0
C2274 C 0.23114 0.01515 0.05427 0.0
C2275 C 0.24046 0.03063 0.02763 0.0
C2276 C 0.25162 0.03296 0.01119 0.0
C2277 C 0.2179 0.02576 0.05704 0.0
C2278 C 0.21597 0.03902 0.04496 0.0
C2279 C 0.22741 0.04147 0.0306 0.0
C2280 C 0.20111 0.04913 0.04584 0.0
C2281 C 0.20557 0.02203 0.07226 0.0
C2282 C 0.18831 0.04528 0.03023 0.0
C2283 C 0.17366 0.05376 0.03114 0.0
C2284 C 0.1715 0.06631 0.04769 0.0
C2285 C 0.18466 0.07065 0.06311 0.0
C2286 C 0.19937 0.06214 0.06217 0.0
H2287 H 0.20665 0.00875 0.07777 0.0
H2288 H 0.20893 0.03436 0.08436 0.0
H2289 H 0.19159 0.02065 0.06671 0.0
H2290 H 0.18947 0.03537 0.01745 0.0
H2291 H 0.16394 0.05041 0.01889 0.0
H2292 H 0.75105 0.63622 0.99993 0.0
H2293 H 0.72256 0.61362 0.99932 0.0
H2294 H 0.69501 0.65771 0.98911 0.0
H2295 H 0.72328 0.68018 0.98928 0.0
H2296 H 0.69664 0.61527 0.02237 0.0
H2297 H 0.66874 0.61347 0.94913 0.0
H2298 H 0.69177 0.62376 0.95716 0.0
H2299 H 0.67517 0.6376 0.96235 0.0
C2300 C 0.73895 0.64107 0.99731 0.0
C2301 C 0.73959 0.66009 0.99456 0.0
C2302 C 0.72262 0.6281 0.997 0.0
C2303 C 0.70652 0.63376 0.99384 0.0
C2304 C 0.70715 0.65272 0.99106 0.0
H2305 H 0.60465 0.58841 0.03052 0.0
H2306 H 0.63413 0.60583 0.0261 0.0
C2307 C 0.72342 0.66566 0.9913 0.0
C2308 C 0.68911 0.62031 0.99454 0.0
H2309 H 0.64805 0.60166 0.97049 0.0
C2310 C 0.68611 0.61217 0.01092 0.0
C2311 C 0.67533 0.61588 0.97951 0.0
C2312 C 0.67796 0.62297 0.96097 0.0
C2313 C 0.66962 0.60043 0.013 0.0
C2314 C 0.65551 0.59699 0.99848 0.0
C2315 C 0.65871 0.60447 0.98176 0.0
C2316 C 0.63723 0.58629 1.00073 0.0
C2317 C 0.66754 0.59177 0.03077 0.0
C2318 C 0.62866 0.56978 0.98752 0.0
C2319 C 0.61154 0.55976 0.98991 0.0
C2320 C 0.60259 0.56607 0.00553 0.0
C2321 C 0.61109 0.58288 0.01843 0.0
C2322 C 0.6281 0.59286 0.01601 0.0
H2323 H 0.68053 0.59056 0.0373 0.0
H2324 H 0.66178 0.60122 0.04138 0.0
H2325 H 0.65859 0.57725 0.02771 0.0
H2326 H 0.63529 0.5645 0.97547 0.0
H2327 H 0.60535 0.5471 0.97951 0.0
H2328 H 0.72582 0.4777 0.26611 0.0
H2329 H 0.74152 0.45125 0.266 0.0
H2330 H 0.69181 0.41153 0.2659 0.0
H2331 H 0.67614 0.438 0.2661 0.0
H2332 H 0.7483 0.42694 0.28836 0.0
H2333 H 0.71016 0.37778 0.22562 0.0
H2334 H 0.70797 0.40242 0.2319 0.0
H2335 H 0.69632 0.38416 0.24383 0.0
C2336 C 0.71801 0.46336 0.2659 0.0
C2337 C 0.69924 0.46071 0.26591 0.0
C2338 C 0.72722 0.44787 0.26592 0.0
C2339 C 0.71841 0.42838 0.26558 0.0
C2340 C 0.69961 0.42575 0.26564 0.0
H2341 H 0.76973 0.33495 0.29984 0.0
H2342 H 0.75554 0.36195 0.29766 0.0
C2343 C 0.69041 0.4413 0.26587 0.0
C2344 C 0.72874 0.4114 0.26558 0.0
H2345 H 0.72966 0.36458 0.24379 0.0
C2346 C 0.74398 0.41341 0.27848 0.0
C2347 C 0.72411 0.39313 0.2528 0.0
C2348 C 0.70888 0.38921 0.23762 0.0
C2349 C 0.75381 0.39844 0.2793 0.0
C2350 C 0.74888 0.38001 0.26689 0.0
C2351 C 0.73394 0.37815 0.25364 0.0
C2352 C 0.75865 0.36278 0.26796 0.0
C2353 C 0.76988 0.40282 0.2935 0.0
C2354 C 0.76574 0.35288 0.25216 0.0
C2355 C 0.77444 0.33707 0.25351 0.0
C2356 C 0.77639 0.32992 0.27074 0.0
C2357 C 0.76913 0.33975 0.2863 0.0
C2358 C 0.76081 0.3556 0.28505 0.0
H2359 H 0.7752 0.41859 0.29783 0.0
H2360 H 0.76612 0.39697 0.30645 0.0
H2361 H 0.78056 0.39608 0.28763 0.0
H2362 H 0.76458 0.35739 0.23853 0.0
H2363 H 0.77921 0.33013 0.24084 0.0
H2364 H 0.86064 0.46604 0.5288 0.0
H2365 H 0.89124 0.48435 0.53053 0.0
H2366 H 0.90446 0.4378 0.49203 0.0
H2367 H 0.87396 0.41924 0.49026 0.0
H2368 H 0.92206 0.46478 0.54181 0.0
H2369 H 0.92511 0.49198 0.47331 0.0
H2370 H 0.90474 0.48731 0.48464 0.0
H2371 H 0.9134 0.46759 0.47319 0.0
C2372 C 0.86995 0.45979 0.52043 0.0
C2373 C 0.86487 0.4411 0.50949 0.0
C2374 C 0.88742 0.47028 0.52147 0.0
C2375 C 0.89999 0.46239 0.51136 0.0
C2376 C 0.89485 0.44413 0.49981 0.0
H2377 H 0.01288 0.50379 0.50421 0.0
H2378 H 0.98177 0.48632 0.49865 0.0
C2379 C 0.87744 0.43354 0.49889 0.0
C2380 C 0.91884 0.47248 0.51425 0.0
H2381 H 0.95172 0.49835 0.49323 0.0
C2382 C 0.92858 0.47224 0.53128 0.0
C2383 C 0.92724 0.48182 0.50028 0.0
C2384 C 0.91717 0.48235 0.4818 0.0
C2385 C 0.94665 0.4811 0.53474 0.0
C2386 C 0.95502 0.49098 0.521 0.0
C2387 C 0.94527 0.49097 0.50383 0.0
C2388 C 0.97381 0.50157 0.5243 0.0
C2389 C 0.95665 0.47929 0.55285 0.0
C2390 C 0.97962 0.51603 0.54045 0.0
C2391 C 0.99735 0.52581 0.54371 0.0
C2392 C 0.00941 0.52181 0.53051 0.0
C2393 C 1.00367 0.50739 0.51434 0.0
C2394 C 0.98596 0.4974 0.51121 0.0
H2395 H 0.95009 0.46642 0.5585 0.0
H2396 H 0.97051 0.47824 0.55058 0.0
H2397 H 0.95695 0.49217 0.56386 0.0
H2398 H 0.97042 0.51981 0.55051 0.0
H2399 H 1.0016 0.53677 0.55636 0.0
H2400 H 0.42884 0.12087 0.28549 0.0
H2401 H 0.41625 0.14553 0.27347 0.0
H2402 H 0.36831 0.10314 0.25194 0.0
H2403 H 0.38062 0.07853 0.26446 0.0
H2404 H 0.40533 0.14888 0.23817 0.0
H2405 H 0.3487 0.1448 0.28247 0.0
H2406 H 0.36675 0.13322 0.28655 0.0
H2407 H 0.34907 0.12197 0.26822 0.0
C2408 C 0.41558 0.11681 0.27827 0.0
C2409 C 0.40565 0.09779 0.27607 0.0
C2410 C 0.40842 0.13092 0.27136 0.0
C2411 C 0.39122 0.12629 0.26208 0.0
C2412 C 0.38143 0.10719 0.25949 0.0
H2413 H 0.34441 0.19237 0.19042 0.0
H2414 H 0.36085 0.17084 0.20298 0.0
C2415 C 0.38851 0.0931 0.26657 0.0
C2416 C 0.3836 0.14142 0.25503 0.0
H2417 H 0.34799 0.16257 0.25732 0.0
C2418 C 0.39284 0.15196 0.24243 0.0
C2419 C 0.36747 0.14571 0.26088 0.0
C2420 C 0.35752 0.13598 0.27543 0.0
C2421 C 0.38619 0.16634 0.2352 0.0
C2422 C 0.36964 0.16994 0.24034 0.0
C2423 C 0.3606 0.15968 0.25323 0.0
C2424 C 0.36127 0.18413 0.23251 0.0
C2425 C 0.39709 0.17774 0.2224 0.0
C2426 C 0.35596 0.19871 0.24489 0.0
C2427 C 0.34634 0.21081 0.23776 0.0
C2428 C 0.3419 0.20866 0.21808 0.0
C2429 C 0.34778 0.19451 0.20564 0.0
C2430 C 0.35725 0.18224 0.2128 0.0
H2431 H 0.41136 0.17752 0.22462 0.0
H2432 H 0.39246 0.17125 0.20732 0.0
H2433 H 0.39573 0.19298 0.22484 0.0
H2434 H 0.35893 0.20047 0.26014 0.0
H2435 H 0.34214 0.22168 0.24769 0.0
H2436 H 0.31854 0.12677 0.51173 0.0
H2437 H 0.34262 0.1103 0.51617 0.0
H2438 H 0.38063 0.16446 0.52351 0.0
H2439 H 0.35652 0.18092 0.51814 0.0
H2440 H 0.39345 0.13831 0.50277 0.0
H2441 H 0.3687 0.10696 0.56406 0.0
H2442 H 0.35257 0.09937 0.54384 0.0
H2443 H 0.35892 0.12451 0.55467 0.0
C2444 C 0.33201 0.13524 0.51444 0.0
C2445 C 0.33553 0.15524 0.51476 0.0
C2446 C 0.34583 0.12578 0.51712 0.0
C2447 C 0.36358 0.13608 0.52071 0.0
C2448 C 0.36713 0.15608 0.52091 0.0
H2449 H 0.44447 0.08218 0.5658 0.0
H2450 H 0.4236 0.10264 0.56106 0.0
C2451 C 0.35329 0.16553 0.5179 0.0
C2452 C 0.37836 0.12593 0.5238 0.0
H2453 H 0.39124 0.09374 0.5488 0.0
C2454 C 0.39301 0.12869 0.51297 0.0
C2455 C 0.37816 0.11358 0.53734 0.0
C2456 C 0.36384 0.1111 0.55077 0.0
C2457 C 0.40711 0.11926 0.51499 0.0
C2458 C 0.4064 0.10607 0.52776 0.0
C2459 C 0.39188 0.10359 0.53881 0.0
C2460 C 0.42054 0.0949 0.53029 0.0
C2461 C 0.42282 0.12401 0.50372 0.0
C2462 C 0.42624 0.0838 0.51465 0.0
C2463 C 0.43861 0.07244 0.51738 0.0
C2464 C 0.44523 0.07151 0.53582 0.0
C2465 C 0.43967 0.08268 0.55141 0.0
C2466 C 0.42763 0.09432 0.54869 0.0
H2467 H 0.42416 0.13856 0.49996 0.0
H2468 H 0.43536 0.12351 0.51173 0.0
H2469 H 0.42091 0.11342 0.49022 0.0
H2470 H 0.4207 0.08337 0.50032 0.0
H2471 H 0.4424 0.06371 0.50512 0.0
H2472 H 0.71984 0.56404 0.28262 0.0
H2473 H 0.73891 0.59637 0.28369 0.0
H2474 H 0.69268 0.61829 0.27139 0.0
H2475 H 0.67389 0.58686 0.27112 0.0
H2476 H 0.74807 0.6217 0.26134 0.0
H2477 H 0.71252 0.65927 0.31457 0.0
H2478 H 0.70794 0.63337 0.30865 0.0
H2479 H 0.69743 0.64708 0.29433 0.0
C2480 C 0.71369 0.57575 0.28027 0.0
C2481 C 0.69498 0.57237 0.27713 0.0
C2482 C 0.72471 0.59448 0.28087 0.0
C2483 C 0.71755 0.61063 0.27831 0.0
C2484 C 0.69896 0.60688 0.27437 0.0
H2485 H 0.75323 0.73249 0.26521 0.0
H2486 H 0.73757 0.69953 0.26612 0.0
C2487 C 0.68805 0.58846 0.27403 0.0
C2488 C 0.72906 0.63116 0.27938 0.0
H2489 H 0.73102 0.67935 0.29671 0.0
C2490 C 0.74433 0.63418 0.26932 0.0
C2491 C 0.72477 0.64808 0.28979 0.0
C2492 C 0.7099 0.64679 0.3026 0.0
C2493 C 0.75464 0.653 0.2688 0.0
C2494 C 0.7499 0.66985 0.27863 0.0
C2495 C 0.73484 0.66683 0.28891 0.0
C2496 C 0.76005 0.69056 0.27819 0.0
C2497 C 0.77031 0.65472 0.25712 0.0
C2498 C 0.77816 0.69747 0.28498 0.0
C2499 C 0.78725 0.71675 0.28475 0.0
C2500 C 0.77876 0.73003 0.27746 0.0
C2501 C 0.76058 0.72309 0.27086 0.0
C2502 C 0.75146 0.70395 0.27136 0.0
H2503 H 0.77005 0.64111 0.24711 0.0
H2504 H 0.7707 0.66653 0.24887 0.0
H2505 H 0.7827 0.65818 0.26679 0.0
H2506 H 0.78533 0.688 0.29081 0.0
H2507 H 0.80097 0.72124 0.29043 0.0
H2508 H 0.89754 0.49824 0.77469 0.0
H2509 H 0.87765 0.46646 0.77052 0.0
H2510 H 0.91716 0.4456 0.80084 0.0
H2511 H 0.93732 0.47731 0.80501 0.0
H2512 H 0.88936 0.42902 0.75256 0.0
H2513 H 0.86719 0.43155 0.82552 0.0
H2514 H 0.87467 0.45316 0.81588 0.0
H2515 H 0.89041 0.44006 0.82313 0.0
C2516 C 0.902 0.48698 0.78065 0.0
C2517 C 0.91908 0.49035 0.79017 0.0
C2518 C 0.89061 0.46883 0.7782 0.0
C2519 C 0.89595 0.45379 0.78544 0.0
C2520 C 0.9128 0.45712 0.79526 0.0
H2521 H 0.84236 0.33593 0.78758 0.0
H2522 H 0.86235 0.36777 0.79327 0.0
C2523 C 0.9243 0.47523 0.79758 0.0
C2524 C 0.88417 0.43438 0.78196 0.0
H2525 H 0.85694 0.40266 0.80356 0.0
C2526 C 0.88216 0.42323 0.76364 0.0
C2527 C 0.87506 0.42689 0.79655 0.0
C2528 C 0.87679 0.43848 0.81641 0.0
C2529 C 0.87132 0.40461 0.75952 0.0
C2530 C 0.86179 0.39722 0.774 0.0
C2531 C 0.864 0.40838 0.7924 0.0
C2532 C 0.84959 0.37791 0.77044 0.0
C2533 C 0.87069 0.39284 0.73989 0.0
C2534 C 0.83565 0.37301 0.75581 0.0
C2535 C 0.82435 0.35475 0.75244 0.0
C2536 C 0.82636 0.34136 0.76409 0.0
C2537 C 0.84027 0.34621 0.7787 0.0
C2538 C 0.85172 0.36436 0.78191 0.0
H2539 H 0.8827 0.3979 0.73273 0.0
H2540 H 0.86955 0.37734 0.74045 0.0
H2541 H 0.85903 0.39433 0.73099 0.0
H2542 H 0.83345 0.38334 0.74705 0.0
H2543 H 0.81384 0.35118 0.74094 0.0
H2544 H 0.08656 0.85041 0.07529 0.0
H2545 H 0.08304 0.87833 0.06096 0.0
H2546 H 0.07935 0.91023 0.11651 0.0
H2547 H 0.08314 0.88259 0.13083 0.0
H2548 H 0.05695 0.89774 0.05863 0.0
H2549 H 0.11472 0.95024 0.09841 0.0
H2550 H 0.11133 0.92479 0.09872 0.0
H2551 H 0.09989 0.93968 0.11403 0.0
C2552 C 0.08524 0.86344 0.08454 0.0
C2553 C 0.08538 0.86401 0.1044 0.0
C2554 C 0.08311 0.87952 0.07625 0.0
C2555 C 0.0812 0.89696 0.08746 0.0
C2556 C 0.08126 0.89746 0.10729 0.0
H2557 H 0.05945 0.00843 0.07264 0.0
H2558 H 0.06368 0.97876 0.08263 0.0
C2559 C 0.08336 0.88141 0.11556 0.0
C2560 C 0.0787 0.9143 0.07852 0.0
H2561 H 0.0937 0.96331 0.082 0.0
C2562 C 0.06521 0.91199 0.06363 0.0
C2563 C 0.08925 0.93325 0.08478 0.0
C2564 C 0.10472 0.93715 0.09972 0.0
C2565 C 0.06168 0.92779 0.05553 0.0
C2566 C 0.07199 0.94676 0.06207 0.0
C2567 C 0.08564 0.949 0.07674 0.0
C2568 C 0.06828 0.9646 0.05489 0.0
C2569 C 0.04615 0.92423 0.0408 0.0
C2570 C 0.06927 0.96716 0.0357 0.0
C2571 C 0.0668 0.98448 0.02982 0.0
C2572 C 0.06306 0.99976 0.04293 0.0
C2573 C 0.06198 0.99701 0.06197 0.0
C2574 C 0.0645 0.97991 0.06779 0.0
H2575 H 0.03823 0.90921 0.03862 0.0
H2576 H 0.03741 0.93424 0.0453 0.0
H2577 H 0.05091 0.92707 0.02699 0.0
H2578 H 0.07254 0.956 0.02529 0.0
H2579 H 0.06833 0.98611 0.01519 0.0
H2580 H 0.95639 0.28359 0.92175 0.0
H2581 H 0.93145 0.2854 0.90034 0.0
H2582 H 0.95934 0.26899 0.85201 0.0
H2583 H 0.98456 0.26698 0.87354 0.0
H2584 H 0.92947 0.30864 0.87449 0.0
H2585 H 0.91122 0.23274 0.8366 0.0
H2586 H 0.92616 0.2402 0.85808 0.0
H2587 H 0.93386 0.24464 0.83566 0.0
C2588 C 0.95732 0.28015 0.90657 0.0
C2589 C 0.97273 0.275 0.89957 0.0
C2590 C 0.9429 0.28127 0.89425 0.0
C2591 C 0.94313 0.27715 0.87436 0.0
C2592 C 0.95844 0.27189 0.86721 0.0
H2593 H 0.86191 0.27835 0.78185 0.0
H2594 H 0.8886 0.27529 0.8002 0.0
C2595 C 0.973 0.27082 0.87961 0.0
C2596 C 0.92758 0.27909 0.86148 0.0
H2597 H 0.89528 0.25431 0.82605 0.0
C2598 C 0.92204 0.2967 0.86392 0.0
C2599 C 0.91772 0.26369 0.84745 0.0
C2600 C 0.92239 0.24418 0.84432 0.0
C2601 C 0.90725 0.29936 0.85291 0.0
C2602 C 0.89709 0.28383 0.83919 0.0
C2603 C 0.90281 0.26629 0.8365 0.0
C2604 C 0.88046 0.28544 0.8278 0.0
C2605 C 0.90298 0.31907 0.85587 0.0
C2606 C 0.86647 0.29176 0.83689 0.0
C2607 C 0.85117 0.29364 0.82635 0.0
C2608 C 0.8491 0.28909 0.8063 0.0
C2609 C 0.86287 0.28217 0.79722 0.0
C2610 C 0.87826 0.28039 0.80777 0.0
H2611 H 0.91487 0.33052 0.86178 0.0
H2612 H 0.89767 0.32237 0.84235 0.0
H2613 H 0.89287 0.31962 0.86623 0.0
H2614 H 0.86724 0.2951 0.85227 0.0
H2615 H 0.84084 0.29831 0.83408 0.0
H2616 H 0.57165 0.24717 0.61798 0.0
H2617 H 0.56725 0.21197 0.60841 0.0
H2618 H 0.58162 0.2192 0.55233 0.0
H2619 H 0.58653 0.25401 0.56188 0.0
H2620 H 0.54606 0.18481 0.58279 0.0
H2621 H 0.61406 0.18549 0.5628 0.0
H2622 H 0.60791 0.20675 0.57507 0.0
H2623 H 0.6033 0.19965 0.54961 0.0
C2624 C 0.57387 0.24127 0.6036 0.0
C2625 C 0.57968 0.25372 0.59086 0.0
C2626 C 0.57137 0.22103 0.5981 0.0
C2627 C 0.57459 0.21259 0.5797 0.0
C2628 C 0.57967 0.22503 0.56681 0.0
H2629 H 0.55751 0.0914 0.51806 0.0
H2630 H 0.56343 0.12694 0.52617 0.0
C2631 C 0.58232 0.24514 0.57231 0.0
C2632 C 0.57238 0.19094 0.5738 0.0
H2633 H 0.59293 0.15574 0.55298 0.0
C2634 C 0.55641 0.17857 0.57639 0.0
C2635 C 0.58577 0.18235 0.56536 0.0
C2636 C 0.60378 0.19423 0.56322 0.0
C2637 C 0.55338 0.1583 0.5706 0.0
C2638 C 0.56665 0.14982 0.56197 0.0
C2639 C 0.58261 0.16209 0.55934 0.0
C2640 C 0.56448 0.12823 0.55668 0.0
C2641 C 0.53583 0.14604 0.57358 0.0
C2642 C 0.56363 0.11695 0.57097 0.0
C2643 C 0.56058 0.09676 0.56636 0.0
C2644 C 0.55836 0.08706 0.5473 0.0
C2645 C 0.55957 0.09831 0.53289 0.0
C2646 C 0.56281 0.11868 0.53754 0.0
H2647 H 0.52565 0.15472 0.57647 0.0
H2648 H 0.53085 0.13457 0.56093 0.0
H2649 H 0.53761 0.13894 0.58596 0.0
H2650 H 0.56505 0.12377 0.58581 0.0
H2651 H 0.55957 0.08862 0.57784 0.0
H2652 H 0.58737 0.7822 0.41672 0.0
H2653 H 0.61379 0.78453 0.39907 0.0
H2654 H 0.58108 0.75572 0.34755 0.0
H2655 H 0.55463 0.75361 0.36504 0.0
H2656 H 0.62953 0.758 0.37808 0.0
H2657 H 0.60743 0.80387 0.3309 0.0
H2658 H 0.59657 0.79904 0.35179 0.0
H2659 H 0.59177 0.78155 0.33005 0.0
C2660 C 0.58578 0.77626 0.40164 0.0
C2661 C 0.56874 0.7678 0.39236 0.0
C2662 C 0.60096 0.77761 0.39153 0.0
C2663 C 0.59957 0.77068 0.37179 0.0
C2664 C 0.58262 0.76165 0.36263 0.0
H2665 H 0.66998 0.76847 0.28127 0.0
H2666 H 0.64583 0.76402 0.3017 0.0
C2667 C 0.56744 0.7603 0.37272 0.0
C2668 C 0.61572 0.77307 0.36078 0.0
H2669 H 0.63271 0.79152 0.32282 0.0
C2670 C 0.63024 0.76543 0.36606 0.0
C2671 C 0.6169 0.78286 0.3451 0.0
C2672 C 0.60243 0.79247 0.33921 0.0
C2673 C 0.64545 0.76673 0.35581 0.0
C2674 C 0.64647 0.77625 0.33993 0.0
C2675 C 0.63205 0.78411 0.33486 0.0
C2676 C 0.66197 0.77779 0.32793 0.0
C2677 C 0.66005 0.75734 0.36173 0.0
C2678 C 0.67945 0.78678 0.33566 0.0
C2679 C 0.69347 0.78934 0.32386 0.0
C2680 C 0.69035 0.78318 0.30398 0.0
C2681 C 0.67296 0.77367 0.29644 0.0
C2682 C 0.65904 0.77108 0.30817 0.0
H2683 H 0.65538 0.74648 0.37073 0.0
H2684 H 0.66546 0.75019 0.34912 0.0
H2685 H 0.67099 0.76853 0.37016 0.0
H2686 H 0.68217 0.79245 0.35076 0.0
H2687 H 0.70659 0.79691 0.3302 0.0
H2688 H 0.086 0.25909 0.40499 0.0
H2689 H 0.08159 0.23075 0.42061 0.0
H2690 H 0.09635 0.26791 0.47535 0.0
H2691 H 0.1007 0.29611 0.46003 0.0
H2692 H 0.11112 0.23192 0.46782 0.0
H2693 H 0.03778 0.2212 0.45433 0.0
H2694 H 0.05105 0.22376 0.43463 0.0
H2695 H 0.05259 0.2439 0.45355 0.0
C2696 C 0.08862 0.26116 0.42031 0.0
C2697 C 0.09351 0.27982 0.4313 0.0
C2698 C 0.08602 0.245 0.42919 0.0
C2699 C 0.08848 0.24734 0.44911 0.0
C2700 C 0.09434 0.26586 0.45997 0.0
H2701 H 0.07645 0.18319 0.54089 0.0
H2702 H 0.08431 0.20699 0.52033 0.0
C2703 C 0.09674 0.28194 0.45118 0.0
C2704 C 0.08384 0.2308 0.45901 0.0
H2705 H 0.04841 0.20146 0.47309 0.0
C2706 C 0.09743 0.22506 0.46884 0.0
C2707 C 0.06597 0.222 0.46029 0.0
C2708 C 0.05092 0.22799 0.45025 0.0
C2709 C 0.0936 0.21079 0.4801 0.0
C2710 C 0.07569 0.20249 0.48198 0.0
C2711 C 0.06212 0.20792 0.47173 0.0
C2712 C 0.07067 0.18828 0.49463 0.0
C2713 C 0.10879 0.20466 0.48972 0.0
C2714 C 0.05973 0.17019 0.48721 0.0
C2715 C 0.0549 0.15674 0.49899 0.0
C2716 C 0.06095 0.16106 0.51848 0.0
C2717 C 0.07153 0.1794 0.52599 0.0
C2718 C 0.07627 0.19291 0.51418 0.0
H2719 H 0.12103 0.20784 0.48236 0.0
H2720 H 0.11169 0.21274 0.50456 0.0
H2721 H 0.10547 0.18901 0.49016 0.0
H2722 H 0.05505 0.16639 0.47223 0.0
H2723 H 0.04641 0.14291 0.4928 0.0
H2724 H 0.55015 0.26834 0.18871 0.0
H2725 H 0.5783 0.26785 0.20561 0.0
H2726 H 0.60595 0.28364 0.15796 0.0
H2727 H 0.57784 0.28374 0.14076 0.0
H2728 H 0.61488 0.25283 0.16851 0.0
H2729 H 0.61956 0.30908 0.23256 0.0
H2730 H 0.59899 0.29158 0.22945 0.0
H2731 H 0.60407 0.30681 0.21205 0.0
C2732 C 0.56224 0.27209 0.18194 0.0
C2733 C 0.56167 0.27601 0.16331 0.0
C2734 C 0.57837 0.2719 0.19169 0.0
C2735 C 0.59431 0.27591 0.18316 0.0
C2736 C 0.59385 0.28053 0.16486 0.0
H2737 H 0.69878 0.28266 0.24153 0.0
H2738 H 0.67335 0.2904 0.22495 0.0
C2739 C 0.57773 0.28059 0.15504 0.0
C2740 C 0.61116 0.27353 0.19252 0.0
H2741 H 0.63856 0.28678 0.23384 0.0
C2742 C 0.62014 0.26042 0.18272 0.0
C2743 C 0.61818 0.28358 0.21098 0.0
C2744 C 0.6098 0.2987 0.2218 0.0
C2745 C 0.63559 0.25665 0.19106 0.0
C2746 C 0.64207 0.26591 0.2099 0.0
C2747 C 0.63346 0.2795 0.21949 0.0
C2748 C 0.6575 0.26129 0.22 0.0
C2749 C 0.64489 0.24284 0.17954 0.0
C2750 C 0.65696 0.24242 0.22292 0.0
C2751 C 0.6715 0.23791 0.23219 0.0
C2752 C 0.68688 0.25223 0.23896 0.0
C2753 C 0.68728 0.27122 0.23625 0.0
C2754 C 0.6727 0.2757 0.22692 0.0
H2755 H 0.64154 0.2416 0.16401 0.0
H2756 H 0.65951 0.24745 0.18267 0.0
H2757 H 0.64059 0.22832 0.18316 0.0
H2758 H 0.64525 0.23113 0.21802 0.0
H2759 H 0.67076 0.22312 0.23385 0.0
H2760 H 0.60372 0.86936 0.92933 0.0
H2761 H 0.59773 0.90135 0.93859 0.0
H2762 H 0.59926 0.91011 0.88051 0.0
H2763 H 0.60521 0.87777 0.87094 0.0
H2764 H 0.61989 0.94274 0.91706 0.0
H2765 H 0.54746 0.91332 0.91593 0.0
H2766 H 0.56194 0.90008 0.9258 0.0
H2767 H 0.56151 0.90144 0.90097 0.0
C2768 C 0.60293 0.87809 0.91849 0.0
C2769 C 0.60483 0.87102 0.89938 0.0
C2770 C 0.59952 0.89636 0.92383 0.0
C2771 C 0.59798 0.90793 0.9102 0.0
C2772 C 0.60042 0.90128 0.89118 0.0
H2773 H 0.55158 0.00611 0.95232 0.0
H2774 H 0.56071 0.98205 0.92887 0.0
C2775 C 0.60381 0.88287 0.88577 0.0
C2776 C 0.59308 0.92659 0.91612 0.0
H2777 H 0.55879 0.94502 0.93336 0.0
C2778 C 0.60647 0.94342 0.92024 0.0
C2779 C 0.57554 0.92735 0.92004 0.0
C2780 C 0.56069 0.90963 0.91536 0.0
C2781 C 0.60294 0.96086 0.92938 0.0
C2782 C 0.58567 0.96126 0.93472 0.0
C2783 C 0.57205 0.94469 0.92934 0.0
C2784 C 0.58182 0.97783 0.94776 0.0
C2785 C 0.61784 0.97854 0.9337 0.0
C2786 C 0.59077 0.98356 0.96607 0.0
C2787 C 0.58561 0.99727 0.97944 0.0
C2788 C 0.57121 1.00533 0.97488 0.0
C2789 C 0.56268 1.00014 0.95631 0.0
C2790 C 0.56788 0.98639 0.94289 0.0
H2791 H 0.62786 0.97785 0.92321 0.0
H2792 H 0.61284 0.9919 0.93365 0.0
H2793 H 0.62461 0.97935 0.94799 0.0
H2794 H 0.60129 0.97685 0.97031 0.0
H2795 H 0.59264 1.00116 0.99353 0.0
H2796 H 0.95601 0.78172 0.66209 0.0
H2797 H 0.92879 0.77844 0.67811 0.0
H2798 H 0.95476 0.75957 0.72415 0.0
H2799 H 0.98227 0.76351 0.70848 0.0
H2800 H 0.90826 0.74764 0.68737 0.0
H2801 H 0.934 0.80085 0.75335 0.0
H2802 H 0.94638 0.79875 0.73277 0.0
H2803 H 0.94607 0.78207 0.74895 0.0
C2804 C 0.95596 0.77697 0.67568 0.0
C2805 C 0.97131 0.77299 0.68409 0.0
C2806 C 0.94038 0.77508 0.68482 0.0
C2807 C 0.93978 0.76907 0.70251 0.0
C2808 C 0.95502 0.76474 0.71078 0.0
H2809 H 0.85371 0.75575 0.77715 0.0
H2810 H 0.88145 0.75415 0.76236 0.0
C2811 C 0.9707 0.76687 0.70174 0.0
C2812 C 0.92302 0.76695 0.71192 0.0
H2813 H 0.90488 0.78235 0.75249 0.0
C2814 C 0.90754 0.75523 0.70162 0.0
C2815 C 0.92205 0.77685 0.73052 0.0
C2816 C 0.93796 0.79048 0.74199 0.0
C2817 C 0.89111 0.75319 0.70931 0.0
C2818 C 0.8901 0.76317 0.72789 0.0
C2819 C 0.90566 0.77458 0.73834 0.0
C2820 C 0.873 0.76291 0.73641 0.0
C2821 C 0.87512 0.74039 0.69723 0.0
C2822 C 0.85905 0.7683 0.72676 0.0
C2823 C 0.84328 0.76899 0.73509 0.0
C2824 C 0.84141 0.76505 0.75353 0.0
C2825 C 0.85511 0.75928 0.76309 0.0
C2826 C 0.87087 0.75834 0.75464 0.0
H2827 H 0.87875 0.72768 0.68863 0.0
H2828 H 0.86431 0.73524 0.70584 0.0
H2829 H 0.87004 0.74861 0.68715 0.0
H2830 H 0.86044 0.77227 0.71289 0.0
H2831 H 0.83268 0.77305 0.72727 0.0
H2832 H 0.17372 0.00769 0.83968 0.0
H2833 H 0.15873 0.01085 0.86911 0.0
H2834 H 0.11543 0.02581 0.83895 0.0
H2835 H 0.12996 0.02161 0.80947 0.0
H2836 H 0.14954 0.03363 0.89423 0.0
H2837 H 0.08323 0.99246 0.86403 0.0
H2838 H 0.10201 0.99349 0.85022 0.0
H2839 H 0.08991 0.01256 0.85238 0.0
C2840 C 0.16091 0.01151 0.83912 0.0
C2841 C 0.15332 0.01414 0.82145 0.0
C2842 C 0.15214 0.01341 0.85634 0.0
C2843 C 0.13516 0.01813 0.85719 0.0
C2844 C 0.12789 0.02131 0.83954 0.0
H2845 H 0.09925 0.05908 0.97402 0.0
H2846 H 0.11379 0.05602 0.94454 0.0
C2847 C 0.13653 0.01914 0.8223 0.0
C2848 C 0.12558 0.02008 0.87621 0.0
H2849 H 0.08477 0.01112 0.89495 0.0
C2850 C 0.13534 0.02854 0.89409 0.0
C2851 C 0.10692 0.01333 0.87735 0.0
C2852 C 0.09494 1.00227 0.86003 0.0
C2853 C 0.1275 0.03065 0.91196 0.0
C2854 C 0.1087 0.02487 0.91294 0.0
C2855 C 0.09898 0.01609 0.89512 0.0
C2856 C 0.09905 0.02725 0.93189 0.0
C2857 C 0.13993 0.0384 0.92979 0.0
C2858 C 0.08468 0.0129 0.93565 0.0
C2859 C 0.0758 0.01495 0.95277 0.0
C2860 C 0.08063 0.0315 0.96745 0.0
C2861 C 0.09487 0.04591 0.96368 0.0
C2862 C 0.10357 0.04398 0.94646 0.0
H2863 H 0.15336 0.03563 0.92773 0.0
H2864 H 0.14137 0.05425 0.93341 0.0
H2865 H 0.13496 0.03183 0.94197 0.0
H2866 H 0.08029 0.9997 0.92534 0.0
H2867 H 0.06515 1.00325 0.95458 0.0
H2868 H 0.84807 0.40361 0.5713 0.0
H2869 H 0.85002 0.39424 0.60247 0.0
H2870 H 0.79715 0.4025 0.61056 0.0
H2871 H 0.7953 0.41243 0.57925 0.0
H2872 H 0.82476 0.41307 0.64568 0.0
H2873 H 0.81688 0.33972 0.60307 0.0
H2874 H 0.83405 0.3574 0.59612 0.0
H2875 H 0.81134 0.35946 0.5932 0.0
C2876 C 0.83707 0.40399 0.57998 0.0
C2877 C 0.82149 0.40857 0.57293 0.0
C2878 C 0.83819 0.39864 0.59774 0.0
C2879 C 0.82363 0.3974 0.60861 0.0
C2880 C 0.8085 0.40338 0.60231 0.0
H2881 H 0.82511 0.31694 0.68628 0.0
H2882 H 0.81326 0.33514 0.66495 0.0
C2883 C 0.80747 0.40907 0.58451 0.0
C2884 C 0.82367 0.38739 0.62504 0.0
H2885 H 0.82782 0.3441 0.63563 0.0
C2886 C 0.82512 0.39792 0.6436 0.0
C2887 C 0.82374 0.36754 0.62222 0.0
C2888 C 0.82125 0.35529 0.60258 0.0
C2889 C 0.8277 0.38925 0.65947 0.0
C2890 C 0.82926 0.36975 0.65656 0.0
C2891 C 0.82675 0.35906 0.63797 0.0
C2892 C 0.83476 0.36033 0.67217 0.0
C2893 C 0.82885 0.40112 0.67913 0.0
C2894 C 0.85066 0.36852 0.68369 0.0
C2895 C 0.85733 0.35829 0.69631 0.0
C2896 C 0.84846 0.33944 0.69745 0.0
C2897 C 0.83226 0.3315 0.68621 0.0
C2898 C 0.82547 0.34187 0.67382 0.0
H2899 H 0.82091 0.41234 0.67924 0.0
H2900 H 0.82413 0.39202 0.68971 0.0
H2901 H 0.84284 0.40863 0.6836 0.0
H2902 H 0.85838 0.3825 0.68237 0.0
H2903 H 0.86969 0.36508 0.70482 0.0
H2904 H 0.47497 0.06897 0.33045 0.0
H2905 H 0.49158 0.0686 0.36024 0.0
H2906 H 0.44473 0.0701 0.38981 0.0
H2907 H 0.42781 0.07061 0.35975 0.0
H2908 H 0.48035 0.0953 0.40903 0.0
H2909 H 0.47997 0.01796 0.3839 0.0
H2910 H 0.4869 0.03372 0.36743 0.0
H2911 H 0.46448 0.02999 0.37373 0.0
C2912 C 0.46817 0.06939 0.34329 0.0
C2913 C 0.45001 0.06957 0.34275 0.0
C2914 C 0.47772 0.06923 0.3603 0.0
C2915 C 0.46933 0.06912 0.37711 0.0
C2916 C 0.45139 0.07017 0.3769 0.0
H2917 H 0.50336 0.02949 0.47616 0.0
H2918 H 0.48764 0.03694 0.44908 0.0
C2919 C 0.44176 0.07042 0.35977 0.0
C2920 C 0.47913 0.0664 0.3944 0.0
H2921 H 0.4982 0.0335 0.41205 0.0
C2922 C 0.48421 0.0818 0.4098 0.0
C2923 C 0.48408 0.04874 0.39526 0.0
C2924 C 0.47849 0.03157 0.37929 0.0
C2925 C 0.49434 0.07999 0.42608 0.0
C2926 C 0.49956 0.06242 0.42675 0.0
C2927 C 0.49433 0.04703 0.41137 0.0
C2928 C 0.50934 0.05902 0.44377 0.0
C2929 C 0.4991 0.09668 0.44257 0.0
C2930 C 0.52688 0.06898 0.44976 0.0
C2931 C 0.53607 0.06474 0.46541 0.0
C2932 C 0.52782 0.05042 0.47517 0.0
C2933 C 0.51023 0.04059 0.46904 0.0
C2934 C 0.50114 0.04482 0.45353 0.0
H2935 H 0.49146 0.10792 0.44118 0.0
H2936 H 0.49664 0.09162 0.45622 0.0
H2937 H 0.51343 0.10336 0.44319 0.0
H2938 H 0.53352 0.07981 0.4422 0.0
H2939 H 0.54954 0.07267 0.46985 0.0
H2940 H 0.79919 0.68952 0.06723 0.0
H2941 H 0.80008 0.70117 0.10167 0.0
H2942 H 0.79438 0.7568 0.09103 0.0
H2943 H 0.79316 0.74532 0.05694 0.0
H2944 H 0.82219 0.73051 0.12648 0.0
H2945 H 0.75469 0.74518 0.12423 0.0
H2946 H 0.76255 0.73166 0.1042 0.0
H2947 H 0.76859 0.75758 0.10893 0.0
C2948 C 0.79819 0.70424 0.07223 0.0
C2949 C 0.79589 0.71633 0.05915 0.0
C2950 C 0.79865 0.7109 0.09196 0.0
C2951 C 0.7968 0.72977 0.09906 0.0
C2952 C 0.79524 0.74203 0.08604 0.0
H2953 H 0.80443 0.79508 0.21699 0.0
H2954 H 0.80195 0.78674 0.18182 0.0
C2955 C 0.79468 0.7354 0.06643 0.0
C2956 C 0.79677 0.73681 0.12 0.0
H2957 H 0.7727 0.75683 0.15358 0.0
C2958 C 0.81133 0.73621 0.13234 0.0
C2959 C 0.78264 0.74437 0.12783 0.0
C2960 C 0.76615 0.74459 0.11565 0.0
C2961 C 0.8122 0.743 0.15209 0.0
C2962 C 0.7981 0.75052 0.15987 0.0
C2963 C 0.7836 0.7513 0.1476 0.0
C2964 C 0.79765 0.75595 0.18089 0.0
C2965 C 0.82826 0.74209 0.16458 0.0
C2966 C 0.79542 0.74146 0.19195 0.0
C2967 C 0.79665 0.74617 0.21178 0.0
C2968 C 0.79993 0.76547 0.22117 0.0
C2969 C 0.80151 0.78008 0.21014 0.0
C2970 C 0.80023 0.77531 0.19009 0.0
H2971 H 0.83956 0.73994 0.15617 0.0
H2972 H 0.83254 0.75549 0.1754 0.0
H2973 H 0.82481 0.72983 0.17223 0.0
H2974 H 0.79326 0.72646 0.18523 0.0
H2975 H 0.79554 0.73462 0.21991 0.0
H2976 H 0.11702 1.0051 0.7201 0.0
H2977 H 0.10463 0.00826 0.68904 0.0
H2978 H 0.157 0.01888 0.67033 0.0
H2979 H 0.16959 0.01563 0.70187 0.0
H2980 H 0.10468 0.03539 0.66996 0.0
H2981 H 0.13455 0.98492 0.62234 0.0
H2982 H 0.13589 0.98589 0.64773 0.0
H2983 H 0.15077 1.00338 0.63759 0.0
C2984 C 0.12614 0.00766 0.70939 0.0
C2985 C 0.14462 0.00953 0.71424 0.0
C2986 C 0.11884 0.00971 0.69124 0.0
C2987 C 0.12937 0.01376 0.67625 0.0
C2988 C 0.14793 0.01531 0.6808 0.0
H2989 H 0.1057 0.03255 0.55642 0.0
H2990 H 0.11845 0.02916 0.58732 0.0
C2991 C 0.15533 0.01329 0.6992 0.0
C2992 C 0.12076 0.01685 0.65673 0.0
H2993 H 0.11897 1.00433 0.60751 0.0
C2994 C 0.10792 0.02841 0.6564 0.0
C2995 C 0.12438 0.00816 0.63829 0.0
C2996 C 0.137 0.99475 0.63638 0.0
C2997 C 0.09937 0.03174 0.63917 0.0
C2998 C 0.10289 0.02293 0.6207 0.0
C2999 C 0.11574 0.01137 0.62105 0.0
C3000 C 0.09415 0.02586 0.60115 0.0
C3001 C 0.08706 0.0455 0.64116 0.0
C3002 C 0.07571 0.02544 0.59715 0.0
C3003 C 0.06819 0.02768 0.57892 0.0
C3004 C 0.07863 0.0304 0.56349 0.0
C3005 C 0.09691 0.03076 0.56755 0.0
C3006 C 0.10437 0.02862 0.5856 0.0
H3007 H 0.08998 0.05558 0.65504 0.0
H3008 H 0.08804 0.0541 0.62961 0.0
H3009 H 0.07322 0.03717 0.6405 0.0
H3010 H 0.0668 0.0228 0.60798 0.0
H3011 H 0.05405 0.02675 0.57682 0.0
H3012 H 0.81093 0.37687 0.48334 0.0
H3013 H 0.81206 0.35783 0.45224 0.0
H3014 H 0.79618 0.40173 0.42526 0.0
H3015 H 0.79593 0.42147 0.45664 0.0
H3016 H 0.78727 0.34185 0.42523 0.0
H3017 H 0.83766 0.39355 0.39671 0.0
H3018 H 0.83305 0.3973 0.42131 0.0
H3019 H 0.81887 0.40321 0.40341 0.0
C3020 C 0.80785 0.38263 0.47083 0.0
C3021 C 0.8035 0.40078 0.47245 0.0
C3022 C 0.80845 0.37166 0.45301 0.0
C3023 C 0.80449 0.37843 0.43636 0.0
C3024 C 0.79979 0.39642 0.43789 0.0
H3025 H 0.77601 0.30382 0.32618 0.0
H3026 H 0.77624 0.32232 0.35794 0.0
C3027 C 0.7995 0.40762 0.45581 0.0
C3028 C 0.80478 0.3662 0.41755 0.0
H3029 H 0.82238 0.36568 0.37481 0.0
C3030 C 0.79503 0.34705 0.41425 0.0
C3031 C 0.81514 0.37285 0.40332 0.0
C3032 C 0.82692 0.39278 0.40641 0.0
C3033 C 0.79526 0.33442 0.39714 0.0
C3034 C 0.80497 0.34132 0.38259 0.0
C3035 C 0.81484 0.36042 0.38592 0.0
C3036 C 0.80483 0.32911 0.36368 0.0
C3037 C 0.78542 0.3137 0.3951 0.0
C3038 C 0.82082 0.32708 0.35604 0.0
C3039 C 0.82066 0.31659 0.33772 0.0
C3040 C 0.80452 0.30772 0.32689 0.0
C3041 C 0.78857 0.30963 0.33457 0.0
C3042 C 0.78872 0.32035 0.35273 0.0
H3043 H 0.78398 0.30931 0.4092 0.0
H3044 H 0.7719 0.31204 0.3881 0.0
H3045 H 0.79228 0.30376 0.38636 0.0
H3046 H 0.83342 0.33385 0.36415 0.0
H3047 H 0.83314 0.31562 0.3319 0.0
H3048 H 0.47696 0.05734 0.24835 0.0
H3049 H 0.48385 0.04654 0.21598 0.0
H3050 H 0.42957 0.01572 0.20103 0.0
H3051 H 0.42245 0.02696 0.23353 0.0
H3052 H 0.46015 0.99399 0.19722 0.0
H3053 H 0.46727 0.05744 0.16127 0.0
H3054 H 0.47638 0.06234 0.18574 0.0
H3055 H 0.45287 0.05403 0.18006 0.0
C3056 C 0.46638 0.04872 0.238 0.0
C3057 C 0.4492 0.04295 0.24333 0.0
C3058 C 0.47032 0.04261 0.21955 0.0
C3059 C 0.4572 0.03042 0.2062 0.0
C3060 C 0.4398 0.02528 0.21117 0.0
H3061 H 0.49316 0.9896 0.09593 0.0
H3062 H 0.47265 0.99652 0.11958 0.0
C3063 C 0.43575 0.03175 0.22963 0.0
C3064 C 0.46253 0.02133 0.18807 0.0
H3065 H 0.48196 0.03261 0.14864 0.0
C3066 C 0.46452 1.00223 0.18631 0.0
C3067 C 0.46823 0.03218 0.174 0.0
C3068 C 0.46599 0.05261 0.1752 0.0
C3069 C 0.47315 0.99409 0.17137 0.0
C3070 C 0.47989 1.00539 0.15799 0.0
C3071 C 0.47684 0.02404 0.15904 0.0
C3072 C 0.49146 0.99883 0.14378 0.0
C3073 C 0.47561 0.97375 0.17035 0.0
C3074 C 0.50873 0.99761 0.14965 0.0
C3075 C 0.5206 0.99398 0.1362 0.0
C3076 C 0.51536 0.99154 0.11666 0.0
C3077 C 0.49772 0.99181 0.11088 0.0
C3078 C 0.48594 0.99562 0.12433 0.0
H3079 H 0.4663 0.96558 0.1789 0.0
H3080 H 0.47363 0.96596 0.15537 0.0
H3081 H 0.48935 0.97416 0.17601 0.0
H3082 H 0.51326 1.00031 0.16466 0.0
H3083 H 0.5341 0.99407 0.14114 0.0
H3084 H 0.79598 0.72639 0.96875 0.0
H3085 H 0.79668 0.73866 0.93879 0.0
H3086 H 0.79983 0.68275 0.90851 0.0
H3087 H 0.79893 0.67033 0.93842 0.0
H3088 H 0.82256 0.74119 0.91399 0.0
H3089 H 0.76012 0.69476 0.87629 0.0
H3090 H 0.76553 0.69699 0.90154 0.0
H3091 H 0.77528 0.6816 0.88484 0.0
C3092 C 0.79664 0.71662 0.9557 0.0
C3093 C 0.7973 0.6973 0.95606 0.0
C3094 C 0.7971 0.7237 0.93853 0.0
C3095 C 0.79807 0.71164 0.9212 0.0
C3096 C 0.79869 0.69231 0.92152 0.0
H3097 H 0.80538 0.73005 0.80332 0.0
H3098 H 0.80399 0.71676 0.83275 0.0
C3099 C 0.79826 0.68523 0.9387 0.0
C3100 C 0.79907 0.7195 0.90301 0.0
H3101 H 0.77866 0.71371 0.85801 0.0
C3102 C 0.8129 0.73521 0.9018 0.0
C3103 C 0.78655 0.71174 0.88695 0.0
C3104 C 0.77093 0.69546 0.88745 0.0
C3105 C 0.8147 0.74312 0.88505 0.0
C3106 C 0.80213 0.73542 0.86901 0.0
C3107 C 0.78834 0.71966 0.87019 0.0
C3108 C 0.80297 0.74358 0.85099 0.0
C3109 C 0.83037 0.75937 0.88456 0.0
C3110 C 0.80261 0.76304 0.85116 0.0
C3111 C 0.80328 0.77059 0.83428 0.0
C3112 C 0.8042 0.75889 0.81672 0.0
C3113 C 0.80439 0.73939 0.8165 0.0
C3114 C 0.80373 0.73182 0.8334 0.0
H3115 H 0.84129 0.75977 0.89549 0.0
H3116 H 0.83558 0.75806 0.87037 0.0
H3117 H 0.82616 0.77329 0.88759 0.0
H3118 H 0.8015 0.77237 0.86435 0.0
H3119 H 0.80249 0.78547 0.83489 0.0
H3120 H 0.85312 0.15698 0.00277 0.0
H3121 H 0.87915 0.14257 0.00177 0.0
H3122 H 0.84949 0.09288 0.02093 0.0
H3123 H 0.82343 0.10723 0.02213 0.0
H3124 H 0.88549 0.10608 0.03814 0.0
H3125 H 0.88062 0.09661 0.95914 0.0
H3126 H 0.88191 0.12073 0.97154 0.0
H3127 H 0.86285 0.10212 0.97283 0.0
C3128 C 0.85218 0.14309 0.007 0.0
C3129 C 0.83614 0.13318 0.01237 0.0
C3130 C 0.86706 0.13485 0.00635 0.0
C3131 C 0.86618 0.11653 0.011 0.0
C3132 C 0.85045 0.107 0.01722 0.0
H3133 H 0.92575 0.03118 0.97566 0.0
H3134 H 0.90369 0.05031 0.98339 0.0
C3135 C 0.83555 0.11522 0.01786 0.0
C3136 C 0.88122 0.10675 0.0083 0.0
H3137 H 0.90438 0.08698 0.97395 0.0
C3138 C 0.88973 0.10199 0.02414 0.0
C3139 C 0.88657 0.10125 0.98998 0.0
C3140 C 0.87746 0.10526 0.97234 0.0
C3141 C 0.90342 0.09183 0.02211 0.0
C3142 C 0.90877 0.0864 0.00379 0.0
C3143 C 0.90034 0.09127 0.988 0.0
C3144 C 0.92231 0.07459 1.00036 0.0
C3145 C 0.91169 0.08645 0.03946 0.0
C3146 C 0.94015 0.08182 0.00747 0.0
C3147 C 0.95291 0.0709 0.00295 0.0
C3148 C 0.94803 0.05263 0.99113 0.0
C3149 C 0.93006 0.04533 0.98448 0.0
C3150 C 0.91739 0.0562 0.98897 0.0
H3151 H 0.9039 0.08859 0.05192 0.0
H3152 H 0.91287 0.07117 0.03648 0.0
H3153 H 0.92523 0.09558 0.04328 0.0
H3154 H 0.94429 0.09609 0.01607 0.0
H3155 H 0.96665 0.07701 0.00818 0.0
H3156 H 0.35557 0.44014 0.04591 0.0
H3157 H 0.38443 0.46287 0.04837 0.0
H3158 H 0.40507 0.41988 0.01269 0.0
H3159 H 0.3766 0.39715 0.01025 0.0
H3160 H 0.42125 0.45514 0.06079 0.0
H3161 H 0.41355 0.47062 0.98763 0.0
H3162 H 0.39482 0.46206 1.00028 0.0
H3163 H 0.40767 0.44565 0.98985 0.0
C3164 C 0.36624 0.43552 0.03857 0.0
C3165 C 0.36366 0.41674 0.02786 0.0
C3166 C 0.38275 0.44852 0.04005 0.0
C3167 C 0.39689 0.44311 0.03063 0.0
C3168 C 0.39434 0.42443 0.01999 0.0
H3169 H 0.5027 0.48628 0.00569 0.0
H3170 H 0.47262 0.46938 0.00835 0.0
C3171 C 0.378 0.41141 0.01866 0.0
C3172 C 0.41438 0.45677 0.03167 0.0
H3173 H 0.44224 0.48101 0.00406 0.0
C3174 C 0.42581 0.46104 0.0485 0.0
C3175 C 0.42032 0.46438 0.0156 0.0
C3176 C 0.40846 0.46062 0.99731 0.0
C3177 C 0.44329 0.47201 0.04941 0.0
C3178 C 0.4494 0.47927 0.03315 0.0
C3179 C 0.43769 0.47547 0.01653 0.0
C3180 C 0.46815 0.48968 0.03247 0.0
C3181 C 0.45531 0.47489 0.06747 0.0
C3182 C 0.47595 0.50683 0.04523 0.0
C3183 C 0.49344 0.51656 0.04387 0.0
C3184 C 0.50341 0.50956 0.0295 0.0
C3185 C 0.49555 0.4923 0.0169 0.0
C3186 C 0.47822 0.48256 0.01836 0.0
H3187 H 0.4501 0.46457 0.0768 0.0
H3188 H 0.46883 0.4732 0.06425 0.0
H3189 H 0.45638 0.48969 0.07551 0.0
H3190 H 0.46845 0.51287 0.05608 0.0
H3191 H 0.49906 0.52962 0.05398 0.0
H3192 H 0.3819 0.59895 0.76511 0.0
H3193 H 0.36667 0.62572 0.7649 0.0
H3194 H 0.41624 0.66626 0.78243 0.0
H3195 H 0.43146 0.63949 0.78247 0.0
H3196 H 0.35799 0.65436 0.78771 0.0
H3197 H 0.40232 0.69336 0.7427 0.0
H3198 H 0.40376 0.66958 0.74635 0.0
H3199 H 0.41413 0.69045 0.76391 0.0
C3200 C 0.38979 0.61351 0.76884 0.0
C3201 C 0.40839 0.61627 0.77363 0.0
C3202 C 0.38084 0.62922 0.76878 0.0
C3203 C 0.38978 0.649 0.77325 0.0
C3204 C 0.40838 0.65174 0.77825 0.0
H3205 H 0.329 0.74805 0.79759 0.0
H3206 H 0.34358 0.72101 0.80049 0.0
C3207 C 0.41732 0.63602 0.77844 0.0
C3208 C 0.3798 0.66625 0.7728 0.0
H3209 H 0.38168 0.70985 0.75716 0.0
C3210 C 0.36343 0.66641 0.78099 0.0
C3211 C 0.38587 0.68259 0.76394 0.0
C3212 C 0.40236 0.68399 0.75355 0.0
C3213 C 0.35374 0.68165 0.78088 0.0
C3214 C 0.36008 0.69822 0.77243 0.0
C3215 C 0.37628 0.69787 0.76399 0.0
C3216 C 0.35002 0.71527 0.7712 0.0
C3217 C 0.33624 0.67936 0.78941 0.0
C3218 C 0.34823 0.72247 0.75406 0.0
C3219 C 0.33966 0.73805 0.75241 0.0
C3220 C 0.33212 0.74797 0.7677 0.0
C3221 C 0.33392 0.74103 0.78507 0.0
C3222 C 0.34247 0.72515 0.78671 0.0
H3223 H 0.33064 0.66408 0.79028 0.0
H3224 H 0.33824 0.68787 0.80408 0.0
H3225 H 0.32642 0.68465 0.78097 0.0
H3226 H 0.35352 0.71595 0.74155 0.0
H3227 H 0.33911 0.74257 0.73873 0.0
H3228 H 0.23225 0.66553 0.51206 0.0
H3229 H 0.20132 0.65027 0.51357 0.0
H3230 H 0.21618 0.59644 0.51716 0.0
H3231 H 0.24732 0.61168 0.51602 0.0
H3232 H 0.1808 0.62056 0.48875 0.0
H3233 H 0.18469 0.60141 0.56055 0.0
H3234 H 0.20237 0.61793 0.55256 0.0
H3235 H 0.1999 0.59234 0.54535 0.0
C3236 C 0.22903 0.65047 0.51329 0.0
C3237 C 0.24235 0.63986 0.51395 0.0
C3238 C 0.2113 0.64177 0.51418 0.0
C3239 C 0.20645 0.6223 0.51578 0.0
C3240 C 0.21966 0.61161 0.51639 0.0
H3241 H 0.10334 0.54764 0.48328 0.0
H3242 H 0.13435 0.56492 0.4862 0.0
C3243 C 0.23746 0.62032 0.51558 0.0
C3244 C 0.18746 0.61302 0.51573 0.0
H3245 H 0.15774 0.58763 0.54078 0.0
C3246 C 0.17575 0.61345 0.50018 0.0
C3247 C 0.18083 0.60401 0.53079 0.0
C3248 C 0.19255 0.60402 0.54836 0.0
C3249 C 0.15769 0.60471 0.49904 0.0
C3250 C 0.15121 0.59491 0.51365 0.0
C3251 C 0.16279 0.59494 0.52948 0.0
C3252 C 0.13258 0.58407 0.51241 0.0
C3253 C 0.14572 0.60615 0.48219 0.0
C3254 C 0.12143 0.58871 0.52648 0.0
C3255 C 0.10375 0.57862 0.52496 0.0
C3256 C 0.09713 0.5636 0.50948 0.0
C3257 C 0.10828 0.55905 0.49543 0.0
C3258 C 0.12591 0.56899 0.49702 0.0
H3259 H 0.15132 0.61874 0.47562 0.0
H3260 H 0.14432 0.59298 0.47123 0.0
H3261 H 0.13232 0.60737 0.48631 0.0
H3262 H 0.12634 0.60028 0.53848 0.0
H3263 H 0.09522 0.58265 0.53572 0.0
H3264 H 0.73035 0.01818 0.74494 0.0
H3265 H 0.7498 0.99571 0.74742 0.0
H3266 H 0.70778 0.95727 0.76798 0.0
H3267 H 0.68823 0.97951 0.76538 0.0
H3268 H 0.75968 0.98543 0.78137 0.0
H3269 H 0.72696 0.92058 0.72869 0.0
H3270 H 0.72212 0.944 0.72841 0.0
H3271 H 0.7121 0.9293 0.74461 0.0
C3272 C 0.72514 1.00476 0.74962 0.0
C3273 C 0.70777 1.00063 0.75501 0.0
C3274 C 0.73628 0.99196 0.75105 0.0
C3275 C 0.73018 0.97475 0.75771 0.0
C3276 C 0.71265 0.97029 0.76246 0.0
H3277 H 0.78591 0.90855 0.81839 0.0
H3278 H 0.76857 0.9303 0.80783 0.0
C3279 C 0.70152 0.98308 0.76107 0.0
C3280 C 0.74256 0.96237 0.76149 0.0
H3281 H 0.74815 0.91609 0.75236 0.0
C3282 C 0.75728 0.97032 0.77486 0.0
C3283 C 0.73949 0.94272 0.75285 0.0
C3284 C 0.72441 0.93367 0.7377 0.0
C3285 C 0.76866 0.95897 0.78037 0.0
C3286 C 0.76504 0.9391 0.77249 0.0
C3287 C 0.75074 0.93129 0.75856 0.0
C3288 C 0.77573 0.9261 0.77887 0.0
C3289 C 0.78442 0.96831 0.79463 0.0
C3290 C 0.78524 0.9163 0.76599 0.0
C3291 C 0.7952 0.90391 0.77199 0.0
C3292 C 0.79571 0.90097 0.79096 0.0
C3293 C 0.78605 0.91074 0.80378 0.0
C3294 C 0.77612 0.92316 0.79777 0.0
H3295 H 0.78799 0.98417 0.79538 0.0
H3296 H 0.78113 0.96554 0.80895 0.0
H3297 H 0.79614 0.96226 0.79101 0.0
H3298 H 0.78507 0.91838 0.75133 0.0
H3299 H 0.80266 0.89679 0.76181 0.0
H3300 H 0.78273 0.94945 0.54709 0.0
H3301 H 0.75885 0.96688 0.54518 0.0
H3302 H 0.72205 0.91359 0.52125 0.0
H3303 H 0.74584 0.89605 0.52326 0.0
H3304 H 0.73922 0.96943 0.51256 0.0
H3305 H 0.69408 0.93732 0.56186 0.0
H3306 H 0.71679 0.9348 0.56145 0.0
H3307 H 0.70004 0.92006 0.54365 0.0
C3308 C 0.7695 0.94135 0.54171 0.0
C3309 C 0.76626 0.92127 0.53543 0.0
C3310 C 0.75582 0.95138 0.54055 0.0
C3311 C 0.73849 0.94162 0.53326 0.0
C3312 C 0.73515 0.9215 0.5273 0.0
H3313 H 0.64142 0.98218 0.50656 0.0
H3314 H 0.66293 0.9623 0.51174 0.0
C3315 C 0.74884 0.91146 0.5284 0.0
C3316 C 0.72428 0.95264 0.53083 0.0
H3317 H 0.68314 0.95765 0.54339 0.0
C3318 C 0.72701 0.96688 0.5194 0.0
C3319 C 0.70818 0.94928 0.53953 0.0
C3320 C 0.70459 0.93466 0.55245 0.0
C3321 C 0.71417 0.97764 0.51631 0.0
C3322 C 0.69818 0.97453 0.52526 0.0
C3323 C 0.69534 0.96014 0.53653 0.0
C3324 C 0.68457 0.98642 0.52337 0.0
C3325 C 0.71775 0.992 0.50309 0.0
C3326 C 0.68923 0.00657 0.52879 0.0
C3327 C 0.67699 0.01792 0.52584 0.0
C3328 C 0.65961 0.00948 0.51752 0.0
C3329 C 0.65464 0.98921 0.513 0.0
C3330 C 0.66698 0.97782 0.51589 0.0
H3331 H 0.72764 0.98858 0.49313 0.0
H3332 H 0.70541 0.9924 0.49463 0.0
H3333 H 0.7232 0.00657 0.51162 0.0
H3334 H 0.70247 0.01362 0.53514 0.0
H3335 H 0.68123 0.03343 0.52992 0.0
H3336 H 0.3888 0.51251 0.7615 0.0
H3337 H 0.36959 0.4801 0.75974 0.0
H3338 H 0.41408 0.46003 0.78113 0.0
H3339 H 0.43299 0.49177 0.78301 0.0
H3340 H 0.37004 0.44257 0.73999 0.0
H3341 H 0.37866 0.44158 0.81685 0.0
H3342 H 0.38519 0.4634 0.80738 0.0
H3343 H 0.39945 0.44653 0.80679 0.0
C3344 C 0.39452 0.50128 0.76598 0.0
C3345 C 0.41276 0.50538 0.77252 0.0
C3346 C 0.38343 0.48251 0.76489 0.0
C3347 C 0.39 0.4671 0.7706 0.0
C3348 C 0.40817 0.47127 0.77699 0.0
H3349 H 0.3544 0.34435 0.78091 0.0
H3350 H 0.36979 0.37761 0.78123 0.0
C3351 C 0.41917 0.48977 0.77794 0.0
C3352 C 0.37835 0.44674 0.76982 0.0
H3353 H 0.3666 0.41133 0.79675 0.0
C3354 C 0.36919 0.43591 0.75252 0.0
C3355 C 0.37697 0.43738 0.78592 0.0
C3356 C 0.38544 0.44786 0.80532 0.0
C3357 C 0.35954 0.41638 0.75075 0.0
C3358 C 0.35832 0.40693 0.76684 0.0
C3359 C 0.36728 0.41794 0.78419 0.0
C3360 C 0.34837 0.38578 0.76609 0.0
C3361 C 0.35143 0.40583 0.73125 0.0
C3362 C 0.33077 0.37829 0.75758 0.0
C3363 C 0.32182 0.35883 0.75726 0.0
C3364 C 0.32986 0.34589 0.76568 0.0
C3365 C 0.34742 0.35344 0.77422 0.0
C3366 C 0.35637 0.3728 0.77448 0.0
H3367 H 0.35804 0.41247 0.71983 0.0
H3368 H 0.35228 0.39045 0.72908 0.0
H3369 H 0.33726 0.40656 0.72969 0.0
H3370 H 0.32368 0.38756 0.75136 0.0
H3371 H 0.3085 0.35397 0.75036 0.0
H3372 H 0.20605 0.59504 0.24728 0.0
H3373 H 0.22784 0.62471 0.24659 0.0
H3374 H 0.22635 0.64233 0.3071 0.0
H3375 H 0.20345 0.61341 0.30736 0.0
H3376 H 0.22312 0.66986 0.29224 0.0
H3377 H 0.27877 0.64498 0.25908 0.0
H3378 H 0.25885 0.63511 0.24364 0.0
H3379 H 0.26089 0.62855 0.26682 0.0
C3380 C 0.21064 0.60517 0.26044 0.0
C3381 C 0.2031 0.60211 0.27736 0.0
C3382 C 0.22327 0.62204 0.26011 0.0
C3383 C 0.2291 0.63576 0.27686 0.0
C3384 C 0.22213 0.63208 0.29396 0.0
H3385 H 0.30421 0.74709 0.28093 0.0
H3386 H 0.29309 0.71267 0.28167 0.0
C3387 C 0.20906 0.61557 0.29414 0.0
C3388 C 0.24055 0.65495 0.27616 0.0
H3389 H 0.27648 0.67775 0.25654 0.0
C3390 C 0.23498 0.67143 0.28473 0.0
C3391 C 0.25625 0.65732 0.26663 0.0
C3392 C 0.26412 0.64051 0.25874 0.0
C3393 C 0.24411 0.68998 0.28341 0.0
C3394 C 0.25874 0.69222 0.27236 0.0
C3395 C 0.26496 0.67594 0.26456 0.0
C3396 C 0.26698 0.71142 0.26831 0.0
C3397 C 0.23786 0.70703 0.29385 0.0
C3398 C 0.25635 0.72169 0.25955 0.0
C3399 C 0.26249 0.74122 0.25951 0.0
C3400 C 0.27963 0.75066 0.26749 0.0
C3401 C 0.29099 0.74001 0.27452 0.0
C3402 C 0.28465 0.72041 0.27498 0.0
H3403 H 0.23071 0.70331 0.30623 0.0
H3404 H 0.24912 0.71946 0.29903 0.0
H3405 H 0.22852 0.71151 0.28407 0.0
H3406 H 0.24283 0.7149 0.25391 0.0
H3407 H 0.25354 0.74921 0.25402 0.0
H3408 H 0.51622 0.7271 0.47738 0.0
H3409 H 0.52218 0.69828 0.48748 0.0
H3410 H 0.53967 0.68039 0.43259 0.0
H3411 H 0.53423 0.70989 0.42251 0.0
H3412 H 0.50948 0.66216 0.47853 0.0
H3413 H 0.57959 0.6706 0.46335 0.0
H3414 H 0.56763 0.68937 0.462 0.0
H3415 H 0.56518 0.6694 0.44249 0.0
C3416 C 0.52143 0.71719 0.4673 0.0
C3417 C 0.52473 0.72128 0.44897 0.0
C3418 C 0.52484 0.70045 0.47321 0.0
C3419 C 0.53176 0.6868 0.46115 0.0
C3420 C 0.53487 0.69064 0.44267 0.0
H3421 H 0.55146 0.57225 0.46859 0.0
H3422 H 0.54823 0.60292 0.46014 0.0
C3423 C 0.53156 0.7076 0.43675 0.0
C3424 C 0.53516 0.66866 0.46801 0.0
H3425 H 0.56595 0.64069 0.47152 0.0
C3426 C 0.52194 0.65768 0.47705 0.0
C3427 C 0.55137 0.66233 0.46641 0.0
C3428 C 0.56682 0.67363 0.45822 0.0
C3429 C 0.52423 0.64083 0.48393 0.0
C3430 C 0.54033 0.6344 0.4821 0.0
C3431 C 0.55357 0.64535 0.47312 0.0
C3432 C 0.54326 0.61584 0.48823 0.0
C3433 C 0.50905 0.62966 0.49261 0.0
C3434 C 0.54202 0.61242 0.50713 0.0
C3435 C 0.5441 0.59463 0.51214 0.0
C3436 C 0.54758 0.57973 0.49839 0.0
C3437 C 0.54901 0.58335 0.47967 0.0
C3438 C 0.54713 0.60103 0.47476 0.0
H3439 H 0.49634 0.63377 0.48914 0.0
H3440 H 0.5074 0.61392 0.48761 0.0
H3441 H 0.51188 0.63266 0.50833 0.0
H3442 H 0.53936 0.62348 0.51807 0.0
H3443 H 0.54259 0.5924 0.52661 0.0
H3444 H 0.62251 0.31475 0.66761 0.0
H3445 H 0.64742 0.31244 0.6894 0.0
H3446 H 0.68173 0.31578 0.64415 0.0
H3447 H 0.65727 0.3186 0.62265 0.0
H3448 H 0.66766 0.28659 0.69002 0.0
H3449 H 0.71284 0.35496 0.68424 0.0
H3450 H 0.68987 0.34924 0.67494 0.0
H3451 H 0.70615 0.34 0.66132 0.0
C3452 C 0.63542 0.3153 0.66234 0.0
C3453 C 0.63767 0.31714 0.64323 0.0
C3454 C 0.64974 0.31387 0.67487 0.0
C3455 C 0.66685 0.31431 0.66878 0.0
C3456 C 0.66902 0.31599 0.64967 0.0
H3457 H 0.77007 0.29901 0.71292 0.0
H3458 H 0.74401 0.30258 0.69409 0.0
C3459 C 0.65481 0.3175 0.63722 0.0
C3460 C 0.68225 0.3124 0.682 0.0
H3461 H 0.72603 0.33232 0.69762 0.0
C3462 C 0.68033 0.29676 0.69179 0.0
C3463 C 0.69902 0.32554 0.6846 0.0
C3464 C 0.70206 0.34348 0.67588 0.0
C3465 C 0.6946 0.29358 0.70334 0.0
C3466 C 0.71145 0.30648 0.70555 0.0
C3467 C 0.7133 0.32225 0.69598 0.0
C3468 C 0.72737 0.30375 0.71736 0.0
C3469 C 0.69162 0.276 0.71259 0.0
C3470 C 0.72717 0.30334 0.737 0.0
C3471 C 0.74222 0.30119 0.74789 0.0
C3472 C 0.758 0.29925 0.73952 0.0
C3473 C 0.75818 0.29983 0.71991 0.0
C3474 C 0.7432 0.30211 0.70908 0.0
H3475 H 0.67963 0.26512 0.70586 0.0
H3476 H 0.70324 0.26918 0.71179 0.0
H3477 H 0.68976 0.28035 0.72783 0.0
H3478 H 0.71541 0.30498 0.74405 0.0
H3479 H 0.74146 0.30102 0.76293 0.0
H3480 H 0.02839 0.33836 0.91617 0.0
H3481 H 0.02987 0.37175 0.93124 0.0
H3482 H 0.0282 0.35488 0.98623 0.0
H3483 H 0.02679 0.32127 0.97114 0.0
H3484 H 0.00697 0.38884 0.9531 0.0
H3485 H 0.07152 0.39958 0.99581 0.0
H3486 H 0.06358 0.37919 0.97681 0.0
H3487 H 0.05475 0.3796 0.99953 0.0
C3488 C 0.0283 0.34166 0.93149 0.0
C3489 C 0.02754 0.32692 0.94237 0.0
C3490 C 0.02915 0.36089 0.94014 0.0
C3491 C 0.02946 0.36621 0.96002 0.0
C3492 C 0.02837 0.35147 0.97093 0.0
H3493 H 0.04576 0.48508 0.02894 0.0
H3494 H 0.03857 0.44957 0.0198 0.0
C3495 C 0.02741 0.33212 0.96224 0.0
C3496 C 0.03082 0.3871 0.96902 0.0
H3497 H 0.05729 0.42572 0.99939 0.0
C3498 C 0.01797 0.39681 0.96328 0.0
C3499 C 0.04504 0.39778 0.9825 0.0
C3500 C 0.05961 0.38863 0.98897 0.0
C3501 C 0.01899 0.41658 0.97038 0.0
C3502 C 0.03352 0.42744 0.98334 0.0
C3503 C 0.04612 0.41763 0.98951 0.0
C3504 C 0.03658 0.44913 0.98939 0.0
C3505 C 1.00426 0.42559 0.96401 0.0
C3506 C 0.03785 0.46102 0.97558 0.0
C3507 C 0.0418 0.48119 0.9808 0.0
C3508 C 0.04457 0.49034 1.00003 0.0
C3509 C 0.0432 0.47858 0.01401 0.0
C3510 C 0.03927 0.45822 0.00874 0.0
H3511 H 0.99167 0.41465 0.95981 0.0
H3512 H 1.00192 0.43704 0.97539 0.0
H3513 H 0.00791 0.43212 0.95139 0.0
H3514 H 0.03637 0.4547 0.9606 0.0
H3515 H 0.04316 0.48975 0.96965 0.0
H3516 H 0.02091 0.80629 0.12441 0.0
H3517 H 0.99369 0.80262 0.14091 0.0
H3518 H 0.02455 0.80541 0.1937 0.0
H3519 H 0.05167 0.80892 0.17736 0.0
H3520 H 0.97913 0.77365 0.16393 0.0
H3521 H 0.99546 0.84794 0.20591 0.0
H3522 H 1.00614 0.841 0.18486 0.0
H3523 H 0.01272 0.83477 0.20707 0.0
C3524 C 0.02191 0.80606 0.13952 0.0
C3525 C 0.0386 0.80796 0.1495 0.0
C3526 C 1.00629 0.80394 0.14896 0.0
C3527 C 0.00697 0.80397 0.16867 0.0
C3528 C 0.02359 0.8056 0.17857 0.0
H3529 H 0.93814 0.79859 0.25939 0.0
H3530 H 0.96184 0.80322 0.23855 0.0
C3531 C 0.03914 0.80753 0.16914 0.0
C3532 C 0.99045 0.80235 0.17899 0.0
H3533 H 0.97113 0.82628 0.2146 0.0
C3534 C 0.97729 0.78522 0.17489 0.0
C3535 C 0.98794 0.81739 0.19334 0.0
C3536 C 1.00121 0.8364 0.19801 0.0
C3537 C 0.96217 0.78243 0.18522 0.0
C3538 C 0.95976 0.79741 0.19981 0.0
C3539 C 0.97277 0.81472 0.20352 0.0
C3540 C 0.94463 0.79505 0.2123 0.0
C3541 C 0.94937 0.76309 0.18095 0.0
C3542 C 0.92669 0.78937 0.2048 0.0
C3543 C 0.9129 0.78643 0.21685 0.0
C3544 C 0.91667 0.7892 0.23675 0.0
C3545 C 0.93458 0.7958 0.24417 0.0
C3546 C 0.94827 0.79861 0.23219 0.0
H3547 H 0.95541 0.75175 0.17314 0.0
H3548 H 0.94479 0.75851 0.19424 0.0
H3549 H 0.93763 0.76413 0.17189 0.0
H3550 H 0.9233 0.78706 0.18959 0.0
H3551 H 0.89935 0.78143 0.21052 0.0
H3552 H 0.51429 0.33184 0.15069 0.0
H3553 H 0.52108 0.3571 0.13121 0.0
H3554 H 0.51861 0.31353 0.08136 0.0
H3555 H 0.51179 0.28845 0.10047 0.0
H3556 H 0.54967 0.36452 0.10692 0.0
H3557 H 0.48335 0.34581 0.06647 0.0
H3558 H 0.48752 0.33788 0.08862 0.0
H3559 H 0.49348 0.32558 0.06677 0.0
C3560 C 0.51521 0.3277 0.13559 0.0
C3561 C 0.51239 0.30815 0.12711 0.0
C3562 C 0.5191 0.34211 0.1245 0.0
C3563 C 0.52006 0.33714 0.1048 0.0
C3564 C 0.51761 0.31767 0.09646 0.0
H3565 H 0.56601 0.40128 0.02092 0.0
H3566 H 0.55906 0.37977 0.04392 0.0
C3567 C 0.51379 0.30335 0.10746 0.0
C3568 C 0.52361 0.35209 0.0927 0.0
H3569 H 0.50633 0.36612 0.05374 0.0
C3570 C 0.54016 0.36503 0.09541 0.0
C3571 C 0.51109 0.35284 0.07782 0.0
C3572 C 0.4928 0.33991 0.07481 0.0
C3573 C 0.54474 0.37829 0.08317 0.0
C3574 C 0.53254 0.37838 0.0677 0.0
C3575 C 0.51576 0.36588 0.06544 0.0
C3576 C 0.53681 0.39134 0.0537 0.0
C3577 C 0.56257 0.39213 0.08696 0.0
C3578 C 0.52627 0.40453 0.0511 0.0
C3579 C 0.53006 0.41664 0.03781 0.0
C3580 C 0.54445 0.41577 0.02675 0.0
C3581 C 0.55479 0.40226 0.02912 0.0
C3582 C 0.55098 0.39014 0.04245 0.0
H3583 H 0.56821 0.39381 0.10193 0.0
H3584 H 0.57193 0.38652 0.07751 0.0
H3585 H 0.5616 0.40654 0.08399 0.0
H3586 H 0.51514 0.40555 0.05946 0.0
H3587 H 0.52163 0.42664 0.03613 0.0
H3588 H 0.03178 0.33449 0.40008 0.0
H3589 H 1.0049 0.3333 0.38013 0.0
H3590 H 0.0268 0.30656 0.33128 0.0
H3591 H 0.05402 0.30779 0.35118 0.0
H3592 H 0.01251 0.33837 0.3252 0.0
H3593 H 0.96499 0.28673 0.35702 0.0
H3594 H 0.97812 0.30608 0.37438 0.0
H3595 H 0.98871 0.2892 0.36053 0.0
C3596 C 0.0309 0.32816 0.38513 0.0
C3597 C 0.04511 0.32118 0.37727 0.0
C3598 C 0.01543 0.3274 0.37377 0.0
C3599 C 0.01375 0.3196 0.35429 0.0
C3600 C 0.0278 0.31251 0.34633 0.0
H3601 H 0.91238 0.30483 0.28633 0.0
H3602 H 0.93991 0.29885 0.30017 0.0
C3603 C 0.04332 0.31318 0.35774 0.0
C3604 C 0.99765 0.31992 0.34221 0.0
H3605 H 0.95248 0.30623 0.33831 0.0
C3606 C 0.99939 0.33113 0.32787 0.0
C3607 C 0.98056 0.31029 0.34557 0.0
C3608 C 0.97795 0.29724 0.36008 0.0
C3609 C 0.98443 0.33369 0.31739 0.0
C3610 C 0.96731 0.32501 0.32157 0.0
C3611 C 0.96561 0.31306 0.33528 0.0
C3612 C 0.95098 0.32874 0.31245 0.0
C3613 C 0.98709 0.34577 0.30204 0.0
C3614 C 0.948 0.34751 0.31489 0.0
C3615 C 0.93224 0.35097 0.30712 0.0
C3616 C 0.91907 0.33569 0.29683 0.0
C3617 C 0.92214 0.31689 0.29436 0.0
C3618 C 0.93791 0.31345 0.30216 0.0
H3619 H 1.00044 0.34655 0.29685 0.0
H3620 H 0.9769 0.33992 0.28978 0.0
H3621 H 0.98595 0.36066 0.30793 0.0
H3622 H 0.95771 0.35946 0.32318 0.0
H3623 H 0.9302 0.36555 0.3096 0.0
H3624 H 0.9992 0.71694 0.60035 0.0
H3625 H 0.99959 0.68291 0.59268 0.0
H3626 H 0.01246 0.68242 0.65203 0.0
H3627 H 0.0122 0.71681 0.65981 0.0
H3628 H 0.03738 0.67223 0.62969 0.0
H3629 H 0.97191 0.63028 0.59702 0.0
H3630 H 0.97795 0.65162 0.58699 0.0
H3631 H 0.97475 0.65371 0.61197 0.0
C3632 C 1.00145 0.70942 0.61187 0.0
C3633 C 1.00582 0.71951 0.63064 0.0
C3634 C 1.00152 0.68989 0.60749 0.0
C3635 C 1.00595 0.68006 0.62179 0.0
C3636 C 0.00888 0.68972 0.64081 0.0
H3637 H 0.04626 0.57498 0.58542 0.0
H3638 H 0.03569 0.59936 0.60688 0.0
C3639 C 0.00864 0.70932 0.64525 0.0
C3640 C 0.01082 0.66126 0.61613 0.0
H3641 H 0.9976 0.61904 0.5844 0.0
C3642 C 0.02853 0.66028 0.62031 0.0
C3643 C 0.99928 0.6457 0.60388 0.0
C3644 C 0.97987 0.64532 0.59989 0.0
C3645 C 0.03539 0.64498 0.61117 0.0
C3646 C 0.0242 0.63033 0.59767 0.0
C3647 C 1.00618 0.6305 0.59461 0.0
C3648 C 0.03134 0.61589 0.58515 0.0
C3649 C 0.05483 0.64525 0.61491 0.0
C3650 C 0.03251 0.61724 0.56593 0.0
C3651 C 0.0388 0.60347 0.55373 0.0
C3652 C 0.04404 0.58808 0.56054 0.0
C3653 C 0.04301 0.58692 0.57987 0.0
C3654 C 0.03672 0.60073 0.59211 0.0
H3655 H 0.06197 0.65831 0.62507 0.0
H3656 H 0.05633 0.63234 0.62084 0.0
H3657 H 0.06119 0.64467 0.60135 0.0
H3658 H 0.02843 0.62891 0.56035 0.0
H3659 H 0.03935 0.60472 0.53888 0.0
H3660 H 0.65902 0.81476 0.88243 0.0
H3661 H 0.68339 0.80762 0.86427 0.0
H3662 H 0.64612 0.77711 0.81667 0.0
H3663 H 0.62146 0.7843 0.83475 0.0
H3664 H 0.67823 0.75946 0.83038 0.0
H3665 H 0.69448 0.8336 0.81422 0.0
H3666 H 0.69017 0.83143 0.83833 0.0
H3667 H 0.67261 0.8225 0.81953 0.0
C3668 C 0.65593 0.80635 0.86817 0.0
C3669 C 0.63829 0.80018 0.85999 0.0
C3670 C 0.66989 0.80232 0.85783 0.0
C3671 C 0.66652 0.79198 0.83914 0.0
C3672 C 0.64893 0.78514 0.8311 0.0
H3673 H 0.75305 0.80013 0.76627 0.0
H3674 H 0.72322 0.79648 0.77694 0.0
C3675 C 0.63489 0.78925 0.84144 0.0
C3676 C 0.68156 0.78925 0.82786 0.0
H3677 H 0.71516 0.81419 0.80708 0.0
C3678 C 0.68622 0.77129 0.82501 0.0
C3679 C 0.69184 0.80471 0.82086 0.0
C3680 C 0.68704 0.82416 0.82322 0.0
C3681 C 0.70129 0.76851 0.81575 0.0
C3682 C 0.71208 0.78422 0.80931 0.0
C3683 C 0.70698 0.80204 0.81179 0.0
C3684 C 0.7291 0.78306 0.8008 0.0
C3685 C 0.70536 0.74873 0.81316 0.0
C3686 C 0.74236 0.77637 0.81026 0.0
C3687 C 0.75914 0.77773 0.80361 0.0
C3688 C 0.76309 0.78594 0.78747 0.0
C3689 C 0.74997 0.7927 0.77805 0.0
C3690 C 0.73304 0.79094 0.7844 0.0
H3691 H 0.69296 0.73735 0.81084 0.0
H3692 H 0.71332 0.74617 0.80104 0.0
H3693 H 0.71289 0.74727 0.8263 0.0
H3694 H 0.74008 0.77101 0.82337 0.0
H3695 H 0.76933 0.77329 0.81167 0.0
H3696 H 0.44032 0.54103 0.704 0.0
H3697 H 0.45375 0.53893 0.67347 0.0
H3698 H 0.49542 0.58776 0.69785 0.0
H3699 H 0.48231 0.58938 0.72832 0.0
H3700 H 0.4618 0.5568 0.64526 0.0
H3701 H 0.52788 0.55645 0.67772 0.0
H3702 H 0.50897 0.55533 0.69138 0.0
H3703 H 0.52113 0.57818 0.68708 0.0
C3704 C 0.45205 0.55177 0.7028 0.0
C3705 C 0.45955 0.56592 0.71907 0.0
C3706 C 0.46004 0.55039 0.68509 0.0
C3707 C 0.4763 0.56278 0.68259 0.0
C3708 C 0.4834 0.57733 0.6987 0.0
H3709 H 0.54853 0.57507 0.58736 0.0
H3710 H 0.53373 0.57863 0.61689 0.0
C3711 C 0.47548 0.57862 0.71637 0.0
C3712 C 0.48569 0.56047 0.66359 0.0
H3713 H 0.52631 0.55994 0.64531 0.0
C3714 C 0.47592 0.5574 0.64553 0.0
C3715 C 0.50429 0.56108 0.66285 0.0
C3716 C 0.51616 0.56273 0.68075 0.0
C3717 C 0.48383 0.55557 0.62772 0.0
C3718 C 0.50243 0.55631 0.62702 0.0
C3719 C 0.5122 0.55936 0.64505 0.0
C3720 C 0.51188 0.55397 0.6081 0.0
C3721 C 0.47198 0.5535 0.60972 0.0
C3722 C 0.50539 0.53876 0.59237 0.0
C3723 C 0.51409 0.53661 0.57522 0.0
C3724 C 0.52999 0.54944 0.57256 0.0
C3725 C 0.53657 0.5646 0.58831 0.0
C3726 C 0.52789 0.5667 0.60553 0.0
H3727 H 0.46004 0.55944 0.61258 0.0
H3728 H 0.47909 0.56095 0.59908 0.0
H3729 H 0.46738 0.53798 0.60347 0.0
H3730 H 0.49356 0.5281 0.59336 0.0
H3731 H 0.50826 0.52459 0.56395 0.0
H3732 H 0.76157 0.1759 0.9711 0.0
H3733 H 0.75359 0.18835 0.94315 0.0
H3734 H 0.7927 0.16357 0.91321 0.0
H3735 H 0.79992 0.14983 0.94117 0.0
H3736 H 0.77524 0.21475 0.93094 0.0
H3737 H 0.75357 0.15304 0.87108 0.0
H3738 H 0.75572 0.14991 0.89555 0.0
H3739 H 0.77502 0.15414 0.88267 0.0
C3740 C 0.7681 0.17254 0.95842 0.0
C3741 C 0.78133 0.16186 0.95829 0.0
C3742 C 0.76357 0.17976 0.94241 0.0
C3743 C 0.77253 0.17699 0.92601 0.0
C3744 C 0.78532 0.16561 0.92551 0.0
H3745 H 0.7779 0.26442 0.8553 0.0
H3746 H 0.78526 0.24257 0.87501 0.0
C3747 C 0.78951 0.15784 0.9415 0.0
C3748 C 0.7698 0.18807 0.91072 0.0
H3749 H 0.75828 0.18445 0.86322 0.0
C3750 C 0.77145 0.20804 0.91615 0.0
C3751 C 0.7648 0.17938 0.89142 0.0
C3752 C 0.762 0.15792 0.88481 0.0
C3753 C 0.76791 0.21949 0.90304 0.0
C3754 C 0.76343 0.21096 0.88362 0.0
C3755 C 0.76191 0.19101 0.87806 0.0
C3756 C 0.7598 0.22259 0.86915 0.0
C3757 C 0.76838 0.24051 0.91038 0.0
C3758 C 0.74339 0.21805 0.85823 0.0
C3759 C 0.73926 0.23022 0.84612 0.0
C3760 C 0.75143 0.24732 0.84467 0.0
C3761 C 0.76812 0.25135 0.85531 0.0
C3762 C 0.77234 0.23897 0.86704 0.0
H3763 H 0.76658 0.2432 0.92582 0.0
H3764 H 0.78148 0.2493 0.90842 0.0
H3765 H 0.75791 0.24554 0.90265 0.0
H3766 H 0.73353 0.20536 0.85947 0.0
H3767 H 0.72642 0.22613 0.83805 0.0
H3768 H 0.1505 0.51249 0.21305 0.0
H3769 H 0.13473 0.50242 0.18102 0.0
H3770 H 0.11423 0.55421 0.18871 0.0
H3771 H 0.12929 0.56392 0.22064 0.0
H3772 H 0.08867 0.52333 0.17416 0.0
H3773 H 0.14787 0.52294 0.13349 0.0
H3774 H 0.14507 0.50731 0.15072 0.0
H3775 H 0.14971 0.53299 0.15852 0.0
C3776 C 0.14271 0.52174 0.2078 0.0
C3777 C 0.14113 0.53898 0.21937 0.0
C3778 C 0.13374 0.516 0.1895 0.0
C3779 C 0.12338 0.52763 0.18239 0.0
C3780 C 0.12203 0.54492 0.1939 0.0
H3781 H 0.09481 0.55212 0.07709 0.0
H3782 H 0.10769 0.5466 0.10679 0.0
C3783 C 0.13071 0.55049 0.21217 0.0
C3784 C 0.11378 0.52221 0.16306 0.0
H3785 H 0.12028 0.51719 0.11587 0.0
C3786 C 0.09552 0.52174 0.16136 0.0
C3787 C 0.12276 0.52007 0.14641 0.0
C3788 C 0.14245 0.52098 0.14726 0.0
C3789 C 0.08622 0.52057 0.14364 0.0
C3790 C 0.09535 0.51918 0.12705 0.0
C3791 C 0.11333 0.51827 0.12862 0.0
C3792 C 0.08735 0.5215 0.10847 0.0
C3793 C 0.06707 0.52221 0.14306 0.0
C3794 C 0.07159 0.50916 0.09936 0.0
C3795 C 0.06394 0.51253 0.08236 0.0
C3796 C 0.07211 0.52809 0.07408 0.0
C3797 C 0.0881 0.54004 0.08303 0.0
C3798 C 0.09557 0.53684 0.10003 0.0
H3799 H 0.06312 0.52703 0.15745 0.0
H3800 H 0.06458 0.53253 0.13384 0.0
H3801 H 0.05843 0.50792 0.13708 0.0
H3802 H 0.06521 0.49698 0.10538 0.0
H3803 H 0.05174 0.50288 0.07566 0.0
H3804 H 0.80748 0.89829 0.46609 0.0
H3805 H 0.80884 0.88231 0.43338 0.0
H3806 H 0.81058 0.82932 0.45307 0.0
H3807 H 0.80942 0.84529 0.48589 0.0
H3808 H 0.83434 0.83686 0.42546 0.0
H3809 H 0.76723 0.84412 0.40119 0.0
H3810 H 0.78152 0.86666 0.41216 0.0
H3811 H 0.77511 0.84816 0.42607 0.0
C3812 C 0.80822 0.88326 0.4635 0.0
C3813 C 0.8082 0.87307 0.47865 0.0
C3814 C 0.8089 0.87408 0.44474 0.0
C3815 C 0.80948 0.85446 0.44062 0.0
C3816 C 0.81003 0.84441 0.4558 0.0
H3817 H 0.80333 0.78089 0.32624 0.0
H3818 H 0.80617 0.79052 0.36131 0.0
C3819 C 0.80933 0.85358 0.47458 0.0
C3820 C 0.80921 0.84447 0.42049 0.0
H3821 H 0.78537 0.83498 0.37695 0.0
C3822 C 0.82351 0.8362 0.41491 0.0
C3823 C 0.79503 0.84342 0.40666 0.0
C3824 C 0.77876 0.85088 0.41182 0.0
C3825 C 0.82436 0.8278 0.39578 0.0
C3826 C 0.81054 0.82753 0.38189 0.0
C3827 C 0.796 0.8352 0.38759 0.0
C3828 C 0.81154 0.82118 0.36111 0.0
C3829 C 0.8404 0.82014 0.39026 0.0
C3830 C 0.81401 0.83512 0.34944 0.0
C3831 C 0.81248 0.82968 0.32967 0.0
C3832 C 0.80856 0.81014 0.32096 0.0
C3833 C 0.80678 0.79604 0.33258 0.0
C3834 C 0.80831 0.80155 0.35258 0.0
H3835 H 0.85002 0.82124 0.40272 0.0
H3836 H 0.83625 0.80481 0.38316 0.0
H3837 H 0.84713 0.82835 0.3799 0.0
H3838 H 0.81645 0.85029 0.35564 0.0
H3839 H 0.81369 0.84083 0.32106 0.0
H3840 H 0.43412 0.56509 0.84179 0.0
H3841 H 0.44938 0.56015 0.87113 0.0
H3842 H 0.49698 0.55994 0.84296 0.0
H3843 H 0.48178 0.56496 0.81375 0.0
H3844 H 0.46394 0.53332 0.88322 0.0
H3845 H 0.52069 0.59519 0.88993 0.0
H3846 H 0.50172 0.59202 0.87297 0.0
H3847 H 0.51881 0.57886 0.86772 0.0
C3848 C 0.44788 0.5641 0.8417 0.0
C3849 C 0.4564 0.56567 0.82476 0.0
C3850 C 0.45679 0.56119 0.85881 0.0
C3851 C 0.47492 0.55995 0.8603 0.0
C3852 C 0.48335 0.56131 0.84325 0.0
H3853 H 0.55074 0.54548 0.95817 0.0
H3854 H 0.53738 0.5484 0.9267 0.0
C3855 C 0.47441 0.56407 0.82611 0.0
C3856 C 0.48461 0.55683 0.87918 0.0
H3857 H 0.52249 0.57337 0.91101 0.0
C3858 C 0.47671 0.54229 0.88914 0.0
C3859 C 0.50159 0.56799 0.88772 0.0
C3860 C 0.51117 0.58451 0.87919 0.0
C3861 C 0.48494 0.53852 0.90629 0.0
C3862 C 0.50176 0.5499 0.91507 0.0
C3863 C 0.50977 0.56434 0.90501 0.0
C3864 C 0.51063 0.54751 0.9347 0.0
C3865 C 0.47551 0.5216 0.9144 0.0
C3866 C 0.50082 0.54606 0.95073 0.0
C3867 C 0.50849 0.54417 0.96872 0.0
C3868 C 0.52661 0.54367 0.97233 0.0
C3869 C 0.53672 0.54529 0.95645 0.0
C3870 C 0.52894 0.54718 0.93819 0.0
H3871 H 0.4671 0.51043 0.9031 0.0
H3872 H 0.485 0.51482 0.92158 0.0
H3873 H 0.46664 0.52656 0.92487 0.0
H3874 H 0.48703 0.5469 0.9496 0.0
H3875 H 0.49999 0.54342 0.98022 0.0
H3876 H 0.76756 0.19345 0.06222 0.0
H3877 H 0.7735 0.21108 0.09483 0.0
H3878 H 0.82815 0.20625 0.09496 0.0
H3879 H 0.82198 0.18771 0.06217 0.0
H3880 H 0.81556 0.20196 0.12872 0.0
H3881 H 0.7984 0.26674 0.10818 0.0
H3882 H 0.78034 0.24639 0.10064 0.0
H3883 H 0.80132 0.24671 0.0908 0.0
C3884 C 0.78082 0.19599 0.06925 0.0
C3885 C 0.79438 0.18947 0.05967 0.0
C3886 C 0.78424 0.20623 0.08781 0.0
C3887 C 0.80142 0.21064 0.09706 0.0
C3888 C 0.81486 0.20326 0.08793 0.0
H3889 H 0.81386 0.29603 0.20278 0.0
H3890 H 0.81788 0.28079 0.1706 0.0
C3891 C 0.81133 0.19263 0.06931 0.0
C3892 C 0.80497 0.22295 0.11624 0.0
H3893 H 0.79636 0.26407 0.14135 0.0
C3894 C 0.81166 0.21571 0.13147 0.0
C3895 C 0.80045 0.2412 0.1198 0.0
C3896 C 0.79494 0.2508 0.10392 0.0
C3897 C 0.81274 0.22558 0.15029 0.0
C3898 C 0.80634 0.24277 0.15399 0.0
C3899 C 0.80087 0.25068 0.13863 0.0
C3900 C 0.80426 0.25216 0.17359 0.0
C3901 C 0.82065 0.21737 0.16598 0.0
C3902 C 0.79471 0.24137 0.18575 0.0
C3903 C 0.79287 0.24993 0.20427 0.0
C3904 C 0.80025 0.26961 0.21098 0.0
C3905 C 0.80872 0.28071 0.19836 0.0
C3906 C 0.81088 0.27202 0.17989 0.0
H3907 H 0.83065 0.20922 0.16068 0.0
H3908 H 0.82707 0.22885 0.17814 0.0
H3909 H 0.81002 0.20716 0.17115 0.0
H3910 H 0.7887 0.22625 0.18096 0.0
H3911 H 0.78583 0.24098 0.21337 0.0
H3912 H 0.14675 0.57043 0.30962 0.0
H3913 H 0.13678 0.57889 0.34093 0.0
H3914 H 0.17441 0.55106 0.36544 0.0
H3915 H 0.18482 0.54275 0.33383 0.0
H3916 H 0.13596 0.53874 0.37186 0.0
H3917 H 0.16192 0.61773 0.39031 0.0
H3918 H 0.15271 0.60941 0.36601 0.0
H3919 H 0.17216 0.60203 0.37423 0.0
C3920 C 0.15317 0.56638 0.32168 0.0
C3921 C 0.16656 0.55591 0.31929 0.0
C3922 C 0.14751 0.57133 0.33959 0.0
C3923 C 0.15498 0.56576 0.35548 0.0
C3924 C 0.16863 0.55564 0.35332 0.0
H3925 H 0.10274 0.59739 0.4592 0.0
H3926 H 0.12673 0.58937 0.44039 0.0
C3927 C 0.17456 0.55094 0.33533 0.0
C3928 C 0.147 0.56902 0.3737 0.0
H3929 H 0.13557 0.60493 0.40459 0.0
C3930 C 0.13626 0.55316 0.37942 0.0
C3931 C 0.14748 0.58783 0.38354 0.0
C3932 C 0.15932 0.60524 0.37835 0.0
C3933 C 0.12483 0.55578 0.39371 0.0
C3934 C 0.12418 0.57468 0.40236 0.0
C3935 C 0.13602 0.59045 0.3978 0.0
C3936 C 0.10979 0.57846 0.41417 0.0
C3937 C 0.11286 0.53839 0.39879 0.0
C3938 C 0.09245 0.57507 0.40553 0.0
C3939 C 0.07887 0.57986 0.41606 0.0
C3940 C 0.08237 0.58803 0.43548 0.0
C3941 C 0.0997 0.59106 0.44425 0.0
C3942 C 0.11337 0.5865 0.43359 0.0
H3943 H 0.11798 0.52513 0.39466 0.0
H3944 H 0.11137 0.54056 0.41431 0.0
H3945 H 0.09952 0.53617 0.39113 0.0
H3946 H 0.0895 0.56906 0.39049 0.0
H3947 H 0.0656 0.57719 0.40902 0.0
H3948 H 0.80625 0.89406 0.59377 0.0
H3949 H 0.80453 0.88422 0.6252 0.0
H3950 H 0.79753 0.8248 0.59822 0.0
H3951 H 0.79937 0.83437 0.56723 0.0
H3952 H 0.77875 0.85764 0.64132 0.0
H3953 H 0.84182 0.83312 0.63549 0.0
H3954 H 0.83479 0.84817 0.62009 0.0
H3955 H 0.8258 0.8226 0.61546 0.0
C3956 C 0.80409 0.8789 0.59455 0.0
C3957 C 0.80319 0.86508 0.5779 0.0
C3958 C 0.80317 0.87327 0.61254 0.0
C3959 C 0.80134 0.85376 0.6142 0.0
C3960 C 0.79942 0.83996 0.59748 0.0
H3961 H 0.77487 0.78993 0.70596 0.0
H3962 H 0.77475 0.80499 0.67773 0.0
C3963 C 0.80041 0.84552 0.57967 0.0
C3964 C 0.80201 0.84753 0.63319 0.0
H3965 H 0.82434 0.82308 0.65987 0.0
C3966 C 0.7888 0.85023 0.64544 0.0
C3967 C 0.81522 0.83801 0.63881 0.0
C3968 C 0.83032 0.83544 0.62688 0.0
C3969 C 0.78812 0.84312 0.66272 0.0
C3970 C 0.80087 0.83282 0.66788 0.0
C3971 C 0.81441 0.83073 0.65592 0.0
C3972 C 0.80052 0.82412 0.68556 0.0
C3973 C 0.77383 0.84682 0.67541 0.0
C3974 C 0.81515 0.82948 0.69939 0.0
C3975 C 0.81522 0.8209 0.71563 0.0
C3976 C 0.80075 0.80652 0.71846 0.0
C3977 C 0.78616 0.80107 0.70452 0.0
C3978 C 0.78605 0.80977 0.68832 0.0
H3979 H 0.76814 0.85899 0.67212 0.0
H3980 H 0.76296 0.83375 0.67321 0.0
H3981 H 0.77906 0.85009 0.69064 0.0
H3982 H 0.82656 0.84039 0.69762 0.0
H3983 H 0.82674 0.82554 0.72595 0.0
H3984 H 0.79597 0.48656 0.54515 0.0
H3985 H 0.77446 0.50681 0.55167 0.0
H3986 H 0.73167 0.45659 0.53703 0.0
H3987 H 0.75309 0.4362 0.53075 0.0
H3988 H 0.74882 0.51151 0.52606 0.0
H3989 H 0.71803 0.48366 0.58684 0.0
H3990 H 0.73867 0.47863 0.57912 0.0
H3991 H 0.71789 0.46511 0.56668 0.0
C3992 C 0.78199 0.47977 0.54358 0.0
C3993 C 0.77624 0.45975 0.53747 0.0
C3994 C 0.76972 0.49139 0.54728 0.0
C3995 C 0.75146 0.48321 0.54505 0.0
C3996 C 0.74569 0.46318 0.53924 0.0
H3997 H 0.66463 0.5366 0.52197 0.0
H3998 H 0.68825 0.51871 0.52102 0.0
C3999 C 0.75796 0.45155 0.53556 0.0
C4000 C 0.73845 0.49575 0.54754 0.0
H4001 H 0.70276 0.50339 0.57134 0.0
C4002 C 0.73885 0.50984 0.53608 0.0
C4003 C 0.72557 0.49373 0.56077 0.0
C4004 C 0.72507 0.4796 0.5742 0.0
C4005 C 0.7264 0.52155 0.53707 0.0
C4006 C 0.713 0.51891 0.54965 0.0
C4007 C 0.71293 0.50526 0.56155 0.0
C4008 C 0.69872 0.52987 0.55033 0.0
C4009 C 0.72775 0.53672 0.52469 0.0
C4010 C 0.6965 0.54178 0.56724 0.0
C4011 C 0.68288 0.55191 0.56789 0.0
C4012 C 0.6711 0.55017 0.55166 0.0
C4013 C 0.67335 0.53815 0.53477 0.0
C4014 C 0.68697 0.52806 0.53414 0.0
H4015 H 0.74129 0.54056 0.52006 0.0
H4016 H 0.71835 0.53108 0.51173 0.0
H4017 H 0.72429 0.55001 0.53228 0.0
H4018 H 0.70535 0.54327 0.57993 0.0
H4019 H 0.68138 0.56085 0.58118 0.0
H4020 H 0.22275 0.17949 0.48879 0.0
H4021 H 0.19432 0.1575 0.4894 0.0
H4022 H 0.22143 0.11349 0.50092 0.0
H4023 H 0.25005 0.13555 0.50071 0.0
H4024 H 0.17831 0.12231 0.46844 0.0
H4025 H 0.18985 0.11617 0.5442 0.0
H4026 H 0.20395 0.13392 0.53354 0.0
H4027 H 0.20641 0.10936 0.52955 0.0
C4028 C 0.22276 0.16513 0.49141 0.0
C4029 C 0.23884 0.15944 0.49486 0.0
C4030 C 0.20641 0.15252 0.49172 0.0
C4031 C 0.20563 0.13389 0.49555 0.0
C4032 C 0.22161 0.12791 0.49838 0.0
H4033 H 0.10543 0.04566 0.48121 0.0
H4034 H 0.13512 0.06362 0.47726 0.0
C4035 C 0.23802 0.14055 0.49812 0.0
C4036 C 0.18808 0.12099 0.49684 0.0
H4037 H 0.16351 0.09682 0.52717 0.0
C4038 C 0.17511 0.11667 0.48126 0.0
C4039 C 0.18373 0.11379 0.51365 0.0
C4040 C 0.19663 0.11866 0.53127 0.0
C4041 C 0.15801 0.10548 0.48203 0.0
C4042 C 0.15376 0.09806 0.49874 0.0
C4043 C 0.16675 0.10232 0.51428 0.0
C4044 C 0.13565 0.08684 0.5009 0.0
C4045 C 0.14447 0.10226 0.46515 0.0
C4046 C 0.12609 0.09357 0.51571 0.0
C4047 C 0.10922 0.08322 0.51815 0.0
C4048 C 0.1014 0.06573 0.50587 0.0
C4049 C 0.11099 0.05898 0.491 0.0
C4050 C 0.12795 0.06936 0.48861 0.0
H4051 H 0.14836 0.11269 0.45551 0.0
H4052 H 0.14323 0.08753 0.45688 0.0
H4053 H 0.13125 0.10353 0.46983 0.0
H4054 H 0.13168 0.10697 0.52541 0.0
H4055 H 0.10236 0.08899 0.52977 0.0
H4056 H 0.22618 0.9783 0.76456 0.0
H4057 H 0.24217 0.9521 0.7643 0.0
H4058 H 0.19305 0.9124 0.76695 0.0
H4059 H 0.17708 0.93861 0.76715 0.0
H4060 H 0.25089 0.92902 0.78604 0.0
H4061 H 0.20948 0.87684 0.72744 0.0
H4062 H 0.20706 0.90143 0.73304 0.0
H4063 H 0.19679 0.88385 0.74653 0.0
C4064 C 0.21854 0.96401 0.76491 0.0
C4065 C 0.19982 0.96133 0.76566 0.0
C4066 C 0.22794 0.94863 0.76484 0.0
C4067 C 0.21941 0.92919 0.76521 0.0
C4068 C 0.20067 0.92654 0.76606 0.0
H4069 H 0.27662 0.84008 0.80033 0.0
H4070 H 0.2617 0.86644 0.79796 0.0
C4071 C 0.19127 0.94197 0.76632 0.0
C4072 C 0.23001 0.91234 0.76516 0.0
H4073 H 0.23026 0.86478 0.74512 0.0
C4074 C 0.24611 0.91507 0.77696 0.0
C4075 C 0.22486 0.89352 0.75337 0.0
C4076 C 0.20872 0.8887 0.73923 0.0
C4077 C 0.25629 0.90036 0.77768 0.0
C4078 C 0.25083 0.88136 0.76635 0.0
C4079 C 0.23501 0.87875 0.75416 0.0
C4080 C 0.26101 0.86437 0.76743 0.0
C4081 C 0.27333 0.90572 0.79052 0.0
C4082 C 0.26622 0.85292 0.75125 0.0
C4083 C 0.27531 0.83738 0.75266 0.0
C4084 C 0.27961 0.83205 0.77038 0.0
C4085 C 0.27423 0.84342 0.78633 0.0
C4086 C 0.26548 0.85895 0.78497 0.0
H4087 H 0.27877 0.92153 0.7933 0.0
H4088 H 0.27072 0.90128 0.8044 0.0
H4089 H 0.28353 0.89841 0.78428 0.0
H4090 H 0.26326 0.85597 0.73726 0.0
H4091 H 0.2785 0.8292 0.73971 0.0
H4092 H 0.36888 0.92139 0.98305 0.0
H4093 H 0.39958 0.93776 0.98143 0.0
H4094 H 0.38719 0.99235 0.00356 0.0
H4095 H 0.35649 0.97619 0.00542 0.0
H4096 H 0.41457 0.96927 0.96266 0.0
H4097 H 0.42763 0.98724 0.04157 0.0
H4098 H 0.40849 0.96959 0.02971 0.0
H4099 H 0.40899 0.99485 0.03163 0.0
C4100 C 0.37261 0.9369 0.98748 0.0
C4101 C 0.36022 0.94743 0.99459 0.0
C4102 C 0.39016 0.94622 0.98648 0.0
C4103 C 0.39567 0.9662 0.99261 0.0
C4104 C 0.38323 0.97687 0.99902 0.0
H4105 H 0.50261 0.03712 0.0164 0.0
H4106 H 0.47044 0.02722 0.0101 0.0
C4107 C 0.36568 0.96758 1.00003 0.0
C4108 C 0.4146 0.97569 0.99314 0.0
H4109 H 0.45103 0.99812 0.0238 0.0
C4110 C 0.42257 0.97568 0.97599 0.0
C4111 C 0.42493 0.98404 0.01057 0.0
C4112 C 0.41718 0.98386 0.02946 0.0
C4113 C 0.44067 0.98382 0.97583 0.0
C4114 C 0.45109 0.9918 0.9933 0.0
C4115 C 0.44301 0.9921 0.0104 0.0
C4116 C 0.47058 0.99886 0.99446 0.0
C4117 C 0.44842 0.98386 0.95695 0.0
C4118 C 0.4814 0.98632 0.98757 0.0
C4119 C 0.49983 0.9921 0.99091 0.0
C4120 C 0.50777 0.0105 1.0012 0.0
C4121 C 0.49696 0.02312 0.00791 0.0
C4122 C 0.47853 0.0174 0.00444 0.0
H4123 H 0.43813 0.98343 0.94533 0.0
H4124 H 0.45921 0.99677 0.95745 0.0
H4125 H 0.454 0.97085 0.95338 0.0
H4126 H 0.47559 0.97175 0.98033 0.0
H4127 H 0.5079 0.98199 0.98595 0.0
H4128 H 0.93011 0.61305 0.78272 0.0
H4129 H 0.91316 0.63628 0.77457 0.0
H4130 H 0.86801 0.58984 0.75369 0.0
H4131 H 0.88484 0.56656 0.76165 0.0
H4132 H 0.87653 0.6155 0.72866 0.0
H4133 H 0.8721 0.65435 0.80143 0.0
H4134 H 0.89418 0.65265 0.79601 0.0
H4135 H 0.87799 0.63114 0.79703 0.0
C4136 C 0.91656 0.6078 0.77644 0.0
C4137 C 0.90882 0.58797 0.77283 0.0
C4138 C 0.90685 0.6211 0.77194 0.0
C4139 C 0.88923 0.6148 0.76381 0.0
C4140 C 0.88154 0.59501 0.76008 0.0
H4141 H 0.81229 0.6829 0.73759 0.0
H4142 H 0.8272 0.66066 0.75131 0.0
C4143 C 0.8912 0.58173 0.76462 0.0
C4144 C 0.87908 0.6287 0.75825 0.0
H4145 H 0.86286 0.66818 0.77557 0.0
C4146 C 0.87345 0.62694 0.73894 0.0
C4147 C 0.87491 0.64348 0.77172 0.0
C4148 C 0.87995 0.64549 0.79274 0.0
C4149 C 0.8642 0.63988 0.73264 0.0
C4150 C 0.86059 0.65507 0.74599 0.0
C4151 C 0.86576 0.65657 0.76538 0.0
C4152 C 0.8521 0.6699 0.73974 0.0
C4153 C 0.85839 0.63731 0.71171 0.0
C4154 C 0.86136 0.68281 0.72926 0.0
C4155 C 0.85296 0.69551 0.7215 0.0
C4156 C 0.83508 0.69564 0.72405 0.0
C4157 C 0.82608 0.6833 0.7354 0.0
C4158 C 0.83454 0.67053 0.7432 0.0
H4159 H 0.85883 0.62275 0.70395 0.0
H4160 H 0.84472 0.63959 0.70957 0.0
H4161 H 0.86737 0.64815 0.70534 0.0
H4162 H 0.875 0.68269 0.72665 0.0
H4163 H 0.86046 0.70492 0.71315 0.0
H4164 H 0.85752 0.68163 0.01224 0.0
H4165 H 0.88186 0.66503 0.01594 0.0
H4166 H 0.84418 0.61366 0.0216 0.0
H4167 H 0.81985 0.63008 0.01786 0.0
H4168 H 0.8924 0.64729 0.04571 0.0
H4169 H 0.87266 0.59402 0.97871 0.0
H4170 H 0.86388 0.61547 0.98378 0.0
H4171 H 0.85523 0.5948 0.99417 0.0
C4172 C 0.85441 0.66682 0.01434 0.0
C4173 C 0.83666 0.65721 0.01467 0.0
C4174 C 0.86836 0.65733 0.01645 0.0
C4175 C 0.86491 0.63794 0.01872 0.0
C4176 C 0.84723 0.62847 0.01948 0.0
H4177 H 0.93315 0.56952 0.0603 0.0
H4178 H 0.9125 0.59022 0.05589 0.0
C4179 C 0.8333 0.63796 0.01747 0.0
C4180 C 0.87971 0.62761 0.02041 0.0
H4181 H 0.89483 0.58823 1.00008 0.0
C4182 C 0.89297 0.63445 0.03566 0.0
C4183 C 0.88072 0.61099 0.00716 0.0
C4184 C 0.86747 0.60345 0.98992 0.0
C4185 C 0.90677 0.62479 0.03838 0.0
C4186 C 0.90733 0.60768 0.0256 0.0
C4187 C 0.89441 0.60123 0.00999 0.0
C4188 C 0.92072 0.59586 0.0286 0.0
C4189 C 0.9207 0.63306 0.0549 0.0
C4190 C 0.93227 0.59187 0.01468 0.0
C4191 C 0.94415 0.5799 0.01716 0.0
C4192 C 0.94456 0.57138 0.03349 0.0
C4193 C 0.93315 0.57566 0.04748 0.0
C4194 C 0.9214 0.58769 0.04506 0.0
H4195 H 0.92147 0.64867 0.05986 0.0
H4196 H 0.91726 0.62554 0.06696 0.0
H4197 H 0.93397 0.63104 0.05102 0.0
H4198 H 0.93197 0.59789 0.0018 0.0
H4199 H 0.9526 0.5768 0.00601 0.0
H4200 H 0.17489 0.0884 0.77327 0.0
H4201 H 0.19402 0.11961 0.7734 0.0
H4202 H 0.23993 0.09591 0.7821 0.0
H4203 H 0.22051 0.06393 0.78111 0.0
H4204 H 0.2141 0.14526 0.79656 0.0
H4205 H 0.2597 0.12494 0.744 0.0
H4206 H 0.24022 0.10805 0.74798 0.0
H4207 H 0.26017 0.1128 0.76387 0.0
C4208 C 0.18907 0.08951 0.77512 0.0
C4209 C 0.1958 0.073 0.77714 0.0
C4210 C 0.2002 0.10778 0.77524 0.0
C4211 C 0.21887 0.11089 0.7775 0.0
C4212 C 0.22576 0.09445 0.7797 0.0
H4213 H 0.30141 0.222 0.79005 0.0
H4214 H 0.2856 0.18877 0.79045 0.0
C4215 C 0.21451 0.0759 0.77932 0.0
C4216 C 0.23047 0.13134 0.77803 0.0
H4217 H 0.26684 0.15727 0.76055 0.0
C4218 C 0.22555 0.14762 0.78851 0.0
C4219 C 0.24573 0.13533 0.76777 0.0
C4220 C 0.2517 0.1194 0.75512 0.0
C4221 C 0.235 0.16695 0.78901 0.0
C4222 C 0.25016 0.1709 0.77874 0.0
C4223 C 0.25537 0.15472 0.76854 0.0
C4224 C 0.26032 0.19158 0.77812 0.0
C4225 C 0.22872 0.18313 0.80093 0.0
C4226 C 0.2519 0.20491 0.77092 0.0
C4227 C 0.26111 0.224 0.77038 0.0
C4228 C 0.27926 0.23091 0.77711 0.0
C4229 C 0.28766 0.21758 0.78443 0.0
C4230 C 0.27848 0.19834 0.78473 0.0
H4231 H 0.22012 0.1779 0.81174 0.0
H4232 H 0.24011 0.19447 0.80831 0.0
H4233 H 0.22088 0.18978 0.79153 0.0
H4234 H 0.23807 0.20049 0.76544 0.0
H4235 H 0.25384 0.23339 0.76457 0.0
H4236 H 0.4261 0.98519 0.31341 0.0
H4237 H 0.40459 0.95514 0.31259 0.0
H4238 H 0.36223 0.982 0.29746 0.0
H4239 H 0.38377 0.01218 0.29782 0.0
H4240 H 0.37562 0.94589 0.33247 0.0
H4241 H 0.35497 0.93526 0.25496 0.0
H4242 H 0.37418 0.95314 0.26623 0.0
H4243 H 0.35233 0.95737 0.26908 0.0
C4244 C 0.41222 0.98483 0.30998 0.0
C4245 C 0.40674 1.00114 0.3055 0.0
C4246 C 0.39991 0.96759 0.30954 0.0
C4247 C 0.38182 0.96619 0.30464 0.0
C4248 C 0.37616 0.9826 0.30086 0.0
H4249 H 0.3051 0.85382 0.2785 0.0
H4250 H 0.31554 0.88909 0.28743 0.0
C4251 C 0.38851 0.9999 0.3012 0.0
C4252 C 0.36919 0.94733 0.30315 0.0
H4253 H 0.34279 0.91061 0.27109 0.0
C4254 C 0.36825 0.93828 0.31911 0.0
C4255 C 0.35946 0.93743 0.28574 0.0
C4256 C 0.36031 0.94617 0.26796 0.0
C4257 C 0.35851 0.91935 0.31794 0.0
C4258 C 0.34954 0.90909 0.3003 0.0
C4259 C 0.3496 0.91851 0.28462 0.0
C4260 C 0.34226 0.88795 0.29708 0.0
C4261 C 0.35833 0.91037 0.33552 0.0
C4262 C 0.35376 0.87566 0.29954 0.0
C4263 C 0.34786 0.85575 0.2945 0.0
C4264 C 0.33028 0.84761 0.28702 0.0
C4265 C 0.31859 0.85978 0.28471 0.0
C4266 C 0.32457 0.87986 0.28971 0.0
H4267 H 0.36007 0.92148 0.34866 0.0
H4268 H 0.34578 0.8997 0.33548 0.0
H4269 H 0.36948 0.90289 0.33602 0.0
H4270 H 0.36757 0.88151 0.30464 0.0
H4271 H 0.35718 0.84664 0.29606 0.0
H4272 H 0.58715 0.34599 0.57269 0.0
H4273 H 0.5831 0.37352 0.55807 0.0
H4274 H 0.57528 0.40421 0.61279 0.0
H4275 H 0.57921 0.37672 0.6274 0.0
H4276 H 0.55058 0.40793 0.58614 0.0
H4277 H 0.61563 0.42467 0.55701 0.0
H4278 H 0.60355 0.40028 0.54908 0.0
H4279 H 0.61131 0.40857 0.57382 0.0
C4280 C 0.58479 0.35867 0.58172 0.0
C4281 C 0.58369 0.35889 0.60141 0.0
C4282 C 0.58254 0.37461 0.57328 0.0
C4283 C 0.57908 0.39149 0.58416 0.0
C4284 C 0.57798 0.39167 0.60383 0.0
H4285 H 0.56028 0.50473 0.57207 0.0
H4286 H 0.56344 0.47455 0.58139 0.0
C4287 C 0.58032 0.3758 0.61227 0.0
C4288 C 0.57596 0.40856 0.57518 0.0
H4289 H 0.59448 0.44215 0.54869 0.0
C4290 C 0.56028 0.41533 0.57799 0.0
C4291 C 0.5883 0.41849 0.5642 0.0
C4292 C 0.60572 0.4128 0.56094 0.0
C4293 C 0.55664 0.43127 0.57034 0.0
C4294 C 0.56917 0.44155 0.5598 0.0
C4295 C 0.58471 0.43457 0.55664 0.0
C4296 C 0.56687 0.46018 0.55327 0.0
C4297 C 0.53906 0.43666 0.57338 0.0
C4298 C 0.56812 0.46307 0.5342 0.0
C4299 C 0.56631 0.48077 0.5287 0.0
C4300 C 0.56324 0.49617 0.54216 0.0
C4301 C 0.56223 0.49321 0.56113 0.0
C4302 C 0.56396 0.47572 0.56654 0.0
H4303 H 0.52884 0.42409 0.57553 0.0
H4304 H 0.5406 0.4479 0.58635 0.0
H4305 H 0.53418 0.44238 0.56112 0.0
H4306 H 0.57053 0.45162 0.5235 0.0
H4307 H 0.56767 0.48252 0.51408 0.0
H4308 H 0.47944 0.75828 0.37479 0.0
H4309 H 0.45366 0.76044 0.35399 0.0
H4310 H 0.43208 0.78813 0.40245 0.0
H4311 H 0.45739 0.78597 0.42313 0.0
H4312 H 0.41529 0.74605 0.35579 0.0
H4313 H 0.43224 0.82569 0.36454 0.0
H4314 H 0.44819 0.81196 0.37035 0.0
H4315 H 0.43197 0.81664 0.38648 0.0
C4316 C 0.4692 0.76478 0.38106 0.0
C4317 C 0.47077 0.77193 0.40083 0.0
C4318 C 0.45438 0.76602 0.36909 0.0
C4319 C 0.44082 0.77472 0.37645 0.0
C4320 C 0.44231 0.78163 0.39617 0.0
H4321 H 0.34367 0.80611 0.33378 0.0
H4322 H 0.36952 0.80161 0.35244 0.0
C4323 C 0.45692 0.78024 0.40808 0.0
C4324 C 0.42507 0.77666 0.36385 0.0
H4325 H 0.40362 0.80998 0.34975 0.0
C4326 C 0.41285 0.76005 0.35434 0.0
C4327 C 0.42154 0.79485 0.36195 0.0
C4328 C 0.43422 0.81334 0.37121 0.0
C4329 C 0.39719 0.76111 0.34361 0.0
C4330 C 0.39364 0.77935 0.34165 0.0
C4331 C 0.40601 0.79594 0.35106 0.0
C4332 C 0.37728 0.78163 0.33012 0.0
C4333 C 0.38424 0.74253 0.33516 0.0
C4334 C 0.37261 0.77208 0.31108 0.0
C4335 C 0.35758 0.77447 0.3004 0.0
C4336 C 0.3468 0.78686 0.30811 0.0
C4337 C 0.35148 0.79645 0.32715 0.0
C4338 C 0.36644 0.79392 0.3379 0.0
H4339 H 0.38577 0.73076 0.34294 0.0
H4340 H 0.37033 0.74425 0.33539 0.0
H4341 H 0.38683 0.73798 0.32018 0.0
H4342 H 0.38074 0.7629 0.30427 0.0
H4343 H 0.35447 0.76656 0.28598 0.0
H4344 H 0.05601 0.75344 0.1018 0.0
H4345 H 0.05012 0.71842 0.09079 0.0
H4346 H 0.10487 0.72289 0.0796 0.0
H4347 H 0.11031 0.75783 0.08917 0.0
H4348 H 0.08831 0.69846 0.05321 0.0
H4349 H 0.0568 0.67639 0.11567 0.0
H4350 H 0.0444 0.69064 0.10454 0.0
H4351 H 0.06668 0.70117 0.1153 0.0
C4352 C 0.06681 0.74691 0.09716 0.0
C4353 C 0.08368 0.75863 0.09654 0.0
C4354 C 0.06349 0.72669 0.09094 0.0
C4355 C 0.07708 0.71739 0.0846 0.0
C4356 C 0.09397 0.72923 0.08426 0.0
H4357 H 0.0656 0.59268 0.07824 0.0
H4358 H 0.07243 0.62777 0.08669 0.0
C4359 C 0.09714 0.7494 0.08991 0.0
C4360 C 0.0739 0.69562 0.07786 0.0
H4361 H 0.05458 0.65181 0.08859 0.0
C4362 C 0.08105 0.68834 0.06115 0.0
C4363 C 0.06463 0.68191 0.08802 0.0
C4364 C 0.05787 0.68792 0.10697 0.0
C4365 C 0.07939 0.66831 0.05452 0.0
C4366 C 0.06944 0.65461 0.06423 0.0
C4367 C 0.06216 0.6619 0.08084 0.0
C4368 C 0.06692 0.63282 0.05815 0.0
C4369 C 0.08903 0.66228 0.03758 0.0
C4370 C 0.06194 0.6232 0.03907 0.0
C4371 C 0.05875 0.60285 0.03407 0.0
C4372 C 0.05996 0.59145 0.04808 0.0
C4373 C 0.06483 0.60099 0.06703 0.0
C4374 C 0.06856 0.62121 0.07191 0.0
H4375 H 0.1006 0.67379 0.03612 0.0
H4376 H 0.09382 0.649 0.03865 0.0
H4377 H 0.07991 0.65958 0.02441 0.0
H4378 H 0.05984 0.63129 0.02804 0.0
H4379 H 0.05446 0.59602 0.01943 0.0
H4380 H 0.05712 0.2597 0.86578 0.0
H4381 H 0.08374 0.26151 0.84862 0.0
H4382 H 0.11617 0.2891 0.90068 0.0
H4383 H 0.08956 0.2871 0.91798 0.0
H4384 H 0.10761 0.29331 0.84356 0.0
H4385 H 0.1431 0.2485 0.88072 0.0
H4386 H 0.12006 0.24873 0.88317 0.0
H4387 H 0.13718 0.26799 0.89625 0.0
C4388 C 0.06992 0.26594 0.87367 0.0
C4389 C 0.07109 0.27315 0.89336 0.0
C4390 C 0.0852 0.26702 0.86379 0.0
C4391 C 0.10217 0.27522 0.87328 0.0
C4392 C 0.10339 0.2823 0.89299 0.0
H4393 H 0.20792 0.30025 0.82936 0.0
H4394 H 0.18365 0.29674 0.85027 0.0
C4395 C 0.08809 0.28123 0.90289 0.0
C4396 C 0.11832 0.27717 0.8623 0.0
H4397 H 0.15886 0.26519 0.85878 0.0
C4398 C 0.11876 0.28708 0.84691 0.0
C4399 C 0.13309 0.26926 0.86663 0.0
C4400 C 0.13335 0.25788 0.88248 0.0
C4401 C 0.13337 0.28934 0.8359 0.0
C4402 C 0.148 0.28113 0.83996 0.0
C4403 C 0.14773 0.27149 0.85555 0.0
C4404 C 0.16326 0.28189 0.82772 0.0
C4405 C 0.13308 0.30084 0.82012 0.0
C4406 C 0.1602 0.27407 0.80819 0.0
C4407 C 0.17401 0.27603 0.79628 0.0
C4408 C 0.19143 0.28577 0.80349 0.0
C4409 C 0.19474 0.29265 0.82326 0.0
C4410 C 0.18081 0.29073 0.83523 0.0
H4411 H 0.12387 0.3108 0.82243 0.0
H4412 H 0.1465 0.30941 0.81889 0.0
H4413 H 0.12844 0.29083 0.80641 0.0
H4414 H 0.14699 0.26667 0.80202 0.0
H4415 H 0.17095 0.27015 0.78124 0.0
H4416 H 0.61181 0.79403 0.95097 0.0
H4417 H 0.60741 0.76654 0.96736 0.0
H4418 H 0.57216 0.73226 0.91953 0.0
H4419 H 0.57735 0.75963 0.90267 0.0
H4420 H 0.57756 0.75189 0.97898 0.0
H4421 H 0.59858 0.69315 0.93188 0.0
H4422 H 0.60393 0.71783 0.9284 0.0
H4423 H 0.58241 0.7028 0.91995 0.0
C4424 C 0.60356 0.78042 0.94374 0.0
C4425 C 0.59497 0.77886 0.92556 0.0
C4426 C 0.60098 0.76474 0.95313 0.0
C4427 C 0.58947 0.74725 0.94473 0.0
C4428 C 0.58141 0.74542 0.92619 0.0
H4429 H 0.53521 0.66981 0.01505 0.0
H4430 H 0.54308 0.69373 0.99458 0.0
C4431 C 0.58434 0.76106 0.91656 0.0
C4432 C 0.58457 0.73192 0.9563 0.0
H4433 H 0.58159 0.68412 0.95711 0.0
C4434 C 0.57858 0.7371 0.97421 0.0
C4435 C 0.58597 0.71263 0.95019 0.0
C4436 C 0.59324 0.70629 0.93164 0.0
C4437 C 0.57401 0.72365 0.98618 0.0
C4438 C 0.57476 0.70421 0.97979 0.0
C4439 C 0.58082 0.69898 0.96192 0.0
C4440 C 0.56968 0.68921 0.99165 0.0
C4441 C 0.56891 0.73062 0.00575 0.0
C4442 C 0.58176 0.6782 0.9963 0.0
C4443 C 0.57717 0.66432 0.00774 0.0
C4444 C 0.56044 0.66126 0.01485 0.0
C4445 C 0.54831 0.67215 0.01007 0.0
C4446 C 0.55281 0.68583 0.9984 0.0
H4447 H 0.5742 0.74635 0.0105 0.0
H4448 H 0.55424 0.72795 0.00538 0.0
H4449 H 0.57385 0.72296 0.01645 0.0
H4450 H 0.59483 0.6805 0.99124 0.0
H4451 H 0.58678 0.65614 0.01123 0.0
H4452 H 0.05581 0.78006 0.69923 0.0
H4453 H 0.08143 0.77699 0.71915 0.0
H4454 H 0.11344 0.78102 0.67196 0.0
H4455 H 0.0881 0.78438 0.65204 0.0
H4456 H 0.0992 0.74754 0.71219 0.0
H4457 H 0.14562 0.81776 0.71521 0.0
H4458 H 0.12227 0.8138 0.70774 0.0
H4459 H 0.13729 0.80612 0.69132 0.0
C4460 C 0.06838 0.78067 0.69316 0.0
C4461 C 0.06984 0.78245 0.67398 0.0
C4462 C 0.08299 0.77886 0.70458 0.0
C4463 C 0.09939 0.77898 0.6971 0.0
C4464 C 0.10103 0.7813 0.67815 0.0
H4465 H 0.19877 0.75078 0.72353 0.0
H4466 H 0.17246 0.75935 0.70997 0.0
C4467 C 0.08645 0.78311 0.66673 0.0
C4468 C 0.11439 0.77507 0.70852 0.0
H4469 H 0.15829 0.79222 0.72357 0.0
C4470 C 0.11206 0.75742 0.71494 0.0
C4471 C 0.13114 0.78798 0.71207 0.0
C4472 C 0.13421 0.80756 0.70639 0.0
C4473 C 0.12624 0.75197 0.7241 0.0
C4474 C 0.14312 0.76463 0.7271 0.0
C4475 C 0.14533 0.78251 0.72115 0.0
C4476 C 0.15887 0.75924 0.73556 0.0
C4477 C 0.12326 0.7324 0.72979 0.0
C4478 C 0.15993 0.75636 0.75447 0.0
C4479 C 0.17502 0.75153 0.76233 0.0
C4480 C 0.18933 0.74961 0.75141 0.0
C4481 C 0.18811 0.75241 0.73242 0.0
C4482 C 0.17306 0.75725 0.72461 0.0
H4483 H 0.11046 0.72294 0.72315 0.0
H4484 H 0.13416 0.72512 0.7257 0.0
H4485 H 0.12309 0.73416 0.74548 0.0
H4486 H 0.14921 0.75811 0.76324 0.0
H4487 H 0.17564 0.74974 0.77706 0.0
H4488 H 0.08895 0.36974 0.37228 0.0
H4489 H 0.07992 0.40051 0.38193 0.0
H4490 H 0.10315 0.40459 0.43906 0.0
H4491 H 0.11181 0.37389 0.42969 0.0
H4492 H 0.05763 0.40497 0.41786 0.0
H4493 H 0.12032 0.45948 0.42031 0.0
H4494 H 0.11553 0.4365 0.40423 0.0
H4495 H 0.12224 0.43784 0.42893 0.0
C4496 C 0.09246 0.37748 0.38676 0.0
C4497 C 0.1011 0.36957 0.40027 0.0
C4498 C 0.08724 0.39494 0.39224 0.0
C4499 C 0.091 0.40475 0.41114 0.0
C4500 C 0.1003 0.39724 0.42437 0.0
H4501 H 0.08072 0.49121 0.49852 0.0
H4502 H 0.08743 0.46611 0.47478 0.0
C4503 C 0.10521 0.37974 0.41902 0.0
C4504 C 0.08398 0.42192 0.41794 0.0
H4505 H 0.09793 0.46909 0.43891 0.0
C4506 C 0.06623 0.41917 0.42204 0.0
C4507 C 0.09535 0.44026 0.42339 0.0
C4508 C 0.11442 0.44385 0.4189 0.0
C4509 C 0.05988 0.43403 0.43286 0.0
C4510 C 0.07159 0.45212 0.43933 0.0
C4511 C 0.089 0.45518 0.434 0.0
C4512 C 0.06685 0.46723 0.45352 0.0
C4513 C 0.04116 0.42981 0.43846 0.0
C4514 C 0.05283 0.47601 0.44956 0.0
C4515 C 0.04878 0.49032 0.46328 0.0
C4516 C 0.05894 0.49637 0.48101 0.0
C4517 C 0.07275 0.48722 0.48497 0.0
C4518 C 0.07666 0.47286 0.47136 0.0
H4519 H 0.03495 0.41417 0.43513 0.0
H4520 H 0.04088 0.43502 0.45392 0.0
H4521 H 0.03297 0.43745 0.43057 0.0
H4522 H 0.04513 0.47196 0.43583 0.0
H4523 H 0.03776 0.49666 0.45995 0.0
H4524 H 0.47829 0.25391 0.20727 0.0
H4525 H 0.4524 0.24961 0.22567 0.0
H4526 H 0.42043 0.26107 0.17938 0.0
H4527 H 0.44595 0.26468 0.16079 0.0
H4528 H 0.4337 0.27373 0.23912 0.0
H4529 H 0.38791 0.21476 0.19075 0.0
H4530 H 0.41115 0.22138 0.18734 0.0
H4531 H 0.39554 0.23372 0.17792 0.0
C4532 C 0.46567 0.25529 0.20096 0.0
C4533 C 0.46416 0.25955 0.18253 0.0
C4534 C 0.45088 0.2528 0.21148 0.0
C4535 C 0.43429 0.25456 0.2038 0.0
C4536 C 0.43286 0.25895 0.18543 0.0
H4537 H 0.33385 0.27309 0.22994 0.0
H4538 H 0.36177 0.2682 0.21777 0.0
C4539 C 0.44755 0.26122 0.17486 0.0
C4540 C 0.41878 0.25338 0.21533 0.0
H4541 H 0.37404 0.236 0.21208 0.0
C4542 C 0.42069 0.26524 0.23334 0.0
C4543 C 0.40185 0.24186 0.20817 0.0
C4544 C 0.39906 0.22705 0.19009 0.0
C4545 C 0.40596 0.26716 0.24357 0.0
C4546 C 0.38877 0.25713 0.23543 0.0
C4547 C 0.38708 0.24418 0.2181 0.0
C4548 C 0.37226 0.26086 0.24362 0.0
C4549 C 0.40909 0.28032 0.26272 0.0
C4550 C 0.36875 0.2584 0.26224 0.0
C4551 C 0.35287 0.26161 0.26933 0.0
C4552 C 0.34032 0.26735 0.25792 0.0
C4553 C 0.34366 0.26941 0.23924 0.0
C4554 C 0.35952 0.26639 0.23223 0.0
H4555 H 0.42162 0.29141 0.26403 0.0
H4556 H 0.39806 0.28766 0.26545 0.0
H4557 H 0.41011 0.2716 0.27397 0.0
H4558 H 0.37808 0.25361 0.27114 0.0
H4559 H 0.35022 0.25923 0.28355 0.0
H4560 H 0.67719 0.52059 0.34082 0.0
H4561 H 0.66263 0.52401 0.37064 0.0
H4562 H 0.61166 0.50887 0.33835 0.0
H4563 H 0.62617 0.50596 0.30858 0.0
H4564 H 0.63811 0.54849 0.38567 0.0
H4565 H 0.60428 0.47175 0.37759 0.0
H4566 H 0.62277 0.47963 0.36435 0.0
H4567 H 0.60115 0.48301 0.3574 0.0
C4568 C 0.66286 0.518 0.33988 0.0
C4569 C 0.65318 0.51293 0.32162 0.0
C4570 C 0.65438 0.52 0.35726 0.0
C4571 C 0.63565 0.51656 0.35755 0.0
C4572 C 0.62599 0.51146 0.33929 0.0
H4573 H 0.55971 0.50802 0.44964 0.0
H4574 H 0.57444 0.50568 0.42017 0.0
C4575 C 0.63446 0.50986 0.32193 0.0
C4576 C 0.62637 0.51843 0.37657 0.0
H4577 H 0.59739 0.49296 0.4034 0.0
C4578 C 0.62928 0.53621 0.38945 0.0
C4579 C 0.6144 0.50286 0.38219 0.0
C4580 C 0.61046 0.48315 0.36982 0.0
C4581 C 0.62064 0.5389 0.40674 0.0
C4582 C 0.60896 0.52317 0.41273 0.0
C4583 C 0.60612 0.50536 0.39974 0.0
C4584 C 0.59952 0.52482 0.43182 0.0
C4585 C 0.62363 0.55915 0.41783 0.0
C4586 C 0.60794 0.53604 0.4495 0.0
C4587 C 0.59911 0.53777 0.46663 0.0
C4588 C 0.58136 0.52793 0.46757 0.0
C4589 C 0.57312 0.51615 0.45013 0.0
C4590 C 0.58183 0.51471 0.43289 0.0
H4591 H 0.6271 0.56997 0.40849 0.0
H4592 H 0.61169 0.56176 0.42482 0.0
H4593 H 0.63493 0.56159 0.42885 0.0
H4594 H 0.62166 0.54347 0.45037 0.0
H4595 H 0.60646 0.54684 0.47936 0.0
H4596 H 0.33248 0.94499 0.06793 0.0
H4597 H 0.34084 0.93651 0.09861 0.0
H4598 H 0.29902 0.88525 0.08624 0.0
H4599 H 0.29091 0.8934 0.0556 0.0
H4600 H 0.31129 0.91328 0.13025 0.0
H4601 H 0.35882 0.87967 0.0878 0.0
H4602 H 0.35469 0.90285 0.08498 0.0
H4603 H 0.33814 0.88139 0.076 0.0
C4604 C 0.32464 0.93237 0.07218 0.0
C4605 C 0.31111 0.91977 0.05951 0.0
C4606 C 0.32946 0.92752 0.08961 0.0
C4607 C 0.32056 0.91025 0.09451 0.0
C4608 C 0.30597 0.89867 0.08265 0.0
H4609 H 0.31036 0.82862 0.16509 0.0
H4610 H 0.30844 0.85395 0.1468 0.0
C4611 C 0.30135 0.90332 0.0652 0.0
C4612 C 0.32793 0.90228 0.11005 0.0
H4613 H 0.35226 0.86911 0.11649 0.0
C4614 C 0.3206 0.90399 0.12753 0.0
C4615 C 0.34019 0.89037 0.10641 0.0
C4616 C 0.34854 0.88839 0.08783 0.0
C4617 C 0.32447 0.89312 0.14113 0.0
C4618 C 0.33542 0.87977 0.13673 0.0
C4619 C 0.34375 0.87919 0.1198 0.0
C4620 C 0.33684 0.86484 0.14834 0.0
C4621 C 0.31644 0.89572 0.15986 0.0
C4622 C 0.35346 0.86185 0.15444 0.0
C4623 C 0.35458 0.84702 0.16453 0.0
C4624 C 0.33907 0.83505 0.16869 0.0
C4625 C 0.3225 0.83784 0.16226 0.0
C4626 C 0.3214 0.85246 0.15203 0.0
H4627 H 0.31463 0.9107 0.16397 0.0
H4628 H 0.30315 0.88594 0.15841 0.0
H4629 H 0.32479 0.89241 0.17146 0.0
H4630 H 0.36555 0.87104 0.15148 0.0
H4631 H 0.3675 0.84519 0.16945 0.0
H4632 H 0.97568 0.54402 0.82505 0.0
H4633 H 0.99104 0.54584 0.85609 0.0
H4634 H 0.95332 0.5756 0.88283 0.0
H4635 H 0.93719 0.57276 0.85157 0.0
H4636 H 0.00794 0.57499 0.88106 0.0
H4637 H 0.95242 0.53555 0.91488 0.0
H4638 H 0.95091 0.53655 0.88987 0.0
H4639 H 0.94795 0.55662 0.90709 0.0
C4640 C 0.9705 0.55076 0.83753 0.0
C4641 C 0.95513 0.55809 0.8359 0.0
C4642 C 0.97937 0.55189 0.85531 0.0
C4643 C 0.9733 0.56068 0.87191 0.0
C4644 C 0.95804 0.56829 0.87033 0.0
H4645 H 0.04493 0.58226 0.97809 0.0
H4646 H 0.02885 0.58771 0.9496 0.0
C4647 C 0.94887 0.56675 0.85247 0.0
C4648 C 0.98324 0.56183 0.89064 0.0
H4649 H 0.97932 0.54844 0.93404 0.0
C4650 C 1.00167 0.5692 0.89267 0.0
C4651 C 0.97508 0.55424 0.90579 0.0
C4652 C 0.95555 0.54513 0.9043 0.0
C4653 C 0.01227 0.56846 0.90901 0.0
C4654 C 1.00411 0.56086 0.92414 0.0
C4655 C 0.98558 0.55427 0.92245 0.0
C4656 C 0.01448 0.55801 0.94117 0.0
C4657 C 0.03214 0.57491 0.9094 0.0
C4658 C 0.01164 0.53964 0.94611 0.0
C4659 C 0.0204 0.53669 0.96253 0.0
C4660 C 0.03242 0.55196 0.97428 0.0
C4661 C 0.03581 0.57023 0.96913 0.0
C4662 C 0.02668 0.57331 0.95282 0.0
H4663 H 0.03642 0.57537 0.89489 0.0
H4664 H 0.03645 0.58966 0.91794 0.0
H4665 H 0.03904 0.56518 0.91595 0.0
H4666 H 1.00245 0.52755 0.93732 0.0
H4667 H 0.01773 0.5224 0.96606 0.0
H4668 H 0.2987 0.18842 0.56713 0.0
H4669 H 0.29978 0.20032 0.60155 0.0
H4670 H 0.29463 0.25602 0.5906 0.0
H4671 H 0.29323 0.2443 0.55653 0.0
H4672 H 0.32223 0.22969 0.62612 0.0
H4673 H 0.25499 0.24505 0.62404 0.0
H4674 H 0.26264 0.23125 0.60404 0.0
H4675 H 0.2689 0.25716 0.60856 0.0
C4676 C 0.29786 0.20321 0.57205 0.0
C4677 C 0.29567 0.21526 0.5589 0.0
C4678 C 0.29843 0.21001 0.59177 0.0
C4679 C 0.29679 0.22897 0.59877 0.0
C4680 C 0.29533 0.24118 0.58568 0.0
H4681 H 0.30517 0.29537 0.71629 0.0
H4682 H 0.30254 0.28667 0.68115 0.0
C4683 C 0.29467 0.23442 0.56608 0.0
C4684 C 0.29689 0.23619 0.61969 0.0
H4685 H 0.27316 0.25678 0.65328 0.0
C4686 C 0.31146 0.23555 0.632 0.0
C4687 C 0.28288 0.24397 0.62754 0.0
C4688 C 0.26639 0.24425 0.6154 0.0
C4689 C 0.31247 0.24253 0.65172 0.0
C4690 C 0.29849 0.25027 0.65952 0.0
C4691 C 0.28397 0.25108 0.64728 0.0
C4692 C 0.29817 0.25592 0.68053 0.0
C4693 C 0.32854 0.24159 0.66416 0.0
C4694 C 0.29597 0.24158 0.69176 0.0
C4695 C 0.29728 0.24649 0.71158 0.0
C4696 C 0.30062 0.26586 0.72078 0.0
C4697 C 0.30221 0.28032 0.70959 0.0
C4698 C 0.30084 0.27535 0.68955 0.0
H4699 H 0.33978 0.23929 0.65571 0.0
H4700 H 0.33294 0.25503 0.6749 0.0
H4701 H 0.32507 0.2294 0.67191 0.0
H4702 H 0.29374 0.22653 0.68518 0.0
H4703 H 0.29617 0.23505 0.71984 0.0
H4704 H 0.6168 0.50432 0.22008 0.0
H4705 H 0.60462 0.50776 0.18904 0.0
H4706 H 0.65719 0.51886 0.17085 0.0
H4707 H 0.66955 0.51534 0.20238 0.0
H4708 H 0.60499 0.53537 0.17035 0.0
H4709 H 0.63492 0.48504 0.12261 0.0
H4710 H 0.63607 0.48579 0.14797 0.0
H4711 H 0.65111 0.50335 0.13808 0.0
C4712 C 0.62599 0.50704 0.20948 0.0
C4713 C 0.64446 0.50897 0.21445 0.0
C4714 C 0.61882 0.50926 0.19136 0.0
C4715 C 0.62949 0.51353 0.17654 0.0
C4716 C 0.64803 0.51513 0.1812 0.0
H4717 H 0.60685 0.53347 0.05714 0.0
H4718 H 0.61934 0.52985 0.08805 0.0
C4719 C 0.65531 0.51294 0.19958 0.0
C4720 C 0.62104 0.51682 0.15707 0.0
H4721 H 0.6195 0.50463 0.10787 0.0
C4722 C 0.60827 0.52846 0.15678 0.0
C4723 C 0.62474 0.50823 0.13863 0.0
C4724 C 0.63731 0.49476 0.13671 0.0
C4725 C 0.59986 0.53196 0.13957 0.0
C4726 C 0.60346 0.52324 0.12111 0.0
C4727 C 0.61623 0.5116 0.12142 0.0
C4728 C 0.59489 0.52637 0.1016 0.0
C4729 C 0.58762 0.54579 0.14158 0.0
C4730 C 0.57647 0.52595 0.09749 0.0
C4731 C 0.56909 0.52833 0.07926 0.0
C4732 C 0.5797 0.53119 0.06398 0.0
C4733 C 0.59795 0.53157 0.06817 0.0
C4734 C 0.60526 0.5293 0.08621 0.0
H4735 H 0.59049 0.55578 0.15552 0.0
H4736 H 0.58872 0.5545 0.13011 0.0
H4737 H 0.57374 0.53751 0.14078 0.0
H4738 H 0.56747 0.5232 0.10821 0.0
H4739 H 0.55497 0.52739 0.07703 0.0
H4740 H 0.30754 0.93714 0.94569 0.0
H4741 H 0.31027 0.91557 0.91604 0.0
H4742 H 0.28953 0.86622 0.94126 0.0
H4743 H 0.28681 0.88749 0.97071 0.0
H4744 H 0.33146 0.88553 0.91538 0.0
H4745 H 0.26079 0.85604 0.88797 0.0
H4746 H 0.26808 0.8786 0.90445 0.0
H4747 H 0.26612 0.85617 0.91278 0.0
C4748 C 0.30323 0.92171 0.94471 0.0
C4749 C 0.29696 0.91395 0.96043 0.0
C4750 C 0.30488 0.90944 0.92787 0.0
C4751 C 0.29998 0.88936 0.92652 0.0
C4752 C 0.29316 0.88167 0.94198 0.0
H4753 H 0.30143 0.79095 0.83817 0.0
H4754 H 0.29974 0.81094 0.86896 0.0
C4755 C 0.29167 0.89386 0.95879 0.0
C4756 C 0.30313 0.87625 0.90953 0.0
H4757 H 0.28202 0.84086 0.87294 0.0
C4758 C 0.32069 0.87583 0.90599 0.0
C4759 C 0.289 0.86344 0.89762 0.0
C4760 C 0.26991 0.86359 0.90074 0.0
C4761 C 0.32452 0.86277 0.89082 0.0
C4762 C 0.31039 0.85013 0.8787 0.0
C4763 C 0.29282 0.85047 0.88236 0.0
C4764 C 0.31344 0.83754 0.86124 0.0
C4765 C 0.34365 0.86244 0.88809 0.0
C4766 C 0.32203 0.84579 0.84693 0.0
C4767 C 0.32288 0.83449 0.82938 0.0
C4768 C 0.31485 0.81471 0.82562 0.0
C4769 C 0.30724 0.80622 0.8404 0.0
C4770 C 0.30636 0.81759 0.85802 0.0
H4771 H 0.35227 0.86806 0.90164 0.0
H4772 H 0.34524 0.84763 0.88249 0.0
H4773 H 0.34837 0.87179 0.87774 0.0
H4774 H 0.32736 0.86118 0.84899 0.0
H4775 H 0.32915 0.84154 0.81851 0.0
H4776 H 0.99058 0.55168 0.74403 0.0
H4777 H 0.9987 0.54735 0.71156 0.0
H4778 H 0.94344 0.53221 0.69028 0.0
H4779 H 0.93509 0.53644 0.72317 0.0
H4780 H 0.96251 0.50531 0.67568 0.0
H4781 H 0.9986 0.57785 0.66883 0.0
H4782 H 1.00622 0.57158 0.69057 0.0
H4783 H 0.9836 0.57393 0.68697 0.0
C4784 C 0.98009 0.54775 0.73249 0.0
C4785 C 0.96218 0.5443 0.73619 0.0
C4786 C 0.98478 0.54547 0.71388 0.0
C4787 C 0.9717 0.53975 0.69846 0.0
C4788 C 0.95375 0.53685 0.70199 0.0
H4789 H 0.00707 0.49704 0.58635 0.0
H4790 H 0.98728 0.50982 0.60838 0.0
C4791 C 0.949 0.53931 0.72075 0.0
C4792 C 0.97715 0.53468 0.67905 0.0
H4793 H 0.00834 0.55084 0.65017 0.0
C4794 C 0.97207 0.51539 0.66971 0.0
C4795 C 0.9896 0.54785 0.67123 0.0
C4796 C 0.99466 0.569 0.67985 0.0
C4797 C 0.98035 0.50859 0.65379 0.0
C4798 C 0.99393 0.52143 0.6471 0.0
C4799 C 0.998 0.541 0.65547 0.0
C4800 C 1.00573 0.5143 0.63339 0.0
C4801 C 0.97553 0.48745 0.64508 0.0
C4802 C 0.02261 0.51278 0.64021 0.0
C4803 C 0.03384 0.50545 0.62778 0.0
C4804 C 0.02843 0.49958 0.60824 0.0
C4805 C 0.01159 0.50145 0.60135 0.0
C4806 C 1.00027 0.50869 0.61387 0.0
H4807 H 0.96476 0.47929 0.65207 0.0
H4808 H 0.97118 0.48569 0.62972 0.0
H4809 H 0.98737 0.48109 0.64622 0.0
H4810 H 0.02704 0.51711 0.65523 0.0
H4811 H 0.04684 0.50453 0.63346 0.0
H4812 H 0.29662 0.22526 0.4687 0.0
H4813 H 0.29701 0.23742 0.4387 0.0
H4814 H 0.29716 0.18072 0.40804 0.0
H4815 H 0.29667 0.16843 0.43804 0.0
H4816 H 0.32249 0.23781 0.41256 0.0
H4817 H 0.2572 0.19542 0.37777 0.0
H4818 H 0.26334 0.19783 0.40292 0.0
H4819 H 0.27165 0.1813 0.38597 0.0
C4820 C 0.29658 0.2153 0.45557 0.0
C4821 C 0.29654 0.1958 0.45586 0.0
C4822 C 0.29685 0.22231 0.43838 0.0
C4823 C 0.2969 0.21001 0.42095 0.0
C4824 C 0.29678 0.1905 0.42117 0.0
H4825 H 0.29923 0.22918 0.30268 0.0
H4826 H 0.29847 0.21525 0.33175 0.0
C4827 C 0.29658 0.18348 0.4384 0.0
C4828 C 0.29771 0.2178 0.40273 0.0
H4829 H 0.27548 0.2138 0.35895 0.0
C4830 C 0.31217 0.23258 0.40087 0.0
C4831 C 0.28434 0.21097 0.38732 0.0
C4832 C 0.26816 0.19563 0.38856 0.0
C4833 C 0.31374 0.2405 0.38412 0.0
C4834 C 0.30025 0.23387 0.3688 0.0
C4835 C 0.28585 0.21897 0.37059 0.0
C4836 C 0.30071 0.24237 0.35097 0.0
C4837 C 0.33012 0.2556 0.38288 0.0
C4838 C 0.30191 0.26224 0.35181 0.0
C4839 C 0.30235 0.27019 0.33517 0.0
C4840 C 0.30148 0.25854 0.31717 0.0
C4841 C 0.2999 0.2386 0.31626 0.0
C4842 C 0.29952 0.23062 0.33293 0.0
H4843 H 0.34134 0.25474 0.39285 0.0
H4844 H 0.33435 0.25411 0.36823 0.0
H4845 H 0.32722 0.27011 0.38682 0.0
H4846 H 0.30222 0.27162 0.36537 0.0
H4847 H 0.30281 0.28542 0.33642 0.0
H4848 H 0.3133 0.58654 0.52084 0.0
H4849 H 0.33464 0.56557 0.51947 0.0
H4850 H 0.37643 0.61346 0.51357 0.0
H4851 H 0.35522 0.63428 0.51449 0.0
H4852 H 0.37592 0.58206 0.48694 0.0
H4853 H 0.3734 0.5617 0.55841 0.0
H4854 H 0.35223 0.55677 0.5448 0.0
H4855 H 0.36423 0.58128 0.55242 0.0
C4856 C 0.32709 0.59263 0.51952 0.0
C4857 C 0.33257 0.61206 0.51774 0.0
C4858 C 0.33929 0.58066 0.51881 0.0
C4859 C 0.35719 0.58798 0.51658 0.0
C4860 C 0.3627 0.60748 0.51529 0.0
H4861 H 0.44983 0.54052 0.52966 0.0
H4862 H 0.42578 0.55772 0.53323 0.0
C4863 C 0.35055 0.61938 0.51585 0.0
C4864 C 0.37009 0.57526 0.51442 0.0
H4865 H 0.39017 0.54587 0.53681 0.0
C4866 C 0.37901 0.57412 0.49784 0.0
C4867 C 0.37422 0.56503 0.52871 0.0
C4868 C 0.36566 0.56634 0.54717 0.0
C4869 C 0.39204 0.56322 0.49522 0.0
C4870 C 0.39598 0.55273 0.50935 0.0
C4871 C 0.38701 0.55377 0.52591 0.0
C4872 C 0.41 0.5414 0.5076 0.0
C4873 C 0.40187 0.56357 0.47759 0.0
C4874 C 0.40899 0.52623 0.4922 0.0
C4875 C 0.42286 0.51654 0.48995 0.0
C4876 C 0.43798 0.52171 0.50317 0.0
C4877 C 0.4386 0.53644 0.51897 0.0
C4878 C 0.42477 0.54617 0.52115 0.0
H4879 H 0.40048 0.576 0.47073 0.0
H4880 H 0.4162 0.56434 0.481 0.0
H4881 H 0.39635 0.55017 0.46712 0.0
H4882 H 0.39756 0.52204 0.48176 0.0
H4883 H 0.42193 0.50534 0.47758 0.0
H4884 H 0.87894 0.89282 0.52665 0.0
H4885 H 0.9075 0.91535 0.52921 0.0
H4886 H 0.88168 0.96315 0.53909 0.0
H4887 H 0.85278 0.94058 0.53648 0.0
H4888 H 0.90643 0.96638 0.51159 0.0
H4889 H 0.93654 0.94938 0.57694 0.0
H4890 H 0.92758 0.92842 0.55911 0.0
H4891 H 0.91298 0.94258 0.56999 0.0
C4892 C 0.87922 0.90812 0.5295 0.0
C4893 C 0.86341 0.9148 0.53141 0.0
C4894 C 0.89568 0.92102 0.53109 0.0
C4895 C 0.89687 0.941 0.53464 0.0
C4896 C 0.88115 0.94781 0.53649 0.0
H4897 H 1.00075 0.02374 0.55687 0.0
H4898 H 0.97037 0.00675 0.55993 0.0
C4899 C 0.86462 0.93486 0.53503 0.0
C4900 C 0.91447 0.95458 0.53554 0.0
H4901 H 0.95651 0.9665 0.55806 0.0
C4902 C 0.91731 0.96656 0.5219 0.0
C4903 C 0.92869 0.95506 0.54911 0.0
C4904 C 0.9263 0.94332 0.56475 0.0
C4905 C 0.9341 0.97829 0.52093 0.0
C4906 C 0.94856 0.97796 0.53384 0.0
C4907 C 0.94553 0.96665 0.54803 0.0
C4908 C 0.96703 0.98846 0.53217 0.0
C4909 C 0.93625 0.99088 0.50599 0.0
C4910 C 0.97545 0.98366 0.51574 0.0
C4911 C 0.99276 0.9933 0.51397 0.0
C4912 C 1.00219 0.00807 0.52858 0.0
C4913 C 0.99386 0.01266 0.54521 0.0
C4914 C 0.97649 1.0029 0.54701 0.0
H4915 H 0.92336 0.99369 0.50095 0.0
H4916 H 0.94558 1.00489 0.51153 0.0
H4917 H 0.94171 0.98348 0.49355 0.0
H4918 H 0.96863 0.97232 0.50426 0.0
H4919 H 0.99868 0.98918 0.501 0.0
H4920 H 0.92886 0.1389 0.28352 0.0
H4921 H 0.91309 0.16534 0.28343 0.0
H4922 H 0.86476 0.12395 0.2622 0.0
H4923 H 0.88039 0.09768 0.26264 0.0
H4924 H 0.89749 0.18273 0.26133 0.0
H4925 H 0.84118 0.15352 0.29923 0.0
H4926 H 0.86009 0.14262 0.29702 0.0
H4927 H 0.8426 0.13716 0.2779 0.0
C4928 C 0.91483 0.13521 0.27888 0.0
C4929 C 0.90633 0.11538 0.27319 0.0
C4930 C 0.90557 0.1507 0.2788 0.0
C4931 C 0.88703 0.14762 0.27325 0.0
C4932 C 0.87866 0.12776 0.2673 0.0
H4933 H 0.83808 0.24311 0.23917 0.0
H4934 H 0.85252 0.21643 0.24141 0.0
C4935 C 0.8879 0.11231 0.26734 0.0
C4936 C 0.87688 0.16478 0.27326 0.0
H4937 H 0.83805 0.18003 0.28439 0.0
C4938 C 0.88449 0.18182 0.26646 0.0
C4939 C 0.85977 0.165 0.28015 0.0
C4940 C 0.85048 0.14872 0.28918 0.0
C4941 C 0.87593 0.19782 0.26589 0.0
C4942 C 0.85851 0.19768 0.27199 0.0
C4943 C 0.85107 0.1809 0.2793 0.0
C4944 C 0.8481 0.2144 0.27065 0.0
C4945 C 0.88622 0.2152 0.25914 0.0
C4946 C 0.83924 0.22289 0.28581 0.0
C4947 C 0.83046 0.23865 0.28444 0.0
C4948 C 0.8296 0.24671 0.2676 0.0
C4949 C 0.83807 0.23784 0.25249 0.0
C4950 C 0.84677 0.22232 0.25387 0.0
H4951 H 0.90074 0.2163 0.26139 0.0
H4952 H 0.88276 0.21384 0.24364 0.0
H4953 H 0.88316 0.22874 0.26663 0.0
H4954 H 0.83945 0.21763 0.29912 0.0
H4955 H 0.82459 0.24469 0.29675 0.0
H4956 H 0.72253 0.13072 0.97935 0.0
H4957 H 0.69379 0.11338 0.98658 0.0
H4958 H 0.71766 0.10625 0.04014 0.0
H4959 H 0.74672 0.12273 0.0324 0.0
H4960 H 0.69118 0.07566 0.02603 0.0
H4961 H 0.66761 0.14257 0.0235 0.0
H4962 H 0.67502 0.13378 1.00113 0.0
H4963 H 0.69056 0.1415 0.02209 0.0
C4964 C 0.7217 0.125 0.99243 0.0
C4965 C 0.73675 0.12815 0.00539 0.0
C4966 C 0.70527 0.11527 0.99665 0.0
C4967 C 0.70344 0.10915 0.01422 0.0
C4968 C 0.71871 0.11103 0.02659 0.0
H4969 H 0.59577 0.09501 0.04772 0.0
H4970 H 0.62817 0.10477 0.05005 0.0
C4971 C 0.7353 0.12037 0.02214 0.0
C4972 C 0.68549 0.10225 0.02014 0.0
H4973 H 0.64525 0.11422 0.02321 0.0
C4974 C 0.68116 0.08415 0.02562 0.0
C4975 C 0.67257 0.11361 0.02034 0.0
C4976 C 0.67674 0.13402 0.01667 0.0
C4977 C 0.66398 0.0767 0.0303 0.0
C4978 C 0.65067 0.08739 0.02882 0.0
C4979 C 0.6553 0.10585 0.02419 0.0
C4980 C 0.63163 0.07953 0.03075 0.0
C4981 C 0.66038 0.05758 0.03693 0.0
C4982 C 0.62274 0.06182 0.01968 0.0
C4983 C 0.6043 0.05604 0.01878 0.0
C4984 C 0.59435 0.06801 0.02867 0.0
C4985 C 0.6032 0.08545 0.04015 0.0
C4986 C 0.62169 0.09102 0.04143 0.0
H4987 H 0.67253 0.05523 0.04435 0.0
H4988 H 0.64971 0.05659 0.0467 0.0
H4989 H 0.6563 0.04579 0.0244 0.0
H4990 H 0.62988 0.05297 0.01075 0.0
H4991 H 0.59785 0.04284 0.00932 0.0
H4992 H 0.17243 0.47978 0.27467 0.0
H4993 H 0.18747 0.45332 0.27634 0.0
H4994 H 0.22797 0.47874 0.24349 0.0
H4995 H 0.2133 0.50554 0.24223 0.0
H4996 H 0.19904 0.42588 0.25093 0.0
H4997 H 0.25581 0.47885 0.29342 0.0
H4998 H 0.23494 0.48497 0.28774 0.0
H4999 H 0.25067 0.48385 0.27024 0.0
C5000 C 0.18435 0.47955 0.26749 0.0
C5001 C 0.19185 0.49489 0.25859 0.0
C5002 C 0.19294 0.46442 0.26846 0.0
C5003 C 0.20907 0.46435 0.26046 0.0
C5004 C 0.21577 0.4788 0.25018 0.0
H5005 H 0.28825 0.39655 0.27481 0.0
H5006 H 0.27016 0.41665 0.26227 0.0
C5007 C 0.20732 0.49404 0.24939 0.0
C5008 C 0.21959 0.45016 0.26431 0.0
H5009 H 0.25878 0.44665 0.28633 0.0
C5010 C 0.21212 0.43039 0.2586 0.0
C5011 C 0.23662 0.45611 0.27448 0.0
C5012 C 0.24495 0.47708 0.282 0.0
C5013 C 0.2213 0.41642 0.26272 0.0
C5014 C 0.23826 0.42242 0.27291 0.0
C5015 C 0.24581 0.44214 0.27839 0.0
C5016 C 0.24822 0.4086 0.27887 0.0
C5017 C 0.21285 0.39537 0.2561 0.0
C5018 C 0.24183 0.39741 0.29231 0.0
C5019 C 0.25214 0.38596 0.29954 0.0
C5020 C 0.26904 0.38554 0.29345 0.0
C5021 C 0.27521 0.39642 0.27963 0.0
C5022 C 0.26493 0.40794 0.27249 0.0
H5023 H 0.20192 0.3932 0.24467 0.0
H5024 H 0.22282 0.38721 0.25078 0.0
H5025 H 0.20724 0.38927 0.26828 0.0
H5026 H 0.22909 0.39798 0.29765 0.0
H5027 H 0.24699 0.3776 0.31006 0.0
H5028 H 0.24679 0.39843 0.02272 0.0
H5029 H 0.22336 0.41661 0.0213 0.0
H5030 H 0.26033 0.46858 0.04857 0.0
H5031 H 0.28383 0.45058 0.04981 0.0
H5032 H 0.2082 0.43915 0.04859 0.0
H5033 H 0.24236 0.48403 1.00013 0.0
H5034 H 0.24912 0.46271 0.00508 0.0
H5035 H 0.25566 0.48504 0.0218 0.0
C5036 C 0.24992 0.4137 0.02859 0.0
C5037 C 0.26729 0.42301 0.03629 0.0
C5038 C 0.23647 0.42411 0.02774 0.0
C5039 C 0.24007 0.44411 0.03445 0.0
C5040 C 0.25723 0.45328 0.04286 0.0
H5041 H 0.18376 0.53673 0.03602 0.0
H5042 H 0.20435 0.51598 0.04033 0.0
C5043 C 0.27067 0.4429 0.04371 0.0
C5044 C 0.22608 0.45547 0.03227 0.0
H5045 H 0.21713 0.49321 0.01289 0.0
C5046 C 0.21012 0.45091 0.0407 0.0
C5047 C 0.22843 0.4708 0.02189 0.0
C5048 C 0.24473 0.47586 0.01154 0.0
C5049 C 0.1968 0.46158 0.03956 0.0
C5050 C 0.19928 0.47709 0.0294 0.0
C5051 C 0.21515 0.48145 0.02077 0.0
C5052 C 0.18593 0.48936 0.02784 0.0
C5053 C 0.18042 0.45651 0.04975 0.0
C5054 C 0.16847 0.48146 0.01953 0.0
C5055 C 0.15655 0.4934 0.01701 0.0
C5056 C 0.16186 0.51358 0.02255 0.0
C5057 C 0.17921 0.52133 0.03128 0.0
C5058 C 0.19105 0.50943 0.03382 0.0
H5059 H 0.18253 0.44787 0.06083 0.0
H5060 H 0.17628 0.46969 0.05657 0.0
H5061 H 0.16941 0.44781 0.03931 0.0
H5062 H 0.1642 0.46609 0.01442 0.0
H5063 H 0.1434 0.4869 0.01006 0.0
H5064 H 0.93087 0.9917 0.28442 0.0
H5065 H 0.91192 0.95993 0.28252 0.0
H5066 H 0.86809 0.97947 0.25871 0.0
H5067 H 0.88733 0.01178 0.26048 0.0
H5068 H 0.88334 0.94598 0.29883 0.0
H5069 H 0.86328 0.92985 0.22135 0.0
H5070 H 0.88075 0.95013 0.23215 0.0
H5071 H 0.85791 0.95142 0.23371 0.0
C5072 C 0.91722 0.98951 0.27867 0.0
C5073 C 0.911 1.00491 0.27252 0.0
C5074 C 0.90621 0.97099 0.27762 0.0
C5075 C 0.8883 0.96651 0.27016 0.0
C5076 C 0.88184 0.98188 0.26416 0.0
H5077 H 0.80757 0.85364 0.25179 0.0
H5078 H 0.82299 0.88731 0.25297 0.0
C5079 C 0.89292 1.00066 0.26535 0.0
C5080 C 0.87681 0.94604 0.26924 0.0
H5081 H 0.85061 0.90654 0.23915 0.0
C5082 C 0.87623 0.93749 0.28568 0.0
C5083 C 0.86715 0.93436 0.25231 0.0
C5084 C 0.86736 0.94176 0.23381 0.0
C5085 C 0.86655 0.91836 0.28577 0.0
C5086 C 0.85728 0.90646 0.26873 0.0
C5087 C 0.85758 0.91511 0.25233 0.0
C5088 C 0.84753 0.88521 0.26769 0.0
C5089 C 0.86602 0.91142 0.30453 0.0
C5090 C 0.85579 0.87182 0.27504 0.0
C5091 C 0.8468 0.85244 0.27458 0.0
C5092 C 0.82906 0.84518 0.26652 0.0
C5093 C 0.82095 0.85836 0.25855 0.0
C5094 C 0.82996 0.87786 0.2591 0.0
H5095 H 0.86807 0.92366 0.3167 0.0
H5096 H 0.8532 0.90148 0.30541 0.0
H5097 H 0.87688 0.90372 0.30613 0.0
H5098 H 0.86943 0.87627 0.28113 0.0
H5099 H 0.85393 0.8431 0.28067 0.0
H5100 H 0.6693 0.1159 0.76448 0.0
H5101 H 0.68797 0.14792 0.76587 0.0
H5102 H 0.73356 0.12288 0.7572 0.0
H5103 H 0.71497 0.09076 0.75541 0.0
H5104 H 0.71547 0.16508 0.79215 0.0
H5105 H 0.73897 0.16013 0.7201 0.0
H5106 H 0.72055 0.14279 0.72578 0.0
H5107 H 0.74296 0.14118 0.73203 0.0
C5108 C 0.68325 0.11713 0.76259 0.0
C5109 C 0.69061 0.1007 0.75984 0.0
C5110 C 0.6939 0.13547 0.76339 0.0
C5111 C 0.71212 0.13779 0.76141 0.0
C5112 C 0.71947 0.12142 0.75832 0.0
H5113 H 0.79248 0.24127 0.80597 0.0
H5114 H 0.77278 0.20916 0.79985 0.0
C5115 C 0.70881 0.10305 0.75743 0.0
C5116 C 0.72362 0.1574 0.76414 0.0
H5117 H 0.75404 0.18705 0.74349 0.0
C5118 C 0.72381 0.16992 0.78144 0.0
C5119 C 0.7344 0.16376 0.75011 0.0
C5120 C 0.73412 0.15134 0.73088 0.0
C5121 C 0.73465 0.18851 0.78522 0.0
C5122 C 0.74593 0.19463 0.77152 0.0
C5123 C 0.74553 0.18226 0.75406 0.0
C5124 C 0.75813 0.21387 0.77502 0.0
C5125 C 0.73376 0.20148 0.8038 0.0
C5126 C 0.75665 0.22702 0.76291 0.0
C5127 C 0.76801 0.24524 0.76628 0.0
C5128 C 0.78123 0.25045 0.78162 0.0
C5129 C 0.78255 0.23741 0.79389 0.0
C5130 C 0.77125 0.21916 0.79047 0.0
H5131 H 0.72116 0.19683 0.81014 0.0
H5132 H 0.74485 0.20089 0.81405 0.0
H5133 H 0.735 0.21666 0.80191 0.0
H5134 H 0.74659 0.22325 0.75094 0.0
H5135 H 0.76646 0.25524 0.75689 0.0
loop_
_geom_bond_atom_site_label_1
_geom_bond_atom_site_label_2
_geom_bond_distance
_geom_bond_site_symmetry_2
_ccdc_geom_bond_type
Co0 O1 2.216 . S
Co0 O2 2.091 . S
Co0 O4 2.004 . S
Co0 O10 2.021 . S
Co0 O12 2.137 . S
Co0 O13 2.244 . S
O1 Co0 2.216 . S
O1 C8 1.247 . S
O2 Co0 2.091 . S
O2 C8 1.261 . S
C3 O12 1.247 . S
C3 O13 1.272 . S
O4 Co0 2.004 . S
O4 C9 1.259 . S
Co5 O6 2.061 . S
Co5 O11 2.052 . S
Co5 O13 2.135 . S
O6 Co5 2.061 . S
O6 C9 1.235 . S
C7 O10 1.238 . S
C7 O11 1.241 . S
C8 O1 1.247 . S
C8 O2 1.261 . S
C9 O4 1.259 . S
C9 O6 1.235 . S
O10 Co0 2.021 . S
O10 C7 1.238 . S
O11 Co5 2.052 . S
O11 C7 1.241 . S
O12 Co0 2.137 . S
O12 C3 1.247 . S
O13 Co0 2.244 . S
O13 C3 1.272 . S
O13 Co5 2.135 . S
Co14 O15 2.216 . S
Co14 O16 2.091 . S
Co14 O18 2.004 1_655 S
Co14 O24 2.021 . S
Co14 O26 2.137 . S
Co14 O27 2.244 1_655 S
O15 Co14 2.216 . S
O15 C22 1.247 . S
O16 Co14 2.091 . S
O16 C22 1.261 . S
C17 O26 1.247 1_455 S
C17 O27 1.272 . S
O18 Co14 2.004 1_455 S
O18 C23 1.259 . S
Co19 O20 2.061 . S
Co19 O25 2.052 . S
Co19 O27 2.135 . S
O20 Co19 2.061 . S
O20 C23 1.235 . S
C21 O24 1.261 . S
C21 O25 1.214 1_655 S
C22 O15 1.247 . S
C22 O16 1.261 . S
C23 O18 1.259 . S
C23 O20 1.235 . S
O24 Co14 2.021 . S
O24 C21 1.261 . S
O25 Co19 2.052 . S
O25 C21 1.214 1_455 S
O26 Co14 2.137 . S
O26 C17 1.247 1_655 S
O27 Co14 2.244 1_455 S
O27 C17 1.272 . S
O27 Co19 2.135 . S
Co28 O29 2.216 . S
Co28 O30 2.091 . S
Co28 O32 2.004 . S
Co28 O38 2.021 . S
Co28 O40 2.137 . S
Co28 O41 2.244 . S
O29 Co28 2.216 . S
O29 C36 1.247 . S
O30 Co28 2.091 . S
O30 C36 1.261 . S
C31 O40 1.247 . S
C31 O41 1.272 . S
O32 Co28 2.004 . S
O32 C37 1.259 . S
Co33 O34 2.061 . S
Co33 O39 2.052 . S
Co33 O41 2.135 . S
O34 Co33 2.061 . S
O34 C37 1.235 . S
C35 O38 1.238 . S
C35 O39 1.241 . S
C36 O29 1.247 . S
C36 O30 1.261 . S
C37 O32 1.259 . S
C37 O34 1.235 . S
O38 Co28 2.021 . S
O38 C35 1.238 . S
O39 Co33 2.052 . S
O39 C35 1.241 . S
O40 Co28 2.137 . S
O40 C31 1.247 . S
O41 Co28 2.244 . S
O41 C31 1.272 . S
O41 Co33 2.135 . S
Co42 O43 2.216 . S
Co42 O44 2.091 . S
Co42 O46 2.004 . S
Co42 O52 2.021 . S
Co42 O54 2.137 . S
Co42 O55 2.244 . S
O43 Co42 2.216 . S
O43 C50 1.247 . S
O44 Co42 2.091 . S
O44 C50 1.261 . S
C45 O54 1.247 . S
C45 O55 1.272 . S
O46 Co42 2.004 . S
O46 C51 1.259 . S
Co47 O48 2.061 . S
Co47 O53 2.052 . S
Co47 O55 2.135 . S
O48 Co47 2.061 . S
O48 C51 1.235 . S
C49 O52 1.238 . S
C49 O53 1.241 . S
C50 O43 1.247 . S
C50 O44 1.261 . S
C51 O46 1.259 . S
C51 O48 1.235 . S
O52 Co42 2.021 . S
O52 C49 1.238 . S
O53 Co47 2.052 . S
O53 C49 1.241 . S
O54 Co42 2.137 . S
O54 C45 1.247 . S
O55 Co42 2.244 . S
O55 C45 1.272 . S
O55 Co47 2.135 . S
Co56 O57 2.216 . S
Co56 O58 2.091 . S
Co56 O60 2.004 . S
Co56 O66 2.021 . S
Co56 O68 2.137 . S
Co56 O69 2.244 . S
O57 Co56 2.216 . S
O57 C64 1.247 . S
O58 Co56 2.091 . S
O58 C64 1.261 . S
C59 O68 1.247 . S
C59 O69 1.272 . S
O60 Co56 2.004 . S
O60 C65 1.259 . S
Co61 O62 2.061 . S
Co61 O67 2.052 . S
Co61 O69 2.135 . S
O62 Co61 2.061 . S
O62 C65 1.235 . S
C63 O66 1.238 . S
C63 O67 1.241 . S
C64 O57 1.247 . S
C64 O58 1.261 . S
C65 O60 1.259 . S
C65 O62 1.235 . S
O66 Co56 2.021 . S
O66 C63 1.238 . S
O67 Co61 2.052 . S
O67 C63 1.241 . S
O68 Co56 2.137 . S
O68 C59 1.247 . S
O69 Co56 2.244 . S
O69 C59 1.272 . S
O69 Co61 2.135 . S
Co70 O71 2.216 . S
Co70 O72 2.091 . S
Co70 O74 2.004 . S
Co70 O80 2.021 . S
Co70 O82 2.137 . S
Co70 O83 2.244 . S
O71 Co70 2.216 . S
O71 C78 1.247 . S
O72 Co70 2.091 . S
O72 C78 1.261 . S
C73 O82 1.247 . S
C73 O83 1.272 . S
O74 Co70 2.004 . S
O74 C79 1.259 . S
Co75 O76 2.061 . S
Co75 O81 2.052 . S
Co75 O83 2.135 . S
O76 Co75 2.061 . S
O76 C79 1.235 . S
C77 O80 1.238 . S
C77 O81 1.241 . S
C78 O71 1.247 . S
C78 O72 1.261 . S
C79 O74 1.259 . S
C79 O76 1.235 . S
O80 Co70 2.021 . S
O80 C77 1.238 . S
O81 Co75 2.052 . S
O81 C77 1.241 . S
O82 Co70 2.137 . S
O82 C73 1.247 . S
O83 Co70 2.244 . S
O83 C73 1.272 . S
O83 Co75 2.135 . S
Co84 O85 2.216 . S
Co84 O86 2.091 . S
Co84 O88 2.004 . S
Co84 O94 2.021 . S
Co84 O96 2.137 . S
Co84 O97 2.244 . S
O85 Co84 2.216 . S
O85 C92 1.247 . S
O86 Co84 2.091 . S
O86 C92 1.261 . S
C87 O96 1.247 . S
C87 O97 1.272 . S
O88 Co84 2.004 . S
O88 C93 1.259 . S
Co89 O90 2.061 . S
Co89 O95 2.052 . S
Co89 O97 2.135 . S
O90 Co89 2.061 . S
O90 C93 1.235 . S
C91 O94 1.238 . S
C91 O95 1.241 . S
C92 O85 1.247 . S
C92 O86 1.261 . S
C93 O88 1.259 . S
C93 O90 1.235 . S
O94 Co84 2.021 . S
O94 C91 1.238 . S
O95 Co89 2.052 . S
O95 C91 1.241 . S
O96 Co84 2.137 . S
O96 C87 1.247 . S
O97 Co84 2.244 . S
O97 C87 1.272 . S
O97 Co89 2.135 . S
Co98 O99 2.216 . S
Co98 O100 2.091 . S
Co98 O102 2.004 1_455 S
Co98 O108 2.021 . S
Co98 O110 2.137 . S
Co98 O111 2.244 . S
O99 Co98 2.216 . S
O99 C106 1.247 . S
O100 Co98 2.091 . S
O100 C106 1.261 . S
C101 O110 1.247 . S
C101 O111 1.272 . S
O102 Co98 2.004 1_655 S
O102 C107 1.259 . S
Co103 O104 2.061 . S
Co103 O109 2.052 1_655 S
Co103 O111 2.135 1_655 S
O104 Co103 2.061 . S
O104 C107 1.235 . S
C105 O108 1.238 . S
C105 O109 1.241 . S
C106 O99 1.247 . S
C106 O100 1.261 . S
C107 O102 1.259 . S
C107 O104 1.235 . S
O108 Co98 2.021 . S
O108 C105 1.238 . S
O109 Co103 2.052 1_455 S
O109 C105 1.241 . S
O110 Co98 2.137 . S
O110 C101 1.247 . S
O111 Co98 2.244 . S
O111 C101 1.272 . S
O111 Co103 2.135 1_455 S
Co112 O113 2.216 . S
Co112 O114 2.091 . S
Co112 O116 2.004 . S
Co112 O122 2.021 . S
Co112 O124 2.137 . S
Co112 O125 2.244 . S
O113 Co112 2.216 . S
O113 C120 1.247 . S
O114 Co112 2.091 . S
O114 C120 1.261 . S
C115 O124 1.247 . S
C115 O125 1.272 . S
O116 Co112 2.004 . S
O116 C121 1.259 1_545 S
Co117 O118 2.061 1_545 S
Co117 O123 2.052 . S
Co117 O125 2.135 . S
O118 Co117 2.061 1_565 S
O118 C121 1.235 . S
C119 O122 1.238 . S
C119 O123 1.241 . S
C120 O113 1.247 . S
C120 O114 1.261 . S
C121 O116 1.259 1_565 S
C121 O118 1.235 . S
O122 Co112 2.021 . S
O122 C119 1.238 . S
O123 Co117 2.052 . S
O123 C119 1.241 . S
O124 Co112 2.137 . S
O124 C115 1.247 . S
O125 Co112 2.244 . S
O125 C115 1.272 . S
O125 Co117 2.135 . S
Co126 O127 2.216 . S
Co126 O128 2.091 . S
Co126 O130 2.004 . S
Co126 O136 2.021 . S
Co126 O138 2.137 . S
Co126 O139 2.244 . S
O127 Co126 2.216 . S
O127 C134 1.247 . S
O128 Co126 2.091 . S
O128 C134 1.261 . S
C129 O138 1.247 . S
C129 O139 1.272 . S
O130 Co126 2.004 . S
O130 C135 1.259 . S
Co131 O132 2.061 . S
Co131 O137 2.052 . S
Co131 O139 2.135 . S
O132 Co131 2.061 . S
O132 C135 1.235 . S
C133 O136 1.238 . S
C133 O137 1.241 . S
C134 O127 1.247 . S
C134 O128 1.261 . S
C135 O130 1.259 . S
C135 O132 1.235 . S
O136 Co126 2.021 . S
O136 C133 1.238 . S
O137 Co131 2.052 . S
O137 C133 1.241 . S
O138 Co126 2.137 . S
O138 C129 1.247 . S
O139 Co126 2.244 . S
O139 C129 1.272 . S
O139 Co131 2.135 . S
Co140 O141 2.216 . S
Co140 O142 2.091 . S
Co140 O144 2.004 1_565 S
Co140 O150 2.021 . S
Co140 O152 2.137 . S
Co140 O153 2.244 1_565 S
O141 Co140 2.216 . S
O141 C148 1.247 . S
O142 Co140 2.091 . S
O142 C148 1.261 . S
C143 O152 1.247 1_545 S
C143 O153 1.272 . S
O144 Co140 2.004 1_545 S
O144 C149 1.259 . S
Co145 O146 2.061 . S
Co145 O151 2.052 . S
Co145 O153 2.135 . S
O146 Co145 2.061 . S
O146 C149 1.235 . S
C147 O150 1.238 . S
C147 O151 1.241 1_565 S
C148 O141 1.247 . S
C148 O142 1.261 . S
C149 O144 1.259 . S
C149 O146 1.235 . S
O150 Co140 2.021 . S
O150 C147 1.238 . S
O151 Co145 2.052 . S
O151 C147 1.241 1_545 S
O152 Co140 2.137 . S
O152 C143 1.247 1_565 S
O153 Co140 2.244 1_545 S
O153 C143 1.272 . S
O153 Co145 2.135 . S
Co154 O155 2.216 . S
Co154 O156 2.091 . S
Co154 O158 2.004 . S
Co154 O164 2.021 . S
Co154 O166 2.137 1_554 S
Co154 O167 2.244 1_554 S
O155 Co154 2.216 . S
O155 C162 1.247 . S
O156 Co154 2.091 . S
O156 C162 1.261 . S
C157 O166 1.247 . S
C157 O167 1.272 . S
O158 Co154 2.004 . S
O158 C163 1.259 . S
Co159 O160 2.061 . S
Co159 O165 2.052 . S
Co159 O167 2.135 1_554 S
O160 Co159 2.061 . S
O160 C163 1.235 . S
C161 O164 1.238 . S
C161 O165 1.241 . S
C162 O155 1.247 . S
C162 O156 1.261 . S
C163 O158 1.259 . S
C163 O160 1.235 . S
O164 Co154 2.021 . S
O164 C161 1.238 . S
O165 Co159 2.052 . S
O165 C161 1.241 . S
O166 Co154 2.137 1_556 S
O166 C157 1.247 . S
O167 Co154 2.244 1_556 S
O167 C157 1.272 . S
O167 Co159 2.135 1_556 S
Co168 O169 2.216 . S
Co168 O170 2.091 . S
Co168 O172 2.004 . S
Co168 O178 2.021 . S
Co168 O180 2.137 . S
Co168 O181 2.244 . S
O169 Co168 2.216 . S
O169 C176 1.247 . S
O170 Co168 2.091 . S
O170 C176 1.261 . S
C171 O180 1.247 . S
C171 O181 1.272 . S
O172 Co168 2.004 . S
O172 C177 1.259 . S
Co173 O174 2.061 . S
Co173 O179 2.052 . S
Co173 O181 2.135 . S
O174 Co173 2.061 . S
O174 C177 1.235 . S
C175 O178 1.238 . S
C175 O179 1.241 . S
C176 O169 1.247 . S
C176 O170 1.261 . S
C177 O172 1.259 . S
C177 O174 1.235 . S
O178 Co168 2.021 . S
O178 C175 1.238 . S
O179 Co173 2.052 . S
O179 C175 1.241 . S
O180 Co168 2.137 . S
O180 C171 1.247 . S
O181 Co168 2.244 . S
O181 C171 1.272 . S
O181 Co173 2.135 . S
Co182 O183 2.216 . S
Co182 O184 2.091 . S
Co182 O186 2.004 . S
Co182 O192 2.021 . S
Co182 O194 2.137 1_554 S
Co182 O195 2.244 . S
O183 Co182 2.216 . S
O183 C190 1.247 . S
O184 Co182 2.091 . S
O184 C190 1.261 . S
C185 O194 1.247 . S
C185 O195 1.272 1_556 S
O186 Co182 2.004 . S
O186 C191 1.259 . S
Co187 O188 2.061 . S
Co187 O193 2.052 . S
Co187 O195 2.135 . S
O188 Co187 2.061 . S
O188 C191 1.235 . S
C189 O192 1.238 . S
C189 O193 1.241 . S
C190 O183 1.247 . S
C190 O184 1.261 . S
C191 O186 1.259 . S
C191 O188 1.235 . S
O192 Co182 2.021 . S
O192 C189 1.238 . S
O193 Co187 2.052 . S
O193 C189 1.241 . S
O194 Co182 2.137 1_556 S
O194 C185 1.247 . S
O195 Co182 2.244 . S
O195 C185 1.272 1_554 S
O195 Co187 2.135 . S
Co196 O197 2.216 . S
Co196 O198 2.091 . S
Co196 O200 2.004 . S
Co196 O206 2.021 . S
Co196 O208 2.137 . S
Co196 O209 2.244 . S
O197 Co196 2.216 . S
O197 C204 1.247 . S
O198 Co196 2.091 . S
O198 C204 1.261 . S
C199 O208 1.247 . S
C199 O209 1.272 . S
O200 Co196 2.004 . S
O200 C205 1.259 . S
Co201 O202 2.061 . S
Co201 O207 2.052 . S
Co201 O209 2.135 . S
O202 Co201 2.061 . S
O202 C205 1.235 . S
C203 O206 1.238 . S
C203 O207 1.241 . S
C204 O197 1.247 . S
C204 O198 1.261 . S
C205 O200 1.259 . S
C205 O202 1.235 . S
O206 Co196 2.021 . S
O206 C203 1.238 . S
O207 Co201 2.052 . S
O207 C203 1.241 . S
O208 Co196 2.137 . S
O208 C199 1.247 . S
O209 Co196 2.244 . S
O209 C199 1.272 . S
O209 Co201 2.135 . S
Co210 O211 2.216 . S
Co210 O212 2.091 . S
Co210 O214 2.004 . S
Co210 O220 2.021 . S
Co210 O222 2.137 . S
Co210 O223 2.244 . S
O211 Co210 2.216 . S
O211 C218 1.247 . S
O212 Co210 2.091 . S
O212 C218 1.261 . S
C213 O222 1.247 . S
C213 O223 1.272 . S
O214 Co210 2.004 . S
O214 C219 1.259 . S
Co215 O216 2.061 . S
Co215 O221 2.052 . S
Co215 O223 2.135 . S
O216 Co215 2.061 . S
O216 C219 1.235 . S
C217 O220 1.238 . S
C217 O221 1.241 . S
C218 O211 1.247 . S
C218 O212 1.261 . S
C219 O214 1.259 . S
C219 O216 1.235 . S
O220 Co210 2.021 . S
O220 C217 1.238 . S
O221 Co215 2.052 . S
O221 C217 1.241 . S
O222 Co210 2.137 . S
O222 C213 1.247 . S
O223 Co210 2.244 . S
O223 C213 1.272 . S
O223 Co215 2.135 . S
Co224 O225 2.216 . S
Co224 O226 2.091 . S
Co224 O228 2.004 . S
Co224 O234 2.021 . S
Co224 O236 2.137 . S
Co224 O237 2.244 . S
O225 Co224 2.216 . S
O225 C232 1.247 . S
O226 Co224 2.091 . S
O226 C232 1.261 . S
C227 O236 1.247 . S
C227 O237 1.272 . S
O228 Co224 2.004 . S
O228 C233 1.259 . S
Co229 O230 2.061 . S
Co229 O235 2.052 . S
Co229 O237 2.135 . S
O230 Co229 2.061 . S
O230 C233 1.235 . S
C231 O234 1.238 . S
C231 O235 1.241 . S
C232 O225 1.247 . S
C232 O226 1.261 . S
C233 O228 1.259 . S
C233 O230 1.235 . S
O234 Co224 2.021 . S
O234 C231 1.238 . S
O235 Co229 2.052 . S
O235 C231 1.241 . S
O236 Co224 2.137 . S
O236 C227 1.247 . S
O237 Co224 2.244 . S
O237 C227 1.272 . S
O237 Co229 2.135 . S
Co238 O239 2.216 . S
Co238 O240 2.091 . S
Co238 O242 2.004 . S
Co238 O248 2.021 . S
Co238 O250 2.137 . S
Co238 O251 2.244 . S
O239 Co238 2.216 . S
O239 C246 1.247 . S
O240 Co238 2.091 . S
O240 C246 1.261 . S
C241 O250 1.247 . S
C241 O251 1.272 . S
O242 Co238 2.004 . S
O242 C247 1.259 . S
Co243 O244 2.061 . S
Co243 O249 2.052 . S
Co243 O251 2.135 . S
O244 Co243 2.061 . S
O244 C247 1.235 . S
C245 O248 1.238 . S
C245 O249 1.241 . S
C246 O239 1.247 . S
C246 O240 1.261 . S
C247 O242 1.259 . S
C247 O244 1.235 . S
O248 Co238 2.021 . S
O248 C245 1.238 . S
O249 Co243 2.052 . S
O249 C245 1.241 . S
O250 Co238 2.137 . S
O250 C241 1.247 . S
O251 Co238 2.244 . S
O251 C241 1.272 . S
O251 Co243 2.135 . S
Co252 O253 2.216 . S
Co252 O254 2.091 . S
Co252 O256 2.004 . S
Co252 O262 2.021 . S
Co252 O264 2.137 . S
Co252 O265 2.244 . S
O253 Co252 2.216 . S
O253 C260 1.247 . S
O254 Co252 2.091 . S
O254 C260 1.261 . S
C255 O264 1.247 . S
C255 O265 1.272 . S
O256 Co252 2.004 . S
O256 C261 1.259 . S
Co257 O258 2.061 . S
Co257 O263 2.052 . S
Co257 O265 2.135 . S
O258 Co257 2.061 . S
O258 C261 1.235 . S
C259 O262 1.238 . S
C259 O263 1.241 . S
C260 O253 1.247 . S
C260 O254 1.261 . S
C261 O256 1.259 . S
C261 O258 1.235 . S
O262 Co252 2.021 . S
O262 C259 1.238 . S
O263 Co257 2.052 . S
O263 C259 1.241 . S
O264 Co252 2.137 . S
O264 C255 1.247 . S
O265 Co252 2.244 . S
O265 C255 1.272 . S
O265 Co257 2.135 . S
Co266 O267 2.216 . S
Co266 O268 2.091 . S
Co266 O270 2.004 . S
Co266 O276 2.021 . S
Co266 O278 2.137 . S
Co266 O279 2.244 . S
O267 Co266 2.216 . S
O267 C274 1.247 . S
O268 Co266 2.091 . S
O268 C274 1.261 . S
C269 O278 1.247 . S
C269 O279 1.272 . S
O270 Co266 2.004 . S
O270 C275 1.259 . S
Co271 O272 2.061 . S
Co271 O277 2.052 . S
Co271 O279 2.135 . S
O272 Co271 2.061 . S
O272 C275 1.235 . S
C273 O276 1.238 . S
C273 O277 1.241 . S
C274 O267 1.247 . S
C274 O268 1.261 . S
C275 O270 1.259 . S
C275 O272 1.235 . S
O276 Co266 2.021 . S
O276 C273 1.238 . S
O277 Co271 2.052 . S
O277 C273 1.241 . S
O278 Co266 2.137 . S
O278 C269 1.247 . S
O279 Co266 2.244 . S
O279 C269 1.272 . S
O279 Co271 2.135 . S
Co280 O281 2.216 . S
Co280 O282 2.091 . S
Co280 O284 2.004 . S
Co280 O290 2.021 1_556 S
Co280 O292 2.137 . S
Co280 O293 2.244 . S
O281 Co280 2.216 . S
O281 C288 1.253 . S
O282 Co280 2.091 . S
O282 C288 1.258 . S
C283 O292 1.247 . S
C283 O293 1.272 . S
O284 Co280 2.004 . S
O284 C289 1.259 . S
Co285 O286 2.060 . S
Co285 O291 2.052 . S
Co285 O293 2.135 1_554 S
O286 Co285 2.060 . S
O286 C289 1.234 1_554 S
C287 O290 1.238 . S
C287 O291 1.241 . S
C288 O281 1.253 . S
C288 O282 1.258 . S
C289 O284 1.259 . S
C289 O286 1.234 1_556 S
O290 Co280 2.021 1_554 S
O290 C287 1.238 . S
O291 Co285 2.052 . S
O291 C287 1.241 . S
O292 Co280 2.137 . S
O292 C283 1.247 . S
O293 Co280 2.244 . S
O293 C283 1.272 . S
O293 Co285 2.135 1_556 S
Co294 O295 2.216 . S
Co294 O296 2.091 . S
Co294 O298 2.004 . S
Co294 O304 2.021 . S
Co294 O306 2.137 . S
Co294 O307 2.244 . S
O295 Co294 2.216 . S
O295 C302 1.247 . S
O296 Co294 2.091 . S
O296 C302 1.261 . S
C297 O306 1.247 . S
C297 O307 1.272 . S
O298 Co294 2.004 . S
O298 C303 1.259 . S
Co299 O300 2.061 . S
Co299 O305 2.052 . S
Co299 O307 2.135 . S
O300 Co299 2.061 . S
O300 C303 1.235 . S
C301 O304 1.238 . S
C301 O305 1.241 . S
C302 O295 1.247 . S
C302 O296 1.261 . S
C303 O298 1.259 . S
C303 O300 1.235 . S
O304 Co294 2.021 . S
O304 C301 1.238 . S
O305 Co299 2.052 . S
O305 C301 1.241 . S
O306 Co294 2.137 . S
O306 C297 1.247 . S
O307 Co294 2.244 . S
O307 C297 1.272 . S
O307 Co299 2.135 . S
Co308 O309 2.216 . S
Co308 O310 2.091 . S
Co308 O312 2.004 . S
Co308 O318 2.021 . S
Co308 O320 2.137 . S
Co308 O321 2.244 . S
O309 Co308 2.216 . S
O309 C316 1.247 . S
O310 Co308 2.091 . S
O310 C316 1.261 . S
C311 O320 1.247 . S
C311 O321 1.272 . S
O312 Co308 2.004 . S
O312 C317 1.259 . S
Co313 O314 2.061 . S
Co313 O319 2.052 . S
Co313 O321 2.135 . S
O314 Co313 2.061 . S
O314 C317 1.235 . S
C315 O318 1.238 . S
C315 O319 1.241 . S
C316 O309 1.247 . S
C316 O310 1.261 . S
C317 O312 1.259 . S
C317 O314 1.235 . S
O318 Co308 2.021 . S
O318 C315 1.238 . S
O319 Co313 2.052 . S
O319 C315 1.241 . S
O320 Co308 2.137 . S
O320 C311 1.247 . S
O321 Co308 2.244 . S
O321 C311 1.272 . S
O321 Co313 2.135 . S
Co322 O323 2.216 . S
Co322 O324 2.091 . S
Co322 O326 2.004 . S
Co322 O332 2.021 . S
Co322 O334 2.137 . S
Co322 O335 2.244 . S
O323 Co322 2.216 . S
O323 C330 1.247 . S
O324 Co322 2.091 . S
O324 C330 1.261 . S
C325 O334 1.247 . S
C325 O335 1.272 . S
O326 Co322 2.004 . S
O326 C331 1.259 . S
Co327 O328 2.061 . S
Co327 O333 2.052 . S
Co327 O335 2.135 . S
O328 Co327 2.061 . S
O328 C331 1.235 . S
C329 O332 1.238 . S
C329 O333 1.241 . S
C330 O323 1.247 . S
C330 O324 1.261 . S
C331 O326 1.259 . S
C331 O328 1.235 . S
O332 Co322 2.021 . S
O332 C329 1.238 . S
O333 Co327 2.052 . S
O333 C329 1.241 . S
O334 Co322 2.137 . S
O334 C325 1.247 . S
O335 Co322 2.244 . S
O335 C325 1.272 . S
O335 Co327 2.135 . S
Tb336 N367 2.660 1_545 S
Tb336 N374 2.600 1_544 S
Tb336 O380 2.546 1_454 S
Tb336 O381 2.610 . S
Tb336 O383 2.320 . S
Tb336 O384 2.552 . S
Tb336 O385 2.413 1_455 S
Tb336 O387 2.362 . S
Tb336 O388 2.421 1_554 S
Tb336 C400 2.833 1_454 S
C337 C340 1.432 . S
C337 C341 1.414 . S
C337 N344 1.359 . S
C338 C340 1.417 . S
C338 C342 1.432 . S
C338 C350 1.410 . S
C339 C341 1.444 . S
C339 C342 1.317 . S
C339 H362 0.929 . S
C340 C337 1.432 . S
C340 C338 1.417 . S
C340 N348 1.360 . S
C341 C337 1.414 . S
C341 C339 1.444 . S
C341 C346 1.385 . S
C342 C338 1.432 . S
C342 C339 1.317 . S
C342 H354 0.930 . S
C343 C345 1.392 . S
C343 C346 1.370 . S
C343 H355 0.931 . S
N344 C337 1.359 . S
N344 C345 1.327 . S
N344 Tb347 2.600 . S
C345 C343 1.392 . S
C345 N344 1.327 . S
C345 H352 0.930 . S
C346 C341 1.385 . S
C346 C343 1.370 . S
C346 H365 0.930 . S
Tb347 N344 2.600 . S
Tb347 N348 2.660 . S
Tb347 O381 2.362 . S
Tb347 O382 2.421 . S
Tb347 O386 2.546 . S
Tb347 O387 2.610 . S
Tb347 O389 2.328 . S
Tb347 O390 2.552 . S
Tb347 O391 2.413 . S
Tb347 C411 2.833 . S
N348 C340 1.360 . S
N348 Tb347 2.660 . S
N348 C349 1.324 . S
C349 N348 1.324 . S
C349 C351 1.396 1_554 S
C349 H356 0.922 1_554 S
C350 C338 1.410 . S
C350 C351 1.345 1_554 S
C350 H358 0.897 1_554 S
C351 C349 1.396 1_556 S
C351 C350 1.345 1_556 S
C351 H353 0.930 . S
H352 C345 0.930 . S
H353 C351 0.930 . S
H354 C342 0.930 . S
H355 C343 0.931 . S
H356 C349 0.922 1_556 S
H357 C371 0.930 . S
H358 C350 0.897 1_556 S
H359 C377 0.930 1_545 S
H360 C368 0.930 1_545 S
H361 C375 0.931 . S
H362 C339 0.929 . S
H363 C369 0.930 . S
H364 C402 0.930 . S
H365 C346 0.930 . S
H366 C401 0.929 . S
N367 Tb336 2.660 1_565 S
N367 C368 1.305 . S
N367 C372 1.360 . S
C368 H360 0.930 1_565 S
C368 N367 1.305 . S
C368 C371 1.407 . S
C369 H363 0.930 . S
C369 C370 1.410 . S
C369 C371 1.345 1_655 S
C370 C369 1.410 . S
C370 C372 1.417 1_655 S
C370 C402 1.432 . S
C371 H357 0.930 . S
C371 C368 1.407 . S
C371 C369 1.345 1_455 S
C372 N367 1.360 . S
C372 C370 1.417 1_455 S
C372 C376 1.432 1_554 S
H373 C378 0.930 . S
N374 Tb336 2.600 1_566 S
N374 C376 1.359 . S
N374 C377 1.327 . S
C375 H361 0.931 . S
C375 C377 1.392 . S
C375 C378 1.370 1_455 S
C376 C372 1.432 1_556 S
C376 N374 1.359 . S
C376 C379 1.414 1_455 S
C377 H359 0.930 1_565 S
C377 N374 1.327 . S
C377 C375 1.392 . S
C378 H373 0.930 . S
C378 C375 1.370 1_655 S
C378 C379 1.385 . S
C379 C376 1.414 1_655 S
C379 C378 1.385 . S
C379 C401 1.444 . S
O380 Tb336 2.546 1_656 S
O380 C400 1.251 . S
O381 Tb336 2.610 . S
O381 Tb347 2.362 . S
O381 C392 1.283 . S
O382 Tb347 2.421 . S
O382 C399 1.262 . S
O383 Tb336 2.320 . S
O383 C399 1.260 . S
O384 Tb336 2.552 . S
O384 C392 1.243 . S
O385 Tb336 2.413 1_655 S
O385 C400 1.256 1_554 S
O386 Tb347 2.546 . S
O386 C411 1.251 . S
O387 Tb336 2.362 . S
O387 Tb347 2.610 . S
O387 C403 1.283 . S
O388 Tb336 2.421 1_556 S
O388 C410 1.262 . S
O389 Tb347 2.328 . S
O389 C410 1.254 1_554 S
O390 Tb347 2.552 . S
O390 C403 1.243 . S
O391 Tb347 2.413 . S
O391 C411 1.256 . S
C392 O381 1.283 . S
C392 O384 1.243 . S
C393 C395 1.382 1_556 S
C393 C397 1.393 . S
C393 C400 1.500 . S
C394 C395 1.400 . S
C394 C396 1.384 1_554 S
C395 C393 1.382 1_554 S
C395 C394 1.400 . S
C395 H412 0.930 . S
C396 C394 1.384 1_556 S
C396 C398 1.392 . S
C396 H413 0.931 . S
C397 C393 1.393 . S
C397 C398 1.401 . S
C397 H414 0.930 . S
C398 C396 1.392 . S
C398 C397 1.401 . S
C398 H415 0.930 . S
C399 O382 1.262 . S
C399 O383 1.260 . S
C400 Tb336 2.833 1_656 S
C400 O380 1.251 . S
C400 O385 1.256 1_556 S
C400 C393 1.500 . S
C401 H366 0.929 . S
C401 C379 1.444 . S
C401 C402 1.317 1_556 S
C402 H364 0.930 . S
C402 C370 1.432 . S
C402 C401 1.317 1_554 S
C403 O387 1.283 . S
C403 O390 1.243 . S
C404 C405 1.382 . S
C404 C408 1.393 . S
C404 C411 1.500 . S
C405 C404 1.382 . S
C405 C406 1.400 . S
C405 H416 0.930 . S
C406 C405 1.400 . S
C406 C407 1.384 . S
C407 C406 1.384 . S
C407 C409 1.392 . S
C407 H417 0.931 . S
C408 C404 1.393 . S
C408 C409 1.401 . S
C408 H418 0.930 . S
C409 C407 1.392 . S
C409 C408 1.401 . S
C409 H419 0.930 . S
C410 O388 1.262 . S
C410 O389 1.254 1_556 S
C411 Tb347 2.833 . S
C411 O386 1.251 . S
C411 O391 1.256 . S
C411 C404 1.500 . S
H412 C395 0.930 . S
H413 C396 0.931 . S
H414 C397 0.930 . S
H415 C398 0.930 . S
H416 C405 0.930 . S
H417 C407 0.931 . S
H418 C408 0.930 . S
H419 C409 0.930 . S
Tb420 N451 2.660 . S
Tb420 N458 2.600 . S
Tb420 O464 2.546 . S
Tb420 O465 2.610 . S
Tb420 O467 2.320 . S
Tb420 O468 2.552 . S
Tb420 O469 2.413 . S
Tb420 O471 2.362 . S
Tb420 O472 2.421 . S
Tb420 C484 2.833 . S
C421 C424 1.432 . S
C421 C425 1.414 . S
C421 N428 1.359 . S
C422 C424 1.417 . S
C422 C426 1.432 . S
C422 C434 1.410 . S
C423 C425 1.444 . S
C423 C426 1.317 . S
C423 H446 0.929 . S
C424 C421 1.432 . S
C424 C422 1.417 . S
C424 N432 1.360 . S
C425 C421 1.414 . S
C425 C423 1.444 . S
C425 C430 1.385 . S
C426 C422 1.432 . S
C426 C423 1.317 . S
C426 H438 0.930 . S
C427 C429 1.392 . S
C427 C430 1.370 . S
C427 H439 0.931 . S
N428 C421 1.359 . S
N428 C429 1.327 . S
N428 Tb431 2.600 . S
C429 C427 1.392 . S
C429 N428 1.327 . S
C429 H436 0.930 . S
C430 C425 1.385 . S
C430 C427 1.370 . S
C430 H449 0.930 . S
Tb431 N428 2.600 . S
Tb431 N432 2.660 . S
Tb431 O465 2.362 . S
Tb431 O466 2.421 . S
Tb431 O470 2.546 . S
Tb431 O471 2.610 . S
Tb431 O473 2.320 . S
Tb431 O474 2.552 . S
Tb431 O475 2.413 . S
Tb431 C495 2.833 . S
N432 C424 1.360 . S
N432 Tb431 2.660 . S
N432 C433 1.305 . S
C433 N432 1.305 . S
C433 C435 1.407 . S
C433 H440 0.930 . S
C434 C422 1.410 . S
C434 C435 1.345 . S
C434 H442 0.930 . S
C435 C433 1.407 . S
C435 C434 1.345 . S
C435 H437 0.930 . S
H436 C429 0.930 . S
H437 C435 0.930 . S
H438 C426 0.930 . S
H439 C427 0.931 . S
H440 C433 0.930 . S
H441 C455 0.930 . S
H442 C434 0.930 . S
H443 C461 0.930 . S
H444 C452 0.930 . S
H445 C459 0.931 . S
H446 C423 0.929 . S
H447 C453 0.930 . S
H448 C486 0.930 . S
H449 C430 0.930 . S
H450 C485 0.929 . S
N451 Tb420 2.660 . S
N451 C452 1.305 . S
N451 C456 1.360 . S
C452 H444 0.930 . S
C452 N451 1.305 . S
C452 C455 1.407 . S
C453 H447 0.930 . S
C453 C454 1.410 . S
C453 C455 1.345 . S
C454 C453 1.410 . S
C454 C456 1.417 . S
C454 C486 1.432 . S
C455 H441 0.930 . S
C455 C452 1.407 . S
C455 C453 1.345 . S
C456 N451 1.360 . S
C456 C454 1.417 . S
C456 C460 1.432 . S
H457 C462 0.930 . S
N458 Tb420 2.600 . S
N458 C460 1.359 . S
N458 C461 1.327 . S
C459 H445 0.931 . S
C459 C461 1.392 . S
C459 C462 1.370 . S
C460 C456 1.432 . S
C460 N458 1.359 . S
C460 C463 1.414 . S
C461 H443 0.930 . S
C461 N458 1.327 . S
C461 C459 1.392 . S
C462 H457 0.930 . S
C462 C459 1.370 . S
C462 C463 1.385 . S
C463 C460 1.414 . S
C463 C462 1.385 . S
C463 C485 1.444 . S
O464 Tb420 2.546 . S
O464 C484 1.251 . S
O465 Tb420 2.610 . S
O465 Tb431 2.362 . S
O465 C476 1.283 . S
O466 Tb431 2.421 . S
O466 C483 1.262 . S
O467 Tb420 2.320 . S
O467 C483 1.260 . S
O468 Tb420 2.552 . S
O468 C476 1.243 . S
O469 Tb420 2.413 . S
O469 C484 1.256 . S
O470 Tb431 2.546 . S
O470 C495 1.251 . S
O471 Tb420 2.362 . S
O471 Tb431 2.610 . S
O471 C487 1.283 . S
O472 Tb420 2.421 . S
O472 C494 1.262 . S
O473 Tb431 2.320 . S
O473 C494 1.260 . S
O474 Tb431 2.552 . S
O474 C487 1.243 . S
O475 Tb431 2.413 . S
O475 C495 1.256 . S
C476 O465 1.283 . S
C476 O468 1.243 . S
C477 C479 1.382 . S
C477 C481 1.393 . S
C477 C484 1.500 . S
C478 C479 1.400 . S
C478 C480 1.384 . S
C479 C477 1.382 . S
C479 C478 1.400 . S
C479 H496 0.930 . S
C480 C478 1.384 . S
C480 C482 1.392 . S
C480 H497 0.931 . S
C481 C477 1.393 . S
C481 C482 1.401 . S
C481 H498 0.930 . S
C482 C480 1.392 . S
C482 C481 1.401 . S
C482 H499 0.930 . S
C483 O466 1.262 . S
C483 O467 1.260 . S
C484 Tb420 2.833 . S
C484 O464 1.251 . S
C484 O469 1.256 . S
C484 C477 1.500 . S
C485 H450 0.929 . S
C485 C463 1.444 . S
C485 C486 1.317 . S
C486 H448 0.930 . S
C486 C454 1.432 . S
C486 C485 1.317 . S
C487 O471 1.283 . S
C487 O474 1.243 . S
C488 C489 1.382 . S
C488 C492 1.393 . S
C488 C495 1.500 . S
C489 C488 1.382 . S
C489 C490 1.400 . S
C489 H500 0.930 . S
C490 C489 1.400 . S
C490 C491 1.384 . S
C491 C490 1.384 . S
C491 C493 1.392 . S
C491 H501 0.931 . S
C492 C488 1.393 . S
C492 C493 1.401 . S
C492 H502 0.930 . S
C493 C491 1.392 . S
C493 C492 1.401 . S
C493 H503 0.930 . S
C494 O472 1.262 . S
C494 O473 1.260 . S
C495 Tb431 2.833 . S
C495 O470 1.251 . S
C495 O475 1.256 . S
C495 C488 1.500 . S
H496 C479 0.930 . S
H497 C480 0.931 . S
H498 C481 0.930 . S
H499 C482 0.930 . S
H500 C489 0.930 . S
H501 C491 0.931 . S
H502 C492 0.930 . S
H503 C493 0.930 . S
Tb504 N535 2.660 . S
Tb504 N542 2.600 . S
Tb504 O548 2.546 . S
Tb504 O549 2.610 . S
Tb504 O551 2.320 . S
Tb504 O552 2.552 1_545 S
Tb504 O553 2.413 . S
Tb504 O555 2.362 . S
Tb504 O556 2.421 . S
Tb504 C568 2.833 . S
C505 C508 1.432 . S
C505 C509 1.414 . S
C505 N512 1.359 1_565 S
C506 C508 1.417 . S
C506 C510 1.432 . S
C506 C518 1.410 . S
C507 C509 1.444 . S
C507 C510 1.317 . S
C507 H530 0.929 . S
C508 C505 1.432 . S
C508 C506 1.417 . S
C508 N516 1.398 . S
C509 C505 1.414 . S
C509 C507 1.444 . S
C509 C514 1.385 . S
C510 C506 1.432 . S
C510 C507 1.317 . S
C510 H522 0.930 . S
C511 C513 1.392 . S
C511 C514 1.370 1_545 S
C511 H523 0.931 . S
N512 C505 1.359 1_545 S
N512 C513 1.327 . S
N512 Tb515 2.600 . S
C513 C511 1.392 . S
C513 N512 1.327 . S
C513 H520 0.930 . S
C514 C509 1.385 . S
C514 C511 1.370 1_565 S
C514 H533 0.930 . S
Tb515 N512 2.600 . S
Tb515 N516 2.620 1_545 S
Tb515 O549 2.362 . S
Tb515 O550 2.421 . S
Tb515 O554 2.546 . S
Tb515 O555 2.610 . S
Tb515 O557 2.320 . S
Tb515 O558 2.552 . S
Tb515 O559 2.413 . S
Tb515 C579 2.833 . S
N516 C508 1.398 . S
N516 Tb515 2.620 1_565 S
N516 C517 1.312 . S
C517 N516 1.312 . S
C517 C519 1.407 . S
C517 H524 0.930 1_565 S
C518 C506 1.410 . S
C518 C519 1.345 . S
C518 H526 0.930 . S
C519 C517 1.407 . S
C519 C518 1.345 . S
C519 H521 0.930 . S
H520 C513 0.930 . S
H521 C519 0.930 . S
H522 C510 0.930 . S
H523 C511 0.931 . S
H524 C517 0.930 1_545 S
H525 C539 0.930 . S
H526 C518 0.930 . S
H527 C545 0.930 . S
H528 C536 0.930 . S
H529 C543 0.931 . S
H530 C507 0.929 . S
H531 C537 0.930 . S
H532 C570 0.930 . S
H533 C514 0.930 . S
H534 C569 0.929 . S
N535 Tb504 2.660 . S
N535 C536 1.305 . S
N535 C540 1.360 . S
C536 H528 0.930 . S
C536 N535 1.305 . S
C536 C539 1.407 . S
C537 H531 0.930 . S
C537 C538 1.410 . S
C537 C539 1.345 . S
C538 C537 1.410 . S
C538 C540 1.417 . S
C538 C570 1.432 . S
C539 H525 0.930 . S
C539 C536 1.407 . S
C539 C537 1.345 . S
C540 N535 1.360 . S
C540 C538 1.417 . S
C540 C544 1.432 . S
H541 C546 0.930 . S
N542 Tb504 2.600 . S
N542 C544 1.359 . S
N542 C545 1.327 . S
C543 H529 0.931 . S
C543 C545 1.392 . S
C543 C546 1.370 . S
C544 C540 1.432 . S
C544 N542 1.359 . S
C544 C547 1.414 . S
C545 H527 0.930 . S
C545 N542 1.327 . S
C545 C543 1.392 . S
C546 H541 0.930 . S
C546 C543 1.370 . S
C546 C547 1.385 . S
C547 C544 1.414 . S
C547 C546 1.385 . S
C547 C569 1.444 . S
O548 Tb504 2.546 . S
O548 C568 1.251 . S
O549 Tb504 2.610 . S
O549 Tb515 2.362 . S
O549 C560 1.283 1_545 S
O550 Tb515 2.421 . S
O550 C567 1.262 . S
O551 Tb504 2.320 . S
O551 C567 1.260 . S
O552 Tb504 2.552 1_565 S
O552 C560 1.243 . S
O553 Tb504 2.413 . S
O553 C568 1.256 . S
O554 Tb515 2.546 . S
O554 C579 1.251 . S
O555 Tb504 2.362 . S
O555 Tb515 2.610 . S
O555 C571 1.283 . S
O556 Tb504 2.421 . S
O556 C578 1.262 . S
O557 Tb515 2.320 . S
O557 C578 1.260 . S
O558 Tb515 2.552 . S
O558 C571 1.243 . S
O559 Tb515 2.413 . S
O559 C579 1.256 . S
C560 O549 1.283 1_565 S
C560 O552 1.243 . S
C561 C563 1.382 . S
C561 C565 1.393 . S
C561 C568 1.500 . S
C562 C563 1.400 1_565 S
C562 C564 1.384 . S
C563 C561 1.382 . S
C563 C562 1.400 1_545 S
C563 H580 0.930 . S
C564 C562 1.384 . S
C564 C566 1.392 1_565 S
C564 H581 0.931 . S
C565 C561 1.393 . S
C565 C566 1.401 . S
C565 H582 0.930 . S
C566 C564 1.392 1_545 S
C566 C565 1.401 . S
C566 H583 0.930 . S
C567 O550 1.262 . S
C567 O551 1.260 . S
C568 Tb504 2.833 . S
C568 O548 1.251 . S
C568 O553 1.256 . S
C568 C561 1.500 . S
C569 H534 0.929 . S
C569 C547 1.444 . S
C569 C570 1.317 . S
C570 H532 0.930 . S
C570 C538 1.432 . S
C570 C569 1.317 . S
C571 O555 1.283 . S
C571 O558 1.243 . S
C572 C573 1.382 . S
C572 C576 1.393 . S
C572 C579 1.500 . S
C573 C572 1.382 . S
C573 C574 1.400 . S
C573 H584 0.930 . S
C574 C573 1.400 . S
C574 C575 1.384 . S
C575 C574 1.384 . S
C575 C577 1.392 . S
C575 H585 0.931 . S
C576 C572 1.393 . S
C576 C577 1.401 . S
C576 H586 0.930 . S
C577 C575 1.392 . S
C577 C576 1.401 . S
C577 H587 0.930 . S
C578 O556 1.262 . S
C578 O557 1.260 . S
C579 Tb515 2.833 . S
C579 O554 1.251 . S
C579 O559 1.256 . S
C579 C572 1.500 . S
H580 C563 0.930 . S
H581 C564 0.931 . S
H582 C565 0.930 . S
H583 C566 0.930 . S
H584 C573 0.930 . S
H585 C575 0.931 . S
H586 C576 0.930 . S
H587 C577 0.930 . S
Tb588 N619 2.660 . S
Tb588 N626 2.600 . S
Tb588 O632 2.546 . S
Tb588 O633 2.610 . S
Tb588 O635 2.320 . S
Tb588 O636 2.552 . S
Tb588 O637 2.413 . S
Tb588 O639 2.362 . S
Tb588 O640 2.421 . S
Tb588 C652 2.833 . S
C589 C592 1.432 . S
C589 C593 1.414 . S
C589 N596 1.359 . S
C590 C592 1.417 . S
C590 C594 1.432 . S
C590 C602 1.410 . S
C591 C593 1.444 . S
C591 C594 1.317 . S
C591 H614 0.929 . S
C592 C589 1.432 . S
C592 C590 1.417 . S
C592 N600 1.360 . S
C593 C589 1.414 . S
C593 C591 1.444 . S
C593 C598 1.385 . S
C594 C590 1.432 . S
C594 C591 1.317 . S
C594 H606 0.930 . S
C595 C597 1.392 . S
C595 C598 1.370 . S
C595 H607 0.931 . S
N596 C589 1.359 . S
N596 C597 1.327 . S
N596 Tb599 2.600 . S
C597 C595 1.392 . S
C597 N596 1.327 . S
C597 H604 0.930 . S
C598 C593 1.385 . S
C598 C595 1.370 . S
C598 H617 0.930 . S
Tb599 N596 2.600 . S
Tb599 N600 2.660 . S
Tb599 O633 2.362 . S
Tb599 O634 2.421 . S
Tb599 O638 2.546 . S
Tb599 O639 2.610 . S
Tb599 O641 2.320 . S
Tb599 O642 2.552 . S
Tb599 O643 2.413 . S
Tb599 C663 2.833 . S
N600 C592 1.360 . S
N600 Tb599 2.660 . S
N600 C601 1.305 . S
C601 N600 1.305 . S
C601 C603 1.407 . S
C601 H608 0.930 . S
C602 C590 1.410 . S
C602 C603 1.345 . S
C602 H610 0.930 . S
C603 C601 1.407 . S
C603 C602 1.345 . S
C603 H605 0.930 . S
H604 C597 0.930 . S
H605 C603 0.930 . S
H606 C594 0.930 . S
H607 C595 0.931 . S
H608 C601 0.930 . S
H609 C623 0.930 . S
H610 C602 0.930 . S
H611 C629 0.930 . S
H612 C620 0.930 . S
H613 C627 0.931 . S
H614 C591 0.929 . S
H615 C621 0.930 . S
H616 C654 0.930 . S
H617 C598 0.930 . S
H618 C653 0.929 . S
N619 Tb588 2.660 . S
N619 C620 1.305 . S
N619 C624 1.360 . S
C620 H612 0.930 . S
C620 N619 1.305 . S
C620 C623 1.407 . S
C621 H615 0.930 . S
C621 C622 1.410 . S
C621 C623 1.345 . S
C622 C621 1.410 . S
C622 C624 1.417 . S
C622 C654 1.432 . S
C623 H609 0.930 . S
C623 C620 1.407 . S
C623 C621 1.345 . S
C624 N619 1.360 . S
C624 C622 1.417 . S
C624 C628 1.432 . S
H625 C630 0.930 . S
N626 Tb588 2.600 . S
N626 C628 1.359 . S
N626 C629 1.327 . S
C627 H613 0.931 . S
C627 C629 1.392 . S
C627 C630 1.370 . S
C628 C624 1.432 . S
C628 N626 1.359 . S
C628 C631 1.414 . S
C629 H611 0.930 . S
C629 N626 1.327 . S
C629 C627 1.392 . S
C630 H625 0.930 . S
C630 C627 1.370 . S
C630 C631 1.385 . S
C631 C628 1.414 . S
C631 C630 1.385 . S
C631 C653 1.444 . S
O632 Tb588 2.546 . S
O632 C652 1.251 . S
O633 Tb588 2.610 . S
O633 Tb599 2.362 . S
O633 C644 1.283 . S
O634 Tb599 2.421 . S
O634 C651 1.262 . S
O635 Tb588 2.320 . S
O635 C651 1.260 . S
O636 Tb588 2.552 . S
O636 C644 1.243 . S
O637 Tb588 2.413 . S
O637 C652 1.256 . S
O638 Tb599 2.546 . S
O638 C663 1.251 . S
O639 Tb588 2.362 . S
O639 Tb599 2.610 . S
O639 C655 1.283 . S
O640 Tb588 2.421 . S
O640 C662 1.262 . S
O641 Tb599 2.320 . S
O641 C662 1.260 . S
O642 Tb599 2.552 . S
O642 C655 1.243 . S
O643 Tb599 2.413 . S
O643 C663 1.256 . S
C644 O633 1.283 . S
C644 O636 1.243 . S
C645 C647 1.382 . S
C645 C649 1.393 . S
C645 C652 1.500 . S
C646 C647 1.400 . S
C646 C648 1.384 . S
C647 C645 1.382 . S
C647 C646 1.400 . S
C647 H664 0.930 . S
C648 C646 1.384 . S
C648 C650 1.392 . S
C648 H665 0.931 . S
C649 C645 1.393 . S
C649 C650 1.401 . S
C649 H666 0.930 . S
C650 C648 1.392 . S
C650 C649 1.401 . S
C650 H667 0.930 . S
C651 O634 1.262 . S
C651 O635 1.260 . S
C652 Tb588 2.833 . S
C652 O632 1.251 . S
C652 O637 1.256 . S
C652 C645 1.500 . S
C653 H618 0.929 . S
C653 C631 1.444 . S
C653 C654 1.317 . S
C654 H616 0.930 . S
C654 C622 1.432 . S
C654 C653 1.317 . S
C655 O639 1.283 . S
C655 O642 1.243 . S
C656 C657 1.382 . S
C656 C660 1.393 . S
C656 C663 1.500 . S
C657 C656 1.382 . S
C657 C658 1.400 . S
C657 H668 0.930 . S
C658 C657 1.400 . S
C658 C659 1.384 . S
C659 C658 1.384 . S
C659 C661 1.392 . S
C659 H669 0.931 . S
C660 C656 1.393 . S
C660 C661 1.401 . S
C660 H670 0.930 . S
C661 C659 1.392 . S
C661 C660 1.401 . S
C661 H671 0.930 . S
C662 O640 1.262 . S
C662 O641 1.260 . S
C663 Tb599 2.833 . S
C663 O638 1.251 . S
C663 O643 1.256 . S
C663 C656 1.500 . S
H664 C647 0.930 . S
H665 C648 0.931 . S
H666 C649 0.930 . S
H667 C650 0.930 . S
H668 C657 0.930 . S
H669 C659 0.931 . S
H670 C660 0.930 . S
H671 C661 0.930 . S
Tb672 N703 2.660 . S
Tb672 N710 2.600 . S
Tb672 O716 2.546 . S
Tb672 O717 2.610 . S
Tb672 O719 2.320 . S
Tb672 O720 2.552 . S
Tb672 O721 2.413 . S
Tb672 O723 2.362 . S
Tb672 O724 2.421 . S
Tb672 C736 2.833 . S
C673 C676 1.432 . S
C673 C677 1.414 . S
C673 N680 1.359 . S
C674 C676 1.417 . S
C674 C678 1.432 . S
C674 C686 1.410 . S
C675 C677 1.444 . S
C675 C678 1.317 . S
C675 H698 0.929 . S
C676 C673 1.432 . S
C676 C674 1.417 . S
C676 N684 1.360 . S
C677 C673 1.414 . S
C677 C675 1.444 . S
C677 C682 1.385 . S
C678 C674 1.432 . S
C678 C675 1.317 . S
C678 H690 0.930 . S
C679 C681 1.392 . S
C679 C682 1.370 . S
C679 H691 0.931 . S
N680 C673 1.359 . S
N680 C681 1.327 . S
N680 Tb683 2.600 1_565 S
C681 C679 1.392 . S
C681 N680 1.327 . S
C681 H688 0.930 1_565 S
C682 C677 1.385 . S
C682 C679 1.370 . S
C682 H701 0.930 . S
Tb683 N680 2.600 1_545 S
Tb683 N684 2.660 1_545 S
Tb683 O717 2.362 . S
Tb683 O718 2.421 . S
Tb683 O722 2.546 1_545 S
Tb683 O723 2.610 . S
Tb683 O725 2.320 . S
Tb683 O726 2.552 . S
Tb683 O727 2.413 1_545 S
Tb683 C747 2.833 1_545 S
N684 C676 1.360 . S
N684 Tb683 2.660 1_565 S
N684 C685 1.305 . S
C685 N684 1.305 . S
C685 C687 1.407 . S
C685 H692 0.930 . S
C686 C674 1.410 . S
C686 C687 1.345 . S
C686 H694 0.930 . S
C687 C685 1.407 . S
C687 C686 1.345 . S
C687 H689 0.930 1_455 S
H688 C681 0.930 1_545 S
H689 C687 0.930 1_655 S
H690 C678 0.930 . S
H691 C679 0.931 . S
H692 C685 0.930 . S
H693 C707 0.930 . S
H694 C686 0.930 . S
H695 C713 0.930 . S
H696 C704 0.930 . S
H697 C711 0.931 1_655 S
H698 C675 0.929 . S
H699 C705 0.930 . S
H700 C738 0.930 . S
H701 C682 0.930 . S
H702 C737 0.929 . S
N703 Tb672 2.660 . S
N703 C704 1.305 . S
N703 C708 1.360 . S
C704 H696 0.930 . S
C704 N703 1.305 . S
C704 C707 1.407 . S
C705 H699 0.930 . S
C705 C706 1.410 . S
C705 C707 1.345 . S
C706 C705 1.410 . S
C706 C708 1.417 . S
C706 C738 1.432 . S
C707 H693 0.930 . S
C707 C704 1.407 . S
C707 C705 1.345 . S
C708 N703 1.360 . S
C708 C706 1.417 . S
C708 C712 1.432 . S
H709 C714 0.930 . S
N710 Tb672 2.600 . S
N710 C712 1.359 . S
N710 C713 1.327 . S
C711 H697 0.931 1_455 S
C711 C713 1.392 . S
C711 C714 1.370 . S
C712 C708 1.432 . S
C712 N710 1.359 . S
C712 C715 1.414 . S
C713 H695 0.930 . S
C713 N710 1.327 . S
C713 C711 1.392 . S
C714 H709 0.930 . S
C714 C711 1.370 . S
C714 C715 1.385 . S
C715 C712 1.414 . S
C715 C714 1.385 . S
C715 C737 1.444 . S
O716 Tb672 2.546 . S
O716 C736 1.251 . S
O717 Tb672 2.610 . S
O717 Tb683 2.362 . S
O717 C728 1.283 . S
O718 Tb683 2.421 . S
O718 C735 1.262 . S
O719 Tb672 2.320 . S
O719 C735 1.260 . S
O720 Tb672 2.552 . S
O720 C728 1.243 . S
O721 Tb672 2.413 . S
O721 C736 1.256 . S
O722 Tb683 2.546 1_565 S
O722 C747 1.251 . S
O723 Tb672 2.362 . S
O723 Tb683 2.610 . S
O723 C739 1.283 . S
O724 Tb672 2.421 . S
O724 C746 1.262 . S
O725 Tb683 2.320 . S
O725 C746 1.260 . S
O726 Tb683 2.552 . S
O726 C739 1.243 . S
O727 Tb683 2.413 1_565 S
O727 C747 1.256 . S
C728 O717 1.283 . S
C728 O720 1.243 . S
C729 C731 1.382 . S
C729 C733 1.393 . S
C729 C736 1.500 . S
C730 C731 1.400 . S
C730 C732 1.384 . S
C731 C729 1.382 . S
C731 C730 1.400 . S
C731 H748 0.930 . S
C732 C730 1.384 . S
C732 C734 1.392 . S
C732 H749 0.931 . S
C733 C729 1.393 . S
C733 C734 1.401 . S
C733 H750 0.930 . S
C734 C732 1.392 . S
C734 C733 1.401 . S
C734 H751 0.930 . S
C735 O718 1.262 . S
C735 O719 1.260 . S
C736 Tb672 2.833 . S
C736 O716 1.251 . S
C736 O721 1.256 . S
C736 C729 1.500 . S
C737 H702 0.929 . S
C737 C715 1.444 . S
C737 C738 1.317 . S
C738 H700 0.930 . S
C738 C706 1.432 . S
C738 C737 1.317 . S
C739 O723 1.283 . S
C739 O726 1.243 . S
C740 C741 1.382 . S
C740 C744 1.393 . S
C740 C747 1.500 . S
C741 C740 1.382 . S
C741 C742 1.400 . S
C741 H752 0.930 . S
C742 C741 1.400 . S
C742 C743 1.384 . S
C743 C742 1.384 . S
C743 C745 1.392 . S
C743 H753 0.931 . S
C744 C740 1.393 . S
C744 C745 1.401 . S
C744 H754 0.930 . S
C745 C743 1.392 . S
C745 C744 1.401 . S
C745 H755 0.930 . S
C746 O724 1.262 . S
C746 O725 1.260 . S
C747 Tb683 2.833 1_565 S
C747 O722 1.251 . S
C747 O727 1.256 . S
C747 C740 1.500 . S
H748 C731 0.930 . S
H749 C732 0.931 . S
H750 C733 0.930 . S
H751 C734 0.930 . S
H752 C741 0.930 . S
H753 C743 0.931 . S
H754 C744 0.930 . S
H755 C745 0.930 . S
Tb756 N787 2.660 . S
Tb756 N794 2.600 . S
Tb756 O800 2.546 . S
Tb756 O801 2.610 . S
Tb756 O803 2.320 . S
Tb756 O804 2.552 . S
Tb756 O805 2.413 . S
Tb756 O807 2.362 . S
Tb756 O808 2.421 . S
Tb756 C820 2.833 . S
C757 C760 1.432 . S
C757 C761 1.414 . S
C757 N764 1.359 . S
C758 C760 1.417 . S
C758 C762 1.432 . S
C758 C770 1.410 . S
C759 C761 1.444 . S
C759 C762 1.317 . S
C759 H782 0.929 . S
C760 C757 1.432 . S
C760 C758 1.417 . S
C760 N768 1.360 . S
C761 C757 1.414 . S
C761 C759 1.444 . S
C761 C766 1.385 . S
C762 C758 1.432 . S
C762 C759 1.317 . S
C762 H774 0.930 . S
C763 C765 1.392 . S
C763 C766 1.370 . S
C763 H775 0.931 . S
N764 C757 1.359 . S
N764 C765 1.327 . S
N764 Tb767 2.600 . S
C765 C763 1.392 . S
C765 N764 1.327 . S
C765 H772 0.930 . S
C766 C761 1.385 . S
C766 C763 1.370 . S
C766 H785 0.930 . S
Tb767 N764 2.600 . S
Tb767 N768 2.660 . S
Tb767 O801 2.362 . S
Tb767 O802 2.421 . S
Tb767 O806 2.546 . S
Tb767 O807 2.610 . S
Tb767 O809 2.320 . S
Tb767 O810 2.552 . S
Tb767 O811 2.413 . S
Tb767 C831 2.833 . S
N768 C760 1.360 . S
N768 Tb767 2.660 . S
N768 C769 1.305 . S
C769 N768 1.305 . S
C769 C771 1.407 . S
C769 H776 0.930 . S
C770 C758 1.410 . S
C770 C771 1.345 . S
C770 H778 0.930 . S
C771 C769 1.407 . S
C771 C770 1.345 . S
C771 H773 0.930 . S
H772 C765 0.930 . S
H773 C771 0.930 . S
H774 C762 0.930 . S
H775 C763 0.931 . S
H776 C769 0.930 . S
H777 C791 0.930 . S
H778 C770 0.930 . S
H779 C797 0.930 . S
H780 C788 0.930 . S
H781 C795 0.931 . S
H782 C759 0.929 . S
H783 C789 0.930 . S
H784 C822 0.930 . S
H785 C766 0.930 . S
H786 C821 0.929 . S
N787 Tb756 2.660 . S
N787 C788 1.305 . S
N787 C792 1.360 . S
C788 H780 0.930 . S
C788 N787 1.305 . S
C788 C791 1.407 . S
C789 H783 0.930 . S
C789 C790 1.410 . S
C789 C791 1.345 . S
C790 C789 1.410 . S
C790 C792 1.417 . S
C790 C822 1.432 . S
C791 H777 0.930 . S
C791 C788 1.407 . S
C791 C789 1.345 . S
C792 N787 1.360 . S
C792 C790 1.417 . S
C792 C796 1.432 . S
H793 C798 0.930 . S
N794 Tb756 2.600 . S
N794 C796 1.359 . S
N794 C797 1.327 . S
C795 H781 0.931 . S
C795 C797 1.392 . S
C795 C798 1.370 . S
C796 C792 1.432 . S
C796 N794 1.359 . S
C796 C799 1.414 . S
C797 H779 0.930 . S
C797 N794 1.327 . S
C797 C795 1.392 . S
C798 H793 0.930 . S
C798 C795 1.370 . S
C798 C799 1.385 . S
C799 C796 1.414 . S
C799 C798 1.385 . S
C799 C821 1.444 . S
O800 Tb756 2.546 . S
O800 C820 1.251 . S
O801 Tb756 2.610 . S
O801 Tb767 2.362 . S
O801 C812 1.283 . S
O802 Tb767 2.421 . S
O802 C819 1.262 . S
O803 Tb756 2.320 . S
O803 C819 1.260 . S
O804 Tb756 2.552 . S
O804 C812 1.243 . S
O805 Tb756 2.413 . S
O805 C820 1.256 . S
O806 Tb767 2.546 . S
O806 C831 1.251 . S
O807 Tb756 2.362 . S
O807 Tb767 2.610 . S
O807 C823 1.283 . S
O808 Tb756 2.421 . S
O808 C830 1.262 . S
O809 Tb767 2.320 . S
O809 C830 1.260 . S
O810 Tb767 2.552 . S
O810 C823 1.243 . S
O811 Tb767 2.413 . S
O811 C831 1.256 . S
C812 O801 1.283 . S
C812 O804 1.243 . S
C813 C815 1.382 . S
C813 C817 1.393 . S
C813 C820 1.500 . S
C814 C815 1.400 . S
C814 C816 1.384 . S
C815 C813 1.382 . S
C815 C814 1.400 . S
C815 H832 0.930 . S
C816 C814 1.384 . S
C816 C818 1.392 . S
C816 H833 0.931 . S
C817 C813 1.393 . S
C817 C818 1.401 . S
C817 H834 0.930 . S
C818 C816 1.392 . S
C818 C817 1.401 . S
C818 H835 0.930 . S
C819 O802 1.262 . S
C819 O803 1.260 . S
C820 Tb756 2.833 . S
C820 O800 1.251 . S
C820 O805 1.256 . S
C820 C813 1.500 . S
C821 H786 0.929 . S
C821 C799 1.444 . S
C821 C822 1.317 . S
C822 H784 0.930 . S
C822 C790 1.432 . S
C822 C821 1.317 . S
C823 O807 1.283 . S
C823 O810 1.243 . S
C824 C825 1.382 . S
C824 C828 1.393 . S
C824 C831 1.500 . S
C825 C824 1.382 . S
C825 C826 1.400 . S
C825 H836 0.930 . S
C826 C825 1.400 . S
C826 C827 1.384 . S
C827 C826 1.384 . S
C827 C829 1.392 . S
C827 H837 0.931 . S
C828 C824 1.393 . S
C828 C829 1.401 . S
C828 H838 0.930 . S
C829 C827 1.392 . S
C829 C828 1.401 . S
C829 H839 0.930 . S
C830 O808 1.262 . S
C830 O809 1.260 . S
C831 Tb767 2.833 . S
C831 O806 1.251 . S
C831 O811 1.256 . S
C831 C824 1.500 . S
H832 C815 0.930 . S
H833 C816 0.931 . S
H834 C817 0.930 . S
H835 C818 0.930 . S
H836 C825 0.930 . S
H837 C827 0.931 . S
H838 C828 0.930 . S
H839 C829 0.930 . S
Tb840 N871 2.660 . S
Tb840 N878 2.600 . S
Tb840 O884 2.546 . S
Tb840 O885 2.610 . S
Tb840 O887 2.320 . S
Tb840 O888 2.552 . S
Tb840 O889 2.413 . S
Tb840 O891 2.362 . S
Tb840 O892 2.421 . S
Tb840 C904 2.833 . S
C841 C844 1.432 . S
C841 C845 1.414 . S
C841 N848 1.359 . S
C842 C844 1.417 . S
C842 C846 1.432 . S
C842 C854 1.410 1_545 S
C843 C845 1.444 . S
C843 C846 1.317 . S
C843 H866 0.929 . S
C844 C841 1.432 . S
C844 C842 1.417 . S
C844 N852 1.360 . S
C845 C841 1.414 . S
C845 C843 1.444 . S
C845 C850 1.385 . S
C846 C842 1.432 . S
C846 C843 1.317 . S
C846 H858 0.930 . S
C847 C849 1.392 . S
C847 C850 1.370 . S
C847 H859 0.931 . S
N848 C841 1.359 . S
N848 C849 1.327 . S
N848 Tb851 2.600 . S
C849 C847 1.392 . S
C849 N848 1.327 . S
C849 H856 0.930 . S
C850 C845 1.385 . S
C850 C847 1.370 . S
C850 H869 0.930 . S
Tb851 N848 2.600 . S
Tb851 N852 2.660 . S
Tb851 O885 2.362 1_556 S
Tb851 O886 2.421 1_556 S
Tb851 O890 2.546 . S
Tb851 O891 2.610 1_556 S
Tb851 O893 2.320 . S
Tb851 O894 2.552 . S
Tb851 O895 2.413 . S
Tb851 C915 2.833 . S
N852 C844 1.360 . S
N852 Tb851 2.660 . S
N852 C853 1.305 . S
C853 N852 1.305 . S
C853 C855 1.407 1_545 S
C853 H860 0.930 1_545 S
C854 C842 1.410 1_565 S
C854 C855 1.345 . S
C854 H862 0.930 . S
C855 C853 1.407 1_565 S
C855 C854 1.345 . S
C855 H857 0.930 . S
H856 C849 0.930 . S
H857 C855 0.930 . S
H858 C846 0.930 . S
H859 C847 0.931 . S
H860 C853 0.930 1_565 S
H861 C875 0.930 . S
H862 C854 0.930 . S
H863 C881 0.930 . S
H864 C872 0.930 . S
H865 C879 0.931 . S
H866 C843 0.929 . S
H867 C873 0.930 . S
H868 C906 0.930 . S
H869 C850 0.930 . S
H870 C905 0.929 . S
N871 Tb840 2.660 . S
N871 C872 1.305 . S
N871 C876 1.360 . S
C872 H864 0.930 . S
C872 N871 1.305 . S
C872 C875 1.407 . S
C873 H867 0.930 . S
C873 C874 1.410 . S
C873 C875 1.345 . S
C874 C873 1.410 . S
C874 C876 1.417 . S
C874 C906 1.432 . S
C875 H861 0.930 . S
C875 C872 1.407 . S
C875 C873 1.345 . S
C876 N871 1.360 . S
C876 C874 1.417 . S
C876 C880 1.432 . S
H877 C882 0.930 . S
N878 Tb840 2.600 . S
N878 C880 1.359 . S
N878 C881 1.327 1_545 S
C879 H865 0.931 . S
C879 C881 1.392 . S
C879 C882 1.370 . S
C880 C876 1.432 . S
C880 N878 1.359 . S
C880 C883 1.414 . S
C881 H863 0.930 . S
C881 N878 1.327 1_565 S
C881 C879 1.392 . S
C882 H877 0.930 . S
C882 C879 1.370 . S
C882 C883 1.385 1_565 S
C883 C880 1.414 . S
C883 C882 1.385 1_545 S
C883 C905 1.444 . S
O884 Tb840 2.546 . S
O884 C904 1.251 . S
O885 Tb840 2.610 . S
O885 Tb851 2.362 1_554 S
O885 C896 1.283 . S
O886 Tb851 2.421 1_554 S
O886 C903 1.262 . S
O887 Tb840 2.320 . S
O887 C903 1.260 . S
O888 Tb840 2.552 . S
O888 C896 1.243 . S
O889 Tb840 2.413 . S
O889 C904 1.256 . S
O890 Tb851 2.546 . S
O890 C915 1.251 . S
O891 Tb840 2.362 . S
O891 Tb851 2.610 1_554 S
O891 C907 1.283 . S
O892 Tb840 2.421 . S
O892 C914 1.291 . S
O893 Tb851 2.320 . S
O893 C914 1.241 1_556 S
O894 Tb851 2.552 . S
O894 C907 1.243 1_556 S
O895 Tb851 2.413 . S
O895 C915 1.256 . S
C896 O885 1.283 . S
C896 O888 1.243 . S
C897 C899 1.382 . S
C897 C901 1.393 1_545 S
C897 C904 1.500 . S
C898 C899 1.400 . S
C898 C900 1.384 . S
C899 C897 1.382 . S
C899 C898 1.400 . S
C899 H916 0.930 . S
C900 C898 1.384 . S
C900 C902 1.392 1_545 S
C900 H917 0.931 . S
C901 C897 1.393 1_565 S
C901 C902 1.401 . S
C901 H918 0.930 . S
C902 C900 1.392 1_565 S
C902 C901 1.401 . S
C902 H919 0.930 . S
C903 O886 1.262 . S
C903 O887 1.260 . S
C904 Tb840 2.833 . S
C904 O884 1.251 . S
C904 O889 1.256 . S
C904 C897 1.500 . S
C905 H870 0.929 . S
C905 C883 1.444 . S
C905 C906 1.317 . S
C906 H868 0.930 . S
C906 C874 1.432 . S
C906 C905 1.317 . S
C907 O891 1.283 . S
C907 O894 1.243 1_554 S
C908 C909 1.382 . S
C908 C912 1.393 . S
C908 C915 1.500 . S
C909 C908 1.382 . S
C909 C910 1.400 . S
C909 H920 0.930 . S
C910 C909 1.400 . S
C910 C911 1.384 . S
C911 C910 1.384 . S
C911 C913 1.392 . S
C911 H921 0.931 . S
C912 C908 1.393 . S
C912 C913 1.401 . S
C912 H922 0.930 . S
C913 C911 1.392 . S
C913 C912 1.401 . S
C913 H923 0.930 . S
C914 O892 1.291 . S
C914 O893 1.241 1_554 S
C915 Tb851 2.833 . S
C915 O890 1.251 . S
C915 O895 1.256 . S
C915 C908 1.500 . S
H916 C899 0.930 . S
H917 C900 0.931 . S
H918 C901 0.930 . S
H919 C902 0.930 . S
H920 C909 0.930 . S
H921 C911 0.931 . S
H922 C912 0.930 . S
H923 C913 0.930 . S
Tb924 N955 2.660 . S
Tb924 N962 2.600 . S
Tb924 O968 2.546 . S
Tb924 O969 2.610 . S
Tb924 O971 2.320 . S
Tb924 O972 2.552 . S
Tb924 O973 2.413 . S
Tb924 O975 2.362 . S
Tb924 O976 2.421 . S
Tb924 C988 2.833 . S
C925 C928 1.432 . S
C925 C929 1.414 . S
C925 N932 1.359 . S
C926 C928 1.417 . S
C926 C930 1.432 . S
C926 C938 1.410 . S
C927 C929 1.444 . S
C927 C930 1.317 . S
C927 H950 0.929 . S
C928 C925 1.432 . S
C928 C926 1.417 . S
C928 N936 1.360 . S
C929 C925 1.414 . S
C929 C927 1.444 . S
C929 C934 1.385 . S
C930 C926 1.432 . S
C930 C927 1.317 . S
C930 H942 0.930 . S
C931 C933 1.392 . S
C931 C934 1.370 . S
C931 H943 0.931 . S
N932 C925 1.359 . S
N932 C933 1.327 . S
N932 Tb935 2.600 . S
C933 C931 1.392 . S
C933 N932 1.327 . S
C933 H940 0.930 . S
C934 C929 1.385 . S
C934 C931 1.370 . S
C934 H953 0.930 . S
Tb935 N932 2.600 . S
Tb935 N936 2.660 . S
Tb935 O969 2.362 . S
Tb935 O970 2.421 . S
Tb935 O974 2.546 . S
Tb935 O975 2.610 . S
Tb935 O977 2.320 . S
Tb935 O978 2.552 . S
Tb935 O979 2.413 . S
Tb935 C999 2.833 . S
N936 C928 1.360 . S
N936 Tb935 2.660 . S
N936 C937 1.305 . S
C937 N936 1.305 . S
C937 C939 1.407 . S
C937 H944 0.930 . S
C938 C926 1.410 . S
C938 C939 1.345 . S
C938 H946 0.930 . S
C939 C937 1.407 . S
C939 C938 1.345 . S
C939 H941 0.930 . S
H940 C933 0.930 . S
H941 C939 0.930 . S
H942 C930 0.930 . S
H943 C931 0.931 . S
H944 C937 0.930 . S
H945 C959 0.930 . S
H946 C938 0.930 . S
H947 C965 0.930 . S
H948 C956 0.930 . S
H949 C963 0.931 . S
H950 C927 0.929 . S
H951 C957 0.930 . S
H952 C990 0.930 . S
H953 C934 0.930 . S
H954 C989 0.929 . S
N955 Tb924 2.660 . S
N955 C956 1.305 . S
N955 C960 1.360 . S
C956 H948 0.930 . S
C956 N955 1.305 . S
C956 C959 1.407 . S
C957 H951 0.930 . S
C957 C958 1.410 . S
C957 C959 1.345 . S
C958 C957 1.410 . S
C958 C960 1.417 . S
C958 C990 1.432 . S
C959 H945 0.930 . S
C959 C956 1.407 . S
C959 C957 1.345 . S
C960 N955 1.360 . S
C960 C958 1.417 . S
C960 C964 1.432 . S
H961 C966 0.930 . S
N962 Tb924 2.600 . S
N962 C964 1.359 . S
N962 C965 1.327 . S
C963 H949 0.931 . S
C963 C965 1.392 . S
C963 C966 1.370 . S
C964 C960 1.432 . S
C964 N962 1.359 . S
C964 C967 1.414 . S
C965 H947 0.930 . S
C965 N962 1.327 . S
C965 C963 1.392 . S
C966 H961 0.930 . S
C966 C963 1.370 . S
C966 C967 1.385 . S
C967 C964 1.414 . S
C967 C966 1.385 . S
C967 C989 1.444 . S
O968 Tb924 2.546 . S
O968 C988 1.251 . S
O969 Tb924 2.610 . S
O969 Tb935 2.362 . S
O969 C980 1.283 . S
O970 Tb935 2.421 . S
O970 C987 1.262 . S
O971 Tb924 2.320 . S
O971 C987 1.260 . S
O972 Tb924 2.552 . S
O972 C980 1.243 . S
O973 Tb924 2.413 . S
O973 C988 1.256 . S
O974 Tb935 2.546 . S
O974 C999 1.251 . S
O975 Tb924 2.362 . S
O975 Tb935 2.610 . S
O975 C991 1.283 . S
O976 Tb924 2.421 . S
O976 C998 1.262 . S
O977 Tb935 2.320 . S
O977 C998 1.260 . S
O978 Tb935 2.552 . S
O978 C991 1.243 . S
O979 Tb935 2.413 . S
O979 C999 1.256 . S
C980 O969 1.283 . S
C980 O972 1.243 . S
C981 C983 1.382 . S
C981 C985 1.393 . S
C981 C988 1.500 . S
C982 C983 1.400 . S
C982 C984 1.384 . S
C983 C981 1.382 . S
C983 C982 1.400 . S
C983 H1000 0.930 . S
C984 C982 1.384 . S
C984 C986 1.392 . S
C984 H1001 0.931 . S
C985 C981 1.393 . S
C985 C986 1.401 . S
C985 H1002 0.930 . S
C986 C984 1.392 . S
C986 C985 1.401 . S
C986 H1003 0.930 . S
C987 O970 1.262 . S
C987 O971 1.260 . S
C988 Tb924 2.833 . S
C988 O968 1.251 . S
C988 O973 1.256 . S
C988 C981 1.500 . S
C989 H954 0.929 . S
C989 C967 1.444 . S
C989 C990 1.317 . S
C990 H952 0.930 . S
C990 C958 1.432 . S
C990 C989 1.317 . S
C991 O975 1.283 . S
C991 O978 1.243 . S
C992 C993 1.382 . S
C992 C996 1.393 . S
C992 C999 1.500 . S
C993 C992 1.382 . S
C993 C994 1.400 . S
C993 H1004 0.930 . S
C994 C993 1.400 . S
C994 C995 1.384 . S
C995 C994 1.384 . S
C995 C997 1.392 . S
C995 H1005 0.931 . S
C996 C992 1.393 . S
C996 C997 1.401 . S
C996 H1006 0.930 . S
C997 C995 1.392 . S
C997 C996 1.401 . S
C997 H1007 0.930 . S
C998 O976 1.262 . S
C998 O977 1.260 . S
C999 Tb935 2.833 . S
C999 O974 1.251 . S
C999 O979 1.256 . S
C999 C992 1.500 . S
H1000 C983 0.930 . S
H1001 C984 0.931 . S
H1002 C985 0.930 . S
H1003 C986 0.930 . S
H1004 C993 0.930 . S
H1005 C995 0.931 . S
H1006 C996 0.930 . S
H1007 C997 0.930 . S
Tb1008 N1039 2.660 . S
Tb1008 N1046 2.600 . S
Tb1008 O1052 2.546 . S
Tb1008 O1053 2.610 1_554 S
Tb1008 O1055 2.320 . S
Tb1008 O1056 2.552 1_554 S
Tb1008 O1057 2.413 . S
Tb1008 O1059 2.362 . S
Tb1008 O1060 2.421 . S
Tb1008 C1072 2.833 . S
C1009 C1012 1.432 . S
C1009 C1013 1.414 . S
C1009 N1016 1.359 . S
C1010 C1012 1.417 . S
C1010 C1014 1.432 . S
C1010 C1022 1.410 . S
C1011 C1013 1.444 . S
C1011 C1014 1.317 . S
C1011 H1034 0.929 . S
C1012 C1009 1.432 . S
C1012 C1010 1.417 . S
C1012 N1020 1.360 . S
C1013 C1009 1.414 . S
C1013 C1011 1.444 . S
C1013 C1018 1.385 . S
C1014 C1010 1.432 . S
C1014 C1011 1.317 . S
C1014 H1026 0.930 . S
C1015 C1017 1.392 . S
C1015 C1018 1.370 . S
C1015 H1027 0.931 . S
N1016 C1009 1.359 . S
N1016 C1017 1.327 . S
N1016 Tb1019 2.600 1_556 S
C1017 C1015 1.392 . S
C1017 N1016 1.327 . S
C1017 H1024 0.930 . S
C1018 C1013 1.385 . S
C1018 C1015 1.370 . S
C1018 H1037 0.930 . S
Tb1019 N1016 2.600 1_554 S
Tb1019 N1020 2.660 1_554 S
Tb1019 O1053 2.362 1_554 S
Tb1019 O1054 2.421 . S
Tb1019 O1058 2.546 . S
Tb1019 O1059 2.610 . S
Tb1019 O1061 2.320 . S
Tb1019 O1062 2.552 . S
Tb1019 O1063 2.413 . S
Tb1019 C1083 2.833 . S
N1020 C1012 1.360 . S
N1020 Tb1019 2.660 1_556 S
N1020 C1021 1.305 . S
C1021 N1020 1.305 . S
C1021 C1023 1.407 . S
C1021 H1028 0.930 . S
C1022 C1010 1.410 . S
C1022 C1023 1.345 . S
C1022 H1030 0.930 . S
C1023 C1021 1.407 . S
C1023 C1022 1.345 . S
C1023 H1025 0.930 . S
H1024 C1017 0.930 . S
H1025 C1023 0.930 . S
H1026 C1014 0.930 . S
H1027 C1015 0.931 . S
H1028 C1021 0.930 . S
H1029 C1043 0.930 . S
H1030 C1022 0.930 . S
H1031 C1049 0.930 . S
H1032 C1040 0.930 . S
H1033 C1047 0.931 . S
H1034 C1011 0.929 . S
H1035 C1041 0.930 . S
H1036 C1074 0.930 . S
H1037 C1018 0.930 . S
H1038 C1073 0.929 . S
N1039 Tb1008 2.660 . S
N1039 C1040 1.305 . S
N1039 C1044 1.360 . S
C1040 H1032 0.930 . S
C1040 N1039 1.305 . S
C1040 C1043 1.407 . S
C1041 H1035 0.930 . S
C1041 C1042 1.410 . S
C1041 C1043 1.345 . S
C1042 C1041 1.410 . S
C1042 C1044 1.417 . S
C1042 C1074 1.432 . S
C1043 H1029 0.930 . S
C1043 C1040 1.407 . S
C1043 C1041 1.345 . S
C1044 N1039 1.360 . S
C1044 C1042 1.417 . S
C1044 C1048 1.432 . S
H1045 C1050 0.930 . S
N1046 Tb1008 2.600 . S
N1046 C1048 1.359 . S
N1046 C1049 1.327 . S
C1047 H1033 0.931 . S
C1047 C1049 1.392 . S
C1047 C1050 1.370 . S
C1048 C1044 1.432 . S
C1048 N1046 1.359 . S
C1048 C1051 1.414 . S
C1049 H1031 0.930 . S
C1049 N1046 1.327 . S
C1049 C1047 1.392 . S
C1050 H1045 0.930 . S
C1050 C1047 1.370 . S
C1050 C1051 1.385 . S
C1051 C1048 1.414 . S
C1051 C1050 1.385 . S
C1051 C1073 1.444 . S
O1052 Tb1008 2.546 . S
O1052 C1072 1.251 . S
O1053 Tb1008 2.610 1_556 S
O1053 Tb1019 2.362 1_556 S
O1053 C1064 1.283 . S
O1054 Tb1019 2.421 . S
O1054 C1071 1.262 . S
O1055 Tb1008 2.320 . S
O1055 C1071 1.260 . S
O1056 Tb1008 2.552 1_556 S
O1056 C1064 1.243 . S
O1057 Tb1008 2.413 . S
O1057 C1072 1.256 . S
O1058 Tb1019 2.546 . S
O1058 C1083 1.251 . S
O1059 Tb1008 2.362 . S
O1059 Tb1019 2.610 . S
O1059 C1075 1.283 . S
O1060 Tb1008 2.421 . S
O1060 C1082 1.262 . S
O1061 Tb1019 2.320 . S
O1061 C1082 1.260 . S
O1062 Tb1019 2.552 . S
O1062 C1075 1.243 . S
O1063 Tb1019 2.413 . S
O1063 C1083 1.256 . S
C1064 O1053 1.283 . S
C1064 O1056 1.243 . S
C1065 C1067 1.382 . S
C1065 C1069 1.393 . S
C1065 C1072 1.500 . S
C1066 C1067 1.400 1_556 S
C1066 C1068 1.384 1_556 S
C1067 C1065 1.382 . S
C1067 C1066 1.400 1_554 S
C1067 H1084 0.932 . S
C1068 C1066 1.384 1_554 S
C1068 C1070 1.392 . S
C1068 H1085 0.931 . S
C1069 C1065 1.393 . S
C1069 C1070 1.401 . S
C1069 H1086 0.930 . S
C1070 C1068 1.392 . S
C1070 C1069 1.401 . S
C1070 H1087 0.930 . S
C1071 O1054 1.262 . S
C1071 O1055 1.260 . S
C1072 Tb1008 2.833 . S
C1072 O1052 1.251 . S
C1072 O1057 1.256 . S
C1072 C1065 1.500 . S
C1073 H1038 0.929 . S
C1073 C1051 1.444 . S
C1073 C1074 1.317 . S
C1074 H1036 0.930 . S
C1074 C1042 1.432 . S
C1074 C1073 1.317 . S
C1075 O1059 1.283 . S
C1075 O1062 1.243 . S
C1076 C1077 1.382 . S
C1076 C1080 1.393 . S
C1076 C1083 1.500 . S
C1077 C1076 1.382 . S
C1077 C1078 1.400 . S
C1077 H1088 0.930 . S
C1078 C1077 1.400 . S
C1078 C1079 1.384 . S
C1079 C1078 1.384 . S
C1079 C1081 1.392 . S
C1079 H1089 0.931 . S
C1080 C1076 1.393 . S
C1080 C1081 1.401 . S
C1080 H1090 0.930 . S
C1081 C1079 1.392 . S
C1081 C1080 1.401 . S
C1081 H1091 0.930 . S
C1082 O1060 1.262 . S
C1082 O1061 1.260 . S
C1083 Tb1019 2.833 . S
C1083 O1058 1.251 . S
C1083 O1063 1.256 . S
C1083 C1076 1.500 . S
H1084 C1067 0.932 . S
H1085 C1068 0.931 . S
H1086 C1069 0.930 . S
H1087 C1070 0.930 . S
H1088 C1077 0.930 . S
H1089 C1079 0.931 . S
H1090 C1080 0.930 . S
H1091 C1081 0.930 . S
Tb1092 N1123 2.660 . S
Tb1092 N1130 2.600 . S
Tb1092 O1136 2.546 . S
Tb1092 O1137 2.610 . S
Tb1092 O1139 2.320 . S
Tb1092 O1140 2.552 . S
Tb1092 O1141 2.413 . S
Tb1092 O1143 2.362 . S
Tb1092 O1144 2.421 . S
Tb1092 C1156 2.833 . S
C1093 C1096 1.432 . S
C1093 C1097 1.414 . S
C1093 N1100 1.359 . S
C1094 C1096 1.417 . S
C1094 C1098 1.432 . S
C1094 C1106 1.410 . S
C1095 C1097 1.444 . S
C1095 C1098 1.317 . S
C1095 H1118 0.929 . S
C1096 C1093 1.432 . S
C1096 C1094 1.417 . S
C1096 N1104 1.360 . S
C1097 C1093 1.414 . S
C1097 C1095 1.444 . S
C1097 C1102 1.385 . S
C1098 C1094 1.432 . S
C1098 C1095 1.317 . S
C1098 H1110 0.930 . S
C1099 C1101 1.392 . S
C1099 C1102 1.370 . S
C1099 H1111 0.931 . S
N1100 C1093 1.359 . S
N1100 C1101 1.327 . S
N1100 Tb1103 2.600 . S
C1101 C1099 1.392 . S
C1101 N1100 1.327 . S
C1101 H1108 0.930 . S
C1102 C1097 1.385 . S
C1102 C1099 1.370 . S
C1102 H1121 0.930 . S
Tb1103 N1100 2.600 . S
Tb1103 N1104 2.660 . S
Tb1103 O1137 2.362 . S
Tb1103 O1138 2.421 . S
Tb1103 O1142 2.546 . S
Tb1103 O1143 2.610 . S
Tb1103 O1145 2.320 . S
Tb1103 O1146 2.552 . S
Tb1103 O1147 2.413 . S
Tb1103 C1167 2.833 . S
N1104 C1096 1.360 . S
N1104 Tb1103 2.660 . S
N1104 C1105 1.305 . S
C1105 N1104 1.305 . S
C1105 C1107 1.407 . S
C1105 H1112 0.930 . S
C1106 C1094 1.410 . S
C1106 C1107 1.345 . S
C1106 H1114 0.930 . S
C1107 C1105 1.407 . S
C1107 C1106 1.345 . S
C1107 H1109 0.930 . S
H1108 C1101 0.930 . S
H1109 C1107 0.930 . S
H1110 C1098 0.930 . S
H1111 C1099 0.931 . S
H1112 C1105 0.930 . S
H1113 C1127 0.930 . S
H1114 C1106 0.930 . S
H1115 C1133 0.930 . S
H1116 C1124 0.930 . S
H1117 C1131 0.931 . S
H1118 C1095 0.929 . S
H1119 C1125 0.930 . S
H1120 C1158 0.930 . S
H1121 C1102 0.930 . S
H1122 C1157 0.929 . S
N1123 Tb1092 2.660 . S
N1123 C1124 1.305 . S
N1123 C1128 1.360 . S
C1124 H1116 0.930 . S
C1124 N1123 1.305 . S
C1124 C1127 1.407 . S
C1125 H1119 0.930 . S
C1125 C1126 1.410 . S
C1125 C1127 1.345 . S
C1126 C1125 1.410 . S
C1126 C1128 1.417 . S
C1126 C1158 1.432 . S
C1127 H1113 0.930 . S
C1127 C1124 1.407 . S
C1127 C1125 1.345 . S
C1128 N1123 1.360 . S
C1128 C1126 1.417 . S
C1128 C1132 1.432 . S
H1129 C1134 0.930 . S
N1130 Tb1092 2.600 . S
N1130 C1132 1.359 . S
N1130 C1133 1.327 . S
C1131 H1117 0.931 . S
C1131 C1133 1.392 . S
C1131 C1134 1.370 . S
C1132 C1128 1.432 . S
C1132 N1130 1.359 . S
C1132 C1135 1.414 . S
C1133 H1115 0.930 . S
C1133 N1130 1.327 . S
C1133 C1131 1.392 . S
C1134 H1129 0.930 . S
C1134 C1131 1.370 . S
C1134 C1135 1.385 . S
C1135 C1132 1.414 . S
C1135 C1134 1.385 . S
C1135 C1157 1.444 . S
O1136 Tb1092 2.546 . S
O1136 C1156 1.251 . S
O1137 Tb1092 2.610 . S
O1137 Tb1103 2.362 . S
O1137 C1148 1.283 . S
O1138 Tb1103 2.421 . S
O1138 C1155 1.262 . S
O1139 Tb1092 2.320 . S
O1139 C1155 1.260 . S
O1140 Tb1092 2.552 . S
O1140 C1148 1.243 . S
O1141 Tb1092 2.413 . S
O1141 C1156 1.256 . S
O1142 Tb1103 2.546 . S
O1142 C1167 1.251 . S
O1143 Tb1092 2.362 . S
O1143 Tb1103 2.610 . S
O1143 C1159 1.283 . S
O1144 Tb1092 2.421 . S
O1144 C1166 1.262 . S
O1145 Tb1103 2.320 . S
O1145 C1166 1.260 . S
O1146 Tb1103 2.552 . S
O1146 C1159 1.243 . S
O1147 Tb1103 2.413 . S
O1147 C1167 1.256 . S
C1148 O1137 1.283 . S
C1148 O1140 1.243 . S
C1149 C1151 1.382 . S
C1149 C1153 1.393 . S
C1149 C1156 1.500 . S
C1150 C1151 1.400 . S
C1150 C1152 1.384 . S
C1151 C1149 1.382 . S
C1151 C1150 1.400 . S
C1151 H1168 0.930 . S
C1152 C1150 1.384 . S
C1152 C1154 1.392 . S
C1152 H1169 0.931 . S
C1153 C1149 1.393 . S
C1153 C1154 1.401 . S
C1153 H1170 0.930 . S
C1154 C1152 1.392 . S
C1154 C1153 1.401 . S
C1154 H1171 0.930 . S
C1155 O1138 1.262 . S
C1155 O1139 1.260 . S
C1156 Tb1092 2.833 . S
C1156 O1136 1.251 . S
C1156 O1141 1.256 . S
C1156 C1149 1.500 . S
C1157 H1122 0.929 . S
C1157 C1135 1.444 . S
C1157 C1158 1.317 . S
C1158 H1120 0.930 . S
C1158 C1126 1.432 . S
C1158 C1157 1.317 . S
C1159 O1143 1.283 . S
C1159 O1146 1.243 . S
C1160 C1161 1.382 . S
C1160 C1164 1.393 . S
C1160 C1167 1.500 . S
C1161 C1160 1.382 . S
C1161 C1162 1.400 . S
C1161 H1172 0.930 . S
C1162 C1161 1.400 . S
C1162 C1163 1.384 . S
C1163 C1162 1.384 . S
C1163 C1165 1.392 . S
C1163 H1173 0.931 . S
C1164 C1160 1.393 . S
C1164 C1165 1.401 . S
C1164 H1174 0.930 . S
C1165 C1163 1.392 . S
C1165 C1164 1.401 . S
C1165 H1175 0.930 . S
C1166 O1144 1.262 . S
C1166 O1145 1.260 . S
C1167 Tb1103 2.833 . S
C1167 O1142 1.251 . S
C1167 O1147 1.256 . S
C1167 C1160 1.500 . S
H1168 C1151 0.930 . S
H1169 C1152 0.931 . S
H1170 C1153 0.930 . S
H1171 C1154 0.930 . S
H1172 C1161 0.930 . S
H1173 C1163 0.931 . S
H1174 C1164 0.930 . S
H1175 C1165 0.930 . S
Tb1176 N1207 2.660 . S
Tb1176 N1214 2.600 . S
Tb1176 O1220 2.546 . S
Tb1176 O1221 2.610 . S
Tb1176 O1223 2.320 . S
Tb1176 O1224 2.552 . S
Tb1176 O1225 2.413 . S
Tb1176 O1227 2.362 . S
Tb1176 O1228 2.421 . S
Tb1176 C1240 2.833 . S
C1177 C1180 1.432 . S
C1177 C1181 1.414 1_455 S
C1177 N1184 1.359 . S
C1178 C1180 1.417 1_655 S
C1178 C1182 1.432 . S
C1178 C1190 1.410 . S
C1179 C1181 1.444 . S
C1179 C1182 1.317 . S
C1179 H1202 0.929 . S
C1180 C1177 1.432 . S
C1180 C1178 1.417 1_455 S
C1180 N1188 1.360 . S
C1181 C1177 1.414 1_655 S
C1181 C1179 1.444 . S
C1181 C1186 1.385 . S
C1182 C1178 1.432 . S
C1182 C1179 1.317 . S
C1182 H1194 0.930 . S
C1183 C1185 1.392 . S
C1183 C1186 1.370 1_455 S
C1183 H1195 0.931 . S
N1184 C1177 1.359 . S
N1184 C1185 1.327 . S
N1184 Tb1187 2.600 . S
C1185 C1183 1.392 . S
C1185 N1184 1.327 . S
C1185 H1192 0.930 . S
C1186 C1181 1.385 . S
C1186 C1183 1.370 1_655 S
C1186 H1205 0.930 . S
Tb1187 N1184 2.600 . S
Tb1187 N1188 2.660 . S
Tb1187 O1221 2.362 . S
Tb1187 O1222 2.421 . S
Tb1187 O1226 2.546 . S
Tb1187 O1227 2.610 . S
Tb1187 O1229 2.320 . S
Tb1187 O1230 2.552 . S
Tb1187 O1231 2.413 . S
Tb1187 C1251 2.833 . S
N1188 C1180 1.360 . S
N1188 Tb1187 2.660 . S
N1188 C1189 1.305 . S
C1189 N1188 1.305 . S
C1189 C1191 1.407 1_455 S
C1189 H1196 0.930 . S
C1190 C1178 1.410 . S
C1190 C1191 1.345 . S
C1190 H1198 0.930 . S
C1191 C1189 1.407 1_655 S
C1191 C1190 1.345 . S
C1191 H1193 0.930 . S
H1192 C1185 0.930 . S
H1193 C1191 0.930 . S
H1194 C1182 0.930 . S
H1195 C1183 0.931 . S
H1196 C1189 0.930 . S
H1197 C1211 0.930 . S
H1198 C1190 0.930 . S
H1199 C1217 0.930 . S
H1200 C1208 0.930 . S
H1201 C1215 0.931 . S
H1202 C1179 0.929 . S
H1203 C1209 0.930 . S
H1204 C1242 0.930 . S
H1205 C1186 0.930 . S
H1206 C1241 0.929 . S
N1207 Tb1176 2.660 . S
N1207 C1208 1.305 . S
N1207 C1212 1.360 . S
C1208 H1200 0.930 . S
C1208 N1207 1.305 . S
C1208 C1211 1.407 . S
C1209 H1203 0.930 . S
C1209 C1210 1.410 . S
C1209 C1211 1.345 . S
C1210 C1209 1.410 . S
C1210 C1212 1.417 . S
C1210 C1242 1.432 . S
C1211 H1197 0.930 . S
C1211 C1208 1.407 . S
C1211 C1209 1.345 . S
C1212 N1207 1.360 . S
C1212 C1210 1.417 . S
C1212 C1216 1.432 . S
H1213 C1218 0.930 . S
N1214 Tb1176 2.600 . S
N1214 C1216 1.359 . S
N1214 C1217 1.327 . S
C1215 H1201 0.931 . S
C1215 C1217 1.392 . S
C1215 C1218 1.370 . S
C1216 C1212 1.432 . S
C1216 N1214 1.359 . S
C1216 C1219 1.414 . S
C1217 H1199 0.930 . S
C1217 N1214 1.327 . S
C1217 C1215 1.392 . S
C1218 H1213 0.930 . S
C1218 C1215 1.370 . S
C1218 C1219 1.385 . S
C1219 C1216 1.414 . S
C1219 C1218 1.385 . S
C1219 C1241 1.444 . S
O1220 Tb1176 2.546 . S
O1220 C1240 1.251 . S
O1221 Tb1176 2.610 . S
O1221 Tb1187 2.362 . S
O1221 C1232 1.283 . S
O1222 Tb1187 2.421 . S
O1222 C1239 1.262 . S
O1223 Tb1176 2.320 . S
O1223 C1239 1.260 . S
O1224 Tb1176 2.552 . S
O1224 C1232 1.243 . S
O1225 Tb1176 2.413 . S
O1225 C1240 1.256 . S
O1226 Tb1187 2.546 . S
O1226 C1251 1.251 . S
O1227 Tb1176 2.362 . S
O1227 Tb1187 2.610 . S
O1227 C1243 1.283 . S
O1228 Tb1176 2.421 . S
O1228 C1250 1.262 . S
O1229 Tb1187 2.320 . S
O1229 C1250 1.260 . S
O1230 Tb1187 2.552 . S
O1230 C1243 1.243 . S
O1231 Tb1187 2.413 . S
O1231 C1251 1.256 . S
C1232 O1221 1.283 . S
C1232 O1224 1.243 . S
C1233 C1235 1.382 . S
C1233 C1237 1.393 . S
C1233 C1240 1.500 . S
C1234 C1235 1.400 . S
C1234 C1236 1.384 . S
C1235 C1233 1.382 . S
C1235 C1234 1.400 . S
C1235 H1252 0.930 . S
C1236 C1234 1.384 . S
C1236 C1238 1.392 . S
C1236 H1253 0.931 . S
C1237 C1233 1.393 . S
C1237 C1238 1.401 . S
C1237 H1254 0.930 . S
C1238 C1236 1.392 . S
C1238 C1237 1.401 . S
C1238 H1255 0.930 . S
C1239 O1222 1.262 . S
C1239 O1223 1.260 . S
C1240 Tb1176 2.833 . S
C1240 O1220 1.251 . S
C1240 O1225 1.256 . S
C1240 C1233 1.500 . S
C1241 H1206 0.929 . S
C1241 C1219 1.444 . S
C1241 C1242 1.317 . S
C1242 H1204 0.930 . S
C1242 C1210 1.432 . S
C1242 C1241 1.317 . S
C1243 O1227 1.283 . S
C1243 O1230 1.243 . S
C1244 C1245 1.382 . S
C1244 C1248 1.393 . S
C1244 C1251 1.500 . S
C1245 C1244 1.382 . S
C1245 C1246 1.400 . S
C1245 H1256 0.930 . S
C1246 C1245 1.400 . S
C1246 C1247 1.384 . S
C1247 C1246 1.384 . S
C1247 C1249 1.392 . S
C1247 H1257 0.931 . S
C1248 C1244 1.393 . S
C1248 C1249 1.401 . S
C1248 H1258 0.930 . S
C1249 C1247 1.392 . S
C1249 C1248 1.401 . S
C1249 H1259 0.930 . S
C1250 O1228 1.262 . S
C1250 O1229 1.260 . S
C1251 Tb1187 2.833 . S
C1251 O1226 1.251 . S
C1251 O1231 1.256 . S
C1251 C1244 1.500 . S
H1252 C1235 0.930 . S
H1253 C1236 0.931 . S
H1254 C1237 0.930 . S
H1255 C1238 0.930 . S
H1256 C1245 0.930 . S
H1257 C1247 0.931 . S
H1258 C1248 0.930 . S
H1259 C1249 0.930 . S
Tb1260 N1291 2.660 . S
Tb1260 N1298 2.600 . S
Tb1260 O1304 2.546 . S
Tb1260 O1305 2.610 . S
Tb1260 O1307 2.320 . S
Tb1260 O1308 2.552 . S
Tb1260 O1309 2.413 . S
Tb1260 O1311 2.362 . S
Tb1260 O1312 2.421 . S
Tb1260 C1324 2.833 . S
C1261 C1264 1.432 . S
C1261 C1265 1.414 . S
C1261 N1268 1.359 . S
C1262 C1264 1.417 . S
C1262 C1266 1.432 . S
C1262 C1274 1.410 . S
C1263 C1265 1.444 . S
C1263 C1266 1.317 . S
C1263 H1286 0.929 . S
C1264 C1261 1.432 . S
C1264 C1262 1.417 . S
C1264 N1272 1.360 . S
C1265 C1261 1.414 . S
C1265 C1263 1.444 . S
C1265 C1270 1.385 . S
C1266 C1262 1.432 . S
C1266 C1263 1.317 . S
C1266 H1278 0.930 . S
C1267 C1269 1.392 . S
C1267 C1270 1.370 . S
C1267 H1279 0.931 . S
N1268 C1261 1.359 . S
N1268 C1269 1.327 . S
N1268 Tb1271 2.600 . S
C1269 C1267 1.392 . S
C1269 N1268 1.327 . S
C1269 H1276 0.930 . S
C1270 C1265 1.385 . S
C1270 C1267 1.370 . S
C1270 H1289 0.930 . S
Tb1271 N1268 2.600 . S
Tb1271 N1272 2.660 . S
Tb1271 O1305 2.362 . S
Tb1271 O1306 2.421 . S
Tb1271 O1310 2.546 . S
Tb1271 O1311 2.610 . S
Tb1271 O1313 2.320 . S
Tb1271 O1314 2.552 . S
Tb1271 O1315 2.413 . S
Tb1271 C1335 2.833 . S
N1272 C1264 1.360 . S
N1272 Tb1271 2.660 . S
N1272 C1273 1.305 . S
C1273 N1272 1.305 . S
C1273 C1275 1.407 . S
C1273 H1280 0.930 . S
C1274 C1262 1.410 . S
C1274 C1275 1.345 . S
C1274 H1282 0.930 . S
C1275 C1273 1.407 . S
C1275 C1274 1.345 . S
C1275 H1277 0.930 . S
H1276 C1269 0.930 . S
H1277 C1275 0.930 . S
H1278 C1266 0.930 . S
H1279 C1267 0.931 . S
H1280 C1273 0.930 . S
H1281 C1295 0.930 . S
H1282 C1274 0.930 . S
H1283 C1301 0.930 . S
H1284 C1292 0.930 . S
H1285 C1299 0.931 . S
H1286 C1263 0.929 . S
H1287 C1293 0.930 . S
H1288 C1326 0.930 . S
H1289 C1270 0.930 . S
H1290 C1325 0.929 . S
N1291 Tb1260 2.660 . S
N1291 C1292 1.305 . S
N1291 C1296 1.360 . S
C1292 H1284 0.930 . S
C1292 N1291 1.305 . S
C1292 C1295 1.407 . S
C1293 H1287 0.930 . S
C1293 C1294 1.410 . S
C1293 C1295 1.345 . S
C1294 C1293 1.410 . S
C1294 C1296 1.417 . S
C1294 C1326 1.432 . S
C1295 H1281 0.930 . S
C1295 C1292 1.407 . S
C1295 C1293 1.345 . S
C1296 N1291 1.360 . S
C1296 C1294 1.417 . S
C1296 C1300 1.432 . S
H1297 C1302 0.930 . S
N1298 Tb1260 2.600 . S
N1298 C1300 1.359 . S
N1298 C1301 1.327 . S
C1299 H1285 0.931 . S
C1299 C1301 1.392 . S
C1299 C1302 1.370 . S
C1300 C1296 1.432 . S
C1300 N1298 1.359 . S
C1300 C1303 1.414 . S
C1301 H1283 0.930 . S
C1301 N1298 1.327 . S
C1301 C1299 1.392 . S
C1302 H1297 0.930 . S
C1302 C1299 1.370 . S
C1302 C1303 1.385 . S
C1303 C1300 1.414 . S
C1303 C1302 1.385 . S
C1303 C1325 1.444 . S
O1304 Tb1260 2.546 . S
O1304 C1324 1.251 . S
O1305 Tb1260 2.610 . S
O1305 Tb1271 2.362 . S
O1305 C1316 1.283 . S
O1306 Tb1271 2.421 . S
O1306 C1323 1.262 . S
O1307 Tb1260 2.320 . S
O1307 C1323 1.260 . S
O1308 Tb1260 2.552 . S
O1308 C1316 1.243 . S
O1309 Tb1260 2.413 . S
O1309 C1324 1.256 . S
O1310 Tb1271 2.546 . S
O1310 C1335 1.251 . S
O1311 Tb1260 2.362 . S
O1311 Tb1271 2.610 . S
O1311 C1327 1.283 . S
O1312 Tb1260 2.421 . S
O1312 C1334 1.262 . S
O1313 Tb1271 2.320 . S
O1313 C1334 1.260 . S
O1314 Tb1271 2.552 . S
O1314 C1327 1.243 . S
O1315 Tb1271 2.413 . S
O1315 C1335 1.256 . S
C1316 O1305 1.283 . S
C1316 O1308 1.243 . S
C1317 C1319 1.382 . S
C1317 C1321 1.393 . S
C1317 C1324 1.500 . S
C1318 C1319 1.400 . S
C1318 C1320 1.384 . S
C1319 C1317 1.382 . S
C1319 C1318 1.400 . S
C1319 H1336 0.930 . S
C1320 C1318 1.384 . S
C1320 C1322 1.392 . S
C1320 H1337 0.931 . S
C1321 C1317 1.393 . S
C1321 C1322 1.401 . S
C1321 H1338 0.930 . S
C1322 C1320 1.392 . S
C1322 C1321 1.401 . S
C1322 H1339 0.930 . S
C1323 O1306 1.262 . S
C1323 O1307 1.260 . S
C1324 Tb1260 2.833 . S
C1324 O1304 1.251 . S
C1324 O1309 1.256 . S
C1324 C1317 1.500 . S
C1325 H1290 0.929 . S
C1325 C1303 1.444 . S
C1325 C1326 1.317 . S
C1326 H1288 0.930 . S
C1326 C1294 1.432 . S
C1326 C1325 1.317 . S
C1327 O1311 1.283 . S
C1327 O1314 1.243 . S
C1328 C1329 1.382 . S
C1328 C1332 1.393 . S
C1328 C1335 1.500 . S
C1329 C1328 1.382 . S
C1329 C1330 1.400 . S
C1329 H1340 0.930 . S
C1330 C1329 1.400 . S
C1330 C1331 1.384 . S
C1331 C1330 1.384 . S
C1331 C1333 1.392 . S
C1331 H1341 0.931 . S
C1332 C1328 1.393 . S
C1332 C1333 1.401 . S
C1332 H1342 0.930 . S
C1333 C1331 1.392 . S
C1333 C1332 1.401 . S
C1333 H1343 0.930 . S
C1334 O1312 1.262 . S
C1334 O1313 1.260 . S
C1335 Tb1271 2.833 . S
C1335 O1310 1.251 . S
C1335 O1315 1.256 . S
C1335 C1328 1.500 . S
H1336 C1319 0.930 . S
H1337 C1320 0.931 . S
H1338 C1321 0.930 . S
H1339 C1322 0.930 . S
H1340 C1329 0.930 . S
H1341 C1331 0.931 . S
H1342 C1332 0.930 . S
H1343 C1333 0.930 . S
Tb1344 N1375 2.660 . S
Tb1344 N1382 2.600 . S
Tb1344 O1388 2.546 . S
Tb1344 O1389 2.610 . S
Tb1344 O1391 2.320 . S
Tb1344 O1392 2.552 . S
Tb1344 O1393 2.413 . S
Tb1344 O1395 2.362 . S
Tb1344 O1396 2.421 . S
Tb1344 C1408 2.833 . S
C1345 C1348 1.432 . S
C1345 C1349 1.414 . S
C1345 N1352 1.359 . S
C1346 C1348 1.417 . S
C1346 C1350 1.432 . S
C1346 C1358 1.410 . S
C1347 C1349 1.444 . S
C1347 C1350 1.317 . S
C1347 H1370 0.929 . S
C1348 C1345 1.432 . S
C1348 C1346 1.417 . S
C1348 N1356 1.360 . S
C1349 C1345 1.414 . S
C1349 C1347 1.444 . S
C1349 C1354 1.385 . S
C1350 C1346 1.432 . S
C1350 C1347 1.317 . S
C1350 H1362 0.930 . S
C1351 C1353 1.392 . S
C1351 C1354 1.370 . S
C1351 H1363 0.931 . S
N1352 C1345 1.359 . S
N1352 C1353 1.327 . S
N1352 Tb1355 2.600 . S
C1353 C1351 1.392 . S
C1353 N1352 1.327 . S
C1353 H1360 0.930 . S
C1354 C1349 1.385 . S
C1354 C1351 1.370 . S
C1354 H1373 0.930 . S
Tb1355 N1352 2.600 . S
Tb1355 N1356 2.660 . S
Tb1355 O1389 2.362 . S
Tb1355 O1390 2.421 . S
Tb1355 O1394 2.546 . S
Tb1355 O1395 2.610 . S
Tb1355 O1397 2.320 . S
Tb1355 O1398 2.552 . S
Tb1355 O1399 2.413 . S
Tb1355 C1419 2.833 . S
N1356 C1348 1.360 . S
N1356 Tb1355 2.660 . S
N1356 C1357 1.305 . S
C1357 N1356 1.305 . S
C1357 C1359 1.407 . S
C1357 H1364 0.930 . S
C1358 C1346 1.410 . S
C1358 C1359 1.345 . S
C1358 H1366 0.930 . S
C1359 C1357 1.407 . S
C1359 C1358 1.345 . S
C1359 H1361 0.930 . S
H1360 C1353 0.930 . S
H1361 C1359 0.930 . S
H1362 C1350 0.930 . S
H1363 C1351 0.931 . S
H1364 C1357 0.930 . S
H1365 C1379 0.930 . S
H1366 C1358 0.930 . S
H1367 C1385 0.930 . S
H1368 C1376 0.930 . S
H1369 C1383 0.931 . S
H1370 C1347 0.929 . S
H1371 C1377 0.930 . S
H1372 C1410 0.930 . S
H1373 C1354 0.930 . S
H1374 C1409 0.929 . S
N1375 Tb1344 2.660 . S
N1375 C1376 1.305 . S
N1375 C1380 1.360 . S
C1376 H1368 0.930 . S
C1376 N1375 1.305 . S
C1376 C1379 1.407 . S
C1377 H1371 0.930 . S
C1377 C1378 1.410 . S
C1377 C1379 1.345 . S
C1378 C1377 1.410 . S
C1378 C1380 1.417 . S
C1378 C1410 1.432 . S
C1379 H1365 0.930 . S
C1379 C1376 1.407 . S
C1379 C1377 1.345 . S
C1380 N1375 1.360 . S
C1380 C1378 1.417 . S
C1380 C1384 1.432 . S
H1381 C1386 0.930 . S
N1382 Tb1344 2.600 . S
N1382 C1384 1.359 . S
N1382 C1385 1.327 . S
C1383 H1369 0.931 . S
C1383 C1385 1.392 . S
C1383 C1386 1.370 . S
C1384 C1380 1.432 . S
C1384 N1382 1.359 . S
C1384 C1387 1.414 . S
C1385 H1367 0.930 . S
C1385 N1382 1.327 . S
C1385 C1383 1.392 . S
C1386 H1381 0.930 . S
C1386 C1383 1.370 . S
C1386 C1387 1.385 . S
C1387 C1384 1.414 . S
C1387 C1386 1.385 . S
C1387 C1409 1.444 . S
O1388 Tb1344 2.546 . S
O1388 C1408 1.251 . S
O1389 Tb1344 2.610 . S
O1389 Tb1355 2.362 . S
O1389 C1400 1.283 . S
O1390 Tb1355 2.421 . S
O1390 C1407 1.262 . S
O1391 Tb1344 2.320 . S
O1391 C1407 1.260 . S
O1392 Tb1344 2.552 . S
O1392 C1400 1.243 . S
O1393 Tb1344 2.413 . S
O1393 C1408 1.256 . S
O1394 Tb1355 2.546 . S
O1394 C1419 1.251 . S
O1395 Tb1344 2.362 . S
O1395 Tb1355 2.610 . S
O1395 C1411 1.283 . S
O1396 Tb1344 2.421 . S
O1396 C1418 1.262 . S
O1397 Tb1355 2.320 . S
O1397 C1418 1.260 . S
O1398 Tb1355 2.552 . S
O1398 C1411 1.243 . S
O1399 Tb1355 2.413 . S
O1399 C1419 1.256 . S
C1400 O1389 1.283 . S
C1400 O1392 1.243 . S
C1401 C1403 1.382 . S
C1401 C1405 1.393 . S
C1401 C1408 1.500 . S
C1402 C1403 1.400 . S
C1402 C1404 1.384 . S
C1403 C1401 1.382 . S
C1403 C1402 1.400 . S
C1403 H1420 0.930 . S
C1404 C1402 1.384 . S
C1404 C1406 1.392 . S
C1404 H1421 0.931 . S
C1405 C1401 1.393 . S
C1405 C1406 1.401 . S
C1405 H1422 0.930 . S
C1406 C1404 1.392 . S
C1406 C1405 1.401 . S
C1406 H1423 0.930 . S
C1407 O1390 1.262 . S
C1407 O1391 1.260 . S
C1408 Tb1344 2.833 . S
C1408 O1388 1.251 . S
C1408 O1393 1.256 . S
C1408 C1401 1.500 . S
C1409 H1374 0.929 . S
C1409 C1387 1.444 . S
C1409 C1410 1.317 . S
C1410 H1372 0.930 . S
C1410 C1378 1.432 . S
C1410 C1409 1.317 . S
C1411 O1395 1.283 . S
C1411 O1398 1.243 . S
C1412 C1413 1.382 . S
C1412 C1416 1.393 . S
C1412 C1419 1.500 . S
C1413 C1412 1.382 . S
C1413 C1414 1.400 . S
C1413 H1424 0.930 . S
C1414 C1413 1.400 . S
C1414 C1415 1.384 . S
C1415 C1414 1.384 . S
C1415 C1417 1.392 . S
C1415 H1425 0.931 . S
C1416 C1412 1.393 . S
C1416 C1417 1.401 . S
C1416 H1426 0.930 . S
C1417 C1415 1.392 . S
C1417 C1416 1.401 . S
C1417 H1427 0.930 . S
C1418 O1396 1.262 . S
C1418 O1397 1.260 . S
C1419 Tb1355 2.833 . S
C1419 O1394 1.251 . S
C1419 O1399 1.256 . S
C1419 C1412 1.500 . S
H1420 C1403 0.930 . S
H1421 C1404 0.931 . S
H1422 C1405 0.930 . S
H1423 C1406 0.930 . S
H1424 C1413 0.930 . S
H1425 C1415 0.931 . S
H1426 C1416 0.930 . S
H1427 C1417 0.930 . S
Tb1428 N1459 2.660 . S
Tb1428 N1466 2.600 . S
Tb1428 O1472 2.546 . S
Tb1428 O1473 2.610 . S
Tb1428 O1475 2.320 . S
Tb1428 O1476 2.552 . S
Tb1428 O1477 2.413 . S
Tb1428 O1479 2.362 . S
Tb1428 O1480 2.421 . S
Tb1428 C1492 2.833 . S
C1429 C1432 1.432 . S
C1429 C1433 1.414 . S
C1429 N1436 1.359 . S
C1430 C1432 1.417 . S
C1430 C1434 1.432 . S
C1430 C1442 1.410 . S
C1431 C1433 1.444 . S
C1431 C1434 1.317 . S
C1431 H1454 0.929 . S
C1432 C1429 1.432 . S
C1432 C1430 1.417 . S
C1432 N1440 1.360 . S
C1433 C1429 1.414 . S
C1433 C1431 1.444 . S
C1433 C1438 1.385 . S
C1434 C1430 1.432 . S
C1434 C1431 1.317 . S
C1434 H1446 0.930 . S
C1435 C1437 1.392 . S
C1435 C1438 1.370 . S
C1435 H1447 0.931 . S
N1436 C1429 1.359 . S
N1436 C1437 1.327 . S
N1436 Tb1439 2.600 . S
C1437 C1435 1.392 . S
C1437 N1436 1.327 . S
C1437 H1444 0.930 . S
C1438 C1433 1.385 . S
C1438 C1435 1.370 . S
C1438 H1457 0.930 . S
Tb1439 N1436 2.600 . S
Tb1439 N1440 2.660 . S
Tb1439 O1473 2.362 . S
Tb1439 O1474 2.421 . S
Tb1439 O1478 2.546 . S
Tb1439 O1479 2.610 . S
Tb1439 O1481 2.320 . S
Tb1439 O1482 2.552 . S
Tb1439 O1483 2.413 . S
Tb1439 C1503 2.833 . S
N1440 C1432 1.360 . S
N1440 Tb1439 2.660 . S
N1440 C1441 1.305 . S
C1441 N1440 1.305 . S
C1441 C1443 1.407 . S
C1441 H1448 0.930 . S
C1442 C1430 1.410 . S
C1442 C1443 1.345 . S
C1442 H1450 0.930 . S
C1443 C1441 1.407 . S
C1443 C1442 1.345 . S
C1443 H1445 0.930 . S
H1444 C1437 0.930 . S
H1445 C1443 0.930 . S
H1446 C1434 0.930 . S
H1447 C1435 0.931 . S
H1448 C1441 0.930 . S
H1449 C1463 0.930 . S
H1450 C1442 0.930 . S
H1451 C1469 0.930 . S
H1452 C1460 0.930 . S
H1453 C1467 0.931 . S
H1454 C1431 0.929 . S
H1455 C1461 0.930 . S
H1456 C1494 0.930 . S
H1457 C1438 0.930 . S
H1458 C1493 0.929 . S
N1459 Tb1428 2.660 . S
N1459 C1460 1.305 . S
N1459 C1464 1.360 . S
C1460 H1452 0.930 . S
C1460 N1459 1.305 . S
C1460 C1463 1.407 . S
C1461 H1455 0.930 . S
C1461 C1462 1.410 . S
C1461 C1463 1.345 . S
C1462 C1461 1.410 . S
C1462 C1464 1.417 . S
C1462 C1494 1.432 . S
C1463 H1449 0.930 . S
C1463 C1460 1.407 . S
C1463 C1461 1.345 . S
C1464 N1459 1.360 . S
C1464 C1462 1.417 . S
C1464 C1468 1.432 . S
H1465 C1470 0.930 . S
N1466 Tb1428 2.600 . S
N1466 C1468 1.359 . S
N1466 C1469 1.327 . S
C1467 H1453 0.931 . S
C1467 C1469 1.392 . S
C1467 C1470 1.370 . S
C1468 C1464 1.432 . S
C1468 N1466 1.359 . S
C1468 C1471 1.414 . S
C1469 H1451 0.930 . S
C1469 N1466 1.327 . S
C1469 C1467 1.392 . S
C1470 H1465 0.930 . S
C1470 C1467 1.370 . S
C1470 C1471 1.385 . S
C1471 C1468 1.414 . S
C1471 C1470 1.385 . S
C1471 C1493 1.444 . S
O1472 Tb1428 2.546 . S
O1472 C1492 1.251 . S
O1473 Tb1428 2.610 . S
O1473 Tb1439 2.362 . S
O1473 C1484 1.283 . S
O1474 Tb1439 2.421 . S
O1474 C1491 1.262 . S
O1475 Tb1428 2.320 . S
O1475 C1491 1.260 . S
O1476 Tb1428 2.552 . S
O1476 C1484 1.243 . S
O1477 Tb1428 2.413 . S
O1477 C1492 1.256 . S
O1478 Tb1439 2.546 . S
O1478 C1503 1.251 . S
O1479 Tb1428 2.362 . S
O1479 Tb1439 2.610 . S
O1479 C1495 1.283 . S
O1480 Tb1428 2.421 . S
O1480 C1502 1.262 . S
O1481 Tb1439 2.320 . S
O1481 C1502 1.260 . S
O1482 Tb1439 2.552 . S
O1482 C1495 1.243 . S
O1483 Tb1439 2.413 . S
O1483 C1503 1.256 . S
C1484 O1473 1.283 . S
C1484 O1476 1.243 . S
C1485 C1487 1.382 . S
C1485 C1489 1.393 . S
C1485 C1492 1.500 . S
C1486 C1487 1.400 . S
C1486 C1488 1.384 . S
C1487 C1485 1.382 . S
C1487 C1486 1.400 . S
C1487 H1504 0.930 . S
C1488 C1486 1.384 . S
C1488 C1490 1.392 . S
C1488 H1505 0.931 . S
C1489 C1485 1.393 . S
C1489 C1490 1.401 . S
C1489 H1506 0.930 . S
C1490 C1488 1.392 . S
C1490 C1489 1.401 . S
C1490 H1507 0.930 . S
C1491 O1474 1.262 . S
C1491 O1475 1.260 . S
C1492 Tb1428 2.833 . S
C1492 O1472 1.251 . S
C1492 O1477 1.256 . S
C1492 C1485 1.500 . S
C1493 H1458 0.929 . S
C1493 C1471 1.444 . S
C1493 C1494 1.317 . S
C1494 H1456 0.930 . S
C1494 C1462 1.432 . S
C1494 C1493 1.317 . S
C1495 O1479 1.283 . S
C1495 O1482 1.243 . S
C1496 C1497 1.382 . S
C1496 C1500 1.393 . S
C1496 C1503 1.500 . S
C1497 C1496 1.382 . S
C1497 C1498 1.400 . S
C1497 H1508 0.930 . S
C1498 C1497 1.400 . S
C1498 C1499 1.384 . S
C1499 C1498 1.384 . S
C1499 C1501 1.392 . S
C1499 H1509 0.931 . S
C1500 C1496 1.393 . S
C1500 C1501 1.401 . S
C1500 H1510 0.930 . S
C1501 C1499 1.392 . S
C1501 C1500 1.401 . S
C1501 H1511 0.930 . S
C1502 O1480 1.262 . S
C1502 O1481 1.260 . S
C1503 Tb1439 2.833 . S
C1503 O1478 1.251 . S
C1503 O1483 1.256 . S
C1503 C1496 1.500 . S
H1504 C1487 0.930 . S
H1505 C1488 0.931 . S
H1506 C1489 0.930 . S
H1507 C1490 0.930 . S
H1508 C1497 0.930 . S
H1509 C1499 0.931 . S
H1510 C1500 0.930 . S
H1511 C1501 0.930 . S
Tb1512 N1543 2.660 . S
Tb1512 N1550 2.600 . S
Tb1512 O1556 2.546 . S
Tb1512 O1557 2.610 . S
Tb1512 O1559 2.320 . S
Tb1512 O1560 2.552 . S
Tb1512 O1561 2.413 . S
Tb1512 O1563 2.362 . S
Tb1512 O1564 2.421 . S
Tb1512 C1576 2.833 . S
C1513 C1516 1.432 . S
C1513 C1517 1.414 . S
C1513 N1520 1.359 . S
C1514 C1516 1.417 . S
C1514 C1518 1.432 . S
C1514 C1526 1.410 . S
C1515 C1517 1.444 . S
C1515 C1518 1.317 . S
C1515 H1538 0.929 . S
C1516 C1513 1.432 . S
C1516 C1514 1.417 . S
C1516 N1524 1.360 . S
C1517 C1513 1.414 . S
C1517 C1515 1.444 . S
C1517 C1522 1.385 . S
C1518 C1514 1.432 . S
C1518 C1515 1.317 . S
C1518 H1530 0.930 . S
C1519 C1521 1.392 . S
C1519 C1522 1.370 . S
C1519 H1531 0.931 . S
N1520 C1513 1.359 . S
N1520 C1521 1.327 . S
N1520 Tb1523 2.600 . S
C1521 C1519 1.392 . S
C1521 N1520 1.327 . S
C1521 H1528 0.930 . S
C1522 C1517 1.385 . S
C1522 C1519 1.370 . S
C1522 H1541 0.930 . S
Tb1523 N1520 2.600 . S
Tb1523 N1524 2.660 . S
Tb1523 O1557 2.362 . S
Tb1523 O1558 2.421 . S
Tb1523 O1562 2.546 . S
Tb1523 O1563 2.610 . S
Tb1523 O1565 2.320 . S
Tb1523 O1566 2.552 . S
Tb1523 O1567 2.413 . S
Tb1523 C1587 2.833 . S
N1524 C1516 1.360 . S
N1524 Tb1523 2.660 . S
N1524 C1525 1.305 . S
C1525 N1524 1.305 . S
C1525 C1527 1.407 . S
C1525 H1532 0.930 . S
C1526 C1514 1.410 . S
C1526 C1527 1.345 . S
C1526 H1534 0.930 . S
C1527 C1525 1.407 . S
C1527 C1526 1.345 . S
C1527 H1529 0.930 . S
H1528 C1521 0.930 . S
H1529 C1527 0.930 . S
H1530 C1518 0.930 . S
H1531 C1519 0.931 . S
H1532 C1525 0.930 . S
H1533 C1547 0.930 . S
H1534 C1526 0.930 . S
H1535 C1553 0.930 . S
H1536 C1544 0.930 . S
H1537 C1551 0.931 . S
H1538 C1515 0.929 . S
H1539 C1545 0.930 . S
H1540 C1578 0.930 . S
H1541 C1522 0.930 . S
H1542 C1577 0.929 . S
N1543 Tb1512 2.660 . S
N1543 C1544 1.305 . S
N1543 C1548 1.360 . S
C1544 H1536 0.930 . S
C1544 N1543 1.305 . S
C1544 C1547 1.407 . S
C1545 H1539 0.930 . S
C1545 C1546 1.410 . S
C1545 C1547 1.345 . S
C1546 C1545 1.410 . S
C1546 C1548 1.417 . S
C1546 C1578 1.432 . S
C1547 H1533 0.930 . S
C1547 C1544 1.407 . S
C1547 C1545 1.345 . S
C1548 N1543 1.360 . S
C1548 C1546 1.417 . S
C1548 C1552 1.432 . S
H1549 C1554 0.930 . S
N1550 Tb1512 2.600 . S
N1550 C1552 1.359 . S
N1550 C1553 1.327 . S
C1551 H1537 0.931 . S
C1551 C1553 1.392 . S
C1551 C1554 1.370 . S
C1552 C1548 1.432 . S
C1552 N1550 1.359 . S
C1552 C1555 1.414 . S
C1553 H1535 0.930 . S
C1553 N1550 1.327 . S
C1553 C1551 1.392 . S
C1554 H1549 0.930 . S
C1554 C1551 1.370 . S
C1554 C1555 1.385 . S
C1555 C1552 1.414 . S
C1555 C1554 1.385 . S
C1555 C1577 1.444 . S
O1556 Tb1512 2.546 . S
O1556 C1576 1.251 . S
O1557 Tb1512 2.610 . S
O1557 Tb1523 2.362 . S
O1557 C1568 1.283 . S
O1558 Tb1523 2.421 . S
O1558 C1575 1.262 . S
O1559 Tb1512 2.320 . S
O1559 C1575 1.260 . S
O1560 Tb1512 2.552 . S
O1560 C1568 1.243 . S
O1561 Tb1512 2.413 . S
O1561 C1576 1.256 . S
O1562 Tb1523 2.546 . S
O1562 C1587 1.251 . S
O1563 Tb1512 2.362 . S
O1563 Tb1523 2.610 . S
O1563 C1579 1.283 . S
O1564 Tb1512 2.421 . S
O1564 C1586 1.262 . S
O1565 Tb1523 2.320 . S
O1565 C1586 1.260 . S
O1566 Tb1523 2.552 . S
O1566 C1579 1.243 . S
O1567 Tb1523 2.413 . S
O1567 C1587 1.256 . S
C1568 O1557 1.283 . S
C1568 O1560 1.243 . S
C1569 C1571 1.382 . S
C1569 C1573 1.393 . S
C1569 C1576 1.500 . S
C1570 C1571 1.400 . S
C1570 C1572 1.384 . S
C1571 C1569 1.382 . S
C1571 C1570 1.400 . S
C1571 H1588 0.930 . S
C1572 C1570 1.384 . S
C1572 C1574 1.392 . S
C1572 H1589 0.931 . S
C1573 C1569 1.393 . S
C1573 C1574 1.401 . S
C1573 H1590 0.930 . S
C1574 C1572 1.392 . S
C1574 C1573 1.401 . S
C1574 H1591 0.930 . S
C1575 O1558 1.262 . S
C1575 O1559 1.260 . S
C1576 Tb1512 2.833 . S
C1576 O1556 1.251 . S
C1576 O1561 1.256 . S
C1576 C1569 1.500 . S
C1577 H1542 0.929 . S
C1577 C1555 1.444 . S
C1577 C1578 1.317 . S
C1578 H1540 0.930 . S
C1578 C1546 1.432 . S
C1578 C1577 1.317 . S
C1579 O1563 1.283 . S
C1579 O1566 1.243 . S
C1580 C1581 1.382 . S
C1580 C1584 1.393 . S
C1580 C1587 1.500 . S
C1581 C1580 1.382 . S
C1581 C1582 1.400 . S
C1581 H1592 0.930 . S
C1582 C1581 1.400 . S
C1582 C1583 1.384 . S
C1583 C1582 1.384 . S
C1583 C1585 1.392 . S
C1583 H1593 0.931 . S
C1584 C1580 1.393 . S
C1584 C1585 1.401 . S
C1584 H1594 0.930 . S
C1585 C1583 1.392 . S
C1585 C1584 1.401 . S
C1585 H1595 0.930 . S
C1586 O1564 1.262 . S
C1586 O1565 1.260 . S
C1587 Tb1523 2.833 . S
C1587 O1562 1.251 . S
C1587 O1567 1.256 . S
C1587 C1580 1.500 . S
H1588 C1571 0.930 . S
H1589 C1572 0.931 . S
H1590 C1573 0.930 . S
H1591 C1574 0.930 . S
H1592 C1581 0.930 . S
H1593 C1583 0.931 . S
H1594 C1584 0.930 . S
H1595 C1585 0.930 . S
Tb1596 N1627 2.660 . S
Tb1596 N1634 2.600 1_554 S
Tb1596 O1640 2.546 1_554 S
Tb1596 O1641 2.610 . S
Tb1596 O1643 2.320 . S
Tb1596 O1644 2.552 . S
Tb1596 O1645 2.413 . S
Tb1596 O1647 2.362 . S
Tb1596 O1648 2.421 1_554 S
Tb1596 C1660 2.833 1_554 S
C1597 C1600 1.432 . S
C1597 C1601 1.414 . S
C1597 N1604 1.359 1_655 S
C1598 C1600 1.417 . S
C1598 C1602 1.432 . S
C1598 C1610 1.392 1_554 S
C1599 C1601 1.444 . S
C1599 C1602 1.317 . S
C1599 H1622 0.929 . S
C1600 C1597 1.432 . S
C1600 C1598 1.417 . S
C1600 N1608 1.360 1_655 S
C1601 C1597 1.414 . S
C1601 C1599 1.444 . S
C1601 C1606 1.385 . S
C1602 C1598 1.432 . S
C1602 C1599 1.317 . S
C1602 H1614 0.930 . S
C1603 C1605 1.392 . S
C1603 C1606 1.370 1_455 S
C1603 H1615 0.931 . S
N1604 C1597 1.359 1_455 S
N1604 C1605 1.327 . S
N1604 Tb1607 2.600 . S
C1605 C1603 1.392 . S
C1605 N1604 1.327 . S
C1605 H1612 0.930 . S
C1606 C1601 1.385 . S
C1606 C1603 1.370 1_655 S
C1606 H1625 0.930 . S
Tb1607 N1604 2.600 . S
Tb1607 N1608 2.660 . S
Tb1607 O1641 2.362 . S
Tb1607 O1642 2.421 . S
Tb1607 O1646 2.546 . S
Tb1607 O1647 2.610 . S
Tb1607 O1649 2.319 1_554 S
Tb1607 O1650 2.552 . S
Tb1607 O1651 2.413 1_455 S
Tb1607 C1671 2.833 1_455 S
N1608 C1600 1.360 1_455 S
N1608 Tb1607 2.660 . S
N1608 C1609 1.305 1_454 S
C1609 N1608 1.305 1_656 S
C1609 C1611 1.407 . S
C1609 H1616 0.930 1_655 S
C1610 C1598 1.392 1_556 S
C1610 C1611 1.359 . S
C1610 H1618 0.935 . S
C1611 C1609 1.407 . S
C1611 C1610 1.359 . S
C1611 H1613 0.930 . S
H1612 C1605 0.930 . S
H1613 C1611 0.930 . S
H1614 C1602 0.930 . S
H1615 C1603 0.931 . S
H1616 C1609 0.930 1_455 S
H1617 C1631 0.930 . S
H1618 C1610 0.935 . S
H1619 C1637 0.930 . S
H1620 C1628 0.930 . S
H1621 C1635 0.931 . S
H1622 C1599 0.929 . S
H1623 C1629 0.930 . S
H1624 C1662 0.930 . S
H1625 C1606 0.930 . S
H1626 C1661 0.929 . S
N1627 Tb1596 2.660 . S
N1627 C1628 1.305 . S
N1627 C1632 1.360 . S
C1628 H1620 0.930 . S
C1628 N1627 1.305 . S
C1628 C1631 1.407 . S
C1629 H1623 0.930 . S
C1629 C1630 1.410 . S
C1629 C1631 1.345 . S
C1630 C1629 1.410 . S
C1630 C1632 1.417 . S
C1630 C1662 1.432 . S
C1631 H1617 0.930 . S
C1631 C1628 1.407 . S
C1631 C1629 1.345 . S
C1632 N1627 1.360 . S
C1632 C1630 1.417 . S
C1632 C1636 1.432 1_554 S
H1633 C1638 0.930 . S
N1634 Tb1596 2.600 1_556 S
N1634 C1636 1.359 . S
N1634 C1637 1.327 . S
C1635 H1621 0.931 . S
C1635 C1637 1.392 . S
C1635 C1638 1.370 . S
C1636 C1632 1.432 1_556 S
C1636 N1634 1.359 . S
C1636 C1639 1.414 . S
C1637 H1619 0.930 . S
C1637 N1634 1.327 . S
C1637 C1635 1.392 . S
C1638 H1633 0.930 . S
C1638 C1635 1.370 . S
C1638 C1639 1.385 . S
C1639 C1636 1.414 . S
C1639 C1638 1.385 . S
C1639 C1661 1.444 . S
O1640 Tb1596 2.546 1_556 S
O1640 C1660 1.251 . S
O1641 Tb1596 2.610 . S
O1641 Tb1607 2.362 . S
O1641 C1652 1.283 . S
O1642 Tb1607 2.421 . S
O1642 C1659 1.262 . S
O1643 Tb1596 2.320 . S
O1643 C1659 1.260 . S
O1644 Tb1596 2.552 . S
O1644 C1652 1.243 . S
O1645 Tb1596 2.413 . S
O1645 C1660 1.256 1_554 S
O1646 Tb1607 2.546 . S
O1646 C1671 1.251 1_455 S
O1647 Tb1596 2.362 . S
O1647 Tb1607 2.610 . S
O1647 C1663 1.283 . S
O1648 Tb1596 2.421 1_556 S
O1648 C1670 1.262 . S
O1649 Tb1607 2.319 1_556 S
O1649 C1670 1.261 . S
O1650 Tb1607 2.552 . S
O1650 C1663 1.243 . S
O1651 Tb1607 2.413 1_655 S
O1651 C1671 1.256 . S
C1652 O1641 1.283 . S
C1652 O1644 1.243 . S
C1653 C1655 1.382 1_556 S
C1653 C1657 1.393 . S
C1653 C1660 1.500 . S
C1654 C1655 1.400 . S
C1654 C1656 1.384 1_554 S
C1655 C1653 1.382 1_554 S
C1655 C1654 1.400 . S
C1655 H1672 0.930 . S
C1656 C1654 1.384 1_556 S
C1656 C1658 1.392 . S
C1656 H1673 0.931 . S
C1657 C1653 1.393 . S
C1657 C1658 1.401 . S
C1657 H1674 0.930 . S
C1658 C1656 1.392 . S
C1658 C1657 1.401 . S
C1658 H1675 0.930 . S
C1659 O1642 1.262 . S
C1659 O1643 1.260 . S
C1660 Tb1596 2.833 1_556 S
C1660 O1640 1.251 . S
C1660 O1645 1.256 1_556 S
C1660 C1653 1.500 . S
C1661 H1626 0.929 . S
C1661 C1639 1.444 . S
C1661 C1662 1.317 1_556 S
C1662 H1624 0.930 . S
C1662 C1630 1.432 . S
C1662 C1661 1.317 1_554 S
C1663 O1647 1.283 . S
C1663 O1650 1.243 . S
C1664 C1665 1.382 . S
C1664 C1668 1.393 . S
C1664 C1671 1.500 . S
C1665 C1664 1.382 . S
C1665 C1666 1.400 . S
C1665 H1676 0.930 . S
C1666 C1665 1.400 . S
C1666 C1667 1.384 . S
C1667 C1666 1.384 . S
C1667 C1669 1.392 . S
C1667 H1677 0.931 . S
C1668 C1664 1.393 . S
C1668 C1669 1.401 . S
C1668 H1678 0.930 . S
C1669 C1667 1.392 . S
C1669 C1668 1.401 . S
C1669 H1679 0.930 . S
C1670 O1648 1.262 . S
C1670 O1649 1.261 . S
C1671 Tb1607 2.833 1_655 S
C1671 O1646 1.251 1_655 S
C1671 O1651 1.256 . S
C1671 C1664 1.500 . S
H1672 C1655 0.930 . S
H1673 C1656 0.931 . S
H1674 C1657 0.930 . S
H1675 C1658 0.930 . S
H1676 C1665 0.930 . S
H1677 C1667 0.931 . S
H1678 C1668 0.930 . S
H1679 C1669 0.930 . S
H1680 C1688 0.929 1_655 S
H1681 C1690 0.930 1_655 S
H1682 C1692 0.930 . S
H1683 C1695 0.929 . S
H1684 C1698 0.930 . S
H1685 C1700 0.960 . S
H1686 C1700 0.960 . S
H1687 C1700 0.960 . S
C1688 H1680 0.929 1_455 S
C1688 C1689 1.377 . S
C1688 C1690 1.384 . S
C1689 C1688 1.377 . S
C1689 C1695 1.390 . S
C1690 H1681 0.930 1_455 S
C1690 C1688 1.384 . S
C1690 C1691 1.372 . S
C1691 C1690 1.372 . S
C1691 C1692 1.400 . S
C1691 C1696 1.490 . S
C1692 H1682 0.930 . S
C1692 C1691 1.400 . S
C1692 C1695 1.386 . S
H1693 C1709 0.930 . S
H1694 C1710 0.931 . S
C1695 H1683 0.929 . S
C1695 C1689 1.390 . S
C1695 C1692 1.386 . S
C1696 C1691 1.490 . S
C1696 C1698 1.395 . S
C1696 C1699 1.403 . S
H1697 C1703 0.930 . S
C1698 H1684 0.930 . S
C1698 C1696 1.395 . S
C1698 C1701 1.403 . S
C1699 C1696 1.403 . S
C1699 C1700 1.524 1_556 S
C1699 C1703 1.400 1_556 S
C1700 H1685 0.960 . S
C1700 H1686 0.960 . S
C1700 H1687 0.960 . S
C1700 C1699 1.524 1_554 S
C1701 C1698 1.403 . S
C1701 C1702 1.392 . S
C1701 C1705 1.495 . S
C1702 C1701 1.392 . S
C1702 C1703 1.385 1_556 S
C1702 C1704 1.478 . S
C1703 H1697 0.930 . S
C1703 C1699 1.400 1_554 S
C1703 C1702 1.385 1_554 S
C1704 C1702 1.478 . S
C1704 C1706 1.381 . S
C1704 C1710 1.383 1_556 S
C1705 C1701 1.495 . S
C1705 H1711 0.959 . S
C1705 H1712 0.961 . S
C1705 H1713 0.960 . S
C1706 C1704 1.381 . S
C1706 C1707 1.394 1_556 S
C1706 H1714 0.930 . S
C1707 C1706 1.394 1_554 S
C1707 C1708 1.383 . S
C1707 H1715 0.929 . S
C1708 C1707 1.383 . S
C1708 C1709 1.377 . S
C1709 H1693 0.930 . S
C1709 C1708 1.377 . S
C1709 C1710 1.379 . S
C1710 H1694 0.931 . S
C1710 C1704 1.383 1_554 S
C1710 C1709 1.379 . S
H1711 C1705 0.959 . S
H1712 C1705 0.961 . S
H1713 C1705 0.960 . S
H1714 C1706 0.930 . S
H1715 C1707 0.929 . S
H1716 C1724 0.929 . S
H1717 C1726 0.930 . S
H1718 C1728 0.930 . S
H1719 C1731 0.929 . S
H1720 C1734 0.930 . S
H1721 C1736 0.960 . S
H1722 C1736 0.960 . S
H1723 C1736 0.960 . S
C1724 H1716 0.929 . S
C1724 C1725 1.377 . S
C1724 C1726 1.384 . S
C1725 C1724 1.377 . S
C1725 C1731 1.390 . S
C1726 H1717 0.930 . S
C1726 C1724 1.384 . S
C1726 C1727 1.372 . S
C1727 C1726 1.372 . S
C1727 C1728 1.400 . S
C1727 C1732 1.490 . S
C1728 H1718 0.930 . S
C1728 C1727 1.400 . S
C1728 C1731 1.386 . S
H1729 C1745 0.930 . S
H1730 C1746 0.931 . S
C1731 H1719 0.929 . S
C1731 C1725 1.390 . S
C1731 C1728 1.386 . S
C1732 C1727 1.490 . S
C1732 C1734 1.395 . S
C1732 C1735 1.403 . S
H1733 C1739 0.930 . S
C1734 H1720 0.930 . S
C1734 C1732 1.395 . S
C1734 C1737 1.403 . S
C1735 C1732 1.403 . S
C1735 C1736 1.524 . S
C1735 C1739 1.400 . S
C1736 H1721 0.960 . S
C1736 H1722 0.960 . S
C1736 H1723 0.960 . S
C1736 C1735 1.524 . S
C1737 C1734 1.403 . S
C1737 C1738 1.392 . S
C1737 C1741 1.495 . S
C1738 C1737 1.392 . S
C1738 C1739 1.385 . S
C1738 C1740 1.478 . S
C1739 H1733 0.930 . S
C1739 C1735 1.400 . S
C1739 C1738 1.385 . S
C1740 C1738 1.478 . S
C1740 C1742 1.381 . S
C1740 C1746 1.383 . S
C1741 C1737 1.495 . S
C1741 H1747 0.959 . S
C1741 H1748 0.961 . S
C1741 H1749 0.960 . S
C1742 C1740 1.381 . S
C1742 C1743 1.394 . S
C1742 H1750 0.930 . S
C1743 C1742 1.394 . S
C1743 C1744 1.383 . S
C1743 H1751 0.929 . S
C1744 C1743 1.383 . S
C1744 C1745 1.377 . S
C1745 H1729 0.930 . S
C1745 C1744 1.377 . S
C1745 C1746 1.379 . S
C1746 H1730 0.931 . S
C1746 C1740 1.383 . S
C1746 C1745 1.379 . S
H1747 C1741 0.959 . S
H1748 C1741 0.961 . S
H1749 C1741 0.960 . S
H1750 C1742 0.930 . S
H1751 C1743 0.929 . S
H1752 C1760 0.929 . S
H1753 C1762 0.930 . S
H1754 C1764 0.930 . S
H1755 C1767 0.929 . S
H1756 C1770 0.930 . S
H1757 C1772 0.960 . S
H1758 C1772 0.960 . S
H1759 C1772 0.960 . S
C1760 H1752 0.929 . S
C1760 C1761 1.377 . S
C1760 C1762 1.384 . S
C1761 C1760 1.377 . S
C1761 C1767 1.390 . S
C1762 H1753 0.930 . S
C1762 C1760 1.384 . S
C1762 C1763 1.372 . S
C1763 C1762 1.372 . S
C1763 C1764 1.400 . S
C1763 C1768 1.490 . S
C1764 H1754 0.930 . S
C1764 C1763 1.400 . S
C1764 C1767 1.386 . S
H1765 C1781 0.930 . S
H1766 C1782 0.931 . S
C1767 H1755 0.929 . S
C1767 C1761 1.390 . S
C1767 C1764 1.386 . S
C1768 C1763 1.490 . S
C1768 C1770 1.395 . S
C1768 C1771 1.403 . S
H1769 C1775 0.930 . S
C1770 H1756 0.930 . S
C1770 C1768 1.395 . S
C1770 C1773 1.403 . S
C1771 C1768 1.403 . S
C1771 C1772 1.524 . S
C1771 C1775 1.400 . S
C1772 H1757 0.960 . S
C1772 H1758 0.960 . S
C1772 H1759 0.960 . S
C1772 C1771 1.524 . S
C1773 C1770 1.403 . S
C1773 C1774 1.392 . S
C1773 C1777 1.495 . S
C1774 C1773 1.392 . S
C1774 C1775 1.385 . S
C1774 C1776 1.478 . S
C1775 H1769 0.930 . S
C1775 C1771 1.400 . S
C1775 C1774 1.385 . S
C1776 C1774 1.478 . S
C1776 C1778 1.381 . S
C1776 C1782 1.383 . S
C1777 C1773 1.495 . S
C1777 H1783 0.959 . S
C1777 H1784 0.961 . S
C1777 H1785 0.960 . S
C1778 C1776 1.381 . S
C1778 C1779 1.394 . S
C1778 H1786 0.930 . S
C1779 C1778 1.394 . S
C1779 C1780 1.383 . S
C1779 H1787 0.929 . S
C1780 C1779 1.383 . S
C1780 C1781 1.377 . S
C1781 H1765 0.930 . S
C1781 C1780 1.377 . S
C1781 C1782 1.379 . S
C1782 H1766 0.931 . S
C1782 C1776 1.383 . S
C1782 C1781 1.379 . S
H1783 C1777 0.959 . S
H1784 C1777 0.961 . S
H1785 C1777 0.960 . S
H1786 C1778 0.930 . S
H1787 C1779 0.929 . S
H1788 C1796 0.929 . S
H1789 C1798 0.930 . S
H1790 C1800 0.930 . S
H1791 C1803 0.929 . S
H1792 C1806 0.930 . S
H1793 C1808 0.960 . S
H1794 C1808 0.960 . S
H1795 C1808 0.960 . S
C1796 H1788 0.929 . S
C1796 C1797 1.377 . S
C1796 C1798 1.384 . S
C1797 C1796 1.377 . S
C1797 C1803 1.390 . S
C1798 H1789 0.930 . S
C1798 C1796 1.384 . S
C1798 C1799 1.372 . S
C1799 C1798 1.372 . S
C1799 C1800 1.400 . S
C1799 C1804 1.490 . S
C1800 H1790 0.930 . S
C1800 C1799 1.400 . S
C1800 C1803 1.386 . S
H1801 C1817 0.930 . S
H1802 C1818 0.931 . S
C1803 H1791 0.929 . S
C1803 C1797 1.390 . S
C1803 C1800 1.386 . S
C1804 C1799 1.490 . S
C1804 C1806 1.395 . S
C1804 C1807 1.403 . S
H1805 C1811 0.930 . S
C1806 H1792 0.930 . S
C1806 C1804 1.395 . S
C1806 C1809 1.403 . S
C1807 C1804 1.403 . S
C1807 C1808 1.524 . S
C1807 C1811 1.400 . S
C1808 H1793 0.960 . S
C1808 H1794 0.960 . S
C1808 H1795 0.960 . S
C1808 C1807 1.524 . S
C1809 C1806 1.403 . S
C1809 C1810 1.392 . S
C1809 C1813 1.495 . S
C1810 C1809 1.392 . S
C1810 C1811 1.385 . S
C1810 C1812 1.478 . S
C1811 H1805 0.930 . S
C1811 C1807 1.400 . S
C1811 C1810 1.385 . S
C1812 C1810 1.478 . S
C1812 C1814 1.381 . S
C1812 C1818 1.383 . S
C1813 C1809 1.495 . S
C1813 H1819 0.959 . S
C1813 H1820 0.961 . S
C1813 H1821 0.960 . S
C1814 C1812 1.381 . S
C1814 C1815 1.394 . S
C1814 H1822 0.930 . S
C1815 C1814 1.394 . S
C1815 C1816 1.383 . S
C1815 H1823 0.929 . S
C1816 C1815 1.383 . S
C1816 C1817 1.377 . S
C1817 H1801 0.930 . S
C1817 C1816 1.377 . S
C1817 C1818 1.379 . S
C1818 H1802 0.931 . S
C1818 C1812 1.383 . S
C1818 C1817 1.379 . S
H1819 C1813 0.959 . S
H1820 C1813 0.961 . S
H1821 C1813 0.960 . S
H1822 C1814 0.930 . S
H1823 C1815 0.929 . S
H1824 C1832 0.929 1_655 S
H1825 C1834 0.930 . S
H1826 C1836 0.930 . S
H1827 C1839 0.929 . S
H1828 C1842 0.930 1_655 S
H1829 C1844 0.960 . S
H1830 C1844 0.960 . S
H1831 C1844 0.960 . S
C1832 H1824 0.929 1_455 S
C1832 C1833 1.377 . S
C1832 C1834 1.384 . S
C1833 C1832 1.377 . S
C1833 C1839 1.390 . S
C1834 H1825 0.930 . S
C1834 C1832 1.384 . S
C1834 C1835 1.372 . S
C1835 C1834 1.372 . S
C1835 C1836 1.400 . S
C1835 C1840 1.490 . S
C1836 H1826 0.930 . S
C1836 C1835 1.400 . S
C1836 C1839 1.386 . S
H1837 C1853 0.930 . S
H1838 C1854 0.931 . S
C1839 H1827 0.929 . S
C1839 C1833 1.390 . S
C1839 C1836 1.386 . S
C1840 C1835 1.490 . S
C1840 C1842 1.395 . S
C1840 C1843 1.403 . S
H1841 C1847 0.930 . S
C1842 H1828 0.930 1_455 S
C1842 C1840 1.395 . S
C1842 C1845 1.403 . S
C1843 C1840 1.403 . S
C1843 C1844 1.524 . S
C1843 C1847 1.400 . S
C1844 H1829 0.960 . S
C1844 H1830 0.960 . S
C1844 H1831 0.960 . S
C1844 C1843 1.524 . S
C1845 C1842 1.403 . S
C1845 C1846 1.392 . S
C1845 C1849 1.495 1_455 S
C1846 C1845 1.392 . S
C1846 C1847 1.385 . S
C1846 C1848 1.478 . S
C1847 H1841 0.930 . S
C1847 C1843 1.400 . S
C1847 C1846 1.385 . S
C1848 C1846 1.478 . S
C1848 C1850 1.381 . S
C1848 C1854 1.383 . S
C1849 C1845 1.495 1_655 S
C1849 H1855 0.959 . S
C1849 H1856 0.961 . S
C1849 H1857 0.960 . S
C1850 C1848 1.381 . S
C1850 C1851 1.394 . S
C1850 H1858 0.930 . S
C1851 C1850 1.394 . S
C1851 C1852 1.383 . S
C1851 H1859 0.929 . S
C1852 C1851 1.383 . S
C1852 C1853 1.377 . S
C1853 H1837 0.930 . S
C1853 C1852 1.377 . S
C1853 C1854 1.379 . S
C1854 H1838 0.931 . S
C1854 C1848 1.383 . S
C1854 C1853 1.379 . S
H1855 C1849 0.959 . S
H1856 C1849 0.961 . S
H1857 C1849 0.960 . S
H1858 C1850 0.930 . S
H1859 C1851 0.929 . S
H1860 C1868 0.929 . S
H1861 C1870 0.930 . S
H1862 C1872 0.930 . S
H1863 C1875 0.929 . S
H1864 C1878 0.930 . S
H1865 C1880 0.960 . S
H1866 C1880 0.960 . S
H1867 C1880 0.960 . S
C1868 H1860 0.929 . S
C1868 C1869 1.377 . S
C1868 C1870 1.384 . S
C1869 C1868 1.377 . S
C1869 C1875 1.390 . S
C1870 H1861 0.930 . S
C1870 C1868 1.384 . S
C1870 C1871 1.372 . S
C1871 C1870 1.372 . S
C1871 C1872 1.400 . S
C1871 C1876 1.490 . S
C1872 H1862 0.930 . S
C1872 C1871 1.400 . S
C1872 C1875 1.386 . S
H1873 C1889 0.930 . S
H1874 C1890 0.931 . S
C1875 H1863 0.929 . S
C1875 C1869 1.390 . S
C1875 C1872 1.386 . S
C1876 C1871 1.490 . S
C1876 C1878 1.395 . S
C1876 C1879 1.403 . S
H1877 C1883 0.930 . S
C1878 H1864 0.930 . S
C1878 C1876 1.395 . S
C1878 C1881 1.403 . S
C1879 C1876 1.403 . S
C1879 C1880 1.524 . S
C1879 C1883 1.400 . S
C1880 H1865 0.960 . S
C1880 H1866 0.960 . S
C1880 H1867 0.960 . S
C1880 C1879 1.524 . S
C1881 C1878 1.403 . S
C1881 C1882 1.392 . S
C1881 C1885 1.495 . S
C1882 C1881 1.392 . S
C1882 C1883 1.385 . S
C1882 C1884 1.478 . S
C1883 H1877 0.930 . S
C1883 C1879 1.400 . S
C1883 C1882 1.385 . S
C1884 C1882 1.478 . S
C1884 C1886 1.381 . S
C1884 C1890 1.383 . S
C1885 C1881 1.495 . S
C1885 H1891 0.959 . S
C1885 H1892 0.961 . S
C1885 H1893 0.960 . S
C1886 C1884 1.381 . S
C1886 C1887 1.394 . S
C1886 H1894 0.930 . S
C1887 C1886 1.394 . S
C1887 C1888 1.383 . S
C1887 H1895 0.929 . S
C1888 C1887 1.383 . S
C1888 C1889 1.377 . S
C1889 H1873 0.930 . S
C1889 C1888 1.377 . S
C1889 C1890 1.379 . S
C1890 H1874 0.931 . S
C1890 C1884 1.383 . S
C1890 C1889 1.379 . S
H1891 C1885 0.959 . S
H1892 C1885 0.961 . S
H1893 C1885 0.960 . S
H1894 C1886 0.930 . S
H1895 C1887 0.929 . S
H1896 C1904 0.929 . S
H1897 C1906 0.930 . S
H1898 C1908 0.930 . S
H1899 C1911 0.929 . S
H1900 C1914 0.930 . S
H1901 C1916 0.960 . S
H1902 C1916 0.960 . S
H1903 C1916 0.960 . S
C1904 H1896 0.929 . S
C1904 C1905 1.377 . S
C1904 C1906 1.384 . S
C1905 C1904 1.377 . S
C1905 C1911 1.390 . S
C1906 H1897 0.930 . S
C1906 C1904 1.384 . S
C1906 C1907 1.372 . S
C1907 C1906 1.372 . S
C1907 C1908 1.400 . S
C1907 C1912 1.490 . S
C1908 H1898 0.930 . S
C1908 C1907 1.400 . S
C1908 C1911 1.386 . S
H1909 C1925 0.930 . S
H1910 C1926 0.931 . S
C1911 H1899 0.929 . S
C1911 C1905 1.390 . S
C1911 C1908 1.386 . S
C1912 C1907 1.490 . S
C1912 C1914 1.395 . S
C1912 C1915 1.403 . S
H1913 C1919 0.930 . S
C1914 H1900 0.930 . S
C1914 C1912 1.395 . S
C1914 C1917 1.403 . S
C1915 C1912 1.403 . S
C1915 C1916 1.524 . S
C1915 C1919 1.400 . S
C1916 H1901 0.960 . S
C1916 H1902 0.960 . S
C1916 H1903 0.960 . S
C1916 C1915 1.524 . S
C1917 C1914 1.403 . S
C1917 C1918 1.392 . S
C1917 C1921 1.495 . S
C1918 C1917 1.392 . S
C1918 C1919 1.385 . S
C1918 C1920 1.478 . S
C1919 H1913 0.930 . S
C1919 C1915 1.400 . S
C1919 C1918 1.385 . S
C1920 C1918 1.478 . S
C1920 C1922 1.381 . S
C1920 C1926 1.383 . S
C1921 C1917 1.495 . S
C1921 H1927 0.959 . S
C1921 H1928 0.961 . S
C1921 H1929 0.960 . S
C1922 C1920 1.381 . S
C1922 C1923 1.394 . S
C1922 H1930 0.930 . S
C1923 C1922 1.394 . S
C1923 C1924 1.383 . S
C1923 H1931 0.929 . S
C1924 C1923 1.383 . S
C1924 C1925 1.377 . S
C1925 H1909 0.930 . S
C1925 C1924 1.377 . S
C1925 C1926 1.379 . S
C1926 H1910 0.931 . S
C1926 C1920 1.383 . S
C1926 C1925 1.379 . S
H1927 C1921 0.959 . S
H1928 C1921 0.961 . S
H1929 C1921 0.960 . S
H1930 C1922 0.930 . S
H1931 C1923 0.929 . S
H1932 C1940 0.929 . S
H1933 C1942 0.930 . S
H1934 C1944 0.930 . S
H1935 C1947 0.929 . S
H1936 C1950 0.930 . S
H1937 C1952 0.960 . S
H1938 C1952 0.960 . S
H1939 C1952 0.960 . S
C1940 H1932 0.929 . S
C1940 C1941 1.377 . S
C1940 C1942 1.384 . S
C1941 C1940 1.377 . S
C1941 C1947 1.390 . S
C1942 H1933 0.930 . S
C1942 C1940 1.384 . S
C1942 C1943 1.372 . S
C1943 C1942 1.372 . S
C1943 C1944 1.400 . S
C1943 C1948 1.490 . S
C1944 H1934 0.930 . S
C1944 C1943 1.400 . S
C1944 C1947 1.386 . S
H1945 C1961 0.930 . S
H1946 C1962 0.931 . S
C1947 H1935 0.929 . S
C1947 C1941 1.390 . S
C1947 C1944 1.386 . S
C1948 C1943 1.490 . S
C1948 C1950 1.395 . S
C1948 C1951 1.403 . S
H1949 C1955 0.930 . S
C1950 H1936 0.930 . S
C1950 C1948 1.395 . S
C1950 C1953 1.403 . S
C1951 C1948 1.403 . S
C1951 C1952 1.524 . S
C1951 C1955 1.400 . S
C1952 H1937 0.960 . S
C1952 H1938 0.960 . S
C1952 H1939 0.960 . S
C1952 C1951 1.524 . S
C1953 C1950 1.403 . S
C1953 C1954 1.392 . S
C1953 C1957 1.495 . S
C1954 C1953 1.392 . S
C1954 C1955 1.385 . S
C1954 C1956 1.478 . S
C1955 H1949 0.930 . S
C1955 C1951 1.400 . S
C1955 C1954 1.385 . S
C1956 C1954 1.478 . S
C1956 C1958 1.381 . S
C1956 C1962 1.383 . S
C1957 C1953 1.495 . S
C1957 H1963 0.959 . S
C1957 H1964 0.961 . S
C1957 H1965 0.960 . S
C1958 C1956 1.381 . S
C1958 C1959 1.394 . S
C1958 H1966 0.930 . S
C1959 C1958 1.394 . S
C1959 C1960 1.383 . S
C1959 H1967 0.929 . S
C1960 C1959 1.383 . S
C1960 C1961 1.377 . S
C1961 H1945 0.930 . S
C1961 C1960 1.377 . S
C1961 C1962 1.379 . S
C1962 H1946 0.931 . S
C1962 C1956 1.383 . S
C1962 C1961 1.379 . S
H1963 C1957 0.959 . S
H1964 C1957 0.961 . S
H1965 C1957 0.960 . S
H1966 C1958 0.930 . S
H1967 C1959 0.929 . S
H1968 C1976 0.929 . S
H1969 C1978 0.930 . S
H1970 C1980 0.930 . S
H1971 C1983 0.929 . S
H1972 C1986 0.930 . S
H1973 C1988 0.960 . S
H1974 C1988 0.960 . S
H1975 C1988 0.960 . S
C1976 H1968 0.929 . S
C1976 C1977 1.377 . S
C1976 C1978 1.384 . S
C1977 C1976 1.377 . S
C1977 C1983 1.390 . S
C1978 H1969 0.930 . S
C1978 C1976 1.384 . S
C1978 C1979 1.372 . S
C1979 C1978 1.372 . S
C1979 C1980 1.400 . S
C1979 C1984 1.490 . S
C1980 H1970 0.930 . S
C1980 C1979 1.400 . S
C1980 C1983 1.386 . S
H1981 C1997 0.930 . S
H1982 C1998 0.931 . S
C1983 H1971 0.929 . S
C1983 C1977 1.390 . S
C1983 C1980 1.386 . S
C1984 C1979 1.490 . S
C1984 C1986 1.395 . S
C1984 C1987 1.403 1_655 S
H1985 C1991 0.930 . S
C1986 H1972 0.930 . S
C1986 C1984 1.395 . S
C1986 C1989 1.403 . S
C1987 C1984 1.403 1_455 S
C1987 C1988 1.524 . S
C1987 C1991 1.400 . S
C1988 H1973 0.960 . S
C1988 H1974 0.960 . S
C1988 H1975 0.960 . S
C1988 C1987 1.524 . S
C1989 C1986 1.403 . S
C1989 C1990 1.392 . S
C1989 C1993 1.495 . S
C1990 C1989 1.392 . S
C1990 C1991 1.385 1_655 S
C1990 C1992 1.478 1_655 S
C1991 H1985 0.930 . S
C1991 C1987 1.400 . S
C1991 C1990 1.385 1_455 S
C1992 C1990 1.478 1_455 S
C1992 C1994 1.381 . S
C1992 C1998 1.383 . S
C1993 C1989 1.495 . S
C1993 H1999 0.959 . S
C1993 H2000 0.961 . S
C1993 H2001 0.960 . S
C1994 C1992 1.381 . S
C1994 C1995 1.394 . S
C1994 H2002 0.930 1_455 S
C1995 C1994 1.394 . S
C1995 C1996 1.383 . S
C1995 H2003 0.929 . S
C1996 C1995 1.383 . S
C1996 C1997 1.377 . S
C1997 H1981 0.930 . S
C1997 C1996 1.377 . S
C1997 C1998 1.379 . S
C1998 H1982 0.931 . S
C1998 C1992 1.383 . S
C1998 C1997 1.379 . S
H1999 C1993 0.959 . S
H2000 C1993 0.961 . S
H2001 C1993 0.960 . S
H2002 C1994 0.930 1_655 S
H2003 C1995 0.929 . S
H2004 C2012 0.929 . S
H2005 C2014 0.930 . S
H2006 C2016 0.930 . S
H2007 C2019 0.929 . S
H2008 C2022 0.930 . S
H2009 C2024 0.960 . S
H2010 C2024 0.960 . S
H2011 C2024 0.960 . S
C2012 H2004 0.929 . S
C2012 C2013 1.377 . S
C2012 C2014 1.384 . S
C2013 C2012 1.377 . S
C2013 C2019 1.390 . S
C2014 H2005 0.930 . S
C2014 C2012 1.384 . S
C2014 C2015 1.372 . S
C2015 C2014 1.372 . S
C2015 C2016 1.400 . S
C2015 C2020 1.490 . S
C2016 H2006 0.930 . S
C2016 C2015 1.400 . S
C2016 C2019 1.386 . S
H2017 C2033 0.930 . S
H2018 C2034 0.931 . S
C2019 H2007 0.929 . S
C2019 C2013 1.390 . S
C2019 C2016 1.386 . S
C2020 C2015 1.490 . S
C2020 C2022 1.395 . S
C2020 C2023 1.403 . S
H2021 C2027 0.930 . S
C2022 H2008 0.930 . S
C2022 C2020 1.395 . S
C2022 C2025 1.403 . S
C2023 C2020 1.403 . S
C2023 C2024 1.524 . S
C2023 C2027 1.400 . S
C2024 H2009 0.960 . S
C2024 H2010 0.960 . S
C2024 H2011 0.960 . S
C2024 C2023 1.524 . S
C2025 C2022 1.403 . S
C2025 C2026 1.392 . S
C2025 C2029 1.495 . S
C2026 C2025 1.392 . S
C2026 C2027 1.385 . S
C2026 C2028 1.478 . S
C2027 H2021 0.930 . S
C2027 C2023 1.400 . S
C2027 C2026 1.385 . S
C2028 C2026 1.478 . S
C2028 C2030 1.381 . S
C2028 C2034 1.383 . S
C2029 C2025 1.495 . S
C2029 H2035 0.959 . S
C2029 H2036 0.961 . S
C2029 H2037 0.960 . S
C2030 C2028 1.381 . S
C2030 C2031 1.394 . S
C2030 H2038 0.930 . S
C2031 C2030 1.394 . S
C2031 C2032 1.383 . S
C2031 H2039 0.929 . S
C2032 C2031 1.383 . S
C2032 C2033 1.377 . S
C2033 H2017 0.930 . S
C2033 C2032 1.377 . S
C2033 C2034 1.379 . S
C2034 H2018 0.931 . S
C2034 C2028 1.383 . S
C2034 C2033 1.379 . S
H2035 C2029 0.959 . S
H2036 C2029 0.961 . S
H2037 C2029 0.960 . S
H2038 C2030 0.930 . S
H2039 C2031 0.929 . S
H2040 C2048 0.929 . S
H2041 C2050 0.930 . S
H2042 C2052 0.930 . S
H2043 C2055 0.929 . S
H2044 C2058 0.930 . S
H2045 C2060 0.985 . S
H2046 C2060 0.956 1_545 S
H2047 C2060 0.989 . S
C2048 H2040 0.929 . S
C2048 C2049 1.377 . S
C2048 C2050 1.384 . S
C2049 C2048 1.377 . S
C2049 C2055 1.390 . S
C2050 H2041 0.930 . S
C2050 C2048 1.384 . S
C2050 C2051 1.372 . S
C2051 C2050 1.372 . S
C2051 C2052 1.400 . S
C2051 C2056 1.490 . S
C2052 H2042 0.930 . S
C2052 C2051 1.400 . S
C2052 C2055 1.386 . S
H2053 C2069 0.930 . S
H2054 C2070 0.931 . S
C2055 H2043 0.929 . S
C2055 C2049 1.390 . S
C2055 C2052 1.386 . S
C2056 C2051 1.490 . S
C2056 C2058 1.395 . S
C2056 C2059 1.403 . S
H2057 C2063 0.930 . S
C2058 H2044 0.930 . S
C2058 C2056 1.395 . S
C2058 C2061 1.403 . S
C2059 C2056 1.403 . S
C2059 C2060 1.477 1_545 S
C2059 C2063 1.400 . S
C2060 H2045 0.985 . S
C2060 H2046 0.956 1_565 S
C2060 H2047 0.989 . S
C2060 C2059 1.477 1_565 S
C2061 C2058 1.403 . S
C2061 C2062 1.392 . S
C2061 C2065 1.495 . S
C2062 C2061 1.392 . S
C2062 C2063 1.385 . S
C2062 C2064 1.478 . S
C2063 H2057 0.930 . S
C2063 C2059 1.400 . S
C2063 C2062 1.385 . S
C2064 C2062 1.478 . S
C2064 C2066 1.381 . S
C2064 C2070 1.383 . S
C2065 C2061 1.495 . S
C2065 H2071 0.959 . S
C2065 H2072 0.961 . S
C2065 H2073 0.960 . S
C2066 C2064 1.381 . S
C2066 C2067 1.394 . S
C2066 H2074 0.930 . S
C2067 C2066 1.394 . S
C2067 C2068 1.383 . S
C2067 H2075 0.929 . S
C2068 C2067 1.383 . S
C2068 C2069 1.377 . S
C2069 H2053 0.930 . S
C2069 C2068 1.377 . S
C2069 C2070 1.379 . S
C2070 H2054 0.931 . S
C2070 C2064 1.383 . S
C2070 C2069 1.379 . S
H2071 C2065 0.959 . S
H2072 C2065 0.961 . S
H2073 C2065 0.960 . S
H2074 C2066 0.930 . S
H2075 C2067 0.929 . S
H2076 C2084 0.929 . S
H2077 C2086 0.930 . S
H2078 C2088 0.930 . S
H2079 C2091 0.929 . S
H2080 C2094 0.930 . S
H2081 C2096 0.960 . S
H2082 C2096 0.960 . S
H2083 C2096 0.960 . S
C2084 H2076 0.929 . S
C2084 C2085 1.377 . S
C2084 C2086 1.384 . S
C2085 C2084 1.377 . S
C2085 C2091 1.390 . S
C2086 H2077 0.930 . S
C2086 C2084 1.384 . S
C2086 C2087 1.372 . S
C2087 C2086 1.372 . S
C2087 C2088 1.400 . S
C2087 C2092 1.490 . S
C2088 H2078 0.930 . S
C2088 C2087 1.400 . S
C2088 C2091 1.386 . S
H2089 C2105 0.930 . S
H2090 C2106 0.931 . S
C2091 H2079 0.929 . S
C2091 C2085 1.390 . S
C2091 C2088 1.386 . S
C2092 C2087 1.490 . S
C2092 C2094 1.395 . S
C2092 C2095 1.403 . S
H2093 C2099 0.930 . S
C2094 H2080 0.930 . S
C2094 C2092 1.395 . S
C2094 C2097 1.403 . S
C2095 C2092 1.403 . S
C2095 C2096 1.524 . S
C2095 C2099 1.400 . S
C2096 H2081 0.960 . S
C2096 H2082 0.960 . S
C2096 H2083 0.960 . S
C2096 C2095 1.524 . S
C2097 C2094 1.403 . S
C2097 C2098 1.392 . S
C2097 C2101 1.495 . S
C2098 C2097 1.392 . S
C2098 C2099 1.385 . S
C2098 C2100 1.478 . S
C2099 H2093 0.930 . S
C2099 C2095 1.400 . S
C2099 C2098 1.385 . S
C2100 C2098 1.478 . S
C2100 C2102 1.381 . S
C2100 C2106 1.383 . S
C2101 C2097 1.495 . S
C2101 H2107 0.959 . S
C2101 H2108 0.961 . S
C2101 H2109 0.960 . S
C2102 C2100 1.381 . S
C2102 C2103 1.394 . S
C2102 H2110 0.930 . S
C2103 C2102 1.394 . S
C2103 C2104 1.383 . S
C2103 H2111 0.929 . S
C2104 C2103 1.383 . S
C2104 C2105 1.377 . S
C2105 H2089 0.930 . S
C2105 C2104 1.377 . S
C2105 C2106 1.379 . S
C2106 H2090 0.931 . S
C2106 C2100 1.383 . S
C2106 C2105 1.379 . S
H2107 C2101 0.959 . S
H2108 C2101 0.961 . S
H2109 C2101 0.960 . S
H2110 C2102 0.930 . S
H2111 C2103 0.929 . S
H2112 C2120 0.929 . S
H2113 C2122 0.930 . S
H2114 C2124 0.930 . S
H2115 C2127 0.929 . S
H2116 C2130 0.930 . S
H2117 C2132 0.960 . S
H2118 C2132 0.960 . S
H2119 C2132 0.960 . S
C2120 H2112 0.929 . S
C2120 C2121 1.377 . S
C2120 C2122 1.384 . S
C2121 C2120 1.377 . S
C2121 C2127 1.390 . S
C2122 H2113 0.930 . S
C2122 C2120 1.384 . S
C2122 C2123 1.372 . S
C2123 C2122 1.372 . S
C2123 C2124 1.400 . S
C2123 C2128 1.490 . S
C2124 H2114 0.930 . S
C2124 C2123 1.400 . S
C2124 C2127 1.386 . S
H2125 C2141 0.930 . S
H2126 C2142 0.931 . S
C2127 H2115 0.929 . S
C2127 C2121 1.390 . S
C2127 C2124 1.386 . S
C2128 C2123 1.490 . S
C2128 C2130 1.395 1_655 S
C2128 C2131 1.403 . S
H2129 C2135 0.930 . S
C2130 H2116 0.930 . S
C2130 C2128 1.395 1_455 S
C2130 C2133 1.403 . S
C2131 C2128 1.403 . S
C2131 C2132 1.524 . S
C2131 C2135 1.400 . S
C2132 H2117 0.960 . S
C2132 H2118 0.960 . S
C2132 H2119 0.960 . S
C2132 C2131 1.524 . S
C2133 C2130 1.403 . S
C2133 C2134 1.392 . S
C2133 C2137 1.495 . S
C2134 C2133 1.392 . S
C2134 C2135 1.385 1_455 S
C2134 C2136 1.478 . S
C2135 H2129 0.930 . S
C2135 C2131 1.400 . S
C2135 C2134 1.385 1_655 S
C2136 C2134 1.478 . S
C2136 C2138 1.381 . S
C2136 C2142 1.383 . S
C2137 C2133 1.495 . S
C2137 H2143 0.959 . S
C2137 H2144 0.961 . S
C2137 H2145 0.960 . S
C2138 C2136 1.381 . S
C2138 C2139 1.394 . S
C2138 H2146 0.930 . S
C2139 C2138 1.394 . S
C2139 C2140 1.383 . S
C2139 H2147 0.929 . S
C2140 C2139 1.383 . S
C2140 C2141 1.377 . S
C2141 H2125 0.930 . S
C2141 C2140 1.377 . S
C2141 C2142 1.379 . S
C2142 H2126 0.931 . S
C2142 C2136 1.383 . S
C2142 C2141 1.379 . S
H2143 C2137 0.959 . S
H2144 C2137 0.961 . S
H2145 C2137 0.960 . S
H2146 C2138 0.930 . S
H2147 C2139 0.929 . S
H2148 C2156 0.929 . S
H2149 C2158 0.930 . S
H2150 C2160 0.930 . S
H2151 C2163 0.929 . S
H2152 C2166 0.930 . S
H2153 C2168 0.960 . S
H2154 C2168 0.960 . S
H2155 C2168 0.960 . S
C2156 H2148 0.929 . S
C2156 C2157 1.377 . S
C2156 C2158 1.384 . S
C2157 C2156 1.377 . S
C2157 C2163 1.390 . S
C2158 H2149 0.930 . S
C2158 C2156 1.384 . S
C2158 C2159 1.372 . S
C2159 C2158 1.372 . S
C2159 C2160 1.400 . S
C2159 C2164 1.490 . S
C2160 H2150 0.930 . S
C2160 C2159 1.400 . S
C2160 C2163 1.386 . S
H2161 C2177 0.930 . S
H2162 C2178 0.931 . S
C2163 H2151 0.929 . S
C2163 C2157 1.390 . S
C2163 C2160 1.386 . S
C2164 C2159 1.490 . S
C2164 C2166 1.395 . S
C2164 C2167 1.403 . S
H2165 C2171 0.930 . S
C2166 H2152 0.930 . S
C2166 C2164 1.395 . S
C2166 C2169 1.403 . S
C2167 C2164 1.403 . S
C2167 C2168 1.524 . S
C2167 C2171 1.400 . S
C2168 H2153 0.960 . S
C2168 H2154 0.960 . S
C2168 H2155 0.960 . S
C2168 C2167 1.524 . S
C2169 C2166 1.403 . S
C2169 C2170 1.392 . S
C2169 C2173 1.495 . S
C2170 C2169 1.392 . S
C2170 C2171 1.385 . S
C2170 C2172 1.478 . S
C2171 H2165 0.930 . S
C2171 C2167 1.400 . S
C2171 C2170 1.385 . S
C2172 C2170 1.478 . S
C2172 C2174 1.381 . S
C2172 C2178 1.383 . S
C2173 C2169 1.495 . S
C2173 H2179 0.959 . S
C2173 H2180 0.961 . S
C2173 H2181 0.960 . S
C2174 C2172 1.381 . S
C2174 C2175 1.394 . S
C2174 H2182 0.930 . S
C2175 C2174 1.394 . S
C2175 C2176 1.383 . S
C2175 H2183 0.929 . S
C2176 C2175 1.383 . S
C2176 C2177 1.377 . S
C2177 H2161 0.930 . S
C2177 C2176 1.377 . S
C2177 C2178 1.379 . S
C2178 H2162 0.931 . S
C2178 C2172 1.383 . S
C2178 C2177 1.379 . S
H2179 C2173 0.959 . S
H2180 C2173 0.961 . S
H2181 C2173 0.960 . S
H2182 C2174 0.930 . S
H2183 C2175 0.929 . S
H2184 C2192 0.929 . S
H2185 C2194 0.930 . S
H2186 C2196 0.930 . S
H2187 C2199 0.929 . S
H2188 C2202 0.930 . S
H2189 C2204 0.960 . S
H2190 C2204 0.960 . S
H2191 C2204 0.960 . S
C2192 H2184 0.929 . S
C2192 C2193 1.377 . S
C2192 C2194 1.384 . S
C2193 C2192 1.377 . S
C2193 C2199 1.390 . S
C2194 H2185 0.930 . S
C2194 C2192 1.384 . S
C2194 C2195 1.372 . S
C2195 C2194 1.372 . S
C2195 C2196 1.400 . S
C2195 C2200 1.490 . S
C2196 H2186 0.930 . S
C2196 C2195 1.400 . S
C2196 C2199 1.386 . S
H2197 C2213 0.930 . S
H2198 C2214 0.931 . S
C2199 H2187 0.929 . S
C2199 C2193 1.390 . S
C2199 C2196 1.386 . S
C2200 C2195 1.490 . S
C2200 C2202 1.395 . S
C2200 C2203 1.403 . S
H2201 C2207 0.930 . S
C2202 H2188 0.930 . S
C2202 C2200 1.395 . S
C2202 C2205 1.403 . S
C2203 C2200 1.403 . S
C2203 C2204 1.524 . S
C2203 C2207 1.400 . S
C2204 H2189 0.960 . S
C2204 H2190 0.960 . S
C2204 H2191 0.960 . S
C2204 C2203 1.524 . S
C2205 C2202 1.403 . S
C2205 C2206 1.392 . S
C2205 C2209 1.495 . S
C2206 C2205 1.392 . S
C2206 C2207 1.385 . S
C2206 C2208 1.478 . S
C2207 H2201 0.930 . S
C2207 C2203 1.400 . S
C2207 C2206 1.385 . S
C2208 C2206 1.478 . S
C2208 C2210 1.381 . S
C2208 C2214 1.383 . S
C2209 C2205 1.495 . S
C2209 H2215 0.959 . S
C2209 H2216 0.961 . S
C2209 H2217 0.960 . S
C2210 C2208 1.381 . S
C2210 C2211 1.394 . S
C2210 H2218 0.930 . S
C2211 C2210 1.394 . S
C2211 C2212 1.383 . S
C2211 H2219 0.929 . S
C2212 C2211 1.383 . S
C2212 C2213 1.377 . S
C2213 H2197 0.930 . S
C2213 C2212 1.377 . S
C2213 C2214 1.379 . S
C2214 H2198 0.931 . S
C2214 C2208 1.383 . S
C2214 C2213 1.379 . S
H2215 C2209 0.959 . S
H2216 C2209 0.961 . S
H2217 C2209 0.960 . S
H2218 C2210 0.930 . S
H2219 C2211 0.929 . S
H2220 C2228 0.929 . S
H2221 C2230 0.930 . S
H2222 C2232 0.930 . S
H2223 C2235 0.929 . S
H2224 C2238 0.930 . S
H2225 C2240 0.960 . S
H2226 C2240 0.960 . S
H2227 C2240 0.960 . S
C2228 H2220 0.929 . S
C2228 C2229 1.377 . S
C2228 C2230 1.384 . S
C2229 C2228 1.377 . S
C2229 C2235 1.390 . S
C2230 H2221 0.930 . S
C2230 C2228 1.384 . S
C2230 C2231 1.372 . S
C2231 C2230 1.372 . S
C2231 C2232 1.400 . S
C2231 C2236 1.490 . S
C2232 H2222 0.930 . S
C2232 C2231 1.400 . S
C2232 C2235 1.386 . S
H2233 C2249 0.930 . S
H2234 C2250 0.931 . S
C2235 H2223 0.929 . S
C2235 C2229 1.390 . S
C2235 C2232 1.386 . S
C2236 C2231 1.490 . S
C2236 C2238 1.395 . S
C2236 C2239 1.403 . S
H2237 C2243 0.930 . S
C2238 H2224 0.930 . S
C2238 C2236 1.395 . S
C2238 C2241 1.403 . S
C2239 C2236 1.403 . S
C2239 C2240 1.524 . S
C2239 C2243 1.400 . S
C2240 H2225 0.960 . S
C2240 H2226 0.960 . S
C2240 H2227 0.960 . S
C2240 C2239 1.524 . S
C2241 C2238 1.403 . S
C2241 C2242 1.392 . S
C2241 C2245 1.495 . S
C2242 C2241 1.392 . S
C2242 C2243 1.385 . S
C2242 C2244 1.478 . S
C2243 H2237 0.930 . S
C2243 C2239 1.400 . S
C2243 C2242 1.385 . S
C2244 C2242 1.478 . S
C2244 C2246 1.381 . S
C2244 C2250 1.383 . S
C2245 C2241 1.495 . S
C2245 H2251 0.959 . S
C2245 H2252 0.961 . S
C2245 H2253 0.960 . S
C2246 C2244 1.381 . S
C2246 C2247 1.394 . S
C2246 H2254 0.930 . S
C2247 C2246 1.394 . S
C2247 C2248 1.383 . S
C2247 H2255 0.929 . S
C2248 C2247 1.383 . S
C2248 C2249 1.377 . S
C2249 H2233 0.930 . S
C2249 C2248 1.377 . S
C2249 C2250 1.379 . S
C2250 H2234 0.931 . S
C2250 C2244 1.383 . S
C2250 C2249 1.379 . S
H2251 C2245 0.959 . S
H2252 C2245 0.961 . S
H2253 C2245 0.960 . S
H2254 C2246 0.930 . S
H2255 C2247 0.929 . S
H2256 C2264 0.929 1_556 S
H2257 C2266 0.930 1_556 S
H2258 C2268 0.930 . S
H2259 C2271 0.929 . S
H2260 C2274 0.930 . S
H2261 C2276 0.960 . S
H2262 C2276 0.960 . S
H2263 C2276 0.969 . S
C2264 H2256 0.929 1_554 S
C2264 C2265 1.377 . S
C2264 C2266 1.384 . S
C2265 C2264 1.377 . S
C2265 C2271 1.390 . S
C2266 H2257 0.930 1_554 S
C2266 C2264 1.384 . S
C2266 C2267 1.372 . S
C2267 C2266 1.372 . S
C2267 C2268 1.400 . S
C2267 C2272 1.490 . S
C2268 H2258 0.930 . S
C2268 C2267 1.400 . S
C2268 C2271 1.386 . S
H2269 C2285 0.930 . S
H2270 C2286 0.931 . S
C2271 H2259 0.929 . S
C2271 C2265 1.390 . S
C2271 C2268 1.386 . S
C2272 C2267 1.490 . S
C2272 C2274 1.395 . S
C2272 C2275 1.403 . S
H2273 C2279 0.930 1_545 S
C2274 H2260 0.930 . S
C2274 C2272 1.395 . S
C2274 C2277 1.403 . S
C2275 C2272 1.403 . S
C2275 C2276 1.524 1_565 S
C2275 C2279 1.400 . S
C2276 H2261 0.960 . S
C2276 H2262 0.960 . S
C2276 H2263 0.969 . S
C2276 C2275 1.524 1_545 S
C2277 C2274 1.403 . S
C2277 C2278 1.392 . S
C2277 C2281 1.495 . S
C2278 C2277 1.392 . S
C2278 C2279 1.385 . S
C2278 C2280 1.478 . S
C2279 H2273 0.930 1_565 S
C2279 C2275 1.400 . S
C2279 C2278 1.385 . S
C2280 C2278 1.478 . S
C2280 C2282 1.381 . S
C2280 C2286 1.383 . S
C2281 C2277 1.495 . S
C2281 H2287 0.959 1_554 S
C2281 H2288 0.961 . S
C2281 H2289 0.960 1_554 S
C2282 C2280 1.381 . S
C2282 C2283 1.394 1_565 S
C2282 H2290 0.930 1_554 S
C2283 C2282 1.394 1_545 S
C2283 C2284 1.383 . S
C2283 H2291 0.978 . S
C2284 C2283 1.383 . S
C2284 C2285 1.377 . S
C2285 H2269 0.930 . S
C2285 C2284 1.377 . S
C2285 C2286 1.379 1_545 S
C2286 H2270 0.931 . S
C2286 C2280 1.383 . S
C2286 C2285 1.379 1_565 S
H2287 C2281 0.959 1_556 S
H2288 C2281 0.961 . S
H2289 C2281 0.960 1_556 S
H2290 C2282 0.930 1_556 S
H2291 C2283 0.978 . S
H2292 C2300 0.929 . S
H2293 C2302 0.930 . S
H2294 C2304 0.930 . S
H2295 C2307 0.929 . S
H2296 C2310 0.930 . S
H2297 C2312 0.960 . S
H2298 C2312 0.960 . S
H2299 C2312 0.960 . S
C2300 H2292 0.929 . S
C2300 C2301 1.377 1_554 S
C2300 C2302 1.384 . S
C2301 C2300 1.377 1_556 S
C2301 C2307 1.390 . S
C2302 H2293 0.930 . S
C2302 C2300 1.384 . S
C2302 C2303 1.372 1_554 S
C2303 C2302 1.372 1_556 S
C2303 C2304 1.400 . S
C2303 C2308 1.489 1_556 S
C2304 H2294 0.930 . S
C2304 C2303 1.400 . S
C2304 C2307 1.386 . S
H2305 C2321 0.930 . S
H2306 C2322 0.931 . S
C2307 H2295 0.929 . S
C2307 C2301 1.390 . S
C2307 C2304 1.386 . S
C2308 C2303 1.489 1_554 S
C2308 C2310 1.397 . S
C2308 C2311 1.401 1_554 S
H2309 C2315 0.930 . S
C2310 H2296 0.930 . S
C2310 C2308 1.397 . S
C2310 C2313 1.403 . S
C2311 C2308 1.401 1_556 S
C2311 C2312 1.524 . S
C2311 C2315 1.400 . S
C2312 H2297 0.960 . S
C2312 H2298 0.960 . S
C2312 H2299 0.960 . S
C2312 C2311 1.524 . S
C2313 C2310 1.403 . S
C2313 C2314 1.392 . S
C2313 C2317 1.495 . S
C2314 C2313 1.392 . S
C2314 C2315 1.385 1_554 S
C2314 C2316 1.478 . S
C2315 H2309 0.930 . S
C2315 C2311 1.400 . S
C2315 C2314 1.385 1_556 S
C2316 C2314 1.478 . S
C2316 C2318 1.381 . S
C2316 C2322 1.383 1_554 S
C2317 C2313 1.495 . S
C2317 H2323 0.959 . S
C2317 H2324 0.961 . S
C2317 H2325 0.960 . S
C2318 C2316 1.381 . S
C2318 C2319 1.394 . S
C2318 H2326 0.930 . S
C2319 C2318 1.394 . S
C2319 C2320 1.383 . S
C2319 H2327 0.929 . S
C2320 C2319 1.383 . S
C2320 C2321 1.377 1_554 S
C2321 H2305 0.930 . S
C2321 C2320 1.377 1_556 S
C2321 C2322 1.379 . S
C2322 H2306 0.931 . S
C2322 C2316 1.383 1_556 S
C2322 C2321 1.379 . S
H2323 C2317 0.959 . S
H2324 C2317 0.961 . S
H2325 C2317 0.960 . S
H2326 C2318 0.930 . S
H2327 C2319 0.929 . S
H2328 C2336 0.929 . S
H2329 C2338 0.930 . S
H2330 C2340 0.930 . S
H2331 C2343 0.929 . S
H2332 C2346 0.930 . S
H2333 C2348 0.960 . S
H2334 C2348 0.960 . S
H2335 C2348 0.960 . S
C2336 H2328 0.929 . S
C2336 C2337 1.377 . S
C2336 C2338 1.384 . S
C2337 C2336 1.377 . S
C2337 C2343 1.390 . S
C2338 H2329 0.930 . S
C2338 C2336 1.384 . S
C2338 C2339 1.372 . S
C2339 C2338 1.372 . S
C2339 C2340 1.400 . S
C2339 C2344 1.490 . S
C2340 H2330 0.930 . S
C2340 C2339 1.400 . S
C2340 C2343 1.386 . S
H2341 C2357 0.930 . S
H2342 C2358 0.931 . S
C2343 H2331 0.929 . S
C2343 C2337 1.390 . S
C2343 C2340 1.386 . S
C2344 C2339 1.490 . S
C2344 C2346 1.395 . S
C2344 C2347 1.403 . S
H2345 C2351 0.930 . S
C2346 H2332 0.930 . S
C2346 C2344 1.395 . S
C2346 C2349 1.403 . S
C2347 C2344 1.403 . S
C2347 C2348 1.524 . S
C2347 C2351 1.400 . S
C2348 H2333 0.960 . S
C2348 H2334 0.960 . S
C2348 H2335 0.960 . S
C2348 C2347 1.524 . S
C2349 C2346 1.403 . S
C2349 C2350 1.392 . S
C2349 C2353 1.495 . S
C2350 C2349 1.392 . S
C2350 C2351 1.385 . S
C2350 C2352 1.478 . S
C2351 H2345 0.930 . S
C2351 C2347 1.400 . S
C2351 C2350 1.385 . S
C2352 C2350 1.478 . S
C2352 C2354 1.381 . S
C2352 C2358 1.383 . S
C2353 C2349 1.495 . S
C2353 H2359 0.959 . S
C2353 H2360 0.961 . S
C2353 H2361 0.960 . S
C2354 C2352 1.381 . S
C2354 C2355 1.394 . S
C2354 H2362 0.930 . S
C2355 C2354 1.394 . S
C2355 C2356 1.383 . S
C2355 H2363 0.929 . S
C2356 C2355 1.383 . S
C2356 C2357 1.377 . S
C2357 H2341 0.930 . S
C2357 C2356 1.377 . S
C2357 C2358 1.379 . S
C2358 H2342 0.931 . S
C2358 C2352 1.383 . S
C2358 C2357 1.379 . S
H2359 C2353 0.959 . S
H2360 C2353 0.961 . S
H2361 C2353 0.960 . S
H2362 C2354 0.930 . S
H2363 C2355 0.929 . S
H2364 C2372 0.929 . S
H2365 C2374 0.930 . S
H2366 C2376 0.930 . S
H2367 C2379 0.929 . S
H2368 C2382 0.930 . S
H2369 C2384 0.960 . S
H2370 C2384 0.960 . S
H2371 C2384 0.960 . S
C2372 H2364 0.929 . S
C2372 C2373 1.377 . S
C2372 C2374 1.384 . S
C2373 C2372 1.377 . S
C2373 C2379 1.390 . S
C2374 H2365 0.930 . S
C2374 C2372 1.384 . S
C2374 C2375 1.372 . S
C2375 C2374 1.372 . S
C2375 C2376 1.400 . S
C2375 C2380 1.490 . S
C2376 H2366 0.930 . S
C2376 C2375 1.400 . S
C2376 C2379 1.386 . S
H2377 C2393 0.930 . S
H2378 C2394 0.931 . S
C2379 H2367 0.929 . S
C2379 C2373 1.390 . S
C2379 C2376 1.386 . S
C2380 C2375 1.490 . S
C2380 C2382 1.395 . S
C2380 C2383 1.403 . S
H2381 C2387 0.930 . S
C2382 H2368 0.930 . S
C2382 C2380 1.395 . S
C2382 C2385 1.403 . S
C2383 C2380 1.403 . S
C2383 C2384 1.524 . S
C2383 C2387 1.400 . S
C2384 H2369 0.960 . S
C2384 H2370 0.960 . S
C2384 H2371 0.960 . S
C2384 C2383 1.524 . S
C2385 C2382 1.403 . S
C2385 C2386 1.392 . S
C2385 C2389 1.495 . S
C2386 C2385 1.392 . S
C2386 C2387 1.385 . S
C2386 C2388 1.478 . S
C2387 H2381 0.930 . S
C2387 C2383 1.400 . S
C2387 C2386 1.385 . S
C2388 C2386 1.478 . S
C2388 C2390 1.381 . S
C2388 C2394 1.383 . S
C2389 C2385 1.495 . S
C2389 H2395 0.959 . S
C2389 H2396 0.961 . S
C2389 H2397 0.960 . S
C2390 C2388 1.381 . S
C2390 C2391 1.394 . S
C2390 H2398 0.930 . S
C2391 C2390 1.394 . S
C2391 C2392 1.383 1_655 S
C2391 H2399 0.929 . S
C2392 C2391 1.383 1_455 S
C2392 C2393 1.377 . S
C2393 H2377 0.930 . S
C2393 C2392 1.377 . S
C2393 C2394 1.379 1_455 S
C2394 H2378 0.931 . S
C2394 C2388 1.383 . S
C2394 C2393 1.379 1_655 S
H2395 C2389 0.959 . S
H2396 C2389 0.961 . S
H2397 C2389 0.960 . S
H2398 C2390 0.930 . S
H2399 C2391 0.929 . S
H2400 C2408 0.929 . S
H2401 C2410 0.930 . S
H2402 C2412 0.930 . S
H2403 C2415 0.929 . S
H2404 C2418 0.930 . S
H2405 C2420 0.960 . S
H2406 C2420 0.960 . S
H2407 C2420 0.960 . S
C2408 H2400 0.929 . S
C2408 C2409 1.377 . S
C2408 C2410 1.384 . S
C2409 C2408 1.377 . S
C2409 C2415 1.390 . S
C2410 H2401 0.930 . S
C2410 C2408 1.384 . S
C2410 C2411 1.372 . S
C2411 C2410 1.372 . S
C2411 C2412 1.400 . S
C2411 C2416 1.490 . S
C2412 H2402 0.930 . S
C2412 C2411 1.400 . S
C2412 C2415 1.386 . S
H2413 C2429 0.930 . S
H2414 C2430 0.931 . S
C2415 H2403 0.929 . S
C2415 C2409 1.390 . S
C2415 C2412 1.386 . S
C2416 C2411 1.490 . S
C2416 C2418 1.395 . S
C2416 C2419 1.403 . S
H2417 C2423 0.930 . S
C2418 H2404 0.930 . S
C2418 C2416 1.395 . S
C2418 C2421 1.403 . S
C2419 C2416 1.403 . S
C2419 C2420 1.524 . S
C2419 C2423 1.400 . S
C2420 H2405 0.960 . S
C2420 H2406 0.960 . S
C2420 H2407 0.960 . S
C2420 C2419 1.524 . S
C2421 C2418 1.403 . S
C2421 C2422 1.392 . S
C2421 C2425 1.495 . S
C2422 C2421 1.392 . S
C2422 C2423 1.385 . S
C2422 C2424 1.478 . S
C2423 H2417 0.930 . S
C2423 C2419 1.400 . S
C2423 C2422 1.385 . S
C2424 C2422 1.478 . S
C2424 C2426 1.381 . S
C2424 C2430 1.383 . S
C2425 C2421 1.495 . S
C2425 H2431 0.959 . S
C2425 H2432 0.961 . S
C2425 H2433 0.960 . S
C2426 C2424 1.381 . S
C2426 C2427 1.394 . S
C2426 H2434 0.930 . S
C2427 C2426 1.394 . S
C2427 C2428 1.383 . S
C2427 H2435 0.929 . S
C2428 C2427 1.383 . S
C2428 C2429 1.377 . S
C2429 H2413 0.930 . S
C2429 C2428 1.377 . S
C2429 C2430 1.379 . S
C2430 H2414 0.931 . S
C2430 C2424 1.383 . S
C2430 C2429 1.379 . S
H2431 C2425 0.959 . S
H2432 C2425 0.961 . S
H2433 C2425 0.960 . S
H2434 C2426 0.930 . S
H2435 C2427 0.929 . S
H2436 C2444 0.929 . S
H2437 C2446 0.930 . S
H2438 C2448 0.930 . S
H2439 C2451 0.929 . S
H2440 C2454 0.930 . S
H2441 C2456 0.960 . S
H2442 C2456 0.960 . S
H2443 C2456 0.960 . S
C2444 H2436 0.929 . S
C2444 C2445 1.377 . S
C2444 C2446 1.384 . S
C2445 C2444 1.377 . S
C2445 C2451 1.390 . S
C2446 H2437 0.930 . S
C2446 C2444 1.384 . S
C2446 C2447 1.372 . S
C2447 C2446 1.372 . S
C2447 C2448 1.400 . S
C2447 C2452 1.490 . S
C2448 H2438 0.930 . S
C2448 C2447 1.400 . S
C2448 C2451 1.386 . S
H2449 C2465 0.930 . S
H2450 C2466 0.931 . S
C2451 H2439 0.929 . S
C2451 C2445 1.390 . S
C2451 C2448 1.386 . S
C2452 C2447 1.490 . S
C2452 C2454 1.395 . S
C2452 C2455 1.403 . S
H2453 C2459 0.930 . S
C2454 H2440 0.930 . S
C2454 C2452 1.395 . S
C2454 C2457 1.403 . S
C2455 C2452 1.403 . S
C2455 C2456 1.524 . S
C2455 C2459 1.400 . S
C2456 H2441 0.960 . S
C2456 H2442 0.960 . S
C2456 H2443 0.960 . S
C2456 C2455 1.524 . S
C2457 C2454 1.403 . S
C2457 C2458 1.392 . S
C2457 C2461 1.495 . S
C2458 C2457 1.392 . S
C2458 C2459 1.385 . S
C2458 C2460 1.478 . S
C2459 H2453 0.930 . S
C2459 C2455 1.400 . S
C2459 C2458 1.385 . S
C2460 C2458 1.478 . S
C2460 C2462 1.381 . S
C2460 C2466 1.383 . S
C2461 C2457 1.495 . S
C2461 H2467 0.959 . S
C2461 H2468 0.961 . S
C2461 H2469 0.960 . S
C2462 C2460 1.381 . S
C2462 C2463 1.394 . S
C2462 H2470 0.930 . S
C2463 C2462 1.394 . S
C2463 C2464 1.383 . S
C2463 H2471 0.929 . S
C2464 C2463 1.383 . S
C2464 C2465 1.377 . S
C2465 H2449 0.930 . S
C2465 C2464 1.377 . S
C2465 C2466 1.379 . S
C2466 H2450 0.931 . S
C2466 C2460 1.383 . S
C2466 C2465 1.379 . S
H2467 C2461 0.959 . S
H2468 C2461 0.961 . S
H2469 C2461 0.960 . S
H2470 C2462 0.930 . S
H2471 C2463 0.929 . S
H2472 C2480 0.929 . S
H2473 C2482 0.930 . S
H2474 C2484 0.930 . S
H2475 C2487 0.929 . S
H2476 C2490 0.930 . S
H2477 C2492 0.960 . S
H2478 C2492 0.960 . S
H2479 C2492 0.960 . S
C2480 H2472 0.929 . S
C2480 C2481 1.377 . S
C2480 C2482 1.384 . S
C2481 C2480 1.377 . S
C2481 C2487 1.390 . S
C2482 H2473 0.930 . S
C2482 C2480 1.384 . S
C2482 C2483 1.372 . S
C2483 C2482 1.372 . S
C2483 C2484 1.400 . S
C2483 C2488 1.490 . S
C2484 H2474 0.930 . S
C2484 C2483 1.400 . S
C2484 C2487 1.386 . S
H2485 C2501 0.930 . S
H2486 C2502 0.931 . S
C2487 H2475 0.929 . S
C2487 C2481 1.390 . S
C2487 C2484 1.386 . S
C2488 C2483 1.490 . S
C2488 C2490 1.395 . S
C2488 C2491 1.403 . S
H2489 C2495 0.930 . S
C2490 H2476 0.930 . S
C2490 C2488 1.395 . S
C2490 C2493 1.403 . S
C2491 C2488 1.403 . S
C2491 C2492 1.524 . S
C2491 C2495 1.400 . S
C2492 H2477 0.960 . S
C2492 H2478 0.960 . S
C2492 H2479 0.960 . S
C2492 C2491 1.524 . S
C2493 C2490 1.403 . S
C2493 C2494 1.392 . S
C2493 C2497 1.495 . S
C2494 C2493 1.392 . S
C2494 C2495 1.385 . S
C2494 C2496 1.478 . S
C2495 H2489 0.930 . S
C2495 C2491 1.400 . S
C2495 C2494 1.385 . S
C2496 C2494 1.478 . S
C2496 C2498 1.381 . S
C2496 C2502 1.383 . S
C2497 C2493 1.495 . S
C2497 H2503 0.959 . S
C2497 H2504 0.961 . S
C2497 H2505 0.960 . S
C2498 C2496 1.381 . S
C2498 C2499 1.394 . S
C2498 H2506 0.930 . S
C2499 C2498 1.394 . S
C2499 C2500 1.383 . S
C2499 H2507 0.929 . S
C2500 C2499 1.383 . S
C2500 C2501 1.377 . S
C2501 H2485 0.930 . S
C2501 C2500 1.377 . S
C2501 C2502 1.379 . S
C2502 H2486 0.931 . S
C2502 C2496 1.383 . S
C2502 C2501 1.379 . S
H2503 C2497 0.959 . S
H2504 C2497 0.961 . S
H2505 C2497 0.960 . S
H2506 C2498 0.930 . S
H2507 C2499 0.929 . S
H2508 C2516 0.929 . S
H2509 C2518 0.930 . S
H2510 C2520 0.930 . S
H2511 C2523 0.929 . S
H2512 C2526 0.930 . S
H2513 C2528 0.960 . S
H2514 C2528 0.960 . S
H2515 C2528 0.960 . S
C2516 H2508 0.929 . S
C2516 C2517 1.377 . S
C2516 C2518 1.384 . S
C2517 C2516 1.377 . S
C2517 C2523 1.390 . S
C2518 H2509 0.930 . S
C2518 C2516 1.384 . S
C2518 C2519 1.372 . S
C2519 C2518 1.372 . S
C2519 C2520 1.400 . S
C2519 C2524 1.490 . S
C2520 H2510 0.930 . S
C2520 C2519 1.400 . S
C2520 C2523 1.386 . S
H2521 C2537 0.930 . S
H2522 C2538 0.931 . S
C2523 H2511 0.929 . S
C2523 C2517 1.390 . S
C2523 C2520 1.386 . S
C2524 C2519 1.490 . S
C2524 C2526 1.395 . S
C2524 C2527 1.403 . S
H2525 C2531 0.930 . S
C2526 H2512 0.930 . S
C2526 C2524 1.395 . S
C2526 C2529 1.403 . S
C2527 C2524 1.403 . S
C2527 C2528 1.524 . S
C2527 C2531 1.400 . S
C2528 H2513 0.960 . S
C2528 H2514 0.960 . S
C2528 H2515 0.960 . S
C2528 C2527 1.524 . S
C2529 C2526 1.403 . S
C2529 C2530 1.392 . S
C2529 C2533 1.495 . S
C2530 C2529 1.392 . S
C2530 C2531 1.385 . S
C2530 C2532 1.478 . S
C2531 H2525 0.930 . S
C2531 C2527 1.400 . S
C2531 C2530 1.385 . S
C2532 C2530 1.478 . S
C2532 C2534 1.381 . S
C2532 C2538 1.383 . S
C2533 C2529 1.495 . S
C2533 H2539 0.959 . S
C2533 H2540 0.961 . S
C2533 H2541 0.960 . S
C2534 C2532 1.381 . S
C2534 C2535 1.394 . S
C2534 H2542 0.930 . S
C2535 C2534 1.394 . S
C2535 C2536 1.383 . S
C2535 H2543 0.929 . S
C2536 C2535 1.383 . S
C2536 C2537 1.377 . S
C2537 H2521 0.930 . S
C2537 C2536 1.377 . S
C2537 C2538 1.379 . S
C2538 H2522 0.931 . S
C2538 C2532 1.383 . S
C2538 C2537 1.379 . S
H2539 C2533 0.959 . S
H2540 C2533 0.961 . S
H2541 C2533 0.960 . S
H2542 C2534 0.930 . S
H2543 C2535 0.929 . S
H2544 C2552 0.929 . S
H2545 C2554 0.930 . S
H2546 C2556 0.930 . S
H2547 C2559 0.929 . S
H2548 C2562 0.930 . S
H2549 C2564 0.960 . S
H2550 C2564 0.960 . S
H2551 C2564 0.960 . S
C2552 H2544 0.929 . S
C2552 C2553 1.377 . S
C2552 C2554 1.384 . S
C2553 C2552 1.377 . S
C2553 C2559 1.390 . S
C2554 H2545 0.930 . S
C2554 C2552 1.384 . S
C2554 C2555 1.372 . S
C2555 C2554 1.372 . S
C2555 C2556 1.400 . S
C2555 C2560 1.490 . S
C2556 H2546 0.930 . S
C2556 C2555 1.400 . S
C2556 C2559 1.386 . S
H2557 C2573 0.930 . S
H2558 C2574 0.931 . S
C2559 H2547 0.929 . S
C2559 C2553 1.390 . S
C2559 C2556 1.386 . S
C2560 C2555 1.490 . S
C2560 C2562 1.395 . S
C2560 C2563 1.403 . S
H2561 C2567 0.930 . S
C2562 H2548 0.930 . S
C2562 C2560 1.395 . S
C2562 C2565 1.403 . S
C2563 C2560 1.403 . S
C2563 C2564 1.524 . S
C2563 C2567 1.400 . S
C2564 H2549 0.960 . S
C2564 H2550 0.960 . S
C2564 H2551 0.960 . S
C2564 C2563 1.524 . S
C2565 C2562 1.403 . S
C2565 C2566 1.392 . S
C2565 C2569 1.495 . S
C2566 C2565 1.392 . S
C2566 C2567 1.385 . S
C2566 C2568 1.478 . S
C2567 H2561 0.930 . S
C2567 C2563 1.400 . S
C2567 C2566 1.385 . S
C2568 C2566 1.478 . S
C2568 C2570 1.381 . S
C2568 C2574 1.383 . S
C2569 C2565 1.495 . S
C2569 H2575 0.959 . S
C2569 H2576 0.961 . S
C2569 H2577 0.960 . S
C2570 C2568 1.381 . S
C2570 C2571 1.394 . S
C2570 H2578 0.930 . S
C2571 C2570 1.394 . S
C2571 C2572 1.383 . S
C2571 H2579 0.929 . S
C2572 C2571 1.383 . S
C2572 C2573 1.377 . S
C2573 H2557 0.930 . S
C2573 C2572 1.377 . S
C2573 C2574 1.379 . S
C2574 H2558 0.931 . S
C2574 C2568 1.383 . S
C2574 C2573 1.379 . S
H2575 C2569 0.959 . S
H2576 C2569 0.961 . S
H2577 C2569 0.960 . S
H2578 C2570 0.930 . S
H2579 C2571 0.929 . S
H2580 C2588 0.929 . S
H2581 C2590 0.930 . S
H2582 C2592 0.930 . S
H2583 C2595 0.929 . S
H2584 C2598 0.930 . S
H2585 C2600 0.960 . S
H2586 C2600 0.960 . S
H2587 C2600 0.960 . S
C2588 H2580 0.929 . S
C2588 C2589 1.377 . S
C2588 C2590 1.384 . S
C2589 C2588 1.377 . S
C2589 C2595 1.390 . S
C2590 H2581 0.930 . S
C2590 C2588 1.384 . S
C2590 C2591 1.372 . S
C2591 C2590 1.372 . S
C2591 C2592 1.400 . S
C2591 C2596 1.490 . S
C2592 H2582 0.930 . S
C2592 C2591 1.400 . S
C2592 C2595 1.386 . S
H2593 C2609 0.930 . S
H2594 C2610 0.931 . S
C2595 H2583 0.929 . S
C2595 C2589 1.390 . S
C2595 C2592 1.386 . S
C2596 C2591 1.490 . S
C2596 C2598 1.395 . S
C2596 C2599 1.403 . S
H2597 C2603 0.930 . S
C2598 H2584 0.930 . S
C2598 C2596 1.395 . S
C2598 C2601 1.403 . S
C2599 C2596 1.403 . S
C2599 C2600 1.524 . S
C2599 C2603 1.400 . S
C2600 H2585 0.960 . S
C2600 H2586 0.960 . S
C2600 H2587 0.960 . S
C2600 C2599 1.524 . S
C2601 C2598 1.403 . S
C2601 C2602 1.392 . S
C2601 C2605 1.495 . S
C2602 C2601 1.392 . S
C2602 C2603 1.385 . S
C2602 C2604 1.478 . S
C2603 H2597 0.930 . S
C2603 C2599 1.400 . S
C2603 C2602 1.385 . S
C2604 C2602 1.478 . S
C2604 C2606 1.381 . S
C2604 C2610 1.383 . S
C2605 C2601 1.495 . S
C2605 H2611 0.959 . S
C2605 H2612 0.961 . S
C2605 H2613 0.960 . S
C2606 C2604 1.381 . S
C2606 C2607 1.394 . S
C2606 H2614 0.930 . S
C2607 C2606 1.394 . S
C2607 C2608 1.383 . S
C2607 H2615 0.929 . S
C2608 C2607 1.383 . S
C2608 C2609 1.377 . S
C2609 H2593 0.930 . S
C2609 C2608 1.377 . S
C2609 C2610 1.379 . S
C2610 H2594 0.931 . S
C2610 C2604 1.383 . S
C2610 C2609 1.379 . S
H2611 C2605 0.959 . S
H2612 C2605 0.961 . S
H2613 C2605 0.960 . S
H2614 C2606 0.930 . S
H2615 C2607 0.929 . S
H2616 C2624 0.929 . S
H2617 C2626 0.930 . S
H2618 C2628 0.930 . S
H2619 C2631 0.929 . S
H2620 C2634 0.930 . S
H2621 C2636 0.960 . S
H2622 C2636 0.960 . S
H2623 C2636 0.960 . S
C2624 H2616 0.929 . S
C2624 C2625 1.377 . S
C2624 C2626 1.384 . S
C2625 C2624 1.377 . S
C2625 C2631 1.390 . S
C2626 H2617 0.930 . S
C2626 C2624 1.384 . S
C2626 C2627 1.372 . S
C2627 C2626 1.372 . S
C2627 C2628 1.400 . S
C2627 C2632 1.490 . S
C2628 H2618 0.930 . S
C2628 C2627 1.400 . S
C2628 C2631 1.386 . S
H2629 C2645 0.930 . S
H2630 C2646 0.931 . S
C2631 H2619 0.929 . S
C2631 C2625 1.390 . S
C2631 C2628 1.386 . S
C2632 C2627 1.490 . S
C2632 C2634 1.395 . S
C2632 C2635 1.403 . S
H2633 C2639 0.930 . S
C2634 H2620 0.930 . S
C2634 C2632 1.395 . S
C2634 C2637 1.403 . S
C2635 C2632 1.403 . S
C2635 C2636 1.524 . S
C2635 C2639 1.400 . S
C2636 H2621 0.960 . S
C2636 H2622 0.960 . S
C2636 H2623 0.960 . S
C2636 C2635 1.524 . S
C2637 C2634 1.403 . S
C2637 C2638 1.392 . S
C2637 C2641 1.495 . S
C2638 C2637 1.392 . S
C2638 C2639 1.385 . S
C2638 C2640 1.478 . S
C2639 H2633 0.930 . S
C2639 C2635 1.400 . S
C2639 C2638 1.385 . S
C2640 C2638 1.478 . S
C2640 C2642 1.381 . S
C2640 C2646 1.383 . S
C2641 C2637 1.495 . S
C2641 H2647 0.959 . S
C2641 H2648 0.961 . S
C2641 H2649 0.960 . S
C2642 C2640 1.381 . S
C2642 C2643 1.394 . S
C2642 H2650 0.930 . S
C2643 C2642 1.394 . S
C2643 C2644 1.383 . S
C2643 H2651 0.929 . S
C2644 C2643 1.383 . S
C2644 C2645 1.377 . S
C2645 H2629 0.930 . S
C2645 C2644 1.377 . S
C2645 C2646 1.379 . S
C2646 H2630 0.931 . S
C2646 C2640 1.383 . S
C2646 C2645 1.379 . S
H2647 C2641 0.959 . S
H2648 C2641 0.961 . S
H2649 C2641 0.960 . S
H2650 C2642 0.930 . S
H2651 C2643 0.929 . S
H2652 C2660 0.929 . S
H2653 C2662 0.930 . S
H2654 C2664 0.930 . S
H2655 C2667 0.929 . S
H2656 C2670 0.930 . S
H2657 C2672 0.960 . S
H2658 C2672 0.960 . S
H2659 C2672 0.960 . S
C2660 H2652 0.929 . S
C2660 C2661 1.377 . S
C2660 C2662 1.384 . S
C2661 C2660 1.377 . S
C2661 C2667 1.390 . S
C2662 H2653 0.930 . S
C2662 C2660 1.384 . S
C2662 C2663 1.372 . S
C2663 C2662 1.372 . S
C2663 C2664 1.400 . S
C2663 C2668 1.490 . S
C2664 H2654 0.930 . S
C2664 C2663 1.400 . S
C2664 C2667 1.386 . S
H2665 C2681 0.930 . S
H2666 C2682 0.931 . S
C2667 H2655 0.929 . S
C2667 C2661 1.390 . S
C2667 C2664 1.386 . S
C2668 C2663 1.490 . S
C2668 C2670 1.395 . S
C2668 C2671 1.403 . S
H2669 C2675 0.930 . S
C2670 H2656 0.930 . S
C2670 C2668 1.395 . S
C2670 C2673 1.403 . S
C2671 C2668 1.403 . S
C2671 C2672 1.524 . S
C2671 C2675 1.400 . S
C2672 H2657 0.960 . S
C2672 H2658 0.960 . S
C2672 H2659 0.960 . S
C2672 C2671 1.524 . S
C2673 C2670 1.403 . S
C2673 C2674 1.392 . S
C2673 C2677 1.495 . S
C2674 C2673 1.392 . S
C2674 C2675 1.385 . S
C2674 C2676 1.478 . S
C2675 H2669 0.930 . S
C2675 C2671 1.400 . S
C2675 C2674 1.385 . S
C2676 C2674 1.478 . S
C2676 C2678 1.381 . S
C2676 C2682 1.383 . S
C2677 C2673 1.495 . S
C2677 H2683 0.959 . S
C2677 H2684 0.961 . S
C2677 H2685 0.960 . S
C2678 C2676 1.381 . S
C2678 C2679 1.394 . S
C2678 H2686 0.930 . S
C2679 C2678 1.394 . S
C2679 C2680 1.383 . S
C2679 H2687 0.929 . S
C2680 C2679 1.383 . S
C2680 C2681 1.377 . S
C2681 H2665 0.930 . S
C2681 C2680 1.377 . S
C2681 C2682 1.379 . S
C2682 H2666 0.931 . S
C2682 C2676 1.383 . S
C2682 C2681 1.379 . S
H2683 C2677 0.959 . S
H2684 C2677 0.961 . S
H2685 C2677 0.960 . S
H2686 C2678 0.930 . S
H2687 C2679 0.929 . S
H2688 C2696 0.929 . S
H2689 C2698 0.930 . S
H2690 C2700 0.930 . S
H2691 C2703 0.929 . S
H2692 C2706 0.930 . S
H2693 C2708 0.960 . S
H2694 C2708 0.960 . S
H2695 C2708 0.960 . S
C2696 H2688 0.929 . S
C2696 C2697 1.377 . S
C2696 C2698 1.384 . S
C2697 C2696 1.377 . S
C2697 C2703 1.390 . S
C2698 H2689 0.930 . S
C2698 C2696 1.384 . S
C2698 C2699 1.372 . S
C2699 C2698 1.372 . S
C2699 C2700 1.400 . S
C2699 C2704 1.490 . S
C2700 H2690 0.930 . S
C2700 C2699 1.400 . S
C2700 C2703 1.386 . S
H2701 C2717 0.930 . S
H2702 C2718 0.931 . S
C2703 H2691 0.929 . S
C2703 C2697 1.390 . S
C2703 C2700 1.386 . S
C2704 C2699 1.490 . S
C2704 C2706 1.395 . S
C2704 C2707 1.403 . S
H2705 C2711 0.930 . S
C2706 H2692 0.930 . S
C2706 C2704 1.395 . S
C2706 C2709 1.403 . S
C2707 C2704 1.403 . S
C2707 C2708 1.524 . S
C2707 C2711 1.400 . S
C2708 H2693 0.960 . S
C2708 H2694 0.960 . S
C2708 H2695 0.960 . S
C2708 C2707 1.524 . S
C2709 C2706 1.403 . S
C2709 C2710 1.392 . S
C2709 C2713 1.495 . S
C2710 C2709 1.392 . S
C2710 C2711 1.385 . S
C2710 C2712 1.478 . S
C2711 H2705 0.930 . S
C2711 C2707 1.400 . S
C2711 C2710 1.385 . S
C2712 C2710 1.478 . S
C2712 C2714 1.381 . S
C2712 C2718 1.383 . S
C2713 C2709 1.495 . S
C2713 H2719 0.959 . S
C2713 H2720 0.961 . S
C2713 H2721 0.960 . S
C2714 C2712 1.381 . S
C2714 C2715 1.394 . S
C2714 H2722 0.930 . S
C2715 C2714 1.394 . S
C2715 C2716 1.383 . S
C2715 H2723 0.929 . S
C2716 C2715 1.383 . S
C2716 C2717 1.377 . S
C2717 H2701 0.930 . S
C2717 C2716 1.377 . S
C2717 C2718 1.379 . S
C2718 H2702 0.931 . S
C2718 C2712 1.383 . S
C2718 C2717 1.379 . S
H2719 C2713 0.959 . S
H2720 C2713 0.961 . S
H2721 C2713 0.960 . S
H2722 C2714 0.930 . S
H2723 C2715 0.929 . S
H2724 C2732 0.929 . S
H2725 C2734 0.930 . S
H2726 C2736 0.930 . S
H2727 C2739 0.929 . S
H2728 C2742 0.930 . S
H2729 C2744 0.960 . S
H2730 C2744 0.960 . S
H2731 C2744 0.960 . S
C2732 H2724 0.929 . S
C2732 C2733 1.377 . S
C2732 C2734 1.384 . S
C2733 C2732 1.377 . S
C2733 C2739 1.390 . S
C2734 H2725 0.930 . S
C2734 C2732 1.384 . S
C2734 C2735 1.372 . S
C2735 C2734 1.372 . S
C2735 C2736 1.400 . S
C2735 C2740 1.490 . S
C2736 H2726 0.930 . S
C2736 C2735 1.400 . S
C2736 C2739 1.386 . S
H2737 C2753 0.930 . S
H2738 C2754 0.931 . S
C2739 H2727 0.929 . S
C2739 C2733 1.390 . S
C2739 C2736 1.386 . S
C2740 C2735 1.490 . S
C2740 C2742 1.395 . S
C2740 C2743 1.403 . S
H2741 C2747 0.930 . S
C2742 H2728 0.930 . S
C2742 C2740 1.395 . S
C2742 C2745 1.403 . S
C2743 C2740 1.403 . S
C2743 C2744 1.524 . S
C2743 C2747 1.400 . S
C2744 H2729 0.960 . S
C2744 H2730 0.960 . S
C2744 H2731 0.960 . S
C2744 C2743 1.524 . S
C2745 C2742 1.403 . S
C2745 C2746 1.392 . S
C2745 C2749 1.495 . S
C2746 C2745 1.392 . S
C2746 C2747 1.385 . S
C2746 C2748 1.478 . S
C2747 H2741 0.930 . S
C2747 C2743 1.400 . S
C2747 C2746 1.385 . S
C2748 C2746 1.478 . S
C2748 C2750 1.381 . S
C2748 C2754 1.383 . S
C2749 C2745 1.495 . S
C2749 H2755 0.959 . S
C2749 H2756 0.961 . S
C2749 H2757 0.960 . S
C2750 C2748 1.381 . S
C2750 C2751 1.394 . S
C2750 H2758 0.930 . S
C2751 C2750 1.394 . S
C2751 C2752 1.383 . S
C2751 H2759 0.929 . S
C2752 C2751 1.383 . S
C2752 C2753 1.377 . S
C2753 H2737 0.930 . S
C2753 C2752 1.377 . S
C2753 C2754 1.379 . S
C2754 H2738 0.931 . S
C2754 C2748 1.383 . S
C2754 C2753 1.379 . S
H2755 C2749 0.959 . S
H2756 C2749 0.961 . S
H2757 C2749 0.960 . S
H2758 C2750 0.930 . S
H2759 C2751 0.929 . S
H2760 C2768 0.929 . S
H2761 C2770 0.930 . S
H2762 C2772 0.930 . S
H2763 C2775 0.929 . S
H2764 C2778 0.930 . S
H2765 C2780 0.960 . S
H2766 C2780 0.960 . S
H2767 C2780 0.960 . S
C2768 H2760 0.929 . S
C2768 C2769 1.377 . S
C2768 C2770 1.384 . S
C2769 C2768 1.377 . S
C2769 C2775 1.390 . S
C2770 H2761 0.930 . S
C2770 C2768 1.384 . S
C2770 C2771 1.372 . S
C2771 C2770 1.372 . S
C2771 C2772 1.400 . S
C2771 C2776 1.490 . S
C2772 H2762 0.930 . S
C2772 C2771 1.400 . S
C2772 C2775 1.386 . S
H2773 C2789 0.943 . S
H2774 C2790 0.931 . S
C2775 H2763 0.929 . S
C2775 C2769 1.390 . S
C2775 C2772 1.386 . S
C2776 C2771 1.490 . S
C2776 C2778 1.395 . S
C2776 C2779 1.403 . S
H2777 C2783 0.930 . S
C2778 H2764 0.930 . S
C2778 C2776 1.395 . S
C2778 C2781 1.403 . S
C2779 C2776 1.403 . S
C2779 C2780 1.524 . S
C2779 C2783 1.400 . S
C2780 H2765 0.960 . S
C2780 H2766 0.960 . S
C2780 H2767 0.960 . S
C2780 C2779 1.524 . S
C2781 C2778 1.403 . S
C2781 C2782 1.392 . S
C2781 C2785 1.495 . S
C2782 C2781 1.392 . S
C2782 C2783 1.385 . S
C2782 C2784 1.478 . S
C2783 H2777 0.930 . S
C2783 C2779 1.400 . S
C2783 C2782 1.385 . S
C2784 C2782 1.478 . S
C2784 C2786 1.381 . S
C2784 C2790 1.383 . S
C2785 C2781 1.495 . S
C2785 H2791 0.959 . S
C2785 H2792 0.961 . S
C2785 H2793 0.960 . S
C2786 C2784 1.381 . S
C2786 C2787 1.394 1_556 S
C2786 H2794 0.930 . S
C2787 C2786 1.394 1_554 S
C2787 C2788 1.427 1_554 S
C2787 H2795 0.929 . S
C2788 C2787 1.427 1_556 S
C2788 C2789 1.382 . S
C2789 H2773 0.943 . S
C2789 C2788 1.382 . S
C2789 C2790 1.379 . S
C2790 H2774 0.931 . S
C2790 C2784 1.383 . S
C2790 C2789 1.379 . S
H2791 C2785 0.959 . S
H2792 C2785 0.961 . S
H2793 C2785 0.960 . S
H2794 C2786 0.930 . S
H2795 C2787 0.929 . S
H2796 C2804 0.929 . S
H2797 C2806 0.930 . S
H2798 C2808 0.930 . S
H2799 C2811 0.929 . S
H2800 C2814 0.930 . S
H2801 C2816 0.960 . S
H2802 C2816 0.960 . S
H2803 C2816 0.960 . S
C2804 H2796 0.929 . S
C2804 C2805 1.377 . S
C2804 C2806 1.384 . S
C2805 C2804 1.377 . S
C2805 C2811 1.390 . S
C2806 H2797 0.930 . S
C2806 C2804 1.384 . S
C2806 C2807 1.372 . S
C2807 C2806 1.372 . S
C2807 C2808 1.400 . S
C2807 C2812 1.490 . S
C2808 H2798 0.930 . S
C2808 C2807 1.400 . S
C2808 C2811 1.386 . S
H2809 C2825 0.930 . S
H2810 C2826 0.931 . S
C2811 H2799 0.929 . S
C2811 C2805 1.390 . S
C2811 C2808 1.386 . S
C2812 C2807 1.490 . S
C2812 C2814 1.395 . S
C2812 C2815 1.403 . S
H2813 C2819 0.930 . S
C2814 H2800 0.930 . S
C2814 C2812 1.395 . S
C2814 C2817 1.403 . S
C2815 C2812 1.403 . S
C2815 C2816 1.524 . S
C2815 C2819 1.400 . S
C2816 H2801 0.960 . S
C2816 H2802 0.960 . S
C2816 H2803 0.960 . S
C2816 C2815 1.524 . S
C2817 C2814 1.403 . S
C2817 C2818 1.392 . S
C2817 C2821 1.495 . S
C2818 C2817 1.392 . S
C2818 C2819 1.385 . S
C2818 C2820 1.478 . S
C2819 H2813 0.930 . S
C2819 C2815 1.400 . S
C2819 C2818 1.385 . S
C2820 C2818 1.478 . S
C2820 C2822 1.381 . S
C2820 C2826 1.383 . S
C2821 C2817 1.495 . S
C2821 H2827 0.959 . S
C2821 H2828 0.961 . S
C2821 H2829 0.960 . S
C2822 C2820 1.381 . S
C2822 C2823 1.394 . S
C2822 H2830 0.930 . S
C2823 C2822 1.394 . S
C2823 C2824 1.383 . S
C2823 H2831 0.929 . S
C2824 C2823 1.383 . S
C2824 C2825 1.377 . S
C2825 H2809 0.930 . S
C2825 C2824 1.377 . S
C2825 C2826 1.379 . S
C2826 H2810 0.931 . S
C2826 C2820 1.383 . S
C2826 C2825 1.379 . S
H2827 C2821 0.959 . S
H2828 C2821 0.961 . S
H2829 C2821 0.960 . S
H2830 C2822 0.930 . S
H2831 C2823 0.929 . S
H2832 C2840 0.929 . S
H2833 C2842 0.930 . S
H2834 C2844 0.930 . S
H2835 C2847 0.929 . S
H2836 C2850 0.930 . S
H2837 C2852 0.960 . S
H2838 C2852 0.960 . S
H2839 C2852 0.960 . S
C2840 H2832 0.929 . S
C2840 C2841 1.377 1_565 S
C2840 C2842 1.384 . S
C2841 C2840 1.377 1_545 S
C2841 C2847 1.390 . S
C2842 H2833 0.930 . S
C2842 C2840 1.384 . S
C2842 C2843 1.372 1_565 S
C2843 C2842 1.372 1_545 S
C2843 C2844 1.400 . S
C2843 C2848 1.490 . S
C2844 H2834 0.930 . S
C2844 C2843 1.400 . S
C2844 C2847 1.386 . S
H2845 C2861 0.930 . S
H2846 C2862 0.931 . S
C2847 H2835 0.929 . S
C2847 C2841 1.390 . S
C2847 C2844 1.386 . S
C2848 C2843 1.490 . S
C2848 C2850 1.395 . S
C2848 C2851 1.403 . S
H2849 C2855 0.930 . S
C2850 H2836 0.930 . S
C2850 C2848 1.395 . S
C2850 C2853 1.403 . S
C2851 C2848 1.403 . S
C2851 C2852 1.524 . S
C2851 C2855 1.400 . S
C2852 H2837 0.960 . S
C2852 H2838 0.960 . S
C2852 H2839 0.960 . S
C2852 C2851 1.524 . S
C2853 C2850 1.403 . S
C2853 C2854 1.392 . S
C2853 C2857 1.495 . S
C2854 C2853 1.392 . S
C2854 C2855 1.385 . S
C2854 C2856 1.478 . S
C2855 H2849 0.930 . S
C2855 C2851 1.400 . S
C2855 C2854 1.385 . S
C2856 C2854 1.478 . S
C2856 C2858 1.381 1_545 S
C2856 C2862 1.383 . S
C2857 C2853 1.495 . S
C2857 H2863 0.959 . S
C2857 H2864 0.961 . S
C2857 H2865 0.960 1_545 S
C2858 C2856 1.381 1_565 S
C2858 C2859 1.394 . S
C2858 H2866 0.930 . S
C2859 C2858 1.394 . S
C2859 C2860 1.381 1_565 S
C2859 H2867 0.931 . S
C2860 C2859 1.381 1_545 S
C2860 C2861 1.377 . S
C2861 H2845 0.930 . S
C2861 C2860 1.377 . S
C2861 C2862 1.379 . S
C2862 H2846 0.931 . S
C2862 C2856 1.383 . S
C2862 C2861 1.379 . S
H2863 C2857 0.959 . S
H2864 C2857 0.961 . S
H2865 C2857 0.960 1_565 S
H2866 C2858 0.930 . S
H2867 C2859 0.931 . S
H2868 C2876 0.929 . S
H2869 C2878 0.930 . S
H2870 C2880 0.930 . S
H2871 C2883 0.929 . S
H2872 C2886 0.930 . S
H2873 C2888 0.960 . S
H2874 C2888 0.960 . S
H2875 C2888 0.960 . S
C2876 H2868 0.929 . S
C2876 C2877 1.377 . S
C2876 C2878 1.384 . S
C2877 C2876 1.377 . S
C2877 C2883 1.390 . S
C2878 H2869 0.930 . S
C2878 C2876 1.384 . S
C2878 C2879 1.372 . S
C2879 C2878 1.372 . S
C2879 C2880 1.400 . S
C2879 C2884 1.490 . S
C2880 H2870 0.930 . S
C2880 C2879 1.400 . S
C2880 C2883 1.386 . S
H2881 C2897 0.930 . S
H2882 C2898 0.931 . S
C2883 H2871 0.929 . S
C2883 C2877 1.390 . S
C2883 C2880 1.386 . S
C2884 C2879 1.490 . S
C2884 C2886 1.395 . S
C2884 C2887 1.403 . S
H2885 C2891 0.930 . S
C2886 H2872 0.930 . S
C2886 C2884 1.395 . S
C2886 C2889 1.403 . S
C2887 C2884 1.403 . S
C2887 C2888 1.524 . S
C2887 C2891 1.400 . S
C2888 H2873 0.960 . S
C2888 H2874 0.960 . S
C2888 H2875 0.960 . S
C2888 C2887 1.524 . S
C2889 C2886 1.403 . S
C2889 C2890 1.392 . S
C2889 C2893 1.495 . S
C2890 C2889 1.392 . S
C2890 C2891 1.385 . S
C2890 C2892 1.478 . S
C2891 H2885 0.930 . S
C2891 C2887 1.400 . S
C2891 C2890 1.385 . S
C2892 C2890 1.478 . S
C2892 C2894 1.381 . S
C2892 C2898 1.383 . S
C2893 C2889 1.495 . S
C2893 H2899 0.959 . S
C2893 H2900 0.961 . S
C2893 H2901 0.960 . S
C2894 C2892 1.381 . S
C2894 C2895 1.394 . S
C2894 H2902 0.930 . S
C2895 C2894 1.394 . S
C2895 C2896 1.383 . S
C2895 H2903 0.929 . S
C2896 C2895 1.383 . S
C2896 C2897 1.377 . S
C2897 H2881 0.930 . S
C2897 C2896 1.377 . S
C2897 C2898 1.379 . S
C2898 H2882 0.931 . S
C2898 C2892 1.383 . S
C2898 C2897 1.379 . S
H2899 C2893 0.959 . S
H2900 C2893 0.961 . S
H2901 C2893 0.960 . S
H2902 C2894 0.930 . S
H2903 C2895 0.929 . S
H2904 C2912 0.929 . S
H2905 C2914 0.930 . S
H2906 C2916 0.930 . S
H2907 C2919 0.929 . S
H2908 C2922 0.930 . S
H2909 C2924 0.960 1_565 S
H2910 C2924 0.960 . S
H2911 C2924 0.960 1_565 S
C2912 H2904 0.929 . S
C2912 C2913 1.377 . S
C2912 C2914 1.384 . S
C2913 C2912 1.377 . S
C2913 C2919 1.390 . S
C2914 H2905 0.930 . S
C2914 C2912 1.384 . S
C2914 C2915 1.372 . S
C2915 C2914 1.372 . S
C2915 C2916 1.400 . S
C2915 C2920 1.490 . S
C2916 H2906 0.930 . S
C2916 C2915 1.400 . S
C2916 C2919 1.386 . S
H2917 C2933 0.930 . S
H2918 C2934 0.931 . S
C2919 H2907 0.929 . S
C2919 C2913 1.390 . S
C2919 C2916 1.386 . S
C2920 C2915 1.490 . S
C2920 C2922 1.395 . S
C2920 C2923 1.403 . S
H2921 C2927 0.930 . S
C2922 H2908 0.930 . S
C2922 C2920 1.395 . S
C2922 C2925 1.403 . S
C2923 C2920 1.403 . S
C2923 C2924 1.524 . S
C2923 C2927 1.400 . S
C2924 H2909 0.960 1_545 S
C2924 H2910 0.960 . S
C2924 H2911 0.960 1_545 S
C2924 C2923 1.524 . S
C2925 C2922 1.403 . S
C2925 C2926 1.392 . S
C2925 C2929 1.495 . S
C2926 C2925 1.392 . S
C2926 C2927 1.385 . S
C2926 C2928 1.478 . S
C2927 H2921 0.930 . S
C2927 C2923 1.400 . S
C2927 C2926 1.385 . S
C2928 C2926 1.478 . S
C2928 C2930 1.381 . S
C2928 C2934 1.383 . S
C2929 C2925 1.495 . S
C2929 H2935 0.959 . S
C2929 H2936 0.961 . S
C2929 H2937 0.960 . S
C2930 C2928 1.381 . S
C2930 C2931 1.394 . S
C2930 H2938 0.930 . S
C2931 C2930 1.394 . S
C2931 C2932 1.383 . S
C2931 H2939 0.929 . S
C2932 C2931 1.383 . S
C2932 C2933 1.377 . S
C2933 H2917 0.930 . S
C2933 C2932 1.377 . S
C2933 C2934 1.379 . S
C2934 H2918 0.931 . S
C2934 C2928 1.383 . S
C2934 C2933 1.379 . S
H2935 C2929 0.959 . S
H2936 C2929 0.961 . S
H2937 C2929 0.960 . S
H2938 C2930 0.930 . S
H2939 C2931 0.929 . S
H2940 C2948 0.929 . S
H2941 C2950 0.930 . S
H2942 C2952 0.930 . S
H2943 C2955 0.929 . S
H2944 C2958 0.930 . S
H2945 C2960 0.960 . S
H2946 C2960 0.960 . S
H2947 C2960 0.960 . S
C2948 H2940 0.929 . S
C2948 C2949 1.377 . S
C2948 C2950 1.384 . S
C2949 C2948 1.377 . S
C2949 C2955 1.390 . S
C2950 H2941 0.930 . S
C2950 C2948 1.384 . S
C2950 C2951 1.372 . S
C2951 C2950 1.372 . S
C2951 C2952 1.400 . S
C2951 C2956 1.490 . S
C2952 H2942 0.930 . S
C2952 C2951 1.400 . S
C2952 C2955 1.386 . S
H2953 C2969 0.930 . S
H2954 C2970 0.931 . S
C2955 H2943 0.929 . S
C2955 C2949 1.390 . S
C2955 C2952 1.386 . S
C2956 C2951 1.490 . S
C2956 C2958 1.395 . S
C2956 C2959 1.403 . S
H2957 C2963 0.930 . S
C2958 H2944 0.930 . S
C2958 C2956 1.395 . S
C2958 C2961 1.403 . S
C2959 C2956 1.403 . S
C2959 C2960 1.524 . S
C2959 C2963 1.400 . S
C2960 H2945 0.960 . S
C2960 H2946 0.960 . S
C2960 H2947 0.960 . S
C2960 C2959 1.524 . S
C2961 C2958 1.403 . S
C2961 C2962 1.392 . S
C2961 C2965 1.495 . S
C2962 C2961 1.392 . S
C2962 C2963 1.385 . S
C2962 C2964 1.478 . S
C2963 H2957 0.930 . S
C2963 C2959 1.400 . S
C2963 C2962 1.385 . S
C2964 C2962 1.478 . S
C2964 C2966 1.381 . S
C2964 C2970 1.383 . S
C2965 C2961 1.495 . S
C2965 H2971 0.959 . S
C2965 H2972 0.961 . S
C2965 H2973 0.960 . S
C2966 C2964 1.381 . S
C2966 C2967 1.394 . S
C2966 H2974 0.930 . S
C2967 C2966 1.394 . S
C2967 C2968 1.383 . S
C2967 H2975 0.929 . S
C2968 C2967 1.383 . S
C2968 C2969 1.377 . S
C2969 H2953 0.930 . S
C2969 C2968 1.377 . S
C2969 C2970 1.379 . S
C2970 H2954 0.931 . S
C2970 C2964 1.383 . S
C2970 C2969 1.379 . S
H2971 C2965 0.959 . S
H2972 C2965 0.961 . S
H2973 C2965 0.960 . S
H2974 C2966 0.930 . S
H2975 C2967 0.929 . S
H2976 C2984 0.929 . S
H2977 C2986 0.930 . S
H2978 C2988 0.930 . S
H2979 C2991 0.929 . S
H2980 C2994 0.930 . S
H2981 C2996 0.960 . S
H2982 C2996 0.960 . S
H2983 C2996 0.960 . S
C2984 H2976 0.929 . S
C2984 C2985 1.377 1_545 S
C2984 C2986 1.384 . S
C2985 C2984 1.377 1_565 S
C2985 C2991 1.390 . S
C2986 H2977 0.930 . S
C2986 C2984 1.384 . S
C2986 C2987 1.372 . S
C2987 C2986 1.372 . S
C2987 C2988 1.400 1_545 S
C2987 C2992 1.490 . S
C2988 H2978 0.930 . S
C2988 C2987 1.400 1_565 S
C2988 C2991 1.386 . S
H2989 C3005 0.930 . S
H2990 C3006 0.931 . S
C2991 H2979 0.929 . S
C2991 C2985 1.390 . S
C2991 C2988 1.386 . S
C2992 C2987 1.490 . S
C2992 C2994 1.395 . S
C2992 C2995 1.403 1_545 S
H2993 C2999 0.922 1_565 S
C2994 H2980 0.930 . S
C2994 C2992 1.395 . S
C2994 C2997 1.403 . S
C2995 C2992 1.403 1_565 S
C2995 C2996 1.524 . S
C2995 C2999 1.391 1_565 S
C2996 H2981 0.960 . S
C2996 H2982 0.960 . S
C2996 H2983 0.960 . S
C2996 C2995 1.524 . S
C2997 C2994 1.403 . S
C2997 C2998 1.392 . S
C2997 C3001 1.495 . S
C2998 C2997 1.392 . S
C2998 C2999 1.402 . S
C2998 C3000 1.478 . S
C2999 H2993 0.922 1_545 S
C2999 C2995 1.391 1_545 S
C2999 C2998 1.402 . S
C3000 C2998 1.478 . S
C3000 C3002 1.381 . S
C3000 C3006 1.383 . S
C3001 C2997 1.495 . S
C3001 H3007 0.959 . S
C3001 H3008 0.961 . S
C3001 H3009 0.960 . S
C3002 C3000 1.381 . S
C3002 C3003 1.394 . S
C3002 H3010 0.930 . S
C3003 C3002 1.394 . S
C3003 C3004 1.383 . S
C3003 H3011 0.929 . S
C3004 C3003 1.383 . S
C3004 C3005 1.377 . S
C3005 H2989 0.930 . S
C3005 C3004 1.377 . S
C3005 C3006 1.379 . S
C3006 H2990 0.931 . S
C3006 C3000 1.383 . S
C3006 C3005 1.379 . S
H3007 C3001 0.959 . S
H3008 C3001 0.961 . S
H3009 C3001 0.960 . S
H3010 C3002 0.930 . S
H3011 C3003 0.929 . S
H3012 C3020 0.929 . S
H3013 C3022 0.930 . S
H3014 C3024 0.930 . S
H3015 C3027 0.929 . S
H3016 C3030 0.930 . S
H3017 C3032 0.960 . S
H3018 C3032 0.960 . S
H3019 C3032 0.960 . S
C3020 H3012 0.929 . S
C3020 C3021 1.377 . S
C3020 C3022 1.384 . S
C3021 C3020 1.377 . S
C3021 C3027 1.390 . S
C3022 H3013 0.930 . S
C3022 C3020 1.384 . S
C3022 C3023 1.372 . S
C3023 C3022 1.372 . S
C3023 C3024 1.400 . S
C3023 C3028 1.490 . S
C3024 H3014 0.930 . S
C3024 C3023 1.400 . S
C3024 C3027 1.386 . S
H3025 C3041 0.930 . S
H3026 C3042 0.931 . S
C3027 H3015 0.929 . S
C3027 C3021 1.390 . S
C3027 C3024 1.386 . S
C3028 C3023 1.490 . S
C3028 C3030 1.395 . S
C3028 C3031 1.403 . S
H3029 C3035 0.930 . S
C3030 H3016 0.930 . S
C3030 C3028 1.395 . S
C3030 C3033 1.403 . S
C3031 C3028 1.403 . S
C3031 C3032 1.524 . S
C3031 C3035 1.400 . S
C3032 H3017 0.960 . S
C3032 H3018 0.960 . S
C3032 H3019 0.960 . S
C3032 C3031 1.524 . S
C3033 C3030 1.403 . S
C3033 C3034 1.392 . S
C3033 C3037 1.495 . S
C3034 C3033 1.392 . S
C3034 C3035 1.385 . S
C3034 C3036 1.478 . S
C3035 H3029 0.930 . S
C3035 C3031 1.400 . S
C3035 C3034 1.385 . S
C3036 C3034 1.478 . S
C3036 C3038 1.381 . S
C3036 C3042 1.383 . S
C3037 C3033 1.495 . S
C3037 H3043 0.959 . S
C3037 H3044 0.961 . S
C3037 H3045 0.960 . S
C3038 C3036 1.381 . S
C3038 C3039 1.394 . S
C3038 H3046 0.930 . S
C3039 C3038 1.394 . S
C3039 C3040 1.383 . S
C3039 H3047 0.929 . S
C3040 C3039 1.383 . S
C3040 C3041 1.377 . S
C3041 H3025 0.930 . S
C3041 C3040 1.377 . S
C3041 C3042 1.379 . S
C3042 H3026 0.931 . S
C3042 C3036 1.383 . S
C3042 C3041 1.379 . S
H3043 C3037 0.959 . S
H3044 C3037 0.961 . S
H3045 C3037 0.960 . S
H3046 C3038 0.930 . S
H3047 C3039 0.929 . S
H3048 C3056 0.929 . S
H3049 C3058 0.930 . S
H3050 C3060 0.930 . S
H3051 C3063 0.929 . S
H3052 C3066 0.930 . S
H3053 C3068 0.960 . S
H3054 C3068 0.960 . S
H3055 C3068 0.960 . S
C3056 H3048 0.929 . S
C3056 C3057 1.377 . S
C3056 C3058 1.384 . S
C3057 C3056 1.377 . S
C3057 C3063 1.390 . S
C3058 H3049 0.930 . S
C3058 C3056 1.384 . S
C3058 C3059 1.372 . S
C3059 C3058 1.372 . S
C3059 C3060 1.400 . S
C3059 C3064 1.490 . S
C3060 H3050 0.930 . S
C3060 C3059 1.400 . S
C3060 C3063 1.386 . S
H3061 C3077 0.930 . S
H3062 C3078 0.931 . S
C3063 H3051 0.929 . S
C3063 C3057 1.390 . S
C3063 C3060 1.386 . S
C3064 C3059 1.490 . S
C3064 C3066 1.395 . S
C3064 C3067 1.403 . S
H3065 C3071 0.930 . S
C3066 H3052 0.930 . S
C3066 C3064 1.395 . S
C3066 C3069 1.403 . S
C3067 C3064 1.403 . S
C3067 C3068 1.524 . S
C3067 C3071 1.400 . S
C3068 H3053 0.960 . S
C3068 H3054 0.960 . S
C3068 H3055 0.960 . S
C3068 C3067 1.524 . S
C3069 C3066 1.403 . S
C3069 C3070 1.392 . S
C3069 C3073 1.495 1_545 S
C3070 C3069 1.392 . S
C3070 C3071 1.385 . S
C3070 C3072 1.478 . S
C3071 H3065 0.930 . S
C3071 C3067 1.400 . S
C3071 C3070 1.385 . S
C3072 C3070 1.478 . S
C3072 C3074 1.381 . S
C3072 C3078 1.383 . S
C3073 C3069 1.495 1_565 S
C3073 H3079 0.959 . S
C3073 H3080 0.961 . S
C3073 H3081 0.960 1_565 S
C3074 C3072 1.381 . S
C3074 C3075 1.394 . S
C3074 H3082 0.930 . S
C3075 C3074 1.394 . S
C3075 C3076 1.383 . S
C3075 H3083 0.929 . S
C3076 C3075 1.383 . S
C3076 C3077 1.377 . S
C3077 H3061 0.930 . S
C3077 C3076 1.377 . S
C3077 C3078 1.379 . S
C3078 H3062 0.931 . S
C3078 C3072 1.383 . S
C3078 C3077 1.379 . S
H3079 C3073 0.959 . S
H3080 C3073 0.961 . S
H3081 C3073 0.960 1_545 S
H3082 C3074 0.930 . S
H3083 C3075 0.929 . S
H3084 C3092 0.929 . S
H3085 C3094 0.930 . S
H3086 C3096 0.930 . S
H3087 C3099 0.929 . S
H3088 C3102 0.930 . S
H3089 C3104 0.960 . S
H3090 C3104 0.960 . S
H3091 C3104 0.960 . S
C3092 H3084 0.929 . S
C3092 C3093 1.377 . S
C3092 C3094 1.384 . S
C3093 C3092 1.377 . S
C3093 C3099 1.390 . S
C3094 H3085 0.930 . S
C3094 C3092 1.384 . S
C3094 C3095 1.372 . S
C3095 C3094 1.372 . S
C3095 C3096 1.400 . S
C3095 C3100 1.490 . S
C3096 H3086 0.930 . S
C3096 C3095 1.400 . S
C3096 C3099 1.386 . S
H3097 C3113 0.930 . S
H3098 C3114 0.931 . S
C3099 H3087 0.929 . S
C3099 C3093 1.390 . S
C3099 C3096 1.386 . S
C3100 C3095 1.490 . S
C3100 C3102 1.395 . S
C3100 C3103 1.403 . S
H3101 C3107 0.930 . S
C3102 H3088 0.930 . S
C3102 C3100 1.395 . S
C3102 C3105 1.403 . S
C3103 C3100 1.403 . S
C3103 C3104 1.524 . S
C3103 C3107 1.400 . S
C3104 H3089 0.960 . S
C3104 H3090 0.960 . S
C3104 H3091 0.960 . S
C3104 C3103 1.524 . S
C3105 C3102 1.403 . S
C3105 C3106 1.392 . S
C3105 C3109 1.495 . S
C3106 C3105 1.392 . S
C3106 C3107 1.385 . S
C3106 C3108 1.478 . S
C3107 H3101 0.930 . S
C3107 C3103 1.400 . S
C3107 C3106 1.385 . S
C3108 C3106 1.478 . S
C3108 C3110 1.381 . S
C3108 C3114 1.383 . S
C3109 C3105 1.495 . S
C3109 H3115 0.959 . S
C3109 H3116 0.961 . S
C3109 H3117 0.960 . S
C3110 C3108 1.381 . S
C3110 C3111 1.394 . S
C3110 H3118 0.930 . S
C3111 C3110 1.394 . S
C3111 C3112 1.383 . S
C3111 H3119 0.929 . S
C3112 C3111 1.383 . S
C3112 C3113 1.377 . S
C3113 H3097 0.930 . S
C3113 C3112 1.377 . S
C3113 C3114 1.379 . S
C3114 H3098 0.931 . S
C3114 C3108 1.383 . S
C3114 C3113 1.379 . S
H3115 C3109 0.959 . S
H3116 C3109 0.961 . S
H3117 C3109 0.960 . S
H3118 C3110 0.930 . S
H3119 C3111 0.929 . S
H3120 C3128 0.929 . S
H3121 C3130 0.930 . S
H3122 C3132 0.930 . S
H3123 C3135 0.929 . S
H3124 C3138 0.930 . S
H3125 C3140 0.960 . S
H3126 C3140 0.960 . S
H3127 C3140 0.960 . S
C3128 H3120 0.929 . S
C3128 C3129 1.377 . S
C3128 C3130 1.384 . S
C3129 C3128 1.377 . S
C3129 C3135 1.390 . S
C3130 H3121 0.930 . S
C3130 C3128 1.384 . S
C3130 C3131 1.372 . S
C3131 C3130 1.372 . S
C3131 C3132 1.400 . S
C3131 C3136 1.490 . S
C3132 H3122 0.930 . S
C3132 C3131 1.400 . S
C3132 C3135 1.386 . S
H3133 C3149 0.930 . S
H3134 C3150 0.931 . S
C3135 H3123 0.929 . S
C3135 C3129 1.390 . S
C3135 C3132 1.386 . S
C3136 C3131 1.490 . S
C3136 C3138 1.395 . S
C3136 C3139 1.403 . S
H3137 C3143 0.930 1_556 S
C3138 H3124 0.930 . S
C3138 C3136 1.395 . S
C3138 C3141 1.403 . S
C3139 C3136 1.403 . S
C3139 C3140 1.524 1_554 S
C3139 C3143 1.400 . S
C3140 H3125 0.960 . S
C3140 H3126 0.960 . S
C3140 H3127 0.960 . S
C3140 C3139 1.524 1_556 S
C3141 C3138 1.403 . S
C3141 C3142 1.392 . S
C3141 C3145 1.495 . S
C3142 C3141 1.392 . S
C3142 C3143 1.385 . S
C3142 C3144 1.478 . S
C3143 H3137 0.930 1_554 S
C3143 C3139 1.400 . S
C3143 C3142 1.385 . S
C3144 C3142 1.478 . S
C3144 C3146 1.381 . S
C3144 C3150 1.383 . S
C3145 C3141 1.495 . S
C3145 H3151 0.959 . S
C3145 H3152 0.961 . S
C3145 H3153 0.960 . S
C3146 C3144 1.381 . S
C3146 C3147 1.394 . S
C3146 H3154 0.930 . S
C3147 C3146 1.394 . S
C3147 C3148 1.383 . S
C3147 H3155 0.929 . S
C3148 C3147 1.383 . S
C3148 C3149 1.377 . S
C3149 H3133 0.930 . S
C3149 C3148 1.377 . S
C3149 C3150 1.379 . S
C3150 H3134 0.931 . S
C3150 C3144 1.383 . S
C3150 C3149 1.379 . S
H3151 C3145 0.959 . S
H3152 C3145 0.961 . S
H3153 C3145 0.960 . S
H3154 C3146 0.930 . S
H3155 C3147 0.929 . S
H3156 C3164 0.929 . S
H3157 C3166 0.930 . S
H3158 C3168 0.930 . S
H3159 C3171 0.929 . S
H3160 C3174 0.930 . S
H3161 C3176 0.960 . S
H3162 C3176 0.960 . S
H3163 C3176 0.960 . S
C3164 H3156 0.929 . S
C3164 C3165 1.377 . S
C3164 C3166 1.384 . S
C3165 C3164 1.377 . S
C3165 C3171 1.390 . S
C3166 H3157 0.930 . S
C3166 C3164 1.384 . S
C3166 C3167 1.372 . S
C3167 C3166 1.372 . S
C3167 C3168 1.400 . S
C3167 C3172 1.490 . S
C3168 H3158 0.930 . S
C3168 C3167 1.400 . S
C3168 C3171 1.386 . S
H3169 C3185 0.930 . S
H3170 C3186 0.931 . S
C3171 H3159 0.929 . S
C3171 C3165 1.390 . S
C3171 C3168 1.386 . S
C3172 C3167 1.490 . S
C3172 C3174 1.395 . S
C3172 C3175 1.403 . S
H3173 C3179 0.930 . S
C3174 H3160 0.930 . S
C3174 C3172 1.395 . S
C3174 C3177 1.403 . S
C3175 C3172 1.403 . S
C3175 C3176 1.524 . S
C3175 C3179 1.400 . S
C3176 H3161 0.960 . S
C3176 H3162 0.960 . S
C3176 H3163 0.960 . S
C3176 C3175 1.524 . S
C3177 C3174 1.403 . S
C3177 C3178 1.392 . S
C3177 C3181 1.495 . S
C3178 C3177 1.392 . S
C3178 C3179 1.385 . S
C3178 C3180 1.478 . S
C3179 H3173 0.930 . S
C3179 C3175 1.400 . S
C3179 C3178 1.385 . S
C3180 C3178 1.478 . S
C3180 C3182 1.381 . S
C3180 C3186 1.383 . S
C3181 C3177 1.495 . S
C3181 H3187 0.959 . S
C3181 H3188 0.961 . S
C3181 H3189 0.960 . S
C3182 C3180 1.381 . S
C3182 C3183 1.394 . S
C3182 H3190 0.930 . S
C3183 C3182 1.394 . S
C3183 C3184 1.383 . S
C3183 H3191 0.929 . S
C3184 C3183 1.383 . S
C3184 C3185 1.377 . S
C3185 H3169 0.930 . S
C3185 C3184 1.377 . S
C3185 C3186 1.379 . S
C3186 H3170 0.931 . S
C3186 C3180 1.383 . S
C3186 C3185 1.379 . S
H3187 C3181 0.959 . S
H3188 C3181 0.961 . S
H3189 C3181 0.960 . S
H3190 C3182 0.930 . S
H3191 C3183 0.929 . S
H3192 C3200 0.929 . S
H3193 C3202 0.930 . S
H3194 C3204 0.930 . S
H3195 C3207 0.929 . S
H3196 C3210 0.930 . S
H3197 C3212 0.960 . S
H3198 C3212 0.960 . S
H3199 C3212 0.960 . S
C3200 H3192 0.929 . S
C3200 C3201 1.377 . S
C3200 C3202 1.384 . S
C3201 C3200 1.377 . S
C3201 C3207 1.390 . S
C3202 H3193 0.930 . S
C3202 C3200 1.384 . S
C3202 C3203 1.372 . S
C3203 C3202 1.372 . S
C3203 C3204 1.400 . S
C3203 C3208 1.490 . S
C3204 H3194 0.930 . S
C3204 C3203 1.400 . S
C3204 C3207 1.386 . S
H3205 C3221 0.930 . S
H3206 C3222 0.931 . S
C3207 H3195 0.929 . S
C3207 C3201 1.390 . S
C3207 C3204 1.386 . S
C3208 C3203 1.490 . S
C3208 C3210 1.395 . S
C3208 C3211 1.403 . S
H3209 C3215 0.930 . S
C3210 H3196 0.930 . S
C3210 C3208 1.395 . S
C3210 C3213 1.403 . S
C3211 C3208 1.403 . S
C3211 C3212 1.524 . S
C3211 C3215 1.400 . S
C3212 H3197 0.960 . S
C3212 H3198 0.960 . S
C3212 H3199 0.960 . S
C3212 C3211 1.524 . S
C3213 C3210 1.403 . S
C3213 C3214 1.392 . S
C3213 C3217 1.495 . S
C3214 C3213 1.392 . S
C3214 C3215 1.385 . S
C3214 C3216 1.478 . S
C3215 H3209 0.930 . S
C3215 C3211 1.400 . S
C3215 C3214 1.385 . S
C3216 C3214 1.478 . S
C3216 C3218 1.381 . S
C3216 C3222 1.383 . S
C3217 C3213 1.495 . S
C3217 H3223 0.959 . S
C3217 H3224 0.961 . S
C3217 H3225 0.960 . S
C3218 C3216 1.381 . S
C3218 C3219 1.394 . S
C3218 H3226 0.930 . S
C3219 C3218 1.394 . S
C3219 C3220 1.383 . S
C3219 H3227 0.929 . S
C3220 C3219 1.383 . S
C3220 C3221 1.377 . S
C3221 H3205 0.930 . S
C3221 C3220 1.377 . S
C3221 C3222 1.379 . S
C3222 H3206 0.931 . S
C3222 C3216 1.383 . S
C3222 C3221 1.379 . S
H3223 C3217 0.959 . S
H3224 C3217 0.961 . S
H3225 C3217 0.960 . S
H3226 C3218 0.930 . S
H3227 C3219 0.929 . S
H3228 C3236 0.929 . S
H3229 C3238 0.930 . S
H3230 C3240 0.930 . S
H3231 C3243 0.929 . S
H3232 C3246 0.930 . S
H3233 C3248 0.960 . S
H3234 C3248 0.960 . S
H3235 C3248 0.960 . S
C3236 H3228 0.929 . S
C3236 C3237 1.377 . S
C3236 C3238 1.384 . S
C3237 C3236 1.377 . S
C3237 C3243 1.390 . S
C3238 H3229 0.930 . S
C3238 C3236 1.384 . S
C3238 C3239 1.372 . S
C3239 C3238 1.372 . S
C3239 C3240 1.400 . S
C3239 C3244 1.490 . S
C3240 H3230 0.930 . S
C3240 C3239 1.400 . S
C3240 C3243 1.386 . S
H3241 C3257 0.930 . S
H3242 C3258 0.931 . S
C3243 H3231 0.929 . S
C3243 C3237 1.390 . S
C3243 C3240 1.386 . S
C3244 C3239 1.490 . S
C3244 C3246 1.395 . S
C3244 C3247 1.403 . S
H3245 C3251 0.930 . S
C3246 H3232 0.930 . S
C3246 C3244 1.395 . S
C3246 C3249 1.403 . S
C3247 C3244 1.403 . S
C3247 C3248 1.524 . S
C3247 C3251 1.400 . S
C3248 H3233 0.960 . S
C3248 H3234 0.960 . S
C3248 H3235 0.960 . S
C3248 C3247 1.524 . S
C3249 C3246 1.403 . S
C3249 C3250 1.392 . S
C3249 C3253 1.495 . S
C3250 C3249 1.392 . S
C3250 C3251 1.385 . S
C3250 C3252 1.478 . S
C3251 H3245 0.930 . S
C3251 C3247 1.400 . S
C3251 C3250 1.385 . S
C3252 C3250 1.478 . S
C3252 C3254 1.381 . S
C3252 C3258 1.383 . S
C3253 C3249 1.495 . S
C3253 H3259 0.959 . S
C3253 H3260 0.961 . S
C3253 H3261 0.960 . S
C3254 C3252 1.381 . S
C3254 C3255 1.394 . S
C3254 H3262 0.930 . S
C3255 C3254 1.394 . S
C3255 C3256 1.383 . S
C3255 H3263 0.929 . S
C3256 C3255 1.383 . S
C3256 C3257 1.377 . S
C3257 H3241 0.930 . S
C3257 C3256 1.377 . S
C3257 C3258 1.379 . S
C3258 H3242 0.931 . S
C3258 C3252 1.383 . S
C3258 C3257 1.379 . S
H3259 C3253 0.959 . S
H3260 C3253 0.961 . S
H3261 C3253 0.960 . S
H3262 C3254 0.930 . S
H3263 C3255 0.929 . S
H3264 C3272 0.929 . S
H3265 C3274 0.930 . S
H3266 C3276 0.930 . S
H3267 C3279 0.929 1_545 S
H3268 C3282 0.930 . S
H3269 C3284 0.960 . S
H3270 C3284 0.960 . S
H3271 C3284 0.960 . S
C3272 H3264 0.929 . S
C3272 C3273 1.355 1_565 S
C3272 C3274 1.384 . S
C3273 C3272 1.355 1_545 S
C3273 C3279 1.376 1_545 S
C3274 H3265 0.930 . S
C3274 C3272 1.384 . S
C3274 C3275 1.372 . S
C3275 C3274 1.372 . S
C3275 C3276 1.400 . S
C3275 C3280 1.490 . S
C3276 H3266 0.930 . S
C3276 C3275 1.400 . S
C3276 C3279 1.386 . S
H3277 C3293 0.930 . S
H3278 C3294 0.931 . S
C3279 H3267 0.929 1_565 S
C3279 C3273 1.376 1_565 S
C3279 C3276 1.386 . S
C3280 C3275 1.490 . S
C3280 C3282 1.395 . S
C3280 C3283 1.403 . S
H3281 C3287 0.930 . S
C3282 H3268 0.930 . S
C3282 C3280 1.395 . S
C3282 C3285 1.403 . S
C3283 C3280 1.403 . S
C3283 C3284 1.524 . S
C3283 C3287 1.400 . S
C3284 H3269 0.960 . S
C3284 H3270 0.960 . S
C3284 H3271 0.960 . S
C3284 C3283 1.524 . S
C3285 C3282 1.403 . S
C3285 C3286 1.392 . S
C3285 C3289 1.495 . S
C3286 C3285 1.392 . S
C3286 C3287 1.385 . S
C3286 C3288 1.478 . S
C3287 H3281 0.930 . S
C3287 C3283 1.400 . S
C3287 C3286 1.385 . S
C3288 C3286 1.478 . S
C3288 C3290 1.381 . S
C3288 C3294 1.383 . S
C3289 C3285 1.495 . S
C3289 H3295 0.959 . S
C3289 H3296 0.961 . S
C3289 H3297 0.960 . S
C3290 C3288 1.381 . S
C3290 C3291 1.394 . S
C3290 H3298 0.930 . S
C3291 C3290 1.394 . S
C3291 C3292 1.383 . S
C3291 H3299 0.929 . S
C3292 C3291 1.383 . S
C3292 C3293 1.377 . S
C3293 H3277 0.930 . S
C3293 C3292 1.377 . S
C3293 C3294 1.379 . S
C3294 H3278 0.931 . S
C3294 C3288 1.383 . S
C3294 C3293 1.379 . S
H3295 C3289 0.959 . S
H3296 C3289 0.961 . S
H3297 C3289 0.960 . S
H3298 C3290 0.930 . S
H3299 C3291 0.929 . S
H3300 C3308 0.929 . S
H3301 C3310 0.930 . S
H3302 C3312 0.930 . S
H3303 C3315 0.929 . S
H3304 C3318 0.930 . S
H3305 C3320 0.960 . S
H3306 C3320 0.960 . S
H3307 C3320 0.960 . S
C3308 H3300 0.929 . S
C3308 C3309 1.377 . S
C3308 C3310 1.384 . S
C3309 C3308 1.377 . S
C3309 C3315 1.390 . S
C3310 H3301 0.930 . S
C3310 C3308 1.384 . S
C3310 C3311 1.372 . S
C3311 C3310 1.372 . S
C3311 C3312 1.400 . S
C3311 C3316 1.490 . S
C3312 H3302 0.930 . S
C3312 C3311 1.400 . S
C3312 C3315 1.386 . S
H3313 C3329 0.930 . S
H3314 C3330 0.931 . S
C3315 H3303 0.929 . S
C3315 C3309 1.390 . S
C3315 C3312 1.386 . S
C3316 C3311 1.490 . S
C3316 C3318 1.395 . S
C3316 C3319 1.403 . S
H3317 C3323 0.930 . S
C3318 H3304 0.930 . S
C3318 C3316 1.395 . S
C3318 C3321 1.403 . S
C3319 C3316 1.403 . S
C3319 C3320 1.524 . S
C3319 C3323 1.400 . S
C3320 H3305 0.960 . S
C3320 H3306 0.960 . S
C3320 H3307 0.960 . S
C3320 C3319 1.524 . S
C3321 C3318 1.403 . S
C3321 C3322 1.392 . S
C3321 C3325 1.495 . S
C3322 C3321 1.392 . S
C3322 C3323 1.385 . S
C3322 C3324 1.478 . S
C3323 H3317 0.930 . S
C3323 C3319 1.400 . S
C3323 C3322 1.385 . S
C3324 C3322 1.478 . S
C3324 C3326 1.381 . S
C3324 C3330 1.383 . S
C3325 C3321 1.495 . S
C3325 H3331 0.959 . S
C3325 H3332 0.961 . S
C3325 H3333 0.960 . S
C3326 C3324 1.381 . S
C3326 C3327 1.394 . S
C3326 H3334 0.930 . S
C3327 C3326 1.394 . S
C3327 C3328 1.383 . S
C3327 H3335 0.929 1_565 S
C3328 C3327 1.383 . S
C3328 C3329 1.377 . S
C3329 H3313 0.930 . S
C3329 C3328 1.377 . S
C3329 C3330 1.379 . S
C3330 H3314 0.931 . S
C3330 C3324 1.383 . S
C3330 C3329 1.379 . S
H3331 C3325 0.959 . S
H3332 C3325 0.961 . S
H3333 C3325 0.960 . S
H3334 C3326 0.930 . S
H3335 C3327 0.929 1_545 S
H3336 C3344 0.929 . S
H3337 C3346 0.930 . S
H3338 C3348 0.930 . S
H3339 C3351 0.929 . S
H3340 C3354 0.930 . S
H3341 C3356 0.960 . S
H3342 C3356 0.960 . S
H3343 C3356 0.960 . S
C3344 H3336 0.929 . S
C3344 C3345 1.377 . S
C3344 C3346 1.384 . S
C3345 C3344 1.377 . S
C3345 C3351 1.390 . S
C3346 H3337 0.930 . S
C3346 C3344 1.384 . S
C3346 C3347 1.372 . S
C3347 C3346 1.372 . S
C3347 C3348 1.400 . S
C3347 C3352 1.490 . S
C3348 H3338 0.930 . S
C3348 C3347 1.400 . S
C3348 C3351 1.386 . S
H3349 C3365 0.930 . S
H3350 C3366 0.931 . S
C3351 H3339 0.929 . S
C3351 C3345 1.390 . S
C3351 C3348 1.386 . S
C3352 C3347 1.490 . S
C3352 C3354 1.395 . S
C3352 C3355 1.403 . S
H3353 C3359 0.930 . S
C3354 H3340 0.930 . S
C3354 C3352 1.395 . S
C3354 C3357 1.403 . S
C3355 C3352 1.403 . S
C3355 C3356 1.524 . S
C3355 C3359 1.400 . S
C3356 H3341 0.960 . S
C3356 H3342 0.960 . S
C3356 H3343 0.960 . S
C3356 C3355 1.524 . S
C3357 C3354 1.403 . S
C3357 C3358 1.392 . S
C3357 C3361 1.495 . S
C3358 C3357 1.392 . S
C3358 C3359 1.385 . S
C3358 C3360 1.478 . S
C3359 H3353 0.930 . S
C3359 C3355 1.400 . S
C3359 C3358 1.385 . S
C3360 C3358 1.478 . S
C3360 C3362 1.381 . S
C3360 C3366 1.383 . S
C3361 C3357 1.495 . S
C3361 H3367 0.959 . S
C3361 H3368 0.961 . S
C3361 H3369 0.960 . S
C3362 C3360 1.381 . S
C3362 C3363 1.394 . S
C3362 H3370 0.930 . S
C3363 C3362 1.394 . S
C3363 C3364 1.383 . S
C3363 H3371 0.929 . S
C3364 C3363 1.383 . S
C3364 C3365 1.377 . S
C3365 H3349 0.930 . S
C3365 C3364 1.377 . S
C3365 C3366 1.379 . S
C3366 H3350 0.931 . S
C3366 C3360 1.383 . S
C3366 C3365 1.379 . S
H3367 C3361 0.959 . S
H3368 C3361 0.961 . S
H3369 C3361 0.960 . S
H3370 C3362 0.930 . S
H3371 C3363 0.929 . S
H3372 C3380 0.929 . S
H3373 C3382 0.930 . S
H3374 C3384 0.930 . S
H3375 C3387 0.929 . S
H3376 C3390 0.930 . S
H3377 C3392 0.960 . S
H3378 C3392 0.960 . S
H3379 C3392 0.960 . S
C3380 H3372 0.929 . S
C3380 C3381 1.377 . S
C3380 C3382 1.384 . S
C3381 C3380 1.377 . S
C3381 C3387 1.390 . S
C3382 H3373 0.930 . S
C3382 C3380 1.384 . S
C3382 C3383 1.372 . S
C3383 C3382 1.372 . S
C3383 C3384 1.400 . S
C3383 C3388 1.490 . S
C3384 H3374 0.930 . S
C3384 C3383 1.400 . S
C3384 C3387 1.386 . S
H3385 C3401 0.930 . S
H3386 C3402 0.931 . S
C3387 H3375 0.929 . S
C3387 C3381 1.390 . S
C3387 C3384 1.386 . S
C3388 C3383 1.490 . S
C3388 C3390 1.395 . S
C3388 C3391 1.403 . S
H3389 C3395 0.930 . S
C3390 H3376 0.930 . S
C3390 C3388 1.395 . S
C3390 C3393 1.403 . S
C3391 C3388 1.403 . S
C3391 C3392 1.524 . S
C3391 C3395 1.400 . S
C3392 H3377 0.960 . S
C3392 H3378 0.960 . S
C3392 H3379 0.960 . S
C3392 C3391 1.524 . S
C3393 C3390 1.403 . S
C3393 C3394 1.392 . S
C3393 C3397 1.495 . S
C3394 C3393 1.392 . S
C3394 C3395 1.385 . S
C3394 C3396 1.478 . S
C3395 H3389 0.930 . S
C3395 C3391 1.400 . S
C3395 C3394 1.385 . S
C3396 C3394 1.478 . S
C3396 C3398 1.381 . S
C3396 C3402 1.383 . S
C3397 C3393 1.495 . S
C3397 H3403 0.959 . S
C3397 H3404 0.961 . S
C3397 H3405 0.960 . S
C3398 C3396 1.381 . S
C3398 C3399 1.394 . S
C3398 H3406 0.930 . S
C3399 C3398 1.394 . S
C3399 C3400 1.383 . S
C3399 H3407 0.929 . S
C3400 C3399 1.383 . S
C3400 C3401 1.377 . S
C3401 H3385 0.930 . S
C3401 C3400 1.377 . S
C3401 C3402 1.379 . S
C3402 H3386 0.931 . S
C3402 C3396 1.383 . S
C3402 C3401 1.379 . S
H3403 C3397 0.959 . S
H3404 C3397 0.961 . S
H3405 C3397 0.960 . S
H3406 C3398 0.930 . S
H3407 C3399 0.929 . S
H3408 C3416 0.929 . S
H3409 C3418 0.930 . S
H3410 C3420 0.930 . S
H3411 C3423 0.929 . S
H3412 C3426 0.930 . S
H3413 C3428 0.960 . S
H3414 C3428 0.960 . S
H3415 C3428 0.960 . S
C3416 H3408 0.929 . S
C3416 C3417 1.377 . S
C3416 C3418 1.384 . S
C3417 C3416 1.377 . S
C3417 C3423 1.390 . S
C3418 H3409 0.930 . S
C3418 C3416 1.384 . S
C3418 C3419 1.372 . S
C3419 C3418 1.372 . S
C3419 C3420 1.400 . S
C3419 C3424 1.490 . S
C3420 H3410 0.930 . S
C3420 C3419 1.400 . S
C3420 C3423 1.386 . S
H3421 C3437 0.930 . S
H3422 C3438 0.931 . S
C3423 H3411 0.929 . S
C3423 C3417 1.390 . S
C3423 C3420 1.386 . S
C3424 C3419 1.490 . S
C3424 C3426 1.395 . S
C3424 C3427 1.403 . S
H3425 C3431 0.930 . S
C3426 H3412 0.930 . S
C3426 C3424 1.395 . S
C3426 C3429 1.403 . S
C3427 C3424 1.403 . S
C3427 C3428 1.524 . S
C3427 C3431 1.400 . S
C3428 H3413 0.960 . S
C3428 H3414 0.960 . S
C3428 H3415 0.960 . S
C3428 C3427 1.524 . S
C3429 C3426 1.403 . S
C3429 C3430 1.392 . S
C3429 C3433 1.495 . S
C3430 C3429 1.392 . S
C3430 C3431 1.385 . S
C3430 C3432 1.478 . S
C3431 H3425 0.930 . S
C3431 C3427 1.400 . S
C3431 C3430 1.385 . S
C3432 C3430 1.478 . S
C3432 C3434 1.381 . S
C3432 C3438 1.383 . S
C3433 C3429 1.495 . S
C3433 H3439 0.959 . S
C3433 H3440 0.961 . S
C3433 H3441 0.960 . S
C3434 C3432 1.381 . S
C3434 C3435 1.394 . S
C3434 H3442 0.930 . S
C3435 C3434 1.394 . S
C3435 C3436 1.383 . S
C3435 H3443 0.929 . S
C3436 C3435 1.383 . S
C3436 C3437 1.377 . S
C3437 H3421 0.930 . S
C3437 C3436 1.377 . S
C3437 C3438 1.379 . S
C3438 H3422 0.931 . S
C3438 C3432 1.383 . S
C3438 C3437 1.379 . S
H3439 C3433 0.959 . S
H3440 C3433 0.961 . S
H3441 C3433 0.960 . S
H3442 C3434 0.930 . S
H3443 C3435 0.929 . S
H3444 C3452 0.929 . S
H3445 C3454 0.930 . S
H3446 C3456 0.930 . S
H3447 C3459 0.929 . S
H3448 C3462 0.930 . S
H3449 C3464 0.960 . S
H3450 C3464 0.960 . S
H3451 C3464 0.960 . S
C3452 H3444 0.929 . S
C3452 C3453 1.377 . S
C3452 C3454 1.384 . S
C3453 C3452 1.377 . S
C3453 C3459 1.390 . S
C3454 H3445 0.930 . S
C3454 C3452 1.384 . S
C3454 C3455 1.372 . S
C3455 C3454 1.372 . S
C3455 C3456 1.400 . S
C3455 C3460 1.490 . S
C3456 H3446 0.930 . S
C3456 C3455 1.400 . S
C3456 C3459 1.386 . S
H3457 C3473 0.930 . S
H3458 C3474 0.931 . S
C3459 H3447 0.929 . S
C3459 C3453 1.390 . S
C3459 C3456 1.386 . S
C3460 C3455 1.490 . S
C3460 C3462 1.395 . S
C3460 C3463 1.403 . S
H3461 C3467 0.930 . S
C3462 H3448 0.930 . S
C3462 C3460 1.395 . S
C3462 C3465 1.403 . S
C3463 C3460 1.403 . S
C3463 C3464 1.524 . S
C3463 C3467 1.400 . S
C3464 H3449 0.960 . S
C3464 H3450 0.960 . S
C3464 H3451 0.960 . S
C3464 C3463 1.524 . S
C3465 C3462 1.403 . S
C3465 C3466 1.392 . S
C3465 C3469 1.495 . S
C3466 C3465 1.392 . S
C3466 C3467 1.385 . S
C3466 C3468 1.478 . S
C3467 H3461 0.930 . S
C3467 C3463 1.400 . S
C3467 C3466 1.385 . S
C3468 C3466 1.478 . S
C3468 C3470 1.381 . S
C3468 C3474 1.383 . S
C3469 C3465 1.495 . S
C3469 H3475 0.959 . S
C3469 H3476 0.961 . S
C3469 H3477 0.960 . S
C3470 C3468 1.381 . S
C3470 C3471 1.394 . S
C3470 H3478 0.930 . S
C3471 C3470 1.394 . S
C3471 C3472 1.383 . S
C3471 H3479 0.929 . S
C3472 C3471 1.383 . S
C3472 C3473 1.377 . S
C3473 H3457 0.930 . S
C3473 C3472 1.377 . S
C3473 C3474 1.379 . S
C3474 H3458 0.931 . S
C3474 C3468 1.383 . S
C3474 C3473 1.379 . S
H3475 C3469 0.959 . S
H3476 C3469 0.961 . S
H3477 C3469 0.960 . S
H3478 C3470 0.930 . S
H3479 C3471 0.929 . S
H3480 C3488 0.929 . S
H3481 C3490 0.930 . S
H3482 C3492 0.930 . S
H3483 C3495 0.929 . S
H3484 C3498 0.930 . S
H3485 C3500 0.960 . S
H3486 C3500 0.960 . S
H3487 C3500 0.960 . S
C3488 H3480 0.929 . S
C3488 C3489 1.377 . S
C3488 C3490 1.384 . S
C3489 C3488 1.377 . S
C3489 C3495 1.390 . S
C3490 H3481 0.930 . S
C3490 C3488 1.384 . S
C3490 C3491 1.372 . S
C3491 C3490 1.372 . S
C3491 C3492 1.400 . S
C3491 C3496 1.490 . S
C3492 H3482 0.930 . S
C3492 C3491 1.400 . S
C3492 C3495 1.386 . S
H3493 C3509 0.930 . S
H3494 C3510 0.931 . S
C3495 H3483 0.929 . S
C3495 C3489 1.390 . S
C3495 C3492 1.386 . S
C3496 C3491 1.490 . S
C3496 C3498 1.395 . S
C3496 C3499 1.403 . S
H3497 C3503 0.935 . S
C3498 H3484 0.930 . S
C3498 C3496 1.395 . S
C3498 C3501 1.403 . S
C3499 C3496 1.403 . S
C3499 C3500 1.524 . S
C3499 C3503 1.400 . S
C3500 H3485 0.960 . S
C3500 H3486 0.960 . S
C3500 H3487 0.960 . S
C3500 C3499 1.524 . S
C3501 C3498 1.403 . S
C3501 C3502 1.392 . S
C3501 C3505 1.495 1_455 S
C3502 C3501 1.392 . S
C3502 C3503 1.385 . S
C3502 C3504 1.485 . S
C3503 H3497 0.935 . S
C3503 C3499 1.400 . S
C3503 C3502 1.385 . S
C3504 C3502 1.485 . S
C3504 C3506 1.415 . S
C3504 C3510 1.343 1_556 S
C3505 C3501 1.495 1_655 S
C3505 H3511 0.959 . S
C3505 H3512 0.961 . S
C3505 H3513 0.959 1_655 S
C3506 C3504 1.415 . S
C3506 C3507 1.394 . S
C3506 H3514 0.930 . S
C3507 C3506 1.394 . S
C3507 C3508 1.383 1_556 S
C3507 H3515 0.929 . S
C3508 C3507 1.383 1_554 S
C3508 C3509 1.377 . S
C3509 H3493 0.930 . S
C3509 C3508 1.377 . S
C3509 C3510 1.379 . S
C3510 H3494 0.931 . S
C3510 C3504 1.343 1_554 S
C3510 C3509 1.379 . S
H3511 C3505 0.959 . S
H3512 C3505 0.961 . S
H3513 C3505 0.959 1_455 S
H3514 C3506 0.930 . S
H3515 C3507 0.929 . S
H3516 C3524 0.929 . S
H3517 C3526 0.930 . S
H3518 C3528 0.930 . S
H3519 C3531 0.929 . S
H3520 C3534 0.930 . S
H3521 C3536 0.960 . S
H3522 C3536 0.960 . S
H3523 C3536 0.960 . S
C3524 H3516 0.929 . S
C3524 C3525 1.377 . S
C3524 C3526 1.384 1_455 S
C3525 C3524 1.377 . S
C3525 C3531 1.390 . S
C3526 H3517 0.930 . S
C3526 C3524 1.384 1_655 S
C3526 C3527 1.372 . S
C3527 C3526 1.372 . S
C3527 C3528 1.400 1_655 S
C3527 C3532 1.490 . S
C3528 H3518 0.930 . S
C3528 C3527 1.400 1_455 S
C3528 C3531 1.386 . S
H3529 C3545 0.930 . S
H3530 C3546 0.931 . S
C3531 H3519 0.929 . S
C3531 C3525 1.390 . S
C3531 C3528 1.386 . S
C3532 C3527 1.490 . S
C3532 C3534 1.395 . S
C3532 C3535 1.403 . S
H3533 C3539 0.930 . S
C3534 H3520 0.930 . S
C3534 C3532 1.395 . S
C3534 C3537 1.403 . S
C3535 C3532 1.403 . S
C3535 C3536 1.524 . S
C3535 C3539 1.400 . S
C3536 H3521 0.960 . S
C3536 H3522 0.960 . S
C3536 H3523 0.960 . S
C3536 C3535 1.524 . S
C3537 C3534 1.403 . S
C3537 C3538 1.392 . S
C3537 C3541 1.495 . S
C3538 C3537 1.392 . S
C3538 C3539 1.385 . S
C3538 C3540 1.478 . S
C3539 H3533 0.930 . S
C3539 C3535 1.400 . S
C3539 C3538 1.385 . S
C3540 C3538 1.478 . S
C3540 C3542 1.381 . S
C3540 C3546 1.383 . S
C3541 C3537 1.495 . S
C3541 H3547 0.959 . S
C3541 H3548 0.961 . S
C3541 H3549 0.960 . S
C3542 C3540 1.381 . S
C3542 C3543 1.394 . S
C3542 H3550 0.930 . S
C3543 C3542 1.394 . S
C3543 C3544 1.383 . S
C3543 H3551 0.929 . S
C3544 C3543 1.383 . S
C3544 C3545 1.377 . S
C3545 H3529 0.930 . S
C3545 C3544 1.377 . S
C3545 C3546 1.379 . S
C3546 H3530 0.931 . S
C3546 C3540 1.383 . S
C3546 C3545 1.379 . S
H3547 C3541 0.959 . S
H3548 C3541 0.961 . S
H3549 C3541 0.960 . S
H3550 C3542 0.930 . S
H3551 C3543 0.929 . S
H3552 C3560 0.929 . S
H3553 C3562 0.930 . S
H3554 C3564 0.930 . S
H3555 C3567 0.929 . S
H3556 C3570 0.930 . S
H3557 C3572 0.960 . S
H3558 C3572 0.960 . S
H3559 C3572 0.960 . S
C3560 H3552 0.929 . S
C3560 C3561 1.377 . S
C3560 C3562 1.384 . S
C3561 C3560 1.377 . S
C3561 C3567 1.390 . S
C3562 H3553 0.930 . S
C3562 C3560 1.384 . S
C3562 C3563 1.372 . S
C3563 C3562 1.372 . S
C3563 C3564 1.400 . S
C3563 C3568 1.490 . S
C3564 H3554 0.930 . S
C3564 C3563 1.400 . S
C3564 C3567 1.386 . S
H3565 C3581 0.930 . S
H3566 C3582 0.931 . S
C3567 H3555 0.929 . S
C3567 C3561 1.390 . S
C3567 C3564 1.386 . S
C3568 C3563 1.490 . S
C3568 C3570 1.395 . S
C3568 C3571 1.403 . S
H3569 C3575 0.930 . S
C3570 H3556 0.930 . S
C3570 C3568 1.395 . S
C3570 C3573 1.403 . S
C3571 C3568 1.403 . S
C3571 C3572 1.524 . S
C3571 C3575 1.400 . S
C3572 H3557 0.960 . S
C3572 H3558 0.960 . S
C3572 H3559 0.960 . S
C3572 C3571 1.524 . S
C3573 C3570 1.403 . S
C3573 C3574 1.392 . S
C3573 C3577 1.495 . S
C3574 C3573 1.392 . S
C3574 C3575 1.385 . S
C3574 C3576 1.478 . S
C3575 H3569 0.930 . S
C3575 C3571 1.400 . S
C3575 C3574 1.385 . S
C3576 C3574 1.478 . S
C3576 C3578 1.381 . S
C3576 C3582 1.383 . S
C3577 C3573 1.495 . S
C3577 H3583 0.959 . S
C3577 H3584 0.961 . S
C3577 H3585 0.960 . S
C3578 C3576 1.381 . S
C3578 C3579 1.394 . S
C3578 H3586 0.930 . S
C3579 C3578 1.394 . S
C3579 C3580 1.383 . S
C3579 H3587 0.929 . S
C3580 C3579 1.383 . S
C3580 C3581 1.377 . S
C3581 H3565 0.930 . S
C3581 C3580 1.377 . S
C3581 C3582 1.379 . S
C3582 H3566 0.931 . S
C3582 C3576 1.383 . S
C3582 C3581 1.379 . S
H3583 C3577 0.959 . S
H3584 C3577 0.961 . S
H3585 C3577 0.960 . S
H3586 C3578 0.930 . S
H3587 C3579 0.929 . S
H3588 C3596 0.929 . S
H3589 C3598 0.930 . S
H3590 C3600 0.930 . S
H3591 C3603 0.929 . S
H3592 C3606 0.930 1_455 S
H3593 C3608 0.960 . S
H3594 C3608 0.960 . S
H3595 C3608 0.960 . S
C3596 H3588 0.929 . S
C3596 C3597 1.377 . S
C3596 C3598 1.384 . S
C3597 C3596 1.377 . S
C3597 C3603 1.390 . S
C3598 H3589 0.930 . S
C3598 C3596 1.384 . S
C3598 C3599 1.372 . S
C3599 C3598 1.372 . S
C3599 C3600 1.400 . S
C3599 C3604 1.490 1_455 S
C3600 H3590 0.930 . S
C3600 C3599 1.400 . S
C3600 C3603 1.386 . S
H3601 C3617 0.930 . S
H3602 C3618 0.931 . S
C3603 H3591 0.929 . S
C3603 C3597 1.390 . S
C3603 C3600 1.386 . S
C3604 C3599 1.490 1_655 S
C3604 C3606 1.395 . S
C3604 C3607 1.403 . S
H3605 C3611 0.930 . S
C3606 H3592 0.930 1_655 S
C3606 C3604 1.395 . S
C3606 C3609 1.403 . S
C3607 C3604 1.403 . S
C3607 C3608 1.524 . S
C3607 C3611 1.400 . S
C3608 H3593 0.960 . S
C3608 H3594 0.960 . S
C3608 H3595 0.960 . S
C3608 C3607 1.524 . S
C3609 C3606 1.403 . S
C3609 C3610 1.392 . S
C3609 C3613 1.495 . S
C3610 C3609 1.392 . S
C3610 C3611 1.385 . S
C3610 C3612 1.478 . S
C3611 H3605 0.930 . S
C3611 C3607 1.400 . S
C3611 C3610 1.385 . S
C3612 C3610 1.478 . S
C3612 C3614 1.381 . S
C3612 C3618 1.383 . S
C3613 C3609 1.495 . S
C3613 H3619 0.959 . S
C3613 H3620 0.961 . S
C3613 H3621 0.960 . S
C3614 C3612 1.381 . S
C3614 C3615 1.394 . S
C3614 H3622 0.930 . S
C3615 C3614 1.394 . S
C3615 C3616 1.383 . S
C3615 H3623 0.929 . S
C3616 C3615 1.383 . S
C3616 C3617 1.377 . S
C3617 H3601 0.930 . S
C3617 C3616 1.377 . S
C3617 C3618 1.379 . S
C3618 H3602 0.931 . S
C3618 C3612 1.383 . S
C3618 C3617 1.379 . S
H3619 C3613 0.959 . S
H3620 C3613 0.961 . S
H3621 C3613 0.960 . S
H3622 C3614 0.930 . S
H3623 C3615 0.929 . S
H3624 C3632 0.929 . S
H3625 C3634 0.942 . S
H3626 C3636 0.930 . S
H3627 C3639 0.929 . S
H3628 C3642 0.930 . S
H3629 C3644 0.960 . S
H3630 C3644 0.960 . S
H3631 C3644 0.960 . S
C3632 H3624 0.929 . S
C3632 C3633 1.377 . S
C3632 C3634 1.356 1_655 S
C3633 C3632 1.377 . S
C3633 C3639 1.390 . S
C3634 H3625 0.942 . S
C3634 C3632 1.356 1_455 S
C3634 C3635 1.393 . S
C3635 C3634 1.393 . S
C3635 C3636 1.400 . S
C3635 C3640 1.490 . S
C3636 H3626 0.930 . S
C3636 C3635 1.400 . S
C3636 C3639 1.386 1_455 S
H3637 C3653 0.930 . S
H3638 C3654 0.931 . S
C3639 H3627 0.929 . S
C3639 C3633 1.390 . S
C3639 C3636 1.386 1_655 S
C3640 C3635 1.490 . S
C3640 C3642 1.395 . S
C3640 C3643 1.403 1_455 S
H3641 C3647 0.930 1_655 S
C3642 H3628 0.930 . S
C3642 C3640 1.395 . S
C3642 C3645 1.403 . S
C3643 C3640 1.403 1_655 S
C3643 C3644 1.524 . S
C3643 C3647 1.400 1_655 S
C3644 H3629 0.960 . S
C3644 H3630 0.960 . S
C3644 H3631 0.960 . S
C3644 C3643 1.524 . S
C3645 C3642 1.403 . S
C3645 C3646 1.392 . S
C3645 C3649 1.495 . S
C3646 C3645 1.392 . S
C3646 C3647 1.385 . S
C3646 C3648 1.478 . S
C3647 H3641 0.930 1_455 S
C3647 C3643 1.400 1_455 S
C3647 C3646 1.385 . S
C3648 C3646 1.478 . S
C3648 C3650 1.381 . S
C3648 C3654 1.383 . S
C3649 C3645 1.495 . S
C3649 H3655 0.959 . S
C3649 H3656 0.961 . S
C3649 H3657 0.960 . S
C3650 C3648 1.381 . S
C3650 C3651 1.394 . S
C3650 H3658 0.930 . S
C3651 C3650 1.394 . S
C3651 C3652 1.383 . S
C3651 H3659 0.929 . S
C3652 C3651 1.383 . S
C3652 C3653 1.377 . S
C3653 H3637 0.930 . S
C3653 C3652 1.377 . S
C3653 C3654 1.379 . S
C3654 H3638 0.931 . S
C3654 C3648 1.383 . S
C3654 C3653 1.379 . S
H3655 C3649 0.959 . S
H3656 C3649 0.961 . S
H3657 C3649 0.960 . S
H3658 C3650 0.930 . S
H3659 C3651 0.929 . S
H3660 C3668 0.929 . S
H3661 C3670 0.930 . S
H3662 C3672 0.930 . S
H3663 C3675 0.929 . S
H3664 C3678 0.930 . S
H3665 C3680 0.960 . S
H3666 C3680 0.960 . S
H3667 C3680 0.960 . S
C3668 H3660 0.929 . S
C3668 C3669 1.377 . S
C3668 C3670 1.384 . S
C3669 C3668 1.377 . S
C3669 C3675 1.390 . S
C3670 H3661 0.930 . S
C3670 C3668 1.384 . S
C3670 C3671 1.372 . S
C3671 C3670 1.372 . S
C3671 C3672 1.400 . S
C3671 C3676 1.490 . S
C3672 H3662 0.930 . S
C3672 C3671 1.400 . S
C3672 C3675 1.386 . S
H3673 C3689 0.930 . S
H3674 C3690 0.931 . S
C3675 H3663 0.929 . S
C3675 C3669 1.390 . S
C3675 C3672 1.386 . S
C3676 C3671 1.490 . S
C3676 C3678 1.395 . S
C3676 C3679 1.403 . S
H3677 C3683 0.930 . S
C3678 H3664 0.930 . S
C3678 C3676 1.395 . S
C3678 C3681 1.403 . S
C3679 C3676 1.403 . S
C3679 C3680 1.524 . S
C3679 C3683 1.400 . S
C3680 H3665 0.960 . S
C3680 H3666 0.960 . S
C3680 H3667 0.960 . S
C3680 C3679 1.524 . S
C3681 C3678 1.403 . S
C3681 C3682 1.392 . S
C3681 C3685 1.495 . S
C3682 C3681 1.392 . S
C3682 C3683 1.385 . S
C3682 C3684 1.478 . S
C3683 H3677 0.930 . S
C3683 C3679 1.400 . S
C3683 C3682 1.385 . S
C3684 C3682 1.478 . S
C3684 C3686 1.381 . S
C3684 C3690 1.383 . S
C3685 C3681 1.495 . S
C3685 H3691 0.959 . S
C3685 H3692 0.961 . S
C3685 H3693 0.960 . S
C3686 C3684 1.381 . S
C3686 C3687 1.394 . S
C3686 H3694 0.930 . S
C3687 C3686 1.394 . S
C3687 C3688 1.383 . S
C3687 H3695 0.929 . S
C3688 C3687 1.383 . S
C3688 C3689 1.377 . S
C3689 H3673 0.930 . S
C3689 C3688 1.377 . S
C3689 C3690 1.379 . S
C3690 H3674 0.931 . S
C3690 C3684 1.383 . S
C3690 C3689 1.379 . S
H3691 C3685 0.959 . S
H3692 C3685 0.961 . S
H3693 C3685 0.960 . S
H3694 C3686 0.930 . S
H3695 C3687 0.929 . S
H3696 C3704 0.929 . S
H3697 C3706 0.930 . S
H3698 C3708 0.930 . S
H3699 C3711 0.929 . S
H3700 C3714 0.930 . S
H3701 C3716 0.960 . S
H3702 C3716 0.960 . S
H3703 C3716 0.960 . S
C3704 H3696 0.929 . S
C3704 C3705 1.377 . S
C3704 C3706 1.384 . S
C3705 C3704 1.377 . S
C3705 C3711 1.390 . S
C3706 H3697 0.930 . S
C3706 C3704 1.384 . S
C3706 C3707 1.372 . S
C3707 C3706 1.372 . S
C3707 C3708 1.400 . S
C3707 C3712 1.490 . S
C3708 H3698 0.930 . S
C3708 C3707 1.400 . S
C3708 C3711 1.386 . S
H3709 C3725 0.930 . S
H3710 C3726 0.931 . S
C3711 H3699 0.929 . S
C3711 C3705 1.390 . S
C3711 C3708 1.386 . S
C3712 C3707 1.490 . S
C3712 C3714 1.395 . S
C3712 C3715 1.403 . S
H3713 C3719 0.930 . S
C3714 H3700 0.930 . S
C3714 C3712 1.395 . S
C3714 C3717 1.403 . S
C3715 C3712 1.403 . S
C3715 C3716 1.524 . S
C3715 C3719 1.400 . S
C3716 H3701 0.960 . S
C3716 H3702 0.960 . S
C3716 H3703 0.960 . S
C3716 C3715 1.524 . S
C3717 C3714 1.403 . S
C3717 C3718 1.392 . S
C3717 C3721 1.495 . S
C3718 C3717 1.392 . S
C3718 C3719 1.385 . S
C3718 C3720 1.478 . S
C3719 H3713 0.930 . S
C3719 C3715 1.400 . S
C3719 C3718 1.385 . S
C3720 C3718 1.478 . S
C3720 C3722 1.381 . S
C3720 C3726 1.383 . S
C3721 C3717 1.495 . S
C3721 H3727 0.959 . S
C3721 H3728 0.961 . S
C3721 H3729 0.960 . S
C3722 C3720 1.381 . S
C3722 C3723 1.394 . S
C3722 H3730 0.930 . S
C3723 C3722 1.394 . S
C3723 C3724 1.383 . S
C3723 H3731 0.929 . S
C3724 C3723 1.383 . S
C3724 C3725 1.377 . S
C3725 H3709 0.930 . S
C3725 C3724 1.377 . S
C3725 C3726 1.379 . S
C3726 H3710 0.931 . S
C3726 C3720 1.383 . S
C3726 C3725 1.379 . S
H3727 C3721 0.959 . S
H3728 C3721 0.961 . S
H3729 C3721 0.960 . S
H3730 C3722 0.930 . S
H3731 C3723 0.929 . S
H3732 C3740 0.929 . S
H3733 C3742 0.930 . S
H3734 C3744 0.930 . S
H3735 C3747 0.929 . S
H3736 C3750 0.930 . S
H3737 C3752 0.960 . S
H3738 C3752 0.960 . S
H3739 C3752 0.960 . S
C3740 H3732 0.929 . S
C3740 C3741 1.377 . S
C3740 C3742 1.384 . S
C3741 C3740 1.377 . S
C3741 C3747 1.390 . S
C3742 H3733 0.930 . S
C3742 C3740 1.384 . S
C3742 C3743 1.372 . S
C3743 C3742 1.372 . S
C3743 C3744 1.400 . S
C3743 C3748 1.490 . S
C3744 H3734 0.930 . S
C3744 C3743 1.400 . S
C3744 C3747 1.386 . S
H3745 C3761 0.930 . S
H3746 C3762 0.931 . S
C3747 H3735 0.929 . S
C3747 C3741 1.390 . S
C3747 C3744 1.386 . S
C3748 C3743 1.490 . S
C3748 C3750 1.395 . S
C3748 C3751 1.403 . S
H3749 C3755 0.930 . S
C3750 H3736 0.930 . S
C3750 C3748 1.395 . S
C3750 C3753 1.403 . S
C3751 C3748 1.403 . S
C3751 C3752 1.524 . S
C3751 C3755 1.400 . S
C3752 H3737 0.960 . S
C3752 H3738 0.960 . S
C3752 H3739 0.960 . S
C3752 C3751 1.524 . S
C3753 C3750 1.403 . S
C3753 C3754 1.392 . S
C3753 C3757 1.495 . S
C3754 C3753 1.392 . S
C3754 C3755 1.385 . S
C3754 C3756 1.478 . S
C3755 H3749 0.930 . S
C3755 C3751 1.400 . S
C3755 C3754 1.385 . S
C3756 C3754 1.478 . S
C3756 C3758 1.381 . S
C3756 C3762 1.383 . S
C3757 C3753 1.495 . S
C3757 H3763 0.959 . S
C3757 H3764 0.961 . S
C3757 H3765 0.960 . S
C3758 C3756 1.381 . S
C3758 C3759 1.394 . S
C3758 H3766 0.930 . S
C3759 C3758 1.394 . S
C3759 C3760 1.383 . S
C3759 H3767 0.929 . S
C3760 C3759 1.383 . S
C3760 C3761 1.377 . S
C3761 H3745 0.930 . S
C3761 C3760 1.377 . S
C3761 C3762 1.379 . S
C3762 H3746 0.931 . S
C3762 C3756 1.383 . S
C3762 C3761 1.379 . S
H3763 C3757 0.959 . S
H3764 C3757 0.961 . S
H3765 C3757 0.960 . S
H3766 C3758 0.930 . S
H3767 C3759 0.929 . S
H3768 C3776 0.929 . S
H3769 C3778 0.930 . S
H3770 C3780 0.930 . S
H3771 C3783 0.929 . S
H3772 C3786 0.930 . S
H3773 C3788 0.960 . S
H3774 C3788 0.960 . S
H3775 C3788 0.960 . S
C3776 H3768 0.929 . S
C3776 C3777 1.377 . S
C3776 C3778 1.384 . S
C3777 C3776 1.377 . S
C3777 C3783 1.390 . S
C3778 H3769 0.930 . S
C3778 C3776 1.384 . S
C3778 C3779 1.372 . S
C3779 C3778 1.372 . S
C3779 C3780 1.400 . S
C3779 C3784 1.490 . S
C3780 H3770 0.930 . S
C3780 C3779 1.400 . S
C3780 C3783 1.386 . S
H3781 C3797 0.930 . S
H3782 C3798 0.931 . S
C3783 H3771 0.929 . S
C3783 C3777 1.390 . S
C3783 C3780 1.386 . S
C3784 C3779 1.490 . S
C3784 C3786 1.395 . S
C3784 C3787 1.403 . S
H3785 C3791 0.930 . S
C3786 H3772 0.930 . S
C3786 C3784 1.395 . S
C3786 C3789 1.403 . S
C3787 C3784 1.403 . S
C3787 C3788 1.524 . S
C3787 C3791 1.400 . S
C3788 H3773 0.960 . S
C3788 H3774 0.960 . S
C3788 H3775 0.960 . S
C3788 C3787 1.524 . S
C3789 C3786 1.403 . S
C3789 C3790 1.392 . S
C3789 C3793 1.495 . S
C3790 C3789 1.392 . S
C3790 C3791 1.385 . S
C3790 C3792 1.478 . S
C3791 H3785 0.930 . S
C3791 C3787 1.400 . S
C3791 C3790 1.385 . S
C3792 C3790 1.478 . S
C3792 C3794 1.381 . S
C3792 C3798 1.383 . S
C3793 C3789 1.495 . S
C3793 H3799 0.959 . S
C3793 H3800 0.961 . S
C3793 H3801 0.960 . S
C3794 C3792 1.381 . S
C3794 C3795 1.394 . S
C3794 H3802 0.930 . S
C3795 C3794 1.394 . S
C3795 C3796 1.383 . S
C3795 H3803 0.929 . S
C3796 C3795 1.383 . S
C3796 C3797 1.377 . S
C3797 H3781 0.930 . S
C3797 C3796 1.377 . S
C3797 C3798 1.379 . S
C3798 H3782 0.931 . S
C3798 C3792 1.383 . S
C3798 C3797 1.379 . S
H3799 C3793 0.959 . S
H3800 C3793 0.961 . S
H3801 C3793 0.960 . S
H3802 C3794 0.930 . S
H3803 C3795 0.929 . S
H3804 C3812 0.929 . S
H3805 C3814 0.930 . S
H3806 C3816 0.930 . S
H3807 C3819 0.929 . S
H3808 C3822 0.930 . S
H3809 C3824 0.960 . S
H3810 C3824 0.960 . S
H3811 C3824 0.960 . S
C3812 H3804 0.929 . S
C3812 C3813 1.377 . S
C3812 C3814 1.384 . S
C3813 C3812 1.377 . S
C3813 C3819 1.390 . S
C3814 H3805 0.930 . S
C3814 C3812 1.384 . S
C3814 C3815 1.372 . S
C3815 C3814 1.372 . S
C3815 C3816 1.400 . S
C3815 C3820 1.490 . S
C3816 H3806 0.930 . S
C3816 C3815 1.400 . S
C3816 C3819 1.386 . S
H3817 C3833 0.930 . S
H3818 C3834 0.931 . S
C3819 H3807 0.929 . S
C3819 C3813 1.390 . S
C3819 C3816 1.386 . S
C3820 C3815 1.490 . S
C3820 C3822 1.395 . S
C3820 C3823 1.403 . S
H3821 C3827 0.930 . S
C3822 H3808 0.930 . S
C3822 C3820 1.395 . S
C3822 C3825 1.403 . S
C3823 C3820 1.403 . S
C3823 C3824 1.524 . S
C3823 C3827 1.400 . S
C3824 H3809 0.960 . S
C3824 H3810 0.960 . S
C3824 H3811 0.960 . S
C3824 C3823 1.524 . S
C3825 C3822 1.403 . S
C3825 C3826 1.392 . S
C3825 C3829 1.495 . S
C3826 C3825 1.392 . S
C3826 C3827 1.385 . S
C3826 C3828 1.478 . S
C3827 H3821 0.930 . S
C3827 C3823 1.400 . S
C3827 C3826 1.385 . S
C3828 C3826 1.478 . S
C3828 C3830 1.381 . S
C3828 C3834 1.383 . S
C3829 C3825 1.495 . S
C3829 H3835 0.959 . S
C3829 H3836 0.961 . S
C3829 H3837 0.960 . S
C3830 C3828 1.381 . S
C3830 C3831 1.394 . S
C3830 H3838 0.930 . S
C3831 C3830 1.394 . S
C3831 C3832 1.383 . S
C3831 H3839 0.929 . S
C3832 C3831 1.383 . S
C3832 C3833 1.377 . S
C3833 H3817 0.930 . S
C3833 C3832 1.377 . S
C3833 C3834 1.379 . S
C3834 H3818 0.931 . S
C3834 C3828 1.383 . S
C3834 C3833 1.379 . S
H3835 C3829 0.959 . S
H3836 C3829 0.961 . S
H3837 C3829 0.960 . S
H3838 C3830 0.930 . S
H3839 C3831 0.929 . S
H3840 C3848 0.929 . S
H3841 C3850 0.930 . S
H3842 C3852 0.930 . S
H3843 C3855 0.929 . S
H3844 C3858 0.930 . S
H3845 C3860 0.960 . S
H3846 C3860 0.960 . S
H3847 C3860 0.960 . S
C3848 H3840 0.929 . S
C3848 C3849 1.377 . S
C3848 C3850 1.384 . S
C3849 C3848 1.377 . S
C3849 C3855 1.390 . S
C3850 H3841 0.930 . S
C3850 C3848 1.384 . S
C3850 C3851 1.372 . S
C3851 C3850 1.372 . S
C3851 C3852 1.400 . S
C3851 C3856 1.490 . S
C3852 H3842 0.930 . S
C3852 C3851 1.400 . S
C3852 C3855 1.386 . S
H3853 C3869 0.930 . S
H3854 C3870 0.931 . S
C3855 H3843 0.929 . S
C3855 C3849 1.390 . S
C3855 C3852 1.386 . S
C3856 C3851 1.490 . S
C3856 C3858 1.395 . S
C3856 C3859 1.403 . S
H3857 C3863 0.930 . S
C3858 H3844 0.930 . S
C3858 C3856 1.395 . S
C3858 C3861 1.403 . S
C3859 C3856 1.403 . S
C3859 C3860 1.524 . S
C3859 C3863 1.400 . S
C3860 H3845 0.960 . S
C3860 H3846 0.960 . S
C3860 H3847 0.960 . S
C3860 C3859 1.524 . S
C3861 C3858 1.403 . S
C3861 C3862 1.392 . S
C3861 C3865 1.495 . S
C3862 C3861 1.392 . S
C3862 C3863 1.385 . S
C3862 C3864 1.478 . S
C3863 H3857 0.930 . S
C3863 C3859 1.400 . S
C3863 C3862 1.385 . S
C3864 C3862 1.478 . S
C3864 C3866 1.381 . S
C3864 C3870 1.383 . S
C3865 C3861 1.495 . S
C3865 H3871 0.959 . S
C3865 H3872 0.961 . S
C3865 H3873 0.960 . S
C3866 C3864 1.381 . S
C3866 C3867 1.394 . S
C3866 H3874 0.930 . S
C3867 C3866 1.394 . S
C3867 C3868 1.383 . S
C3867 H3875 0.929 . S
C3868 C3867 1.383 . S
C3868 C3869 1.377 . S
C3869 H3853 0.930 . S
C3869 C3868 1.377 . S
C3869 C3870 1.379 . S
C3870 H3854 0.931 . S
C3870 C3864 1.383 . S
C3870 C3869 1.379 . S
H3871 C3865 0.959 . S
H3872 C3865 0.961 . S
H3873 C3865 0.960 . S
H3874 C3866 0.930 . S
H3875 C3867 0.929 . S
H3876 C3884 0.929 . S
H3877 C3886 0.930 . S
H3878 C3888 0.930 . S
H3879 C3891 0.929 . S
H3880 C3894 0.930 . S
H3881 C3896 0.960 . S
H3882 C3896 0.960 . S
H3883 C3896 0.960 . S
C3884 H3876 0.929 . S
C3884 C3885 1.377 . S
C3884 C3886 1.384 . S
C3885 C3884 1.377 . S
C3885 C3891 1.390 . S
C3886 H3877 0.930 . S
C3886 C3884 1.384 . S
C3886 C3887 1.372 . S
C3887 C3886 1.372 . S
C3887 C3888 1.400 . S
C3887 C3892 1.490 . S
C3888 H3878 0.930 . S
C3888 C3887 1.400 . S
C3888 C3891 1.386 . S
H3889 C3905 0.930 . S
H3890 C3906 0.931 . S
C3891 H3879 0.929 . S
C3891 C3885 1.390 . S
C3891 C3888 1.386 . S
C3892 C3887 1.490 . S
C3892 C3894 1.395 . S
C3892 C3895 1.403 . S
H3893 C3899 0.930 . S
C3894 H3880 0.930 . S
C3894 C3892 1.395 . S
C3894 C3897 1.403 . S
C3895 C3892 1.403 . S
C3895 C3896 1.524 . S
C3895 C3899 1.400 . S
C3896 H3881 0.960 . S
C3896 H3882 0.960 . S
C3896 H3883 0.960 . S
C3896 C3895 1.524 . S
C3897 C3894 1.403 . S
C3897 C3898 1.392 . S
C3897 C3901 1.495 . S
C3898 C3897 1.392 . S
C3898 C3899 1.385 . S
C3898 C3900 1.478 . S
C3899 H3893 0.930 . S
C3899 C3895 1.400 . S
C3899 C3898 1.385 . S
C3900 C3898 1.478 . S
C3900 C3902 1.381 . S
C3900 C3906 1.383 . S
C3901 C3897 1.495 . S
C3901 H3907 0.959 . S
C3901 H3908 0.961 . S
C3901 H3909 0.960 . S
C3902 C3900 1.381 . S
C3902 C3903 1.394 . S
C3902 H3910 0.930 . S
C3903 C3902 1.394 . S
C3903 C3904 1.383 . S
C3903 H3911 0.929 . S
C3904 C3903 1.383 . S
C3904 C3905 1.377 . S
C3905 H3889 0.930 . S
C3905 C3904 1.377 . S
C3905 C3906 1.379 . S
C3906 H3890 0.931 . S
C3906 C3900 1.383 . S
C3906 C3905 1.379 . S
H3907 C3901 0.959 . S
H3908 C3901 0.961 . S
H3909 C3901 0.960 . S
H3910 C3902 0.930 . S
H3911 C3903 0.929 . S
H3912 C3920 0.929 . S
H3913 C3922 0.930 . S
H3914 C3924 0.930 . S
H3915 C3927 0.929 . S
H3916 C3930 0.930 . S
H3917 C3932 0.960 . S
H3918 C3932 0.960 . S
H3919 C3932 0.960 . S
C3920 H3912 0.929 . S
C3920 C3921 1.377 . S
C3920 C3922 1.384 . S
C3921 C3920 1.377 . S
C3921 C3927 1.390 . S
C3922 H3913 0.930 . S
C3922 C3920 1.384 . S
C3922 C3923 1.372 . S
C3923 C3922 1.372 . S
C3923 C3924 1.400 . S
C3923 C3928 1.490 . S
C3924 H3914 0.930 . S
C3924 C3923 1.400 . S
C3924 C3927 1.386 . S
H3925 C3941 0.930 . S
H3926 C3942 0.931 . S
C3927 H3915 0.929 . S
C3927 C3921 1.390 . S
C3927 C3924 1.386 . S
C3928 C3923 1.490 . S
C3928 C3930 1.395 . S
C3928 C3931 1.403 . S
H3929 C3935 0.930 . S
C3930 H3916 0.930 . S
C3930 C3928 1.395 . S
C3930 C3933 1.403 . S
C3931 C3928 1.403 . S
C3931 C3932 1.524 . S
C3931 C3935 1.400 . S
C3932 H3917 0.960 . S
C3932 H3918 0.960 . S
C3932 H3919 0.960 . S
C3932 C3931 1.524 . S
C3933 C3930 1.403 . S
C3933 C3934 1.392 . S
C3933 C3937 1.495 . S
C3934 C3933 1.392 . S
C3934 C3935 1.385 . S
C3934 C3936 1.478 . S
C3935 H3929 0.930 . S
C3935 C3931 1.400 . S
C3935 C3934 1.385 . S
C3936 C3934 1.478 . S
C3936 C3938 1.381 . S
C3936 C3942 1.383 . S
C3937 C3933 1.495 . S
C3937 H3943 0.959 . S
C3937 H3944 0.961 . S
C3937 H3945 0.960 . S
C3938 C3936 1.381 . S
C3938 C3939 1.394 . S
C3938 H3946 0.930 . S
C3939 C3938 1.394 . S
C3939 C3940 1.383 . S
C3939 H3947 0.929 . S
C3940 C3939 1.383 . S
C3940 C3941 1.377 . S
C3941 H3925 0.930 . S
C3941 C3940 1.377 . S
C3941 C3942 1.379 . S
C3942 H3926 0.931 . S
C3942 C3936 1.383 . S
C3942 C3941 1.379 . S
H3943 C3937 0.959 . S
H3944 C3937 0.961 . S
H3945 C3937 0.960 . S
H3946 C3938 0.930 . S
H3947 C3939 0.929 . S
H3948 C3956 0.929 . S
H3949 C3958 0.930 . S
H3950 C3960 0.930 . S
H3951 C3963 0.929 . S
H3952 C3966 0.930 . S
H3953 C3968 0.960 . S
H3954 C3968 0.960 . S
H3955 C3968 0.960 . S
C3956 H3948 0.929 . S
C3956 C3957 1.377 . S
C3956 C3958 1.384 . S
C3957 C3956 1.377 . S
C3957 C3963 1.390 . S
C3958 H3949 0.930 . S
C3958 C3956 1.384 . S
C3958 C3959 1.372 . S
C3959 C3958 1.372 . S
C3959 C3960 1.400 . S
C3959 C3964 1.490 . S
C3960 H3950 0.930 . S
C3960 C3959 1.400 . S
C3960 C3963 1.386 . S
H3961 C3977 0.930 . S
H3962 C3978 0.931 . S
C3963 H3951 0.929 . S
C3963 C3957 1.390 . S
C3963 C3960 1.386 . S
C3964 C3959 1.490 . S
C3964 C3966 1.395 . S
C3964 C3967 1.403 . S
H3965 C3971 0.930 . S
C3966 H3952 0.930 . S
C3966 C3964 1.395 . S
C3966 C3969 1.403 . S
C3967 C3964 1.403 . S
C3967 C3968 1.524 . S
C3967 C3971 1.400 . S
C3968 H3953 0.960 . S
C3968 H3954 0.960 . S
C3968 H3955 0.960 . S
C3968 C3967 1.524 . S
C3969 C3966 1.403 . S
C3969 C3970 1.392 . S
C3969 C3973 1.495 . S
C3970 C3969 1.392 . S
C3970 C3971 1.385 . S
C3970 C3972 1.478 . S
C3971 H3965 0.930 . S
C3971 C3967 1.400 . S
C3971 C3970 1.385 . S
C3972 C3970 1.478 . S
C3972 C3974 1.381 . S
C3972 C3978 1.383 . S
C3973 C3969 1.495 . S
C3973 H3979 0.959 . S
C3973 H3980 0.961 . S
C3973 H3981 0.960 . S
C3974 C3972 1.381 . S
C3974 C3975 1.394 . S
C3974 H3982 0.930 . S
C3975 C3974 1.394 . S
C3975 C3976 1.383 . S
C3975 H3983 0.929 . S
C3976 C3975 1.383 . S
C3976 C3977 1.377 . S
C3977 H3961 0.930 . S
C3977 C3976 1.377 . S
C3977 C3978 1.379 . S
C3978 H3962 0.931 . S
C3978 C3972 1.383 . S
C3978 C3977 1.379 . S
H3979 C3973 0.959 . S
H3980 C3973 0.961 . S
H3981 C3973 0.960 . S
H3982 C3974 0.930 . S
H3983 C3975 0.929 . S
H3984 C3992 0.929 . S
H3985 C3994 0.930 . S
H3986 C3996 0.930 . S
H3987 C3999 0.929 . S
H3988 C4002 0.930 . S
H3989 C4004 0.960 . S
H3990 C4004 0.960 . S
H3991 C4004 0.960 . S
C3992 H3984 0.929 . S
C3992 C3993 1.377 . S
C3992 C3994 1.384 . S
C3993 C3992 1.377 . S
C3993 C3999 1.390 . S
C3994 H3985 0.930 . S
C3994 C3992 1.384 . S
C3994 C3995 1.372 . S
C3995 C3994 1.372 . S
C3995 C3996 1.400 . S
C3995 C4000 1.490 . S
C3996 H3986 0.930 . S
C3996 C3995 1.400 . S
C3996 C3999 1.386 . S
H3997 C4013 0.930 . S
H3998 C4014 0.931 . S
C3999 H3987 0.929 . S
C3999 C3993 1.390 . S
C3999 C3996 1.386 . S
C4000 C3995 1.490 . S
C4000 C4002 1.395 . S
C4000 C4003 1.403 . S
H4001 C4007 0.930 . S
C4002 H3988 0.930 . S
C4002 C4000 1.395 . S
C4002 C4005 1.403 . S
C4003 C4000 1.403 . S
C4003 C4004 1.524 . S
C4003 C4007 1.400 . S
C4004 H3989 0.960 . S
C4004 H3990 0.960 . S
C4004 H3991 0.960 . S
C4004 C4003 1.524 . S
C4005 C4002 1.403 . S
C4005 C4006 1.392 . S
C4005 C4009 1.495 . S
C4006 C4005 1.392 . S
C4006 C4007 1.385 . S
C4006 C4008 1.478 . S
C4007 H4001 0.930 . S
C4007 C4003 1.400 . S
C4007 C4006 1.385 . S
C4008 C4006 1.478 . S
C4008 C4010 1.381 . S
C4008 C4014 1.383 . S
C4009 C4005 1.495 . S
C4009 H4015 0.959 . S
C4009 H4016 0.961 . S
C4009 H4017 0.960 . S
C4010 C4008 1.381 . S
C4010 C4011 1.394 . S
C4010 H4018 0.930 . S
C4011 C4010 1.394 . S
C4011 C4012 1.383 . S
C4011 H4019 0.929 . S
C4012 C4011 1.383 . S
C4012 C4013 1.377 . S
C4013 H3997 0.930 . S
C4013 C4012 1.377 . S
C4013 C4014 1.379 . S
C4014 H3998 0.931 . S
C4014 C4008 1.383 . S
C4014 C4013 1.379 . S
H4015 C4009 0.959 . S
H4016 C4009 0.961 . S
H4017 C4009 0.960 . S
H4018 C4010 0.930 . S
H4019 C4011 0.929 . S
H4020 C4028 0.929 . S
H4021 C4030 0.930 . S
H4022 C4032 0.930 . S
H4023 C4035 0.929 . S
H4024 C4038 0.930 . S
H4025 C4040 0.960 . S
H4026 C4040 0.960 . S
H4027 C4040 0.960 . S
C4028 H4020 0.929 . S
C4028 C4029 1.377 . S
C4028 C4030 1.384 . S
C4029 C4028 1.377 . S
C4029 C4035 1.390 . S
C4030 H4021 0.930 . S
C4030 C4028 1.384 . S
C4030 C4031 1.372 . S
C4031 C4030 1.372 . S
C4031 C4032 1.400 . S
C4031 C4036 1.490 . S
C4032 H4022 0.930 . S
C4032 C4031 1.400 . S
C4032 C4035 1.386 . S
H4033 C4049 0.930 . S
H4034 C4050 0.931 . S
C4035 H4023 0.929 . S
C4035 C4029 1.390 . S
C4035 C4032 1.386 . S
C4036 C4031 1.490 . S
C4036 C4038 1.395 . S
C4036 C4039 1.403 . S
H4037 C4043 0.930 . S
C4038 H4024 0.930 . S
C4038 C4036 1.395 . S
C4038 C4041 1.403 . S
C4039 C4036 1.403 . S
C4039 C4040 1.524 . S
C4039 C4043 1.400 . S
C4040 H4025 0.960 . S
C4040 H4026 0.960 . S
C4040 H4027 0.960 . S
C4040 C4039 1.524 . S
C4041 C4038 1.403 . S
C4041 C4042 1.392 . S
C4041 C4045 1.495 . S
C4042 C4041 1.392 . S
C4042 C4043 1.385 . S
C4042 C4044 1.478 . S
C4043 H4037 0.930 . S
C4043 C4039 1.400 . S
C4043 C4042 1.385 . S
C4044 C4042 1.478 . S
C4044 C4046 1.381 . S
C4044 C4050 1.383 . S
C4045 C4041 1.495 . S
C4045 H4051 0.959 . S
C4045 H4052 0.961 . S
C4045 H4053 0.960 . S
C4046 C4044 1.381 . S
C4046 C4047 1.394 . S
C4046 H4054 0.930 . S
C4047 C4046 1.394 . S
C4047 C4048 1.383 . S
C4047 H4055 0.929 . S
C4048 C4047 1.383 . S
C4048 C4049 1.377 . S
C4049 H4033 0.930 . S
C4049 C4048 1.377 . S
C4049 C4050 1.379 . S
C4050 H4034 0.931 . S
C4050 C4044 1.383 . S
C4050 C4049 1.379 . S
H4051 C4045 0.959 . S
H4052 C4045 0.961 . S
H4053 C4045 0.960 . S
H4054 C4046 0.930 . S
H4055 C4047 0.929 . S
H4056 C4064 0.929 . S
H4057 C4066 0.930 . S
H4058 C4068 0.930 . S
H4059 C4071 0.929 . S
H4060 C4074 0.930 . S
H4061 C4076 0.960 . S
H4062 C4076 0.960 . S
H4063 C4076 0.960 . S
C4064 H4056 0.929 . S
C4064 C4065 1.377 . S
C4064 C4066 1.384 . S
C4065 C4064 1.377 . S
C4065 C4071 1.390 . S
C4066 H4057 0.930 . S
C4066 C4064 1.384 . S
C4066 C4067 1.372 . S
C4067 C4066 1.372 . S
C4067 C4068 1.400 . S
C4067 C4072 1.490 . S
C4068 H4058 0.930 . S
C4068 C4067 1.400 . S
C4068 C4071 1.386 . S
H4069 C4085 0.930 . S
H4070 C4086 0.931 . S
C4071 H4059 0.929 . S
C4071 C4065 1.390 . S
C4071 C4068 1.386 . S
C4072 C4067 1.490 . S
C4072 C4074 1.395 . S
C4072 C4075 1.403 . S
H4073 C4079 0.930 . S
C4074 H4060 0.930 . S
C4074 C4072 1.395 . S
C4074 C4077 1.403 . S
C4075 C4072 1.403 . S
C4075 C4076 1.524 . S
C4075 C4079 1.400 . S
C4076 H4061 0.960 . S
C4076 H4062 0.960 . S
C4076 H4063 0.960 . S
C4076 C4075 1.524 . S
C4077 C4074 1.403 . S
C4077 C4078 1.392 . S
C4077 C4081 1.495 . S
C4078 C4077 1.392 . S
C4078 C4079 1.385 . S
C4078 C4080 1.478 . S
C4079 H4073 0.930 . S
C4079 C4075 1.400 . S
C4079 C4078 1.385 . S
C4080 C4078 1.478 . S
C4080 C4082 1.381 . S
C4080 C4086 1.383 . S
C4081 C4077 1.495 . S
C4081 H4087 0.959 . S
C4081 H4088 0.961 . S
C4081 H4089 0.960 . S
C4082 C4080 1.381 . S
C4082 C4083 1.394 . S
C4082 H4090 0.930 . S
C4083 C4082 1.394 . S
C4083 C4084 1.383 . S
C4083 H4091 0.929 . S
C4084 C4083 1.383 . S
C4084 C4085 1.377 . S
C4085 H4069 0.930 . S
C4085 C4084 1.377 . S
C4085 C4086 1.379 . S
C4086 H4070 0.931 . S
C4086 C4080 1.383 . S
C4086 C4085 1.379 . S
H4087 C4081 0.959 . S
H4088 C4081 0.961 . S
H4089 C4081 0.960 . S
H4090 C4082 0.930 . S
H4091 C4083 0.929 . S
H4092 C4100 0.929 . S
H4093 C4102 0.930 . S
H4094 C4104 0.930 . S
H4095 C4107 0.929 . S
H4096 C4110 0.930 . S
H4097 C4112 0.960 . S
H4098 C4112 0.960 . S
H4099 C4112 0.960 . S
C4100 H4092 0.929 . S
C4100 C4101 1.377 . S
C4100 C4102 1.384 . S
C4101 C4100 1.377 . S
C4101 C4107 1.390 . S
C4102 H4093 0.930 . S
C4102 C4100 1.384 . S
C4102 C4103 1.372 . S
C4103 C4102 1.372 . S
C4103 C4104 1.400 . S
C4103 C4108 1.490 . S
C4104 H4094 0.930 . S
C4104 C4103 1.400 . S
C4104 C4107 1.386 . S
H4105 C4121 0.937 . S
H4106 C4122 0.906 1_556 S
C4107 H4095 0.929 . S
C4107 C4101 1.390 . S
C4107 C4104 1.386 . S
C4108 C4103 1.490 . S
C4108 C4110 1.395 . S
C4108 C4111 1.403 . S
H4109 C4115 0.930 . S
C4110 H4096 0.930 . S
C4110 C4108 1.395 . S
C4110 C4113 1.403 . S
C4111 C4108 1.403 . S
C4111 C4112 1.524 1_565 S
C4111 C4115 1.400 1_565 S
C4112 H4097 0.960 . S
C4112 H4098 0.960 . S
C4112 H4099 0.960 . S
C4112 C4111 1.524 1_545 S
C4113 C4110 1.403 . S
C4113 C4114 1.392 . S
C4113 C4117 1.495 1_554 S
C4114 C4113 1.392 . S
C4114 C4115 1.385 1_565 S
C4114 C4116 1.478 1_565 S
C4115 H4109 0.930 . S
C4115 C4111 1.400 1_545 S
C4115 C4114 1.385 1_545 S
C4116 C4114 1.478 1_545 S
C4116 C4118 1.360 1_545 S
C4116 C4122 1.383 . S
C4117 C4113 1.495 1_556 S
C4117 H4123 0.959 . S
C4117 H4124 0.961 . S
C4117 H4125 0.960 1_556 S
C4118 C4116 1.360 1_565 S
C4118 C4119 1.379 1_565 S
C4118 H4126 0.968 . S
C4119 C4118 1.379 1_545 S
C4119 C4120 1.383 . S
C4119 H4127 0.929 . S
C4120 C4119 1.383 . S
C4120 C4121 1.377 . S
C4121 H4105 0.937 . S
C4121 C4120 1.377 . S
C4121 C4122 1.379 . S
C4122 H4106 0.906 1_554 S
C4122 C4116 1.383 . S
C4122 C4121 1.379 . S
H4123 C4117 0.959 . S
H4124 C4117 0.961 . S
H4125 C4117 0.960 1_554 S
H4126 C4118 0.968 . S
H4127 C4119 0.929 . S
H4128 C4136 0.929 . S
H4129 C4138 0.930 . S
H4130 C4140 0.930 . S
H4131 C4143 0.929 . S
H4132 C4146 0.930 . S
H4133 C4148 0.960 . S
H4134 C4148 0.960 . S
H4135 C4148 0.960 . S
C4136 H4128 0.929 . S
C4136 C4137 1.377 . S
C4136 C4138 1.384 . S
C4137 C4136 1.377 . S
C4137 C4143 1.390 . S
C4138 H4129 0.930 . S
C4138 C4136 1.384 . S
C4138 C4139 1.372 . S
C4139 C4138 1.372 . S
C4139 C4140 1.400 . S
C4139 C4144 1.490 . S
C4140 H4130 0.930 . S
C4140 C4139 1.400 . S
C4140 C4143 1.386 . S
H4141 C4157 0.930 . S
H4142 C4158 0.931 . S
C4143 H4131 0.929 . S
C4143 C4137 1.390 . S
C4143 C4140 1.386 . S
C4144 C4139 1.490 . S
C4144 C4146 1.395 . S
C4144 C4147 1.403 . S
H4145 C4151 0.930 . S
C4146 H4132 0.930 . S
C4146 C4144 1.395 . S
C4146 C4149 1.403 . S
C4147 C4144 1.403 . S
C4147 C4148 1.524 . S
C4147 C4151 1.400 . S
C4148 H4133 0.960 . S
C4148 H4134 0.960 . S
C4148 H4135 0.960 . S
C4148 C4147 1.524 . S
C4149 C4146 1.403 . S
C4149 C4150 1.392 . S
C4149 C4153 1.495 . S
C4150 C4149 1.392 . S
C4150 C4151 1.385 . S
C4150 C4152 1.478 . S
C4151 H4145 0.930 . S
C4151 C4147 1.400 . S
C4151 C4150 1.385 . S
C4152 C4150 1.478 . S
C4152 C4154 1.381 . S
C4152 C4158 1.383 . S
C4153 C4149 1.495 . S
C4153 H4159 0.959 . S
C4153 H4160 0.961 . S
C4153 H4161 0.960 . S
C4154 C4152 1.381 . S
C4154 C4155 1.394 . S
C4154 H4162 0.930 . S
C4155 C4154 1.394 . S
C4155 C4156 1.383 . S
C4155 H4163 0.929 . S
C4156 C4155 1.383 . S
C4156 C4157 1.377 . S
C4157 H4141 0.930 . S
C4157 C4156 1.377 . S
C4157 C4158 1.379 . S
C4158 H4142 0.931 . S
C4158 C4152 1.383 . S
C4158 C4157 1.379 . S
H4159 C4153 0.959 . S
H4160 C4153 0.961 . S
H4161 C4153 0.960 . S
H4162 C4154 0.930 . S
H4163 C4155 0.929 . S
H4164 C4172 0.929 . S
H4165 C4174 0.930 . S
H4166 C4176 0.930 . S
H4167 C4179 0.929 . S
H4168 C4182 0.930 . S
H4169 C4184 0.960 . S
H4170 C4184 0.960 1_556 S
H4171 C4184 0.960 . S
C4172 H4164 0.929 . S
C4172 C4173 1.377 1_556 S
C4172 C4174 1.384 . S
C4173 C4172 1.377 1_554 S
C4173 C4179 1.390 . S
C4174 H4165 0.930 . S
C4174 C4172 1.384 . S
C4174 C4175 1.372 1_556 S
C4175 C4174 1.372 1_554 S
C4175 C4176 1.400 . S
C4175 C4180 1.490 . S
C4176 H4166 0.930 . S
C4176 C4175 1.400 . S
C4176 C4179 1.386 . S
H4177 C4193 0.930 . S
H4178 C4194 0.931 . S
C4179 H4167 0.929 . S
C4179 C4173 1.390 . S
C4179 C4176 1.386 . S
C4180 C4175 1.490 . S
C4180 C4182 1.395 . S
C4180 C4183 1.403 . S
H4181 C4187 0.930 . S
C4182 H4168 0.930 . S
C4182 C4180 1.395 . S
C4182 C4185 1.403 . S
C4183 C4180 1.403 . S
C4183 C4184 1.524 . S
C4183 C4187 1.400 . S
C4184 H4169 0.960 . S
C4184 H4170 0.960 1_554 S
C4184 H4171 0.960 . S
C4184 C4183 1.524 . S
C4185 C4182 1.403 . S
C4185 C4186 1.392 . S
C4185 C4189 1.495 . S
C4186 C4185 1.392 . S
C4186 C4187 1.385 . S
C4186 C4188 1.478 . S
C4187 H4181 0.930 . S
C4187 C4183 1.400 . S
C4187 C4186 1.385 . S
C4188 C4186 1.478 . S
C4188 C4190 1.381 . S
C4188 C4194 1.383 . S
C4189 C4185 1.495 . S
C4189 H4195 0.959 . S
C4189 H4196 0.961 . S
C4189 H4197 0.960 . S
C4190 C4188 1.381 . S
C4190 C4191 1.394 . S
C4190 H4198 0.930 1_554 S
C4191 C4190 1.394 . S
C4191 C4192 1.383 . S
C4191 H4199 0.929 . S
C4192 C4191 1.383 . S
C4192 C4193 1.377 . S
C4193 H4177 0.930 . S
C4193 C4192 1.377 . S
C4193 C4194 1.379 . S
C4194 H4178 0.931 . S
C4194 C4188 1.383 . S
C4194 C4193 1.379 . S
H4195 C4189 0.959 . S
H4196 C4189 0.961 . S
H4197 C4189 0.960 . S
H4198 C4190 0.930 1_556 S
H4199 C4191 0.929 . S
H4200 C4208 0.929 . S
H4201 C4210 0.930 . S
H4202 C4212 0.930 . S
H4203 C4215 0.929 . S
H4204 C4218 0.930 . S
H4205 C4220 0.960 . S
H4206 C4220 0.960 . S
H4207 C4220 0.960 . S
C4208 H4200 0.929 . S
C4208 C4209 1.377 . S
C4208 C4210 1.384 . S
C4209 C4208 1.377 . S
C4209 C4215 1.390 . S
C4210 H4201 0.930 . S
C4210 C4208 1.384 . S
C4210 C4211 1.372 . S
C4211 C4210 1.372 . S
C4211 C4212 1.400 . S
C4211 C4216 1.490 . S
C4212 H4202 0.930 . S
C4212 C4211 1.400 . S
C4212 C4215 1.386 . S
H4213 C4229 0.930 . S
H4214 C4230 0.931 . S
C4215 H4203 0.929 . S
C4215 C4209 1.390 . S
C4215 C4212 1.386 . S
C4216 C4211 1.490 . S
C4216 C4218 1.395 . S
C4216 C4219 1.403 . S
H4217 C4223 0.930 . S
C4218 H4204 0.930 . S
C4218 C4216 1.395 . S
C4218 C4221 1.403 . S
C4219 C4216 1.403 . S
C4219 C4220 1.524 . S
C4219 C4223 1.400 . S
C4220 H4205 0.960 . S
C4220 H4206 0.960 . S
C4220 H4207 0.960 . S
C4220 C4219 1.524 . S
C4221 C4218 1.403 . S
C4221 C4222 1.392 . S
C4221 C4225 1.495 . S
C4222 C4221 1.392 . S
C4222 C4223 1.385 . S
C4222 C4224 1.478 . S
C4223 H4217 0.930 . S
C4223 C4219 1.400 . S
C4223 C4222 1.385 . S
C4224 C4222 1.478 . S
C4224 C4226 1.381 . S
C4224 C4230 1.383 . S
C4225 C4221 1.495 . S
C4225 H4231 0.959 . S
C4225 H4232 0.961 . S
C4225 H4233 0.960 . S
C4226 C4224 1.381 . S
C4226 C4227 1.394 . S
C4226 H4234 0.930 . S
C4227 C4226 1.394 . S
C4227 C4228 1.383 . S
C4227 H4235 0.929 . S
C4228 C4227 1.383 . S
C4228 C4229 1.377 . S
C4229 H4213 0.930 . S
C4229 C4228 1.377 . S
C4229 C4230 1.379 . S
C4230 H4214 0.931 . S
C4230 C4224 1.383 . S
C4230 C4229 1.379 . S
H4231 C4225 0.959 . S
H4232 C4225 0.961 . S
H4233 C4225 0.960 . S
H4234 C4226 0.930 . S
H4235 C4227 0.929 . S
H4236 C4244 0.929 . S
H4237 C4246 0.930 . S
H4238 C4248 0.930 . S
H4239 C4251 0.929 . S
H4240 C4254 0.930 . S
H4241 C4256 0.960 . S
H4242 C4256 0.960 . S
H4243 C4256 0.960 . S
C4244 H4236 0.929 . S
C4244 C4245 1.377 . S
C4244 C4246 1.384 . S
C4245 C4244 1.377 . S
C4245 C4251 1.390 . S
C4246 H4237 0.930 . S
C4246 C4244 1.384 . S
C4246 C4247 1.372 . S
C4247 C4246 1.372 . S
C4247 C4248 1.400 . S
C4247 C4252 1.490 . S
C4248 H4238 0.930 . S
C4248 C4247 1.400 . S
C4248 C4251 1.386 . S
H4249 C4265 0.930 . S
H4250 C4266 0.931 . S
C4251 H4239 0.929 . S
C4251 C4245 1.390 . S
C4251 C4248 1.386 . S
C4252 C4247 1.490 . S
C4252 C4254 1.395 . S
C4252 C4255 1.403 . S
H4253 C4259 0.930 . S
C4254 H4240 0.930 . S
C4254 C4252 1.395 . S
C4254 C4257 1.403 . S
C4255 C4252 1.403 . S
C4255 C4256 1.524 . S
C4255 C4259 1.400 . S
C4256 H4241 0.960 . S
C4256 H4242 0.960 . S
C4256 H4243 0.960 . S
C4256 C4255 1.524 . S
C4257 C4254 1.403 . S
C4257 C4258 1.392 . S
C4257 C4261 1.495 . S
C4258 C4257 1.392 . S
C4258 C4259 1.385 . S
C4258 C4260 1.478 . S
C4259 H4253 0.930 . S
C4259 C4255 1.400 . S
C4259 C4258 1.385 . S
C4260 C4258 1.478 . S
C4260 C4262 1.381 . S
C4260 C4266 1.383 . S
C4261 C4257 1.495 . S
C4261 H4267 0.959 . S
C4261 H4268 0.961 . S
C4261 H4269 0.960 . S
C4262 C4260 1.381 . S
C4262 C4263 1.394 . S
C4262 H4270 0.930 . S
C4263 C4262 1.394 . S
C4263 C4264 1.383 . S
C4263 H4271 0.929 . S
C4264 C4263 1.383 . S
C4264 C4265 1.377 . S
C4265 H4249 0.930 . S
C4265 C4264 1.377 . S
C4265 C4266 1.379 . S
C4266 H4250 0.931 . S
C4266 C4260 1.383 . S
C4266 C4265 1.379 . S
H4267 C4261 0.959 . S
H4268 C4261 0.961 . S
H4269 C4261 0.960 . S
H4270 C4262 0.930 . S
H4271 C4263 0.929 . S
H4272 C4280 0.929 . S
H4273 C4282 0.930 . S
H4274 C4284 0.930 . S
H4275 C4287 0.929 . S
H4276 C4290 0.930 . S
H4277 C4292 0.960 . S
H4278 C4292 0.960 . S
H4279 C4292 0.960 . S
C4280 H4272 0.929 . S
C4280 C4281 1.377 . S
C4280 C4282 1.384 . S
C4281 C4280 1.377 . S
C4281 C4287 1.390 . S
C4282 H4273 0.930 . S
C4282 C4280 1.384 . S
C4282 C4283 1.372 . S
C4283 C4282 1.372 . S
C4283 C4284 1.400 . S
C4283 C4288 1.490 . S
C4284 H4274 0.930 . S
C4284 C4283 1.400 . S
C4284 C4287 1.386 . S
H4285 C4301 0.930 . S
H4286 C4302 0.931 . S
C4287 H4275 0.929 . S
C4287 C4281 1.390 . S
C4287 C4284 1.386 . S
C4288 C4283 1.490 . S
C4288 C4290 1.395 . S
C4288 C4291 1.403 . S
H4289 C4295 0.930 . S
C4290 H4276 0.930 . S
C4290 C4288 1.395 . S
C4290 C4293 1.403 . S
C4291 C4288 1.403 . S
C4291 C4292 1.524 . S
C4291 C4295 1.400 . S
C4292 H4277 0.960 . S
C4292 H4278 0.960 . S
C4292 H4279 0.960 . S
C4292 C4291 1.524 . S
C4293 C4290 1.403 . S
C4293 C4294 1.392 . S
C4293 C4297 1.495 . S
C4294 C4293 1.392 . S
C4294 C4295 1.385 . S
C4294 C4296 1.478 . S
C4295 H4289 0.930 . S
C4295 C4291 1.400 . S
C4295 C4294 1.385 . S
C4296 C4294 1.478 . S
C4296 C4298 1.381 . S
C4296 C4302 1.383 . S
C4297 C4293 1.495 . S
C4297 H4303 0.959 . S
C4297 H4304 0.961 . S
C4297 H4305 0.960 . S
C4298 C4296 1.381 . S
C4298 C4299 1.394 . S
C4298 H4306 0.930 . S
C4299 C4298 1.394 . S
C4299 C4300 1.383 . S
C4299 H4307 0.929 . S
C4300 C4299 1.383 . S
C4300 C4301 1.377 . S
C4301 H4285 0.930 . S
C4301 C4300 1.377 . S
C4301 C4302 1.379 . S
C4302 H4286 0.931 . S
C4302 C4296 1.383 . S
C4302 C4301 1.379 . S
H4303 C4297 0.959 . S
H4304 C4297 0.961 . S
H4305 C4297 0.960 . S
H4306 C4298 0.930 . S
H4307 C4299 0.929 . S
H4308 C4316 0.929 . S
H4309 C4318 0.930 . S
H4310 C4320 0.930 . S
H4311 C4323 0.929 . S
H4312 C4326 0.930 . S
H4313 C4328 0.960 . S
H4314 C4328 0.960 . S
H4315 C4328 0.960 . S
C4316 H4308 0.929 . S
C4316 C4317 1.377 . S
C4316 C4318 1.384 . S
C4317 C4316 1.377 . S
C4317 C4323 1.390 . S
C4318 H4309 0.930 . S
C4318 C4316 1.384 . S
C4318 C4319 1.372 . S
C4319 C4318 1.372 . S
C4319 C4320 1.400 . S
C4319 C4324 1.490 . S
C4320 H4310 0.930 . S
C4320 C4319 1.400 . S
C4320 C4323 1.386 . S
H4321 C4337 0.930 . S
H4322 C4338 0.931 . S
C4323 H4311 0.929 . S
C4323 C4317 1.390 . S
C4323 C4320 1.386 . S
C4324 C4319 1.490 . S
C4324 C4326 1.395 . S
C4324 C4327 1.403 . S
H4325 C4331 0.930 . S
C4326 H4312 0.930 . S
C4326 C4324 1.395 . S
C4326 C4329 1.403 . S
C4327 C4324 1.403 . S
C4327 C4328 1.524 . S
C4327 C4331 1.400 . S
C4328 H4313 0.960 . S
C4328 H4314 0.960 . S
C4328 H4315 0.960 . S
C4328 C4327 1.524 . S
C4329 C4326 1.403 . S
C4329 C4330 1.392 . S
C4329 C4333 1.495 . S
C4330 C4329 1.392 . S
C4330 C4331 1.385 . S
C4330 C4332 1.478 . S
C4331 H4325 0.930 . S
C4331 C4327 1.400 . S
C4331 C4330 1.385 . S
C4332 C4330 1.478 . S
C4332 C4334 1.381 . S
C4332 C4338 1.383 . S
C4333 C4329 1.495 . S
C4333 H4339 0.959 . S
C4333 H4340 0.961 . S
C4333 H4341 0.960 . S
C4334 C4332 1.381 . S
C4334 C4335 1.394 . S
C4334 H4342 0.930 . S
C4335 C4334 1.394 . S
C4335 C4336 1.383 . S
C4335 H4343 0.929 . S
C4336 C4335 1.383 . S
C4336 C4337 1.377 . S
C4337 H4321 0.930 . S
C4337 C4336 1.377 . S
C4337 C4338 1.379 . S
C4338 H4322 0.931 . S
C4338 C4332 1.383 . S
C4338 C4337 1.379 . S
H4339 C4333 0.959 . S
H4340 C4333 0.961 . S
H4341 C4333 0.960 . S
H4342 C4334 0.930 . S
H4343 C4335 0.929 . S
H4344 C4352 0.929 . S
H4345 C4354 0.930 . S
H4346 C4356 0.930 . S
H4347 C4359 0.929 . S
H4348 C4362 0.930 . S
H4349 C4364 0.960 . S
H4350 C4364 0.960 . S
H4351 C4364 0.960 . S
C4352 H4344 0.929 . S
C4352 C4353 1.377 . S
C4352 C4354 1.384 . S
C4353 C4352 1.377 . S
C4353 C4359 1.390 . S
C4354 H4345 0.930 . S
C4354 C4352 1.384 . S
C4354 C4355 1.372 . S
C4355 C4354 1.372 . S
C4355 C4356 1.400 . S
C4355 C4360 1.490 . S
C4356 H4346 0.930 . S
C4356 C4355 1.400 . S
C4356 C4359 1.386 . S
H4357 C4373 0.930 . S
H4358 C4374 0.931 . S
C4359 H4347 0.929 . S
C4359 C4353 1.390 . S
C4359 C4356 1.386 . S
C4360 C4355 1.490 . S
C4360 C4362 1.395 . S
C4360 C4363 1.403 . S
H4361 C4367 0.930 . S
C4362 H4348 0.930 . S
C4362 C4360 1.395 . S
C4362 C4365 1.403 . S
C4363 C4360 1.403 . S
C4363 C4364 1.524 . S
C4363 C4367 1.400 . S
C4364 H4349 0.960 . S
C4364 H4350 0.960 . S
C4364 H4351 0.960 . S
C4364 C4363 1.524 . S
C4365 C4362 1.403 . S
C4365 C4366 1.392 . S
C4365 C4369 1.495 . S
C4366 C4365 1.392 . S
C4366 C4367 1.385 . S
C4366 C4368 1.478 . S
C4367 H4361 0.930 . S
C4367 C4363 1.400 . S
C4367 C4366 1.385 . S
C4368 C4366 1.478 . S
C4368 C4370 1.381 . S
C4368 C4374 1.383 . S
C4369 C4365 1.495 . S
C4369 H4375 0.959 . S
C4369 H4376 0.961 . S
C4369 H4377 0.960 . S
C4370 C4368 1.381 . S
C4370 C4371 1.394 . S
C4370 H4378 0.930 . S
C4371 C4370 1.394 . S
C4371 C4372 1.383 . S
C4371 H4379 0.929 . S
C4372 C4371 1.383 . S
C4372 C4373 1.377 . S
C4373 H4357 0.930 . S
C4373 C4372 1.377 . S
C4373 C4374 1.379 . S
C4374 H4358 0.931 . S
C4374 C4368 1.383 . S
C4374 C4373 1.379 . S
H4375 C4369 0.959 . S
H4376 C4369 0.961 . S
H4377 C4369 0.960 . S
H4378 C4370 0.930 . S
H4379 C4371 0.929 . S
H4380 C4388 0.929 . S
H4381 C4390 0.930 . S
H4382 C4392 0.930 . S
H4383 C4395 0.929 . S
H4384 C4398 0.930 . S
H4385 C4400 0.960 . S
H4386 C4400 0.960 . S
H4387 C4400 0.960 . S
C4388 H4380 0.929 . S
C4388 C4389 1.377 . S
C4388 C4390 1.384 . S
C4389 C4388 1.377 . S
C4389 C4395 1.390 . S
C4390 H4381 0.930 . S
C4390 C4388 1.384 . S
C4390 C4391 1.372 . S
C4391 C4390 1.372 . S
C4391 C4392 1.400 . S
C4391 C4396 1.490 . S
C4392 H4382 0.930 . S
C4392 C4391 1.400 . S
C4392 C4395 1.386 . S
H4393 C4409 0.930 . S
H4394 C4410 0.931 . S
C4395 H4383 0.929 . S
C4395 C4389 1.390 . S
C4395 C4392 1.386 . S
C4396 C4391 1.490 . S
C4396 C4398 1.395 . S
C4396 C4399 1.403 . S
H4397 C4403 0.930 . S
C4398 H4384 0.930 . S
C4398 C4396 1.395 . S
C4398 C4401 1.403 . S
C4399 C4396 1.403 . S
C4399 C4400 1.524 . S
C4399 C4403 1.400 . S
C4400 H4385 0.960 . S
C4400 H4386 0.960 . S
C4400 H4387 0.960 . S
C4400 C4399 1.524 . S
C4401 C4398 1.403 . S
C4401 C4402 1.392 . S
C4401 C4405 1.495 . S
C4402 C4401 1.392 . S
C4402 C4403 1.385 . S
C4402 C4404 1.478 . S
C4403 H4397 0.930 . S
C4403 C4399 1.400 . S
C4403 C4402 1.385 . S
C4404 C4402 1.478 . S
C4404 C4406 1.381 . S
C4404 C4410 1.383 . S
C4405 C4401 1.495 . S
C4405 H4411 0.959 . S
C4405 H4412 0.961 . S
C4405 H4413 0.960 . S
C4406 C4404 1.381 . S
C4406 C4407 1.394 . S
C4406 H4414 0.930 . S
C4407 C4406 1.394 . S
C4407 C4408 1.383 . S
C4407 H4415 0.929 . S
C4408 C4407 1.383 . S
C4408 C4409 1.377 . S
C4409 H4393 0.930 . S
C4409 C4408 1.377 . S
C4409 C4410 1.379 . S
C4410 H4394 0.931 . S
C4410 C4404 1.383 . S
C4410 C4409 1.379 . S
H4411 C4405 0.959 . S
H4412 C4405 0.961 . S
H4413 C4405 0.960 . S
H4414 C4406 0.930 . S
H4415 C4407 0.929 . S
H4416 C4424 0.929 . S
H4417 C4426 0.930 . S
H4418 C4428 0.930 . S
H4419 C4431 0.929 . S
H4420 C4434 0.930 . S
H4421 C4436 0.960 . S
H4422 C4436 0.960 . S
H4423 C4436 0.960 . S
C4424 H4416 0.929 . S
C4424 C4425 1.377 . S
C4424 C4426 1.384 . S
C4425 C4424 1.377 . S
C4425 C4431 1.390 . S
C4426 H4417 0.930 . S
C4426 C4424 1.384 . S
C4426 C4427 1.372 . S
C4427 C4426 1.372 . S
C4427 C4428 1.400 . S
C4427 C4432 1.490 . S
C4428 H4418 0.930 . S
C4428 C4427 1.400 . S
C4428 C4431 1.386 . S
H4429 C4445 0.930 . S
H4430 C4446 0.931 . S
C4431 H4419 0.929 . S
C4431 C4425 1.390 . S
C4431 C4428 1.386 . S
C4432 C4427 1.490 . S
C4432 C4434 1.395 . S
C4432 C4435 1.403 . S
H4433 C4439 0.930 . S
C4434 H4420 0.930 . S
C4434 C4432 1.395 . S
C4434 C4437 1.403 . S
C4435 C4432 1.403 . S
C4435 C4436 1.524 . S
C4435 C4439 1.400 . S
C4436 H4421 0.960 . S
C4436 H4422 0.960 . S
C4436 H4423 0.960 . S
C4436 C4435 1.524 . S
C4437 C4434 1.403 . S
C4437 C4438 1.392 . S
C4437 C4441 1.495 . S
C4438 C4437 1.392 . S
C4438 C4439 1.385 . S
C4438 C4440 1.478 . S
C4439 H4433 0.930 . S
C4439 C4435 1.400 . S
C4439 C4438 1.385 . S
C4440 C4438 1.478 . S
C4440 C4442 1.381 . S
C4440 C4446 1.383 . S
C4441 C4437 1.495 . S
C4441 H4447 0.959 . S
C4441 H4448 0.961 . S
C4441 H4449 0.960 . S
C4442 C4440 1.381 . S
C4442 C4443 1.394 . S
C4442 H4450 0.930 . S
C4443 C4442 1.394 . S
C4443 C4444 1.383 . S
C4443 H4451 0.929 . S
C4444 C4443 1.383 . S
C4444 C4445 1.377 . S
C4445 H4429 0.930 . S
C4445 C4444 1.377 . S
C4445 C4446 1.379 . S
C4446 H4430 0.931 . S
C4446 C4440 1.383 . S
C4446 C4445 1.379 . S
H4447 C4441 0.959 . S
H4448 C4441 0.961 . S
H4449 C4441 0.960 . S
H4450 C4442 0.930 . S
H4451 C4443 0.929 . S
H4452 C4460 0.929 . S
H4453 C4462 0.930 . S
H4454 C4464 0.930 . S
H4455 C4467 0.929 . S
H4456 C4470 0.930 . S
H4457 C4472 0.960 . S
H4458 C4472 0.960 . S
H4459 C4472 0.960 . S
C4460 H4452 0.929 . S
C4460 C4461 1.377 . S
C4460 C4462 1.384 . S
C4461 C4460 1.377 . S
C4461 C4467 1.390 . S
C4462 H4453 0.930 . S
C4462 C4460 1.384 . S
C4462 C4463 1.372 . S
C4463 C4462 1.372 . S
C4463 C4464 1.400 . S
C4463 C4468 1.490 . S
C4464 H4454 0.930 . S
C4464 C4463 1.400 . S
C4464 C4467 1.386 . S
H4465 C4481 0.930 . S
H4466 C4482 0.931 . S
C4467 H4455 0.929 . S
C4467 C4461 1.390 . S
C4467 C4464 1.386 . S
C4468 C4463 1.490 . S
C4468 C4470 1.395 . S
C4468 C4471 1.403 . S
H4469 C4475 0.930 . S
C4470 H4456 0.930 . S
C4470 C4468 1.395 . S
C4470 C4473 1.403 . S
C4471 C4468 1.403 . S
C4471 C4472 1.524 . S
C4471 C4475 1.400 . S
C4472 H4457 0.960 . S
C4472 H4458 0.960 . S
C4472 H4459 0.960 . S
C4472 C4471 1.524 . S
C4473 C4470 1.403 . S
C4473 C4474 1.392 . S
C4473 C4477 1.495 . S
C4474 C4473 1.392 . S
C4474 C4475 1.385 . S
C4474 C4476 1.478 . S
C4475 H4469 0.930 . S
C4475 C4471 1.400 . S
C4475 C4474 1.385 . S
C4476 C4474 1.478 . S
C4476 C4478 1.381 . S
C4476 C4482 1.383 . S
C4477 C4473 1.495 . S
C4477 H4483 0.959 . S
C4477 H4484 0.961 . S
C4477 H4485 0.960 . S
C4478 C4476 1.381 . S
C4478 C4479 1.394 . S
C4478 H4486 0.930 . S
C4479 C4478 1.394 . S
C4479 C4480 1.383 . S
C4479 H4487 0.929 . S
C4480 C4479 1.383 . S
C4480 C4481 1.377 . S
C4481 H4465 0.930 . S
C4481 C4480 1.377 . S
C4481 C4482 1.379 . S
C4482 H4466 0.931 . S
C4482 C4476 1.383 . S
C4482 C4481 1.379 . S
H4483 C4477 0.959 . S
H4484 C4477 0.961 . S
H4485 C4477 0.960 . S
H4486 C4478 0.930 . S
H4487 C4479 0.929 . S
H4488 C4496 0.929 . S
H4489 C4498 0.930 . S
H4490 C4500 0.930 . S
H4491 C4503 0.929 . S
H4492 C4506 0.930 . S
H4493 C4508 0.960 . S
H4494 C4508 0.960 . S
H4495 C4508 0.960 . S
C4496 H4488 0.929 . S
C4496 C4497 1.377 . S
C4496 C4498 1.384 . S
C4497 C4496 1.377 . S
C4497 C4503 1.390 . S
C4498 H4489 0.930 . S
C4498 C4496 1.384 . S
C4498 C4499 1.372 . S
C4499 C4498 1.372 . S
C4499 C4500 1.400 . S
C4499 C4504 1.490 . S
C4500 H4490 0.930 . S
C4500 C4499 1.400 . S
C4500 C4503 1.386 . S
H4501 C4517 0.930 . S
H4502 C4518 0.931 . S
C4503 H4491 0.929 . S
C4503 C4497 1.390 . S
C4503 C4500 1.386 . S
C4504 C4499 1.490 . S
C4504 C4506 1.395 . S
C4504 C4507 1.403 . S
H4505 C4511 0.930 . S
C4506 H4492 0.930 . S
C4506 C4504 1.395 . S
C4506 C4509 1.403 . S
C4507 C4504 1.403 . S
C4507 C4508 1.524 . S
C4507 C4511 1.400 . S
C4508 H4493 0.960 . S
C4508 H4494 0.960 . S
C4508 H4495 0.960 . S
C4508 C4507 1.524 . S
C4509 C4506 1.403 . S
C4509 C4510 1.392 . S
C4509 C4513 1.495 . S
C4510 C4509 1.392 . S
C4510 C4511 1.385 . S
C4510 C4512 1.478 . S
C4511 H4505 0.930 . S
C4511 C4507 1.400 . S
C4511 C4510 1.385 . S
C4512 C4510 1.478 . S
C4512 C4514 1.381 . S
C4512 C4518 1.383 . S
C4513 C4509 1.495 . S
C4513 H4519 0.959 . S
C4513 H4520 0.961 . S
C4513 H4521 0.960 . S
C4514 C4512 1.381 . S
C4514 C4515 1.394 . S
C4514 H4522 0.930 . S
C4515 C4514 1.394 . S
C4515 C4516 1.383 . S
C4515 H4523 0.929 . S
C4516 C4515 1.383 . S
C4516 C4517 1.377 . S
C4517 H4501 0.930 . S
C4517 C4516 1.377 . S
C4517 C4518 1.379 . S
C4518 H4502 0.931 . S
C4518 C4512 1.383 . S
C4518 C4517 1.379 . S
H4519 C4513 0.959 . S
H4520 C4513 0.961 . S
H4521 C4513 0.960 . S
H4522 C4514 0.930 . S
H4523 C4515 0.929 . S
H4524 C4532 0.929 . S
H4525 C4534 0.930 . S
H4526 C4536 0.930 . S
H4527 C4539 0.929 . S
H4528 C4542 0.930 . S
H4529 C4544 0.960 . S
H4530 C4544 0.960 . S
H4531 C4544 0.960 . S
C4532 H4524 0.929 . S
C4532 C4533 1.377 . S
C4532 C4534 1.384 . S
C4533 C4532 1.377 . S
C4533 C4539 1.390 . S
C4534 H4525 0.930 . S
C4534 C4532 1.384 . S
C4534 C4535 1.372 . S
C4535 C4534 1.372 . S
C4535 C4536 1.400 . S
C4535 C4540 1.490 . S
C4536 H4526 0.930 . S
C4536 C4535 1.400 . S
C4536 C4539 1.386 . S
H4537 C4553 0.930 . S
H4538 C4554 0.931 . S
C4539 H4527 0.929 . S
C4539 C4533 1.390 . S
C4539 C4536 1.386 . S
C4540 C4535 1.490 . S
C4540 C4542 1.395 . S
C4540 C4543 1.403 . S
H4541 C4547 0.930 . S
C4542 H4528 0.930 . S
C4542 C4540 1.395 . S
C4542 C4545 1.403 . S
C4543 C4540 1.403 . S
C4543 C4544 1.524 . S
C4543 C4547 1.400 . S
C4544 H4529 0.960 . S
C4544 H4530 0.960 . S
C4544 H4531 0.960 . S
C4544 C4543 1.524 . S
C4545 C4542 1.403 . S
C4545 C4546 1.392 . S
C4545 C4549 1.495 . S
C4546 C4545 1.392 . S
C4546 C4547 1.385 . S
C4546 C4548 1.478 . S
C4547 H4541 0.930 . S
C4547 C4543 1.400 . S
C4547 C4546 1.385 . S
C4548 C4546 1.478 . S
C4548 C4550 1.381 . S
C4548 C4554 1.383 . S
C4549 C4545 1.495 . S
C4549 H4555 0.959 . S
C4549 H4556 0.961 . S
C4549 H4557 0.960 . S
C4550 C4548 1.381 . S
C4550 C4551 1.394 . S
C4550 H4558 0.930 . S
C4551 C4550 1.394 . S
C4551 C4552 1.383 . S
C4551 H4559 0.929 . S
C4552 C4551 1.383 . S
C4552 C4553 1.377 . S
C4553 H4537 0.930 . S
C4553 C4552 1.377 . S
C4553 C4554 1.379 . S
C4554 H4538 0.931 . S
C4554 C4548 1.383 . S
C4554 C4553 1.379 . S
H4555 C4549 0.959 . S
H4556 C4549 0.961 . S
H4557 C4549 0.960 . S
H4558 C4550 0.930 . S
H4559 C4551 0.929 . S
H4560 C4568 0.929 . S
H4561 C4570 0.930 . S
H4562 C4572 0.930 . S
H4563 C4575 0.929 . S
H4564 C4578 0.930 . S
H4565 C4580 0.960 . S
H4566 C4580 0.960 . S
H4567 C4580 0.960 . S
C4568 H4560 0.929 . S
C4568 C4569 1.377 . S
C4568 C4570 1.384 . S
C4569 C4568 1.377 . S
C4569 C4575 1.390 . S
C4570 H4561 0.930 . S
C4570 C4568 1.384 . S
C4570 C4571 1.372 . S
C4571 C4570 1.372 . S
C4571 C4572 1.400 . S
C4571 C4576 1.490 . S
C4572 H4562 0.930 . S
C4572 C4571 1.400 . S
C4572 C4575 1.386 . S
H4573 C4589 0.930 . S
H4574 C4590 0.931 . S
C4575 H4563 0.929 . S
C4575 C4569 1.390 . S
C4575 C4572 1.386 . S
C4576 C4571 1.490 . S
C4576 C4578 1.395 . S
C4576 C4579 1.403 . S
H4577 C4583 0.930 . S
C4578 H4564 0.930 . S
C4578 C4576 1.395 . S
C4578 C4581 1.403 . S
C4579 C4576 1.403 . S
C4579 C4580 1.524 . S
C4579 C4583 1.400 . S
C4580 H4565 0.960 . S
C4580 H4566 0.960 . S
C4580 H4567 0.960 . S
C4580 C4579 1.524 . S
C4581 C4578 1.403 . S
C4581 C4582 1.392 . S
C4581 C4585 1.495 . S
C4582 C4581 1.392 . S
C4582 C4583 1.385 . S
C4582 C4584 1.478 . S
C4583 H4577 0.930 . S
C4583 C4579 1.400 . S
C4583 C4582 1.385 . S
C4584 C4582 1.478 . S
C4584 C4586 1.381 . S
C4584 C4590 1.383 . S
C4585 C4581 1.495 . S
C4585 H4591 0.959 . S
C4585 H4592 0.961 . S
C4585 H4593 0.960 . S
C4586 C4584 1.381 . S
C4586 C4587 1.394 . S
C4586 H4594 0.930 . S
C4587 C4586 1.394 . S
C4587 C4588 1.383 . S
C4587 H4595 0.929 . S
C4588 C4587 1.383 . S
C4588 C4589 1.377 . S
C4589 H4573 0.930 . S
C4589 C4588 1.377 . S
C4589 C4590 1.379 . S
C4590 H4574 0.931 . S
C4590 C4584 1.383 . S
C4590 C4589 1.379 . S
H4591 C4585 0.959 . S
H4592 C4585 0.961 . S
H4593 C4585 0.960 . S
H4594 C4586 0.930 . S
H4595 C4587 0.929 . S
H4596 C4604 0.929 . S
H4597 C4606 0.930 . S
H4598 C4608 0.930 . S
H4599 C4611 0.929 . S
H4600 C4614 0.930 . S
H4601 C4616 0.960 . S
H4602 C4616 0.960 . S
H4603 C4616 0.960 . S
C4604 H4596 0.929 . S
C4604 C4605 1.377 . S
C4604 C4606 1.384 . S
C4605 C4604 1.377 . S
C4605 C4611 1.390 . S
C4606 H4597 0.930 . S
C4606 C4604 1.384 . S
C4606 C4607 1.372 . S
C4607 C4606 1.372 . S
C4607 C4608 1.400 . S
C4607 C4612 1.490 . S
C4608 H4598 0.930 . S
C4608 C4607 1.400 . S
C4608 C4611 1.386 . S
H4609 C4625 0.930 . S
H4610 C4626 0.931 . S
C4611 H4599 0.929 . S
C4611 C4605 1.390 . S
C4611 C4608 1.386 . S
C4612 C4607 1.490 . S
C4612 C4614 1.395 . S
C4612 C4615 1.403 . S
H4613 C4619 0.930 . S
C4614 H4600 0.930 . S
C4614 C4612 1.395 . S
C4614 C4617 1.403 . S
C4615 C4612 1.403 . S
C4615 C4616 1.524 . S
C4615 C4619 1.400 . S
C4616 H4601 0.960 . S
C4616 H4602 0.960 . S
C4616 H4603 0.960 . S
C4616 C4615 1.524 . S
C4617 C4614 1.403 . S
C4617 C4618 1.392 . S
C4617 C4621 1.495 . S
C4618 C4617 1.392 . S
C4618 C4619 1.385 . S
C4618 C4620 1.478 . S
C4619 H4613 0.930 . S
C4619 C4615 1.400 . S
C4619 C4618 1.385 . S
C4620 C4618 1.478 . S
C4620 C4622 1.381 . S
C4620 C4626 1.383 . S
C4621 C4617 1.495 . S
C4621 H4627 0.959 . S
C4621 H4628 0.961 . S
C4621 H4629 0.960 . S
C4622 C4620 1.381 . S
C4622 C4623 1.394 . S
C4622 H4630 0.930 . S
C4623 C4622 1.394 . S
C4623 C4624 1.383 . S
C4623 H4631 0.929 . S
C4624 C4623 1.383 . S
C4624 C4625 1.377 . S
C4625 H4609 0.930 . S
C4625 C4624 1.377 . S
C4625 C4626 1.379 . S
C4626 H4610 0.931 . S
C4626 C4620 1.383 . S
C4626 C4625 1.379 . S
H4627 C4621 0.959 . S
H4628 C4621 0.961 . S
H4629 C4621 0.960 . S
H4630 C4622 0.930 . S
H4631 C4623 0.929 . S
H4632 C4640 0.929 . S
H4633 C4642 0.930 . S
H4634 C4644 0.930 . S
H4635 C4647 0.929 . S
H4636 C4650 0.930 . S
H4637 C4652 0.960 . S
H4638 C4652 0.960 . S
H4639 C4652 0.960 . S
C4640 H4632 0.929 . S
C4640 C4641 1.377 . S
C4640 C4642 1.384 . S
C4641 C4640 1.377 . S
C4641 C4647 1.390 . S
C4642 H4633 0.930 . S
C4642 C4640 1.384 . S
C4642 C4643 1.372 . S
C4643 C4642 1.372 . S
C4643 C4644 1.400 . S
C4643 C4648 1.490 . S
C4644 H4634 0.930 . S
C4644 C4643 1.400 . S
C4644 C4647 1.386 . S
H4645 C4661 0.930 . S
H4646 C4662 0.931 . S
C4647 H4635 0.929 . S
C4647 C4641 1.390 . S
C4647 C4644 1.386 . S
C4648 C4643 1.490 . S
C4648 C4650 1.395 . S
C4648 C4651 1.403 . S
H4649 C4655 0.930 . S
C4650 H4636 0.930 . S
C4650 C4648 1.395 . S
C4650 C4653 1.403 . S
C4651 C4648 1.403 . S
C4651 C4652 1.524 . S
C4651 C4655 1.400 . S
C4652 H4637 0.960 . S
C4652 H4638 0.960 . S
C4652 H4639 0.960 . S
C4652 C4651 1.524 . S
C4653 C4650 1.403 . S
C4653 C4654 1.392 . S
C4653 C4657 1.495 1_655 S
C4654 C4653 1.392 . S
C4654 C4655 1.385 . S
C4654 C4656 1.478 1_655 S
C4655 H4649 0.930 . S
C4655 C4651 1.400 . S
C4655 C4654 1.385 . S
C4656 C4654 1.478 1_455 S
C4656 C4658 1.381 . S
C4656 C4662 1.383 . S
C4657 C4653 1.495 1_455 S
C4657 H4663 0.959 . S
C4657 H4664 0.961 . S
C4657 H4665 0.960 . S
C4658 C4656 1.381 . S
C4658 C4659 1.394 . S
C4658 H4666 0.930 . S
C4659 C4658 1.394 . S
C4659 C4660 1.383 . S
C4659 H4667 0.929 . S
C4660 C4659 1.383 . S
C4660 C4661 1.377 . S
C4661 H4645 0.930 . S
C4661 C4660 1.377 . S
C4661 C4662 1.379 . S
C4662 H4646 0.931 . S
C4662 C4656 1.383 . S
C4662 C4661 1.379 . S
H4663 C4657 0.959 . S
H4664 C4657 0.961 . S
H4665 C4657 0.960 . S
H4666 C4658 0.930 . S
H4667 C4659 0.929 . S
H4668 C4676 0.929 . S
H4669 C4678 0.930 . S
H4670 C4680 0.930 . S
H4671 C4683 0.929 . S
H4672 C4686 0.930 . S
H4673 C4688 0.960 . S
H4674 C4688 0.960 . S
H4675 C4688 0.960 . S
C4676 H4668 0.929 . S
C4676 C4677 1.377 . S
C4676 C4678 1.384 . S
C4677 C4676 1.377 . S
C4677 C4683 1.390 . S
C4678 H4669 0.930 . S
C4678 C4676 1.384 . S
C4678 C4679 1.372 . S
C4679 C4678 1.372 . S
C4679 C4680 1.400 . S
C4679 C4684 1.490 . S
C4680 H4670 0.930 . S
C4680 C4679 1.400 . S
C4680 C4683 1.386 . S
H4681 C4697 0.930 . S
H4682 C4698 0.931 . S
C4683 H4671 0.929 . S
C4683 C4677 1.390 . S
C4683 C4680 1.386 . S
C4684 C4679 1.490 . S
C4684 C4686 1.395 . S
C4684 C4687 1.403 . S
H4685 C4691 0.930 . S
C4686 H4672 0.930 . S
C4686 C4684 1.395 . S
C4686 C4689 1.403 . S
C4687 C4684 1.403 . S
C4687 C4688 1.524 . S
C4687 C4691 1.400 . S
C4688 H4673 0.960 . S
C4688 H4674 0.960 . S
C4688 H4675 0.960 . S
C4688 C4687 1.524 . S
C4689 C4686 1.403 . S
C4689 C4690 1.392 . S
C4689 C4693 1.495 . S
C4690 C4689 1.392 . S
C4690 C4691 1.385 . S
C4690 C4692 1.478 . S
C4691 H4685 0.930 . S
C4691 C4687 1.400 . S
C4691 C4690 1.385 . S
C4692 C4690 1.478 . S
C4692 C4694 1.381 . S
C4692 C4698 1.383 . S
C4693 C4689 1.495 . S
C4693 H4699 0.959 . S
C4693 H4700 0.961 . S
C4693 H4701 0.960 . S
C4694 C4692 1.381 . S
C4694 C4695 1.394 . S
C4694 H4702 0.930 . S
C4695 C4694 1.394 . S
C4695 C4696 1.383 . S
C4695 H4703 0.929 . S
C4696 C4695 1.383 . S
C4696 C4697 1.377 . S
C4697 H4681 0.930 . S
C4697 C4696 1.377 . S
C4697 C4698 1.379 . S
C4698 H4682 0.931 . S
C4698 C4692 1.383 . S
C4698 C4697 1.379 . S
H4699 C4693 0.959 . S
H4700 C4693 0.961 . S
H4701 C4693 0.960 . S
H4702 C4694 0.930 . S
H4703 C4695 0.929 . S
H4704 C4712 0.929 . S
H4705 C4714 0.930 . S
H4706 C4716 0.930 . S
H4707 C4719 0.929 . S
H4708 C4722 0.930 . S
H4709 C4724 0.960 . S
H4710 C4724 0.960 . S
H4711 C4724 0.960 . S
C4712 H4704 0.929 . S
C4712 C4713 1.377 . S
C4712 C4714 1.384 . S
C4713 C4712 1.377 . S
C4713 C4719 1.390 . S
C4714 H4705 0.930 . S
C4714 C4712 1.384 . S
C4714 C4715 1.372 . S
C4715 C4714 1.372 . S
C4715 C4716 1.400 . S
C4715 C4720 1.490 . S
C4716 H4706 0.930 . S
C4716 C4715 1.400 . S
C4716 C4719 1.386 . S
H4717 C4733 0.930 . S
H4718 C4734 0.931 . S
C4719 H4707 0.929 . S
C4719 C4713 1.390 . S
C4719 C4716 1.386 . S
C4720 C4715 1.490 . S
C4720 C4722 1.395 . S
C4720 C4723 1.403 . S
H4721 C4727 0.930 . S
C4722 H4708 0.930 . S
C4722 C4720 1.395 . S
C4722 C4725 1.403 . S
C4723 C4720 1.403 . S
C4723 C4724 1.524 . S
C4723 C4727 1.400 . S
C4724 H4709 0.960 . S
C4724 H4710 0.960 . S
C4724 H4711 0.960 . S
C4724 C4723 1.524 . S
C4725 C4722 1.403 . S
C4725 C4726 1.392 . S
C4725 C4729 1.495 . S
C4726 C4725 1.392 . S
C4726 C4727 1.385 . S
C4726 C4728 1.478 . S
C4727 H4721 0.930 . S
C4727 C4723 1.400 . S
C4727 C4726 1.385 . S
C4728 C4726 1.478 . S
C4728 C4730 1.381 . S
C4728 C4734 1.383 . S
C4729 C4725 1.495 . S
C4729 H4735 0.959 . S
C4729 H4736 0.961 . S
C4729 H4737 0.960 . S
C4730 C4728 1.381 . S
C4730 C4731 1.394 . S
C4730 H4738 0.930 . S
C4731 C4730 1.394 . S
C4731 C4732 1.383 . S
C4731 H4739 0.929 . S
C4732 C4731 1.383 . S
C4732 C4733 1.377 . S
C4733 H4717 0.930 . S
C4733 C4732 1.377 . S
C4733 C4734 1.379 . S
C4734 H4718 0.931 . S
C4734 C4728 1.383 . S
C4734 C4733 1.379 . S
H4735 C4729 0.959 . S
H4736 C4729 0.961 . S
H4737 C4729 0.960 . S
H4738 C4730 0.930 . S
H4739 C4731 0.929 . S
H4740 C4748 0.929 . S
H4741 C4750 0.930 . S
H4742 C4752 0.930 . S
H4743 C4755 0.929 . S
H4744 C4758 0.930 . S
H4745 C4760 0.960 . S
H4746 C4760 0.960 . S
H4747 C4760 0.960 . S
C4748 H4740 0.929 . S
C4748 C4749 1.377 . S
C4748 C4750 1.384 . S
C4749 C4748 1.377 . S
C4749 C4755 1.390 . S
C4750 H4741 0.930 . S
C4750 C4748 1.384 . S
C4750 C4751 1.372 . S
C4751 C4750 1.372 . S
C4751 C4752 1.400 . S
C4751 C4756 1.490 . S
C4752 H4742 0.930 . S
C4752 C4751 1.400 . S
C4752 C4755 1.386 . S
H4753 C4769 0.930 . S
H4754 C4770 0.931 . S
C4755 H4743 0.929 . S
C4755 C4749 1.390 . S
C4755 C4752 1.386 . S
C4756 C4751 1.490 . S
C4756 C4758 1.395 . S
C4756 C4759 1.403 . S
H4757 C4763 0.930 . S
C4758 H4744 0.930 . S
C4758 C4756 1.395 . S
C4758 C4761 1.403 . S
C4759 C4756 1.403 . S
C4759 C4760 1.524 . S
C4759 C4763 1.400 . S
C4760 H4745 0.960 . S
C4760 H4746 0.960 . S
C4760 H4747 0.960 . S
C4760 C4759 1.524 . S
C4761 C4758 1.403 . S
C4761 C4762 1.392 . S
C4761 C4765 1.495 . S
C4762 C4761 1.392 . S
C4762 C4763 1.385 . S
C4762 C4764 1.478 . S
C4763 H4757 0.930 . S
C4763 C4759 1.400 . S
C4763 C4762 1.385 . S
C4764 C4762 1.478 . S
C4764 C4766 1.381 . S
C4764 C4770 1.383 . S
C4765 C4761 1.495 . S
C4765 H4771 0.959 . S
C4765 H4772 0.961 . S
C4765 H4773 0.960 . S
C4766 C4764 1.381 . S
C4766 C4767 1.394 . S
C4766 H4774 0.930 . S
C4767 C4766 1.394 . S
C4767 C4768 1.383 . S
C4767 H4775 0.929 . S
C4768 C4767 1.383 . S
C4768 C4769 1.377 . S
C4769 H4753 0.930 . S
C4769 C4768 1.377 . S
C4769 C4770 1.379 . S
C4770 H4754 0.931 . S
C4770 C4764 1.383 . S
C4770 C4769 1.379 . S
H4771 C4765 0.959 . S
H4772 C4765 0.961 . S
H4773 C4765 0.960 . S
H4774 C4766 0.930 . S
H4775 C4767 0.929 . S
H4776 C4784 0.929 . S
H4777 C4786 0.930 . S
H4778 C4788 0.930 . S
H4779 C4791 0.929 . S
H4780 C4794 0.930 . S
H4781 C4796 0.960 . S
H4782 C4796 0.960 . S
H4783 C4796 0.960 . S
C4784 H4776 0.929 . S
C4784 C4785 1.377 . S
C4784 C4786 1.384 . S
C4785 C4784 1.377 . S
C4785 C4791 1.390 . S
C4786 H4777 0.930 . S
C4786 C4784 1.384 . S
C4786 C4787 1.372 . S
C4787 C4786 1.372 . S
C4787 C4788 1.400 . S
C4787 C4792 1.490 . S
C4788 H4778 0.930 . S
C4788 C4787 1.400 . S
C4788 C4791 1.386 . S
H4789 C4805 0.930 . S
H4790 C4806 0.931 . S
C4791 H4779 0.929 . S
C4791 C4785 1.390 . S
C4791 C4788 1.386 . S
C4792 C4787 1.490 . S
C4792 C4794 1.395 . S
C4792 C4795 1.403 . S
H4793 C4799 0.930 . S
C4794 H4780 0.930 . S
C4794 C4792 1.395 . S
C4794 C4797 1.403 . S
C4795 C4792 1.403 . S
C4795 C4796 1.524 . S
C4795 C4799 1.400 . S
C4796 H4781 0.960 . S
C4796 H4782 0.960 . S
C4796 H4783 0.960 . S
C4796 C4795 1.524 . S
C4797 C4794 1.403 . S
C4797 C4798 1.392 . S
C4797 C4801 1.495 . S
C4798 C4797 1.392 . S
C4798 C4799 1.385 . S
C4798 C4800 1.478 . S
C4799 H4793 0.930 . S
C4799 C4795 1.400 . S
C4799 C4798 1.385 . S
C4800 C4798 1.478 . S
C4800 C4802 1.381 1_655 S
C4800 C4806 1.383 . S
C4801 C4797 1.495 . S
C4801 H4807 0.959 . S
C4801 H4808 0.961 . S
C4801 H4809 0.960 . S
C4802 C4800 1.381 1_455 S
C4802 C4803 1.394 . S
C4802 H4810 0.930 . S
C4803 C4802 1.394 . S
C4803 C4804 1.417 . S
C4803 H4811 0.929 . S
C4804 C4803 1.417 . S
C4804 C4805 1.308 1_455 S
C4805 H4789 0.930 . S
C4805 C4804 1.308 1_655 S
C4805 C4806 1.379 . S
C4806 H4790 0.931 . S
C4806 C4800 1.383 . S
C4806 C4805 1.379 . S
H4807 C4801 0.959 . S
H4808 C4801 0.961 . S
H4809 C4801 0.960 . S
H4810 C4802 0.930 . S
H4811 C4803 0.929 . S
H4812 C4820 0.929 . S
H4813 C4822 0.930 . S
H4814 C4824 0.930 . S
H4815 C4827 0.929 . S
H4816 C4830 0.930 . S
H4817 C4832 0.960 . S
H4818 C4832 0.960 . S
H4819 C4832 0.960 . S
C4820 H4812 0.929 . S
C4820 C4821 1.377 . S
C4820 C4822 1.384 . S
C4821 C4820 1.377 . S
C4821 C4827 1.390 . S
C4822 H4813 0.930 . S
C4822 C4820 1.384 . S
C4822 C4823 1.372 . S
C4823 C4822 1.372 . S
C4823 C4824 1.400 . S
C4823 C4828 1.490 . S
C4824 H4814 0.930 . S
C4824 C4823 1.400 . S
C4824 C4827 1.386 . S
H4825 C4841 0.930 . S
H4826 C4842 0.931 . S
C4827 H4815 0.929 . S
C4827 C4821 1.390 . S
C4827 C4824 1.386 . S
C4828 C4823 1.490 . S
C4828 C4830 1.395 . S
C4828 C4831 1.403 . S
H4829 C4835 0.930 . S
C4830 H4816 0.930 . S
C4830 C4828 1.395 . S
C4830 C4833 1.403 . S
C4831 C4828 1.403 . S
C4831 C4832 1.524 . S
C4831 C4835 1.400 . S
C4832 H4817 0.960 . S
C4832 H4818 0.960 . S
C4832 H4819 0.960 . S
C4832 C4831 1.524 . S
C4833 C4830 1.403 . S
C4833 C4834 1.392 . S
C4833 C4837 1.495 . S
C4834 C4833 1.392 . S
C4834 C4835 1.385 . S
C4834 C4836 1.478 . S
C4835 H4829 0.930 . S
C4835 C4831 1.400 . S
C4835 C4834 1.385 . S
C4836 C4834 1.478 . S
C4836 C4838 1.381 . S
C4836 C4842 1.383 . S
C4837 C4833 1.495 . S
C4837 H4843 0.959 . S
C4837 H4844 0.961 . S
C4837 H4845 0.960 . S
C4838 C4836 1.381 . S
C4838 C4839 1.394 . S
C4838 H4846 0.930 . S
C4839 C4838 1.394 . S
C4839 C4840 1.383 . S
C4839 H4847 0.929 . S
C4840 C4839 1.383 . S
C4840 C4841 1.377 . S
C4841 H4825 0.930 . S
C4841 C4840 1.377 . S
C4841 C4842 1.379 . S
C4842 H4826 0.931 . S
C4842 C4836 1.383 . S
C4842 C4841 1.379 . S
H4843 C4837 0.959 . S
H4844 C4837 0.961 . S
H4845 C4837 0.960 . S
H4846 C4838 0.930 . S
H4847 C4839 0.929 . S
H4848 C4856 0.929 . S
H4849 C4858 0.930 . S
H4850 C4860 0.930 . S
H4851 C4863 0.929 . S
H4852 C4866 0.930 . S
H4853 C4868 0.960 . S
H4854 C4868 0.960 . S
H4855 C4868 0.960 . S
C4856 H4848 0.929 . S
C4856 C4857 1.377 . S
C4856 C4858 1.384 . S
C4857 C4856 1.377 . S
C4857 C4863 1.390 . S
C4858 H4849 0.930 . S
C4858 C4856 1.384 . S
C4858 C4859 1.372 . S
C4859 C4858 1.372 . S
C4859 C4860 1.400 . S
C4859 C4864 1.490 . S
C4860 H4850 0.930 . S
C4860 C4859 1.400 . S
C4860 C4863 1.386 . S
H4861 C4877 0.930 . S
H4862 C4878 0.931 . S
C4863 H4851 0.929 . S
C4863 C4857 1.390 . S
C4863 C4860 1.386 . S
C4864 C4859 1.490 . S
C4864 C4866 1.395 . S
C4864 C4867 1.403 . S
H4865 C4871 0.930 . S
C4866 H4852 0.930 . S
C4866 C4864 1.395 . S
C4866 C4869 1.403 . S
C4867 C4864 1.403 . S
C4867 C4868 1.524 . S
C4867 C4871 1.400 . S
C4868 H4853 0.960 . S
C4868 H4854 0.960 . S
C4868 H4855 0.960 . S
C4868 C4867 1.524 . S
C4869 C4866 1.403 . S
C4869 C4870 1.392 . S
C4869 C4873 1.495 . S
C4870 C4869 1.392 . S
C4870 C4871 1.385 . S
C4870 C4872 1.478 . S
C4871 H4865 0.930 . S
C4871 C4867 1.400 . S
C4871 C4870 1.385 . S
C4872 C4870 1.478 . S
C4872 C4874 1.381 . S
C4872 C4878 1.383 . S
C4873 C4869 1.495 . S
C4873 H4879 0.959 . S
C4873 H4880 0.961 . S
C4873 H4881 0.960 . S
C4874 C4872 1.381 . S
C4874 C4875 1.394 . S
C4874 H4882 0.930 . S
C4875 C4874 1.394 . S
C4875 C4876 1.383 . S
C4875 H4883 0.929 . S
C4876 C4875 1.383 . S
C4876 C4877 1.377 . S
C4877 H4861 0.930 . S
C4877 C4876 1.377 . S
C4877 C4878 1.379 . S
C4878 H4862 0.931 . S
C4878 C4872 1.383 . S
C4878 C4877 1.379 . S
H4879 C4873 0.959 . S
H4880 C4873 0.961 . S
H4881 C4873 0.960 . S
H4882 C4874 0.930 . S
H4883 C4875 0.929 . S
H4884 C4892 0.929 . S
H4885 C4894 0.930 . S
H4886 C4896 0.930 . S
H4887 C4899 0.929 . S
H4888 C4902 0.930 . S
H4889 C4904 0.960 . S
H4890 C4904 0.960 . S
H4891 C4904 0.960 . S
C4892 H4884 0.929 . S
C4892 C4893 1.377 . S
C4892 C4894 1.384 . S
C4893 C4892 1.377 . S
C4893 C4899 1.390 . S
C4894 H4885 0.930 . S
C4894 C4892 1.384 . S
C4894 C4895 1.372 . S
C4895 C4894 1.372 . S
C4895 C4896 1.400 . S
C4895 C4900 1.490 . S
C4896 H4886 0.930 . S
C4896 C4895 1.400 . S
C4896 C4899 1.386 . S
H4897 C4913 0.930 . S
H4898 C4914 0.931 . S
C4899 H4887 0.929 . S
C4899 C4893 1.390 . S
C4899 C4896 1.386 . S
C4900 C4895 1.490 . S
C4900 C4902 1.395 . S
C4900 C4903 1.403 . S
H4901 C4907 0.930 . S
C4902 H4888 0.930 . S
C4902 C4900 1.395 . S
C4902 C4905 1.403 . S
C4903 C4900 1.403 . S
C4903 C4904 1.524 . S
C4903 C4907 1.400 . S
C4904 H4889 0.960 . S
C4904 H4890 0.960 . S
C4904 H4891 0.960 . S
C4904 C4903 1.524 . S
C4905 C4902 1.403 . S
C4905 C4906 1.392 . S
C4905 C4909 1.495 . S
C4906 C4905 1.392 . S
C4906 C4907 1.385 . S
C4906 C4908 1.478 . S
C4907 H4901 0.930 . S
C4907 C4903 1.400 . S
C4907 C4906 1.385 . S
C4908 C4906 1.478 . S
C4908 C4910 1.381 . S
C4908 C4914 1.383 . S
C4909 C4905 1.495 . S
C4909 H4915 0.959 . S
C4909 H4916 0.961 . S
C4909 H4917 0.960 . S
C4910 C4908 1.381 . S
C4910 C4911 1.394 . S
C4910 H4918 0.930 . S
C4911 C4910 1.394 . S
C4911 C4912 1.383 1_565 S
C4911 H4919 0.929 . S
C4912 C4911 1.383 1_545 S
C4912 C4913 1.377 . S
C4913 H4897 0.930 . S
C4913 C4912 1.377 . S
C4913 C4914 1.379 1_545 S
C4914 H4898 0.931 . S
C4914 C4908 1.383 . S
C4914 C4913 1.379 1_565 S
H4915 C4909 0.959 . S
H4916 C4909 0.961 . S
H4917 C4909 0.960 . S
H4918 C4910 0.930 . S
H4919 C4911 0.929 . S
H4920 C4928 0.929 . S
H4921 C4930 0.930 . S
H4922 C4932 0.930 . S
H4923 C4935 0.929 . S
H4924 C4938 0.930 . S
H4925 C4940 0.960 . S
H4926 C4940 0.960 . S
H4927 C4940 0.960 . S
C4928 H4920 0.929 . S
C4928 C4929 1.377 . S
C4928 C4930 1.384 . S
C4929 C4928 1.377 . S
C4929 C4935 1.390 . S
C4930 H4921 0.930 . S
C4930 C4928 1.384 . S
C4930 C4931 1.372 . S
C4931 C4930 1.372 . S
C4931 C4932 1.400 . S
C4931 C4936 1.490 . S
C4932 H4922 0.930 . S
C4932 C4931 1.400 . S
C4932 C4935 1.386 . S
H4933 C4949 0.930 . S
H4934 C4950 0.931 . S
C4935 H4923 0.929 . S
C4935 C4929 1.390 . S
C4935 C4932 1.386 . S
C4936 C4931 1.490 . S
C4936 C4938 1.395 . S
C4936 C4939 1.403 . S
H4937 C4943 0.930 . S
C4938 H4924 0.930 . S
C4938 C4936 1.395 . S
C4938 C4941 1.403 . S
C4939 C4936 1.403 . S
C4939 C4940 1.524 . S
C4939 C4943 1.400 . S
C4940 H4925 0.960 . S
C4940 H4926 0.960 . S
C4940 H4927 0.960 . S
C4940 C4939 1.524 . S
C4941 C4938 1.403 . S
C4941 C4942 1.392 . S
C4941 C4945 1.495 . S
C4942 C4941 1.392 . S
C4942 C4943 1.385 . S
C4942 C4944 1.478 . S
C4943 H4937 0.930 . S
C4943 C4939 1.400 . S
C4943 C4942 1.385 . S
C4944 C4942 1.478 . S
C4944 C4946 1.381 . S
C4944 C4950 1.383 . S
C4945 C4941 1.495 . S
C4945 H4951 0.959 . S
C4945 H4952 0.961 . S
C4945 H4953 0.960 . S
C4946 C4944 1.381 . S
C4946 C4947 1.394 . S
C4946 H4954 0.930 . S
C4947 C4946 1.394 . S
C4947 C4948 1.383 . S
C4947 H4955 0.929 . S
C4948 C4947 1.383 . S
C4948 C4949 1.377 . S
C4949 H4933 0.930 . S
C4949 C4948 1.377 . S
C4949 C4950 1.379 . S
C4950 H4934 0.931 . S
C4950 C4944 1.383 . S
C4950 C4949 1.379 . S
H4951 C4945 0.959 . S
H4952 C4945 0.961 . S
H4953 C4945 0.960 . S
H4954 C4946 0.930 . S
H4955 C4947 0.929 . S
H4956 C4964 0.929 1_556 S
H4957 C4966 0.930 1_556 S
H4958 C4968 0.930 . S
H4959 C4971 0.929 . S
H4960 C4974 0.930 . S
H4961 C4976 0.960 . S
H4962 C4976 0.960 . S
H4963 C4976 0.960 . S
C4964 H4956 0.929 1_554 S
C4964 C4965 1.377 . S
C4964 C4966 1.384 . S
C4965 C4964 1.377 . S
C4965 C4971 1.390 . S
C4966 H4957 0.930 1_554 S
C4966 C4964 1.384 . S
C4966 C4967 1.372 . S
C4967 C4966 1.372 . S
C4967 C4968 1.400 . S
C4967 C4972 1.490 . S
C4968 H4958 0.930 . S
C4968 C4967 1.400 . S
C4968 C4971 1.386 . S
H4969 C4985 0.930 . S
H4970 C4986 0.931 . S
C4971 H4959 0.929 . S
C4971 C4965 1.390 . S
C4971 C4968 1.386 . S
C4972 C4967 1.490 . S
C4972 C4974 1.395 . S
C4972 C4975 1.403 . S
H4973 C4979 0.930 . S
C4974 H4960 0.930 . S
C4974 C4972 1.395 . S
C4974 C4977 1.403 . S
C4975 C4972 1.403 . S
C4975 C4976 1.524 . S
C4975 C4979 1.400 . S
C4976 H4961 0.960 . S
C4976 H4962 0.960 . S
C4976 H4963 0.960 . S
C4976 C4975 1.524 . S
C4977 C4974 1.403 . S
C4977 C4978 1.392 . S
C4977 C4981 1.495 . S
C4978 C4977 1.392 . S
C4978 C4979 1.385 . S
C4978 C4980 1.478 . S
C4979 H4973 0.930 . S
C4979 C4975 1.400 . S
C4979 C4978 1.385 . S
C4980 C4978 1.478 . S
C4980 C4982 1.383 1_554 S
C4980 C4986 1.383 . S
C4981 C4977 1.495 . S
C4981 H4987 0.959 . S
C4981 H4988 0.961 . S
C4981 H4989 0.960 1_554 S
C4982 C4980 1.383 1_556 S
C4982 C4983 1.394 1_556 S
C4982 H4990 0.928 . S
C4983 C4982 1.394 1_554 S
C4983 C4984 1.386 . S
C4983 H4991 0.927 1_554 S
C4984 C4983 1.386 . S
C4984 C4985 1.377 . S
C4985 H4969 0.930 . S
C4985 C4984 1.377 . S
C4985 C4986 1.379 . S
C4986 H4970 0.931 . S
C4986 C4980 1.383 . S
C4986 C4985 1.379 . S
H4987 C4981 0.959 . S
H4988 C4981 0.961 . S
H4989 C4981 0.960 1_556 S
H4990 C4982 0.928 . S
H4991 C4983 0.927 1_556 S
H4992 C5000 0.929 . S
H4993 C5002 0.930 . S
H4994 C5004 0.930 . S
H4995 C5007 0.929 . S
H4996 C5010 0.930 . S
H4997 C5012 0.960 . S
H4998 C5012 0.960 . S
H4999 C5012 0.960 . S
C5000 H4992 0.929 . S
C5000 C5001 1.377 . S
C5000 C5002 1.384 . S
C5001 C5000 1.377 . S
C5001 C5007 1.390 . S
C5002 H4993 0.930 . S
C5002 C5000 1.384 . S
C5002 C5003 1.372 . S
C5003 C5002 1.372 . S
C5003 C5004 1.400 . S
C5003 C5008 1.490 . S
C5004 H4994 0.930 . S
C5004 C5003 1.400 . S
C5004 C5007 1.386 . S
H5005 C5021 0.930 . S
H5006 C5022 0.931 . S
C5007 H4995 0.929 . S
C5007 C5001 1.390 . S
C5007 C5004 1.386 . S
C5008 C5003 1.490 . S
C5008 C5010 1.395 . S
C5008 C5011 1.403 . S
H5009 C5015 0.930 . S
C5010 H4996 0.930 . S
C5010 C5008 1.395 . S
C5010 C5013 1.403 . S
C5011 C5008 1.403 . S
C5011 C5012 1.524 . S
C5011 C5015 1.400 . S
C5012 H4997 0.960 . S
C5012 H4998 0.960 . S
C5012 H4999 0.960 . S
C5012 C5011 1.524 . S
C5013 C5010 1.403 . S
C5013 C5014 1.392 . S
C5013 C5017 1.495 . S
C5014 C5013 1.392 . S
C5014 C5015 1.385 . S
C5014 C5016 1.478 . S
C5015 H5009 0.930 . S
C5015 C5011 1.400 . S
C5015 C5014 1.385 . S
C5016 C5014 1.478 . S
C5016 C5018 1.381 . S
C5016 C5022 1.383 . S
C5017 C5013 1.495 . S
C5017 H5023 0.959 . S
C5017 H5024 0.961 . S
C5017 H5025 0.960 . S
C5018 C5016 1.381 . S
C5018 C5019 1.394 . S
C5018 H5026 0.930 . S
C5019 C5018 1.394 . S
C5019 C5020 1.383 . S
C5019 H5027 0.929 . S
C5020 C5019 1.383 . S
C5020 C5021 1.377 . S
C5021 H5005 0.930 . S
C5021 C5020 1.377 . S
C5021 C5022 1.379 . S
C5022 H5006 0.931 . S
C5022 C5016 1.383 . S
C5022 C5021 1.379 . S
H5023 C5017 0.959 . S
H5024 C5017 0.961 . S
H5025 C5017 0.960 . S
H5026 C5018 0.930 . S
H5027 C5019 0.929 . S
H5028 C5036 0.929 . S
H5029 C5038 0.930 . S
H5030 C5040 0.930 . S
H5031 C5043 0.929 . S
H5032 C5046 0.930 . S
H5033 C5048 0.960 . S
H5034 C5048 0.960 . S
H5035 C5048 0.960 . S
C5036 H5028 0.929 . S
C5036 C5037 1.377 . S
C5036 C5038 1.384 . S
C5037 C5036 1.377 . S
C5037 C5043 1.390 . S
C5038 H5029 0.930 . S
C5038 C5036 1.384 . S
C5038 C5039 1.372 . S
C5039 C5038 1.372 . S
C5039 C5040 1.400 . S
C5039 C5044 1.490 . S
C5040 H5030 0.930 . S
C5040 C5039 1.400 . S
C5040 C5043 1.386 . S
H5041 C5057 0.930 . S
H5042 C5058 0.931 . S
C5043 H5031 0.929 . S
C5043 C5037 1.390 . S
C5043 C5040 1.386 . S
C5044 C5039 1.490 . S
C5044 C5046 1.395 . S
C5044 C5047 1.403 . S
H5045 C5051 0.930 . S
C5046 H5032 0.930 . S
C5046 C5044 1.395 . S
C5046 C5049 1.403 . S
C5047 C5044 1.403 . S
C5047 C5048 1.524 . S
C5047 C5051 1.400 . S
C5048 H5033 0.960 . S
C5048 H5034 0.960 . S
C5048 H5035 0.960 . S
C5048 C5047 1.524 . S
C5049 C5046 1.403 . S
C5049 C5050 1.392 . S
C5049 C5053 1.495 . S
C5050 C5049 1.392 . S
C5050 C5051 1.385 . S
C5050 C5052 1.478 . S
C5051 H5045 0.930 . S
C5051 C5047 1.400 . S
C5051 C5050 1.385 . S
C5052 C5050 1.478 . S
C5052 C5054 1.381 . S
C5052 C5058 1.383 . S
C5053 C5049 1.495 . S
C5053 H5059 0.959 . S
C5053 H5060 0.961 . S
C5053 H5061 0.960 . S
C5054 C5052 1.381 . S
C5054 C5055 1.394 . S
C5054 H5062 0.912 1_554 S
C5055 C5054 1.394 . S
C5055 C5056 1.383 . S
C5055 H5063 0.929 1_554 S
C5056 C5055 1.383 . S
C5056 C5057 1.377 . S
C5057 H5041 0.930 . S
C5057 C5056 1.377 . S
C5057 C5058 1.379 . S
C5058 H5042 0.931 . S
C5058 C5052 1.383 . S
C5058 C5057 1.379 . S
H5059 C5053 0.959 . S
H5060 C5053 0.961 . S
H5061 C5053 0.960 . S
H5062 C5054 0.912 1_556 S
H5063 C5055 0.929 1_556 S
H5064 C5072 0.929 . S
H5065 C5074 0.930 . S
H5066 C5076 0.930 . S
H5067 C5079 0.929 1_545 S
H5068 C5082 0.930 . S
H5069 C5084 0.960 . S
H5070 C5084 0.960 . S
H5071 C5084 0.960 . S
C5072 H5064 0.929 . S
C5072 C5073 1.371 1_565 S
C5072 C5074 1.384 . S
C5073 C5072 1.371 1_545 S
C5073 C5079 1.386 1_545 S
C5074 H5065 0.930 . S
C5074 C5072 1.384 . S
C5074 C5075 1.372 . S
C5075 C5074 1.372 . S
C5075 C5076 1.400 . S
C5075 C5080 1.490 . S
C5076 H5066 0.930 . S
C5076 C5075 1.400 . S
C5076 C5079 1.386 . S
H5077 C5093 0.930 . S
H5078 C5094 0.931 . S
C5079 H5067 0.929 1_565 S
C5079 C5073 1.386 1_565 S
C5079 C5076 1.386 . S
C5080 C5075 1.490 . S
C5080 C5082 1.395 . S
C5080 C5083 1.403 . S
H5081 C5087 0.930 . S
C5082 H5068 0.930 . S
C5082 C5080 1.395 . S
C5082 C5085 1.403 . S
C5083 C5080 1.403 . S
C5083 C5084 1.524 . S
C5083 C5087 1.400 . S
C5084 H5069 0.960 . S
C5084 H5070 0.960 . S
C5084 H5071 0.960 . S
C5084 C5083 1.524 . S
C5085 C5082 1.403 . S
C5085 C5086 1.392 . S
C5085 C5089 1.495 . S
C5086 C5085 1.392 . S
C5086 C5087 1.385 . S
C5086 C5088 1.478 . S
C5087 H5081 0.930 . S
C5087 C5083 1.400 . S
C5087 C5086 1.385 . S
C5088 C5086 1.478 . S
C5088 C5090 1.381 . S
C5088 C5094 1.383 . S
C5089 C5085 1.495 . S
C5089 H5095 0.959 . S
C5089 H5096 0.961 . S
C5089 H5097 0.960 . S
C5090 C5088 1.381 . S
C5090 C5091 1.394 . S
C5090 H5098 0.930 . S
C5091 C5090 1.394 . S
C5091 C5092 1.383 . S
C5091 H5099 0.929 . S
C5092 C5091 1.383 . S
C5092 C5093 1.377 . S
C5093 H5077 0.930 . S
C5093 C5092 1.377 . S
C5093 C5094 1.379 . S
C5094 H5078 0.931 . S
C5094 C5088 1.383 . S
C5094 C5093 1.379 . S
H5095 C5089 0.959 . S
H5096 C5089 0.961 . S
H5097 C5089 0.960 . S
H5098 C5090 0.930 . S
H5099 C5091 0.929 . S
H5100 C5108 0.929 . S
H5101 C5110 0.930 . S
H5102 C5112 0.930 . S
H5103 C5115 0.929 . S
H5104 C5118 0.930 . S
H5105 C5120 0.960 . S
H5106 C5120 0.960 . S
H5107 C5120 0.960 . S
C5108 H5100 0.929 . S
C5108 C5109 1.377 . S
C5108 C5110 1.384 . S
C5109 C5108 1.377 . S
C5109 C5115 1.390 . S
C5110 H5101 0.930 . S
C5110 C5108 1.384 . S
C5110 C5111 1.372 . S
C5111 C5110 1.372 . S
C5111 C5112 1.400 . S
C5111 C5116 1.490 . S
C5112 H5102 0.930 . S
C5112 C5111 1.400 . S
C5112 C5115 1.386 . S
H5113 C5129 0.930 . S
H5114 C5130 0.931 . S
C5115 H5103 0.929 . S
C5115 C5109 1.390 . S
C5115 C5112 1.386 . S
C5116 C5111 1.490 . S
C5116 C5118 1.395 . S
C5116 C5119 1.403 . S
H5117 C5123 0.930 . S
C5118 H5104 0.930 . S
C5118 C5116 1.395 . S
C5118 C5121 1.403 . S
C5119 C5116 1.403 . S
C5119 C5120 1.524 . S
C5119 C5123 1.400 . S
C5120 H5105 0.960 . S
C5120 H5106 0.960 . S
C5120 H5107 0.960 . S
C5120 C5119 1.524 . S
C5121 C5118 1.403 . S
C5121 C5122 1.392 . S
C5121 C5125 1.495 . S
C5122 C5121 1.392 . S
C5122 C5123 1.385 . S
C5122 C5124 1.478 . S
C5123 H5117 0.930 . S
C5123 C5119 1.400 . S
C5123 C5122 1.385 . S
C5124 C5122 1.478 . S
C5124 C5126 1.381 . S
C5124 C5130 1.383 . S
C5125 C5121 1.495 . S
C5125 H5131 0.959 . S
C5125 H5132 0.961 . S
C5125 H5133 0.960 . S
C5126 C5124 1.381 . S
C5126 C5127 1.394 . S
C5126 H5134 0.930 . S
C5127 C5126 1.394 . S
C5127 C5128 1.383 . S
C5127 H5135 0.929 . S
C5128 C5127 1.383 . S
C5128 C5129 1.377 . S
C5129 H5113 0.930 . S
C5129 C5128 1.377 . S
C5129 C5130 1.379 . S
C5130 H5114 0.931 . S
C5130 C5124 1.383 . S
C5130 C5129 1.379 . S
H5131 C5125 0.959 . S
H5132 C5125 0.961 . S
H5133 C5125 0.960 . S
H5134 C5126 0.930 . S
H5135 C5127 0.929 . S
C1689 C105 1.645 . S
C1708 C392 1.486 . S
C1725 C65 2.238 . S
C1744 C483 2.149 . S
C1761 C73 1.454 . S
C1780 C560 1.359 . S
C1816 C658 1.557 . S
C1797 C92 1.714 . S
C1833 C17 1.654 . S
C1852 C742 1.589 . S
C1888 C814 0.938 . S
C1869 C37 0.946 . S
C1924 C903 0.730 . S
C1905 C49 0.695 . S
C1941 C8 1.306 . S
C1960 C980 1.157 . S
C1996 C399 1.951 . S
C1977 C231 1.996 . S
C2013 C241 0.593 . S
C2032 C490 0.663 . S
C2068 C567 1.171 . S
C2049 C273 1.197 . S
C2104 C644 1.493 . S
C2085 C171 1.562 1_556 S
C2121 C227 2.028 . S
C2140 C728 1.880 . S
C2176 C830 1.023 . S
C2157 C245 1.118 . S
C2212 C910 0.678 . S
C2193 C269 0.745 . S
C2248 C987 1.344 . S
C2229 C175 1.415 . S
C2284 C406 1.458 . S
C2265 C162 1.540 . S
C2301 C289 2.054 . S
C2320 C1071 1.950 . S
C2356 C1159 2.153 . S
C2337 C330 2.319 . S
C2392 C1232 0.473 . S
C2373 C317 0.350 . S
C2409 C120 0.683 . S
C2428 C994 0.631 . S
C2445 C134 1.463 . S
C2464 C574 1.434 . S
C2481 C331 2.322 . S
C2500 C1323 2.213 . S
C2536 C1400 0.590 . S
C2517 C303 0.621 . S
C2572 C403 1.565 1_565 S
C2553 C59 1.665 . S
C2608 C1418 2.210 . S
C2589 C107 2.268 . S
C2625 C91 1.511 . S
C2644 C571 1.399 . S
C2661 C78 1.752 . S
C2680 C1318 1.646 . S
C2716 C730 1.598 . S
C2697 C7 1.622 . S
C2733 C51 0.985 . S
C2752 C1162 0.962 . S
C2788 C914 0.755 1_566 S
C2769 C31 0.753 . S
C2824 C1495 1.159 . S
C2805 C22 1.314 . S
C2860 C410 1.998 . S
C2841 C143 2.089 . S
C2896 C1402 0.694 . S
C2877 C315 0.638 . S
C2913 C115 1.283 . S
C2932 C578 1.258 . S
C2949 C287 1.594 . S
C2968 C1327 1.480 . S
C2985 C147 1.980 . S
C3004 C739 1.927 . S
C3040 C1155 1.139 . S
C3021 C311 1.186 . S
C3057 C119 0.787 . S
C3076 C898 0.706 . S
C3093 C283 1.482 . S
C3112 C1502 1.393 . S
C3129 C190 1.557 . S
C3148 C394 1.479 . S
C3165 C177 2.088 . S
C3184 C1082 2.025 . S
C3201 C260 2.357 . S
C3220 C812 2.196 . S
C3237 C247 0.405 . S
C3256 C1243 0.438 . S
C3292 C1486 0.670 . S
C3273 C274 0.724 . S
C3309 C218 1.477 . S
C3328 C562 1.381 . S
C3364 C662 2.290 . S
C3345 C261 2.363 . S
C3400 C487 0.639 . S
C3381 C205 0.673 . S
C3417 C77 1.644 . S
C3436 C1568 1.478 . S
C3472 C1407 2.144 . S
C3453 C93 2.238 . S
C3489 C101 1.450 . S
C3508 C1652 1.388 . S
C3525 C64 1.714 . S
C3544 C1330 1.547 . S
C3561 C45 1.656 . S
C3580 C1078 1.580 . S
C3616 C1150 0.831 . S
C3597 C9 0.935 . S
C3652 C1239 0.644 . S
C3633 C21 0.728 . S
C3688 C1484 1.159 . S
C3669 C36 1.306 . S
C3724 C1575 1.946 . S
C3705 C259 1.996 . S
C3741 C185 0.595 . S
C3760 C1414 0.583 . S
C3796 C1659 1.220 . S
C3777 C203 1.209 . S
C3832 C1316 1.496 . S
C3813 C213 1.561 . S
C3868 C1064 1.839 . S
C3849 C255 2.032 . S
C3885 C189 1.116 . S
C3904 C1166 1.049 . S
C3940 C1246 0.805 . S
C3921 C199 0.744 . S
C3957 C217 1.415 . S
C3976 C1491 1.342 . S
C4012 C1582 1.404 . S
C3993 C316 1.541 . S
C4029 C135 2.052 . S
C4048 C735 1.968 . S
C4084 C823 2.151 . S
C4065 C148 2.324 . S
C4120 C896 0.497 . S
C4101 C163 0.353 . S
C4156 C1498 0.626 . S
C4137 C302 0.681 . S
C4173 C288 1.459 1_554 S
C4192 C1666 1.413 . S
C4228 C651 2.251 . S
C4209 C149 2.314 . S
C4264 C476 0.716 . S
C4245 C121 0.613 . S
C4281 C87 1.664 . S
C4300 C1579 1.545 . S
C4336 C494 2.217 . S
C4317 C79 2.268 . S
C4353 C63 1.517 . S
C4372 C1663 1.457 . S
C4389 C106 1.751 . S
C4408 C646 1.577 . S
C4425 C35 1.623 . S
C4444 C1066 1.569 . S
C4480 C826 0.883 . S
C4461 C23 0.984 . S
C4497 C3 0.752 . S
C4516 C1250 0.726 . S
C4533 C50 1.323 . S
C4552 C991 1.246 . S
C4588 C1586 1.975 . S
C4569 C325 2.089 . S
C4605 C161 0.640 . S
C4624 C478 0.721 . S
C4660 C1670 1.230 . S
C4641 C297 1.284 . S
C4677 C133 1.594 . S
C4696 C655 1.486 . S
C4713 C329 1.986 . S
C4732 C1075 1.933 . S
C4768 C819 1.126 . S
C4749 C157 1.186 . S
C4785 C301 0.785 . S
C4804 C1234 0.767 . S
C4840 C998 1.396 . S
C4821 C129 1.483 . S
C4876 C1570 1.444 . S
C4857 C246 1.557 . S
C4912 C746 1.995 1_655 S
C4893 C219 2.087 . S
C4929 C232 2.353 . S
C4948 C1148 2.170 . S
C4984 C907 0.582 . S
C4965 C191 0.407 . S
C5001 C204 0.665 . S
C5020 C982 0.706 . S
C5037 C176 1.474 . S
C5056 C1654 1.443 . S
C5092 C1334 2.283 . S
C5073 C233 2.375 . S
C5128 C1411 0.688 . S
C5109 C275 0.664 . S
