# Generated by pormake.
# Topology tsx, (6,3)-cn, num edge types: 1
# Building blocks:
#     Node 0, Type 0, BuildingBlock: CIFDUS_clean_sbu_1, # of connection points: 6
#     Node 1, Type 0, BuildingBlock: CIFDUS_clean_sbu_1, # of connection points: 6
#     Node 2, Type 1, BuildingBlock: OLANEW_clean_sbu_2, # of connection points: 3
#     Node 3, Type 1, BuildingBlock: OLANEW_clean_sbu_2, # of connection points: 3
#     Node 4, Type 1, BuildingBlock: OLANEW_clean_sbu_2, # of connection points: 3
#     Node 5, Type 1, BuildingBlock: OLANEW_clean_sbu_2, # of connection points: 3
#     Edge 6, Type (0, 1), BuildingBlock: FUNLAD_clean_linker_0, # of connection points: 2
#     Edge 7, Type (0, 1), BuildingBlock: FUNLAD_clean_linker_0, # of connection points: 2
#     Edge 8, Type (0, 1), BuildingBlock: FUNLAD_clean_linker_0, # of connection points: 2
#     Edge 9, Type (0, 1), BuildingBlock: FUNLAD_clean_linker_0, # of connection points: 2
#     Edge 10, Type (0, 1), BuildingBlock: FUNLAD_clean_linker_0, # of connection points: 2
#     Edge 11, Type (0, 1), BuildingBlock: FUNLAD_clean_linker_0, # of connection points: 2
#     Edge 12, Type (0, 1), BuildingBlock: FUNLAD_clean_linker_0, # of connection points: 2
#     Edge 13, Type (0, 1), BuildingBlock: FUNLAD_clean_linker_0, # of connection points: 2
#     Edge 14, Type (0, 1), BuildingBlock: FUNLAD_clean_linker_0, # of connection points: 2
#     Edge 15, Type (0, 1), BuildingBlock: FUNLAD_clean_linker_0, # of connection points: 2
#     Edge 16, Type (0, 1), BuildingBlock: FUNLAD_clean_linker_0, # of connection points: 2
#     Edge 17, Type (0, 1), BuildingBlock: FUNLAD_clean_linker_0, # of connection points: 2
# Relax obj value: 0.039
# Max RMSD: 0.094
# Mean RMSD: 0.051
data_MOF--net-tsx--node1-CIFDUS_clean_sbu_1--node2-OLANEW_clean_sbu_2--edge1-FUNLAD_clean_linker_0
_symmetry_space_group_name_H-M    P1
_symmetry_Int_Tables_number       1
_symmetry_cell_setting            triclinic
loop_
_symmetry_equiv_pos_as_xyz
'x, y, z'
_cell_length_a     23.473508
_cell_length_b     28.271767
_cell_length_c     40.519862
_cell_angle_alpha  102.71361
_cell_angle_beta   91.861434
_cell_angle_gamma 90.704685
loop_
_atom_site_label
_atom_site_type_symbol
_atom_site_fract_x
_atom_site_fract_y
_atom_site_fract_z
_atom_type_partial_charge
O0 O 0.9629 0.09658 0.01247 0.0
Mn1 Mn 0.01954 0.03915 0.01028 0.0
O2 O 0.88198 0.06388 0.98443 0.0
Mn3 Mn 0.91109 0.00414 0.9646 0.0
O4 O 0.07509 0.98177 0.00833 0.0
O5 O 0.08459 0.08755 0.02385 0.0
Mn6 Mn 0.12445 0.07265 0.0577 0.0
O7 O 1.00335 0.03841 0.06095 0.0
O8 O 0.15174 0.0107 0.04178 0.0
O9 O 0.03478 0.03894 0.95948 0.0
O10 O 0.95803 0.00301 0.92863 0.0
O11 O 0.16064 0.12621 0.04878 0.0
O12 O 0.07589 0.07841 0.09316 0.0
C13 C 0.92416 0.95273 0.99576 0.0
C14 C 0.91053 0.0994 0.00268 0.0
C15 C 0.1242 0.97617 0.02177 0.0
C16 C 0.12099 0.12277 0.02539 0.0
C17 C 0.02723 0.05728 0.08998 0.0
C18 C 0.00818 0.02167 0.93097 0.0
O19 O 0.95595 0.99033 0.99644 0.0
O20 O 0.88196 0.94746 0.97389 0.0
O21 O 0.51944 0.56411 0.48741 0.0
Mn22 Mn 0.57791 0.51251 0.49602 0.0
O23 O 0.46215 0.52425 0.44382 0.0
Mn24 Mn 0.49377 0.46275 0.43695 0.0
O25 O 0.63479 0.45913 0.50342 0.0
O26 O 0.63532 0.56499 0.51537 0.0
Mn27 Mn 0.66978 0.55403 0.5522 0.0
O28 O 0.5461 0.51543 0.54402 0.0
O29 O 0.70564 0.49511 0.53913 0.0
O30 O 0.61171 0.50878 0.44801 0.0
O31 O 0.55755 0.454 0.41103 0.0
O32 O 0.70138 0.61104 0.54509 0.0
O33 O 0.61214 0.5545 0.58248 0.0
C34 C 0.48588 0.42538 0.47771 0.0
C35 C 0.47735 0.5626 0.46588 0.0
C36 C 0.6826 0.45774 0.51955 0.0
C37 C 0.66595 0.60402 0.51928 0.0
C38 C 0.56345 0.53384 0.57465 0.0
C39 C 0.60227 0.48065 0.41866 0.0
O40 O 0.52069 0.46044 0.47725 0.0
O41 O 0.45584 0.41169 0.44988 0.0
O42 O 0.01365 0.93945 0.37978 0.0
Cd43 Cd 0.01736 0.92512 0.43739 0.0
O44 O 0.05999 0.009 0.39697 0.0
Cd45 Cd 0.04046 0.01558 0.44994 0.0
O46 O 0.98015 0.06665 0.47719 0.0
C47 C 0.93116 0.06604 0.46274 0.0
O48 O 0.91927 0.03234 0.43532 0.0
C49 C 0.03855 0.9762 0.37302 0.0
C50 C 0.10175 0.85928 0.44603 0.0
O51 O 0.0507 0.84502 0.43621 0.0
O52 O 0.11314 0.90489 0.45184 0.0
O53 O 0.02604 0.1755 0.66168 0.0
Cd54 Cd 0.01717 0.21608 0.61485 0.0
O55 O 0.97383 0.11507 0.63296 0.0
Cd56 Cd 0.92318 0.04778 0.61586 0.0
O57 O 0.87139 0.9866 0.58691 0.0
C58 C 0.81772 0.99007 0.58301 0.0
O59 O 0.79323 0.03066 0.59724 0.0
C60 C 1.00283 0.13415 0.65985 0.0
C61 C 0.11954 0.26363 0.60911 0.0
O62 O 0.07969 0.28571 0.62688 0.0
O63 O 0.11055 0.2193 0.5938 0.0
O64 O 0.47268 0.42524 0.86339 0.0
Cd65 Cd 0.46175 0.42503 0.92333 0.0
O66 O 0.45513 0.50319 0.8737 0.0
Cd67 Cd 0.4343 0.51313 0.92668 0.0
O68 O 0.38057 0.56576 0.95783 0.0
C69 C 0.32992 0.5679 0.94626 0.0
O70 O 0.31255 0.53547 0.91921 0.0
C71 C 0.46757 0.46433 0.85303 0.0
C72 C 0.5442 0.37082 0.94867 0.0
O73 O 0.49724 0.35133 0.93479 0.0
O74 O 0.55252 0.41622 0.95045 0.0
O75 O 0.6419 0.52685 0.11671 0.0
Cd76 Cd 0.62783 0.53399 0.05831 0.0
O77 O 0.59905 0.45659 0.11601 0.0
Cd78 Cd 0.56132 0.43936 0.0643 0.0
O79 O 0.50057 0.3925 0.02876 0.0
C80 C 0.45211 0.40674 0.02028 0.0
O81 O 0.43894 0.45242 0.03119 0.0
C82 C 0.62799 0.4936 0.13167 0.0
C83 C 0.70648 0.60468 0.04944 0.0
O84 O 0.65694 0.61616 0.06063 0.0
O85 O 0.71826 0.55955 0.04127 0.0
C86 C 0.15983 0.14417 0.97486 0.0
C87 C 0.12305 0.15552 0.00196 0.0
C88 C 0.18732 0.18119 0.96311 0.0
C89 C 0.17885 0.23015 0.97875 0.0
C90 C 0.13587 0.24106 0.00245 0.0
C91 C 0.10855 0.20401 0.01419 0.0
C92 C 0.21912 0.26989 0.97524 0.0
C93 C 0.27517 0.26219 0.96991 0.0
C94 C 0.32068 0.3009 0.97778 0.0
C95 C 0.37717 0.28676 0.98211 0.0
C96 C 0.42036 0.3212 0.99442 0.0
C97 C 0.40831 0.37088 0.00252 0.0
H98 H 0.26707 0.36368 0.97964 0.0
C99 C 0.35272 0.38539 0.99596 0.0
C100 C 0.30936 0.35085 0.98366 0.0
H101 H 0.34214 0.42344 0.00141 0.0
H102 H 0.17219 0.10698 0.96532 0.0
H103 H 0.21828 0.17129 0.94369 0.0
H104 H 0.12769 0.27838 0.01456 0.0
H105 H 0.08109 0.21367 0.03554 0.0
H106 H 0.20421 0.30664 0.9832 0.0
H107 H 0.2899 0.22513 0.96412 0.0
H108 H 0.3876 0.24869 0.97747 0.0
H109 H 0.46276 0.30865 0.99881 0.0
C110 C 0.11946 0.88698 0.99518 0.0
C111 C 0.14872 0.92707 0.01571 0.0
C112 C 0.14086 0.84022 0.99165 0.0
C113 C 0.19241 0.83268 0.00838 0.0
C114 C 0.22163 0.8728 0.02867 0.0
C115 C 0.20028 0.91938 0.03222 0.0
C116 C 0.21732 0.78396 0.00583 0.0
C117 C 0.20525 0.74559 0.98017 0.0
C118 C 0.23506 0.69852 0.97559 0.0
C119 C 0.21115 0.65817 0.95252 0.0
C120 C 0.24063 0.61476 0.94435 0.0
C121 C 0.29495 0.6108 0.95899 0.0
H122 H 0.30952 0.72395 0.00868 0.0
C123 C 0.31787 0.65033 0.98324 0.0
C124 C 0.28851 0.69381 0.99134 0.0
H125 H 0.35977 0.64856 0.99487 0.0
H126 H 0.07956 0.89157 0.98222 0.0
H127 H 0.1161 0.81032 0.97642 0.0
H128 H 0.26134 0.86815 0.04189 0.0
H129 H 0.22398 0.94926 0.04838 0.0
H130 H 0.24865 0.78068 0.02541 0.0
H131 H 0.17364 0.74883 0.96071 0.0
H132 H 0.17016 0.66063 0.93997 0.0
H133 H 0.22167 0.58494 0.92559 0.0
C134 C 0.95463 0.8733 0.00496 0.0
C135 C 0.93119 0.91865 0.01794 0.0
C136 C 0.94218 0.83381 0.01927 0.0
C137 C 0.90482 0.83905 0.04631 0.0
C138 C 0.88641 0.8857 0.06134 0.0
C139 C 0.89886 0.92507 0.04697 0.0
C140 C 0.87805 0.7968 0.05665 0.0
C141 C 0.87029 0.75304 0.03538 0.0
C142 C 0.83026 0.71516 0.04172 0.0
C143 C 0.8393 0.66635 0.02647 0.0
C144 C 0.79949 0.63031 0.02926 0.0
C145 C 0.74916 0.64254 0.04677 0.0
H146 H 0.77066 0.76467 0.07071 0.0
C147 C 0.74007 0.69139 0.06202 0.0
C148 C 0.78017 0.72731 0.0596 0.0
H149 H 0.70172 0.70201 0.0757 0.0
H150 H 0.97852 0.86739 0.98203 0.0
H151 H 0.95914 0.7989 0.00775 0.0
H152 H 0.85814 0.89098 0.08241 0.0
H153 H 0.87926 0.95958 0.05684 0.0
H154 H 0.85771 0.80372 0.08091 0.0
H155 H 0.89066 0.74524 0.01118 0.0
H156 H 0.87707 0.65612 0.01211 0.0
H157 H 0.80772 0.593 0.0172 0.0
C158 C 0.82576 0.14577 0.02412 0.0
C159 C 0.8807 0.14566 0.01154 0.0
C160 C 0.79038 0.18514 0.02462 0.0
C161 C 0.80864 0.22464 0.01144 0.0
C162 C 0.86554 0.22642 0.00177 0.0
C163 C 0.90146 0.18714 0.00184 0.0
C164 C 0.7681 0.26205 0.00499 0.0
C165 C 0.71227 0.25137 0.99741 0.0
C166 C 0.67019 0.28413 0.98618 0.0
C167 C 0.61787 0.26365 0.97167 0.0
C168 C 0.57709 0.29186 0.95972 0.0
C169 C 0.58739 0.34151 0.9621 0.0
H170 H 0.71924 0.35177 0.00091 0.0
C171 C 0.63917 0.36251 0.97725 0.0
C172 C 0.68021 0.33416 0.98923 0.0
H173 H 0.64812 0.40084 0.97978 0.0
H174 H 0.80917 0.11426 0.03208 0.0
H175 H 0.74794 0.18345 0.03401 0.0
H176 H 0.88107 0.25678 0.99207 0.0
H177 H 0.94371 0.18766 0.9919 0.0
H178 H 0.7858 0.29686 0.00295 0.0
H179 H 0.69671 0.21488 0.9969 0.0
H180 H 0.60862 0.22535 0.96914 0.0
H181 H 0.53755 0.27453 0.94842 0.0
C182 C 0.61793 0.67485 0.50574 0.0
C183 C 0.66094 0.64049 0.49877 0.0
C184 C 0.62662 0.72149 0.5001 0.0
C185 C 0.67866 0.73406 0.48753 0.0
C186 C 0.71764 0.69733 0.47602 0.0
C187 C 0.7092 0.65103 0.48202 0.0
C188 C 0.69847 0.78523 0.49136 0.0
C189 C 0.68331 0.82079 0.51745 0.0
C190 C 0.71747 0.86626 0.52987 0.0
C191 C 0.69105 0.90697 0.5491 0.0
C192 C 0.72338 0.94781 0.56548 0.0
C193 C 0.78307 0.94839 0.56356 0.0
H194 H 0.79936 0.83636 0.51335 0.0
C195 C 0.80945 0.90809 0.54371 0.0
C196 C 0.77708 0.86751 0.527 0.0
H197 H 0.85534 0.90742 0.54165 0.0
H198 H 0.58065 0.66753 0.51903 0.0
H199 H 0.59454 0.7484 0.50801 0.0
H200 H 0.75768 0.70574 0.4658 0.0
H201 H 0.74318 0.62512 0.47681 0.0
H202 H 0.73359 0.79187 0.47605 0.0
H203 H 0.64804 0.81482 0.53281 0.0
H204 H 0.64536 0.90672 0.55215 0.0
H205 H 0.7017 0.97826 0.58058 0.0
C206 C 0.68618 0.36729 0.49774 0.0
C207 C 0.71145 0.41064 0.51662 0.0
C208 C 0.71277 0.32284 0.49631 0.0
C209 C 0.76545 0.32086 0.51363 0.0
C210 C 0.79032 0.36415 0.53257 0.0
C211 C 0.7639 0.40844 0.53396 0.0
C212 C 0.79592 0.27484 0.51311 0.0
C213 C 0.78834 0.23444 0.48842 0.0
C214 C 0.82301 0.18995 0.48572 0.0
C215 C 0.80497 0.14783 0.46211 0.0
C216 C 0.83882 0.10673 0.45586 0.0
C217 C 0.89178 0.10676 0.47306 0.0
H218 H 0.8917 0.22077 0.52199 0.0
C219 C 0.90889 0.14802 0.49777 0.0
C220 C 0.87513 0.18924 0.50395 0.0
H221 H 0.94958 0.14931 0.51138 0.0
H222 H 0.64546 0.36753 0.48441 0.0
H223 H 0.69121 0.29028 0.48218 0.0
H224 H 0.83069 0.36382 0.54626 0.0
H225 H 0.78464 0.44095 0.5489 0.0
H226 H 0.82755 0.2756 0.5333 0.0
H227 H 0.7567 0.2341 0.46824 0.0
H228 H 0.76515 0.1471 0.44768 0.0
H229 H 0.82423 0.07549 0.43671 0.0
C230 C 0.44372 0.43903 0.53399 0.0
C231 C 0.47186 0.40815 0.50801 0.0
C232 C 0.41502 0.42004 0.55799 0.0
C233 C 0.41351 0.36968 0.55599 0.0
C234 C 0.44587 0.33953 0.53161 0.0
C235 C 0.47412 0.35852 0.50746 0.0
C236 C 0.37351 0.34652 0.57562 0.0
C237 C 0.32295 0.36596 0.58539 0.0
C238 C 0.27488 0.33791 0.59516 0.0
C239 C 0.26851 0.28746 0.58283 0.0
C240 C 0.21858 0.26323 0.5881 0.0
C241 C 0.17388 0.28881 0.60571 0.0
H242 H 0.23426 0.40212 0.62295 0.0
C243 C 0.18093 0.33889 0.61896 0.0
C244 C 0.23077 0.36319 0.61352 0.0
H245 H 0.14729 0.35964 0.63269 0.0
H246 H 0.44039 0.47732 0.53434 0.0
H247 H 0.39227 0.44472 0.57712 0.0
H248 H 0.44566 0.30066 0.52957 0.0
H249 H 0.49483 0.33406 0.48717 0.0
H250 H 0.38249 0.30976 0.57787 0.0
H251 H 0.31381 0.40277 0.58339 0.0
H252 H 0.30055 0.26674 0.56764 0.0
H253 H 0.21447 0.22461 0.57758 0.0
C254 C 0.40566 0.60811 0.43888 0.0
C255 C 0.44295 0.60651 0.46649 0.0
C256 C 0.36913 0.64683 0.43988 0.0
C257 C 0.36829 0.68499 0.4687 0.0
C258 C 0.40754 0.68487 0.49565 0.0
C259 C 0.44445 0.64589 0.49465 0.0
C260 C 0.32681 0.72496 0.47086 0.0
C261 C 0.27456 0.71747 0.45546 0.0
C262 C 0.23115 0.75546 0.45546 0.0
C263 C 0.17471 0.74039 0.44559 0.0
C264 C 0.13276 0.7741 0.44301 0.0
C265 C 0.14621 0.82393 0.45005 0.0
H266 H 0.2878 0.81863 0.4699 0.0
C267 C 0.20255 0.83929 0.46028 0.0
C268 C 0.24468 0.80544 0.46292 0.0
H269 H 0.21436 0.87745 0.46578 0.0
H270 H 0.40413 0.57906 0.41641 0.0
H271 H 0.3415 0.64662 0.41793 0.0
H272 H 0.40847 0.71424 0.51794 0.0
H273 H 0.4728 0.64594 0.51628 0.0
H274 H 0.33872 0.76016 0.4866 0.0
H275 H 0.26184 0.68081 0.44256 0.0
H276 H 0.16299 0.70218 0.4395 0.0
H277 H 0.08985 0.76094 0.43508 0.0
C278 C 0.014 0.08229 0.15195 0.0
C279 C 1.00275 0.04866 0.12127 0.0
C280 C 0.00494 0.06961 0.18275 0.0
C281 C 0.98516 0.02272 0.18352 0.0
C282 C 0.96889 0.99065 0.15291 0.0
C283 C 0.97794 0.00343 0.12196 0.0
C284 C 0.98474 0.00584 0.21577 0.0
C285 C 0.02607 0.02001 0.24 0.0
C286 C 0.02972 0.00543 0.27311 0.0
C287 C 0.06667 0.03234 0.29851 0.0
C288 C 0.07082 0.02174 0.3305 0.0
C289 C 0.03846 0.98353 0.33792 0.0
H290 H 0.97069 0.94356 0.26105 0.0
C291 C 1.003 0.95523 0.3122 0.0
C292 C 0.99854 0.96608 0.28008 0.0
H293 H 0.97754 0.92548 0.3171 0.0
H294 H 0.03267 0.1176 0.15214 0.0
H295 H 0.01555 0.096 0.20593 0.0
H296 H 0.95282 0.95454 0.15285 0.0
H297 H 0.96995 0.97657 0.09873 0.0
H298 H 0.95177 0.97996 0.21857 0.0
H299 H 0.0595 0.04463 0.23562 0.0
H300 H 0.09171 0.06251 0.29384 0.0
H301 H 0.09877 0.04417 0.34963 0.0
C302 C 0.01794 0.99332 0.86884 0.0
C303 C 0.0334 0.02676 0.89901 0.0
C304 C 0.03076 0.00279 0.83752 0.0
C305 C 0.05847 0.04648 0.83569 0.0
C306 C 0.0784 0.07783 0.86593 0.0
C307 C 0.06598 0.06808 0.89738 0.0
C308 C 0.06358 0.06221 0.80316 0.0
C309 C 0.02724 0.04686 0.77625 0.0
C310 C 0.02486 0.06859 0.746 0.0
C311 C 0.99994 0.04169 0.7155 0.0
C312 C 0.99297 0.06234 0.68725 0.0
C313 C 0.00996 0.11068 0.68908 0.0
H314 H 0.05996 0.13945 0.77095 0.0
C315 C 0.03516 0.13742 0.71963 0.0
C316 C 0.04239 0.1168 0.74771 0.0
H317 H 0.04869 0.17486 0.72215 0.0
H318 H 0.99378 0.96062 0.86941 0.0
H319 H 0.01724 0.97639 0.81494 0.0
H320 H 0.10069 0.11139 0.86528 0.0
H321 H 0.07833 0.0945 0.92024 0.0
H322 H 0.09521 0.0903 0.80255 0.0
H323 H 0.99567 0.01869 0.77665 0.0
H324 H 0.98563 0.00456 0.71355 0.0
H325 H 0.97456 0.04022 0.66417 0.0
C326 C 0.52029 0.47874 0.60719 0.0
C327 C 0.52935 0.52603 0.60273 0.0
C328 C 0.49831 0.47105 0.63728 0.0
C329 C 0.48555 0.51074 0.66346 0.0
C330 C 0.49165 0.55792 0.65805 0.0
C331 C 0.51421 0.56555 0.62813 0.0
C332 C 0.46919 0.50483 0.6974 0.0
C333 C 0.48945 0.46927 0.71168 0.0
C334 C 0.48216 0.4683 0.74787 0.0
C335 C 0.48782 0.42429 0.7583 0.0
C336 C 0.48352 0.42266 0.79245 0.0
C337 C 0.47396 0.46522 0.8169 0.0
H338 H 0.47136 0.54597 0.766 0.0
C339 C 0.46922 0.50931 0.80647 0.0
C340 C 0.47351 0.51092 0.77251 0.0
H341 H 0.46242 0.54294 0.82461 0.0
H342 H 0.53305 0.44781 0.58815 0.0
H343 H 0.49273 0.43417 0.64024 0.0
H344 H 0.48185 0.58908 0.67777 0.0
H345 H 0.52174 0.60233 0.62531 0.0
H346 H 0.44394 0.53334 0.71205 0.0
H347 H 0.5145 0.44069 0.69688 0.0
H348 H 0.49543 0.39102 0.73996 0.0
H349 H 0.4875 0.38812 0.79963 0.0
C350 C 0.657 0.52615 0.38334 0.0
C351 C 0.64051 0.48187 0.39078 0.0
C352 C 0.67832 0.52707 0.35155 0.0
C353 C 0.68382 0.48356 0.32706 0.0
C354 C 0.67321 0.4393 0.3362 0.0
C355 C 0.6511 0.43846 0.36757 0.0
C356 C 0.6939 0.48222 0.29085 0.0
C357 C 0.67683 0.51736 0.27529 0.0
C358 C 0.67019 0.50954 0.23788 0.0
C359 C 0.67464 0.54934 0.2226 0.0
C360 C 0.66256 0.5439 0.18792 0.0
C361 C 0.64444 0.49868 0.16792 0.0
H362 H 0.64746 0.43284 0.22875 0.0
C363 C 0.64042 0.45875 0.18316 0.0
C364 C 0.65326 0.46405 0.21771 0.0
H365 H 0.62651 0.42345 0.16851 0.0
H366 H 0.64918 0.5601 0.40092 0.0
H367 H 0.68796 0.56183 0.3458 0.0
H368 H 0.67775 0.40525 0.31805 0.0
H369 H 0.63893 0.40385 0.37287 0.0
H370 H 0.70839 0.44826 0.27557 0.0
H371 H 0.66284 0.5518 0.29005 0.0
H372 H 0.68673 0.58489 0.23764 0.0
H373 H 0.66583 0.57548 0.177 0.0
loop_
_geom_bond_atom_site_label_1
_geom_bond_atom_site_label_2
_geom_bond_distance
_geom_bond_site_symmetry_2
_ccdc_geom_bond_type
O0 Mn1 2.163 1_654 S
O0 C14 1.244 1_554 S
Mn1 O0 2.163 1_456 S
Mn1 O4 2.160 1_545 S
Mn1 O5 2.221 1_556 S
Mn1 O7 2.163 1_556 S
Mn1 O9 2.160 . S
Mn1 O19 2.221 1_445 S
O2 Mn3 2.087 1_545 S
O2 C14 1.256 . S
Mn3 O2 2.087 1_565 S
Mn3 O10 2.089 1_565 S
Mn3 O19 2.290 . S
Mn3 O20 2.251 . S
O4 Mn1 2.160 1_565 S
O4 C15 1.239 1_556 S
O5 Mn1 2.221 1_554 S
O5 Mn6 2.290 . S
O5 C16 1.278 . S
Mn6 O5 2.290 . S
Mn6 O8 2.089 1_545 S
Mn6 O11 2.251 . S
Mn6 O12 2.087 . S
O7 Mn1 2.163 1_554 S
O7 C17 1.244 . S
O8 Mn6 2.089 1_565 S
O8 C15 1.256 . S
O9 Mn1 2.160 . S
O9 C18 1.239 . S
O10 Mn3 2.089 1_545 S
O10 C18 1.256 1_655 S
O11 Mn6 2.251 . S
O11 C16 1.241 . S
O12 Mn6 2.087 . S
O12 C17 1.256 . S
C13 O19 1.278 . S
C13 O20 1.241 . S
C14 O0 1.244 1_556 S
C14 O2 1.256 . S
C15 O4 1.239 1_554 S
C15 O8 1.256 . S
C16 O5 1.278 . S
C16 O11 1.241 . S
C17 O7 1.244 . S
C17 O12 1.256 . S
C18 O9 1.239 . S
C18 O10 1.256 1_455 S
O19 Mn1 2.221 1_665 S
O19 Mn3 2.290 . S
O19 C13 1.278 . S
O20 Mn3 2.251 . S
O20 C13 1.241 . S
O21 Mn22 2.163 . S
O21 C35 1.244 . S
Mn22 O21 2.163 . S
Mn22 O25 2.160 . S
Mn22 O26 2.221 . S
Mn22 O28 2.163 . S
Mn22 O30 2.160 . S
Mn22 O40 2.221 . S
O23 Mn24 2.087 . S
O23 C35 1.256 . S
Mn24 O23 2.087 . S
Mn24 O31 2.089 . S
Mn24 O40 2.290 . S
Mn24 O41 2.251 . S
O25 Mn22 2.160 . S
O25 C36 1.239 . S
O26 Mn22 2.221 . S
O26 Mn27 2.290 . S
O26 C37 1.278 . S
Mn27 O26 2.290 . S
Mn27 O29 2.089 . S
Mn27 O32 2.251 . S
Mn27 O33 2.087 . S
O28 Mn22 2.163 . S
O28 C38 1.244 . S
O29 Mn27 2.089 . S
O29 C36 1.256 . S
O30 Mn22 2.160 . S
O30 C39 1.239 . S
O31 Mn24 2.089 . S
O31 C39 1.256 . S
O32 Mn27 2.251 . S
O32 C37 1.241 . S
O33 Mn27 2.087 . S
O33 C38 1.256 . S
C34 O40 1.278 . S
C34 O41 1.241 . S
C35 O21 1.244 . S
C35 O23 1.256 . S
C36 O25 1.239 . S
C36 O29 1.256 . S
C37 O26 1.278 . S
C37 O32 1.241 . S
C38 O28 1.244 . S
C38 O33 1.256 . S
C39 O30 1.239 . S
C39 O31 1.256 . S
O40 Mn22 2.221 . S
O40 Mn24 2.290 . S
O40 C34 1.278 . S
O41 Mn24 2.251 . S
O41 C34 1.241 . S
O42 Cd43 2.300 . S
O42 C49 1.275 1_565 S
Cd43 O42 2.300 . S
Cd43 O51 2.381 . S
Cd43 O52 2.378 . S
O44 Cd45 2.385 . S
O44 C49 1.255 . S
Cd45 O44 2.385 . S
Cd45 O46 2.330 . S
O46 Cd45 2.330 . S
O46 C47 1.218 1_455 S
C47 O46 1.218 1_655 S
C47 O48 1.218 . S
O48 C47 1.218 . S
C49 O42 1.275 1_545 S
C49 O44 1.255 . S
C50 O51 1.258 . S
C50 O52 1.256 . S
O51 Cd43 2.381 . S
O51 C50 1.258 . S
O52 Cd43 2.378 . S
O52 C50 1.256 . S
O53 Cd54 2.300 . S
O53 C60 1.275 . S
Cd54 O53 2.300 . S
Cd54 O62 2.381 . S
Cd54 O63 2.378 . S
O55 Cd56 2.385 1_545 S
O55 C60 1.255 . S
Cd56 O55 2.385 1_565 S
Cd56 O57 2.317 1_455 S
O57 Cd56 2.317 1_655 S
O57 C58 1.232 . S
C58 O57 1.232 . S
C58 O59 1.218 . S
O59 C58 1.218 . S
C60 O53 1.275 . S
C60 O55 1.255 . S
C61 O62 1.258 . S
C61 O63 1.256 . S
O62 Cd54 2.381 . S
O62 C61 1.258 . S
O63 Cd54 2.378 . S
O63 C61 1.256 . S
O64 Cd65 2.300 . S
O64 C71 1.275 . S
Cd65 O64 2.300 . S
Cd65 O73 2.381 . S
Cd65 O74 2.378 . S
O66 Cd67 2.385 . S
O66 C71 1.255 . S
Cd67 O66 2.385 . S
Cd67 O68 2.317 . S
O68 Cd67 2.317 . S
O68 C69 1.232 . S
C69 O68 1.232 . S
C69 O70 1.218 . S
O70 C69 1.218 . S
C71 O64 1.275 . S
C71 O66 1.255 . S
C72 O73 1.258 . S
C72 O74 1.256 . S
O73 Cd65 2.381 . S
O73 C72 1.258 . S
O74 Cd65 2.378 . S
O74 C72 1.256 . S
O75 Cd76 2.300 . S
O75 C82 1.275 . S
Cd76 O75 2.300 . S
Cd76 O84 2.381 . S
Cd76 O85 2.378 . S
O77 Cd78 2.385 . S
O77 C82 1.255 . S
Cd78 O77 2.385 . S
Cd78 O79 2.317 . S
O79 Cd78 2.317 . S
O79 C80 1.232 . S
C80 O79 1.232 . S
C80 O81 1.218 . S
O81 C80 1.218 . S
C82 O75 1.275 . S
C82 O77 1.255 . S
C83 O84 1.258 . S
C83 O85 1.256 . S
O84 Cd76 2.381 . S
O84 C83 1.258 . S
O85 Cd76 2.378 . S
O85 C83 1.256 . S
C86 C87 1.386 . S
C86 C88 1.383 . S
C86 H102 0.951 . S
C87 C86 1.386 . S
C87 C91 1.383 1_554 S
C88 C86 1.383 . S
C88 C89 1.402 . S
C88 H103 0.951 . S
C89 C88 1.402 . S
C89 C90 1.375 1_554 S
C89 C92 1.481 . S
C90 C89 1.375 1_556 S
C90 C91 1.367 . S
C90 H104 0.951 . S
C91 C87 1.383 1_556 S
C91 C90 1.367 . S
C91 H105 0.950 . S
C92 C89 1.481 . S
C92 C93 1.297 . S
C92 H106 0.950 1_554 S
C93 C92 1.297 . S
C93 C94 1.479 . S
C93 H107 0.950 . S
C94 C93 1.479 . S
C94 C95 1.375 . S
C94 C100 1.404 . S
C95 C94 1.375 . S
C95 C96 1.369 . S
C95 H108 0.950 . S
C96 C95 1.369 . S
C96 C97 1.392 . S
C96 H109 0.951 . S
C97 C96 1.392 . S
C97 C99 1.384 . S
H98 C100 0.949 1_556 S
C99 C97 1.384 . S
C99 C100 1.385 . S
C99 H101 0.950 . S
C100 C94 1.404 . S
C100 H98 0.949 1_554 S
C100 C99 1.385 . S
H101 C99 0.950 . S
H102 C86 0.951 . S
H103 C88 0.951 . S
H104 C90 0.951 . S
H105 C91 0.950 . S
H106 C92 0.950 1_556 S
H107 C93 0.950 . S
H108 C95 0.950 . S
H109 C96 0.951 . S
C110 C111 1.386 . S
C110 C112 1.383 . S
C110 H126 0.951 . S
C111 C110 1.386 . S
C111 C115 1.383 1_556 S
C112 C110 1.383 . S
C112 C113 1.402 . S
C112 H127 0.951 . S
C113 C112 1.402 . S
C113 C114 1.374 1_556 S
C113 C116 1.481 . S
C114 C113 1.374 1_554 S
C114 C115 1.367 . S
C114 H128 0.952 . S
C115 C111 1.383 1_554 S
C115 C114 1.367 . S
C115 H129 0.950 . S
C116 C113 1.481 . S
C116 C117 1.297 . S
C116 H130 0.950 . S
C117 C116 1.297 . S
C117 C118 1.479 . S
C117 H131 0.950 . S
C118 C117 1.479 . S
C118 C119 1.375 . S
C118 C124 1.404 . S
C119 C118 1.375 . S
C119 C120 1.369 . S
C119 H132 0.950 . S
C120 C119 1.369 . S
C120 C121 1.392 . S
C120 H133 0.951 . S
C121 C120 1.392 . S
C121 C123 1.384 . S
H122 C124 0.949 . S
C123 C121 1.384 . S
C123 C124 1.385 . S
C123 H125 0.950 . S
C124 C118 1.404 . S
C124 H122 0.949 . S
C124 C123 1.385 . S
H125 C123 0.950 . S
H126 C110 0.951 . S
H127 C112 0.951 . S
H128 C114 0.952 . S
H129 C115 0.950 . S
H130 C116 0.950 . S
H131 C117 0.950 . S
H132 C119 0.950 . S
H133 C120 0.951 . S
C134 C135 1.386 . S
C134 C136 1.383 . S
C134 H150 0.951 . S
C135 C134 1.386 . S
C135 C139 1.383 . S
C136 C134 1.383 . S
C136 C137 1.402 . S
C136 H151 0.951 . S
C137 C136 1.402 . S
C137 C138 1.375 . S
C137 C140 1.481 . S
C138 C137 1.375 . S
C138 C139 1.367 . S
C138 H152 0.951 . S
C139 C135 1.383 . S
C139 C138 1.367 . S
C139 H153 0.950 1_554 S
C140 C137 1.481 . S
C140 C141 1.297 . S
C140 H154 0.950 . S
C141 C140 1.297 . S
C141 C142 1.479 . S
C141 H155 0.950 . S
C142 C141 1.479 . S
C142 C143 1.375 . S
C142 C148 1.404 . S
C143 C142 1.375 . S
C143 C144 1.369 . S
C143 H156 0.950 . S
C144 C143 1.369 . S
C144 C145 1.392 . S
C144 H157 0.951 . S
C145 C144 1.392 . S
C145 C147 1.384 . S
H146 C148 0.949 . S
C147 C145 1.384 . S
C147 C148 1.385 . S
C147 H149 0.950 . S
C148 C142 1.404 . S
C148 H146 0.949 . S
C148 C147 1.385 . S
H149 C147 0.950 . S
H150 C134 0.951 . S
H151 C136 0.951 . S
H152 C138 0.951 . S
H153 C139 0.950 1_556 S
H154 C140 0.950 . S
H155 C141 0.950 . S
H156 C143 0.950 . S
H157 C144 0.951 . S
C158 C159 1.385 1_554 S
C158 C160 1.383 . S
C158 H174 0.951 . S
C159 C158 1.385 1_556 S
C159 C163 1.384 . S
C160 C158 1.383 . S
C160 C161 1.402 1_554 S
C160 H175 0.951 . S
C161 C160 1.402 1_556 S
C161 C162 1.375 . S
C161 C164 1.481 . S
C162 C161 1.375 . S
C162 C163 1.367 . S
C162 H176 0.951 . S
C163 C159 1.384 . S
C163 C162 1.367 . S
C163 H177 0.950 . S
C164 C161 1.481 . S
C164 C165 1.297 1_556 S
C164 H178 0.950 . S
C165 C164 1.297 1_554 S
C165 C166 1.479 1_554 S
C165 H179 0.950 . S
C166 C165 1.479 1_556 S
C166 C167 1.375 1_556 S
C166 C172 1.404 . S
C167 C166 1.375 1_554 S
C167 C168 1.369 . S
C167 H180 0.950 . S
C168 C167 1.369 . S
C168 C169 1.392 1_554 S
C168 H181 0.951 . S
C169 C168 1.392 1_556 S
C169 C171 1.384 . S
H170 C172 0.949 . S
C171 C169 1.384 . S
C171 C172 1.385 . S
C171 H173 0.950 . S
C172 C166 1.404 . S
C172 H170 0.949 . S
C172 C171 1.385 . S
H173 C171 0.950 . S
H174 C158 0.951 . S
H175 C160 0.951 . S
H176 C162 0.951 . S
H177 C163 0.950 . S
H178 C164 0.950 . S
H179 C165 0.950 . S
H180 C167 0.950 . S
H181 C168 0.951 . S
C182 C183 1.386 . S
C182 C184 1.383 . S
C182 H198 0.951 . S
C183 C182 1.386 . S
C183 C187 1.383 . S
C184 C182 1.383 . S
C184 C185 1.402 . S
C184 H199 0.951 . S
C185 C184 1.402 . S
C185 C186 1.375 . S
C185 C188 1.481 . S
C186 C185 1.375 . S
C186 C187 1.367 . S
C186 H200 0.951 . S
C187 C183 1.383 . S
C187 C186 1.367 . S
C187 H201 0.950 . S
C188 C185 1.481 . S
C188 C189 1.297 . S
C188 H202 0.950 . S
C189 C188 1.297 . S
C189 C190 1.479 . S
C189 H203 0.950 . S
C190 C189 1.479 . S
C190 C191 1.375 . S
C190 C196 1.404 . S
C191 C190 1.375 . S
C191 C192 1.369 . S
C191 H204 0.950 . S
C192 C191 1.369 . S
C192 C193 1.392 . S
C192 H205 0.951 . S
C193 C192 1.392 . S
C193 C195 1.384 . S
H194 C196 0.949 . S
C195 C193 1.384 . S
C195 C196 1.385 . S
C195 H197 0.950 . S
C196 C190 1.404 . S
C196 H194 0.949 . S
C196 C195 1.385 . S
H197 C195 0.950 . S
H198 C182 0.951 . S
H199 C184 0.951 . S
H200 C186 0.951 . S
H201 C187 0.950 . S
H202 C188 0.950 . S
H203 C189 0.950 . S
H204 C191 0.950 . S
H205 C192 0.951 . S
C206 C207 1.386 . S
C206 C208 1.383 . S
C206 H222 0.951 . S
C207 C206 1.386 . S
C207 C211 1.383 . S
C208 C206 1.383 . S
C208 C209 1.402 . S
C208 H223 0.951 . S
C209 C208 1.402 . S
C209 C210 1.375 . S
C209 C212 1.481 . S
C210 C209 1.375 . S
C210 C211 1.367 . S
C210 H224 0.951 . S
C211 C207 1.383 . S
C211 C210 1.367 . S
C211 H225 0.950 . S
C212 C209 1.481 . S
C212 C213 1.297 . S
C212 H226 0.950 . S
C213 C212 1.297 . S
C213 C214 1.479 . S
C213 H227 0.950 . S
C214 C213 1.479 . S
C214 C215 1.375 . S
C214 C220 1.404 . S
C215 C214 1.375 . S
C215 C216 1.369 . S
C215 H228 0.950 . S
C216 C215 1.369 . S
C216 C217 1.392 . S
C216 H229 0.951 . S
C217 C216 1.392 . S
C217 C219 1.384 . S
H218 C220 0.949 . S
C219 C217 1.384 . S
C219 C220 1.385 . S
C219 H221 0.950 . S
C220 C214 1.404 . S
C220 H218 0.949 . S
C220 C219 1.385 . S
H221 C219 0.950 . S
H222 C206 0.951 . S
H223 C208 0.951 . S
H224 C210 0.951 . S
H225 C211 0.950 . S
H226 C212 0.950 . S
H227 C213 0.950 . S
H228 C215 0.950 . S
H229 C216 0.951 . S
C230 C231 1.386 . S
C230 C232 1.383 . S
C230 H246 0.951 . S
C231 C230 1.386 . S
C231 C235 1.383 . S
C232 C230 1.383 . S
C232 C233 1.402 . S
C232 H247 0.951 . S
C233 C232 1.402 . S
C233 C234 1.375 . S
C233 C236 1.481 . S
C234 C233 1.375 . S
C234 C235 1.367 . S
C234 H248 0.951 . S
C235 C231 1.383 . S
C235 C234 1.367 . S
C235 H249 0.950 . S
C236 C233 1.481 . S
C236 C237 1.297 . S
C236 H250 0.950 . S
C237 C236 1.297 . S
C237 C238 1.479 . S
C237 H251 0.950 . S
C238 C237 1.479 . S
C238 C239 1.375 . S
C238 C244 1.404 . S
C239 C238 1.375 . S
C239 C240 1.369 . S
C239 H252 0.950 . S
C240 C239 1.369 . S
C240 C241 1.392 . S
C240 H253 0.951 . S
C241 C240 1.392 . S
C241 C243 1.384 . S
H242 C244 0.949 . S
C243 C241 1.384 . S
C243 C244 1.385 . S
C243 H245 0.950 . S
C244 C238 1.404 . S
C244 H242 0.949 . S
C244 C243 1.385 . S
H245 C243 0.950 . S
H246 C230 0.951 . S
H247 C232 0.951 . S
H248 C234 0.951 . S
H249 C235 0.950 . S
H250 C236 0.950 . S
H251 C237 0.950 . S
H252 C239 0.950 . S
H253 C240 0.951 . S
C254 C255 1.386 . S
C254 C256 1.383 . S
C254 H270 0.951 . S
C255 C254 1.386 . S
C255 C259 1.383 . S
C256 C254 1.383 . S
C256 C257 1.402 . S
C256 H271 0.951 . S
C257 C256 1.402 . S
C257 C258 1.375 . S
C257 C260 1.481 . S
C258 C257 1.375 . S
C258 C259 1.367 . S
C258 H272 0.951 . S
C259 C255 1.383 . S
C259 C258 1.367 . S
C259 H273 0.950 . S
C260 C257 1.481 . S
C260 C261 1.297 . S
C260 H274 0.950 . S
C261 C260 1.297 . S
C261 C262 1.479 . S
C261 H275 0.950 . S
C262 C261 1.479 . S
C262 C263 1.375 . S
C262 C268 1.404 . S
C263 C262 1.375 . S
C263 C264 1.369 . S
C263 H276 0.950 . S
C264 C263 1.369 . S
C264 C265 1.392 . S
C264 H277 0.951 . S
C265 C264 1.392 . S
C265 C267 1.384 . S
H266 C268 0.949 . S
C267 C265 1.384 . S
C267 C268 1.385 . S
C267 H269 0.950 . S
C268 C262 1.404 . S
C268 H266 0.949 . S
C268 C267 1.385 . S
H269 C267 0.950 . S
H270 C254 0.951 . S
H271 C256 0.951 . S
H272 C258 0.951 . S
H273 C259 0.950 . S
H274 C260 0.950 . S
H275 C261 0.950 . S
H276 C263 0.950 . S
H277 C264 0.951 . S
C278 C279 1.386 1_655 S
C278 C280 1.383 . S
C278 H294 0.951 . S
C279 C278 1.386 1_455 S
C279 C283 1.383 1_545 S
C280 C278 1.383 . S
C280 C281 1.402 1_645 S
C280 H295 0.951 . S
C281 C280 1.402 1_465 S
C281 C282 1.375 . S
C281 C284 1.481 . S
C282 C281 1.375 . S
C282 C283 1.367 . S
C282 H296 0.951 . S
C283 C279 1.383 1_565 S
C283 C282 1.367 . S
C283 H297 0.950 . S
C284 C281 1.481 . S
C284 C285 1.297 . S
C284 H298 0.950 . S
C285 C284 1.297 . S
C285 C286 1.479 . S
C285 H299 0.950 1_465 S
C286 C285 1.479 . S
C286 C287 1.375 1_465 S
C286 C292 1.404 . S
C287 C286 1.375 1_645 S
C287 C288 1.369 . S
C287 H300 0.950 . S
C288 C287 1.369 . S
C288 C289 1.392 1_655 S
C288 H301 0.951 . S
C289 C288 1.392 1_455 S
C289 C291 1.384 1_545 S
H290 C292 0.949 . S
C291 C289 1.384 1_565 S
C291 C292 1.385 . S
C291 H293 0.950 . S
C292 C286 1.404 . S
C292 H290 0.949 . S
C292 C291 1.385 . S
H293 C291 0.950 . S
H294 C278 0.951 . S
H295 C280 0.951 . S
H296 C282 0.951 . S
H297 C283 0.950 . S
H298 C284 0.950 . S
H299 C285 0.950 1_645 S
H300 C287 0.950 . S
H301 C288 0.951 . S
C302 C303 1.386 1_565 S
C302 C304 1.383 . S
C302 H318 0.951 . S
C303 C302 1.386 1_545 S
C303 C307 1.383 . S
C304 C302 1.383 . S
C304 C305 1.402 1_565 S
C304 H319 0.951 . S
C305 C304 1.402 1_545 S
C305 C306 1.375 . S
C305 C308 1.481 1_455 S
C306 C305 1.375 . S
C306 C307 1.367 . S
C306 H320 0.951 1_455 S
C307 C303 1.383 . S
C307 C306 1.367 . S
C307 H321 0.950 . S
C308 C305 1.481 1_655 S
C308 C309 1.297 . S
C308 H322 0.950 . S
C309 C308 1.297 . S
C309 C310 1.479 . S
C309 H323 0.950 1_545 S
C310 C309 1.479 . S
C310 C311 1.375 1_545 S
C310 C316 1.404 . S
C311 C310 1.375 1_565 S
C311 C312 1.369 . S
C311 H324 0.950 . S
C312 C311 1.369 . S
C312 C313 1.392 1_565 S
C312 H325 0.951 1_655 S
C313 C312 1.392 1_545 S
C313 C315 1.384 . S
H314 C316 0.949 . S
C315 C313 1.384 . S
C315 C316 1.385 . S
C315 H317 0.950 . S
C316 C310 1.404 . S
C316 H314 0.949 . S
C316 C315 1.385 . S
H317 C315 0.950 . S
H318 C302 0.951 . S
H319 C304 0.951 . S
H320 C306 0.951 1_655 S
H321 C307 0.950 . S
H322 C308 0.950 . S
H323 C309 0.950 1_565 S
H324 C311 0.950 . S
H325 C312 0.951 1_455 S
C326 C327 1.386 . S
C326 C328 1.383 . S
C326 H342 0.951 . S
C327 C326 1.386 . S
C327 C331 1.383 . S
C328 C326 1.383 . S
C328 C329 1.402 . S
C328 H343 0.951 . S
C329 C328 1.402 . S
C329 C330 1.375 . S
C329 C332 1.481 . S
C330 C329 1.375 . S
C330 C331 1.367 . S
C330 H344 0.951 . S
C331 C327 1.383 . S
C331 C330 1.367 . S
C331 H345 0.950 . S
C332 C329 1.481 . S
C332 C333 1.297 . S
C332 H346 0.950 . S
C333 C332 1.297 . S
C333 C334 1.479 . S
C333 H347 0.950 . S
C334 C333 1.479 . S
C334 C335 1.375 . S
C334 C340 1.404 . S
C335 C334 1.375 . S
C335 C336 1.369 . S
C335 H348 0.950 . S
C336 C335 1.369 . S
C336 C337 1.392 . S
C336 H349 0.951 . S
C337 C336 1.392 . S
C337 C339 1.384 . S
H338 C340 0.949 . S
C339 C337 1.384 . S
C339 C340 1.385 . S
C339 H341 0.950 . S
C340 C334 1.404 . S
C340 H338 0.949 . S
C340 C339 1.385 . S
H341 C339 0.950 . S
H342 C326 0.951 . S
H343 C328 0.951 . S
H344 C330 0.951 . S
H345 C331 0.950 . S
H346 C332 0.950 . S
H347 C333 0.950 . S
H348 C335 0.950 . S
H349 C336 0.951 . S
C350 C351 1.386 . S
C350 C352 1.383 . S
C350 H366 0.951 . S
C351 C350 1.386 . S
C351 C355 1.383 . S
C352 C350 1.383 . S
C352 C353 1.402 . S
C352 H367 0.951 . S
C353 C352 1.402 . S
C353 C354 1.375 . S
C353 C356 1.481 . S
C354 C353 1.375 . S
C354 C355 1.367 . S
C354 H368 0.951 . S
C355 C351 1.383 . S
C355 C354 1.367 . S
C355 H369 0.950 . S
C356 C353 1.481 . S
C356 C357 1.297 . S
C356 H370 0.950 . S
C357 C356 1.297 . S
C357 C358 1.479 . S
C357 H371 0.950 . S
C358 C357 1.479 . S
C358 C359 1.375 . S
C358 C364 1.404 . S
C359 C358 1.375 . S
C359 C360 1.369 . S
C359 H372 0.950 . S
C360 C359 1.369 . S
C360 C361 1.392 . S
C360 H373 0.951 . S
C361 C360 1.392 . S
C361 C363 1.384 . S
H362 C364 0.949 . S
C363 C361 1.384 . S
C363 C364 1.385 . S
C363 H365 0.950 . S
C364 C358 1.404 . S
C364 H362 0.949 . S
C364 C363 1.385 . S
H365 C363 0.950 . S
H366 C350 0.951 . S
H367 C352 0.951 . S
H368 C354 0.951 . S
H369 C355 0.950 . S
H370 C356 0.950 . S
H371 C357 0.950 . S
H372 C359 0.950 . S
H373 C360 0.951 . S
C97 C80 1.140 . S
C87 C16 1.297 . S
C111 C15 1.453 1_556 S
C121 C69 1.202 . S
C135 C13 1.243 1_554 S
C145 C83 1.394 . S
C159 C14 1.362 . S
C169 C72 1.361 . S
C183 C37 1.197 . S
C193 C58 1.123 . S
C207 C36 1.451 . S
C217 C47 1.169 . S
C241 C61 1.427 . S
C231 C34 1.220 . S
C265 C50 1.390 . S
C255 C35 1.344 . S
C279 C17 1.525 . S
C289 C49 1.531 . S
C303 C18 1.352 . S
C313 C60 1.413 1_655 S
C337 C71 1.481 . S
C327 C38 1.511 . S
C351 C39 1.375 . S
C361 C82 1.309 . S
